
#######################################################################
#
#                 Cambridge Crystallographic Data Centre
#                                CCDC 
#
#######################################################################
#
# If this CIF has been generated from an entry in the Cambridge 
# Structural Database, then it will include bibliographic, chemical, 
# crystal, experimental, refinement or atomic coordinate data resulting 
# from the CCDC's data processing and validation procedures.
#
#######################################################################

data_XILSAO
_symmetry_cell_setting           monoclinic
_symmetry_space_group_name_H-M   'P 2/c'
_symmetry_Int_Tables_number      13
_space_group_name_Hall           '-P 2yc'
loop_
_symmetry_equiv_pos_site_id
_symmetry_equiv_pos_as_xyz
1 x,y,z
2 -x,y,1/2-z
3 -x,-y,-z
4 x,-y,1/2+z
_cell_length_a                   13.6749(5)
_cell_length_b                   18.4956(6)
_cell_length_c                   15.6954(6)
_cell_angle_alpha                90
_cell_angle_beta                 93.152(2)
_cell_angle_gamma                90
_cell_volume                     3963.76
loop_
_atom_site_label
_atom_site_type_symbol
_atom_site_fract_x
_atom_site_fract_y
_atom_site_fract_z
C1 C 0.6634(3) 0.7935(2) 0.8281(3)
H1 H 0.7276 0.7863 0.8134
C2 C 0.5183(3) 0.7484(2) 0.8639(3)
H2 H 0.4788 0.7088 0.8741
C3 C 0.4796(3) 0.8152(2) 0.8739(3)
H3 H 0.4156 0.8202 0.8902
C4 C 0.6309(3) 0.8637(2) 0.8356(4)
H4 H 0.6717 0.9024 0.8248
C5 C 0.5354(3) 0.8754(2) 0.8600(3)
C6 C 0.5381(4) 1.0082(2) 0.8617(4)
C7 C 0.4811(3) 1.0750(2) 0.8784(3)
C8 C 0.3887(4) 1.0757(2) 0.9078(4)
H5 H 0.3576 1.0324 0.9195
C9 C 0.3418(4) 1.1400(3) 0.9201(5)
H6 H 0.2790 1.1397 0.9399
C10 C 0.5269(3) 1.1400(2) 0.8648(3)
H7 H 0.5906 1.1399 0.8468
C11 C 0.6574(3) 1.4853(2) 0.8173(3)
H8 H 0.7157 1.4921 0.7905
C12 C 0.5253(3) 1.5324(2) 0.8798(3)
H9 H 0.4899 1.5720 0.8978
C13 C 0.4883(3) 1.4648(2) 0.8920(3)
H10 H 0.4293 1.4593 0.9181
C14 C 0.6266(3) 1.4164(2) 0.8276(3)
H11 H 0.6636 1.3777 0.8096
C15 C 0.5380(3) 1.40485(19) 0.8659(2)
C16 C 0.5375(3) 1.2714(2) 0.8570(3)
C17 C 0.4809(3) 1.2054(2) 0.8769(3)
C18 C 0.3859(4) 1.2050(2) 0.9037(4)
H12 H 0.3524 1.2482 0.9106
C19 C 0.7423(3) 0.6199(2) 0.6727(3)
C20 C 0.8189(2) 0.5864(2) 0.6176(3)
C21 C 0.9110(3) 0.5729(3) 0.6548(3)
H13 H 0.9261 0.5852 0.7115
C22 C 0.7986(3) 0.5633(3) 0.5368(3)
H14 H 0.7361 0.5705 0.5118
C23 C 0.8687(3) 0.5291(3) 0.4903(3)
H15 H 0.8522 0.5130 0.4353
C24 C 0.9810(3) 0.5403(4) 0.6058(3)
H16 H 1.0436 0.5332 0.6306
C25 C 0.9628(2) 0.5188(2) 0.5250(3)
C26 C 0.7512(3) 0.64530(18) 1.0029(3)
C27 C 0.8231(2) 0.65020(19) 1.0757(2)
C28 C 0.9188(3) 0.6697(2) 1.0643(3)
H17 H 0.9376 0.6811 1.0099
C29 C 0.7990(3) 0.6318(2) 1.1579(3)
H18 H 0.7352 0.6177 1.1673
C30 C 0.8662(3) 0.6339(3) 1.2247(3)
H19 H 0.8474 0.6211 1.2787
C31 C 0.9875(3) 0.6725(3) 1.1324(3)
H20 H 1.0512 0.6867 1.1228
C32 C 0.9639(3) 0.6549(2) 1.2141(2)
H21 H 0.4351(17) 0.941(2) 0.888(2)
H22 H 0.450(2) 1.339(2) 0.912(2)
N1 N 0.6088(2) 0.73562(16) 0.8404(2)
N2 N 0.6103(2) 1.54465(16) 0.8428(2)
N3 N 0.4941(3) 0.94315(18) 0.8704(3)
N4 N 0.4988(2) 1.33658(17) 0.8803(2)
O1 O 0.66209(17) 0.63630(13) 1.01458(18)
O2 O 0.78290(17) 0.64927(14) 0.92762(17)
O3 O 0.7685(2) 0.63114(16) 0.7485(2)
O4 O 0.6605(2) 0.63263(19) 0.6379(2)
O5 O 0.6228(3) 1.01264(19) 0.8427(4)
O6 O 0.6138(3) 1.26736(16) 0.8208(3)
Zn1 Zn 0.67821(3) 0.64099(2) 0.83797(3)
C19B C 1.2577(3) 0.3801(2) 0.3273(3)
C20B C 1.1811(2) 0.4136(2) 0.3824(3)
C21B C 1.0890(3) 0.4271(3) 0.3452(3)
H13B H 1.0739 0.4148 0.2885
C22B C 1.2014(3) 0.4367(3) 0.4632(3)
H14B H 1.2639 0.4295 0.4882
C23B C 1.1313(3) 0.4709(3) 0.5097(3)
H15B H 1.1478 0.4870 0.5647
C24B C 1.0190(3) 0.4597(4) 0.3942(3)
H16B H 0.9564 0.4668 0.3694
C25B C 1.0372(2) 0.4812(2) 0.4750(3)
O3B O 1.2315(2) 0.36886(16) 0.2515(2)
O4B O 1.3395(2) 0.36737(19) 0.3621(2)
C26A C 1.2488(3) 0.64530(18) 1.4971(3)
C27A C 1.1769(2) 0.65020(19) 1.4243(2)
C28A C 1.0812(3) 0.6697(2) 1.4357(3)
H17A H 1.0624 0.6811 1.4901
C29A C 1.2010(3) 0.6318(2) 1.3421(3)
H18A H 1.2648 0.6177 1.3327
C30A C 1.1338(3) 0.6339(3) 1.2753(3)
H19A H 1.1526 0.6211 1.2213
C31A C 1.0125(3) 0.6725(3) 1.3676(3)
H20A H 0.9488 0.6867 1.3772
C32A C 1.0361(3) 0.6549(2) 1.2859(2)
O1A O 1.33791(17) 0.63630(13) 1.48542(18)
O2A O 1.21710(17) 0.64927(14) 1.57238(17)
C1A C 1.3366(3) 0.7935(2) 1.6719(3)
H1A H 1.2724 0.7863 1.6866
C2A C 1.4817(3) 0.7484(2) 1.6361(3)
H2A H 1.5212 0.7088 1.6259
C3A C 1.5204(3) 0.8152(2) 1.6261(3)
H3A H 1.5844 0.8202 1.6098
C4A C 1.3691(3) 0.8637(2) 1.6644(4)
H4A H 1.3283 0.9024 1.6752
C5A C 1.4646(3) 0.8754(2) 1.6400(3)
C6A C 1.4619(4) 1.0082(2) 1.6383(4)
C7A C 1.5189(3) 1.0750(2) 1.6216(3)
C8A C 1.6113(4) 1.0757(2) 1.5922(4)
H5A H 1.6424 1.0324 1.5805
C9A C 1.6582(4) 1.1400(3) 1.5799(5)
H6A H 1.7210 1.1397 1.5601
C10A C 1.4731(3) 1.1400(2) 1.6352(3)
H7A H 1.4094 1.1399 1.6532
C11A C 1.3426(3) 1.4853(2) 1.6827(3)
H8A H 1.2843 1.4921 1.7095
C12A C 1.4747(3) 1.5324(2) 1.6202(3)
H9A H 1.5101 1.5720 1.6022
C13A C 1.5117(3) 1.4648(2) 1.6080(3)
H10A H 1.5707 1.4593 1.5819
C14A C 1.3734(3) 1.4164(2) 1.6724(3)
H11A H 1.3364 1.3777 1.6904
C15A C 1.4620(3) 1.40485(19) 1.6341(2)
C16A C 1.4625(3) 1.2714(2) 1.6430(3)
C17A C 1.5191(3) 1.2054(2) 1.6231(3)
C18A C 1.6141(4) 1.2050(2) 1.5963(4)
H12A H 1.6476 1.2482 1.5894
H21A H 1.5649(17) 0.941(2) 1.612(2)
H22A H 1.550(2) 1.339(2) 1.588(2)
N1A N 1.3912(2) 0.73562(16) 1.6596(2)
N2A N 1.3897(2) 1.54465(16) 1.6572(2)
N3A N 1.5059(3) 0.94315(18) 1.6296(3)
N4A N 1.5012(2) 1.33658(17) 1.6197(2)
O5A O 1.3772(3) 1.01264(19) 1.6573(4)
O6A O 1.3862(3) 1.26736(16) 1.6792(3)
Zn1A Zn 1.32179(3) 0.64099(2) 1.66203(3)
N2_2 N 0.6103(2) 0.54465(16) 0.8428(2)
N2A_2 N 1.3897(2) 0.54465(16) 1.6572(2)
O3A O 1.2315(2) 0.63114(16) 1.7515(2)
Zn1_2 Zn 0.67821(3) 1.64099(2) 0.83797(3)
Zn1A_2 Zn 1.32179(3) 1.64099(2) 1.66203(3)
Zn1B Zn 1.32179(3) 0.35901(2) 0.16203(3)
loop_
_geom_bond_atom_site_label_1
_geom_bond_atom_site_label_2
_geom_bond_site_symmetry_1
_geom_bond_site_symmetry_2
C1 H1 1_555 1_555
C2 H2 1_555 1_555
C3 C2 1_555 1_555
H3 C3 1_555 1_555
C4 C1 1_555 1_555
H4 C4 1_555 1_555
C5 C3 1_555 1_555
C6 C7 1_555 1_555
C7 C8 1_555 1_555
C8 H5 1_555 1_555
C9 C8 1_555 1_555
H6 C9 1_555 1_555
C10 C7 1_555 1_555
H7 C10 1_555 1_555
C11 H8 1_555 1_555
C12 H9 1_555 1_555
C13 C12 1_555 1_555
H10 C13 1_555 1_555
C14 C11 1_555 1_555
H11 C14 1_555 1_555
C15 C13 1_555 1_555
C16 C17 1_555 1_555
C17 C10 1_555 1_555
C18 C9 1_555 1_555
H12 C18 1_555 1_555
C19 C20 1_555 1_555
C20 C21 1_555 1_555
C21 H13 1_555 1_555
C22 C20 1_555 1_555
H14 C22 1_555 1_555
C23 C22 1_555 1_555
H15 C23 1_555 1_555
C24 C21 1_555 1_555
H16 C24 1_555 1_555
C25 C23 1_555 1_555
C26 C27 1_555 1_555
C27 C28 1_555 1_555
C28 H17 1_555 1_555
C29 C27 1_555 1_555
H18 C29 1_555 1_555
C30 C29 1_555 1_555
H19 C30 1_555 1_555
C31 C28 1_555 1_555
H20 C31 1_555 1_555
C32 C30 1_555 1_555
H21 N3 1_555 1_555
H22 N4 1_555 1_555
N1 C1 1_555 1_555
N2 C11 1_555 1_555
N3 C5 1_555 1_555
N4 C15 1_555 1_555
O1 C26 1_555 1_555
O2 C26 1_555 1_555
O3 C19 1_555 1_555
O4 C19 1_555 1_555
O5 C6 1_555 1_555
O6 C16 1_555 1_555
Zn1 N1 1_555 1_555
C19B C20B 1_555 1_555
C20B C21B 1_555 1_555
C21B H13B 1_555 1_555
C22B C20B 1_555 1_555
H14B C22B 1_555 1_555
C23B C22B 1_555 1_555
H15B C23B 1_555 1_555
C24B C21B 1_555 1_555
H16B C24B 1_555 1_555
C25B C25 1_555 1_555
O3B C19B 1_555 1_555
O4B C19B 1_555 1_555
C26A C27A 1_555 1_555
C27A C28A 1_555 1_555
C28A H17A 1_555 1_555
C29A C27A 1_555 1_555
H18A C29A 1_555 1_555
C30A C29A 1_555 1_555
H19A C30A 1_555 1_555
C31A C28A 1_555 1_555
H20A C31A 1_555 1_555
C32A C32 1_555 1_555
O1A C26A 1_555 1_555
O2A C26A 1_555 1_555
C1A H1A 1_555 1_555
C2A H2A 1_555 1_555
C3A C2A 1_555 1_555
H3A C3A 1_555 1_555
C4A C1A 1_555 1_555
H4A C4A 1_555 1_555
C5A C3A 1_555 1_555
C6A C7A 1_555 1_555
C7A C8A 1_555 1_555
C8A H5A 1_555 1_555
C9A C8A 1_555 1_555
H6A C9A 1_555 1_555
C10A C7A 1_555 1_555
H7A C10A 1_555 1_555
C11A H8A 1_555 1_555
C12A H9A 1_555 1_555
C13A C12A 1_555 1_555
H10A C13A 1_555 1_555
C14A C11A 1_555 1_555
H11A C14A 1_555 1_555
C15A C13A 1_555 1_555
C16A C17A 1_555 1_555
C17A C10A 1_555 1_555
C18A C9A 1_555 1_555
H12A C18A 1_555 1_555
H21A N3A 1_555 1_555
H22A N4A 1_555 1_555
N1A C1A 1_555 1_555
N2A C11A 1_555 1_555
N3A C5A 1_555 1_555
N4A C15A 1_555 1_555
O5A C6A 1_555 1_555
O6A C16A 1_555 1_555
Zn1A O2A 1_555 1_555
N2_2 Zn1 1_555 1_555
N2A_2 Zn1A 1_555 1_555
O3A Zn1A 1_555 1_555
Zn1_2 N2 1_555 1_555
Zn1A_2 N2A 1_555 1_555
Zn1B O3B 1_555 1_555
C2 N1 1_555 1_555
C4 C5 1_555 1_555
C6 N3 1_555 1_555
C12 N2 1_555 1_555
C14 C15 1_555 1_555
C16 N4 1_555 1_555
C17 C18 1_555 1_555
C24 C25 1_555 1_555
C31 C32 1_555 1_555
O2 Zn1 1_555 1_555
O3 Zn1 1_555 1_555
C23B C25B 1_555 1_555
C24B C25B 1_555 1_555
C30A C32A 1_555 1_555
C31A C32A 1_555 1_555
C2A N1A 1_555 1_555
C4A C5A 1_555 1_555
C6A N3A 1_555 1_555
C12A N2A 1_555 1_555
C14A C15A 1_555 1_555
C16A N4A 1_555 1_555
C17A C18A 1_555 1_555
N1A Zn1A 1_555 1_555

#END
