
#######################################################################
#
#                 Cambridge Crystallographic Data Centre
#                                CCDC 
#
#######################################################################
#
# If this CIF has been generated from an entry in the Cambridge 
# Structural Database, then it will include bibliographic, chemical, 
# crystal, experimental, refinement or atomic coordinate data resulting 
# from the CCDC's data processing and validation procedures.
#
#######################################################################

data_XILTAP
_symmetry_cell_setting           monoclinic
_symmetry_space_group_name_H-M   'C 2/m'
_symmetry_Int_Tables_number      12
_space_group_name_Hall           '-C 2y'
loop_
_symmetry_equiv_pos_site_id
_symmetry_equiv_pos_as_xyz
1 x,y,z
2 -x,y,-z
3 1/2+x,1/2+y,z
4 1/2-x,1/2+y,-z
5 -x,-y,-z
6 x,-y,z
7 1/2-x,1/2-y,-z
8 1/2+x,1/2-y,z
_cell_length_a                   22.058(7)
_cell_length_b                   16.9068(16)
_cell_length_c                   16.240(4)
_cell_angle_alpha                90
_cell_angle_beta                 121.36(4)
_cell_angle_gamma                90
_cell_volume                     5171.64
loop_
_atom_site_label
_atom_site_type_symbol
_atom_site_fract_x
_atom_site_fract_y
_atom_site_fract_z
Zn1 Zn 0.07820(9) 0.0000 0.54794(10)
O1 O 0.0813(4) 0.0844(3) 0.6351(4)
N1 N 0.1722(6) 0.0000 0.5524(7)
O2 O 0.0358(4) 0.0827(4) 0.4411(5)
C1 C 0.0228(8) 0.1075(5) 0.6225(8)
C2 C 0.2332(8) 0.0000 0.6278(9)
C3 C 0.1641(8) 0.0000 0.4638(9)
C4 C 0.0253(7) 0.1735(5) 0.6867(7)
H1 H 0.2359 0.0000 0.6869
C5 C 0.3008(8) 0.0000 0.6290(9)
C6 C 0.2302(9) 0.0000 0.4627(11)
H2 H 0.1196 0.0000 0.4075
C7 C -0.0373(5) 0.2035(6) 0.6708(6)
C8 C 0.0823(6) 0.2015(7) 0.7583(8)
H3 H 0.3445 0.0000 0.6865
C9 C 0.2961(8) 0.0000 0.5468(10)
H4 H 0.2277 0.0000 0.4038
C10 C -0.0370(6) 0.2630(6) 0.7285(7)
H5 H -0.0801 0.1837 0.6209
H6 H 0.1253 0.1795 0.7723
C11 C 0.0839(7) 0.2634(6) 0.8171(7)
N2 N 0.3563(6) 0.0000 0.5362(7)
C12 C 0.0205(6) 0.2936(5) 0.8018(6)
H7 H -0.0806 0.2831 0.7146
H8 H 0.1270 0.2838 0.8657
C13 C 0.3796(6) 0.0749(7) 0.5265(7)
C14 C 0.0199(5) 0.3552(5) 0.8666(5)
O3 O 0.3518(4) 0.1345(4) 0.5293(5)
C15 C 0.4436(5) 0.0714(6) 0.5129(6)
C16 C 0.0052(5) 0.3310(4) 0.9353(5)
C17 C 0.0251(5) 0.4337(4) 0.8432(5)
C18 C 0.4681(6) 0.1408(7) 0.5058(7)
C19 C 0.4677(6) 0.0000 0.5038(7)
N3 N 0.0000 0.3807(5) 1.0000
C20 C 0.0033(5) 0.2547(5) 0.9617(5)
N4 N 0.0179(5) 0.5000 0.8914(6)
C21 C 0.0386(4) 0.4621(4) 0.7720(5)
H9 H 0.4469 0.1877 0.5078
Mn1 Mn 0.0000 0.5000 1.0000
H10 H 0.0061 0.2098 0.9307
H11 H 0.0464 0.4305 0.7314
O4 O -0.1212(6) 0.5000 0.8893(6)
O2E O 0.0358(4) -0.0827(4) 0.4411(5)
O1E O 0.0813(4) -0.0844(3) 0.6351(4)
O2A O -0.0358(4) 0.0827(4) 0.5589(5)
O1A O -0.0813(4) 0.0844(3) 0.3649(4)
O1D O -0.0813(4) -0.0844(3) 0.3649(4)
O2D O -0.0358(4) -0.0827(4) 0.5589(5)
Zn1A Zn -0.07820(9) 0.0000 0.45206(10)
N1A N -0.1722(6) 0.0000 0.4476(7)
C13E C 0.3796(6) -0.0749(7) 0.5265(7)
O3E O 0.3518(4) -0.1345(4) 0.5293(5)
C15E C 0.4436(5) -0.0714(6) 0.5129(6)
C18E C 0.4681(6) -0.1408(7) 0.5058(7)
C18A C 0.5319(6) 0.1408(7) 0.4942(7)
C19A C 0.5323(6) 0.0000 0.4962(7)
C18D C 0.5319(6) -0.1408(7) 0.4942(7)
H9E H 0.4469 -0.1877 0.5078
C16A C -0.0052(5) 0.3310(4) 1.0647(5)
C20A C -0.0033(5) 0.2547(5) 1.0383(5)
C17E C 0.0251(5) 0.5663(4) 0.8432(5)
C21E C 0.0386(4) 0.5379(4) 0.7720(5)
H9A H 0.5531 0.1877 0.4922
C15A C 0.5564(5) 0.0714(6) 0.4871(6)
C15D C 0.5564(5) -0.0714(6) 0.4871(6)
H9D H 0.5531 -0.1877 0.4922
N4A N -0.0179(5) 0.5000 1.1086(6)
N3D N 0.0000 0.6193(5) 1.0000
O4A O 0.1212(6) 0.5000 1.1107(6)
C14A C -0.0199(5) 0.3552(5) 1.1334(5)
H10A H -0.0061 0.2098 1.0693
C14E C 0.0199(5) 0.6448(5) 0.8666(5)
H11E H 0.0464 0.5695 0.7314
C13A C 0.6204(6) 0.0749(7) 0.4735(7)
C13D C 0.6204(6) -0.0749(7) 0.4735(7)
C17A C -0.0251(5) 0.4337(4) 1.1568(5)
C17D C -0.0251(5) 0.5663(4) 1.1568(5)
C16D C -0.0052(5) 0.6690(4) 1.0647(5)
C16E C 0.0052(5) 0.6690(4) 0.9353(5)
C12A C -0.0205(6) 0.2936(5) 1.1982(6)
C12E C 0.0205(6) 0.7064(5) 0.8018(6)
O3A O 0.6482(4) 0.1345(4) 0.4707(5)
N2A N 0.6437(6) 0.0000 0.4638(7)
O3D O 0.6482(4) -0.1345(4) 0.4707(5)
C21A C -0.0386(4) 0.4621(4) 1.2280(5)
C14D C -0.0199(5) 0.6448(5) 1.1334(5)
C21D C -0.0386(4) 0.5379(4) 1.2280(5)
C20D C -0.0033(5) 0.7453(5) 1.0383(5)
C20E C 0.0033(5) 0.7453(5) 0.9617(5)
C10A C 0.0370(6) 0.2630(6) 1.2715(7)
C11A C -0.0839(7) 0.2634(6) 1.1829(7)
C10E C -0.0370(6) 0.7370(6) 0.7285(7)
C11E C 0.0839(7) 0.7366(6) 0.8171(7)
C9A C 0.7039(8) 0.0000 0.4532(10)
H11A H -0.0464 0.4305 1.2686
C12D C -0.0205(6) 0.7064(5) 1.1982(6)
H11D H -0.0464 0.5695 1.2686
H10D H -0.0061 0.7902 1.0693
H10E H 0.0061 0.7902 0.9307
H7A H 0.0806 0.2831 1.2854
C7A C 0.0373(5) 0.2035(6) 1.3292(6)
C8A C -0.0823(6) 0.2015(7) 1.2417(8)
H8A H -0.1270 0.2838 1.1343
H7E H -0.0806 0.7169 0.7146
C7E C -0.0373(5) 0.7965(6) 0.6708(6)
C8E C 0.0823(6) 0.7985(7) 0.7583(8)
H8E H 0.1270 0.7162 0.8657
C5A C 0.6992(8) 0.0000 0.3710(9)
C6A C 0.7698(9) 0.0000 0.5373(11)
C10D C 0.0370(6) 0.7370(6) 1.2715(7)
C11D C -0.0839(7) 0.7366(6) 1.1829(7)
H5A H 0.0801 0.1837 1.3791
C4A C -0.0253(7) 0.1735(5) 1.3133(7)
H6A H -0.1253 0.1795 1.2277
H5E H -0.0801 0.8163 0.6209
C4E C 0.0253(7) 0.8265(5) 0.6867(7)
H6E H 0.1253 0.8205 0.7723
C2A C 0.7668(8) 0.0000 0.3722(9)
H3A H 0.6555 0.0000 0.3135
H4A H 0.7723 0.0000 0.5962
C3A C 0.8359(8) 0.0000 0.5362(9)
H7D H 0.0806 0.7169 1.2854
C7D C 0.0373(5) 0.7965(6) 1.3292(6)
C8D C -0.0823(6) 0.7985(7) 1.2417(8)
H8D H -0.1270 0.7162 1.1343
C1A C -0.0228(8) 0.1075(5) 1.3775(8)
C1E C 0.0228(8) 0.8925(5) 0.6225(8)
N1A_2 N 0.8278(6) 0.0000 0.4476(7)
H1A H 0.7641 0.0000 0.3131
H2A H 0.8804 0.0000 0.5925
H5D H 0.0801 0.8163 1.3791
C4D C -0.0253(7) 0.8265(5) 1.3133(7)
H6D H -0.1253 0.8205 1.2277
O2_2 O 0.0358(4) 0.0827(4) 1.4411(5)
O1A_2 O -0.0813(4) 0.0844(3) 1.3649(4)
O2D_2 O -0.0358(4) 0.9173(4) 0.5589(5)
O1E_2 O 0.0813(4) 0.9156(3) 0.6351(4)
Zn1A_2 Zn 0.92180(9) 0.0000 0.45206(10)
C1D C -0.0228(8) 0.8925(5) 1.3775(8)
Zn1_2 Zn 0.07820(9) 0.0000 1.54794(10)
Zn1A_3 Zn -0.07820(9) 0.0000 1.45206(10)
Zn1A_4 Zn -0.07820(9) 1.0000 0.45206(10)
Zn1_3 Zn 0.07820(9) 1.0000 0.54794(10)
O2E_2 O 0.0358(4) 0.9173(4) 1.4411(5)
O1D_2 O -0.0813(4) 0.9156(3) 1.3649(4)
Zn1_4 Zn 0.07820(9) 1.0000 1.54794(10)
Zn1A_5 Zn -0.07820(9) 1.0000 1.45206(10)
loop_
_geom_bond_atom_site_label_1
_geom_bond_atom_site_label_2
_geom_bond_site_symmetry_1
_geom_bond_site_symmetry_2
Zn1 O1 1_555 1_555
O1 C1 1_555 1_555
N1 Zn1 1_555 1_555
O2 Zn1 1_555 1_555
C1 C4 1_555 1_555
C2 N1 1_555 1_555
C3 N1 1_555 1_555
C4 C7 1_555 1_555
H1 C2 1_555 1_555
C5 C2 1_555 1_555
C6 C3 1_555 1_555
H2 C3 1_555 1_555
C7 C10 1_555 1_555
C8 C4 1_555 1_555
H3 C5 1_555 1_555
C9 C5 1_555 1_555
H4 C6 1_555 1_555
C10 C12 1_555 1_555
H5 C7 1_555 1_555
H6 C8 1_555 1_555
C11 C8 1_555 1_555
N2 C9 1_555 1_555
C12 C11 1_555 1_555
H7 C10 1_555 1_555
H8 C11 1_555 1_555
C13 N2 1_555 1_555
C14 C12 1_555 1_555
O3 C13 1_555 1_555
C15 C13 1_555 1_555
C16 C14 1_555 1_555
C17 C14 1_555 1_555
C18 C15 1_555 1_555
C19 C15 1_555 1_555
N3 C16 1_555 1_555
C20 C16 1_555 1_555
N4 C17 1_555 1_555
C21 C17 1_555 1_555
H9 C18 1_555 1_555
Mn1 N3 1_555 1_555
H10 C20 1_555 1_555
H11 C21 1_555 1_555
O4 Mn1 1_555 1_555
O2E Zn1 1_555 1_555
O1E Zn1 1_555 1_555
O2A C1 1_555 1_555
O1A Zn1A 1_555 1_555
O1D Zn1A 1_555 1_555
O2D Zn1A 1_555 1_555
Zn1A O2A 1_555 1_555
N1A Zn1A 1_555 1_555
C13E N2 1_555 1_555
O3E C13E 1_555 1_555
C15E C19 1_555 1_555
C18E C15E 1_555 1_555
C18A C18 1_555 1_555
C19A C19 1_555 1_555
C18D C18E 1_555 1_555
H9E C18E 1_555 1_555
C16A N3 1_555 1_555
C20A C20 1_555 1_555
C17E N4 1_555 1_555
C21E C21 1_555 1_555
H9A C18A 1_555 1_555
C15A C18A 1_555 1_555
C15D C19A 1_555 1_555
H9D C18D 1_555 1_555
N4A Mn1 1_555 1_555
N3D Mn1 1_555 1_555
O4A Mn1 1_555 1_555
C14A C16A 1_555 1_555
H10A C20A 1_555 1_555
C14E C17E 1_555 1_555
H11E C21E 1_555 1_555
C13A C15A 1_555 1_555
C13D C15D 1_555 1_555
C17A N4A 1_555 1_555
C17D N4A 1_555 1_555
C16D N3D 1_555 1_555
C16E N3D 1_555 1_555
C12A C14A 1_555 1_555
C12E C14E 1_555 1_555
O3A C13A 1_555 1_555
N2A C13A 1_555 1_555
O3D C13D 1_555 1_555
C21A C17A 1_555 1_555
C14D C17D 1_555 1_555
C21D C17D 1_555 1_555
C20D C16D 1_555 1_555
C20E C16E 1_555 1_555
C10A C12A 1_555 1_555
C11A C12A 1_555 1_555
C10E C12E 1_555 1_555
C11E C12E 1_555 1_555
C9A N2A 1_555 1_555
H11A C21A 1_555 1_555
C12D C14D 1_555 1_555
H11D C21D 1_555 1_555
H10D C20D 1_555 1_555
H10E C20E 1_555 1_555
H7A C10A 1_555 1_555
C7A C10A 1_555 1_555
C8A C11A 1_555 1_555
H8A C11A 1_555 1_555
H7E C10E 1_555 1_555
C7E C10E 1_555 1_555
C8E C11E 1_555 1_555
H8E C11E 1_555 1_555
C5A C9A 1_555 1_555
C6A C9A 1_555 1_555
C10D C12D 1_555 1_555
C11D C12D 1_555 1_555
H5A C7A 1_555 1_555
C4A C7A 1_555 1_555
H6A C8A 1_555 1_555
H5E C7E 1_555 1_555
C4E C7E 1_555 1_555
H6E C8E 1_555 1_555
C2A C5A 1_555 1_555
H3A C5A 1_555 1_555
H4A C6A 1_555 1_555
C3A C6A 1_555 1_555
H7D C10D 1_555 1_555
C7D C10D 1_555 1_555
C8D C11D 1_555 1_555
H8D C11D 1_555 1_555
C1A C4A 1_555 1_555
C1E C4E 1_555 1_555
N1A_2 C2A 1_555 1_555
H1A C2A 1_555 1_555
H2A C3A 1_555 1_555
H5D C7D 1_555 1_555
C4D C7D 1_555 1_555
H6D C8D 1_555 1_555
O2_2 C1A 1_555 1_555
O1A_2 C1A 1_555 1_555
O2D_2 C1E 1_555 1_555
O1E_2 C1E 1_555 1_555
Zn1A_2 N1A_2 1_555 1_555
C1D C4D 1_555 1_555
Zn1_2 O2_2 1_555 1_555
Zn1A_3 O1A_2 1_555 1_555
Zn1A_4 O2D_2 1_555 1_555
Zn1_3 O1E_2 1_555 1_555
O2E_2 C1D 1_555 1_555
O1D_2 C1D 1_555 1_555
Zn1_4 O2E_2 1_555 1_555
Zn1A_5 O1D_2 1_555 1_555
C6 C9 1_555 1_555
N4 Mn1 1_555 1_555
C13E C15E 1_555 1_555
C19A C15A 1_555 1_555
C18D C15D 1_555 1_555
C16A C20A 1_555 1_555
C17E C21E 1_555 1_555
C14A C17A 1_555 1_555
C14E C16E 1_555 1_555
C13D N2A 1_555 1_555
C16D C14D 1_555 1_555
C21A C21D 1_555 1_555
C20D C20E 1_555 1_555
C8A C4A 1_555 1_555
C8E C4E 1_555 1_555
C3A N1A_2 1_555 1_555
C8D C4D 1_555 1_555

#END
