
#######################################################################
#
#                 Cambridge Crystallographic Data Centre
#                                CCDC 
#
#######################################################################
#
# If this CIF has been generated from an entry in the Cambridge 
# Structural Database, then it will include bibliographic, chemical, 
# crystal, experimental, refinement or atomic coordinate data resulting 
# from the CCDC's data processing and validation procedures.
#
#######################################################################

data_XILWUM
_symmetry_cell_setting           monoclinic
_symmetry_space_group_name_H-M   'C 2/c'
_symmetry_Int_Tables_number      15
_space_group_name_Hall           '-C 2yn'
loop_
_symmetry_equiv_pos_site_id
_symmetry_equiv_pos_as_xyz
1 x,y,z
2 -x,y,1/2-z
3 1/2+x,1/2+y,z
4 1/2-x,1/2+y,1/2-z
5 -x,-y,-z
6 x,-y,1/2+z
7 1/2-x,1/2-y,-z
8 1/2+x,1/2-y,1/2+z
_cell_length_a                   21.4194(14)
_cell_length_b                   5.1337(3)
_cell_length_c                   18.4721(11)
_cell_angle_alpha                90
_cell_angle_beta                 101.377(2)
_cell_angle_gamma                90
_cell_volume                     1991.29
loop_
_atom_site_label
_atom_site_type_symbol
_atom_site_fract_x
_atom_site_fract_y
_atom_site_fract_z
Ba1 Ba 0.950308(6) 0.85993(2) 0.388375(7)
P1 P 0.91345(3) 0.59314(12) 0.55030(3)
O1 O 0.95609(8) 0.8208(3) 0.54508(10)
O2 O 0.93532(9) 0.3913(3) 0.60827(11)
O3 O 0.89924(9) 0.4791(3) 0.46986(9)
H1 H 0.8714 0.3516 0.4551
O4 O 0.66097(8) 0.4253(4) 0.57991(11)
O5 O 0.75282(9) 0.2100(4) 0.58895(13)
O6 O 0.92400(10) 0.6709(3) 0.82012(10)
O7 O 0.86008(10) 0.3587(3) 0.76412(11)
O8 O 1.0000 0.7975(6) 0.2500
H2 H 0.9669 0.6782 0.2198
N1 N 0.82383(9) 0.6196(4) 0.63897(10)
H3 H 0.8357 0.4420 0.6466
C1 C 0.83513(11) 0.7027(5) 0.56456(12)
H4 H 0.8327 0.8910 0.5608
H5 H 0.8021 0.6301 0.5263
C2 C 0.75471(11) 0.6295(4) 0.64258(14)
H6 H 0.7362 0.7913 0.6212
H7 H 0.7498 0.6227 0.6936
C3 C 0.72063(12) 0.3995(5) 0.60024(14)
C4 C 0.86479(11) 0.7630(5) 0.70126(12)
H8 H 0.8417 0.9118 0.7149
H9 H 0.9027 0.8265 0.6857
C5 C 0.88377(12) 0.5825(5) 0.76779(13)
H2A H 1.0331 0.6782 0.2802
Ba1A Ba 1.049692(6) 0.85993(2) 0.111625(7)
P1A P 1.08655(3) 0.59314(12) -0.05030(3)
O1A O 1.04391(8) 0.8208(3) -0.04508(10)
O2A O 1.06468(9) 0.3913(3) -0.10827(11)
O3A O 1.10076(9) 0.4791(3) 0.03014(9)
H1A H 1.1286 0.3516 0.0449
O4A O 1.33903(8) 0.4253(4) -0.07991(11)
O5A O 1.24718(9) 0.2100(4) -0.08895(13)
O6A O 1.07600(10) 0.6709(3) -0.32012(10)
O7A O 1.13992(10) 0.3587(3) -0.26412(11)
N1A N 1.17617(9) 0.6196(4) -0.13897(10)
H3A H 1.1643 0.4420 -0.1466
C1A C 1.16487(11) 0.7027(5) -0.06456(12)
H4A H 1.1673 0.8910 -0.0608
H5A H 1.1979 0.6301 -0.0263
C2A C 1.24529(11) 0.6295(4) -0.14258(14)
H6A H 1.2638 0.7913 -0.1212
H7A H 1.2502 0.6227 -0.1936
C3A C 1.27937(12) 0.3995(5) -0.10024(14)
C4A C 1.13521(11) 0.7630(5) -0.20126(12)
H8A H 1.1583 0.9118 -0.2149
H9A H 1.0973 0.8265 -0.1857
C5A C 1.11623(12) 0.5825(5) -0.26779(13)
Ba1D Ba 1.049692(6) 0.14007(2) -0.388375(7)
Ba1D_2 Ba 1.049692(6) 0.14007(2) 0.611625(7)
Ba1D_3 Ba 1.049692(6) 1.14007(2) -0.388375(7)
Ba1D_4 Ba 1.049692(6) 1.14007(2) 0.611625(7)
Ba1E Ba 0.950308(6) 0.14007(2) -0.111625(7)
Ba1E_2 Ba 0.950308(6) 0.14007(2) 0.888375(7)
Ba1E_3 Ba 0.950308(6) 1.14007(2) -0.111625(7)
Ba1E_4 Ba 0.950308(6) 1.14007(2) 0.888375(7)
Ba1F Ba 0.549692(6) 0.64007(2) 0.611625(7)
Ba1G Ba 1.450308(6) 0.64007(2) -0.111625(7)
O1D O 1.04391(8) 1.1792(3) 0.45492(10)
O1E O 0.95609(8) 1.1792(3) 0.04508(10)
O2D O 1.06468(9) 0.6087(3) 0.39173(11)
O2E O 0.93532(9) 0.6087(3) 0.10827(11)
O4F O 0.83903(8) 1.0747(4) 0.42009(11)
O4G O 1.16097(8) 1.0747(4) 0.07991(11)
O6D O 1.07600(10) 0.3291(3) 0.17988(10)
O6D_2 O 1.07600(10) 1.3291(3) 0.17988(10)
O6E O 0.92400(10) 0.3291(3) 0.32012(10)
O6E_2 O 0.92400(10) 1.3291(3) 0.32012(10)
O7D O 1.13992(10) 0.6413(3) 0.23588(11)
O7E O 0.86008(10) 0.6413(3) 0.26412(11)
loop_
_geom_bond_atom_site_label_1
_geom_bond_atom_site_label_2
_geom_bond_site_symmetry_1
_geom_bond_site_symmetry_2
Ba1 O1 1_555 1_555
P1 O1 1_555 1_555
O1 Ba1D_4 1_555 1_555
O2 P1 1_555 1_555
O3 Ba1 1_555 1_555
H1 O3 1_555 1_555
O4 C3 1_555 1_555
O5 C3 1_555 1_555
O6 C5 1_555 1_555
O7 C5 1_555 1_555
O8 Ba1 1_555 1_555
H2 O8 1_555 1_555
N1 H3 1_555 1_555
C1 P1 1_555 1_555
H4 C1 1_555 1_555
H5 C1 1_555 1_555
C2 N1 1_555 1_555
H6 C2 1_555 1_555
H7 C2 1_555 1_555
C3 C2 1_555 1_555
C4 N1 1_555 1_555
H8 C4 1_555 1_555
H9 C4 1_555 1_555
C5 C4 1_555 1_555
H2A O8 1_555 1_555
Ba1A O8 1_555 1_555
P1A O1A 1_555 1_555
O1A Ba1A 1_555 1_555
O2A P1A 1_555 1_555
O3A Ba1A 1_555 1_555
H1A O3A 1_555 1_555
O4A C3A 1_555 1_555
O5A C3A 1_555 1_555
O6A C5A 1_555 1_555
O7A C5A 1_555 1_555
N1A H3A 1_555 1_555
C1A P1A 1_555 1_555
H4A C1A 1_555 1_555
H5A C1A 1_555 1_555
C2A N1A 1_555 1_555
H6A C2A 1_555 1_555
H7A C2A 1_555 1_555
C3A C2A 1_555 1_555
C4A N1A 1_555 1_555
H8A C4A 1_555 1_555
H9A C4A 1_555 1_555
C5A C4A 1_555 1_555
Ba1D O6A 1_555 1_555
Ba1D_2 O2 1_555 1_555
Ba1D_3 O6A 1_555 1_555
Ba1D_4 O1D 1_555 1_555
Ba1E O2A 1_555 1_555
Ba1E_2 O6 1_555 1_555
Ba1E_3 O1A 1_555 1_555
Ba1E_4 O6 1_555 1_555
Ba1F O4 1_555 1_555
Ba1G O4A 1_555 1_555
O1D Ba1 1_555 1_555
O1E Ba1A 1_555 1_555
O2D Ba1 1_555 1_555
O2E Ba1A 1_555 1_555
O4F Ba1 1_555 1_555
O4G Ba1A 1_555 1_555
O6D Ba1A 1_555 1_555
O6D_2 Ba1A 1_555 1_555
O6E Ba1 1_555 1_555
O6E_2 Ba1 1_555 1_555
O7D Ba1A 1_555 1_555
O7E Ba1 1_555 1_555
P1 O3 1_555 1_555
O7 Ba1E_2 1_555 1_555
N1 C1 1_555 1_555
P1A O3A 1_555 1_555
O7A Ba1D 1_555 1_555
N1A C1A 1_555 1_555
Ba1E_3 O1E 1_555 1_555

#END
