
#######################################################################
#
#                 Cambridge Crystallographic Data Centre
#                                CCDC 
#
#######################################################################
#
# If this CIF has been generated from an entry in the Cambridge 
# Structural Database, then it will include bibliographic, chemical, 
# crystal, experimental, refinement or atomic coordinate data resulting 
# from the CCDC's data processing and validation procedures.
#
#######################################################################

data_XILWOF
_symmetry_cell_setting           monoclinic
_symmetry_space_group_name_H-M   'C 2/c'
_symmetry_Int_Tables_number      15
_space_group_name_Hall           '-C 2yn'
loop_
_symmetry_equiv_pos_site_id
_symmetry_equiv_pos_as_xyz
1 x,y,z
2 1/2+x,1/2+y,z
3 -x,y,1/2-z
4 1/2-x,1/2+y,1/2-z
5 -x,-y,-z
6 1/2-x,1/2-y,-z
7 x,-y,1/2+z
8 1/2+x,1/2-y,1/2+z
_cell_length_a                   16.527(3)
_cell_length_b                   8.1800(16)
_cell_length_c                   14.463(3)
_cell_angle_alpha                90
_cell_angle_beta                 113.19(3)
_cell_angle_gamma                90
_cell_volume                     1797.29
loop_
_atom_site_label
_atom_site_type_symbol
_atom_site_fract_x
_atom_site_fract_y
_atom_site_fract_z
Cu1 Cu 0.0000 0.0000 0.0000
O1 O -0.06590(16) -0.0922(3) 0.14946(17)
O2 O 0.01489(15) -0.2039(3) 0.07497(16)
N1 N 0.11711(18) 0.0724(4) 0.0994(2)
C1 C 0.1839(3) 0.1421(6) 0.0812(3)
H1 H 0.1818 0.1666 0.0175
C2 C -0.0087(3) -0.6538(5) 0.1984(3)
H2 H -0.0156 -0.7519 0.1637
C3 C -0.0155(3) -0.5079(4) 0.1493(3)
H3 H -0.0253 -0.5085 0.0814
C4 C -0.00809(19) -0.3593(4) 0.1982(2)
C5 C -0.0211(2) -0.2048(4) 0.1387(2)
C6 C 0.1469(2) 0.0592(5) 0.1980(3)
H4 H 0.1153 0.0148 0.2328
N2 N 0.22960(19) 0.1189(4) 0.2419(2)
C7 C 0.2538(3) 0.1709(7) 0.1679(3)
H5 H 0.3074 0.2169 0.1752
C8 C 0.2838(3) 0.1327(6) 0.3459(3)
H6 H 0.3422 0.1638 0.3639
C9 C 0.2577(4) 0.1057(9) 0.4147(4)
H7 H 0.1997 0.0745 0.3990
H8 H 0.2963 0.1168 0.4816
Cu1F Cu 0.0000 0.0000 0.5000
O1B O 0.06590(16) -0.0922(3) 0.35054(17)
O2B O -0.01489(15) -0.2039(3) 0.42503(16)
O2D O -0.01489(15) 0.2039(3) -0.07497(16)
N1D N -0.11711(18) -0.0724(4) -0.0994(2)
C1D C -0.1839(3) -0.1421(6) -0.0812(3)
H1D H -0.1818 -0.1666 -0.0175
C2B C 0.0087(3) -0.6538(5) 0.3016(3)
H2B H 0.0156 -0.7519 0.3363
C3B C 0.0155(3) -0.5079(4) 0.3507(3)
H3B H 0.0253 -0.5085 0.4186
C4B C 0.00809(19) -0.3593(4) 0.3018(2)
C5B C 0.0211(2) -0.2048(4) 0.3613(2)
C6D C -0.1469(2) -0.0592(5) -0.1980(3)
H4D H -0.1153 -0.0148 -0.2328
N2D N -0.22960(19) -0.1189(4) -0.2419(2)
C7D C -0.2538(3) -0.1709(7) -0.1679(3)
H5D H -0.3074 -0.2169 -0.1752
C8D C -0.2838(3) -0.1327(6) -0.3459(3)
H6D H -0.3422 -0.1638 -0.3639
C9D C -0.2577(4) -0.1057(9) -0.4147(4)
H7D H -0.1997 -0.0745 -0.3990
H8D H -0.2963 -0.1168 -0.4816
loop_
_geom_bond_atom_site_label_1
_geom_bond_atom_site_label_2
_geom_bond_site_symmetry_1
_geom_bond_site_symmetry_2
Cu1 O2 1_555 1_555
O1 C5 1_555 1_555
O2 C5 1_555 1_555
N1 Cu1 1_555 1_555
C1 N1 1_555 1_555
H1 C1 1_555 1_555
C2 H2 1_555 1_555
C3 C2 1_555 1_555
H3 C3 1_555 1_555
C4 C3 1_555 1_555
C5 C4 1_555 1_555
C6 N1 1_555 1_555
H4 C6 1_555 1_555
N2 C6 1_555 1_555
C7 C1 1_555 1_555
H5 C7 1_555 1_555
C8 N2 1_555 1_555
H6 C8 1_555 1_555
C9 C8 1_555 1_555
H7 C9 1_555 1_555
H8 C9 1_555 1_555
Cu1F O2B 1_555 1_555
O1B C5B 1_555 1_555
O2B C5B 1_555 1_555
O2D Cu1 1_555 1_555
N1D Cu1 1_555 1_555
C1D N1D 1_555 1_555
H1D C1D 1_555 1_555
C2B C2 1_555 1_555
H2B C2B 1_555 1_555
C3B C2B 1_555 1_555
H3B C3B 1_555 1_555
C4B C4 1_555 1_555
C5B C4B 1_555 1_555
C6D N1D 1_555 1_555
H4D C6D 1_555 1_555
N2D C6D 1_555 1_555
C7D C1D 1_555 1_555
H5D C7D 1_555 1_555
C8D N2D 1_555 1_555
H6D C8D 1_555 1_555
C9D C8D 1_555 1_555
H7D C9D 1_555 1_555
H8D C9D 1_555 1_555
N2 C7 1_555 1_555
C3B C4B 1_555 1_555
N2D C7D 1_555 1_555

#END
