
#######################################################################
#
#                 Cambridge Crystallographic Data Centre
#                                CCDC 
#
#######################################################################
#
# If this CIF has been generated from an entry in the Cambridge 
# Structural Database, then it will include bibliographic, chemical, 
# crystal, experimental, refinement or atomic coordinate data resulting 
# from the CCDC's data processing and validation procedures.
#
#######################################################################

data_XILXAT
_symmetry_cell_setting           orthorhombic
_symmetry_space_group_name_H-M   'P 21 21 21'
_symmetry_Int_Tables_number      19
_space_group_name_Hall           'P 2ac 2ab'
loop_
_symmetry_equiv_pos_site_id
_symmetry_equiv_pos_as_xyz
1 x,y,z
2 1/2-x,-y,1/2+z
3 -x,1/2+y,1/2-z
4 1/2+x,1/2-y,-z
_cell_length_a                   5.4357(4)
_cell_length_b                   9.0996(6)
_cell_length_c                   27.1031(18)
_cell_angle_alpha                90
_cell_angle_beta                 90
_cell_angle_gamma                90
_cell_volume                     1340.59
loop_
_atom_site_label
_atom_site_type_symbol
_atom_site_fract_x
_atom_site_fract_y
_atom_site_fract_z
N1 N -0.0473(6) -0.0060(3) 0.06350(9)
H1 H -0.2065 0.0008 0.0736
Ba1 Ba 0.02433(3) 0.207143(19) 0.241976(6)
Ba2 Ba 0.45107(4) 0.55014(2) 0.149084(7)
P1 P 0.52304(15) 0.42727(8) 0.26710(3)
O1 O 0.2704(4) 0.4700(2) 0.24773(9)
O2 O 0.5260(5) 0.2703(2) 0.28548(8)
O3 O 0.7235(4) 0.4517(3) 0.22865(8)
O4 O 0.6039(5) 0.5381(3) 0.31001(9)
H2 H 0.4811 0.5748 0.3225
O5 O 0.1662(5) 0.3058(3) 0.14483(9)
O6 O -0.2337(5) 0.1663(3) 0.14402(10)
O7 O -0.1887(5) 0.3936(3) 0.09216(9)
H3 H -0.0866 0.4499 0.0804
O8 O -0.3007(5) -0.2312(3) 0.09849(10)
O9 O -0.0142(5) -0.3055(3) 0.15228(8)
O10 O -0.4507(6) 0.0393(4) 0.01286(10)
O11 O -0.3090(5) -0.0491(3) -0.05826(9)
P2 P -0.05202(18) 0.25609(9) 0.11593(3)
C1 C -0.0552(7) -0.0714(4) 0.01263(12)
H4 H -0.0515 -0.1778 0.0146
H5 H 0.0861 -0.0390 -0.0063
C2 C -0.2924(7) -0.0208(4) -0.01226(13)
C3 C 0.0503(8) 0.1487(4) 0.06264(12)
H6 H -0.0042 0.1968 0.0326
H7 H 0.2286 0.1458 0.0622
C4 C 0.0787(7) -0.1025(4) 0.10023(12)
H8 H 0.1321 -0.0438 0.1281
H9 H 0.2232 -0.1462 0.0852
C5 C -0.0939(6) -0.2240(4) 0.11822(12)
Ba1_2 Ba 1.02433(3) 0.207143(19) 0.241976(6)
Ba1B Ba -0.02433(3) -0.292857(19) 0.258024(6)
Ba1B_2 Ba -0.02433(3) 0.707143(19) 0.258024(6)
Ba1B_3 Ba 0.97567(3) 0.707143(19) 0.258024(6)
Ba2_2 Ba -0.54893(4) -0.44986(2) 0.149084(7)
Ba2_3 Ba -0.54893(4) 0.55014(2) 0.149084(7)
Ba2_4 Ba 0.45107(4) -0.44986(2) 0.149084(7)
Ba2B Ba 0.54893(4) 0.05014(2) 0.350916(7)
Ba2C Ba -0.04893(4) -0.05014(2) -0.149084(7)
O1B O -0.2704(4) -0.0300(2) 0.25227(9)
O2_2 O -0.4740(5) 0.2703(2) 0.28548(8)
O2B O 0.4740(5) 0.7703(2) 0.21452(8)
O3_2 O -0.2765(4) 0.4517(3) 0.22865(8)
O3B O 0.2765(4) -0.0483(3) 0.27135(8)
O4B O 0.3961(5) 0.0381(3) 0.18999(9)
O7_2 O 0.8113(5) 0.3936(3) 0.09216(9)
O8_2 O 0.6993(5) 0.7688(3) 0.09849(10)
O9_2 O -0.0142(5) 0.6945(3) 0.15228(8)
O9_3 O 0.9858(5) 0.6945(3) 0.15228(8)
O9B O 0.0142(5) 0.1945(3) 0.34772(8)
O11C O 0.1910(5) 0.5491(3) 0.05826(9)
loop_
_geom_bond_atom_site_label_1
_geom_bond_atom_site_label_2
_geom_bond_site_symmetry_1
_geom_bond_site_symmetry_2
N1 H1 1_555 1_555
Ba1 O1 1_555 1_555
Ba2 O1 1_555 1_555
P1 O1 1_555 1_555
O1 Ba1B_2 1_555 1_555
O2 Ba1 1_555 1_555
O3 Ba2 1_555 1_555
O4 P1 1_555 1_555
H2 O4 1_555 1_555
O5 Ba1 1_555 1_555
O6 Ba1 1_555 1_555
O7 H3 1_555 1_555
O8 C5 1_555 1_555
O9 C5 1_555 1_555
O10 C2 1_555 1_555
O11 C2 1_555 1_555
P2 O5 1_555 1_555
C1 N1 1_555 1_555
H4 C1 1_555 1_555
H5 C1 1_555 1_555
C2 C1 1_555 1_555
C3 N1 1_555 1_555
H6 C3 1_555 1_555
H7 C3 1_555 1_555
C4 N1 1_555 1_555
H8 C4 1_555 1_555
H9 C4 1_555 1_555
C5 C4 1_555 1_555
Ba1_2 O2 1_555 1_555
Ba1B O9 1_555 1_555
Ba1B_2 O2B 1_555 1_555
Ba1B_3 O3 1_555 1_555
Ba2_2 O8 1_555 1_555
Ba2_3 O7 1_555 1_555
Ba2_4 O9 1_555 1_555
Ba2B O2 1_555 1_555
Ba2C O11 1_555 1_555
O1B Ba1 1_555 1_555
O2_2 Ba1 1_555 1_555
O2B Ba2 1_555 1_555
O3_2 Ba1 1_555 1_555
O3B Ba1 1_555 1_555
O4B Ba1 1_555 1_555
O7_2 Ba2 1_555 1_555
O8_2 Ba2 1_555 1_555
O9_2 Ba2 1_555 1_555
O9_3 Ba2 1_555 1_555
O9B Ba1 1_555 1_555
O11C Ba2 1_555 1_555
Ba2 O5 1_555 1_555
P1 O2 1_555 1_555
P1 O3 1_555 1_555
O3 Ba1_2 1_555 1_555
O4 Ba1B_3 1_555 1_555
O6 P2 1_555 1_555
O7 P2 1_555 1_555
O9 Ba2_2 1_555 1_555
P2 C3 1_555 1_555
Ba1B O1B 1_555 1_555
Ba1B O3B 1_555 1_555
Ba1B_2 O3_2 1_555 1_555
Ba1B_2 O9_2 1_555 1_555
Ba1B_3 O2B 1_555 1_555
Ba1B_3 O9_3 1_555 1_555
Ba2_3 O3_2 1_555 1_555
Ba2_3 O9_2 1_555 1_555
Ba2B O3B 1_555 1_555
Ba2B O9B 1_555 1_555

#END
