
#######################################################################
#
#                 Cambridge Crystallographic Data Centre
#                                CCDC 
#
#######################################################################
#
# If this CIF has been generated from an entry in the Cambridge 
# Structural Database, then it will include bibliographic, chemical, 
# crystal, experimental, refinement or atomic coordinate data resulting 
# from the CCDC's data processing and validation procedures.
#
#######################################################################

data_XILXIB
_symmetry_cell_setting           triclinic
_symmetry_space_group_name_H-M   'P -1'
_symmetry_Int_Tables_number      2
_space_group_name_Hall           '-P 1'
loop_
_symmetry_equiv_pos_site_id
_symmetry_equiv_pos_as_xyz
1 x,y,z
2 -x,-y,-z
_cell_length_a                   6.8609(5)
_cell_length_b                   7.2044(6)
_cell_length_c                   11.5167(9)
_cell_angle_alpha                96.1220(10)
_cell_angle_beta                 103.5390(10)
_cell_angle_gamma                95.2600(10)
_cell_volume                     546.259
loop_
_atom_site_label
_atom_site_type_symbol
_atom_site_fract_x
_atom_site_fract_y
_atom_site_fract_z
Sr1 Sr 0.80426(4) 0.66386(3) -0.07866(2)
P1 P 1.31177(10) 0.63132(10) -0.12866(7)
O1 O 1.4511(3) 0.8178(3) -0.09556(19)
O2 O 1.1798(3) 0.6177(3) -0.03858(19)
O3 O 1.4401(3) 0.4723(3) -0.1359(2)
O4 O 0.7449(3) 0.3745(3) -0.2517(2)
O5 O 0.6529(4) 0.2804(3) -0.4497(2)
O6 O 0.8647(3) 0.9981(3) -0.1272(2)
O7 O 1.1619(3) 1.1419(3) -0.1346(2)
N1 N 0.9534(3) 0.7009(3) -0.2856(2)
C1 C 1.1403(4) 0.6094(4) -0.2759(3)
H1 H 1.2135 0.6607 -0.3302
H2 H 1.1016 0.4765 -0.3046
C2 C 0.9889(5) 0.9044(4) -0.2978(3)
H3 H 0.8769 0.9375 -0.3574
H4 H 1.1108 0.9282 -0.3255
C3 C 0.7958(5) 0.5979(4) -0.3865(3)
H5 H 0.8470 0.5860 -0.4583
H6 H 0.6808 0.6686 -0.4021
C4 C 1.0102(4) 1.0261(4) -0.1775(3)
C5 C 0.7270(5) 0.4016(4) -0.3603(3)
Sr2 Sr 1.46001(4) 0.85179(3) 0.14334(2)
O8 O 1.5522(4) 0.9866(4) 0.3624(2)
H7 H 1.6033 1.0690 0.4175
H8 H 1.4876 0.8940 0.4059
Sr1_2 Sr 1.80426(4) 0.66386(3) -0.07866(2)
Sr1A Sr 1.19574(4) 0.33614(3) 0.07866(2)
Sr1A_2 Sr 1.19574(4) 1.33614(3) 0.07866(2)
O1_2 O 0.4511(3) 0.8178(3) -0.09556(19)
O1A O 1.5489(3) 1.1822(3) 0.09556(19)
O2A O 0.8202(3) 0.3823(3) 0.03858(19)
O3_2 O 0.4401(3) 0.4723(3) -0.1359(2)
O3A O 1.5599(3) 0.5277(3) 0.1359(2)
O4A O 1.2551(3) 0.6255(3) 0.2517(2)
O6A O 1.1353(3) 1.0019(3) 0.1272(2)
O7A O 0.8381(3) 0.8581(3) 0.1346(2)
O7A_2 O 1.8381(3) 0.8581(3) 0.1346(2)
Sr2A Sr 0.53999(4) 0.14821(3) -0.14334(2)
Sr2A_2 Sr 0.53999(4) 1.14821(3) -0.14334(2)
Sr2A_3 Sr 1.53999(4) 0.14821(3) -0.14334(2)
Sr2A_4 Sr 1.53999(4) 1.14821(3) -0.14334(2)
loop_
_geom_bond_atom_site_label_1
_geom_bond_atom_site_label_2
_geom_bond_site_symmetry_1
_geom_bond_site_symmetry_2
Sr1 O2 1_555 1_555
P1 O1 1_555 1_555
O1 Sr2 1_555 1_555
O2 P1 1_555 1_555
O3 P1 1_555 1_555
O4 Sr1 1_555 1_555
O5 C5 1_555 1_555
O6 Sr1 1_555 1_555
O7 C4 1_555 1_555
N1 Sr1 1_555 1_555
C1 P1 1_555 1_555
H1 C1 1_555 1_555
H2 C1 1_555 1_555
C2 N1 1_555 1_555
H3 C2 1_555 1_555
H4 C2 1_555 1_555
C3 N1 1_555 1_555
H5 C3 1_555 1_555
H6 C3 1_555 1_555
C4 O6 1_555 1_555
C5 O4 1_555 1_555
Sr2 O2 1_555 1_555
O8 Sr2 1_555 1_555
H7 O8 1_555 1_555
H8 O8 1_555 1_555
Sr1_2 O1 1_555 1_555
Sr1A O2 1_555 1_555
Sr1A_2 O7 1_555 1_555
O1_2 Sr1 1_555 1_555
O1A Sr2 1_555 1_555
O2A Sr1 1_555 1_555
O3_2 Sr1 1_555 1_555
O3A Sr2 1_555 1_555
O4A Sr2 1_555 1_555
O6A Sr2 1_555 1_555
O7A Sr1 1_555 1_555
O7A_2 Sr2 1_555 1_555
Sr2A O4 1_555 1_555
Sr2A_2 O6 1_555 1_555
Sr2A_3 O3 1_555 1_555
Sr2A_4 O1 1_555 1_555
O3 Sr1_2 1_555 1_555
O7 Sr2A_4 1_555 1_555
N1 C1 1_555 1_555
C2 C4 1_555 1_555
C3 C5 1_555 1_555
Sr1_2 O7A_2 1_555 1_555
Sr1A O2A 1_555 1_555
Sr1A O3A 1_555 1_555
Sr1A O4A 1_555 1_555
Sr1A_2 O1A 1_555 1_555
Sr1A_2 O6A 1_555 1_555
O1_2 Sr2A_2 1_555 1_555
O1A Sr2A_4 1_555 1_555
O2A Sr2A 1_555 1_555
O3_2 Sr2A 1_555 1_555

#END
