
#######################################################################
#
#                 Cambridge Crystallographic Data Centre
#                                CCDC 
#
#######################################################################
#
# If this CIF has been generated from an entry in the Cambridge 
# Structural Database, then it will include bibliographic, chemical, 
# crystal, experimental, refinement or atomic coordinate data resulting 
# from the CCDC's data processing and validation procedures.
#
#######################################################################

data_XILXOH
_symmetry_cell_setting           orthorhombic
_symmetry_space_group_name_H-M   'P 21 21 21'
_symmetry_Int_Tables_number      19
_space_group_name_Hall           'P 2ac 2ab'
loop_
_symmetry_equiv_pos_site_id
_symmetry_equiv_pos_as_xyz
1 x,y,z
2 1/2-x,-y,1/2+z
3 -x,1/2+y,1/2-z
4 1/2+x,1/2-y,-z
_cell_length_a                   7.3705(2)
_cell_length_b                   8.0800(3)
_cell_length_c                   16.6038(5)
_cell_angle_alpha                90
_cell_angle_beta                 90
_cell_angle_gamma                90
_cell_volume                     988.817
loop_
_atom_site_label
_atom_site_type_symbol
_atom_site_fract_x
_atom_site_fract_y
_atom_site_fract_z
Sr1 Sr 0.92736(3) 0.33007(3) 0.568286(12)
P1 P 0.91214(8) 0.19162(7) 0.37196(3)
O1 O 0.7747(2) 0.20830(17) 0.43776(10)
O2 O 1.1062(2) 0.1937(2) 0.39621(10)
O3 O 0.8805(2) 0.3261(2) 0.30495(9)
H1 H 0.7745 0.3228 0.2900
O4 O 0.4566(2) -0.2298(2) 0.22172(9)
O5 O 0.4552(2) -0.0884(2) 0.33757(10)
O6 O 1.0858(2) -0.4336(2) 0.48385(9)
O7 O 0.7868(2) -0.3986(2) 0.47577(10)
N1 N 0.8141(2) -0.1489(2) 0.36194(10)
H2 H 0.7420 -0.1207 0.4035
C1 C 0.8578(3) 0.0060(2) 0.31526(13)
H3 H 0.7549 0.0308 0.2809
H4 H 0.9597 -0.0182 0.2802
C2 C 0.7088(3) -0.2606(3) 0.30684(14)
H5 H 0.6938 -0.3680 0.3321
H6 H 0.7755 -0.2761 0.2571
C3 C 0.9818(3) -0.2283(3) 0.39500(14)
H7 H 1.0562 -0.1437 0.4200
H8 H 1.0507 -0.2751 0.3507
C4 C 0.5223(3) -0.1866(3) 0.28827(13)
C5 C 0.9448(4) -0.3636(3) 0.45631(13)
O8 O 0.9249(3) 0.0093(2) 0.58210(11)
H9 H 1.0131 -0.0312 0.5557
H10 H 0.8254 -0.0284 0.5639
Sr1_2 Sr 0.92736(3) -0.66993(3) 0.568286(12)
Sr1A Sr 0.57264(3) -0.33007(3) 0.068286(12)
Sr1C Sr 0.42736(3) 0.16993(3) 0.431714(12)
Sr1C_2 Sr 1.42736(3) 0.16993(3) 0.431714(12)
O1C O 1.2747(2) 0.29170(17) 0.56224(10)
O2C O 0.6062(2) 0.3063(2) 0.60379(10)
O4A O 1.0434(2) 0.2298(2) 0.72172(9)
O5C O 0.9552(2) 0.5884(2) 0.66243(10)
O6_2 O 1.0858(2) 0.5664(2) 0.48385(9)
O7_2 O 0.7868(2) 0.6014(2) 0.47577(10)
loop_
_geom_bond_atom_site_label_1
_geom_bond_atom_site_label_2
_geom_bond_site_symmetry_1
_geom_bond_site_symmetry_2
Sr1 O1 1_555 1_555
P1 O1 1_555 1_555
O1 Sr1C 1_555 1_555
O2 P1 1_555 1_555
O3 P1 1_555 1_555
H1 O3 1_555 1_555
O4 C4 1_555 1_555
O5 C4 1_555 1_555
O6 C5 1_555 1_555
O7 C5 1_555 1_555
N1 H2 1_555 1_555
C1 P1 1_555 1_555
H3 C1 1_555 1_555
H4 C1 1_555 1_555
C2 N1 1_555 1_555
H5 C2 1_555 1_555
H6 C2 1_555 1_555
C3 N1 1_555 1_555
H7 C3 1_555 1_555
H8 C3 1_555 1_555
C4 C2 1_555 1_555
C5 C3 1_555 1_555
O8 Sr1 1_555 1_555
H9 O8 1_555 1_555
H10 O8 1_555 1_555
Sr1_2 O6 1_555 1_555
Sr1A O4 1_555 1_555
Sr1C O5 1_555 1_555
Sr1C_2 O2 1_555 1_555
O1C Sr1 1_555 1_555
O2C Sr1 1_555 1_555
O4A Sr1 1_555 1_555
O5C Sr1 1_555 1_555
O6_2 Sr1 1_555 1_555
O7_2 Sr1 1_555 1_555
O7 Sr1_2 1_555 1_555
N1 C1 1_555 1_555
Sr1C_2 O1C 1_555 1_555

#END
