
#######################################################################
#
#                 Cambridge Crystallographic Data Centre
#                                CCDC 
#
#######################################################################
#
# If this CIF has been generated from an entry in the Cambridge 
# Structural Database, then it will include bibliographic, chemical, 
# crystal, experimental, refinement or atomic coordinate data resulting 
# from the CCDC's data processing and validation procedures.
#
#######################################################################

data_XIMCEC
_symmetry_cell_setting           orthorhombic
_symmetry_space_group_name_H-M   'P b c n'
_symmetry_Int_Tables_number      60
_space_group_name_Hall           '-P 2n 2ab'
loop_
_symmetry_equiv_pos_site_id
_symmetry_equiv_pos_as_xyz
1 x,y,z
2 1/2-x,1/2-y,1/2+z
3 1/2+x,1/2-y,-z
4 -x,y,1/2-z
5 -x,-y,-z
6 1/2+x,1/2+y,1/2-z
7 1/2-x,1/2+y,z
8 x,-y,1/2+z
_cell_length_a                   7.95850(10)
_cell_length_b                   16.8134(4)
_cell_length_c                   21.6220(5)
_cell_angle_alpha                90
_cell_angle_beta                 90
_cell_angle_gamma                90
_cell_volume                     2893.23
loop_
_atom_site_label
_atom_site_type_symbol
_atom_site_fract_x
_atom_site_fract_y
_atom_site_fract_z
Cu1 Cu 0.50000 0.29645(2) 0.25000
N1 N 0.4265(2) 0.38394(11) 0.15499(9)
O1 O 0.33275(19) 0.21916(9) 0.22756(7)
O2 O 0.5502(2) 0.33970(10) 0.14447(8)
O3 O 0.3617(2) 0.38098(9) 0.20990(7)
O4 O 0.3672(2) 0.42924(10) 0.11622(8)
P1 P 0.29254(7) 0.14981(3) 0.18585(3)
C1 C 0.4729(3) 0.09367(13) 0.16184(10)
C2 C 0.6001(3) 0.13583(14) 0.13181(10)
H1 H 0.5918 0.1919 0.1274
C3 C 0.7387(3) 0.09591(15) 0.10843(11)
H2 H 0.825 0.1244 0.0878
C4 C 0.7505(3) 0.01396(16) 0.11541(12)
H3 H 0.8446 -0.0136 0.0989
C5 C 0.6263(3) -0.02787(15) 0.14621(12)
H4 H 0.6368 -0.0837 0.1516
C6 C 0.4856(3) 0.01174(14) 0.16930(11)
H5 H 0.3993 -0.017 0.1899
C7 C 0.1942(3) 0.18336(13) 0.11563(10)
C8 C 0.1854(3) 0.13287(15) 0.06447(11)
H6 H 0.2364 0.0818 0.066
C9 C 0.1021(3) 0.15735(16) 0.01119(11)
H7 H 0.0959 0.123 -0.0236
C10 C 0.0282(3) 0.23186(16) 0.00889(11)
H8 H -0.0296 0.2483 -0.0274
C11 C 0.0383(3) 0.28245(16) 0.05930(12)
H9 H -0.0113 0.3338 0.0573
C12 C 0.1206(3) 0.25846(14) 0.11267(11)
H10 H 0.1268 0.2932 0.1472
C13 C 0.1429(3) 0.08595(13) 0.22329(10)
H11 H 0.0972 0.0473 0.1931
H12 H 0.1987 0.0559 0.2569
C14 C 0.00000 0.13635(18) 0.25000
H13 H -0.0455 0.171 0.217
H14 H 0.0455 0.171 0.283
Cu1_2 Cu -0.50000 0.29645(2) 0.25000
N1C N 0.5735(2) 0.38394(11) 0.34501(9)
O1C O -0.33275(19) 0.21916(9) 0.27244(7)
O1C_2 O 0.66725(19) 0.21916(9) 0.27244(7)
O2C O 0.4498(2) 0.33970(10) 0.35553(8)
O3C O 0.6383(2) 0.38098(9) 0.29010(7)
O4C O 0.6328(2) 0.42924(10) 0.38378(8)
P1C P -0.29254(7) 0.14981(3) 0.31415(3)
C1C C -0.4729(3) 0.09367(13) 0.33816(10)
C2C C -0.6001(3) 0.13583(14) 0.36819(10)
H1C H -0.5918 0.1919 0.3726
C3C C -0.7387(3) 0.09591(15) 0.39157(11)
H2C H -0.825 0.1244 0.4122
C4C C -0.7505(3) 0.01396(16) 0.38459(12)
H3C H -0.8446 -0.0136 0.4011
C5C C -0.6263(3) -0.02787(15) 0.35379(12)
H4C H -0.6368 -0.0837 0.3484
C6C C -0.4856(3) 0.01174(14) 0.33070(11)
H5C H -0.3993 -0.017 0.3101
C7C C -0.1942(3) 0.18336(13) 0.38437(10)
C8C C -0.1854(3) 0.13287(15) 0.43553(11)
H6C H -0.2364 0.0818 0.434
C9C C -0.1021(3) 0.15735(16) 0.48881(11)
H7C H -0.0959 0.123 0.5236
C10C C -0.0282(3) 0.23186(16) 0.49111(11)
H8C H 0.0296 0.2483 0.5274
C11C C -0.0383(3) 0.28245(16) 0.44070(12)
H9C H 0.0113 0.3338 0.4427
C12C C -0.1206(3) 0.25846(14) 0.38733(11)
H10C H -0.1268 0.2932 0.3528
C13C C -0.1429(3) 0.08595(13) 0.27671(10)
H11C H -0.0972 0.0473 0.3069
H12C H -0.1987 0.0559 0.2431
loop_
_geom_bond_atom_site_label_1
_geom_bond_atom_site_label_2
_geom_bond_site_symmetry_1
_geom_bond_site_symmetry_2
Cu1 O1 1_555 1_555
N1 O2 1_555 1_555
O1 P1 1_555 1_555
O2 Cu1 1_555 1_555
O3 Cu1 1_555 1_555
O4 N1 1_555 1_555
P1 C1 1_555 1_555
C1 C2 1_555 1_555
C2 H1 1_555 1_555
C3 C2 1_555 1_555
H2 C3 1_555 1_555
C4 C3 1_555 1_555
H3 C4 1_555 1_555
C5 C4 1_555 1_555
H4 C5 1_555 1_555
C6 C1 1_555 1_555
H5 C6 1_555 1_555
C7 P1 1_555 1_555
C8 C7 1_555 1_555
H6 C8 1_555 1_555
C9 C8 1_555 1_555
H7 C9 1_555 1_555
C10 C9 1_555 1_555
H8 C10 1_555 1_555
C11 C10 1_555 1_555
H9 C11 1_555 1_555
C12 C7 1_555 1_555
H10 C12 1_555 1_555
C13 P1 1_555 1_555
H11 C13 1_555 1_555
H12 C13 1_555 1_555
C14 C13 1_555 1_555
H13 C14 1_555 1_555
H14 C14 1_555 1_555
Cu1_2 O1C 1_555 1_555
N1C O2C 1_555 1_555
O1C P1C 1_555 1_555
O1C_2 Cu1 1_555 1_555
O2C Cu1 1_555 1_555
O3C Cu1 1_555 1_555
O4C N1C 1_555 1_555
P1C C1C 1_555 1_555
C1C C2C 1_555 1_555
C2C H1C 1_555 1_555
C3C C2C 1_555 1_555
H2C C3C 1_555 1_555
C4C C3C 1_555 1_555
H3C C4C 1_555 1_555
C5C C4C 1_555 1_555
H4C C5C 1_555 1_555
C6C C1C 1_555 1_555
H5C C6C 1_555 1_555
C7C P1C 1_555 1_555
C8C C7C 1_555 1_555
H6C C8C 1_555 1_555
C9C C8C 1_555 1_555
H7C C9C 1_555 1_555
C10C C9C 1_555 1_555
H8C C10C 1_555 1_555
C11C C10C 1_555 1_555
H9C C11C 1_555 1_555
C12C C7C 1_555 1_555
H10C C12C 1_555 1_555
C13C C14 1_555 1_555
H11C C13C 1_555 1_555
H12C C13C 1_555 1_555
N1 O3 1_555 1_555
C5 C6 1_555 1_555
C11 C12 1_555 1_555
N1C O3C 1_555 1_555
P1C C13C 1_555 1_555
C5C C6C 1_555 1_555
C11C C12C 1_555 1_555

#END
