
#######################################################################
#
#                 Cambridge Crystallographic Data Centre
#                                CCDC 
#
#######################################################################
#
# If this CIF has been generated from an entry in the Cambridge 
# Structural Database, then it will include bibliographic, chemical, 
# crystal, experimental, refinement or atomic coordinate data resulting 
# from the CCDC's data processing and validation procedures.
#
#######################################################################

data_XIMGAC
_symmetry_cell_setting           triclinic
_symmetry_space_group_name_H-M   'P -1'
_symmetry_Int_Tables_number      2
_space_group_name_Hall           '-P 1'
loop_
_symmetry_equiv_pos_site_id
_symmetry_equiv_pos_as_xyz
1 x,y,z
2 -x,-y,-z
_cell_length_a                   7.9252(9)
_cell_length_b                   9.2783(10)
_cell_length_c                   9.4118(10)
_cell_angle_alpha                62.192(2)
_cell_angle_beta                 73.725(2)
_cell_angle_gamma                69.787(2)
_cell_volume                     568.509
loop_
_atom_site_label
_atom_site_type_symbol
_atom_site_fract_x
_atom_site_fract_y
_atom_site_fract_z
C1 C 0.2778(4) 0.1098(4) 0.7023(3)
H1 H 0.1842 0.0676 0.7796
C2 C 0.2821(4) 0.1729(4) 0.5412(3)
H2 H 0.1947 0.1815 0.4872
C3 C 0.5294(4) 0.1859(3) 0.5945(3)
C4 C 0.7036(4) 0.2250(4) 0.5687(3)
H3 H 0.6864 0.3449 0.5210
H4 H 0.7910 0.1783 0.4973
H5 H 0.7468 0.1771 0.6709
C5 C 0.5099(4) 0.2867(3) 0.2980(3)
H6 H 0.6417 0.2569 0.2834
H7 H 0.4732 0.2327 0.2489
C6 C 0.2721(4) 0.5508(4) 0.1735(3)
H8 H 0.1766 0.5024 0.1985
C7 C 0.2695(4) 0.7150(4) 0.0902(3)
H9 H 0.1693 0.8006 0.0481
C8 C 0.5413(4) 0.5863(3) 0.1520(3)
C9 C 0.7341(4) 0.5483(4) 0.1659(4)
H10 H 0.7919 0.6245 0.0699
H11 H 0.7933 0.4347 0.1779
H12 H 0.7427 0.5611 0.2589
Cd1 Cd 0.5000 0.0000 1.0000
N1 N 0.8951(3) -0.1401(3) 0.8239(3)
N2 N 0.4318(3) 0.1167(3) 0.7363(3)
N3 N 0.4417(3) 0.2223(3) 0.4716(2)
N4 N 0.4444(3) 0.4688(3) 0.2142(3)
N5 N 0.4377(3) 0.7378(3) 0.0765(3)
O1 O 0.8240(3) -0.0798(3) 0.9281(2)
O2 O 0.8068(4) -0.2008(3) 0.7872(3)
O3 O 1.0513(3) -0.1352(4) 0.7587(3)
C1A C 0.7222(4) -0.1098(4) 1.2977(3)
H1A H 0.8158 -0.0676 1.2204
C2A C 0.7179(4) -0.1729(4) 1.4588(3)
H2A H 0.8053 -0.1815 1.5128
C3A C 0.4706(4) -0.1859(3) 1.4055(3)
C4A C 0.2964(4) -0.2250(4) 1.4313(3)
H3A H 0.3136 -0.3449 1.4790
H4A H 0.2090 -0.1783 1.5027
H5A H 0.2532 -0.1771 1.3291
C5A C 0.4901(4) -0.2867(3) 1.7020(3)
H6A H 0.3583 -0.2569 1.7166
H7A H 0.5268 -0.2327 1.7511
C6A C 0.7279(4) -0.5508(4) 1.8265(3)
H8A H 0.8234 -0.5024 1.8015
C7A C 0.7305(4) -0.7150(4) 1.9098(3)
H9A H 0.8307 -0.8006 1.9519
C8A C 0.4587(4) -0.5863(3) 1.8480(3)
C9A C 0.2659(4) -0.5483(4) 1.8341(4)
H10A H 0.2081 -0.6245 1.9301
H11A H 0.2067 -0.4347 1.8221
H12A H 0.2573 -0.5611 1.7411
Cd1_2 Cd 0.5000 1.0000 0.0000
Cd1_3 Cd 0.5000 -1.0000 2.0000
N1A N 0.1049(3) 0.1401(3) 1.1761(3)
N2A N 0.5682(3) -0.1167(3) 1.2637(3)
N3A N 0.5583(3) -0.2223(3) 1.5284(2)
N4A N 0.5556(3) -0.4688(3) 1.7858(3)
N5A N 0.5623(3) -0.7378(3) 1.9235(3)
N5_2 N 0.4377(3) -0.2622(3) 1.0765(3)
N5A_2 N 0.5623(3) 0.2622(3) 0.9235(3)
O1A O 0.1760(3) 0.0798(3) 1.0719(2)
O2A O 0.1932(4) 0.2008(3) 1.2128(3)
O3A O -0.0513(3) 0.1352(4) 1.2413(3)
loop_
_geom_bond_atom_site_label_1
_geom_bond_atom_site_label_2
_geom_bond_site_symmetry_1
_geom_bond_site_symmetry_2
C1 H1 1_555 1_555
C2 C1 1_555 1_555
H2 C2 1_555 1_555
C3 C4 1_555 1_555
C4 H3 1_555 1_555
H4 C4 1_555 1_555
H5 C4 1_555 1_555
C5 H6 1_555 1_555
H7 C5 1_555 1_555
C6 H8 1_555 1_555
C7 C6 1_555 1_555
H9 C7 1_555 1_555
C8 C9 1_555 1_555
C9 H10 1_555 1_555
H11 C9 1_555 1_555
H12 C9 1_555 1_555
Cd1 N2 1_555 1_555
N1 O1 1_555 1_555
N2 C1 1_555 1_555
N3 C2 1_555 1_555
N4 C5 1_555 1_555
N5 C7 1_555 1_555
O1 Cd1 1_555 1_555
O2 N1 1_555 1_555
O3 N1 1_555 1_555
C1A H1A 1_555 1_555
C2A C1A 1_555 1_555
H2A C2A 1_555 1_555
C3A C4A 1_555 1_555
C4A H3A 1_555 1_555
H4A C4A 1_555 1_555
H5A C4A 1_555 1_555
C5A H6A 1_555 1_555
H7A C5A 1_555 1_555
C6A H8A 1_555 1_555
C7A C6A 1_555 1_555
H9A C7A 1_555 1_555
C8A C9A 1_555 1_555
C9A H10A 1_555 1_555
H11A C9A 1_555 1_555
H12A C9A 1_555 1_555
Cd1_2 N5 1_555 1_555
Cd1_3 N5A 1_555 1_555
N1A O1A 1_555 1_555
N2A Cd1 1_555 1_555
N3A C2A 1_555 1_555
N4A C5A 1_555 1_555
N5A C7A 1_555 1_555
N5_2 Cd1 1_555 1_555
N5A_2 Cd1 1_555 1_555
O1A Cd1 1_555 1_555
O2A N1A 1_555 1_555
O3A N1A 1_555 1_555
C3 N2 1_555 1_555
C3 N3 1_555 1_555
C5 N3 1_555 1_555
C6 N4 1_555 1_555
C8 N4 1_555 1_555
C8 N5 1_555 1_555
C1A N2A 1_555 1_555
C3A N2A 1_555 1_555
C3A N3A 1_555 1_555
C5A N3A 1_555 1_555
C6A N4A 1_555 1_555
C8A N4A 1_555 1_555
C8A N5A 1_555 1_555

#END
