
#######################################################################
#
#                 Cambridge Crystallographic Data Centre
#                                CCDC 
#
#######################################################################
#
# If this CIF has been generated from an entry in the Cambridge 
# Structural Database, then it will include bibliographic, chemical, 
# crystal, experimental, refinement or atomic coordinate data resulting 
# from the CCDC's data processing and validation procedures.
#
#######################################################################

data_XIMJAG
_symmetry_cell_setting           monoclinic
_symmetry_space_group_name_H-M   'P 21/n'
_symmetry_Int_Tables_number      14
_space_group_name_Hall           '-P 2yn'
loop_
_symmetry_equiv_pos_site_id
_symmetry_equiv_pos_as_xyz
1 x,y,z
2 1/2-x,1/2+y,1/2-z
3 -x,-y,-z
4 1/2+x,1/2-y,1/2+z
_cell_length_a                   8.3786(3)
_cell_length_b                   21.5199(13)
_cell_length_c                   18.6583(12)
_cell_angle_alpha                90
_cell_angle_beta                 101.359(4)
_cell_angle_gamma                90
_cell_volume                     3298.32
loop_
_atom_site_label
_atom_site_type_symbol
_atom_site_fract_x
_atom_site_fract_y
_atom_site_fract_z
U1 U 0.67964(2) 0.206391(9) 0.839486(10)
Ag1 Ag 0.44077(6) 0.30907(2) 1.07756(3)
Ag2 Ag 0.76919(5) 0.448479(19) 0.72624(2)
O1 O 0.4858(5) 0.21185(17) 0.7510(2)
O2 O 0.9154(4) 0.22655(17) 0.89171(19)
N1 N 0.5596(6) 0.2730(2) 0.9284(3)
N2 N 0.7042(5) 0.3158(2) 0.7919(3)
N3 N 0.8282(6) 0.1971(2) 0.7332(3)
N4 N 0.7281(5) 0.0912(2) 0.8212(2)
N5 N 0.4258(5) 0.1424(2) 0.8774(2)
N6 N 0.7244(5) 0.14588(19) 0.9702(2)
N7 N 0.3217(7) 0.4216(3) 1.0599(3)
N8 N 1.0797(6) 0.4467(3) 0.7679(3)
C1 C 0.5166(7) 0.2887(3) 0.9811(3)
C2 C 0.7230(7) 0.3619(3) 0.7641(3)
C3 C 0.8784(8) 0.1957(3) 0.6801(4)
C4 C 0.7392(6) 0.0391(2) 0.8091(3)
C5 C 0.2828(6) 0.1400(3) 0.8327(3)
H1 H 0.2709 0.1603 0.7880
C6 C 0.1481(7) 0.1088(3) 0.8489(3)
H2 H 0.0497 0.1083 0.8155
C7 C 0.1632(6) 0.0789(3) 0.9142(3)
H3 H 0.0751 0.0577 0.9259
C8 C 0.3111(7) 0.0804(3) 0.9632(3)
C9 C 0.3389(8) 0.0494(3) 1.0327(3)
H4 H 0.2536 0.0279 1.0466
C10 C 0.4868(8) 0.0505(3) 1.0789(3)
H5 H 0.5007 0.0300 1.1235
C11 C 0.6208(7) 0.0830(3) 1.0592(3)
C12 C 0.7739(7) 0.0841(3) 1.1050(3)
H6 H 0.7915 0.0640 1.1500
C13 C 0.8977(7) 0.1153(3) 1.0825(3)
H7 H 1.0014 0.1163 1.1117
C14 C 0.8659(7) 0.1458(3) 1.0151(3)
H8 H 0.9509 0.1674 1.0012
C15 C 0.5998(7) 0.1142(2) 0.9921(3)
C16 C 0.4423(6) 0.1129(2) 0.9425(3)
C17 C 0.4060(10) 0.2308(4) 0.6795(4)
H9 H 0.4697 0.2629 0.6617
H10 H 0.3001 0.2481 0.6816
C18 C 0.3859(11) 0.1773(5) 0.6286(5)
H11 H 0.4910 0.1614 0.6249
H12 H 0.3291 0.1905 0.5813
H13 H 0.3245 0.1453 0.6467
C19 C 1.0702(7) 0.2554(3) 0.9056(4)
H14 H 1.1090 0.2594 0.8601
H15 H 1.1467 0.2295 0.9384
C20 C 1.0628(8) 0.3178(3) 0.9388(4)
H16 H 0.9881 0.3436 0.9061
H17 H 1.1691 0.3364 0.9475
H18 H 1.0264 0.3137 0.9843
C21 C 0.2342(9) 0.4473(4) 1.1054(4)
H19 H 0.2224 0.4247 1.1465
C22 C 0.1616(10) 0.5041(4) 1.0955(4)
H20 H 0.1022 0.5196 1.1287
C23 C 0.1786(11) 0.5379(5) 1.0351(5)
H21 H 0.1323 0.5772 1.0270
C24 C 0.2656(11) 0.5126(4) 0.9865(5)
H22 H 0.2774 0.5341 0.9447
C25 C 0.3330(11) 0.4559(4) 1.0013(4)
H23 H 0.3916 0.4395 0.9683
C26 C 1.1708(8) 0.4981(4) 0.7790(3)
H24 H 1.1194 0.5364 0.7694
C27 C 1.3362(9) 0.4974(5) 0.8038(4)
H25 H 1.3956 0.5341 0.8111
C28 C 1.4110(10) 0.4409(6) 0.8173(4)
H26 H 1.5231 0.4387 0.8338
C29 C 1.3215(10) 0.3880(5) 0.8066(4)
H27 H 1.3709 0.3494 0.8161
C30 C 1.1560(8) 0.3926(4) 0.7814(4)
H28 H 1.0951 0.3562 0.7736
Ag1C Ag 0.94077(6) 0.19093(2) 0.57756(3)
Ag2A Ag 0.73081(5) -0.051521(19) 0.77376(2)
C3C C 0.3784(8) 0.3043(3) 1.1801(4)
C4A C 0.7608(6) 0.5391(2) 0.6909(3)
loop_
_geom_bond_atom_site_label_1
_geom_bond_atom_site_label_2
_geom_bond_site_symmetry_1
_geom_bond_site_symmetry_2
U1 O1 1_555 1_555
Ag1 N7 1_555 1_555
Ag2 N8 1_555 1_555
O1 C17 1_555 1_555
O2 U1 1_555 1_555
N1 U1 1_555 1_555
N2 U1 1_555 1_555
N3 U1 1_555 1_555
N4 U1 1_555 1_555
N5 U1 1_555 1_555
N6 U1 1_555 1_555
N7 C21 1_555 1_555
N8 C26 1_555 1_555
C1 Ag1 1_555 1_555
C2 Ag2 1_555 1_555
C3 N3 1_555 1_555
C4 N4 1_555 1_555
C5 N5 1_555 1_555
H1 C5 1_555 1_555
C6 C5 1_555 1_555
H2 C6 1_555 1_555
C7 C6 1_555 1_555
H3 C7 1_555 1_555
C8 C7 1_555 1_555
C9 C8 1_555 1_555
H4 C9 1_555 1_555
C10 C9 1_555 1_555
H5 C10 1_555 1_555
C11 C10 1_555 1_555
C12 C11 1_555 1_555
H6 C12 1_555 1_555
C13 C12 1_555 1_555
H7 C13 1_555 1_555
C14 N6 1_555 1_555
H8 C14 1_555 1_555
C15 N6 1_555 1_555
C16 N5 1_555 1_555
C17 H9 1_555 1_555
H10 C17 1_555 1_555
C18 C17 1_555 1_555
H11 C18 1_555 1_555
H12 C18 1_555 1_555
H13 C18 1_555 1_555
C19 O2 1_555 1_555
H14 C19 1_555 1_555
H15 C19 1_555 1_555
C20 C19 1_555 1_555
H16 C20 1_555 1_555
H17 C20 1_555 1_555
H18 C20 1_555 1_555
C21 H19 1_555 1_555
C22 C21 1_555 1_555
H20 C22 1_555 1_555
C23 C22 1_555 1_555
H21 C23 1_555 1_555
C24 C23 1_555 1_555
H22 C24 1_555 1_555
C25 N7 1_555 1_555
H23 C25 1_555 1_555
C26 H24 1_555 1_555
C27 C26 1_555 1_555
H25 C27 1_555 1_555
C28 C27 1_555 1_555
H26 C28 1_555 1_555
C29 C28 1_555 1_555
H27 C29 1_555 1_555
C30 N8 1_555 1_555
H28 C30 1_555 1_555
Ag1C C3 1_555 1_555
Ag2A C4 1_555 1_555
C3C Ag1 1_555 1_555
C4A Ag2 1_555 1_555
N1 C1 1_555 1_555
N2 C2 1_555 1_555
C8 C16 1_555 1_555
C11 C15 1_555 1_555
C13 C14 1_555 1_555
C15 C16 1_555 1_555
C24 C25 1_555 1_555
C29 C30 1_555 1_555

#END
