
#######################################################################
#
#                 Cambridge Crystallographic Data Centre
#                                CCDC 
#
#######################################################################
#
# If this CIF has been generated from an entry in the Cambridge 
# Structural Database, then it will include bibliographic, chemical, 
# crystal, experimental, refinement or atomic coordinate data resulting 
# from the CCDC's data processing and validation procedures.
#
#######################################################################

data_XIMLEL
_symmetry_cell_setting           triclinic
_symmetry_space_group_name_H-M   'P -1'
_symmetry_Int_Tables_number      2
_space_group_name_Hall           '-P 1'
loop_
_symmetry_equiv_pos_site_id
_symmetry_equiv_pos_as_xyz
1 x,y,z
2 -x,-y,-z
_cell_length_a                   13.5327(13)
_cell_length_b                   15.8115(14)
_cell_length_c                   18.3558(17)
_cell_angle_alpha                95.741(3)
_cell_angle_beta                 90.455(3)
_cell_angle_gamma                91.385(3)
_cell_volume                     3906.58
loop_
_atom_site_label
_atom_site_type_symbol
_atom_site_fract_x
_atom_site_fract_y
_atom_site_fract_z
Ag1 Ag 0.67357(6) 0.57496(5) 0.85234(4)
Ag2 Ag 0.81702(6) 0.87548(5) 0.64887(4)
P1 P 0.7940(2) 0.54283(16) 0.75035(15)
P2 P 0.56451(19) 0.69402(16) 0.83173(15)
P3 P 0.6014(2) 0.45161(16) 0.90931(15)
P4 P 0.9446(2) 0.77622(16) 0.68142(14)
P5 P 0.6852(2) 0.92240(16) 0.73400(14)
P6 P 0.8759(2) 0.99840(18) 0.58223(17)
C1 C 0.8380(7) 0.6247(5) 0.6930(5)
H1 H 0.8738 0.5977 0.6511
H2 H 0.7811 0.6533 0.6741
C2 C 0.9052(7) 0.6897(6) 0.7357(5)
H3 H 0.9638 0.6614 0.7521
H4 H 0.8706 0.7140 0.7793
C3 C 0.6334(7) 0.7651(5) 0.7763(5)
H5 H 0.6963 0.7802 0.8016
H6 H 0.6491 0.7321 0.7299
C4 C 0.5878(7) 0.8474(5) 0.7577(6)
H7 H 0.5508 0.8726 0.7998
H8 H 0.5416 0.8354 0.7164
C5 C 0.9794(9) 0.9651(7) 0.5229(7)
H9 H 1.0330 0.9468 0.5534
H10 H 0.9576 0.9159 0.4894
C6 C 0.9090(7) 0.4926(6) 0.7723(6)
C7 C 0.9286(9) 0.4835(6) 0.8459(7)
H11 H 0.8815 0.5004 0.8815
C8 C 1.0176(10) 0.4496(8) 0.8672(8)
H12 H 1.0308 0.4432 0.9166
C9 C 1.0855(10) 0.4258(8) 0.8141(9)
H13 H 1.1460 0.4037 0.8277
C10 C 1.0663(9) 0.4339(7) 0.7415(9)
H14 H 1.1130 0.4163 0.7058
C11 C 0.9780(8) 0.4682(6) 0.7208(7)
H15 H 0.9657 0.4747 0.6712
C12 C 0.7338(7) 0.4649(6) 0.6841(6)
C13 C 0.7441(8) 0.3790(6) 0.6891(7)
H16 H 0.7863 0.3596 0.7245
C14 C 0.6898(9) 0.3210(7) 0.6399(8)
H17 H 0.6969 0.2623 0.6419
C15 C 0.6262(9) 0.3493(9) 0.5887(7)
H18 H 0.5898 0.3099 0.5567
C16 C 0.6164(9) 0.4346(9) 0.5847(7)
H19 H 0.5733 0.4542 0.5500
C17 C 0.6707(8) 0.4919(7) 0.6324(6)
H20 H 0.6642 0.5505 0.6293
C18 C 0.5171(7) 0.7659(6) 0.9057(6)
C19 C 0.4307(8) 0.8090(7) 0.8995(7)
H21 H 0.3893 0.7973 0.8582
C20 C 0.4057(11) 0.8706(8) 0.9558(7)
H22 H 0.3495 0.9033 0.9504
C21 C 0.4623(10) 0.8846(8) 1.0197(7)
H23 H 0.4425 0.9238 1.0584
C22 C 0.5497(10) 0.8391(8) 1.0254(6)
H24 H 0.5905 0.8484 1.0673
C23 C 0.5740(8) 0.7803(6) 0.9681(6)
H25 H 0.6318 0.7491 0.9719
C24 C 0.4553(7) 0.6552(6) 0.7788(6)
C25 C 0.3756(8) 0.6249(7) 0.8175(7)
H26 H 0.3754 0.6310 0.8690
C26 C 0.2956(9) 0.5850(9) 0.7772(8)
H27 H 0.2402 0.5660 0.8021
C27 C 0.2970(10) 0.5733(8) 0.7017(9)
H28 H 0.2447 0.5440 0.6754
C28 C 0.3759(11) 0.6051(9) 0.6653(8)
H29 H 0.3770 0.5981 0.6139
C29 C 0.4535(8) 0.6472(7) 0.7037(6)
H30 H 0.5057 0.6706 0.6782
C30 C 0.5046(7) 0.4010(6) 0.8510(6)
C31 C 0.4281(9) 0.3514(7) 0.8774(6)
H31 H 0.4289 0.3414 0.9270
C32 C 0.3525(9) 0.3171(8) 0.8334(7)
H32 H 0.2999 0.2875 0.8534
C33 C 0.3535(8) 0.3260(7) 0.7584(7)
H33 H 0.3047 0.2997 0.7266
C34 C 0.4283(9) 0.3746(8) 0.7333(6)
H34 H 0.4281 0.3840 0.6835
C35 C 0.5038(7) 0.4104(7) 0.7777(5)
H35 H 0.5552 0.4414 0.7575
C36 C 0.6869(7) 0.3712(6) 0.9280(6)
C37 C 0.6806(8) 0.2876(7) 0.8973(8)
H36 H 0.6277 0.2701 0.8654
C38 C 0.7508(10) 0.2293(8) 0.9125(10)
H37 H 0.7468 0.1734 0.8896
C39 C 0.8266(10) 0.2534(10) 0.9614(9)
H38 H 0.8729 0.2136 0.9737
C40 C 0.8335(9) 0.3351(10) 0.9917(8)
H39 H 0.8867 0.3526 1.0233
C41 C 0.7630(9) 0.3930(8) 0.9764(7)
H40 H 0.7674 0.4487 0.9998
C42 C 1.0097(7) 0.7204(7) 0.6046(5)
C43 C 1.0855(9) 0.6671(9) 0.6132(7)
H41 H 1.1088 0.6601 0.6606
C44 C 1.1292(10) 0.6230(9) 0.5531(8)
H42 H 1.1820 0.5870 0.5601
C45 C 1.0964(9) 0.6314(9) 0.4848(7)
H43 H 1.1261 0.6016 0.4441
C46 C 1.0195(9) 0.6837(7) 0.4752(6)
H44 H 0.9954 0.6893 0.4278
C47 C 0.9780(7) 0.7273(6) 0.5335(5)
H45 H 0.9258 0.7636 0.5257
C48 C 1.0433(8) 0.8291(6) 0.7371(6)
C49 C 1.1124(11) 0.8810(10) 0.7086(8)
H46 H 1.1098 0.8858 0.6580
C50 C 1.1840(12) 0.9257(12) 0.7485(10)
H47 H 1.2296 0.9598 0.7254
C51 C 1.1899(12) 0.9212(10) 0.8217(8)
H48 H 1.2381 0.9529 0.8507
C52 C 1.1245(13) 0.8700(11) 0.8515(8)
H49 H 1.1289 0.8642 0.9019
C53 C 1.0507(12) 0.8254(9) 0.8103(7)
H50 H 1.0049 0.7918 0.8335
C54 C 0.7453(7) 0.9558(6) 0.8200(6)
C55 C 0.7036(9) 0.9500(6) 0.8886(6)
H51 H 0.6378 0.9300 0.8909
C56 C 0.7547(11) 0.9721(8) 0.9528(7)
H52 H 0.7257 0.9652 0.9983
C57 C 0.8517(11) 1.0053(7) 0.9489(7)
H53 H 0.8881 1.0205 0.9922
C58 C 0.8936(9) 1.0157(7) 0.8825(7)
H54 H 0.9577 1.0393 0.8796
C59 C 0.8387(8) 0.9903(6) 0.8196(6)
H55 H 0.8675 0.9972 0.7741
C60 C 0.6161(7) 1.0132(6) 0.7110(5)
C61 C 0.5968(7) 1.0205(7) 0.6377(6)
H56 H 0.6188 0.9781 0.6023
C62 C 0.5467(8) 1.0878(8) 0.6151(7)
H57 H 0.5366 1.0920 0.5648
C63 C 0.5114(9) 1.1488(7) 0.6656(7)
H58 H 0.4748 1.1938 0.6505
C64 C 0.5300(10) 1.1435(7) 0.7390(8)
H59 H 0.5061 1.1848 0.7745
C65 C 0.5846(9) 1.0763(7) 0.7596(6)
H60 H 0.6003 1.0747 0.8094
C66 C 0.7968(8) 1.0480(6) 0.5192(5)
C67 C 0.7383(9) 0.9936(9) 0.4734(6)
H61 H 0.7409 0.9345 0.4754
C68 C 0.6737(11) 1.0276(10) 0.4226(8)
H62 H 0.6318 0.9911 0.3920
C69 C 0.6729(11) 1.1129(13) 0.4187(9)
H63 H 0.6321 1.1348 0.3837
C70 C 0.7315(11) 1.1686(10) 0.4656(8)
H64 H 0.7283 1.2277 0.4638
C71 C 0.7941(8) 1.1357(7) 0.5144(7)
H65 H 0.8356 1.1726 0.5450
C72 C 0.9217(8) 1.0857(5) 0.6453(4)
C73 C 1.0217(7) 1.0997(7) 0.6611(6)
H66 H 1.0689 1.0668 0.6349
C74 C 1.0518(7) 1.1624(8) 0.7159(7)
H67 H 1.1194 1.1719 0.7266
C75 C 0.9819(11) 1.2111(6) 0.7547(5)
H68 H 1.0023 1.2535 0.7917
C76 C 0.8819(10) 1.1971(6) 0.7389(5)
H69 H 0.8346 1.2300 0.7651
C77 C 0.8518(6) 1.1344(6) 0.6841(5)
H70 H 0.7841 1.1249 0.6734
S1 S 0.6565(2) 0.7424(2) 0.52714(17)
O1 O 0.5783(7) 0.7696(6) 0.4840(6)
O2 O 0.6300(7) 0.7092(5) 0.5936(4)
O3 O 0.7399(6) 0.7991(5) 0.5322(4)
C78 C 0.7025(12) 0.6507(10) 0.4710(6)
F1 F 0.7398(8) 0.6694(6) 0.4102(4)
F2 F 0.6335(7) 0.5921(5) 0.4573(5)
F3 F 0.7747(6) 0.6138(5) 0.5059(4)
C80 C 0.5436(7) 0.4697(6) 1.0003(5)
H71 H 0.5200 0.4151 1.0155
H72 H 0.5933 0.4937 1.0362
Ag1A Ag 0.32643(6) 0.42504(5) 1.14766(4)
Ag2A Ag 0.18298(6) 0.12452(5) 1.35113(4)
Ag2A_2 Ag 1.18298(6) 1.12452(5) 0.35113(4)
P1A P 0.2060(2) 0.45717(16) 1.24965(15)
P2A P 0.43549(19) 0.30598(16) 1.16827(15)
P3A P 0.3986(2) 0.54839(16) 1.09069(15)
P4A P 0.0554(2) 0.22378(16) 1.31858(14)
P5A P 0.3148(2) 0.07760(16) 1.26600(14)
P6A P 1.1241(2) 1.00160(18) 0.41777(17)
P6A_2 P 0.1241(2) 0.00160(18) 1.41777(17)
C1A C 0.1620(7) 0.3753(5) 1.3070(5)
H1A H 0.1262 0.4023 1.3489
H2A H 0.2189 0.3467 1.3259
C2A C 0.0948(7) 0.3103(6) 1.2643(5)
H3A H 0.0362 0.3386 1.2479
H4A H 0.1294 0.2860 1.2207
C3A C 0.3666(7) 0.2349(5) 1.2237(5)
H5A H 0.3037 0.2198 1.1984
H6A H 0.3509 0.2679 1.2701
C4A C 0.4122(7) 0.1526(5) 1.2423(6)
H7A H 0.4492 0.1274 1.2002
H8A H 0.4584 0.1646 1.2836
C5A C 1.0206(9) 1.0349(7) 0.4771(7)
H9A H 0.9670 1.0532 0.4466
H10A H 1.0424 1.0841 0.5106
C6A C 0.0910(7) 0.5074(6) 1.2277(6)
C7A C 0.0714(9) 0.5165(6) 1.1541(7)
H11A H 0.1185 0.4996 1.1185
C8A C -0.0176(10) 0.5504(8) 1.1328(8)
H12A H -0.0308 0.5568 1.0834
C9A C -0.0855(10) 0.5742(8) 1.1859(9)
H13A H -0.1460 0.5963 1.1723
C10A C -0.0663(9) 0.5661(7) 1.2585(9)
H14A H -0.1130 0.5837 1.2942
C11A C 0.0220(8) 0.5318(6) 1.2792(7)
H15A H 0.0343 0.5253 1.3288
C12A C 0.2662(7) 0.5351(6) 1.3159(6)
C13A C 0.2559(8) 0.6210(6) 1.3109(7)
H16A H 0.2137 0.6404 1.2755
C14A C 0.3102(9) 0.6790(7) 1.3601(8)
H17A H 0.3031 0.7377 1.3581
C15A C 0.3738(9) 0.6507(9) 1.4113(7)
H18A H 0.4102 0.6901 1.4433
C16A C 0.3836(9) 0.5654(9) 1.4153(7)
H19A H 0.4267 0.5458 1.4500
C17A C 0.3293(8) 0.5081(7) 1.3676(6)
H20A H 0.3358 0.4495 1.3707
C18A C 0.4829(7) 0.2341(6) 1.0943(6)
C19A C 0.5693(8) 0.1910(7) 1.1005(7)
H21A H 0.6107 0.2027 1.1418
C20A C 0.5943(11) 0.1294(8) 1.0442(7)
H22A H 0.6505 0.0967 1.0496
C21A C 0.5377(10) 0.1154(8) 0.9803(7)
H23A H 0.5575 0.0762 0.9416
C22A C 0.4503(10) 0.1609(8) 0.9746(6)
H24A H 0.4095 0.1516 0.9327
C23A C 0.4260(8) 0.2197(6) 1.0319(6)
H25A H 0.3682 0.2509 1.0281
C24A C 0.5447(7) 0.3448(6) 1.2212(6)
C25A C 0.6244(8) 0.3751(7) 1.1825(7)
H26A H 0.6246 0.3690 1.1310
C26A C 0.7044(9) 0.4150(9) 1.2228(8)
H27A H 0.7598 0.4340 1.1979
C27A C 0.7030(10) 0.4267(8) 1.2983(9)
H28A H 0.7553 0.4560 1.3246
C28A C 0.6241(11) 0.3949(9) 1.3347(8)
H29A H 0.6230 0.4019 1.3861
C29A C 0.5465(8) 0.3528(7) 1.2963(6)
H30A H 0.4943 0.3294 1.3218
C30A C 0.4954(7) 0.5990(6) 1.1490(6)
C31A C 0.5719(9) 0.6486(7) 1.1226(6)
H31A H 0.5711 0.6586 1.0730
C32A C 0.6475(9) 0.6829(8) 1.1666(7)
H32A H 0.7001 0.7125 1.1466
C33A C 0.6465(8) 0.6740(7) 1.2416(7)
H33A H 0.6953 0.7003 1.2734
C34A C 0.5717(9) 0.6254(8) 1.2667(6)
H34A H 0.5719 0.6160 1.3165
C35A C 0.4962(7) 0.5896(7) 1.2223(5)
H35A H 0.4448 0.5586 1.2425
C36A C 0.3131(7) 0.6288(6) 1.0720(6)
C37A C 0.3194(8) 0.7124(7) 1.1027(8)
H36A H 0.3723 0.7299 1.1346
C38A C 0.2492(10) 0.7707(8) 1.0875(10)
H37A H 0.2532 0.8266 1.1104
C39A C 0.1734(10) 0.7466(10) 1.0386(9)
H38A H 0.1271 0.7864 1.0263
C40A C 0.1665(9) 0.6649(10) 1.0083(8)
H39A H 0.1133 0.6474 0.9767
C41A C 0.2370(9) 0.6070(8) 1.0236(7)
H40A H 0.2326 0.5513 1.0002
C42A C -0.0097(7) 0.2796(7) 1.3954(5)
C43A C -0.0855(9) 0.3329(9) 1.3868(7)
H41A H -0.1088 0.3399 1.3394
C44A C -0.1292(10) 0.3770(9) 1.4469(8)
H42A H -0.1820 0.4130 1.4399
C45A C -0.0964(9) 0.3686(9) 1.5152(7)
H43A H -0.1261 0.3984 1.5559
C46A C -0.0195(9) 0.3163(7) 1.5248(6)
H44A H 0.0046 0.3107 1.5722
C47A C 0.0220(7) 0.2727(6) 1.4665(5)
H45A H 0.0742 0.2364 1.4743
C48A C -0.0433(8) 0.1709(6) 1.2629(6)
C49A C -0.1124(11) 0.1190(10) 1.2914(8)
H46A H -0.1098 0.1142 1.3420
C50A C -0.1840(12) 0.0743(12) 1.2515(10)
H47A H -0.2296 0.0402 1.2746
C51A C -0.1899(12) 0.0788(10) 1.1783(8)
H48A H -0.2381 0.0471 1.1493
C52A C -0.1245(13) 0.1300(11) 1.1485(8)
H49A H -0.1289 0.1358 1.0981
C53A C -0.0507(12) 0.1746(9) 1.1897(7)
H50A H -0.0049 0.2082 1.1665
C54A C 0.2547(7) 0.0442(6) 1.1800(6)
C55A C 0.2964(9) 0.0500(6) 1.1114(6)
H51A H 0.3622 0.0700 1.1091
C56A C 0.2453(11) 0.0279(8) 1.0472(7)
H52A H 0.2743 0.0348 1.0017
C57A C 0.1483(11) -0.0053(7) 1.0511(7)
H53A H 0.1119 -0.0205 1.0078
C58A C 0.1064(9) -0.0157(7) 1.1175(7)
H54A H 0.0423 -0.0393 1.1204
C59A C 0.1613(8) 0.0097(6) 1.1804(6)
H55A H 0.1325 0.0028 1.2259
C60A C 0.3839(7) -0.0132(6) 1.2890(5)
C61A C 0.4032(7) -0.0205(7) 1.3623(6)
H56A H 0.3812 0.0219 1.3977
C62A C 0.4533(8) -0.0878(8) 1.3849(7)
H57A H 0.4634 -0.0920 1.4352
C63A C 0.4886(9) -0.1488(7) 1.3344(7)
H58A H 0.5252 -0.1938 1.3495
C64A C 0.4700(10) -0.1435(7) 1.2610(8)
H59A H 0.4939 -0.1848 1.2255
C65A C 0.4154(9) -0.0763(7) 1.2404(6)
H60A H 0.3997 -0.0747 1.1906
C66A C 1.2032(8) 0.9520(6) 0.4808(5)
C67A C 1.2617(9) 1.0064(9) 0.5266(6)
H61A H 1.2591 1.0655 0.5246
C68A C 1.3263(11) 0.9724(10) 0.5774(8)
H62A H 1.3682 1.0089 0.6080
C69A C 1.3271(11) 0.8871(13) 0.5813(9)
H63A H 1.3679 0.8652 0.6163
C70A C 1.2685(11) 0.8314(10) 0.5344(8)
H64A H 1.2717 0.7723 0.5362
C71A C 1.2059(8) 0.8643(7) 0.4856(7)
H65A H 1.1644 0.8274 0.4550
C72A C 1.0783(8) 0.9143(5) 0.3547(4)
C73A C 0.9783(7) 0.9003(7) 0.3389(6)
H66A H 0.9311 0.9332 0.3651
C74A C 0.9482(7) 0.8376(8) 0.2841(7)
H67A H 0.8806 0.8281 0.2734
C75A C 1.0181(11) 0.7889(6) 0.2453(5)
H68A H 0.9977 0.7465 0.2083
C76A C 1.1181(10) 0.8029(6) 0.2611(5)
H69A H 1.1654 0.7700 0.2349
C77A C 1.1482(6) 0.8656(6) 0.3159(5)
H70A H 1.2159 0.8751 0.3266
S1A S 0.3435(2) 0.2576(2) 1.47286(17)
O1A O 0.4217(7) 0.2304(6) 1.5160(6)
O2A O 0.3700(7) 0.2908(5) 1.4064(4)
O3A O 0.2601(6) 0.2009(5) 1.4678(4)
C78A C 0.2975(12) 0.3493(10) 1.5290(6)
F1A F 0.2602(8) 0.3306(6) 1.5898(4)
F2A F 0.3665(7) 0.4079(5) 1.5427(5)
F3A F 0.2253(6) 0.3862(5) 1.4941(4)
C80A C 0.4564(7) 0.5303(6) 0.9997(5)
H71A H 0.4800 0.5849 0.9845
H72A H 0.4067 0.5063 0.9638
S2 S 0.8505(2) 0.7007(2) 0.95312(18)
O4 O 0.8091(6) 0.7533(6) 0.9018(4)
O5 O 0.7802(7) 0.6405(5) 0.9789(5)
O6 O 0.9464(6) 0.6698(6) 0.9363(5)
C79 C 0.8719(10) 0.7744(7) 1.0345(7)
F4 F 0.9371(5) 0.8354(4) 1.0206(4)
F5 F 0.7897(5) 0.8116(4) 1.0571(4)
F6 F 0.9082(6) 0.7368(5) 1.0885(4)
loop_
_geom_bond_atom_site_label_1
_geom_bond_atom_site_label_2
_geom_bond_site_symmetry_1
_geom_bond_site_symmetry_2
Ag1 P1 1_555 1_555
Ag2 P4 1_555 1_555
P1 C1 1_555 1_555
P2 Ag1 1_555 1_555
P3 Ag1 1_555 1_555
P4 C2 1_555 1_555
P5 Ag2 1_555 1_555
P6 Ag2 1_555 1_555
C1 H1 1_555 1_555
H2 C1 1_555 1_555
C2 C1 1_555 1_555
H3 C2 1_555 1_555
H4 C2 1_555 1_555
C3 P2 1_555 1_555
H5 C3 1_555 1_555
H6 C3 1_555 1_555
C4 P5 1_555 1_555
H7 C4 1_555 1_555
H8 C4 1_555 1_555
C5 P6 1_555 1_555
H9 C5 1_555 1_555
H10 C5 1_555 1_555
C6 P1 1_555 1_555
C7 C6 1_555 1_555
H11 C7 1_555 1_555
C8 C7 1_555 1_555
H12 C8 1_555 1_555
C9 C8 1_555 1_555
H13 C9 1_555 1_555
C10 C9 1_555 1_555
H14 C10 1_555 1_555
C11 C6 1_555 1_555
H15 C11 1_555 1_555
C12 P1 1_555 1_555
C13 C12 1_555 1_555
H16 C13 1_555 1_555
C14 C13 1_555 1_555
H17 C14 1_555 1_555
C15 C14 1_555 1_555
H18 C15 1_555 1_555
C16 C15 1_555 1_555
H19 C16 1_555 1_555
C17 C12 1_555 1_555
H20 C17 1_555 1_555
C18 P2 1_555 1_555
C19 C18 1_555 1_555
H21 C19 1_555 1_555
C20 C19 1_555 1_555
H22 C20 1_555 1_555
C21 C20 1_555 1_555
H23 C21 1_555 1_555
C22 C21 1_555 1_555
H24 C22 1_555 1_555
C23 C18 1_555 1_555
H25 C23 1_555 1_555
C24 P2 1_555 1_555
C25 C24 1_555 1_555
H26 C25 1_555 1_555
C26 C25 1_555 1_555
H27 C26 1_555 1_555
C27 C26 1_555 1_555
H28 C27 1_555 1_555
C28 C27 1_555 1_555
H29 C28 1_555 1_555
C29 C24 1_555 1_555
H30 C29 1_555 1_555
C30 P3 1_555 1_555
C31 C30 1_555 1_555
H31 C31 1_555 1_555
C32 C31 1_555 1_555
H32 C32 1_555 1_555
C33 C32 1_555 1_555
H33 C33 1_555 1_555
C34 C33 1_555 1_555
H34 C34 1_555 1_555
C35 C30 1_555 1_555
H35 C35 1_555 1_555
C36 P3 1_555 1_555
C37 C36 1_555 1_555
H36 C37 1_555 1_555
C38 C37 1_555 1_555
H37 C38 1_555 1_555
C39 C38 1_555 1_555
H38 C39 1_555 1_555
C40 C39 1_555 1_555
H39 C40 1_555 1_555
C41 C36 1_555 1_555
H40 C41 1_555 1_555
C42 P4 1_555 1_555
C43 C42 1_555 1_555
H41 C43 1_555 1_555
C44 C43 1_555 1_555
H42 C44 1_555 1_555
C45 C44 1_555 1_555
H43 C45 1_555 1_555
C46 C45 1_555 1_555
H44 C46 1_555 1_555
C47 C42 1_555 1_555
H45 C47 1_555 1_555
C48 P4 1_555 1_555
C49 C48 1_555 1_555
H46 C49 1_555 1_555
C50 C49 1_555 1_555
H47 C50 1_555 1_555
C51 C50 1_555 1_555
H48 C51 1_555 1_555
C52 C51 1_555 1_555
H49 C52 1_555 1_555
C53 C48 1_555 1_555
H50 C53 1_555 1_555
C54 P5 1_555 1_555
C55 C54 1_555 1_555
H51 C55 1_555 1_555
C56 C55 1_555 1_555
H52 C56 1_555 1_555
C57 C56 1_555 1_555
H53 C57 1_555 1_555
C58 C57 1_555 1_555
H54 C58 1_555 1_555
C59 C54 1_555 1_555
H55 C59 1_555 1_555
C60 P5 1_555 1_555
C61 C60 1_555 1_555
H56 C61 1_555 1_555
C62 C61 1_555 1_555
H57 C62 1_555 1_555
C63 C62 1_555 1_555
H58 C63 1_555 1_555
C64 C63 1_555 1_555
H59 C64 1_555 1_555
C65 C60 1_555 1_555
H60 C65 1_555 1_555
C66 P6 1_555 1_555
C67 C66 1_555 1_555
H61 C67 1_555 1_555
C68 C67 1_555 1_555
H62 C68 1_555 1_555
C69 C68 1_555 1_555
H63 C69 1_555 1_555
C70 C69 1_555 1_555
H64 C70 1_555 1_555
C71 C66 1_555 1_555
H65 C71 1_555 1_555
C72 P6 1_555 1_555
C73 C72 1_555 1_555
H66 C73 1_555 1_555
C74 C73 1_555 1_555
H67 C74 1_555 1_555
C75 C74 1_555 1_555
H68 C75 1_555 1_555
C76 C75 1_555 1_555
H69 C76 1_555 1_555
C77 C72 1_555 1_555
H70 C77 1_555 1_555
S1 O1 1_555 1_555
O2 S1 1_555 1_555
O3 Ag2 1_555 1_555
C78 S1 1_555 1_555
F1 C78 1_555 1_555
F2 C78 1_555 1_555
F3 C78 1_555 1_555
S2 O4 1_555 1_555
O5 S2 1_555 1_555
O6 S2 1_555 1_555
C79 S2 1_555 1_555
F4 C79 1_555 1_555
F5 C79 1_555 1_555
F6 C79 1_555 1_555
C80 P3 1_555 1_555
H71 C80 1_555 1_555
H72 C80 1_555 1_555
Ag1A P1A 1_555 1_555
Ag2A P4A 1_555 1_555
Ag2A_2 P6A 1_555 1_555
P1A C1A 1_555 1_555
P2A Ag1A 1_555 1_555
P3A Ag1A 1_555 1_555
P4A C2A 1_555 1_555
P5A Ag2A 1_555 1_555
P6A C5A 1_555 1_555
P6A_2 Ag2A 1_555 1_555
C1A H1A 1_555 1_555
H2A C1A 1_555 1_555
C2A C1A 1_555 1_555
H3A C2A 1_555 1_555
H4A C2A 1_555 1_555
C3A P2A 1_555 1_555
H5A C3A 1_555 1_555
H6A C3A 1_555 1_555
C4A P5A 1_555 1_555
H7A C4A 1_555 1_555
H8A C4A 1_555 1_555
C5A C5 1_555 1_555
H9A C5A 1_555 1_555
H10A C5A 1_555 1_555
C6A P1A 1_555 1_555
C7A C6A 1_555 1_555
H11A C7A 1_555 1_555
C8A C7A 1_555 1_555
H12A C8A 1_555 1_555
C9A C8A 1_555 1_555
H13A C9A 1_555 1_555
C10A C9A 1_555 1_555
H14A C10A 1_555 1_555
C11A C6A 1_555 1_555
H15A C11A 1_555 1_555
C12A P1A 1_555 1_555
C13A C12A 1_555 1_555
H16A C13A 1_555 1_555
C14A C13A 1_555 1_555
H17A C14A 1_555 1_555
C15A C14A 1_555 1_555
H18A C15A 1_555 1_555
C16A C15A 1_555 1_555
H19A C16A 1_555 1_555
C17A C12A 1_555 1_555
H20A C17A 1_555 1_555
C18A P2A 1_555 1_555
C19A C18A 1_555 1_555
H21A C19A 1_555 1_555
C20A C19A 1_555 1_555
H22A C20A 1_555 1_555
C21A C20A 1_555 1_555
H23A C21A 1_555 1_555
C22A C21A 1_555 1_555
H24A C22A 1_555 1_555
C23A C18A 1_555 1_555
H25A C23A 1_555 1_555
C24A P2A 1_555 1_555
C25A C24A 1_555 1_555
H26A C25A 1_555 1_555
C26A C25A 1_555 1_555
H27A C26A 1_555 1_555
C27A C26A 1_555 1_555
H28A C27A 1_555 1_555
C28A C27A 1_555 1_555
H29A C28A 1_555 1_555
C29A C24A 1_555 1_555
H30A C29A 1_555 1_555
C30A P3A 1_555 1_555
C31A C30A 1_555 1_555
H31A C31A 1_555 1_555
C32A C31A 1_555 1_555
H32A C32A 1_555 1_555
C33A C32A 1_555 1_555
H33A C33A 1_555 1_555
C34A C33A 1_555 1_555
H34A C34A 1_555 1_555
C35A C30A 1_555 1_555
H35A C35A 1_555 1_555
C36A P3A 1_555 1_555
C37A C36A 1_555 1_555
H36A C37A 1_555 1_555
C38A C37A 1_555 1_555
H37A C38A 1_555 1_555
C39A C38A 1_555 1_555
H38A C39A 1_555 1_555
C40A C39A 1_555 1_555
H39A C40A 1_555 1_555
C41A C36A 1_555 1_555
H40A C41A 1_555 1_555
C42A P4A 1_555 1_555
C43A C42A 1_555 1_555
H41A C43A 1_555 1_555
C44A C43A 1_555 1_555
H42A C44A 1_555 1_555
C45A C44A 1_555 1_555
H43A C45A 1_555 1_555
C46A C45A 1_555 1_555
H44A C46A 1_555 1_555
C47A C42A 1_555 1_555
H45A C47A 1_555 1_555
C48A P4A 1_555 1_555
C49A C48A 1_555 1_555
H46A C49A 1_555 1_555
C50A C49A 1_555 1_555
H47A C50A 1_555 1_555
C51A C50A 1_555 1_555
H48A C51A 1_555 1_555
C52A C51A 1_555 1_555
H49A C52A 1_555 1_555
C53A C48A 1_555 1_555
H50A C53A 1_555 1_555
C54A P5A 1_555 1_555
C55A C54A 1_555 1_555
H51A C55A 1_555 1_555
C56A C55A 1_555 1_555
H52A C56A 1_555 1_555
C57A C56A 1_555 1_555
H53A C57A 1_555 1_555
C58A C57A 1_555 1_555
H54A C58A 1_555 1_555
C59A C54A 1_555 1_555
H55A C59A 1_555 1_555
C60A P5A 1_555 1_555
C61A C60A 1_555 1_555
H56A C61A 1_555 1_555
C62A C61A 1_555 1_555
H57A C62A 1_555 1_555
C63A C62A 1_555 1_555
H58A C63A 1_555 1_555
C64A C63A 1_555 1_555
H59A C64A 1_555 1_555
C65A C60A 1_555 1_555
H60A C65A 1_555 1_555
C66A P6A 1_555 1_555
C67A C66A 1_555 1_555
H61A C67A 1_555 1_555
C68A C67A 1_555 1_555
H62A C68A 1_555 1_555
C69A C68A 1_555 1_555
H63A C69A 1_555 1_555
C70A C69A 1_555 1_555
H64A C70A 1_555 1_555
C71A C66A 1_555 1_555
H65A C71A 1_555 1_555
C72A P6A 1_555 1_555
C73A C72A 1_555 1_555
H66A C73A 1_555 1_555
C74A C73A 1_555 1_555
H67A C74A 1_555 1_555
C75A C74A 1_555 1_555
H68A C75A 1_555 1_555
C76A C75A 1_555 1_555
H69A C76A 1_555 1_555
C77A C72A 1_555 1_555
H70A C77A 1_555 1_555
S1A O1A 1_555 1_555
O2A S1A 1_555 1_555
O3A Ag2A 1_555 1_555
C78A S1A 1_555 1_555
F1A C78A 1_555 1_555
F2A C78A 1_555 1_555
F3A C78A 1_555 1_555
C80A C80 1_555 1_555
H71A C80A 1_555 1_555
H72A C80A 1_555 1_555
C3 C4 1_555 1_555
C10 C11 1_555 1_555
C16 C17 1_555 1_555
C22 C23 1_555 1_555
C28 C29 1_555 1_555
C34 C35 1_555 1_555
C40 C41 1_555 1_555
C46 C47 1_555 1_555
C52 C53 1_555 1_555
C58 C59 1_555 1_555
C64 C65 1_555 1_555
C70 C71 1_555 1_555
C76 C77 1_555 1_555
S1 O3 1_555 1_555
P3A C80A 1_555 1_555
C3A C4A 1_555 1_555
C10A C11A 1_555 1_555
C16A C17A 1_555 1_555
C22A C23A 1_555 1_555
C28A C29A 1_555 1_555
C34A C35A 1_555 1_555
C40A C41A 1_555 1_555
C46A C47A 1_555 1_555
C52A C53A 1_555 1_555
C58A C59A 1_555 1_555
C64A C65A 1_555 1_555
C70A C71A 1_555 1_555
C76A C77A 1_555 1_555
S1A O3A 1_555 1_555

#END
