
#######################################################################
#
#                 Cambridge Crystallographic Data Centre
#                                CCDC 
#
#######################################################################
#
# If this CIF has been generated from an entry in the Cambridge 
# Structural Database, then it will include bibliographic, chemical, 
# crystal, experimental, refinement or atomic coordinate data resulting 
# from the CCDC's data processing and validation procedures.
#
#######################################################################

data_XIMMUD
_symmetry_cell_setting           triclinic
_symmetry_space_group_name_H-M   'P -1'
_symmetry_Int_Tables_number      2
_space_group_name_Hall           '-P 1'
loop_
_symmetry_equiv_pos_site_id
_symmetry_equiv_pos_as_xyz
1 x,y,z
2 -x,-y,-z
_cell_length_a                   9.9760(6)
_cell_length_b                   12.4586(9)
_cell_length_c                   15.0957(8)
_cell_angle_alpha                86.336(3)
_cell_angle_beta                 83.860(4)
_cell_angle_gamma                66.464(3)
_cell_volume                     1709.79
loop_
_atom_site_label
_atom_site_type_symbol
_atom_site_fract_x
_atom_site_fract_y
_atom_site_fract_z
U1 U 0.98873(3) 0.58354(2) 0.751420(15)
S1 S 1.3808(2) 0.35169(18) 0.71891(14)
S2 S 1.1718(2) 0.25923(16) 0.71075(11)
S3 S 1.24851(19) 0.69001(16) 0.84702(10)
S4 S 1.23980(19) 0.72807(16) 0.66262(10)
S5 S 0.67501(19) 0.82208(16) 0.85340(11)
S6 S 0.67051(19) 0.81070(16) 0.66864(11)
O1 O 1.2614(5) 0.4675(4) 0.7218(3)
O2 O 1.4863(7) 0.3274(6) 0.7828(4)
O3 O 1.0605(5) 0.3685(4) 0.7449(3)
O4 O 1.1490(8) 0.2184(5) 0.6320(4)
O5 O 1.1275(5) 0.6526(4) 0.8449(2)
O6 O 1.3660(5) 0.6166(5) 0.8964(3)
O7 O 1.1098(5) 0.7001(4) 0.6712(3)
O8 O 1.3512(5) 0.6685(4) 0.5955(3)
O9 O 0.8333(5) 0.7505(4) 0.8428(3)
O10 O 0.5951(5) 0.7857(5) 0.9234(3)
O11 O 0.8301(5) 0.7473(4) 0.6636(3)
O12 O 0.5906(5) 0.7620(5) 0.6226(3)
O13 O 0.8024(4) 0.5587(4) 0.7652(2)
O14 O 1.0020(5) 0.4979(4) 0.9059(2)
O15 O 1.0114(5) 0.5240(4) 0.5911(2)
N1 N 1.3319(8) 0.2519(7) 0.7139(5)
N2 N 1.3022(6) 0.7275(5) 0.7539(3)
N3 N 0.5981(6) 0.8488(5) 0.7648(3)
F1 F 1.3921(5) 0.3836(5) 0.5475(3)
F2 F 1.5482(5) 0.4204(4) 0.6098(3)
F3 F 1.5799(5) 0.2446(4) 0.5932(3)
F4 F 1.0405(6) 0.1474(4) 0.8055(4)
F5 F 1.1919(7) 0.1834(4) 0.8733(3)
F6 F 1.2696(5) 0.0476(4) 0.7775(3)
F7 F 1.1138(6) 0.8022(4) 0.9891(3)
F8 F 1.0514(5) 0.9026(4) 0.8689(3)
F9 F 1.2585(6) 0.8716(5) 0.9162(3)
F10 F 1.0564(5) 0.9451(4) 0.6842(3)
F11 F 1.2688(5) 0.9243(4) 0.6205(3)
F12 F 1.1160(5) 0.8891(4) 0.5479(3)
F13 F 0.7239(6) 0.9510(4) 0.9624(3)
F14 F 0.5290(5) 1.0395(4) 0.8937(3)
F15 F 0.7423(6) 1.0041(4) 0.8246(3)
F16 F 0.7075(5) 0.9229(4) 0.5265(3)
F17 F 0.5132(5) 1.0186(4) 0.6102(3)
F18 F 0.7249(6) 0.9998(4) 0.6462(3)
C1 C 1.4810(8) 0.3491(7) 0.6102(5)
C2 C 1.1698(9) 0.1528(7) 0.7971(5)
C3 C 1.1618(9) 0.8264(8) 0.9083(5)
C4 C 1.1677(8) 0.8812(7) 0.6264(5)
C5 C 0.6672(9) 0.9648(7) 0.8847(5)
C6 C 0.6525(9) 0.9472(7) 0.6093(5)
C7 C 0.6802(8) 0.5241(7) 0.7730(5)
H1 H 0.6223 0.5564 0.7235
H2 H 0.6208 0.5527 0.8276
H3 H 0.7158 0.4403 0.7731
C8 C 0.8752(8) 0.5002(7) 0.9641(4)
H4 H 0.8837 0.4208 0.9780
H5 H 0.7867 0.5408 0.9341
C9 C 0.8651(7) 0.5614(6) 1.0486(4)
H6 H 0.8520 0.6419 1.0348
H7 H 0.7807 0.5621 1.0873
C10 C 0.8968(8) 0.4912(6) 0.5657(4)
H8 H 0.8119 0.5615 0.5531
H9 H 0.8673 0.4494 0.6152
C11 C 0.9464(8) 0.4157(6) 0.4856(4)
H10 H 1.0294 0.3442 0.4987
H11 H 0.8676 0.3944 0.4716
O14A O 0.9980(5) 0.5021(4) 1.0941(2)
C8A C 1.1248(8) 0.4998(7) 1.0359(4)
H4A H 1.1163 0.5792 1.0220
H5A H 1.2133 0.4592 1.0659
C9A C 1.1349(7) 0.4386(6) 0.9514(4)
H6A H 1.1480 0.3581 0.9652
H7A H 1.2193 0.4379 0.9127
O15A O 0.9886(5) 0.4760(4) 0.4089(2)
C10A C 1.1032(8) 0.5088(6) 0.4343(4)
H8A H 1.1881 0.4385 0.4469
H9A H 1.1327 0.5506 0.3848
C11A C 1.0536(8) 0.5843(6) 0.5144(4)
H10A H 0.9706 0.6558 0.5013
H11A H 1.1324 0.6056 0.5284
U1A U 1.01127(3) 0.41646(2) 0.248580(15)
S1A S 0.6192(2) 0.64831(18) 0.28109(14)
S2A S 0.8282(2) 0.74077(16) 0.28925(11)
S3A S 0.75149(19) 0.30999(16) 0.15298(10)
S4A S 0.76020(19) 0.27193(16) 0.33738(10)
S5A S 1.32499(19) 0.17792(16) 0.14660(11)
S6A S 1.32949(19) 0.18930(16) 0.33136(11)
O1A O 0.7386(5) 0.5325(4) 0.2782(3)
O2A O 0.5137(7) 0.6726(6) 0.2172(4)
O3A O 0.9395(5) 0.6315(4) 0.2551(3)
O4A O 0.8510(8) 0.7816(5) 0.3680(4)
O5A O 0.8725(5) 0.3474(4) 0.1551(2)
O6A O 0.6340(5) 0.3834(5) 0.1036(3)
O7A O 0.8902(5) 0.2999(4) 0.3288(3)
O8A O 0.6488(5) 0.3315(4) 0.4045(3)
O9A O 1.1667(5) 0.2495(4) 0.1572(3)
O10A O 1.4049(5) 0.2143(5) 0.0766(3)
O11A O 1.1699(5) 0.2527(4) 0.3364(3)
O12A O 1.4094(5) 0.2380(5) 0.3774(3)
O13A O 1.1976(4) 0.4413(4) 0.2348(2)
N1A N 0.6681(8) 0.7481(7) 0.2861(5)
N2A N 0.6978(6) 0.2725(5) 0.2461(3)
N3A N 1.4019(6) 0.1512(5) 0.2352(3)
F1A F 0.6079(5) 0.6164(5) 0.4525(3)
F2A F 0.4518(5) 0.5796(4) 0.3902(3)
F3A F 0.4201(5) 0.7554(4) 0.4068(3)
F4A F 0.9595(6) 0.8526(4) 0.1945(4)
F5A F 0.8081(7) 0.8166(4) 0.1267(3)
F6A F 0.7304(5) 0.9524(4) 0.2225(3)
F7A F 0.8862(6) 0.1978(4) 0.0109(3)
F8A F 0.9486(5) 0.0974(4) 0.1311(3)
F9A F 0.7415(6) 0.1284(5) 0.0838(3)
F10A F 0.9436(5) 0.0549(4) 0.3158(3)
F11A F 0.7312(5) 0.0757(4) 0.3795(3)
F12A F 0.8840(5) 0.1109(4) 0.4521(3)
F13A F 1.2761(6) 0.0490(4) 0.0376(3)
F14A F 1.4710(5) -0.0395(4) 0.1063(3)
F15A F 1.2577(6) -0.0041(4) 0.1754(3)
F16A F 1.2925(5) 0.0771(4) 0.4735(3)
F17A F 1.4868(5) -0.0186(4) 0.3898(3)
F18A F 1.2751(6) 0.0002(4) 0.3538(3)
C1A C 0.5190(8) 0.6509(7) 0.3898(5)
C2A C 0.8302(9) 0.8472(7) 0.2029(5)
C3A C 0.8382(9) 0.1736(8) 0.0917(5)
C4A C 0.8323(8) 0.1188(7) 0.3736(5)
C5A C 1.3328(9) 0.0352(7) 0.1153(5)
C6A C 1.3475(9) 0.0528(7) 0.3907(5)
C7A C 1.3198(8) 0.4759(7) 0.2270(5)
H1A H 1.3777 0.4436 0.2765
H2A H 1.3792 0.4473 0.1724
H3A H 1.2842 0.5597 0.2269
U1A_2 U 1.01127(3) 0.41646(2) 1.248580(15)
O14A_2 O 0.9980(5) 0.5021(4) 0.0941(2)
loop_
_geom_bond_atom_site_label_1
_geom_bond_atom_site_label_2
_geom_bond_site_symmetry_1
_geom_bond_site_symmetry_2
U1 O1 1_555 1_555
S1 O1 1_555 1_555
S2 O3 1_555 1_555
S3 O5 1_555 1_555
S4 O7 1_555 1_555
S5 O9 1_555 1_555
S6 O11 1_555 1_555
O2 S1 1_555 1_555
O3 U1 1_555 1_555
O4 S2 1_555 1_555
O5 U1 1_555 1_555
O6 S3 1_555 1_555
O7 U1 1_555 1_555
O8 S4 1_555 1_555
O9 U1 1_555 1_555
O10 S5 1_555 1_555
O11 U1 1_555 1_555
O12 S6 1_555 1_555
O13 U1 1_555 1_555
O14 U1 1_555 1_555
O15 U1 1_555 1_555
N1 S1 1_555 1_555
N2 S3 1_555 1_555
N3 S5 1_555 1_555
F1 C1 1_555 1_555
F2 C1 1_555 1_555
F3 C1 1_555 1_555
F4 C2 1_555 1_555
F5 C2 1_555 1_555
F6 C2 1_555 1_555
F7 C3 1_555 1_555
F8 C3 1_555 1_555
F9 C3 1_555 1_555
F10 C4 1_555 1_555
F11 C4 1_555 1_555
F12 C4 1_555 1_555
F13 C5 1_555 1_555
F14 C5 1_555 1_555
F15 C5 1_555 1_555
F16 C6 1_555 1_555
F17 C6 1_555 1_555
F18 C6 1_555 1_555
C1 S1 1_555 1_555
C2 S2 1_555 1_555
C3 S3 1_555 1_555
C4 S4 1_555 1_555
C5 S5 1_555 1_555
C6 S6 1_555 1_555
C7 O13 1_555 1_555
H1 C7 1_555 1_555
H2 C7 1_555 1_555
H3 C7 1_555 1_555
C8 O14 1_555 1_555
H4 C8 1_555 1_555
H5 C8 1_555 1_555
C9 C8 1_555 1_555
H6 C9 1_555 1_555
H7 C9 1_555 1_555
C10 O15 1_555 1_555
H8 C10 1_555 1_555
H9 C10 1_555 1_555
C11 C10 1_555 1_555
H10 C11 1_555 1_555
H11 C11 1_555 1_555
O14A C9 1_555 1_555
C8A O14A 1_555 1_555
H4A C8A 1_555 1_555
H5A C8A 1_555 1_555
C9A O14 1_555 1_555
H6A C9A 1_555 1_555
H7A C9A 1_555 1_555
O15A C11 1_555 1_555
C10A O15A 1_555 1_555
H8A C10A 1_555 1_555
H9A C10A 1_555 1_555
C11A O15 1_555 1_555
H10A C11A 1_555 1_555
H11A C11A 1_555 1_555
U1A O15A 1_555 1_555
S1A O1A 1_555 1_555
S2A O3A 1_555 1_555
S3A O5A 1_555 1_555
S4A O7A 1_555 1_555
S5A O9A 1_555 1_555
S6A O11A 1_555 1_555
O1A U1A 1_555 1_555
O2A S1A 1_555 1_555
O3A U1A 1_555 1_555
O4A S2A 1_555 1_555
O5A U1A 1_555 1_555
O6A S3A 1_555 1_555
O7A U1A 1_555 1_555
O8A S4A 1_555 1_555
O9A U1A 1_555 1_555
O10A S5A 1_555 1_555
O11A U1A 1_555 1_555
O12A S6A 1_555 1_555
O13A U1A 1_555 1_555
N1A S1A 1_555 1_555
N2A S3A 1_555 1_555
N3A S5A 1_555 1_555
F1A C1A 1_555 1_555
F2A C1A 1_555 1_555
F3A C1A 1_555 1_555
F4A C2A 1_555 1_555
F5A C2A 1_555 1_555
F6A C2A 1_555 1_555
F7A C3A 1_555 1_555
F8A C3A 1_555 1_555
F9A C3A 1_555 1_555
F10A C4A 1_555 1_555
F11A C4A 1_555 1_555
F12A C4A 1_555 1_555
F13A C5A 1_555 1_555
F14A C5A 1_555 1_555
F15A C5A 1_555 1_555
F16A C6A 1_555 1_555
F17A C6A 1_555 1_555
F18A C6A 1_555 1_555
C1A S1A 1_555 1_555
C2A S2A 1_555 1_555
C3A S3A 1_555 1_555
C4A S4A 1_555 1_555
C5A S5A 1_555 1_555
C6A S6A 1_555 1_555
C7A O13A 1_555 1_555
H1A C7A 1_555 1_555
H2A C7A 1_555 1_555
H3A C7A 1_555 1_555
U1A_2 O14A 1_555 1_555
O14A_2 U1A 1_555 1_555
S2 N1 1_555 1_555
S4 N2 1_555 1_555
S6 N3 1_555 1_555
C8A C9A 1_555 1_555
C10A C11A 1_555 1_555
S2A N1A 1_555 1_555
S4A N2A 1_555 1_555
S6A N3A 1_555 1_555

#END
