
#######################################################################
#
#                 Cambridge Crystallographic Data Centre
#                                CCDC 
#
#######################################################################
#
# If this CIF has been generated from an entry in the Cambridge 
# Structural Database, then it will include bibliographic, chemical, 
# crystal, experimental, refinement or atomic coordinate data resulting 
# from the CCDC's data processing and validation procedures.
#
#######################################################################

data_XIMPUE
_symmetry_cell_setting           monoclinic
_symmetry_space_group_name_H-M   'P 21/n'
_symmetry_Int_Tables_number      14
_space_group_name_Hall           '-P 2yn'
loop_
_symmetry_equiv_pos_site_id
_symmetry_equiv_pos_as_xyz
1 x,y,z
2 1/2+x,1/2-y,1/2+z
3 -x,-y,-z
4 1/2-x,1/2+y,1/2-z
_cell_length_a                   10.7671(2)
_cell_length_b                   13.4855(3)
_cell_length_c                   15.5292(4)
_cell_angle_alpha                90.00
_cell_angle_beta                 90.7610(10)
_cell_angle_gamma                90.00
_cell_volume                     2254.64
loop_
_atom_site_label
_atom_site_type_symbol
_atom_site_fract_x
_atom_site_fract_y
_atom_site_fract_z
Zn1 Zn 0.19396(3) 0.89467(2) 0.21425(2)
Zn2 Zn 0.19693(3) 0.62920(2) 0.21857(2)
N1 N -0.0070(2) 0.94187(17) 0.20566(18)
N2 N -0.0035(2) 0.57822(18) 0.2201(2)
O1 O 0.11648(18) 0.75987(13) 0.20703(14)
C1 C -0.0685(3) 0.6653(2) 0.1841(3)
C2 C -0.0129(3) 0.7601(2) 0.2204(2)
C3 C -0.0692(3) 0.8497(2) 0.1762(3)
C4 C -0.0293(4) 0.4904(3) 0.1657(3)
C5 C -0.0453(4) 0.5569(3) 0.3079(3)
C6 C -0.0406(4) 1.0237(3) 0.1465(3)
C7 C -0.0496(4) 0.9694(3) 0.2922(3)
O2 O 0.3654(2) 0.84559(15) 0.18066(17)
O3 O 0.3732(2) 0.68704(16) 0.22113(18)
C8 C 0.4206(3) 0.7651(2) 0.1943(2)
C9 C 0.5596(4) 0.7631(3) 0.1792(4)
O4 O 0.2150(2) 0.90281(16) 0.34371(14)
O5 O 0.2665(2) 1.05508(16) 0.38919(15)
C10 C 0.2308(3) 0.9672(2) 0.4008(2)
C11 C 0.2064(5) 0.9369(3) 0.4930(3)
O6 O 0.25404(19) 1.03758(14) 0.18507(13)
C12 C 0.2460(3) 1.0473(2) 0.1021(2)
O7 O 0.2118(3) 0.97841(19) 0.05642(17)
C13 C 0.2745(5) 1.1483(4) 0.0660(4)
H1 H 0.229(9) 0.976(7) 0.527(6)
H2 H 0.243(9) 0.870(7) 0.508(6)
H3 H 0.129(8) 0.929(8) 0.502(6)
H4 H 0.581(8) 0.821(7) 0.168(6)
H5 H 0.558(10) 0.755(7) 0.114(7)
H6 H 0.596(9) 0.708(7) 0.178(6)
H7 H -0.051(3) 0.846(2) 0.117(2)
H8 H -0.152(4) 0.856(3) 0.190(2)
H9 H -0.156(3) 0.664(2) 0.192(2)
H10 H -0.048(3) 0.667(2) 0.124(2)
H11 H -0.129(4) 1.034(3) 0.145(2)
H12 H 0.005(3) 1.085(3) 0.170(2)
H13 H -0.015(3) 1.006(3) 0.090(3)
H14 H 0.023(3) 0.437(3) 0.187(2)
H15 H 0.001(3) 0.502(3) 0.108(3)
H16 H -0.118(4) 0.473(3) 0.167(2)
H17 H -0.031(3) 0.764(2) 0.281(3)
H18 H 0.004(3) 1.032(3) 0.311(2)
H19 H -0.141(4) 0.985(3) 0.290(3)
H20 H -0.028(3) 0.916(3) 0.333(2)
H21 H -0.031(3) 0.615(3) 0.344(2)
H22 H -0.128(4) 0.546(3) 0.308(3)
H23 H 0.003(3) 0.499(3) 0.332(2)
H24 H 0.232(5) 1.153(4) 0.017(4)
H25 H 0.278(6) 1.210(6) 0.106(5)
H26 H 0.340(7) 1.154(6) 0.052(6)
O5C O 0.2335(2) 0.55508(16) 0.11081(15)
O6C O 0.24596(19) 0.53758(14) 0.31493(13)
Zn2C Zn 0.30307(3) 1.12920(2) 0.28143(2)
Cl1 Cl 0.5329(4) 0.76847(18) 0.45172(16)
Cl3 Cl 0.7965(4) 0.7744(2) 0.4163(2)
C14 C 0.7142(11) 0.7445(4) 0.4953(4)
D1 D 0.708(8) 0.778(6) 0.536(5)
D2 D 0.740(7) 0.679(6) 0.504(5)
Cl2? Cl 0.6523(10) 0.7683(3) 0.4162(5)
Cl4? Cl 0.9119(5) 0.7779(2) 0.4734(2)
loop_
_geom_bond_atom_site_label_1
_geom_bond_atom_site_label_2
_geom_bond_site_symmetry_1
_geom_bond_site_symmetry_2
Zn1 N1 1_555 1_555
Zn2 N2 1_555 1_555
N1 C3 1_555 1_555
N2 C1 1_555 1_555
O1 Zn1 1_555 1_555
C1 C2 1_555 1_555
C2 O1 1_555 1_555
C3 C2 1_555 1_555
C4 N2 1_555 1_555
C5 N2 1_555 1_555
C6 N1 1_555 1_555
C7 N1 1_555 1_555
O2 Zn1 1_555 1_555
O3 Zn2 1_555 1_555
C8 O2 1_555 1_555
C9 C8 1_555 1_555
O4 Zn1 1_555 1_555
O5 C10 1_555 1_555
C10 O4 1_555 1_555
C11 C10 1_555 1_555
O6 Zn1 1_555 1_555
C12 O6 1_555 1_555
O7 C12 1_555 1_555
C13 C12 1_555 1_555
Cl1 C14 1_555 1_555
Cl3 C14 1_555 1_555
C14 D1 1_555 1_555
H1 C11 1_555 1_555
H2 C11 1_555 1_555
H3 C11 1_555 1_555
H4 C9 1_555 1_555
H5 C9 1_555 1_555
H6 C9 1_555 1_555
D2 C14 1_555 1_555
H7 C3 1_555 1_555
H8 C3 1_555 1_555
H9 C1 1_555 1_555
H10 C1 1_555 1_555
H11 C6 1_555 1_555
H12 C6 1_555 1_555
H13 C6 1_555 1_555
H14 C4 1_555 1_555
H15 C4 1_555 1_555
H16 C4 1_555 1_555
H17 C2 1_555 1_555
H18 C7 1_555 1_555
H19 C7 1_555 1_555
H20 C7 1_555 1_555
H21 C5 1_555 1_555
H22 C5 1_555 1_555
H23 C5 1_555 1_555
H24 C13 1_555 1_555
H25 C13 1_555 1_555
H26 C13 1_555 1_555
O5C Zn2 1_555 1_555
O6C Zn2 1_555 1_555
Zn2C O5 1_555 1_555
Zn2 O1 1_555 1_555
O3 C8 1_555 1_555
O6 Zn2C 1_555 1_555

#END
