
#######################################################################
#
#                 Cambridge Crystallographic Data Centre
#                                CCDC 
#
#######################################################################
#
# If this CIF has been generated from an entry in the Cambridge 
# Structural Database, then it will include bibliographic, chemical, 
# crystal, experimental, refinement or atomic coordinate data resulting 
# from the CCDC's data processing and validation procedures.
#
#######################################################################

data_XIMPIU01
_symmetry_cell_setting           triclinic
_symmetry_space_group_name_H-M   'P -1'
_symmetry_Int_Tables_number      2
_space_group_name_Hall           '-P 1'
loop_
_symmetry_equiv_pos_site_id
_symmetry_equiv_pos_as_xyz
1 x,y,z
2 -x,-y,-z
_cell_length_a                   8.1767(7)
_cell_length_b                   9.8286(5)
_cell_length_c                   10.5904(12)
_cell_angle_alpha                96.118(6)
_cell_angle_beta                 110.718(9)
_cell_angle_gamma                98.952(6)
_cell_volume                     774.243
loop_
_atom_site_label
_atom_site_type_symbol
_atom_site_fract_x
_atom_site_fract_y
_atom_site_fract_z
Zn1 Zn -0.02958(6) 0.33453(4) 0.22304(5)
C1 C -0.2964(6) 0.4813(5) 0.1560(5)
C2 C -0.4552(6) 0.5268(4) 0.0633(4)
H1 H -0.4926 0.6005 0.1004
C3 C 0.0090(6) 0.1438(4) 0.3908(4)
C4 C -0.0314(6) 0.0556(4) 0.4857(4)
H2 H -0.1071 0.0818 0.5276
C5 C -0.0199(7) 0.2719(5) -0.0588(5)
H3 H -0.1021 0.3277 -0.0922
C6 C 0.0688(8) 0.2146(5) -0.1281(5)
H4 H 0.0593 0.2224 -0.2170
C7 C 0.1456(6) 0.1570(4) 0.0734(5)
H5 H 0.2008 0.1158 0.1480
C8 C 0.2942(8) 0.0627(6) -0.0799(7)
H6 H 0.2228 -0.0275 -0.1325
H7 H 0.3389 0.1113 -0.1400
C9 C 0.4396(8) 0.0394(6) 0.0261(6)
H8 H 0.3969 -0.0148 0.0837
H9 H 0.5102 0.1285 0.0818
C10 C 0.3459(7) 0.4921(4) 0.2993(5)
H10 H 0.3684 0.4261 0.2412
C11 C 0.4651(6) 0.6090(4) 0.3778(5)
H11 H 0.5823 0.6381 0.3848
C12 C 0.2110(6) 0.5974(4) 0.4063(4)
H12 H 0.1243 0.6197 0.4380
C13 C 0.4468(6) 0.8126(4) 0.5350(4)
H13 H 0.5629 0.8124 0.6035
H14 H 0.3678 0.8298 0.5822
C14 C 0.4650(6) 0.9290(4) 0.4537(5)
H15 H 0.5463 0.9129 0.4082
H16 H 0.3495 0.9277 0.3837
O1 O -0.2474(4) 0.3803(3) 0.1011(3)
O2 O -0.2180(5) 0.5417(4) 0.2758(4)
O3 O -0.0939(4) 0.2276(3) 0.3501(3)
O4 O 0.1315(5) 0.1301(3) 0.3534(4)
N1 N 0.0295(5) 0.2354(3) 0.0698(4)
N2 N 0.1754(5) 0.1430(4) -0.0424(4)
N3 N 0.1878(5) 0.4850(3) 0.3179(3)
N4 N 0.3751(5) 0.6754(3) 0.4448(4)
C1A C -0.7036(6) 0.5187(5) -0.1560(5)
C2A C -0.5448(6) 0.4732(4) -0.0633(4)
H1A H -0.5074 0.3995 -0.1004
O1A O -0.7526(4) 0.6197(3) -0.1011(3)
O2A O -0.7820(5) 0.4583(4) -0.2758(4)
C3A C -0.0090(6) -0.1438(4) 0.6092(4)
C4A C 0.0314(6) -0.0556(4) 0.5143(4)
H2A H 0.1071 -0.0818 0.4724
O3A O 0.0939(4) -0.2276(3) 0.6499(3)
O4A O -0.1315(5) -0.1301(3) 0.6466(4)
C5A C 1.0199(7) -0.2719(5) 0.0588(5)
H3A H 1.1021 -0.3277 0.0922
C6A C 0.9312(8) -0.2146(5) 0.1281(5)
H4A H 0.9407 -0.2224 0.2170
C7A C 0.8544(6) -0.1570(4) -0.0734(5)
H5A H 0.7992 -0.1158 -0.1480
C8A C 0.7058(8) -0.0627(6) 0.0799(7)
H6A H 0.7772 0.0275 0.1325
H7A H 0.6611 -0.1113 0.1400
C9A C 0.5604(8) -0.0394(6) -0.0261(6)
H8A H 0.6031 0.0148 -0.0837
H9A H 0.4898 -0.1285 -0.0818
N1A N 0.9705(5) -0.2354(3) -0.0698(4)
N2A N 0.8246(5) -0.1430(4) 0.0424(4)
C10A C 0.6541(7) 1.5079(4) 0.7007(5)
H10A H 0.6316 1.5739 0.7588
C11A C 0.5349(6) 1.3910(4) 0.6222(5)
H11A H 0.4177 1.3619 0.6152
C12A C 0.7890(6) 1.4026(4) 0.5937(4)
H12A H 0.8757 1.3803 0.5620
C13A C 0.5532(6) 1.1874(4) 0.4650(4)
H13A H 0.4371 1.1876 0.3965
H14A H 0.6322 1.1702 0.4178
C14A C 0.5350(6) 1.0710(4) 0.5463(5)
H15A H 0.4537 1.0871 0.5918
H16A H 0.6505 1.0723 0.6163
N3A N 0.8122(5) 1.5150(3) 0.6821(3)
N4A N 0.6249(5) 1.3246(3) 0.5552(4)
Zn1A Zn -0.97042(6) 0.66547(4) -0.22304(5)
Zn1A_2 Zn 0.02958(6) -0.33453(4) 0.77696(5)
Zn1A_3 Zn 1.02958(6) -0.33453(4) -0.22304(5)
Zn1A_4 Zn 1.02958(6) 1.66547(4) 0.77696(5)
O3A_2 O -0.9061(4) 0.7724(3) -0.3501(3)
N1A_2 N -1.0295(5) 0.7646(3) -0.0698(4)
N3A_2 N -1.1878(5) 0.5150(3) -0.3179(3)
loop_
_geom_bond_atom_site_label_1
_geom_bond_atom_site_label_2
_geom_bond_site_symmetry_1
_geom_bond_site_symmetry_2
Zn1 O1 1_555 1_555
C1 C2 1_555 1_555
C2 H1 1_555 1_555
C3 C4 1_555 1_555
C4 H2 1_555 1_555
C5 H3 1_555 1_555
C6 C5 1_555 1_555
H4 C6 1_555 1_555
C7 H5 1_555 1_555
C8 H6 1_555 1_555
H7 C8 1_555 1_555
C9 C8 1_555 1_555
H8 C9 1_555 1_555
H9 C9 1_555 1_555
C10 H10 1_555 1_555
C11 C10 1_555 1_555
H11 C11 1_555 1_555
C12 H12 1_555 1_555
C13 H13 1_555 1_555
H14 C13 1_555 1_555
C14 C13 1_555 1_555
H15 C14 1_555 1_555
H16 C14 1_555 1_555
O1 C1 1_555 1_555
O2 C1 1_555 1_555
O3 Zn1 1_555 1_555
O4 C3 1_555 1_555
N1 Zn1 1_555 1_555
N2 C6 1_555 1_555
N3 Zn1 1_555 1_555
N4 C11 1_555 1_555
C1A C2A 1_555 1_555
C2A C2 1_555 1_555
H1A C2A 1_555 1_555
O1A C1A 1_555 1_555
O2A C1A 1_555 1_555
C3A C4A 1_555 1_555
C4A C4 1_555 1_555
H2A C4A 1_555 1_555
O3A C3A 1_555 1_555
O4A C3A 1_555 1_555
C5A H3A 1_555 1_555
C6A C5A 1_555 1_555
H4A C6A 1_555 1_555
C7A H5A 1_555 1_555
C8A H6A 1_555 1_555
H7A C8A 1_555 1_555
C9A C9 1_555 1_555
H8A C9A 1_555 1_555
H9A C9A 1_555 1_555
N1A C5A 1_555 1_555
N2A C6A 1_555 1_555
C10A H10A 1_555 1_555
C11A C10A 1_555 1_555
H11A C11A 1_555 1_555
C12A H12A 1_555 1_555
C13A H13A 1_555 1_555
H14A C13A 1_555 1_555
C14A C14 1_555 1_555
H15A C14A 1_555 1_555
H16A C14A 1_555 1_555
N3A C10A 1_555 1_555
N4A C11A 1_555 1_555
Zn1A O1A 1_555 1_555
Zn1A_2 O3A 1_555 1_555
Zn1A_3 N1A 1_555 1_555
Zn1A_4 N3A 1_555 1_555
O3A_2 Zn1A 1_555 1_555
N1A_2 Zn1A 1_555 1_555
N3A_2 Zn1A 1_555 1_555
C3 O3 1_555 1_555
C5 N1 1_555 1_555
C7 N1 1_555 1_555
C7 N2 1_555 1_555
C8 N2 1_555 1_555
C10 N3 1_555 1_555
C12 N3 1_555 1_555
C12 N4 1_555 1_555
C13 N4 1_555 1_555
C7A N1A 1_555 1_555
C7A N2A 1_555 1_555
C8A C9A 1_555 1_555
C8A N2A 1_555 1_555
C12A N3A 1_555 1_555
C12A N4A 1_555 1_555
C13A C14A 1_555 1_555
C13A N4A 1_555 1_555

#END
