
#######################################################################
#
#                 Cambridge Crystallographic Data Centre
#                                CCDC 
#
#######################################################################
#
# If this CIF has been generated from an entry in the Cambridge 
# Structural Database, then it will include bibliographic, chemical, 
# crystal, experimental, refinement or atomic coordinate data resulting 
# from the CCDC's data processing and validation procedures.
#
#######################################################################

data_XIMSET
_symmetry_cell_setting           monoclinic
_symmetry_space_group_name_H-M   'P 21/c'
_symmetry_Int_Tables_number      14
_space_group_name_Hall           '-P 2ybc'
loop_
_symmetry_equiv_pos_site_id
_symmetry_equiv_pos_as_xyz
1 x,y,z
2 -x,1/2+y,1/2-z
3 -x,-y,-z
4 x,1/2-y,1/2+z
_cell_length_a                   18.775(4)
_cell_length_b                   11.423(2)
_cell_length_c                   22.206(5)
_cell_angle_alpha                90
_cell_angle_beta                 90.663(6)
_cell_angle_gamma                90
_cell_volume                     4762.13
loop_
_atom_site_label
_atom_site_type_symbol
_atom_site_fract_x
_atom_site_fract_y
_atom_site_fract_z
C1 C -0.14073(18) 0.9537(3) 0.3080(2)
C2 C -0.06914(19) 0.9471(3) 0.3237(2)
H1 H -0.0500 1.0013 0.3507
C3 C -0.02588(19) 0.8614(3) 0.3001(2)
H2 H 0.0222 0.8593 0.3105
C4 C -0.05374(18) 0.7783(3) 0.2610(2)
C5 C -0.1258(2) 0.7820(4) 0.2466(2)
H3 H -0.1454 0.7254 0.2213
C6 C -0.1687(2) 0.8698(4) 0.2697(2)
H4 H -0.2168 0.8721 0.2593
C7 C -0.18526(19) 1.0531(3) 0.3310(2)
C8 C -0.00644(18) 0.6855(3) 0.2339(2)
H5 H -0.0356 0.6219 0.2184
H6 H 0.0199 0.7186 0.2007
C9 C 0.09275(18) 0.5726(3) 0.3624(2)
C10 C 0.03005(18) 0.5713(3) 0.3288(2)
C11 C 0.11178(18) 0.6780(3) 0.2846(2)
H7 H 0.1338 0.7265 0.2568
C12 C 0.1113(2) 0.5233(4) 0.4219(2)
C13 C -0.03827(19) 0.5077(3) 0.3386(2)
C14 C -0.63290(18) 0.9488(3) 0.3020(2)
C15 C -0.56868(18) 0.9744(3) 0.3308(2)
H8 H -0.5537 0.9292 0.3634
C16 C -0.52670(19) 1.0665(3) 0.3115(2)
H9 H -0.4838 1.0824 0.3312
C17 C -0.54817(18) 1.1350(3) 0.2633(2)
C18 C -0.61277(19) 1.1107(3) 0.2348(2)
H10 H -0.6280 1.1569 0.2027
C19 C -0.65464(19) 1.0184(3) 0.2537(2)
H11 H -0.6976 1.0028 0.2340
C20 C -0.67595(18) 0.8461(3) 0.3232(2)
C21 C -0.50211(19) 1.2327(3) 0.2394(2)
H12 H -0.4752 1.2044 0.2053
H13 H -0.5322 1.2966 0.2256
C22 C -0.40443(18) 1.3476(3) 0.3684(2)
C23 C -0.46642(18) 1.3470(3) 0.3345(2)
C24 C -0.38567(17) 1.2360(3) 0.2922(2)
H14 H -0.3640 1.1850 0.2653
C25 C -0.38439(19) 1.4030(3) 0.4257(2)
C26 C -0.53572(19) 1.4081(3) 0.3442(2)
N1 N 0.04373(14) 0.6401(3) 0.27959(17)
N2 N 0.14264(15) 0.6379(3) 0.33342(17)
N3 N -0.45288(14) 1.2754(3) 0.28604(16)
N4 N -0.35451(15) 1.2783(3) 0.34052(17)
O1 O -0.24677(13) 1.0693(2) 0.31016(14)
O2 O -0.15764(13) 1.1208(2) 0.37008(14)
O3 O 0.17167(14) 0.5415(3) 0.44301(15)
O4 O 0.06360(14) 0.4647(3) 0.45055(16)
O5 O -0.04263(14) 0.4485(3) 0.38713(17)
O6 O -0.08597(14) 0.5138(3) 0.30000(15)
O7 O -0.73706(12) 0.8283(2) 0.30134(14)
O8 O -0.64800(13) 0.7797(2) 0.36194(14)
O9 O -0.32296(13) 1.3900(2) 0.44581(14)
O10 O -0.43217(14) 1.4614(3) 0.45427(15)
O11 O -0.54057(14) 1.4669(3) 0.39273(17)
O12 O -0.58313(14) 1.4001(3) 0.30604(15)
O13 O -0.19968(17) 1.3648(3) 0.30581(19)
O14 O -0.16614(17) 1.3581(3) 0.4389(2)
O15 O -0.28663(16) 1.1269(3) 0.45577(15)
O16 O 0.29750(15) 0.5361(3) 0.30227(19)
O17 O 0.32432(16) 0.5412(3) 0.4339(2)
O18 O 0.21978(18) 0.7930(3) 0.44233(18)
Cd1 Cd -0.245357(12) 1.25534(2) 0.383229(15)
Cd2 Cd 0.254512(13) 0.65819(2) 0.374742(15)
H15 H -0.220(3) 1.364(5) 0.275(3)
H16 H -0.169(3) 1.402(4) 0.306(2)
H17 H -0.129(3) 1.386(4) 0.428(2)
H18 H -0.169(3) 1.381(5) 0.470(3)
H19 H -0.272(3) 1.049(6) 0.451(3)
H20 H -0.327(3) 1.131(4) 0.456(2)
H21 H 0.283(2) 0.540(4) 0.267(2)
H22 H 0.3377(17) 0.489(3) 0.305(2)
H23 H 0.361(3) 0.521(5) 0.424(2)
H24 H 0.328(3) 0.571(6) 0.464(3)
H25 H 0.241(3) 0.817(6) 0.4789(18)
H26 H 0.179(3) 0.815(4) 0.439(2)
H27 H 0.002(2) 0.448(6) 0.411(3)
H28 H -0.499(3) 1.473(7) 0.419(3)
O7_2 O 0.26294(12) 0.8283(2) 0.30134(14)
O8_2 O 0.35200(13) 0.7797(2) 0.36194(14)
Cd2_2 Cd -0.745488(13) 0.65819(2) 0.374742(15)
C27 C 0.1308(3) 0.1933(5) 0.4102(3)
C28 C 0.2491(3) 0.2796(5) 0.4133(3)
H29 H 0.2964 0.2557 0.4030
H30 H 0.2476 0.2984 0.4554
H31 H 0.2359 0.3473 0.3901
C29 C 0.2300(3) 0.0759(5) 0.3795(3)
H32 H 0.2804 0.0864 0.3749
H33 H 0.2091 0.0546 0.3414
H34 H 0.2215 0.0150 0.4083
N5 N 0.1987(2) 0.1834(3) 0.4002(2)
O19 O 0.08633(18) 0.1153(3) 0.40126(18)
H35 H 0.117(2) 0.279(5) 0.422(2)
C30 C -0.1921(3) 0.8677(4) 0.4486(2)
C31 C -0.0918(3) 0.7375(5) 0.4370(3)
H36 H -0.0840 0.6566 0.4274
H37 H -0.0723 0.7540 0.4762
H38 H -0.0689 0.7859 0.4077
C32 C -0.2149(4) 0.6701(5) 0.4165(3)
H39 H -0.1881 0.5997 0.4100
H40 H -0.2379 0.6932 0.3796
H41 H -0.2502 0.6560 0.4466
N6 N -0.1679(2) 0.7615(3) 0.4366(2)
O20 O -0.25519(17) 0.8971(3) 0.44736(17)
H42 H -0.153(2) 0.924(4) 0.4576(19)
C33 C -0.4485(3) 1.1795(4) 0.5058(3)
C34 C -0.5388(4) 1.2503(6) 0.5741(3)
H43 H -0.5899 1.2527 0.5755
H44 H -0.5203 1.3286 0.5755
H45 H -0.5208 1.2068 0.6080
C35 C -0.5721(2) 1.1592(6) 0.4763(3)
H46 H -0.6180 1.1757 0.4929
H47 H -0.5682 1.0769 0.4684
H48 H -0.5666 1.2020 0.4394
N7 N -0.5169(2) 1.1941(3) 0.5188(2)
O21 O -0.42664(16) 1.1352(4) 0.4595(2)
H49 H -0.415(2) 1.204(4) 0.540(2)
O22 O -0.0450(3) 1.1377(6) 0.4552(2)
H50 H -0.073(4) 1.153(7) 0.435(4)
H51 H -0.010(3) 1.139(5) 0.437(3)
O23 O 0.08709(18) 0.8718(4) 0.4300(2)
H52 H 0.086(5) 0.947(4) 0.410(4)
H53 H 0.073(3) 0.861(5) 0.469(3)
O24 O -0.6491(4) 1.1194(6) 0.6561(4)
loop_
_geom_bond_atom_site_label_1
_geom_bond_atom_site_label_2
_geom_bond_site_symmetry_1
_geom_bond_site_symmetry_2
C1 C2 1_555 1_555
C2 H1 1_555 1_555
C3 C2 1_555 1_555
H2 C3 1_555 1_555
C4 C3 1_555 1_555
C5 C4 1_555 1_555
H3 C5 1_555 1_555
C6 C1 1_555 1_555
H4 C6 1_555 1_555
C7 C1 1_555 1_555
C8 C4 1_555 1_555
H5 C8 1_555 1_555
H6 C8 1_555 1_555
C9 C10 1_555 1_555
C10 C13 1_555 1_555
C11 H7 1_555 1_555
C12 C9 1_555 1_555
C13 O5 1_555 1_555
C14 C15 1_555 1_555
C15 H8 1_555 1_555
C16 C15 1_555 1_555
H9 C16 1_555 1_555
C17 C16 1_555 1_555
C18 C17 1_555 1_555
H10 C18 1_555 1_555
C19 C14 1_555 1_555
H11 C19 1_555 1_555
C20 C14 1_555 1_555
C21 C17 1_555 1_555
H12 C21 1_555 1_555
H13 C21 1_555 1_555
C22 C23 1_555 1_555
C23 C26 1_555 1_555
C24 H14 1_555 1_555
C25 C22 1_555 1_555
C26 O11 1_555 1_555
N1 C8 1_555 1_555
N2 C9 1_555 1_555
N3 C21 1_555 1_555
N4 C22 1_555 1_555
O1 C7 1_555 1_555
O2 C7 1_555 1_555
O3 C12 1_555 1_555
O4 C12 1_555 1_555
O5 H27 1_555 1_555
O6 C13 1_555 1_555
O7 C20 1_555 1_555
O8 C20 1_555 1_555
O9 C25 1_555 1_555
O10 C25 1_555 1_555
O11 H28 1_555 1_555
O12 C26 1_555 1_555
O13 Cd1 1_555 1_555
O14 Cd1 1_555 1_555
O15 Cd1 1_555 1_555
O16 Cd2 1_555 1_555
O17 Cd2 1_555 1_555
O18 Cd2 1_555 1_555
Cd1 N4 1_555 1_555
Cd2 N2 1_555 1_555
H15 O13 1_555 1_555
H16 O13 1_555 1_555
H17 O14 1_555 1_555
H18 O14 1_555 1_555
H19 O15 1_555 1_555
H20 O15 1_555 1_555
H21 O16 1_555 1_555
H22 O16 1_555 1_555
H23 O17 1_555 1_555
H24 O17 1_555 1_555
H25 O18 1_555 1_555
H26 O18 1_555 1_555
C27 N5 1_555 1_555
C28 H29 1_555 1_555
H30 C28 1_555 1_555
H31 C28 1_555 1_555
C29 H32 1_555 1_555
H33 C29 1_555 1_555
H34 C29 1_555 1_555
N5 C28 1_555 1_555
O19 C27 1_555 1_555
H35 C27 1_555 1_555
C30 N6 1_555 1_555
C31 H36 1_555 1_555
H37 C31 1_555 1_555
H38 C31 1_555 1_555
C32 H39 1_555 1_555
H40 C32 1_555 1_555
H41 C32 1_555 1_555
N6 C31 1_555 1_555
O20 C30 1_555 1_555
H42 C30 1_555 1_555
C33 N7 1_555 1_555
C34 H43 1_555 1_555
H44 C34 1_555 1_555
H45 C34 1_555 1_555
C35 H46 1_555 1_555
H47 C35 1_555 1_555
H48 C35 1_555 1_555
N7 C34 1_555 1_555
O21 C33 1_555 1_555
H49 C33 1_555 1_555
O22 H50 1_555 1_555
H51 O22 1_555 1_555
O23 H52 1_555 1_555
H53 O23 1_555 1_555
O7_2 Cd2 1_555 1_555
O8_2 Cd2 1_555 1_555
Cd2_2 O7 1_555 1_555
C5 C6 1_555 1_555
C10 N1 1_555 1_555
C11 N1 1_555 1_555
C11 N2 1_555 1_555
C18 C19 1_555 1_555
C23 N3 1_555 1_555
C24 N3 1_555 1_555
C24 N4 1_555 1_555
O1 Cd1 1_555 1_555
O2 Cd1 1_555 1_555
O3 Cd2 1_555 1_555
O8 Cd2_2 1_555 1_555
O9 Cd1 1_555 1_555
C29 N5 1_555 1_555
C32 N6 1_555 1_555
C35 N7 1_555 1_555

#END
