
#######################################################################
#
#                 Cambridge Crystallographic Data Centre
#                                CCDC 
#
#######################################################################
#
# If this CIF has been generated from an entry in the Cambridge 
# Structural Database, then it will include bibliographic, chemical, 
# crystal, experimental, refinement or atomic coordinate data resulting 
# from the CCDC's data processing and validation procedures.
#
#######################################################################

data_XIMWEW
_symmetry_cell_setting           monoclinic
_symmetry_space_group_name_H-M   'P 21/n'
_symmetry_Int_Tables_number      14
_space_group_name_Hall           '-P 2yn'
loop_
_symmetry_equiv_pos_site_id
_symmetry_equiv_pos_as_xyz
1 x,y,z
2 1/2-x,1/2+y,1/2-z
3 -x,-y,-z
4 1/2+x,1/2-y,1/2+z
_cell_length_a                   10.8373(14)
_cell_length_b                   24.482(3)
_cell_length_c                   14.6610(18)
_cell_angle_alpha                90
_cell_angle_beta                 95.565(2)
_cell_angle_gamma                90
_cell_volume                     3871.51
loop_
_atom_site_label
_atom_site_type_symbol
_atom_site_fract_x
_atom_site_fract_y
_atom_site_fract_z
Zn1 Zn 1.49585(5) 0.18827(2) -0.53111(4)
Zn2 Zn 1.27092(5) 0.42519(2) -0.34970(3)
O1 O 1.3671(3) 0.43141(13) -0.4559(2)
O3 O 1.4798(4) 0.35697(14) -0.4230(2)
O5 O 1.5468(3) 0.25988(13) -0.5757(2)
O7 O 1.3490(3) 0.28385(14) -0.5859(3)
O8 O 1.6031(3) 0.41085(14) -0.8285(2)
O9 O 1.1658(3) 0.34049(13) -1.0150(2)
O10 O 1.1165(3) 0.42436(14) -0.9736(2)
O11 O 1.3731(3) 0.42216(14) -1.2344(2)
O12 O 1.1943(3) 0.41970(15) -1.1730(2)
N1 N 1.6732(4) 0.00508(17) -0.8624(3)
N2 N 1.5343(4) -0.05658(17) -0.8363(3)
N3 N 1.2992(4) 0.07276(16) -0.6886(3)
N4 N 1.3851(4) 0.14477(15) -0.6213(3)
N5 N 1.4206(4) 0.19513(15) -0.4126(3)
N6 N 1.3567(4) 0.22919(17) -0.2877(3)
N7 N 1.5773(4) 0.2128(2) 0.0595(3)
N8 N 1.6572(4) 0.13823(18) 0.1216(3)
C1 C 1.4410(4) 0.39358(18) -0.4751(3)
C2 C 1.4814(4) 0.39702(18) -0.5700(3)
C3 C 1.4951(4) 0.34999(17) -0.6225(3)
C4 C 1.5329(4) 0.35534(18) -0.7094(3)
H1 H 1.5420 0.3243 -0.7447
C5 C 1.5571(4) 0.40567(19) -0.7440(3)
C6 C 1.5419(4) 0.45215(19) -0.6935(3)
H2 H 1.5566 0.4864 -0.7177
C7 C 1.5045(4) 0.44731(18) -0.6069(3)
H3 H 1.4947 0.4787 -0.5725
C8 C 1.4600(5) 0.29422(18) -0.5911(3)
C9 C 1.5234(4) 0.41383(17) -0.9071(3)
C10 C 1.3984(4) 0.40241(17) -0.9109(3)
H4 H 1.3627 0.3930 -0.8579
C11 C 1.3260(4) 0.40507(17) -0.9947(3)
C12 C 1.3809(4) 0.41952(17) -1.0732(3)
C13 C 1.5064(4) 0.43173(19) -1.0664(3)
H5 H 1.5427 0.4416 -1.1189
C14 C 1.5784(4) 0.42964(19) -0.9842(3)
H6 H 1.6621 0.4386 -0.9805
C15 C 1.1910(4) 0.38985(18) -0.9954(3)
C16 C 1.3075(5) 0.42055(18) -1.1655(3)
C17 C 1.6002(5) -0.0137(2) -0.8034(3)
H7 H 1.5951 0.0010 -0.7454
C18 C 1.5682(6) -0.0659(2) -0.9227(4)
H8 H 1.5373 -0.0930 -0.9632
C19 C 1.6537(5) -0.0287(2) -0.9375(4)
H9 H 1.6941 -0.0259 -0.9905
C20 C 1.4323(5) -0.0819(2) -0.7935(4)
H10 H 1.4317 -0.1208 -0.8058
H11 H 1.4455 -0.0769 -0.7276
C21 C 1.3082(5) -0.0579(2) -0.8285(4)
H12 H 1.2439 -0.0773 -0.8001
H13 H 1.2948 -0.0643 -0.8940
C22 C 1.2943(5) 0.0024(2) -0.8109(3)
H14 H 1.2227 0.0160 -0.8489
H15 H 1.3668 0.0213 -0.8287
C23 C 1.2794(6) 0.0151(2) -0.7122(3)
H16 H 1.3377 -0.0068 -0.6735
H17 H 1.1964 0.0048 -0.6993
C24 C 1.3930(5) 0.0918(2) -0.6326(3)
H18 H 1.4565 0.0702 -0.6047
C25 C 1.2810(5) 0.1606(2) -0.6753(4)
H19 H 1.2518 0.1962 -0.6819
C26 C 1.2274(5) 0.1165(2) -0.7171(4)
H20 H 1.1558 0.1159 -0.7575
C27 C 1.4139(5) 0.2388(2) -0.3621(3)
H21 H 1.4455 0.2726 -0.3766
C28 C 1.3248(5) 0.1754(2) -0.2899(4)
H22 H 1.2840 0.1565 -0.2467
C29 C 1.3642(5) 0.1551(2) -0.3670(4)
H23 H 1.3544 0.1190 -0.3864
C30 C 1.3253(7) 0.2693(3) -0.2185(4)
H24 H 1.2992 0.3029 -0.2497
H25 H 1.2553 0.2555 -0.1890
C32 C 1.4252(11) 0.2820(4) -0.1480(7)
H28 H 1.4961 0.2947 -0.1776
H29 H 1.3986 0.3119 -0.1110
C34 C 1.4624(11) 0.2396(4) -0.0911(6)
H32 H 1.5034 0.2123 -0.1254
H33 H 1.3902 0.2228 -0.0687
C36 C 1.5580(7) 0.2599(3) -0.0030(5)
H36 H 1.6363 0.2716 -0.0235
H37 H 1.5224 0.2903 0.0280
C38 C 1.6671(5) 0.1755(2) 0.0589(3)
H40 H 1.7287 0.1759 0.0190
C39 C 1.5548(6) 0.1524(3) 0.1640(5)
H41 H 1.5241 0.1332 0.2117
C40 C 1.5061(6) 0.1977(3) 0.1269(5)
H42 H 1.4363 0.2158 0.1436
Zn1C Zn 0.99585(5) 0.31173(2) -1.03111(4)
Zn2C Zn 1.77092(5) 0.07481(2) 0.15030(3)
Zn2_2 Zn 1.27092(5) 0.42519(2) -1.34970(3)
Zn2C_2 Zn 1.77092(5) 0.07481(2) -0.84970(3)
O9C O 1.6658(3) 0.15951(13) -0.5150(2)
O11_2 O 1.3731(3) 0.42216(14) -0.2344(2)
N1C N 1.1732(4) 0.49492(17) -0.3624(3)
N8C N 1.1572(4) 0.36177(18) -0.3784(3)
O2 O 0.9035(4) 0.47477(16) -0.9195(3)
O4 O 1.7075(6) 0.2756(4) -0.4056(4)
O6 O 1.2047(8) 0.3078(3) -0.7594(6)
C31? C 1.3253(7) 0.2693(3) -0.2185(4)
H26? H 1.2397 0.2793 -0.2364
H27? H 1.3741 0.3015 -0.2295
C33? C 1.335(3) 0.2631(19) -0.1111(15)
H30? H 1.3272 0.2981 -0.0812
H31? H 1.2718 0.2385 -0.0922
C35? C 1.4624(11) 0.2396(4) -0.0911(6)
H34? H 1.5050 0.2452 -0.1455
H35? H 1.4525 0.2005 -0.0846
C37? C 1.5580(7) 0.2599(3) -0.0030(5)
H38? H 1.6363 0.2716 -0.0235
H39? H 1.5224 0.2903 0.0280
loop_
_geom_bond_atom_site_label_1
_geom_bond_atom_site_label_2
_geom_bond_site_symmetry_1
_geom_bond_site_symmetry_2
Zn1 O5 1_555 1_555
Zn2 O1 1_555 1_555
O1 C1 1_555 1_555
O3 C1 1_555 1_555
O5 C8 1_555 1_555
O7 C8 1_555 1_555
O8 C5 1_555 1_555
O9 C15 1_555 1_555
O10 C15 1_555 1_555
O11 C16 1_555 1_555
O12 C16 1_555 1_555
N1 C17 1_555 1_555
N2 C17 1_555 1_555
N3 C23 1_555 1_555
N4 Zn1 1_555 1_555
N5 Zn1 1_555 1_555
N6 C27 1_555 1_555
N7 C36 1_555 1_555
N8 C38 1_555 1_555
C1 C2 1_555 1_555
C2 C3 1_555 1_555
C3 C4 1_555 1_555
C4 H1 1_555 1_555
C5 C4 1_555 1_555
C6 C5 1_555 1_555
H2 C6 1_555 1_555
C7 C2 1_555 1_555
H3 C7 1_555 1_555
C8 C3 1_555 1_555
C9 O8 1_555 1_555
C10 C9 1_555 1_555
H4 C10 1_555 1_555
C11 C10 1_555 1_555
C12 C11 1_555 1_555
C13 C12 1_555 1_555
H5 C13 1_555 1_555
C14 C9 1_555 1_555
H6 C14 1_555 1_555
C15 C11 1_555 1_555
C16 C12 1_555 1_555
C17 H7 1_555 1_555
C18 N2 1_555 1_555
H8 C18 1_555 1_555
C19 N1 1_555 1_555
H9 C19 1_555 1_555
C20 N2 1_555 1_555
H10 C20 1_555 1_555
H11 C20 1_555 1_555
C21 C20 1_555 1_555
H12 C21 1_555 1_555
H13 C21 1_555 1_555
C22 C21 1_555 1_555
H14 C22 1_555 1_555
H15 C22 1_555 1_555
C23 C22 1_555 1_555
H16 C23 1_555 1_555
H17 C23 1_555 1_555
C24 N3 1_555 1_555
H18 C24 1_555 1_555
C25 N4 1_555 1_555
H19 C25 1_555 1_555
C26 N3 1_555 1_555
H20 C26 1_555 1_555
C27 N5 1_555 1_555
H21 C27 1_555 1_555
C28 N6 1_555 1_555
H22 C28 1_555 1_555
C29 N5 1_555 1_555
H23 C29 1_555 1_555
C30 N6 1_555 1_555
H24 C30 1_555 1_555
H25 C30 1_555 1_555
C32 C30 1_555 1_555
H28 C32 1_555 1_555
H29 C32 1_555 1_555
C34 C32 1_555 1_555
H32 C34 1_555 1_555
H33 C34 1_555 1_555
C36 C34 1_555 1_555
H36 C36 1_555 1_555
H37 C36 1_555 1_555
C38 N7 1_555 1_555
H40 C38 1_555 1_555
C39 N8 1_555 1_555
H41 C39 1_555 1_555
C40 N7 1_555 1_555
H42 C40 1_555 1_555
Zn1C O9 1_555 1_555
Zn2C N8 1_555 1_555
Zn2_2 O11 1_555 1_555
Zn2C_2 N1 1_555 1_555
O9C Zn1 1_555 1_555
O11_2 Zn2 1_555 1_555
N1C Zn2 1_555 1_555
N8C Zn2 1_555 1_555
N4 C24 1_555 1_555
C6 C7 1_555 1_555
C13 C14 1_555 1_555
C18 C19 1_555 1_555
C25 C26 1_555 1_555
C28 C29 1_555 1_555
C39 C40 1_555 1_555

#END
