
#######################################################################
#
#                 Cambridge Crystallographic Data Centre
#                                CCDC 
#
#######################################################################
#
# If this CIF has been generated from an entry in the Cambridge 
# Structural Database, then it will include bibliographic, chemical, 
# crystal, experimental, refinement or atomic coordinate data resulting 
# from the CCDC's data processing and validation procedures.
#
#######################################################################

data_XIMWIA
_symmetry_cell_setting           monoclinic
_symmetry_space_group_name_H-M   'P 21/n'
_symmetry_Int_Tables_number      14
_space_group_name_Hall           '-P 2yn'
loop_
_symmetry_equiv_pos_site_id
_symmetry_equiv_pos_as_xyz
1 x,y,z
2 1/2-x,1/2+y,1/2-z
3 -x,-y,-z
4 1/2+x,1/2-y,1/2+z
_cell_length_a                   14.3155(16)
_cell_length_b                   13.1762(15)
_cell_length_c                   17.355(2)
_cell_angle_alpha                90
_cell_angle_beta                 91.976(2)
_cell_angle_gamma                90
_cell_volume                     3271.62
loop_
_atom_site_label
_atom_site_type_symbol
_atom_site_fract_x
_atom_site_fract_y
_atom_site_fract_z
Zn1 Zn 0.08518(3) -0.19943(3) 0.13960(2)
Zn2 Zn 0.01878(3) -0.57551(3) 0.21129(3)
N1 N 0.1295(2) -0.0521(2) 0.11610(17)
N2 N -0.0436(2) -0.1296(2) 0.11479(17)
N3 N -0.1011(2) -0.6679(3) 0.21033(19)
N4 N 0.0742(2) -0.7223(2) 0.24876(18)
O1 O 0.11027(18) -0.2096(2) 0.25303(15)
O2 O -0.02082(19) -0.2956(2) 0.23500(15)
O3 O 0.03958(18) -0.4899(2) 0.30268(16)
O4 O -0.1055(2) -0.4950(3) 0.3440(2)
O5 O 0.2715(2) 0.2588(2) 0.42136(19)
O6 O 0.3974(2) 0.1669(2) 0.41328(16)
O7 O 0.3686(2) -0.0419(3) 0.3469(2)
O8 O 0.4410(3) -0.0832(3) 0.4563(3)
O9 O 0.0930(2) -0.1426(2) 0.54466(15)
O10 O -0.0624(2) -0.4628(3) 0.1442(2)
C1 C 0.1624(3) -0.7510(3) 0.2584(2)
H1 H 0.2092 -0.7034 0.2511
C2 C 0.1882(3) -0.8497(4) 0.2790(2)
H2 H 0.2510 -0.8673 0.2850
C3 C 0.1210(4) -0.9194(4) 0.2902(2)
H3 H 0.1374 -0.9853 0.3043
C4 C 0.0261(4) -0.8929(3) 0.2806(2)
C5 C -0.0502(4) -0.9613(4) 0.2876(3)
H4 H -0.0384 -1.0281 0.3024
C6 C -0.1381(4) -0.9319(4) 0.2734(3)
H5 H -0.1863 -0.9779 0.2806
C7 C -0.1606(3) -0.8317(4) 0.2473(2)
C8 C -0.2506(3) -0.7999(4) 0.2245(3)
H6 H -0.3014 -0.8430 0.2301
C9 C -0.2635(3) -0.7053(4) 0.1940(3)
H7 H -0.3228 -0.6837 0.1779
C10 C -0.1866(3) -0.6416(4) 0.1873(3)
H8 H -0.1959 -0.5776 0.1656
C11 C -0.0874(3) -0.7618(3) 0.2399(2)
C12 C 0.0064(3) -0.7919(3) 0.2583(2)
C13 C -0.1288(3) -0.1681(4) 0.1174(2)
H9 H -0.1354 -0.2368 0.1281
C14 C -0.2093(3) -0.1098(4) 0.1047(3)
H10 H -0.2683 -0.1387 0.1083
C15 C -0.1997(3) -0.0090(4) 0.0867(2)
H11 H -0.2524 0.0308 0.0772
C16 C -0.1116(3) 0.0335(3) 0.0825(2)
C17 C -0.0948(4) 0.1388(4) 0.0650(2)
H12 H -0.1454 0.1813 0.0537
C18 C -0.0077(4) 0.1772(3) 0.0645(2)
H13 H 0.0008 0.2451 0.0521
C19 C 0.0718(4) 0.1152(3) 0.0827(2)
C20 C 0.1640(4) 0.1501(4) 0.0856(2)
H14 H 0.1765 0.2181 0.0760
C21 C 0.2353(4) 0.0853(4) 0.1022(3)
H15 H 0.2966 0.1086 0.1038
C22 C 0.2163(3) -0.0160(3) 0.1170(2)
H16 H 0.2658 -0.0600 0.1278
C23 C 0.0580(3) 0.0118(3) 0.0990(2)
C24 C -0.0346(3) -0.0296(3) 0.0988(2)
C25 C 0.0430(3) -0.2629(3) 0.2779(2)
C26 C 0.0392(2) -0.2801(3) 0.3634(2)
C27 C 0.0719(3) -0.2050(3) 0.4129(2)
H17 H 0.1002 -0.1475 0.3932
C28 C 0.0629(3) -0.2147(3) 0.4910(2)
C29 C 0.0180(3) -0.2980(3) 0.5209(2)
H18 H 0.0104 -0.3039 0.5737
C30 C -0.0155(3) -0.3725(3) 0.4708(2)
H19 H -0.0473 -0.4277 0.4905
C31 C -0.0029(2) -0.3671(3) 0.3927(2)
C32 C -0.0277(3) -0.4576(3) 0.3424(2)
C33 C 0.3131(3) 0.1779(3) 0.4312(2)
C34 C 0.2610(3) 0.0900(3) 0.4647(2)
C35 C 0.1773(3) 0.1095(3) 0.4990(2)
H20 H 0.1579 0.1764 0.5043
C36 C 0.1217(3) 0.0327(3) 0.5255(2)
H21 H 0.0648 0.0475 0.5471
C37 C 0.1511(3) -0.0657(3) 0.5196(2)
C38 C 0.2359(3) -0.0867(3) 0.4895(2)
H22 H 0.2572 -0.1534 0.4891
C39 C 0.2909(3) -0.0103(3) 0.4596(2)
C40 C 0.3754(3) -0.0468(3) 0.4189(3)
H23 H -0.049(4) -0.453(5) 0.0991(16)
H24 H -0.044(5) -0.413(4) 0.168(4)
Zn1A Zn 0.41482(3) 0.30057(3) 0.36040(2)
Zn2A Zn 0.48122(3) -0.07551(3) 0.28871(3)
O5A O 0.2285(2) -0.2412(2) 0.07864(19)
O6A O 0.1026(2) -0.3331(2) 0.08672(16)
O7A O 0.1314(2) -0.5419(3) 0.1531(2)
loop_
_geom_bond_atom_site_label_1
_geom_bond_atom_site_label_2
_geom_bond_site_symmetry_1
_geom_bond_site_symmetry_2
Zn1 N1 1_555 1_555
Zn2 N3 1_555 1_555
N1 C22 1_555 1_555
N2 Zn1 1_555 1_555
N3 C10 1_555 1_555
N4 Zn2 1_555 1_555
O1 Zn1 1_555 1_555
O2 C25 1_555 1_555
O3 Zn2 1_555 1_555
O4 C32 1_555 1_555
O5 C33 1_555 1_555
O6 C33 1_555 1_555
O7 C40 1_555 1_555
O8 C40 1_555 1_555
O9 C28 1_555 1_555
O10 Zn2 1_555 1_555
C1 N4 1_555 1_555
H1 C1 1_555 1_555
C2 C1 1_555 1_555
H2 C2 1_555 1_555
C3 C2 1_555 1_555
H3 C3 1_555 1_555
C4 C3 1_555 1_555
C5 C4 1_555 1_555
H4 C5 1_555 1_555
C6 C5 1_555 1_555
H5 C6 1_555 1_555
C7 C6 1_555 1_555
C8 C7 1_555 1_555
H6 C8 1_555 1_555
C9 C8 1_555 1_555
H7 C9 1_555 1_555
C10 C9 1_555 1_555
H8 C10 1_555 1_555
C11 N3 1_555 1_555
C12 N4 1_555 1_555
C13 N2 1_555 1_555
H9 C13 1_555 1_555
C14 C13 1_555 1_555
H10 C14 1_555 1_555
C15 C14 1_555 1_555
H11 C15 1_555 1_555
C16 C15 1_555 1_555
C17 C16 1_555 1_555
H12 C17 1_555 1_555
C18 C17 1_555 1_555
H13 C18 1_555 1_555
C19 C18 1_555 1_555
C20 C19 1_555 1_555
H14 C20 1_555 1_555
C21 C20 1_555 1_555
H15 C21 1_555 1_555
C22 C21 1_555 1_555
H16 C22 1_555 1_555
C23 N1 1_555 1_555
C24 N2 1_555 1_555
C25 O1 1_555 1_555
C26 C25 1_555 1_555
C27 C26 1_555 1_555
H17 C27 1_555 1_555
C28 C27 1_555 1_555
C29 C28 1_555 1_555
H18 C29 1_555 1_555
C30 C29 1_555 1_555
H19 C30 1_555 1_555
C31 C26 1_555 1_555
C32 O3 1_555 1_555
C33 C34 1_555 1_555
C34 C35 1_555 1_555
C35 H20 1_555 1_555
C36 C35 1_555 1_555
H21 C36 1_555 1_555
C37 O9 1_555 1_555
C38 C37 1_555 1_555
H22 C38 1_555 1_555
C39 C34 1_555 1_555
C40 C39 1_555 1_555
H23 O10 1_555 1_555
H24 O10 1_555 1_555
Zn1A O5 1_555 1_555
Zn2A O7 1_555 1_555
O5A Zn1 1_555 1_555
O6A Zn1 1_555 1_555
O7A Zn2 1_555 1_555
O6 Zn1A 1_555 1_555
C4 C12 1_555 1_555
C7 C11 1_555 1_555
C11 C12 1_555 1_555
C16 C24 1_555 1_555
C19 C23 1_555 1_555
C23 C24 1_555 1_555
C30 C31 1_555 1_555
C31 C32 1_555 1_555
C36 C37 1_555 1_555
C38 C39 1_555 1_555

#END
