
#######################################################################
#
#                 Cambridge Crystallographic Data Centre
#                                CCDC 
#
#######################################################################
#
# If this CIF has been generated from an entry in the Cambridge 
# Structural Database, then it will include bibliographic, chemical, 
# crystal, experimental, refinement or atomic coordinate data resulting 
# from the CCDC's data processing and validation procedures.
#
#######################################################################

data_XIMWOG
_symmetry_cell_setting           monoclinic
_symmetry_space_group_name_H-M   'C c'
_symmetry_Int_Tables_number      9
_space_group_name_Hall           'C -2yc'
loop_
_symmetry_equiv_pos_site_id
_symmetry_equiv_pos_as_xyz
1 x,y,z
2 x,-y,1/2+z
3 1/2+x,1/2+y,z
4 1/2+x,1/2-y,1/2+z
_cell_length_a                   14.3048(14)
_cell_length_b                   23.8232(14)
_cell_length_c                   14.5836(10)
_cell_angle_alpha                90
_cell_angle_beta                 100.253(2)
_cell_angle_gamma                90
_cell_volume                     4890.53
loop_
_atom_site_label
_atom_site_type_symbol
_atom_site_fract_x
_atom_site_fract_y
_atom_site_fract_z
Zn1 Zn 0.78172(4) 0.42112(3) 0.66948(4)
Zn2 Zn 0.67257(4) 0.43507(2) 0.42995(4)
Zn3 Zn 1.05610(4) 0.35308(3) 0.83038(4)
Zn4 Zn 0.41368(4) 0.39254(3) 0.27673(4)
N1 N 0.3544(4) 0.4680(2) 0.2346(4)
N2 N 0.2834(4) 0.3657(2) 0.2063(4)
N3 N 1.1034(3) 0.4356(2) 0.8594(4)
N4 N 1.1953(4) 0.3402(2) 0.8980(3)
O1 O 0.4421(3) 0.32596(19) 0.3788(3)
O2 O 0.3988(3) 0.40729(19) 0.4208(3)
O3 O 0.5954(3) 0.40062(17) 0.5157(3)
O4 O 0.6724(3) 0.37276(17) 0.6542(3)
O5 O 0.2748(3) 0.26439(16) 0.6681(4)
O6 O 0.2916(3) 0.00043(17) 0.6688(4)
O7 O 0.0838(3) 0.08721(18) 0.8155(3)
O8 O 0.0057(3) 0.12900(19) 0.6931(3)
O9 O 0.1406(3) 0.01074(19) 0.6782(4)
O10 O 0.8748(3) 0.39488(18) 0.7765(3)
O11 O 0.9498(3) 0.35767(17) 0.9051(3)
O12 O 0.8139(3) 0.47528(19) 0.9114(4)
O13 O 0.6659(3) 0.48572(16) 0.9349(3)
O14 O 0.6677(3) 0.22293(16) 0.8893(3)
O15 O 0.5533(3) 0.14560(16) 1.1944(3)
O16 O 0.4402(3) 0.2101(2) 1.1558(3)
O17 O 0.3582(3) 0.09891(18) 1.0737(3)
O18 O 0.2789(3) 0.11455(17) 0.9304(3)
O19 O 1.0330(3) 0.26390(18) 0.8207(3)
H1 H 0.9766 0.2563 0.7761
H2 H 1.0254 0.2497 0.8806
C1 C 0.6010(4) 0.3749(2) 0.5907(4)
C2 C 0.5148(4) 0.3435(2) 0.6076(4)
C3 C 0.5148(4) 0.3205(2) 0.6949(4)
H7 H 0.5691 0.3235 0.7405
C4 C 0.4354(4) 0.2932(3) 0.7156(4)
H8 H 0.4350 0.2791 0.7749
C5 C 0.3582(4) 0.2876(2) 0.6470(4)
C6 C 0.3555(4) 0.3092(2) 0.5595(4)
H9 H 0.3012 0.3052 0.5143
C7 C 0.4348(4) 0.3372(2) 0.5386(4)
C8 C 0.4267(4) 0.3591(2) 0.4412(4)
C9 C 0.0836(4) 0.1126(2) 0.7402(4)
C10 C 0.1720(4) 0.1294(2) 0.7051(4)
C11 C 0.1874(4) 0.1868(2) 0.7023(4)
H10 H 0.1452 0.2117 0.7223
C12 C 0.2668(4) 0.2067(2) 0.6689(4)
C13 C 0.3287(4) 0.1707(2) 0.6387(4)
H11 H 0.3806 0.1844 0.6151
C14 C 0.3134(4) 0.1132(2) 0.6434(4)
H12 H 0.3563 0.0885 0.6241
C15 C 0.2184(4) 0.0298(2) 0.6743(4)
C16 C 0.2348(4) 0.0920(2) 0.6764(4)
C17 C 0.8740(4) 0.3733(2) 0.8542(4)
C18 C 0.7827(4) 0.3576(2) 0.8848(3)
C19 C 0.7648(4) 0.3003(2) 0.8803(4)
H13 H 0.8087 0.2757 0.8623
C20 C 0.6807(4) 0.2801(2) 0.9029(4)
C21 C 0.6159(4) 0.3159(2) 0.9314(4)
H14 H 0.5599 0.3022 0.9471
C22 C 0.6353(4) 0.3724(2) 0.9363(4)
H15 H 0.5923 0.3966 0.9567
C23 C 0.7175(4) 0.3946(2) 0.9116(4)
C24 C 0.7359(4) 0.4563(2) 0.9193(4)
C25 C 0.3500(4) 0.1179(2) 0.9942(4)
C26 C 0.4348(4) 0.1469(2) 0.9677(4)
C27 C 0.4426(4) 0.1506(2) 0.8751(4)
H16 H 0.3953 0.1354 0.8300
C28 C 0.5194(4) 0.1767(2) 0.8483(4)
H17 H 0.5241 0.1797 0.7857
C29 C 0.5892(4) 0.1982(2) 0.9167(4)
C30 C 0.5837(4) 0.1945(2) 1.0099(4)
H18 H 0.6321 0.2091 1.0547
C31 C 0.5060(4) 0.1691(2) 1.0365(4)
C32 C 0.4966(4) 0.1746(2) 1.1369(4)
C33 C 0.2557(6) 0.3131(4) 0.1895(5)
H19 H 0.2973 0.2844 0.2124
C34 C 0.1675(6) 0.2991(5) 0.1391(6)
H20 H 0.1499 0.2618 0.1284
C35 C 0.1085(6) 0.3405(6) 0.1064(6)
H21 H 0.0489 0.3321 0.0723
C36 C 0.1344(6) 0.3949(5) 0.1221(5)
H22 H 0.0924 0.4235 0.0995
C37 C 0.2250(4) 0.4079(3) 0.1725(4)
C38 C 0.2628(5) 0.4649(3) 0.1897(5)
C39 C 0.2107(7) 0.5126(4) 0.1640(6)
H23 H 0.1481 0.5100 0.1330
C40 C 0.2516(8) 0.5637(4) 0.1841(7)
H24 H 0.2169 0.5964 0.1682
C41 C 0.3447(9) 0.5667(4) 0.2282(8)
H25 H 0.3739 0.6014 0.2411
C42 C 0.3944(6) 0.5176(3) 0.2530(6)
H26 H 0.4572 0.5196 0.2833
C43 C 1.0529(5) 0.4815(3) 0.8342(6)
H27 H 0.9909 0.4779 0.8020
C44 C 1.0896(6) 0.5342(3) 0.8546(7)
H28 H 1.0529 0.5659 0.8369
C45 C 1.1811(6) 0.5394(3) 0.9014(6)
H29 H 1.2071 0.5748 0.9152
C46 C 1.2344(5) 0.4925(3) 0.9280(5)
H30 H 1.2963 0.4954 0.9606
C47 C 1.1929(4) 0.4399(3) 0.9049(4)
C48 C 1.2433(4) 0.3865(3) 0.9284(4)
C49 C 1.3350(5) 0.3834(3) 0.9806(5)
H31 H 1.3680 0.4160 1.0010
C50 C 1.3754(5) 0.3325(3) 1.0012(5)
H32 H 1.4353 0.3298 1.0381
C51 C 1.3274(6) 0.2853(4) 0.9676(5)
H33 H 1.3552 0.2502 0.9792
C52 C 1.2370(5) 0.2903(3) 0.9160(5)
H34 H 1.2043 0.2580 0.8933
Zn1B Zn 0.28172(4) -0.07888(3) 0.66948(4)
Zn1C Zn 0.28172(4) 0.07888(3) 1.16948(4)
Zn2C Zn 0.17257(4) 0.06493(2) 0.92995(4)
Zn2A Zn 0.67257(4) 0.56493(2) 0.92995(4)
Zn3C Zn 0.55610(4) 0.14692(3) 1.33038(4)
Zn4C Zn -0.08632(4) 0.10746(3) 0.77673(4)
O6B O 0.7916(3) 0.50043(17) 0.6688(4)
O7C O 0.5838(3) 0.41279(18) 0.3155(3)
O8C O 0.5057(3) 0.37100(19) 0.1931(3)
O13A O 0.6659(3) 0.51428(16) 0.4349(3)
O15C O 1.0533(3) 0.35440(16) 0.6944(3)
O17C O 0.8582(3) 0.40109(18) 0.5737(3)
O18C O 0.7789(3) 0.38545(17) 0.4304(3)
O20 O 0.9638(4) 1.0063(3) 0.5445(5)
H3 H 1.0164 1.0082 0.5822
H4 H 0.9476 0.9720 0.5381
O21 O 0.9763(5) 0.4923(4) 0.0541(6)
H5 H 0.929(6) 0.486(5) 0.013(6)
H6 H 0.955(8) 0.510(5) 0.095(6)
loop_
_geom_bond_atom_site_label_1
_geom_bond_atom_site_label_2
_geom_bond_site_symmetry_1
_geom_bond_site_symmetry_2
Zn1 O4 1_555 1_555
Zn2 O3 1_555 1_555
Zn3 N3 1_555 1_555
Zn4 N1 1_555 1_555
N1 C38 1_555 1_555
N2 Zn4 1_555 1_555
N3 C43 1_555 1_555
N4 Zn3 1_555 1_555
O1 Zn4 1_555 1_555
O2 Zn4 1_555 1_555
O3 C1 1_555 1_555
O4 C1 1_555 1_555
O5 C5 1_555 1_555
O6 C15 1_555 1_555
O7 C9 1_555 1_555
O8 C9 1_555 1_555
O9 C15 1_555 1_555
O10 Zn1 1_555 1_555
O11 Zn3 1_555 1_555
O12 C24 1_555 1_555
O13 C24 1_555 1_555
O14 C20 1_555 1_555
O15 C32 1_555 1_555
O16 C32 1_555 1_555
O17 C25 1_555 1_555
O18 C25 1_555 1_555
O19 Zn3 1_555 1_555
H1 O19 1_555 1_555
H2 O19 1_555 1_555
O20 H3 1_555 1_555
H4 O20 1_555 1_555
O21 H5 1_555 1_555
H6 O21 1_555 1_555
C1 C2 1_555 1_555
C2 C3 1_555 1_555
C3 H7 1_555 1_555
C4 C3 1_555 1_555
H8 C4 1_555 1_555
C5 C4 1_555 1_555
C6 C5 1_555 1_555
H9 C6 1_555 1_555
C7 C2 1_555 1_555
C8 O1 1_555 1_555
C9 C10 1_555 1_555
C10 C11 1_555 1_555
C11 H10 1_555 1_555
C12 O5 1_555 1_555
C13 C12 1_555 1_555
H11 C13 1_555 1_555
C14 C13 1_555 1_555
H12 C14 1_555 1_555
C15 C16 1_555 1_555
C16 C10 1_555 1_555
C17 O10 1_555 1_555
C18 C17 1_555 1_555
C19 C18 1_555 1_555
H13 C19 1_555 1_555
C20 C19 1_555 1_555
C21 C20 1_555 1_555
H14 C21 1_555 1_555
C22 C21 1_555 1_555
H15 C22 1_555 1_555
C23 C18 1_555 1_555
C24 C23 1_555 1_555
C25 C26 1_555 1_555
C26 C27 1_555 1_555
C27 H16 1_555 1_555
C28 C27 1_555 1_555
H17 C28 1_555 1_555
C29 O14 1_555 1_555
C30 C29 1_555 1_555
H18 C30 1_555 1_555
C31 C26 1_555 1_555
C32 C31 1_555 1_555
C33 N2 1_555 1_555
H19 C33 1_555 1_555
C34 C33 1_555 1_555
H20 C34 1_555 1_555
C35 C34 1_555 1_555
H21 C35 1_555 1_555
C36 C35 1_555 1_555
H22 C36 1_555 1_555
C37 N2 1_555 1_555
C38 C37 1_555 1_555
C39 C38 1_555 1_555
H23 C39 1_555 1_555
C40 C39 1_555 1_555
H24 C40 1_555 1_555
C41 C40 1_555 1_555
H25 C41 1_555 1_555
C42 N1 1_555 1_555
H26 C42 1_555 1_555
C43 H27 1_555 1_555
C44 C43 1_555 1_555
H28 C44 1_555 1_555
C45 C44 1_555 1_555
H29 C45 1_555 1_555
C46 C45 1_555 1_555
H30 C46 1_555 1_555
C47 N3 1_555 1_555
C48 N4 1_555 1_555
C49 C48 1_555 1_555
H31 C49 1_555 1_555
C50 C49 1_555 1_555
H32 C50 1_555 1_555
C51 C50 1_555 1_555
H33 C51 1_555 1_555
C52 N4 1_555 1_555
H34 C52 1_555 1_555
Zn1B O6 1_555 1_555
Zn1C O17 1_555 1_555
Zn2C O7 1_555 1_555
Zn2A O13 1_555 1_555
Zn3C O15 1_555 1_555
Zn4C O7 1_555 1_555
O6B Zn1 1_555 1_555
O7C Zn2 1_555 1_555
O8C Zn4 1_555 1_555
O13A Zn2 1_555 1_555
O15C Zn3 1_555 1_555
O17C Zn1 1_555 1_555
O18C Zn2 1_555 1_555
Zn4 O7C 1_555 1_555
O2 C8 1_555 1_555
O8 Zn4C 1_555 1_555
O11 C17 1_555 1_555
O18 Zn2C 1_555 1_555
C6 C7 1_555 1_555
C7 C8 1_555 1_555
C11 C12 1_555 1_555
C14 C16 1_555 1_555
C22 C23 1_555 1_555
C28 C29 1_555 1_555
C30 C31 1_555 1_555
C36 C37 1_555 1_555
C41 C42 1_555 1_555
C46 C47 1_555 1_555
C47 C48 1_555 1_555
C51 C52 1_555 1_555

#END
