
#######################################################################
#
#                 Cambridge Crystallographic Data Centre
#                                CCDC 
#
#######################################################################
#
# If this CIF has been generated from an entry in the Cambridge 
# Structural Database, then it will include bibliographic, chemical, 
# crystal, experimental, refinement or atomic coordinate data resulting 
# from the CCDC's data processing and validation procedures.
#
#######################################################################

data_XINDUV
_symmetry_cell_setting           monoclinic
_symmetry_space_group_name_H-M   'P 21'
_symmetry_Int_Tables_number      4
_space_group_name_Hall           'P 2yb'
loop_
_symmetry_equiv_pos_site_id
_symmetry_equiv_pos_as_xyz
1 x,y,z
2 -x,1/2+y,-z
_cell_length_a                   4.1559(5)
_cell_length_b                   21.490(2)
_cell_length_c                   6.7549(8)
_cell_angle_alpha                90
_cell_angle_beta                 94.478(12)
_cell_angle_gamma                90
_cell_volume                     601.44
loop_
_atom_site_label
_atom_site_type_symbol
_atom_site_fract_x
_atom_site_fract_y
_atom_site_fract_z
Ag1 Ag -0.0144(3) 0.05025(5) 0.9054(2)
Ag2 Ag 0.6216(3) 0.08430(4) 0.41862(18)
Cl1 Cl 0.8831(6) 0.18662(13) 0.5449(3)
S1 S 0.1531(6) 0.02970(13) 0.5544(4)
S2 S -0.4998(7) 0.10534(13) 1.0471(4)
Cl2 Cl -0.2709(7) -0.05125(12) 1.0120(4)
C1 C 0.196(2) -0.0492(5) 0.5245(13)
C2 C -0.592(2) 0.1826(6) 1.0387(12)
N1 N -0.752(2) 0.2145(4) 1.1673(10)
H1 H -0.8232 0.1986 1.2721
N2 N 0.344(2) -0.0774(4) 0.3833(11)
H2 H 0.4365 -0.0582 0.2916
N3 N -0.521(2) 0.2260(4) 0.8994(10)
H3 H -0.4154 0.2188 0.7973
N4 N 0.092(2) -0.0947(4) 0.6368(11)
H4 H -0.0110 -0.0898 0.7415
C3 C -0.790(2) 0.2767(4) 1.1135(13)
H5 H -0.8953 0.3078 1.1788
N5 N 0.332(2) -0.1405(5) 0.4001(12)
C4 C 0.173(3) -0.1501(5) 0.5589(15)
H6 H 0.1250 -0.1890 0.6097
N6 N -0.642(3) 0.2811(5) 0.9469(16)
Ag1_2 Ag -1.0144(3) 0.05025(5) 0.9054(2)
Ag2_2 Ag -0.3784(3) 0.08430(4) 0.41862(18)
Ag2_3 Ag -0.3784(3) 0.08430(4) 1.41862(18)
S1_2 S 1.1531(6) 0.02970(13) 0.5544(4)
S2_2 S 0.5002(7) 0.10534(13) 0.0471(4)
S2_3 S 0.5002(7) 0.10534(13) 1.0471(4)
loop_
_geom_bond_atom_site_label_1
_geom_bond_atom_site_label_2
_geom_bond_site_symmetry_1
_geom_bond_site_symmetry_2
Ag1 S1 1_555 1_555
Ag2 Cl1 1_555 1_555
S1 Ag2 1_555 1_555
S2 Ag1 1_555 1_555
Cl2 Ag1 1_555 1_555
C1 S1 1_555 1_555
C2 S2 1_555 1_555
N1 C2 1_555 1_555
H1 N1 1_555 1_555
N2 C1 1_555 1_555
H2 N2 1_555 1_555
N3 C2 1_555 1_555
H3 N3 1_555 1_555
N4 C1 1_555 1_555
H4 N4 1_555 1_555
C3 N1 1_555 1_555
H5 C3 1_555 1_555
N5 N2 1_555 1_555
C4 N4 1_555 1_555
H6 C4 1_555 1_555
N6 N3 1_555 1_555
Ag1_2 S2 1_555 1_555
Ag2_2 S1 1_555 1_555
Ag2_3 S2 1_555 1_555
S1_2 Ag2 1_555 1_555
S2_2 Ag2 1_555 1_555
S2_3 Ag1 1_555 1_555
C3 N6 1_555 1_555
N5 C4 1_555 1_555

#END
