
#######################################################################
#
#                 Cambridge Crystallographic Data Centre
#                                CCDC 
#
#######################################################################
#
# If this CIF has been generated from an entry in the Cambridge 
# Structural Database, then it will include bibliographic, chemical, 
# crystal, experimental, refinement or atomic coordinate data resulting 
# from the CCDC's data processing and validation procedures.
#
#######################################################################

data_XINFUW
_symmetry_cell_setting           orthorhombic
_symmetry_space_group_name_H-M   'P 21 21 21'
_symmetry_Int_Tables_number      19
_space_group_name_Hall           'P 2ac 2ab'
loop_
_symmetry_equiv_pos_site_id
_symmetry_equiv_pos_as_xyz
1 x,y,z
2 1/2-x,-y,1/2+z
3 -x,1/2+y,1/2-z
4 1/2+x,1/2-y,-z
_cell_length_a                   12.6977(16)
_cell_length_b                   15.1033(19)
_cell_length_c                   18.903(2)
_cell_angle_alpha                90
_cell_angle_beta                 90
_cell_angle_gamma                90
_cell_volume                     3625.16
loop_
_atom_site_label
_atom_site_type_symbol
_atom_site_fract_x
_atom_site_fract_y
_atom_site_fract_z
Zn1 Zn 0.80121(2) 0.951718(19) 0.774252(15)
Zn2 Zn 0.87233(2) 0.808768(18) 0.618006(15)
O1 O 0.72165(15) 0.96438(13) 0.67906(10)
O2 O 0.73029(15) 0.85078(14) 0.60298(11)
O3 O 0.43398(16) 0.75882(13) 0.45987(11)
O4 O 0.2872(2) 0.83783(18) 0.46024(15)
O5 O 0.78776(15) 0.81341(12) 0.77669(11)
O6 O 0.88984(16) 0.73610(13) 0.70198(10)
O7 O 1.04646(14) 0.45223(13) 0.77187(10)
O8 O 1.03103(15) 0.41046(12) 0.88471(11)
O9 O 0.65832(17) 0.97149(15) 0.82577(12)
C1 C 0.6828(2) 0.91245(17) 0.63435(13)
C2 C 0.5688(2) 0.92355(16) 0.61357(14)
C3 C 0.5060(2) 0.98685(19) 0.64624(16)
H1 H 0.5340 1.0235 0.6810
C4 C 0.4005(2) 0.9951(2) 0.62646(17)
H2 H 0.3578 1.0367 0.6486
C5 C 0.3591(2) 0.9414(2) 0.57402(16)
H3 H 0.2891 0.9479 0.5605
C6 C 0.4215(2) 0.87781(18) 0.54141(14)
C7 C 0.5264(2) 0.86857(16) 0.56151(13)
H4 H 0.5683 0.8257 0.5402
C8 C 0.3755(2) 0.82152(17) 0.48283(14)
C9 C 0.8443(2) 0.74852(17) 0.76063(13)
C10 C 0.8201(2) 0.68621(17) 0.88299(14)
H5 H 0.7806 0.7361 0.8944
C11 C 0.8373(2) 0.62145(19) 0.93359(15)
H6 H 0.8087 0.6274 0.9786
C12 C 0.8976(2) 0.54758(19) 0.91671(14)
H7 H 0.9098 0.5043 0.9507
C13 C 0.93968(19) 0.53797(16) 0.84926(14)
C14 C 0.9213(2) 0.60255(17) 0.79826(13)
H8 H 0.9488 0.5960 0.7530
C15 C 0.8615(2) 0.67721(16) 0.81512(13)
C16 C 1.01154(19) 0.46074(17) 0.83283(14)
S1 S 0.86412(6) 1.13643(5) 0.84892(4)
C17 C 0.7669(3) 1.1364(3) 0.91704(18)
H9 H 0.7015 1.1581 0.8984
H10 H 0.7895 1.1739 0.9551
H11 H 0.7573 1.0771 0.9343
C18 C 0.8577(3) 1.2514(2) 0.8286(2)
H12 H 0.9033 1.2641 0.7894
H13 H 0.8797 1.2852 0.8691
H14 H 0.7867 1.2670 0.8165
O10 O 0.81343(17) 1.09171(13) 0.78591(10)
S2 S 0.97386(6) 0.88604(5) 0.88561(4)
C19 C 0.9723(4) 0.8674(3) 0.9782(2)
H15 H 0.9684 0.9232 1.0025
H16 H 1.0355 0.8371 0.9919
H17 H 0.9122 0.8320 0.9903
C20 C 1.0851(3) 0.9568(3) 0.8807(3)
H18 H 1.0940 0.9769 0.8329
H19 H 1.1468 0.9249 0.8954
H20 H 1.0747 1.0068 0.9113
O11 O 0.87788(17) 0.94351(14) 0.87288(10)
H45 H 0.614(3) 0.938(3) 0.839(2)
H46 H 0.629(3) 1.025(3) 0.827(2)
Zn1B Zn 1.19879(2) 0.451718(19) 0.725748(15)
Zn2C Zn 0.37233(2) 0.691232(18) 0.381994(15)
Zn2B Zn 1.12767(2) 0.308768(18) 0.881994(15)
O3C O 0.93398(16) 0.74118(13) 0.54013(11)
O7B O 0.95354(14) 0.95223(13) 0.72813(10)
O8B O 0.96897(15) 0.91046(12) 0.61529(11)
S3 S 0.44098(6) 0.80539(6) 0.86140(5)
C21 C 0.5515(3) 0.7357(2) 0.8463(2)
H21 H 0.5967 0.7624 0.8116
H22 H 0.5279 0.6791 0.8294
H23 H 0.5897 0.7279 0.8897
C22 C 0.4001(4) 0.8146(3) 0.7720(3)
H24 H 0.3348 0.8466 0.7698
H25 H 0.3904 0.7566 0.7524
H26 H 0.4528 0.8457 0.7454
O12 O 0.4839(2) 0.89425(17) 0.88211(17)
S4 S 0.12848(12) 0.67315(9) 0.94851(8)
C23 C 0.1695(3) 0.5749(3) 0.9850(2)
H27 H 0.1441 0.5706 1.0327
H28 H 0.2451 0.5726 0.9850
H29 H 0.1423 0.5264 0.9577
C24 C 0.1807(6) 0.6704(4) 0.8654(2)
H33 H 0.1611 0.7232 0.8403
H34 H 0.1542 0.6195 0.8406
H35 H 0.2560 0.6668 0.8684
O13 O 0.1841(3) 0.7472(2) 0.98814(16)
S6 S 0.44301(6) 0.15418(5) 0.84313(4)
C25 C 0.3357(3) 0.0867(3) 0.8176(2)
H39 H 0.3210 0.0957 0.7683
H40 H 0.2747 0.1022 0.8450
H41 H 0.3530 0.0257 0.8256
C26 C 0.5374(2) 0.12210(17) 0.80188(13)
H42 H 0.6000 0.1304 0.8296
H43 H 0.5432 0.1551 0.7587
H44 H 0.5291 0.0604 0.7912
O14 O 0.4579(3) 0.1123(3) 0.93102(17)
S5? S 0.22822(16) 0.67425(15) 0.94695(12)
H30? H 0.1914 0.5690 1.0334
H31? H 0.1921 0.5239 0.9587
H32? H 0.0941 0.5794 0.9829
H36? H 0.2061 0.7203 0.8390
H37? H 0.1051 0.6720 0.8670
H38? H 0.2032 0.6166 0.8429
loop_
_geom_bond_atom_site_label_1
_geom_bond_atom_site_label_2
_geom_bond_site_symmetry_1
_geom_bond_site_symmetry_2
Zn1 O1 1_555 1_555
Zn2 O2 1_555 1_555
O1 C1 1_555 1_555
O2 C1 1_555 1_555
O3 C8 1_555 1_555
O4 C8 1_555 1_555
O5 Zn1 1_555 1_555
O6 Zn2 1_555 1_555
O7 C16 1_555 1_555
O8 C16 1_555 1_555
O9 Zn1 1_555 1_555
C1 C2 1_555 1_555
C2 C3 1_555 1_555
C3 H1 1_555 1_555
C4 C3 1_555 1_555
H2 C4 1_555 1_555
C5 C4 1_555 1_555
H3 C5 1_555 1_555
C6 C5 1_555 1_555
C7 C2 1_555 1_555
H4 C7 1_555 1_555
C8 C6 1_555 1_555
C9 O5 1_555 1_555
C10 H5 1_555 1_555
C11 C10 1_555 1_555
H6 C11 1_555 1_555
C12 C11 1_555 1_555
H7 C12 1_555 1_555
C13 C12 1_555 1_555
C14 C13 1_555 1_555
H8 C14 1_555 1_555
C15 C9 1_555 1_555
C16 C13 1_555 1_555
S1 C17 1_555 1_555
C17 H9 1_555 1_555
H10 C17 1_555 1_555
H11 C17 1_555 1_555
C18 S1 1_555 1_555
H12 C18 1_555 1_555
H13 C18 1_555 1_555
H14 C18 1_555 1_555
O10 Zn1 1_555 1_555
S2 C19 1_555 1_555
C19 H15 1_555 1_555
H16 C19 1_555 1_555
H17 C19 1_555 1_555
C20 S2 1_555 1_555
H18 C20 1_555 1_555
H19 C20 1_555 1_555
H20 C20 1_555 1_555
O11 Zn1 1_555 1_555
S3 C21 1_555 1_555
C21 H21 1_555 1_555
H22 C21 1_555 1_555
H23 C21 1_555 1_555
C22 S3 1_555 1_555
H24 C22 1_555 1_555
H25 C22 1_555 1_555
H26 C22 1_555 1_555
O12 S3 1_555 1_555
S4 C23 1_555 1_555
C23 H27 1_555 1_555
H28 C23 1_555 1_555
H29 C23 1_555 1_555
C24 S4 1_555 1_555
H33 C24 1_555 1_555
H34 C24 1_555 1_555
H35 C24 1_555 1_555
O13 S4 1_555 1_555
S6 C25 1_555 1_555
C25 H39 1_555 1_555
H40 C25 1_555 1_555
H41 C25 1_555 1_555
C26 S6 1_555 1_555
H42 C26 1_555 1_555
H43 C26 1_555 1_555
H44 C26 1_555 1_555
O14 S6 1_555 1_555
H45 O9 1_555 1_555
H46 O9 1_555 1_555
Zn1B O7 1_555 1_555
Zn2C O3 1_555 1_555
Zn2B O8 1_555 1_555
O3C Zn2 1_555 1_555
O7B Zn1 1_555 1_555
O8B Zn2 1_555 1_555
O6 C9 1_555 1_555
C6 C7 1_555 1_555
C10 C15 1_555 1_555
C14 C15 1_555 1_555
S1 O10 1_555 1_555
S2 O11 1_555 1_555

#END
