
#######################################################################
#
#                 Cambridge Crystallographic Data Centre
#                                CCDC 
#
#######################################################################
#
# If this CIF has been generated from an entry in the Cambridge 
# Structural Database, then it will include bibliographic, chemical, 
# crystal, experimental, refinement or atomic coordinate data resulting 
# from the CCDC's data processing and validation procedures.
#
#######################################################################

data_XINHEJ
_symmetry_cell_setting           monoclinic
_symmetry_space_group_name_H-M   'P 21/n'
_symmetry_Int_Tables_number      14
_space_group_name_Hall           '-P 2yn'
loop_
_symmetry_equiv_pos_site_id
_symmetry_equiv_pos_as_xyz
1 x,y,z
2 1/2-x,1/2+y,1/2-z
3 -x,-y,-z
4 1/2+x,1/2-y,1/2+z
_cell_length_a                   10.3549(5)
_cell_length_b                   15.5131(8)
_cell_length_c                   10.9767(5)
_cell_angle_alpha                90
_cell_angle_beta                 90.675(4)
_cell_angle_gamma                90
_cell_volume                     1763.14
loop_
_atom_site_label
_atom_site_type_symbol
_atom_site_fract_x
_atom_site_fract_y
_atom_site_fract_z
Mg1 Mg 0.61133(5) 0.00831(3) 0.59678(5)
O1 O 0.48989(15) 0.09905(10) 0.65907(14)
O2 O 0.33542(15) 0.08589(9) 0.51786(13)
O3 O -0.00294(16) 0.41844(10) 0.81878(16)
O4 O 0.15155(17) 0.40992(10) 0.96042(15)
O5 O 0.75828(13) 0.01696(10) 0.70537(13)
N1 N 0.97608(19) 0.03515(17) 0.6968(2)
N2 N 0.9003(2) -0.05834(16) 0.8239(2)
C1 C 0.3859(2) 0.12184(12) 0.60859(18)
C2 C 0.1023(2) 0.38996(12) 0.8598(2)
C3 C 0.31525(17) 0.19618(11) 0.66520(16)
C4 C 0.31711(19) 0.20177(13) 0.78915(17)
H1 H 0.3654 0.1624 0.8345
C5 C 0.2474(2) 0.26587(13) 0.84888(17)
H2 H 0.2499 0.2682 0.9335
C6 C 0.17596(17) 0.32495(11) 0.78606(17)
C7 C 0.17554(16) 0.32411(11) 0.65607(16)
C8 C 0.24678(16) 0.25863(11) 0.59500(15)
C9 C 0.2514(2) 0.26096(13) 0.46565(18)
H3 H 0.2969 0.2185 0.4244
C10 C 0.1910(3) 0.32369(16) 0.4016(2)
H4 H 0.1955 0.3240 0.3170
C11 C 0.1218(3) 0.38807(16) 0.4609(2)
H5 H 0.0809 0.4310 0.4156
C12 C 0.1139(2) 0.38858(13) 0.5843(2)
H6 H 0.0673 0.4319 0.6225
C13 C 0.9774(3) 0.1079(3) 0.6155(4)
H7 H 0.8924 0.1167 0.5820
H8 H 1.0367 0.0970 0.5507
H9 H 1.0041 0.1584 0.6594
C14 C 0.86921(19) -0.00105(13) 0.7384(2)
C15 C 0.8090(4) -0.1205(2) 0.8688(3)
H10 H 0.7227 -0.1001 0.8539
H11 H 0.8224 -0.1283 0.9548
H12 H 0.8210 -0.1745 0.8277
C16 C 1.0379(3) -0.0695(3) 0.8329(4)
H13 H 1.0642 -0.1240 0.7976
H14 H 1.0673 -0.0671 0.9171
C17 C 1.0893(3) 0.0051(3) 0.7613(4)
H15 H 1.1242 0.0494 0.8146
H16 H 1.1556 -0.0133 0.7054
Mg1A Mg -0.11133(5) 0.50831(3) 0.90322(5)
Mg1B Mg 0.38867(5) -0.00831(3) 0.40322(5)
Mg1C Mg 0.11133(5) 0.49169(3) 1.09678(5)
O2B O 0.66458(15) -0.08589(9) 0.48214(13)
O3A O 0.50294(16) -0.08156(10) 0.68122(16)
O4C O 0.65155(17) 0.09008(10) 0.46042(15)
loop_
_geom_bond_atom_site_label_1
_geom_bond_atom_site_label_2
_geom_bond_site_symmetry_1
_geom_bond_site_symmetry_2
Mg1 O1 1_555 1_555
O1 C1 1_555 1_555
O2 C1 1_555 1_555
O3 C2 1_555 1_555
O4 C2 1_555 1_555
O5 Mg1 1_555 1_555
N1 C13 1_555 1_555
N2 C14 1_555 1_555
C1 C3 1_555 1_555
C2 C6 1_555 1_555
C3 C4 1_555 1_555
C4 H1 1_555 1_555
C5 C4 1_555 1_555
H2 C5 1_555 1_555
C6 C5 1_555 1_555
C7 C6 1_555 1_555
C8 C3 1_555 1_555
C9 C8 1_555 1_555
H3 C9 1_555 1_555
C10 C9 1_555 1_555
H4 C10 1_555 1_555
C11 C10 1_555 1_555
H5 C11 1_555 1_555
C12 C7 1_555 1_555
H6 C12 1_555 1_555
C13 H7 1_555 1_555
H8 C13 1_555 1_555
H9 C13 1_555 1_555
C14 O5 1_555 1_555
C15 N2 1_555 1_555
H10 C15 1_555 1_555
H11 C15 1_555 1_555
H12 C15 1_555 1_555
C16 N2 1_555 1_555
H13 C16 1_555 1_555
H14 C16 1_555 1_555
C17 N1 1_555 1_555
H15 C17 1_555 1_555
H16 C17 1_555 1_555
Mg1A O3 1_555 1_555
Mg1B O2 1_555 1_555
Mg1C O4 1_555 1_555
O2B Mg1 1_555 1_555
O3A Mg1 1_555 1_555
O4C Mg1 1_555 1_555
N1 C14 1_555 1_555
C7 C8 1_555 1_555
C11 C12 1_555 1_555
C16 C17 1_555 1_555

#END
