
#######################################################################
#
#                 Cambridge Crystallographic Data Centre
#                                CCDC 
#
#######################################################################
#
# If this CIF has been generated from an entry in the Cambridge 
# Structural Database, then it will include bibliographic, chemical, 
# crystal, experimental, refinement or atomic coordinate data resulting 
# from the CCDC's data processing and validation procedures.
#
#######################################################################

data_XINJAH
_symmetry_cell_setting           monoclinic
_symmetry_space_group_name_H-M   'P 21/n'
_symmetry_Int_Tables_number      14
_space_group_name_Hall           '-P 2yn'
loop_
_symmetry_equiv_pos_site_id
_symmetry_equiv_pos_as_xyz
1 x,y,z
2 1/2-x,1/2+y,1/2-z
3 -x,-y,-z
4 1/2+x,1/2-y,1/2+z
_cell_length_a                   12.332(5)
_cell_length_b                   8.785(3)
_cell_length_c                   19.090(8)
_cell_angle_alpha                90
_cell_angle_beta                 106.520(7)
_cell_angle_gamma                90
_cell_volume                     1982.77
loop_
_atom_site_label
_atom_site_type_symbol
_atom_site_fract_x
_atom_site_fract_y
_atom_site_fract_z
La1 La 0.229513(9) 0.460435(13) 0.212462(6)
O1 O 0.14001(13) 0.22639(19) 0.25003(9)
O2 O 0.15485(13) 0.1082(2) 0.35472(9)
O3 O 0.30414(16) 0.0174(2) 0.17033(10)
O4 O -0.57915(13) 0.4098(2) 0.29820(10)
O5 O -0.58996(14) 0.1652(2) 0.32450(10)
O6 O 0.08838(17) 0.3927(2) 0.09268(10)
O7 O 0.32001(17) 0.2654(2) 0.15852(11)
C1 C 0.4049(2) -0.0323(3) 0.05857(14)
H1 H 0.3629 -0.1111 0.0705
C2 C -0.17911(18) 0.2139(3) 0.34887(13)
C3 C 0.4666(2) -0.0597(3) 0.00764(13)
C4 C 0.10072(18) 0.1907(3) 0.30334(13)
C5 C 0.40541(19) 0.1063(3) 0.09046(12)
C6 C 0.33803(19) 0.1321(3) 0.14369(12)
C7 C -0.53601(17) 0.2822(3) 0.31742(12)
C8 C -0.40987(18) 0.2658(3) 0.33191(13)
C9 C -0.06596(18) 0.1788(3) 0.35116(13)
H2 H -0.0243 0.1135 0.3872
C10 C 0.0140(2) 0.2984(3) 0.06372(13)
N1 N -0.0576(2) 0.3127(3) -0.00256(13)
H3 H -0.0547 0.3856 -0.0320
C11 C -0.34708(19) 0.1686(3) 0.38769(14)
H4 H -0.3828 0.1189 0.4180
C12 C -0.2338(2) 0.1471(3) 0.39734(14)
H5 H -0.1923 0.0881 0.4362
C13 C -0.01671(18) 0.2392(3) 0.30132(14)
C14 C -0.24113(19) 0.3129(3) 0.29385(15)
C15 C 0.4654(2) -0.2017(3) -0.02725(15)
H6 H 0.4207 -0.2801 -0.0180
N2 N -0.0090(3) 0.1699(3) 0.09276(14)
H7 H 0.0297 0.1366 0.1348
C16 C -0.3571(2) 0.3398(3) 0.28789(16)
H8 H -0.3977 0.4090 0.2534
C17 C 0.4710(2) 0.2262(3) 0.07451(14)
H9 H 0.4710 0.3212 0.0960
C18 C -0.0779(2) 0.3415(3) 0.24802(18)
H10 H -0.0444 0.3840 0.2147
C19 C -0.1868(2) 0.3784(4) 0.2452(2)
H11 H -0.2259 0.4481 0.2105
C20 C -0.1051(4) 0.0923(5) 0.0469(2)
H12 H -0.1651 0.0837 0.0703
H13 H -0.0850 -0.0086 0.0341
C21 C -0.1395(3) 0.1949(5) -0.0196(2)
H14 H -0.1369 0.1408 -0.0634
H15 H -0.2151 0.2351 -0.0265
O3B O 0.69586(16) -0.0174(2) -0.17033(10)
O7B O 0.67999(17) -0.2654(2) -0.15852(11)
C1B C 0.5951(2) 0.0323(3) -0.05857(14)
H1B H 0.6371 0.1111 -0.0705
C3B C 0.5334(2) 0.0597(3) -0.00764(13)
C5B C 0.59459(19) -0.1063(3) -0.09046(12)
C6B C 0.66197(19) -0.1321(3) -0.14369(12)
C15B C 0.5346(2) 0.2017(3) 0.02725(15)
H6B H 0.5793 0.2801 0.0180
C17B C 0.5290(2) -0.2262(3) -0.07451(14)
H9B H 0.5290 -0.3212 -0.0960
La1B La 0.770487(9) -0.460435(13) -0.212462(6)
O1B O 0.85999(13) -0.22639(19) -0.25003(9)
O2B O 0.84515(13) -0.1082(2) -0.35472(9)
O4B O 1.57915(13) -0.4098(2) -0.29820(10)
O5B O 1.58996(14) -0.1652(2) -0.32450(10)
O6B O 0.91162(17) -0.3927(2) -0.09268(10)
C2B C 1.17911(18) -0.2139(3) -0.34887(13)
C4B C 0.89928(18) -0.1907(3) -0.30334(13)
C7B C 1.53601(17) -0.2822(3) -0.31742(12)
C8B C 1.40987(18) -0.2658(3) -0.33191(13)
C9B C 1.06596(18) -0.1788(3) -0.35116(13)
H2B H 1.0243 -0.1135 -0.3872
C10B C 0.9860(2) -0.2984(3) -0.06372(13)
N1B N 1.0576(2) -0.3127(3) 0.00256(13)
H3B H 1.0547 -0.3856 0.0320
C11B C 1.34708(19) -0.1686(3) -0.38769(14)
H4B H 1.3828 -0.1189 -0.4180
C12B C 1.2338(2) -0.1471(3) -0.39734(14)
H5B H 1.1923 -0.0881 -0.4362
C13B C 1.01671(18) -0.2392(3) -0.30132(14)
C14B C 1.24113(19) -0.3129(3) -0.29385(15)
N2B N 1.0090(3) -0.1699(3) -0.09276(14)
H7B H 0.9703 -0.1366 -0.1348
C16B C 1.3571(2) -0.3398(3) -0.28789(16)
H8B H 1.3977 -0.4090 -0.2534
C18B C 1.0779(2) -0.3415(3) -0.24802(18)
H10B H 1.0444 -0.3840 -0.2147
C19B C 1.1868(2) -0.3784(4) -0.2452(2)
H11B H 1.2259 -0.4481 -0.2105
C20B C 1.1051(4) -0.0923(5) -0.0469(2)
H12B H 1.1651 -0.0837 -0.0703
H13B H 1.0850 0.0086 -0.0341
C21B C 1.1395(3) -0.1949(5) 0.0196(2)
H14B H 1.1369 -0.1408 0.0634
H15B H 1.2151 -0.2351 0.0265
La1_2 La -0.770487(9) 0.460435(13) 0.212462(6)
La1A La -0.729513(9) -0.039565(13) 0.287538(6)
La1A_2 La 0.270487(9) -0.039565(13) 0.287538(6)
La1B_2 La 1.770487(9) -0.460435(13) -0.212462(6)
La1C La 0.729513(9) 0.039565(13) -0.287538(6)
La1C_2 La 1.729513(9) 0.039565(13) -0.287538(6)
O1A O 0.35999(13) 0.72639(19) 0.24997(9)
O1C O 0.64001(13) -0.72639(19) -0.24997(9)
O2A O 0.34515(13) 0.6082(2) 0.14528(9)
O2C O 0.65485(13) -0.6082(2) -0.14528(9)
O3A O 0.19586(16) 0.5174(2) 0.32967(10)
O3C O 0.80414(16) -0.5174(2) -0.32967(10)
O4_2 O 0.42085(13) 0.4098(2) 0.29820(10)
O4B_2 O 0.57915(13) -0.4098(2) -0.29820(10)
O5A O 0.08996(14) 0.6652(2) 0.17550(10)
O5C O 0.91004(14) -0.6652(2) -0.17550(10)
loop_
_geom_bond_atom_site_label_1
_geom_bond_atom_site_label_2
_geom_bond_site_symmetry_1
_geom_bond_site_symmetry_2
La1 O1 1_555 1_555
O1 C4 1_555 1_555
O2 C4 1_555 1_555
O3 C6 1_555 1_555
O4 C7 1_555 1_555
O5 C7 1_555 1_555
O6 La1 1_555 1_555
O7 La1 1_555 1_555
C1 H1 1_555 1_555
C2 C9 1_555 1_555
C3 C1 1_555 1_555
C4 C13 1_555 1_555
C5 C1 1_555 1_555
C6 O7 1_555 1_555
C7 C8 1_555 1_555
C8 C11 1_555 1_555
C9 H2 1_555 1_555
C10 O6 1_555 1_555
N1 C10 1_555 1_555
H3 N1 1_555 1_555
C11 H4 1_555 1_555
C12 C2 1_555 1_555
H5 C12 1_555 1_555
C13 C9 1_555 1_555
C14 C2 1_555 1_555
C15 C3 1_555 1_555
H6 C15 1_555 1_555
N2 C10 1_555 1_555
H7 N2 1_555 1_555
C16 C8 1_555 1_555
H8 C16 1_555 1_555
C17 C5 1_555 1_555
H9 C17 1_555 1_555
C18 C13 1_555 1_555
H10 C18 1_555 1_555
C19 C14 1_555 1_555
H11 C19 1_555 1_555
C20 N2 1_555 1_555
H12 C20 1_555 1_555
H13 C20 1_555 1_555
C21 N1 1_555 1_555
H14 C21 1_555 1_555
H15 C21 1_555 1_555
O3B C6B 1_555 1_555
O7B C6B 1_555 1_555
C1B H1B 1_555 1_555
C3B C3 1_555 1_555
C5B C1B 1_555 1_555
C6B C5B 1_555 1_555
C15B C17 1_555 1_555
H6B C15B 1_555 1_555
C17B C15 1_555 1_555
H9B C17B 1_555 1_555
La1B O7B 1_555 1_555
O1B La1B 1_555 1_555
O2B C4B 1_555 1_555
O4B C7B 1_555 1_555
O5B C7B 1_555 1_555
O6B La1B 1_555 1_555
C2B C9B 1_555 1_555
C4B O1B 1_555 1_555
C7B C8B 1_555 1_555
C8B C11B 1_555 1_555
C9B H2B 1_555 1_555
C10B O6B 1_555 1_555
N1B C10B 1_555 1_555
H3B N1B 1_555 1_555
C11B H4B 1_555 1_555
C12B C2B 1_555 1_555
H5B C12B 1_555 1_555
C13B C4B 1_555 1_555
C14B C2B 1_555 1_555
N2B C10B 1_555 1_555
H7B N2B 1_555 1_555
C16B C8B 1_555 1_555
H8B C16B 1_555 1_555
C18B C13B 1_555 1_555
H10B C18B 1_555 1_555
C19B C14B 1_555 1_555
H11B C19B 1_555 1_555
C20B N2B 1_555 1_555
H12B C20B 1_555 1_555
H13B C20B 1_555 1_555
C21B N1B 1_555 1_555
H14B C21B 1_555 1_555
H15B C21B 1_555 1_555
La1_2 O4 1_555 1_555
La1A O5 1_555 1_555
La1A_2 O1 1_555 1_555
La1B_2 O4B 1_555 1_555
La1C O3B 1_555 1_555
La1C_2 O5B 1_555 1_555
O1A La1 1_555 1_555
O1C La1B 1_555 1_555
O2A La1 1_555 1_555
O2C La1B 1_555 1_555
O3A La1 1_555 1_555
O3C La1B 1_555 1_555
O4_2 La1 1_555 1_555
O4B_2 La1B 1_555 1_555
O5A La1 1_555 1_555
O5C La1B 1_555 1_555
O2 La1A_2 1_555 1_555
O3 La1A_2 1_555 1_555
C5 C6 1_555 1_555
C11 C12 1_555 1_555
C14 C16 1_555 1_555
C18 C19 1_555 1_555
C20 C21 1_555 1_555
C1B C3B 1_555 1_555
C3B C15B 1_555 1_555
C5B C17B 1_555 1_555
O1B La1C 1_555 1_555
O2B La1C 1_555 1_555
C9B C13B 1_555 1_555
C11B C12B 1_555 1_555
C14B C16B 1_555 1_555
C18B C19B 1_555 1_555
C20B C21B 1_555 1_555

#END
