
#######################################################################
#
#                 Cambridge Crystallographic Data Centre
#                                CCDC 
#
#######################################################################
#
# If this CIF has been generated from an entry in the Cambridge 
# Structural Database, then it will include bibliographic, chemical, 
# crystal, experimental, refinement or atomic coordinate data resulting 
# from the CCDC's data processing and validation procedures.
#
#######################################################################

data_XINJUA
_symmetry_cell_setting           monoclinic
_symmetry_space_group_name_H-M   'P 21/c'
_symmetry_Int_Tables_number      14
_space_group_name_Hall           '-P 2ybc'
loop_
_symmetry_equiv_pos_site_id
_symmetry_equiv_pos_as_xyz
1 x,y,z
2 -x,1/2+y,1/2-z
3 -x,-y,-z
4 x,1/2-y,1/2+z
_cell_length_a                   7.5692(2)
_cell_length_b                   7.3966(2)
_cell_length_c                   15.3855(5)
_cell_angle_alpha                90
_cell_angle_beta                 97.7220(13)
_cell_angle_gamma                90
_cell_volume                     853.567
loop_
_atom_site_label
_atom_site_type_symbol
_atom_site_fract_x
_atom_site_fract_y
_atom_site_fract_z
Cu1 Cu 1.0000 0.0000 1.0000
K1 K 1.45442(5) -0.04977(6) 1.25963(3)
N1 N 1.06485(19) -0.23231(19) 0.94947(9)
O1 O 1.15197(17) -0.08727(17) 1.10503(8)
O2 O 1.32259(18) -0.32218(17) 1.15268(9)
O3 O 1.27110(17) -0.77693(18) 0.80140(8)
O4 O 1.27551(18) -0.87053(17) 0.94051(8)
O5 O 1.5148(2) 0.1605(2) 1.11113(10)
H1 H 1.440(4) 0.150(4) 1.0712(18)
H2 H 1.586(4) 0.088(4) 1.0969(17)
C1 C 1.1763(2) -0.3294(2) 1.00691(11)
C2 C 1.2374(2) -0.4978(2) 0.98696(12)
H3 H 1.311(3) -0.562(3) 1.0278(14)
C3 C 1.1840(2) -0.5698(2) 0.90382(11)
C4 C 1.0714(2) -0.4669(2) 0.84441(12)
H4 H 1.034(3) -0.508(3) 0.7913(15)
C5 C 1.0126(2) -0.2996(2) 0.86940(11)
H5 H 0.934(3) -0.229(3) 0.8304(14)
C6 C 1.2229(2) -0.2420(2) 1.09571(12)
C7 C 1.2487(2) -0.7560(2) 0.87931(11)
Cu1_2 Cu 1.0000 -1.0000 1.0000
Cu1_3 Cu 1.0000 1.0000 1.0000
K1B K 0.54558(5) 0.04977(6) 0.74037(3)
K1A K 1.54558(5) -0.54977(6) 1.24037(3)
K1A_2 K 1.54558(5) 0.45023(6) 1.24037(3)
K1C K 1.45442(5) -0.45023(6) 0.75963(3)
K1B_2 K 1.54558(5) -0.95023(6) 0.74037(3)
K1C_2 K 0.45442(5) 0.54977(6) 0.75963(3)
K1_2 K 0.45442(5) 0.95023(6) 1.25963(3)
K1A_3 K 0.54558(5) 0.45023(6) 1.24037(3)
K1C_3 K 0.45442(5) -0.45023(6) 0.75963(3)
N1B N 0.93515(19) 0.23231(19) 1.05053(9)
O1B O 0.84803(17) 0.08727(17) 0.89497(8)
O2B O 0.67741(18) 0.32218(17) 0.84732(9)
O2A O 1.67741(18) 0.17782(17) 1.34732(9)
O2C O 0.32259(18) -0.17782(17) 0.65268(9)
O3B O 0.72890(17) 0.77693(18) 1.19860(8)
O3C O 1.27110(17) 0.27693(18) 1.30140(8)
O3B_2 O 1.72890(17) -0.22307(18) 1.19860(8)
O3_2 O 0.27110(17) 0.22307(18) 0.80140(8)
O3A O 0.72890(17) -0.27693(18) 0.69860(8)
O4B O 0.72449(18) 0.87053(17) 1.05949(8)
O4_2 O 1.27551(18) 0.12947(17) 0.94051(8)
O4B_2 O 0.72449(18) -0.12947(17) 1.05949(8)
O5A O 1.4852(2) -0.3395(2) 1.38887(10)
O5C O 0.5148(2) 0.3395(2) 0.61113(10)
O5B O 0.4852(2) -0.1605(2) 0.88887(10)
H1A H 1.560(4) -0.350(4) 1.4288(18)
H1C H 0.440(4) 0.350(4) 0.5712(18)
H1B H 0.560(4) -0.150(4) 0.9288(18)
H2A H 1.414(4) -0.412(4) 1.4031(17)
H2C H 0.586(4) 0.412(4) 0.5969(17)
H2B H 0.414(4) -0.088(4) 0.9031(17)
C1B C 0.8237(2) 0.3294(2) 0.99309(11)
C2B C 0.7626(2) 0.4978(2) 1.01304(12)
H3B H 0.689(3) 0.562(3) 0.9722(14)
C3B C 0.8160(2) 0.5698(2) 1.09618(11)
C4B C 0.9286(2) 0.4669(2) 1.15559(12)
H4B H 0.966(3) 0.508(3) 1.2087(15)
C5B C 0.9874(2) 0.2996(2) 1.13060(11)
H5B H 1.066(3) 0.229(3) 1.1696(14)
C6B C 0.7771(2) 0.2420(2) 0.90429(12)
C7B C 0.7513(2) 0.7560(2) 1.12069(11)
loop_
_geom_bond_atom_site_label_1
_geom_bond_atom_site_label_2
_geom_bond_site_symmetry_1
_geom_bond_site_symmetry_2
Cu1 N1 1_555 1_555
K1 O2 1_555 1_555
N1 C1 1_555 1_555
O1 Cu1 1_555 1_555
O2 C6 1_555 1_555
O3 C7 1_555 1_555
O4 C7 1_555 1_555
O5 K1 1_555 1_555
H1 O5 1_555 1_555
H2 O5 1_555 1_555
C1 C2 1_555 1_555
C2 H3 1_555 1_555
C3 C2 1_555 1_555
C4 C3 1_555 1_555
H4 C4 1_555 1_555
C5 N1 1_555 1_555
H5 C5 1_555 1_555
C6 O1 1_555 1_555
C7 C3 1_555 1_555
Cu1_2 O4 1_555 1_555
Cu1_3 O4B 1_555 1_555
K1B O2B 1_555 1_555
K1A O2 1_555 1_555
K1A_2 O5 1_555 1_555
K1C O3 1_555 1_555
K1B_2 O3 1_555 1_555
K1C_2 O2B 1_555 1_555
K1_2 O3B 1_555 1_555
K1A_3 O3B 1_555 1_555
K1C_3 O2C 1_555 1_555
N1B Cu1 1_555 1_555
O1B Cu1 1_555 1_555
O2B C6B 1_555 1_555
O2A K1 1_555 1_555
O2C K1B 1_555 1_555
O3B C7B 1_555 1_555
O3C K1 1_555 1_555
O3B_2 K1 1_555 1_555
O3_2 K1B 1_555 1_555
O3A K1B 1_555 1_555
O4B C7B 1_555 1_555
O4_2 Cu1 1_555 1_555
O4B_2 Cu1 1_555 1_555
O5A K1 1_555 1_555
O5C K1B 1_555 1_555
O5B K1B 1_555 1_555
H1A O5A 1_555 1_555
H1C O5C 1_555 1_555
H1B O5B 1_555 1_555
H2A O5A 1_555 1_555
H2C O5C 1_555 1_555
H2B O5B 1_555 1_555
C1B N1B 1_555 1_555
C2B C1B 1_555 1_555
H3B C2B 1_555 1_555
C3B C2B 1_555 1_555
C4B C3B 1_555 1_555
H4B C4B 1_555 1_555
C5B N1B 1_555 1_555
H5B C5B 1_555 1_555
C6B O1B 1_555 1_555
C7B C3B 1_555 1_555
C1 C6 1_555 1_555
C4 C5 1_555 1_555
K1A O3B_2 1_555 1_555
K1A O5A 1_555 1_555
K1A_2 O2A 1_555 1_555
K1A_2 O3C 1_555 1_555
K1C_2 O3_2 1_555 1_555
K1C_2 O5C 1_555 1_555
K1C_3 O3A 1_555 1_555
K1C_3 O5B 1_555 1_555
C1B C6B 1_555 1_555
C4B C5B 1_555 1_555

#END
