
#######################################################################
#
#                 Cambridge Crystallographic Data Centre
#                                CCDC 
#
#######################################################################
#
# If this CIF has been generated from an entry in the Cambridge 
# Structural Database, then it will include bibliographic, chemical, 
# crystal, experimental, refinement or atomic coordinate data resulting 
# from the CCDC's data processing and validation procedures.
#
#######################################################################

data_XINKOV
_symmetry_cell_setting           triclinic
_symmetry_space_group_name_H-M   'P -1'
_symmetry_Int_Tables_number      2
_space_group_name_Hall           '-P 1'
loop_
_symmetry_equiv_pos_site_id
_symmetry_equiv_pos_as_xyz
1 x,y,z
2 -x,-y,-z
_cell_length_a                   6.5022(4)
_cell_length_b                   7.9297(5)
_cell_length_c                   16.2724(11)
_cell_angle_alpha                78.273(2)
_cell_angle_beta                 88.479(2)
_cell_angle_gamma                84.506(3)
_cell_volume                     817.705
loop_
_atom_site_label
_atom_site_type_symbol
_atom_site_fract_x
_atom_site_fract_y
_atom_site_fract_z
Cu1 Cu 0.51856(12) 1.19502(10) -0.46336(5)
Co1 Co -0.02147(11) 0.67580(9) 0.02807(5)
Co2 Co 0.5000 0.5000 0.0000
N1 N 0.4077(7) 1.0925(6) -0.3532(3)
N2 N 0.5894(7) 0.3322(6) 0.4261(3)
O1 O 0.7296(6) 1.2597(5) -0.3982(3)
O2 O 0.8411(6) 1.2229(5) -0.2663(3)
O3 O 0.4320(6) 0.7618(5) -0.0600(3)
O4 O 0.0927(6) 0.7999(5) -0.0867(3)
O5 O 0.3042(7) 0.1227(6) 0.4752(3)
O6 O 0.1464(7) 0.1914(6) 0.3510(3)
O7 O 0.5330(6) 0.5745(5) 0.1177(3)
O8 O 0.8696(6) 0.5777(5) 0.1466(3)
O9 O 0.1988(6) 0.4648(5) 0.0352(3)
H1 H 0.203(13) 0.426(10) 0.0869(16)
O10 O 0.1772(6) 0.8029(5) 0.0959(3)
H2 H 0.293(6) 0.768(9) 0.079(4)
H3 H 0.161(10) 0.808(10) 0.1472(18)
O11 O -0.2503(6) 0.8854(5) 0.0140(3)
H4 H -0.351(8) 0.849(8) -0.007(4)
H5 H -0.208(10) 0.978(6) -0.015(4)
C1 C 0.5348(9) 1.0960(7) -0.2910(4)
C2 C 0.5008(9) 1.0117(7) -0.2096(4)
H6 H 0.586(9) 1.005(7) -0.168(4)
C3 C 0.3203(8) 0.9277(7) -0.1914(4)
C4 C 0.1821(9) 0.9334(8) -0.2560(4)
H7 H 0.073(9) 0.866(7) -0.251(4)
C5 C 0.2311(9) 1.0146(8) -0.3366(4)
H8 H 0.152(9) 1.026(7) -0.384(4)
C6 C 0.7195(9) 1.2000(7) -0.3188(4)
C7 C 0.2785(9) 0.8237(7) -0.1053(4)
C8 C 0.4497(9) 0.3250(7) 0.3674(4)
C9 C 0.4688(9) 0.4049(7) 0.2852(4)
H9 H 0.371(9) 0.397(7) 0.248(4)
C10 C 0.6423(9) 0.4914(7) 0.2590(4)
C11 C 0.7850(10) 0.5016(8) 0.3203(4)
H10 H 0.902(9) 0.557(7) 0.306(4)
C12 C 0.7523(9) 0.4232(8) 0.4029(4)
H11 H 0.860(8) 0.427(7) 0.457(4)
C13 C 0.2814(9) 0.2059(8) 0.3990(4)
C14 C 0.6841(9) 0.5549(7) 0.1676(4)
Cu1A Cu 0.48144(12) -0.19502(10) 0.46336(5)
Cu1_2 Cu 0.51856(12) 0.19502(10) 0.53664(5)
Cu1A_2 Cu 0.48144(12) 0.80498(10) -0.53664(5)
Co1A Co 1.02147(11) 0.32420(9) -0.02807(5)
Co1_2 Co 0.97853(11) 0.67580(9) 0.02807(5)
Co1A_2 Co 0.02147(11) 0.32420(9) -0.02807(5)
N1A N 0.5923(7) -0.0925(6) 0.3532(3)
N2A N 0.4106(7) 0.6678(6) -0.4261(3)
N2_2 N 0.5894(7) 1.3322(6) -0.5739(3)
N2A_2 N 0.4106(7) -0.3322(6) 0.5739(3)
O1A O 0.2704(6) -0.2597(5) 0.3982(3)
O2A O 0.1589(6) -0.2229(5) 0.2663(3)
O3A O 0.5680(6) 0.2382(5) 0.0600(3)
O4A O 0.9073(6) 0.2001(5) 0.0867(3)
O5A O 0.6958(7) 0.8773(6) -0.4752(3)
O5_2 O 0.3042(7) 1.1227(6) -0.5248(3)
O5A_2 O 0.6958(7) -0.1227(6) 0.5248(3)
O6A O 0.8536(7) 0.8086(6) -0.3510(3)
O7A O 0.4670(6) 0.4255(5) -0.1177(3)
O8A O 0.1304(6) 0.4223(5) -0.1466(3)
O8_2 O -0.1304(6) 0.5777(5) 0.1466(3)
O8A_2 O 1.1304(6) 0.4223(5) -0.1466(3)
O9A O 0.8012(6) 0.5352(5) -0.0352(3)
O9A_2 O -0.1988(6) 0.5352(5) -0.0352(3)
O9_2 O 1.1988(6) 0.4648(5) 0.0352(3)
H1A H 0.797(13) 0.574(10) -0.0869(16)
H1A_2 H -0.203(13) 0.574(10) -0.0869(16)
H1_2 H 1.203(13) 0.426(10) 0.0869(16)
O10A O 0.8228(6) 0.1971(5) -0.0959(3)
H2A H 0.707(6) 0.232(9) -0.079(4)
H3A H 0.839(10) 0.192(10) -0.1472(18)
O11A O 1.2503(6) 0.1146(5) -0.0140(3)
H4A H 1.351(8) 0.151(8) 0.007(4)
H5A H 1.208(10) 0.022(6) 0.015(4)
C1A C 0.4652(9) -0.0960(7) 0.2910(4)
C2A C 0.4992(9) -0.0117(7) 0.2096(4)
H6A H 0.414(9) -0.005(7) 0.168(4)
C3A C 0.6797(8) 0.0723(7) 0.1914(4)
C4A C 0.8179(9) 0.0666(8) 0.2560(4)
H7A H 0.927(9) 0.134(7) 0.251(4)
C5A C 0.7689(9) -0.0146(8) 0.3366(4)
H8A H 0.848(9) -0.026(7) 0.384(4)
C6A C 0.2805(9) -0.2000(7) 0.3188(4)
C7A C 0.7215(9) 0.1763(7) 0.1053(4)
C8A C 0.5503(9) 0.6750(7) -0.3674(4)
C9A C 0.5312(9) 0.5951(7) -0.2852(4)
H9A H 0.629(9) 0.603(7) -0.248(4)
C10A C 0.3577(9) 0.5086(7) -0.2590(4)
C11A C 0.2150(10) 0.4984(8) -0.3203(4)
H10A H 0.098(9) 0.443(7) -0.306(4)
C12A C 0.2477(9) 0.5768(8) -0.4029(4)
H11A H 0.140(8) 0.573(7) -0.457(4)
C13A C 0.7186(9) 0.7941(8) -0.3990(4)
C14A C 0.3159(9) 0.4451(7) -0.1676(4)
loop_
_geom_bond_atom_site_label_1
_geom_bond_atom_site_label_2
_geom_bond_site_symmetry_1
_geom_bond_site_symmetry_2
Cu1 N1 1_555 1_555
Co1 O4 1_555 1_555
Co2 O3 1_555 1_555
N1 C1 1_555 1_555
N2 C8 1_555 1_555
O1 Cu1 1_555 1_555
O2 C6 1_555 1_555
O3 C7 1_555 1_555
O4 C7 1_555 1_555
O5 C13 1_555 1_555
O6 C13 1_555 1_555
O7 Co2 1_555 1_555
O8 C14 1_555 1_555
O9 Co1 1_555 1_555
H1 O9 1_555 1_555
O10 Co1 1_555 1_555
H2 O10 1_555 1_555
H3 O10 1_555 1_555
O11 Co1 1_555 1_555
H4 O11 1_555 1_555
H5 O11 1_555 1_555
C1 C2 1_555 1_555
C2 H6 1_555 1_555
C3 C2 1_555 1_555
C4 C3 1_555 1_555
H7 C4 1_555 1_555
C5 N1 1_555 1_555
H8 C5 1_555 1_555
C6 O1 1_555 1_555
C7 C3 1_555 1_555
C8 C9 1_555 1_555
C9 H9 1_555 1_555
C10 C9 1_555 1_555
C11 C10 1_555 1_555
H10 C11 1_555 1_555
C12 N2 1_555 1_555
H11 C12 1_555 1_555
C13 C8 1_555 1_555
C14 O7 1_555 1_555
Cu1A N1A 1_555 1_555
Cu1_2 N2 1_555 1_555
Cu1A_2 N2A 1_555 1_555
Co1A O4A 1_555 1_555
Co1_2 O8 1_555 1_555
Co1A_2 O9 1_555 1_555
N1A C1A 1_555 1_555
N2A C8A 1_555 1_555
N2_2 Cu1 1_555 1_555
N2A_2 Cu1A 1_555 1_555
O1A Cu1A 1_555 1_555
O2A C6A 1_555 1_555
O3A Co2 1_555 1_555
O4A C7A 1_555 1_555
O5A Cu1A_2 1_555 1_555
O5_2 Cu1 1_555 1_555
O5A_2 Cu1A 1_555 1_555
O6A C13A 1_555 1_555
O7A Co2 1_555 1_555
O8A Co1A_2 1_555 1_555
O8_2 Co1 1_555 1_555
O8A_2 Co1A 1_555 1_555
O9A Co2 1_555 1_555
O9A_2 Co1 1_555 1_555
O9_2 Co1A 1_555 1_555
H1A O9A 1_555 1_555
H1A_2 O9A_2 1_555 1_555
H1_2 O9_2 1_555 1_555
O10A Co1A 1_555 1_555
H2A O10A 1_555 1_555
H3A O10A 1_555 1_555
O11A Co1A 1_555 1_555
H4A O11A 1_555 1_555
H5A O11A 1_555 1_555
C1A C2A 1_555 1_555
C2A H6A 1_555 1_555
C3A C2A 1_555 1_555
C4A C3A 1_555 1_555
H7A C4A 1_555 1_555
C5A N1A 1_555 1_555
H8A C5A 1_555 1_555
C6A O1A 1_555 1_555
C7A O3A 1_555 1_555
C8A C9A 1_555 1_555
C9A H9A 1_555 1_555
C10A C9A 1_555 1_555
C11A C10A 1_555 1_555
H10A C11A 1_555 1_555
C12A N2A 1_555 1_555
H11A C12A 1_555 1_555
C13A O5A 1_555 1_555
C14A O7A 1_555 1_555
Co2 O9 1_555 1_555
O5 Cu1_2 1_555 1_555
C1 C6 1_555 1_555
C4 C5 1_555 1_555
C10 C14 1_555 1_555
C11 C12 1_555 1_555
Co1A O9A 1_555 1_555
Co1_2 O9A 1_555 1_555
Co1_2 O9_2 1_555 1_555
Co1A_2 O9A_2 1_555 1_555
O8A C14A 1_555 1_555
C1A C6A 1_555 1_555
C3A C7A 1_555 1_555
C4A C5A 1_555 1_555
C8A C13A 1_555 1_555
C10A C14A 1_555 1_555
C11A C12A 1_555 1_555

#END
