
#######################################################################
#
#                 Cambridge Crystallographic Data Centre
#                                CCDC 
#
#######################################################################
#
# If this CIF has been generated from an entry in the Cambridge 
# Structural Database, then it will include bibliographic, chemical, 
# crystal, experimental, refinement or atomic coordinate data resulting 
# from the CCDC's data processing and validation procedures.
#
#######################################################################

data_XINKAH
_symmetry_cell_setting           triclinic
_symmetry_space_group_name_H-M   'P -1'
_symmetry_Int_Tables_number      2
_space_group_name_Hall           '-P 1'
loop_
_symmetry_equiv_pos_site_id
_symmetry_equiv_pos_as_xyz
1 x,y,z
2 -x,-y,-z
_cell_length_a                   7.13330(10)
_cell_length_b                   10.8846(2)
_cell_length_c                   12.6658(3)
_cell_angle_alpha                97.7686(7)
_cell_angle_beta                 97.8597(8)
_cell_angle_gamma                108.8506(9)
_cell_volume                     904.894
loop_
_atom_site_label
_atom_site_type_symbol
_atom_site_fract_x
_atom_site_fract_y
_atom_site_fract_z
Cu1 Cu 0.02350(3) 0.94801(2) 0.777015(18)
K1 K 0.28412(6) 1.51449(4) 0.92538(3)
K2 K -0.78769(6) 0.49312(4) 0.56787(4)
N1 N 0.1507(2) 0.94313(15) 0.92624(13)
N2 N -0.1427(2) 0.96216(15) 0.64075(13)
O1 O 0.1847(2) 1.13340(13) 0.81118(11)
O2 O 0.3961(2) 1.28464(13) 0.94503(12)
O3 O 0.1100(2) 0.62601(13) 1.08835(11)
O4 O 0.2677(2) 0.76041(14) 1.24343(11)
O5 O -0.1687(2) 0.76781(13) 0.75292(11)
O6 O -0.3884(2) 0.61961(13) 0.61974(12)
O7 O -0.2365(2) 1.12832(13) 0.31463(11)
O8 O -0.0905(2) 1.27460(13) 0.46497(11)
O9 O 0.1980(3) 1.64582(18) 0.77261(14)
H1 H 0.212(4) 1.715(3) 0.752(2)
H2 H 0.086(5) 1.593(3) 0.747(2)
O10 O 0.3212(2) 1.46244(17) 1.14017(13)
H3 H 0.237(4) 1.502(3) 1.133(2)
H4 H 0.273(4) 1.400(3) 1.163(2)
O11 O -0.6781(3) 0.36827(19) 0.71841(14)
H5 H -0.712(4) 0.298(3) 0.739(2)
H6 H -0.576(4) 0.406(3) 0.747(2)
O12 O -1.1609(3) 0.45397(16) 0.65010(13)
H7 H -1.195(4) 0.383(3) 0.680(2)
H8 H -1.237(4) 0.488(3) 0.655(2)
C1 C 0.2742(3) 1.06403(18) 0.97583(15)
C2 C 0.3759(3) 1.08611(19) 1.08043(16)
H9 H 0.459(3) 1.165(2) 1.1098(19)
C3 C 0.3522(3) 0.98080(19) 1.13707(16)
H10 H 0.426(4) 0.996(2) 1.206(2)
C4 C 0.2271(3) 0.85596(18) 1.08616(15)
C5 C 0.1289(3) 0.84085(18) 0.98049(16)
H11 H 0.042(3) 0.759(2) 0.9418(17)
C6 C 0.2897(3) 1.17144(18) 0.90727(15)
C7 C 0.1994(3) 0.73728(19) 1.14544(16)
C8 C -0.2731(3) 0.84251(18) 0.59323(15)
C9 C -0.3851(3) 0.82080(19) 0.49122(16)
H12 H -0.476(3) 0.741(2) 0.4618(19)
C10 C -0.3569(3) 0.92477(19) 0.43341(16)
H13 H -0.424(3) 0.909(2) 0.363(2)
C11 C -0.2230(3) 1.04816(18) 0.48110(15)
C12 C -0.1220(3) 1.06413(18) 0.58616(16)
H14 H -0.032(3) 1.143(2) 0.6220(18)
C13 C -0.2805(3) 0.73323(18) 0.65904(16)
C14 C -0.1800(3) 1.16159(18) 0.41620(15)
Cu1A Cu -0.02350(3) 1.05199(2) 0.222985(18)
K1A K 0.71588(6) 1.48551(4) 1.07462(3)
K1_2 K 0.28412(6) 0.51449(4) 0.92538(3)
K1A_2 K -0.28412(6) 0.48551(4) 1.07462(3)
K2A K -1.21231(6) 0.50688(4) 0.43213(4)
K2_2 K 0.21231(6) 1.49312(4) 0.56787(4)
O2A O 0.6039(2) 1.71536(13) 1.05497(12)
O3_2 O 0.1100(2) 1.62601(13) 1.08835(11)
O3A O -0.1100(2) 1.37399(13) 0.91165(11)
O7A O 0.2365(2) 0.87168(13) 0.68537(11)
O8_2 O -1.0905(2) 0.27460(13) 0.46497(11)
O9_2 O -0.8020(3) 0.64582(18) 0.77261(14)
H1_2 H -0.788(4) 0.715(3) 0.752(2)
H2_2 H -0.914(5) 0.593(3) 0.747(2)
O12A O -0.8391(3) 0.54603(16) 0.34990(13)
H7A H -0.805(4) 0.617(3) 0.320(2)
H8A H -0.763(4) 0.512(3) 0.345(2)
loop_
_geom_bond_atom_site_label_1
_geom_bond_atom_site_label_2
_geom_bond_site_symmetry_1
_geom_bond_site_symmetry_2
Cu1 N1 1_555 1_555
K1 O2 1_555 1_555
K2 O6 1_555 1_555
N1 C1 1_555 1_555
N2 Cu1 1_555 1_555
O1 Cu1 1_555 1_555
O2 C6 1_555 1_555
O3 C7 1_555 1_555
O4 C7 1_555 1_555
O5 Cu1 1_555 1_555
O6 C13 1_555 1_555
O7 C14 1_555 1_555
O8 C14 1_555 1_555
O9 K1 1_555 1_555
H1 O9 1_555 1_555
H2 O9 1_555 1_555
O10 K1 1_555 1_555
H3 O10 1_555 1_555
H4 O10 1_555 1_555
O11 K2 1_555 1_555
H5 O11 1_555 1_555
H6 O11 1_555 1_555
O12 K2 1_555 1_555
H7 O12 1_555 1_555
H8 O12 1_555 1_555
C1 C2 1_555 1_555
C2 H9 1_555 1_555
C3 C2 1_555 1_555
H10 C3 1_555 1_555
C4 C3 1_555 1_555
C5 N1 1_555 1_555
H11 C5 1_555 1_555
C6 O1 1_555 1_555
C7 C4 1_555 1_555
C8 N2 1_555 1_555
C9 C8 1_555 1_555
H12 C9 1_555 1_555
C10 C9 1_555 1_555
H13 C10 1_555 1_555
C11 C10 1_555 1_555
C12 N2 1_555 1_555
H14 C12 1_555 1_555
C13 O5 1_555 1_555
C14 C11 1_555 1_555
Cu1A O7 1_555 1_555
K1A O2 1_555 1_555
K1_2 O3 1_555 1_555
K1A_2 O3 1_555 1_555
K2A O12 1_555 1_555
K2_2 O8 1_555 1_555
O2A K1 1_555 1_555
O3_2 K1 1_555 1_555
O3A K1 1_555 1_555
O7A Cu1 1_555 1_555
O8_2 K2 1_555 1_555
O9_2 K2 1_555 1_555
H1_2 O9_2 1_555 1_555
H2_2 O9_2 1_555 1_555
O12A K2 1_555 1_555
H7A O12A 1_555 1_555
H8A O12A 1_555 1_555
O9 K2_2 1_555 1_555
C1 C6 1_555 1_555
C4 C5 1_555 1_555
C8 C13 1_555 1_555
C11 C12 1_555 1_555
K1A O2A 1_555 1_555
K2A O12A 1_555 1_555

#END
