
#######################################################################
#
#                 Cambridge Crystallographic Data Centre
#                                CCDC 
#
#######################################################################
#
# If this CIF has been generated from an entry in the Cambridge 
# Structural Database, then it will include bibliographic, chemical, 
# crystal, experimental, refinement or atomic coordinate data resulting 
# from the CCDC's data processing and validation procedures.
#
#######################################################################

data_XINKEL
_symmetry_cell_setting           triclinic
_symmetry_space_group_name_H-M   'P -1'
_symmetry_Int_Tables_number      2
_space_group_name_Hall           '-P 1'
loop_
_symmetry_equiv_pos_site_id
_symmetry_equiv_pos_as_xyz
1 x,y,z
2 -x,-y,-z
_cell_length_a                   5.05430(10)
_cell_length_b                   7.4409(2)
_cell_length_c                   9.1540(3)
_cell_angle_alpha                99.4225(15)
_cell_angle_beta                 99.4699(15)
_cell_angle_gamma                97.4062(18)
_cell_volume                     330.671
loop_
_atom_site_label
_atom_site_type_symbol
_atom_site_fract_x
_atom_site_fract_y
_atom_site_fract_z
Cu1 Cu -0.5000 1.5000 2.0000
Mn1 Mn 0.0000 1.5000 1.5000
N1 N -0.4857(3) 1.25912(19) 1.88257(16)
O1 O -0.2107(2) 1.58498(16) 1.89942(14)
O2 O 0.0556(2) 1.48024(17) 1.74485(13)
O3 O -0.1693(2) 0.75399(17) 1.55625(14)
O4 O -0.6146(2) 0.66044(17) 1.53519(15)
C1 C -0.2936(3) 1.2657(2) 1.79661(18)
C2 C -0.2516(3) 1.1105(2) 1.70235(18)
H1 H -0.112(4) 1.123(3) 1.646(2)
C3 C -0.4219(3) 0.9442(2) 1.69325(18)
C4 C -0.6224(3) 0.9390(2) 1.78088(19)
H2 H -0.732(4) 0.834(3) 1.778(2)
C5 C -0.6458(3) 1.0988(2) 1.87647(19)
H3 H -0.780(4) 1.099(3) 1.940(2)
C6 C -0.1360(3) 1.4569(2) 1.81265(18)
C7 C -0.3991(3) 0.7701(2) 1.58653(18)
Mn1_2 Mn 0.0000 0.5000 1.5000
Mn1_3 Mn -1.0000 0.5000 1.5000
Mn1_4 Mn -1.0000 1.5000 2.5000
Mn1_5 Mn -1.0000 2.5000 2.5000
Mn1_6 Mn 0.0000 2.5000 2.5000
N1A N -0.5143(3) 1.74088(19) 2.11743(16)
O1A O -0.7893(2) 1.41502(16) 2.10058(14)
O2A O -1.0556(2) 1.51976(17) 2.25515(13)
O2A_2 O -0.0556(2) 1.51976(17) 1.25515(13)
O3A O -0.8307(2) 2.24601(17) 2.44375(14)
O3_2 O -0.1693(2) 1.75399(17) 1.55625(14)
O3A_2 O 0.1693(2) 1.24601(17) 1.44375(14)
O4A O -0.3854(2) 2.33956(17) 2.46481(15)
O4_2 O 0.3854(2) 1.66044(17) 1.53519(15)
O4A_2 O -0.3854(2) 1.33956(17) 1.46481(15)
C1A C -0.7064(3) 1.7343(2) 2.20339(18)
C2A C -0.7484(3) 1.8895(2) 2.29765(18)
H1A H -0.888(4) 1.877(3) 2.354(2)
C3A C -0.5781(3) 2.0558(2) 2.30675(18)
C4A C -0.3776(3) 2.0610(2) 2.21912(19)
H2A H -0.268(4) 2.166(3) 2.222(2)
C5A C -0.3542(3) 1.9012(2) 2.12353(19)
H3A H -0.220(4) 1.901(3) 2.060(2)
C6A C -0.8640(3) 1.5431(2) 2.18735(18)
C7A C -0.6009(3) 2.2299(2) 2.41347(18)
loop_
_geom_bond_atom_site_label_1
_geom_bond_atom_site_label_2
_geom_bond_site_symmetry_1
_geom_bond_site_symmetry_2
Cu1 N1 1_555 1_555
Mn1 O2 1_555 1_555
N1 C1 1_555 1_555
O1 Cu1 1_555 1_555
O2 C6 1_555 1_555
O3 C7 1_555 1_555
O4 C7 1_555 1_555
C1 C2 1_555 1_555
C2 H1 1_555 1_555
C3 C2 1_555 1_555
C4 C3 1_555 1_555
H2 C4 1_555 1_555
C5 N1 1_555 1_555
H3 C5 1_555 1_555
C6 O1 1_555 1_555
C7 C3 1_555 1_555
Mn1_2 O3 1_555 1_555
Mn1_3 O4 1_555 1_555
Mn1_4 O2A 1_555 1_555
Mn1_5 O3A 1_555 1_555
Mn1_6 O4A 1_555 1_555
N1A Cu1 1_555 1_555
O1A Cu1 1_555 1_555
O2A C6A 1_555 1_555
O2A_2 Mn1 1_555 1_555
O3A C7A 1_555 1_555
O3_2 Mn1 1_555 1_555
O3A_2 Mn1 1_555 1_555
O4A C7A 1_555 1_555
O4_2 Mn1 1_555 1_555
O4A_2 Mn1 1_555 1_555
C1A N1A 1_555 1_555
C2A C1A 1_555 1_555
H1A C2A 1_555 1_555
C3A C2A 1_555 1_555
C4A C3A 1_555 1_555
H2A C4A 1_555 1_555
C5A N1A 1_555 1_555
H3A C5A 1_555 1_555
C6A O1A 1_555 1_555
C7A C3A 1_555 1_555
C1 C6 1_555 1_555
C4 C5 1_555 1_555
C1A C6A 1_555 1_555
C4A C5A 1_555 1_555

#END
