
#######################################################################
#
#                 Cambridge Crystallographic Data Centre
#                                CCDC 
#
#######################################################################
#
# If this CIF has been generated from an entry in the Cambridge 
# Structural Database, then it will include bibliographic, chemical, 
# crystal, experimental, refinement or atomic coordinate data resulting 
# from the CCDC's data processing and validation procedures.
#
#######################################################################

data_XINKUB01
_symmetry_cell_setting           triclinic
_symmetry_space_group_name_H-M   'P -1'
_symmetry_Int_Tables_number      2
_space_group_name_Hall           '-P 1'
loop_
_symmetry_equiv_pos_site_id
_symmetry_equiv_pos_as_xyz
1 x,y,z
2 -x,-y,-z
_cell_length_a                   4.8112(2)
_cell_length_b                   7.6524(4)
_cell_length_c                   13.7283(7)
_cell_angle_alpha                99.503(2)
_cell_angle_beta                 98.269(2)
_cell_angle_gamma                103.918(2)
_cell_volume                     474.891
loop_
_atom_site_label
_atom_site_type_symbol
_atom_site_fract_x
_atom_site_fract_y
_atom_site_fract_z
Cu1 Cu 0.0000 0.5000 0.0000
Cu2 Cu 1.0000 1.0000 0.5000
O1 O 0.2910(5) 0.5611(3) -0.08241(18)
O2 O 0.7417(5) 0.7391(3) -0.07019(19)
O3 O 0.6000(5) 1.1384(3) 0.41460(19)
O4 O 0.1484(5) 0.9469(3) 0.37701(18)
O5 O 1.2896(6) 1.2342(4) 0.5500(2)
H1 H 1.2896 1.3081 0.6137
H2 H 1.4331 1.2766 0.5111
N1 N 0.2621(6) 0.7132(4) 0.1007(2)
C1 C 0.5140(7) 0.6934(5) -0.0378(3)
C2 C 0.4967(7) 0.7938(4) 0.0648(3)
C3 C 0.7036(7) 0.9496(5) 0.1185(3)
H7 H 0.8650 1.0042 0.0897
C4 C 0.6733(7) 1.0251(5) 0.2142(3)
H8 H 0.8162 1.1346 0.2520
C5 C 0.4345(7) 0.9406(5) 0.2524(3)
C6 C 0.2332(7) 0.7839(5) 0.1932(3)
H9 H 0.0705 0.7267 0.2207
C7 C 0.3941(7) 1.0165(5) 0.3570(2)
Cu1_2 Cu 1.0000 0.5000 0.0000
Cu1_3 Cu -1.0000 0.5000 0.0000
Cu2_2 Cu 0.0000 1.0000 0.5000
Cu2_3 Cu -1.0000 0.0000 -0.5000
Cu2_4 Cu 0.0000 0.0000 -0.5000
O1A O -0.2910(5) 0.4389(3) 0.08241(18)
O2A O -0.7417(5) 0.2609(3) 0.07019(19)
O2_2 O -0.2583(5) 0.7391(3) -0.07019(19)
O2A_2 O 0.2583(5) 0.2609(3) 0.07019(19)
O3A O -0.6000(5) -0.1384(3) -0.41460(19)
O3A_2 O 1.4000(5) 0.8616(3) 0.58540(19)
O4A O -0.1484(5) 0.0531(3) -0.37701(18)
O4_2 O 1.1484(5) 0.9469(3) 0.37701(18)
O4A_2 O 0.8516(5) 1.0531(3) 0.62299(18)
O5A O 0.7104(6) 0.7658(4) 0.4500(2)
H1A H 0.7104 0.6919 0.3863
H2A H 0.5669 0.7234 0.4889
N1A N -0.2621(6) 0.2868(4) -0.1007(2)
C1A C -0.5140(7) 0.3066(5) 0.0378(3)
C2A C -0.4967(7) 0.2062(4) -0.0648(3)
C3A C -0.7036(7) 0.0504(5) -0.1185(3)
H7A H -0.8650 -0.0042 -0.0897
C4A C -0.6733(7) -0.0251(5) -0.2142(3)
H8A H -0.8162 -0.1346 -0.2520
C5A C -0.4345(7) 0.0594(5) -0.2524(3)
C6A C -0.2332(7) 0.2161(5) -0.1932(3)
H9A H -0.0705 0.2733 -0.2207
C7A C -0.3941(7) -0.0165(5) -0.3570(2)
O6 O 0.8775(7) 0.4752(4) 0.3757(2)
H3 H 1.0831 0.5011 0.3760
H4 H 0.8093 0.5232 0.4341
O7 O 0.2830(7) 0.4033(5) 0.2696(2)
H5 H 0.4872 0.4485 0.2984
H6 H 0.1438 0.4498 0.3020
loop_
_geom_bond_atom_site_label_1
_geom_bond_atom_site_label_2
_geom_bond_site_symmetry_1
_geom_bond_site_symmetry_2
Cu1 O1 1_555 1_555
Cu2 O3 1_555 1_555
O1 C1 1_555 1_555
O2 C1 1_555 1_555
O3 C7 1_555 1_555
O4 C7 1_555 1_555
O5 Cu2 1_555 1_555
H1 O5 1_555 1_555
H2 O5 1_555 1_555
O6 H3 1_555 1_555
H4 O6 1_555 1_555
O7 H5 1_555 1_555
H6 O7 1_555 1_555
N1 Cu1 1_555 1_555
C1 C2 1_555 1_555
C2 N1 1_555 1_555
C3 C2 1_555 1_555
H7 C3 1_555 1_555
C4 C3 1_555 1_555
H8 C4 1_555 1_555
C5 C4 1_555 1_555
C6 N1 1_555 1_555
H9 C6 1_555 1_555
C7 C5 1_555 1_555
Cu1_2 O2 1_555 1_555
Cu1_3 O2A 1_555 1_555
Cu2_2 O4 1_555 1_555
Cu2_3 O3A 1_555 1_555
Cu2_4 O4A 1_555 1_555
O1A Cu1 1_555 1_555
O2A C1A 1_555 1_555
O2_2 Cu1 1_555 1_555
O2A_2 Cu1 1_555 1_555
O3A C7A 1_555 1_555
O3A_2 Cu2 1_555 1_555
O4A C7A 1_555 1_555
O4_2 Cu2 1_555 1_555
O4A_2 Cu2 1_555 1_555
O5A Cu2 1_555 1_555
H1A O5A 1_555 1_555
H2A O5A 1_555 1_555
N1A Cu1 1_555 1_555
C1A O1A 1_555 1_555
C2A N1A 1_555 1_555
C3A C2A 1_555 1_555
H7A C3A 1_555 1_555
C4A C3A 1_555 1_555
H8A C4A 1_555 1_555
C5A C4A 1_555 1_555
C6A N1A 1_555 1_555
H9A C6A 1_555 1_555
C7A C5A 1_555 1_555
C5 C6 1_555 1_555
C1A C2A 1_555 1_555
C5A C6A 1_555 1_555

#END
