
#######################################################################
#
#                 Cambridge Crystallographic Data Centre
#                                CCDC 
#
#######################################################################
#
# If this CIF has been generated from an entry in the Cambridge 
# Structural Database, then it will include bibliographic, chemical, 
# crystal, experimental, refinement or atomic coordinate data resulting 
# from the CCDC's data processing and validation procedures.
#
#######################################################################

data_XINKUB02
_symmetry_cell_setting           triclinic
_symmetry_space_group_name_H-M   'P -1'
_symmetry_Int_Tables_number      2
_space_group_name_Hall           '-P 1'
loop_
_symmetry_equiv_pos_site_id
_symmetry_equiv_pos_as_xyz
1 x,y,z
2 -x,-y,-z
_cell_length_a                   9.9652(4)
_cell_length_b                   10.7643(4)
_cell_length_c                   14.1061(5)
_cell_angle_alpha                74.048(2)
_cell_angle_beta                 78.766(2)
_cell_angle_gamma                88.0310(10)
_cell_volume                     1426.7
loop_
_atom_site_label
_atom_site_type_symbol
_atom_site_fract_x
_atom_site_fract_y
_atom_site_fract_z
Cu1 Cu 0.5000 0.0000 1.0000
Cu2 Cu 0.33328(11) 0.16684(10) 0.50003(7)
Cu3 Cu 0.83335(11) -0.33329(9) 1.00010(7)
Cu4 Cu 0.0000 0.5000 0.5000
O1 O 0.5286(5) -0.1726(4) 1.0824(3)
O2 O 0.5658(5) -0.3736(4) 1.0694(3)
O3 O 0.3768(5) 0.0530(5) 0.6227(3)
O4 O 0.4123(5) -0.1360(4) 0.5856(3)
O5 O 0.3740(5) 0.3078(4) 0.5491(3)
H1 H 0.3639 0.3815 0.5604
H2 H 0.4207 0.2625 0.5900
O6 O 0.2899(6) 0.0281(5) 0.4486(4)
H3 H 0.2084 -0.0067 0.4686
H4 H 0.3439 -0.0384 0.4511
O7 O 0.2895(5) 0.2803(5) 0.3766(3)
O8 O 0.2537(5) 0.4695(4) 0.4149(4)
O9 O 0.1028(5) 0.7062(5) -0.0696(3)
O10 O 0.1385(5) 0.5049(4) -0.0813(3)
O11 O 0.1958(5) 0.1596(5) 1.0829(3)
O12 O 0.2320(5) -0.0408(4) 1.0695(3)
O13 O 0.0782(5) 0.1961(4) 0.5851(4)
O14 O 0.0440(5) 0.3855(4) 0.6228(3)
O15 O 0.0424(5) 0.6427(5) 0.5513(4)
N1 N 0.4801(6) -0.0913(5) 0.8981(4)
N2 N 0.1884(5) 0.4245(5) 0.1007(4)
N3 N 0.1439(6) 0.2424(5) 0.8991(4)
C1 C 0.5301(8) -0.2627(8) 1.0397(5)
C2 C 0.4917(7) -0.2194(7) 0.9356(5)
C3 C 0.4730(7) -0.3045(7) 0.8802(5)
H17 H 0.4786 -0.3933 0.9070
C4 C 0.4460(7) -0.2547(7) 0.7849(5)
H18 H 0.4343 -0.3096 0.7464
C5 C 0.4367(7) -0.1246(7) 0.7476(5)
C6 C 0.4518(7) -0.0432(7) 0.8068(5)
H19 H 0.4420 0.0454 0.7822
C7 C 0.4063(7) -0.0657(7) 0.6433(5)
C8 C 0.2603(7) 0.3976(7) 0.3571(5)
C9 C 0.2316(7) 0.4557(7) 0.2524(5)
C10 C 0.2208(7) 0.5898(7) 0.2137(5)
H20 H 0.2327 0.6455 0.2517
C11 C 0.1918(7) 0.6386(7) 0.1174(5)
H21 H 0.1839 0.7269 0.0901
C12 C 0.1753(7) 0.5538(6) 0.0644(5)
C13 C 0.2137(7) 0.3765(7) 0.1933(5)
H22 H 0.2195 0.2875 0.2187
C14 C 0.1375(7) 0.5925(7) -0.0364(5)
C15 C 0.1972(7) 0.0721(7) 1.0376(5)
C16 C 0.1559(7) 0.1132(7) 0.9342(5)
C17 C 0.1402(7) 0.0285(7) 0.8808(5)
H23 H 0.1472 -0.0600 0.9081
C18 C 0.1137(7) 0.0774(7) 0.7855(5)
H24 H 0.1039 0.0221 0.7468
C19 C 0.1015(7) 0.2114(7) 0.7470(5)
C20 C 0.1186(7) 0.2891(7) 0.8072(5)
H25 H 0.1120 0.3781 0.7822
C21 C 0.0720(8) 0.2669(7) 0.6438(5)
Cu2A Cu 0.66672(11) -0.16684(10) 1.49997(7)
Cu2A_2 Cu 0.66672(11) -0.16684(10) 0.49997(7)
Cu2_2 Cu 0.33328(11) 0.16684(10) 1.50003(7)
Cu2_3 Cu 1.33328(11) -0.83316(10) 1.50003(7)
Cu3A Cu 0.16665(11) 0.33329(9) 0.99990(7)
Cu3_2 Cu -0.16665(11) 0.66671(9) 0.00010(7)
Cu3A_2 Cu 0.16665(11) 0.33329(9) -0.00010(7)
Cu3A_3 Cu 1.16665(11) -0.66671(9) 0.99990(7)
Cu4_2 Cu 1.0000 -0.5000 1.5000
O1A O 0.4714(5) 0.1726(4) 0.9176(3)
O2A O 0.4342(5) 0.3736(4) 0.9306(3)
O3A O 0.6232(5) -0.0530(5) 1.3773(3)
O4A O 0.5877(5) 0.1360(4) 1.4144(3)
O4A_2 O 0.5877(5) 0.1360(4) 0.4144(3)
O4_2 O 0.4123(5) -0.1360(4) 1.5856(3)
O5A O 0.6260(5) -0.3078(4) 1.4509(3)
H1A H 0.6361 -0.3815 1.4396
H2A H 0.5793 -0.2625 1.4100
O6A O 0.7101(6) -0.0281(5) 1.5514(4)
H3A H 0.7916 0.0067 1.5314
H4A H 0.6561 0.0384 1.5489
O7_2 O 1.2895(5) -0.7197(5) 1.3766(3)
O7A O 0.7105(5) -0.2803(5) 1.6234(3)
O8_2 O 1.2537(5) -0.5305(4) 1.4149(4)
O8A O -0.2537(5) 0.5305(4) 0.5851(4)
O9_2 O 1.1028(5) -0.2938(5) 0.9304(3)
O9A O -0.1028(5) 0.2938(5) 1.0696(3)
O10_2 O 1.1385(5) -0.4951(4) 0.9187(3)
O10A O 0.8615(5) -0.5049(4) 1.0813(3)
O10_3 O 0.1385(5) 0.5049(4) 0.9187(3)
O11A O 0.8042(5) -0.1596(5) 0.9171(3)
O12A O 0.7680(5) 0.0408(4) 0.9305(3)
O13A O 0.9218(5) -0.1961(4) 1.4149(4)
O14A O 0.9560(5) -0.3855(4) 1.3772(3)
O14A_2 O -0.0440(5) 0.6145(4) 0.3772(3)
O15A O -0.0424(5) 0.3573(5) 0.4487(4)
N1A N 0.5199(6) 0.0913(5) 1.1019(4)
N2_2 N 1.1884(5) -0.5755(5) 1.1007(4)
N2A N 0.8116(5) -0.4245(5) 0.8993(4)
N2_3 N 0.1884(5) 0.4245(5) 1.1007(4)
N3A N 0.8561(6) -0.2424(5) 1.1009(4)
C1A C 0.4699(8) 0.2627(8) 0.9603(5)
C2A C 0.5083(7) 0.2194(7) 1.0644(5)
C3A C 0.5270(7) 0.3045(7) 1.1198(5)
H17A H 0.5214 0.3933 1.0930
C4A C 0.5540(7) 0.2547(7) 1.2151(5)
H18A H 0.5657 0.3096 1.2536
C5A C 0.5633(7) 0.1246(7) 1.2524(5)
C6A C 0.5482(7) 0.0432(7) 1.1932(5)
H19A H 0.5580 -0.0454 1.2178
C7A C 0.5937(7) 0.0657(7) 1.3567(5)
C8_2 C 1.2603(7) -0.6024(7) 1.3571(5)
C9_2 C 1.2316(7) -0.5443(7) 1.2524(5)
C10_2 C 1.2208(7) -0.4102(7) 1.2137(5)
H20_2 H 1.2327 -0.3545 1.2517
C11_2 C 1.1918(7) -0.3614(7) 1.1174(5)
H21_2 H 1.1839 -0.2731 1.0901
C12_2 C 1.1753(7) -0.4462(6) 1.0644(5)
C13_2 C 1.2137(7) -0.6235(7) 1.1933(5)
H22_2 H 1.2195 -0.7125 1.2187
C14_2 C 1.1375(7) -0.4075(7) 0.9636(5)
C15A C 0.8028(7) -0.0721(7) 0.9624(5)
C16A C 0.8441(7) -0.1132(7) 1.0658(5)
C17A C 0.8598(7) -0.0285(7) 1.1192(5)
H23A H 0.8528 0.0600 1.0919
C18A C 0.8863(7) -0.0774(7) 1.2145(5)
H24A H 0.8961 -0.0221 1.2532
C19A C 0.8985(7) -0.2114(7) 1.2530(5)
C20A C 0.8814(7) -0.2891(7) 1.1928(5)
H25A H 0.8880 -0.3781 1.2178
C21A C 0.9280(8) -0.2669(7) 1.3562(5)
O16 O 0.2482(6) 0.8811(5) 0.2689(4)
H5 H 0.3188 0.9262 0.2389
H6 H 0.2215 0.8960 0.3256
O17 O 0.4025(5) 0.7034(5) 0.3758(4)
H7 H 0.3385 0.6564 0.4177
H8 H 0.3727 0.7366 0.3220
O18 O 0.0651(5) 0.0314(5) 0.3760(4)
H9 H 0.0028 0.0859 0.3830
H10 H 0.1419 0.0703 0.3641
O19 O 0.7291(5) 0.3653(5) 0.3769(4)
H11 H 0.7426 0.4304 0.3256
H12 H 0.8013 0.3549 0.4016
O20 O 0.5847(6) 0.5478(5) 0.2719(4)
H13 H 0.6425 0.5854 0.2198
H14 H 0.5073 0.5815 0.2657
O21 O 0.9188(5) 0.2150(5) 0.2682(4)
H15 H 0.9267 0.2858 0.2825
H16 H 0.9864 0.1687 0.2834
loop_
_geom_bond_atom_site_label_1
_geom_bond_atom_site_label_2
_geom_bond_site_symmetry_1
_geom_bond_site_symmetry_2
Cu1 O1 1_555 1_555
Cu2 O3 1_555 1_555
Cu3 O2 1_555 1_555
Cu4 O8 1_555 1_555
O1 C1 1_555 1_555
O2 C1 1_555 1_555
O3 C7 1_555 1_555
O4 C7 1_555 1_555
O5 Cu2 1_555 1_555
H1 O5 1_555 1_555
H2 O5 1_555 1_555
O6 Cu2 1_555 1_555
H3 O6 1_555 1_555
H4 O6 1_555 1_555
O7 Cu2 1_555 1_555
O8 C8 1_555 1_555
O9 C14 1_555 1_555
O10 C14 1_555 1_555
O11 C15 1_555 1_555
O12 Cu1 1_555 1_555
O13 Cu2 1_555 1_555
O14 Cu4 1_555 1_555
O15 Cu4 1_555 1_555
O16 H5 1_555 1_555
H6 O16 1_555 1_555
O17 H7 1_555 1_555
H8 O17 1_555 1_555
O18 H9 1_555 1_555
H10 O18 1_555 1_555
O19 H11 1_555 1_555
H12 O19 1_555 1_555
O20 H13 1_555 1_555
H14 O20 1_555 1_555
O21 H15 1_555 1_555
H16 O21 1_555 1_555
N1 Cu1 1_555 1_555
N2 C12 1_555 1_555
N3 C16 1_555 1_555
C1 C2 1_555 1_555
C2 N1 1_555 1_555
C3 C2 1_555 1_555
H17 C3 1_555 1_555
C4 C3 1_555 1_555
H18 C4 1_555 1_555
C5 C4 1_555 1_555
C6 N1 1_555 1_555
H19 C6 1_555 1_555
C7 C5 1_555 1_555
C8 O7 1_555 1_555
C9 C8 1_555 1_555
C10 C9 1_555 1_555
H20 C10 1_555 1_555
C11 C10 1_555 1_555
H21 C11 1_555 1_555
C12 C11 1_555 1_555
C13 N2 1_555 1_555
H22 C13 1_555 1_555
C14 C12 1_555 1_555
C15 O12 1_555 1_555
C16 C15 1_555 1_555
C17 C16 1_555 1_555
H23 C17 1_555 1_555
C18 C17 1_555 1_555
H24 C18 1_555 1_555
C19 C18 1_555 1_555
C20 N3 1_555 1_555
H25 C20 1_555 1_555
C21 O13 1_555 1_555
Cu2A O3A 1_555 1_555
Cu2A_2 O4 1_555 1_555
Cu2_2 O4A 1_555 1_555
Cu2_3 O7_2 1_555 1_555
Cu3A O11 1_555 1_555
Cu3_2 O9 1_555 1_555
Cu3A_2 O10 1_555 1_555
Cu3A_3 O10_2 1_555 1_555
Cu4_2 O8_2 1_555 1_555
O1A Cu1 1_555 1_555
O2A Cu3A 1_555 1_555
O3A C7A 1_555 1_555
O4A C7A 1_555 1_555
O4A_2 Cu2 1_555 1_555
O4_2 Cu2A 1_555 1_555
O5A Cu2A 1_555 1_555
H1A O5A 1_555 1_555
H2A O5A 1_555 1_555
O6A Cu2A 1_555 1_555
H3A O6A 1_555 1_555
H4A O6A 1_555 1_555
O7_2 C8_2 1_555 1_555
O7A Cu2A 1_555 1_555
O8_2 C8_2 1_555 1_555
O8A Cu4 1_555 1_555
O9_2 Cu3 1_555 1_555
O9A Cu3A 1_555 1_555
O10_2 C14_2 1_555 1_555
O10A Cu3 1_555 1_555
O10_3 Cu3A 1_555 1_555
O11A Cu3 1_555 1_555
O12A Cu1 1_555 1_555
O13A Cu2A 1_555 1_555
O14A Cu4_2 1_555 1_555
O14A_2 Cu4 1_555 1_555
O15A Cu4 1_555 1_555
N1A Cu1 1_555 1_555
N2_2 Cu3A_3 1_555 1_555
N2A Cu3 1_555 1_555
N2_3 Cu3A 1_555 1_555
N3A Cu3 1_555 1_555
C1A O1A 1_555 1_555
C2A N1A 1_555 1_555
C3A C2A 1_555 1_555
H17A C3A 1_555 1_555
C4A C3A 1_555 1_555
H18A C4A 1_555 1_555
C5A C4A 1_555 1_555
C6A N1A 1_555 1_555
H19A C6A 1_555 1_555
C7A C5A 1_555 1_555
C8_2 C9_2 1_555 1_555
C9_2 C10_2 1_555 1_555
C10_2 H20_2 1_555 1_555
C11_2 C10_2 1_555 1_555
H21_2 C11_2 1_555 1_555
C12_2 N2_2 1_555 1_555
C13_2 N2_2 1_555 1_555
H22_2 C13_2 1_555 1_555
C14_2 O9_2 1_555 1_555
C15A O11A 1_555 1_555
C16A N3A 1_555 1_555
C17A C16A 1_555 1_555
H23A C17A 1_555 1_555
C18A C17A 1_555 1_555
H24A C18A 1_555 1_555
C19A C18A 1_555 1_555
C20A N3A 1_555 1_555
H25A C20A 1_555 1_555
C21A O13A 1_555 1_555
O14 C21 1_555 1_555
N2 Cu3A_2 1_555 1_555
N3 Cu3A 1_555 1_555
C5 C6 1_555 1_555
C9 C13 1_555 1_555
C19 C20 1_555 1_555
C19 C21 1_555 1_555
O2A C1A 1_555 1_555
O12A C15A 1_555 1_555
O14A C21A 1_555 1_555
C1A C2A 1_555 1_555
C5A C6A 1_555 1_555
C9_2 C13_2 1_555 1_555
C11_2 C12_2 1_555 1_555
C12_2 C14_2 1_555 1_555
C15A C16A 1_555 1_555
C19A C20A 1_555 1_555
C19A C21A 1_555 1_555

#END
