
#######################################################################
#
#                 Cambridge Crystallographic Data Centre
#                                CCDC 
#
#######################################################################
#
# If this CIF has been generated from an entry in the Cambridge 
# Structural Database, then it will include bibliographic, chemical, 
# crystal, experimental, refinement or atomic coordinate data resulting 
# from the CCDC's data processing and validation procedures.
#
#######################################################################

data_XINKUB
_symmetry_cell_setting           triclinic
_symmetry_space_group_name_H-M   'P -1'
_symmetry_Int_Tables_number      2
_space_group_name_Hall           '-P 1'
loop_
_symmetry_equiv_pos_site_id
_symmetry_equiv_pos_as_xyz
1 x,y,z
2 -x,-y,-z
_cell_length_a                   4.7978(2)
_cell_length_b                   7.6519(3)
_cell_length_c                   13.7692(6)
_cell_angle_alpha                99.689(2)
_cell_angle_beta                 98.4139(18)
_cell_angle_gamma                103.697(2)
_cell_volume                     474.882
loop_
_atom_site_label
_atom_site_type_symbol
_atom_site_fract_x
_atom_site_fract_y
_atom_site_fract_z
Cu1 Cu 0.0000 1.0000 1.0000
Cu2 Cu 0.0000 0.5000 0.5000
N1 N 0.2614(5) 0.7125(3) 0.60093(19)
O1 O 0.2915(4) 0.5617(3) 0.41800(16)
O2 O 0.7433(4) 0.7398(3) 0.43074(16)
O3 O 0.6004(5) 1.1384(3) 0.91478(16)
O4 O 0.1484(4) 0.9470(3) 0.87699(16)
O5 O 0.2914(6) 1.2319(4) 1.0517(2)
H1 H 0.410(11) 1.238(7) 1.018(4)
H2 H 0.234(8) 1.316(6) 1.067(3)
C1 C 0.4958(6) 0.7942(4) 0.5652(2)
C2 C 0.7025(7) 0.9507(4) 0.6189(2)
H7 H 0.861(8) 1.002(5) 0.591(3)
C3 C 0.6709(7) 1.0247(5) 0.7147(2)
H8 H 0.803(7) 1.117(5) 0.751(2)
C4 C 0.4343(6) 0.9399(4) 0.7527(2)
C5 C 0.2327(6) 0.7838(4) 0.6931(2)
H9 H 0.068(8) 0.722(5) 0.714(3)
C6 C 0.5132(7) 0.6944(4) 0.4631(2)
C7 C 0.3943(6) 1.0164(4) 0.8567(2)
Cu2_2 Cu 0.0000 1.5000 1.5000
N1A N -0.2614(5) 1.2875(3) 1.39907(19)
N1A_2 N -0.2614(5) 0.2875(3) 0.39907(19)
O1A O -0.2915(4) 1.4383(3) 1.58200(16)
O1A_2 O -0.2915(4) 0.4383(3) 0.58200(16)
O2A O -0.7433(4) 1.2602(3) 1.56926(16)
O3A O -0.6004(5) 0.8616(3) 1.08522(16)
O4A O -0.1484(4) 1.0530(3) 1.12301(16)
O5A O -0.2914(6) 0.7681(4) 0.9483(2)
H1A H -0.410(11) 0.762(7) 0.982(4)
H2A H -0.234(8) 0.684(6) 0.933(3)
C1A C -0.4958(6) 1.2058(4) 1.4348(2)
C2A C -0.7025(7) 1.0493(4) 1.3811(2)
H7A H -0.861(8) 0.998(5) 1.409(3)
C3A C -0.6709(7) 0.9753(5) 1.2853(2)
H8A H -0.803(7) 0.883(5) 1.249(2)
C4A C -0.4343(6) 1.0601(4) 1.2473(2)
C5A C -0.2327(6) 1.2162(4) 1.3069(2)
H9A H -0.068(8) 1.278(5) 1.286(3)
C6A C -0.5132(7) 1.3056(4) 1.5369(2)
C7A C -0.3943(6) 0.9836(4) 1.1433(2)
O6 O 0.2799(7) 0.4026(5) 0.7701(2)
H3 H 0.454(11) 0.441(7) 0.791(4)
H4 H 0.267(9) 0.375(6) 0.717(3)
O7 O 0.8765(6) 1.4769(4) 0.8759(2)
H5 H 1.000(11) 1.473(7) 0.844(4)
H6 H 0.844(8) 1.381(6) 0.895(3)
loop_
_geom_bond_atom_site_label_1
_geom_bond_atom_site_label_2
_geom_bond_site_symmetry_1
_geom_bond_site_symmetry_2
Cu1 O4 1_555 1_555
Cu2 N1 1_555 1_555
N1 C1 1_555 1_555
O1 Cu2 1_555 1_555
O2 C6 1_555 1_555
O3 C7 1_555 1_555
O4 C7 1_555 1_555
O5 Cu1 1_555 1_555
H1 O5 1_555 1_555
H2 O5 1_555 1_555
O6 H3 1_555 1_555
H4 O6 1_555 1_555
O7 H5 1_555 1_555
H6 O7 1_555 1_555
C1 C2 1_555 1_555
C2 H7 1_555 1_555
C3 C2 1_555 1_555
H8 C3 1_555 1_555
C4 C3 1_555 1_555
C5 N1 1_555 1_555
H9 C5 1_555 1_555
C6 O1 1_555 1_555
C7 C4 1_555 1_555
Cu2_2 N1A 1_555 1_555
N1A C1A 1_555 1_555
N1A_2 Cu2 1_555 1_555
O1A Cu2_2 1_555 1_555
O1A_2 Cu2 1_555 1_555
O2A C6A 1_555 1_555
O3A C7A 1_555 1_555
O4A Cu1 1_555 1_555
O5A Cu1 1_555 1_555
H1A O5A 1_555 1_555
H2A O5A 1_555 1_555
C1A C2A 1_555 1_555
C2A H7A 1_555 1_555
C3A C2A 1_555 1_555
H8A C3A 1_555 1_555
C4A C3A 1_555 1_555
C5A N1A 1_555 1_555
H9A C5A 1_555 1_555
C6A O1A 1_555 1_555
C7A O4A 1_555 1_555
C1 C6 1_555 1_555
C4 C5 1_555 1_555
C1A C6A 1_555 1_555
C4A C5A 1_555 1_555
C4A C7A 1_555 1_555

#END
