
#######################################################################
#
#                 Cambridge Crystallographic Data Centre
#                                CCDC 
#
#######################################################################
#
# If this CIF has been generated from an entry in the Cambridge 
# Structural Database, then it will include bibliographic, chemical, 
# crystal, experimental, refinement or atomic coordinate data resulting 
# from the CCDC's data processing and validation procedures.
#
#######################################################################

data_XINLEL
_symmetry_cell_setting           monoclinic
_symmetry_space_group_name_H-M   'P 21'
_symmetry_Int_Tables_number      4
_space_group_name_Hall           'P 2yb'
loop_
_symmetry_equiv_pos_site_id
_symmetry_equiv_pos_as_xyz
1 x,y,z
2 -x,1/2+y,-z
_cell_length_a                   5.3320(10)
_cell_length_b                   11.525(2)
_cell_length_c                   9.937(2)
_cell_angle_alpha                90
_cell_angle_beta                 98.16(3)
_cell_angle_gamma                90
_cell_volume                     604.459
loop_
_atom_site_label
_atom_site_type_symbol
_atom_site_fract_x
_atom_site_fract_y
_atom_site_fract_z
Ag1 Ag -0.02155(5) 0.5000 0.87398(3)
O2 O 0.6411(7) 0.7525(3) 0.8375(3)
O3 O 0.3051(6) 0.6404(3) 0.8888(3)
O4 O 0.7238(10) 0.8550(4) 1.0318(5)
O5 O 0.7923(7) 0.5817(4) 1.0726(4)
O6 O 0.6331(8) 0.5102(6) 1.2496(4)
O7 O 0.3067(6) 0.6988(3) 0.6537(3)
O8 O 0.5910(5) 0.5566(3) 0.7447(3)
O9 O 0.0799(6) 0.4315(3) 0.6440(3)
O10 O 0.2124(7) 0.2604(3) 0.5740(4)
O11 O 0.2242(6) 0.6390(3) 0.4383(3)
C1 C 0.5982(11) 0.7849(4) 0.9599(6)
C2 C 0.3667(9) 0.7221(5) 0.9960(5)
C3 C 0.4079(9) 0.6611(6) 1.1326(5)
C4 C 0.6310(9) 0.5793(5) 1.1463(4)
C5 C 0.3393(8) 0.6290(4) 0.5527(4)
C6 C 0.5444(7) 0.5418(4) 0.5997(4)
C7 C 0.4818(8) 0.4179(4) 0.5605(5)
C8 C 0.2374(8) 0.3734(4) 0.5987(4)
B1 B 0.4621(9) 0.6589(4) 0.7836(4)
H1 H 0.219(11) 0.785(5) 0.995(6)
H2 H 0.256(13) 0.621(7) 1.144(7)
H3 H 0.405(13) 0.706(7) 1.193(8)
H4 H 0.748(18) 0.465(10) 1.243(10)
H5 H 0.695(10) 0.565(5) 0.562(5)
H6 H 0.599(14) 0.369(7) 0.595(7)
H7 H 0.467(13) 0.416(6) 0.458(7)
H8 H 0.107(15) 0.241(7) 0.587(7)
O4A O 0.2762(10) 0.3550(4) 0.9682(5)
O5_2 O -0.2077(7) 0.5817(4) 1.0726(4)
O8_2 O -0.4090(5) 0.5566(3) 0.7447(3)
Ag1A Ag 1.02155(5) 1.0000 1.12602(3)
Ag1_2 Ag 0.97845(5) 0.5000 0.87398(3)
O1 O 1.0300(12) 0.3863(7) 1.2958(6)
H9 H 0.968(15) 0.293(8) 1.334(9)
H10 H 1.119(10) 0.429(5) 1.290(6)
loop_
_geom_bond_atom_site_label_1
_geom_bond_atom_site_label_2
_geom_bond_site_symmetry_1
_geom_bond_site_symmetry_2
Ag1 O3 1_555 1_555
O1 H9 1_555 1_555
O2 C1 1_555 1_555
O3 C2 1_555 1_555
O4 C1 1_555 1_555
O5 C4 1_555 1_555
O6 C4 1_555 1_555
O7 C5 1_555 1_555
O8 C6 1_555 1_555
O9 Ag1 1_555 1_555
O10 C8 1_555 1_555
O11 C5 1_555 1_555
C1 C2 1_555 1_555
C2 C3 1_555 1_555
C3 C4 1_555 1_555
C5 C6 1_555 1_555
C6 C7 1_555 1_555
C7 C8 1_555 1_555
C8 O9 1_555 1_555
B1 O2 1_555 1_555
H1 C2 1_555 1_555
H2 C3 1_555 1_555
H3 C3 1_555 1_555
H4 O6 1_555 1_555
H5 C6 1_555 1_555
H6 C7 1_555 1_555
H7 C7 1_555 1_555
H8 O10 1_555 1_555
H10 O1 1_555 1_555
O4A Ag1 1_555 1_555
O5_2 Ag1 1_555 1_555
O8_2 Ag1 1_555 1_555
Ag1A O4 1_555 1_555
Ag1_2 O5 1_555 1_555
O3 B1 1_555 1_555
O7 B1 1_555 1_555
O8 B1 1_555 1_555
O8 Ag1_2 1_555 1_555

#END
