
#######################################################################
#
#                 Cambridge Crystallographic Data Centre
#                                CCDC 
#
#######################################################################
#
# If this CIF has been generated from an entry in the Cambridge 
# Structural Database, then it will include bibliographic, chemical, 
# crystal, experimental, refinement or atomic coordinate data resulting 
# from the CCDC's data processing and validation procedures.
#
#######################################################################

data_XINLAI
_symmetry_cell_setting           triclinic
_symmetry_space_group_name_H-M   'P -1'
_symmetry_Int_Tables_number      2
_space_group_name_Hall           '-P 1'
loop_
_symmetry_equiv_pos_site_id
_symmetry_equiv_pos_as_xyz
1 x,y,z
2 -x,-y,-z
_cell_length_a                   7.5030(3)
_cell_length_b                   7.7725(2)
_cell_length_c                   7.8373(3)
_cell_angle_alpha                112.7675(18)
_cell_angle_beta                 97.0919(16)
_cell_angle_gamma                91.3008(18)
_cell_volume                     416.97
loop_
_atom_site_label
_atom_site_type_symbol
_atom_site_fract_x
_atom_site_fract_y
_atom_site_fract_z
Co1 Co 0.5000 0.5000 1.0000
Cu1 Cu 1.0000 0.5000 1.5000
N1 N 1.1025(2) 0.7097(2) 1.4521(2)
O1 O 0.86290(18) 0.43022(18) 1.25316(18)
O2 O 0.78312(17) 0.55739(19) 1.04681(18)
O3 O 1.2710(2) 1.0756(2) 1.09708(19)
O4 O 1.2806(2) 1.30381(19) 1.38229(19)
C1 C 1.0270(2) 0.7075(3) 1.2862(2)
C2 C 1.0731(2) 0.8417(3) 1.2221(3)
H1 H 1.020(3) 0.837(3) 1.115(3)
C3 C 1.1984(2) 0.9891(3) 1.3364(3)
O5 O 0.4712(2) 0.5531(2) 1.27914(19)
H2 H 0.403(4) 0.480(4) 1.292(4)
H3 H 0.558(4) 0.583(4) 1.360(4)
C4 C 1.2727(3) 0.9937(3) 1.5099(3)
H4 H 1.355(3) 1.088(3) 1.591(3)
O6 O 0.5023(2) 0.7823(2) 1.0595(2)
H5 H 0.568(4) 0.814(4) 1.007(4)
C5 C 1.2239(3) 0.8497(3) 1.5621(3)
H6 H 1.267(3) 0.844(3) 1.670(3)
C6 C 0.8807(2) 0.5527(3) 1.1847(2)
C7 C 1.2543(2) 1.1361(3) 1.2665(3)
H7 H 0.415(4) 0.835(4) 1.049(4)
Cu1_2 Cu 0.0000 0.5000 0.5000
N1A N -0.1025(2) 0.2903(2) 0.5479(2)
N1A_2 N 0.8975(2) 0.2903(2) 1.5479(2)
O1A O 0.13710(18) 0.56978(18) 0.74684(18)
O1A_2 O 1.13710(18) 0.56978(18) 1.74684(18)
O2A O 0.21688(17) 0.44261(19) 0.95319(18)
O3A O -0.2710(2) -0.0756(2) 0.90292(19)
O4A O -0.2806(2) -0.30381(19) 0.61771(19)
C1A C -0.0270(2) 0.2925(3) 0.7138(2)
C2A C -0.0731(2) 0.1583(3) 0.7779(3)
H1A H -0.020(3) 0.163(3) 0.885(3)
C3A C -0.1984(2) 0.0109(3) 0.6636(3)
O5A O 0.5288(2) 0.4469(2) 0.72086(19)
H2A H 0.597(4) 0.520(4) 0.708(4)
H3A H 0.442(4) 0.417(4) 0.640(4)
C4A C -0.2727(3) 0.0063(3) 0.4901(3)
H4A H -0.355(3) -0.088(3) 0.409(3)
O6A O 0.4977(2) 0.2177(2) 0.9405(2)
H5A H 0.432(4) 0.186(4) 0.993(4)
C5A C -0.2239(3) 0.1503(3) 0.4379(3)
H6A H -0.267(3) 0.156(3) 0.330(3)
C6A C 0.1193(2) 0.4473(3) 0.8153(2)
C7A C -0.2543(2) -0.1361(3) 0.7335(3)
H7A H 0.585(4) 0.165(4) 0.951(4)
loop_
_geom_bond_atom_site_label_1
_geom_bond_atom_site_label_2
_geom_bond_site_symmetry_1
_geom_bond_site_symmetry_2
Co1 O2 1_555 1_555
Cu1 N1 1_555 1_555
N1 C1 1_555 1_555
O1 Cu1 1_555 1_555
O2 C6 1_555 1_555
O3 C7 1_555 1_555
O4 C7 1_555 1_555
C1 C2 1_555 1_555
C2 H1 1_555 1_555
C3 C2 1_555 1_555
O5 Co1 1_555 1_555
H2 O5 1_555 1_555
H3 O5 1_555 1_555
C4 C3 1_555 1_555
H4 C4 1_555 1_555
O6 Co1 1_555 1_555
H5 O6 1_555 1_555
C5 N1 1_555 1_555
H6 C5 1_555 1_555
C6 O1 1_555 1_555
C7 C3 1_555 1_555
H7 O6 1_555 1_555
Cu1_2 N1A 1_555 1_555
N1A C1A 1_555 1_555
N1A_2 Cu1 1_555 1_555
O1A Cu1_2 1_555 1_555
O1A_2 Cu1 1_555 1_555
O2A Co1 1_555 1_555
O3A C7A 1_555 1_555
O4A C7A 1_555 1_555
C1A C2A 1_555 1_555
C2A H1A 1_555 1_555
C3A C2A 1_555 1_555
O5A Co1 1_555 1_555
H2A O5A 1_555 1_555
H3A O5A 1_555 1_555
C4A C3A 1_555 1_555
H4A C4A 1_555 1_555
O6A Co1 1_555 1_555
H5A O6A 1_555 1_555
C5A N1A 1_555 1_555
H6A C5A 1_555 1_555
C6A O1A 1_555 1_555
C7A C3A 1_555 1_555
H7A O6A 1_555 1_555
C1 C6 1_555 1_555
C4 C5 1_555 1_555
O2A C6A 1_555 1_555
C1A C6A 1_555 1_555
C4A C5A 1_555 1_555

#END
