
#######################################################################
#
#                 Cambridge Crystallographic Data Centre
#                                CCDC 
#
#######################################################################
#
# If this CIF has been generated from an entry in the Cambridge 
# Structural Database, then it will include bibliographic, chemical, 
# crystal, experimental, refinement or atomic coordinate data resulting 
# from the CCDC's data processing and validation procedures.
#
#######################################################################

data_XINRAP
_symmetry_cell_setting           tetragonal
_symmetry_space_group_name_H-M   'I 41/a'
_symmetry_Int_Tables_number      88
_space_group_name_Hall           '-I 4ad'
loop_
_symmetry_equiv_pos_site_id
_symmetry_equiv_pos_as_xyz
1 x,y,z
2 3/4-y,1/4+x,1/4+z
3 1/2-x,-y,1/2+z
4 3/4+y,3/4-x,3/4+z
5 1/2+x,1/2+y,1/2+z
6 1/4-y,3/4+x,3/4+z
7 -x,1/2-y,z
8 1/4+y,1/4-x,1/4+z
9 -x,-y,-z
10 1/4+y,3/4-x,3/4-z
11 1/2+x,y,1/2-z
12 1/4-y,1/4+x,1/4-z
13 1/2-x,1/2-y,1/2-z
14 3/4+y,1/4-x,1/4-z
15 x,1/2+y,-z
16 3/4-y,3/4+x,3/4-z
_cell_length_a                   16.515(6)
_cell_length_b                   16.515(6)
_cell_length_c                   18.161(7)
_cell_angle_alpha                90
_cell_angle_beta                 90
_cell_angle_gamma                90
_cell_volume                     4953.33
loop_
_atom_site_label
_atom_site_type_symbol
_atom_site_fract_x
_atom_site_fract_y
_atom_site_fract_z
Co1 Co 0.92367(4) 0.50966(4) 0.41684(4)
O1 O 0.8829(3) 0.6144(2) 0.4904(2)
O2 O 0.7991(3) 0.5505(2) 0.1618(2)
O3 O 0.9573(2) 0.4248(2) 0.3387(2)
N1 N 0.8734(2) 0.5943(2) 0.3471(2)
N2 N 0.8095(2) 0.7113(2) 0.3266(2)
N3 N 0.8055(2) 0.6652(2) 0.2624(2)
C1 C 0.8501(3) 0.6669(3) 0.3743(3)
C2 C 0.8441(3) 0.5970(3) 0.2773(3)
C3 C 0.8691(4) 0.6874(3) 0.4526(3)
H1 H 0.9168 0.7216 0.4550
H2 H 0.8241 0.7163 0.4747
C4 C 0.8493(4) 0.5306(3) 0.2218(3)
H3 H 0.9048 0.5242 0.2053
H4 H 0.8318 0.4799 0.2436
H5 H 0.842(5) 0.586(7) 0.480(7)
Co1E Co 0.74034(4) 0.67367(4) 0.16684(4)
Co1I Co 0.75966(4) 0.82633(4) 0.33316(4)
O2G O 0.8005(2) 0.4509(3) 0.4118(2)
N2O N 1.0387(2) 0.5595(2) 0.4234(2)
N3G N 0.9152(2) 0.4445(2) 0.5124(2)
loop_
_geom_bond_atom_site_label_1
_geom_bond_atom_site_label_2
_geom_bond_site_symmetry_1
_geom_bond_site_symmetry_2
Co1 O1 1_555 1_555
O1 C3 1_555 1_555
O2 C4 1_555 1_555
O3 Co1 1_555 1_555
N1 Co1 1_555 1_555
N2 N3 1_555 1_555
N3 C2 1_555 1_555
C1 N1 1_555 1_555
C2 N1 1_555 1_555
C3 C1 1_555 1_555
H1 C3 1_555 1_555
H2 C3 1_555 1_555
C4 C2 1_555 1_555
H3 C4 1_555 1_555
H4 C4 1_555 1_555
H5 O1 1_555 1_555
Co1E O2 1_555 1_555
Co1I N2 1_555 1_555
O2G Co1 1_555 1_555
N2O Co1 1_555 1_555
N3G Co1 1_555 1_555
N2 C1 1_555 1_555
N3 Co1E 1_555 1_555

#END
