
#######################################################################
#
#                 Cambridge Crystallographic Data Centre
#                                CCDC 
#
#######################################################################
#
# If this CIF has been generated from an entry in the Cambridge 
# Structural Database, then it will include bibliographic, chemical, 
# crystal, experimental, refinement or atomic coordinate data resulting 
# from the CCDC's data processing and validation procedures.
#
#######################################################################

data_XINRER
_symmetry_cell_setting           triclinic
_symmetry_space_group_name_H-M   'P -1'
_symmetry_Int_Tables_number      2
_space_group_name_Hall           '-P 1'
loop_
_symmetry_equiv_pos_site_id
_symmetry_equiv_pos_as_xyz
1 x,y,z
2 -x,-y,-z
_cell_length_a                   7.5200(15)
_cell_length_b                   12.025(2)
_cell_length_c                   14.962(3)
_cell_angle_alpha                99.92(3)
_cell_angle_beta                 92.93(3)
_cell_angle_gamma                102.87(3)
_cell_volume                     1293.62
loop_
_atom_site_label
_atom_site_type_symbol
_atom_site_fract_x
_atom_site_fract_y
_atom_site_fract_z
Pt1 Pt 0.68716(6) 0.86703(4) 0.78973(4)
N1 N 0.4813(11) 0.8899(7) 0.7058(6)
H1 H 0.4705 0.8411 0.6528
H2 H 0.5069 0.9626 0.6964
H3 H 0.3765 0.8760 0.7316
N2 N 0.8897(11) 0.8403(7) 0.8701(6)
H4 H 0.8537 0.8373 0.9256
H5 H 0.9884 0.8982 0.8736
H6 H 0.9167 0.7735 0.8467
Ag1 Ag 1.04845(12) 1.30775(8) 0.60756(6)
Ag2 Ag 1.0000 1.5000 1.0000
N3 N 0.9448(11) 1.2637(8) 0.7313(6)
C1 C 0.9495(15) 1.3474(10) 0.8028(8)
H7 H 0.9985 1.4224 0.7939
N4 N 0.8949(12) 1.3401(8) 0.8846(7)
C2 C 0.8238(14) 1.2259(10) 0.8900(8)
C3 C 0.8132(13) 1.1347(9) 0.8220(8)
C4 C 0.8757(15) 1.1515(9) 0.7378(8)
O1 O 0.8713(10) 1.0679(7) 0.6699(6)
N5 N 0.7390(11) 1.0340(7) 0.8556(6)
C5 C 0.7049(15) 1.0695(10) 0.9385(8)
H8 H 0.6533 1.0199 0.9764
N6 N 0.7525(12) 1.1858(8) 0.9635(7)
C6 C 0.7162(17) 1.2525(10) 1.0500(8)
H9 H 0.6006 1.2727 1.0424
H10 H 0.8118 1.3220 1.0677
H11 H 0.7126 1.2061 1.0964
N7 N 0.8251(11) 0.6328(7) 0.5084(6)
C7 C 0.7684(14) 0.5152(10) 0.5021(8)
H12 H 0.7945 0.4690 0.4502
N8 N 0.6800(12) 0.4601(8) 0.5622(7)
C8 C 0.6508(14) 0.5345(10) 0.6363(8)
C9 C 0.6912(13) 0.6549(9) 0.6465(8)
C10 C 0.7914(14) 0.7046(9) 0.5799(8)
N9 N 0.8496(11) 0.8161(8) 0.5860(6)
H13 H 0.9096 0.8429 0.5438
H14 H 0.8280 0.8630 0.6321
N10 N 0.6386(11) 0.7011(7) 0.7269(6)
C11 C 0.5652(14) 0.6112(10) 0.7643(9)
H15 H 0.5184 0.6175 0.8208
N11 N 0.5671(11) 0.5084(7) 0.7096(6)
C12 C 0.5009(14) 0.3909(9) 0.7319(8)
H16 H 0.5510 0.3357 0.6930
H17 H 0.3696 0.3687 0.7226
H18 H 0.5395 0.3927 0.7944
N3A N 1.0552(11) 1.7363(8) 1.2687(6)
C1A C 1.0505(15) 1.6526(10) 1.1972(8)
H7A H 1.0015 1.5776 1.2061
N4A N 1.1051(12) 1.6599(8) 1.1154(7)
C2A C 1.1762(14) 1.7741(10) 1.1100(8)
C3A C 1.1868(13) 1.8653(9) 1.1780(8)
C4A C 1.1243(15) 1.8485(9) 1.2622(8)
O1A O 1.1287(10) 1.9321(7) 1.3301(6)
N5A N 1.2610(11) 1.9660(7) 1.1444(6)
C5A C 1.2951(15) 1.9305(10) 1.0615(8)
H8A H 1.3467 1.9801 1.0236
N6A N 1.2475(12) 1.8142(8) 1.0365(7)
C6A C 1.2838(17) 1.7475(10) 0.9500(8)
H9A H 1.3994 1.7273 0.9576
H10A H 1.1882 1.6780 0.9323
H11A H 1.2874 1.7939 0.9036
Pt1A Pt 1.31284(6) 2.13297(4) 1.21027(4)
Ag1A Ag 0.95155(12) 1.69225(8) 1.39244(6)
N7A N 1.1749(11) 1.3672(7) 0.4916(6)
C7A C 1.2316(14) 1.4848(10) 0.4979(8)
H12A H 1.2055 1.5310 0.5498
N8A N 1.3200(12) 1.5399(8) 0.4378(7)
C8A C 1.3492(14) 1.4655(10) 0.3637(8)
C9A C 1.3088(13) 1.3451(9) 0.3535(8)
C10A C 1.2086(14) 1.2954(9) 0.4201(8)
N9A N 1.1504(11) 1.1839(8) 0.4140(6)
H13A H 1.0904 1.1571 0.4562
H14A H 1.1720 1.1370 0.3679
N10A N 1.3614(11) 1.2989(7) 0.2731(6)
C11A C 1.4348(14) 1.3888(10) 0.2357(9)
H15A H 1.4816 1.3825 0.1792
N11A N 1.4329(11) 1.4916(7) 0.2904(6)
C12A C 1.4991(14) 1.6091(9) 0.2681(8)
H16A H 1.4490 1.6643 0.3070
H17A H 1.6304 1.6313 0.2774
H18A H 1.4605 1.6073 0.2056
N1A N 1.5187(11) 2.1101(7) 1.2942(6)
H1A H 1.5295 2.1589 1.3472
H2A H 1.4931 2.0374 1.3036
H3A H 1.6235 2.1240 1.2684
N2A N 1.1103(11) 2.1597(7) 1.1299(6)
H4A H 1.1463 2.1627 1.0744
H5A H 1.0116 2.1018 1.1264
H6A H 1.0833 2.2265 1.1533
Ag1A_2 Ag 0.95155(12) 0.69225(8) 0.39244(6)
N10A_2 N 1.3614(11) 2.2989(7) 1.2731(6)
N7_2 N 0.8251(11) 1.6328(7) 1.5084(6)
Pt1A_2 Pt 1.31284(6) 1.13297(4) 0.21027(4)
N12 N -0.0982(15) 0.3700(11) 0.2651(8)
O2 O 0.0224(12) 0.3903(7) 0.2114(7)
O3 O -0.1427(13) 0.2715(9) 0.2804(8)
O4 O -0.1682(14) 0.4478(9) 0.2967(7)
N13 N 0.2656(18) 1.1041(11) 0.8698(11)
O5 O 0.208(2) 1.1092(13) 0.9395(9)
O6 O 0.325(2) 1.1747(12) 0.8306(10)
O7 O 0.2537(19) 1.0069(12) 0.8305(12)
O10 O 1.334(3) 1.4930(17) 0.9362(14)
O11 O 1.240(3) 1.345(2) 1.0225(16)
O12 O 0.4238(10) 0.7874(7) 0.4933(6)
O13 O 0.1697(11) 0.9180(7) 0.5087(6)
O14 O 0.6731(14) 0.8778(8) 0.3732(7)
N14? N 1.368(3) 1.446(2) 1.0053(17)
O8? O 1.253(3) 1.402(2) 1.0467(15)
O9? O 1.539(3) 1.4592(19) 1.0295(15)
loop_
_geom_bond_atom_site_label_1
_geom_bond_atom_site_label_2
_geom_bond_site_symmetry_1
_geom_bond_site_symmetry_2
Pt1 N1 1_555 1_555
N1 H1 1_555 1_555
H2 N1 1_555 1_555
H3 N1 1_555 1_555
N2 Pt1 1_555 1_555
H4 N2 1_555 1_555
H5 N2 1_555 1_555
H6 N2 1_555 1_555
Ag1 N3 1_555 1_555
Ag2 N4 1_555 1_555
N3 C1 1_555 1_555
C1 H7 1_555 1_555
N4 C1 1_555 1_555
C2 N4 1_555 1_555
C3 C2 1_555 1_555
C4 N3 1_555 1_555
O1 C4 1_555 1_555
N5 Pt1 1_555 1_555
C5 N5 1_555 1_555
H8 C5 1_555 1_555
N6 C2 1_555 1_555
C6 N6 1_555 1_555
H9 C6 1_555 1_555
H10 C6 1_555 1_555
H11 C6 1_555 1_555
N7 C7 1_555 1_555
C7 H12 1_555 1_555
N8 C7 1_555 1_555
C8 N8 1_555 1_555
C9 C8 1_555 1_555
C10 N7 1_555 1_555
N9 C10 1_555 1_555
H13 N9 1_555 1_555
H14 N9 1_555 1_555
N10 Pt1 1_555 1_555
C11 N10 1_555 1_555
H15 C11 1_555 1_555
N11 C8 1_555 1_555
C12 N11 1_555 1_555
H16 C12 1_555 1_555
H17 C12 1_555 1_555
H18 C12 1_555 1_555
N12 O2 1_555 1_555
O3 N12 1_555 1_555
O4 N12 1_555 1_555
N13 O5 1_555 1_555
O6 N13 1_555 1_555
O7 N13 1_555 1_555
N3A C1A 1_555 1_555
C1A H7A 1_555 1_555
N4A Ag2 1_555 1_555
C2A N4A 1_555 1_555
C3A C2A 1_555 1_555
C4A N3A 1_555 1_555
O1A C4A 1_555 1_555
N5A C3A 1_555 1_555
C5A N5A 1_555 1_555
H8A C5A 1_555 1_555
N6A C2A 1_555 1_555
C6A N6A 1_555 1_555
H9A C6A 1_555 1_555
H10A C6A 1_555 1_555
H11A C6A 1_555 1_555
Pt1A N5A 1_555 1_555
Ag1A N3A 1_555 1_555
N7A Ag1 1_555 1_555
C7A N7A 1_555 1_555
H12A C7A 1_555 1_555
N8A C7A 1_555 1_555
C8A N8A 1_555 1_555
C9A C8A 1_555 1_555
C10A N7A 1_555 1_555
N9A C10A 1_555 1_555
H13A N9A 1_555 1_555
H14A N9A 1_555 1_555
N10A C9A 1_555 1_555
C11A N10A 1_555 1_555
H15A C11A 1_555 1_555
N11A C8A 1_555 1_555
C12A N11A 1_555 1_555
H16A C12A 1_555 1_555
H17A C12A 1_555 1_555
H18A C12A 1_555 1_555
N1A Pt1A 1_555 1_555
H1A N1A 1_555 1_555
H2A N1A 1_555 1_555
H3A N1A 1_555 1_555
N2A Pt1A 1_555 1_555
H4A N2A 1_555 1_555
H5A N2A 1_555 1_555
H6A N2A 1_555 1_555
Ag1A_2 N7 1_555 1_555
N10A_2 Pt1A 1_555 1_555
N7_2 Ag1A 1_555 1_555
Pt1A_2 N10A 1_555 1_555
C3 C4 1_555 1_555
C3 N5 1_555 1_555
C5 N6 1_555 1_555
C9 C10 1_555 1_555
C9 N10 1_555 1_555
C11 N11 1_555 1_555
C1A N4A 1_555 1_555
C3A C4A 1_555 1_555
C5A N6A 1_555 1_555
C9A C10A 1_555 1_555
C11A N11A 1_555 1_555

#END
