
#######################################################################
#
#                 Cambridge Crystallographic Data Centre
#                                CCDC 
#
#######################################################################
#
# If this CIF has been generated from an entry in the Cambridge 
# Structural Database, then it will include bibliographic, chemical, 
# crystal, experimental, refinement or atomic coordinate data resulting 
# from the CCDC's data processing and validation procedures.
#
#######################################################################

data_XINWUO
_symmetry_cell_setting           tetragonal
_symmetry_space_group_name_H-M   'I 41/a'
_symmetry_Int_Tables_number      88
_space_group_name_Hall           '-I 4ad'
loop_
_symmetry_equiv_pos_site_id
_symmetry_equiv_pos_as_xyz
1 x,y,z
2 1/2-x,-y,1/2+z
3 3/4-y,1/4+x,1/4+z
4 3/4+y,3/4-x,3/4+z
5 1/2+x,1/2+y,1/2+z
6 -x,1/2-y,z
7 1/4-y,3/4+x,3/4+z
8 1/4+y,1/4-x,1/4+z
9 -x,-y,-z
10 1/2+x,y,1/2-z
11 1/4+y,3/4-x,3/4-z
12 1/4-y,1/4+x,1/4-z
13 1/2-x,1/2-y,1/2-z
14 x,1/2+y,-z
15 3/4+y,1/4-x,1/4-z
16 3/4-y,3/4+x,3/4-z
_cell_length_a                   17.6987(9)
_cell_length_b                   17.6987(9)
_cell_length_c                   11.3887(11)
_cell_angle_alpha                90
_cell_angle_beta                 90
_cell_angle_gamma                90
_cell_volume                     3567.44
loop_
_atom_site_label
_atom_site_type_symbol
_atom_site_fract_x
_atom_site_fract_y
_atom_site_fract_z
Zn1 Zn 0.46107(2) -0.01187(2) -0.34899(3)
N1 N 0.41826(15) 0.05494(15) -0.4742(2)
N2 N 0.44840(16) 0.06543(16) -0.5846(2)
N3 N 0.34580(16) 0.13531(16) -0.5693(2)
C1 C 0.4156(3) 0.1403(3) -0.7612(4)
H1 H 0.4606 0.1176 -0.7926
H2 H 0.4210 0.1943 -0.7615
H3 H 0.3730 0.1262 -0.8086
C2 C 0.4037(2) 0.1134(2) -0.6381(3)
C3 C 0.35758(18) 0.09707(18) -0.4692(3)
H4 H 0.3262 0.1002 -0.4038
C4 C 0.5266(3) 0.1045(3) -0.0558(4)
H5 H 0.5720 0.1340 -0.0541
H6 H 0.5297 0.0652 0.0021
H7 H 0.4840 0.1364 -0.0388
C5 C 0.5170(3) 0.0702(3) -0.1746(4)
O1 O 0.46037(17) 0.02990(18) -0.1915(3)
O2 O 0.5638(2) 0.0806(2) -0.2532(3)
Zn1F Zn 0.26187(2) 0.21107(2) -0.59899(3)
Zn1H Zn 0.53893(2) 0.01187(2) -0.65101(3)
N2H N 0.55160(16) -0.06543(16) -0.4154(2)
N3G N 0.38531(16) -0.09580(16) -0.3193(2)
O3 O 0.2841(3) 0.0270(3) -0.0194(5)
H8 H 0.2579 0.0570 0.0329
H9 H 0.3350 0.0452 -0.0334
loop_
_geom_bond_atom_site_label_1
_geom_bond_atom_site_label_2
_geom_bond_site_symmetry_1
_geom_bond_site_symmetry_2
Zn1 N1 1_555 1_555
N1 N2 1_555 1_555
N2 C2 1_555 1_555
N3 C2 1_555 1_555
C1 H1 1_555 1_555
H2 C1 1_555 1_555
H3 C1 1_555 1_555
C2 C1 1_555 1_555
C3 N1 1_555 1_555
H4 C3 1_555 1_555
C4 H5 1_555 1_555
H6 C4 1_555 1_555
H7 C4 1_555 1_555
C5 C4 1_555 1_555
O1 Zn1 1_555 1_555
O2 C5 1_555 1_555
O3 H8 1_555 1_555
H9 O3 1_555 1_555
Zn1F N3 1_555 1_555
Zn1H N2 1_555 1_555
N2H Zn1 1_555 1_555
N3G Zn1 1_555 1_555
N3 C3 1_555 1_555
C5 O1 1_555 1_555

#END
