
#######################################################################
#
#                 Cambridge Crystallographic Data Centre
#                                CCDC 
#
#######################################################################
#
# If this CIF has been generated from an entry in the Cambridge 
# Structural Database, then it will include bibliographic, chemical, 
# crystal, experimental, refinement or atomic coordinate data resulting 
# from the CCDC's data processing and validation procedures.
#
#######################################################################

data_XINXEZ
_symmetry_cell_setting           tetragonal
_symmetry_space_group_name_H-M   'I 41/a'
_symmetry_Int_Tables_number      88
_space_group_name_Hall           '-I 4ad'
loop_
_symmetry_equiv_pos_site_id
_symmetry_equiv_pos_as_xyz
1 x,y,z
2 1/2-x,-y,1/2+z
3 3/4-y,1/4+x,1/4+z
4 3/4+y,3/4-x,3/4+z
5 1/2+x,1/2+y,1/2+z
6 -x,1/2-y,z
7 1/4-y,3/4+x,3/4+z
8 1/4+y,1/4-x,1/4+z
9 -x,-y,-z
10 1/2+x,y,1/2-z
11 1/4+y,3/4-x,3/4-z
12 1/4-y,1/4+x,1/4-z
13 1/2-x,1/2-y,1/2-z
14 x,1/2+y,-z
15 3/4+y,1/4-x,1/4-z
16 3/4-y,3/4+x,3/4-z
_cell_length_a                   17.1149(8)
_cell_length_b                   17.1149(8)
_cell_length_c                   11.4359(12)
_cell_angle_alpha                90
_cell_angle_beta                 90
_cell_angle_gamma                90
_cell_volume                     3349.8
loop_
_atom_site_label
_atom_site_type_symbol
_atom_site_fract_x
_atom_site_fract_y
_atom_site_fract_z
Zn1 Zn 0.25408(4) 0.77755(4) 0.09162(7)
Cl1 Cl 0.18223(14) 0.73315(15) -0.0529(2)
N1 N 0.4195(3) 0.9373(3) -0.0362(5)
N2 N 0.4385(3) 0.9373(3) 0.0813(5)
N3 N 0.3385(3) 0.8567(3) 0.0531(5)
C1 C 0.3896(5) 0.8717(5) 0.2602(7)
H1 H 0.4303 0.9016 0.2968
H2 H 0.3991 0.8171 0.2723
H3 H 0.3401 0.8856 0.2938
C2 C 0.3885(5) 0.8887(4) 0.1321(6)
C3 C 0.3602(4) 0.8881(4) -0.0503(6)
C4 C 0.3248(6) 0.8696(7) -0.1654(9)
H4 H 0.3633 0.8794 -0.2258
H5 H 0.3127 0.8142 -0.1672
C5 C 0.2535(7) 0.9133(8) -0.1941(13)
H6 H 0.2352 0.8979 -0.2700
H7 H 0.2648 0.9683 -0.1944
H8 H 0.2140 0.9025 -0.1368
Zn1F Zn 0.47245(4) 1.00408(4) -0.15838(7)
Zn1N Zn 0.52755(4) 0.99592(4) 0.15838(7)
N1G N 0.1873(3) 0.8305(3) 0.2138(5)
N2K N 0.3127(3) 0.6885(3) 0.1687(5)
O1 O 0.5000 0.7500 0.426(3)
loop_
_geom_bond_atom_site_label_1
_geom_bond_atom_site_label_2
_geom_bond_site_symmetry_1
_geom_bond_site_symmetry_2
Zn1 Cl1 1_555 1_555
N1 N2 1_555 1_555
N2 C2 1_555 1_555
N3 Zn1 1_555 1_555
C1 H1 1_555 1_555
H2 C1 1_555 1_555
H3 C1 1_555 1_555
C2 N3 1_555 1_555
C3 N1 1_555 1_555
C4 C3 1_555 1_555
H4 C4 1_555 1_555
H5 C4 1_555 1_555
C5 C4 1_555 1_555
H6 C5 1_555 1_555
H7 C5 1_555 1_555
H8 C5 1_555 1_555
Zn1F N1 1_555 1_555
Zn1N N2 1_555 1_555
N1G Zn1 1_555 1_555
N2K Zn1 1_555 1_555
N3 C3 1_555 1_555
C1 C2 1_555 1_555

#END
