
#######################################################################
#
#                 Cambridge Crystallographic Data Centre
#                                CCDC 
#
#######################################################################
#
# If this CIF has been generated from an entry in the Cambridge 
# Structural Database, then it will include bibliographic, chemical, 
# crystal, experimental, refinement or atomic coordinate data resulting 
# from the CCDC's data processing and validation procedures.
#
#######################################################################

data_XINXAV
_symmetry_cell_setting           tetragonal
_symmetry_space_group_name_H-M   'I 41/a'
_symmetry_Int_Tables_number      88
_space_group_name_Hall           '-I 4ad'
loop_
_symmetry_equiv_pos_site_id
_symmetry_equiv_pos_as_xyz
1 x,y,z
2 1/2-x,-y,1/2+z
3 3/4-y,1/4+x,1/4+z
4 3/4+y,3/4-x,3/4+z
5 1/2+x,1/2+y,1/2+z
6 -x,1/2-y,z
7 1/4-y,3/4+x,3/4+z
8 1/4+y,1/4-x,1/4+z
9 -x,-y,-z
10 1/2+x,y,1/2-z
11 1/4+y,3/4-x,3/4-z
12 1/4-y,1/4+x,1/4-z
13 1/2-x,1/2-y,1/2-z
14 x,1/2+y,-z
15 3/4+y,1/4-x,1/4-z
16 3/4-y,3/4+x,3/4-z
_cell_length_a                   17.709(4)
_cell_length_b                   17.709(4)
_cell_length_c                   11.523(4)
_cell_angle_alpha                90
_cell_angle_beta                 90
_cell_angle_gamma                90
_cell_volume                     3613.71
loop_
_atom_site_label
_atom_site_type_symbol
_atom_site_fract_x
_atom_site_fract_y
_atom_site_fract_z
Zn1 Zn 0.25976(4) 0.71064(4) 0.10032(7)
N1 N 0.1938(3) 0.6688(3) 0.2273(5)
N2 N 0.1889(3) 0.6955(3) 0.3397(5)
N3 N 0.1170(3) 0.5939(3) 0.3248(5)
C1 C 0.0467(8) 0.7116(10) 0.5310(16)
H1 H 0.0334 0.7301 0.4555
H2 H 0.0570 0.7534 0.5816
H3 H 0.0056 0.6825 0.5619
C2 C 0.1230(5) 0.6574(5) 0.5208(7)
H4 H 0.1647 0.6802 0.5626
H5 H 0.1131 0.6081 0.5542
C3 C 0.1426(4) 0.6496(4) 0.3945(6)
C4 C 0.1510(4) 0.6082(4) 0.2235(6)
H6 H 0.1449 0.5785 0.1576
C5 C 0.1425(5) 0.7649(6) -0.1929(7)
H7 H 0.1645 0.7298 -0.2466
H8 H 0.1527 0.8156 -0.2181
H9 H 0.0889 0.7571 -0.1895
C6 C 0.1762(5) 0.7527(6) -0.0738(9)
O1 O 0.2235(4) 0.7065(4) -0.0601(6)
O2 O 0.138(3) 0.774(3) 0.014(2)
Zn1B Zn 0.03936(4) 0.50976(4) 0.35032(7)
Zn1L Zn 0.24024(4) 0.78936(4) 0.39968(7)
N2L N 0.3111(3) 0.8045(3) 0.1603(5)
N3C N 0.3439(3) 0.6330(3) 0.0748(5)
O4 O 0.2869(15) 0.5318(14) 0.526(3)
C7? C 0.1864(9) 0.6036(9) 0.5884(14)
H10? H 0.2221 0.5846 0.5329
H11? H 0.1613 0.5620 0.6254
H12? H 0.2124 0.6331 0.6457
C8? C 0.1230(5) 0.6574(5) 0.5208(7)
H13? H 0.0721 0.6396 0.5358
H14? H 0.1270 0.7096 0.5457
O3? O 0.172(3) 0.805(2) -0.001(2)
loop_
_geom_bond_atom_site_label_1
_geom_bond_atom_site_label_2
_geom_bond_site_symmetry_1
_geom_bond_site_symmetry_2
Zn1 N1 1_555 1_555
N1 N2 1_555 1_555
N2 C3 1_555 1_555
N3 C3 1_555 1_555
C1 H1 1_555 1_555
H2 C1 1_555 1_555
H3 C1 1_555 1_555
C2 C1 1_555 1_555
H4 C2 1_555 1_555
H5 C2 1_555 1_555
C3 C2 1_555 1_555
C4 N1 1_555 1_555
H6 C4 1_555 1_555
C5 H7 1_555 1_555
H8 C5 1_555 1_555
H9 C5 1_555 1_555
C6 C5 1_555 1_555
O1 Zn1 1_555 1_555
O2 C6 1_555 1_555
Zn1B N3 1_555 1_555
Zn1L N2 1_555 1_555
N2L Zn1 1_555 1_555
N3C Zn1 1_555 1_555
N3 C4 1_555 1_555
C6 O1 1_555 1_555

#END
