
#######################################################################
#
#                 Cambridge Crystallographic Data Centre
#                                CCDC 
#
#######################################################################
#
# If this CIF has been generated from an entry in the Cambridge 
# Structural Database, then it will include bibliographic, chemical, 
# crystal, experimental, refinement or atomic coordinate data resulting 
# from the CCDC's data processing and validation procedures.
#
#######################################################################

data_XINYOK
_symmetry_cell_setting           triclinic
_symmetry_space_group_name_H-M   'P -1'
_symmetry_Int_Tables_number      2
_space_group_name_Hall           '-P 1'
loop_
_symmetry_equiv_pos_site_id
_symmetry_equiv_pos_as_xyz
1 x,y,z
2 -x,-y,-z
_cell_length_a                   9.5193(8)
_cell_length_b                   14.1856(12)
_cell_length_c                   14.4033(12)
_cell_angle_alpha                108.3600(10)
_cell_angle_beta                 105.5570(10)
_cell_angle_gamma                93.3860(10)
_cell_volume                     1756.29
loop_
_atom_site_label
_atom_site_type_symbol
_atom_site_fract_x
_atom_site_fract_y
_atom_site_fract_z
Ni1 Ni 1.0000 0.5000 0.5000
Ni2 Ni 0.98925(4) 0.68652(3) 0.38505(3)
O1 O 1.0370(3) 0.63494(16) 0.61434(16)
O2 O 1.0443(2) 0.75254(16) 0.54028(16)
O3 O 1.3409(4) 1.0761(2) 0.7597(2)
H1 H 1.3717 1.1337 0.7662
O4 O 1.3005(4) 1.1524(2) 0.9090(2)
O5 O 0.8702(2) 0.55739(15) 0.39043(15)
O6 O 0.7549(2) 0.68371(16) 0.37717(17)
O7 O 0.1940(2) 0.64544(16) 0.38457(17)
O8 O 0.1776(2) 0.53011(17) 0.45856(18)
N1 N 0.9177(3) 0.6205(2) 0.2254(2)
N2 N 0.7808(3) 0.5788(2) 0.0643(2)
N3 N 1.0589(3) 0.8268(2) 0.3835(2)
N4 N 1.2014(4) 0.9736(2) 0.4403(3)
C1 C 1.1091(3) 0.8053(2) 0.7206(2)
C2 C 1.1666(4) 0.9015(2) 0.7302(2)
H2 H 1.1670 0.9165 0.6719
C3 C 1.2232(4) 0.9750(2) 0.8262(3)
C4 C 1.2188(4) 0.9534(3) 0.9132(3)
H3 H 1.2537 1.0039 0.9772
C5 C 1.1630(4) 0.8577(3) 0.9064(3)
C6 C 1.1099(4) 0.7841(2) 0.8084(2)
H4 H 1.0743 0.7192 0.8020
C7 C 1.0574(3) 0.7236(2) 0.6159(2)
C8 C 1.2914(4) 1.0775(3) 0.8378(3)
C9 C 1.1694(6) 0.8286(4) 1.0015(4)
C10 C 1.2222(7) 0.9162(4) 1.1002(4)
H5 H 1.1531 0.9628 1.1006
H6 H 1.3171 0.9490 1.1064
H7 H 1.2302 0.8927 1.1568
C11 C 1.2913(6) 0.7576(4) 1.0097(4)
H8 H 1.2979 0.7368 1.0678
H9 H 1.3850 0.7935 1.0178
H10 H 1.2647 0.6994 0.9483
C12 C 1.0275(6) 0.7682(4) 0.9902(4)
H11 H 1.0380 0.7482 1.0492
H12 H 1.0038 0.7094 0.9296
H13 H 0.9498 0.8081 0.9845
C13 C 0.6079(3) 0.5348(2) 0.3653(2)
C14 C 0.4904(3) 0.5837(2) 0.3865(2)
H14 H 0.4980 0.6532 0.4043
C15 C 0.3624(3) 0.5263(2) 0.3802(2)
C16 C 0.3495(3) 0.4222(2) 0.3480(2)
H15 H 0.2636 0.3850 0.3451
C17 C 0.4607(3) 0.3716(2) 0.3200(2)
C18 C 0.5926(3) 0.4306(2) 0.3321(2)
H16 H 0.6712 0.3992 0.3177
C19 C 0.7513(3) 0.5956(2) 0.3798(2)
C20 C 0.2348(3) 0.5716(2) 0.4107(2)
C21 C 0.4459(3) 0.2563(2) 0.2825(3)
C22 C 0.5577(4) 0.2249(3) 0.3608(3)
H17 H 0.6547 0.2587 0.3731
H18 H 0.5556 0.1535 0.3346
H19 H 0.5330 0.2428 0.4239
C23 C 0.4771(5) 0.2183(3) 0.1790(3)
H20 H 0.4019 0.2324 0.1280
H21 H 0.4774 0.1470 0.1592
H22 H 0.5716 0.2516 0.1852
C24 C 0.2916(4) 0.2062(3) 0.2714(4)
H23 H 0.2736 0.2278 0.3368
H24 H 0.2866 0.1344 0.2475
H25 H 0.2184 0.2250 0.2231
C25 C 0.8119(4) 0.6437(3) 0.1600(3)
H26 H 0.7643 0.6989 0.1784
C26 C 0.9558(5) 0.5350(3) 0.1667(3)
H27 H 1.0287 0.5005 0.1914
C27 C 0.8720(5) 0.5088(3) 0.0683(3)
H28 H 0.8757 0.4535 0.0137
C28 C 0.6562(5) 0.5765(4) -0.0235(3)
H29 H 0.6883 0.5620 -0.0843
H30 H 0.6251 0.6421 -0.0098
C29 C 0.5273(6) 0.4985(5) -0.0434(4)
H31 H 0.4462 0.5046 -0.0976
H32 H 0.5549 0.4327 -0.0692
C30 C 1.1662(5) 0.8894(3) 0.4585(3)
H33 H 1.2133 0.8771 0.5181
C31 C 1.0268(5) 0.8722(3) 0.3104(4)
H34 H 0.9558 0.8448 0.2465
C32 C 1.1138(5) 0.9624(3) 0.3455(4)
H35 H 1.1134 1.0080 0.3111
C33 C 1.3220(7) 1.0582(5) 0.5085(5)
H36 H 1.2958 1.1197 0.4976
H37 H 1.3313 1.0663 0.5794
C34 C 1.4650(7) 1.0426(5) 0.4905(5)
H38 H 1.5343 1.1037 0.5327
H39 H 1.4531 1.0356 0.4195
N1A N 0.0823(3) 0.3795(2) -0.2254(2)
N2A N 0.2192(3) 0.4212(2) -0.0643(2)
C25A C 0.1881(4) 0.3563(3) -0.1600(3)
H26A H 0.2357 0.3011 -0.1784
C26A C 0.0442(5) 0.4650(3) -0.1667(3)
H27A H -0.0287 0.4995 -0.1914
C27A C 0.1280(5) 0.4912(3) -0.0683(3)
H28A H 0.1243 0.5465 -0.0137
C28A C 0.3438(5) 0.4235(4) 0.0235(3)
H29A H 0.3117 0.4380 0.0843
H30A H 0.3749 0.3579 0.0098
C29A C 0.4727(6) 0.5015(5) 0.0434(4)
H31A H 0.5538 0.4954 0.0976
H32A H 0.4451 0.5673 0.0692
N3A N 1.9411(3) 1.1732(2) 0.6165(2)
N4A N 1.7986(4) 1.0264(2) 0.5597(3)
C30A C 1.8338(5) 1.1106(3) 0.5415(3)
H33A H 1.7867 1.1229 0.4819
C31A C 1.9732(5) 1.1278(3) 0.6896(4)
H34A H 2.0442 1.1552 0.7535
C32A C 1.8862(5) 1.0376(3) 0.6545(4)
H35A H 1.8866 0.9920 0.6889
C33A C 1.6780(7) 0.9418(5) 0.4915(5)
H36A H 1.7042 0.8803 0.5024
H37A H 1.6687 0.9337 0.4206
C34A C 1.5350(7) 0.9574(5) 0.5095(5)
H38A H 1.4657 0.8963 0.4673
H39A H 1.5469 0.9644 0.5805
Ni2A Ni 0.01075(4) 0.31348(3) -0.38505(3)
O1A O -0.0370(3) 0.36506(16) -0.61434(16)
O2A O -0.0443(2) 0.24746(16) -0.54028(16)
O3A O -0.3409(4) -0.0761(2) -0.7597(2)
H1A H -0.3717 -0.1337 -0.7662
O4A O -0.3005(4) -0.1524(2) -0.9090(2)
O5A O 0.1298(2) 0.44261(15) -0.39043(15)
O6A O 0.2451(2) 0.31629(16) -0.37717(17)
O7A O 0.8060(2) 0.35456(16) -0.38457(17)
O8A O 0.8224(2) 0.46989(17) -0.45856(18)
C1A C -0.1091(3) 0.1947(2) -0.7206(2)
C2A C -0.1666(4) 0.0985(2) -0.7302(2)
H2A H -0.1670 0.0835 -0.6719
C3A C -0.2232(4) 0.0250(2) -0.8262(3)
C4A C -0.2188(4) 0.0466(3) -0.9132(3)
H3A H -0.2537 -0.0039 -0.9772
C5A C -0.1630(4) 0.1423(3) -0.9064(3)
C6A C -0.1099(4) 0.2159(2) -0.8084(2)
H4A H -0.0743 0.2808 -0.8020
C7A C -0.0574(3) 0.2764(2) -0.6159(2)
C8A C -0.2914(4) -0.0775(3) -0.8378(3)
C9A C -0.1694(6) 0.1714(4) -1.0015(4)
C10A C -0.2222(7) 0.0838(4) -1.1002(4)
H5A H -0.1531 0.0372 -1.1006
H6A H -0.3171 0.0510 -1.1064
H7A H -0.2302 0.1073 -1.1568
C11A C -0.2913(6) 0.2424(4) -1.0097(4)
H8A H -0.2979 0.2632 -1.0678
H9A H -0.3850 0.2065 -1.0178
H10A H -0.2647 0.3006 -0.9483
C12A C -0.0275(6) 0.2318(4) -0.9902(4)
H11A H -0.0380 0.2518 -1.0492
H12A H -0.0038 0.2906 -0.9296
H13A H 0.0502 0.1919 -0.9845
C13A C 0.3921(3) 0.4652(2) -0.3653(2)
C14A C 0.5096(3) 0.4163(2) -0.3865(2)
H14A H 0.5020 0.3468 -0.4043
C15A C 0.6376(3) 0.4737(2) -0.3802(2)
C16A C 0.6505(3) 0.5778(2) -0.3480(2)
H15A H 0.7364 0.6150 -0.3451
C17A C 0.5393(3) 0.6284(2) -0.3200(2)
C18A C 0.4074(3) 0.5694(2) -0.3321(2)
H16A H 0.3288 0.6008 -0.3177
C19A C 0.2487(3) 0.4044(2) -0.3798(2)
C20A C 0.7652(3) 0.4284(2) -0.4107(2)
C21A C 0.5541(3) 0.7437(2) -0.2825(3)
C22A C 0.4423(4) 0.7751(3) -0.3608(3)
H17A H 0.3453 0.7413 -0.3731
H18A H 0.4444 0.8465 -0.3346
H19A H 0.4670 0.7572 -0.4239
C23A C 0.5229(5) 0.7817(3) -0.1790(3)
H20A H 0.5981 0.7676 -0.1280
H21A H 0.5226 0.8530 -0.1592
H22A H 0.4284 0.7484 -0.1852
C24A C 0.7084(4) 0.7938(3) -0.2714(4)
H23A H 0.7264 0.7722 -0.3368
H24A H 0.7134 0.8656 -0.2475
H25A H 0.7816 0.7750 -0.2231
Ni1_2 Ni 0.0000 0.5000 -0.5000
Ni1_3 Ni 0.0000 0.5000 0.5000
Ni1_4 Ni 1.0000 0.5000 -0.5000
Ni2_2 Ni -0.01075(4) 0.68652(3) 0.38505(3)
Ni2A_2 Ni 1.01075(4) 0.31348(3) -0.38505(3)
Ni2A_3 Ni 2.01075(4) 1.31348(3) 0.61495(3)
O1A_2 O 0.9630(3) 0.36506(16) 0.38566(16)
O5A_2 O 1.1298(2) 0.44261(15) 0.60957(15)
O7_2 O 1.1940(2) 0.64544(16) 0.38457(17)
O7A_2 O -0.1940(2) 0.35456(16) -0.38457(17)
O8_2 O 1.1776(2) 0.53011(17) 0.45856(18)
O8A_2 O 0.8224(2) 0.46989(17) 0.54144(18)
N3A_2 N -0.0589(3) 0.1732(2) -0.3835(2)
O9 O 0.4461(3) 0.2454(2) 0.7508(2)
H40 H 0.5360 0.2550 0.7527
H41 H 0.3909 0.2651 0.7059
O10 O 0.7318(4) 0.2895(4) 0.7586(4)
H42 H 0.7119 0.3456 0.7917
H43 H 0.7553 0.3162 0.7186
loop_
_geom_bond_atom_site_label_1
_geom_bond_atom_site_label_2
_geom_bond_site_symmetry_1
_geom_bond_site_symmetry_2
Ni1 O1 1_555 1_555
Ni2 O2 1_555 1_555
O1 C7 1_555 1_555
O2 C7 1_555 1_555
O3 H1 1_555 1_555
O4 C8 1_555 1_555
O5 Ni1 1_555 1_555
O6 Ni2 1_555 1_555
O7 C20 1_555 1_555
O8 C20 1_555 1_555
N1 Ni2 1_555 1_555
N2 C25 1_555 1_555
N3 Ni2 1_555 1_555
N4 C30 1_555 1_555
C1 C2 1_555 1_555
C2 H2 1_555 1_555
C3 C2 1_555 1_555
C4 C3 1_555 1_555
H3 C4 1_555 1_555
C5 C4 1_555 1_555
C6 C1 1_555 1_555
H4 C6 1_555 1_555
C7 C1 1_555 1_555
C8 O3 1_555 1_555
C9 C5 1_555 1_555
C10 C9 1_555 1_555
H5 C10 1_555 1_555
H6 C10 1_555 1_555
H7 C10 1_555 1_555
C11 C9 1_555 1_555
H8 C11 1_555 1_555
H9 C11 1_555 1_555
H10 C11 1_555 1_555
C12 C9 1_555 1_555
H11 C12 1_555 1_555
H12 C12 1_555 1_555
H13 C12 1_555 1_555
C13 C14 1_555 1_555
C14 H14 1_555 1_555
C15 C14 1_555 1_555
C16 C15 1_555 1_555
H15 C16 1_555 1_555
C17 C16 1_555 1_555
C18 C13 1_555 1_555
H16 C18 1_555 1_555
C19 O5 1_555 1_555
C20 C15 1_555 1_555
C21 C17 1_555 1_555
C22 C21 1_555 1_555
H17 C22 1_555 1_555
H18 C22 1_555 1_555
H19 C22 1_555 1_555
C23 C21 1_555 1_555
H20 C23 1_555 1_555
H21 C23 1_555 1_555
H22 C23 1_555 1_555
C24 C21 1_555 1_555
H23 C24 1_555 1_555
H24 C24 1_555 1_555
H25 C24 1_555 1_555
C25 N1 1_555 1_555
H26 C25 1_555 1_555
C26 N1 1_555 1_555
H27 C26 1_555 1_555
C27 N2 1_555 1_555
H28 C27 1_555 1_555
C28 N2 1_555 1_555
H29 C28 1_555 1_555
H30 C28 1_555 1_555
C29 C28 1_555 1_555
H31 C29 1_555 1_555
H32 C29 1_555 1_555
C30 N3 1_555 1_555
H33 C30 1_555 1_555
C31 N3 1_555 1_555
H34 C31 1_555 1_555
C32 N4 1_555 1_555
H35 C32 1_555 1_555
C33 N4 1_555 1_555
H36 C33 1_555 1_555
H37 C33 1_555 1_555
C34 C33 1_555 1_555
H38 C34 1_555 1_555
H39 C34 1_555 1_555
O9 H40 1_555 1_555
H41 O9 1_555 1_555
O10 H42 1_555 1_555
H43 O10 1_555 1_555
N1A C25A 1_555 1_555
N2A C25A 1_555 1_555
C25A H26A 1_555 1_555
C26A N1A 1_555 1_555
H27A C26A 1_555 1_555
C27A N2A 1_555 1_555
H28A C27A 1_555 1_555
C28A N2A 1_555 1_555
H29A C28A 1_555 1_555
H30A C28A 1_555 1_555
C29A C29 1_555 1_555
H31A C29A 1_555 1_555
H32A C29A 1_555 1_555
N3A C30A 1_555 1_555
N4A C30A 1_555 1_555
C30A H33A 1_555 1_555
C31A N3A 1_555 1_555
H34A C31A 1_555 1_555
C32A N4A 1_555 1_555
H35A C32A 1_555 1_555
C33A N4A 1_555 1_555
H36A C33A 1_555 1_555
H37A C33A 1_555 1_555
C34A C34 1_555 1_555
H38A C34A 1_555 1_555
H39A C34A 1_555 1_555
Ni2A N1A 1_555 1_555
O1A C7A 1_555 1_555
O2A Ni2A 1_555 1_555
O3A H1A 1_555 1_555
O4A C8A 1_555 1_555
O5A Ni2A 1_555 1_555
O6A Ni2A 1_555 1_555
O7A C20A 1_555 1_555
O8A C20A 1_555 1_555
C1A C2A 1_555 1_555
C2A H2A 1_555 1_555
C3A C2A 1_555 1_555
C4A C3A 1_555 1_555
H3A C4A 1_555 1_555
C5A C4A 1_555 1_555
C6A C1A 1_555 1_555
H4A C6A 1_555 1_555
C7A O2A 1_555 1_555
C8A O3A 1_555 1_555
C9A C5A 1_555 1_555
C10A C9A 1_555 1_555
H5A C10A 1_555 1_555
H6A C10A 1_555 1_555
H7A C10A 1_555 1_555
C11A C9A 1_555 1_555
H8A C11A 1_555 1_555
H9A C11A 1_555 1_555
H10A C11A 1_555 1_555
C12A C9A 1_555 1_555
H11A C12A 1_555 1_555
H12A C12A 1_555 1_555
H13A C12A 1_555 1_555
C13A C14A 1_555 1_555
C14A H14A 1_555 1_555
C15A C14A 1_555 1_555
C16A C15A 1_555 1_555
H15A C16A 1_555 1_555
C17A C16A 1_555 1_555
C18A C13A 1_555 1_555
H16A C18A 1_555 1_555
C19A O5A 1_555 1_555
C20A C15A 1_555 1_555
C21A C17A 1_555 1_555
C22A C21A 1_555 1_555
H17A C22A 1_555 1_555
H18A C22A 1_555 1_555
H19A C22A 1_555 1_555
C23A C21A 1_555 1_555
H20A C23A 1_555 1_555
H21A C23A 1_555 1_555
H22A C23A 1_555 1_555
C24A C21A 1_555 1_555
H23A C24A 1_555 1_555
H24A C24A 1_555 1_555
H25A C24A 1_555 1_555
Ni1_2 O1A 1_555 1_555
Ni1_3 O8 1_555 1_555
Ni1_4 O8A 1_555 1_555
Ni2_2 O7 1_555 1_555
Ni2A_2 O7A 1_555 1_555
Ni2A_3 N3A 1_555 1_555
O1A_2 Ni1 1_555 1_555
O5A_2 Ni1 1_555 1_555
O7_2 Ni2 1_555 1_555
O7A_2 Ni2A 1_555 1_555
O8_2 Ni1 1_555 1_555
O8A_2 Ni1 1_555 1_555
N3A_2 Ni2A 1_555 1_555
Ni2 O5 1_555 1_555
O6 C19 1_555 1_555
C3 C8 1_555 1_555
C5 C6 1_555 1_555
C13 C19 1_555 1_555
C17 C18 1_555 1_555
C26 C27 1_555 1_555
C31 C32 1_555 1_555
C26A C27A 1_555 1_555
C28A C29A 1_555 1_555
C31A C32A 1_555 1_555
C33A C34A 1_555 1_555
O5A Ni1_2 1_555 1_555
O6A C19A 1_555 1_555
C1A C7A 1_555 1_555
C3A C8A 1_555 1_555
C5A C6A 1_555 1_555
C13A C19A 1_555 1_555
C17A C18A 1_555 1_555

#END
