
#######################################################################
#
#                 Cambridge Crystallographic Data Centre
#                                CCDC 
#
#######################################################################
#
# If this CIF has been generated from an entry in the Cambridge 
# Structural Database, then it will include bibliographic, chemical, 
# crystal, experimental, refinement or atomic coordinate data resulting 
# from the CCDC's data processing and validation procedures.
#
#######################################################################

data_XINYAW
_symmetry_cell_setting           tetragonal
_symmetry_space_group_name_H-M   'I 41/a'
_symmetry_Int_Tables_number      88
_space_group_name_Hall           '-I 4ad'
loop_
_symmetry_equiv_pos_site_id
_symmetry_equiv_pos_as_xyz
1 x,y,z
2 1/2-x,-y,1/2+z
3 3/4-y,1/4+x,1/4+z
4 3/4+y,3/4-x,3/4+z
5 1/2+x,1/2+y,1/2+z
6 -x,1/2-y,z
7 1/4-y,3/4+x,3/4+z
8 1/4+y,1/4-x,1/4+z
9 -x,-y,-z
10 1/2+x,y,1/2-z
11 1/4+y,3/4-x,3/4-z
12 1/4-y,1/4+x,1/4-z
13 1/2-x,1/2-y,1/2-z
14 x,1/2+y,-z
15 3/4+y,1/4-x,1/4-z
16 3/4-y,3/4+x,3/4-z
_cell_length_a                   20.2203(9)
_cell_length_b                   20.2203(9)
_cell_length_c                   17.4841(13)
_cell_angle_alpha                90
_cell_angle_beta                 90
_cell_angle_gamma                90
_cell_volume                     7148.56
loop_
_atom_site_label
_atom_site_type_symbol
_atom_site_fract_x
_atom_site_fract_y
_atom_site_fract_z
Cu1 Cu 0.5000 0.5000 0.0000
O1 O 0.58701(15) 0.46862(16) 0.03301(17)
O2 O 0.53078(19) 0.3845(2) 0.0806(3)
C1 C 0.7173(2) 0.4578(2) 0.0088(2)
C2 C 0.5833(2) 0.4146(2) 0.0691(3)
C3 C 0.7090(2) 0.4063(2) 0.0709(3)
C4 C 0.6477(2) 0.3866(2) 0.0992(2)
C5 C 0.7657(3) 0.3762(3) 0.0982(3)
H1 H 0.8065 0.3873 0.0774
C6 C 0.6451(3) 0.3395(3) 0.1575(3)
H2 H 0.6045 0.3265 0.1774
C7 C 0.7029(4) 0.3123(4) 0.1855(4)
H3 H 0.7012 0.2816 0.2251
C8 C 0.7626(4) 0.3305(4) 0.1551(4)
H4 H 0.8014 0.3115 0.1735
C9 C 0.6805(2) 0.6796(2) 0.1257(3)
H5 H 0.6757 0.6422 0.1563
C10 C 0.7042(3) 0.7778(2) 0.0858(3)
H6 H 0.7193 0.8212 0.0847
C11 C 0.6750(3) 0.7461(2) 0.0281(3)
H7 H 0.6665 0.7633 -0.0203
C12 C 0.6775(3) 0.6016(2) -0.0509(3)
H8 H 0.6883 0.6364 -0.0871
H9 H 0.6552 0.5667 -0.0789
C13 C 0.6302(3) 0.6294(2) 0.0087(3)
H10 H 0.6174 0.5944 0.0436
H11 H 0.5905 0.6452 -0.0166
N1 N 0.7083(2) 0.73501(18) 0.1480(2)
N2 N 0.6597(2) 0.68405(18) 0.0527(2)
O3 O 0.71618(16) 0.44238(16) -0.05935(16)
C14 C 0.7412(3) 0.5742(3) -0.0177(3)
H12 H 0.7695 0.5600 -0.0593
H13 H 0.7639 0.6093 0.0095
N3 N 0.73095(19) 0.51835(19) 0.0347(2)
O1H O 0.41299(15) 0.53138(16) -0.03301(17)
O2H O 0.46922(19) 0.6155(2) -0.0806(3)
C1H C 0.2827(2) 0.5422(2) -0.0088(2)
C2H C 0.4167(2) 0.5854(2) -0.0691(3)
C3H C 0.2910(2) 0.5937(2) -0.0709(3)
C4H C 0.3523(2) 0.6134(2) -0.0992(2)
C5H C 0.2343(3) 0.6238(3) -0.0982(3)
H1H H 0.1935 0.6127 -0.0774
C6H C 0.3549(3) 0.6605(3) -0.1575(3)
H2H H 0.3955 0.6735 -0.1774
C7H C 0.2971(4) 0.6877(4) -0.1855(4)
H3H H 0.2988 0.7184 -0.2251
C8H C 0.2374(4) 0.6695(4) -0.1551(4)
H4H H 0.1986 0.6885 -0.1735
C9H C 0.3195(2) 0.3204(2) -0.1257(3)
H5H H 0.3243 0.3578 -0.1563
C10H C 0.2958(3) 0.2222(2) -0.0858(3)
H6H H 0.2807 0.1788 -0.0847
C11H C 0.3250(3) 0.2539(2) -0.0281(3)
H7H H 0.3335 0.2367 0.0203
C12H C 0.3225(3) 0.3984(2) 0.0509(3)
H8H H 0.3117 0.3636 0.0871
H9H H 0.3448 0.4333 0.0789
C13H C 0.3698(3) 0.3706(2) -0.0087(3)
H10H H 0.3826 0.4056 -0.0436
H11H H 0.4095 0.3548 0.0166
N1H N 0.2917(2) 0.26499(18) -0.1480(2)
N2H N 0.3403(2) 0.31595(18) -0.0527(2)
O3H O 0.28382(16) 0.55762(16) 0.05935(16)
C14H C 0.2588(3) 0.4258(3) 0.0177(3)
H12H H 0.2305 0.4400 0.0593
H13H H 0.2361 0.3907 -0.0095
N3H N 0.26905(19) 0.48165(19) -0.0347(2)
Cu1C Cu 0.2500 0.2500 -0.2500
Cu1G Cu 0.7500 0.7500 0.2500
N1F N 0.51499(18) 0.4583(2) -0.1020(2)
N1N N 0.48501(18) 0.5417(2) 0.1020(2)
O4 O 0.5000 0.2500 0.1182(18)
O5 O 0.5000 0.7500 0.1250
O6 O 0.4511(9) 0.3745(15) 0.2178(13)
O7 O 0.475(3) 0.331(2) 0.396(3)
loop_
_geom_bond_atom_site_label_1
_geom_bond_atom_site_label_2
_geom_bond_site_symmetry_1
_geom_bond_site_symmetry_2
Cu1 O1 1_555 1_555
O1 C2 1_555 1_555
O2 Cu1 1_555 1_555
C1 C3 1_555 1_555
C2 O2 1_555 1_555
C3 C4 1_555 1_555
C4 C2 1_555 1_555
C5 C3 1_555 1_555
H1 C5 1_555 1_555
C6 C4 1_555 1_555
H2 C6 1_555 1_555
C7 C6 1_555 1_555
H3 C7 1_555 1_555
C8 C5 1_555 1_555
H4 C8 1_555 1_555
C9 H5 1_555 1_555
C10 H6 1_555 1_555
C11 C10 1_555 1_555
H7 C11 1_555 1_555
C12 H8 1_555 1_555
H9 C12 1_555 1_555
C13 C12 1_555 1_555
H10 C13 1_555 1_555
H11 C13 1_555 1_555
N1 C9 1_555 1_555
N2 C9 1_555 1_555
O3 C1 1_555 1_555
C14 C12 1_555 1_555
H12 C14 1_555 1_555
H13 C14 1_555 1_555
N3 C1 1_555 1_555
O1H Cu1 1_555 1_555
O2H Cu1 1_555 1_555
C1H C3H 1_555 1_555
C2H O1H 1_555 1_555
C3H C4H 1_555 1_555
C4H C2H 1_555 1_555
C5H C3H 1_555 1_555
H1H C5H 1_555 1_555
C6H C4H 1_555 1_555
H2H C6H 1_555 1_555
C7H C6H 1_555 1_555
H3H C7H 1_555 1_555
C8H C5H 1_555 1_555
H4H C8H 1_555 1_555
C9H H5H 1_555 1_555
C10H H6H 1_555 1_555
C11H C10H 1_555 1_555
H7H C11H 1_555 1_555
C12H H8H 1_555 1_555
H9H C12H 1_555 1_555
C13H C12H 1_555 1_555
H10H C13H 1_555 1_555
H11H C13H 1_555 1_555
N1H C9H 1_555 1_555
N2H C9H 1_555 1_555
O3H C1H 1_555 1_555
C14H C12H 1_555 1_555
H12H C14H 1_555 1_555
H13H C14H 1_555 1_555
N3H C1H 1_555 1_555
Cu1C N1H 1_555 1_555
Cu1G N1 1_555 1_555
N1F Cu1 1_555 1_555
N1N Cu1 1_555 1_555
C7 C8 1_555 1_555
C10 N1 1_555 1_555
C11 N2 1_555 1_555
C13 N2 1_555 1_555
C14 N3 1_555 1_555
O2H C2H 1_555 1_555
C7H C8H 1_555 1_555
C10H N1H 1_555 1_555
C11H N2H 1_555 1_555
C13H N2H 1_555 1_555
C14H N3H 1_555 1_555

#END
