
#######################################################################
#
#                 Cambridge Crystallographic Data Centre
#                                CCDC 
#
#######################################################################
#
# If this CIF has been generated from an entry in the Cambridge 
# Structural Database, then it will include bibliographic, chemical, 
# crystal, experimental, refinement or atomic coordinate data resulting 
# from the CCDC's data processing and validation procedures.
#
#######################################################################

data_XINZAX
_symmetry_cell_setting           orthorhombic
_symmetry_space_group_name_H-M   'P 21 21 21'
_symmetry_Int_Tables_number      19
_space_group_name_Hall           'P 2ac 2ab'
loop_
_symmetry_equiv_pos_site_id
_symmetry_equiv_pos_as_xyz
1 x,y,z
2 1/2-x,-y,1/2+z
3 1/2+x,1/2-y,-z
4 -x,1/2+y,1/2-z
_cell_length_a                   6.7547(8)
_cell_length_b                   11.0302(9)
_cell_length_c                   17.1073(19)
_cell_angle_alpha                90
_cell_angle_beta                 90
_cell_angle_gamma                90
_cell_volume                     1274.59
loop_
_atom_site_label
_atom_site_type_symbol
_atom_site_fract_x
_atom_site_fract_y
_atom_site_fract_z
Cd1 Cd 1.00075(4) -0.737128(17) -1.028780(12)
O1 O 0.6927(4) -0.8993(3) -1.03957(16)
O2 O 0.9006(5) -0.8521(3) -1.13440(18)
O3 O 0.6360(4) -1.2338(2) -1.39497(14)
O4 O 0.8898(4) -1.1107(3) -1.37324(16)
O5 O 0.0888(5) -1.1184(4) -1.1088(2)
O6 O 0.0829(5) -1.2297(4) -1.2103(2)
O7 O 1.2136(4) -0.8815(2) -0.97760(17)
N1 N 0.1601(5) -1.1542(3) -1.1694(2)
N2 N 0.9894(6) -1.0313(2) -0.94831(18)
H1 H 0.8864 -0.9972 -0.9680
N3 N 1.2945(5) -1.0541(3) -0.9084(2)
H2 H 1.4204 -1.0432 -0.9057
C1 C 0.6387(6) -0.9861(3) -1.1648(2)
C2 C 0.7221(6) -1.0249(3) -1.2348(2)
H3 H 0.8455 -0.9954 -1.2496
C3 C 0.6242(6) -1.1069(3) -1.2832(2)
C4 C 0.4359(5) -1.1471(4) -1.2622(2)
H4 H 0.3666 -1.2006 -1.2941
C5 C 0.3550(5) -1.1062(3) -1.1937(2)
C6 C 0.4518(5) -1.0269(4) -1.1440(2)
H5 H 0.3927 -1.0015 -1.0977
C7 C 0.7504(6) -0.9060(3) -1.1104(2)
C8 C 0.7221(5) -1.1541(3) -1.3563(2)
C9 C 1.1692(5) -0.9813(3) -0.9472(2)
C10 C 0.9889(8) -1.1503(3) -0.9124(3)
H6 H 0.9781 -1.2138 -0.9514
H7 H 0.8812 -1.1583 -0.8753
C11 C 1.1891(7) -1.1543(4) -0.8715(3)
H8 H 1.1754 -1.1416 -0.8157
H9 H 1.2558 -1.2309 -0.8807
Cd1A Cd 0.49925(4) -1.262872(17) -1.528780(12)
Cd1B Cd 0.50075(4) -0.762872(17) -0.971220(12)
Cd1B_2 Cd 1.50075(4) -0.762872(17) -0.971220(12)
Cd1C Cd 0.99925(4) -1.237128(17) -1.471220(12)
O1B O 1.1927(4) -0.6007(3) -0.96043(16)
O3A O 0.8640(4) -0.7662(2) -0.89497(14)
O3C O 1.3640(4) -0.7338(2) -1.10503(14)
O4C O 1.1102(4) -0.6107(3) -1.12676(16)
O7B O 0.7136(4) -0.6185(2) -1.02240(17)
loop_
_geom_bond_atom_site_label_1
_geom_bond_atom_site_label_2
_geom_bond_site_symmetry_1
_geom_bond_site_symmetry_2
Cd1 O1 1_555 1_555
O1 C7 1_555 1_555
O2 Cd1 1_555 1_555
O3 C8 1_555 1_555
O4 C8 1_555 1_555
O5 N1 1_555 1_555
O6 N1 1_555 1_555
O7 Cd1 1_555 1_555
N1 C5 1_555 1_555
N2 H1 1_555 1_555
N3 H2 1_555 1_555
C1 C2 1_555 1_555
C2 H3 1_555 1_555
C3 C2 1_555 1_555
C4 C3 1_555 1_555
H4 C4 1_555 1_555
C5 C4 1_555 1_555
C6 C1 1_555 1_555
H5 C6 1_555 1_555
C7 O2 1_555 1_555
C8 C3 1_555 1_555
C9 O7 1_555 1_555
C10 N2 1_555 1_555
H6 C10 1_555 1_555
H7 C10 1_555 1_555
C11 N3 1_555 1_555
H8 C11 1_555 1_555
H9 C11 1_555 1_555
Cd1A O3 1_555 1_555
Cd1B O1 1_555 1_555
Cd1B_2 O7 1_555 1_555
Cd1C O3 1_555 1_555
O1B Cd1 1_555 1_555
O3A Cd1 1_555 1_555
O3C Cd1 1_555 1_555
O4C Cd1 1_555 1_555
O7B Cd1 1_555 1_555
O4 Cd1C 1_555 1_555
N2 C9 1_555 1_555
N3 C9 1_555 1_555
C1 C7 1_555 1_555
C5 C6 1_555 1_555
C10 C11 1_555 1_555
Cd1B O3A 1_555 1_555
Cd1B O7B 1_555 1_555
Cd1B_2 O1B 1_555 1_555
Cd1B_2 O3C 1_555 1_555

#END
