
#######################################################################
#
#                 Cambridge Crystallographic Data Centre
#                                CCDC 
#
#######################################################################
#
# If this CIF has been generated from an entry in the Cambridge 
# Structural Database, then it will include bibliographic, chemical, 
# crystal, experimental, refinement or atomic coordinate data resulting 
# from the CCDC's data processing and validation procedures.
#
#######################################################################

data_XIPCEF
_symmetry_cell_setting           monoclinic
_symmetry_space_group_name_H-M   'P 21/c'
_symmetry_Int_Tables_number      14
_space_group_name_Hall           '-P 2ybc'
loop_
_symmetry_equiv_pos_site_id
_symmetry_equiv_pos_as_xyz
1 x,y,z
2 -x,1/2+y,1/2-z
3 -x,-y,-z
4 x,1/2-y,1/2+z
_cell_length_a                   4.8720(14)
_cell_length_b                   14.347(4)
_cell_length_c                   11.655(3)
_cell_angle_alpha                90
_cell_angle_beta                 114.709(9)
_cell_angle_gamma                90
_cell_volume                     740.079
loop_
_atom_site_label
_atom_site_type_symbol
_atom_site_fract_x
_atom_site_fract_y
_atom_site_fract_z
Cu1 Cu -0.42909(5) -0.091635(17) -0.05631(2)
O1 O -0.8437(3) -0.16743(12) -0.07629(15)
O2 O -1.1232(3) -0.18634(11) 0.03231(14)
N1 N -0.4924(4) -0.37645(12) 0.26817(16)
N2 N -0.3774(5) -0.03560(14) 0.10872(17)
N3 N -0.2924(5) -0.07469(14) 0.20920(19)
N4 N -0.2117(8) -0.10985(19) 0.3045(3)
C1 C -0.6773(5) -0.30825(14) 0.1990(2)
H1 H -0.7899 -0.2750 0.2328
C2 C -0.7050(5) -0.28601(15) 0.0788(2)
C3 C -0.5397(5) -0.33676(15) 0.0283(2)
H2 H -0.5523 -0.3227 -0.0516
C4 C -0.3560(5) -0.40849(15) 0.0979(2)
H3 H -0.2471 -0.4443 0.0649
C5 C -0.3376(5) -0.42571(15) 0.2171(2)
H4 H -0.2126 -0.4736 0.2642
C6 C -0.9047(5) -0.20667(15) 0.0052(2)
Cu1_2 Cu -1.42909(5) -0.091635(17) -0.05631(2)
Cu1C Cu -0.42909(5) -0.408365(17) 0.44369(2)
Cu1B Cu -0.57091(5) 0.091635(17) 0.05631(2)
O2_2 O -0.1232(3) -0.18634(11) 0.03231(14)
N1C N -0.4924(4) -0.12355(12) -0.23183(16)
N2B N -0.6226(5) 0.03560(14) -0.10872(17)
loop_
_geom_bond_atom_site_label_1
_geom_bond_atom_site_label_2
_geom_bond_site_symmetry_1
_geom_bond_site_symmetry_2
Cu1 O1 1_555 1_555
O1 C6 1_555 1_555
O2 C6 1_555 1_555
N1 C1 1_555 1_555
N2 Cu1 1_555 1_555
N3 N2 1_555 1_555
N4 N3 1_555 1_555
C1 H1 1_555 1_555
C2 C1 1_555 1_555
C3 C2 1_555 1_555
H2 C3 1_555 1_555
C4 C3 1_555 1_555
H3 C4 1_555 1_555
C5 N1 1_555 1_555
H4 C5 1_555 1_555
C6 C2 1_555 1_555
Cu1_2 O2 1_555 1_555
Cu1C N1 1_555 1_555
Cu1B N2 1_555 1_555
O2_2 Cu1 1_555 1_555
N1C Cu1 1_555 1_555
N2B Cu1 1_555 1_555
C4 C5 1_555 1_555
Cu1B N2B 1_555 1_555

#END
