
#######################################################################
#
#                 Cambridge Crystallographic Data Centre
#                                CCDC 
#
#######################################################################
#
# If this CIF has been generated from an entry in the Cambridge 
# Structural Database, then it will include bibliographic, chemical, 
# crystal, experimental, refinement or atomic coordinate data resulting 
# from the CCDC's data processing and validation procedures.
#
#######################################################################

data_XIPDOR
_symmetry_cell_setting           orthorhombic
_symmetry_space_group_name_H-M   'P 21 21 21'
_symmetry_Int_Tables_number      19
_space_group_name_Hall           'P 2ac 2ab'
loop_
_symmetry_equiv_pos_site_id
_symmetry_equiv_pos_as_xyz
1 x,y,z
2 1/2-x,-y,1/2+z
3 1/2+x,1/2-y,-z
4 -x,1/2+y,1/2-z
_cell_length_a                   7.2402(6)
_cell_length_b                   9.4842(7)
_cell_length_c                   34.676(3)
_cell_angle_alpha                90
_cell_angle_beta                 90
_cell_angle_gamma                90
_cell_volume                     2381.11
loop_
_atom_site_label
_atom_site_type_symbol
_atom_site_fract_x
_atom_site_fract_y
_atom_site_fract_z
Pb1 Pb 0.228256(19) -0.187117(16) 0.528071(5)
O1 O 0.2091(4) -0.0549(3) 0.47062(9)
O2 O 0.2061(4) 0.0923(3) 0.52019(8)
O3 O 0.3736(4) 0.6499(3) 0.48027(10)
O4 O 0.0716(4) 0.6382(3) 0.48233(10)
O5 O 0.3722(5) 0.6116(4) 0.38623(10)
O6 O 1.6396(5) 0.5736(4) 0.26554(10)
H1 H 1.6142 0.5797 0.2894
N1 N 0.4029(5) 0.4304(4) 0.42856(11)
N2 N 1.1589(6) 0.3623(4) 0.33463(12)
N3 N 1.6848(5) 0.0860(4) 0.29662(11)
N4 N 1.9178(5) 0.2022(5) 0.26311(12)
N5 N 1.8896(5) 0.4476(5) 0.24839(12)
N6 N 1.4789(5) 0.3367(5) 0.30019(11)
N7 N 2.1412(5) 0.3191(5) 0.22872(12)
H2 H 2.2027 0.2418 0.2270
H3 H 2.1835 0.3950 0.2184
C1 C 0.1997(6) 0.0709(5) 0.48455(12)
C2 C 0.1805(6) 0.1902(5) 0.45628(13)
H4 H 0.0639 0.1807 0.4427
H5 H 0.2788 0.1837 0.4374
C3 C 0.1881(6) 0.3352(4) 0.47559(14)
H6 H 0.2844 0.3346 0.4950
H7 H 0.0715 0.3526 0.4885
C4 C 0.2256(6) 0.4560(4) 0.44714(11)
H8 H 0.1276 0.4595 0.4277
C5 C 0.2242(6) 0.5911(4) 0.47087(14)
C6 C 0.4646(6) 0.5110(5) 0.39904(14)
C7 C 0.6487(6) 0.4712(5) 0.38326(13)
C8 C 0.7158(7) 0.3343(5) 0.38652(13)
H9 H 0.6464 0.2675 0.3998
C9 C 0.8832(6) 0.2950(6) 0.37058(13)
H10 H 0.9241 0.2024 0.3726
C10 C 0.9919(7) 0.3969(6) 0.35115(14)
C11 C 0.9255(6) 0.5344(5) 0.34857(14)
H11 H 0.9968 0.6031 0.3365
C12 C 0.7540(6) 0.5706(5) 0.36375(12)
H12 H 0.7096 0.6620 0.3608
C13 C 1.2358(7) 0.2232(5) 0.33698(13)
H13 H 1.1523 0.1559 0.3252
H14 H 1.2527 0.1969 0.3638
C14 C 1.4200(7) 0.2209(6) 0.31630(15)
C15 C 1.5220(7) 0.0929(6) 0.31401(14)
H15 H 1.4730 0.0118 0.3250
C16 C 1.7458(6) 0.2071(5) 0.28087(12)
C17 C 1.9814(6) 0.3213(7) 0.24736(14)
C18 C 1.7208(7) 0.4576(5) 0.26527(13)
C19 C 1.6441(6) 0.3316(5) 0.28213(13)
Pb1_2 Pb 0.228256(19) 0.812883(16) 0.528071(5)
Pb1B Pb -0.271744(19) 0.687117(16) 0.471929(5)
Pb1B_2 Pb 0.728256(19) 0.687117(16) 0.471929(5)
O3_2 O 0.3736(4) -0.3501(3) 0.48027(10)
O3B O -0.1264(4) -0.1499(3) 0.51973(10)
O4_2 O 0.0716(4) -0.3618(3) 0.48233(10)
O4B O 0.5716(4) -0.1382(3) 0.51767(10)
O7 O 1.3431(6) 0.6920(6) 0.30905(12)
O8 O 0.2142(10) -0.4447(6) 0.57577(15)
O9 O 0.3362(7) -0.1028(5) 0.39820(13)
O10 O -0.0200(9) -0.0732(6) 0.36315(17)
loop_
_geom_bond_atom_site_label_1
_geom_bond_atom_site_label_2
_geom_bond_site_symmetry_1
_geom_bond_site_symmetry_2
Pb1 O1 1_555 1_555
O1 C1 1_555 1_555
O2 Pb1 1_555 1_555
O3 C5 1_555 1_555
O4 C5 1_555 1_555
O5 C6 1_555 1_555
O6 H1 1_555 1_555
N1 C4 1_555 1_555
N2 C10 1_555 1_555
N3 C15 1_555 1_555
N4 C16 1_555 1_555
N5 C17 1_555 1_555
N6 C14 1_555 1_555
N7 H2 1_555 1_555
H3 N7 1_555 1_555
C1 O2 1_555 1_555
C2 C1 1_555 1_555
H4 C2 1_555 1_555
H5 C2 1_555 1_555
C3 C2 1_555 1_555
H6 C3 1_555 1_555
H7 C3 1_555 1_555
C4 C3 1_555 1_555
H8 C4 1_555 1_555
C5 C4 1_555 1_555
C6 N1 1_555 1_555
C7 C6 1_555 1_555
C8 C7 1_555 1_555
H9 C8 1_555 1_555
C9 C8 1_555 1_555
H10 C9 1_555 1_555
C10 C9 1_555 1_555
C11 C10 1_555 1_555
H11 C11 1_555 1_555
C12 C7 1_555 1_555
H12 C12 1_555 1_555
C13 N2 1_555 1_555
H13 C13 1_555 1_555
H14 C13 1_555 1_555
C14 C13 1_555 1_555
C15 C14 1_555 1_555
H15 C15 1_555 1_555
C16 N3 1_555 1_555
C17 N4 1_555 1_555
C18 O6 1_555 1_555
C19 N6 1_555 1_555
Pb1_2 O3 1_555 1_555
Pb1B O4 1_555 1_555
Pb1B_2 O3 1_555 1_555
O3_2 Pb1 1_555 1_555
O3B Pb1 1_555 1_555
O4_2 Pb1 1_555 1_555
O4B Pb1 1_555 1_555
O4 Pb1_2 1_555 1_555
N5 C18 1_555 1_555
N7 C17 1_555 1_555
C11 C12 1_555 1_555
C16 C19 1_555 1_555
C18 C19 1_555 1_555

#END
