
#######################################################################
#
#                 Cambridge Crystallographic Data Centre
#                                CCDC 
#
#######################################################################
#
# If this CIF has been generated from an entry in the Cambridge 
# Structural Database, then it will include bibliographic, chemical, 
# crystal, experimental, refinement or atomic coordinate data resulting 
# from the CCDC's data processing and validation procedures.
#
#######################################################################

data_XIPFOT01
_symmetry_cell_setting           tetragonal
_symmetry_space_group_name_H-M   'P 42/n'
_symmetry_Int_Tables_number      86
_space_group_name_Hall           '-P 4bc'
loop_
_symmetry_equiv_pos_site_id
_symmetry_equiv_pos_as_xyz
1 x,y,z
2 -y,1/2+x,1/2+z
3 1/2-x,1/2-y,z
4 1/2+y,-x,1/2+z
5 -x,-y,-z
6 y,1/2-x,1/2-z
7 1/2+x,1/2+y,-z
8 1/2-y,x,1/2-z
_cell_length_a                   15.4019(10)
_cell_length_b                   15.4019(10)
_cell_length_c                   8.4768(11)
_cell_angle_alpha                90
_cell_angle_beta                 90
_cell_angle_gamma                90
_cell_volume                     2010.85
loop_
_atom_site_label
_atom_site_type_symbol
_atom_site_fract_x
_atom_site_fract_y
_atom_site_fract_z
Cu1 Cu 0.5000 1.0000 0.0000
O1 O 0.7150(3) 0.8481(3) 0.5421(5)
O2 O 0.4163(3) 0.9071(3) 0.0304(6)
O3 O 0.4936(3) 0.8488(3) -0.1592(6)
N1 N 0.5667(3) 0.9574(3) 0.1891(5)
C1 C 0.5277(4) 0.9249(4) 0.3174(7)
H1 H 0.4674 0.9268 0.3222
C2 C 0.5722(4) 0.8889(4) 0.4431(7)
H2 H 0.5426 0.8670 0.5301
C3 C 0.6623(4) 0.8862(4) 0.4359(6)
C4 C 0.7030(4) 0.9238(4) 0.3072(7)
H3 H 0.7633 0.9254 0.3014
C5 C 0.6538(4) 0.9582(4) 0.1889(7)
H4 H 0.6821 0.9837 0.1038
C6 C 0.6770(4) 0.7889(4) 0.6506(7)
H5 H 0.6465 0.7433 0.5943
H6 H 0.6358 0.8188 0.7178
C7 C 0.7500 0.7500 0.7500
C8 C 0.4347(5) 0.8447(5) -0.0690(11)
C9 C 0.3727(6) 0.7673(5) -0.0633(14)
H7 H 0.3847 0.7300 -0.1529
H8 H 0.3847 0.7341 0.0315
C10 C 0.2802(5) 0.7898(5) -0.0649(12)
H9 H 0.2682 0.8245 -0.1579
H10 H 0.2673 0.8251 0.0269
O1B O 0.7850(3) 0.6519(3) 0.5421(5)
N1B N 0.9333(3) 0.5426(3) 0.1891(5)
C1B C 0.9723(4) 0.5751(4) 0.3174(7)
H1B H 1.0326 0.5732 0.3222
C2B C 0.9278(4) 0.6111(4) 0.4431(7)
H2B H 0.9574 0.6330 0.5301
C3B C 0.8377(4) 0.6138(4) 0.4359(6)
C4B C 0.7970(4) 0.5762(4) 0.3072(7)
H3B H 0.7367 0.5746 0.3014
C5B C 0.8462(4) 0.5418(4) 0.1889(7)
H4B H 0.8179 0.5163 0.1038
C6B C 0.8230(4) 0.7111(4) 0.6506(7)
H5B H 0.8535 0.7567 0.5943
H6B H 0.8642 0.6812 0.7178
O1E O 0.8481(3) 0.7850(3) 0.9579(5)
N1E N 0.9574(3) 0.9333(3) 1.3109(5)
C1E C 0.9249(4) 0.9723(4) 1.1826(7)
H1E H 0.9268 1.0326 1.1778
C2E C 0.8889(4) 0.9278(4) 1.0569(7)
H2E H 0.8670 0.9574 0.9699
C3E C 0.8862(4) 0.8377(4) 1.0641(6)
C4E C 0.9238(4) 0.7970(4) 1.1928(7)
H3E H 0.9254 0.7367 1.1986
C5E C 0.9582(4) 0.8462(4) 1.3111(7)
H4E H 0.9837 0.8179 1.3962
C6E C 0.7889(4) 0.8230(4) 0.8494(7)
H5E H 0.7433 0.8535 0.9057
H6E H 0.8188 0.8642 0.7822
O1G O 0.6519(3) 0.7150(3) 0.9579(5)
N1G N 0.5426(3) 0.5667(3) 1.3109(5)
C1G C 0.5751(4) 0.5277(4) 1.1826(7)
H1G H 0.5732 0.4674 1.1778
C2G C 0.6111(4) 0.5722(4) 1.0569(7)
H2G H 0.6330 0.5426 0.9699
C3G C 0.6138(4) 0.6623(4) 1.0641(6)
C4G C 0.5762(4) 0.7030(4) 1.1928(7)
H3G H 0.5746 0.7633 1.1986
C5G C 0.5418(4) 0.6538(4) 1.3111(7)
H4G H 0.5163 0.6821 1.3962
C6G C 0.7111(4) 0.6770(4) 0.8494(7)
H5G H 0.7567 0.6465 0.9057
H6G H 0.6812 0.6358 0.7822
O2B O 0.0837(3) 0.5929(3) 0.0304(6)
O3B O 0.0064(3) 0.6512(3) -0.1592(6)
C8B C 0.0653(5) 0.6553(5) -0.0690(11)
C9B C 0.1273(6) 0.7327(5) -0.0633(14)
H7B H 0.1153 0.7700 -0.1529
H8B H 0.1153 0.7659 0.0315
C10B C 0.2198(5) 0.7102(5) -0.0649(12)
H9B H 0.2318 0.6755 -0.1579
H10B H 0.2327 0.6749 0.0269
Cu1B Cu 0.0000 0.5000 0.0000
O2D O 0.5837(3) 1.0929(3) -0.0304(6)
O3D O 0.5064(3) 1.1512(3) 0.1592(6)
C8D C 0.5653(5) 1.1553(5) 0.0690(11)
C9D C 0.6273(6) 1.2327(5) 0.0633(14)
H7D H 0.6153 1.2700 0.1529
H8D H 0.6153 1.2659 -0.0315
C10D C 0.7198(5) 1.2102(5) 0.0649(12)
H9D H 0.7318 1.1755 0.1579
H10D H 0.7327 1.1749 -0.0269
O2F O 0.9163(3) 1.4071(3) -0.0304(6)
O3F O 0.9936(3) 1.3488(3) 0.1592(6)
C8F C 0.9347(5) 1.3447(5) 0.0690(11)
C9F C 0.8727(6) 1.2673(5) 0.0633(14)
H7F H 0.8847 1.2300 0.1529
H8F H 0.8847 1.2341 -0.0315
C10F C 0.7802(5) 1.2898(5) 0.0649(12)
H9F H 0.7682 1.3245 0.1579
H10F H 0.7673 1.3251 -0.0269
Cu1A Cu 1.0000 1.0000 1.5000
Cu1B_2 Cu 1.0000 0.5000 0.0000
Cu1B_3 Cu 1.0000 1.5000 0.0000
Cu1C Cu 0.5000 0.5000 1.5000
O2F_2 O -0.0837(3) 0.4071(3) -0.0304(6)
O3F_2 O -0.0064(3) 0.3488(3) 0.1592(6)
N1B_2 N -0.0667(3) 0.5426(3) 0.1891(5)
N1D N 0.4333(3) 1.0426(3) -0.1891(5)
N1F N 0.0667(3) 0.4574(3) -0.1891(5)
O4 O 0.315(2) -0.0001(16) 0.206(3)
H11 H 0.3649 -0.0151 0.2402
H12 H 0.2896 0.0303 0.2762
loop_
_geom_bond_atom_site_label_1
_geom_bond_atom_site_label_2
_geom_bond_site_symmetry_1
_geom_bond_site_symmetry_2
Cu1 O2 1_555 1_555
O1 C3 1_555 1_555
O2 C8 1_555 1_555
O3 Cu1 1_555 1_555
N1 Cu1 1_555 1_555
C1 N1 1_555 1_555
H1 C1 1_555 1_555
C2 C1 1_555 1_555
H2 C2 1_555 1_555
C3 C2 1_555 1_555
C4 C3 1_555 1_555
H3 C4 1_555 1_555
C5 N1 1_555 1_555
H4 C5 1_555 1_555
C6 O1 1_555 1_555
H5 C6 1_555 1_555
H6 C6 1_555 1_555
C7 C6 1_555 1_555
C8 O3 1_555 1_555
C9 C8 1_555 1_555
H7 C9 1_555 1_555
H8 C9 1_555 1_555
C10 C9 1_555 1_555
H9 C10 1_555 1_555
H10 C10 1_555 1_555
O4 H11 1_555 1_555
H12 O4 1_555 1_555
O1B C3B 1_555 1_555
N1B C1B 1_555 1_555
C1B H1B 1_555 1_555
C2B C1B 1_555 1_555
H2B C2B 1_555 1_555
C3B C2B 1_555 1_555
C4B C3B 1_555 1_555
H3B C4B 1_555 1_555
C5B N1B 1_555 1_555
H4B C5B 1_555 1_555
C6B C7 1_555 1_555
H5B C6B 1_555 1_555
H6B C6B 1_555 1_555
O1E C3E 1_555 1_555
N1E C1E 1_555 1_555
C1E H1E 1_555 1_555
C2E C1E 1_555 1_555
H2E C2E 1_555 1_555
C3E C2E 1_555 1_555
C4E C3E 1_555 1_555
H3E C4E 1_555 1_555
C5E N1E 1_555 1_555
H4E C5E 1_555 1_555
C6E C7 1_555 1_555
H5E C6E 1_555 1_555
H6E C6E 1_555 1_555
O1G C3G 1_555 1_555
N1G C1G 1_555 1_555
C1G H1G 1_555 1_555
C2G C1G 1_555 1_555
H2G C2G 1_555 1_555
C3G C2G 1_555 1_555
C4G C3G 1_555 1_555
H3G C4G 1_555 1_555
C5G N1G 1_555 1_555
H4G C5G 1_555 1_555
C6G C7 1_555 1_555
H5G C6G 1_555 1_555
H6G C6G 1_555 1_555
O2B C8B 1_555 1_555
O3B C8B 1_555 1_555
C8B C9B 1_555 1_555
C9B H7B 1_555 1_555
H8B C9B 1_555 1_555
C10B C10 1_555 1_555
H9B C10B 1_555 1_555
H10B C10B 1_555 1_555
Cu1B O2B 1_555 1_555
O2D Cu1 1_555 1_555
O3D Cu1 1_555 1_555
C8D O2D 1_555 1_555
C9D C8D 1_555 1_555
H7D C9D 1_555 1_555
H8D C9D 1_555 1_555
C10D C9D 1_555 1_555
H9D C10D 1_555 1_555
H10D C10D 1_555 1_555
O2F C8F 1_555 1_555
O3F C8F 1_555 1_555
C8F C9F 1_555 1_555
C9F H7F 1_555 1_555
H8F C9F 1_555 1_555
C10F C10D 1_555 1_555
H9F C10F 1_555 1_555
H10F C10F 1_555 1_555
Cu1A N1E 1_555 1_555
Cu1B_2 N1B 1_555 1_555
Cu1B_3 O2F 1_555 1_555
Cu1C N1G 1_555 1_555
O2F_2 Cu1B 1_555 1_555
O3F_2 Cu1B 1_555 1_555
N1B_2 Cu1B 1_555 1_555
N1D Cu1 1_555 1_555
N1F Cu1B 1_555 1_555
C4 C5 1_555 1_555
O1B C6B 1_555 1_555
C4B C5B 1_555 1_555
O1E C6E 1_555 1_555
C4E C5E 1_555 1_555
O1G C6G 1_555 1_555
C4G C5G 1_555 1_555
O3B Cu1B 1_555 1_555
C9B C10B 1_555 1_555
O3D C8D 1_555 1_555
O3F Cu1B_3 1_555 1_555
C9F C10F 1_555 1_555

#END
