
#######################################################################
#
#                 Cambridge Crystallographic Data Centre
#                                CCDC 
#
#######################################################################
#
# If this CIF has been generated from an entry in the Cambridge 
# Structural Database, then it will include bibliographic, chemical, 
# crystal, experimental, refinement or atomic coordinate data resulting 
# from the CCDC's data processing and validation procedures.
#
#######################################################################

data_XIPFOT
_symmetry_cell_setting           tetragonal
_symmetry_space_group_name_H-M   'P 42/n'
_symmetry_Int_Tables_number      86
_space_group_name_Hall           '-P 4bc'
loop_
_symmetry_equiv_pos_site_id
_symmetry_equiv_pos_as_xyz
1 x,y,z
2 1/2-x,1/2-y,z
3 -y,1/2+x,1/2+z
4 1/2+y,-x,1/2+z
5 -x,-y,-z
6 1/2+x,1/2+y,-z
7 y,1/2-x,1/2-z
8 1/2-y,x,1/2-z
_cell_length_a                   15.4247(9)
_cell_length_b                   15.4247(9)
_cell_length_c                   8.4560(10)
_cell_angle_alpha                90
_cell_angle_beta                 90
_cell_angle_gamma                90
_cell_volume                     2011.86
loop_
_atom_site_label
_atom_site_type_symbol
_atom_site_fract_x
_atom_site_fract_y
_atom_site_fract_z
C1 C 0.5421(3) 0.6548(3) 0.1861(5)
H1 H 0.5180 0.6830 0.0994
C2 C 0.5767(3) 0.7033(3) 0.3054(5)
H2 H 0.5755 0.7635 0.2995
C3 C 0.6135(2) 0.6629(2) 0.4353(4)
C4 C 0.6101(3) 0.5738(2) 0.4441(5)
H3 H 0.6319 0.5444 0.5316
C5 C 0.5734(2) 0.5294(2) 0.3195(5)
H4 H 0.5705 0.4692 0.3261
C6 C 0.7500 0.7500 0.7500
C7 C 0.7112(2) 0.6773(2) 0.6507(4)
H5 H 0.7566 0.6467 0.5944
H6 H 0.6810 0.6363 0.7181
C8 C 0.6541(3) 0.4332(4) -0.0609(8)
C9 C 0.7312(4) 0.3706(5) -0.0451(9)
H7 H 0.7714 0.3820 -0.1308
H8 H 0.7610 0.3832 0.0532
C10 C 0.7100(4) 0.2812(5) -0.0471(10)
H9 H 0.6753 0.2694 -0.1404
H10 H 0.6745 0.2683 0.0447
Cu1 Cu 0.5000 0.5000 0.0000
N1 N 0.54146(19) 0.5674(2) 0.1895(4)
O1 O 0.5910(2) 0.4158(2) 0.0359(4)
O2 O 0.6534(3) 0.4919(3) -0.1552(5)
O3 O 0.65195(19) 0.71570(17) 0.5411(3)
C1A C 0.9579(3) 0.8452(3) 0.1861(5)
H1A H 0.9820 0.8170 0.0994
C2A C 0.9233(3) 0.7967(3) 0.3054(5)
H2A H 0.9245 0.7365 0.2995
C3A C 0.8865(2) 0.8371(2) 0.4353(4)
C4A C 0.8899(3) 0.9262(2) 0.4441(5)
H3A H 0.8681 0.9556 0.5316
C5A C 0.9266(2) 0.9706(2) 0.3195(5)
H4A H 0.9295 1.0308 0.3261
C7A C 0.7888(2) 0.8227(2) 0.6507(4)
H5A H 0.7434 0.8533 0.5944
H6A H 0.8190 0.8637 0.7181
N1A N 0.95854(19) 0.9326(2) 0.1895(4)
O3A O 0.84805(19) 0.78430(17) 0.5411(3)
C1F C 0.6548(3) 0.9579(3) 1.3139(5)
H1F H 0.6830 0.9820 1.4006
C2F C 0.7033(3) 0.9233(3) 1.1946(5)
H2F H 0.7635 0.9245 1.2005
C3F C 0.6629(2) 0.8865(2) 1.0647(4)
C4F C 0.5738(2) 0.8899(3) 1.0559(5)
H3F H 0.5444 0.8681 0.9684
C5F C 0.5294(2) 0.9266(2) 1.1805(5)
H4F H 0.4692 0.9295 1.1739
C7F C 0.6773(2) 0.7888(2) 0.8493(4)
H5F H 0.6467 0.7434 0.9056
H6F H 0.6363 0.8190 0.7819
N1F N 0.5674(2) 0.95854(19) 1.3105(4)
O3F O 0.71570(17) 0.84805(19) 0.9589(3)
C1G C 0.8452(3) 0.5421(3) 1.3139(5)
H1G H 0.8170 0.5180 1.4006
C2G C 0.7967(3) 0.5767(3) 1.1946(5)
H2G H 0.7365 0.5755 1.2005
C3G C 0.8371(2) 0.6135(2) 1.0647(4)
C4G C 0.9262(2) 0.6101(3) 1.0559(5)
H3G H 0.9556 0.6319 0.9684
C5G C 0.9706(2) 0.5734(2) 1.1805(5)
H4G H 1.0308 0.5705 1.1739
C7G C 0.8227(2) 0.7112(2) 0.8493(4)
H5G H 0.8533 0.7566 0.9056
H6G H 0.8637 0.6810 0.7819
N1G N 0.9326(2) 0.54146(19) 1.3105(4)
O3G O 0.78430(17) 0.65195(19) 0.9589(3)
C8A C 0.8459(3) 0.0668(4) -0.0609(8)
C9A C 0.7688(4) 0.1294(5) -0.0451(9)
H7A H 0.7286 0.1180 -0.1308
H8A H 0.7390 0.1168 0.0532
C10A C 0.7900(4) 0.2188(5) -0.0471(10)
H9A H 0.8247 0.2306 -0.1404
H10A H 0.8255 0.2317 0.0447
O1A O 0.9090(2) 0.0842(2) 0.0359(4)
O2A O 0.8466(3) 0.0081(3) -0.1552(5)
Cu1A Cu 1.0000 0.0000 0.0000
C8D C 0.3459(3) 0.5668(4) 0.0609(8)
C9D C 0.2688(4) 0.6294(5) 0.0451(9)
H7D H 0.2286 0.6180 0.1308
H8D H 0.2390 0.6168 -0.0532
C10D C 0.2900(4) 0.7188(5) 0.0471(10)
H9D H 0.3247 0.7306 0.1404
H10D H 0.3255 0.7317 -0.0447
O1D O 0.4090(2) 0.5842(2) -0.0359(4)
O2D O 0.3466(3) 0.5081(3) 0.1552(5)
C8E C 0.1541(3) 0.9332(4) 0.0609(8)
C9E C 0.2312(4) 0.8706(5) 0.0451(9)
H7E H 0.2714 0.8820 0.1308
H8E H 0.2610 0.8832 -0.0532
C10E C 0.2100(4) 0.7812(5) 0.0471(10)
H9E H 0.1753 0.7694 0.1404
H10E H 0.1745 0.7683 -0.0447
O1E O 0.0910(2) 0.9158(2) -0.0359(4)
O2E O 0.1534(3) 0.9919(3) 0.1552(5)
Cu1A_2 Cu 0.0000 1.0000 0.0000
Cu1A_3 Cu 1.0000 1.0000 0.0000
Cu1B Cu 0.5000 1.0000 1.5000
Cu1C Cu 1.0000 0.5000 1.5000
N1A_2 N 0.95854(19) -0.0674(2) 0.1895(4)
N1D N 0.45854(19) 0.4326(2) -0.1895(4)
N1E N 1.04146(19) 0.0674(2) -0.1895(4)
O1E_2 O 1.0910(2) -0.0842(2) -0.0359(4)
O2E_2 O 1.1534(3) -0.0081(3) 0.1552(5)
O4 O 0.8142(8) 0.5033(6) 0.7061(14)
H11 H 0.8153 0.5462 0.7692
H12 H 0.8639 0.4972 0.6639
loop_
_geom_bond_atom_site_label_1
_geom_bond_atom_site_label_2
_geom_bond_site_symmetry_1
_geom_bond_site_symmetry_2
C1 H1 1_555 1_555
C2 C1 1_555 1_555
H2 C2 1_555 1_555
C3 C2 1_555 1_555
C4 C3 1_555 1_555
H3 C4 1_555 1_555
C5 C4 1_555 1_555
H4 C5 1_555 1_555
C6 C7 1_555 1_555
C7 H5 1_555 1_555
H6 C7 1_555 1_555
C8 C9 1_555 1_555
C9 H7 1_555 1_555
H8 C9 1_555 1_555
C10 C9 1_555 1_555
H9 C10 1_555 1_555
H10 C10 1_555 1_555
Cu1 N1 1_555 1_555
N1 C1 1_555 1_555
O1 C8 1_555 1_555
O2 C8 1_555 1_555
O3 C3 1_555 1_555
O4 H11 1_555 1_555
H12 O4 1_555 1_555
C1A H1A 1_555 1_555
C2A C1A 1_555 1_555
H2A C2A 1_555 1_555
C3A C2A 1_555 1_555
C4A C3A 1_555 1_555
H3A C4A 1_555 1_555
C5A C4A 1_555 1_555
H4A C5A 1_555 1_555
C7A C6 1_555 1_555
H5A C7A 1_555 1_555
H6A C7A 1_555 1_555
N1A C1A 1_555 1_555
O3A C3A 1_555 1_555
C1F H1F 1_555 1_555
C2F C1F 1_555 1_555
H2F C2F 1_555 1_555
C3F C2F 1_555 1_555
C4F C3F 1_555 1_555
H3F C4F 1_555 1_555
C5F C4F 1_555 1_555
H4F C5F 1_555 1_555
C7F C6 1_555 1_555
H5F C7F 1_555 1_555
H6F C7F 1_555 1_555
N1F C1F 1_555 1_555
O3F C3F 1_555 1_555
C1G H1G 1_555 1_555
C2G C1G 1_555 1_555
H2G C2G 1_555 1_555
C3G C2G 1_555 1_555
C4G C3G 1_555 1_555
H3G C4G 1_555 1_555
C5G C4G 1_555 1_555
H4G C5G 1_555 1_555
C7G C6 1_555 1_555
H5G C7G 1_555 1_555
H6G C7G 1_555 1_555
N1G C1G 1_555 1_555
O3G C3G 1_555 1_555
C8A C9A 1_555 1_555
C9A H7A 1_555 1_555
H8A C9A 1_555 1_555
C10A C10 1_555 1_555
H9A C10A 1_555 1_555
H10A C10A 1_555 1_555
O1A C8A 1_555 1_555
O2A C8A 1_555 1_555
Cu1A O1A 1_555 1_555
C8D C9D 1_555 1_555
C9D H7D 1_555 1_555
H8D C9D 1_555 1_555
C10D C9D 1_555 1_555
H9D C10D 1_555 1_555
H10D C10D 1_555 1_555
O1D Cu1 1_555 1_555
O2D Cu1 1_555 1_555
C8E C9E 1_555 1_555
C9E H7E 1_555 1_555
H8E C9E 1_555 1_555
C10E C10D 1_555 1_555
H9E C10E 1_555 1_555
H10E C10E 1_555 1_555
O1E C8E 1_555 1_555
O2E C8E 1_555 1_555
Cu1A_2 O1E 1_555 1_555
Cu1A_3 N1A 1_555 1_555
Cu1B N1F 1_555 1_555
Cu1C N1G 1_555 1_555
N1A_2 Cu1A 1_555 1_555
N1D Cu1 1_555 1_555
N1E Cu1A 1_555 1_555
O1E_2 Cu1A 1_555 1_555
O2E_2 Cu1A 1_555 1_555
C5 N1 1_555 1_555
C7 O3 1_555 1_555
Cu1 O1 1_555 1_555
Cu1 O2 1_555 1_555
C5A N1A 1_555 1_555
C7A O3A 1_555 1_555
C5F N1F 1_555 1_555
C7F O3F 1_555 1_555
C5G N1G 1_555 1_555
C7G O3G 1_555 1_555
C9A C10A 1_555 1_555
O2A Cu1A 1_555 1_555
C8D O1D 1_555 1_555
C8D O2D 1_555 1_555
C9E C10E 1_555 1_555
O2E Cu1A_2 1_555 1_555

#END
