
#######################################################################
#
#                 Cambridge Crystallographic Data Centre
#                                CCDC 
#
#######################################################################
#
# If this CIF has been generated from an entry in the Cambridge 
# Structural Database, then it will include bibliographic, chemical, 
# crystal, experimental, refinement or atomic coordinate data resulting 
# from the CCDC's data processing and validation procedures.
#
#######################################################################

data_XIPHUB
_symmetry_cell_setting           monoclinic
_symmetry_space_group_name_H-M   'P 21/c'
_symmetry_Int_Tables_number      14
_space_group_name_Hall           '-P 2ybc'
loop_
_symmetry_equiv_pos_site_id
_symmetry_equiv_pos_as_xyz
1 x,y,z
2 -x,1/2+y,1/2-z
3 -x,-y,-z
4 x,1/2-y,1/2+z
_cell_length_a                   11.3278(9)
_cell_length_b                   13.2079(14)
_cell_length_c                   18.9925(14)
_cell_angle_alpha                90
_cell_angle_beta                 122.189(4)
_cell_angle_gamma                90
_cell_volume                     2404.83
loop_
_atom_site_label
_atom_site_type_symbol
_atom_site_fract_x
_atom_site_fract_y
_atom_site_fract_z
O1 O 0.3801(3) 0.9677(2) 0.72391(19)
H1 H 0.4660 0.9828 0.7551
H2 H 0.366(6) 0.919(4) 0.692(3)
Co1 Co 1.0000 1.0000 1.0000
Co2 Co 1.0000 1.5000 1.0000
O2 O 0.67862(19) 1.01794(15) 0.83333(12)
O3 O 0.9264(2) 0.92272(18) 0.88217(13)
O4 O 0.85241(17) 1.11081(14) 0.93382(11)
O5 O 0.8232(2) 1.58467(19) 0.90743(13)
O6 O 1.00525(19) 1.27979(15) 1.09811(12)
O7 O 0.86584(18) 1.38718(15) 0.99721(11)
N1 N 0.0308(2) 0.7981(2) 0.68454(13)
N2 N 0.0010(2) 0.92002(18) 0.59719(13)
N3 N 0.7343(2) 0.78923(19) 1.02005(14)
N4 N 0.8587(2) 0.91793(18) 1.02033(13)
C1 C 0.6245(2) 1.1808(2) 0.86229(16)
C2 C 0.6428(2) 1.2464(2) 0.92546(16)
C3 C 0.5406(3) 1.3204(2) 0.90437(18)
H3 H 0.5500 1.3640 0.9455
C4 C 0.4268(3) 1.3306(2) 0.8248(2)
H4 H 0.3607 1.3806 0.8126
C5 C 0.4109(3) 1.2665(2) 0.76294(19)
H5 H 0.3344 1.2732 0.7089
C6 C 0.5088(3) 1.1926(2) 0.78169(18)
H6 H 0.4978 1.1497 0.7398
C7 C 0.7250(3) 1.0962(2) 0.87732(16)
C8 C 0.7626(3) 1.2403(2) 1.01501(15)
H7 H 0.7941 1.1706 1.0273
H8 H 0.7284 1.2586 1.0505
C9 C 0.8874(3) 1.3073(2) 1.03725(16)
C10 C 0.2333(3) 0.7027(2) 0.79468(15)
C11 C 0.2996(3) 0.6120(2) 0.83008(17)
H9 H 0.2502 0.5518 0.8101
C12 C 0.4374(3) 0.6092(2) 0.89446(18)
H10 H 0.4799 0.5475 0.9177
C13 C 0.5134(3) 0.6991(2) 0.92475(16)
C14 C 0.4500(3) 0.7889(2) 0.88741(17)
H11 H 0.5007 0.8489 0.9054
C15 C 0.3100(3) 0.7911(2) 0.82272(17)
H12 H 0.2680 0.8525 0.7983
C16 C 0.0792(3) 0.7022(2) 0.72882(17)
H13 H 0.0603 0.6486 0.6892
H14 H 0.0272 0.6873 0.7549
C17 C 0.0455(3) 0.8268(2) 0.62158(16)
H15 H 0.0825 0.7858 0.5982
C18 C -0.0428(3) 0.9529(3) 0.64801(18)
H16 H -0.0793 1.0167 0.6458
C19 C -0.0248(3) 0.8783(3) 0.70218(19)
H17 H -0.0462 0.8814 0.7431
C20 C 0.6632(3) 0.6922(2) 0.99677(18)
H18 H 0.6651 0.6638 1.0445
H19 H 0.7134 0.6463 0.9819
C21 C 0.8128(3) 0.8261(2) 0.99251(17)
H20 H 0.8326 0.7907 0.9577
C22 C 0.8039(3) 0.9420(2) 1.06794(17)
H21 H 0.8176 1.0030 1.0958
C23 C 0.7272(3) 0.8636(3) 1.06812(19)
H22 H 0.6792 0.8607 1.0954
H23 H 0.860(4) 1.622(3) 0.890(2)
H24 H 0.756(4) 1.560(3) 0.865(3)
H25 H 0.944(3) 0.855(3) 0.8862(19)
H26 H 0.847(4) 0.935(3) 0.859(2)
O2B O 1.32138(19) 0.98206(15) 1.16667(12)
O3B O 1.0736(2) 1.07728(18) 1.11783(13)
O4B O 1.14759(17) 0.88919(14) 1.06618(11)
O6B O 0.99475(19) 0.72021(15) 0.90189(12)
O7B O 1.13416(18) 0.61282(15) 1.00279(11)
N1B N 1.9692(2) 1.2019(2) 1.31546(13)
N2B N 1.9990(2) 1.07998(18) 1.40281(13)
N3B N 1.2657(2) 1.21077(19) 0.97995(14)
N4B N 1.1413(2) 1.08207(18) 0.97967(13)
C1B C 1.3755(2) 0.8192(2) 1.13771(16)
C2B C 1.3572(2) 0.7536(2) 1.07454(16)
C3B C 1.4594(3) 0.6796(2) 1.09563(18)
H3B H 1.4500 0.6360 1.0545
C4B C 1.5732(3) 0.6694(2) 1.1752(2)
H4B H 1.6393 0.6194 1.1874
C5B C 1.5891(3) 0.7335(2) 1.23706(19)
H5B H 1.6656 0.7268 1.2911
C6B C 1.4912(3) 0.8074(2) 1.21831(18)
H6B H 1.5022 0.8503 1.2602
C7B C 1.2750(3) 0.9038(2) 1.12268(16)
C8B C 1.2374(3) 0.7597(2) 0.98499(15)
H7B H 1.2059 0.8294 0.9727
H8B H 1.2716 0.7414 0.9495
C9B C 1.1126(3) 0.6927(2) 0.96275(16)
C10B C 1.7667(3) 1.2973(2) 1.20532(15)
C11B C 1.7004(3) 1.3880(2) 1.16992(17)
H9B H 1.7498 1.4482 1.1899
C12B C 1.5626(3) 1.3908(2) 1.10554(18)
H10B H 1.5201 1.4525 1.0823
C13B C 1.4866(3) 1.3009(2) 1.07525(16)
C14B C 1.5500(3) 1.2111(2) 1.11259(17)
H11B H 1.4993 1.1511 1.0946
C15B C 1.6900(3) 1.2089(2) 1.17728(17)
H12B H 1.7320 1.1475 1.2017
C16B C 1.9208(3) 1.2978(2) 1.27118(17)
H13B H 1.9397 1.3514 1.3108
H14B H 1.9728 1.3127 1.2451
C17B C 1.9545(3) 1.1732(2) 1.37842(16)
H15B H 1.9175 1.2142 1.4018
C18B C 2.0428(3) 1.0471(3) 1.35199(18)
H16B H 2.0793 0.9833 1.3542
C19B C 2.0248(3) 1.1217(3) 1.29782(19)
H17B H 2.0462 1.1186 1.2569
C20B C 1.3368(3) 1.3078(2) 1.00323(18)
H18B H 1.3349 1.3362 0.9555
H19B H 1.2866 1.3537 1.0181
C21B C 1.1872(3) 1.1739(2) 1.00749(17)
H20B H 1.1674 1.2093 1.0423
C22B C 1.1961(3) 1.0580(2) 0.93206(17)
H21B H 1.1824 0.9970 0.9042
C23B C 1.2728(3) 1.1364(3) 0.93188(19)
H22B H 1.3208 1.1393 0.9046
H25B H 1.056(3) 1.145(3) 1.1138(19)
H26B H 1.153(4) 1.065(3) 1.141(2)
O5B O 1.1768(2) 1.41533(19) 1.09257(13)
H23B H 1.140(4) 1.378(3) 1.110(2)
H24B H 1.244(4) 1.440(3) 1.135(3)
Co2_2 Co 1.0000 0.5000 1.0000
Co2A Co 0.0000 1.0000 0.5000
Co2A_2 Co 2.0000 1.0000 1.5000
O7B_2 O 1.13416(18) 1.61282(15) 1.00279(11)
N2A N 0.9990(2) 1.42002(18) 0.90281(13)
N2C N 1.0010(2) 1.57998(18) 1.09719(13)
loop_
_geom_bond_atom_site_label_1
_geom_bond_atom_site_label_2
_geom_bond_site_symmetry_1
_geom_bond_site_symmetry_2
O1 H1 1_555 1_555
H2 O1 1_555 1_555
Co1 O3 1_555 1_555
Co2 O5 1_555 1_555
O2 C7 1_555 1_555
O3 H25 1_555 1_555
O4 Co1 1_555 1_555
O5 H23 1_555 1_555
O6 C9 1_555 1_555
O7 Co2 1_555 1_555
N1 C16 1_555 1_555
N2 C17 1_555 1_555
N3 C20 1_555 1_555
N4 Co1 1_555 1_555
C1 C2 1_555 1_555
C2 C3 1_555 1_555
C3 H3 1_555 1_555
C4 C3 1_555 1_555
H4 C4 1_555 1_555
C5 C4 1_555 1_555
H5 C5 1_555 1_555
C6 C1 1_555 1_555
H6 C6 1_555 1_555
C7 O4 1_555 1_555
C8 C2 1_555 1_555
H7 C8 1_555 1_555
H8 C8 1_555 1_555
C9 O7 1_555 1_555
C10 C11 1_555 1_555
C11 H9 1_555 1_555
C12 C11 1_555 1_555
H10 C12 1_555 1_555
C13 C12 1_555 1_555
C14 C13 1_555 1_555
H11 C14 1_555 1_555
C15 C10 1_555 1_555
H12 C15 1_555 1_555
C16 C10 1_555 1_555
H13 C16 1_555 1_555
H14 C16 1_555 1_555
C17 N1 1_555 1_555
H15 C17 1_555 1_555
C18 N2 1_555 1_555
H16 C18 1_555 1_555
C19 N1 1_555 1_555
H17 C19 1_555 1_555
C20 C13 1_555 1_555
H18 C20 1_555 1_555
H19 C20 1_555 1_555
C21 N3 1_555 1_555
H20 C21 1_555 1_555
C22 N4 1_555 1_555
H21 C22 1_555 1_555
C23 N3 1_555 1_555
H22 C23 1_555 1_555
H24 O5 1_555 1_555
H26 O3 1_555 1_555
O2B C7B 1_555 1_555
O3B Co1 1_555 1_555
O4B Co1 1_555 1_555
O6B C9B 1_555 1_555
O7B C9B 1_555 1_555
N1B C16B 1_555 1_555
N2B C17B 1_555 1_555
N3B C20B 1_555 1_555
N4B Co1 1_555 1_555
C1B C2B 1_555 1_555
C2B C3B 1_555 1_555
C3B H3B 1_555 1_555
C4B C3B 1_555 1_555
H4B C4B 1_555 1_555
C5B C4B 1_555 1_555
H5B C5B 1_555 1_555
C6B C1B 1_555 1_555
H6B C6B 1_555 1_555
C7B O4B 1_555 1_555
C8B C2B 1_555 1_555
H7B C8B 1_555 1_555
H8B C8B 1_555 1_555
C9B C8B 1_555 1_555
C10B C11B 1_555 1_555
C11B H9B 1_555 1_555
C12B C11B 1_555 1_555
H10B C12B 1_555 1_555
C13B C12B 1_555 1_555
C14B C13B 1_555 1_555
H11B C14B 1_555 1_555
C15B C10B 1_555 1_555
H12B C15B 1_555 1_555
C16B C10B 1_555 1_555
H13B C16B 1_555 1_555
H14B C16B 1_555 1_555
C17B N1B 1_555 1_555
H15B C17B 1_555 1_555
C18B N2B 1_555 1_555
H16B C18B 1_555 1_555
C19B N1B 1_555 1_555
H17B C19B 1_555 1_555
C20B C13B 1_555 1_555
H18B C20B 1_555 1_555
H19B C20B 1_555 1_555
C21B N3B 1_555 1_555
H20B C21B 1_555 1_555
C22B N4B 1_555 1_555
H21B C22B 1_555 1_555
C23B N3B 1_555 1_555
H22B C23B 1_555 1_555
H25B O3B 1_555 1_555
H26B O3B 1_555 1_555
O5B Co2 1_555 1_555
H23B O5B 1_555 1_555
H24B O5B 1_555 1_555
Co2_2 O7B 1_555 1_555
Co2A N2 1_555 1_555
Co2A_2 N2B 1_555 1_555
O7B_2 Co2 1_555 1_555
N2A Co2 1_555 1_555
N2C Co2 1_555 1_555
N4 C21 1_555 1_555
C1 C7 1_555 1_555
C5 C6 1_555 1_555
C8 C9 1_555 1_555
C14 C15 1_555 1_555
C18 C19 1_555 1_555
C22 C23 1_555 1_555
N4B C21B 1_555 1_555
C1B C7B 1_555 1_555
C5B C6B 1_555 1_555
C14B C15B 1_555 1_555
C18B C19B 1_555 1_555
C22B C23B 1_555 1_555

#END
