
#######################################################################
#
#                 Cambridge Crystallographic Data Centre
#                                CCDC 
#
#######################################################################
#
# If this CIF has been generated from an entry in the Cambridge 
# Structural Database, then it will include bibliographic, chemical, 
# crystal, experimental, refinement or atomic coordinate data resulting 
# from the CCDC's data processing and validation procedures.
#
#######################################################################

data_XIPHIP
_symmetry_cell_setting           triclinic
_symmetry_space_group_name_H-M   'P -1'
_symmetry_Int_Tables_number      2
_space_group_name_Hall           '-P 1'
loop_
_symmetry_equiv_pos_site_id
_symmetry_equiv_pos_as_xyz
1 x,y,z
2 -x,-y,-z
_cell_length_a                   9.1658(5)
_cell_length_b                   11.8148(6)
_cell_length_c                   12.0617(7)
_cell_angle_alpha                104.600(2)
_cell_angle_beta                 110.974(2)
_cell_angle_gamma                95.632(3)
_cell_volume                     1154.33
loop_
_atom_site_label
_atom_site_type_symbol
_atom_site_fract_x
_atom_site_fract_y
_atom_site_fract_z
C1 C 0.4919(3) 0.1557(2) 0.6951(2)
C2 C 0.4805(4) 0.1172(2) 0.7931(3)
H1 H 0.4781 0.0371 0.7879
C3 C 0.4728(4) 0.1934(3) 0.8963(3)
H2 H 0.4658 0.1644 0.9595
C4 C 0.4754(4) 0.3141(3) 0.9075(3)
H3 H 0.4721 0.3665 0.9781
C5 C 0.4830(4) 0.3536(2) 0.8112(3)
H4 H 0.4827 0.4337 0.8173
C6 C 0.4912(3) 0.2785(2) 0.7046(2)
C7 C 0.4917(3) 0.3313(2) 0.6067(2)
C8 C 0.4679(3) 0.2667(2) 0.3081(2)
C9 C 0.4540(4) 0.3187(2) 0.2045(3)
H5 H 0.5589 0.3496 0.2115
H6 H 0.3966 0.3821 0.2100
H7 H 0.3978 0.2576 0.1256
C10 C 0.8272(4) 0.1979(3) 0.4727(3)
H8 H 0.7742 0.2368 0.4169
C11 C 1.0789(4) 0.1647(3) 0.6055(3)
H9 H 1.0088 0.1106 0.6209
H10 H 1.1460 0.2252 0.6824
H11 H 1.1442 0.1214 0.5712
C12 C 1.0739(4) 0.3046(3) 0.4816(3)
H12 H 1.0006 0.3359 0.4235
H13 H 1.1375 0.2638 0.4433
H14 H 1.1423 0.3691 0.5546
N1 N 0.4875(3) 0.26826(19) 0.5008(2)
N2 N 0.4816(3) 0.33588(19) 0.4183(2)
N3 N 0.9844(3) 0.2207(2) 0.5172(2)
O1 O 0.5034(2) 0.07740(15) 0.60002(17)
O2 O 0.4674(2) 0.15502(16) 0.28549(17)
O3 O 0.4917(2) 0.44589(16) 0.62844(18)
O4 O 0.2356(2) 0.04110(17) 0.36831(18)
O5 O 0.7441(2) 0.12836(17) 0.49949(18)
Ni1 Ni 0.48794(4) 0.09880(3) 0.43602(3)
Ni2 Ni 0.5000 0.5000 0.5000
H15 H 0.2120 -0.0172 0.4057
H16 H 0.1929 0.0052 0.2791
C1A C 0.5081(3) -0.1557(2) 0.3049(2)
C2A C 0.5195(4) -0.1172(2) 0.2069(3)
H1A H 0.5219 -0.0371 0.2121
C3A C 0.5272(4) -0.1934(3) 0.1037(3)
H2A H 0.5342 -0.1644 0.0405
C4A C 0.5246(4) -0.3141(3) 0.0925(3)
H3A H 0.5279 -0.3665 0.0219
C5A C 0.5170(4) -0.3536(2) 0.1888(3)
H4A H 0.5173 -0.4337 0.1827
C6A C 0.5088(3) -0.2785(2) 0.2954(2)
C7A C 0.5083(3) -0.3313(2) 0.3933(2)
C8A C 0.5321(3) -0.2667(2) 0.6919(2)
C9A C 0.5460(4) -0.3187(2) 0.7955(3)
H5A H 0.4411 -0.3496 0.7885
H6A H 0.6034 -0.3821 0.7900
H7A H 0.6022 -0.2576 0.8744
C10A C 0.1728(4) -0.1979(3) 0.5273(3)
H8A H 0.2258 -0.2368 0.5831
C11A C -0.0789(4) -0.1647(3) 0.3945(3)
H9A H -0.0088 -0.1106 0.3791
H10A H -0.1460 -0.2252 0.3176
H11A H -0.1442 -0.1214 0.4288
C12A C -0.0739(4) -0.3046(3) 0.5184(3)
H12A H -0.0006 -0.3359 0.5765
H13A H -0.1375 -0.2638 0.5567
H14A H -0.1423 -0.3691 0.4454
N1A N 0.5125(3) -0.26826(19) 0.4992(2)
N2A N 0.5184(3) -0.33588(19) 0.5817(2)
N3A N 0.0156(3) -0.2207(2) 0.4828(2)
O1A O 0.4966(2) -0.07740(15) 0.39998(17)
O2A O 0.5326(2) -0.15502(16) 0.71451(17)
O3A O 0.5083(2) -0.44589(16) 0.37156(18)
O4A O 0.7644(2) -0.04110(17) 0.63169(18)
O5A O 0.2559(2) -0.12836(17) 0.50051(18)
Ni1A Ni 0.51206(4) -0.09880(3) 0.56398(3)
H15A H 0.7880 0.0172 0.5943
H16A H 0.8071 -0.0052 0.7209
N2A_2 N 0.5184(3) 0.66412(19) 0.5817(2)
O3A_2 O 0.5083(2) 0.55411(16) 0.37156(18)
Ni2_2 Ni 0.5000 -0.5000 0.5000
C13 C 1.1533(5) 0.5122(4) 0.8196(4)
H17 H 1.2518 0.5114 0.8785
C14 C 1.0408(11) 0.3693(6) 0.8948(8)
H18 H 1.1512 0.3677 0.9364
H19 H 0.9815 0.2894 0.8461
H20 H 0.9990 0.4019 0.9556
C15 C 0.8730(6) 0.4412(5) 0.7255(6)
H21 H 0.8139 0.4821 0.7685
H22 H 0.8167 0.3599 0.6810
H23 H 0.8846 0.4805 0.6677
N4 N 1.0266(5) 0.4429(3) 0.8136(4)
O6 O 1.1538(4) 0.5764(3) 0.7561(3)
C16 C 0.8429(4) 0.0645(3) 0.9442(3)
H24 H 0.7488 0.0067 0.9069
C17 C 1.0391(5) 0.2096(3) 1.1317(3)
H25 H 1.0902 0.2159 1.0759
H26 H 1.1084 0.1856 1.1988
H27 H 1.0171 0.2857 1.1649
C18 C 0.8040(5) 0.0942(4) 1.1364(4)
H28 H 0.7044 0.0398 1.0814
H29 H 0.7835 0.1666 1.1803
H30 H 0.8660 0.0581 1.1953
N5 N 0.8911(3) 0.1214(2) 1.0645(3)
O7 O 0.9116(3) 0.0814(2) 0.8777(2)
loop_
_geom_bond_atom_site_label_1
_geom_bond_atom_site_label_2
_geom_bond_site_symmetry_1
_geom_bond_site_symmetry_2
C1 C2 1_555 1_555
C2 H1 1_555 1_555
C3 C2 1_555 1_555
H2 C3 1_555 1_555
C4 C3 1_555 1_555
H3 C4 1_555 1_555
C5 C4 1_555 1_555
H4 C5 1_555 1_555
C6 C1 1_555 1_555
C7 C6 1_555 1_555
C8 C9 1_555 1_555
C9 H5 1_555 1_555
H6 C9 1_555 1_555
H7 C9 1_555 1_555
C10 H8 1_555 1_555
C11 H9 1_555 1_555
H10 C11 1_555 1_555
H11 C11 1_555 1_555
C12 H12 1_555 1_555
H13 C12 1_555 1_555
H14 C12 1_555 1_555
N1 C7 1_555 1_555
N2 C8 1_555 1_555
N3 C10 1_555 1_555
O1 C1 1_555 1_555
O2 C8 1_555 1_555
O3 C7 1_555 1_555
O4 Ni1 1_555 1_555
O5 C10 1_555 1_555
Ni1 N1 1_555 1_555
Ni2 N2 1_555 1_555
H15 O4 1_555 1_555
H16 O4 1_555 1_555
C13 H17 1_555 1_555
C14 H18 1_555 1_555
H19 C14 1_555 1_555
H20 C14 1_555 1_555
C15 H21 1_555 1_555
H22 C15 1_555 1_555
H23 C15 1_555 1_555
N4 C13 1_555 1_555
O6 C13 1_555 1_555
C16 H24 1_555 1_555
C17 H25 1_555 1_555
H26 C17 1_555 1_555
H27 C17 1_555 1_555
C18 H28 1_555 1_555
H29 C18 1_555 1_555
H30 C18 1_555 1_555
N5 C16 1_555 1_555
O7 C16 1_555 1_555
C1A C2A 1_555 1_555
C2A H1A 1_555 1_555
C3A C2A 1_555 1_555
H2A C3A 1_555 1_555
C4A C3A 1_555 1_555
H3A C4A 1_555 1_555
C5A C4A 1_555 1_555
H4A C5A 1_555 1_555
C6A C1A 1_555 1_555
C7A C6A 1_555 1_555
C8A C9A 1_555 1_555
C9A H5A 1_555 1_555
H6A C9A 1_555 1_555
H7A C9A 1_555 1_555
C10A H8A 1_555 1_555
C11A H9A 1_555 1_555
H10A C11A 1_555 1_555
H11A C11A 1_555 1_555
C12A H12A 1_555 1_555
H13A C12A 1_555 1_555
H14A C12A 1_555 1_555
N1A C7A 1_555 1_555
N2A C8A 1_555 1_555
N3A C10A 1_555 1_555
O1A Ni1 1_555 1_555
O2A C8A 1_555 1_555
O3A C7A 1_555 1_555
O4A Ni1A 1_555 1_555
O5A C10A 1_555 1_555
Ni1A O1 1_555 1_555
H15A O4A 1_555 1_555
H16A O4A 1_555 1_555
N2A_2 Ni2 1_555 1_555
O3A_2 Ni2 1_555 1_555
Ni2_2 N2A 1_555 1_555
C5 C6 1_555 1_555
C11 N3 1_555 1_555
C12 N3 1_555 1_555
N1 N2 1_555 1_555
O1 Ni1 1_555 1_555
O2 Ni1 1_555 1_555
O3 Ni2 1_555 1_555
O5 Ni1 1_555 1_555
C14 N4 1_555 1_555
C15 N4 1_555 1_555
C17 N5 1_555 1_555
C18 N5 1_555 1_555
C1A O1A 1_555 1_555
C5A C6A 1_555 1_555
C11A N3A 1_555 1_555
C12A N3A 1_555 1_555
N1A N2A 1_555 1_555
N1A Ni1A 1_555 1_555
O1A Ni1A 1_555 1_555
O2A Ni1A 1_555 1_555
O3A Ni2_2 1_555 1_555
O5A Ni1A 1_555 1_555

#END
