
#######################################################################
#
#                 Cambridge Crystallographic Data Centre
#                                CCDC 
#
#######################################################################
#
# If this CIF has been generated from an entry in the Cambridge 
# Structural Database, then it will include bibliographic, chemical, 
# crystal, experimental, refinement or atomic coordinate data resulting 
# from the CCDC's data processing and validation procedures.
#
#######################################################################

data_XIPJAJ
_symmetry_cell_setting           monoclinic
_symmetry_space_group_name_H-M   'P 21/c'
_symmetry_Int_Tables_number      14
_space_group_name_Hall           '-P 2ybc'
loop_
_symmetry_equiv_pos_site_id
_symmetry_equiv_pos_as_xyz
1 x,y,z
2 -x,1/2+y,1/2-z
3 -x,-y,-z
4 x,1/2-y,1/2+z
_cell_length_a                   18.036(3)
_cell_length_b                   13.760(2)
_cell_length_c                   17.861(3)
_cell_angle_alpha                90
_cell_angle_beta                 106.995(3)
_cell_angle_gamma                90
_cell_volume                     4239.09
loop_
_atom_site_label
_atom_site_type_symbol
_atom_site_fract_x
_atom_site_fract_y
_atom_site_fract_z
N1 N 0.4786(4) 0.3224(4) -0.5116(3)
Cu1 Cu 1.44327(5) 0.51892(6) 0.92245(5)
O1 O 1.4095(3) 0.4532(3) 0.8223(3)
C1 C 1.4160(4) 0.3646(5) 0.8069(4)
N2 N 1.1250(4) 0.3576(4) 0.3182(3)
Cu2 Cu 1.53079(6) 0.29738(6) 0.95510(5)
O2 O 1.4494(3) 0.3012(3) 0.8555(3)
C2 C 1.3789(4) 0.3337(4) 0.7241(4)
Cu3 Cu 1.07855(5) 0.52410(6) 0.55246(5)
O3 O 1.1696(3) 0.4460(3) 0.5946(2)
N3 N 0.5689(4) 0.4317(5) -0.2852(3)
H1 H 0.5757 0.3733 -0.2989
C3 C 1.4100(4) 0.2555(5) 0.6939(4)
H2 H 1.4532 0.2231 0.7252
N4 N 0.9841(7) 0.3729(7) 0.0848(5)
Cu4 Cu 1.07727(5) 0.38516(6) 0.40474(5)
O4 O 1.1809(3) 0.3790(3) 0.4834(3)
C4 C 1.3767(4) 0.2260(5) 0.6171(4)
O5 O 1.3724(3) 0.0945(4) 0.5297(4)
C5 C 1.3101(4) 0.2711(5) 0.5730(4)
H3 H 1.2860 0.2491 0.5225
O6 O 1.4860(3) 0.1336(3) 0.6119(3)
C6 C 1.2782(4) 0.3484(5) 0.6022(4)
O7 O 1.3450(3) 0.5870(3) 0.8901(3)
C7 C 1.3158(4) 0.3808(5) 0.6787(4)
H4 H 1.2971 0.4352 0.6983
O8 O 1.3734(3) 0.7236(3) 0.9606(3)
C8 C 1.4148(5) 0.1460(5) 0.5831(4)
O9 O 1.1234(3) 0.6077(3) 0.6433(3)
C9 C 1.2032(4) 0.3946(5) 0.5559(4)
O10 O 1.0171(3) 0.6760(4) 0.6616(3)
C10 C 1.2100(4) 0.6705(5) 0.7942(4)
H5 H 1.2316 0.6204 0.7725
O11 O 1.1295(3) 0.8964(3) 0.9730(3)
C11 C 1.1366(4) 0.7056(5) 0.7555(4)
O12 O 1.0610(3) 0.9548(3) 0.8584(3)
C12 C 1.0883(5) 0.6595(5) 0.6808(4)
O13 O 1.5360(3) 0.4379(3) 0.9670(2)
C13 C 1.1045(4) 0.7805(5) 0.7880(4)
H6 H 1.0558 0.8046 0.7615
O14 O 1.0249(3) 0.4167(3) 0.4831(2)
C14 C 1.1455(4) 0.8199(5) 0.8608(4)
O15 O 1.5932(3) 0.2229(4) 0.8789(3)
H7 H 1.6382 0.2124 0.9045
C15 C 1.2187(4) 0.7859(5) 0.8979(4)
H8 H 1.2468 0.8135 0.9452
O16 O 0.4985(3) 0.5684(4) -0.3198(3)
C16 C 1.2512(4) 0.7112(5) 0.8661(4)
O17 O 1.0629(5) 0.2642(4) 0.0529(3)
C17 C 1.3289(4) 0.6703(5) 0.9086(4)
C18 C 1.1081(4) 0.8963(5) 0.8982(4)
C19 C 0.4129(4) 0.3616(5) -0.5570(4)
H9 H 0.3909 0.3357 -0.6066
C20 C 0.3765(5) 0.4389(5) -0.5333(4)
H10 H 0.3308 0.4642 -0.5663
C21 C 0.4092(5) 0.4785(5) -0.4594(4)
H11 H 0.3855 0.5303 -0.4421
C22 C 0.4769(5) 0.4401(5) -0.4123(4)
C23 C 0.5096(4) 0.3628(5) -0.4410(4)
H12 H 0.5560 0.3374 -0.4094
C24 C 0.5152(5) 0.4850(6) -0.3347(4)
C25 C 0.6169(6) 0.4651(7) -0.2094(5)
H13 H 0.5989 0.4363 -0.1683
H14 H 0.6128 0.5351 -0.2061
C26 C 0.7000(6) 0.4374(7) -0.1979(5)
H15 H 0.7196 0.4746 -0.2342
H16 H 0.7021 0.3693 -0.2110
C27 C 0.7528(7) 0.4539(8) -0.1155(6)
H17 H 0.7568 0.5231 -0.1047
H18 H 0.7302 0.4236 -0.0783
C28 C 0.8287(8) 0.4150(9) -0.1052(7)
H19 H 0.8575 0.4532 -0.1329
H20 H 0.8265 0.3480 -0.1226
C29 C 0.8679(8) 0.4238(11) -0.0067(9)
H21 H 0.8783 0.4906 0.0105
H22 H 0.8359 0.3929 0.0217
C30 C 1.0502(7) 0.3200(7) 0.1003(5)
C31 C 1.1037(6) 0.3311(6) 0.1818(4)
C32 C 1.1813(8) 0.3106(8) 0.1946(6)
H23 H 1.2003 0.2941 0.1532
C33 C 1.2296(7) 0.3151(9) 0.2694(6)
H24 H 1.2826 0.3046 0.2794
C34 C 1.1993(6) 0.3350(7) 0.3289(5)
H25 H 1.2320 0.3328 0.3799
C35 C 1.0795(5) 0.3555(5) 0.2445(4)
H26 H 1.0275 0.3718 0.2354
H27 H 1.0332 0.3646 0.5100
H28 H 1.5732 0.4584 0.9511
C36 C 0.9463(10) 0.3636(12) -0.0002(9)
H29 H 0.9356 0.2963 -0.0159
H30 H 0.9768 0.3932 -0.0307
H31 H 1.5657 0.1762 0.8603
H32 H 0.979(7) 0.422(5) 0.107(6)
N1C N 1.4786(4) 0.1776(4) 0.9884(3)
Cu1A Cu 1.55673(5) 0.01892(6) 0.57755(5)
Cu1B Cu 1.55673(5) 0.48108(6) 1.07755(5)
Cu2B Cu 1.46921(6) 0.70262(6) 1.04490(5)
Cu2C Cu 0.53079(6) 0.20262(6) -0.54490(5)
Cu3B Cu 0.92145(5) 0.47590(6) 0.44754(5)
Cu3C Cu 1.07855(5) 0.97590(6) 1.05246(5)
Cu4B Cu 0.92273(5) 0.61484(6) 0.59526(5)
Cu4C Cu 1.07727(5) 1.11484(6) 0.90474(5)
O6A O 1.5140(3) 0.6336(3) 0.8881(3)
O8B O 1.6266(3) 0.2764(3) 1.0394(3)
O10B O 0.9829(3) 0.3240(4) 0.3384(3)
O11C O 1.1295(3) 0.6036(3) 0.4730(3)
O12C O 1.0610(3) 0.5452(3) 0.3584(3)
O13B O 1.4640(3) 0.5621(3) 1.0330(2)
O14B O 0.9751(3) 0.5833(3) 0.5169(2)
O18 O 1.6047(3) 0.2300(4) 0.7197(3)
O19 O 0.2611(4) 0.8523(6) 0.0921(4)
O20 O 0.9664(5) 0.5301(5) 0.1927(4)
O21 O 0.1045(5) 0.1735(6) 0.4199(4)
O22 O 0.2461(6) 0.3814(9) 0.9041(6)
O23 O 0.1631(8) 0.4238(10) 0.7572(7)
C37? C 0.9003(12) 0.3638(13) 0.0177(9)
H33? H 0.8916 0.2987 -0.0040
H34? H 0.8578 0.3820 0.0378
C38? C 0.9121(13) 0.4415(13) -0.0458(10)
H35? H 0.9158 0.5081 -0.0274
H36? H 0.9550 0.4258 -0.0661
loop_
_geom_bond_atom_site_label_1
_geom_bond_atom_site_label_2
_geom_bond_site_symmetry_1
_geom_bond_site_symmetry_2
N1 C19 1_555 1_555
Cu1 O1 1_555 1_555
O1 C1 1_555 1_555
C1 O2 1_555 1_555
N2 Cu4 1_555 1_555
Cu2 O2 1_555 1_555
C2 C1 1_555 1_555
Cu3 O3 1_555 1_555
O3 C9 1_555 1_555
N3 H1 1_555 1_555
C3 C2 1_555 1_555
H2 C3 1_555 1_555
N4 C30 1_555 1_555
Cu4 O4 1_555 1_555
O4 C9 1_555 1_555
C4 C3 1_555 1_555
O5 C8 1_555 1_555
C5 C4 1_555 1_555
H3 C5 1_555 1_555
O6 C8 1_555 1_555
C6 C5 1_555 1_555
O7 Cu1 1_555 1_555
C7 C2 1_555 1_555
H4 C7 1_555 1_555
O8 C17 1_555 1_555
C8 C4 1_555 1_555
O9 Cu3 1_555 1_555
C9 C6 1_555 1_555
O10 C12 1_555 1_555
C10 H5 1_555 1_555
O11 C18 1_555 1_555
C11 C10 1_555 1_555
O12 C18 1_555 1_555
C12 O9 1_555 1_555
O13 Cu1 1_555 1_555
C13 C11 1_555 1_555
H6 C13 1_555 1_555
O14 Cu3 1_555 1_555
C14 C13 1_555 1_555
O15 Cu2 1_555 1_555
H7 O15 1_555 1_555
C15 C14 1_555 1_555
H8 C15 1_555 1_555
O16 C24 1_555 1_555
C16 C10 1_555 1_555
O17 C30 1_555 1_555
C17 O7 1_555 1_555
C18 C14 1_555 1_555
C19 H9 1_555 1_555
C20 C19 1_555 1_555
H10 C20 1_555 1_555
C21 C20 1_555 1_555
H11 C21 1_555 1_555
C22 C21 1_555 1_555
C23 N1 1_555 1_555
H12 C23 1_555 1_555
C24 N3 1_555 1_555
C25 N3 1_555 1_555
H13 C25 1_555 1_555
H14 C25 1_555 1_555
C26 C25 1_555 1_555
H15 C26 1_555 1_555
H16 C26 1_555 1_555
C27 C26 1_555 1_555
H17 C27 1_555 1_555
H18 C27 1_555 1_555
C28 C27 1_555 1_555
H19 C28 1_555 1_555
H20 C28 1_555 1_555
C29 C28 1_555 1_555
H21 C29 1_555 1_555
H22 C29 1_555 1_555
C30 C31 1_555 1_555
C31 C32 1_555 1_555
C32 H23 1_555 1_555
C33 C32 1_555 1_555
H24 C33 1_555 1_555
C34 N2 1_555 1_555
H25 C34 1_555 1_555
C35 N2 1_555 1_555
H26 C35 1_555 1_555
H27 O14 1_555 1_555
H28 O13 1_555 1_555
C36 N4 1_555 1_555
H29 C36 1_555 1_555
H30 C36 1_555 1_555
H31 O15 1_555 1_555
H32 N4 1_555 1_555
N1C Cu2 1_555 1_555
Cu1A O6 1_555 1_555
Cu1B O13 1_555 1_555
Cu2B O8 1_555 1_555
Cu2C N1 1_555 1_555
Cu3B O14 1_555 1_555
Cu3C O11 1_555 1_555
Cu4B O10 1_555 1_555
Cu4C O12 1_555 1_555
O6A Cu1 1_555 1_555
O8B Cu2 1_555 1_555
O10B Cu4 1_555 1_555
O11C Cu3 1_555 1_555
O12C Cu4 1_555 1_555
O13B Cu1 1_555 1_555
O14B Cu3 1_555 1_555
Cu2 O13 1_555 1_555
Cu4 O14 1_555 1_555
C6 C7 1_555 1_555
C11 C12 1_555 1_555
C15 C16 1_555 1_555
C16 C17 1_555 1_555
C22 C23 1_555 1_555
C22 C24 1_555 1_555
C29 C36 1_555 1_555
C31 C35 1_555 1_555
C33 C34 1_555 1_555
Cu1B O13B 1_555 1_555
Cu2B O13B 1_555 1_555
Cu3B O14B 1_555 1_555
Cu4B O14B 1_555 1_555

#END
