
#######################################################################
#
#                 Cambridge Crystallographic Data Centre
#                                CCDC 
#
#######################################################################
#
# If this CIF has been generated from an entry in the Cambridge 
# Structural Database, then it will include bibliographic, chemical, 
# crystal, experimental, refinement or atomic coordinate data resulting 
# from the CCDC's data processing and validation procedures.
#
#######################################################################

data_XIPJUD
_symmetry_cell_setting           monoclinic
_symmetry_space_group_name_H-M   'C 2/c'
_symmetry_Int_Tables_number      15
_space_group_name_Hall           '-C 2yn'
loop_
_symmetry_equiv_pos_site_id
_symmetry_equiv_pos_as_xyz
1 x,y,z
2 -x,y,1/2-z
3 1/2+x,1/2+y,z
4 1/2-x,1/2+y,1/2-z
5 -x,-y,-z
6 x,-y,1/2+z
7 1/2-x,1/2-y,-z
8 1/2+x,1/2-y,1/2+z
_cell_length_a                   19.9441(19)
_cell_length_b                   8.2380(8)
_cell_length_c                   19.4769(17)
_cell_angle_alpha                90
_cell_angle_beta                 98.8010(10)
_cell_angle_gamma                90
_cell_volume                     3162.37
loop_
_atom_site_label
_atom_site_type_symbol
_atom_site_fract_x
_atom_site_fract_y
_atom_site_fract_z
Cd1 Cd 0.268086(10) 0.45627(2) 0.448581(10)
N1 N 0.17418(11) 0.1553(3) 0.27683(11)
N2 N 0.21843(12) 0.3408(3) 0.35093(12)
O1 O 0.13818(11) 0.8925(3) 0.57792(10)
O2 O 0.15230(11) 0.9100(3) 0.46860(10)
O3 O 0.19186(12) 0.5395(3) 0.51392(13)
O4 O 0.16935(13) 0.2802(3) 0.52420(13)
O5 O 0.22526(14) 0.7232(3) 0.38820(13)
C1 C 0.05897(14) 0.6101(4) 0.55457(14)
C2 C 0.10007(15) 0.4726(3) 0.57146(14)
C3 C 0.08844(17) 0.3743(4) 0.62682(15)
H1 H 0.1145 0.2813 0.6371
C4 C 0.03921(19) 0.4122(4) 0.66648(18)
H2 H 0.0334 0.3478 0.7043
C5 C -0.00120(19) 0.5452(4) 0.64999(19)
H3 H -0.0348 0.5706 0.6765
C6 C 0.00766(15) 0.6419(4) 0.59403(17)
H4 H -0.0211 0.7297 0.5825
C7 C 0.06796(14) 0.7248(4) 0.49625(15)
H5 H 0.0790 0.6622 0.4573
H6 H 0.0253 0.7798 0.4810
C8 C 0.12254(14) 0.8506(3) 0.51589(14)
C9 C 0.15725(15) 0.4261(4) 0.53364(14)
C10 C 0.06984(14) -0.0050(3) 0.25006(14)
C11 C 0.02497(15) -0.0040(4) 0.18803(15)
H7 H 0.0418 -0.0017 0.1461
C12 C 0.04399(15) -0.0063(4) 0.31210(15)
H8 H 0.0734 -0.0088 0.3540
C13 C 0.14545(14) -0.0012(4) 0.24966(16)
H9 H 0.1669 -0.0891 0.2781
H10 H 0.1546 -0.0167 0.2026
C14 C 0.20555(15) 0.1844(4) 0.34151(15)
H11 H 0.2168 0.1051 0.3753
C15 C 0.19261(16) 0.4143(4) 0.28908(15)
H12 H 0.1939 0.5252 0.2803
C16 C 0.16522(15) 0.3013(4) 0.24308(15)
H13 H 0.1444 0.3190 0.1976
H14 H 0.1952(18) 0.778(5) 0.406(2)
H15 H 0.2594(15) 0.779(5) 0.396(2)
N1A N -0.17418(11) 0.1553(3) 0.22317(11)
N2A N -0.21843(12) 0.3408(3) 0.14907(12)
C10A C -0.06984(14) -0.0050(3) 0.24994(14)
C11A C -0.02497(15) -0.0040(4) 0.31197(15)
H7A H -0.0418 -0.0017 0.3539
C12A C -0.04399(15) -0.0063(4) 0.18790(15)
H8A H -0.0734 -0.0088 0.1460
C13A C -0.14545(14) -0.0012(4) 0.25034(16)
H9A H -0.1669 -0.0891 0.2219
H10A H -0.1546 -0.0167 0.2974
C14A C -0.20555(15) 0.1844(4) 0.15849(15)
H11A H -0.2168 0.1051 0.1247
C15A C -0.19261(16) 0.4143(4) 0.21092(15)
H12A H -0.1939 0.5252 0.2197
C16A C -0.16522(15) 0.3013(4) 0.25692(15)
H13A H -0.1444 0.3190 0.3024
Cd1A Cd -0.268086(10) 0.45627(2) 0.051419(10)
O1A O -0.13818(11) 0.8925(3) -0.07792(10)
O2A O -0.15230(11) 0.9100(3) 0.03140(10)
O3A O -0.19186(12) 0.5395(3) -0.01392(13)
O4A O -0.16935(13) 0.2802(3) -0.02420(13)
O5A O -0.22526(14) 0.7232(3) 0.11180(13)
C1A C -0.05897(14) 0.6101(4) -0.05457(14)
C2A C -0.10007(15) 0.4726(3) -0.07146(14)
C3A C -0.08844(17) 0.3743(4) -0.12682(15)
H1A H -0.1145 0.2813 -0.1371
C4A C -0.03921(19) 0.4122(4) -0.16648(18)
H2A H -0.0334 0.3478 -0.2043
C5A C 0.00120(19) 0.5452(4) -0.14999(19)
H3A H 0.0348 0.5706 -0.1765
C6A C -0.00766(15) 0.6419(4) -0.09403(17)
H4A H 0.0211 0.7297 -0.0825
C7A C -0.06796(14) 0.7248(4) 0.00375(15)
H5A H -0.0790 0.6622 0.0427
H6A H -0.0253 0.7798 0.0190
C8A C -0.12254(14) 0.8506(3) -0.01589(14)
C9A C -0.15725(15) 0.4261(4) -0.03364(14)
H14A H -0.1952(18) 0.778(5) 0.094(2)
H15A H -0.2594(15) 0.779(5) 0.104(2)
Cd1F Cd 0.231914(10) 0.04373(2) 0.551419(10)
Cd1F_2 Cd 0.231914(10) 1.04373(2) 0.551419(10)
Cd1G Cd -0.231914(10) 0.04373(2) -0.051419(10)
Cd1G_2 Cd -0.231914(10) 1.04373(2) -0.051419(10)
O1F O 0.36182(11) 0.6075(3) 0.42208(10)
O1G O -0.36182(11) 0.6075(3) 0.07792(10)
O2F O 0.34770(11) 0.5900(3) 0.53140(10)
O2G O -0.34770(11) 0.5900(3) -0.03140(10)
O4F O 0.33065(13) 0.2198(3) 0.47580(13)
O4G O -0.33065(13) 0.2198(3) 0.02420(13)
loop_
_geom_bond_atom_site_label_1
_geom_bond_atom_site_label_2
_geom_bond_site_symmetry_1
_geom_bond_site_symmetry_2
Cd1 N2 1_555 1_555
N1 C13 1_555 1_555
N2 C14 1_555 1_555
O1 C8 1_555 1_555
O2 C8 1_555 1_555
O3 Cd1 1_555 1_555
O4 C9 1_555 1_555
O5 Cd1 1_555 1_555
C1 C2 1_555 1_555
C2 C3 1_555 1_555
C3 H1 1_555 1_555
C4 C3 1_555 1_555
H2 C4 1_555 1_555
C5 C4 1_555 1_555
H3 C5 1_555 1_555
C6 C1 1_555 1_555
H4 C6 1_555 1_555
C7 C1 1_555 1_555
H5 C7 1_555 1_555
H6 C7 1_555 1_555
C8 C7 1_555 1_555
C9 O3 1_555 1_555
C10 C11 1_555 1_555
C11 H7 1_555 1_555
C12 C10 1_555 1_555
H8 C12 1_555 1_555
C13 C10 1_555 1_555
H9 C13 1_555 1_555
H10 C13 1_555 1_555
C14 N1 1_555 1_555
H11 C14 1_555 1_555
C15 N2 1_555 1_555
H12 C15 1_555 1_555
C16 N1 1_555 1_555
H13 C16 1_555 1_555
H14 O5 1_555 1_555
H15 O5 1_555 1_555
N1A C13A 1_555 1_555
N2A C14A 1_555 1_555
C10A C11A 1_555 1_555
C11A C12 1_555 1_555
H7A C11A 1_555 1_555
C12A C11 1_555 1_555
H8A C12A 1_555 1_555
C13A C10A 1_555 1_555
H9A C13A 1_555 1_555
H10A C13A 1_555 1_555
C14A N1A 1_555 1_555
H11A C14A 1_555 1_555
C15A N2A 1_555 1_555
H12A C15A 1_555 1_555
C16A N1A 1_555 1_555
H13A C16A 1_555 1_555
Cd1A N2A 1_555 1_555
O1A C8A 1_555 1_555
O2A C8A 1_555 1_555
O3A Cd1A 1_555 1_555
O4A C9A 1_555 1_555
O5A Cd1A 1_555 1_555
C1A C2A 1_555 1_555
C2A C3A 1_555 1_555
C3A H1A 1_555 1_555
C4A C3A 1_555 1_555
H2A C4A 1_555 1_555
C5A C4A 1_555 1_555
H3A C5A 1_555 1_555
C6A C1A 1_555 1_555
H4A C6A 1_555 1_555
C7A C1A 1_555 1_555
H5A C7A 1_555 1_555
H6A C7A 1_555 1_555
C8A C7A 1_555 1_555
C9A O3A 1_555 1_555
H14A O5A 1_555 1_555
H15A O5A 1_555 1_555
Cd1F O4 1_555 1_555
Cd1F_2 O1 1_555 1_555
Cd1G O4A 1_555 1_555
Cd1G_2 O1A 1_555 1_555
O1F Cd1 1_555 1_555
O1G Cd1A 1_555 1_555
O2F Cd1 1_555 1_555
O2G Cd1A 1_555 1_555
O4F Cd1 1_555 1_555
O4G Cd1A 1_555 1_555
O2 Cd1F_2 1_555 1_555
C2 C9 1_555 1_555
C5 C6 1_555 1_555
C15 C16 1_555 1_555
C10A C12A 1_555 1_555
C15A C16A 1_555 1_555
O2A Cd1G_2 1_555 1_555
C2A C9A 1_555 1_555
C5A C6A 1_555 1_555

#END
