
#######################################################################
#
#                 Cambridge Crystallographic Data Centre
#                                CCDC 
#
#######################################################################
#
# If this CIF has been generated from an entry in the Cambridge 
# Structural Database, then it will include bibliographic, chemical, 
# crystal, experimental, refinement or atomic coordinate data resulting 
# from the CCDC's data processing and validation procedures.
#
#######################################################################

data_XIPKAK
_symmetry_cell_setting           triclinic
_symmetry_space_group_name_H-M   'P -1'
_symmetry_Int_Tables_number      2
_space_group_name_Hall           '-P 1'
loop_
_symmetry_equiv_pos_site_id
_symmetry_equiv_pos_as_xyz
1 x,y,z
2 -x,-y,-z
_cell_length_a                   8.3560(8)
_cell_length_b                   10.8110(11)
_cell_length_c                   13.1530(14)
_cell_angle_alpha                94.6630(10)
_cell_angle_beta                 96.2750(10)
_cell_angle_gamma                105.18(2)
_cell_volume                     1132.36
loop_
_atom_site_label
_atom_site_type_symbol
_atom_site_fract_x
_atom_site_fract_y
_atom_site_fract_z
C1 C 1.283(3) 0.380(3) 0.3697(16)
H1 H 1.3150 0.3536 0.4361
H2 H 1.2088 0.4335 0.3793
Zn1 Zn 0.7502(2) 0.50933(16) 0.26062(14)
N1 N 0.562(2) 0.6739(12) 0.0208(11)
N2 N 0.7027(17) 0.5959(11) 0.1360(10)
N3 N 1.104(3) 0.736(2) 0.4859(14)
N4 N 0.9001(18) 0.6419(15) 0.3711(11)
O1 O 1.5394(14) 0.4028(13) 0.2904(9)
O2 O 1.479(2) 0.5822(18) 0.3402(13)
O3 O 0.8555(15) 0.3694(12) 0.2461(13)
O4 O 1.073(3) 0.4661(15) 0.1846(15)
C2 C 1.192(2) 0.262(2) 0.2985(18)
C3 C 1.0512(17) 0.2543(15) 0.2322(16)
C4 C 0.964(2) 0.1386(18) 0.177(3)
H3 H 0.8709 0.1352 0.1307
C5 C 1.011(4) 0.028(2) 0.189(4)
H4 H 0.9475 -0.0512 0.1544
C6 C 1.152(5) 0.037(4) 0.254(4)
H5 H 1.1893 -0.0365 0.2601
C7 C 1.239(5) 0.149(4) 0.308(3)
H6 H 1.3331 0.1512 0.3537
C8 C 1.444(2) 0.461(2) 0.3310(12)
C9 C 0.989(2) 0.3711(15) 0.2179(16)
C10 C 0.468(3) 0.8679(17) -0.0126(13)
C11 C 0.515(3) 0.9344(19) -0.0872(15)
H7 H 0.5253 0.8914 -0.1494
C12 C 0.448(3) 0.932(2) 0.0763(15)
H8 H 0.4095 0.8860 0.1298
C13 C 0.426(3) 0.7215(18) -0.0298(17)
H9 H 0.3228 0.6847 -0.0024
H10 H 0.4081 0.6935 -0.1031
C14 C 0.560(3) 0.6245(17) 0.1102(13)
H11 H 0.4713 0.6119 0.1489
C15 C 0.791(3) 0.6265(19) 0.0575(19)
H12 H 0.8956 0.6146 0.0512
C16 C 0.703(4) 0.676(2) -0.0088(19)
H13 H 0.7382 0.7082 -0.0684
C17 C 1.396(4) 0.893(2) 0.525(3)
C18 C 1.466(4) 0.888(2) 0.437(3)
H14 H 1.4391 0.8124 0.3925
C19 C 1.425(3) 1.007(3) 0.5851(18)
H15 H 1.3692 1.0112 0.6421
C20 C 1.277(3) 0.7591(18) 0.5456(17)
H16 H 1.3251 0.6898 0.5247
H17 H 1.2693 0.7594 0.6186
C21 C 1.047(3) 0.6416(18) 0.4156(14)
H18 H 1.1022 0.5805 0.3982
C22 C 0.877(2) 0.749(2) 0.411(2)
H19 H 0.7839 0.7783 0.3927
C23 C 1.006(4) 0.810(3) 0.483(3)
H20 H 1.0209 0.8884 0.5225
N1A N 0.438(2) 1.3261(12) -0.0208(11)
N2A N 0.2973(17) 1.4041(11) -0.1360(10)
C10A C 0.532(3) 1.1321(17) 0.0126(13)
C11A C 0.485(3) 1.0656(19) 0.0872(15)
H7A H 0.4747 1.1086 0.1494
C12A C 0.552(3) 1.068(2) -0.0763(15)
H8A H 0.5905 1.1140 -0.1298
C13A C 0.574(3) 1.2785(18) 0.0298(17)
H9A H 0.6772 1.3153 0.0024
H10A H 0.5919 1.3065 0.1031
C14A C 0.440(3) 1.3755(17) -0.1102(13)
H11A H 0.5287 1.3881 -0.1489
C15A C 0.209(3) 1.3735(19) -0.0575(19)
H12A H 0.1044 1.3854 -0.0512
C16A C 0.297(4) 1.324(2) 0.0088(19)
H13A H 0.2618 1.2918 0.0684
N3A N 1.896(3) 1.264(2) 0.5141(14)
N4A N 2.0999(18) 1.3581(15) 0.6289(11)
C17A C 1.604(4) 1.107(2) 0.475(3)
C18A C 1.534(4) 1.112(2) 0.563(3)
H14A H 1.5609 1.1876 0.6075
C19A C 1.575(3) 0.993(3) 0.4149(18)
H15A H 1.6308 0.9888 0.3579
C20A C 1.723(3) 1.2409(18) 0.4544(17)
H16A H 1.6749 1.3102 0.4753
H17A H 1.7307 1.2406 0.3814
C21A C 1.953(3) 1.3584(18) 0.5844(14)
H18A H 1.8978 1.4195 0.6018
C22A C 2.123(2) 1.251(2) 0.589(2)
H19A H 2.2161 1.2217 0.6073
C23A C 1.994(4) 1.190(3) 0.517(3)
H20A H 1.9791 1.1116 0.4775
C1A C -0.283(3) 1.620(3) -0.3697(16)
H1A H -0.3150 1.6464 -0.4361
H2A H -0.2088 1.5665 -0.3793
Zn1A Zn 0.2498(2) 1.49067(16) -0.26062(14)
O1A O -0.5394(14) 1.5972(13) -0.2904(9)
O2A O -0.479(2) 1.4178(18) -0.3402(13)
O3A O 0.1445(15) 1.6306(12) -0.2461(13)
O4A O -0.073(3) 1.5339(15) -0.1846(15)
C2A C -0.192(2) 1.738(2) -0.2985(18)
C3A C -0.0512(17) 1.7457(15) -0.2322(16)
C4A C 0.036(2) 1.8614(18) -0.177(3)
H3A H 0.1291 1.8648 -0.1307
C5A C -0.011(4) 1.972(2) -0.189(4)
H4A H 0.0525 2.0512 -0.1544
C6A C -0.152(5) 1.963(4) -0.254(4)
H5A H -0.1893 2.0365 -0.2601
C7A C -0.239(5) 1.851(4) -0.308(3)
H6A H -0.3331 1.8488 -0.3537
C8A C -0.444(2) 1.539(2) -0.3310(12)
C9A C 0.011(2) 1.6289(15) -0.2179(16)
Zn1_2 Zn 1.7502(2) 0.50933(16) 0.26062(14)
Zn1A_2 Zn -0.7502(2) 1.49067(16) -0.26062(14)
Zn1A_3 Zn 2.2498(2) 1.49067(16) 0.73938(14)
N4A_2 N 0.0999(18) 1.3581(15) -0.3711(11)
O1_2 O 0.5394(14) 0.4028(13) 0.2904(9)
O1A_2 O 0.4606(14) 1.5972(13) -0.2904(9)
O5 O 0.253(5) 0.705(3) 0.208(3)
H21 H 0.1782 0.6339 0.1898
H22 H 0.3323 0.6893 0.2467
loop_
_geom_bond_atom_site_label_1
_geom_bond_atom_site_label_2
_geom_bond_site_symmetry_1
_geom_bond_site_symmetry_2
C1 H1 1_555 1_555
H2 C1 1_555 1_555
Zn1 N2 1_555 1_555
N1 C13 1_555 1_555
N2 C14 1_555 1_555
N3 C20 1_555 1_555
N4 Zn1 1_555 1_555
O1 C8 1_555 1_555
O2 C8 1_555 1_555
O3 Zn1 1_555 1_555
O4 C9 1_555 1_555
C2 C1 1_555 1_555
C3 C2 1_555 1_555
C4 C3 1_555 1_555
H3 C4 1_555 1_555
C5 C4 1_555 1_555
H4 C5 1_555 1_555
C6 C5 1_555 1_555
H5 C6 1_555 1_555
C7 C2 1_555 1_555
H6 C7 1_555 1_555
C8 C1 1_555 1_555
C9 O3 1_555 1_555
C10 C11 1_555 1_555
C11 H7 1_555 1_555
C12 C10 1_555 1_555
H8 C12 1_555 1_555
C13 C10 1_555 1_555
H9 C13 1_555 1_555
H10 C13 1_555 1_555
C14 N1 1_555 1_555
H11 C14 1_555 1_555
C15 N2 1_555 1_555
H12 C15 1_555 1_555
C16 N1 1_555 1_555
H13 C16 1_555 1_555
C17 C18 1_555 1_555
C18 H14 1_555 1_555
C19 C17 1_555 1_555
H15 C19 1_555 1_555
C20 C17 1_555 1_555
H16 C20 1_555 1_555
H17 C20 1_555 1_555
C21 N3 1_555 1_555
H18 C21 1_555 1_555
C22 N4 1_555 1_555
H19 C22 1_555 1_555
C23 N3 1_555 1_555
H20 C23 1_555 1_555
O5 H21 1_555 1_555
H22 O5 1_555 1_555
N1A C13A 1_555 1_555
N2A C14A 1_555 1_555
C10A C11A 1_555 1_555
C11A C12 1_555 1_555
H7A C11A 1_555 1_555
C12A C11 1_555 1_555
H8A C12A 1_555 1_555
C13A C10A 1_555 1_555
H9A C13A 1_555 1_555
H10A C13A 1_555 1_555
C14A N1A 1_555 1_555
H11A C14A 1_555 1_555
C15A N2A 1_555 1_555
H12A C15A 1_555 1_555
C16A N1A 1_555 1_555
H13A C16A 1_555 1_555
N3A C20A 1_555 1_555
N4A C21A 1_555 1_555
C17A C18A 1_555 1_555
C18A C19 1_555 1_555
H14A C18A 1_555 1_555
C19A C18 1_555 1_555
H15A C19A 1_555 1_555
C20A C17A 1_555 1_555
H16A C20A 1_555 1_555
H17A C20A 1_555 1_555
C21A N3A 1_555 1_555
H18A C21A 1_555 1_555
C22A N4A 1_555 1_555
H19A C22A 1_555 1_555
C23A N3A 1_555 1_555
H20A C23A 1_555 1_555
C1A H1A 1_555 1_555
H2A C1A 1_555 1_555
Zn1A N2A 1_555 1_555
O1A C8A 1_555 1_555
O2A C8A 1_555 1_555
O3A Zn1A 1_555 1_555
O4A C9A 1_555 1_555
C2A C1A 1_555 1_555
C3A C2A 1_555 1_555
C4A C3A 1_555 1_555
H3A C4A 1_555 1_555
C5A C4A 1_555 1_555
H4A C5A 1_555 1_555
C6A C5A 1_555 1_555
H5A C6A 1_555 1_555
C7A C2A 1_555 1_555
H6A C7A 1_555 1_555
C8A C1A 1_555 1_555
C9A O3A 1_555 1_555
Zn1_2 O1 1_555 1_555
Zn1A_2 O1A 1_555 1_555
Zn1A_3 N4A 1_555 1_555
N4A_2 Zn1A 1_555 1_555
O1_2 Zn1 1_555 1_555
O1A_2 Zn1A 1_555 1_555
N4 C21 1_555 1_555
C3 C9 1_555 1_555
C6 C7 1_555 1_555
C15 C16 1_555 1_555
C22 C23 1_555 1_555
C10A C12A 1_555 1_555
C15A C16A 1_555 1_555
C17A C19A 1_555 1_555
C22A C23A 1_555 1_555
C3A C9A 1_555 1_555
C6A C7A 1_555 1_555

#END
