
#######################################################################
#
#                 Cambridge Crystallographic Data Centre
#                                CCDC 
#
#######################################################################
#
# If this CIF has been generated from an entry in the Cambridge 
# Structural Database, then it will include bibliographic, chemical, 
# crystal, experimental, refinement or atomic coordinate data resulting 
# from the CCDC's data processing and validation procedures.
#
#######################################################################

data_XIPKEO
_symmetry_cell_setting           tetragonal
_symmetry_space_group_name_H-M   'I 41/a'
_symmetry_Int_Tables_number      88
_space_group_name_Hall           '-I 4ad'
loop_
_symmetry_equiv_pos_site_id
_symmetry_equiv_pos_as_xyz
1 x,y,z
2 1/2-x,-y,1/2+z
3 3/4-y,1/4+x,1/4+z
4 3/4+y,3/4-x,3/4+z
5 1/2+x,1/2+y,1/2+z
6 -x,1/2-y,z
7 1/4-y,3/4+x,3/4+z
8 1/4+y,1/4-x,1/4+z
9 -x,-y,-z
10 1/2+x,y,1/2-z
11 1/4+y,3/4-x,3/4-z
12 1/4-y,1/4+x,1/4-z
13 1/2-x,1/2-y,1/2-z
14 x,1/2+y,-z
15 3/4+y,1/4-x,1/4-z
16 3/4-y,3/4+x,3/4-z
_cell_length_a                   25.595(2)
_cell_length_b                   25.595(2)
_cell_length_c                   9.0761(10)
_cell_angle_alpha                90
_cell_angle_beta                 90
_cell_angle_gamma                90
_cell_volume                     5945.79
loop_
_atom_site_label
_atom_site_type_symbol
_atom_site_fract_x
_atom_site_fract_y
_atom_site_fract_z
K1 K 0.84748(3) 0.45817(3) 0.08882(9)
O1 O 0.79335(6) 0.13710(6) -0.32277(19)
O2 O 0.78185(7) 0.33380(7) -0.5262(2)
O3 O 0.83381(8) 0.36752(7) -0.0762(2)
O4 O 0.74241(12) 0.43027(13) 0.0520(3)
N1 N 0.80102(7) 0.19830(7) -0.1433(2)
N2 N 0.80930(9) 0.26024(10) 0.0399(2)
N3 N 0.83592(9) 0.36235(8) -0.3300(2)
N4 N 0.81127(11) 0.19313(10) -0.6713(3)
C1 C 0.83138(9) 0.34259(9) -0.1917(3)
C2 C 0.82836(9) 0.32379(9) -0.4468(3)
C3 C 0.81406(9) 0.22268(9) -0.4010(2)
C4 C 0.80284(8) 0.18435(8) -0.2886(2)
C5 C 0.81119(8) 0.24789(9) -0.1039(2)
C6 C 0.82249(9) 0.28641(9) -0.2093(3)
C7 C 0.82246(8) 0.27384(8) -0.3563(2)
C8 C 0.87393(9) 0.32374(9) -0.5533(3)
C9 C 0.92347(11) 0.31113(11) -0.5016(3)
C10 C 0.96572(11) 0.30996(12) -0.5970(4)
C11 C 0.95899(12) 0.32202(11) -0.7446(4)
C12 C 0.91046(12) 0.33564(12) -0.7950(3)
C13 C 0.86789(10) 0.33643(10) -0.7006(3)
C14 C 0.81279(10) 0.20698(9) -0.5512(3)
H1 H 0.7560(15) 0.3256(15) -0.466(4)
H2 H 0.8518(14) 0.3932(15) -0.350(4)
H3 H 0.8341(13) 0.3477(12) -0.738(3)
H4 H 0.9903(14) 0.3210(13) -0.812(4)
H5 H 0.9041(15) 0.3427(14) -0.897(4)
H6 H 0.9998(15) 0.2980(14) -0.556(4)
H7 H 0.741(2) 0.403(2) 0.012(6)
H8 H 0.717(4) 0.448(3) 0.043(10)
H9 H 0.9306(15) 0.3018(14) -0.395(5)
H10 H 0.8135(13) 0.2935(14) 0.067(4)
H11 H 0.8022(16) 0.2361(17) 0.102(5)
O5 O 0.78167(16) 0.55377(11) 0.1384(4)
H12 H 0.754(3) 0.555(3) 0.138(9)
H13 H 0.7872(19) 0.584(2) 0.203(6)
K1F K 0.79183(3) 0.59748(3) -0.16118(9)
K1G K 0.70817(3) 0.40252(3) -0.66118(9)
K1G_2 K 0.70817(3) 0.40252(3) 0.33882(9)
K1K K 0.79183(3) 0.09748(3) -0.83882(9)
O2F O 0.91620(7) 0.53185(7) 0.2238(2)
O4F O 0.81973(13) 0.49241(12) -0.1980(3)
N4N N 0.94313(10) 0.43873(11) -0.0787(3)
O5G O 0.80377(11) 0.46833(16) 0.3884(4)
loop_
_geom_bond_atom_site_label_1
_geom_bond_atom_site_label_2
_geom_bond_site_symmetry_1
_geom_bond_site_symmetry_2
K1 O3 1_555 1_555
O1 C4 1_555 1_555
O2 C2 1_555 1_555
O3 C1 1_555 1_555
O4 K1 1_555 1_555
N1 C4 1_555 1_555
N2 C5 1_555 1_555
N3 C1 1_555 1_555
N4 C14 1_555 1_555
C1 C6 1_555 1_555
C2 N3 1_555 1_555
C3 C4 1_555 1_555
C5 N1 1_555 1_555
C6 C5 1_555 1_555
C7 C2 1_555 1_555
C8 C2 1_555 1_555
C9 C8 1_555 1_555
C10 C9 1_555 1_555
C11 C10 1_555 1_555
C12 C11 1_555 1_555
C13 C8 1_555 1_555
C14 C3 1_555 1_555
H1 O2 1_555 1_555
H2 N3 1_555 1_555
H3 C13 1_555 1_555
H4 C11 1_555 1_555
H5 C12 1_555 1_555
H6 C10 1_555 1_555
H7 O4 1_555 1_555
H8 O4 1_555 1_555
H9 C9 1_555 1_555
H10 N2 1_555 1_555
H11 N2 1_555 1_555
O5 K1 1_555 1_555
H12 O5 1_555 1_555
H13 O5 1_555 1_555
K1F O5 1_555 1_555
K1G O2 1_555 1_555
K1G_2 O4 1_555 1_555
K1K N4 1_555 1_555
O2F K1 1_555 1_555
O4F K1 1_555 1_555
N4N K1 1_555 1_555
O5G K1 1_555 1_555
C3 C7 1_555 1_555
C6 C7 1_555 1_555
C12 C13 1_555 1_555
K1F O4F 1_555 1_555
K1G_2 O5G 1_555 1_555

#END
