
#######################################################################
#
#                 Cambridge Crystallographic Data Centre
#                                CCDC 
#
#######################################################################
#
# If this CIF has been generated from an entry in the Cambridge 
# Structural Database, then it will include bibliographic, chemical, 
# crystal, experimental, refinement or atomic coordinate data resulting 
# from the CCDC's data processing and validation procedures.
#
#######################################################################

data_XIPQOD
_symmetry_cell_setting           triclinic
_symmetry_space_group_name_H-M   'P -1'
_symmetry_Int_Tables_number      2
_space_group_name_Hall           '-P 1'
loop_
_symmetry_equiv_pos_site_id
_symmetry_equiv_pos_as_xyz
1 x,y,z
2 -x,-y,-z
_cell_length_a                   8.220(2)
_cell_length_b                   13.998(4)
_cell_length_c                   14.212(4)
_cell_angle_alpha                111.058(5)
_cell_angle_beta                 90.187(5)
_cell_angle_gamma                94.318(5)
_cell_volume                     1520.93
loop_
_atom_site_label
_atom_site_type_symbol
_atom_site_fract_x
_atom_site_fract_y
_atom_site_fract_z
Y1 Y 0.17308(10) -0.00956(7) 0.88511(7)
O1 O 0.0748(6) -0.0597(4) 0.7040(5)
O2 O -0.0798(6) 0.0190(4) 0.8300(5)
O3 O 0.2767(6) 0.1198(4) 0.8239(4)
O4 O 0.4179(6) 0.1093(4) 0.9514(4)
O5 O 1.0599(7) 0.8178(4) 0.8360(5)
O6 O 0.9371(6) 0.8939(4) 0.9800(5)
O7 O 0.2837(6) -0.0565(4) 1.0141(4)
O8 O 0.3770(7) -0.1001(5) 0.8024(5)
N1 N 0.5051(13) -0.2285(9) 0.6933(10)
C1 C -0.0553(12) -0.0211(7) 0.7348(8)
C2 C -0.1870(10) -0.0180(6) 0.6638(7)
C3 C -0.1645(12) -0.0506(9) 0.5621(7)
H1 H -0.0678 -0.0785 0.5363
C4 C -0.2827(11) -0.0425(9) 0.4979(8)
H2 H -0.2638 -0.0625 0.4293
C5 C -0.4344(10) -0.0038(7) 0.5352(7)
C6 C -0.4551(11) 0.0237(8) 0.6370(7)
H3 H -0.5550 0.0460 0.6628
C7 C -0.3377(10) 0.0198(7) 0.7011(7)
H4 H -0.3556 0.0419 0.7699
C8 C 0.3972(10) 0.1521(6) 0.8889(7)
C9 C 0.5026(10) 0.2419(6) 0.8885(7)
C10 C 0.4852(10) 0.2832(7) 0.8151(7)
H5 H 0.4086 0.2519 0.7626
C11 C 0.5801(11) 0.3708(7) 0.8175(8)
H6 H 0.5680 0.3962 0.7660
C12 C 0.6905(11) 0.4195(6) 0.8948(8)
C13 C 0.7118(10) 0.3804(6) 0.9681(7)
H7 H 0.7885 0.4131 1.0202
C14 C 0.6183(10) 0.2901(6) 0.9665(7)
H8 H 0.6341 0.2635 1.0168
C15 C 0.7810(10) 0.5180(6) 0.9020(8)
C16 C 0.8346(11) 0.5309(6) 0.8134(8)
H9 H 0.8243 0.4763 0.7518
C17 C 0.9036(11) 0.6270(7) 0.8195(8)
H10 H 0.9412 0.6359 0.7613
C18 C 0.9170(10) 0.7071(6) 0.9072(7)
C19 C 0.8741(10) 0.6941(6) 0.9941(7)
H11 H 0.8907 0.7481 1.0557
C20 C 0.8046(10) 0.5986(7) 0.9897(7)
H12 H 0.7735 0.5901 1.0493
C21 C 0.9732(10) 0.8152(7) 0.9107(8)
C22 C 0.3912(13) -0.1595(10) 0.7193(11)
H13 H 0.3196 -0.1586 0.6689
C23 C 0.526(2) -0.2888(14) 0.5802(15)
H14 H 0.4340 -0.2810 0.5423
H15 H 0.5313 -0.3603 0.5693
H16 H 0.6242 -0.2629 0.5585
C24 C 0.6188(19) -0.2323(11) 0.7642(12)
H17 H 0.5839 -0.1948 0.8308
H18 H 0.7229 -0.2023 0.7538
H19 H 0.6282 -0.3026 0.7569
Y1A Y -1.17308(10) 0.00956(7) 0.11489(7)
Y1_2 Y 1.17308(10) 0.99044(7) 0.88511(7)
Y1A_2 Y 0.82692(10) 1.00956(7) 1.11489(7)
Y1_3 Y -0.82692(10) -1.00956(7) 0.88511(7)
Y1A_3 Y -0.17308(10) 0.00956(7) 1.11489(7)
O1A O -1.0748(6) 0.0597(4) 0.2960(5)
O2A O -0.9202(6) -0.0190(4) 0.1700(5)
O3_2 O -0.7233(6) -0.8802(4) 0.8239(4)
O3A O -1.2767(6) -0.1198(4) 0.1761(4)
O4_2 O -0.5821(6) -0.8907(4) 0.9514(4)
O4A O -1.4179(6) -0.1093(4) 0.0486(4)
O5_2 O 0.0599(7) -0.1822(4) 0.8360(5)
O5A O -1.0599(7) 0.1822(4) 0.1640(5)
O6_2 O -0.0629(6) -0.1061(4) 0.9800(5)
O6A O 0.0629(6) 0.1061(4) 1.0200(5)
O6_3 O -1.0629(6) -0.1061(4) -0.0200(5)
O6A_2 O -0.9371(6) 0.1061(4) 0.0200(5)
O7A O -1.2837(6) 0.0565(4) -0.0141(4)
O8A O -1.3770(7) 0.1001(5) 0.1976(5)
N1A N -1.5051(13) 0.2285(9) 0.3067(10)
C1A C -0.9447(12) 0.0211(7) 0.2652(8)
C2A C -0.8130(10) 0.0180(6) 0.3362(7)
C3A C -0.8355(12) 0.0506(9) 0.4379(7)
H1A H -0.9322 0.0785 0.4637
C4A C -0.7173(11) 0.0425(9) 0.5021(8)
H2A H -0.7362 0.0625 0.5707
C5A C -0.5656(10) 0.0038(7) 0.4648(7)
C6A C -0.5449(11) -0.0237(8) 0.3630(7)
H3A H -0.4450 -0.0460 0.3372
C7A C -0.6623(10) -0.0198(7) 0.2989(7)
H4A H -0.6444 -0.0419 0.2301
C8_2 C -0.6028(10) -0.8479(6) 0.8889(7)
C9_2 C -0.4974(10) -0.7581(6) 0.8885(7)
C10_2 C -0.5148(10) -0.7168(7) 0.8151(7)
H5_2 H -0.5914 -0.7481 0.7626
C11_2 C -0.4199(11) -0.6292(7) 0.8175(8)
H6_2 H -0.4320 -0.6038 0.7660
C12_2 C -0.3095(11) -0.5805(6) 0.8948(8)
C13_2 C -0.2882(10) -0.6196(6) 0.9681(7)
H7_2 H -0.2115 -0.5869 1.0202
C14_2 C -0.3817(10) -0.7099(6) 0.9665(7)
H8_2 H -0.3659 -0.7365 1.0168
C15_2 C -0.2190(10) -0.4820(6) 0.9020(8)
C16_2 C -0.1654(11) -0.4691(6) 0.8134(8)
H9_2 H -0.1757 -0.5237 0.7518
C17_2 C -0.0964(11) -0.3730(7) 0.8195(8)
H10_2 H -0.0588 -0.3641 0.7613
C18_2 C -0.0830(10) -0.2929(6) 0.9072(7)
C19_2 C -0.1259(10) -0.3059(6) 0.9941(7)
H11_2 H -0.1093 -0.2519 1.0557
C20_2 C -0.1954(10) -0.4014(7) 0.9897(7)
H12_2 H -0.2265 -0.4099 1.0493
C21_2 C -0.0268(10) -0.1848(7) 0.9107(8)
C22A C -1.3912(13) 0.1595(10) 0.2807(11)
H13A H -1.3196 0.1586 0.3311
C23A C -1.526(2) 0.2888(14) 0.4198(15)
H14A H -1.4340 0.2810 0.4577
H15A H -1.5313 0.3603 0.4307
H16A H -1.6242 0.2629 0.4415
C24A C -1.6188(19) 0.2323(11) 0.2358(12)
H17A H -1.5839 0.1948 0.1692
H18A H -1.7229 0.2023 0.2462
H19A H -1.6282 0.3026 0.2431
O9 O 1.172(2) 0.7315(12) 0.4539(13)
N2 N 1.0162(16) 0.7217(9) 0.3416(10)
C25 C 1.142(2) 0.7547(14) 0.3895(16)
C26 C 1.0067(19) 0.7492(11) 0.2606(12)
H20 H 1.1036 0.7911 0.2584
H21 H 0.9130 0.7875 0.2650
H22 H 0.9967 0.6888 0.2005
C27 C 0.898(2) 0.6659(12) 0.3621(13)
H23 H 0.9263 0.6535 0.4220
H24 H 0.8795 0.6016 0.3068
H25 H 0.8002 0.7015 0.3727
O10 O 0.0365(17) 0.6867(10) 0.6136(11)
loop_
_geom_bond_atom_site_label_1
_geom_bond_atom_site_label_2
_geom_bond_site_symmetry_1
_geom_bond_site_symmetry_2
Y1 O1 1_555 1_555
O1 C1 1_555 1_555
O2 Y1 1_555 1_555
O3 Y1 1_555 1_555
O4 Y1 1_555 1_555
O5 C21 1_555 1_555
O6 C21 1_555 1_555
O7 Y1 1_555 1_555
O8 Y1 1_555 1_555
O9 C25 1_555 1_555
N1 C22 1_555 1_555
N2 C25 1_555 1_555
C1 O2 1_555 1_555
C2 C1 1_555 1_555
C3 C2 1_555 1_555
H1 C3 1_555 1_555
C4 C3 1_555 1_555
H2 C4 1_555 1_555
C5 C4 1_555 1_555
C6 C5 1_555 1_555
H3 C6 1_555 1_555
C7 C2 1_555 1_555
H4 C7 1_555 1_555
C8 O3 1_555 1_555
C9 C8 1_555 1_555
C10 C9 1_555 1_555
H5 C10 1_555 1_555
C11 C10 1_555 1_555
H6 C11 1_555 1_555
C12 C11 1_555 1_555
C13 C12 1_555 1_555
H7 C13 1_555 1_555
C14 C9 1_555 1_555
H8 C14 1_555 1_555
C15 C12 1_555 1_555
C16 C15 1_555 1_555
H9 C16 1_555 1_555
C17 C16 1_555 1_555
H10 C17 1_555 1_555
C18 C17 1_555 1_555
C19 C18 1_555 1_555
H11 C19 1_555 1_555
C20 C15 1_555 1_555
H12 C20 1_555 1_555
C21 C18 1_555 1_555
C22 O8 1_555 1_555
H13 C22 1_555 1_555
C23 N1 1_555 1_555
H14 C23 1_555 1_555
H15 C23 1_555 1_555
H16 C23 1_555 1_555
C24 N1 1_555 1_555
H17 C24 1_555 1_555
H18 C24 1_555 1_555
H19 C24 1_555 1_555
C26 N2 1_555 1_555
H20 C26 1_555 1_555
H21 C26 1_555 1_555
H22 C26 1_555 1_555
C27 N2 1_555 1_555
H23 C27 1_555 1_555
H24 C27 1_555 1_555
H25 C27 1_555 1_555
Y1A O1A 1_555 1_555
Y1_2 O5 1_555 1_555
Y1A_2 O6 1_555 1_555
Y1_3 O3_2 1_555 1_555
Y1A_3 O6_2 1_555 1_555
O1A C1A 1_555 1_555
O2A Y1A 1_555 1_555
O3_2 C8_2 1_555 1_555
O3A Y1A 1_555 1_555
O4_2 Y1_3 1_555 1_555
O4A Y1A 1_555 1_555
O5_2 Y1 1_555 1_555
O5A Y1A 1_555 1_555
O6_2 Y1 1_555 1_555
O6A Y1 1_555 1_555
O6_3 Y1A 1_555 1_555
O6A_2 Y1A 1_555 1_555
O7A Y1A 1_555 1_555
O8A Y1A 1_555 1_555
N1A C22A 1_555 1_555
C1A O2A 1_555 1_555
C2A C1A 1_555 1_555
C3A C2A 1_555 1_555
H1A C3A 1_555 1_555
C4A C3A 1_555 1_555
H2A C4A 1_555 1_555
C5A C5 1_555 1_555
C6A C5A 1_555 1_555
H3A C6A 1_555 1_555
C7A C2A 1_555 1_555
H4A C7A 1_555 1_555
C8_2 O4_2 1_555 1_555
C9_2 C8_2 1_555 1_555
C10_2 C9_2 1_555 1_555
H5_2 C10_2 1_555 1_555
C11_2 C10_2 1_555 1_555
H6_2 C11_2 1_555 1_555
C12_2 C11_2 1_555 1_555
C13_2 C12_2 1_555 1_555
H7_2 C13_2 1_555 1_555
C14_2 C9_2 1_555 1_555
H8_2 C14_2 1_555 1_555
C15_2 C12_2 1_555 1_555
C16_2 C15_2 1_555 1_555
H9_2 C16_2 1_555 1_555
C17_2 C16_2 1_555 1_555
H10_2 C17_2 1_555 1_555
C18_2 C17_2 1_555 1_555
C19_2 C18_2 1_555 1_555
H11_2 C19_2 1_555 1_555
C20_2 C15_2 1_555 1_555
H12_2 C20_2 1_555 1_555
C21_2 O5_2 1_555 1_555
C22A O8A 1_555 1_555
H13A C22A 1_555 1_555
C23A N1A 1_555 1_555
H14A C23A 1_555 1_555
H15A C23A 1_555 1_555
H16A C23A 1_555 1_555
C24A N1A 1_555 1_555
H17A C24A 1_555 1_555
H18A C24A 1_555 1_555
H19A C24A 1_555 1_555
O4 C8 1_555 1_555
O6 Y1_2 1_555 1_555
C6 C7 1_555 1_555
C13 C14 1_555 1_555
C19 C20 1_555 1_555
Y1A_3 O6A 1_555 1_555
O6_2 C21_2 1_555 1_555
C4A C5A 1_555 1_555
C6A C7A 1_555 1_555
C13_2 C14_2 1_555 1_555
C18_2 C21_2 1_555 1_555
C19_2 C20_2 1_555 1_555

#END
