
#######################################################################
#
#                 Cambridge Crystallographic Data Centre
#                                CCDC 
#
#######################################################################
#
# If this CIF has been generated from an entry in the Cambridge 
# Structural Database, then it will include bibliographic, chemical, 
# crystal, experimental, refinement or atomic coordinate data resulting 
# from the CCDC's data processing and validation procedures.
#
#######################################################################

data_XIPROE
_symmetry_cell_setting           monoclinic
_symmetry_space_group_name_H-M   'P 21/n'
_symmetry_Int_Tables_number      14
_space_group_name_Hall           '-P 2yn'
loop_
_symmetry_equiv_pos_site_id
_symmetry_equiv_pos_as_xyz
1 x,y,z
2 1/2-x,1/2+y,1/2-z
3 -x,-y,-z
4 1/2+x,1/2-y,1/2+z
_cell_length_a                   10.3807(13)
_cell_length_b                   12.6918(16)
_cell_length_c                   13.8694(14)
_cell_angle_alpha                90
_cell_angle_beta                 91.296(4)
_cell_angle_gamma                90
_cell_volume                     1826.82
loop_
_atom_site_label
_atom_site_type_symbol
_atom_site_fract_x
_atom_site_fract_y
_atom_site_fract_z
Co1 Co 0.30594(3) 0.23819(3) 0.56241(2)
N1 N 0.2435(2) 0.47386(16) 0.58976(14)
N2 N 0.30969(19) 0.40540(16) 0.53216(14)
N3 N 0.1253(2) 0.26623(16) 0.63538(15)
N4 N 0.09946(19) 0.36263(16) 0.67556(14)
N5 N 0.4806(2) 0.20367(19) 0.49071(17)
N6 N 0.6768(3) 0.1130(2) 0.4404(3)
N7 N 0.6986(2) -0.07399(19) 0.40707(17)
N8 N 0.2024(2) 0.21169(19) 0.43270(15)
N9 N 0.1096(3) 0.1633(3) 0.27660(19)
N10 N -0.0758(2) 0.23265(19) 0.18670(15)
C1 C 0.1634(4) 0.6595(3) 0.5963(3)
H1 H 0.0723 0.6585 0.5762
H2 H 0.2021 0.7265 0.5771
H3 H 0.1707 0.6519 0.6665
C2 C 0.2323(3) 0.5704(2) 0.5491(2)
C3 C 0.2943(3) 0.5649(2) 0.4632(2)
H4 H 0.3039 0.6204 0.4180
C4 C 0.3407(2) 0.4621(2) 0.45475(17)
C5 C 0.4136(3) 0.4174(2) 0.37300(19)
H5 H 0.5062 0.4267 0.3855
H6 H 0.3885 0.4541 0.3133
H7 H 0.3940 0.3422 0.3665
C6 C 0.2020(2) 0.4391(2) 0.68335(17)
H8 H 0.2761 0.4076 0.7191
H9 H 0.1721 0.5006 0.7205
C7 C -0.0798(3) 0.4678(2) 0.7477(2)
H10 H -0.0681 0.4639 0.8179
H11 H -0.1719 0.4725 0.7312
H12 H -0.0354 0.5302 0.7234
C8 C -0.0246(2) 0.3709(2) 0.70266(19)
C9 C -0.0811(3) 0.2764(2) 0.6801(2)
H13 H -0.1679 0.2570 0.6909
C10 C 0.0132(3) 0.2138(2) 0.63804(19)
C11 C -0.0035(3) 0.1047(2) 0.5996(2)
H14 H -0.0305 0.1081 0.5315
H15 H -0.0694 0.0679 0.6363
H16 H 0.0783 0.0666 0.6057
C12 C 0.5691(3) 0.1569(2) 0.4680(2)
C13 C 0.6822(2) 0.0125(2) 0.4255(2)
C14 C 0.1532(2) 0.1941(2) 0.36033(17)
C15 C 0.0107(2) 0.2052(2) 0.23260(17)
Co1B Co 0.69406(3) -0.23819(3) 0.43759(2)
Co1C Co -0.19406(3) 0.26181(3) 0.06241(2)
N7B N 0.3014(2) 0.07399(19) 0.59293(17)
N10C N 0.4242(2) 0.26735(19) 0.68670(15)
loop_
_geom_bond_atom_site_label_1
_geom_bond_atom_site_label_2
_geom_bond_site_symmetry_1
_geom_bond_site_symmetry_2
Co1 N2 1_555 1_555
N1 N2 1_555 1_555
N2 C4 1_555 1_555
N3 Co1 1_555 1_555
N4 N3 1_555 1_555
N5 Co1 1_555 1_555
N6 C12 1_555 1_555
N7 C13 1_555 1_555
N8 Co1 1_555 1_555
N9 C14 1_555 1_555
N10 C15 1_555 1_555
C1 H1 1_555 1_555
H2 C1 1_555 1_555
H3 C1 1_555 1_555
C2 N1 1_555 1_555
C3 C2 1_555 1_555
H4 C3 1_555 1_555
C4 C3 1_555 1_555
C5 C4 1_555 1_555
H5 C5 1_555 1_555
H6 C5 1_555 1_555
H7 C5 1_555 1_555
C6 N1 1_555 1_555
H8 C6 1_555 1_555
H9 C6 1_555 1_555
C7 H10 1_555 1_555
H11 C7 1_555 1_555
H12 C7 1_555 1_555
C8 N4 1_555 1_555
C9 C8 1_555 1_555
H13 C9 1_555 1_555
C10 N3 1_555 1_555
C11 C10 1_555 1_555
H14 C11 1_555 1_555
H15 C11 1_555 1_555
H16 C11 1_555 1_555
C12 N5 1_555 1_555
C13 N6 1_555 1_555
C14 N8 1_555 1_555
C15 N9 1_555 1_555
Co1B N7 1_555 1_555
Co1C N10 1_555 1_555
N7B Co1 1_555 1_555
N10C Co1 1_555 1_555
N4 C6 1_555 1_555
C1 C2 1_555 1_555
C7 C8 1_555 1_555
C9 C10 1_555 1_555

#END
