
#######################################################################
#
#                 Cambridge Crystallographic Data Centre
#                                CCDC 
#
#######################################################################
#
# If this CIF has been generated from an entry in the Cambridge 
# Structural Database, then it will include bibliographic, chemical, 
# crystal, experimental, refinement or atomic coordinate data resulting 
# from the CCDC's data processing and validation procedures.
#
#######################################################################

data_XIPSUM
_symmetry_cell_setting           monoclinic
_symmetry_space_group_name_H-M   'P 21/c'
_symmetry_Int_Tables_number      14
_space_group_name_Hall           '-P 2ybc'
loop_
_symmetry_equiv_pos_site_id
_symmetry_equiv_pos_as_xyz
1 x,y,z
2 -x,1/2+y,1/2-z
3 -x,-y,-z
4 x,1/2-y,1/2+z
_cell_length_a                   11.2301(6)
_cell_length_b                   19.1920(11)
_cell_length_c                   11.8597(6)
_cell_angle_alpha                90
_cell_angle_beta                 92.214(2)
_cell_angle_gamma                90
_cell_volume                     2554.19
loop_
_atom_site_label
_atom_site_type_symbol
_atom_site_fract_x
_atom_site_fract_y
_atom_site_fract_z
Ag1 Ag 0.44732(5) 0.74442(3) 0.38642(5)
C1 C 0.5791(12) 0.4166(5) 0.8160(8)
H1 H 0.5084 0.4310 0.7709
C2 C 0.7790(13) 0.4136(8) 0.7845(17)
H2 H 0.8370 0.4104 0.7263
H3 H 0.8076 0.3874 0.8500
C3 C 0.7564(10) 0.4866(8) 0.8141(9)
C4 C 0.7458(8) 0.5416(5) 0.7244(8)
H4 H 0.8070 0.5772 0.7391
C5 C 0.7463(12) 0.5206(5) 0.6016(10)
H5 H 0.7693 0.5593 0.5547
H6 H 0.8005 0.4820 0.5907
C6 C 0.5574(10) 0.5481(5) 0.6274(8)
H7 H 0.4841 0.5246 0.6488
C7 C 0.6234(8) 0.5742(4) 0.7356(7)
H8 H 0.6288 0.6252 0.7358
C8 C 0.5750(8) 0.5483(4) 0.8430(7)
H9 H 0.4899 0.5399 0.8340
H10 H 0.5889 0.5820 0.9030
C9 C 0.6405(8) 0.4811(4) 0.8698(6)
H11 H 0.6527 0.4751 0.9514
C10 C 0.5246(9) 0.6063(5) 0.5497(8)
C11 C 0.7335(7) 0.7260(4) 0.3148(6)
C12 C 0.8621(6) 0.7191(4) 0.3410(5)
H12 H 0.8959 0.6833 0.2928
C13 C 0.8897(6) 0.7014(3) 0.4661(5)
H13 H 0.8190 0.6827 0.5015
C14 C 0.9973(6) 0.6523(4) 0.4849(6)
H14 H 0.9712 0.6059 0.5050
H15 H 1.0432 0.6493 0.4174
C15 C 1.0711(6) 0.6852(4) 0.5818(5)
H16 H 1.0456 0.6703 0.6561
C16 C 1.2045(6) 0.6756(4) 0.5675(5)
H17 H 1.2209 0.6276 0.5449
C17 C 1.1530(7) 0.7799(4) 0.4804(7)
H18 H 1.1187 0.7874 0.4050
H19 H 1.1951 0.8219 0.5041
C18 C 1.0547(6) 0.7638(3) 0.5617(6)
H20 H 1.0681 0.7895 0.6325
C19 C 0.9263(6) 0.7721(3) 0.5182(6)
H21 H 0.8752 0.7832 0.5809
C20 C 0.9049(7) 0.8241(4) 0.4228(7)
H22 H 0.8255 0.8437 0.4247
H23 H 0.9627 0.8616 0.4277
C21 C 0.5461(10) 0.3647(5) 0.8993(8)
C22 C 1.2757(6) 0.6932(4) 0.6721(6)
N1 N 0.4986(8) 0.6508(4) 0.4943(7)
N2 N 0.6359(7) 0.7351(4) 0.2965(7)
N3 N 0.5239(8) 0.3258(4) 0.9665(6)
N4 N 1.3310(6) 0.7097(4) 0.7486(5)
O1 O 0.6659(15) 0.3889(5) 0.7446(9)
O2 O 0.6281(11) 0.5007(3) 0.5767(7)
O3 O 1.2341(5) 0.7219(3) 0.4801(4)
O4 O 0.9186(5) 0.7839(3) 0.3222(4)
Ag1A Ag 0.55268(5) 0.24442(3) 1.11358(5)
Ag1C Ag 1.44732(5) 0.75558(3) 0.88642(5)
N3A N 0.4761(8) 0.8258(4) 0.5335(6)
N4C N 0.3310(6) 0.7903(4) 0.2486(5)
F1 F 0.7482(11) 0.4601(6) 0.2658(16)
F2 F 0.7887(13) 0.5631(5) 0.3034(9)
F3 F 0.7445(14) 0.5393(9) 0.1376(10)
F4 F 0.9199(11) 0.5668(6) 0.1887(14)
F5 F 0.875(2) 0.4665(9) 0.1308(13)
F6 F 0.9238(11) 0.4778(9) 0.2884(17)
P1 P 0.8337(2) 0.51057(13) 0.2174(2)
loop_
_geom_bond_atom_site_label_1
_geom_bond_atom_site_label_2
_geom_bond_site_symmetry_1
_geom_bond_site_symmetry_2
Ag1 N1 1_555 1_555
C1 H1 1_555 1_555
C2 H2 1_555 1_555
H3 C2 1_555 1_555
C3 C2 1_555 1_555
C4 C3 1_555 1_555
H4 C4 1_555 1_555
C5 C4 1_555 1_555
H5 C5 1_555 1_555
H6 C5 1_555 1_555
C6 H7 1_555 1_555
C7 C4 1_555 1_555
H8 C7 1_555 1_555
C8 C7 1_555 1_555
H9 C8 1_555 1_555
H10 C8 1_555 1_555
C9 C1 1_555 1_555
H11 C9 1_555 1_555
C10 C6 1_555 1_555
C11 C12 1_555 1_555
C12 H12 1_555 1_555
C13 C12 1_555 1_555
H13 C13 1_555 1_555
C14 C13 1_555 1_555
H14 C14 1_555 1_555
H15 C14 1_555 1_555
C15 C14 1_555 1_555
H16 C15 1_555 1_555
C16 C15 1_555 1_555
H17 C16 1_555 1_555
C17 H18 1_555 1_555
H19 C17 1_555 1_555
C18 C15 1_555 1_555
H20 C18 1_555 1_555
C19 C13 1_555 1_555
H21 C19 1_555 1_555
C20 C19 1_555 1_555
H22 C20 1_555 1_555
H23 C20 1_555 1_555
C21 C1 1_555 1_555
C22 C16 1_555 1_555
N1 C10 1_555 1_555
N2 Ag1 1_555 1_555
N3 C21 1_555 1_555
N4 C22 1_555 1_555
O1 C1 1_555 1_555
O2 C5 1_555 1_555
O3 C16 1_555 1_555
O4 C12 1_555 1_555
F1 P1 1_555 1_555
F2 P1 1_555 1_555
F3 P1 1_555 1_555
F4 P1 1_555 1_555
F5 P1 1_555 1_555
F6 P1 1_555 1_555
Ag1A N3 1_555 1_555
Ag1C N4 1_555 1_555
N3A Ag1 1_555 1_555
N4C Ag1 1_555 1_555
C2 O1 1_555 1_555
C3 C9 1_555 1_555
C6 C7 1_555 1_555
C6 O2 1_555 1_555
C8 C9 1_555 1_555
C11 N2 1_555 1_555
C17 C18 1_555 1_555
C17 O3 1_555 1_555
C18 C19 1_555 1_555
C20 O4 1_555 1_555

#END
