
#######################################################################
#
#                 Cambridge Crystallographic Data Centre
#                                CCDC 
#
#######################################################################
#
# If this CIF has been generated from an entry in the Cambridge 
# Structural Database, then it will include bibliographic, chemical, 
# crystal, experimental, refinement or atomic coordinate data resulting 
# from the CCDC's data processing and validation procedures.
#
#######################################################################

data_XIPSOG
_symmetry_cell_setting           monoclinic
_symmetry_space_group_name_H-M   'P 21/c'
_symmetry_Int_Tables_number      14
_space_group_name_Hall           '-P 2ybc'
loop_
_symmetry_equiv_pos_site_id
_symmetry_equiv_pos_as_xyz
1 x,y,z
2 -x,1/2+y,1/2-z
3 -x,-y,-z
4 x,1/2-y,1/2+z
_cell_length_a                   11.3040(2)
_cell_length_b                   19.5436(4)
_cell_length_c                   11.8709(2)
_cell_angle_alpha                90
_cell_angle_beta                 92.3040(10)
_cell_angle_gamma                90
_cell_volume                     2620.41
loop_
_atom_site_label
_atom_site_type_symbol
_atom_site_fract_x
_atom_site_fract_y
_atom_site_fract_z
Sb1 Sb 0.84016(3) 0.012043(18) 0.22033(3)
F1 F 0.7786(6) 0.0761(3) 0.3220(5)
F2 F 0.9465(6) 0.0785(3) 0.1886(7)
F3 F 0.7328(6) -0.0487(3) 0.2729(9)
F4 F 0.7355(9) 0.0458(5) 0.1179(6)
F5 F 0.9011(10) -0.0476(4) 0.1300(10)
F6 F 0.9412(9) -0.0182(5) 0.3287(10)
Ag1 Ag 0.56040(3) 0.74346(2) 1.10905(3)
O1 O -0.2230(3) 0.7281(2) 1.0173(3)
O2 O 0.0925(3) 0.78773(18) 1.1741(3)
C1 C 0.1448(4) 0.7240(2) 1.1538(4)
H1 H 0.1111 0.6891 1.2025
C2 C -0.0467(4) 0.7685(2) 0.9344(4)
H2 H -0.0604 0.7936 0.8636
O3 O 0.6278(6) 1.0059(2) 0.5684(4)
C3 C 0.2751(5) 0.7304(3) 1.1800(4)
N1 N -0.3216(4) 0.7159(3) 0.7494(3)
C4 C 0.1168(4) 0.7062(2) 1.0300(3)
H3 H 0.1864 0.6872 0.9945
C5 C 0.0100(4) 0.6597(2) 1.0119(4)
H4 H -0.0347 0.6572 1.0798
H5 H 0.0348 0.6139 0.9921
C6 C 0.6336(5) 0.9782(2) 0.8671(4)
H6 H 0.6484 0.9710 0.9482
C7 C -0.1961(4) 0.6823(2) 0.9306(3)
H7 H -0.2125 0.6353 0.9537
C8 C -0.2675(4) 0.6997(2) 0.8264(3)
C9 C -0.0652(4) 0.6916(2) 0.9152(3)
H8 H -0.0409 0.6766 0.8408
C10 C 0.0810(4) 0.7766(2) 0.9768(4)
H9 H 0.1313 0.7869 0.9137
C11 C 0.5747(5) 1.0472(3) 0.8438(4)
H10 H 0.4894 1.0420 0.8363
H11 H 0.5932 1.0789 0.9048
C12 C 0.1060(5) 0.8273(2) 1.0726(4)
H12 H 0.1857 0.8455 1.0697
H13 H 0.0501 0.8650 1.0687
C13 C 0.6231(5) 1.0731(2) 0.7349(4)
H14 H 0.6300 1.1230 0.7358
C14 C -0.1440(5) 0.7848(3) 1.0164(4)
H15 H -0.1094 0.7926 1.0914
H16 H -0.1863 0.8259 0.9924
N2 N 0.3718(5) 0.7372(3) 1.1986(5)
N3 N 0.4866(5) 1.1509(3) 0.5026(4)
C15 C 0.5428(6) 0.8643(3) 0.8981(4)
C16 C 0.5145(5) 1.1062(3) 0.5563(5)
C17 C 0.7433(5) 1.0398(3) 0.7204(5)
H17 H 0.8061 1.0728 0.7404
C18 C 0.5529(6) 1.0483(3) 0.6275(5)
H18 H 0.4835 1.0222 0.6494
C19 C 0.7502(6) 0.9786(4) 0.8042(5)
H19 H 0.8187 0.9830 0.8570
C20 C 0.7455(8) 1.0247(3) 0.6018(5)
H20 H 0.7703 1.0645 0.5601
H21 H 0.7997 0.9874 0.5884
C21 C 0.5674(8) 0.9174(3) 0.8129(5)
N4 N 0.5284(5) 0.8271(2) 0.9667(4)
C22 C 0.7393(11) 0.9028(6) 0.7558(9)
H22 H 0.7860 0.8979 0.6895
H23 H 0.7676 0.8701 0.8121
O4 O 0.6298(11) 0.8925(3) 0.7305(5)
Ag1A Ag 0.43960(3) 1.24346(2) 0.39095(3)
Ag1C Ag -0.43960(3) 0.75654(2) 0.60905(3)
N1C N 0.6784(4) 0.7841(3) 1.2494(3)
N3A N 0.5134(5) 0.6509(3) 0.9974(4)
loop_
_geom_bond_atom_site_label_1
_geom_bond_atom_site_label_2
_geom_bond_site_symmetry_1
_geom_bond_site_symmetry_2
Sb1 F1 1_555 1_555
F2 Sb1 1_555 1_555
F3 Sb1 1_555 1_555
F4 Sb1 1_555 1_555
F5 Sb1 1_555 1_555
F6 Sb1 1_555 1_555
Ag1 N2 1_555 1_555
O1 C7 1_555 1_555
O2 C1 1_555 1_555
C1 H1 1_555 1_555
C2 H2 1_555 1_555
O3 C18 1_555 1_555
C3 C1 1_555 1_555
N1 C8 1_555 1_555
C4 C1 1_555 1_555
H3 C4 1_555 1_555
C5 C4 1_555 1_555
H4 C5 1_555 1_555
H5 C5 1_555 1_555
C6 H6 1_555 1_555
C7 H7 1_555 1_555
C8 C7 1_555 1_555
C9 C2 1_555 1_555
H8 C9 1_555 1_555
C10 C2 1_555 1_555
H9 C10 1_555 1_555
C11 C6 1_555 1_555
H10 C11 1_555 1_555
H11 C11 1_555 1_555
C12 O2 1_555 1_555
H12 C12 1_555 1_555
H13 C12 1_555 1_555
C13 C11 1_555 1_555
H14 C13 1_555 1_555
C14 O1 1_555 1_555
H15 C14 1_555 1_555
H16 C14 1_555 1_555
N2 C3 1_555 1_555
N3 C16 1_555 1_555
C15 C21 1_555 1_555
C16 C18 1_555 1_555
C17 C13 1_555 1_555
H17 C17 1_555 1_555
C18 C13 1_555 1_555
H18 C18 1_555 1_555
C19 C6 1_555 1_555
H19 C19 1_555 1_555
C20 O3 1_555 1_555
H20 C20 1_555 1_555
H21 C20 1_555 1_555
C21 C6 1_555 1_555
N4 Ag1 1_555 1_555
C22 C19 1_555 1_555
H22 C22 1_555 1_555
H23 C22 1_555 1_555
O4 C21 1_555 1_555
Ag1A N3 1_555 1_555
Ag1C N1 1_555 1_555
N1C Ag1 1_555 1_555
N3A Ag1 1_555 1_555
C2 C14 1_555 1_555
C4 C10 1_555 1_555
C5 C9 1_555 1_555
C7 C9 1_555 1_555
C10 C12 1_555 1_555
C15 N4 1_555 1_555
C17 C19 1_555 1_555
C17 C20 1_555 1_555
C22 O4 1_555 1_555

#END
