
#######################################################################
#
#                 Cambridge Crystallographic Data Centre
#                                CCDC 
#
#######################################################################
#
# If this CIF has been generated from an entry in the Cambridge 
# Structural Database, then it will include bibliographic, chemical, 
# crystal, experimental, refinement or atomic coordinate data resulting 
# from the CCDC's data processing and validation procedures.
#
#######################################################################

data_XIPTEW
_symmetry_cell_setting           monoclinic
_symmetry_space_group_name_H-M   'P 21/n'
_symmetry_Int_Tables_number      14
_space_group_name_Hall           '-P 2yn'
loop_
_symmetry_equiv_pos_site_id
_symmetry_equiv_pos_as_xyz
1 x,y,z
2 1/2-x,1/2+y,1/2-z
3 -x,-y,-z
4 1/2+x,1/2-y,1/2+z
_cell_length_a                   7.6004(8)
_cell_length_b                   9.8077(10)
_cell_length_c                   14.7145(15)
_cell_angle_alpha                90
_cell_angle_beta                 98.160(9)
_cell_angle_gamma                90
_cell_volume                     1085.75
loop_
_atom_site_label
_atom_site_type_symbol
_atom_site_fract_x
_atom_site_fract_y
_atom_site_fract_z
Ho1 Ho 0.15010(2) 0.545236(16) 0.361028(10)
O1 O 0.1956(4) 0.4226(3) 0.23269(18)
O2 O 0.1670(3) 0.2347(3) 0.14739(17)
O3 O 0.4064(4) 0.8453(3) 0.07079(19)
O4 O 0.4814(4) 0.8079(3) -0.06803(19)
O5 O 0.2955(4) 0.5636(3) 0.52043(19)
O6 O 0.5527(4) 0.5462(3) 0.6151(2)
O7 O 0.0160(5) 0.6846(4) 0.2331(2)
O8 O -0.1534(4) 0.4702(3) 0.3123(2)
N1 N 0.1929(5) 0.4478(3) -0.0904(2)
C1 C 0.1697(5) 0.3868(4) -0.0122(3)
C2 C 0.2216(5) 0.4425(4) 0.0747(3)
C3 C 0.2967(5) 0.5716(4) 0.0802(3)
C4 C 0.3271(5) 0.6350(4) -0.0007(2)
C5 C 0.2739(6) 0.5694(4) -0.0845(3)
C6 C 0.1931(5) 0.3628(4) 0.1578(2)
C7 C 0.4106(5) 0.7731(4) 0.0005(2)
C8 C 0.4563(5) 0.5318(4) 0.5396(3)
H1 H 0.116(5) 0.298(4) -0.023(3)
H2 H 0.328(6) 0.602(5) 0.144(3)
H3 H 0.293(7) 0.612(6) -0.139(4)
H4 H -0.087(11) 0.643(9) 0.184(6)
H5 H 0.043(9) 0.731(7) 0.208(4)
H6 H -0.197(8) 0.455(5) 0.355(4)
H7 H -0.233(12) 0.521(9) 0.279(6)
Ho1A Ho 0.34990(2) 1.045236(16) 0.138972(10)
Ho1A_2 Ho 0.34990(2) 0.045236(16) 0.138972(10)
Ho1C Ho 0.65010(2) 0.954764(16) -0.138972(10)
Ho1B Ho 0.84990(2) 0.454764(16) 0.638972(10)
Ho1_2 Ho 0.15010(2) 1.545236(16) 0.361028(10)
Ho1B_2 Ho -0.15010(2) 1.454764(16) 0.638972(10)
O1A O 0.3044(4) 0.9226(3) 0.26731(18)
O2A O 0.3330(3) 0.7347(3) 0.35261(17)
O2_2 O 0.1670(3) 1.2347(3) 0.14739(17)
O3A O 0.0936(4) 1.3453(3) 0.42921(19)
O3A_2 O 0.0936(4) 0.3453(3) 0.42921(19)
O4A O 0.0186(4) 1.3079(3) 0.56803(19)
O4C O -0.0186(4) 0.6921(3) 0.43197(19)
O4B O 0.5186(4) 1.1921(3) 0.06803(19)
O5B O 0.7045(4) 0.4364(3) 0.47957(19)
O5A O 0.2045(4) 1.0636(3) -0.02043(19)
O6B O 0.4473(4) 0.4538(3) 0.3849(2)
O6C O 0.0527(4) 0.9538(3) 0.1151(2)
O7A O 0.4840(5) 1.1846(4) 0.2669(2)
O8A O 0.6534(4) 0.9702(3) 0.1877(2)
N1A N 0.3071(5) 0.9478(3) 0.5904(2)
C1A C 0.3303(5) 0.8868(4) 0.5122(3)
C2A C 0.2784(5) 0.9425(4) 0.4253(3)
C3A C 0.2033(5) 1.0716(4) 0.4198(3)
C4A C 0.1729(5) 1.1350(4) 0.5007(2)
C5A C 0.2261(6) 1.0694(4) 0.5845(3)
C6A C 0.3069(5) 0.8628(4) 0.3422(2)
C7A C 0.0894(5) 1.2731(4) 0.4995(2)
C8B C 0.5437(5) 0.4682(4) 0.4604(3)
H1A H 0.384(5) 0.798(4) 0.523(3)
H2A H 0.172(6) 1.102(5) 0.356(3)
H3A H 0.207(7) 1.112(6) 0.639(4)
H4A H 0.587(11) 1.143(9) 0.316(6)
H5A H 0.457(9) 1.231(7) 0.292(4)
H6A H 0.697(8) 0.955(5) 0.145(4)
H7A H 0.733(12) 1.021(9) 0.221(6)
O9 O 0.1113(5) 0.8305(4) 0.7524(3)
H8 H 0.022(10) 0.803(8) 0.788(5)
H9 H 0.161(12) 0.767(9) 0.714(6)
loop_
_geom_bond_atom_site_label_1
_geom_bond_atom_site_label_2
_geom_bond_site_symmetry_1
_geom_bond_site_symmetry_2
Ho1 O1 1_555 1_555
O1 C6 1_555 1_555
O2 C6 1_555 1_555
O3 C7 1_555 1_555
O4 C7 1_555 1_555
O5 Ho1 1_555 1_555
O6 C8 1_555 1_555
O7 Ho1 1_555 1_555
O8 Ho1 1_555 1_555
O9 H8 1_555 1_555
N1 C1 1_555 1_555
C1 C2 1_555 1_555
C2 C3 1_555 1_555
C3 C4 1_555 1_555
C4 C5 1_555 1_555
C5 N1 1_555 1_555
C6 C2 1_555 1_555
C7 C4 1_555 1_555
C8 O5 1_555 1_555
H1 C1 1_555 1_555
H2 C3 1_555 1_555
H3 C5 1_555 1_555
H4 O7 1_555 1_555
H5 O7 1_555 1_555
H6 O8 1_555 1_555
H7 O8 1_555 1_555
H9 O9 1_555 1_555
Ho1A O3 1_555 1_555
Ho1A_2 O2 1_555 1_555
Ho1C O4 1_555 1_555
Ho1B O6 1_555 1_555
Ho1_2 O3A 1_555 1_555
Ho1B_2 O4A 1_555 1_555
O1A Ho1A 1_555 1_555
O2A Ho1 1_555 1_555
O2_2 Ho1A 1_555 1_555
O3A C7A 1_555 1_555
O3A_2 Ho1 1_555 1_555
O4A C7A 1_555 1_555
O4C Ho1 1_555 1_555
O4B Ho1A 1_555 1_555
O5B Ho1B 1_555 1_555
O5A Ho1A 1_555 1_555
O6B Ho1 1_555 1_555
O6C Ho1A 1_555 1_555
O7A Ho1A 1_555 1_555
O8A Ho1A 1_555 1_555
N1A C1A 1_555 1_555
C1A C2A 1_555 1_555
C2A C3A 1_555 1_555
C3A C4A 1_555 1_555
C4A C5A 1_555 1_555
C5A N1A 1_555 1_555
C6A O1A 1_555 1_555
C7A C4A 1_555 1_555
C8B C8 1_555 1_555
H1A C1A 1_555 1_555
H2A C3A 1_555 1_555
H3A C5A 1_555 1_555
H4A O7A 1_555 1_555
H5A O7A 1_555 1_555
H6A O8A 1_555 1_555
H7A O8A 1_555 1_555
O2A C6A 1_555 1_555
O5B C8B 1_555 1_555
O6B C8B 1_555 1_555
C2A C6A 1_555 1_555

#END
