
#######################################################################
#
#                 Cambridge Crystallographic Data Centre
#                                CCDC 
#
#######################################################################
#
# If this CIF has been generated from an entry in the Cambridge 
# Structural Database, then it will include bibliographic, chemical, 
# crystal, experimental, refinement or atomic coordinate data resulting 
# from the CCDC's data processing and validation procedures.
#
#######################################################################

data_XIPTIA
_symmetry_cell_setting           monoclinic
_symmetry_space_group_name_H-M   'P 21/n'
_symmetry_Int_Tables_number      14
_space_group_name_Hall           '-P 2yn'
loop_
_symmetry_equiv_pos_site_id
_symmetry_equiv_pos_as_xyz
1 x,y,z
2 1/2-x,1/2+y,1/2-z
3 -x,-y,-z
4 1/2+x,1/2-y,1/2+z
_cell_length_a                   7.6216(19)
_cell_length_b                   9.833(3)
_cell_length_c                   14.762(4)
_cell_angle_alpha                90
_cell_angle_beta                 98.191(19)
_cell_angle_gamma                90
_cell_volume                     1095.03
loop_
_atom_site_label
_atom_site_type_symbol
_atom_site_fract_x
_atom_site_fract_y
_atom_site_fract_z
Dy1 Dy 0.35057(3) -0.54507(2) -0.360890(13)
O1 O 0.0195(5) -0.8083(4) 0.0678(2)
O2 O 0.0934(5) -0.8438(3) -0.0707(2)
O3 O 0.3042(5) -0.4219(4) -0.2319(2)
O4 O 0.3332(4) -0.2353(3) -0.1473(2)
O5 O 0.4469(5) 0.0471(4) -0.1150(3)
O6 O 0.7043(4) 0.0628(3) -0.0204(2)
O7 O 0.0162(6) -0.1851(4) -0.2673(3)
O8 O -0.1565(5) 0.0301(4) -0.1880(3)
N1 N 0.3069(6) -0.4489(4) 0.0896(3)
C1 C 0.2246(7) -0.5691(5) 0.0842(3)
H1 H 0.2006 -0.6103 0.1378
C2 C 0.1729(6) -0.6356(5) 0.0007(3)
C3 C 0.2030(7) -0.5715(5) -0.0794(3)
H2 H 0.1729 -0.6141 -0.1357
C4 C 0.2796(6) -0.4415(5) -0.0741(3)
C5 C 0.3302(6) -0.3864(5) 0.0117(3)
H3 H 0.3834 -0.3011 0.0155
C6 C 0.0877(6) -0.7731(5) -0.0007(3)
C7 C 0.3068(6) -0.3624(5) -0.1576(3)
C8 C 0.5428(7) 0.0308(5) -0.0390(3)
H4 H 0.041(10) -0.250(8) -0.290(5)
H5 H -0.065(9) -0.157(7) -0.315(5)
H6 H -0.207(11) -0.034(9) -0.205(6)
H7 H -0.197(18) 0.058(13) -0.117(9)
Dy1C Dy -0.14943(3) -0.95493(2) 0.139110(13)
Dy1A Dy 0.14943(3) -1.04507(2) -0.139110(13)
Dy1B Dy 0.64943(3) -0.45493(2) -0.639110(13)
Dy1A_2 Dy 0.14943(3) -0.04507(2) -0.139110(13)
Dy1C_2 Dy 0.85057(3) 0.04507(2) 0.139110(13)
Dy1_2 Dy 0.35057(3) 0.45493(2) -0.360890(13)
O1C O 0.5195(5) -0.6917(4) -0.4322(2)
O1A O 0.4805(5) -0.3083(4) -0.5678(2)
O1B O -0.0195(5) -0.1917(4) -0.0678(2)
O2A O 0.4066(5) -0.3438(3) -0.4293(2)
O2_2 O 0.0934(5) 0.1562(3) -0.0707(2)
O3A O 0.1958(5) 0.0781(4) -0.2681(2)
O4A O 0.1668(4) -0.7353(3) -0.3527(2)
O4A_2 O 0.1668(4) 0.2647(3) -0.3527(2)
O5B O 0.5531(5) -0.0471(4) 0.1150(3)
O5A O 0.0531(5) -0.4529(4) -0.3850(3)
O6B O 0.2957(4) -0.0628(3) 0.0204(2)
O6C O 0.2043(4) -0.5628(3) -0.5204(2)
O7A O 0.4838(6) -0.6851(4) -0.2327(3)
O8A O 0.6565(5) -0.4699(4) -0.3120(3)
N1A N 0.1931(6) 0.0511(4) -0.5896(3)
C1A C 0.2754(7) -0.0691(5) -0.5842(3)
H1A H 0.2994 -0.1103 -0.6378
C2A C 0.3271(6) -0.1356(5) -0.5007(3)
C3A C 0.2970(7) -0.0715(5) -0.4206(3)
H2A H 0.3271 -0.1141 -0.3643
C4A C 0.2204(6) 0.0585(5) -0.4259(3)
C5A C 0.1698(6) 0.1136(5) -0.5117(3)
H3A H 0.1166 0.1989 -0.5155
C6A C 0.4123(6) -0.2731(5) -0.4993(3)
C7A C 0.1932(6) 0.1376(5) -0.3424(3)
C8B C 0.4572(7) -0.0308(5) 0.0390(3)
H4A H 0.459(10) -0.750(8) -0.210(5)
H5A H 0.565(9) -0.657(7) -0.185(5)
H6A H 0.707(11) -0.534(9) -0.295(6)
H7A H 0.697(18) -0.442(13) -0.383(9)
O9 O 0.1095(6) -1.3311(5) -0.7479(3)
H8 H 0.004(11) -1.301(9) -0.710(6)
H9 H 0.154(15) -1.253(12) -0.787(8)
loop_
_geom_bond_atom_site_label_1
_geom_bond_atom_site_label_2
_geom_bond_site_symmetry_1
_geom_bond_site_symmetry_2
Dy1 O3 1_555 1_555
O1 C6 1_555 1_555
O2 C6 1_555 1_555
O3 C7 1_555 1_555
O4 C7 1_555 1_555
O5 C8 1_555 1_555
O6 C8 1_555 1_555
O7 H4 1_555 1_555
O8 H6 1_555 1_555
O9 H8 1_555 1_555
N1 C1 1_555 1_555
C1 H1 1_555 1_555
C2 C1 1_555 1_555
C3 C2 1_555 1_555
H2 C3 1_555 1_555
C4 C3 1_555 1_555
C5 N1 1_555 1_555
H3 C5 1_555 1_555
C6 C2 1_555 1_555
C7 C4 1_555 1_555
C8 C8B 1_555 1_555
H5 O7 1_555 1_555
H7 O8 1_555 1_555
H9 O9 1_555 1_555
Dy1C O1 1_555 1_555
Dy1A O2 1_555 1_555
Dy1B O1A 1_555 1_555
Dy1A_2 O4 1_555 1_555
Dy1C_2 O6 1_555 1_555
Dy1_2 O4A_2 1_555 1_555
O1C Dy1 1_555 1_555
O1A C6A 1_555 1_555
O1B Dy1A_2 1_555 1_555
O2A Dy1 1_555 1_555
O2_2 Dy1A_2 1_555 1_555
O3A Dy1A_2 1_555 1_555
O4A Dy1 1_555 1_555
O4A_2 C7A 1_555 1_555
O5B Dy1C_2 1_555 1_555
O5A Dy1 1_555 1_555
O6B Dy1A_2 1_555 1_555
O6C Dy1 1_555 1_555
O7A Dy1 1_555 1_555
O8A Dy1 1_555 1_555
N1A C1A 1_555 1_555
C1A H1A 1_555 1_555
C2A C1A 1_555 1_555
C3A C2A 1_555 1_555
H2A C3A 1_555 1_555
C4A C3A 1_555 1_555
C5A N1A 1_555 1_555
H3A C5A 1_555 1_555
C6A O2A 1_555 1_555
C7A O3A 1_555 1_555
C8B O5B 1_555 1_555
H4A O7A 1_555 1_555
H5A O7A 1_555 1_555
H6A O8A 1_555 1_555
H7A O8A 1_555 1_555
O5 Dy1A_2 1_555 1_555
O7 Dy1A_2 1_555 1_555
O8 Dy1A_2 1_555 1_555
C4 C5 1_555 1_555
O6B C8B 1_555 1_555
C2A C6A 1_555 1_555
C4A C5A 1_555 1_555
C4A C7A 1_555 1_555

#END
