
#######################################################################
#
#                 Cambridge Crystallographic Data Centre
#                                CCDC 
#
#######################################################################
#
# If this CIF has been generated from an entry in the Cambridge 
# Structural Database, then it will include bibliographic, chemical, 
# crystal, experimental, refinement or atomic coordinate data resulting 
# from the CCDC's data processing and validation procedures.
#
#######################################################################

data_XIPTIB
_symmetry_cell_setting           orthorhombic
_symmetry_space_group_name_H-M   'P m n a'
_symmetry_Int_Tables_number      53
_space_group_name_Hall           '-P 2ac 2'
loop_
_symmetry_equiv_pos_site_id
_symmetry_equiv_pos_as_xyz
1 x,y,z
2 1/2-x,-y,1/2+z
3 x,-y,-z
4 1/2-x,y,1/2-z
5 -x,-y,-z
6 1/2+x,y,1/2-z
7 -x,y,z
8 1/2+x,-y,1/2+z
_cell_length_a                   13.5994(5)
_cell_length_b                   9.9972(5)
_cell_length_c                   14.0444(7)
_cell_angle_alpha                90
_cell_angle_beta                 90
_cell_angle_gamma                90
_cell_volume                     1909.42
loop_
_atom_site_label
_atom_site_type_symbol
_atom_site_fract_x
_atom_site_fract_y
_atom_site_fract_z
Ag1 Ag 0.5000 0.33364(6) 0.93987(4)
O1 O 0.14475(19) 0.1017(2) 0.90950(19)
C1 C 0.1093(2) 0.1892(3) 0.8342(2)
H1 H 0.1664 0.2255 0.8002
O2 O 0.5000 0.5665(6) 0.8855(4)
C2 C 0.0566(2) 0.3052(3) 0.8841(2)
H2 H 0.0806 0.3903 0.8584
C3 C 0.0514(2) 0.1048(3) 0.7659(2)
C4 C 0.1709(3) 0.1876(3) 0.9857(3)
H3 H 0.1726 0.1367 1.0453
C5 C 0.1011(3) 0.0231(5) 0.7027(3)
H4 H 0.1695 0.0233 0.7021
C6 C 0.0000 0.2358(6) 1.0422(4)
H5 H 0.0000 0.1388 1.0405
H6 H 0.0000 0.2646 1.1082
N1 N 0.3464(3) 0.2818(4) 0.9490(3)
C7 C 0.2697(3) 0.2446(4) 0.9661(3)
C8 C 0.0899(2) 0.2912(3) 0.9901(3)
H7 H 0.1126 0.3763 1.0170
C9 C 0.0505(4) -0.0590(5) 0.6401(4)
H8 H 0.0848 -0.1139 0.5982
H9 H 0.454(4) 0.580(6) 0.856(4)
O1F O -0.14475(19) 0.1017(2) 0.90950(19)
C1F C -0.1093(2) 0.1892(3) 0.8342(2)
H1F H -0.1664 0.2255 0.8002
C2F C -0.0566(2) 0.3052(3) 0.8841(2)
H2F H -0.0806 0.3903 0.8584
C3F C -0.0514(2) 0.1048(3) 0.7659(2)
C4F C -0.1709(3) 0.1876(3) 0.9857(3)
H3F H -0.1726 0.1367 1.0453
C5F C -0.1011(3) 0.0231(5) 0.7027(3)
H4F H -0.1695 0.0233 0.7021
N1F N -0.3464(3) 0.2818(4) 0.9490(3)
C7F C -0.2697(3) 0.2446(4) 0.9661(3)
C8F C -0.0899(2) 0.2912(3) 0.9901(3)
H7F H -0.1126 0.3763 1.0170
C9F C -0.0505(4) -0.0590(5) 0.6401(4)
H8F H -0.0848 -0.1139 0.5982
H9F H 0.546(4) 0.580(6) 0.856(4)
Ag1_2 Ag -0.5000 0.33364(6) 0.93987(4)
Ag1B Ag 0.5000 0.66636(6) 1.06013(4)
O2B O 0.5000 0.4335(6) 1.1145(4)
N1F_2 N 0.6536(3) 0.2818(4) 0.9490(3)
P1 P 0.2500 0.61670(17) 0.7500
F1 F 0.1355(3) 0.6135(5) 0.7711(3)
F2 F 0.2632(5) 0.5119(10) 0.8214(8)
F3 F 0.2644(5) 0.7147(12) 0.8253(6)
F1C F 0.3645(3) 0.6135(5) 0.7289(3)
F2C F 0.2368(5) 0.5119(10) 0.6786(8)
F3C F 0.2356(5) 0.7147(12) 0.6747(6)
loop_
_geom_bond_atom_site_label_1
_geom_bond_atom_site_label_2
_geom_bond_site_symmetry_1
_geom_bond_site_symmetry_2
Ag1 O2 1_555 1_555
O1 C1 1_555 1_555
C1 H1 1_555 1_555
O2 H9 1_555 1_555
C2 C1 1_555 1_555
H2 C2 1_555 1_555
C3 C1 1_555 1_555
C4 O1 1_555 1_555
H3 C4 1_555 1_555
C5 C3 1_555 1_555
H4 C5 1_555 1_555
C6 H5 1_555 1_555
H6 C6 1_555 1_555
N1 Ag1 1_555 1_555
C7 C4 1_555 1_555
C8 C2 1_555 1_555
H7 C8 1_555 1_555
C9 C5 1_555 1_555
H8 C9 1_555 1_555
P1 F1 1_555 1_555
F2 P1 1_555 1_555
F3 P1 1_555 1_555
O1F C1F 1_555 1_555
C1F H1F 1_555 1_555
C2F C2 1_555 1_555
H2F C2F 1_555 1_555
C3F C3 1_555 1_555
C4F O1F 1_555 1_555
H3F C4F 1_555 1_555
C5F C3F 1_555 1_555
H4F C5F 1_555 1_555
N1F C7F 1_555 1_555
C7F C4F 1_555 1_555
C8F C6 1_555 1_555
H7F C8F 1_555 1_555
C9F C9 1_555 1_555
H8F C9F 1_555 1_555
H9F O2 1_555 1_555
Ag1_2 N1F 1_555 1_555
Ag1B O2 1_555 1_555
O2B Ag1 1_555 1_555
N1F_2 Ag1 1_555 1_555
F1C P1 1_555 1_555
F2C P1 1_555 1_555
F3C P1 1_555 1_555
C4 C8 1_555 1_555
C6 C8 1_555 1_555
N1 C7 1_555 1_555
C1F C2F 1_555 1_555
C1F C3F 1_555 1_555
C2F C8F 1_555 1_555
C4F C8F 1_555 1_555
C5F C9F 1_555 1_555
Ag1B O2B 1_555 1_555

#END
