
#######################################################################
#
#                 Cambridge Crystallographic Data Centre
#                                CCDC 
#
#######################################################################
#
# If this CIF has been generated from an entry in the Cambridge 
# Structural Database, then it will include bibliographic, chemical, 
# crystal, experimental, refinement or atomic coordinate data resulting 
# from the CCDC's data processing and validation procedures.
#
#######################################################################

data_XIPTEX
_symmetry_cell_setting           monoclinic
_symmetry_space_group_name_H-M   'P 21/c'
_symmetry_Int_Tables_number      14
_space_group_name_Hall           '-P 2ybc'
loop_
_symmetry_equiv_pos_site_id
_symmetry_equiv_pos_as_xyz
1 x,y,z
2 -x,1/2+y,1/2-z
3 -x,-y,-z
4 x,1/2-y,1/2+z
_cell_length_a                   11.3548(5)
_cell_length_b                   20.4728(7)
_cell_length_c                   12.5381(4)
_cell_angle_alpha                90
_cell_angle_beta                 95.9590(10)
_cell_angle_gamma                90
_cell_volume                     2898.91
loop_
_atom_site_label
_atom_site_type_symbol
_atom_site_fract_x
_atom_site_fract_y
_atom_site_fract_z
Ag1 Ag 0.88910(4) 0.745347(17) 0.90356(3)
C1 C 0.8876(5) 1.1296(2) 1.3138(4)
H1 H 0.8585 1.1638 1.2631
C2 C 0.8213(5) 1.0321(3) 1.3841(4)
H2 H 0.8413 1.0275 1.4617
C3 C 0.7107(6) 0.9925(3) 1.3493(7)
H3 H 0.6553 0.9969 1.4029
H4 H 0.6731 1.0099 1.2823
C4 C 0.7370(8) 0.9234(4) 1.3353(6)
H5 H 0.6637 0.8991 1.3220
H6 H 0.7801 0.9066 1.4003
C5 C 0.8084(6) 0.9145(3) 1.2445(5)
H7 H 0.8332 0.8687 1.2437
C6 C 0.8161(5) 0.9474(2) 1.0690(4)
H8 H 0.7746 0.9744 1.0126
C7 C 0.9124(4) 0.9870(2) 1.1332(3)
H9 H 0.9883 0.9825 1.1031
C8 C 0.8816(4) 1.0582(2) 1.1470(3)
H10 H 0.7968 1.0640 1.1468
H11 H 0.9093 1.0847 1.0906
C9 C 0.9463(4) 1.0758(2) 1.2559(4)
H12 H 1.0302 1.0852 1.2508
C10 C 0.9303(4) 1.0154(2) 1.3262(4)
H13 H 0.9999 1.0096 1.3785
C11 C 0.9190(5) 0.9570(2) 1.2467(4)
H14 H 0.9897 0.9294 1.2588
C12 C 0.8676(6) 0.8893(3) 1.0215(5)
C13 C 0.9733(6) 1.1574(3) 1.3995(5)
C14 C 0.7271(4) 0.7912(3) 0.6800(4)
C15 C 0.5929(5) 0.7089(2) 0.5196(4)
H15 H 0.6322 0.6769 0.5694
C16 C 0.5587(5) 0.6757(3) 0.4124(5)
H16 H 0.5606 0.7076 0.3554
H17 H 0.6165 0.6421 0.4015
C17 C 0.4377(5) 0.6454(3) 0.4056(5)
H18 H 0.4343 0.6143 0.4636
H19 H 0.4223 0.6220 0.3383
C18 C 0.3446(4) 0.6974(2) 0.4127(4)
H20 H 0.2668 0.6766 0.4115
C19 C 0.2991(4) 0.8006(2) 0.3470(4)
H21 H 0.3279 0.8352 0.3023
C20 C 0.3440(4) 0.8122(2) 0.4655(3)
H22 H 0.2860 0.8362 0.5030
C21 C 0.4658(4) 0.8448(2) 0.4801(4)
H23 H 0.4582 0.8916 0.4891
H24 H 0.5091 0.8365 0.4187
C22 C 0.5284(4) 0.8135(2) 0.5816(4)
H25 H 0.5078 0.8346 0.6473
C23 C 0.6613(4) 0.8100(2) 0.5762(3)
H26 H 0.6911 0.8515 0.5507
C24 C 0.4891(5) 0.7418(2) 0.5738(4)
H27 H 0.4851 0.7237 0.6457
C25 C 0.3640(4) 0.7426(2) 0.5109(4)
H28 H 0.3046 0.7330 0.5601
C26 C 0.1676(5) 0.7972(3) 0.3305(4)
N1 N 0.7783(4) 0.7720(3) 0.7556(4)
N2 N 0.9098(5) 0.8450(3) 0.9869(5)
N3 N 1.0412(5) 1.1762(3) 1.4653(4)
N4 N 0.0692(5) 0.7898(3) 0.3174(5)
O1 O 0.7939(3) 1.10062(19) 1.3584(3)
O2 O 0.7376(3) 0.9282(2) 1.1437(4)
O3 O 0.6755(3) 0.75987(17) 0.5022(3)
O4 O 0.3457(3) 0.73962(16) 0.3195(3)
Ag1A Ag 1.11090(4) 1.245347(17) 1.59644(3)
Ag1C Ag -0.11090(4) 0.754653(17) 0.40356(3)
N3A N 0.9588(5) 0.6762(3) 1.0347(4)
N4C N 1.0692(5) 0.7102(3) 0.8174(5)
F1 F 0.3880(7) -0.0593(3) 0.2490(8)
F2 F 0.2324(5) -0.0465(3) 0.3301(5)
F3 F 0.2104(6) 0.0059(8) 0.1815(6)
F4 F 0.2396(9) 0.0551(4) 0.3222(14)
F5 F 0.3988(8) 0.0154(9) 0.3504(13)
F6 F 0.3842(6) 0.0323(6) 0.1867(13)
P1 P 0.30847(17) -0.00268(10) 0.2625(2)
loop_
_geom_bond_atom_site_label_1
_geom_bond_atom_site_label_2
_geom_bond_site_symmetry_1
_geom_bond_site_symmetry_2
Ag1 N1 1_555 1_555
C1 H1 1_555 1_555
C2 H2 1_555 1_555
C3 C2 1_555 1_555
H3 C3 1_555 1_555
H4 C3 1_555 1_555
C4 C3 1_555 1_555
H5 C4 1_555 1_555
H6 C4 1_555 1_555
C5 C4 1_555 1_555
H7 C5 1_555 1_555
C6 H8 1_555 1_555
C7 C6 1_555 1_555
H9 C7 1_555 1_555
C8 C7 1_555 1_555
H10 C8 1_555 1_555
H11 C8 1_555 1_555
C9 C1 1_555 1_555
H12 C9 1_555 1_555
C10 C2 1_555 1_555
H13 C10 1_555 1_555
C11 C5 1_555 1_555
H14 C11 1_555 1_555
C12 C6 1_555 1_555
C13 C1 1_555 1_555
C14 C23 1_555 1_555
C15 H15 1_555 1_555
C16 C15 1_555 1_555
H16 C16 1_555 1_555
H17 C16 1_555 1_555
C17 C16 1_555 1_555
H18 C17 1_555 1_555
H19 C17 1_555 1_555
C18 C17 1_555 1_555
H20 C18 1_555 1_555
C19 H21 1_555 1_555
C20 C19 1_555 1_555
H22 C20 1_555 1_555
C21 C20 1_555 1_555
H23 C21 1_555 1_555
H24 C21 1_555 1_555
C22 C21 1_555 1_555
H25 C22 1_555 1_555
C23 C22 1_555 1_555
H26 C23 1_555 1_555
C24 C15 1_555 1_555
H27 C24 1_555 1_555
C25 C18 1_555 1_555
H28 C25 1_555 1_555
C26 C19 1_555 1_555
N1 C14 1_555 1_555
N2 Ag1 1_555 1_555
N3 C13 1_555 1_555
N4 C26 1_555 1_555
O1 C1 1_555 1_555
O2 C5 1_555 1_555
O3 C15 1_555 1_555
O4 C18 1_555 1_555
F1 P1 1_555 1_555
F2 P1 1_555 1_555
F3 P1 1_555 1_555
F4 P1 1_555 1_555
F5 P1 1_555 1_555
F6 P1 1_555 1_555
Ag1A N3 1_555 1_555
Ag1C N4 1_555 1_555
N3A Ag1 1_555 1_555
N4C Ag1 1_555 1_555
C2 O1 1_555 1_555
C6 O2 1_555 1_555
C7 C11 1_555 1_555
C8 C9 1_555 1_555
C9 C10 1_555 1_555
C10 C11 1_555 1_555
C12 N2 1_555 1_555
C19 O4 1_555 1_555
C20 C25 1_555 1_555
C22 C24 1_555 1_555
C23 O3 1_555 1_555
C24 C25 1_555 1_555

#END
