
#######################################################################
#
#                 Cambridge Crystallographic Data Centre
#                                CCDC 
#
#######################################################################
#
# If this CIF has been generated from an entry in the Cambridge 
# Structural Database, then it will include bibliographic, chemical, 
# crystal, experimental, refinement or atomic coordinate data resulting 
# from the CCDC's data processing and validation procedures.
#
#######################################################################

data_XIPTAS
_symmetry_cell_setting           monoclinic
_symmetry_space_group_name_H-M   'P 21/n'
_symmetry_Int_Tables_number      14
_space_group_name_Hall           '-P 2yn'
loop_
_symmetry_equiv_pos_site_id
_symmetry_equiv_pos_as_xyz
1 x,y,z
2 1/2-x,1/2+y,1/2-z
3 -x,-y,-z
4 1/2+x,1/2-y,1/2+z
_cell_length_a                   7.6668(6)
_cell_length_b                   9.8734(11)
_cell_length_c                   14.9050(10)
_cell_angle_alpha                90
_cell_angle_beta                 98.365(9)
_cell_angle_gamma                90
_cell_volume                     1116.27
loop_
_atom_site_label
_atom_site_type_symbol
_atom_site_fract_x
_atom_site_fract_y
_atom_site_fract_z
Sm1 Sm 0.14657(2) 0.044287(19) 0.860303(12)
O1 O 0.3341(4) 0.2366(3) 0.85379(18)
O2 O 0.3038(4) 0.4230(3) 0.77049(19)
O3 O 0.0238(4) 0.8051(3) 1.06730(19)
O4 O 0.0893(4) 0.8396(3) 0.9290(2)
O5 O 0.4474(4) -0.0503(3) 0.8869(2)
O6 O 0.7032(4) -0.0621(3) 0.9795(2)
O7 O 0.0124(5) 0.1879(4) 0.7312(2)
O8 O -0.1622(4) -0.0316(3) 0.8112(2)
N1 N 0.3075(6) 0.4475(3) 1.0895(3)
C1 C 0.3308(6) 0.3862(4) 1.0122(3)
H1 H 0.3851 0.3017 1.0158
C2 C 0.2787(6) 0.4414(4) 0.9264(3)
C3 C 0.2039(5) 0.5698(4) 0.9211(3)
H2 H 0.1746 0.6126 0.8654
C4 C 0.1739(5) 0.6326(4) 1.0005(3)
C5 C 0.2264(6) 0.5683(4) 1.0835(3)
H3 H 0.2044 0.6106 1.1364
C6 C 0.3080(5) 0.3632(4) 0.8441(3)
C7 C 0.0888(5) 0.7695(4) 0.9991(3)
C8 C 0.5435(5) -0.0313(4) 0.9611(3)
H4 H 0.040(8) 0.259(7) 0.717(4)
H5 H -0.060(9) 0.153(7) 0.693(5)
H6 H -0.233(11) 0.033(8) 0.785(6)
H7 H -0.200(8) -0.069(6) 0.860(4)
Sm1A Sm 0.35343(2) -0.455713(19) 0.639697(12)
Sm1A_2 Sm 0.35343(2) 0.544287(19) 0.639697(12)
Sm1B Sm -0.14657(2) 0.955713(19) 1.139697(12)
Sm1_2 Sm 0.14657(2) 1.044287(19) 0.860303(12)
Sm1B_2 Sm 0.85343(2) -0.044287(19) 1.139697(12)
Sm1C Sm 0.64657(2) 0.455713(19) 0.360303(12)
O1A O 0.1659(4) -0.2634(3) 0.64621(18)
O1A_2 O 0.1659(4) 0.7366(3) 0.64621(18)
O2A O 0.1962(4) -0.0770(3) 0.72951(19)
O3A O 0.4762(4) 0.3051(3) 0.43270(19)
O3B O -0.0238(4) 0.1949(3) 0.93270(19)
O3C O 0.5238(4) 0.6949(3) 0.56730(19)
O4A O 0.4107(4) 0.3396(3) 0.5710(2)
O4_2 O 0.0893(4) -0.1604(3) 0.9290(2)
O5B O 0.5526(4) 0.0503(3) 1.1131(2)
O5A O 0.0526(4) 0.4497(3) 0.6131(2)
O6B O 0.2968(4) 0.0621(3) 1.0205(2)
O6C O 0.2032(4) 0.5621(3) 0.4795(2)
O7A O 0.4876(5) 0.6879(4) 0.7688(2)
O8A O 0.6622(4) 0.4684(3) 0.6888(2)
N1A N 0.1925(6) -0.0525(3) 0.4105(3)
C1A C 0.1692(6) -0.1138(4) 0.4878(3)
H1A H 0.1149 -0.1983 0.4842
C2A C 0.2213(6) -0.0586(4) 0.5736(3)
C3A C 0.2961(5) 0.0698(4) 0.5789(3)
H2A H 0.3254 0.1126 0.6346
C4A C 0.3261(5) 0.1326(4) 0.4995(3)
C5A C 0.2736(6) 0.0683(4) 0.4165(3)
H3A H 0.2956 0.1106 0.3636
C6A C 0.1920(5) -0.1368(4) 0.6559(3)
C7A C 0.4112(5) 0.2695(4) 0.5009(3)
C8B C 0.4565(5) 0.0313(4) 1.0389(3)
H4A H 0.460(8) 0.759(7) 0.783(4)
H5A H 0.560(9) 0.653(7) 0.807(5)
H6A H 0.733(11) 0.533(8) 0.715(6)
H7A H 0.700(8) 0.431(6) 0.640(4)
O9 O 0.1070(5) 0.3326(4) 0.2517(3)
H8 H 0.039(13) 0.293(10) 0.289(6)
H9 H 0.136(11) 0.259(9) 0.219(6)
loop_
_geom_bond_atom_site_label_1
_geom_bond_atom_site_label_2
_geom_bond_site_symmetry_1
_geom_bond_site_symmetry_2
Sm1 O1 1_555 1_555
O1 C6 1_555 1_555
O2 C6 1_555 1_555
O3 C7 1_555 1_555
O4 C7 1_555 1_555
O5 Sm1 1_555 1_555
O6 C8 1_555 1_555
O7 Sm1 1_555 1_555
O8 Sm1 1_555 1_555
O9 H8 1_555 1_555
N1 C1 1_555 1_555
C1 H1 1_555 1_555
C2 C1 1_555 1_555
C3 C2 1_555 1_555
H2 C3 1_555 1_555
C4 C3 1_555 1_555
C5 N1 1_555 1_555
H3 C5 1_555 1_555
C6 C2 1_555 1_555
C7 C4 1_555 1_555
C8 O5 1_555 1_555
H4 O7 1_555 1_555
H5 O7 1_555 1_555
H6 O8 1_555 1_555
H7 O8 1_555 1_555
H9 O9 1_555 1_555
Sm1A O1A 1_555 1_555
Sm1A_2 O2 1_555 1_555
Sm1B O3 1_555 1_555
Sm1_2 O4 1_555 1_555
Sm1B_2 O6 1_555 1_555
Sm1C O3A 1_555 1_555
O1A C6A 1_555 1_555
O1A_2 Sm1A_2 1_555 1_555
O2A Sm1 1_555 1_555
O3A C7A 1_555 1_555
O3B Sm1 1_555 1_555
O3C Sm1A_2 1_555 1_555
O4A Sm1A_2 1_555 1_555
O4_2 Sm1 1_555 1_555
O5B Sm1B_2 1_555 1_555
O5A Sm1A_2 1_555 1_555
O6B Sm1 1_555 1_555
O6C Sm1A_2 1_555 1_555
O7A Sm1A_2 1_555 1_555
O8A Sm1A_2 1_555 1_555
N1A C1A 1_555 1_555
C1A H1A 1_555 1_555
C2A C1A 1_555 1_555
C3A C2A 1_555 1_555
H2A C3A 1_555 1_555
C4A C3A 1_555 1_555
C5A N1A 1_555 1_555
H3A C5A 1_555 1_555
C6A O2A 1_555 1_555
C7A O4A 1_555 1_555
C8B C8 1_555 1_555
H4A O7A 1_555 1_555
H5A O7A 1_555 1_555
H6A O8A 1_555 1_555
H7A O8A 1_555 1_555
C4 C5 1_555 1_555
O5B C8B 1_555 1_555
O6B C8B 1_555 1_555
C2A C6A 1_555 1_555
C4A C5A 1_555 1_555
C4A C7A 1_555 1_555

#END
