
#######################################################################
#
#                 Cambridge Crystallographic Data Centre
#                                CCDC 
#
#######################################################################
#
# If this CIF has been generated from an entry in the Cambridge 
# Structural Database, then it will include bibliographic, chemical, 
# crystal, experimental, refinement or atomic coordinate data resulting 
# from the CCDC's data processing and validation procedures.
#
#######################################################################

data_XIPVOI
_symmetry_cell_setting           monoclinic
_symmetry_space_group_name_H-M   'C 2/c'
_symmetry_Int_Tables_number      15
_space_group_name_Hall           '-C 2yn'
loop_
_symmetry_equiv_pos_site_id
_symmetry_equiv_pos_as_xyz
1 x,y,z
2 1/2+x,1/2+y,z
3 -x,y,1/2-z
4 1/2-x,1/2+y,1/2-z
5 -x,-y,-z
6 1/2-x,1/2-y,-z
7 x,-y,1/2+z
8 1/2+x,1/2-y,1/2+z
_cell_length_a                   34.493(4)
_cell_length_b                   5.9210(7)
_cell_length_c                   18.570(2)
_cell_angle_alpha                90
_cell_angle_beta                 121.5660(10)
_cell_angle_gamma                90
_cell_volume                     3231.44
loop_
_atom_site_label
_atom_site_type_symbol
_atom_site_fract_x
_atom_site_fract_y
_atom_site_fract_z
Hg1 Hg 0.035764(9) 0.19728(4) 0.380819(15)
S1 S 0.07217(6) 0.0340(3) 0.31260(11)
S2 S -0.02700(6) 0.4049(3) 0.37152(13)
N1 N 0.09075(18) 0.2493(8) 0.5306(3)
N2 N 0.1749(2) 0.6437(9) 0.8155(3)
N3 N 0.1928(2) 0.6337(10) 0.9028(3)
N4 N 0.2271(2) 0.1679(12) 1.1610(4)
N5 N 0.0762(2) -0.4225(10) 0.3559(4)
N6 N 0.0129(2) 0.8327(10) 0.4219(4)
O1 O 0.16803(14) 0.2938(7) 0.8499(2)
C1 C 0.0933(2) 0.1092(11) 0.5889(4)
H1 H 0.0780 -0.0279 0.5710
C2 C 0.1180(2) 0.1560(11) 0.6761(4)
H2 H 0.1201 0.0520 0.7155
C3 C 0.13886(19) 0.3657(10) 0.7000(4)
C4 C 0.1373(2) 0.5099(11) 0.6406(4)
H3 H 0.1523 0.6482 0.6564
C5 C 0.1129(2) 0.4445(11) 0.5564(4)
H4 H 0.1120 0.5418 0.5162
C6 C 0.1614(2) 0.4428(11) 0.7883(4)
C7 C 0.18851(19) 0.4287(11) 0.9195(4)
C8 C 0.20169(19) 0.3327(11) 1.0018(4)
C9 C 0.1884(2) 0.1220(12) 1.0106(4)
H5 H 0.1707 0.0304 0.9638
C10 C 0.2021(3) 0.0504(13) 1.0910(5)
H6 H 0.1930 -0.0930 1.0966
C11 C 0.2285(2) 0.4600(12) 1.0728(4)
H7 H 0.2387 0.6022 1.0689
C12 C 0.2399(2) 0.3706(15) 1.1503(4)
H8 H 0.2576 0.4583 1.1982
C13 C 0.0732(2) -0.2371(10) 0.3371(4)
C14 C -0.0028(2) 0.6561(10) 0.4007(4)
Hg1_2 Hg 0.035764(9) -0.80272(4) 0.380819(15)
Hg1_3 Hg 0.035764(9) 1.19728(4) 0.380819(15)
N5_2 N 0.0762(2) 0.5775(10) 0.3559(4)
N6_2 N 0.0129(2) -0.1673(10) 0.4219(4)
loop_
_geom_bond_atom_site_label_1
_geom_bond_atom_site_label_2
_geom_bond_site_symmetry_1
_geom_bond_site_symmetry_2
Hg1 S1 1_555 1_555
S1 C13 1_555 1_555
S2 Hg1 1_555 1_555
N1 Hg1 1_555 1_555
N2 N3 1_555 1_555
N3 C7 1_555 1_555
N4 C10 1_555 1_555
N5 C13 1_555 1_555
N6 C14 1_555 1_555
O1 C6 1_555 1_555
C1 N1 1_555 1_555
H1 C1 1_555 1_555
C2 C1 1_555 1_555
H2 C2 1_555 1_555
C3 C2 1_555 1_555
C4 C3 1_555 1_555
H3 C4 1_555 1_555
C5 N1 1_555 1_555
H4 C5 1_555 1_555
C6 N2 1_555 1_555
C7 O1 1_555 1_555
C8 C7 1_555 1_555
C9 C8 1_555 1_555
H5 C9 1_555 1_555
C10 C9 1_555 1_555
H6 C10 1_555 1_555
C11 C8 1_555 1_555
H7 C11 1_555 1_555
C12 N4 1_555 1_555
H8 C12 1_555 1_555
C14 S2 1_555 1_555
Hg1_2 N5 1_555 1_555
Hg1_3 N6 1_555 1_555
N5_2 Hg1 1_555 1_555
N6_2 Hg1 1_555 1_555
C3 C6 1_555 1_555
C4 C5 1_555 1_555
C11 C12 1_555 1_555

#END
