
#######################################################################
#
#                 Cambridge Crystallographic Data Centre
#                                CCDC 
#
#######################################################################
#
# If this CIF has been generated from an entry in the Cambridge 
# Structural Database, then it will include bibliographic, chemical, 
# crystal, experimental, refinement or atomic coordinate data resulting 
# from the CCDC's data processing and validation procedures.
#
#######################################################################

data_XIPWEZ
_symmetry_cell_setting           monoclinic
_symmetry_space_group_name_H-M   'P 21/c'
_symmetry_Int_Tables_number      14
_space_group_name_Hall           '-P 2ybc'
loop_
_symmetry_equiv_pos_site_id
_symmetry_equiv_pos_as_xyz
1 x,y,z
2 -x,1/2+y,1/2-z
3 -x,-y,-z
4 x,1/2-y,1/2+z
_cell_length_a                   5.9134(8)
_cell_length_b                   18.776(2)
_cell_length_c                   13.2924(17)
_cell_angle_alpha                90
_cell_angle_beta                 101.608(2)
_cell_angle_gamma                90
_cell_volume                     1445.67
loop_
_atom_site_label
_atom_site_type_symbol
_atom_site_fract_x
_atom_site_fract_y
_atom_site_fract_z
C1 C 0.3206(6) 0.42492(19) 0.2905(3)
H1 H 0.2111 0.4001 0.3208
C2 C 0.4875(6) 0.46491(19) 0.3527(3)
H2 H 0.4947 0.4668 0.4247
C3 C 0.6468(6) 0.50282(18) 0.3083(3)
C4 C 0.6314(6) 0.49796(19) 0.2028(3)
H3 H 0.7357 0.5232 0.1700
C5 C 0.4600(6) 0.45537(19) 0.1467(3)
H4 H 0.4510 0.4513 0.0748
C6 C 0.8155(6) 0.54643(18) 0.3758(3)
C7 C 1.1003(6) 0.61564(17) 0.4263(3)
C8 C 1.2999(6) 0.65977(17) 0.4199(3)
C9 C 1.3970(6) 0.70186(19) 0.5043(3)
H5 H 1.3364 0.7013 0.5653
C10 C 1.5848(6) 0.74465(18) 0.4965(3)
H6 H 1.6520 0.7735 0.5534
C11 C 1.5801(6) 0.70574(18) 0.3306(3)
H7 H 1.6436 0.7073 0.2704
C12 C 1.3941(6) 0.66158(17) 0.3320(3)
H8 H 1.3316 0.6330 0.2741
Hg1 Hg 0.05740(2) 0.331987(6) 0.103886(9)
N1 N 0.3062(5) 0.41956(15) 0.1887(2)
N2 N 0.8191(5) 0.56043(15) 0.4720(2)
N3 N 1.0060(5) 0.60603(16) 0.5048(2)
N4 N 1.6747(5) 0.74662(15) 0.4112(2)
N5 N -0.1380(5) 0.29304(16) 0.2809(2)
N6 N -0.1111(6) 0.39570(19) -0.0933(2)
O1 O 0.9889(4) 0.57946(12) 0.34069(18)
O2 O 0.0527(5) 0.26654(15) 0.2777(2)
O3 O -0.2185(5) 0.33328(14) 0.2055(2)
O4 O 0.1008(5) 0.39224(16) -0.0613(2)
O5 O -0.2293(5) 0.36864(18) -0.0336(2)
Hg1A Hg 1.94260(2) 0.831987(6) 0.396114(9)
N4A N 0.3253(5) 0.24662(15) 0.0888(2)
loop_
_geom_bond_atom_site_label_1
_geom_bond_atom_site_label_2
_geom_bond_site_symmetry_1
_geom_bond_site_symmetry_2
C1 H1 1_555 1_555
C2 C1 1_555 1_555
H2 C2 1_555 1_555
C3 C2 1_555 1_555
C4 C3 1_555 1_555
H3 C4 1_555 1_555
C5 C4 1_555 1_555
H4 C5 1_555 1_555
C6 C3 1_555 1_555
C7 C8 1_555 1_555
C8 C9 1_555 1_555
C9 H5 1_555 1_555
C10 C9 1_555 1_555
H6 C10 1_555 1_555
C11 H7 1_555 1_555
C12 C8 1_555 1_555
H8 C12 1_555 1_555
Hg1 N1 1_555 1_555
N1 C1 1_555 1_555
N2 C6 1_555 1_555
N3 C7 1_555 1_555
N4 C10 1_555 1_555
N5 O2 1_555 1_555
N6 O4 1_555 1_555
O1 C6 1_555 1_555
O2 Hg1 1_555 1_555
O3 Hg1 1_555 1_555
O4 Hg1 1_555 1_555
O5 Hg1 1_555 1_555
Hg1A N4 1_555 1_555
N4A Hg1 1_555 1_555
C5 N1 1_555 1_555
C7 O1 1_555 1_555
C11 C12 1_555 1_555
C11 N4 1_555 1_555
N2 N3 1_555 1_555
N5 O3 1_555 1_555
N6 O5 1_555 1_555

#END
