
#######################################################################
#
#                 Cambridge Crystallographic Data Centre
#                                CCDC 
#
#######################################################################
#
# If this CIF has been generated from an entry in the Cambridge 
# Structural Database, then it will include bibliographic, chemical, 
# crystal, experimental, refinement or atomic coordinate data resulting 
# from the CCDC's data processing and validation procedures.
#
#######################################################################

data_XIQBUV
_symmetry_cell_setting           orthorhombic
_symmetry_space_group_name_H-M   'P 21 21 21'
_symmetry_Int_Tables_number      19
_space_group_name_Hall           'P 2ac 2ab'
loop_
_symmetry_equiv_pos_site_id
_symmetry_equiv_pos_as_xyz
1 x,y,z
2 1/2-x,-y,1/2+z
3 1/2+x,1/2-y,-z
4 -x,1/2+y,1/2-z
_cell_length_a                   8.0308(3)
_cell_length_b                   13.9735(6)
_cell_length_c                   19.0422(8)
_cell_angle_alpha                90
_cell_angle_beta                 90
_cell_angle_gamma                90
_cell_volume                     2136.88
loop_
_atom_site_label
_atom_site_type_symbol
_atom_site_fract_x
_atom_site_fract_y
_atom_site_fract_z
Y1 Y 0.27247(3) 0.214301(15) -0.006699(12)
O1 O 0.1615(2) 0.08926(12) 0.06278(9)
C1 C 0.0464(3) 0.13817(18) 0.08912(13)
O2 O 0.00730(19) 0.21808(13) 0.05918(8)
C2 C -0.0379(3) 0.11032(18) 0.15546(13)
O3 O 0.1298(2) 0.16951(12) -0.10388(9)
C3 C -0.0292(3) 0.01651(18) 0.18281(14)
O4 O -0.1126(2) 0.24368(13) -0.09507(9)
C4 C -0.1092(4) -0.00075(19) 0.24665(14)
H1 H -0.1058 -0.0633 0.2661
O5 O 0.2014(2) 0.36927(11) -0.01586(9)
C5 C -0.1930(4) 0.0704(2) 0.28236(14)
H2 H -0.2462 0.0564 0.3257
O6 O -0.0495(2) 0.40772(12) 0.02255(10)
C6 C -0.1996(4) 0.1627(2) 0.25502(13)
H3 H -0.2575 0.2119 0.2793
C7 C -0.1216(3) 0.1817(2) 0.19249(13)
H4 H -0.1247 0.2448 0.1740
C8 C 0.0561(3) -0.06540(19) 0.14636(15)
H5 H 0.0381 -0.1244 0.1731
H6 H 0.1758 -0.0523 0.1432
H7 H 0.0101 -0.0728 0.0990
C9 C -0.0062(3) 0.19783(17) -0.12963(13)
C10 C -0.0469(3) 0.1802(2) -0.20573(13)
C11 C 0.0187(4) 0.1042(2) -0.24428(16)
C12 C -0.0283(4) 0.0973(2) -0.31581(15)
H8 H 0.0138 0.0461 -0.3434
C13 C -0.1327(4) 0.1624(2) -0.34599(16)
H9 H -0.1611 0.1560 -0.3942
C14 C -0.1984(4) 0.2382(2) -0.30741(15)
H10 H -0.2709 0.2834 -0.3286
C15 C -0.1553(4) 0.2457(2) -0.23762(14)
H11 H -0.2001 0.2965 -0.2104
C16 C 0.1306(4) 0.0305(2) -0.21361(16)
H12 H 0.2379 0.0597 -0.2017
H13 H 0.1480 -0.0209 -0.2478
H14 H 0.0796 0.0041 -0.1711
C17 C 0.0988(3) 0.42776(16) 0.01008(13)
C18 C 0.1599(3) 0.52597(16) 0.02809(12)
C19 C 0.0517(3) 0.60238(17) 0.04285(13)
C20 C 0.1227(3) 0.69070(17) 0.05986(13)
H15 H 0.0515 0.7436 0.0690
C21 C 0.2927(3) 0.70358(18) 0.06382(13)
H16 H 0.3371 0.7643 0.0763
C22 C 0.3982(3) 0.6280(2) 0.04961(14)
H17 H 0.5154 0.6362 0.0526
C23 C 0.3321(3) 0.54058(18) 0.03108(13)
H18 H 0.4050 0.4892 0.0201
C24 C -0.1350(3) 0.59480(19) 0.04338(14)
H19 H -0.1702 0.5540 0.0825
H20 H -0.1730 0.5668 -0.0010
H21 H -0.1835 0.6587 0.0490
Y1B Y -0.22753(3) 0.285699(15) 0.006699(12)
O2B O 0.50730(19) 0.28192(13) -0.05918(8)
O4B O 0.3874(2) 0.25632(13) 0.09507(9)
O6B O 0.4505(2) 0.09228(12) -0.02255(10)
loop_
_geom_bond_atom_site_label_1
_geom_bond_atom_site_label_2
_geom_bond_site_symmetry_1
_geom_bond_site_symmetry_2
Y1 O1 1_555 1_555
O1 C1 1_555 1_555
C1 O2 1_555 1_555
O2 Y1 1_555 1_555
C2 C1 1_555 1_555
O3 Y1 1_555 1_555
C3 C2 1_555 1_555
O4 C9 1_555 1_555
C4 C3 1_555 1_555
H1 C4 1_555 1_555
O5 Y1 1_555 1_555
C5 C4 1_555 1_555
H2 C5 1_555 1_555
O6 C17 1_555 1_555
C6 C5 1_555 1_555
H3 C6 1_555 1_555
C7 C2 1_555 1_555
H4 C7 1_555 1_555
C8 C3 1_555 1_555
H5 C8 1_555 1_555
H6 C8 1_555 1_555
H7 C8 1_555 1_555
C9 O3 1_555 1_555
C10 C9 1_555 1_555
C11 C10 1_555 1_555
C12 C11 1_555 1_555
H8 C12 1_555 1_555
C13 C12 1_555 1_555
H9 C13 1_555 1_555
C14 C13 1_555 1_555
H10 C14 1_555 1_555
C15 C10 1_555 1_555
H11 C15 1_555 1_555
C16 C11 1_555 1_555
H12 C16 1_555 1_555
H13 C16 1_555 1_555
H14 C16 1_555 1_555
C17 O5 1_555 1_555
C18 C17 1_555 1_555
C19 C18 1_555 1_555
C20 C19 1_555 1_555
H15 C20 1_555 1_555
C21 C20 1_555 1_555
H16 C21 1_555 1_555
C22 C21 1_555 1_555
H17 C22 1_555 1_555
C23 C18 1_555 1_555
H18 C23 1_555 1_555
C24 C19 1_555 1_555
H19 C24 1_555 1_555
H20 C24 1_555 1_555
H21 C24 1_555 1_555
Y1B O2 1_555 1_555
O2B Y1 1_555 1_555
O4B Y1 1_555 1_555
O6B Y1 1_555 1_555
O4 Y1B 1_555 1_555
O6 Y1B 1_555 1_555
C6 C7 1_555 1_555
C14 C15 1_555 1_555
C22 C23 1_555 1_555

#END
