
#######################################################################
#
#                 Cambridge Crystallographic Data Centre
#                                CCDC 
#
#######################################################################
#
# If this CIF has been generated from an entry in the Cambridge 
# Structural Database, then it will include bibliographic, chemical, 
# crystal, experimental, refinement or atomic coordinate data resulting 
# from the CCDC's data processing and validation procedures.
#
#######################################################################

data_XIQCUW
_symmetry_cell_setting           triclinic
_symmetry_space_group_name_H-M   'P -1'
_symmetry_Int_Tables_number      2
_space_group_name_Hall           '-P 1'
loop_
_symmetry_equiv_pos_site_id
_symmetry_equiv_pos_as_xyz
1 x,y,z
2 -x,-y,-z
_cell_length_a                   8.2095(2)
_cell_length_b                   13.1346(3)
_cell_length_c                   13.1596(4)
_cell_angle_alpha                91.090(1)
_cell_angle_beta                 106.536(1)
_cell_angle_gamma                104.418(2)
_cell_volume                     1311.26
loop_
_atom_site_label
_atom_site_type_symbol
_atom_site_fract_x
_atom_site_fract_y
_atom_site_fract_z
Tb1 Tb 0.74903(3) -0.00158(2) 0.54138(2)
O1 O 0.9535(5) 0.1653(3) 0.5556(3)
N1 N 1.2308(6) 0.5622(4) 0.5829(4)
C1 C 1.0353(7) 0.1753(4) 0.4873(5)
O2 O 1.0426(5) 0.0959(3) 0.4335(3)
N2 N 1.1050(6) 0.3822(4) 0.8459(4)
C2 C 1.1246(7) 0.2831(4) 0.4683(5)
O3 O 1.1787(6) 0.5471(3) 0.6613(4)
N3 N 0.0754(7) -0.2451(4) 0.8887(4)
C3 C 1.1360(7) 0.3701(4) 0.5334(5)
H1 H 1.0884 0.3616 0.5916
O4 O 1.2890(6) 0.6501(3) 0.5566(4)
N4 N 1.1876(6) 0.0882(4) 0.8539(4)
C4 C 1.2177(7) 0.4697(4) 0.5126(5)
O5 O 0.5950(5) 0.1071(3) 0.5822(3)
C5 C 1.2892(8) 0.4860(5) 0.4301(5)
H2 H 1.3447 0.5553 0.4179
O6 O 0.3559(5) 0.1500(3) 0.5931(3)
C6 C 1.2786(8) 0.3986(5) 0.3646(5)
H3 H 1.3261 0.4078 0.3065
O7 O 1.1728(5) 0.3308(3) 0.8012(4)
C7 C 1.1985(7) 0.2978(4) 0.3844(5)
H4 H 1.1939 0.2382 0.3406
O8 O 1.1874(5) 0.4490(3) 0.9219(4)
C8 C 0.5207(7) 0.1663(4) 0.6205(4)
O9 O 0.6006(5) -0.1128(3) 0.6416(3)
C9 C 0.6315(6) 0.2572(4) 0.7005(4)
O10 O 0.3479(4) -0.0677(3) 0.6203(3)
C10 C 0.8147(7) 0.2787(4) 0.7330(5)
H5 H 0.8724 0.2363 0.7043
O11 O 0.0217(6) -0.3144(4) 0.9411(4)
C11 C 0.9101(7) 0.3630(4) 0.8081(4)
O12 O 0.0028(6) -0.1746(4) 0.8594(4)
C12 C 0.8332(7) 0.4274(4) 0.8518(5)
H6 H 0.9026 0.4855 0.9027
O13 O 0.9248(5) 0.0455(3) 0.7239(3)
C13 C 0.6497(7) 0.4043(4) 0.8183(5)
H7 H 0.5927 0.4469 0.8474
C14 C 0.5507(7) 0.3212(4) 0.7442(5)
H8 H 0.4259 0.3068 0.7222
C15 C 0.4607(7) -0.1154(4) 0.6648(4)
C16 C 0.4247(7) -0.1802(4) 0.7522(4)
C17 C 0.2715(7) -0.1837(4) 0.7804(4)
H9 H 0.1938 -0.1436 0.7461
C18 C 0.2347(7) -0.2453(4) 0.8577(5)
C19 C 0.3399(8) -0.3080(4) 0.9089(5)
H10 H 0.3085 -0.3521 0.9604
C20 C 0.4946(8) -0.3036(4) 0.8815(5)
H11 H 0.5705 -0.3450 0.9153
C21 C 0.5373(7) -0.2389(4) 0.8052(4)
H12 H 0.6443 -0.2347 0.7891
C22 C 1.0866(8) 0.0577(4) 0.7551(5)
H13 H 1.1419 0.0439 0.7040
C23 C 1.1147(9) 0.1138(6) 0.9370(5)
H14 H 1.1550 0.1901 0.9575
H15 H 1.1544 0.0763 0.9991
H16 H 0.9857 0.0921 0.9102
C24 C 1.3768(7) 0.0984(5) 0.8832(6)
H17 H 1.4062 0.0723 0.8222
H18 H 1.4098 0.0568 0.9431
H19 H 1.4415 0.1728 0.9040
Tb1A Tb 1.25097(3) 0.00158(2) 0.45862(2)
Tb1A_2 Tb 0.25097(3) 0.00158(2) 0.45862(2)
O2A O 0.9574(5) -0.0959(3) 0.5665(3)
O5A O 0.4050(5) -0.1071(3) 0.4178(3)
O6A O 0.6441(5) -0.1500(3) 0.4069(3)
O10A O 0.6521(4) 0.0677(3) 0.3797(3)
loop_
_geom_bond_atom_site_label_1
_geom_bond_atom_site_label_2
_geom_bond_site_symmetry_1
_geom_bond_site_symmetry_2
Tb1 O1 1_555 1_555
O1 C1 1_555 1_555
N1 O3 1_555 1_555
C1 O2 1_555 1_555
O2 Tb1A 1_555 1_555
N2 O7 1_555 1_555
C2 C1 1_555 1_555
N3 O11 1_555 1_555
C3 C2 1_555 1_555
H1 C3 1_555 1_555
O4 N1 1_555 1_555
N4 C22 1_555 1_555
C4 N1 1_555 1_555
O5 Tb1 1_555 1_555
C5 C4 1_555 1_555
H2 C5 1_555 1_555
O6 C8 1_555 1_555
C6 C5 1_555 1_555
H3 C6 1_555 1_555
C7 C2 1_555 1_555
H4 C7 1_555 1_555
O8 N2 1_555 1_555
C8 O5 1_555 1_555
O9 Tb1 1_555 1_555
C9 C8 1_555 1_555
O10 C15 1_555 1_555
C10 C9 1_555 1_555
H5 C10 1_555 1_555
C11 N2 1_555 1_555
O12 N3 1_555 1_555
C12 C11 1_555 1_555
H6 C12 1_555 1_555
O13 Tb1 1_555 1_555
C13 C12 1_555 1_555
H7 C13 1_555 1_555
C14 C9 1_555 1_555
H8 C14 1_555 1_555
C15 O9 1_555 1_555
C16 C15 1_555 1_555
C17 C16 1_555 1_555
H9 C17 1_555 1_555
C18 N3 1_555 1_555
C19 C18 1_555 1_555
H10 C19 1_555 1_555
C20 C19 1_555 1_555
H11 C20 1_555 1_555
C21 C16 1_555 1_555
H12 C21 1_555 1_555
C22 O13 1_555 1_555
H13 C22 1_555 1_555
C23 N4 1_555 1_555
H14 C23 1_555 1_555
H15 C23 1_555 1_555
H16 C23 1_555 1_555
C24 N4 1_555 1_555
H17 C24 1_555 1_555
H18 C24 1_555 1_555
H19 C24 1_555 1_555
Tb1A_2 O5 1_555 1_555
O2A Tb1 1_555 1_555
O5A Tb1 1_555 1_555
O6A Tb1 1_555 1_555
O10A Tb1 1_555 1_555
C3 C4 1_555 1_555
O6 Tb1A_2 1_555 1_555
C6 C7 1_555 1_555
O10 Tb1A_2 1_555 1_555
C10 C11 1_555 1_555
C13 C14 1_555 1_555
C17 C18 1_555 1_555
C20 C21 1_555 1_555
Tb1A_2 O5A 1_555 1_555

#END
