
#######################################################################
#
#                 Cambridge Crystallographic Data Centre
#                                CCDC 
#
#######################################################################
#
# If this CIF has been generated from an entry in the Cambridge 
# Structural Database, then it will include bibliographic, chemical, 
# crystal, experimental, refinement or atomic coordinate data resulting 
# from the CCDC's data processing and validation procedures.
#
#######################################################################

data_XIQCOQ
_symmetry_cell_setting           triclinic
_symmetry_space_group_name_H-M   'P -1'
_symmetry_Int_Tables_number      2
_space_group_name_Hall           '-P 1'
loop_
_symmetry_equiv_pos_site_id
_symmetry_equiv_pos_as_xyz
1 x,y,z
2 -x,-y,-z
_cell_length_a                   8.2242(4)
_cell_length_b                   13.0741(8)
_cell_length_c                   13.1527(8)
_cell_angle_alpha                90.801(4)
_cell_angle_beta                 105.040(3)
_cell_angle_gamma                106.894(3)
_cell_volume                     1300.72
loop_
_atom_site_label
_atom_site_type_symbol
_atom_site_fract_x
_atom_site_fract_y
_atom_site_fract_z
Y1 Y -0.24804(4) -0.04345(3) 0.00213(2)
O1 O -0.4584(3) -0.05477(17) -0.16024(16)
N1 N -0.7258(4) -0.0822(2) -0.5588(2)
C1 C -0.5394(4) 0.0134(3) -0.1712(2)
O2 O -0.5467(3) 0.06895(17) -0.09410(16)
N2 N -0.6118(4) -0.3474(2) -0.3831(2)
C2 C -0.6292(4) 0.0317(3) -0.2811(2)
O3 O -0.6729(4) -0.1605(2) -0.5430(2)
N3 N 0.4297(4) -0.3865(2) 0.2439(2)
C3 C -0.6358(4) -0.0339(3) -0.3668(2)
H1 H -0.5864 -0.0915 -0.3571
O4 O -0.7843(4) -0.0566(2) -0.64739(19)
N4 N -0.6861(4) -0.3554(2) -0.0886(2)
C4 C -0.7164(4) -0.0128(3) -0.4668(2)
O5 O -0.1008(3) -0.08318(17) -0.10623(16)
C5 C -0.7887(4) 0.0700(3) -0.4843(3)
H2 H -0.8420 0.0827 -0.5542
O6 O 0.1383(3) -0.08961(18) -0.14849(16)
C6 C -0.7825(5) 0.1344(3) -0.3986(3)
H3 H -0.8319 0.1919 -0.4089
O7 O -0.6800(3) -0.3025(2) -0.3315(2)
C7 C -0.7037(4) 0.1147(3) -0.2971(3)
H4 H -0.7009 0.1585 -0.2380
O8 O -0.6952(3) -0.4237(2) -0.44975(19)
C8 C -0.0259(4) -0.1194(3) -0.1646(2)
O9 O -0.0959(3) -0.14099(17) 0.11136(16)
C9 C -0.1384(4) -0.2003(2) -0.2563(2)
O10 O 0.1570(3) -0.11865(17) 0.06651(16)
C10 C -0.3214(4) -0.2327(3) -0.2786(2)
H5 H -0.3786 -0.2034 -0.2368
O11 O 0.4853(4) -0.4395(2) 0.3142(2)
C11 C -0.4176(4) -0.3085(3) -0.3627(2)
O12 O 0.5007(3) -0.3586(2) 0.1736(2)
C12 C -0.3408(4) -0.3523(3) -0.4270(3)
H6 H -0.4113 -0.4040 -0.4849
O13 O -0.4223(3) -0.22496(18) -0.04530(17)
C13 C -0.1569(4) -0.3183(3) -0.4041(3)
H7 H -0.1006 -0.3468 -0.4471
C14 C -0.0563(4) -0.2434(3) -0.3194(2)
H8 H 0.0689 -0.2210 -0.3038
C15 C 0.0449(4) -0.1626(2) 0.1142(2)
C16 C 0.0823(4) -0.2513(2) 0.1792(2)
C17 C 0.2341(4) -0.2784(3) 0.1816(2)
H9 H 0.3103 -0.2439 0.1406
C18 C 0.2724(4) -0.3565(3) 0.2448(2)
C19 C 0.1681(5) -0.4065(3) 0.3078(3)
H10 H 0.2001 -0.4579 0.3528
C20 C 0.0159(5) -0.3799(3) 0.3038(3)
H11 H -0.0592 -0.4143 0.3453
C21 C -0.0280(4) -0.3031(3) 0.2392(2)
H12 H -0.1337 -0.2860 0.2361
C22 C -0.5845(4) -0.2564(3) -0.0577(2)
H13 H -0.6390 -0.2049 -0.0439
C23 C -0.6156(5) -0.4385(3) -0.1153(3)
H14 H -0.6621 -0.4608 -0.1914
H15 H -0.6509 -0.5004 -0.0759
H16 H -0.4863 -0.4106 -0.0967
C24 C -0.8763(5) -0.3837(3) -0.1010(3)
H17 H -0.9046 -0.3212 -0.0772
H18 H -0.9112 -0.4429 -0.0584
H19 H -0.9404 -0.4060 -0.1756
Y1A Y -0.75196(4) 0.04345(3) -0.00213(2)
Y1A_2 Y 0.24804(4) 0.04345(3) -0.00213(2)
O2A O -0.4533(3) -0.06895(17) 0.09410(16)
O5A O 0.1008(3) 0.08318(17) 0.10623(16)
O6A O -0.1383(3) 0.08961(18) 0.14849(16)
O10A O -0.1570(3) 0.11865(17) -0.06651(16)
loop_
_geom_bond_atom_site_label_1
_geom_bond_atom_site_label_2
_geom_bond_site_symmetry_1
_geom_bond_site_symmetry_2
Y1 O1 1_555 1_555
O1 C1 1_555 1_555
N1 O3 1_555 1_555
C1 O2 1_555 1_555
O2 Y1A 1_555 1_555
N2 O7 1_555 1_555
C2 C1 1_555 1_555
N3 O11 1_555 1_555
C3 C2 1_555 1_555
H1 C3 1_555 1_555
O4 N1 1_555 1_555
N4 C22 1_555 1_555
C4 N1 1_555 1_555
O5 Y1 1_555 1_555
C5 C4 1_555 1_555
H2 C5 1_555 1_555
O6 C8 1_555 1_555
C6 C5 1_555 1_555
H3 C6 1_555 1_555
C7 C2 1_555 1_555
H4 C7 1_555 1_555
O8 N2 1_555 1_555
C8 O5 1_555 1_555
O9 Y1 1_555 1_555
C9 C8 1_555 1_555
O10 C15 1_555 1_555
C10 C9 1_555 1_555
H5 C10 1_555 1_555
C11 N2 1_555 1_555
O12 N3 1_555 1_555
C12 C11 1_555 1_555
H6 C12 1_555 1_555
O13 Y1 1_555 1_555
C13 C12 1_555 1_555
H7 C13 1_555 1_555
C14 C9 1_555 1_555
H8 C14 1_555 1_555
C15 O9 1_555 1_555
C16 C15 1_555 1_555
C17 C16 1_555 1_555
H9 C17 1_555 1_555
C18 N3 1_555 1_555
C19 C18 1_555 1_555
H10 C19 1_555 1_555
C20 C19 1_555 1_555
H11 C20 1_555 1_555
C21 C16 1_555 1_555
H12 C21 1_555 1_555
C22 O13 1_555 1_555
H13 C22 1_555 1_555
C23 N4 1_555 1_555
H14 C23 1_555 1_555
H15 C23 1_555 1_555
H16 C23 1_555 1_555
C24 N4 1_555 1_555
H17 C24 1_555 1_555
H18 C24 1_555 1_555
H19 C24 1_555 1_555
Y1A_2 O5 1_555 1_555
O2A Y1 1_555 1_555
O5A Y1 1_555 1_555
O6A Y1 1_555 1_555
O10A Y1 1_555 1_555
C3 C4 1_555 1_555
O6 Y1A_2 1_555 1_555
C6 C7 1_555 1_555
O10 Y1A_2 1_555 1_555
C10 C11 1_555 1_555
C13 C14 1_555 1_555
C17 C18 1_555 1_555
C20 C21 1_555 1_555
Y1A_2 O5A 1_555 1_555

#END
