
#######################################################################
#
#                 Cambridge Crystallographic Data Centre
#                                CCDC 
#
#######################################################################
#
# If this CIF has been generated from an entry in the Cambridge 
# Structural Database, then it will include bibliographic, chemical, 
# crystal, experimental, refinement or atomic coordinate data resulting 
# from the CCDC's data processing and validation procedures.
#
#######################################################################

data_XIQDAD
_symmetry_cell_setting           triclinic
_symmetry_space_group_name_H-M   'P -1'
_symmetry_Int_Tables_number      2
_space_group_name_Hall           '-P 1'
loop_
_symmetry_equiv_pos_site_id
_symmetry_equiv_pos_as_xyz
1 x,y,z
2 -x,-y,-z
_cell_length_a                   10.4247(5)
_cell_length_b                   16.1016(8)
_cell_length_c                   18.7135(6)
_cell_angle_alpha                93.351(2)
_cell_angle_beta                 101.038(2)
_cell_angle_gamma                106.429(3)
_cell_volume                     2935.93
loop_
_atom_site_label
_atom_site_type_symbol
_atom_site_fract_x
_atom_site_fract_y
_atom_site_fract_z
Y1 Y 0.49581(3) 0.53686(2) 0.392719(16)
S1 S 0.14691(9) 0.51946(6) 0.07891(5)
O1 O 0.6177(2) 0.67079(14) 0.46864(11)
N1 N 0.8825(4) 0.7761(3) 0.78982(18)
C1 C 0.6346(3) 0.6552(2) 0.53425(17)
Y2 Y 0.48210(3) 0.50845(2) 0.106440(16)
O2 O 0.5914(2) 0.57907(14) 0.55139(12)
N2 N 0.3290(3) 0.8234(2) 0.25433(16)
C2 C 0.7061(3) 0.7297(2) 0.59319(16)
O3 O 0.9215(3) 0.8387(2) 0.83766(14)
N3 N 0.6976(3) 0.9595(2) 0.38857(17)
C3 C 0.7633(4) 0.7168(2) 0.66296(18)
H1 H 0.7589 0.6597 0.6752
O4 O 0.8833(4) 0.7038(2) 0.80198(16)
N4 N 0.3514(3) 0.1156(2) 0.08162(17)
C4 C 0.8275(4) 0.7895(2) 0.71487(17)
O5 O 0.3340(2) 0.58939(15) 0.42490(11)
N5 N 0.7740(3) 0.1504(2) 0.15473(19)
C5 C 0.8379(4) 0.8730(3) 0.6992(2)
H2 H 0.8830 0.9212 0.7359
O6 O 0.3153(3) 0.64836(15) 0.53203(12)
N6 N 1.0223(3) 0.8499(2) 0.23642(18)
C6 C 0.7821(4) 0.8858(2) 0.6297(2)
H3 H 0.7891 0.9431 0.6176
O7 O 0.3042(3) 0.75531(19) 0.21481(14)
C7 C 0.7155(4) 0.8147(2) 0.57747(19)
H4 H 0.6751 0.8238 0.5298
O8 O 0.3515(4) 0.8947(2) 0.23185(15)
C8 C 0.3269(3) 0.6524(2) 0.46720(18)
O9 O 0.5817(2) 0.63227(14) 0.31724(11)
C9 C 0.3358(3) 0.7371(2) 0.43504(17)
O10 O 0.5697(2) 0.61918(15) 0.19689(11)
C10 C 0.3255(3) 0.7402(2) 0.36082(17)
H5 H 0.3116 0.6890 0.3287
O11 O 0.7266(3) 0.93328(17) 0.44774(14)
C11 C 0.3357(4) 0.8198(2) 0.33393(18)
O12 O 0.6772(3) 1.03035(16) 0.38199(14)
C12 C 0.3545(4) 0.8958(2) 0.3774(2)
H6 H 0.3605 0.9492 0.3572
O13 O 0.5224(2) 0.42455(14) 0.31569(11)
C13 C 0.3643(4) 0.8917(2) 0.4523(2)
H7 H 0.3774 0.9430 0.4840
O14 O 0.4376(2) 0.42602(15) 0.19725(11)
C14 C 0.3550(4) 0.8132(2) 0.48081(19)
H8 H 0.3618 0.8112 0.5320
O15 O 0.3491(3) 0.15740(18) 0.02964(14)
C15 C 0.5900(3) 0.6637(2) 0.25778(17)
O16 O 0.3072(4) 0.03602(18) 0.07701(16)
C16 C 0.6311(3) 0.7602(2) 0.25887(17)
O17 O 0.6161(3) 0.41407(15) 0.10720(13)
C17 C 0.6522(4) 0.8137(2) 0.32384(18)
H9 H 0.6456 0.7898 0.3687
O18 O 0.5750(3) 0.41629(16) -0.01322(13)
C18 C 0.6828(4) 0.9020(2) 0.32109(18)
O19 O 0.8099(3) 0.1962(2) 0.21407(15)
C19 C 0.6976(4) 0.9408(2) 0.25785(19)
H10 H 0.7200 1.0023 0.2585
O20 O 0.7749(4) 0.07468(19) 0.14676(18)
C20 C 0.6787(4) 0.8874(2) 0.19370(19)
H11 H 0.6892 0.9120 0.1494
O21 O 0.6871(2) 0.58870(15) 0.08082(12)
C21 C 0.6445(4) 0.7982(2) 0.19443(17)
H12 H 0.6298 0.7617 0.1500
O22 O 0.6888(2) 0.60916(15) -0.03667(11)
C22 C 0.4802(3) 0.3893(2) 0.25048(17)
O23 O 1.0847(4) 0.9262(2) 0.25769(16)
C23 C 0.4781(3) 0.2956(2) 0.23591(17)
O24 O 0.9942(3) 0.7951(2) 0.27702(15)
C24 C 0.4204(3) 0.2506(2) 0.16624(18)
H13 H 0.3878 0.2790 0.1268
O25 O 0.7091(2) 0.51640(15) 0.43243(11)
C25 C 0.4119(4) 0.1631(2) 0.15585(19)
O26 O 0.3064(2) 0.49827(16) 0.29427(12)
C26 C 0.4572(4) 0.1192(2) 0.2113(2)
H14 H 0.4468 0.0587 0.2028
O27 O 0.2842(2) 0.53432(17) 0.13144(12)
C27 C 0.5187(4) 0.1657(2) 0.2802(2)
H15 H 0.5544 0.1376 0.3191
C28 C 0.5279(4) 0.2533(2) 0.29228(18)
H16 H 0.5687 0.2845 0.3397
C29 C 0.6149(4) 0.3836(2) 0.04371(19)
C30 C 0.6564(3) 0.3029(2) 0.03478(17)
C31 C 0.7028(3) 0.2680(2) 0.09749(18)
H17 H 0.7166 0.2981 0.1449
C32 C 0.7283(4) 0.1887(2) 0.08907(19)
C33 C 0.7094(4) 0.1431(3) 0.0208(2)
H18 H 0.7249 0.0879 0.0165
C34 C 0.6674(4) 0.1801(3) -0.0408(2)
H19 H 0.6565 0.1509 -0.0882
C35 C 0.6413(4) 0.2591(2) -0.03399(18)
H20 H 0.6127 0.2840 -0.0768
C36 C 0.7310(3) 0.6317(2) 0.03182(18)
C37 C 0.8410(3) 0.7171(2) 0.05752(17)
C38 C 0.8859(3) 0.7425(2) 0.13213(18)
H21 H 0.8526 0.7051 0.1662
C39 C 0.9806(4) 0.8237(2) 0.15606(19)
C40 C 1.0327(4) 0.8800(2) 0.1090(2)
H22 H 1.0963 0.9359 0.1271
C41 C 0.9895(4) 0.8527(3) 0.0343(2)
H23 H 1.0257 0.8896 0.0006
C42 C 0.8938(4) 0.7721(2) 0.00847(19)
H24 H 0.8643 0.7543 -0.0428
C43 C 0.0332(4) 0.4284(3) 0.1055(2)
H25 H 0.0615 0.3764 0.0964
H26 H -0.0599 0.4194 0.0770
H27 H 0.0349 0.4391 0.1578
C44 C 0.0795(4) 0.6016(2) 0.10976(19)
H28 H 0.0862 0.6030 0.1628
H29 H -0.0167 0.5885 0.0847
H30 H 0.1320 0.6584 0.0988
H43 H 0.2283 0.5179 0.2908
H44 H 0.3086 0.4880 0.2579
H45 H 0.7005 0.4713 0.4433
H46 H 0.7873 0.5591 0.4681
Y1A Y 0.50419(3) 0.46314(2) 0.607281(16)
Y2A Y 0.51790(3) 0.49155(2) -0.106440(16)
O2A O 0.4086(2) 0.42093(14) 0.44861(12)
O18A O 0.4250(3) 0.58371(16) 0.01322(13)
O22A O 0.3112(2) 0.39084(15) 0.03667(11)
S2 S 1.01685(11) 0.70438(7) 0.50372(6)
O28 O 0.9046(3) 0.63770(18) 0.52719(15)
C45 C 0.9339(5) 0.7650(4) 0.4451(3)
H31 H 0.8721 0.7260 0.4025
H32 H 1.0026 0.8105 0.4285
H33 H 0.8810 0.7921 0.4718
C46 C 1.0889(5) 0.7857(3) 0.5814(2)
H34 H 1.0151 0.8007 0.5995
H35 H 1.1488 0.8379 0.5671
H36 H 1.1423 0.7631 0.6202
S3 S -0.01483(11) 0.54115(8) 0.32547(5)
O29 O 0.0810(3) 0.5464(2) 0.27339(13)
C47 C -0.1657(4) 0.5509(4) 0.2725(2)
H37 H -0.1502 0.6107 0.2599
H38 H -0.2381 0.5375 0.3004
H39 H -0.1935 0.5101 0.2275
C48 C -0.0808(7) 0.4271(4) 0.3337(3)
H40 H -0.1051 0.3935 0.2851
H41 H -0.1625 0.4171 0.3545
H42 H -0.0109 0.4085 0.3659
loop_
_geom_bond_atom_site_label_1
_geom_bond_atom_site_label_2
_geom_bond_site_symmetry_1
_geom_bond_site_symmetry_2
Y1 O1 1_555 1_555
S1 O27 1_555 1_555
O1 C1 1_555 1_555
N1 O3 1_555 1_555
C1 O2 1_555 1_555
Y2 O10 1_555 1_555
S2 O28 1_555 1_555
O2 Y1 1_555 1_555
N2 O7 1_555 1_555
C2 C1 1_555 1_555
S3 O29 1_555 1_555
N3 O11 1_555 1_555
C3 C2 1_555 1_555
H1 C3 1_555 1_555
O4 N1 1_555 1_555
N4 O15 1_555 1_555
C4 N1 1_555 1_555
O5 Y1 1_555 1_555
N5 O19 1_555 1_555
C5 C4 1_555 1_555
H2 C5 1_555 1_555
O6 C8 1_555 1_555
N6 O23 1_555 1_555
C6 C5 1_555 1_555
H3 C6 1_555 1_555
C7 C2 1_555 1_555
H4 C7 1_555 1_555
O8 N2 1_555 1_555
C8 O5 1_555 1_555
O9 Y1 1_555 1_555
C9 C8 1_555 1_555
O10 C15 1_555 1_555
C10 C9 1_555 1_555
H5 C10 1_555 1_555
C11 N2 1_555 1_555
O12 N3 1_555 1_555
C12 C11 1_555 1_555
H6 C12 1_555 1_555
O13 Y1 1_555 1_555
C13 C12 1_555 1_555
H7 C13 1_555 1_555
O14 Y2 1_555 1_555
C14 C9 1_555 1_555
H8 C14 1_555 1_555
C15 O9 1_555 1_555
O16 N4 1_555 1_555
C16 C15 1_555 1_555
O17 Y2 1_555 1_555
C17 C16 1_555 1_555
H9 C17 1_555 1_555
O18 C29 1_555 1_555
C18 N3 1_555 1_555
C19 C18 1_555 1_555
H10 C19 1_555 1_555
O20 N5 1_555 1_555
C20 C19 1_555 1_555
H11 C20 1_555 1_555
O21 Y2 1_555 1_555
C21 C16 1_555 1_555
H12 C21 1_555 1_555
O22 C36 1_555 1_555
C22 O13 1_555 1_555
C23 C22 1_555 1_555
O24 N6 1_555 1_555
C24 C23 1_555 1_555
H13 C24 1_555 1_555
O25 Y1 1_555 1_555
C25 N4 1_555 1_555
O26 Y1 1_555 1_555
C26 C25 1_555 1_555
H14 C26 1_555 1_555
O27 Y2 1_555 1_555
C27 C26 1_555 1_555
H15 C27 1_555 1_555
C28 C23 1_555 1_555
H16 C28 1_555 1_555
C29 O17 1_555 1_555
C30 C29 1_555 1_555
C31 C30 1_555 1_555
H17 C31 1_555 1_555
C32 N5 1_555 1_555
C33 C32 1_555 1_555
H18 C33 1_555 1_555
C34 C33 1_555 1_555
H19 C34 1_555 1_555
C35 C30 1_555 1_555
H20 C35 1_555 1_555
C36 O21 1_555 1_555
C37 C36 1_555 1_555
C38 C37 1_555 1_555
H21 C38 1_555 1_555
C39 N6 1_555 1_555
C40 C39 1_555 1_555
H22 C40 1_555 1_555
C41 C40 1_555 1_555
H23 C41 1_555 1_555
C42 C37 1_555 1_555
H24 C42 1_555 1_555
C43 S1 1_555 1_555
H25 C43 1_555 1_555
H26 C43 1_555 1_555
H27 C43 1_555 1_555
C44 S1 1_555 1_555
H28 C44 1_555 1_555
H29 C44 1_555 1_555
H30 C44 1_555 1_555
C45 S2 1_555 1_555
H31 C45 1_555 1_555
H32 C45 1_555 1_555
H33 C45 1_555 1_555
C46 S2 1_555 1_555
H34 C46 1_555 1_555
H35 C46 1_555 1_555
H36 C46 1_555 1_555
C47 S3 1_555 1_555
H37 C47 1_555 1_555
H38 C47 1_555 1_555
H39 C47 1_555 1_555
C48 S3 1_555 1_555
H40 C48 1_555 1_555
H41 C48 1_555 1_555
H42 C48 1_555 1_555
H43 O26 1_555 1_555
H44 O26 1_555 1_555
H45 O25 1_555 1_555
H46 O25 1_555 1_555
Y1A O2 1_555 1_555
Y2A O18 1_555 1_555
O2A Y1 1_555 1_555
O18A Y2 1_555 1_555
O22A Y2 1_555 1_555
C3 C4 1_555 1_555
C6 C7 1_555 1_555
C10 C11 1_555 1_555
C13 C14 1_555 1_555
O14 C22 1_555 1_555
C17 C18 1_555 1_555
C20 C21 1_555 1_555
O22 Y2A 1_555 1_555
C24 C25 1_555 1_555
C27 C28 1_555 1_555
C31 C32 1_555 1_555
C34 C35 1_555 1_555
C38 C39 1_555 1_555
C41 C42 1_555 1_555
Y1A O2A 1_555 1_555

#END
