
#######################################################################
#
#                 Cambridge Crystallographic Data Centre
#                                CCDC 
#
#######################################################################
#
# If this CIF has been generated from an entry in the Cambridge 
# Structural Database, then it will include bibliographic, chemical, 
# crystal, experimental, refinement or atomic coordinate data resulting 
# from the CCDC's data processing and validation procedures.
#
#######################################################################

data_XIQDOR
_symmetry_cell_setting           triclinic
_symmetry_space_group_name_H-M   'P -1'
_symmetry_Int_Tables_number      2
_space_group_name_Hall           '-P 1'
loop_
_symmetry_equiv_pos_site_id
_symmetry_equiv_pos_as_xyz
1 x,y,z
2 -x,-y,-z
_cell_length_a                   9.9572(3)
_cell_length_b                   10.5317(4)
_cell_length_c                   15.9559(6)
_cell_angle_alpha                98.894(2)
_cell_angle_beta                 96.585(1)
_cell_angle_gamma                107.184(2)
_cell_volume                     1556.36
loop_
_atom_site_label
_atom_site_type_symbol
_atom_site_fract_x
_atom_site_fract_y
_atom_site_fract_z
Tb1 Tb 0.25093(2) 0.00667(2) -0.010938(12)
S1 S 0.30819(11) 0.34055(11) -0.05521(7)
O1 O 0.3955(3) -0.0984(3) 0.05538(19)
N1 N 0.2605(4) -0.1970(4) 0.4247(2)
C1 C 0.4822(4) -0.1039(4) 0.1176(3)
H1 H 0.000(5) -0.205(5) 0.019(3)
H2 H 0.061(6) -0.262(6) -0.030(4)
H3 H 0.465(6) 0.269(7) 0.097(4)
H4 H 0.527(6) 0.169(6) 0.073(3)
O2 O 0.6119(3) -0.0882(3) 0.11720(18)
N2 N 0.1393(4) 0.1619(4) 0.5196(2)
C2 C 0.4241(4) -0.1312(4) 0.1986(3)
O3 O 0.3159(3) -0.1141(3) 0.49169(19)
N3 N 0.3021(4) -0.4485(4) -0.4901(2)
C3 C 0.5152(4) -0.0909(4) 0.2772(3)
H5 H 0.6147 -0.0504 0.2793
O4 O 0.1599(3) -0.3008(3) 0.41928(19)
C4 C 0.4626(4) -0.1091(4) 0.3529(3)
H6 H 0.5238 -0.0794 0.4072
O5 O 0.1807(3) 0.0685(3) 0.11929(18)
C5 C 0.3173(4) -0.1724(4) 0.3462(3)
O6 O -0.0546(3) 0.0191(3) 0.11075(18)
C6 C 0.2244(4) -0.2160(4) 0.2683(3)
H7 H 0.1258 -0.2613 0.2658
O7 O 0.2580(4) 0.1845(4) 0.5606(2)
C7 C 0.2787(4) -0.1922(4) 0.1944(3)
H8 H 0.2165 -0.2175 0.1406
O8 O 0.0334(3) 0.1572(3) 0.55335(19)
C8 C 0.0698(4) 0.0550(4) 0.1517(2)
O9 O 0.2514(3) -0.1813(3) -0.11342(18)
C9 C 0.0870(4) 0.0857(4) 0.2489(2)
O10 O 0.0623(3) -0.3677(3) -0.13526(19)
C10 C -0.0282(4) 0.0882(4) 0.2895(2)
H9 H -0.1191 0.0712 0.2559
O11 O 0.4139(4) -0.3777(3) -0.5069(2)
C11 C -0.0127(4) 0.1152(4) 0.3785(3)
H10 H -0.0911 0.1188 0.4066
O12 O 0.2228(4) -0.5527(3) -0.5378(2)
C12 C 0.1206(4) 0.1367(4) 0.4249(2)
O13 O 0.2215(3) 0.2286(3) -0.01424(18)
C13 C 0.2384(4) 0.1361(4) 0.3872(3)
H11 H 0.3288 0.1528 0.4213
O14 O 0.0704(3) -0.1970(3) 0.0119(2)
C14 C 0.2207(4) 0.1104(4) 0.2980(2)
H12 H 0.3000 0.1096 0.2702
O15 O 0.4556(4) 0.1773(4) 0.0755(2)
C15 C 0.1656(4) -0.2928(4) -0.1588(3)
C16 C 0.1986(4) -0.3332(4) -0.2473(3)
C17 C 0.1071(4) -0.4484(4) -0.3044(3)
H13 H 0.0226 -0.5012 -0.2881
C18 C 0.1396(5) -0.4855(4) -0.3849(3)
H14 H 0.0789 -0.5645 -0.4241
C19 C 0.2621(4) -0.4051(4) -0.4068(3)
C20 C 0.3527(4) -0.2890(4) -0.3525(3)
H15 H 0.4355 -0.2350 -0.3698
C21 C 0.3199(4) -0.2533(4) -0.2722(2)
H16 H 0.3806 -0.1736 -0.2338
C22 C 0.2089(5) 0.3127(5) -0.1600(3)
H17 H 0.2163 0.2311 -0.1953
H18 H 0.2470 0.3910 -0.1864
H19 H 0.1086 0.3007 -0.1559
C23 C 0.2731(5) 0.4900(4) -0.0093(3)
H20 H 0.3218 0.5210 0.0507
H21 H 0.1701 0.4703 -0.0112
H22 H 0.3079 0.5610 -0.0420
Tb1A Tb 0.74907(2) -0.00667(2) 0.010938(12)
Tb1A_2 Tb -0.25093(2) -0.00667(2) 0.010938(12)
O2A O 0.3881(3) 0.0882(3) -0.11720(18)
O6A O 0.0546(3) -0.0191(3) -0.11075(18)
S2 S 0.42508(11) 0.41462(11) 0.23615(7)
O16 O 0.4747(3) 0.4287(3) 0.15100(19)
C24 C 0.5240(5) 0.5704(5) 0.3068(3)
H23 H 0.6245 0.5756 0.3188
H24 H 0.4861 0.5757 0.3608
H25 H 0.5162 0.6461 0.2799
C25 C 0.2537(5) 0.4368(5) 0.2276(4)
H26 H 0.1834 0.3573 0.1895
H27 H 0.2570 0.5179 0.2039
H28 H 0.2266 0.4474 0.2848
loop_
_geom_bond_atom_site_label_1
_geom_bond_atom_site_label_2
_geom_bond_site_symmetry_1
_geom_bond_site_symmetry_2
Tb1 O1 1_555 1_555
S1 O13 1_555 1_555
O1 C1 1_555 1_555
N1 O3 1_555 1_555
C1 O2 1_555 1_555
H1 O14 1_555 1_555
H2 O14 1_555 1_555
H3 O15 1_555 1_555
H4 O15 1_555 1_555
S2 O16 1_555 1_555
O2 Tb1A 1_555 1_555
N2 O7 1_555 1_555
C2 C1 1_555 1_555
N3 O11 1_555 1_555
C3 C2 1_555 1_555
H5 C3 1_555 1_555
O4 N1 1_555 1_555
C4 C3 1_555 1_555
H6 C4 1_555 1_555
O5 Tb1 1_555 1_555
C5 N1 1_555 1_555
O6 C8 1_555 1_555
C6 C5 1_555 1_555
H7 C6 1_555 1_555
C7 C2 1_555 1_555
H8 C7 1_555 1_555
O8 N2 1_555 1_555
C8 O5 1_555 1_555
O9 Tb1 1_555 1_555
C9 C8 1_555 1_555
O10 C15 1_555 1_555
C10 C9 1_555 1_555
H9 C10 1_555 1_555
C11 C10 1_555 1_555
H10 C11 1_555 1_555
O12 N3 1_555 1_555
C12 N2 1_555 1_555
O13 Tb1 1_555 1_555
C13 C12 1_555 1_555
H11 C13 1_555 1_555
O14 Tb1 1_555 1_555
C14 C9 1_555 1_555
H12 C14 1_555 1_555
O15 Tb1 1_555 1_555
C15 O9 1_555 1_555
C16 C15 1_555 1_555
C17 C16 1_555 1_555
H13 C17 1_555 1_555
C18 C17 1_555 1_555
H14 C18 1_555 1_555
C19 N3 1_555 1_555
C20 C19 1_555 1_555
H15 C20 1_555 1_555
C21 C16 1_555 1_555
H16 C21 1_555 1_555
C22 S1 1_555 1_555
H17 C22 1_555 1_555
H18 C22 1_555 1_555
H19 C22 1_555 1_555
C23 S1 1_555 1_555
H20 C23 1_555 1_555
H21 C23 1_555 1_555
H22 C23 1_555 1_555
C24 S2 1_555 1_555
H23 C24 1_555 1_555
H24 C24 1_555 1_555
H25 C24 1_555 1_555
C25 S2 1_555 1_555
H26 C25 1_555 1_555
H27 C25 1_555 1_555
H28 C25 1_555 1_555
Tb1A_2 O6 1_555 1_555
O2A Tb1 1_555 1_555
O6A Tb1 1_555 1_555
C4 C5 1_555 1_555
C6 C7 1_555 1_555
C11 C12 1_555 1_555
C13 C14 1_555 1_555
C18 C19 1_555 1_555
C20 C21 1_555 1_555

#END
