
#######################################################################
#
#                 Cambridge Crystallographic Data Centre
#                                CCDC 
#
#######################################################################
#
# If this CIF has been generated from an entry in the Cambridge 
# Structural Database, then it will include bibliographic, chemical, 
# crystal, experimental, refinement or atomic coordinate data resulting 
# from the CCDC's data processing and validation procedures.
#
#######################################################################

data_XIQFEK
_symmetry_cell_setting           monoclinic
_symmetry_space_group_name_H-M   'C c'
_symmetry_Int_Tables_number      9
_space_group_name_Hall           'C -2yc'
loop_
_symmetry_equiv_pos_site_id
_symmetry_equiv_pos_as_xyz
1 x,y,z
2 x,-y,1/2+z
3 1/2+x,1/2+y,z
4 1/2+x,1/2-y,1/2+z
_cell_length_a                   11.874(3)
_cell_length_b                   18.036(4)
_cell_length_c                   15.448(3)
_cell_angle_alpha                90
_cell_angle_beta                 97.075(2)
_cell_angle_gamma                90
_cell_volume                     3283.14
loop_
_atom_site_label
_atom_site_type_symbol
_atom_site_fract_x
_atom_site_fract_y
_atom_site_fract_z
C1 C 0.6972(11) 0.2549(6) 0.1623(8)
H1 H 0.6321 0.2821 0.1684
C2 C 0.7248(12) 0.2434(6) 0.0801(9)
H2 H 0.6805 0.2614 0.0308
C3 C 0.8257(9) 0.2020(6) 0.0748(6)
H3 H 0.8483 0.1940 0.0200
C4 C 0.8909(8) 0.1736(5) 0.1459(6)
C5 C 0.8563(7) 0.1880(5) 0.2343(5)
C6 C 0.9188(8) 0.1574(6) 0.3080(6)
C7 C 0.9322(8) 0.1503(7) 0.4572(6)
H4 H 0.9078 0.1621 0.5105
C8 C 1.0331(10) 0.1024(8) 0.4549(8)
H5 H 1.0704 0.0847 0.5073
C9 C 1.0695(9) 0.0851(7) 0.3869(6)
H6 H 1.1315 0.0534 0.3881
C10 C 1.0155(8) 0.1144(7) 0.3043(7)
C11 C 1.0496(7) 0.1023(5) 0.2255(6)
C12 C 0.9931(9) 0.1329(5) 0.1439(6)
C13 C 1.1394(9) 0.0739(6) 0.1138(6)
H7 H 1.1943 0.0565 0.0808
C14 C 0.5172(9) 0.1462(7) 0.3104(5)
H8 H 0.5429 0.1591 0.2579
C15 C 0.4283(10) 0.1032(7) 0.3059(7)
H9 H 0.3925 0.0847 0.2534
C16 C 0.3888(8) 0.0859(7) 0.3913(7)
H10 H 0.3257 0.0557 0.3935
C17 C 0.4436(8) 0.1136(6) 0.4643(6)
C18 C 0.5412(8) 0.1590(6) 0.4597(7)
C19 C 0.6042(7) 0.1875(5) 0.5453(5)
C20 C 0.5667(8) 0.1755(5) 0.6205(6)
C21 C 0.6287(8) 0.2049(6) 0.6990(6)
H11 H 0.6070 0.1971 0.7541
C22 C 0.7179(14) 0.2434(6) 0.6860(9)
H12 H 0.7620 0.2641 0.7339
C23 C 0.7506(10) 0.2550(6) 0.6011(8)
H13 H 0.8149 0.2834 0.5962
C24 C 0.4656(9) 0.1300(6) 0.6196(6)
C25 C 0.4046(8) 0.1026(6) 0.5525(6)
C26 C 0.3149(9) 0.0706(6) 0.6496(8)
H14 H 0.2613 0.0486 0.6806
C27 C 0.5167(8) 0.3612(5) 0.3389(6)
C28 C 0.4353(9) 0.4039(6) 0.2846(6)
C29 C 0.3437(9) 0.4308(8) 0.3093(6)
H15 H 0.3300 0.4229 0.3665
C30 C 0.2637(9) 0.4714(7) 0.2535(7)
H16 H 0.2025 0.4927 0.2766
C31 C 0.2724(8) 0.4809(5) 0.1672(6)
C32 C 0.3780(7) 0.4568(5) 0.1401(5)
H17 H 0.3966 0.4699 0.0854
C33 C 0.4468(9) 0.4168(7) 0.1918(6)
H18 H 0.5075 0.3946 0.1691
C34 C 0.1854(8) 0.5191(5) 0.1062(5)
C35 C 0.2015(9) 0.5345(8) 0.0197(6)
H19 H 0.2695 0.5210 -0.0001
C36 C 0.1216(10) 0.5681(9) -0.0353(6)
H20 H 0.1322 0.5745 -0.0935
C37 C 0.0185(8) 0.5946(6) -0.0043(6)
C38 C -0.0008(8) 0.5794(6) 0.0729(6)
H21 H -0.0705 0.5899 0.0917
C39 C 0.0920(9) 0.5445(6) 0.1316(6)
H22 H 0.0831 0.5405 0.1904
C40 C -0.0712(7) 0.6370(4) -0.0693(5)
Cd1 Cd 0.72801(14) 0.262031(10) 0.38547(10)
N1 N 0.7609(9) 0.2285(4) 0.2374(6)
N2 N 0.8776(7) 0.1759(5) 0.3856(5)
N3 N 1.0523(8) 0.1093(6) 0.0802(5)
H23 H 1.0339 0.1169 0.0253
N4 N 1.1467(8) 0.0633(6) 0.2028(6)
N5 N 0.5760(6) 0.1742(4) 0.3848(5)
N6 N 0.6970(9) 0.2288(5) 0.5326(7)
N7 N 0.4074(7) 0.1130(5) 0.6902(5)
H24 H 0.4234 0.1251 0.7442
N8 N 0.3115(7) 0.0653(6) 0.5697(6)
O1 O 0.6119(7) 0.3439(5) 0.3099(4)
O2 O 0.4982(7) 0.3434(5) 0.4149(4)
O3 O -0.1582(6) 0.6549(5) -0.0411(5)
O4 O -0.0430(7) 0.6543(6) -0.1415(4)
Cd1A Cd -0.27199(14) 0.737969(10) -0.11453(10)
O3A O 0.8418(6) 0.3451(5) 0.4589(5)
loop_
_geom_bond_atom_site_label_1
_geom_bond_atom_site_label_2
_geom_bond_site_symmetry_1
_geom_bond_site_symmetry_2
C1 H1 1_555 1_555
C2 C1 1_555 1_555
H2 C2 1_555 1_555
C3 C2 1_555 1_555
H3 C3 1_555 1_555
C4 C3 1_555 1_555
C5 C4 1_555 1_555
C6 C5 1_555 1_555
C7 H4 1_555 1_555
C8 C7 1_555 1_555
H5 C8 1_555 1_555
C9 C8 1_555 1_555
H6 C9 1_555 1_555
C10 C6 1_555 1_555
C11 C10 1_555 1_555
C12 C4 1_555 1_555
C13 H7 1_555 1_555
C14 H8 1_555 1_555
C15 C14 1_555 1_555
H9 C15 1_555 1_555
C16 C15 1_555 1_555
H10 C16 1_555 1_555
C17 C16 1_555 1_555
C18 C17 1_555 1_555
C19 C18 1_555 1_555
C20 C19 1_555 1_555
C21 C20 1_555 1_555
H11 C21 1_555 1_555
C22 C21 1_555 1_555
H12 C22 1_555 1_555
C23 C22 1_555 1_555
H13 C23 1_555 1_555
C24 C20 1_555 1_555
C25 C17 1_555 1_555
C26 H14 1_555 1_555
C27 C28 1_555 1_555
C28 C29 1_555 1_555
C29 H15 1_555 1_555
C30 C29 1_555 1_555
H16 C30 1_555 1_555
C31 C30 1_555 1_555
C32 C31 1_555 1_555
H17 C32 1_555 1_555
C33 C28 1_555 1_555
H18 C33 1_555 1_555
C34 C31 1_555 1_555
C35 C34 1_555 1_555
H19 C35 1_555 1_555
C36 C35 1_555 1_555
H20 C36 1_555 1_555
C37 C36 1_555 1_555
C38 C37 1_555 1_555
H21 C38 1_555 1_555
C39 C34 1_555 1_555
H22 C39 1_555 1_555
C40 C37 1_555 1_555
Cd1 N1 1_555 1_555
N1 C1 1_555 1_555
N2 C6 1_555 1_555
N3 C12 1_555 1_555
H23 N3 1_555 1_555
N4 C11 1_555 1_555
N5 C14 1_555 1_555
N6 C19 1_555 1_555
N7 C24 1_555 1_555
H24 N7 1_555 1_555
N8 C25 1_555 1_555
O1 C27 1_555 1_555
O2 C27 1_555 1_555
O3 C40 1_555 1_555
O4 C40 1_555 1_555
Cd1A O3 1_555 1_555
O3A Cd1 1_555 1_555
C5 N1 1_555 1_555
C7 N2 1_555 1_555
C9 C10 1_555 1_555
C11 C12 1_555 1_555
C13 N3 1_555 1_555
C13 N4 1_555 1_555
C18 N5 1_555 1_555
C23 N6 1_555 1_555
C24 C25 1_555 1_555
C26 N7 1_555 1_555
C26 N8 1_555 1_555
C32 C33 1_555 1_555
C38 C39 1_555 1_555
Cd1 N2 1_555 1_555
Cd1 N5 1_555 1_555
Cd1 N6 1_555 1_555
Cd1 O1 1_555 1_555

#END
