
#######################################################################
#
#                 Cambridge Crystallographic Data Centre
#                                CCDC 
#
#######################################################################
#
# If this CIF has been generated from an entry in the Cambridge 
# Structural Database, then it will include bibliographic, chemical, 
# crystal, experimental, refinement or atomic coordinate data resulting 
# from the CCDC's data processing and validation procedures.
#
#######################################################################

data_XIQFAG
_symmetry_cell_setting           monoclinic
_symmetry_space_group_name_H-M   'C 2/c'
_symmetry_Int_Tables_number      15
_space_group_name_Hall           '-C 2yn'
loop_
_symmetry_equiv_pos_site_id
_symmetry_equiv_pos_as_xyz
1 x,y,z
2 -x,y,1/2-z
3 1/2+x,1/2+y,z
4 1/2-x,1/2+y,1/2-z
5 -x,-y,-z
6 x,-y,1/2+z
7 1/2-x,1/2-y,-z
8 1/2+x,1/2-y,1/2+z
_cell_length_a                   28.212(2)
_cell_length_b                   16.4867(14)
_cell_length_c                   20.6979(17)
_cell_angle_alpha                90
_cell_angle_beta                 92.2100(10)
_cell_angle_gamma                90
_cell_volume                     9619.9
loop_
_atom_site_label
_atom_site_type_symbol
_atom_site_fract_x
_atom_site_fract_y
_atom_site_fract_z
Zn2 Zn 0.26984(2) 0.04233(4) 0.23992(3)
O5 O 0.23635(18) 0.1373(4) 0.2975(3)
O6 O 0.2685(2) 0.0328(3) 0.3439(3)
N5 N 0.24126(14) 0.0872(3) 0.1530(2)
N6 N 0.13536(19) -0.0085(3) -0.0259(3)
N7 N 0.1255(2) -0.1307(4) 0.0209(3)
H15 H 0.1163 -0.1798 0.0271
N8 N 0.22891(14) -0.0569(3) 0.2094(2)
C26 C 0.2514(3) 0.1018(6) 0.3474(4)
C27 C 0.2520(2) 0.1453(4) 0.4113(3)
C28 C 0.2378(2) 0.2251(4) 0.4134(3)
H16 H 0.2260 0.2500 0.3759
C29 C 0.2409(2) 0.2697(4) 0.4718(3)
C30 C 0.2264(2) 0.3517(4) 0.4753(3)
H17 H 0.2144 0.3776 0.4383
C31 C 0.2297(2) 0.3931(4) 0.5319(4)
H18 H 0.2199 0.4469 0.5334
C32 C 0.2468(2) 0.1610(4) 0.1283(3)
H19 H 0.2659 0.1981 0.1511
C33 C 0.2253(2) 0.1848(4) 0.0702(3)
H20 H 0.2297 0.2371 0.0545
C34 C 0.1975(2) 0.1306(4) 0.0360(3)
H21 H 0.1832 0.1454 -0.0035
C35 C 0.19086(17) 0.0530(3) 0.0608(3)
C36 C 0.16179(19) -0.0094(4) 0.0322(3)
C37 C 0.1146(3) -0.0827(5) -0.0279(4)
H22 H 0.0941 -0.0985 -0.0618
C38 C 0.15536(19) -0.0833(4) 0.0605(3)
C39 C 0.17682(18) -0.1042(3) 0.1221(3)
C40 C 0.1703(2) -0.1757(4) 0.1568(4)
H23 H 0.1506 -0.2162 0.1397
C41 C 0.1929(2) -0.1862(4) 0.2156(4)
H24 H 0.1886 -0.2337 0.2389
C42 C 0.2220(2) -0.1259(4) 0.2402(3)
H25 H 0.2376 -0.1339 0.2802
C43 C 0.20666(17) -0.0448(3) 0.1512(3)
C44 C 0.21316(16) 0.0333(3) 0.1202(2)
O7 O 0.3350(10) -0.0161(12) 0.2390(12)
C45 C 0.3585(11) 0.0506(14) 0.2393(14)
C46 C 0.41232(16) 0.0810(4) 0.2427(4)
C47 C 0.4321(2) 0.1581(4) 0.2472(4)
C48 C 0.4415(2) 0.0131(3) 0.2440(4)
C49 C 0.4905(2) 0.0223(3) 0.2498(5)
O5F O 0.26365(18) 0.3627(4) 0.7025(3)
O6F O 0.2315(2) 0.4672(3) 0.6561(3)
C26F C 0.2486(3) 0.3982(6) 0.6526(4)
C27F C 0.2480(2) 0.3547(4) 0.5887(3)
C28F C 0.2622(2) 0.2749(4) 0.5866(3)
H16F H 0.2740 0.2500 0.6241
C29F C 0.2591(2) 0.2303(4) 0.5282(3)
C30F C 0.2736(2) 0.1483(4) 0.5247(3)
H17F H 0.2856 0.1224 0.5617
C31F C 0.2703(2) 0.1069(4) 0.4681(4)
H18F H 0.2801 0.0531 0.4666
Zn2F Zn 0.23016(2) 0.45767(4) 0.76008(3)
N5F N 0.25874(14) 0.4128(3) 0.8470(2)
N6F N 0.36464(19) 0.5085(3) 1.0259(3)
N7F N 0.3745(2) 0.6307(4) 0.9791(3)
H15F H 0.3837 0.6798 0.9729
N8F N 0.27109(14) 0.5569(3) 0.7906(2)
C32F C 0.2532(2) 0.3390(4) 0.8717(3)
H19F H 0.2341 0.3019 0.8489
C33F C 0.2747(2) 0.3152(4) 0.9298(3)
H20F H 0.2703 0.2629 0.9455
C34F C 0.3025(2) 0.3694(4) 0.9640(3)
H21F H 0.3168 0.3546 1.0035
C35F C 0.30914(17) 0.4470(3) 0.9392(3)
C36F C 0.33821(19) 0.5094(4) 0.9678(3)
C37F C 0.3854(3) 0.5827(5) 1.0279(4)
H22F H 0.4059 0.5985 1.0618
C38F C 0.34464(19) 0.5833(4) 0.9395(3)
C39F C 0.32318(18) 0.6042(3) 0.8779(3)
C40F C 0.3297(2) 0.6757(4) 0.8432(4)
H23F H 0.3494 0.7162 0.8603
C41F C 0.3071(2) 0.6862(4) 0.7844(4)
H24F H 0.3114 0.7337 0.7611
C42F C 0.2780(2) 0.6259(4) 0.7598(3)
H25F H 0.2624 0.6339 0.7198
C43F C 0.29334(17) 0.5448(3) 0.8488(3)
C44F C 0.28684(16) 0.4667(3) 0.8798(2)
O7F O 0.1650(10) 0.5161(12) 0.7610(12)
C45F C 0.1415(11) 0.4494(14) 0.7607(14)
C46F C 0.08768(16) 0.4190(4) 0.7573(4)
C47F C 0.0679(2) 0.3419(4) 0.7528(4)
C48F C 0.0585(2) 0.4869(3) 0.7560(4)
C49F C 0.0095(2) 0.4777(3) 0.7502(5)
O8 O 0.8689(2) 0.3248(4) 0.3929(4)
O9 O 0.1139(3) 0.2749(4) 0.4194(4)
O10 O 0.2791(3) 0.8912(5) 0.4179(4)
O11 O 0.1505(7) 0.2353(12) 0.3061(12)
O12 O 0.1515(8) 0.3474(12) 0.3264(10)
O13 O 0.2097(9) 0.1730(18) 0.8911(8)
Zn1 Zn 0.05488(2) 0.76713(3) 0.43493(3)
O1 O 0.02759(16) 0.8642(2) 0.48875(19)
O2 O 0.08809(15) 0.7988(2) 0.53000(17)
O3 O 0.06021(14) 1.1836(2) 0.84939(15)
O4 O 0.12296(16) 1.1236(3) 0.8951(2)
N1 N -0.00582(15) 0.6943(2) 0.42942(18)
N2 N 0.08602(15) 0.6533(2) 0.43247(18)
N3 N 0.0344(2) 0.3669(3) 0.4112(2)
N4 N -0.0434(2) 0.4015(3) 0.4069(2)
H1 H -0.0737 0.3968 0.4037
C1 C 0.0584(2) 0.8550(3) 0.5324(3)
C2 C 0.06060(19) 0.9142(3) 0.5889(2)
C3 C 0.0291(2) 0.9816(4) 0.5874(3)
H2 H 0.0073 0.9877 0.5528
C4 C 0.0305(2) 1.0372(3) 0.6360(3)
H3 H 0.0100 1.0814 0.6342
C5 C 0.06292(17) 1.0282(3) 0.6889(2)
C6 C 0.06414(18) 1.0846(3) 0.7413(2)
H4 H 0.0438 1.1290 0.7401
C7 C 0.09471(18) 1.0741(3) 0.7928(2)
C8 C 0.12659(19) 1.0080(3) 0.7939(3)
H5 H 0.1482 1.0020 0.8286
C9 C 0.12616(19) 0.9531(4) 0.7450(3)
H6 H 0.1473 0.9099 0.7466
C10 C 0.09400(17) 0.9613(3) 0.6923(2)
C11 C 0.09160(19) 0.9045(3) 0.6396(2)
H7 H 0.1119 0.8600 0.6404
C12 C 0.0931(2) 1.1313(3) 0.8495(2)
C13 C -0.0512(2) 0.7169(4) 0.4303(3)
H8 H -0.0584 0.7716 0.4347
C14 C -0.0883(2) 0.6602(4) 0.4248(3)
H9 H -0.1196 0.6776 0.4260
C15 C -0.0785(2) 0.5796(4) 0.4176(3)
H10 H -0.1031 0.5422 0.4126
C16 C -0.0314(2) 0.5539(3) 0.4178(2)
C17 C -0.0161(2) 0.4725(3) 0.4142(2)
C18 C -0.0111(3) 0.3439(4) 0.4061(3)
H11 H -0.0195 0.2895 0.4023
C19 C 0.0309(2) 0.4521(3) 0.4173(2)
C20 C 0.06813(19) 0.5102(3) 0.4242(2)
C21 C 0.1166(2) 0.4938(3) 0.4286(3)
H12 H 0.1272 0.4405 0.4269
C22 C 0.1483(2) 0.5553(4) 0.4353(3)
H13 H 0.1807 0.5446 0.4389
C23 C 0.1314(2) 0.6354(3) 0.4367(3)
H14 H 0.1533 0.6775 0.4407
C24 C 0.05384(18) 0.5917(3) 0.42661(19)
C25 C 0.00455(18) 0.6139(3) 0.4244(2)
Zn1E Zn 0.05488(2) 1.23287(3) 0.93493(3)
O3E O 0.06021(14) 0.8164(2) 0.34939(15)
O14? O 0.3353(8) 0.1195(13) 0.2471(7)
H26? H 0.4279 -0.0402 0.2409
C50? C 0.5201(3) -0.0469(7) 0.2493(5)
H27? H 0.5079 -0.1010 0.2444
C51? C 0.5694(4) -0.0354(8) 0.2547(5)
H28? H 0.5919 -0.0791 0.2559
C52? C 0.5891(4) 0.0422(8) 0.2581(6)
C53? C 0.5612(4) 0.1067(8) 0.2589(6)
H29? H 0.5777 0.1575 0.2628
O15? O 0.6631(8) 0.1338(11) 0.2729(7)
O16? O 0.1577(11) 0.346(2) 0.217(3)
O17? O 0.5202(6) 0.6775(10) 0.2833(14)
O18? O 0.1671(8) 0.2676(17) 0.2283(9)
C54? C 0.3579(11) 0.0738(11) 0.2353(13)
O19? O 0.3390(9) 0.0043(10) 0.2302(11)
H30? H 0.4947 0.2206 0.2561
H31? H 0.4119 0.2050 0.2463
C55? C 0.51023(16) 0.0994(4) 0.2543(5)
C56? C 0.4810(2) 0.1673(3) 0.2530(4)
loop_
_geom_bond_atom_site_label_1
_geom_bond_atom_site_label_2
_geom_bond_site_symmetry_1
_geom_bond_site_symmetry_2
Zn1 O1 1_555 1_555
O1 C1 1_555 1_555
O2 C1 1_555 1_555
O3 C12 1_555 1_555
O4 C12 1_555 1_555
N1 Zn1 1_555 1_555
N2 Zn1 1_555 1_555
N3 C18 1_555 1_555
N4 H1 1_555 1_555
C1 C2 1_555 1_555
C2 C3 1_555 1_555
C3 H2 1_555 1_555
C4 C3 1_555 1_555
H3 C4 1_555 1_555
C5 C4 1_555 1_555
C6 C5 1_555 1_555
H4 C6 1_555 1_555
C7 C6 1_555 1_555
C8 C7 1_555 1_555
H5 C8 1_555 1_555
C9 C8 1_555 1_555
H6 C9 1_555 1_555
C10 C5 1_555 1_555
C11 C2 1_555 1_555
H7 C11 1_555 1_555
C12 C7 1_555 1_555
C13 N1 1_555 1_555
H8 C13 1_555 1_555
C14 C13 1_555 1_555
H9 C14 1_555 1_555
C15 C14 1_555 1_555
H10 C15 1_555 1_555
C16 C15 1_555 1_555
C17 N4 1_555 1_555
C18 N4 1_555 1_555
H11 C18 1_555 1_555
C19 N3 1_555 1_555
C20 C19 1_555 1_555
C21 C20 1_555 1_555
H12 C21 1_555 1_555
C22 C21 1_555 1_555
H13 C22 1_555 1_555
C23 N2 1_555 1_555
H14 C23 1_555 1_555
C24 N2 1_555 1_555
C25 N1 1_555 1_555
Zn2 O6 1_555 1_555
O5 C26 1_555 1_555
O6 C26 1_555 1_555
N5 Zn2 1_555 1_555
N6 C36 1_555 1_555
N7 H15 1_555 1_555
N8 Zn2 1_555 1_555
C26 C27 1_555 1_555
C27 C28 1_555 1_555
C28 H16 1_555 1_555
C29 C28 1_555 1_555
C30 C29 1_555 1_555
H17 C30 1_555 1_555
C31 C30 1_555 1_555
H18 C31 1_555 1_555
C32 N5 1_555 1_555
H19 C32 1_555 1_555
C33 C32 1_555 1_555
H20 C33 1_555 1_555
C34 C33 1_555 1_555
H21 C34 1_555 1_555
C35 C34 1_555 1_555
C36 C35 1_555 1_555
C37 N6 1_555 1_555
H22 C37 1_555 1_555
C38 N7 1_555 1_555
C39 C38 1_555 1_555
C40 C39 1_555 1_555
H23 C40 1_555 1_555
C41 C40 1_555 1_555
H24 C41 1_555 1_555
C42 N8 1_555 1_555
H25 C42 1_555 1_555
C43 N8 1_555 1_555
C44 N5 1_555 1_555
O7 Zn2 1_555 1_555
C45 O7 1_555 1_555
C46 C45 1_555 1_555
C47 C46 1_555 1_555
C48 C46 1_555 1_555
C49 C48 1_555 1_555
Zn1E O3 1_555 1_555
O3E Zn1 1_555 1_555
O5F C26F 1_555 1_555
O6F C26F 1_555 1_555
C26F C27F 1_555 1_555
C27F C31 1_555 1_555
C28F C27F 1_555 1_555
H16F C28F 1_555 1_555
C29F C29 1_555 1_555
C30F C29F 1_555 1_555
H17F C30F 1_555 1_555
C31F C27 1_555 1_555
H18F C31F 1_555 1_555
Zn2F O6F 1_555 1_555
N5F Zn2F 1_555 1_555
N6F C36F 1_555 1_555
N7F H15F 1_555 1_555
N8F Zn2F 1_555 1_555
C32F N5F 1_555 1_555
H19F C32F 1_555 1_555
C33F C32F 1_555 1_555
H20F C33F 1_555 1_555
C34F C33F 1_555 1_555
H21F C34F 1_555 1_555
C35F C34F 1_555 1_555
C36F C35F 1_555 1_555
C37F N6F 1_555 1_555
H22F C37F 1_555 1_555
C38F N7F 1_555 1_555
C39F C38F 1_555 1_555
C40F C39F 1_555 1_555
H23F C40F 1_555 1_555
C41F C40F 1_555 1_555
H24F C41F 1_555 1_555
C42F N8F 1_555 1_555
H25F C42F 1_555 1_555
C43F N8F 1_555 1_555
C44F N5F 1_555 1_555
O7F Zn2F 1_555 1_555
C45F O7F 1_555 1_555
C46F C45F 1_555 1_555
C47F C46F 1_555 1_555
C48F C46F 1_555 1_555
C49F C48F 1_555 1_555
C9 C10 1_555 1_555
C10 C11 1_555 1_555
C16 C17 1_555 1_555
C16 C25 1_555 1_555
C17 C19 1_555 1_555
C20 C24 1_555 1_555
C22 C23 1_555 1_555
C24 C25 1_555 1_555
N7 C37 1_555 1_555
C35 C44 1_555 1_555
C36 C38 1_555 1_555
C39 C43 1_555 1_555
C41 C42 1_555 1_555
C43 C44 1_555 1_555
C28F C29F 1_555 1_555
C30F C31F 1_555 1_555
N7F C37F 1_555 1_555
C35F C44F 1_555 1_555
C36F C38F 1_555 1_555
C39F C43F 1_555 1_555
C41F C42F 1_555 1_555
C43F C44F 1_555 1_555

#END
