
#######################################################################
#
#                 Cambridge Crystallographic Data Centre
#                                CCDC 
#
#######################################################################
#
# If this CIF has been generated from an entry in the Cambridge 
# Structural Database, then it will include bibliographic, chemical, 
# crystal, experimental, refinement or atomic coordinate data resulting 
# from the CCDC's data processing and validation procedures.
#
#######################################################################

data_XIQFIO
_symmetry_cell_setting           orthorhombic
_symmetry_space_group_name_H-M   'C c c 2'
_symmetry_Int_Tables_number      37
_space_group_name_Hall           'C 2 -2c'
loop_
_symmetry_equiv_pos_site_id
_symmetry_equiv_pos_as_xyz
1 x,y,z
2 -x,-y,z
3 x,-y,1/2+z
4 -x,y,1/2+z
5 1/2+x,1/2+y,z
6 1/2-x,1/2-y,z
7 1/2+x,1/2-y,1/2+z
8 1/2-x,1/2+y,1/2+z
_cell_length_a                   11.8526(11)
_cell_length_b                   16.7663(16)
_cell_length_c                   35.040(3)
_cell_angle_alpha                90
_cell_angle_beta                 90
_cell_angle_gamma                90
_cell_volume                     6963.3
loop_
_atom_site_label
_atom_site_type_symbol
_atom_site_fract_x
_atom_site_fract_y
_atom_site_fract_z
Zn1 Zn 0.60402(6) 0.33418(4) 0.698804(18)
S1 S 0.5000 0.5000 0.70957(6)
O1 O 0.6540(7) 0.3244(5) 0.64302(19)
H1 H 0.6227 0.2857 0.6333
H2 H 0.7239 0.3223 0.6423
O2 O 0.7629(4) 0.3672(3) 0.71445(13)
O3 O 0.8239(4) 0.4189(3) 0.66024(14)
O4 O 0.5068(6) 0.4281(3) 0.68718(16)
O5 O 0.4092(8) 0.4961(5) 0.7336(3)
O6 O 0.9356(6) 0.4558(4) 0.83358(16)
N1 N 0.2151(4) 0.0971(3) 0.77607(16)
H3 H 0.1697 0.0709 0.7616
N2 N 0.2973(4) 0.1424(3) 0.82887(16)
N3 N 0.5704(4) 0.3027(3) 0.75515(13)
N4 N 0.4760(4) 0.2460(3) 0.69188(12)
N5 N 1.0000 0.5000 0.8175(2)
C1 C 0.2157(5) 0.0970(4) 0.8138(2)
H4 H 0.1645 0.0682 0.8285
C2 C 0.3510(5) 0.1741(4) 0.79738(17)
C3 C 0.3012(5) 0.1472(3) 0.76429(18)
C4 C 0.4454(5) 0.2275(3) 0.79600(16)
C5 C 0.5030(6) 0.2565(4) 0.82828(17)
H5 H 0.4817 0.2404 0.8526
C6 C 0.5908(6) 0.3085(5) 0.82340(19)
H6 H 0.6289 0.3291 0.8444
C7 C 0.6223(6) 0.3303(4) 0.78655(18)
H7 H 0.6822 0.3656 0.7836
C8 C 0.4837(5) 0.2502(3) 0.76006(15)
C9 C 0.4293(5) 0.2202(3) 0.72545(16)
C10 C 0.3391(4) 0.1686(3) 0.72662(16)
C11 C 0.2930(5) 0.1424(4) 0.69221(18)
H8 H 0.2312 0.1082 0.6923
C12 C 0.3374(6) 0.1662(4) 0.6591(2)
H9 H 0.3082 0.1482 0.6361
C13 C 0.4308(5) 0.2201(4) 0.65979(17)
H10 H 0.4609 0.2376 0.6367
C14 C 0.8291(5) 0.4112(4) 0.69485(19)
C15 C 0.9185(5) 0.4555(4) 0.71666(16)
C16 C 1.0000 0.5000 0.6971(2)
H11 H 1.0000 0.5000 0.6706
C17 C 0.9204(5) 0.4551(4) 0.75605(17)
H12 H 0.8686 0.4248 0.7698
C18 C 1.0000 0.5000 0.7745(3)
O4A O 0.4932(6) 0.5719(3) 0.68718(16)
O5A O 0.5908(8) 0.5039(5) 0.7336(3)
O2A O 1.2371(4) 0.6328(3) 0.71445(13)
O3A O 1.1761(4) 0.5811(3) 0.66024(14)
O6A O 1.0644(6) 0.5442(4) 0.83358(16)
C14A C 1.1709(5) 0.5888(4) 0.69485(19)
C15A C 1.0815(5) 0.5445(4) 0.71666(16)
C17A C 1.0796(5) 0.5449(4) 0.75605(17)
H12A H 1.1314 0.5752 0.7698
Zn1A Zn 0.39598(6) 0.66582(4) 0.698804(18)
O1A O 0.3460(7) 0.6756(5) 0.64302(19)
H1A H 0.3773 0.7143 0.6333
H2A H 0.2761 0.6777 0.6423
N1A N 0.7849(4) 0.9029(3) 0.77607(16)
H3A H 0.8303 0.9291 0.7616
N2A N 0.7027(4) 0.8576(3) 0.82887(16)
N3A N 0.4296(4) 0.6973(3) 0.75515(13)
N4A N 0.5240(4) 0.7540(3) 0.69188(12)
C1A C 0.7843(5) 0.9030(4) 0.8138(2)
H4A H 0.8355 0.9318 0.8285
C2A C 0.6490(5) 0.8259(4) 0.79738(17)
C3A C 0.6988(5) 0.8528(3) 0.76429(18)
C4A C 0.5546(5) 0.7725(3) 0.79600(16)
C5A C 0.4970(6) 0.7435(4) 0.82828(17)
H5A H 0.5183 0.7596 0.8526
C6A C 0.4092(6) 0.6915(5) 0.82340(19)
H6A H 0.3711 0.6709 0.8444
C7A C 0.3777(6) 0.6697(4) 0.78655(18)
H7A H 0.3178 0.6344 0.7836
C8A C 0.5163(5) 0.7498(3) 0.76006(15)
C9A C 0.5707(5) 0.7798(3) 0.72545(16)
C10A C 0.6609(4) 0.8314(3) 0.72662(16)
C11A C 0.7070(5) 0.8576(4) 0.69221(18)
H8A H 0.7688 0.8918 0.6923
C12A C 0.6626(6) 0.8338(4) 0.6591(2)
H9A H 0.6918 0.8518 0.6361
C13A C 0.5692(5) 0.7799(4) 0.65979(17)
H10A H 0.5391 0.7624 0.6367
Zn1A_2 Zn 1.39598(6) 0.66582(4) 0.698804(18)
O2A_2 O 0.2371(4) 0.6328(3) 0.71445(13)
Zn2 Zn 0.85607(5) 0.41467(4) 0.539818(19)
O7 O 0.9240(4) 0.4314(3) 0.59140(14)
H13 H 0.8925 0.4048 0.6080
H14 H 0.9929 0.4287 0.5911
O8 O 1.0045(4) 0.3742(3) 0.51884(12)
O9 O 1.0972(3) 0.3464(3) 0.57276(14)
S2 S 0.7500 0.2500 0.55456(7)
O10 O 0.7442(4) 0.3212(3) 0.53328(18)
O11 O 0.8540(5) 0.2532(4) 0.57840(19)
O12 O 1.3096(5) 0.2013(3) 0.39860(14)
N6 N 1.2500 0.2500 0.4151(2)
N7 N 0.8175(4) 0.4597(3) 0.48570(14)
N8 N 0.7251(4) 0.4996(3) 0.55236(12)
N9 N 0.5220(5) 0.6209(4) 0.42320(17)
N10 N 0.4475(4) 0.6565(3) 0.47876(18)
H15 H 0.4027 0.6793 0.4947
C19 C 0.6858(5) 0.5217(4) 0.58659(19)
H16 H 0.7203 0.5013 0.6083
C20 C 0.5963(5) 0.5735(4) 0.5910(2)
H17 H 0.5714 0.5881 0.6152
C21 C 0.5458(5) 0.6025(4) 0.55954(18)
H18 H 0.4846 0.6367 0.5621
C22 C 0.5830(5) 0.5825(3) 0.52358(18)
C23 C 0.6768(5) 0.5296(3) 0.52073(17)
C24 C 0.7255(5) 0.5084(4) 0.48446(16)
C25 C 0.6791(5) 0.5368(3) 0.44994(17)
C26 C 0.7379(6) 0.5158(4) 0.41677(19)
H19 H 0.7137 0.5354 0.3933
C27 C 0.8295(6) 0.4676(5) 0.41823(19)
H20 H 0.8671 0.4531 0.3960
C28 C 0.8662(5) 0.4401(5) 0.4535(2)
H21 H 0.9283 0.4062 0.4542
C29 C 0.5825(5) 0.5876(4) 0.45316(19)
C30 C 0.5384(5) 0.6075(3) 0.48730(19)
C31 C 0.4442(7) 0.6609(4) 0.4414(2)
H22 H 0.3897 0.6906 0.4286
C32 C 1.0838(4) 0.3417(3) 0.53765(18)
C33 C 1.1696(4) 0.2953(3) 0.51524(17)
C34 C 1.2500 0.2500 0.5345(2)
H23 H 1.2500 0.2500 0.5611
C35 C 1.1696(5) 0.2950(3) 0.47559(16)
H24 H 1.1166 0.3244 0.4620
C36 C 1.2500 0.2500 0.4568(2)
O8E O 1.4955(4) 0.1258(3) 0.51884(12)
O9E O 1.4028(3) 0.1536(3) 0.57276(14)
O12E O 1.1904(5) 0.2987(3) 0.39860(14)
C32E C 1.4162(4) 0.1583(3) 0.53765(18)
C33E C 1.3304(4) 0.2047(3) 0.51524(17)
C35E C 1.3304(5) 0.2050(3) 0.47559(16)
H24E H 1.3834 0.1756 0.4620
O10E O 0.7558(4) 0.1788(3) 0.53328(18)
O11E O 0.6460(5) 0.2468(4) 0.57840(19)
Zn2E Zn 0.64393(5) 0.08533(4) 0.539818(19)
O7E O 0.5760(4) 0.0686(3) 0.59140(14)
H13E H 0.6075 0.0952 0.6080
H14E H 0.5071 0.0713 0.5911
N7E N 0.6825(4) 0.0403(3) 0.48570(14)
N8E N 0.7749(4) 0.0004(3) 0.55236(12)
N9E N 0.9780(5) -0.1209(4) 0.42320(17)
N10E N 1.0525(4) -0.1565(3) 0.47876(18)
H15E H 1.0973 -0.1793 0.4947
C19E C 0.8142(5) -0.0217(4) 0.58659(19)
H16E H 0.7797 -0.0013 0.6083
C20E C 0.9037(5) -0.0735(4) 0.5910(2)
H17E H 0.9286 -0.0881 0.6152
C21E C 0.9542(5) -0.1025(4) 0.55954(18)
H18E H 1.0154 -0.1367 0.5621
C22E C 0.9170(5) -0.0825(3) 0.52358(18)
C23E C 0.8232(5) -0.0296(3) 0.52073(17)
C24E C 0.7745(5) -0.0084(4) 0.48446(16)
C25E C 0.8209(5) -0.0368(3) 0.44994(17)
C26E C 0.7621(6) -0.0158(4) 0.41677(19)
H19E H 0.7863 -0.0354 0.3933
C27E C 0.6705(6) 0.0324(5) 0.41823(19)
H20E H 0.6329 0.0469 0.3960
C28E C 0.6338(5) 0.0599(5) 0.4535(2)
H21E H 0.5717 0.0938 0.4542
C29E C 0.9175(5) -0.0876(4) 0.45316(19)
C30E C 0.9616(5) -0.1075(3) 0.48730(19)
C31E C 1.0558(7) -0.1609(4) 0.4414(2)
H22E H 1.1103 -0.1906 0.4286
Zn2E_2 Zn 1.64393(5) 0.08533(4) 0.539818(19)
O8E_2 O 0.4955(4) 0.1258(3) 0.51884(12)
O13 O 0.5000 0.5000 0.3603(2)
H25 H 0.4951 0.5437 0.3709
H25A H 0.5049 0.4563 0.3709
O14 O 0.2500 0.2500 0.8916(2)
H26 H 0.2736 0.2166 0.8761
H26E H 0.2264 0.2834 0.8761
loop_
_geom_bond_atom_site_label_1
_geom_bond_atom_site_label_2
_geom_bond_site_symmetry_1
_geom_bond_site_symmetry_2
Zn1 O1 1_555 1_555
S1 O4 1_555 1_555
O1 H1 1_555 1_555
H2 O1 1_555 1_555
O2 Zn1 1_555 1_555
O3 C14 1_555 1_555
O4 Zn1 1_555 1_555
O5 S1 1_555 1_555
O6 N5 1_555 1_555
N1 H3 1_555 1_555
N2 C1 1_555 1_555
N3 Zn1 1_555 1_555
N4 Zn1 1_555 1_555
N5 C18 1_555 1_555
C1 N1 1_555 1_555
H4 C1 1_555 1_555
C2 N2 1_555 1_555
C3 N1 1_555 1_555
C4 C2 1_555 1_555
C5 C4 1_555 1_555
H5 C5 1_555 1_555
C6 C5 1_555 1_555
H6 C6 1_555 1_555
C7 N3 1_555 1_555
H7 C7 1_555 1_555
C8 N3 1_555 1_555
C9 N4 1_555 1_555
C10 C3 1_555 1_555
C11 C10 1_555 1_555
H8 C11 1_555 1_555
C12 C11 1_555 1_555
H9 C12 1_555 1_555
C13 N4 1_555 1_555
H10 C13 1_555 1_555
C14 O2 1_555 1_555
C15 C14 1_555 1_555
C16 C15 1_555 1_555
H11 C16 1_555 1_555
C17 C15 1_555 1_555
H12 C17 1_555 1_555
C18 C17 1_555 1_555
Zn2 O7 1_555 1_555
O7 H13 1_555 1_555
H14 O7 1_555 1_555
O8 Zn2 1_555 1_555
O9 C32 1_555 1_555
S2 O10 1_555 1_555
O10 Zn2 1_555 1_555
O11 S2 1_555 1_555
O12 N6 1_555 1_555
N6 C36 1_555 1_555
N7 Zn2 1_555 1_555
N8 Zn2 1_555 1_555
N9 C29 1_555 1_555
N10 H15 1_555 1_555
C19 N8 1_555 1_555
H16 C19 1_555 1_555
C20 C19 1_555 1_555
H17 C20 1_555 1_555
C21 C20 1_555 1_555
H18 C21 1_555 1_555
C22 C21 1_555 1_555
C23 N8 1_555 1_555
C24 N7 1_555 1_555
C25 C24 1_555 1_555
C26 C25 1_555 1_555
H19 C26 1_555 1_555
C27 C26 1_555 1_555
H20 C27 1_555 1_555
C28 N7 1_555 1_555
H21 C28 1_555 1_555
C29 C25 1_555 1_555
C30 N10 1_555 1_555
C31 N9 1_555 1_555
H22 C31 1_555 1_555
C32 O8 1_555 1_555
C33 C32 1_555 1_555
C34 C33 1_555 1_555
H23 C34 1_555 1_555
C35 C33 1_555 1_555
H24 C35 1_555 1_555
C36 C35 1_555 1_555
O13 H25 1_555 1_555
O14 H26 1_555 1_555
O4A S1 1_555 1_555
O5A S1 1_555 1_555
O2A C14A 1_555 1_555
O3A C14A 1_555 1_555
O6A N5 1_555 1_555
C14A C15A 1_555 1_555
C15A C16 1_555 1_555
C17A C18 1_555 1_555
H12A C17A 1_555 1_555
Zn1A O4A 1_555 1_555
O1A Zn1A 1_555 1_555
H1A O1A 1_555 1_555
H2A O1A 1_555 1_555
N1A H3A 1_555 1_555
N2A C1A 1_555 1_555
N3A Zn1A 1_555 1_555
N4A Zn1A 1_555 1_555
C1A N1A 1_555 1_555
H4A C1A 1_555 1_555
C2A N2A 1_555 1_555
C3A N1A 1_555 1_555
C4A C2A 1_555 1_555
C5A C4A 1_555 1_555
H5A C5A 1_555 1_555
C6A C5A 1_555 1_555
H6A C6A 1_555 1_555
C7A N3A 1_555 1_555
H7A C7A 1_555 1_555
C8A N3A 1_555 1_555
C9A N4A 1_555 1_555
C10A C3A 1_555 1_555
C11A C10A 1_555 1_555
H8A C11A 1_555 1_555
C12A C11A 1_555 1_555
H9A C12A 1_555 1_555
C13A N4A 1_555 1_555
H10A C13A 1_555 1_555
Zn1A_2 O2A 1_555 1_555
O2A_2 Zn1A 1_555 1_555
O8E C32E 1_555 1_555
O9E C32E 1_555 1_555
O12E N6 1_555 1_555
C32E C33E 1_555 1_555
C33E C34 1_555 1_555
C35E C36 1_555 1_555
H24E C35E 1_555 1_555
O10E S2 1_555 1_555
O11E S2 1_555 1_555
Zn2E O10E 1_555 1_555
O7E Zn2E 1_555 1_555
H13E O7E 1_555 1_555
H14E O7E 1_555 1_555
N7E Zn2E 1_555 1_555
N8E Zn2E 1_555 1_555
N9E C29E 1_555 1_555
N10E H15E 1_555 1_555
C19E N8E 1_555 1_555
H16E C19E 1_555 1_555
C20E C19E 1_555 1_555
H17E C20E 1_555 1_555
C21E C20E 1_555 1_555
H18E C21E 1_555 1_555
C22E C21E 1_555 1_555
C23E N8E 1_555 1_555
C24E N7E 1_555 1_555
C25E C24E 1_555 1_555
C26E C25E 1_555 1_555
H19E C26E 1_555 1_555
C27E C26E 1_555 1_555
H20E C27E 1_555 1_555
C28E N7E 1_555 1_555
H21E C28E 1_555 1_555
C29E C25E 1_555 1_555
C30E N10E 1_555 1_555
C31E N9E 1_555 1_555
H22E C31E 1_555 1_555
Zn2E_2 O8E 1_555 1_555
O8E_2 Zn2E 1_555 1_555
H25A O13 1_555 1_555
H26E O14 1_555 1_555
C2 C3 1_555 1_555
C4 C8 1_555 1_555
C6 C7 1_555 1_555
C8 C9 1_555 1_555
C9 C10 1_555 1_555
C12 C13 1_555 1_555
N10 C31 1_555 1_555
C22 C23 1_555 1_555
C22 C30 1_555 1_555
C23 C24 1_555 1_555
C27 C28 1_555 1_555
C29 C30 1_555 1_555
C15A C17A 1_555 1_555
C2A C3A 1_555 1_555
C4A C8A 1_555 1_555
C6A C7A 1_555 1_555
C8A C9A 1_555 1_555
C9A C10A 1_555 1_555
C12A C13A 1_555 1_555
C33E C35E 1_555 1_555
N10E C31E 1_555 1_555
C22E C23E 1_555 1_555
C22E C30E 1_555 1_555
C23E C24E 1_555 1_555
C27E C28E 1_555 1_555
C29E C30E 1_555 1_555

#END
