
#######################################################################
#
#                 Cambridge Crystallographic Data Centre
#                                CCDC 
#
#######################################################################
#
# If this CIF has been generated from an entry in the Cambridge 
# Structural Database, then it will include bibliographic, chemical, 
# crystal, experimental, refinement or atomic coordinate data resulting 
# from the CCDC's data processing and validation procedures.
#
#######################################################################

data_XIQLIT
_symmetry_cell_setting           monoclinic
_symmetry_space_group_name_H-M   'P 21/n'
_symmetry_Int_Tables_number      14
_space_group_name_Hall           '-P 2yn'
loop_
_symmetry_equiv_pos_site_id
_symmetry_equiv_pos_as_xyz
1 x,y,z
2 1/2-x,1/2+y,1/2-z
3 -x,-y,-z
4 1/2+x,1/2-y,1/2+z
_cell_length_a                   8.8370(10)
_cell_length_b                   15.625(2)
_cell_length_c                   10.3660(10)
_cell_angle_alpha                90
_cell_angle_beta                 103.362(12)
_cell_angle_gamma                90
_cell_volume                     1392.57
loop_
_atom_site_label
_atom_site_type_symbol
_atom_site_fract_x
_atom_site_fract_y
_atom_site_fract_z
Cu1 Cu 0.52533(3) 0.207429(15) 0.62485(2)
S1 S 0.26970(6) 0.32239(4) 0.57258(5)
N1 N 0.40732(19) 0.09614(11) 0.40953(17)
N2 N 0.49645(19) 0.16748(10) 0.44545(17)
N3 N 0.6532(2) 0.29532(10) 0.55604(17)
N4 N 0.1105(2) 0.27995(11) 0.31404(18)
O1 O 0.39614(16) 0.10495(9) 0.63069(14)
C1 C 0.2560(2) -0.00644(12) 0.4960(2)
C2 C 0.2225(2) -0.04945(14) 0.3747(2)
C3 C 0.1224(2) -0.11882(14) 0.3553(2)
C4 C 0.0566(2) -0.14632(14) 0.4580(2)
C5 C 0.0912(2) -0.10461(14) 0.5785(2)
C6 C 0.1899(2) -0.03489(13) 0.5982(2)
C7 C 0.3596(2) 0.06968(12) 0.5160(2)
C8 C 0.5676(2) 0.20648(13) 0.3680(2)
C9 C 0.6580(2) 0.28090(12) 0.4272(2)
C10 C 0.7427(2) 0.33251(14) 0.3618(2)
C11 C 0.8253(3) 0.40070(15) 0.4301(2)
C12 C 0.8189(3) 0.41576(15) 0.5605(2)
C13 C 0.7312(3) 0.36144(14) 0.6195(2)
C14 C 0.1788(2) 0.29734(12) 0.4205(2)
H1 H 0.739(2) 0.3235(13) 0.273(2)
H2 H 0.873(2) 0.4631(14) 0.612(2)
H3 H 0.045(2) -0.1209(15) 0.650(2)
H4 H 0.106(2) -0.1504(14) 0.273(2)
H5 H 0.877(3) 0.4367(16) 0.396(3)
H6 H 0.725(2) 0.3673(14) 0.704(2)
H7 H -0.001(3) -0.1864(17) 0.444(3)
H8 H 0.563(3) 0.1898(15) 0.280(3)
H9 H 0.209(2) -0.0072(13) 0.674(2)
H10 H 0.270(2) -0.0304(14) 0.302(2)
Cu1C Cu 0.02533(3) 0.292571(15) 0.12485(2)
N4C N 0.6105(2) 0.22005(11) 0.81404(18)
loop_
_geom_bond_atom_site_label_1
_geom_bond_atom_site_label_2
_geom_bond_site_symmetry_1
_geom_bond_site_symmetry_2
Cu1 S1 1_555 1_555
S1 C14 1_555 1_555
N1 N2 1_555 1_555
N2 Cu1 1_555 1_555
N3 Cu1 1_555 1_555
N4 C14 1_555 1_555
O1 Cu1 1_555 1_555
C1 C2 1_555 1_555
C2 C3 1_555 1_555
C3 C4 1_555 1_555
C4 C5 1_555 1_555
C5 C6 1_555 1_555
C6 C1 1_555 1_555
C7 N1 1_555 1_555
C8 N2 1_555 1_555
C9 N3 1_555 1_555
C10 C9 1_555 1_555
C11 C10 1_555 1_555
C12 C11 1_555 1_555
C13 N3 1_555 1_555
H1 C10 1_555 1_555
H2 C12 1_555 1_555
H3 C5 1_555 1_555
H4 C3 1_555 1_555
H5 C11 1_555 1_555
H6 C13 1_555 1_555
H7 C4 1_555 1_555
H8 C8 1_555 1_555
H9 C6 1_555 1_555
H10 C2 1_555 1_555
Cu1C N4 1_555 1_555
N4C Cu1 1_555 1_555
O1 C7 1_555 1_555
C1 C7 1_555 1_555
C8 C9 1_555 1_555
C12 C13 1_555 1_555

#END
