
#######################################################################
#
#                 Cambridge Crystallographic Data Centre
#                                CCDC 
#
#######################################################################
#
# If this CIF has been generated from an entry in the Cambridge 
# Structural Database, then it will include bibliographic, chemical, 
# crystal, experimental, refinement or atomic coordinate data resulting 
# from the CCDC's data processing and validation procedures.
#
#######################################################################

data_XIQPIW
_symmetry_cell_setting           monoclinic
_symmetry_space_group_name_H-M   'P 21/c'
_symmetry_Int_Tables_number      14
_space_group_name_Hall           '-P 2ybc'
loop_
_symmetry_equiv_pos_site_id
_symmetry_equiv_pos_as_xyz
1 x,y,z
2 -x,1/2+y,1/2-z
3 -x,-y,-z
4 x,1/2-y,1/2+z
_cell_length_a                   13.8097(8)
_cell_length_b                   14.5765(4)
_cell_length_c                   13.7853(15)
_cell_angle_alpha                90
_cell_angle_beta                 96.033(9)
_cell_angle_gamma                90
_cell_volume                     2759.57
loop_
_atom_site_label
_atom_site_type_symbol
_atom_site_fract_x
_atom_site_fract_y
_atom_site_fract_z
S1 S 0.0400(1) 0.1125(1) -0.3191(1)
S2 S 0.4396(1) -0.1310(1) -0.3256(1)
O1 O 0.0956(3) 0.1680(2) -0.3795(3)
O2 O -0.0371(2) 0.0584(2) -0.3689(3)
O3 O 0.4989(3) -0.0772(2) -0.3843(3)
O4 O 0.3647(3) -0.1840(2) -0.3810(3)
N1 N 0.1728(3) -0.0741(2) -0.1766(3)
N2 N 0.0097(3) -0.0261(2) -0.1594(3)
N3 N 0.1188(3) 0.0500(3) -0.2575(3)
N4 N -0.1517(5) 0.3830(4) -0.0817(4)
N5 N 0.3772(3) 0.0460(3) -0.1431(3)
N6 N 0.5325(3) -0.0154(2) -0.1722(3)
N7 N 0.3838(3) -0.0695(2) -0.2526(3)
N8 N 0.7090(4) -0.4103(3) -0.1285(4)
Cu1 Cu 0.2522(1) -0.0054(1) -0.2712(1)
C1 C 0.1654(3) -0.1447(3) -0.1166(3)
C2 C 0.0795(4) -0.1572(4) -0.0747(4)
C3 C 0.0033(3) -0.0968(3) -0.0976(4)
C4 C 0.0954(3) -0.0180(3) -0.1950(3)
C5 C -0.0129(3) 0.1860(3) -0.2379(4)
C6 C -0.1086(4) 0.1751(3) -0.2229(4)
C7 C -0.1543(4) 0.2390(3) -0.1692(4)
C8 C -0.1038(4) 0.3145(3) -0.1290(4)
C9 C -0.0059(4) 0.3221(4) -0.1399(4)
C10 C 0.0398(4) 0.2590(4) -0.1944(4)
C11 C 0.4209(4) 0.1064(3) -0.0802(4)
C12 C 0.5208(4) 0.1079(4) -0.0617(4)
C13 C 0.5753(3) 0.0460(3) -0.1082(4)
C14 C 0.4366(3) -0.0118(3) -0.1858(3)
C15 C 0.5180(3) -0.2084(3) -0.2569(4)
C16 C 0.6181(4) -0.1976(3) -0.2543(4)
C17 C 0.6799(4) -0.2629(3) -0.2103(4)
C18 C 0.6433(4) -0.3397(3) -0.1665(4)
C19 C 0.5440(4) -0.3494(3) -0.1665(4)
C20 C 0.4813(4) -0.2840(4) -0.2129(4)
C21 C 0.2511(5) -0.2073(4) -0.0982(5)
C22 C -0.0922(5) -0.1070(5) -0.0575(6)
C23 C 0.3566(6) 0.1713(5) -0.0327(5)
C24 C 0.6843(5) 0.0428(6) -0.0953(7)
H1 H 0.0730(4) -0.2070(4) -0.0310(4)
H2 H -0.2070(5) 0.3630(4) -0.0720(4)
H3 H -0.1210(5) 0.4120(4) -0.0370(4)
H4 H -0.1430(4) 0.1260(3) -0.2480(3)
H5 H -0.2200(4) 0.2330(4) -0.1640(4)
H6 H 0.0260(4) 0.3650(4) -0.1180(4)
H7 H 0.1030(4) 0.2650(4) -0.2080(4)
H8 H 0.5440(4) 0.1480(4) -0.0260(4)
H9 H 0.7680(4) -0.3760(4) -0.1130(4)
H10 H 0.6920(5) -0.4360(4) -0.0940(4)
H11 H 0.6460(4) -0.1390(3) -0.2710(4)
H12 H 0.7490(4) -0.2600(4) -0.2060(4)
H13 H 0.5210(4) -0.4000(4) -0.1410(4)
H14 H 0.4160(4) -0.2930(4) -0.2130(4)
H15 H 0.2700(4) -0.2130(4) -0.0320(5)
H16 H 0.2420(6) -0.2610(6) -0.1200(6)
H17 H 0.3100(8) -0.1770(7) -0.1280(8)
H18 H -0.1110(4) -0.0600(4) -0.0380(4)
H19 H -0.0820(5) -0.1410(5) -0.0090(5)
H20 H -0.1330(5) -0.1490(5) -0.0870(5)
H21 H 0.3850(4) 0.2300(4) -0.0300(4)
H22 H 0.3570(6) 0.1630(5) 0.0370(6)
H23 H 0.3020(5) 0.1760(5) -0.0670(5)
H24 H 0.7020(5) 0.0250(5) -0.0300(6)
H25 H 0.7040(5) 0.0950(5) -0.1040(5)
H26 H 0.7060(6) -0.0060(6) -0.1310(6)
N8A N 0.2910(4) 0.0897(3) -0.3715(4)
H9A H 0.2320(4) 0.1240(4) -0.3870(4)
H10A H 0.3080(5) 0.0640(4) -0.4060(4)
Cu1A Cu 0.7478(1) -0.5054(1) -0.2288(1)
O5 O 0.6571(4) 0.0218(4) -0.4519(4)
O6 O 0.8027(4) -0.0579(4) -0.3058(5)
loop_
_geom_bond_atom_site_label_1
_geom_bond_atom_site_label_2
_geom_bond_site_symmetry_1
_geom_bond_site_symmetry_2
S1 O1 1_555 1_555
S2 O3 1_555 1_555
O2 S1 1_555 1_555
O4 S2 1_555 1_555
N1 Cu1 1_555 1_555
N2 C3 1_555 1_555
N3 S1 1_555 1_555
N4 C8 1_555 1_555
N5 Cu1 1_555 1_555
N6 C13 1_555 1_555
N7 S2 1_555 1_555
N8 C18 1_555 1_555
Cu1 N3 1_555 1_555
C1 N1 1_555 1_555
C2 C1 1_555 1_555
C3 C2 1_555 1_555
C4 N1 1_555 1_555
C5 S1 1_555 1_555
C6 C5 1_555 1_555
C7 C6 1_555 1_555
C8 C7 1_555 1_555
C9 C8 1_555 1_555
C10 C5 1_555 1_555
C11 N5 1_555 1_555
C12 C11 1_555 1_555
C13 C12 1_555 1_555
C14 N5 1_555 1_555
C15 S2 1_555 1_555
C16 C15 1_555 1_555
C17 C16 1_555 1_555
C18 C17 1_555 1_555
C19 C18 1_555 1_555
C20 C15 1_555 1_555
C21 C1 1_555 1_555
C22 C3 1_555 1_555
C23 C11 1_555 1_555
C24 C13 1_555 1_555
H1 C2 1_555 1_555
H2 N4 1_555 1_555
H3 N4 1_555 1_555
H4 C6 1_555 1_555
H5 C7 1_555 1_555
H6 C9 1_555 1_555
H7 C10 1_555 1_555
H8 C12 1_555 1_555
H9 N8 1_555 1_555
H10 N8 1_555 1_555
H11 C16 1_555 1_555
H12 C17 1_555 1_555
H13 C19 1_555 1_555
H14 C20 1_555 1_555
H15 C21 1_555 1_555
H16 C21 1_555 1_555
H17 C21 1_555 1_555
H18 C22 1_555 1_555
H19 C22 1_555 1_555
H20 C22 1_555 1_555
H21 C23 1_555 1_555
H22 C23 1_555 1_555
H23 C23 1_555 1_555
H24 C24 1_555 1_555
H25 C24 1_555 1_555
H26 C24 1_555 1_555
N8A Cu1 1_555 1_555
H9A N8A 1_555 1_555
H10A N8A 1_555 1_555
Cu1A N8 1_555 1_555
N2 C4 1_555 1_555
N3 C4 1_555 1_555
N6 C14 1_555 1_555
N7 Cu1 1_555 1_555
N7 C14 1_555 1_555
C9 C10 1_555 1_555
C19 C20 1_555 1_555

#END
