
#######################################################################
#
#                 Cambridge Crystallographic Data Centre
#                                CCDC 
#
#######################################################################
#
# If this CIF has been generated from an entry in the Cambridge 
# Structural Database, then it will include bibliographic, chemical, 
# crystal, experimental, refinement or atomic coordinate data resulting 
# from the CCDC's data processing and validation procedures.
#
#######################################################################

data_XIQQIY
_symmetry_cell_setting           monoclinic
_symmetry_space_group_name_H-M   'P 21/c'
_symmetry_Int_Tables_number      14
_space_group_name_Hall           '-P 2ybc'
loop_
_symmetry_equiv_pos_site_id
_symmetry_equiv_pos_as_xyz
1 x,y,z
2 -x,1/2+y,1/2-z
3 -x,-y,-z
4 x,1/2-y,1/2+z
_cell_length_a                   7.8921(18)
_cell_length_b                   15.367(4)
_cell_length_c                   18.745(4)
_cell_angle_alpha                90
_cell_angle_beta                 97.881(4)
_cell_angle_gamma                90
_cell_volume                     2251.88
loop_
_atom_site_label
_atom_site_type_symbol
_atom_site_fract_x
_atom_site_fract_y
_atom_site_fract_z
O1 O -0.3167(6) 0.4968(3) 0.6580(3)
H1 H -0.4019 0.5305 0.6480
H2 H -0.3079 0.4822 0.7021
O5 O 0.0190(6) 0.0124(3) 0.2468(3)
O6 O 0.1673(6) 0.0329(3) 0.1591(2)
C1 C 0.1396(8) 0.0486(4) 0.2224(3)
C2 C 0.2535(8) 0.1132(4) 0.2665(3)
H7 H 0.2334 0.1699 0.2456
H8 H 0.3705 0.0981 0.2637
N1 N 0.2295(7) 0.1171(3) 0.3418(3)
H9 H 0.1726 0.1623 0.3578
O7 O -0.1444(6) 0.4819(3) 0.5405(3)
O8 O -0.1164(6) 0.3907(3) 0.4507(2)
C3 C -0.1276(8) 0.4086(4) 0.5153(4)
C4 C -0.1369(10) 0.3332(4) 0.5659(4)
H10 H -0.2559 0.3202 0.5691
H11 H -0.0823 0.3494 0.6136
N2 N -0.0546(8) 0.2563(3) 0.5424(3)
H12 H -0.0641 0.2445 0.4950
C5 C 0.0335(9) 0.2021(4) 0.5889(4)
Gd1 Gd -0.05987(4) 0.578500(18) 0.636700(16)
O9 O 0.0064(6) -0.2560(3) 0.6389(3)
O10 O 0.1731(5) -0.3429(3) 0.7084(3)
O11 O 0.3400(7) -0.1598(3) 0.5862(3)
O12 O -0.2687(6) 0.6501(3) 0.5546(3)
H13 H -0.2919 0.6239 0.5144
H14 H -0.3542 0.6557 0.5773
O13 O -0.2007(5) 0.6511(3) 0.7250(3)
H15 H -0.1546 0.6446 0.7684
H16 H -0.3085 0.6441 0.7201
N3 N 0.2094(7) -0.1115(3) 0.6765(3)
H17 H 0.1547 -0.0676 0.6954
C6 C 0.2255(7) -0.0193(4) 0.5733(3)
C7 C 0.2608(8) -0.1016(4) 0.6132(4)
C8 C 0.1329(8) -0.2679(4) 0.6854(4)
C9 C 0.2438(8) 0.0591(4) 0.4623(3)
C10 C 0.1176(8) 0.1270(4) 0.5583(3)
C11 C 0.2719(8) -0.0144(4) 0.5046(3)
H18 H 0.3252 -0.0640 0.4859
C12 C 0.1696(8) 0.1313(4) 0.4903(3)
H19 H 0.1528 0.1840 0.4627
C13 C 0.2402(8) -0.1919(4) 0.7171(4)
H20 H 0.2166 -0.1821 0.7659
H21 H 0.3602 -0.2072 0.7197
C14 C 0.1460(8) 0.0530(4) 0.5989(4)
H22 H 0.1099 0.0509 0.6457
O14 O 0.3791(6) -0.0052(3) 0.3701(2)
C15 C 0.2900(8) 0.0546(4) 0.3875(3)
O15 O 0.0372(8) 0.2134(3) 0.6530(3)
O5C O 0.0190(6) 0.4876(3) 0.7468(3)
O6C O 0.1673(6) 0.4671(3) 0.6591(2)
O8B O 0.1164(6) 0.6093(3) 0.5493(2)
Gd1C Gd -0.05987(4) -0.078500(18) 0.136700(16)
Gd1B Gd 0.05987(4) 0.421500(18) 0.363300(16)
Gd1_2 Gd -0.05987(4) -0.421500(18) 0.636700(16)
O9_2 O 0.0064(6) 0.7440(3) 0.6389(3)
O10_2 O 0.1731(5) 0.6571(3) 0.7084(3)
O2 O -0.5051(6) -0.0816(3) 0.2546(3)
H23 H -0.5482 -0.0527 0.2862
H24 H -0.5673 -0.1252 0.2416
O3 O -0.4111(8) -0.1058(5) -0.0851(4)
H3 H -0.5097 -0.0904 -0.1051
H4 H -0.3355 -0.0851 -0.1085
O4 O -0.5490(6) -0.1778(3) 0.1098(3)
H5 H -0.6215 -0.2031 0.0789
H6 H -0.5898 -0.1296 0.1217
O16 O -0.5308(15) -0.2866(6) 0.8863(6)
H25 H -0.4973 -0.2985 0.8463
H26 H -0.4701 -0.2457 0.9068
loop_
_geom_bond_atom_site_label_1
_geom_bond_atom_site_label_2
_geom_bond_site_symmetry_1
_geom_bond_site_symmetry_2
O1 H1 1_555 1_555
H2 O1 1_555 1_555
O2 H23 1_555 1_555
O3 H3 1_555 1_555
H4 O3 1_555 1_555
O4 H5 1_555 1_555
H6 O4 1_555 1_555
O5 C1 1_555 1_555
O6 C1 1_555 1_555
C1 C2 1_555 1_555
C2 H7 1_555 1_555
H8 C2 1_555 1_555
N1 C2 1_555 1_555
H9 N1 1_555 1_555
O7 C3 1_555 1_555
O8 C3 1_555 1_555
C3 C4 1_555 1_555
C4 H10 1_555 1_555
H11 C4 1_555 1_555
N2 C4 1_555 1_555
H12 N2 1_555 1_555
C5 N2 1_555 1_555
Gd1 O1 1_555 1_555
O9 C8 1_555 1_555
O10 C8 1_555 1_555
O11 C7 1_555 1_555
O12 Gd1 1_555 1_555
H13 O12 1_555 1_555
H14 O12 1_555 1_555
O13 Gd1 1_555 1_555
H15 O13 1_555 1_555
H16 O13 1_555 1_555
N3 H17 1_555 1_555
C6 C7 1_555 1_555
C7 N3 1_555 1_555
C8 C13 1_555 1_555
C9 C11 1_555 1_555
C10 C5 1_555 1_555
C11 C6 1_555 1_555
H18 C11 1_555 1_555
C12 C9 1_555 1_555
H19 C12 1_555 1_555
C13 N3 1_555 1_555
H20 C13 1_555 1_555
H21 C13 1_555 1_555
C14 C6 1_555 1_555
H22 C14 1_555 1_555
O14 C15 1_555 1_555
C15 N1 1_555 1_555
O15 C5 1_555 1_555
H24 O2 1_555 1_555
O16 H25 1_555 1_555
H26 O16 1_555 1_555
O5C Gd1 1_555 1_555
O6C Gd1 1_555 1_555
O8B Gd1 1_555 1_555
Gd1C O5 1_555 1_555
Gd1B O8 1_555 1_555
Gd1_2 O9 1_555 1_555
O9_2 Gd1 1_555 1_555
O10_2 Gd1 1_555 1_555
O6 Gd1C 1_555 1_555
O7 Gd1 1_555 1_555
O10 Gd1_2 1_555 1_555
C9 C15 1_555 1_555
C10 C12 1_555 1_555
C10 C14 1_555 1_555

#END
