
#######################################################################
#
#                 Cambridge Crystallographic Data Centre
#                                CCDC 
#
#######################################################################
#
# If this CIF has been generated from an entry in the Cambridge 
# Structural Database, then it will include bibliographic, chemical, 
# crystal, experimental, refinement or atomic coordinate data resulting 
# from the CCDC's data processing and validation procedures.
#
#######################################################################

data_XIQQUK
_symmetry_cell_setting           monoclinic
_symmetry_space_group_name_H-M   'P 21/c'
_symmetry_Int_Tables_number      14
_space_group_name_Hall           '-P 2ybc'
loop_
_symmetry_equiv_pos_site_id
_symmetry_equiv_pos_as_xyz
1 x,y,z
2 -x,1/2+y,1/2-z
3 -x,-y,-z
4 x,1/2-y,1/2+z
_cell_length_a                   7.929(2)
_cell_length_b                   15.608(5)
_cell_length_c                   19.077(6)
_cell_angle_alpha                90
_cell_angle_beta                 96.943(4)
_cell_angle_gamma                90
_cell_volume                     2343.58
loop_
_atom_site_label
_atom_site_type_symbol
_atom_site_fract_x
_atom_site_fract_y
_atom_site_fract_z
C1 C 0.7440(7) 0.0586(4) -0.5371(3)
H1 H 0.1760 0.6139 -0.4741
C2 C 0.7694(6) -0.0132(4) -0.4981(3)
H2 H 0.8237 -0.0597 -0.5160
C3 C 0.7201(7) -0.0186(4) -0.4305(3)
C4 C 0.6411(6) 0.0522(3) -0.4040(3)
H3 H 0.6069 0.0499 -0.3591
C5 C 0.6122(7) 0.1258(4) -0.4437(3)
C6 C 0.6633(6) 0.1306(4) -0.5130(3)
H4 H 0.6454 0.1802 -0.5399
C7 C 0.7896(7) 0.0556(3) -0.6122(3)
C8 C 0.7523(7) 0.1113(3) -0.7316(3)
H5 H 0.8681 0.0951 -0.7342
H6 H 0.7361 0.1675 -0.7519
C9 C 0.6400(7) 0.0496(4) -0.7746(3)
C10 C 0.7533(6) -0.1021(3) -0.3908(3)
C11 C 0.7449(7) -0.1890(3) -0.2878(3)
H7 H 0.7278 -0.1794 -0.2390
H8 H 0.8633 -0.2039 -0.2888
C12 C 0.6336(6) -0.2640(3) -0.3158(3)
C13 C 0.5309(8) 0.2015(4) -0.4130(3)
C14 C 0.3605(7) 0.3304(3) -0.4320(3)
H9 H 0.4192 0.3460 -0.3862
H10 H 0.2430 0.3183 -0.4263
C15 C 0.3689(7) 0.4036(4) -0.4817(3)
C16 C 0.0723(6) 0.6933(4) -0.4339(3)
H11 H 0.0984 0.7536 -0.4264
H12 H -0.0123 0.6887 -0.4749
C17 C -0.0009(7) 0.6599(4) -0.3716(3)
H13 H -0.1224 0.6578 -0.3816
H14 H 0.0421 0.6033 -0.3607
H15 H 0.0301 0.6969 -0.3319
La1 La 0.43041(4) 0.57972(2) -0.362560(16)
N1 N 0.7276(6) 0.1150(3) -0.6575(2)
H16 H 0.6721 0.1571 -0.6424
N2 N 0.7087(6) -0.1085(3) -0.3268(2)
H17 H 0.6597 -0.0668 -0.3079
N3 N 0.4407(6) 0.2539(3) -0.4572(2)
H18 H 0.4276 0.2429 -0.5017
O1 O 0.8814(5) -0.0036(2) -0.6288(2)
O2 O 0.6660(5) 0.0375(2) -0.83841(19)
O3 O 0.5198(5) 0.0127(2) -0.75005(18)
O4 O 0.8216(5) -0.1613(2) -0.4201(2)
O5 O 0.5018(5) -0.2531(2) -0.35764(19)
O6 O 0.6812(5) -0.3379(2) -0.2943(2)
O7 O 0.3388(5) 0.4765(2) -0.45833(19)
O8 O 0.3886(6) 0.3893(2) -0.54525(19)
O9 O 0.1630(5) 0.4963(2) -0.3376(2)
H19 H 0.1580 0.4950 -0.2934
H20 H 0.1682 0.4454 -0.3531
O10 O 0.2858(5) 0.6542(2) -0.2684(2)
H21 H 0.3599 0.6761 -0.2377
H22 H 0.2278 0.6174 -0.2489
O11 O 0.2126(5) 0.6527(3) -0.4473(2)
O12 O 0.5452(8) 0.2145(3) -0.3503(2)
La1_2 La 0.43041(4) -0.42028(2) -0.362560(16)
La1C La 0.43041(4) -0.07972(2) -0.862560(16)
La1B La 0.56959(4) 0.42028(2) -0.637440(16)
O2C O 0.6660(5) 0.4625(2) -0.33841(19)
O3C O 0.5198(5) 0.4873(2) -0.25005(18)
O5_2 O 0.5018(5) 0.7469(2) -0.35764(19)
O6_2 O 0.6812(5) 0.6621(2) -0.2943(2)
O8B O 0.6114(6) 0.6107(2) -0.45475(19)
O13 O 0.0992(5) 0.5984(2) -0.58315(19)
H23 H 0.1123 0.5870 -0.6257
H24 H 0.0734 0.6510 -0.5797
O14 O 0.0217(5) 0.4179(3) -0.7830(2)
H25 H -0.0444 0.4581 -0.7988
H26 H 0.1213 0.4377 -0.7721
O15 O 0.0239(9) 0.2868(5) -0.8879(4)
H27 H 0.0221 0.3210 -0.8533
H28 H 0.0705 0.3113 -0.9204
loop_
_geom_bond_atom_site_label_1
_geom_bond_atom_site_label_2
_geom_bond_site_symmetry_1
_geom_bond_site_symmetry_2
C1 C2 1_555 1_555
H1 O11 1_555 1_555
C2 H2 1_555 1_555
C3 C2 1_555 1_555
C4 C3 1_555 1_555
H3 C4 1_555 1_555
C5 C4 1_555 1_555
C6 C1 1_555 1_555
H4 C6 1_555 1_555
C7 C1 1_555 1_555
C8 H5 1_555 1_555
H6 C8 1_555 1_555
C9 C8 1_555 1_555
C10 C3 1_555 1_555
C11 H7 1_555 1_555
H8 C11 1_555 1_555
C12 C11 1_555 1_555
C13 C5 1_555 1_555
C14 H9 1_555 1_555
H10 C14 1_555 1_555
C15 C14 1_555 1_555
C16 H11 1_555 1_555
H12 C16 1_555 1_555
C17 C16 1_555 1_555
H13 C17 1_555 1_555
H14 C17 1_555 1_555
H15 C17 1_555 1_555
La1 O7 1_555 1_555
N1 C7 1_555 1_555
H16 N1 1_555 1_555
N2 C10 1_555 1_555
H17 N2 1_555 1_555
N3 C13 1_555 1_555
H18 N3 1_555 1_555
O1 C7 1_555 1_555
O2 C9 1_555 1_555
O3 C9 1_555 1_555
O4 C10 1_555 1_555
O5 C12 1_555 1_555
O6 C12 1_555 1_555
O7 C15 1_555 1_555
O8 C15 1_555 1_555
O9 La1 1_555 1_555
H19 O9 1_555 1_555
H20 O9 1_555 1_555
O10 La1 1_555 1_555
H21 O10 1_555 1_555
H22 O10 1_555 1_555
O11 C16 1_555 1_555
O12 C13 1_555 1_555
O13 H23 1_555 1_555
H24 O13 1_555 1_555
O14 H25 1_555 1_555
H26 O14 1_555 1_555
O15 H27 1_555 1_555
H28 O15 1_555 1_555
La1_2 O5 1_555 1_555
La1C O2 1_555 1_555
La1B O8 1_555 1_555
O2C La1 1_555 1_555
O3C La1 1_555 1_555
O5_2 La1 1_555 1_555
O6_2 La1 1_555 1_555
O8B La1 1_555 1_555
C5 C6 1_555 1_555
C8 N1 1_555 1_555
C11 N2 1_555 1_555
C14 N3 1_555 1_555
La1 O11 1_555 1_555
O3 La1C 1_555 1_555
O6 La1_2 1_555 1_555

#END
