
#######################################################################
#
#                 Cambridge Crystallographic Data Centre
#                                CCDC 
#
#######################################################################
#
# If this CIF has been generated from an entry in the Cambridge 
# Structural Database, then it will include bibliographic, chemical, 
# crystal, experimental, refinement or atomic coordinate data resulting 
# from the CCDC's data processing and validation procedures.
#
#######################################################################

data_XIQQOE
_symmetry_cell_setting           monoclinic
_symmetry_space_group_name_H-M   'P 21/c'
_symmetry_Int_Tables_number      14
_space_group_name_Hall           '-P 2ybc'
loop_
_symmetry_equiv_pos_site_id
_symmetry_equiv_pos_as_xyz
1 x,y,z
2 -x,1/2+y,1/2-z
3 -x,-y,-z
4 x,1/2-y,1/2+z
_cell_length_a                   7.7512(4)
_cell_length_b                   15.3581(9)
_cell_length_c                   19.0972(11)
_cell_angle_alpha                90
_cell_angle_beta                 96.755(2)
_cell_angle_gamma                90
_cell_volume                     2257.62
loop_
_atom_site_label
_atom_site_type_symbol
_atom_site_fract_x
_atom_site_fract_y
_atom_site_fract_z
C1 C -0.2465(7) -0.4413(3) 0.0375(3)
C2 C -0.2735(8) -0.5161(4) -0.0038(3)
H1 H -0.3250 -0.5645 0.0143
C3 C -0.2237(8) -0.5195(4) -0.0727(3)
C4 C -0.1456(8) -0.4478(4) -0.0977(3)
H2 H -0.1096 -0.4496 -0.1424
C5 C -0.1193(7) -0.3733(4) -0.0580(3)
C6 C -0.1733(8) -0.3692(4) 0.0109(3)
H3 H -0.1589 -0.3183 0.0373
C7 C -0.2911(8) -0.4459(4) 0.1130(3)
C8 C -0.2555(8) -0.3875(4) 0.2323(3)
H4 H -0.3757 -0.4027 0.2357
H5 H -0.2360 -0.3299 0.2526
C9 C -0.1390(8) -0.4521(4) 0.2770(3)
C10 C -0.2614(7) -0.6036(4) -0.1124(4)
C11 C -0.2444(8) -0.6922(4) -0.2178(4)
H6 H -0.2207 -0.6827 -0.2660
H7 H -0.3662 -0.7073 -0.2188
C12 C -0.1321(7) -0.7673(3) -0.1855(3)
C13 C -0.0325(8) -0.2970(4) -0.0890(3)
C14 C 0.1373(7) -0.1665(4) -0.0666(3)
H8 H 0.0799 -0.1494 -0.1124
H9 H 0.2577 -0.1794 -0.0717
C15 C 0.1293(8) -0.0920(4) -0.0150(4)
N1 N -0.2312(7) -0.3831(3) 0.1592(3)
H10 H -0.1770 -0.3393 0.1442
N2 N -0.2088(7) -0.6115(3) -0.1768(3)
H11 H -0.1541 -0.5694 -0.1941
N3 N 0.0543(6) -0.2436(3) -0.0426(2)
H12 H 0.0610 -0.2549 0.0018
Nd1 Nd -0.06047(4) -0.078440(19) 0.136630(17)
O1 O -0.3786(5) -0.5060(2) 0.1300(2)
O2 O -0.0183(5) -0.4875(2) 0.2529(2)
O3 O -0.1670(5) -0.4668(3) 0.3410(2)
O4 O -0.3391(5) -0.6596(2) -0.0857(2)
O5 O -0.0068(5) -0.7562(3) -0.1384(2)
O6 O -0.1736(5) -0.8427(2) -0.2075(2)
O7 O -0.0365(5) -0.2857(3) -0.1540(2)
O8 O 0.1156(6) -0.1083(3) 0.0501(2)
O9 O 0.1446(6) -0.0202(3) -0.0405(2)
O10 O -0.3171(6) 0.0019(3) 0.1581(2)
H13 H -0.3322 0.0529 0.1410
H14 H -0.3607 -0.0087 0.1961
O11 O -0.2704(6) -0.1479(3) 0.0544(2)
H15 H -0.2274 -0.1599 0.0165
H16 H -0.3103 -0.1944 0.0701
O12 O -0.2026(5) -0.1521(2) 0.2257(2)
H17 H -0.1285 -0.1744 0.2576
H18 H -0.2623 -0.1156 0.2453
Nd1B Nd 0.06047(4) -0.921560(19) -0.136630(17)
Nd1A Nd 0.06047(4) -0.578440(19) 0.363370(17)
Nd1B_2 Nd 0.06047(4) 0.078440(19) -0.136630(17)
O2A O 0.0183(5) 0.0125(2) 0.2471(2)
O3A O 0.1670(5) 0.0332(3) 0.1590(2)
O5B O 0.0068(5) -0.2438(3) 0.1384(2)
O6B O 0.1736(5) -0.1573(2) 0.2075(2)
O9B O -0.1446(6) 0.0202(3) 0.0405(2)
O13 O -0.4942(5) -0.5823(3) 0.2442(3)
H19 H -0.4079 -0.5514 0.2386
H20 H -0.4611 -0.6315 0.2613
O14 O -0.4109(5) -0.3919(3) 0.4120(2)
H21 H -0.4579 -0.3919 0.4501
H22 H -0.3341 -0.4308 0.4152
O15 O -0.4608(5) -0.7859(3) 0.6188(2)
H23 H -0.5355 -0.7507 0.5987
H24 H -0.4837 -0.8373 0.6037
O16 O -0.4483(5) -0.6773(3) 0.3935(2)
H25 H -0.3440 -0.6666 0.3908
H26 H -0.4818 -0.7194 0.3658
loop_
_geom_bond_atom_site_label_1
_geom_bond_atom_site_label_2
_geom_bond_site_symmetry_1
_geom_bond_site_symmetry_2
C1 C2 1_555 1_555
C2 H1 1_555 1_555
C3 C2 1_555 1_555
C4 C3 1_555 1_555
H2 C4 1_555 1_555
C5 C4 1_555 1_555
C6 C1 1_555 1_555
H3 C6 1_555 1_555
C7 C1 1_555 1_555
C8 H4 1_555 1_555
H5 C8 1_555 1_555
C9 C8 1_555 1_555
C10 C3 1_555 1_555
C11 H6 1_555 1_555
H7 C11 1_555 1_555
C12 C11 1_555 1_555
C13 C5 1_555 1_555
C14 H8 1_555 1_555
H9 C14 1_555 1_555
C15 C14 1_555 1_555
N1 C7 1_555 1_555
H10 N1 1_555 1_555
N2 C10 1_555 1_555
H11 N2 1_555 1_555
N3 C13 1_555 1_555
H12 N3 1_555 1_555
Nd1 O8 1_555 1_555
O1 C7 1_555 1_555
O2 C9 1_555 1_555
O3 C9 1_555 1_555
O4 C10 1_555 1_555
O5 C12 1_555 1_555
O6 C12 1_555 1_555
O7 C13 1_555 1_555
O8 C15 1_555 1_555
O9 C15 1_555 1_555
O10 Nd1 1_555 1_555
H13 O10 1_555 1_555
H14 O10 1_555 1_555
O11 Nd1 1_555 1_555
H15 O11 1_555 1_555
H16 O11 1_555 1_555
O12 Nd1 1_555 1_555
H17 O12 1_555 1_555
H18 O12 1_555 1_555
O13 H19 1_555 1_555
H20 O13 1_555 1_555
O14 H21 1_555 1_555
H22 O14 1_555 1_555
O15 H23 1_555 1_555
H24 O15 1_555 1_555
O16 H25 1_555 1_555
H26 O16 1_555 1_555
Nd1B O5 1_555 1_555
Nd1A O2 1_555 1_555
Nd1B_2 O9 1_555 1_555
O2A Nd1 1_555 1_555
O3A Nd1 1_555 1_555
O5B Nd1 1_555 1_555
O6B Nd1 1_555 1_555
O9B Nd1 1_555 1_555
C5 C6 1_555 1_555
C8 N1 1_555 1_555
C11 N2 1_555 1_555
C14 N3 1_555 1_555
O3 Nd1A 1_555 1_555
O6 Nd1B 1_555 1_555

#END
