
#######################################################################
#
#                 Cambridge Crystallographic Data Centre
#                                CCDC 
#
#######################################################################
#
# If this CIF has been generated from an entry in the Cambridge 
# Structural Database, then it will include bibliographic, chemical, 
# crystal, experimental, refinement or atomic coordinate data resulting 
# from the CCDC's data processing and validation procedures.
#
#######################################################################

data_XIQZIH
_symmetry_cell_setting           monoclinic
_symmetry_space_group_name_H-M   'C 2'
_symmetry_Int_Tables_number      5
_space_group_name_Hall           'C 2y'
loop_
_symmetry_equiv_pos_site_id
_symmetry_equiv_pos_as_xyz
1 x,y,z
2 -x,y,-z
3 1/2+x,1/2+y,z
4 1/2-x,1/2+y,-z
_cell_length_a                   17.4878(17)
_cell_length_b                   16.5108(16)
_cell_length_c                   7.1382(7)
_cell_angle_alpha                90
_cell_angle_beta                 99.026(2)
_cell_angle_gamma                90
_cell_volume                     2035.54
loop_
_atom_site_label
_atom_site_type_symbol
_atom_site_fract_x
_atom_site_fract_y
_atom_site_fract_z
Cu1 Cu 0.78504(4) 0.77292(18) -0.00664(9)
N1 N 0.7781(4) 0.6658(5) 0.1482(12)
N2 N 0.7221(5) 0.3653(6) 0.8246(12)
N3 N 0.8738(2) 0.7732(7) -0.1563(6)
N4 N 0.6800(3) 0.7727(6) -0.1899(6)
C1 C 0.8332(6) 0.6412(6) 0.2673(16)
H1 H 0.8819 0.6627 0.2619
C2 C 0.8272(7) 0.5840(6) 0.4076(15)
H2 H 0.8709 0.5694 0.4927
C3 C 0.7570(5) 0.5489(5) 0.4209(13)
C4 C 0.6983(4) 0.5745(5) 0.2875(11)
H3 H 0.6491 0.5529 0.2849
C5 C 0.7103(4) 0.6316(6) 0.1568(12)
H4 H 0.6681 0.6474 0.0683
C6 C 0.7452(5) 0.4866(7) 0.5651(12)
C7 C 0.6912(5) 0.4937(6) 0.6806(13)
H5 H 0.6609 0.5401 0.6753
C8 C 0.6810(6) 0.4337(6) 0.8039(13)
H6 H 0.6427 0.4408 0.8793
C9 C 0.7766(6) 0.3572(6) 0.7026(12)
H7 H 0.8052 0.3096 0.7080
C10 C 0.7903(6) 0.4143(6) 0.5777(12)
H8 H 0.8282 0.4068 0.5013
C11 C 0.8875(7) 0.7062(7) -0.2494(16)
H9 H 0.8628 0.6586 -0.2234
C12 C 0.9370(6) 0.7041(7) -0.3831(15)
H10 H 0.9448 0.6559 -0.4449
C13 C 0.9746(3) 0.7737(7) -0.4240(7)
C14 C 0.9602(6) 0.8397(7) -0.3290(16)
H11 H 0.9842 0.8882 -0.3515
C15 C 0.9097(6) 0.8375(8) -0.1963(16)
H12 H 0.9015 0.8852 -0.1329
C16 C 0.6646(5) 0.7223(5) -0.3339(10)
H13 H 0.7030 0.6857 -0.3534
C17 C 0.5962(4) 0.7196(5) -0.4571(11)
H14 H 0.5894 0.6823 -0.5557
C18 C 0.5377(3) 0.7727(6) -0.4340(8)
C19 C 0.5530(5) 0.8271(5) -0.2817(11)
H15 H 0.5156 0.8644 -0.2597
C20 C 0.6222(5) 0.8253(6) -0.1672(12)
H16 H 0.6308 0.8620 -0.0673
Cu1C Cu 0.71496(4) 1.27292(18) 1.00664(9)
Cu1C_2 Cu 0.71496(4) 0.27292(18) 1.00664(9)
Cu1A Cu 1.21496(4) 0.77292(18) -0.99336(9)
Cu1A_2 Cu 0.21496(4) 0.77292(18) -0.99336(9)
N1C N 0.7219(4) 1.1658(5) 0.8518(12)
N2C N 0.7779(5) 0.8653(6) 0.1754(12)
N2_2 N 0.7221(5) 1.3653(6) 0.8246(12)
N3A N 1.1262(2) 0.7732(7) -0.8437(6)
N3C N 0.6262(2) 1.2732(7) 1.1563(6)
N4A N 0.3200(3) 0.7727(6) -0.8101(6)
N4C N 0.8200(3) 1.2727(6) 1.1899(6)
C1C C 0.6668(6) 1.1412(6) 0.7327(16)
H1C H 0.6181 1.1627 0.7381
C2C C 0.6728(7) 1.0840(6) 0.5924(15)
H2C H 0.6291 1.0694 0.5073
C3C C 0.7430(5) 1.0489(5) 0.5791(13)
C4C C 0.8017(4) 1.0745(5) 0.7125(11)
H3C H 0.8509 1.0529 0.7151
C5C C 0.7897(4) 1.1316(6) 0.8432(12)
H4C H 0.8319 1.1474 0.9317
C6C C 0.7548(5) 0.9866(7) 0.4349(12)
C7C C 0.8088(5) 0.9937(6) 0.3194(13)
H5C H 0.8391 1.0401 0.3247
C8C C 0.8190(6) 0.9337(6) 0.1961(13)
H6C H 0.8573 0.9408 0.1207
C9C C 0.7234(6) 0.8572(6) 0.2974(12)
H7C H 0.6948 0.8096 0.2920
C10C C 0.7097(6) 0.9143(6) 0.4223(12)
H8C H 0.6718 0.9068 0.4987
C11A C 1.1125(7) 0.7062(7) -0.7506(16)
H9A H 1.1372 0.6586 -0.7766
C12A C 1.0630(6) 0.7041(7) -0.6169(15)
H10A H 1.0552 0.6559 -0.5551
C13A C 1.0254(3) 0.7737(7) -0.5760(7)
C14A C 1.0398(6) 0.8397(7) -0.6710(16)
H11A H 1.0158 0.8882 -0.6485
C15A C 1.0903(6) 0.8375(8) -0.8037(16)
H12A H 1.0985 0.8852 -0.8671
C16A C 0.3354(5) 0.7223(5) -0.6661(10)
H13A H 0.2970 0.6857 -0.6466
C17A C 0.4038(4) 0.7196(5) -0.5429(11)
H14A H 0.4106 0.6823 -0.4443
C18A C 0.4623(3) 0.7727(6) -0.5660(8)
C19A C 0.4470(5) 0.8271(5) -0.7183(11)
H15A H 0.4844 0.8644 -0.7403
C20A C 0.3778(5) 0.8253(6) -0.8328(12)
H16A H 0.3692 0.8620 -0.9327
Cl2 Cl 0.5066(3) 0.5568(4) 0.1098(11)
O5 O 0.4792(11) 0.5327(13) 0.283(2)
O6 O 0.5874(6) 0.5388(13) 0.138(3)
O7 O 0.4955(12) 0.6422(7) 0.091(3)
O8 O 0.4684(12) 0.5116(14) -0.046(3)
Cl2A Cl 0.4934(3) 0.5568(4) -0.1098(11)
O5A O 0.5208(11) 0.5327(13) -0.283(2)
O6A O 0.4126(6) 0.5388(13) -0.138(3)
O7A O 0.5045(12) 0.6422(7) -0.091(3)
O8A O 0.5316(12) 0.5116(14) 0.046(3)
Cl1 Cl 0.5065(3) 0.9909(4) 0.1092(9)
O1 O 0.5815(6) 0.9981(10) 0.056(2)
O2 O 0.4752(8) 0.9116(6) 0.058(2)
O3 O 0.5138(9) 0.9983(11) 0.3157(13)
O4 O 0.4551(9) 1.0520(8) 0.027(2)
Cl1A Cl 0.4935(3) 0.9909(4) -0.1092(9)
O1A O 0.4185(6) 0.9981(10) -0.056(2)
O2A O 0.5248(8) 0.9116(6) -0.058(2)
O3A O 0.4862(9) 0.9983(11) -0.3157(13)
O4A O 0.5449(9) 1.0520(8) -0.027(2)
loop_
_geom_bond_atom_site_label_1
_geom_bond_atom_site_label_2
_geom_bond_site_symmetry_1
_geom_bond_site_symmetry_2
Cl1 O1 1_555 1_555
O1 Cl1A 1_555 1_555
O2 Cl1 1_555 1_555
O3 Cl1 1_555 1_555
O4 Cl1 1_555 1_555
Cu1 N1 1_555 1_555
N1 C1 1_555 1_555
N2 C8 1_555 1_555
N3 Cu1 1_555 1_555
N4 Cu1 1_555 1_555
C1 H1 1_555 1_555
C2 C1 1_555 1_555
H2 C2 1_555 1_555
C3 C2 1_555 1_555
C4 C3 1_555 1_555
H3 C4 1_555 1_555
C5 N1 1_555 1_555
H4 C5 1_555 1_555
C6 C3 1_555 1_555
C7 C6 1_555 1_555
H5 C7 1_555 1_555
C8 C7 1_555 1_555
H6 C8 1_555 1_555
C9 N2 1_555 1_555
H7 C9 1_555 1_555
C10 C6 1_555 1_555
H8 C10 1_555 1_555
C11 N3 1_555 1_555
H9 C11 1_555 1_555
C12 C11 1_555 1_555
H10 C12 1_555 1_555
C13 C12 1_555 1_555
C14 C13 1_555 1_555
H11 C14 1_555 1_555
C15 N3 1_555 1_555
H12 C15 1_555 1_555
C16 N4 1_555 1_555
H13 C16 1_555 1_555
C17 C16 1_555 1_555
H14 C17 1_555 1_555
C18 C17 1_555 1_555
C19 C18 1_555 1_555
H15 C19 1_555 1_555
C20 N4 1_555 1_555
H16 C20 1_555 1_555
Cl2 O5 1_555 1_555
O6 Cl2 1_555 1_555
O7 Cl2 1_555 1_555
O8 Cl2 1_555 1_555
Cl1A Cl1 1_555 1_555
O1A Cl1 1_555 1_555
O2A Cl1 1_555 1_555
O3A Cl1A 1_555 1_555
O4A Cl1 1_555 1_555
Cu1C N1C 1_555 1_555
Cu1C_2 N2 1_555 1_555
Cu1A N3A 1_555 1_555
Cu1A_2 N4A 1_555 1_555
N1C C1C 1_555 1_555
N2C Cu1 1_555 1_555
N2_2 Cu1C 1_555 1_555
N3A C11A 1_555 1_555
N3C Cu1C 1_555 1_555
N4A C16A 1_555 1_555
N4C Cu1C 1_555 1_555
C1C H1C 1_555 1_555
C2C C1C 1_555 1_555
H2C C2C 1_555 1_555
C3C C2C 1_555 1_555
C4C C3C 1_555 1_555
H3C C4C 1_555 1_555
C5C N1C 1_555 1_555
H4C C5C 1_555 1_555
C6C C3C 1_555 1_555
C7C C6C 1_555 1_555
H5C C7C 1_555 1_555
C8C N2C 1_555 1_555
H6C C8C 1_555 1_555
C9C N2C 1_555 1_555
H7C C9C 1_555 1_555
C10C C6C 1_555 1_555
H8C C10C 1_555 1_555
C11A H9A 1_555 1_555
C12A C11A 1_555 1_555
H10A C12A 1_555 1_555
C13A C13 1_555 1_555
C14A C13A 1_555 1_555
H11A C14A 1_555 1_555
C15A N3A 1_555 1_555
H12A C15A 1_555 1_555
C16A H13A 1_555 1_555
C17A C16A 1_555 1_555
H14A C17A 1_555 1_555
C18A C18 1_555 1_555
C19A C18A 1_555 1_555
H15A C19A 1_555 1_555
C20A N4A 1_555 1_555
H16A C20A 1_555 1_555
Cl2A Cl2 1_555 1_555
O5A Cl2A 1_555 1_555
O6A O8 1_555 1_555
O7A Cl2 1_555 1_555
O8A Cl2 1_555 1_555
O1 O4A 1_555 1_555
O2 Cl1A 1_555 1_555
O2 O2A 1_555 1_555
O4 Cl1A 1_555 1_555
O4 O1A 1_555 1_555
O4 O4A 1_555 1_555
C4 C5 1_555 1_555
C9 C10 1_555 1_555
C14 C15 1_555 1_555
C19 C20 1_555 1_555
O6 O8A 1_555 1_555
O7 Cl2A 1_555 1_555
O7 O7A 1_555 1_555
O8 Cl2A 1_555 1_555
O8 O8A 1_555 1_555
Cl1A O1A 1_555 1_555
Cl1A O2A 1_555 1_555
Cl1A O4A 1_555 1_555
C4C C5C 1_555 1_555
C7C C8C 1_555 1_555
C9C C10C 1_555 1_555
C12A C13A 1_555 1_555
C14A C15A 1_555 1_555
C17A C18A 1_555 1_555
C19A C20A 1_555 1_555
Cl2A O6A 1_555 1_555
Cl2A O7A 1_555 1_555
Cl2A O8A 1_555 1_555

#END
