
#######################################################################
#
#                 Cambridge Crystallographic Data Centre
#                                CCDC 
#
#######################################################################
#
# If this CIF has been generated from an entry in the Cambridge 
# Structural Database, then it will include bibliographic, chemical, 
# crystal, experimental, refinement or atomic coordinate data resulting 
# from the CCDC's data processing and validation procedures.
#
#######################################################################

data_XIRFIO
_symmetry_cell_setting           orthorhombic
_symmetry_space_group_name_H-M   'P b c a'
_symmetry_Int_Tables_number      61
_space_group_name_Hall           '-P 2ac 2ab'
loop_
_symmetry_equiv_pos_site_id
_symmetry_equiv_pos_as_xyz
1 x,y,z
2 1/2-x,-y,1/2+z
3 -x,1/2+y,1/2-z
4 1/2+x,1/2-y,-z
5 -x,-y,-z
6 1/2+x,y,1/2-z
7 x,1/2-y,1/2+z
8 1/2-x,1/2+y,z
_cell_length_a                   14.2225(8)
_cell_length_b                   8.2788(5)
_cell_length_c                   14.7043(8)
_cell_angle_alpha                90
_cell_angle_beta                 90
_cell_angle_gamma                90
_cell_volume                     1731.36
loop_
_atom_site_label
_atom_site_type_symbol
_atom_site_fract_x
_atom_site_fract_y
_atom_site_fract_z
C1 C 0.20311(17) 0.8001(3) 0.04422(16)
C2 C 0.13407(16) 0.7905(3) -0.03528(15)
H1 H 0.1599 0.7192 -0.0822
C3 C 0.11770(18) 0.9566(3) -0.07561(16)
H2 H 0.1781 1.0064 -0.0880
H3 H 0.0855 1.0230 -0.0311
C4 C 0.06047(18) 0.9543(3) -0.16261(16)
Fe1 Fe 0.02997(3) 0.68818(4) 0.14709(2)
O1 O 0.17406(12) 0.7638(2) 0.12267(11)
O2 O 0.28461(13) 0.8461(3) 0.02750(12)
O3 O 0.04782(12) 0.7240(2) -0.00225(12)
H4 H 0.018(2) 0.677(3) -0.0408(17)
O4 O 0.06326(15) 0.8301(2) -0.21102(12)
O5 O 0.01587(17) 1.0778(3) -0.18482(14)
O6 O 0.06641(13) 0.4258(2) 0.12724(12)
H5 H 0.1195(11) 0.402(4) 0.1098(18)
H6 H 0.0556(19) 0.378(4) 0.1741(13)
O7 O -0.11083(13) 0.6067(3) 0.12508(14)
H7 H -0.144(2) 0.595(5) 0.1692(14)
H8 H -0.143(2) 0.630(5) 0.0812(14)
Fe1F Fe 0.02997(3) 0.81182(4) -0.35291(2)
Fe1D Fe -0.02997(3) 1.31182(4) -0.14709(2)
O4F O 0.06326(15) 0.6699(2) 0.28898(12)
O5D O -0.01587(17) 0.9222(3) 0.18482(14)
O8 O -0.2284(3) 0.5249(6) 0.2582(3)
H9 H -0.2472 0.6044 0.2892
H10 H -0.2001 0.4884 0.3040
O9? O -0.1891(9) 0.5849(17) 0.2825(10)
H11? H -0.2473 0.6043 0.2888
H12? H -0.2002 0.4883 0.3036
loop_
_geom_bond_atom_site_label_1
_geom_bond_atom_site_label_2
_geom_bond_site_symmetry_1
_geom_bond_site_symmetry_2
C1 C2 1_555 1_555
C2 H1 1_555 1_555
C3 C2 1_555 1_555
H2 C3 1_555 1_555
H3 C3 1_555 1_555
C4 C3 1_555 1_555
Fe1 O1 1_555 1_555
O1 C1 1_555 1_555
O2 C1 1_555 1_555
O3 C2 1_555 1_555
H4 O3 1_555 1_555
O4 C4 1_555 1_555
O5 C4 1_555 1_555
O6 Fe1 1_555 1_555
H5 O6 1_555 1_555
H6 O6 1_555 1_555
O7 Fe1 1_555 1_555
H7 O7 1_555 1_555
H8 O7 1_555 1_555
O8 H9 1_555 1_555
H10 O8 1_555 1_555
Fe1F O4 1_555 1_555
Fe1D O5 1_555 1_555
O4F Fe1 1_555 1_555
O5D Fe1 1_555 1_555
Fe1 O3 1_555 1_555

#END
