
#######################################################################
#
#                 Cambridge Crystallographic Data Centre
#                                CCDC 
#
#######################################################################
#
# If this CIF has been generated from an entry in the Cambridge 
# Structural Database, then it will include bibliographic, chemical, 
# crystal, experimental, refinement or atomic coordinate data resulting 
# from the CCDC's data processing and validation procedures.
#
#######################################################################

data_XIRHEM
_symmetry_cell_setting           monoclinic
_symmetry_space_group_name_H-M   'P 21/c'
_symmetry_Int_Tables_number      14
_space_group_name_Hall           '-P 2ybc'
loop_
_symmetry_equiv_pos_site_id
_symmetry_equiv_pos_as_xyz
1 x,y,z
2 -x,1/2+y,1/2-z
3 -x,-y,-z
4 x,1/2-y,1/2+z
_cell_length_a                   13.834(3)
_cell_length_b                   11.661(2)
_cell_length_c                   9.988(2)
_cell_angle_alpha                90
_cell_angle_beta                 99.86(3)
_cell_angle_gamma                90
_cell_volume                     1587.45
loop_
_atom_site_label
_atom_site_type_symbol
_atom_site_fract_x
_atom_site_fract_y
_atom_site_fract_z
Cu1 Cu 0.82621(5) 0.77042(6) 0.15549(7)
O1 O 0.4913(4) 0.3131(5) 0.2555(6)
O2 O 0.6056(5) 0.1905(6) 0.3039(8)
O3 O 0.8450(3) 0.6052(4) 0.1489(4)
O4 O 0.9473(3) 0.7753(4) 0.2908(4)
O5 O 0.8694(3) 0.7033(4) 0.4489(4)
N1 N 0.6858(4) 0.7516(4) 0.0710(5)
N2 N 0.8117(4) 0.9467(4) 0.1846(5)
N3 N 0.5767(5) 0.2850(6) 0.2657(7)
C1 C 0.6773(4) 0.5540(5) 0.1479(6)
C2 C 0.7805(4) 0.5326(5) 0.1707(5)
C3 C 0.8105(5) 0.4200(6) 0.2173(6)
H1 H 0.8766 0.4006 0.2282
C4 C 0.7456(5) 0.3407(6) 0.2461(7)
H2 H 0.7677 0.2688 0.2781
C5 C 0.6451(5) 0.3667(6) 0.2278(6)
C6 C 0.6122(5) 0.4719(5) 0.1788(6)
H3 H 0.5455 0.4884 0.1661
C7 C 0.6381(4) 0.6600(6) 0.0865(6)
H4 H 0.5708 0.6619 0.0547
C8 C 0.6331(5) 0.8417(6) -0.0144(7)
H5 H 0.5644 0.8207 -0.0362
H6 H 0.6585 0.8453 -0.0991
C9 C 0.6408(5) 0.9577(6) 0.0489(7)
H7 H 0.6170 0.9539 0.1347
H8 H 0.5986 1.0102 -0.0099
C10 C 0.7438(5) 1.0050(6) 0.0742(7)
H9 H 0.7706 0.9991 -0.0092
H10 H 0.7410 1.0858 0.0964
C11 C 0.7785(6) 0.9636(6) 0.3160(6)
H11 H 0.7702 1.0440 0.3311
H12 H 0.8266 0.9329 0.3878
H13 H 0.7172 0.9248 0.3147
C12 C 0.9085(5) 1.0048(6) 0.1915(8)
H14 H 0.9020 1.0846 0.2119
H15 H 0.9303 0.9972 0.1057
H16 H 0.9556 0.9700 0.2615
C13 C 1.0367(5) 0.7595(6) 0.5095(7)
H17 H 1.0349 0.8321 0.5545
H18 H 1.0914 0.7581 0.4619
H19 H 1.0437 0.6990 0.5757
C14 C 0.9432(5) 0.7429(5) 0.4103(6)
Cu1C Cu 0.82621(5) 0.72958(6) 0.65549(7)
O5C O 0.8694(3) 0.7967(4) -0.0511(4)
loop_
_geom_bond_atom_site_label_1
_geom_bond_atom_site_label_2
_geom_bond_site_symmetry_1
_geom_bond_site_symmetry_2
Cu1 O3 1_555 1_555
O1 N3 1_555 1_555
O2 N3 1_555 1_555
O3 C2 1_555 1_555
O4 Cu1 1_555 1_555
O5 C14 1_555 1_555
N1 Cu1 1_555 1_555
N2 Cu1 1_555 1_555
N3 C5 1_555 1_555
C1 C2 1_555 1_555
C2 C3 1_555 1_555
C3 H1 1_555 1_555
C4 C3 1_555 1_555
H2 C4 1_555 1_555
C5 C4 1_555 1_555
C6 C1 1_555 1_555
H3 C6 1_555 1_555
C7 N1 1_555 1_555
H4 C7 1_555 1_555
C8 N1 1_555 1_555
H5 C8 1_555 1_555
H6 C8 1_555 1_555
C9 C8 1_555 1_555
H7 C9 1_555 1_555
H8 C9 1_555 1_555
C10 N2 1_555 1_555
H9 C10 1_555 1_555
H10 C10 1_555 1_555
C11 N2 1_555 1_555
H11 C11 1_555 1_555
H12 C11 1_555 1_555
H13 C11 1_555 1_555
C12 N2 1_555 1_555
H14 C12 1_555 1_555
H15 C12 1_555 1_555
H16 C12 1_555 1_555
C13 H17 1_555 1_555
H18 C13 1_555 1_555
H19 C13 1_555 1_555
C14 O4 1_555 1_555
Cu1C O5 1_555 1_555
O5C Cu1 1_555 1_555
C1 C7 1_555 1_555
C5 C6 1_555 1_555
C9 C10 1_555 1_555
C13 C14 1_555 1_555

#END
