
#######################################################################
#
#                 Cambridge Crystallographic Data Centre
#                                CCDC 
#
#######################################################################
#
# If this CIF has been generated from an entry in the Cambridge 
# Structural Database, then it will include bibliographic, chemical, 
# crystal, experimental, refinement or atomic coordinate data resulting 
# from the CCDC's data processing and validation procedures.
#
#######################################################################

data_XIRHOW
_symmetry_cell_setting           monoclinic
_symmetry_space_group_name_H-M   'P 21/n'
_symmetry_Int_Tables_number      14
_space_group_name_Hall           '-P 2yn'
loop_
_symmetry_equiv_pos_site_id
_symmetry_equiv_pos_as_xyz
1 x,y,z
2 1/2-x,1/2+y,1/2-z
3 -x,-y,-z
4 1/2+x,1/2-y,1/2+z
_cell_length_a                   5.2590(10)
_cell_length_b                   16.3420(10)
_cell_length_c                   8.1430(10)
_cell_angle_alpha                90
_cell_angle_beta                 97.9390(10)
_cell_angle_gamma                90
_cell_volume                     693.123
loop_
_atom_site_label
_atom_site_type_symbol
_atom_site_fract_x
_atom_site_fract_y
_atom_site_fract_z
Zn1 Zn 0.64624(4) 0.667220(10) 0.62940(10)
O1 O 0.6293(3) 0.78505(9) 0.57696(18)
O2 O 0.4252(3) 0.79266(9) 0.31917(17)
O3 O 0.9206(3) 0.87008(9) 0.28756(18)
O4 O 0.9313(3) 0.99480(9) 0.18210(18)
O5 O 0.3378(3) 0.63540(10) 0.4158(2)
O6 O 0.8804(3) 0.59570(10) 0.5220(2)
C1 C 0.5300(4) 0.82440(10) 0.4509(3)
C2 C 0.5241(4) 0.91560(10) 0.4733(2)
C3 C 0.6670(4) 0.97150(10) 0.3922(2)
C4 C 0.8534(4) 0.94420(10) 0.2782(2)
C5 C 0.3602(4) 0.94520(10) 0.5803(2)
H1 H 0.308(11) 0.672(3) 0.341(5)
H2 H 0.372(5) 0.5910(10) 0.370(3)
H3 H 1.008(4) 0.612(2) 0.478(3)
H4 H 0.795(5) 0.564(2) 0.452(3)
H5 H 0.252(4) 0.9090(10) 0.629(3)
Zn1B Zn 0.35376(4) 1.332780(10) 0.37060(10)
Zn1C Zn 0.14624(4) 0.832780(10) 0.12940(10)
Zn1C_2 Zn 1.14624(4) 0.832780(10) 0.12940(10)
Zn1A Zn 0.85376(4) 1.167220(10) 0.87060(10)
Zn1A_2 Zn -0.14624(4) 1.167220(10) 0.87060(10)
O1B O 0.3707(3) 1.21495(9) 0.42304(18)
O2B O 0.5748(3) 1.20734(9) 0.68083(17)
O2C O 0.9252(3) 0.70734(9) 0.81917(17)
O2A O 0.0748(3) 1.29266(9) 0.18083(17)
O3B O 0.0794(3) 1.12992(9) 0.71244(18)
O3C O 0.4206(3) 0.62992(9) 0.78756(18)
O3A O 0.5794(3) 1.37008(9) 0.21244(18)
O4B O 0.0687(3) 1.00520(9) 0.81790(18)
O5B O 0.6622(3) 1.36460(10) 0.5842(2)
O6B O 0.1196(3) 1.40430(10) 0.4780(2)
C1B C 0.4700(4) 1.17560(10) 0.5491(3)
C2B C 0.4759(4) 1.08440(10) 0.5267(2)
C3B C 0.3330(4) 1.02850(10) 0.6078(2)
C4B C 0.1466(4) 1.05580(10) 0.7218(2)
C5B C 0.6398(4) 1.05480(10) 0.4197(2)
H1B H 0.692(11) 1.328(3) 0.659(5)
H2B H 0.628(5) 1.4090(10) 0.630(3)
H3B H -0.008(4) 1.388(2) 0.522(3)
H4B H 0.205(5) 1.436(2) 0.548(3)
H5B H 0.748(4) 1.0910(10) 0.371(3)
loop_
_geom_bond_atom_site_label_1
_geom_bond_atom_site_label_2
_geom_bond_site_symmetry_1
_geom_bond_site_symmetry_2
Zn1 O1 1_555 1_555
O1 C1 1_555 1_555
O2 C1 1_555 1_555
O3 C4 1_555 1_555
O4 C4 1_555 1_555
O5 Zn1 1_555 1_555
O6 Zn1 1_555 1_555
C1 C2 1_555 1_555
C2 C3 1_555 1_555
C3 C4 1_555 1_555
C5 C2 1_555 1_555
H1 O5 1_555 1_555
H2 O5 1_555 1_555
H3 O6 1_555 1_555
H4 O6 1_555 1_555
H5 C5 1_555 1_555
Zn1B O1B 1_555 1_555
Zn1C O2 1_555 1_555
Zn1C_2 O3 1_555 1_555
Zn1A O2B 1_555 1_555
Zn1A_2 O3B 1_555 1_555
O1B C1B 1_555 1_555
O2B C1B 1_555 1_555
O2C Zn1 1_555 1_555
O2A Zn1B 1_555 1_555
O3B C4B 1_555 1_555
O3C Zn1 1_555 1_555
O3A Zn1B 1_555 1_555
O4B C4B 1_555 1_555
O5B Zn1B 1_555 1_555
O6B Zn1B 1_555 1_555
C1B C2B 1_555 1_555
C2B C3B 1_555 1_555
C3B C5 1_555 1_555
C4B C3B 1_555 1_555
C5B C3 1_555 1_555
H1B O5B 1_555 1_555
H2B O5B 1_555 1_555
H3B O6B 1_555 1_555
H4B O6B 1_555 1_555
H5B C5B 1_555 1_555
C2B C5B 1_555 1_555

#END
