
#######################################################################
#
#                 Cambridge Crystallographic Data Centre
#                                CCDC 
#
#######################################################################
#
# If this CIF has been generated from an entry in the Cambridge 
# Structural Database, then it will include bibliographic, chemical, 
# crystal, experimental, refinement or atomic coordinate data resulting 
# from the CCDC's data processing and validation procedures.
#
#######################################################################

data_XIRJUF
_symmetry_cell_setting           triclinic
_symmetry_space_group_name_H-M   'P -1'
_symmetry_Int_Tables_number      2
_space_group_name_Hall           '-P 1'
loop_
_symmetry_equiv_pos_site_id
_symmetry_equiv_pos_as_xyz
1 x,y,z
2 -x,-y,-z
_cell_length_a                   11.699(3)
_cell_length_b                   12.948(3)
_cell_length_c                   15.679(4)
_cell_angle_alpha                100.882(6)
_cell_angle_beta                 91.372(7)
_cell_angle_gamma                106.539(7)
_cell_volume                     2228.2
loop_
_atom_site_label
_atom_site_type_symbol
_atom_site_fract_x
_atom_site_fract_y
_atom_site_fract_z
Cd1 Cd 0.11785(4) 0.79618(3) 0.43994(3)
Cd2 Cd 0.07544(4) 1.04783(3) 0.61053(3)
C1 C 0.1337(6) 0.8186(6) 0.6227(4)
C2 C 0.1472(7) 0.8161(6) 0.7167(4)
C3 C 0.2315(7) 0.7709(7) 0.7471(5)
H1 H 0.2805 0.7453 0.7078
C4 C 0.2451(8) 0.7627(7) 0.8325(5)
H2 H 0.3015 0.7314 0.8505
C5 C 0.0751(7) 0.8556(6) 0.7756(4)
H3 H 0.0191 0.8871 0.7574
C6 C 0.0880(7) 0.8474(6) 0.8620(4)
C7 C 0.1738(7) 0.8015(7) 0.8908(4)
C8 C 0.1576(7) 0.8026(7) 0.9824(4)
C9 C 0.2141(8) 0.7707(7) 1.0487(5)
H4 H 0.2749 0.7382 1.0362
C10 C 0.1799(8) 0.7872(7) 1.1305(5)
H5 H 0.2173 0.7650 1.1737
C11 C 0.0665(7) 0.8519(7) 1.0049(4)
C12 C 0.0332(7) 0.8696(7) 1.0889(4)
H6 H -0.0264 0.9030 1.1025
C13 C 0.0900(7) 0.8368(6) 1.1522(4)
C14 C 0.0576(7) 0.8566(7) 1.2447(4)
C15 C 0.2258(6) 1.0229(5) 0.4455(4)
C16 C 0.2967(5) 1.1338(5) 0.4303(4)
C17 C 0.2365(6) 1.2045(5) 0.4068(4)
H7 H 0.1533 1.1837 0.4014
C18 C 0.3021(6) 1.3062(5) 0.3917(5)
H8 H 0.2632 1.3540 0.3757
C19 C 0.4194(6) 1.1594(5) 0.4386(4)
H9 H 0.4577 1.1102 0.4526
C20 C 0.4833(5) 1.2628(5) 0.4250(4)
C21 C 0.4248(6) 1.3355(5) 0.4004(4)
C22 C 0.5203(6) 1.4344(5) 0.3946(5)
C23 C 0.5210(7) 1.5364(6) 0.3762(5)
H10 H 0.4501 1.5510 0.3625
C24 C 0.6313(6) 1.6151(6) 0.3790(5)
H11 H 0.6334 1.6831 0.3667
C25 C 0.6288(6) 1.4159(5) 0.4155(4)
C26 C 0.7385(6) 1.4960(5) 0.4168(4)
H12 H 0.8101 1.4819 0.4292
C27 C 0.7381(6) 1.5957(5) 0.3996(5)
C28 C 0.8546(7) 1.6863(6) 0.4066(5)
C29 C 0.1931(16) 0.5989(14) 0.3251(12)
H13 H 0.2272 0.6252 0.2775
C30 C 0.130(2) 0.4337(16) 0.2174(13)
H14 H 0.1796 0.4727 0.1791
H15 H 0.0481 0.4086 0.1928
H16 H 0.1554 0.3716 0.2247
C31 C 0.0575(18) 0.4543(16) 0.3696(13)
H17 H 0.0694 0.5098 0.4218
H18 H 0.0799 0.3926 0.3821
H19 H -0.0252 0.4308 0.3480
C32 C 0.3176(10) 1.1117(9) 0.7181(7)
H20 H 0.2746 1.1357 0.7628
C33 C 0.5182(15) 1.1303(15) 0.6737(10)
H21 H 0.4780 1.0763 0.6233
H22 H 0.5826 1.1086 0.6967
H23 H 0.5496 1.2003 0.6577
C34 C 0.4910(18) 1.2158(18) 0.8206(13)
H24 H 0.4296 1.2155 0.8601
H25 H 0.5240 1.2888 0.8103
H26 H 0.5530 1.1927 0.8454
N1 N 0.0233(6) 0.8764(5) 0.9299(4)
H27 H -0.0343 0.9050 0.9266
N2 N 0.6060(5) 1.3124(4) 0.4337(4)
H28 H 0.6592 1.2833 0.4481
N3 N 0.1377(12) 0.5036(9) 0.2981(9)
N4 N 0.4385(10) 1.1383(14) 0.7360(9)
O1 O 0.0634(4) 0.8657(3) 0.5967(3)
O2 O 0.1887(4) 0.7692(4) 0.5698(3)
O3 O 0.0947(5) 0.8081(5) 1.2957(3)
O4 O -0.0043(6) 0.9205(5) 1.2626(3)
O5 O 0.2734(4) 0.9490(3) 0.4419(3)
O6 O 0.1156(3) 1.0076(3) 0.4633(3)
O7 O 0.9485(5) 1.6664(4) 0.4288(4)
O8 O 0.8489(6) 1.7753(4) 0.3903(4)
O9 O 0.2221(6) 0.6712(5) 0.3834(4)
O10 O 0.2675(6) 1.0668(6) 0.6589(5)
Cd1_2 Cd 0.11785(4) 0.79618(3) 1.43994(3)
Cd1_3 Cd 1.11785(4) 1.79618(3) 0.43994(3)
Cd2A Cd -0.07544(4) 0.95217(3) 0.38947(3)
Cd2A_2 Cd -0.07544(4) 0.95217(3) 1.38947(3)
Cd2A_3 Cd 0.92456(4) 1.95217(3) 0.38947(3)
O3_2 O 0.0947(5) 0.8081(5) 0.2957(3)
O4A O 0.0043(6) 1.0795(5) 0.7374(3)
O6A O -0.1156(3) 0.9924(3) 0.5367(3)
O7_2 O -0.0515(5) 0.6664(4) 0.4288(4)
O8A O 0.1511(6) 1.2247(4) 0.6097(4)
loop_
_geom_bond_atom_site_label_1
_geom_bond_atom_site_label_2
_geom_bond_site_symmetry_1
_geom_bond_site_symmetry_2
Cd1 O1 1_555 1_555
Cd2 O1 1_555 1_555
C1 C2 1_555 1_555
C2 C3 1_555 1_555
C3 H1 1_555 1_555
C4 C3 1_555 1_555
H2 C4 1_555 1_555
C5 C2 1_555 1_555
H3 C5 1_555 1_555
C6 C5 1_555 1_555
C7 C4 1_555 1_555
C8 C7 1_555 1_555
C9 C8 1_555 1_555
H4 C9 1_555 1_555
C10 C9 1_555 1_555
H5 C10 1_555 1_555
C11 C8 1_555 1_555
C12 C11 1_555 1_555
H6 C12 1_555 1_555
C13 C10 1_555 1_555
C14 C13 1_555 1_555
C15 C16 1_555 1_555
C16 C17 1_555 1_555
C17 H7 1_555 1_555
C18 C17 1_555 1_555
H8 C18 1_555 1_555
C19 C16 1_555 1_555
H9 C19 1_555 1_555
C20 C19 1_555 1_555
C21 C18 1_555 1_555
C22 C21 1_555 1_555
C23 C22 1_555 1_555
H10 C23 1_555 1_555
C24 C23 1_555 1_555
H11 C24 1_555 1_555
C25 C22 1_555 1_555
C26 C25 1_555 1_555
H12 C26 1_555 1_555
C27 C24 1_555 1_555
C28 C27 1_555 1_555
C29 H13 1_555 1_555
C30 H14 1_555 1_555
H15 C30 1_555 1_555
H16 C30 1_555 1_555
C31 H17 1_555 1_555
H18 C31 1_555 1_555
H19 C31 1_555 1_555
C32 H20 1_555 1_555
C33 H21 1_555 1_555
H22 C33 1_555 1_555
H23 C33 1_555 1_555
C34 H24 1_555 1_555
H25 C34 1_555 1_555
H26 C34 1_555 1_555
N1 C6 1_555 1_555
H27 N1 1_555 1_555
N2 C20 1_555 1_555
H28 N2 1_555 1_555
N3 C29 1_555 1_555
N4 C32 1_555 1_555
O1 C1 1_555 1_555
O2 Cd1 1_555 1_555
O3 C14 1_555 1_555
O4 C14 1_555 1_555
O5 Cd1 1_555 1_555
O6 Cd1 1_555 1_555
O7 C28 1_555 1_555
O8 C28 1_555 1_555
O9 Cd1 1_555 1_555
O10 Cd2 1_555 1_555
Cd1_2 O3 1_555 1_555
Cd1_3 O7 1_555 1_555
Cd2A O6 1_555 1_555
Cd2A_2 O4 1_555 1_555
Cd2A_3 O8 1_555 1_555
O3_2 Cd1 1_555 1_555
O4A Cd2 1_555 1_555
O6A Cd2 1_555 1_555
O7_2 Cd1 1_555 1_555
O8A Cd2 1_555 1_555
Cd2 O6 1_555 1_555
C1 O2 1_555 1_555
C6 C7 1_555 1_555
C11 N1 1_555 1_555
C12 C13 1_555 1_555
C15 O5 1_555 1_555
C15 O6 1_555 1_555
C20 C21 1_555 1_555
C25 N2 1_555 1_555
C26 C27 1_555 1_555
C29 O9 1_555 1_555
C30 N3 1_555 1_555
C31 N3 1_555 1_555
C32 O10 1_555 1_555
C33 N4 1_555 1_555
C34 N4 1_555 1_555
Cd2A O6A 1_555 1_555

#END
