
#######################################################################
#
#                 Cambridge Crystallographic Data Centre
#                                CCDC 
#
#######################################################################
#
# If this CIF has been generated from an entry in the Cambridge 
# Structural Database, then it will include bibliographic, chemical, 
# crystal, experimental, refinement or atomic coordinate data resulting 
# from the CCDC's data processing and validation procedures.
#
#######################################################################

data_XIRKAM
_symmetry_cell_setting           triclinic
_symmetry_space_group_name_H-M   'P -1'
_symmetry_Int_Tables_number      2
_space_group_name_Hall           '-P 1'
loop_
_symmetry_equiv_pos_site_id
_symmetry_equiv_pos_as_xyz
1 x,y,z
2 -x,-y,-z
_cell_length_a                   22.115(14)
_cell_length_b                   22.212(14)
_cell_length_c                   22.50(2)
_cell_angle_alpha                107.732(11)
_cell_angle_beta                 107.417(11)
_cell_angle_gamma                101.832(8)
_cell_volume                     9496.19
loop_
_atom_site_label
_atom_site_type_symbol
_atom_site_fract_x
_atom_site_fract_y
_atom_site_fract_z
Cd1 Cd 0.04029(2) 0.83146(2) 0.36670(2)
N1 N 0.3940(2) 0.9456(2) 0.6294(2)
H1 H 0.3896 0.9119 0.6409
N2 N 0.1371(2) 0.7468(2) 0.5279(2)
H2 H 0.1408 0.7809 0.5171
N3 N -0.3727(3) 0.7111(3) 0.5128(3)
H3 H -0.3913 0.6699 0.5049
N4 N -0.3387(2) 0.2191(2) 0.0174(3)
H4 H -0.3080 0.2247 0.0016
N5 N 0.6348(2) 0.7093(3) 1.0192(3)
H5 H 0.5941 0.6948 1.0155
N6 N -0.0995(2) 0.9841(3) 0.1367(3)
H6 H -0.0587 0.9999 0.1415
N7 N 0.9021(2) 0.9817(2) 0.6308(2)
H7 H 0.9147 1.0220 0.6333
N8 N 0.8711(2) 1.4730(2) 1.1279(2)
H8 H 0.8391 1.4682 1.1421
C1 C 0.1710(3) 0.8894(3) 0.4496(3)
C2 C 0.2421(3) 0.9319(3) 0.4936(3)
C3 C 0.2680(3) 0.9914(3) 0.4889(3)
H9 H 0.2415 1.0037 0.4571
C4 C 0.3317(3) 1.0325(3) 0.5303(3)
H10 H 0.3485 1.0728 0.5270
C5 C 0.3708(3) 1.0140(3) 0.5766(3)
C6 C 0.3451(3) 0.9539(3) 0.5810(3)
C7 C 0.2806(3) 0.9131(3) 0.5400(3)
H11 H 0.2633 0.8731 0.5437
C8 C 0.4393(3) 1.0438(3) 0.6254(3)
C9 C 0.4887(3) 1.1028(3) 0.6442(3)
H12 H 0.4812 1.1330 0.6242
C10 C 0.5486(3) 1.1152(3) 0.6926(3)
H13 H 0.5820 1.1554 0.7063
C11 C 0.5629(3) 1.0715(3) 0.7230(3)
C12 C 0.5126(3) 1.0121(3) 0.7038(3)
H14 H 0.5205 0.9812 0.7226
C13 C 0.4515(3) 1.0004(3) 0.6568(3)
C14 C 0.6309(3) 1.0874(3) 0.7746(3)
C15 C -0.0966(3) 0.6029(4) 0.3794(4)
C16 C -0.0302(3) 0.6205(3) 0.4327(3)
C17 C 0.0189(3) 0.6791(3) 0.4512(3)
H15 H 0.0110 0.7091 0.4311
C18 C 0.0803(3) 0.6923(3) 0.5004(3)
C19 C 0.0940(3) 0.6496(3) 0.5320(3)
C20 C 0.0424(3) 0.5911(3) 0.5154(4)
H16 H 0.0493 0.5625 0.5376
C21 C -0.0202(3) 0.5771(3) 0.4640(4)
H17 H -0.0549 0.5381 0.4514
C22 C 0.1605(3) 0.6790(3) 0.5798(3)
C23 C 0.1870(3) 0.7388(3) 0.5749(3)
C24 C 0.2526(3) 0.7789(3) 0.6144(3)
H18 H 0.2692 0.8191 0.6107
C25 C 0.2931(3) 0.7600(3) 0.6589(3)
C26 C 0.2670(3) 0.7013(3) 0.6664(3)
H19 H 0.2938 0.6897 0.6987
C27 C 0.2006(3) 0.6594(3) 0.6256(4)
H20 H 0.1839 0.6193 0.6292
C28 C 0.3641(3) 0.8002(3) 0.7007(3)
C29 C -0.2395(3) 0.6939(3) 0.3687(3)
C30 C -0.2668(3) 0.7307(3) 0.4164(3)
C31 C -0.2470(3) 0.7987(3) 0.4421(3)
H21 H -0.2180 0.8215 0.4277
C32 C -0.2678(3) 0.8349(3) 0.4884(3)
H22 H -0.2528 0.8814 0.5051
C33 C -0.3106(3) 0.8025(3) 0.5097(3)
C34 C -0.3308(3) 0.7346(3) 0.4831(3)
C35 C -0.3104(3) 0.6973(3) 0.4374(3)
H23 H -0.3254 0.6508 0.4210
C36 C -0.3790(3) 0.7668(3) 0.5576(3)
C37 C -0.4131(3) 0.7694(3) 0.6000(3)
H24 H -0.4374 0.7304 0.6007
C38 C -0.4106(3) 0.8308(3) 0.6412(3)
C39 C -0.3736(3) 0.8885(3) 0.6395(3)
H25 H -0.3718 0.9301 0.6674
C40 C -0.3402(3) 0.8850(3) 0.5974(3)
H26 H -0.3158 0.9242 0.5970
C41 C -0.3417(3) 0.8252(3) 0.5561(3)
C42 C -0.4461(3) 0.8350(3) 0.6886(3)
C43 C -0.2768(3) 0.4410(3) 0.2004(3)
C44 C -0.3178(3) 0.3705(3) 0.1587(3)
C45 C -0.3033(3) 0.3327(3) 0.1076(3)
H27 H -0.2668 0.3509 0.0988
C46 C -0.3443(3) 0.2668(3) 0.0691(3)
C47 C -0.4010(3) 0.2400(3) 0.0802(3)
C48 C -0.4148(3) 0.2784(3) 0.1314(3)
H28 H -0.4519 0.2608 0.1397
C49 C -0.3739(3) 0.3426(3) 0.1702(3)
H29 H -0.3834 0.3685 0.2051
C50 C -0.4312(3) 0.1719(3) 0.0314(3)
C51 C -0.3906(3) 0.1606(3) -0.0052(3)
C52 C -0.4054(3) 0.0986(3) -0.0553(3)
H30 H -0.3779 0.0913 -0.0792
C53 C -0.4607(3) 0.0490(3) -0.0686(3)
C54 C -0.5005(3) 0.0606(3) -0.0320(3)
H31 H -0.5385 0.0257 -0.0425
C55 C -0.4871(3) 0.1196(3) 0.0179(3)
H32 H -0.5142 0.1252 0.0425
C56 C -0.4757(3) -0.0168(3) -0.1205(3)
C57 C 0.6185(3) 0.8392(3) 0.8732(3)
C58 C 0.7231(3) 0.8252(3) 0.9383(3)
H33 H 0.7456 0.8521 0.9219
C59 C 0.6542(3) 0.8108(3) 0.9192(3)
C60 C 0.6212(3) 0.7712(3) 0.9435(3)
H34 H 0.5750 0.7605 0.9305
C61 C 0.6566(3) 0.7472(3) 0.9874(3)
C62 C 0.7254(3) 0.7620(3) 1.0067(3)
C63 C 0.7581(3) 0.8008(3) 0.9809(3)
H35 H 0.8040 0.8102 0.9925
C64 C 0.6885(3) 0.6984(3) 1.0579(3)
C65 C 0.7465(3) 0.7309(3) 1.0537(3)
C66 C 0.8080(3) 0.7291(3) 1.0905(3)
H36 H 0.8470 0.7504 1.0873
C67 C 0.8094(3) 0.6952(3) 1.1317(3)
H37 H 0.8503 0.6927 1.1564
C68 C 0.7531(3) 0.6646(3) 1.1380(3)
C69 C 0.6916(3) 0.6658(3) 1.1015(3)
H38 H 0.6531 0.6452 1.1061
C70 C 0.7568(3) 0.6298(3) 1.1863(3)
C71 C -0.2215(3) 1.0601(3) -0.0328(3)
C72 C -0.2189(3) 1.0263(3) 0.0149(3)
C73 C -0.1564(3) 1.0268(3) 0.0533(3)
H39 H -0.1176 1.0490 0.0504
C74 C -0.1539(3) 0.9933(3) 0.0960(3)
C75 C -0.2125(3) 0.9605(3) 0.1016(3)
C76 C -0.2731(3) 0.9627(3) 0.0627(3)
H40 H -0.3123 0.9423 0.0663
C77 C -0.2759(3) 0.9941(3) 0.0196(3)
H41 H -0.3172 0.9939 -0.0072
C78 C -0.1902(3) 0.9298(3) 0.1486(3)
C79 C -0.1215(3) 0.9447(3) 0.1690(3)
C80 C -0.0838(3) 0.9222(3) 0.2119(3)
H42 H -0.0376 0.9330 0.2245
C81 C -0.1187(3) 0.8823(3) 0.2354(3)
C82 C -0.1863(3) 0.8661(3) 0.2140(3)
H43 H -0.2088 0.8377 0.2291
C83 C -0.2224(3) 0.8893(3) 0.1719(3)
H44 H -0.2686 0.8778 0.1590
C84 C -0.0821(4) 0.8523(3) 0.2795(3)
C85 C 0.7780(3) 0.9957(3) 0.7831(3)
C86 C 0.8080(3) 0.9620(3) 0.7388(3)
C87 C 0.8426(3) 0.9956(3) 0.7111(3)
H45 H 0.8493 1.0410 0.7219
C88 C 0.8674(3) 0.9615(3) 0.6668(3)
C89 C 0.8583(3) 0.8941(3) 0.6516(3)
C90 C 0.8223(3) 0.8609(3) 0.6804(3)
H46 H 0.8150 0.8155 0.6701
C91 C 0.8886(3) 0.8728(3) 0.6030(3)
C92 C 0.9137(3) 0.9289(3) 0.5903(3)
C93 C 0.9445(3) 0.9258(3) 0.5456(3)
H47 H 0.9620 0.9640 0.5391
C94 C 0.9494(3) 0.8654(3) 0.5105(3)
C95 C 0.9225(3) 0.8092(3) 0.5207(3)
H48 H 0.9251 0.7684 0.4962
C96 C 0.8928(3) 0.8118(3) 0.5652(3)
H49 H 0.8750 0.7732 0.5708
C97 C 0.9814(3) 0.8613(3) 0.4623(3)
C98 C 0.8146(3) 1.2495(3) 0.9500(3)
C99 C 0.85537(19) 1.32056(14) 0.9903(2)
C100 C 0.9131(2) 1.34704(18) 0.9814(2)
H50 H 0.9248 1.3207 0.9487
C101 C 0.95352(17) 1.41294(19) 1.0216(2)
H51 H 0.9922 1.4307 1.0157
C102 C 0.93615(19) 1.45238(14) 1.0705(2)
C103 C 0.8784(2) 1.42590(17) 1.07935(19)
C104 C 0.83799(16) 1.35999(18) 1.0392(2)
H52 H 0.7993 1.3423 1.0451
C105 C 0.9644(3) 1.5194(3) 1.1160(3)
C106 C 0.9245(3) 1.5310(3) 1.1513(3)
C107 C 0.9381(3) 1.5908(3) 1.2008(3)
H53 H 0.9105 1.5977 1.2245
C108 C 0.9952(3) 1.6414(3) 1.2145(3)
C109 C 1.0367(3) 1.6309(3) 1.1809(3)
H54 H 1.0743 1.6660 1.1908
C110 C 1.0237(3) 1.5700(3) 1.1332(3)
H55 H 1.0534 1.5620 1.1125
C111 C 1.0130(3) 1.7085(3) 1.2682(3)
C112 C 0.7981(3) 0.8956(3) 0.7237(3)
H56 H 0.7745 0.8737 0.7433
O1 O 0.14335(17) 0.84095(18) 0.45892(18)
O2 O 0.14007(17) 0.90626(17) 0.40421(18)
O3 O 0.6428(2) 1.0482(2) 0.7987(2)
O4 O 0.67547(19) 1.1415(2) 0.7927(2)
O5 O 0.38938(18) 0.85097(19) 0.69215(18)
O6 O 0.39635(18) 0.78138(19) 0.74261(19)
O7 O -0.1388(2) 0.5500(3) 0.3601(3)
O8 O -0.1076(2) 0.6426(2) 0.3555(2)
O9 O -0.2573(2) 0.6316(2) 0.3487(2)
O10 O -0.2024(2) 0.7288(2) 0.3511(2)
O11 O -0.4829(2) 0.7841(2) 0.6862(2)
O12 O -0.43677(18) 0.8914(2) 0.73059(18)
O13 O -0.29417(19) 0.47256(18) 0.24445(19)
O14 O -0.22871(19) 0.46654(19) 0.1880(2)
O15 O -0.5313(2) -0.0598(2) -0.1427(2)
O16 O -0.4349(2) -0.0308(2) -0.1424(3)
O17 O 0.65401(19) 0.8751(2) 0.85547(19)
O18 O 0.55599(19) 0.82329(19) 0.85505(19)
O19 O 0.81524(19) 0.63888(18) 1.22661(18)
O20 O 0.7050(2) 0.5936(2) 1.1842(2)
O21 O -0.1702(2) 1.0966(2) -0.0326(2)
O22 O -0.27821(19) 1.05156(18) -0.07467(17)
O23 O -0.0196(2) 0.8684(2) 0.2964(2)
O24 O -0.1169(2) 0.8134(2) 0.2952(2)
O25 O 0.7920(2) 1.0581(2) 0.80149(19)
O26 O 0.74184(19) 0.9614(2) 0.80180(19)
O27 O 1.0155(2) 0.91098(19) 0.45916(18)
O28 O 0.97434(17) 0.80254(18) 0.42178(17)
O29 O 0.83268(19) 1.21684(18) 0.9068(2)
O30 O 0.76505(19) 1.22357(18) 0.96020(19)
O31 O 1.0642(2) 1.7532(2) 1.2821(2)
O32 O 0.9754(2) 1.7186(2) 1.2981(2)
Cd2 Cd -0.11506(2) 0.72852(2) 0.32419(2)
Cd3 Cd -0.22004(2) 0.57206(2) 0.27922(2)
Cd4 Cd 0.49525(2) 0.85805(2) 0.78337(2)
Cd5 Cd 0.65297(2) 0.96132(2) 0.82856(2)
Cd6 Cd 0.75614(2) 1.11819(2) 0.873070(19)
Cd1_2 Cd 1.04029(2) 0.83146(2) 0.36670(2)
Cd1_3 Cd 1.04029(2) 1.83146(2) 1.36670(2)
O11_2 O 0.5171(2) 0.7841(2) 0.6862(2)
O12_2 O 0.56323(18) 0.8914(2) 0.73059(18)
O15_2 O 0.4687(2) 0.9402(2) 0.8573(2)
O16_2 O 0.5651(2) 0.9692(2) 0.8576(3)
O19_2 O -0.18476(19) 0.63888(18) 0.22661(18)
O20_2 O -0.2950(2) 0.5936(2) 0.1842(2)
O21_2 O 0.8298(2) 1.0966(2) 0.9674(2)
O22_2 O 0.72179(19) 1.05156(18) 0.92533(17)
O27_2 O 0.0155(2) 0.91098(19) 0.45916(18)
O28_2 O -0.02566(17) 0.80254(18) 0.42178(17)
O31_2 O 0.0642(2) 0.7532(2) 0.2821(2)
O32_2 O -0.0246(2) 0.7186(2) 0.2981(2)
Cd2_2 Cd 0.88494(2) 0.72852(2) 0.32419(2)
Cd2_3 Cd 0.88494(2) 0.72852(2) 1.32419(2)
Cd2_4 Cd 0.88494(2) 1.72852(2) 1.32419(2)
Cd3_2 Cd 0.77996(2) 0.57206(2) 1.27922(2)
Cd4_2 Cd -0.50475(2) -0.14195(2) -0.21663(2)
Cd4_3 Cd -0.50475(2) 0.85805(2) 0.78337(2)
Cd5_2 Cd -0.34703(2) -0.03868(2) -0.17144(2)
Cd5_3 Cd -0.34703(2) 0.96132(2) -0.17144(2)
Cd5_4 Cd -0.34703(2) 0.96132(2) 0.82856(2)
Cd6_2 Cd -0.24386(2) 1.11819(2) -0.126930(19)
loop_
_geom_bond_atom_site_label_1
_geom_bond_atom_site_label_2
_geom_bond_site_symmetry_1
_geom_bond_site_symmetry_2
Cd1 O1 1_555 1_555
N1 H1 1_555 1_555
N2 H2 1_555 1_555
N3 H3 1_555 1_555
N4 H4 1_555 1_555
N5 H5 1_555 1_555
N6 H6 1_555 1_555
N7 H7 1_555 1_555
N8 H8 1_555 1_555
C1 C2 1_555 1_555
C2 C3 1_555 1_555
C3 H9 1_555 1_555
C4 C3 1_555 1_555
H10 C4 1_555 1_555
C5 C4 1_555 1_555
C6 N1 1_555 1_555
C7 C2 1_555 1_555
H11 C7 1_555 1_555
C8 C5 1_555 1_555
C9 C8 1_555 1_555
H12 C9 1_555 1_555
C10 C9 1_555 1_555
H13 C10 1_555 1_555
C11 C10 1_555 1_555
C12 C11 1_555 1_555
H14 C12 1_555 1_555
C13 N1 1_555 1_555
C14 C11 1_555 1_555
C15 C16 1_555 1_555
C16 C17 1_555 1_555
C17 H15 1_555 1_555
C18 N2 1_555 1_555
C19 C18 1_555 1_555
C20 C19 1_555 1_555
H16 C20 1_555 1_555
C21 C16 1_555 1_555
H17 C21 1_555 1_555
C22 C19 1_555 1_555
C23 N2 1_555 1_555
C24 C23 1_555 1_555
H18 C24 1_555 1_555
C25 C24 1_555 1_555
C26 C25 1_555 1_555
H19 C26 1_555 1_555
C27 C22 1_555 1_555
H20 C27 1_555 1_555
C28 C25 1_555 1_555
C29 C30 1_555 1_555
C30 C31 1_555 1_555
C31 H21 1_555 1_555
C32 C31 1_555 1_555
H22 C32 1_555 1_555
C33 C32 1_555 1_555
C34 N3 1_555 1_555
C35 C30 1_555 1_555
H23 C35 1_555 1_555
C36 N3 1_555 1_555
C37 C36 1_555 1_555
H24 C37 1_555 1_555
C38 C37 1_555 1_555
C39 C38 1_555 1_555
H25 C39 1_555 1_555
C40 C39 1_555 1_555
H26 C40 1_555 1_555
C41 C33 1_555 1_555
C42 C38 1_555 1_555
C43 C44 1_555 1_555
C44 C45 1_555 1_555
C45 H27 1_555 1_555
C46 N4 1_555 1_555
C47 C46 1_555 1_555
C48 C47 1_555 1_555
H28 C48 1_555 1_555
C49 C44 1_555 1_555
H29 C49 1_555 1_555
C50 C47 1_555 1_555
C51 N4 1_555 1_555
C52 C51 1_555 1_555
H30 C52 1_555 1_555
C53 C52 1_555 1_555
C54 C53 1_555 1_555
H31 C54 1_555 1_555
C55 C50 1_555 1_555
H32 C55 1_555 1_555
C56 C53 1_555 1_555
C57 C59 1_555 1_555
C58 H33 1_555 1_555
C59 C58 1_555 1_555
C60 C59 1_555 1_555
H34 C60 1_555 1_555
C61 N5 1_555 1_555
C62 C61 1_555 1_555
C63 C58 1_555 1_555
H35 C63 1_555 1_555
C64 N5 1_555 1_555
C65 C62 1_555 1_555
C66 C65 1_555 1_555
H36 C66 1_555 1_555
C67 C66 1_555 1_555
H37 C67 1_555 1_555
C68 C67 1_555 1_555
C69 C64 1_555 1_555
H38 C69 1_555 1_555
C70 C68 1_555 1_555
C71 C72 1_555 1_555
C72 C73 1_555 1_555
C73 H39 1_555 1_555
C74 N6 1_555 1_555
C75 C74 1_555 1_555
C76 C75 1_555 1_555
H40 C76 1_555 1_555
C77 C72 1_555 1_555
H41 C77 1_555 1_555
C78 C75 1_555 1_555
C79 N6 1_555 1_555
C80 C79 1_555 1_555
H42 C80 1_555 1_555
C81 C80 1_555 1_555
C82 C81 1_555 1_555
H43 C82 1_555 1_555
C83 C78 1_555 1_555
H44 C83 1_555 1_555
C84 C81 1_555 1_555
C85 C86 1_555 1_555
C86 C87 1_555 1_555
C87 H45 1_555 1_555
C88 N7 1_555 1_555
C89 C88 1_555 1_555
C90 C89 1_555 1_555
H46 C90 1_555 1_555
C91 C89 1_555 1_555
C92 N7 1_555 1_555
C93 C92 1_555 1_555
H47 C93 1_555 1_555
C94 C93 1_555 1_555
C95 C94 1_555 1_555
H48 C95 1_555 1_555
C96 C91 1_555 1_555
H49 C96 1_555 1_555
C97 C94 1_555 1_555
C98 C99 1_555 1_555
C99 C100 1_555 1_555
C100 H50 1_555 1_555
C101 C100 1_555 1_555
H51 C101 1_555 1_555
C102 C101 1_555 1_555
C103 N8 1_555 1_555
C104 C99 1_555 1_555
H52 C104 1_555 1_555
C105 C102 1_555 1_555
C106 N8 1_555 1_555
C107 C106 1_555 1_555
H53 C107 1_555 1_555
C108 C107 1_555 1_555
C109 C108 1_555 1_555
H54 C109 1_555 1_555
C110 C105 1_555 1_555
H55 C110 1_555 1_555
C111 C108 1_555 1_555
C112 C86 1_555 1_555
H56 C112 1_555 1_555
O1 C1 1_555 1_555
O2 Cd1 1_555 1_555
O3 C14 1_555 1_555
O4 C14 1_555 1_555
O5 C28 1_555 1_555
O6 C28 1_555 1_555
O7 C15 1_555 1_555
O8 C15 1_555 1_555
O9 C29 1_555 1_555
O10 C29 1_555 1_555
O11 C42 1_555 1_555
O12 C42 1_555 1_555
O13 C43 1_555 1_555
O14 C43 1_555 1_555
O15 C56 1_555 1_555
O16 C56 1_555 1_555
O17 C57 1_555 1_555
O18 C57 1_555 1_555
O19 C70 1_555 1_555
O20 C70 1_555 1_555
O21 C71 1_555 1_555
O22 C71 1_555 1_555
O23 Cd1 1_555 1_555
O24 C84 1_555 1_555
O25 C85 1_555 1_555
O26 C85 1_555 1_555
O27 C97 1_555 1_555
O28 C97 1_555 1_555
O29 C98 1_555 1_555
O30 C98 1_555 1_555
O31 C111 1_555 1_555
O32 C111 1_555 1_555
Cd2 O8 1_555 1_555
Cd3 O7 1_555 1_555
Cd4 O5 1_555 1_555
Cd5 O3 1_555 1_555
Cd6 O3 1_555 1_555
Cd1_2 O27 1_555 1_555
Cd1_3 O31 1_555 1_555
O11_2 Cd4 1_555 1_555
O12_2 Cd4 1_555 1_555
O15_2 Cd4 1_555 1_555
O16_2 Cd4 1_555 1_555
O19_2 Cd2 1_555 1_555
O20_2 Cd3 1_555 1_555
O21_2 Cd6 1_555 1_555
O22_2 Cd5 1_555 1_555
O27_2 Cd1 1_555 1_555
O28_2 Cd1 1_555 1_555
O31_2 Cd1 1_555 1_555
O32_2 Cd1 1_555 1_555
Cd2_2 O28 1_555 1_555
Cd2_3 O19 1_555 1_555
Cd2_4 O32 1_555 1_555
Cd3_2 O19 1_555 1_555
Cd4_2 O15 1_555 1_555
Cd4_3 O11 1_555 1_555
Cd5_2 O16 1_555 1_555
Cd5_3 O22 1_555 1_555
Cd5_4 O12 1_555 1_555
Cd6_2 O21 1_555 1_555
C1 O2 1_555 1_555
C5 C6 1_555 1_555
C6 C7 1_555 1_555
C8 C13 1_555 1_555
C12 C13 1_555 1_555
C17 C18 1_555 1_555
C20 C21 1_555 1_555
C22 C23 1_555 1_555
C26 C27 1_555 1_555
C33 C34 1_555 1_555
C34 C35 1_555 1_555
C36 C41 1_555 1_555
C40 C41 1_555 1_555
C45 C46 1_555 1_555
C48 C49 1_555 1_555
C50 C51 1_555 1_555
C54 C55 1_555 1_555
C60 C61 1_555 1_555
C62 C63 1_555 1_555
C64 C65 1_555 1_555
C68 C69 1_555 1_555
C73 C74 1_555 1_555
C76 C77 1_555 1_555
C78 C79 1_555 1_555
C82 C83 1_555 1_555
C84 O23 1_555 1_555
C87 C88 1_555 1_555
C90 C112 1_555 1_555
C91 C92 1_555 1_555
C95 C96 1_555 1_555
C102 C103 1_555 1_555
C103 C104 1_555 1_555
C105 C106 1_555 1_555
C109 C110 1_555 1_555
O4 Cd6 1_555 1_555
O6 Cd4 1_555 1_555
O8 Cd3 1_555 1_555
O9 Cd3 1_555 1_555
O10 Cd2 1_555 1_555
O12 Cd4_3 1_555 1_555
O13 Cd3 1_555 1_555
O14 Cd3 1_555 1_555
O16 Cd4_2 1_555 1_555
O17 Cd5 1_555 1_555
O18 Cd4 1_555 1_555
O20 Cd3_2 1_555 1_555
O22 Cd6_2 1_555 1_555
O24 Cd2 1_555 1_555
O25 Cd6 1_555 1_555
O26 Cd5 1_555 1_555
O28 Cd1_2 1_555 1_555
O29 Cd6 1_555 1_555
O30 Cd6 1_555 1_555
O32 Cd1_3 1_555 1_555
Cd2 O28_2 1_555 1_555
Cd2 O32_2 1_555 1_555
Cd3 O19_2 1_555 1_555
Cd5 O12_2 1_555 1_555
Cd5 O16_2 1_555 1_555
Cd6 O22_2 1_555 1_555

#END
