
#######################################################################
#
#                 Cambridge Crystallographic Data Centre
#                                CCDC 
#
#######################################################################
#
# If this CIF has been generated from an entry in the Cambridge 
# Structural Database, then it will include bibliographic, chemical, 
# crystal, experimental, refinement or atomic coordinate data resulting 
# from the CCDC's data processing and validation procedures.
#
#######################################################################

data_XIRKAL
_symmetry_cell_setting           triclinic
_symmetry_space_group_name_H-M   'P -1'
_symmetry_Int_Tables_number      2
_space_group_name_Hall           '-P 1'
loop_
_symmetry_equiv_pos_site_id
_symmetry_equiv_pos_as_xyz
1 x,y,z
2 -x,-y,-z
_cell_length_a                   7.547(3)
_cell_length_b                   10.060(4)
_cell_length_c                   10.286(4)
_cell_angle_alpha                77.262(11)
_cell_angle_beta                 69.963(11)
_cell_angle_gamma                77.409(10)
_cell_volume                     706.917
loop_
_atom_site_label
_atom_site_type_symbol
_atom_site_fract_x
_atom_site_fract_y
_atom_site_fract_z
Ag1 Ag 0.21136(7) 0.66405(5) 0.12969(4)
S1 S -0.2367(3) 0.7926(2) 0.1437(2)
C1 C 0.2758(8) 0.8180(6) -0.1720(6)
H1 H 0.1900 0.8847 -0.1224
C2 C 0.3517(9) 0.8506(6) -0.3124(7)
H2 H 0.3151 0.9377 -0.3579
C3 C 0.4827(8) 0.7555(6) -0.3881(6)
H3 H 0.5365 0.7782 -0.4845
C4 C 0.5340(7) 0.6246(5) -0.3187(5)
C5 C 0.4444(8) 0.5980(6) -0.1745(6)
H4 H 0.4726 0.5101 -0.1269
C6 C 0.6748(7) 0.5192(5) -0.3941(5)
C7 C 0.8752(7) 0.3356(5) -0.4484(5)
C8 C 0.9966(8) 0.2081(6) -0.4505(6)
H5 H 1.0086 0.1526 -0.3678
C9 C 1.0988(9) 0.1670(6) -0.5804(7)
H6 H 1.1781 0.0822 -0.5850
C10 C 1.0815(10) 0.2549(7) -0.7058(7)
H7 H 1.1530 0.2270 -0.7915
C11 C 0.9631(8) 0.3792(6) -0.7045(6)
H8 H 0.9521 0.4354 -0.7871
C12 C 0.8601(7) 0.4178(5) -0.5741(5)
C13 C -0.3807(7) 0.9099(5) 0.0677(6)
C14 C -0.5786(7) 0.9207(5) 0.1275(5)
H9 H -0.6305 0.8677 0.2134
C15 C -0.3035(7) 0.9905(5) -0.0596(6)
H10 H -0.1718 0.9843 -0.0990
N1 N 0.3204(7) 0.6915(5) -0.1011(5)
N2 N 0.7607(6) 0.4016(4) -0.3372(4)
N3 N 0.7308(6) 0.5328(4) -0.5352(4)
H11 H 0.6926 0.6012 -0.5909
O1 O -0.0735(7) 0.8405(6) 0.1194(6)
O2 O -0.3410(9) 0.7512(7) 0.2775(6)
O3 O -0.179(3) 0.6689(9) 0.0723(15)
Ag1A Ag 0.78864(7) 0.33595(5) -0.12969(4)
Ag1A_2 Ag -1.21136(7) 1.33595(5) -0.12969(4)
S1A S -0.7633(3) 1.2074(2) -0.1437(2)
C1A C 0.7242(8) 0.1820(6) 0.1720(6)
H1A H 0.8100 0.1153 0.1224
C2A C 0.6483(9) 0.1494(6) 0.3124(7)
H2A H 0.6849 0.0623 0.3579
C3A C 0.5173(8) 0.2445(6) 0.3881(6)
H3A H 0.4635 0.2218 0.4845
C4A C 0.4660(7) 0.3754(5) 0.3187(5)
C5A C 0.5556(8) 0.4020(6) 0.1745(6)
H4A H 0.5274 0.4899 0.1269
C6A C 0.3252(7) 0.4808(5) 0.3941(5)
C7A C 0.1248(7) 0.6644(5) 0.4484(5)
C8A C 0.0034(8) 0.7919(6) 0.4505(6)
H5A H -0.0086 0.8474 0.3678
C9A C -0.0988(9) 0.8330(6) 0.5804(7)
H6A H -0.1781 0.9178 0.5850
C10A C -0.0815(10) 0.7451(7) 0.7058(7)
H7A H -0.1530 0.7730 0.7915
C11A C 0.0369(8) 0.6208(6) 0.7045(6)
H8A H 0.0479 0.5646 0.7871
C12A C 0.1399(7) 0.5822(5) 0.5741(5)
C13A C -0.6193(7) 1.0901(5) -0.0677(6)
C14A C -0.4214(7) 1.0793(5) -0.1275(5)
H9A H -0.3695 1.1323 -0.2134
C15A C -0.6965(7) 1.0095(5) 0.0596(6)
H10A H -0.8282 1.0157 0.0990
N1A N 0.6796(7) 0.3085(5) 0.1011(5)
N2A N 0.2393(6) 0.5984(4) 0.3372(4)
N3A N 0.2692(6) 0.4672(4) 0.5352(4)
H11A H 0.3074 0.3988 0.5909
O1A O -0.9265(7) 1.1595(6) -0.1194(6)
O1A_2 O 1.0735(7) 0.1595(6) -0.1194(6)
O2A O -0.6590(9) 1.2488(7) -0.2775(6)
O3A O -0.821(3) 1.3311(9) -0.0723(15)
loop_
_geom_bond_atom_site_label_1
_geom_bond_atom_site_label_2
_geom_bond_site_symmetry_1
_geom_bond_site_symmetry_2
Ag1 N1 1_555 1_555
S1 C13 1_555 1_555
C1 H1 1_555 1_555
C2 C1 1_555 1_555
H2 C2 1_555 1_555
C3 C2 1_555 1_555
H3 C3 1_555 1_555
C4 C3 1_555 1_555
C5 C4 1_555 1_555
H4 C5 1_555 1_555
C6 C4 1_555 1_555
C7 C8 1_555 1_555
C8 H5 1_555 1_555
C9 C8 1_555 1_555
H6 C9 1_555 1_555
C10 C9 1_555 1_555
H7 C10 1_555 1_555
C11 C10 1_555 1_555
H8 C11 1_555 1_555
C12 C7 1_555 1_555
C13 C14 1_555 1_555
C14 H9 1_555 1_555
C15 C13 1_555 1_555
H10 C15 1_555 1_555
N1 C1 1_555 1_555
N2 C6 1_555 1_555
N3 C6 1_555 1_555
H11 N3 1_555 1_555
O1 Ag1 1_555 1_555
O2 S1 1_555 1_555
O3 S1 1_555 1_555
Ag1A N2 1_555 1_555
Ag1A_2 O1A 1_555 1_555
S1A C13A 1_555 1_555
C1A H1A 1_555 1_555
C2A C1A 1_555 1_555
H2A C2A 1_555 1_555
C3A C2A 1_555 1_555
H3A C3A 1_555 1_555
C4A C3A 1_555 1_555
C5A C4A 1_555 1_555
H4A C5A 1_555 1_555
C6A C4A 1_555 1_555
C7A C8A 1_555 1_555
C8A H5A 1_555 1_555
C9A C8A 1_555 1_555
H6A C9A 1_555 1_555
C10A C9A 1_555 1_555
H7A C10A 1_555 1_555
C11A C10A 1_555 1_555
H8A C11A 1_555 1_555
C12A C7A 1_555 1_555
C13A C14A 1_555 1_555
C14A C15 1_555 1_555
H9A C14A 1_555 1_555
C15A C14 1_555 1_555
H10A C15A 1_555 1_555
N1A Ag1A 1_555 1_555
N2A Ag1 1_555 1_555
N3A C6A 1_555 1_555
H11A N3A 1_555 1_555
O1A S1A 1_555 1_555
O1A_2 Ag1A 1_555 1_555
O2A S1A 1_555 1_555
O3A S1A 1_555 1_555
S1 O1 1_555 1_555
C5 N1 1_555 1_555
C7 N2 1_555 1_555
C11 C12 1_555 1_555
C12 N3 1_555 1_555
C1A N1A 1_555 1_555
C5A N1A 1_555 1_555
C6A N2A 1_555 1_555
C7A N2A 1_555 1_555
C11A C12A 1_555 1_555
C12A N3A 1_555 1_555
C13A C15A 1_555 1_555

#END
