
#######################################################################
#
#                 Cambridge Crystallographic Data Centre
#                                CCDC 
#
#######################################################################
#
# If this CIF has been generated from an entry in the Cambridge 
# Structural Database, then it will include bibliographic, chemical, 
# crystal, experimental, refinement or atomic coordinate data resulting 
# from the CCDC's data processing and validation procedures.
#
#######################################################################

data_XIRMIV
_symmetry_cell_setting           monoclinic
_symmetry_space_group_name_H-M   'P 21/c'
_symmetry_Int_Tables_number      14
_space_group_name_Hall           '-P 2ybc'
loop_
_symmetry_equiv_pos_site_id
_symmetry_equiv_pos_as_xyz
1 x,y,z
2 -x,1/2+y,1/2-z
3 -x,-y,-z
4 x,1/2-y,1/2+z
_cell_length_a                   13.4351(15)
_cell_length_b                   7.9688(9)
_cell_length_c                   15.7183(18)
_cell_angle_alpha                90
_cell_angle_beta                 104.1330(10)
_cell_angle_gamma                90
_cell_volume                     1631.89
loop_
_atom_site_label
_atom_site_type_symbol
_atom_site_fract_x
_atom_site_fract_y
_atom_site_fract_z
Co1 Co 1.0000 0.5000 0.0000
O1 O 1.00684(18) 0.2545(4) 0.0220(2)
H1 H 0.9589 0.1931 -0.0039
H2 H 1.0497 0.2017 0.0588
N2 N 0.8530(2) 0.4986(3) 0.0078(2)
C1 C 0.5415(3) 0.4745(5) 0.0290(3)
H11 H 0.5320 0.4262 0.0803
C2 C 0.6476(3) 0.4871(4) 0.0201(3)
C3 C 0.6745(3) 0.5588(5) -0.0527(3)
H12 H 0.6241 0.6045 -0.0981
C4 C 0.7758(3) 0.5612(5) -0.0566(3)
H13 H 0.7920 0.6080 -0.1057
C5 C 0.8270(3) 0.4325(5) 0.0778(2)
H14 H 0.8787 0.3896 0.1232
C6 C 0.7273(3) 0.4256(5) 0.0855(3)
H15 H 0.7133 0.3787 0.1355
Co1_2 Co 0.0000 0.5000 0.0000
O1B O 0.99316(18) 0.7455(4) -0.0220(2)
H1B H 1.0411 0.8069 0.0039
H2B H 0.9503 0.7983 -0.0588
N2B N 0.1470(2) 0.5014(3) -0.0078(2)
N2B_2 N 1.1470(2) 0.5014(3) -0.0078(2)
C1B C 0.4585(3) 0.5255(5) -0.0290(3)
H11B H 0.4680 0.5738 -0.0803
C2B C 0.3524(3) 0.5129(4) -0.0201(3)
C3B C 0.3255(3) 0.4412(5) 0.0527(3)
H12B H 0.3759 0.3955 0.0981
C4B C 0.2242(3) 0.4388(5) 0.0566(3)
H13B H 0.2080 0.3920 0.1057
C5B C 0.1730(3) 0.5675(5) -0.0778(2)
H14B H 0.1213 0.6104 -0.1232
C6B C 0.2727(3) 0.5744(5) -0.0855(3)
H15B H 0.2867 0.6213 -0.1355
S1 S 0.20531(8) -0.04540(13) 0.13300(7)
O5 O 0.1560(3) 0.1016(5) 0.1560(3)
O6 O 0.1664(3) -0.0819(6) 0.0398(2)
O7 O 0.1974(2) -0.1889(4) 0.1860(2)
N1 N 0.6514(3) 0.0765(6) 0.2018(3)
H9 H 0.6824 0.1329 0.2472
H10 H 0.6858 0.0332 0.1678
C7 C 0.3369(3) 0.0009(4) 0.1491(3)
C8 C 0.3922(3) -0.0651(5) 0.0940(3)
H16 H 0.3588 -0.1266 0.0451
C9 C 0.4968(3) -0.0405(6) 0.1107(3)
H17 H 0.5338 -0.0872 0.0737
C10 C 0.5476(3) 0.0555(6) 0.1838(3)
C11 C 0.4897(3) 0.1229(5) 0.2368(3)
H18 H 0.5221 0.1879 0.2847
C12 C 0.3864(3) 0.0969(5) 0.2209(3)
H19 H 0.3493 0.1431 0.2580
O2 O 0.7714(5) 0.9228(9) 0.0977(4)
H3 H 0.8184 0.8814 0.1386
H4 H 0.6946 0.9382 0.0949
O3 O 0.0514(2) 0.5633(4) 0.1577(2)
H5 H 0.1010 0.6284 0.1636
H6 H 0.0534 0.5159 0.2058
O4 O 0.0764(3) 0.2844(5) 0.2693(3)
H7 H 0.1093 0.1920 0.2643
H8 H 0.0185 0.2582 0.2756
loop_
_geom_bond_atom_site_label_1
_geom_bond_atom_site_label_2
_geom_bond_site_symmetry_1
_geom_bond_site_symmetry_2
Co1 O1 1_555 1_555
S1 O5 1_555 1_555
O1 H1 1_555 1_555
H2 O1 1_555 1_555
O2 H3 1_555 1_555
H4 O2 1_555 1_555
O3 H5 1_555 1_555
H6 O3 1_555 1_555
O4 H7 1_555 1_555
H8 O4 1_555 1_555
O6 S1 1_555 1_555
O7 S1 1_555 1_555
N1 H9 1_555 1_555
H10 N1 1_555 1_555
N2 Co1 1_555 1_555
C1 H11 1_555 1_555
C2 C1 1_555 1_555
C3 C2 1_555 1_555
H12 C3 1_555 1_555
C4 N2 1_555 1_555
H13 C4 1_555 1_555
C5 N2 1_555 1_555
H14 C5 1_555 1_555
C6 C2 1_555 1_555
H15 C6 1_555 1_555
C7 S1 1_555 1_555
C8 C7 1_555 1_555
H16 C8 1_555 1_555
C9 C8 1_555 1_555
H17 C9 1_555 1_555
C10 N1 1_555 1_555
C11 C10 1_555 1_555
H18 C11 1_555 1_555
C12 C7 1_555 1_555
H19 C12 1_555 1_555
Co1_2 N2B 1_555 1_555
O1B Co1 1_555 1_555
H1B O1B 1_555 1_555
H2B O1B 1_555 1_555
N2B C4B 1_555 1_555
N2B_2 Co1 1_555 1_555
C1B C1 1_555 1_555
H11B C1B 1_555 1_555
C2B C1B 1_555 1_555
C3B C2B 1_555 1_555
H12B C3B 1_555 1_555
C4B C3B 1_555 1_555
H13B C4B 1_555 1_555
C5B N2B 1_555 1_555
H14B C5B 1_555 1_555
C6B C2B 1_555 1_555
H15B C6B 1_555 1_555
C3 C4 1_555 1_555
C5 C6 1_555 1_555
C9 C10 1_555 1_555
C11 C12 1_555 1_555
C5B C6B 1_555 1_555

#END
