
#######################################################################
#
#                 Cambridge Crystallographic Data Centre
#                                CCDC 
#
#######################################################################
#
# If this CIF has been generated from an entry in the Cambridge 
# Structural Database, then it will include bibliographic, chemical, 
# crystal, experimental, refinement or atomic coordinate data resulting 
# from the CCDC's data processing and validation procedures.
#
#######################################################################

data_XIRRUN
_symmetry_cell_setting           triclinic
_symmetry_space_group_name_H-M   'P -1'
_symmetry_Int_Tables_number      2
_space_group_name_Hall           '-P 1'
loop_
_symmetry_equiv_pos_site_id
_symmetry_equiv_pos_as_xyz
1 x,y,z
2 -x,-y,-z
_cell_length_a                   6.91220(10)
_cell_length_b                   13.2192(3)
_cell_length_c                   16.6432(4)
_cell_angle_alpha                69.1940(10)
_cell_angle_beta                 86.754(2)
_cell_angle_gamma                79.3670(10)
_cell_volume                     1397.11
loop_
_atom_site_label
_atom_site_type_symbol
_atom_site_fract_x
_atom_site_fract_y
_atom_site_fract_z
Pb1 Pb 0.05101(11) 0.22350(5) 1.16701(5)
Pb2 Pb 0.37814(9) 0.28568(5) 0.82024(4)
Pb3 Pb 0.64596(9) 0.10232(5) 1.04305(5)
Pb4 Pb -0.14157(9) 0.39373(5) 0.93619(5)
N1 N -0.012(2) 0.0243(10) 1.2136(10)
N2 N -0.148(2) -0.1227(10) 1.2243(10)
N3 N 0.685(2) 0.6072(11) 0.7816(10)
N4 N 0.501(2) 0.4816(11) 0.7828(10)
O1 O 0.4103(17) -0.0434(9) 1.0904(8)
O2 O 0.3324(16) 0.0884(8) 1.1430(8)
O3 O 0.2568(16) -0.2313(8) 1.1132(8)
O4 O -0.0270(17) -0.2832(8) 1.1523(7)
O5 O 0.1795(17) 0.4226(9) 0.8811(8)
O6 O 0.1281(17) 0.5689(8) 0.9197(8)
O7 O 0.3574(19) 0.7455(10) 0.8939(10)
O8 O 0.6785(18) 0.6781(9) 0.9228(9)
O9 O 0.3861(17) 0.2134(9) 0.9637(8)
H1 H 0.2774 0.1733 0.9801
H2 H 0.3536 0.2750 0.9837
O10 O 0.0013(17) 0.2286(8) 1.0322(9)
C1 C 0.291(2) 0.0039(12) 1.1333(11)
C2 C 0.112(2) -0.0362(12) 1.1738(12)
C3 C 0.025(3) -0.1250(13) 1.1769(13)
C4 C 0.089(2) -0.2172(12) 1.1465(12)
C5 C -0.162(3) -0.0282(13) 1.2440(12)
C6 C -0.319(3) 0.0056(13) 1.2964(11)
C7 C -0.302(3) 0.0885(13) 1.3275(11)
H3 H -0.1871 0.1178 1.3171
C8 C -0.450(3) 0.1291(13) 1.3730(12)
C9 C -0.619(3) 0.0807(13) 1.3926(11)
C10 C -0.637(3) -0.0073(13) 1.3687(11)
H4 H -0.7469 -0.0411 1.3847
C11 C -0.483(3) -0.0457(13) 1.3185(11)
H5 H -0.4937 -0.1041 1.3012
C12 C -0.419(3) 0.2192(13) 1.4087(11)
H6 H -0.4187 0.1898 1.4704
H7 H -0.5237 0.2811 1.3886
H8 H -0.2952 0.2420 1.3891
C13 C -0.794(3) 0.1248(13) 1.4408(11)
H9 H -0.9124 0.1048 1.4280
H10 H -0.8098 0.2034 1.4225
H11 H -0.7687 0.0933 1.5016
C14 C 0.231(2) 0.5107(13) 0.8814(12)
C15 C 0.410(2) 0.5400(13) 0.8319(12)
C16 C 0.530(2) 0.6176(13) 0.8281(12)
C17 C 0.514(2) 0.6891(13) 0.8827(12)
C18 C 0.660(2) 0.5226(13) 0.7549(12)
C19 C 0.810(2) 0.4870(13) 0.6969(12)
C20 C 0.779(3) 0.4080(13) 0.6630(12)
H12 H 0.6600 0.3831 0.6725
C21 C 0.923(2) 0.3661(13) 0.6154(12)
C22 C 1.105(2) 0.4041(13) 0.6021(12)
C23 C 1.134(2) 0.4869(13) 0.6296(12)
H13 H 1.2481 0.5174 0.6151
C24 C 0.986(2) 0.5254(13) 0.6810(12)
H14 H 1.0085 0.5769 0.7039
C25 C 0.883(2) 0.2788(13) 0.5817(12)
H15 H 0.7629 0.2548 0.6056
H16 H 0.9899 0.2173 0.5982
H17 H 0.8720 0.3091 0.5202
C26 C 1.262(2) 0.3565(13) 0.5516(12)
H18 H 1.3896 0.3618 0.5682
H19 H 1.2413 0.3969 0.4913
H20 H 1.2550 0.2808 0.5634
Pb1A Pb -0.05101(11) 0.77650(5) 0.83299(5)
Pb1A_2 Pb 0.94899(11) 0.77650(5) 0.83299(5)
Pb2A Pb -0.37814(9) -0.28568(5) 1.17976(4)
Pb2A_2 Pb 0.62186(9) -0.28568(5) 1.17976(4)
Pb3A Pb 0.35404(9) -0.10232(5) 0.95695(5)
Pb3A_2 Pb 0.35404(9) 0.89768(5) 0.95695(5)
Pb4A Pb 0.14157(9) -0.39373(5) 1.06381(5)
Pb4A_2 Pb 0.14157(9) 0.60627(5) 1.06381(5)
O1A O 0.5897(17) 0.0434(9) 0.9096(8)
O3A O -0.2568(16) 0.2313(8) 0.8868(8)
O3A_2 O 0.7432(16) 0.2313(8) 0.8868(8)
O4A O 0.0270(17) 0.2832(8) 0.8477(7)
O6A O -0.1281(17) 0.4311(8) 1.0803(8)
O7A O 0.6426(19) 0.2545(10) 1.1061(10)
O8A O 0.3215(18) 0.3219(9) 1.0772(9)
loop_
_geom_bond_atom_site_label_1
_geom_bond_atom_site_label_2
_geom_bond_site_symmetry_1
_geom_bond_site_symmetry_2
Pb1 N1 1_555 1_555
Pb2 N4 1_555 1_555
Pb3 O1 1_555 1_555
Pb4 O5 1_555 1_555
N1 C2 1_555 1_555
N2 C3 1_555 1_555
N3 C16 1_555 1_555
N4 C15 1_555 1_555
O1 C1 1_555 1_555
O2 Pb1 1_555 1_555
O3 C4 1_555 1_555
O4 C4 1_555 1_555
O5 Pb2 1_555 1_555
O6 C14 1_555 1_555
O7 C17 1_555 1_555
O8 C17 1_555 1_555
O9 Pb2 1_555 1_555
H1 O9 1_555 1_555
H2 O9 1_555 1_555
O10 Pb1 1_555 1_555
C1 O2 1_555 1_555
C2 C1 1_555 1_555
C3 C2 1_555 1_555
C4 C3 1_555 1_555
C5 N1 1_555 1_555
C6 C5 1_555 1_555
C7 C6 1_555 1_555
H3 C7 1_555 1_555
C8 C7 1_555 1_555
C9 C8 1_555 1_555
C10 C9 1_555 1_555
H4 C10 1_555 1_555
C11 C6 1_555 1_555
H5 C11 1_555 1_555
C12 C8 1_555 1_555
H6 C12 1_555 1_555
H7 C12 1_555 1_555
H8 C12 1_555 1_555
C13 C9 1_555 1_555
H9 C13 1_555 1_555
H10 C13 1_555 1_555
H11 C13 1_555 1_555
C14 O5 1_555 1_555
C15 C14 1_555 1_555
C16 C15 1_555 1_555
C17 C16 1_555 1_555
C18 N3 1_555 1_555
C19 C18 1_555 1_555
C20 C19 1_555 1_555
H12 C20 1_555 1_555
C21 C20 1_555 1_555
C22 C21 1_555 1_555
C23 C22 1_555 1_555
H13 C23 1_555 1_555
C24 C19 1_555 1_555
H14 C24 1_555 1_555
C25 C21 1_555 1_555
H15 C25 1_555 1_555
H16 C25 1_555 1_555
H17 C25 1_555 1_555
C26 C22 1_555 1_555
H18 C26 1_555 1_555
H19 C26 1_555 1_555
H20 C26 1_555 1_555
Pb1A O6 1_555 1_555
Pb1A_2 O8 1_555 1_555
Pb2A O4 1_555 1_555
Pb2A_2 O3 1_555 1_555
Pb3A O1 1_555 1_555
Pb3A_2 O7 1_555 1_555
Pb4A O3 1_555 1_555
Pb4A_2 O6 1_555 1_555
O1A Pb3 1_555 1_555
O3A Pb4 1_555 1_555
O3A_2 Pb2 1_555 1_555
O4A Pb2 1_555 1_555
O6A Pb1 1_555 1_555
O7A Pb3 1_555 1_555
O8A Pb1 1_555 1_555
Pb3 O2 1_555 1_555
Pb3 O9 1_555 1_555
Pb3 O3A_2 1_555 1_555
Pb4 O10 1_555 1_555
Pb4 O4A 1_555 1_555
Pb4 O6A 1_555 1_555
N2 C5 1_555 1_555
N4 C18 1_555 1_555
O3 Pb3A 1_555 1_555
O4 Pb4A 1_555 1_555
C10 C11 1_555 1_555
C23 C24 1_555 1_555
Pb3A O1A 1_555 1_555

#END
