
#######################################################################
#
#                 Cambridge Crystallographic Data Centre
#                                CCDC 
#
#######################################################################
#
# If this CIF has been generated from an entry in the Cambridge 
# Structural Database, then it will include bibliographic, chemical, 
# crystal, experimental, refinement or atomic coordinate data resulting 
# from the CCDC's data processing and validation procedures.
#
#######################################################################

data_XIRWAX
_symmetry_cell_setting           monoclinic
_symmetry_space_group_name_H-M   'C 2/c'
_symmetry_Int_Tables_number      15
_space_group_name_Hall           '-C 2yn'
loop_
_symmetry_equiv_pos_site_id
_symmetry_equiv_pos_as_xyz
1 x,y,z
2 1/2+x,1/2+y,z
3 -x,y,1/2-z
4 1/2-x,1/2+y,1/2-z
5 -x,-y,-z
6 1/2-x,1/2-y,-z
7 x,-y,1/2+z
8 1/2+x,1/2-y,1/2+z
_cell_length_a                   19.211(4)
_cell_length_b                   21.221(4)
_cell_length_c                   19.790(4)
_cell_angle_alpha                90
_cell_angle_beta                 100.62(3)
_cell_angle_gamma                90
_cell_volume                     7929.73
loop_
_atom_site_label
_atom_site_type_symbol
_atom_site_fract_x
_atom_site_fract_y
_atom_site_fract_z
Rb1 Rb -0.04112(3) 0.27934(4) 0.07624(3)
Rb2 Rb 0.15236(3) 0.13236(3) 0.35938(4)
Cu1 Cu 0.0000 0.20965(5) 0.2500
Cu2 Cu -0.28870(4) 0.19803(4) 0.02254(3)
O1 O -0.2102(2) 0.25186(19) 0.05698(18)
O2 O 0.0520(2) 0.2743(2) 0.21006(19)
C1 C 0.1074(3) 0.2889(3) 0.2527(4)
C2 C 0.1569(4) 0.3362(4) 0.2277(4)
O3 O 0.1221(2) 0.2669(2) 0.3112(2)
C3 C 0.2117(9) 0.3569(9) 0.2815(7)
H1 H 0.2401 0.3879 0.2639
H2 H 0.2407 0.3217 0.2992
H3 H 0.1911 0.3752 0.3176
C4 C 0.1810(11) 0.3090(10) 0.1685(9)
H4 H 0.2106 0.3388 0.1506
H5 H 0.1409 0.2989 0.1337
H6 H 0.2076 0.2714 0.1823
C5 C 0.1176(9) 0.3907(9) 0.1983(14)
H7 H 0.1493 0.4199 0.1825
H8 H 0.0956 0.4106 0.2325
H9 H 0.0819 0.3778 0.1602
O4 O -0.2435(3) 0.4285(3) -0.0139(3)
C6 C -0.1823(4) 0.4211(4) 0.0176(4)
O5 O -0.1531(2) 0.3683(2) 0.0262(2)
C7 C -0.1387(4) 0.4788(4) 0.0447(5)
C8 C -0.1245(9) 0.5153(6) -0.0157(7)
H10 H -0.1685 0.5295 -0.0425
H11 H -0.0953 0.5510 0.0000
H12 H -0.1005 0.4889 -0.0435
C9 C -0.1792(10) 0.5180(6) 0.0867(9)
H13 H -0.2229 0.5315 0.0587
H14 H -0.1891 0.4936 0.1247
H15 H -0.1516 0.5543 0.1038
C10 C -0.0679(7) 0.4585(6) 0.0861(9)
H16 H -0.0412 0.4950 0.1039
H17 H -0.0755 0.4322 0.1235
H18 H -0.0421 0.4353 0.0571
O6 O -0.2010(2) 0.3315(2) -0.1121(2)
C11 C -0.1398(5) 0.3286(4) -0.1231(4)
O7 O -0.0920(3) 0.3019(3) -0.0824(3)
C12 C -0.1241(5) 0.3572(6) -0.1875(4)
C13 C -0.0638(8) 0.4008(8) -0.1745(7)
H19 H -0.0544 0.4164 -0.2175
H20 H -0.0748 0.4355 -0.1471
H21 H -0.0228 0.3791 -0.1504
C14 C -0.1131(15) 0.3089(10) -0.2342(8)
H22 H -0.0986 0.3274 -0.2736
H23 H -0.0769 0.2807 -0.2119
H24 H -0.1563 0.2859 -0.2484
C15 C -0.1844(9) 0.3906(12) -0.2262(8)
H25 H -0.1712 0.4096 -0.2661
H26 H -0.2226 0.3616 -0.2404
H27 H -0.1992 0.4228 -0.1979
O8 O 0.0633(2) 0.1444(2) 0.2257(2)
O9 O -0.0098(2) 0.1536(2) 0.1280(2)
C16 C 0.0434(4) 0.1303(3) 0.1639(4)
C17 C 0.0873(5) 0.0839(4) 0.1324(4)
C18 C 0.1445(9) 0.1231(8) 0.1100(10)
H28 H 0.1735 0.0967 0.0872
H29 H 0.1732 0.1422 0.1495
H30 H 0.1231 0.1554 0.0790
C19 C 0.1276(10) 0.0406(8) 0.1819(7)
H31 H 0.0956 0.0143 0.2012
H32 H 0.1565 0.0642 0.2180
H33 H 0.1574 0.0148 0.1593
C20 C 0.0471(9) 0.0524(9) 0.0736(8)
H34 H 0.0130 0.0250 0.0882
H35 H 0.0785 0.0281 0.0513
H36 H 0.0231 0.0831 0.0421
O10 O 0.0477(4) 0.3025(6) -0.0252(4)
C21 C 0.0954(12) 0.2800(17) -0.0623(14)
H37 H 0.0776 0.2400 -0.0819
H38 H 0.0957 0.3087 -0.1004
C22 C 0.1516(12) 0.2726(15) -0.0366(16)
H39 H 0.1772 0.2529 -0.0682
H40 H 0.1530 0.2460 0.0029
H41 H 0.1729 0.3125 -0.0224
C25 C 0.1656(14) -0.0556(12) 0.3933(15)
H47 H 0.1523 -0.0679 0.4364
H48 H 0.2116 -0.0741 0.3927
O12 O 0.1735(6) 0.0027(4) 0.3949(6)
C26 C 0.121(2) -0.0818(14) 0.3449(16)
H49 H 0.1146 -0.1250 0.3566
H50 H 0.1397 -0.0801 0.3029
H51 H 0.0770 -0.0599 0.3389
Rb1B Rb 0.04112(3) 0.27934(4) 0.42376(3)
Rb1E Rb -0.45888(3) 0.22066(4) -0.07624(3)
Rb1G Rb 0.45888(3) 0.22066(4) 0.57624(3)
Rb2B Rb -0.15236(3) 0.13236(3) 0.14062(4)
Rb2G Rb -0.34764(3) 0.36764(3) -0.14062(4)
Cu2B Cu 0.28870(4) 0.19803(4) 0.47746(3)
Cu2E Cu -0.21130(4) 0.30197(4) -0.02254(3)
Cu2G Cu 0.21130(4) 0.30197(4) 0.52254(3)
O1B O 0.2102(2) 0.25186(19) 0.44302(18)
O1E O -0.2898(2) 0.24814(19) -0.05698(18)
O1G O 0.2898(2) 0.24814(19) 0.55698(18)
O2B O -0.0520(2) 0.2743(2) 0.28994(19)
C1B C -0.1074(3) 0.2889(3) 0.2473(4)
C2B C -0.1569(4) 0.3362(4) 0.2723(4)
O3B O -0.1221(2) 0.2669(2) 0.1888(2)
C3B C -0.2117(9) 0.3569(9) 0.2185(7)
H1B H -0.2401 0.3879 0.2361
H2B H -0.2407 0.3217 0.2008
H3B H -0.1911 0.3752 0.1824
C4B C -0.1810(11) 0.3090(10) 0.3315(9)
H4B H -0.2106 0.3388 0.3494
H5B H -0.1409 0.2989 0.3663
H6B H -0.2076 0.2714 0.3177
C5B C -0.1176(9) 0.3907(9) 0.3017(14)
H7B H -0.1493 0.4199 0.3175
H8B H -0.0956 0.4106 0.2675
H9B H -0.0819 0.3778 0.3398
O4G O 0.2565(3) 0.0715(3) 0.4861(3)
O4E O -0.2565(3) 0.0715(3) 0.0139(3)
C6G C 0.3177(4) 0.0789(4) 0.5176(4)
O5G O 0.3469(2) 0.1317(2) 0.5262(2)
O5E O -0.3469(2) 0.1317(2) -0.0262(2)
O5B O 0.1531(2) 0.3683(2) 0.4738(2)
C7G C 0.3613(4) 0.0212(4) 0.5447(5)
C8G C 0.3755(9) -0.0153(6) 0.4843(7)
H10G H 0.3315 -0.0295 0.4575
H11G H 0.4047 -0.0510 0.5000
H12G H 0.3995 0.0111 0.4565
C9G C 0.3208(10) -0.0180(6) 0.5867(9)
H13G H 0.2771 -0.0315 0.5587
H14G H 0.3109 0.0064 0.6247
H15G H 0.3484 -0.0543 0.6038
C10G C 0.4321(7) 0.0415(6) 0.5861(9)
H16G H 0.4588 0.0050 0.6039
H17G H 0.4245 0.0678 0.6235
H18G H 0.4579 0.0647 0.5571
O6G O 0.2990(2) 0.1685(2) 0.3879(2)
O6E O -0.2990(2) 0.1685(2) 0.1121(2)
C11G C 0.3602(5) 0.1714(4) 0.3769(4)
O7G O 0.4080(3) 0.1981(3) 0.4176(3)
O7B O 0.0920(3) 0.3019(3) 0.5824(3)
C12G C 0.3759(5) 0.1428(6) 0.3125(4)
C13G C 0.4362(8) 0.0992(8) 0.3255(7)
H19G H 0.4456 0.0836 0.2825
H20G H 0.4252 0.0645 0.3529
H21G H 0.4772 0.1209 0.3496
C14G C 0.3869(15) 0.1911(10) 0.2658(8)
H22G H 0.4014 0.1726 0.2264
H23G H 0.4231 0.2193 0.2881
H24G H 0.3437 0.2141 0.2516
C15G C 0.3156(9) 0.1094(12) 0.2738(8)
H25G H 0.3288 0.0904 0.2339
H26G H 0.2774 0.1384 0.2596
H27G H 0.3008 0.0772 0.3021
O8B O -0.0633(2) 0.1444(2) 0.2743(2)
O9B O 0.0098(2) 0.1536(2) 0.3720(2)
C16B C -0.0434(4) 0.1303(3) 0.3361(4)
C17B C -0.0873(5) 0.0839(4) 0.3676(4)
C18B C -0.1445(9) 0.1231(8) 0.3900(10)
H28B H -0.1735 0.0967 0.4128
H29B H -0.1732 0.1422 0.3505
H30B H -0.1231 0.1554 0.4210
C19B C -0.1276(10) 0.0406(8) 0.3181(7)
H31B H -0.0956 0.0143 0.2988
H32B H -0.1565 0.0642 0.2820
H33B H -0.1574 0.0148 0.3407
C20B C -0.0471(9) 0.0524(9) 0.4264(8)
H34B H -0.0130 0.0250 0.4118
H35B H -0.0785 0.0281 0.4487
H36B H -0.0231 0.0831 0.4579
O10B O -0.0477(4) 0.3025(6) 0.5252(4)
C21B C -0.0954(12) 0.2800(17) 0.5623(14)
H37B H -0.0776 0.2400 0.5819
H38B H -0.0957 0.3087 0.6004
C22B C -0.1516(12) 0.2726(15) 0.5366(16)
H39B H -0.1772 0.2529 0.5682
H40B H -0.1530 0.2460 0.4971
H41B H -0.1729 0.3125 0.5224
C25B C -0.1656(14) -0.0556(12) 0.1067(15)
H47B H -0.1523 -0.0679 0.0636
H48B H -0.2116 -0.0741 0.1073
O12B O -0.1735(6) 0.0027(4) 0.1051(6)
C26B C -0.121(2) -0.0818(14) 0.1551(16)
H49B H -0.1146 -0.1250 0.1434
H50B H -0.1397 -0.0801 0.1971
H51B H -0.0770 -0.0599 0.1611
O11 O -0.1168(12) 0.1502(14) -0.0229(12)
C23 C -0.103(2) 0.1357(10) -0.088(2)
H42 H -0.0971 0.0908 -0.0934
H43 H -0.1419 0.1500 -0.1239
C24 C -0.058(3) 0.160(3) -0.091(4)
H44 H -0.0457 0.1536 -0.1351
H45 H -0.0205 0.1439 -0.0558
H46 H -0.0648 0.2036 -0.0832
loop_
_geom_bond_atom_site_label_1
_geom_bond_atom_site_label_2
_geom_bond_site_symmetry_1
_geom_bond_site_symmetry_2
Rb1 O1 1_555 1_555
Rb2 O3 1_555 1_555
Cu1 O2 1_555 1_555
Cu2 O1 1_555 1_555
O1 Rb2B 1_555 1_555
O2 Rb1 1_555 1_555
C1 O2 1_555 1_555
C2 C1 1_555 1_555
O3 C1 1_555 1_555
C3 C2 1_555 1_555
H1 C3 1_555 1_555
H2 C3 1_555 1_555
H3 C3 1_555 1_555
C4 C2 1_555 1_555
H4 C4 1_555 1_555
H5 C4 1_555 1_555
H6 C4 1_555 1_555
C5 C2 1_555 1_555
H7 C5 1_555 1_555
H8 C5 1_555 1_555
H9 C5 1_555 1_555
O4 C6 1_555 1_555
C6 O5 1_555 1_555
O5 Rb1 1_555 1_555
C7 C6 1_555 1_555
C8 C7 1_555 1_555
H10 C8 1_555 1_555
H11 C8 1_555 1_555
H12 C8 1_555 1_555
C9 C7 1_555 1_555
H13 C9 1_555 1_555
H14 C9 1_555 1_555
H15 C9 1_555 1_555
C10 C7 1_555 1_555
H16 C10 1_555 1_555
H17 C10 1_555 1_555
H18 C10 1_555 1_555
O6 C11 1_555 1_555
C11 O7 1_555 1_555
O7 Rb1 1_555 1_555
C12 C11 1_555 1_555
C13 C12 1_555 1_555
H19 C13 1_555 1_555
H20 C13 1_555 1_555
H21 C13 1_555 1_555
C14 C12 1_555 1_555
H22 C14 1_555 1_555
H23 C14 1_555 1_555
H24 C14 1_555 1_555
C15 C12 1_555 1_555
H25 C15 1_555 1_555
H26 C15 1_555 1_555
H27 C15 1_555 1_555
O8 Rb2 1_555 1_555
O9 Rb1 1_555 1_555
C16 O8 1_555 1_555
C17 C16 1_555 1_555
C18 C17 1_555 1_555
H28 C18 1_555 1_555
H29 C18 1_555 1_555
H30 C18 1_555 1_555
C19 C17 1_555 1_555
H31 C19 1_555 1_555
H32 C19 1_555 1_555
H33 C19 1_555 1_555
C20 C17 1_555 1_555
H34 C20 1_555 1_555
H35 C20 1_555 1_555
H36 C20 1_555 1_555
O10 Rb1 1_555 1_555
C21 O10 1_555 1_555
H37 C21 1_555 1_555
H38 C21 1_555 1_555
C22 C21 1_555 1_555
H39 C22 1_555 1_555
H40 C22 1_555 1_555
H41 C22 1_555 1_555
O11 C23 1_555 1_555
C23 H42 1_555 1_555
H43 C23 1_555 1_555
C24 C23 1_555 1_555
H44 C24 1_555 1_555
H45 C24 1_555 1_555
H46 C24 1_555 1_555
C25 H47 1_555 1_555
H48 C25 1_555 1_555
O12 Rb2 1_555 1_555
C26 C25 1_555 1_555
H49 C26 1_555 1_555
H50 C26 1_555 1_555
H51 C26 1_555 1_555
Rb1B O3 1_555 1_555
Rb1E O1E 1_555 1_555
Rb1G O1G 1_555 1_555
Rb2B O9 1_555 1_555
Rb2G O4 1_555 1_555
Cu2B O1B 1_555 1_555
Cu2E O1 1_555 1_555
Cu2G O1B 1_555 1_555
O1B Rb2 1_555 1_555
O1E Cu2 1_555 1_555
O1G Cu2B 1_555 1_555
O2B Cu1 1_555 1_555
C1B O2B 1_555 1_555
C2B C1B 1_555 1_555
O3B Rb1 1_555 1_555
C3B C2B 1_555 1_555
H1B C3B 1_555 1_555
H2B C3B 1_555 1_555
H3B C3B 1_555 1_555
C4B C2B 1_555 1_555
H4B C4B 1_555 1_555
H5B C4B 1_555 1_555
H6B C4B 1_555 1_555
C5B C2B 1_555 1_555
H7B C5B 1_555 1_555
H8B C5B 1_555 1_555
H9B C5B 1_555 1_555
O4G Rb2 1_555 1_555
O4E Rb2B 1_555 1_555
C6G O4G 1_555 1_555
O5G Rb1G 1_555 1_555
O5E Cu2 1_555 1_555
O5B Rb1B 1_555 1_555
C7G C6G 1_555 1_555
C8G C7G 1_555 1_555
H10G C8G 1_555 1_555
H11G C8G 1_555 1_555
H12G C8G 1_555 1_555
C9G C7G 1_555 1_555
H13G C9G 1_555 1_555
H14G C9G 1_555 1_555
H15G C9G 1_555 1_555
C10G C7G 1_555 1_555
H16G C10G 1_555 1_555
H17G C10G 1_555 1_555
H18G C10G 1_555 1_555
O6G Rb2 1_555 1_555
O6E Cu2 1_555 1_555
C11G O6G 1_555 1_555
O7G Rb1G 1_555 1_555
O7B Rb1B 1_555 1_555
C12G C11G 1_555 1_555
C13G C12G 1_555 1_555
H19G C13G 1_555 1_555
H20G C13G 1_555 1_555
H21G C13G 1_555 1_555
C14G C12G 1_555 1_555
H22G C14G 1_555 1_555
H23G C14G 1_555 1_555
H24G C14G 1_555 1_555
C15G C12G 1_555 1_555
H25G C15G 1_555 1_555
H26G C15G 1_555 1_555
H27G C15G 1_555 1_555
O8B Cu1 1_555 1_555
O9B Rb2 1_555 1_555
C16B O8B 1_555 1_555
C17B C16B 1_555 1_555
C18B C17B 1_555 1_555
H28B C18B 1_555 1_555
H29B C18B 1_555 1_555
H30B C18B 1_555 1_555
C19B C17B 1_555 1_555
H31B C19B 1_555 1_555
H32B C19B 1_555 1_555
H33B C19B 1_555 1_555
C20B C17B 1_555 1_555
H34B C20B 1_555 1_555
H35B C20B 1_555 1_555
H36B C20B 1_555 1_555
O10B Rb1B 1_555 1_555
C21B O10B 1_555 1_555
H37B C21B 1_555 1_555
H38B C21B 1_555 1_555
C22B C21B 1_555 1_555
H39B C22B 1_555 1_555
H40B C22B 1_555 1_555
H41B C22B 1_555 1_555
C25B H47B 1_555 1_555
H48B C25B 1_555 1_555
O12B Rb2B 1_555 1_555
C26B C25B 1_555 1_555
H49B C26B 1_555 1_555
H50B C26B 1_555 1_555
H51B C26B 1_555 1_555
Cu1 O8 1_555 1_555
O5 Cu2E 1_555 1_555
O6 Rb2G 1_555 1_555
O6 Cu2E 1_555 1_555
O9 C16 1_555 1_555
C25 O12 1_555 1_555
Rb1B O1B 1_555 1_555
Rb1B O2B 1_555 1_555
Rb1B O9B 1_555 1_555
Rb1E O5E 1_555 1_555
Rb2B O3B 1_555 1_555
Rb2B O6E 1_555 1_555
Rb2B O8B 1_555 1_555
Rb2G O1E 1_555 1_555
Cu2B O5G 1_555 1_555
Cu2B O6G 1_555 1_555
Cu2E O1E 1_555 1_555
Cu2G O1G 1_555 1_555
Cu2G O5B 1_555 1_555
C1B O3B 1_555 1_555
C6G O5G 1_555 1_555
C11G O7G 1_555 1_555
O9B C16B 1_555 1_555
C25B O12B 1_555 1_555

#END
