
#######################################################################
#
#                 Cambridge Crystallographic Data Centre
#                                CCDC 
#
#######################################################################
#
# If this CIF has been generated from an entry in the Cambridge 
# Structural Database, then it will include bibliographic, chemical, 
# crystal, experimental, refinement or atomic coordinate data resulting 
# from the CCDC's data processing and validation procedures.
#
#######################################################################

data_XIRXIG
_symmetry_cell_setting           triclinic
_symmetry_space_group_name_H-M   'P -1'
_symmetry_Int_Tables_number      2
_space_group_name_Hall           '-P 1'
loop_
_symmetry_equiv_pos_site_id
_symmetry_equiv_pos_as_xyz
1 x,y,z
2 -x,-y,-z
_cell_length_a                   11.599(4)
_cell_length_b                   12.279(4)
_cell_length_c                   17.416(6)
_cell_angle_alpha                110.131(7)
_cell_angle_beta                 90.207(7)
_cell_angle_gamma                100.404(7)
_cell_volume                     2284.82
loop_
_atom_site_label
_atom_site_type_symbol
_atom_site_fract_x
_atom_site_fract_y
_atom_site_fract_z
Cs1 Cs 0.76831(7) 0.49001(9) 0.37894(5)
Cs2 Cs 1.27151(7) 0.51243(9) 0.12216(5)
Co1 Co 1.05740(14) 0.51635(15) 0.29158(10)
Co2 Co 0.55299(14) 0.48609(15) 0.20746(9)
O1 O 1.2054(8) 0.4812(9) 0.3270(5)
O2 O 0.7184(7) 0.5203(9) 0.1713(5)
O3 O 0.9334(8) 0.3658(8) 0.2604(5)
C1 C 0.9678(15) 0.3213(13) 0.1881(10)
O4 O 1.0535(9) 0.3780(9) 0.1671(5)
C2 C 0.9051(13) 0.2037(14) 0.1312(8)
C3 C 0.782(3) 0.176(3) 0.155(2)
H1 H 0.7429 0.0999 0.1178
H2 H 0.7398 0.2352 0.1530
H3 H 0.7843 0.1740 0.2098
C4 C 0.950(4) 0.112(2) 0.147(2)
H4 H 1.0314 0.1185 0.1360
H5 H 0.9067 0.0368 0.1124
H6 H 0.9420 0.1201 0.2034
C5 C 0.897(3) 0.199(3) 0.0518(12)
H7 H 0.9740 0.2123 0.0332
H8 H 0.8561 0.2593 0.0486
H9 H 0.8539 0.1230 0.0178
O5 O 0.9243(8) 0.6112(8) 0.2548(5)
C6 C 1.0179(13) 0.6776(13) 0.2429(8)
O6 O 1.1114(8) 0.6520(8) 0.2466(5)
C7 C 1.0036(15) 0.7758(17) 0.2117(14)
C8 C 1.107(2) 0.863(2) 0.228(2)
H10 H 1.1698 0.8284 0.2004
H11 H 1.1272 0.8955 0.2861
H12 H 1.0938 0.9249 0.2091
C9 C 0.899(3) 0.833(3) 0.2561(17)
H13 H 0.9199 0.8686 0.3140
H14 H 0.8297 0.7732 0.2463
H15 H 0.8850 0.8926 0.2351
C10 C 0.959(3) 0.721(3) 0.1220(15)
H16 H 1.0184 0.6855 0.0900
H17 H 0.9398 0.7809 0.1033
H18 H 0.8897 0.6614 0.1160
O7 O 1.0328(8) 0.6061(8) 0.4104(5)
C11 C 1.0999(12) 0.6539(12) 0.4697(7)
C12 C 1.0782(13) 0.7655(12) 0.5318(8)
O8 O 1.1910(9) 0.6111(9) 0.4839(5)
C13 C 1.178(2) 0.813(2) 0.6044(12)
H19 H 1.1736 0.7582 0.6330
H20 H 1.1684 0.8886 0.6418
H21 H 1.2539 0.8211 0.5824
C14 C 0.9676(15) 0.743(2) 0.5699(13)
H22 H 0.9035 0.7135 0.5286
H23 H 0.9555 0.8160 0.6102
H24 H 0.9717 0.6866 0.5958
C15 C 1.084(2) 0.8586(17) 0.4886(13)
H25 H 1.0231 0.8310 0.4449
H26 H 1.1591 0.8693 0.4667
H27 H 1.0726 0.9325 0.5276
O9 O 0.6049(8) 0.6208(9) 0.3307(5)
C16 C 0.5381(16) 0.6793(12) 0.3125(9)
O10 O 0.4869(7) 0.6378(8) 0.2418(5)
C17 C 0.5203(18) 0.7959(14) 0.3693(10)
C18 C 0.447(3) 0.854(3) 0.3454(19)
H28 H 0.4476 0.9290 0.3880
H29 H 0.3685 0.8080 0.3351
H30 H 0.4722 0.8670 0.2963
C19 C 0.610(3) 0.879(2) 0.385(3)
H31 H 0.5905 0.9505 0.4230
H32 H 0.6320 0.8919 0.3352
H33 H 0.6735 0.8588 0.4086
C20 C 0.489(6) 0.788(4) 0.4476(19)
H34 H 0.4779 0.8635 0.4841
H35 H 0.5499 0.7627 0.4706
H36 H 0.4167 0.7310 0.4400
O11 O 0.5572(8) 0.3519(8) 0.2531(5)
C21 C 0.4479(13) 0.3289(12) 0.2604(7)
O12 O 0.3843(8) 0.3919(8) 0.2468(5)
C22 C 0.3975(15) 0.2284(19) 0.2896(13)
C23 C 0.496(3) 0.174(3) 0.306(3)
H37 H 0.5585 0.2356 0.3392
H38 H 0.5245 0.1307 0.2555
H39 H 0.4682 0.1219 0.3353
C24 C 0.268(4) 0.177(3) 0.244(3)
H40 H 0.2276 0.2408 0.2496
H41 H 0.2241 0.1237 0.2675
H42 H 0.2739 0.1351 0.1865
C25 C 0.353(4) 0.270(3) 0.362(2)
H43 H 0.4157 0.3135 0.4033
H44 H 0.3103 0.2054 0.3757
H45 H 0.3010 0.3214 0.3593
O13 O 1.4871(8) 0.3980(8) 0.0902(5)
C26 C 1.5424(15) 0.3507(12) 0.0288(8)
C27 C 1.4769(11) 0.2342(12) -0.0329(7)
O14 O 1.6473(9) 0.3917(10) 0.0172(5)
C28 C 1.553(2) 0.183(3) -0.1012(13)
H46 H 1.6230 0.1707 -0.0785
H47 H 1.5743 0.2374 -0.1298
H48 H 1.5105 0.1093 -0.1386
C29 C 1.365(2) 0.252(2) -0.0660(18)
H49 H 1.3176 0.2827 -0.0216
H50 H 1.3227 0.1775 -0.1032
H51 H 1.3830 0.3066 -0.0945
C30 C 1.436(3) 0.148(2) 0.0103(18)
H52 H 1.5034 0.1321 0.0342
H53 H 1.3931 0.0754 -0.0285
H54 H 1.3868 0.1811 0.0526
Cs1A Cs 1.23169(7) 0.50999(9) 0.62106(5)
Cs2_2 Cs 0.27151(7) 0.51243(9) 0.12216(5)
Cs2A Cs 1.72849(7) 0.48757(9) -0.12216(5)
Co2_2 Co 1.55299(14) 0.48609(15) 0.20746(9)
O8A O 0.8090(9) 0.3889(9) 0.5161(5)
O10_2 O 1.4869(7) 0.6378(8) 0.2418(5)
O12_2 O 1.3843(8) 0.3919(8) 0.2468(5)
O13_2 O 0.4871(8) 0.3980(8) 0.0902(5)
O14A O 1.3527(9) 0.6083(10) -0.0172(5)
loop_
_geom_bond_atom_site_label_1
_geom_bond_atom_site_label_2
_geom_bond_site_symmetry_1
_geom_bond_site_symmetry_2
Cs1 O2 1_555 1_555
Cs2 O1 1_555 1_555
Co1 O1 1_555 1_555
Co2 O2 1_555 1_555
O3 Cs1 1_555 1_555
C1 O3 1_555 1_555
O4 Cs2 1_555 1_555
C2 C1 1_555 1_555
C3 C2 1_555 1_555
H1 C3 1_555 1_555
H2 C3 1_555 1_555
H3 C3 1_555 1_555
C4 C2 1_555 1_555
H4 C4 1_555 1_555
H5 C4 1_555 1_555
H6 C4 1_555 1_555
C5 C2 1_555 1_555
H7 C5 1_555 1_555
H8 C5 1_555 1_555
H9 C5 1_555 1_555
O5 Cs1 1_555 1_555
C6 O5 1_555 1_555
O6 Cs2 1_555 1_555
C7 C6 1_555 1_555
C8 C7 1_555 1_555
H10 C8 1_555 1_555
H11 C8 1_555 1_555
H12 C8 1_555 1_555
C9 C7 1_555 1_555
H13 C9 1_555 1_555
H14 C9 1_555 1_555
H15 C9 1_555 1_555
C10 C7 1_555 1_555
H16 C10 1_555 1_555
H17 C10 1_555 1_555
H18 C10 1_555 1_555
O7 Cs1 1_555 1_555
C11 O7 1_555 1_555
C12 C11 1_555 1_555
O8 C11 1_555 1_555
C13 C12 1_555 1_555
H19 C13 1_555 1_555
H20 C13 1_555 1_555
H21 C13 1_555 1_555
C14 C12 1_555 1_555
H22 C14 1_555 1_555
H23 C14 1_555 1_555
H24 C14 1_555 1_555
C15 C12 1_555 1_555
H25 C15 1_555 1_555
H26 C15 1_555 1_555
H27 C15 1_555 1_555
O9 Cs1 1_555 1_555
C16 O9 1_555 1_555
O10 Co2 1_555 1_555
C17 C16 1_555 1_555
C18 C17 1_555 1_555
H28 C18 1_555 1_555
H29 C18 1_555 1_555
H30 C18 1_555 1_555
C19 C17 1_555 1_555
H31 C19 1_555 1_555
H32 C19 1_555 1_555
H33 C19 1_555 1_555
C20 C17 1_555 1_555
H34 C20 1_555 1_555
H35 C20 1_555 1_555
H36 C20 1_555 1_555
O11 Cs1 1_555 1_555
C21 O11 1_555 1_555
O12 C21 1_555 1_555
C22 C21 1_555 1_555
C23 C22 1_555 1_555
H37 C23 1_555 1_555
H38 C23 1_555 1_555
H39 C23 1_555 1_555
C24 C22 1_555 1_555
H40 C24 1_555 1_555
H41 C24 1_555 1_555
H42 C24 1_555 1_555
C25 C22 1_555 1_555
H43 C25 1_555 1_555
H44 C25 1_555 1_555
H45 C25 1_555 1_555
O13 Cs2 1_555 1_555
C26 O13 1_555 1_555
C27 C26 1_555 1_555
O14 C26 1_555 1_555
C28 C27 1_555 1_555
H46 C28 1_555 1_555
H47 C28 1_555 1_555
H48 C28 1_555 1_555
C29 C27 1_555 1_555
H49 C29 1_555 1_555
H50 C29 1_555 1_555
H51 C29 1_555 1_555
C30 C27 1_555 1_555
H52 C30 1_555 1_555
H53 C30 1_555 1_555
H54 C30 1_555 1_555
Cs1A O8 1_555 1_555
Cs2_2 O10 1_555 1_555
Cs2A O14 1_555 1_555
Co2_2 O13 1_555 1_555
O8A Cs1 1_555 1_555
O10_2 Cs2 1_555 1_555
O12_2 Cs2 1_555 1_555
O13_2 Co2 1_555 1_555
O14A Cs2 1_555 1_555
Co1 O3 1_555 1_555
Co1 O6 1_555 1_555
Co1 O7 1_555 1_555
Co2 O11 1_555 1_555
C1 O4 1_555 1_555
C6 O6 1_555 1_555
C16 O10 1_555 1_555
O12 Cs2_2 1_555 1_555
Cs2_2 O13_2 1_555 1_555
Co2_2 O10_2 1_555 1_555

#END
