
#######################################################################
#
#                 Cambridge Crystallographic Data Centre
#                                CCDC 
#
#######################################################################
#
# If this CIF has been generated from an entry in the Cambridge 
# Structural Database, then it will include bibliographic, chemical, 
# crystal, experimental, refinement or atomic coordinate data resulting 
# from the CCDC's data processing and validation procedures.
#
#######################################################################

data_XIRXIH
_symmetry_cell_setting           monoclinic
_symmetry_space_group_name_H-M   'P 21/c'
_symmetry_Int_Tables_number      14
_space_group_name_Hall           '-P 2ybc'
loop_
_symmetry_equiv_pos_site_id
_symmetry_equiv_pos_as_xyz
1 x,y,z
2 -x,1/2+y,1/2-z
3 -x,-y,-z
4 x,1/2-y,1/2+z
_cell_length_a                   16.879(4)
_cell_length_b                   8.2185(18)
_cell_length_c                   22.862(5)
_cell_angle_alpha                90
_cell_angle_beta                 92.936(2)
_cell_angle_gamma                90
_cell_volume                     3167.26
loop_
_atom_site_label
_atom_site_type_symbol
_atom_site_fract_x
_atom_site_fract_y
_atom_site_fract_z
Zn1 Zn 1.032013(14) 0.12750(3) 0.230273(10)
Zn2 Zn 0.643478(14) -0.20936(3) 0.451788(10)
O1 O 0.96361(9) 0.38795(17) 0.28133(7)
O2 O 0.94426(8) 0.12433(16) 0.28626(6)
O3 O 0.72518(10) -0.08243(19) 0.40745(7)
O4 O 0.67721(10) 0.0833(2) 0.47222(7)
O5 O 0.68541(9) -0.2619(2) 0.52986(6)
O6 O 0.57894(10) -0.4156(2) 0.54131(7)
O7 O 0.85893(11) -0.2337(2) 0.77894(9)
O8 O 0.88550(12) -0.1818(3) 0.68914(10)
N1 N 0.53163(10) -0.1310(2) 0.43389(7)
N2 N 0.40677(10) -0.1091(2) 0.40747(7)
N3 N 0.43928(12) 0.0373(2) 0.39445(9)
N4 N 0.32325(11) -0.0588(2) 0.17713(8)
N5 N 0.38411(12) -0.1374(2) 0.15195(9)
N6 N 0.35134(10) 0.0916(2) 0.10303(7)
N7 N 0.97104(10) 0.2093(2) 0.15723(7)
N8 N 0.92245(12) 0.3697(2) 0.08950(8)
N9 N 0.88143(13) 0.2279(3) 0.08266(10)
C1 C 0.88313(11) 0.2851(2) 0.35648(8)
C2 C 0.83085(12) 0.1610(2) 0.37088(8)
H1 H 0.8280 0.0655 0.3490
C3 C 0.78329(12) 0.1815(3) 0.41800(8)
C4 C 0.79052(12) 0.3220(3) 0.45189(9)
H2 H 0.7582 0.3350 0.4833
C5 C 0.84472(12) 0.4431(3) 0.43997(9)
C6 C 0.88974(12) 0.4233(3) 0.39127(9)
H3 H 0.9252 0.5046 0.3818
C7 C 0.93298(11) 0.2661(2) 0.30466(9)
C8 C 0.72437(13) 0.0534(3) 0.43389(9)
C9 C 0.85492(16) 0.5925(3) 0.47775(11)
H4 H 0.8201 0.5860 0.5096
H5 H 0.8423 0.6876 0.4547
H6 H 0.9089 0.5991 0.4930
C10 C 0.66627(12) -0.3625(2) 0.62445(9)
C11 C 0.74097(12) -0.3101(3) 0.64428(9)
H7 H 0.7765 -0.2718 0.6177
C12 C 0.76307(13) -0.3145(3) 0.70389(10)
C13 C 0.71000(14) -0.3742(3) 0.74314(10)
H8 H 0.7255 -0.3810 0.7827
C14 C 0.63434(14) -0.4238(3) 0.72438(10)
C15 C 0.61346(13) -0.4173(3) 0.66461(9)
H9 H 0.5630 -0.4506 0.6514
C16 C 0.64014(13) -0.3491(3) 0.56040(9)
C17 C 0.84088(15) -0.2404(3) 0.72468(13)
C18 C 0.57463(17) -0.4777(4) 0.76767(12)
H10 H 0.5610 -0.3871 0.7917
H11 H 0.5973 -0.5628 0.7920
H12 H 0.5278 -0.5175 0.7468
C19 C 0.51379(14) 0.0180(3) 0.41094(10)
H13 H 0.5515 0.0993 0.4073
C20 C 0.46199(13) -0.2070(3) 0.43094(9)
H14 H 0.4534 -0.3129 0.4435
C21 C 0.32117(13) -0.1306(4) 0.39750(10)
H15 H 0.2951 -0.0306 0.4082
H16 H 0.3039 -0.2154 0.4235
C22 C 0.29406(14) -0.1741(3) 0.33589(10)
H17 H 0.2376 -0.1518 0.3314
H18 H 0.3008 -0.2905 0.3313
C23 C 0.33365(13) -0.0912(3) 0.28596(9)
H19 H 0.3874 -0.1314 0.2837
H20 H 0.3361 0.0252 0.2929
C24 C 0.28704(14) -0.1251(3) 0.22889(9)
H21 H 0.2814 -0.2419 0.2242
H22 H 0.2343 -0.0795 0.2311
C25 C 0.30440(13) 0.0751(3) 0.14744(9)
H23 H 0.2642 0.1470 0.1564
C26 C 0.39837(13) -0.0422(3) 0.10748(10)
H24 H 0.4373 -0.0647 0.0813
C27 C 0.97508(14) 0.3560(3) 0.13390(9)
H25 H 1.0099 0.4376 0.1469
C28 C 0.91272(15) 0.1362(3) 0.12425(11)
H26 H 0.8963 0.0300 0.1306
C29 C 0.90828(17) 0.5056(3) 0.04887(11)
H27 H 0.9227 0.6068 0.0685
H28 H 0.8522 0.5106 0.0373
C30 C 0.95606(15) 0.4876(3) -0.00557(10)
H29 H 0.9471 0.3798 -0.0218
H30 H 0.9367 0.5659 -0.0347
N7B N 1.02896(10) 0.7907(2) -0.15723(7)
N8B N 1.07755(12) 0.6303(2) -0.08950(8)
N9B N 1.11857(13) 0.7721(3) -0.08266(10)
C27B C 1.02492(14) 0.6440(3) -0.13390(9)
H25B H 0.9901 0.5624 -0.1469
C28B C 1.08728(15) 0.8638(3) -0.12425(11)
H26B H 1.1037 0.9700 -0.1306
C29B C 1.09172(17) 0.4944(3) -0.04887(11)
H27B H 1.0773 0.3932 -0.0685
H28B H 1.1478 0.4894 -0.0373
C30B C 1.04394(15) 0.5124(3) 0.00557(10)
H29B H 1.0529 0.6202 0.0218
H30B H 1.0633 0.4341 0.0347
Zn1B Zn 0.967987(14) -0.12750(3) 0.769727(10)
Zn2B Zn 1.356522(14) 0.20936(3) 0.548212(10)
O1B O 1.03639(9) -0.38795(17) 0.71867(7)
O2B O 1.05574(8) -0.12433(16) 0.71374(6)
O3B O 1.27482(10) 0.08243(19) 0.59255(7)
O4B O 1.32279(10) -0.0833(2) 0.52778(7)
O5B O 1.31459(9) 0.2619(2) 0.47014(6)
O6B O 1.42106(10) 0.4156(2) 0.45869(7)
O7B O 1.14107(11) 0.2337(2) 0.22106(9)
O8B O 1.11450(12) 0.1818(3) 0.31086(10)
N1B N 1.46837(10) 0.1310(2) 0.56611(7)
N2B N 1.59323(10) 0.1091(2) 0.59253(7)
N3B N 1.56072(12) -0.0373(2) 0.60555(9)
N4B N 1.67675(11) 0.0588(2) 0.82287(8)
N5B N 1.61589(12) 0.1374(2) 0.84805(9)
N6B N 1.64866(10) -0.0916(2) 0.89697(7)
C1B C 1.11687(11) -0.2851(2) 0.64352(8)
C2B C 1.16915(12) -0.1610(2) 0.62912(8)
H1B H 1.1720 -0.0655 0.6510
C3B C 1.21671(12) -0.1815(3) 0.58200(8)
C4B C 1.20948(12) -0.3220(3) 0.54811(9)
H2B H 1.2418 -0.3350 0.5167
C5B C 1.15528(12) -0.4431(3) 0.56003(9)
C6B C 1.11026(12) -0.4233(3) 0.60873(9)
H3B H 1.0748 -0.5046 0.6182
C7B C 1.06702(11) -0.2661(2) 0.69534(9)
C8B C 1.27563(13) -0.0534(3) 0.56611(9)
C9B C 1.14508(16) -0.5925(3) 0.52225(11)
H4B H 1.1799 -0.5860 0.4904
H5B H 1.1577 -0.6876 0.5453
H6B H 1.0911 -0.5991 0.5070
C10B C 1.33373(12) 0.3625(2) 0.37555(9)
C11B C 1.25903(12) 0.3101(3) 0.35572(9)
H7B H 1.2235 0.2718 0.3823
C12B C 1.23693(13) 0.3145(3) 0.29611(10)
C13B C 1.29000(14) 0.3742(3) 0.25686(10)
H8B H 1.2745 0.3810 0.2173
C14B C 1.36566(14) 0.4238(3) 0.27562(10)
C15B C 1.38654(13) 0.4173(3) 0.33539(9)
H9B H 1.4370 0.4506 0.3486
C16B C 1.35986(13) 0.3491(3) 0.43960(9)
C17B C 1.15912(15) 0.2404(3) 0.27532(13)
C18B C 1.42537(17) 0.4777(4) 0.23233(12)
H10B H 1.4390 0.3871 0.2083
H11B H 1.4027 0.5628 0.2080
H12B H 1.4722 0.5175 0.2532
C19B C 1.48621(14) -0.0180(3) 0.58906(10)
H13B H 1.4485 -0.0993 0.5927
C20B C 1.53801(13) 0.2070(3) 0.56906(9)
H14B H 1.5466 0.3129 0.5565
C21B C 1.67883(13) 0.1306(4) 0.60250(10)
H15B H 1.7049 0.0306 0.5918
H16B H 1.6961 0.2154 0.5765
C22B C 1.70594(14) 0.1741(3) 0.66411(10)
H17B H 1.7624 0.1518 0.6686
H18B H 1.6992 0.2905 0.6687
C23B C 1.66635(13) 0.0912(3) 0.71404(9)
H19B H 1.6126 0.1314 0.7163
H20B H 1.6639 -0.0252 0.7071
C24B C 1.71296(14) 0.1251(3) 0.77111(9)
H21B H 1.7186 0.2419 0.7758
H22B H 1.7657 0.0795 0.7689
C25B C 1.69560(13) -0.0751(3) 0.85256(9)
H23B H 1.7358 -0.1470 0.8436
C26B C 1.60163(13) 0.0422(3) 0.89252(10)
H24B H 1.5627 0.0647 0.9187
Zn1A Zn 0.967987(14) 0.62750(3) 0.269727(10)
Zn1B_2 Zn 0.967987(14) 0.87250(3) -0.230273(10)
Zn1C Zn 1.032013(14) -0.62750(3) 0.730273(10)
Zn2A Zn 0.356522(14) 0.29064(3) 0.048212(10)
Zn2C Zn 1.643478(14) -0.29064(3) 0.951788(10)
O1A O 1.03639(9) -0.11205(17) 0.21867(7)
O1C O 0.96361(9) 0.11205(17) 0.78133(7)
N6A N 0.64866(10) -0.4084(2) 0.39697(7)
N6C N 1.35134(10) 0.4084(2) 0.60303(7)
N7B_2 N 1.02896(10) -0.2093(2) 0.84277(7)
loop_
_geom_bond_atom_site_label_1
_geom_bond_atom_site_label_2
_geom_bond_site_symmetry_1
_geom_bond_site_symmetry_2
Zn1 O2 1_555 1_555
Zn2 O3 1_555 1_555
O1 C7 1_555 1_555
O2 C7 1_555 1_555
O3 C8 1_555 1_555
O4 C8 1_555 1_555
O5 Zn2 1_555 1_555
O6 C16 1_555 1_555
O7 C17 1_555 1_555
O8 C17 1_555 1_555
N1 Zn2 1_555 1_555
N2 N3 1_555 1_555
N3 C19 1_555 1_555
N4 N5 1_555 1_555
N5 C26 1_555 1_555
N6 C25 1_555 1_555
N7 Zn1 1_555 1_555
N8 N9 1_555 1_555
N9 C28 1_555 1_555
C1 C2 1_555 1_555
C2 H1 1_555 1_555
C3 C2 1_555 1_555
C4 C3 1_555 1_555
H2 C4 1_555 1_555
C5 C4 1_555 1_555
C6 C1 1_555 1_555
H3 C6 1_555 1_555
C7 C1 1_555 1_555
C8 C3 1_555 1_555
C9 C5 1_555 1_555
H4 C9 1_555 1_555
H5 C9 1_555 1_555
H6 C9 1_555 1_555
C10 C11 1_555 1_555
C11 H7 1_555 1_555
C12 C11 1_555 1_555
C13 C12 1_555 1_555
H8 C13 1_555 1_555
C14 C13 1_555 1_555
C15 C10 1_555 1_555
H9 C15 1_555 1_555
C16 O5 1_555 1_555
C17 C12 1_555 1_555
C18 C14 1_555 1_555
H10 C18 1_555 1_555
H11 C18 1_555 1_555
H12 C18 1_555 1_555
C19 N1 1_555 1_555
H13 C19 1_555 1_555
C20 N1 1_555 1_555
H14 C20 1_555 1_555
C21 N2 1_555 1_555
H15 C21 1_555 1_555
H16 C21 1_555 1_555
C22 C21 1_555 1_555
H17 C22 1_555 1_555
H18 C22 1_555 1_555
C23 C22 1_555 1_555
H19 C23 1_555 1_555
H20 C23 1_555 1_555
C24 N4 1_555 1_555
H21 C24 1_555 1_555
H22 C24 1_555 1_555
C25 N4 1_555 1_555
H23 C25 1_555 1_555
C26 N6 1_555 1_555
H24 C26 1_555 1_555
C27 N7 1_555 1_555
H25 C27 1_555 1_555
C28 N7 1_555 1_555
H26 C28 1_555 1_555
C29 N8 1_555 1_555
H27 C29 1_555 1_555
H28 C29 1_555 1_555
C30 C29 1_555 1_555
H29 C30 1_555 1_555
H30 C30 1_555 1_555
N7B C27B 1_555 1_555
N8B N9B 1_555 1_555
N9B C28B 1_555 1_555
C27B N8B 1_555 1_555
H25B C27B 1_555 1_555
C28B N7B 1_555 1_555
H26B C28B 1_555 1_555
C29B N8B 1_555 1_555
H27B C29B 1_555 1_555
H28B C29B 1_555 1_555
C30B C30 1_555 1_555
H29B C30B 1_555 1_555
H30B C30B 1_555 1_555
Zn1B O7 1_555 1_555
Zn2B O3B 1_555 1_555
O1B C7B 1_555 1_555
O2B Zn1B 1_555 1_555
O3B C8B 1_555 1_555
O4B C8B 1_555 1_555
O5B Zn2B 1_555 1_555
O6B C16B 1_555 1_555
O7B Zn1 1_555 1_555
O8B Zn1 1_555 1_555
N1B Zn2B 1_555 1_555
N2B N3B 1_555 1_555
N3B C19B 1_555 1_555
N4B N5B 1_555 1_555
N5B C26B 1_555 1_555
N6B C25B 1_555 1_555
C1B C2B 1_555 1_555
C2B H1B 1_555 1_555
C3B C2B 1_555 1_555
C4B C3B 1_555 1_555
H2B C4B 1_555 1_555
C5B C4B 1_555 1_555
C6B C1B 1_555 1_555
H3B C6B 1_555 1_555
C7B O2B 1_555 1_555
C8B C3B 1_555 1_555
C9B C5B 1_555 1_555
H4B C9B 1_555 1_555
H5B C9B 1_555 1_555
H6B C9B 1_555 1_555
C10B C11B 1_555 1_555
C11B H7B 1_555 1_555
C12B C11B 1_555 1_555
C13B C12B 1_555 1_555
H8B C13B 1_555 1_555
C14B C13B 1_555 1_555
C15B C10B 1_555 1_555
H9B C15B 1_555 1_555
C16B O5B 1_555 1_555
C17B O7B 1_555 1_555
C18B C14B 1_555 1_555
H10B C18B 1_555 1_555
H11B C18B 1_555 1_555
H12B C18B 1_555 1_555
C19B N1B 1_555 1_555
H13B C19B 1_555 1_555
C20B N1B 1_555 1_555
H14B C20B 1_555 1_555
C21B N2B 1_555 1_555
H15B C21B 1_555 1_555
H16B C21B 1_555 1_555
C22B C21B 1_555 1_555
H17B C22B 1_555 1_555
H18B C22B 1_555 1_555
C23B C22B 1_555 1_555
H19B C23B 1_555 1_555
H20B C23B 1_555 1_555
C24B N4B 1_555 1_555
H21B C24B 1_555 1_555
H22B C24B 1_555 1_555
C25B N4B 1_555 1_555
H23B C25B 1_555 1_555
C26B N6B 1_555 1_555
H24B C26B 1_555 1_555
Zn1A O1 1_555 1_555
Zn1B_2 N7B 1_555 1_555
Zn1C O1B 1_555 1_555
Zn2A N6 1_555 1_555
Zn2C N6B 1_555 1_555
O1A Zn1 1_555 1_555
O1C Zn1B 1_555 1_555
N6A Zn2 1_555 1_555
N6C Zn2B 1_555 1_555
N7B_2 Zn1B 1_555 1_555
O8 Zn1B 1_555 1_555
N2 C20 1_555 1_555
N8 C27 1_555 1_555
C5 C6 1_555 1_555
C10 C16 1_555 1_555
C14 C15 1_555 1_555
C23 C24 1_555 1_555
C29B C30B 1_555 1_555
O8B C17B 1_555 1_555
N2B C20B 1_555 1_555
C1B C7B 1_555 1_555
C5B C6B 1_555 1_555
C10B C16B 1_555 1_555
C12B C17B 1_555 1_555
C14B C15B 1_555 1_555
C23B C24B 1_555 1_555

#END
