
#######################################################################
#
#                 Cambridge Crystallographic Data Centre
#                                CCDC 
#
#######################################################################
#
# If this CIF has been generated from an entry in the Cambridge 
# Structural Database, then it will include bibliographic, chemical, 
# crystal, experimental, refinement or atomic coordinate data resulting 
# from the CCDC's data processing and validation procedures.
#
#######################################################################

data_XIRYED
_symmetry_cell_setting           monoclinic
_symmetry_space_group_name_H-M   'C 2/c'
_symmetry_Int_Tables_number      15
_space_group_name_Hall           '-C 2yn'
loop_
_symmetry_equiv_pos_site_id
_symmetry_equiv_pos_as_xyz
1 x,y,z
2 -x,y,1/2-z
3 1/2+x,1/2+y,z
4 1/2-x,1/2+y,1/2-z
5 -x,-y,-z
6 x,-y,1/2+z
7 1/2-x,1/2-y,-z
8 1/2+x,1/2-y,1/2+z
_cell_length_a                   14.7909(14)
_cell_length_b                   17.656(2)
_cell_length_c                   10.3626(10)
_cell_angle_alpha                90
_cell_angle_beta                 126.423(10)
_cell_angle_gamma                90
_cell_volume                     2177.54
loop_
_atom_site_label
_atom_site_type_symbol
_atom_site_fract_x
_atom_site_fract_y
_atom_site_fract_z
Np1 Np 0.168600(19) 0.113032(10) 0.61011(2)
Na1 Na -0.1641(2) 0.09182(14) 0.2946(3)
Na2 Na 0.1207(2) 0.30927(15) 0.7444(3)
O1 O 0.3164(4) 0.0961(3) 0.7733(6)
O2 O 0.0228(4) 0.1317(3) 0.4477(6)
O3 O 0.1345(5) 0.0257(2) 0.7691(6)
O4 O 0.1605(5) 0.0127(2) 1.0044(5)
O5 O 0.1409(5) 0.1745(2) 0.7952(6)
O6 O 0.1828(4) 0.1663(2) 1.0396(5)
C1 C 0.1503(5) 0.0508(3) 0.8942(7)
C2 C 0.1586(5) 0.1385(3) 0.9122(7)
O7 O 0.2266(5) 0.1550(2) 0.4421(6)
O8 O 0.2915(5) 0.2486(2) 0.3739(6)
C3 C 0.2555(5) 0.2227(3) 0.4467(7)
O9 O -0.3729(6) 0.0684(3) 0.1346(10)
H1 H -0.3932 0.0249 0.1698
H2 H -0.4121 0.0681 0.0193
O10 O -0.0750(5) 0.3088(3) 0.5549(7)
H3 H -0.1021 0.2636 0.4887
H4 H -0.1026 0.3536 0.4876
Np1E Np 0.168600(19) -0.113032(10) 0.11011(2)
Np1E_2 Np 0.168600(19) -0.113032(10) 1.11011(2)
Np1F Np 0.331400(19) 0.386968(10) 0.38989(2)
Na1D Na 0.1641(2) -0.09182(14) 0.7054(3)
Na1A Na 0.1641(2) 0.09182(14) 1.2054(3)
Na1A_2 Na 0.1641(2) 0.09182(14) 0.2054(3)
Na1G Na 0.3359(2) 0.40818(14) 0.7946(3)
Na1E Na -0.1641(2) -0.09182(14) -0.2054(3)
Na2E Na 0.1207(2) -0.30927(15) 0.2444(3)
Na2F Na 0.3793(2) 0.19073(15) 1.2556(3)
Na2F_2 Na 0.3793(2) 0.19073(15) 0.2556(3)
Na2G Na -0.3793(2) 0.19073(15) 0.2444(3)
Na2A Na -0.1207(2) 0.30927(15) 0.7556(3)
Na2C Na 0.3793(2) -0.19073(15) 0.7556(3)
O1E O 0.3164(4) -0.0961(3) 0.2733(6)
O2E O 0.0228(4) -0.1317(3) -0.0523(6)
O2D O -0.0228(4) -0.1317(3) 0.5523(6)
O3E O 0.1345(5) -0.0257(2) 0.2691(6)
O3D O -0.1345(5) -0.0257(2) 0.2309(6)
O4E O 0.1605(5) -0.0127(2) 0.5044(5)
O4A O -0.1605(5) 0.0127(2) 0.4956(5)
O4_2 O 0.1605(5) 0.0127(2) 0.0044(5)
O5E O 0.1409(5) -0.1745(2) 0.2952(6)
O6E O 0.1828(4) -0.1663(2) 0.5396(5)
O6A O -0.1828(4) 0.1663(2) 0.4604(5)
O6F O 0.3172(4) 0.3337(2) 0.9604(5)
O6C O 0.3172(4) -0.3337(2) 0.4604(5)
C1E C 0.1503(5) -0.0508(3) 0.3942(7)
C2E C 0.1586(5) -0.1385(3) 0.4122(7)
O7F O 0.2734(5) 0.3450(2) 0.5579(6)
O7A O -0.2266(5) 0.1550(2) 0.0579(6)
O7E O 0.2266(5) -0.1550(2) -0.0579(6)
O7E_2 O 0.2266(5) -0.1550(2) 0.9421(6)
O8F O 0.2085(5) 0.2514(2) 0.6261(6)
O8C O 0.2085(5) -0.2514(2) 0.1261(6)
C3F C 0.2445(5) 0.2773(3) 0.5533(7)
O9G O 0.1271(6) 0.4316(3) 0.6346(10)
O9D O 0.3729(6) -0.0684(3) 0.8654(10)
O9B O 0.1271(6) -0.4316(3) 0.1346(10)
H1G H 0.1068 0.4751 0.6698
H1D H 0.3932 -0.0249 0.8302
H1B H 0.1068 -0.4751 0.1698
H2G H 0.0879 0.4319 0.5193
H2D H 0.4121 -0.0681 0.9807
H2B H 0.0879 -0.4319 0.0193
O10A O 0.0750(5) 0.3088(3) 0.9451(7)
O10D O 0.0750(5) -0.3088(3) 0.4451(7)
O10E O -0.0750(5) -0.3088(3) 0.0549(7)
H3A H 0.1021 0.2636 1.0113
H3D H 0.1021 -0.2636 0.5113
H3E H -0.1021 -0.2636 -0.0113
H4A H 0.1026 0.3536 1.0124
H4D H 0.1026 -0.3536 0.5124
H4E H -0.1026 -0.3536 -0.0124
O11 O 0.0000 0.2658(6) 0.2500
H5 H 0.054(9) 0.247(8) 0.249(18)
H5A H -0.054(9) 0.247(8) 0.251(18)
O12 O 0.5000 0.0692(9) 0.7500
H6 H 0.51(3) 0.095(12) 0.68(3)
H6A H 0.49(3) 0.095(12) 0.82(3)
loop_
_geom_bond_atom_site_label_1
_geom_bond_atom_site_label_2
_geom_bond_site_symmetry_1
_geom_bond_site_symmetry_2
Np1 O1 1_555 1_555
Na1 O2 1_555 1_555
Na2 O5 1_555 1_555
O2 Np1 1_555 1_555
O3 Np1 1_555 1_555
O4 C1 1_555 1_555
O5 Np1 1_555 1_555
O6 C2 1_555 1_555
C1 O3 1_555 1_555
C2 O5 1_555 1_555
O7 Np1 1_555 1_555
O8 C3 1_555 1_555
C3 O7 1_555 1_555
O9 Na1 1_555 1_555
H1 O9 1_555 1_555
H2 O9 1_555 1_555
O10 Na2 1_555 1_555
H3 O10 1_555 1_555
H4 O10 1_555 1_555
O11 H5 1_555 1_555
O12 H6 1_555 1_555
Np1E O1E 1_555 1_555
Np1E_2 O4 1_555 1_555
Np1F O8 1_555 1_555
Na1D O3 1_555 1_555
Na1A O4 1_555 1_555
Na1A_2 O7 1_555 1_555
Na1G O6F 1_555 1_555
Na1E O2E 1_555 1_555
Na2E O5E 1_555 1_555
Na2F O6 1_555 1_555
Na2F_2 O8 1_555 1_555
Na2G O9 1_555 1_555
Na2A O10 1_555 1_555
Na2C O6E 1_555 1_555
O2E Np1E 1_555 1_555
O2D Na1D 1_555 1_555
O3E Np1E 1_555 1_555
O3D Na1 1_555 1_555
O4E Np1 1_555 1_555
O4A Na1 1_555 1_555
O4_2 Np1E 1_555 1_555
O5E Np1E 1_555 1_555
O6E Na1D 1_555 1_555
O6A Na1 1_555 1_555
O6F Na2 1_555 1_555
O6C Na2E 1_555 1_555
C1E O3E 1_555 1_555
C2E O5E 1_555 1_555
O7F Np1F 1_555 1_555
O7A Na1 1_555 1_555
O7E Np1E 1_555 1_555
O7E_2 Np1E_2 1_555 1_555
O8F Np1 1_555 1_555
O8C Np1E 1_555 1_555
C3F C3 1_555 1_555
O9G Na2 1_555 1_555
O9D Na1D 1_555 1_555
O9B Na2E 1_555 1_555
H1G O9G 1_555 1_555
H1D O9D 1_555 1_555
H1B O9B 1_555 1_555
H2G O9G 1_555 1_555
H2D O9D 1_555 1_555
H2B O9B 1_555 1_555
O10A Na2 1_555 1_555
O10D Na2E 1_555 1_555
O10E Na2E 1_555 1_555
H3A O10A 1_555 1_555
H3D O10D 1_555 1_555
H3E O10E 1_555 1_555
H4A O10A 1_555 1_555
H4D O10D 1_555 1_555
H4E O10E 1_555 1_555
H5A O11 1_555 1_555
H6A O12 1_555 1_555
Na2 O8F 1_555 1_555
O6 Na1A 1_555 1_555
C1 C2 1_555 1_555
Na1D O4E 1_555 1_555
Na1D O7E_2 1_555 1_555
Na1A_2 O3E 1_555 1_555
Na1A_2 O4_2 1_555 1_555
Na1G O7F 1_555 1_555
Na1G O9G 1_555 1_555
Na2E O8C 1_555 1_555
Na2G O6A 1_555 1_555
Na2A O10A 1_555 1_555
Na2C O9D 1_555 1_555
O4E C1E 1_555 1_555
O6E C2E 1_555 1_555
C1E C2E 1_555 1_555
O7F C3F 1_555 1_555
O8F C3F 1_555 1_555

#END
