
#######################################################################
#
#                 Cambridge Crystallographic Data Centre
#                                CCDC 
#
#######################################################################
#
# If this CIF has been generated from an entry in the Cambridge 
# Structural Database, then it will include bibliographic, chemical, 
# crystal, experimental, refinement or atomic coordinate data resulting 
# from the CCDC's data processing and validation procedures.
#
#######################################################################

data_XIRYON
_symmetry_cell_setting           monoclinic
_symmetry_space_group_name_H-M   'P 21/c'
_symmetry_Int_Tables_number      14
_space_group_name_Hall           '-P 2ybc'
loop_
_symmetry_equiv_pos_site_id
_symmetry_equiv_pos_as_xyz
1 x,y,z
2 -x,1/2+y,1/2-z
3 -x,-y,-z
4 x,1/2-y,1/2+z
_cell_length_a                   13.1752(5)
_cell_length_b                   11.9066(5)
_cell_length_c                   13.6902(5)
_cell_angle_alpha                90
_cell_angle_beta                 100.567(1)
_cell_angle_gamma                90
_cell_volume                     2111.19
loop_
_atom_site_label
_atom_site_type_symbol
_atom_site_fract_x
_atom_site_fract_y
_atom_site_fract_z
Zn1 Zn 0.157893(10) -0.413714(11) 0.162746(10)
O1 O 0.22982(7) -0.25877(8) 0.17492(7)
O2 O 0.20008(9) -0.07463(9) 0.15203(11)
O3 O -0.32052(7) -0.19745(8) 0.00316(8)
O4 O -0.28405(7) -0.37980(8) 0.01990(8)
O5 O 0.30053(7) -0.48325(7) 0.22242(7)
O6 O 0.38201(7) -0.64637(8) 0.26384(8)
O7 O -0.11016(7) -0.88980(8) 0.19126(7)
O8 O -0.17065(7) -0.73902(8) 0.10247(7)
O9 O 0.18192(7) -0.43941(8) 0.01814(7)
H1 H 0.1826 -0.3867 -0.0203
H2 H 0.2171 -0.4917 0.0041
N1 N 0.03069(8) -0.30642(9) 0.10358(8)
N2 N 0.11783(8) -0.58497(8) 0.17585(8)
C1 C 0.05938(9) -0.19776(10) 0.10974(9)
C2 C -0.01048(10) -0.11078(11) 0.08528(10)
H3 H 0.0123 -0.0349 0.0895
C3 C -0.11439(10) -0.13610(11) 0.05445(10)
H4 H -0.1637 -0.0777 0.0380
C4 C -0.14516(9) -0.24797(10) 0.04793(9)
C5 C -0.06942(9) -0.33022(10) 0.07249(9)
H5 H -0.0898 -0.4068 0.0669
C6 C 0.17291(10) -0.17423(11) 0.14852(10)
C7 C -0.25825(9) -0.27880(11) 0.02066(9)
C8 C 0.20087(9) -0.65035(10) 0.20725(9)
C9 C 0.19325(9) -0.76566(10) 0.21772(9)
H6 H 0.2534 -0.8101 0.2377
C10 C 0.09628(9) -0.81510(10) 0.19858(9)
H7 H 0.0892 -0.8938 0.2064
C11 C 0.00939(9) -0.74839(10) 0.16771(9)
C12 C 0.02468(9) -0.63331(10) 0.15639(9)
H8 H -0.0338 -0.5873 0.1338
C13 C 0.30435(9) -0.59080(10) 0.23404(9)
C14 C -0.09852(9) -0.79664(10) 0.15208(9)
Zn1A Zn -0.157893(10) -0.913714(11) 0.337254(10)
O7A O 0.11016(7) -0.38980(8) 0.30874(7)
N3 N 0.35861(8) -0.31370(9) 0.36536(8)
H9 H 0.2960 -0.2863 0.3754
H10 H 0.3469 -0.3564 0.3084
N4 N 0.49509(8) -0.22071(9) 0.53234(8)
H11 H 0.5059 -0.1777 0.5892
H12 H 0.5580 -0.2480 0.5233
C15 C 0.42751(10) -0.21754(11) 0.35168(10)
H13 H 0.3933 -0.1696 0.2962
H14 H 0.4926 -0.2463 0.3347
C16 C 0.45104(10) -0.14881(11) 0.44632(10)
H15 H 0.5008 -0.0886 0.4384
H16 H 0.3869 -0.1129 0.4588
C17 C 0.42647(10) -0.31659(11) 0.54554(10)
H17 H 0.3609 -0.2879 0.5616
H18 H 0.4602 -0.3642 0.6014
C18 C 0.40415(10) -0.38587(11) 0.45105(10)
H19 H 0.4689 -0.4202 0.4384
H20 H 0.3555 -0.4471 0.4589
O10 O 0.37141(7) 0.04431(8) 0.14623(7)
H21 H 0.3491 0.0939 0.1065
H22 H 0.3222 0.0028 0.1486
O11 O 0.50510(8) 0.07757(9) 0.31667(8)
H23 H 0.4610 0.0668 0.2669
H24 H 0.5594 0.0516 0.3052
loop_
_geom_bond_atom_site_label_1
_geom_bond_atom_site_label_2
_geom_bond_site_symmetry_1
_geom_bond_site_symmetry_2
Zn1 O1 1_555 1_555
O1 C6 1_555 1_555
O2 C6 1_555 1_555
O3 C7 1_555 1_555
O4 C7 1_555 1_555
O5 Zn1 1_555 1_555
O6 C13 1_555 1_555
O7 C14 1_555 1_555
O8 C14 1_555 1_555
O9 Zn1 1_555 1_555
H1 O9 1_555 1_555
H2 O9 1_555 1_555
N1 Zn1 1_555 1_555
N2 Zn1 1_555 1_555
C1 N1 1_555 1_555
C2 C1 1_555 1_555
H3 C2 1_555 1_555
C3 C2 1_555 1_555
H4 C3 1_555 1_555
C4 C3 1_555 1_555
C5 N1 1_555 1_555
H5 C5 1_555 1_555
C6 C1 1_555 1_555
C7 C4 1_555 1_555
C8 N2 1_555 1_555
C9 C8 1_555 1_555
H6 C9 1_555 1_555
C10 C9 1_555 1_555
H7 C10 1_555 1_555
C11 C10 1_555 1_555
C12 N2 1_555 1_555
H8 C12 1_555 1_555
C13 O5 1_555 1_555
C14 C11 1_555 1_555
N3 H9 1_555 1_555
H10 N3 1_555 1_555
N4 H11 1_555 1_555
H12 N4 1_555 1_555
C15 N3 1_555 1_555
H13 C15 1_555 1_555
H14 C15 1_555 1_555
C16 N4 1_555 1_555
H15 C16 1_555 1_555
H16 C16 1_555 1_555
C17 N4 1_555 1_555
H17 C17 1_555 1_555
H18 C17 1_555 1_555
C18 N3 1_555 1_555
H19 C18 1_555 1_555
H20 C18 1_555 1_555
O10 H21 1_555 1_555
H22 O10 1_555 1_555
O11 H23 1_555 1_555
H24 O11 1_555 1_555
Zn1A O7 1_555 1_555
O7A Zn1 1_555 1_555
C4 C5 1_555 1_555
C8 C13 1_555 1_555
C11 C12 1_555 1_555
C15 C16 1_555 1_555
C17 C18 1_555 1_555

#END
