
#######################################################################
#
#                 Cambridge Crystallographic Data Centre
#                                CCDC 
#
#######################################################################
#
# If this CIF has been generated from an entry in the Cambridge 
# Structural Database, then it will include bibliographic, chemical, 
# crystal, experimental, refinement or atomic coordinate data resulting 
# from the CCDC's data processing and validation procedures.
#
#######################################################################

data_XIRZUU
_symmetry_cell_setting           triclinic
_symmetry_space_group_name_H-M   'P -1'
_symmetry_Int_Tables_number      2
_space_group_name_Hall           '-P 1'
loop_
_symmetry_equiv_pos_site_id
_symmetry_equiv_pos_as_xyz
1 x,y,z
2 -x,-y,-z
_cell_length_a                   7.4270(15)
_cell_length_b                   9.2070(18)
_cell_length_c                   11.522(2)
_cell_angle_alpha                74.16(3)
_cell_angle_beta                 71.76(3)
_cell_angle_gamma                80.01(2)
_cell_volume                     716.527
loop_
_atom_site_label
_atom_site_type_symbol
_atom_site_fract_x
_atom_site_fract_y
_atom_site_fract_z
C1 C 0.3395(7) 0.2400(6) 0.1373(5)
C2 C 0.2913(7) 0.3978(6) 0.0685(5)
C3 C 0.2644(7) 0.4243(6) -0.0506(5)
H1 H 0.2853 0.3461 -0.0909
C4 C 0.2095(7) 0.5698(6) -0.1067(5)
C5 C 0.1769(7) 0.6925(6) -0.0509(5)
H2 H 0.1321 0.7878 -0.0904
C6 C 0.2101(7) 0.6653(6) 0.0648(5)
C7 C 0.2687(7) 0.5187(6) 0.1238(5)
H3 H 0.2862 0.4994 0.2030
C8 C 0.1873(7) 0.7916(6) 0.1298(5)
C9 C 0.3949(7) 0.0058(6) 0.5368(5)
N1 N 0.1769(7) 0.5962(5) -0.2319(4)
O1 O 0.3821(6) 0.2183(4) 0.2395(3)
O2 O 0.3332(5) 0.1288(4) 0.0962(3)
O3 O 0.3182(5) 0.7902(4) 0.1793(3)
O4 O 0.0460(5) 0.8849(4) 0.1325(4)
O5 O 0.1269(9) 0.7245(5) -0.2819(5)
O6 O 0.1979(8) 0.4894(5) -0.2778(4)
O7 O 0.2779(5) -0.0136(4) 0.4850(3)
O8 O 0.3556(5) 0.0325(4) 0.6429(3)
O9 O 0.6774(5) -0.0796(4) 0.1250(3)
H4 H 0.6641 -0.0316 0.0534
H5 H 0.7642 -0.0428 0.1386
O10 O 0.4350(6) -0.3006(4) 0.3988(4)
H6 H 0.5526 -0.3322 0.3807
H7 H 0.3968 -0.3009 0.4765
O11 O 0.0652(5) -0.0383(5) 0.3376(4)
H8 H 0.0191 0.0193 0.3884
H9 H 0.0252 -0.0036 0.2728
Y1 Y 0.39399(7) -0.05405(6) 0.27921(5)
C1_2 C 0.3395(7) -0.7600(6) 0.1373(5)
C2_2 C 0.2913(7) -0.6022(6) 0.0685(5)
C3_2 C 0.2644(7) -0.5757(6) -0.0506(5)
H1_2 H 0.2853 -0.6539 -0.0909
C4_2 C 0.2095(7) -0.4302(6) -0.1067(5)
C5_2 C 0.1769(7) -0.3075(6) -0.0509(5)
H2_2 H 0.1321 -0.2122 -0.0904
C6_2 C 0.2101(7) -0.3347(6) 0.0648(5)
C7_2 C 0.2687(7) -0.4813(6) 0.1238(5)
H3_2 H 0.2862 -0.5006 0.2030
C8_2 C 0.1873(7) -0.2084(6) 0.1298(5)
C9A C 0.6051(7) -0.0058(6) 0.4632(5)
N1_2 N 0.1769(7) -0.4038(5) -0.2319(4)
O1_2 O 0.3821(6) -0.7817(4) 0.2395(3)
O2_2 O 0.3332(5) -0.8712(4) 0.0962(3)
O3_2 O 0.3182(5) -0.2098(4) 0.1793(3)
O3_3 O 0.3182(5) -1.2098(4) 0.1793(3)
O4_2 O 0.0460(5) -0.1151(4) 0.1325(4)
O5_2 O 0.1269(9) -0.2755(5) -0.2819(5)
O6_2 O 0.1979(8) -0.5106(5) -0.2778(4)
O7A O 0.7221(5) 0.0136(4) 0.5150(3)
O7_2 O 0.2779(5) -1.0136(4) 0.4850(3)
O8A O 0.6444(5) -0.0325(4) 0.3571(3)
O8A_2 O 0.6444(5) -1.0325(4) 0.3571(3)
O9_2 O 0.6774(5) -1.0796(4) 0.1250(3)
H4_2 H 0.6641 -1.0316 0.0534
H5_2 H 0.7642 -1.0428 0.1386
O10_2 O 0.4350(6) -1.3006(4) 0.3988(4)
H6_2 H 0.5526 -1.3322 0.3807
H7_2 H 0.3968 -1.3009 0.4765
O11_2 O 0.0652(5) -1.0383(5) 0.3376(4)
H8_2 H 0.0191 -0.9807 0.3884
H9_2 H 0.0252 -1.0036 0.2728
Y1_2 Y 0.39399(7) -1.05405(6) 0.27921(5)
Y1_3 Y 0.39399(7) 0.94595(6) 0.27921(5)
Y1A Y 0.60601(7) 0.05405(6) 0.72079(5)
O12 O 0.3768(8) 0.3842(5) 0.4156(5)
H10 H 0.3942 0.4764 0.3793
H11 H 0.4299 0.3285 0.3639
O13 O 0.0067(15) 0.3583(14) 0.5020(11)
H12 H 0.0037 0.2670 0.5003
H13 H -0.1035 0.3933 0.5392
loop_
_geom_bond_atom_site_label_1
_geom_bond_atom_site_label_2
_geom_bond_site_symmetry_1
_geom_bond_site_symmetry_2
C1 C2 1_555 1_555
C2 C3 1_555 1_555
C3 H1 1_555 1_555
C4 C3 1_555 1_555
C5 C4 1_555 1_555
H2 C5 1_555 1_555
C6 C5 1_555 1_555
C7 C2 1_555 1_555
H3 C7 1_555 1_555
C8 C6 1_555 1_555
C9 O7 1_555 1_555
N1 C4 1_555 1_555
O1 C1 1_555 1_555
O2 C1 1_555 1_555
O3 C8 1_555 1_555
O4 C8 1_555 1_555
O5 N1 1_555 1_555
O6 N1 1_555 1_555
O7 Y1 1_555 1_555
O8 C9 1_555 1_555
O9 H4 1_555 1_555
H5 O9 1_555 1_555
O10 H6 1_555 1_555
H7 O10 1_555 1_555
O11 H8 1_555 1_555
H9 O11 1_555 1_555
Y1 O1 1_555 1_555
O12 H10 1_555 1_555
H11 O12 1_555 1_555
O13 H12 1_555 1_555
H13 O13 1_555 1_555
C1_2 C2_2 1_555 1_555
C2_2 C3_2 1_555 1_555
C3_2 H1_2 1_555 1_555
C4_2 C3_2 1_555 1_555
C5_2 C4_2 1_555 1_555
H2_2 C5_2 1_555 1_555
C6_2 C5_2 1_555 1_555
C7_2 C2_2 1_555 1_555
H3_2 C7_2 1_555 1_555
C8_2 C6_2 1_555 1_555
C9A C9 1_555 1_555
N1_2 C4_2 1_555 1_555
O1_2 C1_2 1_555 1_555
O2_2 C1_2 1_555 1_555
O3_2 Y1 1_555 1_555
O3_3 Y1_2 1_555 1_555
O4_2 C8_2 1_555 1_555
O5_2 N1_2 1_555 1_555
O6_2 N1_2 1_555 1_555
O7A C9A 1_555 1_555
O7_2 Y1_2 1_555 1_555
O8A Y1 1_555 1_555
O8A_2 Y1_2 1_555 1_555
O9_2 H4_2 1_555 1_555
H5_2 O9_2 1_555 1_555
O10_2 H6_2 1_555 1_555
H7_2 O10_2 1_555 1_555
O11_2 H8_2 1_555 1_555
H9_2 O11_2 1_555 1_555
Y1_2 O1_2 1_555 1_555
Y1_3 O3 1_555 1_555
Y1A O8 1_555 1_555
C6 C7 1_555 1_555
O2 Y1 1_555 1_555
O9 Y1 1_555 1_555
O10 Y1 1_555 1_555
O11 Y1 1_555 1_555
C6_2 C7_2 1_555 1_555
C8_2 O3_2 1_555 1_555
C9A O8A 1_555 1_555
O2_2 Y1_2 1_555 1_555
O7A Y1A 1_555 1_555
O9_2 Y1_2 1_555 1_555
O10_2 Y1_2 1_555 1_555
O11_2 Y1_2 1_555 1_555

#END
