
#######################################################################
#
#                 Cambridge Crystallographic Data Centre
#                                CCDC 
#
#######################################################################
#
# If this CIF has been generated from an entry in the Cambridge 
# Structural Database, then it will include bibliographic, chemical, 
# crystal, experimental, refinement or atomic coordinate data resulting 
# from the CCDC's data processing and validation procedures.
#
#######################################################################

data_XIRZEE
_symmetry_cell_setting           monoclinic
_symmetry_space_group_name_H-M   'P 21/n'
_symmetry_Int_Tables_number      14
_space_group_name_Hall           '-P 2yn'
loop_
_symmetry_equiv_pos_site_id
_symmetry_equiv_pos_as_xyz
1 x,y,z
2 1/2-x,1/2+y,1/2-z
3 -x,-y,-z
4 1/2+x,1/2-y,1/2+z
_cell_length_a                   14.9392(19)
_cell_length_b                   11.2721(14)
_cell_length_c                   28.030(4)
_cell_angle_alpha                90
_cell_angle_beta                 103.259(2)
_cell_angle_gamma                90
_cell_volume                     4594.32
loop_
_atom_site_label
_atom_site_type_symbol
_atom_site_fract_x
_atom_site_fract_y
_atom_site_fract_z
Cu1 Cu 0.24102(4) 0.89206(4) 0.007883(16)
Cu2 Cu 0.21995(4) 0.85438(5) -0.127702(17)
Cu3 Cu 0.26870(4) 0.96721(5) 0.142677(17)
Na1 Na 0.09271(12) 1.38506(14) 0.20928(6)
Na2 Na 0.38592(12) 1.20926(16) -0.24191(6)
N1 N 0.2942(2) 0.9926(3) -0.03602(11)
N2 N 0.2824(2) 0.9723(3) -0.08417(11)
N3 N 0.1821(2) 1.0211(3) 0.03588(11)
N4 N 0.1953(2) 1.0375(3) 0.08496(11)
N5 N 0.3176(2) 0.8097(3) 0.06531(11)
N6 N 0.3224(2) 0.8453(3) 0.11176(11)
N7 N 0.1810(2) 0.7588(3) -0.03323(10)
N8 N 0.1743(2) 0.7580(3) -0.08211(11)
O1 O 0.4384(3) 1.2269(3) 0.17398(11)
O2 O 0.2702(2) 0.9444(3) -0.17502(10)
O3 O 0.3597(2) 1.1000(3) -0.18099(11)
O4 O 0.0353(3) 1.1325(3) -0.19293(12)
O5 O 0.2137(2) 1.0889(3) 0.17528(10)
O6 O 0.1214(2) 1.2466(3) 0.15958(11)
O7 O 0.3920(3) 0.5010(3) -0.11149(12)
O8 O 0.4578(2) 0.7657(3) 0.22695(10)
O9 O 0.3475(2) 0.8990(3) 0.20259(9)
O10 O 0.1488(2) 0.5579(3) 0.17536(10)
O11 O 0.0662(2) 0.5787(3) -0.18083(10)
O12 O 0.1564(2) 0.7383(3) -0.17436(9)
O13 O 0.2871(3) 1.3552(3) -0.23317(12)
H1 H 0.2857 1.4225 -0.2525
C1 C 0.5032(4) 1.1562(5) 0.20906(19)
H2 H 0.5106 1.1899 0.2412
H3 H 0.5614 1.1551 0.2001
H4 H 0.4803 1.0766 0.2091
C2 C 0.4209(3) 1.1897(4) 0.12623(16)
C3 C 0.3644(3) 1.2622(4) 0.09281(16)
H5 H 0.3412 1.3314 0.1034
C4 C 0.3418(3) 1.2330(4) 0.04356(15)
H6 H 0.3034 1.2829 0.0215
C5 C 0.3753(3) 1.1310(4) 0.02669(14)
C6 C 0.4323(3) 1.0590(4) 0.06076(15)
H7 H 0.4556 0.9899 0.0501
C7 C 0.4555(3) 1.0872(4) 0.11036(16)
H8 H 0.4939 1.0376 0.1326
C8 C 0.3474(3) 1.0914(4) -0.02513(14)
C9 C 0.3686(3) 1.1343(4) -0.06771(15)
H9 H 0.4036 1.2007 -0.0711
C10 C 0.3257(3) 1.0557(4) -0.10412(14)
C11 C 0.3193(3) 1.0359(4) -0.15744(15)
C12 C -0.0010(5) 1.0324(6) -0.22134(19)
H10 H -0.0124 1.0522 -0.2555
H11 H -0.0575 1.0087 -0.2133
H12 H 0.0424 0.9683 -0.2145
C13 C 0.0562(3) 1.1217(5) -0.14285(16)
C14 C 0.0948(4) 1.2206(5) -0.11655(17)
H13 H 0.1056 1.2888 -0.1330
C15 C 0.1171(3) 1.2178(4) -0.06624(16)
H14 H 0.1431 1.2847 -0.0490
C16 C 0.1016(3) 1.1171(4) -0.04033(14)
C17 C 0.0620(3) 1.0210(4) -0.06773(15)
H15 H 0.0502 0.9530 -0.0514
C18 C 0.0388(3) 1.0215(4) -0.11856(15)
H16 H 0.0120 0.9552 -0.1359
C19 C 0.1288(3) 1.1111(4) 0.01371(14)
C20 C 0.1069(3) 1.1861(4) 0.04886(15)
H17 H 0.0711 1.2544 0.0437
C21 C 0.1507(3) 1.1359(4) 0.09326(14)
C22 C 0.1616(3) 1.1623(4) 0.14637(16)
C23 C 0.4011(4) 0.5693(5) -0.15262(18)
H18 H 0.3997 0.5177 -0.1800
H19 H 0.4585 0.6114 -0.1450
H20 H 0.3514 0.6250 -0.1607
C24 C 0.3925(3) 0.5600(4) -0.06895(16)
C25 C 0.4107(3) 0.6787(4) -0.06168(15)
H21 H 0.4244 0.7250 -0.0865
C26 C 0.4081(3) 0.7290(4) -0.01677(15)
H22 H 0.4203 0.8096 -0.0120
C27 C 0.3883(3) 0.6632(4) 0.02072(14)
C28 C 0.3748(4) 0.5420(4) 0.01318(16)
H23 H 0.3640 0.4947 0.0385
C29 C 0.3770(4) 0.4911(4) -0.03111(18)
H24 H 0.3680 0.4098 -0.0355
C30 C 0.3779(3) 0.7190(4) 0.06680(14)
C31 C 0.4218(3) 0.6984(4) 0.11475(15)
H25 H 0.4667 0.6417 0.1263
C32 C 0.3856(3) 0.7789(4) 0.14223(14)
C33 C 0.3996(3) 0.8143(4) 0.19402(14)
C34 C 0.1403(3) 0.5876(4) 0.12659(15)
C35 C 0.1213(3) 0.6996(4) 0.10857(15)
H26 H 0.1110 0.7602 0.1292
C36 C 0.1174(3) 0.7232(4) 0.05952(15)
H27 H 0.1053 0.7999 0.0476
C37 C 0.1313(3) 0.6344(4) 0.02838(14)
C38 C 0.1472(3) 0.5200(4) 0.04669(15)
H28 H 0.1551 0.4584 0.0259
C39 C 0.1514(3) 0.4969(4) 0.09585(15)
H29 H 0.1618 0.4200 0.1079
C40 C 0.1362(3) 0.6607(4) -0.02251(14)
C41 C 0.1005(3) 0.5983(4) -0.06540(14)
H30 H 0.0667 0.5283 -0.0687
C42 C 0.1262(3) 0.6631(4) -0.10215(14)
C43 C 0.1138(3) 0.6555(4) -0.15602(15)
C44 C 0.2282(5) 1.3529(7) -0.2013(3)
H31 H 0.1935 1.4253 -0.2044
H32 H 0.2635 1.3448 -0.1683
H33 H 0.1869 1.2868 -0.2093
C45 C 0.1668(5) 0.6523(6) 0.21017(19)
H34 H 0.1714 0.6210 0.2425
H35 H 0.1176 0.7089 0.2028
H36 H 0.2236 0.6904 0.2087
Na1A Na 0.40729(12) 0.88506(14) 0.29072(6)
Na1_2 Na 0.09271(12) 0.38506(14) 0.20928(6)
Na1B Na -0.09271(12) 0.61494(14) -0.20928(6)
Na2B Na 0.61408(12) 0.79074(16) 0.24191(6)
Na2A Na 0.11408(12) 0.70926(16) -0.25809(6)
O8A O 0.0422(2) 1.2657(3) 0.27305(10)
O8B O 0.5422(2) 1.2343(3) -0.22695(10)
O9A O 0.1525(2) 1.3990(3) 0.29741(9)
O10_2 O 0.1488(2) 1.5579(3) 0.17536(10)
O11B O -0.0662(2) 1.4213(3) 0.18083(10)
O11A O 0.4338(2) 1.0787(3) -0.31917(10)
O12A O 0.3436(2) 1.2383(3) -0.32564(9)
loop_
_geom_bond_atom_site_label_1
_geom_bond_atom_site_label_2
_geom_bond_site_symmetry_1
_geom_bond_site_symmetry_2
Cu1 N1 1_555 1_555
Cu2 N2 1_555 1_555
Cu3 N4 1_555 1_555
Na1 O6 1_555 1_555
Na2 O3 1_555 1_555
N1 N2 1_555 1_555
N2 C10 1_555 1_555
N3 Cu1 1_555 1_555
N4 N3 1_555 1_555
N5 Cu1 1_555 1_555
N6 Cu3 1_555 1_555
N7 Cu1 1_555 1_555
N8 Cu2 1_555 1_555
O1 C1 1_555 1_555
O2 Cu2 1_555 1_555
O3 C11 1_555 1_555
O4 C12 1_555 1_555
O5 Cu3 1_555 1_555
O6 C22 1_555 1_555
O7 C23 1_555 1_555
O8 C33 1_555 1_555
O9 Cu3 1_555 1_555
O10 C34 1_555 1_555
O11 C43 1_555 1_555
O12 Cu2 1_555 1_555
O13 Na2 1_555 1_555
H1 O13 1_555 1_555
C1 H2 1_555 1_555
H3 C1 1_555 1_555
H4 C1 1_555 1_555
C2 O1 1_555 1_555
C3 C2 1_555 1_555
H5 C3 1_555 1_555
C4 C3 1_555 1_555
H6 C4 1_555 1_555
C5 C4 1_555 1_555
C6 C5 1_555 1_555
H7 C6 1_555 1_555
C7 C2 1_555 1_555
H8 C7 1_555 1_555
C8 N1 1_555 1_555
C9 C8 1_555 1_555
H9 C9 1_555 1_555
C10 C9 1_555 1_555
C11 O2 1_555 1_555
C12 H10 1_555 1_555
H11 C12 1_555 1_555
H12 C12 1_555 1_555
C13 O4 1_555 1_555
C14 C13 1_555 1_555
H13 C14 1_555 1_555
C15 C14 1_555 1_555
H14 C15 1_555 1_555
C16 C15 1_555 1_555
C17 C16 1_555 1_555
H15 C17 1_555 1_555
C18 C13 1_555 1_555
H16 C18 1_555 1_555
C19 N3 1_555 1_555
C20 C19 1_555 1_555
H17 C20 1_555 1_555
C21 N4 1_555 1_555
C22 O5 1_555 1_555
C23 H18 1_555 1_555
H19 C23 1_555 1_555
H20 C23 1_555 1_555
C24 O7 1_555 1_555
C25 C24 1_555 1_555
H21 C25 1_555 1_555
C26 C25 1_555 1_555
H22 C26 1_555 1_555
C27 C26 1_555 1_555
C28 C27 1_555 1_555
H23 C28 1_555 1_555
C29 C24 1_555 1_555
H24 C29 1_555 1_555
C30 N5 1_555 1_555
C31 C30 1_555 1_555
H25 C31 1_555 1_555
C32 N6 1_555 1_555
C33 O9 1_555 1_555
C34 C35 1_555 1_555
C35 H26 1_555 1_555
C36 C35 1_555 1_555
H27 C36 1_555 1_555
C37 C36 1_555 1_555
C38 C37 1_555 1_555
H28 C38 1_555 1_555
C39 C34 1_555 1_555
H29 C39 1_555 1_555
C40 N7 1_555 1_555
C41 C40 1_555 1_555
H30 C41 1_555 1_555
C42 N8 1_555 1_555
C43 O12 1_555 1_555
C44 O13 1_555 1_555
H31 C44 1_555 1_555
H32 C44 1_555 1_555
H33 C44 1_555 1_555
C45 O10 1_555 1_555
H34 C45 1_555 1_555
H35 C45 1_555 1_555
H36 C45 1_555 1_555
Na1A O8 1_555 1_555
Na1_2 O10 1_555 1_555
Na1B O11 1_555 1_555
Na2B O8 1_555 1_555
Na2A O11 1_555 1_555
O8A Na1 1_555 1_555
O8B Na2 1_555 1_555
O9A Na1 1_555 1_555
O10_2 Na1 1_555 1_555
O11B Na1 1_555 1_555
O11A Na2 1_555 1_555
O12A Na2 1_555 1_555
N5 N6 1_555 1_555
N7 N8 1_555 1_555
O9 Na1A 1_555 1_555
O12 Na2A 1_555 1_555
C5 C8 1_555 1_555
C6 C7 1_555 1_555
C10 C11 1_555 1_555
C16 C19 1_555 1_555
C17 C18 1_555 1_555
C20 C21 1_555 1_555
C21 C22 1_555 1_555
C27 C30 1_555 1_555
C28 C29 1_555 1_555
C31 C32 1_555 1_555
C32 C33 1_555 1_555
C37 C40 1_555 1_555
C38 C39 1_555 1_555
C41 C42 1_555 1_555
C42 C43 1_555 1_555

#END
