
#######################################################################
#
#                 Cambridge Crystallographic Data Centre
#                                CCDC 
#
#######################################################################
#
# If this CIF has been generated from an entry in the Cambridge 
# Structural Database, then it will include bibliographic, chemical, 
# crystal, experimental, refinement or atomic coordinate data resulting 
# from the CCDC's data processing and validation procedures.
#
#######################################################################

data_XISBIM
_symmetry_cell_setting           monoclinic
_symmetry_space_group_name_H-M   'P 21/c'
_symmetry_Int_Tables_number      14
_space_group_name_Hall           '-P 2ybc'
loop_
_symmetry_equiv_pos_site_id
_symmetry_equiv_pos_as_xyz
1 x,y,z
2 -x,1/2+y,1/2-z
3 -x,-y,-z
4 x,1/2-y,1/2+z
_cell_length_a                   10.556
_cell_length_b                   17.769
_cell_length_c                   11.523
_cell_angle_alpha                90
_cell_angle_beta                 108.78
_cell_angle_gamma                90
_cell_volume                     2046.3
loop_
_atom_site_label
_atom_site_type_symbol
_atom_site_fract_x
_atom_site_fract_y
_atom_site_fract_z
C1 C 0.7956(4) 1.0466(3) 0.1591(4)
C2 C 0.6511(4) 1.0619(2) 0.1339(4)
C3 C 0.5689(5) 1.1089(3) 0.0510(4)
H1 H 0.5963 1.1380 -0.0036
C4 C 0.4373(4) 1.1091(3) 0.0561(4)
H2 H 0.3687 1.1383 0.0049
C5 C 0.4209(4) 1.0622(3) 0.1437(4)
C6 C 0.2982(4) 1.0469(3) 0.1770(5)
C7 C 0.1629(4) 0.8904(2) 0.4931(4)
H3 H 0.1870 0.9291 0.5504
C8 C 0.1282(4) 0.7786(2) 0.4143(4)
H4 H 0.1237 0.7266 0.4046
C9 C 0.0907(4) 0.8307(2) 0.3255(4)
H5 H 0.0543 0.8202 0.2422
C10 C 0.2219(4) 0.7851(3) 0.6439(4)
H6 H 0.1647 0.7429 0.6471
H7 H 0.2133 0.8223 0.7025
C11 C 0.3638(4) 0.7583(2) 0.6823(4)
C12 C 0.4587(4) 0.7909(3) 0.6410(4)
H8 H 0.4345 0.8296 0.5838
C13 C 0.5904(4) 0.7667(3) 0.6833(4)
H9 H 0.6540 0.7892 0.6544
C14 C 0.6273(4) 0.7095(3) 0.7677(4)
C15 C 0.5331(5) 0.6762(3) 0.8089(4)
H10 H 0.5575 0.6372 0.8656
C16 C 0.4019(4) 0.7002(3) 0.7668(4)
H11 H 0.3384 0.6773 0.7953
C17 C 0.7701(5) 0.6808(3) 0.8070(4)
H12 H 0.7737 0.6354 0.7615
H13 H 0.8265 0.7182 0.7867
C18 C 0.8391(5) 0.5963(3) 0.9882(4)
H14 H 0.8196 0.5518 0.9434
C19 C 0.9027(4) 0.6742(3) 1.1366(4)
H15 H 0.9357 0.6940 1.2154
C20 C 0.8636(5) 0.7150(3) 1.0322(5)
H16 H 0.8642 0.7671 1.0256
N1 N 0.1138(3) 0.90105(19) 0.3747(3)
N2 N 0.1742(3) 0.81772(19) 0.5219(3)
N3 N 0.8861(3) 0.59933(19) 1.1085(3)
N4 N 0.8229(3) 0.6645(2) 0.9382(3)
O1 O 0.8586(3) 1.0835(2) 0.1038(3)
O2 O 0.8491(4) 0.99823(18) 0.2388(4)
O3 O 0.1925(3) 1.0804(2) 0.1208(3)
O4 O 0.3047(5) 1.0015(2) 0.2618(5)
O5 O 0.0283(3) 0.92050(18) 0.0829(2)
S1 S 0.56690(11) 1.01681(7) 0.21897(11)
Cd1 Cd 0.07497(3) 1.005360(15) 0.24852(3)
H17 H 0.0824 0.9174 0.0418
H18 H -0.0480 0.9187 0.0363
N3A N 0.1139(3) 1.09933(19) 0.3915(3)
O1_2 O -0.1414(3) 1.0835(2) 0.1038(3)
O2_2 O -0.1509(4) 0.99823(18) 0.2388(4)
Cd1_2 Cd 1.07497(3) 1.005360(15) 0.24852(3)
Cd1A Cd 0.92503(3) 0.505360(15) 1.25148(3)
loop_
_geom_bond_atom_site_label_1
_geom_bond_atom_site_label_2
_geom_bond_site_symmetry_1
_geom_bond_site_symmetry_2
C1 C2 1_555 1_555
C2 C3 1_555 1_555
C3 H1 1_555 1_555
C4 C3 1_555 1_555
H2 C4 1_555 1_555
C5 C4 1_555 1_555
C6 C5 1_555 1_555
C7 H3 1_555 1_555
C8 H4 1_555 1_555
C9 C8 1_555 1_555
H5 C9 1_555 1_555
C10 H6 1_555 1_555
H7 C10 1_555 1_555
C11 C10 1_555 1_555
C12 C11 1_555 1_555
H8 C12 1_555 1_555
C13 C12 1_555 1_555
H9 C13 1_555 1_555
C14 C13 1_555 1_555
C15 C14 1_555 1_555
H10 C15 1_555 1_555
C16 C11 1_555 1_555
H11 C16 1_555 1_555
C17 C14 1_555 1_555
H12 C17 1_555 1_555
H13 C17 1_555 1_555
C18 H14 1_555 1_555
C19 H15 1_555 1_555
C20 C19 1_555 1_555
H16 C20 1_555 1_555
N1 C7 1_555 1_555
N2 C7 1_555 1_555
N3 C18 1_555 1_555
N4 C17 1_555 1_555
O1 C1 1_555 1_555
O2 C1 1_555 1_555
O3 C6 1_555 1_555
O4 C6 1_555 1_555
O5 Cd1 1_555 1_555
S1 C2 1_555 1_555
Cd1 N1 1_555 1_555
H17 O5 1_555 1_555
H18 O5 1_555 1_555
N3A Cd1 1_555 1_555
O1_2 Cd1 1_555 1_555
O2_2 Cd1 1_555 1_555
Cd1_2 O1 1_555 1_555
Cd1A N3 1_555 1_555
C5 S1 1_555 1_555
C8 N2 1_555 1_555
C9 N1 1_555 1_555
C10 N2 1_555 1_555
C15 C16 1_555 1_555
C18 N4 1_555 1_555
C19 N3 1_555 1_555
C20 N4 1_555 1_555
O2 Cd1_2 1_555 1_555
O3 Cd1 1_555 1_555
O4 Cd1 1_555 1_555

#END
