
#######################################################################
#
#                 Cambridge Crystallographic Data Centre
#                                CCDC 
#
#######################################################################
#
# If this CIF has been generated from an entry in the Cambridge 
# Structural Database, then it will include bibliographic, chemical, 
# crystal, experimental, refinement or atomic coordinate data resulting 
# from the CCDC's data processing and validation procedures.
#
#######################################################################

data_XISBUX
_symmetry_cell_setting           orthorhombic
_symmetry_space_group_name_H-M   'P 21 21 21'
_symmetry_Int_Tables_number      19
_space_group_name_Hall           'P 2ac 2ab'
loop_
_symmetry_equiv_pos_site_id
_symmetry_equiv_pos_as_xyz
1 x,y,z
2 1/2-x,-y,1/2+z
3 -x,1/2+y,1/2-z
4 1/2+x,1/2-y,-z
_cell_length_a                   9.6534(19)
_cell_length_b                   10.096(2)
_cell_length_c                   14.359(3)
_cell_angle_alpha                90
_cell_angle_beta                 90
_cell_angle_gamma                90
_cell_volume                     1399.44
loop_
_atom_site_label
_atom_site_type_symbol
_atom_site_fract_x
_atom_site_fract_y
_atom_site_fract_z
Zn1 Zn -0.029407(19) -0.736890(17) -0.131493(12)
C1 C -0.26406(18) -0.79890(17) 0.00726(12)
C2 C -0.2305(2) -0.94018(19) 0.02652(15)
H1 H -0.2072 -0.9498 0.0919
H2 H -0.1497 -0.9653 -0.0096
C3 C -0.3495(2) -1.03381(19) 0.00312(17)
H3 H -0.3606 -1.0382 -0.0639
H4 H -0.4347 -0.9993 0.0294
C4 C -0.3233(3) -1.1747(2) 0.0416(2)
H5 H -0.2441 -1.2133 0.0101
H6 H -0.3018 -1.1693 0.1075
C5 C -0.4459(3) -1.2612(2) 0.0281(2)
H7 H -0.4274 -1.3472 0.0538
H8 H -0.4652 -1.2695 -0.0373
H9 H -0.5245 -1.2230 0.0590
C6 C 0.04569(18) -0.97174(16) -0.25457(11)
C7 C 0.19069(19) -0.92793(18) -0.27100(14)
H10 H 0.2021 -0.8392 -0.2463
H11 H 0.2073 -0.9240 -0.3376
C8 C 0.29893(19) -1.01919(19) -0.22630(15)
H12 H 0.2883 -1.1079 -0.2512
H13 H 0.2828 -1.0232 -0.1597
C9 C 0.4475(2) -0.9711(2) -0.24428(16)
H14 H 0.5121 -1.0369 -0.2210
H15 H 0.4619 -0.9629 -0.3109
C10 C 0.4783(2) -0.8388(2) -0.1982(2)
H16 H 0.5718 -0.8128 -0.2120
H17 H 0.4673 -0.8470 -0.1320
H18 H 0.4154 -0.7729 -0.2214
N1 N -0.19539(15) -0.71806(14) -0.05010(10)
N2 N -0.25827(17) -0.59748(15) -0.04447(12)
N3 N -0.36058(17) -0.60558(15) 0.01261(11)
N4 N -0.36690(14) -0.73163(15) 0.04700(10)
N5 N -0.04611(16) -0.90468(13) -0.20430(10)
N6 N -0.16579(16) -0.97651(15) -0.20460(11)
N7 N -0.14673(16) -1.08254(16) -0.25271(11)
N8 N -0.01317(16) -1.08258(14) -0.28558(10)
Zn1C Zn -0.529407(19) -0.763110(17) 0.131493(12)
Zn1B Zn 0.029407(19) -1.236890(17) -0.368507(12)
N4C N 0.13310(14) -0.76837(15) -0.04700(10)
N8B N 0.01317(16) -0.58258(14) -0.21442(10)
loop_
_geom_bond_atom_site_label_1
_geom_bond_atom_site_label_2
_geom_bond_site_symmetry_1
_geom_bond_site_symmetry_2
Zn1 N1 1_555 1_555
C1 C2 1_555 1_555
C2 H1 1_555 1_555
H2 C2 1_555 1_555
C3 C2 1_555 1_555
H3 C3 1_555 1_555
H4 C3 1_555 1_555
C4 C3 1_555 1_555
H5 C4 1_555 1_555
H6 C4 1_555 1_555
C5 C4 1_555 1_555
H7 C5 1_555 1_555
H8 C5 1_555 1_555
H9 C5 1_555 1_555
C6 C7 1_555 1_555
C7 H10 1_555 1_555
H11 C7 1_555 1_555
C8 C7 1_555 1_555
H12 C8 1_555 1_555
H13 C8 1_555 1_555
C9 C8 1_555 1_555
H14 C9 1_555 1_555
H15 C9 1_555 1_555
C10 C9 1_555 1_555
H16 C10 1_555 1_555
H17 C10 1_555 1_555
H18 C10 1_555 1_555
N1 C1 1_555 1_555
N2 N1 1_555 1_555
N3 N2 1_555 1_555
N4 C1 1_555 1_555
N5 Zn1 1_555 1_555
N6 N5 1_555 1_555
N7 N6 1_555 1_555
N8 C6 1_555 1_555
Zn1C N4 1_555 1_555
Zn1B N8 1_555 1_555
N4C Zn1 1_555 1_555
N8B Zn1 1_555 1_555
C6 N5 1_555 1_555
N3 N4 1_555 1_555
N7 N8 1_555 1_555

#END
