
#######################################################################
#
#                 Cambridge Crystallographic Data Centre
#                                CCDC 
#
#######################################################################
#
# If this CIF has been generated from an entry in the Cambridge 
# Structural Database, then it will include bibliographic, chemical, 
# crystal, experimental, refinement or atomic coordinate data resulting 
# from the CCDC's data processing and validation procedures.
#
#######################################################################

data_XISCUY
_symmetry_cell_setting           triclinic
_symmetry_space_group_name_H-M   'P -1'
_symmetry_Int_Tables_number      2
_space_group_name_Hall           '-P 1'
loop_
_symmetry_equiv_pos_site_id
_symmetry_equiv_pos_as_xyz
1 x,y,z
2 -x,-y,-z
_cell_length_a                   7.8856(3)
_cell_length_b                   9.6537(5)
_cell_length_c                   12.5438(6)
_cell_angle_alpha                75.191(2)
_cell_angle_beta                 74.224(2)
_cell_angle_gamma                75.352(2)
_cell_volume                     870.976
loop_
_atom_site_label
_atom_site_type_symbol
_atom_site_fract_x
_atom_site_fract_y
_atom_site_fract_z
Ho1 Ho 1.23306(3) 0.20677(3) -0.001555(19)
O1 O 1.1573(5) 0.4195(4) 0.0764(3)
H1 H 1.207(6) 0.504(3) 0.039(4)
H2 H 1.039(3) 0.450(5) 0.118(4)
O2 O 1.4902(5) 0.3308(4) -0.0586(3)
H3 H 1.506(8) 0.340(5) 0.011(2)
H4 H 1.466(8) 0.425(2) -0.105(3)
O3 O 1.2069(5) -0.0416(4) 0.0556(3)
H5 H 1.104(4) -0.083(5) 0.073(5)
H6 H 1.311(4) -0.116(4) 0.057(5)
O4 O 0.9506(5) 0.2157(4) 0.1072(3)
O5 O 0.6931(5) 0.3656(4) 0.0793(3)
O6 O 0.6021(5) -0.1174(4) 0.8691(3)
O7 O 0.4373(5) 0.1075(4) 0.8570(3)
O8 O 1.1644(5) 0.3945(4) -0.1584(3)
O9 O 1.0619(5) 0.1934(5) -0.1337(3)
C1 C 0.7893(8) 0.2736(6) 0.1411(4)
C2 C 0.7080(7) 0.2329(7) 0.2662(4)
C3 C 0.5563(10) 0.3242(9) 0.3151(5)
H7 H 0.4986 0.4070 0.2690
C4 C 0.4889(11) 0.2952(10) 0.4304(5)
H8 H 0.3852 0.3585 0.4629
C5 C 0.5711(8) 0.1739(7) 0.5001(4)
C6 C 0.5125(8) 0.1470(7) 0.6203(4)
H9 H 0.4139 0.2127 0.6549
C7 C 0.5957(8) 0.0288(6) 0.6862(4)
C8 C 0.5390(7) 0.0055(6) 0.8131(4)
C9 C 0.7352(12) -0.0676(9) 0.6357(5)
H10 H 0.7895 -0.1530 0.6811
C10 C 0.7972(13) -0.0426(9) 0.5211(5)
H11 H 0.8956 -0.1102 0.4886
C11 C 0.7190(8) 0.0806(6) 0.4501(4)
C12 C 0.7875(9) 0.1138(7) 0.3314(4)
H12 H 0.8908 0.0512 0.2975
C13 C 1.0862(7) 0.3182(7) -0.1918(4)
C14 C 1.0289(8) 0.3725(7) -0.3018(4)
C15 C 0.9115(8) 0.3065(7) -0.3296(4)
H13 H 0.8619 0.2299 -0.2759
C16 C 0.8682(9) 0.3509(7) -0.4318(4)
H14 H 0.7879 0.3056 -0.4492
C17 C 0.9428(8) 0.4657(7) -0.5143(4)
C18 C 1.0982(8) 0.4868(6) -0.3770(4)
H15 H 1.1732 0.5338 -0.3562
Ho1A Ho 0.76694(3) -0.20677(3) 1.001555(19)
Ho1_2 Ho 0.23306(3) 0.20677(3) 0.998445(19)
Ho1A_2 Ho 0.76694(3) 0.79323(3) -0.998445(19)
Ho1A_3 Ho 1.76694(3) -0.20677(3) 0.001555(19)
O1A O 0.8427(5) -0.4195(4) 0.9236(3)
H1A H 0.793(6) -0.504(3) 0.961(4)
H2A H 0.961(3) -0.450(5) 0.882(4)
O2A O 0.5098(5) -0.3308(4) 1.0586(3)
H3A H 0.494(8) -0.340(5) 0.989(2)
H4A H 0.534(8) -0.425(2) 1.105(3)
O3A O 0.7931(5) 0.0416(4) 0.9444(3)
H5A H 0.896(4) 0.083(5) 0.927(5)
H6A H 0.689(4) 0.116(4) 0.943(5)
O4A O 1.0494(5) -0.2157(4) 0.8928(3)
O5A O 1.3069(5) -0.3656(4) 0.9207(3)
O6A O 1.3979(5) 0.1174(4) 0.1309(3)
O7A O 1.5627(5) -0.1075(4) 0.1430(3)
O7_2 O 1.4373(5) 0.1075(4) -0.1430(3)
O7A_2 O 0.5627(5) -0.1075(4) 1.1430(3)
O8A O 0.8356(5) 0.6055(4) -0.8416(3)
O8A_2 O 0.8356(5) -0.3945(4) 1.1584(3)
O9A O 0.9381(5) 0.8066(5) -0.8663(3)
O9A_2 O 0.9381(5) -0.1934(5) 1.1337(3)
C1A C 1.2107(8) -0.2736(6) 0.8589(4)
C2A C 1.2920(7) -0.2329(7) 0.7338(4)
C3A C 1.4437(10) -0.3242(9) 0.6849(5)
H7A H 1.5014 -0.4070 0.7310
C4A C 1.5111(11) -0.2952(10) 0.5696(5)
H8A H 1.6148 -0.3585 0.5371
C5A C 1.4289(8) -0.1739(7) 0.4999(4)
C6A C 1.4875(8) -0.1470(7) 0.3797(4)
H9A H 1.5861 -0.2127 0.3451
C7A C 1.4043(8) -0.0288(6) 0.3138(4)
C8A C 1.4610(7) -0.0055(6) 0.1869(4)
C9A C 1.2648(12) 0.0676(9) 0.3643(5)
H10A H 1.2105 0.1530 0.3189
C10A C 1.2028(13) 0.0426(9) 0.4789(5)
H11A H 1.1044 0.1102 0.5114
C11A C 1.2810(8) -0.0806(6) 0.5499(4)
C12A C 1.2125(9) -0.1138(7) 0.6686(4)
H12A H 1.1092 -0.0512 0.7025
C13A C 0.9138(7) 0.6818(7) -0.8082(4)
C14A C 0.9711(8) 0.6275(7) -0.6982(4)
C15A C 1.0885(8) 0.6935(7) -0.6704(4)
H13A H 1.1381 0.7701 -0.7241
C16A C 1.1318(9) 0.6491(7) -0.5682(4)
H14A H 1.2121 0.6944 -0.5508
C17A C 1.0572(8) 0.5343(7) -0.4857(4)
C18A C 0.9018(8) 0.5132(6) -0.6230(4)
H15A H 0.8268 0.4662 -0.6438
loop_
_geom_bond_atom_site_label_1
_geom_bond_atom_site_label_2
_geom_bond_site_symmetry_1
_geom_bond_site_symmetry_2
Ho1 O1 1_555 1_555
O1 H1 1_555 1_555
H2 O1 1_555 1_555
O2 Ho1 1_555 1_555
H3 O2 1_555 1_555
H4 O2 1_555 1_555
O3 Ho1 1_555 1_555
H5 O3 1_555 1_555
H6 O3 1_555 1_555
O4 Ho1 1_555 1_555
O5 C1 1_555 1_555
O6 C8 1_555 1_555
O7 C8 1_555 1_555
O8 Ho1 1_555 1_555
O9 Ho1 1_555 1_555
C1 O4 1_555 1_555
C2 C1 1_555 1_555
C3 C2 1_555 1_555
H7 C3 1_555 1_555
C4 C3 1_555 1_555
H8 C4 1_555 1_555
C5 C4 1_555 1_555
C6 C5 1_555 1_555
H9 C6 1_555 1_555
C7 C6 1_555 1_555
C8 C7 1_555 1_555
C9 C7 1_555 1_555
H10 C9 1_555 1_555
C10 C9 1_555 1_555
H11 C10 1_555 1_555
C11 C5 1_555 1_555
C12 C2 1_555 1_555
H12 C12 1_555 1_555
C13 O8 1_555 1_555
C14 C13 1_555 1_555
C15 C14 1_555 1_555
H13 C15 1_555 1_555
C16 C15 1_555 1_555
H14 C16 1_555 1_555
C17 C16 1_555 1_555
C18 C14 1_555 1_555
H15 C18 1_555 1_555
Ho1A O6 1_555 1_555
Ho1_2 O7 1_555 1_555
Ho1A_2 O8A 1_555 1_555
Ho1A_3 O7A 1_555 1_555
O1A Ho1A 1_555 1_555
H1A O1A 1_555 1_555
H2A O1A 1_555 1_555
O2A Ho1A 1_555 1_555
H3A O2A 1_555 1_555
H4A O2A 1_555 1_555
O3A Ho1A 1_555 1_555
H5A O3A 1_555 1_555
H6A O3A 1_555 1_555
O4A Ho1A 1_555 1_555
O5A C1A 1_555 1_555
O6A Ho1 1_555 1_555
O7A C8A 1_555 1_555
O7_2 Ho1 1_555 1_555
O7A_2 Ho1A 1_555 1_555
O8A C13A 1_555 1_555
O8A_2 Ho1A 1_555 1_555
O9A Ho1A_2 1_555 1_555
O9A_2 Ho1A 1_555 1_555
C1A O4A 1_555 1_555
C2A C1A 1_555 1_555
C3A C2A 1_555 1_555
H7A C3A 1_555 1_555
C4A C3A 1_555 1_555
H8A C4A 1_555 1_555
C5A C4A 1_555 1_555
C6A C5A 1_555 1_555
H9A C6A 1_555 1_555
C7A C6A 1_555 1_555
C8A O6A 1_555 1_555
C9A C7A 1_555 1_555
H10A C9A 1_555 1_555
C10A C9A 1_555 1_555
H11A C10A 1_555 1_555
C11A C5A 1_555 1_555
C12A C2A 1_555 1_555
H12A C12A 1_555 1_555
C13A O9A 1_555 1_555
C14A C13A 1_555 1_555
C15A C14A 1_555 1_555
H13A C15A 1_555 1_555
C16A C15A 1_555 1_555
H14A C16A 1_555 1_555
C17A C17 1_555 1_555
C18A C17 1_555 1_555
H15A C18A 1_555 1_555
O9 C13 1_555 1_555
C10 C11 1_555 1_555
C11 C12 1_555 1_555
C18 C17A 1_555 1_555
C7A C8A 1_555 1_555
C10A C11A 1_555 1_555
C11A C12A 1_555 1_555
C14A C18A 1_555 1_555
C16A C17A 1_555 1_555

#END
