
#######################################################################
#
#                 Cambridge Crystallographic Data Centre
#                                CCDC 
#
#######################################################################
#
# If this CIF has been generated from an entry in the Cambridge 
# Structural Database, then it will include bibliographic, chemical, 
# crystal, experimental, refinement or atomic coordinate data resulting 
# from the CCDC's data processing and validation procedures.
#
#######################################################################

data_XISDEJ01
_symmetry_cell_setting           monoclinic
_symmetry_space_group_name_H-M   'P 21'
_symmetry_Int_Tables_number      4
_space_group_name_Hall           'P 2yb'
loop_
_symmetry_equiv_pos_site_id
_symmetry_equiv_pos_as_xyz
1 x,y,z
2 -x,1/2+y,-z
_cell_length_a                   5.8808(12)
_cell_length_b                   8.7215(19)
_cell_length_c                   11.876(2)
_cell_angle_alpha                90
_cell_angle_beta                 93.605(4)
_cell_angle_gamma                90
_cell_volume                     607.908
loop_
_atom_site_label
_atom_site_type_symbol
_atom_site_fract_x
_atom_site_fract_y
_atom_site_fract_z
Cu1 Cu 0.60943(12) 0.20341(10) 0.41088(6)
N1 N 0.6834(10) 0.1321(7) 0.2592(5)
H1 H 0.813(18) 0.078(14) 0.257(8)
O1 O 0.5399(9) 0.4582(6) 0.3242(4)
H2 H 0.4772 0.5177 0.3671
O2 O 0.2947(7) 0.1414(5) 0.3593(4)
O3 O 0.1101(8) -0.0058(6) 0.2311(4)
O4 O 0.6846(8) -0.0601(6) 0.4591(4)
O5 O 0.4610(8) -0.2648(5) 0.4351(3)
C1 C 0.4110(12) 0.4458(9) 0.2258(5)
C2 C 0.2143(12) 0.5352(8) 0.2040(6)
H3 H 0.1654 0.6050 0.2577
C3 C 0.0946(13) 0.5165(10) 0.1003(7)
H4 H -0.0385 0.5742 0.0842
C4 C 0.1652(14) 0.4165(11) 0.0208(6)
H5 H 0.0847 0.4076 -0.0498
C5 C 0.3571(14) 0.3290(9) 0.0466(6)
H6 H 0.4024 0.2569 -0.0063
C6 C 0.4833(13) 0.3440(8) 0.1466(6)
C7 C 0.7001(11) 0.2541(8) 0.1723(6)
H7 H 0.7452 0.2065 0.1023
H8 H 0.8211 0.3256 0.1977
C8 C 0.5143(11) 0.0138(8) 0.2254(5)
H9 H 0.4949 0.0097 0.1420
C9 C 0.2870(11) 0.0532(8) 0.2732(6)
C10 C 0.5888(11) -0.1442(8) 0.2707(5)
H10 H 0.4884 -0.2227 0.2356
H11 H 0.7441 -0.1651 0.2494
C11 C 0.5824(12) -0.1556(8) 0.3979(5)
O6 O 0.9295(9) 0.2627(7) 0.4498(5)
H12 H 0.967(18) 0.338(8) 0.492(8)
H13 H 1.041(12) 0.214(13) 0.427(7)
Cu1A Cu 0.39057(12) -0.29659(10) 0.58912(6)
O5A O 0.5390(8) 0.2352(5) 0.5649(3)
loop_
_geom_bond_atom_site_label_1
_geom_bond_atom_site_label_2
_geom_bond_site_symmetry_1
_geom_bond_site_symmetry_2
Cu1 N1 1_555 1_555
N1 H1 1_555 1_555
O1 Cu1 1_555 1_555
H2 O1 1_555 1_555
O2 Cu1 1_555 1_555
O3 C9 1_555 1_555
O4 Cu1 1_555 1_555
O5 C11 1_555 1_555
C1 O1 1_555 1_555
C2 C1 1_555 1_555
H3 C2 1_555 1_555
C3 C2 1_555 1_555
H4 C3 1_555 1_555
C4 C3 1_555 1_555
H5 C4 1_555 1_555
C5 C4 1_555 1_555
H6 C5 1_555 1_555
C6 C1 1_555 1_555
C7 N1 1_555 1_555
H7 C7 1_555 1_555
H8 C7 1_555 1_555
C8 N1 1_555 1_555
H9 C8 1_555 1_555
C9 O2 1_555 1_555
C10 C8 1_555 1_555
H10 C10 1_555 1_555
H11 C10 1_555 1_555
C11 O4 1_555 1_555
O6 Cu1 1_555 1_555
H12 O6 1_555 1_555
H13 O6 1_555 1_555
Cu1A O5 1_555 1_555
O5A Cu1 1_555 1_555
C5 C6 1_555 1_555
C6 C7 1_555 1_555
C8 C9 1_555 1_555
C10 C11 1_555 1_555

#END
