
#######################################################################
#
#                 Cambridge Crystallographic Data Centre
#                                CCDC 
#
#######################################################################
#
# If this CIF has been generated from an entry in the Cambridge 
# Structural Database, then it will include bibliographic, chemical, 
# crystal, experimental, refinement or atomic coordinate data resulting 
# from the CCDC's data processing and validation procedures.
#
#######################################################################

data_XISFOV
_symmetry_cell_setting           triclinic
_symmetry_space_group_name_H-M   'P -1'
_symmetry_Int_Tables_number      2
_space_group_name_Hall           '-P 1'
loop_
_symmetry_equiv_pos_site_id
_symmetry_equiv_pos_as_xyz
1 x,y,z
2 -x,-y,-z
_cell_length_a                   8.9914(2)
_cell_length_b                   12.5409(3)
_cell_length_c                   12.7455(3)
_cell_angle_alpha                67.809(2)
_cell_angle_beta                 88.645(2)
_cell_angle_gamma                75.4370(10)
_cell_volume                     1283.89
loop_
_atom_site_label
_atom_site_type_symbol
_atom_site_fract_x
_atom_site_fract_y
_atom_site_fract_z
Nd1 Nd 0.302446(16) 0.648646(11) 0.499494(11)
O1 O 0.4250(2) 0.69456(18) 0.32145(16)
O2 O 0.6003(2) 0.53012(18) 0.32891(16)
O3 O 0.5424(2) 0.65947(18) -0.43231(16)
O4 O 0.7188(3) 0.49332(18) -0.41903(17)
O5 O 0.0710(2) 0.77124(17) 0.38374(17)
O6 O -0.1170(3) 0.68020(19) 0.39864(18)
O7 O 0.0896(2) 0.55410(18) 0.58438(17)
H1 H 0.0142 0.5913 0.5371
H2 H 0.1141 0.4849 0.592
N1 N 0.1807(3) 0.7494(2) 0.6388(2)
N2 N 0.3019(3) 0.8746(2) 0.4497(2)
N3 N 0.4653(3) 0.7593(2) -0.0901(2)
N4 N 0.7976(3) 0.5136(3) -0.0406(2)
N5 N -0.1566(3) 0.9404(2) -0.0166(2)
C1 C 0.1138(4) 0.6873(3) 0.7282(2)
H3 H 0.1275 0.6047 0.7452
C2 C 0.0265(4) 0.7370(3) 0.7965(3)
H4 H -0.0176 0.6897 0.8598
C3 C 0.0047(4) 0.8573(3) 0.7704(3)
H5 H -0.0571 0.8947 0.8147
C4 C 0.0731(4) 0.9226(3) 0.6797(3)
H6 H 0.0592 1.0055 0.6611
C5 C 0.1628(4) 0.8665(3) 0.6156(2)
C6 C 0.2415(4) 0.9319(3) 0.5180(3)
C7 C 0.2558(5) 1.0458(3) 0.4987(3)
H7 H 0.2134 1.0844 0.5481
C8 C 0.3316(5) 1.1022(3) 0.4078(3)
H8 H 0.3426 1.1796 0.3943
C9 C 0.3913(5) 1.0454(3) 0.3366(3)
H9 H 0.4428 1.0828 0.2726
C10 C 0.3740(4) 0.9320(3) 0.3610(3)
H10 H 0.4157 0.8925 0.3121
C11 C 0.5080(3) 0.6300(2) 0.2764(2)
C12 C 0.4949(3) 0.6758(2) 0.1476(2)
C13 C 0.5869(3) 0.6123(2) 0.0900(2)
H11 H 0.6611 0.5394 0.1309
C14 C 0.5690(3) 0.6570(2) -0.0282(2)
C15 C 0.3785(4) 0.8189(3) -0.0329(3)
H12 H 0.3048 0.8915 -0.0754
C16 C 0.3893(4) 0.7814(3) 0.0843(2)
H13 H 0.3252 0.8275 0.1206
C17 C 0.6656(3) 0.5932(2) -0.0944(2)
C18 C 0.6182(3) 0.6167(2) -0.2056(2)
H14 H 0.5249 0.6749 -0.2412
C19 C 0.7085(3) 0.5544(2) -0.2641(2)
C20 C 0.8448(4) 0.4715(3) -0.2093(3)
H15 H 0.9094 0.4265 -0.2464
C21 C 0.8844(4) 0.4559(3) -0.0993(3)
H16 H 0.9795 0.4007 -0.063
C22 C 0.6534(3) 0.5710(2) -0.3818(2)
C23 C -0.0411(3) 0.7506(2) 0.3433(2)
C24 C -0.0843(3) 0.8186(2) 0.2173(2)
C25 C -0.0014(3) 0.8963(2) 0.1525(2)
H17 H 0.082 0.9084 0.187
C26 C -0.0414(3) 0.9566(2) 0.0364(2)
C27 C -0.2347(4) 0.8644(3) 0.0472(3)
H18 H -0.3158 0.8519 0.0107
C28 C -0.2040(4) 0.8027(3) 0.1641(3)
H19 H -0.2641 0.7508 0.2062
Nd1A Nd 0.697554(16) 0.351354(11) 0.500506(11)
Nd1_2 Nd 0.302446(16) 0.648646(11) -0.500506(11)
Nd1A_2 Nd 0.697554(16) 0.351354(11) -0.499494(11)
Nd1A_3 Nd -0.302446(16) 1.351354(11) -0.499494(11)
Nd1A_4 Nd 0.697554(16) 0.351354(11) 1.500506(11)
Nd1_3 Nd 0.302446(16) 0.648646(11) 1.499494(11)
O1A O 0.5750(2) 0.30544(18) 0.67855(16)
O2A O 0.3997(2) 0.46988(18) 0.67109(16)
O3A O 0.4576(2) 0.34053(18) 1.43231(16)
O3_2 O 0.5424(2) 0.65947(18) 0.56769(16)
O3A_2 O 0.4576(2) 0.34053(18) 0.43231(16)
O4A O 0.2812(3) 0.50668(18) 1.41903(17)
O4A_2 O 0.2812(3) 0.50668(18) 0.41903(17)
O4_2 O 0.7188(3) 0.49332(18) 0.58097(17)
O5A O -0.0710(2) 1.22876(17) -0.38374(17)
O5A_2 O 0.9290(2) 0.22876(17) 0.61626(17)
O6A O 0.1170(3) 1.31980(19) -0.39864(18)
O7A O 0.9104(2) 0.44590(18) 0.41562(17)
H1A H 0.9858 0.4087 0.4629
H2A H 0.8859 0.5151 0.408
N1A N 0.8193(3) 0.2506(2) 0.3612(2)
N2A N 0.6981(3) 0.1254(2) 0.5503(2)
N3A N 0.5347(3) 0.2407(2) 1.0901(2)
N4A N 0.2024(3) 0.4864(3) 1.0406(2)
N5A N 0.1566(3) 1.0596(2) 0.0166(2)
C1A C 0.8862(4) 0.3127(3) 0.2718(2)
H3A H 0.8725 0.3953 0.2548
C2A C 0.9735(4) 0.2630(3) 0.2035(3)
H4A H 1.0176 0.3103 0.1402
C3A C 0.9953(4) 0.1427(3) 0.2296(3)
H5A H 1.0571 0.1053 0.1853
C4A C 0.9269(4) 0.0774(3) 0.3203(3)
H6A H 0.9408 -0.0055 0.3389
C5A C 0.8372(4) 0.1335(3) 0.3844(2)
C6A C 0.7585(4) 0.0681(3) 0.4820(3)
C7A C 0.7442(5) -0.0458(3) 0.5013(3)
H7A H 0.7866 -0.0844 0.4519
C8A C 0.6684(5) -0.1022(3) 0.5922(3)
H8A H 0.6574 -0.1796 0.6057
C9A C 0.6087(5) -0.0454(3) 0.6634(3)
H9A H 0.5572 -0.0828 0.7274
C10A C 0.6260(4) 0.0680(3) 0.6390(3)
H10A H 0.5843 0.1075 0.6879
C11A C 0.4920(3) 0.3700(2) 0.7236(2)
C12A C 0.5051(3) 0.3242(2) 0.8524(2)
C13A C 0.4131(3) 0.3877(2) 0.9100(2)
H11A H 0.3389 0.4606 0.8691
C14A C 0.4310(3) 0.3430(2) 1.0282(2)
C15A C 0.6215(4) 0.1811(3) 1.0329(3)
H12A H 0.6952 0.1085 1.0754
C16A C 0.6107(4) 0.2186(3) 0.9157(2)
H13A H 0.6748 0.1725 0.8794
C17A C 0.3344(3) 0.4068(2) 1.0944(2)
C18A C 0.3818(3) 0.3833(2) 1.2056(2)
H14A H 0.4751 0.3251 1.2412
C19A C 0.2915(3) 0.4456(2) 1.2641(2)
C20A C 0.1552(4) 0.5285(3) 1.2093(3)
H15A H 0.0906 0.5735 1.2464
C21A C 0.1156(4) 0.5441(3) 1.0993(3)
H16A H 0.0205 0.5993 1.063
C22A C 0.3466(3) 0.4290(2) 1.3818(2)
C23A C 0.0411(3) 1.2494(2) -0.3433(2)
C24A C 0.0843(3) 1.1814(2) -0.2173(2)
C25A C 0.0014(3) 1.1037(2) -0.1525(2)
H17A H -0.082 1.0916 -0.187
C26A C 0.0414(3) 1.0434(2) -0.0364(2)
C27A C 0.2347(4) 1.1356(3) -0.0472(3)
H18A H 0.3158 1.1481 -0.0107
C28A C 0.2040(4) 1.1973(3) -0.1641(3)
H19A H 0.2641 1.2492 -0.2062
loop_
_geom_bond_atom_site_label_1
_geom_bond_atom_site_label_2
_geom_bond_site_symmetry_1
_geom_bond_site_symmetry_2
Nd1 O1 1_555 1_555
O1 C11 1_555 1_555
O2 C11 1_555 1_555
O3 C22 1_555 1_555
O4 C22 1_555 1_555
O5 Nd1 1_555 1_555
O6 C23 1_555 1_555
O7 Nd1 1_555 1_555
H1 O7 1_555 1_555
H2 O7 1_555 1_555
N1 Nd1 1_555 1_555
N2 Nd1 1_555 1_555
N3 C14 1_555 1_555
N4 C17 1_555 1_555
N5 C26 1_555 1_555
C1 N1 1_555 1_555
H3 C1 1_555 1_555
C2 C1 1_555 1_555
H4 C2 1_555 1_555
C3 C2 1_555 1_555
H5 C3 1_555 1_555
C4 C3 1_555 1_555
H6 C4 1_555 1_555
C5 N1 1_555 1_555
C6 N2 1_555 1_555
C7 C6 1_555 1_555
H7 C7 1_555 1_555
C8 C7 1_555 1_555
H8 C8 1_555 1_555
C9 C8 1_555 1_555
H9 C9 1_555 1_555
C10 N2 1_555 1_555
H10 C10 1_555 1_555
C11 C12 1_555 1_555
C12 C13 1_555 1_555
C13 H11 1_555 1_555
C14 C13 1_555 1_555
C15 N3 1_555 1_555
H12 C15 1_555 1_555
C16 C12 1_555 1_555
H13 C16 1_555 1_555
C17 C14 1_555 1_555
C18 C17 1_555 1_555
H14 C18 1_555 1_555
C19 C18 1_555 1_555
C20 C19 1_555 1_555
H15 C20 1_555 1_555
C21 N4 1_555 1_555
H16 C21 1_555 1_555
C22 C19 1_555 1_555
C23 O5 1_555 1_555
C24 C23 1_555 1_555
C25 C24 1_555 1_555
H17 C25 1_555 1_555
C26 C25 1_555 1_555
C27 N5 1_555 1_555
H18 C27 1_555 1_555
C28 C24 1_555 1_555
H19 C28 1_555 1_555
Nd1A O2 1_555 1_555
Nd1_2 O3 1_555 1_555
Nd1A_2 O4 1_555 1_555
Nd1A_3 O5A 1_555 1_555
Nd1A_4 O3A 1_555 1_555
Nd1_3 O4A 1_555 1_555
O1A Nd1A 1_555 1_555
O2A Nd1 1_555 1_555
O3A C22A 1_555 1_555
O3_2 Nd1 1_555 1_555
O3A_2 Nd1A 1_555 1_555
O4A C22A 1_555 1_555
O4A_2 Nd1 1_555 1_555
O4_2 Nd1A 1_555 1_555
O5A C23A 1_555 1_555
O5A_2 Nd1A 1_555 1_555
O6A C23A 1_555 1_555
O7A Nd1A 1_555 1_555
H1A O7A 1_555 1_555
H2A O7A 1_555 1_555
N1A Nd1A 1_555 1_555
N2A Nd1A 1_555 1_555
N3A C14A 1_555 1_555
N4A C17A 1_555 1_555
N5A C26A 1_555 1_555
C1A N1A 1_555 1_555
H3A C1A 1_555 1_555
C2A C1A 1_555 1_555
H4A C2A 1_555 1_555
C3A C2A 1_555 1_555
H5A C3A 1_555 1_555
C4A C3A 1_555 1_555
H6A C4A 1_555 1_555
C5A N1A 1_555 1_555
C6A N2A 1_555 1_555
C7A C6A 1_555 1_555
H7A C7A 1_555 1_555
C8A C7A 1_555 1_555
H8A C8A 1_555 1_555
C9A C8A 1_555 1_555
H9A C9A 1_555 1_555
C10A N2A 1_555 1_555
H10A C10A 1_555 1_555
C11A O1A 1_555 1_555
C12A C11A 1_555 1_555
C13A C12A 1_555 1_555
H11A C13A 1_555 1_555
C14A C13A 1_555 1_555
C15A N3A 1_555 1_555
H12A C15A 1_555 1_555
C16A C12A 1_555 1_555
H13A C16A 1_555 1_555
C17A C14A 1_555 1_555
C18A C17A 1_555 1_555
H14A C18A 1_555 1_555
C19A C18A 1_555 1_555
C20A C19A 1_555 1_555
H15A C20A 1_555 1_555
C21A N4A 1_555 1_555
H16A C21A 1_555 1_555
C22A C19A 1_555 1_555
C23A C24A 1_555 1_555
C24A C25A 1_555 1_555
C25A H17A 1_555 1_555
C26A C26 1_555 1_555
C27A N5A 1_555 1_555
H18A C27A 1_555 1_555
C28A C24A 1_555 1_555
H19A C28A 1_555 1_555
C4 C5 1_555 1_555
C5 C6 1_555 1_555
C9 C10 1_555 1_555
C15 C16 1_555 1_555
C20 C21 1_555 1_555
C27 C28 1_555 1_555
O2A C11A 1_555 1_555
C4A C5A 1_555 1_555
C5A C6A 1_555 1_555
C9A C10A 1_555 1_555
C15A C16A 1_555 1_555
C20A C21A 1_555 1_555
C25A C26A 1_555 1_555
C27A C28A 1_555 1_555

#END
