
#######################################################################
#
#                 Cambridge Crystallographic Data Centre
#                                CCDC 
#
#######################################################################
#
# If this CIF has been generated from an entry in the Cambridge 
# Structural Database, then it will include bibliographic, chemical, 
# crystal, experimental, refinement or atomic coordinate data resulting 
# from the CCDC's data processing and validation procedures.
#
#######################################################################

data_XISKOZ
_symmetry_cell_setting           monoclinic
_symmetry_space_group_name_H-M   'P 21/n'
_symmetry_Int_Tables_number      14
_space_group_name_Hall           '-P 2yn'
loop_
_symmetry_equiv_pos_site_id
_symmetry_equiv_pos_as_xyz
1 x,y,z
2 1/2-x,1/2+y,1/2-z
3 -x,-y,-z
4 1/2+x,1/2-y,1/2+z
_cell_length_a                   14.229(3)
_cell_length_b                   5.613(1)
_cell_length_c                   11.521(3)
_cell_angle_alpha                90
_cell_angle_beta                 93.06(1)
_cell_angle_gamma                90
_cell_volume                     918.84
loop_
_atom_site_label
_atom_site_type_symbol
_atom_site_fract_x
_atom_site_fract_y
_atom_site_fract_z
Cd1 Cd 0.26700(2) 0.57668(5) 0.36677(2)
C1 C 0.2165(3) 0.1423(6) 0.5288(3)
C2 C 0.1873(3) -0.0019(8) 0.6327(4)
P1 P 0.1444(1) 0.0767(2) 0.3951(1)
P2 P 0.3420(1) 0.1007(2) 0.5046(1)
O1 O 0.1837(2) 0.2290(5) 0.2996(2)
O2 O 0.1420(2) -0.1878(5) 0.3711(2)
O3 O 0.0439(2) 0.1616(6) 0.4211(3)
O4 O 0.3688(2) 0.2876(5) 0.4179(2)
O5 O 0.3552(2) -0.1569(5) 0.4738(2)
O6 O 0.3966(2) 0.1481(5) 0.6241(3)
O7 O 0.2062(2) 0.3968(5) 0.5473(2)
H1 H 0.121(4) 0.015(8) 0.640(4)
H2 H 0.217(3) 0.046(10) 0.698(5)
H3 H 0.207(3) -0.150(8) 0.623(3)
H4 H 0.162(4) 0.399(11) 0.567(5)
H5 H 0.031(5) 0.269(15) 0.408(7)
H6 H 0.416(4) 0.259(11) 0.631(5)
O1A O 0.3163(2) 0.7290(5) 0.2004(2)
O2_2 O 0.1420(2) 0.8122(5) 0.3711(2)
O5_2 O 0.3552(2) 0.8431(5) 0.4738(2)
Cd1A Cd 0.23300(2) 0.07668(5) 0.13323(2)
Cd1_2 Cd 0.26700(2) -0.42332(5) 0.36677(2)
O8 O 0.4556(2) 0.5776(6) 0.6409(3)
H7 H 0.512(3) 0.596(8) 0.630(4)
H8 H 0.432(4) 0.641(10) 0.597(5)
O9 O 0.4698(3) 0.9512(6) 0.8399(3)
H9 H 0.447(5) 0.951(11) 0.775(6)
H10 H 0.513(4) 0.856(12) 0.849(6)
loop_
_geom_bond_atom_site_label_1
_geom_bond_atom_site_label_2
_geom_bond_site_symmetry_1
_geom_bond_site_symmetry_2
Cd1 O1 1_555 1_555
C1 C2 1_555 1_555
C2 H1 1_555 1_555
P1 C1 1_555 1_555
P2 C1 1_555 1_555
O1 P1 1_555 1_555
O2 P1 1_555 1_555
O3 P1 1_555 1_555
O4 Cd1 1_555 1_555
O5 P2 1_555 1_555
O6 P2 1_555 1_555
O7 Cd1 1_555 1_555
H2 C2 1_555 1_555
H3 C2 1_555 1_555
H4 O7 1_555 1_555
H5 O3 1_555 1_555
H6 O6 1_555 1_555
O8 H7 1_555 1_555
H8 O8 1_555 1_555
O9 H9 1_555 1_555
H10 O9 1_555 1_555
O1A Cd1 1_555 1_555
O2_2 Cd1 1_555 1_555
O5_2 Cd1 1_555 1_555
Cd1A O1 1_555 1_555
Cd1_2 O2 1_555 1_555
C1 O7 1_555 1_555
P2 O4 1_555 1_555
O5 Cd1_2 1_555 1_555

#END
