
#######################################################################
#
#                 Cambridge Crystallographic Data Centre
#                                CCDC 
#
#######################################################################
#
# If this CIF has been generated from an entry in the Cambridge 
# Structural Database, then it will include bibliographic, chemical, 
# crystal, experimental, refinement or atomic coordinate data resulting 
# from the CCDC's data processing and validation procedures.
#
#######################################################################

data_XISMUH
_symmetry_cell_setting           monoclinic
_symmetry_space_group_name_H-M   'C 2/m'
_symmetry_Int_Tables_number      12
_space_group_name_Hall           '-C 2y'
loop_
_symmetry_equiv_pos_site_id
_symmetry_equiv_pos_as_xyz
1 x,y,z
2 -x,y,-z
3 1/2+x,1/2+y,z
4 1/2-x,1/2+y,-z
5 -x,-y,-z
6 x,-y,z
7 1/2-x,1/2-y,-z
8 1/2+x,1/2-y,z
_cell_length_a                   18.67(3)
_cell_length_b                   7.436(3)
_cell_length_c                   6.841(6)
_cell_angle_alpha                90
_cell_angle_beta                 109.95(9)
_cell_angle_gamma                90
_cell_volume                     892.744
loop_
_atom_site_label
_atom_site_type_symbol
_atom_site_fract_x
_atom_site_fract_y
_atom_site_fract_z
Fe1 Fe 0.0000 0.0000 0.0000
Ni1 Ni 0.0000 0.5000 0.5000
N1 N 0.0323(5) 0.207(1) 0.234(1)
C1 C 0.0243(6) 0.317(1) 0.337(1)
N2 N 0.1164(8) 0.0000 -0.015(2)
C2 C 0.180(1) 0.0000 0.156(2)
C3 C 0.257(1) 0.0000 0.149(3)
C4 C 0.262(1) 0.0000 -0.037(3)
C5 C 0.201(1) 0.0000 -0.212(3)
C6 C 0.130(1) 0.0000 -0.205(3)
C7 C 0.344(1) 0.0000 -0.041(4)
N1A N -0.0323(5) 0.207(1) -0.234(1)
C1A C -0.0243(6) 0.317(1) -0.337(1)
N1D N -0.0323(5) -0.207(1) -0.234(1)
C1D C -0.0243(6) -0.317(1) -0.337(1)
N1E N 0.0323(5) -0.207(1) 0.234(1)
C1E C 0.0243(6) -0.317(1) 0.337(1)
N2A N -0.1164(8) 0.0000 0.015(2)
C2A C -0.180(1) 0.0000 -0.156(2)
C3A C -0.257(1) 0.0000 -0.149(3)
C4A C -0.262(1) 0.0000 0.037(3)
C5A C -0.201(1) 0.0000 0.212(3)
C6A C -0.130(1) 0.0000 0.205(3)
C7A C -0.344(1) 0.0000 0.041(4)
C1A_2 C -0.0243(6) 0.317(1) 0.663(1)
C1D_2 C -0.0243(6) 0.683(1) 0.663(1)
C1E_2 C 0.0243(6) 0.683(1) 0.337(1)
Ni1_2 Ni 0.0000 0.5000 -0.5000
Ni1_3 Ni 0.0000 -0.5000 -0.5000
Ni1_4 Ni 0.0000 -0.5000 0.5000
loop_
_geom_bond_atom_site_label_1
_geom_bond_atom_site_label_2
_geom_bond_site_symmetry_1
_geom_bond_site_symmetry_2
Fe1 N1 1_555 1_555
Ni1 C1 1_555 1_555
N1 C1 1_555 1_555
N2 Fe1 1_555 1_555
C2 N2 1_555 1_555
C3 C2 1_555 1_555
C4 C3 1_555 1_555
C5 C4 1_555 1_555
C6 N2 1_555 1_555
C7 C4 1_555 1_555
N1A Fe1 1_555 1_555
C1A N1A 1_555 1_555
N1D Fe1 1_555 1_555
C1D N1D 1_555 1_555
N1E Fe1 1_555 1_555
C1E N1E 1_555 1_555
N2A Fe1 1_555 1_555
C2A N2A 1_555 1_555
C3A C2A 1_555 1_555
C4A C3A 1_555 1_555
C5A C4A 1_555 1_555
C6A N2A 1_555 1_555
C7A C4A 1_555 1_555
C1A_2 Ni1 1_555 1_555
C1D_2 Ni1 1_555 1_555
C1E_2 Ni1 1_555 1_555
Ni1_2 C1A 1_555 1_555
Ni1_3 C1D 1_555 1_555
Ni1_4 C1E 1_555 1_555
C5 C6 1_555 1_555
C5A C6A 1_555 1_555

#END
