
#######################################################################
#
#                 Cambridge Crystallographic Data Centre
#                                CCDC 
#
#######################################################################
#
# If this CIF has been generated from an entry in the Cambridge 
# Structural Database, then it will include bibliographic, chemical, 
# crystal, experimental, refinement or atomic coordinate data resulting 
# from the CCDC's data processing and validation procedures.
#
#######################################################################

data_XISPEW01
_symmetry_cell_setting           triclinic
_symmetry_space_group_name_H-M   'P -1'
_symmetry_Int_Tables_number      2
_space_group_name_Hall           '-P 1'
loop_
_symmetry_equiv_pos_site_id
_symmetry_equiv_pos_as_xyz
1 x,y,z
2 -x,-y,-z
_cell_length_a                   7.3635(2)
_cell_length_b                   14.1112(4)
_cell_length_c                   16.3906(5)
_cell_angle_alpha                74.663(3)
_cell_angle_beta                 82.349(2)
_cell_angle_gamma                89.878(2)
_cell_volume                     1626.86
loop_
_atom_site_label
_atom_site_type_symbol
_atom_site_fract_x
_atom_site_fract_y
_atom_site_fract_z
Pt1 Pt 0.491722(10) 0.228367(6) 0.034498(5)
Fe1 Fe 0.0000 0.5000 0.0000
Fe2 Fe 0.0000 0.0000 0.0000
N1 N 0.0213(3) 0.09424(14) -0.11615(12)
N2 N 0.1789(3) 0.08126(14) 0.02915(12)
N3 N 0.7992(3) 0.38447(15) 0.02452(14)
N4 N 0.2108(3) 0.39621(15) 0.00416(14)
N5 N -0.0054(3) 0.48017(16) -0.86020(13)
N6 N 0.7986(3) 0.07500(14) 0.03587(12)
C1 C 0.0421(4) 0.06127(19) -0.18635(16)
H1 H 0.0528 -0.0059 -0.1798
C2 C 0.0485(4) 0.1221(2) -0.26765(17)
H2 H 0.0638 0.0961 -0.3146
C3 C 0.0318(4) 0.2225(2) -0.27904(16)
C4 C 0.0141(4) 0.2568(2) -0.20700(17)
H3 H 0.0051 0.3238 -0.2122
C5 C 0.0097(3) 0.19184(18) -0.12746(15)
H4 H -0.0018 0.2164 -0.0798
C6 C 0.0288(4) 0.2863(2) -0.36299(18)
C7 C 0.0210(5) 0.3319(2) -0.43472(19)
C8 C 0.2942(3) 0.13261(16) 0.03515(14)
C9 C 0.6861(3) 0.32595(17) 0.02987(15)
C10 C 0.3132(3) 0.33441(16) 0.01620(15)
C11 C 0.6802(3) 0.12674(16) 0.04247(14)
C12 C 0.1454(4) 0.4927(2) -0.82693(18)
H5 H 0.2523 0.5160 -0.8640
C13 C 0.1512(5) 0.4729(2) -0.74052(19)
H6 H 0.2594 0.4835 -0.7203
C14 C -0.0060(5) 0.4371(2) -0.68387(18)
C15 C -0.1638(5) 0.4248(3) -0.71785(19)
H7 H -0.2726 0.4017 -0.6822
C16 C -0.1572(4) 0.4474(2) -0.80556(18)
H8 H -0.2643 0.4393 -0.8277
C17 C -0.0016(6) 0.4086(2) -0.59310(19)
C18 C 0.0084(5) 0.3769(2) -0.51928(19)
Pt1A Pt -0.491722(10) -0.228367(6) -0.034498(5)
N1A N -0.0213(3) -0.09424(14) 0.11615(12)
N2A N -0.1789(3) -0.08126(14) -0.02915(12)
N3A N -0.7992(3) -0.38447(15) -0.02452(14)
N4A N -0.2108(3) -0.39621(15) -0.00416(14)
N5A N 0.0054(3) -0.48017(16) 0.86020(13)
N6A N -0.7986(3) -0.07500(14) -0.03587(12)
C1A C -0.0421(4) -0.06127(19) 0.18635(16)
H1A H -0.0528 0.0059 0.1798
C2A C -0.0485(4) -0.1221(2) 0.26765(17)
H2A H -0.0638 -0.0961 0.3146
C3A C -0.0318(4) -0.2225(2) 0.27904(16)
C4A C -0.0141(4) -0.2568(2) 0.20700(17)
H3A H -0.0051 -0.3238 0.2122
C5A C -0.0097(3) -0.19184(18) 0.12746(15)
H4A H 0.0018 -0.2164 0.0798
C6A C -0.0288(4) -0.2863(2) 0.36299(18)
C7A C -0.0210(5) -0.3319(2) 0.43472(19)
C8A C -0.2942(3) -0.13261(16) -0.03515(14)
C9A C -0.6861(3) -0.32595(17) -0.02987(15)
C10A C -0.3132(3) -0.33441(16) -0.01620(15)
C11A C -0.6802(3) -0.12674(16) -0.04247(14)
C12A C -0.1454(4) -0.4927(2) 0.82693(18)
H5A H -0.2523 -0.5160 0.8640
C13A C -0.1512(5) -0.4729(2) 0.74052(19)
H6A H -0.2594 -0.4835 0.7203
C14A C 0.0060(5) -0.4371(2) 0.68387(18)
C15A C 0.1638(5) -0.4248(3) 0.71785(19)
H7A H 0.2726 -0.4017 0.6822
C16A C 0.1572(4) -0.4474(2) 0.80556(18)
H8A H 0.2643 -0.4393 0.8277
C17A C 0.0016(6) -0.4086(2) 0.59310(19)
C18A C -0.0084(5) -0.3769(2) 0.51928(19)
Fe1_2 Fe -1.0000 -0.5000 0.0000
Fe1_3 Fe 0.0000 -0.5000 0.0000
Fe1_4 Fe 0.0000 -0.5000 1.0000
Fe1_5 Fe 0.0000 0.5000 -1.0000
Fe1_6 Fe 1.0000 0.5000 0.0000
Fe2_2 Fe -1.0000 0.0000 0.0000
Fe2_3 Fe 1.0000 0.0000 0.0000
N3_2 N -0.2008(3) 0.38447(15) 0.02452(14)
N3A_2 N 0.2008(3) 0.61553(15) -0.02452(14)
N4A_2 N -0.2108(3) 0.60379(15) -0.00416(14)
N5_2 N -0.0054(3) 0.48017(16) 0.13980(13)
N5A_2 N 0.0054(3) 0.51983(16) -0.13980(13)
N6_2 N -0.2014(3) 0.07500(14) 0.03587(12)
N6A_2 N 0.2014(3) -0.07500(14) -0.03587(12)
C19 C 0.0318(5) 0.1487(3) 0.3843(2)
C20 C 0.0858(6) 0.1289(3) 0.4668(2)
H9 H 0.0051 0.0950 0.5141
C21 C 0.2531(6) 0.1586(4) 0.4776(3)
H10 H 0.2869 0.1451 0.5321
C22 C 0.3747(7) 0.2091(4) 0.4076(3)
H11 H 0.4893 0.2292 0.4161
C23 C 0.3314(6) 0.2298(3) 0.3278(3)
H12 H 0.4161 0.2635 0.2821
C24 C 0.1550(5) 0.2001(3) 0.3128(2)
C25 C 0.1039(7) 0.2197(3) 0.2316(2)
H13 H 0.1849 0.2541 0.1846
C26 C -0.0606(8) 0.1897(3) 0.2205(3)
H14 H -0.0921 0.2035 0.1655
C27 C -0.1870(7) 0.1377(4) 0.2895(4)
H15 H -0.3004 0.1171 0.2802
C28 C -0.1423(6) 0.1173(3) 0.3716(3)
H16 H -0.2255 0.0834 0.4178
C29 C 0.5634(5) 0.2118(3) 0.6619(2)
C30 C 0.6138(6) 0.1404(3) 0.6189(2)
H17 H 0.6349 0.1585 0.5595
C31 C 0.6326(6) 0.0457(3) 0.6618(3)
H18 H 0.6649 -0.0007 0.6318
C32 C 0.6035(5) 0.0171(3) 0.7511(3)
H19 H 0.6155 -0.0484 0.7801
C33 C 0.5581(5) 0.0837(3) 0.7957(2)
H20 H 0.5408 0.0639 0.8551
C34 C 0.5366(4) 0.1831(3) 0.7529(2)
C35 C 0.4906(5) 0.2537(3) 0.7971(3)
H21 H 0.4749 0.2355 0.8565
C36 C 0.4685(6) 0.3485(4) 0.7546(3)
H22 H 0.4377 0.3945 0.7851
C37 C 0.4916(6) 0.3776(3) 0.6657(3)
H23 H 0.4747 0.4428 0.6373
C38 C 0.5387(6) 0.3112(3) 0.6201(3)
H24 H 0.5548 0.3316 0.5608
loop_
_geom_bond_atom_site_label_1
_geom_bond_atom_site_label_2
_geom_bond_site_symmetry_1
_geom_bond_site_symmetry_2
Pt1 C8 1_555 1_555
Fe1 N4 1_555 1_555
Fe2 N1 1_555 1_555
N1 C1 1_555 1_555
N2 Fe2 1_555 1_555
N3 C9 1_555 1_555
N4 C10 1_555 1_555
N5 C12 1_555 1_555
N6 C11 1_555 1_555
C1 H1 1_555 1_555
C2 C1 1_555 1_555
H2 C2 1_555 1_555
C3 C2 1_555 1_555
C4 C3 1_555 1_555
H3 C4 1_555 1_555
C5 N1 1_555 1_555
H4 C5 1_555 1_555
C6 C3 1_555 1_555
C7 C6 1_555 1_555
C8 N2 1_555 1_555
C9 Pt1 1_555 1_555
C10 Pt1 1_555 1_555
C11 Pt1 1_555 1_555
C12 H5 1_555 1_555
C13 C12 1_555 1_555
H6 C13 1_555 1_555
C14 C13 1_555 1_555
C15 C14 1_555 1_555
H7 C15 1_555 1_555
C16 N5 1_555 1_555
H8 C16 1_555 1_555
C17 C14 1_555 1_555
C18 C7 1_555 1_555
C19 C20 1_555 1_555
C20 H9 1_555 1_555
C21 C20 1_555 1_555
H10 C21 1_555 1_555
C22 C21 1_555 1_555
H11 C22 1_555 1_555
C23 C22 1_555 1_555
H12 C23 1_555 1_555
C24 C19 1_555 1_555
C25 C24 1_555 1_555
H13 C25 1_555 1_555
C26 C25 1_555 1_555
H14 C26 1_555 1_555
C27 C26 1_555 1_555
H15 C27 1_555 1_555
C28 C19 1_555 1_555
H16 C28 1_555 1_555
C29 C30 1_555 1_555
C30 H17 1_555 1_555
C31 C30 1_555 1_555
H18 C31 1_555 1_555
C32 C31 1_555 1_555
H19 C32 1_555 1_555
C33 C32 1_555 1_555
H20 C33 1_555 1_555
C34 C29 1_555 1_555
C35 C34 1_555 1_555
H21 C35 1_555 1_555
C36 C35 1_555 1_555
H22 C36 1_555 1_555
C37 C36 1_555 1_555
H23 C37 1_555 1_555
C38 C29 1_555 1_555
H24 C38 1_555 1_555
Pt1A C8A 1_555 1_555
N1A Fe2 1_555 1_555
N2A Fe2 1_555 1_555
N3A C9A 1_555 1_555
N4A C10A 1_555 1_555
N5A C12A 1_555 1_555
N6A C11A 1_555 1_555
C1A N1A 1_555 1_555
H1A C1A 1_555 1_555
C2A C1A 1_555 1_555
H2A C2A 1_555 1_555
C3A C2A 1_555 1_555
C4A C3A 1_555 1_555
H3A C4A 1_555 1_555
C5A N1A 1_555 1_555
H4A C5A 1_555 1_555
C6A C3A 1_555 1_555
C7A C6A 1_555 1_555
C8A N2A 1_555 1_555
C9A Pt1A 1_555 1_555
C10A Pt1A 1_555 1_555
C11A Pt1A 1_555 1_555
C12A H5A 1_555 1_555
C13A C12A 1_555 1_555
H6A C13A 1_555 1_555
C14A C13A 1_555 1_555
C15A C14A 1_555 1_555
H7A C15A 1_555 1_555
C16A N5A 1_555 1_555
H8A C16A 1_555 1_555
C17A C14A 1_555 1_555
C18A C7A 1_555 1_555
Fe1_2 N3A 1_555 1_555
Fe1_3 N4A 1_555 1_555
Fe1_4 N5A 1_555 1_555
Fe1_5 N5 1_555 1_555
Fe1_6 N3 1_555 1_555
Fe2_2 N6A 1_555 1_555
Fe2_3 N6 1_555 1_555
N3_2 Fe1 1_555 1_555
N3A_2 Fe1 1_555 1_555
N4A_2 Fe1 1_555 1_555
N5_2 Fe1 1_555 1_555
N5A_2 Fe1 1_555 1_555
N6_2 Fe2 1_555 1_555
N6A_2 Fe2 1_555 1_555
C4 C5 1_555 1_555
C15 C16 1_555 1_555
C17 C18 1_555 1_555
C23 C24 1_555 1_555
C27 C28 1_555 1_555
C33 C34 1_555 1_555
C37 C38 1_555 1_555
C4A C5A 1_555 1_555
C15A C16A 1_555 1_555
C17A C18A 1_555 1_555

#END
