
#######################################################################
#
#                 Cambridge Crystallographic Data Centre
#                                CCDC 
#
#######################################################################
#
# If this CIF has been generated from an entry in the Cambridge 
# Structural Database, then it will include bibliographic, chemical, 
# crystal, experimental, refinement or atomic coordinate data resulting 
# from the CCDC's data processing and validation procedures.
#
#######################################################################

data_XISPUM01
_symmetry_cell_setting           triclinic
_symmetry_space_group_name_H-M   'P -1'
_symmetry_Int_Tables_number      2
_space_group_name_Hall           '-P 1'
loop_
_symmetry_equiv_pos_site_id
_symmetry_equiv_pos_as_xyz
1 x,y,z
2 -x,-y,-z
_cell_length_a                   7.4872(7)
_cell_length_b                   14.3024(7)
_cell_length_c                   15.0203(15)
_cell_angle_alpha                86.393(6)
_cell_angle_beta                 84.502(8)
_cell_angle_gamma                89.936(5)
_cell_volume                     1597.86
loop_
_atom_site_label
_atom_site_type_symbol
_atom_site_fract_x
_atom_site_fract_y
_atom_site_fract_z
N1 N -0.021(8) 0.173(2) 0.801(3)
C1 C -0.024(4) 0.268(2) 0.7918(18)
C2 C -0.045(5) 0.320(2) 0.869(2)
C3 C -0.030(6) 0.414(3) 0.856(3)
C4 C -0.045(5) 0.458(3) 0.768(3)
C5 C -0.034(5) 0.406(3) 0.697(2)
C6 C -0.031(4) 0.313(2) 0.7052(19)
O1 O -0.023(5) 0.121(3) 0.733(2)
O2 O -0.011(7) 0.123(3) 0.876(3)
N2 N 0.406(5) 0.381(7) 0.035(3)
C7 C 0.461(3) 0.347(2) 0.1160(16)
C8 C 0.642(3) 0.346(2) 0.1296(17)
C9 C 0.697(3) 0.308(2) 0.2099(19)
C10 C 0.571(4) 0.270(2) 0.2766(16)
C11 C 0.390(4) 0.272(2) 0.2630(17)
C12 C 0.335(3) 0.310(2) 0.183(2)
O3 O 0.246(7) 0.414(3) 0.029(3)
O4 O 0.516(7) 0.390(8) -0.038(2)
Pt1 Pt 0.00681(5) 0.25891(2) 0.46230(3)
Fe1 Fe -0.5000 0.5000 0.5000
Fe2 Fe 0.5000 0.0000 0.5000
N3 N -0.4814(16) 0.5941(8) 0.3779(8)
N4 N -0.2834(17) 0.4147(8) 0.4436(8)
N5 N -0.512(2) 1.0007(11) -0.3510(10)
N6 N 0.2953(17) 0.1065(9) 0.4969(8)
N7 N -0.2940(18) 0.1054(9) 0.4871(8)
N8 N 0.3063(16) 0.4133(8) 0.4484(7)
C13 C -0.468(2) 0.5527(12) 0.2924(11)
C14 C -0.465(3) 0.6134(14) 0.2181(13)
C15 C -0.475(3) 0.7101(15) 0.2210(13)
C16 C -0.476(3) 0.7470(14) 0.3035(13)
C17 C -0.483(2) 0.6868(11) 0.3798(10)
C18 C -0.472(4) 0.766(2) 0.1419(19)
C19 C -0.486(4) 0.8148(19) 0.0709(17)
C20 C -0.503(4) 0.868(2) -0.0036(19)
C21 C -0.1775(16) 0.3573(8) 0.4456(7)
C22 C -0.362(3) 0.9908(15) -0.3111(14)
C23 C -0.364(3) 0.9662(17) -0.2195(16)
C24 C -0.513(4) 0.9520(18) -0.1690(17)
C25 C -0.663(3) 0.9594(17) -0.2042(15)
C26 C -0.670(3) 0.9915(17) -0.2992(16)
C27 C -0.507(5) 0.911(3) -0.075(2)
C28 C 0.1926(17) 0.1626(9) 0.4839(8)
C29 C -0.1865(16) 0.1625(9) 0.4796(7)
C30 C 0.1979(17) 0.3571(9) 0.4485(8)
Pt1A Pt -1.00681(5) 0.74109(2) 0.53770(3)
N3A N -0.5186(16) 0.4059(8) 0.6221(8)
N4A N -0.7166(17) 0.5853(8) 0.5564(8)
N5A N -0.488(2) -0.0007(11) 1.3510(10)
N6A N -1.2953(17) 0.8935(9) 0.5031(8)
N7A N -0.7060(18) 0.8946(9) 0.5129(8)
N8A N -1.3063(16) 0.5867(8) 0.5516(7)
C13A C -0.532(2) 0.4473(12) 0.7076(11)
C14A C -0.535(3) 0.3866(14) 0.7819(13)
C15A C -0.525(3) 0.2899(15) 0.7790(13)
C16A C -0.524(3) 0.2530(14) 0.6965(13)
C17A C -0.517(2) 0.3132(11) 0.6202(10)
C18A C -0.528(4) 0.234(2) 0.8581(19)
C19A C -0.514(4) 0.1852(19) 0.9291(17)
C20A C -0.497(4) 0.132(2) 1.0036(19)
C21A C -0.8225(16) 0.6427(8) 0.5544(7)
C22A C -0.638(3) 0.0092(15) 1.3111(14)
C23A C -0.636(3) 0.0338(17) 1.2195(16)
C24A C -0.487(4) 0.0480(18) 1.1690(17)
C25A C -0.337(3) 0.0406(17) 1.2042(15)
C26A C -0.330(3) 0.0085(17) 1.2992(16)
C27A C -0.493(5) 0.089(3) 1.075(2)
C28A C -1.1926(17) 0.8374(9) 0.5161(8)
C29A C -0.8135(16) 0.8375(9) 0.5204(7)
C30A C -1.1979(17) 0.6429(9) 0.5515(8)
Fe1_2 Fe -1.5000 0.5000 0.5000
Fe1_3 Fe 0.5000 0.5000 0.5000
Fe2_2 Fe -1.5000 1.0000 0.5000
Fe2_3 Fe -0.5000 0.0000 0.5000
Fe2_4 Fe -0.5000 0.0000 1.5000
Fe2_5 Fe -0.5000 1.0000 -0.5000
Fe2_6 Fe -0.5000 1.0000 0.5000
N5_2 N 0.488(2) 0.0007(11) 0.6490(10)
N5A_2 N 0.512(2) -0.0007(11) 0.3510(10)
N6A_2 N 0.7047(17) -0.1065(9) 0.5031(8)
N7_2 N 0.7060(18) 0.1054(9) 0.4871(8)
N7A_2 N 0.2940(18) -0.1054(9) 0.5129(8)
N8_2 N -0.6937(16) 0.4133(8) 0.4484(7)
N8A_2 N -0.3063(16) 0.5867(8) 0.5516(7)
loop_
_geom_bond_atom_site_label_1
_geom_bond_atom_site_label_2
_geom_bond_site_symmetry_1
_geom_bond_site_symmetry_2
N1 C1 1_555 1_555
C1 C2 1_555 1_555
C2 C3 1_555 1_555
C3 C4 1_555 1_555
C4 C5 1_555 1_555
C5 C6 1_555 1_555
C6 C1 1_555 1_555
O1 N1 1_555 1_555
O2 N1 1_555 1_555
N2 C7 1_555 1_555
C7 C8 1_555 1_555
C8 C9 1_555 1_555
C9 C10 1_555 1_555
C10 C11 1_555 1_555
C11 C12 1_555 1_555
C12 C7 1_555 1_555
O3 N2 1_555 1_555
O4 N2 1_555 1_555
Pt1 C21 1_555 1_555
Fe1 N3 1_555 1_555
Fe2 N6 1_555 1_555
N3 C13 1_555 1_555
N4 Fe1 1_555 1_555
N5 C22 1_555 1_555
N6 C28 1_555 1_555
N7 C29 1_555 1_555
N8 C30 1_555 1_555
C13 C14 1_555 1_555
C14 C15 1_555 1_555
C15 C16 1_555 1_555
C16 C17 1_555 1_555
C17 N3 1_555 1_555
C18 C15 1_555 1_555
C19 C18 1_555 1_555
C20 C19 1_555 1_555
C21 N4 1_555 1_555
C22 C23 1_555 1_555
C23 C24 1_555 1_555
C24 C25 1_555 1_555
C25 C26 1_555 1_555
C26 N5 1_555 1_555
C27 C20 1_555 1_555
C28 Pt1 1_555 1_555
C29 Pt1 1_555 1_555
C30 Pt1 1_555 1_555
Pt1A C21A 1_555 1_555
N3A Fe1 1_555 1_555
N4A Fe1 1_555 1_555
N5A C22A 1_555 1_555
N6A C28A 1_555 1_555
N7A C29A 1_555 1_555
N8A C30A 1_555 1_555
C13A N3A 1_555 1_555
C14A C13A 1_555 1_555
C15A C14A 1_555 1_555
C16A C15A 1_555 1_555
C17A N3A 1_555 1_555
C18A C15A 1_555 1_555
C19A C18A 1_555 1_555
C20A C19A 1_555 1_555
C21A N4A 1_555 1_555
C22A C23A 1_555 1_555
C23A C24A 1_555 1_555
C24A C25A 1_555 1_555
C25A C26A 1_555 1_555
C26A N5A 1_555 1_555
C27A C20A 1_555 1_555
C28A Pt1A 1_555 1_555
C29A Pt1A 1_555 1_555
C30A Pt1A 1_555 1_555
Fe1_2 N8A 1_555 1_555
Fe1_3 N8 1_555 1_555
Fe2_2 N6A 1_555 1_555
Fe2_3 N7 1_555 1_555
Fe2_4 N5A 1_555 1_555
Fe2_5 N5 1_555 1_555
Fe2_6 N7A 1_555 1_555
N5_2 Fe2 1_555 1_555
N5A_2 Fe2 1_555 1_555
N6A_2 Fe2 1_555 1_555
N7_2 Fe2 1_555 1_555
N7A_2 Fe2 1_555 1_555
N8_2 Fe1 1_555 1_555
N8A_2 Fe1 1_555 1_555
C24 C27 1_555 1_555
C16A C17A 1_555 1_555
C24A C27A 1_555 1_555

#END
