
#######################################################################
#
#                 Cambridge Crystallographic Data Centre
#                                CCDC 
#
#######################################################################
#
# If this CIF has been generated from an entry in the Cambridge 
# Structural Database, then it will include bibliographic, chemical, 
# crystal, experimental, refinement or atomic coordinate data resulting 
# from the CCDC's data processing and validation procedures.
#
#######################################################################

data_XISPEW
_symmetry_cell_setting           triclinic
_symmetry_space_group_name_H-M   'P -1'
_symmetry_Int_Tables_number      2
_space_group_name_Hall           '-P 1'
loop_
_symmetry_equiv_pos_site_id
_symmetry_equiv_pos_as_xyz
1 x,y,z
2 -x,-y,-z
_cell_length_a                   7.2452(2)
_cell_length_b                   13.9706(5)
_cell_length_c                   16.3779(7)
_cell_angle_alpha                73.531(3)
_cell_angle_beta                 83.678(3)
_cell_angle_gamma                89.998(3)
_cell_volume                     1579.24
loop_
_atom_site_label
_atom_site_type_symbol
_atom_site_fract_x
_atom_site_fract_y
_atom_site_fract_z
Pt1 Pt 0.49309(2) 0.237530(12) 0.032574(11)
Fe1 Fe 0.0000 0.5000 0.0000
Fe2 Fe 0.0000 0.0000 0.0000
N1 N 0.0223(6) 0.0943(4) -0.1184(3)
N2 N 0.1813(6) 0.0837(3) 0.0281(3)
N3 N 0.8116(6) 0.3952(3) 0.0199(3)
N4 N 0.1934(6) 0.4030(3) 0.0081(3)
N5 N -0.0075(7) 0.4804(4) -0.8741(3)
N6 N 0.7990(6) 0.0794(3) 0.0317(3)
C1 C 0.0450(8) 0.0605(4) -0.1876(4)
H1 H 0.0544 -0.0079 -0.1794
C2 C 0.0552(9) 0.1229(5) -0.2708(4)
H2 H 0.0738 0.0968 -0.3173
C3 C 0.0369(10) 0.2257(5) -0.2836(4)
C4 C 0.0172(10) 0.2622(5) -0.2129(4)
H3 H 0.0081 0.3304 -0.2199
C5 C 0.0114(9) 0.1957(4) -0.1315(4)
H4 H -0.0003 0.2206 -0.0842
C6 C 0.0334(10) 0.2899(6) -0.3693(5)
C7 C 0.0239(11) 0.3361(6) -0.4430(5)
C8 C 0.2953(7) 0.1390(4) 0.0334(3)
C9 C 0.6939(7) 0.3368(4) 0.0266(3)
C10 C 0.3041(7) 0.3427(4) 0.0183(4)
C11 C 0.6842(7) 0.1348(4) 0.0376(4)
C12 C 0.1507(10) 0.4846(5) -0.8377(4)
H5 H 0.2618 0.5011 -0.8735
C13 C 0.1564(11) 0.4658(5) -0.7502(5)
H6 H 0.2678 0.4718 -0.7284
C14 C -0.0079(11) 0.4377(5) -0.6956(5)
C15 C -0.1727(11) 0.4332(5) -0.7314(5)
H7 H -0.2848 0.4155 -0.6965
C16 C -0.1670(9) 0.4554(5) -0.8204(4)
H8 H -0.2776 0.4531 -0.8438
C17 C -0.0036(12) 0.4101(6) -0.6038(5)
C18 C 0.0111(12) 0.3792(6) -0.5286(5)
Pt1A Pt -0.49309(2) -0.237530(12) -0.032574(11)
N1A N -0.0223(6) -0.0943(4) 0.1184(3)
N2A N -0.1813(6) -0.0837(3) -0.0281(3)
N3A N -0.8116(6) -0.3952(3) -0.0199(3)
N4A N -0.1934(6) -0.4030(3) -0.0081(3)
N5A N 0.0075(7) -0.4804(4) 0.8741(3)
N6A N -0.7990(6) -0.0794(3) -0.0317(3)
C1A C -0.0450(8) -0.0605(4) 0.1876(4)
H1A H -0.0544 0.0079 0.1794
C2A C -0.0552(9) -0.1229(5) 0.2708(4)
H2A H -0.0738 -0.0968 0.3173
C3A C -0.0369(10) -0.2257(5) 0.2836(4)
C4A C -0.0172(10) -0.2622(5) 0.2129(4)
H3A H -0.0081 -0.3304 0.2199
C5A C -0.0114(9) -0.1957(4) 0.1315(4)
H4A H 0.0003 -0.2206 0.0842
C6A C -0.0334(10) -0.2899(6) 0.3693(5)
C7A C -0.0239(11) -0.3361(6) 0.4430(5)
C8A C -0.2953(7) -0.1390(4) -0.0334(3)
C9A C -0.6939(7) -0.3368(4) -0.0266(3)
C10A C -0.3041(7) -0.3427(4) -0.0183(4)
C11A C -0.6842(7) -0.1348(4) -0.0376(4)
C12A C -0.1507(10) -0.4846(5) 0.8377(4)
H5A H -0.2618 -0.5011 0.8735
C13A C -0.1564(11) -0.4658(5) 0.7502(5)
H6A H -0.2678 -0.4718 0.7284
C14A C 0.0079(11) -0.4377(5) 0.6956(5)
C15A C 0.1727(11) -0.4332(5) 0.7314(5)
H7A H 0.2848 -0.4155 0.6965
C16A C 0.1670(9) -0.4554(5) 0.8204(4)
H8A H 0.2776 -0.4531 0.8438
C17A C 0.0036(12) -0.4101(6) 0.6038(5)
C18A C -0.0111(12) -0.3792(6) 0.5286(5)
Fe1_2 Fe -1.0000 -0.5000 0.0000
Fe1_3 Fe 0.0000 -0.5000 0.0000
Fe1_4 Fe 0.0000 -0.5000 1.0000
Fe1_5 Fe 0.0000 0.5000 -1.0000
Fe1_6 Fe 1.0000 0.5000 0.0000
Fe2_2 Fe -1.0000 0.0000 0.0000
Fe2_3 Fe 1.0000 0.0000 0.0000
N3_2 N -0.1884(6) 0.3952(3) 0.0199(3)
N3A_2 N 0.1884(6) 0.6048(3) -0.0199(3)
N4A_2 N -0.1934(6) 0.5970(3) -0.0081(3)
N5_2 N -0.0075(7) 0.4804(4) 0.1259(3)
N5A_2 N 0.0075(7) 0.5196(4) -0.1259(3)
N6_2 N -0.2010(6) 0.0794(3) 0.0317(3)
N6A_2 N 0.2010(6) -0.0794(3) -0.0317(3)
C19 C 0.0315(11) 0.1485(6) 0.3844(5)
C20 C 0.0879(13) 0.1290(6) 0.4681(5)
H9 H 0.0059 0.0955 0.5154
C21 C 0.2595(13) 0.1585(7) 0.4801(5)
H10 H 0.2937 0.1444 0.5353
C22 C 0.3849(12) 0.2099(6) 0.4100(6)
H11 H 0.5012 0.2304 0.4190
C23 C 0.3378(12) 0.2303(6) 0.3284(6)
H12 H 0.4228 0.2639 0.2824
C24 C 0.1613(10) 0.2007(5) 0.3135(5)
C25 C 0.1066(14) 0.2202(6) 0.2298(5)
H13 H 0.1891 0.2541 0.1828
C26 C -0.0631(13) 0.1904(6) 0.2168(5)
H14 H -0.0950 0.2036 0.1613
C27 C -0.1920(13) 0.1393(7) 0.2871(7)
H15 H -0.3082 0.1190 0.2779
C28 C -0.1446(12) 0.1201(7) 0.3689(6)
H16 H -0.2306 0.0877 0.4150
C29 C 0.5724(9) 0.2129(5) 0.6627(4)
C30 C 0.6197(12) 0.1416(6) 0.6177(5)
H17 H 0.6383 0.1622 0.5581
C31 C 0.6386(12) 0.0432(7) 0.6600(6)
H18 H 0.6725 -0.0020 0.6293
C32 C 0.6062(12) 0.0101(6) 0.7508(6)
H19 H 0.6169 -0.0570 0.7794
C33 C 0.5590(10) 0.0771(6) 0.7968(5)
H20 H 0.5375 0.0546 0.8563
C34 C 0.5430(10) 0.1798(6) 0.7542(5)
C35 C 0.4949(12) 0.2503(7) 0.7996(6)
H21 H 0.4751 0.2297 0.8592
C36 C 0.4772(13) 0.3492(8) 0.7563(7)
H22 H 0.4483 0.3953 0.7867
C37 C 0.5027(13) 0.3811(7) 0.6654(7)
H23 H 0.4852 0.4476 0.6367
C38 C 0.5525(13) 0.3159(6) 0.6196(6)
H24 H 0.5736 0.3385 0.5602
loop_
_geom_bond_atom_site_label_1
_geom_bond_atom_site_label_2
_geom_bond_site_symmetry_1
_geom_bond_site_symmetry_2
Pt1 C8 1_555 1_555
Fe1 N4 1_555 1_555
Fe2 N1 1_555 1_555
N1 C1 1_555 1_555
N2 Fe2 1_555 1_555
N3 C9 1_555 1_555
N4 C10 1_555 1_555
N5 C12 1_555 1_555
N6 C11 1_555 1_555
C1 H1 1_555 1_555
C2 C1 1_555 1_555
H2 C2 1_555 1_555
C3 C2 1_555 1_555
C4 C3 1_555 1_555
H3 C4 1_555 1_555
C5 N1 1_555 1_555
H4 C5 1_555 1_555
C6 C3 1_555 1_555
C7 C6 1_555 1_555
C8 N2 1_555 1_555
C9 Pt1 1_555 1_555
C10 Pt1 1_555 1_555
C11 Pt1 1_555 1_555
C12 H5 1_555 1_555
C13 C12 1_555 1_555
H6 C13 1_555 1_555
C14 C13 1_555 1_555
C15 C14 1_555 1_555
H7 C15 1_555 1_555
C16 N5 1_555 1_555
H8 C16 1_555 1_555
C17 C14 1_555 1_555
C18 C7 1_555 1_555
C19 C20 1_555 1_555
C20 H9 1_555 1_555
C21 C20 1_555 1_555
H10 C21 1_555 1_555
C22 C21 1_555 1_555
H11 C22 1_555 1_555
C23 C22 1_555 1_555
H12 C23 1_555 1_555
C24 C19 1_555 1_555
C25 C24 1_555 1_555
H13 C25 1_555 1_555
C26 C25 1_555 1_555
H14 C26 1_555 1_555
C27 C26 1_555 1_555
H15 C27 1_555 1_555
C28 C19 1_555 1_555
H16 C28 1_555 1_555
C29 C30 1_555 1_555
C30 H17 1_555 1_555
C31 C30 1_555 1_555
H18 C31 1_555 1_555
C32 C31 1_555 1_555
H19 C32 1_555 1_555
C33 C32 1_555 1_555
H20 C33 1_555 1_555
C34 C29 1_555 1_555
C35 C34 1_555 1_555
H21 C35 1_555 1_555
C36 C35 1_555 1_555
H22 C36 1_555 1_555
C37 C36 1_555 1_555
H23 C37 1_555 1_555
C38 C29 1_555 1_555
H24 C38 1_555 1_555
Pt1A C8A 1_555 1_555
N1A Fe2 1_555 1_555
N2A Fe2 1_555 1_555
N3A C9A 1_555 1_555
N4A C10A 1_555 1_555
N5A C12A 1_555 1_555
N6A C11A 1_555 1_555
C1A N1A 1_555 1_555
H1A C1A 1_555 1_555
C2A C1A 1_555 1_555
H2A C2A 1_555 1_555
C3A C2A 1_555 1_555
C4A C3A 1_555 1_555
H3A C4A 1_555 1_555
C5A N1A 1_555 1_555
H4A C5A 1_555 1_555
C6A C3A 1_555 1_555
C7A C6A 1_555 1_555
C8A N2A 1_555 1_555
C9A Pt1A 1_555 1_555
C10A Pt1A 1_555 1_555
C11A Pt1A 1_555 1_555
C12A H5A 1_555 1_555
C13A C12A 1_555 1_555
H6A C13A 1_555 1_555
C14A C13A 1_555 1_555
C15A C14A 1_555 1_555
H7A C15A 1_555 1_555
C16A N5A 1_555 1_555
H8A C16A 1_555 1_555
C17A C14A 1_555 1_555
C18A C7A 1_555 1_555
Fe1_2 N3A 1_555 1_555
Fe1_3 N4A 1_555 1_555
Fe1_4 N5A 1_555 1_555
Fe1_5 N5 1_555 1_555
Fe1_6 N3 1_555 1_555
Fe2_2 N6A 1_555 1_555
Fe2_3 N6 1_555 1_555
N3_2 Fe1 1_555 1_555
N3A_2 Fe1 1_555 1_555
N4A_2 Fe1 1_555 1_555
N5_2 Fe1 1_555 1_555
N5A_2 Fe1 1_555 1_555
N6_2 Fe2 1_555 1_555
N6A_2 Fe2 1_555 1_555
C4 C5 1_555 1_555
C15 C16 1_555 1_555
C17 C18 1_555 1_555
C23 C24 1_555 1_555
C27 C28 1_555 1_555
C33 C34 1_555 1_555
C37 C38 1_555 1_555
C4A C5A 1_555 1_555
C15A C16A 1_555 1_555
C17A C18A 1_555 1_555

#END
