
#######################################################################
#
#                 Cambridge Crystallographic Data Centre
#                                CCDC 
#
#######################################################################
#
# If this CIF has been generated from an entry in the Cambridge 
# Structural Database, then it will include bibliographic, chemical, 
# crystal, experimental, refinement or atomic coordinate data resulting 
# from the CCDC's data processing and validation procedures.
#
#######################################################################

data_XISVAY
_symmetry_cell_setting           monoclinic
_symmetry_space_group_name_H-M   'P 21/c'
_symmetry_Int_Tables_number      14
_space_group_name_Hall           '-P 2ybc'
loop_
_symmetry_equiv_pos_site_id
_symmetry_equiv_pos_as_xyz
1 x,y,z
2 -x,1/2+y,1/2-z
3 -x,-y,-z
4 x,1/2-y,1/2+z
_cell_length_a                   12.604(6)
_cell_length_b                   14.937(14)
_cell_length_c                   6.426(3)
_cell_angle_alpha                90
_cell_angle_beta                 93.660(7)
_cell_angle_gamma                90
_cell_volume                     1207.33
loop_
_atom_site_label
_atom_site_type_symbol
_atom_site_fract_x
_atom_site_fract_y
_atom_site_fract_z
Cu1 Cu 0.29746(2) 0.34008(2) 0.15774(5)
N1 N 0.45725(18) 0.34452(14) 0.1674(3)
C1 C 0.5260(2) 0.27825(19) 0.1424(4)
H1 H 0.5009 0.2197 0.1087
C2 C 0.6345(2) 0.2949(2) 0.1657(4)
H2 H 0.6822 0.2467 0.1474
N2 N 0.67475(19) 0.37556(17) 0.2126(4)
C3 C 0.6041(2) 0.44080(19) 0.2370(4)
H3 H 0.6295 0.4993 0.2700
C4 C 0.4954(2) 0.42666(18) 0.2163(4)
C5 C 0.4131(2) 0.49787(18) 0.2490(4)
O1 O 0.43983(16) 0.57644(13) 0.2873(3)
N3 N 0.31617(18) 0.46315(15) 0.2325(4)
C6 C 0.2223(2) 0.51765(18) 0.2535(4)
H4 H 0.2184 0.5653 0.1461
H5 H 0.2253 0.5463 0.3926
C7 C 0.1259(2) 0.45788(18) 0.2268(4)
C8 C 0.0235(2) 0.48872(19) 0.2541(4)
H6 H 0.0121 0.5495 0.2897
C9 C -0.0613(2) 0.4304(2) 0.2292(4)
H7 H -0.1314 0.4504 0.2499
C10 C -0.0430(2) 0.3422(2) 0.1735(5)
H8 H -0.1002 0.3010 0.1546
C11 C 0.0599(2) 0.3157(2) 0.1461(4)
H9 H 0.0727 0.2555 0.1075
N4 N 0.14300(18) 0.37220(16) 0.1723(3)
N5 N 0.28520(18) 0.22156(15) 0.0227(4)
N6 N 0.24722(19) 0.16177(15) 0.1189(4)
N7 N 0.2095(2) 0.10271(16) 0.2035(4)
Cu1C Cu 0.29746(2) 0.15992(2) -0.34226(5)
N5C N 0.28520(18) 0.27844(15) 0.5227(4)
loop_
_geom_bond_atom_site_label_1
_geom_bond_atom_site_label_2
_geom_bond_site_symmetry_1
_geom_bond_site_symmetry_2
Cu1 N1 1_555 1_555
N1 C1 1_555 1_555
C1 H1 1_555 1_555
C2 C1 1_555 1_555
H2 C2 1_555 1_555
N2 C2 1_555 1_555
C3 N2 1_555 1_555
H3 C3 1_555 1_555
C4 N1 1_555 1_555
C5 C4 1_555 1_555
O1 C5 1_555 1_555
N3 Cu1 1_555 1_555
C6 N3 1_555 1_555
H4 C6 1_555 1_555
H5 C6 1_555 1_555
C7 C6 1_555 1_555
C8 C7 1_555 1_555
H6 C8 1_555 1_555
C9 C8 1_555 1_555
H7 C9 1_555 1_555
C10 C9 1_555 1_555
H8 C10 1_555 1_555
C11 C10 1_555 1_555
H9 C11 1_555 1_555
N4 Cu1 1_555 1_555
N5 Cu1 1_555 1_555
N6 N5 1_555 1_555
N7 N6 1_555 1_555
Cu1C N5 1_555 1_555
N5C Cu1 1_555 1_555
C3 C4 1_555 1_555
C5 N3 1_555 1_555
C7 N4 1_555 1_555
C11 N4 1_555 1_555

#END
