
#######################################################################
#
#                 Cambridge Crystallographic Data Centre
#                                CCDC 
#
#######################################################################
#
# If this CIF has been generated from an entry in the Cambridge 
# Structural Database, then it will include bibliographic, chemical, 
# crystal, experimental, refinement or atomic coordinate data resulting 
# from the CCDC's data processing and validation procedures.
#
#######################################################################

data_XISVEC
_symmetry_cell_setting           orthorhombic
_symmetry_space_group_name_H-M   'P b c a'
_symmetry_Int_Tables_number      61
_space_group_name_Hall           '-P 2ac 2ab'
loop_
_symmetry_equiv_pos_site_id
_symmetry_equiv_pos_as_xyz
1 x,y,z
2 1/2-x,-y,1/2+z
3 -x,1/2+y,1/2-z
4 1/2+x,1/2-y,-z
5 -x,-y,-z
6 1/2+x,y,1/2-z
7 x,1/2-y,1/2+z
8 1/2-x,1/2+y,z
_cell_length_a                   14.0009(12)
_cell_length_b                   7.9424(6)
_cell_length_c                   22.6840(18)
_cell_angle_alpha                90
_cell_angle_beta                 90
_cell_angle_gamma                90
_cell_volume                     2522.48
loop_
_atom_site_label
_atom_site_type_symbol
_atom_site_fract_x
_atom_site_fract_y
_atom_site_fract_z
Cu1 Cu 0.36079(4) 0.41198(8) 0.37227(3)
N1 N 0.3803(2) 0.3011(5) 0.45035(15)
C1 C 0.3172(3) 0.2188(6) 0.48319(18)
H1 H 0.2517 0.2182 0.4723
C2 C 0.3468(3) 0.1335(6) 0.53354(19)
H2 H 0.3004 0.0759 0.5565
N2 N 0.4382(3) 0.1293(5) 0.55092(16)
C3 C 0.5004(3) 0.2145(6) 0.51768(18)
H3 H 0.5657 0.2168 0.5291
C4 C 0.4728(3) 0.2994(6) 0.46725(19)
C5 C 0.5405(3) 0.3956(6) 0.4274(2)
O1 O 0.6267(2) 0.4028(4) 0.44037(13)
N3 N 0.4951(2) 0.4657(4) 0.38214(15)
C6 C 0.5492(3) 0.5767(6) 0.34335(19)
H4 H 0.5828 0.5091 0.3131
H5 H 0.5977 0.6388 0.3665
C7 C 0.4819(3) 0.7010(6) 0.3135(2)
H6 H 0.4431 0.7583 0.3439
H7 H 0.5201 0.7877 0.2928
C8 C 0.4164(3) 0.6174(5) 0.27001(19)
C9 C 0.4181(3) 0.6611(6) 0.21033(18)
H8 H 0.4619 0.7437 0.1968
C10 C 0.3565(3) 0.5851(6) 0.17090(18)
H9 H 0.3567 0.6162 0.1305
C11 C 0.2947(3) 0.4632(6) 0.19148(19)
H10 H 0.2515 0.4085 0.1655
C12 C 0.2970(3) 0.4222(6) 0.25079(18)
H11 H 0.2548 0.3374 0.2647
N4 N 0.3559(3) 0.4966(4) 0.28962(15)
N5 N 0.2202(2) 0.4137(5) 0.38312(15)
N6 N 0.1759(3) 0.5209(5) 0.35740(15)
N7 N 0.1319(3) 0.6229(5) 0.33241(16)
Cu1G Cu 0.13921(4) 0.91198(8) 0.37227(3)
N7G N 0.3681(3) 0.1229(5) 0.33241(16)
loop_
_geom_bond_atom_site_label_1
_geom_bond_atom_site_label_2
_geom_bond_site_symmetry_1
_geom_bond_site_symmetry_2
Cu1 N1 1_555 1_555
N1 C1 1_555 1_555
C1 H1 1_555 1_555
C2 C1 1_555 1_555
H2 C2 1_555 1_555
N2 C2 1_555 1_555
C3 N2 1_555 1_555
H3 C3 1_555 1_555
C4 N1 1_555 1_555
C5 C4 1_555 1_555
O1 C5 1_555 1_555
N3 Cu1 1_555 1_555
C6 N3 1_555 1_555
H4 C6 1_555 1_555
H5 C6 1_555 1_555
C7 C6 1_555 1_555
H6 C7 1_555 1_555
H7 C7 1_555 1_555
C8 C7 1_555 1_555
C9 C8 1_555 1_555
H8 C9 1_555 1_555
C10 C9 1_555 1_555
H9 C10 1_555 1_555
C11 C10 1_555 1_555
H10 C11 1_555 1_555
C12 C11 1_555 1_555
H11 C12 1_555 1_555
N4 Cu1 1_555 1_555
N5 Cu1 1_555 1_555
N6 N5 1_555 1_555
N7 N6 1_555 1_555
Cu1G N7 1_555 1_555
N7G Cu1 1_555 1_555
C3 C4 1_555 1_555
C5 N3 1_555 1_555
C8 N4 1_555 1_555
C12 N4 1_555 1_555

#END
