
#######################################################################
#
#                 Cambridge Crystallographic Data Centre
#                                CCDC 
#
#######################################################################
#
# If this CIF has been generated from an entry in the Cambridge 
# Structural Database, then it will include bibliographic, chemical, 
# crystal, experimental, refinement or atomic coordinate data resulting 
# from the CCDC's data processing and validation procedures.
#
#######################################################################

data_XISVIG
_symmetry_cell_setting           monoclinic
_symmetry_space_group_name_H-M   'C 2/c'
_symmetry_Int_Tables_number      15
_space_group_name_Hall           '-C 2yn'
loop_
_symmetry_equiv_pos_site_id
_symmetry_equiv_pos_as_xyz
1 x,y,z
2 -x,y,1/2-z
3 1/2+x,1/2+y,z
4 1/2-x,1/2+y,1/2-z
5 -x,-y,-z
6 x,-y,1/2+z
7 1/2-x,1/2-y,-z
8 1/2+x,1/2-y,1/2+z
_cell_length_a                   16.791(6)
_cell_length_b                   7.705(3)
_cell_length_c                   18.714(6)
_cell_angle_alpha                90
_cell_angle_beta                 106.060(9)
_cell_angle_gamma                90
_cell_volume                     2326.63
loop_
_atom_site_label
_atom_site_type_symbol
_atom_site_fract_x
_atom_site_fract_y
_atom_site_fract_z
Cu1 Cu 0.69403(2) 0.15868(4) 0.53763(2)
Cl1 Cl 0.75362(3) 0.45357(7) 0.55574(3)
N1 N 0.57339(11) 0.1881(3) 0.53114(12)
C1 C 0.54854(15) 0.1319(3) 0.58960(15)
H1 H 0.5876 0.0735 0.6287
C2 C 0.46855(16) 0.1550(3) 0.59550(15)
H2 H 0.4529 0.1119 0.6372
C3 C 0.41231(15) 0.2425(3) 0.53908(15)
H3 H 0.3572 0.2611 0.5415
C4 C 0.43731(14) 0.3024(3) 0.47924(15)
H4 H 0.3998 0.3648 0.4405
C5 C 0.51777(14) 0.2708(3) 0.47602(14)
C6 C 0.54911(14) 0.3238(3) 0.41111(14)
H5 H 0.5982 0.3992 0.4295
H6 H 0.5672 0.2185 0.3896
N2 N 0.48837(12) 0.4151(3) 0.35273(12)
H7 H 0.4869(18) 0.526(4) 0.3534(16)
C7 C 0.42982(15) 0.3287(3) 0.30153(15)
O1 O 0.42392(12) 0.1711(2) 0.29728(11)
C8 C 0.37044(14) 0.4423(3) 0.24630(14)
N3 N 0.37658(12) 0.6153(3) 0.25525(12)
C9 C 0.32339(15) 0.7094(3) 0.20363(15)
H8 H 0.3243 0.8322 0.2081
C10 C 0.26671(15) 0.6328(3) 0.14360(15)
H9 H 0.2307 0.7051 0.1077
N4 N 0.26104(12) 0.4616(3) 0.13463(12)
C11 C 0.31261(15) 0.3654(3) 0.18738(14)
H10 H 0.3094 0.2424 0.1842
Cu1F Cu 0.80597(2) 0.34132(4) 0.46237(2)
Cu1G Cu 0.19403(2) 0.34132(4) 0.03763(2)
Cl1F Cl 0.74638(3) 0.04643(7) 0.44426(3)
N4G N 0.76104(12) 0.0384(3) 0.63463(12)
loop_
_geom_bond_atom_site_label_1
_geom_bond_atom_site_label_2
_geom_bond_site_symmetry_1
_geom_bond_site_symmetry_2
Cu1 Cl1 1_555 1_555
Cl1 Cu1F 1_555 1_555
N1 Cu1 1_555 1_555
C1 N1 1_555 1_555
H1 C1 1_555 1_555
C2 C1 1_555 1_555
H2 C2 1_555 1_555
C3 C2 1_555 1_555
H3 C3 1_555 1_555
C4 C3 1_555 1_555
H4 C4 1_555 1_555
C5 N1 1_555 1_555
C6 C5 1_555 1_555
H5 C6 1_555 1_555
H6 C6 1_555 1_555
N2 C6 1_555 1_555
H7 N2 1_555 1_555
C7 N2 1_555 1_555
O1 C7 1_555 1_555
C8 C7 1_555 1_555
N3 C8 1_555 1_555
C9 N3 1_555 1_555
H8 C9 1_555 1_555
C10 C9 1_555 1_555
H9 C10 1_555 1_555
N4 C10 1_555 1_555
C11 C8 1_555 1_555
H10 C11 1_555 1_555
Cu1F Cl1F 1_555 1_555
Cu1G N4 1_555 1_555
Cl1F Cu1 1_555 1_555
N4G Cu1 1_555 1_555
C4 C5 1_555 1_555
N4 C11 1_555 1_555

#END
