
#######################################################################
#
#                 Cambridge Crystallographic Data Centre
#                                CCDC 
#
#######################################################################
#
# If this CIF has been generated from an entry in the Cambridge 
# Structural Database, then it will include bibliographic, chemical, 
# crystal, experimental, refinement or atomic coordinate data resulting 
# from the CCDC's data processing and validation procedures.
#
#######################################################################

data_XISXAY
_symmetry_cell_setting           orthorhombic
_symmetry_space_group_name_H-M   'P n n n'
_symmetry_Int_Tables_number      48
_space_group_name_Hall           '-P 2ab 2bc'
loop_
_symmetry_equiv_pos_site_id
_symmetry_equiv_pos_as_xyz
1 x,y,z
2 1/2+x,1/2+y,-z
3 -x,1/2+y,1/2+z
4 1/2+x,-y,1/2+z
5 -x,-y,-z
6 1/2-x,1/2-y,z
7 x,1/2-y,1/2-z
8 1/2-x,y,1/2-z
_cell_length_a                   9.512(2)
_cell_length_b                   25.013(5)
_cell_length_c                   5.837(2)
_cell_angle_alpha                90
_cell_angle_beta                 90
_cell_angle_gamma                90
_cell_volume                     1388.76
loop_
_atom_site_label
_atom_site_type_symbol
_atom_site_fract_x
_atom_site_fract_y
_atom_site_fract_z
N2 N -0.2500 0.2500 0.2500
O1 O -0.2500 0.2500 0.0328(8)
O2 O -0.2227(14) 0.20797(19) 0.1523(11)
O1F O -0.2500 0.2500 0.4672(8)
O2F O -0.2227(14) 0.29203(19) 0.3477(11)
O2E O -0.2773(14) 0.29203(19) 0.1523(11)
O2G O -0.2773(14) 0.20797(19) 0.3477(11)
Ag1 Ag 0.2500 0.2500 0.2500
N1 N 0.1109(6) 0.2040(2) 0.0109(10)
C1 C 0.0375(7) 0.1862(2) -0.1224(10)
C2 C -0.0440(7) 0.0187(2) -0.9273(10)
H1 H -0.1095 -0.0024 -0.8376
H2 H -0.0987 0.0415 -1.0280
C3 C -0.0490(7) 0.0909(2) -0.6147(10)
H3 H -0.1013 0.1153 -0.7119
H4 H -0.1163 0.0696 -0.5296
C4 C 0.0401(6) 0.1230(2) -0.4474(10)
H5 H 0.0933 0.0985 -0.3520
H6 H 0.1066 0.1446 -0.5330
C5 C -0.0472(7) 0.1593(3) -0.2949(10)
H7 H -0.0938 0.1859 -0.3891
H8 H -0.1193 0.1382 -0.2195
C6 C 0.0408(7) 0.0540(2) -0.7649(11)
H9 H 0.1048 0.0758 -0.8547
H10 H 0.0971 0.0313 -0.6664
C2D C 0.0440(7) -0.0187(2) -1.0727(10)
H1D H 0.1095 0.0024 -1.1624
H2D H 0.0987 -0.0415 -0.9720
C6D C -0.0408(7) -0.0540(2) -1.2351(11)
C3D C 0.0490(7) -0.0909(2) -1.3853(10)
H3D H 0.1013 -0.1153 -1.2881
H4D H 0.1163 -0.0696 -1.4704
C4D C -0.0401(6) -0.1230(2) -1.5526(10)
H5D H -0.0933 -0.0985 -1.6480
H6D H -0.1066 -0.1446 -1.4670
C5D C 0.0472(7) -0.1593(3) -1.7051(10)
C1D C -0.0375(7) -0.1862(2) -1.8776(10)
N1D N -0.1109(6) -0.2040(2) -2.0109(10)
H7D H 0.0938 -0.1859 -1.6109
H8D H 0.1193 -0.1382 -1.7805
H9D H -0.1048 -0.0758 -1.1453
H10D H -0.0971 -0.0313 -1.3336
N1E N 0.3891(6) 0.2960(2) 0.0109(10)
C1E C 0.4625(7) 0.3138(2) -0.1224(10)
C2E C 0.5440(7) 0.4813(2) -0.9273(10)
H1E H 0.6095 0.5024 -0.8376
H2E H 0.5987 0.4585 -1.0280
C3E C 0.5490(7) 0.4091(2) -0.6147(10)
H3E H 0.6013 0.3847 -0.7119
H4E H 0.6163 0.4304 -0.5296
C4E C 0.4599(6) 0.3770(2) -0.4474(10)
H5E H 0.4067 0.4015 -0.3520
H6E H 0.3934 0.3554 -0.5330
C5E C 0.5472(7) 0.3407(3) -0.2949(10)
H7E H 0.5938 0.3141 -0.3891
H8E H 0.6193 0.3618 -0.2195
C6E C 0.4592(7) 0.4460(2) -0.7649(11)
H9E H 0.3952 0.4242 -0.8547
H10E H 0.4029 0.4687 -0.6664
C2A C 0.4560(7) 0.5187(2) -1.0727(10)
H1A H 0.3905 0.4976 -1.1624
H2A H 0.4013 0.5415 -0.9720
C6A C 0.5408(7) 0.5540(2) -1.2351(11)
C3A C 0.4510(7) 0.5909(2) -1.3853(10)
H3A H 0.3987 0.6153 -1.2881
H4A H 0.3837 0.5696 -1.4704
C4A C 0.5401(6) 0.6230(2) -1.5526(10)
H5A H 0.5933 0.5985 -1.6480
H6A H 0.6066 0.6446 -1.4670
C5A C 0.4528(7) 0.6593(3) -1.7051(10)
C1A C 0.5375(7) 0.6862(2) -1.8776(10)
N1A N 0.6109(6) 0.7040(2) -2.0109(10)
H7A H 0.4062 0.6859 -1.6109
H8A H 0.3807 0.6382 -1.7805
H9A H 0.6048 0.5758 -1.1453
H10A H 0.5971 0.5313 -1.3336
N1F N 0.1109(6) 0.2960(2) 0.4891(10)
N1G N 0.3891(6) 0.2040(2) 0.4891(10)
Ag1A Ag -0.2500 -0.2500 -2.2500
Ag1A_2 Ag 0.7500 0.7500 -2.2500
loop_
_geom_bond_atom_site_label_1
_geom_bond_atom_site_label_2
_geom_bond_site_symmetry_1
_geom_bond_site_symmetry_2
Ag1 N1 1_555 1_555
N1 C1 1_555 1_555
C1 C5 1_555 1_555
C2 H1 1_555 1_555
H2 C2 1_555 1_555
C3 H3 1_555 1_555
H4 C3 1_555 1_555
C4 C3 1_555 1_555
H5 C4 1_555 1_555
H6 C4 1_555 1_555
C5 C4 1_555 1_555
H7 C5 1_555 1_555
H8 C5 1_555 1_555
C6 C2 1_555 1_555
H9 C6 1_555 1_555
H10 C6 1_555 1_555
N2 O1 1_555 1_555
O1 O2 1_555 1_555
O2 N2 1_555 1_555
C2D C2 1_555 1_555
H1D C2D 1_555 1_555
H2D C2D 1_555 1_555
C6D C2D 1_555 1_555
C3D C6D 1_555 1_555
H3D C3D 1_555 1_555
H4D C3D 1_555 1_555
C4D C3D 1_555 1_555
H5D C4D 1_555 1_555
H6D C4D 1_555 1_555
C5D C4D 1_555 1_555
C1D C5D 1_555 1_555
N1D C1D 1_555 1_555
H7D C5D 1_555 1_555
H8D C5D 1_555 1_555
H9D C6D 1_555 1_555
H10D C6D 1_555 1_555
O1F N2 1_555 1_555
O2F N2 1_555 1_555
O2E N2 1_555 1_555
O2G N2 1_555 1_555
N1E Ag1 1_555 1_555
C1E N1E 1_555 1_555
C2E H1E 1_555 1_555
H2E C2E 1_555 1_555
C3E H3E 1_555 1_555
H4E C3E 1_555 1_555
C4E C3E 1_555 1_555
H5E C4E 1_555 1_555
H6E C4E 1_555 1_555
C5E C1E 1_555 1_555
H7E C5E 1_555 1_555
H8E C5E 1_555 1_555
C6E C2E 1_555 1_555
H9E C6E 1_555 1_555
H10E C6E 1_555 1_555
C2A C2E 1_555 1_555
H1A C2A 1_555 1_555
H2A C2A 1_555 1_555
C6A C2A 1_555 1_555
C3A C6A 1_555 1_555
H3A C3A 1_555 1_555
H4A C3A 1_555 1_555
C4A C3A 1_555 1_555
H5A C4A 1_555 1_555
H6A C4A 1_555 1_555
C5A C4A 1_555 1_555
C1A C5A 1_555 1_555
N1A C1A 1_555 1_555
H7A C5A 1_555 1_555
H8A C5A 1_555 1_555
H9A C6A 1_555 1_555
H10A C6A 1_555 1_555
N1F Ag1 1_555 1_555
N1G Ag1 1_555 1_555
Ag1A N1D 1_555 1_555
Ag1A_2 N1A 1_555 1_555
C3 C6 1_555 1_555
O1 O2E 1_555 1_555
O2 O2G 1_555 1_555
O1F O2F 1_555 1_555
O1F O2G 1_555 1_555
O2F O2E 1_555 1_555
C3E C6E 1_555 1_555
C4E C5E 1_555 1_555

#END
