
#######################################################################
#
#                 Cambridge Crystallographic Data Centre
#                                CCDC 
#
#######################################################################
#
# If this CIF has been generated from an entry in the Cambridge 
# Structural Database, then it will include bibliographic, chemical, 
# crystal, experimental, refinement or atomic coordinate data resulting 
# from the CCDC's data processing and validation procedures.
#
#######################################################################

data_XISXEC
_symmetry_cell_setting           monoclinic
_symmetry_space_group_name_H-M   'C 2/c'
_symmetry_Int_Tables_number      15
_space_group_name_Hall           '-C 2yn'
loop_
_symmetry_equiv_pos_site_id
_symmetry_equiv_pos_as_xyz
1 x,y,z
2 1/2+x,1/2+y,z
3 x,-y,1/2+z
4 1/2+x,1/2-y,1/2+z
5 -x,-y,-z
6 1/2-x,1/2-y,-z
7 -x,y,1/2-z
8 1/2-x,1/2+y,1/2-z
_cell_length_a                   24.220(8)
_cell_length_b                   12.214(3)
_cell_length_c                   11.062(7)
_cell_angle_alpha                90
_cell_angle_beta                 109.76(4)
_cell_angle_gamma                90
_cell_volume                     3079.71
loop_
_atom_site_label
_atom_site_type_symbol
_atom_site_fract_x
_atom_site_fract_y
_atom_site_fract_z
Ag1 Ag 0.5000 0.27661(13) 0.7500
N1 N 0.4420(6) 0.1579(13) 0.8076(13)
C1 C 0.4280(8) 0.0902(14) 0.8598(16)
C2 C 0.4166(9) 0.0027(17) 0.9360(19)
H1 H 0.4239 0.0271 1.0235
H2 H 0.4416 -0.0596 0.9376
C3 C 0.3526(9) -0.028(2) 0.873(2)
H3 H 0.3439 -0.0518 0.7850
H4 H 0.3264 0.0307 0.8769
C4 C 0.3508(11) -0.123(2) 0.961(3)
H5 H 0.3675 -0.1881 0.9378
H6 H 0.3728 -0.1046 1.0498
C5 C 0.2868(12) -0.140(2) 0.944(3)
H7 H 0.2654 -0.1595 0.8551
H8 H 0.2701 -0.0730 0.9634
C6 C 0.2814(5) -0.231(2) 1.032(2)
H9 H 0.3090 -0.2897 1.0368
H10 H 0.2875 -0.2039 1.1183
N2 N 0.4497(5) 0.3852(10) 0.5837(11)
C7 C 0.4311(6) 0.4254(13) 0.4874(12)
C8 C 0.4084(8) 0.4751(13) 0.3615(13)
H11 H 0.3807 0.4254 0.3032
H12 H 0.4404 0.4871 0.3290
C9 C 0.3782(7) 0.5829(14) 0.3647(17)
H13 H 0.3618 0.6108 0.2777
H14 H 0.4073 0.6352 0.4140
C10 C 0.3297(7) 0.5752(14) 0.4225(15)
H15 H 0.2976 0.5314 0.3673
H16 H 0.3444 0.5401 0.5059
C11 C 0.3079(6) 0.6895(14) 0.4363(14)
H17 H 0.3407 0.7330 0.4891
H18 H 0.2932 0.7235 0.3522
C12 C 0.2599(6) 0.6916(4) 0.4958(14)
H19 H 0.2268 0.6482 0.4439
H20 H 0.2744 0.6597 0.5810
C6E C 0.2186(5) -0.269(2) 0.968(2)
C5E C 0.2132(12) -0.360(2) 1.056(3)
C4E C 0.1492(11) -0.377(2) 1.039(3)
C3E C 0.1474(9) -0.472(2) 1.127(2)
C2E C 0.0834(9) -0.5027(17) 1.0640(19)
C1E C 0.0720(8) -0.5902(14) 1.1402(16)
N1E N 0.0580(6) -0.6579(13) 1.1924(13)
H1E H 0.0761 -0.5271 0.9765
H2E H 0.0584 -0.4404 1.0624
H3E H 0.1561 -0.4482 1.2150
H4E H 0.1736 -0.5307 1.1231
H5E H 0.1325 -0.3119 1.0622
H6E H 0.1272 -0.3954 0.9502
H7E H 0.2346 -0.3405 1.1449
H8E H 0.2299 -0.4270 1.0366
H9E H 0.1910 -0.2103 0.9632
H10E H 0.2125 -0.2961 0.8817
C12E C 0.2401(6) 0.8084(4) 0.5042(14)
C11E C 0.1921(6) 0.8105(14) 0.5637(14)
C10E C 0.1703(7) 0.9248(14) 0.5775(15)
C9E C 0.1218(7) 0.9171(14) 0.6353(17)
C8E C 0.0916(8) 1.0249(13) 0.6385(13)
C7E C 0.0689(6) 1.0746(13) 0.5126(12)
N2E N 0.0503(5) 1.1148(10) 0.4163(11)
H11E H 0.1193 1.0746 0.6968
H12E H 0.0596 1.0129 0.6710
H13E H 0.1382 0.8892 0.7223
H14E H 0.0927 0.8648 0.5860
H15E H 0.2024 0.9686 0.6327
H16E H 0.1556 0.9599 0.4941
H17E H 0.1593 0.7670 0.5109
H18E H 0.2068 0.7765 0.6478
H19E H 0.2732 0.8518 0.5561
H20E H 0.2256 0.8403 0.4190
N1F N 0.5580(6) 0.1579(13) 0.6924(13)
N2F N 0.5503(5) 0.3852(10) 0.9163(11)
Ag1C Ag 0.0000 -0.77661(13) 1.2500
Ag1C_2 Ag 0.0000 1.22339(13) 0.2500
P1 P 0.5000 -0.2345(5) 0.7500
F1 F 0.5000 -0.3610(8) 0.7500
F2 F 0.4322(4) -0.2321(16) 0.715(2)
F3 F 0.5013(11) -0.2355(13) 0.8899(10)
F4 F 0.5000 -0.1072(8) 0.7500
F2F F 0.5678(4) -0.2321(16) 0.785(2)
F3F F 0.4987(11) -0.2355(13) 0.6101(10)
loop_
_geom_bond_atom_site_label_1
_geom_bond_atom_site_label_2
_geom_bond_site_symmetry_1
_geom_bond_site_symmetry_2
Ag1 N1 1_555 1_555
N1 C1 1_555 1_555
C1 C2 1_555 1_555
C2 H1 1_555 1_555
H2 C2 1_555 1_555
C3 C2 1_555 1_555
H3 C3 1_555 1_555
H4 C3 1_555 1_555
C4 C3 1_555 1_555
H5 C4 1_555 1_555
H6 C4 1_555 1_555
C5 C4 1_555 1_555
H7 C5 1_555 1_555
H8 C5 1_555 1_555
C6 C5 1_555 1_555
H9 C6 1_555 1_555
H10 C6 1_555 1_555
N2 Ag1 1_555 1_555
C7 N2 1_555 1_555
C8 C7 1_555 1_555
H11 C8 1_555 1_555
H12 C8 1_555 1_555
C9 C8 1_555 1_555
H13 C9 1_555 1_555
H14 C9 1_555 1_555
C10 C9 1_555 1_555
H15 C10 1_555 1_555
H16 C10 1_555 1_555
C11 C10 1_555 1_555
H17 C11 1_555 1_555
H18 C11 1_555 1_555
C12 C11 1_555 1_555
H19 C12 1_555 1_555
H20 C12 1_555 1_555
P1 F1 1_555 1_555
F2 P1 1_555 1_555
F3 P1 1_555 1_555
F4 P1 1_555 1_555
C6E C6 1_555 1_555
C5E C6E 1_555 1_555
C4E C5E 1_555 1_555
C3E C4E 1_555 1_555
C2E C3E 1_555 1_555
C1E C2E 1_555 1_555
N1E C1E 1_555 1_555
H1E C2E 1_555 1_555
H2E C2E 1_555 1_555
H3E C3E 1_555 1_555
H4E C3E 1_555 1_555
H5E C4E 1_555 1_555
H6E C4E 1_555 1_555
H7E C5E 1_555 1_555
H8E C5E 1_555 1_555
H9E C6E 1_555 1_555
H10E C6E 1_555 1_555
C12E C12 1_555 1_555
C11E C12E 1_555 1_555
C10E C11E 1_555 1_555
C9E C10E 1_555 1_555
C8E C9E 1_555 1_555
C7E C8E 1_555 1_555
N2E C7E 1_555 1_555
H11E C8E 1_555 1_555
H12E C8E 1_555 1_555
H13E C9E 1_555 1_555
H14E C9E 1_555 1_555
H15E C10E 1_555 1_555
H16E C10E 1_555 1_555
H17E C11E 1_555 1_555
H18E C11E 1_555 1_555
H19E C12E 1_555 1_555
H20E C12E 1_555 1_555
F2F P1 1_555 1_555
F3F P1 1_555 1_555
N1F Ag1 1_555 1_555
N2F Ag1 1_555 1_555
Ag1C N1E 1_555 1_555
Ag1C_2 N2E 1_555 1_555

#END
