
#######################################################################
#
#                 Cambridge Crystallographic Data Centre
#                                CCDC 
#
#######################################################################
#
# If this CIF has been generated from an entry in the Cambridge 
# Structural Database, then it will include bibliographic, chemical, 
# crystal, experimental, refinement or atomic coordinate data resulting 
# from the CCDC's data processing and validation procedures.
#
#######################################################################

data_XISXIG
_symmetry_cell_setting           monoclinic
_symmetry_space_group_name_H-M   'C 2/c'
_symmetry_Int_Tables_number      15
_space_group_name_Hall           '-C 2yn'
loop_
_symmetry_equiv_pos_site_id
_symmetry_equiv_pos_as_xyz
1 x,y,z
2 1/2+x,1/2+y,z
3 x,-y,1/2+z
4 1/2+x,1/2-y,1/2+z
5 -x,-y,-z
6 1/2-x,1/2-y,-z
7 -x,y,1/2-z
8 1/2-x,1/2+y,1/2-z
_cell_length_a                   24.046(8)
_cell_length_b                   12.278(4)
_cell_length_c                   11.193(3)
_cell_angle_alpha                90
_cell_angle_beta                 109.78(2)
_cell_angle_gamma                90
_cell_volume                     3109.61
loop_
_atom_site_label
_atom_site_type_symbol
_atom_site_fract_x
_atom_site_fract_y
_atom_site_fract_z
Ag1 Ag 0.5000 0.28026(10) 0.7500
N1 N 0.4408(5) 0.1639(10) 0.8064(10)
C1 C 0.4288(6) 0.0938(10) 0.8555(12)
C2 C 0.4150(9) 0.0113(15) 0.9325(15)
H1 H 0.4206 0.0408 1.0162
H2 H 0.4419 -0.0496 0.9423
C3 C 0.3521(7) -0.0285(14) 0.8739(19)
H3 H 0.3432 -0.0482 0.7855
H4 H 0.3239 0.0257 0.8806
C4 C 0.3523(9) -0.1277(16) 0.955(2)
H5 H 0.3656 -0.1919 0.9222
H6 H 0.3774 -0.1161 1.0423
C5 C 0.2884(9) -0.1384(16) 0.945(2)
H7 H 0.2639 -0.1492 0.8569
H8 H 0.2754 -0.0725 0.9753
C6 C 0.2825(3) -0.2351(19) 1.024(2)
H9 H 0.3064 -0.2956 1.0135
H10 H 0.2952 -0.2157 1.1134
N2 N 0.4498(4) 0.3856(8) 0.5817(9)
C7 C 0.4321(5) 0.4329(11) 0.4916(10)
C8 C 0.4081(8) 0.4776(12) 0.3666(12)
H11 H 0.3805 0.4261 0.3119
H12 H 0.4398 0.4893 0.3326
C9 C 0.3768(6) 0.5841(11) 0.3672(15)
H13 H 0.3619 0.6131 0.2816
H14 H 0.4047 0.6362 0.4201
C10 C 0.3257(5) 0.5696(10) 0.4171(13)
H15 H 0.2930 0.5320 0.3555
H16 H 0.3381 0.5285 0.4958
C11 C 0.3084(5) 0.6852(11) 0.4388(12)
H17 H 0.3428 0.7221 0.4958
H18 H 0.2962 0.7238 0.3585
C12 C 0.2589(4) 0.6913(3) 0.4941(12)
H19 H 0.2717 0.6574 0.5773
H20 H 0.2249 0.6514 0.4400
C6E C 0.2175(3) -0.2649(19) 0.976(2)
C5E C 0.2116(9) -0.3616(16) 1.055(2)
C4E C 0.1477(9) -0.3723(16) 1.045(2)
C3E C 0.1479(7) -0.4715(14) 1.1261(19)
C2E C 0.0850(9) -0.5113(15) 1.0675(15)
C1E C 0.0712(6) -0.5938(10) 1.1445(12)
N1E N 0.0592(5) -0.6639(10) 1.1936(10)
H1E H 0.0794 -0.5408 0.9838
H2E H 0.0581 -0.4504 1.0577
H3E H 0.1568 -0.4518 1.2145
H4E H 0.1761 -0.5257 1.1194
H5E H 0.1344 -0.3081 1.0778
H6E H 0.1226 -0.3839 0.9577
H7E H 0.2361 -0.3508 1.1431
H8E H 0.2246 -0.4275 1.0247
H9E H 0.1936 -0.2044 0.9865
H10E H 0.2048 -0.2843 0.8866
C12E C 0.2411(4) 0.8087(3) 0.5059(12)
C11E C 0.1916(5) 0.8148(11) 0.5612(12)
C10E C 0.1743(5) 0.9304(10) 0.5829(13)
C9E C 0.1232(6) 0.9159(11) 0.6328(15)
C8E C 0.0919(8) 1.0224(12) 0.6334(12)
C7E C 0.0679(5) 1.0671(11) 0.5084(10)
N2E N 0.0502(4) 1.1144(8) 0.4183(9)
H11E H 0.1195 1.0739 0.6881
H12E H 0.0602 1.0107 0.6674
H13E H 0.1381 0.8869 0.7184
H14E H 0.0953 0.8638 0.5799
H15E H 0.2070 0.9680 0.6445
H16E H 0.1619 0.9715 0.5042
H17E H 0.1572 0.7779 0.5042
H18E H 0.2038 0.7762 0.6415
H19E H 0.2283 0.8426 0.4227
H20E H 0.2751 0.8486 0.5600
N1F N 0.5592(5) 0.1639(10) 0.6936(10)
N2F N 0.5502(4) 0.3856(8) 0.9183(9)
Ag1C Ag 0.0000 -0.78026(10) 1.2500
Ag1C_2 Ag 0.0000 1.21974(10) 0.2500
As1 As 0.5000 -0.23415(15) 0.7500
F1 F 0.5000 -0.3676(7) 0.7500
F2 F 0.4278(3) -0.2341(13) 0.7158(16)
F3 F 0.5037(7) -0.2326(13) 0.8988(8)
F4 F 0.5000 -0.0989(7) 0.7500
F2F F 0.5722(3) -0.2341(13) 0.7842(16)
F3F F 0.4963(7) -0.2326(13) 0.6012(8)
loop_
_geom_bond_atom_site_label_1
_geom_bond_atom_site_label_2
_geom_bond_site_symmetry_1
_geom_bond_site_symmetry_2
Ag1 N1 1_555 1_555
N1 C1 1_555 1_555
C1 C2 1_555 1_555
C2 H1 1_555 1_555
H2 C2 1_555 1_555
C3 C2 1_555 1_555
H3 C3 1_555 1_555
H4 C3 1_555 1_555
C4 C3 1_555 1_555
H5 C4 1_555 1_555
H6 C4 1_555 1_555
C5 C4 1_555 1_555
H7 C5 1_555 1_555
H8 C5 1_555 1_555
C6 C5 1_555 1_555
H9 C6 1_555 1_555
H10 C6 1_555 1_555
N2 Ag1 1_555 1_555
C7 N2 1_555 1_555
C8 C7 1_555 1_555
H11 C8 1_555 1_555
H12 C8 1_555 1_555
C9 C8 1_555 1_555
H13 C9 1_555 1_555
H14 C9 1_555 1_555
C10 C9 1_555 1_555
H15 C10 1_555 1_555
H16 C10 1_555 1_555
C11 C10 1_555 1_555
H17 C11 1_555 1_555
H18 C11 1_555 1_555
C12 C11 1_555 1_555
H19 C12 1_555 1_555
H20 C12 1_555 1_555
As1 F1 1_555 1_555
F2 As1 1_555 1_555
F3 As1 1_555 1_555
F4 As1 1_555 1_555
C6E C6 1_555 1_555
C5E C6E 1_555 1_555
C4E C5E 1_555 1_555
C3E C4E 1_555 1_555
C2E C3E 1_555 1_555
C1E C2E 1_555 1_555
N1E C1E 1_555 1_555
H1E C2E 1_555 1_555
H2E C2E 1_555 1_555
H3E C3E 1_555 1_555
H4E C3E 1_555 1_555
H5E C4E 1_555 1_555
H6E C4E 1_555 1_555
H7E C5E 1_555 1_555
H8E C5E 1_555 1_555
H9E C6E 1_555 1_555
H10E C6E 1_555 1_555
C12E C12 1_555 1_555
C11E C12E 1_555 1_555
C10E C11E 1_555 1_555
C9E C10E 1_555 1_555
C8E C9E 1_555 1_555
C7E C8E 1_555 1_555
N2E C7E 1_555 1_555
H11E C8E 1_555 1_555
H12E C8E 1_555 1_555
H13E C9E 1_555 1_555
H14E C9E 1_555 1_555
H15E C10E 1_555 1_555
H16E C10E 1_555 1_555
H17E C11E 1_555 1_555
H18E C11E 1_555 1_555
H19E C12E 1_555 1_555
H20E C12E 1_555 1_555
F2F As1 1_555 1_555
F3F As1 1_555 1_555
N1F Ag1 1_555 1_555
N2F Ag1 1_555 1_555
Ag1C N1E 1_555 1_555
Ag1C_2 N2E 1_555 1_555

#END
