
#######################################################################
#
#                 Cambridge Crystallographic Data Centre
#                                CCDC 
#
#######################################################################
#
# If this CIF has been generated from an entry in the Cambridge 
# Structural Database, then it will include bibliographic, chemical, 
# crystal, experimental, refinement or atomic coordinate data resulting 
# from the CCDC's data processing and validation procedures.
#
#######################################################################

data_XISXOM
_symmetry_cell_setting           monoclinic
_symmetry_space_group_name_H-M   'P 2/c'
_symmetry_Int_Tables_number      13
_space_group_name_Hall           '-P 2yc'
loop_
_symmetry_equiv_pos_site_id
_symmetry_equiv_pos_as_xyz
1 x,y,z
2 x,-y,1/2+z
3 -x,-y,-z
4 -x,y,1/2-z
_cell_length_a                   10.993(2)
_cell_length_b                   5.6540(10)
_cell_length_c                   23.724(3)
_cell_angle_alpha                90
_cell_angle_beta                 90.98(2)
_cell_angle_gamma                90
_cell_volume                     1474.34
loop_
_atom_site_label
_atom_site_type_symbol
_atom_site_fract_x
_atom_site_fract_y
_atom_site_fract_z
Ag1 Ag 0.0000 0.4602(3) 0.2500
C1 C -0.1693(16) 0.849(3) 0.3176(7)
C2 C 0.2081(12) 0.114(3) 0.3172(6)
C3 C 0.3023(13) -0.035(3) 0.3411(9)
H1 H 0.3487 0.0540 0.3691
H2 H 0.3574 -0.0823 0.3117
C4 C 0.2502(15) -0.254(3) 0.3686(7)
H3 H 0.3168 -0.3529 0.3822
H4 H 0.2049 -0.3441 0.3404
C5 C 0.1672(16) -0.199(3) 0.4174(7)
H5 H 0.1029 -0.0934 0.4047
H6 H 0.2133 -0.1207 0.4471
C6 C 0.1119(17) -0.426(3) 0.4400(7)
H7 H 0.1771 -0.5322 0.4513
H8 H 0.0654 -0.5017 0.4100
C7 C 0.0295(10) -0.3864(13) 0.4899(6)
H9 H -0.0336 -0.2744 0.4793
H10 H 0.0768 -0.3178 0.5207
C8 C -0.245(2) 1.036(3) 0.3386(11)
H11 H -0.1931 1.1699 0.3474
H12 H -0.2995 1.0848 0.3081
C9 C -0.314(3) 0.993(4) 0.3843(12)
H13 H -0.3926 1.0615 0.3748
H14 H -0.2794 1.0933 0.4135
C10 C -0.343(2) 0.781(4) 0.4124(11)
H15 H -0.3605 0.6683 0.3826
H16 H -0.2662 0.7294 0.4295
C11 C -0.429(2) 0.737(4) 0.4528(8)
H17 H -0.5046 0.7943 0.4363
H18 H -0.4089 0.8453 0.4834
C12 C -0.4598(17) 0.520(4) 0.4799(9)
H19 H -0.4831 0.4143 0.4495
H20 H -0.3834 0.4597 0.4950
N1 N 0.1301(10) 0.220(2) 0.2975(5)
N2 N -0.0991(12) 0.707(3) 0.3077(6)
C12B C -0.5402(17) 0.480(4) 0.5201(9)
C11B C -0.571(2) 0.263(4) 0.5472(8)
C10B C -0.657(2) 0.219(4) 0.5876(11)
C9B C -0.686(3) 0.007(4) 0.6157(12)
C8B C -0.755(2) -0.036(3) 0.6614(11)
C1B C -0.8307(16) 0.151(3) 0.6824(7)
N2B N -0.9009(12) 0.293(3) 0.6923(6)
H11B H -0.8069 -0.1699 0.6526
H12B H -0.7005 -0.0848 0.6919
H13B H -0.6074 -0.0615 0.6252
H14B H -0.7206 -0.0933 0.5865
H15B H -0.6395 0.3317 0.6174
H16B H -0.7338 0.2706 0.5705
H17B H -0.4954 0.2057 0.5637
H18B H -0.5911 0.1547 0.5166
H19B H -0.5169 0.5857 0.5505
H20B H -0.6166 0.5403 0.5050
C7B C -0.0295(10) -0.6136(13) 0.5101(6)
C6B C -0.1119(17) -0.574(3) 0.5600(7)
C5B C -0.1672(16) -0.801(3) 0.5826(7)
C4B C -0.2502(15) -0.746(3) 0.6314(7)
C3B C -0.3023(13) -0.965(3) 0.6589(9)
C2B C -0.2081(12) -1.114(3) 0.6828(6)
N1B N -0.1301(10) -1.220(2) 0.7025(5)
H1B H -0.3487 -1.0540 0.6309
H2B H -0.3574 -0.9177 0.6883
H3B H -0.3168 -0.6471 0.6178
H4B H -0.2049 -0.6559 0.6596
H5B H -0.1029 -0.9066 0.5953
H6B H -0.2133 -0.8793 0.5529
H7B H -0.1771 -0.4678 0.5487
H8B H -0.0654 -0.4983 0.5900
H9B H 0.0336 -0.7256 0.5207
H10B H -0.0768 -0.6822 0.4793
N1C N -0.1301(10) 0.220(2) 0.2025(5)
N2C N 0.0991(12) 0.707(3) 0.1923(6)
Ag1A Ag -1.0000 0.5398(3) 0.7500
Ag1A_2 Ag 0.0000 -1.4602(3) 0.7500
Cl1 Cl 0.5000 0.4625(9) 0.2500
O1 O 0.4684(17) 0.321(2) 0.2971(3)
O2 O 0.3981(7) 0.613(2) 0.2349(8)
O1C O 0.5316(17) 0.321(2) 0.2029(3)
O2C O 0.6019(7) 0.613(2) 0.2651(8)
loop_
_geom_bond_atom_site_label_1
_geom_bond_atom_site_label_2
_geom_bond_site_symmetry_1
_geom_bond_site_symmetry_2
Ag1 N1 1_555 1_555
C1 C8 1_555 1_555
C2 C3 1_555 1_555
C3 H1 1_555 1_555
H2 C3 1_555 1_555
C4 C3 1_555 1_555
H3 C4 1_555 1_555
H4 C4 1_555 1_555
C5 C4 1_555 1_555
H5 C5 1_555 1_555
H6 C5 1_555 1_555
C6 C5 1_555 1_555
H7 C6 1_555 1_555
H8 C6 1_555 1_555
C7 C6 1_555 1_555
H9 C7 1_555 1_555
H10 C7 1_555 1_555
C8 H11 1_555 1_555
H12 C8 1_555 1_555
C9 C8 1_555 1_555
H13 C9 1_555 1_555
H14 C9 1_555 1_555
C10 C9 1_555 1_555
H15 C10 1_555 1_555
H16 C10 1_555 1_555
C11 C10 1_555 1_555
H17 C11 1_555 1_555
H18 C11 1_555 1_555
C12 C11 1_555 1_555
H19 C12 1_555 1_555
H20 C12 1_555 1_555
N1 C2 1_555 1_555
N2 Ag1 1_555 1_555
Cl1 O1 1_555 1_555
O2 Cl1 1_555 1_555
C12B C12 1_555 1_555
C11B C12B 1_555 1_555
C10B C11B 1_555 1_555
C9B C10B 1_555 1_555
C8B C9B 1_555 1_555
C1B C8B 1_555 1_555
N2B C1B 1_555 1_555
H11B C8B 1_555 1_555
H12B C8B 1_555 1_555
H13B C9B 1_555 1_555
H14B C9B 1_555 1_555
H15B C10B 1_555 1_555
H16B C10B 1_555 1_555
H17B C11B 1_555 1_555
H18B C11B 1_555 1_555
H19B C12B 1_555 1_555
H20B C12B 1_555 1_555
C7B C7 1_555 1_555
C6B C7B 1_555 1_555
C5B C6B 1_555 1_555
C4B C5B 1_555 1_555
C3B C4B 1_555 1_555
C2B C3B 1_555 1_555
N1B C2B 1_555 1_555
H1B C3B 1_555 1_555
H2B C3B 1_555 1_555
H3B C4B 1_555 1_555
H4B C4B 1_555 1_555
H5B C5B 1_555 1_555
H6B C5B 1_555 1_555
H7B C6B 1_555 1_555
H8B C6B 1_555 1_555
H9B C7B 1_555 1_555
H10B C7B 1_555 1_555
O1C Cl1 1_555 1_555
O2C Cl1 1_555 1_555
N1C Ag1 1_555 1_555
N2C Ag1 1_555 1_555
Ag1A N2B 1_555 1_555
Ag1A_2 N1B 1_555 1_555
C1 N2 1_555 1_555

#END
