
#######################################################################
#
#                 Cambridge Crystallographic Data Centre
#                                CCDC 
#
#######################################################################
#
# If this CIF has been generated from an entry in the Cambridge 
# Structural Database, then it will include bibliographic, chemical, 
# crystal, experimental, refinement or atomic coordinate data resulting 
# from the CCDC's data processing and validation procedures.
#
#######################################################################

data_XITBOT
_symmetry_cell_setting           triclinic
_symmetry_space_group_name_H-M   'P -1'
_symmetry_Int_Tables_number      2
_space_group_name_Hall           '-P 1'
loop_
_symmetry_equiv_pos_site_id
_symmetry_equiv_pos_as_xyz
1 x,y,z
2 -x,-y,-z
_cell_length_a                   9.320(3)
_cell_length_b                   10.402(3)
_cell_length_c                   13.855(5)
_cell_angle_alpha                76.135(6)
_cell_angle_beta                 75.941(6)
_cell_angle_gamma                71.167(6)
_cell_volume                     1214.04
loop_
_atom_site_label
_atom_site_type_symbol
_atom_site_fract_x
_atom_site_fract_y
_atom_site_fract_z
Ni1 Ni 0.39492(9) 1.14676(8) 0.34667(6)
Br1 Br 0.43170(10) 0.75211(8) -0.04259(5)
O1 O 0.3797(5) 0.9297(4) 0.3835(3)
O2 O 0.3762(5) 1.0549(4) 0.2310(3)
O3 O 0.3661(6) 0.4363(4) 0.4216(3)
O4 O 0.3994(5) 0.3470(4) 0.2823(3)
O5 O 0.4004(5) 1.1735(5) 0.4884(3)
H1 H 0.394(9) 1.259(8) 0.470(6)
H2 H 0.456(9) 1.140(8) 0.527(6)
N1 N 0.6278(6) 1.0781(5) 0.3068(4)
N2 N 0.8629(6) 0.9625(5) 0.2411(4)
N3 N 0.9227(6) 0.3343(5) 0.3756(4)
N4 N 1.1621(6) 0.2111(5) 0.3801(4)
C1 C 0.3797(6) 0.9427(6) 0.2896(5)
C2 C 0.3856(7) 0.8206(6) 0.2476(4)
C3 C 0.3825(7) 0.6926(6) 0.3051(4)
H3 H 0.3791 0.6795 0.3743
C4 C 0.3843(7) 0.5833(6) 0.2638(4)
C5 C 0.3935(7) 0.6029(6) 0.1597(5)
H4 H 0.3932 0.5319 0.1299
C6 C 0.4032(7) 0.7288(6) 0.1008(4)
C7 C 0.3973(7) 0.8380(6) 0.1426(5)
H5 H 0.4011 0.9225 0.1018
C8 C 0.3822(7) 0.4444(6) 0.3280(5)
C9 C 0.7363(8) 1.1146(7) 0.3366(5)
H6 H 0.7136 1.1788 0.3786
C10 C 0.8810(8) 1.0459(7) 0.2973(5)
H7 H 0.9731 1.0538 0.3065
C11 C 0.7105(7) 0.9848(7) 0.2487(5)
H8 H 0.6678 0.9403 0.2171
C12 C 0.9859(7) 0.8584(7) 0.1898(5)
H9 H 1.0678 0.8180 0.2290
H10 H 1.0286 0.9028 0.1241
C13 C 0.9270(7) 0.7460(7) 0.1763(6)
C14 C 0.8936(7) 0.6479(7) 0.2614(5)
C15 C 0.8354(7) 0.5449(7) 0.2510(5)
C16 C 0.8197(8) 0.5332(7) 0.1561(5)
C17 C 0.8479(8) 0.6344(7) 0.0744(6)
H11 H 0.8321 0.6300 0.0117
C18 C 0.8989(8) 0.7421(7) 0.0827(5)
C19 C 0.7877(8) 0.4448(7) 0.3426(5)
H12 H 0.7321 0.4947 0.3976
H13 H 0.7187 0.4034 0.3268
C20 C 0.9185(8) 0.2336(7) 0.4587(5)
H14 H 0.8318 0.2196 0.5049
C21 C 1.0653(7) 0.1587(7) 0.4601(5)
H15 H 1.0972 0.0818 0.5087
C22 C 1.0704(7) 0.3172(6) 0.3302(5)
H16 H 1.1037 0.3728 0.2712
C23 C 0.9246(8) 0.6519(7) 0.3632(5)
H17 H 0.8945 0.5789 0.4128
H18 H 0.8664 0.7391 0.3829
H19 H 1.0325 0.6401 0.3581
C24 C 0.7764(8) 0.4159(7) 0.1370(5)
H20 H 0.7792 0.4257 0.0659
H21 H 0.6743 0.4167 0.1731
H22 H 0.8480 0.3302 0.1596
C25 C 0.9190(9) 0.8540(8) -0.0074(6)
H23 H 0.8598 0.9423 0.0100
H24 H 0.8841 0.8395 -0.0627
H25 H 1.0259 0.8513 -0.0270
Ni1_2 Ni 0.39492(9) 0.14676(8) 0.34667(6)
Ni1_3 Ni 1.39492(9) 0.14676(8) 0.34667(6)
O4_2 O 0.3994(5) 1.3470(4) 0.2823(3)
N4_2 N 0.1621(6) 1.2111(5) 0.3801(4)
loop_
_geom_bond_atom_site_label_1
_geom_bond_atom_site_label_2
_geom_bond_site_symmetry_1
_geom_bond_site_symmetry_2
Ni1 O1 1_555 1_555
Br1 C6 1_555 1_555
O1 C1 1_555 1_555
O2 Ni1 1_555 1_555
O3 C8 1_555 1_555
O4 C8 1_555 1_555
O5 Ni1 1_555 1_555
H1 O5 1_555 1_555
H2 O5 1_555 1_555
N1 Ni1 1_555 1_555
N2 C10 1_555 1_555
N3 C19 1_555 1_555
N4 C21 1_555 1_555
C1 O2 1_555 1_555
C2 C1 1_555 1_555
C3 C2 1_555 1_555
H3 C3 1_555 1_555
C4 C3 1_555 1_555
C5 C4 1_555 1_555
H4 C5 1_555 1_555
C6 C5 1_555 1_555
C7 C2 1_555 1_555
H5 C7 1_555 1_555
C8 C4 1_555 1_555
C9 N1 1_555 1_555
H6 C9 1_555 1_555
C10 C9 1_555 1_555
H7 C10 1_555 1_555
C11 N1 1_555 1_555
H8 C11 1_555 1_555
C12 N2 1_555 1_555
H9 C12 1_555 1_555
H10 C12 1_555 1_555
C13 C12 1_555 1_555
C14 C13 1_555 1_555
C15 C14 1_555 1_555
C16 C15 1_555 1_555
C17 C16 1_555 1_555
H11 C17 1_555 1_555
C18 C13 1_555 1_555
C19 C15 1_555 1_555
H12 C19 1_555 1_555
H13 C19 1_555 1_555
C20 N3 1_555 1_555
H14 C20 1_555 1_555
C21 C20 1_555 1_555
H15 C21 1_555 1_555
C22 N3 1_555 1_555
H16 C22 1_555 1_555
C23 C14 1_555 1_555
H17 C23 1_555 1_555
H18 C23 1_555 1_555
H19 C23 1_555 1_555
C24 C16 1_555 1_555
H20 C24 1_555 1_555
H21 C24 1_555 1_555
H22 C24 1_555 1_555
C25 C18 1_555 1_555
H23 C25 1_555 1_555
H24 C25 1_555 1_555
H25 C25 1_555 1_555
Ni1_2 O4 1_555 1_555
Ni1_3 N4 1_555 1_555
O4_2 Ni1 1_555 1_555
N4_2 Ni1 1_555 1_555
N2 C11 1_555 1_555
N4 C22 1_555 1_555
C6 C7 1_555 1_555
C17 C18 1_555 1_555

#END
