
#######################################################################
#
#                 Cambridge Crystallographic Data Centre
#                                CCDC 
#
#######################################################################
#
# If this CIF has been generated from an entry in the Cambridge 
# Structural Database, then it will include bibliographic, chemical, 
# crystal, experimental, refinement or atomic coordinate data resulting 
# from the CCDC's data processing and validation procedures.
#
#######################################################################

data_XITBEJ
_symmetry_cell_setting           monoclinic
_symmetry_space_group_name_H-M   'P 21/c'
_symmetry_Int_Tables_number      14
_space_group_name_Hall           '-P 2ybc'
loop_
_symmetry_equiv_pos_site_id
_symmetry_equiv_pos_as_xyz
1 x,y,z
2 -x,1/2+y,1/2-z
3 -x,-y,-z
4 x,1/2-y,1/2+z
_cell_length_a                   11.285(2)
_cell_length_b                   11.947(2)
_cell_length_c                   32.654(7)
_cell_angle_alpha                90
_cell_angle_beta                 92.262(4)
_cell_angle_gamma                90
_cell_volume                     4399.04
loop_
_atom_site_label
_atom_site_type_symbol
_atom_site_fract_x
_atom_site_fract_y
_atom_site_fract_z
Cd1 Cd 0.20044(6) 0.93562(6) 0.17290(2)
Cd2 Cd -0.04865(6) 1.14457(6) 0.18304(2)
Br1 Br 0.29143(13) 0.46125(10) 0.01780(4)
Br2 Br -0.12856(10) 0.54749(9) 0.09251(3)
N1 N 0.3926(7) 0.9507(7) 0.1929(3)
N2 N 0.5549(8) 0.9734(8) 0.2322(3)
N3 N 0.3958(7) 0.6900(7) 0.3811(3)
N4 N 0.2163(8) 0.6496(7) 0.3578(3)
O1 O 0.2270(7) 0.7986(6) 0.1234(2)
O2 O 0.1813(6) 0.7302(5) 0.1827(2)
O3 O 0.0219(7) 0.3319(6) 0.1819(2)
O4 O 0.0678(6) 0.2214(6) 0.1311(2)
O5 O -0.0059(6) 0.9541(5) 0.1582(2)
O6 O -0.1171(6) 0.9722(6) 0.2115(2)
O7 O -0.1389(6) 0.6011(5) 0.2889(2)
O8 O -0.1743(6) 0.4471(5) 0.2531(2)
O9 O 0.2316(6) 1.0595(6) 0.1203(2)
H1 H 0.208(10) 1.023(9) 0.096(2)
H2 H 0.172(8) 1.111(8) 0.127(3)
O10 O -0.1548(6) 1.2244(6) 0.2341(2)
H3 H -0.121(9) 1.297(5) 0.237(4)
H4 H -0.227(6) 1.224(9) 0.248(4)
C1 C 0.2029(8) 0.7180(9) 0.1461(3)
C2 C 0.1979(8) 0.6018(8) 0.1277(3)
C3 C 0.2416(9) 0.5862(8) 0.0887(3)
H5 H 0.2762 0.6450 0.0749
C4 C 0.2320(9) 0.4805(9) 0.0711(3)
C5 C 0.1825(9) 0.3930(9) 0.0901(3)
H6 H 0.1776 0.3234 0.0774
C6 C 0.1385(9) 0.4082(8) 0.1291(3)
C7 C 0.1480(9) 0.5133(8) 0.1478(3)
H7 H 0.1204 0.5235 0.1740
C8 C 0.0718(9) 0.3153(8) 0.1487(3)
C9 C -0.0714(8) 0.9138(8) 0.1849(3)
C10 C -0.1009(8) 0.7887(8) 0.1828(3)
C11 C -0.1012(8) 0.7359(9) 0.1451(3)
H8 H -0.0860 0.7752 0.1212
C12 C -0.1246(9) 0.6234(9) 0.1442(3)
C13 C -0.1414(9) 0.5624(9) 0.1786(3)
H9 H -0.1554 0.4858 0.1766
C14 C -0.1376(8) 0.6135(8) 0.2163(3)
C15 C -0.1190(8) 0.7312(9) 0.2183(3)
H10 H -0.1190 0.7685 0.2433
C16 C -0.1492(8) 0.5505(8) 0.2550(3)
C17 C 0.4899(9) 0.9600(9) 0.1686(4)
H11 H 0.4873 0.9554 0.1402
C18 C 0.5884(9) 0.9767(10) 0.1921(4)
H12 H 0.6646 0.9882 0.1830
C19 C 0.4357(9) 0.9572(9) 0.2306(4)
H13 H 0.3902 0.9515 0.2537
C20 C 0.6303(10) 0.9923(11) 0.2686(4)
H14 H 0.6588 1.0688 0.2685
H15 H 0.6987 0.9432 0.2678
C21 C 0.5676(9) 0.9716(9) 0.3079(4)
C22 C 0.5700(9) 0.8673(9) 0.3261(3)
C23 C 0.5179(9) 0.8505(9) 0.3640(3)
C24 C 0.4674(10) 0.9425(11) 0.3835(4)
C25 C 0.4598(11) 1.0436(11) 0.3636(4)
H16 H 0.4192 1.1021 0.3756
C26 C 0.5103(10) 1.0611(9) 0.3265(4)
C27 C 0.5157(9) 0.7382(9) 0.3841(4)
H17 H 0.5708 0.6885 0.3711
H18 H 0.5408 0.7455 0.4128
C28 C 0.3529(10) 0.6092(9) 0.4063(4)
H19 H 0.3917 0.5764 0.4289
C29 C 0.2413(10) 0.5876(10) 0.3912(4)
H20 H 0.1894 0.5367 0.4024
C30 C 0.3106(9) 0.7113(9) 0.3521(3)
H21 H 0.3175 0.7628 0.3310
C31 C 0.6246(10) 0.7683(10) 0.3043(4)
H22 H 0.6431 0.7899 0.2769
H23 H 0.5693 0.7072 0.3032
H24 H 0.6959 0.7455 0.3190
C32 C 0.4146(13) 0.9305(13) 0.4248(4)
H25 H 0.3826 1.0012 0.4330
H26 H 0.4750 0.9072 0.4445
H27 H 0.3525 0.8756 0.4233
C33 C 0.4985(14) 1.1742(11) 0.3062(5)
H28 H 0.4382 1.2168 0.3190
H29 H 0.4771 1.1644 0.2776
H30 H 0.5727 1.2132 0.3088
Cd1A Cd -0.20044(6) 0.43562(6) 0.32710(2)
Cd2_2 Cd -0.04865(6) 0.14457(6) 0.18304(2)
Cd2A Cd 0.04865(6) 0.64457(6) 0.31696(2)
N4A N -0.2163(8) 1.1496(7) 0.1422(3)
O3_2 O 0.0219(7) 1.3319(6) 0.1819(2)
O4_2 O 0.0678(6) 1.2214(6) 0.1311(2)
O7A O 0.1389(6) 1.1011(5) 0.2111(2)
O8A O 0.1743(6) 0.9471(5) 0.2469(2)
O11 O 0.2053(10) 0.9277(8) 0.0533(3)
O12 O 0.5274(10) 0.6698(11) 0.4857(3)
C34 C 0.6374(14) 0.6382(15) 0.5055(5)
H31 H 0.7034 0.6695 0.4911
H32 H 0.6454 0.5574 0.5060
C35 C 0.6351(13) 0.6838(13) 0.5480(5)
H33 H 0.6771 0.6353 0.5675
H34 H 0.6690 0.7584 0.5497
C36 C 0.5055(17) 0.6855(18) 0.5550(6)
H35 H 0.4675 0.6719 0.5792
C37 C 0.4535(15) 0.7127(19) 0.5161(5)
H36 H 0.4460 0.7932 0.5133
H37 H 0.3750 0.6799 0.5131
O13 O -0.0004(10) 0.6350(9) 0.5093(3)
C38 C -0.0198(18) 0.7414(13) 0.5246(7)
H38 H 0.0164 0.7490 0.5519
H39 H -0.1042 0.7558 0.5260
C39 C 0.0358(16) 0.8224(13) 0.4953(5)
H40 H -0.0238 0.8713 0.4828
H41 H 0.0955 0.8679 0.5096
C40 C 0.0903(16) 0.7512(15) 0.4640(5)
H42 H 0.1745 0.7409 0.4699
H43 H 0.0783 0.7825 0.4367
C41 C 0.024(2) 0.6442(13) 0.4684(5)
H44 H -0.0493 0.6458 0.4517
H45 H 0.0712 0.5814 0.4599
loop_
_geom_bond_atom_site_label_1
_geom_bond_atom_site_label_2
_geom_bond_site_symmetry_1
_geom_bond_site_symmetry_2
Cd1 N1 1_555 1_555
Cd2 O5 1_555 1_555
Br1 C4 1_555 1_555
Br2 C12 1_555 1_555
N1 C17 1_555 1_555
N2 C18 1_555 1_555
N3 C27 1_555 1_555
N4 C29 1_555 1_555
O1 Cd1 1_555 1_555
O2 Cd1 1_555 1_555
O3 C8 1_555 1_555
O4 C8 1_555 1_555
O5 Cd1 1_555 1_555
O6 Cd2 1_555 1_555
O7 C16 1_555 1_555
O8 C16 1_555 1_555
O9 Cd1 1_555 1_555
H1 O9 1_555 1_555
H2 O9 1_555 1_555
O10 Cd2 1_555 1_555
H3 O10 1_555 1_555
H4 O10 1_555 1_555
C1 O1 1_555 1_555
C2 C1 1_555 1_555
C3 C2 1_555 1_555
H5 C3 1_555 1_555
C4 C3 1_555 1_555
C5 C4 1_555 1_555
H6 C5 1_555 1_555
C6 C5 1_555 1_555
C7 C2 1_555 1_555
H7 C7 1_555 1_555
C8 C6 1_555 1_555
C9 O5 1_555 1_555
C10 C9 1_555 1_555
C11 C10 1_555 1_555
H8 C11 1_555 1_555
C12 C11 1_555 1_555
C13 C12 1_555 1_555
H9 C13 1_555 1_555
C14 C13 1_555 1_555
C15 C10 1_555 1_555
H10 C15 1_555 1_555
C16 C14 1_555 1_555
C17 H11 1_555 1_555
C18 C17 1_555 1_555
H12 C18 1_555 1_555
C19 N1 1_555 1_555
H13 C19 1_555 1_555
C20 N2 1_555 1_555
H14 C20 1_555 1_555
H15 C20 1_555 1_555
C21 C20 1_555 1_555
C22 C21 1_555 1_555
C23 C22 1_555 1_555
C24 C23 1_555 1_555
C25 C24 1_555 1_555
H16 C25 1_555 1_555
C26 C21 1_555 1_555
C27 C23 1_555 1_555
H17 C27 1_555 1_555
H18 C27 1_555 1_555
C28 N3 1_555 1_555
H19 C28 1_555 1_555
C29 C28 1_555 1_555
H20 C29 1_555 1_555
C30 N3 1_555 1_555
H21 C30 1_555 1_555
C31 C22 1_555 1_555
H22 C31 1_555 1_555
H23 C31 1_555 1_555
H24 C31 1_555 1_555
C32 C24 1_555 1_555
H25 C32 1_555 1_555
H26 C32 1_555 1_555
H27 C32 1_555 1_555
C33 C26 1_555 1_555
H28 C33 1_555 1_555
H29 C33 1_555 1_555
H30 C33 1_555 1_555
O12 C34 1_555 1_555
C34 H31 1_555 1_555
H32 C34 1_555 1_555
C35 C34 1_555 1_555
H33 C35 1_555 1_555
H34 C35 1_555 1_555
C36 C35 1_555 1_555
H35 C36 1_555 1_555
C37 O12 1_555 1_555
H36 C37 1_555 1_555
H37 C37 1_555 1_555
O13 C38 1_555 1_555
C38 H38 1_555 1_555
H39 C38 1_555 1_555
C39 C38 1_555 1_555
H40 C39 1_555 1_555
H41 C39 1_555 1_555
C40 C39 1_555 1_555
H42 C40 1_555 1_555
H43 C40 1_555 1_555
C41 O13 1_555 1_555
H44 C41 1_555 1_555
H45 C41 1_555 1_555
Cd1A O7 1_555 1_555
Cd2_2 O3 1_555 1_555
Cd2A N4 1_555 1_555
N4A Cd2 1_555 1_555
O3_2 Cd2 1_555 1_555
O4_2 Cd2 1_555 1_555
O7A Cd1 1_555 1_555
O8A Cd1 1_555 1_555
Cd2 O7A 1_555 1_555
N2 C19 1_555 1_555
N4 C30 1_555 1_555
O2 C1 1_555 1_555
O4 Cd2_2 1_555 1_555
O6 C9 1_555 1_555
O7 Cd2A 1_555 1_555
O8 Cd1A 1_555 1_555
C6 C7 1_555 1_555
C14 C15 1_555 1_555
C25 C26 1_555 1_555
C36 C37 1_555 1_555
C40 C41 1_555 1_555

#END
