
#######################################################################
#
#                 Cambridge Crystallographic Data Centre
#                                CCDC 
#
#######################################################################
#
# If this CIF has been generated from an entry in the Cambridge 
# Structural Database, then it will include bibliographic, chemical, 
# crystal, experimental, refinement or atomic coordinate data resulting 
# from the CCDC's data processing and validation procedures.
#
#######################################################################

data_XITFAI
_symmetry_cell_setting           triclinic
_symmetry_space_group_name_H-M   'P -1'
_symmetry_Int_Tables_number      2
_space_group_name_Hall           '-P 1'
loop_
_symmetry_equiv_pos_site_id
_symmetry_equiv_pos_as_xyz
1 x,y,z
2 -x,-y,-z
_cell_length_a                   11.693(2)
_cell_length_b                   12.8918(16)
_cell_length_c                   13.172(3)
_cell_angle_alpha                89.985(13)
_cell_angle_beta                 64.793(18)
_cell_angle_gamma                77.478(12)
_cell_volume                     1744.23
loop_
_atom_site_label
_atom_site_type_symbol
_atom_site_fract_x
_atom_site_fract_y
_atom_site_fract_z
I1 I 0.52286(6) 0.60044(5) 0.10849(6)
I2 I 0.59471(6) 0.59926(5) 0.40178(6)
I3 I 0.20318(6) 0.63250(6) 0.43801(6)
Cu1 Cu 0.44372(13) 0.53088(11) 0.31152(12)
Cu2 Cu 0.64393(14) 0.41109(12) -0.02385(12)
Cu3 Cu 0.65781(13) 0.39889(11) 0.45441(12)
P1 P 0.5195(3) 0.3517(2) 0.2747(2)
P2 P 0.6673(3) 0.2970(2) 0.0971(2)
P3 P 0.6890(3) 0.2882(2) 0.3075(2)
P4 P 0.8291(3) 0.1257(2) 0.1341(2)
P5 P 0.5776(3) 0.1127(2) 0.2413(3)
N1 N 0.8031(9) 0.4332(8) -0.1504(8)
C1 C 0.8932(13) 0.4458(9) -0.2189(10)
C2 C 1.0156(9) 0.4503(8) -0.3189(9)
C3 C 0.7983(9) 0.2749(8) 0.1490(7)
C4 C 0.7012(9) 0.1394(8) 0.2885(8)
C5 C 0.6824(9) 0.1509(7) 0.0932(9)
C6 C 0.4483(9) 0.2338(7) 0.3093(8)
C7 C 0.9131(10) 0.3269(9) 0.1029(9)
C8 C 0.7322(11) 0.0673(9) 0.3692(10)
C9 C 0.7023(11) 0.0828(9) -0.0079(10)
C10 C 0.3124(10) 0.2470(10) 0.3093(10)
C11 C 0.8689(9) 0.4467(8) 0.1164(7)
C12 C 0.9961(9) 0.2832(8) -0.0225(8)
C13 C 0.9992(10) 0.2902(8) 0.1656(8)
C14 C 0.6192(10) 0.0959(7) 0.4869(9)
C15 C 0.8569(10) 0.0872(8) 0.3736(9)
C16 C 0.7583(10) -0.0517(8) 0.3300(8)
C17 C 0.7343(10) -0.0376(8) 0.0046(9)
C18 C 0.8132(10) 0.1098(8) -0.1129(8)
C19 C 0.5791(10) 0.1099(7) -0.0264(8)
C20 C 0.2809(9) 0.1381(8) 0.3061(8)
C21 C 0.3124(10) 0.3007(8) 0.2054(8)
C22 C 0.2068(9) 0.3154(8) 0.4153(8)
H1 H 1.08320 0.38570 -0.32900
H2 H 1.04430 0.51340 -0.30710
H3 H 0.99980 0.45480 -0.38630
H4 H 0.42780 0.23050 0.39100
H5 H 0.81640 0.46850 0.07520
H6 H 0.94500 0.47750 0.08630
H7 H 0.81640 0.47210 0.19660
H8 H 0.94580 0.30690 -0.06530
H9 H 1.01990 0.20500 -0.02920
H10 H 1.07530 0.31010 -0.05270
H11 H 1.07330 0.32350 0.13720
H12 H 1.03120 0.21230 0.15250
H13 H 0.94740 0.31160 0.24670
H14 H 0.60550 0.17110 0.51190
H15 H 0.63940 0.05050 0.53960
H16 H 0.54000 0.08460 0.48470
H17 H 0.93050 0.06780 0.29870
H18 H 0.87630 0.04340 0.42780
H19 H 0.84250 0.16280 0.39730
H20 H 0.83220 -0.06950 0.25510
H21 H 0.68080 -0.06550 0.32640
H22 H 0.77830 -0.09590 0.38360
H23 H 0.66210 -0.05420 0.07020
H24 H 0.81400 -0.05640 0.01520
H25 H 0.74700 -0.07860 -0.06350
H26 H 0.79160 0.18630 -0.12040
H27 H 0.82400 0.06880 -0.18040
H28 H 0.89440 0.09140 -0.10470
H29 H 0.55830 0.18610 -0.03580
H30 H 0.50650 0.09370 0.03900
H31 H 0.59340 0.06750 -0.09430
H32 H 0.28130 0.10270 0.37180
H33 H 0.34650 0.09370 0.23690
H34 H 0.19470 0.14820 0.30740
H35 H 0.33250 0.37050 0.20650
H36 H 0.22630 0.31030 0.20660
H37 H 0.37820 0.25560 0.13680
H38 H 0.20650 0.28150 0.48200
H39 H 0.12190 0.32260 0.41480
H40 H 0.22390 0.38630 0.41750
I1A I 0.47714(6) 0.39956(5) -0.10849(6)
I2A I 0.40529(6) 0.40074(5) 0.59822(6)
I3A I 0.79682(6) 0.36750(6) 0.56199(6)
Cu2A Cu 0.35607(14) 0.58891(12) 0.02385(12)
Cu3A Cu 0.34219(13) 0.60111(11) 0.54559(12)
loop_
_geom_bond_atom_site_label_1
_geom_bond_atom_site_label_2
_geom_bond_site_symmetry_1
_geom_bond_site_symmetry_2
I1 Cu1 1_555 1_555
I2 Cu1 1_555 1_555
I3 Cu1 1_555 1_555
Cu1 P1 1_555 1_555
Cu2 I1 1_555 1_555
Cu3 I2 1_555 1_555
P1 P2 1_555 1_555
P2 Cu2 1_555 1_555
P3 Cu3 1_555 1_555
P4 C3 1_555 1_555
P5 C4 1_555 1_555
N1 Cu2 1_555 1_555
C1 N1 1_555 1_555
C2 C1 1_555 1_555
C3 P2 1_555 1_555
C4 P3 1_555 1_555
C5 P2 1_555 1_555
C6 P1 1_555 1_555
C7 C3 1_555 1_555
C8 C4 1_555 1_555
C9 C5 1_555 1_555
C10 C6 1_555 1_555
C11 C7 1_555 1_555
C12 C7 1_555 1_555
C13 C7 1_555 1_555
C14 C8 1_555 1_555
C15 C8 1_555 1_555
C16 C8 1_555 1_555
C17 C9 1_555 1_555
C18 C9 1_555 1_555
C19 C9 1_555 1_555
C20 C10 1_555 1_555
C21 C10 1_555 1_555
C22 C10 1_555 1_555
H1 C2 1_555 1_555
H2 C2 1_555 1_555
H3 C2 1_555 1_555
H4 C6 1_555 1_555
H5 C11 1_555 1_555
H6 C11 1_555 1_555
H7 C11 1_555 1_555
H8 C12 1_555 1_555
H9 C12 1_555 1_555
H10 C12 1_555 1_555
H11 C13 1_555 1_555
H12 C13 1_555 1_555
H13 C13 1_555 1_555
H14 C14 1_555 1_555
H15 C14 1_555 1_555
H16 C14 1_555 1_555
H17 C15 1_555 1_555
H18 C15 1_555 1_555
H19 C15 1_555 1_555
H20 C16 1_555 1_555
H21 C16 1_555 1_555
H22 C16 1_555 1_555
H23 C17 1_555 1_555
H24 C17 1_555 1_555
H25 C17 1_555 1_555
H26 C18 1_555 1_555
H27 C18 1_555 1_555
H28 C18 1_555 1_555
H29 C19 1_555 1_555
H30 C19 1_555 1_555
H31 C19 1_555 1_555
H32 C20 1_555 1_555
H33 C20 1_555 1_555
H34 C20 1_555 1_555
H35 C21 1_555 1_555
H36 C21 1_555 1_555
H37 C21 1_555 1_555
H38 C22 1_555 1_555
H39 C22 1_555 1_555
H40 C22 1_555 1_555
I1A Cu2 1_555 1_555
I2A Cu3 1_555 1_555
I3A Cu3 1_555 1_555
Cu2A I1 1_555 1_555
Cu3A I2 1_555 1_555
I3 Cu3A 1_555 1_555
P1 P3 1_555 1_555
P3 C3 1_555 1_555
P4 C4 1_555 1_555
P4 C5 1_555 1_555
P5 C5 1_555 1_555
P5 C6 1_555 1_555
I1A Cu2A 1_555 1_555
I2A Cu3A 1_555 1_555

#END
