
#######################################################################
#
#                 Cambridge Crystallographic Data Centre
#                                CCDC 
#
#######################################################################
#
# If this CIF has been generated from an entry in the Cambridge 
# Structural Database, then it will include bibliographic, chemical, 
# crystal, experimental, refinement or atomic coordinate data resulting 
# from the CCDC's data processing and validation procedures.
#
#######################################################################

data_XITKOC
_symmetry_cell_setting           monoclinic
_symmetry_space_group_name_H-M   'C 2/c'
_symmetry_Int_Tables_number      15
_space_group_name_Hall           '-C 2yn'
loop_
_symmetry_equiv_pos_site_id
_symmetry_equiv_pos_as_xyz
1 x,y,z
2 -x,y,1/2-z
3 1/2+x,1/2+y,z
4 1/2-x,1/2+y,1/2-z
5 -x,-y,-z
6 x,-y,1/2+z
7 1/2-x,1/2-y,-z
8 1/2+x,1/2-y,1/2+z
_cell_length_a                   13.6821(7)
_cell_length_b                   8.2170(7)
_cell_length_c                   16.0091(9)
_cell_angle_alpha                90
_cell_angle_beta                 105.325(4)
_cell_angle_gamma                90
_cell_volume                     1735.84
loop_
_atom_site_label
_atom_site_type_symbol
_atom_site_fract_x
_atom_site_fract_y
_atom_site_fract_z
Sr1 Sr 0.5000 0.74714(3) 0.7500
O1 O 0.54800(16) 0.4982(2) 0.67574(12)
O2 O 0.43616(13) 0.7859(2) 0.58961(10)
O3 O 0.17256(13) 1.26648(19) 0.24041(11)
O4 O 0.10891(12) 1.1042(2) 0.52859(10)
O5 O 0.32895(11) 1.1704(2) 0.25784(10)
O6 O 0.47422(12) 0.8061(2) 0.46332(10)
N1 N 0.32090(13) 1.0095(2) 0.40168(11)
O7 O 0.5000 1.0558(3) 0.7500
C1 C 0.24943(15) 1.1907(3) 0.27944(12)
C2 C 0.25903(15) 0.9731(2) 0.52384(13)
H1 H 0.2654 0.9277 0.5782
C3 C 0.32972(14) 0.9420(2) 0.47966(12)
C4 C 0.24533(14) 1.1115(2) 0.36450(12)
C5 C 0.17655(15) 1.0744(2) 0.48613(12)
C6 C 0.17172(15) 1.1439(2) 0.40533(12)
H2 H 0.1182 1.2124 0.3794
C7 C 0.42154(15) 0.8356(2) 0.51489(12)
H3 H 0.564(2) 0.520(4) 0.629(2)
H4 H 0.573(2) 0.420(4) 0.6893(19)
H5 H 0.073(3) 1.168(5) 0.506(2)
H6 H 0.357(2) 0.988(3) 0.3781(17)
H7 H 0.543(2) 1.104(4) 0.750(2)
H7A H 0.457(2) 1.104(4) 0.750(2)
O1A O 0.45200(16) 0.4982(2) 0.82426(12)
O2A O 0.56384(13) 0.7859(2) 0.91039(10)
O3A O 0.82744(13) 1.26648(19) 1.25959(11)
O4A O 0.89109(12) 1.1042(2) 0.97141(10)
O5A O 0.67105(11) 1.1704(2) 1.24216(10)
O6A O 0.52578(12) 0.8061(2) 1.03668(10)
N1A N 0.67910(13) 1.0095(2) 1.09832(11)
C1A C 0.75057(15) 1.1907(3) 1.22056(12)
C2A C 0.74097(15) 0.9731(2) 0.97616(13)
H1A H 0.7346 0.9277 0.9218
C3A C 0.67028(14) 0.9420(2) 1.02034(12)
C4A C 0.75467(14) 1.1115(2) 1.13550(12)
C5A C 0.82345(15) 1.0744(2) 1.01387(12)
C6A C 0.82828(15) 1.1439(2) 1.09467(12)
H2A H 0.8818 1.2124 1.1206
C7A C 0.57846(15) 0.8356(2) 0.98511(12)
H3A H 0.436(2) 0.520(4) 0.871(2)
H4A H 0.427(2) 0.420(4) 0.8107(19)
H5A H 0.927(3) 1.168(5) 0.994(2)
H6A H 0.643(2) 0.988(3) 1.1219(17)
Sr1D Sr 0.5000 1.25286(3) 0.2500
Sr1D_2 Sr 0.5000 1.25286(3) 1.2500
O5D O 0.67105(11) 0.8296(2) 0.74216(10)
O5E O 0.32895(11) 0.8296(2) 0.75784(10)
loop_
_geom_bond_atom_site_label_1
_geom_bond_atom_site_label_2
_geom_bond_site_symmetry_1
_geom_bond_site_symmetry_2
Sr1 O1 1_555 1_555
O1 H3 1_555 1_555
O2 Sr1 1_555 1_555
O3 C1 1_555 1_555
O4 C5 1_555 1_555
O5 C1 1_555 1_555
O6 C7 1_555 1_555
N1 C3 1_555 1_555
O7 Sr1 1_555 1_555
C1 C4 1_555 1_555
C2 H1 1_555 1_555
C3 C2 1_555 1_555
C4 N1 1_555 1_555
C5 C2 1_555 1_555
C6 C4 1_555 1_555
H2 C6 1_555 1_555
C7 O2 1_555 1_555
H4 O1 1_555 1_555
H5 O4 1_555 1_555
H6 N1 1_555 1_555
H7 O7 1_555 1_555
H7A O7 1_555 1_555
O1A Sr1 1_555 1_555
O2A Sr1 1_555 1_555
O3A C1A 1_555 1_555
O4A C5A 1_555 1_555
O5A C1A 1_555 1_555
O6A C7A 1_555 1_555
N1A C3A 1_555 1_555
C1A C4A 1_555 1_555
C2A H1A 1_555 1_555
C3A C2A 1_555 1_555
C4A N1A 1_555 1_555
C5A C2A 1_555 1_555
C6A C4A 1_555 1_555
H2A C6A 1_555 1_555
C7A O2A 1_555 1_555
H3A O1A 1_555 1_555
H4A O1A 1_555 1_555
H5A O4A 1_555 1_555
H6A N1A 1_555 1_555
Sr1D O5 1_555 1_555
Sr1D_2 O5A 1_555 1_555
O5D Sr1 1_555 1_555
O5E Sr1 1_555 1_555
C3 C7 1_555 1_555
C5 C6 1_555 1_555
C3A C7A 1_555 1_555
C5A C6A 1_555 1_555

#END
