
#######################################################################
#
#                 Cambridge Crystallographic Data Centre
#                                CCDC 
#
#######################################################################
#
# If this CIF has been generated from an entry in the Cambridge 
# Structural Database, then it will include bibliographic, chemical, 
# crystal, experimental, refinement or atomic coordinate data resulting 
# from the CCDC's data processing and validation procedures.
#
#######################################################################

data_XITMUK
_symmetry_cell_setting           triclinic
_symmetry_space_group_name_H-M   'P -1'
_symmetry_Int_Tables_number      2
_space_group_name_Hall           '-P 1'
loop_
_symmetry_equiv_pos_site_id
_symmetry_equiv_pos_as_xyz
1 x,y,z
2 -x,-y,-z
_cell_length_a                   15.792(5)
_cell_length_b                   15.821(5)
_cell_length_c                   18.031(6)
_cell_angle_alpha                100.763(4)
_cell_angle_beta                 100.701(2)
_cell_angle_gamma                100.779(3)
_cell_volume                     4232.5
loop_
_atom_site_label
_atom_site_type_symbol
_atom_site_fract_x
_atom_site_fract_y
_atom_site_fract_z
Co1 Co 0.31541(3) 0.32224(3) 0.45151(3)
Co2 Co 0.5000 -0.5000 0.5000
Co3 Co 0.36773(3) 0.37306(3) 0.30024(3)
O1 O -0.20383(16) 0.66364(19) 0.62859(15)
O2 O -0.2427(2) 0.6243(3) 0.73093(19)
F1 F 0.1801(2) 0.7922(3) 0.9030(2)
F2 F 0.2286(2) 0.8021(3) 0.7987(3)
O3 O 0.58613(18) -0.29656(19) 0.47055(18)
O4 O 0.3944(2) 0.4177(2) 0.41033(15)
O5 O 0.29370(17) 0.42343(19) 0.53230(16)
O6 O 0.3904(3) 0.2544(2) 0.2756(2)
F3 F 0.3090(2) 0.7693(3) 0.8975(2)
N1 N 0.22350(19) 0.2283(2) 0.48474(17)
C1 C 0.3023(2) 0.5381(3) 0.6378(2)
C2 C 0.3895(4) -0.2183(3) 0.2546(3)
O7 O 0.3296(2) 0.21329(18) 0.36847(18)
C3 C 0.3505(4) -0.3025(3) 0.2609(3)
H1 H 0.2983 -0.3344 0.2258
C4 C 0.2158(3) 0.4970(3) 0.6447(3)
H2 H 0.1840 0.4436 0.6116
C5 C 0.3120(3) 0.6573(3) 0.7472(3)
H3 H 0.3443 0.7103 0.7808
C6 C 0.0606(3) 0.6689(4) 0.7177(3)
H4 H 0.1040 0.6828 0.6906
C7 C 0.2277(3) 0.6183(3) 0.7547(3)
C8 C -0.0913(3) 0.6451(3) 0.7256(2)
C9 C 0.4719(4) -0.1727(3) 0.3082(3)
H5 H 0.5003 -0.1170 0.3046
N2 N 0.4139(3) 0.4290(3) 0.2183(2)
C10 C 0.4703(3) -0.2935(2) 0.3719(2)
C11 C 0.1749(4) 0.0852(3) 0.5079(3)
H6 H 0.1872 0.0307 0.5116
C12 C -0.0284(3) 0.6698(3) 0.6846(3)
H7 H -0.0435 0.6862 0.6379
C13 C 0.0764(3) 0.1820(4) 0.5079(3)
H8 H 0.0213 0.1933 0.5108
C14 C 0.3635(4) -0.0741(3) 0.2208(3)
C15 C 0.3396(2) 0.4924(2) 0.5744(2)
O8 O 0.41434(19) 0.52744(19) 0.5703(2)
O9 O 0.46714(18) -0.40330(19) 0.4440(2)
C16 C 0.4640(5) 0.4889(6) 0.0926(3)
C17 C 0.3882(4) 0.0779(3) 0.2111(3)
H9 H 0.4079 0.1207 0.1852
C18 C -0.1870(3) 0.6459(3) 0.6921(2)
C19 C 0.3469(3) 0.6156(3) 0.6886(3)
H10 H 0.4029 0.6418 0.6841
C20 C -0.0677(3) 0.6272(5) 0.7964(3)
H11 H -0.1102 0.6142 0.8246
C21 C 0.3623(3) 0.1035(3) 0.2799(2)
C22 C 0.5088(3) -0.2112(3) 0.3648(3)
H12 H 0.5616 -0.1803 0.3994
C23 C 0.1813(3) 0.5400(4) 0.7027(3)
H13 H 0.1247 0.5150 0.7068
C24 C 0.0971(4) 0.0986(4) 0.5176(3)
C25 C 0.3393(3) -0.0477(3) 0.2903(3)
H14 H 0.3236 -0.0898 0.3181
C26 C 0.3889(3) -0.3391(3) 0.3194(3)
H15 H 0.3608 -0.3944 0.3241
C27 C 0.3378(3) 0.0377(3) 0.3188(3)
H16 H 0.3202 0.0525 0.3650
C28 C 0.2405(3) 0.1493(3) 0.4922(3)
H17 H 0.2948 0.1372 0.4870
C29 C 0.5113(4) 0.5119(5) 0.1602(4)
H18 H 0.5669 0.5494 0.1692
C30 C 0.3531(5) -0.1756(4) 0.1884(3)
C31 C 0.1451(3) 0.2462(3) 0.4937(2)
H19 H 0.1353 0.3017 0.4906
C32 C 0.5105(2) -0.3342(2) 0.4339(2)
C33 C 0.0273(4) 0.0297(4) 0.5341(3)
H20 H 0.0561 -0.0035 0.5669
H21 H -0.0096 0.0593 0.5623
C34 C 0.1848(3) 0.6580(5) 0.8193(3)
C35 C 0.0839(3) 0.6485(4) 0.7867(3)
C36 C 0.2289(4) 0.7557(5) 0.8567(4)
C37 C 0.4832(4) 0.4828(5) 0.2248(4)
H22 H 0.5197 0.5061 0.2741
C38 C 0.3593(3) 0.1977(3) 0.3112(2)
C39 C 0.3804(8) 0.4573(10) 0.0899(5)
H23 H 0.3380 0.4574 0.0467
C40 C 0.3854(5) -0.0102(4) 0.1801(3)
H24 H 0.3982 -0.0264 0.1319
C41 C 0.0201(4) 0.6286(5) 0.8264(3)
H25 H 0.0359 0.6156 0.8746
F4 F 0.2854(2) 0.6007(4) 0.9008(2)
F5 F 0.4912(5) -0.1421(4) 0.1513(3)
F6 F 0.1489(3) 0.5182(4) 0.8591(3)
F7 F 0.2084(3) -0.2196(3) 0.2031(3)
F8 F 0.1823(3) 0.6424(4) 0.9489(2)
F9 F 0.2408(4) -0.3032(2) 0.1108(2)
F10 F 0.4138(5) -0.2759(3) 0.1087(2)
F11 F 0.2226(3) -0.1698(3) 0.1025(2)
C42 C 0.2559(6) -0.2156(5) 0.1528(4)
C43 C 0.1943(5) 0.5931(9) 0.8779(4)
F12 F 0.3767(5) -0.1706(3) 0.0611(2)
C44 C 0.3514(7) 0.4212(7) 0.1539(4)
H26 H 0.2925 0.3944 0.1496
C45 C 0.4094(10) -0.1899(7) 0.1273(5)
C46 C 0.4853(8) 0.5295(7) 0.0195(7)
H27 H 0.4320 0.5390 -0.0112
H28 H 0.5292 0.5850 0.0372
N1A N -0.22350(19) -0.2283(2) 0.51526(17)
C11A C -0.1749(4) -0.0852(3) 0.4921(3)
H6A H -0.1872 -0.0307 0.4884
C13A C -0.0764(3) -0.1820(4) 0.4921(3)
H8A H -0.0213 -0.1933 0.4892
C24A C -0.0971(4) -0.0986(4) 0.4824(3)
C28A C -0.2405(3) -0.1493(3) 0.5078(3)
H17A H -0.2948 -0.1372 0.5130
C31A C -0.1451(3) -0.2462(3) 0.5063(2)
H19A H -0.1353 -0.3017 0.5094
C33A C -0.0273(4) -0.0297(4) 0.4659(3)
H20A H -0.0561 0.0035 0.4331
H21A H 0.0096 -0.0593 0.4377
N2A N 0.5861(3) 0.5710(3) -0.2183(2)
C16A C 0.5360(5) 0.5111(6) -0.0926(3)
C29A C 0.4887(4) 0.4881(5) -0.1602(4)
H18A H 0.4331 0.4506 -0.1692
C37A C 0.5168(4) 0.5172(5) -0.2248(4)
H22A H 0.4803 0.4939 -0.2741
C39A C 0.6196(8) 0.5427(10) -0.0899(5)
H23A H 0.6620 0.5426 -0.0467
C44A C 0.6486(7) 0.5788(7) -0.1539(4)
H26A H 0.7075 0.6056 -0.1496
C46A C 0.5147(8) 0.4705(7) -0.0195(7)
H27A H 0.5680 0.4610 0.0112
H28A H 0.4708 0.4150 -0.0372
Co1A Co -0.31541(3) -0.32224(3) 0.54849(3)
Co3A Co -0.36773(3) -0.37306(3) 0.69976(3)
O1A O 0.20383(16) -0.66364(19) 0.37141(15)
O2A O 0.2427(2) -0.6243(3) 0.26907(19)
F1A F -0.1801(2) -0.7922(3) 0.0970(2)
F2A F -0.2286(2) -0.8021(3) 0.2013(3)
O3A O -0.58613(18) 0.29656(19) 0.52945(18)
O4A O -0.3944(2) -0.4177(2) 0.58967(15)
O5A O -0.29370(17) -0.42343(19) 0.46770(16)
O6A O -0.3904(3) -0.2544(2) 0.7244(2)
F3A F -0.3090(2) -0.7693(3) 0.1025(2)
C1A C -0.3023(2) -0.5381(3) 0.3622(2)
C2A C -0.3895(4) 0.2183(3) 0.7454(3)
O7A O -0.3296(2) -0.21329(18) 0.63153(18)
C3A C -0.3505(4) 0.3025(3) 0.7391(3)
H1A H -0.2983 0.3344 0.7742
C4A C -0.2158(3) -0.4970(3) 0.3553(3)
H2A H -0.1840 -0.4436 0.3884
C5A C -0.3120(3) -0.6573(3) 0.2528(3)
H3A H -0.3443 -0.7103 0.2192
C6A C -0.0606(3) -0.6689(4) 0.2823(3)
H4A H -0.1040 -0.6828 0.3094
C7A C -0.2277(3) -0.6183(3) 0.2453(3)
C8A C 0.0913(3) -0.6451(3) 0.2744(2)
C9A C -0.4719(4) 0.1727(3) 0.6918(3)
H5A H -0.5003 0.1170 0.6954
C10A C -0.4703(3) 0.2935(2) 0.6281(2)
C12A C 0.0284(3) -0.6698(3) 0.3154(3)
H7A H 0.0435 -0.6862 0.3621
C14A C -0.3635(4) 0.0741(3) 0.7792(3)
C15A C -0.3396(2) -0.4924(2) 0.4256(2)
O8A O -0.41434(19) -0.52744(19) 0.4297(2)
O9A O -0.46714(18) 0.40330(19) 0.5560(2)
C17A C -0.3882(4) -0.0779(3) 0.7889(3)
H9A H -0.4079 -0.1207 0.8148
C18A C 0.1870(3) -0.6459(3) 0.3079(2)
C19A C -0.3469(3) -0.6156(3) 0.3114(3)
H10A H -0.4029 -0.6418 0.3159
C20A C 0.0677(3) -0.6272(5) 0.2036(3)
H11A H 0.1102 -0.6142 0.1754
C21A C -0.3623(3) -0.1035(3) 0.7201(2)
C22A C -0.5088(3) 0.2112(3) 0.6352(3)
H12A H -0.5616 0.1803 0.6006
C23A C -0.1813(3) -0.5400(4) 0.2973(3)
H13A H -0.1247 -0.5150 0.2932
C25A C -0.3393(3) 0.0477(3) 0.7097(3)
H14A H -0.3236 0.0898 0.6819
C26A C -0.3889(3) 0.3391(3) 0.6806(3)
H15A H -0.3608 0.3944 0.6759
C27A C -0.3378(3) -0.0377(3) 0.6812(3)
H16A H -0.3202 -0.0525 0.6350
C30A C -0.3531(5) 0.1756(4) 0.8116(3)
C32A C -0.5105(2) 0.3342(2) 0.5661(2)
C34A C -0.1848(3) -0.6580(5) 0.1807(3)
C35A C -0.0839(3) -0.6485(4) 0.2133(3)
C36A C -0.2289(4) -0.7557(5) 0.1433(4)
C38A C -0.3593(3) -0.1977(3) 0.6888(2)
C40A C -0.3854(5) 0.0102(4) 0.8199(3)
H24A H -0.3982 0.0264 0.8681
C41A C -0.0201(4) -0.6286(5) 0.1736(3)
H25A H -0.0359 -0.6156 0.1254
F4A F -0.2854(2) -0.6007(4) 0.0992(2)
F5A F -0.4912(5) 0.1421(4) 0.8487(3)
F6A F -0.1489(3) -0.5182(4) 0.1409(3)
F7A F -0.2084(3) 0.2196(3) 0.7969(3)
F8A F -0.1823(3) -0.6424(4) 0.0511(2)
F9A F -0.2408(4) 0.3032(2) 0.8892(2)
F10A F -0.4138(5) 0.2759(3) 0.8913(2)
F11A F -0.2226(3) 0.1698(3) 0.8975(2)
C42A C -0.2559(6) 0.2156(5) 0.8472(4)
C43A C -0.1943(5) -0.5931(9) 0.1221(4)
F12A F -0.3767(5) 0.1706(3) 0.9389(2)
C45A C -0.4094(10) 0.1899(7) 0.8727(5)
Co1_2 Co -0.68459(3) 0.32224(3) 0.45151(3)
Co1_3 Co 0.31541(3) -0.67776(3) 0.45151(3)
Co1A_2 Co -0.31541(3) 0.67776(3) 0.54849(3)
Co1A_3 Co 0.68459(3) -0.32224(3) 0.54849(3)
Co2_2 Co -0.5000 -0.5000 0.5000
Co2_3 Co -0.5000 0.5000 0.5000
Co2_4 Co 0.5000 0.5000 0.5000
Co3_2 Co 0.36773(3) -0.62694(3) 0.30024(3)
Co3A_2 Co -0.36773(3) 0.62694(3) 0.69976(3)
Co3A_3 Co 0.63227(3) 0.62694(3) -0.30024(3)
O1_2 O -0.20383(16) -0.33636(19) 0.62859(15)
O1A_2 O 0.20383(16) 0.33636(19) 0.37141(15)
O2_2 O -0.2427(2) -0.3757(3) 0.73093(19)
O2A_2 O 0.2427(2) 0.3757(3) 0.26907(19)
O3_2 O -0.41387(18) -0.29656(19) 0.47055(18)
O3A_2 O 0.41387(18) 0.29656(19) 0.52945(18)
O4_2 O 0.3944(2) -0.5823(2) 0.41033(15)
O4A_2 O 0.6056(2) -0.4177(2) 0.58967(15)
N2A_2 N -0.4139(3) -0.4290(3) 0.7817(2)
O8_2 O 0.41434(19) -0.47256(19) 0.5703(2)
O8A_2 O 0.58566(19) -0.52744(19) 0.4297(2)
O9A_2 O 0.53286(18) -0.59670(19) 0.5560(2)
loop_
_geom_bond_atom_site_label_1
_geom_bond_atom_site_label_2
_geom_bond_site_symmetry_1
_geom_bond_site_symmetry_2
Co1 O4 1_555 1_555
Co2 O9 1_555 1_555
Co3 O4 1_555 1_555
O1 C18 1_555 1_555
O2 C18 1_555 1_555
F1 C36 1_555 1_555
F2 C36 1_555 1_555
O3 C32 1_555 1_555
O4 Co2_4 1_555 1_555
O5 Co1 1_555 1_555
O6 Co3 1_555 1_555
F3 C36 1_555 1_555
N1 Co1 1_555 1_555
C1 C4 1_555 1_555
C2 C3 1_555 1_555
O7 Co1 1_555 1_555
C3 H1 1_555 1_555
C4 H2 1_555 1_555
C5 H3 1_555 1_555
C6 H4 1_555 1_555
C7 C5 1_555 1_555
C8 C12 1_555 1_555
C9 C2 1_555 1_555
H5 C9 1_555 1_555
N2 Co3 1_555 1_555
C10 C22 1_555 1_555
C11 H6 1_555 1_555
C12 C6 1_555 1_555
H7 C12 1_555 1_555
C13 H8 1_555 1_555
C14 C25 1_555 1_555
C15 O5 1_555 1_555
O8 C15 1_555 1_555
O9 C32 1_555 1_555
C16 C29 1_555 1_555
C17 H9 1_555 1_555
C18 C8 1_555 1_555
C19 C1 1_555 1_555
H10 C19 1_555 1_555
C20 C8 1_555 1_555
H11 C20 1_555 1_555
C21 C17 1_555 1_555
C22 C9 1_555 1_555
H12 C22 1_555 1_555
C23 C4 1_555 1_555
H13 C23 1_555 1_555
C24 C11 1_555 1_555
C25 H14 1_555 1_555
C26 C3 1_555 1_555
H15 C26 1_555 1_555
C27 C21 1_555 1_555
H16 C27 1_555 1_555
C28 N1 1_555 1_555
H17 C28 1_555 1_555
C29 H18 1_555 1_555
C30 C2 1_555 1_555
C31 N1 1_555 1_555
H19 C31 1_555 1_555
C32 C10 1_555 1_555
C33 C24 1_555 1_555
H20 C33 1_555 1_555
H21 C33 1_555 1_555
C34 C7 1_555 1_555
C35 C6 1_555 1_555
C36 C34 1_555 1_555
C37 N2 1_555 1_555
H22 C37 1_555 1_555
C38 O6 1_555 1_555
C39 C16 1_555 1_555
H23 C39 1_555 1_555
C40 C14 1_555 1_555
H24 C40 1_555 1_555
C41 C20 1_555 1_555
H25 C41 1_555 1_555
F4 C43 1_555 1_555
F5 C45 1_555 1_555
F6 C43 1_555 1_555
F7 C42 1_555 1_555
F8 C43 1_555 1_555
F9 C42 1_555 1_555
F10 C45 1_555 1_555
F11 C42 1_555 1_555
C42 C30 1_555 1_555
C43 C34 1_555 1_555
F12 C45 1_555 1_555
C44 N2 1_555 1_555
H26 C44 1_555 1_555
C45 C30 1_555 1_555
C46 C16 1_555 1_555
H27 C46 1_555 1_555
H28 C46 1_555 1_555
N1A C28A 1_555 1_555
C11A H6A 1_555 1_555
C13A H8A 1_555 1_555
C24A C11A 1_555 1_555
C28A C11A 1_555 1_555
H17A C28A 1_555 1_555
C31A N1A 1_555 1_555
H19A C31A 1_555 1_555
C33A C33 1_555 1_555
H20A C33A 1_555 1_555
H21A C33A 1_555 1_555
N2A C37A 1_555 1_555
C16A C29A 1_555 1_555
C29A H18A 1_555 1_555
C37A C29A 1_555 1_555
H22A C37A 1_555 1_555
C39A C16A 1_555 1_555
H23A C39A 1_555 1_555
C44A N2A 1_555 1_555
H26A C44A 1_555 1_555
C46A C46 1_555 1_555
H27A C46A 1_555 1_555
H28A C46A 1_555 1_555
Co1A N1A 1_555 1_555
Co3A O4A 1_555 1_555
O1A C18A 1_555 1_555
O2A C18A 1_555 1_555
F1A C36A 1_555 1_555
F2A C36A 1_555 1_555
O3A C32A 1_555 1_555
O4A Co1A 1_555 1_555
O5A Co1A 1_555 1_555
O6A Co3A 1_555 1_555
F3A C36A 1_555 1_555
C1A C4A 1_555 1_555
C2A C3A 1_555 1_555
O7A Co1A 1_555 1_555
C3A H1A 1_555 1_555
C4A H2A 1_555 1_555
C5A H3A 1_555 1_555
C6A H4A 1_555 1_555
C7A C5A 1_555 1_555
C8A C12A 1_555 1_555
C9A C2A 1_555 1_555
H5A C9A 1_555 1_555
C10A C22A 1_555 1_555
C12A C6A 1_555 1_555
H7A C12A 1_555 1_555
C14A C25A 1_555 1_555
C15A O5A 1_555 1_555
O8A C15A 1_555 1_555
O9A C32A 1_555 1_555
C17A H9A 1_555 1_555
C18A C8A 1_555 1_555
C19A C1A 1_555 1_555
H10A C19A 1_555 1_555
C20A C8A 1_555 1_555
H11A C20A 1_555 1_555
C21A C17A 1_555 1_555
C22A C9A 1_555 1_555
H12A C22A 1_555 1_555
C23A C4A 1_555 1_555
H13A C23A 1_555 1_555
C25A H14A 1_555 1_555
C26A C3A 1_555 1_555
H15A C26A 1_555 1_555
C27A C21A 1_555 1_555
H16A C27A 1_555 1_555
C30A C2A 1_555 1_555
C32A C10A 1_555 1_555
C34A C7A 1_555 1_555
C35A C6A 1_555 1_555
C36A C34A 1_555 1_555
C38A O6A 1_555 1_555
C40A C14A 1_555 1_555
H24A C40A 1_555 1_555
C41A C20A 1_555 1_555
H25A C41A 1_555 1_555
F4A C43A 1_555 1_555
F5A C45A 1_555 1_555
F6A C43A 1_555 1_555
F7A C42A 1_555 1_555
F8A C43A 1_555 1_555
F9A C42A 1_555 1_555
F10A C45A 1_555 1_555
F11A C42A 1_555 1_555
C42A C30A 1_555 1_555
C43A C34A 1_555 1_555
F12A C45A 1_555 1_555
C45A C30A 1_555 1_555
Co1_2 O3A 1_555 1_555
Co1_3 O1A 1_555 1_555
Co1A_2 O1 1_555 1_555
Co1A_3 O3 1_555 1_555
Co2_2 O4A 1_555 1_555
Co2_3 O9A 1_555 1_555
Co2_4 O8 1_555 1_555
Co3_2 O2A 1_555 1_555
Co3A_2 O2 1_555 1_555
Co3A_3 N2A 1_555 1_555
O1_2 Co1A 1_555 1_555
O1A_2 Co1 1_555 1_555
O2_2 Co3A 1_555 1_555
O2A_2 Co3 1_555 1_555
O3_2 Co1A 1_555 1_555
O3A_2 Co1 1_555 1_555
O4_2 Co2 1_555 1_555
O4A_2 Co2 1_555 1_555
N2A_2 Co3A 1_555 1_555
O8_2 Co2 1_555 1_555
O8A_2 Co2 1_555 1_555
O9A_2 Co2 1_555 1_555
C1 C15 1_555 1_555
O7 C38 1_555 1_555
C5 C19 1_555 1_555
C7 C23 1_555 1_555
C10 C26 1_555 1_555
C11 C28 1_555 1_555
C13 C24 1_555 1_555
C13 C31 1_555 1_555
C14 C30 1_555 1_555
C17 C40 1_555 1_555
C21 C38 1_555 1_555
C25 C27 1_555 1_555
C29 C37 1_555 1_555
C34 C35 1_555 1_555
C35 C41 1_555 1_555
C39 C44 1_555 1_555
C13A C24A 1_555 1_555
C13A C31A 1_555 1_555
C24A C33A 1_555 1_555
C16A C46A 1_555 1_555
C39A C44A 1_555 1_555
C1A C15A 1_555 1_555
O7A C38A 1_555 1_555
C5A C19A 1_555 1_555
C7A C23A 1_555 1_555
C10A C26A 1_555 1_555
C14A C30A 1_555 1_555
O8A Co2_2 1_555 1_555
C17A C40A 1_555 1_555
C21A C38A 1_555 1_555
C25A C27A 1_555 1_555
C34A C35A 1_555 1_555
C35A C41A 1_555 1_555
Co1_3 O4_2 1_555 1_555
Co1A_3 O4A_2 1_555 1_555
Co3_2 O4_2 1_555 1_555

#END
