
#######################################################################
#
#                 Cambridge Crystallographic Data Centre
#                                CCDC 
#
#######################################################################
#
# If this CIF has been generated from an entry in the Cambridge 
# Structural Database, then it will include bibliographic, chemical, 
# crystal, experimental, refinement or atomic coordinate data resulting 
# from the CCDC's data processing and validation procedures.
#
#######################################################################

data_XITMOE
_symmetry_cell_setting           monoclinic
_symmetry_space_group_name_H-M   'P 21/c'
_symmetry_Int_Tables_number      14
_space_group_name_Hall           '-P 2ybc'
loop_
_symmetry_equiv_pos_site_id
_symmetry_equiv_pos_as_xyz
1 x,y,z
2 -x,1/2+y,1/2-z
3 -x,-y,-z
4 x,1/2-y,1/2+z
_cell_length_a                   13.336(6)
_cell_length_b                   24.714(10)
_cell_length_c                   14.403(6)
_cell_angle_alpha                90
_cell_angle_beta                 112.420(7)
_cell_angle_gamma                90
_cell_volume                     4388.21
loop_
_atom_site_label
_atom_site_type_symbol
_atom_site_fract_x
_atom_site_fract_y
_atom_site_fract_z
Co1 Co 1.32450(3) 0.01638(2) 0.99333(3)
O1 O 1.32099(19) -0.04791(10) 1.07317(18)
F1 F 1.0837(2) -0.30708(11) 1.1402(2)
N1 N 1.2909(2) -0.01030(11) 0.84946(19)
C1 C 1.2183(3) -0.11558(13) 1.1108(2)
Co2 Co 1.0000 0.0000 1.0000
O2 O 1.14220(19) -0.04307(9) 0.99645(16)
F2 F 1.0793(2) -0.33239(11) 1.2807(3)
N2 N 1.0608(2) -0.01366(11) 0.15956(19)
C2 C 1.1221(3) -0.14412(14) 1.0792(3)
H1 H 1.0640 -0.1326 1.0225
O3 O 1.5720(2) -0.43099(10) 1.34843(18)
F3 F 0.9887(2) -0.26310(12) 1.2062(3)
C3 C 1.1108(3) -0.18936(15) 1.1303(3)
H2 H 1.0452 -0.2079 1.1075
O4 O 1.54233(19) -0.44043(10) 1.48701(17)
F4 F 1.1262(3) -0.25685(13) 1.4227(2)
C4 C 1.1959(3) -0.20773(14) 1.2153(3)
O5 O 1.21717(19) 0.07403(9) 0.97234(18)
F5 F 1.0953(3) -0.18361(13) 1.3379(3)
C5 C 1.2932(3) -0.17958(16) 1.2444(3)
H3 H 1.3522 -0.1913 1.3000
O6 O 1.08687(18) 0.07084(9) 1.03341(17)
F6 F 1.2562(3) -0.20395(12) 1.4346(2)
C6 C 1.3043(3) -0.13450(16) 1.1924(3)
H4 H 1.3707 -0.1167 1.2130
F7 F 1.4579(2) 0.28797(12) 1.27588(19)
C7 C 1.2260(3) -0.06530(13) 1.0559(2)
O7 O 1.5112(4) 0.4387(2) 0.9098(3)
F8 F 1.3379(3) 0.27472(12) 1.33777(18)
O8 O 1.3715(3) 0.39875(17) 0.7932(2)
H5 H 1.3985 0.4115 0.7556
C8 C 1.4413(3) -0.37279(13) 1.3744(2)
F9 F 1.3911(2) 0.35530(12) 1.32753(19)
C9 C 1.4081(3) -0.34768(15) 1.2810(3)
H6 H 1.4392 -0.3578 1.2359
F10 F 1.1542(2) 0.32973(11) 1.2556(2)
C10 C 1.3297(3) -0.30804(16) 1.2547(3)
H7 H 1.3089 -0.2915 1.1921
F11 F 1.2044(2) 0.39757(10) 1.1927(3)
C11 C 1.2810(3) -0.29230(14) 1.3205(3)
F12 F 1.0937(2) 0.34005(11) 1.0967(2)
C12 C 1.3148(3) -0.31737(15) 1.4134(3)
H8 H 1.2836 -0.3074 1.4587
C13 C 1.3934(3) -0.35660(14) 1.4400(3)
H9 H 1.4149 -0.3726 1.5030
C14 C 1.5230(3) -0.41710(13) 1.4033(2)
C15 C 1.1833(3) -0.25313(15) 1.2825(3)
C16 C 1.0836(3) -0.28901(18) 1.2272(4)
C17 C 1.1644(5) -0.2249(2) 1.3698(4)
C18 C 1.1928(3) 0.14945(13) 1.0617(2)
C19 C 1.2767(3) 0.17684(14) 1.0482(3)
H10 H 1.3150 0.1604 1.0137
C20 C 1.3036(3) 0.22854(15) 1.0857(3)
H11 H 1.3611 0.2464 1.0774
C21 C 1.2463(3) 0.25431(13) 1.1355(3)
C22 C 1.1645(3) 0.22622(15) 1.1512(3)
H12 H 1.1266 0.2423 1.1864
C23 C 1.1390(3) 0.17407(14) 1.1146(3)
H13 H 1.0844 0.1553 1.1262
C24 C 1.1640(3) 0.09356(13) 1.0203(2)
C25 C 1.3863(3) 0.39034(17) 0.9594(3)
C26 C 1.2909(3) 0.36100(18) 0.9277(3)
H14 H 1.2505 0.3564 0.8595
C27 C 1.2561(3) 0.33871(16) 0.9975(3)
H15 H 1.1908 0.3199 0.9758
C28 C 1.3163(3) 0.34368(14) 1.0996(3)
C29 C 1.4082(3) 0.37550(17) 1.1301(3)
H16 H 1.4471 0.3813 1.1982
C30 C 1.4431(3) 0.39870(19) 1.0607(3)
H17 H 1.5051 0.4201 1.0822
C31 C 1.4300(4) 0.4120(2) 0.8854(4)
C32 C 1.2782(3) 0.31256(14) 1.1734(3)
C33 C 1.3671(4) 0.30795(17) 1.2794(3)
C34 C 1.1815(4) 0.34481(16) 1.1796(4)
C35 C 1.2046(3) -0.04090(17) 0.7987(3)
H18 H 1.1598 -0.0521 0.8311
C36 C 1.1792(4) -0.0565(2) 0.7017(3)
H19 H 1.1185 -0.0779 0.6693
C37 C 1.2447(4) -0.0402(2) 0.6514(3)
C38 C 1.3343(4) -0.00894(17) 0.7040(3)
H20 H 1.3805 0.0026 0.6732
C39 C 1.3548(3) 0.00507(14) 0.8016(3)
H21 H 1.4155 0.0261 0.8360
C40 C 1.2174(5) -0.0546(2) 0.5416(3)
H22 H 1.2831 -0.0611 0.5295
H23 H 1.1727 -0.0869 0.5235
C41 C 1.1600(6) -0.0095(3) 0.4842(4)
H24 H 1.2044 0.0227 0.5067
H25 H 1.0944 -0.0040 0.4971
C42 C 1.1612(4) 0.0023(2) 0.2183(3)
H26 H 1.2067 0.0157 0.1883
C43 C 1.1992(5) -0.0003(3) 0.3214(4)
H27 H 1.2711 0.0082 0.3597
C44 C 1.1285(5) -0.0160(2) 0.3689(3)
C45 C 1.0383(5) -0.0418(3) 0.3070(3)
H28 H 0.9980 -0.0625 0.3342
C46 C 1.0058(4) -0.0378(2) 0.2055(3)
H29 H 0.9397 -0.0534 0.1662
Co1B Co 0.67550(3) -0.01638(2) 0.00667(3)
O1B O 0.67901(19) 0.04791(10) -0.07317(18)
F1B F 0.9163(2) 0.30708(11) -0.1402(2)
N1B N 0.7091(2) 0.01030(11) 0.15054(19)
C1B C 0.7817(3) 0.11558(13) -0.1108(2)
O2B O 0.85780(19) 0.04307(9) 0.00355(16)
F2B F 0.9207(2) 0.33239(11) -0.2807(3)
N2B N 0.9392(2) 0.01366(11) 0.84044(19)
C2B C 0.8779(3) 0.14412(14) -0.0792(3)
H1B H 0.9360 0.1326 -0.0225
O3B O 0.4280(2) 0.43099(10) -0.34843(18)
F3B F 1.0113(2) 0.26310(12) -0.2062(3)
C3B C 0.8892(3) 0.18936(15) -0.1303(3)
H2B H 0.9548 0.2079 -0.1075
O4B O 0.45767(19) 0.44043(10) -0.48701(17)
F4B F 0.8738(3) 0.25685(13) -0.4227(2)
C4B C 0.8041(3) 0.20773(14) -0.2153(3)
O5B O 0.78283(19) -0.07403(9) 0.02766(18)
F5B F 0.9047(3) 0.18361(13) -0.3379(3)
C5B C 0.7068(3) 0.17958(16) -0.2444(3)
H3B H 0.6478 0.1913 -0.3000
O6B O 0.91313(18) -0.07084(9) -0.03341(17)
F6B F 0.7438(3) 0.20395(12) -0.4346(2)
C6B C 0.6957(3) 0.13450(16) -0.1924(3)
H4B H 0.6293 0.1167 -0.2130
F7B F 0.5421(2) -0.28797(12) -0.27588(19)
C7B C 0.7740(3) 0.06530(13) -0.0559(2)
O7B O 0.4888(4) -0.4387(2) 0.0902(3)
F8B F 0.6621(3) -0.27472(12) -0.33777(18)
O8B O 0.6285(3) -0.39875(17) 0.2068(2)
H5B H 0.6015 -0.4115 0.2444
C8B C 0.5587(3) 0.37279(13) -0.3744(2)
F9B F 0.6089(2) -0.35530(12) -0.32753(19)
C9B C 0.5919(3) 0.34768(15) -0.2810(3)
H6B H 0.5608 0.3578 -0.2359
F10B F 0.8458(2) -0.32973(11) -0.2556(2)
C10B C 0.6703(3) 0.30804(16) -0.2547(3)
H7B H 0.6911 0.2915 -0.1921
F11B F 0.7956(2) -0.39757(10) -0.1927(3)
C11B C 0.7190(3) 0.29230(14) -0.3205(3)
F12B F 0.9063(2) -0.34005(11) -0.0967(2)
C12B C 0.6852(3) 0.31737(15) -0.4134(3)
H8B H 0.7164 0.3074 -0.4587
C13B C 0.6066(3) 0.35660(14) -0.4400(3)
H9B H 0.5851 0.3726 -0.5030
C14B C 0.4770(3) 0.41710(13) -0.4033(2)
C15B C 0.8167(3) 0.25313(15) -0.2825(3)
C16B C 0.9164(3) 0.28901(18) -0.2272(4)
C17B C 0.8356(5) 0.2249(2) -0.3698(4)
C18B C 0.8072(3) -0.14945(13) -0.0617(2)
C19B C 0.7233(3) -0.17684(14) -0.0482(3)
H10B H 0.6850 -0.1604 -0.0137
C20B C 0.6964(3) -0.22854(15) -0.0857(3)
H11B H 0.6389 -0.2464 -0.0774
C21B C 0.7537(3) -0.25431(13) -0.1355(3)
C22B C 0.8355(3) -0.22622(15) -0.1512(3)
H12B H 0.8734 -0.2423 -0.1864
C23B C 0.8610(3) -0.17407(14) -0.1146(3)
H13B H 0.9156 -0.1553 -0.1262
C24B C 0.8360(3) -0.09356(13) -0.0203(2)
C25B C 0.6137(3) -0.39034(17) 0.0406(3)
C26B C 0.7091(3) -0.36100(18) 0.0723(3)
H14B H 0.7495 -0.3564 0.1405
C27B C 0.7439(3) -0.33871(16) 0.0025(3)
H15B H 0.8092 -0.3199 0.0242
C28B C 0.6837(3) -0.34368(14) -0.0996(3)
C29B C 0.5918(3) -0.37550(17) -0.1301(3)
H16B H 0.5529 -0.3813 -0.1982
C30B C 0.5569(3) -0.39870(19) -0.0607(3)
H17B H 0.4949 -0.4201 -0.0822
C31B C 0.5700(4) -0.4120(2) 0.1146(4)
C32B C 0.7218(3) -0.31256(14) -0.1734(3)
C33B C 0.6329(4) -0.30795(17) -0.2794(3)
C34B C 0.8185(4) -0.34481(16) -0.1796(4)
C35B C 0.7954(3) 0.04090(17) 0.2013(3)
H18B H 0.8402 0.0521 0.1689
C36B C 0.8208(4) 0.0565(2) 0.2983(3)
H19B H 0.8815 0.0779 0.3307
C37B C 0.7553(4) 0.0402(2) 0.3486(3)
C38B C 0.6657(4) 0.00894(17) 0.2960(3)
H20B H 0.6195 -0.0026 0.3268
C39B C 0.6452(3) -0.00507(14) 0.1984(3)
H21B H 0.5845 -0.0261 0.1640
C40B C 0.7826(5) 0.0546(2) 0.4584(3)
H22B H 0.7169 0.0611 0.4705
H23B H 0.8273 0.0869 0.4765
C41B C 0.8400(6) 0.0095(3) 0.5158(4)
H24B H 0.7956 -0.0227 0.4933
H25B H 0.9056 0.0040 0.5029
C42B C 0.8388(4) -0.0023(2) 0.7817(3)
H26B H 0.7933 -0.0157 0.8117
C43B C 0.8008(5) 0.0003(3) 0.6786(4)
H27B H 0.7289 -0.0082 0.6403
C44B C 0.8715(5) 0.0160(2) 0.6311(3)
C45B C 0.9617(5) 0.0418(3) 0.6930(3)
H28B H 1.0020 0.0625 0.6658
C46B C 0.9942(4) 0.0378(2) 0.7945(3)
H29B H 1.0603 0.0534 0.8338
Co1A Co 1.67550(3) -0.48362(2) 1.50667(3)
Co1C Co 0.32450(3) 0.48362(2) -0.50667(3)
Co2_2 Co 1.0000 0.0000 0.0000
O2B_2 O 0.85780(19) 0.04307(9) 1.00355(16)
N2_2 N 1.0608(2) -0.01366(11) 1.15956(19)
O4A O 1.45767(19) 0.05957(10) 1.01299(17)
O4C O 0.54233(19) -0.05957(10) -0.01299(17)
O6B_2 O 0.91313(18) -0.07084(9) 0.96659(17)
loop_
_geom_bond_atom_site_label_1
_geom_bond_atom_site_label_2
_geom_bond_site_symmetry_1
_geom_bond_site_symmetry_2
Co1 O1 1_555 1_555
O1 C7 1_555 1_555
F1 C16 1_555 1_555
N1 Co1 1_555 1_555
C1 C2 1_555 1_555
Co2 O2 1_555 1_555
O2 C7 1_555 1_555
F2 C16 1_555 1_555
N2 C42 1_555 1_555
C2 H1 1_555 1_555
O3 C14 1_555 1_555
F3 C16 1_555 1_555
C3 C2 1_555 1_555
H2 C3 1_555 1_555
O4 C14 1_555 1_555
F4 C17 1_555 1_555
C4 C3 1_555 1_555
O5 Co1 1_555 1_555
F5 C17 1_555 1_555
C5 C4 1_555 1_555
H3 C5 1_555 1_555
O6 Co2 1_555 1_555
F6 C17 1_555 1_555
C6 C1 1_555 1_555
H4 C6 1_555 1_555
F7 C33 1_555 1_555
C7 C1 1_555 1_555
O7 C31 1_555 1_555
F8 C33 1_555 1_555
O8 H5 1_555 1_555
C8 C9 1_555 1_555
F9 C33 1_555 1_555
C9 H6 1_555 1_555
F10 C34 1_555 1_555
C10 C9 1_555 1_555
H7 C10 1_555 1_555
F11 C34 1_555 1_555
C11 C10 1_555 1_555
F12 C34 1_555 1_555
C12 C11 1_555 1_555
H8 C12 1_555 1_555
C13 C8 1_555 1_555
H9 C13 1_555 1_555
C14 C8 1_555 1_555
C15 C4 1_555 1_555
C16 C15 1_555 1_555
C17 C15 1_555 1_555
C18 C19 1_555 1_555
C19 H10 1_555 1_555
C20 C19 1_555 1_555
H11 C20 1_555 1_555
C21 C20 1_555 1_555
C22 C21 1_555 1_555
H12 C22 1_555 1_555
C23 C18 1_555 1_555
H13 C23 1_555 1_555
C24 O5 1_555 1_555
C25 C26 1_555 1_555
C26 H14 1_555 1_555
C27 C26 1_555 1_555
H15 C27 1_555 1_555
C28 C27 1_555 1_555
C29 C28 1_555 1_555
H16 C29 1_555 1_555
C30 C25 1_555 1_555
H17 C30 1_555 1_555
C31 O8 1_555 1_555
C32 C21 1_555 1_555
C33 C32 1_555 1_555
C34 C32 1_555 1_555
C35 N1 1_555 1_555
H18 C35 1_555 1_555
C36 C35 1_555 1_555
H19 C36 1_555 1_555
C37 C36 1_555 1_555
C38 C37 1_555 1_555
H20 C38 1_555 1_555
C39 N1 1_555 1_555
H21 C39 1_555 1_555
C40 C37 1_555 1_555
H22 C40 1_555 1_555
H23 C40 1_555 1_555
C41 C40 1_555 1_555
H24 C41 1_555 1_555
H25 C41 1_555 1_555
C42 H26 1_555 1_555
C43 C42 1_555 1_555
H27 C43 1_555 1_555
C44 C41 1_555 1_555
C45 C44 1_555 1_555
H28 C45 1_555 1_555
C46 N2 1_555 1_555
H29 C46 1_555 1_555
Co1B O1B 1_555 1_555
O1B C7B 1_555 1_555
F1B C16B 1_555 1_555
N1B Co1B 1_555 1_555
C1B C2B 1_555 1_555
O2B C7B 1_555 1_555
F2B C16B 1_555 1_555
N2B Co2 1_555 1_555
C2B H1B 1_555 1_555
O3B C14B 1_555 1_555
F3B C16B 1_555 1_555
C3B C2B 1_555 1_555
H2B C3B 1_555 1_555
O4B C14B 1_555 1_555
F4B C17B 1_555 1_555
C4B C3B 1_555 1_555
O5B Co1B 1_555 1_555
F5B C17B 1_555 1_555
C5B C4B 1_555 1_555
H3B C5B 1_555 1_555
O6B C24B 1_555 1_555
F6B C17B 1_555 1_555
C6B C1B 1_555 1_555
H4B C6B 1_555 1_555
F7B C33B 1_555 1_555
C7B C1B 1_555 1_555
O7B C31B 1_555 1_555
F8B C33B 1_555 1_555
O8B H5B 1_555 1_555
C8B C9B 1_555 1_555
F9B C33B 1_555 1_555
C9B H6B 1_555 1_555
F10B C34B 1_555 1_555
C10B C9B 1_555 1_555
H7B C10B 1_555 1_555
F11B C34B 1_555 1_555
C11B C10B 1_555 1_555
F12B C34B 1_555 1_555
C12B C11B 1_555 1_555
H8B C12B 1_555 1_555
C13B C8B 1_555 1_555
H9B C13B 1_555 1_555
C14B C8B 1_555 1_555
C15B C4B 1_555 1_555
C16B C15B 1_555 1_555
C17B C15B 1_555 1_555
C18B C19B 1_555 1_555
C19B H10B 1_555 1_555
C20B C19B 1_555 1_555
H11B C20B 1_555 1_555
C21B C20B 1_555 1_555
C22B C21B 1_555 1_555
H12B C22B 1_555 1_555
C23B C18B 1_555 1_555
H13B C23B 1_555 1_555
C24B O5B 1_555 1_555
C25B C26B 1_555 1_555
C26B H14B 1_555 1_555
C27B C26B 1_555 1_555
H15B C27B 1_555 1_555
C28B C27B 1_555 1_555
C29B C28B 1_555 1_555
H16B C29B 1_555 1_555
C30B C25B 1_555 1_555
H17B C30B 1_555 1_555
C31B O8B 1_555 1_555
C32B C21B 1_555 1_555
C33B C32B 1_555 1_555
C34B C32B 1_555 1_555
C35B N1B 1_555 1_555
H18B C35B 1_555 1_555
C36B C35B 1_555 1_555
H19B C36B 1_555 1_555
C37B C36B 1_555 1_555
C38B C37B 1_555 1_555
H20B C38B 1_555 1_555
C39B N1B 1_555 1_555
H21B C39B 1_555 1_555
C40B C37B 1_555 1_555
H22B C40B 1_555 1_555
H23B C40B 1_555 1_555
C41B C40B 1_555 1_555
H24B C41B 1_555 1_555
H25B C41B 1_555 1_555
C42B N2B 1_555 1_555
H26B C42B 1_555 1_555
C43B C42B 1_555 1_555
H27B C43B 1_555 1_555
C44B C41B 1_555 1_555
C45B C44B 1_555 1_555
H28B C45B 1_555 1_555
C46B N2B 1_555 1_555
H29B C46B 1_555 1_555
Co1A O4 1_555 1_555
Co1C O4B 1_555 1_555
Co2_2 N2 1_555 1_555
O2B_2 Co2 1_555 1_555
N2_2 Co2 1_555 1_555
O4A Co1 1_555 1_555
O4C Co1B 1_555 1_555
O6B_2 Co2 1_555 1_555
C5 C6 1_555 1_555
O6 C24 1_555 1_555
C11 C15 1_555 1_555
C12 C13 1_555 1_555
C18 C24 1_555 1_555
C22 C23 1_555 1_555
C25 C31 1_555 1_555
C28 C32 1_555 1_555
C29 C30 1_555 1_555
C38 C39 1_555 1_555
C43 C44 1_555 1_555
C45 C46 1_555 1_555
O2B Co2_2 1_555 1_555
C5B C6B 1_555 1_555
O6B Co2_2 1_555 1_555
C11B C15B 1_555 1_555
C12B C13B 1_555 1_555
C18B C24B 1_555 1_555
C22B C23B 1_555 1_555
C25B C31B 1_555 1_555
C28B C32B 1_555 1_555
C29B C30B 1_555 1_555
C38B C39B 1_555 1_555
C43B C44B 1_555 1_555
C45B C46B 1_555 1_555

#END
