
#######################################################################
#
#                 Cambridge Crystallographic Data Centre
#                                CCDC 
#
#######################################################################
#
# If this CIF has been generated from an entry in the Cambridge 
# Structural Database, then it will include bibliographic, chemical, 
# crystal, experimental, refinement or atomic coordinate data resulting 
# from the CCDC's data processing and validation procedures.
#
#######################################################################

data_XITNUL
_symmetry_cell_setting           monoclinic
_symmetry_space_group_name_H-M   'P 21/n'
_symmetry_Int_Tables_number      14
_space_group_name_Hall           '-P 2yn'
loop_
_symmetry_equiv_pos_site_id
_symmetry_equiv_pos_as_xyz
1 x,y,z
2 1/2-x,1/2+y,1/2-z
3 -x,-y,-z
4 1/2+x,1/2-y,1/2+z
_cell_length_a                   8.7672(6)
_cell_length_b                   19.8975(14)
_cell_length_c                   11.2697(7)
_cell_angle_alpha                90
_cell_angle_beta                 108.772(7)
_cell_angle_gamma                90
_cell_volume                     1861.37
loop_
_atom_site_label
_atom_site_type_symbol
_atom_site_fract_x
_atom_site_fract_y
_atom_site_fract_z
Ag1 Ag 0.30647(4) 0.058496(18) 0.94985(3)
N1 N 0.1048(4) -0.01057(16) 0.8818(3)
N2 N -0.3367(4) 0.12667(18) 0.5355(3)
H1 H -0.342(5) 0.165(2) 0.515(4)
N3 N -0.4857(4) 0.01054(19) 0.8538(3)
N4 N -0.1528(5) -0.07670(18) 0.3984(4)
N5 N 0.4391(5) 0.1499(2) 1.0033(4)
C1 C 0.1109(5) -0.0736(2) 0.9247(4)
H2 H 0.2027 -0.0870 0.9920
C2 C -0.0092(6) -0.1193(2) 0.8757(4)
H3 H -0.0004 -0.1637 0.9082
C3 C -0.1436(5) -0.1000(2) 0.7782(4)
H4 H -0.2286 -0.1310 0.7431
C4 C -0.1534(4) -0.03533(18) 0.7322(3)
C5 C -0.0263(4) 0.00785(18) 0.7872(3)
H5 H -0.0321 0.0526 0.7566
C6 C -0.3000(4) -0.01021(18) 0.6267(3)
H6 H -0.3778 -0.0483 0.5991
C7 C -0.3830(4) 0.04624(19) 0.6737(3)
C8 C -0.3939(4) 0.11044(19) 0.6319(3)
C9 C -0.2741(4) 0.0794(2) 0.4744(3)
C10 C -0.2583(4) 0.01482(19) 0.5136(3)
C11 C -0.4424(4) 0.0286(2) 0.7727(4)
C12 C -0.4677(5) 0.1666(2) 0.6831(4)
H7 H -0.5053 0.1495 0.7505
H8 H -0.5591 0.1853 0.6161
H9 H -0.3871 0.2019 0.7164
C13 C -0.2315(5) 0.1049(2) 0.3637(4)
H10 H -0.1937 0.0675 0.3241
H11 H -0.1462 0.1387 0.3917
H12 H -0.3269 0.1252 0.3032
C14 C -0.1985(5) -0.0345(2) 0.4474(4)
C15 C 0.5066(5) 0.1983(2) 1.0377(4)
C16 C 0.5959(8) 0.2601(3) 1.0820(6)
H13 H 0.6444 0.2758 1.0199
H14 H 0.6809 0.2515 1.1617
H15 H 0.5224 0.2945 1.0942
Ag1_2 Ag -0.69353(4) 0.058496(18) 0.94985(3)
Ag1B Ag -0.30647(4) -0.058496(18) 1.05015(3)
N3_2 N 0.5143(4) 0.01054(19) 0.8538(3)
N3B N 0.4857(4) -0.01054(19) 1.1462(3)
F1 F 0.4356(4) 0.32980(15) 1.3040(3)
F2 F 0.3403(4) 0.25828(16) 1.4196(3)
F3 F 0.6038(4) 0.25756(15) 1.4352(3)
F4 F 0.4166(5) 0.21829(19) 1.2625(4)
B1 B 0.4468(6) 0.2667(3) 1.3531(5)
loop_
_geom_bond_atom_site_label_1
_geom_bond_atom_site_label_2
_geom_bond_site_symmetry_1
_geom_bond_site_symmetry_2
Ag1 N1 1_555 1_555
N1 C1 1_555 1_555
N2 H1 1_555 1_555
N3 C11 1_555 1_555
N4 C14 1_555 1_555
N5 Ag1 1_555 1_555
C1 H2 1_555 1_555
C2 C1 1_555 1_555
H3 C2 1_555 1_555
C3 C2 1_555 1_555
H4 C3 1_555 1_555
C4 C3 1_555 1_555
C5 N1 1_555 1_555
H5 C5 1_555 1_555
C6 C4 1_555 1_555
H6 C6 1_555 1_555
C7 C6 1_555 1_555
C8 N2 1_555 1_555
C9 N2 1_555 1_555
C10 C6 1_555 1_555
C11 C7 1_555 1_555
C12 C8 1_555 1_555
H7 C12 1_555 1_555
H8 C12 1_555 1_555
H9 C12 1_555 1_555
C13 C9 1_555 1_555
H10 C13 1_555 1_555
H11 C13 1_555 1_555
H12 C13 1_555 1_555
C14 C10 1_555 1_555
C15 N5 1_555 1_555
C16 C15 1_555 1_555
H13 C16 1_555 1_555
H14 C16 1_555 1_555
H15 C16 1_555 1_555
F1 B1 1_555 1_555
F2 B1 1_555 1_555
F3 B1 1_555 1_555
F4 B1 1_555 1_555
Ag1_2 N3 1_555 1_555
Ag1B N3 1_555 1_555
N3_2 Ag1 1_555 1_555
N3B Ag1 1_555 1_555
C4 C5 1_555 1_555
C7 C8 1_555 1_555
C9 C10 1_555 1_555

#END
