
#######################################################################
#
#                 Cambridge Crystallographic Data Centre
#                                CCDC 
#
#######################################################################
#
# If this CIF has been generated from an entry in the Cambridge 
# Structural Database, then it will include bibliographic, chemical, 
# crystal, experimental, refinement or atomic coordinate data resulting 
# from the CCDC's data processing and validation procedures.
#
#######################################################################

data_XITNOF
_symmetry_cell_setting           triclinic
_symmetry_space_group_name_H-M   'P -1'
_symmetry_Int_Tables_number      2
_space_group_name_Hall           '-P 1'
loop_
_symmetry_equiv_pos_site_id
_symmetry_equiv_pos_as_xyz
1 x,y,z
2 -x,-y,-z
_cell_length_a                   9.0792(4)
_cell_length_b                   11.0233(5)
_cell_length_c                   14.1410(7)
_cell_angle_alpha                97.122(2)
_cell_angle_beta                 101.625(2)
_cell_angle_gamma                92.199(2)
_cell_volume                     1372.62
loop_
_atom_site_label
_atom_site_type_symbol
_atom_site_fract_x
_atom_site_fract_y
_atom_site_fract_z
Ag1 Ag 0.266749(15) 0.162349(13) 0.336969(10)
N1 N 1.03755(18) 0.21542(15) 0.26525(12)
N2 N 0.68654(19) -0.17517(16) 0.08678(12)
H1 H 0.683(3) -0.251(3) 0.0878(19)
N3 N 0.4475(2) 0.14026(18) 0.24891(14)
N4 N 0.8505(2) 0.08894(18) -0.12122(14)
N5 N 0.7314(2) -0.01807(16) 0.56073(13)
N6 N 0.6774(2) 0.44985(16) 0.76938(13)
H2 H 0.651(3) 0.479(2) 0.818(2)
N7 N 0.3905(2) 0.33518(17) 0.44801(13)
N8 N 1.1133(2) 0.2541(2) 0.69940(18)
C1 C 0.9335(2) 0.13893(17) 0.20255(14)
H3 H 0.9509 0.0542 0.1938
C2 C 1.0108(2) 0.33427(18) 0.27826(16)
H4 H 1.0830 0.3890 0.3231
C3 C 0.8826(2) 0.38060(19) 0.22928(18)
H5 H 0.8674 0.4655 0.2401
C4 C 0.7766(2) 0.30151(18) 0.16411(16)
H6 H 0.6878 0.3316 0.1294
C5 C 0.8016(2) 0.17788(17) 0.15000(13)
C6 C 0.6835(2) 0.08704(17) 0.08241(13)
H7 H 0.6153 0.1368 0.0456
C7 C 0.6008(2) 0.01469(18) 0.14252(14)
C8 C 0.6082(2) -0.10762(18) 0.14546(13)
C9 C 0.7511(2) -0.12515(18) 0.01927(13)
C10 C 0.7490(2) -0.00310(18) 0.01389(13)
C11 C 0.5146(2) 0.08257(18) 0.20158(15)
C12 C 0.5323(2) -0.17780(19) 0.20834(15)
H8 H 0.4795 -0.1216 0.2472
H9 H 0.6080 -0.2173 0.2518
H10 H 0.4597 -0.2404 0.1671
C13 C 0.8193(2) -0.21407(18) -0.04553(15)
H11 H 0.8622 -0.1703 -0.0910
H12 H 0.7414 -0.2758 -0.0823
H13 H 0.8990 -0.2544 -0.0058
C14 C 0.8075(2) 0.04587(18) -0.06115(14)
C15 C 0.7297(2) 0.10001(19) 0.59656(15)
H14 H 0.7132 0.1190 0.6608
C16 C 0.7558(3) -0.0439(2) 0.47015(16)
H15 H 0.7579 -0.1273 0.4439
C17 C 0.7778(3) 0.0454(2) 0.41387(16)
H16 H 0.7943 0.0237 0.3499
C18 C 0.7755(3) 0.1672(2) 0.45119(16)
H17 H 0.7906 0.2301 0.4132
C19 C 0.7509(2) 0.19649(18) 0.54483(15)
C20 C 0.7550(2) 0.32832(17) 0.59361(14)
H18 H 0.7986 0.3832 0.5536
C21 C 0.5996(2) 0.36961(17) 0.60293(14)
C22 C 0.5689(2) 0.43049(17) 0.68522(14)
C23 C 0.8151(2) 0.40084(18) 0.77610(15)
C24 C 0.8553(2) 0.34419(18) 0.69584(15)
C25 C 0.4833(2) 0.35079(17) 0.51747(15)
C26 C 0.4213(2) 0.4825(2) 0.69248(15)
H19 H 0.3513 0.4645 0.6292
H20 H 0.4365 0.5714 0.7112
H21 H 0.3793 0.4456 0.7417
C27 C 0.9118(2) 0.4163(2) 0.87666(16)
H22 H 1.0077 0.3792 0.8746
H23 H 0.8598 0.3761 0.9199
H24 H 0.9312 0.5038 0.9012
C28 C 0.9996(2) 0.2948(2) 0.70149(17)
Ag1_2 Ag 1.266749(15) 0.162349(13) 0.336969(10)
Ag1A Ag 0.733251(15) -0.162349(13) 0.663031(10)
N1_2 N 0.03755(18) 0.21542(15) 0.26525(12)
N5A N 0.2686(2) 0.01807(16) 0.43927(13)
P1 P 0.5000 0.5000 0.0000
F1 F 0.45126(14) 0.42229(11) 0.08659(8)
F2 F 0.34727(13) 0.43162(11) -0.08232(8)
F3 F 0.39666(14) 0.61483(11) 0.03241(9)
F1A F 0.54874(14) 0.57771(11) -0.08659(8)
F2A F 0.65273(13) 0.56838(11) 0.08232(8)
F3A F 0.60334(14) 0.38517(11) -0.03241(9)
loop_
_geom_bond_atom_site_label_1
_geom_bond_atom_site_label_2
_geom_bond_site_symmetry_1
_geom_bond_site_symmetry_2
Ag1 N3 1_555 1_555
N1 C1 1_555 1_555
N2 H1 1_555 1_555
N3 C11 1_555 1_555
N4 C14 1_555 1_555
N5 C15 1_555 1_555
N6 H2 1_555 1_555
N7 Ag1 1_555 1_555
N8 C28 1_555 1_555
C1 H3 1_555 1_555
C2 N1 1_555 1_555
H4 C2 1_555 1_555
C3 C2 1_555 1_555
H5 C3 1_555 1_555
C4 C3 1_555 1_555
H6 C4 1_555 1_555
C5 C1 1_555 1_555
C6 C5 1_555 1_555
H7 C6 1_555 1_555
C7 C6 1_555 1_555
C8 N2 1_555 1_555
C9 N2 1_555 1_555
C10 C6 1_555 1_555
C11 C7 1_555 1_555
C12 C8 1_555 1_555
H8 C12 1_555 1_555
H9 C12 1_555 1_555
H10 C12 1_555 1_555
C13 C9 1_555 1_555
H11 C13 1_555 1_555
H12 C13 1_555 1_555
H13 C13 1_555 1_555
C14 C10 1_555 1_555
C15 H14 1_555 1_555
C16 N5 1_555 1_555
H15 C16 1_555 1_555
C17 C16 1_555 1_555
H16 C17 1_555 1_555
C18 C17 1_555 1_555
H17 C18 1_555 1_555
C19 C15 1_555 1_555
C20 C19 1_555 1_555
H18 C20 1_555 1_555
C21 C20 1_555 1_555
C22 N6 1_555 1_555
C23 N6 1_555 1_555
C24 C20 1_555 1_555
C25 N7 1_555 1_555
C26 C22 1_555 1_555
H19 C26 1_555 1_555
H20 C26 1_555 1_555
H21 C26 1_555 1_555
C27 C23 1_555 1_555
H22 C27 1_555 1_555
H23 C27 1_555 1_555
H24 C27 1_555 1_555
C28 C24 1_555 1_555
P1 F1 1_555 1_555
F2 P1 1_555 1_555
F3 P1 1_555 1_555
Ag1_2 N1 1_555 1_555
Ag1A N5 1_555 1_555
N1_2 Ag1 1_555 1_555
N5A Ag1 1_555 1_555
F1A P1 1_555 1_555
F2A P1 1_555 1_555
F3A P1 1_555 1_555
C4 C5 1_555 1_555
C7 C8 1_555 1_555
C9 C10 1_555 1_555
C18 C19 1_555 1_555
C21 C22 1_555 1_555
C21 C25 1_555 1_555
C23 C24 1_555 1_555

#END
