
#######################################################################
#
#                 Cambridge Crystallographic Data Centre
#                                CCDC 
#
#######################################################################
#
# If this CIF has been generated from an entry in the Cambridge 
# Structural Database, then it will include bibliographic, chemical, 
# crystal, experimental, refinement or atomic coordinate data resulting 
# from the CCDC's data processing and validation procedures.
#
#######################################################################

data_XITPEX
_symmetry_cell_setting           triclinic
_symmetry_space_group_name_H-M   'P -1'
_symmetry_Int_Tables_number      2
_space_group_name_Hall           '-P 1'
loop_
_symmetry_equiv_pos_site_id
_symmetry_equiv_pos_as_xyz
1 x,y,z
2 -x,-y,-z
_cell_length_a                   8.5452(4)
_cell_length_b                   12.2962(4)
_cell_length_c                   15.9721(6)
_cell_angle_alpha                84.345(3)
_cell_angle_beta                 80.885(3)
_cell_angle_gamma                71.359(4)
_cell_volume                     1568.06
loop_
_atom_site_label
_atom_site_type_symbol
_atom_site_fract_x
_atom_site_fract_y
_atom_site_fract_z
Ag1 Ag 0.377085(19) 0.107382(14) 0.306681(10)
Ag2 Ag -0.19888(2) 0.509941(14) 0.791266(10)
N1 N 0.3453(2) 0.42531(14) 0.08529(11)
N2 N 0.8286(2) -0.00375(15) -0.08336(11)
H1 H 0.836(3) -0.056(2) -0.1116(15)
N3 N 0.9746(2) 0.34213(15) -0.13952(12)
N4 N 0.5580(2) 0.09601(16) 0.19562(12)
N5 N 0.1811(2) 0.13033(14) 0.41518(10)
N6 N -0.2933(2) 0.52259(15) 0.37280(12)
H2 H -0.304(3) 0.577(2) 0.3396(15)
N7 N -0.4245(3) 0.16936(17) 0.39163(13)
N8 N -0.1754(2) 0.47683(17) 0.65722(12)
C1 C 0.2663(3) 0.44555(17) 0.01599(13)
H3 H 0.1588 0.4968 0.0191
C2 C 0.3387(3) 0.39329(17) -0.05936(13)
H4 H 0.2810 0.4098 -0.1061
C3 C 0.4982(3) 0.31603(17) -0.06453(13)
H5 H 0.5484 0.2797 -0.1147
C4 C 0.5820(2) 0.29347(16) 0.00579(12)
C5 C 0.5005(3) 0.35167(17) 0.07864(13)
H6 H 0.5573 0.3387 0.1256
C6 C 0.7490(2) 0.20065(17) 0.01029(12)
H7 H 0.8094 0.2233 0.0493
C7 C 0.8579(2) 0.17890(17) -0.07540(13)
C8 C 0.8876(2) 0.08416(17) -0.11908(13)
C9 C 0.7488(2) -0.00416(17) -0.00180(12)
C10 C 0.7178(2) 0.08760(17) 0.04507(12)
C11 C 0.9240(2) 0.26822(18) -0.11192(13)
C12 C 0.9826(3) 0.06559(19) -0.20626(13)
H8 H 1.0246 0.1289 -0.2245
H9 H 0.9101 0.0603 -0.2448
H10 H 1.0740 -0.0044 -0.2054
C13 C 0.7026(3) -0.11050(18) 0.02838(14)
H11 H 0.6511 -0.1038 0.0864
H12 H 0.8011 -0.1761 0.0244
H13 H 0.6262 -0.1198 -0.0063
C14 C 0.6312(2) 0.08878(17) 0.12899(13)
C15 C 0.2194(3) 0.06404(18) 0.48568(13)
H14 H 0.3221 0.0071 0.4838
C16 C 0.1120(3) 0.0774(2) 0.56070(14)
H15 H 0.1418 0.0298 0.6084
C17 C -0.0406(3) 0.16234(19) 0.56420(14)
H16 H -0.1148 0.1722 0.6143
C18 C -0.0822(2) 0.23269(17) 0.49242(12)
C19 C 0.0333(2) 0.21278(17) 0.41946(12)
H17 H 0.0066 0.2592 0.3709
C20 C -0.2481(2) 0.32902(17) 0.49519(12)
H18 H -0.3249 0.3106 0.5426
C21 C -0.3266(2) 0.34081(17) 0.41384(13)
C22 C -0.3414(2) 0.43075(17) 0.35691(13)
C23 C -0.2499(2) 0.53389(18) 0.44966(13)
C24 C -0.2320(2) 0.44606(18) 0.50925(13)
C25 C -0.3814(3) 0.24697(18) 0.39894(13)
C26 C -0.4119(3) 0.44287(19) 0.27542(13)
H19 H -0.4497 0.3783 0.2711
H20 H -0.3274 0.4457 0.2286
H21 H -0.5039 0.5124 0.2742
C27 C -0.2315(3) 0.64834(18) 0.46083(15)
H22 H -0.1944 0.6474 0.5146
H23 H -0.3370 0.7069 0.4590
H24 H -0.1513 0.6642 0.4161
C28 C -0.1996(3) 0.46363(18) 0.59094(14)
Cl1 Cl -0.00825(6) 0.71439(4) 0.82465(3)
O1 O 0.0236(2) 0.66087(15) 0.90642(11)
O2 O 0.1113(2) 0.77359(14) 0.79313(11)
O3 O 0.0033(2) 0.62814(13) 0.76649(10)
O4 O -0.1740(2) 0.79580(14) 0.83083(12)
Ag1_2 Ag -0.622915(19) 0.107382(14) 0.306681(10)
Ag2_2 Ag 0.80112(2) 0.509941(14) -0.208734(10)
Ag2A Ag 0.19888(2) 0.490059(14) 0.208734(10)
N1A N -0.3453(2) 0.57469(14) 0.91471(11)
N3_2 N -0.0254(2) 0.34213(15) 0.86048(12)
N7_2 N 0.5755(3) 0.16936(17) 0.39163(13)
Cl2 Cl 0.52411(7) 0.19572(4) 0.71717(3)
O5 O 0.5763(2) 0.10946(14) 0.78289(11)
O6 O 0.3532(2) 0.26299(15) 0.74000(11)
O7 O 0.5450(3) 0.14243(17) 0.63865(11)
O8 O 0.6264(2) 0.27122(14) 0.70781(12)
loop_
_geom_bond_atom_site_label_1
_geom_bond_atom_site_label_2
_geom_bond_site_symmetry_1
_geom_bond_site_symmetry_2
Ag1 N4 1_555 1_555
Ag2 N8 1_555 1_555
N1 C1 1_555 1_555
N2 H1 1_555 1_555
N3 C11 1_555 1_555
N4 C14 1_555 1_555
N5 Ag1 1_555 1_555
N6 H2 1_555 1_555
N7 C25 1_555 1_555
N8 C28 1_555 1_555
C1 H3 1_555 1_555
C2 C1 1_555 1_555
H4 C2 1_555 1_555
C3 C2 1_555 1_555
H5 C3 1_555 1_555
C4 C3 1_555 1_555
C5 N1 1_555 1_555
H6 C5 1_555 1_555
C6 C4 1_555 1_555
H7 C6 1_555 1_555
C7 C6 1_555 1_555
C8 N2 1_555 1_555
C9 N2 1_555 1_555
C10 C6 1_555 1_555
C11 C7 1_555 1_555
C12 C8 1_555 1_555
H8 C12 1_555 1_555
H9 C12 1_555 1_555
H10 C12 1_555 1_555
C13 C9 1_555 1_555
H11 C13 1_555 1_555
H12 C13 1_555 1_555
H13 C13 1_555 1_555
C14 C10 1_555 1_555
C15 N5 1_555 1_555
H14 C15 1_555 1_555
C16 C15 1_555 1_555
H15 C16 1_555 1_555
C17 C16 1_555 1_555
H16 C17 1_555 1_555
C18 C17 1_555 1_555
C19 N5 1_555 1_555
H17 C19 1_555 1_555
C20 C18 1_555 1_555
H18 C20 1_555 1_555
C21 C20 1_555 1_555
C22 N6 1_555 1_555
C23 N6 1_555 1_555
C24 C20 1_555 1_555
C25 C21 1_555 1_555
C26 C22 1_555 1_555
H19 C26 1_555 1_555
H20 C26 1_555 1_555
H21 C26 1_555 1_555
C27 C23 1_555 1_555
H22 C27 1_555 1_555
H23 C27 1_555 1_555
H24 C27 1_555 1_555
C28 C24 1_555 1_555
Cl1 O1 1_555 1_555
O2 Cl1 1_555 1_555
O3 Ag2 1_555 1_555
O4 Cl1 1_555 1_555
Cl2 O5 1_555 1_555
O6 Cl2 1_555 1_555
O7 Cl2 1_555 1_555
O8 Cl2 1_555 1_555
Ag1_2 N7 1_555 1_555
Ag2_2 N3 1_555 1_555
Ag2A N1 1_555 1_555
N1A Ag2 1_555 1_555
N3_2 Ag2 1_555 1_555
N7_2 Ag1 1_555 1_555
C4 C5 1_555 1_555
C7 C8 1_555 1_555
C9 C10 1_555 1_555
C18 C19 1_555 1_555
C21 C22 1_555 1_555
C23 C24 1_555 1_555
Cl1 O3 1_555 1_555

#END
