
#######################################################################
#
#                 Cambridge Crystallographic Data Centre
#                                CCDC 
#
#######################################################################
#
# If this CIF has been generated from an entry in the Cambridge 
# Structural Database, then it will include bibliographic, chemical, 
# crystal, experimental, refinement or atomic coordinate data resulting 
# from the CCDC's data processing and validation procedures.
#
#######################################################################

data_XITSUO
_symmetry_cell_setting           triclinic
_symmetry_space_group_name_H-M   'P -1'
_symmetry_Int_Tables_number      2
_space_group_name_Hall           '-P 1'
loop_
_symmetry_equiv_pos_site_id
_symmetry_equiv_pos_as_xyz
1 x,y,z
2 -x,-y,-z
_cell_length_a                   7.8928(5)
_cell_length_b                   9.8427(7)
_cell_length_c                   12.4498(8)
_cell_angle_alpha                81.651(1)
_cell_angle_beta                 80.424(1)
_cell_angle_gamma                88.667(1)
_cell_volume                     943.596
loop_
_atom_site_label
_atom_site_type_symbol
_atom_site_fract_x
_atom_site_fract_y
_atom_site_fract_z
Ag1 Ag 1.50123(8) 1.05091(6) 1.33886(4)
Ag2 Ag 1.85729(5) 0.91476(5) 1.49870(3)
O1 O 1.5558(5) 0.8617(4) 1.4842(3)
O2 O 1.7267(5) 0.6813(4) 1.4567(4)
O3 O 0.8835(5) 0.8486(4) 0.6700(3)
O4 O 1.0743(6) 1.0111(5) 0.6773(3)
O5 O 1.5953(5) 0.8755(5) 1.2110(4)
O6 O 1.3285(7) 0.9223(6) 1.2216(5)
O7 O 1.4367(8) 0.7770(8) 1.1182(6)
O8 O 1.5286(6) 1.2500(5) 1.1992(5)
O9 O 1.7241(7) 1.2922(7) 1.2889(5)
O10 O 1.6953(8) 1.4209(7) 1.1422(7)
N1 N 1.1815(5) 0.5559(4) 1.3459(3)
N2 N 0.9717(5) 0.7691(5) 1.0574(4)
N3 N 1.4548(8) 0.8616(7) 1.1805(8)
N4 N 1.6500(7) 1.3207(6) 1.2106(5)
C1 C 1.5877(6) 0.7436(6) 1.4577(4)
C2 C 1.4414(6) 0.6718(5) 1.4220(4)
C3 C 1.2708(7) 0.7079(6) 1.4546(5)
H1 H 1.2440 0.7723 1.5026
C4 C 1.1433(6) 0.6485(6) 1.4158(4)
H2 H 1.0294 0.6721 1.4378
C5 C 1.3437(7) 0.5164(7) 1.3156(5)
H3 H 1.3673 0.4502 1.2689
C6 C 1.4763(7) 0.5741(6) 1.3538(5)
H4 H 1.5891 0.5465 1.3331
C7 C 1.0435(7) 0.4979(6) 1.2970(5)
H5 H 0.9327 0.5121 1.3409
H6 H 1.0609 0.3998 1.2985
C8 C 1.0437(7) 0.5653(6) 1.1784(5)
H7 H 0.9726 0.5119 1.1435
H8 H 1.1598 0.5661 1.1378
C9 C 0.9757(7) 0.7121(6) 1.1739(4)
H9 H 0.8611 0.7127 1.2165
H10 H 1.0497 0.7677 1.2049
C10 C 1.1051(7) 0.8425(6) 0.9987(5)
H11 H 1.1983 0.8590 1.0319
C11 C 1.1061(7) 0.8935(6) 0.8909(4)
H12 H 1.1977 0.9470 0.8515
C12 C 0.9697(6) 0.8652(6) 0.8400(4)
C13 C 0.8316(7) 0.7883(6) 0.9025(5)
H13 H 0.7385 0.7680 0.8706
C14 C 0.8352(7) 0.7434(6) 1.0111(5)
H14 H 0.7422 0.6945 1.0538
C15 C 0.9755(7) 0.9131(6) 0.7180(4)
O1A O 1.4442(5) 1.1383(4) 1.5158(3)
O2A O 1.2733(5) 1.3187(4) 1.5433(4)
O3A O 2.1165(5) 1.1514(4) 2.3300(3)
O4A O 1.9257(6) 0.9889(5) 2.3227(3)
N1A N 1.8185(5) 1.4441(4) 1.6541(3)
N2A N 2.0283(5) 1.2309(5) 1.9426(4)
C1A C 1.4123(6) 1.2564(6) 1.5423(4)
C2A C 1.5586(6) 1.3282(5) 1.5780(4)
C3A C 1.7292(7) 1.2921(6) 1.5454(5)
H1A H 1.7560 1.2277 1.4974
C4A C 1.8567(6) 1.3515(6) 1.5842(4)
H2A H 1.9706 1.3279 1.5622
C5A C 1.6563(7) 1.4836(7) 1.6844(5)
H3A H 1.6327 1.5498 1.7311
C6A C 1.5237(7) 1.4259(6) 1.6462(5)
H4A H 1.4109 1.4535 1.6669
C7A C 1.9565(7) 1.5021(6) 1.7030(5)
H5A H 2.0673 1.4879 1.6591
H6A H 1.9391 1.6002 1.7015
C8A C 1.9563(7) 1.4347(6) 1.8216(5)
H7A H 2.0274 1.4881 1.8565
H8A H 1.8402 1.4339 1.8622
C9A C 2.0243(7) 1.2879(6) 1.8261(4)
H9A H 2.1389 1.2873 1.7835
H10A H 1.9503 1.2323 1.7951
C10A C 1.8949(7) 1.1575(6) 2.0013(5)
H11A H 1.8017 1.1410 1.9681
C11A C 1.8939(7) 1.1065(6) 2.1091(4)
H12A H 1.8023 1.0530 2.1485
C12A C 2.0303(6) 1.1348(6) 2.1600(4)
C13A C 2.1684(7) 1.2117(6) 2.0975(5)
H13A H 2.2615 1.2320 2.1294
C14A C 2.1648(7) 1.2566(6) 1.9889(5)
H14A H 2.2578 1.3055 1.9462
C15A C 2.0245(7) 1.0869(6) 2.2820(4)
Ag1A Ag 1.49877(8) 0.94909(6) 1.66114(4)
Ag2A Ag 1.14271(5) 1.08524(5) 1.50130(3)
O5A O 1.4047(5) 1.1245(5) 1.7890(4)
O6A O 1.6715(7) 1.0777(6) 1.7784(5)
O7A O 1.5633(8) 1.2230(8) 1.8818(6)
N3A N 1.5452(8) 1.1384(7) 1.8195(8)
O8A O 1.4714(6) 0.7500(5) 1.8008(5)
O9A O 1.2759(7) 0.7078(7) 1.7111(5)
O10A O 1.3047(8) 0.5791(7) 1.8578(7)
N4A N 1.3500(7) 0.6793(6) 1.7894(5)
O3_2 O 1.8835(5) 0.8486(4) 1.6700(3)
O4A_2 O 1.9257(6) 0.9889(5) 1.3227(3)
Ag2_2 Ag 0.85729(5) 0.91476(5) 0.49870(3)
Ag2A_2 Ag 1.14271(5) 1.08524(5) 0.50130(3)
Ag2A_3 Ag 2.14271(5) 1.08524(5) 2.50130(3)
Ag2_3 Ag 1.85729(5) 0.91476(5) 2.49870(3)
O3A_2 O 1.1165(5) 1.1514(4) 1.3300(3)
O4_2 O 1.0743(6) 1.0111(5) 1.6773(3)
O11 O 1.412(3) 0.486(3) 1.037(2)
O11A O 1.588(3) 0.514(3) 0.963(2)
loop_
_geom_bond_atom_site_label_1
_geom_bond_atom_site_label_2
_geom_bond_site_symmetry_1
_geom_bond_site_symmetry_2
Ag1 O1 1_555 1_555
Ag2 O1 1_555 1_555
O1 C1 1_555 1_555
O2 C1 1_555 1_555
O3 C15 1_555 1_555
O4 C15 1_555 1_555
O5 Ag1 1_555 1_555
O6 Ag1 1_555 1_555
O7 N3 1_555 1_555
O8 Ag1 1_555 1_555
O9 N4 1_555 1_555
O10 N4 1_555 1_555
N1 C4 1_555 1_555
N2 C9 1_555 1_555
N3 O5 1_555 1_555
N4 O8 1_555 1_555
C1 C2 1_555 1_555
C2 C3 1_555 1_555
C3 H1 1_555 1_555
C4 C3 1_555 1_555
H2 C4 1_555 1_555
C5 N1 1_555 1_555
H3 C5 1_555 1_555
C6 C2 1_555 1_555
H4 C6 1_555 1_555
C7 N1 1_555 1_555
H5 C7 1_555 1_555
H6 C7 1_555 1_555
C8 C7 1_555 1_555
H7 C8 1_555 1_555
H8 C8 1_555 1_555
C9 C8 1_555 1_555
H9 C9 1_555 1_555
H10 C9 1_555 1_555
C10 N2 1_555 1_555
H11 C10 1_555 1_555
C11 C10 1_555 1_555
H12 C11 1_555 1_555
C12 C11 1_555 1_555
C13 C12 1_555 1_555
H13 C13 1_555 1_555
C14 N2 1_555 1_555
H14 C14 1_555 1_555
C15 C12 1_555 1_555
O1A Ag1 1_555 1_555
O2A C1A 1_555 1_555
O3A C15A 1_555 1_555
O4A C15A 1_555 1_555
N1A C4A 1_555 1_555
N2A C9A 1_555 1_555
C1A O1A 1_555 1_555
C2A C1A 1_555 1_555
C3A C2A 1_555 1_555
H1A C3A 1_555 1_555
C4A C3A 1_555 1_555
H2A C4A 1_555 1_555
C5A N1A 1_555 1_555
H3A C5A 1_555 1_555
C6A C2A 1_555 1_555
H4A C6A 1_555 1_555
C7A N1A 1_555 1_555
H5A C7A 1_555 1_555
H6A C7A 1_555 1_555
C8A C7A 1_555 1_555
H7A C8A 1_555 1_555
H8A C8A 1_555 1_555
C9A C8A 1_555 1_555
H9A C9A 1_555 1_555
H10A C9A 1_555 1_555
C10A N2A 1_555 1_555
H11A C10A 1_555 1_555
C11A C10A 1_555 1_555
H12A C11A 1_555 1_555
C12A C11A 1_555 1_555
C13A C12A 1_555 1_555
H13A C13A 1_555 1_555
C14A N2A 1_555 1_555
H14A C14A 1_555 1_555
C15A C12A 1_555 1_555
Ag1A O1 1_555 1_555
Ag2A O1A 1_555 1_555
O5A Ag1A 1_555 1_555
O6A Ag1A 1_555 1_555
O7A N3A 1_555 1_555
N3A O5A 1_555 1_555
O8A Ag1A 1_555 1_555
O9A N4A 1_555 1_555
O10A N4A 1_555 1_555
N4A O8A 1_555 1_555
O3_2 Ag2 1_555 1_555
O4A_2 Ag2 1_555 1_555
Ag2_2 O3 1_555 1_555
Ag2A_2 O4 1_555 1_555
Ag2A_3 O3A 1_555 1_555
Ag2_3 O4A 1_555 1_555
O3A_2 Ag2A 1_555 1_555
O4_2 Ag2A 1_555 1_555
O6 N3 1_555 1_555
C5 C6 1_555 1_555
C13 C14 1_555 1_555
O1A Ag1A 1_555 1_555
C5A C6A 1_555 1_555
C13A C14A 1_555 1_555
O6A N3A 1_555 1_555

#END
