
#######################################################################
#
#                 Cambridge Crystallographic Data Centre
#                                CCDC 
#
#######################################################################
#
# If this CIF has been generated from an entry in the Cambridge 
# Structural Database, then it will include bibliographic, chemical, 
# crystal, experimental, refinement or atomic coordinate data resulting 
# from the CCDC's data processing and validation procedures.
#
#######################################################################

data_XITTIF
_symmetry_cell_setting           monoclinic
_symmetry_space_group_name_H-M   'P 21'
_symmetry_Int_Tables_number      4
_space_group_name_Hall           'P 2yb'
loop_
_symmetry_equiv_pos_site_id
_symmetry_equiv_pos_as_xyz
1 x,y,z
2 -x,1/2+y,-z
_cell_length_a                   13.1442(16)
_cell_length_b                   7.2517(9)
_cell_length_c                   13.7162(17)
_cell_angle_alpha                90
_cell_angle_beta                 117.640(4)
_cell_angle_gamma                90
_cell_volume                     1158.2
loop_
_atom_site_label
_atom_site_type_symbol
_atom_site_fract_x
_atom_site_fract_y
_atom_site_fract_z
Cu1 Cu 0.62469(3) 0.59774(5) 0.17327(3)
Cu2 Cu 0.86991(3) 0.56733(5) 0.34298(3)
Br1 Br 0.53145(2) 0.42730(4) 0.64834(2)
Br2 Br 0.96095(2) 0.69328(4) -0.14025(2)
O1 O 0.71754(16) 0.5039(3) 0.32231(16)
C1 C 0.6772(2) 0.4878(4) 0.3967(2)
C2 C 0.7451(2) 0.5326(4) 0.5069(2)
H1 H 0.8213 0.5758 0.5308
C3 C 0.7026(2) 0.5147(4) 0.5828(2)
H2 H 0.7491 0.5467 0.6578
C4 C 0.5921(2) 0.4500(4) 0.5475(2)
C5 C 0.5229(2) 0.4071(4) 0.4382(2)
H3 H 0.4466 0.3653 0.4151
C6 C 0.5638(2) 0.4244(4) 0.3615(2)
C7 C 0.4872(2) 0.3787(4) 0.2428(2)
H4 H 0.5196 0.2735 0.2204
H5 H 0.4102 0.3429 0.2326
N1 N 0.47737(19) 0.5433(3) 0.17324(19)
H6 H 0.467(3) 0.641(5) 0.199(3)
C8 C 0.3860(2) 0.5274(4) 0.0579(2)
H7 H 0.3826 0.3951 0.0361
C9 C 0.4235(2) 0.6388(4) -0.0150(2)
C10 C 0.2678(2) 0.5786(5) 0.0434(2)
H8 H 0.2494 0.5022 0.0921
H9 H 0.2105 0.5576 -0.0332
H10 H 0.2671 0.7089 0.0620
O2 O 0.53049(16) 0.6710(3) 0.02339(16)
O3 O 0.35128(16) 0.6834(3) -0.10965(16)
O4 O 0.77907(16) 0.6331(3) 0.18877(16)
C11 C 0.8226(2) 0.6329(4) 0.1173(2)
C12 C 0.7547(2) 0.5795(4) 0.0079(2)
H11 H 0.6796 0.5331 -0.0143
C13 C 0.7957(2) 0.5934(4) -0.0688(2)
H12 H 0.7481 0.5596 -0.1433
C14 C 0.9060(2) 0.6565(4) -0.0362(2)
C15 C 0.9766(2) 0.7031(4) 0.0730(2)
H13 H 1.0530 0.7428 0.0950
C16 C 0.9360(2) 0.6919(4) 0.1504(2)
C17 C 1.0104(2) 0.7706(5) 0.2643(2)
H14 H 1.0895 0.7837 0.2739
H15 H 0.9821 0.8960 0.2669
N2 N 1.01627(19) 0.6664(4) 0.35794(19)
H16 H 1.050(3) 0.747(5) 0.424(3)
C18 C 1.0956(2) 0.5065(4) 0.4015(2)
H17 H 1.0693 0.4093 0.3432
C19 C 1.0747(2) 0.4347(4) 0.4972(2)
C20 C 1.2211(3) 0.5462(5) 0.4366(3)
H18 H 1.2299 0.5840 0.3723
H19 H 1.2666 0.4349 0.4688
H20 H 1.2478 0.6455 0.4913
O5 O 0.97170(16) 0.4489(3) 0.48307(16)
O6 O 1.15361(18) 0.3665(3) 0.57977(18)
O7 O 0.62431(18) 0.8993(3) 0.24385(17)
H21 H 0.677(2) 0.910(5) 0.300(2)
H22 H 0.631(3) 0.986(4) 0.214(3)
O8 O 0.8795(2) 0.2254(4) 0.2680(2)
H23 H 0.872(3) 0.146(5) 0.303(3)
H24 H 0.817(2) 0.222(6) 0.219(3)
Cu2A Cu 1.13009(3) 0.06733(5) 0.65702(3)
O6A O 0.84639(18) 0.8665(3) 0.42023(18)
loop_
_geom_bond_atom_site_label_1
_geom_bond_atom_site_label_2
_geom_bond_site_symmetry_1
_geom_bond_site_symmetry_2
Cu1 O1 1_555 1_555
Cu2 O1 1_555 1_555
Br1 C4 1_555 1_555
Br2 C14 1_555 1_555
O1 C1 1_555 1_555
C1 C2 1_555 1_555
C2 H1 1_555 1_555
C3 C2 1_555 1_555
H2 C3 1_555 1_555
C4 C3 1_555 1_555
C5 C4 1_555 1_555
H3 C5 1_555 1_555
C6 C1 1_555 1_555
C7 C6 1_555 1_555
H4 C7 1_555 1_555
H5 C7 1_555 1_555
N1 Cu1 1_555 1_555
H6 N1 1_555 1_555
C8 N1 1_555 1_555
H7 C8 1_555 1_555
C9 C8 1_555 1_555
C10 C8 1_555 1_555
H8 C10 1_555 1_555
H9 C10 1_555 1_555
H10 C10 1_555 1_555
O2 Cu1 1_555 1_555
O3 C9 1_555 1_555
O4 Cu1 1_555 1_555
C11 O4 1_555 1_555
C12 C11 1_555 1_555
H11 C12 1_555 1_555
C13 C12 1_555 1_555
H12 C13 1_555 1_555
C14 C13 1_555 1_555
C15 C14 1_555 1_555
H13 C15 1_555 1_555
C16 C11 1_555 1_555
C17 C16 1_555 1_555
H14 C17 1_555 1_555
H15 C17 1_555 1_555
N2 Cu2 1_555 1_555
H16 N2 1_555 1_555
C18 N2 1_555 1_555
H17 C18 1_555 1_555
C19 C18 1_555 1_555
C20 C18 1_555 1_555
H18 C20 1_555 1_555
H19 C20 1_555 1_555
H20 C20 1_555 1_555
O5 Cu2 1_555 1_555
O6 C19 1_555 1_555
O7 Cu1 1_555 1_555
H21 O7 1_555 1_555
H22 O7 1_555 1_555
O8 Cu2 1_555 1_555
H23 O8 1_555 1_555
H24 O8 1_555 1_555
Cu2A O6 1_555 1_555
O6A Cu2 1_555 1_555
Cu2 O4 1_555 1_555
C5 C6 1_555 1_555
C7 N1 1_555 1_555
C9 O2 1_555 1_555
C15 C16 1_555 1_555
C17 N2 1_555 1_555
C19 O5 1_555 1_555

#END
