
#######################################################################
#
#                 Cambridge Crystallographic Data Centre
#                                CCDC 
#
#######################################################################
#
# If this CIF has been generated from an entry in the Cambridge 
# Structural Database, then it will include bibliographic, chemical, 
# crystal, experimental, refinement or atomic coordinate data resulting 
# from the CCDC's data processing and validation procedures.
#
#######################################################################

data_XITTEB
_symmetry_cell_setting           monoclinic
_symmetry_space_group_name_H-M   'P 21'
_symmetry_Int_Tables_number      4
_space_group_name_Hall           'P 2yb'
loop_
_symmetry_equiv_pos_site_id
_symmetry_equiv_pos_as_xyz
1 x,y,z
2 -x,1/2+y,-z
_cell_length_a                   13.1237(9)
_cell_length_b                   7.2533(5)
_cell_length_c                   13.6424(10)
_cell_angle_alpha                90
_cell_angle_beta                 117.0420(10)
_cell_angle_gamma                90
_cell_volume                     1156.65
loop_
_atom_site_label
_atom_site_type_symbol
_atom_site_fract_x
_atom_site_fract_y
_atom_site_fract_z
Cu1 Cu 0.36926(5) 0.44057(9) 0.34092(5)
Cu2 Cu 0.12457(5) 0.47498(9) 0.17374(5)
O1 O 0.2792(3) 0.5105(6) 0.1874(3)
C1 C 0.3230(4) 0.5098(7) 0.1138(4)
C2 C 0.2539(4) 0.4595(8) 0.0043(4)
H1 H 0.1791 0.4172 -0.0169
C3 C 0.2943(4) 0.4711(9) -0.0736(4)
H2 H 0.2467 0.4401 -0.1474
C4 C 0.4065(5) 0.5295(8) -0.0406(4)
C5 C 0.4771(5) 0.5734(7) 0.0680(4)
H3 H 0.5530 0.6094 0.0890
C6 C 0.4370(4) 0.5652(8) 0.1477(4)
C7 C 0.5114(5) 0.6410(9) 0.2597(4)
H4 H 0.5896 0.6496 0.2683
H5 H 0.4858 0.7670 0.2625
N1 N 0.5161(4) 0.5403(7) 0.3550(4)
H6 H 0.5395 0.6252 0.4112
C8 C 0.5962(4) 0.3797(8) 0.4008(4)
H7 H 0.5715 0.2820 0.3439
C9 C 0.5740(5) 0.3105(8) 0.4972(5)
C10 C 0.7208(4) 0.4217(9) 0.4352(5)
H8 H 0.7303 0.4545 0.3709
H9 H 0.7668 0.3138 0.4700
H10 H 0.7453 0.5237 0.4868
O2 O 0.4702(3) 0.3246(6) 0.4818(3)
O3 O 0.6525(3) 0.2449(6) 0.5810(3)
Cl1 Cl 0.45724(13) 0.5581(2) -0.13831(11)
O4 O 0.2167(3) 0.3804(6) 0.3227(3)
C11 C 0.1757(5) 0.3649(8) 0.3978(4)
C12 C 0.2445(5) 0.4097(8) 0.5090(4)
H11 H 0.3195 0.4519 0.5315
C13 C 0.2037(5) 0.3928(8) 0.5863(4)
H12 H 0.2504 0.4233 0.6604
C14 C 0.0924(5) 0.3299(8) 0.5521(4)
C15 C 0.0222(5) 0.2882(7) 0.4428(4)
H13 H -0.0532 0.2486 0.4209
C16 C 0.0631(4) 0.3049(8) 0.3649(4)
C17 C -0.0148(5) 0.2626(8) 0.2460(4)
H14 H 0.0150 0.1565 0.2226
H15 H -0.0911 0.2309 0.2372
N2 N -0.0229(3) 0.4258(6) 0.1758(3)
H16 H -0.0393 0.5269 0.2070
C18 C -0.1141(4) 0.4118(7) 0.0605(4)
H17 H -0.1168 0.2809 0.0390
C19 C -0.0766(5) 0.5223(8) -0.0138(4)
C20 C -0.2329(4) 0.4593(10) 0.0459(5)
H18 H -0.2886 0.4363 -0.0297
H19 H -0.2353 0.5884 0.0633
H20 H -0.2505 0.3836 0.0948
O5 O 0.0306(3) 0.5510(6) 0.0243(3)
O6 O -0.1471(3) 0.5701(6) -0.1073(3)
Cl2 Cl 0.03736(13) 0.3096(2) 0.64743(12)
O7 O 0.3787(4) 0.0953(7) 0.2666(4)
H21 H 0.310(2) 0.103(5) 0.208(2)
H22 H 0.365(4) 0.037(4) 0.317(3)
O8 O 0.1241(3) 0.7801(6) 0.2456(3)
H23 H 0.123(5) 0.875(3) 0.202(2)
H24 H 0.187(3) 0.808(4) 0.309(3)
Cu1A Cu 0.63074(5) -0.05943(9) 0.65908(5)
O3A O 0.3475(3) 0.7449(6) 0.4190(3)
loop_
_geom_bond_atom_site_label_1
_geom_bond_atom_site_label_2
_geom_bond_site_symmetry_1
_geom_bond_site_symmetry_2
Cu1 O1 1_555 1_555
Cu2 O1 1_555 1_555
O1 C1 1_555 1_555
C1 C2 1_555 1_555
C2 H1 1_555 1_555
C3 C2 1_555 1_555
H2 C3 1_555 1_555
C4 C3 1_555 1_555
C5 C4 1_555 1_555
H3 C5 1_555 1_555
C6 C1 1_555 1_555
C7 C6 1_555 1_555
H4 C7 1_555 1_555
H5 C7 1_555 1_555
N1 Cu1 1_555 1_555
H6 N1 1_555 1_555
C8 N1 1_555 1_555
H7 C8 1_555 1_555
C9 C8 1_555 1_555
C10 C8 1_555 1_555
H8 C10 1_555 1_555
H9 C10 1_555 1_555
H10 C10 1_555 1_555
O2 Cu1 1_555 1_555
O3 C9 1_555 1_555
Cl1 C4 1_555 1_555
O4 Cu1 1_555 1_555
C11 O4 1_555 1_555
C12 C11 1_555 1_555
H11 C12 1_555 1_555
C13 C12 1_555 1_555
H12 C13 1_555 1_555
C14 C13 1_555 1_555
C15 C14 1_555 1_555
H13 C15 1_555 1_555
C16 C11 1_555 1_555
C17 C16 1_555 1_555
H14 C17 1_555 1_555
H15 C17 1_555 1_555
N2 Cu2 1_555 1_555
H16 N2 1_555 1_555
C18 N2 1_555 1_555
H17 C18 1_555 1_555
C19 C18 1_555 1_555
C20 C18 1_555 1_555
H18 C20 1_555 1_555
H19 C20 1_555 1_555
H20 C20 1_555 1_555
O5 Cu2 1_555 1_555
O6 C19 1_555 1_555
Cl2 C14 1_555 1_555
O7 Cu1 1_555 1_555
H21 O7 1_555 1_555
H22 O7 1_555 1_555
O8 Cu2 1_555 1_555
H23 O8 1_555 1_555
H24 O8 1_555 1_555
Cu1A O3 1_555 1_555
O3A Cu1 1_555 1_555
Cu2 O4 1_555 1_555
C5 C6 1_555 1_555
C7 N1 1_555 1_555
C9 O2 1_555 1_555
C15 C16 1_555 1_555
C17 N2 1_555 1_555
C19 O5 1_555 1_555

#END
