
#######################################################################
#
#                 Cambridge Crystallographic Data Centre
#                                CCDC 
#
#######################################################################
#
# If this CIF has been generated from an entry in the Cambridge 
# Structural Database, then it will include bibliographic, chemical, 
# crystal, experimental, refinement or atomic coordinate data resulting 
# from the CCDC's data processing and validation procedures.
#
#######################################################################

data_XITTUR
_symmetry_cell_setting           orthorhombic
_symmetry_space_group_name_H-M   'P 21 21 21'
_symmetry_Int_Tables_number      19
_space_group_name_Hall           'P 2ac 2ab'
loop_
_symmetry_equiv_pos_site_id
_symmetry_equiv_pos_as_xyz
1 x,y,z
2 1/2-x,-y,1/2+z
3 -x,1/2+y,1/2-z
4 1/2+x,1/2-y,-z
_cell_length_a                   10.1311(4)
_cell_length_b                   12.0085(6)
_cell_length_c                   26.9697(13)
_cell_angle_alpha                90
_cell_angle_beta                 90
_cell_angle_gamma                90
_cell_volume                     3281.12
loop_
_atom_site_label
_atom_site_type_symbol
_atom_site_fract_x
_atom_site_fract_y
_atom_site_fract_z
Cu1 Cu 0.58610(4) 0.69698(3) 0.524958(12)
Cu2 Cu 0.64442(4) 0.51469(3) 0.450817(12)
Br1 Br 0.78178(5) 0.25170(4) 0.694930(14)
Br2 Br 0.66297(4) 0.98216(3) 0.279022(12)
O1 O 0.6468(2) 0.54529(17) 0.52137(7)
O2 O 0.4850(2) 0.83112(17) 0.52527(7)
O3 O 0.3749(2) 0.94641(19) 0.57501(7)
O4 O 0.5953(2) 0.67174(17) 0.45291(7)
O5 O 0.6609(2) 0.35719(17) 0.45201(7)
O6 O 0.6371(2) 0.2062(2) 0.40538(9)
O7 O 0.7897(2) 0.7622(2) 0.54327(8)
H1 H 0.815(3) 0.8291(13) 0.5400(13)
H2 H 0.849(3) 0.724(3) 0.5293(11)
N1 N 0.5446(2) 0.6854(2) 0.59718(9)
H3 H 0.619(4) 0.690(3) 0.6129(12)
N2 N 0.6384(3) 0.5016(2) 0.37781(8)
H4 H 0.713(4) 0.520(3) 0.3712(11)
C1 C 0.6817(3) 0.4838(3) 0.56129(10)
C2 C 0.7934(3) 0.4178(3) 0.56041(11)
H5 H 0.8485 0.4179 0.5319
C3 C 0.8262(4) 0.3510(3) 0.60094(12)
H6 H 0.9027 0.3053 0.6001
C4 C 0.7459(4) 0.3525(3) 0.64204(12)
C5 C 0.6371(4) 0.4213(3) 0.64504(12)
H7 H 0.5846 0.4223 0.6742
C6 C 0.6049(3) 0.4893(3) 0.60483(11)
C7 C 0.4937(3) 0.5716(3) 0.60834(12)
H8 H 0.4235 0.5516 0.5844
H9 H 0.4555 0.5700 0.6421
C8 C 0.4557(3) 0.7783(3) 0.61154(10)
H10 H 0.3675 0.7449 0.6191
C9 C 0.4361(3) 0.8596(3) 0.56769(11)
C10 C 0.5018(4) 0.8409(3) 0.65880(11)
H11 H 0.4346 0.8998 0.6658
C11 C 0.6328(4) 0.8995(3) 0.65122(14)
H12 H 0.6538 0.9440 0.6806
H13 H 0.6270 0.9483 0.6222
H14 H 0.7023 0.8440 0.6459
C12 C 0.5041(4) 0.7630(4) 0.70355(12)
H15 H 0.5651 0.7013 0.6971
H16 H 0.4153 0.7334 0.7093
H17 H 0.5335 0.8042 0.7329
C13 C 0.6013(3) 0.7416(3) 0.41382(10)
C14 C 0.6259(3) 0.8550(3) 0.42096(11)
H18 H 0.6333 0.8829 0.4538
C15 C 0.6398(3) 0.9273(3) 0.38167(11)
H19 H 0.6550 1.0044 0.3871
C16 C 0.6310(4) 0.8847(3) 0.33408(11)
C17 C 0.5998(3) 0.7734(3) 0.32593(11)
H20 H 0.5896 0.7469 0.2930
C18 C 0.5835(3) 0.7007(3) 0.36525(10)
C19 C 0.5424(3) 0.5817(3) 0.35632(11)
H21 H 0.4545 0.5690 0.3713
H22 H 0.5350 0.5685 0.3202
C20 C 0.6210(3) 0.3824(3) 0.36419(11)
H23 H 0.5276 0.3725 0.3529
C21 C 0.6412(3) 0.3078(3) 0.41013(11)
C22 C 0.7120(4) 0.3428(3) 0.32156(12)
H24 H 0.6837 0.2656 0.3126
C23 C 0.8564(4) 0.3359(3) 0.33797(12)
H25 H 0.9117 0.3159 0.3095
H26 H 0.8654 0.2791 0.3638
H27 H 0.8844 0.4083 0.3511
C24 C 0.6975(5) 0.4140(4) 0.27485(13)
H28 H 0.6051 0.4137 0.2641
H29 H 0.7531 0.3833 0.2485
H30 H 0.7250 0.4905 0.2821
Cu2C Cu 0.14442(4) 0.98531(3) 0.549183(12)
O3C O 0.8749(2) 0.55359(19) 0.42499(7)
O8 O 0.8080(7) 0.6679(8) 0.6426(3)
S1 S 0.78860(13) 1.05306(10) 0.50234(6)
O9 O 0.8597(3) 0.9883(3) 0.54300(13)
C25 C 0.8870(3) 1.1687(3) 0.48673(12)
H31 H 0.9694 1.1430 0.4716
H32 H 0.9070 1.2115 0.5167
H33 H 0.8392 1.2161 0.4632
C26 C 0.6528(3) 1.1196(3) 0.52872(15)
H34 H 0.5890 1.0638 0.5399
H35 H 0.6113 1.1681 0.5040
H36 H 0.6819 1.1645 0.5570
S2? S 0.8200(3) 1.0837(3) 0.53196(14)
O10? O 0.8384(10) 0.9642(5) 0.5143(4)
H37? H 0.9829 1.1587 0.4859
H38? H 0.8664 1.2467 0.4943
H39? H 0.8495 1.1491 0.4544
H40? H 0.6037 1.0789 0.5542
H41? H 0.6182 1.1002 0.4959
H42? H 0.6430 1.1999 0.5342
loop_
_geom_bond_atom_site_label_1
_geom_bond_atom_site_label_2
_geom_bond_site_symmetry_1
_geom_bond_site_symmetry_2
Cu1 O1 1_555 1_555
Cu2 O1 1_555 1_555
Br1 C4 1_555 1_555
Br2 C16 1_555 1_555
O1 C1 1_555 1_555
O2 Cu1 1_555 1_555
O3 C9 1_555 1_555
O4 Cu1 1_555 1_555
O5 Cu2 1_555 1_555
O6 C21 1_555 1_555
O7 Cu1 1_555 1_555
H1 O7 1_555 1_555
H2 O7 1_555 1_555
N1 Cu1 1_555 1_555
H3 N1 1_555 1_555
N2 Cu2 1_555 1_555
H4 N2 1_555 1_555
C1 C2 1_555 1_555
C2 H5 1_555 1_555
C3 C2 1_555 1_555
H6 C3 1_555 1_555
C4 C3 1_555 1_555
C5 C4 1_555 1_555
H7 C5 1_555 1_555
C6 C1 1_555 1_555
C7 N1 1_555 1_555
H8 C7 1_555 1_555
H9 C7 1_555 1_555
C8 N1 1_555 1_555
H10 C8 1_555 1_555
C9 O2 1_555 1_555
C10 C8 1_555 1_555
H11 C10 1_555 1_555
C11 C10 1_555 1_555
H12 C11 1_555 1_555
H13 C11 1_555 1_555
H14 C11 1_555 1_555
C12 C10 1_555 1_555
H15 C12 1_555 1_555
H16 C12 1_555 1_555
H17 C12 1_555 1_555
C13 O4 1_555 1_555
C14 C13 1_555 1_555
H18 C14 1_555 1_555
C15 C14 1_555 1_555
H19 C15 1_555 1_555
C16 C15 1_555 1_555
C17 C16 1_555 1_555
H20 C17 1_555 1_555
C18 C13 1_555 1_555
C19 N2 1_555 1_555
H21 C19 1_555 1_555
H22 C19 1_555 1_555
C20 N2 1_555 1_555
H23 C20 1_555 1_555
C21 O5 1_555 1_555
C22 C20 1_555 1_555
H24 C22 1_555 1_555
C23 C22 1_555 1_555
H25 C23 1_555 1_555
H26 C23 1_555 1_555
H27 C23 1_555 1_555
C24 C22 1_555 1_555
H28 C24 1_555 1_555
H29 C24 1_555 1_555
H30 C24 1_555 1_555
S1 O9 1_555 1_555
C25 S1 1_555 1_555
H31 C25 1_555 1_555
H32 C25 1_555 1_555
H33 C25 1_555 1_555
C26 S1 1_555 1_555
H34 C26 1_555 1_555
H35 C26 1_555 1_555
H36 C26 1_555 1_555
Cu2C O3 1_555 1_555
O3C Cu2 1_555 1_555
Cu2 O4 1_555 1_555
C5 C6 1_555 1_555
C6 C7 1_555 1_555
C8 C9 1_555 1_555
C17 C18 1_555 1_555
C18 C19 1_555 1_555
C20 C21 1_555 1_555

#END
