
#######################################################################
#
#                 Cambridge Crystallographic Data Centre
#                                CCDC 
#
#######################################################################
#
# If this CIF has been generated from an entry in the Cambridge 
# Structural Database, then it will include bibliographic, chemical, 
# crystal, experimental, refinement or atomic coordinate data resulting 
# from the CCDC's data processing and validation procedures.
#
#######################################################################

data_XITTAV
_symmetry_cell_setting           monoclinic
_symmetry_space_group_name_H-M   'P 21/c'
_symmetry_Int_Tables_number      14
_space_group_name_Hall           '-P 2ybc'
loop_
_symmetry_equiv_pos_site_id
_symmetry_equiv_pos_as_xyz
1 x,y,z
2 x,1/2-y,1/2+z
3 -x,-y,-z
4 -x,1/2+y,1/2-z
_cell_length_a                   5.7779(2)
_cell_length_b                   12.8758(4)
_cell_length_c                   25.7377(7)
_cell_angle_alpha                90
_cell_angle_beta                 90.487(1)
_cell_angle_gamma                90
_cell_volume                     1914.69
loop_
_atom_site_label
_atom_site_type_symbol
_atom_site_fract_x
_atom_site_fract_y
_atom_site_fract_z
Ag1 Ag 0.80501(8) 0.43690(4) 0.513844(18)
O3 O 0.6369(7) 0.5128(4) 0.44570(16)
O4 O 0.9498(7) 0.6006(4) 0.42199(17)
O5 O 0.6111(8) 0.2275(4) 0.0104(2)
O6 O 0.9140(9) 0.3285(4) -0.0063(2)
N1 N 0.4137(8) 0.6678(4) 0.27688(16)
N2 N 0.4126(8) 0.5548(4) 0.09875(16)
C1 C 0.7495(10) 0.5698(4) 0.4163(2)
C2 C 0.6244(9) 0.6064(4) 0.36720(19)
C3 C 0.7217(9) 0.6822(4) 0.3366(2)
H1 H 0.8607 0.7132 0.3464
C4 C 0.6106(10) 0.7116(5) 0.2914(2)
H2 H 0.6752 0.7630 0.2707
C5 C 0.3137(10) 0.5956(6) 0.3066(2)
H3 H 0.1731 0.5667 0.2963
C6 C 0.4176(10) 0.5638(5) 0.3523(2)
H4 H 0.3474 0.5137 0.3729
C7 C 0.3104(11) 0.6946(5) 0.2253(2)
H5 H 0.1434 0.6874 0.2263
H6 H 0.3473 0.7658 0.2163
C8 C 0.4094(11) 0.6220(5) 0.1864(2)
H7 H 0.3773 0.5512 0.1970
H8 H 0.5761 0.6307 0.1858
C9 C 0.3133(11) 0.6386(5) 0.1317(2)
H9 H 0.1456 0.6344 0.1317
H10 H 0.3581 0.7063 0.1187
C10 C 0.6176(10) 0.5705(4) 0.0763(2)
H11 H 0.6894 0.6350 0.0790
C11 C 0.7213(10) 0.4927(5) 0.0494(2)
H12 H 0.8643 0.5039 0.0341
C12 C 0.6150(10) 0.3969(4) 0.0449(2)
C13 C 0.4033(10) 0.3829(5) 0.0685(2)
H13 H 0.3273 0.3194 0.0659
C14 C 0.3071(10) 0.4619(5) 0.0956(2)
H14 H 0.1665 0.4518 0.1121
C15 C 0.7241(11) 0.3093(5) 0.0136(2)
O4B O 1.0502(7) 0.3994(4) 0.57801(17)
O5A O 0.6111(8) 0.2725(4) 0.5104(2)
Ag1B Ag 1.19499(8) 0.56310(4) 0.486156(18)
Ag1A Ag 0.80501(8) 0.06310(4) 0.013844(18)
O1 O 0.8036(9) 0.8191(4) 0.0513(2)
O2 O 0.8331(16) 0.7980(6) 0.1584(3)
B1 B 0.8581(13) 0.4336(6) 0.2151(3)
F1 F 0.9230(18) 0.5342(9) 0.2037(5)
F2 F 0.6518(16) 0.4277(7) 0.2398(4)
F3 F 1.0421(19) 0.4000(9) 0.2490(5)
F4 F 0.864(2) 0.3611(11) 0.1779(5)
F5? F 0.832(3) 0.4681(14) 0.2618(7)
F6? F 0.634(2) 0.4017(10) 0.2064(6)
F7? F 0.9031(16) 0.5111(8) 0.1789(4)
F8? F 1.010(3) 0.3628(14) 0.2122(7)
loop_
_geom_bond_atom_site_label_1
_geom_bond_atom_site_label_2
_geom_bond_site_symmetry_1
_geom_bond_site_symmetry_2
Ag1 O3 1_555 1_555
O3 C1 1_555 1_555
O4 C1 1_555 1_555
O5 C15 1_555 1_555
O6 C15 1_555 1_555
N1 C4 1_555 1_555
N2 C9 1_555 1_555
C1 C2 1_555 1_555
C2 C3 1_555 1_555
C3 H1 1_555 1_555
C4 C3 1_555 1_555
H2 C4 1_555 1_555
C5 N1 1_555 1_555
H3 C5 1_555 1_555
C6 C2 1_555 1_555
H4 C6 1_555 1_555
C7 N1 1_555 1_555
H5 C7 1_555 1_555
H6 C7 1_555 1_555
C8 C7 1_555 1_555
H7 C8 1_555 1_555
H8 C8 1_555 1_555
C9 C8 1_555 1_555
H9 C9 1_555 1_555
H10 C9 1_555 1_555
C10 N2 1_555 1_555
H11 C10 1_555 1_555
C11 C10 1_555 1_555
H12 C11 1_555 1_555
C12 C11 1_555 1_555
C13 C12 1_555 1_555
H13 C13 1_555 1_555
C14 N2 1_555 1_555
H14 C14 1_555 1_555
C15 C12 1_555 1_555
B1 F1 1_555 1_555
F2 B1 1_555 1_555
F3 B1 1_555 1_555
F4 B1 1_555 1_555
O4B Ag1 1_555 1_555
O5A Ag1 1_555 1_555
Ag1B O4 1_555 1_555
Ag1A O5 1_555 1_555
C5 C6 1_555 1_555
C13 C14 1_555 1_555

#END
