
#######################################################################
#
#                 Cambridge Crystallographic Data Centre
#                                CCDC 
#
#######################################################################
#
# If this CIF has been generated from an entry in the Cambridge 
# Structural Database, then it will include bibliographic, chemical, 
# crystal, experimental, refinement or atomic coordinate data resulting 
# from the CCDC's data processing and validation procedures.
#
#######################################################################

data_XITTEZ
_symmetry_cell_setting           monoclinic
_symmetry_space_group_name_H-M   'P 21/c'
_symmetry_Int_Tables_number      14
_space_group_name_Hall           '-P 2ybc'
loop_
_symmetry_equiv_pos_site_id
_symmetry_equiv_pos_as_xyz
1 x,y,z
2 x,1/2-y,1/2+z
3 -x,-y,-z
4 -x,1/2+y,1/2-z
_cell_length_a                   5.7755(3)
_cell_length_b                   30.745(1)
_cell_length_c                   12.1968(5)
_cell_angle_alpha                90
_cell_angle_beta                 92.125(1)
_cell_angle_gamma                90
_cell_volume                     2164.27
loop_
_atom_site_label
_atom_site_type_symbol
_atom_site_fract_x
_atom_site_fract_y
_atom_site_fract_z
Ag1 Ag 0.21027(9) 0.481875(17) 0.58444(5)
Ag2 Ag 0.63854(12) 0.51153(3) 0.70819(9)
O1 O 0.840(2) 0.5092(4) 0.8993(10)
O2 O 0.4427(7) 0.42838(15) 0.5301(4)
O3 O 0.7690(8) 0.46234(14) 0.5891(4)
O4 O 0.6187(8) 0.06060(17) 0.7495(5)
O5 O 0.9537(8) 0.03986(15) 0.8314(4)
N1 N 1.0630(8) 0.31720(15) 0.5018(4)
N2 N 1.1470(9) 0.16113(16) 0.5774(4)
C1 C 0.6550(11) 0.4301(2) 0.5542(5)
C2 C 0.7940(10) 0.38918(18) 0.5369(5)
C3 C 0.7408(11) 0.3609(2) 0.4517(5)
H1 H 0.6106 0.3658 0.4062
C4 C 0.8786(12) 0.3259(2) 0.4343(5)
H2 H 0.8451 0.3076 0.3750
C5 C 1.1133(11) 0.3432(2) 0.5878(6)
H3 H 1.2389 0.3367 0.6349
C6 C 0.9807(11) 0.3794(2) 0.6069(5)
H4 H 1.0165 0.3973 0.6668
C7 C 1.2053(12) 0.27817(19) 0.4800(6)
H5 H 1.3651 0.2835 0.5034
H6 H 1.2007 0.2720 0.4020
C8 C 1.1116(11) 0.23946(19) 0.5420(5)
H7 H 0.9487 0.2355 0.5224
H8 H 1.1259 0.2449 0.6203
C9 C 1.2444(12) 0.1983(2) 0.5146(6)
H9 H 1.2296 0.1924 0.4365
H10 H 1.4075 0.2019 0.5344
C10 C 1.2477(11) 0.1489(2) 0.6733(6)
H11 H 1.3822 0.1628 0.6987
C11 C 1.1553(11) 0.1161(2) 0.7347(6)
H12 H 1.2288 0.1073 0.8001
C12 C 0.9518(10) 0.0965(2) 0.6978(5)
C13 C 0.8529(12) 0.1090(2) 0.5980(6)
H13 H 0.7174 0.0958 0.5713
C14 C 0.9549(13) 0.1410(2) 0.5384(6)
H14 H 0.8905 0.1488 0.4703
C15 C 0.8327(11) 0.06192(19) 0.7653(5)
O3_2 O -0.2310(8) 0.46234(14) 0.5891(4)
O5C O 0.0463(8) 0.53986(15) 0.6686(4)
O4C O 0.3813(8) 0.56060(17) 0.7505(5)
O5C_2 O 1.0463(8) 0.53986(15) 0.6686(4)
Ag1_2 Ag 1.21027(9) 0.481875(17) 0.58444(5)
Ag2C Ag 0.36146(12) 0.01153(3) 0.79181(9)
Ag1C Ag 0.78973(9) -0.018125(17) 0.91556(5)
Ag2C_2 Ag 1.36146(12) 0.01153(3) 0.79181(9)
Cl1 Cl 0.3985(4) 0.41630(8) 0.85381(17)
O6 O 0.3855(16) 0.4203(5) 0.9659(6)
O7 O 0.297(2) 0.3751(3) 0.8247(9)
O8 O 0.276(2) 0.4478(3) 0.7959(7)
O9 O 0.6312(19) 0.4172(5) 0.8228(10)
Cl2 Cl 0.3539(3) 0.76553(6) 0.75491(15)
O10 O 0.197(3) 0.7772(3) 0.6776(11)
O11 O 0.5896(18) 0.7696(3) 0.7235(9)
O12 O 0.3410(12) 0.7917(2) 0.8496(6)
O13 O 0.3179(13) 0.7206(2) 0.7839(5)
loop_
_geom_bond_atom_site_label_1
_geom_bond_atom_site_label_2
_geom_bond_site_symmetry_1
_geom_bond_site_symmetry_2
Ag1 O2 1_555 1_555
Ag2 O1 1_555 1_555
Cl1 O6 1_555 1_555
Cl2 O10 1_555 1_555
O2 C1 1_555 1_555
O3 Ag2 1_555 1_555
O4 C15 1_555 1_555
O5 C15 1_555 1_555
O7 Cl1 1_555 1_555
O8 Cl1 1_555 1_555
O9 Cl1 1_555 1_555
O11 Cl2 1_555 1_555
O12 Cl2 1_555 1_555
O13 Cl2 1_555 1_555
N1 C4 1_555 1_555
N2 C9 1_555 1_555
C1 O3 1_555 1_555
C2 C1 1_555 1_555
C3 C2 1_555 1_555
H1 C3 1_555 1_555
C4 C3 1_555 1_555
H2 C4 1_555 1_555
C5 N1 1_555 1_555
H3 C5 1_555 1_555
C6 C2 1_555 1_555
H4 C6 1_555 1_555
C7 N1 1_555 1_555
H5 C7 1_555 1_555
H6 C7 1_555 1_555
C8 C7 1_555 1_555
H7 C8 1_555 1_555
H8 C8 1_555 1_555
C9 C8 1_555 1_555
H9 C9 1_555 1_555
H10 C9 1_555 1_555
C10 N2 1_555 1_555
H11 C10 1_555 1_555
C11 C10 1_555 1_555
H12 C11 1_555 1_555
C12 C11 1_555 1_555
C13 C12 1_555 1_555
H13 C13 1_555 1_555
C14 N2 1_555 1_555
H14 C14 1_555 1_555
C15 C12 1_555 1_555
O3_2 Ag1 1_555 1_555
O5C Ag1 1_555 1_555
O4C Ag2 1_555 1_555
O5C_2 Ag2 1_555 1_555
Ag1_2 O3 1_555 1_555
Ag2C O4 1_555 1_555
Ag1C O5 1_555 1_555
Ag2C_2 O5 1_555 1_555
C5 C6 1_555 1_555
C13 C14 1_555 1_555
O5C_2 Ag1_2 1_555 1_555

#END
