
#######################################################################
#
#                 Cambridge Crystallographic Data Centre
#                                CCDC 
#
#######################################################################
#
# If this CIF has been generated from an entry in the Cambridge 
# Structural Database, then it will include bibliographic, chemical, 
# crystal, experimental, refinement or atomic coordinate data resulting 
# from the CCDC's data processing and validation procedures.
#
#######################################################################

data_XITTID
_symmetry_cell_setting           triclinic
_symmetry_space_group_name_H-M   'P -1'
_symmetry_Int_Tables_number      2
_space_group_name_Hall           '-P 1'
loop_
_symmetry_equiv_pos_site_id
_symmetry_equiv_pos_as_xyz
1 x,y,z
2 -x,-y,-z
_cell_length_a                   11.0854(3)
_cell_length_b                   11.1224(3)
_cell_length_c                   11.720
_cell_angle_alpha                63.3730(10)
_cell_angle_beta                 82.0080(10)
_cell_angle_gamma                80.1420(10)
_cell_volume                     1269.52
loop_
_atom_site_label
_atom_site_type_symbol
_atom_site_fract_x
_atom_site_fract_y
_atom_site_fract_z
Ni1 Ni 0.20148(8) 0.27513(8) 0.16857(8)
S1 S 0.34950(18) 0.75163(19) 0.59983(17)
O1 O 0.2969(4) 0.3488(4) 0.2595(4)
O2 O 0.1053(4) 0.4328(5) 0.2202(5)
N1 N 0.2506(5) 0.4138(5) 0.9870(5)
C1 C 0.2029(6) 0.4291(7) 0.2653(6)
C2 C 0.2101(6) 0.5193(6) 0.3276(6)
C3 C 0.3226(6) 0.5359(7) 0.3554(6)
H1 H 0.3944 0.4902 0.3353
C4 C 0.3286(6) 0.6191(7) 0.4124(7)
H2 H 0.4047 0.6303 0.4287
C5 C 0.2237(6) 0.6862(6) 0.4457(6)
C6 C 0.1130(7) 0.6655(8) 0.4230(8)
H3 H 0.0410 0.7061 0.4488
C7 C 0.1059(7) 0.5848(9) 0.3619(8)
H4 H 0.0297 0.5754 0.3444
C8 C 0.2274(7) 0.7868(7) 0.4990(7)
H5 H 0.1500 0.7925 0.5474
H6 H 0.2332 0.8752 0.4276
C9 C 0.3060(6) 0.6171(7) 0.7456(6)
C10 C 0.3922(6) 0.5557(7) 0.8364(6)
H7 H 0.4706 0.5820 0.8177
C11 C 0.3611(6) 0.4557(7) 0.9541(6)
H8 H 0.4202 0.4152 1.0138
C12 C 0.1682(6) 0.4706(7) 0.8984(6)
H9 H 0.0913 0.4405 0.9193
C13 C 0.1917(6) 0.5722(7) 0.7770(6)
H10 H 0.1319 0.6093 0.7181
S2 S 0.61545(17) -0.24969(19) 0.2276(2)
N2 N 0.3361(5) 0.1171(6) 0.1815(5)
O3 O 1.0724(4) 0.2024(5) 0.1138(4)
O4 O 1.0890(4) 0.1320(5) 0.3189(4)
C14 C 1.0429(6) 0.1265(7) 0.2295(6)
C15 C 0.9553(6) 0.0257(7) 0.2602(6)
C16 C 0.8978(6) -0.0339(6) 0.3796(6)
H11 H 0.9119 -0.0110 0.4434
C17 C 0.8179(6) -0.1292(7) 0.4061(6)
H12 H 0.7777 -0.1678 0.4870
C18 C 0.7981(6) -0.1665(7) 0.3134(7)
C19 C 0.8578(8) -0.1096(9) 0.1952(8)
H13 H 0.8459 -0.1351 0.1325
C20 C 0.9359(8) -0.0141(9) 0.1680(8)
H14 H 0.9759 0.0240 0.0870
C21 C 0.7152(7) -0.2737(7) 0.3485(8)
H15 H 0.6643 -0.2797 0.4247
H16 H 0.7661 -0.3601 0.3705
C22 C 0.5113(6) -0.1083(7) 0.2156(6)
C23 C 0.4156(7) -0.0727(8) 0.1389(7)
H17 H 0.4079 -0.1245 0.0969
C24 C 0.3318(7) 0.0376(8) 0.1236(7)
H18 H 0.2686 0.0588 0.0706
C25 C 0.4260(6) 0.0812(7) 0.2586(7)
H19 H 0.4303 0.1334 0.3013
C26 C 0.5133(6) -0.0293(7) 0.2789(7)
H20 H 0.5735 -0.0509 0.3352
N1_2 N 0.2506(5) 0.4138(5) -0.0130(5)
O3_2 O 0.0724(4) 0.2024(5) 0.1138(4)
O4_2 O 0.0890(4) 0.1320(5) 0.3189(4)
Ni1_2 Ni 0.20148(8) 0.27513(8) 1.16857(8)
Ni1_3 Ni 1.20148(8) 0.27513(8) 0.16857(8)
loop_
_geom_bond_atom_site_label_1
_geom_bond_atom_site_label_2
_geom_bond_site_symmetry_1
_geom_bond_site_symmetry_2
Ni1 O1 1_555 1_555
S1 C8 1_555 1_555
O1 C1 1_555 1_555
O2 Ni1 1_555 1_555
N1 C11 1_555 1_555
C1 O2 1_555 1_555
C2 C1 1_555 1_555
C3 C2 1_555 1_555
H1 C3 1_555 1_555
C4 C3 1_555 1_555
H2 C4 1_555 1_555
C5 C4 1_555 1_555
C6 C5 1_555 1_555
H3 C6 1_555 1_555
C7 C2 1_555 1_555
H4 C7 1_555 1_555
C8 C5 1_555 1_555
H5 C8 1_555 1_555
H6 C8 1_555 1_555
C9 S1 1_555 1_555
C10 C9 1_555 1_555
H7 C10 1_555 1_555
C11 C10 1_555 1_555
H8 C11 1_555 1_555
C12 N1 1_555 1_555
H9 C12 1_555 1_555
C13 C9 1_555 1_555
H10 C13 1_555 1_555
S2 C21 1_555 1_555
N2 Ni1 1_555 1_555
O3 C14 1_555 1_555
O4 C14 1_555 1_555
C14 C15 1_555 1_555
C15 C16 1_555 1_555
C16 H11 1_555 1_555
C17 C16 1_555 1_555
H12 C17 1_555 1_555
C18 C17 1_555 1_555
C19 C18 1_555 1_555
H13 C19 1_555 1_555
C20 C15 1_555 1_555
H14 C20 1_555 1_555
C21 C18 1_555 1_555
H15 C21 1_555 1_555
H16 C21 1_555 1_555
C22 S2 1_555 1_555
C23 C22 1_555 1_555
H17 C23 1_555 1_555
C24 N2 1_555 1_555
H18 C24 1_555 1_555
C25 N2 1_555 1_555
H19 C25 1_555 1_555
C26 C22 1_555 1_555
H20 C26 1_555 1_555
N1_2 Ni1 1_555 1_555
O3_2 Ni1 1_555 1_555
O4_2 Ni1 1_555 1_555
Ni1_2 N1 1_555 1_555
Ni1_3 O3 1_555 1_555
C6 C7 1_555 1_555
C12 C13 1_555 1_555
O4 Ni1_3 1_555 1_555
C19 C20 1_555 1_555
C23 C24 1_555 1_555
C25 C26 1_555 1_555

#END
