
#######################################################################
#
#                 Cambridge Crystallographic Data Centre
#                                CCDC 
#
#######################################################################
#
# If this CIF has been generated from an entry in the Cambridge 
# Structural Database, then it will include bibliographic, chemical, 
# crystal, experimental, refinement or atomic coordinate data resulting 
# from the CCDC's data processing and validation procedures.
#
#######################################################################

data_XITTAX
_symmetry_cell_setting           monoclinic
_symmetry_space_group_name_H-M   'P 21'
_symmetry_Int_Tables_number      4
_space_group_name_Hall           'P 2yb'
loop_
_symmetry_equiv_pos_site_id
_symmetry_equiv_pos_as_xyz
1 x,y,z
2 -x,1/2+y,-z
_cell_length_a                   13.8398(15)
_cell_length_b                   7.2308(8)
_cell_length_c                   13.9096(16)
_cell_angle_alpha                90
_cell_angle_beta                 118.406(3)
_cell_angle_gamma                90
_cell_volume                     1224.38
loop_
_atom_site_label
_atom_site_type_symbol
_atom_site_fract_x
_atom_site_fract_y
_atom_site_fract_z
Cu1 Cu 0.365833(17) 0.51421(3) 0.523478(16)
Cu2 Cu 0.127813(16) 0.49554(3) 0.453980(16)
O1 O 0.26896(10) 0.4506(2) 0.58326(10)
C1 C 0.30341(15) 0.4618(3) 0.69240(14)
C2 C 0.23379(15) 0.5271(3) 0.73163(14)
H1 H 0.1624 0.5697 0.6813
C3 C 0.26691(15) 0.5307(3) 0.84256(14)
H2 H 0.2181 0.5740 0.8677
C4 C 0.37141(15) 0.4712(3) 0.91687(14)
C5 C 0.44248(16) 0.4083(3) 0.87990(15)
H3 H 0.5143 0.3688 0.9310
C6 C 0.40930(16) 0.4026(3) 0.76763(15)
C7 C 0.48365(16) 0.3127(3) 0.73081(15)
H4 H 0.5564 0.2938 0.7955
H5 H 0.4536 0.1891 0.7010
N1 N 0.49961(14) 0.4154(3) 0.64766(13)
H6 H 0.5257(18) 0.340(4) 0.6191(18)
C8 C 0.57642(16) 0.5752(3) 0.68261(15)
H7 H 0.5467 0.6717 0.7129
C9 C 0.56765(15) 0.6505(3) 0.57451(15)
C10 C 0.69412(16) 0.5352(3) 0.76807(15)
H8 H 0.6950 0.4858 0.8341
H9 H 0.7371 0.6497 0.7861
H10 H 0.7262 0.4442 0.7392
O2 O 0.47333(11) 0.6336(2) 0.48970(11)
O3 O 0.64742(11) 0.7222(2) 0.57310(12)
O4 O 0.22613(11) 0.5876(2) 0.40078(10)
C11 C 0.19448(16) 0.5996(3) 0.29232(15)
C12 C 0.26488(16) 0.5492(3) 0.25096(15)
H11 H 0.3369 0.5074 0.2997
C13 C 0.23167(16) 0.5590(3) 0.14014(16)
H12 H 0.2807 0.5239 0.1135
C14 C 0.12598(16) 0.6204(3) 0.06763(15)
C15 C 0.05572(17) 0.6729(3) 0.10772(16)
H13 H -0.0159 0.7161 0.0586
C16 C 0.08867(16) 0.6632(3) 0.21920(15)
C17 C 0.00935(16) 0.7147(3) 0.26010(16)
H14 H 0.0389 0.8198 0.3117
H15 H -0.0616 0.7530 0.1980
N2 N -0.00750(14) 0.5520(2) 0.31626(13)
H16 H -0.0200(18) 0.457(3) 0.2755(17)
C18 C -0.09989(15) 0.5718(3) 0.34165(15)
H17 H -0.1009 0.7041 0.3621
C19 C -0.07382(15) 0.4571(3) 0.44268(16)
C20 C -0.21113(15) 0.5320(3) 0.24504(15)
H18 H -0.2243 0.6176 0.1854
H19 H -0.2684 0.5482 0.2668
H20 H -0.2127 0.4045 0.2204
O5 O 0.02800(11) 0.4224(2) 0.50674(11)
O6 O -0.14719(11) 0.4092(2) 0.46440(11)
O7 O 0.37171(13) 0.8648(2) 0.60559(12)
H21 H 0.3067(10) 0.874(4) 0.5960(19)
H22 H 0.3710(18) 0.948(3) 0.5631(16)
O8 O 0.13388(12) 0.1918(2) 0.38421(12)
H23 H 0.1348(17) 0.111(3) 0.4276(16)
H24 H 0.1989(10) 0.193(3) 0.3937(19)
O9 O 0.39772(11) 0.4818(2) 1.02586(9)
O10 O 0.09962(12) 0.6213(2) -0.04094(11)
C21 C 0.50233(18) 0.4142(3) 1.10316(16)
H25 H 0.5082 0.2831 1.0889
H26 H 0.5113 0.4286 1.1770
H27 H 0.5597 0.4843 1.0970
C22 C -0.01197(17) 0.6596(3) -0.11756(16)
H28 H -0.0600 0.5706 -0.1077
H29 H -0.0220 0.6492 -0.1920
H30 H -0.0307 0.7852 -0.1057
Cu1A Cu 0.634167(17) 1.01421(3) 0.476522(16)
O3A O 0.35258(11) 0.2222(2) 0.42690(12)
loop_
_geom_bond_atom_site_label_1
_geom_bond_atom_site_label_2
_geom_bond_site_symmetry_1
_geom_bond_site_symmetry_2
Cu1 O1 1_555 1_555
Cu2 O1 1_555 1_555
O1 C1 1_555 1_555
C1 C2 1_555 1_555
C2 H1 1_555 1_555
C3 C2 1_555 1_555
H2 C3 1_555 1_555
C4 C3 1_555 1_555
C5 C4 1_555 1_555
H3 C5 1_555 1_555
C6 C1 1_555 1_555
C7 C6 1_555 1_555
H4 C7 1_555 1_555
H5 C7 1_555 1_555
N1 Cu1 1_555 1_555
H6 N1 1_555 1_555
C8 N1 1_555 1_555
H7 C8 1_555 1_555
C9 C8 1_555 1_555
C10 C8 1_555 1_555
H8 C10 1_555 1_555
H9 C10 1_555 1_555
H10 C10 1_555 1_555
O2 Cu1 1_555 1_555
O3 C9 1_555 1_555
O4 Cu1 1_555 1_555
C11 O4 1_555 1_555
C12 C11 1_555 1_555
H11 C12 1_555 1_555
C13 C12 1_555 1_555
H12 C13 1_555 1_555
C14 C13 1_555 1_555
C15 C14 1_555 1_555
H13 C15 1_555 1_555
C16 C11 1_555 1_555
C17 C16 1_555 1_555
H14 C17 1_555 1_555
H15 C17 1_555 1_555
N2 Cu2 1_555 1_555
H16 N2 1_555 1_555
C18 N2 1_555 1_555
H17 C18 1_555 1_555
C19 C18 1_555 1_555
C20 C18 1_555 1_555
H18 C20 1_555 1_555
H19 C20 1_555 1_555
H20 C20 1_555 1_555
O5 Cu2 1_555 1_555
O6 C19 1_555 1_555
O7 Cu1 1_555 1_555
H21 O7 1_555 1_555
H22 O7 1_555 1_555
O8 Cu2 1_555 1_555
H23 O8 1_555 1_555
H24 O8 1_555 1_555
O9 C4 1_555 1_555
O10 C14 1_555 1_555
C21 O9 1_555 1_555
H25 C21 1_555 1_555
H26 C21 1_555 1_555
H27 C21 1_555 1_555
C22 O10 1_555 1_555
H28 C22 1_555 1_555
H29 C22 1_555 1_555
H30 C22 1_555 1_555
Cu1A O3 1_555 1_555
O3A Cu1 1_555 1_555
Cu2 O4 1_555 1_555
C5 C6 1_555 1_555
C7 N1 1_555 1_555
C9 O2 1_555 1_555
C15 C16 1_555 1_555
C17 N2 1_555 1_555
C19 O5 1_555 1_555

#END
