
#######################################################################
#
#                 Cambridge Crystallographic Data Centre
#                                CCDC 
#
#######################################################################
#
# If this CIF has been generated from an entry in the Cambridge 
# Structural Database, then it will include bibliographic, chemical, 
# crystal, experimental, refinement or atomic coordinate data resulting 
# from the CCDC's data processing and validation procedures.
#
#######################################################################

data_XITZIL
_symmetry_cell_setting           monoclinic
_symmetry_space_group_name_H-M   'P 21/c'
_symmetry_Int_Tables_number      14
_space_group_name_Hall           '-P 2ybc'
loop_
_symmetry_equiv_pos_site_id
_symmetry_equiv_pos_as_xyz
1 x,y,z
2 -x,1/2+y,1/2-z
3 -x,-y,-z
4 x,1/2-y,1/2+z
_cell_length_a                   14.812(6)
_cell_length_b                   13.727(5)
_cell_length_c                   14.452(5)
_cell_angle_alpha                90
_cell_angle_beta                 112.457(6)
_cell_angle_gamma                90
_cell_volume                     2715.61
loop_
_atom_site_label
_atom_site_type_symbol
_atom_site_fract_x
_atom_site_fract_y
_atom_site_fract_z
Co1 Co 0.39042(2) 0.96176(2) 0.57702(2)
N1 N 0.37647(13) 0.11846(13) 0.57441(14)
O1 O -0.23887(11) 1.04502(12) 0.43935(12)
O2 O 0.39975(11) 0.95157(11) 0.43954(12)
O3 O -0.35643(11) 1.04168(13) 0.28996(13)
C1 C -0.26740(17) 1.05101(16) 0.34563(19)
O4 O 0.46046(10) 1.03982(11) 0.34696(12)
C2 C -0.06778(16) 1.13958(18) 0.21014(19)
C3 C 0.29255(15) 1.05236(16) 0.31202(17)
C4 C 0.11791(17) 1.03994(18) 0.2498(2)
N2 N 0.39525(14) 0.80237(14) 0.58205(15)
C5 C 0.10779(16) 1.13575(18) 0.21708(19)
C6 C -0.19618(16) 1.07741(18) 0.29833(18)
C7 C 0.39170(16) 1.01119(16) 0.37104(17)
C8 C -0.03642(17) 1.1287(2) 0.31295(19)
C9 C 0.20916(17) 0.99903(19) 0.2985(2)
C10 C -0.09960(18) 1.0977(2) 0.3568(2)
F1 F 0.04161(12) 1.16888(18) 0.01788(13)
C11 C 0.41834(17) 0.59869(16) 0.59902(17)
C12 C 0.00417(16) 1.17881(18) 0.16430(19)
C13 C 0.33536(19) 0.74537(18) 0.6071(2)
C14 C -0.16458(18) 1.1194(2) 0.1520(2)
C15 C 0.28262(17) 1.14633(18) 0.2745(2)
C16 C 0.4669(2) 0.75673(19) 0.5650(2)
C17 C 0.34390(19) 0.64586(18) 0.6160(2)
C18 C 0.19165(17) 1.18811(19) 0.2290(2)
C19 C -0.0287(2) 1.1528(3) 0.0527(2)
C20 C 0.4805(2) 0.65754(19) 0.5738(2)
F2 F -0.08657(13) 1.32601(14) 0.14426(18)
F3 F 0.04586(13) 1.33662(13) 0.11888(17)
F4 F -0.05202(13) 1.05918(15) 0.03708(13)
F5 F -0.10620(12) 1.20364(16) -0.00655(13)
F6 F 0.05073(14) 1.31901(13) 0.26826(17)
C21 C 0.44841(18) 0.17667(17) 0.63130(19)
C22 C 0.44111(18) 0.27725(18) 0.6323(2)
C23 C 0.35516(17) 0.32212(16) 0.57066(18)
C24 C 0.27991(19) 0.26129(18) 0.5137(2)
C25 C -0.22815(18) 1.0890(2) 0.1961(2)
C26 C 0.4332(2) 0.49030(18) 0.6106(2)
C27 C 0.29228(18) 0.16187(18) 0.5177(2)
C28 C 0.3418(2) 0.43123(19) 0.5641(3)
C29 C 0.0040(2) 1.2908(2) 0.1736(3)
H1 H 0.0283(18) 1.1416(17) 0.3542(18)
H2 H 0.5093(19) 0.1456(19) 0.6702(19)
H3 H 0.222(2) 0.2889(19) 0.471(2)
H4 H 0.2147(19) 0.935(2) 0.321(2)
H5 H 0.2380(19) 0.117(2) 0.480(2)
H6 H 0.478(2) 0.469(2) 0.584(2)
H7 H -0.190(2) 1.128(2) 0.080(2)
H8 H 0.508(2) 0.798(2) 0.547(2)
H9 H 0.286(2) 0.778(2) 0.619(2)
H10 H 0.497(2) 0.3124(19) 0.674(2)
H11 H 0.063(2) 1.003(2) 0.238(2)
H12 H 0.188(2) 1.253(2) 0.207(2)
H13 H 0.341(2) 1.184(2) 0.286(2)
H14 H 0.532(2) 0.630(2) 0.561(2)
H15 H 0.461(2) 0.475(2) 0.683(3)
H16 H -0.076(2) 1.089(2) 0.427(2)
H17 H 0.295(3) 0.447(2) 0.589(3)
H18 H 0.307(3) 0.449(2) 0.492(3)
H19 H -0.296(2) 1.079(2) 0.155(2)
H20 H 0.299(2) 0.612(2) 0.633(2)
Co1_2 Co 0.39042(2) -0.03824(2) 0.57702(2)
Co1B Co -0.39042(2) 1.03824(2) 0.42298(2)
Co1B_2 Co 0.60958(2) 1.03824(2) 0.42298(2)
N1_2 N 0.37647(13) 1.11846(13) 0.57441(14)
O1B O 0.23887(11) 0.95498(12) 0.56065(12)
O3B O 0.35643(11) 0.95832(13) 0.71004(13)
O4B O 0.53954(10) 0.96018(11) 0.65304(12)
loop_
_geom_bond_atom_site_label_1
_geom_bond_atom_site_label_2
_geom_bond_site_symmetry_1
_geom_bond_site_symmetry_2
Co1 O2 1_555 1_555
N1 C21 1_555 1_555
O1 C1 1_555 1_555
O2 C7 1_555 1_555
O3 C1 1_555 1_555
C1 C6 1_555 1_555
O4 C7 1_555 1_555
C2 C8 1_555 1_555
C3 C7 1_555 1_555
C4 C5 1_555 1_555
N2 Co1 1_555 1_555
C5 C12 1_555 1_555
C6 C10 1_555 1_555
C8 C10 1_555 1_555
C9 C3 1_555 1_555
C10 H16 1_555 1_555
F1 C19 1_555 1_555
C11 C17 1_555 1_555
C12 C2 1_555 1_555
C13 N2 1_555 1_555
C14 C2 1_555 1_555
C15 C3 1_555 1_555
C16 N2 1_555 1_555
C17 C13 1_555 1_555
C18 C5 1_555 1_555
C19 C12 1_555 1_555
C20 C11 1_555 1_555
F2 C29 1_555 1_555
F3 C29 1_555 1_555
F4 C19 1_555 1_555
F5 C19 1_555 1_555
F6 C29 1_555 1_555
C21 C22 1_555 1_555
C22 C23 1_555 1_555
C23 C24 1_555 1_555
C24 C27 1_555 1_555
C25 C6 1_555 1_555
C26 C11 1_555 1_555
C27 N1 1_555 1_555
C28 C23 1_555 1_555
C29 C12 1_555 1_555
H1 C8 1_555 1_555
H2 C21 1_555 1_555
H3 C24 1_555 1_555
H4 C9 1_555 1_555
H5 C27 1_555 1_555
H6 C26 1_555 1_555
H7 C14 1_555 1_555
H8 C16 1_555 1_555
H9 C13 1_555 1_555
H10 C22 1_555 1_555
H11 C4 1_555 1_555
H12 C18 1_555 1_555
H13 C15 1_555 1_555
H14 C20 1_555 1_555
H15 C26 1_555 1_555
H17 C28 1_555 1_555
H18 C28 1_555 1_555
H19 C25 1_555 1_555
H20 C17 1_555 1_555
Co1_2 N1 1_555 1_555
Co1B O1 1_555 1_555
Co1B_2 O4 1_555 1_555
N1_2 Co1 1_555 1_555
O1B Co1 1_555 1_555
O3B Co1 1_555 1_555
O4B Co1 1_555 1_555
O3 Co1B 1_555 1_555
C4 C9 1_555 1_555
C14 C25 1_555 1_555
C15 C18 1_555 1_555
C16 C20 1_555 1_555
C26 C28 1_555 1_555

#END
