
#######################################################################
#
#                 Cambridge Crystallographic Data Centre
#                                CCDC 
#
#######################################################################
#
# If this CIF has been generated from an entry in the Cambridge 
# Structural Database, then it will include bibliographic, chemical, 
# crystal, experimental, refinement or atomic coordinate data resulting 
# from the CCDC's data processing and validation procedures.
#
#######################################################################

data_XIVCEM
_symmetry_cell_setting           triclinic
_symmetry_space_group_name_H-M   'P -1'
_symmetry_Int_Tables_number      2
_space_group_name_Hall           '-P 1'
loop_
_symmetry_equiv_pos_site_id
_symmetry_equiv_pos_as_xyz
1 x,y,z
2 -x,-y,-z
_cell_length_a                   7.5953(4)
_cell_length_b                   11.8232(7)
_cell_length_c                   14.7017(8)
_cell_angle_alpha                79.6140(10)
_cell_angle_beta                 84.824(2)
_cell_angle_gamma                73.0900(10)
_cell_volume                     1241.44
loop_
_atom_site_label
_atom_site_type_symbol
_atom_site_fract_x
_atom_site_fract_y
_atom_site_fract_z
W1 W 0.548569(15) 0.875339(10) 0.768726(8)
Cu1 Cu 1.0000 1.0000 1.0000
Cu2 Cu 0.0000 1.0000 0.5000
Cu3 Cu 1.0000 0.5000 1.0000
O1 O 0.9257(4) 0.4659(3) 1.12961(19)
N1 N 0.2221(4) 0.9864(3) 0.9186(2)
N2 N 0.4282(6) 1.1699(3) 0.7155(3)
N3 N 0.2648(5) 0.9438(3) 0.5964(3)
N4 N 0.8430(4) 0.9479(3) 0.6057(2)
N5 N 0.7737(7) 0.6301(4) 0.6849(4)
N6 N 0.2689(5) 0.7008(4) 0.8104(3)
N7 N 0.6975(5) 0.6771(3) 0.9555(3)
N8 N 0.8384(5) 0.9585(3) 0.8789(2)
N9 N 1.1037(4) 0.8172(3) 1.0463(2)
N10 N 1.1143(4) 0.6182(3) 1.0366(2)
N11 N 0.0743(4) 0.8306(3) 0.4682(2)
N12 N 0.0945(6) 0.6994(4) 0.3619(3)
C1 C 0.3400(5) 0.9497(3) 0.8680(2)
C2 C 0.4714(5) 1.0702(4) 0.7326(3)
C3 C 0.3692(5) 0.9207(4) 0.6532(3)
C4 C 0.7413(5) 0.9202(3) 0.6609(2)
C5 C 0.6973(6) 0.7146(3) 0.7133(3)
C6 C 0.3645(5) 0.7610(3) 0.7957(3)
C7 C 0.6405(5) 0.7462(3) 0.8920(3)
C8 C 0.7391(5) 0.9303(3) 0.8395(3)
C9 C 1.0448(5) 0.7368(3) 1.0154(3)
H1 H 0.9472 0.7651 0.9758
C10 C 1.2529(5) 0.5779(3) 1.0949(3)
H2 H 1.3036 0.4958 1.1111
C11 C 1.3227(5) 0.6550(3) 1.1315(3)
C12 C 1.2427(5) 0.7751(4) 1.1046(3)
H3 H 1.2865 0.8296 1.1276
C13 C 1.4754(7) 0.6078(4) 1.1980(4)
H4 H 1.5110 0.5219 1.2077
H5 H 1.4340 0.6354 1.2558
H6 H 1.5790 0.6360 1.1730
C14 C 0.0516(6) 0.8084(4) 0.3854(3)
H7 H 0.0022 0.8735 0.3403
C15 C 0.1642(7) 0.6077(4) 0.4271(4)
H8 H 0.1950 0.5309 0.4125
C16 C 0.1936(7) 0.6203(4) 0.5156(4)
C17 C 0.1426(6) 0.7371(4) 0.5327(3)
H9 H 0.1568 0.7507 0.5916
C18 C 0.2772(12) 0.5161(6) 0.5890(5)
H10 H 0.2844 0.5452 0.6451
H11 H 0.3987 0.4749 0.5684
H12 H 0.2019 0.4620 0.6003
H13 H 0.868(7) 0.410(3) 1.159(3)
H14 H 0.913(6) 0.520(3) 1.170(3)
W1A W -0.548569(15) 1.124661(10) 0.231274(8)
N1A N -0.2221(4) 1.0136(3) 0.0814(2)
N2A N -0.4282(6) 0.8301(3) 0.2845(3)
N3A N -0.2648(5) 1.0562(3) 0.4036(3)
N4A N -0.8430(4) 1.0521(3) 0.3943(2)
N5A N -0.7737(7) 1.3699(4) 0.3151(4)
N6A N -0.2689(5) 1.2992(4) 0.1896(3)
N7A N -0.6975(5) 1.3229(3) 0.0445(3)
N8A N -0.8384(5) 1.0415(3) 0.1211(2)
N11A N -0.0743(4) 1.1694(3) 0.5318(2)
N12A N -0.0945(6) 1.3006(4) 0.6381(3)
C1A C -0.3400(5) 1.0503(3) 0.1320(2)
C2A C -0.4714(5) 0.9298(4) 0.2674(3)
C3A C -0.3692(5) 1.0793(4) 0.3468(3)
C4A C -0.7413(5) 1.0798(3) 0.3391(2)
C5A C -0.6973(6) 1.2854(3) 0.2867(3)
C6A C -0.3645(5) 1.2390(3) 0.2043(3)
C7A C -0.6405(5) 1.2538(3) 0.1080(3)
C8A C -0.7391(5) 1.0697(3) 0.1605(3)
C14A C -0.0516(6) 1.1916(4) 0.6146(3)
H7A H -0.0022 1.1265 0.6597
C15A C -0.1642(7) 1.3923(4) 0.5729(4)
H8A H -0.1950 1.4691 0.5875
C16A C -0.1936(7) 1.3797(4) 0.4844(4)
C17A C -0.1426(6) 1.2629(4) 0.4673(3)
H9A H -0.1568 1.2493 0.4084
C18A C -0.2772(12) 1.4839(6) 0.4110(5)
H10A H -0.2844 1.4548 0.3549
H11A H -0.3987 1.5251 0.4316
H12A H -0.2019 1.5380 0.3997
N9A N 0.8963(4) 1.1828(3) 0.9537(2)
N10A N 0.8857(4) 1.3818(3) 0.9634(2)
C9A C 0.9552(5) 1.2632(3) 0.9846(3)
H1A H 1.0528 1.2349 1.0242
C10A C 0.7471(5) 1.4221(3) 0.9051(3)
H2A H 0.6964 1.5042 0.8889
C11A C 0.6773(5) 1.3450(3) 0.8685(3)
C12A C 0.7573(5) 1.2249(4) 0.8954(3)
H3A H 0.7135 1.1704 0.8724
C13A C 0.5246(7) 1.3922(4) 0.8020(4)
H4A H 0.4890 1.4781 0.7923
H5A H 0.5660 1.3646 0.7442
H6A H 0.4210 1.3640 0.8270
O1A O 1.0743(4) 0.5341(3) 0.87039(19)
H13A H 1.132(7) 0.590(3) 0.841(3)
H14A H 1.087(6) 0.480(3) 0.830(3)
Cu1_2 Cu -1.0000 1.0000 0.0000
Cu1_3 Cu 0.0000 1.0000 0.0000
Cu1_4 Cu 0.0000 1.0000 1.0000
Cu2_2 Cu -1.0000 1.0000 0.5000
Cu2_3 Cu 1.0000 1.0000 0.5000
Cu3_2 Cu -1.0000 1.5000 0.0000
Cu3_3 Cu 1.0000 1.5000 1.0000
N1_2 N 1.2221(4) 0.9864(3) 0.9186(2)
N1A_2 N 0.7779(4) 1.0136(3) 1.0814(2)
N4_2 N -0.1570(4) 0.9479(3) 0.6057(2)
N4A_2 N 0.1570(4) 1.0521(3) 0.3943(2)
N7A_2 N 1.3025(5) 0.3229(3) 1.0445(3)
N8A_2 N 1.1616(5) 1.0415(3) 1.1211(2)
N10A_2 N 0.8857(4) 0.3818(3) 0.9634(2)
O2 O 0.8939(5) 0.6502(3) 1.2207(3)
H15 H 0.981(5) 0.653(5) 1.262(3)
H16 H 0.785(4) 0.699(5) 1.244(4)
loop_
_geom_bond_atom_site_label_1
_geom_bond_atom_site_label_2
_geom_bond_site_symmetry_1
_geom_bond_site_symmetry_2
W1 C1 1_555 1_555
Cu1 N8 1_555 1_555
Cu2 N3 1_555 1_555
Cu3 O1 1_555 1_555
O1 H13 1_555 1_555
N1 C1 1_555 1_555
N2 C2 1_555 1_555
N3 C3 1_555 1_555
N4 C4 1_555 1_555
N5 C5 1_555 1_555
N6 C6 1_555 1_555
N7 Cu3 1_555 1_555
N8 C8 1_555 1_555
N9 Cu1 1_555 1_555
N10 Cu3 1_555 1_555
N11 Cu2 1_555 1_555
N12 C14 1_555 1_555
C2 W1 1_555 1_555
C3 W1 1_555 1_555
C4 W1 1_555 1_555
C5 W1 1_555 1_555
C6 W1 1_555 1_555
C7 W1 1_555 1_555
C8 W1 1_555 1_555
C9 N9 1_555 1_555
H1 C9 1_555 1_555
C10 N10 1_555 1_555
H2 C10 1_555 1_555
C11 C10 1_555 1_555
C12 N9 1_555 1_555
H3 C12 1_555 1_555
C13 C11 1_555 1_555
H4 C13 1_555 1_555
H5 C13 1_555 1_555
H6 C13 1_555 1_555
C14 N11 1_555 1_555
H7 C14 1_555 1_555
C15 N12 1_555 1_555
H8 C15 1_555 1_555
C16 C15 1_555 1_555
C17 N11 1_555 1_555
H9 C17 1_555 1_555
C18 C16 1_555 1_555
H10 C18 1_555 1_555
H11 C18 1_555 1_555
H12 C18 1_555 1_555
H14 O1 1_555 1_555
O2 H15 1_555 1_555
H16 O2 1_555 1_555
W1A C1A 1_555 1_555
N1A C1A 1_555 1_555
N2A C2A 1_555 1_555
N3A Cu2 1_555 1_555
N4A C4A 1_555 1_555
N5A C5A 1_555 1_555
N6A C6A 1_555 1_555
N7A C7A 1_555 1_555
N8A C8A 1_555 1_555
N11A Cu2 1_555 1_555
N12A C14A 1_555 1_555
C2A W1A 1_555 1_555
C3A W1A 1_555 1_555
C4A W1A 1_555 1_555
C5A W1A 1_555 1_555
C6A W1A 1_555 1_555
C7A W1A 1_555 1_555
C8A W1A 1_555 1_555
C14A N11A 1_555 1_555
H7A C14A 1_555 1_555
C15A N12A 1_555 1_555
H8A C15A 1_555 1_555
C16A C15A 1_555 1_555
C17A N11A 1_555 1_555
H9A C17A 1_555 1_555
C18A C16A 1_555 1_555
H10A C18A 1_555 1_555
H11A C18A 1_555 1_555
H12A C18A 1_555 1_555
N9A Cu1 1_555 1_555
N10A C9A 1_555 1_555
C9A N9A 1_555 1_555
H1A C9A 1_555 1_555
C10A N10A 1_555 1_555
H2A C10A 1_555 1_555
C11A C10A 1_555 1_555
C12A N9A 1_555 1_555
H3A C12A 1_555 1_555
C13A C11A 1_555 1_555
H4A C13A 1_555 1_555
H5A C13A 1_555 1_555
H6A C13A 1_555 1_555
O1A Cu3 1_555 1_555
H13A O1A 1_555 1_555
H14A O1A 1_555 1_555
Cu1_2 N8A 1_555 1_555
Cu1_3 N1A 1_555 1_555
Cu1_4 N1 1_555 1_555
Cu2_2 N4A 1_555 1_555
Cu2_3 N4 1_555 1_555
Cu3_2 N7A 1_555 1_555
Cu3_3 N10A 1_555 1_555
N1_2 Cu1 1_555 1_555
N1A_2 Cu1 1_555 1_555
N4_2 Cu2 1_555 1_555
N4A_2 Cu2 1_555 1_555
N7A_2 Cu3 1_555 1_555
N8A_2 Cu1 1_555 1_555
N10A_2 Cu3 1_555 1_555
N7 C7 1_555 1_555
N10 C9 1_555 1_555
C11 C12 1_555 1_555
C16 C17 1_555 1_555
N3A C3A 1_555 1_555
C16A C17A 1_555 1_555
C11A C12A 1_555 1_555

#END
