
#######################################################################
#
#                 Cambridge Crystallographic Data Centre
#                                CCDC 
#
#######################################################################
#
# If this CIF has been generated from an entry in the Cambridge 
# Structural Database, then it will include bibliographic, chemical, 
# crystal, experimental, refinement or atomic coordinate data resulting 
# from the CCDC's data processing and validation procedures.
#
#######################################################################

data_XIVFOZ
_symmetry_cell_setting           monoclinic
_symmetry_space_group_name_H-M   'P 2/c'
_symmetry_Int_Tables_number      13
_space_group_name_Hall           '-P 2yc'
loop_
_symmetry_equiv_pos_site_id
_symmetry_equiv_pos_as_xyz
1 x,y,z
2 -x,y,1/2-z
3 -x,-y,-z
4 x,-y,1/2+z
_cell_length_a                   7.8608(6)
_cell_length_b                   5.6985(7)
_cell_length_c                   38.817(3)
_cell_angle_alpha                90
_cell_angle_beta                 98.733(6)
_cell_angle_gamma                90
_cell_volume                     1718.64
loop_
_atom_site_label
_atom_site_type_symbol
_atom_site_fract_x
_atom_site_fract_y
_atom_site_fract_z
Cs1 Cs 0.50000 0.6438(2) 0.25000
Cs2 Cs 0.00000 0.6257(2) 0.25000
O1 O 0.2828(13) -0.1322(15) 0.3028(2)
O2 O 0.2180(12) 0.3903(14) 0.20079(19)
O3 O 0.3036(12) 0.2355(14) 0.28374(18)
O4 O 0.2197(13) 0.0396(14) 0.22718(18)
C1 C 0.5037(15) 0.4316(19) 0.3905(3)
C2 C 0.0000(15) 0.079(2) 0.1031(3)
C3 C 0.5963(19) 0.636(2) 0.3964(3)
C4 C 0.0132(16) 0.208(2) 0.0728(3)
C5 C 0.6620(19) 0.707(2) 0.4301(4)
C6 C -0.0664(16) 0.128(3) 0.0403(3)
C7 C 0.6346(18) 0.574(3) 0.4585(3)
C8 C -0.1524(18) -0.082(2) 0.0373(3)
C9 C 0.5426(19) 0.373(3) 0.4529(3)
C10 C -0.1628(16) -0.210(2) 0.0668(3)
C11 C 0.4764(15) 0.299(2) 0.4191(3)
C12 C -0.0870(15) -0.133(2) 0.0997(3)
C13 C 0.4356(17) 0.359(2) 0.3541(3)
C14 C 0.0831(14) 0.173(2) 0.1369(3)
C15 C 0.3722(13) 0.155(2) 0.3444(3)
C16 C 0.1178(15) 0.054(2) 0.1672(3)
C17 C 0.3148(16) 0.076(2) 0.3078(3)
C18 C 0.1901(15) 0.176(2) 0.1998(3)
H1 H 0.61560 0.73090 0.37720
H2 H 0.07640 0.35110 0.07440
H3 H 0.72650 0.84820 0.43360
H4 H -0.06090 0.21990 0.02000
H5 H 0.67930 0.62310 0.48150
H6 H -0.20410 -0.13800 0.01520
H7 H 0.52280 0.28000 0.47230
H8 H -0.22320 -0.35490 0.06480
H9 H 0.41240 0.15700 0.41580
H10 H -0.09500 -0.22560 0.11970
H11 H 0.43910 0.47280 0.33640
H12 H 0.11540 0.33430 0.13740
H13 H 0.36110 0.04540 0.36230
H14 H 0.09570 -0.10990 0.16760
H15 H 0.26080 0.13620 0.25500
O1A O -0.2828(13) -0.1322(15) 0.1972(2)
O2A O -0.2180(12) 0.3903(14) 0.29921(19)
O3A O -0.3036(12) 0.2355(14) 0.21626(18)
O4A O -0.2197(13) 0.0396(14) 0.27282(18)
C1A C -0.5037(15) 0.4316(19) 0.1095(3)
C2A C 0.0000(15) 0.079(2) 0.3969(3)
C3A C -0.5963(19) 0.636(2) 0.1036(3)
C4A C -0.0132(16) 0.208(2) 0.4272(3)
C5A C -0.6620(19) 0.707(2) 0.0699(4)
C6A C 0.0664(16) 0.128(3) 0.4597(3)
C7A C -0.6346(18) 0.574(3) 0.0415(3)
C8A C 0.1524(18) -0.082(2) 0.4627(3)
C9A C -0.5426(19) 0.373(3) 0.0471(3)
C10A C 0.1628(16) -0.210(2) 0.4332(3)
C11A C -0.4764(15) 0.299(2) 0.0809(3)
C12A C 0.0870(15) -0.133(2) 0.4003(3)
C13A C -0.4356(17) 0.359(2) 0.1459(3)
C14A C -0.0831(14) 0.173(2) 0.3631(3)
C15A C -0.3722(13) 0.155(2) 0.1556(3)
C16A C -0.1178(15) 0.054(2) 0.3328(3)
C17A C -0.3148(16) 0.076(2) 0.1922(3)
C18A C -0.1901(15) 0.176(2) 0.3002(3)
H1A H -0.61560 0.73090 0.12280
H2A H -0.07640 0.35110 0.42560
H3A H -0.72650 0.84820 0.06640
H4A H 0.06090 0.21990 0.48000
H5A H -0.67930 0.62310 0.01850
H6A H 0.20410 -0.13800 0.48480
H7A H -0.52280 0.28000 0.02770
H8A H 0.22320 -0.35490 0.43520
H9A H -0.41240 0.15700 0.08420
H10A H 0.09500 -0.22560 0.38030
H11A H -0.43910 0.47280 0.16360
H12A H -0.11540 0.33430 0.36260
H13A H -0.36110 0.04540 0.13770
H14A H -0.09570 -0.10990 0.33240
H15A H -0.26080 0.13620 0.24500
Cs1_2 Cs -0.50000 -0.3562(2) 0.25000
Cs1_3 Cs -0.50000 0.6438(2) 0.25000
Cs1_4 Cs 0.50000 -0.3562(2) 0.25000
Cs2_2 Cs 0.00000 -0.3743(2) 0.25000
O1_2 O 0.2828(13) 0.8678(15) 0.3028(2)
O1A_2 O -0.2828(13) 0.8678(15) 0.1972(2)
O1A_3 O 0.7172(13) 0.8678(15) 0.1972(2)
O2A_2 O 0.7820(12) 0.3903(14) 0.29921(19)
O3A_2 O 0.6964(12) 0.2355(14) 0.21626(18)
O4_2 O 0.2197(13) 1.0396(14) 0.22718(18)
O4A_2 O -0.2197(13) 1.0396(14) 0.27282(18)
O4A_3 O 0.7803(13) 1.0396(14) 0.27282(18)
loop_
_geom_bond_atom_site_label_1
_geom_bond_atom_site_label_2
_geom_bond_site_symmetry_1
_geom_bond_site_symmetry_2
Cs1 O2 1_555 1_555
Cs2 O2 1_555 1_555
O1 C17 1_555 1_555
O2 C18 1_555 1_555
O3 Cs1 1_555 1_555
O4 C18 1_555 1_555
C1 C3 1_555 1_555
C2 C4 1_555 1_555
C3 C5 1_555 1_555
C4 C6 1_555 1_555
C5 C7 1_555 1_555
C6 C8 1_555 1_555
C7 C9 1_555 1_555
C8 C10 1_555 1_555
C9 C11 1_555 1_555
C10 C12 1_555 1_555
C11 C1 1_555 1_555
C12 C2 1_555 1_555
C13 C1 1_555 1_555
C14 C2 1_555 1_555
C15 C13 1_555 1_555
C16 C14 1_555 1_555
C17 O3 1_555 1_555
C18 C16 1_555 1_555
H1 C3 1_555 1_555
H2 C4 1_555 1_555
H3 C5 1_555 1_555
H4 C6 1_555 1_555
H5 C7 1_555 1_555
H6 C8 1_555 1_555
H7 C9 1_555 1_555
H8 C10 1_555 1_555
H9 C11 1_555 1_555
H10 C12 1_555 1_555
H11 C13 1_555 1_555
H12 C14 1_555 1_555
H13 C15 1_555 1_555
H14 C16 1_555 1_555
H15 O3 1_555 1_555
O1A C17A 1_555 1_555
O2A Cs2 1_555 1_555
O3A Cs2 1_555 1_555
O4A C18A 1_555 1_555
C1A C3A 1_555 1_555
C2A C4A 1_555 1_555
C3A C5A 1_555 1_555
C4A C6A 1_555 1_555
C5A C7A 1_555 1_555
C6A C8A 1_555 1_555
C7A C9A 1_555 1_555
C8A C10A 1_555 1_555
C9A C11A 1_555 1_555
C10A C12A 1_555 1_555
C11A C1A 1_555 1_555
C12A C2A 1_555 1_555
C13A C1A 1_555 1_555
C14A C2A 1_555 1_555
C15A C13A 1_555 1_555
C16A C14A 1_555 1_555
C17A O3A 1_555 1_555
C18A O2A 1_555 1_555
H1A C3A 1_555 1_555
H2A C4A 1_555 1_555
H3A C5A 1_555 1_555
H4A C6A 1_555 1_555
H5A C7A 1_555 1_555
H6A C8A 1_555 1_555
H7A C9A 1_555 1_555
H8A C10A 1_555 1_555
H9A C11A 1_555 1_555
H10A C12A 1_555 1_555
H11A C13A 1_555 1_555
H12A C14A 1_555 1_555
H13A C15A 1_555 1_555
H14A C16A 1_555 1_555
H15A O3A 1_555 1_555
Cs1_2 O1A 1_555 1_555
Cs1_3 O2A 1_555 1_555
Cs1_4 O1 1_555 1_555
Cs2_2 O1 1_555 1_555
O1_2 Cs1 1_555 1_555
O1A_2 Cs2 1_555 1_555
O1A_3 Cs1 1_555 1_555
O2A_2 Cs1 1_555 1_555
O3A_2 Cs1 1_555 1_555
O4_2 Cs1 1_555 1_555
O4A_2 Cs2 1_555 1_555
O4A_3 Cs1 1_555 1_555
Cs2 O3 1_555 1_555
Cs2 O1_2 1_555 1_555
Cs2 O4_2 1_555 1_555
O4 H15 1_555 1_555
O4 Cs1_4 1_555 1_555
O4 Cs2_2 1_555 1_555
C15 C17 1_555 1_555
O1A Cs2_2 1_555 1_555
O3A Cs1_3 1_555 1_555
O4A H15A 1_555 1_555
O4A Cs1_2 1_555 1_555
O4A Cs2_2 1_555 1_555
C15A C17A 1_555 1_555
C16A C18A 1_555 1_555
Cs1_3 O1A_2 1_555 1_555
Cs1_3 O4A_2 1_555 1_555

#END
