
#######################################################################
#
#                 Cambridge Crystallographic Data Centre
#                                CCDC 
#
#######################################################################
#
# If this CIF has been generated from an entry in the Cambridge 
# Structural Database, then it will include bibliographic, chemical, 
# crystal, experimental, refinement or atomic coordinate data resulting 
# from the CCDC's data processing and validation procedures.
#
#######################################################################

data_XIVFEN
_symmetry_cell_setting           monoclinic
_symmetry_space_group_name_H-M   'P 21/c'
_symmetry_Int_Tables_number      14
_space_group_name_Hall           '-P 2ybc'
loop_
_symmetry_equiv_pos_site_id
_symmetry_equiv_pos_as_xyz
1 x,y,z
2 x,1/2-y,1/2+z
3 -x,-y,-z
4 -x,1/2+y,1/2-z
_cell_length_a                   7.2856(15)
_cell_length_b                   32.789(7)
_cell_length_c                   15.008(3)
_cell_angle_alpha                90
_cell_angle_beta                 91.70(3)
_cell_angle_gamma                90
_cell_volume                     3583.65
loop_
_atom_site_label
_atom_site_type_symbol
_atom_site_fract_x
_atom_site_fract_y
_atom_site_fract_z
Cu1 Cu 0.22607(8) 0.561100(19) 0.22640(3)
Cu2 Cu 0.33672(8) 0.626881(18) 0.40359(4)
N1 N 0.2319(6) 0.53261(15) 0.1097(3)
N2 N 0.2115(6) 0.50442(13) 0.2728(3)
H1 H 0.0889 0.4967 0.2742
N3 N 0.3558(6) 0.59482(13) 0.5159(3)
H2 H 0.2473 0.5983 0.5460
N4 N 0.4443(6) 0.67023(13) 0.4805(3)
O1 O 0.2635(4) 0.57700(10) 0.3483(2)
P1 P 0.3085(2) 0.65410(4) 0.20220(9)
O2 O 0.2252(5) 0.61537(12) 0.1728(2)
O3 O 0.3566(6) 0.66039(11) 0.2979(2)
O4 O 0.4911(7) 0.66259(13) 0.1505(3)
O5 O 0.1946(12) 0.6917(2) 0.1672(3)
C1 C 0.2056(8) 0.5487(2) 0.0282(3)
H3 H 0.1773 0.5769 0.0230
C2 C 0.2181(9) 0.5257(3) -0.0486(4)
H4 H 0.1983 0.5378 -0.1056
C3 C 0.2590(10) 0.4859(3) -0.0407(5)
H5 H 0.2689 0.4697 -0.0928
C4 C 0.2868(9) 0.4683(2) 0.0422(5)
H6 H 0.3154 0.4401 0.0480
C5 C 0.2718(7) 0.4929(2) 0.1168(4)
C6 C 0.3079(8) 0.47732(18) 0.2106(4)
H7 H 0.2620 0.4490 0.2161
H8 H 0.4414 0.4774 0.2250
C7 C 0.2905(8) 0.50433(16) 0.3652(3)
H9 H 0.4257 0.5013 0.3641
H10 H 0.2405 0.4811 0.3990
C8 C 0.2410(7) 0.54442(16) 0.4100(3)
H11 H 0.1108 0.5435 0.4291
C9 C 0.3691(7) 0.55167(15) 0.4908(3)
H12 H 0.3328 0.5341 0.5410
H13 H 0.4970 0.5449 0.4759
C10 C 0.5060(8) 0.61142(17) 0.5715(4)
H14 H 0.6243 0.5994 0.5539
H15 H 0.4871 0.6047 0.6349
C11 C 0.5099(8) 0.65690(17) 0.5593(4)
C12 C 0.5823(10) 0.6844(2) 0.6218(5)
H16 H 0.6290 0.6750 0.6779
C13 C 0.5856(13) 0.7250(2) 0.6016(6)
H17 H 0.6330 0.7441 0.6439
C14 C 0.5206(13) 0.7379(2) 0.5206(6)
H18 H 0.5252 0.7660 0.5050
C15 C 0.4487(10) 0.70998(18) 0.4620(4)
H19 H 0.4000 0.7192 0.4061
C16 C 0.5208(11) 0.65436(16) 0.0610(4)
C17 C 0.3826(12) 0.6546(2) -0.0029(4)
H20 H 0.2589 0.6589 0.0129
C18 C 0.4266(15) 0.6483(2) -0.0913(5)
H21 H 0.3328 0.6485 -0.1366
C19 C 0.6043(16) 0.6417(2) -0.1129(5)
H22 H 0.6341 0.6375 -0.1734
C20 C 0.7401(15) 0.6413(3) -0.0482(6)
H23 H 0.8635 0.6365 -0.0642
C21 C 0.7006(12) 0.6475(2) 0.0391(5)
H24 H 0.7954 0.6472 0.0839
C22 C 0.0709(8) 0.71357(15) 0.2150(3)
C23 C -0.0732(12) 0.6951(3) 0.2458(5)
H25 H -0.0835 0.6665 0.2359
C24 C -0.2040(14) 0.7128(3) 0.2890(6)
H26 H -0.3108 0.6986 0.3063
C25 C -0.1776(15) 0.7533(3) 0.3078(6)
H27 H -0.2682 0.7662 0.3423
C26 C -0.0361(15) 0.7768(3) 0.2825(6)
H28 H -0.0240 0.8048 0.2981
C27 C 0.0979(14) 0.7549(3) 0.2283(7)
H29 H 0.1990 0.7687 0.2034
C28 C -0.0296(13) 0.6732(3) 0.4868(6)
H30 H -0.1638 0.6721 0.4888
H31 H 0.0078 0.6992 0.4608
H32 H 0.0233 0.6708 0.5474
Cl1 Cl 0.74155(16) 0.56539(4) 0.28645(9)
O6 O 0.5822(5) 0.55991(16) 0.2301(3)
O7 O 0.7774(8) 0.53160(18) 0.3376(5)
O8 O 0.8932(6) 0.5742(2) 0.2324(3)
O9 O 0.7139(7) 0.59892(17) 0.3454(4)
O10 O 0.0323(6) 0.64154(15) 0.4352(3)
H33 H -0.0577 0.6299 0.4099
O8_2 O -0.1068(6) 0.5742(2) 0.2324(3)
Cu1_2 Cu 1.22607(8) 0.561100(19) 0.22640(3)
Cl2 Cl 0.0473(2) 0.59879(6) 0.70966(11)
O11 O 0.1760(8) 0.6291(2) 0.6904(4)
O12 O 0.051(2) 0.5896(13) 0.7976(14)
O13 O -0.1366(14) 0.6143(5) 0.6995(12)
O14 O 0.065(5) 0.5665(8) 0.662(3)
O15? O 0.130(4) 0.5649(8) 0.738(2)
O16? O -0.056(7) 0.6109(7) 0.772(3)
O17? O -0.020(3) 0.5837(9) 0.6264(12)
loop_
_geom_bond_atom_site_label_1
_geom_bond_atom_site_label_2
_geom_bond_site_symmetry_1
_geom_bond_site_symmetry_2
Cu1 N1 1_555 1_555
Cu2 N3 1_555 1_555
N1 C1 1_555 1_555
N2 Cu1 1_555 1_555
H1 N2 1_555 1_555
N3 H2 1_555 1_555
N4 Cu2 1_555 1_555
O1 Cu1 1_555 1_555
P1 O2 1_555 1_555
O2 Cu1 1_555 1_555
O3 Cu2 1_555 1_555
O4 P1 1_555 1_555
O5 P1 1_555 1_555
C1 H3 1_555 1_555
C2 C1 1_555 1_555
H4 C2 1_555 1_555
C3 C2 1_555 1_555
H5 C3 1_555 1_555
C4 C3 1_555 1_555
H6 C4 1_555 1_555
C5 N1 1_555 1_555
C6 N2 1_555 1_555
H7 C6 1_555 1_555
H8 C6 1_555 1_555
C7 N2 1_555 1_555
H9 C7 1_555 1_555
H10 C7 1_555 1_555
C8 O1 1_555 1_555
H11 C8 1_555 1_555
C9 N3 1_555 1_555
H12 C9 1_555 1_555
H13 C9 1_555 1_555
C10 N3 1_555 1_555
H14 C10 1_555 1_555
H15 C10 1_555 1_555
C11 N4 1_555 1_555
C12 C11 1_555 1_555
H16 C12 1_555 1_555
C13 C12 1_555 1_555
H17 C13 1_555 1_555
C14 C13 1_555 1_555
H18 C14 1_555 1_555
C15 N4 1_555 1_555
H19 C15 1_555 1_555
C16 O4 1_555 1_555
C17 C16 1_555 1_555
H20 C17 1_555 1_555
C18 C17 1_555 1_555
H21 C18 1_555 1_555
C19 C18 1_555 1_555
H22 C19 1_555 1_555
C20 C19 1_555 1_555
H23 C20 1_555 1_555
C21 C16 1_555 1_555
H24 C21 1_555 1_555
C22 O5 1_555 1_555
C23 C22 1_555 1_555
H25 C23 1_555 1_555
C24 C23 1_555 1_555
H26 C24 1_555 1_555
C25 C24 1_555 1_555
H27 C25 1_555 1_555
C26 C25 1_555 1_555
H28 C26 1_555 1_555
C27 C22 1_555 1_555
H29 C27 1_555 1_555
C28 H30 1_555 1_555
H31 C28 1_555 1_555
H32 C28 1_555 1_555
Cl1 O6 1_555 1_555
O6 Cu1 1_555 1_555
O7 Cl1 1_555 1_555
O8 Cl1 1_555 1_555
O9 Cl1 1_555 1_555
O10 Cu2 1_555 1_555
H33 O10 1_555 1_555
Cl2 O11 1_555 1_555
O12 Cl2 1_555 1_555
O13 Cl2 1_555 1_555
O14 Cl2 1_555 1_555
O8_2 Cu1 1_555 1_555
Cu1_2 O8 1_555 1_555
Cu2 O1 1_555 1_555
P1 O3 1_555 1_555
C4 C5 1_555 1_555
C5 C6 1_555 1_555
C7 C8 1_555 1_555
C8 C9 1_555 1_555
C10 C11 1_555 1_555
C14 C15 1_555 1_555
C20 C21 1_555 1_555
C26 C27 1_555 1_555
C28 O10 1_555 1_555

#END
