
#######################################################################
#
#                 Cambridge Crystallographic Data Centre
#                                CCDC 
#
#######################################################################
#
# If this CIF has been generated from an entry in the Cambridge 
# Structural Database, then it will include bibliographic, chemical, 
# crystal, experimental, refinement or atomic coordinate data resulting 
# from the CCDC's data processing and validation procedures.
#
#######################################################################

data_XIVTAZ
_symmetry_cell_setting           triclinic
_symmetry_space_group_name_H-M   'P -1'
_symmetry_Int_Tables_number      2
_space_group_name_Hall           '-P 1'
loop_
_symmetry_equiv_pos_site_id
_symmetry_equiv_pos_as_xyz
1 x,y,z
2 -x,-y,-z
_cell_length_a                   8.7985(8)
_cell_length_b                   11.4531(11)
_cell_length_c                   12.7944(12)
_cell_angle_alpha                82.911(8)
_cell_angle_beta                 70.969(8)
_cell_angle_gamma                88.819(8)
_cell_volume                     1209.24
loop_
_atom_site_label
_atom_site_type_symbol
_atom_site_fract_x
_atom_site_fract_y
_atom_site_fract_z
I1 I 0.62106(13) -0.02391(12) 0.63086(10)
I2 I 0.84833(15) 0.33682(12) 1.03939(9)
Cu1 Cu 0.5311(2) 0.10753(19) 0.48513(17)
Cu2 Cu 0.80311(19) 0.59003(16) 0.47905(13)
Cu3 Cu 0.9678(2) 0.5202(2) 0.90851(15)
N1 N 0.5856(13) 0.2753(12) 0.4588(10)
N2 N 0.6976(13) 0.4444(11) 0.4691(9)
N3 N 0.7641(16) 0.6416(12) 0.3382(10)
N4 N 0.9102(13) 0.7449(11) 0.4429(9)
N5 N 0.8658(12) 0.5847(11) 0.6134(9)
N6 N 0.9368(13) 0.5764(12) 0.7669(9)
C1 C 0.6524(16) 0.3377(14) 0.5164(12)
H1 H 0.6650 0.3072 0.5838
C2 C 0.5866(18) 0.3495(15) 0.3689(13)
H2 H 0.5482 0.3315 0.3130
C3 C 0.6531(17) 0.4568(16) 0.3718(13)
C4 C 0.6931(18) 0.5662(15) 0.3027(12)
H3 H 0.6696 0.5821 0.2367
C5 C 0.837(3) 0.7492(11) 0.2803(15)
H4 H 0.9421 0.7219 0.2368
C6 C 0.7867(17) 0.8161(12) 0.1888(10)
H5 H 0.7988 0.7657 0.1310
H6 H 0.6734 0.8336 0.2186
C7 C 0.878(3) 0.9283(13) 0.1370(12)
H7 H 0.9735 0.9100 0.0779
H8 H 0.8122 0.9776 0.1023
C8 C 0.929(3) 0.9986(12) 0.2099(16)
H9 H 0.8405 1.0488 0.2437
H10 H 1.0181 1.0495 0.1637
C9 C 0.9779(17) 0.9303(11) 0.3014(11)
H11 H 1.0906 0.9114 0.2712
H12 H 0.9679 0.9806 0.3588
C10 C 0.885(3) 0.8194(13) 0.3540(12)
H13 H 0.7805 0.8517 0.3930
C11 C 0.9666(17) 0.7729(14) 0.5160(12)
H14 H 1.0188 0.8450 0.5075
C12 C 0.9469(15) 0.6906(13) 0.6102(10)
C13 C 0.9897(17) 0.6812(15) 0.7042(11)
H15 H 1.0468 0.7383 0.7226
C14 C 0.8654(16) 0.5189(14) 0.7078(12)
H16 H 0.8216 0.4431 0.7302
I1A I 0.37894(13) 0.02391(12) 0.36914(10)
I2A I 1.15167(15) 0.66318(12) 0.96061(9)
Cu1A Cu 0.4689(2) -0.10753(19) 0.51487(17)
Cu3A Cu 1.0322(2) 0.4798(2) 1.09149(15)
O1 O 0.6322(19) 0.2922(17) 0.7950(15)
N7 N 0.4848(17) 0.2446(18) 0.9707(15)
C15 C 0.589(2) 0.213(2) 0.8759(16)
H17 H 0.6258 0.1363 0.8707
C16 C 0.430(4) 0.364(2) 0.975(3)
H18 H 0.4774 0.4092 0.9039
H19 H 0.4613 0.3980 1.0304
H20 H 0.3150 0.3643 0.9948
C17 C 0.413(3) 0.175(3) 1.077(2)
H21 H 0.3994 0.2230 1.1357
H22 H 0.4819 0.1107 1.0854
H23 H 0.3103 0.1444 1.0810
loop_
_geom_bond_atom_site_label_1
_geom_bond_atom_site_label_2
_geom_bond_site_symmetry_1
_geom_bond_site_symmetry_2
I1 Cu1 1_555 1_555
I2 Cu3 1_555 1_555
Cu1 N1 1_555 1_555
Cu2 N2 1_555 1_555
Cu3 N6 1_555 1_555
N1 C1 1_555 1_555
N2 C1 1_555 1_555
N3 Cu2 1_555 1_555
N4 Cu2 1_555 1_555
N5 Cu2 1_555 1_555
N6 C13 1_555 1_555
C1 H1 1_555 1_555
C2 N1 1_555 1_555
H2 C2 1_555 1_555
C3 N2 1_555 1_555
C4 N3 1_555 1_555
H3 C4 1_555 1_555
C5 N3 1_555 1_555
H4 C5 1_555 1_555
C6 C5 1_555 1_555
H5 C6 1_555 1_555
H6 C6 1_555 1_555
C7 C6 1_555 1_555
H7 C7 1_555 1_555
H8 C7 1_555 1_555
C8 C7 1_555 1_555
H9 C8 1_555 1_555
H10 C8 1_555 1_555
C9 C8 1_555 1_555
H11 C9 1_555 1_555
H12 C9 1_555 1_555
C10 N4 1_555 1_555
H13 C10 1_555 1_555
C11 N4 1_555 1_555
H14 C11 1_555 1_555
C12 N5 1_555 1_555
C13 C12 1_555 1_555
H15 C13 1_555 1_555
C14 N5 1_555 1_555
H16 C14 1_555 1_555
O1 C15 1_555 1_555
N7 C15 1_555 1_555
C15 H17 1_555 1_555
C16 N7 1_555 1_555
H18 C16 1_555 1_555
H19 C16 1_555 1_555
H20 C16 1_555 1_555
C17 N7 1_555 1_555
H21 C17 1_555 1_555
H22 C17 1_555 1_555
H23 C17 1_555 1_555
I1A Cu1 1_555 1_555
I2A Cu3 1_555 1_555
Cu1A I1 1_555 1_555
Cu3A I2 1_555 1_555
N6 C14 1_555 1_555
C2 C3 1_555 1_555
C3 C4 1_555 1_555
C5 C10 1_555 1_555
C9 C10 1_555 1_555
C11 C12 1_555 1_555
I1A Cu1A 1_555 1_555
I2A Cu3A 1_555 1_555

#END
