
#######################################################################
#
#                 Cambridge Crystallographic Data Centre
#                                CCDC 
#
#######################################################################
#
# If this CIF has been generated from an entry in the Cambridge 
# Structural Database, then it will include bibliographic, chemical, 
# crystal, experimental, refinement or atomic coordinate data resulting 
# from the CCDC's data processing and validation procedures.
#
#######################################################################

data_XIVVOP
_symmetry_cell_setting           monoclinic
_symmetry_space_group_name_H-M   'P 21/c'
_symmetry_Int_Tables_number      14
_space_group_name_Hall           '-P 2ybc'
loop_
_symmetry_equiv_pos_site_id
_symmetry_equiv_pos_as_xyz
1 x,y,z
2 -x,1/2+y,1/2-z
3 -x,-y,-z
4 x,1/2-y,1/2+z
_cell_length_a                   6.8098(14)
_cell_length_b                   31.143(6)
_cell_length_c                   13.070(4)
_cell_angle_alpha                90
_cell_angle_beta                 120.24(2)
_cell_angle_gamma                90
_cell_volume                     2394.67
loop_
_atom_site_label
_atom_site_type_symbol
_atom_site_fract_x
_atom_site_fract_y
_atom_site_fract_z
La1 La 0.30223(17) 0.58438(3) 0.54681(9)
La2 La -0.07965(19) 0.74747(3) 0.70589(10)
C1 C 0.070(3) 0.5669(6) 0.2845(14)
O1 O 0.063(2) 0.6031(4) 0.3200(11)
C2 C -0.154(3) 0.5868(5) 0.0713(15)
H1 H -0.1263 0.6155 0.0939
O2 O -0.459(3) 0.6000(5) -0.2451(14)
O3 O 0.167(2) 0.7232(4) 0.9241(13)
O4 O 0.651(3) 0.7862(5) 0.9965(14)
O5 O -0.026(2) 0.6662(4) 0.7180(13)
C3 C -0.323(3) 0.5338(6) -0.0797(17)
H2 H -0.4026 0.5269 -0.1599
C4 C 0.371(3) 0.7344(6) 0.9828(19)
N1 N -0.396(3) 0.3691(6) -0.0956(16)
H3 H -0.4313 0.3426 -0.1152
O6 O -0.099(2) 0.5515(5) 0.4510(14)
O7 O 0.209(3) 0.5377(4) 0.3595(12)
O8 O 0.517(2) 0.7175(4) 1.0791(12)
C5 C -0.211(3) 0.4207(6) 0.0495(17)
H4 H -0.1141 0.4271 0.1291
O9 O 0.225(3) 0.6632(5) 0.5412(13)
O10 O -0.279(2) 0.4897(4) 0.3853(12)
O11 O -0.349(2) 0.7206(5) 0.7709(14)
H5 H -0.4536 0.7391 0.7531
H6 H -0.2767 0.7168 0.8455
O12 O 0.690(3) 0.5466(5) 0.6181(16)
H7 H 0.7973 0.5644 0.6567
H8 H 0.6964 0.5374 0.5583
O13 O 0.063(3) 0.6097(5) 0.6414(17)
C6 C -0.108(4) 0.5113(7) 0.454(2)
O14 O -0.037(2) 0.8006(4) 0.5700(11)
H9 H 0.0549 0.7873 0.5550
H10 H -0.0585 0.8255 0.5398
O15 O -0.351(2) 0.6492(4) -0.1066(11)
C7 C -0.369(3) 0.6109(6) -0.1412(15)
C8 C 0.454(3) 0.7715(6) 0.9348(16)
O16 O 0.544(3) 0.6229(5) 0.4676(17)
H11 H 0.6571 0.6058 0.4725
H12 H 0.6127 0.6472 0.5094
O17 O 0.314(2) 0.7838(5) 0.8315(13)
C9 C -0.248(3) 0.5000(5) 0.0049(17)
O18 O 0.173(3) 0.7183(5) 0.6334(15)
C10 C -0.296(3) 0.4545(5) -0.0331(15)
C11 C -0.267(4) 0.3784(6) 0.016(2)
H13 H -0.2133 0.3568 0.0730
C12 C 0.058(3) 0.6490(6) 0.665(2)
C13 C -0.064(3) 0.5547(6) 0.1574(16)
C14 C -0.480(4) 0.3998(7) -0.185(2)
H14 H -0.5699 0.3920 -0.2636
C15 C -0.282(3) 0.5764(5) -0.0469(16)
C16 C -0.113(3) 0.5129(5) 0.1245(14)
H15 H -0.0558 0.4919 0.1830
O19 O -0.151(3) 0.8107(7) 0.8123(17)
H16 H -0.1772 0.8358 0.7720
H17 H -0.0303 0.8152 0.8857
C17 C 0.164(3) 0.6791(6) 0.6081(18)
C18 C -0.427(4) 0.4418(6) -0.1532(18)
H18 H -0.4786 0.4626 -0.2121
O6B O 0.099(2) 0.4485(5) 0.5490(14)
C6B C 0.108(4) 0.4887(7) 0.546(2)
O10B O 0.279(2) 0.5103(4) 0.6147(12)
La1B La -0.30223(17) 0.41562(3) 0.45319(9)
La2B La 0.07965(19) 0.25253(3) 0.29411(10)
C1B C -0.070(3) 0.4331(6) 0.7155(14)
O1B O -0.063(2) 0.3969(4) 0.6800(11)
C2B C 0.154(3) 0.4132(5) 0.9287(15)
H1B H 0.1263 0.3845 0.9061
O2B O 0.459(3) 0.4000(5) 1.2451(14)
O3B O -0.167(2) 0.2768(4) 0.0759(13)
O4B O -0.651(3) 0.2138(5) 0.0035(14)
O5B O 0.026(2) 0.3338(4) 0.2820(13)
C3B C 0.323(3) 0.4662(6) 1.0797(17)
H2B H 0.4026 0.4731 1.1599
C4B C -0.371(3) 0.2656(6) 0.0172(19)
N1B N 0.396(3) 0.6309(6) 1.0956(16)
H3B H 0.4313 0.6574 1.1152
O7B O -0.209(3) 0.4623(4) 0.6405(12)
O8B O -0.517(2) 0.2825(4) -0.0791(12)
C5B C 0.211(3) 0.5793(6) 0.9505(17)
H4B H 0.1141 0.5729 0.8709
O9B O -0.225(3) 0.3368(5) 0.4588(13)
O11B O 0.349(2) 0.2794(5) 0.2291(14)
H5B H 0.4536 0.2609 0.2469
H6B H 0.2767 0.2832 0.1545
O12B O -0.690(3) 0.4534(5) 0.3819(16)
H7B H -0.7973 0.4356 0.3433
H8B H -0.6964 0.4626 0.4417
O13B O -0.063(3) 0.3903(5) 0.3586(17)
O14B O 0.037(2) 0.1994(4) 0.4300(11)
H9B H -0.0549 0.2127 0.4450
H10B H 0.0585 0.1745 0.4602
O15B O 0.351(2) 0.3508(4) 1.1066(11)
C7B C 0.369(3) 0.3891(6) 1.1412(15)
C8B C -0.454(3) 0.2285(6) 0.0652(16)
O16B O -0.544(3) 0.3771(5) 0.5324(17)
H11B H -0.6571 0.3942 0.5275
H12B H -0.6127 0.3528 0.4906
O17B O -0.314(2) 0.2162(5) 0.1685(13)
C9B C 0.248(3) 0.5000(5) 0.9951(17)
O18B O -0.173(3) 0.2817(5) 0.3666(15)
C10B C 0.296(3) 0.5455(5) 1.0331(15)
C11B C 0.267(4) 0.6216(6) 0.984(2)
H13B H 0.2133 0.6432 0.9270
C12B C -0.058(3) 0.3510(6) 0.335(2)
C13B C 0.064(3) 0.4453(6) 0.8426(16)
C14B C 0.480(4) 0.6002(7) 1.185(2)
H14B H 0.5699 0.6080 1.2636
C15B C 0.282(3) 0.4236(5) 1.0469(16)
C16B C 0.113(3) 0.4871(5) 0.8755(14)
H15B H 0.0558 0.5081 0.8170
O19B O 0.151(3) 0.1893(7) 0.1877(17)
H16B H 0.1772 0.1642 0.2280
H17B H 0.0303 0.1848 0.1143
C17B C -0.164(3) 0.3209(6) 0.3919(18)
C18B C 0.427(4) 0.5582(6) 1.1532(18)
H18B H 0.4786 0.5374 1.2121
La1_2 La -0.69777(17) 0.58438(3) -0.45319(9)
La1B_2 La 0.69777(17) 0.41562(3) 1.45319(9)
La2A La -0.92035(19) 0.24747(3) -0.20589(10)
La2C La 0.92035(19) 0.75253(3) 1.20589(10)
O2_2 O 0.541(3) 0.6000(5) 0.7549(14)
O2B_2 O -0.541(3) 0.4000(5) 0.2451(14)
O4A O 0.349(3) 0.2862(5) 0.5035(14)
O4C O -0.349(3) 0.7138(5) 0.4965(14)
O8A O 0.483(2) 0.2175(4) 0.4209(12)
O8C O -0.483(2) 0.7825(4) 0.5791(12)
loop_
_geom_bond_atom_site_label_1
_geom_bond_atom_site_label_2
_geom_bond_site_symmetry_1
_geom_bond_site_symmetry_2
La1 O1 1_555 1_555
La2 O3 1_555 1_555
C1 O1 1_555 1_555
C2 H1 1_555 1_555
O2 C7 1_555 1_555
O3 C4 1_555 1_555
O4 C8 1_555 1_555
O5 La2 1_555 1_555
C3 H2 1_555 1_555
C4 O8 1_555 1_555
N1 H3 1_555 1_555
O6 La1 1_555 1_555
O7 La1 1_555 1_555
O8 La2C 1_555 1_555
C5 H4 1_555 1_555
O9 La1 1_555 1_555
O10 C6 1_555 1_555
O11 La2 1_555 1_555
H5 O11 1_555 1_555
H6 O11 1_555 1_555
O12 La1 1_555 1_555
H7 O12 1_555 1_555
H8 O12 1_555 1_555
O13 La1 1_555 1_555
C6 O6 1_555 1_555
O14 La2 1_555 1_555
H9 O14 1_555 1_555
H10 O14 1_555 1_555
O15 C7 1_555 1_555
C7 C15 1_555 1_555
C8 C4 1_555 1_555
O16 La1 1_555 1_555
H11 O16 1_555 1_555
H12 O16 1_555 1_555
O17 La2 1_555 1_555
C9 C3 1_555 1_555
O18 La2 1_555 1_555
C10 C5 1_555 1_555
C11 N1 1_555 1_555
H13 C11 1_555 1_555
C12 O5 1_555 1_555
C13 C1 1_555 1_555
C14 N1 1_555 1_555
H14 C14 1_555 1_555
C15 C2 1_555 1_555
C16 C9 1_555 1_555
H15 C16 1_555 1_555
O19 La2 1_555 1_555
H16 O19 1_555 1_555
H17 O19 1_555 1_555
C17 O9 1_555 1_555
C18 C10 1_555 1_555
H18 C18 1_555 1_555
O6B C6B 1_555 1_555
C6B C6 1_555 1_555
O10B La1 1_555 1_555
La1B O10 1_555 1_555
La2B O3B 1_555 1_555
C1B O1B 1_555 1_555
O1B La1B 1_555 1_555
C2B H1B 1_555 1_555
O2B C7B 1_555 1_555
O3B C4B 1_555 1_555
O4B C8B 1_555 1_555
O5B La2B 1_555 1_555
C3B H2B 1_555 1_555
C4B O8B 1_555 1_555
N1B H3B 1_555 1_555
O7B La1B 1_555 1_555
O8B La2A 1_555 1_555
C5B H4B 1_555 1_555
O9B La1B 1_555 1_555
O11B La2B 1_555 1_555
H5B O11B 1_555 1_555
H6B O11B 1_555 1_555
O12B La1B 1_555 1_555
H7B O12B 1_555 1_555
H8B O12B 1_555 1_555
O13B La1B 1_555 1_555
O14B La2B 1_555 1_555
H9B O14B 1_555 1_555
H10B O14B 1_555 1_555
O15B C7B 1_555 1_555
C7B C15B 1_555 1_555
C8B C4B 1_555 1_555
O16B La1B 1_555 1_555
H11B O16B 1_555 1_555
H12B O16B 1_555 1_555
O17B La2B 1_555 1_555
C9B C3B 1_555 1_555
O18B La2B 1_555 1_555
C10B C5B 1_555 1_555
C11B N1B 1_555 1_555
H13B C11B 1_555 1_555
C12B O5B 1_555 1_555
C13B C1B 1_555 1_555
C14B N1B 1_555 1_555
H14B C14B 1_555 1_555
C15B C2B 1_555 1_555
C16B C9B 1_555 1_555
H15B C16B 1_555 1_555
O19B La2B 1_555 1_555
H16B O19B 1_555 1_555
H17B O19B 1_555 1_555
C17B O9B 1_555 1_555
C18B C10B 1_555 1_555
H18B C18B 1_555 1_555
La1_2 O2 1_555 1_555
La1B_2 O2B 1_555 1_555
La2A O4B 1_555 1_555
La2C O4 1_555 1_555
O2_2 La1 1_555 1_555
O2B_2 La1B 1_555 1_555
O4A La2B 1_555 1_555
O4C La2 1_555 1_555
O8A La2B 1_555 1_555
O8C La2 1_555 1_555
C1 O7 1_555 1_555
C2 C13 1_555 1_555
C3 C15 1_555 1_555
C5 C11 1_555 1_555
O13 C12 1_555 1_555
C8 O17 1_555 1_555
C9 C10 1_555 1_555
O18 C17 1_555 1_555
C12 C17 1_555 1_555
C13 C16 1_555 1_555
C14 C18 1_555 1_555
O6B La1B 1_555 1_555
C6B O10B 1_555 1_555
C1B O7B 1_555 1_555
C2B C13B 1_555 1_555
C3B C15B 1_555 1_555
C5B C11B 1_555 1_555
O13B C12B 1_555 1_555
C8B O17B 1_555 1_555
C9B C10B 1_555 1_555
O18B C17B 1_555 1_555
C12B C17B 1_555 1_555
C13B C16B 1_555 1_555
C14B C18B 1_555 1_555

#END
