
#######################################################################
#
#                 Cambridge Crystallographic Data Centre
#                                CCDC 
#
#######################################################################
#
# If this CIF has been generated from an entry in the Cambridge 
# Structural Database, then it will include bibliographic, chemical, 
# crystal, experimental, refinement or atomic coordinate data resulting 
# from the CCDC's data processing and validation procedures.
#
#######################################################################

data_XIVWUW
_symmetry_cell_setting           monoclinic
_symmetry_space_group_name_H-M   'P 21/c'
_symmetry_Int_Tables_number      14
_space_group_name_Hall           '-P 2ybc'
loop_
_symmetry_equiv_pos_site_id
_symmetry_equiv_pos_as_xyz
1 x,y,z
2 -x,1/2+y,1/2-z
3 -x,-y,-z
4 x,1/2-y,1/2+z
_cell_length_a                   6.6610(13)
_cell_length_b                   30.580(6)
_cell_length_c                   12.763(3)
_cell_angle_alpha                90
_cell_angle_beta                 121.00(2)
_cell_angle_gamma                90
_cell_volume                     2228.41
loop_
_atom_site_label
_atom_site_type_symbol
_atom_site_fract_x
_atom_site_fract_y
_atom_site_fract_z
H1 H 0.328(15) -0.164(3) 0.627(8)
Dy1 Dy 0.70483(7) 0.083811(11) 0.95723(4)
Dy2 Dy 0.04189(8) 0.245773(11) 0.81093(4)
O1 O 0.3876(13) 0.15124(19) 0.6218(6)
O2 O 0.5675(13) 0.0994(2) 0.7590(6)
O3 O -0.0940(12) 0.10649(19) 0.1749(6)
O4 O -0.0172(12) 0.04033(19) 0.1343(6)
O5 O 0.2884(12) 0.1076(2) 0.8607(7)
O6 O 0.6620(12) 0.1608(2) 0.9641(6)
O7 O 0.0509(11) 0.16640(19) 0.7956(6)
O8 O 0.4237(11) 0.21799(18) 0.8779(6)
O9 O 0.5524(12) 0.01309(18) 0.8835(6)
O10 O 0.4923(11) -0.05213(19) 0.9431(6)
O11 O 0.1934(13) 0.2137(2) 1.0179(6)
O12 O 0.3325(13) 0.2981(2) 0.9390(7)
O13 O 0.1984(13) 0.2168(2) 1.1934(6)
O14 O -0.2191(15) 0.3071(2) 0.7080(7)
O15 O -0.1414(12) 0.27658(19) 1.0974(6)
O16 O -0.3408(12) 0.2208(2) 0.7464(7)
H2 H -0.4500 0.2241 0.6725
H3 H -0.3692 0.2085 0.7972
O17 O 1.0839(15) 0.1204(2) 1.0233(8)
O18 O 0.9492(13) 0.0461(2) 0.8928(8)
O19 O -0.1131(11) 0.28009(19) 0.9315(6)
N1 N 0.2959(15) -0.1335(2) 0.5968(8)
C1 C 0.1877(17) -0.1229(3) 0.4774(9)
H4 H 0.1208 -0.1444 0.4176
C2 C 0.1776(17) -0.0795(3) 0.4450(10)
H5 H 0.1068 -0.0720 0.3628
C3 C 0.2717(15) -0.0465(3) 0.5334(8)
C4 C 0.3811(16) -0.0595(3) 0.6560(9)
H6 H 0.4488 -0.0388 0.7181
C5 C 0.3877(17) -0.1031(3) 0.6839(10)
H7 H 0.4578 -0.1115 0.7654
C6 C 0.2518(14) 0.0004(3) 0.4979(8)
C7 C 0.1407(15) 0.0128(3) 0.3764(9)
H8 H 0.0785 -0.0087 0.3162
C8 C 0.1194(14) 0.0564(2) 0.3418(8)
C9 C 0.2048(12) 0.0883(2) 0.4279(7)
H9 H 0.1835 0.1175 0.4041
C10 C 0.3280(14) 0.0774(2) 0.5556(8)
C11 C 0.3450(15) 0.0336(3) 0.5846(8)
H10 H 0.4232 0.0258 0.6667
C12 C 0.4343(15) 0.1120(3) 0.6509(9)
C13 C -0.0097(14) 0.0694(2) 0.2072(8)
C14 C 0.2500(17) 0.1478(3) 0.8461(9)
C15 C 0.4616(16) 0.1782(3) 0.8992(9)
C16 C 0.5113(15) -0.0115(3) 0.9492(8)
C17 C 0.1297(15) 0.2283(3) 1.0868(8)
C18 C -0.0549(16) 0.2648(3) 1.0339(9)
H11 H 0.308(13) 0.311(3) 0.990(5)
H12 H 0.467(7) 0.287(3) 0.981(6)
H13 H 1.079(15) 0.118(3) 0.956(4)
H14 H 0.996(14) 0.142(2) 1.015(7)
H15 H 1.052(10) 0.0661(17) 0.919(8)
H16 H 1.016(12) 0.0241(16) 0.938(7)
H17 H -0.362(6) 0.300(3) 0.655(6)
H18 H -0.198(13) 0.3299(19) 0.674(7)
O9B O 0.4476(12) -0.01309(18) 1.1165(6)
C16B C 0.4887(15) 0.0115(3) 1.0508(8)
O10B O 0.5077(11) 0.05213(19) 1.0569(6)
H1B H 0.672(15) 0.164(3) 1.373(8)
Dy1B Dy 0.29517(7) -0.083811(11) 1.04277(4)
Dy2B Dy 0.95811(8) -0.245773(11) 1.18907(4)
O1B O 0.6124(13) -0.15124(19) 1.3782(6)
O2B O 0.4325(13) -0.0994(2) 1.2410(6)
O3B O 1.0940(12) -0.10649(19) 1.8251(6)
O4B O 1.0172(12) -0.04033(19) 1.8657(6)
O5B O 0.7116(12) -0.1076(2) 1.1393(7)
O6B O 0.3380(12) -0.1608(2) 1.0359(6)
O7B O 0.9491(11) -0.16640(19) 1.2044(6)
O8B O 0.5763(11) -0.21799(18) 1.1221(6)
O11B O 0.8066(13) -0.2137(2) 0.9821(6)
O12B O 0.6675(13) -0.2981(2) 1.0610(7)
O13B O 0.8016(13) -0.2168(2) 0.8066(6)
O14B O 1.2191(15) -0.3071(2) 1.2920(7)
O15B O 1.1414(12) -0.27658(19) 0.9026(6)
O16B O 1.3408(12) -0.2208(2) 1.2536(7)
H2B H 1.4500 -0.2241 1.3275
H3B H 1.3692 -0.2085 1.2028
O17B O -0.0839(15) -0.1204(2) 0.9767(8)
O18B O 0.0508(13) -0.0461(2) 1.1072(8)
O19B O 1.1131(11) -0.28009(19) 1.0685(6)
N1B N 0.7041(15) 0.1335(2) 1.4032(8)
C1B C 0.8123(17) 0.1229(3) 1.5226(9)
H4B H 0.8792 0.1444 1.5824
C2B C 0.8224(17) 0.0795(3) 1.5550(10)
H5B H 0.8932 0.0720 1.6372
C3B C 0.7283(15) 0.0465(3) 1.4666(8)
C4B C 0.6189(16) 0.0595(3) 1.3440(9)
H6B H 0.5512 0.0388 1.2819
C5B C 0.6123(17) 0.1031(3) 1.3161(10)
H7B H 0.5422 0.1115 1.2346
C6B C 0.7482(14) -0.0004(3) 1.5021(8)
C7B C 0.8593(15) -0.0128(3) 1.6236(9)
H8B H 0.9215 0.0087 1.6838
C8B C 0.8806(14) -0.0564(2) 1.6582(8)
C9B C 0.7952(12) -0.0883(2) 1.5721(7)
H9B H 0.8165 -0.1175 1.5959
C10B C 0.6720(14) -0.0774(2) 1.4444(8)
C11B C 0.6550(15) -0.0336(3) 1.4154(8)
H10B H 0.5768 -0.0258 1.3333
C12B C 0.5657(15) -0.1120(3) 1.3491(9)
C13B C 1.0097(14) -0.0694(2) 1.7928(8)
C14B C 0.7500(17) -0.1478(3) 1.1539(9)
C15B C 0.5384(16) -0.1782(3) 1.1008(9)
C17B C 0.8703(15) -0.2283(3) 0.9132(8)
C18B C 1.0549(16) -0.2648(3) 0.9661(9)
H11B H 0.692(13) -0.311(3) 1.010(5)
H12B H 0.533(7) -0.287(3) 1.019(6)
H13B H -0.079(15) -0.118(3) 1.044(4)
H14B H 0.004(14) -0.142(2) 0.985(7)
H15B H -0.052(10) -0.0661(17) 1.081(8)
H16B H -0.016(12) -0.0241(16) 1.062(7)
H17B H 1.362(6) -0.300(3) 1.345(6)
H18B H 1.198(13) -0.3299(19) 1.326(7)
Dy1_2 Dy -0.29517(7) 0.083811(11) -0.04277(4)
Dy1B_2 Dy 1.29517(7) -0.083811(11) 2.04277(4)
Dy2A Dy 0.95811(8) -0.254227(11) 0.68907(4)
Dy2C Dy 0.04189(8) 0.254227(11) 1.31093(4)
O3_2 O 0.9060(12) 0.10649(19) 1.1749(6)
O3B_2 O 0.0940(12) -0.10649(19) 0.8251(6)
O4_2 O 0.9828(12) 0.04033(19) 1.1343(6)
O4B_2 O 0.0172(12) -0.04033(19) 0.8657(6)
O13A O 0.8016(13) -0.2832(2) 1.3066(6)
O13C O 0.1984(13) 0.2832(2) 0.6934(6)
O15A O 1.1414(12) -0.22342(19) 1.4026(6)
O15C O -0.1414(12) 0.22342(19) 0.5974(6)
loop_
_geom_bond_atom_site_label_1
_geom_bond_atom_site_label_2
_geom_bond_site_symmetry_1
_geom_bond_site_symmetry_2
H1 N1 1_555 1_555
Dy1 O2 1_555 1_555
Dy2 O7 1_555 1_555
O1 C12 1_555 1_555
O2 C12 1_555 1_555
O3 C13 1_555 1_555
O4 C13 1_555 1_555
O5 Dy1 1_555 1_555
O6 Dy1 1_555 1_555
O7 C14 1_555 1_555
O8 Dy2 1_555 1_555
O9 Dy1 1_555 1_555
O10 C16 1_555 1_555
O11 Dy2 1_555 1_555
O12 Dy2 1_555 1_555
O13 C17 1_555 1_555
O14 Dy2 1_555 1_555
O15 C18 1_555 1_555
O16 Dy2 1_555 1_555
H2 O16 1_555 1_555
H3 O16 1_555 1_555
O17 Dy1 1_555 1_555
O18 Dy1 1_555 1_555
O19 Dy2 1_555 1_555
N1 C1 1_555 1_555
C1 H4 1_555 1_555
C2 C1 1_555 1_555
H5 C2 1_555 1_555
C3 C2 1_555 1_555
C4 C3 1_555 1_555
H6 C4 1_555 1_555
C5 N1 1_555 1_555
H7 C5 1_555 1_555
C6 C3 1_555 1_555
C7 C6 1_555 1_555
H8 C7 1_555 1_555
C8 C7 1_555 1_555
C9 C8 1_555 1_555
H9 C9 1_555 1_555
C10 C9 1_555 1_555
C11 C6 1_555 1_555
H10 C11 1_555 1_555
C12 C10 1_555 1_555
C13 C8 1_555 1_555
C14 O5 1_555 1_555
C15 O6 1_555 1_555
C16 O9 1_555 1_555
C17 O11 1_555 1_555
C18 O19 1_555 1_555
H11 O12 1_555 1_555
H12 O12 1_555 1_555
H13 O17 1_555 1_555
H14 O17 1_555 1_555
H15 O18 1_555 1_555
H16 O18 1_555 1_555
H17 O14 1_555 1_555
H18 O14 1_555 1_555
O9B C16B 1_555 1_555
C16B C16 1_555 1_555
O10B Dy1 1_555 1_555
H1B N1B 1_555 1_555
Dy1B O10 1_555 1_555
Dy2B O7B 1_555 1_555
O1B C12B 1_555 1_555
O2B Dy1B 1_555 1_555
O3B C13B 1_555 1_555
O4B C13B 1_555 1_555
O5B Dy1B 1_555 1_555
O6B Dy1B 1_555 1_555
O7B C14B 1_555 1_555
O8B Dy2B 1_555 1_555
O11B Dy2B 1_555 1_555
O12B Dy2B 1_555 1_555
O13B C17B 1_555 1_555
O14B Dy2B 1_555 1_555
O15B C18B 1_555 1_555
O16B Dy2B 1_555 1_555
H2B O16B 1_555 1_555
H3B O16B 1_555 1_555
O17B Dy1B 1_555 1_555
O18B Dy1B 1_555 1_555
O19B Dy2B 1_555 1_555
N1B C1B 1_555 1_555
C1B H4B 1_555 1_555
C2B C1B 1_555 1_555
H5B C2B 1_555 1_555
C3B C2B 1_555 1_555
C4B C3B 1_555 1_555
H6B C4B 1_555 1_555
C5B N1B 1_555 1_555
H7B C5B 1_555 1_555
C6B C3B 1_555 1_555
C7B C6B 1_555 1_555
H8B C7B 1_555 1_555
C8B C7B 1_555 1_555
C9B C8B 1_555 1_555
H9B C9B 1_555 1_555
C10B C9B 1_555 1_555
C11B C6B 1_555 1_555
H10B C11B 1_555 1_555
C12B O2B 1_555 1_555
C13B C8B 1_555 1_555
C14B O5B 1_555 1_555
C15B O6B 1_555 1_555
C17B O11B 1_555 1_555
C18B O19B 1_555 1_555
H11B O12B 1_555 1_555
H12B O12B 1_555 1_555
H13B O17B 1_555 1_555
H14B O17B 1_555 1_555
H15B O18B 1_555 1_555
H16B O18B 1_555 1_555
H17B O14B 1_555 1_555
H18B O14B 1_555 1_555
Dy1_2 O3 1_555 1_555
Dy1B_2 O3B 1_555 1_555
Dy2A O13B 1_555 1_555
Dy2C O13 1_555 1_555
O3_2 Dy1 1_555 1_555
O3B_2 Dy1B 1_555 1_555
O4_2 Dy1 1_555 1_555
O4B_2 Dy1B 1_555 1_555
O13A Dy2B 1_555 1_555
O13C Dy2 1_555 1_555
O15A Dy2B 1_555 1_555
O15C Dy2 1_555 1_555
O4 Dy1_2 1_555 1_555
O8 C15 1_555 1_555
O15 Dy2C 1_555 1_555
C4 C5 1_555 1_555
C10 C11 1_555 1_555
C14 C15 1_555 1_555
C17 C18 1_555 1_555
O9B Dy1B 1_555 1_555
C16B O10B 1_555 1_555
O4B Dy1B_2 1_555 1_555
O8B C15B 1_555 1_555
O15B Dy2A 1_555 1_555
C4B C5B 1_555 1_555
C10B C11B 1_555 1_555
C10B C12B 1_555 1_555
C14B C15B 1_555 1_555
C17B C18B 1_555 1_555

#END
