
#######################################################################
#
#                 Cambridge Crystallographic Data Centre
#                                CCDC 
#
#######################################################################
#
# If this CIF has been generated from an entry in the Cambridge 
# Structural Database, then it will include bibliographic, chemical, 
# crystal, experimental, refinement or atomic coordinate data resulting 
# from the CCDC's data processing and validation procedures.
#
#######################################################################

data_XIVWEG
_symmetry_cell_setting           monoclinic
_symmetry_space_group_name_H-M   'P 21/c'
_symmetry_Int_Tables_number      14
_space_group_name_Hall           '-P 2ybc'
loop_
_symmetry_equiv_pos_site_id
_symmetry_equiv_pos_as_xyz
1 x,y,z
2 -x,1/2+y,1/2-z
3 -x,-y,-z
4 x,1/2-y,1/2+z
_cell_length_a                   6.6740(13)
_cell_length_b                   30.729(6)
_cell_length_c                   12.805(4)
_cell_angle_alpha                90
_cell_angle_beta                 120.67(2)
_cell_angle_gamma                90
_cell_volume                     2258.78
loop_
_atom_site_label
_atom_site_type_symbol
_atom_site_fract_x
_atom_site_fract_y
_atom_site_fract_z
Eu1 Eu 0.58093(4) 0.246178(8) 0.30615(2)
Eu2 Eu 0.20637(4) 0.083924(8) 0.45590(2)
O1 O 0.2857(7) 0.04012(12) 0.6353(3)
O2 O 0.4422(7) 0.10538(11) 0.6765(3)
O3 O 0.8554(8) 0.15094(12) 1.1167(4)
O4 O 0.9500(8) 0.09976(13) 1.2539(4)
O5 O 0.2698(8) 0.16147(12) 0.4634(4)
O6 O 0.4358(8) 0.10776(12) 0.3590(4)
O7 O 0.5390(7) 0.16615(12) 0.2921(4)
O8 O 0.3313(7) 0.21813(12) 0.3748(4)
O9 O 0.3375(6) 0.22337(11) 0.0913(3)
O10 O 0.1896(7) 0.28359(13) 0.1870(4)
O11 O -0.0210(6) 0.21949(12) -0.0716(3)
O12 O -0.1550(7) 0.28636(13) 0.0137(4)
O13 O 0.2169(7) 0.01220(12) 0.3844(3)
O14 O 0.3947(7) -0.05202(12) 0.4445(4)
O15 O -0.1679(7) 0.04611(13) 0.3917(4)
H1 H -0.2960 0.0588 0.3441
H2 H -0.1682 0.0205 0.4171
O16 O -0.0396(8) 0.12160(14) 0.5220(5)
H3 H -0.0487 0.1492 0.5195
H4 H -0.1146 0.1068 0.5472
O17 O 0.8397(7) 0.22046(12) 0.2420(4)
H5 H 0.8583 0.1933 0.2382
H6 H 0.9129 0.2385 0.2230
O18 O 0.5444(7) 0.29836(12) 0.4365(4)
H7 H 0.5005 0.2899 0.4850
O19 O 0.6423(8) 0.30837(13) 0.2011(4)
H8 H 0.6162 0.3054 0.1293
H9 H 0.6895 0.3326 0.2371
N1 N 0.8986(9) -0.13275(16) 1.0972(5)
C1 C 0.6561(9) 0.08846(17) 0.9289(5)
C2 C 0.8698(9) 0.11240(16) 1.1479(5)
C3 C 0.4244(9) 0.06810(17) 0.7119(5)
C4 C 0.7818(8) 0.07723(16) 1.0510(5)
C5 C 0.7442(9) 0.00036(16) 0.9969(5)
C6 C 0.0488(9) 0.27137(17) 0.0816(5)
C7 C 0.4453(9) 0.14797(17) 0.3438(5)
C8 C 0.5649(9) 0.05598(16) 0.8420(5)
C9 C 0.1276(9) 0.23494(16) 0.0292(5)
C10 C 0.8265(9) 0.03344(16) 1.0843(5)
H10 H 0.9128 0.0261 1.1661
C11 C 0.7096(10) -0.07976(17) 0.9450(5)
H11 H 0.6144 -0.0729 0.8633
C12 C 0.7970(9) -0.04626(16) 1.0338(5)
C13 C 0.6104(9) 0.01266(16) 0.8754(5)
H12 H 0.5504 -0.0087 0.8156
C14 C 0.3384(9) 0.17809(17) 0.3980(5)
C15 C 0.9289(10) -0.05897(17) 1.1535(5)
H13 H 0.9831 -0.0380 1.2143
C16 C 0.9823(11) -0.10237(19) 1.1848(6)
H14 H 1.0754 -0.1104 1.2658
C17 C 0.7659(11) -0.12221(18) 0.9801(6)
H15 H 0.7109 -0.1440 0.9216
C18 C 0.3886(9) -0.01154(17) 0.4509(5)
H16 H 0.627(10) 0.117(2) 0.910(6)
H17 H 0.662(6) 0.3142(16) 0.479(2)
H18 H 0.929(11) -0.162(2) 1.111(6)
O13B O 0.7831(7) -0.01220(12) 0.6156(3)
C18B C 0.6114(9) 0.01154(17) 0.5491(5)
O14B O 0.6053(7) 0.05202(12) 0.5555(4)
Eu1B Eu 0.41907(4) -0.246178(8) 0.69385(2)
Eu2B Eu 0.79363(4) -0.083924(8) 0.54410(2)
O1B O 0.7143(7) -0.04012(12) 0.3647(3)
O2B O 0.5578(7) -0.10538(11) 0.3235(3)
O3B O 0.1446(8) -0.15094(12) -0.1167(4)
O4B O 0.0500(8) -0.09976(13) -0.2539(4)
O5B O 0.7302(8) -0.16147(12) 0.5366(4)
O6B O 0.5642(8) -0.10776(12) 0.6410(4)
O7B O 0.4610(7) -0.16615(12) 0.7079(4)
O8B O 0.6687(7) -0.21813(12) 0.6252(4)
O9B O 0.6625(6) -0.22337(11) 0.9087(3)
O10B O 0.8104(7) -0.28359(13) 0.8130(4)
O11B O 1.0210(6) -0.21949(12) 1.0716(3)
O12B O 1.1550(7) -0.28636(13) 0.9863(4)
O15B O 1.1679(7) -0.04611(13) 0.6083(4)
H1B H 1.2960 -0.0588 0.6559
H2B H 1.1682 -0.0205 0.5829
O16B O 1.0396(8) -0.12160(14) 0.4780(5)
H3B H 1.0487 -0.1492 0.4805
H4B H 1.1146 -0.1068 0.4528
O17B O 0.1603(7) -0.22046(12) 0.7580(4)
H5B H 0.1417 -0.1933 0.7618
H6B H 0.0871 -0.2385 0.7770
O18B O 0.4556(7) -0.29836(12) 0.5635(4)
H7B H 0.4995 -0.2899 0.5150
O19B O 0.3577(8) -0.30837(13) 0.7989(4)
H8B H 0.3838 -0.3054 0.8707
H9B H 0.3105 -0.3326 0.7629
N1B N 0.1014(9) 0.13275(16) -0.0972(5)
C1B C 0.3439(9) -0.08846(17) 0.0711(5)
C2B C 0.1302(9) -0.11240(16) -0.1479(5)
C3B C 0.5756(9) -0.06810(17) 0.2881(5)
C4B C 0.2182(8) -0.07723(16) -0.0510(5)
C5B C 0.2558(9) -0.00036(16) 0.0031(5)
C6B C 0.9512(9) -0.27137(17) 0.9184(5)
C7B C 0.5547(9) -0.14797(17) 0.6562(5)
C8B C 0.4351(9) -0.05598(16) 0.1580(5)
C9B C 0.8724(9) -0.23494(16) 0.9708(5)
C10B C 0.1735(9) -0.03344(16) -0.0843(5)
H10B H 0.0872 -0.0261 -0.1661
C11B C 0.2904(10) 0.07976(17) 0.0550(5)
H11B H 0.3856 0.0729 0.1367
C12B C 0.2030(9) 0.04626(16) -0.0338(5)
C13B C 0.3896(9) -0.01266(16) 0.1246(5)
H12B H 0.4496 0.0087 0.1844
C14B C 0.6616(9) -0.17809(17) 0.6020(5)
C15B C 0.0711(10) 0.05897(17) -0.1535(5)
H13B H 0.0169 0.0380 -0.2143
C16B C 0.0177(11) 0.10237(19) -0.1848(6)
H14B H -0.0754 0.1104 -0.2658
C17B C 0.2341(11) 0.12221(18) 0.0199(6)
H15B H 0.2891 0.1440 0.0784
H16B H 0.373(10) -0.117(2) 0.090(6)
H17B H 0.338(6) -0.3142(16) 0.521(2)
H18B H 0.071(11) 0.162(2) -0.111(6)
Eu1A Eu 1.41907(4) -0.253822(8) 1.19385(2)
Eu1C Eu -0.41907(4) 0.253822(8) -0.19385(2)
Eu2_2 Eu 1.20637(4) 0.083924(8) 1.45590(2)
Eu2B_2 Eu -0.20637(4) -0.083924(8) -0.45590(2)
O4_2 O -0.0500(8) 0.09976(13) 0.2539(4)
O4B_2 O 1.0500(8) -0.09976(13) 0.7461(4)
O11A O 0.0210(6) -0.28051(12) 0.5716(3)
O11C O 0.9790(6) 0.28051(12) 0.4284(3)
O12A O 0.1550(7) -0.21364(13) 0.4863(4)
O12C O 0.8450(7) 0.21364(13) 0.5137(4)
loop_
_geom_bond_atom_site_label_1
_geom_bond_atom_site_label_2
_geom_bond_site_symmetry_1
_geom_bond_site_symmetry_2
Eu1 O7 1_555 1_555
Eu2 O1 1_555 1_555
O1 C3 1_555 1_555
O2 Eu2 1_555 1_555
O3 C2 1_555 1_555
O4 C2 1_555 1_555
O5 Eu2 1_555 1_555
O6 Eu2 1_555 1_555
O7 C7 1_555 1_555
O8 Eu1 1_555 1_555
O9 Eu1 1_555 1_555
O10 Eu1 1_555 1_555
O11 C9 1_555 1_555
O12 C6 1_555 1_555
O13 Eu2 1_555 1_555
O14 C18 1_555 1_555
O15 Eu2 1_555 1_555
H1 O15 1_555 1_555
H2 O15 1_555 1_555
O16 Eu2 1_555 1_555
H3 O16 1_555 1_555
H4 O16 1_555 1_555
O17 Eu1 1_555 1_555
H5 O17 1_555 1_555
H6 O17 1_555 1_555
O18 Eu1 1_555 1_555
H7 O18 1_555 1_555
O19 Eu1 1_555 1_555
H8 O19 1_555 1_555
H9 O19 1_555 1_555
N1 C16 1_555 1_555
C1 C4 1_555 1_555
C2 C4 1_555 1_555
C3 O2 1_555 1_555
C4 C10 1_555 1_555
C5 C10 1_555 1_555
C6 O10 1_555 1_555
C7 O6 1_555 1_555
C8 C1 1_555 1_555
C9 O9 1_555 1_555
C10 H10 1_555 1_555
C11 H11 1_555 1_555
C12 C5 1_555 1_555
C13 C5 1_555 1_555
H12 C13 1_555 1_555
C14 O5 1_555 1_555
C15 C12 1_555 1_555
H13 C15 1_555 1_555
C16 C15 1_555 1_555
H14 C16 1_555 1_555
C17 N1 1_555 1_555
H15 C17 1_555 1_555
C18 O13 1_555 1_555
H16 C1 1_555 1_555
H17 O18 1_555 1_555
H18 N1 1_555 1_555
O13B C18B 1_555 1_555
C18B C18 1_555 1_555
O14B Eu2 1_555 1_555
Eu1B O7B 1_555 1_555
Eu2B O14 1_555 1_555
O1B Eu2B 1_555 1_555
O2B Eu2B 1_555 1_555
O3B C2B 1_555 1_555
O4B C2B 1_555 1_555
O5B Eu2B 1_555 1_555
O6B Eu2B 1_555 1_555
O7B C7B 1_555 1_555
O8B Eu1B 1_555 1_555
O9B Eu1B 1_555 1_555
O10B Eu1B 1_555 1_555
O11B C9B 1_555 1_555
O12B C6B 1_555 1_555
O15B Eu2B 1_555 1_555
H1B O15B 1_555 1_555
H2B O15B 1_555 1_555
O16B Eu2B 1_555 1_555
H3B O16B 1_555 1_555
H4B O16B 1_555 1_555
O17B Eu1B 1_555 1_555
H5B O17B 1_555 1_555
H6B O17B 1_555 1_555
O18B Eu1B 1_555 1_555
H7B O18B 1_555 1_555
O19B Eu1B 1_555 1_555
H8B O19B 1_555 1_555
H9B O19B 1_555 1_555
N1B C16B 1_555 1_555
C1B C4B 1_555 1_555
C2B C4B 1_555 1_555
C3B O1B 1_555 1_555
C4B C10B 1_555 1_555
C5B C10B 1_555 1_555
C6B O10B 1_555 1_555
C7B O6B 1_555 1_555
C8B C1B 1_555 1_555
C9B O9B 1_555 1_555
C10B H10B 1_555 1_555
C11B H11B 1_555 1_555
C12B C5B 1_555 1_555
C13B C5B 1_555 1_555
H12B C13B 1_555 1_555
C14B O5B 1_555 1_555
C15B C12B 1_555 1_555
H13B C15B 1_555 1_555
C16B C15B 1_555 1_555
H14B C16B 1_555 1_555
C17B N1B 1_555 1_555
H15B C17B 1_555 1_555
H16B C1B 1_555 1_555
H17B O18B 1_555 1_555
H18B N1B 1_555 1_555
Eu1A O11B 1_555 1_555
Eu1C O11 1_555 1_555
Eu2_2 O4 1_555 1_555
Eu2B_2 O4B 1_555 1_555
O4_2 Eu2 1_555 1_555
O4B_2 Eu2B 1_555 1_555
O11A Eu1B 1_555 1_555
O11C Eu1 1_555 1_555
O12A Eu1B 1_555 1_555
O12C Eu1 1_555 1_555
O8 C14 1_555 1_555
O12 Eu1C 1_555 1_555
C3 C8 1_555 1_555
C6 C9 1_555 1_555
C7 C14 1_555 1_555
C8 C13 1_555 1_555
C11 C12 1_555 1_555
C11 C17 1_555 1_555
O13B Eu2B 1_555 1_555
C18B O14B 1_555 1_555
O2B C3B 1_555 1_555
O8B C14B 1_555 1_555
O12B Eu1A 1_555 1_555
C3B C8B 1_555 1_555
C6B C9B 1_555 1_555
C7B C14B 1_555 1_555
C8B C13B 1_555 1_555
C11B C12B 1_555 1_555
C11B C17B 1_555 1_555

#END
