
#######################################################################
#
#                 Cambridge Crystallographic Data Centre
#                                CCDC 
#
#######################################################################
#
# If this CIF has been generated from an entry in the Cambridge 
# Structural Database, then it will include bibliographic, chemical, 
# crystal, experimental, refinement or atomic coordinate data resulting 
# from the CCDC's data processing and validation procedures.
#
#######################################################################

data_XIVWOQ
_symmetry_cell_setting           monoclinic
_symmetry_space_group_name_H-M   'P 21/c'
_symmetry_Int_Tables_number      14
_space_group_name_Hall           '-P 2ybc'
loop_
_symmetry_equiv_pos_site_id
_symmetry_equiv_pos_as_xyz
1 x,y,z
2 -x,1/2+y,1/2-z
3 -x,-y,-z
4 x,1/2-y,1/2+z
_cell_length_a                   6.6660(13)
_cell_length_b                   30.662(6)
_cell_length_c                   12.798(4)
_cell_angle_alpha                90
_cell_angle_beta                 120.79(2)
_cell_angle_gamma                90
_cell_volume                     2247.12
loop_
_atom_site_label
_atom_site_type_symbol
_atom_site_fract_x
_atom_site_fract_y
_atom_site_fract_z
O1 O 0.6903(13) 0.7836(2) 0.1910(7)
O2 O 0.8383(12) 0.7237(2) 0.0960(6)
O3 O 0.2832(12) 1.0128(2) 0.1152(7)
Tb1 Tb -0.29174(8) 0.916157(15) -0.04322(4)
Tb2 Tb 0.08047(8) 0.754090(14) -0.19071(4)
O4 O -0.2158(12) 0.9597(2) 0.1339(6)
O5 O -0.0562(12) 0.8940(2) 0.1767(6)
O6 O 0.4488(13) 0.9004(2) 0.7575(7)
O7 O 0.3554(13) 0.8484(2) 0.6203(7)
O8 O -0.0669(14) 0.8925(3) -0.1404(7)
O9 O -0.2330(14) 0.8390(3) -0.0364(7)
O10 O -0.1694(12) 0.7816(2) -0.1246(6)
O11 O 0.0410(13) 0.8334(2) -0.2053(7)
O12 O 0.3433(13) 0.7867(2) 0.0166(7)
O13 O 0.4783(12) 0.7199(2) -0.0691(6)
O14 O 0.1051(12) 0.9481(2) 0.0570(6)
O15 O -0.6653(16) 0.9544(3) -0.1085(8)
O16 O -0.5378(15) 0.8790(3) 0.0212(8)
O17 O 0.0476(14) 0.7020(2) -0.0614(7)
H1 H 0.1227 0.7060 0.0151
O18 O 0.1371(15) 0.6928(3) -0.2952(8)
H2 H 0.2644 0.6785 -0.2601
H3 H 0.0297 0.6857 -0.3664
O19 O 0.3360(13) 0.7792(3) -0.2538(7)
N1 N 0.3988(18) 1.1330(3) 0.5957(9)
C1 C 0.267(2) 1.1227(4) 0.4786(11)
H4 H 0.2113 1.1445 0.4198
C2 C 0.2116(19) 1.0794(3) 0.4443(10)
H5 H 0.1185 1.0723 0.3624
C3 C 0.2949(18) 1.0464(3) 0.5320(9)
C4 C 0.4301(19) 1.0597(3) 0.6544(10)
H6 H 0.4877 1.0389 0.7159
C5 C 0.4781(19) 1.1030(4) 0.6844(10)
H7 H 0.5650 1.1114 0.7655
C6 C 0.2464(17) 0.9996(3) 0.4976(9)
C7 C 0.3263(17) 0.9663(3) 0.5851(9)
H8 H 0.4112 0.9737 0.6671
C8 C 0.2825(17) 0.9227(3) 0.5529(9)
C9 C 0.1558(16) 0.9117(3) 0.4295(9)
H9 H 0.1311 0.8825 0.4063
C10 C 0.0683(16) 0.9437(3) 0.3430(8)
C11 C 0.1108(18) 0.9874(3) 0.3753(9)
H10 H 0.0486 1.0088 0.3153
C12 C 0.3684(17) 0.8879(3) 0.6493(9)
C13 C -0.0753(17) 0.9317(3) 0.2125(9)
C14 C -0.0562(18) 0.8519(3) -0.1547(10)
C15 C -0.1616(18) 0.8218(3) -0.1007(9)
C16 C 0.5451(18) 0.7713(3) 0.0861(9)
C17 C 0.6276(17) 0.7351(3) 0.0333(9)
C18 C 0.1120(17) 0.9885(3) 0.0495(9)
H11 H -0.774(12) 0.940(3) -0.107(8)
H12 H -0.607(15) 0.971(3) -0.046(5)
H13 H -0.557(14) 0.8510(6) 0.009(9)
H14 H -0.676(7) 0.887(2) 0.003(9)
H15 H 0.446(12) 0.765(2) -0.253(9)
H16 H 0.331(16) 0.8035(15) -0.287(8)
H17 H -0.095(3) 0.702(7) -0.082(3)
H18 H 0.436(18) 1.161(4) 0.614(10)
O3B O -0.2832(12) 0.9872(2) -0.1152(7)
O14B O -0.1051(12) 1.0519(2) -0.0570(6)
C18B C -0.1120(17) 1.0115(3) -0.0495(9)
O1B O -0.6903(13) 1.2164(2) -0.1910(7)
O2B O -0.8383(12) 1.2763(2) -0.0960(6)
Tb1B Tb 0.29174(8) 1.083843(15) 0.04322(4)
Tb2B Tb -0.08047(8) 1.245910(14) 0.19071(4)
O4B O 0.2158(12) 1.0403(2) -0.1339(6)
O5B O 0.0562(12) 1.1060(2) -0.1767(6)
O6B O -0.4488(13) 1.0996(2) -0.7575(7)
O7B O -0.3554(13) 1.1516(2) -0.6203(7)
O8B O 0.0669(14) 1.1075(3) 0.1404(7)
O9B O 0.2330(14) 1.1610(3) 0.0364(7)
O10B O 0.1694(12) 1.2184(2) 0.1246(6)
O11B O -0.0410(13) 1.1666(2) 0.2053(7)
O12B O -0.3433(13) 1.2133(2) -0.0166(7)
O13B O -0.4783(12) 1.2801(2) 0.0691(6)
O15B O 0.6653(16) 1.0456(3) 0.1085(8)
O16B O 0.5378(15) 1.1210(3) -0.0212(8)
O17B O -0.0476(14) 1.2980(2) 0.0614(7)
H1B H -0.1227 1.2940 -0.0151
O18B O -0.1371(15) 1.3072(3) 0.2952(8)
H2B H -0.2644 1.3215 0.2601
H3B H -0.0297 1.3143 0.3664
O19B O -0.3360(13) 1.2208(3) 0.2538(7)
N1B N -0.3988(18) 0.8670(3) -0.5957(9)
C1B C -0.267(2) 0.8773(4) -0.4786(11)
H4B H -0.2113 0.8555 -0.4198
C2B C -0.2116(19) 0.9206(3) -0.4443(10)
H5B H -0.1185 0.9277 -0.3624
C3B C -0.2949(18) 0.9536(3) -0.5320(9)
C4B C -0.4301(19) 0.9403(3) -0.6544(10)
H6B H -0.4877 0.9611 -0.7159
C5B C -0.4781(19) 0.8970(4) -0.6844(10)
H7B H -0.5650 0.8886 -0.7655
C6B C -0.2464(17) 1.0004(3) -0.4976(9)
C7B C -0.3263(17) 1.0337(3) -0.5851(9)
H8B H -0.4112 1.0263 -0.6671
C8B C -0.2825(17) 1.0773(3) -0.5529(9)
C9B C -0.1558(16) 1.0883(3) -0.4295(9)
H9B H -0.1311 1.1175 -0.4063
C10B C -0.0683(16) 1.0563(3) -0.3430(8)
C11B C -0.1108(18) 1.0126(3) -0.3753(9)
H10B H -0.0486 0.9912 -0.3153
C12B C -0.3684(17) 1.1121(3) -0.6493(9)
C13B C 0.0753(17) 1.0683(3) -0.2125(9)
C14B C 0.0562(18) 1.1481(3) 0.1547(10)
C15B C 0.1616(18) 1.1782(3) 0.1007(9)
C16B C -0.5451(18) 1.2287(3) -0.0861(9)
C17B C -0.6276(17) 1.2649(3) -0.0333(9)
H11B H 0.774(12) 1.060(3) 0.107(8)
H12B H 0.607(15) 1.029(3) 0.046(5)
H13B H 0.557(14) 1.1490(6) -0.009(9)
H14B H 0.676(7) 1.113(2) -0.003(9)
H15B H -0.446(12) 1.235(2) 0.253(9)
H16B H -0.331(16) 1.1965(15) 0.287(8)
H17B H 0.095(3) 1.298(7) 0.082(3)
H18B H -0.436(18) 0.839(4) -0.614(10)
O1A O 0.3097(13) 1.2836(2) 0.3090(7)
O1C O -0.3097(13) 0.7164(2) -0.3090(7)
O2A O 0.1617(12) 1.2237(2) 0.4040(6)
O2C O -0.1617(12) 0.7763(2) -0.4040(6)
Tb1_2 Tb 0.70826(8) 0.916157(15) 0.95678(4)
Tb1B_2 Tb -0.70826(8) 1.083843(15) -0.95678(4)
Tb2A Tb -1.08047(8) 1.254090(14) -0.30929(4)
Tb2C Tb 1.08047(8) 0.745910(14) 0.30929(4)
O6_2 O -0.5512(13) 0.9004(2) -0.2425(7)
O6B_2 O 0.5512(13) 1.0996(2) 0.2425(7)
loop_
_geom_bond_atom_site_label_1
_geom_bond_atom_site_label_2
_geom_bond_site_symmetry_1
_geom_bond_site_symmetry_2
O1 C16 1_555 1_555
O2 C17 1_555 1_555
O3 C18 1_555 1_555
Tb1 O4 1_555 1_555
Tb2 O10 1_555 1_555
O4 C13 1_555 1_555
O5 Tb1 1_555 1_555
O6 C12 1_555 1_555
O7 C12 1_555 1_555
O8 Tb1 1_555 1_555
O9 Tb1 1_555 1_555
O10 C15 1_555 1_555
O11 Tb2 1_555 1_555
O12 Tb2 1_555 1_555
O13 Tb2 1_555 1_555
O14 Tb1 1_555 1_555
O15 Tb1 1_555 1_555
O16 Tb1 1_555 1_555
O17 Tb2 1_555 1_555
H1 O17 1_555 1_555
O18 Tb2 1_555 1_555
H2 O18 1_555 1_555
H3 O18 1_555 1_555
O19 Tb2 1_555 1_555
N1 C1 1_555 1_555
C1 H4 1_555 1_555
C2 C1 1_555 1_555
H5 C2 1_555 1_555
C3 C2 1_555 1_555
C4 C3 1_555 1_555
H6 C4 1_555 1_555
C5 N1 1_555 1_555
H7 C5 1_555 1_555
C6 C3 1_555 1_555
C7 C6 1_555 1_555
H8 C7 1_555 1_555
C8 C7 1_555 1_555
C9 C8 1_555 1_555
H9 C9 1_555 1_555
C10 C9 1_555 1_555
C11 C6 1_555 1_555
H10 C11 1_555 1_555
C12 C8 1_555 1_555
C13 O5 1_555 1_555
C14 O8 1_555 1_555
C15 O9 1_555 1_555
C16 O12 1_555 1_555
C17 O13 1_555 1_555
C18 O14 1_555 1_555
H11 O15 1_555 1_555
H12 O15 1_555 1_555
H13 O16 1_555 1_555
H14 O16 1_555 1_555
H15 O19 1_555 1_555
H16 O19 1_555 1_555
H17 O17 1_555 1_555
H18 N1 1_555 1_555
O3B Tb1 1_555 1_555
O14B C18B 1_555 1_555
C18B C18 1_555 1_555
O1B C16B 1_555 1_555
O2B C17B 1_555 1_555
Tb1B O3 1_555 1_555
Tb2B O10B 1_555 1_555
O4B Tb1B 1_555 1_555
O5B Tb1B 1_555 1_555
O6B C12B 1_555 1_555
O7B C12B 1_555 1_555
O8B Tb1B 1_555 1_555
O9B Tb1B 1_555 1_555
O10B C15B 1_555 1_555
O11B Tb2B 1_555 1_555
O12B Tb2B 1_555 1_555
O13B Tb2B 1_555 1_555
O15B Tb1B 1_555 1_555
O16B Tb1B 1_555 1_555
O17B Tb2B 1_555 1_555
H1B O17B 1_555 1_555
O18B Tb2B 1_555 1_555
H2B O18B 1_555 1_555
H3B O18B 1_555 1_555
O19B Tb2B 1_555 1_555
N1B C1B 1_555 1_555
C1B H4B 1_555 1_555
C2B C1B 1_555 1_555
H5B C2B 1_555 1_555
C3B C2B 1_555 1_555
C4B C3B 1_555 1_555
H6B C4B 1_555 1_555
C5B N1B 1_555 1_555
H7B C5B 1_555 1_555
C6B C3B 1_555 1_555
C7B C6B 1_555 1_555
H8B C7B 1_555 1_555
C8B C7B 1_555 1_555
C9B C8B 1_555 1_555
H9B C9B 1_555 1_555
C10B C9B 1_555 1_555
C11B C6B 1_555 1_555
H10B C11B 1_555 1_555
C12B C8B 1_555 1_555
C13B O4B 1_555 1_555
C14B O8B 1_555 1_555
C15B O9B 1_555 1_555
C16B O12B 1_555 1_555
C17B O13B 1_555 1_555
H11B O15B 1_555 1_555
H12B O15B 1_555 1_555
H13B O16B 1_555 1_555
H14B O16B 1_555 1_555
H15B O19B 1_555 1_555
H16B O19B 1_555 1_555
H17B O17B 1_555 1_555
H18B N1B 1_555 1_555
O1A Tb2B 1_555 1_555
O1C Tb2 1_555 1_555
O2A Tb2B 1_555 1_555
O2C Tb2 1_555 1_555
Tb1_2 O6 1_555 1_555
Tb1B_2 O6B 1_555 1_555
Tb2A O1B 1_555 1_555
Tb2C O1 1_555 1_555
O6_2 Tb1 1_555 1_555
O6B_2 Tb1B 1_555 1_555
O2 Tb2C 1_555 1_555
O11 C14 1_555 1_555
C4 C5 1_555 1_555
C10 C11 1_555 1_555
C10 C13 1_555 1_555
C14 C15 1_555 1_555
C16 C17 1_555 1_555
O3B C18B 1_555 1_555
O14B Tb1B 1_555 1_555
O2B Tb2A 1_555 1_555
O5B C13B 1_555 1_555
O11B C14B 1_555 1_555
C4B C5B 1_555 1_555
C10B C11B 1_555 1_555
C10B C13B 1_555 1_555
C14B C15B 1_555 1_555
C16B C17B 1_555 1_555

#END
