
#######################################################################
#
#                 Cambridge Crystallographic Data Centre
#                                CCDC 
#
#######################################################################
#
# If this CIF has been generated from an entry in the Cambridge 
# Structural Database, then it will include bibliographic, chemical, 
# crystal, experimental, refinement or atomic coordinate data resulting 
# from the CCDC's data processing and validation procedures.
#
#######################################################################

data_XIVWAC
_symmetry_cell_setting           monoclinic
_symmetry_space_group_name_H-M   'P 21/c'
_symmetry_Int_Tables_number      14
_space_group_name_Hall           '-P 2ybc'
loop_
_symmetry_equiv_pos_site_id
_symmetry_equiv_pos_as_xyz
1 x,y,z
2 -x,1/2+y,1/2-z
3 -x,-y,-z
4 x,1/2-y,1/2+z
_cell_length_a                   6.7129(13)
_cell_length_b                   30.855(6)
_cell_length_c                   12.888(4)
_cell_angle_alpha                90
_cell_angle_beta                 120.73(2)
_cell_angle_gamma                90
_cell_volume                     2294.62
loop_
_atom_site_label
_atom_site_type_symbol
_atom_site_fract_x
_atom_site_fract_y
_atom_site_fract_z
Sm1 Sm 0.70539(11) 0.084001(19) 0.45551(5)
Sm2 Sm 0.03026(12) 0.246346(19) 0.30478(6)
O1 O 0.5522(19) 0.0999(3) 0.2523(8)
O2 O 0.3760(19) 0.1510(3) 0.1162(8)
O3 O -0.0853(16) 0.1055(3) -0.3227(8)
O4 O -0.0159(18) 0.0400(3) -0.3645(8)
O5 O 0.2830(19) 0.1081(3) 0.3586(10)
O6 O 0.6573(17) 0.1619(3) 0.4621(9)
O7 O 0.0456(16) 0.1662(3) 0.2907(9)
O8 O 0.4166(16) 0.2180(3) 0.3738(9)
O9 O 0.5546(19) 0.0120(3) 0.3854(8)
O10 O 0.1821(19) 0.2838(3) 0.1859(9)
O11 O -0.1256(17) 0.2192(3) -0.0735(8)
O12 O 0.952(2) 0.0464(4) 0.3917(11)
H1 H 0.9102 0.0231 0.3507
O13 O 0.4973(18) -0.0523(3) 0.4453(9)
O14 O 1.0883(19) 0.1220(3) 0.5236(11)
H2 H 1.0918 0.1493 0.5152
H3 H 1.2131 0.1074 0.5548
O15 O 0.179(2) 0.2864(3) 0.0119(9)
O16 O 0.3305(18) 0.2986(3) 0.4385(9)
H4 H 0.2915 0.3113 0.3724
H5 H 0.4362 0.2808 0.4489
O17 O -0.247(2) 0.3080(4) 0.1994(9)
H6 H -0.3063 0.3215 0.2347
H7 H -0.2811 0.3154 0.1286
O18 O -0.1594(16) 0.2229(3) 0.0904(8)
O19 O -0.3625(19) 0.2203(3) 0.2396(9)
H8 H -0.4418 0.1975 0.2079
N1 N 0.295(2) -0.1328(4) 0.0964(11)
H9 H 0.3000 -0.1596 0.1158
C1 C 0.388(3) -0.1021(5) 0.1846(14)
H10 H 0.4552 -0.1102 0.2652
C2 C 0.381(3) -0.0589(5) 0.1540(13)
H11 H 0.4506 -0.0381 0.2144
C3 C 0.272(2) -0.0466(4) 0.0345(11)
C4 C 0.180(2) -0.0794(4) -0.0545(12)
H12 H 0.1087 -0.0722 -0.1359
C5 C 0.196(3) -0.1219(4) -0.0199(13)
H13 H 0.1371 -0.1435 -0.0784
C6 C 0.251(2) 0.0002(4) -0.0022(11)
C7 C 0.340(2) 0.0338(4) 0.0838(11)
H14 H 0.4149 0.0267 0.1653
C8 C 0.321(2) 0.0774(4) 0.0511(11)
C9 C 0.192(3) 0.0881(4) -0.0715(11)
H15 H 0.1578 0.1170 -0.0950
C10 C 0.117(2) 0.0558(4) -0.1577(11)
C11 C 0.138(2) 0.0128(4) -0.1250(11)
H16 H 0.0763 -0.0084 -0.1847
C12 C 0.424(2) 0.1118(4) 0.1459(11)
C13 C -0.004(3) 0.0681(4) -0.2877(12)
C14 C 0.457(2) 0.1785(4) 0.3968(12)
C15 C 0.243(2) 0.1482(4) 0.3423(12)
C16 C 0.513(2) -0.0122(4) 0.4521(12)
C17 C 0.109(2) 0.2710(4) 0.0798(11)
C18 C -0.068(2) 0.2347(4) 0.0287(11)
H17 H 1.06(3) 0.056(4) 0.383(19)
H18 H -0.246(19) 0.2119(14) 0.306(9)
O9B O 0.4454(19) -0.0120(3) 0.6146(8)
C16B C 0.487(2) 0.0122(4) 0.5479(12)
O13B O 0.5027(18) 0.0523(3) 0.5547(9)
Sm1B Sm 0.29461(11) -0.084001(19) 0.54449(5)
Sm2B Sm 0.96974(12) -0.246346(19) 0.69522(6)
O1B O 0.4478(19) -0.0999(3) 0.7477(8)
O2B O 0.6240(19) -0.1510(3) 0.8838(8)
O3B O 1.0853(16) -0.1055(3) 1.3227(8)
O4B O 1.0159(18) -0.0400(3) 1.3645(8)
O5B O 0.7170(19) -0.1081(3) 0.6414(10)
O6B O 0.3427(17) -0.1619(3) 0.5379(9)
O7B O 0.9544(16) -0.1662(3) 0.7093(9)
O8B O 0.5834(16) -0.2180(3) 0.6262(9)
O10B O 0.8179(19) -0.2838(3) 0.8141(9)
O11B O 1.1256(17) -0.2192(3) 1.0735(8)
O12B O 0.048(2) -0.0464(4) 0.6083(11)
H1B H 0.0898 -0.0231 0.6493
O14B O -0.0883(19) -0.1220(3) 0.4764(11)
H2B H -0.0918 -0.1493 0.4848
H3B H -0.2131 -0.1074 0.4452
O15B O 0.821(2) -0.2864(3) 0.9881(9)
O16B O 0.6695(18) -0.2986(3) 0.5615(9)
H4B H 0.7085 -0.3113 0.6276
H5B H 0.5638 -0.2808 0.5511
O17B O 1.247(2) -0.3080(4) 0.8006(9)
H6B H 1.3063 -0.3215 0.7653
H7B H 1.2811 -0.3154 0.8714
O18B O 1.1594(16) -0.2229(3) 0.9096(8)
O19B O 1.3625(19) -0.2203(3) 0.7604(9)
H8B H 1.4418 -0.1975 0.7921
N1B N 0.705(2) 0.1328(4) 0.9036(11)
H9B H 0.7000 0.1596 0.8842
C1B C 0.612(3) 0.1021(5) 0.8154(14)
H10B H 0.5448 0.1102 0.7348
C2B C 0.619(3) 0.0589(5) 0.8460(13)
H11B H 0.5494 0.0381 0.7856
C3B C 0.728(2) 0.0466(4) 0.9655(11)
C4B C 0.820(2) 0.0794(4) 1.0545(12)
H12B H 0.8913 0.0722 1.1359
C5B C 0.804(3) 0.1219(4) 1.0199(13)
H13B H 0.8629 0.1435 1.0784
C6B C 0.749(2) -0.0002(4) 1.0022(11)
C7B C 0.660(2) -0.0338(4) 0.9162(11)
H14B H 0.5851 -0.0267 0.8347
C8B C 0.679(2) -0.0774(4) 0.9489(11)
C9B C 0.808(3) -0.0881(4) 1.0715(11)
H15B H 0.8422 -0.1170 1.0950
C10B C 0.883(2) -0.0558(4) 1.1577(11)
C11B C 0.862(2) -0.0128(4) 1.1250(11)
H16B H 0.9237 0.0084 1.1847
C12B C 0.576(2) -0.1118(4) 0.8541(11)
C13B C 1.004(3) -0.0681(4) 1.2877(12)
C14B C 0.543(2) -0.1785(4) 0.6032(12)
C15B C 0.757(2) -0.1482(4) 0.6577(12)
C17B C 0.891(2) -0.2710(4) 0.9202(11)
C18B C 1.068(2) -0.2347(4) 0.9713(11)
H17B H -0.06(3) -0.056(4) 0.617(19)
H18B H 1.246(19) -0.2119(14) 0.694(9)
Sm1_2 Sm -0.29461(11) 0.084001(19) -0.54449(5)
Sm1B_2 Sm 1.29461(11) -0.084001(19) 1.54449(5)
Sm2A Sm 0.96974(12) -0.253654(19) 1.19522(6)
Sm2C Sm 0.03026(12) 0.253654(19) -0.19522(6)
O3_2 O 0.9147(16) 0.1055(3) 0.6773(8)
O3B_2 O 0.0853(16) -0.1055(3) 0.3227(8)
O4_2 O 0.9841(18) 0.0400(3) 0.6355(8)
O4B_2 O 0.0159(18) -0.0400(3) 0.3645(8)
O11A O 1.1256(17) -0.2808(3) 0.5735(8)
O11C O -0.1256(17) 0.2808(3) 0.4265(8)
O15A O 0.821(2) -0.2136(3) 0.4881(9)
O15C O 0.179(2) 0.2136(3) 0.5119(9)
loop_
_geom_bond_atom_site_label_1
_geom_bond_atom_site_label_2
_geom_bond_site_symmetry_1
_geom_bond_site_symmetry_2
Sm1 O1 1_555 1_555
Sm2 O7 1_555 1_555
O1 C12 1_555 1_555
O2 C12 1_555 1_555
O3 C13 1_555 1_555
O4 C13 1_555 1_555
O5 Sm1 1_555 1_555
O6 Sm1 1_555 1_555
O7 C15 1_555 1_555
O8 Sm2 1_555 1_555
O9 Sm1 1_555 1_555
O10 Sm2 1_555 1_555
O11 C18 1_555 1_555
O12 Sm1 1_555 1_555
H1 O12 1_555 1_555
O13 C16 1_555 1_555
O14 Sm1 1_555 1_555
H2 O14 1_555 1_555
H3 O14 1_555 1_555
O15 C17 1_555 1_555
O16 Sm2 1_555 1_555
H4 O16 1_555 1_555
H5 O16 1_555 1_555
O17 Sm2 1_555 1_555
H6 O17 1_555 1_555
H7 O17 1_555 1_555
O18 Sm2 1_555 1_555
O19 Sm2 1_555 1_555
H8 O19 1_555 1_555
N1 H9 1_555 1_555
C1 N1 1_555 1_555
H10 C1 1_555 1_555
C2 C1 1_555 1_555
H11 C2 1_555 1_555
C3 C2 1_555 1_555
C4 C3 1_555 1_555
H12 C4 1_555 1_555
C5 N1 1_555 1_555
H13 C5 1_555 1_555
C6 C3 1_555 1_555
C7 C6 1_555 1_555
H14 C7 1_555 1_555
C8 C7 1_555 1_555
C9 C8 1_555 1_555
H15 C9 1_555 1_555
C10 C9 1_555 1_555
C11 C6 1_555 1_555
H16 C11 1_555 1_555
C12 C8 1_555 1_555
C13 C10 1_555 1_555
C14 O6 1_555 1_555
C15 O5 1_555 1_555
C16 O9 1_555 1_555
C17 O10 1_555 1_555
C18 O18 1_555 1_555
H17 O12 1_555 1_555
H18 O19 1_555 1_555
O9B C16B 1_555 1_555
C16B C16 1_555 1_555
O13B Sm1 1_555 1_555
Sm1B O13 1_555 1_555
Sm2B O7B 1_555 1_555
O1B Sm1B 1_555 1_555
O2B C12B 1_555 1_555
O3B C13B 1_555 1_555
O4B C13B 1_555 1_555
O5B Sm1B 1_555 1_555
O6B Sm1B 1_555 1_555
O7B C15B 1_555 1_555
O8B Sm2B 1_555 1_555
O10B Sm2B 1_555 1_555
O11B C18B 1_555 1_555
O12B Sm1B 1_555 1_555
H1B O12B 1_555 1_555
O14B Sm1B 1_555 1_555
H2B O14B 1_555 1_555
H3B O14B 1_555 1_555
O15B C17B 1_555 1_555
O16B Sm2B 1_555 1_555
H4B O16B 1_555 1_555
H5B O16B 1_555 1_555
O17B Sm2B 1_555 1_555
H6B O17B 1_555 1_555
H7B O17B 1_555 1_555
O18B Sm2B 1_555 1_555
O19B Sm2B 1_555 1_555
H8B O19B 1_555 1_555
N1B H9B 1_555 1_555
C1B N1B 1_555 1_555
H10B C1B 1_555 1_555
C2B C1B 1_555 1_555
H11B C2B 1_555 1_555
C3B C2B 1_555 1_555
C4B C3B 1_555 1_555
H12B C4B 1_555 1_555
C5B N1B 1_555 1_555
H13B C5B 1_555 1_555
C6B C3B 1_555 1_555
C7B C6B 1_555 1_555
H14B C7B 1_555 1_555
C8B C7B 1_555 1_555
C9B C8B 1_555 1_555
H15B C9B 1_555 1_555
C10B C9B 1_555 1_555
C11B C6B 1_555 1_555
H16B C11B 1_555 1_555
C12B O1B 1_555 1_555
C13B C10B 1_555 1_555
C14B O6B 1_555 1_555
C15B O5B 1_555 1_555
C17B O10B 1_555 1_555
C18B O18B 1_555 1_555
H17B O12B 1_555 1_555
H18B O19B 1_555 1_555
Sm1_2 O3 1_555 1_555
Sm1B_2 O3B 1_555 1_555
Sm2A O11B 1_555 1_555
Sm2C O11 1_555 1_555
O3_2 Sm1 1_555 1_555
O3B_2 Sm1B 1_555 1_555
O4_2 Sm1 1_555 1_555
O4B_2 Sm1B 1_555 1_555
O11A Sm2B 1_555 1_555
O11C Sm2 1_555 1_555
O15A Sm2B 1_555 1_555
O15C Sm2 1_555 1_555
O4 Sm1_2 1_555 1_555
O8 C14 1_555 1_555
O15 Sm2C 1_555 1_555
C4 C5 1_555 1_555
C10 C11 1_555 1_555
C14 C15 1_555 1_555
C17 C18 1_555 1_555
O9B Sm1B 1_555 1_555
C16B O13B 1_555 1_555
O4B Sm1B_2 1_555 1_555
O8B C14B 1_555 1_555
O15B Sm2A 1_555 1_555
C4B C5B 1_555 1_555
C8B C12B 1_555 1_555
C10B C11B 1_555 1_555
C14B C15B 1_555 1_555
C17B C18B 1_555 1_555

#END
