
#######################################################################
#
#                 Cambridge Crystallographic Data Centre
#                                CCDC 
#
#######################################################################
#
# If this CIF has been generated from an entry in the Cambridge 
# Structural Database, then it will include bibliographic, chemical, 
# crystal, experimental, refinement or atomic coordinate data resulting 
# from the CCDC's data processing and validation procedures.
#
#######################################################################

data_XIWBEL
_symmetry_cell_setting           monoclinic
_symmetry_space_group_name_H-M   'P 21/n'
_symmetry_Int_Tables_number      14
_space_group_name_Hall           '-P 2yn'
loop_
_symmetry_equiv_pos_site_id
_symmetry_equiv_pos_as_xyz
1 x,y,z
2 1/2-x,1/2+y,1/2-z
3 -x,-y,-z
4 1/2+x,1/2-y,1/2+z
_cell_length_a                   9.6313(10)
_cell_length_b                   18.4082(19)
_cell_length_c                   14.4113(15)
_cell_angle_alpha                90
_cell_angle_beta                 109.500(2)
_cell_angle_gamma                90
_cell_volume                     2408.5
loop_
_atom_site_label
_atom_site_type_symbol
_atom_site_fract_x
_atom_site_fract_y
_atom_site_fract_z
Cu1 Cu 0.0000 -0.5000 0.5000
S1 S -0.04886(9) 0.18376(5) 0.24503(6)
O1 O 0.0240(3) 0.24977(14) 0.2329(2)
O2 O -0.0921(3) 0.14024(13) 0.15458(18)
O3 O 0.0302(3) 0.14101(14) 0.33074(18)
C1 C -0.3101(4) 0.15707(18) 0.2732(2)
H1 H -0.2862 0.1083 0.2713
C2 C -0.2156(3) 0.21001(17) 0.2623(2)
C3 C -0.2484(3) 0.28305(17) 0.2664(2)
H2 H -0.1841 0.3183 0.2585
O4 O -0.3224(3) 0.42815(12) 0.27956(18)
C4 C -0.5459(4) 0.12063(17) 0.2996(2)
C5 C -0.4113(4) 0.38240(17) 0.2921(2)
C6 C -0.4731(3) 0.24972(17) 0.2913(2)
H3 H -0.5608 0.2629 0.3005
C7 C -0.3779(3) 0.30359(17) 0.2822(2)
C8 C -0.4406(3) 0.17668(17) 0.2870(2)
O5 O -0.5239(3) 0.39815(12) 0.31261(19)
O6 O 0.1338(3) 0.03143(14) 0.2093(2)
O7 O 0.3274(3) 0.10252(16) 0.4795(2)
O8 O -0.2065(3) -0.47701(15) 0.4154(2)
O10 O -0.0609(4) -0.46745(17) 0.6390(2)
O13 O -0.6693(2) 0.14426(12) 0.30059(17)
O14 O -0.5105(3) 0.05545(12) 0.31040(19)
H4 H 0.098(4) -0.013(2) 0.205(3)
H5 H -0.052(5) -0.490(2) 0.680(3)
H6 H 0.333(5) 0.145(2) 0.481(3)
H7 H 0.078(5) 0.059(2) 0.185(3)
H8 H -0.114(5) -0.438(2) 0.645(3)
H9 H 0.309(5) 0.084(3) 0.516(3)
H10 H -0.244(5) -0.440(2) 0.401(3)
H12 H -0.234(5) -0.503(2) 0.376(3)
Cu2 Cu 0.23611(4) 0.06518(2) 0.34616(3)
N1 N 0.0605(3) -0.39615(14) 0.4894(2)
C9 C -0.0206(4) -0.34108(18) 0.5035(3)
H18 H -0.1029 -0.3519 0.5211
N2 N 0.2089(3) -0.03148(15) 0.3990(2)
C10 C 0.1319(4) -0.25065(17) 0.4667(2)
C11 C 0.2173(4) -0.30835(19) 0.4534(3)
H19 H 0.3008 -0.2991 0.4366
C12 C 0.0664(4) -0.11855(19) 0.4485(3)
H20 H -0.0173 -0.1285 0.4649
C13 C 0.1641(4) -0.17366(18) 0.4498(2)
C14 C 0.1784(4) -0.37884(19) 0.4649(3)
H21 H 0.2370 -0.4162 0.4552
C15 C 0.3068(4) -0.0838(2) 0.4035(3)
H22 H 0.3915 -0.0720 0.3894
C16 C 0.2880(4) -0.1541(2) 0.4281(3)
H23 H 0.3592 -0.1888 0.4302
C17 C 0.0917(4) -0.04910(19) 0.4233(3)
H24 H 0.0241 -0.0130 0.4231
C18 C 0.0109(4) -0.26969(18) 0.4934(3)
H25 H -0.0491 -0.2336 0.5046
S1_2 S 0.95114(9) 0.18376(5) 0.24503(6)
O1_2 O 1.0240(3) 0.24977(14) 0.2329(2)
O2_2 O 0.9079(3) 0.14024(13) 0.15458(18)
O3_2 O 1.0302(3) 0.14101(14) 0.33074(18)
O3B O -0.0302(3) -1.14101(14) 0.66926(18)
C1_2 C 0.6899(4) 0.15707(18) 0.2732(2)
H1_2 H 0.7138 0.1083 0.2713
C2_2 C 0.7844(3) 0.21001(17) 0.2623(2)
C3_2 C 0.7516(3) 0.28305(17) 0.2664(2)
H2_2 H 0.8159 0.3183 0.2585
O4_2 O 0.6776(3) 0.42815(12) 0.27956(18)
C4_2 C 0.4541(4) 0.12063(17) 0.2996(2)
C5_2 C 0.5887(4) 0.38240(17) 0.2921(2)
C6_2 C 0.5269(3) 0.24972(17) 0.2913(2)
H3_2 H 0.4392 0.2629 0.3005
C7_2 C 0.6221(3) 0.30359(17) 0.2822(2)
C8_2 C 0.5594(3) 0.17668(17) 0.2870(2)
O5_2 O 0.4761(3) 0.39815(12) 0.31261(19)
O6B O -0.1338(3) -1.03143(14) 0.7907(2)
O7B O -0.3274(3) -1.10252(16) 0.5205(2)
O8B O 0.2065(3) -0.52299(15) 0.5846(2)
O10B O 0.0609(4) -0.53255(17) 0.3610(2)
O13_2 O 0.3307(2) 0.14426(12) 0.30059(17)
O13B O -0.3307(2) -1.14426(12) 0.69941(17)
O14_2 O 0.4895(3) 0.05545(12) 0.31040(19)
H4B H -0.098(4) -0.987(2) 0.795(3)
H5B H 0.052(5) -0.510(2) 0.320(3)
H6B H -0.333(5) -1.145(2) 0.519(3)
H7B H -0.078(5) -1.059(2) 0.815(3)
H8B H 0.114(5) -0.562(2) 0.355(3)
H9B H -0.309(5) -1.084(3) 0.484(3)
H10B H 0.244(5) -0.560(2) 0.599(3)
H12B H 0.234(5) -0.497(2) 0.624(3)
Cu2B Cu -0.23611(4) -1.06518(2) 0.65384(3)
Cu2_2 Cu -0.76389(4) 0.06518(2) 0.34616(3)
Cu2_3 Cu 1.23611(4) 0.06518(2) 0.34616(3)
N1B N -0.0605(3) -0.60385(14) 0.5106(2)
C9B C 0.0206(4) -0.65892(18) 0.4965(3)
H18B H 0.1029 -0.6481 0.4789
N2B N -0.2089(3) -0.96852(15) 0.6010(2)
C10B C -0.1319(4) -0.74935(17) 0.5333(2)
C11B C -0.2173(4) -0.69165(19) 0.5466(3)
H19B H -0.3008 -0.7009 0.5634
C12B C -0.0664(4) -0.88145(19) 0.5515(3)
H20B H 0.0173 -0.8715 0.5351
C13B C -0.1641(4) -0.82634(18) 0.5502(2)
C14B C -0.1784(4) -0.62116(19) 0.5351(3)
H21B H -0.2370 -0.5838 0.5448
C15B C -0.3068(4) -0.9162(2) 0.5965(3)
H22B H -0.3915 -0.9280 0.6106
C16B C -0.2880(4) -0.8459(2) 0.5719(3)
H23B H -0.3592 -0.8112 0.5698
C17B C -0.0917(4) -0.95090(19) 0.5767(3)
H24B H -0.0241 -0.9870 0.5769
C18B C -0.0109(4) -0.73031(18) 0.5066(3)
H25B H 0.0491 -0.7664 0.4954
O9 O -0.7652(4) 0.34530(17) 0.3521(3)
H16 H -0.704(5) 0.354(2) 0.331(3)
H17 H -0.810(5) 0.319(2) 0.318(3)
O11 O 0.2720(4) 0.03668(18) 0.6251(2)
H11 H 0.341(5) 0.012(2) 0.644(3)
H14 H 0.263(5) 0.051(2) 0.676(3)
O12 O 0.3740(5) 0.24418(19) 0.5026(3)
H13 H 0.402(5) 0.264(2) 0.550(3)
H15 H 0.345(5) 0.271(2) 0.462(3)
loop_
_geom_bond_atom_site_label_1
_geom_bond_atom_site_label_2
_geom_bond_site_symmetry_1
_geom_bond_site_symmetry_2
Cu1 O8 1_555 1_555
S1 O1 1_555 1_555
O2 S1 1_555 1_555
O3 S1 1_555 1_555
C1 H1 1_555 1_555
C2 S1 1_555 1_555
C3 C2 1_555 1_555
H2 C3 1_555 1_555
O4 C5 1_555 1_555
C4 C8 1_555 1_555
C5 C7 1_555 1_555
C6 H3 1_555 1_555
C7 C3 1_555 1_555
C8 C1 1_555 1_555
O5 C5 1_555 1_555
O6 H4 1_555 1_555
O7 H6 1_555 1_555
O8 H10 1_555 1_555
O9 H16 1_555 1_555
O10 Cu1 1_555 1_555
O11 H11 1_555 1_555
O12 H13 1_555 1_555
O13 C4 1_555 1_555
O14 C4 1_555 1_555
H5 O10 1_555 1_555
H7 O6 1_555 1_555
H8 O10 1_555 1_555
H9 O7 1_555 1_555
H12 O8 1_555 1_555
H14 O11 1_555 1_555
H15 O12 1_555 1_555
H17 O9 1_555 1_555
Cu2 O3 1_555 1_555
N1 Cu1 1_555 1_555
C9 N1 1_555 1_555
H18 C9 1_555 1_555
N2 Cu2 1_555 1_555
C10 C11 1_555 1_555
C11 H19 1_555 1_555
C12 H20 1_555 1_555
C13 C10 1_555 1_555
C14 N1 1_555 1_555
H21 C14 1_555 1_555
C15 N2 1_555 1_555
H22 C15 1_555 1_555
C16 C13 1_555 1_555
H23 C16 1_555 1_555
C17 N2 1_555 1_555
H24 C17 1_555 1_555
C18 C9 1_555 1_555
H25 C18 1_555 1_555
S1_2 O1_2 1_555 1_555
O2_2 S1_2 1_555 1_555
O3_2 S1_2 1_555 1_555
O3B Cu2B 1_555 1_555
C1_2 H1_2 1_555 1_555
C2_2 S1_2 1_555 1_555
C3_2 C2_2 1_555 1_555
H2_2 C3_2 1_555 1_555
O4_2 C5_2 1_555 1_555
C4_2 C8_2 1_555 1_555
C5_2 C7_2 1_555 1_555
C6_2 H3_2 1_555 1_555
C7_2 C3_2 1_555 1_555
C8_2 C1_2 1_555 1_555
O5_2 C5_2 1_555 1_555
O6B H4B 1_555 1_555
O7B H6B 1_555 1_555
O8B Cu1 1_555 1_555
O10B Cu1 1_555 1_555
O13_2 Cu2 1_555 1_555
O13B Cu2B 1_555 1_555
O14_2 C4_2 1_555 1_555
H5B O10B 1_555 1_555
H7B O6B 1_555 1_555
H8B O10B 1_555 1_555
H9B O7B 1_555 1_555
H10B O8B 1_555 1_555
H12B O8B 1_555 1_555
Cu2B O6B 1_555 1_555
Cu2_2 O13 1_555 1_555
Cu2_3 O3_2 1_555 1_555
N1B Cu1 1_555 1_555
C9B N1B 1_555 1_555
H18B C9B 1_555 1_555
N2B Cu2B 1_555 1_555
C10B C11B 1_555 1_555
C11B H19B 1_555 1_555
C12B H20B 1_555 1_555
C13B C10B 1_555 1_555
C14B N1B 1_555 1_555
H21B C14B 1_555 1_555
C15B N2B 1_555 1_555
H22B C15B 1_555 1_555
C16B C13B 1_555 1_555
H23B C16B 1_555 1_555
C17B N2B 1_555 1_555
H24B C17B 1_555 1_555
C18B C9B 1_555 1_555
H25B C18B 1_555 1_555
C1 C2 1_555 1_555
C6 C7 1_555 1_555
C6 C8 1_555 1_555
O6 Cu2 1_555 1_555
O7 Cu2 1_555 1_555
C10 C18 1_555 1_555
C11 C14 1_555 1_555
C12 C13 1_555 1_555
C12 C17 1_555 1_555
C15 C16 1_555 1_555
C1_2 C2_2 1_555 1_555
C4_2 O13_2 1_555 1_555
C6_2 C7_2 1_555 1_555
C6_2 C8_2 1_555 1_555
O7B Cu2B 1_555 1_555
C10B C18B 1_555 1_555
C11B C14B 1_555 1_555
C12B C13B 1_555 1_555
C12B C17B 1_555 1_555
C15B C16B 1_555 1_555

#END
