
#######################################################################
#
#                 Cambridge Crystallographic Data Centre
#                                CCDC 
#
#######################################################################
#
# If this CIF has been generated from an entry in the Cambridge 
# Structural Database, then it will include bibliographic, chemical, 
# crystal, experimental, refinement or atomic coordinate data resulting 
# from the CCDC's data processing and validation procedures.
#
#######################################################################

data_XIWGUF
_symmetry_cell_setting           orthorhombic
_symmetry_space_group_name_H-M   'P n m a'
_symmetry_Int_Tables_number      62
_space_group_name_Hall           '-P 2ac 2n'
loop_
_symmetry_equiv_pos_site_id
_symmetry_equiv_pos_as_xyz
1 x,y,z
2 1/2-x,1/2+y,1/2+z
3 x,1/2-y,z
4 1/2+x,y,1/2-z
5 -x,-y,-z
6 1/2+x,1/2-y,1/2-z
7 -x,1/2+y,-z
8 1/2-x,-y,1/2+z
_cell_length_a                   14.0263(5)
_cell_length_b                   11.141(2)
_cell_length_c                   16.5696(7)
_cell_angle_alpha                90
_cell_angle_beta                 90
_cell_angle_gamma                90
_cell_volume                     2589.28
loop_
_atom_site_label
_atom_site_type_symbol
_atom_site_fract_x
_atom_site_fract_y
_atom_site_fract_z
Cu1 Cu 0.14020(4) 0.2500 0.21849(3)
Cu2 Cu 0.31410(4) 0.2500 0.34740(4)
O2 O 0.1813(2) 0.2500 0.3278(2)
O3 O 0.3072(2) 0.2500 0.1936(2)
O4 O 0.1001(2) 0.2500 0.1038(2)
O5 O -0.0457(2) 0.2500 0.1549(2)
N1 N 0.3184(2) 0.4316(2) 0.3601(2)
N2 N 0.1310(2) 0.0685(2) 0.2180(1)
C1 C 0.2763(3) 0.6159(3) 0.4239(2)
C2 C 0.2751(3) 0.4921(3) 0.4193(2)
C3 C 0.0106(3) 0.2500 0.0954(3)
C4 C -0.0282(5) 0.2500 0.0117(4)
C5 C 0.3202(2) 0.6830(2) 0.3643(2)
C6 C 0.1651(2) 0.0059(3) 0.1554(2)
C7 C 0.3629(3) 0.6187(3) 0.3022(2)
C8 C 0.1660(2) -0.1181(3) 0.1534(2)
C9 C 0.3619(3) 0.4959(3) 0.3027(2)
C10 C 0.1292(2) -0.1833(2) 0.2179(2)
C11 C 0.0966(2) 0.0066(3) 0.2809(2)
C12 C 0.0931(2) -0.1172(3) 0.2824(2)
H3 H 0.240(3) 0.446(3) 0.461(2)
H4 H 0.251(3) 0.650(3) 0.467(2)
H5 H 0.394(3) 0.654(3) 0.261(2)
H6 H 0.385(3) 0.456(4) 0.262(3)
H7 H 0.188(2) 0.052(3) 0.112(2)
H8 H 0.192(2) -0.158(3) 0.113(2)
H9 H 0.069(3) -0.155(3) 0.327(2)
H10 H 0.075(2) 0.047(3) 0.326(2)
H11 H 0.155(5) 0.2500 0.358(4)
H12 H 0.327(3) 0.198(3) 0.164(2)
H13 H 0.006(7) 0.2500 -0.015(6)
H14 H -0.086(5) 0.199(6) -0.004(5)
H12B H 0.327(3) 0.302(3) 0.164(2)
H14B H -0.086(5) 0.301(6) -0.004(5)
C5B C 0.3202(2) 0.8170(2) 0.3643(2)
C1B C 0.2763(3) 0.8841(3) 0.4239(2)
C2B C 0.2751(3) 1.0079(3) 0.4193(2)
N1B N 0.3184(2) 1.0684(2) 0.3601(2)
C9B C 0.3619(3) 1.0041(3) 0.3027(2)
C7B C 0.3629(3) 0.8813(3) 0.3022(2)
H5B H 0.394(3) 0.846(3) 0.261(2)
H6B H 0.385(3) 1.044(4) 0.262(3)
H3B H 0.240(3) 1.054(3) 0.461(2)
H4B H 0.251(3) 0.850(3) 0.467(2)
C10B C 0.1292(2) -0.3167(2) 0.2179(2)
C8B C 0.1660(2) -0.3819(3) 0.1534(2)
C6B C 0.1651(2) -0.5059(3) 0.1554(2)
N2B N 0.1310(2) -0.5685(2) 0.2180(1)
C11B C 0.0966(2) -0.5066(3) 0.2809(2)
C12B C 0.0931(2) -0.3828(3) 0.2824(2)
H9B H 0.069(3) -0.345(3) 0.327(2)
H10B H 0.075(2) -0.547(3) 0.326(2)
H7B H 0.188(2) -0.552(3) 0.112(2)
H8B H 0.192(2) -0.342(3) 0.113(2)
N2B_2 N 0.1310(2) 0.4315(2) 0.2180(1)
O5C O 0.4543(2) 0.2500 0.3451(2)
N1B_2 N 0.3184(2) 0.0684(2) 0.3601(2)
Cu2C Cu -0.18590(4) 0.2500 0.15260(4)
Cu2_2 Cu 0.31410(4) 1.2500 0.34740(4)
Cu1_2 Cu 0.14020(4) -0.7500 0.21849(3)
Si1 Si 0.08829(9) 0.2500 0.53343(7)
F1 F 0.2070(2) 0.2500 0.5135(2)
F2 F 0.1043(2) 0.3545(2) 0.6047(1)
F3 F 0.0738(2) 0.1435(2) 0.4632(1)
F4 F -0.0301(2) 0.2500 0.5498(2)
F2B F 0.1043(2) 0.1455(2) 0.6047(1)
F3B F 0.0738(2) 0.3565(2) 0.4632(1)
O1 O 0.3796(2) 0.4067(3) 0.0855(2)
H1 H 0.424(4) 0.380(4) 0.061(3)
H2 H 0.382(4) 0.467(5) 0.086(3)
loop_
_geom_bond_atom_site_label_1
_geom_bond_atom_site_label_2
_geom_bond_site_symmetry_1
_geom_bond_site_symmetry_2
Cu1 O2 1_555 1_555
Cu2 O2 1_555 1_555
Si1 F1 1_555 1_555
F2 Si1 1_555 1_555
F3 Si1 1_555 1_555
F4 Si1 1_555 1_555
O1 H1 1_555 1_555
O2 H11 1_555 1_555
O3 Cu1 1_555 1_555
O4 Cu1 1_555 1_555
O5 C3 1_555 1_555
N1 Cu2 1_555 1_555
N2 Cu1 1_555 1_555
C1 C2 1_555 1_555
C2 N1 1_555 1_555
C3 O4 1_555 1_555
C4 C3 1_555 1_555
C5 C1 1_555 1_555
C6 N2 1_555 1_555
C7 C5 1_555 1_555
C8 C6 1_555 1_555
C9 N1 1_555 1_555
C10 C8 1_555 1_555
C11 N2 1_555 1_555
C12 C10 1_555 1_555
H2 O1 1_555 1_555
H3 C2 1_555 1_555
H4 C1 1_555 1_555
H5 C7 1_555 1_555
H6 C9 1_555 1_555
H7 C6 1_555 1_555
H8 C8 1_555 1_555
H9 C12 1_555 1_555
H10 C11 1_555 1_555
H12 O3 1_555 1_555
H13 C4 1_555 1_555
H14 C4 1_555 1_555
F2B Si1 1_555 1_555
F3B Si1 1_555 1_555
H12B O3 1_555 1_555
H14B C4 1_555 1_555
C5B C5 1_555 1_555
C1B C5B 1_555 1_555
C2B C1B 1_555 1_555
N1B C2B 1_555 1_555
C9B N1B 1_555 1_555
C7B C5B 1_555 1_555
H5B C7B 1_555 1_555
H6B C9B 1_555 1_555
H3B C2B 1_555 1_555
H4B C1B 1_555 1_555
C10B C10 1_555 1_555
C8B C10B 1_555 1_555
C6B C8B 1_555 1_555
N2B C6B 1_555 1_555
C11B N2B 1_555 1_555
C12B C10B 1_555 1_555
H9B C12B 1_555 1_555
H10B C11B 1_555 1_555
H7B C6B 1_555 1_555
H8B C8B 1_555 1_555
N2B_2 Cu1 1_555 1_555
O5C Cu2 1_555 1_555
N1B_2 Cu2 1_555 1_555
Cu2C O5 1_555 1_555
Cu2_2 N1B 1_555 1_555
Cu1_2 N2B 1_555 1_555
Cu2 O3 1_555 1_555
C7 C9 1_555 1_555
C11 C12 1_555 1_555
C9B C7B 1_555 1_555
C11B C12B 1_555 1_555

#END
