
#######################################################################
#
#                 Cambridge Crystallographic Data Centre
#                                CCDC 
#
#######################################################################
#
# If this CIF has been generated from an entry in the Cambridge 
# Structural Database, then it will include bibliographic, chemical, 
# crystal, experimental, refinement or atomic coordinate data resulting 
# from the CCDC's data processing and validation procedures.
#
#######################################################################

data_XIWJET
_symmetry_cell_setting           triclinic
_symmetry_space_group_name_H-M   'P -1'
_symmetry_Int_Tables_number      2
_space_group_name_Hall           '-P 1'
loop_
_symmetry_equiv_pos_site_id
_symmetry_equiv_pos_as_xyz
1 x,y,z
2 -x,-y,-z
_cell_length_a                   7.066(3)
_cell_length_b                   10.272(3)
_cell_length_c                   16.610(5)
_cell_angle_alpha                73.534(7)
_cell_angle_beta                 87.889(11)
_cell_angle_gamma                88.392(9)
_cell_volume                     1155.16
loop_
_atom_site_label
_atom_site_type_symbol
_atom_site_fract_x
_atom_site_fract_y
_atom_site_fract_z
Eu1 Eu 0.64504(2) 1.121567(17) 0.234065(11)
O4 O 0.6345(3) 1.3568(2) 0.16190(15)
O5 O 0.4843(3) 1.9073(2) 0.25077(15)
O6 O 0.6911(3) 1.9676(2) 0.14404(15)
O7 O 1.3278(3) 0.4128(2) 0.46558(16)
O8 O 1.0738(3) 1.0272(2) 0.38087(16)
O9 O 0.8674(3) 0.9479(2) 0.30801(15)
O10 O 0.5707(3) 1.0483(2) 0.38477(15)
H1 H 0.6198 0.9872 0.4235
H2 H 0.4885 1.0801 0.4125
O11 O 0.8479(3) 1.2484(2) 0.30720(15)
H3 H 0.9192 1.1863 0.3360
H4 H 0.9117 1.3090 0.2730
O12 O 0.3365(3) 1.1998(2) 0.27601(15)
H5 H 0.2628 1.1398 0.3042
H6 H 0.2634 1.2509 0.2411
O13 O 0.9339(3) 1.1716(2) 0.14901(15)
H7 H 1.0007 1.2378 0.1487
H8 H 1.0008 1.1178 0.1297
O14 O 0.4421(3) 1.1817(2) 0.10813(15)
H9 H 0.3718 1.1229 0.0986
H10 H 0.3807 1.2556 0.0934
C1 C 0.5437(5) 1.4995(4) 0.2486(2)
H14 H 0.5050 1.4267 0.2952
N2 N 1.3223(4) 0.6373(3) 0.45642(19)
H15 H 1.4289 0.6252 0.4836
C8 C 0.6174(5) 1.4724(3) 0.1735(2)
N3 N 0.6687(4) 1.5828(3) 0.10934(18)
H19 H 0.7098 1.5692 0.0617
C9 C 0.6603(5) 1.7115(3) 0.1145(2)
H20 H 0.7038 1.7833 0.0683
C10 C 0.5902(5) 1.7396(3) 0.1850(2)
C11 C 0.5290(5) 1.6301(4) 0.2531(2)
H21 H 0.4770 1.6476 0.3026
C12 C 0.5855(5) 1.8796(3) 0.1939(2)
C13 C 1.2427(5) 0.5259(4) 0.4419(2)
C14 C 1.0688(5) 0.5509(4) 0.4000(2)
H22 H 1.0058 0.4776 0.3890
C15 C 0.9899(5) 0.6786(4) 0.3752(2)
H23 H 0.8727 0.6923 0.3474
C16 C 1.0800(5) 0.7910(4) 0.3901(2)
C17 C 1.2469(5) 0.7656(4) 0.4314(2)
H24 H 1.3110 0.8381 0.4429
C18 C 1.0009(5) 0.9323(3) 0.3579(2)
Eu1_2 Eu 0.64504(2) 2.121567(17) 0.234065(11)
O5_2 O 0.4843(3) 0.9073(2) 0.25077(15)
O6_2 O 0.6911(3) 0.9676(2) 0.14404(15)
O1 O 0.1668(3) 1.0295(2) 0.06710(15)
O2 O 0.1051(3) 0.3935(2) 0.17875(15)
O3 O 0.2462(4) 0.4274(2) 0.05263(16)
N1 N 0.2293(4) 0.8447(3) 0.02037(18)
H13 H 0.2733 0.8991 -0.0272
C2 C 0.1626(5) 0.9018(3) 0.0815(2)
C3 C 0.0934(5) 0.8098(4) 0.1569(2)
H16 H 0.0445 0.8432 0.2015
C4 C 0.0966(5) 0.6739(3) 0.1658(2)
H17 H 0.0510 0.6136 0.2170
C5 C 0.1662(5) 0.6203(3) 0.1004(2)
C6 C 0.2316(5) 0.7099(3) 0.0288(2)
H18 H 0.2798 0.6774 -0.0163
C7 C 0.1715(5) 0.4702(4) 0.1104(2)
O15 O 0.2877(3) 0.1419(2) 0.48037(15)
H11 H 0.1976 0.1141 0.4581
H12 H 0.2730 0.2272 0.4698
loop_
_geom_bond_atom_site_label_1
_geom_bond_atom_site_label_2
_geom_bond_site_symmetry_1
_geom_bond_site_symmetry_2
Eu1 O4 1_555 1_555
O1 C2 1_555 1_555
O2 C7 1_555 1_555
O3 C7 1_555 1_555
O4 C8 1_555 1_555
O5 C12 1_555 1_555
O6 C12 1_555 1_555
O7 C13 1_555 1_555
O8 C18 1_555 1_555
O9 Eu1 1_555 1_555
O10 Eu1 1_555 1_555
H1 O10 1_555 1_555
H2 O10 1_555 1_555
O11 Eu1 1_555 1_555
H3 O11 1_555 1_555
H4 O11 1_555 1_555
O12 Eu1 1_555 1_555
H5 O12 1_555 1_555
H6 O12 1_555 1_555
O13 Eu1 1_555 1_555
H7 O13 1_555 1_555
H8 O13 1_555 1_555
O14 Eu1 1_555 1_555
H9 O14 1_555 1_555
H10 O14 1_555 1_555
O15 H11 1_555 1_555
H12 O15 1_555 1_555
N1 H13 1_555 1_555
C1 H14 1_555 1_555
N2 H15 1_555 1_555
C2 N1 1_555 1_555
C3 C2 1_555 1_555
H16 C3 1_555 1_555
C4 C3 1_555 1_555
H17 C4 1_555 1_555
C5 C4 1_555 1_555
C6 N1 1_555 1_555
H18 C6 1_555 1_555
C7 C5 1_555 1_555
C8 C1 1_555 1_555
N3 C8 1_555 1_555
H19 N3 1_555 1_555
C9 N3 1_555 1_555
H20 C9 1_555 1_555
C10 C9 1_555 1_555
C11 C1 1_555 1_555
H21 C11 1_555 1_555
C12 C10 1_555 1_555
C13 N2 1_555 1_555
C14 C13 1_555 1_555
H22 C14 1_555 1_555
C15 C14 1_555 1_555
H23 C15 1_555 1_555
C16 C15 1_555 1_555
C17 N2 1_555 1_555
H24 C17 1_555 1_555
C18 O9 1_555 1_555
Eu1_2 O5 1_555 1_555
O5_2 Eu1 1_555 1_555
O6_2 Eu1 1_555 1_555
O6 Eu1_2 1_555 1_555
C5 C6 1_555 1_555
C10 C11 1_555 1_555
C16 C17 1_555 1_555
C16 C18 1_555 1_555

#END
