
#######################################################################
#
#                 Cambridge Crystallographic Data Centre
#                                CCDC 
#
#######################################################################
#
# If this CIF has been generated from an entry in the Cambridge 
# Structural Database, then it will include bibliographic, chemical, 
# crystal, experimental, refinement or atomic coordinate data resulting 
# from the CCDC's data processing and validation procedures.
#
#######################################################################

data_XIWJOD
_symmetry_cell_setting           monoclinic
_symmetry_space_group_name_H-M   'C 2/c'
_symmetry_Int_Tables_number      15
_space_group_name_Hall           '-C 2yn'
loop_
_symmetry_equiv_pos_site_id
_symmetry_equiv_pos_as_xyz
1 x,y,z
2 1/2+x,1/2+y,z
3 -x,y,1/2-z
4 1/2-x,1/2+y,1/2-z
5 -x,-y,-z
6 1/2-x,1/2-y,-z
7 x,-y,1/2+z
8 1/2+x,1/2-y,1/2+z
_cell_length_a                   23.226(5)
_cell_length_b                   7.6453(15)
_cell_length_c                   17.705(3)
_cell_angle_alpha                90
_cell_angle_beta                 130.609(2)
_cell_angle_gamma                90
_cell_volume                     2386.73
loop_
_atom_site_label
_atom_site_type_symbol
_atom_site_fract_x
_atom_site_fract_y
_atom_site_fract_z
Cd1 Cd 0.229090(14) 0.55478(3) 1.118225(17)
N1 N 0.3635(2) 0.7374(5) 1.1301(3)
N2 N 0.21163(19) 0.8003(4) 1.1875(2)
N3 N 0.10043(16) 0.5396(4) 0.9985(2)
N4 N 0.19498(15) 0.2852(3) 1.01248(18)
C1 C 0.3158(2) 0.6801(4) 1.1237(2)
C2 C 0.2299(2) 0.8869(5) 1.2514(3)
C3 C 0.0545(2) 0.6778(5) 0.9676(3)
H3 H 0.0753 0.7849 0.9993
C4 C -0.0223(2) 0.6663(7) 0.8908(3)
H4 H -0.0529 0.7644 0.8708
C5 C -0.0535(3) 0.5098(8) 0.8439(3)
H5 H -0.1056 0.4992 0.7925
C6 C -0.0061(2) 0.3670(6) 0.8743(3)
H6 H -0.0260 0.2599 0.8423
C7 C 0.0705(2) 0.3849(5) 0.9523(2)
C8 C 0.12421(19) 0.2352(4) 0.9919(3)
H7 H 0.1367 0.1934 1.0528
H8 H 0.0998 0.1403 0.9440
C9 C 0.17786(19) 0.3164(4) 0.9167(2)
H9 H 0.1424 0.4128 0.8819
H10 H 0.1542 0.2131 0.8752
C10 C 0.25102(19) 0.1416(4) 1.0663(2)
H11 H 0.2289 0.0345 1.0279
H12 H 0.2638 0.1228 1.1298
Cd1C Cd 0.270910(14) 0.05478(3) 1.381775(17)
Cd1C_2 Cd 0.270910(14) 1.05478(3) 1.381775(17)
Cd1E Cd 0.270910(14) -0.05478(3) 0.881775(17)
N1C N 0.1365(2) 0.2374(5) 1.3699(3)
N2C N 0.28837(19) 0.3003(4) 1.3125(2)
N3E N 0.39957(16) -0.0396(4) 1.0015(2)
N3C N 0.39957(16) 0.0396(4) 1.5015(2)
N4E N 0.30502(15) 0.2148(3) 0.98752(18)
N4C N 0.30502(15) -0.2148(3) 1.48752(18)
C1C C 0.1842(2) 0.1801(4) 1.3763(2)
C2C C 0.2701(2) 0.3869(5) 1.2486(3)
C2_2 C 0.2299(2) -0.1131(5) 1.2514(3)
C3E C 0.4455(2) -0.1778(5) 1.0324(3)
H3E H 0.4247 -0.2849 1.0007
C4E C 0.5223(2) -0.1663(7) 1.1092(3)
H4E H 0.5529 -0.2644 1.1292
C5E C 0.5535(3) -0.0098(8) 1.1561(3)
H5E H 0.6056 0.0008 1.2075
C6E C 0.5061(2) 0.1330(6) 1.1257(3)
H6E H 0.5260 0.2401 1.1577
C7E C 0.4295(2) 0.1151(5) 1.0477(2)
C8E C 0.37579(19) 0.2648(4) 1.0081(3)
H7E H 0.3633 0.3066 0.9472
H8E H 0.4002 0.3597 1.0560
C9E C 0.32214(19) 0.1836(4) 1.0833(2)
H9E H 0.3576 0.0872 1.1181
H10E H 0.3458 0.2869 1.1248
C10E C 0.24898(19) 0.3584(4) 0.9337(2)
H11E H 0.2711 0.4655 0.9721
H12E H 0.2362 0.3772 0.8702
O1 O 0.5000 0.5070(7) 0.2500
H2 H 0.5355 0.5832 0.2654
H2B H 0.4645 0.5832 0.2346
H1? H 0.4911 0.5273 0.2894
loop_
_geom_bond_atom_site_label_1
_geom_bond_atom_site_label_2
_geom_bond_site_symmetry_1
_geom_bond_site_symmetry_2
Cd1 N2 1_555 1_555
O1 H2 1_555 1_555
N1 C1 1_555 1_555
N2 C2 1_555 1_555
N3 Cd1 1_555 1_555
N4 Cd1 1_555 1_555
C1 Cd1 1_555 1_555
C2 Cd1C_2 1_555 1_555
C3 N3 1_555 1_555
H3 C3 1_555 1_555
C4 C3 1_555 1_555
H4 C4 1_555 1_555
C5 C4 1_555 1_555
H5 C5 1_555 1_555
C6 C5 1_555 1_555
H6 C6 1_555 1_555
C7 N3 1_555 1_555
C8 N4 1_555 1_555
H7 C8 1_555 1_555
H8 C8 1_555 1_555
C9 N4 1_555 1_555
H9 C9 1_555 1_555
H10 C9 1_555 1_555
C10 N4 1_555 1_555
H11 C10 1_555 1_555
H12 C10 1_555 1_555
Cd1C N2C 1_555 1_555
Cd1E N3E 1_555 1_555
H2B O1 1_555 1_555
N1C C1C 1_555 1_555
N2C C2C 1_555 1_555
N3E C3E 1_555 1_555
N3C Cd1C 1_555 1_555
N4E Cd1E 1_555 1_555
N4C Cd1C 1_555 1_555
C1C Cd1C 1_555 1_555
C2C Cd1 1_555 1_555
C2_2 Cd1C 1_555 1_555
C3E H3E 1_555 1_555
C4E C3E 1_555 1_555
H4E C4E 1_555 1_555
C5E C4E 1_555 1_555
H5E C5E 1_555 1_555
C6E C5E 1_555 1_555
H6E C6E 1_555 1_555
C7E N3E 1_555 1_555
C8E N4E 1_555 1_555
H7E C8E 1_555 1_555
H8E C8E 1_555 1_555
C9E C10 1_555 1_555
H9E C9E 1_555 1_555
H10E C9E 1_555 1_555
C10E C9 1_555 1_555
H11E C10E 1_555 1_555
H12E C10E 1_555 1_555
C6 C7 1_555 1_555
C7 C8 1_555 1_555
N4E C9E 1_555 1_555
N4E C10E 1_555 1_555
C6E C7E 1_555 1_555
C7E C8E 1_555 1_555

#END
