
#######################################################################
#
#                 Cambridge Crystallographic Data Centre
#                                CCDC 
#
#######################################################################
#
# If this CIF has been generated from an entry in the Cambridge 
# Structural Database, then it will include bibliographic, chemical, 
# crystal, experimental, refinement or atomic coordinate data resulting 
# from the CCDC's data processing and validation procedures.
#
#######################################################################

data_XIWJIX
_symmetry_cell_setting           triclinic
_symmetry_space_group_name_H-M   'P -1'
_symmetry_Int_Tables_number      2
_space_group_name_Hall           '-P 1'
loop_
_symmetry_equiv_pos_site_id
_symmetry_equiv_pos_as_xyz
1 x,y,z
2 -x,-y,-z
_cell_length_a                   7.036(3)
_cell_length_b                   10.240(3)
_cell_length_c                   16.576(5)
_cell_angle_alpha                73.760(7)
_cell_angle_beta                 87.998(11)
_cell_angle_gamma                88.284(9)
_cell_volume                     1145.67
loop_
_atom_site_label
_atom_site_type_symbol
_atom_site_fract_x
_atom_site_fract_y
_atom_site_fract_z
Dy1 Dy 0.64581(2) 1.122482(12) 0.234106(8)
O4 O 0.6331(3) 1.35561(19) 0.16360(13)
O5 O 0.4856(3) 1.91063(19) 0.25183(13)
O6 O 0.6944(3) 1.96833(19) 0.14534(12)
O7 O 1.3262(3) 0.4128(2) 0.46552(14)
O8 O 1.0738(3) 1.0289(2) 0.38005(13)
O9 O 0.8669(3) 0.95033(19) 0.30661(12)
O10 O 0.5737(3) 1.0501(2) 0.38330(13)
H1 H 0.6227 0.9890 0.4220
H2 H 0.4914 1.0819 0.4110
O11 O 0.8447(3) 1.2483(2) 0.30660(12)
H3 H 0.9160 1.1862 0.3354
H4 H 0.9085 1.3090 0.2723
O12 O 0.3417(3) 1.20040(19) 0.27544(13)
H5 H 0.2679 1.1405 0.3037
H6 H 0.2685 1.2515 0.2406
O13 O 0.9301(3) 1.17230(19) 0.15019(12)
H7 H 0.9970 1.2385 0.1499
H8 H 0.9971 1.1186 0.1309
O14 O 0.4452(3) 1.18034(19) 0.10960(12)
H9 H 0.3749 1.1216 0.1001
H10 H 0.3838 1.2542 0.0949
C1 C 0.5436(5) 1.5000(3) 0.25030(19)
H14 H 0.5052 1.4274 0.2971
N2 N 1.3209(4) 0.6379(2) 0.45672(15)
H15 H 1.4274 0.6254 0.4844
C8 C 0.6164(4) 1.4717(3) 0.17489(18)
N3 N 0.6677(4) 1.5822(2) 0.11040(15)
H19 H 0.7087 1.5680 0.0627
C9 C 0.6594(4) 1.7130(3) 0.11544(19)
H20 H 0.7020 1.7850 0.0692
C10 C 0.5901(5) 1.7399(3) 0.18656(19)
C11 C 0.5292(5) 1.6306(3) 0.25490(19)
H21 H 0.4778 1.6487 0.3046
C12 C 0.5874(5) 1.8815(3) 0.19469(19)
C13 C 1.2407(5) 0.5264(3) 0.44181(19)
C14 C 1.0656(5) 0.5516(3) 0.39954(19)
H22 H 1.0013 0.4782 0.3887
C15 C 0.9892(5) 0.6795(3) 0.37440(19)
H23 H 0.8721 0.6942 0.3460
C16 C 1.0804(5) 0.7916(3) 0.38959(19)
C17 C 1.2456(5) 0.7668(3) 0.43120(19)
H24 H 1.3097 0.8397 0.4427
C18 C 0.9997(5) 0.9344(3) 0.35646(18)
Dy1_2 Dy 0.64581(2) 2.122482(12) 0.234106(8)
O5_2 O 0.4856(3) 0.91063(19) 0.25183(13)
O6_2 O 0.6944(3) 0.96833(19) 0.14534(12)
O1 O 0.1678(3) 1.03059(19) 0.06752(13)
O2 O 0.1058(3) 0.39306(19) 0.17871(12)
O3 O 0.2468(3) 0.4261(2) 0.05229(13)
N1 N 0.2288(4) 0.8449(2) 0.02004(15)
H13 H 0.2722 0.8993 -0.0276
C2 C 0.1628(4) 0.9030(3) 0.08145(19)
C3 C 0.0948(4) 0.8100(3) 0.15734(19)
H16 H 0.0480 0.8434 0.2024
C4 C 0.0963(4) 0.6741(3) 0.16593(18)
H17 H 0.0500 0.6140 0.2170
C5 C 0.1657(4) 0.6199(3) 0.10017(18)
C6 C 0.2316(4) 0.7093(3) 0.02810(19)
H18 H 0.2799 0.6764 -0.0169
C7 C 0.1726(4) 0.4701(3) 0.11041(18)
O15 O 0.2896(3) 0.1414(2) 0.48087(12)
H11 H 0.1995 0.1137 0.4587
H12 H 0.2749 0.2268 0.4703
loop_
_geom_bond_atom_site_label_1
_geom_bond_atom_site_label_2
_geom_bond_site_symmetry_1
_geom_bond_site_symmetry_2
Dy1 O4 1_555 1_555
O1 C2 1_555 1_555
O2 C7 1_555 1_555
O3 C7 1_555 1_555
O4 C8 1_555 1_555
O5 C12 1_555 1_555
O6 C12 1_555 1_555
O7 C13 1_555 1_555
O8 C18 1_555 1_555
O9 Dy1 1_555 1_555
O10 Dy1 1_555 1_555
H1 O10 1_555 1_555
H2 O10 1_555 1_555
O11 Dy1 1_555 1_555
H3 O11 1_555 1_555
H4 O11 1_555 1_555
O12 Dy1 1_555 1_555
H5 O12 1_555 1_555
H6 O12 1_555 1_555
O13 Dy1 1_555 1_555
H7 O13 1_555 1_555
H8 O13 1_555 1_555
O14 Dy1 1_555 1_555
H9 O14 1_555 1_555
H10 O14 1_555 1_555
O15 H11 1_555 1_555
H12 O15 1_555 1_555
N1 H13 1_555 1_555
C1 H14 1_555 1_555
N2 H15 1_555 1_555
C2 N1 1_555 1_555
C3 C2 1_555 1_555
H16 C3 1_555 1_555
C4 C3 1_555 1_555
H17 C4 1_555 1_555
C5 C4 1_555 1_555
C6 N1 1_555 1_555
H18 C6 1_555 1_555
C7 C5 1_555 1_555
C8 C1 1_555 1_555
N3 C8 1_555 1_555
H19 N3 1_555 1_555
C9 N3 1_555 1_555
H20 C9 1_555 1_555
C10 C9 1_555 1_555
C11 C1 1_555 1_555
H21 C11 1_555 1_555
C12 C10 1_555 1_555
C13 N2 1_555 1_555
C14 C13 1_555 1_555
H22 C14 1_555 1_555
C15 C14 1_555 1_555
H23 C15 1_555 1_555
C16 C15 1_555 1_555
C17 N2 1_555 1_555
H24 C17 1_555 1_555
C18 O9 1_555 1_555
Dy1_2 O5 1_555 1_555
O5_2 Dy1 1_555 1_555
O6_2 Dy1 1_555 1_555
O6 Dy1_2 1_555 1_555
C5 C6 1_555 1_555
C10 C11 1_555 1_555
C16 C17 1_555 1_555
C16 C18 1_555 1_555

#END
