
#######################################################################
#
#                 Cambridge Crystallographic Data Centre
#                                CCDC 
#
#######################################################################
#
# If this CIF has been generated from an entry in the Cambridge 
# Structural Database, then it will include bibliographic, chemical, 
# crystal, experimental, refinement or atomic coordinate data resulting 
# from the CCDC's data processing and validation procedures.
#
#######################################################################

data_XIWMIB
_symmetry_cell_setting           triclinic
_symmetry_space_group_name_H-M   'P 1'
_symmetry_Int_Tables_number      1
_space_group_name_Hall           'P 1'
loop_
_symmetry_equiv_pos_site_id
_symmetry_equiv_pos_as_xyz
1 x,y,z
_cell_length_a                   11.3533(15)
_cell_length_b                   11.4578(15)
_cell_length_c                   12.932(3)
_cell_angle_alpha                109.471(2)
_cell_angle_beta                 101.616(2)
_cell_angle_gamma                112.420(2)
_cell_volume                     1358.03
loop_
_atom_site_label
_atom_site_type_symbol
_atom_site_fract_x
_atom_site_fract_y
_atom_site_fract_z
Ag1 Ag 0.85921(10) 0.94655(11) -0.10883(8)
Ag2 Ag 0.29701(11) 0.47822(10) 0.26384(9)
Ag3 Ag 0.16755(10) -0.36805(10) 0.38475(8)
Ag4 Ag 1.75469(10) 1.14816(10) -0.22104(8)
S1 S 0.6486(3) 0.7502(3) -0.3970(3)
S2 S -0.0238(3) 0.3684(3) 0.0819(3)
O1 O 0.6440(12) 0.7976(13) -0.2788(8)
O2 O 0.5134(9) 0.7157(11) -0.4785(8)
O3 O 0.6636(12) 0.6236(10) -0.4295(11)
O4 O 0.7558(11) 0.8649(11) -0.4010(10)
O5 O 0.0897(12) 0.3375(12) 0.0914(10)
O6 O -0.0333(12) 0.4185(12) 0.1987(8)
O7 O -0.0013(12) 0.4737(10) 0.0404(8)
O8 O -0.1491(11) 0.2374(10) -0.0044(8)
N1 N 0.7383(11) 0.9289(12) 0.0054(9)
N2 N 0.7050(12) 1.0284(12) 0.0478(10)
H1 H 0.7302 1.1031 0.0374
N3 N 0.4153(11) 0.6572(10) 0.2341(8)
N4 N 0.5212(13) 0.7709(11) 0.3289(10)
H2 H 0.5337 0.7832 0.4004
N5 N 0.3132(12) 0.3359(11) 0.3398(9)
N6 N 0.4411(13) 0.3610(12) 0.3995(10)
H3 H 0.5130 0.4432 0.4340
N7 N 0.1993(13) -0.2178(11) 0.3203(9)
N8 N 0.1452(12) -0.2451(10) 0.2071(9)
H4 H 0.0946 -0.3291 0.1495
N9 N 0.1801(11) -0.4617(11) 0.4997(9)
N10 N -0.0818(12) -0.7856(11) 0.7217(10)
N11 N 0.2971(10) -0.4483(9) 0.5637(8)
H5 H 0.3767 -0.3952 0.5666
N12 N -0.0360(11) -0.8735(11) 0.6682(9)
H6 H -0.0597 -0.9553 0.6660
N13 N 1.5568(10) 1.0623(11) -0.2126(9)
N14 N 1.4975(10) 0.9346(10) -0.2173(8)
H7 H 1.5249 0.8734 -0.2394
N15 N 1.0594(11) 1.0246(11) -0.1246(9)
N16 N 1.1584(11) 1.1465(11) -0.0327(9)
H8 H 1.1428 1.2040 0.0178
C1 C 0.701(2) 0.7026(18) 0.0060(18)
H9 H 0.6781 0.6574 -0.0779
H10 H 0.6428 0.6377 0.0283
H11 H 0.7956 0.7308 0.0466
C2 C 0.6819(14) 0.8323(16) 0.0393(11)
C3 C 0.6096(13) 0.8730(14) 0.1092(11)
C4 C 0.6273(14) 0.9973(13) 0.1088(11)
C5 C 0.5640(19) 1.0898(18) 0.1618(14)
H12 H 0.6114 1.1810 0.1646
H13 H 0.5732 1.1011 0.2404
H14 H 0.4684 1.0446 0.1131
C6 C 0.3281(18) 0.5804(18) 0.0193(14)
H15 H 0.3592 0.5183 -0.0208
H16 H 0.3180 0.6339 -0.0221
H17 H 0.2410 0.5255 0.0214
C7 C 0.4287(13) 0.6776(14) 0.1406(11)
C8 C 0.5470(12) 0.8058(13) 0.1770(11)
C9 C 0.6063(15) 0.8642(14) 0.3008(12)
C10 C 0.7355(17) 0.9926(15) 0.3916(13)
H18 H 0.7302 1.0145 0.4683
H19 H 0.7481 1.0708 0.3743
H20 H 0.8119 0.9755 0.3908
C11 C 0.0812(15) 0.1346(16) 0.2420(14)
H21 H 0.0363 0.0502 0.2504
H22 H 0.0578 0.1109 0.1595
H23 H 0.0517 0.2005 0.2781
C12 C 0.2311(13) 0.1989(13) 0.3003(11)
C13 C 0.3106(13) 0.1383(12) 0.3350(10)
C14 C 0.4431(14) 0.2474(13) 0.3990(11)
C15 C 0.5666(18) 0.2546(19) 0.4618(15)
H24 H 0.6432 0.3197 0.4535
H25 H 0.5593 0.1624 0.4301
H26 H 0.5802 0.2865 0.5441
C16 C 0.3515(17) -0.0067(15) 0.5106(10)
H27 H 0.2908 -0.0353 0.5499
H28 H 0.3950 0.0943 0.5406
H29 H 0.4205 -0.0346 0.5250
C17 C 0.2705(15) -0.0765(13) 0.3796(11)
C18 C 0.2532(13) -0.0147(12) 0.3033(11)
C19 C 0.1785(13) -0.1278(12) 0.1940(10)
C20 C 0.1302(17) -0.1370(16) 0.0732(11)
H30 H 0.1246 -0.2195 0.0154
H31 H 0.1940 -0.0539 0.0718
H32 H 0.0410 -0.1433 0.0552
C21 C -0.0653(15) -0.592(2) 0.4620(17)
H33 H -0.0706 -0.5205 0.4416
H34 H -0.1104 -0.6017 0.5163
H35 H -0.1097 -0.6808 0.3916
C22 C 0.0831(13) -0.5506(14) 0.5189(12)
C23 C 0.1365(12) -0.5926(11) 0.5962(10)
C24 C 0.2784(13) -0.5232(13) 0.6207(11)
C25 C 0.3946(15) -0.5296(15) 0.6945(13)
H36 H 0.4798 -0.4690 0.6932
H37 H 0.3790 -0.6252 0.6629
H38 H 0.3991 -0.4988 0.7746
C26 C -0.0457(16) -0.5501(15) 0.7562(14)
H39 H -0.1355 -0.5728 0.7090
H40 H 0.0224 -0.4673 0.7575
H41 H -0.0402 -0.5321 0.8355
C27 C -0.0207(12) -0.6703(13) 0.7046(11)
C28 C 0.0634(11) -0.6874(12) 0.6401(10)
C29 C 0.0506(14) -0.8186(13) 0.6188(12)
C30 C 0.1115(18) -0.8990(16) 0.5545(16)
H42 H 0.1536 -0.9300 0.6039
H43 H 0.1796 -0.8389 0.5352
H44 H 0.0404 -0.9798 0.4831
C31 C 1.5164(16) 1.2657(15) -0.1727(14)
H45 H 1.6144 1.3259 -0.1377
H46 H 1.4746 1.3065 -0.1248
H47 H 1.4820 1.2566 -0.2507
C32 C 1.4827(13) 1.1230(14) -0.1802(11)
C33 C 1.3716(13) 1.0319(12) -0.1608(10)
C34 C 1.3893(11) 0.9126(12) -0.1832(9)
C35 C 1.3138(16) 0.7801(14) -0.1712(14)
H48 H 1.2665 0.6997 -0.2480
H49 H 1.2485 0.7886 -0.1364
H50 H 1.3786 0.7679 -0.1215
C36 C 1.0423(14) 0.8269(14) -0.2873(12)
H51 H 1.0350 0.7524 -0.2662
H52 H 1.0886 0.8271 -0.3417
H53 H 0.9519 0.8119 -0.3238
C37 C 1.1225(13) 0.9666(13) -0.1781(10)
C38 C 1.2664(13) 1.0561(13) -0.1254(10)
C39 C 1.2841(12) 1.1693(13) -0.0281(12)
C40 C 1.4127(13) 1.2980(15) 0.0682(13)
H54 H 1.4164 1.3812 0.0638
H55 H 1.4917 1.2909 0.0584
H56 H 1.4121 1.3040 0.1439
Ag3_2 Ag 0.16755(10) 0.63195(10) 0.38475(8)
Ag4_2 Ag -0.24531(10) -0.85184(10) 0.77896(8)
Ag4_3 Ag -0.24531(10) 0.14816(10) -0.22104(8)
O6_2 O -0.0333(12) -0.5815(12) 0.1987(8)
O8_2 O 1.8509(11) 1.2374(10) -0.0044(8)
N10_2 N 1.9182(12) 1.2144(11) -0.2783(10)
O9 O -0.151(4) -0.313(4) 0.348(3)
O10? O -0.271(5) -0.458(5) 0.257(4)
loop_
_geom_bond_atom_site_label_1
_geom_bond_atom_site_label_2
_geom_bond_site_symmetry_1
_geom_bond_site_symmetry_2
Ag1 O1 1_555 1_555
Ag2 O5 1_555 1_555
Ag3 N7 1_555 1_555
Ag4 N13 1_555 1_555
S1 O1 1_555 1_555
S2 O5 1_555 1_555
O2 S1 1_555 1_555
O3 S1 1_555 1_555
O4 S1 1_555 1_555
O6 S2 1_555 1_555
O7 S2 1_555 1_555
O8 S2 1_555 1_555
N1 Ag1 1_555 1_555
N2 N1 1_555 1_555
H1 N2 1_555 1_555
N3 Ag2 1_555 1_555
N4 N3 1_555 1_555
H2 N4 1_555 1_555
N5 Ag2 1_555 1_555
N6 N5 1_555 1_555
H3 N6 1_555 1_555
N7 N8 1_555 1_555
N8 H4 1_555 1_555
N9 Ag3 1_555 1_555
N10 N12 1_555 1_555
N11 N9 1_555 1_555
H5 N11 1_555 1_555
N12 H6 1_555 1_555
N13 N14 1_555 1_555
N14 H7 1_555 1_555
N15 Ag1 1_555 1_555
N16 N15 1_555 1_555
H8 N16 1_555 1_555
C1 H9 1_555 1_555
H10 C1 1_555 1_555
H11 C1 1_555 1_555
C2 N1 1_555 1_555
C3 C2 1_555 1_555
C4 N2 1_555 1_555
C5 C4 1_555 1_555
H12 C5 1_555 1_555
H13 C5 1_555 1_555
H14 C5 1_555 1_555
C6 H15 1_555 1_555
H16 C6 1_555 1_555
H17 C6 1_555 1_555
C7 N3 1_555 1_555
C8 C3 1_555 1_555
C9 N4 1_555 1_555
C10 C9 1_555 1_555
H18 C10 1_555 1_555
H19 C10 1_555 1_555
H20 C10 1_555 1_555
C11 H21 1_555 1_555
H22 C11 1_555 1_555
H23 C11 1_555 1_555
C12 N5 1_555 1_555
C13 C12 1_555 1_555
C14 N6 1_555 1_555
C15 C14 1_555 1_555
H24 C15 1_555 1_555
H25 C15 1_555 1_555
H26 C15 1_555 1_555
C16 H27 1_555 1_555
H28 C16 1_555 1_555
H29 C16 1_555 1_555
C17 N7 1_555 1_555
C18 C13 1_555 1_555
C19 N8 1_555 1_555
C20 C19 1_555 1_555
H30 C20 1_555 1_555
H31 C20 1_555 1_555
H32 C20 1_555 1_555
C21 H33 1_555 1_555
H34 C21 1_555 1_555
H35 C21 1_555 1_555
C22 N9 1_555 1_555
C23 C22 1_555 1_555
C24 N11 1_555 1_555
C25 C24 1_555 1_555
H36 C25 1_555 1_555
H37 C25 1_555 1_555
H38 C25 1_555 1_555
C26 H39 1_555 1_555
H40 C26 1_555 1_555
H41 C26 1_555 1_555
C27 N10 1_555 1_555
C28 C23 1_555 1_555
C29 N12 1_555 1_555
C30 C29 1_555 1_555
H42 C30 1_555 1_555
H43 C30 1_555 1_555
H44 C30 1_555 1_555
C31 H45 1_555 1_555
H46 C31 1_555 1_555
H47 C31 1_555 1_555
C32 N13 1_555 1_555
C33 C32 1_555 1_555
C34 N14 1_555 1_555
C35 C34 1_555 1_555
H48 C35 1_555 1_555
H49 C35 1_555 1_555
H50 C35 1_555 1_555
C36 H51 1_555 1_555
H52 C36 1_555 1_555
H53 C36 1_555 1_555
C37 N15 1_555 1_555
C38 C33 1_555 1_555
C39 N16 1_555 1_555
C40 C39 1_555 1_555
H54 C40 1_555 1_555
H55 C40 1_555 1_555
H56 C40 1_555 1_555
Ag3_2 O6 1_555 1_555
Ag4_2 N10 1_555 1_555
Ag4_3 O8 1_555 1_555
O6_2 Ag3 1_555 1_555
O8_2 Ag4 1_555 1_555
N10_2 Ag4 1_555 1_555
C1 C2 1_555 1_555
C3 C4 1_555 1_555
C6 C7 1_555 1_555
C7 C8 1_555 1_555
C8 C9 1_555 1_555
C11 C12 1_555 1_555
C13 C14 1_555 1_555
C16 C17 1_555 1_555
C17 C18 1_555 1_555
C18 C19 1_555 1_555
C21 C22 1_555 1_555
C23 C24 1_555 1_555
C26 C27 1_555 1_555
C27 C28 1_555 1_555
C28 C29 1_555 1_555
C31 C32 1_555 1_555
C33 C34 1_555 1_555
C36 C37 1_555 1_555
C37 C38 1_555 1_555
C38 C39 1_555 1_555

#END
