
#######################################################################
#
#                 Cambridge Crystallographic Data Centre
#                                CCDC 
#
#######################################################################
#
# If this CIF has been generated from an entry in the Cambridge 
# Structural Database, then it will include bibliographic, chemical, 
# crystal, experimental, refinement or atomic coordinate data resulting 
# from the CCDC's data processing and validation procedures.
#
#######################################################################

data_XIWMOH
_symmetry_cell_setting           orthorhombic
_symmetry_space_group_name_H-M   'C c c a'
_symmetry_Int_Tables_number      68
_space_group_name_Hall           '-C 2b 2bc'
loop_
_symmetry_equiv_pos_site_id
_symmetry_equiv_pos_as_xyz
1 x,y,z
2 1/2-x,-y,z
3 -x,y,1/2-z
4 1/2+x,-y,1/2-z
5 1/2+x,1/2+y,z
6 -x,1/2-y,z
7 1/2-x,1/2+y,1/2-z
8 x,1/2-y,1/2-z
9 -x,-y,-z
10 1/2+x,y,-z
11 x,-y,1/2+z
12 1/2-x,y,1/2+z
13 1/2-x,1/2-y,-z
14 x,1/2+y,-z
15 1/2+x,1/2-y,1/2+z
16 -x,1/2+y,1/2+z
_cell_length_a                   10.0707(9)
_cell_length_b                   24.215(3)
_cell_length_c                   26.085(3)
_cell_angle_alpha                90
_cell_angle_beta                 90
_cell_angle_gamma                90
_cell_volume                     6361.14
loop_
_atom_site_label
_atom_site_type_symbol
_atom_site_fract_x
_atom_site_fract_y
_atom_site_fract_z
S1 S 1.0000 0.2500 0.07252(16)
Ag1 Ag 0.87339(10) 0.37671(4) 0.12614(4)
N1 N 1.0437(10) 0.4161(3) 0.0962(4)
N2 N 1.1346(8) 0.3913(4) 0.0674(4)
H1 H 1.1298 0.3574 0.0577
N3 N 0.6902(10) 0.3676(4) 0.1645(4)
N4 N 0.5826(10) 0.3414(4) 0.1449(4)
H2 H 0.5761 0.3305 0.1136
O1 O 1.0840(7) 0.2850(3) 0.0433(3)
O2 O 0.9327(8) 0.2818(4) 0.1103(4)
C1 C 1.0123(18) 0.5071(6) 0.1360(6)
H3 H 0.9192 0.4993 0.1333
H4 H 1.0290 0.5442 0.1246
H5 H 1.0396 0.5034 0.1711
C2 C 1.0888(12) 0.4676(4) 0.1036(5)
C3 C 1.2092(10) 0.4748(4) 0.0777(4)
C4 C 1.2339(11) 0.4250(4) 0.0554(5)
C5 C 1.3485(13) 0.4062(6) 0.0226(7)
H6 H 1.3348 0.3685 0.0125
H7 H 1.4295 0.4090 0.0419
H8 H 1.3543 0.4290 -0.0073
C6 C 0.7567(15) 0.4104(5) 0.2462(6)
H9 H 0.8346 0.4193 0.2267
H10 H 0.7812 0.3881 0.2751
H11 H 0.7153 0.4438 0.2580
C7 C 0.6614(12) 0.3790(4) 0.2131(5)
C8 C 0.5317(11) 0.3583(4) 0.2251(4)
C9 C 0.4875(11) 0.3348(4) 0.1804(5)
C10 C 0.3604(12) 0.3053(6) 0.1684(6)
H12 H 0.3448 0.2772 0.1936
H13 H 0.3667 0.2886 0.1351
H14 H 0.2882 0.3312 0.1687
O1E O 0.9160(7) 0.2150(3) 0.0433(3)
O2E O 1.0673(8) 0.2182(4) 0.1103(4)
N1A N 1.4563(10) 0.5839(3) 0.0962(4)
N2A N 1.3654(8) 0.6087(4) 0.0674(4)
H1A H 1.3702 0.6426 0.0577
C1A C 1.4877(18) 0.4929(6) 0.1360(6)
H3A H 1.5808 0.5007 0.1333
H4A H 1.4710 0.4558 0.1246
H5A H 1.4604 0.4966 0.1711
C2A C 1.4112(12) 0.5324(4) 0.1036(5)
C3A C 1.2908(10) 0.5252(4) 0.0777(4)
C4A C 1.2661(11) 0.5750(4) 0.0554(5)
C5A C 1.1515(13) 0.5938(6) 0.0226(7)
H6A H 1.1652 0.6315 0.0125
H7A H 1.0705 0.5910 0.0419
H8A H 1.1457 0.5710 -0.0073
N3B N 0.3098(10) 0.3676(4) 0.3355(4)
N4B N 0.4174(10) 0.3414(4) 0.3551(4)
H2B H 0.4239 0.3305 0.3864
C6B C 0.2433(15) 0.4104(5) 0.2538(6)
H9B H 0.1654 0.4193 0.2733
H10B H 0.2188 0.3881 0.2249
H11B H 0.2847 0.4438 0.2420
C7B C 0.3386(12) 0.3790(4) 0.2869(5)
C8B C 0.4683(11) 0.3583(4) 0.2749(4)
C9B C 0.5125(11) 0.3348(4) 0.3196(5)
C10B C 0.6396(12) 0.3053(6) 0.3316(6)
H12B H 0.6552 0.2772 0.3064
H13B H 0.6333 0.2886 0.3649
H14B H 0.7118 0.3312 0.3313
Ag1A Ag 1.62661(10) 0.62329(4) 0.12614(4)
Ag1B Ag 0.12661(10) 0.37671(4) 0.37386(4)
Ag1E Ag 1.12661(10) 0.12329(4) 0.12614(4)
N3A N 1.8098(10) 0.6324(4) 0.1645(4)
O2A O 1.5673(8) 0.7182(4) 0.1103(4)
O3 O 0.6512(8) 0.2951(4) 0.0558(4)
H15 H 0.5956 0.2945 0.0313
H16 H 0.7294 0.2820 0.0546
O4 O 1.0057(14) 0.2968(9) 0.2032(8)
H17 H 0.9841 0.2937 0.1718
H18 H 0.9685 0.2781 0.2268
loop_
_geom_bond_atom_site_label_1
_geom_bond_atom_site_label_2
_geom_bond_site_symmetry_1
_geom_bond_site_symmetry_2
S1 O1 1_555 1_555
Ag1 N1 1_555 1_555
N1 N2 1_555 1_555
N2 H1 1_555 1_555
N3 Ag1 1_555 1_555
N4 N3 1_555 1_555
H2 N4 1_555 1_555
O2 S1 1_555 1_555
C1 H3 1_555 1_555
H4 C1 1_555 1_555
H5 C1 1_555 1_555
C2 N1 1_555 1_555
C3 C2 1_555 1_555
C4 N2 1_555 1_555
C5 C4 1_555 1_555
H6 C5 1_555 1_555
H7 C5 1_555 1_555
H8 C5 1_555 1_555
C6 H9 1_555 1_555
H10 C6 1_555 1_555
H11 C6 1_555 1_555
C7 N3 1_555 1_555
C8 C7 1_555 1_555
C9 N4 1_555 1_555
C10 C9 1_555 1_555
H12 C10 1_555 1_555
H13 C10 1_555 1_555
H14 C10 1_555 1_555
O3 H15 1_555 1_555
H16 O3 1_555 1_555
O4 H17 1_555 1_555
H18 O4 1_555 1_555
O1E S1 1_555 1_555
O2E S1 1_555 1_555
N1A N2A 1_555 1_555
N2A H1A 1_555 1_555
C1A H3A 1_555 1_555
H4A C1A 1_555 1_555
H5A C1A 1_555 1_555
C2A N1A 1_555 1_555
C3A C3 1_555 1_555
C4A N2A 1_555 1_555
C5A C4A 1_555 1_555
H6A C5A 1_555 1_555
H7A C5A 1_555 1_555
H8A C5A 1_555 1_555
N3B N4B 1_555 1_555
N4B H2B 1_555 1_555
C6B H9B 1_555 1_555
H10B C6B 1_555 1_555
H11B C6B 1_555 1_555
C7B N3B 1_555 1_555
C8B C8 1_555 1_555
C9B N4B 1_555 1_555
C10B C9B 1_555 1_555
H12B C10B 1_555 1_555
H13B C10B 1_555 1_555
H14B C10B 1_555 1_555
Ag1A N1A 1_555 1_555
Ag1B N3B 1_555 1_555
Ag1E O2E 1_555 1_555
N3A Ag1A 1_555 1_555
O2A Ag1A 1_555 1_555
Ag1 O2 1_555 1_555
C1 C2 1_555 1_555
C3 C4 1_555 1_555
C6 C7 1_555 1_555
C8 C9 1_555 1_555
C1A C2A 1_555 1_555
C2A C3A 1_555 1_555
C3A C4A 1_555 1_555
C6B C7B 1_555 1_555
C7B C8B 1_555 1_555
C8B C9B 1_555 1_555

#END
