
#######################################################################
#
#                 Cambridge Crystallographic Data Centre
#                                CCDC 
#
#######################################################################
#
# If this CIF has been generated from an entry in the Cambridge 
# Structural Database, then it will include bibliographic, chemical, 
# crystal, experimental, refinement or atomic coordinate data resulting 
# from the CCDC's data processing and validation procedures.
#
#######################################################################

data_XIWMUN
_symmetry_cell_setting           trigonal
_symmetry_space_group_name_H-M   'P 3 c 1'
_symmetry_Int_Tables_number      158
_space_group_name_Hall           'P 3 -2"c'
loop_
_symmetry_equiv_pos_site_id
_symmetry_equiv_pos_as_xyz
1 x,y,z
2 -y,x-y,z
3 -x+y,-x,z
4 -y,-x,1/2+z
5 -x+y,y,1/2+z
6 x,x-y,1/2+z
_cell_length_a                   20.0120(17)
_cell_length_b                   20.0120(17)
_cell_length_c                   25.273(3)
_cell_angle_alpha                90
_cell_angle_beta                 90
_cell_angle_gamma                120
_cell_volume                     8765.33
loop_
_atom_site_label
_atom_site_type_symbol
_atom_site_fract_x
_atom_site_fract_y
_atom_site_fract_z
S1 S 0.6667 0.3333 0.0591(6)
O1 O 0.5876(5) 0.3050(6) 0.0393(6)
O2 O 0.6667 0.3333 0.114(2)
O1A O 0.6950(6) 0.2826(8) 0.0393(6)
O1B O 0.7174(8) 0.4124(5) 0.0393(6)
O3 O 1.0000 0.0000 0.1203(10)
Ag1 Ag 0.83805(5) 0.17155(6) 0.07702(12)
Ag2 Ag 1.19121(9) 0.48236(10) -0.19243(11)
Ag3 Ag 0.38368(7) -0.12165(10) 0.30714(11)
N1 N 0.6770(6) 0.1702(7) 0.1148(5)
H1 H 0.6827 0.2053 0.0926
N2 N 0.8324(6) 0.3083(6) -0.0025(5)
H2 H 0.7849 0.2935 0.0040
N3 N 0.4739(7) -0.1157(8) 0.2067(6)
H3 H 0.4458 -0.1651 0.2046
C1 C 0.6205(6) 0.0704(6) 0.1640(6)
N4 N 0.8710(5) 0.2734(5) 0.0150(5)
C2 C 0.5242(8) -0.0772(7) 0.1726(6)
N5 N 0.7373(6) 0.1583(7) 0.1289(6)
C3 C 0.8812(7) 0.3712(9) -0.0324(7)
C4 C 0.9347(8) 0.3015(7) -0.0063(5)
C5 C 0.5538(7) -0.1021(8) 0.1269(6)
H4 H 0.5239 -0.1571 0.1233
H5 H 0.6069 -0.0871 0.1330
H6 H 0.5498 -0.0780 0.0952
C6 C 0.5561(7) -0.0012(6) 0.1896(5)
C7 C 0.5133(8) -0.0104(9) 0.2356(6)
N6 N 0.4661(7) -0.0762(8) 0.2463(6)
C8 C 0.6767(11) 0.0632(10) 0.0073(6)
H7 H 0.7005 0.1065 0.0310
H8 H 0.6305 0.0229 0.0232
H9 H 0.6640 0.0789 -0.0253
C9 C 0.9463(6) 0.3637(7) -0.0386(5)
C10 C 0.8528(11) 0.4176(9) -0.0550(7)
H10 H 0.8919 0.4565 -0.0771
H11 H 0.8398 0.4419 -0.0272
H12 H 0.8077 0.3857 -0.0757
N7 N 0.9348(8) 0.1864(7) 0.1305(6)
N8 N 1.1322(7) 0.5190(8) -0.0877(5)
H13 H 1.1741 0.5628 -0.0855
C11 C 0.9766(6) 0.2503(7) 0.1622(6)
C12 C 0.9334(8) 0.2838(10) 0.1887(7)
H14 H 0.8792 0.2512 0.1825
H15 H 0.9501 0.3343 0.1747
H16 H 0.9432 0.2874 0.2261
N9 N 0.8408(6) 0.0286(5) 0.0029(4)
H17 H 0.8861 0.0378 0.0119
C13 C 0.7344(6) 0.0327(5) -0.0041(3)
N10 N 0.8036(6) 0.0667(6) 0.0200(4)
C14 C 0.7925(6) -0.0255(6) -0.0306(4)
C15 C 0.7233(6) -0.0283(6) -0.0377(4)
C16 C 1.0775(6) 0.4911(6) -0.0507(4)
C17 C 1.1165(8) 0.3481(8) 0.1875(6)
C18 C 1.0890(9) 0.5421(8) -0.0044(6)
H18 H 1.1395 0.5868 -0.0061
H19 H 1.0840 0.5144 0.0277
H20 H 1.0508 0.5577 -0.0051
C19 C 1.0464(8) 0.4118(7) -0.1186(5)
C20 C 1.0181(6) 0.4198(6) -0.0695(4)
N11 N 1.1137(6) 0.4691(8) -0.1300(5)
C21 C 1.0553(6) 0.2785(7) 0.1623(5)
N12 N 1.2024(9) 0.4675(9) 0.2034(6)
H21 H 1.2314 0.5162 0.1981
N13 N 0.5360(7) -0.1788(7) -0.0906(5)
H22 H 0.4928 -0.2216 -0.0910
C22 C 1.1303(9) 0.4519(9) 0.1215(6)
H23 H 1.1571 0.5072 0.1230
H24 H 1.0760 0.4327 0.1172
H25 H 1.1491 0.4355 0.0922
N14 N 0.5632(7) -0.1213(7) -0.1281(4)
C23 C 1.0055(12) 0.3397(9) -0.1519(7)
H26 H 1.0350 0.3459 -0.1833
H27 H 0.9554 0.3311 -0.1616
H28 H 1.0000 0.2964 -0.1320
C24 C 1.1438(8) 0.4207(8) 0.1722(6)
C25 C 0.5800(8) -0.2038(7) -0.0049(5)
H29 H 0.5318 -0.2511 -0.0084
H30 H 0.5792 -0.1774 0.0266
H31 H 0.6213 -0.2149 -0.0027
C26 C 0.6676(13) 0.0000(12) -0.1500(7)
H32 H 0.6340 -0.0120 -0.1799
H33 H 0.7168 0.0079 -0.1616
H34 H 0.6745 0.0460 -0.1331
C27 C 0.5921(7) -0.1536(6) -0.0522(5)
C28 C 0.6358(9) -0.0601(9) -0.1146(5)
C29 C 0.9927(10) 0.2818(10) 0.0030(7)
H35 H 0.9736 0.2393 0.0273
H36 H 1.0375 0.3254 0.0178
H37 H 1.0063 0.2674 -0.0298
C30 C 1.1591(9) 0.3490(10) 0.2360(7)
C31 C 1.1381(8) 0.2228(11) 0.1196(7)
H38 H 1.1245 0.1772 0.0993
H39 H 1.1640 0.2222 0.1514
H40 H 1.1716 0.2676 0.0991
C32 C 1.0649(7) 0.2249(8) 0.1339(6)
C33 C 0.8181(11) -0.0771(9) -0.0556(6)
H41 H 0.8696 -0.0617 -0.0442
H42 H 0.8172 -0.0730 -0.0934
H43 H 0.7839 -0.1296 -0.0452
C34 C 0.6174(8) 0.1287(7) 0.1355(6)
C35 C 0.6993(6) 0.0930(8) 0.1637(6)
C36 C 0.7347(8) 0.0609(8) 0.1931(7)
H44 H 0.7887 0.0867 0.1848
H45 H 0.7118 0.0071 0.1846
H46 H 0.7280 0.0666 0.2301
N15 N 1.2105(8) 0.4313(8) 0.2422(6)
C37 C 0.6523(7) -0.0818(6) -0.0670(5)
C38 C 1.1504(10) 0.2813(10) 0.2663(8)
H47 H 1.1104 0.2346 0.2506
H48 H 1.1370 0.2846 0.3023
H49 H 1.1982 0.2809 0.2656
C39 C 0.5461(7) 0.1302(9) 0.1117(7)
H50 H 0.5629 0.1787 0.0944
H51 H 0.5106 0.1235 0.1395
H52 H 0.5209 0.0891 0.0864
C40 C 0.5172(12) 0.0579(11) 0.2646(10)
H53 H 0.4809 0.0396 0.2933
H54 H 0.5048 0.0873 0.2405
H55 H 0.5683 0.0900 0.2782
N16 N 0.9923(5) 0.1700(6) 0.1167(5)
H56 H 0.9836 0.1295 0.0992
Ag2D Ag 1.29115(13) 0.48236(10) 0.30757(11)
Ag3D Ag 0.49467(12) -0.12165(10) -0.19286(11)
N14D N 0.3155(10) -0.1213(7) 0.3719(4)
N15D N 1.2208(11) 0.4313(8) -0.2578(6)
S2? S 1.0000 0.0000 0.0576(4)
O4? O 0.9789(6) 0.0554(6) 0.0430(5)
loop_
_geom_bond_atom_site_label_1
_geom_bond_atom_site_label_2
_geom_bond_site_symmetry_1
_geom_bond_site_symmetry_2
Ag1 N4 1_555 1_555
Ag2 N11 1_555 1_555
Ag3 N6 1_555 1_555
N1 H1 1_555 1_555
N2 H2 1_555 1_555
N3 H3 1_555 1_555
C1 C6 1_555 1_555
N4 N2 1_555 1_555
C2 N3 1_555 1_555
N5 Ag1 1_555 1_555
C3 N2 1_555 1_555
C4 N4 1_555 1_555
C5 C2 1_555 1_555
H4 C5 1_555 1_555
H5 C5 1_555 1_555
H6 C5 1_555 1_555
C6 C2 1_555 1_555
C7 C6 1_555 1_555
N6 N3 1_555 1_555
C8 H7 1_555 1_555
H8 C8 1_555 1_555
H9 C8 1_555 1_555
C9 C3 1_555 1_555
C10 C3 1_555 1_555
H10 C10 1_555 1_555
H11 C10 1_555 1_555
H12 C10 1_555 1_555
N7 Ag1 1_555 1_555
N8 H13 1_555 1_555
C11 N7 1_555 1_555
C12 C11 1_555 1_555
H14 C12 1_555 1_555
H15 C12 1_555 1_555
H16 C12 1_555 1_555
N9 H17 1_555 1_555
C13 C8 1_555 1_555
N10 Ag1 1_555 1_555
C14 N9 1_555 1_555
C15 C13 1_555 1_555
C16 N8 1_555 1_555
C17 C21 1_555 1_555
C18 C16 1_555 1_555
H18 C18 1_555 1_555
H19 C18 1_555 1_555
H20 C18 1_555 1_555
C19 C20 1_555 1_555
C20 C9 1_555 1_555
N11 N8 1_555 1_555
C21 C11 1_555 1_555
N12 H21 1_555 1_555
N13 H22 1_555 1_555
C22 H23 1_555 1_555
H24 C22 1_555 1_555
H25 C22 1_555 1_555
N14 N13 1_555 1_555
C23 C19 1_555 1_555
H26 C23 1_555 1_555
H27 C23 1_555 1_555
H28 C23 1_555 1_555
C24 C17 1_555 1_555
C25 H29 1_555 1_555
H30 C25 1_555 1_555
H31 C25 1_555 1_555
C26 H32 1_555 1_555
H33 C26 1_555 1_555
H34 C26 1_555 1_555
C27 N13 1_555 1_555
C28 N14 1_555 1_555
C29 C4 1_555 1_555
H35 C29 1_555 1_555
H36 C29 1_555 1_555
H37 C29 1_555 1_555
C30 C17 1_555 1_555
C31 H38 1_555 1_555
H39 C31 1_555 1_555
H40 C31 1_555 1_555
C32 C21 1_555 1_555
C33 C14 1_555 1_555
H41 C33 1_555 1_555
H42 C33 1_555 1_555
H43 C33 1_555 1_555
C34 N1 1_555 1_555
C35 C1 1_555 1_555
C36 C35 1_555 1_555
H44 C36 1_555 1_555
H45 C36 1_555 1_555
H46 C36 1_555 1_555
N15 N12 1_555 1_555
C37 C15 1_555 1_555
C38 C30 1_555 1_555
H47 C38 1_555 1_555
H48 C38 1_555 1_555
H49 C38 1_555 1_555
C39 C34 1_555 1_555
H50 C39 1_555 1_555
H51 C39 1_555 1_555
H52 C39 1_555 1_555
C40 C7 1_555 1_555
H53 C40 1_555 1_555
H54 C40 1_555 1_555
H55 C40 1_555 1_555
N16 N7 1_555 1_555
H56 N16 1_555 1_555
S1 O1 1_555 1_555
O2 S1 1_555 1_555
Ag2D N15 1_555 1_555
Ag3D N14 1_555 1_555
N14D Ag3 1_555 1_555
N15D Ag2 1_555 1_555
O1A S1 1_555 1_555
O1B S1 1_555 1_555
N1 N5 1_555 1_555
C1 C34 1_555 1_555
N5 C35 1_555 1_555
C4 C9 1_555 1_555
C7 N6 1_555 1_555
N9 N10 1_555 1_555
C13 N10 1_555 1_555
C14 C15 1_555 1_555
C16 C20 1_555 1_555
C19 N11 1_555 1_555
N12 C24 1_555 1_555
C22 C24 1_555 1_555
C25 C27 1_555 1_555
C26 C28 1_555 1_555
C27 C37 1_555 1_555
C28 C37 1_555 1_555
C30 N15 1_555 1_555
C31 C32 1_555 1_555
C32 N16 1_555 1_555

#END
