
#######################################################################
#
#                 Cambridge Crystallographic Data Centre
#                                CCDC 
#
#######################################################################
#
# If this CIF has been generated from an entry in the Cambridge 
# Structural Database, then it will include bibliographic, chemical, 
# crystal, experimental, refinement or atomic coordinate data resulting 
# from the CCDC's data processing and validation procedures.
#
#######################################################################

data_XIWQEZ
_symmetry_cell_setting           monoclinic
_symmetry_space_group_name_H-M   'P 21/c'
_symmetry_Int_Tables_number      14
_space_group_name_Hall           '-P 2ybc'
loop_
_symmetry_equiv_pos_site_id
_symmetry_equiv_pos_as_xyz
1 x,y,z
2 -x,1/2+y,1/2-z
3 -x,-y,-z
4 x,1/2-y,1/2+z
_cell_length_a                   8.4689(6)
_cell_length_b                   16.0447(12)
_cell_length_c                   11.7307(8)
_cell_angle_alpha                90
_cell_angle_beta                 102.051(1)
_cell_angle_gamma                90
_cell_volume                     1558.85
loop_
_atom_site_label
_atom_site_type_symbol
_atom_site_fract_x
_atom_site_fract_y
_atom_site_fract_z
Ag1 Ag -0.1191(1) 0.0726(1) -0.1877(1)
C1 C -0.2141(5) -0.0270(3) -0.4238(3)
C2 C -0.1920(7) -0.0769(3) -0.5154(4)
C3 C -0.0567(6) -0.1250(3) -0.5023(4)
C4 C 0.0539(5) -0.1236(3) -0.3969(3)
C5 C 0.0230(4) -0.0729(2) -0.3098(3)
C6 C 0.1409(4) -0.0663(2) -0.1954(3)
N1 N 0.2809(3) -0.0355(2) -0.2038(2)
C7 C 0.3917(4) -0.0198(2) -0.1029(3)
C8 C 0.5381(4) 0.0158(2) -0.1094(3)
C9 C -0.2157(5) -0.1619(3) 0.0577(4)
C10 C -0.3236(5) -0.2033(3) -0.0268(5)
C11 C -0.2904(5) -0.2093(3) -0.1350(4)
C12 C -0.1513(4) -0.1738(2) -0.1585(4)
C13 C -0.0508(4) -0.1301(2) -0.0696(3)
C14 C 0.1032(4) -0.0881(2) -0.0840(3)
C15 C 0.3531(4) -0.0354(2) 0.0069(3)
N2 N -0.1074(4) -0.0242(2) -0.3214(2)
N3 N 0.7941(3) 0.0713(2) -0.0127(2)
N4 N 1.0821(3) 0.1251(2) -0.0371(3)
N5 N -0.2679(5) 0.2058(3) -0.3521(4)
O1 O -0.1335(4) 0.2068(2) -0.2908(3)
O2 O -0.3645(5) 0.1518(3) -0.3385(4)
O3 O -0.3011(6) 0.2573(4) -0.4274(7)
H1 H -0.3063 0.0059 -0.4334
H2 H -0.2685 -0.0777 -0.5850
H3 H -0.0388 -0.1583 -0.5632
H4 H 0.1468 -0.1561 -0.3855
H5 H 0.5635 0.0265 -0.1814
H6 H -0.2359 -0.1593 0.1325
H7 H -0.4170 -0.2266 -0.0105
H8 H -0.3613 -0.2374 -0.1937
H9 H -0.1261 -0.1790 -0.2316
C15B C 0.6469(4) 0.0354(2) -0.0069(3)
C7B C 0.6083(4) 0.0198(2) 0.1029(3)
N1B N 0.7191(3) 0.0355(2) 0.2038(2)
C6B C 0.8591(4) 0.0663(2) 0.1954(3)
C5B C 0.9770(4) 0.0729(2) 0.3098(3)
C4B C 0.9461(5) 0.1236(3) 0.3969(3)
C3B C 1.0567(6) 0.1250(3) 0.5023(4)
C2B C 1.1920(7) 0.0769(3) 0.5154(4)
C1B C 1.2141(5) 0.0270(3) 0.4238(3)
N2B N 1.1074(4) 0.0242(2) 0.3214(2)
Ag1B Ag 1.1191(1) -0.0726(1) 0.1877(1)
N3B N 1.2059(3) -0.0713(2) 0.0127(2)
N4B N 0.9179(3) -0.1251(2) 0.0371(3)
O1B O 1.1335(4) -0.2068(2) 0.2908(3)
N5B N 1.2679(5) -0.2058(3) 0.3521(4)
O2B O 1.3645(5) -0.1518(3) 0.3385(4)
O3B O 1.3011(6) -0.2573(4) 0.4274(7)
H1B H 1.3063 -0.0059 0.4334
H2B H 1.2685 0.0777 0.5850
H3B H 1.0388 0.1583 0.5632
H4B H 0.8532 0.1561 0.3855
C14B C 0.8968(4) 0.0881(2) 0.0840(3)
C13B C 1.0508(4) 0.1301(2) 0.0696(3)
C12B C 1.1513(4) 0.1738(2) 0.1585(4)
C11B C 1.2904(5) 0.2093(3) 0.1350(4)
C10B C 1.3236(5) 0.2033(3) 0.0268(5)
C9B C 1.2157(5) 0.1619(3) -0.0577(4)
N4_2 N 0.0821(3) 0.1251(2) -0.0371(3)
Ag1_2 Ag 0.8809(1) 0.0726(1) -0.1877(1)
N3_2 N -0.2059(3) 0.0713(2) -0.0127(2)
H6B H 1.2359 0.1593 -0.1325
H7B H 1.4170 0.2266 0.0105
H8B H 1.3613 0.2374 0.1937
H9B H 1.1261 0.1790 0.2316
C8B C 0.4619(4) -0.0158(2) 0.1094(3)
N4B_2 N -0.0821(3) -0.1251(2) 0.0371(3)
N3B_2 N 0.2059(3) -0.0713(2) 0.0127(2)
H5B H 0.4365 -0.0265 0.1814
Ag1B_2 Ag 0.1191(1) -0.0726(1) 0.1877(1)
loop_
_geom_bond_atom_site_label_1
_geom_bond_atom_site_label_2
_geom_bond_site_symmetry_1
_geom_bond_site_symmetry_2
Ag1 N2 1_555 1_555
C1 C2 1_555 1_555
C2 C3 1_555 1_555
C3 C4 1_555 1_555
C4 C5 1_555 1_555
C5 C6 1_555 1_555
C6 N1 1_555 1_555
N1 C7 1_555 1_555
C7 C8 1_555 1_555
C8 H5 1_555 1_555
C9 C10 1_555 1_555
C10 C11 1_555 1_555
C11 C12 1_555 1_555
C12 C13 1_555 1_555
C13 C14 1_555 1_555
C14 C6 1_555 1_555
C15 C7 1_555 1_555
N2 C1 1_555 1_555
N3 C15B 1_555 1_555
N4 C13B 1_555 1_555
N5 O1 1_555 1_555
O1 Ag1 1_555 1_555
O2 N5 1_555 1_555
O3 N5 1_555 1_555
H1 C1 1_555 1_555
H2 C2 1_555 1_555
H3 C3 1_555 1_555
H4 C4 1_555 1_555
H6 C9 1_555 1_555
H7 C10 1_555 1_555
H8 C11 1_555 1_555
H9 C12 1_555 1_555
C15B C8 1_555 1_555
C7B C15B 1_555 1_555
N1B C7B 1_555 1_555
C6B N1B 1_555 1_555
C5B C6B 1_555 1_555
C4B C5B 1_555 1_555
C3B C4B 1_555 1_555
C2B C3B 1_555 1_555
C1B C2B 1_555 1_555
N2B C5B 1_555 1_555
Ag1B N2B 1_555 1_555
N3B Ag1B 1_555 1_555
N4B Ag1B 1_555 1_555
O1B Ag1B 1_555 1_555
N5B O1B 1_555 1_555
O2B N5B 1_555 1_555
O3B N5B 1_555 1_555
H1B C1B 1_555 1_555
H2B C2B 1_555 1_555
H3B C3B 1_555 1_555
H4B C4B 1_555 1_555
C14B N3 1_555 1_555
C13B C14B 1_555 1_555
C12B C13B 1_555 1_555
C11B C12B 1_555 1_555
C10B C11B 1_555 1_555
C9B N4 1_555 1_555
N4_2 Ag1 1_555 1_555
Ag1_2 N3 1_555 1_555
N3_2 Ag1 1_555 1_555
H6B C9B 1_555 1_555
H7B C10B 1_555 1_555
H8B C11B 1_555 1_555
H9B C12B 1_555 1_555
C8B C15 1_555 1_555
N4B_2 C9 1_555 1_555
N3B_2 C14 1_555 1_555
H5B C8B 1_555 1_555
Ag1B_2 N4B_2 1_555 1_555
C5 N2 1_555 1_555
C13 N4B_2 1_555 1_555
C15 N3B_2 1_555 1_555
N4 Ag1_2 1_555 1_555
C7B C8B 1_555 1_555
C6B C14B 1_555 1_555
C1B N2B 1_555 1_555
C10B C9B 1_555 1_555
N3B_2 Ag1B_2 1_555 1_555

#END
