
#######################################################################
#
#                 Cambridge Crystallographic Data Centre
#                                CCDC 
#
#######################################################################
#
# If this CIF has been generated from an entry in the Cambridge 
# Structural Database, then it will include bibliographic, chemical, 
# crystal, experimental, refinement or atomic coordinate data resulting 
# from the CCDC's data processing and validation procedures.
#
#######################################################################

data_XIWQAV
_symmetry_cell_setting           monoclinic
_symmetry_space_group_name_H-M   'P 21/c'
_symmetry_Int_Tables_number      14
_space_group_name_Hall           '-P 2ybc'
loop_
_symmetry_equiv_pos_site_id
_symmetry_equiv_pos_as_xyz
1 x,y,z
2 -x,1/2+y,1/2-z
3 -x,-y,-z
4 x,1/2-y,1/2+z
_cell_length_a                   9.5836(8)
_cell_length_b                   13.4691(12)
_cell_length_c                   14.0423(12)
_cell_angle_alpha                90
_cell_angle_beta                 107.753(2)
_cell_angle_gamma                90
_cell_volume                     1726.3
loop_
_atom_site_label
_atom_site_type_symbol
_atom_site_fract_x
_atom_site_fract_y
_atom_site_fract_z
Ag1 Ag 0.1174(1) 0.3694(1) 0.0993(1)
C1 C 0.1912(5) 0.3554(3) 0.3334(3)
C2 C 0.1689(6) 0.3478(3) 0.4260(3)
C3 C 0.0432(5) 0.3842(3) 0.4380(3)
C4 C -0.0587(5) 0.4270(3) 0.3571(3)
C5 C -0.0298(4) 0.4324(3) 0.2663(3)
C6 C 0.1934(4) 0.6752(3) 0.0675(3)
C7 C 0.2838(5) 0.7000(3) 0.1607(4)
C8 C 0.2398(5) 0.6790(3) 0.2430(3)
C9 C 0.1096(4) 0.6293(3) 0.2292(3)
C10 C 0.0266(4) 0.6031(3) 0.1335(3)
C11 C -0.1177(4) 0.5500(3) 0.1128(3)
C12 C -0.1443(4) 0.4734(3) 0.1775(3)
N1 N -0.2741(3) 0.4339(2) 0.1620(2)
C13 C -0.3864(4) 0.4672(3) 0.0821(2)
C14 C -0.3603(4) 0.5383(3) 0.0143(3)
C15 C -0.5273(4) 0.4286(3) 0.0668(3)
N2 N 0.0944(3) 0.3968(2) 0.2534(2)
N3 N 0.0656(3) 0.6281(2) 0.0520(2)
N4 N -0.2202(3) 0.5776(2) 0.0322(2)
N5 N 0.2882(4) 0.1890(3) 0.2106(3)
O1 O 0.3450(4) 0.2582(3) 0.1786(3)
O2 O 0.3609(5) 0.1430(3) 0.2844(4)
O3 O 0.1569(4) 0.1713(4) 0.1716(3)
H1 H 0.2780 0.3305 0.3263
H2 H 0.2390 0.3181 0.4793
H3 H 0.0262 0.3804 0.4997
H4 H -0.1459 0.4519 0.3634
H5 H 0.2226 0.6919 0.0122
H6 H 0.3735 0.7305 0.1680
H7 H 0.2967 0.6980 0.3067
H8 H 0.0779 0.6134 0.2837
C14B C -0.6397(4) 0.4617(3) -0.0143(3)
C13B C -0.6136(4) 0.5328(3) -0.0821(2)
N1B N -0.7259(3) 0.5661(2) -0.1620(2)
C12B C -0.8557(4) 0.5266(3) -0.1775(3)
C5B C -0.9702(4) 0.5676(3) -0.2663(3)
C4B C -0.9413(5) 0.5730(3) -0.3571(3)
C3B C -1.0432(5) 0.6158(3) -0.4380(3)
C2B C -1.1689(6) 0.6522(3) -0.4260(3)
C1B C -1.1912(5) 0.6446(3) -0.3334(3)
N2B N -1.0944(3) 0.6032(2) -0.2534(2)
H1B H -1.2780 0.6695 -0.3263
H2B H -1.2390 0.6819 -0.4793
H3B H -1.0262 0.6196 -0.4997
H4B H -0.8541 0.5481 -0.3634
C11B C -0.8823(4) 0.4500(3) -0.1128(3)
C10B C -1.0266(4) 0.3969(3) -0.1335(3)
C9B C -1.1096(4) 0.3707(3) -0.2292(3)
C8B C -1.2398(5) 0.3210(3) -0.2430(3)
C7B C -1.2838(5) 0.3000(3) -0.1607(4)
C6B C -1.1934(4) 0.3248(3) -0.0675(3)
N3B N -1.0656(3) 0.3719(2) -0.0520(2)
H5B H -1.2226 0.3081 -0.0122
H6B H -1.3735 0.2695 -0.1680
H7B H -1.2967 0.3020 -0.3067
H8B H -1.0779 0.3866 -0.2837
N4B N -0.7798(3) 0.4224(2) -0.0322(2)
C15B C -0.4727(4) 0.5714(3) -0.0668(3)
Ag1B Ag -1.1174(1) 0.6306(1) -0.0993(1)
N5B N -1.2882(4) 0.8110(3) -0.2106(3)
O1B O -1.3450(4) 0.7418(3) -0.1786(3)
O2B O -1.3609(5) 0.8570(3) -0.2844(4)
O3B O -1.1569(4) 0.8287(4) -0.1716(3)
N3B_2 N -0.0656(3) 0.3719(2) -0.0520(2)
N4B_2 N 0.2202(3) 0.4224(2) -0.0322(2)
Ag1B_2 Ag -0.1174(1) 0.6306(1) -0.0993(1)
Ag1_2 Ag -0.8826(1) 0.3694(1) 0.0993(1)
N3_2 N -0.9344(3) 0.6281(2) 0.0520(2)
N4_2 N -1.2202(3) 0.5776(2) 0.0322(2)
N6 N 0.6406(13) 0.3852(7) 0.5038(6)
C16 C 0.5274(9) 0.4857(7) 0.3466(6)
C17 C 0.5910(9) 0.4281(6) 0.4355(6)
loop_
_geom_bond_atom_site_label_1
_geom_bond_atom_site_label_2
_geom_bond_site_symmetry_1
_geom_bond_site_symmetry_2
Ag1 N2 1_555 1_555
C1 C2 1_555 1_555
C2 C3 1_555 1_555
C3 C4 1_555 1_555
C4 C5 1_555 1_555
C5 C12 1_555 1_555
C6 C7 1_555 1_555
C7 C8 1_555 1_555
C8 C9 1_555 1_555
C9 C10 1_555 1_555
C10 C11 1_555 1_555
C11 C12 1_555 1_555
C12 N1 1_555 1_555
N1 C13 1_555 1_555
C13 C14 1_555 1_555
C14 N4 1_555 1_555
C15 C13 1_555 1_555
N2 C1 1_555 1_555
N3 C6 1_555 1_555
N4 C11 1_555 1_555
N5 O1 1_555 1_555
O1 Ag1 1_555 1_555
O2 N5 1_555 1_555
O3 N5 1_555 1_555
N6 C17 1_555 1_555
C16 C17 1_555 1_555
H1 C1 1_555 1_555
H2 C2 1_555 1_555
H3 C3 1_555 1_555
H4 C4 1_555 1_555
H5 C6 1_555 1_555
H6 C7 1_555 1_555
H7 C8 1_555 1_555
H8 C9 1_555 1_555
C14B C15 1_555 1_555
C13B C14B 1_555 1_555
N1B C13B 1_555 1_555
C12B N1B 1_555 1_555
C5B C12B 1_555 1_555
C4B C5B 1_555 1_555
C3B C4B 1_555 1_555
C2B C3B 1_555 1_555
C1B C2B 1_555 1_555
N2B C5B 1_555 1_555
H1B C1B 1_555 1_555
H2B C2B 1_555 1_555
H3B C3B 1_555 1_555
H4B C4B 1_555 1_555
C11B C12B 1_555 1_555
C10B C11B 1_555 1_555
C9B C10B 1_555 1_555
C8B C9B 1_555 1_555
C7B C8B 1_555 1_555
C6B C7B 1_555 1_555
N3B C10B 1_555 1_555
H5B C6B 1_555 1_555
H6B C7B 1_555 1_555
H7B C8B 1_555 1_555
H8B C9B 1_555 1_555
N4B C14B 1_555 1_555
C15B C14 1_555 1_555
Ag1B N2B 1_555 1_555
N5B O1B 1_555 1_555
O1B Ag1B 1_555 1_555
O2B N5B 1_555 1_555
O3B N5B 1_555 1_555
N3B_2 Ag1 1_555 1_555
N4B_2 Ag1 1_555 1_555
Ag1B_2 N3 1_555 1_555
Ag1_2 N3B 1_555 1_555
N3_2 Ag1B 1_555 1_555
N4_2 Ag1B 1_555 1_555
C5 N2 1_555 1_555
C10 N3 1_555 1_555
N4 Ag1B_2 1_555 1_555
C13B C15B 1_555 1_555
C1B N2B 1_555 1_555
C11B N4B 1_555 1_555
C6B N3B 1_555 1_555
N4B Ag1_2 1_555 1_555

#END
