
#######################################################################
#
#                 Cambridge Crystallographic Data Centre
#                                CCDC 
#
#######################################################################
#
# If this CIF has been generated from an entry in the Cambridge 
# Structural Database, then it will include bibliographic, chemical, 
# crystal, experimental, refinement or atomic coordinate data resulting 
# from the CCDC's data processing and validation procedures.
#
#######################################################################

data_XIWRAY
_symmetry_cell_setting           orthorhombic
_symmetry_space_group_name_H-M   'P n m a'
_symmetry_Int_Tables_number      62
_space_group_name_Hall           '-P 2ac 2n'
loop_
_symmetry_equiv_pos_site_id
_symmetry_equiv_pos_as_xyz
1 x,y,z
2 1/2-x,-y,1/2+z
3 1/2+x,1/2-y,1/2-z
4 -x,1/2+y,-z
5 -x,-y,-z
6 1/2+x,y,1/2-z
7 1/2-x,1/2+y,1/2+z
8 x,1/2-y,z
_cell_length_a                   16.5494(3)
_cell_length_b                   11.6163(2)
_cell_length_c                   10.5414(2)
_cell_angle_alpha                90
_cell_angle_beta                 90
_cell_angle_gamma                90
_cell_volume                     2026.51
loop_
_atom_site_label
_atom_site_type_symbol
_atom_site_fract_x
_atom_site_fract_y
_atom_site_fract_z
C1 C 0.2263(4) 0.250 0.4069(6)
C2 C 0.1386(4) 0.250 0.3576(6)
C3 C 0.3879(3) 0.0088(4) 0.1309(4)
C4 C 0.4715(3) -0.0343(4) 0.1700(4)
C5 C 0.5424(3) 0.0258(4) 0.5141(4)
O1 O 0.2327(3) 0.250 0.5291(4)
O2 O 0.0846(3) 0.250 0.4437(4)
O3 O 0.2823(3) 0.250 0.3319(5)
O4 O 0.1260(3) 0.250 0.2435(5)
O5 O 0.3396(2) -0.0753(3) 0.1032(3)
O6 O 0.4745(2) -0.1460(3) 0.1793(3)
O7 O 0.3711(2) 0.1110(3) 0.1273(4)
O8 O 0.5268(2) 0.0319(3) 0.1893(5)
O9 O 0.5620(2) 0.1193(3) 0.4694(4)
O10 O 0.5866(2) -0.0371(4) 0.5861(4)
O11 O 0.1726(3) 0.250 -0.2101(5)
O12 O 0.2357(2) 0.0297(4) -0.0732(4)
O13 O 0.3547(5) 0.250 -0.1267(10)
O14 O 0.4112(6) 0.250 0.5842(8)
Ba1 Ba 0.45982(2) 0.250 0.31070(4)
Ba2 Ba 0.22516(3) 0.250 0.04125(4)
Ta1 Ta 0.126075(14) 0.250 0.64104(2)
H1 H 0.634(4) -0.021(17) 0.571(19)
H2 H 0.185(3) 0.020(13) -0.085(17)
H3 H 0.338(9) 0.250 -0.203(6)
H4 H 0.404(3) 0.250 -0.108(13)
H5 H 0.3595(14) 0.250 0.590(14)
H6 H 0.442(7) 0.250 0.649(9)
H7 H 0.265(5) -0.016(8) -0.032(9)
C5D C 0.4576(3) -0.0258(4) 0.4859(4)
O9D O 0.4380(2) -0.1193(3) 0.5306(4)
O10D O 0.4134(2) 0.0371(4) 0.4139(4)
H1D H 0.366(4) 0.021(17) 0.429(19)
C3G C 0.3879(3) 0.4912(4) 0.1309(4)
C4G C 0.4715(3) 0.5343(4) 0.1700(4)
O5G O 0.3396(2) 0.5753(3) 0.1032(3)
O6G O 0.4745(2) 0.6460(3) 0.1793(3)
O7G O 0.3711(2) 0.3890(3) 0.1273(4)
O8G O 0.5268(2) 0.4681(3) 0.1893(5)
O12G O 0.2357(2) 0.4703(4) -0.0732(4)
H2G H 0.185(3) 0.480(13) -0.085(17)
H7G H 0.265(5) 0.516(8) -0.032(9)
O4B O 0.6260(3) 0.250 0.2565(5)
O5A O 0.1604(2) 0.0753(3) 0.6032(3)
O5F O 0.1604(2) 0.4247(3) 0.6032(3)
O6A O 0.0255(2) 0.1460(3) 0.6793(3)
O6F O 0.0255(2) 0.3540(3) 0.6793(3)
O9B O 0.0620(2) 0.3807(3) 0.0306(4)
O9E O 0.0620(2) 0.1193(3) 0.0306(4)
O9G O 0.5620(2) 0.3807(3) 0.4694(4)
O10C O 0.4134(2) 0.4629(4) 0.4139(4)
O11_2 O 0.1726(3) 0.250 0.7899(5)
Ba1B Ba -0.04018(2) 0.250 0.18930(4)
Ba1C Ba 0.54018(2) -0.250 0.68930(4)
Ba2A Ba 0.27484(3) -0.250 0.54125(4)
Ba2B Ba 0.72516(3) 0.250 0.45875(4)
Ta1_2 Ta 0.126075(14) 0.250 -0.35896(2)
Ta1A Ta 0.373925(14) -0.250 0.14104(2)
Ta1A_2 Ta 0.373925(14) 0.750 0.14104(2)
O15 O 0.3213(4) 0.0194(10) 0.7049(7)
H8 H 0.370(2) 0.015(10) 0.732(8)
H9 H 0.285(4) 0.029(11) 0.762(7)
loop_
_geom_bond_atom_site_label_1
_geom_bond_atom_site_label_2
_geom_bond_site_symmetry_1
_geom_bond_site_symmetry_2
C1 C2 1_555 1_555
C2 O2 1_555 1_555
C3 C4 1_555 1_555
C4 O6 1_555 1_555
C5 O9 1_555 1_555
O1 C1 1_555 1_555
O2 Ta1 1_555 1_555
O3 C1 1_555 1_555
O4 C2 1_555 1_555
O5 C3 1_555 1_555
O6 Ta1A 1_555 1_555
O7 C3 1_555 1_555
O8 C4 1_555 1_555
O9 Ba1 1_555 1_555
O10 C5 1_555 1_555
O11 Ba2 1_555 1_555
O12 Ba2 1_555 1_555
O13 Ba2 1_555 1_555
O14 Ba1 1_555 1_555
Ba1 O3 1_555 1_555
Ba2 O3 1_555 1_555
Ta1 O1 1_555 1_555
H1 O10 1_555 1_555
H2 O12 1_555 1_555
H3 O13 1_555 1_555
H4 O13 1_555 1_555
H5 O14 1_555 1_555
H6 O14 1_555 1_555
H7 O12 1_555 1_555
O15 H8 1_555 1_555
H9 O15 1_555 1_555
C5D C5 1_555 1_555
O9D C5D 1_555 1_555
O10D Ba1 1_555 1_555
H1D O10D 1_555 1_555
C3G C4G 1_555 1_555
C4G O6G 1_555 1_555
O5G C3G 1_555 1_555
O6G Ta1A_2 1_555 1_555
O7G Ba1 1_555 1_555
O8G Ba1 1_555 1_555
O12G Ba2 1_555 1_555
H2G O12G 1_555 1_555
H7G O12G 1_555 1_555
O4B Ba1 1_555 1_555
O5A Ta1 1_555 1_555
O5F Ta1 1_555 1_555
O6A Ta1 1_555 1_555
O6F Ta1 1_555 1_555
O9B Ba2 1_555 1_555
O9E Ba2 1_555 1_555
O9G Ba1 1_555 1_555
O10C Ba1 1_555 1_555
O11_2 Ta1 1_555 1_555
Ba1B O4 1_555 1_555
Ba1C O10 1_555 1_555
Ba2A O9D 1_555 1_555
Ba2B O9 1_555 1_555
Ta1_2 O11 1_555 1_555
Ta1A O5 1_555 1_555
Ta1A_2 O5G 1_555 1_555
O4 Ba2 1_555 1_555
O7 Ba1 1_555 1_555
O7 Ba2 1_555 1_555
O8 Ba1 1_555 1_555
Ba2 O7G 1_555 1_555
C5D O10D 1_555 1_555
O9D Ba1C 1_555 1_555
C3G O7G 1_555 1_555
C4G O8G 1_555 1_555
O4B Ba2B 1_555 1_555
O9B Ba1B 1_555 1_555
O9E Ba1B 1_555 1_555
O9G Ba2B 1_555 1_555

#END
