
#######################################################################
#
#                 Cambridge Crystallographic Data Centre
#                                CCDC 
#
#######################################################################
#
# If this CIF has been generated from an entry in the Cambridge 
# Structural Database, then it will include bibliographic, chemical, 
# crystal, experimental, refinement or atomic coordinate data resulting 
# from the CCDC's data processing and validation procedures.
#
#######################################################################

data_XIWSAX
_symmetry_cell_setting           monoclinic
_symmetry_space_group_name_H-M   'C 2/c'
_symmetry_Int_Tables_number      15
_space_group_name_Hall           '-C 2yn'
loop_
_symmetry_equiv_pos_site_id
_symmetry_equiv_pos_as_xyz
1 x,y,z
2 -x,y,1/2-z
3 1/2+x,1/2+y,z
4 1/2-x,1/2+y,1/2-z
5 -x,-y,-z
6 x,-y,1/2+z
7 1/2-x,1/2-y,-z
8 1/2+x,1/2-y,1/2+z
_cell_length_a                   21.952(4)
_cell_length_b                   8.0805(13)
_cell_length_c                   15.918(2)
_cell_angle_alpha                90
_cell_angle_beta                 110.689(4)
_cell_angle_gamma                90
_cell_volume                     2641.5
loop_
_atom_site_label
_atom_site_type_symbol
_atom_site_fract_x
_atom_site_fract_y
_atom_site_fract_z
Cu1 Cu 0.2656(1) -0.7276(1) 0.7089(4)
V1 V 0.3288(1) -0.3813(1) 0.5813(1)
P1 P 0.2713(1) -1.0496(1) 0.6222(1)
O1 O 0.2908(2) -0.4860(4) 0.6356(2)
O2 O 0.3252(2) -1.1570(5) 0.6041(3)
O3 O 0.4047(2) -0.4334(5) 0.6192(3)
O4 O 0.2067(2) -1.0809(5) 0.5401(2)
O5 O 0.2619(2) -1.1016(5) 0.7079(2)
O6 O 0.2908(2) -0.8679(4) 0.6260(2)
N1 N 0.3553(2) -0.7473(5) 0.8004(3)
N2 N 0.6729(2) -0.7690(5) 1.1230(3)
C1 C 0.4056(3) -0.6861(7) 0.7835(4)
C2 C 0.4687(3) -0.6856(7) 0.8458(4)
C3 C 0.4798(3) -0.7532(6) 0.9298(4)
C4 C 0.4265(3) -0.8167(6) 0.9474(4)
C5 C 0.3658(3) -0.8130(7) 0.8809(4)
C6 C 0.6224(3) -0.7381(7) 1.1489(4)
C7 C 0.5583(3) -0.7311(7) 1.0877(4)
C8 C 0.5465(3) -0.7586(6) 0.9976(4)
C9 C 0.5996(3) -0.7928(6) 0.9720(4)
C10 C 0.6617(3) -0.7954(6) 1.0361(4)
H1 H 0.4010(20) -0.6440(6) 0.7380(30)
H2 H 0.5130(40) -0.6430(90) 0.8280(50)
H3 H 0.4270(30) -0.8430(70) 1.0010(40)
H4 H 0.3320(30) -0.8550(60) 0.8850(30)
H5 H 0.6330(20) -0.7080(60) 1.2140(40)
H6 H 0.5240(30) -0.7030(60) 1.1120(40)
H7 H 0.5900(30) -0.8090(60) 0.9050(40)
H8 H 0.6990(30) -0.8140(60) 1.0180(30)
O4F O 0.2933(2) -0.4191(5) 0.4599(2)
O5C O 0.2381(2) -0.6016(5) 0.7921(2)
Cu1C Cu 0.2344(1) -1.2276(1) 0.7911(4)
V1_2 V 0.3288(1) -1.3813(1) 0.5813(1)
V1F V 0.1712(1) -1.1187(1) 0.4187(1)
Cu1G Cu 0.7656(1) -0.7724(1) 1.2089(4)
N2G N 0.1729(2) -0.7310(5) 0.6230(3)
O2_2 O 0.3252(2) -0.1570(5) 0.6041(3)
loop_
_geom_bond_atom_site_label_1
_geom_bond_atom_site_label_2
_geom_bond_site_symmetry_1
_geom_bond_site_symmetry_2
Cu1 O1 1_555 1_555
V1 O1 1_555 1_555
P1 O2 1_555 1_555
O2 V1_2 1_555 1_555
O3 V1 1_555 1_555
O4 P1 1_555 1_555
O5 P1 1_555 1_555
O6 Cu1 1_555 1_555
N1 Cu1 1_555 1_555
N2 C6 1_555 1_555
C1 N1 1_555 1_555
C2 C1 1_555 1_555
C3 C2 1_555 1_555
C4 C3 1_555 1_555
C5 N1 1_555 1_555
C6 C7 1_555 1_555
C7 C8 1_555 1_555
C8 C3 1_555 1_555
C9 C8 1_555 1_555
C10 N2 1_555 1_555
H1 C1 1_555 1_555
H2 C2 1_555 1_555
H3 C4 1_555 1_555
H4 C5 1_555 1_555
H5 C6 1_555 1_555
H6 C7 1_555 1_555
H7 C9 1_555 1_555
H8 C10 1_555 1_555
O4F V1 1_555 1_555
O5C Cu1 1_555 1_555
Cu1C O5 1_555 1_555
V1F O4 1_555 1_555
Cu1G N2 1_555 1_555
N2G Cu1 1_555 1_555
O2_2 V1 1_555 1_555
P1 O6 1_555 1_555
C4 C5 1_555 1_555
C9 C10 1_555 1_555

#END
