
#######################################################################
#
#                 Cambridge Crystallographic Data Centre
#                                CCDC 
#
#######################################################################
#
# If this CIF has been generated from an entry in the Cambridge 
# Structural Database, then it will include bibliographic, chemical, 
# crystal, experimental, refinement or atomic coordinate data resulting 
# from the CCDC's data processing and validation procedures.
#
#######################################################################

data_XIWSIF01
_symmetry_cell_setting           triclinic
_symmetry_space_group_name_H-M   'P -1'
_symmetry_Int_Tables_number      2
_space_group_name_Hall           '-P 1'
loop_
_symmetry_equiv_pos_site_id
_symmetry_equiv_pos_as_xyz
1 x,y,z
2 -x,-y,-z
_cell_length_a                   7.5774(9)
_cell_length_b                   8.9750(11)
_cell_length_c                   10.2287(13)
_cell_angle_alpha                69.014(2)
_cell_angle_beta                 84.164(2)
_cell_angle_gamma                77.826(2)
_cell_volume                     634.616
loop_
_atom_site_label
_atom_site_type_symbol
_atom_site_fract_x
_atom_site_fract_y
_atom_site_fract_z
Cu1 Cu 0.39010(6) 0.46359(5) 0.24528(4)
P1 P 0.73446(12) 0.38454(12) 0.07259(9)
V1 V 0.84673(8) 0.72769(7) -0.09086(6)
O1 O 0.6167(3) 0.3396(3) 0.2043(2)
O2 O 0.7959(3) 0.5472(3) 0.0535(2)
O3 O 0.9118(3) 0.2553(3) 0.0954(3)
O4 O 0.6482(3) 0.3936(3) -0.0567(2)
O5 O 0.2080(4) 0.2825(3) 0.2370(3)
O6 O 0.7305(4) 0.8890(3) -0.0703(3)
N1 N 0.4148(4) 0.3385(4) 0.4487(3)
N2 N 0.2174(4) 0.6181(4) 0.3220(3)
C1 C 0.5167(5) 0.1910(5) 0.5030(4)
H1 H 0.5837 0.1428 0.4424
C2 C 0.5266(5) 0.1075(5) 0.6451(4)
H2 H 0.5960 0.0038 0.6797
C3 C 0.4312(6) 0.1812(5) 0.7347(4)
H3 H 0.4371 0.1287 0.8311
C4 C 0.3267(5) 0.3341(5) 0.6792(4)
H4 H 0.2624 0.3859 0.7383
C5 C 0.3180(5) 0.4097(5) 0.5359(4)
C6 C 0.2057(5) 0.5697(5) 0.4639(4)
C7 C 0.0972(5) 0.6656(5) 0.5321(4)
H5 H 0.0909 0.6316 0.6294
C8 C -0.0006(5) 0.8113(5) 0.4530(5)
H6 H -0.0760 0.8763 0.4970
C9 C 0.0114(5) 0.8626(5) 0.3094(5)
H7 H -0.0543 0.9621 0.2555
C10 C 0.1230(5) 0.7632(5) 0.2471(4)
H8 H 0.1332 0.7978 0.1499
Cu1A Cu 0.60990(6) 0.53641(5) -0.24528(4)
V1A V 1.15327(8) 0.27231(7) 0.09086(6)
V1A_2 V 0.15327(8) 0.27231(7) 0.09086(6)
O3A O 1.0882(3) 0.7447(3) -0.0954(3)
O4A O 0.3518(3) 0.6064(3) 0.0567(2)
O5A O 0.7920(4) 0.7175(3) -0.2370(3)
loop_
_geom_bond_atom_site_label_1
_geom_bond_atom_site_label_2
_geom_bond_site_symmetry_1
_geom_bond_site_symmetry_2
Cu1 O1 1_555 1_555
P1 O1 1_555 1_555
V1 O2 1_555 1_555
O2 P1 1_555 1_555
O3 P1 1_555 1_555
O4 P1 1_555 1_555
O5 Cu1 1_555 1_555
O6 V1 1_555 1_555
N1 Cu1 1_555 1_555
N2 Cu1 1_555 1_555
C1 N1 1_555 1_555
H1 C1 1_555 1_555
C2 C1 1_555 1_555
H2 C2 1_555 1_555
C3 C2 1_555 1_555
H3 C3 1_555 1_555
C4 C3 1_555 1_555
H4 C4 1_555 1_555
C5 N1 1_555 1_555
C6 N2 1_555 1_555
C7 C6 1_555 1_555
H5 C7 1_555 1_555
C8 C7 1_555 1_555
H6 C8 1_555 1_555
C9 C8 1_555 1_555
H7 C9 1_555 1_555
C10 N2 1_555 1_555
H8 C10 1_555 1_555
Cu1A O4 1_555 1_555
V1A O3 1_555 1_555
V1A_2 O5 1_555 1_555
O3A V1 1_555 1_555
O4A Cu1 1_555 1_555
O5A V1 1_555 1_555
C4 C5 1_555 1_555
C5 C6 1_555 1_555
C9 C10 1_555 1_555
Cu1A O5A 1_555 1_555

#END
