
#######################################################################
#
#                 Cambridge Crystallographic Data Centre
#                                CCDC 
#
#######################################################################
#
# If this CIF has been generated from an entry in the Cambridge 
# Structural Database, then it will include bibliographic, chemical, 
# crystal, experimental, refinement or atomic coordinate data resulting 
# from the CCDC's data processing and validation procedures.
#
#######################################################################

data_XIWSIF02
_symmetry_cell_setting           triclinic
_symmetry_space_group_name_H-M   'P -1'
_symmetry_Int_Tables_number      2
_space_group_name_Hall           '-P 1'
loop_
_symmetry_equiv_pos_site_id
_symmetry_equiv_pos_as_xyz
1 x,y,z
2 -x,-y,-z
_cell_length_a                   5.5358(2)
_cell_length_b                   10.2543(3)
_cell_length_c                   11.7505(4)
_cell_angle_alpha                74.431(1)
_cell_angle_beta                 79.871(1)
_cell_angle_gamma                85.717(2)
_cell_volume                     632.271
loop_
_atom_site_label
_atom_site_type_symbol
_atom_site_fract_x
_atom_site_fract_y
_atom_site_fract_z
Cu1 Cu 0.83836(4) 0.61995(2) 0.161779(18)
V1 V 1.35191(5) 0.69636(3) -0.24156(3)
P1 P 0.81926(8) 0.61010(4) -0.10754(4)
O1 O 1.0478(2) 0.70224(13) -0.14677(12)
O2 O 0.7486(2) 0.57569(14) 0.02650(12)
N1 N 0.5775(3) 0.76486(16) 0.16077(14)
N2 N 0.9084(3) 0.68587(16) 0.29753(14)
C1 C 0.2473(4) 0.9785(2) 0.1667(2)
H1 H 0.1379 1.0518 0.1672
C2 C 0.7726(4) 0.8369(2) 0.4199(2)
H2 H 0.6671 0.9065 0.4371
C3 C 0.5762(4) 0.83623(19) 0.24190(18)
C4 C 0.2464(4) 0.9020(2) 0.0868(2)
H3 H 0.1337 0.9217 0.0340
C5 C 0.4149(4) 0.7955(2) 0.08584(18)
H4 H 0.4147 0.7441 0.0316
C6 C 0.7566(4) 0.78735(19) 0.32363(18)
C7 C 0.9486(5) 0.7812(3) 0.4907(2)
H5 H 0.9607 0.8121 0.5569
C8 C 0.4127(4) 0.9452(2) 0.2459(2)
H6 H 0.4147 0.9949 0.3013
C9 C 1.1054(4) 0.6798(2) 0.46275(19)
H7 H 1.2266 0.6426 0.5087
C10 C 1.0796(4) 0.6341(2) 0.36516(18)
H8 H 1.1848 0.5653 0.3461
O3 O 0.6101(2) 0.70153(13) -0.16339(12)
O4 O 0.8638(2) 0.48868(13) -0.15893(12)
O5 O 1.3742(3) 0.56477(13) -0.29554(12)
O6 O 1.3643(3) 0.83005(14) -0.35219(13)
Cu1A Cu 1.16164(4) 0.38005(2) -0.161779(18)
V1_2 V 0.35191(5) 0.69636(3) -0.24156(3)
O3_2 O 1.6101(2) 0.70153(13) -0.16339(12)
O4A O 1.1362(2) 0.51132(13) 0.15893(12)
O5A O 0.6258(3) 0.43523(13) 0.29554(12)
loop_
_geom_bond_atom_site_label_1
_geom_bond_atom_site_label_2
_geom_bond_site_symmetry_1
_geom_bond_site_symmetry_2
Cu1 O2 1_555 1_555
V1 O1 1_555 1_555
P1 O1 1_555 1_555
O2 P1 1_555 1_555
N1 Cu1 1_555 1_555
N2 Cu1 1_555 1_555
C1 H1 1_555 1_555
C2 H2 1_555 1_555
C3 N1 1_555 1_555
C4 C1 1_555 1_555
H3 C4 1_555 1_555
C5 N1 1_555 1_555
H4 C5 1_555 1_555
C6 N2 1_555 1_555
C7 C2 1_555 1_555
H5 C7 1_555 1_555
C8 C1 1_555 1_555
H6 C8 1_555 1_555
C9 C7 1_555 1_555
H7 C9 1_555 1_555
C10 N2 1_555 1_555
H8 C10 1_555 1_555
O3 P1 1_555 1_555
O4 P1 1_555 1_555
O5 V1 1_555 1_555
O6 V1 1_555 1_555
Cu1A O4 1_555 1_555
V1_2 O3 1_555 1_555
O3_2 V1 1_555 1_555
O4A Cu1 1_555 1_555
O5A Cu1 1_555 1_555
C2 C6 1_555 1_555
C3 C6 1_555 1_555
C3 C8 1_555 1_555
C4 C5 1_555 1_555
C9 C10 1_555 1_555
O5 Cu1A 1_555 1_555

#END
