
#######################################################################
#
#                 Cambridge Crystallographic Data Centre
#                                CCDC 
#
#######################################################################
#
# If this CIF has been generated from an entry in the Cambridge 
# Structural Database, then it will include bibliographic, chemical, 
# crystal, experimental, refinement or atomic coordinate data resulting 
# from the CCDC's data processing and validation procedures.
#
#######################################################################

data_XIWSEB
_symmetry_cell_setting           monoclinic
_symmetry_space_group_name_H-M   'C 2/c'
_symmetry_Int_Tables_number      15
_space_group_name_Hall           '-C 2yn'
loop_
_symmetry_equiv_pos_site_id
_symmetry_equiv_pos_as_xyz
1 x,y,z
2 -x,y,1/2-z
3 1/2+x,1/2+y,z
4 1/2-x,1/2+y,1/2-z
5 -x,-y,-z
6 x,-y,1/2+z
7 1/2-x,1/2-y,-z
8 1/2+x,1/2-y,1/2+z
_cell_length_a                   20.4557(12)
_cell_length_b                   11.6231(7)
_cell_length_c                   14.6422(8)
_cell_angle_alpha                90
_cell_angle_beta                 127.5520(10)
_cell_angle_gamma                90
_cell_volume                     2759.98
loop_
_atom_site_label
_atom_site_type_symbol
_atom_site_fract_x
_atom_site_fract_y
_atom_site_fract_z
Cu1 Cu 0.4655(1) -0.1903(1) 0.0438(1)
V1 V 0.6235(1) -0.0396(1) -0.0859(1)
P1 P 0.4453(1) -0.0456(1) -0.1530(1)
O1 O 0.4121(2) -0.1045(2) -0.0974(2)
O2 O 0.4478(2) 0.0844(2) -0.1441(2)
O3 O 0.5328(2) -0.0949(2) -0.1011(2)
O4 O 0.3698(2) -0.0995(2) 0.0682(3)
O5 O 0.3889(2) -0.0810(2) -0.2821(2)
O6 O 0.7050(2) -0.0998(2) 0.0225(3)
N1 N 0.3862(2) -0.3209(2) -0.0417(3)
N2 N 0.5332(2) -0.3163(2) 0.1593(3)
C1 C 0.3121(3) -0.3182(4) -0.1411(4)
C2 C 0.2642(3) -0.4177(4) -0.1911(5)
C3 C 0.2953(3) -0.5213(4) -0.1374(4)
C4 C 0.3752(2) -0.5279(3) -0.0331(4)
C5 C 0.4177(2) -0.4239(3) 0.0115(3)
C6 C 0.4983(2) -0.4223(3) 0.1193(3)
C7 C 0.5375(3) -0.5242(3) 0.1778(4)
C8 C 0.6168(3) -0.5146(4) 0.2821(4)
C9 C 0.6517(3) -0.4087(4) 0.3242(4)
C10 C 0.6074(3) -0.3108(4) 0.2599(4)
C11 C 0.4154(3) -0.6318(3) 0.0282(4)
C12 C 0.4928(3) -0.6302(3) 0.1276(4)
H1 H 0.2920(30) -0.2440(40) -0.1840(40)
H2 H 0.2250(30) -0.4120(40) -0.2490(40)
H3 H 0.2650(30) -0.5820(40) -0.1700(50)
H4 H 0.6460(30) -0.5720(40) 0.3200(40)
H5 H 0.7020(30) -0.3980(40) 0.3870(40)
H6 H 0.6310(20) -0.2450(40) 0.2900(40)
H7 H 0.3860(30) -0.7020(40) -0.0070(50)
H8 H 0.5210(30) -0.6940(30) 0.1720(40)
O2D O 0.5522(2) -0.0844(2) 0.1441(2)
Cu1D Cu 0.5345(1) 0.1903(1) -0.0438(1)
V1D V 0.3765(1) 0.0396(1) 0.0859(1)
O4D O 0.6302(2) 0.0995(2) -0.0682(3)
O5A O 0.6111(2) -0.0810(2) -0.2179(2)
V1A V 0.3765(1) -0.0396(1) -0.4141(1)
loop_
_geom_bond_atom_site_label_1
_geom_bond_atom_site_label_2
_geom_bond_site_symmetry_1
_geom_bond_site_symmetry_2
Cu1 O1 1_555 1_555
V1 O3 1_555 1_555
P1 O1 1_555 1_555
O2 P1 1_555 1_555
O3 P1 1_555 1_555
O4 Cu1 1_555 1_555
O5 P1 1_555 1_555
O6 V1 1_555 1_555
N1 Cu1 1_555 1_555
N2 Cu1 1_555 1_555
C1 N1 1_555 1_555
C2 C1 1_555 1_555
C3 C2 1_555 1_555
C4 C3 1_555 1_555
C5 N1 1_555 1_555
C6 N2 1_555 1_555
C7 C6 1_555 1_555
C8 C7 1_555 1_555
C9 C8 1_555 1_555
C10 N2 1_555 1_555
C11 C4 1_555 1_555
C12 C7 1_555 1_555
H1 C1 1_555 1_555
H2 C2 1_555 1_555
H3 C3 1_555 1_555
H4 C8 1_555 1_555
H5 C9 1_555 1_555
H6 C10 1_555 1_555
H7 C11 1_555 1_555
H8 C12 1_555 1_555
O2D Cu1 1_555 1_555
Cu1D O2 1_555 1_555
V1D O4 1_555 1_555
O4D V1 1_555 1_555
O5A V1 1_555 1_555
V1A O5 1_555 1_555
C4 C5 1_555 1_555
C5 C6 1_555 1_555
C9 C10 1_555 1_555
C11 C12 1_555 1_555
Cu1D O4D 1_555 1_555

#END
