
#######################################################################
#
#                 Cambridge Crystallographic Data Centre
#                                CCDC 
#
#######################################################################
#
# If this CIF has been generated from an entry in the Cambridge 
# Structural Database, then it will include bibliographic, chemical, 
# crystal, experimental, refinement or atomic coordinate data resulting 
# from the CCDC's data processing and validation procedures.
#
#######################################################################

data_XIWWEH
_symmetry_cell_setting           tetragonal
_symmetry_space_group_name_H-M   'P 4/n n c'
_symmetry_Int_Tables_number      126
_space_group_name_Hall           '-P 4a 2bc'
loop_
_symmetry_equiv_pos_site_id
_symmetry_equiv_pos_as_xyz
1 x,y,z
2 1/2-x,1/2-y,z
3 1/2-y,x,z
4 y,1/2-x,z
5 1/2-x,y,1/2-z
6 x,1/2-y,1/2-z
7 y,x,1/2-z
8 1/2-y,1/2-x,1/2-z
9 -x,-y,-z
10 1/2+x,1/2+y,-z
11 1/2+y,-x,-z
12 -y,1/2+x,-z
13 1/2+x,-y,1/2+z
14 -x,1/2+y,1/2+z
15 -y,-x,1/2+z
16 1/2+y,1/2+x,1/2+z
_cell_length_a                   20.0126(3)
_cell_length_b                   20.0126(3)
_cell_length_c                   10.3775(3)
_cell_angle_alpha                90
_cell_angle_beta                 90
_cell_angle_gamma                90
_cell_volume                     4156.23
loop_
_atom_site_label
_atom_site_type_symbol
_atom_site_fract_x
_atom_site_fract_y
_atom_site_fract_z
C1 C 0.69207(11) 0.35471(12) 0.4231(3)
H1 H 0.7338 0.3704 0.4483
C2 C 0.63068(12) 0.38057(14) 0.4692(3)
H2 H 0.6250 0.4146 0.5291
C3 C 0.58165(11) 0.34553(11) 0.4081(3)
H3 H 0.5358 0.3515 0.4179
C4 C 0.61356(9) 0.29806(10) 0.3266(2)
C5 C 0.58278(12) 0.2500 0.2500
C6 C 0.50798(12) 0.2500 0.2500
C7 C 0.47219(12) 0.2821(2) 0.1594(3)
H4 H 0.4941 0.3050 0.0938
C8 C 0.40237(12) 0.2814(2) 0.1631(3)
H5 H 0.3792 0.3046 0.0997
N1 N 0.68284(8) 0.30559(8) 0.34013(19)
N2 N 0.36841(10) 0.2500 0.2500
Cl1 Cl 0.2500 0.2500 0.49989(10)
Zn1 Zn 0.7500 0.2500 0.2500
Cd1 Cd 0.2500 0.2500 0.2500
C1E C 0.69207(11) 0.14529(12) 0.0769(3)
H1E H 0.7338 0.1296 0.0517
C2E C 0.63068(12) 0.11943(14) 0.0308(3)
H2E H 0.6250 0.0854 -0.0291
C3E C 0.58165(11) 0.15447(11) 0.0919(3)
H3E H 0.5358 0.1485 0.0821
C4E C 0.61356(9) 0.20194(10) 0.1734(2)
C7E C 0.47219(12) 0.2179(2) 0.3406(3)
H4E H 0.4941 0.1950 0.4062
C8E C 0.40237(12) 0.2186(2) 0.3369(3)
H5E H 0.3792 0.1954 0.4003
N1E N 0.68284(8) 0.19441(8) 0.15987(19)
C1A C -0.19207(11) 0.14529(12) 0.4231(3)
H1A H -0.2338 0.1296 0.4483
C2A C -0.13068(12) 0.11943(14) 0.4692(3)
H2A H -0.1250 0.0854 0.5291
C3A C -0.08165(11) 0.15447(11) 0.4081(3)
H3A H -0.0358 0.1485 0.4179
C4A C -0.11356(9) 0.20194(10) 0.3266(2)
C5A C -0.08278(12) 0.2500 0.2500
C6A C -0.00798(12) 0.2500 0.2500
C7A C 0.02781(12) 0.2179(2) 0.1594(3)
H4A H 0.0059 0.1950 0.0938
C8A C 0.09763(12) 0.2186(2) 0.1631(3)
H5A H 0.1208 0.1954 0.0997
N1A N -0.18284(8) 0.19441(8) 0.34013(19)
N2A N 0.13159(10) 0.2500 0.2500
Zn1_2 Zn -0.2500 0.2500 0.2500
C1D C -0.19207(11) 0.35471(12) 0.0769(3)
H1D H -0.2338 0.3704 0.0517
C2D C -0.13068(12) 0.38057(14) 0.0308(3)
H2D H -0.1250 0.4146 -0.0291
C3D C -0.08165(11) 0.34553(11) 0.0919(3)
H3D H -0.0358 0.3515 0.0821
C4D C -0.11356(9) 0.29806(10) 0.1734(2)
C7D C 0.02781(12) 0.2821(2) 0.3406(3)
H4D H 0.0059 0.3050 0.4062
C8D C 0.09763(12) 0.2814(2) 0.3369(3)
H5D H 0.1208 0.3046 0.4003
N1D N -0.18284(8) 0.30559(8) 0.15987(19)
C1B C 0.14529(12) 0.69207(11) 0.4231(3)
H1B H 0.1296 0.7338 0.4483
C2B C 0.11943(14) 0.63068(12) 0.4692(3)
H2B H 0.0854 0.6250 0.5291
C3B C 0.15447(11) 0.58165(11) 0.4081(3)
H3B H 0.1485 0.5358 0.4179
C4B C 0.20194(10) 0.61356(9) 0.3266(2)
C5B C 0.2500 0.58278(12) 0.2500
C6B C 0.2500 0.50798(12) 0.2500
C7B C 0.2179(2) 0.47219(12) 0.1594(3)
H4B H 0.1950 0.4941 0.0938
C8B C 0.2186(2) 0.40237(12) 0.1631(3)
H5B H 0.1954 0.3792 0.0997
N1B N 0.19441(8) 0.68284(8) 0.34013(19)
N2B N 0.2500 0.36841(10) 0.2500
C1F C 0.35471(12) 0.69207(11) 0.0769(3)
H1F H 0.3704 0.7338 0.0517
C2F C 0.38057(14) 0.63068(12) 0.0308(3)
H2F H 0.4146 0.6250 -0.0291
C3F C 0.34553(11) 0.58165(11) 0.0919(3)
H3F H 0.3515 0.5358 0.0821
C4F C 0.29806(10) 0.61356(9) 0.1734(2)
C7F C 0.2821(2) 0.47219(12) 0.3406(3)
H4F H 0.3050 0.4941 0.4062
C8F C 0.2814(2) 0.40237(12) 0.3369(3)
H5F H 0.3046 0.3792 0.4003
N1F N 0.30559(8) 0.68284(8) 0.15987(19)
C1C C 0.35471(12) -0.19207(11) 0.4231(3)
H1C H 0.3704 -0.2338 0.4483
C2C C 0.38057(14) -0.13068(12) 0.4692(3)
H2C H 0.4146 -0.1250 0.5291
C3C C 0.34553(11) -0.08165(11) 0.4081(3)
H3C H 0.3515 -0.0358 0.4179
C4C C 0.29806(10) -0.11356(9) 0.3266(2)
C5C C 0.2500 -0.08278(12) 0.2500
C6C C 0.2500 -0.00798(12) 0.2500
C7C C 0.2821(2) 0.02781(12) 0.1594(3)
H4C H 0.3050 0.0059 0.0938
C8C C 0.2814(2) 0.09763(12) 0.1631(3)
H5C H 0.3046 0.1208 0.0997
N1C N 0.30559(8) -0.18284(8) 0.34013(19)
N2C N 0.2500 0.13159(10) 0.2500
C1G C 0.14529(12) -0.19207(11) 0.0769(3)
H1G H 0.1296 -0.2338 0.0517
C2G C 0.11943(14) -0.13068(12) 0.0308(3)
H2G H 0.0854 -0.1250 -0.0291
C3G C 0.15447(11) -0.08165(11) 0.0919(3)
H3G H 0.1485 -0.0358 0.0821
C4G C 0.20194(10) -0.11356(9) 0.1734(2)
C7G C 0.2179(2) 0.02781(12) 0.3406(3)
H4G H 0.1950 0.0059 0.4062
C8G C 0.2186(2) 0.09763(12) 0.3369(3)
H5G H 0.1954 0.1208 0.4003
N1G N 0.19441(8) -0.18284(8) 0.15987(19)
Cl1D Cl 0.2500 0.2500 0.00011(10)
N1_2 N -0.31716(8) 0.30559(8) 0.34013(19)
N1A_2 N 0.81716(8) 0.19441(8) 0.34013(19)
N1D_2 N 0.81716(8) 0.30559(8) 0.15987(19)
N1E_2 N -0.31716(8) 0.19441(8) 0.15987(19)
Zn1B Zn 0.2500 -0.2500 0.2500
Zn1B_2 Zn 0.2500 0.7500 0.2500
loop_
_geom_bond_atom_site_label_1
_geom_bond_atom_site_label_2
_geom_bond_site_symmetry_1
_geom_bond_site_symmetry_2
C1 H1 1_555 1_555
C2 C1 1_555 1_555
H2 C2 1_555 1_555
C3 C2 1_555 1_555
H3 C3 1_555 1_555
C4 C3 1_555 1_555
C5 C4 1_555 1_555
C6 C5 1_555 1_555
C7 C6 1_555 1_555
H4 C7 1_555 1_555
C8 C7 1_555 1_555
H5 C8 1_555 1_555
N1 C1 1_555 1_555
N2 C8 1_555 1_555
Cl1 Cd1 1_555 1_555
Zn1 N1 1_555 1_555
Cd1 N2 1_555 1_555
C1E H1E 1_555 1_555
C2E C1E 1_555 1_555
H2E C2E 1_555 1_555
C3E C2E 1_555 1_555
H3E C3E 1_555 1_555
C4E C5 1_555 1_555
C7E C6 1_555 1_555
H4E C7E 1_555 1_555
C8E N2 1_555 1_555
H5E C8E 1_555 1_555
N1E Zn1 1_555 1_555
C1A H1A 1_555 1_555
C2A C1A 1_555 1_555
H2A C2A 1_555 1_555
C3A C2A 1_555 1_555
H3A C3A 1_555 1_555
C4A C3A 1_555 1_555
C5A C4A 1_555 1_555
C6A C5A 1_555 1_555
C7A C6A 1_555 1_555
H4A C7A 1_555 1_555
C8A C7A 1_555 1_555
H5A C8A 1_555 1_555
N1A C1A 1_555 1_555
N2A Cd1 1_555 1_555
Zn1_2 N1A 1_555 1_555
C1D H1D 1_555 1_555
C2D C1D 1_555 1_555
H2D C2D 1_555 1_555
C3D C2D 1_555 1_555
H3D C3D 1_555 1_555
C4D C5A 1_555 1_555
C7D C6A 1_555 1_555
H4D C7D 1_555 1_555
C8D N2A 1_555 1_555
H5D C8D 1_555 1_555
N1D Zn1_2 1_555 1_555
C1B H1B 1_555 1_555
C2B C1B 1_555 1_555
H2B C2B 1_555 1_555
C3B C2B 1_555 1_555
H3B C3B 1_555 1_555
C4B C3B 1_555 1_555
C5B C4B 1_555 1_555
C6B C5B 1_555 1_555
C7B C6B 1_555 1_555
H4B C7B 1_555 1_555
C8B C7B 1_555 1_555
H5B C8B 1_555 1_555
N1B C1B 1_555 1_555
N2B Cd1 1_555 1_555
C1F H1F 1_555 1_555
C2F C1F 1_555 1_555
H2F C2F 1_555 1_555
C3F C2F 1_555 1_555
H3F C3F 1_555 1_555
C4F C5B 1_555 1_555
C7F C6B 1_555 1_555
H4F C7F 1_555 1_555
C8F N2B 1_555 1_555
H5F C8F 1_555 1_555
N1F C1F 1_555 1_555
C1C H1C 1_555 1_555
C2C C1C 1_555 1_555
H2C C2C 1_555 1_555
C3C C2C 1_555 1_555
H3C C3C 1_555 1_555
C4C C3C 1_555 1_555
C5C C4C 1_555 1_555
C6C C5C 1_555 1_555
C7C C6C 1_555 1_555
H4C C7C 1_555 1_555
C8C C7C 1_555 1_555
H5C C8C 1_555 1_555
N1C C1C 1_555 1_555
N2C Cd1 1_555 1_555
C1G H1G 1_555 1_555
C2G C1G 1_555 1_555
H2G C2G 1_555 1_555
C3G C2G 1_555 1_555
H3G C3G 1_555 1_555
C4G C5C 1_555 1_555
C7G C6C 1_555 1_555
H4G C7G 1_555 1_555
C8G N2C 1_555 1_555
H5G C8G 1_555 1_555
N1G C1G 1_555 1_555
Cl1D Cd1 1_555 1_555
N1_2 Zn1_2 1_555 1_555
N1A_2 Zn1 1_555 1_555
N1D_2 Zn1 1_555 1_555
N1E_2 Zn1_2 1_555 1_555
Zn1B N1C 1_555 1_555
Zn1B_2 N1B 1_555 1_555
C4 N1 1_555 1_555
C1E N1E 1_555 1_555
C3E C4E 1_555 1_555
C4E N1E 1_555 1_555
C7E C8E 1_555 1_555
C4A N1A 1_555 1_555
C8A N2A 1_555 1_555
C1D N1D 1_555 1_555
C3D C4D 1_555 1_555
C4D N1D 1_555 1_555
C7D C8D 1_555 1_555
C4B N1B 1_555 1_555
C8B N2B 1_555 1_555
C3F C4F 1_555 1_555
C4F N1F 1_555 1_555
C7F C8F 1_555 1_555
N1F Zn1B_2 1_555 1_555
C4C N1C 1_555 1_555
C8C N2C 1_555 1_555
C3G C4G 1_555 1_555
C4G N1G 1_555 1_555
C7G C8G 1_555 1_555
N1G Zn1B 1_555 1_555

#END
