
#######################################################################
#
#                 Cambridge Crystallographic Data Centre
#                                CCDC 
#
#######################################################################
#
# If this CIF has been generated from an entry in the Cambridge 
# Structural Database, then it will include bibliographic, chemical, 
# crystal, experimental, refinement or atomic coordinate data resulting 
# from the CCDC's data processing and validation procedures.
#
#######################################################################

data_XIWWIL
_symmetry_cell_setting           tetragonal
_symmetry_space_group_name_H-M   'P 43 2 2'
_symmetry_Int_Tables_number      95
_space_group_name_Hall           'P 4cw 2c'
loop_
_symmetry_equiv_pos_site_id
_symmetry_equiv_pos_as_xyz
1 x,y,z
2 -y,x,3/4+z
3 -x,-y,1/2+z
4 y,-x,1/4+z
5 x,-y,1/2-z
6 y,x,1/4-z
7 -x,y,-z
8 -y,-x,3/4-z
_cell_length_a                   20.0626(4)
_cell_length_b                   20.0626(4)
_cell_length_c                   19.8105(6)
_cell_angle_alpha                90
_cell_angle_beta                 90
_cell_angle_gamma                90
_cell_volume                     7973.88
loop_
_atom_site_label
_atom_site_type_symbol
_atom_site_fract_x
_atom_site_fract_y
_atom_site_fract_z
C1 C 0.8306(2) 0.9470(2) 0.8131(3)
H1 H 0.8484 0.9895 0.8181
C2 C 0.8603(2) 0.8889(2) 0.8366(3)
H2 H 0.9005 0.8855 0.8598
C3 C 0.8186(2) 0.8371(2) 0.8189(3)
H3 H 0.8259 0.7921 0.8275
C4 C 0.7633(2) 0.8643(2) 0.7855(2)
C5 C 0.7072(2) 0.83253(17) 0.7615(2)
C6 C 0.6511(2) 0.86212(19) 0.7351(2)
C7 C 0.5927(2) 0.8303(2) 0.7088(2)
H4 H 0.5847 0.7846 0.7069
C8 C 0.5508(3) 0.8794(2) 0.6871(3)
H5 H 0.5087 0.8741 0.6683
C9 C 0.5844(2) 0.9400(2) 0.6991(2)
H6 H 0.5671 0.9816 0.6880
C10 C 0.7072(3) 0.7574(2) 0.7594(3)
C11 C 0.6766(3) 0.7212(2) 0.8061(3)
H7 H 0.6539 0.7425 0.8409
C12 C 0.6778(3) 0.6519(2) 0.8038(3)
H8 H 0.6584 0.6287 0.8394
C13 C 0.7377(3) 0.6526(2) 0.7123(3)
H9 H 0.7609 0.6294 0.6791
C14 C 0.7408(3) 0.7221(2) 0.7127(3)
H10 H 0.7663 0.7442 0.6805
C15 C 1.1416(2) 0.3819(2) 0.8167(2)
H11 H 1.1838 0.3661 0.8278
C16 C 1.0831(2) 0.3478(3) 0.8298(3)
H12 H 1.0793 0.3060 0.8496
C17 C 1.0317(2) 0.3874(2) 0.8079(2)
H13 H 0.9865 0.3778 0.8107
C18 C 1.06055(18) 0.4456(2) 0.7801(2)
C19 C 1.0288(2) 0.5000 0.7500
C20 C 0.9545(2) 0.5000 0.7500
C21 C 0.91994(18) 0.4527(2) 0.7127(2)
H14 H 0.9423 0.4204 0.6877
C22 C 0.85083(18) 0.4554(2) 0.7140(2)
H15 H 0.8272 0.4245 0.6884
C23 C 0.25131(19) 0.5110(2) 0.6141(2)
H16 H 0.2090 0.5152 0.5954
C24 C 0.31057(18) 0.5038(2) 0.57629(19)
H17 H 0.3141 0.5018 0.5295
C25 C 0.36144(17) 0.5005(2) 0.62166(19)
H18 H 0.4065 0.4967 0.6115
C26 C 0.33318(15) 0.5039(2) 0.68729(19)
C27 C 0.3643(2) 0.5000 0.7500
C28 C 0.4394(2) 0.5000 0.7500
C29 C 0.47559(17) 0.45151(19) 0.7843(2)
H19 H 0.4536 0.4178 0.8077
C30 C 0.54430(17) 0.45363(18) 0.7837(2)
H20 H 0.5676 0.4213 0.8077
Cd1 Cd 0.697693(15) 0.5000 0.7500
Cl1 Cl 0.69760(4) 0.49531(5) 0.87944(4)
Cu1 Cu 0.70802(3) 1.0000 0.7500
Cu2 Cu 0.19707(3) 0.5000 0.7500
N1 N 0.77278(17) 0.93349(16) 0.7822(2)
N2 N 0.64331(17) 0.93110(15) 0.72805(18)
N3 N 0.70326(15) 0.61869(13) 0.75685(19)
N4 N 1.13055(15) 0.43953(18) 0.78664(19)
N5 N 0.26415(14) 0.51081(18) 0.67986(16)
N6 N 0.81631(19) 0.5000 0.7500
N7 N 0.57915(18) 0.5000 0.7500
C15D C 1.1416(2) 0.6181(2) 0.6833(2)
H11D H 1.1838 0.6339 0.6722
C16D C 1.0831(2) 0.6522(3) 0.6702(3)
H12D H 1.0793 0.6940 0.6504
C17D C 1.0317(2) 0.6126(2) 0.6921(2)
H13D H 0.9865 0.6222 0.6893
C18D C 1.06055(18) 0.5544(2) 0.7199(2)
C21D C 0.91994(18) 0.5473(2) 0.7873(2)
H14D H 0.9423 0.5796 0.8123
C22D C 0.85083(18) 0.5446(2) 0.7860(2)
H15D H 0.8272 0.5755 0.8116
N4D N 1.13055(15) 0.56047(18) 0.71336(19)
C23D C 0.25131(19) 0.4890(2) 0.8859(2)
H16D H 0.2090 0.4848 0.9046
C24D C 0.31057(18) 0.4962(2) 0.92371(19)
H17D H 0.3141 0.4982 0.9705
C25D C 0.36144(17) 0.4995(2) 0.87834(19)
H18D H 0.4065 0.5033 0.8885
C26D C 0.33318(15) 0.4961(2) 0.81271(19)
C29D C 0.47559(17) 0.54849(19) 0.7157(2)
H19D H 0.4536 0.5822 0.6923
C30D C 0.54430(17) 0.54637(18) 0.7163(2)
H20D H 0.5676 0.5787 0.6923
N5D N 0.26415(14) 0.48919(18) 0.82014(16)
C1D C 0.8306(2) 0.0530(2) 0.6869(3)
H1D H 0.8484 0.0105 0.6819
C2D C 0.8603(2) 0.1111(2) 0.6634(3)
H2D H 0.9005 0.1145 0.6402
C3D C 0.8186(2) 0.1629(2) 0.6811(3)
H3D H 0.8259 0.2079 0.6725
C4D C 0.7633(2) 0.1357(2) 0.7145(2)
C5D C 0.7072(2) 0.16747(17) 0.7385(2)
C6D C 0.6511(2) 0.13788(19) 0.7649(2)
C7D C 0.5927(2) 0.1697(2) 0.7912(2)
H4D H 0.5847 0.2154 0.7931
C8D C 0.5508(3) 0.1206(2) 0.8129(3)
H5D H 0.5087 0.1259 0.8317
C9D C 0.5844(2) 0.0600(2) 0.8009(2)
H6D H 0.5671 0.0184 0.8120
C10D C 0.7072(3) 0.2426(2) 0.7406(3)
C11D C 0.6766(3) 0.2788(2) 0.6939(3)
H7D H 0.6539 0.2575 0.6591
C12D C 0.6778(3) 0.3481(2) 0.6962(3)
H8D H 0.6584 0.3713 0.6606
C13D C 0.7377(3) 0.3474(2) 0.7877(3)
H9D H 0.7609 0.3706 0.8209
C14D C 0.7408(3) 0.2779(2) 0.7873(3)
H10D H 0.7663 0.2558 0.8195
Cl1D Cl 0.69760(4) 0.50469(5) 0.62056(4)
N1D N 0.77278(17) 0.06651(16) 0.7178(2)
N2D N 0.64331(17) 0.06890(15) 0.77195(18)
N3D N 0.70326(15) 0.38131(13) 0.74315(19)
Cu1_2 Cu 0.70802(3) 0.0000 0.7500
Cu2_2 Cu 1.19707(3) 0.5000 0.7500
N1D_2 N 0.77278(17) 1.06651(16) 0.7178(2)
N2D_2 N 0.64331(17) 1.06890(15) 0.77195(18)
N4_2 N 0.13055(15) 0.43953(18) 0.78664(19)
N4D_2 N 0.13055(15) 0.56047(18) 0.71336(19)
loop_
_geom_bond_atom_site_label_1
_geom_bond_atom_site_label_2
_geom_bond_site_symmetry_1
_geom_bond_site_symmetry_2
C1 H1 1_555 1_555
C2 C1 1_555 1_555
H2 C2 1_555 1_555
C3 C2 1_555 1_555
H3 C3 1_555 1_555
C4 C3 1_555 1_555
C5 C4 1_555 1_555
C6 C5 1_555 1_555
C7 C6 1_555 1_555
H4 C7 1_555 1_555
C8 C7 1_555 1_555
H5 C8 1_555 1_555
C9 C8 1_555 1_555
H6 C9 1_555 1_555
C10 C5 1_555 1_555
C11 C10 1_555 1_555
H7 C11 1_555 1_555
C12 C11 1_555 1_555
H8 C12 1_555 1_555
C13 H9 1_555 1_555
C14 C10 1_555 1_555
H10 C14 1_555 1_555
C15 H11 1_555 1_555
C16 C15 1_555 1_555
H12 C16 1_555 1_555
C17 C16 1_555 1_555
H13 C17 1_555 1_555
C18 C17 1_555 1_555
C19 C18 1_555 1_555
C20 C19 1_555 1_555
C21 C20 1_555 1_555
H14 C21 1_555 1_555
C22 C21 1_555 1_555
H15 C22 1_555 1_555
C23 H16 1_555 1_555
C24 C23 1_555 1_555
H17 C24 1_555 1_555
C25 C24 1_555 1_555
H18 C25 1_555 1_555
C26 C25 1_555 1_555
C27 C26 1_555 1_555
C28 C27 1_555 1_555
C29 C28 1_555 1_555
H19 C29 1_555 1_555
C30 C29 1_555 1_555
H20 C30 1_555 1_555
Cd1 Cl1 1_555 1_555
Cu1 N1 1_555 1_555
Cu2 N5 1_555 1_555
N1 C1 1_555 1_555
N2 C6 1_555 1_555
N3 C12 1_555 1_555
N4 C15 1_555 1_555
N5 C23 1_555 1_555
N6 C22 1_555 1_555
N7 C30 1_555 1_555
C15D H11D 1_555 1_555
C16D C15D 1_555 1_555
H12D C16D 1_555 1_555
C17D C16D 1_555 1_555
H13D C17D 1_555 1_555
C18D C19 1_555 1_555
C21D C20 1_555 1_555
H14D C21D 1_555 1_555
C22D N6 1_555 1_555
H15D C22D 1_555 1_555
N4D C15D 1_555 1_555
C23D H16D 1_555 1_555
C24D C23D 1_555 1_555
H17D C24D 1_555 1_555
C25D C24D 1_555 1_555
H18D C25D 1_555 1_555
C26D C27 1_555 1_555
C29D C28 1_555 1_555
H19D C29D 1_555 1_555
C30D N7 1_555 1_555
H20D C30D 1_555 1_555
N5D Cu2 1_555 1_555
C1D H1D 1_555 1_555
C2D C1D 1_555 1_555
H2D C2D 1_555 1_555
C3D C2D 1_555 1_555
H3D C3D 1_555 1_555
C4D C3D 1_555 1_555
C5D C4D 1_555 1_555
C6D C5D 1_555 1_555
C7D C6D 1_555 1_555
H4D C7D 1_555 1_555
C8D C7D 1_555 1_555
H5D C8D 1_555 1_555
C9D C8D 1_555 1_555
H6D C9D 1_555 1_555
C10D C5D 1_555 1_555
C11D C10D 1_555 1_555
H7D C11D 1_555 1_555
C12D C11D 1_555 1_555
H8D C12D 1_555 1_555
C13D H9D 1_555 1_555
C14D C10D 1_555 1_555
H10D C14D 1_555 1_555
Cl1D Cd1 1_555 1_555
N1D C1D 1_555 1_555
N2D C6D 1_555 1_555
N3D Cd1 1_555 1_555
Cu1_2 N1D 1_555 1_555
Cu2_2 N4 1_555 1_555
N1D_2 Cu1 1_555 1_555
N2D_2 Cu1 1_555 1_555
N4_2 Cu2 1_555 1_555
N4D_2 Cu2 1_555 1_555
C4 N1 1_555 1_555
C9 N2 1_555 1_555
C13 C14 1_555 1_555
C13 N3 1_555 1_555
C18 N4 1_555 1_555
C26 N5 1_555 1_555
Cd1 N3 1_555 1_555
Cd1 N6 1_555 1_555
Cd1 N7 1_555 1_555
Cu1 N2 1_555 1_555
C17D C18D 1_555 1_555
C18D N4D 1_555 1_555
C21D C22D 1_555 1_555
N4D Cu2_2 1_555 1_555
C23D N5D 1_555 1_555
C25D C26D 1_555 1_555
C26D N5D 1_555 1_555
C29D C30D 1_555 1_555
C4D N1D 1_555 1_555
C9D N2D 1_555 1_555
C12D N3D 1_555 1_555
C13D C14D 1_555 1_555
C13D N3D 1_555 1_555
N2D Cu1_2 1_555 1_555

#END
