
#######################################################################
#
#                 Cambridge Crystallographic Data Centre
#                                CCDC 
#
#######################################################################
#
# If this CIF has been generated from an entry in the Cambridge 
# Structural Database, then it will include bibliographic, chemical, 
# crystal, experimental, refinement or atomic coordinate data resulting 
# from the CCDC's data processing and validation procedures.
#
#######################################################################

data_XIWWUX
_symmetry_cell_setting           triclinic
_symmetry_space_group_name_H-M   'P -1'
_symmetry_Int_Tables_number      2
_space_group_name_Hall           '-P 1'
loop_
_symmetry_equiv_pos_site_id
_symmetry_equiv_pos_as_xyz
1 x,y,z
2 -x,-y,-z
_cell_length_a                   9.0610(2)
_cell_length_b                   11.9362(2)
_cell_length_c                   15.7702(3)
_cell_angle_alpha                89.5150(10)
_cell_angle_beta                 85.8570(10)
_cell_angle_gamma                79.4270(10)
_cell_volume                     1672.25
loop_
_atom_site_label
_atom_site_type_symbol
_atom_site_fract_x
_atom_site_fract_y
_atom_site_fract_z
C1 C 0.1645(3) 0.9697(2) -0.17499(18)
H1 H 0.0871 1.0149 -0.2020
C2 C 0.2957(3) 0.9065(3) -0.21770(18)
H2 H 0.3194 0.9029 -0.2761
C3 C 0.3809(3) 0.8518(2) -0.15639(18)
H3 H 0.4727 0.8023 -0.1653
C4 C 0.3023(3) 0.8850(2) -0.07596(16)
C5 C 0.3591(3) 0.8697(2) 0.00331(16)
C6 C 0.2978(3) 0.9322(2) 0.07673(16)
C7 C 0.3681(3) 0.9463(2) 0.15255(18)
H4 H 0.4583 0.9039 0.1688
C8 C 0.2777(3) 1.0347(3) 0.19758(19)
H5 H 0.2959 1.0645 0.2493
C9 C 0.1524(3) 1.0709(2) 0.15002(18)
H6 H 0.0737 1.1303 0.1659
C10 C 0.5045(3) 0.7887(2) 0.00660(16)
C11 C 0.5120(3) 0.6749(2) -0.01485(17)
H7 H 0.4263 0.6490 -0.0294
C12 C 0.6481(3) 0.6008(2) -0.01426(17)
H8 H 0.6513 0.5246 -0.0276
C13 C 0.7683(3) 0.7430(2) 0.02412(18)
H9 H 0.8566 0.7669 0.0363
C14 C 0.6361(3) 0.8228(2) 0.02715(18)
H10 H 0.6354 0.8979 0.0427
C15 C 0.6940(4) 0.9630(3) 0.44909(19)
H11 H 0.6403 1.0134 0.4898
C16 C 0.6279(4) 0.9066(3) 0.3887(2)
H12 H 0.5256 0.9117 0.3826
C17 C 0.7447(4) 0.8420(3) 0.34030(19)
H13 H 0.7360 0.7966 0.2940
C18 C 0.8798(3) 0.8571(2) 0.37355(16)
C19 C 1.0238(3) 0.7922(2) 0.35526(16)
C20 C 1.1434(3) 0.7843(2) 0.40619(17)
C21 C 1.2727(4) 0.6962(3) 0.4045(2)
H14 H 1.3057 0.6433 0.3610
C22 C 1.3395(4) 0.7038(3) 0.4790(2)
H15 H 1.4253 0.6565 0.4964
C23 C 1.2521(4) 0.7978(3) 0.52411(19)
H16 H 1.2723 0.8218 0.5773
C24 C 1.0430(3) 0.7165(2) 0.27846(16)
C25 C 0.9893(4) 0.6149(2) 0.27975(17)
H17 H 0.9472 0.5886 0.3299
C26 C 0.9996(3) 0.5534(2) 0.20473(17)
H18 H 0.9640 0.4851 0.2061
C27 C 1.1148(3) 0.6828(2) 0.13069(16)
H19 H 1.1593 0.7059 0.0801
C28 C 1.1103(3) 0.7489(2) 0.20277(16)
H20 H 1.1520 0.8146 0.2005
N1 N 0.1661(2) 0.95606(18) -0.09125(14)
N2 N 0.1612(2) 1.00895(18) 0.07906(14)
N3 N 0.7754(2) 0.63318(18) 0.00452(14)
N4 N 0.8452(3) 0.9351(2) 0.44070(14)
N5 N 1.1373(3) 0.8477(2) 0.48095(14)
N6 N 1.0579(2) 0.58666(18) 0.13068(13)
Cl1 Cl 0.86656(7) 0.35793(5) 0.08589(4)
Pd1 Pd 0.0000 1.0000 0.0000
Pd2 Pd 1.0000 1.0000 0.5000
Cd1 Cd 1.0000 0.5000 0.0000
C1A C -0.1645(3) 1.0303(2) 0.17499(18)
H1A H -0.0871 0.9851 0.2020
C2A C -0.2957(3) 1.0935(3) 0.21770(18)
H2A H -0.3194 1.0971 0.2761
C3A C -0.3809(3) 1.1482(2) 0.15639(18)
H3A H -0.4727 1.1977 0.1653
C4A C -0.3023(3) 1.1150(2) 0.07596(16)
C5A C -0.3591(3) 1.1303(2) -0.00331(16)
C6A C -0.2978(3) 1.0678(2) -0.07673(16)
C7A C -0.3681(3) 1.0537(2) -0.15255(18)
H4A H -0.4583 1.0961 -0.1688
C8A C -0.2777(3) 0.9653(3) -0.19758(19)
H5A H -0.2959 0.9355 -0.2493
C9A C -0.1524(3) 0.9291(2) -0.15002(18)
H6A H -0.0737 0.8697 -0.1659
C10A C -0.5045(3) 1.2113(2) -0.00660(16)
C11A C -0.5120(3) 1.3251(2) 0.01485(17)
H7A H -0.4263 1.3510 0.0294
C12A C -0.6481(3) 1.3992(2) 0.01426(17)
H8A H -0.6513 1.4754 0.0276
C13A C -0.7683(3) 1.2570(2) -0.02412(18)
H9A H -0.8566 1.2331 -0.0363
C14A C -0.6361(3) 1.1772(2) -0.02715(18)
H10A H -0.6354 1.1021 -0.0427
N1A N -0.1661(2) 1.04394(18) 0.09125(14)
N2A N -0.1612(2) 0.99105(18) -0.07906(14)
N3A N -0.7754(2) 1.36682(18) -0.00452(14)
C15A C 1.3060(4) 1.0370(3) 0.55091(19)
H11A H 1.3597 0.9866 0.5102
C16A C 1.3721(4) 1.0934(3) 0.6113(2)
H12A H 1.4744 1.0883 0.6174
C17A C 1.2553(4) 1.1580(3) 0.65970(19)
H13A H 1.2640 1.2034 0.7060
C18A C 1.1202(3) 1.1429(2) 0.62645(16)
C19A C 0.9762(3) 1.2078(2) 0.64474(16)
C20A C 0.8566(3) 1.2157(2) 0.59381(17)
C21A C 0.7273(4) 1.3038(3) 0.5955(2)
H14A H 0.6943 1.3567 0.6390
C22A C 0.6605(4) 1.2962(3) 0.5210(2)
H15A H 0.5747 1.3435 0.5036
C23A C 0.7479(4) 1.2022(3) 0.47589(19)
H16A H 0.7277 1.1782 0.4227
C24A C 0.9570(3) 1.2835(2) 0.72154(16)
C25A C 1.0107(4) 1.3851(2) 0.72025(17)
H17A H 1.0528 1.4114 0.6701
C26A C 1.0004(3) 1.4466(2) 0.79527(17)
H18A H 1.0360 1.5149 0.7939
C27A C 0.8852(3) 1.3172(2) 0.86931(16)
H19A H 0.8407 1.2941 0.9199
C28A C 0.8897(3) 1.2511(2) 0.79723(16)
H20A H 0.8480 1.1854 0.7995
N4A N 1.1548(3) 1.0649(2) 0.55930(14)
N5A N 0.8627(3) 1.1523(2) 0.51905(14)
N6A N 0.9421(2) 1.41334(18) 0.86932(13)
Cl1A Cl 1.13344(7) 0.64207(5) -0.08589(4)
N3A_2 N 1.2246(2) 0.36682(18) -0.00452(14)
N6A_2 N 0.9421(2) 0.41334(18) -0.13068(13)
Cd1_2 Cd -1.0000 1.5000 0.0000
Cd1_3 Cd 1.0000 1.5000 1.0000
C29 C 0.5815(4) 0.4907(3) 0.2320(2)
H21 H 0.6489 0.4478 0.1874
Cl2 Cl 0.65419(13) 0.45472(13) 0.33008(7)
Cl3 Cl 0.56927(13) 0.63634(10) 0.21212(7)
Cl4 Cl 0.40214(11) 0.45424(9) 0.22930(6)
C30 C 0.1903(6) 0.2796(4) 0.4197(3)
H22 H 0.1540 0.2305 0.4635
Cl5 Cl 0.37165(13) 0.21528(10) 0.38098(7)
Cl6 Cl 0.06936(17) 0.29322(13) 0.33608(13)
Cl7 Cl 0.1945(3) 0.41179(13) 0.46538(11)
loop_
_geom_bond_atom_site_label_1
_geom_bond_atom_site_label_2
_geom_bond_site_symmetry_1
_geom_bond_site_symmetry_2
C1 H1 1_555 1_555
C2 C1 1_555 1_555
H2 C2 1_555 1_555
C3 C2 1_555 1_555
H3 C3 1_555 1_555
C4 C3 1_555 1_555
C5 C4 1_555 1_555
C6 C5 1_555 1_555
C7 C6 1_555 1_555
H4 C7 1_555 1_555
C8 C7 1_555 1_555
H5 C8 1_555 1_555
C9 C8 1_555 1_555
H6 C9 1_555 1_555
C10 C5 1_555 1_555
C11 C10 1_555 1_555
H7 C11 1_555 1_555
C12 C11 1_555 1_555
H8 C12 1_555 1_555
C13 H9 1_555 1_555
C14 C10 1_555 1_555
H10 C14 1_555 1_555
C15 H11 1_555 1_555
C16 C15 1_555 1_555
H12 C16 1_555 1_555
C17 C16 1_555 1_555
H13 C17 1_555 1_555
C18 C17 1_555 1_555
C19 C18 1_555 1_555
C20 C19 1_555 1_555
C21 C20 1_555 1_555
H14 C21 1_555 1_555
C22 C21 1_555 1_555
H15 C22 1_555 1_555
C23 C22 1_555 1_555
H16 C23 1_555 1_555
C24 C19 1_555 1_555
C25 C24 1_555 1_555
H17 C25 1_555 1_555
C26 C25 1_555 1_555
H18 C26 1_555 1_555
C27 H19 1_555 1_555
C28 C24 1_555 1_555
H20 C28 1_555 1_555
N1 C1 1_555 1_555
N2 C6 1_555 1_555
N3 C12 1_555 1_555
N4 C15 1_555 1_555
N5 C20 1_555 1_555
N6 C26 1_555 1_555
Cl1 Cd1 1_555 1_555
Pd1 N1 1_555 1_555
Pd2 N4 1_555 1_555
Cd1 N3 1_555 1_555
C29 H21 1_555 1_555
Cl2 C29 1_555 1_555
Cl3 C29 1_555 1_555
Cl4 C29 1_555 1_555
C30 H22 1_555 1_555
Cl5 C30 1_555 1_555
Cl6 C30 1_555 1_555
Cl7 C30 1_555 1_555
C1A H1A 1_555 1_555
C2A C1A 1_555 1_555
H2A C2A 1_555 1_555
C3A C2A 1_555 1_555
H3A C3A 1_555 1_555
C4A C3A 1_555 1_555
C5A C4A 1_555 1_555
C6A C5A 1_555 1_555
C7A C6A 1_555 1_555
H4A C7A 1_555 1_555
C8A C7A 1_555 1_555
H5A C8A 1_555 1_555
C9A C8A 1_555 1_555
H6A C9A 1_555 1_555
C10A C5A 1_555 1_555
C11A C10A 1_555 1_555
H7A C11A 1_555 1_555
C12A C11A 1_555 1_555
H8A C12A 1_555 1_555
C13A H9A 1_555 1_555
C14A C10A 1_555 1_555
H10A C14A 1_555 1_555
N1A Pd1 1_555 1_555
N2A Pd1 1_555 1_555
N3A C12A 1_555 1_555
C15A H11A 1_555 1_555
C16A C15A 1_555 1_555
H12A C16A 1_555 1_555
C17A C16A 1_555 1_555
H13A C17A 1_555 1_555
C18A C17A 1_555 1_555
C19A C18A 1_555 1_555
C20A C19A 1_555 1_555
C21A C20A 1_555 1_555
H14A C21A 1_555 1_555
C22A C21A 1_555 1_555
H15A C22A 1_555 1_555
C23A C22A 1_555 1_555
H16A C23A 1_555 1_555
C24A C19A 1_555 1_555
C25A C24A 1_555 1_555
H17A C25A 1_555 1_555
C26A C25A 1_555 1_555
H18A C26A 1_555 1_555
C27A H19A 1_555 1_555
C28A C24A 1_555 1_555
H20A C28A 1_555 1_555
N4A Pd2 1_555 1_555
N5A Pd2 1_555 1_555
N6A C26A 1_555 1_555
Cl1A Cd1 1_555 1_555
N3A_2 Cd1 1_555 1_555
N6A_2 Cd1 1_555 1_555
Cd1_2 N3A 1_555 1_555
Cd1_3 N6A 1_555 1_555
C4 N1 1_555 1_555
C9 N2 1_555 1_555
C13 C14 1_555 1_555
C13 N3 1_555 1_555
C18 N4 1_555 1_555
C23 N5 1_555 1_555
C27 C28 1_555 1_555
C27 N6 1_555 1_555
N2 Pd1 1_555 1_555
N5 Pd2 1_555 1_555
N6 Cd1 1_555 1_555
C1A N1A 1_555 1_555
C4A N1A 1_555 1_555
C6A N2A 1_555 1_555
C9A N2A 1_555 1_555
C13A C14A 1_555 1_555
C13A N3A 1_555 1_555
C15A N4A 1_555 1_555
C18A N4A 1_555 1_555
C20A N5A 1_555 1_555
C23A N5A 1_555 1_555
C27A C28A 1_555 1_555
C27A N6A 1_555 1_555

#END
