
#######################################################################
#
#                 Cambridge Crystallographic Data Centre
#                                CCDC 
#
#######################################################################
#
# If this CIF has been generated from an entry in the Cambridge 
# Structural Database, then it will include bibliographic, chemical, 
# crystal, experimental, refinement or atomic coordinate data resulting 
# from the CCDC's data processing and validation procedures.
#
#######################################################################

data_XIWXEI
_symmetry_cell_setting           orthorhombic
_symmetry_space_group_name_H-M   'P m n 21'
_symmetry_Int_Tables_number      31
_space_group_name_Hall           'P 2ac -2'
loop_
_symmetry_equiv_pos_site_id
_symmetry_equiv_pos_as_xyz
1 x,y,z
2 1/2-x,-y,1/2+z
3 1/2+x,-y,1/2+z
4 -x,y,z
_cell_length_a                   30.0402(11)
_cell_length_b                   8.9013(3)
_cell_length_c                   13.5698(5)
_cell_angle_alpha                90
_cell_angle_beta                 90
_cell_angle_gamma                90
_cell_volume                     3628.52
loop_
_atom_site_label
_atom_site_type_symbol
_atom_site_fract_x
_atom_site_fract_y
_atom_site_fract_z
C1 C 0.1465(4) 0.1845(10) 0.3923(5)
H1 H 0.1484 0.1812 0.3239
C2 C 0.1057(3) 0.1845(10) 0.4450(6)
H2 H 0.0772 0.1813 0.4184
C3 C 0.1167(2) 0.1903(9) 0.5430(5)
H3 H 0.0969 0.1932 0.5957
C4 C 0.1643(2) 0.1910(8) 0.5494(5)
C5 C 0.1913(2) 0.1655(7) 0.6318(5)
C6 C 0.2355(2) 0.1197(8) 0.6278(5)
C7 C 0.2597(3) 0.0465(9) 0.7013(5)
H4 H 0.2524 0.0377 0.7676
C8 C 0.2975(3) -0.0108(10) 0.6540(6)
H5 H 0.3198 -0.0681 0.6832
C9 C 0.2959(2) 0.0327(8) 0.5562(6)
H6 H 0.3169 0.0071 0.5087
C10 C 0.1696(2) 0.1717(8) 0.7285(4)
C11 C 0.1816(2) 0.2837(7) 0.7957(5)
H7 H 0.2045 0.3500 0.7805
C12 C 0.1591(3) 0.2963(8) 0.8865(5)
H8 H 0.1663 0.3718 0.9311
C13 C 0.1262(2) 0.1944(8) 0.9073(5)
C14 C 0.1159(2) 0.0793(9) 0.8480(6)
H9 H 0.0948 0.0085 0.8670
C15 C 0.1377(3) 0.0671(8) 0.7560(6)
H10 H 0.1305 -0.0114 0.7136
C16 C 0.0904(3) 0.0991(10) 1.0660(6)
H11 H 0.1013 0.0013 1.0670
C17 C 0.0623(4) 0.1583(11) 1.1270(7)
H12 H 0.0487 0.1068 1.1784
C18 C 0.0784(2) 0.3312(8) 1.0254(5)
H13 H 0.0792 0.4207 0.9900
C19 C 0.3423(3) 0.2944(9) 0.4576(6)
H14 H 0.3391 0.2876 0.5256
C20 C 0.3833(3) 0.3026(10) 0.4101(7)
H15 H 0.4113 0.3066 0.4388
C21 C 0.3730(3) 0.3035(9) 0.3104(6)
H16 H 0.3936 0.3036 0.2592
C22 C 0.3261(2) 0.3042(9) 0.2992(5)
C23 C 0.3006(2) 0.3303(7) 0.2150(5)
C24 C 0.2559(2) 0.3661(8) 0.2150(5)
C25 C 0.2306(3) 0.4330(11) 0.1390(6)
H17 H 0.2397 0.4436 0.0738
C26 C 0.1914(4) 0.4788(15) 0.1759(11)
H18 H 0.1689 0.5308 0.1435
C27 C 0.1919(3) 0.4291(12) 0.2775(7)
H19 H 0.1688 0.4430 0.3221
C28 C 0.3241(2) 0.3301(8) 0.1183(4)
C29 C 0.3116(3) 0.2271(8) 0.0459(6)
H20 H 0.2876 0.1631 0.0560
C30 C 0.3353(3) 0.2217(9) -0.0397(6)
H21 H 0.3278 0.1505 -0.0871
C31 C 0.3714(2) 0.3231(8) -0.0586(4)
C32 C 0.3824(3) 0.4253(9) 0.0125(5)
H22 H 0.4063 0.4901 0.0029
C33 C 0.3577(3) 0.4322(8) 0.0990(5)
H23 H 0.3639 0.5069 0.1449
C34 C 0.3963(4) 0.2076(13) -0.2201(6)
H24 H 0.3796 0.1197 -0.2211
C35 C 0.4264(4) 0.2534(11) -0.2899(7)
H25 H 0.4334 0.2006 -0.3470
C36 C 0.4236(4) 0.4188(12) -0.1774(7)
H26 H 0.4292 0.5069 -0.1427
N1 N 0.18128(19) 0.1898(8) 0.4508(4)
N2 N 0.26037(19) 0.1156(7) 0.5401(4)
N3 N 0.10092(19) 0.2107(7) 0.9989(4)
N4 N 0.0549(2) 0.3144(8) 1.1048(4)
N5 N 0.2292(2) 0.3626(7) 0.2976(4)
N6 N 0.3086(2) 0.2974(8) 0.3952(4)
N7 N 0.3955(2) 0.3170(8) -0.1483(4)
N8 N 0.4441(2) 0.3830(7) -0.2641(4)
Cl1 Cl 0.0000 0.2963(4) 1.32958(17)
Cl2 Cl 0.0000 0.6343(3) 1.01162(17)
Pd1 Pd 0.244997(18) 0.24206(6) 0.42119(6)
Cd1 Cd 0.0000 0.46704(8) 1.17019(4)
C1C C -0.1465(4) 0.1845(10) 0.3923(5)
H1C H -0.1484 0.1812 0.3239
C2C C -0.1057(3) 0.1845(10) 0.4450(6)
H2C H -0.0772 0.1813 0.4184
C3C C -0.1167(2) 0.1903(9) 0.5430(5)
H3C H -0.0969 0.1932 0.5957
C4C C -0.1643(2) 0.1910(8) 0.5494(5)
C5C C -0.1913(2) 0.1655(7) 0.6318(5)
C6C C -0.2355(2) 0.1197(8) 0.6278(5)
C7C C -0.2597(3) 0.0465(9) 0.7013(5)
H4C H -0.2524 0.0377 0.7676
C8C C -0.2975(3) -0.0108(10) 0.6540(6)
H5C H -0.3198 -0.0681 0.6832
C9C C -0.2959(2) 0.0327(8) 0.5562(6)
H6C H -0.3169 0.0071 0.5087
C10C C -0.1696(2) 0.1717(8) 0.7285(4)
C11C C -0.1816(2) 0.2837(7) 0.7957(5)
H7C H -0.2045 0.3500 0.7805
C12C C -0.1591(3) 0.2963(8) 0.8865(5)
H8C H -0.1663 0.3718 0.9311
C13C C -0.1262(2) 0.1944(8) 0.9073(5)
C14C C -0.1159(2) 0.0793(9) 0.8480(6)
H9C H -0.0948 0.0085 0.8670
C15C C -0.1377(3) 0.0671(8) 0.7560(6)
H10C H -0.1305 -0.0114 0.7136
C16C C -0.0904(3) 0.0991(10) 1.0660(6)
H11C H -0.1013 0.0013 1.0670
C17C C -0.0623(4) 0.1583(11) 1.1270(7)
H12C H -0.0487 0.1068 1.1784
C18C C -0.0784(2) 0.3312(8) 1.0254(5)
H13C H -0.0792 0.4207 0.9900
C19C C -0.3423(3) 0.2944(9) 0.4576(6)
H14C H -0.3391 0.2876 0.5256
C20C C -0.3833(3) 0.3026(10) 0.4101(7)
H15C H -0.4113 0.3066 0.4388
C21C C -0.3730(3) 0.3035(9) 0.3104(6)
H16C H -0.3936 0.3036 0.2592
C22C C -0.3261(2) 0.3042(9) 0.2992(5)
C23C C -0.3006(2) 0.3303(7) 0.2150(5)
C24C C -0.2559(2) 0.3661(8) 0.2150(5)
C25C C -0.2306(3) 0.4330(11) 0.1390(6)
H17C H -0.2397 0.4436 0.0738
C26C C -0.1914(4) 0.4788(15) 0.1759(11)
H18C H -0.1689 0.5308 0.1435
C27C C -0.1919(3) 0.4291(12) 0.2775(7)
H19C H -0.1688 0.4430 0.3221
C28C C -0.3241(2) 0.3301(8) 0.1183(4)
C29C C -0.3116(3) 0.2271(8) 0.0459(6)
H20C H -0.2876 0.1631 0.0560
C30C C -0.3353(3) 0.2217(9) -0.0397(6)
H21C H -0.3278 0.1505 -0.0871
C31C C -0.3714(2) 0.3231(8) -0.0586(4)
C32C C -0.3824(3) 0.4253(9) 0.0125(5)
H22C H -0.4063 0.4901 0.0029
C33C C -0.3577(3) 0.4322(8) 0.0990(5)
H23C H -0.3639 0.5069 0.1449
C34C C -0.3963(4) 0.2076(13) -0.2201(6)
H24C H -0.3796 0.1197 -0.2211
C35C C -0.4264(4) 0.2534(11) -0.2899(7)
H25C H -0.4334 0.2006 -0.3470
C36C C -0.4236(4) 0.4188(12) -0.1774(7)
H26C H -0.4292 0.5069 -0.1427
N1C N -0.18128(19) 0.1898(8) 0.4508(4)
N2C N -0.26037(19) 0.1156(7) 0.5401(4)
N3C N -0.10092(19) 0.2107(7) 0.9989(4)
N4C N -0.0549(2) 0.3144(8) 1.1048(4)
N5C N -0.2292(2) 0.3626(7) 0.2976(4)
N6C N -0.3086(2) 0.2974(8) 0.3952(4)
N7C N -0.3955(2) 0.3170(8) -0.1483(4)
N8C N -0.4441(2) 0.3830(7) -0.2641(4)
Pd1C Pd -0.244997(18) 0.24206(6) 0.42119(6)
N8A N 0.0559(2) 0.6170(7) 1.2359(4)
N8B N -0.0559(2) 0.6170(7) 1.2359(4)
Cd1A Cd -0.5000 0.53296(8) -0.32981(4)
Cd1A_2 Cd 0.5000 0.53296(8) -0.32981(4)
C37 C 0.0000 0.439(2) 1.6939(12)
H27 H 0.0000 0.5487 1.6980
Cl3 Cl 0.04806(8) 0.3860(4) 1.7540(2)
Cl4 Cl 0.0000 0.3998(16) 1.5618(6)
Cl3C Cl -0.04806(8) 0.3860(4) 1.7540(2)
loop_
_geom_bond_atom_site_label_1
_geom_bond_atom_site_label_2
_geom_bond_site_symmetry_1
_geom_bond_site_symmetry_2
C1 H1 1_555 1_555
C2 C1 1_555 1_555
H2 C2 1_555 1_555
C3 C2 1_555 1_555
H3 C3 1_555 1_555
C4 C3 1_555 1_555
C5 C4 1_555 1_555
C6 C5 1_555 1_555
C7 C6 1_555 1_555
H4 C7 1_555 1_555
C8 C7 1_555 1_555
H5 C8 1_555 1_555
C9 C8 1_555 1_555
H6 C9 1_555 1_555
C10 C5 1_555 1_555
C11 C10 1_555 1_555
H7 C11 1_555 1_555
C12 C11 1_555 1_555
H8 C12 1_555 1_555
C13 C12 1_555 1_555
C14 C13 1_555 1_555
H9 C14 1_555 1_555
C15 C10 1_555 1_555
H10 C15 1_555 1_555
C16 H11 1_555 1_555
C17 C16 1_555 1_555
H12 C17 1_555 1_555
C18 H13 1_555 1_555
C19 H14 1_555 1_555
C20 C19 1_555 1_555
H15 C20 1_555 1_555
C21 C20 1_555 1_555
H16 C21 1_555 1_555
C22 C21 1_555 1_555
C23 C22 1_555 1_555
C24 C23 1_555 1_555
C25 C24 1_555 1_555
H17 C25 1_555 1_555
C26 C25 1_555 1_555
H18 C26 1_555 1_555
C27 C26 1_555 1_555
H19 C27 1_555 1_555
C28 C23 1_555 1_555
C29 C28 1_555 1_555
H20 C29 1_555 1_555
C30 C29 1_555 1_555
H21 C30 1_555 1_555
C31 C30 1_555 1_555
C32 C31 1_555 1_555
H22 C32 1_555 1_555
C33 C28 1_555 1_555
H23 C33 1_555 1_555
C34 H24 1_555 1_555
C35 C34 1_555 1_555
H25 C35 1_555 1_555
C36 H26 1_555 1_555
N1 C1 1_555 1_555
N2 C6 1_555 1_555
N3 C13 1_555 1_555
N4 C17 1_555 1_555
N5 C24 1_555 1_555
N6 C19 1_555 1_555
N7 C31 1_555 1_555
N8 C35 1_555 1_555
Cl1 Cd1 1_555 1_555
Cl2 Cd1 1_555 1_555
Pd1 N1 1_555 1_555
Cd1 N4 1_555 1_555
C37 H27 1_555 1_555
Cl3 C37 1_555 1_555
Cl4 C37 1_555 1_555
C1C H1C 1_555 1_555
C2C C1C 1_555 1_555
H2C C2C 1_555 1_555
C3C C2C 1_555 1_555
H3C C3C 1_555 1_555
C4C C3C 1_555 1_555
C5C C4C 1_555 1_555
C6C C5C 1_555 1_555
C7C C6C 1_555 1_555
H4C C7C 1_555 1_555
C8C C7C 1_555 1_555
H5C C8C 1_555 1_555
C9C C8C 1_555 1_555
H6C C9C 1_555 1_555
C10C C5C 1_555 1_555
C11C C10C 1_555 1_555
H7C C11C 1_555 1_555
C12C C11C 1_555 1_555
H8C C12C 1_555 1_555
C13C C12C 1_555 1_555
C14C C13C 1_555 1_555
H9C C14C 1_555 1_555
C15C C10C 1_555 1_555
H10C C15C 1_555 1_555
C16C H11C 1_555 1_555
C17C C16C 1_555 1_555
H12C C17C 1_555 1_555
C18C H13C 1_555 1_555
C19C H14C 1_555 1_555
C20C C19C 1_555 1_555
H15C C20C 1_555 1_555
C21C C20C 1_555 1_555
H16C C21C 1_555 1_555
C22C C21C 1_555 1_555
C23C C22C 1_555 1_555
C24C C23C 1_555 1_555
C25C C24C 1_555 1_555
H17C C25C 1_555 1_555
C26C C25C 1_555 1_555
H18C C26C 1_555 1_555
C27C C26C 1_555 1_555
H19C C27C 1_555 1_555
C28C C23C 1_555 1_555
C29C C28C 1_555 1_555
H20C C29C 1_555 1_555
C30C C29C 1_555 1_555
H21C C30C 1_555 1_555
C31C C30C 1_555 1_555
C32C C31C 1_555 1_555
H22C C32C 1_555 1_555
C33C C28C 1_555 1_555
H23C C33C 1_555 1_555
C34C H24C 1_555 1_555
C35C C34C 1_555 1_555
H25C C35C 1_555 1_555
C36C H26C 1_555 1_555
N1C C1C 1_555 1_555
N2C C6C 1_555 1_555
N3C C13C 1_555 1_555
N4C Cd1 1_555 1_555
N5C C24C 1_555 1_555
N6C C19C 1_555 1_555
N7C C31C 1_555 1_555
N8C C35C 1_555 1_555
Pd1C N1C 1_555 1_555
N8A Cd1 1_555 1_555
N8B Cd1 1_555 1_555
Cd1A N8C 1_555 1_555
Cd1A_2 N8 1_555 1_555
Cl3C C37 1_555 1_555
C4 N1 1_555 1_555
C9 N2 1_555 1_555
C14 C15 1_555 1_555
C16 N3 1_555 1_555
C18 N3 1_555 1_555
C18 N4 1_555 1_555
C22 N6 1_555 1_555
C27 N5 1_555 1_555
C32 C33 1_555 1_555
C34 N7 1_555 1_555
C36 N7 1_555 1_555
C36 N8 1_555 1_555
N2 Pd1 1_555 1_555
N5 Pd1 1_555 1_555
N6 Pd1 1_555 1_555
C4C N1C 1_555 1_555
C9C N2C 1_555 1_555
C14C C15C 1_555 1_555
C16C N3C 1_555 1_555
C17C N4C 1_555 1_555
C18C N3C 1_555 1_555
C18C N4C 1_555 1_555
C22C N6C 1_555 1_555
C27C N5C 1_555 1_555
C32C C33C 1_555 1_555
C34C N7C 1_555 1_555
C36C N7C 1_555 1_555
C36C N8C 1_555 1_555
N2C Pd1C 1_555 1_555
N5C Pd1C 1_555 1_555
N6C Pd1C 1_555 1_555

#END
