
#######################################################################
#
#                 Cambridge Crystallographic Data Centre
#                                CCDC 
#
#######################################################################
#
# If this CIF has been generated from an entry in the Cambridge 
# Structural Database, then it will include bibliographic, chemical, 
# crystal, experimental, refinement or atomic coordinate data resulting 
# from the CCDC's data processing and validation procedures.
#
#######################################################################

data_XIXHAN
_symmetry_cell_setting           monoclinic
_symmetry_space_group_name_H-M   'P 21/c'
_symmetry_Int_Tables_number      14
_space_group_name_Hall           '-P 2ybc'
loop_
_symmetry_equiv_pos_site_id
_symmetry_equiv_pos_as_xyz
1 x,y,z
2 -x,1/2+y,1/2-z
3 -x,-y,-z
4 x,1/2-y,1/2+z
_cell_length_a                   19.511(2)
_cell_length_b                   10.299(1)
_cell_length_c                   12.676(2)
_cell_angle_alpha                90
_cell_angle_beta                 100.85(1)
_cell_angle_gamma                90
_cell_volume                     2501.63
loop_
_atom_site_label
_atom_site_type_symbol
_atom_site_fract_x
_atom_site_fract_y
_atom_site_fract_z
Mn1 Mn 0.24572(5) 0.2138(1) 0.48654(6)
O1 O 0.2386(2) 0.3963(4) 0.4981(3)
O2 O 0.3426(2) 0.2337(5) 0.5047(3)
O3 O 0.2262(2) 0.2309(5) 0.3129(3)
O4 O 0.2446(2) 0.3085(5) 0.1591(3)
N1 N 0.1396(3) 0.2021(6) 0.4670(4)
N2 N 0.2585(3) 0.0182(5) 0.4791(4)
C1 C 0.1932(4) 0.4613(6) 0.5428(5)
C2 C 0.2110(4) 0.5873(7) 0.5826(5)
C3 C 0.1638(4) 0.6590(7) 0.6269(6)
C4 C 0.0986(4) 0.6101(8) 0.6338(6)
C5 C 0.0809(4) 0.4883(8) 0.5958(5)
C6 C 0.1272(3) 0.4113(7) 0.5500(5)
C7 C 0.1026(3) 0.2896(8) 0.5020(5)
C8 C 0.1011(4) 0.0924(8) 0.4084(6)
C9 C 0.1318(4) -0.0381(8) 0.4451(6)
C10 C 0.2023(4) -0.0641(7) 0.4186(6)
C11 C 0.3153(4) -0.0380(7) 0.5227(5)
C12 C 0.3784(4) 0.0231(8) 0.5726(5)
C13 C 0.4331(5) -0.0548(9) 0.6292(7)
C14 C 0.4967(5) -0.003(1) 0.6703(8)
C15 C 0.5085(5) 0.127(1) 0.6546(8)
C16 C 0.4568(4) 0.206(1) 0.5997(6)
C17 C 0.3906(3) 0.1558(8) 0.5578(5)
C18 C 0.2624(3) 0.2346(7) 0.2404(4)
C19 C 0.3264(4) 0.1522(9) 0.2495(5)
O4C O 0.2446(2) 0.1915(5) 0.6591(3)
Mn1C Mn 0.24572(5) 0.2862(1) -0.01346(6)
Cl1 Cl 0.0502(1) 0.3614(3) 0.2116(2)
Cl2 Cl 0.0975(2) 0.6109(3) 0.3012(2)
C20 C 0.1245(4) 0.4594(9) 0.2595(6)
Cl3 Cl 0.3058(2) 0.6493(4) 0.3131(3)
Cl4 Cl 0.4070(2) 0.5837(4) 0.5003(4)
C21 C 0.3555(6) 0.520(1) 0.3787(9)
loop_
_geom_bond_atom_site_label_1
_geom_bond_atom_site_label_2
_geom_bond_site_symmetry_1
_geom_bond_site_symmetry_2
Mn1 O1 1_555 1_555
Cl1 C20 1_555 1_555
Cl2 C20 1_555 1_555
Cl3 C21 1_555 1_555
Cl4 C21 1_555 1_555
O1 C1 1_555 1_555
O2 Mn1 1_555 1_555
O3 Mn1 1_555 1_555
O4 C18 1_555 1_555
N1 Mn1 1_555 1_555
N2 Mn1 1_555 1_555
C1 C2 1_555 1_555
C2 C3 1_555 1_555
C3 C4 1_555 1_555
C4 C5 1_555 1_555
C5 C6 1_555 1_555
C6 C1 1_555 1_555
C7 N1 1_555 1_555
C8 N1 1_555 1_555
C9 C8 1_555 1_555
C10 N2 1_555 1_555
C11 N2 1_555 1_555
C12 C11 1_555 1_555
C13 C12 1_555 1_555
C14 C13 1_555 1_555
C15 C14 1_555 1_555
C16 C15 1_555 1_555
C17 O2 1_555 1_555
C18 O3 1_555 1_555
C19 C18 1_555 1_555
O4C Mn1 1_555 1_555
Mn1C O4 1_555 1_555
C6 C7 1_555 1_555
C9 C10 1_555 1_555
C12 C17 1_555 1_555
C16 C17 1_555 1_555

#END
