
#######################################################################
#
#                 Cambridge Crystallographic Data Centre
#                                CCDC 
#
#######################################################################
#
# If this CIF has been generated from an entry in the Cambridge 
# Structural Database, then it will include bibliographic, chemical, 
# crystal, experimental, refinement or atomic coordinate data resulting 
# from the CCDC's data processing and validation procedures.
#
#######################################################################

data_XIXMEY
_symmetry_cell_setting           monoclinic
_symmetry_space_group_name_H-M   'P 21/n'
_symmetry_Int_Tables_number      14
_space_group_name_Hall           '-P 2yn'
loop_
_symmetry_equiv_pos_site_id
_symmetry_equiv_pos_as_xyz
1 x,y,z
2 1/2-x,1/2+y,1/2-z
3 -x,-y,-z
4 1/2+x,1/2-y,1/2+z
_cell_length_a                   19.2099(6)
_cell_length_b                   9.5930(3)
_cell_length_c                   21.3759(7)
_cell_angle_alpha                90
_cell_angle_beta                 101.348(1)
_cell_angle_gamma                90
_cell_volume                     3862.15
loop_
_atom_site_label
_atom_site_type_symbol
_atom_site_fract_x
_atom_site_fract_y
_atom_site_fract_z
C1 C 0.95013(11) -0.0037(2) 0.21961(10)
C2 C 0.97566(11) -0.0353(2) 0.16326(10)
C3 C 0.92847(11) -0.0687(2) 0.10252(10)
C4 C 0.84194(12) -0.1390(2) 0.02320(10)
C5 C 0.77186(12) -0.0692(3) -0.00612(11)
H1 H 0.7340 -0.1059 0.0140
H2 H 0.7605 -0.0884 -0.0520
H3 H 0.7760 0.0317 0.0009
C6 C 0.83663(14) -0.2972(3) 0.01753(12)
H4 H 0.8832 -0.3388 0.0344
H5 H 0.8213 -0.3232 -0.0274
H6 H 0.8020 -0.3315 0.0420
C7 C 0.90417(12) -0.0819(3) -0.00424(11)
H7 H 0.9179 -0.1482 -0.0352
H8 H 0.8917 0.0086 -0.0258
C8 C 1.04892(11) -0.0365(2) 0.16670(11)
H9 H 1.0658 -0.0534 0.1285
C9 C 1.09933(11) -0.0143(2) 0.22301(11)
C10 C 1.17892(11) -0.0197(2) 0.22142(11)
C11 C 1.19625(12) -0.1514(3) 0.18647(12)
H10 H 1.1828 -0.2342 0.2082
H11 H 1.2473 -0.1541 0.1865
H12 H 1.1697 -0.1498 0.1424
C12 C 1.19840(12) 0.1090(3) 0.18546(12)
H13 H 1.1698 0.1099 0.1421
H14 H 1.2489 0.1053 0.1834
H15 H 1.1889 0.1937 0.2080
C13 C 1.22506(12) -0.0195(3) 0.28846(11)
H16 H 1.2167 0.0664 0.3106
H17 H 1.2752 -0.0248 0.2854
H18 H 1.2129 -0.1001 0.3123
C14 C 1.07378(11) 0.0162(2) 0.27803(11)
H19 H 1.1063 0.0310 0.3171
C15 C 1.00116(11) 0.0253(2) 0.27638(10)
C16 C 0.95960(11) 0.0652(2) 0.32256(10)
C17 C 0.97756(12) 0.1189(2) 0.38428(10)
H20 H 1.0261 0.1279 0.4043
C18 C 0.92499(11) 0.1591(2) 0.41660(10)
C19 C 0.94134(12) 0.2310(2) 0.48213(11)
C20 C 0.92202(12) 0.3862(2) 0.47241(12)
H21 H 0.9517 0.4291 0.4452
H22 H 0.9302 0.4334 0.5139
H23 H 0.8719 0.3950 0.4519
C21 C 0.89803(12) 0.1651(3) 0.52778(11)
H24 H 0.9091 0.2124 0.5692
H25 H 0.9101 0.0660 0.5334
H26 H 0.8472 0.1748 0.5098
C22 C 1.02010(12) 0.2208(3) 0.51373(11)
H27 H 1.0489 0.2659 0.4864
H28 H 1.0337 0.1226 0.5196
H29 H 1.0280 0.2676 0.5553
C23 C 0.85398(12) 0.1430(2) 0.38517(10)
H30 H 0.8178 0.1686 0.4075
C24 C 0.83341(11) 0.0915(2) 0.32318(10)
C25 C 0.88772(11) 0.0534(2) 0.29006(10)
C26 C 0.75758(11) 0.0855(2) 0.29455(10)
C27 C 0.64857(11) 0.0539(2) 0.23585(11)
C28 C 0.62972(13) 0.1609(3) 0.18227(11)
H31 H 0.6581 0.2454 0.1935
H32 H 0.5792 0.1841 0.1763
H33 H 0.6398 0.1219 0.1426
C29 C 0.60487(12) -0.0784(2) 0.22132(12)
H34 H 0.6119 -0.1174 0.1806
H35 H 0.5545 -0.0566 0.2185
H36 H 0.6200 -0.1465 0.2554
C30 C 0.64276(11) 0.1170(2) 0.30058(11)
H37 H 0.6097 0.1972 0.2951
H38 H 0.6261 0.0466 0.3282
N1 N 0.88131(9) 0.01000(19) 0.22794(8)
N2 N 0.86286(10) -0.10226(19) 0.09214(9)
N3 N 0.72604(9) 0.02151(19) 0.24450(9)
O1 O 0.96071(8) -0.06536(18) 0.05067(7)
O2 O 0.71485(7) 0.16130(16) 0.32735(7)
Na1 Na 0.78304(4) -0.08568(9) 0.16562(4)
O2A O 0.78515(7) -0.33870(16) 0.17265(7)
Na1A Na 0.71696(4) 0.41432(9) 0.33438(4)
C31 C 0.92807(16) 0.3045(3) 0.00220(17)
H39 H 0.9498 0.3972 0.0079
H40 H 0.9222 0.2767 -0.0427
H41 H 0.9587 0.2372 0.0290
C32 C 0.85643(14) 0.3084(3) 0.02115(14)
C33 C 0.84904(14) 0.2763(3) 0.08325(14)
H42 H 0.8895 0.2492 0.1139
C34 C 0.78366(14) 0.2834(3) 0.10054(13)
H43 H 0.7795 0.2623 0.1431
C35 C 0.72427(15) 0.3212(3) 0.05630(14)
H44 H 0.6793 0.3264 0.0683
C36 C 0.73064(16) 0.3513(3) -0.00517(15)
H45 H 0.6898 0.3762 -0.0359
C37 C 0.79569(16) 0.3454(3) -0.02244(14)
H46 H 0.7992 0.3672 -0.0651
C38 C 0.4678(2) -0.0168(4) 0.35877(10)
H47 H 0.4302 -0.0597 0.3773
H48 H 0.4783 0.0764 0.3770
H49 H 0.5107 -0.0745 0.3684
C39 C 0.44361(13) -0.0053(2) 0.28747(10)
C40 C 0.42418(18) -0.1224(2) 0.25207(12)
H50 H 0.4260 -0.2104 0.2727
C41 C 0.4023(2) -0.1150(3) 0.18793(12)
H51 H 0.3890 -0.1982 0.1646
C42 C 0.39894(18) 0.0086(3) 0.15596(10)
H52 H 0.3839 0.0120 0.1109
C43 C 0.4183(2) 0.1312(2) 0.19156(12)
H53 H 0.4162 0.2192 0.1709
C44 C 0.44029(19) 0.1214(2) 0.25710(12)
H54 H 0.4533 0.2035 0.2814
C45? C 0.3929(5) 0.0306(9) 0.1484(2)
H55? H 0.3647 -0.0492 0.1293
H56? H 0.4340 0.0426 0.1279
H57? H 0.3637 0.1151 0.1422
C46? C 0.4183(3) 0.0052(6) 0.2187(2)
C47? C 0.4201(4) -0.1273(5) 0.2421(3)
H58? H 0.4053 -0.2027 0.2138
C48? C 0.4425(4) -0.1530(5) 0.3052(3)
H59? H 0.4432 -0.2463 0.3201
C49? C 0.4641(4) -0.0486(7) 0.3478(2)
H60? H 0.4793 -0.0682 0.3920
C50? C 0.4633(5) 0.0891(6) 0.3247(3)
H61? H 0.4783 0.1644 0.3531
C51? C 0.4403(4) 0.1131(5) 0.2601(3)
H62? H 0.4397 0.2056 0.2442
C52? C 0.3738(9) -0.1235(15) 0.1257(5)
H63? H 0.3335 -0.1828 0.1303
H64? H 0.4105 -0.1805 0.1123
H65? H 0.3577 -0.0516 0.0936
C53? C 0.4038(6) -0.0552(10) 0.1888(4)
C54? C 0.4175(8) 0.0845(10) 0.1911(5)
H66? H 0.4080 0.1378 0.1529
C55? C 0.4446(9) 0.1483(9) 0.2472(6)
H67? H 0.4535 0.2457 0.2474
C56? C 0.4595(8) 0.0767(12) 0.3033(5)
H68? H 0.4789 0.1228 0.3422
C57? C 0.4453(9) -0.0677(12) 0.3022(4)
H69? H 0.4546 -0.1207 0.3404
C58? C 0.4174(8) -0.1308(9) 0.2444(5)
H70? H 0.4076 -0.2280 0.2433
loop_
_geom_bond_atom_site_label_1
_geom_bond_atom_site_label_2
_geom_bond_site_symmetry_1
_geom_bond_site_symmetry_2
C1 C2 1_555 1_555
C2 C3 1_555 1_555
C3 N2 1_555 1_555
C4 C5 1_555 1_555
C5 H1 1_555 1_555
H2 C5 1_555 1_555
H3 C5 1_555 1_555
C6 C4 1_555 1_555
H4 C6 1_555 1_555
H5 C6 1_555 1_555
H6 C6 1_555 1_555
C7 C4 1_555 1_555
H7 C7 1_555 1_555
H8 C7 1_555 1_555
C8 C2 1_555 1_555
H9 C8 1_555 1_555
C9 C8 1_555 1_555
C10 C9 1_555 1_555
C11 C10 1_555 1_555
H10 C11 1_555 1_555
H11 C11 1_555 1_555
H12 C11 1_555 1_555
C12 C10 1_555 1_555
H13 C12 1_555 1_555
H14 C12 1_555 1_555
H15 C12 1_555 1_555
C13 C10 1_555 1_555
H16 C13 1_555 1_555
H17 C13 1_555 1_555
H18 C13 1_555 1_555
C14 C9 1_555 1_555
H19 C14 1_555 1_555
C15 C1 1_555 1_555
C16 C15 1_555 1_555
C17 C16 1_555 1_555
H20 C17 1_555 1_555
C18 C17 1_555 1_555
C19 C18 1_555 1_555
C20 C19 1_555 1_555
H21 C20 1_555 1_555
H22 C20 1_555 1_555
H23 C20 1_555 1_555
C21 C19 1_555 1_555
H24 C21 1_555 1_555
H25 C21 1_555 1_555
H26 C21 1_555 1_555
C22 C19 1_555 1_555
H27 C22 1_555 1_555
H28 C22 1_555 1_555
H29 C22 1_555 1_555
C23 C18 1_555 1_555
H30 C23 1_555 1_555
C24 C23 1_555 1_555
C25 C16 1_555 1_555
C26 C24 1_555 1_555
C27 C28 1_555 1_555
C28 H31 1_555 1_555
H32 C28 1_555 1_555
H33 C28 1_555 1_555
C29 C27 1_555 1_555
H34 C29 1_555 1_555
H35 C29 1_555 1_555
H36 C29 1_555 1_555
C30 C27 1_555 1_555
H37 C30 1_555 1_555
H38 C30 1_555 1_555
N1 C1 1_555 1_555
N2 C4 1_555 1_555
N3 C26 1_555 1_555
O1 C3 1_555 1_555
O2 C26 1_555 1_555
Na1 N1 1_555 1_555
C31 H39 1_555 1_555
H40 C31 1_555 1_555
H41 C31 1_555 1_555
C32 C31 1_555 1_555
C33 C32 1_555 1_555
H42 C33 1_555 1_555
C34 C33 1_555 1_555
H43 C34 1_555 1_555
C35 C34 1_555 1_555
H44 C35 1_555 1_555
C36 C35 1_555 1_555
H45 C36 1_555 1_555
C37 C32 1_555 1_555
H46 C37 1_555 1_555
C38 H47 1_555 1_555
H48 C38 1_555 1_555
H49 C38 1_555 1_555
C39 C38 1_555 1_555
C40 C39 1_555 1_555
H50 C40 1_555 1_555
C41 C40 1_555 1_555
H51 C41 1_555 1_555
C42 C41 1_555 1_555
H52 C42 1_555 1_555
C43 C42 1_555 1_555
H53 C43 1_555 1_555
C44 C39 1_555 1_555
H54 C44 1_555 1_555
O2A Na1 1_555 1_555
Na1A O2 1_555 1_555
C7 O1 1_555 1_555
C14 C15 1_555 1_555
C24 C25 1_555 1_555
C25 N1 1_555 1_555
C27 N3 1_555 1_555
C30 O2 1_555 1_555
N2 Na1 1_555 1_555
N3 Na1 1_555 1_555
C36 C37 1_555 1_555
C43 C44 1_555 1_555

#END
