
#######################################################################
#
#                 Cambridge Crystallographic Data Centre
#                                CCDC 
#
#######################################################################
#
# If this CIF has been generated from an entry in the Cambridge 
# Structural Database, then it will include bibliographic, chemical, 
# crystal, experimental, refinement or atomic coordinate data resulting 
# from the CCDC's data processing and validation procedures.
#
#######################################################################

data_XIXQAX
_symmetry_cell_setting           triclinic
_symmetry_space_group_name_H-M   'P -1'
_symmetry_Int_Tables_number      2
_space_group_name_Hall           '-P 1'
loop_
_symmetry_equiv_pos_site_id
_symmetry_equiv_pos_as_xyz
1 x,y,z
2 -x,-y,-z
_cell_length_a                   8.8853(11)
_cell_length_b                   11.1795(14)
_cell_length_c                   12.8220(16)
_cell_angle_alpha                70.863(2)
_cell_angle_beta                 87.579(2)
_cell_angle_gamma                71.115(2)
_cell_volume                     1135.58
loop_
_atom_site_label
_atom_site_type_symbol
_atom_site_fract_x
_atom_site_fract_y
_atom_site_fract_z
Ag1 Ag 0.37664(3) 0.87494(2) 0.502639(16)
S1 S 0.45468(8) 0.76169(6) 0.70176(5)
S2 S 0.81846(8) 0.03915(6) 0.65633(5)
O1 O 0.6948(2) 0.07024(17) 0.93809(14)
O2 O 0.3602(2) 0.44796(17) 0.85114(14)
O3 O 0.7186(2) 0.40002(17) 0.68838(16)
O4 O 0.3541(3) 1.0988(2) 0.5286(2)
O5 O 0.2106(3) 1.0619(3) 0.6638(3)
O6 O 0.3653(5) 1.1754(4) 0.6553(3)
N1 N 0.3081(3) 1.1127(2) 0.6188(2)
C1 C 0.6431(4) 0.1203(3) 1.0263(2)
H1 H 0.7328 0.1046 1.0741
H2 H 0.5728 0.0767 1.0691
C2 C 0.5570(4) 0.2687(3) 0.9748(2)
H3 H 0.5192 0.3051 1.0329
H4 H 0.6319 0.3106 0.9372
C3 C 0.4191(3) 0.3047(2) 0.8948(2)
H5 H 0.4528 0.2678 0.8365
H6 H 0.3377 0.2707 0.9316
C4 C 0.2468(3) 0.5088(2) 0.76387(18)
C5 C 0.1758(3) 0.4405(3) 0.7208(2)
H7 H 0.2056 0.3446 0.7514
C6 C 0.0614(4) 0.5109(3) 0.6333(2)
H8 H 0.0116 0.4634 0.6036
C7 C 0.0180(3) 0.6481(3) 0.5883(2)
H9 H -0.0627 0.6965 0.5283
C8 C 0.0918(3) 0.7157(3) 0.6304(2)
H10 H 0.0629 0.8113 0.5980
C9 C 0.2068(3) 0.6485(2) 0.71831(19)
C10 C 0.2810(3) 0.7226(3) 0.7664(2)
H11 H 0.3118 0.6709 0.8430
H12 H 0.2007 0.8054 0.7638
C11 C 0.6086(3) 0.6009(3) 0.7270(2)
H13 H 0.7105 0.6140 0.7242
H14 H 0.6023 0.5443 0.8006
C12 C 0.6011(3) 0.5291(2) 0.6475(2)
H15 H 0.4972 0.5212 0.6438
H16 H 0.6228 0.5773 0.5747
C13 C 0.6977(3) 0.3070(2) 0.6429(2)
H17 H 0.6982 0.3397 0.5638
H18 H 0.5980 0.2922 0.6619
C14 C 0.8342(3) 0.1791(2) 0.6909(2)
H19 H 0.8407 0.1558 0.7700
H20 H 0.9315 0.1944 0.6650
C15 C 0.7086(3) -0.0351(3) 0.7687(2)
H21 H 0.6194 0.0348 0.7798
H22 H 0.6677 -0.0942 0.7478
C16 C 0.8098(3) -0.1120(2) 0.8758(2)
C17 C 0.9157(3) -0.2411(3) 0.8935(2)
H23 H 0.9230 -0.2808 0.8366
C18 C 1.0100(4) -0.3131(3) 0.9907(3)
H24 H 1.0827 -0.4016 1.0010
C19 C 0.9995(3) -0.2572(3) 1.0731(2)
H25 H 1.0662 -0.3065 1.1405
C20 C 0.8929(3) -0.1300(3) 1.0590(2)
H26 H 0.8839 -0.0923 1.1172
C21 C 0.7996(3) -0.0575(2) 0.9606(2)
Ag1A Ag 0.62336(3) 0.12506(2) 0.497361(16)
Ag1A_2 Ag 0.62336(3) 1.12506(2) 0.497361(16)
S2A S 0.18154(8) 0.96085(6) 0.34367(5)
O4A O 0.6459(3) 0.9012(2) 0.4714(2)
loop_
_geom_bond_atom_site_label_1
_geom_bond_atom_site_label_2
_geom_bond_site_symmetry_1
_geom_bond_site_symmetry_2
Ag1 S1 1_555 1_555
S1 C10 1_555 1_555
S2 C14 1_555 1_555
O1 C1 1_555 1_555
O2 C3 1_555 1_555
O3 C12 1_555 1_555
O4 Ag1 1_555 1_555
O5 N1 1_555 1_555
O6 N1 1_555 1_555
N1 O4 1_555 1_555
C1 H1 1_555 1_555
H2 C1 1_555 1_555
C2 C1 1_555 1_555
H3 C2 1_555 1_555
H4 C2 1_555 1_555
C3 C2 1_555 1_555
H5 C3 1_555 1_555
H6 C3 1_555 1_555
C4 O2 1_555 1_555
C5 C4 1_555 1_555
H7 C5 1_555 1_555
C6 C5 1_555 1_555
H8 C6 1_555 1_555
C7 C6 1_555 1_555
H9 C7 1_555 1_555
C8 C7 1_555 1_555
H10 C8 1_555 1_555
C9 C4 1_555 1_555
C10 C9 1_555 1_555
H11 C10 1_555 1_555
H12 C10 1_555 1_555
C11 S1 1_555 1_555
H13 C11 1_555 1_555
H14 C11 1_555 1_555
C12 C11 1_555 1_555
H15 C12 1_555 1_555
H16 C12 1_555 1_555
C13 O3 1_555 1_555
H17 C13 1_555 1_555
H18 C13 1_555 1_555
C14 C13 1_555 1_555
H19 C14 1_555 1_555
H20 C14 1_555 1_555
C15 S2 1_555 1_555
H21 C15 1_555 1_555
H22 C15 1_555 1_555
C16 C15 1_555 1_555
C17 C16 1_555 1_555
H23 C17 1_555 1_555
C18 C17 1_555 1_555
H24 C18 1_555 1_555
C19 C18 1_555 1_555
H25 C19 1_555 1_555
C20 C19 1_555 1_555
H26 C20 1_555 1_555
C21 O1 1_555 1_555
Ag1A S2 1_555 1_555
Ag1A_2 O4 1_555 1_555
S2A Ag1 1_555 1_555
O4A Ag1 1_555 1_555
C8 C9 1_555 1_555
C16 C21 1_555 1_555
C20 C21 1_555 1_555
Ag1A_2 O4A 1_555 1_555

#END
