
#######################################################################
#
#                 Cambridge Crystallographic Data Centre
#                                CCDC 
#
#######################################################################
#
# If this CIF has been generated from an entry in the Cambridge 
# Structural Database, then it will include bibliographic, chemical, 
# crystal, experimental, refinement or atomic coordinate data resulting 
# from the CCDC's data processing and validation procedures.
#
#######################################################################

data_XIXYIN
_symmetry_cell_setting           monoclinic
_symmetry_space_group_name_H-M   'P 21/a'
_symmetry_Int_Tables_number      14
_space_group_name_Hall           '-P 2yab'
loop_
_symmetry_equiv_pos_site_id
_symmetry_equiv_pos_as_xyz
1 x,y,z
2 1/2-x,1/2+y,-z
3 -x,-y,-z
4 1/2+x,1/2-y,z
_cell_length_a                   9.3113(6)
_cell_length_b                   9.9907(8)
_cell_length_c                   14.1822(9)
_cell_angle_alpha                90
_cell_angle_beta                 102.009(7)
_cell_angle_gamma                90
_cell_volume                     1290.45
loop_
_atom_site_label
_atom_site_type_symbol
_atom_site_fract_x
_atom_site_fract_y
_atom_site_fract_z
Sm1 Sm 0.23150(2) 0.084505(17) 0.849693(12)
N1 N 0.0567(4) 0.1186(3) 0.6810(2)
C1 C -0.0491(5) 0.0301(4) 0.6465(3)
C2 C -0.1489(6) 0.0505(5) 0.5606(3)
H1 H -0.2235 -0.0110 0.5392
C3 C -0.1355(6) 0.1651(5) 0.5068(3)
H2 H -0.2009 0.1810 0.4487
C4 C -0.0249(5) 0.2536(5) 0.5408(3)
H3 H -0.0116 0.3294 0.5055
C5 C 0.0665(5) 0.2279(4) 0.6285(3)
H4 H 0.1391 0.2902 0.6525
C6 C -0.0482(5) -0.1000(4) 0.6998(3)
H5 H -0.1469 -0.1366 0.6867
H6 H 0.0146 -0.1631 0.6755
N2 N 0.0036(4) -0.0864(3) 0.8051(2)
C7 C 0.0468(5) -0.2182(3) 0.8476(3)
H7 H 0.0821 -0.2727 0.8006
H8 H -0.0391 -0.2620 0.8621
C8 C 0.1646(5) -0.2115(4) 0.9387(3)
O1 O 0.2350(4) -0.1035(3) 0.9577(2)
O2 O 0.1878(3) -0.3167(3) 0.9875(2)
C9 C -0.1159(5) -0.0308(4) 0.8474(3)
H9 H -0.1069 -0.0651 0.9123
H10 H -0.2096 -0.0603 0.8096
C10 C -0.1128(5) 0.1209(4) 0.8504(3)
O3 O 0.0110(3) 0.1740(3) 0.8808(2)
O4 O -0.2309(3) 0.1822(3) 0.8266(2)
O5 O 0.2931(4) -0.0939(3) 0.7388(2)
O6 O 0.3713(4) 0.1037(3) 0.7152(2)
N3 N 0.3735(4) -0.0193(4) 0.6982(3)
O7 O 0.4494(5) -0.0669(4) 0.6461(3)
O8 O 0.4983(3) 0.0349(3) 0.8989(2)
H11 H 0.5503 -0.0248 0.9342
H12 H 0.5416 0.1104 0.9137
Sm1A Sm 0.26850(2) -0.415495(17) 1.150307(12)
Sm1C Sm -0.26850(2) 0.415495(17) 0.849693(12)
O2A O 0.3122(3) 0.1833(3) 1.0125(2)
O4C O 0.2691(3) 0.3178(3) 0.8266(2)
loop_
_geom_bond_atom_site_label_1
_geom_bond_atom_site_label_2
_geom_bond_site_symmetry_1
_geom_bond_site_symmetry_2
Sm1 N1 1_555 1_555
N1 C1 1_555 1_555
C1 C2 1_555 1_555
C2 H1 1_555 1_555
C3 C2 1_555 1_555
H2 C3 1_555 1_555
C4 C3 1_555 1_555
H3 C4 1_555 1_555
C5 N1 1_555 1_555
H4 C5 1_555 1_555
C6 C1 1_555 1_555
H5 C6 1_555 1_555
H6 C6 1_555 1_555
N2 Sm1 1_555 1_555
C7 N2 1_555 1_555
H7 C7 1_555 1_555
H8 C7 1_555 1_555
C8 C7 1_555 1_555
O1 Sm1 1_555 1_555
O2 C8 1_555 1_555
C9 N2 1_555 1_555
H9 C9 1_555 1_555
H10 C9 1_555 1_555
C10 C9 1_555 1_555
O3 Sm1 1_555 1_555
O4 C10 1_555 1_555
O5 Sm1 1_555 1_555
O6 Sm1 1_555 1_555
N3 O5 1_555 1_555
O7 N3 1_555 1_555
O8 Sm1 1_555 1_555
H11 O8 1_555 1_555
H12 O8 1_555 1_555
Sm1A O2 1_555 1_555
Sm1C O4 1_555 1_555
O2A Sm1 1_555 1_555
O4C Sm1 1_555 1_555
C4 C5 1_555 1_555
C6 N2 1_555 1_555
C8 O1 1_555 1_555
C10 O3 1_555 1_555
O6 N3 1_555 1_555

#END
