
#######################################################################
#
#                 Cambridge Crystallographic Data Centre
#                                CCDC 
#
#######################################################################
#
# If this CIF has been generated from an entry in the Cambridge 
# Structural Database, then it will include bibliographic, chemical, 
# crystal, experimental, refinement or atomic coordinate data resulting 
# from the CCDC's data processing and validation procedures.
#
#######################################################################

data_XIXYEJ
_symmetry_cell_setting           monoclinic
_symmetry_space_group_name_H-M   'P 21/a'
_symmetry_Int_Tables_number      14
_space_group_name_Hall           '-P 2yab'
loop_
_symmetry_equiv_pos_site_id
_symmetry_equiv_pos_as_xyz
1 x,y,z
2 1/2-x,1/2+y,-z
3 -x,-y,-z
4 1/2+x,1/2-y,z
_cell_length_a                   9.2337(8)
_cell_length_b                   10.0853(6)
_cell_length_c                   14.2457(12)
_cell_angle_alpha                90
_cell_angle_beta                 101.670(10)
_cell_angle_gamma                90
_cell_volume                     1299.2
loop_
_atom_site_label
_atom_site_type_symbol
_atom_site_fract_x
_atom_site_fract_y
_atom_site_fract_z
Nd1 Nd 0.232579(19) 0.088470(18) 0.848946(13)
N1 N 0.0560(3) 0.1164(3) 0.6787(2)
C1 C -0.0518(4) 0.0276(4) 0.6455(3)
C2 C -0.1527(5) 0.0474(5) 0.5612(3)
H1 H -0.2285 -0.0133 0.5412
C3 C -0.1396(5) 0.1591(5) 0.5067(3)
H2 H -0.2059 0.1736 0.4491
C4 C -0.0281(5) 0.2477(5) 0.5385(3)
H3 H -0.0155 0.3221 0.5025
C5 C 0.0653(4) 0.2237(4) 0.6259(3)
H4 H 0.1384 0.2858 0.6488
C6 C -0.0468(4) -0.1002(4) 0.6995(3)
H5 H -0.1448 -0.1393 0.6863
H6 H 0.0191 -0.1608 0.6758
N2 N 0.0030(3) -0.0866(3) 0.8045(2)
C7 C 0.0490(4) -0.2155(4) 0.8476(3)
H7 H 0.0881 -0.2684 0.8015
H8 H -0.0373 -0.2610 0.8607
C8 C 0.1641(4) -0.2074(4) 0.9393(3)
O1 O 0.2314(3) -0.0995(3) 0.95833(19)
O2 O 0.1880(3) -0.3115(3) 0.98787(19)
C9 C -0.1185(4) -0.0317(4) 0.8462(3)
H9 H -0.1087 -0.0643 0.9113
H10 H -0.2122 -0.0633 0.8095
C10 C -0.1201(4) 0.1176(4) 0.8476(3)
O3 O 0.0019(3) 0.1745(3) 0.8767(2)
O4 O -0.2416(3) 0.1755(3) 0.8236(2)
O5 O 0.2964(3) -0.0909(3) 0.7370(2)
O6 O 0.3774(3) 0.1048(3) 0.7149(2)
N3 N 0.3799(4) -0.0171(4) 0.6978(2)
O7 O 0.4579(4) -0.0644(4) 0.6468(3)
O8 O 0.5022(3) 0.0312(3) 0.8987(2)
H11 H 0.5606 -0.0304 0.9336
H12 H 0.5541 0.1024 0.9243
Nd1A Nd 0.267421(19) -0.411530(18) 1.151054(13)
Nd1C Nd -0.267421(19) 0.411530(18) 0.848946(13)
O2A O 0.3120(3) 0.1885(3) 1.01213(19)
O4C O 0.2584(3) 0.3245(3) 0.8236(2)
loop_
_geom_bond_atom_site_label_1
_geom_bond_atom_site_label_2
_geom_bond_site_symmetry_1
_geom_bond_site_symmetry_2
Nd1 N1 1_555 1_555
N1 C1 1_555 1_555
C1 C2 1_555 1_555
C2 H1 1_555 1_555
C3 C2 1_555 1_555
H2 C3 1_555 1_555
C4 C3 1_555 1_555
H3 C4 1_555 1_555
C5 N1 1_555 1_555
H4 C5 1_555 1_555
C6 C1 1_555 1_555
H5 C6 1_555 1_555
H6 C6 1_555 1_555
N2 Nd1 1_555 1_555
C7 N2 1_555 1_555
H7 C7 1_555 1_555
H8 C7 1_555 1_555
C8 C7 1_555 1_555
O1 Nd1 1_555 1_555
O2 C8 1_555 1_555
C9 N2 1_555 1_555
H9 C9 1_555 1_555
H10 C9 1_555 1_555
C10 C9 1_555 1_555
O3 Nd1 1_555 1_555
O4 C10 1_555 1_555
O5 Nd1 1_555 1_555
O6 Nd1 1_555 1_555
N3 O5 1_555 1_555
O7 N3 1_555 1_555
O8 Nd1 1_555 1_555
H11 O8 1_555 1_555
H12 O8 1_555 1_555
Nd1A O2 1_555 1_555
Nd1C O4 1_555 1_555
O2A Nd1 1_555 1_555
O4C Nd1 1_555 1_555
C4 C5 1_555 1_555
C6 N2 1_555 1_555
C8 O1 1_555 1_555
C10 O3 1_555 1_555
O6 N3 1_555 1_555

#END
