
#######################################################################
#
#                 Cambridge Crystallographic Data Centre
#                                CCDC 
#
#######################################################################
#
# If this CIF has been generated from an entry in the Cambridge 
# Structural Database, then it will include bibliographic, chemical, 
# crystal, experimental, refinement or atomic coordinate data resulting 
# from the CCDC's data processing and validation procedures.
#
#######################################################################

data_XIXYUZ
_symmetry_cell_setting           monoclinic
_symmetry_space_group_name_H-M   'P 21/a'
_symmetry_Int_Tables_number      14
_space_group_name_Hall           '-P 2yab'
loop_
_symmetry_equiv_pos_site_id
_symmetry_equiv_pos_as_xyz
1 x,y,z
2 1/2-x,1/2+y,-z
3 -x,-y,-z
4 1/2+x,1/2-y,z
_cell_length_a                   9.3751(6)
_cell_length_b                   9.8393(9)
_cell_length_c                   14.1307(9)
_cell_angle_alpha                90
_cell_angle_beta                 102.543(7)
_cell_angle_gamma                90
_cell_volume                     1272.37
loop_
_atom_site_label
_atom_site_type_symbol
_atom_site_fract_x
_atom_site_fract_y
_atom_site_fract_z
Dy1 Dy 0.22990(2) 0.081397(18) 0.850877(14)
N1 N 0.0583(4) 0.1232(4) 0.6849(3)
C1 C -0.0467(5) 0.0347(4) 0.6476(3)
C2 C -0.1441(6) 0.0575(5) 0.5603(3)
H1 H -0.2189 -0.0040 0.5372
C3 C -0.1285(6) 0.1724(5) 0.5084(4)
H2 H -0.1922 0.1895 0.4493
C4 C -0.0185(6) 0.2613(5) 0.5444(3)
H3 H -0.0043 0.3385 0.5096
C5 C 0.0709(6) 0.2345(5) 0.6331(3)
H4 H 0.1438 0.2969 0.6584
C6 C -0.0470(6) -0.0981(5) 0.7000(3)
H5 H -0.1456 -0.1343 0.6861
H6 H 0.0147 -0.1622 0.6754
N2 N 0.0048(4) -0.0862(3) 0.8058(2)
C7 C 0.0487(6) -0.2208(4) 0.8479(3)
H7 H 0.0820 -0.2759 0.8001
H8 H -0.0360 -0.2653 0.8631
C8 C 0.1678(5) -0.2142(4) 0.9384(3)
O1 O 0.2381(4) -0.1055(3) 0.9564(2)
O2 O 0.1901(4) -0.3218(3) 0.9874(2)
C9 C -0.1119(6) -0.0284(4) 0.8482(4)
H9 H -0.1037 -0.0648 0.9130
H10 H -0.2060 -0.0558 0.8094
C10 C -0.1052(6) 0.1253(4) 0.8535(3)
O3 O 0.0204(4) 0.1753(3) 0.8836(2)
O4 O -0.2212(4) 0.1903(3) 0.8312(2)
O5 O 0.2868(4) -0.0965(3) 0.7424(2)
O6 O 0.3641(4) 0.1032(3) 0.7164(2)
N3 N 0.3652(5) -0.0215(4) 0.6993(3)
O7 O 0.4361(5) -0.0717(4) 0.6461(3)
O8 O 0.4894(4) 0.0399(3) 0.8993(2)
H11 H 0.5556 -0.0134 0.9316
H12 H 0.5407 0.1178 0.9063
Dy1A Dy 0.27010(2) -0.418603(18) 1.149123(14)
Dy1C Dy -0.27010(2) 0.418603(18) 0.850877(14)
O2A O 0.3099(4) 0.1782(3) 1.0126(2)
O4C O 0.2788(4) 0.3097(3) 0.8312(2)
loop_
_geom_bond_atom_site_label_1
_geom_bond_atom_site_label_2
_geom_bond_site_symmetry_1
_geom_bond_site_symmetry_2
Dy1 N1 1_555 1_555
N1 C1 1_555 1_555
C1 C2 1_555 1_555
C2 H1 1_555 1_555
C3 C2 1_555 1_555
H2 C3 1_555 1_555
C4 C3 1_555 1_555
H3 C4 1_555 1_555
C5 N1 1_555 1_555
H4 C5 1_555 1_555
C6 C1 1_555 1_555
H5 C6 1_555 1_555
H6 C6 1_555 1_555
N2 Dy1 1_555 1_555
C7 N2 1_555 1_555
H7 C7 1_555 1_555
H8 C7 1_555 1_555
C8 C7 1_555 1_555
O1 Dy1 1_555 1_555
O2 C8 1_555 1_555
C9 N2 1_555 1_555
H9 C9 1_555 1_555
H10 C9 1_555 1_555
C10 C9 1_555 1_555
O3 Dy1 1_555 1_555
O4 C10 1_555 1_555
O5 Dy1 1_555 1_555
O6 Dy1 1_555 1_555
N3 O5 1_555 1_555
O7 N3 1_555 1_555
O8 Dy1 1_555 1_555
H11 O8 1_555 1_555
H12 O8 1_555 1_555
Dy1A O2 1_555 1_555
Dy1C O4 1_555 1_555
O2A Dy1 1_555 1_555
O4C Dy1 1_555 1_555
C4 C5 1_555 1_555
C6 N2 1_555 1_555
C8 O1 1_555 1_555
C10 O3 1_555 1_555
O6 N3 1_555 1_555

#END
