
#######################################################################
#
#                 Cambridge Crystallographic Data Centre
#                                CCDC 
#
#######################################################################
#
# If this CIF has been generated from an entry in the Cambridge 
# Structural Database, then it will include bibliographic, chemical, 
# crystal, experimental, refinement or atomic coordinate data resulting 
# from the CCDC's data processing and validation procedures.
#
#######################################################################

data_XIXYOT
_symmetry_cell_setting           monoclinic
_symmetry_space_group_name_H-M   'P 21/a'
_symmetry_Int_Tables_number      14
_space_group_name_Hall           '-P 2yab'
loop_
_symmetry_equiv_pos_site_id
_symmetry_equiv_pos_as_xyz
1 x,y,z
2 1/2-x,1/2+y,-z
3 -x,-y,-z
4 1/2+x,1/2-y,z
_cell_length_a                   9.3645(7)
_cell_length_b                   9.9159(10)
_cell_length_c                   14.1522(10)
_cell_angle_alpha                90
_cell_angle_beta                 102.216(9)
_cell_angle_gamma                90
_cell_volume                     1284.38
loop_
_atom_site_label
_atom_site_type_symbol
_atom_site_fract_x
_atom_site_fract_y
_atom_site_fract_z
Gd1 Gd 0.23078(3) 0.08251(2) 0.850235(16)
N1 N 0.0579(5) 0.1211(4) 0.6831(3)
C1 C -0.0490(6) 0.0328(5) 0.6467(4)
C2 C -0.1463(7) 0.0545(6) 0.5604(4)
H1 H -0.2207 -0.0071 0.5380
C3 C -0.1318(7) 0.1689(6) 0.5076(4)
H2 H -0.1960 0.1855 0.4491
C4 C -0.0213(6) 0.2572(6) 0.5431(4)
H3 H -0.0077 0.3339 0.5083
C5 C 0.0689(7) 0.2312(5) 0.6306(4)
H4 H 0.1418 0.2935 0.6549
C6 C -0.0473(6) -0.0994(5) 0.7000(4)
H5 H -0.1453 -0.1367 0.6866
H6 H 0.0155 -0.1623 0.6756
N2 N 0.0040(5) -0.0867(4) 0.8057(3)
C7 C 0.0470(6) -0.2196(4) 0.8483(4)
H7 H 0.0804 -0.2748 0.8007
H8 H -0.0382 -0.2630 0.8635
C8 C 0.1655(6) -0.2137(4) 0.9385(4)
O1 O 0.2369(4) -0.1054(3) 0.9570(3)
O2 O 0.1885(4) -0.3200(3) 0.9877(3)
C9 C -0.1131(6) -0.0299(5) 0.8480(4)
H9 H -0.1046 -0.0653 0.9128
H10 H -0.2068 -0.0581 0.8097
C10 C -0.1081(6) 0.1228(5) 0.8523(3)
O3 O 0.0161(4) 0.1739(3) 0.8825(3)
O4 O -0.2242(4) 0.1862(3) 0.8289(3)
O5 O 0.2894(4) -0.0959(3) 0.7405(3)
O6 O 0.3668(5) 0.1028(3) 0.7153(3)
N3 N 0.3680(5) -0.0209(4) 0.6985(3)
O7 O 0.4415(6) -0.0693(4) 0.6454(3)
O8 O 0.4935(4) 0.0376(4) 0.8991(3)
H11 H 0.5521 -0.0250 0.9268
H12 H 0.5507 0.1074 0.9120
Gd1A Gd 0.26922(3) -0.41749(2) 1.149765(16)
Gd1C Gd -0.26922(3) 0.41749(2) 0.850235(16)
O2A O 0.3115(4) 0.1800(3) 1.0123(3)
O4C O 0.2758(4) 0.3138(3) 0.8289(3)
loop_
_geom_bond_atom_site_label_1
_geom_bond_atom_site_label_2
_geom_bond_site_symmetry_1
_geom_bond_site_symmetry_2
Gd1 N1 1_555 1_555
N1 C1 1_555 1_555
C1 C2 1_555 1_555
C2 H1 1_555 1_555
C3 C2 1_555 1_555
H2 C3 1_555 1_555
C4 C3 1_555 1_555
H3 C4 1_555 1_555
C5 N1 1_555 1_555
H4 C5 1_555 1_555
C6 C1 1_555 1_555
H5 C6 1_555 1_555
H6 C6 1_555 1_555
N2 Gd1 1_555 1_555
C7 N2 1_555 1_555
H7 C7 1_555 1_555
H8 C7 1_555 1_555
C8 C7 1_555 1_555
O1 Gd1 1_555 1_555
O2 C8 1_555 1_555
C9 N2 1_555 1_555
H9 C9 1_555 1_555
H10 C9 1_555 1_555
C10 C9 1_555 1_555
O3 Gd1 1_555 1_555
O4 C10 1_555 1_555
O5 Gd1 1_555 1_555
O6 Gd1 1_555 1_555
N3 O5 1_555 1_555
O7 N3 1_555 1_555
O8 Gd1 1_555 1_555
H11 O8 1_555 1_555
H12 O8 1_555 1_555
Gd1A O2 1_555 1_555
Gd1C O4 1_555 1_555
O2A Gd1 1_555 1_555
O4C Gd1 1_555 1_555
C4 C5 1_555 1_555
C6 N2 1_555 1_555
C8 O1 1_555 1_555
C10 O3 1_555 1_555
O6 N3 1_555 1_555

#END
