
#######################################################################
#
#                 Cambridge Crystallographic Data Centre
#                                CCDC 
#
#######################################################################
#
# If this CIF has been generated from an entry in the Cambridge 
# Structural Database, then it will include bibliographic, chemical, 
# crystal, experimental, refinement or atomic coordinate data resulting 
# from the CCDC's data processing and validation procedures.
#
#######################################################################

data_XIXZAG
_symmetry_cell_setting           monoclinic
_symmetry_space_group_name_H-M   'P 21/a'
_symmetry_Int_Tables_number      14
_space_group_name_Hall           '-P 2yab'
loop_
_symmetry_equiv_pos_site_id
_symmetry_equiv_pos_as_xyz
1 x,y,z
2 1/2-x,1/2+y,-z
3 -x,-y,-z
4 1/2+x,1/2-y,z
_cell_length_a                   9.3837(7)
_cell_length_b                   9.8076(5)
_cell_length_c                   14.1347(11)
_cell_angle_alpha                90
_cell_angle_beta                 102.718(9)
_cell_angle_gamma                90
_cell_volume                     1268.92
loop_
_atom_site_label
_atom_site_type_symbol
_atom_site_fract_x
_atom_site_fract_y
_atom_site_fract_z
Er1 Er 0.22937(3) 0.08076(2) 0.851201(15)
N1 N 0.0597(5) 0.1246(4) 0.6859(3)
C1 C -0.0456(6) 0.0361(5) 0.6477(4)
C2 C -0.1430(7) 0.0592(6) 0.5604(4)
H1 H -0.2179 -0.0022 0.5370
C3 C -0.1265(7) 0.1759(6) 0.5086(4)
H2 H -0.1900 0.1938 0.4495
C4 C -0.0156(7) 0.2642(6) 0.5457(4)
H3 H -0.0008 0.3419 0.5114
C5 C 0.0734(7) 0.2368(6) 0.6343(4)
H4 H 0.1468 0.2988 0.6598
C6 C -0.0475(7) -0.0978(5) 0.6999(4)
H5 H -0.1466 -0.1329 0.6862
H6 H 0.0130 -0.1629 0.6751
N2 N 0.0054(5) -0.0860(4) 0.8056(3)
C7 C 0.0487(6) -0.2213(4) 0.8483(4)
H7 H 0.0818 -0.2770 0.8006
H8 H -0.0361 -0.2654 0.8633
C8 C 0.1683(6) -0.2145(5) 0.9393(3)
O1 O 0.2395(4) -0.1050(3) 0.9565(3)
O2 O 0.1911(5) -0.3227(3) 0.9878(3)
C9 C -0.1113(7) -0.0286(5) 0.8483(4)
H9 H -0.1027 -0.0655 0.9130
H10 H -0.2055 -0.0559 0.8094
C10 C -0.1042(6) 0.1253(5) 0.8540(4)
O3 O 0.0226(4) 0.1760(3) 0.8840(3)
O4 O -0.2195(4) 0.1916(3) 0.8320(3)
O5 O 0.2847(4) -0.0964(4) 0.7432(3)
O6 O 0.3627(5) 0.1033(4) 0.7170(3)
N3 N 0.3618(6) -0.0225(5) 0.7000(3)
O7 O 0.4321(6) -0.0727(5) 0.6452(3)
O8 O 0.4862(4) 0.0411(4) 0.8992(3)
H11 H 0.5397 -0.0185 0.9289
H12 H 0.5415 0.1115 0.9001
Er1A Er 0.27063(3) -0.41924(2) 1.148799(15)
Er1C Er -0.27063(3) 0.41924(2) 0.851201(15)
O2A O 0.3089(5) 0.1773(3) 1.0122(3)
O4C O 0.2805(4) 0.3084(3) 0.8320(3)
loop_
_geom_bond_atom_site_label_1
_geom_bond_atom_site_label_2
_geom_bond_site_symmetry_1
_geom_bond_site_symmetry_2
Er1 N1 1_555 1_555
N1 C1 1_555 1_555
C1 C2 1_555 1_555
C2 H1 1_555 1_555
C3 C2 1_555 1_555
H2 C3 1_555 1_555
C4 C3 1_555 1_555
H3 C4 1_555 1_555
C5 N1 1_555 1_555
H4 C5 1_555 1_555
C6 C1 1_555 1_555
H5 C6 1_555 1_555
H6 C6 1_555 1_555
N2 Er1 1_555 1_555
C7 N2 1_555 1_555
H7 C7 1_555 1_555
H8 C7 1_555 1_555
C8 C7 1_555 1_555
O1 Er1 1_555 1_555
O2 C8 1_555 1_555
C9 N2 1_555 1_555
H9 C9 1_555 1_555
H10 C9 1_555 1_555
C10 C9 1_555 1_555
O3 Er1 1_555 1_555
O4 C10 1_555 1_555
O5 Er1 1_555 1_555
O6 Er1 1_555 1_555
N3 O5 1_555 1_555
O7 N3 1_555 1_555
O8 Er1 1_555 1_555
H11 O8 1_555 1_555
H12 O8 1_555 1_555
Er1A O2 1_555 1_555
Er1C O4 1_555 1_555
O2A Er1 1_555 1_555
O4C Er1 1_555 1_555
C4 C5 1_555 1_555
C6 N2 1_555 1_555
C8 O1 1_555 1_555
C10 O3 1_555 1_555
O6 N3 1_555 1_555

#END
