
#######################################################################
#
#                 Cambridge Crystallographic Data Centre
#                                CCDC 
#
#######################################################################
#
# If this CIF has been generated from an entry in the Cambridge 
# Structural Database, then it will include bibliographic, chemical, 
# crystal, experimental, refinement or atomic coordinate data resulting 
# from the CCDC's data processing and validation procedures.
#
#######################################################################

data_XIYBUE
_symmetry_cell_setting           triclinic
_symmetry_space_group_name_H-M   'P -1'
_symmetry_Int_Tables_number      2
_space_group_name_Hall           '-P 1'
loop_
_symmetry_equiv_pos_site_id
_symmetry_equiv_pos_as_xyz
1 x,y,z
2 -x,-y,-z
_cell_length_a                   7.5108(2)
_cell_length_b                   8.1831(2)
_cell_length_c                   17.6865(4)
_cell_angle_alpha                92.283(2)
_cell_angle_beta                 94.663(2)
_cell_angle_gamma                97.343(2)
_cell_volume                     1073.17
loop_
_atom_site_label
_atom_site_type_symbol
_atom_site_fract_x
_atom_site_fract_y
_atom_site_fract_z
Zn1 Zn 0.22158(3) 0.18379(3) 0.326980(13)
O1 O 0.2432(2) 0.00187(18) 0.24373(8)
O2 O 0.36888(19) 0.25089(17) 0.22432(8)
O3 O -0.1900(2) 1.02146(17) 0.21628(8)
O4 O -0.2324(2) 0.54514(16) 0.07250(8)
N1 N 0.0637(2) 0.36712(18) 0.30911(8)
N2 N -0.2019(2) 0.78230(18) 0.14566(8)
C1 C -0.1159(3) 0.3328(2) 0.30584(10)
H1 H -0.1667 0.2340 0.3267
C2 C -0.2308(3) 0.4348(2) 0.27339(10)
H2 H -0.3576 0.4046 0.2710
C3 C -0.1592(3) 0.5818(2) 0.24433(9)
C4 C 0.0274(3) 0.6239(2) 0.25262(11)
H3 H 0.0809 0.7273 0.2370
C5 C 0.1336(3) 0.5134(2) 0.28385(11)
H4 H 0.2608 0.5413 0.2877
C6 C -0.2851(3) 0.6892(2) 0.20565(11)
H5 H -0.3954 0.6188 0.1834
H6 H -0.3210 0.7673 0.2440
C7 C -0.1580(2) 0.9541(2) 0.15799(10)
C8 C -0.0734(2) 1.0440(2) 0.09591(10)
C9 C -0.0414(2) 0.9568(2) 0.02913(10)
C10 C -0.0928(2) 0.7843(2) 0.01854(10)
C11 C -0.1812(3) 0.6927(2) 0.07900(10)
C12 C -0.0247(3) 1.2132(2) 0.10463(10)
H7 H -0.0482 1.2713 0.1495
C13 C -0.0594(3) 0.7012(2) -0.04710(10)
H8 H -0.0935 0.5853 -0.0535
C14 C 0.3326(2) 0.1015(2) 0.20358(10)
C15 C 0.3895(2) 0.0372(2) 0.12989(10)
C16 C 0.4720(3) 0.1436(2) 0.08185(11)
H9 H 0.4978 0.2577 0.0965
C17 C 0.5200(2) 0.0859(2) 0.01015(11)
C18 C 0.3973(3) -0.1943(2) 0.04072(11)
H10 H 0.3732 -0.3091 0.0275
C19 C 0.3517(3) -0.1345(2) 0.10897(11)
H11 H 0.2945 -0.2080 0.1426
O5 O 0.0319(2) 0.05071(17) 0.38275(8)
N3 N -0.1040(2) -0.18143(19) 0.42889(9)
C20 C 0.0390(3) -0.0860(2) 0.41098(10)
H12 H 0.1534 -0.1227 0.4199
C21 C -0.0878(3) -0.3364(2) 0.46533(12)
H13 H 0.0373 -0.3592 0.4666
H14 H -0.1668 -0.4262 0.4366
H15 H -0.1232 -0.3278 0.5173
C22 C -0.28366(11) -0.13561(13) 0.41496(12)
H16 H -0.3177 -0.0819 0.4611
H17 H -0.3694 -0.2347 0.4007
H18 H -0.2851 -0.0593 0.3737
O6 O 0.42829(12) 0.14910(12) 0.40196(5)
O7 O 0.65146(12) 0.29434(12) 0.46780(5)
O8 O 0.45926(11) 0.41430(11) 0.39861(5)
N4 N 0.51726(12) 0.28904(11) 0.42400(5)
O1A O 0.7568(2) -0.00187(18) -0.24373(8)
O2A O 0.63112(19) -0.25089(17) -0.22432(8)
C14A C 0.6674(2) -0.1015(2) -0.20358(10)
C15A C 0.6105(2) -0.0372(2) -0.12989(10)
C16A C 0.5280(3) -0.1436(2) -0.08185(11)
H9A H 0.5022 -0.2577 -0.0965
C17A C 0.4800(2) -0.0859(2) -0.01015(11)
C18A C 0.6027(3) 0.1943(2) -0.04072(11)
H10A H 0.6268 0.3091 -0.0275
C19A C 0.6483(3) 0.1345(2) -0.10897(11)
H11A H 0.7055 0.2080 -0.1426
O3A O 0.1900(2) 0.97854(17) -0.21628(8)
O4A O 0.2324(2) 1.45486(16) -0.07250(8)
N1A N -0.0637(2) 1.63288(18) -0.30911(8)
N2A N 0.2019(2) 1.21770(18) -0.14566(8)
C1A C 0.1159(3) 1.6672(2) -0.30584(10)
H1A H 0.1667 1.7660 -0.3267
C2A C 0.2308(3) 1.5652(2) -0.27339(10)
H2A H 0.3576 1.5954 -0.2710
C3A C 0.1592(3) 1.4182(2) -0.24433(9)
C4A C -0.0274(3) 1.3761(2) -0.25262(11)
H3A H -0.0809 1.2727 -0.2370
C5A C -0.1336(3) 1.4866(2) -0.28385(11)
H4A H -0.2608 1.4587 -0.2877
C6A C 0.2851(3) 1.3108(2) -0.20565(11)
H5A H 0.3954 1.3812 -0.1834
H6A H 0.3210 1.2327 -0.2440
C7A C 0.1580(2) 1.0459(2) -0.15799(10)
C8A C 0.0734(2) 0.9560(2) -0.09591(10)
C9A C 0.0414(2) 1.0432(2) -0.02913(10)
C10A C 0.0928(2) 1.2157(2) -0.01854(10)
C11A C 0.1812(3) 1.3073(2) -0.07900(10)
C12A C 0.0247(3) 0.7868(2) -0.10463(10)
H7A H 0.0482 0.7287 -0.1495
C13A C 0.0594(3) 1.2988(2) 0.04710(10)
H8A H 0.0935 1.4147 0.0535
Zn1A Zn -0.22158(3) 1.81621(3) -0.326980(13)
O5A O -0.0319(2) 1.94929(17) -0.38275(8)
N3A N 0.1040(2) 2.18143(19) -0.42889(9)
C20A C -0.0390(3) 2.0860(2) -0.41098(10)
H12A H -0.1534 2.1227 -0.4199
C21A C 0.0878(3) 2.3364(2) -0.46533(12)
H13A H -0.0373 2.3592 -0.4666
H14A H 0.1668 2.4262 -0.4366
H15A H 0.1232 2.3278 -0.5173
C22A C 0.28366(11) 2.13561(13) -0.41496(12)
H16A H 0.3177 2.0819 -0.4611
H17A H 0.3694 2.2347 -0.4007
H18A H 0.2851 2.0593 -0.3737
O6A O -0.42829(12) 1.85090(12) -0.40196(5)
O7A O -0.65146(12) 1.70566(12) -0.46780(5)
O8A O -0.45926(11) 1.58570(11) -0.39861(5)
N4A N -0.51726(12) 1.71096(11) -0.42400(5)
Zn1A_2 Zn 0.77842(3) -0.18379(3) -0.326980(13)
O1A_2 O -0.2432(2) 1.99813(18) -0.24373(8)
O2A_2 O -0.36888(19) 1.74911(17) -0.22432(8)
loop_
_geom_bond_atom_site_label_1
_geom_bond_atom_site_label_2
_geom_bond_site_symmetry_1
_geom_bond_site_symmetry_2
Zn1 O1 1_555 1_555
O1 C14 1_555 1_555
O2 Zn1 1_555 1_555
O3 C7 1_555 1_555
O4 C11 1_555 1_555
N1 Zn1 1_555 1_555
N2 C6 1_555 1_555
C1 N1 1_555 1_555
H1 C1 1_555 1_555
C2 C1 1_555 1_555
H2 C2 1_555 1_555
C3 C2 1_555 1_555
C4 C3 1_555 1_555
H3 C4 1_555 1_555
C5 N1 1_555 1_555
H4 C5 1_555 1_555
C6 C3 1_555 1_555
H5 C6 1_555 1_555
H6 C6 1_555 1_555
C7 N2 1_555 1_555
C8 C7 1_555 1_555
C9 C8 1_555 1_555
C10 C9 1_555 1_555
C11 N2 1_555 1_555
C12 C8 1_555 1_555
H7 C12 1_555 1_555
C13 C10 1_555 1_555
H8 C13 1_555 1_555
C14 O2 1_555 1_555
C15 C14 1_555 1_555
C16 C15 1_555 1_555
H9 C16 1_555 1_555
C17 C16 1_555 1_555
C18 H10 1_555 1_555
C19 C15 1_555 1_555
H11 C19 1_555 1_555
O5 Zn1 1_555 1_555
N3 C20 1_555 1_555
C20 O5 1_555 1_555
H12 C20 1_555 1_555
C21 N3 1_555 1_555
H13 C21 1_555 1_555
H14 C21 1_555 1_555
H15 C21 1_555 1_555
C22 N3 1_555 1_555
H16 C22 1_555 1_555
H17 C22 1_555 1_555
H18 C22 1_555 1_555
O6 Zn1 1_555 1_555
O7 N4 1_555 1_555
O8 N4 1_555 1_555
N4 O6 1_555 1_555
O1A C14A 1_555 1_555
O2A C14A 1_555 1_555
C14A C15A 1_555 1_555
C15A C16A 1_555 1_555
C16A H9A 1_555 1_555
C17A C17 1_555 1_555
C18A C17 1_555 1_555
H10A C18A 1_555 1_555
C19A C15A 1_555 1_555
H11A C19A 1_555 1_555
O3A C7A 1_555 1_555
O4A C11A 1_555 1_555
N1A C1A 1_555 1_555
N2A C6A 1_555 1_555
C1A H1A 1_555 1_555
C2A C1A 1_555 1_555
H2A C2A 1_555 1_555
C3A C2A 1_555 1_555
C4A C3A 1_555 1_555
H3A C4A 1_555 1_555
C5A N1A 1_555 1_555
H4A C5A 1_555 1_555
C6A C3A 1_555 1_555
H5A C6A 1_555 1_555
H6A C6A 1_555 1_555
C7A N2A 1_555 1_555
C8A C7A 1_555 1_555
C9A C9 1_555 1_555
C10A C9A 1_555 1_555
C11A N2A 1_555 1_555
C12A C13 1_555 1_555
H7A C12A 1_555 1_555
C13A C12 1_555 1_555
H8A C13A 1_555 1_555
Zn1A N1A 1_555 1_555
O5A Zn1A 1_555 1_555
N3A C20A 1_555 1_555
C20A O5A 1_555 1_555
H12A C20A 1_555 1_555
C21A N3A 1_555 1_555
H13A C21A 1_555 1_555
H14A C21A 1_555 1_555
H15A C21A 1_555 1_555
C22A N3A 1_555 1_555
H16A C22A 1_555 1_555
H17A C22A 1_555 1_555
H18A C22A 1_555 1_555
O6A Zn1A 1_555 1_555
O7A N4A 1_555 1_555
O8A N4A 1_555 1_555
N4A O6A 1_555 1_555
Zn1A_2 O1A 1_555 1_555
O1A_2 Zn1A 1_555 1_555
O2A_2 Zn1A 1_555 1_555
C4 C5 1_555 1_555
C10 C11 1_555 1_555
C18 C19 1_555 1_555
C18 C17A 1_555 1_555
O2A Zn1A_2 1_555 1_555
C16A C17A 1_555 1_555
C18A C19A 1_555 1_555
C4A C5A 1_555 1_555
C8A C9A 1_555 1_555
C8A C12A 1_555 1_555
C10A C11A 1_555 1_555
C10A C13A 1_555 1_555

#END
