
#######################################################################
#
#                 Cambridge Crystallographic Data Centre
#                                CCDC 
#
#######################################################################
#
# If this CIF has been generated from an entry in the Cambridge 
# Structural Database, then it will include bibliographic, chemical, 
# crystal, experimental, refinement or atomic coordinate data resulting 
# from the CCDC's data processing and validation procedures.
#
#######################################################################

data_XIYDOY01
_symmetry_cell_setting           monoclinic
_symmetry_space_group_name_H-M   'P 21/n'
_symmetry_Int_Tables_number      14
_space_group_name_Hall           '-P 2yn'
loop_
_symmetry_equiv_pos_site_id
_symmetry_equiv_pos_as_xyz
1 x,y,z
2 1/2-x,1/2+y,1/2-z
3 -x,-y,-z
4 1/2+x,1/2-y,1/2+z
_cell_length_a                   7.6939(2)
_cell_length_b                   15.9643(4)
_cell_length_c                   9.8577(3)
_cell_angle_alpha                90
_cell_angle_beta                 97.670(3)
_cell_angle_gamma                90
_cell_volume                     1199.97
loop_
_atom_site_label
_atom_site_type_symbol
_atom_site_fract_x
_atom_site_fract_y
_atom_site_fract_z
Zn1 Zn 0.15764(3) 0.525056(15) 0.59973(2)
S1 S 0.19087(7) 0.24058(3) 0.23914(6)
O1 O 0.2500(2) 0.42970(10) 0.49405(16)
O2 O 0.5407(2) 0.06747(10) 0.20271(16)
O3 O 0.30217(19) 0.10326(10) 0.05929(16)
O4 O 0.0154(2) 0.38840(10) 0.34875(17)
N1 N 0.3660(2) 0.54902(11) 0.74324(18)
C1 C 0.2761(3) 0.31039(13) 0.3623(2)
C2 C 0.1724(3) 0.38163(14) 0.4051(2)
C3 C 0.4482(3) 0.29344(14) 0.4097(2)
H1 H 0.5179 0.3262 0.4768
C4 C 0.6572(3) 0.51685(17) 0.8474(3)
H2 H 0.7602 0.4839 0.8486
C5 C 0.4110(3) 0.11328(13) 0.1644(2)
C6 C 0.3854(3) 0.18610(13) 0.2535(2)
C7 C 0.6481(3) 0.57827(17) 0.9437(3)
H3 H 0.7438 0.5877 1.0135
C8 C 0.5094(3) 0.22228(14) 0.3477(2)
H4 H 0.6254 0.2013 0.3689
C9 C 0.5147(3) 0.50367(15) 0.7490(2)
H5 H 0.5216 0.4610 0.6828
C10 C 0.3605(3) 0.60913(16) 0.8374(2)
H6 H 0.2568 0.6417 0.8349
C11 C 0.4991(3) 0.62576(16) 0.9379(3)
H7 H 0.4912 0.6695 1.0021
Zn1A Zn 0.34236(3) 0.025056(15) -0.09973(2)
Zn1B Zn -0.15764(3) 0.474944(15) 0.40027(2)
Zn1C Zn 0.65764(3) -0.025056(15) 0.09973(2)
O2C O 0.0407(2) 0.43253(10) 0.70271(16)
O3A O 0.19783(19) 0.60326(10) 0.44071(16)
O4B O -0.0154(2) 0.61160(10) 0.65125(17)
loop_
_geom_bond_atom_site_label_1
_geom_bond_atom_site_label_2
_geom_bond_site_symmetry_1
_geom_bond_site_symmetry_2
Zn1 O1 1_555 1_555
S1 C1 1_555 1_555
O1 C2 1_555 1_555
O2 C5 1_555 1_555
O3 C5 1_555 1_555
O4 C2 1_555 1_555
N1 Zn1 1_555 1_555
C1 C2 1_555 1_555
C3 C1 1_555 1_555
H1 C3 1_555 1_555
C4 H2 1_555 1_555
C5 C6 1_555 1_555
C6 S1 1_555 1_555
C7 C4 1_555 1_555
H3 C7 1_555 1_555
C8 C3 1_555 1_555
H4 C8 1_555 1_555
C9 N1 1_555 1_555
H5 C9 1_555 1_555
C10 N1 1_555 1_555
H6 C10 1_555 1_555
C11 C7 1_555 1_555
H7 C11 1_555 1_555
Zn1A O3 1_555 1_555
Zn1B O4 1_555 1_555
Zn1C O2 1_555 1_555
O2C Zn1 1_555 1_555
O3A Zn1 1_555 1_555
O4B Zn1 1_555 1_555
C4 C9 1_555 1_555
C6 C8 1_555 1_555
C10 C11 1_555 1_555

#END
