
#######################################################################
#
#                 Cambridge Crystallographic Data Centre
#                                CCDC 
#
#######################################################################
#
# If this CIF has been generated from an entry in the Cambridge 
# Structural Database, then it will include bibliographic, chemical, 
# crystal, experimental, refinement or atomic coordinate data resulting 
# from the CCDC's data processing and validation procedures.
#
#######################################################################

data_XIYDUE
_symmetry_cell_setting           triclinic
_symmetry_space_group_name_H-M   'P -1'
_symmetry_Int_Tables_number      2
_space_group_name_Hall           '-P 1'
loop_
_symmetry_equiv_pos_site_id
_symmetry_equiv_pos_as_xyz
1 x,y,z
2 -x,-y,-z
_cell_length_a                   8.595(3)
_cell_length_b                   9.491(3)
_cell_length_c                   12.748(6)
_cell_angle_alpha                69.31(3)
_cell_angle_beta                 85.99(3)
_cell_angle_gamma                67.59(2)
_cell_volume                     896.856
loop_
_atom_site_label
_atom_site_type_symbol
_atom_site_fract_x
_atom_site_fract_y
_atom_site_fract_z
Zn1 Zn 0.47708(4) 0.40345(4) 0.69919(3)
S1 S 1.02446(10) -0.07988(9) 0.66933(7)
N1 N 0.5957(3) 0.3788(3) 0.8498(2)
N2 N 0.3590(4) 0.2771(3) 0.8269(2)
O1 O 0.7057(3) 0.3624(2) 0.62574(17)
O2 O 0.6902(3) 0.1240(3) 0.7157(2)
O3 O 1.3174(3) -0.3627(2) 0.66243(18)
O4 O 1.4782(3) -0.2288(3) 0.5691(2)
O5 O 0.3531(3) 0.3866(3) 0.57188(19)
H1 H 0.316(4) 0.470(4) 0.528(3)
H2 H 0.415(6) 0.322(6) 0.541(4)
C1 C 0.7675(4) 0.2081(4) 0.6594(2)
C2 C 0.9421(4) 0.1277(3) 0.6306(2)
C3 C 1.0542(4) 0.1937(4) 0.5753(3)
H3 H 1.0327 0.3081 0.5476
C4 C 1.2075(4) 0.0745(4) 0.5659(3)
H4 H 1.3003 0.0987 0.5289
C5 C 1.2108(4) -0.0795(3) 0.6119(2)
C6 C 1.3472(4) -0.2358(4) 0.6141(2)
C7 C 0.7158(5) 0.4331(5) 0.8528(3)
H5 H 0.7546 0.4861 0.7833
C8 C 0.7867(5) 0.4150(6) 0.9549(4)
H6 H 0.8712 0.4578 0.9556
C9 C 0.7280(6) 0.3387(5) 1.0527(3)
H7 H 0.7774 0.3231 1.1232
C10 C 0.6041(6) 0.2820(5) 1.0496(3)
H8 H 0.5623 0.2298 1.1180
C11 C 0.5390(5) 0.3037(4) 0.9463(2)
C12 C 0.4070(4) 0.2472(4) 0.9332(3)
C13 C 0.3347(6) 0.1649(5) 1.0236(3)
H9 H 0.3698 0.1472 1.0986
C14 C 0.2171(6) 0.1122(5) 1.0040(4)
H10 H 0.1675 0.0566 1.0664
C15 C 0.1690(6) 0.1401(5) 0.8957(4)
H11 H 0.0876 0.1029 0.8789
C16 C 0.2428(5) 0.2236(4) 0.8102(3)
H12 H 0.2109 0.2443 0.7338
O3_2 O 0.3174(3) 0.6373(2) 0.66243(18)
Zn1_2 Zn 1.47708(4) -0.59655(4) 0.69919(3)
O6 O 0.3468(5) 0.1638(5) 0.2806(3)
H13 H 0.394(8) 0.060(8) 0.299(5)
H14 H 0.405(8) 0.162(7) 0.343(5)
O7 O 0.0047(12) 0.4280(10) 0.2450(12)
H15 H 0.027(11) 0.400(10) 0.197(6)
H16 H 0.017(9) 0.433(8) 0.312(4)
loop_
_geom_bond_atom_site_label_1
_geom_bond_atom_site_label_2
_geom_bond_site_symmetry_1
_geom_bond_site_symmetry_2
Zn1 N1 1_555 1_555
S1 C2 1_555 1_555
N1 C7 1_555 1_555
N2 Zn1 1_555 1_555
O1 Zn1 1_555 1_555
O2 Zn1 1_555 1_555
O3 C6 1_555 1_555
O4 C6 1_555 1_555
O5 Zn1 1_555 1_555
H1 O5 1_555 1_555
H2 O5 1_555 1_555
C1 O1 1_555 1_555
C2 C1 1_555 1_555
C3 C2 1_555 1_555
H3 C3 1_555 1_555
C4 C3 1_555 1_555
H4 C4 1_555 1_555
C5 S1 1_555 1_555
C6 C5 1_555 1_555
C7 H5 1_555 1_555
C8 C7 1_555 1_555
H6 C8 1_555 1_555
C9 C8 1_555 1_555
H7 C9 1_555 1_555
C10 C9 1_555 1_555
H8 C10 1_555 1_555
C11 N1 1_555 1_555
C12 N2 1_555 1_555
C13 C12 1_555 1_555
H9 C13 1_555 1_555
C14 C13 1_555 1_555
H10 C14 1_555 1_555
C15 C14 1_555 1_555
H11 C15 1_555 1_555
C16 N2 1_555 1_555
H12 C16 1_555 1_555
O6 H13 1_555 1_555
H14 O6 1_555 1_555
O7 H15 1_555 1_555
H16 O7 1_555 1_555
O3_2 Zn1 1_555 1_555
Zn1_2 O3 1_555 1_555
O2 C1 1_555 1_555
C4 C5 1_555 1_555
C10 C11 1_555 1_555
C11 C12 1_555 1_555
C15 C16 1_555 1_555

#END
