
#######################################################################
#
#                 Cambridge Crystallographic Data Centre
#                                CCDC 
#
#######################################################################
#
# If this CIF has been generated from an entry in the Cambridge 
# Structural Database, then it will include bibliographic, chemical, 
# crystal, experimental, refinement or atomic coordinate data resulting 
# from the CCDC's data processing and validation procedures.
#
#######################################################################

data_XIYDOY
_symmetry_cell_setting           monoclinic
_symmetry_space_group_name_H-M   'P 21/n'
_symmetry_Int_Tables_number      14
_space_group_name_Hall           '-P 2yn'
loop_
_symmetry_equiv_pos_site_id
_symmetry_equiv_pos_as_xyz
1 x,y,z
2 1/2-x,1/2+y,1/2-z
3 -x,-y,-z
4 1/2+x,1/2-y,1/2+z
_cell_length_a                   7.853(1)
_cell_length_b                   15.937(1)
_cell_length_c                   9.993(1)
_cell_angle_alpha                90
_cell_angle_beta                 95.65(1)
_cell_angle_gamma                90
_cell_volume                     1244.58
loop_
_atom_site_label
_atom_site_type_symbol
_atom_site_fract_x
_atom_site_fract_y
_atom_site_fract_z
Zn1 Zn 0.15306(3) 0.973921(13) 0.59506(2)
S1 S 0.30732(7) 0.75979(3) 0.25692(6)
O1 O 0.2024(2) 0.89755(10) 0.4368(2)
O2 O -0.0291(2) 0.93588(11) 0.3014(2)
O3 O 0.4782(2) 0.61313(10) 0.1417(2)
O4 O 0.2509(2) 0.57233(10) 0.0027(2)
N1 N 0.3495(2) 0.94774(12) 0.7373(2)
C1 C 0.3367(4) 0.8868(2) 0.8282(3)
H1 H 0.2359(4) 0.8559(2) 0.8251(3)
C2 C 0.4670(5) 0.8683(2) 0.9259(3)
H2 H 0.4546(5) 0.8254(2) 0.9872(3)
C3 C 0.6139(4) 0.9135(2) 0.9318(3)
H3 H 0.7026(4) 0.9025(2) 0.9982(3)
C4 C 0.6305(4) 0.9753(2) 0.8397(3)
H4 H 0.7309(4) 1.0064(2) 0.8419(3)
C5 C 0.4971(3) 0.9909(2) 0.7436(3)
H5 H 0.5093(3) 1.0329(2) 0.6806(3)
C6 C 0.3273(3) 0.62026(13) 0.0889(2)
C7 C 0.2258(3) 0.69265(13) 0.1316(2)
C8 C 0.0632(3) 0.7137(2) 0.0833(2)
H6 H -0.0016(3) 0.6841(2) 0.0160(2)
C9 C 0.0047(3) 0.7855(2) 0.1471(3)
H7 H -0.1035(3) 0.8085(2) 0.1261(3)
C10 C 0.1223(3) 0.81778(13) 0.2427(2)
C11 C 0.0978(3) 0.88998(13) 0.3351(2)
O2B O 0.0291(2) 1.06412(11) 0.6986(2)
O3C O -0.0218(2) 0.88687(10) 0.6417(2)
O4A O 0.2491(2) 1.07233(10) 0.4973(2)
Zn1B Zn -0.15306(3) 1.026079(13) 0.40494(2)
Zn1C Zn 0.65306(3) 0.526079(13) 0.09506(2)
Zn1A Zn 0.34694(3) 0.473921(13) -0.09506(2)
loop_
_geom_bond_atom_site_label_1
_geom_bond_atom_site_label_2
_geom_bond_site_symmetry_1
_geom_bond_site_symmetry_2
Zn1 O1 1_555 1_555
S1 C7 1_555 1_555
O1 C11 1_555 1_555
O2 C11 1_555 1_555
O3 C6 1_555 1_555
O4 C6 1_555 1_555
N1 Zn1 1_555 1_555
C1 N1 1_555 1_555
H1 C1 1_555 1_555
C2 C1 1_555 1_555
H2 C2 1_555 1_555
C3 C2 1_555 1_555
H3 C3 1_555 1_555
C4 C3 1_555 1_555
H4 C4 1_555 1_555
C5 N1 1_555 1_555
H5 C5 1_555 1_555
C6 C7 1_555 1_555
C7 C8 1_555 1_555
C8 H6 1_555 1_555
C9 C8 1_555 1_555
H7 C9 1_555 1_555
C10 S1 1_555 1_555
C11 C10 1_555 1_555
O2B Zn1 1_555 1_555
O3C Zn1 1_555 1_555
O4A Zn1 1_555 1_555
Zn1B O2 1_555 1_555
Zn1C O3 1_555 1_555
Zn1A O4 1_555 1_555
C4 C5 1_555 1_555
C9 C10 1_555 1_555

#END
