
#######################################################################
#
#                 Cambridge Crystallographic Data Centre
#                                CCDC 
#
#######################################################################
#
# If this CIF has been generated from an entry in the Cambridge 
# Structural Database, then it will include bibliographic, chemical, 
# crystal, experimental, refinement or atomic coordinate data resulting 
# from the CCDC's data processing and validation procedures.
#
#######################################################################

data_XIYFAM
_symmetry_cell_setting           monoclinic
_symmetry_space_group_name_H-M   'P 21/n'
_symmetry_Int_Tables_number      14
_space_group_name_Hall           '-P 2yn'
loop_
_symmetry_equiv_pos_site_id
_symmetry_equiv_pos_as_xyz
1 x,y,z
2 1/2+x,1/2-y,1/2+z
3 -x,-y,-z
4 1/2-x,1/2+y,1/2-z
_cell_length_a                   10.977(2)
_cell_length_b                   15.558(2)
_cell_length_c                   11.376(3)
_cell_angle_alpha                90
_cell_angle_beta                 116.36(3)
_cell_angle_gamma                90
_cell_volume                     1740.79
loop_
_atom_site_label
_atom_site_type_symbol
_atom_site_fract_x
_atom_site_fract_y
_atom_site_fract_z
Zn1 Zn 0.40613(2) 0.014327(14) 0.19840(2)
S1 S 0.71318(5) -0.22383(3) 0.24632(5)
O1 O 0.53720(14) -0.08174(9) 0.23468(13)
O2 O 0.5882(2) -0.07266(10) 0.44535(15)
O3 O 0.99260(14) -0.40132(9) 0.36753(14)
O4 O 0.8639(2) -0.34538(11) 0.17015(14)
O5 O 0.4023(2) 0.10830(10) 0.3219(2)
N1 N 0.2580(2) -0.05973(11) 0.2336(2)
C1 C 0.2612(2) -0.08424(15) 0.3466(2)
H1 H 0.3322(2) -0.06517(15) 0.4243(2)
C2 C 0.1623(2) -0.1376(2) 0.3533(2)
H2 H 0.1678(2) -0.1538(2) 0.4342(2)
C3 C 0.0579(2) -0.1654(2) 0.2403(3)
H3 H -0.0089(2) -0.2006(2) 0.2437(3)
C4 C -0.0561(2) -0.1665(2) -0.0055(3)
H4 H -0.1258(2) -0.2015(2) -0.0077(3)
C5 C -0.0574(2) -0.1409(2) -0.1184(3)
H5 H -0.1282(2) -0.1583(2) -0.1974(3)
C6 C 0.0538(2) -0.0595(2) -0.2348(2)
H6 H -0.0138(2) -0.0757(2) -0.3164(2)
C7 C 0.1586(3) -0.0085(2) -0.2265(2)
H7 H 0.1632(3) 0.0098(2) -0.3023(2)
C8 C 0.2592(2) 0.01588(13) -0.1030(2)
H8 H 0.3304(2) 0.05051(13) -0.0981(2)
N2 N 0.2562(2) -0.00875(10) 0.0068(2)
C9 C 0.0505(2) -0.14112(14) 0.1185(2)
C10 C 0.1539(2) -0.08733(12) 0.1202(2)
C11 C 0.1527(2) -0.05984(12) -0.0004(2)
C12 C 0.0482(2) -0.08710(14) -0.1203(2)
C13 C 0.5990(2) -0.10670(12) 0.3520(2)
C14 C 0.6927(2) -0.18102(12) 0.3754(2)
C15 C 0.7732(2) -0.22151(13) 0.4903(2)
H9 H 0.7749(2) -0.20739(13) 0.5704(2)
C16 C 0.8538(2) -0.28700(13) 0.4749(2)
H10 H 0.9143(2) -0.32068(13) 0.5436(2)
C17 C 0.8332(2) -0.29541(12) 0.3482(2)
C18 C 0.9004(2) -0.35246(12) 0.2904(2)
H11 H 0.4750(30) 0.1275(18) 0.3430(26)
H12 H 0.3995(29) 0.0941(20) 0.3940(32)
O3C O 0.50740(14) 0.09868(9) 0.13247(14)
Zn1C Zn 1.09387(2) -0.485673(14) 0.30160(2)
loop_
_geom_bond_atom_site_label_1
_geom_bond_atom_site_label_2
_geom_bond_site_symmetry_1
_geom_bond_site_symmetry_2
Zn1 O1 1_555 1_555
S1 C14 1_555 1_555
O1 C13 1_555 1_555
O2 C13 1_555 1_555
O3 C18 1_555 1_555
O4 C18 1_555 1_555
O5 Zn1 1_555 1_555
N1 Zn1 1_555 1_555
C1 N1 1_555 1_555
H1 C1 1_555 1_555
C2 C1 1_555 1_555
H2 C2 1_555 1_555
C3 C2 1_555 1_555
H3 C3 1_555 1_555
C4 H4 1_555 1_555
C5 C4 1_555 1_555
H5 C5 1_555 1_555
C6 H6 1_555 1_555
C7 C6 1_555 1_555
H7 C7 1_555 1_555
C8 C7 1_555 1_555
H8 C8 1_555 1_555
N2 Zn1 1_555 1_555
C9 C3 1_555 1_555
C10 N1 1_555 1_555
C11 N2 1_555 1_555
C12 C5 1_555 1_555
C13 C14 1_555 1_555
C14 C15 1_555 1_555
C15 H9 1_555 1_555
C16 C15 1_555 1_555
H10 C16 1_555 1_555
C17 S1 1_555 1_555
C18 C17 1_555 1_555
H11 O5 1_555 1_555
H12 O5 1_555 1_555
O3C Zn1 1_555 1_555
Zn1C O3 1_555 1_555
C4 C9 1_555 1_555
C6 C12 1_555 1_555
C8 N2 1_555 1_555
C9 C10 1_555 1_555
C10 C11 1_555 1_555
C11 C12 1_555 1_555
C16 C17 1_555 1_555

#END
