
#######################################################################
#
#                 Cambridge Crystallographic Data Centre
#                                CCDC 
#
#######################################################################
#
# If this CIF has been generated from an entry in the Cambridge 
# Structural Database, then it will include bibliographic, chemical, 
# crystal, experimental, refinement or atomic coordinate data resulting 
# from the CCDC's data processing and validation procedures.
#
#######################################################################

data_XIYFIU
_symmetry_cell_setting           orthorhombic
_symmetry_space_group_name_H-M   'P b c a'
_symmetry_Int_Tables_number      61
_space_group_name_Hall           '-P 2ac 2ab'
loop_
_symmetry_equiv_pos_site_id
_symmetry_equiv_pos_as_xyz
1 x,y,z
2 1/2+x,y,1/2-z
3 x,1/2-y,1/2+z
4 1/2-x,1/2+y,z
5 -x,-y,-z
6 1/2-x,-y,1/2+z
7 -x,1/2+y,1/2-z
8 1/2+x,1/2-y,-z
_cell_length_a                   8.031(2)
_cell_length_b                   18.113(6)
_cell_length_c                   21.755(6)
_cell_angle_alpha                90
_cell_angle_beta                 90
_cell_angle_gamma                90
_cell_volume                     3164.6
loop_
_atom_site_label
_atom_site_type_symbol
_atom_site_fract_x
_atom_site_fract_y
_atom_site_fract_z
Mn1 Mn 0.74434(6) -0.00371(2) 0.69293(2)
S1 S 0.34896(11) -0.25849(4) 0.73543(4)
O1 O 0.5037(3) -0.05979(11) 0.69196(10)
O2 O 0.3363(3) -0.10135(11) 0.76642(11)
O3 O 0.5130(3) -0.44922(11) 0.67643(10)
O4 O 0.3099(3) -0.41936(11) 0.74229(10)
N1 N 0.8095(3) -0.05024(14) 0.59590(12)
C1 C 0.9024(4) -0.1095(2) 0.5844(2)
H1 H 0.9394(4) -0.1378(2) 0.6174(2)
C2 C 0.9466(5) -0.1311(2) 0.5250(2)
H2 H 1.0111(5) -0.1731(2) 0.5189(2)
C3 C 0.8946(5) -0.0902(2) 0.4761(2)
H3 H 0.9232(5) -0.1041(2) 0.4363(2)
C4 C 0.7379(4) 0.0181(2) 0.4368(2)
H4 H 0.7630(4) 0.0059(2) 0.3963(2)
C5 C 0.6454(5) 0.0782(2) 0.4490(2)
H5 H 0.6081(5) 0.1073(2) 0.4165(2)
C6 C 0.5015(5) 0.1598(2) 0.5249(2)
H6 H 0.4635(5) 0.1908(2) 0.4939(2)
C7 C 0.4594(5) 0.1734(2) 0.5845(2)
H7 H 0.3909(5) 0.2131(2) 0.5944(2)
C8 C 0.5205(4) 0.1270(2) 0.6306(2)
H8 H 0.4899(4) 0.1363(2) 0.6711(2)
N2 N 0.6197(3) 0.07038(14) 0.61926(12)
C9 C 0.6587(4) 0.0553(2) 0.55975(14)
C10 C 0.7585(4) -0.0093(2) 0.54685(14)
C11 C 0.7980(4) -0.0273(2) 0.4860(2)
C12 C 0.6027(4) 0.0987(2) 0.5103(2)
C13 C 0.4309(4) -0.1098(2) 0.72060(15)
C14 C 0.4545(4) -0.1878(2) 0.69978(13)
C15 C 0.5599(4) -0.2139(2) 0.65580(14)
H9 H 0.6264(4) -0.1837(2) 0.63142(14)
C16 C 0.5577(4) -0.2916(2) 0.65111(13)
H10 H 0.6223(4) -0.3180(2) 0.62327(13)
C17 C 0.4507(4) -0.3240(2) 0.69174(13)
C18 C 0.4231(4) -0.4041(2) 0.70448(14)
O2A O 0.8363(3) -0.10135(11) 0.73358(11)
O3C O 0.9870(3) 0.05078(11) 0.67643(10)
O4F O 0.6901(3) 0.08064(11) 0.75771(10)
Mn1A Mn 0.24434(6) -0.00371(2) 0.80707(2)
Mn1C Mn 0.75566(6) -0.50371(2) 0.69293(2)
Mn1F Mn 0.25566(6) -0.50371(2) 0.80707(2)
loop_
_geom_bond_atom_site_label_1
_geom_bond_atom_site_label_2
_geom_bond_site_symmetry_1
_geom_bond_site_symmetry_2
Mn1 O1 1_555 1_555
S1 C14 1_555 1_555
O1 C13 1_555 1_555
O2 C13 1_555 1_555
O3 C18 1_555 1_555
O4 C18 1_555 1_555
N1 Mn1 1_555 1_555
C1 N1 1_555 1_555
H1 C1 1_555 1_555
C2 C1 1_555 1_555
H2 C2 1_555 1_555
C3 C2 1_555 1_555
H3 C3 1_555 1_555
C4 H4 1_555 1_555
C5 C4 1_555 1_555
H5 C5 1_555 1_555
C6 H6 1_555 1_555
C7 C6 1_555 1_555
H7 C7 1_555 1_555
C8 C7 1_555 1_555
H8 C8 1_555 1_555
N2 Mn1 1_555 1_555
C9 N2 1_555 1_555
C10 N1 1_555 1_555
C11 C3 1_555 1_555
C12 C5 1_555 1_555
C13 C14 1_555 1_555
C14 C15 1_555 1_555
C15 H9 1_555 1_555
C16 C15 1_555 1_555
H10 C16 1_555 1_555
C17 S1 1_555 1_555
C18 C17 1_555 1_555
O2A Mn1 1_555 1_555
O3C Mn1 1_555 1_555
O4F Mn1 1_555 1_555
Mn1A O2 1_555 1_555
Mn1C O3 1_555 1_555
Mn1F O4 1_555 1_555
C4 C11 1_555 1_555
C6 C12 1_555 1_555
C8 N2 1_555 1_555
C9 C10 1_555 1_555
C9 C12 1_555 1_555
C10 C11 1_555 1_555
C16 C17 1_555 1_555

#END
