
#######################################################################
#
#                 Cambridge Crystallographic Data Centre
#                                CCDC 
#
#######################################################################
#
# If this CIF has been generated from an entry in the Cambridge 
# Structural Database, then it will include bibliographic, chemical, 
# crystal, experimental, refinement or atomic coordinate data resulting 
# from the CCDC's data processing and validation procedures.
#
#######################################################################

data_XIYFEQ
_symmetry_cell_setting           monoclinic
_symmetry_space_group_name_H-M   'P 21/n'
_symmetry_Int_Tables_number      14
_space_group_name_Hall           '-P 2yn'
loop_
_symmetry_equiv_pos_site_id
_symmetry_equiv_pos_as_xyz
1 x,y,z
2 1/2+x,1/2-y,1/2+z
3 -x,-y,-z
4 1/2-x,1/2+y,1/2-z
_cell_length_a                   10.917(2)
_cell_length_b                   15.711(2)
_cell_length_c                   11.330(2)
_cell_angle_alpha                90
_cell_angle_beta                 116.01(3)
_cell_angle_gamma                90
_cell_volume                     1746.47
loop_
_atom_site_label
_atom_site_type_symbol
_atom_site_fract_x
_atom_site_fract_y
_atom_site_fract_z
Co1 Co 0.09432(6) 0.98529(4) 0.30252(6)
N1 N 0.2434(4) 1.0078(2) 0.4925(4)
C1 C 0.2411(5) 0.9830(3) 0.6036(5)
H1 H 0.1669(5) 0.9476(3) 0.5978(5)
C2 C 0.3415(6) 1.0064(3) 0.7265(5)
H2 H 0.3363(6) 0.9869(3) 0.8045(5)
C3 C 0.4466(5) 1.0566(4) 0.7356(5)
H3 H 0.5166(5) 1.0723(4) 0.8202(5)
C4 C 0.4531(5) 1.0857(3) 0.6203(5)
C5 C 0.3468(4) 1.0595(3) 0.5005(4)
C6 C 0.3445(5) 1.0874(3) 0.3781(5)
N2 N 0.2394(4) 1.0604(2) 0.2665(4)
C7 C 0.2364(5) 1.0855(3) 0.1536(5)
H4 H 0.1625(5) 1.0665(3) 0.0735(5)
C8 C 0.3362(5) 1.1380(3) 0.1471(5)
H5 H 0.3308(5) 1.1541(3) 0.0632(5)
C9 C 0.4409(6) 1.1669(3) 0.2584(5)
H6 H 0.5093(6) 1.2037(3) 0.2546(5)
C10 C 0.4476(5) 1.1415(3) 0.3811(5)
C11 C 0.5540(5) 1.1669(4) 0.5040(6)
H7 H 0.6251(5) 1.2033(4) 0.5052(6)
C12 C 0.5557(5) 1.1402(3) 0.6180(6)
H8 H 0.6276(5) 1.1588(3) 0.6998(6)
S1 S -0.20975(12) 1.22566(8) 0.25831(11)
C13 C -0.0987(5) 1.1082(3) 0.1507(5)
C14 C -0.1899(4) 1.1822(3) 0.1293(4)
C15 C -0.2721(5) 1.2223(3) 0.0143(4)
H9 H -0.2744(5) 1.2073(3) -0.0688(4)
C16 C -0.3522(5) 1.2872(3) 0.0291(4)
H10 H -0.4159(5) 1.3211(3) -0.0417(4)
C17 C -0.3289(4) 1.2969(3) 0.1578(4)
C18 C -0.3976(5) 1.3536(3) 0.2154(5)
O1 O -0.0294(3) 1.0855(2) 0.2690(3)
O2 O -0.0940(3) 1.0711(2) 0.0561(3)
O3 O -0.4864(3) 1.4043(2) 0.1377(3)
O4 O -0.3659(3) 1.3456(2) 0.3334(3)
O5 O 0.1015(4) 0.8942(3) 0.1777(4)
H11 H -0.0039(84) 0.8601(49) 0.1515(69)
H12 H 0.0959(63) 0.9060(40) 0.1202(52)
O3C O -0.0136(3) 0.9043(2) 0.3623(3)
Co1C Co -0.59432(6) 1.48529(4) 0.19748(6)
loop_
_geom_bond_atom_site_label_1
_geom_bond_atom_site_label_2
_geom_bond_site_symmetry_1
_geom_bond_site_symmetry_2
Co1 N1 1_555 1_555
N1 C1 1_555 1_555
C1 H1 1_555 1_555
C2 C1 1_555 1_555
H2 C2 1_555 1_555
C3 C2 1_555 1_555
H3 C3 1_555 1_555
C4 C3 1_555 1_555
C5 N1 1_555 1_555
C6 C5 1_555 1_555
N2 Co1 1_555 1_555
C7 N2 1_555 1_555
H4 C7 1_555 1_555
C8 C7 1_555 1_555
H5 C8 1_555 1_555
C9 C8 1_555 1_555
H6 C9 1_555 1_555
C10 C6 1_555 1_555
C11 C10 1_555 1_555
H7 C11 1_555 1_555
C12 C4 1_555 1_555
H8 C12 1_555 1_555
S1 C14 1_555 1_555
C13 C14 1_555 1_555
C14 C15 1_555 1_555
C15 H9 1_555 1_555
C16 C15 1_555 1_555
H10 C16 1_555 1_555
C17 S1 1_555 1_555
C18 C17 1_555 1_555
O1 Co1 1_555 1_555
O2 C13 1_555 1_555
O3 C18 1_555 1_555
O4 C18 1_555 1_555
O5 Co1 1_555 1_555
H11 O5 1_555 1_555
H12 O5 1_555 1_555
O3C Co1 1_555 1_555
Co1C O3 1_555 1_555
C4 C5 1_555 1_555
C6 N2 1_555 1_555
C9 C10 1_555 1_555
C11 C12 1_555 1_555
C13 O1 1_555 1_555
C16 C17 1_555 1_555

#END
