
#######################################################################
#
#                 Cambridge Crystallographic Data Centre
#                                CCDC 
#
#######################################################################
#
# If this CIF has been generated from an entry in the Cambridge 
# Structural Database, then it will include bibliographic, chemical, 
# crystal, experimental, refinement or atomic coordinate data resulting 
# from the CCDC's data processing and validation procedures.
#
#######################################################################

data_XIYFIV
_symmetry_cell_setting           triclinic
_symmetry_space_group_name_H-M   'P -1'
_symmetry_Int_Tables_number      2
_space_group_name_Hall           '-P 1'
loop_
_symmetry_equiv_pos_site_id
_symmetry_equiv_pos_as_xyz
1 x,y,z
2 -x,-y,-z
_cell_length_a                   10.151(2)
_cell_length_b                   10.544(2)
_cell_length_c                   11.974(2)
_cell_angle_alpha                88.43(3)
_cell_angle_beta                 89.87(3)
_cell_angle_gamma                75.63(3)
_cell_volume                     1241.03
loop_
_atom_site_label
_atom_site_type_symbol
_atom_site_fract_x
_atom_site_fract_y
_atom_site_fract_z
Mn1 Mn -0.47911(4) 0.95407(4) 0.63007(4)
Mn2 Mn -0.22010(4) 1.00707(4) 0.48543(4)
Cl1 Cl 0.19513(10) 0.55496(9) 0.47642(9)
O1 O -0.39281(18) 0.90535(18) 0.46610(16)
O2 O -0.61793(18) 0.8689(2) 0.62213(17)
O3 O -0.33837(18) 1.0413(2) 0.63613(16)
O4 O -0.0691(2) 0.8650(2) 0.57824(18)
O5 O 0.1411(2) 0.8317(2) 0.50837(19)
N1 N -0.1642(2) 0.8665(3) 0.3470(2)
N2 N -0.3781(2) 0.7746(3) 0.7043(2)
N3 N -0.5213(2) 1.0496(3) 0.7905(2)
C1 C 0.0417(3) 0.7936(3) 0.5433(2)
C2 C -0.4367(3) 1.1257(3) 0.8100(3)
C3 C -0.4555(3) 0.6875(3) 0.7078(3)
C4 C -0.2299(3) 0.7708(3) 0.3434(3)
C5 C -0.3428(3) 0.7765(3) 0.4273(3)
H1 H -0.4164 0.7478 0.3927
H2 H -0.3089 0.7174 0.4901
C6 C -0.4113(3) 0.5668(3) 0.7624(3)
H3 H -0.4653 0.5073 0.7643
C7 C 0.0500(3) 0.6484(3) 0.5444(3)
H4 H -0.0308 0.6347 0.5085
H5 H 0.0504 0.6169 0.6213
C8 C -0.6425(4) 1.1249(4) 0.9560(3)
H6 H -0.7127 1.1226 1.0055
C9 C -0.2854(3) 0.5367(4) 0.8140(3)
H7 H -0.2537 0.4561 0.8509
C10 C -0.6222(3) 1.0472(4) 0.8639(3)
H8 H -0.6790 0.9919 0.8519
C11 C -0.2071(3) 0.6254(4) 0.8109(3)
H9 H -0.1227 0.6062 0.8463
C12 C -0.3237(3) 1.1183(4) 0.7269(3)
H10 H -0.3240 1.2059 0.6998
H11 H -0.2371 1.0811 0.7635
C13 C -0.0633(3) 0.8670(4) 0.2730(3)
H12 H -0.0186 0.9340 0.2744
C14 C -0.5894(3) 0.7321(3) 0.6470(3)
H13 H -0.5859 0.6848 0.5783
H14 H -0.6614 0.7132 0.6930
C15 C -0.0249(3) 0.7700(4) 0.1951(3)
H15 H 0.0446 0.7720 0.1449
C16 C -0.1954(3) 0.6695(3) 0.2683(3)
H16 H -0.2409 0.6031 0.2685
C17 C -0.4528(4) 1.2062(4) 0.9020(3)
H17 H -0.3937 1.2592 0.9144
C18 C -0.0911(3) 0.6701(4) 0.1928(3)
H18 H -0.0661 0.6040 0.1414
C19 C -0.2552(3) 0.7437(4) 0.7546(3)
H19 H -0.2015 0.8035 0.7512
C20 C -0.5583(4) 1.2053(4) 0.9738(3)
H20 H -0.5724 1.2597 1.0349
Mn1A Mn -0.52089(4) 1.04593(4) 0.36993(4)
Mn2A Mn -0.77990(4) 0.99293(4) 0.51457(4)
Mn2A_2 Mn 0.22010(4) 0.99293(4) 0.51457(4)
O1A O -0.60719(18) 1.09465(18) 0.53390(16)
O2A O -0.38207(18) 1.1311(2) 0.37787(17)
O5A O -0.1411(2) 1.1683(2) 0.49163(19)
O6 O 0.1014(6) 1.0232(6) 1.0747(6)
O7 O -0.1308(4) 1.3214(5) 1.2103(3)
O8 O -0.0978(4) 1.3860(4) 1.0321(3)
Cl2 Cl -0.1784(3) 1.3287(4) 1.09806(19)
O9 O -0.3134(6) 1.3996(8) 1.0968(6)
O10 O -0.1951(15) 1.1974(12) 1.0843(10)
Cl3? Cl -0.1142(5) 1.2629(6) 1.1086(3)
O11? O 0.0128(10) 1.1706(12) 1.0999(9)
O12? O -0.1875(17) 1.228(2) 1.0293(12)
loop_
_geom_bond_atom_site_label_1
_geom_bond_atom_site_label_2
_geom_bond_site_symmetry_1
_geom_bond_site_symmetry_2
Mn1 O1 1_555 1_555
Mn2 O1 1_555 1_555
Cl1 C7 1_555 1_555
O1 C5 1_555 1_555
O2 Mn1 1_555 1_555
O3 Mn1 1_555 1_555
O4 Mn2 1_555 1_555
O5 C1 1_555 1_555
N1 Mn2 1_555 1_555
N2 Mn1 1_555 1_555
N3 Mn1 1_555 1_555
C1 O4 1_555 1_555
C2 N3 1_555 1_555
C3 N2 1_555 1_555
C4 N1 1_555 1_555
C5 C4 1_555 1_555
H1 C5 1_555 1_555
H2 C5 1_555 1_555
C6 C3 1_555 1_555
H3 C6 1_555 1_555
C7 C1 1_555 1_555
H4 C7 1_555 1_555
H5 C7 1_555 1_555
C8 H6 1_555 1_555
C9 C6 1_555 1_555
H7 C9 1_555 1_555
C10 N3 1_555 1_555
H8 C10 1_555 1_555
C11 C9 1_555 1_555
H9 C11 1_555 1_555
C12 O3 1_555 1_555
H10 C12 1_555 1_555
H11 C12 1_555 1_555
C13 N1 1_555 1_555
H12 C13 1_555 1_555
C14 O2 1_555 1_555
H13 C14 1_555 1_555
H14 C14 1_555 1_555
C15 C13 1_555 1_555
H15 C15 1_555 1_555
C16 C4 1_555 1_555
H16 C16 1_555 1_555
C17 C2 1_555 1_555
H17 C17 1_555 1_555
C18 C15 1_555 1_555
H18 C18 1_555 1_555
C19 N2 1_555 1_555
H19 C19 1_555 1_555
C20 C8 1_555 1_555
H20 C20 1_555 1_555
O7 Cl2 1_555 1_555
O8 Cl2 1_555 1_555
Cl2 O9 1_555 1_555
O10 Cl2 1_555 1_555
Mn1A O1 1_555 1_555
Mn2A O2 1_555 1_555
Mn2A_2 O5 1_555 1_555
O1A Mn1 1_555 1_555
O2A Mn2 1_555 1_555
O5A Mn2 1_555 1_555
Mn2 O3 1_555 1_555
C2 C12 1_555 1_555
C3 C14 1_555 1_555
C8 C10 1_555 1_555
C11 C19 1_555 1_555
C16 C18 1_555 1_555
C17 C20 1_555 1_555
Mn1A O1A 1_555 1_555
Mn1A O2A 1_555 1_555
Mn2A O1A 1_555 1_555

#END
