
#######################################################################
#
#                 Cambridge Crystallographic Data Centre
#                                CCDC 
#
#######################################################################
#
# If this CIF has been generated from an entry in the Cambridge 
# Structural Database, then it will include bibliographic, chemical, 
# crystal, experimental, refinement or atomic coordinate data resulting 
# from the CCDC's data processing and validation procedures.
#
#######################################################################

data_XIYKOG
_symmetry_cell_setting           monoclinic
_symmetry_space_group_name_H-M   'P 21/c'
_symmetry_Int_Tables_number      14
_space_group_name_Hall           '-P 2ybc'
loop_
_symmetry_equiv_pos_site_id
_symmetry_equiv_pos_as_xyz
1 x,y,z
2 -x,1/2+y,1/2-z
3 -x,-y,-z
4 x,1/2-y,1/2+z
_cell_length_a                   6.0422(2)
_cell_length_b                   21.5673(8)
_cell_length_c                   12.7395(5)
_cell_angle_alpha                90
_cell_angle_beta                 99.6170(10)
_cell_angle_gamma                90
_cell_volume                     1636.8
loop_
_atom_site_label
_atom_site_type_symbol
_atom_site_fract_x
_atom_site_fract_y
_atom_site_fract_z
Mn1 Mn 0.5000 0.5000 0.5000
O2 O 0.7068(3) 0.49893(7) 0.38228(16)
O4 O 0.8721(5) 0.51863(13) 0.2451(2)
O5 O 0.3574(3) 0.58106(8) 0.41354(14)
N1 N 0.5078(5) 0.67158(12) 0.1504(2)
N2 N -0.0007(4) 0.73723(11) 0.2985(2)
N3 N 0.2395(4) 0.74681(10) 0.16596(18)
N4 N -0.0102(4) 0.82368(10) 0.19027(19)
N5 N -0.2339(3) 0.93726(9) 0.11005(17)
H1 H -0.140(4) 0.9649(12) 0.146(2)
C1 C 0.7282(4) 0.52991(11) 0.3018(2)
C2 C 0.5782(4) 0.58537(11) 0.2731(2)
C3 C 0.4044(4) 0.60559(10) 0.33118(19)
C4 C 0.2852(4) 0.66087(11) 0.28824(19)
C5 C 0.1042(5) 0.68542(12) 0.3304(2)
H2 H 0.0546 0.6635 0.3848
C6 C 0.0805(4) 0.76813(12) 0.2189(2)
C7 C 0.3383(5) 0.69362(12) 0.2010(2)
C8 C 0.6170(5) 0.61896(14) 0.1875(2)
H3 H 0.7282 0.6046 0.1512
C9 C 0.5717(8) 0.7043(2) 0.0566(3)
H4 H 0.5531 0.7486 0.0645
H5 H 0.7285 0.6963 0.0537
C10 C 0.4373(10) 0.6840(4) -0.0400(5)
H6 H 0.4583 0.6403 -0.0488
H7 H 0.4811 0.7059 -0.0989
H8 H 0.2822 0.6923 -0.0375
C11 C -0.1446(6) 0.85820(14) 0.2560(2)
H9 H -0.0477 0.8852 0.3045
H10 H -0.2170 0.8295 0.2980
C12 C -0.3226(5) 0.89702(13) 0.1855(2)
H11 H -0.4326 0.8693 0.1460
H12 H -0.3996 0.9225 0.2308
C13 C -0.1018(4) 0.89946(12) 0.0466(2)
H13 H -0.0347 0.9264 -0.0003
H14 H -0.2015 0.8710 0.0025
C14 C 0.0812(4) 0.86281(12) 0.1146(2)
H15 H 0.1573 0.8371 0.0693
H16 H 0.1906 0.8911 0.1530
Mn1C Mn -0.5000 1.0000 0.0000
Mn1C_2 Mn 1.5000 0.0000 1.0000
O2B O 0.2932(3) 0.50107(7) 0.61772(16)
O4B O 0.1279(5) 0.48137(13) 0.7549(2)
O5B O 0.6426(3) 0.41894(8) 0.58646(14)
N1B N 0.4922(5) 0.32842(12) 0.8496(2)
N2B N 1.0007(4) 0.26277(11) 0.7015(2)
N3B N 0.7605(4) 0.25319(10) 0.83404(18)
N4B N 1.0102(4) 0.17632(10) 0.80973(19)
N5B N 1.2339(3) 0.06274(9) 0.88995(17)
N5C N 0.7661(3) 0.56274(9) 0.61005(17)
N5A N 0.2339(3) 0.43726(9) 0.38995(17)
H1B H 1.140(4) 0.0351(12) 0.854(2)
H1C H 0.860(4) 0.5351(12) 0.646(2)
H1A H 0.140(4) 0.4649(12) 0.354(2)
C1B C 0.2718(4) 0.47009(11) 0.6982(2)
C2B C 0.4218(4) 0.41463(11) 0.7269(2)
C3B C 0.5956(4) 0.39441(10) 0.66882(19)
C4B C 0.7148(4) 0.33913(11) 0.71176(19)
C5B C 0.8958(5) 0.31458(12) 0.6696(2)
H2B H 0.9454 0.3365 0.6152
C6B C 0.9195(4) 0.23187(12) 0.7811(2)
C7B C 0.6617(5) 0.30638(12) 0.7990(2)
C8B C 0.3830(5) 0.38104(14) 0.8125(2)
H3B H 0.2718 0.3954 0.8488
C9B C 0.4283(8) 0.2957(2) 0.9434(3)
H4B H 0.4469 0.2514 0.9355
H5B H 0.2715 0.3037 0.9463
C10B C 0.5627(10) 0.3160(4) 1.0400(5)
H6B H 0.5417 0.3597 1.0488
H7B H 0.5189 0.2941 1.0989
H8B H 0.7178 0.3077 1.0375
C11B C 1.1446(6) 0.14180(14) 0.7440(2)
H9B H 1.0477 0.1148 0.6955
H10B H 1.2170 0.1705 0.7020
C12B C 1.3226(5) 0.10298(13) 0.8145(2)
H11B H 1.4326 0.1307 0.8540
H12B H 1.3996 0.0775 0.7692
C13B C 1.1018(4) 0.10054(12) 0.9534(2)
H13B H 1.0347 0.0736 1.0003
H14B H 1.2015 0.1290 0.9975
C14B C 0.9188(4) 0.13719(12) 0.8854(2)
H15B H 0.8427 0.1629 0.9307
H16B H 0.8094 0.1089 0.8470
O1 O 0.388(4) 0.5235(7) 0.9613(10)
O3 O -0.081(2) 0.4426(8) 0.9246(7)
loop_
_geom_bond_atom_site_label_1
_geom_bond_atom_site_label_2
_geom_bond_site_symmetry_1
_geom_bond_site_symmetry_2
Mn1 O2 1_555 1_555
O2 C1 1_555 1_555
O4 C1 1_555 1_555
O5 Mn1 1_555 1_555
N1 C7 1_555 1_555
N2 C5 1_555 1_555
N3 C6 1_555 1_555
N4 C6 1_555 1_555
N5 H1 1_555 1_555
C1 C2 1_555 1_555
C2 C3 1_555 1_555
C3 O5 1_555 1_555
C4 C3 1_555 1_555
C5 C4 1_555 1_555
H2 C5 1_555 1_555
C6 N2 1_555 1_555
C7 N3 1_555 1_555
C8 N1 1_555 1_555
H3 C8 1_555 1_555
C9 N1 1_555 1_555
H4 C9 1_555 1_555
H5 C9 1_555 1_555
C10 C9 1_555 1_555
H6 C10 1_555 1_555
H7 C10 1_555 1_555
H8 C10 1_555 1_555
C11 N4 1_555 1_555
H9 C11 1_555 1_555
H10 C11 1_555 1_555
C12 N5 1_555 1_555
H11 C12 1_555 1_555
H12 C12 1_555 1_555
C13 N5 1_555 1_555
H13 C13 1_555 1_555
H14 C13 1_555 1_555
C14 N4 1_555 1_555
H15 C14 1_555 1_555
H16 C14 1_555 1_555
Mn1C N5 1_555 1_555
Mn1C_2 N5B 1_555 1_555
O2B Mn1 1_555 1_555
O4B C1B 1_555 1_555
O5B Mn1 1_555 1_555
N1B C7B 1_555 1_555
N2B C5B 1_555 1_555
N3B C6B 1_555 1_555
N4B C6B 1_555 1_555
N5B H1B 1_555 1_555
N5C Mn1 1_555 1_555
N5A Mn1 1_555 1_555
H1C N5C 1_555 1_555
H1A N5A 1_555 1_555
C1B O2B 1_555 1_555
C2B C1B 1_555 1_555
C3B O5B 1_555 1_555
C4B C3B 1_555 1_555
C5B C4B 1_555 1_555
H2B C5B 1_555 1_555
C6B N2B 1_555 1_555
C7B N3B 1_555 1_555
C8B N1B 1_555 1_555
H3B C8B 1_555 1_555
C9B N1B 1_555 1_555
H4B C9B 1_555 1_555
H5B C9B 1_555 1_555
C10B C9B 1_555 1_555
H6B C10B 1_555 1_555
H7B C10B 1_555 1_555
H8B C10B 1_555 1_555
C11B N4B 1_555 1_555
H9B C11B 1_555 1_555
H10B C11B 1_555 1_555
C12B N5B 1_555 1_555
H11B C12B 1_555 1_555
H12B C12B 1_555 1_555
C13B N5B 1_555 1_555
H13B C13B 1_555 1_555
H14B C13B 1_555 1_555
C14B N4B 1_555 1_555
H15B C14B 1_555 1_555
H16B C14B 1_555 1_555
C2 C8 1_555 1_555
C4 C7 1_555 1_555
C11 C12 1_555 1_555
C13 C14 1_555 1_555
C2B C3B 1_555 1_555
C2B C8B 1_555 1_555
C4B C7B 1_555 1_555
C11B C12B 1_555 1_555
C13B C14B 1_555 1_555

#END
