
#######################################################################
#
#                 Cambridge Crystallographic Data Centre
#                                CCDC 
#
#######################################################################
#
# If this CIF has been generated from an entry in the Cambridge 
# Structural Database, then it will include bibliographic, chemical, 
# crystal, experimental, refinement or atomic coordinate data resulting 
# from the CCDC's data processing and validation procedures.
#
#######################################################################

data_XIYKAT
_symmetry_cell_setting           monoclinic
_symmetry_space_group_name_H-M   'P 21'
_symmetry_Int_Tables_number      4
_space_group_name_Hall           'P 2yb'
loop_
_symmetry_equiv_pos_site_id
_symmetry_equiv_pos_as_xyz
1 x,y,z
2 -x,1/2+y,-z
_cell_length_a                   18.319(2)
_cell_length_b                   4.8688(5)
_cell_length_c                   20.288(2)
_cell_angle_alpha                90
_cell_angle_beta                 115.556(5)
_cell_angle_gamma                90
_cell_volume                     1632.48
loop_
_atom_site_label
_atom_site_type_symbol
_atom_site_fract_x
_atom_site_fract_y
_atom_site_fract_z
Cd1 Cd 0.72201(5) -0.0800(2) 0.37863(5)
O1 O 0.8383(5) -0.298(2) 0.4569(6)
O2 O 0.3260(6) 0.144(2) 0.7217(6)
O3 O 0.7980(6) 0.137(2) 0.3306(7)
O4 O 0.6078(5) 0.168(2) 0.3024(6)
O5 O 0.5882(8) -0.192(2) 0.8048(8)
O6 O 0.9239(7) -0.150(2) 0.7477(7)
C1 C 0.9676(7) 0.232(3) 0.6994(8)
H1 H 0.9987 0.3915 0.7294
C2 C 0.9123(8) 0.332(3) 0.6212(9)
H2 H 0.8986 0.5288 0.6209
H3 H 0.8617 0.2234 0.5994
C3 C 0.8825(7) 0.220(3) 0.9494(8)
C4 C 0.9021(7) 0.302(3) 0.8861(8)
H4 H 0.8997 0.5048 0.8823
H5 H 0.9586 0.2471 0.8989
C5 C 0.9202(9) 0.362(4) 1.0137(9)
H6 H 0.9549 0.5114 1.0166
C6 C 0.8195(8) -0.057(5) 1.0071(9)
H7 H 0.7840 -0.2036 1.0045
O7 O 0.7521(6) 0.5522(19) 0.7788(7)
O8 O 0.8731(7) 0.157(3) 1.1923(7)
C7 C 0.8573(8) 0.083(3) 1.0703(9)
N1 N 0.7065(6) 0.115(2) 0.7706(6)
H8 H 0.7209 -0.0586 0.7767
C8 C 0.5956(10) 0.054(3) 0.8013(11)
N2 N 0.5845(7) 0.237(2) 0.8468(6)
H9 H 0.5908 0.4132 0.8416
C9 C 0.6208(7) 0.185(3) 0.7466(7)
H10 H 0.6135 0.3890 0.7455
O9 O 0.7410(5) 0.2795(19) 0.4526(6)
O10 O 0.6624(5) 0.6487(19) 0.4302(5)
C10 C 0.6877(6) 0.435(4) 0.4601(7)
C11 C 0.3406(8) -0.027(3) 0.8390(9)
H11 H 0.3295 0.0623 0.8776
H12 H 0.3188 -0.2158 0.8327
C12 C 0.5941(6) 0.465(3) 0.5208(7)
H13 H 0.5702 0.6188 0.4902
C13 C 0.6561(7) 0.325(2) 0.5142(8)
C14 C 0.6902(7) 0.101(3) 0.5584(8)
H14 H 0.7331 0.0050 0.5542
O11 O 0.2293(6) 0.236(2) 0.7597(6)
C15 C 0.5663(6) 0.385(3) 0.5714(7)
H15 H 0.5250 0.4870 0.5768
C16 C 0.5994(7) 0.156(3) 0.6140(8)
C17 C 0.6634(7) 0.016(3) 0.6081(8)
H16 H 0.6878 -0.1378 0.6386
N3 N 0.4277(7) -0.043(3) 0.8642(7)
H17 H 0.4512 -0.2042 0.8689
C18 C 0.6096(11) 0.298(4) 0.9737(9)
H18 H 0.5939 0.2321 1.0114
H19 H 0.5979 0.4951 0.9657
H20 H 0.6677 0.2676 0.9897
C19 C 0.5627(8) 0.145(3) 0.9035(9)
H21 H 0.5755 -0.0554 0.9124
C20 C 0.8316(9) 0.009(3) 0.9443(10)
H22 H 0.8050 -0.0917 0.9002
C21 C 0.9083(10) 0.291(4) 1.0742(10)
H23 H 0.9360 0.3884 1.1187
C22 C 0.8426(8) 0.031(3) 1.1371(9)
O12 O 0.7963(8) -0.180(3) 1.1288(7)
C23 C 0.5705(7) 0.061(3) 0.6702(7)
H24 H 0.5739 -0.1422 0.6737
H25 H 0.5131 0.1131 0.6535
C24 C 0.4721(8) 0.186(3) 0.8804(9)
O13 O 0.4430(6) 0.416(3) 0.8711(7)
C25 C 0.2957(9) 0.126(3) 0.7694(9)
O14 O 1.0717(5) -0.043(3) 0.6044(5)
C26 C 0.8491(7) 0.186(3) 0.8115(8)
H26 H 0.8479 -0.0194 0.8140
C27 C 0.7620(8) 0.302(3) 0.7832(10)
N4 N 0.8836(6) 0.269(2) 0.7628(6)
H27 H 0.8795 0.4420 0.7494
C28 C 0.9213(8) 0.095(3) 0.7372(9)
C29 C 0.9653(9) 0.283(3) 0.5804(9)
H28 H 0.9329 0.2091 0.5308
H29 H 0.9920 0.4551 0.5765
N5 N 1.0230(6) 0.045(2) 0.6887(7)
H30 H 1.0520 -0.0798 0.7208
C30 C 1.0247(7) 0.082(3) 0.6265(9)
Cd1_2 Cd 0.72201(5) 0.9200(2) 0.37863(5)
Cd1A Cd 0.27799(5) 0.4200(2) 0.62137(5)
O2A O 0.6740(6) -0.356(2) 0.2783(6)
O10_2 O 0.6624(5) -0.3513(19) 0.4302(5)
loop_
_geom_bond_atom_site_label_1
_geom_bond_atom_site_label_2
_geom_bond_site_symmetry_1
_geom_bond_site_symmetry_2
Cd1 O1 1_555 1_555
O2 C25 1_555 1_555
O3 Cd1 1_555 1_555
O4 Cd1 1_555 1_555
O5 C8 1_555 1_555
O6 C28 1_555 1_555
C1 H1 1_555 1_555
C2 C1 1_555 1_555
H2 C2 1_555 1_555
H3 C2 1_555 1_555
C3 C4 1_555 1_555
C4 H4 1_555 1_555
H5 C4 1_555 1_555
C5 C3 1_555 1_555
H6 C5 1_555 1_555
C6 H7 1_555 1_555
O7 C27 1_555 1_555
O8 C22 1_555 1_555
C7 C6 1_555 1_555
N1 H8 1_555 1_555
C8 N2 1_555 1_555
N2 H9 1_555 1_555
C9 N1 1_555 1_555
H10 C9 1_555 1_555
O9 Cd1 1_555 1_555
O10 C10 1_555 1_555
C10 O9 1_555 1_555
C11 H11 1_555 1_555
H12 C11 1_555 1_555
C12 H13 1_555 1_555
C13 C10 1_555 1_555
C14 C13 1_555 1_555
H14 C14 1_555 1_555
O11 C25 1_555 1_555
C15 C12 1_555 1_555
H15 C15 1_555 1_555
C16 C15 1_555 1_555
C17 C14 1_555 1_555
H16 C17 1_555 1_555
N3 C11 1_555 1_555
H17 N3 1_555 1_555
C18 H18 1_555 1_555
H19 C18 1_555 1_555
H20 C18 1_555 1_555
C19 N2 1_555 1_555
H21 C19 1_555 1_555
C20 C3 1_555 1_555
H22 C20 1_555 1_555
C21 C5 1_555 1_555
H23 C21 1_555 1_555
C22 C7 1_555 1_555
O12 C22 1_555 1_555
C23 C9 1_555 1_555
H24 C23 1_555 1_555
H25 C23 1_555 1_555
C24 N3 1_555 1_555
O13 C24 1_555 1_555
C25 C11 1_555 1_555
O14 C30 1_555 1_555
C26 C4 1_555 1_555
H26 C26 1_555 1_555
C27 N1 1_555 1_555
N4 C26 1_555 1_555
H27 N4 1_555 1_555
C28 C1 1_555 1_555
C29 C2 1_555 1_555
H28 C29 1_555 1_555
H29 C29 1_555 1_555
N5 C1 1_555 1_555
H30 N5 1_555 1_555
C30 C29 1_555 1_555
Cd1_2 O10 1_555 1_555
Cd1A O2 1_555 1_555
O2A Cd1 1_555 1_555
O10_2 Cd1 1_555 1_555
C6 C20 1_555 1_555
C7 C21 1_555 1_555
C8 C9 1_555 1_555
C12 C13 1_555 1_555
C16 C17 1_555 1_555
C16 C23 1_555 1_555
C18 C19 1_555 1_555
C19 C24 1_555 1_555
C26 C27 1_555 1_555
N4 C28 1_555 1_555
N5 C30 1_555 1_555

#END
