
#######################################################################
#
#                 Cambridge Crystallographic Data Centre
#                                CCDC 
#
#######################################################################
#
# If this CIF has been generated from an entry in the Cambridge 
# Structural Database, then it will include bibliographic, chemical, 
# crystal, experimental, refinement or atomic coordinate data resulting 
# from the CCDC's data processing and validation procedures.
#
#######################################################################

data_XIYLAT
_symmetry_cell_setting           triclinic
_symmetry_space_group_name_H-M   'P -1'
_symmetry_Int_Tables_number      2
_space_group_name_Hall           '-P 1'
loop_
_symmetry_equiv_pos_site_id
_symmetry_equiv_pos_as_xyz
1 x,y,z
2 -x,-y,-z
_cell_length_a                   7.7418(2)
_cell_length_b                   8.5972(2)
_cell_length_c                   8.6938(2)
_cell_angle_alpha                85.5600(10)
_cell_angle_beta                 76.0580(10)
_cell_angle_gamma                66.6100(10)
_cell_volume                     515.336
loop_
_atom_site_label
_atom_site_type_symbol
_atom_site_fract_x
_atom_site_fract_y
_atom_site_fract_z
C1 C 0.7201(3) 0.1927(3) 1.0989(2)
C2 C 0.5546(3) 0.2981(3) 1.2273(2)
C3 C 0.4558(3) 0.2209(3) 1.3407(2)
H1 H 0.4903 0.1043 1.3367
C4 C 0.3045(3) 0.3202(3) 1.4603(2)
C5 C 0.2536(3) 0.4942(3) 1.4680(2)
H2 H 0.1566 0.5586 1.5513
C6 C 0.3478(3) 0.5723(3) 1.3506(2)
C7 C 0.4982(3) 0.4733(3) 1.2308(2)
H3 H 0.5618 0.5245 1.1524
C8 C 0.1904(3) 0.2393(3) 1.5777(2)
Fe1 Fe 0.02840(4) 0.88499(4) 1.21504(3)
N1 N 0.2832(3) 0.7520(2) 1.3483(2)
H4 H 0.2427 0.7923 1.4487
H5 H 0.3836 0.7797 1.3005
O1 O 0.7802(2) 0.2675(2) 0.98185(18)
O2 O 0.7906(2) 0.03385(19) 1.11251(19)
O3 O 0.1801(3) 0.1058(2) 1.53777(19)
O4 O 0.1029(2) 0.3068(2) 1.71242(18)
O5 O 0.0523(3) 1.1127(2) 1.2728(2)
H6 H 0.112(5) 1.105(4) 1.340(3)
H7 H 0.065(5) 1.189(3) 1.217(3)
Fe1A Fe 0.97160(4) 0.11501(4) 0.78496(3)
Fe1_2 Fe 1.02840(4) -0.11501(4) 1.21504(3)
Fe1A_2 Fe -0.02840(4) 0.11501(4) 1.78496(3)
O1A O 0.2198(2) 0.7325(2) 1.01815(18)
O2_2 O -0.2094(2) 1.03385(19) 1.11251(19)
O3A O -0.1801(3) 0.8942(2) 1.46223(19)
O4A O -0.1029(2) 0.6932(2) 1.28758(18)
O6 O 0.0978(4) 0.3865(3) 0.1118(3)
H8 H 0.074(5) 0.464(4) 0.177(4)
H9 H -0.001(3) 0.401(3) 0.078(3)
O7 O 0.4365(3) 0.1532(3) 0.9066(3)
H10 H 0.376(5) 0.110(5) 0.867(5)
H11 H 0.360(4) 0.231(4) 0.972(4)
loop_
_geom_bond_atom_site_label_1
_geom_bond_atom_site_label_2
_geom_bond_site_symmetry_1
_geom_bond_site_symmetry_2
C1 C2 1_555 1_555
C2 C3 1_555 1_555
C3 H1 1_555 1_555
C4 C3 1_555 1_555
C5 C4 1_555 1_555
H2 C5 1_555 1_555
C6 C5 1_555 1_555
C7 C2 1_555 1_555
H3 C7 1_555 1_555
C8 C4 1_555 1_555
Fe1 N1 1_555 1_555
N1 C6 1_555 1_555
H4 N1 1_555 1_555
H5 N1 1_555 1_555
O1 C1 1_555 1_555
O2 C1 1_555 1_555
O3 C8 1_555 1_555
O4 C8 1_555 1_555
O5 Fe1 1_555 1_555
H6 O5 1_555 1_555
H7 O5 1_555 1_555
O6 H8 1_555 1_555
H9 O6 1_555 1_555
O7 H10 1_555 1_555
H11 O7 1_555 1_555
Fe1A O1 1_555 1_555
Fe1_2 O2 1_555 1_555
Fe1A_2 O3 1_555 1_555
O1A Fe1 1_555 1_555
O2_2 Fe1 1_555 1_555
O3A Fe1 1_555 1_555
O4A Fe1 1_555 1_555
C6 C7 1_555 1_555
O4 Fe1A_2 1_555 1_555

#END
