
#######################################################################
#
#                 Cambridge Crystallographic Data Centre
#                                CCDC 
#
#######################################################################
#
# If this CIF has been generated from an entry in the Cambridge 
# Structural Database, then it will include bibliographic, chemical, 
# crystal, experimental, refinement or atomic coordinate data resulting 
# from the CCDC's data processing and validation procedures.
#
#######################################################################

data_XIYNID
_symmetry_cell_setting           monoclinic
_symmetry_space_group_name_H-M   'P 21/c'
_symmetry_Int_Tables_number      14
_space_group_name_Hall           '-P 2ybc'
loop_
_symmetry_equiv_pos_site_id
_symmetry_equiv_pos_as_xyz
1 x,y,z
2 -x,1/2+y,1/2-z
3 -x,-y,-z
4 x,1/2-y,1/2+z
_cell_length_a                   17.8354(7)
_cell_length_b                   6.8077(3)
_cell_length_c                   18.5276(8)
_cell_angle_alpha                90
_cell_angle_beta                 101.297(3)
_cell_angle_gamma                90
_cell_volume                     2206
loop_
_atom_site_label
_atom_site_type_symbol
_atom_site_fract_x
_atom_site_fract_y
_atom_site_fract_z
C1 C 0.10806(18) 0.6762(5) 0.41264(16)
C2 C 0.18125(18) 0.6618(5) 0.46951(19)
H1 H 0.1707 0.6023 0.5140
H2 H 0.2175 0.5790 0.4510
C3 C 0.28244(17) 0.8609(6) 0.53280(18)
C4 C 0.3216(2) 1.0370(6) 0.5327(2)
C5 C 0.3898(2) 1.0689(7) 0.5798(3)
H3 H 0.4156 1.1874 0.5791
C6 C 0.4196(2) 0.9231(7) 0.6281(2)
C7 C 0.3831(2) 0.7454(7) 0.6279(2)
H4 H 0.4046 0.6463 0.6600
C8 C 0.31519(19) 0.7145(6) 0.5804(2)
H5 H 0.2908 0.5937 0.5801
C9 C -0.24793(17) 1.0577(5) 0.26633(18)
C10 C -0.2516(2) 1.2253(6) 0.2240(2)
H6 H -0.2156 1.3243 0.2373
C11 C -0.3083(2) 1.2475(7) 0.1617(2)
H7 H -0.3112 1.3622 0.1340
C12 C -0.3600(2) 1.1003(8) 0.1412(2)
C13 C -0.3568(2) 0.9291(7) 0.1815(2)
H8 H -0.3919 0.8289 0.1668
C14 C -0.30089(18) 0.9088(6) 0.2439(2)
C15 C -0.13933(18) 1.1724(5) 0.35198(17)
H9 H -0.1135 1.1485 0.4023
H10 H -0.1637 1.3001 0.3502
C16 C -0.08085(15) 1.1739(5) 0.30233(15)
Ca1 Ca -0.02416(3) 0.67481(9) 0.29818(3)
Cl1 Cl 0.28379(8) 1.21602(17) 0.46954(10)
Cl2 Cl 0.50445(6) 0.9670(2) 0.69082(8)
Cl3 Cl -0.43126(7) 1.1255(3) 0.06300(7)
Cl4 Cl -0.29530(6) 0.69273(16) 0.29402(7)
O1 O 0.07745(13) 0.5164(3) 0.39084(12)
O2 O 0.08134(12) 0.8394(3) 0.38986(12)
O3 O 0.21318(13) 0.8512(4) 0.48578(14)
O4 O -0.06060(11) 1.0138(3) 0.27914(11)
O5 O -0.05492(12) 1.3347(3) 0.28650(12)
O6 O -0.19623(11) 1.0256(3) 0.33051(12)
O7 O -0.10329(14) 0.6837(4) 0.38884(13)
H11 H -0.1418(13) 0.750(5) 0.3754(18)
H12 H -0.0840(18) 0.731(5) 0.4291(12)
O8 O -0.12281(14) 0.6700(4) 0.18973(12)
H13 H -0.123(2) 0.766(3) 0.1629(15)
H14 H -0.122(2) 0.577(3) 0.1615(14)
Ca1A Ca 0.02416(3) 1.17481(9) 0.20182(3)
Ca1_2 Ca -0.02416(3) 1.67481(9) 0.29818(3)
O4A O 0.06060(11) 0.5138(3) 0.22086(11)
O5_2 O -0.05492(12) 0.3347(3) 0.28650(12)
O5A O 0.05492(12) 0.8347(3) 0.21350(12)
O9 O 0.0390(2) 0.1918(4) 0.47185(15)
H15 H 0.047(3) 0.286(3) 0.444(2)
H16 H 0.049(3) 0.084(3) 0.453(2)
loop_
_geom_bond_atom_site_label_1
_geom_bond_atom_site_label_2
_geom_bond_site_symmetry_1
_geom_bond_site_symmetry_2
C1 C2 1_555 1_555
C2 H1 1_555 1_555
H2 C2 1_555 1_555
C3 C4 1_555 1_555
C4 C5 1_555 1_555
C5 H3 1_555 1_555
C6 C5 1_555 1_555
C7 C6 1_555 1_555
H4 C7 1_555 1_555
C8 C3 1_555 1_555
H5 C8 1_555 1_555
C9 C10 1_555 1_555
C10 H6 1_555 1_555
C11 C10 1_555 1_555
H7 C11 1_555 1_555
C12 C11 1_555 1_555
C13 C12 1_555 1_555
H8 C13 1_555 1_555
C14 C9 1_555 1_555
C15 H9 1_555 1_555
H10 C15 1_555 1_555
C16 C15 1_555 1_555
Ca1 O1 1_555 1_555
Cl1 C4 1_555 1_555
Cl2 C6 1_555 1_555
Cl3 C12 1_555 1_555
Cl4 C14 1_555 1_555
O1 C1 1_555 1_555
O2 C1 1_555 1_555
O3 C2 1_555 1_555
O4 C16 1_555 1_555
O5 C16 1_555 1_555
O6 C9 1_555 1_555
O7 Ca1 1_555 1_555
H11 O7 1_555 1_555
H12 O7 1_555 1_555
O8 Ca1 1_555 1_555
H13 O8 1_555 1_555
H14 O8 1_555 1_555
O9 H15 1_555 1_555
H16 O9 1_555 1_555
Ca1A O4 1_555 1_555
Ca1_2 O5 1_555 1_555
O4A Ca1 1_555 1_555
O5_2 Ca1 1_555 1_555
O5A Ca1 1_555 1_555
C3 O3 1_555 1_555
C7 C8 1_555 1_555
C13 C14 1_555 1_555
C15 O6 1_555 1_555
Ca1 O2 1_555 1_555
Ca1 O4 1_555 1_555
O5 Ca1A 1_555 1_555
Ca1A O5A 1_555 1_555

#END
