
#######################################################################
#
#                 Cambridge Crystallographic Data Centre
#                                CCDC 
#
#######################################################################
#
# If this CIF has been generated from an entry in the Cambridge 
# Structural Database, then it will include bibliographic, chemical, 
# crystal, experimental, refinement or atomic coordinate data resulting 
# from the CCDC's data processing and validation procedures.
#
#######################################################################

data_XIYNAV
_symmetry_cell_setting           monoclinic
_symmetry_space_group_name_H-M   'P 21/n'
_symmetry_Int_Tables_number      14
_space_group_name_Hall           '-P 2yn'
loop_
_symmetry_equiv_pos_site_id
_symmetry_equiv_pos_as_xyz
1 x,y,z
2 1/2-x,1/2+y,1/2-z
3 -x,-y,-z
4 1/2+x,1/2-y,1/2+z
_cell_length_a                   8.1055(3)
_cell_length_b                   6.2208(2)
_cell_length_c                   26.9837(9)
_cell_angle_alpha                90
_cell_angle_beta                 94.030(3)
_cell_angle_gamma                90
_cell_volume                     1357.23
loop_
_atom_site_label
_atom_site_type_symbol
_atom_site_fract_x
_atom_site_fract_y
_atom_site_fract_z
Cu1 Cu 0.12663(5) 0.27589(5) 0.187438(14)
O1 O 0.2121(3) 0.3893(3) 0.12851(7)
C1 C 0.4627(4) 0.8652(4) 0.15767(12)
H1 H 0.5168 0.9353 0.1846
C2 C 0.2967(4) 0.5637(4) 0.12445(11)
C3 C 0.3785(4) 0.6762(4) 0.16517(11)
C4 C 0.3114(4) 0.6587(4) 0.07688(11)
C5 C 0.3921(4) 0.8497(5) 0.06963(12)
H2 H 0.3957 0.9089 0.0381
C6 C 0.4673(4) 0.9503(4) 0.11085(12)
N1 N 0.2313(3) 0.5572(4) 0.03232(10)
N2 N 0.5560(3) 1.1514(4) 0.10454(13)
O2 O 0.5735(3) 1.2190(4) 0.06299(10)
O3 O 0.6093(3) 1.2453(3) 0.14266(11)
O4 O 0.1611(3) 0.6731(4) 0.00078(10)
O5 O 0.2381(4) 0.3631(4) 0.02875(9)
N3 N 0.0150(3) 0.0378(3) 0.14852(9)
C7 C -0.1449(4) -0.2943(4) 0.09616(13)
H3 H -0.1983 -0.4056 0.0785
C8 C -0.0260(4) -0.1437(4) 0.17174(12)
H4 H -0.0007 -0.1566 0.2058
C9 C -0.1048(4) -0.3115(4) 0.14630(12)
C10 C -0.0227(4) 0.0547(4) 0.09966(12)
H5 H 0.0064 0.1790 0.0832
C11 C -0.1036(4) -0.1078(5) 0.07304(13)
H6 H -0.1303 -0.0907 0.0392
O6 O -0.1323(3) -0.4927(3) 0.17369(9)
H7 H -0.2046 -0.5657 0.1591
C12 C 0.3686(4) 0.6059(4) 0.21742(11)
O7 O 0.2620(3) 0.4681(3) 0.22901(8)
O8 O 0.4641(2) 0.6940(3) 0.25017(8)
Cu1_2 Cu 0.12663(5) -0.72411(5) 0.187438(14)
Cu1A Cu 0.37337(5) 0.77589(5) 0.312562(14)
O6_2 O -0.1323(3) 0.5073(3) 0.17369(9)
H7_2 H -0.2046 0.4343 0.1591
O8A O 0.0359(2) 0.1940(3) 0.24983(8)
loop_
_geom_bond_atom_site_label_1
_geom_bond_atom_site_label_2
_geom_bond_site_symmetry_1
_geom_bond_site_symmetry_2
Cu1 O1 1_555 1_555
O1 C2 1_555 1_555
C1 H1 1_555 1_555
C2 C3 1_555 1_555
C3 C1 1_555 1_555
C4 C2 1_555 1_555
C5 C4 1_555 1_555
H2 C5 1_555 1_555
C6 C1 1_555 1_555
N1 C4 1_555 1_555
N2 C6 1_555 1_555
O2 N2 1_555 1_555
O3 N2 1_555 1_555
O4 N1 1_555 1_555
O5 N1 1_555 1_555
N3 Cu1 1_555 1_555
C7 H3 1_555 1_555
C8 N3 1_555 1_555
H4 C8 1_555 1_555
C9 C7 1_555 1_555
C10 N3 1_555 1_555
H5 C10 1_555 1_555
C11 C7 1_555 1_555
H6 C11 1_555 1_555
O6 C9 1_555 1_555
H7 O6 1_555 1_555
C12 C3 1_555 1_555
O7 Cu1 1_555 1_555
O8 C12 1_555 1_555
Cu1_2 O6 1_555 1_555
Cu1A O8 1_555 1_555
O6_2 Cu1 1_555 1_555
H7_2 O6_2 1_555 1_555
O8A Cu1 1_555 1_555
C5 C6 1_555 1_555
C8 C9 1_555 1_555
C10 C11 1_555 1_555
C12 O7 1_555 1_555

#END
