
#######################################################################
#
#                 Cambridge Crystallographic Data Centre
#                                CCDC 
#
#######################################################################
#
# If this CIF has been generated from an entry in the Cambridge 
# Structural Database, then it will include bibliographic, chemical, 
# crystal, experimental, refinement or atomic coordinate data resulting 
# from the CCDC's data processing and validation procedures.
#
#######################################################################

data_XIYPOL01
_symmetry_cell_setting           monoclinic
_symmetry_space_group_name_H-M   'C 2/c'
_symmetry_Int_Tables_number      15
_space_group_name_Hall           '-C 2yn'
loop_
_symmetry_equiv_pos_site_id
_symmetry_equiv_pos_as_xyz
1 x,y,z
2 -x,y,1/2-z
3 1/2+x,1/2+y,z
4 1/2-x,1/2+y,1/2-z
5 -x,-y,-z
6 x,-y,1/2+z
7 1/2-x,1/2-y,-z
8 1/2+x,1/2-y,1/2+z
_cell_length_a                   17.061
_cell_length_b                   11.367
_cell_length_c                   13.064
_cell_angle_alpha                90
_cell_angle_beta                 126.64
_cell_angle_gamma                90
_cell_volume                     2032.91
loop_
_atom_site_label
_atom_site_type_symbol
_atom_site_fract_x
_atom_site_fract_y
_atom_site_fract_z
Zn1 Zn 0.5000 0.47387(10) 1.2500
O1 O 0.3752(5) 0.4763(5) 1.0431(6)
O2 O 0.6063(5) 0.4746(5) 1.2244(7)
N1 N 0.5000 -0.3399(9) 1.2500
N2 N 0.5000 0.2857(8) 1.2500
C1 C 0.5892(7) 0.2251(8) 1.3189(9)
H1 H 0.6472 0.2677 1.3635
C2 C 0.5930(7) 0.1031(7) 1.3220(9)
H2 H 0.6524 0.0635 1.3681
C3 C 0.5000 -0.0914(10) 1.2500
C4 C 0.5000 0.0387(10) 1.2500
C5 C 0.5897(7) -0.1569(8) 1.3049(10)
H3 H 0.6484 -0.1173 1.3409
C6 C 0.5877(6) -0.2769(8) 1.3035(9)
H4 H 0.6455 -0.3183 1.3388
Zn1_2 Zn 0.5000 -0.52613(10) 1.2500
O1A O 0.6248(5) 0.4763(5) 1.4569(6)
O2A O 0.3937(5) 0.4746(5) 1.2756(7)
N1_2 N 0.5000 0.6601(9) 1.2500
C1A C 0.4108(7) 0.2251(8) 1.1811(9)
H1A H 0.3528 0.2677 1.1365
C2A C 0.4070(7) 0.1031(7) 1.1780(9)
H2A H 0.3476 0.0635 1.1319
C5A C 0.4103(7) -0.1569(8) 1.1951(10)
H3A H 0.3516 -0.1173 1.1591
C6A C 0.4123(6) -0.2769(8) 1.1965(9)
H4A H 0.3545 -0.3183 1.1612
O3 O 0.3102(5) 1.0447(6) 0.8801(8)
O4 O 0.3133(5) 0.8501(6) 0.8638(7)
C7 C 0.3566(6) 0.9491(8) 0.9008(9)
C8 C 0.4708(6) 0.9531(8) 0.9734(9)
H5 H 0.5008 0.8822 0.9800
O3D O 0.6898(5) 0.9553(6) 1.1199(8)
O4D O 0.6867(5) 1.1499(6) 1.1362(7)
C7D C 0.6434(6) 1.0509(8) 1.0992(9)
C8D C 0.5292(6) 1.0469(8) 1.0266(9)
H5D H 0.4992 1.1178 1.0200
O5 O 0.4320(5) 0.6542(6) 0.9673(6)
O6 O 0.6516(5) 0.7125(6) 1.1092(7)
loop_
_geom_bond_atom_site_label_1
_geom_bond_atom_site_label_2
_geom_bond_site_symmetry_1
_geom_bond_site_symmetry_2
Zn1 O1 1_555 1_555
O2 Zn1 1_555 1_555
N1 C6 1_555 1_555
N2 Zn1 1_555 1_555
C1 N2 1_555 1_555
H1 C1 1_555 1_555
C2 C1 1_555 1_555
H2 C2 1_555 1_555
C3 C4 1_555 1_555
C4 C2 1_555 1_555
C5 C3 1_555 1_555
H3 C5 1_555 1_555
C6 C5 1_555 1_555
H4 C6 1_555 1_555
O3 C7 1_555 1_555
O4 C7 1_555 1_555
C7 C8 1_555 1_555
C8 H5 1_555 1_555
Zn1_2 N1 1_555 1_555
O1A Zn1 1_555 1_555
O2A Zn1 1_555 1_555
N1_2 Zn1 1_555 1_555
C1A N2 1_555 1_555
H1A C1A 1_555 1_555
C2A C4 1_555 1_555
H2A C2A 1_555 1_555
C5A C3 1_555 1_555
H3A C5A 1_555 1_555
C6A N1 1_555 1_555
H4A C6A 1_555 1_555
O3D C7D 1_555 1_555
O4D C7D 1_555 1_555
C7D C8D 1_555 1_555
C8D C8 1_555 1_555
H5D C8D 1_555 1_555
C1A C2A 1_555 1_555
C5A C6A 1_555 1_555

#END
