
#######################################################################
#
#                 Cambridge Crystallographic Data Centre
#                                CCDC 
#
#######################################################################
#
# If this CIF has been generated from an entry in the Cambridge 
# Structural Database, then it will include bibliographic, chemical, 
# crystal, experimental, refinement or atomic coordinate data resulting 
# from the CCDC's data processing and validation procedures.
#
#######################################################################

data_XIYPOL
_symmetry_cell_setting           monoclinic
_symmetry_space_group_name_H-M   'C 2/c'
_symmetry_Int_Tables_number      15
_space_group_name_Hall           '-C 2yn'
loop_
_symmetry_equiv_pos_site_id
_symmetry_equiv_pos_as_xyz
1 x,y,z
2 1/2+x,1/2+y,z
3 -x,y,1/2-z
4 1/2-x,1/2+y,1/2-z
5 -x,-y,-z
6 1/2-x,1/2-y,-z
7 x,-y,1/2+z
8 1/2+x,1/2-y,1/2+z
_cell_length_a                   17.094(5)
_cell_length_b                   11.394(3)
_cell_length_c                   13.082(6)
_cell_angle_alpha                90
_cell_angle_beta                 126.652(2)
_cell_angle_gamma                90
_cell_volume                     2044.17
loop_
_atom_site_label
_atom_site_type_symbol
_atom_site_fract_x
_atom_site_fract_y
_atom_site_fract_z
Zn1 Zn 0.5000 0.27603(3) 0.7500
O1 O 0.41826(14) 0.27340(13) 0.54278(17)
H1 H 0.3814 0.2172 0.5259
H2 H 0.3864 0.3328 0.5041
O2 O 0.36784(13) 0.27446(13) 0.72328(17)
H3 H 0.3232 0.3120 0.6610
H4 H 0.3621 0.2706 0.7812
N1 N 0.5000 0.4644(2) 0.7500
N2 N 0.5000 1.0888(2) 0.7500
C1 C 0.47776(19) 0.5262(2) 0.8170(2)
H5 H 0.4613 0.4854 0.8633
C2 C 0.47816(19) 0.6469(2) 0.8206(2)
H6 H 0.4638 0.6856 0.8702
C3 C 0.5000 0.7114(3) 0.7500
C4 C 0.5000 0.8413(3) 0.7500
C5 C 0.5361(2) 0.9065(2) 0.6958(3)
H7 H 0.5612 0.8681 0.6584
C6 C 0.53453(18) 1.0269(2) 0.6974(2)
H8 H 0.5587 1.0677 0.6601
Zn1_2 Zn 0.5000 1.27603(3) 0.7500
O1B O 0.58174(14) 0.27340(13) 0.95722(17)
H1B H 0.6186 0.2172 0.9741
H2B H 0.6136 0.3328 0.9959
O2B O 0.63216(13) 0.27446(13) 0.77672(17)
H3B H 0.6768 0.3120 0.8390
H4B H 0.6379 0.2706 0.7188
N2_2 N 0.5000 0.0888(2) 0.7500
C1B C 0.52224(19) 0.5262(2) 0.6830(2)
H5B H 0.5387 0.4854 0.6367
C2B C 0.52184(19) 0.6469(2) 0.6794(2)
H6B H 0.5362 0.6856 0.6298
C5B C 0.4639(2) 0.9065(2) 0.8042(3)
H7B H 0.4388 0.8681 0.8416
C6B C 0.46547(18) 1.0269(2) 0.8026(2)
H8B H 0.4413 1.0677 0.8399
O3 O 0.21520(12) 0.40439(15) 0.53213(15)
H9 H 0.2070 0.4658 0.5581
H10 H 0.2331 0.4167 0.4872
O4 O 0.29343(13) 0.53785(16) 0.89255(16)
H11 H 0.3041 0.4667 0.8933
H12 H 0.2635 0.5646 0.8191
O5 O 0.19945(14) 0.59997(17) 0.63613(17)
O6 O 0.17990(18) 0.79445(17) 0.6206(2)
C7 C 0.20633(18) 0.6996(2) 0.6001(2)
C8 C 0.24700(18) 0.7029(2) 0.5263(2)
H13 H 0.2699 0.6328 0.5167
O5E O 0.30055(14) 0.90003(17) 0.36387(17)
O6E O 0.32010(18) 0.70555(17) 0.3794(2)
C7E C 0.29367(18) 0.8004(2) 0.3999(2)
C8E C 0.25300(18) 0.7971(2) 0.4737(2)
H13E H 0.2301 0.8672 0.4833
loop_
_geom_bond_atom_site_label_1
_geom_bond_atom_site_label_2
_geom_bond_site_symmetry_1
_geom_bond_site_symmetry_2
Zn1 O1 1_555 1_555
O1 H1 1_555 1_555
H2 O1 1_555 1_555
O2 Zn1 1_555 1_555
H3 O2 1_555 1_555
H4 O2 1_555 1_555
N1 Zn1 1_555 1_555
N2 C6 1_555 1_555
C1 N1 1_555 1_555
H5 C1 1_555 1_555
C2 C1 1_555 1_555
H6 C2 1_555 1_555
C3 C2 1_555 1_555
C4 C3 1_555 1_555
C5 C4 1_555 1_555
H7 C5 1_555 1_555
C6 C5 1_555 1_555
H8 C6 1_555 1_555
O3 H9 1_555 1_555
H10 O3 1_555 1_555
O4 H11 1_555 1_555
H12 O4 1_555 1_555
O5 C7 1_555 1_555
O6 C7 1_555 1_555
C7 C8 1_555 1_555
C8 H13 1_555 1_555
Zn1_2 N2 1_555 1_555
O1B Zn1 1_555 1_555
H1B O1B 1_555 1_555
H2B O1B 1_555 1_555
O2B Zn1 1_555 1_555
H3B O2B 1_555 1_555
H4B O2B 1_555 1_555
N2_2 Zn1 1_555 1_555
C1B N1 1_555 1_555
H5B C1B 1_555 1_555
C2B C3 1_555 1_555
H6B C2B 1_555 1_555
C5B C4 1_555 1_555
H7B C5B 1_555 1_555
C6B N2 1_555 1_555
H8B C6B 1_555 1_555
O5E C7E 1_555 1_555
O6E C7E 1_555 1_555
C7E C8E 1_555 1_555
C8E C8 1_555 1_555
H13E C8E 1_555 1_555
C1B C2B 1_555 1_555
C5B C6B 1_555 1_555

#END
