
#######################################################################
#
#                 Cambridge Crystallographic Data Centre
#                                CCDC 
#
#######################################################################
#
# If this CIF has been generated from an entry in the Cambridge 
# Structural Database, then it will include bibliographic, chemical, 
# crystal, experimental, refinement or atomic coordinate data resulting 
# from the CCDC's data processing and validation procedures.
#
#######################################################################

data_XIYXUY
_symmetry_cell_setting           monoclinic
_symmetry_space_group_name_H-M   'C 2/c'
_symmetry_Int_Tables_number      15
_space_group_name_Hall           '-C 2yn'
loop_
_symmetry_equiv_pos_site_id
_symmetry_equiv_pos_as_xyz
1 x,y,z
2 1/2+x,1/2+y,z
3 x,-y,1/2+z
4 1/2+x,1/2-y,1/2+z
5 -x,-y,-z
6 1/2-x,1/2-y,-z
7 -x,y,1/2-z
8 1/2-x,1/2+y,1/2-z
_cell_length_a                   23.036(5)
_cell_length_b                   5.9200(10)
_cell_length_c                   17.800(4)
_cell_angle_alpha                90
_cell_angle_beta                 92.67(3)
_cell_angle_gamma                90
_cell_volume                     2424.81
loop_
_atom_site_label
_atom_site_type_symbol
_atom_site_fract_x
_atom_site_fract_y
_atom_site_fract_z
Cd1 Cd 0.0000 0.0000 0.0000
N1 N -0.03516(16) -0.3614(6) -0.0121(2)
N2 N 0.0000 -0.5000 0.0000
N3 N 0.04507(13) -0.1135(5) 0.11919(16)
N4 N 0.41770(13) 0.6174(6) 0.07020(18)
C1 C 0.10718(14) -0.1160(6) 0.12919(17)
C2 C 0.38272(15) 0.4332(7) 0.09367(19)
C3 C 0.13584(16) 0.0718(7) 0.15995(19)
H1 H 0.1140 0.2018 0.1742
C4 C 0.13877(15) -0.3020(6) 0.10780(19)
H2 H 0.1189 -0.4313 0.0866
C5 C 0.39367(16) 0.3305(8) 0.1632(2)
H3 H 0.4244 0.3857 0.1966
C6 C 0.33962(16) 0.3451(8) 0.0455(2)
H4 H 0.3323 0.4106 -0.0033
C7 C 0.19620(16) 0.0706(7) 0.1699(2)
H5 H 0.2161 0.1987 0.1919
C8 C 0.19913(16) -0.3031(6) 0.1172(2)
H6 H 0.2211 -0.4322 0.1024
C9 C 0.36127(17) 0.1460(8) 0.1844(2)
H7 H 0.3688 0.0776 0.2328
C10 C 0.30774(16) 0.1609(8) 0.0667(2)
H8 H 0.2777 0.1016 0.0331
C11 C 0.22732(15) -0.1157(6) 0.14789(19)
C12 C 0.31805(15) 0.0635(7) 0.1368(2)
O1 O 0.28732(11) -0.1258(5) 0.15898(17)
H9 H 0.0308 0.0013 0.1504
H10 H 0.4362 0.6834 0.1131
H11 H 0.3973 0.7246 0.0385
H12 H 0.0322 -0.2515 0.1280
N1D N 0.03516(16) -0.6386(6) 0.0121(2)
N3D N -0.04507(13) 0.1135(5) -0.11919(16)
N4D N -0.41770(13) -0.6174(6) -0.07020(18)
C1D C -0.10718(14) 0.1160(6) -0.12919(17)
C2D C -0.38272(15) -0.4332(7) -0.09367(19)
C3D C -0.13584(16) -0.0718(7) -0.15995(19)
H1D H -0.1140 -0.2018 -0.1742
C4D C -0.13877(15) 0.3020(6) -0.10780(19)
H2D H -0.1189 0.4313 -0.0866
C5D C -0.39367(16) -0.3305(8) -0.1632(2)
H3D H -0.4244 -0.3857 -0.1966
C6D C -0.33962(16) -0.3451(8) -0.0455(2)
H4D H -0.3323 -0.4106 0.0033
C7D C -0.19620(16) -0.0706(7) -0.1699(2)
H5D H -0.2161 -0.1987 -0.1919
C8D C -0.19913(16) 0.3031(6) -0.1172(2)
H6D H -0.2211 0.4322 -0.1024
C9D C -0.36127(17) -0.1460(8) -0.1844(2)
H7D H -0.3688 -0.0776 -0.2328
C10D C -0.30774(16) -0.1609(8) -0.0667(2)
H8D H -0.2777 -0.1016 -0.0331
C11D C -0.22732(15) 0.1157(6) -0.14789(19)
C12D C -0.31805(15) -0.0635(7) -0.1368(2)
O1D O -0.28732(11) 0.1258(5) -0.15898(17)
H9D H -0.0308 -0.0013 -0.1504
H10D H -0.4362 -0.6834 -0.1131
H11D H -0.3973 -0.7246 -0.0385
H12D H -0.0322 0.2515 -0.1280
N1D_2 N 0.03516(16) 0.3614(6) 0.0121(2)
N4A N -0.08230(13) 0.1174(6) 0.07020(18)
N4E N 0.08230(13) -0.1174(6) -0.07020(18)
Cd1A Cd 0.5000 0.5000 0.0000
Cd1_2 Cd 0.0000 -1.0000 0.0000
Cd1A_2 Cd -0.5000 -0.5000 0.0000
H10A H -0.0638 0.1834 0.1131
H11A H -0.1027 0.2246 0.0385
H10E H 0.0638 -0.1834 -0.1131
H11E H 0.1027 -0.2246 -0.0385
N5 N 0.0000 -0.6353(9) 0.2500
O2 O 0.0000 -0.8403(12) 0.2500
O3 O 0.0024(3) -0.5746(15) 0.1787(4)
O3F O -0.0024(3) -0.5746(15) 0.3213(4)
loop_
_geom_bond_atom_site_label_1
_geom_bond_atom_site_label_2
_geom_bond_site_symmetry_1
_geom_bond_site_symmetry_2
Cd1 N1 1_555 1_555
N1 N2 1_555 1_555
N2 N1D 1_555 1_555
N3 Cd1 1_555 1_555
N4 C2 1_555 1_555
C1 N3 1_555 1_555
C2 C5 1_555 1_555
C3 C1 1_555 1_555
H1 C3 1_555 1_555
C4 C1 1_555 1_555
H2 C4 1_555 1_555
C5 H3 1_555 1_555
C6 C2 1_555 1_555
H4 C6 1_555 1_555
C7 C3 1_555 1_555
H5 C7 1_555 1_555
C8 C4 1_555 1_555
H6 C8 1_555 1_555
C9 C5 1_555 1_555
H7 C9 1_555 1_555
C10 C6 1_555 1_555
H8 C10 1_555 1_555
C11 C7 1_555 1_555
C12 C9 1_555 1_555
O1 C11 1_555 1_555
N5 O2 1_555 1_555
O3 N5 1_555 1_555
H9 N3 1_555 1_555
H10 N4 1_555 1_555
H11 N4 1_555 1_555
H12 N3 1_555 1_555
N1D Cd1_2 1_555 1_555
O3F N5 1_555 1_555
N3D Cd1 1_555 1_555
N4D C2D 1_555 1_555
C1D N3D 1_555 1_555
C2D C5D 1_555 1_555
C3D C1D 1_555 1_555
H1D C3D 1_555 1_555
C4D C1D 1_555 1_555
H2D C4D 1_555 1_555
C5D H3D 1_555 1_555
C6D C2D 1_555 1_555
H4D C6D 1_555 1_555
C7D C3D 1_555 1_555
H5D C7D 1_555 1_555
C8D C4D 1_555 1_555
H6D C8D 1_555 1_555
C9D C5D 1_555 1_555
H7D C9D 1_555 1_555
C10D C6D 1_555 1_555
H8D C10D 1_555 1_555
C11D C7D 1_555 1_555
C12D C9D 1_555 1_555
O1D C11D 1_555 1_555
H9D N3D 1_555 1_555
H10D N4D 1_555 1_555
H11D N4D 1_555 1_555
H12D N3D 1_555 1_555
N1D_2 Cd1 1_555 1_555
N4A Cd1 1_555 1_555
N4E Cd1 1_555 1_555
Cd1A N4 1_555 1_555
Cd1A_2 N4D 1_555 1_555
H10A N4A 1_555 1_555
H11A N4A 1_555 1_555
H10E N4E 1_555 1_555
H11E N4E 1_555 1_555
C8 C11 1_555 1_555
C10 C12 1_555 1_555
C12 O1 1_555 1_555
C8D C11D 1_555 1_555
C10D C12D 1_555 1_555
C12D O1D 1_555 1_555

#END
