
#######################################################################
#
#                 Cambridge Crystallographic Data Centre
#                                CCDC 
#
#######################################################################
#
# If this CIF has been generated from an entry in the Cambridge 
# Structural Database, then it will include bibliographic, chemical, 
# crystal, experimental, refinement or atomic coordinate data resulting 
# from the CCDC's data processing and validation procedures.
#
#######################################################################

data_XIYXIM
_symmetry_cell_setting           monoclinic
_symmetry_space_group_name_H-M   'P 21/c'
_symmetry_Int_Tables_number      14
_space_group_name_Hall           '-P 2ybc'
loop_
_symmetry_equiv_pos_site_id
_symmetry_equiv_pos_as_xyz
1 x,y,z
2 x,1/2-y,1/2+z
3 -x,-y,-z
4 -x,1/2+y,1/2-z
_cell_length_a                   11.990(4)
_cell_length_b                   9.413(4)
_cell_length_c                   12.827(4)
_cell_angle_alpha                90
_cell_angle_beta                 116.32(2)
_cell_angle_gamma                90
_cell_volume                     1297.6
loop_
_atom_site_label
_atom_site_type_symbol
_atom_site_fract_x
_atom_site_fract_y
_atom_site_fract_z
Ni1 Ni 0.5000 0.0000 0.5000
S1 S 0.57885(10) -0.03436(11) 0.16767(9)
C1 C 0.5362(3) -0.0169(4) 0.2715(3)
N1 N 0.5068(3) -0.0007(3) 0.3452(2)
N2 N 0.5863(2) 0.2111(3) 0.5428(3)
H1 H 0.5441 0.2657 0.4798
H2 H 0.5694 0.2457 0.5997
N3 N 1.3232(2) 0.1157(3) 0.4139(2)
H3 H 1.2694 0.0580 0.3584
H4 H 1.3370 0.1901 0.3771
C2 C 1.2597(3) 0.1696(4) 0.4780(3)
C3 C 1.1805(3) 0.0821(4) 0.5000(3)
H5 H 1.1656 -0.0130 0.4698
C4 C 1.1228(3) 0.1303(4) 0.5668(3)
H6 H 1.0673 0.0696 0.5820
C5 C 1.1452(3) 0.2659(4) 0.6104(3)
C6 C 1.2274(3) 0.3523(4) 0.5921(3)
H7 H 1.2465 0.4450 0.6270
C7 C 1.2840(3) 0.3042(4) 0.5253(3)
H8 H 1.3401 0.3652 0.5112
O1 O 1.0924(2) 0.3173(3) 0.6809(2)
C8 C 0.9664(3) 0.2882(4) 0.6443(3)
C9 C 0.8815(3) 0.3054(4) 0.5299(3)
H9 H 0.9092 0.3332 0.4732
C10 C 0.7555(3) 0.2811(4) 0.4964(3)
H10 H 0.6957 0.2940 0.4168
C11 C 0.7159(3) 0.2392(4) 0.5780(3)
C12 C 0.8026(3) 0.2235(5) 0.6931(3)
H11 H 0.7750 0.1964 0.7500
C13 C 0.9288(3) 0.2466(5) 0.7266(3)
H12 H 0.9890 0.2335 0.8060
S1B S 0.42115(10) 0.03436(11) 0.83233(9)
C1B C 0.4638(3) 0.0169(4) 0.7285(3)
N1B N 0.4932(3) 0.0007(3) 0.6548(2)
N2B N 0.4137(2) -0.2111(3) 0.4572(3)
H1B H 0.4559 -0.2657 0.5202
H2B H 0.4306 -0.2457 0.4003
N3B N -0.3232(2) -0.1157(3) 0.5861(2)
H3B H -0.2694 -0.0580 0.6416
H4B H -0.3370 -0.1901 0.6229
C2B C -0.2597(3) -0.1696(4) 0.5220(3)
C3B C -0.1805(3) -0.0821(4) 0.5000(3)
H5B H -0.1656 0.0130 0.5302
C4B C -0.1228(3) -0.1303(4) 0.4332(3)
H6B H -0.0673 -0.0696 0.4180
C5B C -0.1452(3) -0.2659(4) 0.3896(3)
C6B C -0.2274(3) -0.3523(4) 0.4079(3)
H7B H -0.2465 -0.4450 0.3730
C7B C -0.2840(3) -0.3042(4) 0.4747(3)
H8B H -0.3401 -0.3652 0.4888
O1B O -0.0924(2) -0.3173(3) 0.3191(2)
C8B C 0.0336(3) -0.2882(4) 0.3557(3)
C9B C 0.1185(3) -0.3054(4) 0.4701(3)
H9B H 0.0908 -0.3332 0.5268
C10B C 0.2445(3) -0.2811(4) 0.5036(3)
H10B H 0.3043 -0.2940 0.5832
C11B C 0.2841(3) -0.2392(4) 0.4220(3)
C12B C 0.1974(3) -0.2235(5) 0.3069(3)
H11B H 0.2250 -0.1964 0.2500
C13B C 0.0712(3) -0.2466(5) 0.2734(3)
H12B H 0.0110 -0.2335 0.1940
N3_2 N 0.3232(2) 0.1157(3) 0.4139(2)
N3B_2 N 0.6768(2) -0.1157(3) 0.5861(2)
Ni1_2 Ni 1.5000 0.0000 0.5000
Ni1_3 Ni -0.5000 0.0000 0.5000
H3_2 H 0.2694 0.0580 0.3584
H4_2 H 0.3370 0.1901 0.3771
H3B_2 H 0.7306 -0.0580 0.6416
H4B_2 H 0.6630 -0.1901 0.6229
loop_
_geom_bond_atom_site_label_1
_geom_bond_atom_site_label_2
_geom_bond_site_symmetry_1
_geom_bond_site_symmetry_2
Ni1 N1 1_555 1_555
S1 C1 1_555 1_555
C1 N1 1_555 1_555
N2 Ni1 1_555 1_555
H1 N2 1_555 1_555
H2 N2 1_555 1_555
N3 H3 1_555 1_555
H4 N3 1_555 1_555
C2 N3 1_555 1_555
C3 C2 1_555 1_555
H5 C3 1_555 1_555
C4 C3 1_555 1_555
H6 C4 1_555 1_555
C5 C4 1_555 1_555
C6 C5 1_555 1_555
H7 C6 1_555 1_555
C7 C2 1_555 1_555
H8 C7 1_555 1_555
O1 C5 1_555 1_555
C8 O1 1_555 1_555
C9 C8 1_555 1_555
H9 C9 1_555 1_555
C10 C9 1_555 1_555
H10 C10 1_555 1_555
C11 N2 1_555 1_555
C12 C11 1_555 1_555
H11 C12 1_555 1_555
C13 C8 1_555 1_555
H12 C13 1_555 1_555
S1B C1B 1_555 1_555
C1B N1B 1_555 1_555
N1B Ni1 1_555 1_555
N2B Ni1 1_555 1_555
H1B N2B 1_555 1_555
H2B N2B 1_555 1_555
N3B H3B 1_555 1_555
H4B N3B 1_555 1_555
C2B N3B 1_555 1_555
C3B C2B 1_555 1_555
H5B C3B 1_555 1_555
C4B C3B 1_555 1_555
H6B C4B 1_555 1_555
C5B C4B 1_555 1_555
C6B C5B 1_555 1_555
H7B C6B 1_555 1_555
C7B C2B 1_555 1_555
H8B C7B 1_555 1_555
O1B C5B 1_555 1_555
C8B O1B 1_555 1_555
C9B C8B 1_555 1_555
H9B C9B 1_555 1_555
C10B C9B 1_555 1_555
H10B C10B 1_555 1_555
C11B N2B 1_555 1_555
C12B C11B 1_555 1_555
H11B C12B 1_555 1_555
C13B C8B 1_555 1_555
H12B C13B 1_555 1_555
N3_2 Ni1 1_555 1_555
N3B_2 Ni1 1_555 1_555
Ni1_2 N3 1_555 1_555
Ni1_3 N3B 1_555 1_555
H3_2 N3_2 1_555 1_555
H4_2 N3_2 1_555 1_555
H3B_2 N3B_2 1_555 1_555
H4B_2 N3B_2 1_555 1_555
C6 C7 1_555 1_555
C10 C11 1_555 1_555
C12 C13 1_555 1_555
C6B C7B 1_555 1_555
C10B C11B 1_555 1_555
C12B C13B 1_555 1_555

#END
