
#######################################################################
#
#                 Cambridge Crystallographic Data Centre
#                                CCDC 
#
#######################################################################
#
# If this CIF has been generated from an entry in the Cambridge 
# Structural Database, then it will include bibliographic, chemical, 
# crystal, experimental, refinement or atomic coordinate data resulting 
# from the CCDC's data processing and validation procedures.
#
#######################################################################

data_XIYYEL
_symmetry_cell_setting           cubic
_symmetry_space_group_name_H-M   'I 41 3 2'
_symmetry_Int_Tables_number      214
_space_group_name_Hall           'I 4bd 2c 3'
loop_
_symmetry_equiv_pos_site_id
_symmetry_equiv_pos_as_xyz
1 x,y,z
2 1/4+x,1/4-z,3/4+y
3 1/4+x,3/4+z,3/4-y
4 1/4+z,3/4+y,3/4-x
5 1/4-z,3/4+y,1/4+x
6 1/4-y,3/4+x,1/4+z
7 1/4+y,1/4-x,3/4+z
8 z,x,y
9 y,z,x
10 -y,1/2-z,x
11 z,-x,1/2-y
12 1/2-y,z,-x
13 -z,1/2-x,y
14 1/2-z,x,-y
15 y,-z,1/2-x
16 x,-y,1/2-z
17 1/2-x,y,-z
18 -x,1/2-y,z
19 1/4+y,3/4+x,3/4-z
20 1/4-y,1/4-x,1/4-z
21 1/4+z,1/4-y,3/4+x
22 1/4-z,1/4-y,1/4-x
23 1/4-x,3/4+z,1/4+y
24 1/4-x,1/4-z,1/4-y
25 1/2+x,1/2+y,1/2+z
26 3/4+x,3/4-z,1/4+y
27 3/4+x,1/4+z,1/4-y
28 3/4+z,1/4+y,1/4-x
29 3/4-z,1/4+y,3/4+x
30 3/4-y,1/4+x,3/4+z
31 3/4+y,3/4-x,1/4+z
32 1/2+z,1/2+x,1/2+y
33 1/2+y,1/2+z,1/2+x
34 1/2-y,-z,1/2+x
35 1/2+z,1/2-x,-y
36 -y,1/2+z,1/2-x
37 1/2-z,-x,1/2+y
38 -z,1/2+x,1/2-y
39 1/2+y,1/2-z,-x
40 1/2+x,1/2-y,-z
41 -x,1/2+y,1/2-z
42 1/2-x,-y,1/2+z
43 3/4+y,1/4+x,1/4-z
44 3/4-y,3/4-x,3/4-z
45 3/4+z,3/4-y,1/4+x
46 3/4-z,3/4-y,3/4-x
47 3/4-x,1/4+z,3/4+y
48 3/4-x,3/4-z,3/4-y
_cell_length_a                   15.371(2)
_cell_length_b                   15.371(2)
_cell_length_c                   15.371(2)
_cell_angle_alpha                90
_cell_angle_beta                 90
_cell_angle_gamma                90
_cell_volume                     3631.67
loop_
_atom_site_label
_atom_site_type_symbol
_atom_site_fract_x
_atom_site_fract_y
_atom_site_fract_z
S1 S 0.6250 0.3750 0.8750
O2 O 0.6771(7) 0.3156(7) 0.9328(10)
O3 O 0.5699(7) 0.4301(7) 0.9301(7)
O2R O 0.5656(7) 0.4271(7) 0.8172(10)
O3R O 0.6801(7) 0.3199(7) 0.8199(7)
O2W O 0.5729(7) 0.3172(10) 0.9344(7)
O2IA O 0.6844(7) 0.4328(10) 0.8229(7)
O2JA O 0.5672(10) 0.3229(7) 0.8156(7)
O2RA O 0.6828(10) 0.4344(7) 0.9271(7)
N1 N 0.8565(5) 0.3750 0.8935(5)
C2 C 0.8933(9) 0.4544(8) 0.8720(11)
H1 H 0.9547 0.4472 0.8634
H2 H 0.8833 0.4952 0.9182
H3 H 0.8673 0.4758 0.8194
H4 H 0.792(5) 0.386(5) 0.902(4)
C2SA C 0.8780(11) 0.2956(8) 0.8567(9)
H1SA H 0.8866 0.3028 0.7953
H2SA H 0.8318 0.2548 0.8667
H3SA H 0.9306 0.2742 0.8827
H4SA H 0.848(4) 0.364(5) 0.958(5)
Zn1 Zn 1.1250 0.6250 0.8750
O1 O 0.9889(3) 0.6363(3) 0.8789(4)
C1 C 0.9633(4) 0.7133(4) 0.8750
O1Q O 1.0111(3) 0.8637(3) 0.8789(4)
C1Q C 1.0367(4) 0.7867(4) 0.8750
O1R O 0.8863(3) 0.7389(3) 0.8711(4)
O1QA O 1.1137(3) 0.7611(3) 0.8711(4)
Zn1J Zn 0.8750 0.8750 0.8750
O1T O 1.1289(4) 0.6137(3) 0.7389(3)
C1L C 1.1250 0.5367(4) 0.7133(4)
O1C O 1.1289(4) 0.3863(3) 0.7611(3)
C1C C 1.1250 0.4633(4) 0.7867(4)
O1L O 1.1211(4) 0.5111(3) 0.6363(3)
O1KA O 1.1211(4) 0.4889(3) 0.8637(3)
O1V O 1.2611(3) 0.6289(4) 0.8863(3)
C1I C 1.2867(4) 0.6250 0.9633(4)
O1B O 1.2389(3) 0.6289(4) 1.1137(3)
C1B C 1.2133(4) 0.6250 1.0367(4)
O1I O 1.3637(3) 0.6211(4) 0.9889(3)
O1LA O 1.1363(3) 0.6211(4) 1.0111(3)
Zn1B Zn 1.3750 0.6250 1.1250
Zn1C Zn 1.1250 0.3750 0.6250
O1J O 0.8789(4) 1.0111(3) 0.8637(3)
O1K O 0.8637(3) 0.8789(4) 1.0111(3)
O1Y O 0.7389(3) 0.8711(4) 0.8863(3)
O1BA O 0.8711(4) 0.8863(3) 0.7389(3)
loop_
_geom_bond_atom_site_label_1
_geom_bond_atom_site_label_2
_geom_bond_site_symmetry_1
_geom_bond_site_symmetry_2
Zn1 O1 1_555 1_555
O1 C1 1_555 1_555
C1 C1Q 1_555 1_555
S1 O2 1_555 1_555
O2 O3R 1_555 1_555
O3 S1 1_555 1_555
N1 C2 1_555 1_555
C2 H1 1_555 1_555
H2 C2 1_555 1_555
H3 C2 1_555 1_555
H4 N1 1_555 1_555
O1Q C1Q 1_555 1_555
C1Q O1QA 1_555 1_555
O1R C1 1_555 1_555
O1QA Zn1 1_555 1_555
Zn1J O1Q 1_555 1_555
O1T Zn1 1_555 1_555
C1L O1T 1_555 1_555
O1C C1C 1_555 1_555
C1C C1L 1_555 1_555
O1L C1L 1_555 1_555
O1KA Zn1 1_555 1_555
O1V Zn1 1_555 1_555
C1I O1V 1_555 1_555
O1B C1B 1_555 1_555
C1B C1I 1_555 1_555
O1I C1I 1_555 1_555
O1LA Zn1 1_555 1_555
Zn1B O1B 1_555 1_555
Zn1C O1C 1_555 1_555
O1J Zn1J 1_555 1_555
O1K Zn1J 1_555 1_555
O1Y Zn1J 1_555 1_555
O1BA Zn1J 1_555 1_555
O2R S1 1_555 1_555
O3R S1 1_555 1_555
O2W S1 1_555 1_555
O2IA S1 1_555 1_555
O2JA S1 1_555 1_555
O2RA S1 1_555 1_555
C2SA N1 1_555 1_555
H1SA C2SA 1_555 1_555
H2SA C2SA 1_555 1_555
H3SA C2SA 1_555 1_555
H4SA N1 1_555 1_555
O2 O2W 1_555 1_555
O3 O2R 1_555 1_555
O3 O2W 1_555 1_555
O3 O2RA 1_555 1_555
O1R Zn1J 1_555 1_555
C1C O1KA 1_555 1_555
O1L Zn1C 1_555 1_555
C1B O1LA 1_555 1_555
O1I Zn1B 1_555 1_555
O2R O2JA 1_555 1_555
O3R O2IA 1_555 1_555
O3R O2JA 1_555 1_555
O2IA O2RA 1_555 1_555

#END
