
#######################################################################
#
#                 Cambridge Crystallographic Data Centre
#                                CCDC 
#
#######################################################################
#
# If this CIF has been generated from an entry in the Cambridge 
# Structural Database, then it will include bibliographic, chemical, 
# crystal, experimental, refinement or atomic coordinate data resulting 
# from the CCDC's data processing and validation procedures.
#
#######################################################################

data_XIYZUC
_symmetry_cell_setting           monoclinic
_symmetry_space_group_name_H-M   'P 21/c'
_symmetry_Int_Tables_number      14
_space_group_name_Hall           '-P 2ybc'
loop_
_symmetry_equiv_pos_site_id
_symmetry_equiv_pos_as_xyz
1 x,y,z
2 -x,1/2+y,1/2-z
3 -x,-y,-z
4 x,1/2-y,1/2+z
_cell_length_a                   13.082(2)
_cell_length_b                   11.138(2)
_cell_length_c                   22.418(5)
_cell_angle_alpha                90
_cell_angle_beta                 97.86(3)
_cell_angle_gamma                90
_cell_volume                     3235.78
loop_
_atom_site_label
_atom_site_type_symbol
_atom_site_fract_x
_atom_site_fract_y
_atom_site_fract_z
Br1 Br 0.25835(14) 0.33380(17) 0.03913(10)
C1 C -0.0530(13) 0.4543(13) 0.1080(4)
C2 C -0.0864(10) 0.4236(12) 0.1675(4)
C3 C -0.0245(9) 0.3500(12) 0.2075(6)
H1 H 0.0389 0.3236 0.1982
C4 C -0.0574(13) 0.3157(14) 0.2614(5)
C5 C -0.1522(15) 0.3551(18) 0.2753(6)
H2 H -0.1742 0.3322 0.3113
C6 C -0.2140(11) 0.4287(17) 0.2353(7)
H3 H -0.2774 0.4551 0.2446
C7 C -0.1812(10) 0.4630(13) 0.1814(6)
H4 H -0.2226 0.5122 0.1547
C8 C 0.008(2) 0.231(3) 0.3049(12)
H5 H 0.0338 0.2729 0.3412
H6 H 0.0655 0.2015 0.2863
H7 H -0.0331 0.1639 0.3144
C9 C 0.0891(13) 0.7055(10) 0.0401(7)
C10 C 0.1465(11) 0.8177(9) 0.0601(8)
C11 C 0.2506(10) 0.8175(9) 0.0833(6)
H8 H 0.2877 0.7461 0.0857
C12 C 0.2993(8) 0.9241(12) 0.1029(7)
C13 C 0.2438(12) 1.0310(9) 0.0993(8)
H9 H 0.2764 1.1023 0.1124
C14 C 0.1397(12) 1.0311(9) 0.0761(8)
H10 H 0.1026 1.1026 0.0737
C15 C 0.0910(9) 0.9245(12) 0.0565(8)
H11 H 0.0214 0.9246 0.0410
C16 C 0.4130(12) 0.927(3) 0.1320(17)
H12 H 0.4284 0.8547 0.1551
H13 H 0.4245 0.9952 0.1580
H14 H 0.4569 0.9313 0.1011
C17 C 0.5255(14) 0.5906(15) 0.1117(5)
C18 C 0.5359(12) 0.6441(13) 0.1737(5)
C19 C 0.6225(11) 0.7132(15) 0.1934(7)
H15 H 0.6729 0.7249 0.1685
C20 C 0.6336(14) 0.7650(16) 0.2503(8)
C21 C 0.5583(18) 0.7475(18) 0.2876(5)
H16 H 0.5658 0.7821 0.3257
C22 C 0.4718(15) 0.6784(18) 0.2679(6)
H17 H 0.4214 0.6667 0.2929
C23 C 0.4606(11) 0.6267(15) 0.2110(7)
H18 H 0.4027 0.5804 0.1978
C24 C 0.7287(18) 0.842(3) 0.2736(13)
H19 H 0.7191 0.8778 0.3113
H20 H 0.7374 0.9033 0.2448
H21 H 0.7890 0.7915 0.2792
C25 C 0.6048(11) 0.3045(11) 0.0376(7)
C26 C 0.6564(10) 0.1880(9) 0.0577(7)
C27 C 0.7554(10) 0.1869(11) 0.0893(8)
H22 H 0.7896 0.2588 0.0994
C28 C 0.8035(10) 0.0783(15) 0.1059(9)
C29 C 0.7525(14) -0.0292(11) 0.0908(11)
H23 H 0.7846 -0.1019 0.1018
C30 C 0.6534(13) -0.0281(10) 0.0591(11)
H24 H 0.6193 -0.1001 0.0490
C31 C 0.6053(9) 0.0805(13) 0.0425(9)
H25 H 0.5391 0.0812 0.0214
C32 C 0.9139(19) 0.072(3) 0.140(2)
H26 H 0.9238 -0.0041 0.1601
H27 H 0.9243 0.1357 0.1686
H28 H 0.9625 0.0794 0.1115
N1 N -0.1113(11) 0.5141(11) 0.0703(6)
H29 H -0.1683 0.5410 0.0802
N2 N -0.0034(11) 0.7049(11) 0.0179(6)
H30 H -0.0374 0.7712 0.0153
N3 N 0.4476(11) 0.5255(11) 0.0934(6)
H31 H 0.4032 0.5109 0.1174
N4 N 0.5067(9) 0.3039(10) 0.0371(5)
H32 H 0.4760 0.2417 0.0490
O1 O 0.0359(10) 0.4172(10) 0.0959(5)
O2 O 0.1458(8) 0.6061(10) 0.0429(5)
O3 O 0.6545(8) 0.3968(11) 0.0231(5)
O4 O 0.5937(10) 0.6151(11) 0.0776(6)
Ru1 Ru 0.07660(10) 0.44996(11) 0.01282(6)
Ru2 Ru 0.42475(10) 0.45371(11) 0.00765(6)
N1B N 0.1113(11) 0.4859(11) -0.0703(6)
N2B N 0.0034(11) 0.2951(11) -0.0179(6)
O3B O 0.3455(8) 0.6032(11) -0.0231(5)
O4B O 0.4063(10) 0.3849(11) -0.0776(6)
Ru1B Ru -0.07660(10) 0.55004(11) -0.01282(6)
Ru2B Ru 0.57525(10) 0.54629(11) -0.00765(6)
loop_
_geom_bond_atom_site_label_1
_geom_bond_atom_site_label_2
_geom_bond_site_symmetry_1
_geom_bond_site_symmetry_2
Br1 Ru1 1_555 1_555
C1 C2 1_555 1_555
C2 C3 1_555 1_555
C3 H1 1_555 1_555
C4 C3 1_555 1_555
C5 C4 1_555 1_555
H2 C5 1_555 1_555
C6 C5 1_555 1_555
H3 C6 1_555 1_555
C7 C2 1_555 1_555
H4 C7 1_555 1_555
C8 C4 1_555 1_555
H5 C8 1_555 1_555
H6 C8 1_555 1_555
H7 C8 1_555 1_555
C9 C10 1_555 1_555
C10 C11 1_555 1_555
C11 H8 1_555 1_555
C12 C11 1_555 1_555
C13 C12 1_555 1_555
H9 C13 1_555 1_555
C14 C13 1_555 1_555
H10 C14 1_555 1_555
C15 C10 1_555 1_555
H11 C15 1_555 1_555
C16 C12 1_555 1_555
H12 C16 1_555 1_555
H13 C16 1_555 1_555
H14 C16 1_555 1_555
C17 C18 1_555 1_555
C18 C19 1_555 1_555
C19 H15 1_555 1_555
C20 C19 1_555 1_555
C21 C20 1_555 1_555
H16 C21 1_555 1_555
C22 C21 1_555 1_555
H17 C22 1_555 1_555
C23 C18 1_555 1_555
H18 C23 1_555 1_555
C24 C20 1_555 1_555
H19 C24 1_555 1_555
H20 C24 1_555 1_555
H21 C24 1_555 1_555
C25 C26 1_555 1_555
C26 C27 1_555 1_555
C27 H22 1_555 1_555
C28 C27 1_555 1_555
C29 C28 1_555 1_555
H23 C29 1_555 1_555
C30 C29 1_555 1_555
H24 C30 1_555 1_555
C31 C26 1_555 1_555
H25 C31 1_555 1_555
C32 C28 1_555 1_555
H26 C32 1_555 1_555
H27 C32 1_555 1_555
H28 C32 1_555 1_555
N1 C1 1_555 1_555
H29 N1 1_555 1_555
N2 C9 1_555 1_555
H30 N2 1_555 1_555
N3 C17 1_555 1_555
H31 N3 1_555 1_555
N4 C25 1_555 1_555
H32 N4 1_555 1_555
O1 C1 1_555 1_555
O2 C9 1_555 1_555
O3 C25 1_555 1_555
O4 C17 1_555 1_555
Ru1 O1 1_555 1_555
Ru2 Br1 1_555 1_555
N1B Ru1 1_555 1_555
N2B Ru1 1_555 1_555
O3B Ru2 1_555 1_555
O4B Ru2 1_555 1_555
Ru1B N1 1_555 1_555
Ru2B O3 1_555 1_555
C6 C7 1_555 1_555
C14 C15 1_555 1_555
C22 C23 1_555 1_555
C30 C31 1_555 1_555
N2 Ru1B 1_555 1_555
N3 Ru2 1_555 1_555
N4 Ru2 1_555 1_555
O2 Ru1 1_555 1_555
O4 Ru2B 1_555 1_555
Ru1 Ru1B 1_555 1_555
Ru2 Ru2B 1_555 1_555

#END
