
#######################################################################
#
#                 Cambridge Crystallographic Data Centre
#                                CCDC 
#
#######################################################################
#
# If this CIF has been generated from an entry in the Cambridge 
# Structural Database, then it will include bibliographic, chemical, 
# crystal, experimental, refinement or atomic coordinate data resulting 
# from the CCDC's data processing and validation procedures.
#
#######################################################################

data_XIZBOZ
_symmetry_cell_setting           monoclinic
_symmetry_space_group_name_H-M   'I 2/a'
_symmetry_Int_Tables_number      15
_space_group_name_Hall           '-I 2ya'
loop_
_symmetry_equiv_pos_site_id
_symmetry_equiv_pos_as_xyz
1 x,y,z
2 1/2-x,y,-z
3 1/2+x,1/2+y,1/2+z
4 -x,1/2+y,1/2-z
5 -x,-y,-z
6 1/2+x,-y,z
7 1/2-x,1/2-y,1/2-z
8 x,1/2-y,1/2+z
_cell_length_a                   13.470(4)
_cell_length_b                   18.229(6)
_cell_length_c                   15.637(7)
_cell_angle_alpha                90
_cell_angle_beta                 110.823(7)
_cell_angle_gamma                90
_cell_volume                     3588.79
loop_
_atom_site_label
_atom_site_type_symbol
_atom_site_fract_x
_atom_site_fract_y
_atom_site_fract_z
C1 C 0.1314(14) 0.1123(10) 0.0695(12)
C2 C 0.2013(14) 0.1770(9) 0.1038(13)
C3 C 0.1609(17) 0.2441(11) 0.1173(18)
H1 H 0.0885 0.2487 0.1060
C4 C 0.224(2) 0.3022(11) 0.1464(17)
H2 H 0.1942 0.3459 0.1566
C5 C 0.333(2) 0.3005(13) 0.1624(17)
C6 C 0.3755(16) 0.2336(12) 0.1521(16)
H3 H 0.4481 0.2289 0.1653
C7 C 0.3089(15) 0.1732(12) 0.1218(16)
H4 H 0.3382 0.1287 0.1136
C8 C 0.403(2) 0.3658(14) 0.198(2)
H5 H 0.4392 0.3608 0.2629
H6 H 0.3605 0.4095 0.1857
H7 H 0.4543 0.3691 0.1685
C9 C 0.0262(15) -0.0447(10) 0.1683(15)
C10 C 0.0396(13) -0.0703(9) 0.2646(9)
C11 C -0.0222(12) -0.0388(8) 0.3095(13)
H8 H -0.0699 -0.0016 0.2814
C12 C -0.0127(16) -0.0629(12) 0.3964(13)
H9 H -0.0540 -0.0418 0.4265
C13 C 0.0586(18) -0.1185(13) 0.4384(10)
C14 C 0.1203(16) -0.1500(11) 0.3934(14)
H10 H 0.1680 -0.1873 0.4215
C15 C 0.1109(14) -0.1259(11) 0.3065(13)
H11 H 0.1522 -0.1470 0.2765
C16 C 0.084(3) -0.150(3) 0.536(2)
H12 H 0.0883 -0.2023 0.5337
H13 H 0.0298 -0.1357 0.5584
H14 H 0.1515 -0.1306 0.5751
I1 I -0.2500 0.12912(12) 0.0000
O1 O 0.1686(10) 0.0497(7) 0.0538(10)
N1 N 0.0856(12) -0.0687(8) 0.1289(10)
H15 H 0.1344 -0.0998 0.1568
N2 N 0.0327(10) 0.1207(6) 0.0501(8)
H16 H 0.0086 0.1626 0.0588
O2 O -0.0495(11) 0.0001(8) 0.1297(10)
Ru1 Ru -0.07003(11) 0.03628(7) -0.00155(11)
C1A C -0.6314(14) 0.1123(10) -0.0695(12)
C2A C -0.7013(14) 0.1770(9) -0.1038(13)
C3A C -0.6609(17) 0.2441(11) -0.1173(18)
H1A H -0.5885 0.2487 -0.1060
C4A C -0.724(2) 0.3022(11) -0.1464(17)
H2A H -0.6942 0.3459 -0.1566
C5A C -0.833(2) 0.3005(13) -0.1624(17)
C6A C -0.8755(16) 0.2336(12) -0.1521(16)
H3A H -0.9481 0.2289 -0.1653
C7A C -0.8089(15) 0.1732(12) -0.1218(16)
H4A H -0.8382 0.1287 -0.1136
C8A C -0.903(2) 0.3658(14) -0.198(2)
H5A H -0.9392 0.3608 -0.2629
H6A H -0.8605 0.4095 -0.1857
H7A H -0.9543 0.3691 -0.1685
C9A C -0.5262(15) -0.0447(10) -0.1683(15)
C10A C -0.5396(13) -0.0703(9) -0.2646(9)
C11A C -0.4778(12) -0.0388(8) -0.3095(13)
H8A H -0.4301 -0.0016 -0.2814
C12A C -0.4873(16) -0.0629(12) -0.3964(13)
H9A H -0.4460 -0.0418 -0.4265
C13A C -0.5586(18) -0.1185(13) -0.4384(10)
C14A C -0.6203(16) -0.1500(11) -0.3934(14)
H10A H -0.6680 -0.1873 -0.4215
C15A C -0.6109(14) -0.1259(11) -0.3065(13)
H11A H -0.6522 -0.1470 -0.2765
C16A C -0.584(3) -0.150(3) -0.536(2)
H12A H -0.5883 -0.2023 -0.5337
H13A H -0.5298 -0.1357 -0.5584
H14A H -0.6515 -0.1306 -0.5751
O1A O -0.6686(10) 0.0497(7) -0.0538(10)
N1A N -0.5856(12) -0.0687(8) -0.1289(10)
H15A H -0.6344 -0.0998 -0.1568
N2A N -0.5327(10) 0.1207(6) -0.0501(8)
H16A H -0.5086 0.1626 -0.0588
O2A O -0.4505(11) 0.0001(8) -0.1297(10)
Ru1A Ru -0.42997(11) 0.03628(7) 0.00155(11)
O1D O -0.1686(10) -0.0497(7) -0.0538(10)
O1E O -0.3314(10) -0.0497(7) 0.0538(10)
N1D N -0.0856(12) 0.0687(8) -0.1289(10)
N1E N -0.4144(12) 0.0687(8) 0.1289(10)
Ru1D Ru 0.07003(11) -0.03628(7) 0.00155(11)
Ru1E Ru -0.57003(11) -0.03628(7) -0.00155(11)
loop_
_geom_bond_atom_site_label_1
_geom_bond_atom_site_label_2
_geom_bond_site_symmetry_1
_geom_bond_site_symmetry_2
C1 C2 1_555 1_555
C2 C3 1_555 1_555
C3 H1 1_555 1_555
C4 C3 1_555 1_555
H2 C4 1_555 1_555
C5 C4 1_555 1_555
C6 C5 1_555 1_555
H3 C6 1_555 1_555
C7 C2 1_555 1_555
H4 C7 1_555 1_555
C8 C5 1_555 1_555
H5 C8 1_555 1_555
H6 C8 1_555 1_555
H7 C8 1_555 1_555
C9 C10 1_555 1_555
C10 C11 1_555 1_555
C11 H8 1_555 1_555
C12 C11 1_555 1_555
H9 C12 1_555 1_555
C13 C12 1_555 1_555
C14 C13 1_555 1_555
H10 C14 1_555 1_555
C15 C10 1_555 1_555
H11 C15 1_555 1_555
C16 C13 1_555 1_555
H12 C16 1_555 1_555
H13 C16 1_555 1_555
H14 C16 1_555 1_555
I1 Ru1 1_555 1_555
O1 C1 1_555 1_555
N1 C9 1_555 1_555
H15 N1 1_555 1_555
N2 C1 1_555 1_555
H16 N2 1_555 1_555
O2 C9 1_555 1_555
Ru1 N2 1_555 1_555
C1A C2A 1_555 1_555
C2A C3A 1_555 1_555
C3A H1A 1_555 1_555
C4A C3A 1_555 1_555
H2A C4A 1_555 1_555
C5A C4A 1_555 1_555
C6A C5A 1_555 1_555
H3A C6A 1_555 1_555
C7A C2A 1_555 1_555
H4A C7A 1_555 1_555
C8A C5A 1_555 1_555
H5A C8A 1_555 1_555
H6A C8A 1_555 1_555
H7A C8A 1_555 1_555
C9A C10A 1_555 1_555
C10A C11A 1_555 1_555
C11A H8A 1_555 1_555
C12A C11A 1_555 1_555
H9A C12A 1_555 1_555
C13A C12A 1_555 1_555
C14A C13A 1_555 1_555
H10A C14A 1_555 1_555
C15A C10A 1_555 1_555
H11A C15A 1_555 1_555
C16A C13A 1_555 1_555
H12A C16A 1_555 1_555
H13A C16A 1_555 1_555
H14A C16A 1_555 1_555
O1A C1A 1_555 1_555
N1A C9A 1_555 1_555
H15A N1A 1_555 1_555
N2A C1A 1_555 1_555
H16A N2A 1_555 1_555
O2A C9A 1_555 1_555
Ru1A I1 1_555 1_555
O1D Ru1 1_555 1_555
O1E Ru1A 1_555 1_555
N1D Ru1 1_555 1_555
N1E Ru1A 1_555 1_555
Ru1D O1 1_555 1_555
Ru1E O1A 1_555 1_555
C6 C7 1_555 1_555
C14 C15 1_555 1_555
N1 Ru1D 1_555 1_555
O2 Ru1 1_555 1_555
Ru1 Ru1D 1_555 1_555
C6A C7A 1_555 1_555
C14A C15A 1_555 1_555
N1A Ru1E 1_555 1_555
N2A Ru1A 1_555 1_555
O2A Ru1A 1_555 1_555
Ru1A Ru1E 1_555 1_555

#END
