
#######################################################################
#
#                 Cambridge Crystallographic Data Centre
#                                CCDC 
#
#######################################################################
#
# If this CIF has been generated from an entry in the Cambridge 
# Structural Database, then it will include bibliographic, chemical, 
# crystal, experimental, refinement or atomic coordinate data resulting 
# from the CCDC's data processing and validation procedures.
#
#######################################################################

data_XIZBIT
_symmetry_cell_setting           monoclinic
_symmetry_space_group_name_H-M   'P 21/c'
_symmetry_Int_Tables_number      14
_space_group_name_Hall           '-P 2ybc'
loop_
_symmetry_equiv_pos_site_id
_symmetry_equiv_pos_as_xyz
1 x,y,z
2 -x,1/2+y,1/2-z
3 -x,-y,-z
4 x,1/2-y,1/2+z
_cell_length_a                   11.076(2)
_cell_length_b                   22.551(4)
_cell_length_c                   13.443(2)
_cell_angle_alpha                90
_cell_angle_beta                 95.303(4)
_cell_angle_gamma                90
_cell_volume                     3343.35
loop_
_atom_site_label
_atom_site_type_symbol
_atom_site_fract_x
_atom_site_fract_y
_atom_site_fract_z
C1 C 0.4119(12) 0.5907(5) -0.1048(11)
C2 C 0.3665(18) 0.6446(6) -0.1621(12)
C3 C 0.3320(15) 0.6445(8) -0.2631(11)
H1 H 0.3350 0.6094 -0.2989
C4 C 0.293(3) 0.6962(10) -0.3125(13)
C5 C 0.305(3) 0.7487(10) -0.2658(17)
H2 H 0.2967 0.7840 -0.3016
C6 C 0.332(3) 0.7491(10) -0.1639(17)
H3 H 0.3222 0.7840 -0.1287
C7 C 0.373(3) 0.6995(10) -0.1135(18)
H4 H 0.4040 0.7021 -0.0471
C8 C 0.254(2) 0.6949(11) -0.4224(14)
H5 H 0.1698 0.6839 -0.4328
H6 H 0.3019 0.6664 -0.4543
H7 H 0.2647 0.7334 -0.4504
C9 C 0.2814(15) 0.4485(7) -0.0221(14)
C10 C 0.1580(18) 0.4208(14) -0.039(2)
C11 C 0.131(3) 0.3855(14) -0.117(2)
H8 H 0.1913 0.3772 -0.1593
C12 C 0.016(3) 0.3604(13) -0.139(2)
C13 C -0.067(3) 0.3722(13) -0.075(2)
H9 H -0.1458 0.3580 -0.0902
C14 C -0.045(2) 0.4035(13) 0.012(2)
H10 H -0.1021 0.4082 0.0580
C15 C 0.073(2) 0.4283(14) 0.026(2)
H11 H 0.0932 0.4510 0.0826
C16 C -0.003(2) 0.3153(13) -0.222(2)
H12 H -0.0696 0.2899 -0.2094
H13 H 0.0693 0.2919 -0.2233
H14 H -0.0202 0.3351 -0.2844
C17 C 0.4310(16) 0.3957(6) 0.4178(13)
C18 C 0.3974(15) 0.3375(6) 0.3691(13)
C19 C 0.3428(18) 0.3357(8) 0.2734(14)
H15 H 0.3284 0.3713 0.2393
C20 C 0.308(2) 0.2835(11) 0.2253(15)
C21 C 0.340(3) 0.2332(12) 0.271(2)
H16 H 0.3226 0.1977 0.2371
C22 C 0.400(3) 0.2315(9) 0.369(2)
H17 H 0.4225 0.1956 0.3993
C23 C 0.424(2) 0.2848(9) 0.4164(17)
H18 H 0.4596 0.2849 0.4819
C24 C 0.247(3) 0.2845(12) 0.1209(16)
H19 H 0.2736 0.2510 0.0845
H20 H 0.2682 0.3204 0.0883
H21 H 0.1609 0.2827 0.1232
C25 C 0.7181(13) 0.4842(8) 0.4360(15)
C26 C 0.8430(12) 0.4721(9) 0.4063(13)
C27 C 0.9220(19) 0.4349(12) 0.4558(19)
H22 H 0.8984 0.4174 0.5135
C28 C 1.0379(19) 0.4203(11) 0.4273(16)
C29 C 1.071(2) 0.4494(11) 0.3474(18)
H23 H 1.1480 0.4426 0.3276
C30 C 0.9957(19) 0.4891(12) 0.2928(19)
H24 H 1.0226 0.5089 0.2384
C31 C 0.8764(19) 0.4990(11) 0.3215(15)
H25 H 0.8223 0.5232 0.2833
C32 C 1.122(2) 0.3774(12) 0.484(2)
H26 H 1.0947 0.3697 0.5479
H27 H 1.2025 0.3941 0.4920
H28 H 1.1243 0.3410 0.4468
I1 I 0.39207(12) 0.58423(5) 0.24325(8)
O1 O 0.3590(12) 0.4370(5) -0.0879(9)
O2 O 0.4561(12) 0.5485(5) -0.1505(9)
O3 O 0.6963(11) 0.4673(6) 0.5287(10)
N1 N 0.4742(12) 0.3991(6) 0.5081(11)
H29 H 0.4810 0.3671 0.5429
N2 N 0.4094(11) 0.5933(5) -0.0122(8)
H30 H 0.3806 0.6239 0.0155
N3 N 0.3132(13) 0.4847(6) 0.0492(9)
H31 H 0.2608 0.4927 0.0906
O4 O 0.4213(11) 0.4422(5) 0.3604(9)
N4 N 0.6375(12) 0.5091(6) 0.3808(9)
H32 H 0.6532 0.5209 0.3225
Ru1 Ru 0.47498(13) 0.52358(6) 0.07114(9)
Ru2 Ru 0.47131(12) 0.52248(6) 0.42465(10)
O1B O 0.6410(12) 0.5630(5) 0.0879(9)
O2B O 0.5439(12) 0.4515(5) 0.1505(9)
O3B O 0.3037(11) 0.5327(6) 0.4713(10)
N1B N 0.5258(12) 0.6009(6) 0.4919(11)
Ru1B Ru 0.52502(13) 0.47642(6) -0.07114(9)
Ru2B Ru 0.52869(12) 0.47752(6) 0.57535(10)
loop_
_geom_bond_atom_site_label_1
_geom_bond_atom_site_label_2
_geom_bond_site_symmetry_1
_geom_bond_site_symmetry_2
C1 C2 1_555 1_555
C2 C3 1_555 1_555
C3 H1 1_555 1_555
C4 C3 1_555 1_555
C5 C4 1_555 1_555
H2 C5 1_555 1_555
C6 C5 1_555 1_555
H3 C6 1_555 1_555
C7 C2 1_555 1_555
H4 C7 1_555 1_555
C8 C4 1_555 1_555
H5 C8 1_555 1_555
H6 C8 1_555 1_555
H7 C8 1_555 1_555
C9 C10 1_555 1_555
C10 C11 1_555 1_555
C11 H8 1_555 1_555
C12 C11 1_555 1_555
C13 C12 1_555 1_555
H9 C13 1_555 1_555
C14 C13 1_555 1_555
H10 C14 1_555 1_555
C15 C10 1_555 1_555
H11 C15 1_555 1_555
C16 C12 1_555 1_555
H12 C16 1_555 1_555
H13 C16 1_555 1_555
H14 C16 1_555 1_555
C17 C18 1_555 1_555
C18 C19 1_555 1_555
C19 H15 1_555 1_555
C20 C19 1_555 1_555
C21 C20 1_555 1_555
H16 C21 1_555 1_555
C22 C21 1_555 1_555
H17 C22 1_555 1_555
C23 C18 1_555 1_555
H18 C23 1_555 1_555
C24 C20 1_555 1_555
H19 C24 1_555 1_555
H20 C24 1_555 1_555
H21 C24 1_555 1_555
C25 C26 1_555 1_555
C26 C27 1_555 1_555
C27 H22 1_555 1_555
C28 C27 1_555 1_555
C29 C28 1_555 1_555
H23 C29 1_555 1_555
C30 C29 1_555 1_555
H24 C30 1_555 1_555
C31 C26 1_555 1_555
H25 C31 1_555 1_555
C32 C28 1_555 1_555
H26 C32 1_555 1_555
H27 C32 1_555 1_555
H28 C32 1_555 1_555
I1 Ru1 1_555 1_555
O1 C9 1_555 1_555
O2 C1 1_555 1_555
O3 C25 1_555 1_555
N1 C17 1_555 1_555
H29 N1 1_555 1_555
N2 C1 1_555 1_555
H30 N2 1_555 1_555
N3 C9 1_555 1_555
H31 N3 1_555 1_555
O4 C17 1_555 1_555
N4 C25 1_555 1_555
H32 N4 1_555 1_555
Ru1 N2 1_555 1_555
Ru2 I1 1_555 1_555
O1B Ru1 1_555 1_555
O2B Ru1 1_555 1_555
O3B Ru2 1_555 1_555
N1B Ru2 1_555 1_555
Ru1B O1 1_555 1_555
Ru2B O3 1_555 1_555
C6 C7 1_555 1_555
C14 C15 1_555 1_555
C22 C23 1_555 1_555
C30 C31 1_555 1_555
O2 Ru1B 1_555 1_555
N1 Ru2B 1_555 1_555
N3 Ru1 1_555 1_555
O4 Ru2 1_555 1_555
N4 Ru2 1_555 1_555
Ru1 Ru1B 1_555 1_555
Ru2 Ru2B 1_555 1_555

#END
