
#######################################################################
#
#                 Cambridge Crystallographic Data Centre
#                                CCDC 
#
#######################################################################
#
# If this CIF has been generated from an entry in the Cambridge 
# Structural Database, then it will include bibliographic, chemical, 
# crystal, experimental, refinement or atomic coordinate data resulting 
# from the CCDC's data processing and validation procedures.
#
#######################################################################

data_XIZBEP
_symmetry_cell_setting           triclinic
_symmetry_space_group_name_H-M   'P -1'
_symmetry_Int_Tables_number      2
_space_group_name_Hall           '-P 1'
loop_
_symmetry_equiv_pos_site_id
_symmetry_equiv_pos_as_xyz
1 x,y,z
2 -x,-y,-z
_cell_length_a                   11.8852(7)
_cell_length_b                   13.4489(8)
_cell_length_c                   20.6974(12)
_cell_angle_alpha                94.4770(10)
_cell_angle_beta                 94.7350(10)
_cell_angle_gamma                90.3450(10)
_cell_volume                     3286.72
loop_
_atom_site_label
_atom_site_type_symbol
_atom_site_fract_x
_atom_site_fract_y
_atom_site_fract_z
C1 C 0.3806(6) 0.5202(6) 0.1038(3)
C2 C 0.3216(7) 0.5368(6) 0.1652(3)
C3 C 0.3540(8) 0.6112(6) 0.2109(4)
C4 C 0.2983(9) 0.6197(8) 0.2677(5)
H1 H 0.3160 0.6726 0.2986
C5 C 0.2194(10) 0.5524(8) 0.2782(5)
H2 H 0.1844 0.5583 0.3168
C6 C 0.1901(9) 0.4763(8) 0.2335(5)
H3 H 0.1359 0.4298 0.2416
C7 C 0.2409(8) 0.4675(7) 0.1755(5)
H4 H 0.2209 0.4157 0.1442
C8 C 0.4559(9) 0.6793(7) 0.2038(5)
H5 H 0.5228 0.6400 0.2020
H6 H 0.4649 0.7280 0.2404
H7 H 0.4435 0.7126 0.1645
C9 C 0.6659(6) 0.6034(6) 0.0692(3)
C10 C 0.7595(7) 0.6593(6) 0.1106(4)
C11 C 0.8684(8) 0.6240(7) 0.1170(5)
C12 C 0.9488(9) 0.6768(9) 0.1613(6)
H8 H 1.0229 0.6548 0.1653
C13 C 0.9195(12) 0.7591(10) 0.1977(7)
H9 H 0.9732 0.7922 0.2271
C14 C 0.8108(10) 0.7942(8) 0.1918(5)
H10 H 0.7906 0.8508 0.2168
C15 C 0.7328(8) 0.7438(6) 0.1480(4)
H11 H 0.6595 0.7676 0.1435
C16 C 0.9057(8) 0.5341(8) 0.0758(5)
H12 H 0.8871 0.4743 0.0953
H13 H 0.9858 0.5377 0.0730
H14 H 0.8677 0.5331 0.0329
C17 C 0.2995(6) 0.0888(6) 0.0041(4)
C18 C 0.1900(7) 0.1361(6) 0.0133(4)
C19 C 0.1748(9) 0.1920(7) 0.0729(6)
C20 C 0.0709(12) 0.2373(9) 0.0796(7)
H15 H 0.0590 0.2757 0.1178
C21 C -0.0131(11) 0.2261(11) 0.0310(9)
H16 H -0.0821 0.2564 0.0366
C22 C 0.0020(10) 0.1700(11) -0.0271(8)
H17 H -0.0557 0.1645 -0.0605
C23 C 0.1038(9) 0.1224(8) -0.0347(6)
H18 H 0.1133 0.0814 -0.0721
C24 C 0.2655(10) 0.2037(9) 0.1288(5)
H19 H 0.2990 0.1401 0.1354
H20 H 0.2326 0.2286 0.1676
H21 H 0.3224 0.2498 0.1188
C25 C 0.5248(7) 0.0353(6) -0.1224(4)
C26 C 0.5452(9) 0.0496(6) -0.1920(4)
C27 C 0.6529(11) 0.0790(8) -0.2076(5)
C28 C 0.6653(15) 0.0897(9) -0.2735(6)
H22 H 0.7360 0.1080 -0.2852
C29 C 0.5819(16) 0.0752(10) -0.3202(7)
H23 H 0.5947 0.0835 -0.3631
C30 C 0.4758(13) 0.0475(8) -0.3045(5)
H24 H 0.4166 0.0392 -0.3369
C31 C 0.4573(10) 0.0319(6) -0.2389(4)
H25 H 0.3873 0.0101 -0.2280
C32 C 0.7512(10) 0.0985(10) -0.1591(7)
H26 H 0.8066 0.0478 -0.1654
H27 H 0.7268 0.0978 -0.1160
H28 H 0.7838 0.1626 -0.1643
I1 I 0.65651(4) 0.25725(4) 0.06500(2)
O1 O 0.4429(4) 0.4429(4) 0.0980(2)
O2 O 0.6619(4) 0.5093(4) 0.0729(2)
O3 O 0.3884(4) 0.1434(4) 0.0135(2)
O4 O 0.5546(4) 0.1056(4) -0.0795(2)
N1 N 0.3723(5) 0.5829(4) 0.0592(3)
H29 H 0.3259 0.6314 0.0631
N2 N 0.5931(5) 0.6487(4) 0.0324(3)
H30 H 0.5996 0.7120 0.0298
N3 N 0.3073(5) -0.0062(5) -0.0118(3)
H31 H 0.2461 -0.0406 -0.0213
N4 N 0.4753(5) -0.0459(4) -0.1082(3)
H32 H 0.4494 -0.0880 -0.1393
Ru1 Ru 0.53659(5) 0.42810(4) 0.01942(3)
Ru2 Ru 0.54280(5) 0.07654(4) 0.01528(3)
N1A N 0.6277(5) 0.4171(4) -0.0592(3)
N2A N 0.4069(5) 0.3513(4) -0.0324(3)
N3A N 0.6927(5) 0.0062(5) 0.0118(3)
N4A N 0.5247(5) 0.0459(4) 0.1082(3)
Ru1A Ru 0.46341(5) 0.57190(4) -0.01942(3)
Ru2A Ru 0.45720(5) -0.07654(4) -0.01528(3)
C33 C 0.0520(6) 0.9509(6) 0.6209(3)
C34 C 0.0845(7) 0.9254(5) 0.6895(3)
C35 C 0.1776(8) 0.8665(6) 0.7049(4)
C36 C 0.1997(8) 0.8471(8) 0.7704(5)
H33 H 0.2615 0.8084 0.7821
C37 C 0.1336(9) 0.8830(8) 0.8172(5)
H34 H 0.1501 0.8682 0.8600
C38 C 0.0425(8) 0.9411(7) 0.8013(4)
H35 H -0.0025 0.9661 0.8334
C39 C 0.0184(7) 0.9621(6) 0.7380(4)
H36 H -0.0432 1.0017 0.7273
C40 C 0.2556(8) 0.8226(8) 0.6553(5)
H37 H 0.2182 0.7676 0.6297
H38 H 0.3235 0.7999 0.6776
H39 H 0.2742 0.8729 0.6273
C41 C 0.2054(7) 1.0884(6) 0.5095(3)
C42 C 0.3172(7) 1.1366(6) 0.5207(4)
C43 C 0.3452(8) 1.2079(6) 0.5732(4)
C44 C 0.4533(10) 1.2509(8) 0.5775(6)
H40 H 0.4731 1.2997 0.6109
C45 C 0.5298(10) 1.2241(10) 0.5350(8)
H41 H 0.6016 1.2529 0.5410
C46 C 0.5047(9) 1.1566(10) 0.4841(7)
H42 H 0.5573 1.1403 0.4542
C47 C 0.3956(8) 1.1112(7) 0.4773(5)
H43 H 0.3771 1.0636 0.4430
C48 C 0.2651(9) 1.2360(8) 0.6229(5)
H44 H 0.2163 1.2876 0.6079
H45 H 0.3068 1.2600 0.6629
H46 H 0.2206 1.1788 0.6301
C49 C 0.1566(6) 0.5184(6) 0.6002(3)
C50 C 0.2422(6) 0.5313(6) 0.6570(3)
C51 C 0.2109(8) 0.5531(7) 0.7189(4)
C52 C 0.0893(9) 0.5668(10) 0.7313(5)
H47 H 0.0531 0.6059 0.6989
H48 H 0.0844 0.6006 0.7736
H49 H 0.0524 0.5028 0.7294
C53 C 0.2924(10) 0.5640(8) 0.7695(4)
H50 H 0.2712 0.5767 0.8116
C54 C 0.4035(10) 0.5567(8) 0.7597(5)
H51 H 0.4578 0.5692 0.7945
C55 C 0.4361(8) 0.5309(8) 0.6984(5)
H52 H 0.5115 0.5198 0.6917
C56 C 0.3524(7) 0.5217(7) 0.6464(4)
H53 H 0.3729 0.5088 0.6042
C57 C 0.1376(6) 0.3860(5) 0.4312(3)
C58 C 0.2138(6) 0.3234(5) 0.3928(3)
C59 C 0.3294(7) 0.3464(6) 0.3966(4)
C60 C 0.3946(8) 0.2841(7) 0.3581(4)
H54 H 0.4721 0.2960 0.3606
C61 C 0.3510(9) 0.2060(7) 0.3166(5)
H55 H 0.3973 0.1675 0.2908
C62 C 0.2380(9) 0.1864(7) 0.3144(5)
H56 H 0.2063 0.1342 0.2865
C63 C 0.1712(7) 0.2431(6) 0.3529(4)
H57 H 0.0948 0.2270 0.3521
C64 C 0.3819(7) 0.4289(7) 0.4418(4)
H58 H 0.4612 0.4171 0.4499
H59 H 0.3470 0.4314 0.4822
H60 H 0.3712 0.4912 0.4226
I2 I 0.13265(4) 0.74404(3) 0.42506(2)
O5 O 0.0684(4) 0.8855(3) 0.5743(2)
O6 O 0.1181(4) 1.1424(4) 0.5216(2)
O7 O 0.1592(4) 0.5795(4) 0.5544(2)
O8 O 0.1398(4) 0.4800(3) 0.4256(2)
N5 N 0.0062(5) 1.0343(4) 0.6094(3)
H61 H -0.0072 1.0750 0.6420
N6 N 0.1892(5) 0.9949(4) 0.4895(3)
H62 H 0.2468 0.9607 0.4791
N7 N 0.0679(5) 0.3471(4) 0.4685(3)
H63 H 0.0668 0.2835 0.4705
N8 N 0.0828(4) 0.4486(4) 0.5969(2)
H64 H 0.0840 0.4081 0.6271
Ru3 Ru 0.03650(5) 0.92469(4) 0.48143(3)
Ru4 Ru 0.03739(5) 0.56832(4) 0.47849(3)
O6A O -0.1181(4) 0.8576(4) 0.4784(2)
N5A N -0.0062(5) 0.9657(4) 0.3906(3)
N7A N -0.0679(5) 0.6529(4) 0.5315(3)
N8A N -0.0828(4) 0.5514(4) 0.4031(2)
Ru3A Ru -0.03650(5) 1.07531(4) 0.51857(3)
Ru4A Ru -0.03739(5) 0.43168(4) 0.52151(3)
loop_
_geom_bond_atom_site_label_1
_geom_bond_atom_site_label_2
_geom_bond_site_symmetry_1
_geom_bond_site_symmetry_2
C1 C2 1_555 1_555
C2 C3 1_555 1_555
C3 C4 1_555 1_555
C4 H1 1_555 1_555
C5 C4 1_555 1_555
H2 C5 1_555 1_555
C6 C5 1_555 1_555
H3 C6 1_555 1_555
C7 C2 1_555 1_555
H4 C7 1_555 1_555
C8 C3 1_555 1_555
H5 C8 1_555 1_555
H6 C8 1_555 1_555
H7 C8 1_555 1_555
C9 C10 1_555 1_555
C10 C11 1_555 1_555
C11 C12 1_555 1_555
C12 H8 1_555 1_555
C13 C12 1_555 1_555
H9 C13 1_555 1_555
C14 C13 1_555 1_555
H10 C14 1_555 1_555
C15 C10 1_555 1_555
H11 C15 1_555 1_555
C16 C11 1_555 1_555
H12 C16 1_555 1_555
H13 C16 1_555 1_555
H14 C16 1_555 1_555
C17 C18 1_555 1_555
C18 C19 1_555 1_555
C19 C20 1_555 1_555
C20 H15 1_555 1_555
C21 C20 1_555 1_555
H16 C21 1_555 1_555
C22 C21 1_555 1_555
H17 C22 1_555 1_555
C23 C18 1_555 1_555
H18 C23 1_555 1_555
C24 C19 1_555 1_555
H19 C24 1_555 1_555
H20 C24 1_555 1_555
H21 C24 1_555 1_555
C25 C26 1_555 1_555
C26 C27 1_555 1_555
C27 C28 1_555 1_555
C28 H22 1_555 1_555
C29 C28 1_555 1_555
H23 C29 1_555 1_555
C30 C29 1_555 1_555
H24 C30 1_555 1_555
C31 C26 1_555 1_555
H25 C31 1_555 1_555
C32 C27 1_555 1_555
H26 C32 1_555 1_555
H27 C32 1_555 1_555
H28 C32 1_555 1_555
I1 Ru1 1_555 1_555
O1 C1 1_555 1_555
O2 C9 1_555 1_555
O3 C17 1_555 1_555
O4 C25 1_555 1_555
N1 C1 1_555 1_555
H29 N1 1_555 1_555
N2 C9 1_555 1_555
H30 N2 1_555 1_555
N3 C17 1_555 1_555
H31 N3 1_555 1_555
N4 C25 1_555 1_555
H32 N4 1_555 1_555
Ru1 O1 1_555 1_555
Ru2 I1 1_555 1_555
C33 C34 1_555 1_555
C34 C35 1_555 1_555
C35 C36 1_555 1_555
C36 H33 1_555 1_555
C37 C36 1_555 1_555
H34 C37 1_555 1_555
C38 C37 1_555 1_555
H35 C38 1_555 1_555
C39 C34 1_555 1_555
H36 C39 1_555 1_555
C40 C35 1_555 1_555
H37 C40 1_555 1_555
H38 C40 1_555 1_555
H39 C40 1_555 1_555
C41 C42 1_555 1_555
C42 C43 1_555 1_555
C43 C44 1_555 1_555
C44 H40 1_555 1_555
C45 C44 1_555 1_555
H41 C45 1_555 1_555
C46 C45 1_555 1_555
H42 C46 1_555 1_555
C47 C42 1_555 1_555
H43 C47 1_555 1_555
C48 C43 1_555 1_555
H44 C48 1_555 1_555
H45 C48 1_555 1_555
H46 C48 1_555 1_555
C49 C50 1_555 1_555
C50 C51 1_555 1_555
C51 C52 1_555 1_555
C52 H47 1_555 1_555
H48 C52 1_555 1_555
H49 C52 1_555 1_555
C53 C51 1_555 1_555
H50 C53 1_555 1_555
C54 C53 1_555 1_555
H51 C54 1_555 1_555
C55 C54 1_555 1_555
H52 C55 1_555 1_555
C56 C50 1_555 1_555
H53 C56 1_555 1_555
C57 C58 1_555 1_555
C58 C59 1_555 1_555
C59 C60 1_555 1_555
C60 H54 1_555 1_555
C61 C60 1_555 1_555
H55 C61 1_555 1_555
C62 C61 1_555 1_555
H56 C62 1_555 1_555
C63 C58 1_555 1_555
H57 C63 1_555 1_555
C64 C59 1_555 1_555
H58 C64 1_555 1_555
H59 C64 1_555 1_555
H60 C64 1_555 1_555
I2 Ru3 1_555 1_555
O5 C33 1_555 1_555
O6 C41 1_555 1_555
O7 C49 1_555 1_555
O8 C57 1_555 1_555
N5 C33 1_555 1_555
H61 N5 1_555 1_555
N6 C41 1_555 1_555
H62 N6 1_555 1_555
N7 C57 1_555 1_555
H63 N7 1_555 1_555
N8 C49 1_555 1_555
H64 N8 1_555 1_555
Ru3 O5 1_555 1_555
Ru4 I2 1_555 1_555
N1A Ru1 1_555 1_555
N2A Ru1 1_555 1_555
N3A Ru2 1_555 1_555
N4A Ru2 1_555 1_555
Ru1A N1 1_555 1_555
Ru2A N3 1_555 1_555
O6A Ru3 1_555 1_555
N5A Ru3 1_555 1_555
N7A Ru4 1_555 1_555
N8A Ru4 1_555 1_555
Ru3A O6 1_555 1_555
Ru4A N7 1_555 1_555
C6 C7 1_555 1_555
C14 C15 1_555 1_555
C22 C23 1_555 1_555
C30 C31 1_555 1_555
O2 Ru1 1_555 1_555
O3 Ru2 1_555 1_555
O4 Ru2 1_555 1_555
N2 Ru1A 1_555 1_555
N4 Ru2A 1_555 1_555
Ru1 Ru1A 1_555 1_555
Ru2 Ru2A 1_555 1_555
C38 C39 1_555 1_555
C46 C47 1_555 1_555
C55 C56 1_555 1_555
C62 C63 1_555 1_555
O7 Ru4 1_555 1_555
O8 Ru4 1_555 1_555
N5 Ru3A 1_555 1_555
N6 Ru3 1_555 1_555
N8 Ru4A 1_555 1_555
Ru3 Ru3A 1_555 1_555
Ru4 Ru4A 1_555 1_555

#END
