
#######################################################################
#
#                 Cambridge Crystallographic Data Centre
#                                CCDC 
#
#######################################################################
#
# If this CIF has been generated from an entry in the Cambridge 
# Structural Database, then it will include bibliographic, chemical, 
# crystal, experimental, refinement or atomic coordinate data resulting 
# from the CCDC's data processing and validation procedures.
#
#######################################################################

data_XIZBAL
_symmetry_cell_setting           monoclinic
_symmetry_space_group_name_H-M   'C 2/c'
_symmetry_Int_Tables_number      15
_space_group_name_Hall           '-C 2yn'
loop_
_symmetry_equiv_pos_site_id
_symmetry_equiv_pos_as_xyz
1 x,y,z
2 -x,y,1/2-z
3 1/2+x,1/2+y,z
4 1/2-x,1/2+y,1/2-z
5 -x,-y,-z
6 x,-y,1/2+z
7 1/2-x,1/2-y,-z
8 1/2+x,1/2-y,1/2+z
_cell_length_a                   26.942(6)
_cell_length_b                   10.424(2)
_cell_length_c                   13.010(2)
_cell_angle_alpha                90
_cell_angle_beta                 113.32(3)
_cell_angle_gamma                90
_cell_volume                     3355.29
loop_
_atom_site_label
_atom_site_type_symbol
_atom_site_fract_x
_atom_site_fract_y
_atom_site_fract_z
Br1 Br 0.0000 0.30578(10) 0.7500
C1 C 0.1020(3) 0.5729(6) 0.6253(5)
C2 C 0.1572(3) 0.6200(7) 0.6963(6)
C3 C 0.1819(4) 0.7092(10) 0.6562(8)
H1 H 0.1646 0.7370 0.5826
C4 C 0.2321(4) 0.7600(12) 0.7221(10)
H2 H 0.2475 0.8215 0.6920
C5 C 0.2594(4) 0.7214(11) 0.8303(8)
C6 C 0.2354(4) 0.6300(11) 0.8694(8)
H3 H 0.2536 0.6006 0.9423
C7 C 0.1847(4) 0.5779(9) 0.8051(7)
H4 H 0.1696 0.5157 0.8351
C8 C 0.3133(4) 0.7797(13) 0.9034(10)
H5 H 0.3078 0.8464 0.9487
H6 H 0.3301 0.8151 0.8571
H7 H 0.3362 0.7146 0.9509
C9 C 0.0367(2) 0.2896(6) 0.4340(5)
C10 C 0.0591(3) 0.1744(7) 0.4011(5)
C11 C 0.0799(3) 0.1822(8) 0.3192(6)
H8 H 0.0783 0.2591 0.2818
C12 C 0.1032(4) 0.0749(9) 0.2934(8)
H9 H 0.1163 0.0815 0.2375
C13 C 0.1076(4) -0.0406(8) 0.3468(8)
C14 C 0.0843(4) -0.0481(8) 0.4257(8)
H10 H 0.0845 -0.1259 0.4608
C15 C 0.0611(3) 0.0571(7) 0.4520(7)
H11 H 0.0464 0.0493 0.5055
C16 C 0.1341(5) -0.1546(10) 0.3184(10)
H12 H 0.1132 -0.1809 0.2428
H13 H 0.1362 -0.2239 0.3685
H14 H 0.1699 -0.1316 0.3259
N1 N 0.0753(2) 0.5005(5) 0.6665(4)
H15 H 0.0906 0.4757 0.7350
N2 N 0.0255(2) 0.2859(4) 0.5209(4)
H16 H 0.0297 0.2152 0.5576
O1 O 0.0799(2) 0.6106(5) 0.5223(4)
O2 O 0.0300(2) 0.3948(5) 0.3782(4)
Ru1 Ru -0.00206(2) 0.44334(5) 0.57406(4)
C1A C -0.1020(3) 0.5729(6) 0.8747(5)
C2A C -0.1572(3) 0.6200(7) 0.8037(6)
C3A C -0.1819(4) 0.7092(10) 0.8438(8)
H1A H -0.1646 0.7370 0.9174
C4A C -0.2321(4) 0.7600(12) 0.7779(10)
H2A H -0.2475 0.8215 0.8080
C5A C -0.2594(4) 0.7214(11) 0.6697(8)
C6A C -0.2354(4) 0.6300(11) 0.6306(8)
H3A H -0.2536 0.6006 0.5577
C7A C -0.1847(4) 0.5779(9) 0.6949(7)
H4A H -0.1696 0.5157 0.6649
C8A C -0.3133(4) 0.7797(13) 0.5966(10)
H5A H -0.3078 0.8464 0.5513
H6A H -0.3301 0.8151 0.6429
H7A H -0.3362 0.7146 0.5491
C9A C -0.0367(2) 0.2896(6) 1.0660(5)
C10A C -0.0591(3) 0.1744(7) 1.0989(5)
C11A C -0.0799(3) 0.1822(8) 1.1808(6)
H8A H -0.0783 0.2591 1.2182
C12A C -0.1032(4) 0.0749(9) 1.2066(8)
H9A H -0.1163 0.0815 1.2625
C13A C -0.1076(4) -0.0406(8) 1.1532(8)
C14A C -0.0843(4) -0.0481(8) 1.0743(8)
H10A H -0.0845 -0.1259 1.0392
C15A C -0.0611(3) 0.0571(7) 1.0480(7)
H11A H -0.0464 0.0493 0.9945
C16A C -0.1341(5) -0.1546(10) 1.1816(10)
H12A H -0.1132 -0.1809 1.2572
H13A H -0.1362 -0.2239 1.1315
H14A H -0.1699 -0.1316 1.1741
N1A N -0.0753(2) 0.5005(5) 0.8335(4)
H15A H -0.0906 0.4757 0.7650
N2A N -0.0255(2) 0.2859(4) 0.9791(4)
H16A H -0.0297 0.2152 0.9424
O1A O -0.0799(2) 0.6106(5) 0.9777(4)
O2A O -0.0300(2) 0.3948(5) 1.1218(4)
Ru1A Ru 0.00206(2) 0.44334(5) 0.92594(4)
O1D O -0.0799(2) 0.3894(5) 0.4777(4)
O1E O 0.0799(2) 0.3894(5) 1.0223(4)
O2D O -0.0300(2) 0.6052(5) 0.6218(4)
O2E O 0.0300(2) 0.6052(5) 0.8782(4)
Ru1D Ru 0.00206(2) 0.55666(5) 0.42594(4)
Ru1E Ru -0.00206(2) 0.55666(5) 1.07406(4)
loop_
_geom_bond_atom_site_label_1
_geom_bond_atom_site_label_2
_geom_bond_site_symmetry_1
_geom_bond_site_symmetry_2
Br1 Ru1 1_555 1_555
C1 C2 1_555 1_555
C2 C3 1_555 1_555
C3 H1 1_555 1_555
C4 C3 1_555 1_555
H2 C4 1_555 1_555
C5 C4 1_555 1_555
C6 C5 1_555 1_555
H3 C6 1_555 1_555
C7 C2 1_555 1_555
H4 C7 1_555 1_555
C8 C5 1_555 1_555
H5 C8 1_555 1_555
H6 C8 1_555 1_555
H7 C8 1_555 1_555
C9 C10 1_555 1_555
C10 C11 1_555 1_555
C11 H8 1_555 1_555
C12 C11 1_555 1_555
H9 C12 1_555 1_555
C13 C12 1_555 1_555
C14 C13 1_555 1_555
H10 C14 1_555 1_555
C15 C10 1_555 1_555
H11 C15 1_555 1_555
C16 C13 1_555 1_555
H12 C16 1_555 1_555
H13 C16 1_555 1_555
H14 C16 1_555 1_555
N1 C1 1_555 1_555
H15 N1 1_555 1_555
N2 C9 1_555 1_555
H16 N2 1_555 1_555
O1 C1 1_555 1_555
O2 C9 1_555 1_555
Ru1 N1 1_555 1_555
C1A C2A 1_555 1_555
C2A C3A 1_555 1_555
C3A H1A 1_555 1_555
C4A C3A 1_555 1_555
H2A C4A 1_555 1_555
C5A C4A 1_555 1_555
C6A C5A 1_555 1_555
H3A C6A 1_555 1_555
C7A C2A 1_555 1_555
H4A C7A 1_555 1_555
C8A C5A 1_555 1_555
H5A C8A 1_555 1_555
H6A C8A 1_555 1_555
H7A C8A 1_555 1_555
C9A C10A 1_555 1_555
C10A C11A 1_555 1_555
C11A H8A 1_555 1_555
C12A C11A 1_555 1_555
H9A C12A 1_555 1_555
C13A C12A 1_555 1_555
C14A C13A 1_555 1_555
H10A C14A 1_555 1_555
C15A C10A 1_555 1_555
H11A C15A 1_555 1_555
C16A C13A 1_555 1_555
H12A C16A 1_555 1_555
H13A C16A 1_555 1_555
H14A C16A 1_555 1_555
N1A C1A 1_555 1_555
H15A N1A 1_555 1_555
N2A C9A 1_555 1_555
H16A N2A 1_555 1_555
O1A C1A 1_555 1_555
O2A C9A 1_555 1_555
Ru1A Br1 1_555 1_555
O1D Ru1 1_555 1_555
O1E Ru1A 1_555 1_555
O2D Ru1 1_555 1_555
O2E Ru1A 1_555 1_555
Ru1D O1 1_555 1_555
Ru1E O1A 1_555 1_555
C6 C7 1_555 1_555
C14 C15 1_555 1_555
N2 Ru1 1_555 1_555
O2 Ru1D 1_555 1_555
Ru1 Ru1D 1_555 1_555
C6A C7A 1_555 1_555
C14A C15A 1_555 1_555
N1A Ru1A 1_555 1_555
N2A Ru1A 1_555 1_555
O2A Ru1E 1_555 1_555
Ru1A Ru1E 1_555 1_555

#END
