
#######################################################################
#
#                 Cambridge Crystallographic Data Centre
#                                CCDC 
#
#######################################################################
#
# If this CIF has been generated from an entry in the Cambridge 
# Structural Database, then it will include bibliographic, chemical, 
# crystal, experimental, refinement or atomic coordinate data resulting 
# from the CCDC's data processing and validation procedures.
#
#######################################################################

data_XIZDUG
_symmetry_cell_setting           triclinic
_symmetry_space_group_name_H-M   'P -1'
_symmetry_Int_Tables_number      2
_space_group_name_Hall           '-P 1'
loop_
_symmetry_equiv_pos_site_id
_symmetry_equiv_pos_as_xyz
1 x,y,z
2 -x,-y,-z
_cell_length_a                   7.078(3)
_cell_length_b                   10.287(3)
_cell_length_c                   16.638(5)
_cell_angle_alpha                73.460(7)
_cell_angle_beta                 87.969(11)
_cell_angle_gamma                88.402(9)
_cell_volume                     1160.38
loop_
_atom_site_label
_atom_site_type_symbol
_atom_site_fract_x
_atom_site_fract_y
_atom_site_fract_z
Sm1 Sm 0.64474(2) 1.121305(14) 0.234083(9)
O4 O 0.6346(3) 1.35681(19) 0.16172(12)
O5 O 0.4845(3) 1.9059(2) 0.25054(13)
O6 O 0.6902(3) 1.96684(19) 0.14381(13)
O7 O 1.3280(3) 0.4128(2) 0.46585(14)
O8 O 1.0739(3) 1.0259(2) 0.38097(13)
O9 O 0.8668(3) 0.9473(2) 0.30853(13)
O10 O 0.5690(3) 1.0477(2) 0.38548(13)
H1 H 0.6180 0.9866 0.4242
H2 H 0.4867 1.0796 0.4132
O11 O 0.8485(3) 1.2489(2) 0.30739(13)
H3 H 0.9197 1.1868 0.3362
H4 H 0.9122 1.3095 0.2731
O12 O 0.3361(3) 1.1999(2) 0.27605(13)
H5 H 0.2624 1.1400 0.3043
H6 H 0.2630 1.2510 0.2412
O13 O 0.9351(3) 1.1718(2) 0.14914(13)
H7 H 1.0019 1.2381 0.1488
H8 H 1.0020 1.1181 0.1299
O14 O 0.4407(3) 1.18224(19) 0.10739(12)
H9 H 0.3704 1.1235 0.0978
H10 H 0.3793 1.2561 0.0927
C1 C 0.5437(4) 1.4989(3) 0.24811(19)
H14 H 0.5051 1.4260 0.2946
N2 N 1.3224(4) 0.6370(2) 0.45634(16)
H15 H 1.4286 0.6249 0.4837
C8 C 0.6167(4) 1.4727(3) 0.17334(18)
N3 N 0.6686(4) 1.5829(2) 0.10898(15)
H19 H 0.7093 1.5692 0.0614
C9 C 0.6605(4) 1.7125(3) 0.11446(19)
H20 H 0.7044 1.7846 0.0687
C10 C 0.5903(4) 1.7386(3) 0.18496(18)
C11 C 0.5294(4) 1.6286(3) 0.25282(19)
H21 H 0.4777 1.6457 0.3024
C12 C 0.5855(4) 1.8790(3) 0.19314(18)
C13 C 1.2429(5) 0.5256(3) 0.44201(19)
C14 C 1.0682(4) 0.5503(3) 0.40020(18)
H22 H 1.0044 0.4771 0.3896
C15 C 0.9912(4) 0.6781(3) 0.37516(19)
H23 H 0.8745 0.6923 0.3471
C16 C 1.0818(4) 0.7906(3) 0.39011(18)
C17 C 1.2471(4) 0.7646(3) 0.43085(19)
H24 H 1.3118 0.8372 0.4418
C18 C 1.0010(4) 0.9311(3) 0.35779(18)
Sm1_2 Sm 0.64474(2) 2.121305(14) 0.234083(9)
O5_2 O 0.4845(3) 0.9059(2) 0.25054(13)
O6_2 O 0.6902(3) 0.96684(19) 0.14381(13)
O1 O 0.1669(3) 1.02918(19) 0.06719(13)
O2 O 0.1045(3) 0.3935(2) 0.17871(13)
O3 O 0.2457(3) 0.4276(2) 0.05307(13)
N1 N 0.2291(3) 0.8447(2) 0.02087(15)
H13 H 0.2725 0.8991 -0.0267
C2 C 0.1627(4) 0.9026(3) 0.08147(19)
C3 C 0.0928(4) 0.8092(3) 0.15701(19)
H16 H 0.0439 0.8422 0.2015
C4 C 0.0957(4) 0.6737(3) 0.16583(19)
H17 H 0.0503 0.6135 0.2170
C5 C 0.1650(4) 0.6199(3) 0.10031(18)
C6 C 0.2325(4) 0.7094(3) 0.02901(19)
H18 H 0.2827 0.6770 -0.0156
C7 C 0.1718(4) 0.4707(3) 0.11083(18)
O15 O 0.2878(3) 0.1421(2) 0.48004(13)
H11 H 0.1978 0.1143 0.4578
H12 H 0.2731 0.2274 0.4695
loop_
_geom_bond_atom_site_label_1
_geom_bond_atom_site_label_2
_geom_bond_site_symmetry_1
_geom_bond_site_symmetry_2
Sm1 O4 1_555 1_555
O1 C2 1_555 1_555
O2 C7 1_555 1_555
O3 C7 1_555 1_555
O4 C8 1_555 1_555
O5 C12 1_555 1_555
O6 C12 1_555 1_555
O7 C13 1_555 1_555
O8 C18 1_555 1_555
O9 Sm1 1_555 1_555
O10 Sm1 1_555 1_555
H1 O10 1_555 1_555
H2 O10 1_555 1_555
O11 Sm1 1_555 1_555
H3 O11 1_555 1_555
H4 O11 1_555 1_555
O12 Sm1 1_555 1_555
H5 O12 1_555 1_555
H6 O12 1_555 1_555
O13 Sm1 1_555 1_555
H7 O13 1_555 1_555
H8 O13 1_555 1_555
O14 Sm1 1_555 1_555
H9 O14 1_555 1_555
H10 O14 1_555 1_555
O15 H11 1_555 1_555
H12 O15 1_555 1_555
N1 H13 1_555 1_555
C1 H14 1_555 1_555
N2 H15 1_555 1_555
C2 N1 1_555 1_555
C3 C2 1_555 1_555
H16 C3 1_555 1_555
C4 C3 1_555 1_555
H17 C4 1_555 1_555
C5 C4 1_555 1_555
C6 N1 1_555 1_555
H18 C6 1_555 1_555
C7 C5 1_555 1_555
C8 C1 1_555 1_555
N3 C8 1_555 1_555
H19 N3 1_555 1_555
C9 N3 1_555 1_555
H20 C9 1_555 1_555
C10 C9 1_555 1_555
C11 C1 1_555 1_555
H21 C11 1_555 1_555
C12 C10 1_555 1_555
C13 N2 1_555 1_555
C14 C13 1_555 1_555
H22 C14 1_555 1_555
C15 C14 1_555 1_555
H23 C15 1_555 1_555
C16 C15 1_555 1_555
C17 N2 1_555 1_555
H24 C17 1_555 1_555
C18 O9 1_555 1_555
Sm1_2 O5 1_555 1_555
O5_2 Sm1 1_555 1_555
O6_2 Sm1 1_555 1_555
O6 Sm1_2 1_555 1_555
C5 C6 1_555 1_555
C10 C11 1_555 1_555
C16 C17 1_555 1_555
C16 C18 1_555 1_555

#END
