
#######################################################################
#
#                 Cambridge Crystallographic Data Centre
#                                CCDC 
#
#######################################################################
#
# If this CIF has been generated from an entry in the Cambridge 
# Structural Database, then it will include bibliographic, chemical, 
# crystal, experimental, refinement or atomic coordinate data resulting 
# from the CCDC's data processing and validation procedures.
#
#######################################################################

data_XIZFAO
_symmetry_cell_setting           triclinic
_symmetry_space_group_name_H-M   'P -1'
_symmetry_Int_Tables_number      2
_space_group_name_Hall           '-P 1'
loop_
_symmetry_equiv_pos_site_id
_symmetry_equiv_pos_as_xyz
1 x,y,z
2 -x,-y,-z
_cell_length_a                   7.1077(8)
_cell_length_b                   10.2571(11)
_cell_length_c                   16.6752(17)
_cell_angle_alpha                73.779(2)
_cell_angle_beta                 88.117(2)
_cell_angle_gamma                88.064(2)
_cell_volume                     1166.29
loop_
_atom_site_label
_atom_site_type_symbol
_atom_site_fract_x
_atom_site_fract_y
_atom_site_fract_z
Tb1 Tb -0.15100(3) -0.122710(19) 0.266070(12)
O1 O -0.3712(5) 0.0492(4) 0.1926(2)
O2 O -0.5780(5) -0.0293(4) 0.1205(2)
O3 O -0.8254(6) 0.5856(4) 0.0341(3)
O4 O -0.1980(5) -0.9676(3) 0.3546(2)
O5 O 0.0060(5) -0.9094(3) 0.2483(2)
O6 O -0.1367(5) -0.3565(3) 0.3368(2)
O10 O -0.4341(5) -0.1725(4) 0.3505(2)
H1 H -0.4754 -0.1183 0.3777
H2 H -0.4929 -0.2444 0.3531
O11 O -0.0783(5) -0.0534(4) 0.1163(2)
H3 H -0.0466 0.0277 0.0924
H4 H -0.0849 -0.1104 0.0881
O12 O -0.3518(5) -0.2497(4) 0.1948(2)
H5 H -0.4497 -0.2115 0.1696
H6 H -0.3222 -0.3311 0.1958
O13 O 0.0532(5) -0.1809(4) 0.3906(2)
H7 H 0.0855 -0.1190 0.4119
H8 H 0.0902 -0.2626 0.4118
O14 O 0.1551(5) -0.1994(4) 0.2258(2)
H9 H 0.2519 -0.1531 0.2261
H10 H 0.1654 -0.2727 0.2115
N1 N -0.8215(6) 0.3606(4) 0.0436(3)
H11 H -0.9249 0.3723 0.0168
N2 N -0.1705(6) -0.5824(4) 0.3892(3)
H12 H -0.2091 -0.5686 0.4356
C1 C -0.5044(7) 0.0646(5) 0.1433(3)
C2 C -0.5832(7) 0.2067(6) 0.1108(3)
C3 C -0.4934(7) 0.3190(5) 0.1258(3)
H14 H -0.3797 0.3047 0.1534
C4 C -0.5694(8) 0.4470(6) 0.1007(3)
H15 H -0.5077 0.5183 0.1118
C5 C -0.7433(8) 0.4731(6) 0.0575(3)
C6 C -0.7478(7) 0.2333(5) 0.0690(3)
H16 H -0.8104 0.1625 0.0577
C7 C -0.0940(7) -0.8802(5) 0.3058(3)
C8 C -0.0961(7) -0.7405(5) 0.3133(3)
C9 C -0.0361(7) -0.6313(5) 0.2462(3)
H17 H 0.0148 -0.6488 0.1980
C10 C -0.0511(7) -0.5013(5) 0.2504(3)
H18 H -0.0162 -0.4304 0.2044
C11 C -0.1205(6) -0.4728(5) 0.3254(3)
C12 C -0.1632(7) -0.7116(5) 0.3839(3)
H19 H -0.2045 -0.7815 0.4291
Tb1_2 Tb -0.15100(3) -1.122710(19) 0.266070(12)
O4_2 O -0.1980(5) 0.0324(3) 0.3546(2)
O5_2 O 0.0060(5) 0.0906(3) 0.2483(2)
O7 O -0.7473(6) 0.5730(4) 0.4478(2)
O8 O -0.6092(5) 0.6061(4) 0.3222(2)
O9 O -0.6707(5) -0.0290(4) 0.4317(2)
N3 N -0.7297(6) 0.1560(4) 0.4789(2)
H13 H -0.7703 0.1028 0.5253
C13 C -0.6746(7) 0.5299(5) 0.3898(3)
C14 C -0.6680(6) 0.3803(5) 0.3997(3)
C15 C -0.6014(7) 0.3263(5) 0.3339(3)
H20 H -0.5579 0.3847 0.2840
C16 C -0.6004(7) 0.1909(5) 0.3430(3)
H21 H -0.5552 0.1579 0.2992
C17 C -0.6668(6) 0.0982(5) 0.4179(3)
C18 C -0.7327(7) 0.2919(5) 0.4715(3)
H22 H -0.7787 0.3242 0.5155
O15 O -0.7920(6) 0.8577(4) 0.0199(2)
H23 H -0.705(7) 0.890(6) 0.041(4)
H24 H -0.795(11) 0.7716(13) 0.032(6)
loop_
_geom_bond_atom_site_label_1
_geom_bond_atom_site_label_2
_geom_bond_site_symmetry_1
_geom_bond_site_symmetry_2
Tb1 O1 1_555 1_555
O1 C1 1_555 1_555
O2 C1 1_555 1_555
O3 C5 1_555 1_555
O4 C7 1_555 1_555
O5 C7 1_555 1_555
O6 Tb1 1_555 1_555
O7 C13 1_555 1_555
O8 C13 1_555 1_555
O9 C17 1_555 1_555
O10 Tb1 1_555 1_555
H1 O10 1_555 1_555
H2 O10 1_555 1_555
O11 Tb1 1_555 1_555
H3 O11 1_555 1_555
H4 O11 1_555 1_555
O12 Tb1 1_555 1_555
H5 O12 1_555 1_555
H6 O12 1_555 1_555
O13 Tb1 1_555 1_555
H7 O13 1_555 1_555
H8 O13 1_555 1_555
O14 Tb1 1_555 1_555
H9 O14 1_555 1_555
H10 O14 1_555 1_555
N1 H11 1_555 1_555
N2 H12 1_555 1_555
N3 H13 1_555 1_555
C1 C2 1_555 1_555
C2 C3 1_555 1_555
C3 H14 1_555 1_555
C4 C3 1_555 1_555
H15 C4 1_555 1_555
C5 N1 1_555 1_555
C6 N1 1_555 1_555
H16 C6 1_555 1_555
C7 C8 1_555 1_555
C8 C9 1_555 1_555
C9 H17 1_555 1_555
C10 C9 1_555 1_555
H18 C10 1_555 1_555
C11 O6 1_555 1_555
C12 N2 1_555 1_555
H19 C12 1_555 1_555
C13 C14 1_555 1_555
C14 C15 1_555 1_555
C15 H20 1_555 1_555
C16 C15 1_555 1_555
H21 C16 1_555 1_555
C17 N3 1_555 1_555
C18 N3 1_555 1_555
H22 C18 1_555 1_555
O15 H23 1_555 1_555
H24 O15 1_555 1_555
Tb1_2 O4 1_555 1_555
O4_2 Tb1 1_555 1_555
O5_2 Tb1 1_555 1_555
O5 Tb1_2 1_555 1_555
N2 C11 1_555 1_555
C2 C6 1_555 1_555
C4 C5 1_555 1_555
C8 C12 1_555 1_555
C10 C11 1_555 1_555
C14 C18 1_555 1_555
C16 C17 1_555 1_555

#END
