
#######################################################################
#
#                 Cambridge Crystallographic Data Centre
#                                CCDC 
#
#######################################################################
#
# If this CIF has been generated from an entry in the Cambridge 
# Structural Database, then it will include bibliographic, chemical, 
# crystal, experimental, refinement or atomic coordinate data resulting 
# from the CCDC's data processing and validation procedures.
#
#######################################################################

data_XIZFOC
_symmetry_cell_setting           hexagonal
_symmetry_space_group_name_H-M   'P 65 2 2'
_symmetry_Int_Tables_number      179
_space_group_name_Hall           "P 65 2' (0,0,1)"
loop_
_symmetry_equiv_pos_site_id
_symmetry_equiv_pos_as_xyz
1 x,y,z
2 x-y,x,5/6+z
3 -y,x-y,2/3+z
4 -x,-y,1/2+z
5 -x+y,-x,1/3+z
6 y,-x+y,1/6+z
7 -y,-x,1/6-z
8 x-y,-y,-z
9 x,x-y,5/6-z
10 y,x,2/3-z
11 -x+y,y,1/2-z
12 -x,-x+y,1/3-z
_cell_length_a                   12.7187(2)
_cell_length_b                   12.7187(2)
_cell_length_c                   62.2321(9)
_cell_angle_alpha                90
_cell_angle_beta                 90
_cell_angle_gamma                120
_cell_volume                     8718.27
loop_
_atom_site_label
_atom_site_type_symbol
_atom_site_fract_x
_atom_site_fract_y
_atom_site_fract_z
Tb1 Tb 0.078634(13) 0.533458(14) 0.005432(2)
K1 K -0.23692(8) 0.38564(10) 0.040543(15)
O1 O -0.0725(2) 0.3470(2) 0.02072(4)
O2 O -0.2334(3) 0.1630(3) 0.01703(6)
O3 O 0.00810(19) 0.6012(2) 0.03429(4)
O4 O 0.0360(2) 0.7288(3) 0.06104(4)
O5 O 0.1777(2) 0.6215(2) -0.02676(4)
O6 O 0.2602(3) 0.7599(3) -0.05195(5)
O7 O -0.0995(2) 0.4766(2) -0.01432(4)
O8 O -0.2632(2) 0.4770(2) -0.00168(4)
N1 N 0.0152(3) 0.3362(3) -0.01757(5)
N2 N 0.2430(2) 0.7330(3) 0.02245(5)
N3 N 0.0606(3) 0.7255(3) -0.00984(5)
N4 N -0.3238(2) 0.5166(3) -0.04055(5)
C1 C -0.1366(4) 0.2477(4) 0.01065(7)
C2 C -0.0837(3) 0.2389(3) -0.01096(7)
C3 C -0.1393(4) 0.1320(4) -0.02296(9)
H1 H -0.2113 0.0629 -0.0180
C4 C -0.0875(4) 0.1287(5) -0.04229(8)
H2 H -0.1221 0.0570 -0.0507
C5 C 0.0153(4) 0.2318(5) -0.04897(8)
H3 H 0.0527 0.2326 -0.0622
C6 C 0.0631(4) 0.3330(4) -0.03634(7)
H4 H 0.1336 0.4042 -0.0412
C7 C 0.0742(3) 0.6955(4) 0.04553(6)
C8 C 0.2077(3) 0.7708(4) 0.03953(6)
C9 C 0.2864(4) 0.8706(4) 0.05138(7)
H5 H 0.2593 0.8927 0.0639
C10 C 0.4059(4) 0.9384(4) 0.04475(8)
H6 H 0.4620 1.0087 0.0525
C11 C 0.4415(4) 0.9027(4) 0.02702(8)
H7 H 0.5228 0.9482 0.0220
C12 C 0.3585(3) 0.7999(4) 0.01633(7)
H8 H 0.3847 0.7752 0.0040
C13 C 0.1919(4) 0.7149(4) -0.03693(6)
C14 C 0.1186(3) 0.7695(3) -0.02886(7)
C15 C 0.1069(4) 0.8548(4) -0.04020(8)
H9 H 0.1495 0.8849 -0.0533
C16 C 0.0336(4) 0.8974(5) -0.03266(9)
H10 H 0.0237 0.9560 -0.0405
C17 C -0.0243(4) 0.8527(4) -0.01355(10)
H11 H -0.0758 0.8802 -0.0079
C18 C -0.0092(3) 0.7700(4) -0.00260(8)
H12 H -0.0495 0.7418 0.0108
C19 C -0.1913(3) 0.4871(3) -0.01674(6)
C20 C -0.2211(3) 0.5096(3) -0.03900(6)
C21 C -0.1434(3) 0.5291(4) -0.05577(6)
H13 H -0.0726 0.5229 -0.0538
C22 C -0.1712(4) 0.5583(5) -0.07585(7)
H14 H -0.1192 0.5725 -0.0878
C23 C -0.2761(4) 0.5665(4) -0.07812(7)
H15 H -0.2980 0.5855 -0.0916
C24 C -0.3486(3) 0.5453(4) -0.05951(6)
H16 H -0.4193 0.5522 -0.0608
O11 O -0.1780(4) 0.5373(5) 0.07365(6)
H19 H -0.1443 0.5384 0.0857
H20 H -0.2010 0.5906 0.0761
Tb1G Tb 0.545176(19) 0.466542(14) -0.005432(2)
Tb1G_2 Tb -0.454824(19) 0.466542(14) -0.005432(2)
K1G K 0.37744(13) 0.61436(10) -0.040543(15)
O1G O 0.5805(3) 0.6530(2) -0.02072(4)
O2G O 0.6036(4) 0.8370(3) -0.01703(6)
O3G O 0.40690(28) 0.3988(2) -0.03429(4)
O4G O 0.3072(4) 0.2712(3) -0.06104(4)
O5G O -0.4438(3) 0.3785(2) 0.02676(4)
O5G_2 O 0.5562(3) 0.3785(2) 0.02676(4)
O6G O -0.4997(4) 0.2401(3) 0.05195(5)
O7G O 0.4239(3) 0.5234(2) 0.01432(4)
O8G O 0.2598(3) 0.5230(2) 0.00168(4)
O8_2 O 0.7368(2) 0.4770(2) -0.00168(4)
N1G N 0.6790(4) 0.6638(3) 0.01757(5)
N2G N 0.5100(4) 0.2670(3) -0.02245(5)
N3G N -0.6649(4) 0.2745(3) 0.00984(5)
N3G_2 N 0.3351(4) 0.2745(3) 0.00984(5)
N4G N 0.1596(4) 0.4834(3) 0.04055(5)
N4_2 N 0.6762(2) 0.5166(3) -0.04055(5)
C1G C 0.6157(6) 0.7523(4) -0.01065(7)
C2G C 0.6774(4) 0.7611(3) 0.01096(7)
C3G C 0.7287(6) 0.8680(4) 0.02296(9)
H1G H 0.7258 0.9371 0.0180
C4G C 0.7838(6) 0.8713(5) 0.04229(8)
H2G H 0.8209 0.9430 0.0507
C5G C 0.7835(6) 0.7682(5) 0.04897(8)
H3G H 0.8201 0.7674 0.0622
C6G C 0.7301(6) 0.6670(4) 0.03634(7)
H4G H 0.7294 0.5958 0.0412
C7G C 0.3787(5) 0.3045(4) -0.04553(6)
C8G C 0.4369(5) 0.2292(4) -0.03953(6)
C9G C 0.4158(6) 0.1294(4) -0.05138(7)
H5G H 0.3666 0.1073 -0.0639
C10G C 0.4675(6) 0.0616(4) -0.04475(8)
H6G H 0.4533 -0.0087 -0.0525
C11G C 0.5388(6) 0.0973(4) -0.02702(8)
H7G H 0.5746 0.0518 -0.0220
C12G C 0.5586(5) 0.2001(4) -0.01633(7)
H8G H 0.6095 0.2248 -0.0040
C13G C -0.5230(6) 0.2851(4) 0.03693(6)
C14G C -0.6509(4) 0.2305(3) 0.02886(7)
C15G C -0.7479(6) 0.1452(4) 0.04020(8)
H9G H -0.7354 0.1151 0.0533
C16G C -0.8638(6) 0.1026(5) 0.03266(9)
H10G H -0.9323 0.0440 0.0405
C17G C -0.8770(6) 0.1473(4) 0.01355(10)
H11G H -0.9560 0.1198 0.0079
C18G C -0.7792(5) 0.2300(4) 0.00260(8)
H12G H -0.7913 0.2582 -0.0108
C19G C 0.3216(4) 0.5129(3) 0.01674(6)
C20G C 0.2693(4) 0.4904(3) 0.03900(6)
C21G C 0.3275(5) 0.4709(4) 0.05577(6)
H13G H 0.4045 0.4771 0.0538
C22G C 0.2705(6) 0.4417(5) 0.07585(7)
H14G H 0.3083 0.4275 0.0878
C23G C 0.1574(6) 0.4335(4) 0.07812(7)
H15G H 0.1165 0.4145 0.0916
C24G C 0.1061(5) 0.4547(4) 0.05951(6)
H16G H 0.0285 0.4478 0.0608
O11G O 0.2847(6) 0.4627(5) -0.07365(6)
H19G H 0.3173 0.4616 -0.0857
H20G H 0.2084 0.4094 -0.0761
O9 O 0.06278(19) 0.93722(19) 0.0833
H17 H 0.0617 0.8930 0.0732
H17F H 0.1070 0.9383 0.0935
O10 O 0.5413(3) 0.4587(3) 0.0833
H18 H 0.5540 0.4285 0.0722
H18F H 0.5715 0.4460 0.0945
O12 O 0.7402(6) 0.1052(5) 0.05936(7)
H21 H 0.7373 0.1610 0.0670
H22 H 0.7729 0.1408 0.0475
O13 O 0.9314(6) 0.0686(6) 0.0833
H23 H 0.9021 0.0847 0.0723
H23F H 0.9153 0.0979 0.0944
loop_
_geom_bond_atom_site_label_1
_geom_bond_atom_site_label_2
_geom_bond_site_symmetry_1
_geom_bond_site_symmetry_2
Tb1 O1 1_555 1_555
K1 O1 1_555 1_555
O1 C1 1_555 1_555
O2 K1 1_555 1_555
O3 Tb1 1_555 1_555
O4 C7 1_555 1_555
O5 Tb1 1_555 1_555
O6 C13 1_555 1_555
O7 Tb1 1_555 1_555
O8 K1 1_555 1_555
N1 Tb1 1_555 1_555
N2 Tb1 1_555 1_555
N3 Tb1 1_555 1_555
N4 C20 1_555 1_555
C1 O2 1_555 1_555
C2 N1 1_555 1_555
C3 C2 1_555 1_555
H1 C3 1_555 1_555
C4 C3 1_555 1_555
H2 C4 1_555 1_555
C5 C4 1_555 1_555
H3 C5 1_555 1_555
C6 N1 1_555 1_555
H4 C6 1_555 1_555
C7 O3 1_555 1_555
C8 N2 1_555 1_555
C9 C8 1_555 1_555
H5 C9 1_555 1_555
C10 C9 1_555 1_555
H6 C10 1_555 1_555
C11 C10 1_555 1_555
H7 C11 1_555 1_555
C12 N2 1_555 1_555
H8 C12 1_555 1_555
C13 O5 1_555 1_555
C14 N3 1_555 1_555
C15 C14 1_555 1_555
H9 C15 1_555 1_555
C16 C15 1_555 1_555
H10 C16 1_555 1_555
C17 C16 1_555 1_555
H11 C17 1_555 1_555
C18 N3 1_555 1_555
H12 C18 1_555 1_555
C19 O7 1_555 1_555
C20 C19 1_555 1_555
C21 C20 1_555 1_555
H13 C21 1_555 1_555
C22 C21 1_555 1_555
H14 C22 1_555 1_555
C23 C22 1_555 1_555
H15 C23 1_555 1_555
C24 N4 1_555 1_555
H16 C24 1_555 1_555
O9 H17 1_555 1_555
O10 H18 1_555 1_555
O11 K1 1_555 1_555
H19 O11 1_555 1_555
H20 O11 1_555 1_555
O12 H21 1_555 1_555
H22 O12 1_555 1_555
O13 H23 1_555 1_555
Tb1G O1G 1_555 1_555
Tb1G_2 O8 1_555 1_555
K1G O5 1_555 1_555
O1G K1G 1_555 1_555
O2G K1G 1_555 1_555
O3G Tb1G 1_555 1_555
O4G C7G 1_555 1_555
O5G K1 1_555 1_555
O5G_2 Tb1G 1_555 1_555
O6G K1 1_555 1_555
O7G Tb1G 1_555 1_555
O8G Tb1 1_555 1_555
O8_2 Tb1G 1_555 1_555
N1G Tb1G 1_555 1_555
N2G Tb1G 1_555 1_555
N3G Tb1G_2 1_555 1_555
N3G_2 Tb1G 1_555 1_555
N4G Tb1 1_555 1_555
N4_2 Tb1G 1_555 1_555
C1G O1G 1_555 1_555
C2G N1G 1_555 1_555
C3G C2G 1_555 1_555
H1G C3G 1_555 1_555
C4G C3G 1_555 1_555
H2G C4G 1_555 1_555
C5G C4G 1_555 1_555
H3G C5G 1_555 1_555
C6G N1G 1_555 1_555
H4G C6G 1_555 1_555
C7G O3G 1_555 1_555
C8G N2G 1_555 1_555
C9G C8G 1_555 1_555
H5G C9G 1_555 1_555
C10G C9G 1_555 1_555
H6G C10G 1_555 1_555
C11G C10G 1_555 1_555
H7G C11G 1_555 1_555
C12G N2G 1_555 1_555
H8G C12G 1_555 1_555
C13G O5G 1_555 1_555
C14G N3G 1_555 1_555
C15G C14G 1_555 1_555
H9G C15G 1_555 1_555
C16G C15G 1_555 1_555
H10G C16G 1_555 1_555
C17G C16G 1_555 1_555
H11G C17G 1_555 1_555
C18G N3G 1_555 1_555
H12G C18G 1_555 1_555
C19G O7G 1_555 1_555
C20G N4G 1_555 1_555
C21G C20G 1_555 1_555
H13G C21G 1_555 1_555
C22G C21G 1_555 1_555
H14G C22G 1_555 1_555
C23G C22G 1_555 1_555
H15G C23G 1_555 1_555
C24G N4G 1_555 1_555
H16G C24G 1_555 1_555
H17F O9 1_555 1_555
H18F O10 1_555 1_555
O11G K1G 1_555 1_555
H19G O11G 1_555 1_555
H20G O11G 1_555 1_555
H23F O13 1_555 1_555
K1 O3 1_555 1_555
O6 K1G 1_555 1_555
O8 C19 1_555 1_555
N4 Tb1G_2 1_555 1_555
C1 C2 1_555 1_555
C5 C6 1_555 1_555
C7 C8 1_555 1_555
C11 C12 1_555 1_555
C13 C14 1_555 1_555
C17 C18 1_555 1_555
C23 C24 1_555 1_555
Tb1G_2 O5G 1_555 1_555
K1G O3G 1_555 1_555
K1G O8G 1_555 1_555
O2G C1G 1_555 1_555
O6G C13G 1_555 1_555
O8G C19G 1_555 1_555
C1G C2G 1_555 1_555
C5G C6G 1_555 1_555
C7G C8G 1_555 1_555
C11G C12G 1_555 1_555
C13G C14G 1_555 1_555
C17G C18G 1_555 1_555
C19G C20G 1_555 1_555
C23G C24G 1_555 1_555

#END
