
#######################################################################
#
#                 Cambridge Crystallographic Data Centre
#                                CCDC 
#
#######################################################################
#
# If this CIF has been generated from an entry in the Cambridge 
# Structural Database, then it will include bibliographic, chemical, 
# crystal, experimental, refinement or atomic coordinate data resulting 
# from the CCDC's data processing and validation procedures.
#
#######################################################################

data_XIZHAP
_symmetry_cell_setting           monoclinic
_symmetry_space_group_name_H-M   'C 2'
_symmetry_Int_Tables_number      5
_space_group_name_Hall           'C 2y'
loop_
_symmetry_equiv_pos_site_id
_symmetry_equiv_pos_as_xyz
1 x,y,z
2 -x,y,-z
3 1/2+x,1/2+y,z
4 1/2-x,1/2+y,-z
_cell_length_a                   17.5592(4)
_cell_length_b                   12.9874(2)
_cell_length_c                   6.60310(10)
_cell_angle_alpha                90.00
_cell_angle_beta                 112.0040(10)
_cell_angle_gamma                90.00
_cell_volume                     1396.14
loop_
_atom_site_label
_atom_site_type_symbol
_atom_site_fract_x
_atom_site_fract_y
_atom_site_fract_z
Fe1 Fe 0.74122(4) 0.76378(6) 0.71388(11)
Fe2 Fe 1.0000 0.04879(8) 1.0000
O1 O 0.8218(2) 0.8711(3) 0.6536(7)
O2 O 1.0859(3) -0.0470(5) 0.9612(8)
O3 O 1.0649(2) 0.1954(3) 1.0186(7)
O4 O 0.6586(2) 0.6515(4) 0.7521(7)
O5 O 0.8436(2) 0.6697(3) 0.8574(7)
O6 O 0.9447(3) 0.0457(4) 0.6487(7)
O7 O 0.6456(2) 0.8705(3) 0.5923(7)
O8 O 0.7644(3) 0.8318(4) 1.0344(7)
O9 O 0.7204(2) 0.7019(4) 0.3888(7)
O10 O 0.5682(3) 1.3523(4) 0.5608(8)
O11 O 0.7846(2) 0.5252(3) 0.9077(8)
O12 O 0.7140(2) 1.0136(3) 0.5824(8)
C1 C 0.9272(3) 0.4133(4) 0.9628(8)
H1 H 0.8790(3) 0.3775(4) 0.9419(8)
C2 C 1.0000 0.3586(6) 1.0000
C3 C 0.9261(3) 0.5201(4) 0.9567(8)
C4 C 1.0000 0.5742(6) 1.0000
H2 H 1.0000 0.6458(6) 1.0000
C5 C 0.8456(3) 0.5772(4) 0.9041(7)
C6 C 1.0000 0.2461(7) 1.0000
C7 C 0.5000 1.1892(6) 0.5000
C8 C 0.5728(3) 1.1347(4) 0.5377(8)
H3 H 0.6214(3) 1.1705(4) 0.5630(8)
C9 C 0.5000 1.3041(7) 0.5000
C10 C 0.5733(3) 1.0275(4) 0.5377(8)
C11 C 0.5000 0.9756(6) 0.5000
H4 H 0.5000 0.9040(6) 0.5000
C12 C 0.6502(3) 0.9668(4) 0.5753(8)
O3A O 0.9351(2) 0.1954(3) 0.9814(7)
C3A C 1.0739(3) 0.5201(4) 1.0433(8)
C1A C 1.0728(3) 0.4133(4) 1.0372(8)
H1A H 1.1210(3) 0.3775(4) 1.0581(8)
C5A C 1.1544(3) 0.5772(4) 1.0959(7)
O5A O 1.1564(2) 0.6697(3) 1.1426(7)
O11A O 1.2154(2) 0.5252(3) 1.0923(8)
C8A C 0.4272(3) 1.1347(4) 0.4623(8)
H3A H 0.3786(3) 1.1705(4) 0.4370(8)
C10A C 0.4267(3) 1.0275(4) 0.4623(8)
C12A C 0.3498(3) 0.9668(4) 0.4247(8)
O7A O 0.3544(2) 0.8705(3) 0.4077(7)
O12A O 0.2860(2) 1.0136(3) 0.4176(8)
O10A O 0.4318(3) 1.3523(4) 0.4392(8)
O2A O 0.9141(3) -0.0470(5) 1.0388(8)
O6A O 1.0553(3) 0.0457(4) 1.3513(7)
Fe1A Fe 1.25878(4) 0.76378(6) 1.28612(11)
O1A O 1.1782(2) 0.8711(3) 1.3464(7)
O4A O 1.3414(2) 0.6515(4) 1.2479(7)
O8A O 1.2356(3) 0.8318(4) 0.9656(7)
O9A O 1.2796(2) 0.7019(4) 1.6112(7)
Fe1A_2 Fe 0.25878(4) 0.76378(6) 0.28612(11)
O7A_2 O 1.3544(2) 0.8705(3) 1.4077(7)
loop_
_geom_bond_atom_site_label_1
_geom_bond_atom_site_label_2
_geom_bond_site_symmetry_1
_geom_bond_site_symmetry_2
Fe1 O1 1_555 1_555
Fe2 O2 1_555 1_555
O3 Fe2 1_555 1_555
O4 Fe1 1_555 1_555
O5 Fe1 1_555 1_555
O6 Fe2 1_555 1_555
O7 Fe1 1_555 1_555
O8 Fe1 1_555 1_555
O9 Fe1 1_555 1_555
O10 C9 1_555 1_555
O11 C5 1_555 1_555
O12 C12 1_555 1_555
C1 H1 1_555 1_555
C2 C1 1_555 1_555
C3 C1 1_555 1_555
C4 C3 1_555 1_555
H2 C4 1_555 1_555
C5 O5 1_555 1_555
C6 O3 1_555 1_555
C7 C8 1_555 1_555
C8 H3 1_555 1_555
C9 C7 1_555 1_555
C10 C8 1_555 1_555
C11 C10 1_555 1_555
H4 C11 1_555 1_555
C12 O7 1_555 1_555
O3A Fe2 1_555 1_555
C3A C4 1_555 1_555
C1A C2 1_555 1_555
H1A C1A 1_555 1_555
C5A C3A 1_555 1_555
O5A C5A 1_555 1_555
O11A C5A 1_555 1_555
C8A C7 1_555 1_555
H3A C8A 1_555 1_555
C10A C11 1_555 1_555
C12A C10A 1_555 1_555
O7A C12A 1_555 1_555
O12A C12A 1_555 1_555
O10A C9 1_555 1_555
O2A Fe2 1_555 1_555
O6A Fe2 1_555 1_555
Fe1A O5A 1_555 1_555
O1A Fe1A 1_555 1_555
O4A Fe1A 1_555 1_555
O8A Fe1A 1_555 1_555
O9A Fe1A 1_555 1_555
Fe1A_2 O7A 1_555 1_555
O7A_2 Fe1A 1_555 1_555
C2 C6 1_555 1_555
C3 C5 1_555 1_555
C6 O3A 1_555 1_555
C10 C12 1_555 1_555
C3A C1A 1_555 1_555
C8A C10A 1_555 1_555

#END
