
#######################################################################
#
#                 Cambridge Crystallographic Data Centre
#                                CCDC 
#
#######################################################################
#
# If this CIF has been generated from an entry in the Cambridge 
# Structural Database, then it will include bibliographic, chemical, 
# crystal, experimental, refinement or atomic coordinate data resulting 
# from the CCDC's data processing and validation procedures.
#
#######################################################################

data_XIZJUM
_symmetry_cell_setting           triclinic
_symmetry_space_group_name_H-M   'P -1'
_symmetry_Int_Tables_number      2
_space_group_name_Hall           '-P 1'
loop_
_symmetry_equiv_pos_site_id
_symmetry_equiv_pos_as_xyz
1 x,y,z
2 -x,-y,-z
_cell_length_a                   14.2340(8)
_cell_length_b                   15.1070(8)
_cell_length_c                   22.9020(13)
_cell_angle_alpha                73.6460(10)
_cell_angle_beta                 80.0360(10)
_cell_angle_gamma                79.3390(10)
_cell_volume                     4605.52
loop_
_atom_site_label
_atom_site_type_symbol
_atom_site_fract_x
_atom_site_fract_y
_atom_site_fract_z
Si2 Si 0.5000 0.5000 0.5000
Cu3 Cu 0.56049(12) 1.00699(12) 0.43817(8)
W1 W 0.33354(4) 0.41672(4) 0.43896(3)
W4 W 0.54139(4) 0.73408(4) 0.44074(3)
W7 W 0.58429(5) 0.33825(4) 0.40951(3)
W10 W 0.37305(5) 0.65062(5) 0.38212(3)
W11 W 0.25262(4) 0.57258(5) 0.53102(3)
W12 W 0.37934(5) 0.42683(6) 0.64938(3)
F5 F 0.1107(9) 0.8683(8) 0.3912(7)
F6 F 0.2069(7) 1.1566(6) 0.3608(5)
C27 C 0.4391(15) 1.1414(11) 0.2844(8)
H23 H 0.3925 1.1860 0.2647
C28 C 0.5561(15) 1.0371(12) 0.3031(9)
H24 H 0.6070 0.9904 0.2979
C29 C 0.7622(11) 1.0533(12) 0.3827(8)
H25 H 0.7428 1.1047 0.3516
C30 C 0.1516(11) 1.0458(10) 0.5582(8)
H26 H 0.0995 1.0800 0.5384
C31 C 0.2827(10) 1.1351(9) 0.4902(7)
H27 H 0.2320 1.1777 0.4690
H28 H 0.3184 1.1709 0.5053
C32 C 0.3508(10) 1.0847(8) 0.4454(6)
C33 C 0.3917(11) 1.1645(9) 0.3910(7)
H29 H 0.4310 1.1968 0.4064
H30 H 0.3387 1.2094 0.3743
C34 C 0.2231(12) 1.0626(11) 0.3875(7)
C35 C 0.1585(13) 1.0141(12) 0.3736(8)
H31 H 0.1110 1.0423 0.3482
C36 C 0.1733(14) 0.9192(12) 0.4018(9)
C37 C 0.2450(11) 0.8776(10) 0.4399(9)
H32 H 0.2526 0.8137 0.4577
C38 C 0.3016(12) 0.9302(10) 0.4500(8)
H33 H 0.3494 0.9026 0.4751
C39 C 0.2915(9) 1.0265(9) 0.4239(6)
N13 N 0.5296(9) 1.0605(8) 0.3549(6)
N14 N 0.4489(9) 1.1257(8) 0.3433(6)
N15 N 0.5034(13) 1.0863(11) 0.2577(7)
N16 N 0.7016(9) 0.9993(8) 0.4198(6)
N17 N 0.2403(8) 1.0649(7) 0.5417(5)
N18 N 0.8558(10) 1.0269(10) 0.3942(8)
O27 O 0.3111(9) 0.7217(7) 0.3275(5)
O28 O 0.1373(8) 0.6071(8) 0.5462(6)
O29 O 0.2816(11) 0.6508(7) 0.4528(6)
O30 O 0.3392(11) 0.5314(7) 0.3831(6)
O31 O 0.2508(11) 0.4759(7) 0.4941(6)
O32 O 0.2811(9) 0.4791(8) 0.6017(5)
O33 O 0.3218(8) 0.3888(8) 0.7193(5)
O34 O 0.2576(9) 0.3721(11) 0.4108(6)
O35 O 0.4521(7) 0.3685(7) 0.3983(5)
O36 O 0.6214(9) 0.2611(9) 0.3672(5)
O37 O 0.4544(7) 0.7384(7) 0.5145(5)
O38 O 0.5602(7) 0.8464(7) 0.4177(6)
O40 O 0.5034(10) 0.5957(11) 0.4394(7)
O41 O 0.6396(7) 0.6837(7) 0.4910(5)
O43 O 0.5856(11) 0.4597(11) 0.4497(8)
O44 O 0.4904(9) 0.6124(14) 0.3385(8)
O45 O 0.4327(8) 0.7338(15) 0.4045(8)
O46 O 0.4022(15) 0.5491(10) 0.6483(8)
O47 O 0.6164(8) 0.6822(14) 0.3797(9)
O48 O 0.3110(13) 0.6600(10) 0.5580(8)
O52 O 0.5715(6) 0.9678(6) 0.5251(4)
Cu3A Cu 0.43951(12) 0.99301(12) 0.56183(8)
Cu3A_2 Cu 0.43951(12) -0.00699(12) 0.56183(8)
W1A W 0.66646(4) 0.58328(4) 0.56104(3)
W4A W 0.45861(4) 0.26592(4) 0.55926(3)
W7A W 0.41571(5) 0.66175(4) 0.59049(3)
W10A W 0.62695(5) 0.34938(5) 0.61788(3)
W11A W 0.74738(4) 0.42742(5) 0.46898(3)
W12A W 0.62066(5) 0.57317(6) 0.35062(3)
F5A F 0.8893(9) 1.1317(8) 0.6088(7)
F6A F 0.7931(7) 0.8434(6) 0.6392(5)
C27A C 0.5609(15) 0.8586(11) 0.7156(8)
H23A H 0.6075 0.8140 0.7353
C28A C 0.4439(15) 0.9629(12) 0.6969(9)
H24A H 0.3930 1.0096 0.7021
C29A C 0.2378(11) 0.9467(12) 0.6173(8)
C30A C 0.8484(11) 0.9542(10) 0.4418(8)
C31A C 0.7173(10) 0.8649(9) 0.5098(7)
H27A H 0.7680 0.8223 0.5310
H28A H 0.6816 0.8291 0.4947
C32A C 0.6492(10) 0.9153(8) 0.5546(6)
C33A C 0.6083(11) 0.8355(9) 0.6090(7)
H29A H 0.5690 0.8032 0.5936
H30A H 0.6613 0.7906 0.6257
C34A C 0.7769(12) 0.9374(11) 0.6125(7)
C35A C 0.8415(13) 0.9859(12) 0.6264(8)
H31A H 0.8890 0.9577 0.6518
C36A C 0.8267(14) 1.0808(12) 0.5982(9)
C37A C 0.7550(11) 1.1224(10) 0.5601(9)
H32A H 0.7474 1.1863 0.5423
C38A C 0.6984(12) 1.0698(10) 0.5500(8)
H33A H 0.6506 1.0974 0.5249
C39A C 0.7085(9) 0.9735(9) 0.5761(6)
N13A N 0.4704(9) 0.9395(8) 0.6451(6)
N14A N 0.5511(9) 0.8743(8) 0.6567(6)
N15A N 0.4966(13) 0.9137(11) 0.7423(7)
N16A N 0.2984(9) 1.0007(8) 0.5802(6)
N17A N 0.7597(8) 0.9351(7) 0.4583(5)
N18A N 0.1442(10) 0.9731(10) 0.6058(8)
O27A O 0.6889(9) 0.2783(7) 0.6725(5)
O28A O 0.8627(8) 0.3929(8) 0.4538(6)
O29A O 0.7184(11) 0.3492(7) 0.5472(6)
O30A O 0.6608(11) 0.4686(7) 0.6169(6)
O31A O 0.7492(11) 0.5241(7) 0.5059(6)
O32A O 0.7189(9) 0.5209(8) 0.3983(5)
O33A O 0.6782(8) 0.6112(8) 0.2807(5)
O34A O 0.7424(9) 0.6279(11) 0.5892(6)
O35A O 0.5479(7) 0.6315(7) 0.6017(5)
O36A O 0.3786(9) 0.7389(9) 0.6328(5)
O37A O 0.5456(7) 0.2616(7) 0.4855(5)
O38A O 0.4398(7) 0.1536(7) 0.5823(6)
O38A_2 O 0.4398(7) 1.1536(7) 0.5823(6)
O40A O 0.4966(10) 0.4043(11) 0.5606(7)
O41A O 0.3604(7) 0.3163(7) 0.5090(5)
O43A O 0.4144(11) 0.5403(11) 0.5503(8)
O44A O 0.5096(9) 0.3876(14) 0.6615(8)
O45A O 0.5673(8) 0.2662(15) 0.5955(8)
O46A O 0.5978(15) 0.4509(10) 0.3517(8)
O47A O 0.3836(8) 0.3178(14) 0.6203(9)
O48A O 0.6890(13) 0.3400(10) 0.4420(8)
O52A O 0.4285(6) 1.0322(6) 0.4749(4)
Cu4 Cu 0.43354(13) 0.98004(13) 0.05926(8)
F7 F 0.2113(7) 1.2046(6) -0.1280(5)
F8 F 0.1630(15) 0.9463(9) -0.1835(9)
C40 C 0.4590(13) 1.1877(14) -0.2095(8)
H34 H 0.4175 1.2395 -0.2277
C41 C 0.4338(14) 0.9280(13) 0.1974(8)
H35 H 0.3864 0.9758 0.2058
C42 C 0.1490(11) 1.0545(11) 0.0472(8)
H36 H 0.0991 1.0924 0.0267
C43 C 0.2301(10) 0.9452(11) 0.1060(7)
H37 H 0.2460 0.8904 0.1357
C44 C 0.2887(12) 1.1451(10) -0.0078(7)
H38 H 0.3225 1.1732 0.0141
H39 H 0.2405 1.1929 -0.0278
C45 C 0.3601(10) 1.1063(10) -0.0560(6)
C46 C 0.4092(13) 1.1895(11) -0.0982(8)
H40 H 0.3607 1.2420 -0.1124
H41 H 0.4500 1.2089 -0.0756
C47 C 0.2343(11) 1.1134(10) -0.1229(7)
C48 C 0.3091(10) 1.0649(8) -0.0907(6)
C49 C 0.3340(13) 0.9696(9) -0.0914(7)
H42 H 0.3843 0.9326 -0.0710
C50 C 0.282(2) 0.9316(13) -0.1231(11)
H43 H 0.3001 0.8700 -0.1252
C51 C 0.2046(18) 0.9855(15) -0.1512(11)
C52 C 0.1823(15) 1.0758(13) -0.1545(9)
H44 H 0.1341 1.1128 -0.1769
N19 N 0.2419(10) 1.0694(9) 0.0354(6)
N20 N 0.2944(9) 0.9993(8) 0.0729(5)
N21 N 0.1393(9) 0.9774(10) 0.0924(7)
N22 N 0.4599(9) 0.9133(9) 0.1430(6)
N23 N 0.4656(10) 1.1607(8) -0.1492(6)
N24 N 0.4834(13) 0.8659(11) 0.2399(6)
O51 O 0.4332(7) 1.0432(6) -0.0260(4)
Cu4A Cu 0.56646(13) 1.01996(13) -0.05926(8)
F7A F 0.7887(7) 0.7954(6) 0.1280(5)
F8A F 0.8370(15) 1.0537(9) 0.1835(9)
C40A C 0.5410(13) 0.8123(14) 0.2095(8)
C42A C 0.8510(11) 0.9455(11) -0.0472(8)
H36A H 0.9009 0.9076 -0.0267
C43A C 0.7699(10) 1.0548(11) -0.1060(7)
H37A H 0.7540 1.1096 -0.1357
C44A C 0.7113(12) 0.8549(10) 0.0078(7)
H38A H 0.6775 0.8268 -0.0141
H39A H 0.7595 0.8071 0.0278
C45A C 0.6399(10) 0.8937(10) 0.0560(6)
C46A C 0.5908(13) 0.8105(11) 0.0982(8)
H40A H 0.6393 0.7580 0.1124
H41A H 0.5500 0.7911 0.0756
C47A C 0.7657(11) 0.8866(10) 0.1229(7)
C48A C 0.6909(10) 0.9351(8) 0.0907(6)
C49A C 0.6660(13) 1.0304(9) 0.0914(7)
H42A H 0.6157 1.0674 0.0710
C50A C 0.718(2) 1.0684(13) 0.1231(11)
H43A H 0.6999 1.1300 0.1252
C51A C 0.7954(18) 1.0145(15) 0.1512(11)
C52A C 0.8177(15) 0.9242(13) 0.1545(9)
H44A H 0.8659 0.8872 0.1769
N19A N 0.7581(10) 0.9306(9) -0.0354(6)
N20A N 0.7056(9) 1.0007(8) -0.0729(5)
N21A N 0.8607(9) 1.0226(10) -0.0924(7)
N22A N 0.5401(9) 1.0867(9) -0.1430(6)
N23A N 0.5344(10) 0.8393(8) 0.1492(6)
N24A N 0.5166(13) 1.1341(11) -0.2399(6)
O51A O 0.5668(7) 0.9568(6) 0.0260(4)
O3 O 0.5897(11) 0.6469(11) 0.7218(7)
O5 O 0.6831(10) 0.2370(9) 0.8016(6)
Si1 Si 0.5000 0.5000 0.0000
Cu1 Cu 0.00447(12) 0.52496(10) 0.17885(7)
Cu2 Cu 0.04030(12) 0.45378(11) 0.31095(7)
W2 W 0.56113(4) 0.72491(3) -0.07334(3)
W3 W 0.69119(4) 0.57290(4) 0.04488(3)
W5 W 0.37412(4) 0.64802(4) -0.12008(3)
W6 W 0.28398(4) 0.47517(4) 0.09950(3)
W8 W 0.34214(4) 0.70014(4) 0.02409(3)
W9 W 0.47271(5) 0.55454(5) 0.14289(3)
F1 F 0.0894(6) 0.8318(6) 0.2520(5)
F2 F -0.2311(7) 0.8888(9) 0.3339(7)
F3 F 0.2090(9) 0.0403(8) 0.1994(6)
F4 F -0.1068(7) 0.1632(6) 0.2574(5)
C1 C 0.0174(13) 0.5254(12) 0.4241(7)
H1 H -0.0189 0.4808 0.4497
C2 C 0.0870(11) 0.6453(11) 0.3918(7)
H2 H 0.1092 0.7006 0.3893
C3 C 0.1502(9) 0.6241(9) 0.2852(5)
H3 H 0.1834 0.6774 0.2784
H4 H 0.1975 0.5723 0.2774
C4 C 0.0757(9) 0.6470(8) 0.2415(6)
C5 C 0.1254(10) 0.6888(9) 0.1780(6)
H5 H 0.1816 0.6455 0.1685
H6 H 0.1476 0.7457 0.1782
C6 C -0.0252(10) 0.6904(9) 0.0693(6)
H7 H -0.0642 0.6638 0.0524
C7 C 0.0458(10) 0.7907(9) 0.0860(6)
H8 H 0.0680 0.8459 0.0836
C8 C -0.0111(9) 0.7179(9) 0.2609(6)
C9 C 0.0026(9) 0.8024(10) 0.2680(6)
C10 C -0.0719(11) 0.8637(11) 0.2921(7)
H9 H -0.0610 0.9202 0.2965
C11 C -0.1603(11) 0.8351(12) 0.3083(8)
C12 C -0.1757(12) 0.7480(13) 0.3040(9)
H10 H -0.2357 0.7283 0.3171
C13 C -0.1020(10) 0.6941(10) 0.2807(7)
H11 H -0.1129 0.6369 0.2776
C14 C -0.0418(11) 0.2076(10) 0.4121(6)
H12 H -0.0801 0.1611 0.4190
C15 C 0.0558(10) 0.2872(9) 0.4202(6)
H13 H 0.1023 0.3073 0.4354
C16 C -0.1116(10) 0.3148(11) 0.3200(6)
H14 H -0.1493 0.2659 0.3231
H15 H -0.1558 0.3687 0.3276
C17 C -0.0572(8) 0.3410(9) 0.2546(6)
C18 C -0.1369(9) 0.3700(10) 0.2104(6)
H16 H -0.1796 0.4251 0.2174
H17 H -0.1749 0.3200 0.2176
C19 C -0.0821(11) 0.3438(11) 0.1048(7)
H18 H -0.1153 0.2943 0.1092
C20 C 0.0103(11) 0.4442(10) 0.0725(6)
H19 H 0.0576 0.4780 0.0478
C21 C -0.0145(13) 0.1734(11) 0.2433(7)
C22 C 0.0139(9) 0.2593(9) 0.2411(6)
C23 C 0.1133(12) 0.2651(11) 0.2234(6)
H20 H 0.1355 0.3205 0.2203
C24 C 0.1781(12) 0.1914(12) 0.2105(7)
H21 H 0.2434 0.1957 0.1998
C25 C 0.1442(14) 0.1144(12) 0.2138(8)
C26 C 0.0501(14) 0.1012(10) 0.2272(7)
H22 H 0.0303 0.0467 0.2256
N1 N 0.0609(9) 0.5216(7) 0.3670(5)
N2 N 0.1051(8) 0.6000(7) 0.3482(5)
N3 N 0.0325(11) 0.5996(9) 0.4395(6)
N4 N 0.0625(7) 0.7103(7) 0.1291(5)
N5 N 0.0191(8) 0.6452(7) 0.1178(5)
N6 N -0.0077(9) 0.7790(8) 0.0472(6)
N7 N -0.0867(9) 0.3895(8) 0.1472(5)
N8 N -0.0288(8) 0.4563(9) 0.1262(5)
N9 N -0.0241(11) 0.3781(10) 0.0558(6)
N10 N 0.0252(10) 0.2069(8) 0.4478(6)
N11 N 0.0193(8) 0.3376(7) 0.3711(5)
N12 N -0.0450(8) 0.2826(8) 0.3667(5)
O1 O 0.1793(7) 0.4644(7) 0.1470(5)
O2 O 0.3614(10) 0.4930(9) 0.1505(6)
O4 O 0.2643(10) 0.6042(8) 0.0623(6)
O6 O 0.4567(10) 0.5821(8) 0.2104(5)
O7 O -0.1730(10) 0.5861(11) 0.1858(7)
O8 O 0.4085(9) 0.6638(7) 0.0935(5)
O9 O 0.2072(9) 0.4014(9) 0.2877(6)
O10 O 0.2705(9) 0.7948(8) 0.0365(7)
O11 O 0.3124(8) 0.6970(9) -0.0523(5)
O12 O 0.4528(8) 0.7542(9) -0.0175(5)
O13 O 0.3111(9) 0.7190(8) -0.1755(5)
O14 O 0.4769(8) 0.7148(10) -0.1252(5)
O15 O 0.5908(9) 0.8328(8) -0.1050(5)
O16 O 0.6340(10) 0.6864(8) -0.0073(6)
O17 O 0.7819(7) 0.6119(7) 0.0645(5)
O19 O 0.4223(12) 0.5451(11) 0.0458(8)
O20 O 0.4597(11) 0.6060(10) -0.0274(7)
O21 O 0.5578(11) 0.4915(10) 0.0602(7)
O22 O 0.5385(11) 0.4310(8) 0.1628(8)
O23 O 0.5914(10) 0.5972(8) 0.1081(8)
O24 O 0.2471(11) 0.4629(10) 0.0265(6)
O25 O 0.2936(11) 0.5521(8) -0.0884(9)
O26 O 0.3434(10) 0.3499(10) 0.1141(6)
O49 O -0.0120(6) 0.4186(6) 0.2496(4)
O50 O 0.0439(6) 0.5646(5) 0.2422(4)
Cu1A Cu 0.99553(12) 0.47504(10) -0.17885(7)
Cu2A Cu 0.95970(12) 0.54622(11) -0.31095(7)
W2A W 0.43887(4) 0.27509(3) 0.07334(3)
W3A W 0.30881(4) 0.42710(4) -0.04488(3)
W5A W 0.62588(4) 0.35198(4) 0.12008(3)
W6A W 0.71602(4) 0.52483(4) -0.09950(3)
W8A W 0.65786(4) 0.29986(4) -0.02409(3)
W9A W 0.52729(5) 0.44546(5) -0.14289(3)
F1A F 0.9106(6) 0.1682(6) -0.2520(5)
F2A F 1.2311(7) 0.1112(9) -0.3339(7)
F3A F 0.7910(9) 0.9597(8) -0.1994(6)
F4A F 1.1068(7) 0.8368(6) -0.2574(5)
C1A C 0.9826(13) 0.4746(12) -0.4241(7)
H1A H 1.0189 0.5192 -0.4497
C2A C 0.9130(11) 0.3547(11) -0.3918(7)
H2A H 0.8908 0.2994 -0.3893
C3A C 0.8498(9) 0.3759(9) -0.2852(5)
H3A H 0.8166 0.3226 -0.2784
H4A H 0.8025 0.4277 -0.2774
C4A C 0.9243(9) 0.3530(8) -0.2415(6)
C5A C 0.8746(10) 0.3112(9) -0.1780(6)
H5A H 0.8184 0.3545 -0.1685
H6A H 0.8524 0.2543 -0.1782
C6A C 1.0252(10) 0.3096(9) -0.0693(6)
H7A H 1.0642 0.3362 -0.0524
C7A C 0.9542(10) 0.2093(9) -0.0860(6)
H8A H 0.9320 0.1541 -0.0836
C8A C 1.0111(9) 0.2821(9) -0.2609(6)
C9A C 0.9974(9) 0.1976(10) -0.2680(6)
C10A C 1.0719(11) 0.1363(11) -0.2921(7)
H9A H 1.0610 0.0798 -0.2965
C11A C 1.1603(11) 0.1649(12) -0.3083(8)
C12A C 1.1757(12) 0.2520(13) -0.3040(9)
H10A H 1.2357 0.2717 -0.3171
C13A C 1.1020(10) 0.3059(10) -0.2807(7)
H11A H 1.1129 0.3631 -0.2776
C14A C 1.0418(11) 0.7924(10) -0.4121(6)
H12A H 1.0801 0.8389 -0.4190
C15A C 0.9442(10) 0.7128(9) -0.4202(6)
H13A H 0.8977 0.6927 -0.4354
C16A C 1.1116(10) 0.6852(11) -0.3200(6)
H14A H 1.1493 0.7341 -0.3231
H15A H 1.1558 0.6313 -0.3276
C17A C 1.0572(8) 0.6590(9) -0.2546(6)
C18A C 1.1369(9) 0.6300(10) -0.2104(6)
C19A C 1.0821(11) 0.6562(11) -0.1048(7)
H18A H 1.1153 0.7057 -0.1092
C20A C 0.9897(11) 0.5558(10) -0.0725(6)
H19A H 0.9424 0.5220 -0.0478
C21A C 1.0145(13) 0.8266(11) -0.2433(7)
C22A C 0.9861(9) 0.7407(9) -0.2411(6)
C23A C 0.8867(12) 0.7349(11) -0.2234(6)
H20A H 0.8645 0.6795 -0.2203
C24A C 0.8219(12) 0.8086(12) -0.2105(7)
H21A H 0.7566 0.8043 -0.1998
C25A C 0.8558(14) 0.8856(12) -0.2138(8)
C26A C 0.9499(14) 0.8988(10) -0.2272(7)
H22A H 0.9697 0.9533 -0.2256
N1A N 0.9391(9) 0.4784(7) -0.3670(5)
N2A N 0.8949(8) 0.4000(7) -0.3482(5)
N3A N 0.9675(11) 0.4004(9) -0.4395(6)
N4A N 0.9375(7) 0.2897(7) -0.1291(5)
N5A N 0.9809(8) 0.3548(7) -0.1178(5)
N6A N 1.0077(9) 0.2210(8) -0.0472(6)
N7A N 1.0867(9) 0.6105(8) -0.1472(5)
N8A N 1.0288(8) 0.5437(9) -0.1262(5)
N9A N 1.0241(11) 0.6219(10) -0.0558(6)
N10A N 0.9748(10) 0.7931(8) -0.4478(6)
N11A N 0.9807(8) 0.6624(7) -0.3711(5)
N12A N 1.0450(8) 0.7174(8) -0.3667(5)
O1A O 0.8207(7) 0.5356(7) -0.1470(5)
O2A O 0.6386(10) 0.5070(9) -0.1505(6)
O4A O 0.7357(10) 0.3958(8) -0.0623(6)
O6A O 0.5433(10) 0.4179(8) -0.2104(5)
O7A O 1.1730(10) 0.4139(11) -0.1858(7)
O8A O 0.5915(9) 0.3362(7) -0.0935(5)
O9A O 0.7928(9) 0.5986(9) -0.2877(6)
O10A O 0.7295(9) 0.2052(8) -0.0365(7)
O11A O 0.6876(8) 0.3030(9) 0.0523(5)
O12A O 0.5472(8) 0.2458(9) 0.0175(5)
O13A O 0.6889(9) 0.2810(8) 0.1755(5)
O14A O 0.5231(8) 0.2852(10) 0.1252(5)
O15A O 0.4092(9) 0.1672(8) 0.1050(5)
O16A O 0.3660(10) 0.3136(8) 0.0073(6)
O17A O 0.2181(7) 0.3881(7) -0.0645(5)
O19A O 0.5777(12) 0.4549(11) -0.0458(8)
O20A O 0.5403(11) 0.3940(10) 0.0274(7)
O21A O 0.4422(11) 0.5085(10) -0.0602(7)
O22A O 0.4615(11) 0.5690(8) -0.1628(8)
O23A O 0.4086(10) 0.4028(8) -0.1081(8)
O24A O 0.7529(11) 0.5371(10) -0.0265(6)
O25A O 0.7064(11) 0.4479(8) 0.0884(9)
O26A O 0.6566(10) 0.6501(10) -0.1141(6)
O49A O 1.0120(6) 0.5814(6) -0.2496(4)
O50A O 0.9561(6) 0.4354(5) -0.2422(4)
O18? O 0.4137(12) 0.4394(11) 0.0266(8)
O39? O 0.4005(12) 0.5146(11) 0.4716(7)
O42? O 0.4731(12) 0.4201(10) 0.4833(7)
loop_
_geom_bond_atom_site_label_1
_geom_bond_atom_site_label_2
_geom_bond_site_symmetry_1
_geom_bond_site_symmetry_2
Si1 O19 1_555 1_555
Si2 O40 1_555 1_555
Cu1 N5 1_555 1_555
Cu2 N1 1_555 1_555
Cu3 N13 1_555 1_555
Cu4 N20 1_555 1_555
W1 O30 1_555 1_555
W2 O12 1_555 1_555
W3 O16 1_555 1_555
W4 O37 1_555 1_555
W5 O11 1_555 1_555
W6 O1 1_555 1_555
W7 O35 1_555 1_555
W8 O4 1_555 1_555
W9 O2 1_555 1_555
W10 O27 1_555 1_555
W11 O28 1_555 1_555
W12 O32 1_555 1_555
F1 C9 1_555 1_555
F2 C11 1_555 1_555
F3 C25 1_555 1_555
F4 C21 1_555 1_555
F5 C36 1_555 1_555
F6 C34 1_555 1_555
F7 C47 1_555 1_555
F8 C51 1_555 1_555
C1 H1 1_555 1_555
C2 H2 1_555 1_555
C3 H3 1_555 1_555
H4 C3 1_555 1_555
C4 C3 1_555 1_555
C5 C4 1_555 1_555
H5 C5 1_555 1_555
H6 C5 1_555 1_555
C6 H7 1_555 1_555
C7 H8 1_555 1_555
C8 C4 1_555 1_555
C9 C8 1_555 1_555
C10 C9 1_555 1_555
H9 C10 1_555 1_555
C11 C10 1_555 1_555
C12 C11 1_555 1_555
H10 C12 1_555 1_555
C13 C8 1_555 1_555
H11 C13 1_555 1_555
C14 H12 1_555 1_555
C15 H13 1_555 1_555
C16 H14 1_555 1_555
H15 C16 1_555 1_555
C17 C16 1_555 1_555
C18 C17 1_555 1_555
H16 C18 1_555 1_555
H17 C18 1_555 1_555
C19 H18 1_555 1_555
C20 H19 1_555 1_555
C21 C22 1_555 1_555
C22 C17 1_555 1_555
C23 C22 1_555 1_555
H20 C23 1_555 1_555
C24 C23 1_555 1_555
H21 C24 1_555 1_555
C25 C24 1_555 1_555
C26 C21 1_555 1_555
H22 C26 1_555 1_555
C27 H23 1_555 1_555
C28 H24 1_555 1_555
C29 H25 1_555 1_555
C30 H26 1_555 1_555
C31 H27 1_555 1_555
H28 C31 1_555 1_555
C32 C31 1_555 1_555
C33 C32 1_555 1_555
H29 C33 1_555 1_555
H30 C33 1_555 1_555
C34 C35 1_555 1_555
C35 H31 1_555 1_555
C36 C35 1_555 1_555
C37 C36 1_555 1_555
H32 C37 1_555 1_555
C38 C37 1_555 1_555
H33 C38 1_555 1_555
C39 C32 1_555 1_555
C40 H34 1_555 1_555
C41 H35 1_555 1_555
C42 H36 1_555 1_555
C43 H37 1_555 1_555
C44 H38 1_555 1_555
H39 C44 1_555 1_555
C45 C44 1_555 1_555
C46 C45 1_555 1_555
H40 C46 1_555 1_555
H41 C46 1_555 1_555
C47 C48 1_555 1_555
C48 C45 1_555 1_555
C49 C48 1_555 1_555
H42 C49 1_555 1_555
C50 C49 1_555 1_555
H43 C50 1_555 1_555
C51 C50 1_555 1_555
C52 C47 1_555 1_555
H44 C52 1_555 1_555
N1 C1 1_555 1_555
N2 C2 1_555 1_555
N3 C1 1_555 1_555
N4 C5 1_555 1_555
N5 C6 1_555 1_555
N6 C6 1_555 1_555
N7 C18 1_555 1_555
N8 Cu1 1_555 1_555
N9 C19 1_555 1_555
N10 C14 1_555 1_555
N11 Cu2 1_555 1_555
N12 C14 1_555 1_555
N13 C28 1_555 1_555
N14 C27 1_555 1_555
N15 C27 1_555 1_555
N16 Cu3 1_555 1_555
N17 C30 1_555 1_555
N18 C29 1_555 1_555
N19 C42 1_555 1_555
N20 C43 1_555 1_555
N21 C42 1_555 1_555
N22 Cu4 1_555 1_555
N23 C40 1_555 1_555
N24 C41 1_555 1_555
O1 Cu1 1_555 1_555
O2 W6 1_555 1_555
O4 W6 1_555 1_555
O6 W9 1_555 1_555
O7 Cu1 1_555 1_555
O8 W8 1_555 1_555
O9 Cu2 1_555 1_555
O10 W8 1_555 1_555
O11 W8 1_555 1_555
O12 W8 1_555 1_555
O13 W5 1_555 1_555
O14 W2 1_555 1_555
O15 W2 1_555 1_555
O16 W2 1_555 1_555
O17 W3 1_555 1_555
O19 W6 1_555 1_555
O20 Si1 1_555 1_555
O21 Si1 1_555 1_555
O22 W9 1_555 1_555
O23 W3 1_555 1_555
O24 W6 1_555 1_555
O25 W5 1_555 1_555
O26 W6 1_555 1_555
O29 W10 1_555 1_555
O30 W10 1_555 1_555
O31 W1 1_555 1_555
O32 W11 1_555 1_555
O33 W12 1_555 1_555
O34 W1 1_555 1_555
O35 W1 1_555 1_555
O36 W7 1_555 1_555
O37 W7A 1_555 1_555
O38 Cu3 1_555 1_555
O40 W4 1_555 1_555
O41 W4 1_555 1_555
O43 Si2 1_555 1_555
O44 W10 1_555 1_555
O45 W4 1_555 1_555
O46 W12 1_555 1_555
O47 W4 1_555 1_555
O48 W11 1_555 1_555
O49 Cu1 1_555 1_555
O50 Cu1 1_555 1_555
O51 Cu4 1_555 1_555
O52 Cu3 1_555 1_555
Cu1A N5A 1_555 1_555
Cu2A N1A 1_555 1_555
Cu3A O52 1_555 1_555
Cu3A_2 O38A 1_555 1_555
Cu4A O51 1_555 1_555
W1A O41 1_555 1_555
W2A O26 1_555 1_555
W3A O24 1_555 1_555
W4A O37A 1_555 1_555
W5A O21 1_555 1_555
W6A O1A 1_555 1_555
W7A O46 1_555 1_555
W8A O4A 1_555 1_555
W9A O2A 1_555 1_555
W10A O27A 1_555 1_555
W11A O43 1_555 1_555
W12A O44 1_555 1_555
F1A C9A 1_555 1_555
F2A C11A 1_555 1_555
F3A C25A 1_555 1_555
F4A C21A 1_555 1_555
F5A C36A 1_555 1_555
F6A C34A 1_555 1_555
F7A C47A 1_555 1_555
F8A C51A 1_555 1_555
C1A H1A 1_555 1_555
C2A H2A 1_555 1_555
C3A H3A 1_555 1_555
H4A C3A 1_555 1_555
C4A C3A 1_555 1_555
C5A C4A 1_555 1_555
H5A C5A 1_555 1_555
H6A C5A 1_555 1_555
C6A H7A 1_555 1_555
C7A H8A 1_555 1_555
C8A C4A 1_555 1_555
C9A C8A 1_555 1_555
C10A C9A 1_555 1_555
H9A C10A 1_555 1_555
C11A C10A 1_555 1_555
C12A C11A 1_555 1_555
H10A C12A 1_555 1_555
C13A C8A 1_555 1_555
H11A C13A 1_555 1_555
C14A H12A 1_555 1_555
C15A H13A 1_555 1_555
C16A H14A 1_555 1_555
H15A C16A 1_555 1_555
C17A C16A 1_555 1_555
C18A C17A 1_555 1_555
C19A H18A 1_555 1_555
C20A H19A 1_555 1_555
C21A C22A 1_555 1_555
C22A C17A 1_555 1_555
C23A C22A 1_555 1_555
H20A C23A 1_555 1_555
C24A C23A 1_555 1_555
H21A C24A 1_555 1_555
C25A C24A 1_555 1_555
C26A C21A 1_555 1_555
H22A C26A 1_555 1_555
C27A H23A 1_555 1_555
C28A H24A 1_555 1_555
C29A N16A 1_555 1_555
C30A N18 1_555 1_555
C31A H27A 1_555 1_555
H28A C31A 1_555 1_555
C32A O52 1_555 1_555
C33A C32A 1_555 1_555
H29A C33A 1_555 1_555
H30A C33A 1_555 1_555
C34A C35A 1_555 1_555
C35A H31A 1_555 1_555
C36A C35A 1_555 1_555
C37A C36A 1_555 1_555
H32A C37A 1_555 1_555
C38A C37A 1_555 1_555
H33A C38A 1_555 1_555
C39A C32A 1_555 1_555
C40A N24 1_555 1_555
C42A H36A 1_555 1_555
C43A H37A 1_555 1_555
C44A H38A 1_555 1_555
H39A C44A 1_555 1_555
C45A C44A 1_555 1_555
C46A C45A 1_555 1_555
H40A C46A 1_555 1_555
H41A C46A 1_555 1_555
C47A C48A 1_555 1_555
C48A C45A 1_555 1_555
C49A C48A 1_555 1_555
H42A C49A 1_555 1_555
C50A C49A 1_555 1_555
H43A C50A 1_555 1_555
C51A C50A 1_555 1_555
C52A C47A 1_555 1_555
H44A C52A 1_555 1_555
N1A C1A 1_555 1_555
N2A C2A 1_555 1_555
N3A C1A 1_555 1_555
N4A C5A 1_555 1_555
N5A C6A 1_555 1_555
N6A C6A 1_555 1_555
N7A C18A 1_555 1_555
N8A Cu1A 1_555 1_555
N9A C19A 1_555 1_555
N10A C14A 1_555 1_555
N11A Cu2A 1_555 1_555
N12A C14A 1_555 1_555
N13A Cu3A 1_555 1_555
N14A C27A 1_555 1_555
N15A C27A 1_555 1_555
N16A N17 1_555 1_555
N17A N16 1_555 1_555
N18A C30 1_555 1_555
N19A C42A 1_555 1_555
N20A Cu4A 1_555 1_555
N21A C42A 1_555 1_555
N22A N23 1_555 1_555
N23A N22 1_555 1_555
N24A C40 1_555 1_555
O1A Cu1A 1_555 1_555
O2A W6A 1_555 1_555
O4A W6A 1_555 1_555
O6A W9A 1_555 1_555
O7A Cu1A 1_555 1_555
O8A W8A 1_555 1_555
O9A Cu2A 1_555 1_555
O10A W8A 1_555 1_555
O11A W5A 1_555 1_555
O12A W2A 1_555 1_555
O13A W5A 1_555 1_555
O14A W2A 1_555 1_555
O15A W2A 1_555 1_555
O16A W2A 1_555 1_555
O17A W3A 1_555 1_555
O19A Si1 1_555 1_555
O20A Si1 1_555 1_555
O21A Si1 1_555 1_555
O22A W5 1_555 1_555
O23A W3A 1_555 1_555
O24A W3 1_555 1_555
O25A W3 1_555 1_555
O26A W2 1_555 1_555
O28A W11A 1_555 1_555
O29A W10A 1_555 1_555
O30A W1A 1_555 1_555
O31A W1A 1_555 1_555
O32A W11A 1_555 1_555
O33A W12A 1_555 1_555
O34A W1A 1_555 1_555
O35A W1A 1_555 1_555
O36A W7A 1_555 1_555
O37A W7 1_555 1_555
O38A W4A 1_555 1_555
O38A_2 Cu3A 1_555 1_555
O40A Si2 1_555 1_555
O41A W1 1_555 1_555
O43A Si2 1_555 1_555
O44A W12 1_555 1_555
O45A W4A 1_555 1_555
O46A W7 1_555 1_555
O47A W12 1_555 1_555
O48A W7 1_555 1_555
O49A Cu1A 1_555 1_555
O50A Cu1A 1_555 1_555
O51A Cu4 1_555 1_555
O52A Cu3 1_555 1_555
Cu2 O49 1_555 1_555
Cu2 O50 1_555 1_555
W2 O20 1_555 1_555
W3 O21 1_555 1_555
W4 O38 1_555 1_555
W5 O14 1_555 1_555
W5 O21A 1_555 1_555
W7 O43 1_555 1_555
W8 O19 1_555 1_555
W8 O20 1_555 1_555
W9 O8 1_555 1_555
W9 O21 1_555 1_555
W9 O23 1_555 1_555
W10 O40 1_555 1_555
W10 O45 1_555 1_555
W11 O29 1_555 1_555
W11 O31 1_555 1_555
W11 O43A 1_555 1_555
C2 N3 1_555 1_555
C3 N2 1_555 1_555
C4 O50 1_555 1_555
C7 N4 1_555 1_555
C7 N6 1_555 1_555
C12 C13 1_555 1_555
C15 N10 1_555 1_555
C15 N11 1_555 1_555
C16 N12 1_555 1_555
C17 O49 1_555 1_555
C19 N7 1_555 1_555
C20 N8 1_555 1_555
C20 N9 1_555 1_555
C25 C26 1_555 1_555
C28 N15 1_555 1_555
C29 N16 1_555 1_555
C31 N17 1_555 1_555
C32 O52A 1_555 1_555
C33 N14 1_555 1_555
C34 C39 1_555 1_555
C38 C39 1_555 1_555
C41 N22 1_555 1_555
C43 N21 1_555 1_555
C44 N19 1_555 1_555
C45 O51 1_555 1_555
C46 N23 1_555 1_555
C51 C52 1_555 1_555
N1 N2 1_555 1_555
N4 N5 1_555 1_555
N7 N8 1_555 1_555
N11 N12 1_555 1_555
N13 N14 1_555 1_555
N19 N20 1_555 1_555
O19 O20 1_555 1_555
O22 W5A 1_555 1_555
O25 W3A 1_555 1_555
O47 W12A 1_555 1_555
O48 W7A 1_555 1_555
Cu2A O49A 1_555 1_555
Cu2A O50A 1_555 1_555
Cu3A N16A 1_555 1_555
Cu3A O52A 1_555 1_555
Cu4A N22A 1_555 1_555
Cu4A O51A 1_555 1_555
W2A O20A 1_555 1_555
W3A O16A 1_555 1_555
W3A O21A 1_555 1_555
W4A O40A 1_555 1_555
W4A O41A 1_555 1_555
W4A O47A 1_555 1_555
W5A O14A 1_555 1_555
W5A O25A 1_555 1_555
W6A O19A 1_555 1_555
W6A O24A 1_555 1_555
W6A O26A 1_555 1_555
W7A O35A 1_555 1_555
W7A O43A 1_555 1_555
W8A O11A 1_555 1_555
W8A O12A 1_555 1_555
W8A O19A 1_555 1_555
W8A O20A 1_555 1_555
W9A O8A 1_555 1_555
W9A O21A 1_555 1_555
W9A O22A 1_555 1_555
W9A O23A 1_555 1_555
W10A O30A 1_555 1_555
W10A O40A 1_555 1_555
W10A O44A 1_555 1_555
W10A O45A 1_555 1_555
W11A O29A 1_555 1_555
W11A O31A 1_555 1_555
W11A O48A 1_555 1_555
W12A O32A 1_555 1_555
W12A O46A 1_555 1_555
C2A N3A 1_555 1_555
C3A N2A 1_555 1_555
C4A O50A 1_555 1_555
C7A N4A 1_555 1_555
C7A N6A 1_555 1_555
C12A C13A 1_555 1_555
C15A N10A 1_555 1_555
C15A N11A 1_555 1_555
C16A N12A 1_555 1_555
C17A O49A 1_555 1_555
C19A N7A 1_555 1_555
C20A N8A 1_555 1_555
C20A N9A 1_555 1_555
C25A C26A 1_555 1_555
C28A N13A 1_555 1_555
C28A N15A 1_555 1_555
C29A N18A 1_555 1_555
C30A N17A 1_555 1_555
C31A C32A 1_555 1_555
C31A N17A 1_555 1_555
C33A N14A 1_555 1_555
C34A C39A 1_555 1_555
C38A C39A 1_555 1_555
C40A N23A 1_555 1_555
C43A N20A 1_555 1_555
C43A N21A 1_555 1_555
C44A N19A 1_555 1_555
C45A O51A 1_555 1_555
C46A N23A 1_555 1_555
C51A C52A 1_555 1_555
N1A N2A 1_555 1_555
N4A N5A 1_555 1_555
N7A N8A 1_555 1_555
N11A N12A 1_555 1_555
N13A N14A 1_555 1_555
N19A N20A 1_555 1_555
O19A O20A 1_555 1_555

#END
