
#######################################################################
#
#                 Cambridge Crystallographic Data Centre
#                                CCDC 
#
#######################################################################
#
# If this CIF has been generated from an entry in the Cambridge 
# Structural Database, then it will include bibliographic, chemical, 
# crystal, experimental, refinement or atomic coordinate data resulting 
# from the CCDC's data processing and validation procedures.
#
#######################################################################

data_XIZJIZ
_symmetry_cell_setting           monoclinic
_symmetry_space_group_name_H-M   'P 21/c'
_symmetry_Int_Tables_number      14
_space_group_name_Hall           '-P 2ybc'
loop_
_symmetry_equiv_pos_site_id
_symmetry_equiv_pos_as_xyz
1 x,y,z
2 -x,1/2+y,1/2-z
3 -x,-y,-z
4 x,1/2-y,1/2+z
_cell_length_a                   8.0650(5)
_cell_length_b                   16.2966(11)
_cell_length_c                   17.0513(11)
_cell_angle_alpha                90.00
_cell_angle_beta                 96.631(1)
_cell_angle_gamma                90.00
_cell_volume                     2226.1
loop_
_atom_site_label
_atom_site_type_symbol
_atom_site_fract_x
_atom_site_fract_y
_atom_site_fract_z
Ag1 Ag -0.77643(3) 0.424180(15) -0.195540(15)
N1 N -0.7688(3) 0.28043(16) -0.23019(16)
C1 C -0.7072(4) 0.22299(19) -0.17891(18)
C2 C -0.7029(5) 0.1414(2) -0.1999(2)
H1 H -0.6557 0.1028 -0.1620
N2 N -0.7631(5) 0.1148(2) -0.27169(19)
C3 C -0.8275(5) 0.1721(2) -0.3216(2)
H2 H -0.8747 0.1559 -0.3729
C4 C -0.8285(5) 0.2545(2) -0.3020(2)
H3 H -0.8727 0.2933 -0.3405
C5 C -0.6411(4) 0.24978(19) -0.09861(19)
N3 N -0.6001(3) 0.19106(16) -0.04453(16)
N4 N -0.5343(3) 0.21391(16) 0.02651(16)
C6 C -0.5120(4) 0.29493(19) 0.03822(18)
N5 N -0.5613(3) 0.35369(16) -0.01394(16)
N6 N -0.6290(3) 0.33044(16) -0.08489(15)
C7 C -0.4245(4) 0.3240(2) 0.11437(19)
N7 N -0.3980(4) 0.27007(17) 0.17360(17)
C8 C -0.3135(5) 0.2983(2) 0.2396(2)
H4 H -0.2906 0.2619 0.2830
C9 C -0.2575(5) 0.3783(2) 0.2476(2)
H5 H -0.1969 0.3952 0.2960
N8 N -0.7136(4) 0.56750(18) -0.18896(16)
C10 C -0.3694(4) 0.4041(2) 0.12170(19)
H6 H -0.3909 0.4401 0.0779
N9 N 0.0837(4) 0.56500(17) 0.20328(17)
C11 C 0.1691(4) 0.54946(19) 0.1424(2)
C12 C 0.3416(5) 0.5560(2) 0.1492(2)
H7 H 0.3971 0.5466 0.1039
N10 N 0.4325(4) 0.57519(19) 0.21731(19)
C13 C 0.3471(5) 0.5882(2) 0.2784(2)
H8 H 0.4063 0.6006 0.3284
C14 C 0.1754(5) 0.5840(2) 0.2714(2)
H9 H 0.1200 0.5951 0.3165
C15 C 0.0769(4) 0.52342(18) 0.0664(2)
N11 N 0.1686(4) 0.49612(18) 0.01115(17)
N12 N 0.0899(4) 0.47224(17) -0.05758(17)
C9B C -0.7425(5) 0.6217(2) -0.2476(2)
C8B C -0.6865(5) 0.7017(2) -0.2396(2)
N7B N -0.6020(4) 0.72993(17) -0.17360(17)
C7B C -0.5755(4) 0.6760(2) -0.11437(19)
C6B C -0.4880(4) 0.70507(19) -0.03822(18)
N4B N -0.4657(3) 0.78609(16) -0.02651(16)
N3B N -0.3999(3) 0.80894(16) 0.04453(16)
C5B C -0.3589(4) 0.75022(19) 0.09861(19)
C1B C -0.2928(4) 0.77701(19) 0.17891(18)
N1B N -0.2312(3) 0.71957(16) 0.23019(16)
Ag1B Ag -0.22357(3) 0.575820(15) 0.195540(15)
N6B N -0.3710(3) 0.66956(16) 0.08489(15)
N5B N -0.4387(3) 0.64631(16) 0.01394(16)
N8B N -0.2864(4) 0.43250(18) 0.18896(16)
N9B N -1.0837(4) 0.43500(17) -0.20328(17)
C15B C -0.0769(4) 0.47658(18) -0.0664(2)
C11B C -0.1691(4) 0.45054(19) -0.1424(2)
N9B_2 N -0.0837(4) 0.43500(17) -0.20328(17)
Ag1_2 Ag 0.22357(3) 0.424180(15) -0.195540(15)
C14B C -0.1754(5) 0.4160(2) -0.2714(2)
C13B C -0.3471(5) 0.4118(2) -0.2784(2)
N10B N -0.4325(4) 0.42481(19) -0.21731(19)
C12B C -0.3416(5) 0.4440(2) -0.1492(2)
H7B H -0.3971 0.4534 -0.1039
H8B H -0.4063 0.3994 -0.3284
H9B H -0.1200 0.4049 -0.3165
N11B N -0.1686(4) 0.50388(18) -0.01115(17)
N12B N -0.0899(4) 0.52776(17) 0.05758(17)
C4B C -0.1715(5) 0.7455(2) 0.3020(2)
C3B C -0.1725(5) 0.8279(2) 0.3216(2)
N2B N -0.2369(5) 0.8852(2) 0.27169(19)
C2B C -0.2971(5) 0.8586(2) 0.1999(2)
H1B H -0.3443 0.8972 0.1620
H2B H -0.1253 0.8441 0.3729
H3B H -0.1273 0.7067 0.3405
C10B C -0.6306(4) 0.5959(2) -0.12170(19)
H6B H -0.6091 0.5599 -0.0779
H4B H -0.7094 0.7381 -0.2830
H5B H -0.8031 0.6048 -0.2960
N13 N -0.8166(5) 0.4509(2) -0.3577(2)
C16 C -0.7836(5) 0.4711(2) -0.4175(3)
C17 C -0.7427(6) 0.4980(3) -0.4939(3)
H10 H -0.8458 0.5081 -0.5289
H11 H -0.6773 0.4554 -0.5168
H12 H -0.6772 0.5487 -0.4876
P1 P -1.08112(11) 0.26918(5) -0.53052(5)
F1 F -1.1307(3) 0.30956(14) -0.45168(12)
F2 F -1.0318(3) 0.22820(15) -0.60933(13)
F3 F -1.2589(3) 0.2925(3) -0.57366(14)
F4 F -1.0101(4) 0.35344(14) -0.55795(16)
F5 F -0.9031(3) 0.24693(19) -0.48765(14)
F6 F -1.1515(4) 0.18485(16) -0.50314(18)
loop_
_geom_bond_atom_site_label_1
_geom_bond_atom_site_label_2
_geom_bond_site_symmetry_1
_geom_bond_site_symmetry_2
Ag1 N1 1_555 1_555
N1 C1 1_555 1_555
C1 C2 1_555 1_555
C2 H1 1_555 1_555
N2 C2 1_555 1_555
C3 N2 1_555 1_555
H2 C3 1_555 1_555
C4 N1 1_555 1_555
H3 C4 1_555 1_555
C5 C1 1_555 1_555
N3 C5 1_555 1_555
N4 N3 1_555 1_555
C6 N4 1_555 1_555
N5 C6 1_555 1_555
N6 Ag1 1_555 1_555
C7 C6 1_555 1_555
N7 C7 1_555 1_555
C8 N7 1_555 1_555
H4 C8 1_555 1_555
C9 C8 1_555 1_555
H5 C9 1_555 1_555
N8 Ag1 1_555 1_555
C10 C7 1_555 1_555
H6 C10 1_555 1_555
N9 C11 1_555 1_555
C11 C12 1_555 1_555
C12 H7 1_555 1_555
N10 C12 1_555 1_555
C13 N10 1_555 1_555
H8 C13 1_555 1_555
C14 N9 1_555 1_555
H9 C14 1_555 1_555
C15 C11 1_555 1_555
N11 C15 1_555 1_555
N12 N11 1_555 1_555
N13 C16 1_555 1_555
C16 C17 1_555 1_555
C17 H10 1_555 1_555
H11 C17 1_555 1_555
H12 C17 1_555 1_555
P1 F1 1_555 1_555
F2 P1 1_555 1_555
F3 P1 1_555 1_555
F4 P1 1_555 1_555
F5 P1 1_555 1_555
F6 P1 1_555 1_555
C9B N8 1_555 1_555
C8B C9B 1_555 1_555
N7B C8B 1_555 1_555
C7B N7B 1_555 1_555
C6B C7B 1_555 1_555
N4B C6B 1_555 1_555
N3B N4B 1_555 1_555
C5B N3B 1_555 1_555
C1B C5B 1_555 1_555
N1B C1B 1_555 1_555
Ag1B N9 1_555 1_555
N6B C5B 1_555 1_555
N5B C6B 1_555 1_555
N8B C9 1_555 1_555
N9B Ag1 1_555 1_555
C15B N12 1_555 1_555
C11B C15B 1_555 1_555
N9B_2 C11B 1_555 1_555
Ag1_2 N9B_2 1_555 1_555
C14B N9B_2 1_555 1_555
C13B C14B 1_555 1_555
N10B C13B 1_555 1_555
C12B C11B 1_555 1_555
H7B C12B 1_555 1_555
H8B C13B 1_555 1_555
H9B C14B 1_555 1_555
N11B C15B 1_555 1_555
N12B C15 1_555 1_555
C4B N1B 1_555 1_555
C3B C4B 1_555 1_555
N2B C3B 1_555 1_555
C2B C1B 1_555 1_555
H1B C2B 1_555 1_555
H2B C3B 1_555 1_555
H3B C4B 1_555 1_555
C10B N8 1_555 1_555
H6B C10B 1_555 1_555
H4B C8B 1_555 1_555
H5B C9B 1_555 1_555
C3 C4 1_555 1_555
C5 N6 1_555 1_555
N5 N6 1_555 1_555
C10 N8B 1_555 1_555
C13 C14 1_555 1_555
C7B C10B 1_555 1_555
N1B Ag1B 1_555 1_555
Ag1B N6B 1_555 1_555
Ag1B N8B 1_555 1_555
N6B N5B 1_555 1_555
N10B C12B 1_555 1_555
N11B N12B 1_555 1_555
N2B C2B 1_555 1_555

#END
