
#######################################################################
#
#                 Cambridge Crystallographic Data Centre
#                                CCDC 
#
#######################################################################
#
# If this CIF has been generated from an entry in the Cambridge 
# Structural Database, then it will include bibliographic, chemical, 
# crystal, experimental, refinement or atomic coordinate data resulting 
# from the CCDC's data processing and validation procedures.
#
#######################################################################

data_XIZJOG
_symmetry_cell_setting           triclinic
_symmetry_space_group_name_H-M   'P -1'
_symmetry_Int_Tables_number      2
_space_group_name_Hall           '-P 1'
loop_
_symmetry_equiv_pos_site_id
_symmetry_equiv_pos_as_xyz
1 x,y,z
2 -x,-y,-z
_cell_length_a                   11.4060(5)
_cell_length_b                   14.0900(5)
_cell_length_c                   16.6140(6)
_cell_angle_alpha                72.8840(10)
_cell_angle_beta                 74.2210(10)
_cell_angle_gamma                76.0090(10)
_cell_volume                     2417.36
loop_
_atom_site_label
_atom_site_type_symbol
_atom_site_fract_x
_atom_site_fract_y
_atom_site_fract_z
Cu2 Cu 0.38349(9) -0.02079(7) 0.48923(7)
C14 C 0.4216(9) 0.4158(6) 0.2732(6)
C15 C 0.3609(11) 0.4442(7) 0.3463(6)
H12 H 0.3268 0.5112 0.3464
C16 C 0.3524(10) 0.3680(7) 0.4209(6)
C17 C 0.4025(7) 0.2672(5) 0.4253(5)
C18 C 0.4614(9) 0.2457(6) 0.3475(5)
H13 H 0.4959 0.1790 0.3463
C19 C 0.4718(10) 0.3192(7) 0.2705(6)
H14 H 0.5120 0.3025 0.2184
C20 C 0.3875(7) 0.1847(6) 0.5106(5)
C21 C 0.2502(7) 0.1791(7) 0.5508(5)
H15 H 0.2433 0.1262 0.6037
H16 H 0.2078 0.2425 0.5650
C22 C 0.0985(9) 0.2127(8) 0.4558(7)
H17 H 0.0544 0.2738 0.4672
C23 C 0.1606(8) 0.0845(7) 0.4078(6)
H18 H 0.1681 0.0374 0.3767
C24 C 0.2407(9) -0.1786(8) 0.4922(7)
H19 H 0.1629 -0.1445 0.5131
C25 C 0.6195(10) 0.2916(8) 0.5487(7)
H20 H 0.5768 0.3517 0.5629
C26 C 0.4361(7) 0.2077(6) 0.5787(5)
H21 H 0.3876 0.2700 0.5922
H22 H 0.4252 0.1542 0.6310
N1 N 0.2332(6) 0.0734(6) 0.4613(5)
N2 N 0.1916(6) 0.1584(5) 0.4904(4)
N3 N 0.0757(8) 0.1687(7) 0.4023(6)
N4 N 0.3437(7) -0.1419(5) 0.4753(5)
N5 N 0.5670(7) 0.2174(5) 0.5507(4)
N6 N 0.2589(9) -0.2695(7) 0.4762(6)
O3 O 0.2976(7) -0.0493(5) 0.6466(4)
O29 O 0.4512(5) 0.0898(4) 0.4968(3)
F1 F 0.4291(6) 0.4891(4) 0.1978(3)
F2 F 0.2882(9) 0.3955(5) 0.4953(4)
Cu2A Cu 0.61651(9) 0.02079(7) 0.51077(7)
C14A C 0.5784(9) -0.4158(6) 0.7268(6)
C15A C 0.6391(11) -0.4442(7) 0.6537(6)
H12A H 0.6732 -0.5112 0.6536
C16A C 0.6476(10) -0.3680(7) 0.5791(6)
C17A C 0.5975(7) -0.2672(5) 0.5747(5)
C18A C 0.5386(9) -0.2457(6) 0.6525(5)
H13A H 0.5041 -0.1790 0.6537
C19A C 0.5282(10) -0.3192(7) 0.7295(6)
H14A H 0.4880 -0.3025 0.7816
C20A C 0.6125(7) -0.1847(6) 0.4894(5)
C21A C 0.7498(7) -0.1791(7) 0.4492(5)
H15A H 0.7567 -0.1262 0.3963
H16A H 0.7922 -0.2425 0.4350
C22A C 0.9015(9) -0.2127(8) 0.5442(7)
H17A H 0.9456 -0.2738 0.5328
C23A C 0.8394(8) -0.0845(7) 0.5922(6)
H18A H 0.8319 -0.0374 0.6233
C24A C 0.7593(9) 0.1786(8) 0.5078(7)
H19A H 0.8371 0.1445 0.4869
C25A C 0.3805(10) -0.2916(8) 0.4513(7)
H20A H 0.4232 -0.3517 0.4371
C26A C 0.5639(7) -0.2077(6) 0.4213(5)
H21A H 0.6124 -0.2700 0.4078
H22A H 0.5748 -0.1542 0.3690
N1A N 0.7668(6) -0.0734(6) 0.5387(5)
N2A N 0.8084(6) -0.1584(5) 0.5096(4)
N3A N 0.9243(8) -0.1687(7) 0.5977(6)
N4A N 0.6563(7) 0.1419(5) 0.5247(5)
N5A N 0.4330(7) -0.2174(5) 0.4493(4)
N6A N 0.7411(9) 0.2695(7) 0.5238(6)
O3A O 0.7024(7) 0.0493(5) 0.3534(4)
O29A O 0.5488(5) -0.0898(4) 0.5032(3)
F1A F 0.5709(6) -0.4891(4) 0.8022(3)
F2A F 0.7118(9) -0.3955(5) 0.5047(4)
O5 O 0.3127(7) 0.5131(6) 0.9518(5)
O7 O 0.7900(15) 0.7487(12) 0.2692(10)
O9 O 0.1010(18) 0.6593(14) 0.3988(12)
O11 O -0.013(2) 0.8268(16) 0.2977(14)
Cu1 Cu 0.04286(8) 0.59770(6) 0.98822(5)
Mo1 Mo -0.43789(7) 1.20823(6) 0.82201(4)
Mo2 Mo -0.21106(8) 0.98818(6) 0.85475(6)
Mo3 Mo -0.76277(8) 0.98495(7) 0.93551(8)
Mo4 Mo -0.47513(10) 0.98252(6) 0.78926(4)
Mo5 Mo -0.52940(7) 0.77189(6) 0.96513(5)
Mo6 Mo -0.27074(7) 0.78778(6) 1.03432(5)
Si1 Si -0.5000 1.0000 1.0000
C1 C -0.2794(10) 0.5020(8) 1.3461(7)
C2 C -0.1667(11) 0.4732(8) 1.3703(6)
H1 H -0.1614 0.4661 1.4267
C3 C -0.0641(9) 0.4555(6) 1.3085(5)
C4 C -0.0666(7) 0.4692(5) 1.2219(5)
C5 C -0.1826(7) 0.5013(6) 1.2023(6)
H2 H -0.1883 0.5120 1.1454
C6 C -0.2903(9) 0.5182(7) 1.2631(6)
H3 H -0.3670 0.5397 1.2481
C7 C 0.0471(7) 0.4398(5) 1.1542(4)
C8 C 0.0834(7) 0.3234(5) 1.1754(5)
H4 H 0.1115 0.2997 1.2292
H5 H 0.1512 0.3038 1.1302
C9 C -0.0818(8) 0.2191(6) 1.2511(5)
H6 H -0.0603 0.1971 1.3045
C10 C 0.1700(7) 0.7568(6) 0.8494(5)
H7 H 0.2250 0.7597 0.8806
C11 C 0.1356(10) 0.6467(7) 1.1885(6)
H8 H 0.1576 0.6218 1.2418
C12 C 0.0772(8) 0.7419(6) 1.0800(6)
H9 H 0.0485 0.8003 1.0416
C13 C 0.1627(7) 0.4792(6) 1.1512(5)
H10 H 0.2288 0.4609 1.1046
H11 H 0.1902 0.4483 1.2049
N7 N 0.0983(6) 0.6510(4) 1.0660(4)
N8 N 0.1356(6) 0.5893(5) 1.1379(4)
N9 N 0.1008(9) 0.7423(6) 1.1547(5)
N10 N 0.0769(6) 0.7059(4) 0.8836(4)
N11 N -0.0210(6) 0.2768(4) 1.1828(4)
N12 N 0.1775(7) 0.8037(5) 0.7655(5)
O1 O -0.3072(7) 0.9597(5) 0.7901(6)
O2 O -0.4669(9) 0.9744(6) 0.6898(4)
O4 O -0.5481(7) 0.6672(4) 0.9490(4)
O6 O -0.4774(6) 0.8436(5) 0.8500(5)
O8 O -0.6489(7) 1.0046(5) 0.8277(6)
O10 O -0.6901(6) 0.8487(5) 0.9610(5)
O12 O -0.8862(8) 0.9770(8) 0.9061(7)
O13 O -0.1713(12) 1.0264(5) 0.9435(6)
O14 O -0.0786(7) 0.9830(7) 0.7841(6)
O15 O -0.2812(7) 1.1290(5) 0.8156(6)
O16 O -0.3669(6) 0.7389(10) 0.9793(5)
O17 O -0.1601(5) 0.6858(4) 1.0425(4)
O18 O -0.2017(11) 0.8566(5) 0.9193(5)
O19 O -0.2142(11) 0.8711(5) 1.0769(5)
O20 O -0.3858(6) 0.7558(10) 1.1370(5)
O21 O -0.4813(7) 1.1229(5) 0.7683(6)
O22 O -0.4137(7) 1.3052(4) 0.7390(4)
O23 O -0.5826(6) 0.7444(10) 1.0884(5)
O24 O -0.4328(8) 1.0279(6) 0.9016(6)
O25 O -0.4762(8) 0.8725(6) 1.0340(6)
O26 O -0.5468(8) 0.9573(7) 0.9392(6)
O27 O -0.3503(8) 0.9649(6) 0.9897(6)
O28 O -0.0200(4) 0.5277(3) 0.9281(3)
F3 F -0.3839(7) 0.5154(6) 1.4095(5)
F4 F 0.0463(5) 0.4243(5) 1.3320(3)
Cu1A Cu -0.04286(8) 0.40230(6) 1.01178(5)
Cu1_2 Cu 1.04286(8) -0.40230(6) 0.98822(5)
Cu1A_2 Cu 0.95714(8) -0.59770(6) 1.01178(5)
Cu1A_3 Cu -1.04286(8) 1.40230(6) 1.01178(5)
Cu1_3 Cu -0.95714(8) 1.59770(6) 0.98822(5)
Mo1A Mo 0.43789(7) -0.20823(6) 1.17799(4)
Mo1_2 Mo 0.56211(7) 0.20823(6) 0.82201(4)
Mo1A_2 Mo -0.56211(7) 0.79177(6) 1.17799(4)
Mo1_3 Mo 1.56211(7) -0.79177(6) 0.82201(4)
Mo1A_3 Mo 1.43789(7) -1.20823(6) 1.17799(4)
Mo2A Mo 0.21106(8) 0.01182(6) 1.14525(6)
Mo2_2 Mo 0.78894(8) -0.01182(6) 0.85475(6)
Mo2A_2 Mo -0.78894(8) 1.01182(6) 1.14525(6)
Mo2A_3 Mo 1.21106(8) -0.98818(6) 1.14525(6)
Mo2_3 Mo 1.78894(8) -1.01182(6) 0.85475(6)
Mo3_2 Mo 0.23723(8) -0.01505(7) 0.93551(8)
Mo3A Mo 0.76277(8) 0.01505(7) 1.06449(8)
Mo3A_2 Mo -0.23723(8) 1.01505(7) 1.06449(8)
Mo3_3 Mo 1.23723(8) -1.01505(7) 0.93551(8)
Mo3A_3 Mo 1.76277(8) -0.98495(7) 1.06449(8)
Mo4A Mo 0.47513(10) 0.01748(6) 1.21074(4)
Mo4_2 Mo 0.52487(10) -0.01748(6) 0.78926(4)
Mo4A_2 Mo -0.52487(10) 1.01748(6) 1.21074(4)
Mo4_3 Mo 1.52487(10) -1.01748(6) 0.78926(4)
Mo4A_3 Mo 1.47513(10) -0.98252(6) 1.21074(4)
Mo5A Mo 0.52940(7) 0.22811(6) 1.03487(5)
Mo5_2 Mo 0.47060(7) -0.22811(6) 0.96513(5)
Mo5A_2 Mo -0.47060(7) 1.22811(6) 1.03487(5)
Mo5A_3 Mo 1.52940(7) -0.77189(6) 1.03487(5)
Mo5_3 Mo 1.47060(7) -1.22811(6) 0.96513(5)
Mo6A Mo 0.27074(7) 0.21222(6) 0.96568(5)
Mo6_2 Mo 0.72926(7) -0.21222(6) 1.03432(5)
Mo6A_2 Mo -0.72926(7) 1.21222(6) 0.96568(5)
Mo6A_3 Mo 1.27074(7) -0.78778(6) 0.96568(5)
Mo6_3 Mo 1.72926(7) -1.21222(6) 1.03432(5)
Mo6_4 Mo -1.27074(7) 1.78778(6) 1.03432(5)
Si1_2 Si 0.5000 0.0000 1.0000
Si1_3 Si 1.5000 -1.0000 1.0000
C1A C 0.2794(10) 0.4980(8) 0.6539(7)
C1_2 C 0.7206(10) -0.4980(8) 1.3461(7)
C1A_2 C 1.2794(10) -0.5020(8) 0.6539(7)
C2A C 0.1667(11) 0.5268(8) 0.6297(6)
C2_2 C 0.8333(11) -0.5268(8) 1.3703(6)
C2A_2 C 1.1667(11) -0.4732(8) 0.6297(6)
H1A H 0.1614 0.5339 0.5733
H1_2 H 0.8386 -0.5339 1.4267
H1A_2 H 1.1614 -0.4661 0.5733
C3A C 0.0641(9) 0.5445(6) 0.6915(5)
C3_2 C 0.9359(9) -0.5445(6) 1.3085(5)
C3A_2 C 1.0641(9) -0.4555(6) 0.6915(5)
C3A_3 C -0.9359(9) 1.5445(6) 0.6915(5)
C3_3 C -1.0641(9) 1.4555(6) 1.3085(5)
C4A C 0.0666(7) 0.5308(5) 0.7781(5)
C4_2 C 0.9334(7) -0.5308(5) 1.2219(5)
C4A_2 C 1.0666(7) -0.4692(5) 0.7781(5)
C4A_3 C -0.9334(7) 1.5308(5) 0.7781(5)
C4_3 C -1.0666(7) 1.4692(5) 1.2219(5)
C5A C 0.1826(7) 0.4987(6) 0.7977(6)
C5_2 C 0.8174(7) -0.4987(6) 1.2023(6)
C5A_2 C 1.1826(7) -0.5013(6) 0.7977(6)
C5A_3 C -0.8174(7) 1.4987(6) 0.7977(6)
C5_3 C -1.1826(7) 1.5013(6) 1.2023(6)
H2A H 0.1883 0.4880 0.8546
H2_2 H 0.8117 -0.4880 1.1454
H2A_2 H 1.1883 -0.5120 0.8546
C6A C 0.2903(9) 0.4818(7) 0.7369(6)
C6_2 C 0.7097(9) -0.4818(7) 1.2631(6)
C6A_2 C 1.2903(9) -0.5182(7) 0.7369(6)
H3A H 0.3670 0.4603 0.7519
H3_2 H 0.6330 -0.4603 1.2481
H3A_2 H 1.3670 -0.5397 0.7519
C7A C -0.0471(7) 0.5602(5) 0.8458(4)
C7_2 C 1.0471(7) -0.5602(5) 1.1542(4)
C7A_2 C 0.9529(7) -0.4398(5) 0.8458(4)
C7A_3 C -1.0471(7) 1.5602(5) 0.8458(4)
C7_3 C -0.9529(7) 1.4398(5) 1.1542(4)
C8A C -0.0834(7) 0.6766(5) 0.8246(5)
C8_2 C 1.0834(7) -0.6766(5) 1.1754(5)
C8A_2 C 0.9166(7) -0.3234(5) 0.8246(5)
C8_3 C -0.9166(7) 1.3234(5) 1.1754(5)
C8A_3 C -1.0834(7) 1.6766(5) 0.8246(5)
H4A H -0.1115 0.7003 0.7708
H4_2 H 1.1115 -0.7003 1.2292
H4A_2 H 0.8885 -0.2997 0.7708
H4_3 H -0.8885 1.2997 1.2292
H4A_3 H -1.1115 1.7003 0.7708
H5A H -0.1512 0.6962 0.8698
H5_2 H 1.1512 -0.6962 1.1302
H5A_2 H 0.8488 -0.3038 0.8698
H5_3 H -0.8488 1.3038 1.1302
H5A_3 H -1.1512 1.6962 0.8698
C9A C 0.0818(8) 0.7809(6) 0.7489(5)
C9A_2 C 1.0818(8) -0.2191(6) 0.7489(5)
C9_2 C 0.9182(8) -0.7809(6) 1.2511(5)
C9_3 C -1.0818(8) 1.2191(6) 1.2511(5)
C9A_3 C -0.9182(8) 1.7809(6) 0.7489(5)
H6A H 0.0603 0.8029 0.6955
H6A_2 H 1.0603 -0.1971 0.6955
H6_2 H 0.9397 -0.8029 1.3045
H6_3 H -1.0603 1.1971 1.3045
C10A C -0.1700(7) 0.2432(6) 1.1506(5)
C10_2 C 1.1700(7) -0.2432(6) 0.8494(5)
C10A_2 C 0.8300(7) -0.7568(6) 1.1506(5)
C10A_3 C -1.1700(7) 1.2432(6) 1.1506(5)
C10_3 C -0.8300(7) 1.7568(6) 0.8494(5)
H7A H -0.2250 0.2403 1.1194
H7_2 H 1.2250 -0.2403 0.8806
H7A_2 H 0.7750 -0.7597 1.1194
H7A_3 H -1.2250 1.2403 1.1194
H7_3 H -0.7750 1.7597 0.8806
C11A C -0.1356(10) 0.3533(7) 0.8115(6)
C11_2 C 1.1356(10) -0.3533(7) 1.1885(6)
C11A_2 C 0.8644(10) -0.6467(7) 0.8115(6)
C11A_3 C -1.1356(10) 1.3533(7) 0.8115(6)
C11_3 C -0.8644(10) 1.6467(7) 1.1885(6)
H8A H -0.1576 0.3782 0.7582
H8_2 H 1.1576 -0.3782 1.2418
H8A_2 H 0.8424 -0.6218 0.7582
H8A_3 H -1.1576 1.3782 0.7582
C12A C -0.0772(8) 0.2581(6) 0.9200(6)
C12_2 C 1.0772(8) -0.2581(6) 1.0800(6)
C12A_2 C 0.9228(8) -0.7419(6) 0.9200(6)
C12A_3 C -1.0772(8) 1.2581(6) 0.9200(6)
C12_3 C -0.9228(8) 1.7419(6) 1.0800(6)
H9A H -0.0485 0.1997 0.9584
H9_2 H 1.0485 -0.1997 1.0416
H9A_2 H 0.9515 -0.8003 0.9584
H9A_3 H -1.0485 1.1997 0.9584
H9_3 H -0.9515 1.8003 1.0416
C13A C -0.1627(7) 0.5208(6) 0.8488(5)
C13_2 C 1.1627(7) -0.5208(6) 1.1512(5)
C13A_2 C 0.8373(7) -0.4792(6) 0.8488(5)
C13A_3 C -1.1627(7) 1.5208(6) 0.8488(5)
C13_3 C -0.8373(7) 1.4792(6) 1.1512(5)
H10A H -0.2288 0.5391 0.8954
H10_2 H 1.2288 -0.5391 1.1046
H10A_2 H 0.7712 -0.4609 0.8954
H10A_3 H -1.2288 1.5391 0.8954
H10_3 H -0.7712 1.4609 1.1046
H11A H -0.1902 0.5517 0.7951
H11_2 H 1.1902 -0.5517 1.2049
H11A_2 H 0.8098 -0.4483 0.7951
H11A_3 H -1.1902 1.5517 0.7951
H11_3 H -0.8098 1.4483 1.2049
N7A N -0.0983(6) 0.3490(4) 0.9340(4)
N7_2 N 1.0983(6) -0.3490(4) 1.0660(4)
N7A_2 N 0.9017(6) -0.6510(4) 0.9340(4)
N7A_3 N -1.0983(6) 1.3490(4) 0.9340(4)
N7_3 N -0.9017(6) 1.6510(4) 1.0660(4)
N8A N -0.1356(6) 0.4107(5) 0.8621(4)
N8_2 N 1.1356(6) -0.4107(5) 1.1379(4)
N8A_2 N 0.8644(6) -0.5893(5) 0.8621(4)
N8A_3 N -1.1356(6) 1.4107(5) 0.8621(4)
N8_3 N -0.8644(6) 1.5893(5) 1.1379(4)
N9A N -0.1008(9) 0.2577(6) 0.8453(5)
N9_2 N 1.1008(9) -0.2577(6) 1.1547(5)
N9A_2 N 0.8992(9) -0.7423(6) 0.8453(5)
N9A_3 N -1.1008(9) 1.2577(6) 0.8453(5)
N9_3 N -0.8992(9) 1.7423(6) 1.1547(5)
N10A N -0.0769(6) 0.2941(4) 1.1164(4)
N10_2 N 1.0769(6) -0.2941(4) 0.8836(4)
N10A_2 N 0.9231(6) -0.7059(4) 1.1164(4)
N10A_3 N -1.0769(6) 1.2941(4) 1.1164(4)
N10_3 N -0.9231(6) 1.7059(4) 0.8836(4)
N11A N 0.0210(6) 0.7232(4) 0.8172(4)
N11A_2 N 1.0210(6) -0.2768(4) 0.8172(4)
N11_2 N 0.9790(6) -0.7232(4) 1.1828(4)
N11_3 N -1.0210(6) 1.2768(4) 1.1828(4)
N11A_3 N -0.9790(6) 1.7232(4) 0.8172(4)
N12A N -0.1775(7) 0.1963(5) 1.2345(5)
N12_2 N 1.1775(7) -0.1963(5) 0.7655(5)
N12A_2 N 0.8225(7) -0.8037(5) 1.2345(5)
N12A_3 N -1.1775(7) 1.1963(5) 1.2345(5)
N12_3 N -0.8225(7) 1.8037(5) 0.7655(5)
O1A O 0.3072(7) 0.0403(5) 1.2099(6)
O1_2 O 0.6928(7) -0.0403(5) 0.7901(6)
O1A_2 O -0.6928(7) 1.0403(5) 1.2099(6)
O1A_3 O 1.3072(7) -0.9597(5) 1.2099(6)
O1_3 O 1.6928(7) -1.0403(5) 0.7901(6)
O2A O 0.4669(9) 0.0256(6) 1.3102(4)
O2_2 O 0.5331(9) -0.0256(6) 0.6898(4)
O2A_2 O -0.5331(9) 1.0256(6) 1.3102(4)
O2_3 O 1.5331(9) -1.0256(6) 0.6898(4)
O2A_3 O 1.4669(9) -0.9744(6) 1.3102(4)
O4A O 0.5481(7) 0.3328(4) 1.0510(4)
O4_2 O 0.4519(7) -0.3328(4) 0.9490(4)
O4A_2 O -0.4519(7) 1.3328(4) 1.0510(4)
O4A_3 O 1.5481(7) -0.6672(4) 1.0510(4)
O4_3 O 1.4519(7) -1.3328(4) 0.9490(4)
O6A O 0.4774(6) 0.1564(5) 1.1500(5)
O6_2 O 0.5226(6) -0.1564(5) 0.8500(5)
O6A_2 O -0.5226(6) 1.1564(5) 1.1500(5)
O6A_3 O 1.4774(6) -0.8436(5) 1.1500(5)
O6_3 O 1.5226(6) -1.1564(5) 0.8500(5)
O8_2 O 0.3511(7) 0.0046(5) 0.8277(6)
O8A O 0.6489(7) -0.0046(5) 1.1723(6)
O8A_2 O -0.3511(7) 0.9954(5) 1.1723(6)
O8_3 O 1.3511(7) -0.9954(5) 0.8277(6)
O8A_3 O 1.6489(7) -1.0046(5) 1.1723(6)
O10_2 O 0.3099(6) -0.1513(5) 0.9610(5)
O10A O 0.6901(6) 0.1513(5) 1.0390(5)
O10A_2 O -0.3099(6) 1.1513(5) 1.0390(5)
O10A_3 O 1.6901(6) -0.8487(5) 1.0390(5)
O10_3 O 1.3099(6) -1.1513(5) 0.9610(5)
O12A O 0.8862(8) 0.0230(8) 1.0939(7)
O12_2 O 0.1138(8) -0.0230(8) 0.9061(7)
O12A_2 O -0.1138(8) 1.0230(8) 1.0939(7)
O12_3 O 1.1138(8) -1.0230(8) 0.9061(7)
O12A_3 O 1.8862(8) -0.9770(8) 1.0939(7)
O13A O 0.1713(12) -0.0264(5) 1.0565(6)
O13_2 O 0.8287(12) 0.0264(5) 0.9435(6)
O13A_2 O -0.8287(12) 0.9736(5) 1.0565(6)
O13A_3 O 1.1713(12) -1.0264(5) 1.0565(6)
O13_3 O 1.8287(12) -0.9736(5) 0.9435(6)
O14A O 0.0786(7) 0.0170(7) 1.2159(6)
O14_2 O 0.9214(7) -0.0170(7) 0.7841(6)
O14A_2 O -0.9214(7) 1.0170(7) 1.2159(6)
O14A_3 O 1.0786(7) -0.9830(7) 1.2159(6)
O14_3 O 1.9214(7) -1.0170(7) 0.7841(6)
O15A O 0.2812(7) -0.1290(5) 1.1844(6)
O15_2 O 0.7188(7) 0.1290(5) 0.8156(6)
O15A_2 O -0.7188(7) 0.8710(5) 1.1844(6)
O15A_3 O 1.2812(7) -1.1290(5) 1.1844(6)
O15_3 O 1.7188(7) -0.8710(5) 0.8156(6)
O16A O 0.3669(6) 0.2611(10) 1.0207(5)
O16_2 O 0.6331(6) -0.2611(10) 0.9793(5)
O16A_2 O -0.6331(6) 1.2611(10) 1.0207(5)
O16A_3 O 1.3669(6) -0.7389(10) 1.0207(5)
O16_3 O 1.6331(6) -1.2611(10) 0.9793(5)
O16_4 O -1.3669(6) 1.7389(10) 0.9793(5)
O17A O 0.1601(5) 0.3142(4) 0.9575(4)
O17_2 O 0.8399(5) -0.3142(4) 1.0425(4)
O17A_2 O 1.1601(5) -0.6858(4) 0.9575(4)
O17A_3 O -0.8399(5) 1.3142(4) 0.9575(4)
O17_3 O -1.1601(5) 1.6858(4) 1.0425(4)
O17_4 O 1.8399(5) -1.3142(4) 1.0425(4)
O18A O 0.2017(11) 0.1434(5) 1.0807(5)
O18_2 O 0.7983(11) -0.1434(5) 0.9193(5)
O18A_2 O -0.7983(11) 1.1434(5) 1.0807(5)
O18A_3 O 1.2017(11) -0.8566(5) 1.0807(5)
O18_3 O 1.7983(11) -1.1434(5) 0.9193(5)
O18_4 O -1.2017(11) 1.8566(5) 0.9193(5)
O19A O 0.2142(11) 0.1289(5) 0.9231(5)
O19_2 O 0.7858(11) -0.1289(5) 1.0769(5)
O19A_2 O -0.7858(11) 1.1289(5) 0.9231(5)
O19A_3 O 1.2142(11) -0.8711(5) 0.9231(5)
O19_3 O 1.7858(11) -1.1289(5) 1.0769(5)
O19_4 O -1.2142(11) 1.8711(5) 1.0769(5)
O20_2 O 0.6142(6) -0.2442(10) 1.1370(5)
O20A O 0.3858(6) 0.2442(10) 0.8630(5)
O20A_2 O -0.6142(6) 1.2442(10) 0.8630(5)
O20A_3 O 1.3858(6) -0.7558(10) 0.8630(5)
O20_3 O 1.6142(6) -1.2442(10) 1.1370(5)
O20_4 O -1.3858(6) 1.7558(10) 1.1370(5)
O21A O 0.4813(7) -0.1229(5) 1.2317(6)
O21_2 O 0.5187(7) 0.1229(5) 0.7683(6)
O21A_2 O -0.5187(7) 0.8771(5) 1.2317(6)
O21_3 O 1.5187(7) -0.8771(5) 0.7683(6)
O21A_3 O 1.4813(7) -1.1229(5) 1.2317(6)
O22_2 O 0.5863(7) 0.3052(4) 0.7390(4)
O22A O 0.4137(7) -0.3052(4) 1.2610(4)
O22A_2 O -0.5863(7) 0.6948(4) 1.2610(4)
O22_3 O 1.5863(7) -0.6948(4) 0.7390(4)
O22A_3 O 1.4137(7) -1.3052(4) 1.2610(4)
O23_2 O 0.4174(6) -0.2556(10) 1.0884(5)
O23A O 0.5826(6) 0.2556(10) 0.9116(5)
O23A_2 O -0.4174(6) 1.2556(10) 0.9116(5)
O23A_3 O 1.5826(6) -0.7444(10) 0.9116(5)
O23_3 O 1.4174(6) -1.2556(10) 1.0884(5)
O24_2 O 0.5672(8) 0.0279(6) 0.9016(6)
O24A O 0.4328(8) -0.0279(6) 1.0984(6)
O24A_2 O -0.5672(8) 0.9721(6) 1.0984(6)
O24A_3 O 1.4328(8) -1.0279(6) 1.0984(6)
O24_3 O 1.5672(8) -0.9721(6) 0.9016(6)
O25A O 0.4762(8) 0.1275(6) 0.9660(6)
O25_2 O 0.5238(8) -0.1275(6) 1.0340(6)
O25A_2 O -0.5238(8) 1.1275(6) 0.9660(6)
O25A_3 O 1.4762(8) -0.8725(6) 0.9660(6)
O25_3 O 1.5238(8) -1.1275(6) 1.0340(6)
O25_4 O -1.4762(8) 1.8725(6) 1.0340(6)
O26A O 0.5468(8) 0.0427(7) 1.0608(6)
O26_2 O 0.4532(8) -0.0427(7) 0.9392(6)
O26A_2 O -0.4532(8) 1.0427(7) 1.0608(6)
O26_3 O 1.4532(8) -1.0427(7) 0.9392(6)
O26A_3 O 1.5468(8) -0.9573(7) 1.0608(6)
O27_2 O 0.6497(8) -0.0351(6) 0.9897(6)
O27A O 0.3503(8) 0.0351(6) 1.0103(6)
O27A_2 O -0.6497(8) 1.0351(6) 1.0103(6)
O27A_3 O 1.3503(8) -0.9649(6) 1.0103(6)
O27_3 O 1.6497(8) -1.0351(6) 0.9897(6)
O27_4 O -1.3503(8) 1.9649(6) 0.9897(6)
O28_2 O 0.9800(4) -0.4723(3) 0.9281(3)
O28A O 1.0200(4) -0.5277(3) 1.0719(3)
O28A_2 O 0.0200(4) 0.4723(3) 1.0719(3)
O28_3 O -1.0200(4) 1.5277(3) 0.9281(3)
O28A_3 O -0.9800(4) 1.4723(3) 1.0719(3)
F3A F 0.3839(7) 0.4846(6) 0.5905(5)
F3_2 F 0.6161(7) -0.4846(6) 1.4095(5)
F3A_2 F 1.3839(7) -0.5154(6) 0.5905(5)
F4A F -0.0463(5) 0.5757(5) 0.6680(3)
F4_2 F 1.0463(5) -0.5757(5) 1.3320(3)
F4A_2 F 0.9537(5) -0.4243(5) 0.6680(3)
loop_
_geom_bond_atom_site_label_1
_geom_bond_atom_site_label_2
_geom_bond_site_symmetry_1
_geom_bond_site_symmetry_2
Cu1 N7 1_555 1_555
Cu2 N1 1_555 1_555
Mo1 O15 1_555 1_555
Mo2 O1 1_555 1_555
Mo3 O8 1_555 1_555
Mo4 O1 1_555 1_555
Mo5 O4 1_555 1_555
Mo6 O16 1_555 1_555
Si1 O24 1_555 1_555
C1 C2 1_555 1_555
C2 H1 1_555 1_555
C3 C2 1_555 1_555
C4 C3 1_555 1_555
C5 C4 1_555 1_555
H2 C5 1_555 1_555
C6 C1 1_555 1_555
H3 C6 1_555 1_555
C7 C4 1_555 1_555
C8 C7 1_555 1_555
H4 C8 1_555 1_555
H5 C8 1_555 1_555
C9 H6 1_555 1_555
C10 H7 1_555 1_555
C11 H8 1_555 1_555
C12 H9 1_555 1_555
C13 C7 1_555 1_555
H10 C13 1_555 1_555
H11 C13 1_555 1_555
C14 C15 1_555 1_555
C15 H12 1_555 1_555
C16 C15 1_555 1_555
C17 C16 1_555 1_555
C18 C17 1_555 1_555
H13 C18 1_555 1_555
C19 C14 1_555 1_555
H14 C19 1_555 1_555
C20 C17 1_555 1_555
C21 C20 1_555 1_555
H15 C21 1_555 1_555
H16 C21 1_555 1_555
C22 H17 1_555 1_555
C23 H18 1_555 1_555
C24 H19 1_555 1_555
C25 H20 1_555 1_555
C26 C20 1_555 1_555
H21 C26 1_555 1_555
H22 C26 1_555 1_555
N1 C23 1_555 1_555
N2 C21 1_555 1_555
N3 C22 1_555 1_555
N4 Cu2 1_555 1_555
N5 C25 1_555 1_555
N6 C24 1_555 1_555
N7 C12 1_555 1_555
N8 C11 1_555 1_555
N9 C11 1_555 1_555
N10 Cu1 1_555 1_555
N11 C8 1_555 1_555
N12 C10 1_555 1_555
O2 Mo4 1_555 1_555
O3 Cu2 1_555 1_555
O6 Mo4 1_555 1_555
O8 Mo4 1_555 1_555
O10 Mo3 1_555 1_555
O12 Mo3 1_555 1_555
O13 Mo2 1_555 1_555
O14 Mo2 1_555 1_555
O15 Mo2 1_555 1_555
O16 Mo5 1_555 1_555
O17 Cu1 1_555 1_555
O18 Mo2 1_555 1_555
O19 Mo6 1_555 1_555
O20 Mo6 1_555 1_555
O21 Mo1 1_555 1_555
O22 Mo1 1_555 1_555
O23 Mo5 1_555 1_555
O24 Mo2 1_555 1_555
O25 Mo5 1_555 1_555
O26 Mo3 1_555 1_555
O27 Mo2 1_555 1_555
O28 Cu1 1_555 1_555
O29 Cu2 1_555 1_555
F1 C14 1_555 1_555
F2 C16 1_555 1_555
F3 C1 1_555 1_555
F4 C3 1_555 1_555
Cu1A Cu1 1_555 1_555
Cu1_2 Cu1A_2 1_555 1_555
Cu1A_2 N7A_2 1_555 1_555
Cu1A_3 Cu1_3 1_555 1_555
Cu1_3 N7_3 1_555 1_555
Cu2A Cu2 1_555 1_555
Mo1A O15A 1_555 1_555
Mo1_2 O15_2 1_555 1_555
Mo1A_2 O20 1_555 1_555
Mo1_3 O15_3 1_555 1_555
Mo1A_3 O15A_3 1_555 1_555
Mo2A O1A 1_555 1_555
Mo2_2 O1_2 1_555 1_555
Mo2A_2 O1A_2 1_555 1_555
Mo2A_3 O1A_3 1_555 1_555
Mo2_3 O1_3 1_555 1_555
Mo3_2 O8_2 1_555 1_555
Mo3A O8A 1_555 1_555
Mo3A_2 O13 1_555 1_555
Mo3_3 O8_3 1_555 1_555
Mo3A_3 O8A_3 1_555 1_555
Mo4A O1A 1_555 1_555
Mo4_2 O1_2 1_555 1_555
Mo4A_2 O1A_2 1_555 1_555
Mo4_3 O1_3 1_555 1_555
Mo4A_3 O1A_3 1_555 1_555
Mo5A O4A 1_555 1_555
Mo5_2 O4_2 1_555 1_555
Mo5A_2 O4A_2 1_555 1_555
Mo5A_3 O4A_3 1_555 1_555
Mo5_3 O4_3 1_555 1_555
Mo6A O16A 1_555 1_555
Mo6_2 O16_2 1_555 1_555
Mo6A_2 O16A_2 1_555 1_555
Mo6A_3 O16A_3 1_555 1_555
Mo6_3 O16_3 1_555 1_555
Mo6_4 O16_4 1_555 1_555
Si1_2 O24_2 1_555 1_555
Si1_3 O24A_3 1_555 1_555
C1A C2A 1_555 1_555
C1_2 C2_2 1_555 1_555
C1A_2 C2A_2 1_555 1_555
C2A H1A 1_555 1_555
C2_2 H1_2 1_555 1_555
C2A_2 H1A_2 1_555 1_555
C3A C2A 1_555 1_555
C3_2 C2_2 1_555 1_555
C3A_2 C2A_2 1_555 1_555
C3A_3 C4A_3 1_555 1_555
C3_3 C4_3 1_555 1_555
C4A C3A 1_555 1_555
C4_2 C3_2 1_555 1_555
C4A_2 C3A_2 1_555 1_555
C4A_3 C5A_3 1_555 1_555
C4_3 C5_3 1_555 1_555
C5A C4A 1_555 1_555
C5_2 C4_2 1_555 1_555
C5A_2 C4A_2 1_555 1_555
H2A C5A 1_555 1_555
H2_2 C5_2 1_555 1_555
H2A_2 C5A_2 1_555 1_555
C6A C1A 1_555 1_555
C6_2 C1_2 1_555 1_555
C6A_2 C1A_2 1_555 1_555
H3A C6A 1_555 1_555
H3_2 C6_2 1_555 1_555
H3A_2 C6A_2 1_555 1_555
C7A O28 1_555 1_555
C7_2 C4_2 1_555 1_555
C7A_2 C4A_2 1_555 1_555
C7A_3 C4A_3 1_555 1_555
C7_3 C4_3 1_555 1_555
C8A C7A 1_555 1_555
C8_2 C7_2 1_555 1_555
C8A_2 C7A_2 1_555 1_555
C8_3 C7_3 1_555 1_555
C8A_3 C7A_3 1_555 1_555
H4A C8A 1_555 1_555
H4_2 C8_2 1_555 1_555
H4A_2 C8A_2 1_555 1_555
H4_3 C8_3 1_555 1_555
H4A_3 C8A_3 1_555 1_555
H5A C8A 1_555 1_555
H5_2 C8_2 1_555 1_555
H5A_2 C8A_2 1_555 1_555
H5_3 C8_3 1_555 1_555
H5A_3 C8A_3 1_555 1_555
C9A N12 1_555 1_555
C9A_2 H6A_2 1_555 1_555
C9_2 H6_2 1_555 1_555
C9_3 H6_3 1_555 1_555
C9A_3 N11A_3 1_555 1_555
H6A C9A 1_555 1_555
C10A H7A 1_555 1_555
C10_2 H7_2 1_555 1_555
C10A_2 H7A_2 1_555 1_555
C10A_3 H7A_3 1_555 1_555
C10_3 H7_3 1_555 1_555
C11A H8A 1_555 1_555
C11_2 H8_2 1_555 1_555
C11A_2 H8A_2 1_555 1_555
C11A_3 H8A_3 1_555 1_555
C11_3 N8_3 1_555 1_555
C12A H9A 1_555 1_555
C12_2 H9_2 1_555 1_555
C12A_2 H9A_2 1_555 1_555
C12A_3 H9A_3 1_555 1_555
C12_3 H9_3 1_555 1_555
C13A C7A 1_555 1_555
C13_2 C7_2 1_555 1_555
C13A_2 C7A_2 1_555 1_555
C13A_3 C7A_3 1_555 1_555
C13_3 C7_3 1_555 1_555
H10A C13A 1_555 1_555
H10_2 C13_2 1_555 1_555
H10A_2 C13A_2 1_555 1_555
H10A_3 C13A_3 1_555 1_555
H10_3 C13_3 1_555 1_555
H11A C13A 1_555 1_555
H11_2 C13_2 1_555 1_555
H11A_2 C13A_2 1_555 1_555
H11A_3 C13A_3 1_555 1_555
H11_3 C13_3 1_555 1_555
C14A C15A 1_555 1_555
C15A H12A 1_555 1_555
C16A C15A 1_555 1_555
C17A C16A 1_555 1_555
C18A C17A 1_555 1_555
H13A C18A 1_555 1_555
C19A C14A 1_555 1_555
H14A C19A 1_555 1_555
C20A C17A 1_555 1_555
C21A C20A 1_555 1_555
H15A C21A 1_555 1_555
H16A C21A 1_555 1_555
C22A H17A 1_555 1_555
C23A H18A 1_555 1_555
C24A H19A 1_555 1_555
C25A N6 1_555 1_555
H20A C25A 1_555 1_555
C26A C20A 1_555 1_555
H21A C26A 1_555 1_555
H22A C26A 1_555 1_555
N1A Cu2A 1_555 1_555
N2A C21A 1_555 1_555
N3A C22A 1_555 1_555
N4A N5 1_555 1_555
N5A N4 1_555 1_555
N6A C25 1_555 1_555
N7A Cu1A 1_555 1_555
N7_2 Cu1_2 1_555 1_555
N7A_2 C12A_2 1_555 1_555
N7A_3 Cu1A_3 1_555 1_555
N7_3 C12_3 1_555 1_555
N8A C11A 1_555 1_555
N8_2 C11_2 1_555 1_555
N8A_2 C11A_2 1_555 1_555
N8A_3 C11A_3 1_555 1_555
N8_3 C13_3 1_555 1_555
N9A C11A 1_555 1_555
N9_2 C11_2 1_555 1_555
N9A_2 C11A_2 1_555 1_555
N9A_3 C11A_3 1_555 1_555
N9_3 C12_3 1_555 1_555
N10A N11 1_555 1_555
N10_2 Cu1_2 1_555 1_555
N10A_2 Cu1A_2 1_555 1_555
N10A_3 Cu1A_3 1_555 1_555
N10_3 Cu1_3 1_555 1_555
N11A N10 1_555 1_555
N11A_2 C8A_2 1_555 1_555
N11_2 C8_2 1_555 1_555
N11_3 C8_3 1_555 1_555
N11A_3 C8A_3 1_555 1_555
N12A C9 1_555 1_555
N12_2 C9A_2 1_555 1_555
N12A_2 C9_2 1_555 1_555
N12A_3 C9_3 1_555 1_555
N12_3 C10_3 1_555 1_555
O2A Mo4A 1_555 1_555
O2_2 Mo4_2 1_555 1_555
O2A_2 Mo4A_2 1_555 1_555
O2_3 Mo4_3 1_555 1_555
O2A_3 Mo4A_3 1_555 1_555
O3A Cu2A 1_555 1_555
O6A Mo4A 1_555 1_555
O6_2 Mo4_2 1_555 1_555
O6A_2 Mo4A_2 1_555 1_555
O6A_3 Mo4A_3 1_555 1_555
O6_3 Mo4_3 1_555 1_555
O8_2 Mo4_2 1_555 1_555
O8A Mo4A 1_555 1_555
O8A_2 Mo3A_2 1_555 1_555
O8_3 Mo4_3 1_555 1_555
O8A_3 Mo4A_3 1_555 1_555
O10_2 Mo3_2 1_555 1_555
O10A Mo3A 1_555 1_555
O10A_2 Mo3A_2 1_555 1_555
O10A_3 Mo3A_3 1_555 1_555
O10_3 Mo3_3 1_555 1_555
O12A Mo3A 1_555 1_555
O12_2 Mo3_2 1_555 1_555
O12A_2 Mo3A_2 1_555 1_555
O12_3 Mo3_3 1_555 1_555
O12A_3 Mo3A_3 1_555 1_555
O13A Mo2A 1_555 1_555
O13_2 Mo2_2 1_555 1_555
O13A_2 Mo3 1_555 1_555
O13A_3 Mo2A_3 1_555 1_555
O13_3 Mo2_3 1_555 1_555
O14A Mo2A 1_555 1_555
O14_2 Mo2_2 1_555 1_555
O14A_2 Mo2A_2 1_555 1_555
O14A_3 Mo2A_3 1_555 1_555
O14_3 Mo2_3 1_555 1_555
O15A Mo2A 1_555 1_555
O15_2 Mo2_2 1_555 1_555
O15A_2 Mo1A_2 1_555 1_555
O15A_3 Mo2A_3 1_555 1_555
O15_3 Mo2_3 1_555 1_555
O16A Mo5A 1_555 1_555
O16_2 Mo5_2 1_555 1_555
O16A_2 Mo5A_2 1_555 1_555
O16A_3 Mo5A_3 1_555 1_555
O16_3 Mo5_3 1_555 1_555
O17A Cu1A 1_555 1_555
O17_2 Cu1_2 1_555 1_555
O17A_2 Cu1A_2 1_555 1_555
O17A_3 Cu1A_3 1_555 1_555
O17_3 Cu1_3 1_555 1_555
O17_4 Mo6_3 1_555 1_555
O18A Mo2A 1_555 1_555
O18_2 Mo2_2 1_555 1_555
O18A_2 Mo2A_2 1_555 1_555
O18A_3 Mo2A_3 1_555 1_555
O18_3 Mo2_3 1_555 1_555
O18_4 Mo6_4 1_555 1_555
O19A Mo3_2 1_555 1_555
O19_2 Mo3A 1_555 1_555
O19A_2 Mo3 1_555 1_555
O19A_3 Mo3_3 1_555 1_555
O19_3 Mo3A_3 1_555 1_555
O19_4 Mo6_4 1_555 1_555
O20_2 Mo1A 1_555 1_555
O20A Mo1_2 1_555 1_555
O20A_2 Mo1 1_555 1_555
O20A_3 Mo1_3 1_555 1_555
O20_3 Mo1A_3 1_555 1_555
O20_4 Mo6_4 1_555 1_555
O21A Mo1A 1_555 1_555
O21_2 Mo1_2 1_555 1_555
O21A_2 Mo1A_2 1_555 1_555
O21_3 Mo1_3 1_555 1_555
O21A_3 Mo1A_3 1_555 1_555
O22_2 Mo1_2 1_555 1_555
O22A Mo1A 1_555 1_555
O22A_2 Mo1A_2 1_555 1_555
O22_3 Mo1_3 1_555 1_555
O22A_3 Mo1A_3 1_555 1_555
O23_2 Mo1A 1_555 1_555
O23A Mo1_2 1_555 1_555
O23A_2 Mo1 1_555 1_555
O23A_3 Mo1_3 1_555 1_555
O23_3 Mo1A_3 1_555 1_555
O24_2 Mo2_2 1_555 1_555
O24A Mo2A 1_555 1_555
O24A_2 Si1 1_555 1_555
O24A_3 Mo2A_3 1_555 1_555
O24_3 Mo2_3 1_555 1_555
O25A Mo1_2 1_555 1_555
O25_2 Mo1A 1_555 1_555
O25A_2 Mo1 1_555 1_555
O25A_3 Mo1_3 1_555 1_555
O25_3 Mo1A_3 1_555 1_555
O25_4 Mo6_4 1_555 1_555
O26A Mo3A 1_555 1_555
O26_2 Mo3_2 1_555 1_555
O26A_2 Si1 1_555 1_555
O26_3 Mo3_3 1_555 1_555
O26A_3 Mo3A_3 1_555 1_555
O27_2 Mo2_2 1_555 1_555
O27A Mo2A 1_555 1_555
O27A_2 Mo3 1_555 1_555
O27A_3 Mo2A_3 1_555 1_555
O27_3 Mo2_3 1_555 1_555
O27_4 Mo6_4 1_555 1_555
O28_2 Cu1_2 1_555 1_555
O28A Cu1_2 1_555 1_555
O28A_2 Cu1 1_555 1_555
O28_3 Cu1A_3 1_555 1_555
O28A_3 Cu1A_3 1_555 1_555
O29A Cu2 1_555 1_555
F1A C14A 1_555 1_555
F2A C16A 1_555 1_555
F3A C1A 1_555 1_555
F3_2 C1_2 1_555 1_555
F3A_2 C1A_2 1_555 1_555
F4A C3A 1_555 1_555
F4_2 C3_2 1_555 1_555
F4A_2 C3A_2 1_555 1_555
Mo4 O21 1_555 1_555
Mo4 O24 1_555 1_555
Mo4 O26 1_555 1_555
Mo5 O6 1_555 1_555
Mo5 O10 1_555 1_555
Mo6 O17 1_555 1_555
Mo6 O18 1_555 1_555
Mo6 O25 1_555 1_555
Mo6 O27 1_555 1_555
Si1 O25 1_555 1_555
Si1 O26 1_555 1_555
Si1 O27 1_555 1_555
Si1 O25A_2 1_555 1_555
Si1 O27A_2 1_555 1_555
C5 C6 1_555 1_555
C7 O28A_2 1_555 1_555
C9 N11 1_555 1_555
C10 N10 1_555 1_555
C12 N9 1_555 1_555
C13 N8 1_555 1_555
C18 C19 1_555 1_555
C20 O29 1_555 1_555
C22 N2 1_555 1_555
C23 N3 1_555 1_555
C24 N4 1_555 1_555
C26 N5 1_555 1_555
N1 N2 1_555 1_555
N7 N8 1_555 1_555
O19 Mo3A_2 1_555 1_555
O23 Mo1A_2 1_555 1_555
O24 O26 1_555 1_555
O25 Mo1A_2 1_555 1_555
O26 O27A_2 1_555 1_555
O27 Mo3A_2 1_555 1_555
O27 O26A_2 1_555 1_555
O28 Cu1A 1_555 1_555
O29 Cu2A 1_555 1_555
Cu1A N10A 1_555 1_555
Cu1A O28A_2 1_555 1_555
Cu1A_2 O28_2 1_555 1_555
Cu1A_2 O28A 1_555 1_555
Cu1_3 O28_3 1_555 1_555
Cu1_3 O28A_3 1_555 1_555
Cu2A N4A 1_555 1_555
Cu2A O29A 1_555 1_555
Mo2A_2 O13A_2 1_555 1_555
Mo2A_2 O15A_2 1_555 1_555
Mo2A_2 O24A_2 1_555 1_555
Mo2A_2 O27A_2 1_555 1_555
Mo3_2 O13A 1_555 1_555
Mo3_2 O27A 1_555 1_555
Mo3A O13_2 1_555 1_555
Mo3A O27_2 1_555 1_555
Mo3A_2 O26A_2 1_555 1_555
Mo3_3 O13A_3 1_555 1_555
Mo3_3 O27A_3 1_555 1_555
Mo3A_3 O13_3 1_555 1_555
Mo3A_3 O27_3 1_555 1_555
Mo4A O21A 1_555 1_555
Mo4A O24A 1_555 1_555
Mo4A O26A 1_555 1_555
Mo4_2 O21_2 1_555 1_555
Mo4_2 O24_2 1_555 1_555
Mo4_2 O26_2 1_555 1_555
Mo4A_2 O8A_2 1_555 1_555
Mo4A_2 O21A_2 1_555 1_555
Mo4A_2 O24A_2 1_555 1_555
Mo4A_2 O26A_2 1_555 1_555
Mo4_3 O21_3 1_555 1_555
Mo4_3 O24_3 1_555 1_555
Mo4_3 O26_3 1_555 1_555
Mo4A_3 O21A_3 1_555 1_555
Mo4A_3 O24A_3 1_555 1_555
Mo4A_3 O26A_3 1_555 1_555
Mo5A O6A 1_555 1_555
Mo5A O10A 1_555 1_555
Mo5A O23A 1_555 1_555
Mo5A O25A 1_555 1_555
Mo5_2 O6_2 1_555 1_555
Mo5_2 O10_2 1_555 1_555
Mo5_2 O23_2 1_555 1_555
Mo5_2 O25_2 1_555 1_555
Mo5A_2 O6A_2 1_555 1_555
Mo5A_2 O10A_2 1_555 1_555
Mo5A_2 O23A_2 1_555 1_555
Mo5A_2 O25A_2 1_555 1_555
Mo5A_3 O6A_3 1_555 1_555
Mo5A_3 O10A_3 1_555 1_555
Mo5A_3 O23A_3 1_555 1_555
Mo5A_3 O25A_3 1_555 1_555
Mo5_3 O6_3 1_555 1_555
Mo5_3 O10_3 1_555 1_555
Mo5_3 O23_3 1_555 1_555
Mo5_3 O25_3 1_555 1_555
Mo6A O17A 1_555 1_555
Mo6A O18A 1_555 1_555
Mo6A O19A 1_555 1_555
Mo6A O20A 1_555 1_555
Mo6A O25A 1_555 1_555
Mo6A O27A 1_555 1_555
Mo6_2 O17_2 1_555 1_555
Mo6_2 O18_2 1_555 1_555
Mo6_2 O19_2 1_555 1_555
Mo6_2 O20_2 1_555 1_555
Mo6_2 O25_2 1_555 1_555
Mo6_2 O27_2 1_555 1_555
Mo6A_2 O17A_3 1_555 1_555
Mo6A_2 O18A_2 1_555 1_555
Mo6A_2 O19A_2 1_555 1_555
Mo6A_2 O20A_2 1_555 1_555
Mo6A_2 O25A_2 1_555 1_555
Mo6A_2 O27A_2 1_555 1_555
Mo6A_3 O17A_2 1_555 1_555
Mo6A_3 O18A_3 1_555 1_555
Mo6A_3 O19A_3 1_555 1_555
Mo6A_3 O20A_3 1_555 1_555
Mo6A_3 O25A_3 1_555 1_555
Mo6A_3 O27A_3 1_555 1_555
Mo6_3 O18_3 1_555 1_555
Mo6_3 O19_3 1_555 1_555
Mo6_3 O20_3 1_555 1_555
Mo6_3 O25_3 1_555 1_555
Mo6_3 O27_3 1_555 1_555
Mo6_4 O17_3 1_555 1_555
Si1_2 O24A 1_555 1_555
Si1_2 O25A 1_555 1_555
Si1_2 O25_2 1_555 1_555
Si1_2 O26A 1_555 1_555
Si1_2 O26_2 1_555 1_555
Si1_2 O27_2 1_555 1_555
Si1_2 O27A 1_555 1_555
Si1_3 O24_3 1_555 1_555
Si1_3 O25A_3 1_555 1_555
Si1_3 O25_3 1_555 1_555
Si1_3 O26_3 1_555 1_555
Si1_3 O26A_3 1_555 1_555
Si1_3 O27A_3 1_555 1_555
Si1_3 O27_3 1_555 1_555
C4A C7A 1_555 1_555
C5A C6A 1_555 1_555
C5_2 C6_2 1_555 1_555
C5A_2 C6A_2 1_555 1_555
C7_2 O28A 1_555 1_555
C7A_2 O28_2 1_555 1_555
C7A_3 O28_3 1_555 1_555
C7_3 O28A_3 1_555 1_555
C8A N11A 1_555 1_555
C9A N11A 1_555 1_555
C9A_2 N11A_2 1_555 1_555
C9_2 N11_2 1_555 1_555
C9_3 N11_3 1_555 1_555
C10A N10A 1_555 1_555
C10A N12A 1_555 1_555
C10_2 N10_2 1_555 1_555
C10_2 N12_2 1_555 1_555
C10A_2 N10A_2 1_555 1_555
C10A_2 N12A_2 1_555 1_555
C10A_3 N10A_3 1_555 1_555
C10A_3 N12A_3 1_555 1_555
C10_3 N10_3 1_555 1_555
C12A N7A 1_555 1_555
C12A N9A 1_555 1_555
C12_2 N7_2 1_555 1_555
C12_2 N9_2 1_555 1_555
C12A_2 N9A_2 1_555 1_555
C12A_3 N7A_3 1_555 1_555
C12A_3 N9A_3 1_555 1_555
C13A N8A 1_555 1_555
C13_2 N8_2 1_555 1_555
C13A_2 N8A_2 1_555 1_555
C13A_3 N8A_3 1_555 1_555
C18A C19A 1_555 1_555
C20A O29A 1_555 1_555
C22A N2A 1_555 1_555
C23A N1A 1_555 1_555
C23A N3A 1_555 1_555
C24A N4A 1_555 1_555
C24A N6A 1_555 1_555
C25A N5A 1_555 1_555
C26A N5A 1_555 1_555
N1A N2A 1_555 1_555
N7A N8A 1_555 1_555
N7_2 N8_2 1_555 1_555
N7A_2 N8A_2 1_555 1_555
N7A_3 N8A_3 1_555 1_555
N7_3 N8_3 1_555 1_555
N10_2 N11A_2 1_555 1_555
N10A_2 N11_2 1_555 1_555
N10A_3 N11_3 1_555 1_555
N10_3 N11A_3 1_555 1_555
O24_2 O26_2 1_555 1_555
O24A O26A 1_555 1_555
O24A_2 O26A_2 1_555 1_555
O24A_3 O26A_3 1_555 1_555
O24_3 O26_3 1_555 1_555
O26A O27_2 1_555 1_555
O26_2 O27A 1_555 1_555
O26_3 O27A_3 1_555 1_555
O26A_3 O27_3 1_555 1_555

#END
