
#######################################################################
#
#                 Cambridge Crystallographic Data Centre
#                                CCDC 
#
#######################################################################
#
# If this CIF has been generated from an entry in the Cambridge 
# Structural Database, then it will include bibliographic, chemical, 
# crystal, experimental, refinement or atomic coordinate data resulting 
# from the CCDC's data processing and validation procedures.
#
#######################################################################

data_XIZKAU
_symmetry_cell_setting           triclinic
_symmetry_space_group_name_H-M   'P -1'
_symmetry_Int_Tables_number      2
_space_group_name_Hall           '-P 1'
loop_
_symmetry_equiv_pos_site_id
_symmetry_equiv_pos_as_xyz
1 x,y,z
2 -x,-y,-z
_cell_length_a                   8.97022(17)
_cell_length_b                   15.2256(4)
_cell_length_c                   23.7904(7)
_cell_angle_alpha                74.036(2)
_cell_angle_beta                 88.6555(19)
_cell_angle_gamma                82.0711(19)
_cell_volume                     3093.69
loop_
_atom_site_label
_atom_site_type_symbol
_atom_site_fract_x
_atom_site_fract_y
_atom_site_fract_z
Ir1 Ir -0.33066(3) 0.999938(15) -0.200724(10)
Ir2 Ir 0.78994(3) 0.458550(17) 0.326893(10)
Nd1 Nd 0.19937(4) 0.54898(2) 0.003311(14)
O1 O -0.3593(5) 0.5785(3) 0.01341(19)
N1 N 0.8564(5) 0.5275(4) 0.2414(2)
O2 O 0.2542(5) 0.6350(3) -0.0926(2)
O3 O 0.2924(6) 0.4762(4) 0.0994(2)
O4 O 1.0568(6) 0.6664(3) 0.0393(2)
O5 O -0.6008(5) 0.6365(3) 0.0155(2)
N2 N -0.3857(5) 0.8914(3) -0.1285(2)
N3 N 0.5980(6) 0.4652(4) 0.2728(2)
N4 N -0.3653(6) 0.9321(4) -0.2617(2)
O6 O 0.1641(6) 0.3942(4) 0.1716(2)
N5 N -0.1180(5) 0.9142(3) -0.1770(2)
N6 N 0.8597(6) 0.3282(4) 0.3204(2)
O7 O 0.3788(5) 0.7152(4) -0.1679(2)
C1 C 0.7091(7) 0.3861(5) 0.4013(2)
N7 N -0.3124(6) 1.0846(4) -0.1488(2)
C2 C -0.2595(6) 1.0878(4) -0.2721(3)
O8 O -0.0069(6) 0.5374(4) -0.0559(3)
C3 C -0.5214(7) 0.8854(4) -0.1035(3)
H1 H -0.5970 0.9354 -0.1145
N8 N 0.7340(6) 0.5821(4) 0.3459(2)
C4 C 0.9853(7) 0.5655(5) 0.2278(3)
H2 H 1.0532 0.5605 0.2578
O9 O 0.8345(7) 0.7479(4) 0.0469(3)
C5 C 0.1350(7) 0.7808(4) -0.1481(3)
C6 C 0.5124(7) 0.4874(4) 0.1745(3)
H3 H 0.5276 0.5083 0.1345
C7 C 0.6196(7) 0.4939(4) 0.2146(3)
C8 C 0.9703(7) 0.5351(5) 0.3961(3)
C9 C -0.2995(6) 0.7380(4) -0.0698(3)
H4 H -0.2223 0.6889 -0.0588
C10 C 0.3828(7) 0.4490(4) 0.1955(3)
C11 C 0.8321(7) 0.6032(4) 0.3806(3)
C12 C 0.7583(7) 0.5357(4) 0.1970(3)
C13 C -0.2740(6) 0.8186(4) -0.1112(3)
C14 C -0.0019(7) 0.7646(4) -0.1227(3)
H5 H -0.0107 0.7085 -0.0956
C15 C -0.1267(7) 0.8317(4) -0.1374(3)
C16 C 0.9551(7) 0.3077(5) 0.2795(3)
H6 H 0.9842 0.3557 0.2497
C17 C 0.2692(7) 0.4385(5) 0.1516(3)
C18 C 0.8170(8) 0.2590(5) 0.3640(3)
C19 C -0.4320(8) 0.8548(4) -0.2508(3)
H7 H -0.4548 0.8258 -0.2124
C20 C -0.5374(7) 1.0735(4) -0.2147(3)
C21 C 0.1449(7) 0.8673(4) -0.1869(3)
H8 H 0.2363 0.8819 -0.2035
C22 C 1.0207(7) 0.6116(5) 0.1709(3)
H9 H 1.1123 0.6344 0.1629
C23 C -0.5516(7) 0.8062(4) -0.0614(3)
H10 H -0.6459 0.8038 -0.0444
C24 C -0.6535(7) 1.0690(4) -0.2512(3)
H11 H -0.6383 1.0282 -0.2742
C25 C -0.4395(6) 0.7307(4) -0.0449(2)
C26 C 0.0158(7) 0.9305(4) -0.1999(3)
H12 H 0.0226 0.9876 -0.2262
C27 C 0.2696(6) 0.7042(4) -0.1357(3)
C28 C -0.4688(7) 0.6416(4) -0.0024(2)
C29 C 0.7854(7) 0.5836(5) 0.1397(3)
H13 H 0.7154 0.5891 0.1103
C30 C 0.4716(7) 0.4293(5) 0.2925(3)
H14 H 0.4570 0.4095 0.3326
C31 C 0.3619(7) 0.4210(5) 0.2545(3)
H15 H 0.2749 0.3965 0.2692
C32 C 0.7269(7) 0.2892(5) 0.4089(3)
C33 C -0.1859(9) 1.0902(5) -0.1223(3)
H16 H -0.1011 1.0483 -0.1238
C34 C 0.8025(8) 0.6836(5) 0.3992(3)
H17 H 0.8697 0.6967 0.4240
C35 C 0.9165(7) 0.6229(5) 0.1264(3)
C36 C 0.5939(9) 0.2628(6) 0.4987(3)
H18 H 0.5525 0.2231 0.5302
C37 C -0.2032(7) 1.1719(5) -0.2768(3)
H19 H -0.2002 1.1933 -0.2438
C38 C 1.1019(8) 0.3921(5) 0.3868(3)
H20 H 1.1090 0.3407 0.3724
C39 C 0.9752(7) 0.4583(5) 0.3733(3)
C40 C 0.9364(8) 0.6846(4) 0.0652(3)
C41 C -0.1756(11) 1.1553(6) -0.0930(4)
H21 H -0.0844 1.1592 -0.0767
C42 C 0.6335(8) 0.4169(5) 0.4458(3)
H22 H 0.6193 0.4796 0.4428
C43 C 0.5787(8) 0.3566(6) 0.4944(3)
H23 H 0.5319 0.3790 0.5239
C44 C -0.5671(8) 1.1369(5) -0.1808(3)
C45 C 0.6709(9) 0.7435(5) 0.3799(4)
H24 H 0.6508 0.7982 0.3907
C46 C 0.6692(9) 0.2287(5) 0.4571(3)
H25 H 0.6821 0.1657 0.4608
C47 C 1.2190(8) 0.4016(6) 0.4217(3)
H26 H 1.3030 0.3567 0.4302
C48 C 1.0867(8) 0.5436(5) 0.4316(3)
H27 H 1.0804 0.5939 0.4470
C49 C -0.4389(8) 1.1451(5) -0.1463(3)
C50 C 1.2101(8) 0.4770(6) 0.4434(3)
H28 H 1.2886 0.4829 0.4664
C51 C -0.3282(8) 0.9755(5) -0.3180(3)
C52 C 0.5710(9) 0.7215(5) 0.3449(3)
H29 H 0.4815 0.7601 0.3323
C53 C 1.0104(9) 0.2190(5) 0.2804(3)
H30 H 1.0782 0.2071 0.2524
C54 C -0.1523(9) 1.2228(5) -0.3294(4)
H31 H -0.1151 1.2776 -0.3315
C55 C -0.2632(8) 1.0605(5) -0.3238(3)
C56 C 0.6059(8) 0.6405(5) 0.3285(3)
H32 H 0.5383 0.6258 0.3046
C57 C -0.7922(8) 1.1242(5) -0.2540(4)
H33 H -0.8662 1.1202 -0.2795
C58 C 0.8667(10) 0.1668(5) 0.3663(3)
H34 H 0.8354 0.1191 0.3958
C59 C 0.9644(11) 0.1485(6) 0.3232(4)
H35 H 0.9984 0.0878 0.3236
C60 C -0.1563(10) 1.1928(7) -0.3785(4)
H36 H -0.1230 1.2281 -0.4138
C61 C -0.3030(11) 1.2148(6) -0.0880(4)
H37 H -0.3000 1.2577 -0.0669
C62 C -0.3568(11) 0.9379(7) -0.3629(3)
H38 H -0.3296 0.9661 -0.4009
C63 C -0.4675(10) 0.8177(6) -0.2948(4)
H39 H -0.5182 0.7664 -0.2868
C64 C -0.8222(9) 1.1825(6) -0.2213(5)
H40 H -0.9165 1.2175 -0.2233
C65 C -0.4336(10) 1.2097(6) -0.1147(4)
H41 H -0.5199 1.2497 -0.1119
C66 C -0.2095(10) 1.1104(6) -0.3765(3)
H42 H -0.2092 1.0892 -0.4096
C67 C -0.7070(10) 1.1907(6) -0.1829(5)
H43 H -0.7254 1.2312 -0.1598
C68 C -0.4245(13) 0.8597(7) -0.3519(4)
H44 H -0.4420 0.8345 -0.3822
Nd1_2 Nd -0.80063(4) 0.54898(2) 0.003311(14)
Nd1_3 Nd 1.19937(4) 0.54898(2) 0.003311(14)
Nd1A Nd -0.19937(4) 0.45102(2) -0.003311(14)
O1A O 0.3593(5) 0.4215(3) -0.01341(19)
O4_2 O 0.0568(6) 0.6664(3) 0.0393(2)
O5_2 O 0.3992(5) 0.6365(3) 0.0155(2)
O8A O 0.0069(6) 0.4626(4) 0.0559(3)
O10 O 0.152(2) 0.9868(14) -0.0707(9)
loop_
_geom_bond_atom_site_label_1
_geom_bond_atom_site_label_2
_geom_bond_site_symmetry_1
_geom_bond_site_symmetry_2
Ir1 N2 1_555 1_555
Ir2 N1 1_555 1_555
Nd1 O2 1_555 1_555
O1 C28 1_555 1_555
N1 C4 1_555 1_555
O2 C27 1_555 1_555
O3 Nd1 1_555 1_555
O4 C40 1_555 1_555
O5 C28 1_555 1_555
N2 C3 1_555 1_555
N3 Ir2 1_555 1_555
N4 Ir1 1_555 1_555
O6 C17 1_555 1_555
N5 Ir1 1_555 1_555
N6 Ir2 1_555 1_555
O7 C27 1_555 1_555
C1 Ir2 1_555 1_555
N7 Ir1 1_555 1_555
C2 Ir1 1_555 1_555
O8 Nd1 1_555 1_555
C3 H1 1_555 1_555
N8 Ir2 1_555 1_555
C4 H2 1_555 1_555
O9 C40 1_555 1_555
C5 C14 1_555 1_555
C6 H3 1_555 1_555
C7 N3 1_555 1_555
C8 C11 1_555 1_555
C9 H4 1_555 1_555
C10 C6 1_555 1_555
C11 N8 1_555 1_555
C12 N1 1_555 1_555
C13 N2 1_555 1_555
C14 H5 1_555 1_555
C15 N5 1_555 1_555
C16 N6 1_555 1_555
H6 C16 1_555 1_555
C17 O3 1_555 1_555
C18 N6 1_555 1_555
C19 N4 1_555 1_555
H7 C19 1_555 1_555
C20 Ir1 1_555 1_555
C21 C5 1_555 1_555
H8 C21 1_555 1_555
C22 C4 1_555 1_555
H9 C22 1_555 1_555
C23 C3 1_555 1_555
H10 C23 1_555 1_555
C24 C20 1_555 1_555
H11 C24 1_555 1_555
C25 C9 1_555 1_555
C26 N5 1_555 1_555
H12 C26 1_555 1_555
C27 C5 1_555 1_555
C28 C25 1_555 1_555
C29 C12 1_555 1_555
H13 C29 1_555 1_555
C30 N3 1_555 1_555
H14 C30 1_555 1_555
C31 C10 1_555 1_555
H15 C31 1_555 1_555
C32 C1 1_555 1_555
C33 N7 1_555 1_555
H16 C33 1_555 1_555
C34 C11 1_555 1_555
H17 C34 1_555 1_555
C35 C22 1_555 1_555
C36 H18 1_555 1_555
C37 C2 1_555 1_555
H19 C37 1_555 1_555
C38 H20 1_555 1_555
C39 Ir2 1_555 1_555
C40 C35 1_555 1_555
C41 C33 1_555 1_555
H21 C41 1_555 1_555
C42 C1 1_555 1_555
H22 C42 1_555 1_555
C43 C36 1_555 1_555
H23 C43 1_555 1_555
C44 C20 1_555 1_555
C45 C34 1_555 1_555
H24 C45 1_555 1_555
C46 C32 1_555 1_555
H25 C46 1_555 1_555
C47 C38 1_555 1_555
H26 C47 1_555 1_555
C48 C8 1_555 1_555
H27 C48 1_555 1_555
C49 N7 1_555 1_555
C50 C47 1_555 1_555
H28 C50 1_555 1_555
C51 N4 1_555 1_555
C52 C45 1_555 1_555
H29 C52 1_555 1_555
C53 C16 1_555 1_555
H30 C53 1_555 1_555
C54 C37 1_555 1_555
H31 C54 1_555 1_555
C55 C2 1_555 1_555
C56 N8 1_555 1_555
H32 C56 1_555 1_555
C57 C24 1_555 1_555
H33 C57 1_555 1_555
C58 C18 1_555 1_555
H34 C58 1_555 1_555
C59 C53 1_555 1_555
H35 C59 1_555 1_555
C60 C54 1_555 1_555
H36 C60 1_555 1_555
C61 C41 1_555 1_555
H37 C61 1_555 1_555
C62 C51 1_555 1_555
H38 C62 1_555 1_555
C63 C19 1_555 1_555
H39 C63 1_555 1_555
C64 C57 1_555 1_555
H40 C64 1_555 1_555
C65 C49 1_555 1_555
H41 C65 1_555 1_555
C66 C55 1_555 1_555
H42 C66 1_555 1_555
C67 C44 1_555 1_555
H43 C67 1_555 1_555
C68 C62 1_555 1_555
H44 C68 1_555 1_555
Nd1_2 O5 1_555 1_555
Nd1_3 O4 1_555 1_555
Nd1A O1 1_555 1_555
O1A Nd1 1_555 1_555
O4_2 Nd1 1_555 1_555
O5_2 Nd1 1_555 1_555
O8A Nd1 1_555 1_555
O8 Nd1A 1_555 1_555
C6 C7 1_555 1_555
C7 C12 1_555 1_555
C8 C39 1_555 1_555
C9 C13 1_555 1_555
C10 C17 1_555 1_555
C13 C15 1_555 1_555
C14 C15 1_555 1_555
C18 C32 1_555 1_555
C21 C26 1_555 1_555
C23 C25 1_555 1_555
C29 C35 1_555 1_555
C30 C31 1_555 1_555
C36 C46 1_555 1_555
C38 C39 1_555 1_555
C42 C43 1_555 1_555
C44 C49 1_555 1_555
C48 C50 1_555 1_555
C51 C55 1_555 1_555
C52 C56 1_555 1_555
C58 C59 1_555 1_555
C60 C66 1_555 1_555
C61 C65 1_555 1_555
C63 C68 1_555 1_555
C64 C67 1_555 1_555
Nd1A O8A 1_555 1_555

#END
