
#######################################################################
#
#                 Cambridge Crystallographic Data Centre
#                                CCDC 
#
#######################################################################
#
# If this CIF has been generated from an entry in the Cambridge 
# Structural Database, then it will include bibliographic, chemical, 
# crystal, experimental, refinement or atomic coordinate data resulting 
# from the CCDC's data processing and validation procedures.
#
#######################################################################

data_XIZKOH
_symmetry_cell_setting           monoclinic
_symmetry_space_group_name_H-M   'P 2/c'
_symmetry_Int_Tables_number      13
_space_group_name_Hall           '-P 2yc'
loop_
_symmetry_equiv_pos_site_id
_symmetry_equiv_pos_as_xyz
1 x,y,z
2 -x,y,1/2-z
3 -x,-y,-z
4 x,-y,1/2+z
_cell_length_a                   10.1726(11)
_cell_length_b                   11.6397(13)
_cell_length_c                   16.2535(18)
_cell_angle_alpha                90
_cell_angle_beta                 103.310(3)
_cell_angle_gamma                90
_cell_volume                     1872.82
loop_
_atom_site_label
_atom_site_type_symbol
_atom_site_fract_x
_atom_site_fract_y
_atom_site_fract_z
Mn1 Mn 0.38258(5) 0.65341(4) 0.83323(4)
N1 N 0.3854(4) 0.8500(2) 0.8285(2)
N2 N 0.3953(3) 1.4595(2) 0.83034(19)
O1 O 0.1574(3) 0.6275(3) 0.82769(19)
O2 O 0.2902(3) 0.6712(3) 0.94757(19)
O3 O -0.3424(3) 0.6544(2) 0.79949(17)
O4 O -0.4195(2) 0.6562(2) 0.91502(17)
C1 C 0.3875(4) 1.0907(3) 0.8291(2)
C2 C 0.3100(4) 1.4005(3) 0.7703(3)
H1 H 0.2512 1.4413 0.7281
C3 C 0.3048(4) 1.2815(3) 0.7677(3)
H2 H 0.2433 1.2443 0.7247
C4 C 0.3911(4) 1.2184(3) 0.8292(2)
C5 C 0.4794(4) 1.2796(3) 0.8911(3)
H3 H 0.5395 1.2407 0.9338
C6 C 0.4785(4) 1.3974(3) 0.8896(2)
H4 H 0.5391 1.4362 0.9321
C7 C 0.0551(4) 0.6530(4) 0.9432(3)
C8 C -0.1842(4) 0.6525(3) 0.9308(2)
C9 C -0.0752(4) 0.6535(3) 0.8932(2)
H5 H -0.0893 0.6545 0.8346
C10 C 0.1751(4) 0.6513(3) 0.9040(3)
C11 C -0.3252(4) 0.6546(3) 0.8776(2)
C12 C 0.0758(8) 0.6296(5) 1.0312(6)
H6 H 0.1632 0.6212 1.0640
C13 C -0.1615(8) 0.6258(5) 1.0178(5)
H7 H -0.2351 0.6124 1.0414
C14 C -0.0330(7) 0.6192(6) 1.0682(4)
O5 O -0.0049(5) 0.6018(5) 1.1539(3)
H8 H -0.0758 0.5961 1.1695
C18 C 0.5048(9) 1.0285(7) 0.8674(6)
H12 H 0.5834 1.0668 0.8938
C19 C 0.5013(10) 0.9105(8) 0.8651(6)
H13 H 0.5794 0.8698 0.8890
C20 C 0.2747(9) 1.0289(7) 0.7948(6)
H14 H 0.1950 1.0669 0.7698
C21 C 0.2773(10) 0.9109(7) 0.7968(6)
H15 H 0.1974 0.8718 0.7742
Mn1_2 Mn 0.38258(5) 1.65341(4) 0.83323(4)
Mn1A Mn -0.38258(5) 0.65341(4) 0.66677(4)
Mn1_3 Mn -0.61742(5) 0.65341(4) 0.83323(4)
N2_2 N 0.3953(3) 0.4595(2) 0.83034(19)
O3A O 0.3424(3) 0.6544(2) 0.70051(17)
O4_2 O 0.5805(2) 0.6562(2) 0.91502(17)
O10 O -0.0154(16) 0.9795(10) 1.1377(17)
O13 O 0.082(4) 1.0648(17) 1.023(4)
O6? O -0.0103(16) 0.8801(13) 1.2035(11)
C15? C 0.0762(15) 0.6905(10) 1.0262(10)
H9? H 0.1627 0.7092 1.0564
C16? C -0.1604(13) 0.6898(9) 1.0150(9)
H10? H -0.2330 0.7081 1.0385
C17? C -0.0304(11) 0.6997(10) 1.0633(7)
O7? O -0.0082(8) 0.7233(8) 1.1500(5)
H11? H 0.0731 0.7291 1.1703
O8? O 0.0000 0.5368(10) 1.2500
C22? C 0.4422(11) 1.0269(9) 0.8975(8)
H16? H 0.4831 1.0625 0.9482
C23? C 0.4376(13) 0.9094(11) 0.8923(9)
H17? H 0.4773 0.8693 0.9412
C24? C 0.3311(10) 1.0332(9) 0.7551(8)
H18? H 0.2935 1.0737 0.7060
C25? C 0.3315(12) 0.9106(9) 0.7551(9)
H19? H 0.2953 0.8710 0.7053
O9? O -0.0155(17) 1.0701(19) 1.1973(12)
O11? O -0.010(7) 0.991(5) 1.072(3)
O12? O -0.184(3) 1.056(4) 0.973(2)
loop_
_geom_bond_atom_site_label_1
_geom_bond_atom_site_label_2
_geom_bond_site_symmetry_1
_geom_bond_site_symmetry_2
Mn1 N1 1_555 1_555
N1 C19 1_555 1_555
N2 C2 1_555 1_555
O1 Mn1 1_555 1_555
O2 Mn1 1_555 1_555
O3 C11 1_555 1_555
O4 C11 1_555 1_555
C1 C4 1_555 1_555
C2 H1 1_555 1_555
C3 C2 1_555 1_555
H2 C3 1_555 1_555
C4 C3 1_555 1_555
C5 C4 1_555 1_555
H3 C5 1_555 1_555
C6 N2 1_555 1_555
H4 C6 1_555 1_555
C7 C9 1_555 1_555
C8 C9 1_555 1_555
C9 H5 1_555 1_555
C10 O1 1_555 1_555
C11 C8 1_555 1_555
C12 C7 1_555 1_555
H6 C12 1_555 1_555
C13 C8 1_555 1_555
H7 C13 1_555 1_555
C14 C12 1_555 1_555
O5 C14 1_555 1_555
H8 O5 1_555 1_555
C18 C1 1_555 1_555
H12 C18 1_555 1_555
C19 C18 1_555 1_555
H13 C19 1_555 1_555
C20 C1 1_555 1_555
H14 C20 1_555 1_555
C21 N1 1_555 1_555
H15 C21 1_555 1_555
Mn1_2 N2 1_555 1_555
Mn1A O3 1_555 1_555
Mn1_3 O4 1_555 1_555
N2_2 Mn1 1_555 1_555
O3A Mn1 1_555 1_555
O4_2 Mn1 1_555 1_555
O2 C10 1_555 1_555
C5 C6 1_555 1_555
C7 C10 1_555 1_555
C13 C14 1_555 1_555
C20 C21 1_555 1_555

#END
