
#######################################################################
#
#                 Cambridge Crystallographic Data Centre
#                                CCDC 
#
#######################################################################
#
# If this CIF has been generated from an entry in the Cambridge 
# Structural Database, then it will include bibliographic, chemical, 
# crystal, experimental, refinement or atomic coordinate data resulting 
# from the CCDC's data processing and validation procedures.
#
#######################################################################

data_XIZKUN
_symmetry_cell_setting           monoclinic
_symmetry_space_group_name_H-M   'P 2/n'
_symmetry_Int_Tables_number      13
_space_group_name_Hall           '-P 2yac'
loop_
_symmetry_equiv_pos_site_id
_symmetry_equiv_pos_as_xyz
1 x,y,z
2 1/2-x,y,1/2-z
3 -x,-y,-z
4 1/2+x,-y,1/2+z
_cell_length_a                   11.6900(8)
_cell_length_b                   10.1772(7)
_cell_length_c                   17.9098(12)
_cell_angle_alpha                90
_cell_angle_beta                 102.326(2)
_cell_angle_gamma                90
_cell_volume                     2081.64
loop_
_atom_site_label
_atom_site_type_symbol
_atom_site_fract_x
_atom_site_fract_y
_atom_site_fract_z
Mn1 Mn 0.46478(7) 0.34742(7) 0.42333(4)
N1 N 0.6606(4) 0.3521(5) 0.4208(3)
C1 C 0.7413(5) 0.3102(7) 0.4792(4)
H1 H 0.7168 0.2814 0.5225
C2 C 0.8584(5) 0.3065(7) 0.4801(4)
H2 H 0.9107 0.2749 0.5230
C3 C 0.8989(5) 0.3493(5) 0.4181(3)
C4 C 0.8170(6) 0.3979(9) 0.3579(4)
H3 H 0.8403 0.4324 0.3154
C5 C 0.7000(6) 0.3953(9) 0.3608(4)
H4 H 0.6457 0.4253 0.3185
N2 N 1.2684(4) 0.3551(4) 0.4219(3)
C6 C 1.1888(6) 0.3550(8) 0.3569(4)
H5 H 1.2152 0.3561 0.3114
C7 C 1.0713(6) 0.3534(8) 0.3524(4)
H6 H 1.0202 0.3530 0.3048
C8 C 1.0271(5) 0.3522(5) 0.4183(3)
C9 C 1.1099(6) 0.3476(6) 0.4874(4)
H7 H 1.0859 0.3425 0.5336
C10 C 1.2265(5) 0.3506(6) 0.4861(4)
H8 H 1.2801 0.3495 0.5327
O1 O 0.4561(4) 0.1296(4) 0.4289(2)
O2 O 0.4300(4) 0.2167(4) 0.3153(2)
O3 O 0.4904(4) -0.3596(4) 0.4563(2)
O4 O 0.4433(4) -0.4826(3) 0.3529(2)
O5 O 0.3566(6) -0.1741(5) 0.1353(3)
H9 H 0.3451 -0.1029 0.1135
C11 C 0.4232(6) -0.0175(5) 0.3235(3)
C12 C 0.3923(6) -0.0302(6) 0.2447(3)
H10 H 0.3770 0.0440 0.2139
C13 C 0.3843(7) -0.1547(6) 0.2122(3)
C14 C 0.4046(6) -0.2640(5) 0.2579(3)
H11 H 0.3987 -0.3470 0.2357
C15 C 0.4337(5) -0.2525(5) 0.3370(3)
C16 C 0.4421(5) -0.1271(5) 0.3699(3)
H12 H 0.4603 -0.1178 0.4227
C17 C 0.4362(5) 0.1180(5) 0.3572(3)
C18 C 0.4571(5) -0.3737(5) 0.3862(3)
Mn1_2 Mn -0.53522(7) 0.34742(7) 0.42333(4)
Mn1_3 Mn 1.46478(7) 0.34742(7) 0.42333(4)
Mn1B Mn 0.53522(7) -0.34742(7) 0.57667(4)
Mn1_4 Mn 0.46478(7) -0.65258(7) 0.42333(4)
Mn1B_2 Mn 0.53522(7) 0.65258(7) 0.57667(4)
N1_2 N -0.3394(4) 0.3521(5) 0.4208(3)
C1_2 C -0.2587(5) 0.3102(7) 0.4792(4)
H1_2 H -0.2832 0.2814 0.5225
C2_2 C -0.1416(5) 0.3065(7) 0.4801(4)
H2_2 H -0.0893 0.2749 0.5230
C3_2 C -0.1011(5) 0.3493(5) 0.4181(3)
C4_2 C -0.1830(6) 0.3979(9) 0.3579(4)
H3_2 H -0.1597 0.4324 0.3154
C5_2 C -0.3000(6) 0.3953(9) 0.3608(4)
H4_2 H -0.3543 0.4253 0.3185
N2_2 N 0.2684(4) 0.3551(4) 0.4219(3)
N2_3 N -0.7316(4) 0.3551(4) 0.4219(3)
C6_2 C 0.1888(6) 0.3550(8) 0.3569(4)
H5_2 H 0.2152 0.3561 0.3114
C7_2 C 0.0713(6) 0.3534(8) 0.3524(4)
H6_2 H 0.0202 0.3530 0.3048
C8_2 C 0.0271(5) 0.3522(5) 0.4183(3)
C9_2 C 0.1099(6) 0.3476(6) 0.4874(4)
H7_2 H 0.0859 0.3425 0.5336
C10_2 C 0.2265(5) 0.3506(6) 0.4861(4)
H8_2 H 0.2801 0.3495 0.5327
O1B O 0.5439(4) -0.1296(4) 0.5711(2)
O1_2 O -0.5439(4) 0.1296(4) 0.4289(2)
O2B O 0.5700(4) -0.2167(4) 0.6847(2)
O2_2 O -0.5700(4) 0.2167(4) 0.3153(2)
O3B O 0.5096(4) 0.3596(4) 0.5437(2)
O3B_2 O -0.4904(4) 0.3596(4) 0.5437(2)
O4B O 0.5567(4) 0.4826(3) 0.6471(2)
O4_2 O 0.4433(4) 0.5174(3) 0.3529(2)
O4_3 O -0.5567(4) 0.5174(3) 0.3529(2)
O5B O 0.6434(6) 0.1741(5) 0.8647(3)
H9B H 0.6549 0.1029 0.8865
C11B C 0.5768(6) 0.0175(5) 0.6765(3)
C12B C 0.6077(6) 0.0302(6) 0.7553(3)
H10B H 0.6230 -0.0440 0.7861
C13B C 0.6157(7) 0.1547(6) 0.7878(3)
C14B C 0.5954(6) 0.2640(5) 0.7421(3)
H11B H 0.6013 0.3470 0.7643
C15B C 0.5663(5) 0.2525(5) 0.6630(3)
C16B C 0.5579(5) 0.1271(5) 0.6301(3)
H12B H 0.5397 0.1178 0.5773
C17B C 0.5638(5) -0.1180(5) 0.6428(3)
C18B C 0.5429(5) 0.3737(5) 0.6138(3)
N3 N 0.7332(12) -0.0450(15) 0.4117(7)
C19 C 0.7570(12) -0.0268(14) 0.4886(8)
H13 H 0.6964 -0.0283 0.5148
C20 C 0.8654(11) -0.0072(11) 0.5264(6)
H14 H 0.8851 0.0019 0.5793
C21 C 0.9427(8) -0.0015(11) 0.4838(7)
C22 C 0.9289(11) -0.0108(14) 0.4076(7)
H15 H 0.9898 -0.0016 0.3820
C23 C 0.8124(10) -0.0359(13) 0.3710(7)
H16 H 0.7922 -0.0459 0.3182
N3B N 1.2668(12) 0.0450(15) 0.5883(7)
C19B C 1.2430(12) 0.0268(14) 0.5114(8)
H13B H 1.3036 0.0283 0.4852
C20B C 1.1346(11) 0.0072(11) 0.4736(6)
H14B H 1.1149 -0.0019 0.4207
C21B C 1.0573(8) 0.0015(11) 0.5162(7)
C22B C 1.0711(11) 0.0108(14) 0.5924(7)
H15B H 1.0102 0.0016 0.6180
C23B C 1.1876(10) 0.0359(13) 0.6290(7)
H16B H 1.2078 0.0459 0.6818
O8 O 0.6698(14) 0.0358(19) 0.2626(11)
O6? O 0.7568(10) -0.0250(9) 0.5372(6)
O7? O 0.7877(11) -0.087(3) 0.2698(10)
O9? O 0.764(3) -0.041(3) 0.3589(12)
loop_
_geom_bond_atom_site_label_1
_geom_bond_atom_site_label_2
_geom_bond_site_symmetry_1
_geom_bond_site_symmetry_2
Mn1 N1 1_555 1_555
N1 C1 1_555 1_555
C1 H1 1_555 1_555
C2 C1 1_555 1_555
H2 C2 1_555 1_555
C3 C2 1_555 1_555
C4 C3 1_555 1_555
H3 C4 1_555 1_555
C5 N1 1_555 1_555
H4 C5 1_555 1_555
N2 C6 1_555 1_555
C6 H5 1_555 1_555
C7 C6 1_555 1_555
H6 C7 1_555 1_555
C8 C3 1_555 1_555
C9 C8 1_555 1_555
H7 C9 1_555 1_555
C10 N2 1_555 1_555
H8 C10 1_555 1_555
O1 Mn1 1_555 1_555
O2 Mn1 1_555 1_555
O3 C18 1_555 1_555
O4 C18 1_555 1_555
O5 H9 1_555 1_555
C11 C12 1_555 1_555
C12 H10 1_555 1_555
C13 O5 1_555 1_555
C14 C13 1_555 1_555
H11 C14 1_555 1_555
C15 C14 1_555 1_555
C16 C11 1_555 1_555
H12 C16 1_555 1_555
C17 O1 1_555 1_555
C18 C15 1_555 1_555
N3 C19 1_555 1_555
C19 H13 1_555 1_555
C20 C19 1_555 1_555
H14 C20 1_555 1_555
C21 C20 1_555 1_555
C22 C21 1_555 1_555
H15 C22 1_555 1_555
C23 N3 1_555 1_555
H16 C23 1_555 1_555
Mn1_2 N1_2 1_555 1_555
Mn1_3 N2 1_555 1_555
Mn1B O3 1_555 1_555
Mn1_4 O4 1_555 1_555
Mn1B_2 O4B 1_555 1_555
N1_2 C1_2 1_555 1_555
C1_2 H1_2 1_555 1_555
C2_2 C1_2 1_555 1_555
H2_2 C2_2 1_555 1_555
C3_2 C2_2 1_555 1_555
C4_2 C3_2 1_555 1_555
H3_2 C4_2 1_555 1_555
C5_2 N1_2 1_555 1_555
H4_2 C5_2 1_555 1_555
N2_2 Mn1 1_555 1_555
N2_3 Mn1_2 1_555 1_555
C6_2 N2_2 1_555 1_555
H5_2 C6_2 1_555 1_555
C7_2 C6_2 1_555 1_555
H6_2 C7_2 1_555 1_555
C8_2 C3_2 1_555 1_555
C9_2 C8_2 1_555 1_555
H7_2 C9_2 1_555 1_555
C10_2 N2_2 1_555 1_555
H8_2 C10_2 1_555 1_555
O1B Mn1B 1_555 1_555
O1_2 Mn1_2 1_555 1_555
O2B Mn1B 1_555 1_555
O2_2 Mn1_2 1_555 1_555
O3B Mn1 1_555 1_555
O3B_2 Mn1_2 1_555 1_555
O4B C18B 1_555 1_555
O4_2 Mn1 1_555 1_555
O4_3 Mn1_2 1_555 1_555
O5B H9B 1_555 1_555
C11B C12B 1_555 1_555
C12B H10B 1_555 1_555
C13B O5B 1_555 1_555
C14B C13B 1_555 1_555
H11B C14B 1_555 1_555
C15B C14B 1_555 1_555
C16B C11B 1_555 1_555
H12B C16B 1_555 1_555
C17B O1B 1_555 1_555
C18B O3B 1_555 1_555
N3B C19B 1_555 1_555
C19B H13B 1_555 1_555
C20B C19B 1_555 1_555
H14B C20B 1_555 1_555
C21B C21 1_555 1_555
C22B C21B 1_555 1_555
H15B C22B 1_555 1_555
C23B N3B 1_555 1_555
H16B C23B 1_555 1_555
C4 C5 1_555 1_555
C7 C8 1_555 1_555
C9 C10 1_555 1_555
O2 C17 1_555 1_555
C11 C17 1_555 1_555
C12 C13 1_555 1_555
C15 C16 1_555 1_555
C22 C23 1_555 1_555
C4_2 C5_2 1_555 1_555
C7_2 C8_2 1_555 1_555
C9_2 C10_2 1_555 1_555
O2B C17B 1_555 1_555
C11B C17B 1_555 1_555
C12B C13B 1_555 1_555
C15B C16B 1_555 1_555
C15B C18B 1_555 1_555
C20B C21B 1_555 1_555
C22B C23B 1_555 1_555

#END
