
#######################################################################
#
#                 Cambridge Crystallographic Data Centre
#                                CCDC 
#
#######################################################################
#
# If this CIF has been generated from an entry in the Cambridge 
# Structural Database, then it will include bibliographic, chemical, 
# crystal, experimental, refinement or atomic coordinate data resulting 
# from the CCDC's data processing and validation procedures.
#
#######################################################################

data_XIZKAT
_symmetry_cell_setting           orthorhombic
_symmetry_space_group_name_H-M   'P c a 21'
_symmetry_Int_Tables_number      29
_space_group_name_Hall           'P 2c -2ac'
loop_
_symmetry_equiv_pos_site_id
_symmetry_equiv_pos_as_xyz
1 x,y,z
2 -x,-y,1/2+z
3 1/2-x,y,1/2+z
4 1/2+x,-y,z
_cell_length_a                   23.9330(7)
_cell_length_b                   14.0350(11)
_cell_length_c                   22.7060(12)
_cell_angle_alpha                90
_cell_angle_beta                 90
_cell_angle_gamma                90
_cell_volume                     7626.94
loop_
_atom_site_label
_atom_site_type_symbol
_atom_site_fract_x
_atom_site_fract_y
_atom_site_fract_z
Cu1 Cu 0.47594(10) 0.5105(2) 0.48712(13)
Cu2 Cu 0.46959(9) 0.97192(19) 0.47492(12)
W1 W 0.38962(2) 0.71324(4) 0.68167(3)
W2 W 0.64145(3) 0.64553(4) 0.69051(3)
W3 W 0.54293(3) 0.57663(4) 0.80575(3)
W4 W 0.62304(3) 0.85377(4) 0.61528(3)
W5 W 0.43077(3) 0.71889(4) 0.83574(3)
W6 W 0.50129(3) 0.56820(4) 0.65201(3)
W7 W 0.48299(3) 0.77496(5) 0.57462(3)
W8 W 0.54252(3) 1.01154(4) 0.79240(3)
W9 W 0.50336(3) 1.00434(4) 0.64725(3)
W10 W 0.66139(3) 0.85919(4) 0.76043(3)
W11 W 0.56186(3) 0.79058(4) 0.87368(3)
W12 W 0.41082(3) 0.94035(4) 0.75410(3)
Si1 Si 0.52439(17) 0.7879(2) 0.72321(17)
F1 F 0.3849(8) 0.6552(13) 0.4255(10)
F2 F 0.2755(7) 0.8945(11) 0.3408(6)
F3 F 0.7846(7) 0.6784(15) 0.3945(8)
F4 F 0.7770(10) 0.4012(19) 0.2846(8)
C1 C 0.3642(9) 1.016(2) 0.5417(11)
H1 H 0.3794 1.0124 0.5793
C2 C 0.3568(7) 1.0112(11) 0.4482(8)
H2 H 0.3639 1.0033 0.4083
C3 C 0.2534(7) 1.0407(12) 0.4409(8)
H3 H 0.2581 1.0536 0.3992
H4 H 0.2312 1.0916 0.4577
C4 C 0.2237(6) 0.9480(10) 0.4488(7)
C5 C 0.1739(7) 0.9375(15) 0.4040(9)
H5 H 0.1866 0.9558 0.3650
H6 H 0.1626 0.8711 0.4023
C6 C 0.0788(6) 0.9653(13) 0.4420(8)
H7 H 0.0711 0.9019 0.4507
C7 C 0.0773(7) 1.1117(15) 0.4335(10)
H8 H 0.0654 1.1747 0.4355
C8 C 0.2639(6) 0.8646(13) 0.4415(8)
C9 C 0.2813(10) 0.8123(13) 0.4867(8)
H9 H 0.2646 0.8251 0.5228
C10 C 0.3210(11) 0.7414(17) 0.4865(12)
H10 H 0.3306 0.7071 0.5201
C11 C 0.3466(10) 0.7246(17) 0.4298(12)
C12 C 0.3294(11) 0.7740(17) 0.3814(11)
H11 H 0.3454 0.7617 0.3448
C13 C 0.2889(8) 0.8412(15) 0.3868(8)
C14 C 0.8720(9) 0.4795(17) 0.5481(11)
H12 H 0.8841 0.4241 0.5665
C15 C 0.8738(7) 0.6023(14) 0.4919(10)
H13 H 0.8848 0.6481 0.4647
C16 C 0.7757(8) 0.6582(15) 0.5169(12)
H14 H 0.7666 0.6830 0.5556
H15 H 0.7836 0.7121 0.4914
C17 C 0.5879(8) 0.5894(16) 0.4962(8)
H16 H 0.5902 0.5820 0.5369
C18 C 0.5602(10) 0.5868(19) 0.4099(12)
H17 H 0.5380 0.5772 0.3768
C19 C 0.6778(8) 0.6750(14) 0.4814(9)
H18 H 0.6720 0.7110 0.5174
H19 H 0.6899 0.7189 0.4510
C20 C 0.7227(7) 0.6017(12) 0.4915(7)
C21 C 0.7382(6) 0.5497(12) 0.4332(8)
C22 C 0.7696(11) 0.5939(16) 0.3921(10)
C23 C 0.7782(14) 0.545(3) 0.3365(12)
H20 H 0.7929 0.5759 0.3039
C24 C 0.7636(12) 0.450(3) 0.3341(11)
C25 C 0.7367(11) 0.4107(18) 0.3754(12)
H21 H 0.7268 0.3469 0.3718
C26 C 0.7216(8) 0.4594(14) 0.4256(8)
H22 H 0.6999 0.4297 0.4542
N1 N 0.3936(6) 0.9962(10) 0.4883(8)
N2 N 0.3128(6) 1.0413(14) 0.5296(9)
N3 N 0.3077(6) 1.0387(10) 0.4691(6)
N4 N 0.0429(6) 1.0364(11) 0.4507(8)
N5 N 0.1259(5) 0.9952(12) 0.4198(6)
N6 N 0.1254(6) 1.0897(11) 0.4150(6)
N7 N 0.5454(7) 0.5590(11) 0.4636(7)
N8 N 0.6110(8) 0.6307(16) 0.4079(8)
N9 N 0.6262(6) 0.6311(10) 0.4640(7)
N10 N 0.9023(6) 0.5292(12) 0.5089(7)
N11 N 0.8250(6) 0.5994(10) 0.5212(8)
N12 N 0.8225(7) 0.5197(15) 0.5573(7)
O1 O 0.4715(5) 0.7850(10) 0.5016(5)
O2 O 0.4970(6) 0.4562(8) 0.6229(6)
O4 O 0.6918(5) 0.5634(9) 0.6782(6)
O6 O 0.5535(6) 0.4696(8) 0.8363(5)
O7 O 0.5856(7) 0.8059(10) 0.9428(5)
O8 O 0.5586(6) 1.1103(9) 0.8306(6)
O9 O 0.3512(5) 0.9958(8) 0.7706(6)
O10 O 0.4971(6) 1.0976(9) 0.6015(6)
O11 O 0.6626(6) 0.8900(9) 0.5582(6)
O12 O 0.7227(5) 0.8977(9) 0.7876(6)
O13 O 0.3783(6) 0.6981(10) 0.8836(5)
O14 O 0.3217(6) 0.6842(10) 0.6715(7)
O15 O 0.4064(7) 0.7523(10) 0.6026(6)
O16 O 0.5601(5) 0.7934(8) 0.5809(5)
O17 O 0.6699(5) 0.8940(8) 0.6777(6)
O18 O 0.6255(6) 0.8040(8) 0.8252(6)
O19 O 0.4859(6) 0.7655(9) 0.8942(6)
O20 O 0.5717(6) 0.6535(9) 0.8695(6)
O21 O 0.4696(6) 0.5990(8) 0.8399(6)
O22 O 0.4632(6) 1.0167(11) 0.7968(5)
O23 O 0.4153(6) 0.8485(8) 0.8150(5)
O24 O 0.3849(6) 0.8416(8) 0.7041(5)
O25 O 0.4313(5) 1.0146(9) 0.6861(5)
O26 O 0.3985(7) 0.6852(9) 0.7629(6)
O27 O 0.6074(5) 0.6026(11) 0.7601(5)
O28 O 0.6840(7) 0.7322(8) 0.7373(6)
O29 O 0.6532(6) 0.7279(8) 0.6254(5)
O30 O 0.5743(5) 0.9542(10) 0.6316(6)
O31 O 0.4930(5) 0.6381(9) 0.5794(6)
O32 O 0.4760(5) 0.9039(8) 0.6017(6)
O33 O 0.5776(5) 0.5952(10) 0.6501(5)
O34 O 0.4226(5) 0.5921(8) 0.6633(5)
O35 O 0.5427(5) 0.9173(9) 0.8517(7)
O36 O 0.5361(5) 1.0672(9) 0.7143(5)
O37 O 0.6125(5) 0.9627(8) 0.7680(5)
O38 O 0.5053(5) 0.5483(10) 0.7312(5)
O39 O 0.5894(5) 0.7861(8) 0.7026(5)
O40 O 0.4866(4) 0.7308(7) 0.6754(5)
O41 O 0.5026(4) 0.8980(7) 0.7273(5)
O42 O 0.5165(4) 0.7389(9) 0.7877(5)
O43 O 0.2005(5) 0.9396(8) 0.5061(5)
H53 H 0.1781 0.9829 0.5115
O44 O 0.7019(5) 0.5395(10) 0.5325(5)
H54 H 0.6944 0.5686 0.5628
Cu1C Cu 0.97594(10) 0.4895(2) 0.48712(13)
Cu2C Cu -0.03041(9) 1.02808(19) 0.47492(12)
N4C N 0.5429(6) 0.9636(11) 0.4507(8)
N10C N 0.4023(6) 0.4708(12) 0.5089(7)
C27 C 0.366(2) 0.389(3) 0.711(2)
H23 H 0.3478 0.4028 0.6738
H24 H 0.4044 0.4129 0.7069
C28 C 0.3389(19) 0.449(3) 0.756(2)
H25 H 0.3414 0.5145 0.7453
H26 H 0.3572 0.4392 0.7934
H27 H 0.3004 0.4305 0.7595
C29 C 0.315(4) 0.246(5) 0.716(3)
H28 H 0.2868 0.2958 0.7131
H29 H 0.3080 0.2098 0.7515
C30 C 0.3104(18) 0.180(3) 0.6624(18)
H30 H 0.2728 0.1574 0.6587
H31 H 0.3353 0.1273 0.6674
H32 H 0.3205 0.2150 0.6276
C31 C 0.394(3) 0.248(4) 0.768(3)
H33 H 0.3748 0.2745 0.8019
H34 H 0.3875 0.1794 0.7686
C32 C 0.452(2) 0.263(3) 0.775(2)
H35 H 0.4643 0.2325 0.8108
H36 H 0.4588 0.3305 0.7783
H37 H 0.4716 0.2377 0.7423
N13 N 0.3701(10) 0.2860(16) 0.7161(10)
C33 C 0.6317(16) 0.229(3) 0.5833(18)
H38 H 0.5995 0.1869 0.5836
H39 H 0.6625 0.1908 0.5688
C34 C 0.620(2) 0.297(3) 0.535(2)
H40 H 0.6058 0.2627 0.5015
H41 H 0.6538 0.3291 0.5242
H42 H 0.5928 0.3426 0.5478
C35 C 0.6620(15) 0.132(3) 0.670(2)
H43 H 0.6464 0.1215 0.7085
H44 H 0.6483 0.0836 0.6432
C36 C 0.7238(14) 0.132(3) 0.6718(18)
H45 H 0.7368 0.0679 0.6777
H46 H 0.7363 0.1714 0.7036
H47 H 0.7383 0.1560 0.6353
C37 C 0.595(2) 0.277(3) 0.6671(18)
H48 H 0.5698 0.2247 0.6736
H49 H 0.5781 0.3209 0.6394
C38 C 0.607(2) 0.331(4) 0.728(2)
H50 H 0.5826 0.3064 0.7575
H51 H 0.6009 0.3978 0.7227
H52 H 0.6453 0.3201 0.7392
N14 N 0.6443(8) 0.2439(15) 0.6445(9)
O3 O 0.7232(5) 0.3882(9) 0.6265(7)
O5 O 0.4324(13) 0.2766(19) 0.6133(13)
loop_
_geom_bond_atom_site_label_1
_geom_bond_atom_site_label_2
_geom_bond_site_symmetry_1
_geom_bond_site_symmetry_2
Cu1 N7 1_555 1_555
Cu2 N1 1_555 1_555
W1 O14 1_555 1_555
W2 O4 1_555 1_555
W3 O6 1_555 1_555
W4 O11 1_555 1_555
W5 O13 1_555 1_555
W6 O2 1_555 1_555
W7 O1 1_555 1_555
W8 O8 1_555 1_555
W9 O10 1_555 1_555
W10 O12 1_555 1_555
W11 O7 1_555 1_555
W12 O9 1_555 1_555
Si1 O39 1_555 1_555
F1 C11 1_555 1_555
F2 C13 1_555 1_555
F3 C22 1_555 1_555
F4 C24 1_555 1_555
C1 H1 1_555 1_555
C2 H2 1_555 1_555
C3 H3 1_555 1_555
H4 C3 1_555 1_555
C4 C3 1_555 1_555
C5 C4 1_555 1_555
H5 C5 1_555 1_555
H6 C5 1_555 1_555
C6 H7 1_555 1_555
C7 H8 1_555 1_555
C8 C4 1_555 1_555
C9 C8 1_555 1_555
H9 C9 1_555 1_555
C10 C9 1_555 1_555
H10 C10 1_555 1_555
C11 C10 1_555 1_555
C12 C11 1_555 1_555
H11 C12 1_555 1_555
C13 C8 1_555 1_555
C14 H12 1_555 1_555
C15 H13 1_555 1_555
C16 H14 1_555 1_555
H15 C16 1_555 1_555
C17 H16 1_555 1_555
C18 H17 1_555 1_555
C19 H18 1_555 1_555
H19 C19 1_555 1_555
C20 C16 1_555 1_555
C21 C20 1_555 1_555
C22 C21 1_555 1_555
C23 C22 1_555 1_555
H20 C23 1_555 1_555
C24 C23 1_555 1_555
C25 C24 1_555 1_555
H21 C25 1_555 1_555
C26 C21 1_555 1_555
H22 C26 1_555 1_555
C27 H23 1_555 1_555
H24 C27 1_555 1_555
C28 C27 1_555 1_555
H25 C28 1_555 1_555
H26 C28 1_555 1_555
H27 C28 1_555 1_555
C29 H28 1_555 1_555
H29 C29 1_555 1_555
C30 C29 1_555 1_555
H30 C30 1_555 1_555
H31 C30 1_555 1_555
H32 C30 1_555 1_555
C31 H33 1_555 1_555
H34 C31 1_555 1_555
C32 C31 1_555 1_555
H35 C32 1_555 1_555
H36 C32 1_555 1_555
H37 C32 1_555 1_555
C33 H38 1_555 1_555
H39 C33 1_555 1_555
C34 C33 1_555 1_555
H40 C34 1_555 1_555
H41 C34 1_555 1_555
H42 C34 1_555 1_555
C35 H43 1_555 1_555
H44 C35 1_555 1_555
C36 C35 1_555 1_555
H45 C36 1_555 1_555
H46 C36 1_555 1_555
H47 C36 1_555 1_555
C37 H48 1_555 1_555
H49 C37 1_555 1_555
C38 C37 1_555 1_555
H50 C38 1_555 1_555
H51 C38 1_555 1_555
H52 C38 1_555 1_555
N1 C1 1_555 1_555
N2 C1 1_555 1_555
N3 C2 1_555 1_555
N4 C6 1_555 1_555
N5 C5 1_555 1_555
N6 C7 1_555 1_555
N7 C17 1_555 1_555
N8 C18 1_555 1_555
N9 C17 1_555 1_555
N10 C14 1_555 1_555
N11 C15 1_555 1_555
N12 C14 1_555 1_555
N13 C27 1_555 1_555
N14 C33 1_555 1_555
O1 Cu2 1_555 1_555
O15 W1 1_555 1_555
O16 W4 1_555 1_555
O17 W4 1_555 1_555
O18 W10 1_555 1_555
O19 W5 1_555 1_555
O20 W3 1_555 1_555
O21 W3 1_555 1_555
O22 W8 1_555 1_555
O23 W5 1_555 1_555
O24 W1 1_555 1_555
O25 W9 1_555 1_555
O26 W1 1_555 1_555
O27 W2 1_555 1_555
O28 W2 1_555 1_555
O29 W2 1_555 1_555
O30 W4 1_555 1_555
O31 Cu1 1_555 1_555
O32 W7 1_555 1_555
O33 W2 1_555 1_555
O34 W1 1_555 1_555
O35 W8 1_555 1_555
O36 W8 1_555 1_555
O37 W8 1_555 1_555
O38 W3 1_555 1_555
O39 W2 1_555 1_555
O40 W1 1_555 1_555
O41 W8 1_555 1_555
O42 W3 1_555 1_555
O43 C4 1_555 1_555
H53 O43 1_555 1_555
O44 C20 1_555 1_555
H54 O44 1_555 1_555
Cu1C N10 1_555 1_555
Cu2C N4 1_555 1_555
N4C Cu2 1_555 1_555
N10C Cu1 1_555 1_555
W3 O27 1_555 1_555
W4 O29 1_555 1_555
W4 O39 1_555 1_555
W5 O21 1_555 1_555
W5 O26 1_555 1_555
W5 O42 1_555 1_555
W6 O31 1_555 1_555
W6 O33 1_555 1_555
W6 O34 1_555 1_555
W6 O38 1_555 1_555
W6 O40 1_555 1_555
W7 O15 1_555 1_555
W7 O16 1_555 1_555
W7 O31 1_555 1_555
W7 O40 1_555 1_555
W9 O30 1_555 1_555
W9 O32 1_555 1_555
W9 O36 1_555 1_555
W9 O41 1_555 1_555
W10 O17 1_555 1_555
W10 O28 1_555 1_555
W10 O37 1_555 1_555
W10 O39 1_555 1_555
W11 O18 1_555 1_555
W11 O19 1_555 1_555
W11 O20 1_555 1_555
W11 O35 1_555 1_555
W11 O42 1_555 1_555
W12 O22 1_555 1_555
W12 O23 1_555 1_555
W12 O24 1_555 1_555
W12 O25 1_555 1_555
W12 O41 1_555 1_555
Si1 O40 1_555 1_555
Si1 O41 1_555 1_555
Si1 O42 1_555 1_555
C2 N1 1_555 1_555
C3 N3 1_555 1_555
C6 N5 1_555 1_555
C7 N4 1_555 1_555
C12 C13 1_555 1_555
C15 N10 1_555 1_555
C16 N11 1_555 1_555
C18 N7 1_555 1_555
C19 C20 1_555 1_555
C19 N9 1_555 1_555
C25 C26 1_555 1_555
C29 N13 1_555 1_555
C31 N13 1_555 1_555
C35 N14 1_555 1_555
C37 N14 1_555 1_555
N2 N3 1_555 1_555
N5 N6 1_555 1_555
N8 N9 1_555 1_555
N11 N12 1_555 1_555

#END
