
#######################################################################
#
#                 Cambridge Crystallographic Data Centre
#                                CCDC 
#
#######################################################################
#
# If this CIF has been generated from an entry in the Cambridge 
# Structural Database, then it will include bibliographic, chemical, 
# crystal, experimental, refinement or atomic coordinate data resulting 
# from the CCDC's data processing and validation procedures.
#
#######################################################################

data_XIZKAS
_symmetry_cell_setting           triclinic
_symmetry_space_group_name_H-M   'P -1'
_symmetry_Int_Tables_number      2
_space_group_name_Hall           '-P 1'
loop_
_symmetry_equiv_pos_site_id
_symmetry_equiv_pos_as_xyz
1 x,y,z
2 -x,-y,-z
_cell_length_a                   10.4171(8)
_cell_length_b                   11.5232(8)
_cell_length_c                   11.7809(9)
_cell_angle_alpha                102.792(1)
_cell_angle_beta                 98.176(1)
_cell_angle_gamma                116.099(1)
_cell_volume                     1191.18
loop_
_atom_site_label
_atom_site_type_symbol
_atom_site_fract_x
_atom_site_fract_y
_atom_site_fract_z
Ag1 Ag 0.55559(4) 0.23168(3) 0.30493(3)
N1 N 0.6925(4) 0.4538(4) 0.2795(4)
C1 C 0.6741(5) 0.5555(4) 0.3419(4)
C2 C 0.7366(6) 0.6825(5) 0.3261(5)
H1 H 0.7191 0.7512 0.3703
N2 N 0.8213(5) 0.7106(5) 0.2499(4)
C3 C 0.8408(6) 0.6104(5) 0.1898(5)
H2 H 0.9020 0.6275 0.1363
C4 C 0.7750(5) 0.4817(5) 0.2024(4)
H3 H 0.7891 0.4121 0.1552
C5 C 0.5814(5) 0.5257(4) 0.4270(4)
N3 N 0.4906(4) 0.3949(4) 0.4143(4)
N4 N 0.5936(4) 0.6326(4) 0.5110(4)
N5 N 0.7739(4) 0.2148(4) 0.3807(4)
C6 C 0.7630(5) 0.1252(4) 0.4391(4)
C7 C 0.8757(5) 0.0936(5) 0.4657(4)
H4 H 0.8629 0.0294 0.5077
N6 N 1.0017(5) 0.1511(5) 0.4338(4)
C8 C 1.0132(6) 0.2421(6) 0.3772(5)
H5 H 1.1014 0.2866 0.3540
C9 C 0.9008(5) 0.2742(5) 0.3511(5)
H6 H 0.9147 0.3402 0.3111
C10 C 0.6219(5) 0.0582(4) 0.4718(4)
N7 N 0.5111(4) 0.0796(4) 0.4294(4)
N8 N 0.6152(4) -0.0197(4) 0.5425(4)
N9 N 0.2942(4) 0.0658(4) 0.1980(3)
C11 C 0.2623(5) -0.0249(4) 0.0905(4)
C12 C 0.1169(5) -0.1223(5) 0.0269(5)
H7 H 0.0986 -0.1859 -0.0484
N10 N 0.0016(5) -0.1293(5) 0.0687(4)
C13 C 0.0349(5) -0.0392(5) 0.1754(5)
H8 H -0.0438 -0.0409 0.2083
C14 C 0.1799(5) 0.0572(5) 0.2410(4)
H9 H 0.1979 0.1182 0.3178
C15 C 0.3899(5) -0.0134(4) 0.0430(4)
N11 N 0.5203(4) 0.1020(4) 0.0958(3)
N12 N 0.3656(4) -0.1165(4) -0.0521(3)
N4A N 0.4064(4) 0.3674(4) 0.4890(4)
C5A C 0.4186(5) 0.4743(4) 0.5730(4)
C1A C 0.3259(5) 0.4445(4) 0.6581(4)
N1A N 0.3075(4) 0.5462(4) 0.7205(4)
C4A C 0.2250(5) 0.5183(5) 0.7976(4)
C3A C 0.1592(6) 0.3896(5) 0.8102(5)
N2A N 0.1787(5) 0.2894(5) 0.7501(4)
C2A C 0.2634(6) 0.3175(5) 0.6739(5)
H1A H 0.2809 0.2488 0.6297
H2A H 0.0980 0.3725 0.8637
H3A H 0.2109 0.5879 0.8448
N3A N 0.5094(4) 0.6051(4) 0.5857(4)
N8A N 0.3848(4) 0.0197(4) 0.4575(4)
C10A C 0.3781(5) -0.0582(4) 0.5282(4)
C6A C 0.2370(5) -0.1252(4) 0.5609(4)
N5A N 0.2261(4) -0.2148(4) 0.6193(4)
C9A C 0.0992(5) -0.2742(5) 0.6489(5)
C8A C -0.0132(6) -0.2421(6) 0.6228(5)
N6A N -0.0017(5) -0.1511(5) 0.5662(4)
C7A C 0.1243(5) -0.0936(5) 0.5343(4)
H4A H 0.1371 -0.0294 0.4923
H5A H -0.1014 -0.2866 0.6460
H6A H 0.0853 -0.3402 0.6889
N7A N 0.4889(4) -0.0796(4) 0.5706(4)
N12A N 0.6344(4) 0.1165(4) 0.0521(3)
C15A C 0.6101(5) 0.0134(4) -0.0430(4)
C11A C 0.7377(5) 0.0249(4) -0.0905(4)
N9A N 0.7058(4) -0.0658(4) -0.1980(3)
C14A C 0.8201(5) -0.0572(5) -0.2410(4)
C13A C 0.9651(5) 0.0392(5) -0.1754(5)
N10A N 0.9984(5) 0.1293(5) -0.0687(4)
C12A C 0.8831(5) 0.1223(5) -0.0269(5)
H7A H 0.9014 0.1859 0.0484
H8A H 1.0438 0.0409 -0.2083
H9A H 0.8021 -0.1182 -0.3178
N11A N 0.4797(4) -0.1020(4) -0.0958(3)
Ag1A Ag 0.44441(4) 0.76832(3) 0.69507(3)
Ag1A_2 Ag 0.44441(4) -0.23168(3) 0.69507(3)
Ag1A_3 Ag 0.44441(4) -0.23168(3) -0.30493(3)
N5A_2 N 0.2261(4) 0.7852(4) 0.6193(4)
N7A_2 N 0.4889(4) 0.9204(4) 0.5706(4)
N9A_2 N 0.7058(4) 0.9342(4) 0.8020(3)
N11A_2 N 0.4797(4) 0.8980(4) 0.9042(3)
N13 N 0.3374(7) 0.0872(5) -0.1745(5)
C16 C 0.3612(6) 0.1822(6) -0.1017(5)
C17 C 0.3893(7) 0.3009(6) -0.0050(6)
H10 H 0.2954 0.3005 -0.0029
H11 H 0.4573 0.3841 -0.0197
H12 H 0.4342 0.2982 0.0726
Sb1 Sb 0.25196(4) 0.59148(3) 0.23290(3)
F1 F 0.0675(4) 0.4389(4) 0.1510(4)
F2 F 0.4348(4) 0.7452(4) 0.3211(4)
F3 F 0.3607(12) 0.5353(12) 0.1439(10)
F6 F 0.2234(14) 0.6765(13) 0.1192(10)
F9 F 0.1465(10) 0.6546(11) 0.3211(9)
F12 F 0.2834(11) 0.5126(10) 0.3478(9)
F4? F 0.3554(14) 0.4950(13) 0.1978(12)
F5? F 0.2957(13) 0.4673(11) 0.2813(11)
F7? F 0.2636(14) 0.6324(13) 0.0910(8)
F8? F 0.3192(11) 0.5633(10) 0.0963(8)
F10? F 0.1683(13) 0.6997(11) 0.2817(11)
F11? F 0.1974(15) 0.7095(12) 0.1779(12)
F13? F 0.2537(12) 0.5522(11) 0.3818(8)
F14? F 0.1660(15) 0.6116(14) 0.3597(10)
loop_
_geom_bond_atom_site_label_1
_geom_bond_atom_site_label_2
_geom_bond_site_symmetry_1
_geom_bond_site_symmetry_2
Ag1 N1 1_555 1_555
N1 C1 1_555 1_555
C1 C2 1_555 1_555
C2 H1 1_555 1_555
N2 C2 1_555 1_555
C3 N2 1_555 1_555
H2 C3 1_555 1_555
C4 N1 1_555 1_555
H3 C4 1_555 1_555
C5 C1 1_555 1_555
N3 Ag1 1_555 1_555
N4 C5 1_555 1_555
N5 Ag1 1_555 1_555
C6 N5 1_555 1_555
C7 C6 1_555 1_555
H4 C7 1_555 1_555
N6 C7 1_555 1_555
C8 N6 1_555 1_555
H5 C8 1_555 1_555
C9 N5 1_555 1_555
H6 C9 1_555 1_555
C10 C6 1_555 1_555
N7 Ag1 1_555 1_555
N8 C10 1_555 1_555
N9 Ag1 1_555 1_555
C11 N9 1_555 1_555
C12 C11 1_555 1_555
H7 C12 1_555 1_555
N10 C12 1_555 1_555
C13 N10 1_555 1_555
H8 C13 1_555 1_555
C14 N9 1_555 1_555
H9 C14 1_555 1_555
C15 C11 1_555 1_555
N11 Ag1 1_555 1_555
N12 C15 1_555 1_555
N13 C16 1_555 1_555
C16 C17 1_555 1_555
C17 H10 1_555 1_555
H11 C17 1_555 1_555
H12 C17 1_555 1_555
Sb1 F1 1_555 1_555
F2 Sb1 1_555 1_555
F3 Sb1 1_555 1_555
F6 Sb1 1_555 1_555
F9 Sb1 1_555 1_555
F12 Sb1 1_555 1_555
N4A N3 1_555 1_555
C5A N4A 1_555 1_555
C1A C5A 1_555 1_555
N1A C1A 1_555 1_555
C4A N1A 1_555 1_555
C3A C4A 1_555 1_555
N2A C3A 1_555 1_555
C2A C1A 1_555 1_555
H1A C2A 1_555 1_555
H2A C3A 1_555 1_555
H3A C4A 1_555 1_555
N3A N4 1_555 1_555
N8A N7 1_555 1_555
C10A N8A 1_555 1_555
C6A C10A 1_555 1_555
N5A C6A 1_555 1_555
C9A N5A 1_555 1_555
C8A C9A 1_555 1_555
N6A C8A 1_555 1_555
C7A C6A 1_555 1_555
H4A C7A 1_555 1_555
H5A C8A 1_555 1_555
H6A C9A 1_555 1_555
N7A N8 1_555 1_555
N12A N11 1_555 1_555
C15A N12A 1_555 1_555
C11A C15A 1_555 1_555
N9A C11A 1_555 1_555
C14A N9A 1_555 1_555
C13A C14A 1_555 1_555
N10A C13A 1_555 1_555
C12A C11A 1_555 1_555
H7A C12A 1_555 1_555
H8A C13A 1_555 1_555
H9A C14A 1_555 1_555
N11A N12 1_555 1_555
Ag1A N1A 1_555 1_555
Ag1A_2 N5A 1_555 1_555
Ag1A_3 N9A 1_555 1_555
N5A_2 Ag1A 1_555 1_555
N7A_2 Ag1A 1_555 1_555
N9A_2 Ag1A 1_555 1_555
N11A_2 Ag1A 1_555 1_555
C3 C4 1_555 1_555
C5 N3 1_555 1_555
C8 C9 1_555 1_555
C10 N7 1_555 1_555
C13 C14 1_555 1_555
C15 N11 1_555 1_555
C5A N3A 1_555 1_555
N2A C2A 1_555 1_555
N3A Ag1A 1_555 1_555
C10A N7A 1_555 1_555
N6A C7A 1_555 1_555
N7A Ag1A_2 1_555 1_555
C15A N11A 1_555 1_555
N10A C12A 1_555 1_555
N11A Ag1A_3 1_555 1_555

#END
