
#######################################################################
#
#                 Cambridge Crystallographic Data Centre
#                                CCDC 
#
#######################################################################
#
# If this CIF has been generated from an entry in the Cambridge 
# Structural Database, then it will include bibliographic, chemical, 
# crystal, experimental, refinement or atomic coordinate data resulting 
# from the CCDC's data processing and validation procedures.
#
#######################################################################

data_XIZLAU
_symmetry_cell_setting           hexagonal
_symmetry_space_group_name_H-M   'P 61'
_symmetry_Int_Tables_number      169
_space_group_name_Hall           'P 61'
loop_
_symmetry_equiv_pos_site_id
_symmetry_equiv_pos_as_xyz
1 x,y,z
2 -y,x-y,1/3+z
3 -x+y,-x,2/3+z
4 -x,-y,1/2+z
5 y,-x+y,5/6+z
6 x-y,x,1/6+z
_cell_length_a                   11.2217(7)
_cell_length_b                   11.2217(7)
_cell_length_c                   25.0290(16)
_cell_angle_alpha                90
_cell_angle_beta                 90
_cell_angle_gamma                120
_cell_volume                     2729.55
loop_
_atom_site_label
_atom_site_type_symbol
_atom_site_fract_x
_atom_site_fract_y
_atom_site_fract_z
Ni1 Ni 0.97636(5) 0.58381(5) 0.10331(2)
C1 C 0.9835(5) 0.0210(5) 0.0986(2)
O1 O 1.0933(3) 0.6278(3) 0.02922(14)
N1 N 0.9750(4) 0.3988(4) 0.1036(2)
O2 O 1.1072(4) 0.6388(4) 0.16742(17)
O3 O 0.7044(3) 0.1936(3) -0.18532(13)
O4 O 0.8676(3) 0.5230(3) 0.03223(12)
C2 C 1.0969(5) 0.2751(5) 0.0987(4)
H1 H 1.1818 0.2796 0.0965
N2 N 0.9858(4) -0.2267(3) 0.09975(19)
C3 C 0.9786(4) 0.5608(4) 0.00599(19)
C4 C 1.0732(5) 0.5882(5) -0.0862(2)
H2 H 1.1533 0.6659 -0.0749
C5 C 0.8592(5) 0.1566(5) 0.1010(5)
H3 H 0.7750 0.0751 0.1013
O5 O 1.1621(4) 0.6205(5) -0.17335(17)
C6 C 1.0589(5) 0.5457(5) -0.1391(2)
C7 C 0.8354(5) 0.3506(5) -0.11833(18)
O6 O 0.6344(4) 0.1324(5) -0.10212(16)
C8 C 0.9668(5) 0.5138(5) -0.05013(19)
C9 C 1.1019(6) 0.0172(5) 0.0980(5)
H4 H 1.1861 0.0986 0.0971
C10 C 0.8686(5) -0.2234(5) 0.0983(3)
H5 H 0.7860 -0.3065 0.0972
C11 C 0.8636(5) -0.1040(5) 0.0984(4)
H6 H 0.7791 -0.1075 0.0984
C12 C 0.8607(5) 0.2789(5) 0.1024(4)
H7 H 0.7771 0.2774 0.1025
C13 C 0.9383(5) 0.4280(5) -0.1545(2)
H8 H 0.9267 0.4008 -0.1901
C14 C 0.7122(5) 0.2149(5) -0.13648(19)
C15 C 0.9783(5) 0.1502(5) 0.0992(3)
C16 C 0.8496(5) 0.3963(5) -0.0659(2)
H9 H 0.7794 0.3472 -0.0414
C17 C 1.0900(6) 0.3969(5) 0.1015(4)
H10 H 1.1721 0.4806 0.1018
C18 C 1.0976(6) -0.1079(6) 0.0989(4)
H11 H 1.1810 -0.1069 0.0989
H12 H 1.153(5) 0.583(5) -0.2004(16)
H13 H 1.065(5) 0.611(5) 0.1934(18)
H14 H 1.186(3) 0.671(5) 0.169(2)
Ni1B Ni 0.60745(7) 0.02364(5) -0.23002(2)
Ni1_2 Ni 0.97636(5) -0.41619(5) 0.10331(2)
O3A O 0.8064(3) 0.5108(4) 0.14801(13)
N2_2 N 0.9858(4) 0.7733(3) 0.09975(19)
loop_
_geom_bond_atom_site_label_1
_geom_bond_atom_site_label_2
_geom_bond_site_symmetry_1
_geom_bond_site_symmetry_2
Ni1 O1 1_555 1_555
C1 C9 1_555 1_555
O1 C3 1_555 1_555
N1 Ni1 1_555 1_555
O2 Ni1 1_555 1_555
O3 C14 1_555 1_555
O4 Ni1 1_555 1_555
C2 H1 1_555 1_555
N2 C10 1_555 1_555
C3 O4 1_555 1_555
C4 H2 1_555 1_555
C5 H3 1_555 1_555
O5 C6 1_555 1_555
C6 C4 1_555 1_555
C7 C13 1_555 1_555
O6 C14 1_555 1_555
C8 C3 1_555 1_555
C9 H4 1_555 1_555
C10 H5 1_555 1_555
C11 C1 1_555 1_555
H6 C11 1_555 1_555
C12 N1 1_555 1_555
H7 C12 1_555 1_555
C13 C6 1_555 1_555
H8 C13 1_555 1_555
C14 C7 1_555 1_555
C15 C1 1_555 1_555
C16 C7 1_555 1_555
H9 C16 1_555 1_555
C17 N1 1_555 1_555
H10 C17 1_555 1_555
C18 N2 1_555 1_555
H11 C18 1_555 1_555
H12 O5 1_555 1_555
H13 O2 1_555 1_555
H14 O2 1_555 1_555
Ni1B O3 1_555 1_555
Ni1_2 N2 1_555 1_555
O3A Ni1 1_555 1_555
N2_2 Ni1 1_555 1_555
C2 C15 1_555 1_555
C2 C17 1_555 1_555
C4 C8 1_555 1_555
C5 C12 1_555 1_555
C5 C15 1_555 1_555
C8 C16 1_555 1_555
C9 C18 1_555 1_555
C10 C11 1_555 1_555

#END
