
#######################################################################
#
#                 Cambridge Crystallographic Data Centre
#                                CCDC 
#
#######################################################################
#
# If this CIF has been generated from an entry in the Cambridge 
# Structural Database, then it will include bibliographic, chemical, 
# crystal, experimental, refinement or atomic coordinate data resulting 
# from the CCDC's data processing and validation procedures.
#
#######################################################################

data_XIZLEY
_symmetry_cell_setting           monoclinic
_symmetry_space_group_name_H-M   'C 2/c'
_symmetry_Int_Tables_number      15
_space_group_name_Hall           '-C 2yn'
loop_
_symmetry_equiv_pos_site_id
_symmetry_equiv_pos_as_xyz
1 x,y,z
2 1/2+x,1/2+y,z
3 -x,y,1/2-z
4 1/2-x,1/2+y,1/2-z
5 -x,-y,-z
6 1/2-x,1/2-y,-z
7 x,-y,1/2+z
8 1/2+x,1/2-y,1/2+z
_cell_length_a                   10.118(3)
_cell_length_b                   11.051(3)
_cell_length_c                   21.051(5)
_cell_angle_alpha                90
_cell_angle_beta                 99.029(5)
_cell_angle_gamma                90
_cell_volume                     2324.63
loop_
_atom_site_label
_atom_site_type_symbol
_atom_site_fract_x
_atom_site_fract_y
_atom_site_fract_z
Cu1 Cu 0.0000 0.25545(5) 0.2500
O1 O 0.4010(3) 0.0419(3) 0.04890(13)
O2 O 0.3415(3) 0.0171(3) -0.05651(14)
H1 H 0.419(5) -0.007(4) -0.050(2)
O3 O 0.0809(2) 0.2469(2) 0.17112(11)
O4 O -0.1328(3) 0.2426(2) 0.12932(13)
O5 O -0.1134(4) 0.1767(4) -0.11065(15)
H2 H -0.183(6) 0.206(5) -0.108(3)
N1 N 0.0000 0.0744(3) 0.2500
N2 N 0.0000 -0.5636(3) 0.2500
C1 C -0.0482(5) -0.5004(3) 0.1976(2)
H3 H -0.0825 -0.5425 0.1604
C2 C -0.0495(4) -0.3762(3) 0.19571(19)
H4 H -0.0839 -0.3361 0.1579
C3 C 0.0000 -0.3112(4) 0.2500
C4 C 0.0000 -0.1764(4) 0.2500
C5 C -0.1151(4) -0.1116(3) 0.22745(19)
H5 H -0.1942 -0.1517 0.2115
C6 C -0.1111(4) 0.0122(3) 0.22892(19)
H6 H -0.1894 0.0548 0.2146
C7 C -0.0303(4) 0.1669(4) -0.05350(19)
C8 C -0.0630(4) 0.2064(4) 0.00448(19)
H7 H -0.1458 0.2423 0.0056
C9 C 0.0268(4) 0.1927(3) 0.06100(18)
C10 C 0.1500(4) 0.1414(3) 0.05934(18)
H8 H 0.2111 0.1331 0.0970
C11 C 0.1830(4) 0.1019(3) 0.00108(17)
C12 C 0.0931(4) 0.1137(4) -0.05489(18)
H9 H 0.1152 0.0859 -0.0936
C13 C 0.3179(4) 0.0506(3) 0.00031(18)
C14 C -0.0129(4) 0.2315(3) 0.12390(17)
Cu1_2 Cu 0.0000 -0.74455(5) 0.2500
O1B O -0.4010(3) 0.0419(3) 0.45110(13)
O2B O -0.3415(3) 0.0171(3) 0.55651(14)
H1B H -0.419(5) -0.007(4) 0.550(2)
O3B O -0.0809(2) 0.2469(2) 0.32888(11)
O4B O 0.1328(3) 0.2426(2) 0.37068(13)
O5B O 0.1134(4) 0.1767(4) 0.61065(15)
H2B H 0.183(6) 0.206(5) 0.608(3)
N2_2 N 0.0000 0.4364(3) 0.2500
C1B C 0.0482(5) -0.5004(3) 0.3024(2)
H3B H 0.0825 -0.5425 0.3396
C2B C 0.0495(4) -0.3762(3) 0.30429(19)
H4B H 0.0839 -0.3361 0.3421
C5B C 0.1151(4) -0.1116(3) 0.27255(19)
H5B H 0.1942 -0.1517 0.2885
C6B C 0.1111(4) 0.0122(3) 0.27108(19)
H6B H 0.1894 0.0548 0.2854
C7B C 0.0303(4) 0.1669(4) 0.55350(19)
C8B C 0.0630(4) 0.2064(4) 0.49552(19)
H7B H 0.1458 0.2423 0.4944
C9B C -0.0268(4) 0.1927(3) 0.43900(18)
C10B C -0.1500(4) 0.1414(3) 0.44066(18)
H8B H -0.2111 0.1331 0.4030
C11B C -0.1830(4) 0.1019(3) 0.49892(17)
C12B C -0.0931(4) 0.1137(4) 0.55489(18)
H9B H -0.1152 0.0859 0.5936
C13B C -0.3179(4) 0.0506(3) 0.49969(18)
C14B C 0.0129(4) 0.2315(3) 0.37610(17)
loop_
_geom_bond_atom_site_label_1
_geom_bond_atom_site_label_2
_geom_bond_site_symmetry_1
_geom_bond_site_symmetry_2
Cu1 O3 1_555 1_555
O1 C13 1_555 1_555
O2 H1 1_555 1_555
O3 C14 1_555 1_555
O4 C14 1_555 1_555
O5 H2 1_555 1_555
N1 Cu1 1_555 1_555
N2 C1 1_555 1_555
C1 H3 1_555 1_555
C2 C1 1_555 1_555
H4 C2 1_555 1_555
C3 C2 1_555 1_555
C4 C3 1_555 1_555
C5 C4 1_555 1_555
H5 C5 1_555 1_555
C6 N1 1_555 1_555
H6 C6 1_555 1_555
C7 O5 1_555 1_555
C8 C7 1_555 1_555
H7 C8 1_555 1_555
C9 C8 1_555 1_555
C10 C9 1_555 1_555
H8 C10 1_555 1_555
C11 C10 1_555 1_555
C12 C7 1_555 1_555
H9 C12 1_555 1_555
C13 O2 1_555 1_555
C14 C9 1_555 1_555
Cu1_2 N2 1_555 1_555
O1B C13B 1_555 1_555
O2B H1B 1_555 1_555
O3B Cu1 1_555 1_555
O4B C14B 1_555 1_555
O5B H2B 1_555 1_555
N2_2 Cu1 1_555 1_555
C1B N2 1_555 1_555
H3B C1B 1_555 1_555
C2B C3 1_555 1_555
H4B C2B 1_555 1_555
C5B C4 1_555 1_555
H5B C5B 1_555 1_555
C6B N1 1_555 1_555
H6B C6B 1_555 1_555
C7B O5B 1_555 1_555
C8B C7B 1_555 1_555
H7B C8B 1_555 1_555
C9B C8B 1_555 1_555
C10B C9B 1_555 1_555
H8B C10B 1_555 1_555
C11B C10B 1_555 1_555
C12B C7B 1_555 1_555
H9B C12B 1_555 1_555
C13B O2B 1_555 1_555
C14B O3B 1_555 1_555
C5 C6 1_555 1_555
C11 C12 1_555 1_555
C11 C13 1_555 1_555
C1B C2B 1_555 1_555
C5B C6B 1_555 1_555
C9B C14B 1_555 1_555
C11B C12B 1_555 1_555
C11B C13B 1_555 1_555

#END
