
#######################################################################
#
#                 Cambridge Crystallographic Data Centre
#                                CCDC 
#
#######################################################################
#
# If this CIF has been generated from an entry in the Cambridge 
# Structural Database, then it will include bibliographic, chemical, 
# crystal, experimental, refinement or atomic coordinate data resulting 
# from the CCDC's data processing and validation procedures.
#
#######################################################################

data_XIZLIC
_symmetry_cell_setting           triclinic
_symmetry_space_group_name_H-M   'P -1'
_symmetry_Int_Tables_number      2
_space_group_name_Hall           '-P 1'
loop_
_symmetry_equiv_pos_site_id
_symmetry_equiv_pos_as_xyz
1 x,y,z
2 -x,-y,-z
_cell_length_a                   7.4720(14)
_cell_length_b                   9.6175(18)
_cell_length_c                   10.1060(19)
_cell_angle_alpha                100.587(3)
_cell_angle_beta                 97.165(3)
_cell_angle_gamma                112.381(3)
_cell_volume                     644.78
loop_
_atom_site_label
_atom_site_type_symbol
_atom_site_fract_x
_atom_site_fract_y
_atom_site_fract_z
Zn1 Zn 0.95757(6) 0.68083(5) 1.03226(4)
N1 N 0.8025(4) 0.6177(3) 0.8348(3)
O1 O 0.8461(4) 0.4829(3) 1.0836(2)
O2 O 0.1971(4) -0.0241(3) 0.9942(3)
O3 O 0.2216(4) -0.1762(3) 1.1280(3)
O4 O 0.9261(4) 0.6059(3) 1.3051(3)
O5 O 0.7713(4) 0.1471(3) 1.5245(3)
O6 O 0.7951(5) 0.7936(4) 1.1165(3)
C1 C 0.2847(5) -0.0470(4) 1.0950(3)
C2 C 0.5692(5) 0.2173(4) 1.1508(3)
C3 C 0.7091(6) 0.6734(4) 0.6230(4)
C4 C 0.7062(5) 0.1756(4) 1.4027(3)
C5 C 0.5426(5) 0.0570(4) 1.3122(3)
C6 C 0.4716(5) 0.0783(4) 1.1869(3)
C7 C 0.5649(5) 0.5246(4) 0.5702(3)
C8 C 0.8427(5) 0.4871(4) 1.2106(3)
C9 C 0.7328(5) 0.3359(4) 1.2434(3)
C10 C 0.7994(5) 0.3141(4) 1.3698(3)
C11 C 0.8245(6) 0.7156(4) 0.7554(4)
C12 C 0.5442(7) 0.4233(5) 0.6542(4)
C13 C 0.6624(7) 0.4735(5) 0.7843(4)
H3 H 0.837(8) 0.828(6) 1.196(2)
H4 H 0.920(6) 0.816(4) 0.791(5)
H5 H 0.528(6) 0.235(4) 1.069(3)
H6 H 0.904(5) 0.385(4) 1.439(3)
H7 H 0.739(7) 0.753(5) 0.578(4)
H8 H 0.477(5) -0.036(3) 1.335(4)
H9 H 0.458(6) 0.319(4) 0.626(5)
H10 H 0.804(9) 0.860(5) 1.079(6)
H11 H 0.850(8) 0.226(6) 1.581(5)
H12 H 0.655(7) 0.400(5) 0.834(4)
Zn1A Zn 0.04243(6) 0.31917(5) -0.03226(4)
Zn1_2 Zn -0.04243(6) -0.31917(5) 1.03226(4)
Zn1_3 Zn 1.95757(6) 1.68083(5) 1.03226(4)
N1A N 0.1975(4) 0.3823(3) 0.1652(3)
O1_2 O 1.8461(4) 1.4829(3) 1.0836(2)
O1A O 0.1539(4) 0.5171(3) -0.0836(2)
O2_2 O 1.1971(4) 0.9759(3) 0.9942(3)
O3_2 O 1.2216(4) 0.8238(3) 1.1280(3)
O3A O -0.2216(4) 0.1762(3) -0.1280(3)
O4_2 O 1.9261(4) 1.6059(3) 1.3051(3)
O5_2 O 1.7713(4) 1.1471(3) 1.5245(3)
O6A O 0.2049(5) 0.2064(4) -0.1165(3)
C1_2 C 1.2847(5) 0.9530(4) 1.0950(3)
C2_2 C 1.5692(5) 1.2173(4) 1.1508(3)
C3A C 0.2909(6) 0.3266(4) 0.3770(4)
C4_2 C 1.7062(5) 1.1756(4) 1.4027(3)
C5_2 C 1.5426(5) 1.0570(4) 1.3122(3)
C6_2 C 1.4716(5) 1.0783(4) 1.1869(3)
C7A C 0.4351(5) 0.4754(4) 0.4298(3)
C8_2 C 1.8427(5) 1.4871(4) 1.2106(3)
C9_2 C 1.7328(5) 1.3359(4) 1.2434(3)
C10_2 C 1.7994(5) 1.3141(4) 1.3698(3)
C11A C 0.1755(6) 0.2844(4) 0.2446(4)
C12A C 0.4558(7) 0.5767(5) 0.3458(4)
C13A C 0.3376(7) 0.5265(5) 0.2157(4)
H3A H 0.163(8) 0.172(6) -0.196(2)
H4A H 0.080(6) 0.184(4) 0.209(5)
H5_2 H 1.528(6) 1.235(4) 1.069(3)
H6_2 H 1.904(5) 1.385(4) 1.439(3)
H7A H 0.261(7) 0.247(5) 0.422(4)
H8_2 H 1.477(5) 0.964(3) 1.335(4)
H9A H 0.542(6) 0.681(4) 0.374(5)
H10A H 0.196(9) 0.140(5) -0.079(6)
H11_2 H 1.850(8) 1.226(6) 1.581(5)
H12A H 0.345(7) 0.600(5) 0.166(4)
O7 O 0.9193(18) 0.9411(12) 1.3952(9)
H1 H 1.036(5) 0.967(11) 1.399(13)
H2 H 0.903(13) 1.005(9) 1.449(9)
loop_
_geom_bond_atom_site_label_1
_geom_bond_atom_site_label_2
_geom_bond_site_symmetry_1
_geom_bond_site_symmetry_2
Zn1 N1 1_555 1_555
N1 C11 1_555 1_555
O1 Zn1 1_555 1_555
O2 C1 1_555 1_555
O3 C1 1_555 1_555
O4 C8 1_555 1_555
O5 C4 1_555 1_555
O6 Zn1 1_555 1_555
O7 H1 1_555 1_555
H2 O7 1_555 1_555
C1 C6 1_555 1_555
C2 C6 1_555 1_555
C3 C7 1_555 1_555
C4 C5 1_555 1_555
C5 C6 1_555 1_555
C7 C12 1_555 1_555
C8 O1 1_555 1_555
C9 C2 1_555 1_555
C10 C4 1_555 1_555
C11 C3 1_555 1_555
C12 C13 1_555 1_555
C13 N1 1_555 1_555
H3 O6 1_555 1_555
H4 C11 1_555 1_555
H5 C2 1_555 1_555
H6 C10 1_555 1_555
H7 C3 1_555 1_555
H8 C5 1_555 1_555
H9 C12 1_555 1_555
H10 O6 1_555 1_555
H11 O5 1_555 1_555
H12 C13 1_555 1_555
Zn1A N1A 1_555 1_555
Zn1_2 O3 1_555 1_555
Zn1_3 O1_2 1_555 1_555
N1A C11A 1_555 1_555
O1_2 C8_2 1_555 1_555
O1A Zn1A 1_555 1_555
O2_2 C1_2 1_555 1_555
O3_2 Zn1 1_555 1_555
O3A Zn1A 1_555 1_555
O4_2 C8_2 1_555 1_555
O5_2 C4_2 1_555 1_555
O6A Zn1A 1_555 1_555
C1_2 O3_2 1_555 1_555
C2_2 C6_2 1_555 1_555
C3A C7A 1_555 1_555
C4_2 C5_2 1_555 1_555
C5_2 C6_2 1_555 1_555
C6_2 C1_2 1_555 1_555
C7A C7 1_555 1_555
C8_2 C9_2 1_555 1_555
C9_2 C2_2 1_555 1_555
C10_2 C4_2 1_555 1_555
C11A C3A 1_555 1_555
C12A C7A 1_555 1_555
C13A N1A 1_555 1_555
H3A O6A 1_555 1_555
H4A C11A 1_555 1_555
H5_2 C2_2 1_555 1_555
H6_2 C10_2 1_555 1_555
H7A C3A 1_555 1_555
H8_2 C5_2 1_555 1_555
H9A C12A 1_555 1_555
H10A O6A 1_555 1_555
H11_2 O5_2 1_555 1_555
H12A C13A 1_555 1_555
C8 C9 1_555 1_555
C9 C10 1_555 1_555
C9_2 C10_2 1_555 1_555
C12A C13A 1_555 1_555

#END
