
#######################################################################
#
#                 Cambridge Crystallographic Data Centre
#                                CCDC 
#
#######################################################################
#
# If this CIF has been generated from an entry in the Cambridge 
# Structural Database, then it will include bibliographic, chemical, 
# crystal, experimental, refinement or atomic coordinate data resulting 
# from the CCDC's data processing and validation procedures.
#
#######################################################################

data_XIZLOI
_symmetry_cell_setting           orthorhombic
_symmetry_space_group_name_H-M   'P b c a'
_symmetry_Int_Tables_number      61
_space_group_name_Hall           '-P 2ac 2ab'
loop_
_symmetry_equiv_pos_site_id
_symmetry_equiv_pos_as_xyz
1 x,y,z
2 1/2-x,-y,1/2+z
3 -x,1/2+y,1/2-z
4 1/2+x,1/2-y,-z
5 -x,-y,-z
6 1/2+x,y,1/2-z
7 x,1/2-y,1/2+z
8 1/2-x,1/2+y,z
_cell_length_a                   18.021(4)
_cell_length_b                   19.884(4)
_cell_length_c                   28.125(6)
_cell_angle_alpha                90
_cell_angle_beta                 90
_cell_angle_gamma                90
_cell_volume                     10078
loop_
_atom_site_label
_atom_site_type_symbol
_atom_site_fract_x
_atom_site_fract_y
_atom_site_fract_z
Pt1 Pt 0.43796(5) 0.32854(5) 0.69182(4)
Pt2 Pt 0.48128(5) 0.33629(5) 1.19214(4)
Pt3 Pt 0.52307(6) 0.49933(5) 0.80282(4)
Gd1 Gd 0.35477(7) 0.34611(7) 0.97004(5)
Gd2 Gd 0.56834(7) 0.38070(6) 0.46726(5)
Cl1 Cl 0.3180(3) 0.3311(3) 0.7194(2)
Cl2 Cl 0.3923(3) 0.3257(3) 0.6162(2)
Cl3 Cl 0.5236(4) 0.3344(3) 1.1153(2)
Cl4 Cl 0.6031(3) 0.3313(3) 1.2163(2)
Cl5 Cl 0.5773(4) 0.4954(3) 0.8766(2)
Cl6 Cl 0.6400(4) 0.4924(3) 0.7710(2)
O1 O 0.4711(9) 0.3261(8) 0.9252(6)
O2 O 0.3726(9) 0.3499(8) 0.8824(6)
O3 O 0.7364(9) 0.3596(8) 0.5602(6)
O4 O 0.6217(9) 0.3345(8) 0.5353(6)
O5 O 0.2962(10) 0.3479(8) 1.0400(6)
O6 O 0.1864(9) 0.3823(8) 1.0644(6)
O7 O 0.4514(8) 0.3469(8) 1.4259(6)
O8 O 0.5536(9) 0.3443(8) 1.3833(6)
O9 O 0.4606(8) 0.5206(8) 0.5724(6)
O10 O 0.5660(9) 0.4875(8) 0.6076(6)
O11 O 0.3469(9) 0.4627(8) 0.9613(6)
O12 O 0.2458(10) 0.5238(9) 0.9507(6)
N1 N 0.4839(11) 0.3293(10) 0.7561(7)
N2 N 0.5451(10) 0.3312(10) 0.6721(7)
N3 N 0.3735(11) 0.3405(10) 1.1757(7)
N4 N 0.4374(12) 0.3363(10) 1.2572(7)
N5 N 0.4685(10) 0.5018(9) 0.7403(6)
N6 N 0.4193(9) 0.5031(9) 0.8268(6)
C1 C 0.4509(13) 0.3315(11) 0.7978(8)
H1 H 0.3995 0.3360 0.7978
C2 C 0.4852(15) 0.3279(12) 0.8413(9)
C3 C 0.5591(14) 0.3289(12) 0.7553(9)
C4 C 0.4408(15) 0.3348(12) 0.8864(9)
C5 C 0.5612(13) 0.3231(11) 0.8421(9)
H2 H 0.5860 0.3202 0.8710
C6 C 0.6027(13) 0.3225(10) 0.7983(8)
H3 H 0.6541 0.3184 0.7977
C7 C 0.6684(14) 0.3354(12) 0.7011(9)
H4 H 0.7011 0.3333 0.7267
C8 C 0.6695(13) 0.3444(11) 0.5689(8)
C9 C 0.6460(13) 0.3402(11) 0.6190(8)
C10 C 0.5716(12) 0.3327(10) 0.6278(8)
H5 H 0.5389 0.3286 0.6023
C11 C 0.6965(14) 0.3412(12) 0.6545(9)
H6 H 0.7470 0.3454 0.6485
C12 C 0.5934(15) 0.3329(13) 0.7093(10)
C13 C 0.2510(16) 0.3632(13) 1.0728(10)
C14 C 0.3471(13) 0.3476(11) 1.1321(8)
H7 H 0.3803 0.3491 1.1067
C15 C 0.4778(14) 0.3370(11) 1.2990(8)
H8 H 0.5293 0.3352 1.2982
C16 C 0.3634(14) 0.3422(12) 1.3429(9)
H9 H 0.3384 0.3465 1.3717
C17 C 0.2711(13) 0.3529(11) 1.1227(9)
C18 C 0.2243(14) 0.3494(11) 1.1591(9)
H10 H 0.1735 0.3522 1.1535
C19 C 0.3242(12) 0.3387(11) 1.2123(8)
C20 C 0.2489(13) 0.3417(12) 1.2042(9)
H11 H 0.2156 0.3385 1.2293
C21 C 0.3595(13) 0.3377(11) 1.2587(8)
C22 C 0.3238(13) 0.3379(11) 1.3013(8)
H12 H 0.2723 0.3350 1.3023
C23 C 0.4404(13) 0.3404(11) 1.3423(8)
C24 C 0.4844(16) 0.3433(12) 1.3868(10)
C25 C 0.4949(11) 0.4996(10) 0.6976(8)
H13 H 0.5460 0.4936 0.6957
C26 C 0.3948(14) 0.5038(11) 0.7441(9)
C27 C 0.3196(15) 0.5016(13) 0.8841(10)
C28 C 0.4972(14) 0.5040(13) 0.6104(9)
C29 C 0.3040(14) 0.4958(13) 0.9342(9)
C30 C 0.3636(12) 0.5029(10) 0.7905(7)
C31 C 0.3520(13) 0.5061(11) 0.7034(8)
H14 H 0.3006 0.5091 0.7059
C32 C 0.3933(13) 0.5005(11) 0.8706(8)
H15 H 0.4282 0.4977 0.8949
C33 C 0.4611(12) 0.5045(12) 0.6569(9)
C34 C 0.2911(13) 0.5064(12) 0.8021(9)
H16 H 0.2559 0.5076 0.7780
C35 C 0.3840(13) 0.5041(12) 0.6605(9)
H17 H 0.3550 0.5024 0.6332
C36 C 0.2677(14) 0.5081(13) 0.8486(9)
H18 H 0.2178 0.5136 0.8559
O13 O 0.5614(8) 0.2639(7) 0.4694(6)
O14 O 0.6184(8) 0.4715(7) 0.5176(5)
O15 O 0.4675(8) 0.4036(8) 0.5189(6)
O16 O 0.4206(9) 0.2600(8) 1.0182(6)
O17 O 0.3139(9) 0.2378(9) 0.9484(6)
O18 O 0.4505(8) 0.4015(8) 1.0187(6)
Gd1E Gd 0.85477(7) 0.34611(7) 0.52996(5)
Gd2E Gd 0.06834(7) 0.38070(6) 1.03274(5)
Gd2_2 Gd 0.56834(7) 0.38070(6) 1.46726(5)
Gd2D Gd 0.43166(7) 0.61930(6) 0.53274(5)
O3E O 0.2364(9) 0.3596(8) 0.9398(6)
O6E O 0.6864(9) 0.3823(8) 0.4356(6)
O7_2 O 0.4514(8) 0.3469(8) 0.4259(6)
O8_2 O 0.5536(9) 0.3443(8) 0.3833(6)
O9D O 0.5394(8) 0.4794(8) 0.4276(6)
O19 O 1.0813(11) 0.4451(10) 0.5173(7)
O20 O 1.1515(11) 0.3293(10) 0.4926(7)
O21 O 0.7036(10) 0.1834(9) 0.6018(7)
O22 O 0.6864(12) 0.6190(11) 0.4884(8)
O23 O 0.7316(14) 0.0912(13) 0.3826(10)
loop_
_geom_bond_atom_site_label_1
_geom_bond_atom_site_label_2
_geom_bond_site_symmetry_1
_geom_bond_site_symmetry_2
Pt1 Cl1 1_555 1_555
Pt2 Cl3 1_555 1_555
Pt3 Cl5 1_555 1_555
Gd1 O1 1_555 1_555
Gd2 O4 1_555 1_555
Cl2 Pt1 1_555 1_555
Cl4 Pt2 1_555 1_555
Cl6 Pt3 1_555 1_555
O1 C4 1_555 1_555
O2 Gd1 1_555 1_555
O3 C8 1_555 1_555
O4 C8 1_555 1_555
O5 Gd1 1_555 1_555
O6 C13 1_555 1_555
O7 C24 1_555 1_555
O8 C24 1_555 1_555
O9 C28 1_555 1_555
O10 C28 1_555 1_555
O11 Gd1 1_555 1_555
O12 C29 1_555 1_555
N1 Pt1 1_555 1_555
N2 Pt1 1_555 1_555
N3 Pt2 1_555 1_555
N4 Pt2 1_555 1_555
N5 Pt3 1_555 1_555
N6 Pt3 1_555 1_555
C1 N1 1_555 1_555
H1 C1 1_555 1_555
C2 C1 1_555 1_555
C3 N1 1_555 1_555
C4 O2 1_555 1_555
C5 C2 1_555 1_555
H2 C5 1_555 1_555
C6 C3 1_555 1_555
H3 C6 1_555 1_555
C7 H4 1_555 1_555
C8 C9 1_555 1_555
C9 C10 1_555 1_555
C10 N2 1_555 1_555
H5 C10 1_555 1_555
C11 C7 1_555 1_555
H6 C11 1_555 1_555
C12 N2 1_555 1_555
C13 O5 1_555 1_555
C14 N3 1_555 1_555
H7 C14 1_555 1_555
C15 N4 1_555 1_555
H8 C15 1_555 1_555
C16 H9 1_555 1_555
C17 C13 1_555 1_555
C18 C17 1_555 1_555
H10 C18 1_555 1_555
C19 N3 1_555 1_555
C20 C18 1_555 1_555
H11 C20 1_555 1_555
C21 N4 1_555 1_555
C22 C16 1_555 1_555
H12 C22 1_555 1_555
C23 C15 1_555 1_555
C24 C23 1_555 1_555
C25 N5 1_555 1_555
H13 C25 1_555 1_555
C26 N5 1_555 1_555
C27 C29 1_555 1_555
C28 C33 1_555 1_555
C29 O11 1_555 1_555
C30 N6 1_555 1_555
C31 C26 1_555 1_555
H14 C31 1_555 1_555
C32 N6 1_555 1_555
H15 C32 1_555 1_555
C33 C25 1_555 1_555
C34 C30 1_555 1_555
H16 C34 1_555 1_555
C35 C31 1_555 1_555
H17 C35 1_555 1_555
C36 C27 1_555 1_555
H18 C36 1_555 1_555
O13 Gd2 1_555 1_555
O14 Gd2 1_555 1_555
O15 Gd2 1_555 1_555
O16 Gd1 1_555 1_555
O17 Gd1 1_555 1_555
O18 Gd1 1_555 1_555
Gd1E O3 1_555 1_555
Gd2E O6 1_555 1_555
Gd2_2 O7 1_555 1_555
Gd2D O9 1_555 1_555
O3E Gd1 1_555 1_555
O6E Gd2 1_555 1_555
O7_2 Gd2 1_555 1_555
O8_2 Gd2 1_555 1_555
O9D Gd2 1_555 1_555
O8 Gd2_2 1_555 1_555
C2 C4 1_555 1_555
C3 C12 1_555 1_555
C5 C6 1_555 1_555
C7 C12 1_555 1_555
C9 C11 1_555 1_555
C14 C17 1_555 1_555
C16 C23 1_555 1_555
C19 C20 1_555 1_555
C19 C21 1_555 1_555
C21 C22 1_555 1_555
C26 C30 1_555 1_555
C27 C32 1_555 1_555
C33 C35 1_555 1_555
C34 C36 1_555 1_555

#END
