
#######################################################################
#
#                 Cambridge Crystallographic Data Centre
#                                CCDC 
#
#######################################################################
#
# If this CIF has been generated from an entry in the Cambridge 
# Structural Database, then it will include bibliographic, chemical, 
# crystal, experimental, refinement or atomic coordinate data resulting 
# from the CCDC's data processing and validation procedures.
#
#######################################################################

data_XIZMIE
_symmetry_cell_setting           triclinic
_symmetry_space_group_name_H-M   'P -1'
_symmetry_Int_Tables_number      2
_space_group_name_Hall           '-P 1'
loop_
_symmetry_equiv_pos_site_id
_symmetry_equiv_pos_as_xyz
1 x,y,z
2 -x,-y,-z
_cell_length_a                   8.9631(3)
_cell_length_b                   15.2186(5)
_cell_length_c                   23.6351(8)
_cell_angle_alpha                73.861(3)
_cell_angle_beta                 88.732(3)
_cell_angle_gamma                82.398(3)
_cell_volume                     3069.33
loop_
_atom_site_label
_atom_site_type_symbol
_atom_site_fract_x
_atom_site_fract_y
_atom_site_fract_z
Ir1 Ir 0.82710(3) 0.500708(16) 1.197247(11)
Ir2 Ir -0.28641(3) 1.043343(18) 0.672348(11)
Gd1 Gd 0.30271(5) 0.95388(3) 0.995791(16)
O1 O -0.3399(9) 0.7514(5) 0.9545(3)
O2 O -0.5616(7) 0.8387(4) 0.9610(3)
O3 O 0.3385(7) 1.1103(5) 0.8285(2)
O4 O 0.2162(7) 1.0239(5) 0.9008(2)
O5 O 0.1244(7) 0.7878(4) 1.1650(3)
O6 O 0.2504(6) 0.8681(3) 1.0902(2)
O7 O 1.1043(6) 0.8685(3) 0.9848(2)
O8 O 0.8632(6) 0.9256(3) 0.9870(2)
O9 O 0.4929(7) 1.0390(4) 0.9463(3)
N1 N -0.3561(7) 1.1738(4) 0.6787(2)
N2 N -0.2308(7) 0.9190(4) 0.6545(2)
N3 N 0.8042(7) 0.4157(4) 1.1443(3)
N4 N -0.3542(6) 0.9737(4) 0.7595(2)
N5 N -0.0947(6) 1.0372(4) 0.7271(2)
N6 N 0.6155(6) 0.5872(4) 1.1728(3)
N7 N 0.8659(6) 0.5672(4) 1.2595(3)
N8 N 0.8839(6) 0.6091(4) 1.1249(2)
C1 C -0.2548(8) 0.9663(4) 0.8039(3)
C2 C -0.2835(8) 0.9207(5) 0.8607(3)
H1 H -0.2146 0.9159 0.8906
C3 C -0.4179(9) 0.8807(6) 0.8740(3)
C4 C -0.5187(8) 0.8911(5) 0.8292(3)
H2 H -0.6103 0.8680 0.8370
C5 C -0.4830(9) 0.9360(5) 0.7725(3)
H3 H -0.5502 0.9406 0.7421
C6 C -0.1156(7) 1.0075(4) 0.7859(3)
C7 C -0.0082(8) 1.0144(5) 0.8257(3)
H4 H -0.0232 0.9929 0.8660
C8 C 0.1208(8) 1.0535(4) 0.8051(3)
C9 C 0.1433(8) 1.0803(5) 0.7451(3)
H5 H 0.2310 1.1040 0.7302
C10 C 0.0319(7) 1.0712(5) 0.7070(3)
H6 H 0.0470 1.0894 0.6666
C11 C 0.2363(8) 1.0649(5) 0.8478(3)
C12 C -0.4389(10) 0.8180(5) 0.9359(3)
C13 C 0.7741(7) 0.6828(4) 1.1078(3)
C14 C 0.8017(7) 0.7637(4) 1.0676(3)
H7 H 0.7251 0.8130 1.0568
C15 C 0.9411(7) 0.7720(4) 1.0436(3)
C16 C 1.0529(8) 0.6967(5) 1.0586(3)
H8 H 1.1468 0.6993 1.0411
C17 C 1.0211(8) 0.6172(4) 1.1004(3)
H9 H 1.0971 0.5677 1.1120
C18 C 0.6253(7) 0.6699(4) 1.1336(3)
C19 C 0.5023(8) 0.7362(4) 1.1190(3)
H10 H 0.5114 0.7918 1.0910
C20 C 0.3656(8) 0.7216(4) 1.1453(3)
C21 C 0.3533(7) 0.6361(5) 1.1845(3)
H11 H 0.2617 0.6225 1.2016
C22 C 0.4820(8) 0.5708(4) 1.1976(3)
H12 H 0.4749 0.5140 1.2245
C23 C 0.2332(8) 0.7983(4) 1.1329(3)
C24 C 0.9724(8) 0.8631(4) 1.0019(3)
C25 C 0.8305(9) 0.5255(5) 1.3150(3)
C26 C 0.8600(14) 0.5625(7) 1.3610(4)
H13 H 0.8322 0.5346 1.3993
C27 C 0.9304(15) 0.6403(8) 1.3491(4)
H14 H 0.9526 0.6649 1.3793
C28 C 0.9681(12) 0.6820(6) 1.2914(4)
H15 H 1.0171 0.7342 1.2826
C29 C 0.9324(9) 0.6453(5) 1.2482(3)
H16 H 0.9543 0.6746 1.2094
C30 C 0.7626(8) 0.4407(5) 1.3213(3)
C31 C 0.7550(7) 0.4126(4) 1.2697(3)
C32 C 0.6991(9) 0.3297(5) 1.2741(4)
H17 H 0.6948 0.3087 1.2408
C33 C 0.6498(10) 0.2781(6) 1.3279(4)
H18 H 0.6134 0.2228 1.3302
C34 C 0.6542(11) 0.3079(7) 1.3775(4)
H19 H 0.6196 0.2730 1.4129
C35 C 0.7099(11) 0.3898(7) 1.3750(4)
H20 H 0.7122 0.4105 1.4085
C36 C -0.2259(8) 1.2136(5) 0.5890(3)
C37 C -0.2049(7) 1.1169(5) 0.5966(3)
C38 C -0.1260(8) 1.0857(5) 0.5526(3)
H21 H -0.1095 1.0227 0.5563
C39 C -0.0722(9) 1.1458(6) 0.5042(3)
H22 H -0.0230 1.1233 0.4750
C40 C -0.0909(10) 1.2400(6) 0.4986(3)
H23 H -0.0515 1.2801 0.4663
C41 C -0.1670(10) 1.2735(6) 0.5403(4)
H24 H -0.1798 1.3365 0.5363
C42 C -0.3177(9) 1.2448(5) 0.6337(3)
C43 C -0.3677(12) 1.3345(6) 0.6326(4)
H25 H -0.3361 1.3827 0.6032
C44 C -0.4648(12) 1.3533(6) 0.6752(4)
H26 H -0.5009 1.4140 0.6738
C45 C -0.5080(10) 1.2818(6) 0.7197(4)
H27 H -0.5735 1.2933 0.7487
C46 C -0.4516(9) 1.1926(5) 0.7202(3)
H28 H -0.4802 1.1438 0.7500
C47 C 0.9313(11) 0.3554(5) 1.1429(4)
C48 C 0.9243(14) 0.2893(7) 1.1131(5)
H29 H 1.0096 0.2483 1.1111
C49 C 0.7925(15) 0.2841(8) 1.0866(5)
H30 H 0.7878 0.2392 1.0671
C50 C 0.6663(14) 0.3464(7) 1.0890(5)
H31 H 0.5759 0.3445 1.0711
C51 C 0.6792(11) 0.4109(7) 1.1186(4)
H32 H 0.5953 0.4529 1.1206
C52 C 1.0599(9) 0.3623(5) 1.1772(4)
C53 C 1.0332(8) 0.4264(4) 1.2102(3)
C54 C 1.1499(9) 0.4307(5) 1.2470(4)
H33 H 1.1346 0.4711 1.2704
C55 C 1.2881(9) 0.3762(6) 1.2498(5)
H34 H 1.3639 0.3809 1.2746
C56 C 1.3132(11) 0.3160(7) 1.2164(6)
H35 H 1.4058 0.2797 1.2182
C57 C 1.2021(12) 0.3095(6) 1.1804(6)
H36 H 1.2205 0.2691 1.1571
C58 C -0.3310(8) 0.8965(5) 0.6193(3)
C59 C -0.2999(10) 0.8158(5) 0.6029(3)
H37 H -0.3678 0.8013 0.5788
C60 C -0.1704(10) 0.7570(5) 0.6217(4)
H38 H -0.1513 0.7022 0.6111
C61 C -0.0683(10) 0.7797(6) 0.6565(4)
H39 H 0.0215 0.7415 0.6691
C62 C -0.1039(9) 0.8606(5) 0.6720(3)
H40 H -0.0363 0.8757 0.6960
C63 C -0.4638(8) 0.9649(5) 0.6036(3)
C64 C -0.4712(8) 1.0419(5) 0.6254(3)
C65 C -0.5973(9) 1.1095(6) 0.6107(3)
H41 H -0.6031 1.1618 0.6240
C66 C -0.7133(9) 1.0985(6) 0.5764(3)
H42 H -0.7967 1.1436 0.5672
C67 C -0.7074(10) 1.0226(7) 0.5558(4)
H43 H -0.7870 1.0162 0.5333
C68 C -0.5837(10) 0.9552(6) 0.5682(4)
H44 H -0.5789 0.9041 0.5536
Gd1_2 Gd -0.69729(5) 0.95388(3) 0.995791(16)
Gd1_3 Gd 1.30271(5) 0.95388(3) 0.995791(16)
Gd1A Gd 0.69729(5) 1.04612(3) 1.004209(16)
O2_2 O 0.4384(7) 0.8387(4) 0.9610(3)
O7_2 O 0.1043(6) 0.8685(3) 0.9848(2)
O8A O 0.1368(6) 1.0744(3) 1.0130(2)
O9A O 0.5071(7) 0.9610(4) 1.0537(3)
O10 O -0.288(5) 0.573(3) 1.0004(17)
loop_
_geom_bond_atom_site_label_1
_geom_bond_atom_site_label_2
_geom_bond_site_symmetry_1
_geom_bond_site_symmetry_2
Ir1 N3 1_555 1_555
Ir2 N1 1_555 1_555
Gd1 O4 1_555 1_555
O1 C12 1_555 1_555
O2 C12 1_555 1_555
O3 C11 1_555 1_555
O4 C11 1_555 1_555
O5 C23 1_555 1_555
O6 Gd1 1_555 1_555
O7 C24 1_555 1_555
O8 C24 1_555 1_555
O9 Gd1 1_555 1_555
N1 C42 1_555 1_555
N2 Ir2 1_555 1_555
N3 C47 1_555 1_555
N4 Ir2 1_555 1_555
N5 Ir2 1_555 1_555
N6 Ir1 1_555 1_555
N7 Ir1 1_555 1_555
N8 Ir1 1_555 1_555
C1 N4 1_555 1_555
C2 C1 1_555 1_555
H1 C2 1_555 1_555
C3 C2 1_555 1_555
C4 C3 1_555 1_555
H2 C4 1_555 1_555
C5 N4 1_555 1_555
H3 C5 1_555 1_555
C6 N5 1_555 1_555
C7 C6 1_555 1_555
H4 C7 1_555 1_555
C8 C7 1_555 1_555
C9 C8 1_555 1_555
H5 C9 1_555 1_555
C10 N5 1_555 1_555
H6 C10 1_555 1_555
C11 C8 1_555 1_555
C12 C3 1_555 1_555
C13 N8 1_555 1_555
C14 C13 1_555 1_555
H7 C14 1_555 1_555
C15 C14 1_555 1_555
C16 C15 1_555 1_555
H8 C16 1_555 1_555
C17 N8 1_555 1_555
H9 C17 1_555 1_555
C18 N6 1_555 1_555
C19 C18 1_555 1_555
H10 C19 1_555 1_555
C20 C19 1_555 1_555
C21 C20 1_555 1_555
H11 C21 1_555 1_555
C22 N6 1_555 1_555
H12 C22 1_555 1_555
C23 O6 1_555 1_555
C24 C15 1_555 1_555
C25 N7 1_555 1_555
C26 C25 1_555 1_555
H13 C26 1_555 1_555
C27 C26 1_555 1_555
H14 C27 1_555 1_555
C28 C27 1_555 1_555
H15 C28 1_555 1_555
C29 N7 1_555 1_555
H16 C29 1_555 1_555
C30 C25 1_555 1_555
C31 Ir1 1_555 1_555
C32 C31 1_555 1_555
H17 C32 1_555 1_555
C33 C32 1_555 1_555
H18 C33 1_555 1_555
C34 C33 1_555 1_555
H19 C34 1_555 1_555
C35 C30 1_555 1_555
H20 C35 1_555 1_555
C36 C37 1_555 1_555
C37 Ir2 1_555 1_555
C38 C37 1_555 1_555
H21 C38 1_555 1_555
C39 C38 1_555 1_555
H22 C39 1_555 1_555
C40 C39 1_555 1_555
H23 C40 1_555 1_555
C41 C36 1_555 1_555
H24 C41 1_555 1_555
C42 C36 1_555 1_555
C43 C42 1_555 1_555
H25 C43 1_555 1_555
C44 C43 1_555 1_555
H26 C44 1_555 1_555
C45 C44 1_555 1_555
H27 C45 1_555 1_555
C46 N1 1_555 1_555
H28 C46 1_555 1_555
C47 C48 1_555 1_555
C48 H29 1_555 1_555
C49 C48 1_555 1_555
H30 C49 1_555 1_555
C50 C49 1_555 1_555
H31 C50 1_555 1_555
C51 N3 1_555 1_555
H32 C51 1_555 1_555
C52 C47 1_555 1_555
C53 Ir1 1_555 1_555
C54 C53 1_555 1_555
H33 C54 1_555 1_555
C55 C54 1_555 1_555
H34 C55 1_555 1_555
C56 C55 1_555 1_555
H35 C56 1_555 1_555
C57 C52 1_555 1_555
H36 C57 1_555 1_555
C58 N2 1_555 1_555
C59 C58 1_555 1_555
H37 C59 1_555 1_555
C60 C59 1_555 1_555
H38 C60 1_555 1_555
C61 C60 1_555 1_555
H39 C61 1_555 1_555
C62 N2 1_555 1_555
H40 C62 1_555 1_555
C63 C58 1_555 1_555
C64 Ir2 1_555 1_555
C65 C64 1_555 1_555
H41 C65 1_555 1_555
C66 C65 1_555 1_555
H42 C66 1_555 1_555
C67 C66 1_555 1_555
H43 C67 1_555 1_555
C68 C63 1_555 1_555
H44 C68 1_555 1_555
Gd1_2 O2 1_555 1_555
Gd1_3 O7 1_555 1_555
Gd1A O8 1_555 1_555
O2_2 Gd1 1_555 1_555
O7_2 Gd1 1_555 1_555
O8A Gd1 1_555 1_555
O9A Gd1 1_555 1_555
O9 Gd1A 1_555 1_555
C1 C6 1_555 1_555
C4 C5 1_555 1_555
C9 C10 1_555 1_555
C13 C18 1_555 1_555
C16 C17 1_555 1_555
C20 C23 1_555 1_555
C21 C22 1_555 1_555
C28 C29 1_555 1_555
C30 C31 1_555 1_555
C34 C35 1_555 1_555
C40 C41 1_555 1_555
C45 C46 1_555 1_555
C50 C51 1_555 1_555
C52 C53 1_555 1_555
C56 C57 1_555 1_555
C61 C62 1_555 1_555
C63 C64 1_555 1_555
C67 C68 1_555 1_555
Gd1A O9A 1_555 1_555

#END
