
#######################################################################
#
#                 Cambridge Crystallographic Data Centre
#                                CCDC 
#
#######################################################################
#
# If this CIF has been generated from an entry in the Cambridge 
# Structural Database, then it will include bibliographic, chemical, 
# crystal, experimental, refinement or atomic coordinate data resulting 
# from the CCDC's data processing and validation procedures.
#
#######################################################################

data_XIZMUQ
_symmetry_cell_setting           monoclinic
_symmetry_space_group_name_H-M   'P 21/c'
_symmetry_Int_Tables_number      14
_space_group_name_Hall           '-P 2ybc'
loop_
_symmetry_equiv_pos_site_id
_symmetry_equiv_pos_as_xyz
1 x,y,z
2 -x,1/2+y,1/2-z
3 -x,-y,-z
4 x,1/2-y,1/2+z
_cell_length_a                   13.4187(6)
_cell_length_b                   12.5647(6)
_cell_length_c                   21.7018(5)
_cell_angle_alpha                90
_cell_angle_beta                 100.669(3)
_cell_angle_gamma                90
_cell_volume                     3595.71
loop_
_atom_site_label
_atom_site_type_symbol
_atom_site_fract_x
_atom_site_fract_y
_atom_site_fract_z
Cu1 Cu 0.07921(4) 0.73370(4) 0.11338(2)
O1 O 0.0631(2) 1.1994(3) 0.40524(13)
O2 O -0.0857(2) 1.1215(2) 0.32464(14)
N1 N 0.2292(3) 0.7543(3) 0.12465(16)
N2 N 0.0834(3) 0.8198(3) 0.03618(16)
N3 N 0.0543(3) 0.8752(3) 0.17828(16)
N4 N 0.0889(3) 1.1331(3) 0.35825(17)
H1 H 0.1515 1.1176 0.3548
C1 C 0.3000(3) 0.7151(4) 0.1717(2)
H2 H 0.2790 0.6683 0.2012
C2 C 0.4014(3) 0.7401(4) 0.1785(2)
H3 H 0.4496 0.7111 0.2118
C3 C 0.4315(4) 0.8092(4) 0.1350(2)
H4 H 0.5008 0.8282 0.1385
C4 C 0.3602(3) 0.8495(4) 0.0874(2)
H5 H 0.3797 0.8970 0.0576
C5 C 0.2590(3) 0.8205(4) 0.0828(2)
C6 C 0.1767(3) 0.8571(4) 0.03232(19)
C7 C 0.1922(4) 0.9231(4) -0.0166(2)
H6 H 0.2577 0.9501 -0.0183
C8 C 0.1095(4) 0.9485(4) -0.0627(2)
H7 H 0.1185 0.9919 -0.0971
C9 C 0.0140(4) 0.9107(4) -0.0588(2)
H8 H -0.0433 0.9282 -0.0899
C10 C 0.0045(4) 0.8468(4) -0.0084(2)
H9 H -0.0609 0.8208 -0.0052
C11 C -0.0351(3) 0.8868(4) 0.1948(2)
H10 H -0.0894 0.8428 0.1752
C12 C -0.0539(3) 0.9600(4) 0.23947(19)
H11 H -0.1198 0.9664 0.2491
C13 C 0.0245(4) 1.0235(4) 0.2697(2)
C14 C 0.1185(3) 1.0128(4) 0.2516(2)
H12 H 0.1746 1.0551 0.2706
C15 C 0.1286(4) 0.9401(4) 0.2058(2)
H13 H 0.1923 0.9355 0.1929
C16 C 0.0088(4) 1.0974(4) 0.3205(2)
Cu1A Cu -0.07921(4) 1.23370(4) 0.38662(2)
O1A O -0.0631(2) 0.6994(3) 0.09476(13)
O2A O 0.0857(2) 0.6215(2) 0.17536(14)
Cu2 Cu 0.40858(4) 0.72107(4) 0.38342(2)
O3 O 0.4556(2) 1.1746(2) 0.09635(13)
O4 O 0.6065(2) 1.1094(2) 0.18118(13)
N5 N 0.2620(3) 0.7564(3) 0.37390(16)
N6 N 0.4158(3) 0.8100(3) 0.46088(16)
N7 N 0.4523(3) 0.8614(3) 0.32454(16)
N8 N 0.4337(3) 1.1071(3) 0.14371(17)
H14 H 0.3720 1.0854 0.1457
C17 C 0.1879(3) 0.7226(4) 0.3287(2)
H15 H 0.2048 0.6767 0.2974
C18 C 0.0873(4) 0.7512(4) 0.3251(2)
H16 H 0.0362 0.7251 0.2923
C19 C 0.0633(4) 0.8188(4) 0.3706(2)
H17 H -0.0050 0.8397 0.3696
C20 C 0.1402(4) 0.8557(4) 0.4178(2)
H18 H 0.1253 0.9034 0.4489
C21 C 0.2388(3) 0.8219(4) 0.41886(19)
C22 C 0.3263(4) 0.8530(4) 0.4676(2)
C23 C 0.3200(4) 0.9203(4) 0.5178(2)
H19 H 0.2569 0.9507 0.5221
C24 C 0.4068(5) 0.9424(4) 0.5613(2)
H20 H 0.4036 0.9877 0.5959
C25 C 0.4970(4) 0.8983(4) 0.5539(2)
H21 H 0.5572 0.9123 0.5834
C26 C 0.4994(4) 0.8319(4) 0.5022(2)
H22 H 0.5622 0.8021 0.4966
C27 C 0.5438(3) 0.8676(4) 0.3087(2)
H23 H 0.5949 0.8197 0.3281
C28 C 0.5685(3) 0.9394(4) 0.2659(2)
H24 H 0.6356 0.9423 0.2579
C29 C 0.4941(3) 1.0075(4) 0.23463(19)
C30 C 0.3994(3) 1.0044(4) 0.2525(2)
H25 H 0.3475 1.0526 0.2345
C31 C 0.3815(4) 0.9308(4) 0.2966(2)
H26 H 0.3162 0.9290 0.3076
C32 C 0.5127(3) 1.0799(4) 0.1839(2)
Cu2A Cu 0.59142(4) 1.22107(4) 0.11658(2)
O3A O 0.5444(2) 0.6746(2) 0.40365(13)
O4A O 0.3935(2) 0.6094(2) 0.31882(13)
O5 O 0.4138(3) 0.4431(3) 0.49235(17)
H27 H 0.4239 0.4033 0.5255
H28 H 0.4698 0.4805 0.4968
O6 O 0.3071(3) 0.4297(3) 0.37129(17)
H30 H 0.3407 0.4332 0.4090
H31 H 0.3308 0.4823 0.3535
O7 O 0.1950(3) 0.4536(3) 0.12827(16)
H33 H 0.1690 0.5108 0.1427
O8 O 0.0816(3) 0.4382(3) 0.00880(17)
H34 H 0.1312 0.4506 0.0399
H35 H 0.1045 0.3908 -0.0135
O9 O 0.2272(2) 0.1216(3) 0.09953(16)
H36 H 0.2260 0.1474 0.0628
O10 O 0.1897(3) 0.2638(3) 0.19125(17)
H37 H 0.1917 0.3233 0.1720
H38 H 0.2015 0.2115 0.1683
O11 O 0.2774(3) 0.2308(4) 0.31646(19)
H39 H 0.2486 0.2409 0.2782
H40 H 0.2740 0.2925 0.3331
O12 O 0.2352(3) 0.2817(4) 0.47673(19)
H41 H 0.1808 0.2566 0.4566
H42 H 0.2563 0.3289 0.4549
O13 O -0.2784(11) 0.6041(14) 0.1041(9)
H43 H -0.2894 0.5379 0.0984
H44 H -0.2950 0.6360 0.0676
H29? H 0.3919 0.4141 0.4570
H32? H 0.2491 0.4526 0.3754
loop_
_geom_bond_atom_site_label_1
_geom_bond_atom_site_label_2
_geom_bond_site_symmetry_1
_geom_bond_site_symmetry_2
Cu1 N1 1_555 1_555
O1 N4 1_555 1_555
O2 C16 1_555 1_555
N1 C1 1_555 1_555
N2 Cu1 1_555 1_555
N3 Cu1 1_555 1_555
N4 H1 1_555 1_555
C1 H2 1_555 1_555
C2 C1 1_555 1_555
H3 C2 1_555 1_555
C3 C2 1_555 1_555
H4 C3 1_555 1_555
C4 C3 1_555 1_555
H5 C4 1_555 1_555
C5 N1 1_555 1_555
C6 N2 1_555 1_555
C7 C6 1_555 1_555
H6 C7 1_555 1_555
C8 C7 1_555 1_555
H7 C8 1_555 1_555
C9 C8 1_555 1_555
H8 C9 1_555 1_555
C10 N2 1_555 1_555
H9 C10 1_555 1_555
C11 N3 1_555 1_555
H10 C11 1_555 1_555
C12 C11 1_555 1_555
H11 C12 1_555 1_555
C13 C12 1_555 1_555
C14 C13 1_555 1_555
H12 C14 1_555 1_555
C15 N3 1_555 1_555
H13 C15 1_555 1_555
C16 N4 1_555 1_555
Cu2 N5 1_555 1_555
O3 N8 1_555 1_555
O4 C32 1_555 1_555
N5 C17 1_555 1_555
N6 Cu2 1_555 1_555
N7 Cu2 1_555 1_555
N8 H14 1_555 1_555
C17 H15 1_555 1_555
C18 C17 1_555 1_555
H16 C18 1_555 1_555
C19 C18 1_555 1_555
H17 C19 1_555 1_555
C20 C19 1_555 1_555
H18 C20 1_555 1_555
C21 N5 1_555 1_555
C22 N6 1_555 1_555
C23 C22 1_555 1_555
H19 C23 1_555 1_555
C24 C23 1_555 1_555
H20 C24 1_555 1_555
C25 C24 1_555 1_555
H21 C25 1_555 1_555
C26 N6 1_555 1_555
H22 C26 1_555 1_555
C27 N7 1_555 1_555
H23 C27 1_555 1_555
C28 C27 1_555 1_555
H24 C28 1_555 1_555
C29 C28 1_555 1_555
C30 C29 1_555 1_555
H25 C30 1_555 1_555
C31 N7 1_555 1_555
H26 C31 1_555 1_555
C32 N8 1_555 1_555
O5 H27 1_555 1_555
H28 O5 1_555 1_555
O6 H30 1_555 1_555
H31 O6 1_555 1_555
O7 H33 1_555 1_555
O8 H34 1_555 1_555
H35 O8 1_555 1_555
O9 H36 1_555 1_555
O10 H37 1_555 1_555
H38 O10 1_555 1_555
O11 H39 1_555 1_555
H40 O11 1_555 1_555
O12 H41 1_555 1_555
H42 O12 1_555 1_555
O13 H43 1_555 1_555
H44 O13 1_555 1_555
Cu1A O1 1_555 1_555
O1A Cu1 1_555 1_555
O2A Cu1 1_555 1_555
Cu2A O3 1_555 1_555
O3A Cu2 1_555 1_555
O4A Cu2 1_555 1_555
O2 Cu1A 1_555 1_555
C4 C5 1_555 1_555
C5 C6 1_555 1_555
C9 C10 1_555 1_555
C13 C16 1_555 1_555
C14 C15 1_555 1_555
O4 Cu2A 1_555 1_555
C20 C21 1_555 1_555
C21 C22 1_555 1_555
C25 C26 1_555 1_555
C29 C32 1_555 1_555
C30 C31 1_555 1_555

#END
