
#######################################################################
#
#                 Cambridge Crystallographic Data Centre
#                                CCDC 
#
#######################################################################
#
# If this CIF has been generated from an entry in the Cambridge 
# Structural Database, then it will include bibliographic, chemical, 
# crystal, experimental, refinement or atomic coordinate data resulting 
# from the CCDC's data processing and validation procedures.
#
#######################################################################

data_XIZMEA
_symmetry_cell_setting           triclinic
_symmetry_space_group_name_H-M   'P -1'
_symmetry_Int_Tables_number      2
_space_group_name_Hall           '-P 1'
loop_
_symmetry_equiv_pos_site_id
_symmetry_equiv_pos_as_xyz
1 x,y,z
2 -x,-y,-z
_cell_length_a                   9.00246(19)
_cell_length_b                   15.2262(3)
_cell_length_c                   23.4324(5)
_cell_angle_alpha                73.8380(18)
_cell_angle_beta                 89.0785(17)
_cell_angle_gamma                83.0742(16)
_cell_volume                     3061.99
loop_
_atom_site_label
_atom_site_type_symbol
_atom_site_fract_x
_atom_site_fract_y
_atom_site_fract_z
Ir1 Ir 0.78176(3) 0.953339(18) 0.329079(10)
Ir2 Ir -0.32015(3) 1.497831(15) -0.194056(11)
Er1 Er 0.20140(7) 1.04492(3) 0.006820(17)
O1 O 0.1604(7) 0.8806(6) 0.1740(2)
O2 O 0.2734(7) 0.9710(5) 0.0999(2)
O3 O 0.3741(6) 1.2072(4) -0.1604(3)
O4 O 0.2437(6) 1.1270(3) -0.0864(2)
O5 O 0.8417(10) 1.2437(6) 0.0427(3)
O6 O 1.0651(8) 1.1524(4) 0.0396(3)
O7 O -0.6028(7) 1.1293(4) 0.0180(2)
O8 O -0.3668(7) 1.0681(3) 0.0111(2)
N1 N -0.2872(7) 1.5782(4) -0.1394(3)
N2 N -0.1133(5) 1.4084(3) -0.1724(2)
N3 N -0.3794(6) 1.3883(3) -0.1212(2)
N4 N -0.3689(6) 1.4341(3) -0.2569(2)
N5 N 0.8551(6) 0.8235(4) 0.3241(2)
N6 N 0.7248(6) 1.0789(4) 0.3458(2)
N7 N 0.5910(6) 0.9557(4) 0.2746(2)
N8 N 0.8496(6) 1.0221(3) 0.2416(2)
C1 C -0.3352(9) 1.4773(5) -0.3133(3)
C2 C -0.3720(13) 1.4416(7) -0.3597(4)
H1 H -0.3461 1.4700 -0.3984
C3 C -0.4455(14) 1.3654(8) -0.3483(5)
H2 H -0.4715 1.3425 -0.3792
C4 C -0.4814(11) 1.3222(6) -0.2902(4)
H3 H -0.5327 1.2706 -0.2815
C5 C -0.4388(8) 1.3578(5) -0.2461(4)
H4 H -0.4592 1.3279 -0.2069
C6 C -0.2623(8) 1.5604(5) -0.3197(3)
C7 C -0.2483(7) 1.5866(4) -0.2677(3)
C8 C -0.1867(8) 1.6676(5) -0.2721(4)
H5 H -0.1778 1.6875 -0.2384
C9 C -0.1383(10) 1.7189(6) -0.3262(4)
H6 H -0.0988 1.7733 -0.3283
C10 C -0.1474(11) 1.6909(7) -0.3767(4)
H7 H -0.1110 1.7249 -0.4124
C11 C -0.2111(11) 1.6118(7) -0.3740(4)
H8 H -0.2199 1.5927 -0.4081
C12 C -0.2724(7) 1.3146(4) -0.1051(3)
C13 C -0.3017(8) 1.2329(4) -0.0658(3)
H9 H -0.2270 1.1831 -0.0556
C14 C -0.4405(8) 1.2250(4) -0.0417(3)
C15 C -0.5482(8) 1.3013(5) -0.0567(3)
H10 H -0.6427 1.2982 -0.0401
C16 C -0.5140(7) 1.3823(4) -0.0965(3)
H11 H -0.5863 1.4334 -0.1063
C17 C -0.1248(7) 1.3271(4) -0.1321(3)
C18 C -0.0038(7) 1.2594(4) -0.1165(3)
H12 H -0.0144 1.2042 -0.0881
C19 C 0.1331(7) 1.2737(4) -0.1432(3)
C20 C 0.1465(7) 1.3586(5) -0.1835(3)
H13 H 0.2379 1.3717 -0.2009
C21 C 0.0204(7) 1.4236(4) -0.1974(3)
H14 H 0.0289 1.4800 -0.2250
C22 C 0.2641(7) 1.1965(4) -0.1296(3)
C23 C -0.4744(9) 1.1329(4) -0.0009(3)
C24 C 0.7507(7) 1.0287(4) 0.1969(3)
C25 C 0.7812(8) 1.0740(5) 0.1384(3)
H15 H 0.7130 1.0779 0.1081
C26 C 0.9138(9) 1.1133(6) 0.1252(3)
C27 C 1.0156(8) 1.1015(6) 0.1706(3)
H16 H 1.1090 1.1220 0.1626
C28 C 0.9780(8) 1.0592(5) 0.2277(3)
H17 H 1.0447 1.0561 0.2583
C29 C 0.6091(7) 0.9885(4) 0.2150(3)
C30 C 0.5024(7) 0.9816(4) 0.1751(3)
H18 H 0.5166 1.0036 0.1345
C31 C 0.3751(7) 0.9420(4) 0.1957(3)
C32 C 0.3557(7) 0.9124(5) 0.2569(3)
H19 H 0.2697 0.8870 0.2722
C33 C 0.4651(8) 0.9213(5) 0.2941(3)
H20 H 0.4505 0.9025 0.3349
C34 C 0.2588(8) 0.9293(6) 0.1536(3)
C35 C 0.9401(11) 1.1769(6) 0.0628(4)
C36 C 0.7241(8) 0.7834(5) 0.4144(3)
C37 C 0.6658(10) 0.7229(6) 0.4634(4)
H21 H 0.6815 0.6597 0.4684
C38 C 0.5849(10) 0.7576(6) 0.5043(4)
H22 H 0.5449 0.7176 0.5367
C39 C 0.5627(8) 0.8507(6) 0.4977(3)
H23 H 0.5105 0.8730 0.5263
C40 C 0.6177(8) 0.9117(5) 0.4485(3)
H24 H 0.6002 0.9747 0.4441
C41 C 0.6988(7) 0.8796(4) 0.4056(3)
C42 C 0.8165(9) 0.7536(5) 0.3699(3)
C43 C 0.8732(11) 0.6628(6) 0.3733(4)
H25 H 0.8460 0.6146 0.4042
C44 C 0.9693(12) 0.6449(6) 0.3307(5)
H26 H 1.0063 0.5844 0.3325
C45 C 1.0106(10) 0.7161(6) 0.2856(4)
H27 H 1.0790 0.7049 0.2576
C46 C 0.9491(8) 0.8044(5) 0.2826(3)
H28 H 0.9731 0.8525 0.2510
C47 C 0.8244(8) 1.1036(4) 0.3798(3)
C48 C 0.7929(10) 1.1863(5) 0.3945(4)
H29 H 0.8592 1.2025 0.4187
C49 C 0.6653(10) 1.2436(5) 0.3737(4)
H30 H 0.6461 1.2996 0.3827
C50 C 0.5647(10) 1.2182(6) 0.3391(4)
H31 H 0.4769 1.2564 0.3248
C51 C 0.5974(9) 1.1350(5) 0.3262(3)
H32 H 0.5297 1.1171 0.3033
C52 C 0.9589(8) 1.0374(5) 0.3970(3)
C53 C 0.9641(7) 0.9582(5) 0.3767(3)
C54 C 1.0903(8) 0.8921(5) 0.3923(3)
H33 H 1.0962 0.8390 0.3797
C55 C 1.2061(9) 0.9051(6) 0.4262(4)
H34 H 1.2891 0.8608 0.4361
C56 C 1.1989(10) 0.9833(6) 0.4453(4)
H35 H 1.2774 0.9917 0.4677
C57 C 1.0765(9) 1.0486(6) 0.4313(3)
H36 H 1.0718 1.1008 0.4449
C58 C -0.4054(12) 1.6397(5) -0.1359(4)
C59 C -0.3900(17) 1.7034(7) -0.1039(6)
H37 H -0.4719 1.7448 -0.1002
C60 C -0.2576(19) 1.7052(8) -0.0786(6)
H38 H -0.2477 1.7488 -0.0583
C61 C -0.1381(15) 1.6431(9) -0.0824(5)
H39 H -0.0458 1.6439 -0.0654
C62 C -0.1584(13) 1.5783(7) -0.1127(4)
H40 H -0.0792 1.5338 -0.1143
C63 C -0.5380(11) 1.6363(5) -0.1692(4)
C64 C -0.5214(8) 1.5746(4) -0.2039(3)
C65 C -0.6442(8) 1.5715(5) -0.2391(4)
H41 H -0.6352 1.5321 -0.2634
C66 C -0.7788(10) 1.6261(6) -0.2385(6)
H42 H -0.8590 1.6234 -0.2622
C67 C -0.7935(13) 1.6847(8) -0.2025(7)
H43 H -0.8842 1.7207 -0.2016
C68 C -0.6793(14) 1.6899(7) -0.1691(7)
H44 H -0.6915 1.7295 -0.1451
O9 O 0.0065(8) 0.9613(6) 0.0514(4)
Er1_2 Er -0.79860(7) 1.04492(3) 0.006820(17)
Er1_3 Er 1.20140(7) 1.04492(3) 0.006820(17)
Er1A Er -0.20140(7) 0.95508(3) -0.006820(17)
O6_2 O 0.0651(8) 1.1524(4) 0.0396(3)
O7_2 O 0.3972(7) 1.1293(4) 0.0180(2)
O8A O 0.3668(7) 0.9319(3) -0.0111(2)
O9A O -0.0065(8) 1.0387(6) -0.0514(4)
O10 O 0.727(6) 0.462(2) 0.4822(14)
loop_
_geom_bond_atom_site_label_1
_geom_bond_atom_site_label_2
_geom_bond_site_symmetry_1
_geom_bond_site_symmetry_2
Ir1 N5 1_555 1_555
Ir2 N1 1_555 1_555
Er1 O2 1_555 1_555
O1 C34 1_555 1_555
O2 C34 1_555 1_555
O3 C22 1_555 1_555
O4 Er1 1_555 1_555
O5 C35 1_555 1_555
O6 C35 1_555 1_555
O7 C23 1_555 1_555
O8 C23 1_555 1_555
N1 C58 1_555 1_555
N2 Ir2 1_555 1_555
N3 Ir2 1_555 1_555
N4 Ir2 1_555 1_555
N5 C42 1_555 1_555
N6 Ir1 1_555 1_555
N7 Ir1 1_555 1_555
N8 Ir1 1_555 1_555
C1 N4 1_555 1_555
C2 C1 1_555 1_555
H1 C2 1_555 1_555
C3 C2 1_555 1_555
H2 C3 1_555 1_555
C4 C3 1_555 1_555
H3 C4 1_555 1_555
C5 N4 1_555 1_555
H4 C5 1_555 1_555
C6 C1 1_555 1_555
C7 Ir2 1_555 1_555
C8 C7 1_555 1_555
H5 C8 1_555 1_555
C9 C8 1_555 1_555
H6 C9 1_555 1_555
C10 C9 1_555 1_555
H7 C10 1_555 1_555
C11 C6 1_555 1_555
H8 C11 1_555 1_555
C12 N3 1_555 1_555
C13 C12 1_555 1_555
H9 C13 1_555 1_555
C14 C13 1_555 1_555
C15 C14 1_555 1_555
H10 C15 1_555 1_555
C16 N3 1_555 1_555
H11 C16 1_555 1_555
C17 N2 1_555 1_555
C18 C17 1_555 1_555
H12 C18 1_555 1_555
C19 C18 1_555 1_555
C20 C19 1_555 1_555
H13 C20 1_555 1_555
C21 N2 1_555 1_555
H14 C21 1_555 1_555
C22 O4 1_555 1_555
C23 C14 1_555 1_555
C24 N8 1_555 1_555
C25 C24 1_555 1_555
H15 C25 1_555 1_555
C26 C25 1_555 1_555
C27 C26 1_555 1_555
H16 C27 1_555 1_555
C28 N8 1_555 1_555
H17 C28 1_555 1_555
C29 N7 1_555 1_555
C30 C29 1_555 1_555
H18 C30 1_555 1_555
C31 C30 1_555 1_555
C32 C31 1_555 1_555
H19 C32 1_555 1_555
C33 N7 1_555 1_555
H20 C33 1_555 1_555
C34 C31 1_555 1_555
C35 C26 1_555 1_555
C36 C37 1_555 1_555
C37 H21 1_555 1_555
C38 C37 1_555 1_555
H22 C38 1_555 1_555
C39 C38 1_555 1_555
H23 C39 1_555 1_555
C40 C39 1_555 1_555
H24 C40 1_555 1_555
C41 Ir1 1_555 1_555
C42 C36 1_555 1_555
C43 C42 1_555 1_555
H25 C43 1_555 1_555
C44 C43 1_555 1_555
H26 C44 1_555 1_555
C45 C44 1_555 1_555
H27 C45 1_555 1_555
C46 N5 1_555 1_555
H28 C46 1_555 1_555
C47 N6 1_555 1_555
C48 C47 1_555 1_555
H29 C48 1_555 1_555
C49 C48 1_555 1_555
H30 C49 1_555 1_555
C50 C49 1_555 1_555
H31 C50 1_555 1_555
C51 N6 1_555 1_555
H32 C51 1_555 1_555
C52 C47 1_555 1_555
C53 Ir1 1_555 1_555
C54 C53 1_555 1_555
H33 C54 1_555 1_555
C55 C54 1_555 1_555
H34 C55 1_555 1_555
C56 C55 1_555 1_555
H35 C56 1_555 1_555
C57 C52 1_555 1_555
H36 C57 1_555 1_555
C58 C59 1_555 1_555
C59 H37 1_555 1_555
C60 C59 1_555 1_555
H38 C60 1_555 1_555
C61 C60 1_555 1_555
H39 C61 1_555 1_555
C62 N1 1_555 1_555
H40 C62 1_555 1_555
C63 C58 1_555 1_555
C64 Ir2 1_555 1_555
C65 C64 1_555 1_555
H41 C65 1_555 1_555
C66 C65 1_555 1_555
H42 C66 1_555 1_555
C67 C66 1_555 1_555
H43 C67 1_555 1_555
C68 C63 1_555 1_555
H44 C68 1_555 1_555
O9 Er1 1_555 1_555
Er1_2 O7 1_555 1_555
Er1_3 O6 1_555 1_555
Er1A O8 1_555 1_555
O6_2 Er1 1_555 1_555
O7_2 Er1 1_555 1_555
O8A Er1 1_555 1_555
O9A Er1 1_555 1_555
C4 C5 1_555 1_555
C6 C7 1_555 1_555
C10 C11 1_555 1_555
C12 C17 1_555 1_555
C15 C16 1_555 1_555
C19 C22 1_555 1_555
C20 C21 1_555 1_555
C24 C29 1_555 1_555
C27 C28 1_555 1_555
C32 C33 1_555 1_555
C36 C41 1_555 1_555
C40 C41 1_555 1_555
C45 C46 1_555 1_555
C50 C51 1_555 1_555
C52 C53 1_555 1_555
C56 C57 1_555 1_555
C61 C62 1_555 1_555
C63 C64 1_555 1_555
C67 C68 1_555 1_555
O9 Er1A 1_555 1_555
Er1A O9A 1_555 1_555

#END
