
#######################################################################
#
#                 Cambridge Crystallographic Data Centre
#                                CCDC 
#
#######################################################################
#
# If this CIF has been generated from an entry in the Cambridge 
# Structural Database, then it will include bibliographic, chemical, 
# crystal, experimental, refinement or atomic coordinate data resulting 
# from the CCDC's data processing and validation procedures.
#
#######################################################################

data_XIZMOK
_symmetry_cell_setting           monoclinic
_symmetry_space_group_name_H-M   'P 21/n'
_symmetry_Int_Tables_number      14
_space_group_name_Hall           '-P 2yn'
loop_
_symmetry_equiv_pos_site_id
_symmetry_equiv_pos_as_xyz
1 x,y,z
2 1/2-x,1/2+y,1/2-z
3 -x,-y,-z
4 1/2+x,1/2-y,1/2+z
_cell_length_a                   7.9852(3)
_cell_length_b                   24.5926(11)
_cell_length_c                   9.3471(4)
_cell_angle_alpha                90
_cell_angle_beta                 100.870(3)
_cell_angle_gamma                90
_cell_volume                     1802.62
loop_
_atom_site_label
_atom_site_type_symbol
_atom_site_fract_x
_atom_site_fract_y
_atom_site_fract_z
Cu1 Cu 0.12142(6) 0.12863(2) 0.92503(5)
O1 O 0.0658(4) 0.15481(11) 0.7226(3)
O2 O -0.0177(4) 0.18732(12) 0.9676(3)
N1 N 0.1162(4) 0.08999(14) 1.1123(4)
N2 N 0.2305(4) 0.05964(14) 0.8769(4)
N3 N -0.1481(4) 0.31587(15) 0.4656(4)
N4 N -0.0354(4) 0.22047(14) 0.8490(4)
H1 H -0.0556 0.2535 0.8637
C1 C 0.0586(5) 0.1071(2) 1.2289(5)
H2 H 0.0168 0.1432 1.2310
C2 C 0.0580(6) 0.0728(2) 1.3494(6)
H3 H 0.0192 0.0860 1.4330
C3 C 0.1145(6) 0.0201(2) 1.3446(6)
H4 H 0.1152 -0.0031 1.4259
C4 C 0.1705(6) 0.0004(2) 1.2223(6)
C5 C 0.2265(6) -0.0544(2) 1.2026(7)
H5 H 0.2234 -0.0804 1.2771
C6 C 0.2828(6) -0.0696(2) 1.0826(7)
H6 H 0.3176 -0.1062 1.0735
C7 C 0.2916(5) -0.03205(19) 0.9681(6)
C8 C 0.3569(6) -0.0440(2) 0.8419(6)
H7 H 0.3998 -0.0793 0.8282
C9 C 0.3579(6) -0.0046(2) 0.7394(6)
H8 H 0.4037 -0.0122 0.6548
C10 C 0.2917(5) 0.04698(18) 0.7585(5)
H9 H 0.2904 0.0737 0.6848
C11 C 0.2321(5) 0.02161(17) 0.9812(5)
C12 C 0.1719(5) 0.03762(17) 1.1088(5)
C13 C -0.0644(5) 0.30382(19) 0.3588(5)
H10 H -0.0783 0.3268 0.2757
C14 C -0.1255(5) 0.28357(18) 0.5817(5)
H11 H -0.1848 0.2918 0.6581
C15 C 0.0041(5) 0.20280(17) 0.7275(5)
C16 C -0.0192(5) 0.23833(17) 0.5969(5)
C17 C 0.0661(6) 0.2261(2) 0.4853(6)
H12 H 0.1398 0.1955 0.4920
C18 C 0.0423(6) 0.2589(2) 0.3650(6)
H13 H 0.0982 0.2511 0.2863
Cu1C Cu -0.37858(6) 0.37137(2) 0.42503(5)
N3C N 0.3519(4) 0.18413(15) 0.9656(4)
Cl1 Cl 0.54995(14) 0.13847(4) 0.47111(12)
O3 O 0.6275(7) 0.16371(19) 0.6041(4)
O4 O 0.3979(5) 0.16700(18) 0.4155(6)
O5 O 0.6635(7) 0.1423(2) 0.3736(7)
O6 O 0.5047(6) 0.08345(15) 0.4929(5)
loop_
_geom_bond_atom_site_label_1
_geom_bond_atom_site_label_2
_geom_bond_site_symmetry_1
_geom_bond_site_symmetry_2
Cu1 O1 1_555 1_555
O1 C15 1_555 1_555
O2 Cu1 1_555 1_555
N1 Cu1 1_555 1_555
N2 Cu1 1_555 1_555
N3 C13 1_555 1_555
N4 O2 1_555 1_555
H1 N4 1_555 1_555
C1 N1 1_555 1_555
H2 C1 1_555 1_555
C2 C1 1_555 1_555
H3 C2 1_555 1_555
C3 C2 1_555 1_555
H4 C3 1_555 1_555
C4 C3 1_555 1_555
C5 C4 1_555 1_555
H5 C5 1_555 1_555
C6 C5 1_555 1_555
H6 C6 1_555 1_555
C7 C6 1_555 1_555
C8 C7 1_555 1_555
H7 C8 1_555 1_555
C9 C8 1_555 1_555
H8 C9 1_555 1_555
C10 N2 1_555 1_555
H9 C10 1_555 1_555
C11 N2 1_555 1_555
C12 N1 1_555 1_555
C13 H10 1_555 1_555
C14 N3 1_555 1_555
H11 C14 1_555 1_555
C15 N4 1_555 1_555
C16 C14 1_555 1_555
C17 C16 1_555 1_555
H12 C17 1_555 1_555
C18 C13 1_555 1_555
H13 C18 1_555 1_555
Cl1 O3 1_555 1_555
O4 Cl1 1_555 1_555
O5 Cl1 1_555 1_555
O6 Cl1 1_555 1_555
Cu1C N3 1_555 1_555
N3C Cu1 1_555 1_555
C4 C12 1_555 1_555
C7 C11 1_555 1_555
C9 C10 1_555 1_555
C11 C12 1_555 1_555
C15 C16 1_555 1_555
C17 C18 1_555 1_555

#END
