
#######################################################################
#
#                 Cambridge Crystallographic Data Centre
#                                CCDC 
#
#######################################################################
#
# If this CIF has been generated from an entry in the Cambridge 
# Structural Database, then it will include bibliographic, chemical, 
# crystal, experimental, refinement or atomic coordinate data resulting 
# from the CCDC's data processing and validation procedures.
#
#######################################################################

data_XIZNAX
_symmetry_cell_setting           triclinic
_symmetry_space_group_name_H-M   'P -1'
_symmetry_Int_Tables_number      2
_space_group_name_Hall           '-P 1'
loop_
_symmetry_equiv_pos_site_id
_symmetry_equiv_pos_as_xyz
1 x,y,z
2 -x,-y,-z
_cell_length_a                   8.7094(3)
_cell_length_b                   9.5978(3)
_cell_length_c                   10.6996(3)
_cell_angle_alpha                96.294(2)
_cell_angle_beta                 102.423(2)
_cell_angle_gamma                95.889(2)
_cell_volume                     860.818
loop_
_atom_site_label
_atom_site_type_symbol
_atom_site_fract_x
_atom_site_fract_y
_atom_site_fract_z
Cu1 Cu -0.12786(3) 0.03691(3) 0.85283(3)
S1 S -0.10800(8) -0.27485(7) 0.76737(6)
S2 S -0.25149(9) 0.08802(8) 0.52019(7)
O1 O -0.0435(2) 0.23580(19) 0.86708(18)
O2 O 0.0906(2) 0.00583(19) 0.87545(18)
O3 O -0.1890(2) -0.17068(19) 0.84275(17)
O4 O -0.2036(3) -0.0040(2) 0.62382(18)
N1 N 0.6558(2) 0.0753(2) 0.8647(2)
N2 N 0.1157(2) 0.2393(2) 0.8700(2)
H1 H 0.164(4) 0.321(3) 0.865(3)
C1 C 0.1775(3) 0.1210(3) 0.8751(2)
C2 C 0.3473(3) 0.1151(3) 0.8741(2)
C3 C 0.3815(3) -0.0145(3) 0.8225(2)
H2 H 0.2995 -0.0914 0.7907
C4 C 0.5360(3) -0.0299(3) 0.8181(2)
H3 H 0.5585 -0.1178 0.7809
C5 C 0.6232(3) 0.1998(3) 0.9161(2)
H4 H 0.7080 0.2739 0.9499
C6 C 0.4698(3) 0.2245(3) 0.9217(3)
H5 H 0.4497 0.3140 0.9573
C7 C -0.0760(4) 0.1976(4) 0.5145(4)
H6 H -0.0235 0.2436 0.6018
H7 H -0.1037 0.2698 0.4586
H8 H -0.0042 0.1398 0.4801
C8 C -0.3504(4) 0.2220(4) 0.5851(3)
H9 H -0.4499 0.1789 0.6013
H10 H -0.3732 0.2896 0.5233
H11 H -0.2825 0.2714 0.6663
C9 C -0.1142(4) -0.4265(3) 0.8492(3)
H12 H -0.0440 -0.4044 0.9355
H13 H -0.0790 -0.5046 0.8002
H14 H -0.2229 -0.4541 0.8568
C10 C -0.2536(4) -0.3447(3) 0.6241(3)
H15 H -0.3493 -0.3867 0.6472
H16 H -0.2119 -0.4173 0.5739
H17 H -0.2796 -0.2686 0.5724
Cu1_2 Cu 0.87214(3) 0.03691(3) 0.85283(3)
N1_2 N -0.3442(2) 0.0753(2) 0.8647(2)
Cl1 Cl 0.29936(8) -0.47480(7) 0.73335(6)
O5 O 0.3726(3) -0.3379(3) 0.7260(2)
O6 O 0.3848(4) -0.5814(3) 0.6929(2)
O7 O 0.2800(3) -0.4852(2) 0.86367(18)
O8 O 0.1424(3) -0.4953(3) 0.6478(2)
loop_
_geom_bond_atom_site_label_1
_geom_bond_atom_site_label_2
_geom_bond_site_symmetry_1
_geom_bond_site_symmetry_2
Cu1 O1 1_555 1_555
S1 O3 1_555 1_555
S2 O4 1_555 1_555
O1 N2 1_555 1_555
O2 Cu1 1_555 1_555
O3 Cu1 1_555 1_555
O4 Cu1 1_555 1_555
N1 C4 1_555 1_555
N2 H1 1_555 1_555
C1 O2 1_555 1_555
C2 C1 1_555 1_555
C3 C2 1_555 1_555
H2 C3 1_555 1_555
C4 C3 1_555 1_555
H3 C4 1_555 1_555
C5 N1 1_555 1_555
H4 C5 1_555 1_555
C6 C2 1_555 1_555
H5 C6 1_555 1_555
C7 S2 1_555 1_555
H6 C7 1_555 1_555
H7 C7 1_555 1_555
H8 C7 1_555 1_555
C8 S2 1_555 1_555
H9 C8 1_555 1_555
H10 C8 1_555 1_555
H11 C8 1_555 1_555
C9 S1 1_555 1_555
H12 C9 1_555 1_555
H13 C9 1_555 1_555
H14 C9 1_555 1_555
C10 S1 1_555 1_555
H15 C10 1_555 1_555
H16 C10 1_555 1_555
H17 C10 1_555 1_555
Cl1 O5 1_555 1_555
O6 Cl1 1_555 1_555
O7 Cl1 1_555 1_555
O8 Cl1 1_555 1_555
Cu1_2 N1 1_555 1_555
N1_2 Cu1 1_555 1_555
N2 C1 1_555 1_555
C5 C6 1_555 1_555

#END
