
#######################################################################
#
#                 Cambridge Crystallographic Data Centre
#                                CCDC 
#
#######################################################################
#
# If this CIF has been generated from an entry in the Cambridge 
# Structural Database, then it will include bibliographic, chemical, 
# crystal, experimental, refinement or atomic coordinate data resulting 
# from the CCDC's data processing and validation procedures.
#
#######################################################################

data_XIZNIF
_symmetry_cell_setting           orthorhombic
_symmetry_space_group_name_H-M   'P b c a'
_symmetry_Int_Tables_number      61
_space_group_name_Hall           '-P 2ac 2ab'
loop_
_symmetry_equiv_pos_site_id
_symmetry_equiv_pos_as_xyz
1 x,y,z
2 1/2-x,-y,1/2+z
3 1/2+x,1/2-y,-z
4 -x,1/2+y,1/2-z
5 -x,-y,-z
6 1/2+x,y,1/2-z
7 1/2-x,1/2+y,z
8 x,1/2-y,1/2+z
_cell_length_a                   16.1013(4)
_cell_length_b                   12.1614(2)
_cell_length_c                   18.9485(5)
_cell_angle_alpha                90
_cell_angle_beta                 90
_cell_angle_gamma                90
_cell_volume                     3710.39
loop_
_atom_site_label
_atom_site_type_symbol
_atom_site_fract_x
_atom_site_fract_y
_atom_site_fract_z
Cu1 Cu 0.45986(3) 0.12624(3) 0.53569(2)
O1 O 0.44944(14) 0.07622(19) 0.63198(13)
O2 O 0.40338(14) -0.01207(18) 0.51270(12)
N1 N 0.46880(17) 0.1866(2) 0.43767(16)
N2 N 0.53349(17) 0.2521(2) 0.55921(16)
N3 N 0.38989(18) -0.0037(2) 0.63007(17)
H1 H 0.366(2) -0.007(3) 0.667(2)
N4 N 0.17285(18) -0.2816(2) 0.54818(15)
C1 C 0.4366(2) 0.1508(3) 0.3775(2)
H2 H 0.4084 0.0823 0.3769
C2 C 0.4429(2) 0.2112(3) 0.3143(2)
H3 H 0.4190 0.1835 0.2720
C3 C 0.4838(2) 0.3103(3) 0.3141(2)
H4 H 0.4868 0.3525 0.2720
C4 C 0.5210(2) 0.3492(3) 0.3760(2)
C5 C 0.5675(2) 0.4496(3) 0.3820(2)
H5 H 0.5735 0.4954 0.3417
C6 C 0.6030(2) 0.4805(3) 0.4437(2)
H6 H 0.6341 0.5467 0.4455
C7 C 0.5946(2) 0.4153(3) 0.5067(2)
C8 C 0.6307(2) 0.4399(3) 0.5720(2)
H7 H 0.6636 0.5041 0.5773
C9 C 0.6183(2) 0.3708(3) 0.6287(2)
H8 H 0.6430 0.3866 0.6731
C10 C 0.5692(2) 0.2774(3) 0.6201(2)
H9 H 0.5609 0.2301 0.6594
C11 C 0.5462(2) 0.3191(3) 0.50285(19)
C12 C 0.5106(2) 0.2848(3) 0.43732(19)
C13 C 0.3684(2) -0.0462(3) 0.56891(18)
C14 C 0.3033(2) -0.1326(3) 0.56545(19)
C15 C 0.2643(2) -0.1793(3) 0.62358(19)
H10 H 0.2817 -0.1615 0.6701
C16 C 0.1997(2) -0.2520(3) 0.61250(19)
H11 H 0.1728 -0.2828 0.6525
C17 C 0.2136(2) -0.2402(3) 0.49253(19)
H12 H 0.1974 -0.2632 0.4466
C18 C 0.2780(2) -0.1657(3) 0.49869(18)
H13 H 0.3047 -0.1375 0.4578
Cu1D Cu 0.54014(3) -0.12624(3) 0.46431(2)
Cu1F Cu 0.04014(3) -0.37376(3) 0.53569(2)
O2D O 0.59662(14) 0.01207(18) 0.48730(12)
N4F N 0.32715(18) 0.2184(2) 0.54818(15)
Cl1 Cl 0.72348(6) 0.43166(9) 0.22264(5)
O3 O 0.6817(2) 0.3408(3) 0.25231(18)
O4 O 0.7103(2) 0.4461(3) 0.15027(16)
O5 O 0.8076(2) 0.4427(3) 0.24303(19)
O6 O 0.6835(3) 0.5327(3) 0.2538(2)
loop_
_geom_bond_atom_site_label_1
_geom_bond_atom_site_label_2
_geom_bond_site_symmetry_1
_geom_bond_site_symmetry_2
Cu1 O1 1_555 1_555
O1 N3 1_555 1_555
O2 Cu1 1_555 1_555
N1 Cu1 1_555 1_555
N2 Cu1 1_555 1_555
N3 H1 1_555 1_555
N4 C16 1_555 1_555
C1 N1 1_555 1_555
H2 C1 1_555 1_555
C2 C1 1_555 1_555
H3 C2 1_555 1_555
C3 C2 1_555 1_555
H4 C3 1_555 1_555
C4 C3 1_555 1_555
C5 C4 1_555 1_555
H5 C5 1_555 1_555
C6 C5 1_555 1_555
H6 C6 1_555 1_555
C7 C6 1_555 1_555
C8 C7 1_555 1_555
H7 C8 1_555 1_555
C9 C8 1_555 1_555
H8 C9 1_555 1_555
C10 N2 1_555 1_555
H9 C10 1_555 1_555
C11 N2 1_555 1_555
C12 N1 1_555 1_555
C13 O2 1_555 1_555
C14 C13 1_555 1_555
C15 C14 1_555 1_555
H10 C15 1_555 1_555
C16 C15 1_555 1_555
H11 C16 1_555 1_555
C17 N4 1_555 1_555
H12 C17 1_555 1_555
C18 C14 1_555 1_555
H13 C18 1_555 1_555
Cl1 O3 1_555 1_555
O4 Cl1 1_555 1_555
O5 Cl1 1_555 1_555
O6 Cl1 1_555 1_555
Cu1D O2 1_555 1_555
Cu1F N4 1_555 1_555
O2D Cu1 1_555 1_555
N4F Cu1 1_555 1_555
N3 C13 1_555 1_555
C4 C12 1_555 1_555
C7 C11 1_555 1_555
C9 C10 1_555 1_555
C11 C12 1_555 1_555
C17 C18 1_555 1_555
Cu1D O2D 1_555 1_555

#END
