
#######################################################################
#
#                 Cambridge Crystallographic Data Centre
#                                CCDC 
#
#######################################################################
#
# If this CIF has been generated from an entry in the Cambridge 
# Structural Database, then it will include bibliographic, chemical, 
# crystal, experimental, refinement or atomic coordinate data resulting 
# from the CCDC's data processing and validation procedures.
#
#######################################################################

data_XIZNEB
_symmetry_cell_setting           monoclinic
_symmetry_space_group_name_H-M   'P 21/c'
_symmetry_Int_Tables_number      14
_space_group_name_Hall           '-P 2ybc'
loop_
_symmetry_equiv_pos_site_id
_symmetry_equiv_pos_as_xyz
1 x,y,z
2 -x,1/2+y,1/2-z
3 -x,-y,-z
4 x,1/2-y,1/2+z
_cell_length_a                   10.9002(3)
_cell_length_b                   12.4076(4)
_cell_length_c                   12.8803(2)
_cell_angle_alpha                90
_cell_angle_beta                 98.500(2)
_cell_angle_gamma                90
_cell_volume                     1722.87
loop_
_atom_site_label
_atom_site_type_symbol
_atom_site_fract_x
_atom_site_fract_y
_atom_site_fract_z
Cu1 Cu 0.58850(3) 0.07471(2) 0.44608(2)
Cl1 Cl 0.84242(5) 0.11505(5) 0.27866(4)
S1 S 0.81755(5) 0.02506(5) 0.60819(4)
O1 O 0.49672(14) 0.03542(12) 0.30821(12)
O2 O 0.59541(14) -0.07921(12) 0.46741(12)
O3 O 0.70031(15) 0.09366(13) 0.57869(12)
O4 O 0.79080(18) 0.05018(17) 0.35424(16)
O5 O 0.85984(19) 0.04998(19) 0.19016(15)
O6 O 0.96146(18) 0.15494(18) 0.32735(16)
O7 O 0.76119(19) 0.20295(17) 0.24636(16)
N1 N 0.56243(18) -0.12644(16) 0.37050(14)
N2 N 0.41993(17) -0.26689(15) 0.07758(14)
C1 C 0.5109(2) -0.06561(17) 0.29352(17)
C2 C 0.4660(2) -0.11363(18) 0.18977(17)
C3 C 0.4635(2) -0.22427(17) 0.17167(17)
H1 H 0.4937 -0.2713 0.2279
C4 C 0.3765(2) -0.19959(19) -0.00158(18)
H2 H 0.3463 -0.2293 -0.0685
C5 C 0.3741(2) -0.08923(19) 0.01098(18)
H3 H 0.3418 -0.0440 -0.0461
C6 C 0.4196(2) -0.04528(19) 0.10783(18)
H4 H 0.4190 0.0305 0.1181
C7 C 0.8283(2) 0.0151(2) 0.74697(18)
H5 H 0.8145 0.0862 0.7763
H6 H 0.9110 -0.0110 0.7765
H7 H 0.7655 -0.0354 0.7646
C8 C 0.9413(2) 0.1176(2) 0.6018(2)
H8 H 0.9429 0.1381 0.5285
H9 H 1.0202 0.0835 0.6303
H10 H 0.9287 0.1820 0.6429
H11 H 0.589(2) -0.190(2) 0.365(2)
Cu1A Cu 0.41150(3) -0.42529(2) 0.05392(2)
Cu1B Cu 0.41150(3) -0.07471(2) 0.55392(2)
O2B O 0.40459(14) 0.07921(12) 0.53259(12)
N2A N 0.58007(17) 0.23311(15) 0.42242(14)
S2 S 0.81000(6) -0.26330(5) 0.48671(5)
O8 O 0.70276(16) -0.31006(14) 0.41163(15)
C9 C 0.9268(2) -0.3659(2) 0.5030(2)
H12 H 0.8899 -0.4343 0.5208
H13 H 0.9928 -0.3453 0.5597
H14 H 0.9615 -0.3743 0.4375
C10 C 0.7665(3) -0.2714(2) 0.6143(2)
H15 H 0.6977 -0.2217 0.6191
H16 H 0.8374 -0.2518 0.6669
H17 H 0.7404 -0.3452 0.6272
loop_
_geom_bond_atom_site_label_1
_geom_bond_atom_site_label_2
_geom_bond_site_symmetry_1
_geom_bond_site_symmetry_2
Cu1 O1 1_555 1_555
Cl1 O4 1_555 1_555
S1 O3 1_555 1_555
O1 C1 1_555 1_555
O2 Cu1 1_555 1_555
O3 Cu1 1_555 1_555
O4 Cu1 1_555 1_555
O5 Cl1 1_555 1_555
O6 Cl1 1_555 1_555
O7 Cl1 1_555 1_555
N1 O2 1_555 1_555
N2 C3 1_555 1_555
C1 N1 1_555 1_555
C2 C1 1_555 1_555
C3 C2 1_555 1_555
H1 C3 1_555 1_555
C4 N2 1_555 1_555
H2 C4 1_555 1_555
C5 C4 1_555 1_555
H3 C5 1_555 1_555
C6 C2 1_555 1_555
H4 C6 1_555 1_555
C7 S1 1_555 1_555
H5 C7 1_555 1_555
H6 C7 1_555 1_555
H7 C7 1_555 1_555
C8 S1 1_555 1_555
H8 C8 1_555 1_555
H9 C8 1_555 1_555
H10 C8 1_555 1_555
H11 N1 1_555 1_555
S2 O8 1_555 1_555
C9 S2 1_555 1_555
H12 C9 1_555 1_555
H13 C9 1_555 1_555
H14 C9 1_555 1_555
C10 S2 1_555 1_555
H15 C10 1_555 1_555
H16 C10 1_555 1_555
H17 C10 1_555 1_555
Cu1A N2 1_555 1_555
Cu1B O2 1_555 1_555
O2B Cu1 1_555 1_555
N2A Cu1 1_555 1_555
C5 C6 1_555 1_555
Cu1B O2B 1_555 1_555

#END
