
#######################################################################
#
#                 Cambridge Crystallographic Data Centre
#                                CCDC 
#
#######################################################################
#
# If this CIF has been generated from an entry in the Cambridge 
# Structural Database, then it will include bibliographic, chemical, 
# crystal, experimental, refinement or atomic coordinate data resulting 
# from the CCDC's data processing and validation procedures.
#
#######################################################################

data_XIZPIF
_symmetry_cell_setting           monoclinic
_symmetry_space_group_name_H-M   'P 21/n'
_symmetry_Int_Tables_number      14
_space_group_name_Hall           '-P 2yn'
loop_
_symmetry_equiv_pos_site_id
_symmetry_equiv_pos_as_xyz
1 x,y,z
2 1/2+x,1/2-y,1/2+z
3 -x,-y,-z
4 1/2-x,1/2+y,1/2-z
_cell_length_a                   7.417(1)
_cell_length_b                   9.686(1)
_cell_length_c                   13.661(1)
_cell_angle_alpha                90
_cell_angle_beta                 93.30(1)
_cell_angle_gamma                90
_cell_volume                     979.793
loop_
_atom_site_label
_atom_site_type_symbol
_atom_site_fract_x
_atom_site_fract_y
_atom_site_fract_z
Cu1 Cu 0.18241(4) 0.33683(3) 0.34760(2)
N1 N 0.3760(3) 0.4334(2) 0.4371(2)
N2 N 0.1021(4) 0.2420(3) 0.4659(2)
N3 N 0.0162(4) 0.2216(3) 0.2665(2)
N4 N -0.1934(4) 0.0859(6) 0.1675(3)
N5 N -0.5034(4) 0.0148(3) 0.1648(2)
N6 N -0.1637(4) 0.1357(3) 0.7358(2)
N7 N 0.0286(7) 0.0987(4) 0.6024(3)
C1 C 0.3525(3) 0.5640(3) 0.4647(2)
C2 C 0.5249(4) 0.3672(3) 0.4722(2)
C3 C 0.5569(5) 0.2208(4) 0.4428(3)
C4 C 0.0618(5) 0.1803(3) 0.5304(3)
C5 C -0.0938(4) 0.1614(3) 0.2253(2)
C6 C -0.3603(4) 0.0530(3) 0.1734(2)
C7 C -0.0768(5) 0.1246(4) 0.6714(2)
H1 H 0.2475 0.6118 0.4402
H2 H 0.6677 0.1894 0.4732
H3 H 0.4609 0.1645 0.4629
H4 H 0.5622 0.2157 0.3735
C2B C 0.4751(4) 0.6328(3) 0.5278(2)
N1B N 0.6240(3) 0.5666(2) 0.5629(2)
C1B C 0.6475(3) 0.4360(3) 0.5353(2)
H1B H 0.7525 0.3882 0.5598
C3B C 0.4431(5) 0.7792(4) 0.5572(3)
H2B H 0.3323 0.8106 0.5268
H3B H 0.5391 0.8355 0.5371
H4B H 0.4378 0.7843 0.6265
N3C N -0.5162(4) 0.7216(3) 0.2335(2)
N4C N -0.3066(4) 0.5859(6) 0.3325(3)
N5C N 0.0034(4) 0.5148(3) 0.3352(2)
C5C C -0.4062(4) 0.6614(3) 0.2747(2)
C6C C -0.1397(4) 0.5530(3) 0.3266(2)
N2A N 0.6021(4) 0.2580(3) -0.0341(2)
N6A N 0.3363(4) 0.3643(3) 0.2358(2)
N7A N 0.5286(7) 0.4013(4) 0.1024(3)
C4A C 0.5618(5) 0.3197(3) 0.0304(3)
C7A C 0.4232(5) 0.3754(4) 0.1714(2)
Cu1B Cu 0.81759(4) 0.66317(3) 0.65240(2)
Cu1C Cu -0.68241(4) -0.16317(3) 0.15240(2)
Cu1A Cu -0.31759(4) 0.16317(3) 0.84760(2)
Cu1C_2 Cu -0.68241(4) 0.83683(3) 0.15240(2)
Cu1A_2 Cu 0.68241(4) 0.16317(3) -0.15240(2)
N2B N 0.8979(4) 0.7580(3) 0.5341(2)
N3B N 0.9838(4) 0.7784(3) 0.7335(2)
N5A N 0.9966(4) 0.4852(3) 0.6648(2)
N6C N 0.6637(4) 0.6357(3) 0.7642(2)
loop_
_geom_bond_atom_site_label_1
_geom_bond_atom_site_label_2
_geom_bond_site_symmetry_1
_geom_bond_site_symmetry_2
Cu1 N1 1_555 1_555
N1 C1 1_555 1_555
N2 Cu1 1_555 1_555
N3 Cu1 1_555 1_555
N4 C5 1_555 1_555
N5 C6 1_555 1_555
N6 C7 1_555 1_555
N7 C4 1_555 1_555
C1 H1 1_555 1_555
C2 N1 1_555 1_555
C3 C2 1_555 1_555
C4 N2 1_555 1_555
C5 N3 1_555 1_555
C6 N4 1_555 1_555
C7 N7 1_555 1_555
H2 C3 1_555 1_555
H3 C3 1_555 1_555
H4 C3 1_555 1_555
C2B C1 1_555 1_555
N1B C2B 1_555 1_555
C1B C2 1_555 1_555
H1B C1B 1_555 1_555
C3B C2B 1_555 1_555
H2B C3B 1_555 1_555
H3B C3B 1_555 1_555
H4B C3B 1_555 1_555
N3C C5C 1_555 1_555
N4C C5C 1_555 1_555
N5C Cu1 1_555 1_555
C6C N4C 1_555 1_555
N2A C4A 1_555 1_555
N6A Cu1 1_555 1_555
N7A C4A 1_555 1_555
C7A N6A 1_555 1_555
Cu1B N1B 1_555 1_555
Cu1C N5 1_555 1_555
Cu1A N6 1_555 1_555
Cu1C_2 N3C 1_555 1_555
Cu1A_2 N2A 1_555 1_555
N2B Cu1B 1_555 1_555
N3B Cu1B 1_555 1_555
N5A Cu1B 1_555 1_555
N6C Cu1B 1_555 1_555
N1B C1B 1_555 1_555
N5C C6C 1_555 1_555
N7A C7A 1_555 1_555

#END
