
#######################################################################
#
#                 Cambridge Crystallographic Data Centre
#                                CCDC 
#
#######################################################################
#
# If this CIF has been generated from an entry in the Cambridge 
# Structural Database, then it will include bibliographic, chemical, 
# crystal, experimental, refinement or atomic coordinate data resulting 
# from the CCDC's data processing and validation procedures.
#
#######################################################################

data_XIZXEK
_symmetry_cell_setting           orthorhombic
_symmetry_space_group_name_H-M   'P 21 21 21'
_symmetry_Int_Tables_number      19
_space_group_name_Hall           'P 2ac 2ab'
loop_
_symmetry_equiv_pos_site_id
_symmetry_equiv_pos_as_xyz
1 x,y,z
2 1/2-x,-y,1/2+z
3 -x,1/2+y,1/2-z
4 1/2+x,1/2-y,-z
_cell_length_a                   5.2730(5)
_cell_length_b                   17.8473(17)
_cell_length_c                   20.319(2)
_cell_angle_alpha                90
_cell_angle_beta                 90
_cell_angle_gamma                90
_cell_volume                     1912.2
loop_
_atom_site_label
_atom_site_type_symbol
_atom_site_fract_x
_atom_site_fract_y
_atom_site_fract_z
Zn1 Zn 0.80684(12) 0.22575(3) 0.95231(3)
S1 S 1.2707(3) 0.17828(8) 0.75580(7)
N1 N 0.4919(11) 0.0689(3) 0.5210(3)
N2 N 0.6180(10) 0.1274(2) 0.5210(3)
N3 N 1.0791(10) 0.2092(3) 0.8136(3)
H1 H 1.0516 0.1796 0.8462
N4 N 0.7994(11) 0.2873(2) 0.8661(2)
O1 O 1.1412(7) 0.2114(2) 0.9828(2)
O2 O -0.0931(8) -0.1362(2) 0.4522(3)
O3 O -0.3499(9) -0.0871(2) 0.3774(2)
O4 O -0.2432(10) 0.0414(2) 0.3283(2)
O5 O 1.4486(8) 0.2351(3) 0.7398(2)
O6 O 1.3532(10) 0.1072(2) 0.7807(2)
C1 C -0.1642(11) -0.0827(3) 0.4154(3)
C2 C -0.0120(11) -0.0121(3) 0.4190(3)
C3 C -0.0609(13) 0.0458(3) 0.3739(3)
C4 C 0.0847(15) 0.1112(3) 0.3773(4)
H2 H 0.0532 0.1495 0.3474
C5 C 0.2669(14) 0.1204(3) 0.4219(3)
H3 H 0.3636 0.1640 0.4224
C6 C 0.3116(12) 0.0631(3) 0.4687(3)
C7 C 0.1698(13) -0.0016(3) 0.4661(3)
H4 H 0.1984 -0.0391 0.4971
C8 C 0.7804(14) 0.1338(3) 0.5772(3)
C9 C 0.7412(14) 0.0955(3) 0.6365(4)
H5 H 0.6114 0.0604 0.6395
C10 C 0.8902(15) 0.1089(4) 0.6899(4)
H6 H 0.8629 0.0829 0.7290
C11 C 1.0811(11) 0.1611(3) 0.6859(3)
C12 C 1.1256(12) 0.1999(3) 0.6279(3)
H7 H 1.2570 0.2346 0.6256
C13 C 0.9739(13) 0.1870(3) 0.5735(3)
H8 H 1.0006 0.2135 0.5347
C14 C 0.9567(10) 0.2785(3) 0.8152(3)
C15 C 0.6655(19) 0.3504(4) 0.8711(4)
H9 H 0.5594 0.3569 0.9072
C16 C 0.679(2) 0.4063(4) 0.8242(4)
H10 H 0.5769 0.4485 0.8272
C17 C 0.8470(19) 0.3983(4) 0.7732(4)
H11 H 0.8641 0.4359 0.7418
C18 C 0.9870(13) 0.3352(3) 0.7689(3)
H12 H 1.1039 0.3297 0.7350
Zn1C Zn 1.30684(12) 0.27425(3) 1.04769(3)
Zn1A Zn -0.30684(12) -0.22575(3) 0.45231(3)
O1C O 0.6412(7) 0.2886(2) 1.0172(2)
O2A O 0.5931(8) 0.1362(2) 0.9522(3)
loop_
_geom_bond_atom_site_label_1
_geom_bond_atom_site_label_2
_geom_bond_site_symmetry_1
_geom_bond_site_symmetry_2
Zn1 N4 1_555 1_555
S1 N3 1_555 1_555
N1 N2 1_555 1_555
N2 C8 1_555 1_555
N3 H1 1_555 1_555
N4 C14 1_555 1_555
O1 Zn1 1_555 1_555
O2 C1 1_555 1_555
O3 C1 1_555 1_555
O4 C3 1_555 1_555
O5 S1 1_555 1_555
O6 S1 1_555 1_555
C1 C2 1_555 1_555
C2 C3 1_555 1_555
C3 C4 1_555 1_555
C4 H2 1_555 1_555
C5 C4 1_555 1_555
H3 C5 1_555 1_555
C6 N1 1_555 1_555
C7 C2 1_555 1_555
H4 C7 1_555 1_555
C8 C9 1_555 1_555
C9 H5 1_555 1_555
C10 C9 1_555 1_555
H6 C10 1_555 1_555
C11 S1 1_555 1_555
C12 C11 1_555 1_555
H7 C12 1_555 1_555
C13 C8 1_555 1_555
H8 C13 1_555 1_555
C14 N3 1_555 1_555
C15 N4 1_555 1_555
H9 C15 1_555 1_555
C16 C15 1_555 1_555
H10 C16 1_555 1_555
C17 C16 1_555 1_555
H11 C17 1_555 1_555
C18 C14 1_555 1_555
H12 C18 1_555 1_555
Zn1C O1 1_555 1_555
Zn1A O2 1_555 1_555
O1C Zn1 1_555 1_555
O2A Zn1 1_555 1_555
C5 C6 1_555 1_555
C6 C7 1_555 1_555
C10 C11 1_555 1_555
C12 C13 1_555 1_555
C17 C18 1_555 1_555

#END
