
#######################################################################
#
#                 Cambridge Crystallographic Data Centre
#                                CCDC 
#
#######################################################################
#
# If this CIF has been generated from an entry in the Cambridge 
# Structural Database, then it will include bibliographic, chemical, 
# crystal, experimental, refinement or atomic coordinate data resulting 
# from the CCDC's data processing and validation procedures.
#
#######################################################################

data_XIZYOW
_symmetry_cell_setting           monoclinic
_symmetry_space_group_name_H-M   'P 21/n'
_symmetry_Int_Tables_number      14
_space_group_name_Hall           '-P 2yn'
loop_
_symmetry_equiv_pos_site_id
_symmetry_equiv_pos_as_xyz
1 x,y,z
2 1/2-x,1/2+y,1/2-z
3 -x,-y,-z
4 1/2+x,1/2-y,1/2+z
_cell_length_a                   6.916(5)
_cell_length_b                   10.037(6)
_cell_length_c                   9.874(8)
_cell_angle_alpha                90
_cell_angle_beta                 97.755(7)
_cell_angle_gamma                90
_cell_volume                     679.144
loop_
_atom_site_label
_atom_site_type_symbol
_atom_site_fract_x
_atom_site_fract_y
_atom_site_fract_z
C1 C 0.1843(9) 0.1555(5) 0.8525(6)
C2 C 0.3398(9) 0.2205(5) 0.7836(6)
C3 C 0.3146(9) 0.3158(6) 0.6837(6)
H1 H 0.1896 0.35 0.6489
C4 C 0.6334(9) 0.2935(6) 0.7019(6)
H2 H 0.7628 0.3086 0.683
N1 N 0.4824(7) 0.3584(4) 0.6373(5)
O1 O 0.2440(5) 0.0781(3) 0.9523(4)
O2 O 0.0122(6) 0.1766(5) 0.8088(5)
S1 S 0.5820(2) 0.18123(15) 0.82102(16)
Cu1 Cu 0.5000 0.50000 0.50000
C1B C 0.8157(9) 0.8445(5) 0.1475(6)
C2B C 0.6602(9) 0.7795(5) 0.2164(6)
C3B C 0.6854(9) 0.6842(6) 0.3163(6)
H1B H 0.8104 0.65 0.3511
C4B C 0.3666(9) 0.7065(6) 0.2981(6)
H2B H 0.2372 0.6914 0.317
N1B N 0.5176(7) 0.6416(4) 0.3627(5)
O1B O 0.7560(5) 0.9219(3) 0.0477(4)
O2B O 0.9878(6) 0.8234(5) 0.1912(5)
S1B S 0.4180(2) 0.81877(15) 0.17898(16)
O1A O 0.2560(5) 0.5781(3) 0.5477(4)
O1C O 0.7440(5) 0.4219(3) 0.4523(4)
O2A O 0.4878(6) 0.6766(5) 0.6912(5)
O2C O 0.5122(6) 0.3234(5) 0.3088(5)
Cu1A Cu 0.0000 0.00000 1.00000
Cu1A_2 Cu 1.0000 1.00000 0.00000
O3 O -0.058(4) 0.003(3) 0.503(3)
O4 O 0.435(4) -0.001(2) 0.506(2)
O5? O 0.298(5) 0.000(2) 0.501(2)
O6? O 0.168(6) -0.016(3) 0.481(3)
loop_
_geom_bond_atom_site_label_1
_geom_bond_atom_site_label_2
_geom_bond_site_symmetry_1
_geom_bond_site_symmetry_2
C1 C2 1_555 1_555
C2 C3 1_555 1_555
C3 H1 1_555 1_555
C4 H2 1_555 1_555
N1 C3 1_555 1_555
O1 C1 1_555 1_555
O2 C1 1_555 1_555
S1 C2 1_555 1_555
Cu1 N1 1_555 1_555
C1B C2B 1_555 1_555
C2B C3B 1_555 1_555
C3B H1B 1_555 1_555
C4B H2B 1_555 1_555
N1B Cu1 1_555 1_555
O1B C1B 1_555 1_555
O2B C1B 1_555 1_555
S1B C2B 1_555 1_555
O1A Cu1 1_555 1_555
O1C Cu1 1_555 1_555
O2A Cu1 1_555 1_555
O2C Cu1 1_555 1_555
Cu1A O1 1_555 1_555
Cu1A_2 O1B 1_555 1_555
C4 N1 1_555 1_555
C4 S1 1_555 1_555
O2 Cu1A 1_555 1_555
C3B N1B 1_555 1_555
C4B N1B 1_555 1_555
C4B S1B 1_555 1_555
O2B Cu1A_2 1_555 1_555

#END
