
#######################################################################
#
#                 Cambridge Crystallographic Data Centre
#                                CCDC 
#
#######################################################################
#
# If this CIF has been generated from an entry in the Cambridge 
# Structural Database, then it will include bibliographic, chemical, 
# crystal, experimental, refinement or atomic coordinate data resulting 
# from the CCDC's data processing and validation procedures.
#
#######################################################################

data_XIZYIP
_symmetry_cell_setting           monoclinic
_symmetry_space_group_name_H-M   'P 21/n'
_symmetry_Int_Tables_number      14
_space_group_name_Hall           '-P 2yn'
loop_
_symmetry_equiv_pos_site_id
_symmetry_equiv_pos_as_xyz
1 x,y,z
2 1/2-x,1/2+y,1/2-z
3 -x,-y,-z
4 1/2+x,1/2-y,1/2+z
_cell_length_a                   14.174(5)
_cell_length_b                   10.284(4)
_cell_length_c                   21.895(8)
_cell_angle_alpha                90
_cell_angle_beta                 100.926(7)
_cell_angle_gamma                90
_cell_volume                     3133.68
loop_
_atom_site_label
_atom_site_type_symbol
_atom_site_fract_x
_atom_site_fract_y
_atom_site_fract_z
Co1 Co 0.03043(5) 0.19431(7) 0.14135(3)
O1 O -0.0032(3) 0.3565(4) 0.18321(17)
O2 O -0.1269(5) 0.3340(5) 0.2292(3)
O3 O 0.1131(3) 0.0687(3) 0.08750(17)
O4 O 0.1589(3) 0.2674(3) 0.11256(16)
N1 N -0.0598(3) 0.0399(4) 0.1535(2)
N2 N -0.2723(4) -0.2260(5) 0.1795(3)
H1 H -0.303(4) -0.206(6) 0.208(2)
N3 N -0.4041(6) -0.5443(7) 0.0762(3)
N4 N 0.1248(3) 0.1478(4) 0.2288(2)
N5 N 0.3149(4) 0.0364(4) 0.3918(2)
H2 H 0.332(4) -0.043(2) 0.394(3)
N6 N 0.4524(3) 0.2262(4) 0.5543(2)
C1 C -0.0997(5) 0.0375(6) 0.2043(3)
H3 H -0.0808 0.1006 0.2346
C2 C -0.1664(5) -0.0521(6) 0.2145(3)
H4 H -0.1904 -0.0495 0.2512
C3 C -0.1986(4) -0.1472(6) 0.1702(3)
C4 C -0.1554(4) -0.1483(6) 0.1183(3)
H5 H -0.1716 -0.2118 0.0879
C5 C -0.0890(4) -0.0556(6) 0.1123(3)
H6 H -0.0617 -0.0587 0.0769
C6 C -0.4536(6) -0.4544(9) 0.1003(4)
H7 H -0.5200 -0.4633 0.0940
C7 C -0.4124(5) -0.3486(8) 0.1340(4)
H8 H -0.4505 -0.2893 0.1503
C8 C -0.3129(5) -0.3316(6) 0.1434(3)
C9 C -0.2614(5) -0.4244(6) 0.1189(3)
H9 H -0.1950 -0.4179 0.1238
C10 C -0.3096(7) -0.5275(8) 0.0868(4)
H10 H -0.2729 -0.5901 0.0714
C11 C 0.1686(4) 0.0312(5) 0.2369(3)
H11 H 0.1549 -0.0283 0.2044
C12 C 0.2320(4) -0.0066(5) 0.2893(2)
H12 H 0.2603 -0.0885 0.2916
C13 C 0.2532(4) 0.0801(5) 0.3391(2)
C14 C 0.2085(4) 0.1998(5) 0.3317(3)
H13 H 0.2207 0.2613 0.3634
C15 C 0.1462(4) 0.2276(6) 0.2777(3)
H14 H 0.1163 0.3085 0.2746
C16 C 0.4296(4) 0.0998(6) 0.5517(3)
H15 H 0.4460 0.0513 0.5880
C17 C 0.3836(4) 0.0365(6) 0.4990(3)
H16 H 0.3694 -0.0516 0.5004
C18 C 0.3587(4) 0.1046(5) 0.4442(2)
C19 C 0.3840(4) 0.2354(5) 0.4452(3)
H17 H 0.3696 0.2853 0.4092
C20 C 0.4304(4) 0.2900(5) 0.5000(2)
H18 H 0.4477 0.3772 0.4994
C21 C -0.0342(4) 0.5261(6) 0.2479(3)
C22 C 0.0345(6) 0.5993(7) 0.2316(4)
H19 H 0.0658 0.5702 0.2005
C23 C 0.0602(7) 0.7175(9) 0.2598(5)
H20 H 0.1086 0.7667 0.2477
C24 C 0.0154(7) 0.7621(9) 0.3052(5)
H21 H 0.0331 0.8413 0.3246
C25 C -0.0542(8) 0.6909(8) 0.3216(4)
H22 H -0.0857 0.7215 0.3523
C26 C -0.0806(7) 0.5720(7) 0.2937(4)
H23 H -0.1293 0.5234 0.3057
C27 C -0.0577(5) 0.3952(6) 0.2186(3)
C28 C 0.2546(4) 0.1459(5) 0.0541(3)
C29 C 0.3153(5) 0.2487(6) 0.0487(3)
H24 H 0.3053 0.3283 0.0666
C30 C 0.3891(5) 0.2357(7) 0.0177(3)
H25 H 0.4299 0.3055 0.0151
C31 C 0.4036(5) 0.1184(8) -0.0102(3)
H26 H 0.4532 0.1095 -0.0323
C32 C 0.3443(5) 0.0154(7) -0.0049(3)
H27 H 0.3545 -0.0637 -0.0231
C33 C 0.2701(4) 0.0272(6) 0.0269(3)
H28 H 0.2305 -0.0434 0.0302
C34 C 0.1718(4) 0.1598(5) 0.0858(2)
Co1C Co 0.53043(5) 0.30569(7) 0.64135(3)
N6C N -0.0476(3) 0.2738(4) 0.0543(2)
loop_
_geom_bond_atom_site_label_1
_geom_bond_atom_site_label_2
_geom_bond_site_symmetry_1
_geom_bond_site_symmetry_2
Co1 O1 1_555 1_555
O1 C27 1_555 1_555
O2 C27 1_555 1_555
O3 Co1 1_555 1_555
O4 Co1 1_555 1_555
N1 Co1 1_555 1_555
N2 H1 1_555 1_555
N3 C6 1_555 1_555
N4 Co1 1_555 1_555
N5 H2 1_555 1_555
N6 C16 1_555 1_555
C1 N1 1_555 1_555
H3 C1 1_555 1_555
C2 C1 1_555 1_555
H4 C2 1_555 1_555
C3 N2 1_555 1_555
C4 C3 1_555 1_555
H5 C4 1_555 1_555
C5 N1 1_555 1_555
H6 C5 1_555 1_555
C6 H7 1_555 1_555
C7 C6 1_555 1_555
H8 C7 1_555 1_555
C8 N2 1_555 1_555
C9 C8 1_555 1_555
H9 C9 1_555 1_555
C10 N3 1_555 1_555
H10 C10 1_555 1_555
C11 N4 1_555 1_555
H11 C11 1_555 1_555
C12 C11 1_555 1_555
H12 C12 1_555 1_555
C13 N5 1_555 1_555
C14 C13 1_555 1_555
H13 C14 1_555 1_555
C15 N4 1_555 1_555
H14 C15 1_555 1_555
C16 H15 1_555 1_555
C17 C16 1_555 1_555
H16 C17 1_555 1_555
C18 N5 1_555 1_555
C19 C18 1_555 1_555
H17 C19 1_555 1_555
C20 N6 1_555 1_555
H18 C20 1_555 1_555
C21 C22 1_555 1_555
C22 H19 1_555 1_555
C23 C22 1_555 1_555
H20 C23 1_555 1_555
C24 C23 1_555 1_555
H21 C24 1_555 1_555
C25 C24 1_555 1_555
H22 C25 1_555 1_555
C26 C21 1_555 1_555
H23 C26 1_555 1_555
C27 C21 1_555 1_555
C28 C29 1_555 1_555
C29 H24 1_555 1_555
C30 C29 1_555 1_555
H25 C30 1_555 1_555
C31 C30 1_555 1_555
H26 C31 1_555 1_555
C32 C31 1_555 1_555
H27 C32 1_555 1_555
C33 C28 1_555 1_555
H28 C33 1_555 1_555
C34 O3 1_555 1_555
Co1C N6 1_555 1_555
N6C Co1 1_555 1_555
O4 C34 1_555 1_555
C2 C3 1_555 1_555
C4 C5 1_555 1_555
C7 C8 1_555 1_555
C9 C10 1_555 1_555
C12 C13 1_555 1_555
C14 C15 1_555 1_555
C17 C18 1_555 1_555
C19 C20 1_555 1_555
C25 C26 1_555 1_555
C28 C34 1_555 1_555
C32 C33 1_555 1_555

#END
