
#######################################################################
#
#                 Cambridge Crystallographic Data Centre
#                                CCDC 
#
#######################################################################
#
# If this CIF has been generated from an entry in the Cambridge 
# Structural Database, then it will include bibliographic, chemical, 
# crystal, experimental, refinement or atomic coordinate data resulting 
# from the CCDC's data processing and validation procedures.
#
#######################################################################

data_XOBBEX
_symmetry_cell_setting           monoclinic
_symmetry_space_group_name_H-M   'P 21/n'
_symmetry_Int_Tables_number      14
_space_group_name_Hall           '-P 2yn'
loop_
_symmetry_equiv_pos_site_id
_symmetry_equiv_pos_as_xyz
1 x,y,z
2 1/2-x,1/2+y,1/2-z
3 -x,-y,-z
4 1/2+x,1/2-y,1/2+z
_cell_length_a                   13.8718(4)
_cell_length_b                   8.4073(2)
_cell_length_c                   18.1038(5)
_cell_angle_alpha                90
_cell_angle_beta                 111.5620(10)
_cell_angle_gamma                90
_cell_volume                     1963.59
loop_
_atom_site_label
_atom_site_type_symbol
_atom_site_fract_x
_atom_site_fract_y
_atom_site_fract_z
Ag1 Ag 0.352873(16) 0.30303(3) 0.232800(12)
Ag2 Ag 0.614529(16) 0.23109(3) 0.236857(12)
O1 O 0.44396(14) 0.1647(2) 0.16227(10)
O2 O 0.52531(15) 0.3017(3) 0.32174(11)
O3 O 0.24317(17) 0.0837(3) 0.25173(11)
O4 O 0.22472(17) 0.0116(2) 0.35946(12)
O5 O 0.31258(19) 0.2226(3) 0.35752(14)
O6 O 0.6509(2) 0.4053(3) 0.14762(13)
O7 O 0.7601(2) 0.5949(3) 0.15831(14)
O8 O 0.75400(19) 0.4817(3) 0.26140(12)
N1 N 0.41403(14) 0.0849(2) 0.09415(11)
N2 N 0.56482(15) 0.3467(3) 0.39706(11)
N3 N 0.72089(18) 0.4951(3) 0.19006(14)
N4 N 0.26050(16) 0.1066(2) 0.32346(12)
C1 C 0.4459(3) -0.1518(4) 0.1767(2)
H1 H 0.5177 -0.1212 0.2075
H2 H 0.4414 -0.2678 0.1711
H3 H 0.4009 -0.1157 0.2043
C2 C 0.41213(18) -0.0771(3) 0.09683(15)
C3 C 0.3799(2) -0.1601(3) 0.02593(18)
H4 H 0.3773 -0.2730 0.0264
C4 C 0.3516(2) -0.0802(4) -0.04539(16)
H5 H 0.3296 -0.1374 -0.0940
C5 C 0.35540(19) 0.0826(3) -0.04535(15)
H6 H 0.3357 0.1382 -0.0944
C6 C 0.38750(18) 0.1671(3) 0.02489(14)
C7 C 0.3966(2) 0.3438(3) 0.03080(17)
H7 H 0.4684 0.3731 0.0620
H8 H 0.3510 0.3849 0.0569
H9 H 0.3761 0.3895 -0.0226
C8 C 0.5532(3) 0.6149(4) 0.34526(18)
H10 H 0.5901 0.5848 0.3104
H11 H 0.5725 0.7235 0.3647
H12 H 0.4783 0.6098 0.3155
C9 C 0.58168(18) 0.5034(3) 0.41387(14)
C10 C 0.62358(18) 0.5501(3) 0.49240(15)
H13 H 0.6356 0.6597 0.5051
C11 C 0.64802(19) 0.4399(3) 0.55217(15)
H14 H 0.6769 0.4726 0.6061
C12 C 0.6304(2) 0.2826(3) 0.53335(17)
H15 H 0.6470 0.2058 0.5747
C13 C 0.5889(2) 0.2335(3) 0.45519(17)
C14 C 0.5682(3) 0.0646(4) 0.4291(2)
H16 H 0.4941 0.0508 0.3983
H17 H 0.5889 -0.0049 0.4758
H18 H 0.6080 0.0370 0.3960
Ag1A Ag 0.147127(16) -0.19697(3) 0.267200(12)
Ag2A Ag 0.885471(16) 0.73109(3) 0.263143(12)
O4A O 0.27528(17) 0.5116(2) 0.14054(12)
O7A O 0.7399(2) 0.0949(3) 0.34169(14)
loop_
_geom_bond_atom_site_label_1
_geom_bond_atom_site_label_2
_geom_bond_site_symmetry_1
_geom_bond_site_symmetry_2
Ag1 O1 1_555 1_555
Ag2 O1 1_555 1_555
O1 N1 1_555 1_555
O2 Ag1 1_555 1_555
O3 Ag1 1_555 1_555
O4 N4 1_555 1_555
O5 Ag1 1_555 1_555
O6 Ag2 1_555 1_555
O7 N3 1_555 1_555
O8 N3 1_555 1_555
N1 C2 1_555 1_555
N2 O2 1_555 1_555
N3 O6 1_555 1_555
N4 O3 1_555 1_555
C1 H1 1_555 1_555
H2 C1 1_555 1_555
H3 C1 1_555 1_555
C2 C1 1_555 1_555
C3 C2 1_555 1_555
H4 C3 1_555 1_555
C4 C3 1_555 1_555
H5 C4 1_555 1_555
C5 C4 1_555 1_555
H6 C5 1_555 1_555
C6 N1 1_555 1_555
C7 C6 1_555 1_555
H7 C7 1_555 1_555
H8 C7 1_555 1_555
H9 C7 1_555 1_555
C8 H10 1_555 1_555
H11 C8 1_555 1_555
H12 C8 1_555 1_555
C9 N2 1_555 1_555
C10 C9 1_555 1_555
H13 C10 1_555 1_555
C11 C10 1_555 1_555
H14 C11 1_555 1_555
C12 C11 1_555 1_555
H15 C12 1_555 1_555
C13 N2 1_555 1_555
C14 C13 1_555 1_555
H16 C14 1_555 1_555
H17 C14 1_555 1_555
H18 C14 1_555 1_555
Ag1A O4 1_555 1_555
Ag2A O7 1_555 1_555
O4A Ag1 1_555 1_555
O7A Ag2 1_555 1_555
Ag2 O2 1_555 1_555
O5 N4 1_555 1_555
C5 C6 1_555 1_555
C8 C9 1_555 1_555
C12 C13 1_555 1_555

#END
