
#######################################################################
#
#                 Cambridge Crystallographic Data Centre
#                                CCDC 
#
#######################################################################
#
# If this CIF has been generated from an entry in the Cambridge 
# Structural Database, then it will include bibliographic, chemical, 
# crystal, experimental, refinement or atomic coordinate data resulting 
# from the CCDC's data processing and validation procedures.
#
#######################################################################

data_XOBBIB
_symmetry_cell_setting           monoclinic
_symmetry_space_group_name_H-M   'P 21/c'
_symmetry_Int_Tables_number      14
_space_group_name_Hall           '-P 2ybc'
loop_
_symmetry_equiv_pos_site_id
_symmetry_equiv_pos_as_xyz
1 x,y,z
2 -x,1/2+y,1/2-z
3 -x,-y,-z
4 x,1/2-y,1/2+z
_cell_length_a                   13.6902(16)
_cell_length_b                   8.1303(12)
_cell_length_c                   10.9444(17)
_cell_angle_alpha                90
_cell_angle_beta                 96.096(12)
_cell_angle_gamma                90
_cell_volume                     1211.28
loop_
_atom_site_label
_atom_site_type_symbol
_atom_site_fract_x
_atom_site_fract_y
_atom_site_fract_z
Hg1 Hg 0.57510(6) 0.23579(9) 0.01183(8)
S1 S 0.4027(5) 0.2175(8) 0.0061(8)
S2 S 0.5751(4) 0.2502(7) 0.2532(7)
C1 C 0.3898(13) 0.348(2) 0.134(2)
S3 S 0.4762(4) 0.4564(7) 0.2091(6)
O1 O 0.2937(10) 0.3549(17) 0.1457(14)
C2 C 0.2640(15) 0.470(2) 0.236(2)
H1 H 0.2785 0.5820 0.2138
H2 H 0.2978 0.4466 0.3168
C3 C 0.1509(13) 0.444(3) 0.236(2)
H3 H 0.1238 0.5348 0.2789
H4 H 0.1205 0.4452 0.1516
C4 C 0.126(2) 0.283(3) 0.296(3)
H5 H 0.1768 0.2036 0.2860
H6 H 0.0644 0.2427 0.2588
H7 H 0.1225 0.3011 0.3824
C5 C 0.7283(14) 0.243(2) 0.022(2)
C6 C 0.7734(14) 0.128(3) -0.0560(19)
H8 H 0.7356 0.0527 -0.1046
C7 C 0.8739(16) 0.132(2) -0.056(2)
H9 H 0.9055 0.0604 -0.1047
C8 C 0.931(2) 0.253(3) 0.023(4)
H10 H 0.9988 0.2531 0.0316
C9 C 0.8811(13) 0.359(3) 0.080(2)
H11 H 0.9172 0.4422 0.1224
C10 C 0.7824(15) 0.361(2) 0.085(2)
H12 H 0.7530 0.4406 0.1307
Hg1C Hg 0.57510(6) 0.26421(9) 0.51183(8)
S2C S 0.5751(4) 0.2498(7) -0.2468(7)
loop_
_geom_bond_atom_site_label_1
_geom_bond_atom_site_label_2
_geom_bond_site_symmetry_1
_geom_bond_site_symmetry_2
Hg1 S1 1_555 1_555
S1 C1 1_555 1_555
S2 Hg1 1_555 1_555
C1 S3 1_555 1_555
S3 S2 1_555 1_555
O1 C1 1_555 1_555
C2 O1 1_555 1_555
H1 C2 1_555 1_555
H2 C2 1_555 1_555
C3 C2 1_555 1_555
H3 C3 1_555 1_555
H4 C3 1_555 1_555
C4 C3 1_555 1_555
H5 C4 1_555 1_555
H6 C4 1_555 1_555
H7 C4 1_555 1_555
C5 Hg1 1_555 1_555
C6 C5 1_555 1_555
H8 C6 1_555 1_555
C7 C6 1_555 1_555
H9 C7 1_555 1_555
C8 C7 1_555 1_555
H10 C8 1_555 1_555
C9 C8 1_555 1_555
H11 C9 1_555 1_555
C10 C5 1_555 1_555
H12 C10 1_555 1_555
Hg1C S2 1_555 1_555
S2C Hg1 1_555 1_555
C9 C10 1_555 1_555

#END
