
#######################################################################
#
#                 Cambridge Crystallographic Data Centre
#                                CCDC 
#
#######################################################################
#
# If this CIF has been generated from an entry in the Cambridge 
# Structural Database, then it will include bibliographic, chemical, 
# crystal, experimental, refinement or atomic coordinate data resulting 
# from the CCDC's data processing and validation procedures.
#
#######################################################################

data_XOBBAT
_symmetry_cell_setting           triclinic
_symmetry_space_group_name_H-M   'P -1'
_symmetry_Int_Tables_number      2
_space_group_name_Hall           '-P 1'
loop_
_symmetry_equiv_pos_site_id
_symmetry_equiv_pos_as_xyz
1 x,y,z
2 -x,-y,-z
_cell_length_a                   8.3124(4)
_cell_length_b                   9.7965(5)
_cell_length_c                   11.6154(7)
_cell_angle_alpha                79.201(5)
_cell_angle_beta                 78.572(4)
_cell_angle_gamma                68.501(4)
_cell_volume                     855.757
loop_
_atom_site_label
_atom_site_type_symbol
_atom_site_fract_x
_atom_site_fract_y
_atom_site_fract_z
Ag1 Ag 0.37650(3) 0.76521(3) 0.01799(3)
Ag2 Ag -0.14030(3) 0.75593(3) 0.02098(3)
F1 F 0.5329(3) 1.1120(3) 0.3303(2)
F2 F 0.3222(3) 1.0275(3) 0.3940(2)
F3 F 0.5852(3) 0.8781(3) 0.3616(2)
F4 F 0.3002(4) 0.6410(3) -0.3619(2)
F5 F 0.5038(3) 0.4347(3) -0.3212(2)
F6 F 0.2432(3) 0.4387(3) -0.3222(2)
O1 O 0.0889(3) 0.7635(3) 0.1017(2)
O2 O 0.3779(3) 0.8891(3) 0.1796(2)
O3 O 0.3218(4) 1.1548(3) 0.1422(3)
O4 O 0.6167(3) 0.9838(3) 0.1058(2)
O5 O 0.3315(3) 0.3869(3) -0.0768(3)
O6 O 0.3830(3) 0.6213(3) -0.1253(2)
O7 O 0.0918(3) 0.6118(3) -0.1252(3)
N1 N 0.0644(4) 0.7625(3) 0.2197(3)
S1 S 0.44358(11) 1.00785(10) 0.17101(8)
S2 S 0.27850(11) 0.53662(10) -0.13792(9)
C1 C 0.1892(5) 0.4941(4) 0.2310(4)
H1 H 0.2932 0.4975 0.1751
H2 H 0.1025 0.4872 0.1883
H3 H 0.2216 0.4076 0.2909
C2 C 0.1140(4) 0.6303(4) 0.2896(4)
C3 C 0.0915(5) 0.6321(4) 0.4107(4)
H4 H 0.1277 0.5414 0.4612
C4 C 0.0175(5) 0.7632(5) 0.4592(4)
H5 H -0.0006 0.7631 0.5425
C5 C -0.0300(5) 0.8943(4) 0.3850(4)
H6 H -0.0805 0.9852 0.4177
C6 C -0.0052(4) 0.8952(4) 0.2642(4)
C7 C -0.0465(5) 1.0290(4) 0.1764(4)
H7 H -0.1367 1.0299 0.1330
H8 H 0.0591 1.0285 0.1208
H9 H -0.0891 1.1173 0.2172
C8 C 0.4720(5) 1.0058(4) 0.3231(4)
C9 C 0.3353(5) 0.5109(5) -0.2934(4)
Ag1A Ag 0.62350(3) 0.23479(3) -0.01799(3)
Ag1A_2 Ag 0.62350(3) 1.23479(3) -0.01799(3)
Ag2_2 Ag 0.85970(3) 0.75593(3) 0.02098(3)
Ag2A Ag 0.14030(3) 0.24407(3) -0.02098(3)
Ag2A_2 Ag 0.14030(3) 1.24407(3) -0.02098(3)
O3A O -0.3218(4) 0.8452(3) -0.1422(3)
O4_2 O -0.3833(3) 0.9838(3) 0.1058(2)
O4A O 0.3833(3) 1.0162(3) -0.1058(2)
O5A O -0.3315(3) 0.6131(3) 0.0768(3)
O5A_2 O 0.6685(3) 0.6131(3) 0.0768(3)
loop_
_geom_bond_atom_site_label_1
_geom_bond_atom_site_label_2
_geom_bond_site_symmetry_1
_geom_bond_site_symmetry_2
Ag1 O1 1_555 1_555
Ag2 O1 1_555 1_555
F1 C8 1_555 1_555
F2 C8 1_555 1_555
F3 C8 1_555 1_555
F4 C9 1_555 1_555
F5 C9 1_555 1_555
F6 C9 1_555 1_555
O1 N1 1_555 1_555
O2 Ag1 1_555 1_555
O3 S1 1_555 1_555
O4 S1 1_555 1_555
O5 S2 1_555 1_555
O6 Ag1 1_555 1_555
O7 Ag2 1_555 1_555
N1 C2 1_555 1_555
S1 O2 1_555 1_555
S2 O6 1_555 1_555
C1 H1 1_555 1_555
H2 C1 1_555 1_555
H3 C1 1_555 1_555
C2 C1 1_555 1_555
C3 C2 1_555 1_555
H4 C3 1_555 1_555
C4 C3 1_555 1_555
H5 C4 1_555 1_555
C5 C4 1_555 1_555
H6 C5 1_555 1_555
C6 N1 1_555 1_555
C7 C6 1_555 1_555
H7 C7 1_555 1_555
H8 C7 1_555 1_555
H9 C7 1_555 1_555
C8 S1 1_555 1_555
C9 S2 1_555 1_555
Ag1A O5 1_555 1_555
Ag1A_2 O4 1_555 1_555
Ag2_2 O4 1_555 1_555
Ag2A O5 1_555 1_555
Ag2A_2 O3 1_555 1_555
O3A Ag2 1_555 1_555
O4_2 Ag2 1_555 1_555
O4A Ag1 1_555 1_555
O5A Ag2 1_555 1_555
O5A_2 Ag1 1_555 1_555
O7 S2 1_555 1_555
C5 C6 1_555 1_555
Ag2_2 O5A_2 1_555 1_555
Ag2A_2 O4A 1_555 1_555

#END
