
#######################################################################
#
#                 Cambridge Crystallographic Data Centre
#                                CCDC 
#
#######################################################################
#
# If this CIF has been generated from an entry in the Cambridge 
# Structural Database, then it will include bibliographic, chemical, 
# crystal, experimental, refinement or atomic coordinate data resulting 
# from the CCDC's data processing and validation procedures.
#
#######################################################################

data_XOBCUO
_symmetry_cell_setting           monoclinic
_symmetry_space_group_name_H-M   'P 21/c'
_symmetry_Int_Tables_number      14
_space_group_name_Hall           '-P 2ybc'
loop_
_symmetry_equiv_pos_site_id
_symmetry_equiv_pos_as_xyz
1 x,y,z
2 -x,1/2+y,1/2-z
3 -x,-y,-z
4 x,1/2-y,1/2+z
_cell_length_a                   16.6627(13)
_cell_length_b                   12.6060(12)
_cell_length_c                   6.7105(11)
_cell_angle_alpha                90
_cell_angle_beta                 90.537(13)
_cell_angle_gamma                90
_cell_volume                     1409.48
loop_
_atom_site_label
_atom_site_type_symbol
_atom_site_fract_x
_atom_site_fract_y
_atom_site_fract_z
Cd1 Cd 0.75341(3) 0.81092(4) 0.17814(7)
N1 N 0.6749(4) 0.6987(6) -0.0260(10)
N2 N 0.6043(4) 0.6805(7) -0.0234(10)
N3 N 0.5363(5) 0.6611(9) -0.0209(14)
N4 N 0.8165(4) 0.6822(5) 0.3637(9)
N5 N 0.8259(4) 0.5902(5) 0.3120(9)
N6 N 0.8355(6) 0.5030(6) 0.2683(11)
N7 N 0.8320(5) 0.9515(6) 0.2914(10)
N8 N 0.7983(6) 1.0482(6) 0.3297(11)
N9 N 0.6684(5) 0.9575(6) 0.0790(11)
C1 C 0.6267(6) 0.9495(9) -0.0932(15)
H1 H 0.6305 0.8856 -0.1674
C2 C 0.5789(7) 1.0296(10) -0.1663(18)
H2 H 0.5512 1.0216 -0.2897
C3 C 0.5720(8) 1.1209(11) -0.059(2)
H3 H 0.5375 1.1761 -0.1035
C4 C 0.6159(8) 1.1320(10) 0.1165(19)
H4 H 0.6131 1.1960 0.1908
C5 C 0.6641(7) 1.0487(8) 0.1831(15)
C6 C 0.7149(7) 1.0543(9) 0.3682(16)
H5 H 0.7036 1.1217 0.4382
H6 H 0.6999 0.9953 0.4579
C7 C 0.8642(9) 1.1205(10) 0.3291(17)
C8 C 0.9278(10) 1.0775(12) 0.2949(19)
H7 H 0.9789 1.1106 0.2868
C9 C 0.9106(7) 0.9682(9) 0.2695(14)
C10 C 0.8341(13) 1.2256(12) 0.3669(18)
H8 H 0.7829 1.2205 0.4304
H9 H 0.8264 1.2618 0.2423
H10 H 0.8699 1.2662 0.4499
C11 C 0.9647(7) 0.8823(11) 0.2242(18)
H11 H 0.9501 0.8196 0.3024
H12 H 1.0198 0.9034 0.2577
H13 H 0.9610 0.8655 0.0819
Cd1C Cd 0.75341(3) 0.68908(4) -0.32186(7)
Cd1C_2 Cd 0.75341(3) 0.68908(4) 0.67814(7)
N1C N 0.6749(4) 0.8013(6) 0.4740(10)
N4C N 0.8165(4) 0.8178(5) -0.1363(9)
loop_
_geom_bond_atom_site_label_1
_geom_bond_atom_site_label_2
_geom_bond_site_symmetry_1
_geom_bond_site_symmetry_2
Cd1 N1 1_555 1_555
N1 N2 1_555 1_555
N2 N3 1_555 1_555
N4 Cd1 1_555 1_555
N5 N4 1_555 1_555
N6 N5 1_555 1_555
N7 Cd1 1_555 1_555
N8 N7 1_555 1_555
N9 Cd1 1_555 1_555
C1 N9 1_555 1_555
H1 C1 1_555 1_555
C2 C1 1_555 1_555
H2 C2 1_555 1_555
C3 C2 1_555 1_555
H3 C3 1_555 1_555
C4 C3 1_555 1_555
H4 C4 1_555 1_555
C5 N9 1_555 1_555
C6 N8 1_555 1_555
H5 C6 1_555 1_555
H6 C6 1_555 1_555
C7 N8 1_555 1_555
C8 C7 1_555 1_555
H7 C8 1_555 1_555
C9 N7 1_555 1_555
C10 C7 1_555 1_555
H8 C10 1_555 1_555
H9 C10 1_555 1_555
H10 C10 1_555 1_555
C11 C9 1_555 1_555
H11 C11 1_555 1_555
H12 C11 1_555 1_555
H13 C11 1_555 1_555
Cd1C N1 1_555 1_555
Cd1C_2 N4 1_555 1_555
N1C Cd1 1_555 1_555
N4C Cd1 1_555 1_555
C4 C5 1_555 1_555
C5 C6 1_555 1_555
C8 C9 1_555 1_555
Cd1C N4C 1_555 1_555
Cd1C_2 N1C 1_555 1_555

#END
