
#######################################################################
#
#                 Cambridge Crystallographic Data Centre
#                                CCDC 
#
#######################################################################
#
# If this CIF has been generated from an entry in the Cambridge 
# Structural Database, then it will include bibliographic, chemical, 
# crystal, experimental, refinement or atomic coordinate data resulting 
# from the CCDC's data processing and validation procedures.
#
#######################################################################

data_XOBDUO
_symmetry_cell_setting           orthorhombic
_symmetry_space_group_name_H-M   'C 2 2 2'
_symmetry_Int_Tables_number      21
_space_group_name_Hall           'C 2 2'
loop_
_symmetry_equiv_pos_site_id
_symmetry_equiv_pos_as_xyz
1 x,y,z
2 -x,-y,z
3 x,-y,-z
4 -x,y,-z
5 1/2+x,1/2+y,z
6 1/2-x,1/2-y,z
7 1/2+x,1/2-y,-z
8 1/2-x,1/2+y,-z
_cell_length_a                   15.0535(16)
_cell_length_b                   21.8564(19)
_cell_length_c                   3.6939(4)
_cell_angle_alpha                90
_cell_angle_beta                 90
_cell_angle_gamma                90
_cell_volume                     1215.35
loop_
_atom_site_label
_atom_site_type_symbol
_atom_site_fract_x
_atom_site_fract_y
_atom_site_fract_z
Ag1 Ag 0.132758(16) 0.00276(2) -0.46460(14)
Cl1 Cl 0.0000 0.0000 0.0000
N1 N 0.18169(11) 0.09534(7) -0.4422(6)
C1 C 0.29363(12) 0.17136(9) -0.5290(9)
H1 H 0.3518 0.1804 -0.5946
C2 C 0.26413(14) 0.11221(9) -0.5318(11)
H2 H 0.3039 0.0818 -0.6005
C3 C 0.23564(13) 0.21785(8) -0.4267(6)
C4 C 0.12681(15) 0.13995(11) -0.3319(7)
H3 H 0.0699 0.1292 -0.2573
C5 C 0.14992(15) 0.20008(11) -0.3231(7)
H4 H 0.1089 0.2293 -0.2486
Ag1B Ag 0.132758(16) -0.00276(2) -0.53540(14)
Ag1B_2 Ag 0.132758(16) -0.00276(2) 0.46460(14)
Ag1_2 Ag 0.132758(16) 0.00276(2) 0.53540(14)
Ag1A Ag -0.132758(16) -0.00276(2) 0.53540(14)
Ag1A_2 Ag -0.132758(16) -0.00276(2) -0.46460(14)
Ag1C Ag -0.132758(16) 0.00276(2) -0.53540(14)
Ag1C_2 Ag -0.132758(16) 0.00276(2) 0.46460(14)
Ag1E Ag 0.367242(16) 0.49724(2) -0.46460(14)
Ag1G Ag 0.367242(16) 0.50276(2) -0.53540(14)
Ag1D Ag -0.367242(16) -0.49724(2) -0.46460(14)
Ag1F Ag -0.367242(16) -0.50276(2) -0.53540(14)
Ag1_3 Ag 0.132758(16) 0.00276(2) -1.46460(14)
Ag1A_3 Ag -0.132758(16) -0.00276(2) -1.46460(14)
Ag1B_3 Ag 0.132758(16) -0.00276(2) -1.53540(14)
Ag1C_3 Ag -0.132758(16) 0.00276(2) -1.53540(14)
Cl1_2 Cl 0.0000 0.0000 -1.0000
N1B N 0.18169(11) -0.09534(7) -0.5578(6)
N1E N 0.31831(11) 0.40466(7) -0.4422(6)
N1A N -0.18169(11) -0.09534(7) -0.4422(6)
N1C N -0.18169(11) 0.09534(7) -0.5578(6)
N1D N -0.31831(11) -0.40466(7) -0.4422(6)
C1E C 0.20637(12) 0.32864(9) -0.5290(9)
C1A C -0.29363(12) -0.17136(9) -0.5290(9)
C1D C -0.20637(12) -0.32864(9) -0.5290(9)
H1E H 0.1482 0.3196 -0.5946
H1A H -0.3518 -0.1804 -0.5946
H1D H -0.1482 -0.3196 -0.5946
C2E C 0.23587(14) 0.38779(9) -0.5318(11)
C2A C -0.26413(14) -0.11221(9) -0.5318(11)
C2D C -0.23587(14) -0.38779(9) -0.5318(11)
H2E H 0.1961 0.4182 -0.6005
H2A H -0.3039 -0.0818 -0.6005
H2D H -0.1961 -0.4182 -0.6005
C3E C 0.26436(13) 0.28215(8) -0.4267(6)
C3A C -0.23564(13) -0.21785(8) -0.4267(6)
C3D C -0.26436(13) -0.28215(8) -0.4267(6)
C4E C 0.37319(15) 0.36005(11) -0.3319(7)
C4A C -0.12681(15) -0.13995(11) -0.3319(7)
C4D C -0.37319(15) -0.36005(11) -0.3319(7)
H3E H 0.4301 0.3708 -0.2573
H3A H -0.0699 -0.1292 -0.2573
H3D H -0.4301 -0.3708 -0.2573
C5E C 0.35008(15) 0.29992(11) -0.3231(7)
C5A C -0.14992(15) -0.20008(11) -0.3231(7)
C5D C -0.35008(15) -0.29992(11) -0.3231(7)
H4E H 0.3911 0.2707 -0.2486
H4A H -0.1089 -0.2293 -0.2486
H4D H -0.3911 -0.2707 -0.2486
N2 N 0.0000 0.3518(3) 0.0000
O1 O 0.0000 0.30546(15) 0.0000
O2 O -0.0060(5) 0.3846(3) -0.2922(16)
O2C O 0.0060(5) 0.3846(3) 0.2922(16)
O2C_2 O 0.0060(5) 0.3846(3) -0.7078(16)
loop_
_geom_bond_atom_site_label_1
_geom_bond_atom_site_label_2
_geom_bond_site_symmetry_1
_geom_bond_site_symmetry_2
Ag1 Cl1 1_555 1_555
Cl1 Ag1B 1_555 1_555
N1 Ag1 1_555 1_555
C1 H1 1_555 1_555
C2 N1 1_555 1_555
H2 C2 1_555 1_555
C3 C1 1_555 1_555
C4 N1 1_555 1_555
H3 C4 1_555 1_555
C5 C3 1_555 1_555
H4 C5 1_555 1_555
N2 O1 1_555 1_555
O2 N2 1_555 1_555
Ag1B Ag1 1_555 1_555
Ag1B_2 Ag1 1_555 1_555
Ag1_2 Cl1 1_555 1_555
Ag1A Cl1 1_555 1_555
Ag1A_2 Cl1 1_555 1_555
Ag1C Cl1 1_555 1_555
Ag1C_2 Cl1 1_555 1_555
Ag1E N1E 1_555 1_555
Ag1G N1E 1_555 1_555
Ag1D N1D 1_555 1_555
Ag1F N1D 1_555 1_555
Ag1_3 Cl1_2 1_555 1_555
Ag1A_3 Cl1_2 1_555 1_555
Ag1B_3 Cl1_2 1_555 1_555
Ag1C_3 Cl1_2 1_555 1_555
Cl1_2 Ag1 1_555 1_555
N1B Ag1 1_555 1_555
N1E C2E 1_555 1_555
N1A Ag1A_2 1_555 1_555
N1C Ag1A_2 1_555 1_555
N1D C2D 1_555 1_555
C1E H1E 1_555 1_555
C1A H1A 1_555 1_555
C1D H1D 1_555 1_555
C2E C1E 1_555 1_555
C2A N1A 1_555 1_555
C2D C1D 1_555 1_555
H2E C2E 1_555 1_555
H2A C2A 1_555 1_555
H2D C2D 1_555 1_555
C3E C3 1_555 1_555
C3A C1A 1_555 1_555
C3D C1D 1_555 1_555
C4E N1E 1_555 1_555
C4A N1A 1_555 1_555
C4D N1D 1_555 1_555
H3E C4E 1_555 1_555
H3A C4A 1_555 1_555
H3D C4D 1_555 1_555
C5E C3E 1_555 1_555
C5A C3A 1_555 1_555
C5D C3D 1_555 1_555
H4E C5E 1_555 1_555
H4A C5A 1_555 1_555
H4D C5D 1_555 1_555
O2C N2 1_555 1_555
O2C_2 O2 1_555 1_555
Cl1 Ag1B_2 1_555 1_555
N1 Ag1B 1_555 1_555
C1 C2 1_555 1_555
C4 C5 1_555 1_555
Ag1B Cl1_2 1_555 1_555
Ag1B N1B 1_555 1_555
Ag1B_2 Ag1_2 1_555 1_555
Ag1A Ag1C_2 1_555 1_555
Ag1A_2 Ag1C 1_555 1_555
Ag1A_2 Ag1C_2 1_555 1_555
Ag1A_2 Cl1_2 1_555 1_555
Ag1C Cl1_2 1_555 1_555
Ag1C N1A 1_555 1_555
C1E C3E 1_555 1_555
C1A C2A 1_555 1_555
C3A C3D 1_555 1_555
C4E C5E 1_555 1_555
C4A C5A 1_555 1_555
C4D C5D 1_555 1_555

#END
