
#######################################################################
#
#                 Cambridge Crystallographic Data Centre
#                                CCDC 
#
#######################################################################
#
# If this CIF has been generated from an entry in the Cambridge 
# Structural Database, then it will include bibliographic, chemical, 
# crystal, experimental, refinement or atomic coordinate data resulting 
# from the CCDC's data processing and validation procedures.
#
#######################################################################

data_XOBGIG
_symmetry_cell_setting           triclinic
_symmetry_space_group_name_H-M   'P -1'
_symmetry_Int_Tables_number      2
_space_group_name_Hall           '-P 1'
loop_
_symmetry_equiv_pos_site_id
_symmetry_equiv_pos_as_xyz
1 x,y,z
2 -x,-y,-z
_cell_length_a                   8.0936(5)
_cell_length_b                   11.6513(8)
_cell_length_c                   15.0239(14)
_cell_angle_alpha                110.398(5)
_cell_angle_beta                 94.981(5)
_cell_angle_gamma                105.728(3)
_cell_volume                     1252.13
loop_
_atom_site_label
_atom_site_type_symbol
_atom_site_fract_x
_atom_site_fract_y
_atom_site_fract_z
Cd1 Cd 0.681498(19) 0.656126(14) 0.503683(9)
O1 O 0.3804(2) 0.57525(14) 0.11323(11)
O2 O 0.2993(2) 0.49000(15) -0.36436(11)
O3 O 0.4364(2) 0.62432(19) -0.42756(11)
O4 O 0.8395(3) 0.85561(16) 0.90414(11)
O5 O 1.1930(2) 1.11775(15) 1.38350(10)
O6 O 1.0383(2) 1.20215(15) 1.48485(11)
N1 N 0.5122(2) 0.72852(16) 0.41326(12)
N2 N 0.3695(3) 0.76825(17) 0.11287(12)
N3 N 0.7966(2) 0.60219(17) 0.62692(12)
N4 N 0.8324(3) 0.70334(19) 0.96716(13)
C1 C 0.4935(3) 0.6925(2) 0.31721(14)
C2 C 0.3986(3) 0.73914(19) 0.26446(13)
C3 C 0.3173(3) 0.8248(2) 0.31393(16)
C4 C 0.3325(4) 0.8599(2) 0.41275(16)
C5 C 0.4305(3) 0.8107(2) 0.45962(15)
C6 C 0.3818(3) 0.68636(19) 0.15622(14)
C7 C 0.3610(3) 0.74574(19) 0.01315(13)
C8 C 0.3933(3) 0.6426(2) -0.05353(15)
C9 C 0.3856(3) 0.6306(2) -0.14942(16)
C10 C 0.3492(3) 0.72025(19) -0.18094(13)
C11 C 0.3220(4) 0.8242(3) -0.11263(16)
C12 C 0.3265(4) 0.8375(3) -0.01728(16)
C13 C 0.3397(4) 0.7154(2) -0.28320(15)
C14 C 0.3633(3) 0.6018(2) -0.36267(14)
C15 C 0.7877(3) 0.6723(2) 0.71716(15)
C16 C 0.8461(3) 0.6529(2) 0.79828(15)
C17 C 0.9206(3) 0.5551(2) 0.78495(16)
C18 C 0.9315(3) 0.4825(2) 0.69253(17)
C19 C 0.8684(3) 0.5079(2) 0.61565(16)
C20 C 0.8374(3) 0.7464(2) 0.89455(15)
C21 C 0.8445(3) 0.7748(2) 1.06652(14)
C22 C 0.8482(4) 0.9022(2) 1.10306(16)
C23 C 0.8670(4) 0.9665(2) 1.20162(16)
C24 C 0.8803(3) 0.9085(2) 1.26638(14)
C25 C 0.8734(3) 0.7804(2) 1.22894(16)
C26 C 0.8555(3) 0.7138(2) 1.13004(16)
C27 C 0.9010(4) 0.9836(2) 1.37310(16)
C28 C 1.0545(3) 1.1098(2) 1.41611(14)
H1 H 0.878(3) 0.4608(19) 0.5540(15)
H2 H 0.978(3) 0.417(2) 0.6794(17)
H3 H 0.554(3) 0.631(2) 0.2859(16)
H4 H 0.438(3) 0.830(2) 0.5274(18)
H5 H 0.884(3) 0.738(2) 1.2692(18)
H6 H 0.367(3) 0.840(2) 0.1468(17)
H7 H 0.246(3) 0.850(2) 0.2773(19)
H8 H 0.853(3) 0.627(2) 1.1064(18)
H9 H 0.420(3) 0.586(2) -0.0371(18)
H10 H 0.230(3) 0.724(2) -0.3062(18)
H11 H 0.415(3) 0.791(3) -0.2835(19)
H12 H 0.971(3) 0.541(2) 0.8392(17)
H13 H 0.407(3) 0.566(3) -0.1902(19)
H14 H 0.741(3) 0.740(2) 0.7254(16)
H15 H 0.804(3) 0.628(2) 0.9501(17)
H16 H 0.793(4) 1.001(3) 1.386(2)
H17 H 0.883(3) 1.060(3) 1.2260(19)
H18 H 0.282(3) 0.911(3) 0.4422(19)
H19 H 0.309(4) 0.906(3) 0.026(2)
H20 H 0.840(3) 0.944(3) 1.059(2)
H21 H 0.304(4) 0.885(3) -0.131(2)
H22 H 0.921(3) 0.936(2) 1.4089(18)
Cd1_2 Cd 0.681498(19) 0.656126(14) -0.496317(9)
Cd1A Cd 0.318502(19) 0.343874(14) -0.503683(9)
Cd1A_2 Cd 1.318502(19) 1.343874(14) 1.496317(9)
O2A O 0.7007(2) 0.51000(15) 0.36436(11)
O3_2 O 0.4364(2) 0.62432(19) 0.57244(11)
O5A O 0.8070(2) 0.88225(15) 0.61650(10)
O6A O 0.9617(2) 0.79785(15) 0.51515(11)
O7 O 1.3016(3) 1.01791(17) 1.20760(15)
H23 H 1.257(4) 1.042(3) 1.258(2)
H24 H 1.251(4) 1.035(3) 1.169(2)
loop_
_geom_bond_atom_site_label_1
_geom_bond_atom_site_label_2
_geom_bond_site_symmetry_1
_geom_bond_site_symmetry_2
Cd1 N1 1_555 1_555
O1 C6 1_555 1_555
O2 C14 1_555 1_555
O3 C14 1_555 1_555
O4 C20 1_555 1_555
O5 C28 1_555 1_555
O6 C28 1_555 1_555
N1 C1 1_555 1_555
N2 C6 1_555 1_555
N3 Cd1 1_555 1_555
N4 C20 1_555 1_555
C1 C2 1_555 1_555
C2 C3 1_555 1_555
C3 C4 1_555 1_555
C4 C5 1_555 1_555
C5 N1 1_555 1_555
C6 C2 1_555 1_555
C7 N2 1_555 1_555
C8 C7 1_555 1_555
C9 C8 1_555 1_555
C10 C9 1_555 1_555
C11 C10 1_555 1_555
C12 C7 1_555 1_555
C13 C10 1_555 1_555
C14 C13 1_555 1_555
C15 N3 1_555 1_555
C16 C15 1_555 1_555
C17 C16 1_555 1_555
C18 C17 1_555 1_555
C19 N3 1_555 1_555
C20 C16 1_555 1_555
C21 N4 1_555 1_555
C22 C21 1_555 1_555
C23 C22 1_555 1_555
C24 C23 1_555 1_555
C25 C24 1_555 1_555
C26 C21 1_555 1_555
C27 C24 1_555 1_555
C28 C27 1_555 1_555
H1 C19 1_555 1_555
H2 C18 1_555 1_555
H3 C1 1_555 1_555
H4 C5 1_555 1_555
H5 C25 1_555 1_555
H6 N2 1_555 1_555
H7 C3 1_555 1_555
H8 C26 1_555 1_555
H9 C8 1_555 1_555
H10 C13 1_555 1_555
H11 C13 1_555 1_555
H12 C17 1_555 1_555
H13 C9 1_555 1_555
H14 C15 1_555 1_555
H15 N4 1_555 1_555
H16 C27 1_555 1_555
H17 C23 1_555 1_555
H18 C4 1_555 1_555
H19 C12 1_555 1_555
H20 C22 1_555 1_555
H21 C11 1_555 1_555
H22 C27 1_555 1_555
O7 H23 1_555 1_555
H24 O7 1_555 1_555
Cd1_2 O3 1_555 1_555
Cd1A O2 1_555 1_555
Cd1A_2 O5 1_555 1_555
O2A Cd1 1_555 1_555
O3_2 Cd1 1_555 1_555
O5A Cd1 1_555 1_555
O6A Cd1 1_555 1_555
O6 Cd1A_2 1_555 1_555
C11 C12 1_555 1_555
C18 C19 1_555 1_555
C25 C26 1_555 1_555

#END
