
#######################################################################
#
#                 Cambridge Crystallographic Data Centre
#                                CCDC 
#
#######################################################################
#
# If this CIF has been generated from an entry in the Cambridge 
# Structural Database, then it will include bibliographic, chemical, 
# crystal, experimental, refinement or atomic coordinate data resulting 
# from the CCDC's data processing and validation procedures.
#
#######################################################################

data_XOBGOM
_symmetry_cell_setting           triclinic
_symmetry_space_group_name_H-M   'P -1'
_symmetry_Int_Tables_number      2
_space_group_name_Hall           '-P 1'
loop_
_symmetry_equiv_pos_site_id
_symmetry_equiv_pos_as_xyz
1 x,y,z
2 -x,-y,-z
_cell_length_a                   9.8684(5)
_cell_length_b                   11.6488(6)
_cell_length_c                   12.2199(6)
_cell_angle_alpha                87.233(3)
_cell_angle_beta                 72.272(3)
_cell_angle_gamma                81.716(3)
_cell_volume                     1324.06
loop_
_atom_site_label
_atom_site_type_symbol
_atom_site_fract_x
_atom_site_fract_y
_atom_site_fract_z
Ni1 Ni 1.5000 0.5000 0.5000
Ni2 Ni 0.0000 1.0000 1.0000
O1 O 0.50912(18) 0.69022(16) 1.00579(15)
O2 O 1.24748(17) 0.32193(14) 0.55715(14)
O3 O 1.33264(15) 0.45266(13) 0.63638(12)
O4 O 1.04504(17) 0.85004(16) 0.64606(15)
O5 O 0.18521(16) 1.07510(13) 0.94942(13)
O6 O 0.23792(18) 1.05398(16) 0.76018(15)
O7 O 1.4821(2) 0.36226(14) 0.40058(14)
O8 O 0.0317(2) 0.96784(16) 1.16372(16)
N1 N 0.11823(19) 0.83821(15) 0.94852(16)
N2 N 0.5858(2) 0.63081(17) 0.81968(18)
N3 N 1.35457(18) 0.61099(15) 0.43353(15)
N4 N 0.8875(2) 0.82618(17) 0.55020(18)
C1 C 0.0656(3) 0.7678(2) 0.8937(2)
C2 C 0.1440(3) 0.6682(2) 0.8399(2)
C3 C 0.2825(3) 0.6386(2) 0.8429(2)
C4 C 0.3385(2) 0.70809(18) 0.90252(18)
C5 C 0.2512(2) 0.8071(2) 0.9544(2)
C6 C 0.4853(2) 0.67683(19) 0.9158(2)
C7 C 0.7261(2) 0.57493(18) 0.80789(19)
C8 C 0.7683(3) 0.5260(2) 0.8998(2)
C9 C 0.9009(3) 0.4601(2) 0.8796(2)
C10 C 0.9963(2) 0.44074(18) 0.77037(19)
C11 C 0.9542(2) 0.4943(2) 0.6799(2)
C12 C 0.8217(2) 0.5607(2) 0.6980(2)
C13 C 1.1369(3) 0.3633(2) 0.7552(2)
C14 C 1.2483(2) 0.37973(19) 0.64051(19)
C15 C 1.3775(3) 0.6352(2) 0.3212(2)
C16 C 1.2853(3) 0.7114(2) 0.2794(2)
C17 C 1.1623(3) 0.7673(2) 0.3560(2)
C18 C 1.1372(2) 0.74576(18) 0.47235(19)
C19 C 1.2358(2) 0.66709(19) 0.5064(2)
C20 C 1.0183(2) 0.81096(19) 0.5642(2)
C21 C 0.7659(2) 0.89650(19) 0.6229(2)
C22 C 0.7318(3) 0.8916(2) 0.7410(2)
C23 C 0.6172(3) 0.9658(2) 0.8066(2)
C24 C 0.5339(2) 1.0441(2) 0.7569(2)
C25 C 0.5673(3) 1.0446(2) 0.6385(2)
C26 C 0.6819(3) 0.9722(2) 0.5716(2)
C27 C 0.4093(3) 1.1245(2) 0.8308(3)
C28 C 0.2657(2) 1.08066(19) 0.8481(2)
H1 H -0.031(2) 0.7922(18) 0.8953(18)
H2 H 0.103(2) 0.6234(19) 0.8034(19)
H3 H 0.334(3) 0.574(2) 0.807(2)
H4 H 0.280(2) 0.8546(17) 0.9932(17)
H5 H 0.705(3) 0.535(2) 0.977(2)
H6 H 0.926(3) 0.433(2) 0.941(2)
H7 H 1.015(2) 0.4896(17) 0.6067(19)
H8 H 0.797(2) 0.5980(18) 0.6424(18)
H9 H 1.177(2) 0.3789(19) 0.816(2)
H10 H 1.120(3) 0.288(2) 0.759(2)
H11 H 1.467(2) 0.5965(18) 0.2726(19)
H12 H 1.305(3) 0.727(2) 0.200(2)
H13 H 1.098(3) 0.820(2) 0.3289(19)
H14 H 1.227(2) 0.6465(17) 0.5805(19)
H15 H 0.787(3) 0.838(2) 0.776(2)
H16 H 0.601(2) 0.9592(19) 0.885(2)
H17 H 0.512(3) 1.101(2) 0.604(2)
H18 H 0.705(3) 0.972(2) 0.493(2)
H19 H 0.562(2) 0.6382(18) 0.7607(19)
H20 H 0.876(3) 0.790(2) 0.498(2)
H21 H 0.420(3) 1.136(2) 0.903(2)
H22 H 0.405(3) 1.197(2) 0.793(2)
H23 H 1.537(3) 0.301(2) 0.389(2)
H24 H 1.404(3) 0.340(3) 0.447(3)
H25 H -0.066(4) 0.961(3) 1.207(3)
H26 H 0.051(4) 1.013(3) 1.196(3)
O1A O -0.50912(18) 1.30978(16) 0.99421(15)
O2A O -1.24748(17) 1.67807(14) 1.44285(14)
O3A O -1.33264(15) 1.54734(13) 1.36362(12)
O4A O -1.04504(17) 1.14996(16) 1.35394(15)
O5A O -0.18521(16) 0.92490(13) 1.05058(13)
O6A O -0.23792(18) 0.94602(16) 1.23982(15)
O8A O -0.0317(2) 1.03216(16) 0.83628(16)
N1A N -0.11823(19) 1.16179(15) 1.05148(16)
N2A N -0.5858(2) 1.36919(17) 1.18032(18)
N3A N -1.35457(18) 1.38901(15) 1.56647(15)
N4A N -0.8875(2) 1.17382(17) 1.44980(18)
C1A C -0.0656(3) 1.2322(2) 1.1063(2)
C2A C -0.1440(3) 1.3318(2) 1.1601(2)
C3A C -0.2825(3) 1.3614(2) 1.1571(2)
C4A C -0.3385(2) 1.29191(18) 1.09748(18)
C5A C -0.2512(2) 1.1929(2) 1.0456(2)
C6A C -0.4853(2) 1.32317(19) 1.0842(2)
C7A C -0.7261(2) 1.42507(18) 1.19211(19)
C8A C -0.7683(3) 1.4740(2) 1.1002(2)
C9A C -0.9009(3) 1.5399(2) 1.1204(2)
C10A C -0.9963(2) 1.55926(18) 1.22963(19)
C11A C -0.9542(2) 1.5057(2) 1.3201(2)
C12A C -0.8217(2) 1.4393(2) 1.3020(2)
C13A C -1.1369(3) 1.6367(2) 1.2448(2)
C14A C -1.2483(2) 1.62027(19) 1.35949(19)
C15A C -1.3775(3) 1.3648(2) 1.6788(2)
C16A C -1.2853(3) 1.2886(2) 1.7206(2)
C17A C -1.1623(3) 1.2327(2) 1.6440(2)
C18A C -1.1372(2) 1.25424(18) 1.52765(19)
C19A C -1.2358(2) 1.33291(19) 1.4936(2)
C20A C -1.0183(2) 1.18904(19) 1.4358(2)
C21A C -0.7659(2) 1.10350(19) 1.3771(2)
C22A C -0.7318(3) 1.1084(2) 1.2590(2)
C23A C -0.6172(3) 1.0342(2) 1.1934(2)
C24A C -0.5339(2) 0.9559(2) 1.2431(2)
C25A C -0.5673(3) 0.9554(2) 1.3615(2)
C26A C -0.6819(3) 1.0278(2) 1.4284(2)
C27A C -0.4093(3) 0.8755(2) 1.1692(3)
C28A C -0.2657(2) 0.91934(19) 1.1519(2)
H1A H 0.031(2) 1.2078(18) 1.1047(18)
H2A H -0.103(2) 1.3766(19) 1.1966(19)
H3A H -0.334(3) 1.426(2) 1.193(2)
H4A H -0.280(2) 1.1454(17) 1.0068(17)
H5A H -0.705(3) 1.465(2) 1.023(2)
H6A H -0.926(3) 1.567(2) 1.059(2)
H7A H -1.015(2) 1.5104(17) 1.3933(19)
H8A H -0.797(2) 1.4020(18) 1.3576(18)
H9A H -1.177(2) 1.6211(19) 1.184(2)
H10A H -1.120(3) 1.712(2) 1.241(2)
H11A H -1.467(2) 1.4035(18) 1.7274(19)
H12A H -1.305(3) 1.273(2) 1.800(2)
H13A H -1.098(3) 1.180(2) 1.6711(19)
H14A H -1.227(2) 1.3535(17) 1.4195(19)
H15A H -0.787(3) 1.162(2) 1.224(2)
H16A H -0.601(2) 1.0408(19) 1.115(2)
H17A H -0.512(3) 0.899(2) 1.396(2)
H18A H -0.705(3) 1.028(2) 1.507(2)
H19A H -0.562(2) 1.3618(18) 1.2393(19)
H20A H -0.876(3) 1.210(2) 1.502(2)
H21A H -0.420(3) 0.864(2) 1.097(2)
H22A H -0.405(3) 0.803(2) 1.207(2)
H25A H 0.066(4) 1.039(3) 0.793(3)
H26A H -0.051(4) 0.987(3) 0.804(3)
O7A O 1.5179(2) 0.63774(14) 0.59942(14)
H23A H 1.463(3) 0.699(2) 0.611(2)
H24A H 1.596(3) 0.660(3) 0.553(3)
Ni1_2 Ni -1.5000 1.5000 1.5000
O3A_2 O 1.66736(15) 0.54734(13) 0.36362(12)
N3A_2 N 1.64543(18) 0.38901(15) 0.56647(15)
O9 O 1.6620(2) 0.16072(17) 0.36028(18)
H27 H 1.658(3) 0.104(3) 0.328(3)
H28 H 1.745(3) 0.156(3) 0.355(3)
loop_
_geom_bond_atom_site_label_1
_geom_bond_atom_site_label_2
_geom_bond_site_symmetry_1
_geom_bond_site_symmetry_2
Ni1 O3 1_555 1_555
Ni2 O5 1_555 1_555
O1 C6 1_555 1_555
O2 C14 1_555 1_555
O3 C14 1_555 1_555
O4 C20 1_555 1_555
O5 C28 1_555 1_555
O6 C28 1_555 1_555
O7 Ni1 1_555 1_555
O8 Ni2 1_555 1_555
N1 Ni2 1_555 1_555
N2 C6 1_555 1_555
N3 Ni1 1_555 1_555
N4 C20 1_555 1_555
C1 N1 1_555 1_555
C2 C1 1_555 1_555
C3 C2 1_555 1_555
C4 C3 1_555 1_555
C5 N1 1_555 1_555
C6 C4 1_555 1_555
C7 N2 1_555 1_555
C8 C7 1_555 1_555
C9 C8 1_555 1_555
C10 C9 1_555 1_555
C11 C10 1_555 1_555
C12 C7 1_555 1_555
C13 C10 1_555 1_555
C14 C13 1_555 1_555
C15 N3 1_555 1_555
C16 C15 1_555 1_555
C17 C16 1_555 1_555
C18 C17 1_555 1_555
C19 N3 1_555 1_555
C20 C18 1_555 1_555
C21 N4 1_555 1_555
C22 C21 1_555 1_555
C23 C22 1_555 1_555
C24 C23 1_555 1_555
C25 C24 1_555 1_555
C26 C21 1_555 1_555
C27 C24 1_555 1_555
C28 C27 1_555 1_555
H1 C1 1_555 1_555
H2 C2 1_555 1_555
H3 C3 1_555 1_555
H4 C5 1_555 1_555
H5 C8 1_555 1_555
H6 C9 1_555 1_555
H7 C11 1_555 1_555
H8 C12 1_555 1_555
H9 C13 1_555 1_555
H10 C13 1_555 1_555
H11 C15 1_555 1_555
H12 C16 1_555 1_555
H13 C17 1_555 1_555
H14 C19 1_555 1_555
H15 C22 1_555 1_555
H16 C23 1_555 1_555
H17 C25 1_555 1_555
H18 C26 1_555 1_555
H19 N2 1_555 1_555
H20 N4 1_555 1_555
H21 C27 1_555 1_555
H22 C27 1_555 1_555
H23 O7 1_555 1_555
H24 O7 1_555 1_555
H25 O8 1_555 1_555
H26 O8 1_555 1_555
O9 H27 1_555 1_555
H28 O9 1_555 1_555
O1A C6A 1_555 1_555
O2A C14A 1_555 1_555
O3A C14A 1_555 1_555
O4A C20A 1_555 1_555
O5A Ni2 1_555 1_555
O6A C28A 1_555 1_555
O8A Ni2 1_555 1_555
N1A Ni2 1_555 1_555
N2A C6A 1_555 1_555
N3A C15A 1_555 1_555
N4A C20A 1_555 1_555
C1A N1A 1_555 1_555
C2A C1A 1_555 1_555
C3A C2A 1_555 1_555
C4A C3A 1_555 1_555
C5A N1A 1_555 1_555
C6A C4A 1_555 1_555
C7A N2A 1_555 1_555
C8A C7A 1_555 1_555
C9A C8A 1_555 1_555
C10A C9A 1_555 1_555
C11A C10A 1_555 1_555
C12A C7A 1_555 1_555
C13A C10A 1_555 1_555
C14A C13A 1_555 1_555
C15A C16A 1_555 1_555
C16A C17A 1_555 1_555
C17A C18A 1_555 1_555
C18A C19A 1_555 1_555
C19A N3A 1_555 1_555
C20A C18A 1_555 1_555
C21A N4A 1_555 1_555
C22A C21A 1_555 1_555
C23A C22A 1_555 1_555
C24A C23A 1_555 1_555
C25A C24A 1_555 1_555
C26A C21A 1_555 1_555
C27A C24A 1_555 1_555
C28A O5A 1_555 1_555
H1A C1A 1_555 1_555
H2A C2A 1_555 1_555
H3A C3A 1_555 1_555
H4A C5A 1_555 1_555
H5A C8A 1_555 1_555
H6A C9A 1_555 1_555
H7A C11A 1_555 1_555
H8A C12A 1_555 1_555
H9A C13A 1_555 1_555
H10A C13A 1_555 1_555
H11A C15A 1_555 1_555
H12A C16A 1_555 1_555
H13A C17A 1_555 1_555
H14A C19A 1_555 1_555
H15A C22A 1_555 1_555
H16A C23A 1_555 1_555
H17A C25A 1_555 1_555
H18A C26A 1_555 1_555
H19A N2A 1_555 1_555
H20A N4A 1_555 1_555
H21A C27A 1_555 1_555
H22A C27A 1_555 1_555
H25A O8A 1_555 1_555
H26A O8A 1_555 1_555
O7A Ni1 1_555 1_555
H23A O7A 1_555 1_555
H24A O7A 1_555 1_555
Ni1_2 O3A 1_555 1_555
O3A_2 Ni1 1_555 1_555
N3A_2 Ni1 1_555 1_555
C4 C5 1_555 1_555
C11 C12 1_555 1_555
C18 C19 1_555 1_555
C25 C26 1_555 1_555
N3A Ni1_2 1_555 1_555
C4A C5A 1_555 1_555
C11A C12A 1_555 1_555
C25A C26A 1_555 1_555
C27A C28A 1_555 1_555

#END
