
#######################################################################
#
#                 Cambridge Crystallographic Data Centre
#                                CCDC 
#
#######################################################################
#
# If this CIF has been generated from an entry in the Cambridge 
# Structural Database, then it will include bibliographic, chemical, 
# crystal, experimental, refinement or atomic coordinate data resulting 
# from the CCDC's data processing and validation procedures.
#
#######################################################################

data_XOBHAZ
_symmetry_cell_setting           orthorhombic
_symmetry_space_group_name_H-M   'P n a 21'
_symmetry_Int_Tables_number      33
_space_group_name_Hall           'P 2c -2n'
loop_
_symmetry_equiv_pos_site_id
_symmetry_equiv_pos_as_xyz
1 x,y,z
2 -x,-y,1/2+z
3 1/2-x,1/2+y,1/2+z
4 1/2+x,1/2-y,z
_cell_length_a                   9.6331(2)
_cell_length_b                   8.0242(2)
_cell_length_c                   20.2321(5)
_cell_angle_alpha                90
_cell_angle_beta                 90
_cell_angle_gamma                90
_cell_volume                     1563.9
loop_
_atom_site_label
_atom_site_type_symbol
_atom_site_fract_x
_atom_site_fract_y
_atom_site_fract_z
Cu1 Cu 0.73285(3) 0.43158(4) 0.43403(8)
S1 S 0.24965(5) 0.37683(8) 0.4337(2)
N1 N 0.8511(5) 0.5211(6) 0.3562(3)
N2 N 0.8536(6) 0.5225(7) 0.5108(3)
N3 N 0.5339(2) 0.4491(2) 0.4361(4)
O1 O 1.2392(7) 0.4011(9) 0.2213(4)
O2 O 1.2430(7) 0.4066(10) 0.6471(4)
C1 C 0.9371(6) 0.4184(7) 0.3253(3)
H1 H 0.9292 0.3046 0.3333
C2 C 1.0410(7) 0.4742(8) 0.2805(3)
C3 C 1.0520(8) 0.6432(7) 0.2693(4)
H2 H 1.1196 0.6848 0.2409
C4 C 0.9652(12) 0.7447(9) 0.2994(5)
H3 H 0.9699 0.8585 0.2909
C5 C 0.8660(9) 0.6849(8) 0.3441(4)
H4 H 0.8089 0.7605 0.3659
C6 C 0.9403(7) 0.4218(8) 0.5447(4)
H5 H 0.9304 0.3076 0.5386
C7 C 1.0398(7) 0.4731(8) 0.5866(3)
C8 C 1.0497(10) 0.6427(10) 0.5984(4)
H6 H 1.1167 0.6840 0.6271
C9 C 0.9561(11) 0.7525(8) 0.5662(5)
H7 H 0.9593 0.8668 0.5736
C10 C 0.8619(9) 0.6848(9) 0.5242(4)
H8 H 0.7993 0.7559 0.5035
C11 C 1.1392(8) 0.3544(8) 0.2489(3)
C12 C 1.1018(9) 0.1711(9) 0.2523(4)
H9 H 1.1662 0.1080 0.2260
H10 H 1.0095 0.1551 0.2355
H11 H 1.1061 0.1339 0.2973
C13 C 1.1351(7) 0.3519(9) 0.6196(4)
C14 C 1.1077(8) 0.1738(10) 0.6166(4)
H12 H 1.1748 0.1155 0.6431
H13 H 1.1143 0.1365 0.5716
H14 H 1.0162 0.1516 0.6332
C15 C 0.4166(2) 0.4197(2) 0.4343(5)
Cu1C Cu 0.23285(3) 0.06842(4) 0.43403(8)
S1C S 0.74965(5) 0.12317(8) 0.4337(2)
loop_
_geom_bond_atom_site_label_1
_geom_bond_atom_site_label_2
_geom_bond_site_symmetry_1
_geom_bond_site_symmetry_2
Cu1 N1 1_555 1_555
S1 C15 1_555 1_555
N1 C1 1_555 1_555
N2 Cu1 1_555 1_555
N3 Cu1 1_555 1_555
O1 C11 1_555 1_555
O2 C13 1_555 1_555
C1 H1 1_555 1_555
C2 C1 1_555 1_555
C3 C2 1_555 1_555
H2 C3 1_555 1_555
C4 C3 1_555 1_555
H3 C4 1_555 1_555
C5 N1 1_555 1_555
H4 C5 1_555 1_555
C6 N2 1_555 1_555
H5 C6 1_555 1_555
C7 C6 1_555 1_555
C8 C7 1_555 1_555
H6 C8 1_555 1_555
C9 C8 1_555 1_555
H7 C9 1_555 1_555
C10 N2 1_555 1_555
H8 C10 1_555 1_555
C11 C2 1_555 1_555
C12 C11 1_555 1_555
H9 C12 1_555 1_555
H10 C12 1_555 1_555
H11 C12 1_555 1_555
C13 C7 1_555 1_555
C14 C13 1_555 1_555
H12 C14 1_555 1_555
H13 C14 1_555 1_555
H14 C14 1_555 1_555
C15 N3 1_555 1_555
Cu1C S1 1_555 1_555
S1C Cu1 1_555 1_555
C4 C5 1_555 1_555
C9 C10 1_555 1_555

#END
