
#######################################################################
#
#                 Cambridge Crystallographic Data Centre
#                                CCDC 
#
#######################################################################
#
# If this CIF has been generated from an entry in the Cambridge 
# Structural Database, then it will include bibliographic, chemical, 
# crystal, experimental, refinement or atomic coordinate data resulting 
# from the CCDC's data processing and validation procedures.
#
#######################################################################

data_XOBPEK
_symmetry_cell_setting           triclinic
_symmetry_space_group_name_H-M   'P -1'
_symmetry_Int_Tables_number      2
_space_group_name_Hall           '-P 1'
loop_
_symmetry_equiv_pos_site_id
_symmetry_equiv_pos_as_xyz
1 x,y,z
2 -x,-y,-z
_cell_length_a                   12.614(3)
_cell_length_b                   13.824(3)
_cell_length_c                   13.983(3)
_cell_angle_alpha                89.79(3)
_cell_angle_beta                 79.34(3)
_cell_angle_gamma                63.57(3)
_cell_volume                     2137.17
loop_
_atom_site_label
_atom_site_type_symbol
_atom_site_fract_x
_atom_site_fract_y
_atom_site_fract_z
Mo1 Mo 0.22841(10) -0.26467(8) 0.46441(8)
Mo2 Mo 0.41191(10) -0.48582(8) 0.32414(7)
Mo3 Mo 0.44996(10) -0.28334(8) 0.56157(7)
Mo4 Mo 0.62970(9) -0.50270(8) 0.42196(7)
Mo5 Mo 0.48760(10) -0.19968(8) -0.02995(7)
Mo6 Mo 0.37705(9) 0.02858(8) 0.09911(7)
Mo7 Mo 0.63783(9) -0.03006(8) 0.14719(7)
Mo8 Mo 0.75078(10) -0.25974(8) 0.01745(7)
K1 K 0.4957(2) -0.2337(2) 0.26575(18)
O1 O 0.4537(8) -0.4096(6) 0.2429(6)
O2 O 0.6608(7) -0.4265(7) 0.3364(6)
O3 O 0.4917(8) -0.2206(7) 0.4665(6)
O4 O 0.2808(8) -0.2010(7) 0.3782(6)
O5 O 0.4646(8) -0.2263(7) 0.6615(6)
O6 O 0.3861(8) -0.5706(7) 0.2563(6)
O7 O 0.0755(8) -0.1878(7) 0.4953(6)
O8 O 0.2312(7) -0.3901(6) 0.5696(5)
O9 O 0.2816(8) -0.2236(7) 0.5717(6)
O10 O 0.2484(8) -0.3856(6) 0.3816(5)
O11 O 0.3910(7) -0.5812(6) 0.4589(5)
O12 O 0.5767(8) -0.5862(7) 0.3462(6)
O13 O 0.4380(7) -0.4066(6) 0.4572(5)
O14 O 0.4492(8) -0.2466(7) 0.0764(6)
O15 O 0.3478(7) -0.0338(6) 0.1972(6)
O16 O 0.5939(8) -0.0916(7) 0.2411(6)
O17 O 0.7039(8) -0.3065(6) 0.1211(5)
O18 O 0.8944(8) -0.3567(7) -0.0296(6)
O19 O 0.4374(8) -0.2483(7) -0.1123(6)
O20 O 0.7014(8) 0.0382(7) 0.1956(6)
O21 O 0.6548(8) -0.2846(6) -0.0632(6)
O22 O 0.7764(7) -0.1493(6) 0.0757(6)
O23 O 0.2446(7) 0.1516(6) 0.1073(5)
O24 O 0.3503(7) -0.0474(6) -0.0010(5)
O25 O 0.5262(8) -0.0900(6) -0.1463(5)
O26 O 0.5571(7) -0.0943(6) 0.0413(5)
C1 C 1.3057(14) -0.4761(13) -0.1036(11)
C2 C 1.3562(13) -0.4349(11) -0.0507(11)
C3 C 1.1642(15) -0.3790(12) 0.0231(11)
C4 C 1.1026(14) -0.6476(12) -0.2618(9)
C5 C 1.0287(14) -0.6694(14) -0.3103(10)
C6 C 0.9187(13) -0.5179(12) -0.2109(13)
C7 C -0.0056(12) 0.1380(10) 0.0865(8)
C8 C -0.1078(13) 0.1344(12) 0.0753(9)
C9 C -0.1592(12) 0.2450(11) 0.2047(10)
C10 C 0.2263(13) 0.2979(11) 0.3049(11)
C11 C 0.2399(11) 0.3451(9) 0.3843(8)
C12 C 0.0616(15) 0.3429(14) 0.4127(10)
C13 C 0.1278(12) -0.1133(10) 0.2109(8)
C14 C 0.0300(13) -0.1168(11) 0.1888(10)
C15 C -0.0318(12) 0.0182(10) 0.2993(9)
C16 C 0.3520(13) 0.0755(11) 0.4016(10)
C17 C 0.3814(11) 0.1038(10) 0.4867(9)
C18 C 0.2312(16) 0.0612(15) 0.5277(11)
N1 N 1.1927(10) -0.4438(8) -0.0642(7)
N2 N 1.2697(19) -0.3785(13) 0.0281(13)
N3 N 1.0301(11) -0.5502(9) -0.1999(8)
N4 N 0.9164(12) -0.5891(10) -0.2796(9)
N5 N -0.0408(9) 0.2096(8) 0.1699(7)
N6 N -0.2029(9) 0.1999(9) 0.1444(8)
N7 N 0.1207(10) 0.2960(9) 0.3196(7)
N8 N 0.1339(17) 0.3732(13) 0.4514(10)
N9 N 0.0865(10) -0.0274(9) 0.2830(7)
N10 N -0.0719(11) -0.0333(9) 0.2438(8)
N11 N 0.2640(10) 0.0488(9) 0.4265(7)
N12 N 0.3049(16) 0.0944(12) 0.5609(10)
Cu1 Cu 1.09236(17) -0.48525(14) -0.12183(13)
Cu2 Cu 0.18349(15) 0.00896(13) 0.34670(11)
Cu3 Cu 0.05511(15) 0.24461(13) 0.23512(11)
Mo1A Mo 0.77159(10) -0.73533(8) 0.53559(8)
Mo2A Mo 0.58809(10) -0.51418(8) 0.67586(7)
Mo3A Mo 0.55004(10) -0.71666(8) 0.43843(7)
Mo4A Mo 0.37030(9) -0.49730(8) 0.57804(7)
Mo5A Mo 0.51240(10) 0.19968(8) 0.02995(7)
Mo6A Mo 0.62295(9) -0.02858(8) -0.09911(7)
Mo7A Mo 0.36217(9) 0.03006(8) -0.14719(7)
Mo8A Mo 0.24922(10) 0.25974(8) -0.01745(7)
K1A K 0.5043(2) -0.7663(2) 0.73425(18)
K1A_2 K 0.5043(2) 0.2337(2) -0.26575(18)
O1A O 0.5463(8) -0.5904(6) 0.7571(6)
O2A O 0.3392(7) -0.5735(7) 0.6636(6)
O3A O 0.5083(8) -0.7794(7) 0.5335(6)
O4A O 0.7192(8) -0.7990(7) 0.6218(6)
O4A_2 O 0.7192(8) 0.2010(7) -0.3782(6)
O5A O 0.5354(8) -0.7737(7) 0.3385(6)
O6A O 0.6139(8) -0.4294(7) 0.7437(6)
O7A O 0.9245(8) -0.8122(7) 0.5047(6)
O8A O 0.7688(7) -0.6099(6) 0.4304(5)
O9A O 0.7184(8) -0.7764(7) 0.4283(6)
O10A O 0.7516(8) -0.6144(6) 0.6184(5)
O11A O 0.6090(7) -0.4188(6) 0.5411(5)
O12A O 0.4233(8) -0.4138(7) 0.6538(6)
O13A O 0.5620(7) -0.5934(6) 0.5428(5)
O14A O 0.5508(8) 0.2466(7) -0.0764(6)
O14A_2 O 0.5508(8) -0.7534(7) 0.9236(6)
O15A O 0.6522(7) 0.0338(6) -0.1972(6)
O15A_2 O 0.6522(7) -0.9662(6) 0.8028(6)
O16A O 0.4061(8) 0.0916(7) -0.2411(6)
O16A_2 O 0.4061(8) -0.9084(7) 0.7589(6)
O17A O 0.2961(8) 0.3065(6) -0.1211(5)
O17A_2 O 0.2961(8) -0.6935(6) 0.8789(5)
O18A O 0.1056(8) 0.3567(7) 0.0296(6)
O19A O 0.5626(8) 0.2483(7) 0.1123(6)
O20A O 0.2986(8) -0.0382(7) -0.1956(6)
O21A O 0.3452(8) 0.2846(6) 0.0632(6)
O22A O 0.2236(7) 0.1493(6) -0.0757(6)
O23A O 0.7554(7) -0.1516(6) -0.1073(5)
O24A O 0.6497(7) 0.0474(6) 0.0010(5)
O25A O 0.4738(8) 0.0900(6) 0.1463(5)
O26A O 0.4429(7) 0.0943(6) -0.0413(5)
C1A C -0.3057(14) 0.4761(13) 0.1036(11)
C2A C -0.3562(13) 0.4349(11) 0.0507(11)
C3A C -0.1642(15) 0.3790(12) -0.0231(11)
C4A C -0.1026(14) 0.6476(12) 0.2618(9)
C5A C -0.0287(14) 0.6694(14) 0.3103(10)
C6A C 0.0813(13) 0.5179(12) 0.2109(13)
C7A C 1.0056(12) -0.1380(10) -0.0865(8)
C8A C 1.1078(13) -0.1344(12) -0.0753(9)
C9A C 1.1592(12) -0.2450(11) -0.2047(10)
C10A C 0.7737(13) -0.2979(11) -0.3049(11)
C11A C 0.7601(11) -0.3451(9) -0.3843(8)
C12A C 0.9384(15) -0.3429(14) -0.4127(10)
C13A C 0.8722(12) 0.1133(10) -0.2109(8)
C14A C 0.9700(13) 0.1168(11) -0.1888(10)
C15A C 1.0318(12) -0.0182(10) -0.2993(9)
C16A C 0.6480(13) -0.0755(11) -0.4016(10)
C17A C 0.6186(11) -0.1038(10) -0.4867(9)
C18A C 0.7688(16) -0.0612(15) -0.5277(11)
N1A N -0.1927(10) 0.4438(8) 0.0642(7)
N2A N -0.2697(19) 0.3785(13) -0.0281(13)
N3A N -0.0301(11) 0.5502(9) 0.1999(8)
N4A N 0.0836(12) 0.5891(10) 0.2796(9)
N5A N 1.0408(9) -0.2096(8) -0.1699(7)
N6A N 1.2029(9) -0.1999(9) -0.1444(8)
N7A N 0.8793(10) -0.2960(9) -0.3196(7)
N8A N 0.8661(17) -0.3732(13) -0.4514(10)
N9A N 0.9135(10) 0.0274(9) -0.2830(7)
N10A N 1.0719(11) 0.0333(9) -0.2438(8)
N11A N 0.7360(10) -0.0488(9) -0.4265(7)
N12A N 0.6951(16) -0.0944(12) -0.5609(10)
Cu1A Cu -0.09236(17) 0.48525(14) 0.12183(13)
Cu2A Cu 0.81651(15) -0.00896(13) -0.34670(11)
Cu2A_2 Cu 0.81651(15) -1.00896(13) 0.65330(11)
Cu3A Cu 0.94489(15) -0.24461(13) -0.23512(11)
loop_
_geom_bond_atom_site_label_1
_geom_bond_atom_site_label_2
_geom_bond_site_symmetry_1
_geom_bond_site_symmetry_2
Mo1 O4 1_555 1_555
Mo2 O1 1_555 1_555
Mo3 O3 1_555 1_555
Mo4 O2 1_555 1_555
Mo5 O14 1_555 1_555
Mo6 O15 1_555 1_555
Mo7 O16 1_555 1_555
Mo8 O17 1_555 1_555
K1 O1 1_555 1_555
O2 K1 1_555 1_555
O3 K1 1_555 1_555
O4 K1 1_555 1_555
O5 Mo3 1_555 1_555
O6 Mo2 1_555 1_555
O7 Mo1 1_555 1_555
O8 Mo1 1_555 1_555
O9 Mo1 1_555 1_555
O10 Mo1 1_555 1_555
O11 Mo2 1_555 1_555
O12 Mo2 1_555 1_555
O13 Mo1 1_555 1_555
O14 K1 1_555 1_555
O15 K1 1_555 1_555
O16 K1 1_555 1_555
O17 K1 1_555 1_555
O18 Mo8 1_555 1_555
O19 Mo5 1_555 1_555
O20 Mo7 1_555 1_555
O21 Mo5 1_555 1_555
O22 Mo7 1_555 1_555
O23 Mo6 1_555 1_555
O24 Mo5 1_555 1_555
O25 Mo5 1_555 1_555
O26 Mo5 1_555 1_555
C1 C2 1_555 1_555
C2 N2 1_555 1_555
C3 N1 1_555 1_555
C4 C5 1_555 1_555
C5 N4 1_555 1_555
C6 N3 1_555 1_555
C7 C8 1_555 1_555
C8 N6 1_555 1_555
C9 N5 1_555 1_555
C10 C11 1_555 1_555
C11 N8 1_555 1_555
C12 N7 1_555 1_555
C13 C14 1_555 1_555
C14 N10 1_555 1_555
C15 N9 1_555 1_555
C16 C17 1_555 1_555
C17 N12 1_555 1_555
C18 N11 1_555 1_555
N1 C1 1_555 1_555
N2 C3 1_555 1_555
N3 C4 1_555 1_555
N4 C6 1_555 1_555
N5 C7 1_555 1_555
N6 C9 1_555 1_555
N7 C10 1_555 1_555
N8 C12 1_555 1_555
N9 C13 1_555 1_555
N10 C15 1_555 1_555
N11 C16 1_555 1_555
N12 C18 1_555 1_555
Cu1 O18 1_555 1_555
Cu2 O4 1_555 1_555
Cu3 O23 1_555 1_555
Mo1A O4A 1_555 1_555
Mo2A O1A 1_555 1_555
Mo3A O11 1_555 1_555
Mo4A O8 1_555 1_555
Mo5A O14A 1_555 1_555
Mo6A O25 1_555 1_555
Mo7A O24 1_555 1_555
Mo8A O23 1_555 1_555
K1A O1A 1_555 1_555
K1A_2 O4A_2 1_555 1_555
O2A Mo4A 1_555 1_555
O3A Mo3A 1_555 1_555
O4A K1A 1_555 1_555
O4A_2 Cu2A 1_555 1_555
O5A Mo3A 1_555 1_555
O6A Mo2A 1_555 1_555
O7A Mo1A 1_555 1_555
O8A Mo4 1_555 1_555
O9A Mo1A 1_555 1_555
O10A Mo1A 1_555 1_555
O11A Mo3 1_555 1_555
O12A Mo3 1_555 1_555
O13A Mo4 1_555 1_555
O14A K1A_2 1_555 1_555
O14A_2 K1A 1_555 1_555
O15A Mo6A 1_555 1_555
O15A_2 K1A 1_555 1_555
O16A Mo7A 1_555 1_555
O16A_2 K1A 1_555 1_555
O17A Mo8A 1_555 1_555
O17A_2 K1A 1_555 1_555
O18A Mo8A 1_555 1_555
O19A Mo5A 1_555 1_555
O20A Mo7A 1_555 1_555
O21A Mo5A 1_555 1_555
O22A Mo7A 1_555 1_555
O23A Mo8 1_555 1_555
O24A Mo7 1_555 1_555
O25A Mo6 1_555 1_555
O26A Mo6 1_555 1_555
C1A C2A 1_555 1_555
C2A N2A 1_555 1_555
C3A N1A 1_555 1_555
C4A C5A 1_555 1_555
C5A N4A 1_555 1_555
C6A N3A 1_555 1_555
C7A C8A 1_555 1_555
C8A N6A 1_555 1_555
C9A N5A 1_555 1_555
C10A C11A 1_555 1_555
C11A N8A 1_555 1_555
C12A N7A 1_555 1_555
C13A C14A 1_555 1_555
C14A N10A 1_555 1_555
C15A N9A 1_555 1_555
C16A C17A 1_555 1_555
C17A N12A 1_555 1_555
C18A N11A 1_555 1_555
N1A C1A 1_555 1_555
N2A C3A 1_555 1_555
N3A C4A 1_555 1_555
N4A C6A 1_555 1_555
N5A C7A 1_555 1_555
N6A C9A 1_555 1_555
N7A C10A 1_555 1_555
N8A C12A 1_555 1_555
N9A C13A 1_555 1_555
N10A C15A 1_555 1_555
N11A C16A 1_555 1_555
N12A C18A 1_555 1_555
Cu1A O18A 1_555 1_555
Cu2A O15A 1_555 1_555
Cu2A_2 O4A 1_555 1_555
Cu3A O23A 1_555 1_555
Mo2 O10 1_555 1_555
Mo2 O13 1_555 1_555
Mo3 O9 1_555 1_555
Mo3 O13 1_555 1_555
Mo4 O12 1_555 1_555
Mo4 O13 1_555 1_555
Mo4 O11A 1_555 1_555
Mo6 O24 1_555 1_555
Mo6 O26 1_555 1_555
Mo7 O26 1_555 1_555
Mo7 O25A 1_555 1_555
Mo8 O21 1_555 1_555
Mo8 O22 1_555 1_555
Mo8 O26 1_555 1_555
O11 Mo4A 1_555 1_555
O12 Mo3A 1_555 1_555
O13 Mo4A 1_555 1_555
O15 Cu2 1_555 1_555
O25 Mo7A 1_555 1_555
O26 Mo6A 1_555 1_555
N1 Cu1 1_555 1_555
N3 Cu1 1_555 1_555
N5 Cu3 1_555 1_555
N7 Cu3 1_555 1_555
N9 Cu2 1_555 1_555
N11 Cu2 1_555 1_555
Mo1A O8A 1_555 1_555
Mo1A O13A 1_555 1_555
Mo2A O10A 1_555 1_555
Mo2A O11A 1_555 1_555
Mo2A O12A 1_555 1_555
Mo2A O13A 1_555 1_555
Mo3A O9A 1_555 1_555
Mo3A O13A 1_555 1_555
Mo4A O12A 1_555 1_555
Mo4A O13A 1_555 1_555
Mo5A O24A 1_555 1_555
Mo5A O25A 1_555 1_555
Mo5A O26A 1_555 1_555
Mo6A O23A 1_555 1_555
Mo6A O24A 1_555 1_555
Mo6A O26A 1_555 1_555
Mo7A O26A 1_555 1_555
Mo8A O21A 1_555 1_555
Mo8A O22A 1_555 1_555
Mo8A O26A 1_555 1_555
K1A O2A 1_555 1_555
K1A O3A 1_555 1_555
K1A_2 O15A 1_555 1_555
K1A_2 O16A 1_555 1_555
K1A_2 O17A 1_555 1_555
O15A_2 Cu2A_2 1_555 1_555
N1A Cu1A 1_555 1_555
N3A Cu1A 1_555 1_555
N5A Cu3A 1_555 1_555
N7A Cu3A 1_555 1_555
N9A Cu2A 1_555 1_555
N11A Cu2A 1_555 1_555

#END
