
#######################################################################
#
#                 Cambridge Crystallographic Data Centre
#                                CCDC 
#
#######################################################################
#
# If this CIF has been generated from an entry in the Cambridge 
# Structural Database, then it will include bibliographic, chemical, 
# crystal, experimental, refinement or atomic coordinate data resulting 
# from the CCDC's data processing and validation procedures.
#
#######################################################################

data_XOBQEM
_symmetry_cell_setting           monoclinic
_symmetry_space_group_name_H-M   'P 21/c'
_symmetry_Int_Tables_number      14
_space_group_name_Hall           '-P 2ybc'
loop_
_symmetry_equiv_pos_site_id
_symmetry_equiv_pos_as_xyz
1 x,y,z
2 -x,1/2+y,1/2-z
3 -x,-y,-z
4 x,1/2-y,1/2+z
_cell_length_a                   15.1541(6)
_cell_length_b                   8.1463(3)
_cell_length_c                   11.6168(5)
_cell_angle_alpha                90
_cell_angle_beta                 97.454(3)
_cell_angle_gamma                90
_cell_volume                     1421.97
loop_
_atom_site_label
_atom_site_type_symbol
_atom_site_fract_x
_atom_site_fract_y
_atom_site_fract_z
Hg1 Hg 0.855757(18) 0.58333(3) 0.26219(2)
S1 S 1.00587(12) 0.4884(2) 0.27931(14)
S2 S 1.09542(12) 0.2652(2) 0.45803(15)
O1 O 0.9210(3) 0.3154(5) 0.4127(3)
C1 C 1.0035(4) 0.3480(7) 0.3909(5)
C2 C 0.9091(5) 0.1899(8) 0.4994(6)
H1 H 0.9423 0.2189 0.5736
H2 H 0.9303 0.0846 0.4754
C3 C 0.8121(5) 0.1807(8) 0.5095(6)
C4 C 0.7759(6) 0.2716(9) 0.5922(7)
H3 H 0.8126 0.3407 0.6409
C5 C 0.6875(6) 0.2625(10) 0.6043(7)
H4 H 0.6643 0.3229 0.6613
C6 C 0.6335(6) 0.1620(12) 0.5305(8)
H5 H 0.5731 0.1562 0.5368
C7 C 0.6674(7) 0.0706(10) 0.4480(9)
H6 H 0.6305 0.0016 0.3994
C8 C 0.7558(6) 0.0813(8) 0.4376(7)
H7 H 0.7786 0.0202 0.3807
C9 C 0.7256(5) 0.6512(8) 0.2572(6)
C10 C 0.6726(6) 0.5864(9) 0.3355(8)
H8 H 0.6979 0.5152 0.3931
C11 C 0.5836(6) 0.6251(11) 0.3299(8)
H9 H 0.5500 0.5815 0.3840
C12 C 0.5445(6) 0.7284(12) 0.2440(8)
H10 H 0.4843 0.7541 0.2387
C13 C 0.5955(6) 0.7915(12) 0.1676(8)
H11 H 0.5696 0.8627 0.1103
C14 C 0.6840(5) 0.7543(10) 0.1715(6)
H12 H 0.7165 0.7984 0.1163
Hg1A Hg 1.144243(18) 0.08333(3) 0.23781(2)
S2A S 0.90458(12) 0.7652(2) 0.04197(15)
loop_
_geom_bond_atom_site_label_1
_geom_bond_atom_site_label_2
_geom_bond_site_symmetry_1
_geom_bond_site_symmetry_2
Hg1 S1 1_555 1_555
S1 C1 1_555 1_555
S2 C1 1_555 1_555
O1 Hg1 1_555 1_555
C1 O1 1_555 1_555
C2 O1 1_555 1_555
H1 C2 1_555 1_555
H2 C2 1_555 1_555
C3 C2 1_555 1_555
C4 C3 1_555 1_555
H3 C4 1_555 1_555
C5 C4 1_555 1_555
H4 C5 1_555 1_555
C6 C5 1_555 1_555
H5 C6 1_555 1_555
C7 C6 1_555 1_555
H6 C7 1_555 1_555
C8 C3 1_555 1_555
H7 C8 1_555 1_555
C9 Hg1 1_555 1_555
C10 C9 1_555 1_555
H8 C10 1_555 1_555
C11 C10 1_555 1_555
H9 C11 1_555 1_555
C12 C11 1_555 1_555
H10 C12 1_555 1_555
C13 C12 1_555 1_555
H11 C13 1_555 1_555
C14 C9 1_555 1_555
H12 C14 1_555 1_555
Hg1A S2 1_555 1_555
S2A Hg1 1_555 1_555
C7 C8 1_555 1_555
C13 C14 1_555 1_555

#END
