
#######################################################################
#
#                 Cambridge Crystallographic Data Centre
#                                CCDC 
#
#######################################################################
#
# If this CIF has been generated from an entry in the Cambridge 
# Structural Database, then it will include bibliographic, chemical, 
# crystal, experimental, refinement or atomic coordinate data resulting 
# from the CCDC's data processing and validation procedures.
#
#######################################################################

data_XOBREM
_symmetry_cell_setting           cubic
_symmetry_space_group_name_H-M   'P a -3'
_symmetry_Int_Tables_number      205
_space_group_name_Hall           '-P 2ac 2ab 3'
loop_
_symmetry_equiv_pos_site_id
_symmetry_equiv_pos_as_xyz
1 x,y,z
2 z,x,y
3 y,z,x
4 1/2-x,-y,1/2+z
5 -x,1/2+y,1/2-z
6 1/2+x,1/2-y,-z
7 1/2+z,1/2-x,-y
8 1/2-z,-x,1/2+y
9 -z,1/2+x,1/2-y
10 -y,1/2+z,1/2-x
11 1/2+y,1/2-z,-x
12 1/2-y,-z,1/2+x
13 -x,-y,-z
14 -z,-x,-y
15 -y,-z,-x
16 1/2+x,y,1/2-z
17 x,1/2-y,1/2+z
18 1/2-x,1/2+y,z
19 1/2-z,1/2+x,y
20 1/2+z,x,1/2-y
21 z,1/2-x,1/2+y
22 y,1/2-z,1/2+x
23 1/2-y,1/2+z,x
24 1/2+y,z,1/2-x
_cell_length_a                   22.4395(2)
_cell_length_b                   22.4395(2)
_cell_length_c                   22.4395(2)
_cell_angle_alpha                90
_cell_angle_beta                 90
_cell_angle_gamma                90
_cell_volume                     11299
loop_
_atom_site_label
_atom_site_type_symbol
_atom_site_fract_x
_atom_site_fract_y
_atom_site_fract_z
Zn1 Zn 0.137250(11) -0.362750(11) -0.137250(11)
Zn2 Zn 0.191960(12) -0.447850(12) -0.260160(12)
O1 O -0.10388(11) -0.66337(12) -0.23812(12)
O2 O -0.01263(10) -0.67139(9) -0.27228(9)
O3 O 0.13093(8) -0.50646(9) -0.23496(9)
O4 O 0.11652(8) -0.44993(7) -0.15486(8)
N1 N 0.27528(9) -0.36354(9) -0.12224(10)
N2 N 0.23042(8) -0.38241(9) -0.15596(9)
N3 N 0.24935(9) -0.42078(10) -0.19693(9)
C1 C 0.32576(11) -0.39074(13) -0.14212(13)
C2 C 0.30934(11) -0.42705(12) -0.18975(13)
C3 C 0.35157(14) -0.46166(17) -0.22077(17)
H1 H 0.3408 -0.4864 -0.2522
C4 C 0.40922(15) -0.4568(2) -0.2020(2)
H2 H 0.4385 -0.4785 -0.2217
C5 C 0.42602(14) -0.4202(2) -0.1540(2)
H3 H 0.4659 -0.4188 -0.1428
C6 C 0.38540(13) -0.38657(17) -0.12323(18)
H4 H 0.3966 -0.3623 -0.0916
C7 C 0.04009(10) -0.51663(10) -0.18236(10)
C8 C 0.02334(11) -0.56738(10) -0.21395(10)
H5 H 0.0505 -0.5860 -0.2391
C9 C -0.03389(11) -0.59031(11) -0.20802(11)
C10 C -0.07467(11) -0.56227(12) -0.17083(13)
H6 H -0.1132 -0.5772 -0.1674
C11 C -0.05800(12) -0.51209(13) -0.13890(14)
H7 H -0.0852 -0.4935 -0.1138
C12 C -0.00066(12) -0.48952(11) -0.14446(12)
H8 H 0.0105 -0.4561 -0.1227
C13 C 0.10017(10) -0.48909(10) -0.19081(11)
C14 C -0.05254(13) -0.64518(12) -0.24126(12)
Zn2C Zn 0.308040(12) -0.552150(12) 0.239840(12)
Zn2G Zn -0.239840(12) -0.191960(12) 0.052150(12)
Zn2K Zn -0.052150(12) -0.739840(12) -0.308040(12)
Zn2H Zn 0.260160(12) -0.308040(12) -0.052150(12)
Zn2J Zn 0.052150(12) -0.239840(12) -0.191960(12)
O1H O 0.23812(12) -0.60388(11) 0.16337(12)
O1J O -0.16337(12) -0.26188(12) 0.10388(11)
O2H O 0.27228(9) -0.51263(10) 0.17139(9)
O2J O -0.17139(9) -0.22772(9) 0.01263(10)
O2D O 0.01263(10) -0.17139(9) -0.22772(9)
O2F O 0.22772(9) -0.48737(10) -0.32861(9)
O2B O 0.32861(9) -0.27228(9) -0.01263(10)
O3H O 0.23496(9) -0.36907(8) 0.00646(9)
O3J O -0.00646(9) -0.26504(9) -0.13093(8)
O4H O 0.15486(8) -0.38348(8) -0.05007(7)
O4J O 0.05007(7) -0.34514(8) -0.11652(8)
N1H N 0.12224(10) -0.22472(9) -0.13646(9)
N1J N 0.13646(9) -0.37776(10) -0.27528(9)
N2H N 0.15596(9) -0.26958(8) -0.11759(9)
N2J N 0.11759(9) -0.34404(9) -0.23042(8)
N3H N 0.19693(9) -0.25065(9) -0.07922(10)
N3J N 0.07922(10) -0.30307(9) -0.24935(9)
C1H C 0.14212(13) -0.17424(11) -0.10926(13)
C1J C 0.10926(13) -0.35788(13) -0.32576(11)
C2H C 0.18975(13) -0.19066(11) -0.07295(12)
C2J C 0.07295(12) -0.31025(13) -0.30934(11)
C3H C 0.22077(17) -0.14843(14) -0.03834(17)
C3J C 0.03834(17) -0.27923(17) -0.35157(14)
H1H H 0.2522 -0.1592 -0.0136
H1J H 0.0136 -0.2478 -0.3408
C4H C 0.2020(2) -0.09078(15) -0.0432(2)
C4J C 0.0432(2) -0.2980(2) -0.40922(15)
H2H H 0.2217 -0.0615 -0.0215
H2J H 0.0215 -0.2783 -0.4385
C5H C 0.1540(2) -0.07398(14) -0.0798(2)
C5J C 0.0798(2) -0.3460(2) -0.42602(14)
H3H H 0.1428 -0.0341 -0.0812
H3J H 0.0812 -0.3572 -0.4659
C6H C 0.12323(18) -0.11460(13) -0.11343(17)
C6J C 0.11343(17) -0.37677(18) -0.38540(13)
H4H H 0.0916 -0.1034 -0.1377
H4J H 0.1377 -0.4084 -0.3966
C7H C 0.18236(10) -0.45991(10) 0.01663(10)
C7J C -0.01663(10) -0.31764(10) -0.04009(10)
C8H C 0.21395(10) -0.47666(11) 0.06738(10)
C8J C -0.06738(10) -0.28605(10) -0.02334(11)
H5H H 0.2391 -0.4495 0.0860
H5J H -0.0860 -0.2609 -0.0505
C9H C 0.20802(11) -0.53389(11) 0.09031(11)
C9J C -0.09031(11) -0.29198(11) 0.03389(11)
C10H C 0.17083(13) -0.57467(11) 0.06227(12)
C10J C -0.06227(12) -0.32917(13) 0.07467(11)
H6H H 0.1674 -0.6132 0.0772
H6J H -0.0772 -0.3326 0.1132
C11H C 0.13890(14) -0.55800(12) 0.01209(13)
C11J C -0.01209(13) -0.36110(14) 0.05800(12)
H7H H 0.1138 -0.5852 -0.0065
H7J H 0.0065 -0.3862 0.0852
C12H C 0.14446(12) -0.50066(12) -0.01048(11)
C12J C 0.01048(11) -0.35554(12) 0.00066(12)
H8H H 0.1227 -0.4895 -0.0439
H8J H 0.0439 -0.3773 -0.0105
C13H C 0.19081(11) -0.39983(10) -0.01091(10)
C13J C 0.01091(10) -0.30919(11) -0.10017(10)
C14H C 0.24126(12) -0.55254(13) 0.14518(12)
C14J C -0.14518(12) -0.25874(12) 0.05254(13)
N4 N 0.2900(4) -0.2100(4) -0.2900(4)
H9 H 0.3112 -0.1888 -0.3112
C15 C 0.2656(9) -0.1246(6) -0.2142(8)
C16 C 0.2635(11) -0.1855(8) -0.2296(8)
C15H C 0.2142(8) -0.2344(9) -0.3754(6)
C15J C 0.3754(6) -0.2858(8) -0.2656(9)
C16H C 0.2296(8) -0.2365(11) -0.3145(8)
C16J C 0.3145(8) -0.2704(8) -0.2635(11)
loop_
_geom_bond_atom_site_label_1
_geom_bond_atom_site_label_2
_geom_bond_site_symmetry_1
_geom_bond_site_symmetry_2
Zn1 O4 1_555 1_555
Zn2 O3 1_555 1_555
O1 C14 1_555 1_555
O2 C14 1_555 1_555
O3 C13 1_555 1_555
O4 C13 1_555 1_555
N1 N2 1_555 1_555
N2 Zn1 1_555 1_555
N3 Zn2 1_555 1_555
C1 N1 1_555 1_555
C2 N3 1_555 1_555
C3 C2 1_555 1_555
H1 C3 1_555 1_555
C4 C3 1_555 1_555
H2 C4 1_555 1_555
C5 C4 1_555 1_555
H3 C5 1_555 1_555
C6 C1 1_555 1_555
H4 C6 1_555 1_555
C7 C8 1_555 1_555
C8 H5 1_555 1_555
C9 C8 1_555 1_555
C10 C9 1_555 1_555
H6 C10 1_555 1_555
C11 C10 1_555 1_555
H7 C11 1_555 1_555
C12 C7 1_555 1_555
H8 C12 1_555 1_555
C13 C7 1_555 1_555
C14 C9 1_555 1_555
N4 H9 1_555 1_555
C15 C16 1_555 1_555
C16 N4 1_555 1_555
Zn2C O2H 1_555 1_555
Zn2G O2J 1_555 1_555
Zn2K O2 1_555 1_555
Zn2H N1 1_555 1_555
Zn2J O2D 1_555 1_555
O1H C14H 1_555 1_555
O1J C14J 1_555 1_555
O2H C14H 1_555 1_555
O2J C14J 1_555 1_555
O2F Zn2 1_555 1_555
O2B Zn2H 1_555 1_555
O3H Zn2H 1_555 1_555
O3J Zn2J 1_555 1_555
O4H Zn1 1_555 1_555
O4J Zn1 1_555 1_555
N1H Zn2J 1_555 1_555
N1J Zn2 1_555 1_555
N2H Zn1 1_555 1_555
N2J Zn1 1_555 1_555
N3H Zn2H 1_555 1_555
N3J Zn2J 1_555 1_555
C1H N1H 1_555 1_555
C1J N1J 1_555 1_555
C2H N3H 1_555 1_555
C2J N3J 1_555 1_555
C3H C2H 1_555 1_555
C3J C2J 1_555 1_555
H1H C3H 1_555 1_555
H1J C3J 1_555 1_555
C4H C3H 1_555 1_555
C4J C3J 1_555 1_555
H2H C4H 1_555 1_555
H2J C4J 1_555 1_555
C5H C4H 1_555 1_555
C5J C4J 1_555 1_555
H3H C5H 1_555 1_555
H3J C5J 1_555 1_555
C6H C1H 1_555 1_555
C6J C1J 1_555 1_555
H4H C6H 1_555 1_555
H4J C6J 1_555 1_555
C7H C8H 1_555 1_555
C7J C8J 1_555 1_555
C8H H5H 1_555 1_555
C8J H5J 1_555 1_555
C9H C8H 1_555 1_555
C9J C8J 1_555 1_555
C10H C9H 1_555 1_555
C10J C9J 1_555 1_555
H6H C10H 1_555 1_555
H6J C10J 1_555 1_555
C11H C10H 1_555 1_555
C11J C10J 1_555 1_555
H7H C11H 1_555 1_555
H7J C11J 1_555 1_555
C12H C7H 1_555 1_555
C12J C7J 1_555 1_555
H8H C12H 1_555 1_555
H8J C12J 1_555 1_555
C13H O3H 1_555 1_555
C13J O3J 1_555 1_555
C14H C9H 1_555 1_555
C14J C9J 1_555 1_555
C15H C16H 1_555 1_555
C15J C16J 1_555 1_555
C16H N4 1_555 1_555
C16J N4 1_555 1_555
N2 N3 1_555 1_555
C1 C2 1_555 1_555
C5 C6 1_555 1_555
C11 C12 1_555 1_555
O4H C13H 1_555 1_555
O4J C13J 1_555 1_555
N1H N2H 1_555 1_555
N1J N2J 1_555 1_555
N2H N3H 1_555 1_555
N2J N3J 1_555 1_555
C1H C2H 1_555 1_555
C1J C2J 1_555 1_555
C5H C6H 1_555 1_555
C5J C6J 1_555 1_555
C7H C13H 1_555 1_555
C7J C13J 1_555 1_555
C11H C12H 1_555 1_555
C11J C12J 1_555 1_555

#END
