
#######################################################################
#
#                 Cambridge Crystallographic Data Centre
#                                CCDC 
#
#######################################################################
#
# If this CIF has been generated from an entry in the Cambridge 
# Structural Database, then it will include bibliographic, chemical, 
# crystal, experimental, refinement or atomic coordinate data resulting 
# from the CCDC's data processing and validation procedures.
#
#######################################################################

data_XOBWIV
_symmetry_cell_setting           monoclinic
_symmetry_space_group_name_H-M   'P 21/c'
_symmetry_Int_Tables_number      14
_space_group_name_Hall           '-P 2ybc'
loop_
_symmetry_equiv_pos_site_id
_symmetry_equiv_pos_as_xyz
1 x,y,z
2 -x,1/2+y,1/2-z
3 -x,-y,-z
4 x,1/2-y,1/2+z
_cell_length_a                   7.7335(2)
_cell_length_b                   19.3834(4)
_cell_length_c                   20.1707(4)
_cell_angle_alpha                90
_cell_angle_beta                 104.9830(10)
_cell_angle_gamma                90
_cell_volume                     2920.82
loop_
_atom_site_label
_atom_site_type_symbol
_atom_site_fract_x
_atom_site_fract_y
_atom_site_fract_z
Zn1 Zn 0.68663(3) 0.418503(13) 0.646736(14)
N1 N 0.7930(2) 0.51020(9) 0.68843(10)
N2 N 1.1714(2) 0.83270(9) 0.81363(10)
O1 O 0.6085(3) 0.38081(11) 0.41083(10)
O3 O 0.9318(3) 0.43461(10) 0.55940(11)
O4 O 0.6448(3) 0.41339(9) 0.54676(10)
O5 O 0.2269(2) 0.43480(11) 0.78249(11)
O6 O 0.4285(2) 0.42064(9) 0.64246(10)
O7 O 0.5479(2) 0.40929(8) 0.75335(9)
C1 C 0.7484(4) 0.09842(15) 0.41192(14)
H3 H 0.6593 0.0686 0.3883
C2 C 0.9105(4) 0.07276(15) 0.44378(15)
H4 H 0.9328 0.0257 0.4423
C3 C 1.0452(4) 0.11754(17) 0.47927(16)
H5 H 1.1568 0.0998 0.5015
C4 C 1.0157(4) 0.18611(16) 0.48167(14)
H6 H 1.1070 0.2148 0.5057
C5 C 0.8485(3) 0.21463(14) 0.44830(13)
C6 C 0.8168(4) 0.28648(14) 0.44866(13)
H7 H 0.9079 0.3161 0.4710
C7 C 0.6533(4) 0.31229(14) 0.41633(13)
C8 C 0.5146(4) 0.26719(16) 0.38349(15)
H8 H 0.4019 0.2850 0.3628
C9 C 0.5428(4) 0.19829(16) 0.38159(15)
H9 H 0.4500 0.1696 0.3589
C10 C 0.7107(3) 0.16977(14) 0.41356(13)
C11 C 0.7426(5) 0.42815(14) 0.44586(14)
H10 H 0.7054 0.4746 0.4308
H11 H 0.8530 0.4186 0.4332
C12 C 0.7788(5) 0.42478(12) 0.52398(15)
C13 C 0.4979(6) 0.6754(3) 0.9251(2)
H12 H 0.5060 0.6792 0.9718
C14 C 0.5522(6) 0.7286(3) 0.8904(4)
H13 H 0.5979 0.7686 0.9139
C15 C 0.5401(5) 0.7236(2) 0.8219(3)
H14 H 0.5755 0.7607 0.7992
C16 C 0.4776(4) 0.66573(17) 0.7865(2)
H15 H 0.4733 0.6633 0.7401
C17 C 0.4191(3) 0.60913(16) 0.81823(16)
C18 C 0.3520(3) 0.54879(15) 0.78139(14)
H16 H 0.3472 0.5458 0.7349
C19 C 0.2949(3) 0.49555(16) 0.81303(14)
C20 C 0.3021(4) 0.4996(2) 0.88346(18)
H17 H 0.2620 0.4629 0.9052
C21 C 0.3676(5) 0.5571(3) 0.91948(18)
H18 H 0.3726 0.5591 0.9660
C22 C 0.4280(4) 0.6136(2) 0.88826(18)
C23 C 0.2316(3) 0.42453(16) 0.71327(16)
H19 H 0.1727 0.4632 0.6860
H20 H 0.1642 0.3832 0.6960
C24 C 0.4189(3) 0.41747(12) 0.70376(14)
C25 C 0.8215(3) 0.52671(13) 0.75436(13)
H21 H 0.7951 0.4942 0.7842
C26 C 0.8882(3) 0.58969(12) 0.78059(13)
H22 H 0.9048 0.5989 0.8271
C27 C 0.9308(3) 0.63938(11) 0.73818(11)
C28 C 0.9001(3) 0.62152(12) 0.67004(13)
H23 H 0.9260 0.6530 0.6391
C29 C 0.8320(3) 0.55799(12) 0.64717(13)
H24 H 0.8123 0.5478 0.6008
C30 C 1.0486(3) 0.72439(12) 0.83332(13)
H25 H 1.0214 0.6938 0.8647
C31 C 1.1297(3) 0.78611(12) 0.85559(13)
H26 H 1.1570 0.7959 0.9023
C32 C 1.1282(3) 0.81756(13) 0.74743(13)
H27 H 1.1545 0.8496 0.7171
C33 C 1.0468(3) 0.75708(12) 0.72119(13)
H28 H 1.0181 0.7493 0.6741
C34 C 1.0072(3) 0.70753(11) 0.76427(12)
Zn1A Zn 1.31337(3) 0.918503(13) 0.853264(14)
N2A N 0.8286(2) 0.33270(9) 0.68637(10)
O2 O 0.2328(4) 0.37520(16) 0.50047(12)
H1 H 0.340(3) 0.387(3) 0.513(2)
H2 H 0.185(5) 0.387(3) 0.5320(19)
loop_
_geom_bond_atom_site_label_1
_geom_bond_atom_site_label_2
_geom_bond_site_symmetry_1
_geom_bond_site_symmetry_2
Zn1 N1 1_555 1_555
N1 C25 1_555 1_555
N2 C31 1_555 1_555
O1 C7 1_555 1_555
O2 H1 1_555 1_555
H2 O2 1_555 1_555
O3 C12 1_555 1_555
O4 Zn1 1_555 1_555
O5 C19 1_555 1_555
O6 Zn1 1_555 1_555
O7 C24 1_555 1_555
C1 H3 1_555 1_555
C2 C1 1_555 1_555
H4 C2 1_555 1_555
C3 C2 1_555 1_555
H5 C3 1_555 1_555
C4 C3 1_555 1_555
H6 C4 1_555 1_555
C5 C4 1_555 1_555
C6 C5 1_555 1_555
H7 C6 1_555 1_555
C7 C6 1_555 1_555
C8 C7 1_555 1_555
H8 C8 1_555 1_555
C9 C8 1_555 1_555
H9 C9 1_555 1_555
C10 C1 1_555 1_555
C11 O1 1_555 1_555
H10 C11 1_555 1_555
H11 C11 1_555 1_555
C12 O4 1_555 1_555
C13 H12 1_555 1_555
C14 C13 1_555 1_555
H13 C14 1_555 1_555
C15 C14 1_555 1_555
H14 C15 1_555 1_555
C16 C15 1_555 1_555
H15 C16 1_555 1_555
C17 C16 1_555 1_555
C18 C17 1_555 1_555
H16 C18 1_555 1_555
C19 C18 1_555 1_555
C20 C19 1_555 1_555
H17 C20 1_555 1_555
C21 C20 1_555 1_555
H18 C21 1_555 1_555
C22 C13 1_555 1_555
C23 O5 1_555 1_555
H19 C23 1_555 1_555
H20 C23 1_555 1_555
C24 O6 1_555 1_555
C25 H21 1_555 1_555
C26 C25 1_555 1_555
H22 C26 1_555 1_555
C27 C26 1_555 1_555
C28 C27 1_555 1_555
H23 C28 1_555 1_555
C29 N1 1_555 1_555
H24 C29 1_555 1_555
C30 H25 1_555 1_555
C31 C30 1_555 1_555
H26 C31 1_555 1_555
C32 N2 1_555 1_555
H27 C32 1_555 1_555
C33 C32 1_555 1_555
H28 C33 1_555 1_555
C34 C27 1_555 1_555
Zn1A N2 1_555 1_555
N2A Zn1 1_555 1_555
C5 C10 1_555 1_555
C9 C10 1_555 1_555
C11 C12 1_555 1_555
C17 C22 1_555 1_555
C21 C22 1_555 1_555
C23 C24 1_555 1_555
C28 C29 1_555 1_555
C30 C34 1_555 1_555
C33 C34 1_555 1_555

#END
