
#######################################################################
#
#                 Cambridge Crystallographic Data Centre
#                                CCDC 
#
#######################################################################
#
# If this CIF has been generated from an entry in the Cambridge 
# Structural Database, then it will include bibliographic, chemical, 
# crystal, experimental, refinement or atomic coordinate data resulting 
# from the CCDC's data processing and validation procedures.
#
#######################################################################

data_XOBXUI
_symmetry_cell_setting           triclinic
_symmetry_space_group_name_H-M   'P -1'
_symmetry_Int_Tables_number      2
_space_group_name_Hall           '-P 1'
loop_
_symmetry_equiv_pos_site_id
_symmetry_equiv_pos_as_xyz
1 x,y,z
2 -x,-y,-z
_cell_length_a                   7.8383(2)
_cell_length_b                   12.6610(4)
_cell_length_c                   13.1792(5)
_cell_angle_alpha                84.433(2)
_cell_angle_beta                 74.2980(10)
_cell_angle_gamma                87.4290(10)
_cell_volume                     1252.93
loop_
_atom_site_label
_atom_site_type_symbol
_atom_site_fract_x
_atom_site_fract_y
_atom_site_fract_z
Zn1 Zn 0.38659(6) 1.23232(3) 1.14095(3)
O1 O 0.5052(4) 1.2998(2) 1.2309(2)
O2 O 0.4631(5) 1.4553(2) 1.2987(3)
O3 O 0.2872(7) 1.3642(3) 1.4928(3)
O4 O 0.1521(4) 1.1954(2) 1.2364(2)
O5 O 0.0567(5) 1.1256(3) 1.1125(2)
O6 O -0.1501(4) 1.1536(2) 1.3849(2)
N1 N 0.3190(5) 1.3705(3) 1.0544(3)
N2 N 0.3722(5) 1.4741(3) 0.9031(3)
N3 N 0.5420(4) 1.2197(3) 0.9837(3)
N4 N 0.5207(4) 1.0814(3) 1.1444(3)
N5 N 0.7242(5) 0.9677(3) 1.0604(3)
C1 C 0.2156(5) 1.4622(3) 1.0715(3)
C2 C 0.0937(6) 1.4929(3) 1.1614(3)
H1 H 0.0715 1.4494 1.2263
C3 C 0.0052(5) 1.5889(3) 1.1536(3)
H2 H -0.0792 1.6124 1.2140
C4 C 0.0397(6) 1.6527(3) 1.0560(4)
H3 H -0.0239 1.7180 1.0524
C5 C 0.1601(5) 1.6239(3) 0.9675(3)
H4 H 0.1826 1.6679 0.9028
C6 C 0.2490(6) 1.5276(3) 0.9755(3)
C7 C 0.4098(5) 1.3818(3) 0.9535(3)
C8 C 0.5376(5) 1.3001(3) 0.9093(3)
C9 C 0.6443(6) 1.2984(3) 0.8064(3)
H5 H 0.6406 1.3551 0.7542
C10 C 0.7561(6) 1.2116(3) 0.7825(3)
H6 H 0.8298 1.2083 0.7125
C11 C 0.7626(6) 1.1286(3) 0.8594(3)
H7 H 0.8406 1.0693 0.8435
C12 C 0.6504(5) 1.1364(3) 0.9600(3)
C13 C 0.6349(5) 1.0605(3) 1.0536(3)
C14 C 0.6654(5) 0.9255(3) 1.1652(3)
C15 C 0.7117(6) 0.8334(3) 1.2196(3)
H8 H 0.7995 0.7849 1.1853
C16 C 0.6235(6) 0.8161(4) 1.3258(3)
H9 H 0.6506 0.7538 1.3653
C17 C 0.4962(6) 0.8877(4) 1.3760(4)
H10 H 0.4388 0.8730 1.4490
C18 C 0.4504(5) 0.9796(3) 1.3228(3)
H11 H 0.3636 1.0283 1.3577
C19 C 0.5383(5) 0.9973(3) 1.2152(3)
C20 C 0.4464(6) 1.3593(3) 1.3052(3)
C21 C 0.3510(9) 1.2993(4) 1.4087(4)
H12 H 0.2499 1.2621 1.3978
H13 H 0.4331 1.2448 1.4290
C22 C 0.1442(10) 1.4305(4) 1.4913(4)
C23 C 0.0080(9) 1.4095(4) 1.4474(4)
H14 H 0.0134 1.3473 1.4116
C24 C 0.1346(10) 1.5211(4) 1.5443(4)
H15 H 0.2268 1.5353 1.5750
C25 C 0.0392(6) 1.1541(3) 1.2012(3)
C26 C -0.1453(5) 1.1396(4) 1.2781(3)
H16 H -0.2288 1.1913 1.2550
H17 H -0.1864 1.0675 1.2749
C27 C -0.0728(5) 1.0747(3) 1.4383(3)
C28 C -0.0132(6) 1.1051(4) 1.5203(3)
H18 H -0.0217 1.1777 1.5341
C29 C -0.0590(6) 0.9684(3) 1.4171(3)
H19 H -0.0985 0.9466 1.3605
H20 H 0.796(4) 0.942(3) 1.007(2)
H21 H 0.419(6) 1.496(4) 0.8379(14)
Zn1A Zn -0.38659(6) 1.76768(3) 1.85905(3)
Zn1A_2 Zn -0.38659(6) 0.76768(3) 1.85905(3)
O1A O -0.5052(4) 1.7002(2) 1.7691(2)
O2A O -0.4631(5) 1.5447(2) 1.7013(3)
O3A O -0.2872(7) 1.6358(3) 1.5072(3)
O4A O -0.1521(4) 0.8046(2) 1.7636(2)
O4A_2 O -0.1521(4) 1.8046(2) 1.7636(2)
O5A O -0.0567(5) 0.8744(3) 1.8875(2)
O6A O 0.1501(4) 0.8464(2) 1.6151(2)
N1A N -0.3190(5) 1.6295(3) 1.9456(3)
N2A N -0.3722(5) 1.5259(3) 2.0969(3)
N3A N -0.5420(4) 1.7803(3) 2.0163(3)
N4A N -0.5207(4) 1.9186(3) 1.8556(3)
N5A N -0.7242(5) 2.0323(3) 1.9396(3)
C1A C -0.2156(5) 1.5378(3) 1.9285(3)
C2A C -0.0937(6) 1.5071(3) 1.8386(3)
H1A H -0.0715 1.5506 1.7737
C3A C -0.0052(5) 1.4111(3) 1.8464(3)
H2A H 0.0792 1.3876 1.7860
C4A C -0.0397(6) 1.3473(3) 1.9440(4)
H3A H 0.0239 1.2820 1.9476
C5A C -0.1601(5) 1.3761(3) 2.0325(3)
H4A H -0.1826 1.3321 2.0972
C6A C -0.2490(6) 1.4724(3) 2.0245(3)
C7A C -0.4098(5) 1.6182(3) 2.0465(3)
C8A C -0.5376(5) 1.6999(3) 2.0907(3)
C9A C -0.6443(6) 1.7016(3) 2.1936(3)
H5A H -0.6406 1.6449 2.2458
C10A C -0.7561(6) 1.7884(3) 2.2175(3)
H6A H -0.8298 1.7917 2.2875
C11A C -0.7626(6) 1.8714(3) 2.1406(3)
H7A H -0.8406 1.9307 2.1565
C12A C -0.6504(5) 1.8636(3) 2.0400(3)
C13A C -0.6349(5) 1.9395(3) 1.9464(3)
C14A C -0.6654(5) 2.0745(3) 1.8348(3)
C15A C -0.7117(6) 2.1666(3) 1.7804(3)
H8A H -0.7995 2.2151 1.8147
C16A C -0.6235(6) 2.1839(4) 1.6742(3)
H9A H -0.6506 2.2462 1.6347
C17A C -0.4962(6) 2.1123(4) 1.6240(4)
H10A H -0.4388 2.1270 1.5510
C18A C -0.4504(5) 2.0204(3) 1.6772(3)
H11A H -0.3636 1.9717 1.6423
C19A C -0.5383(5) 2.0027(3) 1.7848(3)
C20A C -0.4464(6) 1.6407(3) 1.6948(3)
C21A C -0.3510(9) 1.7007(4) 1.5913(4)
H12A H -0.2499 1.7379 1.6022
H13A H -0.4331 1.7552 1.5710
C22A C -0.1442(10) 1.5695(4) 1.5087(4)
C23A C -0.0080(9) 1.5905(4) 1.5526(4)
H14A H -0.0134 1.6527 1.5884
C24A C -0.1346(10) 1.4789(4) 1.4557(4)
H15A H -0.2268 1.4647 1.4250
C25A C -0.0392(6) 0.8459(3) 1.7988(3)
C26A C 0.1453(5) 0.8604(4) 1.7219(3)
H16A H 0.2288 0.8087 1.7450
H17A H 0.1864 0.9325 1.7251
C27A C 0.0728(5) 0.9253(3) 1.5617(3)
C28A C 0.0132(6) 0.8949(4) 1.4797(3)
H18A H 0.0217 0.8223 1.4659
C29A C 0.0590(6) 1.0316(3) 1.5829(3)
H19A H 0.0985 1.0534 1.6395
H20A H -0.796(4) 2.058(3) 1.993(2)
H21A H -0.419(6) 1.504(4) 2.1621(14)
loop_
_geom_bond_atom_site_label_1
_geom_bond_atom_site_label_2
_geom_bond_site_symmetry_1
_geom_bond_site_symmetry_2
Zn1 O1 1_555 1_555
O1 C20 1_555 1_555
O2 C20 1_555 1_555
O3 C21 1_555 1_555
O4 Zn1 1_555 1_555
O5 C25 1_555 1_555
O6 C26 1_555 1_555
N1 Zn1 1_555 1_555
N2 C6 1_555 1_555
N3 Zn1 1_555 1_555
N4 Zn1 1_555 1_555
N5 C13 1_555 1_555
C1 N1 1_555 1_555
C2 C1 1_555 1_555
H1 C2 1_555 1_555
C3 C2 1_555 1_555
H2 C3 1_555 1_555
C4 C3 1_555 1_555
H3 C4 1_555 1_555
C5 C4 1_555 1_555
H4 C5 1_555 1_555
C6 C1 1_555 1_555
C7 N1 1_555 1_555
C8 N3 1_555 1_555
C9 C8 1_555 1_555
H5 C9 1_555 1_555
C10 C9 1_555 1_555
H6 C10 1_555 1_555
C11 C10 1_555 1_555
H7 C11 1_555 1_555
C12 N3 1_555 1_555
C13 N4 1_555 1_555
C14 N5 1_555 1_555
C15 C14 1_555 1_555
H8 C15 1_555 1_555
C16 C15 1_555 1_555
H9 C16 1_555 1_555
C17 C16 1_555 1_555
H10 C17 1_555 1_555
C18 C17 1_555 1_555
H11 C18 1_555 1_555
C19 N4 1_555 1_555
C20 C21 1_555 1_555
C21 H12 1_555 1_555
H13 C21 1_555 1_555
C22 O3 1_555 1_555
C23 C22 1_555 1_555
H14 C23 1_555 1_555
C24 C22 1_555 1_555
H15 C24 1_555 1_555
C25 O4 1_555 1_555
C26 C25 1_555 1_555
H16 C26 1_555 1_555
H17 C26 1_555 1_555
C27 O6 1_555 1_555
C28 C27 1_555 1_555
H18 C28 1_555 1_555
C29 C27 1_555 1_555
H19 C29 1_555 1_555
H20 N5 1_555 1_555
H21 N2 1_555 1_555
Zn1A O1A 1_555 1_555
Zn1A_2 O4A 1_555 1_555
O1A C20A 1_555 1_555
O2A C20A 1_555 1_555
O3A C21A 1_555 1_555
O4A C25A 1_555 1_555
O4A_2 Zn1A 1_555 1_555
O5A C25A 1_555 1_555
O6A C26A 1_555 1_555
N1A Zn1A 1_555 1_555
N2A C6A 1_555 1_555
N3A Zn1A 1_555 1_555
N4A Zn1A 1_555 1_555
N5A C13A 1_555 1_555
C1A N1A 1_555 1_555
C2A C1A 1_555 1_555
H1A C2A 1_555 1_555
C3A C2A 1_555 1_555
H2A C3A 1_555 1_555
C4A C3A 1_555 1_555
H3A C4A 1_555 1_555
C5A C4A 1_555 1_555
H4A C5A 1_555 1_555
C6A C1A 1_555 1_555
C7A N1A 1_555 1_555
C8A N3A 1_555 1_555
C9A C8A 1_555 1_555
H5A C9A 1_555 1_555
C10A C9A 1_555 1_555
H6A C10A 1_555 1_555
C11A C10A 1_555 1_555
H7A C11A 1_555 1_555
C12A N3A 1_555 1_555
C13A N4A 1_555 1_555
C14A N5A 1_555 1_555
C15A C14A 1_555 1_555
H8A C15A 1_555 1_555
C16A C15A 1_555 1_555
H9A C16A 1_555 1_555
C17A C16A 1_555 1_555
H10A C17A 1_555 1_555
C18A C17A 1_555 1_555
H11A C18A 1_555 1_555
C19A N4A 1_555 1_555
C20A C21A 1_555 1_555
C21A H12A 1_555 1_555
H13A C21A 1_555 1_555
C22A O3A 1_555 1_555
C23A C24 1_555 1_555
H14A C23A 1_555 1_555
C24A C23 1_555 1_555
H15A C24A 1_555 1_555
C25A C26A 1_555 1_555
C26A H16A 1_555 1_555
H17A C26A 1_555 1_555
C27A O6A 1_555 1_555
C28A C29 1_555 1_555
H18A C28A 1_555 1_555
C29A C28 1_555 1_555
H19A C29A 1_555 1_555
H20A N5A 1_555 1_555
H21A N2A 1_555 1_555
N2 C7 1_555 1_555
C5 C6 1_555 1_555
C7 C8 1_555 1_555
C11 C12 1_555 1_555
C12 C13 1_555 1_555
C14 C19 1_555 1_555
C18 C19 1_555 1_555
N2A C7A 1_555 1_555
C5A C6A 1_555 1_555
C7A C8A 1_555 1_555
C11A C12A 1_555 1_555
C12A C13A 1_555 1_555
C14A C19A 1_555 1_555
C18A C19A 1_555 1_555
C22A C23A 1_555 1_555
C22A C24A 1_555 1_555
C27A C28A 1_555 1_555
C27A C29A 1_555 1_555

#END
