
#######################################################################
#
#                 Cambridge Crystallographic Data Centre
#                                CCDC 
#
#######################################################################
#
# If this CIF has been generated from an entry in the Cambridge 
# Structural Database, then it will include bibliographic, chemical, 
# crystal, experimental, refinement or atomic coordinate data resulting 
# from the CCDC's data processing and validation procedures.
#
#######################################################################

data_XOBXAN
_symmetry_cell_setting           monoclinic
_symmetry_space_group_name_H-M   'C 2/c'
_symmetry_Int_Tables_number      15
_space_group_name_Hall           '-C 2yn'
loop_
_symmetry_equiv_pos_site_id
_symmetry_equiv_pos_as_xyz
1 x,y,z
2 1/2+x,1/2+y,z
3 x,-y,1/2+z
4 1/2+x,1/2-y,1/2+z
5 -x,-y,-z
6 1/2-x,1/2-y,-z
7 -x,y,1/2-z
8 1/2-x,1/2+y,1/2-z
_cell_length_a                   30.718(6)
_cell_length_b                   11.036(2)
_cell_length_c                   19.606(4)
_cell_angle_alpha                90.00
_cell_angle_beta                 118.90(3)
_cell_angle_gamma                90.00
_cell_volume                     5818.78
loop_
_atom_site_label
_atom_site_type_symbol
_atom_site_fract_x
_atom_site_fract_y
_atom_site_fract_z
Ni1 Ni 0.57956(3) 0.32913(8) 0.95459(5)
S1 S 0.64194(6) 0.22948(16) 0.92487(11)
S2 S 0.62403(6) 0.51252(17) 0.95137(11)
S3 S 0.53882(7) 0.14236(17) 0.96354(11)
S4 S 0.63077(7) 0.29506(18) 1.09970(11)
P1 P 0.67428(6) 0.39257(17) 0.95492(11)
P2 P 0.59617(8) 0.13579(18) 1.07290(11)
N1 N 0.52909(18) 0.3380(5) 0.8305(3)
N2 N 0.53027(18) 0.4353(5) 0.9785(3)
C1 C 0.5146(2) 0.4383(6) 0.7894(4)
H1 H 0.5248 0.5122 0.8151
C2 C 0.5143(3) 0.2379(6) 0.7892(4)
H2 H 0.5239 0.1639 0.8150
C3 C 0.5482(2) 0.5233(6) 1.0320(4)
H3 H 0.5818 0.5431 1.0550
C4 C 0.4818(2) 0.4154(6) 0.9467(4)
H4 H 0.4676 0.3569 0.9079
C5 C 0.7266(2) 0.3856(7) 1.0524(4)
H5 H 0.7188 0.3251 1.0808
H6 H 0.7548 0.3552 1.0481
C6 C 0.7437(3) 0.4978(9) 1.1025(5)
H7 H 0.7147 0.5305 1.1048
C7 C 0.7622(4) 0.5939(10) 1.0713(7)
H8 H 0.7375 0.6120 1.0188
H9 H 0.7921 0.5671 1.0720
H10 H 0.7690 0.6653 1.1029
C8 C 0.7822(3) 0.4649(11) 1.1853(6)
H11 H 0.7685 0.4054 1.2054
H12 H 0.7911 0.5361 1.2174
H13 H 0.8112 0.4325 1.1854
C9 C 0.7021(3) 0.4368(7) 0.8947(5)
H14 H 0.7113 0.5215 0.9051
H15 H 0.7327 0.3911 0.9126
C10 C 0.6741(4) 0.4225(15) 0.8118(7)
H16 H 0.6728 0.3338 0.8092
C11 C 0.7046(5) 0.444(2) 0.7738(7)
H17 H 0.7389 0.4275 0.8100
H18 H 0.7012 0.5269 0.7572
H19 H 0.6937 0.3916 0.7294
C12 C 0.6267(5) 0.446(2) 0.7615(8)
H20 H 0.6203 0.4277 0.7097
H21 H 0.6202 0.5307 0.7646
H22 H 0.6056 0.3981 0.7740
C13 C 0.5777(4) 0.0902(10) 1.1428(6)
H23 H 0.5458 0.0507 1.1127
H24 H 0.6008 0.0266 1.1730
C14 C 0.5726(6) 0.1601(14) 1.1960(9)
H25 H 0.6023 0.2111 1.2220
C15 C 0.5685(5) 0.093(2) 1.2552(8)
H26 H 0.5664 0.1478 1.2915
H27 H 0.5972 0.0417 1.2823
H28 H 0.5391 0.0434 1.2316
C16 C 0.5320(12) 0.2362(19) 1.157(2)
H29 H 0.5296 0.2890 1.1945
H30 H 0.5022 0.1887 1.1314
H31 H 0.5361 0.2837 1.1199
C17 C 0.6416(3) 0.0223(8) 1.0799(5)
H32 H 0.6570 0.0510 1.0498
H33 H 0.6674 0.0179 1.1338
C18 C 0.6232(4) -0.1017(11) 1.0536(8)
H34 H 0.5926 -0.1118 1.0571
C19 C 0.6126(13) -0.1375(16) 0.9783(10)
H35 H 0.5856 -0.0899 0.9404
H36 H 0.6036 -0.2216 0.9709
H37 H 0.6415 -0.1253 0.9722
C20 C 0.6549(14) -0.1862(14) 1.0980(11)
H38 H 0.6738 -0.1563 1.1503
H39 H 0.6770 -0.2062 1.0780
H40 H 0.6369 -0.2573 1.0980
C1F C 0.4854(2) 0.4383(6) 0.7106(4)
N1F N 0.47091(18) 0.3380(5) 0.6695(3)
C2F C 0.4857(3) 0.2379(6) 0.7108(4)
H2F H 0.4761 0.1639 0.6850
H1F H 0.4752 0.5122 0.6849
C4D C 0.5182(2) 0.5846(6) 1.0533(4)
N2D N 0.46973(18) 0.5647(5) 1.0215(3)
C3D C 0.4518(2) 0.4767(6) 0.9680(4)
H3D H 0.4182 0.4569 0.9450
H4D H 0.5324 0.6431 1.0921
Ni1F Ni 0.42044(3) 0.32913(8) 0.54541(5)
S1F S 0.35806(6) 0.22948(16) 0.57513(11)
S2F S 0.37597(6) 0.51252(17) 0.54863(11)
P1F P 0.32572(6) 0.39257(17) 0.54508(11)
C5F C 0.2734(2) 0.3856(7) 0.4476(4)
H5F H 0.2812 0.3251 0.4192
H6F H 0.2452 0.3552 0.4519
C6F C 0.2563(3) 0.4978(9) 0.3975(5)
H7F H 0.2853 0.5305 0.3952
C7F C 0.2378(4) 0.5939(10) 0.4287(7)
H8F H 0.2625 0.6120 0.4812
H9F H 0.2079 0.5671 0.4280
H10F H 0.2310 0.6653 0.3971
C8F C 0.2178(3) 0.4649(11) 0.3147(6)
H11F H 0.2315 0.4054 0.2946
H12F H 0.2089 0.5361 0.2826
H13F H 0.1888 0.4325 0.3146
C9F C 0.2979(3) 0.4368(7) 0.6053(5)
H14F H 0.2887 0.5215 0.5949
H15F H 0.2673 0.3911 0.5874
C10F C 0.3259(4) 0.4225(15) 0.6882(7)
H16F H 0.3272 0.3338 0.6908
C11F C 0.2954(5) 0.444(2) 0.7262(7)
H17F H 0.2611 0.4275 0.6900
H18F H 0.2988 0.5269 0.7428
H19F H 0.3063 0.3916 0.7706
C12F C 0.3733(5) 0.446(2) 0.7385(8)
H20F H 0.3797 0.4277 0.7903
H21F H 0.3798 0.5307 0.7354
H22F H 0.3944 0.3981 0.7260
S3F S 0.46118(7) 0.14236(17) 0.53646(11)
S4F S 0.36923(7) 0.29506(18) 0.40030(11)
P2F P 0.40383(8) 0.13579(18) 0.42710(11)
C13F C 0.4223(4) 0.0902(10) 0.3572(6)
H23F H 0.4542 0.0507 0.3873
H24F H 0.3992 0.0266 0.3270
C14F C 0.4274(6) 0.1601(14) 0.3040(9)
H25F H 0.3977 0.2111 0.2780
C15F C 0.4315(5) 0.093(2) 0.2448(8)
H26F H 0.4336 0.1478 0.2085
H27F H 0.4028 0.0417 0.2177
H28F H 0.4609 0.0434 0.2684
C16F C 0.4680(12) 0.2362(19) 0.343(2)
H29F H 0.4704 0.2890 0.3055
H30F H 0.4978 0.1887 0.3686
H31F H 0.4639 0.2837 0.3801
C17F C 0.3584(3) 0.0223(8) 0.4201(5)
H32F H 0.3430 0.0510 0.4502
H33F H 0.3326 0.0179 0.3662
C18F C 0.3768(4) -0.1017(11) 0.4464(8)
H34F H 0.4074 -0.1118 0.4429
C19F C 0.3874(13) -0.1375(16) 0.5217(10)
H35F H 0.4144 -0.0899 0.5596
H36F H 0.3964 -0.2216 0.5291
H37F H 0.3585 -0.1253 0.5278
C20F C 0.3451(14) -0.1862(14) 0.4020(11)
H38F H 0.3262 -0.1563 0.3497
H39F H 0.3230 -0.2062 0.4220
H40F H 0.3631 -0.2573 0.4020
Ni1D Ni 0.42044(3) 0.67087(8) 1.04541(5)
N2F N 0.46973(18) 0.4353(5) 0.5215(3)
loop_
_geom_bond_atom_site_label_1
_geom_bond_atom_site_label_2
_geom_bond_site_symmetry_1
_geom_bond_site_symmetry_2
Ni1 S1 1_555 1_555
S1 P1 1_555 1_555
S2 Ni1 1_555 1_555
S3 Ni1 1_555 1_555
S4 Ni1 1_555 1_555
P1 S2 1_555 1_555
P2 S3 1_555 1_555
N1 Ni1 1_555 1_555
N2 Ni1 1_555 1_555
C1 N1 1_555 1_555
H1 C1 1_555 1_555
C2 N1 1_555 1_555
H2 C2 1_555 1_555
C3 N2 1_555 1_555
H3 C3 1_555 1_555
C4 N2 1_555 1_555
H4 C4 1_555 1_555
C5 P1 1_555 1_555
H5 C5 1_555 1_555
H6 C5 1_555 1_555
C6 C5 1_555 1_555
H7 C6 1_555 1_555
C7 C6 1_555 1_555
H8 C7 1_555 1_555
H9 C7 1_555 1_555
H10 C7 1_555 1_555
C8 C6 1_555 1_555
H11 C8 1_555 1_555
H12 C8 1_555 1_555
H13 C8 1_555 1_555
C9 P1 1_555 1_555
H14 C9 1_555 1_555
H15 C9 1_555 1_555
C10 C9 1_555 1_555
H16 C10 1_555 1_555
C11 C10 1_555 1_555
H17 C11 1_555 1_555
H18 C11 1_555 1_555
H19 C11 1_555 1_555
C12 C10 1_555 1_555
H20 C12 1_555 1_555
H21 C12 1_555 1_555
H22 C12 1_555 1_555
C13 P2 1_555 1_555
H23 C13 1_555 1_555
H24 C13 1_555 1_555
C14 C13 1_555 1_555
H25 C14 1_555 1_555
C15 C14 1_555 1_555
H26 C15 1_555 1_555
H27 C15 1_555 1_555
H28 C15 1_555 1_555
C16 C14 1_555 1_555
H29 C16 1_555 1_555
H30 C16 1_555 1_555
H31 C16 1_555 1_555
C17 P2 1_555 1_555
H32 C17 1_555 1_555
H33 C17 1_555 1_555
C18 C17 1_555 1_555
H34 C18 1_555 1_555
C19 C18 1_555 1_555
H35 C19 1_555 1_555
H36 C19 1_555 1_555
H37 C19 1_555 1_555
C20 C18 1_555 1_555
H38 C20 1_555 1_555
H39 C20 1_555 1_555
H40 C20 1_555 1_555
C1F C1 1_555 1_555
N1F C1F 1_555 1_555
C2F C2 1_555 1_555
H2F C2F 1_555 1_555
H1F C1F 1_555 1_555
C4D C3 1_555 1_555
N2D C4D 1_555 1_555
C3D C4 1_555 1_555
H3D C3D 1_555 1_555
H4D C4D 1_555 1_555
Ni1F N1F 1_555 1_555
S1F Ni1F 1_555 1_555
S2F Ni1F 1_555 1_555
P1F S1F 1_555 1_555
C5F P1F 1_555 1_555
H5F C5F 1_555 1_555
H6F C5F 1_555 1_555
C6F C5F 1_555 1_555
H7F C6F 1_555 1_555
C7F C6F 1_555 1_555
H8F C7F 1_555 1_555
H9F C7F 1_555 1_555
H10F C7F 1_555 1_555
C8F C6F 1_555 1_555
H11F C8F 1_555 1_555
H12F C8F 1_555 1_555
H13F C8F 1_555 1_555
C9F P1F 1_555 1_555
H14F C9F 1_555 1_555
H15F C9F 1_555 1_555
C10F C9F 1_555 1_555
H16F C10F 1_555 1_555
C11F C10F 1_555 1_555
H17F C11F 1_555 1_555
H18F C11F 1_555 1_555
H19F C11F 1_555 1_555
C12F C10F 1_555 1_555
H20F C12F 1_555 1_555
H21F C12F 1_555 1_555
H22F C12F 1_555 1_555
S3F Ni1F 1_555 1_555
S4F Ni1F 1_555 1_555
P2F S3F 1_555 1_555
C13F P2F 1_555 1_555
H23F C13F 1_555 1_555
H24F C13F 1_555 1_555
C14F C13F 1_555 1_555
H25F C14F 1_555 1_555
C15F C14F 1_555 1_555
H26F C15F 1_555 1_555
H27F C15F 1_555 1_555
H28F C15F 1_555 1_555
C16F C14F 1_555 1_555
H29F C16F 1_555 1_555
H30F C16F 1_555 1_555
H31F C16F 1_555 1_555
C17F P2F 1_555 1_555
H32F C17F 1_555 1_555
H33F C17F 1_555 1_555
C18F C17F 1_555 1_555
H34F C18F 1_555 1_555
C19F C18F 1_555 1_555
H35F C19F 1_555 1_555
H36F C19F 1_555 1_555
H37F C19F 1_555 1_555
C20F C18F 1_555 1_555
H38F C20F 1_555 1_555
H39F C20F 1_555 1_555
H40F C20F 1_555 1_555
Ni1D N2D 1_555 1_555
N2F Ni1F 1_555 1_555
S4 P2 1_555 1_555
N1F C2F 1_555 1_555
N2D C3D 1_555 1_555
S2F P1F 1_555 1_555
S4F P2F 1_555 1_555

#END
