
#######################################################################
#
#                 Cambridge Crystallographic Data Centre
#                                CCDC 
#
#######################################################################
#
# If this CIF has been generated from an entry in the Cambridge 
# Structural Database, then it will include bibliographic, chemical, 
# crystal, experimental, refinement or atomic coordinate data resulting 
# from the CCDC's data processing and validation procedures.
#
#######################################################################

data_XOBYIY
_symmetry_cell_setting           monoclinic
_symmetry_space_group_name_H-M   'P 21/n'
_symmetry_Int_Tables_number      14
_space_group_name_Hall           '-P 2yn'
loop_
_symmetry_equiv_pos_site_id
_symmetry_equiv_pos_as_xyz
1 x,y,z
2 1/2-x,1/2+y,1/2-z
3 -x,-y,-z
4 1/2+x,1/2-y,1/2+z
_cell_length_a                   11.3291(5)
_cell_length_b                   17.6383(8)
_cell_length_c                   13.7134(7)
_cell_angle_alpha                90
_cell_angle_beta                 109.909(2)
_cell_angle_gamma                90
_cell_volume                     2576.52
loop_
_atom_site_label
_atom_site_type_symbol
_atom_site_fract_x
_atom_site_fract_y
_atom_site_fract_z
P1 P 0.77897(3) 1.179374(16) 0.01780(2)
Na1 Na 0.74894(4) 0.93537(2) 0.25943(3)
O1 O 0.84481(8) 1.01570(4) 0.02929(6)
O2 O 0.89897(7) 1.00149(4) 0.20213(6)
O3 O 0.82811(7) 1.16549(4) 0.38277(6)
O4 O 0.74315(8) 1.05356(4) 0.31910(6)
O5 O 0.57797(7) 1.22316(4) 0.26274(6)
O6 O 0.70776(8) 1.32312(4) 0.29954(6)
O7 O 0.66681(8) 1.32781(5) -0.06265(6)
O8 O 0.63937(8) 1.37354(5) 0.08149(6)
C1 C 0.80479(10) 1.11763(6) 0.12263(8)
C2 C 0.77333(10) 1.15057(6) 0.20479(8)
C3 C 0.72735(10) 1.22458(6) 0.18210(8)
C4 C 0.72384(10) 1.24903(6) 0.08293(8)
C5 C 0.85415(10) 1.04061(6) 0.12498(8)
C6 C 0.88844(11) 0.93877(6) 0.02439(9)
C7 C 0.84845(13) 0.91693(8) -0.08858(10)
C8 C 0.77969(10) 1.11586(6) 0.30496(8)
C9 C 0.82317(12) 1.14331(7) 0.48345(9)
C10 C 0.85471(13) 1.21264(8) 0.55141(10)
C11 C 0.67306(10) 1.26417(6) 0.25335(8)
C12 C 0.67378(10) 1.32243(6) 0.03778(9)
C13 C 0.51573(11) 1.25248(7) 0.33174(9)
C14 C 0.40801(12) 1.19972(8) 0.32166(11)
C15 C 0.60980(12) 1.39617(7) -0.11842(10)
C16 C 0.70528(13) 1.45736(8) -0.10787(12)
O9 O 0.56538(8) 0.89880(5) 0.29196(7)
O10 O 0.37001(10) 0.83341(8) 0.34725(10)
O11 O 0.58906(7) 0.97069(5) 0.09230(6)
C17 C 0.50072(14) 0.94076(9) 0.34650(11)
C18 C 0.45407(17) 0.88794(11) 0.41098(13)
H1 H 0.5262 0.8616 0.4617
H2 H 0.4105 0.9174 0.4500
C19 C 0.43177(14) 0.79155(9) 0.28947(13)
C20 C 0.48272(13) 0.84363(8) 0.22657(11)
C21 C 0.54420(11) 0.92627(7) -0.00071(9)
C22 C 0.49314(11) 1.02292(7) 0.09508(9)
H3 H 0.8532(13) 0.9067(8) 0.0641(11)
H4 H 0.9802(14) 0.9374(8) 0.0568(11)
H5 H 0.8821(16) 0.9518(10) -0.1263(13)
H6 H 0.7577(16) 0.9178(9) -0.1193(12)
H7 H 0.8794(15) 0.8661(9) -0.0934(12)
H8 H 0.7400(15) 1.1277(9) 0.4731(11)
H9 H 0.8830(13) 1.1020(8) 0.5095(11)
H10 H 0.9396(15) 1.2307(9) 0.5589(12)
H11 H 0.7948(15) 1.2527(10) 0.5240(12)
H12 H 0.8523(16) 1.1977(10) 0.6187(14)
H13 H 0.5763(13) 1.2536(8) 0.4023(11)
H14 H 0.4883(14) 1.3038(9) 0.3114(12)
H15 H 0.4401(15) 1.1499(10) 0.3405(13)
H16 H 0.3479(15) 1.2005(9) 0.2508(13)
H17 H 0.3666(16) 1.2151(9) 0.3658(13)
H18 H 0.5724(14) 1.3797(9) -0.1919(12)
H19 H 0.5441(14) 1.4135(8) -0.0913(11)
H20 H 0.7414(16) 1.4743(10) -0.0353(14)
H21 H 0.6634(16) 1.5001(10) -0.1534(13)
H22 H 0.7729(17) 1.4392(10) -0.1310(13)
H23 H 0.5587(17) 0.9777(10) 0.3896(13)
H24 H 0.4292(16) 0.9685(10) 0.2954(13)
H25 H 0.5038(16) 0.7599(10) 0.3375(13)
H26 H 0.3664(18) 0.7568(11) 0.2430(14)
H27 H 0.5300(16) 0.8142(10) 0.1926(14)
H28 H 0.4089(16) 0.8691(9) 0.1729(13)
H29 H 0.6132(14) 0.8932(8) 0.0008(11)
H30 H 0.4732(13) 0.8953(8) 0.0001(11)
H31 H 0.5262(14) 1.0522(9) 0.1570(12)
H32 H 0.4189(14) 0.9937(8) 0.0964(11)
O11B O 0.41094(7) 1.02931(5) -0.09230(6)
C21B C 0.45580(11) 1.07373(7) 0.00071(9)
C22B C 0.50686(11) 0.97708(7) -0.09508(9)
H29B H 0.3868(14) 1.1068(8) -0.0008(11)
H30B H 0.5268(13) 1.1047(8) -0.0001(11)
H31B H 0.4738(14) 0.9478(9) -0.1570(12)
H32B H 0.5811(14) 1.0063(8) -0.0964(11)
P1B P 0.22103(3) 0.820626(16) -0.01780(2)
Na1B Na 0.25106(4) 1.06463(2) -0.25943(3)
O1B O 0.15519(8) 0.98430(4) -0.02929(6)
O2B O 0.10103(7) 0.99851(4) -0.20213(6)
O3B O 0.17189(7) 0.83451(4) -0.38277(6)
O4B O 0.25685(8) 0.94644(4) -0.31910(6)
O5B O 0.42203(7) 0.77684(4) -0.26274(6)
O6B O 0.29224(8) 0.67688(4) -0.29954(6)
O7B O 0.33319(8) 0.67219(5) 0.06265(6)
O8B O 0.36063(8) 0.62646(5) -0.08149(6)
C1B C 0.19521(10) 0.88237(6) -0.12263(8)
C2B C 0.22667(10) 0.84943(6) -0.20479(8)
C3B C 0.27265(10) 0.77542(6) -0.18210(8)
C4B C 0.27616(10) 0.75097(6) -0.08293(8)
C5B C 0.14585(10) 0.95939(6) -0.12498(8)
C6B C 0.11156(11) 1.06123(6) -0.02439(9)
C7B C 0.15155(13) 1.08307(8) 0.08858(10)
C8B C 0.22031(10) 0.88414(6) -0.30496(8)
C9B C 0.17683(12) 0.85669(7) -0.48345(9)
C10B C 0.14529(13) 0.78736(8) -0.55141(10)
C11B C 0.32694(10) 0.73583(6) -0.25335(8)
C12B C 0.32622(10) 0.67757(6) -0.03778(9)
C13B C 0.48427(11) 0.74752(7) -0.33174(9)
C14B C 0.59199(12) 0.80028(8) -0.32166(11)
C15B C 0.39020(12) 0.60383(7) 0.11842(10)
C16B C 0.29472(13) 0.54264(8) 0.10787(12)
O9B O 0.43462(8) 1.10120(5) -0.29196(7)
O10B O 0.62999(10) 1.16659(8) -0.34725(10)
C17B C 0.49928(14) 1.05924(9) -0.34650(11)
C18B C 0.54593(17) 1.11206(11) -0.41098(13)
H1B H 0.4738 1.1384 -0.4617
H2B H 0.5895 1.0826 -0.4500
C19B C 0.56823(14) 1.20845(9) -0.28947(13)
C20B C 0.51728(13) 1.15637(8) -0.22657(11)
H3B H 0.1468(13) 1.0933(8) -0.0641(11)
H4B H 0.0198(14) 1.0626(8) -0.0568(11)
H5B H 0.1179(16) 1.0482(10) 0.1263(13)
H6B H 0.2423(16) 1.0822(9) 0.1193(12)
H7B H 0.1206(15) 1.1339(9) 0.0934(12)
H8B H 0.2600(15) 0.8723(9) -0.4731(11)
H9B H 0.1170(13) 0.8980(8) -0.5095(11)
H10B H 0.0604(15) 0.7693(9) -0.5589(12)
H11B H 0.2052(15) 0.7473(10) -0.5240(12)
H12B H 0.1477(16) 0.8023(10) -0.6187(14)
H13B H 0.4237(13) 0.7464(8) -0.4023(11)
H14B H 0.5117(14) 0.6962(9) -0.3114(12)
H15B H 0.5599(15) 0.8501(10) -0.3405(13)
H16B H 0.6521(15) 0.7995(9) -0.2508(13)
H17B H 0.6334(16) 0.7849(9) -0.3658(13)
H18B H 0.4276(14) 0.6203(9) 0.1919(12)
H19B H 0.4559(14) 0.5865(8) 0.0913(11)
H20B H 0.2586(16) 0.5257(10) 0.0353(14)
H21B H 0.3366(16) 0.4999(10) 0.1534(13)
H22B H 0.2271(17) 0.5608(10) 0.1310(13)
H23B H 0.4413(17) 1.0223(10) -0.3896(13)
H24B H 0.5708(16) 1.0315(10) -0.2954(13)
H25B H 0.4962(16) 1.2401(10) -0.3375(13)
H26B H 0.6336(18) 1.2432(11) -0.2430(14)
H27B H 0.4700(16) 1.1858(10) -0.1926(14)
H28B H 0.5911(16) 1.1309(9) -0.1729(13)
Na1A Na 0.75106(4) 1.43537(2) 0.24057(3)
Na1C Na 0.24894(4) 0.56463(2) -0.24057(3)
O6A O 0.79224(8) 0.82312(4) 0.20046(6)
O6C O 0.20776(8) 1.17688(4) -0.20046(6)
O8A O 0.86063(8) 0.87354(5) 0.41851(6)
O8C O 0.13937(8) 1.12646(5) -0.41851(6)
loop_
_geom_bond_atom_site_label_1
_geom_bond_atom_site_label_2
_geom_bond_site_symmetry_1
_geom_bond_site_symmetry_2
P1 C1 1_555 1_555
Na1 O2 1_555 1_555
O1 C5 1_555 1_555
O2 C5 1_555 1_555
O3 C8 1_555 1_555
O4 Na1 1_555 1_555
O5 C11 1_555 1_555
O6 C11 1_555 1_555
O7 C12 1_555 1_555
O8 C12 1_555 1_555
C1 C2 1_555 1_555
C2 C3 1_555 1_555
C3 C4 1_555 1_555
C4 P1 1_555 1_555
C5 C1 1_555 1_555
C6 O1 1_555 1_555
C7 C6 1_555 1_555
C8 O4 1_555 1_555
C9 O3 1_555 1_555
C10 C9 1_555 1_555
C11 C3 1_555 1_555
C12 C4 1_555 1_555
C13 O5 1_555 1_555
C14 C13 1_555 1_555
C15 O7 1_555 1_555
C16 C15 1_555 1_555
O9 Na1 1_555 1_555
O10 C18 1_555 1_555
O11 Na1 1_555 1_555
C17 O9 1_555 1_555
C18 C17 1_555 1_555
H1 C18 1_555 1_555
H2 C18 1_555 1_555
C19 O10 1_555 1_555
C20 O9 1_555 1_555
C21 O11 1_555 1_555
C22 O11 1_555 1_555
H3 C6 1_555 1_555
H4 C6 1_555 1_555
H5 C7 1_555 1_555
H6 C7 1_555 1_555
H7 C7 1_555 1_555
H8 C9 1_555 1_555
H9 C9 1_555 1_555
H10 C10 1_555 1_555
H11 C10 1_555 1_555
H12 C10 1_555 1_555
H13 C13 1_555 1_555
H14 C13 1_555 1_555
H15 C14 1_555 1_555
H16 C14 1_555 1_555
H17 C14 1_555 1_555
H18 C15 1_555 1_555
H19 C15 1_555 1_555
H20 C16 1_555 1_555
H21 C16 1_555 1_555
H22 C16 1_555 1_555
H23 C17 1_555 1_555
H24 C17 1_555 1_555
H25 C19 1_555 1_555
H26 C19 1_555 1_555
H27 C20 1_555 1_555
H28 C20 1_555 1_555
H29 C21 1_555 1_555
H30 C21 1_555 1_555
H31 C22 1_555 1_555
H32 C22 1_555 1_555
O11B C21B 1_555 1_555
C21B C22 1_555 1_555
C22B C21 1_555 1_555
H29B C21B 1_555 1_555
H30B C21B 1_555 1_555
H31B C22B 1_555 1_555
H32B C22B 1_555 1_555
P1B C1B 1_555 1_555
Na1B O11B 1_555 1_555
O1B C5B 1_555 1_555
O2B Na1B 1_555 1_555
O3B C8B 1_555 1_555
O4B Na1B 1_555 1_555
O5B C11B 1_555 1_555
O6B C11B 1_555 1_555
O7B C12B 1_555 1_555
O8B C12B 1_555 1_555
C1B C2B 1_555 1_555
C2B C3B 1_555 1_555
C3B C4B 1_555 1_555
C4B P1B 1_555 1_555
C5B O2B 1_555 1_555
C6B O1B 1_555 1_555
C7B C6B 1_555 1_555
C8B O4B 1_555 1_555
C9B O3B 1_555 1_555
C10B C9B 1_555 1_555
C11B C3B 1_555 1_555
C12B C4B 1_555 1_555
C13B O5B 1_555 1_555
C14B C13B 1_555 1_555
C15B O7B 1_555 1_555
C16B C15B 1_555 1_555
O9B Na1B 1_555 1_555
O10B C18B 1_555 1_555
C17B O9B 1_555 1_555
C18B C17B 1_555 1_555
H1B C18B 1_555 1_555
H2B C18B 1_555 1_555
C19B O10B 1_555 1_555
C20B O9B 1_555 1_555
H3B C6B 1_555 1_555
H4B C6B 1_555 1_555
H5B C7B 1_555 1_555
H6B C7B 1_555 1_555
H7B C7B 1_555 1_555
H8B C9B 1_555 1_555
H9B C9B 1_555 1_555
H10B C10B 1_555 1_555
H11B C10B 1_555 1_555
H12B C10B 1_555 1_555
H13B C13B 1_555 1_555
H14B C13B 1_555 1_555
H15B C14B 1_555 1_555
H16B C14B 1_555 1_555
H17B C14B 1_555 1_555
H18B C15B 1_555 1_555
H19B C15B 1_555 1_555
H20B C16B 1_555 1_555
H21B C16B 1_555 1_555
H22B C16B 1_555 1_555
H23B C17B 1_555 1_555
H24B C17B 1_555 1_555
H25B C19B 1_555 1_555
H26B C19B 1_555 1_555
H27B C20B 1_555 1_555
H28B C20B 1_555 1_555
Na1A O6 1_555 1_555
Na1C O6B 1_555 1_555
O6A Na1 1_555 1_555
O6C Na1B 1_555 1_555
O8A Na1 1_555 1_555
O8C Na1B 1_555 1_555
O8 Na1A 1_555 1_555
C2 C8 1_555 1_555
C19 C20 1_555 1_555
O11B C22B 1_555 1_555
O8B Na1C 1_555 1_555
C1B C5B 1_555 1_555
C2B C8B 1_555 1_555
C19B C20B 1_555 1_555

#END
