
#######################################################################
#
#                 Cambridge Crystallographic Data Centre
#                                CCDC 
#
#######################################################################
#
# If this CIF has been generated from an entry in the Cambridge 
# Structural Database, then it will include bibliographic, chemical, 
# crystal, experimental, refinement or atomic coordinate data resulting 
# from the CCDC's data processing and validation procedures.
#
#######################################################################

data_XOCBIA
_symmetry_cell_setting           orthorhombic
_symmetry_space_group_name_H-M   'P n a 21'
_symmetry_Int_Tables_number      33
_space_group_name_Hall           'P 2c -2n'
loop_
_symmetry_equiv_pos_site_id
_symmetry_equiv_pos_as_xyz
1 x,y,z
2 -x,-y,1/2+z
3 1/2-x,1/2+y,1/2+z
4 1/2+x,1/2-y,z
_cell_length_a                   14.127(1)
_cell_length_b                   11.081(3)
_cell_length_c                   18.108(5)
_cell_angle_alpha                90
_cell_angle_beta                 90
_cell_angle_gamma                90
_cell_volume                     2834.65
loop_
_atom_site_label
_atom_site_type_symbol
_atom_site_fract_x
_atom_site_fract_y
_atom_site_fract_z
Co1 Co 0.1616(1) 0.0738(1) 0.0004(1)
O1 O 0.2177(5) 0.0880(7) -0.1051(4)
O2 O 0.0651(4) -0.0487(6) -0.0472(4)
O3 O 0.2473(4) -0.0751(7) 0.0180(4)
O4 O 0.0956(4) 0.0433(6) 0.0976(4)
O5 O 0.2529(5) 0.2039(6) 0.0421(4)
C1 C 0.2120(8) 0.0085(11) -0.1536(6)
C2 C 0.1516(8) -0.0878(11) -0.1566(6)
C3 C 0.0816(8) -0.1106(10) -0.1039(6)
C4 C 0.2852(12) 0.0298(13) -0.2166(10)
F1 F 0.3687(6) -0.0037(11) -0.1958(6)
F2 F 0.2622(6) -0.0401(8) -0.2759(4)
F3 F 0.2860(8) 0.1395(8) -0.2377(5)
C5 C 0.0155(11) -0.2142(13) -0.1159(9)
F4 F 0.2594(6) -0.3600(7) 0.0953(5)
C6 C 0.0321(10) -0.0678(18) 0.1953(7)
F5 F 0.0423(8) 0.0190(11) 0.2413(7)
F6 F -0.0499(5) -0.0702(14) 0.1789(4)
F7 F 0.0469(8) -0.1559(12) 0.2379(7)
N1 N 0.3470(6) 0.1933(7) 0.0423(4)
C7 C 0.4010(6) 0.2810(8) -0.0022(8)
C8 C 0.3758(6) 0.4086(8) 0.0211(7)
C9 C 0.3873(7) 0.2634(12) -0.0854(5)
C10 C 0.5025(7) 0.1455(10) 0.0712(6)
F8 F 0.0272(6) -0.2678(9) -0.1781(5)
F9 F 0.0194(6) -0.2909(7) -0.0618(5)
F10 F -0.0740(5) -0.1764(8) -0.1176(5)
C11 C 0.2237(8) -0.1590(10) 0.0592(7)
C12 C 0.1586(8) -0.1573(10) 0.1154(6)
C13 C 0.1013(8) -0.0592(11) 0.1295(6)
C14 C 0.2763(11) -0.2761(15) 0.0454(9)
F11 F 0.3698(6) -0.2587(8) 0.0484(5)
F12 F 0.2580(6) -0.3185(7) -0.0192(5)
C15 C 0.5459(7) 0.0337(9) 0.0298(7)
C16 C 0.5627(7) 0.1787(10) 0.1352(5)
C17 C 0.3981(7) 0.1295(9) 0.0883(6)
C18 C 0.3626(7) 0.0642(12) 0.1535(6)
C19 C 0.4012(9) -0.0418(12) 0.1781(8)
C20 C 0.3724(10) -0.0912(15) 0.2445(9)
C21 C 0.2916(8) 0.1230(13) 0.1984(7)
C22 C 0.2665(10) 0.0733(16) 0.2638(8)
C23 C 0.3081(10) -0.0337(16) 0.2871(8)
N2 N 0.4983(5) 0.2471(7) 0.0185(4)
O6 O 0.5700(4) 0.2800(6) -0.0197(4)
O6C O 0.0700(4) 0.2200(6) -0.0197(4)
Co1C Co 0.6616(1) 0.4262(1) 0.0004(1)
loop_
_geom_bond_atom_site_label_1
_geom_bond_atom_site_label_2
_geom_bond_site_symmetry_1
_geom_bond_site_symmetry_2
Co1 O1 1_555 1_555
O1 C1 1_555 1_555
O2 Co1 1_555 1_555
O3 Co1 1_555 1_555
O4 Co1 1_555 1_555
O5 Co1 1_555 1_555
C1 C2 1_555 1_555
C2 C3 1_555 1_555
C3 O2 1_555 1_555
C4 C1 1_555 1_555
F1 C4 1_555 1_555
F2 C4 1_555 1_555
F3 C4 1_555 1_555
C5 C3 1_555 1_555
F4 C14 1_555 1_555
C6 F5 1_555 1_555
F6 C6 1_555 1_555
F7 C6 1_555 1_555
N1 O5 1_555 1_555
C7 N1 1_555 1_555
C8 C7 1_555 1_555
C9 C7 1_555 1_555
C10 C15 1_555 1_555
F8 C5 1_555 1_555
F9 C5 1_555 1_555
F10 C5 1_555 1_555
C11 O3 1_555 1_555
C12 C11 1_555 1_555
C13 O4 1_555 1_555
C14 C11 1_555 1_555
F11 C14 1_555 1_555
F12 C14 1_555 1_555
C16 C10 1_555 1_555
C17 N1 1_555 1_555
C18 C17 1_555 1_555
C19 C18 1_555 1_555
C20 C19 1_555 1_555
C21 C18 1_555 1_555
C22 C21 1_555 1_555
C23 C20 1_555 1_555
N2 C7 1_555 1_555
O6 N2 1_555 1_555
O6C Co1 1_555 1_555
Co1C O6 1_555 1_555
C6 C13 1_555 1_555
C10 C17 1_555 1_555
C10 N2 1_555 1_555
C12 C13 1_555 1_555
C22 C23 1_555 1_555

#END
