
#######################################################################
#
#                 Cambridge Crystallographic Data Centre
#                                CCDC 
#
#######################################################################
#
# If this CIF has been generated from an entry in the Cambridge 
# Structural Database, then it will include bibliographic, chemical, 
# crystal, experimental, refinement or atomic coordinate data resulting 
# from the CCDC's data processing and validation procedures.
#
#######################################################################

data_XOCLAE
_symmetry_cell_setting           triclinic
_symmetry_space_group_name_H-M   'P -1'
_symmetry_Int_Tables_number      2
_space_group_name_Hall           '-P 1'
loop_
_symmetry_equiv_pos_site_id
_symmetry_equiv_pos_as_xyz
1 x,y,z
2 -x,-y,-z
_cell_length_a                   9.9420(3)
_cell_length_b                   12.7869(4)
_cell_length_c                   16.6357(5)
_cell_angle_alpha                74.479(2)
_cell_angle_beta                 88.985(3)
_cell_angle_gamma                87.228(2)
_cell_volume                     2035.32
loop_
_atom_site_label
_atom_site_type_symbol
_atom_site_fract_x
_atom_site_fract_y
_atom_site_fract_z
Mn1 Mn -0.40700(3) 0.28553(3) -0.60049(2)
Mn2 Mn -0.50000 0.50000 -0.50000
Mn3 Mn 0.05962(3) 0.21048(3) 0.10390(2)
Mn4 Mn 0.00000 0.00000 0.00000
O1 O -0.4631(2) 0.44803(15) -0.36960(11)
O2 O -0.2806(2) 0.14375(16) -0.52884(12)
O3 O -0.4317(2) 0.20056(15) -0.69530(12)
O4 O 0.1662(2) 0.35665(17) 0.02376(12)
O5 O 0.0599(2) 0.28264(16) 0.20575(12)
O6 O -0.48893(18) 0.58668(14) -0.31229(11)
O7 O -0.14425(17) 0.13123(13) -0.01557(11)
O8 O -0.10257(18) 0.27974(14) 0.02359(11)
O9 O -0.62998(17) 0.36600(13) -0.47997(11)
O10 O -0.55553(17) 0.21487(14) -0.51172(11)
O11 O -0.95273(19) -0.08545(14) -0.18688(11)
O12 O -0.96115(19) 0.05603(14) -0.13213(10)
O13 O -0.33085(14) 0.38884(13) -0.51919(10)
O14 O -0.20497(16) 0.36955(15) -0.62478(11)
O15 O 0.15444(15) 0.10945(13) 0.02124(10)
O16 O 0.27129(17) 0.12790(15) 0.12638(11)
N1 N -0.2707(3) 0.0797(2) -0.38840(16)
N2 N -0.4217(2) 0.28827(19) -0.83306(14)
N3 N 0.1657(3) 0.3987(2) -0.11773(15)
N4 N 0.0955(2) 0.2364(2) 0.34436(14)
C1 C -0.4502(2) 0.49191(18) -0.31223(14)
C2 C -0.3170(3) 0.0828(3) -0.4625(2)
C3 C -0.4766(3) 0.2245(2) -0.76741(17)
C4 C 0.1179(3) 0.4059(2) -0.04510(19)
C5 C 0.0255(3) 0.2379(2) 0.27913(18)
C6 C -0.3796(2) 0.42404(19) -0.23432(14)
C7 C -0.1712(5) 0.1560(4) -0.3804(3)
C8 C -0.2997(4) 0.3430(4) -0.8260(3)
C9 C 0.0931(4) 0.4530(3) -0.1943(2)
C10 C 0.2222(3) 0.2927(4) 0.3360(3)
C11 C -0.3509(3) 0.3140(2) -0.22509(17)
C12 C -0.3198(6) 0.0073(4) -0.3131(3)
C13 C -0.4818(4) 0.3093(3) -0.91538(18)
C14 C 0.2814(5) 0.3261(4) -0.1223(3)
C15 C 0.0518(4) 0.1810(3) 0.4282(2)
C16 C -0.2816(3) 0.2518(2) -0.15589(17)
C17 C -0.2368(2) 0.29860(19) -0.09580(14)
C18 C -0.2663(3) 0.4083(2) -0.10452(15)
C19 C -0.3382(3) 0.46971(19) -0.17292(15)
C20 C -0.1546(2) 0.23046(19) -0.02360(14)
C21 C -0.6233(2) 0.26551(18) -0.46798(14)
C22 C -0.7033(2) 0.19839(18) -0.39642(14)
C23 C -0.7788(3) 0.2485(2) -0.34510(18)
C24 C -0.8506(3) 0.1875(2) -0.27800(17)
C25 C -0.8494(2) 0.07522(18) -0.26082(14)
C26 C -0.7748(3) 0.02508(19) -0.31206(16)
C27 C -0.7023(3) 0.0864(2) -0.37932(17)
C28 C -0.9275(2) 0.01021(18) -0.18712(14)
C29 C -0.2207(2) 0.40264(18) -0.56114(14)
C30 C -0.1072(2) 0.45367(18) -0.52917(15)
C31 C 0.0068(2) 0.4825(2) -0.57878(15)
C32 C 0.3852(2) 0.0269(2) -0.04864(16)
C33 C 0.3854(2) 0.04421(19) 0.03032(15)
C34 C 0.5014(2) 0.0175(2) 0.07872(16)
C35 C -0.1136(2) 0.4715(2) -0.45067(15)
C36 C 0.2622(2) 0.09543(18) 0.06248(15)
H1 H -0.14850 0.14380 -0.32260
H2 H -0.546(4) 0.186(3) -0.779(2)
H3 H -0.379(4) 0.013(3) -0.456(3)
H4 H -0.062(4) 0.202(3) 0.299(3)
H5 H 0.030(4) 0.448(3) -0.063(3)
H6 H -0.20770 0.22890 -0.40170
H7 H -0.37840 0.28190 -0.26570
H8 H -0.09180 0.14560 -0.41150
H9 H -0.26490 0.17780 -0.14970
H10 H -0.27360 0.01830 -0.26600
H11 H -0.30390 -0.06650 -0.31540
H12 H -0.23780 0.44060 -0.06430
H13 H -0.41460 0.02180 -0.30750
H14 H -0.35880 0.54280 -0.17760
H15 H -0.27370 0.38600 -0.88020
H16 H -0.22890 0.28990 -0.80370
H17 H -0.31580 0.38910 -0.78950
H18 H -0.42730 0.35770 -0.95560
H19 H -0.78130 0.32380 -0.35580
H20 H -0.57070 0.34190 -0.91450
H21 H -0.90030 0.22230 -0.24410
H22 H -0.48710 0.24210 -0.93040
H23 H 0.14070 0.43890 -0.24130
H24 H -0.77300 -0.05020 -0.30160
H25 H 0.08660 0.52980 -0.20030
H26 H -0.65260 0.05150 -0.41320
H27 H 0.00430 0.42580 -0.19170
H28 H 0.30220 0.33070 -0.17970
H29 H 0.26080 0.25280 -0.09390
H30 H 0.35750 0.34700 -0.09640
H31 H 0.01170 0.47100 -0.63170
H32 H 0.26060 0.28310 0.39020
H33 H 0.30840 0.04530 -0.08150
H34 H 0.20490 0.36880 0.31040
H35 H 0.28400 0.26310 0.30190
H36 H 0.50260 0.02950 0.13140
H37 H 0.11700 0.18900 0.46780
H38 H -0.18940 0.45260 -0.41740
H39 H 0.04330 0.10530 0.43240
H40 H -0.03370 0.21230 0.43980
O13A O 0.33085(14) 0.61116(13) -0.48081(10)
O14A O 0.20497(16) 0.63045(15) -0.37522(11)
C29A C 0.2207(2) 0.59736(18) -0.43886(14)
C30A C 0.1072(2) 0.54633(18) -0.47083(15)
C31A C -0.0068(2) 0.5175(2) -0.42122(15)
C35A C 0.1136(2) 0.5285(2) -0.54933(15)
H31A H -0.01170 0.52900 -0.36830
H38A H 0.18940 0.54740 -0.58260
O15A O 0.84556(15) -0.10945(13) -0.02124(10)
O16A O 0.72871(17) -0.12790(15) -0.12638(11)
C32A C 0.6148(2) -0.0269(2) 0.04864(16)
C33A C 0.6146(2) -0.04421(19) -0.03032(15)
C34A C 0.4986(2) -0.0175(2) -0.07872(16)
C36A C 0.7378(2) -0.09543(18) -0.06248(15)
H33A H 0.69160 -0.04530 0.08150
H36A H 0.49740 -0.02950 -0.13140
Mn1A Mn -0.59300(3) -0.28553(3) 0.60049(2)
Mn3A Mn -1.05962(3) -0.21048(3) -0.10390(2)
O1A O -0.5369(2) -0.44803(15) 0.36960(11)
O2A O -0.7194(2) -0.14375(16) 0.52884(12)
O3A O -0.5683(2) -0.20056(15) 0.69530(12)
O4A O -1.1662(2) -0.35665(17) -0.02376(12)
O5A O -1.0599(2) -0.28264(16) -0.20575(12)
O6A O -0.51107(18) -0.58668(14) 0.31229(11)
O7A O -0.85575(17) -0.13123(13) 0.01557(11)
O8A O -0.89743(18) -0.27974(14) -0.02359(11)
O9A O -0.37002(17) -0.36600(13) 0.47997(11)
O10A O -0.44447(17) -0.21487(14) 0.51172(11)
O11A O -0.04727(19) 0.08545(14) 0.18688(11)
O12A O -0.03885(19) -0.05603(14) 0.13213(10)
N1A N -0.7293(3) -0.0797(2) 0.38840(16)
N2A N -0.5783(2) -0.28827(19) 0.83306(14)
N3A N -1.1657(3) -0.3987(2) 0.11773(15)
N4A N -1.0955(2) -0.2364(2) -0.34436(14)
C1A C -0.5498(2) -0.49191(18) 0.31223(14)
C2A C -0.6830(3) -0.0828(3) 0.4625(2)
C3A C -0.5234(3) -0.2245(2) 0.76741(17)
C4A C -1.1179(3) -0.4059(2) 0.04510(19)
C5A C -1.0255(3) -0.2379(2) -0.27913(18)
C6A C -0.6204(2) -0.42404(19) 0.23432(14)
C7A C -0.8288(5) -0.1560(4) 0.3804(3)
C8A C -0.7003(4) -0.3430(4) 0.8260(3)
C9A C -1.0931(4) -0.4530(3) 0.1943(2)
C10A C -1.2222(3) -0.2927(4) -0.3360(3)
C11A C -0.6491(3) -0.3140(2) 0.22509(17)
C12A C -0.6802(6) -0.0073(4) 0.3131(3)
C13A C -0.5182(4) -0.3093(3) 0.91538(18)
C14A C -1.2814(5) -0.3261(4) 0.1223(3)
C15A C -1.0518(4) -0.1810(3) -0.4282(2)
C16A C -0.7184(3) -0.2518(2) 0.15589(17)
C17A C -0.7632(2) -0.29860(19) 0.09580(14)
C18A C -0.7337(3) -0.4083(2) 0.10452(15)
C19A C -0.6618(3) -0.46971(19) 0.17292(15)
C20A C -0.8454(2) -0.23046(19) 0.02360(14)
C21A C -0.3767(2) -0.26551(18) 0.46798(14)
C22A C -0.2967(2) -0.19839(18) 0.39642(14)
C23A C -0.2212(3) -0.2485(2) 0.34510(18)
C24A C -0.1494(3) -0.1875(2) 0.27800(17)
C25A C -0.1506(2) -0.07522(18) 0.26082(14)
C26A C -0.2252(3) -0.02508(19) 0.31206(16)
C27A C -0.2977(3) -0.0864(2) 0.37932(17)
C28A C -0.0725(2) -0.01021(18) 0.18712(14)
H1A H -0.85150 -0.14380 0.32260
H2A H -0.454(4) -0.186(3) 0.779(2)
H3A H -0.621(4) -0.013(3) 0.456(3)
H4A H -0.938(4) -0.202(3) -0.299(3)
H5A H -1.030(4) -0.448(3) 0.063(3)
H6A H -0.79230 -0.22890 0.40170
H7A H -0.62160 -0.28190 0.26570
H8A H -0.90820 -0.14560 0.41150
H9A H -0.73510 -0.17780 0.14970
H10A H -0.72640 -0.01830 0.26600
H11A H -0.69610 0.06650 0.31540
H12A H -0.76220 -0.44060 0.06430
H13A H -0.58540 -0.02180 0.30750
H14A H -0.64120 -0.54280 0.17760
H15A H -0.72630 -0.38600 0.88020
H16A H -0.77110 -0.28990 0.80370
H17A H -0.68420 -0.38910 0.78950
H18A H -0.57270 -0.35770 0.95560
H19A H -0.21870 -0.32380 0.35580
H20A H -0.42930 -0.34190 0.91450
H21A H -0.09970 -0.22230 0.24410
H22A H -0.51290 -0.24210 0.93040
H23A H -1.14070 -0.43890 0.24130
H24A H -0.22700 0.05020 0.30160
H25A H -1.08660 -0.52980 0.20030
H26A H -0.34740 -0.05150 0.41320
H27A H -1.00430 -0.42580 0.19170
H28A H -1.30220 -0.33070 0.17970
H29A H -1.26080 -0.25280 0.09390
H30A H -1.35750 -0.34700 0.09640
H32A H -1.26060 -0.28310 -0.39020
H34A H -1.20490 -0.36880 -0.31040
H35A H -1.28400 -0.26310 -0.30190
H37A H -1.11700 -0.18900 -0.46780
H39A H -1.04330 -0.10530 -0.43240
H40A H -0.96630 -0.21230 -0.43980
Mn1_2 Mn -0.40700(3) -0.71447(3) 0.39951(2)
Mn1A_2 Mn -0.59300(3) 0.71447(3) -0.39951(2)
Mn1A_3 Mn 0.40700(3) 0.71447(3) -0.39951(2)
Mn2_2 Mn -0.50000 -0.50000 0.50000
Mn2_3 Mn 0.50000 0.50000 -0.50000
Mn3A_2 Mn 0.94038(3) -0.21048(3) -0.10390(2)
Mn4_2 Mn -1.00000 0.00000 0.00000
Mn4_3 Mn 1.00000 0.00000 0.00000
O1A_2 O -0.5369(2) 0.55197(15) -0.63040(11)
O6_2 O -0.48893(18) -0.41332(14) 0.68771(11)
O6A_2 O -0.51107(18) 0.41332(14) -0.68771(11)
O7A_2 O 0.14425(17) -0.13123(13) 0.01557(11)
O9A_2 O -0.37002(17) 0.63400(13) -0.52003(11)
O12_2 O 0.03885(19) 0.05603(14) -0.13213(10)
O13A_2 O -0.66915(14) -0.38884(13) 0.51919(10)
O13A_3 O -0.66915(14) 0.61116(13) -0.48081(10)
O14A_2 O -0.79503(16) -0.36955(15) 0.62478(11)
O15A_2 O -1.15444(15) -0.10945(13) -0.02124(10)
O15A_3 O -0.15444(15) -0.10945(13) -0.02124(10)
O16A_2 O -1.27129(17) -0.12790(15) -0.12638(11)
loop_
_geom_bond_atom_site_label_1
_geom_bond_atom_site_label_2
_geom_bond_site_symmetry_1
_geom_bond_site_symmetry_2
Mn1 O2 1_555 1_555
Mn2 O1 1_555 1_555
Mn3 O4 1_555 1_555
Mn4 O7 1_555 1_555
O1 C1 1_555 1_555
O2 C2 1_555 1_555
O3 Mn1 1_555 1_555
O4 C4 1_555 1_555
O5 Mn3 1_555 1_555
O6 C1 1_555 1_555
O7 C20 1_555 1_555
O8 Mn3 1_555 1_555
O9 Mn2 1_555 1_555
O10 Mn1 1_555 1_555
O11 C28 1_555 1_555
O12 C28 1_555 1_555
O13 Mn1 1_555 1_555
O14 Mn1 1_555 1_555
O15 Mn3 1_555 1_555
O16 Mn3 1_555 1_555
N1 C2 1_555 1_555
N2 C3 1_555 1_555
N3 C4 1_555 1_555
N4 C5 1_555 1_555
C1 C6 1_555 1_555
C2 H3 1_555 1_555
C3 O3 1_555 1_555
C4 H5 1_555 1_555
C5 O5 1_555 1_555
C6 C11 1_555 1_555
C7 N1 1_555 1_555
C8 N2 1_555 1_555
C9 N3 1_555 1_555
C10 N4 1_555 1_555
C11 C16 1_555 1_555
C12 N1 1_555 1_555
C13 N2 1_555 1_555
C14 N3 1_555 1_555
C15 N4 1_555 1_555
C16 C17 1_555 1_555
C17 C18 1_555 1_555
C18 C19 1_555 1_555
C19 C6 1_555 1_555
C20 O8 1_555 1_555
C21 O9 1_555 1_555
C22 C21 1_555 1_555
C23 C22 1_555 1_555
C24 C23 1_555 1_555
C25 C24 1_555 1_555
C26 C25 1_555 1_555
C27 C22 1_555 1_555
C28 C25 1_555 1_555
C29 O13 1_555 1_555
C30 C29 1_555 1_555
C31 C30 1_555 1_555
C32 C33 1_555 1_555
C33 C34 1_555 1_555
C34 H36 1_555 1_555
C35 C30 1_555 1_555
C36 O15 1_555 1_555
H1 C7 1_555 1_555
H2 C3 1_555 1_555
H4 C5 1_555 1_555
H6 C7 1_555 1_555
H7 C11 1_555 1_555
H8 C7 1_555 1_555
H9 C16 1_555 1_555
H10 C12 1_555 1_555
H11 C12 1_555 1_555
H12 C18 1_555 1_555
H13 C12 1_555 1_555
H14 C19 1_555 1_555
H15 C8 1_555 1_555
H16 C8 1_555 1_555
H17 C8 1_555 1_555
H18 C13 1_555 1_555
H19 C23 1_555 1_555
H20 C13 1_555 1_555
H21 C24 1_555 1_555
H22 C13 1_555 1_555
H23 C9 1_555 1_555
H24 C26 1_555 1_555
H25 C9 1_555 1_555
H26 C27 1_555 1_555
H27 C9 1_555 1_555
H28 C14 1_555 1_555
H29 C14 1_555 1_555
H30 C14 1_555 1_555
H31 C31 1_555 1_555
H32 C10 1_555 1_555
H33 C32 1_555 1_555
H34 C10 1_555 1_555
H35 C10 1_555 1_555
H37 C15 1_555 1_555
H38 C35 1_555 1_555
H39 C15 1_555 1_555
H40 C15 1_555 1_555
O13A C29A 1_555 1_555
O14A C29A 1_555 1_555
C29A C30A 1_555 1_555
C30A C31A 1_555 1_555
C31A C35 1_555 1_555
C35A C31 1_555 1_555
H31A C31A 1_555 1_555
H38A C35A 1_555 1_555
O15A C36A 1_555 1_555
O16A C36A 1_555 1_555
C32A C34 1_555 1_555
C33A C32A 1_555 1_555
C34A C32 1_555 1_555
C36A C33A 1_555 1_555
H33A C32A 1_555 1_555
H36A C34A 1_555 1_555
Mn1A O2A 1_555 1_555
Mn3A O11 1_555 1_555
O1A C1A 1_555 1_555
O2A C2A 1_555 1_555
O3A Mn1A 1_555 1_555
O4A Mn3A 1_555 1_555
O5A Mn3A 1_555 1_555
O6A C1A 1_555 1_555
O7A C20A 1_555 1_555
O8A Mn3A 1_555 1_555
O9A C21A 1_555 1_555
O10A Mn1A 1_555 1_555
O11A Mn3 1_555 1_555
O12A Mn4 1_555 1_555
N1A C2A 1_555 1_555
N2A C3A 1_555 1_555
N3A C4A 1_555 1_555
N4A C5A 1_555 1_555
C1A C6A 1_555 1_555
C2A H3A 1_555 1_555
C3A O3A 1_555 1_555
C4A O4A 1_555 1_555
C5A O5A 1_555 1_555
C6A C11A 1_555 1_555
C7A N1A 1_555 1_555
C8A N2A 1_555 1_555
C9A N3A 1_555 1_555
C10A N4A 1_555 1_555
C11A C16A 1_555 1_555
C12A N1A 1_555 1_555
C13A N2A 1_555 1_555
C14A N3A 1_555 1_555
C15A N4A 1_555 1_555
C16A C17A 1_555 1_555
C17A C18A 1_555 1_555
C18A C19A 1_555 1_555
C19A C6A 1_555 1_555
C20A O8A 1_555 1_555
C21A O10A 1_555 1_555
C22A C21A 1_555 1_555
C23A C22A 1_555 1_555
C24A C23A 1_555 1_555
C25A C24A 1_555 1_555
C26A C25A 1_555 1_555
C27A C22A 1_555 1_555
C28A O11A 1_555 1_555
H1A C7A 1_555 1_555
H2A C3A 1_555 1_555
H4A C5A 1_555 1_555
H5A C4A 1_555 1_555
H6A C7A 1_555 1_555
H7A C11A 1_555 1_555
H8A C7A 1_555 1_555
H9A C16A 1_555 1_555
H10A C12A 1_555 1_555
H11A C12A 1_555 1_555
H12A C18A 1_555 1_555
H13A C12A 1_555 1_555
H14A C19A 1_555 1_555
H15A C8A 1_555 1_555
H16A C8A 1_555 1_555
H17A C8A 1_555 1_555
H18A C13A 1_555 1_555
H19A C23A 1_555 1_555
H20A C13A 1_555 1_555
H21A C24A 1_555 1_555
H22A C13A 1_555 1_555
H23A C9A 1_555 1_555
H24A C26A 1_555 1_555
H25A C9A 1_555 1_555
H26A C27A 1_555 1_555
H27A C9A 1_555 1_555
H28A C14A 1_555 1_555
H29A C14A 1_555 1_555
H30A C14A 1_555 1_555
H32A C10A 1_555 1_555
H34A C10A 1_555 1_555
H35A C10A 1_555 1_555
H37A C15A 1_555 1_555
H39A C15A 1_555 1_555
H40A C15A 1_555 1_555
Mn1_2 O6A 1_555 1_555
Mn1A_2 O6 1_555 1_555
Mn1A_3 O13A 1_555 1_555
Mn2_2 O1A 1_555 1_555
Mn2_3 O13A 1_555 1_555
Mn3A_2 O15A 1_555 1_555
Mn4_2 O12 1_555 1_555
Mn4_3 O15A 1_555 1_555
O1A_2 Mn2 1_555 1_555
O6_2 Mn1A 1_555 1_555
O6A_2 Mn1 1_555 1_555
O7A_2 Mn4 1_555 1_555
O9A_2 Mn2 1_555 1_555
O12_2 Mn4 1_555 1_555
O13A_2 Mn1A 1_555 1_555
O13A_3 Mn2 1_555 1_555
O14A_2 Mn1A 1_555 1_555
O15A_2 Mn3A 1_555 1_555
O15A_3 Mn4 1_555 1_555
O16A_2 Mn3A 1_555 1_555
Mn2 O13 1_555 1_555
Mn4 O15 1_555 1_555
O10 C21 1_555 1_555
O14 C29 1_555 1_555
O16 C36 1_555 1_555
C17 C20 1_555 1_555
C26 C27 1_555 1_555
C33 C36 1_555 1_555
O14A Mn1A_3 1_555 1_555
C30A C35A 1_555 1_555
O16A Mn3A_2 1_555 1_555
C33A C34A 1_555 1_555
O7A Mn4_2 1_555 1_555
O9A Mn2_2 1_555 1_555
O12A C28A 1_555 1_555
C17A C20A 1_555 1_555
C25A C28A 1_555 1_555
C26A C27A 1_555 1_555
Mn1A_2 O13A_3 1_555 1_555
Mn2_2 O13A_2 1_555 1_555
Mn4_2 O15A_2 1_555 1_555

#END
