
#######################################################################
#
#                 Cambridge Crystallographic Data Centre
#                                CCDC 
#
#######################################################################
#
# If this CIF has been generated from an entry in the Cambridge 
# Structural Database, then it will include bibliographic, chemical, 
# crystal, experimental, refinement or atomic coordinate data resulting 
# from the CCDC's data processing and validation procedures.
#
#######################################################################

data_XOCNOT
_symmetry_cell_setting           triclinic
_symmetry_space_group_name_H-M   'P -1'
_symmetry_Int_Tables_number      2
_space_group_name_Hall           '-P 1'
loop_
_symmetry_equiv_pos_site_id
_symmetry_equiv_pos_as_xyz
1 x,y,z
2 -x,-y,-z
_cell_length_a                   9.9897(12)
_cell_length_b                   10.0214(11)
_cell_length_c                   17.651(2)
_cell_angle_alpha                81.569(8)
_cell_angle_beta                 88.141(6)
_cell_angle_gamma                69.774(5)
_cell_volume                     1639.86
loop_
_atom_site_label
_atom_site_type_symbol
_atom_site_fract_x
_atom_site_fract_y
_atom_site_fract_z
Mn1 Mn 0.52613(5) 0.70752(5) 0.73960(3)
C1 C 0.3099(4) 0.9700(4) 0.62670(18)
C2 C 0.4097(3) 0.9847(3) 0.56117(17)
C3 C 0.5026(3) 1.0599(3) 0.56787(17)
C4 C 0.5122(3) 1.1209(4) 0.63467(19)
H1 H 0.4535 1.1119 0.6756
C5 C 0.4058(3) 0.9239(3) 0.49532(16)
C6 C 0.3131(3) 0.8457(3) 0.4858(2)
H2 H 0.2550 0.8314 0.5262
C7 C 0.3063(4) 0.7920(4) 0.4213(2)
H3 H 0.2428 0.7440 0.4172
C8 C 0.6042(4) 1.1914(4) 0.6404(2)
H4 H 0.6086 1.2290 0.6850
C9 C 0.4197(4) 0.7843(4) 0.90856(19)
C10 C 0.4623(3) 0.6373(3) 0.95529(17)
C11 C 0.3664(3) 0.5617(4) 0.96038(18)
C12 C 0.2305(3) 0.6184(4) 0.9222(2)
H5 H 0.2036 0.7089 0.8929
C13 C 0.1402(4) 0.5440(5) 0.9276(2)
H6 H 0.0523 0.5835 0.9020
C14 C 0.5940(3) 0.5779(4) 0.99412(18)
C15 C 0.6945(4) 0.6520(4) 0.9910(2)
H7 H 0.6717 0.7429 0.9626
C16 C 0.1779(4) 0.4085(5) 0.9711(2)
H8 H 0.1145 0.3584 0.9743
C17 C 0.7940(4) 0.4556(4) 0.8306(2)
H9 H 0.8407 0.5216 0.8191
C18 C 0.8653(4) 0.3265(5) 0.8754(2)
H10 H 0.9581 0.3066 0.8927
C19 C 0.7984(4) 0.2280(4) 0.8942(2)
H11 H 0.8440 0.1415 0.9253
C20 C 0.6582(3) 0.2606(4) 0.8652(2)
C21 C 0.5807(4) 0.1617(4) 0.8801(2)
H12 H 0.6207 0.0753 0.9124
C22 C 0.4515(4) 0.1937(4) 0.8479(2)
H13 H 0.4044 0.1276 0.8571
C23 C 0.3845(3) 0.3270(4) 0.79967(19)
C24 C 0.2516(4) 0.3645(4) 0.7644(2)
H14 H 0.2018 0.3006 0.7712
C25 C 0.1942(4) 0.4940(5) 0.7200(2)
H15 H 0.1053 0.5194 0.6963
C26 C 0.2701(4) 0.5882(4) 0.7106(2)
H16 H 0.2298 0.6768 0.6802
C27 C 0.4561(3) 0.4274(4) 0.78666(18)
C28 C 0.5960(3) 0.3923(3) 0.81943(19)
C29 C 0.6204(4) 0.5825(4) 0.5759(2)
H17 H 0.5495 0.5423 0.5860
C30 C 0.6913(4) 0.5653(4) 0.5072(2)
H18 H 0.6668 0.5162 0.4722
C31 C 0.7964(4) 0.6207(4) 0.4916(2)
H19 H 0.8455 0.6090 0.4460
C32 C 0.8315(3) 0.6956(3) 0.54433(19)
C33 C 0.9387(4) 0.7604(4) 0.5322(2)
H20 H 0.9891 0.7537 0.4868
C34 C 0.9681(4) 0.8306(4) 0.5846(2)
H21 H 1.0376 0.8728 0.5746
C35 C 0.8952(3) 0.8421(4) 0.6557(2)
C36 C 0.9285(4) 0.9070(4) 0.7142(2)
H22 H 1.0014 0.9452 0.7079
C37 C 0.8548(4) 0.9138(4) 0.7792(2)
H23 H 0.8770 0.9554 0.8185
C38 C 0.7450(4) 0.8579(4) 0.7871(2)
H24 H 0.6932 0.8658 0.8319
C39 C 0.7863(3) 0.7836(3) 0.66901(18)
C40 C 0.7542(3) 0.7083(3) 0.61183(18)
N1 N 0.7098(3) 0.7936(3) 0.73393(15)
N2 N 0.6478(3) 0.6527(3) 0.62770(16)
N3 N 0.6630(3) 0.4902(3) 0.80316(16)
N4 N 0.3976(3) 0.5573(3) 0.74290(16)
O1 O 0.3532(3) 0.8670(3) 0.67841(15)
O2 O 0.1922(3) 1.0591(3) 0.62583(18)
O3 O 0.3385(4) 0.8889(3) 0.93488(18)
O4 O 0.4640(3) 0.7954(3) 0.84128(14)
Mn1A Mn 0.47387(5) 1.29248(5) 0.26040(3)
Mn1A_2 Mn 0.47387(5) 0.29248(5) 1.26040(3)
C1A C 0.6901(4) 1.0300(4) 0.37330(18)
C2A C 0.5903(3) 1.0153(3) 0.43883(17)
C3A C 0.4974(3) 0.9401(3) 0.43213(17)
C4A C 0.4878(3) 0.8791(4) 0.36533(19)
H1A H 0.5465 0.8881 0.3244
C5A C 0.5942(3) 1.0761(3) 0.50468(16)
C6A C 0.6869(3) 1.1543(3) 0.5142(2)
H2A H 0.7450 1.1686 0.4738
C7A C 0.6937(4) 1.2080(4) 0.5787(2)
H3A H 0.7572 1.2560 0.5828
C8A C 0.3958(4) 0.8086(4) 0.3596(2)
H4A H 0.3914 0.7710 0.3150
C9A C 0.5803(4) 0.2157(4) 1.09144(19)
C10A C 0.5377(3) 0.3627(3) 1.04471(17)
C11A C 0.6336(3) 0.4383(4) 1.03962(18)
C12A C 0.7695(3) 0.3816(4) 1.0778(2)
H5A H 0.7964 0.2911 1.1071
C13A C 0.8598(4) 0.4560(5) 1.0724(2)
H6A H 0.9477 0.4165 1.0980
C14A C 0.4060(3) 0.4221(4) 1.00588(18)
C15A C 0.3055(4) 0.3480(4) 1.0090(2)
H7A H 0.3283 0.2571 1.0374
C16A C 0.8221(4) 0.5915(5) 1.0289(2)
H8A H 0.8855 0.6416 1.0257
C17A C 0.2060(4) 1.5444(4) 0.1694(2)
H9A H 0.1593 1.4784 0.1809
C18A C 0.1347(4) 1.6735(5) 0.1246(2)
H10A H 0.0419 1.6934 0.1073
C19A C 0.2016(4) 1.7720(4) 0.1058(2)
H11A H 0.1560 1.8585 0.0747
C20A C 0.3418(3) 1.7394(4) 0.1348(2)
C21A C 0.4193(4) 1.8383(4) 0.1199(2)
H12A H 0.3793 1.9247 0.0876
C22A C 0.5485(4) 1.8063(4) 0.1521(2)
H13A H 0.5956 1.8724 0.1429
C23A C 0.6155(3) 1.6730(4) 0.20033(19)
C24A C 0.7484(4) 1.6355(4) 0.2356(2)
H14A H 0.7982 1.6994 0.2288
C25A C 0.8058(4) 1.5060(5) 0.2800(2)
H15A H 0.8947 1.4806 0.3037
C26A C 0.7299(4) 1.4118(4) 0.2894(2)
H16A H 0.7702 1.3232 0.3198
C27A C 0.5439(3) 1.5726(4) 0.21334(18)
C28A C 0.4040(3) 1.6077(3) 0.18057(19)
C29A C 0.3796(4) 1.4175(4) 0.4241(2)
H17A H 0.4505 1.4577 0.4140
C30A C 0.3087(4) 1.4347(4) 0.4928(2)
H18A H 0.3332 1.4838 0.5278
C31A C 0.2036(4) 1.3793(4) 0.5084(2)
H19A H 0.1545 1.3910 0.5540
C32A C 0.1685(3) 1.3044(3) 0.45567(19)
C33A C 0.0613(4) 1.2396(4) 0.4678(2)
H20A H 0.0109 1.2463 0.5132
C34A C 0.0319(4) 1.1694(4) 0.4154(2)
H21A H -0.0376 1.1272 0.4254
C35A C 0.1048(3) 1.1579(4) 0.3443(2)
C36A C 0.0715(4) 1.0930(4) 0.2858(2)
H22A H -0.0014 1.0548 0.2921
C37A C 0.1452(4) 1.0862(4) 0.2208(2)
H23A H 0.1230 1.0446 0.1815
C38A C 0.2550(4) 1.1421(4) 0.2129(2)
H24A H 0.3068 1.1342 0.1681
C39A C 0.2137(3) 1.2164(3) 0.33099(18)
C40A C 0.2458(3) 1.2917(3) 0.38817(18)
N1A N 0.2902(3) 1.2064(3) 0.26607(15)
N2A N 0.3522(3) 1.3473(3) 0.37230(16)
N3A N 0.3370(3) 1.5098(3) 0.19684(16)
N4A N 0.6024(3) 1.4427(3) 0.25710(16)
O1A O 0.6468(3) 1.1330(3) 0.32159(15)
O2A O 0.8078(3) 0.9409(3) 0.37417(18)
O3A O 0.6615(4) 0.1111(3) 1.06512(18)
O4A O 0.5360(3) 0.2046(3) 1.15872(14)
O4A_2 O 0.5360(3) 1.2046(3) 0.15872(14)
O5 O 0.1544(4) 1.0474(4) 0.7999(2)
H25 H 0.182(6) 1.027(6) 0.8445(11)
H26 H 0.193(5) 1.036(6) 0.7586(16)
O6 O -0.0284(4) 1.2927(4) 0.6726(2)
H27 H -0.0535 1.3785 0.6555
O7 O 0.1162(9) 1.0765(10) 0.9862(8)
loop_
_geom_bond_atom_site_label_1
_geom_bond_atom_site_label_2
_geom_bond_site_symmetry_1
_geom_bond_site_symmetry_2
Mn1 N1 1_555 1_555
C1 C2 1_555 1_555
C2 C3 1_555 1_555
C3 C4 1_555 1_555
C4 H1 1_555 1_555
C5 C2 1_555 1_555
C6 C5 1_555 1_555
H2 C6 1_555 1_555
C7 C6 1_555 1_555
H3 C7 1_555 1_555
C8 C4 1_555 1_555
H4 C8 1_555 1_555
C9 C10 1_555 1_555
C10 C11 1_555 1_555
C11 C12 1_555 1_555
C12 H5 1_555 1_555
C13 C12 1_555 1_555
H6 C13 1_555 1_555
C14 C10 1_555 1_555
C15 C14 1_555 1_555
H7 C15 1_555 1_555
C16 C13 1_555 1_555
H8 C16 1_555 1_555
C17 H9 1_555 1_555
C18 C17 1_555 1_555
H10 C18 1_555 1_555
C19 C18 1_555 1_555
H11 C19 1_555 1_555
C20 C19 1_555 1_555
C21 C20 1_555 1_555
H12 C21 1_555 1_555
C22 C21 1_555 1_555
H13 C22 1_555 1_555
C23 C22 1_555 1_555
C24 C23 1_555 1_555
H14 C24 1_555 1_555
C25 C24 1_555 1_555
H15 C25 1_555 1_555
C26 C25 1_555 1_555
H16 C26 1_555 1_555
C27 C23 1_555 1_555
C28 C20 1_555 1_555
C29 H17 1_555 1_555
C30 C29 1_555 1_555
H18 C30 1_555 1_555
C31 C30 1_555 1_555
H19 C31 1_555 1_555
C32 C31 1_555 1_555
C33 C32 1_555 1_555
H20 C33 1_555 1_555
C34 C33 1_555 1_555
H21 C34 1_555 1_555
C35 C34 1_555 1_555
C36 C35 1_555 1_555
H22 C36 1_555 1_555
C37 C36 1_555 1_555
H23 C37 1_555 1_555
C38 C37 1_555 1_555
H24 C38 1_555 1_555
C39 C35 1_555 1_555
C40 C32 1_555 1_555
N1 C38 1_555 1_555
N2 Mn1 1_555 1_555
N3 Mn1 1_555 1_555
N4 Mn1 1_555 1_555
O1 Mn1 1_555 1_555
O2 C1 1_555 1_555
O3 C9 1_555 1_555
O4 Mn1 1_555 1_555
O5 H25 1_555 1_555
H26 O5 1_555 1_555
O6 H27 1_555 1_555
Mn1A N1A 1_555 1_555
Mn1A_2 O4A 1_555 1_555
C1A C2A 1_555 1_555
C2A C3A 1_555 1_555
C3A C5 1_555 1_555
C4A C3A 1_555 1_555
H1A C4A 1_555 1_555
C5A C3 1_555 1_555
C6A C5A 1_555 1_555
H2A C6A 1_555 1_555
C7A C8 1_555 1_555
H3A C7A 1_555 1_555
C8A C7 1_555 1_555
H4A C8A 1_555 1_555
C9A C10A 1_555 1_555
C10A C11A 1_555 1_555
C11A C14 1_555 1_555
C12A C11A 1_555 1_555
H5A C12A 1_555 1_555
C13A C12A 1_555 1_555
H6A C13A 1_555 1_555
C14A C11 1_555 1_555
C15A C16 1_555 1_555
H7A C15A 1_555 1_555
C16A C15 1_555 1_555
H8A C16A 1_555 1_555
C17A H9A 1_555 1_555
C18A C17A 1_555 1_555
H10A C18A 1_555 1_555
C19A C18A 1_555 1_555
H11A C19A 1_555 1_555
C20A C19A 1_555 1_555
C21A C20A 1_555 1_555
H12A C21A 1_555 1_555
C22A C21A 1_555 1_555
H13A C22A 1_555 1_555
C23A C22A 1_555 1_555
C24A C23A 1_555 1_555
H14A C24A 1_555 1_555
C25A C24A 1_555 1_555
H15A C25A 1_555 1_555
C26A C25A 1_555 1_555
H16A C26A 1_555 1_555
C27A C23A 1_555 1_555
C28A C20A 1_555 1_555
C29A H17A 1_555 1_555
C30A C29A 1_555 1_555
H18A C30A 1_555 1_555
C31A C30A 1_555 1_555
H19A C31A 1_555 1_555
C32A C31A 1_555 1_555
C33A C32A 1_555 1_555
H20A C33A 1_555 1_555
C34A C33A 1_555 1_555
H21A C34A 1_555 1_555
C35A C34A 1_555 1_555
C36A C35A 1_555 1_555
H22A C36A 1_555 1_555
C37A C36A 1_555 1_555
H23A C37A 1_555 1_555
C38A C37A 1_555 1_555
H24A C38A 1_555 1_555
C39A C35A 1_555 1_555
C40A C32A 1_555 1_555
N1A C38A 1_555 1_555
N2A Mn1A 1_555 1_555
N3A Mn1A 1_555 1_555
N4A Mn1A 1_555 1_555
O1A Mn1A 1_555 1_555
O2A C1A 1_555 1_555
O3A C9A 1_555 1_555
O4A C9A 1_555 1_555
O4A_2 Mn1A 1_555 1_555
C1 O1 1_555 1_555
C9 O4 1_555 1_555
C17 N3 1_555 1_555
C26 N4 1_555 1_555
C27 C28 1_555 1_555
C27 N4 1_555 1_555
C28 N3 1_555 1_555
C29 N2 1_555 1_555
C39 C40 1_555 1_555
C39 N1 1_555 1_555
C40 N2 1_555 1_555
C1A O1A 1_555 1_555
C2A C5A 1_555 1_555
C4A C8A 1_555 1_555
C6A C7A 1_555 1_555
C10A C14A 1_555 1_555
C13A C16A 1_555 1_555
C14A C15A 1_555 1_555
C17A N3A 1_555 1_555
C26A N4A 1_555 1_555
C27A C28A 1_555 1_555
C27A N4A 1_555 1_555
C28A N3A 1_555 1_555
C29A N2A 1_555 1_555
C39A C40A 1_555 1_555
C39A N1A 1_555 1_555
C40A N2A 1_555 1_555

#END
