
#######################################################################
#
#                 Cambridge Crystallographic Data Centre
#                                CCDC 
#
#######################################################################
#
# If this CIF has been generated from an entry in the Cambridge 
# Structural Database, then it will include bibliographic, chemical, 
# crystal, experimental, refinement or atomic coordinate data resulting 
# from the CCDC's data processing and validation procedures.
#
#######################################################################

data_XOCNOU
_symmetry_cell_setting           monoclinic
_symmetry_space_group_name_H-M   'P 21/c'
_symmetry_Int_Tables_number      14
_space_group_name_Hall           '-P 2ybc'
loop_
_symmetry_equiv_pos_site_id
_symmetry_equiv_pos_as_xyz
1 x,y,z
2 -x,1/2+y,1/2-z
3 -x,-y,-z
4 x,1/2-y,1/2+z
_cell_length_a                   12.5036(3)
_cell_length_b                   20.3451(4)
_cell_length_c                   13.3152(3)
_cell_angle_alpha                90
_cell_angle_beta                 113.8940(10)
_cell_angle_gamma                90
_cell_volume                     3096.92
loop_
_atom_site_label
_atom_site_type_symbol
_atom_site_fract_x
_atom_site_fract_y
_atom_site_fract_z
Cu1 Cu 0.34418(3) 0.294676(17) 0.39130(3)
Al1 Al 0.36059(8) 0.17543(4) 0.12055(7)
P1 P 0.53626(7) 0.31907(4) 0.46789(6)
P2 P 0.16713(7) 0.34236(4) 0.33899(6)
Cl1 Cl 0.32187(7) 0.22619(3) 0.54493(6)
Cl2 Cl 0.33052(7) 0.19450(3) 0.27284(6)
C1 C 0.6257(3) 0.24648(15) 0.4662(3)
H1 H 0.5890 0.2282 0.3900
C2 C 0.7538(3) 0.25901(19) 0.4890(3)
H2 H 0.7966 0.2712 0.5663
H3 H 0.7590 0.2949 0.4420
H4 H 0.7881 0.2191 0.4733
C3 C 0.6146(3) 0.19301(17) 0.5416(3)
H5 H 0.6562 0.1535 0.5350
H6 H 0.5318 0.1825 0.5204
H7 H 0.6487 0.2086 0.6177
C4 C 0.5765(3) 0.38320(16) 0.3916(3)
H8 H 0.6633 0.3891 0.4264
C5 C 0.5415(4) 0.36184(19) 0.2728(3)
H9 H 0.4568 0.3546 0.2381
H10 H 0.5822 0.3210 0.2710
H11 H 0.5629 0.3962 0.2328
C6 C 0.5194(4) 0.44787(17) 0.3991(3)
H12 H 0.4356 0.4409 0.3782
H13 H 0.5307 0.4800 0.3494
H14 H 0.5553 0.4644 0.4747
C7 C 0.5966(3) 0.34974(14) 0.6097(2)
C8 C 0.7115(3) 0.37338(16) 0.6548(3)
H15 H 0.7568 0.3719 0.6123
C9 C 0.0503(3) 0.29078(16) 0.3523(3)
H16 H 0.0742 0.2846 0.4330
C10 C -0.0689(3) 0.3245(2) 0.3106(3)
H17 H -0.0983 0.3307 0.2309
H18 H -0.0611 0.3674 0.3464
H19 H -0.1238 0.2972 0.3277
C11 C 0.0428(3) 0.22142(16) 0.3046(3)
H20 H -0.0085 0.1942 0.3269
H21 H 0.1211 0.2019 0.3323
H22 H 0.0110 0.2239 0.2243
C12 C 0.1030(3) 0.38015(16) 0.2010(2)
H23 H 0.0322 0.4058 0.1942
C13 C 0.1922(3) 0.42740(18) 0.1888(3)
H24 H 0.2569 0.4022 0.1844
H25 H 0.2223 0.4568 0.2525
H26 H 0.1544 0.4534 0.1217
C14 C 0.1779(3) 0.40849(14) 0.4362(2)
C15 C 0.1155(3) 0.46764(15) 0.4029(3)
H27 H 0.0685 0.4747 0.3272
C16 C 0.0665(3) 0.32823(18) 0.1100(3)
H28 H 0.0437 0.3499 0.0386
H29 H 0.0001 0.3030 0.1109
H30 H 0.1323 0.2985 0.1222
C17 C 0.1212(3) 0.51569(15) 0.4780(3)
H31 H 0.0783 0.5554 0.4542
C18 C 0.1893(3) 0.50570(15) 0.5876(3)
H32 H 0.1936 0.5384 0.6399
C19 C 0.2494(3) 0.39720(14) 0.5477(2)
C20 C 0.2519(3) 0.44756(14) 0.6214(3)
H33 H 0.2984 0.4415 0.6975
C21 C 0.5271(3) 0.35128(13) 0.6712(2)
C22 C 0.5795(3) 0.37934(14) 0.7762(2)
H34 H 0.5347 0.3827 0.8190
C23 C 0.6938(3) 0.40253(15) 0.8207(3)
H35 H 0.7258 0.4208 0.8925
C24 C 0.7605(3) 0.39875(16) 0.7599(3)
H36 H 0.8393 0.4135 0.7900
Al1C Al 0.36059(8) 0.32457(4) 0.62055(7)
Cl1C Cl 0.32187(7) 0.27381(3) 0.04493(6)
C19C C 0.2494(3) 0.10280(14) 0.0477(2)
C21C C 0.5271(3) 0.14872(13) 0.1712(2)
C25 C 0.7627(5) 0.5643(2) 0.0884(4)
H37 H 0.7701 0.5922 0.1519
H38 H 0.7448 0.5934 0.0241
Cl3 Cl 0.6496(2) 0.51066(12) 0.0619(2)
Cl4 Cl 0.89470(15) 0.52492(9) 0.11685(11)
loop_
_geom_bond_atom_site_label_1
_geom_bond_atom_site_label_2
_geom_bond_site_symmetry_1
_geom_bond_site_symmetry_2
Cu1 P1 1_555 1_555
Al1 Cl2 1_555 1_555
P1 C1 1_555 1_555
P2 Cu1 1_555 1_555
Cl1 Cu1 1_555 1_555
Cl2 Cu1 1_555 1_555
C1 H1 1_555 1_555
C2 C1 1_555 1_555
H2 C2 1_555 1_555
H3 C2 1_555 1_555
H4 C2 1_555 1_555
C3 C1 1_555 1_555
H5 C3 1_555 1_555
H6 C3 1_555 1_555
H7 C3 1_555 1_555
C4 P1 1_555 1_555
H8 C4 1_555 1_555
C5 C4 1_555 1_555
H9 C5 1_555 1_555
H10 C5 1_555 1_555
H11 C5 1_555 1_555
C6 C4 1_555 1_555
H12 C6 1_555 1_555
H13 C6 1_555 1_555
H14 C6 1_555 1_555
C7 P1 1_555 1_555
C8 C7 1_555 1_555
H15 C8 1_555 1_555
C9 P2 1_555 1_555
H16 C9 1_555 1_555
C10 C9 1_555 1_555
H17 C10 1_555 1_555
H18 C10 1_555 1_555
H19 C10 1_555 1_555
C11 C9 1_555 1_555
H20 C11 1_555 1_555
H21 C11 1_555 1_555
H22 C11 1_555 1_555
C12 P2 1_555 1_555
H23 C12 1_555 1_555
C13 C12 1_555 1_555
H24 C13 1_555 1_555
H25 C13 1_555 1_555
H26 C13 1_555 1_555
C14 P2 1_555 1_555
C15 C14 1_555 1_555
H27 C15 1_555 1_555
C16 C12 1_555 1_555
H28 C16 1_555 1_555
H29 C16 1_555 1_555
H30 C16 1_555 1_555
C17 C15 1_555 1_555
H31 C17 1_555 1_555
C18 C17 1_555 1_555
H32 C18 1_555 1_555
C19 C14 1_555 1_555
C20 C18 1_555 1_555
H33 C20 1_555 1_555
C21 C7 1_555 1_555
C22 C21 1_555 1_555
H34 C22 1_555 1_555
C23 C22 1_555 1_555
H35 C23 1_555 1_555
C24 C8 1_555 1_555
H36 C24 1_555 1_555
C25 H37 1_555 1_555
H38 C25 1_555 1_555
Cl3 C25 1_555 1_555
Cl4 C25 1_555 1_555
Al1C Cl1 1_555 1_555
Cl1C Al1 1_555 1_555
C19C Al1 1_555 1_555
C21C Al1 1_555 1_555
C19 C20 1_555 1_555
C19 Al1C 1_555 1_555
C21 Al1C 1_555 1_555
C23 C24 1_555 1_555

#END
