
#######################################################################
#
#                 Cambridge Crystallographic Data Centre
#                                CCDC 
#
#######################################################################
#
# If this CIF has been generated from an entry in the Cambridge 
# Structural Database, then it will include bibliographic, chemical, 
# crystal, experimental, refinement or atomic coordinate data resulting 
# from the CCDC's data processing and validation procedures.
#
#######################################################################

data_XOCNIN
_symmetry_cell_setting           triclinic
_symmetry_space_group_name_H-M   'P -1'
_symmetry_Int_Tables_number      2
_space_group_name_Hall           '-P 1'
loop_
_symmetry_equiv_pos_site_id
_symmetry_equiv_pos_as_xyz
1 x,y,z
2 -x,-y,-z
_cell_length_a                   9.1104(18)
_cell_length_b                   10.516(2)
_cell_length_c                   11.314(2)
_cell_angle_alpha                97.49(3)
_cell_angle_beta                 102.05(3)
_cell_angle_gamma                97.66(3)
_cell_volume                     1036.51
loop_
_atom_site_label
_atom_site_type_symbol
_atom_site_fract_x
_atom_site_fract_y
_atom_site_fract_z
Mn1 Mn 0.58338(4) 0.89114(3) 0.67871(3)
C1 C 0.5315(3) 0.6613(2) 0.45148(18)
H1 H 0.4375 0.6878 0.4299
C2 C 0.5574(3) 0.5508(2) 0.38335(19)
H2 H 0.4834 0.5051 0.3164
C3 C 0.6950(3) 0.5103(2) 0.4170(2)
H3 H 0.7144 0.4348 0.3746
C4 C 0.8049(3) 0.5829(2) 0.5147(2)
H4 H 0.8988 0.5568 0.5384
C5 C 0.7730(3) 0.6950(2) 0.57670(19)
C6 C 0.8879(3) 0.7836(2) 0.67747(18)
C7 C 1.0425(3) 0.7797(2) 0.6980(2)
H5 H 1.0782 0.7168 0.6510
C8 C 1.1431(3) 0.8691(2) 0.7883(2)
H6 H 1.2471 0.8671 0.8029
C9 C 1.0876(3) 0.9616(2) 0.85667(19)
H7 H 1.1529 1.0229 0.9184
C10 C 0.9321(3) 0.9611(2) 0.83123(18)
H8 H 0.8946 1.0240 0.8768
C11 C 0.7037(2) 1.0768(2) 0.50570(18)
C12 C 0.8573(2) 1.0366(2) 0.50416(17)
C13 C 0.9882(2) 1.1047(2) 0.58824(17)
C14 C 0.9834(3) 1.2128(2) 0.67803(18)
H9 H 0.8905 1.2385 0.6820
C15 C 1.1128(3) 1.2784(2) 0.75763(18)
H10 H 1.1074 1.3485 0.8149
C16 C 0.8665(2) 0.9325(2) 0.41556(17)
C17 C 0.7345(2) 0.8610(2) 0.32941(17)
H11 H 0.6399 0.8845 0.3305
C18 C 1.2553(3) 1.2407(2) 0.75398(18)
H12 H 1.3428 1.2860 0.8092
C19 C 0.5301(2) 0.7456(2) 0.90075(17)
C20 C 0.5127(2) 0.6164(2) 0.94978(17)
C21 C 0.6206(2) 0.5346(2) 0.94276(17)
C22 C 0.7454(3) 0.5644(2) 0.88687(18)
H13 H 0.7572 0.6419 0.8559
C23 C 0.8469(3) 0.4824(2) 0.87800(19)
H14 H 0.9255 0.5030 0.8394
C24 C 0.8334(3) 0.3652(2) 0.92746(19)
H15 H 0.9031 0.3092 0.9207
C25 C 0.7199(3) 0.3345(2) 0.98441(18)
H16 H 0.7147 0.2585 1.0182
C26 C 0.3917(2) 0.5842(2) 1.00610(17)
N1 N 0.6360(2) 0.73201(17) 0.54735(15)
N2 N 0.8330(2) 0.87404(17) 0.74395(14)
O1 O 0.64434(16) 1.05746(14) 0.59379(12)
O2 O 0.5901(2) 1.02579(16) 0.84506(14)
H17 H 0.582(4) 0.976(3) 0.895(2)
H18 H 0.541(4) 1.085(2) 0.858(3)
O3 O 0.64770(16) 1.13065(14) 0.41753(12)
O4 O 0.51805(17) 0.74040(14) 0.78830(12)
O5 O 0.55793(19) 0.84606(14) 0.98003(12)
Mn1A Mn 1.41662(4) 1.10886(3) 0.32129(3)
Mn1A_2 Mn 0.41662(4) 1.10886(3) 0.32129(3)
Mn1_2 Mn 1.58338(4) 0.89114(3) 0.67871(3)
Mn1A_3 Mn 0.41662(4) 0.10886(3) 1.32129(3)
C1A C 1.4685(3) 1.3387(2) 0.54852(18)
H1A H 1.5625 1.3122 0.5701
C2A C 1.4426(3) 1.4492(2) 0.61665(19)
H2A H 1.5166 1.4949 0.6836
C3A C 1.3050(3) 1.4897(2) 0.5830(2)
H3A H 1.2856 1.5652 0.6254
C4A C 1.1951(3) 1.4171(2) 0.4853(2)
H4A H 1.1012 1.4432 0.4616
C5A C 1.2270(3) 1.3050(2) 0.42330(19)
C6A C 1.1121(3) 1.2164(2) 0.32253(18)
C7A C 0.9575(3) 1.2203(2) 0.3020(2)
H5A H 0.9218 1.2832 0.3490
C8A C 0.8569(3) 1.1309(2) 0.2117(2)
H6A H 0.7529 1.1329 0.1971
C9A C 0.9124(3) 1.0384(2) 0.14333(19)
H7A H 0.8471 0.9771 0.0816
C10A C 1.0679(3) 1.0389(2) 0.16877(18)
H8A H 1.1054 0.9760 0.1232
C11A C 1.2963(2) 0.9232(2) 0.49430(18)
C12A C 1.1427(2) 0.9634(2) 0.49584(17)
C13A C 1.0118(2) 0.8953(2) 0.41176(17)
C14A C 1.0166(3) 0.7872(2) 0.32197(18)
H9A H 1.1095 0.7615 0.3180
C15A C 0.8872(3) 0.7216(2) 0.24237(18)
H10A H 0.8926 0.6515 0.1851
C16A C 1.1335(2) 1.0675(2) 0.58444(17)
C17A C 1.2655(2) 1.1390(2) 0.67059(17)
H11A H 1.3601 1.1155 0.6695
C18A C 0.7447(3) 0.7593(2) 0.24602(18)
H12A H 0.6572 0.7140 0.1908
C19A C 0.4699(2) 0.2544(2) 1.09925(17)
C20A C 0.4873(2) 0.3836(2) 1.05022(17)
C21A C 0.3794(2) 0.4654(2) 1.05724(17)
C22A C 0.2546(3) 0.4356(2) 1.11313(18)
H13A H 0.2428 0.3581 1.1441
C23A C 0.1531(3) 0.5176(2) 1.12200(19)
H14A H 0.0745 0.4970 1.1606
C24A C 0.1666(3) 0.6348(2) 1.07254(19)
H15A H 0.0969 0.6908 1.0793
C25A C 0.2801(3) 0.6655(2) 1.01559(18)
H16A H 0.2853 0.7415 0.9818
C26A C 0.6083(2) 0.4158(2) 0.99390(17)
N1A N 1.3640(2) 1.26799(17) 0.45265(15)
N2A N 1.1670(2) 1.12596(17) 0.25605(14)
O1A O 1.35566(16) 0.94254(14) 0.40621(12)
O2A O 1.4099(2) 0.97421(16) 0.15494(14)
H17A H 1.418(4) 1.024(3) 0.105(2)
H18A H 1.459(4) 0.915(2) 0.142(3)
O3A O 1.35230(16) 0.86935(14) 0.58247(12)
O3A_2 O 0.35230(16) 0.86935(14) 0.58247(12)
O3_2 O 1.64770(16) 1.13065(14) 0.41753(12)
O4A O 0.48195(17) 0.25960(14) 1.21170(12)
O4A_2 O 1.48195(17) 1.25960(14) 0.21170(12)
O5A O 0.44207(19) 0.15394(14) 1.01997(12)
loop_
_geom_bond_atom_site_label_1
_geom_bond_atom_site_label_2
_geom_bond_site_symmetry_1
_geom_bond_site_symmetry_2
Mn1 N1 1_555 1_555
C1 H1 1_555 1_555
C2 C1 1_555 1_555
H2 C2 1_555 1_555
C3 C2 1_555 1_555
H3 C3 1_555 1_555
C4 C3 1_555 1_555
H4 C4 1_555 1_555
C5 C4 1_555 1_555
C6 C5 1_555 1_555
C7 C6 1_555 1_555
H5 C7 1_555 1_555
C8 C7 1_555 1_555
H6 C8 1_555 1_555
C9 C8 1_555 1_555
H7 C9 1_555 1_555
C10 C9 1_555 1_555
H8 C10 1_555 1_555
C11 C12 1_555 1_555
C12 C13 1_555 1_555
C13 C14 1_555 1_555
C14 H9 1_555 1_555
C15 C14 1_555 1_555
H10 C15 1_555 1_555
C16 C12 1_555 1_555
C17 C16 1_555 1_555
H11 C17 1_555 1_555
C18 C15 1_555 1_555
H12 C18 1_555 1_555
C19 C20 1_555 1_555
C20 C21 1_555 1_555
C21 C22 1_555 1_555
C22 H13 1_555 1_555
C23 C22 1_555 1_555
H14 C23 1_555 1_555
C24 C23 1_555 1_555
H15 C24 1_555 1_555
C25 C24 1_555 1_555
H16 C25 1_555 1_555
C26 C20 1_555 1_555
N1 C1 1_555 1_555
N2 Mn1 1_555 1_555
O1 Mn1 1_555 1_555
O2 Mn1 1_555 1_555
H17 O2 1_555 1_555
H18 O2 1_555 1_555
O3 C11 1_555 1_555
O4 Mn1 1_555 1_555
O5 C19 1_555 1_555
Mn1A N1A 1_555 1_555
Mn1A_2 O3 1_555 1_555
Mn1_2 O3A 1_555 1_555
Mn1A_3 O4A 1_555 1_555
C1A H1A 1_555 1_555
C2A C1A 1_555 1_555
H2A C2A 1_555 1_555
C3A C2A 1_555 1_555
H3A C3A 1_555 1_555
C4A C3A 1_555 1_555
H4A C4A 1_555 1_555
C5A C4A 1_555 1_555
C6A C5A 1_555 1_555
C7A C6A 1_555 1_555
H5A C7A 1_555 1_555
C8A C7A 1_555 1_555
H6A C8A 1_555 1_555
C9A C8A 1_555 1_555
H7A C9A 1_555 1_555
C10A C9A 1_555 1_555
H8A C10A 1_555 1_555
C11A C12A 1_555 1_555
C12A C13A 1_555 1_555
C13A C16 1_555 1_555
C14A C13A 1_555 1_555
H9A C14A 1_555 1_555
C15A C14A 1_555 1_555
H10A C15A 1_555 1_555
C16A C13 1_555 1_555
C17A C18 1_555 1_555
H11A C17A 1_555 1_555
C18A C17 1_555 1_555
H12A C18A 1_555 1_555
C19A C20A 1_555 1_555
C20A C21A 1_555 1_555
C21A C26 1_555 1_555
C22A C21A 1_555 1_555
H13A C22A 1_555 1_555
C23A C22A 1_555 1_555
H14A C23A 1_555 1_555
C24A C23A 1_555 1_555
H15A C24A 1_555 1_555
C25A C26 1_555 1_555
H16A C25A 1_555 1_555
C26A C21 1_555 1_555
N1A C1A 1_555 1_555
N2A Mn1A 1_555 1_555
O1A Mn1A 1_555 1_555
O2A Mn1A 1_555 1_555
H17A O2A 1_555 1_555
H18A O2A 1_555 1_555
O3A C11A 1_555 1_555
O3A_2 Mn1 1_555 1_555
O3_2 Mn1A 1_555 1_555
O4A C19A 1_555 1_555
O4A_2 Mn1A 1_555 1_555
O5A C19A 1_555 1_555
C5 N1 1_555 1_555
C6 N2 1_555 1_555
C10 N2 1_555 1_555
C11 O1 1_555 1_555
C19 O4 1_555 1_555
C25 C26A 1_555 1_555
C5A N1A 1_555 1_555
C6A N2A 1_555 1_555
C10A N2A 1_555 1_555
C11A O1A 1_555 1_555
C12A C16A 1_555 1_555
C15A C18A 1_555 1_555
C16A C17A 1_555 1_555
C20A C26A 1_555 1_555
C24A C25A 1_555 1_555

#END
