
#######################################################################
#
#                 Cambridge Crystallographic Data Centre
#                                CCDC 
#
#######################################################################
#
# If this CIF has been generated from an entry in the Cambridge 
# Structural Database, then it will include bibliographic, chemical, 
# crystal, experimental, refinement or atomic coordinate data resulting 
# from the CCDC's data processing and validation procedures.
#
#######################################################################

data_XOCQUD
_symmetry_cell_setting           triclinic
_symmetry_space_group_name_H-M   'P 1'
_symmetry_Int_Tables_number      1
_space_group_name_Hall           'P 1'
loop_
_symmetry_equiv_pos_site_id
_symmetry_equiv_pos_as_xyz
1 x,y,z
_cell_length_a                   11.2148(2)
_cell_length_b                   17.3605(2)
_cell_length_c                   26.9709(5)
_cell_angle_alpha                84.0670(10)
_cell_angle_beta                 85.012(2)
_cell_angle_gamma                71.920(2)
_cell_volume                     4956.7
loop_
_atom_site_label
_atom_site_type_symbol
_atom_site_fract_x
_atom_site_fract_y
_atom_site_fract_z
O38 O -0.583(2) 0.4431(13) 0.8682(7)
O39 O -0.609(3) 0.5742(12) 0.8329(13)
O40 O -0.573(2) 0.4659(17) 0.7818(7)
O41 O -0.7686(10) 0.5120(15) 0.8288(10)
Cl1 Cl -0.6363(5) 0.5002(3) 0.8268(3)
O42 O 0.0107(18) -0.305(2) 0.3468(18)
O43 O -0.104(3) -0.3883(13) 0.3301(12)
O44 O -0.138(5) -0.332(3) 0.4081(6)
O45 O -0.201(3) -0.2465(13) 0.3339(15)
Cl2 Cl -0.1114(7) -0.3184(4) 0.3558(3)
O46 O 0.012(2) 0.6927(14) 0.5556(9)
O47 O 0.512(2) 0.5175(15) 0.5057(11)
O48 O 0.209(4) 0.538(2) 0.6953(12)
O49 O -0.019(3) -0.4032(16) 0.6331(12)
O50 O 0.288(2) 0.5525(9) 0.5592(9)
O51 O 0.6873(14) 0.4417(14) 0.6292(8)
O52 O -0.436(2) -0.2471(14) 0.5752(12)
O53 O 0.345(3) 0.6256(19) 0.6412(13)
Sm1 Sm -0.24666(5) -0.05589(4) 0.59488(2)
O1 O -0.1863(11) -0.1361(9) 0.6709(5)
O2 O -0.4032(13) -0.1183(8) 0.6390(6)
O3 O -0.2376(15) -0.1890(8) 0.5704(7)
O4 O -0.3454(8) 0.0335(6) 0.6557(3)
O5 O -0.1145(9) -0.0907(5) 0.5196(3)
O6 O -0.2481(8) 0.0845(5) 0.5477(3)
O7 O -0.0763(8) -0.0097(5) 0.6169(3)
O8 O -0.4239(8) -0.0156(6) 0.5516(4)
C1 C -0.0695(19) -0.1816(10) 0.6768(6)
C2 C -0.4484(13) 0.0503(9) 0.6819(5)
C3 C -0.0287(12) -0.0678(8) 0.5006(4)
Sm2 Sm -0.05884(5) 0.11140(4) 0.56859(2)
C4 C -0.3457(9) 0.1305(6) 0.5269(4)
Sm3 Sm 0.13538(5) -0.10303(4) 0.60798(2)
C5 C -0.0412(14) -0.2211(9) 0.7281(6)
O9 O 0.0128(11) -0.1866(6) 0.6429(4)
C6 C -0.4426(13) 0.0491(8) 0.7382(5)
O10 O -0.5533(9) 0.0677(7) 0.6647(4)
C7 C 0.0056(11) -0.0783(7) 0.4446(5)
O11 O 0.0326(9) -0.0293(7) 0.5214(3)
O12 O 0.0563(11) 0.1423(7) 0.4941(4)
O13 O -0.1852(9) 0.2337(6) 0.5261(4)
O14 O 0.1507(8) 0.0310(6) 0.5829(3)
O15 O 0.0507(7) 0.1896(5) 0.6071(3)
O16 O -0.1723(9) 0.1588(6) 0.6451(3)
C8 C -0.3462(12) 0.1347(7) 0.4706(4)
O17 O -0.4408(8) 0.1728(5) 0.5497(3)
O18 O 0.2955(10) -0.2072(7) 0.6557(4)
O19 O 0.3375(9) -0.0914(7) 0.6470(4)
O20 O 0.0844(9) -0.0619(6) 0.6953(3)
O21 O 0.1640(10) -0.2092(6) 0.5496(4)
O22 O 0.3069(10) -0.1456(7) 0.5420(4)
C9 C -0.1381(19) -0.2178(11) 0.7662(7)
C10 C 0.0845(15) -0.2602(9) 0.7378(6)
C11 C -0.5507(12) 0.0828(8) 0.7649(5)
C12 C -0.3276(11) 0.0185(9) 0.7614(5)
Sm4 Sm -0.74193(5) 0.09920(3) 0.62783(2)
C13 C 0.0998(14) -0.0523(9) 0.4198(5)
C14 C -0.0616(12) -0.1145(8) 0.4189(5)
C15 C 0.0997(12) 0.1990(7) 0.4754(4)
C16 C -0.1645(13) 0.3005(11) 0.5126(6)
Sm5 Sm 0.07281(6) 0.31937(4) 0.57509(3)
C17 C -0.4528(13) 0.1735(9) 0.4464(5)
C18 C -0.2333(11) 0.0963(8) 0.4436(5)
Sm6 Sm -0.54793(5) 0.27779(4) 0.60158(2)
C19 C 0.3385(14) -0.1560(10) 0.6707(6)
C20 C 0.1146(14) -0.0114(9) 0.7162(6)
C21 C 0.2582(13) -0.1945(8) 0.5236(5)
C22 C -0.1055(16) -0.2495(12) 0.8142(7)
C23 C 0.1141(17) -0.2909(10) 0.7858(7)
C24 C -0.5479(12) 0.0863(8) 0.8165(5)
C25 C -0.3265(14) 0.0208(9) 0.8131(5)
C26 C 0.1264(14) -0.0607(10) 0.3678(5)
C27 C -0.0420(13) -0.1203(8) 0.3676(5)
C28 C 0.1133(13) 0.2074(8) 0.4201(5)
O23 O 0.1324(11) 0.2449(7) 0.5005(4)
C29 C -0.1850(11) 0.3368(7) 0.4604(5)
O24 O -0.1187(11) 0.3381(8) 0.5406(4)
O25 O 0.1485(9) 0.0479(6) 0.6953(3)
O26 O 0.2071(8) 0.2003(6) 0.6869(3)
O27 O 0.3730(7) 0.0549(5) 0.5503(3)
O28 O 0.2896(7) 0.2243(5) 0.5839(3)
O29 O -0.0403(12) 0.4680(8) 0.5685(7)
O30 O -0.0751(10) 0.3410(7) 0.6496(4)
O31 O 0.0887(11) 0.3808(7) 0.6536(4)
O32 O 0.1859(10) 0.3920(7) 0.5216(5)
C30 C -0.4539(13) 0.1736(9) 0.3953(5)
C31 C -0.2326(12) 0.0989(9) 0.3921(5)
C32 C 0.3957(13) -0.1740(10) 0.7219(5)
C33 C 0.1066(11) -0.0196(7) 0.7735(5)
C34 C 0.3040(13) -0.2266(9) 0.4762(5)
C35 C 0.0194(17) -0.2850(10) 0.8243(6)
C36 C -0.4344(11) 0.0554(7) 0.8404(5)
C37 C 0.0552(12) -0.0899(8) 0.3414(4)
C38 C 0.1711(16) 0.2647(10) 0.3962(6)
C39 C 0.0596(14) 0.1671(10) 0.3911(6)
C40 C -0.2327(15) 0.2994(9) 0.4273(5)
C41 C -0.144(2) 0.4048(11) 0.4426(7)
C42 C 0.2606(11) 0.2422(8) 0.7052(4)
C43 C 0.4744(11) 0.0148(8) 0.5303(4)
C44 C -0.0136(13) 0.3746(8) 0.6714(6)
C45 C 0.2933(15) 0.3802(8) 0.5016(7)
C46 C -0.3424(13) 0.1340(8) 0.3670(5)
C47 C 0.4234(15) -0.1151(10) 0.7450(8)
C48 C 0.4138(18) -0.2540(12) 0.7468(7)
C49 C 0.1566(12) 0.0290(8) 0.7994(5)
C50 C 0.0560(17) -0.0759(9) 0.7998(5)
C51 C 0.2404(15) -0.2684(9) 0.4524(6)
C52 C 0.4088(19) -0.2100(14) 0.4502(8)
C53 C 0.0562(16) -0.3175(10) 0.8741(7)
C54 C -0.4342(12) 0.0608(8) 0.8954(5)
C55 C 0.0692(19) -0.0916(11) 0.2862(6)
C56 C 0.1800(18) 0.2759(9) 0.3459(6)
C57 C 0.0632(16) 0.1807(11) 0.3399(6)
C58 C -0.2418(16) 0.3304(11) 0.3783(7)
C59 C -0.157(2) 0.4330(11) 0.3929(8)
C60 C 0.2270(11) 0.2628(7) 0.7573(5)
O33 O 0.3503(9) 0.2656(6) 0.6805(3)
C61 C 0.4749(11) -0.0023(7) 0.4758(4)
O34 O 0.3153(13) 0.4139(8) 0.6241(6)
O35 O 0.5766(12) 0.3684(8) 0.5718(6)
O36 O 0.6287(9) 0.2306(7) 0.6475(3)
O37 O 0.3945(11) 0.3418(6) 0.5196(4)
C62 C -0.0610(14) 0.4050(10) 0.7220(7)
C63 C 0.2966(15) 0.4153(9) 0.4475(6)
C64 C -0.3377(13) 0.1340(8) 0.3129(5)
C65 C 0.4582(16) -0.1273(10) 0.7927(6)
C66 C 0.441(2) -0.2629(11) 0.7963(7)
C67 C 0.1518(13) 0.0198(9) 0.8500(5)
C68 C 0.0520(17) -0.0832(9) 0.8513(5)
C69 C 0.2738(16) -0.2925(10) 0.4064(6)
C70 C 0.454(2) -0.2396(14) 0.4072(8)
C71 C -0.006(2) -0.3634(12) 0.9058(7)
C72 C 0.161(2) -0.3073(15) 0.8915(8)
C73 C -0.5164(17) 0.1272(9) 0.9184(5)
C74 C -0.3586(16) 0.0000(9) 0.9264(6)
C75 C 0.1383(16) -0.0449(10) 0.2573(7)
C76 C 0.0240(18) -0.1377(10) 0.2584(6)
C77 C 0.1257(13) 0.2366(9) 0.3167(5)
C78 C -0.1965(14) 0.3945(10) 0.3579(6)
C79 C 0.2942(13) 0.3029(9) 0.7813(5)
C80 C 0.1321(13) 0.2392(8) 0.7835(5)
C81 C 0.3652(11) 0.0342(9) 0.4500(5)
C82 C 0.5831(13) -0.0486(8) 0.4519(5)
C83 C 0.7303(11) 0.1973(7) 0.6653(4)
C84 C -0.169(2) 0.3903(10) 0.7454(7)
C85 C 0.0023(15) 0.4448(10) 0.7492(6)
C86 C 0.1909(16) 0.4588(12) 0.4234(8)
C87 C 0.4140(17) 0.3956(10) 0.4193(6)
C88 C -0.4125(17) 0.1974(10) 0.2818(6)
C89 C -0.2600(15) 0.0646(9) 0.2879(5)
C90 C 0.4604(15) -0.2016(8) 0.8211(5)
C91 C 0.1056(12) -0.0390(8) 0.8778(4)
C92 C 0.381(2) -0.2799(11) 0.3830(7)
C93 C 0.0340(19) -0.3943(11) 0.9519(6)
C94 C 0.197(2) -0.3313(13) 0.9435(7)
C95 C -0.5165(18) 0.1314(11) 0.9683(6)
C96 C -0.3587(17) 0.0063(9) 0.9772(6)
C97 C 0.150(2) -0.0419(14) 0.2090(9)
C98 C 0.0306(16) -0.1299(10) 0.2097(6)
C99 C 0.1203(13) 0.2525(8) 0.2614(5)
C100 C -0.1948(16) 0.4199(12) 0.3060(6)
C101 C 0.2671(13) 0.3140(8) 0.8318(5)
C102 C 0.1054(12) 0.2520(8) 0.8325(5)
C103 C 0.3696(12) 0.0264(8) 0.3997(5)
C104 C 0.5853(12) -0.0593(8) 0.4006(5)
C105 C 0.7371(11) 0.2010(7) 0.7219(5)
C106 C -0.2190(17) 0.4153(10) 0.7910(6)
C107 C -0.0473(16) 0.4682(9) 0.7975(6)
C108 C 0.1958(17) 0.4885(13) 0.3738(8)
C109 C 0.4151(16) 0.4275(15) 0.3695(7)
C110 C -0.402(2) 0.1901(10) 0.2307(6)
C111 C -0.2584(16) 0.0658(9) 0.2381(6)
C112 C 0.4868(16) -0.2142(9) 0.8749(6)
C113 C 0.1053(15) -0.0501(9) 0.9332(5)
C114 C 0.442(3) -0.2979(16) 0.3308(11)
N1 N 0.1328(15) -0.3756(8) 0.9725(5)
N2 N -0.4391(11) 0.0744(7) 0.9994(4)
N3 N 0.0972(13) -0.0839(9) 0.1818(4)
C115 C 0.200(2) 0.2997(16) 0.2353(7)
C116 C 0.088(3) 0.218(2) 0.2297(13)
C117 C -0.1317(19) 0.4694(10) 0.2809(6)
C118 C -0.286(4) 0.428(3) 0.2748(17)
C119 C 0.1794(12) 0.2850(8) 0.8593(5)
C120 C 0.4786(11) -0.0207(7) 0.3733(5)
C121 C 0.8467(12) 0.1651(8) 0.7451(5)
C122 C 0.6272(13) 0.2427(9) 0.7498(5)
C123 C -0.1525(15) 0.4537(8) 0.8189(6)
C124 C 0.3064(19) 0.4678(12) 0.3434(7)
N4 N -0.3242(11) 0.1277(8) 0.2080(4)
C125 C 0.542(4) -0.161(3) 0.9007(18)
C126 C 0.541(4) -0.290(2) 0.8982(15)
C127 C 0.183(2) -0.0192(14) 0.9592(6)
C128 C 0.0268(16) -0.0835(10) 0.9638(5)
C129 C 0.353(3) -0.2809(16) 0.2883(12)
C130 C 0.559(9) -0.305(6) 0.316(4)
Cu1 Cu 0.1827(3) -0.41104(14) 1.04205(8)
Cu2 Cu -0.46070(18) 0.08410(11) 1.07437(6)
Cu3 Cu 0.1009(3) -0.06840(18) 0.10950(7)
C131 C 0.185(3) 0.3215(19) 0.1863(8)
C132 C 0.098(4) 0.234(2) 0.1768(15)
C133 C -0.121(4) 0.484(2) 0.2313(15)
C134 C -0.299(7) 0.466(4) 0.223(3)
C135 C 0.1602(12) 0.2936(7) 0.9136(5)
C136 C 0.4818(12) -0.0230(8) 0.3198(5)
C137 C 0.8514(13) 0.1683(9) 0.7969(5)
C138 C 0.6325(12) 0.2466(9) 0.8003(5)
C139 C -0.2054(16) 0.4740(9) 0.8698(6)
C140 C 0.314(2) 0.4891(15) 0.2916(10)
Cu4 Cu -0.29934(18) 0.12685(12) 0.13223(7)
C141 C 0.520(4) -0.164(2) 0.9485(15)
C142 C 0.570(3) -0.3020(18) 0.9497(12)
C143 C 0.224(4) -0.048(3) 1.0082(16)
C144 C 0.0266(14) -0.0884(10) 1.0165(5)
C145 C 0.408(3) -0.2899(16) 0.2447(11)
C146 C 0.607(2) -0.3350(14) 0.2716(10)
I1 I 0.01927(10) -0.48659(6) 1.09062(4)
I2 I 0.18472(10) -0.28620(6) 1.09244(5)
I3 I 0.39892(10) -0.52959(7) 1.04476(6)
I4 I -0.27163(8) -0.03609(5) 1.11416(3)
I5 I -0.69606(9) 0.08557(6) 1.10108(4)
I6 I -0.48555(8) 0.23678(5) 1.09124(4)
N5 N 0.1107(17) 0.2913(11) 0.1577(6)
N6 N -0.1917(18) 0.4604(13) 0.2016(8)
C147 C 0.1990(15) 0.3482(12) 0.9363(5)
C148 C 0.1063(19) 0.2442(11) 0.9458(6)
C149 C 0.4121(14) 0.0416(9) 0.2891(5)
C150 C 0.5499(18) -0.0930(10) 0.2963(6)
C151 C 0.7440(11) 0.2098(8) 0.8244(4)
C152 C -0.333(2) 0.4934(10) 0.8823(7)
C153 C -0.1287(17) 0.4627(12) 0.9086(7)
C154 C 0.219(3) 0.559(2) 0.2689(13)
C155 C 0.427(4) 0.480(2) 0.2632(16)
N7 N -0.2452(12) 0.2217(7) 0.9835(5)
N8 N 0.5295(15) -0.2374(8) 0.9775(5)
N9 N 0.1081(16) -0.0683(9) 1.0384(4)
N10 N 0.5260(15) -0.3134(9) 0.2317(6)
Cu5 Cu -0.1912(4) -0.5157(2) 1.12471(13)
Cu6 Cu -0.0323(3) -0.32522(17) 1.09365(12)
Cu7 Cu 0.1005(5) -0.6844(3) 1.08721(10)
Cu8 Cu 0.3606(5) -0.4275(3) 1.1103(2)
Cu9 Cu -0.3069(2) -0.17905(13) 1.10655(9)
Cu10 Cu -0.50914(18) -0.02821(12) 1.13980(7)
Cu11 Cu -0.25011(19) 0.22541(13) 1.05830(7)
C156 C 0.1737(19) 0.3566(13) 0.9888(6)
C157 C 0.0897(14) 0.2503(9) 0.9956(6)
C158 C 0.4157(14) 0.0360(9) 0.2368(5)
C159 C 0.5482(17) -0.0931(9) 0.2442(6)
C160 C 0.7474(12) 0.2155(8) 0.8800(5)
C161 C -0.3777(17) 0.5031(9) 0.9309(6)
C162 C -0.179(2) 0.4728(10) 0.9583(7)
C163 C 0.228(2) 0.5592(19) 0.2147(12)
C164 C 0.410(2) 0.4657(15) 0.2056(10)
Cu12 Cu 0.5964(2) -0.25572(14) 1.04765(8)
Cu13 Cu 0.6058(3) -0.29155(19) 0.16130(11)
I7 I -0.39489(10) -0.39752(6) 1.09769(4)
I8 I -0.20781(12) -0.64256(6) 1.08628(5)
I9 I -0.17985(10) -0.23541(6) 1.02249(4)
I10 I -0.17014(9) -0.27940(6) 1.17723(4)
N11 N 0.317(2) -0.4627(13) 1.1863(9)
I11 I -0.55632(9) -0.15990(6) 1.11248(4)
N12 N -0.5183(12) -0.0297(7) 1.2149(4)
I12 I -0.06600(9) 0.11414(6) 1.10259(4)
N13 N 0.1270(17) 0.3028(9) 1.0180(5)
C165 C 0.8255(14) 0.1510(8) 0.9082(6)
C166 C 0.6700(15) 0.2826(9) 0.9040(6)
N14 N -0.3005(15) 0.4909(7) 0.9682(5)
Cu14 Cu -0.3676(2) -0.52145(14) 1.04125(9)
C167 C 0.8297(14) 0.1556(11) 0.9611(6)
C168 C 0.6773(15) 0.2831(9) 0.9549(6)
Sm4_2 Sm 0.25807(5) 0.09920(3) 0.62783(2)
O10_2 O 0.4467(9) 0.0677(7) 0.6647(4)
Sm6_2 Sm 0.45207(5) 0.27779(4) 0.60158(2)
O8_2 O 0.5761(8) -0.0156(6) 0.5516(4)
O17_2 O 0.5592(8) 0.1728(5) 0.5497(3)
Sm1_2 Sm 0.75334(5) -0.05589(4) 0.59488(2)
O16_2 O 0.8277(9) 0.1588(6) 0.6451(3)
Sm2_2 Sm 0.94116(5) 0.11140(4) 0.56859(2)
Cu4_2 Cu -0.29934(18) 0.12685(12) 1.13223(7)
Cu7_2 Cu 0.1005(5) 0.3156(3) 0.08721(10)
Cu5_2 Cu -0.1912(4) 0.4843(2) 0.12471(13)
Cu3_2 Cu 0.1009(3) -0.06840(18) 1.10950(7)
N6_2 N -0.1917(18) -0.5396(13) 1.2016(8)
I7_2 I 0.60511(10) -0.39752(6) 1.09769(4)
N4_2 N -0.3242(11) 0.1277(8) 1.2080(4)
I8_2 I -0.20781(12) 0.35744(6) 1.08628(5)
N12_2 N 0.4817(12) -0.0297(7) 0.2149(4)
N11_2 N 0.317(2) 0.5373(13) 0.1863(9)
N3_2 N 0.0972(13) -0.0839(9) 1.1818(4)
Cu13_2 Cu -0.3942(3) -0.29155(19) 1.16130(11)
Cu12_2 Cu -0.4036(2) -0.25572(14) 1.04765(8)
Cu8_2 Cu -0.6394(5) -0.4275(3) 1.1103(2)
Cu14_2 Cu -0.3676(2) 0.47855(14) 1.04125(9)
Cu7_3 Cu 0.1005(5) 0.3156(3) 1.08721(10)
Cu5_3 Cu -0.1912(4) 0.4843(2) 1.12471(13)
Cu10_2 Cu 0.49086(18) -0.02821(12) 0.13980(7)
Cu8_3 Cu 0.3606(5) 0.5725(3) 0.1103(2)
N10_2 N -0.4740(15) -0.3134(9) 1.2317(6)
N8_2 N -0.4705(15) -0.2374(8) 0.9775(5)
I3_2 I -0.60108(10) 0.47041(7) 1.04476(6)
I7_3 I -0.39489(10) 0.60248(6) 1.09769(4)
I1_2 I 0.01927(10) 0.51341(6) 1.09062(4)
N5_2 N 0.1107(17) 0.2913(11) 1.1577(6)
N7_2 N 0.7548(12) 0.2217(7) 0.9835(5)
Cu1_2 Cu -0.8173(3) 0.58896(14) 1.04205(8)
Cu8_4 Cu -0.6394(5) 0.5725(3) 1.1103(2)
Cu11_2 Cu 0.74989(19) 0.22541(13) 1.05830(7)
Cu15? Cu -0.6044(7) -0.2961(5) 1.1412(3)
Cu16? Cu -0.1853(7) -0.4256(5) 1.1442(3)
C169? C 0.469(4) -0.282(2) 0.9042(14)
C170? C 0.173(3) -0.0149(16) 1.0095(10)
C171? C 0.379(4) -0.302(2) 0.2161(16)
C172? C 0.270(4) -0.282(2) 0.2950(15)
C173? C 0.373(4) -0.292(2) 0.3144(17)
C174? C 0.565(3) -0.336(2) 0.3188(13)
Cu17? Cu 0.3063(7) -0.4355(4) 1.1156(3)
O54? O -0.5393(18) 0.4263(10) 0.8174(11)
O55? O -0.663(3) 0.505(2) 0.8799(5)
O56? O -0.594(3) 0.5674(12) 0.8056(12)
O57? O -0.7491(15) 0.5053(15) 0.8032(9)
O58? O -0.148(3) -0.3894(14) 0.3725(17)
O59? O -0.211(2) -0.2455(11) 0.3638(13)
O60? O -0.067(5) -0.321(3) 0.3042(7)
O61? O -0.010(3) -0.321(2) 0.3863(15)
C175? C -0.218(4) 0.378(3) 0.2131(19)
C176? C -0.219(4) 0.361(2) 0.2683(16)
C177? C 0.204(4) 0.526(2) 0.2615(16)
C178? C 0.393(4) 0.437(3) 0.2557(19)
C179? C 0.017(4) 0.237(2) 0.2371(14)
C180? C 0.027(3) 0.2595(19) 0.1810(12)
C181? C -0.192(5) 0.511(3) 0.220(2)
C182? C 0.682(8) -0.331(5) 0.253(4)
C183? C 0.462(4) -0.1684(19) 0.9562(14)
C184? C 0.461(3) -0.1540(15) 0.9080(10)
C185? C 0.496(3) -0.2918(16) 0.9566(11)
loop_
_geom_bond_atom_site_label_1
_geom_bond_atom_site_label_2
_geom_bond_site_symmetry_1
_geom_bond_site_symmetry_2
Sm1 O1 1_555 1_555
O1 C1 1_555 1_555
O2 Sm1 1_555 1_555
O3 Sm1 1_555 1_555
O4 Sm1 1_555 1_555
O5 Sm1 1_555 1_555
O6 Sm1 1_555 1_555
O7 Sm1 1_555 1_555
O8 Sm1 1_555 1_555
C1 C5 1_555 1_555
C2 O4 1_555 1_555
C3 O5 1_555 1_555
Sm2 O6 1_555 1_555
C4 O6 1_555 1_555
Sm3 O7 1_555 1_555
C5 C9 1_555 1_555
O9 C1 1_555 1_555
C6 C2 1_555 1_555
O10 C2 1_555 1_555
C7 C3 1_555 1_555
O11 C3 1_555 1_555
O12 Sm2 1_555 1_555
O13 Sm2 1_555 1_555
O14 Sm2 1_555 1_555
O15 Sm2 1_555 1_555
O16 Sm2 1_555 1_555
C8 C4 1_555 1_555
O17 C4 1_555 1_555
O18 Sm3 1_555 1_555
O19 Sm3 1_555 1_555
O20 Sm3 1_555 1_555
O21 Sm3 1_555 1_555
O22 Sm3 1_555 1_555
C9 C22 1_555 1_555
C10 C5 1_555 1_555
C11 C6 1_555 1_555
C12 C6 1_555 1_555
Sm4 O10 1_555 1_555
C13 C7 1_555 1_555
C14 C7 1_555 1_555
C15 O12 1_555 1_555
C16 O13 1_555 1_555
Sm5 O15 1_555 1_555
C17 C8 1_555 1_555
C18 C8 1_555 1_555
Sm6 O17 1_555 1_555
C19 O18 1_555 1_555
C20 O20 1_555 1_555
C21 O21 1_555 1_555
C22 C35 1_555 1_555
C23 C10 1_555 1_555
C24 C11 1_555 1_555
C25 C12 1_555 1_555
C26 C13 1_555 1_555
C27 C14 1_555 1_555
C28 C15 1_555 1_555
O23 C15 1_555 1_555
C29 C16 1_555 1_555
O24 C16 1_555 1_555
O25 C20 1_555 1_555
O26 C42 1_555 1_555
O27 C43 1_555 1_555
O28 Sm5 1_555 1_555
O29 Sm5 1_555 1_555
O30 Sm5 1_555 1_555
O31 Sm5 1_555 1_555
O32 Sm5 1_555 1_555
C30 C17 1_555 1_555
C31 C18 1_555 1_555
C32 C19 1_555 1_555
C33 C20 1_555 1_555
C34 C21 1_555 1_555
C35 C23 1_555 1_555
C36 C24 1_555 1_555
C37 C26 1_555 1_555
C38 C28 1_555 1_555
C39 C28 1_555 1_555
C40 C29 1_555 1_555
C41 C29 1_555 1_555
C42 C60 1_555 1_555
C43 C61 1_555 1_555
C44 O30 1_555 1_555
C45 O32 1_555 1_555
C46 C30 1_555 1_555
C47 C32 1_555 1_555
C48 C32 1_555 1_555
C49 C33 1_555 1_555
C50 C33 1_555 1_555
C51 C34 1_555 1_555
C52 C34 1_555 1_555
C53 C35 1_555 1_555
C54 C36 1_555 1_555
C55 C37 1_555 1_555
C56 C38 1_555 1_555
C57 C39 1_555 1_555
C58 C40 1_555 1_555
C59 C41 1_555 1_555
C60 C79 1_555 1_555
O33 C42 1_555 1_555
C61 C81 1_555 1_555
O34 Sm6_2 1_555 1_555
O35 Sm6_2 1_555 1_555
O36 C83 1_555 1_555
O37 C45 1_555 1_555
C62 C44 1_555 1_555
C63 C45 1_555 1_555
C64 C46 1_555 1_555
C65 C47 1_555 1_555
C66 C48 1_555 1_555
C67 C49 1_555 1_555
C68 C50 1_555 1_555
C69 C51 1_555 1_555
C70 C52 1_555 1_555
C71 C53 1_555 1_555
C72 C53 1_555 1_555
C73 C54 1_555 1_555
C74 C54 1_555 1_555
C75 C55 1_555 1_555
C76 C55 1_555 1_555
C77 C56 1_555 1_555
C78 C58 1_555 1_555
C79 C101 1_555 1_555
C80 C60 1_555 1_555
C81 C103 1_555 1_555
C82 C61 1_555 1_555
C83 C105 1_555 1_555
C84 C62 1_555 1_555
C85 C62 1_555 1_555
C86 C63 1_555 1_555
C87 C63 1_555 1_555
C88 C64 1_555 1_555
C89 C64 1_555 1_555
C90 C65 1_555 1_555
C91 C67 1_555 1_555
C92 C69 1_555 1_555
C93 C71 1_555 1_555
C94 C72 1_555 1_555
C95 C73 1_555 1_555
C96 C74 1_555 1_555
C97 C75 1_555 1_555
C98 C76 1_555 1_555
C99 C77 1_555 1_555
C100 C78 1_555 1_555
C101 C119 1_555 1_555
C102 C80 1_555 1_555
C103 C120 1_555 1_555
C104 C82 1_555 1_555
C105 C121 1_555 1_555
C106 C84 1_555 1_555
C107 C85 1_555 1_555
C108 C86 1_555 1_555
C109 C87 1_555 1_555
C110 C88 1_555 1_555
C111 C89 1_555 1_555
C112 C90 1_555 1_555
C113 C91 1_555 1_555
C114 C92 1_555 1_555
N1 C93 1_555 1_555
N2 C95 1_555 1_555
N3 C97 1_555 1_555
C115 C99 1_555 1_555
C116 C99 1_555 1_555
C117 C100 1_555 1_555
C118 C100 1_555 1_555
C119 C102 1_555 1_555
C120 C104 1_555 1_555
C121 C137 1_555 1_555
C122 C105 1_555 1_555
C123 C106 1_555 1_555
C124 C108 1_555 1_555
N4 C110 1_555 1_555
C125 C112 1_555 1_555
C126 C112 1_555 1_555
C127 C113 1_555 1_555
C128 C113 1_555 1_555
C129 C114 1_555 1_555
C130 C114 1_555 1_555
Cu1 N1 1_555 1_555
Cu2 N2 1_555 1_555
Cu3 N3 1_555 1_555
C131 C115 1_555 1_555
C132 C116 1_555 1_555
C133 C117 1_555 1_555
C134 C118 1_555 1_555
C135 C119 1_555 1_555
C136 C120 1_555 1_555
C137 C151 1_555 1_555
C138 C122 1_555 1_555
C139 C123 1_555 1_555
C140 C124 1_555 1_555
Cu4 N4 1_555 1_555
C141 C125 1_555 1_555
C142 C126 1_555 1_555
C143 C127 1_555 1_555
C144 C128 1_555 1_555
C145 C129 1_555 1_555
C146 C130 1_555 1_555
I1 Cu1 1_555 1_555
I2 Cu1 1_555 1_555
I3 Cu1 1_555 1_555
I4 Cu2 1_555 1_555
I5 Cu2 1_555 1_555
I6 Cu2 1_555 1_555
N5 C131 1_555 1_555
N6 C133 1_555 1_555
C147 C135 1_555 1_555
C148 C135 1_555 1_555
C149 C136 1_555 1_555
C150 C136 1_555 1_555
C151 C138 1_555 1_555
C152 C139 1_555 1_555
C153 C139 1_555 1_555
C154 C140 1_555 1_555
C155 C140 1_555 1_555
N7 Cu11 1_555 1_555
N8 C141 1_555 1_555
N9 C143 1_555 1_555
N10 C145 1_555 1_555
Cu5 I1 1_555 1_555
Cu6 I1 1_555 1_555
Cu7 I1 1_555 1_555
Cu8 I2 1_555 1_555
Cu9 I4 1_555 1_555
Cu10 I4 1_555 1_555
Cu11 I6 1_555 1_555
C156 C147 1_555 1_555
C157 C148 1_555 1_555
C158 C149 1_555 1_555
C159 C150 1_555 1_555
C160 C151 1_555 1_555
C161 C152 1_555 1_555
C162 C153 1_555 1_555
C163 C154 1_555 1_555
C164 C155 1_555 1_555
Cu12 N8 1_555 1_555
Cu13 N10 1_555 1_555
I7 Cu5 1_555 1_555
I8 Cu5 1_555 1_555
I9 Cu6 1_555 1_555
I10 Cu6 1_555 1_555
N11 Cu8 1_555 1_555
I11 Cu9 1_555 1_555
N12 Cu10 1_555 1_555
I12 Cu11 1_555 1_555
N13 C156 1_555 1_555
C165 C160 1_555 1_555
C166 C160 1_555 1_555
N14 C161 1_555 1_555
Cu14 I7 1_555 1_555
C167 C165 1_555 1_555
C168 C166 1_555 1_555
O38 Cl1 1_555 1_555
O39 Cl1 1_555 1_555
O40 Cl1 1_555 1_555
O41 Cl1 1_555 1_555
O42 Cl2 1_555 1_555
O43 Cl2 1_555 1_555
O44 Cl2 1_555 1_555
O45 Cl2 1_555 1_555
Sm4_2 O14 1_555 1_555
O10_2 Sm4_2 1_555 1_555
Sm6_2 O28 1_555 1_555
O8_2 C43 1_555 1_555
O17_2 Sm6_2 1_555 1_555
Sm1_2 O8_2 1_555 1_555
O16_2 C83 1_555 1_555
Sm2_2 O16_2 1_555 1_555
Cu4_2 I4 1_555 1_555
Cu7_2 N5 1_555 1_555
Cu5_2 N6 1_555 1_555
Cu3_2 N9 1_555 1_555
N6_2 Cu5 1_555 1_555
I7_2 Cu8 1_555 1_555
N4_2 Cu4_2 1_555 1_555
I8_2 Cu11 1_555 1_555
N12_2 C158 1_555 1_555
N11_2 C163 1_555 1_555
N3_2 Cu3_2 1_555 1_555
Cu13_2 I7 1_555 1_555
Cu12_2 I7 1_555 1_555
Cu8_2 I7 1_555 1_555
Cu14_2 N14 1_555 1_555
Cu7_3 N13 1_555 1_555
Cu5_3 I8_2 1_555 1_555
Cu10_2 N12_2 1_555 1_555
Cu8_3 N11_2 1_555 1_555
N10_2 Cu13_2 1_555 1_555
N8_2 Cu12_2 1_555 1_555
I3_2 Cu14_2 1_555 1_555
I7_3 Cu14_2 1_555 1_555
I1_2 Cu7_3 1_555 1_555
N5_2 Cu7_3 1_555 1_555
N7_2 C167 1_555 1_555
Cu1_2 I3_2 1_555 1_555
Cu8_4 I3_2 1_555 1_555
Cu11_2 N7_2 1_555 1_555
O7 Sm2 1_555 1_555
Sm2 O11 1_555 1_555
Sm3 O9 1_555 1_555
Sm3 O11 1_555 1_555
Sm3 O14 1_555 1_555
O15 Sm4_2 1_555 1_555
O19 C19 1_555 1_555
O22 C21 1_555 1_555
Sm5 O23 1_555 1_555
Sm5 O24 1_555 1_555
C25 C36 1_555 1_555
C27 C37 1_555 1_555
O25 Sm4_2 1_555 1_555
O26 Sm4_2 1_555 1_555
O27 Sm4_2 1_555 1_555
O28 Sm4_2 1_555 1_555
O31 C44 1_555 1_555
C31 C46 1_555 1_555
C57 C77 1_555 1_555
C59 C78 1_555 1_555
O33 Sm6_2 1_555 1_555
O36 Sm6_2 1_555 1_555
O37 Sm6_2 1_555 1_555
C66 C90 1_555 1_555
C68 C91 1_555 1_555
C70 C92 1_555 1_555
C94 N1 1_555 1_555
C96 N2 1_555 1_555
C98 N3 1_555 1_555
C107 C123 1_555 1_555
C109 C124 1_555 1_555
C111 N4 1_555 1_555
C132 N5 1_555 1_555
C134 N6 1_555 1_555
C142 N8 1_555 1_555
C144 N9 1_555 1_555
C146 N10 1_555 1_555
I2 Cu6 1_555 1_555
I3 Cu8 1_555 1_555
I5 Cu10 1_555 1_555
I6 Cu4_2 1_555 1_555
Cu7 I8 1_555 1_555
Cu9 I9 1_555 1_555
Cu9 I10 1_555 1_555
Cu10 I11 1_555 1_555
C157 N13 1_555 1_555
C159 N12_2 1_555 1_555
C162 N14 1_555 1_555
C164 N11_2 1_555 1_555
Cu12 I7_2 1_555 1_555
I8 Cu14 1_555 1_555
I9 Cu12_2 1_555 1_555
I10 Cu13_2 1_555 1_555
I11 Cu13_2 1_555 1_555
I11 Cu12_2 1_555 1_555
I12 Cu4_2 1_555 1_555
I12 Cu3_2 1_555 1_555
C168 N7_2 1_555 1_555
I8_2 Cu14_2 1_555 1_555
I8_2 Cu7_3 1_555 1_555
Cu5_3 I7_3 1_555 1_555
Cu5_3 I1_2 1_555 1_555
I7_3 Cu8_4 1_555 1_555

#END
