
#######################################################################
#
#                 Cambridge Crystallographic Data Centre
#                                CCDC 
#
#######################################################################
#
# If this CIF has been generated from an entry in the Cambridge 
# Structural Database, then it will include bibliographic, chemical, 
# crystal, experimental, refinement or atomic coordinate data resulting 
# from the CCDC's data processing and validation procedures.
#
#######################################################################

data_XOCROY
_symmetry_cell_setting           orthorhombic
_symmetry_space_group_name_H-M   'C m c m'
_symmetry_Int_Tables_number      63
_space_group_name_Hall           '-C 2n 2'
loop_
_symmetry_equiv_pos_site_id
_symmetry_equiv_pos_as_xyz
1 x,y,z
2 -x,-y,1/2+z
3 1/2+x,1/2+y,z
4 1/2-x,1/2-y,1/2+z
5 -x,y,1/2-z
6 x,-y,-z
7 1/2-x,1/2+y,1/2-z
8 1/2+x,1/2-y,-z
9 -x,-y,-z
10 x,y,1/2-z
11 1/2-x,1/2-y,-z
12 1/2+x,1/2+y,1/2-z
13 x,-y,1/2+z
14 -x,y,z
15 1/2+x,1/2-y,1/2+z
16 1/2-x,1/2+y,z
_cell_length_a                   11.730(3)
_cell_length_b                   6.742(4)
_cell_length_c                   17.578(3)
_cell_angle_alpha                90
_cell_angle_beta                 90
_cell_angle_gamma                90
_cell_volume                     1390.13
loop_
_atom_site_label
_atom_site_type_symbol
_atom_site_fract_x
_atom_site_fract_y
_atom_site_fract_z
C1 C 0.1237(6) -0.0395(10) 0.6425(4)
C2 C 0.0603(7) -0.0270(9) 0.5687(4)
C3 C 0.1198(9) 0.0000 0.5000
C4 C 0.2469(10) 0.0000 0.5000
O1 O 0.1504(4) 0.1261(7) 0.6718(2)
O2 O 0.1814(6) 0.4554(9) 0.7500
O3 O 0.1405(4) -0.2085(6) 0.6722(3)
O4 O 0.2962(5) 0.0729(9) 0.4431(4)
Al1 Al 0.2537(2) 0.2079(4) 0.7500
C1M C -0.1237(6) -0.0395(10) 0.6425(4)
C2M C -0.0603(7) -0.0270(9) 0.5687(4)
C3M C -0.1198(9) 0.0000 0.5000
C4M C -0.2469(10) 0.0000 0.5000
O1M O -0.1504(4) 0.1261(7) 0.6718(2)
O4M O -0.2962(5) 0.0729(9) 0.4431(4)
O3M O -0.1405(4) -0.2085(6) 0.6722(3)
C1H C -0.1237(6) 0.0395(10) 0.3575(4)
C2H C -0.0603(7) 0.0270(9) 0.4313(4)
O1H O -0.1504(4) -0.1261(7) 0.3282(2)
O4H O -0.2962(5) -0.0729(9) 0.5569(4)
O3H O -0.1405(4) 0.2085(6) 0.3278(3)
C1E C 0.1237(6) 0.0395(10) 0.3575(4)
C2E C 0.0603(7) 0.0270(9) 0.4313(4)
O1E O 0.1504(4) -0.1261(7) 0.3282(2)
O4E O 0.2962(5) -0.0729(9) 0.5569(4)
O3E O 0.1405(4) 0.2085(6) 0.3278(3)
O2M O -0.1814(6) 0.4554(9) 0.7500
Al1M Al -0.2537(2) 0.2079(4) 0.7500
O1I O 0.1504(4) 0.1261(7) 0.8282(2)
O1D O -0.1504(4) 0.1261(7) 0.8282(2)
O2B O -0.3186(6) -0.0446(9) 0.7500
O2O O 0.3186(6) -0.0446(9) 0.7500
O3B O -0.3595(4) 0.2915(6) 0.6722(3)
O3O O 0.3595(4) 0.2915(6) 0.6722(3)
O3K O -0.3595(4) 0.2915(6) 0.8278(3)
O3F O 0.3595(4) 0.2915(6) 0.8278(3)
Al1A Al -0.2537(2) -0.2079(4) 0.2500
Al1L Al 0.2537(2) -0.2079(4) 0.2500
Al1B Al -0.2463(2) -0.2921(4) 0.7500
Al1B_2 Al -0.2463(2) 0.7079(4) 0.7500
Al1C Al 0.2463(2) 0.2921(4) 0.2500
Al1N Al -0.2463(2) 0.2921(4) 0.2500
Al1O Al 0.2463(2) -0.2921(4) 0.7500
Al1O_2 Al 0.2463(2) 0.7079(4) 0.7500
O5 O 0.5000 0.0406(11) 0.3698(6)
loop_
_geom_bond_atom_site_label_1
_geom_bond_atom_site_label_2
_geom_bond_site_symmetry_1
_geom_bond_site_symmetry_2
C1 C2 1_555 1_555
C2 C3 1_555 1_555
C3 C4 1_555 1_555
C4 O4 1_555 1_555
O1 C1 1_555 1_555
O2 Al1 1_555 1_555
O3 C1 1_555 1_555
Al1 O1 1_555 1_555
C1M C2M 1_555 1_555
C2M C2 1_555 1_555
C3M C2M 1_555 1_555
C4M C3M 1_555 1_555
O1M C1M 1_555 1_555
O4M C4M 1_555 1_555
O3M C1M 1_555 1_555
C1H C2H 1_555 1_555
C2H C3M 1_555 1_555
O1H C1H 1_555 1_555
O4H C4M 1_555 1_555
O3H C1H 1_555 1_555
C1E C2E 1_555 1_555
C2E C3 1_555 1_555
O1E C1E 1_555 1_555
O4E C4 1_555 1_555
O3E C1E 1_555 1_555
O2M Al1M 1_555 1_555
Al1M O1M 1_555 1_555
O1I Al1 1_555 1_555
O1D Al1M 1_555 1_555
O2B Al1M 1_555 1_555
O2O Al1 1_555 1_555
O3B Al1M 1_555 1_555
O3O Al1 1_555 1_555
O3K Al1M 1_555 1_555
O3F Al1 1_555 1_555
Al1A O1H 1_555 1_555
Al1L O1E 1_555 1_555
Al1B O3M 1_555 1_555
Al1B_2 O2M 1_555 1_555
Al1C O3E 1_555 1_555
Al1N O3H 1_555 1_555
Al1O O3 1_555 1_555
Al1O_2 O2 1_555 1_555
C2H C2E 1_555 1_555
O2B Al1B 1_555 1_555
O2O Al1O 1_555 1_555

#END
