
#######################################################################
#
#                 Cambridge Crystallographic Data Centre
#                                CCDC 
#
#######################################################################
#
# If this CIF has been generated from an entry in the Cambridge 
# Structural Database, then it will include bibliographic, chemical, 
# crystal, experimental, refinement or atomic coordinate data resulting 
# from the CCDC's data processing and validation procedures.
#
#######################################################################

data_XOCTUG
_symmetry_cell_setting           monoclinic
_symmetry_space_group_name_H-M   'P 21/c'
_symmetry_Int_Tables_number      14
_space_group_name_Hall           '-P 2ybc'
loop_
_symmetry_equiv_pos_site_id
_symmetry_equiv_pos_as_xyz
1 x,y,z
2 -x,1/2+y,1/2-z
3 -x,-y,-z
4 x,1/2-y,1/2+z
_cell_length_a                   4.7035(12)
_cell_length_b                   14.752(4)
_cell_length_c                   18.391(5)
_cell_angle_alpha                90
_cell_angle_beta                 91.137(4)
_cell_angle_gamma                90
_cell_volume                     1275.83
loop_
_atom_site_label
_atom_site_type_symbol
_atom_site_fract_x
_atom_site_fract_y
_atom_site_fract_z
Ag1 Ag 0.11343(5) 0.374073(13) 0.529043(12)
N1 N 0.3384(5) 0.49719(15) 0.57251(12)
N2 N 0.2255(5) 0.58448(15) 0.56276(13)
N3 N 0.5779(5) 0.59189(15) 0.64087(12)
N4 N 0.7732(5) 0.61853(15) 0.69467(13)
N5 N 0.7172(5) 0.69700(16) 0.71427(13)
N6 N 0.9019(5) 0.72530(15) 0.76896(13)
N7 N 1.2105(5) 0.73311(17) 0.85855(14)
N8 N 1.0590(5) 0.81538(16) 0.85384(14)
N9 N 0.2069(5) 0.23255(16) 0.48775(14)
N10 N 0.0335(5) 0.19948(17) 0.43062(14)
N11 N 0.2939(5) 0.08995(15) 0.47467(13)
N12 N 0.3899(4) 0.00122(16) 0.48049(12)
C1 C 0.5493(6) 0.50397(18) 0.61973(15)
H1 H 0.6644 0.4551 0.6366
C2 C 0.3690(6) 0.63959(18) 0.60354(16)
H2 H 0.3363 0.7029 0.6073
C3 C 1.1129(6) 0.67995(19) 0.80809(15)
H3 H 1.1753 0.6198 0.7993
C4 C 0.8776(6) 0.80893(19) 0.80035(16)
H4 H 0.7481 0.8549 0.7852
C5 C 0.3608(6) 0.16669(18) 0.51313(16)
H5 H 0.4970 0.1709 0.5518
C6 C 0.0900(7) 0.11405(19) 0.42433(18)
H6 H 0.0031 0.0742 0.3900
N9B N 0.7931(5) -0.23255(16) 0.51225(14)
N10B N 0.9665(5) -0.19948(17) 0.56938(14)
N11B N 0.7061(5) -0.08995(15) 0.52533(13)
N12B N 0.6101(4) -0.00122(16) 0.51951(12)
C5B C 0.6392(6) -0.16669(18) 0.48687(16)
H5B H 0.5030 -0.1709 0.4482
C6B C 0.9100(7) -0.11405(19) 0.57567(18)
H6B H 0.9969 -0.0742 0.6100
Ag1B Ag -0.11343(5) 0.625927(13) 0.470957(12)
N1B N -0.3384(5) 0.50281(15) 0.42749(12)
N2B N -0.2255(5) 0.41552(15) 0.43724(13)
N3B N -0.5779(5) 0.40811(15) 0.35913(12)
N4B N -0.7732(5) 0.38147(15) 0.30533(13)
N5B N -0.7172(5) 0.30300(16) 0.28573(13)
N6B N -0.9019(5) 0.27470(15) 0.23104(13)
N7B N -1.2105(5) 0.26689(17) 0.14145(14)
N8B N -1.0590(5) 0.18462(16) 0.14616(14)
C1B C -0.5493(6) 0.49603(18) 0.38027(15)
H1B H -0.6644 0.5449 0.3634
C2B C -0.3690(6) 0.36041(18) 0.39646(16)
H2B H -0.3363 0.2971 0.3927
C3B C -1.1129(6) 0.32005(19) 0.19191(15)
H3B H -1.1753 0.3802 0.2007
C4B C -0.8776(6) 0.19107(19) 0.19965(16)
H4B H -0.7481 0.1451 0.2148
Ag1A Ag 0.88657(5) 0.874073(13) 0.970957(12)
Ag1B_2 Ag 0.88657(5) -0.374073(13) 0.470957(12)
Ag1C Ag -0.88657(5) 0.125927(13) 0.029043(12)
N8A N -0.0590(5) 0.31538(16) 0.64616(14)
N8C N 0.0590(5) 0.68462(16) 0.35384(14)
N9B_2 N -0.2069(5) 0.76745(16) 0.51225(14)
N13 N 0.4455(5) -0.02733(17) 0.69529(13)
O1 O 0.6554(5) -0.00716(15) 0.73503(13)
O2 O 0.3294(5) 0.03106(16) 0.65550(12)
O3 O 0.3572(7) -0.10689(18) 0.6961(2)
loop_
_geom_bond_atom_site_label_1
_geom_bond_atom_site_label_2
_geom_bond_site_symmetry_1
_geom_bond_site_symmetry_2
Ag1 N1 1_555 1_555
N1 N2 1_555 1_555
N2 C2 1_555 1_555
N3 N4 1_555 1_555
N4 N5 1_555 1_555
N5 N6 1_555 1_555
N6 C3 1_555 1_555
N7 N8 1_555 1_555
N8 C4 1_555 1_555
N9 Ag1 1_555 1_555
N10 N9 1_555 1_555
N11 N12 1_555 1_555
N12 N12B 1_555 1_555
C1 N1 1_555 1_555
H1 C1 1_555 1_555
C2 N3 1_555 1_555
H2 C2 1_555 1_555
C3 N7 1_555 1_555
H3 C3 1_555 1_555
C4 N6 1_555 1_555
H4 C4 1_555 1_555
C5 N9 1_555 1_555
H5 C5 1_555 1_555
C6 N10 1_555 1_555
H6 C6 1_555 1_555
N13 O1 1_555 1_555
O2 N13 1_555 1_555
O3 N13 1_555 1_555
N9B N10B 1_555 1_555
N10B C6B 1_555 1_555
N11B N12B 1_555 1_555
C5B N9B 1_555 1_555
H5B C5B 1_555 1_555
C6B N11B 1_555 1_555
H6B C6B 1_555 1_555
Ag1B N2 1_555 1_555
N1B Ag1B 1_555 1_555
N2B Ag1 1_555 1_555
N3B N4B 1_555 1_555
N4B N5B 1_555 1_555
N5B N6B 1_555 1_555
N6B C3B 1_555 1_555
N7B N8B 1_555 1_555
N8B C4B 1_555 1_555
C1B N1B 1_555 1_555
H1B C1B 1_555 1_555
C2B N2B 1_555 1_555
H2B C2B 1_555 1_555
C3B N7B 1_555 1_555
H3B C3B 1_555 1_555
C4B N6B 1_555 1_555
H4B C4B 1_555 1_555
Ag1A N8 1_555 1_555
Ag1B_2 N9B 1_555 1_555
Ag1C N8B 1_555 1_555
N8A Ag1 1_555 1_555
N8C Ag1B 1_555 1_555
N9B_2 Ag1B 1_555 1_555
N3 C1 1_555 1_555
N11 C5 1_555 1_555
N11 C6 1_555 1_555
N11B C5B 1_555 1_555
N1B N2B 1_555 1_555
N3B C1B 1_555 1_555
N3B C2B 1_555 1_555

#END
