
#######################################################################
#
#                 Cambridge Crystallographic Data Centre
#                                CCDC 
#
#######################################################################
#
# If this CIF has been generated from an entry in the Cambridge 
# Structural Database, then it will include bibliographic, chemical, 
# crystal, experimental, refinement or atomic coordinate data resulting 
# from the CCDC's data processing and validation procedures.
#
#######################################################################

data_XOCWOD
_symmetry_cell_setting           triclinic
_symmetry_space_group_name_H-M   'P -1'
_symmetry_Int_Tables_number      2
_space_group_name_Hall           '-P 1'
loop_
_symmetry_equiv_pos_site_id
_symmetry_equiv_pos_as_xyz
1 x,y,z
2 -x,-y,-z
_cell_length_a                   10.5136(5)
_cell_length_b                   11.4650(6)
_cell_length_c                   13.4175(7)
_cell_angle_alpha                69.0840(10)
_cell_angle_beta                 78.6070(10)
_cell_angle_gamma                63.5420(10)
_cell_volume                     1351.08
loop_
_atom_site_label
_atom_site_type_symbol
_atom_site_fract_x
_atom_site_fract_y
_atom_site_fract_z
U1 U 0.62304(3) 0.71343(3) 0.83640(2)
U2 U 1.0000 0.5000 0.5000
Er1 Er 0.59886(4) 0.23045(4) 0.75015(3)
O1 O 0.5315(7) 0.6340(6) 0.9455(5)
O2 O 0.7177(8) 0.7884(7) 0.7311(5)
O3 O 1.0672(7) 0.5002(7) 0.6099(5)
O4 O 0.8495(8) 0.5374(7) 0.9137(6)
O5 O 0.7608(7) 0.4964(7) 0.8017(5)
O6 O 0.8131(7) 0.2357(6) 0.7709(5)
O7 O 0.8861(6) 0.3636(6) 0.6269(5)
O8 O 1.4185(6) -0.0800(6) 0.8193(5)
O9 O 1.5039(7) 0.0784(7) 0.7536(6)
O10 O 1.4841(7) 0.1769(7) 0.9168(5)
O11 O 1.3270(6) 0.1971(6) 1.0514(5)
O12 O 0.5008(7) 0.6939(6) 0.7181(4)
O13 O 0.4097(8) 0.7016(7) 0.5808(5)
O14 O 0.7329(8) 0.6340(7) 0.5340(6)
O15 O 0.8654(7) 0.7496(7) 0.4788(6)
O16 O 0.6062(7) 0.4218(7) 0.6065(5)
H1 H 0.5262 0.4858 0.5732
H2 H 0.6891 0.4305 0.5852
O17 O 0.3666(8) 0.3761(9) 0.6850(7)
H3 H 0.3530 0.4533 0.6300
H4 H 0.2928 0.3537 0.7148
O18 O 0.5231(10) 0.4089(8) 0.8254(6)
H5 H 0.4366 0.4783 0.8118
H6 H 0.5806 0.4080 0.8676
O19 O 0.7619(7) 0.0160(7) 0.8383(6)
H7 H 0.7376 -0.0557 0.8626
H8 H 0.8496 0.0042 0.8479
O20 O 0.7140(8) 0.1530(7) 0.6068(5)
H9 H 0.6666 0.1811 0.5478
H10 H 0.8063 0.0944 0.6099
C1 C 0.9979(9) 0.3435(9) 0.8528(7)
C2 C 1.1111(9) 0.3129(9) 0.9095(7)
H11 H 1.0968 0.3586 0.9584
C3 C 1.2460(9) 0.2151(9) 0.8948(6)
C4 C 1.2657(9) 0.1413(8) 0.8247(7)
C5 C 1.1468(9) 0.1661(9) 0.7745(6)
H12 H 1.1580 0.1126 0.7325
C6 C 1.0133(9) 0.2673(8) 0.7854(6)
C7 C 0.6263(9) 0.9994(8) 0.4501(6)
H13 H 0.7126 0.9985 0.4158
C8 C 0.6164(10) 0.8759(9) 0.5054(7)
C9 C 0.4870(9) 0.8762(9) 0.5561(6)
C10 C 0.8609(11) 0.4618(10) 0.8592(8)
C11 C 1.3622(9) 0.1944(8) 0.9557(6)
C12 C 1.4068(9) 0.0416(8) 0.7958(6)
C13 C 0.8937(8) 0.2912(8) 0.7255(6)
C14 C 0.4680(8) 0.7475(8) 0.6213(6)
C15 C 0.7445(10) 0.7454(9) 0.5079(7)
O12A O 0.4992(7) 1.3061(6) 0.2819(4)
O13A O 0.5903(8) 1.2984(7) 0.4192(5)
O14A O 0.2671(8) 1.3660(7) 0.4660(6)
O15A O 0.1346(7) 1.2504(7) 0.5212(6)
C7A C 0.3737(9) 1.0006(8) 0.5499(6)
H13A H 0.2874 1.0015 0.5842
C8A C 0.3836(10) 1.1241(9) 0.4946(7)
C9A C 0.5130(9) 1.1238(9) 0.4439(6)
C14A C 0.5320(8) 1.2525(8) 0.3787(6)
C15A C 0.2555(10) 1.2546(9) 0.4921(7)
U1A U 0.37696(3) 1.28657(3) 0.16360(2)
Er1A Er 0.40114(4) 1.76955(4) 0.24985(3)
O1A O 0.4685(7) 1.3660(6) 0.0545(5)
O2A O 0.2823(8) 1.2116(7) 0.2689(5)
O4A O 0.1505(8) 1.4626(7) 0.0863(6)
O5A O 0.2392(7) 1.5036(7) 0.1983(5)
O6A O 0.1869(7) 1.7643(6) 0.2291(5)
O7A O 0.1139(6) 1.6364(6) 0.3731(5)
O8A O -0.4185(6) 2.0800(6) 0.1807(5)
O9A O -0.5039(7) 1.9216(7) 0.2464(6)
O10A O -0.4841(7) 1.8231(7) 0.0832(5)
O11A O -0.3270(6) 1.8029(6) -0.0514(5)
O16A O 0.3938(7) 1.5782(7) 0.3935(5)
H1A H 0.4738 1.5142 0.4268
H2A H 0.3109 1.5695 0.4148
O17A O 0.6334(8) 1.6239(9) 0.3150(7)
H3A H 0.6470 1.5467 0.3700
H4A H 0.7072 1.6463 0.2852
O18A O 0.4769(10) 1.5911(8) 0.1746(6)
H5A H 0.5634 1.5217 0.1882
H6A H 0.4194 1.5920 0.1324
O19A O 0.2381(7) 1.9840(7) 0.1617(6)
H7A H 0.2624 2.0557 0.1374
H8A H 0.1504 1.9958 0.1521
O20A O 0.2860(8) 1.8470(7) 0.3932(5)
H9A H 0.3334 1.8189 0.4522
H10A H 0.1937 1.9056 0.3901
C1A C 0.0021(9) 1.6565(9) 0.1472(7)
C2A C -0.1111(9) 1.6871(9) 0.0905(7)
H11A H -0.0968 1.6414 0.0416
C3A C -0.2460(9) 1.7849(9) 0.1052(6)
C4A C -0.2657(9) 1.8587(8) 0.1753(7)
C5A C -0.1468(9) 1.8339(9) 0.2255(6)
H12A H -0.1580 1.8874 0.2675
C6A C -0.0133(9) 1.7327(8) 0.2146(6)
C10A C 0.1391(11) 1.5382(10) 0.1408(8)
C11A C -0.3622(9) 1.8056(8) 0.0443(6)
C12A C -0.4068(9) 1.9584(8) 0.2042(6)
C13A C 0.1063(8) 1.7088(8) 0.2745(6)
O3A O 0.9328(7) 0.4998(7) 0.3901(5)
U1_2 U -0.37696(3) 1.71343(3) -0.16360(2)
U1_3 U 1.62304(3) -0.28657(3) 0.83640(2)
U1A_2 U -0.62304(3) 2.28657(3) 0.16360(2)
U1A_3 U 1.37696(3) 0.28657(3) 1.16360(2)
U2_2 U 0.0000 1.5000 0.5000
Er1_2 Er 1.59886(4) 0.23045(4) 0.75015(3)
Er1A_2 Er -0.59886(4) 1.76955(4) 0.24985(3)
O7A_2 O 1.1139(6) 0.6364(6) 0.3731(5)
O8_2 O 0.4185(6) 0.9200(6) 0.8193(5)
O8A_2 O 0.5815(6) 1.0800(6) 0.1807(5)
O9_2 O 0.5039(7) 0.0784(7) 0.7536(6)
O9A_2 O 0.4961(7) 1.9216(7) 0.2464(6)
O10_2 O 0.4841(7) 0.1769(7) 0.9168(5)
O10A_2 O 0.5159(7) 1.8231(7) 0.0832(5)
O11_2 O 0.3270(6) 1.1971(6) 0.0514(5)
O11A_2 O 0.6730(6) 0.8029(6) 0.9486(5)
O14A_2 O 1.2671(8) 0.3660(7) 0.4660(6)
O15A_2 O 1.1346(7) 0.2504(7) 0.5212(6)
O21 O 0.809(3) 0.389(3) 0.249(3)
O22 O 0.051(2) 0.108(2) 0.4181(17)
O23 O 0.814(2) 0.152(3) 0.0186(14)
O24 O 0.9461(19) 0.116(3) 0.190(2)
loop_
_geom_bond_atom_site_label_1
_geom_bond_atom_site_label_2
_geom_bond_site_symmetry_1
_geom_bond_site_symmetry_2
U1 O1 1_555 1_555
U2 O3 1_555 1_555
Er1 O6 1_555 1_555
O2 U1 1_555 1_555
O4 U1 1_555 1_555
O5 U1 1_555 1_555
O6 C13 1_555 1_555
O7 U2 1_555 1_555
O8 C12 1_555 1_555
O9 C12 1_555 1_555
O10 C11 1_555 1_555
O11 C11 1_555 1_555
O12 U1 1_555 1_555
O13 C14 1_555 1_555
O14 U2 1_555 1_555
O15 U2 1_555 1_555
O16 Er1 1_555 1_555
H1 O16 1_555 1_555
H2 O16 1_555 1_555
O17 Er1 1_555 1_555
H3 O17 1_555 1_555
H4 O17 1_555 1_555
O18 Er1 1_555 1_555
H5 O18 1_555 1_555
H6 O18 1_555 1_555
O19 Er1 1_555 1_555
H7 O19 1_555 1_555
H8 O19 1_555 1_555
O20 Er1 1_555 1_555
H9 O20 1_555 1_555
H10 O20 1_555 1_555
C1 C2 1_555 1_555
C2 H11 1_555 1_555
C3 C2 1_555 1_555
C4 C3 1_555 1_555
C5 C4 1_555 1_555
H12 C5 1_555 1_555
C6 C1 1_555 1_555
C7 H13 1_555 1_555
C8 C7 1_555 1_555
C9 C8 1_555 1_555
C10 O4 1_555 1_555
C11 C3 1_555 1_555
C12 C4 1_555 1_555
C13 O7 1_555 1_555
C14 O12 1_555 1_555
C15 O14 1_555 1_555
O12A C14A 1_555 1_555
O13A C14A 1_555 1_555
O14A C15A 1_555 1_555
O15A C15A 1_555 1_555
C7A C9 1_555 1_555
H13A C7A 1_555 1_555
C8A C7A 1_555 1_555
C9A C7 1_555 1_555
C14A C9A 1_555 1_555
C15A C8A 1_555 1_555
U1A O12A 1_555 1_555
Er1A O6A 1_555 1_555
O1A U1A 1_555 1_555
O2A U1A 1_555 1_555
O4A U1A 1_555 1_555
O5A U1A 1_555 1_555
O6A C13A 1_555 1_555
O7A C13A 1_555 1_555
O8A C12A 1_555 1_555
O9A C12A 1_555 1_555
O10A C11A 1_555 1_555
O11A C11A 1_555 1_555
O16A Er1A 1_555 1_555
H1A O16A 1_555 1_555
H2A O16A 1_555 1_555
O17A Er1A 1_555 1_555
H3A O17A 1_555 1_555
H4A O17A 1_555 1_555
O18A Er1A 1_555 1_555
H5A O18A 1_555 1_555
H6A O18A 1_555 1_555
O19A Er1A 1_555 1_555
H7A O19A 1_555 1_555
H8A O19A 1_555 1_555
O20A Er1A 1_555 1_555
H9A O20A 1_555 1_555
H10A O20A 1_555 1_555
C1A C2A 1_555 1_555
C2A H11A 1_555 1_555
C3A C2A 1_555 1_555
C4A C3A 1_555 1_555
C5A C4A 1_555 1_555
H12A C5A 1_555 1_555
C6A C1A 1_555 1_555
C10A O4A 1_555 1_555
C11A C3A 1_555 1_555
C12A C4A 1_555 1_555
C13A C6A 1_555 1_555
O3A U2 1_555 1_555
U1_2 O11A 1_555 1_555
U1_3 O8 1_555 1_555
U1A_2 O8A 1_555 1_555
U1A_3 O11 1_555 1_555
U2_2 O14A 1_555 1_555
Er1_2 O9 1_555 1_555
Er1A_2 O9A 1_555 1_555
O7A_2 U2 1_555 1_555
O8_2 U1 1_555 1_555
O8A_2 U1A 1_555 1_555
O9_2 Er1 1_555 1_555
O9A_2 Er1A 1_555 1_555
O10_2 Er1 1_555 1_555
O10A_2 Er1A 1_555 1_555
O11_2 U1A 1_555 1_555
O11A_2 U1 1_555 1_555
O14A_2 U2 1_555 1_555
O15A_2 U2 1_555 1_555
O5 C10 1_555 1_555
O10 Er1_2 1_555 1_555
O15 C15 1_555 1_555
C1 C10 1_555 1_555
C5 C6 1_555 1_555
C6 C13 1_555 1_555
C8 C15 1_555 1_555
C9 C14 1_555 1_555
O15A U2_2 1_555 1_555
C8A C9A 1_555 1_555
O5A C10A 1_555 1_555
O7A U2_2 1_555 1_555
O10A Er1A_2 1_555 1_555
C1A C10A 1_555 1_555
C5A C6A 1_555 1_555

#END
