
#######################################################################
#
#                 Cambridge Crystallographic Data Centre
#                                CCDC 
#
#######################################################################
#
# If this CIF has been generated from an entry in the Cambridge 
# Structural Database, then it will include bibliographic, chemical, 
# crystal, experimental, refinement or atomic coordinate data resulting 
# from the CCDC's data processing and validation procedures.
#
#######################################################################

data_XOCWIX
_symmetry_cell_setting           triclinic
_symmetry_space_group_name_H-M   'P -1'
_symmetry_Int_Tables_number      2
_space_group_name_Hall           '-P 1'
loop_
_symmetry_equiv_pos_site_id
_symmetry_equiv_pos_as_xyz
1 x,y,z
2 -x,-y,-z
_cell_length_a                   10.5626(6)
_cell_length_b                   11.4559(7)
_cell_length_c                   13.4839(8)
_cell_angle_alpha                69.112(6)
_cell_angle_beta                 78.889(5)
_cell_angle_gamma                63.614(6)
_cell_volume                     1364.42
loop_
_atom_site_label
_atom_site_type_symbol
_atom_site_fract_x
_atom_site_fract_y
_atom_site_fract_z
U1 U 0.62316(5) 0.71341(4) 0.83667(4)
U2 U 1.0000 0.5000 0.5000
Ho1 Ho 0.59942(6) 0.23148(6) 0.75050(5)
C1 C 0.9977(12) 0.3457(12) 0.8500(10)
C2 C 1.1130(12) 0.3165(12) 0.9072(9)
H1 H 1.0987 0.3632 0.9553
C3 C 1.2483(11) 0.2187(11) 0.8927(9)
C4 C 1.2669(12) 0.1440(11) 0.8226(9)
C5 C 1.1470(11) 0.1662(10) 0.7746(8)
H2 H 1.1571 0.1115 0.7341
C6 C 1.0146(11) 0.2674(11) 0.7862(8)
C7 C 0.6281(13) 0.9996(12) 0.4501(9)
H3 H 0.7138 0.9998 0.4169
C8 C 0.6180(12) 0.8743(11) 0.5057(9)
C9 C 0.4910(12) 0.8737(11) 0.5561(9)
C10 C 0.8618(12) 0.4656(11) 0.8541(9)
C11 C 1.3634(13) 0.1957(11) 0.9554(9)
C12 C 1.4074(12) 0.0424(12) 0.7978(9)
C13 C 0.8943(13) 0.2921(11) 0.7249(9)
C14 C 0.4717(13) 0.7442(12) 0.6220(10)
C15 C 0.7443(14) 0.7473(12) 0.5079(10)
O1 O 0.5313(9) 0.6334(9) 0.9446(6)
O2 O 0.7167(9) 0.7922(9) 0.7310(7)
O3 O 1.0694(9) 0.4992(9) 0.6102(7)
O4 O 0.8509(9) 0.5387(8) 0.9119(7)
O5 O 0.7622(8) 0.4958(8) 0.8010(7)
O6 O 0.8145(9) 0.2354(8) 0.7709(7)
O7 O 0.8872(8) 0.3617(7) 0.6280(6)
O8 O 1.4168(9) -0.0779(8) 0.8175(7)
O9 O 1.5023(9) 0.0801(9) 0.7540(7)
O10 O 1.4816(9) 0.1806(8) 0.9151(6)
O11 O 1.3270(8) 0.1952(8) 1.0519(6)
O12 O 0.5027(8) 0.6940(8) 0.7184(6)
O13 O 0.4170(9) 0.6973(9) 0.5801(7)
O14 O 0.7370(9) 0.6346(9) 0.5368(8)
O15 O 0.8659(9) 0.7510(8) 0.4776(7)
O16 O 0.7106(10) 0.1538(9) 0.6067(7)
H4 H 0.6623 0.1830 0.5482
H5 H 0.8021 0.0943 0.6094
O17 O 0.6099(9) 0.4237(8) 0.6068(7)
H6 H 0.5316 0.4872 0.5715
H7 H 0.6925 0.4324 0.5878
O18 O 0.3702(10) 0.3780(10) 0.6772(9)
H8 H 0.3588 0.4545 0.6222
H9 H 0.2959 0.3562 0.7045
O19 O 0.5231(12) 0.4108(10) 0.8248(8)
H10 H 0.4380 0.4813 0.8094
H11 H 0.5791 0.4088 0.8685
O20 O 0.7631(9) 0.0136(9) 0.8396(8)
H12 H 0.7402 -0.0587 0.8602
H13 H 0.8486 0.0021 0.8534
C7A C 0.3719(13) 1.0004(12) 0.5499(9)
H3A H 0.2862 1.0002 0.5831
C8A C 0.3820(12) 1.1257(11) 0.4943(9)
C9A C 0.5090(12) 1.1263(11) 0.4439(9)
C14A C 0.5283(13) 1.2558(12) 0.3780(10)
C15A C 0.2557(14) 1.2527(12) 0.4921(10)
O12A O 0.4973(8) 1.3060(8) 0.2816(6)
O13A O 0.5830(9) 1.3027(9) 0.4199(7)
O14A O 0.2630(9) 1.3654(9) 0.4632(8)
O15A O 0.1341(9) 1.2490(8) 0.5224(7)
U1A U 0.37684(5) 1.28659(4) 0.16333(4)
Ho1A Ho 0.40058(6) 1.76852(6) 0.24950(5)
C1A C 0.0023(12) 1.6543(12) 0.1500(10)
C2A C -0.1130(12) 1.6835(12) 0.0928(9)
H1A H -0.0987 1.6368 0.0447
C3A C -0.2483(11) 1.7813(11) 0.1073(9)
C4A C -0.2669(12) 1.8560(11) 0.1774(9)
C5A C -0.1470(11) 1.8338(10) 0.2254(8)
H2A H -0.1571 1.8885 0.2659
C6A C -0.0146(11) 1.7326(11) 0.2138(8)
C10A C 0.1382(12) 1.5344(11) 0.1459(9)
C11A C -0.3634(13) 1.8043(11) 0.0446(9)
C12A C -0.4074(12) 1.9576(12) 0.2022(9)
C13A C 0.1057(13) 1.7079(11) 0.2751(9)
O1A O 0.4687(9) 1.3666(9) 0.0554(6)
O2A O 0.2833(9) 1.2078(9) 0.2690(7)
O4A O 0.1491(9) 1.4613(8) 0.0881(7)
O5A O 0.2378(8) 1.5042(8) 0.1990(7)
O6A O 0.1855(9) 1.7646(8) 0.2291(7)
O7A O 0.1128(8) 1.6383(7) 0.3720(6)
O8A O -0.4168(9) 2.0779(8) 0.1825(7)
O9A O -0.5023(9) 1.9199(9) 0.2460(7)
O10A O -0.4816(9) 1.8194(8) 0.0849(6)
O11A O -0.3270(8) 1.8048(8) -0.0519(6)
O16A O 0.2894(10) 1.8462(9) 0.3933(7)
H4A H 0.3377 1.8170 0.4518
H5A H 0.1979 1.9057 0.3906
O17A O 0.3901(9) 1.5763(8) 0.3932(7)
H6A H 0.4684 1.5128 0.4285
H7A H 0.3075 1.5676 0.4122
O18A O 0.6298(10) 1.6220(10) 0.3228(9)
H8A H 0.6412 1.5455 0.3778
H9A H 0.7041 1.6438 0.2955
O19A O 0.4769(12) 1.5892(10) 0.1752(8)
H10A H 0.5620 1.5187 0.1906
H11A H 0.4209 1.5912 0.1315
O20A O 0.2369(9) 1.9864(9) 0.1604(8)
H12A H 0.2598 2.0587 0.1398
H13A H 0.1514 1.9979 0.1466
O3A O 0.9306(9) 0.5008(9) 0.3898(7)
U1_2 U -0.37684(5) 1.71341(4) -0.16333(4)
U1_3 U 1.62316(5) -0.28659(4) 0.83667(4)
U1A_2 U -0.62316(5) 2.28659(4) 0.16333(4)
U1A_3 U 1.37684(5) 0.28659(4) 1.16333(4)
U2_2 U 0.0000 1.5000 0.5000
Ho1_2 Ho 1.59942(6) 0.23148(6) 0.75050(5)
Ho1A_2 Ho -0.59942(6) 1.76852(6) 0.24950(5)
O7A_2 O 1.1128(8) 0.6383(7) 0.3720(6)
O8_2 O 0.4168(9) 0.9221(8) 0.8175(7)
O8A_2 O 0.5832(9) 1.0779(8) 0.1825(7)
O9_2 O 0.5023(9) 0.0801(9) 0.7540(7)
O9A_2 O 0.4977(9) 1.9199(9) 0.2460(7)
O10_2 O 0.4816(9) 0.1806(8) 0.9151(6)
O10A_2 O 0.5184(9) 1.8194(8) 0.0849(6)
O11_2 O 0.3270(8) 1.1952(8) 0.0519(6)
O11A_2 O 0.6730(8) 0.8048(8) 0.9481(6)
O14A_2 O 1.2630(9) 0.3654(9) 0.4632(8)
O15A_2 O 1.1341(9) 0.2490(8) 0.5224(7)
O21 O 0.931(3) 0.144(5) 0.186(2)
O22 O 0.822(4) 0.133(4) 0.020(2)
O23 O 0.045(3) 0.092(2) 0.455(4)
loop_
_geom_bond_atom_site_label_1
_geom_bond_atom_site_label_2
_geom_bond_site_symmetry_1
_geom_bond_site_symmetry_2
U1 O1 1_555 1_555
U2 O3 1_555 1_555
Ho1 O6 1_555 1_555
C1 C2 1_555 1_555
C2 H1 1_555 1_555
C3 C2 1_555 1_555
C4 C3 1_555 1_555
C5 C4 1_555 1_555
H2 C5 1_555 1_555
C6 C1 1_555 1_555
C7 H3 1_555 1_555
C8 C7 1_555 1_555
C9 C8 1_555 1_555
C10 C1 1_555 1_555
C11 C3 1_555 1_555
C12 C4 1_555 1_555
C13 C6 1_555 1_555
C14 C9 1_555 1_555
C15 C8 1_555 1_555
O2 U1 1_555 1_555
O4 U1 1_555 1_555
O5 U1 1_555 1_555
O6 C13 1_555 1_555
O7 U2 1_555 1_555
O8 C12 1_555 1_555
O9 C12 1_555 1_555
O10 C11 1_555 1_555
O11 C11 1_555 1_555
O12 U1 1_555 1_555
O13 C14 1_555 1_555
O14 U2 1_555 1_555
O15 U2 1_555 1_555
O16 Ho1 1_555 1_555
H4 O16 1_555 1_555
H5 O16 1_555 1_555
O17 Ho1 1_555 1_555
H6 O17 1_555 1_555
H7 O17 1_555 1_555
O18 Ho1 1_555 1_555
H8 O18 1_555 1_555
H9 O18 1_555 1_555
O19 Ho1 1_555 1_555
H10 O19 1_555 1_555
H11 O19 1_555 1_555
O20 Ho1 1_555 1_555
H12 O20 1_555 1_555
H13 O20 1_555 1_555
C7A C9 1_555 1_555
H3A C7A 1_555 1_555
C8A C7A 1_555 1_555
C9A C7 1_555 1_555
C14A C9A 1_555 1_555
C15A C8A 1_555 1_555
O12A C14A 1_555 1_555
O13A C14A 1_555 1_555
O14A C15A 1_555 1_555
O15A C15A 1_555 1_555
U1A O12A 1_555 1_555
Ho1A O6A 1_555 1_555
C1A C2A 1_555 1_555
C2A H1A 1_555 1_555
C3A C2A 1_555 1_555
C4A C3A 1_555 1_555
C5A C4A 1_555 1_555
H2A C5A 1_555 1_555
C6A C1A 1_555 1_555
C10A C1A 1_555 1_555
C11A C3A 1_555 1_555
C12A C4A 1_555 1_555
C13A C6A 1_555 1_555
O1A U1A 1_555 1_555
O2A U1A 1_555 1_555
O4A U1A 1_555 1_555
O5A U1A 1_555 1_555
O6A C13A 1_555 1_555
O7A C13A 1_555 1_555
O8A C12A 1_555 1_555
O9A C12A 1_555 1_555
O10A C11A 1_555 1_555
O11A C11A 1_555 1_555
O16A Ho1A 1_555 1_555
H4A O16A 1_555 1_555
H5A O16A 1_555 1_555
O17A Ho1A 1_555 1_555
H6A O17A 1_555 1_555
H7A O17A 1_555 1_555
O18A Ho1A 1_555 1_555
H8A O18A 1_555 1_555
H9A O18A 1_555 1_555
O19A Ho1A 1_555 1_555
H10A O19A 1_555 1_555
H11A O19A 1_555 1_555
O20A Ho1A 1_555 1_555
H12A O20A 1_555 1_555
H13A O20A 1_555 1_555
O3A U2 1_555 1_555
U1_2 O11A 1_555 1_555
U1_3 O8 1_555 1_555
U1A_2 O8A 1_555 1_555
U1A_3 O11 1_555 1_555
U2_2 O14A 1_555 1_555
Ho1_2 O9 1_555 1_555
Ho1A_2 O9A 1_555 1_555
O7A_2 U2 1_555 1_555
O8_2 U1 1_555 1_555
O8A_2 U1A 1_555 1_555
O9_2 Ho1 1_555 1_555
O9A_2 Ho1A 1_555 1_555
O10_2 Ho1 1_555 1_555
O10A_2 Ho1A 1_555 1_555
O11_2 U1A 1_555 1_555
O11A_2 U1 1_555 1_555
O14A_2 U2 1_555 1_555
O15A_2 U2 1_555 1_555
C5 C6 1_555 1_555
C10 O4 1_555 1_555
C10 O5 1_555 1_555
C13 O7 1_555 1_555
C14 O12 1_555 1_555
C15 O14 1_555 1_555
C15 O15 1_555 1_555
O10 Ho1_2 1_555 1_555
C8A C9A 1_555 1_555
O15A U2_2 1_555 1_555
C5A C6A 1_555 1_555
C10A O4A 1_555 1_555
C10A O5A 1_555 1_555
O7A U2_2 1_555 1_555
O10A Ho1A_2 1_555 1_555

#END
