
#######################################################################
#
#                 Cambridge Crystallographic Data Centre
#                                CCDC 
#
#######################################################################
#
# If this CIF has been generated from an entry in the Cambridge 
# Structural Database, then it will include bibliographic, chemical, 
# crystal, experimental, refinement or atomic coordinate data resulting 
# from the CCDC's data processing and validation procedures.
#
#######################################################################

data_XOCXIX
_symmetry_cell_setting           triclinic
_symmetry_space_group_name_H-M   'P -1'
_symmetry_Int_Tables_number      2
_space_group_name_Hall           '-P 1'
loop_
_symmetry_equiv_pos_site_id
_symmetry_equiv_pos_as_xyz
1 x,y,z
2 -x,-y,-z
_cell_length_a                   7.9466(8)
_cell_length_b                   10.6796(11)
_cell_length_c                   14.3323(14)
_cell_angle_alpha                70.5170(10)
_cell_angle_beta                 75.6480(10)
_cell_angle_gamma                76.9750(10)
_cell_volume                     1097.26
loop_
_atom_site_label
_atom_site_type_symbol
_atom_site_fract_x
_atom_site_fract_y
_atom_site_fract_z
Tb1 Tb -0.090040(18) 0.407470(15) -0.359200(11)
Tb2 Tb 0.493710(19) 0.195600(15) -0.098080(11)
S1 S -0.13604(11) 0.59661(9) -0.22759(7)
S2 S 0.08389(11) -0.15677(9) -0.15363(7)
S3 S -0.35691(12) 0.22238(12) -0.60179(8)
O1 O 0.0861(3) 0.3401(3) -0.23747(19)
O2 O 0.1842(3) 0.2862(3) -0.09534(18)
O3 O -0.3321(3) 0.3815(2) -0.21621(17)
O4 O -0.5521(3) 0.4268(3) -0.0988(2)
O5 O -0.1050(4) 0.1810(3) -0.2994(3)
O6 O -0.2718(3) 0.0559(3) -0.17236(19)
O7 O 0.3766(3) -0.0062(2) -0.04707(18)
O8 O 0.2746(3) -0.1976(3) 0.0101(2)
O9 O -0.3239(4) 0.3544(3) -0.4314(2)
O10 O -0.0913(3) 0.4236(2) -0.53779(18)
O11 O -0.8064(3) 0.2971(3) -0.42233(18)
O12 O -0.7189(3) 0.3923(2) -0.58723(17)
O13 O 0.4393(3) 0.2306(3) -0.26265(18)
H1 H 0.5070 0.2548 -0.3175
H2 H 0.3353 0.2614 -0.2690
O14 O 0.3304(3) 0.1990(2) 0.06716(17)
H3 H 0.3163 0.1237 0.1082
H4 H 0.2332 0.2476 0.0628
C1 C 0.0843(4) 0.3586(4) -0.1544(3)
C2 C -0.0408(5) 0.4732(4) -0.1239(3)
H5 H 0.0213 0.5178 -0.0971
H6 H -0.1349 0.4373 -0.0706
C3 C -0.4204(4) 0.4607(3) -0.1642(2)
C4 C -0.3687(4) 0.5948(3) -0.1813(3)
H7 H -0.4018 0.6175 -0.1183
H8 H -0.4332 0.6630 -0.2294
C5 C 0.2798(4) -0.0835(4) -0.0516(3)
C6 C 0.1751(7) -0.0288(4) -0.1353(4)
H9 H 0.2506 0.0125 -0.1975
H10 H 0.0803 0.0405 -0.1197
C7 C -0.1393(4) 0.0711(3) -0.2429(2)
C8 C -0.0142(5) -0.0524(4) -0.2608(3)
H11 H 0.0789 -0.0238 -0.3176
H12 H -0.0776 -0.1061 -0.2787
C9 C -0.2402(4) 0.3855(4) -0.5193(3)
C10 C -0.3156(5) 0.3846(4) -0.6062(3)
H13 H -0.2350 0.4181 -0.6684
H14 H -0.4254 0.4468 -0.6083
C11 C -0.7023(4) 0.3033(3) -0.5047(3)
C12 C -0.5447(5) 0.1919(4) -0.5012(3)
H15 H -0.5836 0.1116 -0.5004
H16 H -0.5063 0.1724 -0.4380
Tb1A Tb 0.090040(18) 0.592530(15) -0.640800(11)
Tb1_2 Tb -1.090040(18) 0.407470(15) -0.359200(11)
Tb1A_2 Tb -0.909960(18) 0.592530(15) -0.640800(11)
Tb2_2 Tb -0.506290(19) 0.195600(15) -0.098080(11)
Tb2A Tb 0.506290(19) -0.195600(15) 0.098080(11)
O3_2 O 0.6679(3) 0.3815(2) -0.21621(17)
O4_2 O 0.4479(3) 0.4268(3) -0.0988(2)
O6_2 O 0.7282(3) 0.0559(3) -0.17236(19)
O7A O 0.6234(3) 0.0062(2) 0.04707(18)
O8A O 0.7254(3) 0.1976(3) -0.0101(2)
O10A O 0.0913(3) 0.5764(2) -0.46221(18)
O11_2 O 0.1936(3) 0.2971(3) -0.42233(18)
O12A O -0.2811(3) 0.6077(2) -0.41277(17)
loop_
_geom_bond_atom_site_label_1
_geom_bond_atom_site_label_2
_geom_bond_site_symmetry_1
_geom_bond_site_symmetry_2
Tb1 O1 1_555 1_555
Tb2 O2 1_555 1_555
S1 C2 1_555 1_555
S2 C6 1_555 1_555
S3 C10 1_555 1_555
O1 C1 1_555 1_555
O2 C1 1_555 1_555
O3 Tb1 1_555 1_555
O4 C3 1_555 1_555
O5 Tb1 1_555 1_555
O6 C7 1_555 1_555
O7 Tb2 1_555 1_555
O8 C5 1_555 1_555
O9 Tb1 1_555 1_555
O10 Tb1 1_555 1_555
O11 C11 1_555 1_555
O12 C11 1_555 1_555
O13 Tb2 1_555 1_555
H1 O13 1_555 1_555
H2 O13 1_555 1_555
O14 Tb2 1_555 1_555
H3 O14 1_555 1_555
H4 O14 1_555 1_555
C1 C2 1_555 1_555
C2 H5 1_555 1_555
H6 C2 1_555 1_555
C3 O3 1_555 1_555
C4 S1 1_555 1_555
H7 C4 1_555 1_555
H8 C4 1_555 1_555
C5 O7 1_555 1_555
C6 C5 1_555 1_555
H9 C6 1_555 1_555
H10 C6 1_555 1_555
C7 O5 1_555 1_555
C8 S2 1_555 1_555
H11 C8 1_555 1_555
H12 C8 1_555 1_555
C9 O9 1_555 1_555
C10 C9 1_555 1_555
H13 C10 1_555 1_555
H14 C10 1_555 1_555
C11 C12 1_555 1_555
C12 S3 1_555 1_555
H15 C12 1_555 1_555
H16 C12 1_555 1_555
Tb1A O10 1_555 1_555
Tb1_2 O11 1_555 1_555
Tb1A_2 O12 1_555 1_555
Tb2_2 O3 1_555 1_555
Tb2A O7 1_555 1_555
O3_2 Tb2 1_555 1_555
O4_2 Tb2 1_555 1_555
O6_2 Tb2 1_555 1_555
O7A Tb2 1_555 1_555
O8A Tb2 1_555 1_555
O10A Tb1 1_555 1_555
O11_2 Tb1 1_555 1_555
O12A Tb1 1_555 1_555
O4 Tb2_2 1_555 1_555
O6 Tb2_2 1_555 1_555
O8 Tb2A 1_555 1_555
O10 C9 1_555 1_555
C3 C4 1_555 1_555
C7 C8 1_555 1_555
Tb1A O10A 1_555 1_555
Tb2A O7A 1_555 1_555

#END
