
#######################################################################
#
#                 Cambridge Crystallographic Data Centre
#                                CCDC 
#
#######################################################################
#
# If this CIF has been generated from an entry in the Cambridge 
# Structural Database, then it will include bibliographic, chemical, 
# crystal, experimental, refinement or atomic coordinate data resulting 
# from the CCDC's data processing and validation procedures.
#
#######################################################################

data_XODBOI
_symmetry_cell_setting           monoclinic
_symmetry_space_group_name_H-M   'P 21/n'
_symmetry_Int_Tables_number      14
_space_group_name_Hall           '-P 2yn'
loop_
_symmetry_equiv_pos_site_id
_symmetry_equiv_pos_as_xyz
1 x,y,z
2 1/2-x,1/2+y,1/2-z
3 -x,-y,-z
4 1/2+x,1/2-y,1/2+z
_cell_length_a                   14.1935(19)
_cell_length_b                   13.7879(19)
_cell_length_c                   22.222(3)
_cell_angle_alpha                90
_cell_angle_beta                 107.888(3)
_cell_angle_gamma                90
_cell_volume                     4138.59
loop_
_atom_site_label
_atom_site_type_symbol
_atom_site_fract_x
_atom_site_fract_y
_atom_site_fract_z
I1 I 0.0647(1) -0.0581(1) 0.2514(1)
I2 I -0.0124(1) 0.2296(1) 0.3089(1)
Cu1 Cu 0.1203(1) 0.0896(1) 0.3293(1)
Cu2 Cu -0.0656(1) 0.0834(1) 0.2293(1)
S1 S -0.2243(1) 0.0307(1) 0.2172(1)
S2 S -0.7237(1) 0.1500(1) 0.3326(1)
S3 S -0.5643(1) 0.3443(1) 0.6339(1)
S4 S -0.1469(1) -0.0291(1) 0.5667(1)
C1 C -0.2738(5) 0.1039(6) 0.2681(4)
C2 C -0.3787(5) 0.0810(6) 0.2683(4)
C3 C -0.4570(6) 0.1056(8) 0.2069(4)
C4 C -0.5608(6) 0.0797(8) 0.2107(4)
C5 C -0.5839(5) 0.1312(6) 0.2658(3)
C6 C -0.5032(5) 0.1064(7) 0.3263(4)
C7 C -0.3994(5) 0.1315(7) 0.3231(4)
C8 C -0.6871(5) 0.1034(6) 0.2668(3)
C9 C -0.7297(5) 0.2815(5) 0.3208(3)
C10 C -0.6958(5) 0.3294(5) 0.3845(3)
C11 C -0.7611(6) 0.3523(6) 0.4169(4)
C12 C -0.7278(6) 0.3892(6) 0.4778(4)
C13 C -0.6289(6) 0.4054(5) 0.5075(3)
C14 C -0.5623(6) 0.3846(5) 0.4746(3)
C15 C -0.5962(6) 0.3475(5) 0.4145(3)
C16 C -0.5937(6) 0.4407(5) 0.5751(3)
C17 C -0.4337(5) 0.3231(5) 0.6458(3)
C18 C -0.4080(5) 0.2507(5) 0.6021(4)
C19 C -0.2961(6) 0.2441(6) 0.6155(5)
C20 C -0.2646(6) 0.1712(5) 0.5741(4)
C21 C -0.3078(5) 0.0715(5) 0.5778(3)
C22 C -0.4193(6) 0.0782(5) 0.5640(4)
C23 C -0.4486(6) 0.1501(5) 0.6058(4)
C24 C -0.2779(5) -0.0029(5) 0.5368(3)
C25 C -0.1389(5) -0.1358(5) 0.5216(3)
C26 C -0.1604(5) -0.1221(5) 0.4516(3)
C27 C -0.0954(6) -0.0771(6) 0.4264(3)
C28 C -0.1129(6) -0.0660(6) 0.3628(3)
C29 C -0.2005(5) -0.1002(5) 0.3201(3)
C30 C -0.2672(6) -0.1446(5) 0.3456(3)
C31 C -0.2486(5) -0.1553(5) 0.4096(4)
C32 C -0.2237(6) -0.0906(5) 0.2491(3)
H1 H -0.2300 0.0975 0.3111
H2 H -0.2719 0.1712 0.2559
H3 H -0.3822 0.0110 0.2750
H4 H -0.4444 0.0699 0.1725
H5 H -0.4542 0.1743 0.1982
H6 H -0.6101 0.0978 0.1714
H7 H -0.5649 0.0101 0.2158
H8 H -0.5826 0.2013 0.2590
H9 H -0.5060 0.0377 0.3348
H10 H -0.5149 0.1416 0.3611
H11 H -0.3943 0.2011 0.3186
H12 H -0.3503 0.1122 0.3623
H13 H -0.6914 0.0332 0.2671
H14 H -0.7346 0.1260 0.2279
H15 H -0.6874 0.3008 0.2959
H16 H -0.7970 0.3010 0.2984
H17 H -0.8286 0.3429 0.3978
H18 H -0.7733 0.4034 0.4990
H19 H -0.4951 0.3958 0.4933
H20 H -0.5507 0.3340 0.3931
H21 H -0.6447 0.4815 0.5826
H22 H -0.5352 0.4805 0.5809
H23 H -0.4033 0.3846 0.6415
H24 H -0.4038 0.3012 0.6890
H25 H -0.4367 0.2741 0.5587
H26 H -0.2712 0.3076 0.6093
H27 H -0.2659 0.2264 0.6595
H28 H -0.1929 0.1669 0.5875
H29 H -0.2863 0.1935 0.5306
H30 H -0.2804 0.0496 0.6217
H31 H -0.4493 0.0969 0.5202
H32 H -0.4449 0.0148 0.5698
H33 H -0.4248 0.1275 0.6492
H34 H -0.5202 0.1534 0.5937
H35 H -0.2937 0.0216 0.4939
H36 H -0.3152 -0.0621 0.5357
H37 H -0.0727 -0.1623 0.5385
H38 H -0.1846 -0.1838 0.5283
H39 H -0.0366 -0.0530 0.4538
H40 H -0.0661 -0.0354 0.3479
H41 H -0.3266 -0.1680 0.3184
H42 H -0.2954 -0.1850 0.4249
H43 H -0.2883 -0.1192 0.2294
H44 H -0.1758 -0.1290 0.2364
Cu1_2 Cu -0.8797(1) 0.0896(1) 0.3293(1)
Cu1B Cu -0.1203(1) -0.0896(1) 0.6707(1)
Cu2C Cu -0.5656(1) 0.4166(1) 0.7293(1)
S2_2 S 0.2763(1) 0.1500(1) 0.3326(1)
S3C S -0.0643(1) 0.1557(1) 0.1339(1)
S4B S 0.1469(1) 0.0291(1) 0.4333(1)
C33 C -0.2910(40) 0.8280(30) 0.0698(15)
C34 C -0.3700(30) 0.7600(20) 0.0390(20)
C35 C -0.3650(50) 0.8840(20) -0.0130(20)
C36 C -0.4670(30) 0.8470(30) 0.0010(20)
O1 O -0.3540(60) 0.9190(30) 0.0460(20)
H45 H -0.2700 0.8222 0.1155
H46 H -0.2348 0.8240 0.0541
H47 H -0.3880 0.7194 0.0691
H48 H -0.3517 0.7196 0.0084
H49 H -0.3729 0.9323 -0.0455
H50 H -0.3185 0.8331 -0.0150
H51 H -0.5194 0.8237 -0.0359
H52 H -0.4915 0.8874 0.0284
loop_
_geom_bond_atom_site_label_1
_geom_bond_atom_site_label_2
_geom_bond_site_symmetry_1
_geom_bond_site_symmetry_2
I1 Cu1 1_555 1_555
I2 Cu1 1_555 1_555
Cu1 S2_2 1_555 1_555
Cu2 I1 1_555 1_555
S1 Cu2 1_555 1_555
S2 C8 1_555 1_555
S3 C16 1_555 1_555
S4 C24 1_555 1_555
C1 S1 1_555 1_555
C2 C1 1_555 1_555
C3 C2 1_555 1_555
C4 C3 1_555 1_555
C5 C4 1_555 1_555
C6 C5 1_555 1_555
C7 C2 1_555 1_555
C8 C5 1_555 1_555
C9 S2 1_555 1_555
C10 C9 1_555 1_555
C11 C10 1_555 1_555
C12 C11 1_555 1_555
C13 C12 1_555 1_555
C14 C13 1_555 1_555
C15 C10 1_555 1_555
C16 C13 1_555 1_555
C17 S3 1_555 1_555
C18 C17 1_555 1_555
C19 C18 1_555 1_555
C20 C19 1_555 1_555
C21 C20 1_555 1_555
C22 C21 1_555 1_555
C23 C18 1_555 1_555
C24 C21 1_555 1_555
C25 S4 1_555 1_555
C26 C25 1_555 1_555
C27 C26 1_555 1_555
C28 C27 1_555 1_555
C29 C28 1_555 1_555
C30 C29 1_555 1_555
C31 C26 1_555 1_555
C32 S1 1_555 1_555
C33 C34 1_555 1_555
C34 C36 1_555 1_555
C35 C36 1_555 1_555
C36 H51 1_555 1_555
O1 C33 1_555 1_555
H1 C1 1_555 1_555
H2 C1 1_555 1_555
H3 C2 1_555 1_555
H4 C3 1_555 1_555
H5 C3 1_555 1_555
H6 C4 1_555 1_555
H7 C4 1_555 1_555
H8 C5 1_555 1_555
H9 C6 1_555 1_555
H10 C6 1_555 1_555
H11 C7 1_555 1_555
H12 C7 1_555 1_555
H13 C8 1_555 1_555
H14 C8 1_555 1_555
H15 C9 1_555 1_555
H16 C9 1_555 1_555
H17 C11 1_555 1_555
H18 C12 1_555 1_555
H19 C14 1_555 1_555
H20 C15 1_555 1_555
H21 C16 1_555 1_555
H22 C16 1_555 1_555
H23 C17 1_555 1_555
H24 C17 1_555 1_555
H25 C18 1_555 1_555
H26 C19 1_555 1_555
H27 C19 1_555 1_555
H28 C20 1_555 1_555
H29 C20 1_555 1_555
H30 C21 1_555 1_555
H31 C22 1_555 1_555
H32 C22 1_555 1_555
H33 C23 1_555 1_555
H34 C23 1_555 1_555
H35 C24 1_555 1_555
H36 C24 1_555 1_555
H37 C25 1_555 1_555
H38 C25 1_555 1_555
H39 C27 1_555 1_555
H40 C28 1_555 1_555
H41 C30 1_555 1_555
H42 C31 1_555 1_555
H43 C32 1_555 1_555
H44 C32 1_555 1_555
H45 C33 1_555 1_555
H46 C33 1_555 1_555
H47 C34 1_555 1_555
H48 C34 1_555 1_555
H49 C35 1_555 1_555
H50 C35 1_555 1_555
H52 C36 1_555 1_555
Cu1_2 S2 1_555 1_555
Cu1B S4 1_555 1_555
Cu2C S3 1_555 1_555
S3C Cu2 1_555 1_555
S4B Cu1 1_555 1_555
I2 Cu2 1_555 1_555
C6 C7 1_555 1_555
C14 C15 1_555 1_555
C22 C23 1_555 1_555
C29 C32 1_555 1_555
C30 C31 1_555 1_555
C35 O1 1_555 1_555

#END
