
#######################################################################
#
#                 Cambridge Crystallographic Data Centre
#                                CCDC 
#
#######################################################################
#
# If this CIF has been generated from an entry in the Cambridge 
# Structural Database, then it will include bibliographic, chemical, 
# crystal, experimental, refinement or atomic coordinate data resulting 
# from the CCDC's data processing and validation procedures.
#
#######################################################################

data_XODFUR
_symmetry_cell_setting           monoclinic
_symmetry_space_group_name_H-M   'P 21/n'
_symmetry_Int_Tables_number      14
_space_group_name_Hall           '-P 2yn'
loop_
_symmetry_equiv_pos_site_id
_symmetry_equiv_pos_as_xyz
1 x,y,z
2 1/2-x,1/2+y,1/2-z
3 -x,-y,-z
4 1/2+x,1/2-y,1/2+z
_cell_length_a                   7.5970(10)
_cell_length_b                   11.9600(10)
_cell_length_c                   18.976(2)
_cell_angle_alpha                90
_cell_angle_beta                 98.680(10)
_cell_angle_gamma                90
_cell_volume                     1704.41
loop_
_atom_site_label
_atom_site_type_symbol
_atom_site_fract_x
_atom_site_fract_y
_atom_site_fract_z
Co1 Co 0.88631(3) 0.32607(2) 0.578582(13)
N1 N 0.6983(2) 0.31818(14) 0.48128(9)
N2 N 0.8484(2) 0.15139(15) 0.56257(9)
C1 C 0.6295(3) 0.4016(2) 0.43985(13)
C2 C 0.5323(3) 0.3849(3) 0.37209(14)
C3 C 0.5018(3) 0.2784(3) 0.34687(13)
C4 C 0.5700(3) 0.1876(2) 0.38925(12)
C5 C 0.5456(4) 0.0723(2) 0.36803(14)
C6 C 0.6138(4) -0.0112(2) 0.41086(14)
C7 C 0.7170(3) 0.01060(19) 0.47888(12)
C8 C 0.7971(4) -0.0728(2) 0.52539(15)
C9 C 0.8961(4) -0.0427(2) 0.58799(15)
C10 C 0.9196(3) 0.06957(19) 0.60528(13)
C11 C 0.7466(3) 0.12249(17) 0.50069(11)
C12 C 0.6689(3) 0.21247(18) 0.45600(11)
O1 O 0.9010(2) 0.50068(11) 0.59386(7)
O2 O 0.8415(2) 0.50129(13) 0.70589(7)
C13 C 0.9043(3) 0.54509(16) 0.65546(9)
C14 C 0.9848(3) 0.66114(18) 0.66663(11)
C15 C 1.0752(3) 0.68108(17) 0.74273(11)
C16 C 1.1388(3) 0.80149(17) 0.75615(10)
C17 C 1.2431(3) 0.81243(15) 0.83023(10)
O3 O 1.1576(2) 0.82865(15) 0.88151(8)
O4 O 1.40830(19) 0.80081(13) 0.83648(7)
O5 O 0.7067(2) 0.31431(13) 0.65139(9)
O6 O 1.0818(2) 0.33843(13) 0.50997(8)
H1 H 0.648(3) 0.475(2) 0.4579(14)
H2 H 0.490(4) 0.447(3) 0.3435(14)
H3 H 0.427(5) 0.269(3) 0.2968(19)
H4 H 0.477(4) 0.065(3) 0.3252(15)
H5 H 0.590(3) -0.083(2) 0.3979(14)
H6 H 0.777(4) -0.150(3) 0.5095(16)
H7 H 0.951(4) -0.093(3) 0.6204(17)
H8 H 0.992(4) 0.093(2) 0.6489(14)
H9 H 1.061(4) 0.669(2) 0.6367(16)
H10 H 0.878(4) 0.714(2) 0.6575(13)
H11 H 0.991(4) 0.658(2) 0.7733(15)
H12 H 1.175(4) 0.631(2) 0.7526(14)
H13 H 1.042(3) 0.847(2) 0.7521(13)
H14 H 1.212(4) 0.829(2) 0.7208(15)
H15 H 0.735(4) 0.368(3) 0.6745(16)
H16 H 0.595(4) 0.319(2) 0.6361(16)
H17 H 1.166(4) 0.337(2) 0.5342(17)
H18 H 1.084(4) 0.385(2) 0.4847(15)
O4A O 1.09170(19) 0.30081(13) 0.66352(7)
Co1A Co 1.61369(3) 0.82607(2) 0.921418(13)
loop_
_geom_bond_atom_site_label_1
_geom_bond_atom_site_label_2
_geom_bond_site_symmetry_1
_geom_bond_site_symmetry_2
Co1 N1 1_555 1_555
N1 C1 1_555 1_555
N2 Co1 1_555 1_555
C1 C2 1_555 1_555
C2 C3 1_555 1_555
C3 C4 1_555 1_555
C4 C5 1_555 1_555
C5 C6 1_555 1_555
C6 C7 1_555 1_555
C7 C8 1_555 1_555
C8 C9 1_555 1_555
C9 C10 1_555 1_555
C10 N2 1_555 1_555
C11 N2 1_555 1_555
C12 N1 1_555 1_555
O1 Co1 1_555 1_555
O2 C13 1_555 1_555
C13 O1 1_555 1_555
C14 C13 1_555 1_555
C15 C14 1_555 1_555
C16 C15 1_555 1_555
C17 C16 1_555 1_555
O3 C17 1_555 1_555
O4 C17 1_555 1_555
O5 Co1 1_555 1_555
O6 Co1 1_555 1_555
H1 C1 1_555 1_555
H2 C2 1_555 1_555
H3 C3 1_555 1_555
H4 C5 1_555 1_555
H5 C6 1_555 1_555
H6 C8 1_555 1_555
H7 C9 1_555 1_555
H8 C10 1_555 1_555
H9 C14 1_555 1_555
H10 C14 1_555 1_555
H11 C15 1_555 1_555
H12 C15 1_555 1_555
H13 C16 1_555 1_555
H14 C16 1_555 1_555
H15 O5 1_555 1_555
H16 O5 1_555 1_555
H17 O6 1_555 1_555
H18 O6 1_555 1_555
O4A Co1 1_555 1_555
Co1A O4 1_555 1_555
C4 C12 1_555 1_555
C7 C11 1_555 1_555
C11 C12 1_555 1_555

#END
