
#######################################################################
#
#                 Cambridge Crystallographic Data Centre
#                                CCDC 
#
#######################################################################
#
# If this CIF has been generated from an entry in the Cambridge 
# Structural Database, then it will include bibliographic, chemical, 
# crystal, experimental, refinement or atomic coordinate data resulting 
# from the CCDC's data processing and validation procedures.
#
#######################################################################

data_XODFEC
_symmetry_cell_setting           triclinic
_symmetry_space_group_name_H-M   'P -1'
_symmetry_Int_Tables_number      2
_space_group_name_Hall           '-P 1'
loop_
_symmetry_equiv_pos_site_id
_symmetry_equiv_pos_as_xyz
1 x,y,z
2 -x,-y,-z
_cell_length_a                   11.640(3)
_cell_length_b                   13.177(3)
_cell_length_c                   31.143(7)
_cell_angle_alpha                87.435(4)
_cell_angle_beta                 84.470(4)
_cell_angle_gamma                68.017(4)
_cell_volume                     4408.62
loop_
_atom_site_label
_atom_site_type_symbol
_atom_site_fract_x
_atom_site_fract_y
_atom_site_fract_z
Cu1 Cu 0.0669(4) 0.3229(4) 0.04084(15)
W1 W 0.09534(10) -0.00581(9) 0.13590(4)
W2 W -0.12762(10) 0.22248(9) 0.09935(4)
W3 W 0.12757(10) 0.23910(9) 0.14383(4)
Cu5 Cu -0.84798(16) 0.19475(14) 0.26151(6)
W5 W 0.12777(10) -0.04674(9) 0.25485(4)
W6 W -0.14952(10) -0.06292(9) 0.20674(4)
W7 W -0.37471(10) 0.16605(9) 0.17151(4)
W8 W -0.33571(10) 0.43363(9) 0.17731(4)
W9 W -0.08407(10) 0.44742(9) 0.22045(4)
W10 W -0.01924(11) 0.23793(10) 0.37057(4)
W11 W -0.05224(11) -0.00628(10) 0.36435(4)
W12 W -0.32844(11) -0.02286(9) 0.31644(4)
Cu6 Cu -0.54426(16) 0.20615(14) 0.28185(6)
W14 W -0.51465(10) 0.47464(9) 0.28740(4)
W15 W -0.26481(11) 0.49038(10) 0.33018(4)
W16 W -0.58774(12) 0.33776(11) 0.38769(4)
W17 W -0.33531(12) 0.35228(11) 0.43108(4)
W18 W -0.36649(12) 0.10741(11) 0.42460(4)
As1 As -0.1070(3) 0.1877(2) 0.21393(9)
As2 As -0.2901(3) 0.2299(2) 0.32670(9)
O1 O 0.1869(19) -0.1211(16) 0.1077(6)
O2 O -0.174(2) 0.2509(19) 0.0480(7)
O3 O 0.241(2) 0.2800(18) 0.1181(7)
O4 O -0.7055(19) 0.2248(16) 0.2696(6)
O5 O 0.241(2) -0.1848(18) 0.2573(7)
O6 O -0.124(2) -0.1978(19) 0.1969(7)
O7 O -0.480(2) 0.175(2) 0.1369(8)
O8 O -0.441(2) 0.5299(18) 0.1450(7)
O9 O -0.0336(17) 0.5543(14) 0.2172(6)
O10 O 0.061(2) 0.276(2) 0.4034(8)
O11 O 0.016(2) -0.1244(18) 0.3892(7)
O12 O -0.329(2) -0.151(2) 0.3280(8)
O13 O -0.6551(18) 0.5807(16) 0.2792(6)
O14 O -0.242(3) 0.603(2) 0.3494(9)
O15 O -0.740(2) 0.401(2) 0.4075(8)
O16 O -0.327(3) 0.418(2) 0.4761(9)
O17 O -0.377(2) 0.017(2) 0.4651(8)
O18 O -0.0081(17) 0.0750(14) 0.0913(6)
O19 O 0.0135(17) 0.2715(15) 0.0953(6)
O20 O 0.1883(18) 0.0874(16) 0.1234(6)
O21 O 0.1799(19) 0.1999(16) 0.1966(6)
O22 O 0.1438(18) -0.0284(15) 0.1914(6)
O23 O -0.0404(19) -0.0397(16) 0.1585(7)
O24 O -0.2404(19) 0.1622(17) 0.1248(7)
O25 O -0.2232(17) 0.3609(15) 0.1290(6)
O26 O 0.0139(17) 0.3718(14) 0.1695(6)
O27 O 0.2319(18) 0.0303(16) 0.2614(6)
O28 O -0.020(2) -0.0758(17) 0.2414(7)
O29 O -0.2966(18) 0.0094(15) 0.1761(6)
O30 O -0.3930(17) 0.3149(15) 0.1804(6)
O31 O -0.234(2) 0.5132(18) 0.1887(7)
O32 O 0.032(2) 0.3475(17) 0.2532(7)
O33 O 0.097(2) 0.1917(18) 0.3226(7)
O34 O 0.064(2) -0.0347(19) 0.3139(8)
O35 O -0.258(2) -0.0480(17) 0.2568(7)
O36 O -0.4672(19) 0.1583(16) 0.2203(7)
O37 O -0.4312(18) 0.4831(15) 0.2312(6)
O38 O -0.194(2) 0.4926(17) 0.2723(7)
O39 O 0.025(2) 0.0847(18) 0.3857(7)
O40 O -0.1615(19) -0.0415(16) 0.3318(6)
O41 O -0.4881(18) 0.0483(16) 0.3005(6)
O42 O -0.541(2) 0.3486(18) 0.2702(7)
O43 O -0.4284(17) 0.5577(15) 0.3144(6)
O44 O -0.105(2) 0.3680(19) 0.3456(8)
O45 O -0.165(2) 0.2763(18) 0.4133(7)
O46 O -0.193(2) 0.0506(17) 0.4078(7)
O47 O -0.383(2) 0.0411(17) 0.3752(7)
O48 O -0.5946(18) 0.2580(15) 0.3435(6)
O49 O -0.564(2) 0.4380(19) 0.3459(8)
O50 O -0.3352(19) 0.4487(17) 0.3851(7)
O51 O -0.5146(19) 0.3999(17) 0.4283(7)
O52 O -0.333(2) 0.211(2) 0.4592(8)
O53 O -0.533(2) 0.208(2) 0.4242(8)
O54 O 0.0008(18) 0.1357(16) 0.2503(6)
O55 O -0.2075(18) 0.1223(16) 0.2144(6)
O56 O -0.1782(19) 0.3241(16) 0.2197(7)
O57 O -0.0279(17) 0.1698(15) 0.1648(6)
O58 O -0.1412(18) 0.1705(15) 0.3339(6)
O59 O -0.3490(18) 0.1566(15) 0.2993(6)
O60 O -0.3173(16) 0.3525(14) 0.3051(6)
O61 O -0.3693(19) 0.2498(16) 0.3775(6)
N1 N 0.180(2) 0.406(2) 0.0202(8)
N2 N 0.041(3) 0.331(2) -0.0246(9)
C1 C -0.022(3) 0.286(2) -0.0436(10)
H9 H -0.0665 0.2487 -0.0277
C2 C 0.251(4) 0.442(3) 0.0413(14)
H10 H 0.2512 0.4252 0.0706
C3 C -0.022(4) 0.293(3) -0.0872(14)
H11 H -0.0613 0.2552 -0.1006
C4 C 0.320(5) 0.499(4) 0.0277(16)
H12 H 0.3593 0.5266 0.0459
C5 C 0.031(4) 0.353(4) -0.1123(13)
H13 H 0.0226 0.3625 -0.1418
C6 C 0.329(4) 0.512(3) -0.0186(12)
H14 H 0.3821 0.5436 -0.0319
C7 C 0.259(3) 0.478(3) -0.0424(12)
H15 H 0.2675 0.4849 -0.0723
C8 C 0.098(3) 0.397(3) -0.0915(11)
H16 H 0.1377 0.4381 -0.1071
C9 C 0.108(3) 0.383(2) -0.0464(9)
C10 C 0.177(3) 0.435(3) -0.0240(11)
Cu5_2 Cu 0.15202(16) 0.19475(14) 0.26151(6)
W5_2 W -0.87223(10) -0.04674(9) 0.25485(4)
O21_2 O -0.8201(19) 0.1999(16) 0.1966(6)
O27_2 O -0.7681(18) 0.0303(16) 0.2614(6)
O32_2 O -0.968(2) 0.3475(17) 0.2532(7)
O33_2 O -0.903(2) 0.1917(18) 0.3226(7)
O54_2 O -0.9992(18) 0.1357(16) 0.2503(6)
Cu2 Cu 0.3891(7) 0.1755(5) -0.1073(2)
N3 N 0.304(3) 0.112(2) -0.0617(10)
N4 N 0.473(4) 0.197(3) -0.0524(13)
C11 C 0.221(3) 0.067(3) -0.0693(12)
H17 H 0.1986 0.0675 -0.0971
C12 C 0.566(4) 0.240(4) -0.0535(15)
H18 H 0.5996 0.2617 -0.0788
C13 C 0.168(4) 0.018(3) -0.0343(12)
H19 H 0.1237 -0.0248 -0.0395
C14 C 0.601(6) 0.246(5) -0.0160(15)
H20 H 0.6629 0.2737 -0.0158
C15 C 0.186(4) 0.038(3) 0.0055(14)
H21 H 0.1379 0.0215 0.0284
C16 C 0.560(4) 0.217(4) 0.0229(14)
H22 H 0.5933 0.2262 0.0478
C17 C 0.278(4) 0.084(3) 0.0151(13)
H23 H 0.2958 0.0903 0.0431
C18 C 0.477(5) 0.179(5) 0.0247(19)
H24 H 0.4457 0.1566 0.0507
C19 C 0.430(3) 0.170(3) -0.0176(10)
C20 C 0.335(3) 0.116(3) -0.0196(11)
O62 O 0.555(3) -0.007(3) -0.1334(12)
Cu3 Cu 0.1523(4) 0.5690(3) 0.25094(14)
N5 N 0.045(3) 0.704(3) 0.2884(10)
H1 H 0.0343 0.7709 0.2831
N6 N 0.135(3) 0.477(3) 0.3028(10)
H2 H 0.1592 0.4064 0.3022
N7 N 0.261(3) 0.448(2) 0.2087(8)
H3 H 0.2938 0.3793 0.2144
N8 N 0.168(3) 0.664(2) 0.1993(9)
H4 H 0.1196 0.7302 0.1940
C21 C -0.010(4) 0.659(4) 0.3259(14)
H25 H -0.0860 0.6539 0.3179
H26 H -0.0330 0.7121 0.3490
C22 C 0.074(6) 0.545(5) 0.344(2)
H27 H 0.1359 0.5519 0.3609
H28 H 0.0236 0.5119 0.3618
C23 C 0.272(4) 0.498(3) 0.1701(9)
H29 H 0.3463 0.4505 0.1535
H30 H 0.2013 0.5052 0.1544
C24 C 0.279(5) 0.598(3) 0.1731(17)
H31 H 0.2816 0.6303 0.1447
H32 H 0.3529 0.5915 0.1866
Cu4 Cu -0.4800(6) -0.2699(6) 0.4252(2)
N9 N -0.603(6) -0.339(5) 0.4340(19)
H5 H -0.6226 -0.3686 0.4573
N10 N -0.543(3) -0.230(3) 0.3675(12)
H6 H -0.5045 -0.2131 0.3450
N11 N -0.332(4) -0.217(4) 0.4150(14)
H7 H -0.3302 -0.1666 0.3970
N12 N -0.405(4) -0.334(4) 0.4787(15)
H8 H -0.4213 -0.3804 0.4961
C25 C -0.655(5) -0.329(4) 0.3923(15)
H33 H -0.5966 -0.3862 0.3737
H34 H -0.7306 -0.3447 0.3970
C26 C -0.682(5) -0.233(4) 0.3707(18)
H35 H -0.7432 -0.1726 0.3870
H36 H -0.7103 -0.2358 0.3425
C27 C -0.238(5) -0.274(4) 0.4404(16)
H37 H -0.1856 -0.2334 0.4442
H38 H -0.1879 -0.3454 0.4287
C28 C -0.312(8) -0.282(7) 0.481(2)
H39 H -0.3550 -0.2093 0.4927
H40 H -0.2539 -0.3238 0.5020
O64 O 1.329(5) 0.040(4) 0.3745(16)
O65 O 0.520(5) 0.046(4) -0.2202(16)
W4? W 0.15202(16) 0.19475(14) 0.26151(6)
W13? W -0.54426(16) 0.20615(14) 0.28185(6)
O63? O -0.616(5) -0.079(4) 0.4462(16)
O66? O 0.367(5) 0.260(4) -0.1663(18)
loop_
_geom_bond_atom_site_label_1
_geom_bond_atom_site_label_2
_geom_bond_site_symmetry_1
_geom_bond_site_symmetry_2
Cu1 O19 1_555 1_555
Cu2 N3 1_555 1_555
Cu3 N5 1_555 1_555
Cu4 N9 1_555 1_555
W1 O1 1_555 1_555
W2 O2 1_555 1_555
W3 O3 1_555 1_555
Cu5 O4 1_555 1_555
W5 O5 1_555 1_555
W6 O6 1_555 1_555
W7 O7 1_555 1_555
W8 O8 1_555 1_555
W9 O9 1_555 1_555
W10 O10 1_555 1_555
W11 O11 1_555 1_555
W12 O12 1_555 1_555
Cu6 O4 1_555 1_555
W14 O13 1_555 1_555
W15 O14 1_555 1_555
W16 O15 1_555 1_555
W17 O16 1_555 1_555
W18 O17 1_555 1_555
As1 O54 1_555 1_555
As2 O58 1_555 1_555
O18 W1 1_555 1_555
O19 W2 1_555 1_555
O20 W1 1_555 1_555
O21 W3 1_555 1_555
O22 W1 1_555 1_555
O23 W1 1_555 1_555
O24 W2 1_555 1_555
O25 W2 1_555 1_555
O26 W3 1_555 1_555
O27 W5 1_555 1_555
O28 W5 1_555 1_555
O29 W6 1_555 1_555
O30 W7 1_555 1_555
O31 W8 1_555 1_555
O32 W9 1_555 1_555
O33 W10 1_555 1_555
O34 W5 1_555 1_555
O35 W6 1_555 1_555
O36 W7 1_555 1_555
O37 W8 1_555 1_555
O38 W9 1_555 1_555
O39 W10 1_555 1_555
O40 W11 1_555 1_555
O41 W12 1_555 1_555
O42 Cu6 1_555 1_555
O43 W14 1_555 1_555
O44 W10 1_555 1_555
O45 W10 1_555 1_555
O46 W11 1_555 1_555
O47 W12 1_555 1_555
O48 Cu6 1_555 1_555
O49 W14 1_555 1_555
O50 W15 1_555 1_555
O51 W16 1_555 1_555
O52 W17 1_555 1_555
O53 W16 1_555 1_555
O54 W5 1_555 1_555
O55 W6 1_555 1_555
O56 W8 1_555 1_555
O57 W1 1_555 1_555
O58 W10 1_555 1_555
O59 W12 1_555 1_555
O60 W14 1_555 1_555
O61 W16 1_555 1_555
N1 Cu1 1_555 1_555
N2 Cu1 1_555 1_555
N3 C11 1_555 1_555
N4 Cu2 1_555 1_555
N5 H1 1_555 1_555
N6 Cu3 1_555 1_555
H2 N6 1_555 1_555
N7 Cu3 1_555 1_555
H3 N7 1_555 1_555
N8 Cu3 1_555 1_555
H4 N8 1_555 1_555
N9 H5 1_555 1_555
N10 Cu4 1_555 1_555
H6 N10 1_555 1_555
N11 Cu4 1_555 1_555
H7 N11 1_555 1_555
N12 Cu4 1_555 1_555
H8 N12 1_555 1_555
C1 N2 1_555 1_555
H9 C1 1_555 1_555
C2 N1 1_555 1_555
H10 C2 1_555 1_555
C3 C1 1_555 1_555
H11 C3 1_555 1_555
C4 C2 1_555 1_555
H12 C4 1_555 1_555
C5 C3 1_555 1_555
H13 C5 1_555 1_555
C6 C4 1_555 1_555
H14 C6 1_555 1_555
C7 C6 1_555 1_555
H15 C7 1_555 1_555
C8 C5 1_555 1_555
H16 C8 1_555 1_555
C9 N2 1_555 1_555
C10 N1 1_555 1_555
C11 H17 1_555 1_555
C12 N4 1_555 1_555
H18 C12 1_555 1_555
C13 C11 1_555 1_555
H19 C13 1_555 1_555
C14 C12 1_555 1_555
H20 C14 1_555 1_555
C15 C13 1_555 1_555
H21 C15 1_555 1_555
C16 C14 1_555 1_555
H22 C16 1_555 1_555
C17 C15 1_555 1_555
H23 C17 1_555 1_555
C18 C16 1_555 1_555
H24 C18 1_555 1_555
C19 N4 1_555 1_555
C20 N3 1_555 1_555
C21 N5 1_555 1_555
H25 C21 1_555 1_555
H26 C21 1_555 1_555
C22 N6 1_555 1_555
H27 C22 1_555 1_555
H28 C22 1_555 1_555
C23 N7 1_555 1_555
H29 C23 1_555 1_555
H30 C23 1_555 1_555
C24 N8 1_555 1_555
H31 C24 1_555 1_555
H32 C24 1_555 1_555
C25 N9 1_555 1_555
H33 C25 1_555 1_555
H34 C25 1_555 1_555
C26 N10 1_555 1_555
H35 C26 1_555 1_555
H36 C26 1_555 1_555
C27 N11 1_555 1_555
H37 C27 1_555 1_555
H38 C27 1_555 1_555
C28 N12 1_555 1_555
H39 C28 1_555 1_555
H40 C28 1_555 1_555
O62 Cu2 1_555 1_555
Cu5_2 O21 1_555 1_555
W5_2 O27_2 1_555 1_555
O21_2 Cu5 1_555 1_555
O27_2 Cu5 1_555 1_555
O32_2 Cu5 1_555 1_555
O33_2 Cu5 1_555 1_555
O54_2 Cu5 1_555 1_555
W2 O18 1_555 1_555
W2 O57 1_555 1_555
W3 O19 1_555 1_555
W3 O20 1_555 1_555
W3 O57 1_555 1_555
W5 O22 1_555 1_555
W6 O23 1_555 1_555
W6 O28 1_555 1_555
W7 O24 1_555 1_555
W7 O29 1_555 1_555
W7 O55 1_555 1_555
W8 O25 1_555 1_555
W8 O30 1_555 1_555
W9 O26 1_555 1_555
W9 O31 1_555 1_555
W9 O56 1_555 1_555
W11 O34 1_555 1_555
W11 O39 1_555 1_555
W11 O58 1_555 1_555
W12 O35 1_555 1_555
W12 O40 1_555 1_555
Cu6 O36 1_555 1_555
Cu6 O41 1_555 1_555
Cu6 O59 1_555 1_555
W14 O37 1_555 1_555
W14 O42 1_555 1_555
W15 O38 1_555 1_555
W15 O43 1_555 1_555
W15 O44 1_555 1_555
W15 O60 1_555 1_555
W16 O48 1_555 1_555
W16 O49 1_555 1_555
W17 O45 1_555 1_555
W17 O50 1_555 1_555
W17 O51 1_555 1_555
W17 O61 1_555 1_555
W18 O46 1_555 1_555
W18 O47 1_555 1_555
W18 O52 1_555 1_555
W18 O53 1_555 1_555
W18 O61 1_555 1_555
As1 O55 1_555 1_555
As1 O56 1_555 1_555
As1 O57 1_555 1_555
As2 O59 1_555 1_555
As2 O60 1_555 1_555
As2 O61 1_555 1_555
O27 Cu5_2 1_555 1_555
O32 Cu5_2 1_555 1_555
O33 Cu5_2 1_555 1_555
O54 Cu5_2 1_555 1_555
C7 C10 1_555 1_555
C8 C9 1_555 1_555
C9 C10 1_555 1_555
C17 C20 1_555 1_555
C18 C19 1_555 1_555
C19 C20 1_555 1_555
C21 C22 1_555 1_555
C23 C24 1_555 1_555
C25 C26 1_555 1_555
C27 C28 1_555 1_555
W5_2 O54_2 1_555 1_555

#END
