
#######################################################################
#
#                 Cambridge Crystallographic Data Centre
#                                CCDC 
#
#######################################################################
#
# If this CIF has been generated from an entry in the Cambridge 
# Structural Database, then it will include bibliographic, chemical, 
# crystal, experimental, refinement or atomic coordinate data resulting 
# from the CCDC's data processing and validation procedures.
#
#######################################################################

data_XODGUU
_symmetry_cell_setting           triclinic
_symmetry_space_group_name_H-M   'P -1'
_symmetry_Int_Tables_number      2
_space_group_name_Hall           '-P 1'
loop_
_symmetry_equiv_pos_site_id
_symmetry_equiv_pos_as_xyz
1 x,y,z
2 -x,-y,-z
_cell_length_a                   12.4881(8)
_cell_length_b                   13.2558(8)
_cell_length_c                   13.2738(8)
_cell_angle_alpha                112.0191(15)
_cell_angle_beta                 107.4532(15)
_cell_angle_gamma                98.2194(16)
_cell_volume                     1860.48
loop_
_atom_site_label
_atom_site_type_symbol
_atom_site_fract_x
_atom_site_fract_y
_atom_site_fract_z
O5 O 0.5782(4) 0.2329(3) 0.6290(4)
H17 H 0.6060 0.2945 0.6943
H18 H 0.6147 0.2399 0.5859
O6 O 0.3966(6) 0.1858(4) 0.9719(4)
H19 H 0.3576 0.1569 0.9005
H20 H 0.4702 0.1953 0.9889
O7 O 0.3133(3) 0.0918(3) 0.7282(3)
H21 H 0.2385 0.0758 0.7039
H22 H 0.3370 0.1281 0.6936
O8 O 0.3454(3) 0.1873(3) 0.5815(3)
H23 H 0.3289 0.2480 0.5940
H24 H 0.4218 0.2006 0.6115
O9 O 0.5823(4) 1.0833(4) 0.2920(4)
H25 H 0.6233 1.0375 0.2962
H26 H 0.6080 1.1428 0.3584
O10 O 0.5635(6) 1.1173(6) 0.0920(7)
H27 H 0.6042 1.0795 0.1221
H28 H 0.5091 1.1214 0.1221
O11 O 0.3749(14) 0.9542(14) 0.308(2)
Zn1 Zn 0.22238(4) 0.48353(4) 0.49142(4)
N1 N 0.0816(3) 0.3397(3) 0.4126(3)
N2 N 0.3295(3) 0.4366(3) 0.4057(3)
O1 O 0.2630(3) 0.5550(2) 0.6611(3)
O2 O 0.1374(3) 0.5727(2) 0.4270(3)
C1 C -0.0274(4) 0.3438(4) 0.3622(4)
C2 C 0.0951(4) 0.2398(3) 0.4106(4)
C3 C 0.3008(4) 0.4870(3) 0.7011(4)
H1 H -0.0376 0.4140 0.3642
C4 C -0.1240(4) 0.2519(4) 0.3085(5)
H2 H 0.1718 0.2358 0.4459
C5 C 0.0017(4) 0.1432(3) 0.3594(4)
O3 O 0.3178(3) 0.3990(2) 0.6364(3)
C6 C 0.3195(4) 0.5135(3) 0.8252(4)
H3 H -0.1995 0.2582 0.2729
C7 C -0.1104(4) 0.1494(4) 0.3065(4)
C8 C 0.0172(4) 0.0372(3) 0.3647(4)
C9 C 0.3488(3) 0.4368(3) 0.8685(3)
C10 C 0.3040(5) 0.6154(4) 0.8965(4)
H4 H -0.1764 0.0842 0.2696
N3 N 0.1227(3) 0.0219(3) 0.4113(3)
N4 N -0.0717(3) -0.0512(3) 0.3285(3)
C11 C 0.3566(4) 0.4618(3) 0.9815(4)
H5 H 0.3630 0.3696 0.8222
H6 H 0.2853 0.6674 0.8654
C12 C 0.3154(6) 0.6411(4) 1.0104(5)
H7 H 0.1920 0.0716 0.4412
C13 C 0.1003(4) -0.0867(3) 0.4025(4)
C14 C -0.0218(4) -0.1309(3) 0.3512(4)
N5 N 0.3774(3) 0.4025(3) 1.0477(3)
C15 C 0.3406(5) 0.5625(4) 1.0533(4)
H8 H 0.3063 0.7106 1.0585
C16 C 0.1726(4) -0.1481(3) 0.4359(4)
C17 C -0.0752(4) -0.2412(4) 0.3304(5)
H9 H 0.3917 0.3361 1.0265
C18 C 0.3717(4) 0.4662(3) 1.1516(4)
N6 N 0.3511(4) 0.5631(3) 1.1604(3)
H10 H 0.2554 -0.1166 0.4723
C19 C 0.1191(4) -0.2578(3) 0.4142(4)
C20 C -0.0028(4) -0.3026(3) 0.3612(4)
H11 H -0.1581 -0.2722 0.2965
C21 C 0.3831(4) 0.4285(3) 1.2442(4)
C22 C 0.1924(4) -0.3273(3) 0.4512(4)
H12 H -0.0368 -0.3783 0.3459
C23 C 0.4461(4) 0.3527(4) 1.2586(4)
C24 C 0.3254(4) 0.4675(3) 1.3194(4)
O4 O 0.3010(3) -0.2868(2) 0.5026(3)
C25 C 0.4509(4) 0.3222(4) 1.3482(4)
H13 H 0.4851 0.3226 1.2077
H14 H 0.2812 0.5182 1.3093
C26 C 0.3925(4) 0.3657(4) 1.4197(4)
H15 H 0.4942 0.2716 1.3604
H16 H 0.3971 0.3446 1.4815
O2_2 O 0.1374(3) -0.4273(2) 0.4270(3)
N2_2 N 0.3295(3) 0.4366(3) 1.4057(3)
Zn1_2 Zn 0.22238(4) -0.51647(4) 0.49142(4)
Zn1_3 Zn 0.22238(4) 0.48353(4) 1.49142(4)
O12? O 0.2235(15) 0.9112(14) 0.159(2)
H29? H 0.2844 0.9023 0.1992
C27? C 0.241(3) 0.954(3) 0.078(3)
H30? H 0.1727 0.9785 0.0472
H31? H 0.2500 0.8946 0.0132
H32? H 0.3114 1.0195 0.1198
C28? C 0.9621(18) 0.6141(18) 0.9574(17)
C29? C 0.9220(15) 0.6791(18) 1.0383(18)
H33? H 0.9167 0.6566 1.0971
C30? C 0.8892(18) 0.7741(17) 1.0399(14)
H34? H 0.8568 0.8136 1.0937
C31? C 0.9055(14) 0.8074(17) 0.9617(14)
H35? H 0.8878 0.8744 0.9605
C32? C 0.9475(18) 0.7452(19) 0.8834(17)
H36? H 0.9531 0.7698 0.8261
C33? C 0.984(2) 0.648(2) 0.8781(17)
H37? H 1.0188 0.6106 0.8260
C34? C 0.995(3) 0.508(2) 0.950(2)
H38? H 1.0541 0.4993 0.9159
H39? H 0.9250 0.4419 0.9009
H40? H 1.0263 0.5125 1.0295
loop_
_geom_bond_atom_site_label_1
_geom_bond_atom_site_label_2
_geom_bond_site_symmetry_1
_geom_bond_site_symmetry_2
Zn1 N1 1_555 1_555
N1 C1 1_555 1_555
N2 Zn1 1_555 1_555
O1 Zn1 1_555 1_555
O2 Zn1 1_555 1_555
C1 H1 1_555 1_555
C2 N1 1_555 1_555
C3 O1 1_555 1_555
C4 C1 1_555 1_555
H2 C2 1_555 1_555
C5 C2 1_555 1_555
O3 C3 1_555 1_555
C6 C3 1_555 1_555
H3 C4 1_555 1_555
C7 C4 1_555 1_555
C8 C5 1_555 1_555
C9 C6 1_555 1_555
C10 C6 1_555 1_555
H4 C7 1_555 1_555
N3 C8 1_555 1_555
N4 C8 1_555 1_555
C11 C9 1_555 1_555
H5 C9 1_555 1_555
H6 C10 1_555 1_555
C12 C10 1_555 1_555
H7 N3 1_555 1_555
C13 N3 1_555 1_555
C14 N4 1_555 1_555
N5 C11 1_555 1_555
C15 C11 1_555 1_555
H8 C12 1_555 1_555
C16 C13 1_555 1_555
C17 C14 1_555 1_555
H9 N5 1_555 1_555
C18 N5 1_555 1_555
N6 C15 1_555 1_555
H10 C16 1_555 1_555
C19 C16 1_555 1_555
C20 C17 1_555 1_555
H11 C17 1_555 1_555
C21 C18 1_555 1_555
C22 C19 1_555 1_555
H12 C20 1_555 1_555
C23 C21 1_555 1_555
C24 C21 1_555 1_555
O4 C22 1_555 1_555
C25 C23 1_555 1_555
H13 C23 1_555 1_555
H14 C24 1_555 1_555
C26 C25 1_555 1_555
H15 C25 1_555 1_555
H16 C26 1_555 1_555
O5 H17 1_555 1_555
H18 O5 1_555 1_555
O6 H19 1_555 1_555
H20 O6 1_555 1_555
O7 H21 1_555 1_555
H22 O7 1_555 1_555
O8 H23 1_555 1_555
H24 O8 1_555 1_555
O9 H25 1_555 1_555
H26 O9 1_555 1_555
O10 H27 1_555 1_555
H28 O10 1_555 1_555
O2_2 C22 1_555 1_555
N2_2 C24 1_555 1_555
Zn1_2 O2_2 1_555 1_555
Zn1_3 N2_2 1_555 1_555
C5 C7 1_555 1_555
C12 C15 1_555 1_555
C13 C14 1_555 1_555
C18 N6 1_555 1_555
C19 C20 1_555 1_555
C26 N2_2 1_555 1_555

#END
