
#######################################################################
#
#                 Cambridge Crystallographic Data Centre
#                                CCDC 
#
#######################################################################
#
# If this CIF has been generated from an entry in the Cambridge 
# Structural Database, then it will include bibliographic, chemical, 
# crystal, experimental, refinement or atomic coordinate data resulting 
# from the CCDC's data processing and validation procedures.
#
#######################################################################

data_XODGOO
_symmetry_cell_setting           triclinic
_symmetry_space_group_name_H-M   'P -1'
_symmetry_Int_Tables_number      2
_space_group_name_Hall           '-P 1'
loop_
_symmetry_equiv_pos_site_id
_symmetry_equiv_pos_as_xyz
1 x,y,z
2 -x,-y,-z
_cell_length_a                   12.5650(8)
_cell_length_b                   13.2721(9)
_cell_length_c                   13.2881(9)
_cell_angle_alpha                111.9938(14)
_cell_angle_beta                 107.5534(14)
_cell_angle_gamma                97.9667(15)
_cell_volume                     1878.05
loop_
_atom_site_label
_atom_site_type_symbol
_atom_site_fract_x
_atom_site_fract_y
_atom_site_fract_z
Zn1 Zn 0.77785(5) 0.51842(4) 0.51027(5)
O1 O 0.8618(3) 1.4283(3) 0.5741(3)
O2 O 0.7000(3) 1.2886(3) 0.4993(3)
O3 O 0.7369(3) 0.4473(3) 0.3404(3)
O4 O 0.6837(3) 0.6039(3) 0.3654(3)
N1 N 0.9183(4) 0.6610(3) 0.5884(4)
N2 N 0.8789(4) 0.9810(3) 0.5928(4)
H1 H 0.8098 0.9331 0.5658
N3 N 1.0716(4) 1.0505(3) 0.6692(4)
N4 N 0.6705(4) 0.5644(3) -0.4049(4)
N5 N 0.6214(4) 0.5974(3) -0.0486(4)
H2 H 0.6074 0.6638 -0.0276
N6 N 0.6436(5) 0.4360(4) -0.1611(4)
C1 C 1.0271(5) 0.6555(4) 0.6361(5)
H3 H 1.0374 0.5849 0.6329
C2 C 1.1231(5) 0.7464(5) 0.6886(5)
H4 H 1.1982 0.7392 0.7225
C3 C 1.1101(5) 0.8497(4) 0.6922(5)
H5 H 1.1757 0.9144 0.7291
C4 C 0.9977(5) 0.8563(4) 0.6401(5)
C5 C 0.9053(4) 0.7610(4) 0.5903(5)
H6 H 0.8291 0.7656 0.5559
C6 C 0.9829(5) 0.9631(4) 0.6357(5)
C7 C 0.9012(4) 1.0883(4) 0.5995(5)
C8 C 0.8281(5) 1.1502(4) 0.5665(5)
H7 H 0.7458 1.1198 0.5320
C9 C 0.8816(4) 1.2583(4) 0.5866(4)
C10 C 1.0035(5) 1.3019(4) 0.6360(5)
H8 H 1.0375 1.3766 0.6492
C11 C 1.0747(5) 1.2393(4) 0.6655(5)
H9 H 1.1570 1.2686 0.6973
C12 C 1.0216(4) 1.1309(4) 0.6473(4)
C13 C 0.8083(5) 1.3287(4) 0.5504(4)
C14 C 0.6066(5) 0.6347(4) -0.4198(5)
H10 H 0.6029 0.6564 -0.4809
C15 C 0.5461(5) 0.6764(5) -0.3502(5)
H11 H 0.5013 0.7255 -0.3639
C16 C 0.5512(5) 0.6465(5) -0.2602(5)
H12 H 0.5121 0.6764 -0.2097
C17 C 0.6147(5) 0.5715(4) -0.2448(4)
C18 C 0.6740(5) 0.5336(4) -0.3180(4)
H13 H 0.7189 0.4840 -0.3066
C19 C 0.6264(5) 0.5343(4) -0.1519(4)
C20 C 0.6421(4) 0.5391(4) 0.0188(4)
C21 C 0.6517(4) 0.5654(4) 0.1328(4)
H14 H 0.6397 0.6336 0.1796
C22 C 0.6795(4) 0.4881(4) 0.1759(4)
C23 C 0.6912(6) 0.3852(5) 0.1037(5)
H15 H 0.7085 0.3330 0.1349
C24 C 0.6784(7) 0.3576(5) -0.0102(6)
H16 H 0.6844 0.2867 -0.0587
C25 C 0.6559(6) 0.4379(5) -0.0528(5)
C26 C 0.7001(4) 0.5162(4) 0.3011(4)
Zn1_2 Zn 0.77785(5) 0.51842(4) -0.48973(5)
Zn1_3 Zn 0.77785(5) 1.51842(4) 0.51027(5)
O1_2 O 0.8618(3) 0.4283(3) 0.5741(3)
N4_2 N 0.6705(4) 0.5644(3) 0.5951(4)
O5 O 0.4212(4) 0.7662(4) 0.3694(5)
H17 H 0.3921 0.7642 0.4194
H18 H 0.4015 0.6995 0.3130
O6 O 0.6032(6) 0.8183(5) 0.0280(5)
H19 H 0.6440 0.8374 0.0978
H20 H 0.5337 0.8012 0.0183
O7 O 0.6879(4) 0.9104(3) 0.2708(4)
H21 H 0.6695 0.8808 0.3125
H22 H 0.7625 0.9347 0.2965
O8 O 0.6545(4) 0.8142(4) 0.4214(5)
H23 H 0.5795 0.8020 0.3866
H24 H 0.6650 0.7467 0.4078
O9 O 0.4168(6) 0.9173(5) 0.7038(5)
H25 H 0.3874 0.8585 0.6352
H26 H 0.3794 0.9048 0.7448
O10 O 0.6233(11) 1.0421(10) 0.6854(14)
H27 H 0.6841 1.0796 0.7382
H28 H 0.5731 1.0349 0.7200
O11 O 0.4193(9) 0.8689(8) 0.8982(9)
H29 H 0.4132 0.8911 0.9611
H30 H 0.4828 0.8932 0.9001
O12 O 0.733(3) 1.012(3) 1.001(3)
C27 C 0.624(2) 0.973(3) 0.903(3)
C28 C 1.0016(13) 0.6730(14) 0.8911(12)
H31 H 1.0393 0.6431 0.8392
C29 C 0.9529(13) 0.7602(13) 0.8883(11)
H32 H 0.9573 0.7900 0.8343
C30 C 0.8978(11) 0.8040(10) 0.9643(12)
H33 H 0.8645 0.8636 0.9623
C31 C 0.8913(10) 0.7604(12) 1.0432(10)
H34 H 0.8537 0.7903 1.0952
C32 C 0.9401(12) 0.6732(13) 1.0461(11)
H35 H 0.9357 0.6434 1.1000
C33 C 0.9952(13) 0.6295(11) 0.9701(15)
H36 H 1.0285 0.5699 0.9720
O13? O 0.795(2) 1.035(2) 0.846(2)
loop_
_geom_bond_atom_site_label_1
_geom_bond_atom_site_label_2
_geom_bond_site_symmetry_1
_geom_bond_site_symmetry_2
Zn1 O3 1_555 1_555
O1 C13 1_555 1_555
O2 C13 1_555 1_555
O3 C26 1_555 1_555
O4 C26 1_555 1_555
N1 Zn1 1_555 1_555
N2 H1 1_555 1_555
N3 C6 1_555 1_555
N4 C14 1_555 1_555
N5 H2 1_555 1_555
N6 C19 1_555 1_555
C1 N1 1_555 1_555
H3 C1 1_555 1_555
C2 C1 1_555 1_555
H4 C2 1_555 1_555
C3 C2 1_555 1_555
H5 C3 1_555 1_555
C4 C3 1_555 1_555
C5 N1 1_555 1_555
H6 C5 1_555 1_555
C6 N2 1_555 1_555
C7 N2 1_555 1_555
C8 C7 1_555 1_555
H7 C8 1_555 1_555
C9 C8 1_555 1_555
C10 C9 1_555 1_555
H8 C10 1_555 1_555
C11 C10 1_555 1_555
H9 C11 1_555 1_555
C12 N3 1_555 1_555
C13 C9 1_555 1_555
C14 H10 1_555 1_555
C15 C14 1_555 1_555
H11 C15 1_555 1_555
C16 C15 1_555 1_555
H12 C16 1_555 1_555
C17 C16 1_555 1_555
C18 N4 1_555 1_555
H13 C18 1_555 1_555
C19 N5 1_555 1_555
C20 N5 1_555 1_555
C21 C20 1_555 1_555
H14 C21 1_555 1_555
C22 C21 1_555 1_555
C23 C22 1_555 1_555
H15 C23 1_555 1_555
C24 C23 1_555 1_555
H16 C24 1_555 1_555
C25 N6 1_555 1_555
C26 C22 1_555 1_555
O5 H17 1_555 1_555
H18 O5 1_555 1_555
O6 H19 1_555 1_555
H20 O6 1_555 1_555
O7 H21 1_555 1_555
H22 O7 1_555 1_555
O8 H23 1_555 1_555
H24 O8 1_555 1_555
O9 H25 1_555 1_555
H26 O9 1_555 1_555
O10 H27 1_555 1_555
H28 O10 1_555 1_555
O11 H29 1_555 1_555
H30 O11 1_555 1_555
O12 C27 1_555 1_555
C28 H31 1_555 1_555
C29 C28 1_555 1_555
H32 C29 1_555 1_555
C30 C29 1_555 1_555
H33 C30 1_555 1_555
C31 C30 1_555 1_555
H34 C31 1_555 1_555
C32 C31 1_555 1_555
H35 C32 1_555 1_555
C33 C28 1_555 1_555
H36 C33 1_555 1_555
Zn1_2 N4 1_555 1_555
Zn1_3 O1 1_555 1_555
O1_2 Zn1 1_555 1_555
N4_2 Zn1 1_555 1_555
C4 C5 1_555 1_555
C4 C6 1_555 1_555
C7 C12 1_555 1_555
C11 C12 1_555 1_555
C17 C18 1_555 1_555
C17 C19 1_555 1_555
C20 C25 1_555 1_555
C24 C25 1_555 1_555
C32 C33 1_555 1_555

#END
