
#######################################################################
#
#                 Cambridge Crystallographic Data Centre
#                                CCDC 
#
#######################################################################
#
# If this CIF has been generated from an entry in the Cambridge 
# Structural Database, then it will include bibliographic, chemical, 
# crystal, experimental, refinement or atomic coordinate data resulting 
# from the CCDC's data processing and validation procedures.
#
#######################################################################

data_XODGII
_symmetry_cell_setting           triclinic
_symmetry_space_group_name_H-M   'P -1'
_symmetry_Int_Tables_number      2
_space_group_name_Hall           '-P 1'
loop_
_symmetry_equiv_pos_site_id
_symmetry_equiv_pos_as_xyz
1 x,y,z
2 -x,-y,-z
_cell_length_a                   12.4693(7)
_cell_length_b                   13.2851(7)
_cell_length_c                   13.1755(7)
_cell_angle_alpha                112.3007(11)
_cell_angle_beta                 105.3967(12)
_cell_angle_gamma                97.7284(12)
_cell_volume                     1877.97
loop_
_atom_site_label
_atom_site_type_symbol
_atom_site_fract_x
_atom_site_fract_y
_atom_site_fract_z
Zn1 Zn 0.21873(5) 0.47953(4) 0.49144(5)
O1 O 0.1371(3) -0.4300(3) 0.4262(3)
O2 O 0.2960(3) -0.2899(3) 0.5042(4)
O3 O 0.2555(4) 0.5506(3) 0.6604(3)
O4 O 0.3079(3) 0.3906(3) 0.6316(3)
N1 N 0.0822(4) 0.3368(3) 0.4098(4)
N2 N 0.1183(4) 0.0170(4) 0.4075(4)
H1 H 0.1861 0.0662 0.4380
N3 N -0.0695(4) -0.0530(4) 0.3264(4)
N4 N 0.3334(4) 0.4370(4) 1.4094(4)
N5 N 0.3836(4) 0.4024(4) 1.0493(4)
H2 H 0.3953 0.3346 1.0267
N6 N 0.3673(5) 0.5689(4) 1.1672(4)
C1 C -0.0235(5) 0.3412(4) 0.3561(5)
H3 H -0.0337 0.4109 0.3564
C2 C -0.1177(5) 0.2491(5) 0.3006(6)
H4 H -0.1915 0.2557 0.2642
C3 C -0.1042(5) 0.1469(5) 0.2984(6)
H5 H -0.1677 0.0817 0.2584
C4 C 0.0041(5) 0.1412(4) 0.3556(5)
C5 C 0.0947(4) 0.2363(4) 0.4086(4)
H6 H 0.1691 0.2317 0.4459
C6 C 0.0191(4) 0.0352(4) 0.3619(5)
C7 C 0.0996(4) -0.0898(4) 0.4001(5)
C8 C 0.1710(4) -0.1521(4) 0.4336(5)
H7 H 0.2523 -0.1220 0.4686
C9 C 0.1181(4) -0.2606(4) 0.4135(4)
C10 C -0.0024(5) -0.3041(4) 0.3613(5)
H8 H -0.0362 -0.3788 0.3472
C11 C -0.0731(5) -0.2411(5) 0.3300(6)
H9 H -0.1545 -0.2706 0.2965
C12 C -0.0203(4) -0.1328(4) 0.3494(5)
C13 C 0.1900(5) -0.3297(4) 0.4513(4)
C14 C 0.3968(5) 0.3650(4) 1.4225(5)
H10 H 0.3971 0.3409 1.4819
C15 C 0.4610(5) 0.3254(5) 1.3527(5)
H11 H 0.5061 0.2762 1.3653
C16 C 0.4595(5) 0.3577(5) 1.2640(5)
H12 H 0.5020 0.3297 1.2141
C17 C 0.3949(5) 0.4316(4) 1.2494(5)
C18 C 0.3334(5) 0.4693(4) 1.3248(5)
H13 H 0.2895 0.5204 1.3155
C19 C 0.3837(5) 0.4695(4) 1.1566(5)
C20 C 0.3614(4) 0.4610(4) 0.9820(4)
C21 C 0.3469(4) 0.4322(4) 0.8663(4)
H14 H 0.3563 0.3625 0.8175
C22 C 0.3177(5) 0.5107(4) 0.8241(5)
C23 C 0.3116(6) 0.6171(5) 0.9003(5)
H15 H 0.2953 0.6703 0.8704
C24 C 0.3286(7) 0.6456(5) 1.0162(5)
H16 H 0.3244 0.7174 1.0664
C25 C 0.3526(6) 0.5654(5) 1.0588(5)
C26 C 0.2933(4) 0.4813(4) 0.6985(5)
Zn1_2 Zn 0.21873(5) -0.52047(4) 0.49144(5)
Zn1_3 Zn 0.21873(5) 0.47953(4) 1.49144(5)
O1_2 O 0.1371(3) 0.5700(3) 0.4262(3)
N4_2 N 0.3334(4) 0.4370(4) 0.4094(4)
O5 O 0.3098(4) 0.0921(4) 0.7283(4)
H17 H 0.2381 0.0887 0.7119
H18 H 0.3377 0.1220 0.6901
O6 O 0.3926(6) 0.1832(5) 0.9739(5)
H19 H 0.4655 0.1949 0.9793
H20 H 0.3534 0.1549 0.8992
O7 O 0.5730(7) 0.1181(6) 1.0804(7)
H21 H 0.5795 0.0960 1.1339
H22 H 0.6382 0.1241 1.0716
O8 O 0.6033(5) 0.0951(5) 1.2871(6)
H23 H 0.6150 0.1367 1.3586
H24 H 0.6265 0.0361 1.2799
O9 O 0.4240(5) -0.2339(5) 0.3736(6)
H25 H 0.4163 -0.2941 0.3138
H26 H 0.3789 -0.2543 0.4052
O10 O 0.3910(17) -0.0432(17) 0.2965(18)
O11 O 0.742(2) 0.101(2) 0.963(2)
O12 O 0.6602(8) -0.1755(7) 0.4164(8)
H27 H 0.6378 -0.2434 0.4028
C27 C 0.6384(7) -0.1404(7) 0.5359(9)
H28 H 0.6500 -0.0585 0.5728
H29 H 0.6871 -0.1630 0.5906
H30 H 0.5573 -0.1780 0.5150
O13 O 1.048(4) -0.291(4) 0.986(4)
C28 C 0.932(4) -0.342(5) 0.909(5)
O14? O 0.988(6) -0.474(6) 0.931(6)
C29? C 1.008(8) -0.416(8) 0.866(7)
loop_
_geom_bond_atom_site_label_1
_geom_bond_atom_site_label_2
_geom_bond_site_symmetry_1
_geom_bond_site_symmetry_2
Zn1 O3 1_555 1_555
O1 C13 1_555 1_555
O2 C13 1_555 1_555
O3 C26 1_555 1_555
O4 C26 1_555 1_555
N1 Zn1 1_555 1_555
N2 H1 1_555 1_555
N3 C6 1_555 1_555
N4 C14 1_555 1_555
N5 H2 1_555 1_555
N6 C19 1_555 1_555
C1 N1 1_555 1_555
H3 C1 1_555 1_555
C2 C1 1_555 1_555
H4 C2 1_555 1_555
C3 C2 1_555 1_555
H5 C3 1_555 1_555
C4 C3 1_555 1_555
C5 N1 1_555 1_555
H6 C5 1_555 1_555
C6 N2 1_555 1_555
C7 N2 1_555 1_555
C8 C7 1_555 1_555
H7 C8 1_555 1_555
C9 C8 1_555 1_555
C10 C9 1_555 1_555
H8 C10 1_555 1_555
C11 C10 1_555 1_555
H9 C11 1_555 1_555
C12 N3 1_555 1_555
C13 C9 1_555 1_555
C14 H10 1_555 1_555
C15 C14 1_555 1_555
H11 C15 1_555 1_555
C16 C15 1_555 1_555
H12 C16 1_555 1_555
C17 C16 1_555 1_555
C18 N4 1_555 1_555
H13 C18 1_555 1_555
C19 N5 1_555 1_555
C20 N5 1_555 1_555
C21 C20 1_555 1_555
H14 C21 1_555 1_555
C22 C21 1_555 1_555
C23 C22 1_555 1_555
H15 C23 1_555 1_555
C24 C23 1_555 1_555
H16 C24 1_555 1_555
C25 N6 1_555 1_555
C26 C22 1_555 1_555
O5 H17 1_555 1_555
H18 O5 1_555 1_555
O6 H19 1_555 1_555
H20 O6 1_555 1_555
O7 H21 1_555 1_555
H22 O7 1_555 1_555
O8 H23 1_555 1_555
H24 O8 1_555 1_555
O9 H25 1_555 1_555
H26 O9 1_555 1_555
O12 H27 1_555 1_555
C27 O12 1_555 1_555
H28 C27 1_555 1_555
H29 C27 1_555 1_555
H30 C27 1_555 1_555
O13 C28 1_555 1_555
Zn1_2 O1 1_555 1_555
Zn1_3 N4 1_555 1_555
O1_2 Zn1 1_555 1_555
N4_2 Zn1 1_555 1_555
C4 C5 1_555 1_555
C4 C6 1_555 1_555
C7 C12 1_555 1_555
C11 C12 1_555 1_555
C17 C18 1_555 1_555
C17 C19 1_555 1_555
C20 C25 1_555 1_555
C24 C25 1_555 1_555

#END
