
#######################################################################
#
#                 Cambridge Crystallographic Data Centre
#                                CCDC 
#
#######################################################################
#
# If this CIF has been generated from an entry in the Cambridge 
# Structural Database, then it will include bibliographic, chemical, 
# crystal, experimental, refinement or atomic coordinate data resulting 
# from the CCDC's data processing and validation procedures.
#
#######################################################################

data_XODJUW
_symmetry_cell_setting           triclinic
_symmetry_space_group_name_H-M   'P -1'
_symmetry_Int_Tables_number      2
_space_group_name_Hall           '-P 1'
loop_
_symmetry_equiv_pos_site_id
_symmetry_equiv_pos_as_xyz
1 x,y,z
2 -x,-y,-z
_cell_length_a                   9.6431(9)
_cell_length_b                   10.7674(10)
_cell_length_c                   11.9459(18)
_cell_angle_alpha                101.312(2)
_cell_angle_beta                 107.147(2)
_cell_angle_gamma                112.500(1)
_cell_volume                     1025.75
loop_
_atom_site_label
_atom_site_type_symbol
_atom_site_fract_x
_atom_site_fract_y
_atom_site_fract_z
Zn1 Zn 0.38240(4) 0.23797(4) 0.49025(3)
C1 C 0.5210(4) -0.0870(3) 0.8593(3)
C2 C 0.4366(4) -0.2579(4) 0.9421(3)
C3 C 0.7041(4) -0.0942(4) 1.0224(3)
C4 C 0.4847(4) -0.0156(3) 0.7685(3)
C5 C 0.6106(4) 0.0884(4) 0.7549(4)
H1 H 0.7197 0.1147 0.8022
C6 C 0.5716(4) 0.1524(4) 0.6699(4)
H2 H 0.6567 0.2188 0.6579
C7 C 0.2962(4) 0.0251(4) 0.6197(3)
H3 H 0.1886 0.0056 0.5759
C8 C 0.3246(4) -0.0486(4) 0.6983(3)
C9 C 0.3032(4) -0.3862(4) 0.9418(3)
C10 C 0.1432(5) -0.4435(4) 0.8556(4)
H4 H 0.1168 -0.4018 0.7969
C11 C 0.0228(5) -0.5642(5) 0.8580(5)
H5 H -0.0845 -0.6010 0.7997
C12 C 0.2040(6) -0.5738(5) 1.0204(5)
H6 H 0.2262 -0.6184 1.0777
C13 C 0.3349(5) -0.4523(5) 1.0277(5)
H7 H 0.4405 -0.4167 1.0883
C14 C 0.8734(4) -0.0282(4) 1.1215(3)
C15 C 0.9136(4) -0.0955(4) 1.2041(3)
H8 H 0.8377 -0.1864 1.1945
C16 C 0.9914(4) 0.1074(4) 1.1395(3)
H9 H 0.9693 0.1547 1.0848
C17 C 1.1410(4) 0.1701(4) 1.2392(4)
H10 H 1.2191 0.2612 1.2513
C18 C 1.0669(4) -0.0262(4) 1.3001(3)
H11 H 1.0935 -0.0733 1.3538
C19 C 0.6928(4) 0.4059(3) 0.5324(3)
C20 C 0.8496(4) 0.4578(3) 0.5119(3)
C21 C 0.8348(4) 0.6747(4) 0.4649(3)
C22 C 0.9166(4) 0.5810(3) 0.4825(3)
C23 C 0.9344(4) 0.3800(3) 0.5293(3)
H12 H 0.8906 0.2987 0.5496
N1 N 0.3958(3) -0.1981(3) 0.8582(3)
N2 N 0.5892(3) -0.2086(3) 1.0277(3)
N3 N 0.6785(3) -0.0304(3) 0.9387(3)
N4 N 0.4179(3) 0.1243(3) 0.6037(3)
N5 N 0.0502(5) -0.6305(4) 0.9378(4)
N6 N 1.1799(3) 0.1052(3) 1.3207(3)
O1 O 0.5661(3) 0.3025(2) 0.4403(2)
O2 O 0.6963(3) 0.4533(3) 0.6363(2)
O3 O 0.6915(3) 0.6243(2) 0.4656(3)
O4 O 0.9070(3) 0.7911(3) 0.4560(3)
H13 H 0.235(5) -0.124(4) 0.707(3)
Zn1_2 Zn -0.61760(4) 0.23797(4) -0.50975(3)
Zn1_3 Zn 1.38240(4) 0.23797(4) 1.49025(3)
Zn1A Zn 0.61760(4) 0.76203(4) 0.50975(3)
Zn1A_2 Zn 1.61760(4) 0.76203(4) 0.50975(3)
Zn1_4 Zn 1.38240(4) 0.23797(4) 0.49025(3)
C1_2 C -0.4790(4) -0.0870(3) -0.1407(3)
C2_2 C -0.5634(4) -0.2579(4) -0.0579(3)
C3_2 C -0.2959(4) -0.0942(4) 0.0224(3)
C4_2 C -0.5153(4) -0.0156(3) -0.2315(3)
C5_2 C -0.3894(4) 0.0884(4) -0.2451(4)
H1_2 H -0.2803 0.1147 -0.1978
C6_2 C -0.4284(4) 0.1524(4) -0.3301(4)
H2_2 H -0.3433 0.2188 -0.3421
C7_2 C -0.7038(4) 0.0251(4) -0.3803(3)
H3_2 H -0.8114 0.0056 -0.4241
C8_2 C -0.6754(4) -0.0486(4) -0.3017(3)
C9_2 C -0.6968(4) -0.3862(4) -0.0582(3)
C10_2 C -0.8568(5) -0.4435(4) -0.1444(4)
H4_2 H -0.8832 -0.4018 -0.2031
C11_2 C -0.9772(5) -0.5642(5) -0.1420(5)
H5_2 H -1.0845 -0.6010 -0.2003
C12_2 C -0.7960(6) -0.5738(5) 0.0204(5)
H6_2 H -0.7738 -0.6184 0.0777
C13_2 C -0.6651(5) -0.4523(5) 0.0277(5)
H7_2 H -0.5595 -0.4167 0.0883
C14_2 C -0.1266(4) -0.0282(4) 0.1215(3)
C15_2 C -0.0864(4) -0.0955(4) 0.2041(3)
H8_2 H -0.1623 -0.1864 0.1945
C16_2 C -0.0086(4) 0.1074(4) 0.1395(3)
H9_2 H -0.0307 0.1547 0.0848
C17_2 C 0.1410(4) 0.1701(4) 0.2392(4)
H10_2 H 0.2191 0.2612 0.2513
C18_2 C 0.0669(4) -0.0262(4) 0.3001(3)
H11_2 H 0.0935 -0.0733 0.3538
C19A C 1.3072(4) 0.5941(3) 0.4676(3)
C20A C 1.1504(4) 0.5422(3) 0.4881(3)
C21A C 1.1652(4) 0.3253(4) 0.5351(3)
C22A C 1.0834(4) 0.4190(3) 0.5175(3)
C23A C 1.0656(4) 0.6200(3) 0.4707(3)
H12A H 1.1094 0.7013 0.4504
N1_2 N -0.6042(3) -0.1981(3) -0.1418(3)
N2_2 N -0.4108(3) -0.2086(3) 0.0277(3)
N3_2 N -0.3215(3) -0.0304(3) -0.0613(3)
N4_2 N -0.5821(3) 0.1243(3) -0.3963(3)
N5_2 N -0.9498(5) -0.6305(4) -0.0622(4)
N6_2 N 0.1799(3) 0.1052(3) 0.3207(3)
N6_3 N -0.8201(3) 0.1052(3) -0.6793(3)
O1A O 1.4339(3) 0.6975(2) 0.5597(2)
O1_2 O -0.4339(3) 0.3025(2) -0.5597(2)
O2A O 1.3037(3) 0.5467(3) 0.3637(2)
O3A O 1.3085(3) 0.3757(2) 0.5344(3)
O3A_2 O 0.3085(3) 0.3757(2) 0.5344(3)
O3A_3 O -0.6915(3) 0.3757(2) -0.4656(3)
O4A O 1.0930(3) 0.2089(3) 0.5440(3)
H13_2 H -0.765(5) -0.124(4) -0.293(3)
O5 O 0.5320(7) 0.5918(7) 0.7647(5)
H14 H 0.4411 0.5254 0.7074
H15 H 0.5156 0.6269 0.8267
loop_
_geom_bond_atom_site_label_1
_geom_bond_atom_site_label_2
_geom_bond_site_symmetry_1
_geom_bond_site_symmetry_2
Zn1 N4 1_555 1_555
C1 C4 1_555 1_555
C2 C9 1_555 1_555
C3 C14 1_555 1_555
C4 C5 1_555 1_555
C5 H1 1_555 1_555
C6 C5 1_555 1_555
H2 C6 1_555 1_555
C7 H3 1_555 1_555
C8 C4 1_555 1_555
C9 C10 1_555 1_555
C10 H4 1_555 1_555
C11 C10 1_555 1_555
H5 C11 1_555 1_555
C12 H6 1_555 1_555
C13 C9 1_555 1_555
H7 C13 1_555 1_555
C14 C15 1_555 1_555
C15 H8 1_555 1_555
C16 C14 1_555 1_555
H9 C16 1_555 1_555
C17 C16 1_555 1_555
H10 C17 1_555 1_555
C18 C15 1_555 1_555
H11 C18 1_555 1_555
C19 C20 1_555 1_555
C20 C22 1_555 1_555
C21 C22 1_555 1_555
C22 C23A 1_555 1_555
C23 C20 1_555 1_555
H12 C23 1_555 1_555
N1 C1 1_555 1_555
N2 C2 1_555 1_555
N3 C1 1_555 1_555
N4 C6 1_555 1_555
N5 C11 1_555 1_555
N6 C17 1_555 1_555
O1 Zn1 1_555 1_555
O2 C19 1_555 1_555
O3 C21 1_555 1_555
O4 C21 1_555 1_555
H13 C8 1_555 1_555
O5 H14 1_555 1_555
H15 O5 1_555 1_555
Zn1_2 N4_2 1_555 1_555
Zn1_3 N6 1_555 1_555
Zn1A O3 1_555 1_555
Zn1A_2 O1A 1_555 1_555
Zn1_4 O3A 1_555 1_555
C1_2 C4_2 1_555 1_555
C2_2 C9_2 1_555 1_555
C3_2 C14_2 1_555 1_555
C4_2 C5_2 1_555 1_555
C5_2 H1_2 1_555 1_555
C6_2 C5_2 1_555 1_555
H2_2 C6_2 1_555 1_555
C7_2 H3_2 1_555 1_555
C8_2 C4_2 1_555 1_555
C9_2 C10_2 1_555 1_555
C10_2 H4_2 1_555 1_555
C11_2 C10_2 1_555 1_555
H5_2 C11_2 1_555 1_555
C12_2 H6_2 1_555 1_555
C13_2 C9_2 1_555 1_555
H7_2 C13_2 1_555 1_555
C14_2 C15_2 1_555 1_555
C15_2 H8_2 1_555 1_555
C16_2 C14_2 1_555 1_555
H9_2 C16_2 1_555 1_555
C17_2 C16_2 1_555 1_555
H10_2 C17_2 1_555 1_555
C18_2 C15_2 1_555 1_555
H11_2 C18_2 1_555 1_555
C19A C20A 1_555 1_555
C20A C22A 1_555 1_555
C21A C22A 1_555 1_555
C22A C23 1_555 1_555
C23A C20A 1_555 1_555
H12A C23A 1_555 1_555
N1_2 C1_2 1_555 1_555
N2_2 C2_2 1_555 1_555
N3_2 C1_2 1_555 1_555
N4_2 C6_2 1_555 1_555
N5_2 C11_2 1_555 1_555
N6_2 Zn1 1_555 1_555
N6_3 Zn1_2 1_555 1_555
O1A C19A 1_555 1_555
O1_2 Zn1_2 1_555 1_555
O2A C19A 1_555 1_555
O3A C21A 1_555 1_555
O3A_2 Zn1 1_555 1_555
O3A_3 Zn1_2 1_555 1_555
O4A C21A 1_555 1_555
H13_2 C8_2 1_555 1_555
C2 N1 1_555 1_555
C3 N2 1_555 1_555
C3 N3 1_555 1_555
C7 C8 1_555 1_555
C7 N4 1_555 1_555
C12 C13 1_555 1_555
C12 N5 1_555 1_555
C18 N6 1_555 1_555
C19 O1 1_555 1_555
C2_2 N1_2 1_555 1_555
C3_2 N2_2 1_555 1_555
C3_2 N3_2 1_555 1_555
C7_2 C8_2 1_555 1_555
C7_2 N4_2 1_555 1_555
C12_2 C13_2 1_555 1_555
C12_2 N5_2 1_555 1_555
C17_2 N6_2 1_555 1_555
C18_2 N6_2 1_555 1_555

#END
