
#######################################################################
#
#                 Cambridge Crystallographic Data Centre
#                                CCDC 
#
#######################################################################
#
# If this CIF has been generated from an entry in the Cambridge 
# Structural Database, then it will include bibliographic, chemical, 
# crystal, experimental, refinement or atomic coordinate data resulting 
# from the CCDC's data processing and validation procedures.
#
#######################################################################

data_XODKEH
_symmetry_cell_setting           orthorhombic
_symmetry_space_group_name_H-M   'P n m a'
_symmetry_Int_Tables_number      62
_space_group_name_Hall           '-P 2ac 2n'
loop_
_symmetry_equiv_pos_site_id
_symmetry_equiv_pos_as_xyz
1 x,y,z
2 1/2-x,-y,1/2+z
3 -x,1/2+y,-z
4 1/2+x,1/2-y,1/2-z
5 -x,-y,-z
6 1/2+x,y,1/2-z
7 x,1/2-y,z
8 1/2-x,1/2+y,1/2+z
_cell_length_a                   27.422(2)
_cell_length_b                   26.560(2)
_cell_length_c                   11.1115(10)
_cell_angle_alpha                90
_cell_angle_beta                 90
_cell_angle_gamma                90
_cell_volume                     8092.82
loop_
_atom_site_label
_atom_site_type_symbol
_atom_site_fract_x
_atom_site_fract_y
_atom_site_fract_z
Cu1 Cu 0.061292(18) 0.499882(17) 0.54984(4)
Cu2 Cu 0.187961(19) 0.497208(17) 0.86864(4)
S1 S -0.01050(4) 0.44848(4) 0.74201(9)
S2 S 0.24276(4) 0.44351(4) 0.64096(10)
C1 C 0.07202(15) 0.43055(14) 0.3418(4)
H1 H 0.0721 0.4605 0.2985
C2 C 0.07384(15) 0.38612(14) 0.2792(4)
H2 H 0.0749 0.3864 0.1956
C3 C 0.07411(15) 0.34082(14) 0.3413(3)
C4 C 0.07328(15) 0.34276(14) 0.4663(3)
H3 H 0.0743 0.3133 0.5116
C5 C 0.07101(16) 0.38856(15) 0.5215(4)
H4 H 0.0700 0.3893 0.6052
C6 C 0.07425(14) 0.29253(14) 0.2765(3)
C7 C 0.0735(2) 0.2500 0.0998(5)
C8 C 0.0746(2) 0.2500 -0.0329(5)
C9 C 0.0747(2) 0.29445(17) -0.0963(4)
H5 H 0.0742 0.3253 -0.0566
C10 C 0.0755(2) 0.29216(19) -0.2207(4)
H6 H 0.0756 0.3224 -0.2628
N1 N 0.0762(2) 0.2500 -0.2838(5)
C11 C 0.05023(15) 0.61090(14) 0.5790(4)
H7 H 0.0472 0.6101 0.4957
C12 C 0.05001(15) 0.65718(14) 0.6357(3)
H8 H 0.0474 0.6867 0.5911
C13 C 0.05374(15) 0.65914(14) 0.7604(3)
C14 C 0.05780(15) 0.61368(14) 0.8210(3)
H9 H 0.0601 0.6133 0.9045
C15 C 0.05843(15) 0.56895(14) 0.7579(3)
H10 H 0.0616 0.5389 0.8003
C16 C 0.05352(15) 0.70793(14) 0.8262(3)
C17 C 0.0529(2) 0.7500 1.0019(5)
C18 C 0.0508(2) 0.7500 1.1360(5)
C19 C 0.0503(2) 0.70590(17) 1.2000(4)
H11 H 0.0508 0.6750 1.1607
C20 C 0.0491(2) 0.70832(18) 1.3239(4)
H12 H 0.0485 0.6780 1.3657
C21 C 0.19201(15) 0.60893(14) 0.8541(4)
H13 H 0.1962 0.6072 0.9370
C22 C 0.18927(16) 0.65581(14) 0.8003(4)
H14 H 0.1912 0.6850 0.8464
C23 C 0.18360(14) 0.65861(14) 0.6765(3)
C24 C 0.18057(15) 0.61427(14) 0.6124(4)
H15 H 0.1765 0.6149 0.5293
C25 C 0.18364(16) 0.56931(15) 0.6722(4)
H16 H 0.1820 0.5397 0.6276
C26 C 0.18098(14) 0.70784(14) 0.6124(3)
C27 C 0.1776(2) 0.7500 0.4362(5)
C28 C 0.1768(2) 0.7500 0.3024(5)
C29 C 0.1759(2) 0.70601(17) 0.2384(4)
H17 H 0.1760 0.6752 0.2780
C30 C 0.1748(2) 0.70798(18) 0.1141(4)
H18 H 0.1745 0.6777 0.0722
C31 C 0.18637(16) 0.42992(15) 1.0758(4)
H19 H 0.1827 0.4602 1.1167
C32 C 0.18848(15) 0.38590(14) 1.1408(4)
H20 H 0.1866 0.3868 1.2243
C33 C 0.19335(15) 0.34047(14) 1.0819(3)
C34 C 0.19574(17) 0.34100(15) 0.9571(4)
H21 H 0.1984 0.3111 0.9140
C35 C 0.19404(17) 0.38655(15) 0.8984(4)
H22 H 0.1962 0.3867 0.8149
C36 C 0.19449(14) 0.29236(14) 1.1490(3)
C37 C 0.1954(2) 0.2500 1.3250(5)
C38 C 0.1964(2) 0.2500 1.4580(5)
C39 C 0.19696(19) 0.29450(16) 1.5217(4)
H23 H 0.1960 0.3253 1.4820
C40 C 0.1990(2) 0.29231(18) 1.6458(4)
H24 H 0.2000 0.3226 1.6878
N2 N 0.07009(12) 0.43308(11) 0.4618(3)
N3 N 0.07472(18) 0.2500 0.3414(4)
N4 N 0.07374(13) 0.29457(11) 0.1562(3)
N5 N 0.05464(12) 0.56715(11) 0.6378(3)
N6 N 0.05305(13) 0.70527(12) 0.9466(3)
N7 N 0.05368(18) 0.7500 0.7615(4)
N8 N 0.0489(2) 0.7500 1.3877(5)
N9 N 0.18882(12) 0.56581(11) 0.7916(3)
N10 N 0.18298(18) 0.7500 0.6771(4)
N11 N 0.17842(13) 0.70545(11) 0.4917(3)
N12 N 0.1743(2) 0.7500 0.0512(5)
N13 N 0.18944(13) 0.43056(12) 0.9552(3)
N14 N 0.19546(18) 0.2500 1.0843(4)
N15 N 0.19465(13) 0.29461(12) 1.2690(3)
N16 N 0.1997(2) 0.2500 1.7092(5)
O1 O 0.00087(10) 0.47368(10) 0.6232(2)
O2 O -0.05320(11) 0.41648(11) 0.7173(2)
O3 O -0.02206(12) 0.48606(11) 0.8319(3)
O4 O 0.03141(11) 0.41809(11) 0.7799(3)
O5 O 0.11069(17) 0.53281(13) 0.4458(3)
O6 O 0.23880(10) 0.47696(10) 0.7507(2)
O7 O 0.26183(12) 0.47331(11) 0.5407(3)
O8 O 0.19371(11) 0.42507(11) 0.6107(3)
O9 O 0.27487(12) 0.40196(11) 0.6696(3)
O10 O 0.12914(13) 0.51568(14) 0.9569(3)
O11 O 0.11661(14) 0.46987(12) 0.7064(3)
H25 H 0.0963(17) 0.5458(17) 0.399(4)
H26 H 0.133(3) 0.526(3) 0.425(7)
H27 H 0.0970(18) 0.4494(17) 0.740(4)
H28 H 0.141(2) 0.451(2) 0.680(5)
H29 H 0.1314(19) 0.5340(19) 1.004(4)
H30 H 0.108(2) 0.495(2) 0.969(5)
Cu1F Cu 0.061292(18) 0.000118(17) 0.54984(4)
Cu1D Cu -0.061292(18) 0.500118(17) 0.45016(4)
Cu1F_2 Cu 0.061292(18) 1.000118(17) 0.54984(4)
Cu2F Cu 0.187961(19) 1.002792(17) 0.86864(4)
Cu2A Cu 0.312039(19) 0.502792(17) 0.36864(4)
Cu2F_2 Cu 0.187961(19) 0.002792(17) 0.86864(4)
Cu2A_2 Cu 0.312039(19) 0.502792(17) 1.36864(4)
S1D S 0.01050(4) 0.55152(4) 0.25799(9)
S2A S 0.25724(4) 0.55649(4) 1.14096(10)
C1F C 0.07202(15) 0.06945(14) 0.3418(4)
H1F H 0.0721 0.0395 0.2985
C2F C 0.07384(15) 0.11388(14) 0.2792(4)
H2F H 0.0749 0.1136 0.1956
C3F C 0.07411(15) 0.15918(14) 0.3413(3)
C4F C 0.07328(15) 0.15724(14) 0.4663(3)
H3F H 0.0743 0.1867 0.5116
C5F C 0.07101(16) 0.11144(15) 0.5215(4)
H4F H 0.0700 0.1107 0.6052
C6F C 0.07425(14) 0.20747(14) 0.2765(3)
C9F C 0.0747(2) 0.20555(17) -0.0963(4)
H5F H 0.0742 0.1747 -0.0566
C10F C 0.0755(2) 0.20784(19) -0.2207(4)
H6F H 0.0756 0.1776 -0.2628
C11F C 0.05023(15) 0.88910(14) 0.5790(4)
H7F H 0.0472 0.8899 0.4957
C12F C 0.05001(15) 0.84282(14) 0.6357(3)
H8F H 0.0474 0.8133 0.5911
C13F C 0.05374(15) 0.84086(14) 0.7604(3)
C14F C 0.05780(15) 0.88632(14) 0.8210(3)
H9F H 0.0601 0.8867 0.9045
C15F C 0.05843(15) 0.93105(14) 0.7579(3)
H10F H 0.0616 0.9611 0.8003
C16F C 0.05352(15) 0.79207(14) 0.8262(3)
C19F C 0.0503(2) 0.79410(17) 1.2000(4)
H11F H 0.0508 0.8250 1.1607
C20F C 0.0491(2) 0.79168(18) 1.3239(4)
H12F H 0.0485 0.8220 1.3657
C21F C 0.19201(15) 0.89107(14) 0.8541(4)
H13F H 0.1962 0.8928 0.9370
C22F C 0.18927(16) 0.84419(14) 0.8003(4)
H14F H 0.1912 0.8150 0.8464
C23F C 0.18360(14) 0.84139(14) 0.6765(3)
C24F C 0.18057(15) 0.88573(14) 0.6124(4)
H15F H 0.1765 0.8851 0.5293
C25F C 0.18364(16) 0.93069(15) 0.6722(4)
H16F H 0.1820 0.9603 0.6276
C26F C 0.18098(14) 0.79216(14) 0.6124(3)
C29F C 0.1759(2) 0.79399(17) 0.2384(4)
H17F H 0.1760 0.8248 0.2780
C30F C 0.1748(2) 0.79202(18) 0.1141(4)
H18F H 0.1745 0.8223 0.0722
C31F C 0.18637(16) 0.07008(15) 1.0758(4)
H19F H 0.1827 0.0398 1.1167
C32F C 0.18848(15) 0.11410(14) 1.1408(4)
H20F H 0.1866 0.1132 1.2243
C33F C 0.19335(15) 0.15953(14) 1.0819(3)
C34F C 0.19574(17) 0.15900(15) 0.9571(4)
H21F H 0.1984 0.1889 0.9140
C35F C 0.19404(17) 0.11345(15) 0.8984(4)
H22F H 0.1962 0.1133 0.8149
C36F C 0.19449(14) 0.20764(14) 1.1490(3)
C39F C 0.19696(19) 0.20550(16) 1.5217(4)
H23F H 0.1960 0.1747 1.4820
C40F C 0.1990(2) 0.20769(18) 1.6458(4)
H24F H 0.2000 0.1774 1.6878
N2F N 0.07009(12) 0.06692(11) 0.4618(3)
N4F N 0.07374(13) 0.20543(11) 0.1562(3)
N5F N 0.05464(12) 0.93285(11) 0.6378(3)
N5F_2 N 0.05464(12) -0.06715(11) 0.6378(3)
N6F N 0.05305(13) 0.79473(12) 0.9466(3)
N9F N 0.18882(12) 0.93419(11) 0.7916(3)
N11F N 0.17842(13) 0.79455(11) 0.4917(3)
N13F N 0.18944(13) 0.06944(12) 0.9552(3)
N13F_2 N 0.18944(13) 1.06944(12) 0.9552(3)
N15F N 0.19465(13) 0.20539(12) 1.2690(3)
O1D O -0.00087(10) 0.52632(10) 0.3768(2)
O1F O 0.00087(10) 0.02632(10) 0.6232(2)
O1B O -0.00087(10) -0.02632(10) 0.3768(2)
O2D O 0.05320(11) 0.58352(11) 0.2827(2)
O3D O 0.02206(12) 0.51394(11) 0.1681(3)
O4D O -0.03141(11) 0.58191(11) 0.2201(3)
O5F O 0.11069(17) -0.03281(13) 0.4458(3)
O6A O 0.26120(10) 0.52304(10) 1.2507(2)
O6F O 0.23880(10) 1.02304(10) 0.7507(2)
O7A O 0.23817(12) 0.52669(11) 1.0407(3)
O7G O 0.23817(12) 0.97331(11) 1.0407(3)
O8A O 0.30629(11) 0.57493(11) 1.1107(3)
O9A O 0.22513(12) 0.59804(11) 1.1696(3)
O10F O 0.12914(13) 0.98432(14) 0.9569(3)
O11F O 0.11661(14) 0.03013(12) 0.7064(3)
O11F_2 O 0.11661(14) 1.03013(12) 0.7064(3)
H25F H 0.0963(17) -0.0458(17) 0.399(4)
H26F H 0.133(3) -0.026(3) 0.425(7)
H27F H 0.0970(18) 0.0506(17) 0.740(4)
H27F_2 H 0.0970(18) 1.0506(17) 0.740(4)
H28F H 0.141(2) 0.049(2) 0.680(5)
H28F_2 H 0.141(2) 1.049(2) 0.680(5)
H29F H 0.1314(19) 0.9660(19) 1.004(4)
H30F H 0.108(2) 1.005(2) 0.969(5)
O12 O 0.18060(15) 0.47488(18) 0.3637(4)
H31 H 0.1999(19) 0.4954(19) 0.334(5)
H32 H 0.193(3) 0.467(3) 0.418(6)
O13 O 0.06366(14) 0.44382(15) 0.0149(4)
H33 H 0.050(2) 0.441(2) -0.051(6)
H34 H 0.0462(19) 0.461(2) 0.050(5)
O14 O 0.12915(13) 0.58528(15) 0.1199(4)
H35 H 0.1267 0.6108 0.1657
H36 H 0.1115 0.5896 0.0579
loop_
_geom_bond_atom_site_label_1
_geom_bond_atom_site_label_2
_geom_bond_site_symmetry_1
_geom_bond_site_symmetry_2
Cu1 N2 1_555 1_555
Cu2 N9 1_555 1_555
S1 O1 1_555 1_555
S2 O6 1_555 1_555
C1 H1 1_555 1_555
C2 C1 1_555 1_555
H2 C2 1_555 1_555
C3 C2 1_555 1_555
C4 C3 1_555 1_555
H3 C4 1_555 1_555
C5 C4 1_555 1_555
H4 C5 1_555 1_555
C6 C3 1_555 1_555
C7 C8 1_555 1_555
C8 C9 1_555 1_555
C9 H5 1_555 1_555
C10 C9 1_555 1_555
H6 C10 1_555 1_555
N1 C10 1_555 1_555
C11 H7 1_555 1_555
C12 C11 1_555 1_555
H8 C12 1_555 1_555
C13 C12 1_555 1_555
C14 C13 1_555 1_555
H9 C14 1_555 1_555
C15 C14 1_555 1_555
H10 C15 1_555 1_555
C16 C13 1_555 1_555
C17 C18 1_555 1_555
C18 C19 1_555 1_555
C19 H11 1_555 1_555
C20 C19 1_555 1_555
H12 C20 1_555 1_555
C21 H13 1_555 1_555
C22 C21 1_555 1_555
H14 C22 1_555 1_555
C23 C22 1_555 1_555
C24 C23 1_555 1_555
H15 C24 1_555 1_555
C25 C24 1_555 1_555
H16 C25 1_555 1_555
C26 C23 1_555 1_555
C27 C28 1_555 1_555
C28 C29 1_555 1_555
C29 H17 1_555 1_555
C30 C29 1_555 1_555
H18 C30 1_555 1_555
C31 H19 1_555 1_555
C32 C31 1_555 1_555
H20 C32 1_555 1_555
C33 C32 1_555 1_555
C34 C33 1_555 1_555
H21 C34 1_555 1_555
C35 C34 1_555 1_555
H22 C35 1_555 1_555
C36 C33 1_555 1_555
C37 C38 1_555 1_555
C38 C39 1_555 1_555
C39 H23 1_555 1_555
C40 C39 1_555 1_555
H24 C40 1_555 1_555
N2 C1 1_555 1_555
N3 C6 1_555 1_555
N4 C6 1_555 1_555
N5 Cu1 1_555 1_555
N6 C16 1_555 1_555
N7 C16 1_555 1_555
N8 C20 1_555 1_555
N9 C21 1_555 1_555
N10 C26 1_555 1_555
N11 C26 1_555 1_555
N12 C30 1_555 1_555
N13 Cu2 1_555 1_555
N14 C36 1_555 1_555
N15 C36 1_555 1_555
N16 C40 1_555 1_555
O1 Cu1 1_555 1_555
O2 S1 1_555 1_555
O3 S1 1_555 1_555
O4 S1 1_555 1_555
O5 Cu1 1_555 1_555
O6 Cu2 1_555 1_555
O7 S2 1_555 1_555
O8 S2 1_555 1_555
O9 S2 1_555 1_555
O10 Cu2 1_555 1_555
O11 Cu1 1_555 1_555
H25 O5 1_555 1_555
H26 O5 1_555 1_555
H27 O11 1_555 1_555
H28 O11 1_555 1_555
H29 O10 1_555 1_555
H30 O10 1_555 1_555
O12 H31 1_555 1_555
H32 O12 1_555 1_555
O13 H33 1_555 1_555
H34 O13 1_555 1_555
O14 H35 1_555 1_555
H36 O14 1_555 1_555
Cu1F N2F 1_555 1_555
Cu1D O1 1_555 1_555
Cu1F_2 N5F 1_555 1_555
Cu2F N9F 1_555 1_555
Cu2A O7 1_555 1_555
Cu2F_2 N13F 1_555 1_555
Cu2A_2 O6A 1_555 1_555
S1D O1D 1_555 1_555
S2A O6A 1_555 1_555
C1F H1F 1_555 1_555
C2F C1F 1_555 1_555
H2F C2F 1_555 1_555
C3F C2F 1_555 1_555
C4F C3F 1_555 1_555
H3F C4F 1_555 1_555
C5F C4F 1_555 1_555
H4F C5F 1_555 1_555
C6F N3 1_555 1_555
C9F C8 1_555 1_555
H5F C9F 1_555 1_555
C10F N1 1_555 1_555
H6F C10F 1_555 1_555
C11F H7F 1_555 1_555
C12F C11F 1_555 1_555
H8F C12F 1_555 1_555
C13F C12F 1_555 1_555
C14F C13F 1_555 1_555
H9F C14F 1_555 1_555
C15F C14F 1_555 1_555
H10F C15F 1_555 1_555
C16F N7 1_555 1_555
C19F C18 1_555 1_555
H11F C19F 1_555 1_555
C20F N8 1_555 1_555
H12F C20F 1_555 1_555
C21F H13F 1_555 1_555
C22F C21F 1_555 1_555
H14F C22F 1_555 1_555
C23F C22F 1_555 1_555
C24F C23F 1_555 1_555
H15F C24F 1_555 1_555
C25F C24F 1_555 1_555
H16F C25F 1_555 1_555
C26F N10 1_555 1_555
C29F C28 1_555 1_555
H17F C29F 1_555 1_555
C30F N12 1_555 1_555
H18F C30F 1_555 1_555
C31F H19F 1_555 1_555
C32F C31F 1_555 1_555
H20F C32F 1_555 1_555
C33F C32F 1_555 1_555
C34F C33F 1_555 1_555
H21F C34F 1_555 1_555
C35F C34F 1_555 1_555
H22F C35F 1_555 1_555
C36F N14 1_555 1_555
C39F C38 1_555 1_555
H23F C39F 1_555 1_555
C40F N16 1_555 1_555
H24F C40F 1_555 1_555
N2F C1F 1_555 1_555
N4F C7 1_555 1_555
N5F C11F 1_555 1_555
N5F_2 Cu1F 1_555 1_555
N6F C17 1_555 1_555
N9F C21F 1_555 1_555
N11F C27 1_555 1_555
N13F C31F 1_555 1_555
N13F_2 Cu2F 1_555 1_555
N15F C37 1_555 1_555
O1D Cu1 1_555 1_555
O1F Cu1F 1_555 1_555
O1B Cu1F 1_555 1_555
O2D S1D 1_555 1_555
O3D S1D 1_555 1_555
O4D S1D 1_555 1_555
O5F Cu1F 1_555 1_555
O6F Cu2F 1_555 1_555
O7A Cu2 1_555 1_555
O7G Cu2F 1_555 1_555
O8A S2A 1_555 1_555
O9A S2A 1_555 1_555
O10F Cu2F 1_555 1_555
O11F Cu1F 1_555 1_555
O11F_2 Cu1F_2 1_555 1_555
H25F O5F 1_555 1_555
H26F O5F 1_555 1_555
H27F O11F 1_555 1_555
H27F_2 O11F_2 1_555 1_555
H28F O11F 1_555 1_555
H28F_2 O11F_2 1_555 1_555
H29F O10F 1_555 1_555
H30F O10F 1_555 1_555
Cu2 O11 1_555 1_555
C5 N2 1_555 1_555
C7 N4 1_555 1_555
C11 N5 1_555 1_555
C15 N5 1_555 1_555
C17 N6 1_555 1_555
C25 N9 1_555 1_555
C27 N11 1_555 1_555
C31 N13 1_555 1_555
C35 N13 1_555 1_555
C37 N15 1_555 1_555
Cu1D O1D 1_555 1_555
Cu2F O11F_2 1_555 1_555
Cu2F_2 O11F 1_555 1_555
S2A O7A 1_555 1_555
C3F C6F 1_555 1_555
C5F N2F 1_555 1_555
C6F N4F 1_555 1_555
C9F C10F 1_555 1_555
C13F C16F 1_555 1_555
C15F N5F 1_555 1_555
C16F N6F 1_555 1_555
C19F C20F 1_555 1_555
C23F C26F 1_555 1_555
C25F N9F 1_555 1_555
C26F N11F 1_555 1_555
C29F C30F 1_555 1_555
C33F C36F 1_555 1_555
C35F N13F 1_555 1_555
C36F N15F 1_555 1_555
C39F C40F 1_555 1_555

#END
