
#######################################################################
#
#                 Cambridge Crystallographic Data Centre
#                                CCDC 
#
#######################################################################
#
# If this CIF has been generated from an entry in the Cambridge 
# Structural Database, then it will include bibliographic, chemical, 
# crystal, experimental, refinement or atomic coordinate data resulting 
# from the CCDC's data processing and validation procedures.
#
#######################################################################

data_XODKAD
_symmetry_cell_setting           monoclinic
_symmetry_space_group_name_H-M   'P 21/n'
_symmetry_Int_Tables_number      14
_space_group_name_Hall           '-P 2yn'
loop_
_symmetry_equiv_pos_site_id
_symmetry_equiv_pos_as_xyz
1 x,y,z
2 1/2-x,1/2+y,1/2-z
3 -x,-y,-z
4 1/2+x,1/2-y,1/2+z
_cell_length_a                   8.9909(5)
_cell_length_b                   25.4622(13)
_cell_length_c                   10.3609(6)
_cell_angle_alpha                90
_cell_angle_beta                 92.792(4)
_cell_angle_gamma                90
_cell_volume                     2369.09
loop_
_atom_site_label
_atom_site_type_symbol
_atom_site_fract_x
_atom_site_fract_y
_atom_site_fract_z
Ag1 Ag -0.46096(8) 0.05304(2) 0.31302(8)
N1 N 0.2433(6) 0.2907(2) 0.1050(6)
N2 N 0.1728(6) 0.2021(2) 0.1369(6)
N3 N 0.0055(6) 0.2720(2) 0.1838(6)
N4 N 0.6787(7) 0.1896(2) -0.0336(6)
H1 H 0.7615 0.1795 -0.0635
N5 N -0.2879(7) 0.1106(2) 0.2812(6)
C1 C 0.4155(8) 0.2215(3) 0.0566(8)
C2 C -0.2002(8) 0.1988(3) 0.2698(7)
H2 H -0.2176 0.2344 0.2830
C3 C 0.1447(9) 0.4513(3) 0.1248(8)
H3 H 0.2137 0.4758 0.0986
C4 C 0.0763(8) 0.3618(2) 0.1526(7)
C5 C 0.1113(7) 0.3055(2) 0.1456(7)
C6 C 0.0439(8) 0.2206(3) 0.1766(7)
C7 C 0.5755(9) 0.1540(3) -0.0079(8)
H4 H 0.5945 0.1186 -0.0226
C8 C 0.5224(9) 0.2585(3) 0.0323(8)
H5 H 0.5058 0.2940 0.0462
C9 C 0.2673(8) 0.2391(2) 0.1026(7)
C10 C 0.6561(8) 0.2407(3) -0.0139(8)
H6 H 0.7306 0.2646 -0.0313
C11 C 0.1794(8) 0.3990(3) 0.1180(8)
H7 H 0.2716 0.3885 0.0902
C12 C -0.3041(8) 0.1619(3) 0.3025(8)
H8 H -0.3895 0.1733 0.3412
C13 C -0.0685(8) 0.1822(3) 0.2166(7)
C14 C -0.0499(9) 0.1291(3) 0.1979(8)
H9 H 0.0372 0.1165 0.1641
C15 C 0.4428(8) 0.1683(3) 0.0396(8)
H10 H 0.3726 0.1432 0.0601
C16 C -0.1594(9) 0.0949(3) 0.2290(10)
H11 H -0.1455 0.0593 0.2139
C17 C -0.0589(8) 0.3788(3) 0.1917(7)
H12 H -0.1315 0.3548 0.2131
C18 C -0.0857(9) 0.4319(3) 0.1990(9)
H13 H -0.1775 0.4430 0.2266
N6 N 0.0143(7) 0.4686(2) 0.1682(7)
O1 O -0.7192(9) 0.0714(3) 0.3759(10)
O2 O -0.6432(9) 0.1513(3) 0.3849(8)
O3 O -0.8460(7) 0.1301(3) 0.4666(8)
N7 N -0.7370(8) 0.1177(3) 0.4079(8)
Ag1A Ag -0.03904(8) 0.55304(2) 0.18698(8)
N6A N -0.5143(7) -0.0314(2) 0.3318(7)
O4 O -0.0157(7) 0.2291(3) 0.8707(7)
O5 O -0.0747(7) 0.1473(2) 0.8722(7)
O6 O 0.1425(8) 0.1721(3) 0.8124(9)
N8 N 0.0188(8) 0.1841(3) 0.8513(8)
O7 O 0.0257(14) 0.0459(4) 0.8130(12)
H14 H 0.0912 0.0571 0.7632
H15 H -0.0430 0.0687 0.8177
O8 O 0.0242(13) 0.0399(4) 0.5649(12)
H16 H 0.0770 0.0555 0.6234
H17 H -0.0423 0.0636 0.5630
O9 O 0.582(4) 0.0289(7) 0.037(2)
H18 H 0.5724 0.0148 -0.0370
H19 H 0.6227 0.0072 0.0904
O10 O 0.764(6) 0.9693(9) 0.914(3)
H20 H 0.7339 0.9926 0.8603
H21 H 0.8501 0.9774 0.9453
O11? O 0.491(4) 0.0199(13) 0.015(2)
loop_
_geom_bond_atom_site_label_1
_geom_bond_atom_site_label_2
_geom_bond_site_symmetry_1
_geom_bond_site_symmetry_2
Ag1 N5 1_555 1_555
N1 C5 1_555 1_555
N2 C6 1_555 1_555
N3 C5 1_555 1_555
N4 H1 1_555 1_555
N5 C12 1_555 1_555
C1 C8 1_555 1_555
C2 H2 1_555 1_555
C3 H3 1_555 1_555
C4 C5 1_555 1_555
C6 N3 1_555 1_555
C7 N4 1_555 1_555
H4 C7 1_555 1_555
C8 H5 1_555 1_555
C9 N1 1_555 1_555
C10 N4 1_555 1_555
H6 C10 1_555 1_555
C11 C3 1_555 1_555
H7 C11 1_555 1_555
C12 C2 1_555 1_555
H8 C12 1_555 1_555
C13 C2 1_555 1_555
C14 C13 1_555 1_555
H9 C14 1_555 1_555
C15 C1 1_555 1_555
H10 C15 1_555 1_555
C16 N5 1_555 1_555
H11 C16 1_555 1_555
C17 C4 1_555 1_555
H12 C17 1_555 1_555
C18 C17 1_555 1_555
H13 C18 1_555 1_555
N6 C3 1_555 1_555
O1 Ag1 1_555 1_555
O2 N7 1_555 1_555
O3 N7 1_555 1_555
N7 O1 1_555 1_555
O4 N8 1_555 1_555
O5 N8 1_555 1_555
O6 N8 1_555 1_555
O7 H14 1_555 1_555
H15 O7 1_555 1_555
O8 H16 1_555 1_555
H17 O8 1_555 1_555
O9 H18 1_555 1_555
H19 O9 1_555 1_555
O10 H20 1_555 1_555
H21 O10 1_555 1_555
Ag1A N6 1_555 1_555
N6A Ag1 1_555 1_555
N2 C9 1_555 1_555
C1 C9 1_555 1_555
C4 C11 1_555 1_555
C6 C13 1_555 1_555
C7 C15 1_555 1_555
C8 C10 1_555 1_555
C14 C16 1_555 1_555
C18 N6 1_555 1_555

#END
