
#######################################################################
#
#                 Cambridge Crystallographic Data Centre
#                                CCDC 
#
#######################################################################
#
# If this CIF has been generated from an entry in the Cambridge 
# Structural Database, then it will include bibliographic, chemical, 
# crystal, experimental, refinement or atomic coordinate data resulting 
# from the CCDC's data processing and validation procedures.
#
#######################################################################

data_XODMAF
_symmetry_cell_setting           tetragonal
_symmetry_space_group_name_H-M   'P 41'
_symmetry_Int_Tables_number      76
_space_group_name_Hall           'P 4w'
loop_
_symmetry_equiv_pos_site_id
_symmetry_equiv_pos_as_xyz
1 x,y,z
2 -x,-y,1/2+z
3 -y,x,1/4+z
4 y,-x,3/4+z
_cell_length_a                   10.5356(13)
_cell_length_b                   10.5356(13)
_cell_length_c                   41.326(8)
_cell_angle_alpha                90
_cell_angle_beta                 90
_cell_angle_gamma                90
_cell_volume                     4587.14
loop_
_atom_site_label
_atom_site_type_symbol
_atom_site_fract_x
_atom_site_fract_y
_atom_site_fract_z
K1 K 0.63832(6) 0.62765(5) 0.164857(16)
O1 O 0.78731(19) 0.92529(17) 0.16733(5)
N1 N 0.8289(2) 0.8210(2) 0.18699(5)
K2 K 0.77358(6) 1.13228(5) 0.135799(16)
O2 O 0.62415(18) 0.83366(17) 0.13284(5)
N2 N 0.5805(2) 0.9387(2) 0.11307(6)
N3 N 0.5747(2) 0.4376(2) 0.11368(6)
O3 O 0.6587(2) 0.34017(18) 0.12554(5)
N4 N 0.8376(2) 0.3221(2) 0.18711(6)
O4 O 0.7541(2) 0.42106(18) 0.17503(5)
C1 C 0.8081(3) 0.8607(3) 0.22098(7)
H1 H 0.8441 0.9476 0.2242
C2 C 0.6677(3) 0.8641(3) 0.22702(8)
H2 H 0.6256 0.9098 0.2094
H3 H 0.6508 0.9074 0.2476
H4 H 0.6348 0.7771 0.2281
C3 C 0.8705(3) 0.7690(4) 0.24481(8)
H5 H 0.9630 0.7790 0.2438
H6 H 0.8478 0.6816 0.2391
H7 H 0.8409 0.7876 0.2668
C4 C 0.9638(3) 0.7993(3) 0.17899(7)
H8 H 0.9944 0.7286 0.1932
C5 C 1.0509(3) 0.9133(3) 0.18504(9)
H9 H 1.0451 0.9387 0.2078
H10 H 1.0247 0.9842 0.1712
H11 H 1.1387 0.8899 0.1800
C6 C 0.9735(3) 0.7537(3) 0.14445(7)
H12 H 0.9147 0.6828 0.1411
H13 H 1.0605 0.7253 0.1401
H14 H 0.9517 0.8232 0.1297
C7 C 0.4453(3) 0.9576(3) 0.12103(7)
H15 H 0.4129 1.0270 0.1067
C8 C 0.3615(3) 0.8427(3) 0.11551(8)
H16 H 0.3623 0.8203 0.0925
H17 H 0.2745 0.8623 0.1222
H18 H 0.3936 0.7711 0.1283
C9 C 0.4333(3) 1.0040(3) 0.15582(8)
H19 H 0.4899 1.0766 0.1592
H20 H 0.4569 0.9354 0.1707
H21 H 0.3454 1.0297 0.1600
C10 C 0.6023(3) 0.8996(3) 0.07932(7)
H22 H 0.5684 0.8119 0.0761
C11 C 0.7455(3) 0.8992(3) 0.07305(8)
H23 H 0.7892 0.8593 0.0914
H24 H 0.7756 0.9866 0.0705
H25 H 0.7635 0.8513 0.0532
C12 C 0.5384(3) 0.9885(3) 0.05541(8)
H26 H 0.4464 0.9748 0.0559
H27 H 0.5704 0.9714 0.0336
H28 H 0.5572 1.0766 0.0613
C13 C 0.4470(3) 0.3788(3) 0.11319(8)
H29 H 0.4530 0.2942 0.1023
C14 C 0.3516(3) 0.4611(4) 0.09472(9)
H30 H 0.3702 0.4572 0.0715
H31 H 0.3582 0.5492 0.1022
H32 H 0.2655 0.4297 0.0987
C15 C 0.4025(4) 0.3593(4) 0.14749(9)
H33 H 0.4677 0.3134 0.1597
H34 H 0.3236 0.3100 0.1474
H35 H 0.3872 0.4420 0.1576
C16 C 0.6202(3) 0.4758(3) 0.08146(7)
H36 H 0.5592 0.5396 0.0725
C17 C 0.7484(3) 0.5401(3) 0.08513(8)
H37 H 0.7402 0.6133 0.0996
H38 H 0.7783 0.5687 0.0639
H39 H 0.8095 0.4797 0.0943
C18 C 0.6289(4) 0.3651(4) 0.05745(8)
H40 H 0.5440 0.3297 0.0539
H41 H 0.6846 0.2992 0.0663
H42 H 0.6635 0.3957 0.0369
C19 C 0.7880(3) 0.2849(3) 0.21895(7)
H43 H 0.8472 0.2198 0.2280
C20 C 0.6606(3) 0.2217(3) 0.21468(8)
H44 H 0.6703 0.1462 0.2011
H45 H 0.6016 0.2811 0.2043
H46 H 0.6273 0.1967 0.2359
C21 C 0.7800(4) 0.3921(4) 0.24350(8)
H47 H 0.8638 0.4313 0.2460
H48 H 0.7519 0.3581 0.2644
H49 H 0.7191 0.4559 0.2360
C22 C 0.9648(3) 0.3784(3) 0.18815(8)
H50 H 0.9596 0.4621 0.1995
C23 C 1.0588(3) 0.2954(4) 0.20587(10)
H51 H 1.0388 0.2952 0.2290
H52 H 1.1448 0.3286 0.2026
H53 H 1.0539 0.2086 0.1975
C24 C 1.0106(3) 0.4004(4) 0.15391(9)
H54 H 0.9446 0.4447 0.1416
H55 H 1.0290 0.3186 0.1436
H56 H 1.0878 0.4522 0.1543
O5 O 0.4397(2) 0.6038(3) 0.20823(7)
C25 C 0.3341(5) 0.6839(5) 0.20636(13)
H57 H 0.2976 0.6819 0.1843
H58 H 0.3588 0.7723 0.2114
C26 C 0.2394(4) 0.6372(5) 0.23035(11)
H59 H 0.2023 0.7088 0.2426
H60 H 0.1701 0.5906 0.2194
C27 C 0.3103(4) 0.5523(5) 0.25203(10)
H61 H 0.2567 0.4806 0.2593
H62 H 0.3420 0.5987 0.2712
C28 C 0.4163(4) 0.5073(4) 0.23168(10)
H63 H 0.4929 0.4928 0.2451
H64 H 0.3934 0.4266 0.2209
O6 O 0.9805(2) 1.1497(3) 0.09526(6)
C29 C 0.9948(4) 1.2457(5) 0.07221(10)
H65 H 1.0256 1.3247 0.0825
H66 H 0.9128 1.2635 0.0614
C30 C 1.0902(4) 1.1973(6) 0.04815(11)
H67 H 1.0488 1.1468 0.0309
H68 H 1.1383 1.2679 0.0382
C31 C 1.1732(4) 1.1172(5) 0.06861(12)
H69 H 1.2051 1.0434 0.0562
H70 H 1.2466 1.1667 0.0767
C32 C 1.0931(5) 1.0755(5) 0.09551(12)
H71 H 1.0718 0.9845 0.0931
H72 H 1.1385 1.0870 0.1163
H81 H 0.717(4) 0.869(5) 0.1484(13)
H82 H 0.710(4) 0.382(5) 0.1498(7)
K2_2 K 0.77358(6) 0.13228(5) 0.135799(16)
O3_2 O 0.6587(2) 1.34017(18) 0.12554(5)
N4_2 N 0.8376(2) 1.3221(2) 0.18711(6)
H82_2 H 0.710(4) 1.382(5) 0.1498(7)
O7 O 0.3436(8) 1.0725(12) 0.24937(18)
C33 C 0.4079(9) 1.1289(15) 0.2766(3)
H73 H 0.4898 1.0857 0.2807
H74 H 0.4243 1.2201 0.2726
C34 C 0.3251(11) 1.1131(12) 0.30319(18)
H75 H 0.3308 1.1858 0.3183
H76 H 0.3440 1.0338 0.3151
C35 C 0.2008(8) 1.1073(14) 0.2878(3)
H77 H 0.1738 1.1905 0.2791
H78 H 0.1347 1.0737 0.3026
C36 C 0.2348(11) 1.0142(11) 0.2614(2)
H79 H 0.2531 0.9286 0.2701
H80 H 0.1674 1.0081 0.2448
loop_
_geom_bond_atom_site_label_1
_geom_bond_atom_site_label_2
_geom_bond_site_symmetry_1
_geom_bond_site_symmetry_2
K1 N1 1_555 1_555
O1 N1 1_555 1_555
N1 C1 1_555 1_555
K2 O1 1_555 1_555
O2 K1 1_555 1_555
N2 K2 1_555 1_555
N3 K1 1_555 1_555
O3 N3 1_555 1_555
N4 O4 1_555 1_555
O4 K1 1_555 1_555
C1 H1 1_555 1_555
C2 C1 1_555 1_555
H2 C2 1_555 1_555
H3 C2 1_555 1_555
H4 C2 1_555 1_555
C3 C1 1_555 1_555
H5 C3 1_555 1_555
H6 C3 1_555 1_555
H7 C3 1_555 1_555
C4 N1 1_555 1_555
H8 C4 1_555 1_555
C5 C4 1_555 1_555
H9 C5 1_555 1_555
H10 C5 1_555 1_555
H11 C5 1_555 1_555
C6 C4 1_555 1_555
H12 C6 1_555 1_555
H13 C6 1_555 1_555
H14 C6 1_555 1_555
C7 N2 1_555 1_555
H15 C7 1_555 1_555
C8 C7 1_555 1_555
H16 C8 1_555 1_555
H17 C8 1_555 1_555
H18 C8 1_555 1_555
C9 C7 1_555 1_555
H19 C9 1_555 1_555
H20 C9 1_555 1_555
H21 C9 1_555 1_555
C10 N2 1_555 1_555
H22 C10 1_555 1_555
C11 C10 1_555 1_555
H23 C11 1_555 1_555
H24 C11 1_555 1_555
H25 C11 1_555 1_555
C12 C10 1_555 1_555
H26 C12 1_555 1_555
H27 C12 1_555 1_555
H28 C12 1_555 1_555
C13 N3 1_555 1_555
H29 C13 1_555 1_555
C14 C13 1_555 1_555
H30 C14 1_555 1_555
H31 C14 1_555 1_555
H32 C14 1_555 1_555
C15 C13 1_555 1_555
H33 C15 1_555 1_555
H34 C15 1_555 1_555
H35 C15 1_555 1_555
C16 N3 1_555 1_555
H36 C16 1_555 1_555
C17 C16 1_555 1_555
H37 C17 1_555 1_555
H38 C17 1_555 1_555
H39 C17 1_555 1_555
C18 C16 1_555 1_555
H40 C18 1_555 1_555
H41 C18 1_555 1_555
H42 C18 1_555 1_555
C19 N4 1_555 1_555
H43 C19 1_555 1_555
C20 C19 1_555 1_555
H44 C20 1_555 1_555
H45 C20 1_555 1_555
H46 C20 1_555 1_555
C21 C19 1_555 1_555
H47 C21 1_555 1_555
H48 C21 1_555 1_555
H49 C21 1_555 1_555
C22 N4 1_555 1_555
H50 C22 1_555 1_555
C23 C22 1_555 1_555
H51 C23 1_555 1_555
H52 C23 1_555 1_555
H53 C23 1_555 1_555
C24 C22 1_555 1_555
H54 C24 1_555 1_555
H55 C24 1_555 1_555
H56 C24 1_555 1_555
O5 K1 1_555 1_555
C25 O5 1_555 1_555
H57 C25 1_555 1_555
H58 C25 1_555 1_555
C26 C25 1_555 1_555
H59 C26 1_555 1_555
H60 C26 1_555 1_555
C27 C26 1_555 1_555
H61 C27 1_555 1_555
H62 C27 1_555 1_555
C28 O5 1_555 1_555
H63 C28 1_555 1_555
H64 C28 1_555 1_555
O6 K2 1_555 1_555
C29 O6 1_555 1_555
H65 C29 1_555 1_555
H66 C29 1_555 1_555
C30 C29 1_555 1_555
H67 C30 1_555 1_555
H68 C30 1_555 1_555
C31 C30 1_555 1_555
H69 C31 1_555 1_555
H70 C31 1_555 1_555
C32 O6 1_555 1_555
H71 C32 1_555 1_555
H72 C32 1_555 1_555
O7 C33 1_555 1_555
C33 H73 1_555 1_555
H74 C33 1_555 1_555
C34 C33 1_555 1_555
H75 C34 1_555 1_555
H76 C34 1_555 1_555
C35 C34 1_555 1_555
H77 C35 1_555 1_555
H78 C35 1_555 1_555
C36 O7 1_555 1_555
H79 C36 1_555 1_555
H80 C36 1_555 1_555
H81 O1 1_555 1_555
H82 O3 1_555 1_555
K2_2 O3 1_555 1_555
O3_2 K2 1_555 1_555
N4_2 K2 1_555 1_555
H82_2 O3_2 1_555 1_555
O2 N2 1_555 1_555
O2 H81 1_555 1_555
N4 K2_2 1_555 1_555
O4 H82 1_555 1_555
C27 C28 1_555 1_555
C31 C32 1_555 1_555
C35 C36 1_555 1_555

#END
