
#######################################################################
#
#                 Cambridge Crystallographic Data Centre
#                                CCDC 
#
#######################################################################
#
# If this CIF has been generated from an entry in the Cambridge 
# Structural Database, then it will include bibliographic, chemical, 
# crystal, experimental, refinement or atomic coordinate data resulting 
# from the CCDC's data processing and validation procedures.
#
#######################################################################

data_XODQOW
_symmetry_cell_setting           monoclinic
_symmetry_space_group_name_H-M   'P 21/c'
_symmetry_Int_Tables_number      14
_space_group_name_Hall           '-P 2ybc'
loop_
_symmetry_equiv_pos_site_id
_symmetry_equiv_pos_as_xyz
1 x,y,z
2 x,1/2-y,1/2+z
3 -x,-y,-z
4 -x,1/2+y,1/2-z
_cell_length_a                   23.175(2)
_cell_length_b                   16.1746(7)
_cell_length_c                   23.782(4)
_cell_angle_alpha                90
_cell_angle_beta                 93.101(7)
_cell_angle_gamma                90
_cell_volume                     8901.54
loop_
_atom_site_label
_atom_site_type_symbol
_atom_site_fract_x
_atom_site_fract_y
_atom_site_fract_z
Rh1 Rh 0.03299(3) 0.06792(4) 0.30018(3)
Rh2 Rh 0.11882(3) 0.15126(5) 0.31398(3)
Rh3 Rh 0.20760(3) 0.24857(5) 0.01523(3)
Rh4 Rh 0.19863(3) 0.27958(5) 0.11362(3)
Rh5 Rh 0.44392(3) 0.52066(5) 0.19739(3)
Rh6 Rh 0.53554(3) 0.58107(6) 0.17663(4)
O1 O 0.0071(3) 0.1434(4) 0.2358(3)
O2 O -0.0061(3) 0.1456(4) 0.3536(3)
O3 O 0.0636(3) -0.0048(5) 0.3643(3)
O4 O 0.0776(3) -0.0055(4) 0.2479(3)
O5 O 0.0870(3) 0.2211(4) 0.2469(3)
O6 O 0.0746(3) 0.2251(4) 0.3655(3)
O7 O 0.1437(3) 0.0728(5) 0.3773(3)
O8 O 0.1582(3) 0.0743(5) 0.2609(4)
O9 O 0.1556(4) 0.1491(5) 0.0266(3)
O10 O 0.1356(3) 0.3176(5) -0.0027(3)
O11 O 0.2571(3) 0.3526(5) 0.0096(3)
O12 O 0.2788(3) 0.1796(6) 0.0381(3)
O13 O 0.1449(3) 0.1809(5) 0.1186(3)
O14 O 0.1289(3) 0.3500(5) 0.0891(3)
O15 O 0.2486(3) 0.3792(5) 0.1025(3)
O16 O 0.2696(3) 0.2067(5) 0.1304(3)
O17 O 0.4869(3) 0.4403(4) 0.2497(3)
O18 O 0.4388(3) 0.6019(5) 0.2608(3)
O19 O 0.4057(3) 0.6047(4) 0.1443(3)
O20 O 0.4535(3) 0.4419(4) 0.1321(3)
O21 O 0.5726(3) 0.4975(5) 0.2313(4)
O22 O 0.5240(3) 0.6596(5) 0.2422(4)
O23 O 0.4903(3) 0.6601(5) 0.1236(4)
O24 O 0.5391(4) 0.4980(5) 0.1128(4)
C1 C 0.0387(4) 0.2025(6) 0.2245(4)
C2 C 0.0220(4) 0.2080(6) 0.3726(4)
C3 C 0.1124(5) 0.0123(7) 0.3862(5)
C4 C 0.1304(5) 0.0141(6) 0.2412(5)
C5 C 0.0131(5) 0.2612(7) 0.1798(5)
F1 F 0.0408(9) 0.3272(11) 0.1709(10)
F2 F -0.0421(8) 0.2831(16) 0.1869(11)
F3 F 0.0032(9) 0.2159(10) 0.1318(6)
C6 C -0.0109(6) 0.2704(9) 0.4069(6)
F7 F 0.0230(7) 0.3133(12) 0.4418(8)
F8 F -0.0521(7) 0.2310(11) 0.4323(8)
F9 F -0.0346(10) 0.3237(14) 0.3688(8)
C7 C 0.1372(7) -0.0489(10) 0.4299(6)
F13 F 0.1065(6) -0.1179(8) 0.4345(7)
F14 F 0.1491(8) -0.0076(10) 0.4799(6)
F15 F 0.1895(8) -0.0709(15) 0.4189(10)
C8 C 0.1625(6) -0.0459(9) 0.2054(6)
F19 F 0.1290(5) -0.0905(9) 0.1700(6)
F20 F 0.2070(8) -0.0135(13) 0.1813(9)
F21 F 0.1895(9) -0.0964(11) 0.2456(7)
C9 C 0.1353(5) 0.1403(7) 0.0737(4)
C10 C 0.1130(5) 0.3507(7) 0.0389(4)
C11 C 0.2664(5) 0.3950(8) 0.0546(4)
C12 C 0.2922(5) 0.1758(8) 0.0892(4)
C13 C 0.0888(6) 0.0736(9) 0.0762(6)
F25 F 0.0821(8) 0.0473(11) 0.1291(5)
F26 F 0.0943(10) 0.0071(12) 0.0449(9)
F27 F 0.0399(6) 0.1027(11) 0.0475(7)
C14 C 0.0563(6) 0.3935(9) 0.0248(6)
F31 F 0.0371(6) 0.3949(9) -0.0285(4)
F32 F 0.0136(8) 0.3857(15) 0.0563(8)
F33 F 0.0646(8) 0.4757(9) 0.0437(7)
C15 C 0.2983(6) 0.4759(9) 0.0472(6)
F37 F 0.2755(7) 0.5257(10) 0.0106(7)
F38 F 0.3525(7) 0.4541(12) 0.0316(9)
F39 F 0.3159(9) 0.5099(12) 0.0958(7)
C16 C 0.3469(8) 0.1231(12) 0.1058(8)
F43 F 0.3800(8) 0.1589(12) 0.1428(8)
F44 F 0.3646(9) 0.0766(12) 0.0668(8)
F45 F 0.3256(11) 0.0580(16) 0.1393(12)
C17 C 0.5415(5) 0.4479(7) 0.2550(6)
C18 C 0.4809(5) 0.6525(7) 0.2688(5)
C19 C 0.4374(5) 0.6537(7) 0.1197(5)
C20 C 0.4984(6) 0.4483(7) 0.1052(5)
C21 C 0.5701(6) 0.3911(9) 0.2985(6)
F49 F 0.5507(6) 0.3144(7) 0.2975(6)
F50 F 0.5680(8) 0.4264(9) 0.3491(6)
F51 F 0.6276(6) 0.3890(12) 0.2951(8)
C22 C 0.4749(6) 0.7098(9) 0.3203(6)
F55 F 0.4965(9) 0.6669(11) 0.3638(7)
F56 F 0.5010(8) 0.7812(9) 0.3175(7)
F57 F 0.4189(6) 0.7262(12) 0.3311(8)
C23 C 0.4050(5) 0.7120(8) 0.0784(5)
F61 F 0.3602(7) 0.7475(11) 0.1039(7)
F62 F 0.4375(7) 0.7727(10) 0.0624(8)
F63 F 0.3832(9) 0.6683(11) 0.0357(7)
C24 C 0.5063(7) 0.3867(11) 0.0582(7)
F67 F 0.5530(7) 0.3433(10) 0.0707(7)
F68 F 0.5029(11) 0.4171(13) 0.0072(7)
F69 F 0.4629(7) 0.3278(10) 0.0562(7)
O25 O 0.1920(2) 0.2890(3) 0.2167(2)
H1 H 0.1575 0.2749 0.2149
N1 N 0.0441(3) 0.4988(5) 0.2158(3)
N2 N 0.2151(3) 0.2842(5) 0.4276(3)
N3 N 0.3628(3) 0.4676(5) 0.2162(3)
C25 C 0.1994(3) 0.3593(5) 0.2529(3)
C26 C 0.1465(3) 0.4146(5) 0.2431(3)
C27 C 0.1394(4) 0.4609(6) 0.1943(3)
H2 H 0.1697 0.4646 0.1697
C28 C 0.0885(4) 0.5012(6) 0.1817(4)
H3 H 0.0844 0.5317 0.1481
C29 C 0.0502(4) 0.4538(6) 0.2629(4)
H4 H 0.0193 0.4512 0.2867
C30 C 0.0998(4) 0.4113(6) 0.2777(4)
H5 H 0.1024 0.3800 0.3110
C31 C 0.2065(3) 0.3311(5) 0.3143(3)
C32 C 0.2168(3) 0.2494(5) 0.3302(3)
H6 H 0.2210 0.2087 0.3025
C33 C 0.2210(4) 0.2278(6) 0.3868(4)
H7 H 0.2280 0.1724 0.3968
C34 C 0.2091(5) 0.3636(6) 0.4128(4)
H8 H 0.2072 0.4035 0.4413
C35 C 0.2053(4) 0.3896(6) 0.3576(3)
H9 H 0.2021 0.4462 0.3490
C36 C 0.2564(3) 0.4002(5) 0.2390(3)
C37 C 0.3016(4) 0.3505(5) 0.2235(4)
H10 H 0.2967 0.2930 0.2204
C38 C 0.3543(4) 0.3863(6) 0.2125(4)
H11 H 0.3848 0.3522 0.2022
C39 C 0.3199(4) 0.5159(6) 0.2319(4)
H12 H 0.3263 0.5732 0.2351
C40 C 0.2663(4) 0.4848(6) 0.2437(4)
H13 H 0.2370 0.5204 0.2548
C41 C 0.6564(13) 0.6488(17) 0.2123(10)
H14 H 0.6485 0.6805 0.2441
C42 C 0.6305(13) 0.6690(17) 0.1610(11)
H15 H 0.6040 0.7130 0.1574
C43 C 0.6442(12) 0.6228(18) 0.1146(11)
H16 H 0.6275 0.6356 0.0788
C44 C 0.6824(13) 0.5581(17) 0.1210(11)
H17 H 0.6934 0.5302 0.0886
C45 C 0.7053(13) 0.5321(19) 0.1726(10)
H18 H 0.7271 0.4833 0.1767
C46 C 0.6944(12) 0.5819(17) 0.2182(10)
H19 H 0.7128 0.5705 0.2536
N2A N 0.2151(3) 0.2158(5) -0.0724(3)
N1C N -0.0441(3) -0.0012(5) 0.2842(3)
Rh1C Rh -0.03299(3) 0.56792(4) 0.19982(3)
Rh3A Rh 0.20760(3) 0.25143(5) 0.51523(3)
C53 C 0.1701(19) 0.689(5) 0.225(2)
C54 C 0.1560(19) 0.676(4) 0.2774(19)
C55 C 0.1975(18) 0.674(4) 0.318(2)
C56 C 0.2490(19) 0.706(4) 0.310(2)
C57 C 0.261(2) 0.718(4) 0.257(2)
C58 C 0.2233(19) 0.712(4) 0.214(2)
F4? F 0.0500(5) 0.3120(8) 0.1618(6)
F5? F -0.0279(6) 0.3096(9) 0.2062(6)
F6? F -0.0230(8) 0.2280(11) 0.1412(7)
F10? F 0.0172(7) 0.2814(12) 0.4568(6)
F11? F -0.0651(6) 0.2545(12) 0.4103(9)
F12? F -0.0105(9) 0.3438(10) 0.3781(8)
F16? F 0.0968(6) -0.0920(10) 0.4551(7)
F17? F 0.1755(10) -0.0169(14) 0.4677(9)
F18? F 0.1734(9) -0.0949(14) 0.4020(9)
F22? F 0.1325(7) -0.1104(9) 0.1893(8)
F23? F 0.1877(7) -0.0012(9) 0.1631(6)
F24? F 0.2101(8) -0.0764(13) 0.2323(9)
F28? F -0.0658(6) -0.0672(9) -0.1265(5)
F29? F -0.1163(7) 0.0004(9) -0.0643(7)
F30? F -0.0503(8) -0.0695(13) -0.0347(7)
F34? F -0.0516(6) -0.4218(9) 0.0285(4)
F35? F -0.0130(5) -0.3394(9) -0.0404(6)
F36? F -0.0398(7) -0.4515(9) -0.0578(6)
F40? F -0.2919(8) -0.5053(11) 0.0026(6)
F41? F -0.3515(8) -0.4695(16) -0.0670(11)
F42? F -0.2780(8) -0.5326(11) -0.0841(7)
F46? F -0.3638(9) -0.1136(13) -0.1562(7)
F47? F -0.3860(8) -0.1306(13) -0.0684(8)
F48? F -0.3305(13) -0.0415(15) -0.0936(14)
F52? F -0.5359(7) -0.1691(10) 0.1857(7)
F53? F -0.5967(11) -0.0734(13) 0.1593(9)
F54? F -0.6173(8) -0.1444(14) 0.2244(9)
F58? F -0.4742(9) 0.1713(11) 0.1320(6)
F59? F -0.5216(7) 0.2593(11) 0.1764(8)
F60? F -0.4272(7) 0.2559(12) 0.1886(9)
F64? F -0.3752(7) 0.2673(10) 0.3932(6)
F65? F -0.4395(6) 0.2519(11) 0.4554(7)
F66? F -0.3669(8) 0.1717(11) 0.4566(7)
F70? F -0.5283(11) -0.1831(12) 0.4320(10)
F71? F -0.5369(8) -0.0761(11) 0.4828(7)
F72? F -0.4562(10) -0.1201(19) 0.4747(12)
C47? C 0.324(2) 0.121(3) 0.2862(14)
H20? H 0.3158 0.1294 0.2474
C48? C 0.363(2) 0.172(3) 0.3155(17)
H21? H 0.3837 0.2138 0.2972
C49? C 0.371(2) 0.160(2) 0.3728(16)
H22? H 0.3892 0.2002 0.3954
C50? C 0.351(2) 0.088(3) 0.3979(15)
H23? H 0.3613 0.0781 0.4360
C51? C 0.317(2) 0.032(2) 0.3674(17)
H24? H 0.3079 -0.0201 0.3817
C52? C 0.297(2) 0.059(3) 0.3146(17)
H25? H 0.2645 0.0332 0.2973
C59? C 0.1783(16) 0.689(3) 0.1906(18)
C60? C 0.156(2) 0.683(4) 0.2403(16)
C61? C 0.1905(16) 0.698(3) 0.285(2)
C62? C 0.2464(16) 0.714(4) 0.281(2)
C63? C 0.2647(18) 0.723(4) 0.2300(19)
C64? C 0.2335(17) 0.704(3) 0.184(2)
loop_
_geom_bond_atom_site_label_1
_geom_bond_atom_site_label_2
_geom_bond_site_symmetry_1
_geom_bond_site_symmetry_2
Rh1 Rh2 1_555 1_555
Rh2 O5 1_555 1_555
Rh3 Rh4 1_555 1_555
Rh4 O13 1_555 1_555
Rh5 Rh6 1_555 1_555
Rh6 O21 1_555 1_555
O1 Rh1 1_555 1_555
O2 Rh1 1_555 1_555
O3 Rh1 1_555 1_555
O4 Rh1 1_555 1_555
O5 C1 1_555 1_555
O6 Rh2 1_555 1_555
O7 Rh2 1_555 1_555
O8 Rh2 1_555 1_555
O9 Rh3 1_555 1_555
O10 Rh3 1_555 1_555
O11 Rh3 1_555 1_555
O12 Rh3 1_555 1_555
O13 C9 1_555 1_555
O14 Rh4 1_555 1_555
O15 Rh4 1_555 1_555
O16 Rh4 1_555 1_555
O17 Rh5 1_555 1_555
O18 Rh5 1_555 1_555
O19 Rh5 1_555 1_555
O20 Rh5 1_555 1_555
O21 C17 1_555 1_555
O22 Rh6 1_555 1_555
O23 Rh6 1_555 1_555
O24 Rh6 1_555 1_555
C1 O1 1_555 1_555
C2 O2 1_555 1_555
C3 O3 1_555 1_555
C4 O4 1_555 1_555
C5 C1 1_555 1_555
F1 C5 1_555 1_555
F2 C5 1_555 1_555
F3 C5 1_555 1_555
C6 C2 1_555 1_555
F7 C6 1_555 1_555
F8 C6 1_555 1_555
F9 C6 1_555 1_555
C7 C3 1_555 1_555
F13 C7 1_555 1_555
F14 C7 1_555 1_555
F15 C7 1_555 1_555
C8 C4 1_555 1_555
F19 C8 1_555 1_555
F20 C8 1_555 1_555
F21 C8 1_555 1_555
C9 O9 1_555 1_555
C10 O10 1_555 1_555
C11 O11 1_555 1_555
C12 O12 1_555 1_555
C13 C9 1_555 1_555
F25 C13 1_555 1_555
F26 C13 1_555 1_555
F27 C13 1_555 1_555
C14 C10 1_555 1_555
F31 C14 1_555 1_555
F32 C14 1_555 1_555
F33 C14 1_555 1_555
C15 C11 1_555 1_555
F37 C15 1_555 1_555
F38 C15 1_555 1_555
F39 C15 1_555 1_555
C16 C12 1_555 1_555
F43 C16 1_555 1_555
F44 C16 1_555 1_555
F45 C16 1_555 1_555
C17 O17 1_555 1_555
C18 O18 1_555 1_555
C19 O19 1_555 1_555
C20 O20 1_555 1_555
C21 C17 1_555 1_555
F49 C21 1_555 1_555
F50 C21 1_555 1_555
F51 C21 1_555 1_555
C22 C18 1_555 1_555
F55 C22 1_555 1_555
F56 C22 1_555 1_555
F57 C22 1_555 1_555
C23 C19 1_555 1_555
F61 C23 1_555 1_555
F62 C23 1_555 1_555
F63 C23 1_555 1_555
C24 C20 1_555 1_555
F67 C24 1_555 1_555
F68 C24 1_555 1_555
F69 C24 1_555 1_555
O25 Rh4 1_555 1_555
H1 O25 1_555 1_555
N1 C28 1_555 1_555
N2 C33 1_555 1_555
N3 Rh5 1_555 1_555
C25 O25 1_555 1_555
C26 C25 1_555 1_555
C27 C26 1_555 1_555
H2 C27 1_555 1_555
C28 C27 1_555 1_555
H3 C28 1_555 1_555
C29 N1 1_555 1_555
H4 C29 1_555 1_555
C30 C26 1_555 1_555
H5 C30 1_555 1_555
C31 C25 1_555 1_555
C32 Rh2 1_555 1_555
H6 C32 1_555 1_555
C33 C32 1_555 1_555
H7 C33 1_555 1_555
C34 N2 1_555 1_555
H8 C34 1_555 1_555
C35 C31 1_555 1_555
H9 C35 1_555 1_555
C36 C25 1_555 1_555
C37 C36 1_555 1_555
H10 C37 1_555 1_555
C38 N3 1_555 1_555
H11 C38 1_555 1_555
C39 N3 1_555 1_555
H12 C39 1_555 1_555
C40 C36 1_555 1_555
H13 C40 1_555 1_555
C41 H14 1_555 1_555
C42 Rh6 1_555 1_555
H15 C42 1_555 1_555
C43 C42 1_555 1_555
H16 C43 1_555 1_555
C44 C43 1_555 1_555
H17 C44 1_555 1_555
C45 C44 1_555 1_555
H18 C45 1_555 1_555
C46 C41 1_555 1_555
H19 C46 1_555 1_555
C53 C54 1_555 1_555
C54 C55 1_555 1_555
C55 C56 1_555 1_555
C56 C57 1_555 1_555
C57 C58 1_555 1_555
C58 C53 1_555 1_555
N2A Rh3 1_555 1_555
N1C Rh1 1_555 1_555
Rh1C N1 1_555 1_555
Rh3A N2 1_555 1_555
O6 C2 1_555 1_555
O7 C3 1_555 1_555
O8 C4 1_555 1_555
O14 C10 1_555 1_555
O15 C11 1_555 1_555
O16 C12 1_555 1_555
O22 C18 1_555 1_555
O23 C19 1_555 1_555
O24 C20 1_555 1_555
C29 C30 1_555 1_555
C31 C32 1_555 1_555
C34 C35 1_555 1_555
C37 C38 1_555 1_555
C39 C40 1_555 1_555
C41 C42 1_555 1_555
C45 C46 1_555 1_555

#END
