
#######################################################################
#
#                 Cambridge Crystallographic Data Centre
#                                CCDC 
#
#######################################################################
#
# If this CIF has been generated from an entry in the Cambridge 
# Structural Database, then it will include bibliographic, chemical, 
# crystal, experimental, refinement or atomic coordinate data resulting 
# from the CCDC's data processing and validation procedures.
#
#######################################################################

data_XODQAJ
_symmetry_cell_setting           triclinic
_symmetry_space_group_name_H-M   'P -1'
_symmetry_Int_Tables_number      2
_space_group_name_Hall           '-P 1'
loop_
_symmetry_equiv_pos_site_id
_symmetry_equiv_pos_as_xyz
1 x,y,z
2 -x,-y,-z
_cell_length_a                   7.5971(15)
_cell_length_b                   12.149(2)
_cell_length_c                   14.206(3)
_cell_angle_alpha                69.11(3)
_cell_angle_beta                 86.42(3)
_cell_angle_gamma                85.62(3)
_cell_volume                     1220.54
loop_
_atom_site_label
_atom_site_type_symbol
_atom_site_fract_x
_atom_site_fract_y
_atom_site_fract_z
Cd1 Cd 0.51981(5) 0.15953(4) 0.42683(3)
Fe1 Fe 0.02871(10) -0.00881(7) 0.21484(6)
Fe2 Fe 0.60169(10) 0.60609(7) 0.12929(6)
N1 N 0.3255(6) 0.2944(4) 0.4618(4)
S1 S 0.25481(18) -0.00105(14) 0.48123(11)
S2 S 0.5282(2) 0.24973(15) 0.24256(12)
C1 C -0.2062(15) -0.0724(15) 0.2639(16)
H1 H -0.2921 -0.0443 0.3059
C2 C -0.199(2) -0.0357(12) 0.1690(18)
H2 H -0.2792 0.0245 0.1241
C3 C -0.068(3) -0.098(2) 0.1412(12)
H3 H -0.0353 -0.0925 0.0719
C4 C 0.0018(15) -0.1734(11) 0.223(2)
H4 H 0.0975 -0.2334 0.2267
C5 C -0.083(3) -0.1580(14) 0.2975(10)
H5 H -0.0611 -0.2031 0.3686
C6 C 0.2859(7) 0.0295(6) 0.1934(5)
H6 H 0.3853 -0.0199 0.1800
C7 C 0.1847(9) 0.1177(6) 0.1215(5)
H7 H 0.1990 0.1384 0.0483
C8 C 0.0574(8) 0.1695(5) 0.1710(5)
H8 H -0.0318 0.2321 0.1385
C9 C 0.0775(8) 0.1168(5) 0.2716(5)
H9 H 0.0069 0.1357 0.3246
C10 C 0.2215(7) 0.0290(5) 0.2870(4)
C11 C 0.2975(7) -0.0469(5) 0.3802(4)
C12 C 0.5025(10) 0.7069(7) 0.2088(6)
H10 H 0.5647 0.7248 0.2596
C13 C 0.4973(10) 0.7733(6) 0.1098(6)
H11 H 0.5563 0.8469 0.0757
C14 C 0.3945(9) 0.7176(7) 0.0649(6)
H12 H 0.3694 0.7458 -0.0070
C15 C 0.3337(8) 0.6146(7) 0.1373(7)
H13 H 0.2564 0.5596 0.1265
C16 C 0.4017(10) 0.6065(7) 0.2270(6)
H14 H 0.3804 0.5444 0.2926
C17 C 0.8435(7) 0.5316(5) 0.1809(5)
H15 H 0.8964 0.5339 0.2413
C18 C 0.8646(8) 0.6133(6) 0.0843(5)
H16 H 0.9352 0.6829 0.0637
C19 C 0.7651(8) 0.5776(6) 0.0225(5)
H17 H 0.7546 0.6183 -0.0503
C20 C 0.6858(7) 0.4738(5) 0.0793(4)
H18 H 0.6112 0.4294 0.0536
C21 C 0.7299(7) 0.4447(5) 0.1781(4)
C22 C 0.6632(7) 0.3471(5) 0.2625(4)
C23 C 0.3577(8) 0.3602(6) 0.5130(5)
H19 H 0.4689 0.3517 0.5395
C24 C 0.2361(8) 0.4418(6) 0.5301(5)
H20 H 0.2658 0.4864 0.5674
C25 C 0.0693(7) 0.4571(5) 0.4915(4)
C26 C 0.0367(8) 0.3897(6) 0.4365(5)
H21 H -0.0727 0.3969 0.4082
C27 C 0.1663(9) 0.3109(6) 0.4230(5)
H22 H 0.1415 0.2665 0.3845
O1 O 0.3925(6) -0.1354(4) 0.3873(4)
O2 O 0.7019(6) 0.3370(4) 0.3468(3)
Cd1A Cd -0.51981(5) 0.84047(4) 0.57317(3)
Cd1A_2 Cd 0.48019(5) -0.15953(4) 0.57317(3)
Fe1A Fe 0.97129(10) 0.00881(7) 0.78516(6)
Fe2A Fe -0.60169(10) 0.39391(7) 0.87071(6)
N1A N -0.3255(6) 0.7056(4) 0.5382(4)
S1A S 0.74519(18) 0.00105(14) 0.51877(11)
S1_2 S -0.74519(18) 0.99895(14) 0.48123(11)
S1A_2 S -0.25481(18) 1.00105(14) 0.51877(11)
S2A S -0.5282(2) 0.75027(15) 0.75744(12)
C1A C 1.2062(15) 0.0724(15) 0.7361(16)
H1A H 1.2921 0.0443 0.6941
C2A C 1.199(2) 0.0357(12) 0.8310(18)
H2A H 1.2792 -0.0245 0.8759
C3A C 1.068(3) 0.098(2) 0.8588(12)
H3A H 1.0353 0.0925 0.9281
C4A C 0.9982(15) 0.1734(11) 0.777(2)
H4A H 0.9025 0.2334 0.7733
C5A C 1.083(3) 0.1580(14) 0.7025(10)
H5A H 1.0611 0.2031 0.6314
C6A C 0.7141(7) -0.0295(6) 0.8066(5)
H6A H 0.6147 0.0199 0.8200
C7A C 0.8153(9) -0.1177(6) 0.8785(5)
H7A H 0.8010 -0.1384 0.9517
C8A C 0.9426(8) -0.1695(5) 0.8290(5)
H8A H 1.0318 -0.2321 0.8615
C9A C 0.9225(8) -0.1168(5) 0.7284(5)
H9A H 0.9931 -0.1357 0.6754
C10A C 0.7785(7) -0.0290(5) 0.7130(4)
C11A C 0.7025(7) 0.0469(5) 0.6198(4)
C12A C -0.5025(10) 0.2931(7) 0.7912(6)
H10A H -0.5647 0.2752 0.7404
C13A C -0.4973(10) 0.2267(6) 0.8902(6)
H11A H -0.5563 0.1531 0.9243
C14A C -0.3945(9) 0.2824(7) 0.9351(6)
H12A H -0.3694 0.2542 1.0070
C15A C -0.3337(8) 0.3854(7) 0.8627(7)
H13A H -0.2564 0.4404 0.8735
C16A C -0.4017(10) 0.3935(7) 0.7730(6)
H14A H -0.3804 0.4556 0.7074
C17A C -0.8435(7) 0.4684(5) 0.8191(5)
H15A H -0.8964 0.4661 0.7587
C18A C -0.8646(8) 0.3867(6) 0.9157(5)
H16A H -0.9352 0.3171 0.9363
C19A C -0.7651(8) 0.4224(6) 0.9775(5)
H17A H -0.7546 0.3817 1.0503
C20A C -0.6858(7) 0.5262(5) 0.9207(4)
H18A H -0.6112 0.5706 0.9464
C21A C -0.7299(7) 0.5553(5) 0.8219(4)
C22A C -0.6632(7) 0.6529(5) 0.7375(4)
C23A C -0.3577(8) 0.6398(6) 0.4870(5)
H19A H -0.4689 0.6483 0.4605
C24A C -0.2361(8) 0.5582(6) 0.4699(5)
H20A H -0.2658 0.5136 0.4326
C25A C -0.0693(7) 0.5429(5) 0.5085(4)
C26A C -0.0367(8) 0.6103(6) 0.5635(5)
H21A H 0.0727 0.6031 0.5918
C27A C -0.1663(9) 0.6891(6) 0.5770(5)
H22A H -0.1415 0.7335 0.6155
O1A O 0.6075(6) 0.1354(4) 0.6127(4)
O2A O -0.7019(6) 0.6630(4) 0.6532(3)
loop_
_geom_bond_atom_site_label_1
_geom_bond_atom_site_label_2
_geom_bond_site_symmetry_1
_geom_bond_site_symmetry_2
Cd1 N1 1_555 1_555
Fe1 C1 1_555 1_555
Fe2 C12 1_555 1_555
N1 C23 1_555 1_555
S1 Cd1 1_555 1_555
S2 Cd1 1_555 1_555
C1 H1 1_555 1_555
C2 Fe1 1_555 1_555
H2 C2 1_555 1_555
C3 Fe1 1_555 1_555
H3 C3 1_555 1_555
C4 Fe1 1_555 1_555
H4 C4 1_555 1_555
C5 Fe1 1_555 1_555
H5 C5 1_555 1_555
C6 Fe1 1_555 1_555
H6 C6 1_555 1_555
C7 Fe1 1_555 1_555
H7 C7 1_555 1_555
C8 Fe1 1_555 1_555
H8 C8 1_555 1_555
C9 Fe1 1_555 1_555
H9 C9 1_555 1_555
C10 Fe1 1_555 1_555
C11 S1 1_555 1_555
C12 H10 1_555 1_555
C13 Fe2 1_555 1_555
H11 C13 1_555 1_555
C14 Fe2 1_555 1_555
H12 C14 1_555 1_555
C15 Fe2 1_555 1_555
H13 C15 1_555 1_555
C16 Fe2 1_555 1_555
H14 C16 1_555 1_555
C17 Fe2 1_555 1_555
H15 C17 1_555 1_555
C18 Fe2 1_555 1_555
H16 C18 1_555 1_555
C19 Fe2 1_555 1_555
H17 C19 1_555 1_555
C20 Fe2 1_555 1_555
H18 C20 1_555 1_555
C21 Fe2 1_555 1_555
C22 S2 1_555 1_555
C23 H19 1_555 1_555
C24 C23 1_555 1_555
H20 C24 1_555 1_555
C25 C24 1_555 1_555
C26 C25 1_555 1_555
H21 C26 1_555 1_555
C27 N1 1_555 1_555
H22 C27 1_555 1_555
O1 C11 1_555 1_555
O2 Cd1 1_555 1_555
Cd1A N1A 1_555 1_555
Cd1A_2 S1 1_555 1_555
Fe1A C1A 1_555 1_555
Fe2A C12A 1_555 1_555
N1A C23A 1_555 1_555
S1A Cd1 1_555 1_555
S1_2 Cd1A 1_555 1_555
S1A_2 Cd1A 1_555 1_555
S2A Cd1A 1_555 1_555
C1A H1A 1_555 1_555
C2A Fe1A 1_555 1_555
H2A C2A 1_555 1_555
C3A Fe1A 1_555 1_555
H3A C3A 1_555 1_555
C4A Fe1A 1_555 1_555
H4A C4A 1_555 1_555
C5A Fe1A 1_555 1_555
H5A C5A 1_555 1_555
C6A Fe1A 1_555 1_555
H6A C6A 1_555 1_555
C7A Fe1A 1_555 1_555
H7A C7A 1_555 1_555
C8A Fe1A 1_555 1_555
H8A C8A 1_555 1_555
C9A Fe1A 1_555 1_555
H9A C9A 1_555 1_555
C10A Fe1A 1_555 1_555
C11A S1A 1_555 1_555
C12A H10A 1_555 1_555
C13A Fe2A 1_555 1_555
H11A C13A 1_555 1_555
C14A Fe2A 1_555 1_555
H12A C14A 1_555 1_555
C15A Fe2A 1_555 1_555
H13A C15A 1_555 1_555
C16A Fe2A 1_555 1_555
H14A C16A 1_555 1_555
C17A Fe2A 1_555 1_555
H15A C17A 1_555 1_555
C18A Fe2A 1_555 1_555
H16A C18A 1_555 1_555
C19A Fe2A 1_555 1_555
H17A C19A 1_555 1_555
C20A Fe2A 1_555 1_555
H18A C20A 1_555 1_555
C21A Fe2A 1_555 1_555
C22A S2A 1_555 1_555
C23A H19A 1_555 1_555
C24A C23A 1_555 1_555
H20A C24A 1_555 1_555
C25A C25 1_555 1_555
C26A C25A 1_555 1_555
H21A C26A 1_555 1_555
C27A N1A 1_555 1_555
H22A C27A 1_555 1_555
O1A C11A 1_555 1_555
O2A Cd1A 1_555 1_555
C1 C2 1_555 1_555
C1 C5 1_555 1_555
C2 C3 1_555 1_555
C3 C4 1_555 1_555
C4 C5 1_555 1_555
C6 C7 1_555 1_555
C6 C10 1_555 1_555
C7 C8 1_555 1_555
C8 C9 1_555 1_555
C9 C10 1_555 1_555
C10 C11 1_555 1_555
C12 C13 1_555 1_555
C12 C16 1_555 1_555
C13 C14 1_555 1_555
C14 C15 1_555 1_555
C15 C16 1_555 1_555
C17 C18 1_555 1_555
C17 C21 1_555 1_555
C18 C19 1_555 1_555
C19 C20 1_555 1_555
C20 C21 1_555 1_555
C21 C22 1_555 1_555
C22 O2 1_555 1_555
C26 C27 1_555 1_555
Cd1A_2 S1A 1_555 1_555
C1A C2A 1_555 1_555
C1A C5A 1_555 1_555
C2A C3A 1_555 1_555
C3A C4A 1_555 1_555
C4A C5A 1_555 1_555
C6A C7A 1_555 1_555
C6A C10A 1_555 1_555
C7A C8A 1_555 1_555
C8A C9A 1_555 1_555
C9A C10A 1_555 1_555
C10A C11A 1_555 1_555
C12A C13A 1_555 1_555
C12A C16A 1_555 1_555
C13A C14A 1_555 1_555
C14A C15A 1_555 1_555
C15A C16A 1_555 1_555
C17A C18A 1_555 1_555
C17A C21A 1_555 1_555
C18A C19A 1_555 1_555
C19A C20A 1_555 1_555
C20A C21A 1_555 1_555
C21A C22A 1_555 1_555
C22A O2A 1_555 1_555
C24A C25A 1_555 1_555
C26A C27A 1_555 1_555

#END
