
#######################################################################
#
#                 Cambridge Crystallographic Data Centre
#                                CCDC 
#
#######################################################################
#
# If this CIF has been generated from an entry in the Cambridge 
# Structural Database, then it will include bibliographic, chemical, 
# crystal, experimental, refinement or atomic coordinate data resulting 
# from the CCDC's data processing and validation procedures.
#
#######################################################################

data_XODQEN
_symmetry_cell_setting           orthorhombic
_symmetry_space_group_name_H-M   'P 21 21 2'
_symmetry_Int_Tables_number      18
_space_group_name_Hall           'P 2 2ab'
loop_
_symmetry_equiv_pos_site_id
_symmetry_equiv_pos_as_xyz
1 x,y,z
2 -x,-y,z
3 1/2-x,1/2+y,-z
4 1/2+x,1/2-y,-z
_cell_length_a                   12.220(2)
_cell_length_b                   12.723(3)
_cell_length_c                   10.670(2)
_cell_angle_alpha                90
_cell_angle_beta                 90
_cell_angle_gamma                90
_cell_volume                     1658.92
loop_
_atom_site_label
_atom_site_type_symbol
_atom_site_fract_x
_atom_site_fract_y
_atom_site_fract_z
Cd1 Cd 0.5000 1.0000 0.78099(6)
Fe1 Fe 0.78058(7) 1.06793(6) 0.35559(8)
S1 S 0.69917(13) 0.99016(14) 0.72142(18)
N1 N 0.4963(5) 0.8648(3) 0.9312(4)
O1 O 0.5841(5) 1.1357(4) 0.6147(6)
C1 C 0.7640(6) 0.9138(6) 0.3088(7)
H1 H 0.7927 0.8545 0.3574
C2 C 0.8201(6) 0.9660(5) 0.2129(8)
H2 H 0.8936 0.9499 0.1814
C3 C 0.7502(6) 1.0450(6) 0.1707(8)
H3 H 0.7672 1.0952 0.1038
C4 C 0.6524(7) 1.0410(6) 0.2367(8)
H4 H 0.5890 1.0870 0.2242
C5 C 0.6611(6) 0.9601(5) 0.3255(8)
H5 H 0.6047 0.9382 0.3854
C6 C 0.8675(5) 1.0755(5) 0.5196(7)
H6 H 0.8952 1.0160 0.5685
C7 C 0.9241(7) 1.1309(6) 0.4240(8)
H7 H 0.9981 1.1156 0.3935
C8 C 0.8567(7) 1.2088(6) 0.3815(9)
H8 H 0.8752 1.2581 0.3142
C9 C 0.7561(7) 1.2065(6) 0.4448(8)
H9 H 0.6944 1.2548 0.4333
C10 C 0.7633(5) 1.1239(5) 0.5314(6)
C11 C 0.6754(5) 1.0902(5) 0.6188(7)
C12 C 0.5777(6) 0.8455(5) 1.0081(6)
H10 H 0.6369 0.8914 1.0064
C13 C 0.5825(5) 0.7624(5) 1.0912(6)
H11 H 0.6442 0.7516 1.1407
C14 C 0.4930(6) 0.6950(3) 1.0994(5)
C15 C 0.4068(5) 0.7175(5) 1.0201(6)
H12 H 0.3453 0.6745 1.0217
C16 C 0.4090(5) 0.8011(5) 0.9390(6)
H13 H 0.3486 0.8139 0.8883
C17 C 0.4941(6) 0.6000(4) 1.1824(5)
H14 H 0.4283 0.5992 1.2333
H15 H 0.5566 0.6036 1.2382
C18 C 0.5000 0.5000 1.1062(8)
H16 H 0.435(4) 0.489(5) 1.070(5)
Cd1_2 Cd 0.5000 0.0000 0.78099(6)
Fe1A Fe 0.21942(7) 0.93207(6) 0.35559(8)
S1A S 0.30083(13) 1.00984(14) 0.72142(18)
N1A N 0.5037(5) 0.1352(3) 0.9312(4)
N1A_2 N 0.5037(5) 1.1352(3) 0.9312(4)
O1A O 0.4159(5) 0.8643(4) 0.6147(6)
C1A C 0.2360(6) 1.0862(6) 0.3088(7)
H1A H 0.2073 1.1455 0.3574
C2A C 0.1799(6) 1.0340(5) 0.2129(8)
H2A H 0.1064 1.0501 0.1814
C3A C 0.2498(6) 0.9550(6) 0.1707(8)
H3A H 0.2328 0.9048 0.1038
C4A C 0.3476(7) 0.9590(6) 0.2367(8)
H4A H 0.4110 0.9130 0.2242
C5A C 0.3389(6) 1.0399(5) 0.3255(8)
H5A H 0.3953 1.0618 0.3854
C6A C 0.1325(5) 0.9245(5) 0.5196(7)
H6A H 0.1048 0.9840 0.5685
C7A C 0.0759(7) 0.8691(6) 0.4240(8)
H7A H 0.0019 0.8844 0.3935
C8A C 0.1433(7) 0.7912(6) 0.3815(9)
H8A H 0.1248 0.7419 0.3142
C9A C 0.2439(7) 0.7935(6) 0.4448(8)
H9A H 0.3056 0.7452 0.4333
C10A C 0.2367(5) 0.8761(5) 0.5314(6)
C11A C 0.3246(5) 0.9098(5) 0.6188(7)
C12A C 0.4223(6) 0.1545(5) 1.0081(6)
H10A H 0.3631 0.1086 1.0064
C13A C 0.4175(5) 0.2376(5) 1.0912(6)
H11A H 0.3558 0.2484 1.1407
C14A C 0.5070(6) 0.3050(3) 1.0994(5)
C15A C 0.5932(5) 0.2825(5) 1.0201(6)
H12A H 0.6547 0.3255 1.0217
C16A C 0.5910(5) 0.1989(5) 0.9390(6)
H13A H 0.6514 0.1861 0.8883
C17A C 0.5059(6) 0.4000(4) 1.1824(5)
H14A H 0.5717 0.4008 1.2333
H15A H 0.4434 0.3964 1.2382
H16A H 0.565(4) 0.511(5) 1.070(5)
loop_
_geom_bond_atom_site_label_1
_geom_bond_atom_site_label_2
_geom_bond_site_symmetry_1
_geom_bond_site_symmetry_2
Cd1 S1 1_555 1_555
Fe1 C1 1_555 1_555
S1 C11 1_555 1_555
N1 Cd1 1_555 1_555
O1 Cd1 1_555 1_555
C1 H1 1_555 1_555
C2 Fe1 1_555 1_555
H2 C2 1_555 1_555
C3 Fe1 1_555 1_555
H3 C3 1_555 1_555
C4 Fe1 1_555 1_555
H4 C4 1_555 1_555
C5 Fe1 1_555 1_555
H5 C5 1_555 1_555
C6 Fe1 1_555 1_555
H6 C6 1_555 1_555
C7 Fe1 1_555 1_555
H7 C7 1_555 1_555
C8 Fe1 1_555 1_555
H8 C8 1_555 1_555
C9 Fe1 1_555 1_555
H9 C9 1_555 1_555
C10 Fe1 1_555 1_555
C11 O1 1_555 1_555
C12 N1 1_555 1_555
H10 C12 1_555 1_555
C13 C12 1_555 1_555
H11 C13 1_555 1_555
C14 C13 1_555 1_555
C15 C14 1_555 1_555
H12 C15 1_555 1_555
C16 N1 1_555 1_555
H13 C16 1_555 1_555
C17 C14 1_555 1_555
H14 C17 1_555 1_555
H15 C17 1_555 1_555
C18 C17 1_555 1_555
H16 C18 1_555 1_555
Cd1_2 N1A 1_555 1_555
Fe1A C1A 1_555 1_555
S1A Cd1 1_555 1_555
N1A C12A 1_555 1_555
N1A_2 Cd1 1_555 1_555
O1A Cd1 1_555 1_555
C1A H1A 1_555 1_555
C2A Fe1A 1_555 1_555
H2A C2A 1_555 1_555
C3A Fe1A 1_555 1_555
H3A C3A 1_555 1_555
C4A Fe1A 1_555 1_555
H4A C4A 1_555 1_555
C5A Fe1A 1_555 1_555
H5A C5A 1_555 1_555
C6A Fe1A 1_555 1_555
H6A C6A 1_555 1_555
C7A Fe1A 1_555 1_555
H7A C7A 1_555 1_555
C8A Fe1A 1_555 1_555
H8A C8A 1_555 1_555
C9A Fe1A 1_555 1_555
H9A C9A 1_555 1_555
C10A Fe1A 1_555 1_555
C11A S1A 1_555 1_555
C12A H10A 1_555 1_555
C13A C12A 1_555 1_555
H11A C13A 1_555 1_555
C14A C13A 1_555 1_555
C15A C14A 1_555 1_555
H12A C15A 1_555 1_555
C16A N1A 1_555 1_555
H13A C16A 1_555 1_555
C17A C18 1_555 1_555
H14A C17A 1_555 1_555
H15A C17A 1_555 1_555
H16A C18 1_555 1_555
C1 C2 1_555 1_555
C1 C5 1_555 1_555
C2 C3 1_555 1_555
C3 C4 1_555 1_555
C4 C5 1_555 1_555
C6 C7 1_555 1_555
C6 C10 1_555 1_555
C7 C8 1_555 1_555
C8 C9 1_555 1_555
C9 C10 1_555 1_555
C10 C11 1_555 1_555
C15 C16 1_555 1_555
O1A C11A 1_555 1_555
C1A C2A 1_555 1_555
C1A C5A 1_555 1_555
C2A C3A 1_555 1_555
C3A C4A 1_555 1_555
C4A C5A 1_555 1_555
C6A C7A 1_555 1_555
C6A C10A 1_555 1_555
C7A C8A 1_555 1_555
C8A C9A 1_555 1_555
C9A C10A 1_555 1_555
C10A C11A 1_555 1_555
C14A C17A 1_555 1_555
C15A C16A 1_555 1_555

#END
