
#######################################################################
#
#                 Cambridge Crystallographic Data Centre
#                                CCDC 
#
#######################################################################
#
# If this CIF has been generated from an entry in the Cambridge 
# Structural Database, then it will include bibliographic, chemical, 
# crystal, experimental, refinement or atomic coordinate data resulting 
# from the CCDC's data processing and validation procedures.
#
#######################################################################

data_XODRIR
_symmetry_cell_setting           triclinic
_symmetry_space_group_name_H-M   'P -1'
_symmetry_Int_Tables_number      2
_space_group_name_Hall           '-P 1'
loop_
_symmetry_equiv_pos_site_id
_symmetry_equiv_pos_as_xyz
1 x,y,z
2 -x,-y,-z
_cell_length_a                   7.9063(3)
_cell_length_b                   10.2201(4)
_cell_length_c                   12.1336(5)
_cell_angle_alpha                113.4652(7)
_cell_angle_beta                 95.7231(7)
_cell_angle_gamma                94.4447(7)
_cell_volume                     887.462
loop_
_atom_site_label
_atom_site_type_symbol
_atom_site_fract_x
_atom_site_fract_y
_atom_site_fract_z
V1 V -0.50456(5) 0.23104(4) 0.68868(3)
V2 V 0.05923(5) 0.14390(4) 0.37062(3)
P1 P -0.23977(7) 0.05627(6) 0.50890(5)
O1 O -0.3771(2) 0.15739(18) 0.55160(14)
O2 O -0.0848(2) 0.14108(18) 0.49111(15)
O3 O -0.1827(2) 0.0018(2) 0.60535(15)
O4 O -0.3167(2) -0.06865(19) 0.38902(15)
O5 O -0.3537(2) 0.2515(2) 0.79720(16)
O6 O -0.5228(2) 0.3877(2) 0.68738(17)
O7 O 0.1397(3) 0.3114(2) 0.43463(18)
O8 O -0.0913(2) 0.1211(2) 0.26150(17)
N1 N -0.6797(2) 0.2762(2) 0.82886(17)
N2 N -1.1726(3) 0.4533(3) 1.3076(2)
N3 N 0.2347(2) 0.0997(2) 0.23280(17)
C1 C -0.8507(3) 0.2496(3) 0.8049(2)
C2 C -0.6106(3) 0.3409(3) 0.9465(2)
C3 C -0.9560(3) 0.2851(3) 0.8954(2)
C4 C -0.8833(3) 0.3535(3) 1.0168(2)
C5 C -0.7054(3) 0.3824(3) 1.0410(2)
C6 C -0.9877(3) 0.3918(3) 1.1177(2)
C7 C -1.1598(3) 0.3375(3) 1.0986(3)
C8 C -1.2493(4) 0.3692(4) 1.1959(3)
C9 C -1.0097(4) 0.5104(4) 1.3298(3)
C10 C -0.9138(4) 0.4806(3) 1.2360(2)
C11 C 0.3991(3) 0.0846(3) 0.2561(2)
C12 C 0.1763(3) 0.0800(3) 0.1188(2)
C13 C 0.5074(3) 0.0468(3) 0.1684(2)
C14 C 0.2751(3) 0.0415(3) 0.0261(2)
C15 C 0.4453(3) 0.0222(3) 0.0489(2)
H1 H -0.9100 0.2036 0.7205
H2 H -0.4837 0.3452 0.9441
H3 H -1.0768 0.2661 0.8657
H4 H -1.2206 0.2733 1.0203
H5 H -1.3727 0.3275 1.1786
H6 H -0.7970 0.5217 1.2633
H7 H 0.4504 0.1022 0.3423
H8 H 0.0616 0.1100 0.1122
H9 H 0.6259 0.0369 0.1994
H10 H -0.6550 0.4203 1.1254
H11 H 0.2190 0.0294 -0.0543
H12 H -0.9546 0.5734 1.4168
H13 H -1.2444 0.4914 1.3824
C15A C 0.5547(3) -0.0222(3) -0.0489(2)
C13A C 0.4926(3) -0.0468(3) -0.1684(2)
C11A C 0.6009(3) -0.0846(3) -0.2561(2)
N3A N 0.7653(2) -0.0997(2) -0.23280(17)
C12A C 0.8237(3) -0.0800(3) -0.1188(2)
C14A C 0.7249(3) -0.0415(3) -0.0261(2)
H11A H 0.7810 -0.0294 0.0543
H8A H 0.9384 -0.1100 -0.1122
H7A H 0.5496 -0.1022 -0.3423
H9A H 0.3741 -0.0369 -0.1994
P1A P -0.76023(7) -0.05627(6) 0.49110(5)
O1A O -0.6229(2) -0.15739(18) 0.44840(14)
O2A O -0.9152(2) -0.14108(18) 0.50889(15)
O3A O -0.8173(2) -0.0018(2) 0.39465(15)
O4A O -0.6833(2) 0.06865(19) 0.61098(15)
V1A V -0.49544(5) -0.23104(4) 0.31132(3)
V2A V -1.05923(5) -0.14390(4) 0.62938(3)
O5A O -0.6463(2) -0.2515(2) 0.20280(16)
O6A O -0.4772(2) -0.3877(2) 0.31262(17)
N1A N -0.3203(2) -0.2762(2) 0.17114(17)
N2A N 0.1726(3) -0.4533(3) -0.3076(2)
C1A C -0.1493(3) -0.2496(3) 0.1951(2)
C2A C -0.3894(3) -0.3409(3) 0.0535(2)
C3A C -0.0440(3) -0.2851(3) 0.1046(2)
C4A C -0.1167(3) -0.3535(3) -0.0168(2)
C5A C -0.2946(3) -0.3824(3) -0.0410(2)
C6A C -0.0123(3) -0.3918(3) -0.1177(2)
C7A C 0.1598(3) -0.3375(3) -0.0986(3)
C8A C 0.2493(4) -0.3692(4) -0.1959(3)
C9A C 0.0097(4) -0.5104(4) -0.3298(3)
C10A C -0.0862(4) -0.4806(3) -0.2360(2)
H1A H -0.0900 -0.2036 0.2795
H2A H -0.5163 -0.3452 0.0559
H3A H 0.0768 -0.2661 0.1343
H4A H 0.2206 -0.2733 -0.0203
H5A H 0.3727 -0.3275 -0.1786
H6A H -0.2030 -0.5217 -0.2633
H10A H -0.3450 -0.4203 -0.1254
H12A H -0.0454 -0.5734 -0.4168
H13A H 0.2444 -0.4914 -0.3824
O7A O -1.1397(3) -0.3114(2) 0.56537(18)
O8A O -0.9087(2) -0.1211(2) 0.73850(17)
O3A_2 O 0.1827(2) -0.0018(2) 0.39465(15)
V2A_2 V -0.05923(5) -0.14390(4) 0.62938(3)
V2A_3 V 0.94077(5) -0.14390(4) -0.37062(3)
V2_2 V -0.94077(5) 0.14390(4) 0.37062(3)
O3_2 O -1.1827(2) 0.0018(2) 0.60535(15)
N3A_2 N -1.2347(2) -0.0997(2) 0.76720(17)
O9 O -0.3677(4) 0.3943(3) 0.4655(3)
H14 H -0.4569 0.3634 0.4191
H15 H -0.3732 0.4783 0.4994
loop_
_geom_bond_atom_site_label_1
_geom_bond_atom_site_label_2
_geom_bond_site_symmetry_1
_geom_bond_site_symmetry_2
V1 O1 1_555 1_555
V2 O2 1_555 1_555
P1 O1 1_555 1_555
O2 P1 1_555 1_555
O3 P1 1_555 1_555
O4 P1 1_555 1_555
O5 V1 1_555 1_555
O6 V1 1_555 1_555
O7 V2 1_555 1_555
O8 V2 1_555 1_555
O9 H14 1_555 1_555
N1 V1 1_555 1_555
N2 C8 1_555 1_555
N3 V2 1_555 1_555
C1 N1 1_555 1_555
C2 N1 1_555 1_555
C3 C1 1_555 1_555
C4 C3 1_555 1_555
C5 C2 1_555 1_555
C6 C4 1_555 1_555
C7 C6 1_555 1_555
C8 C7 1_555 1_555
C9 N2 1_555 1_555
C10 C6 1_555 1_555
C11 N3 1_555 1_555
C12 N3 1_555 1_555
C13 C11 1_555 1_555
C14 C12 1_555 1_555
C15 C13 1_555 1_555
H1 C1 1_555 1_555
H2 C2 1_555 1_555
H3 C3 1_555 1_555
H4 C7 1_555 1_555
H5 C8 1_555 1_555
H6 C10 1_555 1_555
H7 C11 1_555 1_555
H8 C12 1_555 1_555
H9 C13 1_555 1_555
H10 C5 1_555 1_555
H11 C14 1_555 1_555
H12 C9 1_555 1_555
H13 N2 1_555 1_555
H15 O9 1_555 1_555
C15A C15 1_555 1_555
C13A C15A 1_555 1_555
C11A C13A 1_555 1_555
N3A C11A 1_555 1_555
C12A N3A 1_555 1_555
C14A C15A 1_555 1_555
H11A C14A 1_555 1_555
H8A C12A 1_555 1_555
H7A C11A 1_555 1_555
H9A C13A 1_555 1_555
P1A O1A 1_555 1_555
O1A V1A 1_555 1_555
O2A P1A 1_555 1_555
O3A P1A 1_555 1_555
O4A V1 1_555 1_555
V1A O4 1_555 1_555
V2A O2A 1_555 1_555
O5A V1A 1_555 1_555
O6A V1A 1_555 1_555
N1A V1A 1_555 1_555
N2A C8A 1_555 1_555
C1A N1A 1_555 1_555
C2A N1A 1_555 1_555
C3A C1A 1_555 1_555
C4A C3A 1_555 1_555
C5A C2A 1_555 1_555
C6A C4A 1_555 1_555
C7A C6A 1_555 1_555
C8A C7A 1_555 1_555
C9A N2A 1_555 1_555
C10A C6A 1_555 1_555
H1A C1A 1_555 1_555
H2A C2A 1_555 1_555
H3A C3A 1_555 1_555
H4A C7A 1_555 1_555
H5A C8A 1_555 1_555
H6A C10A 1_555 1_555
H10A C5A 1_555 1_555
H12A C9A 1_555 1_555
H13A N2A 1_555 1_555
O7A V2A 1_555 1_555
O8A V2A 1_555 1_555
O3A_2 V2 1_555 1_555
V2A_2 O3 1_555 1_555
V2A_3 N3A 1_555 1_555
V2_2 O3A 1_555 1_555
O3_2 V2A 1_555 1_555
N3A_2 V2A 1_555 1_555
C4 C5 1_555 1_555
C9 C10 1_555 1_555
C14 C15 1_555 1_555
C12A C14A 1_555 1_555
P1A O4A 1_555 1_555
C4A C5A 1_555 1_555
C9A C10A 1_555 1_555

#END
