
#######################################################################
#
#                 Cambridge Crystallographic Data Centre
#                                CCDC 
#
#######################################################################
#
# If this CIF has been generated from an entry in the Cambridge 
# Structural Database, then it will include bibliographic, chemical, 
# crystal, experimental, refinement or atomic coordinate data resulting 
# from the CCDC's data processing and validation procedures.
#
#######################################################################

data_XODROX
_symmetry_cell_setting           triclinic
_symmetry_space_group_name_H-M   'P -1'
_symmetry_Int_Tables_number      2
_space_group_name_Hall           '-P 1'
loop_
_symmetry_equiv_pos_site_id
_symmetry_equiv_pos_as_xyz
1 x,y,z
2 -x,-y,-z
_cell_length_a                   7.8843(6)
_cell_length_b                   10.3686(7)
_cell_length_c                   12.2606(9)
_cell_angle_alpha                113.4640(10)
_cell_angle_beta                 95.5600(10)
_cell_angle_gamma                94.5850(10)
_cell_volume                     907.346
loop_
_atom_site_label
_atom_site_type_symbol
_atom_site_fract_x
_atom_site_fract_y
_atom_site_fract_z
V1 V -0.50851(4) 0.23661(4) 0.69348(3)
V2 V 0.06511(5) 0.15091(4) 0.37045(3)
As1 As -0.23884(3) 0.05803(2) 0.509242(18)
O1 O -0.3937(2) 0.16437(18) 0.55002(14)
O2 O -0.0643(2) 0.15393(17) 0.49891(14)
O3 O -0.1840(2) -0.00038(19) 0.61484(15)
O4 O -0.3146(2) -0.07406(18) 0.37559(14)
O5 O -0.3515(2) 0.2570(2) 0.79733(15)
O6 O -0.5301(2) 0.39052(19) 0.69236(16)
O7 O 0.1511(3) 0.3155(2) 0.43269(17)
O8 O -0.0907(2) 0.1291(2) 0.26589(16)
N1 N -0.6792(2) 0.2804(2) 0.83517(17)
N2 N -1.1728(3) 0.4513(3) 1.3097(2)
N3 N 0.2354(2) 0.1043(2) 0.23099(16)
C1 C -0.8511(3) 0.2557(3) 0.8121(2)
C2 C -0.6089(3) 0.3432(3) 0.9513(2)
C3 C -0.9560(3) 0.2899(3) 0.9017(2)
C4 C -0.8819(3) 0.3562(2) 1.0219(2)
C5 C -0.7029(3) 0.3828(3) 1.0450(2)
C6 C -0.9861(3) 0.3933(2) 1.1222(2)
C7 C -1.1587(3) 0.3370(3) 1.1029(2)
C8 C -1.2483(4) 0.3669(4) 1.1993(3)
C9 C -1.0101(4) 0.5104(3) 1.3318(2)
C10 C -0.9138(4) 0.4823(3) 1.2387(2)
C11 C 0.4001(3) 0.0865(3) 0.2534(2)
C12 C 0.1767(3) 0.0833(3) 0.1182(2)
C13 C 0.5075(3) 0.0471(3) 0.1664(2)
C14 C 0.2750(3) 0.0434(3) 0.0261(2)
C15 C 0.4455(3) 0.0224(3) 0.04845(19)
H1 H -0.9100 0.2036 0.7205
H2 H -0.4837 0.3452 0.9441
H3 H -1.0768 0.2661 0.8657
H4 H -1.2206 0.2733 1.0203
H5 H -1.3727 0.3275 1.1786
H6 H -0.7970 0.5217 1.2633
H7 H 0.4504 0.1022 0.3423
H8 H 0.0616 0.1100 0.1122
H9 H 0.6259 0.0369 0.1994
H10 H -0.6550 0.4203 1.1254
H11 H 0.2190 0.0294 -0.0543
H12 H -0.9546 0.5734 1.4168
H13 H -1.2444 0.4914 1.3824
C15A C 0.5545(3) -0.0224(3) -0.04845(19)
C13A C 0.4925(3) -0.0471(3) -0.1664(2)
C11A C 0.5999(3) -0.0865(3) -0.2534(2)
N3A N 0.7646(2) -0.1043(2) -0.23099(16)
C12A C 0.8233(3) -0.0833(3) -0.1182(2)
C14A C 0.7250(3) -0.0434(3) -0.0261(2)
H11A H 0.7810 -0.0294 0.0543
H8A H 0.9384 -0.1100 -0.1122
H7A H 0.5496 -0.1022 -0.3423
H9A H 0.3741 -0.0369 -0.1994
As1A As -0.76116(3) -0.05803(2) 0.490758(18)
O1A O -0.6063(2) -0.16437(18) 0.44998(14)
O2A O -0.9357(2) -0.15393(17) 0.50109(14)
O3A O -0.8160(2) 0.00038(19) 0.38516(15)
O4A O -0.6854(2) 0.07406(18) 0.62441(14)
V1A V -0.49149(4) -0.23661(4) 0.30652(3)
V2A V -1.06511(5) -0.15091(4) 0.62955(3)
O5A O -0.6485(2) -0.2570(2) 0.20267(15)
O6A O -0.4699(2) -0.39052(19) 0.30764(16)
N1A N -0.3208(2) -0.2804(2) 0.16483(17)
N2A N 0.1728(3) -0.4513(3) -0.3097(2)
C1A C -0.1489(3) -0.2557(3) 0.1879(2)
C2A C -0.3911(3) -0.3432(3) 0.0487(2)
C3A C -0.0440(3) -0.2899(3) 0.0983(2)
C4A C -0.1181(3) -0.3562(2) -0.0219(2)
C5A C -0.2971(3) -0.3828(3) -0.0450(2)
C6A C -0.0139(3) -0.3933(2) -0.1222(2)
C7A C 0.1587(3) -0.3370(3) -0.1029(2)
C8A C 0.2483(4) -0.3669(4) -0.1993(3)
C9A C 0.0101(4) -0.5104(3) -0.3318(2)
C10A C -0.0862(4) -0.4823(3) -0.2387(2)
H1A H -0.0900 -0.2036 0.2795
H2A H -0.5163 -0.3452 0.0559
H3A H 0.0768 -0.2661 0.1343
H4A H 0.2206 -0.2733 -0.0203
H5A H 0.3727 -0.3275 -0.1786
H6A H -0.2030 -0.5217 -0.2633
H10A H -0.3450 -0.4203 -0.1254
H12A H -0.0454 -0.5734 -0.4168
H13A H 0.2444 -0.4914 -0.3824
O7A O -1.1511(3) -0.3155(2) 0.56731(17)
O8A O -0.9093(2) -0.1291(2) 0.73411(16)
O3A_2 O 0.1840(2) 0.00038(19) 0.38516(15)
V2A_2 V -0.06511(5) -0.15091(4) 0.62955(3)
V2A_3 V 0.93489(5) -0.15091(4) -0.37045(3)
V2_2 V -0.93489(5) 0.15091(4) 0.37045(3)
O3_2 O -1.1840(2) -0.00038(19) 0.61484(15)
N3A_2 N -1.2354(2) -0.1043(2) 0.76901(16)
O9 O -0.3772(4) 0.3939(3) 0.4638(3)
H14 H -0.4569 0.3634 0.4191
H15 H -0.3732 0.4783 0.4994
loop_
_geom_bond_atom_site_label_1
_geom_bond_atom_site_label_2
_geom_bond_site_symmetry_1
_geom_bond_site_symmetry_2
V1 O1 1_555 1_555
V2 O2 1_555 1_555
As1 O1 1_555 1_555
O2 As1 1_555 1_555
O3 As1 1_555 1_555
O4 As1 1_555 1_555
O5 V1 1_555 1_555
O6 V1 1_555 1_555
O7 V2 1_555 1_555
O8 V2 1_555 1_555
O9 H14 1_555 1_555
N1 V1 1_555 1_555
N2 C8 1_555 1_555
N3 V2 1_555 1_555
C1 N1 1_555 1_555
C2 N1 1_555 1_555
C3 C1 1_555 1_555
C4 C3 1_555 1_555
C5 C2 1_555 1_555
C6 C4 1_555 1_555
C7 C6 1_555 1_555
C8 C7 1_555 1_555
C9 N2 1_555 1_555
C10 C6 1_555 1_555
C11 N3 1_555 1_555
C12 N3 1_555 1_555
C13 C11 1_555 1_555
C14 C12 1_555 1_555
C15 C13 1_555 1_555
H1 C1 1_555 1_555
H2 C2 1_555 1_555
H3 C3 1_555 1_555
H4 C7 1_555 1_555
H5 C8 1_555 1_555
H6 C10 1_555 1_555
H7 C11 1_555 1_555
H8 C12 1_555 1_555
H9 C13 1_555 1_555
H10 C5 1_555 1_555
H11 C14 1_555 1_555
H12 C9 1_555 1_555
H13 N2 1_555 1_555
H15 O9 1_555 1_555
C15A C15 1_555 1_555
C13A C15A 1_555 1_555
C11A C13A 1_555 1_555
N3A C11A 1_555 1_555
C12A N3A 1_555 1_555
C14A C15A 1_555 1_555
H11A C14A 1_555 1_555
H8A C12A 1_555 1_555
H7A C11A 1_555 1_555
H9A C13A 1_555 1_555
As1A O1A 1_555 1_555
O1A V1A 1_555 1_555
O2A As1A 1_555 1_555
O3A As1A 1_555 1_555
O4A V1 1_555 1_555
V1A O4 1_555 1_555
V2A O2A 1_555 1_555
O5A V1A 1_555 1_555
O6A V1A 1_555 1_555
N1A V1A 1_555 1_555
N2A C8A 1_555 1_555
C1A N1A 1_555 1_555
C2A N1A 1_555 1_555
C3A C1A 1_555 1_555
C4A C3A 1_555 1_555
C5A C2A 1_555 1_555
C6A C4A 1_555 1_555
C7A C6A 1_555 1_555
C8A C7A 1_555 1_555
C9A N2A 1_555 1_555
C10A C6A 1_555 1_555
H1A C1A 1_555 1_555
H2A C2A 1_555 1_555
H3A C3A 1_555 1_555
H4A C7A 1_555 1_555
H5A C8A 1_555 1_555
H6A C10A 1_555 1_555
H10A C5A 1_555 1_555
H12A C9A 1_555 1_555
H13A N2A 1_555 1_555
O7A V2A 1_555 1_555
O8A V2A 1_555 1_555
O3A_2 V2 1_555 1_555
V2A_2 O3 1_555 1_555
V2A_3 N3A 1_555 1_555
V2_2 O3A 1_555 1_555
O3_2 V2A 1_555 1_555
N3A_2 V2A 1_555 1_555
C4 C5 1_555 1_555
C9 C10 1_555 1_555
C14 C15 1_555 1_555
C12A C14A 1_555 1_555
As1A O4A 1_555 1_555
C4A C5A 1_555 1_555
C9A C10A 1_555 1_555

#END
