
#######################################################################
#
#                 Cambridge Crystallographic Data Centre
#                                CCDC 
#
#######################################################################
#
# If this CIF has been generated from an entry in the Cambridge 
# Structural Database, then it will include bibliographic, chemical, 
# crystal, experimental, refinement or atomic coordinate data resulting 
# from the CCDC's data processing and validation procedures.
#
#######################################################################

data_XODRUD
_symmetry_cell_setting           monoclinic
_symmetry_space_group_name_H-M   'P 21/c'
_symmetry_Int_Tables_number      14
_space_group_name_Hall           '-P 2ybc'
loop_
_symmetry_equiv_pos_site_id
_symmetry_equiv_pos_as_xyz
1 x,y,z
2 x,1/2-y,1/2+z
3 -x,-y,-z
4 -x,1/2+y,1/2-z
_cell_length_a                   16.0051(16)
_cell_length_b                   6.1422(11)
_cell_length_c                   14.728(3)
_cell_angle_alpha                90
_cell_angle_beta                 101.02(3)
_cell_angle_gamma                90
_cell_volume                     1421.16
loop_
_atom_site_label
_atom_site_type_symbol
_atom_site_fract_x
_atom_site_fract_y
_atom_site_fract_z
V1 V 0.163199(19) 0.07399(5) 0.15562(2)
S1 S 0.15090(3) -0.15230(10) 0.02285(4)
S2 S 0.25308(4) -0.52368(10) -0.01491(4)
Na1 Na 0.04025(5) -0.32355(13) -0.16597(5)
O1 O 0.07967(9) 0.2096(3) 0.10105(10)
O2 O 0.13381(10) -0.0778(3) 0.23320(11)
O3 O 0.22025(9) 0.3171(2) 0.22097(10)
O4 O 0.03284(12) -0.6569(3) -0.08541(12)
O5 O 0.06854(12) 0.0316(3) -0.21260(12)
N1 N 0.29208(10) -0.0485(2) 0.16347(11)
N2 N 0.30945(11) -0.2365(3) 0.11553(12)
C1 C 0.24627(13) -0.2928(3) 0.05213(14)
C2 C 0.35791(19) -0.6215(5) 0.03194(19)
C3 C 0.35873(12) 0.0157(3) 0.22105(14)
C4 C 0.36444(12) 0.2093(3) 0.27630(13)
C5 C 0.29541(12) 0.3523(3) 0.27384(13)
C6 C 0.30806(16) 0.5429(4) 0.32744(16)
C7 C 0.38677(17) 0.5906(4) 0.37908(16)
C8 C 0.45596(15) 0.4519(4) 0.38021(15)
C9 C 0.44462(13) 0.2621(4) 0.33007(15)
H1 H 0.4112(16) -0.060(4) 0.2270(17)
H2 H 0.2629(17) 0.640(5) 0.3234(18)
H3 H 0.3919(18) 0.729(5) 0.411(2)
H4 H 0.514(2) 0.483(5) 0.415(2)
H5 H 0.4911(15) 0.162(4) 0.3283(16)
H6 H 0.396(2) -0.526(6) 0.009(2)
H7 H 0.373(2) -0.629(5) 0.103(3)
H8 H 0.367(2) -0.749(6) 0.011(2)
H9 H -0.012(2) -0.684(6) -0.082(2)
H10 H 0.0585(19) -0.701(5) -0.034(2)
H11 H 0.0682(19) 0.110(5) -0.171(2)
H12 H 0.108(2) 0.043(6) -0.222(2)
O1B O -0.07967(9) -0.2096(3) -0.10105(10)
O2A O 0.13381(10) -0.4222(3) -0.26680(11)
O5C O -0.06854(12) -0.4684(3) -0.28740(12)
Na1B Na -0.04025(5) 0.32355(13) 0.16597(5)
Na1A Na 0.04025(5) -0.17645(13) 0.33403(5)
Na1C Na -0.04025(5) 0.17645(13) -0.33403(5)
H11C H -0.0682(19) -0.390(5) -0.329(2)
H12C H -0.108(2) -0.457(6) -0.278(2)
loop_
_geom_bond_atom_site_label_1
_geom_bond_atom_site_label_2
_geom_bond_site_symmetry_1
_geom_bond_site_symmetry_2
V1 S1 1_555 1_555
S1 Na1 1_555 1_555
S2 C1 1_555 1_555
Na1 O4 1_555 1_555
O1 V1 1_555 1_555
O2 V1 1_555 1_555
O3 V1 1_555 1_555
O4 H9 1_555 1_555
O5 Na1 1_555 1_555
N1 V1 1_555 1_555
N2 N1 1_555 1_555
C1 S1 1_555 1_555
C2 S2 1_555 1_555
C3 N1 1_555 1_555
C4 C3 1_555 1_555
C5 O3 1_555 1_555
C6 C5 1_555 1_555
C7 C6 1_555 1_555
C8 C7 1_555 1_555
C9 C4 1_555 1_555
H1 C3 1_555 1_555
H2 C6 1_555 1_555
H3 C7 1_555 1_555
H4 C8 1_555 1_555
H5 C9 1_555 1_555
H6 C2 1_555 1_555
H7 C2 1_555 1_555
H8 C2 1_555 1_555
H10 O4 1_555 1_555
H11 O5 1_555 1_555
H12 O5 1_555 1_555
O1B Na1 1_555 1_555
O2A Na1 1_555 1_555
O5C Na1 1_555 1_555
Na1B O1 1_555 1_555
Na1A O2 1_555 1_555
Na1C O5 1_555 1_555
H11C O5C 1_555 1_555
H12C O5C 1_555 1_555
N2 C1 1_555 1_555
C4 C5 1_555 1_555
C8 C9 1_555 1_555

#END
