
#######################################################################
#
#                 Cambridge Crystallographic Data Centre
#                                CCDC 
#
#######################################################################
#
# If this CIF has been generated from an entry in the Cambridge 
# Structural Database, then it will include bibliographic, chemical, 
# crystal, experimental, refinement or atomic coordinate data resulting 
# from the CCDC's data processing and validation procedures.
#
#######################################################################

data_XODSUF
_symmetry_cell_setting           orthorhombic
_symmetry_space_group_name_H-M   'P n n m'
_symmetry_Int_Tables_number      58
_space_group_name_Hall           '-P 2 2n'
loop_
_symmetry_equiv_pos_site_id
_symmetry_equiv_pos_as_xyz
1 x,y,z
2 -x,-y,z
3 1/2+x,1/2-y,1/2-z
4 1/2-x,1/2+y,1/2-z
5 -x,-y,-z
6 x,y,-z
7 1/2-x,1/2+y,1/2+z
8 1/2+x,1/2-y,1/2+z
_cell_length_a                   17.992(3)
_cell_length_b                   7.6710(12)
_cell_length_c                   11.3090(18)
_cell_angle_alpha                90
_cell_angle_beta                 90
_cell_angle_gamma                90
_cell_volume                     1560.83
loop_
_atom_site_label
_atom_site_type_symbol
_atom_site_fract_x
_atom_site_fract_y
_atom_site_fract_z
Cu1 Cu 0.0000 0.0000 0.0000
Cl1 Cl 0.08748(4) 0.30694(9) 0.0000
N1 N 0.06284(10) -0.1135(2) 0.12720(16)
N2 N 0.12371(10) -0.3036(2) 0.23650(16)
C1 C 0.07542(12) -0.2805(3) 0.14724(19)
H1 H 0.0531 -0.3728 0.1039
C2 C 0.12196(13) -0.5334(3) 0.3930(2)
C3 C 0.14339(14) -0.1410(3) 0.2765(2)
H2 H 0.1767 -0.1148 0.3392
C4 C 0.10590(13) -0.0256(3) 0.2087(2)
H3 H 0.1088 0.0976 0.2160
C5 C 0.06308(13) -0.6511(3) 0.3941(2)
H4 H 0.0424 -0.6902 0.3215
C6 C 0.15158(18) -0.4749(4) 0.5000
H5 H 0.1920 -0.3951 0.5000
C7 C 0.0344(2) -0.7118(5) 0.5000
H6 H -0.0048 -0.7947 0.5000
C8 C 0.15391(14) -0.4718(3) 0.2772(2)
H7 H 0.2085 -0.4610 0.2856
H8 H 0.1440 -0.5612 0.2160
Cu1_2 Cu 0.0000 0.0000 1.0000
Cu1_3 Cu 0.0000 0.0000 -1.0000
Cl1D Cl -0.08748(4) -0.30694(9) 0.0000
N1E N 0.06284(10) -0.1135(2) 0.87280(16)
N1E_2 N 0.06284(10) -0.1135(2) -0.12720(16)
N1_2 N 0.06284(10) -0.1135(2) -0.87280(16)
N1D N -0.06284(10) 0.1135(2) -0.12720(16)
N1A N -0.06284(10) 0.1135(2) 0.12720(16)
N2E N 0.12371(10) -0.3036(2) 0.76350(16)
N2E_2 N 0.12371(10) -0.3036(2) -0.23650(16)
N2_2 N 0.12371(10) -0.3036(2) -0.76350(16)
C1E C 0.07542(12) -0.2805(3) 0.85276(19)
C1E_2 C 0.07542(12) -0.2805(3) -0.14724(19)
C1_2 C 0.07542(12) -0.2805(3) -0.85276(19)
H1E H 0.0531 -0.3728 0.8961
H1E_2 H 0.0531 -0.3728 -0.1039
H1_2 H 0.0531 -0.3728 -0.8961
C2E C 0.12196(13) -0.5334(3) 0.6070(2)
C2E_2 C 0.12196(13) -0.5334(3) -0.3930(2)
C2_2 C 0.12196(13) -0.5334(3) -0.6070(2)
C3E C 0.14339(14) -0.1410(3) 0.7235(2)
C3E_2 C 0.14339(14) -0.1410(3) -0.2765(2)
C3_2 C 0.14339(14) -0.1410(3) -0.7235(2)
H2E H 0.1767 -0.1148 0.6608
H2E_2 H 0.1767 -0.1148 -0.3392
H2_2 H 0.1767 -0.1148 -0.6608
C4E C 0.10590(13) -0.0256(3) 0.7913(2)
C4E_2 C 0.10590(13) -0.0256(3) -0.2087(2)
C4_2 C 0.10590(13) -0.0256(3) -0.7913(2)
H3E H 0.1088 0.0976 0.7840
H3E_2 H 0.1088 0.0976 -0.2160
H3_2 H 0.1088 0.0976 -0.7840
C5E C 0.06308(13) -0.6511(3) 0.6059(2)
C5E_2 C 0.06308(13) -0.6511(3) -0.3941(2)
C5_2 C 0.06308(13) -0.6511(3) -0.6059(2)
H4E H 0.0424 -0.6902 0.6785
H4E_2 H 0.0424 -0.6902 -0.3215
H4_2 H 0.0424 -0.6902 -0.6785
C6_2 C 0.15158(18) -0.4749(4) -0.5000
H5_2 H 0.1920 -0.3951 -0.5000
C7_2 C 0.0344(2) -0.7118(5) -0.5000
H6_2 H -0.0048 -0.7947 -0.5000
C8E C 0.15391(14) -0.4718(3) 0.7228(2)
C8E_2 C 0.15391(14) -0.4718(3) -0.2772(2)
C8_2 C 0.15391(14) -0.4718(3) -0.7228(2)
H7E H 0.2085 -0.4610 0.7144
H7E_2 H 0.2085 -0.4610 -0.2856
H7_2 H 0.2085 -0.4610 -0.7144
H8E H 0.1440 -0.5612 0.7840
H8E_2 H 0.1440 -0.5612 -0.2160
H8_2 H 0.1440 -0.5612 -0.7840
O1 O 0.24918(14) 0.4333(3) 0.0000
C9 C 0.25514(19) 0.6169(5) 0.0000
H12 H 0.204(2) 0.408(5) 0.0000
H9? H 0.3017 0.6513 0.0383
H10? H 0.2131 0.6672 0.0433
H11? H 0.2547 0.6597 -0.0817
loop_
_geom_bond_atom_site_label_1
_geom_bond_atom_site_label_2
_geom_bond_site_symmetry_1
_geom_bond_site_symmetry_2
Cu1 Cl1 1_555 1_555
O1 C9 1_555 1_555
N1 Cu1 1_555 1_555
N2 C1 1_555 1_555
C1 N1 1_555 1_555
H1 C1 1_555 1_555
C2 C5 1_555 1_555
C3 N2 1_555 1_555
H2 C3 1_555 1_555
C4 N1 1_555 1_555
H3 C4 1_555 1_555
C5 H4 1_555 1_555
C6 C2 1_555 1_555
H5 C6 1_555 1_555
C7 C5 1_555 1_555
H6 C7 1_555 1_555
C8 N2 1_555 1_555
H7 C8 1_555 1_555
H8 C8 1_555 1_555
H12 O1 1_555 1_555
Cu1_2 N1E 1_555 1_555
Cu1_3 N1_2 1_555 1_555
Cl1D Cu1 1_555 1_555
N1E C1E 1_555 1_555
N1E_2 Cu1 1_555 1_555
N1_2 C1_2 1_555 1_555
N1D Cu1 1_555 1_555
N1A Cu1 1_555 1_555
N2E C1E 1_555 1_555
N2E_2 C1E_2 1_555 1_555
N2_2 C1_2 1_555 1_555
C1E H1E 1_555 1_555
C1E_2 N1E_2 1_555 1_555
C1_2 H1_2 1_555 1_555
H1E_2 C1E_2 1_555 1_555
C2E C6 1_555 1_555
C2E_2 C5E_2 1_555 1_555
C2_2 C5_2 1_555 1_555
C3E N2E 1_555 1_555
C3E_2 N2E_2 1_555 1_555
C3_2 N2_2 1_555 1_555
H2E C3E 1_555 1_555
H2E_2 C3E_2 1_555 1_555
H2_2 C3_2 1_555 1_555
C4E N1E 1_555 1_555
C4E_2 N1E_2 1_555 1_555
C4_2 N1_2 1_555 1_555
H3E C4E 1_555 1_555
H3E_2 C4E_2 1_555 1_555
H3_2 C4_2 1_555 1_555
C5E C7 1_555 1_555
C5E_2 H4E_2 1_555 1_555
C5_2 H4_2 1_555 1_555
H4E C5E 1_555 1_555
C6_2 C2E_2 1_555 1_555
H5_2 C6_2 1_555 1_555
C7_2 C5E_2 1_555 1_555
H6_2 C7_2 1_555 1_555
C8E N2E 1_555 1_555
C8E_2 N2E_2 1_555 1_555
C8_2 N2_2 1_555 1_555
H7E C8E 1_555 1_555
H7E_2 C8E_2 1_555 1_555
H7_2 C8_2 1_555 1_555
H8E C8E 1_555 1_555
H8E_2 C8E_2 1_555 1_555
H8_2 C8_2 1_555 1_555
C2 C8 1_555 1_555
C3 C4 1_555 1_555
C2E C5E 1_555 1_555
C2E C8E 1_555 1_555
C2E_2 C8E_2 1_555 1_555
C2_2 C6_2 1_555 1_555
C2_2 C8_2 1_555 1_555
C3E C4E 1_555 1_555
C3E_2 C4E_2 1_555 1_555
C3_2 C4_2 1_555 1_555
C5_2 C7_2 1_555 1_555

#END
