
#######################################################################
#
#                 Cambridge Crystallographic Data Centre
#                                CCDC 
#
#######################################################################
#
# If this CIF has been generated from an entry in the Cambridge 
# Structural Database, then it will include bibliographic, chemical, 
# crystal, experimental, refinement or atomic coordinate data resulting 
# from the CCDC's data processing and validation procedures.
#
#######################################################################

data_XODTIU01
_symmetry_cell_setting           monoclinic
_symmetry_space_group_name_H-M   'C 2/c'
_symmetry_Int_Tables_number      15
_space_group_name_Hall           '-C 2yn'
loop_
_symmetry_equiv_pos_site_id
_symmetry_equiv_pos_as_xyz
1 x,y,z
2 1/2+x,1/2+y,z
3 -x,y,1/2-z
4 1/2-x,1/2+y,1/2-z
5 -x,-y,-z
6 1/2-x,1/2-y,-z
7 x,-y,1/2+z
8 1/2+x,1/2-y,1/2+z
_cell_length_a                   14.821(6)
_cell_length_b                   8.908(4)
_cell_length_c                   21.365(9)
_cell_angle_alpha                90
_cell_angle_beta                 93.632(8)
_cell_angle_gamma                90
_cell_volume                     2815.06
loop_
_atom_site_label
_atom_site_type_symbol
_atom_site_fract_x
_atom_site_fract_y
_atom_site_fract_z
Cu1 Cu 0.0000 0.0000 0.5000
N1 N 0.1237(2) 0.0609(4) 0.53240(15)
C1 C 0.2067(3) -0.0057(5) 0.52567(18)
H1 H 0.2161 -0.0999 0.5062
C2 C 0.2727(3) 0.0854(5) 0.55141(18)
H2 H 0.3360 0.0675 0.5529
N2 N 0.2305(2) 0.2076(4) 0.57467(15)
C3 C 0.1415(3) 0.1892(5) 0.56212(18)
H3 H 0.0968 0.2592 0.5731
C4 C 0.2735(3) 0.3325(5) 0.61002(18)
H4 H 0.2374 0.4248 0.6020
H5 H 0.3344 0.3501 0.5950
C5 C 0.2817(3) 0.3021(4) 0.67966(18)
C6 C 0.3594(3) 0.2375(5) 0.70773(19)
H6 H 0.4074 0.2093 0.6827
C7 C 0.3675(3) 0.2135(5) 0.7723(2)
H7 H 0.4210 0.1702 0.7913
C8 C 0.2972(3) 0.2533(5) 0.80849(19)
H8 H 0.3027 0.2371 0.8525
C9 C 0.2186(3) 0.3168(4) 0.78121(19)
C10 C 0.2116(3) 0.3396(4) 0.71670(18)
H9 H 0.1578 0.3817 0.6977
C11 C 0.1419(3) 0.3601(5) 0.82052(19)
H10 H 0.1642 0.4322 0.8532
H11 H 0.0942 0.4106 0.7936
N3 N 0.1028(2) 0.2286(4) 0.85078(15)
C12 C 0.0877(2) 0.2135(5) 0.91183(18)
H12 H 0.1051 0.2845 0.9435
N4 N 0.0453(2) 0.0855(4) 0.92157(15)
C13 C 0.0308(3) 0.0199(4) 0.86355(18)
H13 H -0.0003 -0.0720 0.8554
C14 C 0.0677(3) 0.1063(5) 0.81974(19)
H14 H 0.0690 0.0858 0.7762
N5 N -0.0443(2) 0.3794(4) 0.43267(16)
O1 O 0.0036(2) 0.2673(3) 0.44604(15)
O2 O -0.1194(2) 0.3947(4) 0.45577(15)
O3 O -0.0175(2) 0.4761(3) 0.39575(16)
Cu1F Cu 0.0000 0.0000 1.0000
Cu1F_2 Cu 0.0000 0.0000 0.0000
N1D N -0.1237(2) -0.0609(4) 0.46760(15)
C1D C -0.2067(3) 0.0057(5) 0.47433(18)
H1D H -0.2161 0.0999 0.4938
C2D C -0.2727(3) -0.0854(5) 0.44859(18)
H2D H -0.3360 -0.0675 0.4471
N2D N -0.2305(2) -0.2076(4) 0.42533(15)
C3D C -0.1415(3) -0.1892(5) 0.43788(18)
H3D H -0.0968 -0.2592 0.4269
C4D C -0.2735(3) -0.3325(5) 0.38998(18)
H4D H -0.2374 -0.4248 0.3980
H5D H -0.3344 -0.3501 0.4050
C5D C -0.2817(3) -0.3021(4) 0.32034(18)
C6D C -0.3594(3) -0.2375(5) 0.29227(19)
H6D H -0.4074 -0.2093 0.3173
C7D C -0.3675(3) -0.2135(5) 0.2277(2)
H7D H -0.4210 -0.1702 0.2087
C8D C -0.2972(3) -0.2533(5) 0.19151(19)
H8D H -0.3027 -0.2371 0.1475
C9D C -0.2186(3) -0.3168(4) 0.21879(19)
C10D C -0.2116(3) -0.3396(4) 0.28330(18)
H9D H -0.1578 -0.3817 0.3023
C11D C -0.1419(3) -0.3601(5) 0.17948(19)
H10D H -0.1642 -0.4322 0.1468
H11D H -0.0942 -0.4106 0.2064
N3D N -0.1028(2) -0.2286(4) 0.14922(15)
C12D C -0.0877(2) -0.2135(5) 0.08817(18)
H12D H -0.1051 -0.2845 0.0565
N4D N -0.0453(2) -0.0855(4) 0.07843(15)
N4F N 0.0453(2) -0.0855(4) 0.42157(15)
N4B N -0.0453(2) 0.0855(4) 0.57843(15)
C13D C -0.0308(3) -0.0199(4) 0.13645(18)
H13D H 0.0003 0.0720 0.1446
C14D C -0.0677(3) -0.1063(5) 0.18026(19)
H14D H -0.0690 -0.0858 0.2238
N5D N 0.0443(2) -0.3794(4) 0.56733(16)
O1D O -0.0036(2) -0.2673(3) 0.55396(15)
O2D O 0.1194(2) -0.3947(4) 0.54423(15)
O3D O 0.0175(2) -0.4761(3) 0.60425(16)
loop_
_geom_bond_atom_site_label_1
_geom_bond_atom_site_label_2
_geom_bond_site_symmetry_1
_geom_bond_site_symmetry_2
Cu1 N1 1_555 1_555
N1 C1 1_555 1_555
C1 H1 1_555 1_555
C2 C1 1_555 1_555
H2 C2 1_555 1_555
N2 C2 1_555 1_555
C3 N1 1_555 1_555
H3 C3 1_555 1_555
C4 N2 1_555 1_555
H4 C4 1_555 1_555
H5 C4 1_555 1_555
C5 C4 1_555 1_555
C6 C5 1_555 1_555
H6 C6 1_555 1_555
C7 C6 1_555 1_555
H7 C7 1_555 1_555
C8 C7 1_555 1_555
H8 C8 1_555 1_555
C9 C8 1_555 1_555
C10 C5 1_555 1_555
H9 C10 1_555 1_555
C11 C9 1_555 1_555
H10 C11 1_555 1_555
H11 C11 1_555 1_555
N3 C11 1_555 1_555
C12 N3 1_555 1_555
H12 C12 1_555 1_555
N4 C12 1_555 1_555
C13 N4 1_555 1_555
H13 C13 1_555 1_555
C14 N3 1_555 1_555
H14 C14 1_555 1_555
N5 O1 1_555 1_555
O1 Cu1 1_555 1_555
O2 N5 1_555 1_555
O3 N5 1_555 1_555
Cu1F N4 1_555 1_555
Cu1F_2 N4D 1_555 1_555
N1D Cu1 1_555 1_555
C1D N1D 1_555 1_555
H1D C1D 1_555 1_555
C2D C1D 1_555 1_555
H2D C2D 1_555 1_555
N2D C2D 1_555 1_555
C3D N1D 1_555 1_555
H3D C3D 1_555 1_555
C4D N2D 1_555 1_555
H4D C4D 1_555 1_555
H5D C4D 1_555 1_555
C5D C4D 1_555 1_555
C6D C5D 1_555 1_555
H6D C6D 1_555 1_555
C7D C6D 1_555 1_555
H7D C7D 1_555 1_555
C8D C7D 1_555 1_555
H8D C8D 1_555 1_555
C9D C8D 1_555 1_555
C10D C5D 1_555 1_555
H9D C10D 1_555 1_555
C11D C9D 1_555 1_555
H10D C11D 1_555 1_555
H11D C11D 1_555 1_555
N3D C11D 1_555 1_555
C12D N3D 1_555 1_555
H12D C12D 1_555 1_555
N4D C12D 1_555 1_555
N4F Cu1 1_555 1_555
N4B Cu1 1_555 1_555
C13D N4D 1_555 1_555
H13D C13D 1_555 1_555
C14D N3D 1_555 1_555
H14D C14D 1_555 1_555
N5D O1D 1_555 1_555
O1D Cu1 1_555 1_555
O2D N5D 1_555 1_555
O3D N5D 1_555 1_555
N2 C3 1_555 1_555
C9 C10 1_555 1_555
C13 C14 1_555 1_555
N2D C3D 1_555 1_555
C9D C10D 1_555 1_555
C13D C14D 1_555 1_555

#END
