
#######################################################################
#
#                 Cambridge Crystallographic Data Centre
#                                CCDC 
#
#######################################################################
#
# If this CIF has been generated from an entry in the Cambridge 
# Structural Database, then it will include bibliographic, chemical, 
# crystal, experimental, refinement or atomic coordinate data resulting 
# from the CCDC's data processing and validation procedures.
#
#######################################################################

data_XODTUG
_symmetry_cell_setting           monoclinic
_symmetry_space_group_name_H-M   'P 21/n'
_symmetry_Int_Tables_number      14
_space_group_name_Hall           '-P 2yn'
loop_
_symmetry_equiv_pos_site_id
_symmetry_equiv_pos_as_xyz
1 x,y,z
2 1/2-x,1/2+y,1/2-z
3 -x,-y,-z
4 1/2+x,1/2-y,1/2+z
_cell_length_a                   9.841(4)
_cell_length_b                   8.311(3)
_cell_length_c                   21.919(8)
_cell_angle_alpha                90
_cell_angle_beta                 101.047(7)
_cell_angle_gamma                90
_cell_volume                     1759.5
loop_
_atom_site_label
_atom_site_type_symbol
_atom_site_fract_x
_atom_site_fract_y
_atom_site_fract_z
Cu1 Cu 0.32405(5) 0.25469(7) 0.44455(2)
N1 N 0.2288(4) 0.3568(4) 0.50511(16)
C1 C 0.2572(4) 0.4987(5) 0.5313(2)
H1 H 0.3291 0.5673 0.5234
N2 N 0.1729(4) 0.5343(4) 0.57024(16)
C2 C 0.0839(5) 0.4074(5) 0.5702(2)
H2 H 0.0124 0.3976 0.5936
C3 C 0.1192(4) 0.2992(5) 0.5299(2)
H3 H 0.0751 0.1982 0.5200
C4 C 0.1743(5) 0.6817(5) 0.6073(2)
H4 H 0.0787 0.7236 0.6028
H5 H 0.2309 0.7645 0.5913
C5 C 0.2324(5) 0.6518(5) 0.6751(2)
C6 C 0.1457(4) 0.6730(5) 0.7181(2)
H6 H 0.0523 0.7058 0.7044
C7 C 0.1970(5) 0.6455(5) 0.7817(2)
C8 C 0.3338(5) 0.5993(5) 0.8010(2)
H7 H 0.3686 0.5788 0.8438
C9 C 0.4200(5) 0.5829(5) 0.7583(2)
H8 H 0.5144 0.5540 0.7720
C10 C 0.3686(5) 0.6085(5) 0.6958(2)
H9 H 0.4280 0.5962 0.6667
C11 C 0.1021(5) 0.6693(5) 0.8275(2)
H10 H 0.1591 0.6926 0.8689
H11 H 0.0431 0.7645 0.8146
N3 N 0.0121(4) 0.5309(4) 0.83323(17)
C12 C -0.0029(5) 0.4620(5) 0.8867(2)
H12 H 0.0518 0.4876 0.9261
N4 N -0.1031(4) 0.3542(4) 0.87793(16)
C13 C -0.1544(5) 0.3548(6) 0.8141(2)
H13 H -0.2279 0.2892 0.7933
C14 C -0.0838(5) 0.4627(6) 0.7866(2)
H14 H -0.0975 0.4869 0.7435
N5 N 0.1780(4) -0.0321(5) 0.44319(19)
O1 O 0.0974(3) 0.0551(4) 0.40718(17)
O2 O 0.1620(4) -0.1771(4) 0.44846(19)
O3 O 0.2868(3) 0.0327(4) 0.47660(14)
N6 N 0.2846(4) 0.5253(5) 0.37183(17)
O4 O 0.3025(4) 0.6498(4) 0.34488(16)
O5 O 0.1767(3) 0.4429(4) 0.35939(14)
O6 O 0.3834(3) 0.4728(4) 0.41584(14)
O7 O 0.5251(3) 0.2440(4) 0.51521(14)
H15 H 0.600(4) 0.162(5) 0.521(3)
H16 H 0.552(5) 0.320(5) 0.5501(18)
Cu1C Cu -0.17595(5) 0.24531(7) 0.94455(2)
N4C N 0.3969(4) 0.1458(4) 0.37793(16)
loop_
_geom_bond_atom_site_label_1
_geom_bond_atom_site_label_2
_geom_bond_site_symmetry_1
_geom_bond_site_symmetry_2
Cu1 N1 1_555 1_555
N1 C1 1_555 1_555
C1 H1 1_555 1_555
N2 C1 1_555 1_555
C2 N2 1_555 1_555
H2 C2 1_555 1_555
C3 N1 1_555 1_555
H3 C3 1_555 1_555
C4 N2 1_555 1_555
H4 C4 1_555 1_555
H5 C4 1_555 1_555
C5 C4 1_555 1_555
C6 C5 1_555 1_555
H6 C6 1_555 1_555
C7 C6 1_555 1_555
C8 C7 1_555 1_555
H7 C8 1_555 1_555
C9 C8 1_555 1_555
H8 C9 1_555 1_555
C10 C5 1_555 1_555
H9 C10 1_555 1_555
C11 C7 1_555 1_555
H10 C11 1_555 1_555
H11 C11 1_555 1_555
N3 C11 1_555 1_555
C12 N3 1_555 1_555
H12 C12 1_555 1_555
N4 C12 1_555 1_555
C13 N4 1_555 1_555
H13 C13 1_555 1_555
C14 N3 1_555 1_555
H14 C14 1_555 1_555
N5 O1 1_555 1_555
O2 N5 1_555 1_555
O3 Cu1 1_555 1_555
N6 O4 1_555 1_555
O5 N6 1_555 1_555
O6 Cu1 1_555 1_555
O7 Cu1 1_555 1_555
H15 O7 1_555 1_555
H16 O7 1_555 1_555
Cu1C N4 1_555 1_555
N4C Cu1 1_555 1_555
C2 C3 1_555 1_555
C9 C10 1_555 1_555
C13 C14 1_555 1_555
N5 O3 1_555 1_555
N6 O6 1_555 1_555

#END
