
#######################################################################
#
#                 Cambridge Crystallographic Data Centre
#                                CCDC 
#
#######################################################################
#
# If this CIF has been generated from an entry in the Cambridge 
# Structural Database, then it will include bibliographic, chemical, 
# crystal, experimental, refinement or atomic coordinate data resulting 
# from the CCDC's data processing and validation procedures.
#
#######################################################################

data_XODTIU
_symmetry_cell_setting           monoclinic
_symmetry_space_group_name_H-M   'P 21/c'
_symmetry_Int_Tables_number      14
_space_group_name_Hall           '-P 2ybc'
loop_
_symmetry_equiv_pos_site_id
_symmetry_equiv_pos_as_xyz
1 x,y,z
2 -x,1/2+y,1/2-z
3 -x,-y,-z
4 x,1/2-y,1/2+z
_cell_length_a                   11.336(5)
_cell_length_b                   9.369(4)
_cell_length_c                   13.865(6)
_cell_angle_alpha                90
_cell_angle_beta                 103.089(8)
_cell_angle_gamma                90
_cell_volume                     1434.3
loop_
_atom_site_label
_atom_site_type_symbol
_atom_site_fract_x
_atom_site_fract_y
_atom_site_fract_z
Cu1 Cu 0.5000 0.0000 0.0000
O1 O 0.47454(19) 0.0721(2) 0.16388(14)
N1 N 0.3793(2) 0.1355(3) 0.17368(17)
N2 N 0.4499(2) -0.1980(2) 0.02901(17)
N3 N -0.1619(2) -0.4142(2) -0.31856(17)
N4 N -0.3241(2) -0.4651(2) -0.43454(16)
O2 O 0.3687(2) 0.2667(2) 0.15769(15)
O3 O 0.2966(2) 0.0675(3) 0.19943(17)
N5 N 0.3734(2) -0.4135(2) -0.00233(17)
C1 C 0.1876(2) -0.5489(3) -0.0787(2)
C2 C 0.1311(3) -0.6581(3) -0.0388(2)
H1 H 0.1783 -0.7254 0.0048
C3 C -0.2819(2) -0.3986(3) -0.3491(2)
H2 H -0.3308 -0.3466 -0.3141
C4 C 0.4129(2) -0.2953(3) -0.0401(2)
H3 H 0.4140 -0.2833 -0.1080
C5 C 0.3244(2) -0.5416(3) -0.0574(2)
H4 H 0.3584 -0.6270 -0.0188
H5 H 0.3505 -0.5437 -0.1208
C6 C -0.2234(3) -0.5264(3) -0.4590(2)
H6 H -0.2248 -0.5819 -0.5165
C7 C 0.1169(3) -0.4507(3) -0.1418(2)
H7 H 0.1551 -0.3761 -0.1698
C8 C -0.0084(3) -0.4599(3) -0.1644(2)
C9 C 0.4336(3) -0.2571(3) 0.1167(2)
H8 H 0.4515 -0.2116 0.1796
C10 C -0.0643(3) -0.5719(3) -0.1253(2)
H9 H -0.1500 -0.5807 -0.1419
C11 C 0.3878(3) -0.3905(3) 0.0981(2)
H10 H 0.3692 -0.4556 0.1451
C12 C -0.0848(3) -0.3494(3) -0.2296(2)
H11 H -0.1365 -0.2998 -0.1914
H12 H -0.0311 -0.2775 -0.2498
C13 C 0.0052(3) -0.6695(3) -0.0626(2)
H13 H -0.0330 -0.7450 -0.0355
C14 C -0.1225(3) -0.4952(3) -0.3884(2)
H14 H -0.0417 -0.5232 -0.3872
Cu1C Cu -0.5000 -0.5000 -0.5000
Cu1C_2 Cu 1.5000 0.5000 0.5000
O1B O 0.52546(19) -0.0721(2) -0.16388(14)
N1B N 0.6207(2) -0.1355(3) -0.17368(17)
N2B N 0.5501(2) 0.1980(2) -0.02901(17)
N3B N 1.1619(2) 0.4142(2) 0.31856(17)
N4B N 1.3241(2) 0.4651(2) 0.43454(16)
N4C N 0.6759(2) -0.0349(2) 0.06546(16)
N4A N 0.3241(2) 0.0349(2) -0.06546(16)
O2B O 0.6313(2) -0.2667(2) -0.15769(15)
O3B O 0.7034(2) -0.0675(3) -0.19943(17)
N5B N 0.6266(2) 0.4135(2) 0.00233(17)
C1B C 0.8124(2) 0.5489(3) 0.0787(2)
C2B C 0.8689(3) 0.6581(3) 0.0388(2)
H1B H 0.8217 0.7254 -0.0048
C3B C 1.2819(2) 0.3986(3) 0.3491(2)
H2B H 1.3308 0.3466 0.3141
C4B C 0.5871(2) 0.2953(3) 0.0401(2)
H3B H 0.5860 0.2833 0.1080
C5B C 0.6756(2) 0.5416(3) 0.0574(2)
H4B H 0.6416 0.6270 0.0188
H5B H 0.6495 0.5437 0.1208
C6B C 1.2234(3) 0.5264(3) 0.4590(2)
H6B H 1.2248 0.5819 0.5165
C7B C 0.8831(3) 0.4507(3) 0.1418(2)
H7B H 0.8449 0.3761 0.1698
C8B C 1.0084(3) 0.4599(3) 0.1644(2)
C9B C 0.5664(3) 0.2571(3) -0.1167(2)
H8B H 0.5485 0.2116 -0.1796
C10B C 1.0643(3) 0.5719(3) 0.1253(2)
H9B H 1.1500 0.5807 0.1419
C11B C 0.6122(3) 0.3905(3) -0.0981(2)
H10B H 0.6308 0.4556 -0.1451
C12B C 1.0848(3) 0.3494(3) 0.2296(2)
H11B H 1.1365 0.2998 0.1914
H12B H 1.0311 0.2775 0.2498
C13B C 0.9948(3) 0.6695(3) 0.0626(2)
H13B H 1.0330 0.7450 0.0355
C14B C 1.1225(3) 0.4952(3) 0.3884(2)
H14B H 1.0417 0.5232 0.3872
loop_
_geom_bond_atom_site_label_1
_geom_bond_atom_site_label_2
_geom_bond_site_symmetry_1
_geom_bond_site_symmetry_2
Cu1 O1 1_555 1_555
O1 N1 1_555 1_555
N1 O2 1_555 1_555
N2 Cu1 1_555 1_555
N3 C3 1_555 1_555
N4 C3 1_555 1_555
O3 N1 1_555 1_555
N5 C4 1_555 1_555
C1 C2 1_555 1_555
C2 H1 1_555 1_555
C3 H2 1_555 1_555
C4 N2 1_555 1_555
H3 C4 1_555 1_555
C5 N5 1_555 1_555
H4 C5 1_555 1_555
H5 C5 1_555 1_555
C6 N4 1_555 1_555
H6 C6 1_555 1_555
C7 C1 1_555 1_555
H7 C7 1_555 1_555
C8 C7 1_555 1_555
C9 N2 1_555 1_555
H8 C9 1_555 1_555
C10 C8 1_555 1_555
H9 C10 1_555 1_555
C11 N5 1_555 1_555
H10 C11 1_555 1_555
C12 N3 1_555 1_555
H11 C12 1_555 1_555
H12 C12 1_555 1_555
C13 C2 1_555 1_555
H13 C13 1_555 1_555
C14 N3 1_555 1_555
H14 C14 1_555 1_555
Cu1C N4 1_555 1_555
Cu1C_2 N4B 1_555 1_555
O1B Cu1 1_555 1_555
N1B O1B 1_555 1_555
N2B Cu1 1_555 1_555
N3B C3B 1_555 1_555
N4B C3B 1_555 1_555
N4C Cu1 1_555 1_555
N4A Cu1 1_555 1_555
O2B N1B 1_555 1_555
O3B N1B 1_555 1_555
N5B C4B 1_555 1_555
C1B C2B 1_555 1_555
C2B H1B 1_555 1_555
C3B H2B 1_555 1_555
C4B N2B 1_555 1_555
H3B C4B 1_555 1_555
C5B N5B 1_555 1_555
H4B C5B 1_555 1_555
H5B C5B 1_555 1_555
C6B N4B 1_555 1_555
H6B C6B 1_555 1_555
C7B C1B 1_555 1_555
H7B C7B 1_555 1_555
C8B C7B 1_555 1_555
C9B N2B 1_555 1_555
H8B C9B 1_555 1_555
C10B C8B 1_555 1_555
H9B C10B 1_555 1_555
C11B N5B 1_555 1_555
H10B C11B 1_555 1_555
C12B N3B 1_555 1_555
H11B C12B 1_555 1_555
H12B C12B 1_555 1_555
C13B C2B 1_555 1_555
H13B C13B 1_555 1_555
C14B N3B 1_555 1_555
H14B C14B 1_555 1_555
C1 C5 1_555 1_555
C6 C14 1_555 1_555
C8 C12 1_555 1_555
C9 C11 1_555 1_555
C10 C13 1_555 1_555
C1B C5B 1_555 1_555
C6B C14B 1_555 1_555
C8B C12B 1_555 1_555
C9B C11B 1_555 1_555
C10B C13B 1_555 1_555

#END
