
#######################################################################
#
#                 Cambridge Crystallographic Data Centre
#                                CCDC 
#
#######################################################################
#
# If this CIF has been generated from an entry in the Cambridge 
# Structural Database, then it will include bibliographic, chemical, 
# crystal, experimental, refinement or atomic coordinate data resulting 
# from the CCDC's data processing and validation procedures.
#
#######################################################################

data_XODTAM
_symmetry_cell_setting           triclinic
_symmetry_space_group_name_H-M   'P -1'
_symmetry_Int_Tables_number      2
_space_group_name_Hall           '-P 1'
loop_
_symmetry_equiv_pos_site_id
_symmetry_equiv_pos_as_xyz
1 x,y,z
2 -x,-y,-z
_cell_length_a                   8.683(2)
_cell_length_b                   8.762(2)
_cell_length_c                   10.844(2)
_cell_angle_alpha                75.252(4)
_cell_angle_beta                 67.904(4)
_cell_angle_gamma                80.906(4)
_cell_volume                     737.45
loop_
_atom_site_label
_atom_site_type_symbol
_atom_site_fract_x
_atom_site_fract_y
_atom_site_fract_z
Cu1 Cu 0.5000 0.5000 0.5000
C1 C 0.0935(6) 0.6859(6) 0.9702(5)
H1 H 0.0365 0.6111 1.0555
H2 H 0.0120 0.7300 0.9242
N1 N 0.2323(4) 0.5997(4) 0.8815(4)
N2 N 0.2154(5) 0.8953(4) 1.3787(4)
N3 N 0.4118(5) 0.5289(4) 0.6953(4)
N4 N 0.3898(5) 0.7118(4) 1.4432(3)
C2 C 0.2718(6) 0.6136(5) 0.7483(5)
H3 H 0.2076 0.6766 0.6972
C3 C 0.0840(6) 0.9664(5) 1.3211(5)
H4 H 0.0574 1.0783 1.3293
H5 H -0.0185 0.9092 1.3728
C4 C 0.1501(6) 0.8184(5) 1.0046(5)
C5 C 0.4408(6) 0.8572(5) 1.4306(5)
H6 H 0.5353 0.8749 1.4478
C6 C 0.2524(6) 1.0611(5) 1.0729(5)
H7 H 0.2885 1.1436 1.0957
C7 C 0.3532(6) 0.5001(6) 0.9193(5)
H8 H 0.3591 0.4680 1.0080
C8 C 0.2604(6) 0.9241(6) 0.9051(5)
H9 H 0.3017 0.9130 0.8131
C9 C 0.0911(6) 0.8366(5) 1.1384(5)
H10 H 0.0149 0.7656 1.2070
C10 C 0.2531(6) 0.7395(5) 1.4119(4)
H11 H 0.1902 0.6596 1.4128
C11 C 0.4617(6) 0.4571(6) 0.8048(5)
H12 H 0.5585 0.3876 0.8000
C12 C 0.3338(6) 0.9728(5) 1.3894(5)
H13 H 0.3402 1.0840 1.3717
C13 C 0.3103(6) 1.0445(6) 0.9384(5)
H14 H 0.3847 1.1166 0.8693
C14 C 0.1420(6) 0.9573(5) 1.1739(5)
O1 O 0.7627(4) 0.6272(4) 0.4448(3)
H15 H 0.799(5) 0.628(6) 0.521(3)
H16 H 0.853(5) 0.568(8) 0.384(5)
Cu1_2 Cu 0.5000 0.5000 1.5000
Cu1_3 Cu 0.5000 0.5000 -0.5000
C1A C 0.9065(6) 0.3141(6) 0.0298(5)
H1A H 0.9635 0.3889 -0.0555
H2A H 0.9880 0.2700 0.0758
N1A N 0.7677(4) 0.4003(4) 0.1185(4)
N2A N 0.7846(5) 0.1047(4) -0.3787(4)
N3A N 0.5882(5) 0.4711(4) 0.3047(4)
N4A N 0.6102(5) 0.2882(4) -0.4432(3)
N4_2 N 0.3898(5) 0.7118(4) 0.4432(3)
N4A_2 N 0.6102(5) 0.2882(4) 0.5568(3)
C2A C 0.7282(6) 0.3864(5) 0.2517(5)
H3A H 0.7924 0.3234 0.3028
C3A C 0.9160(6) 0.0336(5) -0.3211(5)
H4A H 0.9426 -0.0783 -0.3293
H5A H 1.0185 0.0908 -0.3728
C4A C 0.8499(6) 0.1816(5) -0.0046(5)
C5A C 0.5592(6) 0.1428(5) -0.4306(5)
H6A H 0.4647 0.1251 -0.4478
C6A C 0.7476(6) -0.0611(5) -0.0729(5)
H7A H 0.7115 -0.1436 -0.0957
C7A C 0.6468(6) 0.4999(6) 0.0807(5)
H8A H 0.6409 0.5320 -0.0080
C8A C 0.7396(6) 0.0759(6) 0.0949(5)
H9A H 0.6983 0.0870 0.1869
C9A C 0.9089(6) 0.1634(5) -0.1384(5)
H10A H 0.9851 0.2344 -0.2070
C10A C 0.7469(6) 0.2605(5) -0.4119(4)
H11A H 0.8098 0.3404 -0.4128
C11A C 0.5383(6) 0.5429(6) 0.1952(5)
H12A H 0.4415 0.6124 0.2000
C12A C 0.6662(6) 0.0272(5) -0.3894(5)
H13A H 0.6598 -0.0840 -0.3717
C13A C 0.6897(6) -0.0445(6) 0.0616(5)
H14A H 0.6153 -0.1166 0.1307
C14A C 0.8580(6) 0.0427(5) -0.1739(5)
O1A O 0.2373(4) 0.3728(4) 0.5552(3)
H15A H 0.201(5) 0.372(6) 0.479(3)
H16A H 0.147(5) 0.432(8) 0.616(5)
Br1 Br 0.88814(6) 0.60248(6) 0.69817(5)
loop_
_geom_bond_atom_site_label_1
_geom_bond_atom_site_label_2
_geom_bond_site_symmetry_1
_geom_bond_site_symmetry_2
Cu1 N3 1_555 1_555
C1 H1 1_555 1_555
H2 C1 1_555 1_555
N1 C1 1_555 1_555
N2 C3 1_555 1_555
N3 C2 1_555 1_555
N4 C5 1_555 1_555
C2 N1 1_555 1_555
H3 C2 1_555 1_555
C3 H4 1_555 1_555
H5 C3 1_555 1_555
C4 C1 1_555 1_555
C5 H6 1_555 1_555
C6 H7 1_555 1_555
C7 N1 1_555 1_555
H8 C7 1_555 1_555
C8 C4 1_555 1_555
H9 C8 1_555 1_555
C9 C4 1_555 1_555
H10 C9 1_555 1_555
C10 N2 1_555 1_555
H11 C10 1_555 1_555
C11 N3 1_555 1_555
H12 C11 1_555 1_555
C12 N2 1_555 1_555
H13 C12 1_555 1_555
C13 C6 1_555 1_555
H14 C13 1_555 1_555
C14 C3 1_555 1_555
O1 Cu1 1_555 1_555
H15 O1 1_555 1_555
H16 O1 1_555 1_555
Cu1_2 N4 1_555 1_555
Cu1_3 N4A 1_555 1_555
C1A H1A 1_555 1_555
H2A C1A 1_555 1_555
N1A C1A 1_555 1_555
N2A C3A 1_555 1_555
N3A Cu1 1_555 1_555
N4A C5A 1_555 1_555
N4_2 Cu1 1_555 1_555
N4A_2 Cu1 1_555 1_555
C2A N1A 1_555 1_555
H3A C2A 1_555 1_555
C3A H4A 1_555 1_555
H5A C3A 1_555 1_555
C4A C1A 1_555 1_555
C5A H6A 1_555 1_555
C6A H7A 1_555 1_555
C7A N1A 1_555 1_555
H8A C7A 1_555 1_555
C8A C4A 1_555 1_555
H9A C8A 1_555 1_555
C9A C4A 1_555 1_555
H10A C9A 1_555 1_555
C10A N2A 1_555 1_555
H11A C10A 1_555 1_555
C11A N3A 1_555 1_555
H12A C11A 1_555 1_555
C12A N2A 1_555 1_555
H13A C12A 1_555 1_555
C13A C6A 1_555 1_555
H14A C13A 1_555 1_555
C14A C3A 1_555 1_555
O1A Cu1 1_555 1_555
H15A O1A 1_555 1_555
H16A O1A 1_555 1_555
N4 C10 1_555 1_555
C5 C12 1_555 1_555
C6 C14 1_555 1_555
C7 C11 1_555 1_555
C8 C13 1_555 1_555
C9 C14 1_555 1_555
N3A C2A 1_555 1_555
N4A C10A 1_555 1_555
C5A C12A 1_555 1_555
C6A C14A 1_555 1_555
C7A C11A 1_555 1_555
C8A C13A 1_555 1_555
C9A C14A 1_555 1_555

#END
