
#######################################################################
#
#                 Cambridge Crystallographic Data Centre
#                                CCDC 
#
#######################################################################
#
# If this CIF has been generated from an entry in the Cambridge 
# Structural Database, then it will include bibliographic, chemical, 
# crystal, experimental, refinement or atomic coordinate data resulting 
# from the CCDC's data processing and validation procedures.
#
#######################################################################

data_XODTOA
_symmetry_cell_setting           triclinic
_symmetry_space_group_name_H-M   'P -1'
_symmetry_Int_Tables_number      2
_space_group_name_Hall           '-P 1'
loop_
_symmetry_equiv_pos_site_id
_symmetry_equiv_pos_as_xyz
1 x,y,z
2 -x,-y,-z
_cell_length_a                   8.7647(14)
_cell_length_b                   10.8794(17)
_cell_length_c                   16.984(3)
_cell_angle_alpha                89.797(3)
_cell_angle_beta                 89.368(3)
_cell_angle_gamma                84.603(3)
_cell_volume                     1612.22
loop_
_atom_site_label
_atom_site_type_symbol
_atom_site_fract_x
_atom_site_fract_y
_atom_site_fract_z
Cu1 Cu 0.5000 0.5000 0.5000
N1 N 0.4242(15) 0.6663(12) 0.4507(8)
C1 C 0.3136(18) 0.6893(14) 0.3987(9)
H1 H 0.2506 0.6293 0.3802
N2 N 0.3015(16) 0.8075(12) 0.3752(8)
C2 C 0.4120(18) 0.8648(15) 0.4138(10)
H2 H 0.4317 0.9489 0.4090
C3 C 0.487(2) 0.7778(15) 0.4601(10)
H3 H 0.5702 0.7910 0.4937
C4 C 0.190(2) 0.8648(15) 0.3180(9)
H4 H 0.1354 0.7992 0.2934
H5 H 0.2457 0.9054 0.2759
C5 C 0.0731(18) 0.9587(14) 0.3549(9)
C6 C -0.059(2) 0.9227(15) 0.3895(10)
H6 H -0.0740 0.8375 0.3926
C7 C -0.170(2) 1.0099(16) 0.4200(10)
H7 H -0.2599 0.9844 0.4443
C8 C -0.1485(19) 1.1337(16) 0.4146(10)
H8 H -0.2248 1.1933 0.4350
C9 C -0.0170(19) 1.1722(15) 0.3797(10)
C10 C 0.0935(18) 1.0832(14) 0.3506(9)
H9 H 0.1847 1.1083 0.3273
C11 C 0.004(2) 1.3068(15) 0.3716(11)
H10 H 0.0480 1.3217 0.3188
H11 H -0.0975 1.3548 0.3750
N3 N 0.1039(15) 1.3517(12) 0.4314(8)
C12 C 0.2385(18) 1.3977(14) 0.4185(10)
H12 H 0.2860 1.4027 0.3682
N4 N 0.2966(14) 1.4352(12) 0.4845(8)
C13 C 0.1925(18) 1.4112(14) 0.5432(10)
H13 H 0.2036 1.4274 0.5976
C14 C 0.0733(19) 1.3612(14) 0.5109(10)
H14 H -0.0148 1.3371 0.5378
O7 O 0.5832(14) 0.4299(11) 0.3639(7)
H29 H 0.5598 0.3599 0.3505
C29 C 0.596(2) 0.5049(17) 0.2954(10)
H30 H 0.5856 0.5921 0.3104
H31 H 0.5155 0.4894 0.2582
H32 H 0.6968 0.4845 0.2704
Cu1_2 Cu 0.5000 1.5000 0.5000
Cu1_3 Cu 0.5000 -0.5000 0.5000
N1A N 0.5758(15) 0.3337(12) 0.5493(8)
C1A C 0.6864(18) 0.3107(14) 0.6013(9)
H1A H 0.7494 0.3707 0.6198
N2A N 0.6985(16) 0.1925(12) 0.6248(8)
C2A C 0.5880(18) 0.1352(15) 0.5862(10)
H2A H 0.5683 0.0511 0.5910
C3A C 0.513(2) 0.2222(15) 0.5399(10)
H3A H 0.4298 0.2090 0.5063
C4A C 0.810(2) 0.1352(15) 0.6820(9)
H4A H 0.8646 0.2008 0.7066
H5A H 0.7543 0.0946 0.7241
C5A C 0.9269(18) 0.0413(14) 0.6451(9)
C6A C 1.059(2) 0.0773(15) 0.6105(10)
H6A H 1.0740 0.1625 0.6074
C7A C 1.170(2) -0.0099(16) 0.5800(10)
H7A H 1.2599 0.0156 0.5557
C8A C 1.1485(19) -0.1337(16) 0.5854(10)
H8A H 1.2248 -0.1933 0.5650
C9A C 1.0170(19) -0.1722(15) 0.6203(10)
C10A C 0.9065(18) -0.0832(14) 0.6494(9)
H9A H 0.8153 -0.1083 0.6727
C11A C 0.996(2) -0.3068(15) 0.6284(11)
H10A H 0.9520 -0.3217 0.6812
H11A H 1.0975 -0.3548 0.6250
N3A N 0.8961(15) -0.3517(12) 0.5686(8)
C12A C 0.7615(18) -0.3977(14) 0.5815(10)
H12A H 0.7140 -0.4027 0.6318
N4A N 0.7034(14) -0.4352(12) 0.5155(8)
N4_2 N 0.2966(14) 0.4352(12) 0.4845(8)
N4A_2 N 0.7034(14) 0.5648(12) 0.5155(8)
C13A C 0.8075(18) -0.4112(14) 0.4568(10)
H13A H 0.7964 -0.4274 0.4024
C14A C 0.9267(19) -0.3612(14) 0.4891(10)
H14A H 1.0148 -0.3371 0.4622
O7A O 0.4168(14) 0.5701(11) 0.6361(7)
H29A H 0.4402 0.6401 0.6495
C29A C 0.404(2) 0.4951(17) 0.7046(10)
H30A H 0.4144 0.4079 0.6896
H31A H 0.4845 0.5106 0.7418
H32A H 0.3032 0.5155 0.7296
Cu2 Cu 0.5000 0.5000 0.0000
N5 N 0.5327(16) 0.6286(13) 0.0832(8)
C15 C 0.6612(19) 0.6458(15) 0.1212(10)
H15 H 0.7552 0.5958 0.1146
N6 N 0.6409(17) 0.7425(13) 0.1700(8)
C16 C 0.491(2) 0.7890(18) 0.1641(12)
H16 H 0.4417 0.8575 0.1919
C17 C 0.427(2) 0.7182(18) 0.1111(12)
H17 H 0.3224 0.7291 0.0955
C18 C 0.757(2) 0.7879(16) 0.2211(10)
H18 H 0.8237 0.7167 0.2414
H19 H 0.7049 0.8307 0.2668
C19 C 0.855(2) 0.8757(16) 0.1794(10)
C20 C 0.837(2) 1.0010(15) 0.1945(10)
H20 H 0.7594 1.0328 0.2305
C21 C 0.930(2) 1.0813(16) 0.1577(10)
C22 C 1.042(2) 1.0338(17) 0.1045(12)
H21 H 1.1067 1.0875 0.0793
C23 C 1.059(2) 0.9083(18) 0.0879(12)
H22 H 1.1342 0.8763 0.0507
C24 C 0.967(2) 0.8303(17) 0.1261(11)
H23 H 0.9796 0.7442 0.1155
C25 C 0.914(2) 1.2167(15) 0.1773(10)
H24 H 0.8443 1.2307 0.2233
H25 H 1.0154 1.2419 0.1922
N7 N 0.8538(16) 1.2948(12) 0.1111(8)
C26 C 0.708(2) 1.3340(15) 0.0992(10)
H26 H 0.6254 1.3150 0.1325
N8 N 0.6919(16) 1.4029(12) 0.0351(8)
C27 C 0.8374(19) 1.4070(15) 0.0051(10)
H27 H 0.8630 1.4495 -0.0414
C28 C 0.939(2) 1.3410(15) 0.0520(10)
H28 H 1.0468 1.3292 0.0453
O8 O 0.3442(18) 0.3908(16) 0.0947(10)
H33 H 0.35(3) 0.300(3) 0.100(12)
H34 H 0.35(5) 0.422(18) 0.149(5)
Cu2_2 Cu 0.5000 1.5000 0.0000
Cu2_3 Cu 0.5000 -0.5000 0.0000
N5A N 0.4673(16) 0.3714(13) -0.0832(8)
C15A C 0.3388(19) 0.3542(15) -0.1212(10)
H15A H 0.2448 0.4042 -0.1146
N6A N 0.3591(17) 0.2575(13) -0.1700(8)
C16A C 0.509(2) 0.2110(18) -0.1641(12)
H16A H 0.5583 0.1425 -0.1919
C17A C 0.573(2) 0.2818(18) -0.1111(12)
H17A H 0.6776 0.2709 -0.0955
C18A C 0.243(2) 0.2121(16) -0.2211(10)
H18A H 0.1763 0.2833 -0.2414
H19A H 0.2951 0.1693 -0.2668
C19A C 0.145(2) 0.1243(16) -0.1794(10)
C20A C 0.163(2) -0.0010(15) -0.1945(10)
H20A H 0.2406 -0.0328 -0.2305
C21A C 0.070(2) -0.0813(16) -0.1577(10)
C22A C -0.042(2) -0.0338(17) -0.1045(12)
H21A H -0.1067 -0.0875 -0.0793
C23A C -0.059(2) 0.0917(18) -0.0879(12)
H22A H -0.1342 0.1237 -0.0507
C24A C 0.033(2) 0.1697(17) -0.1261(11)
H23A H 0.0204 0.2558 -0.1155
C25A C 0.086(2) -0.2167(15) -0.1773(10)
H24A H 0.1557 -0.2307 -0.2233
H25A H -0.0154 -0.2419 -0.1922
N7A N 0.1462(16) -0.2948(12) -0.1111(8)
C26A C 0.292(2) -0.3340(15) -0.0992(10)
H26A H 0.3746 -0.3150 -0.1325
N8A N 0.3081(16) -0.4029(12) -0.0351(8)
N8_2 N 0.6919(16) 0.4029(12) 0.0351(8)
N8A_2 N 0.3081(16) 0.5971(12) -0.0351(8)
C27A C 0.1626(19) -0.4070(15) -0.0051(10)
H27A H 0.1370 -0.4495 0.0414
C28A C 0.061(2) -0.3410(15) -0.0520(10)
H28A H -0.0468 -0.3292 -0.0453
O8A O 0.6558(18) 0.6092(16) -0.0947(10)
H33A H 0.65(3) 0.700(3) -0.100(12)
H34A H 0.65(5) 0.578(18) -0.149(5)
N9 N 0.4908(14) 0.1538(11) 0.2924(8)
O1 O 0.4665(17) 0.1581(13) 0.3641(9)
O2 O 0.557(2) 0.2323(13) 0.2586(9)
O3 O 0.4539(18) 0.0602(13) 0.2545(9)
N10 N 0.0850(17) 0.5334(14) 0.2386(9)
O4 O 0.0050(16) 0.5220(12) 0.1812(8)
O5 O 0.0306(16) 0.5876(12) 0.2998(8)
O6 O 0.2203(19) 0.491(2) 0.2380(9)
O9 O 0.387(5) 0.144(4) 0.100(3)
H35 H 0.45(2) 0.118(14) 0.152(5)
H36 H 0.46(2) 0.06(2) 0.060(10)
loop_
_geom_bond_atom_site_label_1
_geom_bond_atom_site_label_2
_geom_bond_site_symmetry_1
_geom_bond_site_symmetry_2
Cu1 N1 1_555 1_555
Cu2 N5 1_555 1_555
N1 C1 1_555 1_555
C1 H1 1_555 1_555
N2 C1 1_555 1_555
C2 N2 1_555 1_555
H2 C2 1_555 1_555
C3 N1 1_555 1_555
H3 C3 1_555 1_555
C4 N2 1_555 1_555
H4 C4 1_555 1_555
H5 C4 1_555 1_555
C5 C4 1_555 1_555
C6 C5 1_555 1_555
H6 C6 1_555 1_555
C7 C6 1_555 1_555
H7 C7 1_555 1_555
C8 C7 1_555 1_555
H8 C8 1_555 1_555
C9 C8 1_555 1_555
C10 C5 1_555 1_555
H9 C10 1_555 1_555
C11 C9 1_555 1_555
H10 C11 1_555 1_555
H11 C11 1_555 1_555
N3 C11 1_555 1_555
C12 N3 1_555 1_555
H12 C12 1_555 1_555
N4 C12 1_555 1_555
C13 N4 1_555 1_555
H13 C13 1_555 1_555
C14 N3 1_555 1_555
H14 C14 1_555 1_555
N5 C15 1_555 1_555
C15 H15 1_555 1_555
N6 C15 1_555 1_555
C16 N6 1_555 1_555
H16 C16 1_555 1_555
C17 N5 1_555 1_555
H17 C17 1_555 1_555
C18 N6 1_555 1_555
H18 C18 1_555 1_555
H19 C18 1_555 1_555
C19 C18 1_555 1_555
C20 C19 1_555 1_555
H20 C20 1_555 1_555
C21 C20 1_555 1_555
C22 C21 1_555 1_555
H21 C22 1_555 1_555
C23 C22 1_555 1_555
H22 C23 1_555 1_555
C24 C19 1_555 1_555
H23 C24 1_555 1_555
C25 C21 1_555 1_555
H24 C25 1_555 1_555
H25 C25 1_555 1_555
N7 C25 1_555 1_555
C26 N7 1_555 1_555
H26 C26 1_555 1_555
N8 C26 1_555 1_555
C27 N8 1_555 1_555
H27 C27 1_555 1_555
C28 N7 1_555 1_555
H28 C28 1_555 1_555
N9 O1 1_555 1_555
O2 N9 1_555 1_555
O3 N9 1_555 1_555
N10 O4 1_555 1_555
O5 N10 1_555 1_555
O6 N10 1_555 1_555
O7 Cu1 1_555 1_555
H29 O7 1_555 1_555
C29 O7 1_555 1_555
H30 C29 1_555 1_555
H31 C29 1_555 1_555
H32 C29 1_555 1_555
O8 Cu2 1_555 1_555
H33 O8 1_555 1_555
H34 O8 1_555 1_555
O9 H35 1_555 1_555
H36 O9 1_555 1_555
Cu1_2 N4 1_555 1_555
Cu1_3 N4A 1_555 1_555
Cu2_2 N8 1_555 1_555
Cu2_3 N8A 1_555 1_555
N1A Cu1 1_555 1_555
C1A N1A 1_555 1_555
H1A C1A 1_555 1_555
N2A C1A 1_555 1_555
C2A N2A 1_555 1_555
H2A C2A 1_555 1_555
C3A N1A 1_555 1_555
H3A C3A 1_555 1_555
C4A N2A 1_555 1_555
H4A C4A 1_555 1_555
H5A C4A 1_555 1_555
C5A C4A 1_555 1_555
C6A C5A 1_555 1_555
H6A C6A 1_555 1_555
C7A C6A 1_555 1_555
H7A C7A 1_555 1_555
C8A C7A 1_555 1_555
H8A C8A 1_555 1_555
C9A C8A 1_555 1_555
C10A C5A 1_555 1_555
H9A C10A 1_555 1_555
C11A C9A 1_555 1_555
H10A C11A 1_555 1_555
H11A C11A 1_555 1_555
N3A C11A 1_555 1_555
C12A N3A 1_555 1_555
H12A C12A 1_555 1_555
N4A C12A 1_555 1_555
N4_2 Cu1 1_555 1_555
N4A_2 Cu1 1_555 1_555
C13A N4A 1_555 1_555
H13A C13A 1_555 1_555
C14A N3A 1_555 1_555
H14A C14A 1_555 1_555
N5A Cu2 1_555 1_555
C15A N5A 1_555 1_555
H15A C15A 1_555 1_555
N6A C15A 1_555 1_555
C16A N6A 1_555 1_555
H16A C16A 1_555 1_555
C17A N5A 1_555 1_555
H17A C17A 1_555 1_555
C18A N6A 1_555 1_555
H18A C18A 1_555 1_555
H19A C18A 1_555 1_555
C19A C18A 1_555 1_555
C20A C19A 1_555 1_555
H20A C20A 1_555 1_555
C21A C20A 1_555 1_555
C22A C21A 1_555 1_555
H21A C22A 1_555 1_555
C23A C22A 1_555 1_555
H22A C23A 1_555 1_555
C24A C19A 1_555 1_555
H23A C24A 1_555 1_555
C25A C21A 1_555 1_555
H24A C25A 1_555 1_555
H25A C25A 1_555 1_555
N7A C25A 1_555 1_555
C26A N7A 1_555 1_555
H26A C26A 1_555 1_555
N8A C26A 1_555 1_555
N8_2 Cu2 1_555 1_555
N8A_2 Cu2 1_555 1_555
C27A N8A 1_555 1_555
H27A C27A 1_555 1_555
C28A N7A 1_555 1_555
H28A C28A 1_555 1_555
O7A Cu1 1_555 1_555
H29A O7A 1_555 1_555
C29A O7A 1_555 1_555
H30A C29A 1_555 1_555
H31A C29A 1_555 1_555
H32A C29A 1_555 1_555
O8A Cu2 1_555 1_555
H33A O8A 1_555 1_555
H34A O8A 1_555 1_555
C2 C3 1_555 1_555
C9 C10 1_555 1_555
C13 C14 1_555 1_555
C16 C17 1_555 1_555
C23 C24 1_555 1_555
C27 C28 1_555 1_555
C2A C3A 1_555 1_555
C9A C10A 1_555 1_555
C13A C14A 1_555 1_555
C16A C17A 1_555 1_555
C23A C24A 1_555 1_555
C27A C28A 1_555 1_555

#END
