
#######################################################################
#
#                 Cambridge Crystallographic Data Centre
#                                CCDC 
#
#######################################################################
#
# If this CIF has been generated from an entry in the Cambridge 
# Structural Database, then it will include bibliographic, chemical, 
# crystal, experimental, refinement or atomic coordinate data resulting 
# from the CCDC's data processing and validation procedures.
#
#######################################################################

data_XODYEW
_symmetry_cell_setting           monoclinic
_symmetry_space_group_name_H-M   'P 21/n'
_symmetry_Int_Tables_number      14
_space_group_name_Hall           '-P 2yn'
loop_
_symmetry_equiv_pos_site_id
_symmetry_equiv_pos_as_xyz
1 x,y,z
2 1/2-x,1/2+y,1/2-z
3 -x,-y,-z
4 1/2+x,1/2-y,1/2+z
_cell_length_a                   11.0772(3)
_cell_length_b                   16.9999(2)
_cell_length_c                   11.6843(3)
_cell_angle_alpha                90
_cell_angle_beta                 103.628(1)
_cell_angle_gamma                90
_cell_volume                     2138.34
loop_
_atom_site_label
_atom_site_type_symbol
_atom_site_fract_x
_atom_site_fract_y
_atom_site_fract_z
Co1 Co 0.61610(3) 0.238576(18) 0.34507(3)
S1 S 0.74846(7) 0.21001(5) 0.14197(7)
S2 S 0.57089(8) 0.31500(5) 0.72918(8)
S3 S 0.93773(9) 0.42788(7) 0.32672(16)
N1 N 0.47394(17) 0.14430(11) 0.30393(18)
N2 N 0.02991(19) -0.16737(12) 0.19417(19)
N3 N 0.76429(18) 0.14581(12) 0.39797(18)
O1 O 0.62030(17) 0.22923(12) 0.16482(17)
N4 N 0.6038(2) 0.25004(14) 0.5192(2)
C1 C 0.4133(2) 0.12562(14) 0.1932(2)
H1 H 0.4315 0.1541 0.1314
N5 N 0.7569(2) 0.32360(14) 0.3613(2)
C2 C 0.2056(2) -0.04378(14) 0.2335(2)
C3 C 0.9512(2) 0.03082(14) 0.4782(2)
C4 C 0.5904(2) 0.27781(15) 0.6063(2)
C5 C 0.8725(2) 0.16319(15) 0.4734(2)
H2 H 0.8856 0.2149 0.4992
C6 C 0.2376(2) -0.11945(16) 0.2713(3)
H3 H 0.3187 -0.1308 0.3112
C7 C 0.8399(2) 0.01292(15) 0.3977(3)
H4 H 0.8257 -0.0379 0.3681
C8 C 0.4472(2) 0.10091(15) 0.3912(2)
H5 H 0.4874 0.1128 0.4685
C9 C 0.1486(2) -0.17869(15) 0.2498(3)
H6 H 0.1732 -0.2292 0.2758
C10 C 0.9657(2) 0.10903(15) 0.5153(2)
H7 H 1.0382 0.1248 0.5682
C11 C 0.7503(2) 0.07089(15) 0.3616(3)
H8 H 0.6765 0.0568 0.3092
C12 C -0.0003(3) -0.09390(16) 0.1552(3)
H9 H -0.0817 -0.0843 0.1145
C13 C 0.8323(3) 0.36663(17) 0.3468(3)
C14 C 0.3251(2) 0.06625(15) 0.1664(2)
H10 H 0.2842 0.0567 0.0886
C15 C 0.0831(3) -0.03161(16) 0.1720(3)
H11 H 0.0573 0.0180 0.1424
C16 C 0.7763(4) 0.2828(3) 0.0436(4)
H12 H 0.7051 0.2873 -0.0214
H13 H 0.8476 0.2684 0.0148
H14 H 0.7914 0.3324 0.0838
C17 C 0.7228(5) 0.1284(3) 0.0458(5)
H15 H 0.6943 0.0846 0.0842
H16 H 0.7989 0.1146 0.0250
H17 H 0.6611 0.1416 -0.0241
C18 C 0.3626(2) 0.03931(15) 0.3716(2)
H18 H 0.3487 0.0102 0.4347
C19 C 0.2983(2) 0.02117(14) 0.2567(2)
N3B N 1.23571(18) -0.14581(12) 0.60203(18)
C3B C 1.0488(2) -0.03082(14) 0.5218(2)
C5B C 1.1275(2) -0.16319(15) 0.5266(2)
H2B H 1.1144 -0.2149 0.5008
C7B C 1.1601(2) -0.01292(15) 0.6023(3)
H4B H 1.1743 0.0379 0.6319
C10B C 1.0343(2) -0.10903(15) 0.4847(2)
H7B H 0.9618 -0.1248 0.4318
C11B C 1.2497(2) -0.07089(15) 0.6384(3)
H8B H 1.3235 -0.0568 0.6908
Co1B Co 1.38390(3) -0.238576(18) 0.65493(3)
S1B S 1.25154(7) -0.21001(5) 0.85803(7)
S2B S 1.42911(8) -0.31500(5) 0.27082(8)
S3B S 1.06227(9) -0.42788(7) 0.67328(16)
N1B N 1.52606(17) -0.14430(11) 0.69607(18)
N2B N 1.97009(19) 0.16737(12) 0.80583(19)
O1B O 1.37970(17) -0.22923(12) 0.83518(17)
N4B N 1.3962(2) -0.25004(14) 0.4808(2)
C1B C 1.5867(2) -0.12562(14) 0.8068(2)
H1B H 1.5685 -0.1541 0.8686
N5B N 1.2431(2) -0.32360(14) 0.6387(2)
C2B C 1.7944(2) 0.04378(14) 0.7665(2)
C4B C 1.4096(2) -0.27781(15) 0.3937(2)
C6B C 1.7624(2) 0.11945(16) 0.7287(3)
H3B H 1.6813 0.1308 0.6888
C8B C 1.5528(2) -0.10091(15) 0.6088(2)
H5B H 1.5126 -0.1128 0.5315
C9B C 1.8514(2) 0.17869(15) 0.7502(3)
H6B H 1.8268 0.2292 0.7242
C12B C 2.0003(3) 0.09390(16) 0.8448(3)
H9B H 2.0817 0.0843 0.8855
C13B C 1.1677(3) -0.36663(17) 0.6532(3)
C14B C 1.6749(2) -0.06625(15) 0.8336(2)
H10B H 1.7158 -0.0567 0.9114
C15B C 1.9169(3) 0.03161(16) 0.8280(3)
H11B H 1.9427 -0.0180 0.8576
C16B C 1.2237(4) -0.2828(3) 0.9564(4)
H12B H 1.2949 -0.2873 1.0214
H13B H 1.1524 -0.2684 0.9852
H14B H 1.2086 -0.3324 0.9162
C17B C 1.2772(5) -0.1284(3) 0.9542(5)
H15B H 1.3057 -0.0846 0.9158
H16B H 1.2011 -0.1146 0.9750
H17B H 1.3389 -0.1416 1.0241
C18B C 1.6374(2) -0.03931(15) 0.6284(2)
H18B H 1.6513 -0.0102 0.5653
C19B C 1.7017(2) -0.02117(14) 0.7433(2)
Co1A Co -0.11610(3) -0.261424(18) 0.15493(3)
Co1C Co 2.11610(3) 0.261424(18) 0.84507(3)
N2A N 0.47009(19) 0.33263(12) 0.30583(19)
N2C N 1.52991(19) -0.33263(12) 0.69417(19)
loop_
_geom_bond_atom_site_label_1
_geom_bond_atom_site_label_2
_geom_bond_site_symmetry_1
_geom_bond_site_symmetry_2
Co1 N1 1_555 1_555
S1 O1 1_555 1_555
S2 C4 1_555 1_555
S3 C13 1_555 1_555
N1 C1 1_555 1_555
N2 C9 1_555 1_555
N3 Co1 1_555 1_555
O1 Co1 1_555 1_555
N4 Co1 1_555 1_555
C1 H1 1_555 1_555
N5 Co1 1_555 1_555
C2 C6 1_555 1_555
C3 C7 1_555 1_555
C4 N4 1_555 1_555
C5 N3 1_555 1_555
H2 C5 1_555 1_555
C6 H3 1_555 1_555
C7 H4 1_555 1_555
C8 N1 1_555 1_555
H5 C8 1_555 1_555
C9 C6 1_555 1_555
H6 C9 1_555 1_555
C10 C3 1_555 1_555
H7 C10 1_555 1_555
C11 N3 1_555 1_555
H8 C11 1_555 1_555
C12 N2 1_555 1_555
H9 C12 1_555 1_555
C13 N5 1_555 1_555
C14 C1 1_555 1_555
H10 C14 1_555 1_555
C15 C2 1_555 1_555
H11 C15 1_555 1_555
C16 S1 1_555 1_555
H12 C16 1_555 1_555
H13 C16 1_555 1_555
H14 C16 1_555 1_555
C17 S1 1_555 1_555
H15 C17 1_555 1_555
H16 C17 1_555 1_555
H17 C17 1_555 1_555
C18 C8 1_555 1_555
H18 C18 1_555 1_555
C19 C2 1_555 1_555
N3B C5B 1_555 1_555
C3B C3 1_555 1_555
C5B H2B 1_555 1_555
C7B C3B 1_555 1_555
H4B C7B 1_555 1_555
C10B C3B 1_555 1_555
H7B C10B 1_555 1_555
C11B N3B 1_555 1_555
H8B C11B 1_555 1_555
Co1B N3B 1_555 1_555
S1B O1B 1_555 1_555
S2B C4B 1_555 1_555
S3B C13B 1_555 1_555
N1B Co1B 1_555 1_555
N2B C9B 1_555 1_555
O1B Co1B 1_555 1_555
N4B Co1B 1_555 1_555
C1B N1B 1_555 1_555
H1B C1B 1_555 1_555
N5B Co1B 1_555 1_555
C2B C6B 1_555 1_555
C4B N4B 1_555 1_555
C6B H3B 1_555 1_555
C8B N1B 1_555 1_555
H5B C8B 1_555 1_555
C9B C6B 1_555 1_555
H6B C9B 1_555 1_555
C12B N2B 1_555 1_555
H9B C12B 1_555 1_555
C13B N5B 1_555 1_555
C14B C1B 1_555 1_555
H10B C14B 1_555 1_555
C15B C2B 1_555 1_555
H11B C15B 1_555 1_555
C16B S1B 1_555 1_555
H12B C16B 1_555 1_555
H13B C16B 1_555 1_555
H14B C16B 1_555 1_555
C17B S1B 1_555 1_555
H15B C17B 1_555 1_555
H16B C17B 1_555 1_555
H17B C17B 1_555 1_555
C18B C8B 1_555 1_555
H18B C18B 1_555 1_555
C19B C2B 1_555 1_555
Co1A N2 1_555 1_555
Co1C N2B 1_555 1_555
N2A Co1 1_555 1_555
N2C Co1B 1_555 1_555
C5 C10 1_555 1_555
C7 C11 1_555 1_555
C12 C15 1_555 1_555
C14 C19 1_555 1_555
C18 C19 1_555 1_555
C5B C10B 1_555 1_555
C7B C11B 1_555 1_555
C12B C15B 1_555 1_555
C14B C19B 1_555 1_555
C18B C19B 1_555 1_555

#END
