
#######################################################################
#
#                 Cambridge Crystallographic Data Centre
#                                CCDC 
#
#######################################################################
#
# If this CIF has been generated from an entry in the Cambridge 
# Structural Database, then it will include bibliographic, chemical, 
# crystal, experimental, refinement or atomic coordinate data resulting 
# from the CCDC's data processing and validation procedures.
#
#######################################################################

data_XODZEX
_symmetry_cell_setting           monoclinic
_symmetry_space_group_name_H-M   'C 2/c'
_symmetry_Int_Tables_number      15
_space_group_name_Hall           '-C 2yn'
loop_
_symmetry_equiv_pos_site_id
_symmetry_equiv_pos_as_xyz
1 x,y,z
2 1/2+x,1/2+y,z
3 -x,y,1/2-z
4 1/2-x,1/2+y,1/2-z
5 -x,-y,-z
6 1/2-x,1/2-y,-z
7 x,-y,1/2+z
8 1/2+x,1/2-y,1/2+z
_cell_length_a                   29.5408(7)
_cell_length_b                   4.07950(10)
_cell_length_c                   14.3164(3)
_cell_angle_alpha                90
_cell_angle_beta                 111.712(3)
_cell_angle_gamma                90
_cell_volume                     1602.89
loop_
_atom_site_label
_atom_site_type_symbol
_atom_site_fract_x
_atom_site_fract_y
_atom_site_fract_z
I1 I 0.220190(8) 0.31394(6) 0.101635(17)
Cu1 Cu 0.268365(16) 0.80730(12) 0.20718(3)
N1 N 0.33830(11) 0.8564(7) 0.2104(2)
C1 C 0.37134(13) 1.0182(9) 0.2869(3)
C2 C 0.41814(13) 1.0748(9) 0.2896(3)
N2 N 0.43237(11) 0.9779(7) 0.2156(2)
C3 C 0.39912(14) 0.8216(10) 0.1390(3)
C4 C 0.35231(13) 0.7580(8) 0.1366(3)
C5 C 0.45324(13) 1.2545(8) 0.3789(3)
O1 O 0.43762(9) 1.3879(7) 0.4387(2)
N3 N 0.49934(11) 1.2586(7) 0.3874(2)
H1 H 0.3625 1.0951 0.3397
H2 H 0.4076 0.7545 0.0853
H3 H 0.3305 0.6449 0.0825
H4 H 0.5204 1.3547 0.4365
H5 H 0.5094 1.1527 0.3464
I1_2 I 0.220190(8) 1.31394(6) 0.101635(17)
I1C I 0.279810(8) 0.81394(6) 0.398365(17)
Cu1_2 Cu 0.268365(16) -0.19270(12) 0.20718(3)
Cu1C Cu 0.231635(16) 0.30730(12) 0.29282(3)
Cu1C_2 Cu 0.231635(16) 1.30730(12) 0.29282(3)
loop_
_geom_bond_atom_site_label_1
_geom_bond_atom_site_label_2
_geom_bond_site_symmetry_1
_geom_bond_site_symmetry_2
I1 Cu1 1_555 1_555
Cu1 N1 1_555 1_555
N1 C1 1_555 1_555
C1 C2 1_555 1_555
C2 N2 1_555 1_555
N2 C3 1_555 1_555
C3 C4 1_555 1_555
C4 N1 1_555 1_555
C5 C2 1_555 1_555
O1 C5 1_555 1_555
N3 C5 1_555 1_555
H1 C1 1_555 1_555
H2 C3 1_555 1_555
H3 C4 1_555 1_555
H4 N3 1_555 1_555
H5 N3 1_555 1_555
I1_2 Cu1 1_555 1_555
I1C Cu1 1_555 1_555
Cu1_2 I1 1_555 1_555
Cu1C I1 1_555 1_555
Cu1C_2 Cu1 1_555 1_555
Cu1 Cu1C 1_555 1_555
I1_2 Cu1C_2 1_555 1_555
I1C Cu1C 1_555 1_555
I1C Cu1C_2 1_555 1_555
Cu1_2 Cu1C 1_555 1_555

#END
