
#######################################################################
#
#                 Cambridge Crystallographic Data Centre
#                                CCDC 
#
#######################################################################
#
# If this CIF has been generated from an entry in the Cambridge 
# Structural Database, then it will include bibliographic, chemical, 
# crystal, experimental, refinement or atomic coordinate data resulting 
# from the CCDC's data processing and validation procedures.
#
#######################################################################

data_XOFBEB
_symmetry_cell_setting           monoclinic
_symmetry_space_group_name_H-M   'P 21/c'
_symmetry_Int_Tables_number      14
_space_group_name_Hall           '-P 2ybc'
loop_
_symmetry_equiv_pos_site_id
_symmetry_equiv_pos_as_xyz
1 x,y,z
2 -x,1/2+y,1/2-z
3 -x,-y,-z
4 x,1/2-y,1/2+z
_cell_length_a                   16.493(1)
_cell_length_b                   9.7017(5)
_cell_length_c                   17.908(1)
_cell_angle_alpha                90
_cell_angle_beta                 102.426(6)
_cell_angle_gamma                90
_cell_volume                     2798.34
loop_
_atom_site_label
_atom_site_type_symbol
_atom_site_fract_x
_atom_site_fract_y
_atom_site_fract_z
Cu1 Cu 0.15663(3) 1.12441(4) 0.51735(2)
Cu2 Cu 0.34511(3) 0.94695(4) 0.52697(2)
N1 N 0.06719(18) 1.2037(3) 0.56556(15)
N2 N 0.11195(18) 0.9485(3) 0.55432(16)
N3 N 0.45778(18) 0.8754(3) 0.57948(15)
N4 N 0.40277(18) 1.1262(3) 0.56267(15)
O1 O 0.17136(15) 1.2007(2) 0.96699(12)
O2 O 0.24185(15) 1.0324(2) 0.48006(12)
O3 O 0.24286(15) 1.1348(2) 0.63702(12)
O4 O 0.30490(15) 0.9281(2) 0.64187(12)
O5 O 0.13890(16) 1.3084(2) 0.85481(13)
O6 O 0.31266(15) 0.7355(2) 0.98045(12)
O7 O 0.3028(2) 0.6298(2) 0.86878(14)
C1 C 0.0448(2) 1.3358(4) 0.5645(2)
H1 H 0.0702 1.3998 0.5364
C2 C -0.0140(2) 1.3825(4) 0.6028(2)
H2 H -0.0294 1.4770 0.6004
C3 C -0.0502(3) 1.2912(4) 0.6446(2)
H3 H -0.0898 1.3218 0.6725
C4 C -0.0276(3) 1.1533(4) 0.6451(2)
H4 H -0.0527 1.0873 0.6722
C5 C 0.0316(2) 1.1135(4) 0.60598(18)
C6 C 0.0611(2) 0.9704(4) 0.6032(2)
C7 C 0.0414(3) 0.8645(4) 0.6488(2)
H5 H 0.0059 0.8809 0.6831
C8 C 0.0744(3) 0.7355(4) 0.6431(2)
H6 H 0.0622 0.6621 0.6741
C9 C 0.1252(3) 0.7130(4) 0.5925(2)
H7 H 0.1481 0.6244 0.5880
C10 C 0.1423(2) 0.8217(4) 0.5483(2)
H8 H 0.1764 0.8061 0.5126
C11 C 0.4853(2) 0.7458(4) 0.5792(2)
H9 H 0.4533 0.6805 0.5458
C12 C 0.5594(3) 0.7043(4) 0.6264(2)
H10 H 0.5795 0.6131 0.6234
C13 C 0.6037(3) 0.7976(4) 0.6779(2)
H11 H 0.6527 0.7695 0.7129
C14 C 0.5763(2) 0.9309(4) 0.6779(2)
H12 H 0.6066 0.9970 0.7121
C15 C 0.5031(2) 0.9676(3) 0.62682(19)
C16 C 0.4712(2) 1.1104(3) 0.61762(19)
C17 C 0.5086(2) 1.2213(4) 0.6617(2)
H13 H 0.5558 1.2073 0.7019
C18 C 0.4759(3) 1.3511(4) 0.6460(2)
H14 H 0.4998 1.4281 0.6755
C19 C 0.4070(2) 1.3679(4) 0.5859(2)
H15 H 0.3850 1.4572 0.5724
C20 C 0.3711(2) 1.2534(4) 0.5464(2)
H16 H 0.3229 1.2645 0.5069
C21 C 0.2685(2) 1.0230(3) 0.66996(17)
C22 C 0.2545(2) 1.0030(3) 0.75023(17)
C23 C 0.2148(2) 1.1040(3) 0.78405(17)
H17 H 0.1922 1.1824 0.7551
C24 C 0.2075(2) 1.0922(3) 0.85994(17)
C25 C 0.2373(2) 0.9754(3) 0.90225(18)
H18 H 0.2345 0.9684 0.9545
C26 C 0.2715(2) 0.8687(3) 0.86660(18)
C27 C 0.2982(2) 0.7339(3) 0.90773(19)
C28 C 0.2803(2) 0.8831(3) 0.79174(18)
H19 H 0.3043 0.8103 0.7683
C29 C 0.1689(2) 1.2103(3) 0.89620(18)
H20 H 0.230(3) 1.033(4) 0.42861(17)
Cu1C Cu 0.15663(3) 1.37559(4) 1.01735(2)
Cu2C Cu 0.34511(3) 0.55305(4) 1.02697(2)
O1C O 0.17136(15) 1.2993(2) 0.46699(12)
O6C O 0.31266(15) 0.7645(2) 0.48045(12)
O8 O 0.3559(2) 0.6465(3) 0.67326(16)
H21 H 0.319(3) 0.597(4) 0.665(2)
H22 H 0.331(3) 0.719(5) 0.656(2)
O9 O 0.1725(3) 0.5142(4) 0.76325(19)
H23 H 0.167(3) 0.445(5) 0.785(3)
H24 H 0.213(4) 0.554(6) 0.786(3)
O10 O 0.2372(2) 1.4313(3) 0.64258(18)
H25 H 0.247(4) 1.359(5) 0.646(3)
H26 H 0.210(2) 1.441(4) 0.679(2)
loop_
_geom_bond_atom_site_label_1
_geom_bond_atom_site_label_2
_geom_bond_site_symmetry_1
_geom_bond_site_symmetry_2
Cu1 N1 1_555 1_555
Cu2 N3 1_555 1_555
N1 C1 1_555 1_555
N2 Cu1 1_555 1_555
N3 C11 1_555 1_555
N4 Cu2 1_555 1_555
O1 C29 1_555 1_555
O2 Cu1 1_555 1_555
O3 Cu1 1_555 1_555
O4 Cu2 1_555 1_555
O5 C29 1_555 1_555
O6 C27 1_555 1_555
O7 C27 1_555 1_555
C1 H1 1_555 1_555
C2 C1 1_555 1_555
H2 C2 1_555 1_555
C3 C2 1_555 1_555
H3 C3 1_555 1_555
C4 C3 1_555 1_555
H4 C4 1_555 1_555
C5 N1 1_555 1_555
C6 N2 1_555 1_555
C7 C6 1_555 1_555
H5 C7 1_555 1_555
C8 C7 1_555 1_555
H6 C8 1_555 1_555
C9 C8 1_555 1_555
H7 C9 1_555 1_555
C10 N2 1_555 1_555
H8 C10 1_555 1_555
C11 H9 1_555 1_555
C12 C11 1_555 1_555
H10 C12 1_555 1_555
C13 C12 1_555 1_555
H11 C13 1_555 1_555
C14 C13 1_555 1_555
H12 C14 1_555 1_555
C15 N3 1_555 1_555
C16 N4 1_555 1_555
C17 C16 1_555 1_555
H13 C17 1_555 1_555
C18 C17 1_555 1_555
H14 C18 1_555 1_555
C19 C18 1_555 1_555
H15 C19 1_555 1_555
C20 N4 1_555 1_555
H16 C20 1_555 1_555
C21 O3 1_555 1_555
C22 C21 1_555 1_555
C23 C22 1_555 1_555
H17 C23 1_555 1_555
C24 C23 1_555 1_555
C25 C24 1_555 1_555
H18 C25 1_555 1_555
C26 C25 1_555 1_555
C27 C26 1_555 1_555
C28 C22 1_555 1_555
H19 C28 1_555 1_555
C29 C24 1_555 1_555
H20 O2 1_555 1_555
O8 H21 1_555 1_555
H22 O8 1_555 1_555
O9 H23 1_555 1_555
H24 O9 1_555 1_555
O10 H25 1_555 1_555
H26 O10 1_555 1_555
Cu1C O1 1_555 1_555
Cu2C O6 1_555 1_555
O1C Cu1 1_555 1_555
O6C Cu2 1_555 1_555
Cu2 O2 1_555 1_555
O4 C21 1_555 1_555
C4 C5 1_555 1_555
C5 C6 1_555 1_555
C9 C10 1_555 1_555
C14 C15 1_555 1_555
C15 C16 1_555 1_555
C19 C20 1_555 1_555
C26 C28 1_555 1_555

#END
