
#######################################################################
#
#                 Cambridge Crystallographic Data Centre
#                                CCDC 
#
#######################################################################
#
# If this CIF has been generated from an entry in the Cambridge 
# Structural Database, then it will include bibliographic, chemical, 
# crystal, experimental, refinement or atomic coordinate data resulting 
# from the CCDC's data processing and validation procedures.
#
#######################################################################

data_XOFCUR
_symmetry_cell_setting           orthorhombic
_symmetry_space_group_name_H-M   'P n m a'
_symmetry_Int_Tables_number      62
_space_group_name_Hall           '-P 2ac 2n'
loop_
_symmetry_equiv_pos_site_id
_symmetry_equiv_pos_as_xyz
1 x,y,z
2 1/2-x,-y,1/2+z
3 -x,1/2+y,-z
4 1/2+x,1/2-y,1/2-z
5 -x,-y,-z
6 1/2+x,y,1/2-z
7 x,1/2-y,z
8 1/2-x,1/2+y,1/2+z
_cell_length_a                   12.2897(18)
_cell_length_b                   20.474(2)
_cell_length_c                   10.2000(17)
_cell_angle_alpha                90
_cell_angle_beta                 90
_cell_angle_gamma                90
_cell_volume                     2566.52
loop_
_atom_site_label
_atom_site_type_symbol
_atom_site_fract_x
_atom_site_fract_y
_atom_site_fract_z
Sn1 Sn 0.24095(3) 0.2500 0.19193(4)
O1 O 0.4116(3) 0.3104(2) 0.4887(4)
O2 O 0.4030(4) 0.2500 0.2813(4)
O3 O 0.5774(4) 0.2500 0.4148(5)
P1 P 0.45772(13) 0.2500 0.41278(16)
C1 C 0.4524(6) 0.3327(4) 0.6111(6)
H1 H 0.5312 0.3346 0.6075
H2 H 0.4322 0.3020 0.6794
C2 C 0.4104(8) 0.3963(5) 0.6431(8)
H3 H 0.4236 0.4256 0.5715
H4 H 0.4460 0.4124 0.7204
H5 H 0.3336 0.3933 0.6588
C3 C 0.2030(4) 0.3440(3) 0.2736(5)
H6 H 0.1248 0.3486 0.2816
H7 H 0.2346 0.3476 0.3605
C4 C 0.2466(4) 0.3966(3) 0.1883(5)
C5 C 0.3474(6) 0.4242(3) 0.2120(7)
H8 H 0.3884 0.4107 0.2837
C6 C 0.3878(9) 0.4725(5) 0.1277(10)
H9 H 0.4548 0.4919 0.1446
C7 C 0.3290(13) 0.4911(5) 0.0210(13)
H10 H 0.3568 0.5230 -0.0348
C8 C 0.2325(11) 0.4647(5) -0.0049(11)
H11 H 0.1937 0.4776 -0.0788
C9 C 0.1899(7) 0.4178(3) 0.0791(7)
H12 H 0.1217 0.4001 0.0614
C10 C 0.3009(5) 0.2500 -0.0051(6)
H13 H 0.2708 0.2119 -0.0485
H14 H 0.2708 0.2881 -0.0485
C11 C 0.4218(5) 0.2500 -0.0307(5)
C12 C 0.4760(5) 0.3078(3) -0.0461(5)
H15 H 0.4398 0.3473 -0.0341
C13 C 0.5864(5) 0.3073(4) -0.0799(6)
H16 H 0.6235 0.3464 -0.0917
C14 C 0.6389(7) 0.2500 -0.0953(9)
H17 H 0.7124 0.2500 -0.1170
Sn1E Sn 0.74095(3) 0.2500 0.30807(4)
O1F O 0.4116(3) 0.1896(2) 0.4887(4)
O3E O 0.0774(4) 0.2500 0.0852(5)
C1F C 0.4524(6) 0.1673(4) 0.6111(6)
H1F H 0.5312 0.1654 0.6075
H2F H 0.4322 0.1980 0.6794
C2F C 0.4104(8) 0.1037(5) 0.6431(8)
H3F H 0.4236 0.0744 0.5715
H4F H 0.4460 0.0876 0.7204
H5F H 0.3336 0.1067 0.6588
C3F C 0.2030(4) 0.1560(3) 0.2736(5)
H6F H 0.1248 0.1514 0.2816
H7F H 0.2346 0.1524 0.3605
C4F C 0.2466(4) 0.1034(3) 0.1883(5)
C5F C 0.3474(6) 0.0758(3) 0.2120(7)
H8F H 0.3884 0.0893 0.2837
C6F C 0.3878(9) 0.0275(5) 0.1277(10)
H9F H 0.4548 0.0081 0.1446
C7F C 0.3290(13) 0.0089(5) 0.0210(13)
H10F H 0.3568 -0.0230 -0.0348
C8F C 0.2325(11) 0.0353(5) -0.0049(11)
H11F H 0.1937 0.0224 -0.0788
C9F C 0.1899(7) 0.0822(3) 0.0791(7)
H12F H 0.1217 0.0999 0.0614
C12F C 0.4760(5) 0.1922(3) -0.0461(5)
H15F H 0.4398 0.1527 -0.0341
C13F C 0.5864(5) 0.1927(4) -0.0799(6)
H16F H 0.6235 0.1536 -0.0917
loop_
_geom_bond_atom_site_label_1
_geom_bond_atom_site_label_2
_geom_bond_site_symmetry_1
_geom_bond_site_symmetry_2
Sn1 O2 1_555 1_555
O1 P1 1_555 1_555
O2 P1 1_555 1_555
O3 P1 1_555 1_555
P1 O1F 1_555 1_555
C1 O1 1_555 1_555
H1 C1 1_555 1_555
H2 C1 1_555 1_555
C2 C1 1_555 1_555
H3 C2 1_555 1_555
H4 C2 1_555 1_555
H5 C2 1_555 1_555
C3 Sn1 1_555 1_555
H6 C3 1_555 1_555
H7 C3 1_555 1_555
C4 C3 1_555 1_555
C5 C4 1_555 1_555
H8 C5 1_555 1_555
C6 C5 1_555 1_555
H9 C6 1_555 1_555
C7 C6 1_555 1_555
H10 C7 1_555 1_555
C8 C7 1_555 1_555
H11 C8 1_555 1_555
C9 C4 1_555 1_555
H12 C9 1_555 1_555
C10 Sn1 1_555 1_555
H13 C10 1_555 1_555
H14 C10 1_555 1_555
C11 C10 1_555 1_555
C12 C11 1_555 1_555
H15 C12 1_555 1_555
C13 C12 1_555 1_555
H16 C13 1_555 1_555
C14 C13 1_555 1_555
H17 C14 1_555 1_555
Sn1E O3 1_555 1_555
O1F C1F 1_555 1_555
O3E Sn1 1_555 1_555
C1F H1F 1_555 1_555
H2F C1F 1_555 1_555
C2F C1F 1_555 1_555
H3F C2F 1_555 1_555
H4F C2F 1_555 1_555
H5F C2F 1_555 1_555
C3F Sn1 1_555 1_555
H6F C3F 1_555 1_555
H7F C3F 1_555 1_555
C4F C3F 1_555 1_555
C5F C4F 1_555 1_555
H8F C5F 1_555 1_555
C6F C5F 1_555 1_555
H9F C6F 1_555 1_555
C7F C6F 1_555 1_555
H10F C7F 1_555 1_555
C8F C7F 1_555 1_555
H11F C8F 1_555 1_555
C9F C4F 1_555 1_555
H12F C9F 1_555 1_555
C12F C11 1_555 1_555
H15F C12F 1_555 1_555
C13F C14 1_555 1_555
H16F C13F 1_555 1_555
C8 C9 1_555 1_555
C8F C9F 1_555 1_555
C12F C13F 1_555 1_555

#END
