
#######################################################################
#
#                 Cambridge Crystallographic Data Centre
#                                CCDC 
#
#######################################################################
#
# If this CIF has been generated from an entry in the Cambridge 
# Structural Database, then it will include bibliographic, chemical, 
# crystal, experimental, refinement or atomic coordinate data resulting 
# from the CCDC's data processing and validation procedures.
#
#######################################################################

data_XOFCEB
_symmetry_cell_setting           triclinic
_symmetry_space_group_name_H-M   'P -1'
_symmetry_Int_Tables_number      2
_space_group_name_Hall           '-P 1'
loop_
_symmetry_equiv_pos_site_id
_symmetry_equiv_pos_as_xyz
1 x,y,z
2 -x,-y,-z
_cell_length_a                   9.8041(14)
_cell_length_b                   12.8982(18)
_cell_length_c                   18.552(3)
_cell_angle_alpha                100.616(5)
_cell_angle_beta                 93.739(5)
_cell_angle_gamma                102.819(5)
_cell_volume                     2234.56
loop_
_atom_site_label
_atom_site_type_symbol
_atom_site_fract_x
_atom_site_fract_y
_atom_site_fract_z
Sn1 Sn 0.61162(9) 0.15525(6) 0.24664(4)
Sn2 Sn 0.63731(8) -0.33163(6) 0.28706(4)
P1 P 0.7075(4) -0.0411(2) 0.3442(2)
P2 P 0.5898(4) 0.3992(2) 0.18055(19)
O1 O 0.6459(9) 0.0177(6) 0.2943(4)
O2 O 0.6585(9) -0.1586(6) 0.3291(5)
O3 O 0.6882(12) 0.0093(7) 0.4264(6)
O4 O 0.8591(14) -0.0181(9) 0.3507(6)
O5 O 0.6077(8) 0.4937(6) 0.2409(4)
O6 O 0.5742(9) 0.2929(5) 0.2004(4)
O7 O 0.4419(11) 0.3844(7) 0.1268(5)
O8 O 0.7153(10) 0.4269(7) 0.1356(5)
C1 C 0.6938(19) -0.0429(13) 0.4896(9)
H1 H 0.6113 -0.1024 0.4846
H2 H 0.7764 -0.0726 0.4904
C2 C 0.699(2) 0.0301(15) 0.5551(9)
H3 H 0.7954 0.0596 0.5757
H4 H 0.6480 -0.0065 0.5892
H5 H 0.6576 0.0878 0.5458
C3 C 0.9700(18) 0.0152(14) 0.3197(9)
H6 H 0.9387 0.0744 0.3038
H7 H 0.9458 -0.0426 0.2761
C4 C 1.113(2) 0.0513(17) 0.3078(11)
H8 H 1.1722 0.0596 0.3527
H9 H 1.1257 0.1197 0.2926
H10 H 1.1365 -0.0012 0.2700
C5 C 0.8111(14) 0.1750(10) 0.2087(7)
C6 C 0.9175(16) 0.2704(10) 0.2300(7)
H11 H 0.9026 0.3296 0.2628
C7 C 1.0487(17) 0.2758(12) 0.2007(8)
H12 H 1.1206 0.3384 0.2156
C8 C 1.0704(17) 0.1928(13) 0.1523(8)
H13 H 1.1567 0.1972 0.1335
C9 C 0.9701(16) 0.1059(11) 0.1316(8)
H14 H 0.9862 0.0490 0.0971
C10 C 0.8405(15) 0.0933(11) 0.1581(7)
H15 H 0.7724 0.0288 0.1415
C11 C 0.5645(14) 0.2343(8) 0.3489(7)
C12 C 0.4457(14) 0.2720(9) 0.3534(7)
H16 H 0.3870 0.2655 0.3105
C13 C 0.4107(14) 0.3197(10) 0.4203(8)
H17 H 0.3277 0.3433 0.4224
C14 C 0.4972(15) 0.3322(10) 0.4833(8)
H18 H 0.4738 0.3664 0.5279
C15 C 0.6187(14) 0.2952(9) 0.4825(7)
H19 H 0.6783 0.3032 0.5253
C16 C 0.6470(13) 0.2456(8) 0.4145(7)
H20 H 0.7269 0.2178 0.4127
C17 C 0.4499(14) 0.0489(9) 0.1708(7)
C18 C 0.4162(16) 0.0672(11) 0.1033(8)
H21 H 0.4639 0.1319 0.0918
C19 C 0.3150(16) -0.0040(12) 0.0490(8)
H22 H 0.2996 0.0110 0.0024
C20 C 0.2411(17) -0.0945(12) 0.0670(9)
H23 H 0.1744 -0.1451 0.0326
C21 C 0.2652(17) -0.1104(12) 0.1351(9)
H24 H 0.2109 -0.1717 0.1479
C22 C 0.3650(16) -0.0417(11) 0.1866(8)
H25 H 0.3760 -0.0565 0.2336
C23 C 0.410(2) 0.4667(14) 0.0880(10)
H26 H 0.4838 0.5328 0.1018
H27 H 0.4043 0.4407 0.0351
C24 C 0.282(2) 0.4884(15) 0.1060(10)
H28 H 0.2098 0.4222 0.0944
H29 H 0.2586 0.5391 0.0783
H30 H 0.2898 0.5189 0.1578
C25 C 0.7391(18) 0.3525(12) 0.0702(8)
H31 H 0.7386 0.2819 0.0815
H32 H 0.6658 0.3433 0.0303
C26 C 0.8703(17) 0.3987(14) 0.0500(9)
H33 H 0.8610 0.4539 0.0230
H34 H 0.9047 0.3435 0.0196
H35 H 0.9354 0.4303 0.0935
C27 C 0.7770(11) -0.3464(9) 0.3740(6)
C28 C 0.8767(13) -0.2560(9) 0.4147(7)
H36 H 0.8867 -0.1892 0.4010
C29 C 0.9617(12) -0.2648(10) 0.4759(7)
H37 H 1.0311 -0.2050 0.5007
C30 C 0.9433(13) -0.3596(11) 0.4991(7)
H38 H 0.9986 -0.3648 0.5403
C31 C 0.8450(13) -0.4466(10) 0.4624(7)
H39 H 0.8314 -0.5118 0.4786
C32 C 0.7649(12) -0.4394(9) 0.4013(7)
H40 H 0.6983 -0.5012 0.3769
C33 C 0.7073(16) -0.2912(10) 0.1878(7)
C34 C 0.8219(17) -0.3109(11) 0.1638(8)
H41 H 0.8739 -0.3473 0.1895
C35 C 0.8712(18) -0.2770(12) 0.0970(9)
H42 H 0.9541 -0.2897 0.0796
C36 C 0.788(2) -0.2257(12) 0.0621(9)
H43 H 0.8195 -0.1999 0.0210
C37 C 0.6681(19) -0.2099(11) 0.0813(9)
H44 H 0.6103 -0.1803 0.0535
C38 C 0.6337(17) -0.2406(10) 0.1465(8)
H45 H 0.5521 -0.2252 0.1640
C39 C 0.4200(12) -0.3621(9) 0.3029(6)
C40 C 0.3432(14) -0.2848(10) 0.2945(7)
H46 H 0.3870 -0.2189 0.2833
C41 C 0.2004(14) -0.3079(11) 0.3031(7)
H47 H 0.1488 -0.2579 0.2950
C42 C 0.1343(14) -0.3997(12) 0.3227(7)
H48 H 0.0391 -0.4127 0.3289
C43 C 0.2097(14) -0.4726(11) 0.3331(7)
H49 H 0.1661 -0.5353 0.3485
C44 C 0.3487(13) -0.4565(10) 0.3216(6)
H50 H 0.3959 -0.5104 0.3264
Sn2_2 Sn 0.63731(8) 0.66837(6) 0.28706(4)
O5_2 O 0.6077(8) -0.5063(6) 0.2409(4)
loop_
_geom_bond_atom_site_label_1
_geom_bond_atom_site_label_2
_geom_bond_site_symmetry_1
_geom_bond_site_symmetry_2
Sn1 O1 1_555 1_555
Sn2 O2 1_555 1_555
P1 O1 1_555 1_555
P2 O5 1_555 1_555
O2 P1 1_555 1_555
O3 P1 1_555 1_555
O4 P1 1_555 1_555
O5 Sn2_2 1_555 1_555
O6 Sn1 1_555 1_555
O7 P2 1_555 1_555
O8 P2 1_555 1_555
C1 O3 1_555 1_555
H1 C1 1_555 1_555
H2 C1 1_555 1_555
C2 C1 1_555 1_555
H3 C2 1_555 1_555
H4 C2 1_555 1_555
H5 C2 1_555 1_555
C3 O4 1_555 1_555
H6 C3 1_555 1_555
H7 C3 1_555 1_555
C4 C3 1_555 1_555
H8 C4 1_555 1_555
H9 C4 1_555 1_555
H10 C4 1_555 1_555
C5 Sn1 1_555 1_555
C6 C5 1_555 1_555
H11 C6 1_555 1_555
C7 C6 1_555 1_555
H12 C7 1_555 1_555
C8 C7 1_555 1_555
H13 C8 1_555 1_555
C9 C8 1_555 1_555
H14 C9 1_555 1_555
C10 C5 1_555 1_555
H15 C10 1_555 1_555
C11 Sn1 1_555 1_555
C12 C11 1_555 1_555
H16 C12 1_555 1_555
C13 C12 1_555 1_555
H17 C13 1_555 1_555
C14 C13 1_555 1_555
H18 C14 1_555 1_555
C15 C14 1_555 1_555
H19 C15 1_555 1_555
C16 C11 1_555 1_555
H20 C16 1_555 1_555
C17 Sn1 1_555 1_555
C18 C17 1_555 1_555
H21 C18 1_555 1_555
C19 C18 1_555 1_555
H22 C19 1_555 1_555
C20 C19 1_555 1_555
H23 C20 1_555 1_555
C21 C20 1_555 1_555
H24 C21 1_555 1_555
C22 C17 1_555 1_555
H25 C22 1_555 1_555
C23 O7 1_555 1_555
H26 C23 1_555 1_555
H27 C23 1_555 1_555
C24 C23 1_555 1_555
H28 C24 1_555 1_555
H29 C24 1_555 1_555
H30 C24 1_555 1_555
C25 O8 1_555 1_555
H31 C25 1_555 1_555
H32 C25 1_555 1_555
C26 C25 1_555 1_555
H33 C26 1_555 1_555
H34 C26 1_555 1_555
H35 C26 1_555 1_555
C27 Sn2 1_555 1_555
C28 C27 1_555 1_555
H36 C28 1_555 1_555
C29 C28 1_555 1_555
H37 C29 1_555 1_555
C30 C29 1_555 1_555
H38 C30 1_555 1_555
C31 C30 1_555 1_555
H39 C31 1_555 1_555
C32 C27 1_555 1_555
H40 C32 1_555 1_555
C33 Sn2 1_555 1_555
C34 C33 1_555 1_555
H41 C34 1_555 1_555
C35 C34 1_555 1_555
H42 C35 1_555 1_555
C36 C35 1_555 1_555
H43 C36 1_555 1_555
C37 C36 1_555 1_555
H44 C37 1_555 1_555
C38 C33 1_555 1_555
H45 C38 1_555 1_555
C39 Sn2 1_555 1_555
C40 C39 1_555 1_555
H46 C40 1_555 1_555
C41 C40 1_555 1_555
H47 C41 1_555 1_555
C42 C41 1_555 1_555
H48 C42 1_555 1_555
C43 C42 1_555 1_555
H49 C43 1_555 1_555
C44 C39 1_555 1_555
H50 C44 1_555 1_555
O5_2 Sn2 1_555 1_555
P2 O6 1_555 1_555
C9 C10 1_555 1_555
C15 C16 1_555 1_555
C21 C22 1_555 1_555
C31 C32 1_555 1_555
C37 C38 1_555 1_555
C43 C44 1_555 1_555

#END
