
#######################################################################
#
#                 Cambridge Crystallographic Data Centre
#                                CCDC 
#
#######################################################################
#
# If this CIF has been generated from an entry in the Cambridge 
# Structural Database, then it will include bibliographic, chemical, 
# crystal, experimental, refinement or atomic coordinate data resulting 
# from the CCDC's data processing and validation procedures.
#
#######################################################################

data_XOFGEG
_symmetry_cell_setting           cubic
_symmetry_space_group_name_H-M   'I m -3'
_symmetry_Int_Tables_number      204
_space_group_name_Hall           '-I 2 2 3'
loop_
_symmetry_equiv_pos_site_id
_symmetry_equiv_pos_as_xyz
1 x,y,z
2 -x,-y,z
3 -x,y,-z
4 x,-y,-z
5 z,x,y
6 z,-x,-y
7 -z,-x,y
8 -z,x,-y
9 y,z,x
10 -y,z,-x
11 y,-z,-x
12 -y,-z,x
13 1/2+x,1/2+y,1/2+z
14 1/2-x,1/2-y,1/2+z
15 1/2-x,1/2+y,1/2-z
16 1/2+x,1/2-y,1/2-z
17 1/2+z,1/2+x,1/2+y
18 1/2+z,1/2-x,1/2-y
19 1/2-z,1/2-x,1/2+y
20 1/2-z,1/2+x,1/2-y
21 1/2+y,1/2+z,1/2+x
22 1/2-y,1/2+z,1/2-x
23 1/2+y,1/2-z,1/2-x
24 1/2-y,1/2-z,1/2+x
25 -x,-y,-z
26 x,y,-z
27 x,-y,z
28 -x,y,z
29 -z,-x,-y
30 -z,x,y
31 z,x,-y
32 z,-x,y
33 -y,-z,-x
34 y,-z,x
35 -y,z,x
36 y,z,-x
37 1/2-x,1/2-y,1/2-z
38 1/2+x,1/2+y,1/2-z
39 1/2+x,1/2-y,1/2+z
40 1/2-x,1/2+y,1/2+z
41 1/2-z,1/2-x,1/2-y
42 1/2-z,1/2+x,1/2+y
43 1/2+z,1/2+x,1/2-y
44 1/2+z,1/2-x,1/2+y
45 1/2-y,1/2-z,1/2-x
46 1/2+y,1/2-z,1/2+x
47 1/2-y,1/2+z,1/2+x
48 1/2+y,1/2+z,1/2-x
_cell_length_a                   37.9569(9)
_cell_length_b                   37.9569(9)
_cell_length_c                   37.9569(9)
_cell_angle_alpha                90
_cell_angle_beta                 90
_cell_angle_gamma                90
_cell_volume                     54685.5
loop_
_atom_site_label
_atom_site_type_symbol
_atom_site_fract_x
_atom_site_fract_y
_atom_site_fract_z
Gd1 Gd 0.18663(3) 1.0000 0.30957(2)
Gd2 Gd 0.243840(18) 0.911370(12) 0.255772(18)
O1 O 0.2426(3) 0.8828(3) 0.2011(3)
O2 O 0.2552(4) 0.9391(4) 0.2017(4)
O3 O 0.2996(3) 0.8834(2) 0.2592(3)
O4 O 0.2997(4) 0.9401(3) 0.2664(4)
O5 O 0.4121(3) 0.8186(3) 0.2613(3)
O6 O 0.4621(4) 0.8424(5) 0.2770(5)
O7 O 0.2542(3) 0.8186(3) 0.0869(3)
O8 O 0.2995(4) 0.8350(4) 0.0577(4)
O9 O 0.1247(6) 1.0000 0.3372(7)
O10 O 0.1586(6) 1.0000 0.3709(6)
O11 O 0.2245(3) 0.8526(2) 0.2702(2)
C1 C 0.2524(6) 0.9112(4) 0.1831(4)
C2 C 0.2615(5) 0.9094(3) 0.1444(4)
C3 C 0.2808(5) 0.9391(4) 0.1336(4)
H1 H 0.2836 0.9592 0.1483
C4 C 0.2956(6) 0.9375(4) 0.0998(5)
C5 C 0.2931(6) 0.9060(3) 0.0809(4)
H2 H 0.3054 0.9046 0.0591
C6 C 0.2741(5) 0.8762(4) 0.0916(4)
C7 C 0.2591(5) 0.8783(4) 0.1251(4)
H3 H 0.2471 0.8585 0.1347
C8 C 0.3148(5) 0.9694(4) 0.0858(5)
C9 C 0.3456(5) 0.9684(4) 0.0658(5)
H4 H 0.3584 0.9472 0.0626
C10 C 0.3567(9) 1.0000 0.0506(7)
H5 H 0.3716 1.0000 0.0305
C11 C 0.3153(4) 0.9117(4) 0.2672(5)
C12 C 0.3540(5) 0.9079(4) 0.2727(6)
C13 C 0.3733(4) 0.8771(4) 0.2681(7)
H6 H 0.3623 0.8571 0.2578
C14 C 0.4085(5) 0.8751(5) 0.2782(8)
C15 C 0.4235(6) 0.9049(5) 0.2935(6)
H7 H 0.4475 0.9040 0.3008
C16 C 0.4049(5) 0.9361(4) 0.2987(4)
C17 C 0.3689(5) 0.9376(5) 0.2920(5)
H8 H 0.3553 0.9603 0.2964
C18 C 0.4210(6) 0.9708(5) 0.3117(9)
C19 C 0.4549(7) 0.9699(6) 0.3255(10)
H9 H 0.4698 0.9501 0.3226
C20 C 0.4692(12) 1.0000 0.3409(13)
H10 H 0.4881 1.0000 0.3573
C21 C 0.4306(5) 0.8425(4) 0.2718(3)
C22 C 0.2757(3) 0.8405(4) 0.0779(3)
C23 C 0.2015(4) 0.8463(4) 0.2944(4)
H11 H 0.1944 0.8690 0.3021
C24 C 0.1581(5) 0.8135(5) 0.3310(4)
H12 H 0.1561 0.8358 0.3438
H13 H 0.1631 0.7944 0.3477
H14 H 0.1359 0.8086 0.3188
C25 C 0.1975(5) 0.7845(4) 0.2838(6)
H15 H 0.2177 0.7907 0.2690
H16 H 0.1778 0.7771 0.2688
H17 H 0.2040 0.7651 0.2996
C26 C 0.2421(6) 1.0000 0.2550(6)
H18 H 0.2587 1.0000 0.2362
N1 N 0.3001(8) 1.0000 0.0970(9)
N2 N 0.4012(7) 1.0000 0.3103(7)
O12 O 0.2311(3) 0.9719(2) 0.2679(3)
O13 O 0.1566(6) 1.0000 0.2563(7)
H19 H 0.1622 1.0183 0.2446
N3 N 0.1866(3) 0.8159(3) 0.3053(3)
C27 C 0.1269(12) 1.0000 0.3711(12)
H20 H 0.1098 1.0000 0.3894
O1Z O 0.2426(3) 1.1172(3) 0.2011(3)
O2Z O 0.2552(4) 1.0609(4) 0.2017(4)
O7Z O 0.2542(3) 1.1814(3) 0.0869(3)
O8Z O 0.2995(4) 1.1650(4) 0.0577(4)
C1Z C 0.2524(6) 1.0888(4) 0.1831(4)
C2Z C 0.2615(5) 1.0906(3) 0.1444(4)
C3Z C 0.2808(5) 1.0609(4) 0.1336(4)
H1Z H 0.2836 1.0408 0.1483
C4Z C 0.2956(6) 1.0625(4) 0.0998(5)
C5Z C 0.2931(6) 1.0940(3) 0.0809(4)
H2Z H 0.3054 1.0954 0.0591
C6Z C 0.2741(5) 1.1238(4) 0.0916(4)
C7Z C 0.2591(5) 1.1217(4) 0.1251(4)
H3Z H 0.2471 1.1415 0.1347
C8Z C 0.3148(5) 1.0306(4) 0.0858(5)
C9Z C 0.3456(5) 1.0316(4) 0.0658(5)
H4Z H 0.3584 1.0528 0.0626
C22Z C 0.2757(3) 1.1595(4) 0.0779(3)
O3Z O 0.2996(3) 1.1166(2) 0.2592(3)
O4Z O 0.2997(4) 1.0599(3) 0.2664(4)
O5Z O 0.4121(3) 1.1814(3) 0.2613(3)
O6Z O 0.4621(4) 1.1576(5) 0.2770(5)
C11Z C 0.3153(4) 1.0883(4) 0.2672(5)
C12Z C 0.3540(5) 1.0921(4) 0.2727(6)
C13Z C 0.3733(4) 1.1229(4) 0.2681(7)
H6Z H 0.3623 1.1429 0.2578
C14Z C 0.4085(5) 1.1249(5) 0.2782(8)
C15Z C 0.4235(6) 1.0951(5) 0.2935(6)
H7Z H 0.4475 1.0960 0.3008
C16Z C 0.4049(5) 1.0639(4) 0.2987(4)
C17Z C 0.3689(5) 1.0624(5) 0.2920(5)
H8Z H 0.3553 1.0397 0.2964
C18Z C 0.4210(6) 1.0292(5) 0.3117(9)
C19Z C 0.4549(7) 1.0301(6) 0.3255(10)
H9Z H 0.4698 1.0499 0.3226
C21Z C 0.4306(5) 1.1575(4) 0.2718(3)
O12Z O 0.2311(3) 1.0281(2) 0.2679(3)
H19Z H 0.1622 0.9817 0.2446
Gd2UA Gd 0.411370(12) 0.755772(18) 0.256160(18)
O11UA O 0.3526(2) 0.7702(2) 0.2755(3)
C23UA C 0.3463(4) 0.7944(4) 0.2985(4)
H11UA H 0.3690 0.8021 0.3056
C24UA C 0.3135(5) 0.8310(4) 0.3419(5)
H12UA H 0.3358 0.8438 0.3439
H13UA H 0.2944 0.8477 0.3369
H14UA H 0.3086 0.8188 0.3641
C25UA C 0.2845(4) 0.7838(6) 0.3025(5)
H15UA H 0.2907 0.7690 0.2823
H16UA H 0.2771 0.7688 0.3222
H17UA H 0.2651 0.7996 0.2960
N3UA N 0.3159(3) 0.8053(3) 0.3134(3)
Gd1D Gd 0.30957(2) 1.18663(3) 0.0000
Gd1E Gd 0.30957(2) 0.81337(3) 0.0000
Gd1U Gd 0.5000 0.80957(2) 0.31337(3)
Gd1V Gd 0.5000 1.19043(2) 0.31337(3)
Gd2E Gd 0.255772(18) 0.756160(18) 0.088630(12)
Gd2V Gd 0.411370(12) 1.244228(18) 0.256160(18)
Gd2Z Gd 0.243840(18) 1.088630(12) 0.255772(18)
Gd2DA Gd 0.255772(18) 1.243840(18) 0.088630(12)
O1UA O 0.3828(3) 0.7011(3) 0.2574(3)
O2UA O 0.4391(4) 0.7017(4) 0.2448(4)
O3UA O 0.3834(2) 0.7592(3) 0.2004(3)
O4UA O 0.4401(3) 0.7664(4) 0.2003(4)
O5OA O 0.2387(3) 0.9121(3) 0.3186(3)
O6R O 0.2230(5) 1.0379(4) 0.3424(5)
O6OA O 0.2230(5) 0.9621(4) 0.3424(5)
O7K O 0.1814(3) 0.9131(3) 0.2542(3)
O7OA O 0.4131(3) 0.7542(3) 0.3186(3)
O8K O 0.1650(4) 0.9423(4) 0.2995(4)
O8HA O 0.1650(4) 1.0577(4) 0.2995(4)
O12UA O 0.4719(2) 0.7679(3) 0.2689(3)
loop_
_geom_bond_atom_site_label_1
_geom_bond_atom_site_label_2
_geom_bond_site_symmetry_1
_geom_bond_site_symmetry_2
Gd1 O9 1_555 1_555
Gd2 O1 1_555 1_555
O1 C1 1_555 1_555
O2 Gd2 1_555 1_555
O3 Gd2 1_555 1_555
O4 Gd2 1_555 1_555
O5 C21 1_555 1_555
O6 C21 1_555 1_555
O7 C22 1_555 1_555
O8 C22 1_555 1_555
O9 C27 1_555 1_555
O10 Gd1 1_555 1_555
O11 Gd2 1_555 1_555
C1 O2 1_555 1_555
C2 C1 1_555 1_555
C3 C2 1_555 1_555
H1 C3 1_555 1_555
C4 C3 1_555 1_555
C5 C4 1_555 1_555
H2 C5 1_555 1_555
C6 C5 1_555 1_555
C7 C2 1_555 1_555
H3 C7 1_555 1_555
C8 C4 1_555 1_555
C9 C8 1_555 1_555
H4 C9 1_555 1_555
C10 C9 1_555 1_555
H5 C10 1_555 1_555
C11 O3 1_555 1_555
C12 C11 1_555 1_555
C13 C12 1_555 1_555
H6 C13 1_555 1_555
C14 C13 1_555 1_555
C15 C14 1_555 1_555
H7 C15 1_555 1_555
C16 C15 1_555 1_555
C17 C12 1_555 1_555
H8 C17 1_555 1_555
C18 C16 1_555 1_555
C19 C18 1_555 1_555
H9 C19 1_555 1_555
C20 C19 1_555 1_555
H10 C20 1_555 1_555
C21 C14 1_555 1_555
C22 C6 1_555 1_555
C23 O11 1_555 1_555
H11 C23 1_555 1_555
C24 H12 1_555 1_555
H13 C24 1_555 1_555
H14 C24 1_555 1_555
C25 H15 1_555 1_555
H16 C25 1_555 1_555
H17 C25 1_555 1_555
C26 H18 1_555 1_555
N1 C8 1_555 1_555
N2 C18 1_555 1_555
O12 Gd1 1_555 1_555
O13 Gd1 1_555 1_555
H19 O13 1_555 1_555
N3 C23 1_555 1_555
C27 O10 1_555 1_555
H20 C27 1_555 1_555
O1Z C1Z 1_555 1_555
O2Z C1Z 1_555 1_555
O7Z C22Z 1_555 1_555
O8Z C22Z 1_555 1_555
C1Z C2Z 1_555 1_555
C2Z C3Z 1_555 1_555
C3Z H1Z 1_555 1_555
C4Z C3Z 1_555 1_555
C5Z C4Z 1_555 1_555
H2Z C5Z 1_555 1_555
C6Z C5Z 1_555 1_555
C7Z C2Z 1_555 1_555
H3Z C7Z 1_555 1_555
C8Z N1 1_555 1_555
C9Z C10 1_555 1_555
H4Z C9Z 1_555 1_555
C22Z C6Z 1_555 1_555
O3Z C11Z 1_555 1_555
O4Z C11Z 1_555 1_555
O5Z C21Z 1_555 1_555
O6Z C21Z 1_555 1_555
C11Z C12Z 1_555 1_555
C12Z C13Z 1_555 1_555
C13Z H6Z 1_555 1_555
C14Z C13Z 1_555 1_555
C15Z C14Z 1_555 1_555
H7Z C15Z 1_555 1_555
C16Z C15Z 1_555 1_555
C17Z C12Z 1_555 1_555
H8Z C17Z 1_555 1_555
C18Z N2 1_555 1_555
C19Z C20 1_555 1_555
H9Z C19Z 1_555 1_555
C21Z C14Z 1_555 1_555
O12Z Gd1 1_555 1_555
H19Z O13 1_555 1_555
Gd2UA O5 1_555 1_555
O11UA Gd2UA 1_555 1_555
C23UA O11UA 1_555 1_555
H11UA C23UA 1_555 1_555
C24UA H12UA 1_555 1_555
H13UA C24UA 1_555 1_555
H14UA C24UA 1_555 1_555
C25UA H15UA 1_555 1_555
H16UA C25UA 1_555 1_555
H17UA C25UA 1_555 1_555
N3UA C23UA 1_555 1_555
Gd1D O8Z 1_555 1_555
Gd1E O8 1_555 1_555
Gd1U O6 1_555 1_555
Gd1V O6Z 1_555 1_555
Gd2E O7 1_555 1_555
Gd2V O5Z 1_555 1_555
Gd2Z O1Z 1_555 1_555
Gd2DA O7Z 1_555 1_555
O1UA Gd2UA 1_555 1_555
O2UA Gd2UA 1_555 1_555
O3UA Gd2UA 1_555 1_555
O4UA Gd2UA 1_555 1_555
O5OA Gd2 1_555 1_555
O6R Gd1 1_555 1_555
O6OA Gd1 1_555 1_555
O7K Gd2 1_555 1_555
O7OA Gd2UA 1_555 1_555
O8K Gd1 1_555 1_555
O8HA Gd1 1_555 1_555
O12UA Gd2UA 1_555 1_555
Gd2 O12 1_555 1_555
O4 C11 1_555 1_555
C6 C7 1_555 1_555
C16 C17 1_555 1_555
C24 N3 1_555 1_555
C25 N3 1_555 1_555
C26 O12 1_555 1_555
C26 O12Z 1_555 1_555
O2Z Gd2Z 1_555 1_555
C4Z C8Z 1_555 1_555
C6Z C7Z 1_555 1_555
C8Z C9Z 1_555 1_555
O3Z Gd2Z 1_555 1_555
O4Z Gd2Z 1_555 1_555
C16Z C17Z 1_555 1_555
C16Z C18Z 1_555 1_555
C18Z C19Z 1_555 1_555
O12Z Gd2Z 1_555 1_555
C24UA N3UA 1_555 1_555
C25UA N3UA 1_555 1_555
Gd1U O12UA 1_555 1_555

#END
