
#######################################################################
#
#                 Cambridge Crystallographic Data Centre
#                                CCDC 
#
#######################################################################
#
# If this CIF has been generated from an entry in the Cambridge 
# Structural Database, then it will include bibliographic, chemical, 
# crystal, experimental, refinement or atomic coordinate data resulting 
# from the CCDC's data processing and validation procedures.
#
#######################################################################

data_XOFGAC
_symmetry_cell_setting           cubic
_symmetry_space_group_name_H-M   'I m -3'
_symmetry_Int_Tables_number      204
_space_group_name_Hall           '-I 2 2 3'
loop_
_symmetry_equiv_pos_site_id
_symmetry_equiv_pos_as_xyz
1 x,y,z
2 -x,-y,z
3 -x,y,-z
4 x,-y,-z
5 z,x,y
6 z,-x,-y
7 -z,-x,y
8 -z,x,-y
9 y,z,x
10 -y,z,-x
11 y,-z,-x
12 -y,-z,x
13 1/2+x,1/2+y,1/2+z
14 1/2-x,1/2-y,1/2+z
15 1/2-x,1/2+y,1/2-z
16 1/2+x,1/2-y,1/2-z
17 1/2+z,1/2+x,1/2+y
18 1/2+z,1/2-x,1/2-y
19 1/2-z,1/2-x,1/2+y
20 1/2-z,1/2+x,1/2-y
21 1/2+y,1/2+z,1/2+x
22 1/2-y,1/2+z,1/2-x
23 1/2+y,1/2-z,1/2-x
24 1/2-y,1/2-z,1/2+x
25 -x,-y,-z
26 x,y,-z
27 x,-y,z
28 -x,y,z
29 -z,-x,-y
30 -z,x,y
31 z,x,-y
32 z,-x,y
33 -y,-z,-x
34 y,-z,x
35 -y,z,x
36 y,z,-x
37 1/2-x,1/2-y,1/2-z
38 1/2+x,1/2+y,1/2-z
39 1/2+x,1/2-y,1/2+z
40 1/2-x,1/2+y,1/2+z
41 1/2-z,1/2-x,1/2-y
42 1/2-z,1/2+x,1/2+y
43 1/2+z,1/2+x,1/2-y
44 1/2+z,1/2-x,1/2+y
45 1/2-y,1/2-z,1/2-x
46 1/2+y,1/2-z,1/2+x
47 1/2-y,1/2+z,1/2+x
48 1/2+y,1/2+z,1/2-x
_cell_length_a                   37.9826(10)
_cell_length_b                   37.9826(10)
_cell_length_c                   37.9826(10)
_cell_angle_alpha                90
_cell_angle_beta                 90
_cell_angle_gamma                90
_cell_volume                     54796.7
loop_
_atom_site_label
_atom_site_type_symbol
_atom_site_fract_x
_atom_site_fract_y
_atom_site_fract_z
C1 C 0.2506(9) 0.9120(5) 0.1838(7)
C2 C 0.2611(6) 0.9099(4) 0.1459(4)
C3 C 0.2797(6) 0.9383(3) 0.1322(4)
H1 H 0.2817 0.9590 0.1452
C4 C 0.2954(6) 0.9358(4) 0.0992(5)
C5 C 0.2924(6) 0.9049(4) 0.0799(4)
H2 H 0.3029 0.9032 0.0578
C6 C 0.2738(6) 0.8765(3) 0.0936(4)
C7 C 0.2582(6) 0.8790(3) 0.1266(5)
H3 H 0.2457 0.8600 0.1357
C8 C 0.3122(10) 0.9698(6) 0.0839(9)
C9 C 0.3412(10) 0.9672(6) 0.0616(10)
H4 H 0.3513 0.9459 0.0548
C10 C 0.3536(16) 1.0000 0.0506(14)
H5 H 0.3718 1.0000 0.0344
C11 C 0.3152(7) 0.9117(5) 0.2669(10)
C12 C 0.3537(4) 0.9086(4) 0.2732(8)
C13 C 0.3726(5) 0.8775(3) 0.2697(7)
H6 H 0.3622 0.8579 0.2594
C14 C 0.4072(5) 0.8756(4) 0.2817(7)
C15 C 0.4228(4) 0.9049(5) 0.2971(8)
H7 H 0.4459 0.9037 0.3051
C16 C 0.4039(5) 0.9360(4) 0.3006(8)
C17 C 0.3693(5) 0.9379(3) 0.2886(8)
H8 H 0.3567 0.9587 0.2910
C18 C 0.4206(10) 0.9682(4) 0.3166(11)
C19 C 0.4461(10) 0.9670(7) 0.3432(10)
H9 H 0.4577 0.9466 0.3500
C20 C 0.4522(15) 1.0000 0.3583(16)
H10 H 0.4613 1.0000 0.3810
C21 C 0.4288(4) 0.8436(3) 0.2725(3)
C22 C 0.2018(5) 0.8455(4) 0.2943(5)
H11 H 0.1946 0.8648 0.3075
C23 C 0.1611(5) 0.8128(5) 0.3301(4)
H12 H 0.1721 0.8055 0.3517
H13 H 0.1438 0.7957 0.3233
H14 H 0.1499 0.8352 0.3335
C24 C 0.1972(5) 0.7852(4) 0.2827(5)
H15 H 0.1780 0.7784 0.2678
H16 H 0.2030 0.7661 0.2982
H17 H 0.2173 0.7909 0.2684
C25 C 0.2434(7) 1.0000 0.2560(7)
H18 H 0.2616 1.0000 0.2396
C26 C 0.1171(17) 1.0000 0.3745(16)
H19 H 0.0989 1.0000 0.3908
Eu1 Eu 0.18600(3) 1.0000 0.31038(3)
Eu2 Eu 0.24351(2) 0.911293(16) 0.25613(2)
N1 N 0.2987(12) 1.0000 0.0963(11)
N2 N 0.4091(15) 1.0000 0.3062(11)
N3 N 0.1871(4) 0.8157(3) 0.3033(4)
O1 O 0.2432(4) 0.8827(3) 0.2004(3)
O2 O 0.2557(6) 0.9386(4) 0.2020(5)
O3 O 0.3004(3) 0.8837(3) 0.2599(4)
O4 O 0.3002(4) 0.9400(3) 0.2656(6)
O5 O 0.4122(3) 0.8187(3) 0.2614(4)
O6 O 0.4609(5) 0.8424(6) 0.2758(6)
O7 O 0.2531(5) 0.8190(4) 0.0861(4)
O8 O 0.2998(6) 0.8361(5) 0.0562(5)
O9 O 0.1225(6) 1.0000 0.3372(9)
O10 O 0.1582(8) 1.0000 0.3729(5)
O11 O 0.2240(3) 0.8524(3) 0.2711(3)
O12 O 0.2293(3) 0.9715(2) 0.2687(3)
O13 O 0.1536(10) 1.0000 0.2571(10)
H20 H 0.1590 1.0181 0.2452
C27 C 0.2755(4) 0.8405(3) 0.0772(3)
C1Z C 0.2506(9) 1.0880(5) 0.1838(7)
C2Z C 0.2611(6) 1.0901(4) 0.1459(4)
C3Z C 0.2797(6) 1.0617(3) 0.1322(4)
H1Z H 0.2817 1.0410 0.1452
C4Z C 0.2954(6) 1.0642(4) 0.0992(5)
C5Z C 0.2924(6) 1.0951(4) 0.0799(4)
H2Z H 0.3029 1.0968 0.0578
C6Z C 0.2738(6) 1.1235(3) 0.0936(4)
C7Z C 0.2582(6) 1.1210(3) 0.1266(5)
H3Z H 0.2457 1.1400 0.1357
C8Z C 0.3122(10) 1.0302(6) 0.0839(9)
C9Z C 0.3412(10) 1.0328(6) 0.0616(10)
H4Z H 0.3513 1.0541 0.0548
O1Z O 0.2432(4) 1.1173(3) 0.2004(3)
O2Z O 0.2557(6) 1.0614(4) 0.2020(5)
O7Z O 0.2531(5) 1.1810(4) 0.0861(4)
O8Z O 0.2998(6) 1.1639(5) 0.0562(5)
C27Z C 0.2755(4) 1.1595(3) 0.0772(3)
C11Z C 0.3152(7) 1.0883(5) 0.2669(10)
C12Z C 0.3537(4) 1.0914(4) 0.2732(8)
C13Z C 0.3726(5) 1.1225(3) 0.2697(7)
H6Z H 0.3622 1.1421 0.2594
C14Z C 0.4072(5) 1.1244(4) 0.2817(7)
C15Z C 0.4228(4) 1.0951(5) 0.2971(8)
H7Z H 0.4459 1.0963 0.3051
C16Z C 0.4039(5) 1.0640(4) 0.3006(8)
C17Z C 0.3693(5) 1.0621(3) 0.2886(8)
H8Z H 0.3567 1.0413 0.2910
C18Z C 0.4206(10) 1.0318(4) 0.3166(11)
C19Z C 0.4461(10) 1.0330(7) 0.3432(10)
H9Z H 0.4577 1.0534 0.3500
C21Z C 0.4288(4) 1.1564(3) 0.2725(3)
O3Z O 0.3004(3) 1.1163(3) 0.2599(4)
O4Z O 0.3002(4) 1.0600(3) 0.2656(6)
O5Z O 0.4122(3) 1.1813(3) 0.2614(4)
O6Z O 0.4609(5) 1.1576(6) 0.2758(6)
O12Z O 0.2293(3) 1.0285(2) 0.2687(3)
H20Z H 0.1590 0.9819 0.2452
C22UA C 0.3455(4) 0.7943(5) 0.2982(5)
H11UA H 0.3648 0.8075 0.3054
C23UA C 0.3128(5) 0.8301(4) 0.3389(5)
H12UA H 0.3055 0.8517 0.3279
H13UA H 0.2957 0.8233 0.3562
H14UA H 0.3352 0.8335 0.3501
C24UA C 0.2852(4) 0.7827(5) 0.3028(5)
H15UA H 0.2784 0.7678 0.3220
H16UA H 0.2661 0.7982 0.2970
H17UA H 0.2909 0.7684 0.2827
Eu2UA Eu 0.411293(16) 0.75613(2) 0.25649(2)
N3UA N 0.3157(3) 0.8033(4) 0.3129(4)
O11UA O 0.3524(3) 0.7711(3) 0.2760(3)
Eu1D Eu 0.31038(3) 1.18600(3) 0.0000
Eu1E Eu 0.31038(3) 0.81400(3) 0.0000
Eu1U Eu 0.5000 0.81038(3) 0.31400(3)
Eu1V Eu 0.5000 1.18962(3) 0.31400(3)
Eu2E Eu 0.25613(2) 0.75649(2) 0.088707(16)
Eu2V Eu 0.411293(16) 1.24387(2) 0.25649(2)
Eu2Z Eu 0.24351(2) 1.088707(16) 0.25613(2)
Eu2DA Eu 0.25613(2) 1.24351(2) 0.088707(16)
O1UA O 0.3827(3) 0.7004(3) 0.2568(4)
O2UA O 0.4386(4) 0.7020(5) 0.2443(6)
O3UA O 0.3837(3) 0.7599(4) 0.1996(3)
O4UA O 0.4400(3) 0.7656(6) 0.1998(4)
O5OA O 0.2386(4) 0.9122(3) 0.3187(3)
O6R O 0.2242(6) 1.0391(5) 0.3424(6)
O6OA O 0.2242(6) 0.9609(5) 0.3424(6)
O7K O 0.1810(4) 0.9139(4) 0.2531(5)
O7OA O 0.4139(4) 0.7531(5) 0.3190(4)
O8K O 0.1639(5) 0.9438(5) 0.2998(6)
O8HA O 0.1639(5) 1.0562(5) 0.2998(6)
O12UA O 0.4715(2) 0.7687(3) 0.2707(3)
loop_
_geom_bond_atom_site_label_1
_geom_bond_atom_site_label_2
_geom_bond_site_symmetry_1
_geom_bond_site_symmetry_2
C1 C2 1_555 1_555
C2 C3 1_555 1_555
C3 H1 1_555 1_555
C4 C3 1_555 1_555
C5 C4 1_555 1_555
H2 C5 1_555 1_555
C6 C5 1_555 1_555
C7 C2 1_555 1_555
H3 C7 1_555 1_555
C8 C4 1_555 1_555
C9 C8 1_555 1_555
H4 C9 1_555 1_555
C10 C9 1_555 1_555
H5 C10 1_555 1_555
C11 C12 1_555 1_555
C12 C13 1_555 1_555
C13 H6 1_555 1_555
C14 C13 1_555 1_555
C15 C14 1_555 1_555
H7 C15 1_555 1_555
C16 C15 1_555 1_555
C17 C12 1_555 1_555
H8 C17 1_555 1_555
C18 C16 1_555 1_555
C19 C18 1_555 1_555
H9 C19 1_555 1_555
C20 C19 1_555 1_555
H10 C20 1_555 1_555
C21 C14 1_555 1_555
C22 H11 1_555 1_555
C23 H12 1_555 1_555
H13 C23 1_555 1_555
H14 C23 1_555 1_555
C24 H15 1_555 1_555
H16 C24 1_555 1_555
H17 C24 1_555 1_555
C25 H18 1_555 1_555
C26 H19 1_555 1_555
Eu1 O9 1_555 1_555
Eu2 O1 1_555 1_555
N1 C8 1_555 1_555
N2 C18 1_555 1_555
N3 C22 1_555 1_555
O1 C1 1_555 1_555
O2 C1 1_555 1_555
O3 C11 1_555 1_555
O4 C11 1_555 1_555
O5 C21 1_555 1_555
O6 C21 1_555 1_555
O7 C27 1_555 1_555
O8 C27 1_555 1_555
O9 C26 1_555 1_555
O10 C26 1_555 1_555
O11 C22 1_555 1_555
O12 C25 1_555 1_555
O13 Eu1 1_555 1_555
H20 O13 1_555 1_555
C27 C6 1_555 1_555
C1Z C2Z 1_555 1_555
C2Z C3Z 1_555 1_555
C3Z H1Z 1_555 1_555
C4Z C3Z 1_555 1_555
C5Z C4Z 1_555 1_555
H2Z C5Z 1_555 1_555
C6Z C5Z 1_555 1_555
C7Z C2Z 1_555 1_555
H3Z C7Z 1_555 1_555
C8Z N1 1_555 1_555
C9Z C10 1_555 1_555
H4Z C9Z 1_555 1_555
O1Z C1Z 1_555 1_555
O2Z C1Z 1_555 1_555
O7Z C27Z 1_555 1_555
O8Z C27Z 1_555 1_555
C27Z C6Z 1_555 1_555
C11Z C12Z 1_555 1_555
C12Z C13Z 1_555 1_555
C13Z H6Z 1_555 1_555
C14Z C13Z 1_555 1_555
C15Z C14Z 1_555 1_555
H7Z C15Z 1_555 1_555
C16Z C15Z 1_555 1_555
C17Z C12Z 1_555 1_555
H8Z C17Z 1_555 1_555
C18Z N2 1_555 1_555
C19Z C20 1_555 1_555
H9Z C19Z 1_555 1_555
C21Z C14Z 1_555 1_555
O3Z C11Z 1_555 1_555
O4Z C11Z 1_555 1_555
O5Z C21Z 1_555 1_555
O6Z C21Z 1_555 1_555
O12Z C25 1_555 1_555
H20Z O13 1_555 1_555
C22UA H11UA 1_555 1_555
C23UA H12UA 1_555 1_555
H13UA C23UA 1_555 1_555
H14UA C23UA 1_555 1_555
C24UA H15UA 1_555 1_555
H16UA C24UA 1_555 1_555
H17UA C24UA 1_555 1_555
Eu2UA O5 1_555 1_555
N3UA C22UA 1_555 1_555
O11UA C22UA 1_555 1_555
Eu1D O8Z 1_555 1_555
Eu1E O8 1_555 1_555
Eu1U O6 1_555 1_555
Eu1V O6Z 1_555 1_555
Eu2E O7 1_555 1_555
Eu2V O5Z 1_555 1_555
Eu2Z O1Z 1_555 1_555
Eu2DA O7Z 1_555 1_555
O1UA Eu2UA 1_555 1_555
O2UA Eu2UA 1_555 1_555
O3UA Eu2UA 1_555 1_555
O4UA Eu2UA 1_555 1_555
O5OA Eu2 1_555 1_555
O6R Eu1 1_555 1_555
O6OA Eu1 1_555 1_555
O7K Eu2 1_555 1_555
O7OA Eu2UA 1_555 1_555
O8K Eu1 1_555 1_555
O8HA Eu1 1_555 1_555
O12UA Eu2UA 1_555 1_555
C6 C7 1_555 1_555
C16 C17 1_555 1_555
C23 N3 1_555 1_555
C24 N3 1_555 1_555
Eu1 O10 1_555 1_555
Eu1 O12 1_555 1_555
Eu1 O12Z 1_555 1_555
Eu2 O2 1_555 1_555
Eu2 O3 1_555 1_555
Eu2 O4 1_555 1_555
Eu2 O11 1_555 1_555
Eu2 O12 1_555 1_555
C4Z C8Z 1_555 1_555
C6Z C7Z 1_555 1_555
C8Z C9Z 1_555 1_555
O2Z Eu2Z 1_555 1_555
C16Z C17Z 1_555 1_555
C16Z C18Z 1_555 1_555
C18Z C19Z 1_555 1_555
O3Z Eu2Z 1_555 1_555
O4Z Eu2Z 1_555 1_555
O12Z Eu2Z 1_555 1_555
C23UA N3UA 1_555 1_555
C24UA N3UA 1_555 1_555
Eu2UA O11UA 1_555 1_555
Eu1U O12UA 1_555 1_555

#END
