
#######################################################################
#
#                 Cambridge Crystallographic Data Centre
#                                CCDC 
#
#######################################################################
#
# If this CIF has been generated from an entry in the Cambridge 
# Structural Database, then it will include bibliographic, chemical, 
# crystal, experimental, refinement or atomic coordinate data resulting 
# from the CCDC's data processing and validation procedures.
#
#######################################################################

data_XOFPEP01
_symmetry_cell_setting           triclinic
_symmetry_space_group_name_H-M   'P -1'
_symmetry_Int_Tables_number      2
_space_group_name_Hall           '-P 1'
loop_
_symmetry_equiv_pos_site_id
_symmetry_equiv_pos_as_xyz
1 x,y,z
2 -x,-y,-z
_cell_length_a                   10.663(2)
_cell_length_b                   11.090(2)
_cell_length_c                   14.718(3)
_cell_angle_alpha                106.88(3)
_cell_angle_beta                 95.76(3)
_cell_angle_gamma                112.99(3)
_cell_volume                     1487.35
loop_
_atom_site_label
_atom_site_type_symbol
_atom_site_fract_x
_atom_site_fract_y
_atom_site_fract_z
U1 U 0.60813(2) 0.830751(19) 0.889417(14)
U2 U 1.34101(2) 1.351379(19) 0.509817(13)
O1 O 0.4316(5) 0.7470(4) 0.8191(3)
O2 O 0.7837(5) 0.9143(4) 0.9612(3)
O3 O 0.6474(5) 0.6359(4) 0.7880(3)
O4 O 0.5732(5) 0.6122(4) 0.9181(3)
C1 C 0.6098(7) 0.5656(6) 0.8434(4)
C2 C 0.6100(7) 0.4215(5) 0.8152(4)
C3 C 0.6570(7) 0.3763(6) 0.7326(4)
H1 H 0.6849 0.4312 0.6944
C4 C 0.6610(7) 0.2499(6) 0.7091(4)
C5 C 0.6262(7) 0.1667(6) 0.7667(4)
H2 H 0.6321 0.0818 0.7497
C6 C 0.5824(7) 0.2150(5) 0.8504(4)
C7 C 0.5738(7) 0.3432(5) 0.8730(4)
H3 H 0.5431 0.3750 0.9281
C8 C 0.5515(7) 0.1333(6) 0.9157(4)
O5 O 0.4686(6) 0.1498(5) 0.9684(3)
O6 O 0.6042(5) 0.0490(4) 0.9136(3)
N1 N 0.7009(6) 0.1967(5) 0.6189(3)
O7 O 0.6847(6) 0.0737(5) 0.5916(3)
O8 O 0.7503(5) 0.2759(4) 0.5756(3)
O9 O 1.4471(5) 1.2701(4) 0.5371(3)
O10 O 1.2327(5) 1.4304(4) 0.4822(3)
O11 O 0.6991(5) 0.8957(4) 0.7640(3)
O12 O 0.7868(5) 0.8364(4) 0.6367(3)
C9 C 0.7899(7) 0.9251(6) 0.7153(4)
C10 C 0.9097(6) 1.0669(5) 0.7510(4)
C11 C 0.9399(7) 1.1617(6) 0.8465(4)
H4 H 0.8840 1.1381 0.8890
C12 C 1.0549(7) 1.2907(6) 0.8754(4)
C13 C 1.1414(7) 1.3314(6) 0.8165(4)
H5 H 1.2198 1.4181 0.8395
C14 C 1.1081(7) 1.2378(6) 0.7201(4)
C15 C 0.9937(7) 1.1096(6) 0.6881(4)
H6 H 0.9712 1.0496 0.6236
C16 C 1.1945(7) 1.2795(6) 0.6500(4)
O13 O 1.1488(5) 1.1980(4) 0.5605(3)
O14 O 1.3069(5) 1.3911(4) 0.6791(3)
N2 N 1.0851(6) 1.3901(5) 0.9757(4)
O15 O 1.1510(5) 1.5176(4) 0.9901(3)
O16 O 1.0444(6) 1.3454(5) 1.0388(3)
O17 O 1.5210(5) 1.5732(4) 0.5959(3)
H7 H 1.5690 1.5714 0.6412
H8 H 1.4890 1.6268 0.6174
U1_2 U 0.60813(2) -0.169249(19) 0.889417(14)
U1A U 0.39187(2) 0.169249(19) 1.110583(14)
U2A U 0.65899(2) 0.648621(19) 0.490183(13)
U2A_2 U 1.65899(2) 1.648621(19) 0.490183(13)
O5A O 0.5314(6) 0.8502(5) 1.0316(3)
O6_2 O 0.6042(5) 1.0490(4) 0.9136(3)
O12A O 1.2132(5) 1.1636(4) 0.3633(3)
O17A O 1.4790(5) 1.4268(4) 0.4041(3)
O18 O 0.3947(5) 0.7691(5) 0.6261(3)
H9 H 0.3837 0.7847 0.5741
H10 H 0.4723 0.8213 0.6613
N3 N 0.1621(6) 0.7679(6) 0.6938(4)
H11 H 0.242(4) 0.772(8) 0.684(5)
C17 C 0.0591(8) 0.6183(7) 0.6489(5)
H12 H 0.0700 0.5798 0.5836
H13 H -0.0349 0.6120 0.6424
C18 C 0.0747(9) 0.5276(7) 0.7087(6)
H14 H 0.0046 0.4324 0.6763
H15 H 0.0628 0.5642 0.7731
H16 H 0.1663 0.5305 0.7134
C19 C 0.1363(8) 0.8467(7) 0.6312(5)
H17 H 0.1240 0.7930 0.5631
H18 H 0.0498 0.8541 0.6378
C20 C 0.2531(9) 0.9915(8) 0.6575(6)
H19 H 0.2302 1.0360 0.6157
H20 H 0.3387 0.9851 0.6490
H21 H 0.2652 1.0460 0.7245
C21 C 0.1693(7) 0.8331(7) 0.8002(4)
H22 H 0.2400 0.9301 0.8249
H23 H 0.1987 0.7842 0.8362
C22 C 0.0299(8) 0.8288(8) 0.8191(5)
H24 H 0.0404 0.8705 0.8881
H25 H -0.0405 0.7331 0.7954
H26 H 0.0018 0.8801 0.7856
loop_
_geom_bond_atom_site_label_1
_geom_bond_atom_site_label_2
_geom_bond_site_symmetry_1
_geom_bond_site_symmetry_2
U1 O1 1_555 1_555
U2 O9 1_555 1_555
O2 U1 1_555 1_555
O3 U1 1_555 1_555
O4 U1 1_555 1_555
C1 O3 1_555 1_555
C2 C1 1_555 1_555
C3 C2 1_555 1_555
H1 C3 1_555 1_555
C4 C3 1_555 1_555
C5 C4 1_555 1_555
H2 C5 1_555 1_555
C6 C5 1_555 1_555
C7 C2 1_555 1_555
H3 C7 1_555 1_555
C8 C6 1_555 1_555
O5 C8 1_555 1_555
O6 C8 1_555 1_555
N1 C4 1_555 1_555
O7 N1 1_555 1_555
O8 N1 1_555 1_555
O10 U2 1_555 1_555
O11 U1 1_555 1_555
O12 C9 1_555 1_555
C9 O11 1_555 1_555
C10 C9 1_555 1_555
C11 C10 1_555 1_555
H4 C11 1_555 1_555
C12 C11 1_555 1_555
C13 C12 1_555 1_555
H5 C13 1_555 1_555
C14 C13 1_555 1_555
C15 C10 1_555 1_555
H6 C15 1_555 1_555
C16 C14 1_555 1_555
O13 U2 1_555 1_555
O14 U2 1_555 1_555
N2 C12 1_555 1_555
O15 N2 1_555 1_555
O16 N2 1_555 1_555
O17 U2 1_555 1_555
H7 O17 1_555 1_555
H8 O17 1_555 1_555
O18 H9 1_555 1_555
H10 O18 1_555 1_555
N3 H11 1_555 1_555
C17 N3 1_555 1_555
H12 C17 1_555 1_555
H13 C17 1_555 1_555
C18 C17 1_555 1_555
H14 C18 1_555 1_555
H15 C18 1_555 1_555
H16 C18 1_555 1_555
C19 N3 1_555 1_555
H17 C19 1_555 1_555
H18 C19 1_555 1_555
C20 C19 1_555 1_555
H19 C20 1_555 1_555
H20 C20 1_555 1_555
H21 C20 1_555 1_555
C21 N3 1_555 1_555
H22 C21 1_555 1_555
H23 C21 1_555 1_555
C22 C21 1_555 1_555
H24 C22 1_555 1_555
H25 C22 1_555 1_555
H26 C22 1_555 1_555
U1_2 O6 1_555 1_555
U1A O5 1_555 1_555
U2A O12 1_555 1_555
U2A_2 O17 1_555 1_555
O5A U1 1_555 1_555
O6_2 U1 1_555 1_555
O12A U2 1_555 1_555
O17A U2 1_555 1_555
O4 C1 1_555 1_555
C6 C7 1_555 1_555
C14 C15 1_555 1_555
C16 O13 1_555 1_555
C16 O14 1_555 1_555
U2A_2 O17A 1_555 1_555

#END
