
#######################################################################
#
#                 Cambridge Crystallographic Data Centre
#                                CCDC 
#
#######################################################################
#
# If this CIF has been generated from an entry in the Cambridge 
# Structural Database, then it will include bibliographic, chemical, 
# crystal, experimental, refinement or atomic coordinate data resulting 
# from the CCDC's data processing and validation procedures.
#
#######################################################################

data_XOFQUG
_symmetry_cell_setting           monoclinic
_symmetry_space_group_name_H-M   'P 21/c'
_symmetry_Int_Tables_number      14
_space_group_name_Hall           '-P 2ybc'
loop_
_symmetry_equiv_pos_site_id
_symmetry_equiv_pos_as_xyz
1 x,y,z
2 -x,1/2+y,1/2-z
3 -x,-y,-z
4 x,1/2-y,1/2+z
_cell_length_a                   16.8933(18)
_cell_length_b                   11.9388(12)
_cell_length_c                   11.1723(14)
_cell_angle_alpha                90
_cell_angle_beta                 102.9431(72)
_cell_angle_gamma                90
_cell_volume                     2196.04
loop_
_atom_site_label
_atom_site_type_symbol
_atom_site_fract_x
_atom_site_fract_y
_atom_site_fract_z
C1 C 0.182433 0.786015 0.457458
C2 C 0.195899 0.897067 0.430361
C3 C 0.143430 0.950471 0.333574
C4 C 0.077495 0.892823 0.263884
C5 C 0.064030 0.781770 0.290980
C6 C 0.116499 0.728366 0.387767
H1 H 0.240962 0.936468 0.477992
H2 H 0.107296 0.652466 0.406286
H3 H 0.152633 1.026371 0.315055
H4 H 0.018967 0.742369 0.243350
C7 C 0.025026 0.946226 0.167096
H5 H 0.026842 1.024777 0.181025
H6 H 0.041081 0.930554 0.092596
C8 C -0.061267 0.908444 0.152851
C9 C -0.103690 0.843085 0.060819
N1 N -0.179461 0.827779 0.080788
N2 N -0.183869 0.883678 0.185162
C10 C -0.110821 0.933532 0.229699
C11 C -0.072400 0.796124 -0.044262
H7 H -0.014928 0.802859 -0.027104
H8 H -0.087064 0.719368 -0.055203
H9 H -0.095365 0.836362 -0.117126
C12 C -0.088777 1.003843 0.343585
H10 H -0.031481 1.012716 0.366332
H11 H -0.113753 1.075288 0.328268
H12 H -0.107118 0.968120 0.408384
C13 C 0.236789 0.730690 0.557726
C14 C 0.302724 0.788339 0.627417
C15 C 0.355193 0.734935 0.724204
C16 C 0.341727 0.623882 0.751300
C17 C 0.275793 0.566233 0.681610
C18 C 0.223324 0.619637 0.584823
H13 H 0.311927 0.864238 0.608898
H14 H 0.400256 0.774335 0.771834
H15 H 0.266590 0.490333 0.700129
H16 H 0.178261 0.580237 0.537192
C19 C 0.394196 0.570478 0.848087
H17 H 0.383075 0.594609 0.923673
H18 H 0.386697 0.491735 0.840281
C20 C 0.48226 0.593615 0.853979
C21 C 0.532582 0.656106 0.940731
N3 N 0.607224 0.656898 0.913874
N4 N 0.603033 0.594897 0.810522
C22 C 0.525801 0.555786 0.773505
C23 C 0.509765 0.713993 1.047322
H19 H 0.452387 0.713168 1.036832
H20 H 0.534081 0.676229 1.121268
H21 H 0.528356 0.789295 1.05147
C24 C 0.494192 0.483600 0.663273
H22 H 0.446718 0.445485 0.673216
H23 H 0.481375 0.529111 0.591788
H24 H 0.534434 0.430420 0.654903
Cu1 Cu -0.27838(70) 0.88572(71) 0.2702(17)
Cu2 Cu -0.29526(65) 0.7439(16) 0.0143(13)
N3_2 N -0.392776 0.656898 -0.086126
N4C N -0.396967 0.905103 0.310522
Cu1C Cu 0.72162(70) 0.61428(71) 0.7702(17)
Cu2_2 Cu 0.70474(65) 0.7439(16) 1.0143(13)
loop_
_geom_bond_atom_site_label_1
_geom_bond_atom_site_label_2
_geom_bond_site_symmetry_1
_geom_bond_site_symmetry_2
C1 C2 1_555 1_555
C2 C3 1_555 1_555
C3 C4 1_555 1_555
C4 C5 1_555 1_555
C5 C6 1_555 1_555
C6 C1 1_555 1_555
H1 C2 1_555 1_555
H2 C6 1_555 1_555
H3 C3 1_555 1_555
H4 C5 1_555 1_555
C7 C4 1_555 1_555
H5 C7 1_555 1_555
H6 C7 1_555 1_555
C8 C7 1_555 1_555
C9 C8 1_555 1_555
N1 C9 1_555 1_555
N2 N1 1_555 1_555
C10 C8 1_555 1_555
C11 C9 1_555 1_555
H7 C11 1_555 1_555
H8 C11 1_555 1_555
H9 C11 1_555 1_555
C12 C10 1_555 1_555
H10 C12 1_555 1_555
H11 C12 1_555 1_555
H12 C12 1_555 1_555
C13 C1 1_555 1_555
C14 C13 1_555 1_555
C15 C14 1_555 1_555
C16 C15 1_555 1_555
C17 C16 1_555 1_555
C18 C13 1_555 1_555
H13 C14 1_555 1_555
H14 C15 1_555 1_555
H15 C17 1_555 1_555
H16 C18 1_555 1_555
C19 C16 1_555 1_555
H17 C19 1_555 1_555
H18 C19 1_555 1_555
C20 C19 1_555 1_555
C21 C20 1_555 1_555
N3 C21 1_555 1_555
N4 N3 1_555 1_555
C22 C20 1_555 1_555
C23 C21 1_555 1_555
H19 C23 1_555 1_555
H20 C23 1_555 1_555
H21 C23 1_555 1_555
C24 C22 1_555 1_555
H22 C24 1_555 1_555
H23 C24 1_555 1_555
H24 C24 1_555 1_555
Cu1 N2 1_555 1_555
Cu2 N1 1_555 1_555
N3_2 Cu2 1_555 1_555
N4C Cu1 1_555 1_555
Cu1C N4 1_555 1_555
Cu2_2 N3 1_555 1_555
N2 C10 1_555 1_555
C17 C18 1_555 1_555
N4 C22 1_555 1_555

#END
