
#######################################################################
#
#                 Cambridge Crystallographic Data Centre
#                                CCDC 
#
#######################################################################
#
# If this CIF has been generated from an entry in the Cambridge 
# Structural Database, then it will include bibliographic, chemical, 
# crystal, experimental, refinement or atomic coordinate data resulting 
# from the CCDC's data processing and validation procedures.
#
#######################################################################

data_XOFQOA
_symmetry_cell_setting           orthorhombic
_symmetry_space_group_name_H-M   'P c c n'
_symmetry_Int_Tables_number      56
_space_group_name_Hall           '-P 2ab 2ac'
loop_
_symmetry_equiv_pos_site_id
_symmetry_equiv_pos_as_xyz
1 x,y,z
2 -x,1/2+y,1/2-z
3 1/2-x,1/2-y,z
4 1/2+x,-y,1/2-z
5 -x,-y,-z
6 x,1/2-y,1/2+z
7 1/2+x,1/2+y,-z
8 1/2-x,y,1/2+z
_cell_length_a                   31.6185(27)
_cell_length_b                   9.10229(62)
_cell_length_c                   7.33899(46)
_cell_angle_alpha                90
_cell_angle_beta                 90
_cell_angle_gamma                90
_cell_volume                     2112.17
loop_
_atom_site_label
_atom_site_type_symbol
_atom_site_fract_x
_atom_site_fract_y
_atom_site_fract_z
C1 C 0.480997 0.521202 0.557357
C2 C 0.443956 0.439402 0.546745
C3 C 0.409136 0.478253 0.651844
C4 C 0.411357 0.598903 0.767554
C5 C 0.448398 0.680703 0.778165
C6 C 0.483218 0.641853 0.673067
H1 H 0.442439 0.356943 0.467662
H2 H 0.508534 0.697760 0.680319
H3 H 0.383820 0.422346 0.644591
H4 H 0.449915 0.763162 0.857248
C7 C 0.372779 0.641946 0.883994
H5 H 0.381082 0.650743 1.007919
H6 H 0.361832 0.733242 0.842632
C8 C 0.335990 0.531161 0.878461
C9 C 0.306033 0.521376 0.746038
N1 N 0.279282 0.410100 0.790875
N2 N 0.292706 0.351112 0.951010
C10 C 0.327753 0.425932 1.005141
C11 C 0.302945 0.619137 0.575293
H7 H 0.330227 0.655373 0.544946
H8 H 0.292176 0.563089 0.476442
H9 H 0.284524 0.699340 0.599012
C12 C 0.353578 0.396640 1.179305
H10 H 0.353057 0.294600 1.206403
H11 H 0.381988 0.427278 1.161101
H12 H 0.341644 0.449949 1.278003
Co1 Co 0.25000 0.25000 0.6369(12)
C1D C 0.519003 0.478798 0.442643
C2D C 0.556044 0.560598 0.453255
C3D C 0.590864 0.521747 0.348156
C4D C 0.588643 0.401097 0.232446
C5D C 0.551602 0.319297 0.221835
C6D C 0.516782 0.358147 0.326933
H1D H 0.557561 0.643057 0.532338
H2D H 0.491466 0.302240 0.319681
H3D H 0.616180 0.577654 0.355409
H4D H 0.550085 0.236838 0.142752
C7D C 0.627221 0.358054 0.116006
H5D H 0.618918 0.349257 -0.007919
H6D H 0.638168 0.266758 0.157368
C8D C 0.664010 0.468839 0.121539
C9D C 0.693967 0.478624 0.253962
N1D N 0.720718 0.589900 0.209125
N2D N 0.707294 0.648888 0.048990
C10D C 0.672247 0.574068 -0.005141
C11D C 0.697055 0.380863 0.424707
H7D H 0.669773 0.344627 0.455054
H8D H 0.707824 0.436911 0.523558
H9D H 0.715476 0.300660 0.400988
C12D C 0.646422 0.603360 -0.179305
H10D H 0.646943 0.705400 -0.206403
H11D H 0.618012 0.572722 -0.161101
H12D H 0.658356 0.550051 -0.278003
N1B N 0.220718 0.089900 0.790875
N2G N 0.207294 0.351112 0.451010
N2E N 0.292706 0.148888 0.451010
Co1D Co 0.75000 0.75000 0.3631(12)
Co1A Co 0.75000 0.75000 -0.1369(12)
Co1G Co 0.25000 0.25000 1.1369(12)
loop_
_geom_bond_atom_site_label_1
_geom_bond_atom_site_label_2
_geom_bond_site_symmetry_1
_geom_bond_site_symmetry_2
C1 C2 1_555 1_555
C2 C3 1_555 1_555
C3 C4 1_555 1_555
C4 C5 1_555 1_555
C5 C6 1_555 1_555
C6 C1 1_555 1_555
H1 C2 1_555 1_555
H2 C6 1_555 1_555
H3 C3 1_555 1_555
H4 C5 1_555 1_555
C7 C4 1_555 1_555
H5 C7 1_555 1_555
H6 C7 1_555 1_555
C8 C7 1_555 1_555
C9 C8 1_555 1_555
N1 C9 1_555 1_555
N2 N1 1_555 1_555
C10 C8 1_555 1_555
C11 C9 1_555 1_555
H7 C11 1_555 1_555
H8 C11 1_555 1_555
H9 C11 1_555 1_555
C12 C10 1_555 1_555
H10 C12 1_555 1_555
H11 C12 1_555 1_555
H12 C12 1_555 1_555
Co1 N1 1_555 1_555
C1D C1 1_555 1_555
C2D C1D 1_555 1_555
C3D C2D 1_555 1_555
C4D C3D 1_555 1_555
C5D C4D 1_555 1_555
C6D C1D 1_555 1_555
H1D C2D 1_555 1_555
H2D C6D 1_555 1_555
H3D C3D 1_555 1_555
H4D C5D 1_555 1_555
C7D C4D 1_555 1_555
H5D C7D 1_555 1_555
H6D C7D 1_555 1_555
C8D C7D 1_555 1_555
C9D C8D 1_555 1_555
N1D C9D 1_555 1_555
N2D N1D 1_555 1_555
C10D C8D 1_555 1_555
C11D C9D 1_555 1_555
H7D C11D 1_555 1_555
H8D C11D 1_555 1_555
H9D C11D 1_555 1_555
C12D C10D 1_555 1_555
H10D C12D 1_555 1_555
H11D C12D 1_555 1_555
H12D C12D 1_555 1_555
N1B Co1 1_555 1_555
N2G Co1 1_555 1_555
N2E Co1 1_555 1_555
Co1D N1D 1_555 1_555
Co1A N2D 1_555 1_555
Co1G N2 1_555 1_555
N2 C10 1_555 1_555
C5D C6D 1_555 1_555
N2D C10D 1_555 1_555

#END
