
#######################################################################
#
#                 Cambridge Crystallographic Data Centre
#                                CCDC 
#
#######################################################################
#
# If this CIF has been generated from an entry in the Cambridge 
# Structural Database, then it will include bibliographic, chemical, 
# crystal, experimental, refinement or atomic coordinate data resulting 
# from the CCDC's data processing and validation procedures.
#
#######################################################################

data_XOFROB
_symmetry_cell_setting           triclinic
_symmetry_space_group_name_H-M   'P -1'
_symmetry_Int_Tables_number      2
_space_group_name_Hall           '-P 1'
loop_
_symmetry_equiv_pos_site_id
_symmetry_equiv_pos_as_xyz
1 x,y,z
2 -x,-y,-z
_cell_length_a                   11.830(5)
_cell_length_b                   12.709(5)
_cell_length_c                   14.789(5)
_cell_angle_alpha                105.033(5)
_cell_angle_beta                 99.809(5)
_cell_angle_gamma                115.518(5)
_cell_volume                     1833.6
loop_
_atom_site_label
_atom_site_type_symbol
_atom_site_fract_x
_atom_site_fract_y
_atom_site_fract_z
O1 O 0.812(4) 0.671(3) 0.195(3)
O2 O 0.978(3) 0.618(3) 0.130(2)
O3 O 0.850(4) 0.713(4) 0.039(3)
O4 O 0.765(3) 0.742(3) 0.370(2)
O5 O 0.269(4) 0.613(3) 0.234(2)
O6 O 0.434(5) 0.734(4) 0.147(4)
O7 O 0.304(4) 0.418(3) 0.148(3)
O8 O 0.751(4) 0.437(3) 0.115(3)
O9 O 0.414(3) 0.295(5) 0.142(3)
O10 O 0.637(4) 0.505(3) 0.246(3)
O11 O 0.496(4) 0.608(4) 0.248(3)
O12 O 0.625(3) 0.956(2) 0.1642(19)
O13 O 0.684(4) 0.797(4) 0.207(5)
O14 O 0.468(4) 0.760(4) -0.009(3)
O15 O 0.715(4) 0.818(4) 0.051(3)
O16 O 0.636(4) 0.285(4) 0.207(3)
O17 O 0.222(5) 0.535(4) 0.042(4)
O18 O 0.839(3) 0.825(4) -0.082(3)
O19 O 0.533(5) 0.623(5) 0.127(4)
O20 O 0.630(5) 0.527(5) 0.107(4)
O21 O 0.332(4) 0.445(4) 0.018(3)
O22 O 0.456(4) 0.355(4) 0.023(3)
Co1 Co 0.5000 0.5000 0.0000
W1 W 0.67335(19) 0.66030(17) 0.24877(13)
W2 W 0.7341(2) 0.72637(17) -0.05683(15)
W3 W 0.8239(2) 0.58285(18) 0.08584(13)
W4 W 0.5908(2) 0.35209(18) 0.13675(14)
W5 W 0.5881(2) 0.80883(16) 0.10984(18)
W6 W 0.3513(2) 0.58373(19) 0.16172(16)
O1A O 0.188(4) 0.329(3) -0.195(3)
O2A O 0.022(3) 0.382(3) -0.130(2)
O3A O 0.150(4) 0.287(4) -0.039(3)
O4A O 0.235(3) 0.258(3) -0.370(2)
O5A O 0.731(4) 0.387(3) -0.234(2)
O6A O 0.566(5) 0.266(4) -0.147(4)
O7A O 0.696(4) 0.582(3) -0.148(3)
O8A O 0.249(4) 0.563(3) -0.115(3)
O9A O 0.586(3) 0.705(5) -0.142(3)
O10A O 0.363(4) 0.495(3) -0.246(3)
O11A O 0.504(4) 0.392(4) -0.248(3)
O12A O 0.375(3) 0.044(2) -0.1642(19)
O13A O 0.316(4) 0.203(4) -0.207(5)
O14A O 0.532(4) 0.240(4) 0.009(3)
O15A O 0.285(4) 0.182(4) -0.051(3)
O16A O 0.364(4) 0.715(4) -0.207(3)
O17A O 0.778(5) 0.465(4) -0.042(4)
O18A O 0.161(3) 0.175(4) 0.082(3)
O19A O 0.467(5) 0.377(5) -0.127(4)
O20A O 0.370(5) 0.473(5) -0.107(4)
O21A O 0.668(4) 0.555(4) -0.018(3)
O22A O 0.544(4) 0.645(4) -0.023(3)
W1A W 0.32665(19) 0.33970(17) -0.24877(13)
W2A W 0.2659(2) 0.27363(17) 0.05683(15)
W3A W 0.1761(2) 0.41715(18) -0.08584(13)
W4A W 0.4092(2) 0.64791(18) -0.13675(14)
W5A W 0.4119(2) 0.19117(16) -0.10984(18)
W6A W 0.6487(2) 0.41627(19) -0.16172(16)
O23 O 0.952(5) 1.062(5) 0.580(5)
C1 C 0.477(4) 0.694(3) 0.521(3)
H1 H 0.3977 0.6843 0.4868
C2 C 0.591(3) 0.779(3) 0.512(3)
C3 C 0.704(4) 0.787(3) 0.566(2)
H2 H 0.7848 0.8452 0.5638
C4 C 0.709(4) 0.718(4) 0.621(3)
H3 H 0.7874 0.7233 0.6528
C5 C 0.590(3) 0.639(4) 0.628(3)
H4 H 0.5894 0.5952 0.6699
C6 C 0.596(4) 0.865(4) 0.464(3)
C7 C 0.539(6) 0.949(5) 0.384(4)
C8 C 0.462(4) 0.985(3) 0.331(3)
C9 C 0.403(7) 1.083(5) 0.259(4)
H5 H 0.4044 1.1450 0.2356
C10 C -0.022(5) 0.617(4) 0.372(4)
H6 H -0.0581 0.6022 0.3061
C11 C 0.003(4) 0.633(4) 0.513(3)
C12 C -0.017(5) 0.625(5) 0.608(4)
C13 C 0.030(4) 0.671(4) 0.753(3)
C14 C 0.103(4) 0.727(4) 0.863(4)
C15 C 0.222(5) 0.830(4) 0.905(4)
H7 H 0.2564 0.8706 0.8639
C16 C 0.242(5) 0.806(4) 1.054(4)
H8 H 0.2833 0.8314 1.1212
C17 C 0.062(5) 0.659(5) 0.916(4)
H9 H -0.0159 0.5817 0.8892
C18 C 0.136(4) 0.705(4) 1.011(3)
H10 H 0.1060 0.6565 1.0485
N1 N -0.091(4) 0.584(4) 0.430(3)
N2 N 0.082(3) 0.699(3) 0.695(2)
N3 N 0.100(5) 0.672(3) 0.418(4)
N4 N 0.513(4) 1.076(3) 0.303(3)
N5 N -0.098(4) 0.597(4) 0.720(3)
N6 N -0.128(4) 0.564(4) 0.620(3)
H11 H -0.2044 0.5133 0.5753
N7 N 0.120(3) 0.694(3) 0.517(2)
N8 N 0.471(3) 0.622(3) 0.576(2)
N9 N 0.297(5) 0.988(4) 0.258(3)
H12 H 0.2168 0.9648 0.2266
N10 N 0.333(4) 0.931(3) 0.313(3)
N11 N 0.494(4) 0.861(4) 0.422(3)
N12 N 0.703(4) 0.955(3) 0.469(3)
N13 N 0.664(5) 1.006(4) 0.412(3)
H13 H 0.7146 1.0670 0.3963
N14 N 0.302(5) 0.882(5) 1.005(3)
Ag1 Ag -0.2893(4) 0.4786(4) 0.4124(3)
Ag2 Ag 0.2830(4) 0.8013(4) 0.6685(4)
Ag3 Ag 0.2613(5) 0.7668(4) 0.3724(4)
N4A N 0.487(4) 0.924(3) 0.697(3)
N8A N -0.471(3) 0.378(3) 0.424(2)
Ag1A Ag 0.2893(4) 0.5214(4) 0.5876(3)
Ag2A Ag 0.7170(4) 1.1987(4) 0.3315(4)
loop_
_geom_bond_atom_site_label_1
_geom_bond_atom_site_label_2
_geom_bond_site_symmetry_1
_geom_bond_site_symmetry_2
C1 H1 1_555 1_555
C2 C1 1_555 1_555
C3 C2 1_555 1_555
H2 C3 1_555 1_555
C4 C3 1_555 1_555
H3 C4 1_555 1_555
C5 C4 1_555 1_555
H4 C5 1_555 1_555
C6 C2 1_555 1_555
C7 C8 1_555 1_555
C8 N4 1_555 1_555
C9 H5 1_555 1_555
C10 H6 1_555 1_555
C11 C12 1_555 1_555
C12 N2 1_555 1_555
C13 C14 1_555 1_555
C14 C15 1_555 1_555
C15 H7 1_555 1_555
C16 H8 1_555 1_555
C17 C14 1_555 1_555
H9 C17 1_555 1_555
C18 C16 1_555 1_555
H10 C18 1_555 1_555
N1 C10 1_555 1_555
N2 C13 1_555 1_555
N3 C10 1_555 1_555
N4 C9 1_555 1_555
N5 C13 1_555 1_555
N6 C12 1_555 1_555
H11 N6 1_555 1_555
N7 C11 1_555 1_555
N8 C1 1_555 1_555
N9 C9 1_555 1_555
H12 N9 1_555 1_555
N10 C8 1_555 1_555
N11 C6 1_555 1_555
N12 C6 1_555 1_555
N13 C7 1_555 1_555
H13 N13 1_555 1_555
N14 C15 1_555 1_555
Ag1 N1 1_555 1_555
Ag2 N2 1_555 1_555
Ag3 N3 1_555 1_555
O1 W1 1_555 1_555
O2 W3 1_555 1_555
O3 W2 1_555 1_555
O4 W1 1_555 1_555
O5 W6 1_555 1_555
O6 W5 1_555 1_555
O7 W6 1_555 1_555
O8 W3 1_555 1_555
O9 W4 1_555 1_555
O10 W1 1_555 1_555
O11 W1 1_555 1_555
O12 W5 1_555 1_555
O13 W1 1_555 1_555
O14 W5 1_555 1_555
O15 W2 1_555 1_555
O16 W4 1_555 1_555
O17 W6 1_555 1_555
O18 W2 1_555 1_555
O19 Co1 1_555 1_555
O20 Co1 1_555 1_555
O21 Co1 1_555 1_555
O22 Co1 1_555 1_555
Co1 O19A 1_555 1_555
W1 O19 1_555 1_555
W2 O7A 1_555 1_555
W3 O1 1_555 1_555
W4 O8 1_555 1_555
W5 O13 1_555 1_555
W6 O6 1_555 1_555
N4A Ag2 1_555 1_555
N8A Ag1 1_555 1_555
Ag1A N8 1_555 1_555
Ag2A N4 1_555 1_555
O1A W1A 1_555 1_555
O2A W3A 1_555 1_555
O3A W2A 1_555 1_555
O4A W1A 1_555 1_555
O5A W6A 1_555 1_555
O6A W5A 1_555 1_555
O7A W6A 1_555 1_555
O8A W3A 1_555 1_555
O9A W2 1_555 1_555
O10A W1A 1_555 1_555
O11A W1A 1_555 1_555
O12A W5A 1_555 1_555
O13A W1A 1_555 1_555
O14A W4 1_555 1_555
O15A W2A 1_555 1_555
O16A W4A 1_555 1_555
O17A W3 1_555 1_555
O18A W2A 1_555 1_555
O19A W1A 1_555 1_555
O20A Co1 1_555 1_555
O21A Co1 1_555 1_555
O22A Co1 1_555 1_555
W1A O20A 1_555 1_555
W2A O7 1_555 1_555
W3A O17 1_555 1_555
W4A O14 1_555 1_555
W5A O22 1_555 1_555
W6A O6A 1_555 1_555
C5 N8 1_555 1_555
C7 N11 1_555 1_555
C11 N1 1_555 1_555
C16 N14 1_555 1_555
C17 C18 1_555 1_555
N3 N7 1_555 1_555
N5 N6 1_555 1_555
N7 Ag2 1_555 1_555
N9 N10 1_555 1_555
N10 Ag3 1_555 1_555
N11 Ag3 1_555 1_555
N12 N13 1_555 1_555
O3 W3 1_555 1_555
O9 W2A 1_555 1_555
O10 W4 1_555 1_555
O11 W6 1_555 1_555
O15 W5 1_555 1_555
O19 W5 1_555 1_555
O19 W6 1_555 1_555
O20 W1 1_555 1_555
O20 W3 1_555 1_555
O20 W4 1_555 1_555
O21 W6 1_555 1_555
O21 W2A 1_555 1_555
O21 W3A 1_555 1_555
O22 W4 1_555 1_555
O22 W2A 1_555 1_555
W2 O21A 1_555 1_555
W2 O22A 1_555 1_555
W3 O21A 1_555 1_555
W5 O22A 1_555 1_555
O1A W3A 1_555 1_555
O3A W3A 1_555 1_555
O8A W4A 1_555 1_555
O9A W4A 1_555 1_555
O10A W4A 1_555 1_555
O11A W6A 1_555 1_555
O13A W5A 1_555 1_555
O14A W5A 1_555 1_555
O15A W5A 1_555 1_555
O17A W6A 1_555 1_555
O19A W5A 1_555 1_555
O19A W6A 1_555 1_555
O20A W3A 1_555 1_555
O20A W4A 1_555 1_555
O21A W6A 1_555 1_555
O22A W4A 1_555 1_555

#END
