
#######################################################################
#
#                 Cambridge Crystallographic Data Centre
#                                CCDC 
#
#######################################################################
#
# If this CIF has been generated from an entry in the Cambridge 
# Structural Database, then it will include bibliographic, chemical, 
# crystal, experimental, refinement or atomic coordinate data resulting 
# from the CCDC's data processing and validation procedures.
#
#######################################################################

data_XOFTUJ
_symmetry_cell_setting           triclinic
_symmetry_space_group_name_H-M   'P -1'
_symmetry_Int_Tables_number      2
_space_group_name_Hall           '-P 1'
loop_
_symmetry_equiv_pos_site_id
_symmetry_equiv_pos_as_xyz
1 x,y,z
2 -x,-y,-z
_cell_length_a                   7.8201(13)
_cell_length_b                   8.1694(14)
_cell_length_c                   10.2669(18)
_cell_angle_alpha                106.698(2)
_cell_angle_beta                 103.200(2)
_cell_angle_gamma                90.842(2)
_cell_volume                     609.377
loop_
_atom_site_label
_atom_site_type_symbol
_atom_site_fract_x
_atom_site_fract_y
_atom_site_fract_z
C1 C 0.6669(5) 0.1025(5) 0.7045(4)
C2 C 0.7963(4) 0.1793(4) 0.8424(4)
C3 C 0.7495(5) 0.3091(5) 0.9499(4)
H1 H 0.6374 0.3477 0.9360
C4 C 0.8728(5) 0.3782(4) 1.0765(4)
C5 C 1.0425(5) 0.3266(4) 1.0970(4)
H2 H 1.1258 0.3754 1.1809
C6 C 1.0848(5) 0.2008(5) 0.9892(4)
C7 C 0.9649(4) 0.1233(4) 0.8630(4)
H3 H 0.9961 0.0361 0.7938
C8 C 0.8239(5) 0.5109(4) 1.1937(4)
N1 N 1.2667(4) 0.1472(5) 1.0097(4)
O1 O 0.6373(4) 0.6057(4) 1.4728(3)
O2 O 0.8608(4) 0.9155(3) 1.3792(3)
O3 O 0.6848(3) 0.5851(3) 1.1751(3)
O4 O 0.9277(3) 0.5458(3) 1.3164(3)
O5 O 0.9970(4) 0.7386(4) 1.6008(3)
O6 O 0.7082(4) -0.0250(3) 0.6195(3)
O7 O 0.5233(4) 0.1671(4) 0.6824(3)
O8 O 1.2991(4) 0.0271(4) 0.9181(3)
O9 O 1.3731(4) 0.2222(5) 1.1191(4)
U1 U 0.74527(2) 0.76327(2) 1.42514(2)
H4 H 1.081(13) 0.772(12) 1.622(10)
H5 H 1.006(7) 0.646(7) 1.639(6)
O6_2 O 0.7082(4) 0.9750(3) 1.6195(3)
O7A O 0.4767(4) 0.8329(4) 1.3176(3)
U1_2 U 0.74527(2) -0.23673(2) 0.42514(2)
U1A U 0.25473(2) 0.23673(2) 0.57486(2)
O10 O 0.6561(4) 1.2249(4) 1.3678(4)
H6 H 0.574(8) 1.185(8) 1.275(7)
H7 H 0.616(8) 1.305(8) 1.411(6)
loop_
_geom_bond_atom_site_label_1
_geom_bond_atom_site_label_2
_geom_bond_site_symmetry_1
_geom_bond_site_symmetry_2
C1 C2 1_555 1_555
C2 C3 1_555 1_555
C3 H1 1_555 1_555
C4 C3 1_555 1_555
C5 C4 1_555 1_555
H2 C5 1_555 1_555
C6 C5 1_555 1_555
C7 C2 1_555 1_555
H3 C7 1_555 1_555
C8 C4 1_555 1_555
N1 C6 1_555 1_555
O1 U1 1_555 1_555
O2 U1 1_555 1_555
O3 C8 1_555 1_555
O4 C8 1_555 1_555
O5 U1 1_555 1_555
O6 C1 1_555 1_555
O7 C1 1_555 1_555
O8 N1 1_555 1_555
O9 N1 1_555 1_555
U1 O3 1_555 1_555
H4 O5 1_555 1_555
H5 O5 1_555 1_555
O10 H6 1_555 1_555
H7 O10 1_555 1_555
O6_2 U1 1_555 1_555
O7A U1 1_555 1_555
U1_2 O6 1_555 1_555
U1A O7 1_555 1_555
C6 C7 1_555 1_555
O4 U1 1_555 1_555

#END
