
#######################################################################
#
#                 Cambridge Crystallographic Data Centre
#                                CCDC 
#
#######################################################################
#
# If this CIF has been generated from an entry in the Cambridge 
# Structural Database, then it will include bibliographic, chemical, 
# crystal, experimental, refinement or atomic coordinate data resulting 
# from the CCDC's data processing and validation procedures.
#
#######################################################################

data_XOFYUM
_symmetry_cell_setting           monoclinic
_symmetry_space_group_name_H-M   'P 2/c'
_symmetry_Int_Tables_number      13
_space_group_name_Hall           '-P 2yc'
loop_
_symmetry_equiv_pos_site_id
_symmetry_equiv_pos_as_xyz
1 x,y,z
2 x,-y,1/2+z
3 -x,-y,-z
4 -x,y,1/2-z
_cell_length_a                   15.686(2)
_cell_length_b                   12.6103(16)
_cell_length_c                   38.999(5)
_cell_angle_alpha                90.00
_cell_angle_beta                 98.397(2)
_cell_angle_gamma                90.00
_cell_volume                     7631.51
loop_
_atom_site_label
_atom_site_type_symbol
_atom_site_fract_x
_atom_site_fract_y
_atom_site_fract_z
O1 O -0.1265(5) 0.2278(5) -0.0459(2)
N1 N -0.9453(6) 1.1360(7) -0.0111(3)
C1 C -0.1852(7) 0.2985(9) -0.0412(3)
O2 O -0.1816(4) 0.3515(6) -0.0142(2)
N2 N -0.7134(17) 1.041(2) 0.2260(5)
C2 C -0.2574(7) 0.3144(8) -0.0692(3)
O3 O -0.0806(4) 0.4089(5) 0.04882(19)
N3 N -0.2031(6) 0.5715(7) 0.0180(2)
C3 C -0.2626(7) 0.2641(9) -0.1007(3)
H1 H -0.2192 0.2147 -0.1044
O4 O -0.0384(5) 0.2403(5) 0.04115(19)
C4 C -0.3311(8) 0.2839(9) -0.1276(3)
H2 H -0.3333 0.2489 -0.1493
O5 O -0.8713(5) 1.4421(6) 0.0461(2)
C5 C -0.3960(7) 0.3561(9) -0.1220(3)
H3 H -0.4419 0.3710 -0.1401
O6 O -0.9247(5) 1.5480(6) 0.08405(19)
C6 C -0.3933(7) 0.4062(8) -0.0897(3)
O7 O 0.0046(4) 0.4009(5) -0.01862(18)
C7 C -0.3230(6) 0.3861(8) -0.0644(3)
H4 H -0.3193 0.4224 -0.0428
C8 C -0.4624(7) 0.4810(8) -0.0848(3)
H5 H -0.5072 0.4898 -0.1038
C9 C -0.4688(7) 0.5381(8) -0.0563(3)
H6 H -0.4256 0.5268 -0.0369
C10 C -0.5364(6) 0.6168(8) -0.0520(3)
C11 C -0.5963(7) 0.6518(8) -0.0798(3)
H7 H -0.5937 0.6248 -0.1023
C12 C -0.6591(7) 0.7244(8) -0.0751(3)
H8 H -0.6986 0.7469 -0.0946
C13 C -0.6661(7) 0.7661(8) -0.0422(4)
C14 C -0.6059(7) 0.7309(8) -0.0141(3)
H9 H -0.6082 0.7579 0.0085
C15 C -0.5425(7) 0.6557(8) -0.0192(3)
H10 H -0.5033 0.6314 0.0000
C16 C -0.7350(8) 0.8467(10) -0.0406(4)
H11 H -0.7712 0.8636 -0.0616
C17 C -0.7486(8) 0.8938(9) -0.0136(4)
H12 H -0.7132 0.8774 0.0076
C18 C -0.8201(9) 0.9767(9) -0.0134(4)
C19 C -0.8694(9) 1.0129(10) -0.0432(4)
H13 H -0.8630 0.9831 -0.0651
C20 C -0.9308(8) 1.0964(10) -0.0409(4)
H14 H -0.9620 1.1240 -0.0617
C21 C -0.8981(7) 1.0939(9) 0.0185(3)
H15 H -0.9082 1.1186 0.0406
C22 C -0.8356(7) 1.0154(9) 0.0166(4)
H16 H -0.8034 0.9893 0.0374
C23 C -0.0659(7) 0.3150(10) 0.0588(3)
C24 C -0.0838(8) 0.2829(9) 0.0946(3)
C25 C -0.0541(8) 0.1883(10) 0.1097(3)
H17 H -0.0216 0.1411 0.0976
C26 C -0.0719(10) 0.1624(11) 0.1425(4)
H18 H -0.0474 0.1005 0.1538
C27 C -0.1260(11) 0.2279(12) 0.1588(4)
H19 H -0.1423 0.2065 0.1803
C28 C -0.1557(9) 0.3217(12) 0.1443(4)
C29 C -0.1312(8) 0.3506(10) 0.1112(3)
H20 H -0.1484 0.4172 0.1011
C30 C -0.2168(11) 0.3868(15) 0.1603(4)
H21 H -0.2412 0.3563 0.1790
C31 C -0.2414(10) 0.4875(14) 0.1507(4)
H22 H -0.2148 0.5184 0.1327
C32 C -0.3029(10) 0.5513(15) 0.1648(4)
C33 C -0.3655(11) 0.5151(16) 0.1836(4)
H23 H -0.3671 0.4413 0.1883
C34 C -0.4284(13) 0.582(2) 0.1966(5)
H24 H -0.4707 0.5524 0.2090
C35 C -0.4250(13) 0.690(2) 0.1903(6)
C36 C -0.3649(13) 0.7277(15) 0.1715(6)
H25 H -0.3630 0.8015 0.1668
C37 C -0.3030(12) 0.6563(16) 0.1584(6)
H26 H -0.2622 0.6847 0.1450
C38 C -0.4939(14) 0.752(2) 0.2031(6)
H27 H -0.5289 0.7119 0.2163
C39 C -0.5120(18) 0.837(2) 0.1998(7)
H28 H -0.4726 0.8757 0.1883
C40 C -0.5813(14) 0.905(2) 0.2089(5)
C41 C -0.6495(16) 0.8629(19) 0.2227(5)
H29 H -0.6534 0.7889 0.2269
C42 C -0.7149(17) 0.935(3) 0.2305(6)
H30 H -0.7629 0.9062 0.2395
C43 C -0.6479(17) 1.075(2) 0.2115(7)
H31 H -0.6459 1.1486 0.2059
C44 C -0.5816(14) 1.010(2) 0.2040(6)
H32 H -0.5345 1.0410 0.1950
C45 C -0.8886(7) 1.4623(9) 0.0759(3)
C46 C -0.8661(7) 1.3795(8) 0.1040(3)
C47 C -0.8920(7) 1.3836(9) 0.1356(3)
H33 H -0.9247 1.4426 0.1413
C48 C -0.8717(8) 1.3024(11) 0.1600(3)
H34 H -0.8918 1.3044 0.1818
C49 C -0.8203(8) 1.2172(10) 0.1511(3)
H35 H -0.8068 1.1607 0.1671
C50 C -0.7895(8) 1.2147(9) 0.1198(3)
C51 C -0.8125(7) 1.2958(8) 0.0962(3)
H36 H -0.7918 1.2950 0.0745
C52 C -0.7310(8) 1.1283(9) 0.1114(3)
H37 H -0.7300 1.0636 0.1239
C53 C -0.6793(8) 1.1383(9) 0.0867(3)
H38 H -0.6857 1.2017 0.0735
C54 C -0.6143(7) 1.0629(8) 0.0779(3)
C55 C -0.6015(8) 0.9611(9) 0.0916(4)
H39 H -0.6354 0.9369 0.1084
C56 C -0.5398(8) 0.8948(9) 0.0811(3)
H40 H -0.5343 0.8249 0.0902
C57 C -0.4861(7) 0.9261(8) 0.0579(3)
C58 C -0.4960(7) 1.0300(8) 0.0446(3)
H41 H -0.4595 1.0550 0.0289
C59 C -0.5607(7) 1.0971(8) 0.0547(3)
H42 H -0.5674 1.1668 0.0455
C60 C -0.4195(7) 0.8627(9) 0.0457(3)
H43 H -0.3871 0.8957 0.0299
C61 C -0.3989(7) 0.7617(9) 0.0546(3)
H44 H -0.4311 0.7279 0.0703
C62 C -0.3309(7) 0.6994(8) 0.0419(3)
C63 C -0.3169(8) 0.5945(9) 0.0517(3)
H45 H -0.3510 0.5636 0.0673
C64 C -0.2538(7) 0.5330(9) 0.0393(3)
H46 H -0.2472 0.4610 0.0463
C65 C -0.2160(7) 0.6738(9) 0.0069(3)
H47 H -0.1813 0.7020 -0.0090
C66 C -0.2789(7) 0.7382(8) 0.0183(3)
H48 H -0.2866 0.8088 0.0100
Zn1 Zn -0.02912(8) 0.25737(9) -0.00750(3)
Zn2 Zn -0.09868(8) 0.48761(9) 0.00071(3)
O1_2 O 0.8735(5) -0.7722(5) -0.0459(2)
N1_2 N 0.0547(6) 0.1360(7) -0.0111(3)
C1_2 C 0.8148(7) -0.7015(9) -0.0412(3)
O2_2 O 0.8184(4) -0.6485(6) -0.0142(2)
C2_2 C 0.7426(7) -0.6856(8) -0.0692(3)
C3_2 C 0.7374(7) -0.7359(9) -0.1007(3)
H1_2 H 0.7808 -0.7853 -0.1044
C4_2 C 0.6689(8) -0.7161(9) -0.1276(3)
H2_2 H 0.6667 -0.7511 -0.1493
C5_2 C 0.6040(7) -0.6439(9) -0.1220(3)
H3_2 H 0.5581 -0.6290 -0.1401
C6_2 C 0.6067(7) -0.5938(8) -0.0897(3)
C7_2 C 0.6770(6) -0.6139(8) -0.0644(3)
H4_2 H 0.6807 -0.5776 -0.0428
C8_2 C 0.5376(7) -0.5190(8) -0.0848(3)
H5_2 H 0.4928 -0.5102 -0.1038
C9_2 C 0.5312(7) -0.4619(8) -0.0563(3)
H6_2 H 0.5744 -0.4732 -0.0369
C10_2 C 0.4636(6) -0.3832(8) -0.0520(3)
C11_2 C 0.4037(7) -0.3482(8) -0.0798(3)
H7_2 H 0.4063 -0.3752 -0.1023
C12_2 C 0.3409(7) -0.2756(8) -0.0751(3)
H8_2 H 0.3014 -0.2531 -0.0946
C13_2 C 0.3339(7) -0.2339(8) -0.0422(4)
C14_2 C 0.3941(7) -0.2691(8) -0.0141(3)
H9_2 H 0.3918 -0.2421 0.0085
C15_2 C 0.4575(7) -0.3443(8) -0.0192(3)
H10_2 H 0.4967 -0.3686 0.0000
C16_2 C 0.2650(8) -0.1533(10) -0.0406(4)
H11_2 H 0.2288 -0.1364 -0.0616
C17_2 C 0.2514(8) -0.1062(9) -0.0136(4)
H12_2 H 0.2868 -0.1226 0.0076
C18_2 C 0.1799(9) -0.0233(9) -0.0134(4)
C19_2 C 0.1306(9) 0.0129(10) -0.0432(4)
H13_2 H 0.1370 -0.0169 -0.0651
C20_2 C 0.0692(8) 0.0964(10) -0.0409(4)
H14_2 H 0.0380 0.1240 -0.0617
C21_2 C 0.1019(7) 0.0939(9) 0.0185(3)
H15_2 H 0.0918 0.1186 0.0406
C22_2 C 0.1644(7) 0.0154(9) 0.0166(4)
H16_2 H 0.1966 -0.0107 0.0374
Zn1_2 Zn 0.97088(8) -0.74263(9) -0.00750(3)
Zn2_2 Zn 0.90132(8) -0.51239(9) 0.00071(3)
N3B N -0.7969(6) 1.4285(7) -0.0180(2)
O5B O -0.1287(5) 0.5579(6) -0.0461(2)
O6B O -0.0753(5) 0.4520(6) -0.08405(19)
C45B C -0.1114(7) 0.5377(9) -0.0759(3)
C46B C -0.1339(7) 0.6205(8) -0.1040(3)
C47B C -0.1080(7) 0.6164(9) -0.1356(3)
H33B H -0.0753 0.5574 -0.1413
C48B C -0.1283(8) 0.6976(11) -0.1600(3)
H34B H -0.1082 0.6956 -0.1818
C49B C -0.1797(8) 0.7828(10) -0.1511(3)
H35B H -0.1932 0.8393 -0.1671
C50B C -0.2105(8) 0.7853(9) -0.1198(3)
C51B C -0.1875(7) 0.7042(8) -0.0962(3)
H36B H -0.2082 0.7050 -0.0745
C52B C -0.2690(8) 0.8717(9) -0.1114(3)
H37B H -0.2700 0.9364 -0.1239
C53B C -0.3207(8) 0.8617(9) -0.0867(3)
H38B H -0.3143 0.7983 -0.0735
C54B C -0.3857(7) 0.9371(8) -0.0779(3)
C55B C -0.3985(8) 1.0389(9) -0.0916(4)
H39B H -0.3646 1.0631 -0.1084
C56B C -0.4602(8) 1.1052(9) -0.0811(3)
H40B H -0.4657 1.1751 -0.0902
C57B C -0.5139(7) 1.0739(8) -0.0579(3)
C58B C -0.5040(7) 0.9700(8) -0.0446(3)
H41B H -0.5405 0.9450 -0.0289
C59B C -0.4393(7) 0.9029(8) -0.0547(3)
H42B H -0.4326 0.8332 -0.0455
C60B C -0.5805(7) 1.1373(9) -0.0457(3)
H43B H -0.6129 1.1043 -0.0299
C61B C -0.6011(7) 1.2383(9) -0.0546(3)
H44B H -0.5689 1.2721 -0.0703
C62B C -0.6691(7) 1.3006(8) -0.0419(3)
C63B C -0.6831(8) 1.4055(9) -0.0517(3)
H45B H -0.6490 1.4364 -0.0673
C64B C -0.7462(7) 1.4670(9) -0.0393(3)
H46B H -0.7528 1.5390 -0.0463
C65B C -0.7840(7) 1.3262(9) -0.0069(3)
H47B H -0.8187 1.2980 0.0090
C66B C -0.7211(7) 1.2618(8) -0.0183(3)
H48B H -0.7134 1.1912 -0.0100
O7B O -0.0046(4) 0.5991(5) 0.01862(18)
N2_2 N 0.2866(17) 0.041(2) 0.2260(5)
O3_2 O 0.9194(4) -0.5911(5) 0.04882(19)
O4_2 O 0.9616(5) -0.7597(5) 0.04115(19)
C23_2 C 0.9341(7) -0.6850(10) 0.0588(3)
C24_2 C 0.9162(8) -0.7171(9) 0.0946(3)
C25_2 C 0.9459(8) -0.8117(10) 0.1097(3)
H17_2 H 0.9784 -0.8589 0.0976
C26_2 C 0.9281(10) -0.8376(11) 0.1425(4)
H18_2 H 0.9526 -0.8995 0.1538
C27_2 C 0.8740(11) -0.7721(12) 0.1588(4)
H19_2 H 0.8577 -0.7935 0.1803
C28_2 C 0.8443(9) -0.6783(12) 0.1443(4)
C29_2 C 0.8688(8) -0.6494(10) 0.1112(3)
H20_2 H 0.8516 -0.5828 0.1011
C30_2 C 0.7832(11) -0.6132(15) 0.1603(4)
H21_2 H 0.7588 -0.6437 0.1790
C31_2 C 0.7586(10) -0.5125(14) 0.1507(4)
H22_2 H 0.7852 -0.4816 0.1327
C32_2 C 0.6971(10) -0.4487(15) 0.1648(4)
C33_2 C 0.6345(11) -0.4849(16) 0.1836(4)
H23_2 H 0.6329 -0.5587 0.1883
C34_2 C 0.5716(13) -0.418(2) 0.1966(5)
H24_2 H 0.5293 -0.4476 0.2090
C35_2 C 0.5750(13) -0.310(2) 0.1903(6)
C36_2 C 0.6351(13) -0.2723(15) 0.1715(6)
H25_2 H 0.6370 -0.1985 0.1668
C37_2 C 0.6970(12) -0.3437(16) 0.1584(6)
H26_2 H 0.7378 -0.3153 0.1450
C38_2 C 0.5061(14) -0.248(2) 0.2031(6)
H27_2 H 0.4711 -0.2881 0.2163
C39_2 C 0.4880(18) -0.163(2) 0.1998(7)
H28_2 H 0.5274 -0.1243 0.1883
C40_2 C 0.4187(14) -0.095(2) 0.2089(5)
C41_2 C 0.3505(16) -0.1371(19) 0.2227(5)
H29_2 H 0.3466 -0.2111 0.2269
C42_2 C 0.2851(17) -0.065(3) 0.2305(6)
H30_2 H 0.2371 -0.0938 0.2395
C43_2 C 0.3521(17) 0.075(2) 0.2115(7)
H31_2 H 0.3541 0.1486 0.2059
C44_2 C 0.4184(14) 0.010(2) 0.2040(6)
H32_2 H 0.4655 0.0410 0.1950
Zn1_3 Zn -1.02912(8) 1.25737(9) -0.00750(3)
Zn2B Zn -0.90132(8) 1.51239(9) -0.00071(3)
Zn2B_2 Zn 0.09868(8) 0.51239(9) -0.00071(3)
N1_3 N 1.0547(6) -0.8640(7) -0.0111(3)
O7_2 O 1.0046(4) -0.5991(5) -0.01862(18)
N3_2 N 0.7969(6) -0.4285(7) 0.0180(2)
O5B_2 O 0.8713(5) -0.4421(6) -0.0461(2)
O7B_2 O 0.9954(4) -0.4009(5) 0.01862(18)
Zn1B Zn 0.02912(8) 0.74263(9) 0.00750(3)
O8 O -0.0602(11) 0.8216(18) 0.1961(5)
O9 O -0.1045(10) 0.9276(16) 0.2329(5)
C67 C -0.1088(17) 0.897(2) 0.2027(8)
C68 C -0.1782(10) 0.9327(15) 0.1750(6)
C69 C -0.1823(12) 0.8979(14) 0.1412(7)
H49 H -0.1405 0.8497 0.1351
C70 C -0.2483(13) 0.9342(16) 0.1162(5)
H50 H -0.2524 0.9096 0.0930
C71 C -0.3089(10) 1.0071(14) 0.1253(4)
H51 H -0.3545 1.0305 0.1082
C72 C -0.3032(9) 1.0447(12) 0.1584(4)
C73 C -0.2373(10) 1.0056(12) 0.1834(4)
H52 H -0.2333 1.0297 0.2067
C74 C -0.3689(12) 1.1224(14) 0.1712(5)
H53 H -0.3617 1.1349 0.1955
C75 C -0.4304(14) 1.1708(14) 0.1535(5)
H54 H -0.4389 1.1546 0.1294
C76 C -0.4909(8) 1.2482(9) 0.1642(4)
C77 C -0.4913(9) 1.2726(11) 0.1990(4)
H55 H -0.4508 1.2402 0.2163
C78 C -0.5510(11) 1.3445(12) 0.2083(3)
H56 H -0.5513 1.3612 0.2320
C79 C -0.6103(8) 1.3920(9) 0.1829(5)
C80 C -0.6098(8) 1.3675(11) 0.1482(4)
H57 H -0.6503 1.3999 0.1309
C81 C -0.5501(10) 1.2956(11) 0.1389(3)
H58 H -0.5498 1.2789 0.1151
C82 C -0.681(4) 1.464(6) 0.1840(17)
C84 C -0.713(3) 1.495(3) 0.2126(11)
H61 H -0.6889 1.4622 0.2339
C86 C -0.7817(7) 1.5739(11) 0.2140(5)
C87 C -0.7942(10) 1.5821(13) 0.2484(4)
H63 H -0.7588 1.5428 0.2658
C88 C -0.8586(11) 1.6478(13) 0.2575(3)
H64 H -0.8671 1.6533 0.2810
N4 N -0.9103(6) 1.7052(8) 0.2321(4)
C89 C -0.8978(8) 1.6970(9) 0.1976(3)
H65 H -0.9332 1.7363 0.1803
C90 C -0.8335(10) 1.6314(11) 0.1886(4)
H66 H -0.8249 1.6258 0.1650
Zn3 Zn 0.0000 0.8021(2) 0.2500
O8C O 0.0602(11) 0.8216(18) 0.3039(5)
O9C O 0.1045(10) 0.9276(16) 0.2671(5)
C67C C 0.1088(17) 0.897(2) 0.2973(8)
C68C C 0.1782(10) 0.9327(15) 0.3250(6)
C69C C 0.1823(12) 0.8979(14) 0.3588(7)
H49C H 0.1405 0.8497 0.3649
C70C C 0.2483(13) 0.9342(16) 0.3838(5)
H50C H 0.2524 0.9096 0.4070
C71C C 0.3089(10) 1.0071(14) 0.3747(4)
H51C H 0.3545 1.0305 0.3918
C72C C 0.3032(9) 1.0447(12) 0.3416(4)
C73C C 0.2373(10) 1.0056(12) 0.3166(4)
H52C H 0.2333 1.0297 0.2933
C74C C 0.3689(12) 1.1224(14) 0.3288(5)
H53C H 0.3617 1.1349 0.3045
C75C C 0.4304(14) 1.1708(14) 0.3465(5)
H54C H 0.4389 1.1546 0.3706
C76C C 0.4909(8) 1.2482(9) 0.3358(4)
C77C C 0.4913(9) 1.2726(11) 0.3010(4)
H55C H 0.4508 1.2402 0.2837
C78C C 0.5510(11) 1.3445(12) 0.2917(3)
H56C H 0.5513 1.3612 0.2680
C79C C 0.6103(8) 1.3920(9) 0.3171(5)
C80C C 0.6098(8) 1.3675(11) 0.3518(4)
H57C H 0.6503 1.3999 0.3691
C81C C 0.5501(10) 1.2956(11) 0.3611(3)
H58C H 0.5498 1.2789 0.3849
C82C C 0.681(4) 1.464(6) 0.3160(17)
C84C C 0.713(3) 1.495(3) 0.2874(11)
H61C H 0.6889 1.4622 0.2661
C86C C 0.7817(7) 1.5739(11) 0.2860(5)
C87C C 0.7942(10) 1.5821(13) 0.2516(4)
H63C H 0.7588 1.5428 0.2342
C88C C 0.8586(11) 1.6478(13) 0.2425(3)
H64C H 0.8671 1.6533 0.2190
N4C N 0.9103(6) 1.7052(8) 0.2679(4)
C89C C 0.8978(8) 1.6970(9) 0.3024(3)
H65C H 0.9332 1.7363 0.3197
C90C C 0.8335(10) 1.6314(11) 0.3114(4)
H66C H 0.8249 1.6258 0.3350
Zn3_2 Zn -1.0000 1.8021(2) 0.2500
N4_2 N 0.0897(6) 0.7052(8) 0.2321(4)
N4C_2 N -0.0897(6) 0.7052(8) 0.2679(4)
Zn3_3 Zn 1.0000 1.8021(2) 0.2500
O10 O -0.2239(14) 0.2573(16) 0.2470(5)
O11 O -0.9753(17) 0.7485(19) 0.1100(6)
O12 O -1.0722(17) 0.643(2) 0.1104(6)
O13 O -0.065(2) 0.207(3) 0.2547(10)
O14 O 0.0000 0.354(6) 0.2500
H59? H -0.7080 0.4930 0.1626
C83? C -0.656(4) 0.459(5) 0.208(2)
H60? H -0.6408 0.4680 0.2319
C85? C -0.722(2) 0.501(3) 0.1863(11)
H62? H -0.7345 0.4941 0.1618
loop_
_geom_bond_atom_site_label_1
_geom_bond_atom_site_label_2
_geom_bond_site_symmetry_1
_geom_bond_site_symmetry_2
O1 C1 1_555 1_555
N1 C20 1_555 1_555
C1 O2 1_555 1_555
O2 Zn2 1_555 1_555
N2 C42 1_555 1_555
C2 C1 1_555 1_555
O3 C23 1_555 1_555
N3 C64 1_555 1_555
C3 C2 1_555 1_555
H1 C3 1_555 1_555
O4 C23 1_555 1_555
C4 C3 1_555 1_555
H2 C4 1_555 1_555
O5 C45 1_555 1_555
C5 C4 1_555 1_555
H3 C5 1_555 1_555
O6 C45 1_555 1_555
C6 C5 1_555 1_555
O7 Zn1 1_555 1_555
C7 C2 1_555 1_555
H4 C7 1_555 1_555
O8 C67 1_555 1_555
C8 C6 1_555 1_555
H5 C8 1_555 1_555
O9 C67 1_555 1_555
C9 C8 1_555 1_555
H6 C9 1_555 1_555
C10 C9 1_555 1_555
C11 C10 1_555 1_555
H7 C11 1_555 1_555
C12 C11 1_555 1_555
H8 C12 1_555 1_555
C13 C12 1_555 1_555
C14 C13 1_555 1_555
H9 C14 1_555 1_555
C15 C10 1_555 1_555
H10 C15 1_555 1_555
C16 C13 1_555 1_555
H11 C16 1_555 1_555
C17 C16 1_555 1_555
H12 C17 1_555 1_555
C18 C17 1_555 1_555
C19 C18 1_555 1_555
H13 C19 1_555 1_555
C20 C19 1_555 1_555
H14 C20 1_555 1_555
C21 N1 1_555 1_555
H15 C21 1_555 1_555
C22 C18 1_555 1_555
H16 C22 1_555 1_555
C23 C24 1_555 1_555
C24 C25 1_555 1_555
C25 H17 1_555 1_555
C26 C25 1_555 1_555
H18 C26 1_555 1_555
C27 C26 1_555 1_555
H19 C27 1_555 1_555
C28 C27 1_555 1_555
C29 C24 1_555 1_555
H20 C29 1_555 1_555
C30 C28 1_555 1_555
H21 C30 1_555 1_555
C31 C30 1_555 1_555
H22 C31 1_555 1_555
C32 C31 1_555 1_555
C33 C32 1_555 1_555
H23 C33 1_555 1_555
C34 C33 1_555 1_555
H24 C34 1_555 1_555
C35 C34 1_555 1_555
C36 C35 1_555 1_555
H25 C36 1_555 1_555
C37 C32 1_555 1_555
H26 C37 1_555 1_555
C38 C35 1_555 1_555
H27 C38 1_555 1_555
C39 C38 1_555 1_555
H28 C39 1_555 1_555
C40 C39 1_555 1_555
C41 C40 1_555 1_555
H29 C41 1_555 1_555
C42 C41 1_555 1_555
H30 C42 1_555 1_555
C43 N2 1_555 1_555
H31 C43 1_555 1_555
C44 C40 1_555 1_555
H32 C44 1_555 1_555
C45 C46 1_555 1_555
C46 C47 1_555 1_555
C47 H33 1_555 1_555
C48 C47 1_555 1_555
H34 C48 1_555 1_555
C49 C48 1_555 1_555
H35 C49 1_555 1_555
C50 C49 1_555 1_555
C51 C46 1_555 1_555
H36 C51 1_555 1_555
C52 C50 1_555 1_555
H37 C52 1_555 1_555
C53 C52 1_555 1_555
H38 C53 1_555 1_555
C54 C53 1_555 1_555
C55 C54 1_555 1_555
H39 C55 1_555 1_555
C56 C55 1_555 1_555
H40 C56 1_555 1_555
C57 C56 1_555 1_555
C58 C57 1_555 1_555
H41 C58 1_555 1_555
C59 C54 1_555 1_555
H42 C59 1_555 1_555
C60 C57 1_555 1_555
H43 C60 1_555 1_555
C61 C60 1_555 1_555
H44 C61 1_555 1_555
C62 C61 1_555 1_555
C63 C62 1_555 1_555
H45 C63 1_555 1_555
C64 C63 1_555 1_555
H46 C64 1_555 1_555
C65 N3 1_555 1_555
H47 C65 1_555 1_555
C66 C62 1_555 1_555
H48 C66 1_555 1_555
C67 C68 1_555 1_555
C68 C69 1_555 1_555
C69 H49 1_555 1_555
C70 C69 1_555 1_555
H50 C70 1_555 1_555
C71 C70 1_555 1_555
H51 C71 1_555 1_555
C72 C71 1_555 1_555
C73 C68 1_555 1_555
H52 C73 1_555 1_555
C74 C72 1_555 1_555
H53 C74 1_555 1_555
C75 C74 1_555 1_555
H54 C75 1_555 1_555
C76 C75 1_555 1_555
C77 C76 1_555 1_555
H55 C77 1_555 1_555
C78 C77 1_555 1_555
H56 C78 1_555 1_555
C79 C78 1_555 1_555
C80 C79 1_555 1_555
H57 C80 1_555 1_555
C81 C76 1_555 1_555
H58 C81 1_555 1_555
C82 C79 1_555 1_555
C84 C82 1_555 1_555
H61 C84 1_555 1_555
C86 C84 1_555 1_555
C87 C86 1_555 1_555
H63 C87 1_555 1_555
C88 C87 1_555 1_555
H64 C88 1_555 1_555
N4 C88 1_555 1_555
C89 N4 1_555 1_555
H65 C89 1_555 1_555
C90 C86 1_555 1_555
H66 C90 1_555 1_555
Zn1 O1 1_555 1_555
Zn2 O3 1_555 1_555
Zn3 O8 1_555 1_555
O8C Zn3 1_555 1_555
O9C Zn3 1_555 1_555
C67C O8C 1_555 1_555
C68C C67C 1_555 1_555
C69C C68C 1_555 1_555
H49C C69C 1_555 1_555
C70C C69C 1_555 1_555
H50C C70C 1_555 1_555
C71C C70C 1_555 1_555
H51C C71C 1_555 1_555
C72C C71C 1_555 1_555
C73C C68C 1_555 1_555
H52C C73C 1_555 1_555
C74C C72C 1_555 1_555
H53C C74C 1_555 1_555
C75C C74C 1_555 1_555
H54C C75C 1_555 1_555
C76C C75C 1_555 1_555
C77C C76C 1_555 1_555
H55C C77C 1_555 1_555
C78C C77C 1_555 1_555
H56C C78C 1_555 1_555
C79C C78C 1_555 1_555
C80C C79C 1_555 1_555
H57C C80C 1_555 1_555
C81C C76C 1_555 1_555
H58C C81C 1_555 1_555
C82C C79C 1_555 1_555
C84C C82C 1_555 1_555
H61C C84C 1_555 1_555
C86C C84C 1_555 1_555
C87C C86C 1_555 1_555
H63C C87C 1_555 1_555
C88C C87C 1_555 1_555
H64C C88C 1_555 1_555
N4C C88C 1_555 1_555
C89C N4C 1_555 1_555
H65C C89C 1_555 1_555
C90C C86C 1_555 1_555
H66C C90C 1_555 1_555
O1_2 C1_2 1_555 1_555
N1_2 Zn1 1_555 1_555
C1_2 O2_2 1_555 1_555
O2_2 Zn2_2 1_555 1_555
C2_2 C1_2 1_555 1_555
C3_2 C2_2 1_555 1_555
H1_2 C3_2 1_555 1_555
C4_2 C3_2 1_555 1_555
H2_2 C4_2 1_555 1_555
C5_2 C4_2 1_555 1_555
H3_2 C5_2 1_555 1_555
C6_2 C5_2 1_555 1_555
C7_2 C2_2 1_555 1_555
H4_2 C7_2 1_555 1_555
C8_2 C6_2 1_555 1_555
H5_2 C8_2 1_555 1_555
C9_2 C8_2 1_555 1_555
H6_2 C9_2 1_555 1_555
C10_2 C9_2 1_555 1_555
C11_2 C10_2 1_555 1_555
H7_2 C11_2 1_555 1_555
C12_2 C11_2 1_555 1_555
H8_2 C12_2 1_555 1_555
C13_2 C12_2 1_555 1_555
C14_2 C13_2 1_555 1_555
H9_2 C14_2 1_555 1_555
C15_2 C10_2 1_555 1_555
H10_2 C15_2 1_555 1_555
C16_2 C13_2 1_555 1_555
H11_2 C16_2 1_555 1_555
C17_2 C16_2 1_555 1_555
H12_2 C17_2 1_555 1_555
C18_2 C17_2 1_555 1_555
C19_2 C18_2 1_555 1_555
H13_2 C19_2 1_555 1_555
C20_2 N1_2 1_555 1_555
H14_2 C20_2 1_555 1_555
C21_2 N1_2 1_555 1_555
H15_2 C21_2 1_555 1_555
C22_2 C18_2 1_555 1_555
H16_2 C22_2 1_555 1_555
Zn1_2 O1_2 1_555 1_555
Zn2_2 O3_2 1_555 1_555
N3B C64B 1_555 1_555
O5B Zn2 1_555 1_555
O6B C45B 1_555 1_555
C45B O5B 1_555 1_555
C46B C45B 1_555 1_555
C47B C46B 1_555 1_555
H33B C47B 1_555 1_555
C48B C47B 1_555 1_555
H34B C48B 1_555 1_555
C49B C48B 1_555 1_555
H35B C49B 1_555 1_555
C50B C49B 1_555 1_555
C51B C46B 1_555 1_555
H36B C51B 1_555 1_555
C52B C50B 1_555 1_555
H37B C52B 1_555 1_555
C53B C52B 1_555 1_555
H38B C53B 1_555 1_555
C54B C53B 1_555 1_555
C55B C54B 1_555 1_555
H39B C55B 1_555 1_555
C56B C55B 1_555 1_555
H40B C56B 1_555 1_555
C57B C56B 1_555 1_555
C58B C57B 1_555 1_555
H41B C58B 1_555 1_555
C59B C54B 1_555 1_555
H42B C59B 1_555 1_555
C60B C57B 1_555 1_555
H43B C60B 1_555 1_555
C61B C60B 1_555 1_555
H44B C61B 1_555 1_555
C62B C61B 1_555 1_555
C63B C62B 1_555 1_555
H45B C63B 1_555 1_555
C64B C63B 1_555 1_555
H46B C64B 1_555 1_555
C65B N3B 1_555 1_555
H47B C65B 1_555 1_555
C66B C62B 1_555 1_555
H48B C66B 1_555 1_555
O7B Zn2 1_555 1_555
N2_2 C42_2 1_555 1_555
O3_2 C23_2 1_555 1_555
O4_2 Zn1_2 1_555 1_555
C23_2 O4_2 1_555 1_555
C24_2 C23_2 1_555 1_555
C25_2 C24_2 1_555 1_555
H17_2 C25_2 1_555 1_555
C26_2 C25_2 1_555 1_555
H18_2 C26_2 1_555 1_555
C27_2 C26_2 1_555 1_555
H19_2 C27_2 1_555 1_555
C28_2 C27_2 1_555 1_555
C29_2 C24_2 1_555 1_555
H20_2 C29_2 1_555 1_555
C30_2 C28_2 1_555 1_555
H21_2 C30_2 1_555 1_555
C31_2 C30_2 1_555 1_555
H22_2 C31_2 1_555 1_555
C32_2 C31_2 1_555 1_555
C33_2 C32_2 1_555 1_555
H23_2 C33_2 1_555 1_555
C34_2 C33_2 1_555 1_555
H24_2 C34_2 1_555 1_555
C35_2 C34_2 1_555 1_555
C36_2 C35_2 1_555 1_555
H25_2 C36_2 1_555 1_555
C37_2 C32_2 1_555 1_555
H26_2 C37_2 1_555 1_555
C38_2 C35_2 1_555 1_555
H27_2 C38_2 1_555 1_555
C39_2 C38_2 1_555 1_555
H28_2 C39_2 1_555 1_555
C40_2 C39_2 1_555 1_555
C41_2 C40_2 1_555 1_555
H29_2 C41_2 1_555 1_555
C42_2 C41_2 1_555 1_555
H30_2 C42_2 1_555 1_555
C43_2 N2_2 1_555 1_555
H31_2 C43_2 1_555 1_555
C44_2 C40_2 1_555 1_555
H32_2 C44_2 1_555 1_555
Zn1_3 N1 1_555 1_555
Zn2B O5 1_555 1_555
Zn2B_2 O7 1_555 1_555
Zn3_2 N4 1_555 1_555
N4_2 Zn3 1_555 1_555
N4C_2 Zn3 1_555 1_555
Zn3_3 N4C 1_555 1_555
N1_3 Zn1_2 1_555 1_555
O7_2 Zn1_2 1_555 1_555
N3_2 Zn2_2 1_555 1_555
O5B_2 Zn2_2 1_555 1_555
O7B_2 Zn2_2 1_555 1_555
Zn1B O7B 1_555 1_555
N3 Zn2 1_555 1_555
O4 Zn1 1_555 1_555
C6 C7 1_555 1_555
O7 Zn2 1_555 1_555
O9 Zn3 1_555 1_555
C14 C15 1_555 1_555
C21 C22 1_555 1_555
C28 C29 1_555 1_555
C36 C37 1_555 1_555
C43 C44 1_555 1_555
C50 C51 1_555 1_555
C58 C59 1_555 1_555
C65 C66 1_555 1_555
C72 C73 1_555 1_555
C80 C81 1_555 1_555
C89 C90 1_555 1_555
O9C C67C 1_555 1_555
C72C C73C 1_555 1_555
C80C C81C 1_555 1_555
C89C C90C 1_555 1_555
C6_2 C7_2 1_555 1_555
C14_2 C15_2 1_555 1_555
C19_2 C20_2 1_555 1_555
C21_2 C22_2 1_555 1_555
Zn2_2 O7_2 1_555 1_555
N3B Zn2B 1_555 1_555
C50B C51B 1_555 1_555
C58B C59B 1_555 1_555
C65B C66B 1_555 1_555
O7B Zn2B_2 1_555 1_555
C28_2 C29_2 1_555 1_555
C36_2 C37_2 1_555 1_555
C43_2 C44_2 1_555 1_555

#END
