
#######################################################################
#
#                 Cambridge Crystallographic Data Centre
#                                CCDC 
#
#######################################################################
#
# If this CIF has been generated from an entry in the Cambridge 
# Structural Database, then it will include bibliographic, chemical, 
# crystal, experimental, refinement or atomic coordinate data resulting 
# from the CCDC's data processing and validation procedures.
#
#######################################################################

data_XOFYIC
_symmetry_cell_setting           triclinic
_symmetry_space_group_name_H-M   'P -1'
_symmetry_Int_Tables_number      2
_space_group_name_Hall           '-P 1'
loop_
_symmetry_equiv_pos_site_id
_symmetry_equiv_pos_as_xyz
1 x,y,z
2 -x,-y,-z
_cell_length_a                   11.1699(8)
_cell_length_b                   11.2842(8)
_cell_length_c                   12.1363(9)
_cell_angle_alpha                67.4340(10)
_cell_angle_beta                 84.532(2)
_cell_angle_gamma                70.5560(10)
_cell_volume                     1331.09
loop_
_atom_site_label
_atom_site_type_symbol
_atom_site_fract_x
_atom_site_fract_y
_atom_site_fract_z
Cu1 Cu 0.56309(5) 0.06885(5) 0.39217(5)
Cu2 Cu 0.74922(5) -0.11431(5) 0.61861(5)
O1 O 0.6024(2) -0.1029(3) 0.5297(2)
S1 S 1.42527(12) -0.28455(11) 1.07123(12)
S2 S 1.14889(11) -0.21038(13) 1.03002(11)
N1 N 1.5239(3) -0.7375(3) 1.2847(3)
N2 N 0.8689(3) -0.1324(4) 0.7417(4)
C1 C 1.4317(4) -0.6756(4) 1.1967(4)
H1 H 1.3912 -0.7280 1.1816
C2 C 1.3959(4) -0.5403(4) 1.1296(4)
H2 H 1.3315 -0.5021 1.0710
C3 C 1.4562(4) -0.4589(4) 1.1491(4)
C4 C 1.5534(4) -0.5233(4) 1.2380(4)
H3 H 1.5981 -0.4741 1.2527
C5 C 1.5820(4) -0.6602(4) 1.3034(4)
H4 H 1.6449 -0.7010 1.3637
C6 C 1.3038(4) -0.2405(5) 0.9634(4)
H5 H 1.3192 -0.3135 0.9348
H6 H 1.3053 -0.1596 0.8958
C7 C 1.0458(4) -0.1824(4) 0.9155(4)
C8 C 1.0833(4) -0.2127(5) 0.8160(5)
H7 H 1.1692 -0.2498 0.8050
C9 C 0.9938(4) -0.1884(6) 0.7314(5)
H8 H 1.0213 -0.2116 0.6654
C10 C 0.8338(4) -0.1009(5) 0.8379(5)
H9 H 0.7478 -0.0599 0.8453
C11 C 0.9165(4) -0.1252(5) 0.9260(4)
H10 H 0.8864 -0.1037 0.9924
O2 O 0.8178(3) -0.3133(3) 0.6734(3)
O3 O 0.7404(3) -0.3397(3) 0.5263(3)
C12 C 0.8107(4) -0.3831(5) 0.6149(5)
C13 C 0.8929(6) -0.5292(5) 0.6643(6)
H11 H 0.8432 -0.5861 0.6698
H12 H 0.9261 -0.5507 0.7422
H13 H 0.9619 -0.5440 0.6124
O4 O 0.7150(3) 0.0144(3) 0.3120(3)
O5 O 0.8695(3) -0.0900(3) 0.4541(3)
C14 C 0.8270(4) -0.0641(4) 0.3541(4)
C15 C 0.9065(5) -0.1279(5) 0.2718(5)
H14 H 0.9926 -0.1307 0.2771
H15 H 0.8735 -0.0754 0.1913
H16 H 0.9040 -0.2185 0.2946
O6 O 0.6736(3) 0.0830(3) 0.5804(3)
O7 O 0.5397(3) 0.0178(4) 0.7182(3)
C16 C 0.5827(4) 0.1083(5) 0.6488(5)
C17 C 0.5283(5) 0.2519(5) 0.6413(5)
H17 H 0.5116 0.3119 0.5591
H18 H 0.5879 0.2728 0.6768
H19 H 0.4505 0.2629 0.6833
Cu1_2 Cu 1.56309(5) -0.93115(5) 1.39217(5)
Cu1A Cu 0.43691(5) -0.06885(5) 0.60783(5)
O1A O 0.3976(2) 0.1029(3) 0.4703(2)
N1_2 N 0.5239(3) 0.2625(3) 0.2847(3)
O7A O 0.4603(3) -0.0178(4) 0.2818(3)
O8 O 0.1421(5) 0.7713(5) 0.4865(5)
H20 H 0.088(6) 0.794(7) 0.481(6)
H21 H 0.183(7) 0.834(8) 0.471(7)
O9 O 0.7780(4) 0.5117(5) 0.3747(4)
H22 H 0.764(5) 0.554(5) 0.429(5)
H23 H 0.788(5) 0.422(6) 0.422(5)
O10 O 0.6101(6) -0.0461(7) 1.0761(6)
H24 H 0.580(9) -0.024(9) 1.124(9)
H25 H 0.622(6) -0.109(6) 1.095(6)
O11 O 0.1314(6) 0.4447(6) 0.0435(7)
H26 H 0.079(11) 0.442(11) 0.110(10)
H27 H 0.080(8) 0.459(9) 0.016(9)
O12 O 0.7645(12) 0.6733(11) 0.1261(12)
H28 H 0.777(5) 0.624(6) 0.205(5)
H29 H 0.747(9) 0.705(9) 0.133(10)
loop_
_geom_bond_atom_site_label_1
_geom_bond_atom_site_label_2
_geom_bond_site_symmetry_1
_geom_bond_site_symmetry_2
Cu1 O1 1_555 1_555
Cu2 O1 1_555 1_555
O1 Cu1A 1_555 1_555
S1 C3 1_555 1_555
S2 C6 1_555 1_555
N1 C1 1_555 1_555
N2 Cu2 1_555 1_555
C1 H1 1_555 1_555
C2 C1 1_555 1_555
H2 C2 1_555 1_555
C3 C2 1_555 1_555
C4 C3 1_555 1_555
H3 C4 1_555 1_555
C5 N1 1_555 1_555
H4 C5 1_555 1_555
C6 S1 1_555 1_555
H5 C6 1_555 1_555
H6 C6 1_555 1_555
C7 S2 1_555 1_555
C8 C7 1_555 1_555
H7 C8 1_555 1_555
C9 N2 1_555 1_555
H8 C9 1_555 1_555
C10 N2 1_555 1_555
H9 C10 1_555 1_555
C11 C7 1_555 1_555
H10 C11 1_555 1_555
O2 Cu2 1_555 1_555
O3 C12 1_555 1_555
C12 O2 1_555 1_555
C13 C12 1_555 1_555
H11 C13 1_555 1_555
H12 C13 1_555 1_555
H13 C13 1_555 1_555
O4 Cu1 1_555 1_555
O5 Cu2 1_555 1_555
C14 O4 1_555 1_555
C15 C14 1_555 1_555
H14 C15 1_555 1_555
H15 C15 1_555 1_555
H16 C15 1_555 1_555
O6 Cu1 1_555 1_555
O7 Cu2 1_555 1_555
C16 O6 1_555 1_555
C17 C16 1_555 1_555
H17 C17 1_555 1_555
H18 C17 1_555 1_555
H19 C17 1_555 1_555
O8 H20 1_555 1_555
H21 O8 1_555 1_555
O9 H22 1_555 1_555
H23 O9 1_555 1_555
O10 H24 1_555 1_555
H25 O10 1_555 1_555
O11 H26 1_555 1_555
H27 O11 1_555 1_555
O12 H28 1_555 1_555
H29 O12 1_555 1_555
Cu1_2 N1 1_555 1_555
Cu1A O7 1_555 1_555
O1A Cu1 1_555 1_555
N1_2 Cu1 1_555 1_555
O7A Cu1 1_555 1_555
Cu2 O6 1_555 1_555
C4 C5 1_555 1_555
C8 C9 1_555 1_555
C10 C11 1_555 1_555
O5 C14 1_555 1_555
O7 C16 1_555 1_555
Cu1A O1A 1_555 1_555

#END
