
#######################################################################
#
#                 Cambridge Crystallographic Data Centre
#                                CCDC 
#
#######################################################################
#
# If this CIF has been generated from an entry in the Cambridge 
# Structural Database, then it will include bibliographic, chemical, 
# crystal, experimental, refinement or atomic coordinate data resulting 
# from the CCDC's data processing and validation procedures.
#
#######################################################################

data_XOGBAW
_symmetry_cell_setting           monoclinic
_symmetry_space_group_name_H-M   'P 21/n'
_symmetry_Int_Tables_number      14
_space_group_name_Hall           '-P 2yn'
loop_
_symmetry_equiv_pos_site_id
_symmetry_equiv_pos_as_xyz
1 x,y,z
2 1/2+x,1/2-y,1/2+z
3 -x,-y,-z
4 1/2-x,1/2+y,1/2-z
_cell_length_a                   7.361(3)
_cell_length_b                   8.133(3)
_cell_length_c                   14.078(5)
_cell_angle_alpha                90
_cell_angle_beta                 104.40(1)
_cell_angle_gamma                90
_cell_volume                     816.329
loop_
_atom_site_label
_atom_site_type_symbol
_atom_site_fract_x
_atom_site_fract_y
_atom_site_fract_z
Co1 Co 0.0000 0.0000 0.0000
P1 P 0.07108(9) -0.31307(8) 0.15658(5)
P2 P 0.68734(9) -0.27754(8) 0.34732(5)
O1 O 0.0915(3) -0.1352(2) 0.13310(13)
O2 O 0.5735(3) -0.3102(2) 0.41920(14)
O3 O 0.2693(3) 0.1026(3) 0.0311(2)
O4 O -0.1159(3) -0.3769(3) 0.0881(2)
O5 O 0.0856(3) -0.3500(3) 0.26269(14)
O6 O 0.7897(3) -0.1154(2) 0.35915(14)
O7 O 0.8231(3) -0.4243(2) 0.3460(2)
N1 N 0.4305(3) -0.4400(3) 0.2034(2)
C1 C 0.2536(4) -0.4344(3) 0.1229(2)
C2 C 0.5280(4) -0.2770(3) 0.2258(2)
H1 H 0.5077(47) -0.4989(38) 0.1885(23)
H2 H 0.4013(54) -0.4738(47) 0.2580(32)
H3 H -0.1607(61) -0.4454(56) 0.0975(32)
H4 H 0.8902(58) -0.3965(51) 0.3152(30)
H5 H 0.2983(57) 0.1227(49) 0.0828(34)
H6 H 0.310(11) 0.097(10) -0.0100(56)
H7 H 0.2790(42) -0.3933(37) 0.0663(24)
H8 H 0.2122(44) -0.5523(40) 0.1116(23)
H9 H 0.5918(47) -0.2520(42) 0.1763(26)
H10 H 0.4269(44) -0.1876(41) 0.2240(23)
P1B P -0.07108(9) 0.31307(8) -0.15658(5)
P2B P -0.68734(9) 0.27754(8) -0.34732(5)
O1B O -0.0915(3) 0.1352(2) -0.13310(13)
O2B O -0.5735(3) 0.3102(2) -0.41920(14)
O4B O 0.1159(3) 0.3769(3) -0.0881(2)
O5B O -0.0856(3) 0.3500(3) -0.26269(14)
O6B O -0.7897(3) 0.1154(2) -0.35915(14)
O7B O -0.8231(3) 0.4243(2) -0.3460(2)
N1B N -0.4305(3) 0.4400(3) -0.2034(2)
C1B C -0.2536(4) 0.4344(3) -0.1229(2)
C2B C -0.5280(4) 0.2770(3) -0.2258(2)
H1B H -0.5077(47) 0.4989(38) -0.1885(23)
H2B H -0.4013(54) 0.4738(47) -0.2580(32)
H3B H 0.1607(61) 0.4454(56) -0.0975(32)
H4B H -0.8902(58) 0.3965(51) -0.3152(30)
H7B H -0.2790(42) 0.3933(37) -0.0663(24)
H8B H -0.2122(44) 0.5523(40) -0.1116(23)
H9B H -0.5918(47) 0.2520(42) -0.1763(26)
H10B H -0.4269(44) 0.1876(41) -0.2240(23)
O3B O -0.2693(3) -0.1026(3) -0.0311(2)
H5B H -0.2983(57) -0.1227(49) -0.0828(34)
H6B H -0.310(11) -0.097(10) 0.0100(56)
O2A O 0.0735(3) -0.1898(2) -0.08080(14)
O2C O -0.0735(3) 0.1898(2) 0.08080(14)
Co1A Co 0.5000 -0.5000 0.5000
Co1A_2 Co -0.5000 0.5000 -0.5000
loop_
_geom_bond_atom_site_label_1
_geom_bond_atom_site_label_2
_geom_bond_site_symmetry_1
_geom_bond_site_symmetry_2
Co1 O1 1_555 1_555
P1 O1 1_555 1_555
P2 O2 1_555 1_555
O2 Co1A 1_555 1_555
O3 Co1 1_555 1_555
O4 P1 1_555 1_555
O5 P1 1_555 1_555
O6 P2 1_555 1_555
O7 P2 1_555 1_555
N1 C1 1_555 1_555
C1 P1 1_555 1_555
C2 P2 1_555 1_555
H1 N1 1_555 1_555
H2 N1 1_555 1_555
H3 O4 1_555 1_555
H4 O7 1_555 1_555
H5 O3 1_555 1_555
H6 O3 1_555 1_555
H7 C1 1_555 1_555
H8 C1 1_555 1_555
H9 C2 1_555 1_555
H10 C2 1_555 1_555
P1B O1B 1_555 1_555
P2B O2B 1_555 1_555
O1B Co1 1_555 1_555
O2B Co1A_2 1_555 1_555
O4B P1B 1_555 1_555
O5B P1B 1_555 1_555
O6B P2B 1_555 1_555
O7B P2B 1_555 1_555
N1B C1B 1_555 1_555
C1B P1B 1_555 1_555
C2B P2B 1_555 1_555
H1B N1B 1_555 1_555
H2B N1B 1_555 1_555
H3B O4B 1_555 1_555
H4B O7B 1_555 1_555
H7B C1B 1_555 1_555
H8B C1B 1_555 1_555
H9B C2B 1_555 1_555
H10B C2B 1_555 1_555
O3B Co1 1_555 1_555
H5B O3B 1_555 1_555
H6B O3B 1_555 1_555
O2A Co1 1_555 1_555
O2C Co1 1_555 1_555
N1 C2 1_555 1_555
N1B C2B 1_555 1_555

#END
