
#######################################################################
#
#                 Cambridge Crystallographic Data Centre
#                                CCDC 
#
#######################################################################
#
# If this CIF has been generated from an entry in the Cambridge 
# Structural Database, then it will include bibliographic, chemical, 
# crystal, experimental, refinement or atomic coordinate data resulting 
# from the CCDC's data processing and validation procedures.
#
#######################################################################

data_XOGCIG
_symmetry_cell_setting           monoclinic
_symmetry_space_group_name_H-M   'P 21/n'
_symmetry_Int_Tables_number      14
_space_group_name_Hall           '-P 2yn'
loop_
_symmetry_equiv_pos_site_id
_symmetry_equiv_pos_as_xyz
1 x,y,z
2 1/2-x,1/2+y,1/2-z
3 -x,-y,-z
4 1/2+x,1/2-y,1/2+z
_cell_length_a                   7.0552(6)
_cell_length_b                   17.0307(15)
_cell_length_c                   10.7581(10)
_cell_angle_alpha                90
_cell_angle_beta                 107.4220(10)
_cell_angle_gamma                90
_cell_volume                     1233.34
loop_
_atom_site_label
_atom_site_type_symbol
_atom_site_fract_x
_atom_site_fract_y
_atom_site_fract_z
S1 S -0.25655(8) -0.20060(3) 0.61252(5)
O1 O -0.2444(2) 0.16471(9) 1.19688(16)
O2 O -0.2559(2) -0.06704(9) 1.27812(15)
O3 O -0.1867(3) -0.27130(9) 0.68923(16)
O4 O -0.1278(2) -0.17604(9) 0.53677(15)
O5 O -0.4618(2) -0.20658(10) 0.53052(16)
N1 N -0.2564(3) -0.04576(10) 1.15298(18)
O6 O -0.2590(3) 0.06875(9) 1.33400(16)
C1 C -0.2519(3) 0.09475(13) 1.2234(2)
C2 C -0.2508(3) -0.14452(13) 0.8516(2)
H1 H -0.2469 -0.1970 0.8762
C3 C -0.2620(3) -0.10736(12) 1.0707(2)
C4 C -0.2532(3) 0.03359(12) 1.1213(2)
C5 C -0.2573(3) -0.00554(13) 0.9048(2)
C6 C -0.2561(3) -0.08520(12) 0.9407(2)
C7 C -0.2514(3) -0.12491(12) 0.7271(2)
C8 C -0.2566(3) -0.04607(13) 0.6887(2)
H2 H -0.2577 -0.0334 0.6044
C9 C -0.2601(3) 0.01227(13) 0.7758(2)
H3 H -0.2643 0.0645 0.7497
C10 C -0.2563(3) 0.05351(12) 0.9986(2)
H4 H -0.2579 0.1062 0.9756
Na1 Na -0.21990(13) 0.19241(5) 1.43873(9)
Na2 Na -0.15545(15) 0.29609(5) 1.18679(9)
O7 O -0.2729(2) -0.17550(9) 1.10856(15)
O8 O -0.0966(3) 0.16578(11) 1.65234(18)
H5 H -0.247(4) -0.0090(17) 1.317(3)
H6 H -0.133(5) 0.1839(17) 1.716(3)
H7 H -0.002(5) 0.1393(17) 1.683(3)
O2A O -0.2441(2) 0.43296(9) 1.22188(15)
O3B O 0.1867(3) 0.27130(9) 1.31077(16)
O4B O 0.1278(2) 0.17604(9) 1.46323(15)
O4A O -0.3722(2) 0.32396(9) 0.96323(15)
O5B O -0.5382(2) 0.20658(10) 1.46948(16)
O5A O -0.0382(2) 0.29342(10) 0.96948(16)
Na1B Na 0.21990(13) -0.19241(5) 0.56127(9)
Na1B_2 Na -0.78010(13) -0.19241(5) 0.56127(9)
Na1A Na -0.28010(13) -0.30759(5) 1.06127(9)
Na2A Na -0.34455(15) -0.20391(5) 1.31321(9)
Na2B Na 0.15545(15) -0.29609(5) 0.81321(9)
Na2A_2 Na -0.34455(15) -0.20391(5) 0.31321(9)
O7A O -0.2271(2) 0.32450(9) 1.39144(15)
H5A H -0.253(4) 0.4910(17) 1.183(3)
loop_
_geom_bond_atom_site_label_1
_geom_bond_atom_site_label_2
_geom_bond_site_symmetry_1
_geom_bond_site_symmetry_2
S1 O3 1_555 1_555
O1 C1 1_555 1_555
O2 N1 1_555 1_555
O3 Na2B 1_555 1_555
O4 S1 1_555 1_555
O5 S1 1_555 1_555
N1 C3 1_555 1_555
O6 C1 1_555 1_555
C1 C4 1_555 1_555
C2 H1 1_555 1_555
C3 C6 1_555 1_555
C4 N1 1_555 1_555
C5 C6 1_555 1_555
C6 C2 1_555 1_555
C7 S1 1_555 1_555
C8 C7 1_555 1_555
H2 C8 1_555 1_555
C9 C5 1_555 1_555
H3 C9 1_555 1_555
C10 C4 1_555 1_555
H4 C10 1_555 1_555
Na1 O1 1_555 1_555
Na2 O1 1_555 1_555
O7 C3 1_555 1_555
O8 Na1 1_555 1_555
H5 O2 1_555 1_555
H6 O8 1_555 1_555
H7 O8 1_555 1_555
O2A Na2 1_555 1_555
O3B Na2 1_555 1_555
O4B Na1 1_555 1_555
O4A Na2 1_555 1_555
O5B Na1 1_555 1_555
O5A Na2 1_555 1_555
Na1B O4 1_555 1_555
Na1B_2 O5 1_555 1_555
Na1A O7 1_555 1_555
Na2A O2 1_555 1_555
Na2A_2 O4 1_555 1_555
O7A Na1 1_555 1_555
H5A O2A 1_555 1_555
O5 Na2A_2 1_555 1_555
O6 Na1 1_555 1_555
C2 C7 1_555 1_555
C5 C10 1_555 1_555
C8 C9 1_555 1_555
Na2 O7A 1_555 1_555
O7 Na2A 1_555 1_555

#END
