
#######################################################################
#
#                 Cambridge Crystallographic Data Centre
#                                CCDC 
#
#######################################################################
#
# If this CIF has been generated from an entry in the Cambridge 
# Structural Database, then it will include bibliographic, chemical, 
# crystal, experimental, refinement or atomic coordinate data resulting 
# from the CCDC's data processing and validation procedures.
#
#######################################################################

data_XOGGAD
_symmetry_cell_setting           triclinic
_symmetry_space_group_name_H-M   'P -1'
_symmetry_Int_Tables_number      2
_space_group_name_Hall           '-P 1'
loop_
_symmetry_equiv_pos_site_id
_symmetry_equiv_pos_as_xyz
1 x,y,z
2 -x,-y,-z
_cell_length_a                   7.4682(3)
_cell_length_b                   7.8491(3)
_cell_length_c                   10.2501(4)
_cell_angle_alpha                79.9360(10)
_cell_angle_beta                 74.1450(10)
_cell_angle_gamma                74.3440(10)
_cell_volume                     553.225
loop_
_atom_site_label
_atom_site_type_symbol
_atom_site_fract_x
_atom_site_fract_y
_atom_site_fract_z
Mn1 Mn 1.0000 0.5000 0.0000
Mn2 Mn 1.0000 1.0000 0.0000
C1 C 0.6686(2) 0.80058(18) 0.13166(14)
C2 C 0.4650(2) 0.8773(2) 0.21062(17)
H1 H 0.4635 0.9861 0.2440
H2 H 0.3818 0.9090 0.1479
C3 C 0.3132(2) 0.6313(2) 0.30448(16)
H3 H 0.3156 0.6171 0.2158
C4 C 0.2359(3) 0.5206(2) 0.41187(17)
H4 H 0.1890 0.4296 0.3961
C5 C 0.2285(2) 0.5456(2) 0.54305(17)
H5 H 0.1745 0.4730 0.6167
C6 C 0.3011(3) 0.6779(3) 0.56417(17)
H6 H 0.2968 0.6963 0.6523
C7 C 0.3806(2) 0.7836(2) 0.45406(17)
H7 H 0.4319 0.8728 0.4677
N1 N 1.16853(17) 0.70249(16) -0.00672(13)
N2 N 1.33197(18) 0.69084(16) -0.06602(13)
N3 N 1.4892(2) 0.6832(2) -0.1232(2)
N4 N 1.0038(2) 0.99958(18) 0.21548(14)
N5 N 0.9031(2) 0.93360(18) 0.31005(14)
N6 N 0.8056(3) 0.8691(2) 0.40175(19)
N7 N 0.38470(17) 0.75906(16) 0.32690(13)
O1 O 1.10703(17) 0.33815(15) 0.17416(11)
H8 H 1.083(3) 0.235(3) 0.192(2)
H9 H 1.222(4) 0.323(3) 0.160(2)
O2 O 0.74119(14) 0.63820(13) 0.14525(10)
O3 O 0.74040(14) 0.91822(14) 0.05293(11)
C1A C 1.3314(2) 0.19942(18) -0.13166(14)
C2A C 1.5350(2) 0.1227(2) -0.21062(17)
H1A H 1.5365 0.0139 -0.2440
H2A H 1.6182 0.0910 -0.1479
C3A C 1.6868(2) 0.3687(2) -0.30448(16)
H3A H 1.6844 0.3829 -0.2158
C4A C 1.7641(3) 0.4794(2) -0.41187(17)
H4A H 1.8110 0.5704 -0.3961
C5A C 1.7715(2) 0.4544(2) -0.54305(17)
H5A H 1.8255 0.5270 -0.6167
C6A C 1.6989(3) 0.3221(3) -0.56417(17)
H6A H 1.7032 0.3037 -0.6523
C7A C 1.6194(2) 0.2164(2) -0.45406(17)
H7A H 1.5681 0.1272 -0.4677
N1A N 0.83147(17) 0.29751(16) 0.00672(13)
N2A N 0.66803(18) 0.30916(16) 0.06602(13)
N3A N 0.5108(2) 0.3168(2) 0.1232(2)
N7A N 1.61530(17) 0.24094(16) -0.32690(13)
O1A O 0.89297(17) 0.66185(15) -0.17416(11)
H8A H 0.917(3) 0.765(3) -0.192(2)
H9A H 0.778(4) 0.677(3) -0.160(2)
O2A O 1.25881(14) 0.36180(13) -0.14525(10)
O3A O 1.25960(14) 0.08178(14) -0.05293(11)
N4A N 0.9962(2) 1.00042(18) -0.21548(14)
N5A N 1.0969(2) 1.06640(18) -0.31005(14)
N6A N 1.1944(3) 1.1309(2) -0.40175(19)
Mn2_2 Mn 1.0000 0.0000 0.0000
N1A_2 N 0.83147(17) 1.29751(16) 0.00672(13)
O3A_2 O 1.25960(14) 1.08178(14) -0.05293(11)
loop_
_geom_bond_atom_site_label_1
_geom_bond_atom_site_label_2
_geom_bond_site_symmetry_1
_geom_bond_site_symmetry_2
Mn1 N1 1_555 1_555
Mn2 N1 1_555 1_555
C1 C2 1_555 1_555
C2 H1 1_555 1_555
H2 C2 1_555 1_555
C3 H3 1_555 1_555
C4 C3 1_555 1_555
H4 C4 1_555 1_555
C5 C4 1_555 1_555
H5 C5 1_555 1_555
C6 C5 1_555 1_555
H6 C6 1_555 1_555
C7 C6 1_555 1_555
H7 C7 1_555 1_555
N1 N2 1_555 1_555
N2 N3 1_555 1_555
N4 Mn2 1_555 1_555
N5 N4 1_555 1_555
N6 N5 1_555 1_555
N7 C2 1_555 1_555
O1 Mn1 1_555 1_555
H8 O1 1_555 1_555
H9 O1 1_555 1_555
O2 Mn1 1_555 1_555
O3 Mn2 1_555 1_555
C1A C2A 1_555 1_555
C2A H1A 1_555 1_555
H2A C2A 1_555 1_555
C3A H3A 1_555 1_555
C4A C3A 1_555 1_555
H4A C4A 1_555 1_555
C5A C4A 1_555 1_555
H5A C5A 1_555 1_555
C6A C5A 1_555 1_555
H6A C6A 1_555 1_555
C7A C6A 1_555 1_555
H7A C7A 1_555 1_555
N1A Mn1 1_555 1_555
N2A N1A 1_555 1_555
N3A N2A 1_555 1_555
N7A C2A 1_555 1_555
O1A Mn1 1_555 1_555
H8A O1A 1_555 1_555
H9A O1A 1_555 1_555
O2A Mn1 1_555 1_555
O3A C1A 1_555 1_555
N4A Mn2 1_555 1_555
N5A N4A 1_555 1_555
N6A N5A 1_555 1_555
Mn2_2 N1A 1_555 1_555
N1A_2 Mn2 1_555 1_555
O3A_2 Mn2 1_555 1_555
C1 O2 1_555 1_555
C1 O3 1_555 1_555
C3 N7 1_555 1_555
C7 N7 1_555 1_555
C1A O2A 1_555 1_555
C3A N7A 1_555 1_555
C7A N7A 1_555 1_555
O3A Mn2_2 1_555 1_555

#END
