
#######################################################################
#
#                 Cambridge Crystallographic Data Centre
#                                CCDC 
#
#######################################################################
#
# If this CIF has been generated from an entry in the Cambridge 
# Structural Database, then it will include bibliographic, chemical, 
# crystal, experimental, refinement or atomic coordinate data resulting 
# from the CCDC's data processing and validation procedures.
#
#######################################################################

data_XOGGUX
_symmetry_cell_setting           triclinic
_symmetry_space_group_name_H-M   'P -1'
_symmetry_Int_Tables_number      2
_space_group_name_Hall           '-P 1'
loop_
_symmetry_equiv_pos_site_id
_symmetry_equiv_pos_as_xyz
1 x,y,z
2 -x,-y,-z
_cell_length_a                   10.9582(18)
_cell_length_b                   11.4242(19)
_cell_length_c                   12.1615(19)
_cell_angle_alpha                62.179(5)
_cell_angle_beta                 83.516(5)
_cell_angle_gamma                80.801(5)
_cell_volume                     1327.9
loop_
_atom_site_label
_atom_site_type_symbol
_atom_site_fract_x
_atom_site_fract_y
_atom_site_fract_z
Mn1 Mn 0.59063(5) 0.25972(5) 0.26468(4)
Mn2 Mn 0.5000 0.5000 0.0000
Mn3 Mn 0.5000 0.0000 0.5000
N1 N 0.6530(3) 0.0447(3) 0.3505(3)
C1 C 0.7580(6) 0.0001(6) 0.3692(5)
O1 O 0.8668(5) -0.0425(7) 0.3899(6)
N2 N 0.4111(3) 0.2001(3) 0.3698(3)
C2 C 0.3095(4) 0.2321(4) 0.3395(4)
O2 O 0.2052(3) 0.2614(5) 0.3080(4)
N3 N 0.5139(3) 0.2779(3) 0.0943(3)
C3 C 0.4601(3) 0.2070(3) 0.0782(3)
O3 O 0.4056(3) 0.1350(3) 0.0604(4)
N4 N 0.5266(3) 0.4821(3) 0.1835(3)
C4 C 0.5575(3) 0.5423(3) 0.2298(3)
O4 O 0.5878(3) 0.6030(3) 0.2763(3)
O5 O 0.6552(3) 0.2736(2) 0.4197(2)
C5 C 0.9125(4) -0.0246(4) 1.0965(4)
H1 H 0.8542 -0.0427 1.1624
C6 C 0.8741(4) 0.0517(4) 0.9744(3)
C7 C 0.9645(4) 0.0738(5) 0.8790(4)
H2 H 0.9416 0.1228 0.7968
C8 C 0.7393(4) 0.1006(4) 0.9543(3)
H3 H 0.6945 0.0251 0.9778
H4 H 0.7087 0.1411 1.0083
C9 C 0.7264(4) 0.3286(4) 0.7859(4)
H5 H 0.7449 0.3552 0.8430
C10 C 0.7122(4) 0.4199(4) 0.6656(4)
H6 H 0.7203 0.5087 0.6403
C11 C 0.6854(3) 0.3802(3) 0.5798(3)
H7 H 0.6779 0.4414 0.4962
C12 C 0.6700(3) 0.2490(3) 0.6207(3)
C13 C 0.6856(3) 0.1593(3) 0.7433(3)
H8 H 0.6763 0.0702 0.7706
C14 C 0.6354(3) 0.2011(3) 0.5328(3)
N5 N 0.7140(3) 0.1988(3) 0.8242(3)
C15 C 1.0721(4) 0.4024(4) -0.4047(4)
H9 H 1.1197 0.3359 -0.3409
C16 C 1.0368(4) 0.5262(4) -0.4080(3)
C17 C 0.9643(4) 0.6211(4) -0.5024(4)
H10 H 0.9388 0.7035 -0.5040
C18 C 1.0808(4) 0.5598(4) -0.3125(4)
H11 H 1.1693 0.5644 -0.3256
H12 H 1.0405 0.6470 -0.3253
C19 C 1.1453(4) 0.3645(4) -0.1158(4)
H13 H 1.2240 0.3600 -0.1523
C20 C 1.1204(4) 0.2740(4) 0.0061(4)
H14 H 1.1819 0.2072 0.0510
C21 C 1.0054(4) 0.2825(4) 0.0609(4)
H15 H 0.9897 0.2238 0.1439
C22 C 0.9125(3) 0.3788(3) -0.0077(3)
C23 C 0.9402(3) 0.4679(3) -0.1292(3)
H16 H 0.8792 0.5344 -0.1753
C24 C 0.7844(3) 0.3899(3) 0.0465(3)
N6 N 1.0543(3) 0.4603(3) -0.1821(3)
O6 O 0.7677(2) 0.3141(3) 0.1601(2)
O7 O 0.7046(2) 0.4717(2) -0.0286(2)
O8 O 0.5903(3) 0.0935(2) 0.5823(2)
O5A O 1.3448(3) -0.2736(2) 1.5803(2)
C5A C 1.0875(4) 0.0246(4) 0.9035(4)
H1A H 1.1458 0.0427 0.8376
C6A C 1.1259(4) -0.0517(4) 1.0256(3)
C7A C 1.0355(4) -0.0738(5) 1.1210(4)
H2A H 1.0584 -0.1228 1.2032
C8A C 1.2607(4) -0.1006(4) 1.0457(3)
H3A H 1.3055 -0.0251 1.0222
H4A H 1.2913 -0.1411 0.9917
C9A C 1.2736(4) -0.3286(4) 1.2141(4)
H5A H 1.2551 -0.3552 1.1570
C10A C 1.2878(4) -0.4199(4) 1.3344(4)
H6A H 1.2797 -0.5087 1.3597
C11A C 1.3146(3) -0.3802(3) 1.4202(3)
H7A H 1.3221 -0.4414 1.5038
C12A C 1.3300(3) -0.2490(3) 1.3793(3)
C13A C 1.3144(3) -0.1593(3) 1.2567(3)
H8A H 1.3237 -0.0702 1.2294
C14A C 1.3646(3) -0.2011(3) 1.4672(3)
N5A N 1.2860(3) -0.1988(3) 1.1758(3)
O8A O 1.4097(3) -0.0935(2) 1.4177(2)
C15A C 0.9279(4) 0.5976(4) -0.5953(4)
H9A H 0.8803 0.6641 -0.6591
C16A C 0.9632(4) 0.4738(4) -0.5920(3)
C17A C 1.0357(4) 0.3789(4) -0.4976(4)
H10A H 1.0612 0.2965 -0.4960
C18A C 0.9192(4) 0.4402(4) -0.6875(4)
H11A H 0.8307 0.4356 -0.6744
H12A H 0.9595 0.3530 -0.6747
C19A C 0.8547(4) 0.6355(4) -0.8842(4)
H13A H 0.7760 0.6400 -0.8477
C20A C 0.8796(4) 0.7260(4) -1.0061(4)
H14A H 0.8181 0.7928 -1.0510
C21A C 0.9946(4) 0.7175(4) -1.0609(4)
H15A H 1.0103 0.7762 -1.1439
C22A C 1.0875(3) 0.6212(3) -0.9923(3)
C23A C 1.0598(3) 0.5321(3) -0.8708(3)
H16A H 1.1208 0.4656 -0.8247
C24A C 1.2156(3) 0.6101(3) -1.0465(3)
N6A N 0.9457(3) 0.5397(3) -0.8179(3)
O6A O 1.2323(2) 0.6859(3) -1.1601(2)
O7A O 1.2954(2) 0.5283(2) -0.9714(2)
Mn1A Mn 0.40937(5) -0.25972(5) 0.73532(4)
N1A N 0.3470(3) -0.0447(3) 0.6495(3)
C1A C 0.2420(6) -0.0001(6) 0.6308(5)
O1A O 0.1332(5) 0.0425(7) 0.6101(6)
N2A N 0.5889(3) -0.2001(3) 0.6302(3)
C2A C 0.6905(4) -0.2321(4) 0.6605(4)
O2A O 0.7948(3) -0.2614(5) 0.6920(4)
N3A N 0.4861(3) -0.2779(3) 0.9057(3)
C3A C 0.5399(3) -0.2070(3) 0.9218(3)
O3A O 0.5944(3) -0.1350(3) 0.9396(4)
N4A N 0.4734(3) -0.4821(3) 0.8165(3)
C4A C 0.4425(3) -0.5423(3) 0.7702(3)
O4A O 0.4122(3) -0.6030(3) 0.7237(3)
Mn1A_2 Mn 1.40937(5) -0.25972(5) 1.73532(4)
Mn1A_3 Mn 1.40937(5) 0.74028(5) -1.26468(4)
Mn2_2 Mn 0.5000 -0.5000 1.0000
Mn2_3 Mn 1.5000 0.5000 -1.0000
Mn3_2 Mn 1.5000 0.0000 1.5000
N3A_2 N 0.4861(3) 0.7221(3) -0.0943(3)
N4A_2 N 0.4734(3) 0.5179(3) -0.1835(3)
O5A_2 O 0.3448(3) -0.2736(2) 0.5803(2)
O6A_2 O 0.2323(2) -0.3141(3) 0.8399(2)
O7A_2 O 0.2954(2) 0.5283(2) 0.0286(2)
O8A_2 O 0.4097(3) -0.0935(2) 0.4177(2)
O9 O 0.6533(6) 0.8567(6) 0.2404(7)
O10 O 1.1064(8) 0.0166(9) 0.3343(8)
loop_
_geom_bond_atom_site_label_1
_geom_bond_atom_site_label_2
_geom_bond_site_symmetry_1
_geom_bond_site_symmetry_2
Mn1 N1 1_555 1_555
Mn2 N3 1_555 1_555
Mn3 N1 1_555 1_555
N1 C1 1_555 1_555
C1 O1 1_555 1_555
N2 Mn1 1_555 1_555
C2 N2 1_555 1_555
O2 C2 1_555 1_555
N3 Mn1 1_555 1_555
C3 N3 1_555 1_555
O3 C3 1_555 1_555
N4 Mn1 1_555 1_555
C4 N4 1_555 1_555
O4 C4 1_555 1_555
O5 Mn1 1_555 1_555
C5 H1 1_555 1_555
C6 C5 1_555 1_555
C7 C6 1_555 1_555
H2 C7 1_555 1_555
C8 C6 1_555 1_555
H3 C8 1_555 1_555
H4 C8 1_555 1_555
C9 H5 1_555 1_555
C10 C9 1_555 1_555
H6 C10 1_555 1_555
C11 C10 1_555 1_555
H7 C11 1_555 1_555
C12 C11 1_555 1_555
C13 C12 1_555 1_555
H8 C13 1_555 1_555
C14 O5 1_555 1_555
N5 C8 1_555 1_555
C15 H9 1_555 1_555
C16 C15 1_555 1_555
C17 C16 1_555 1_555
H10 C17 1_555 1_555
C18 C16 1_555 1_555
H11 C18 1_555 1_555
H12 C18 1_555 1_555
C19 H13 1_555 1_555
C20 C19 1_555 1_555
H14 C20 1_555 1_555
C21 C20 1_555 1_555
H15 C21 1_555 1_555
C22 C21 1_555 1_555
C23 C22 1_555 1_555
H16 C23 1_555 1_555
C24 C22 1_555 1_555
N6 C18 1_555 1_555
O6 Mn1 1_555 1_555
O7 Mn2 1_555 1_555
O8 Mn3 1_555 1_555
O5A C14A 1_555 1_555
C5A C7 1_555 1_555
H1A C5A 1_555 1_555
C6A C5A 1_555 1_555
C7A C5 1_555 1_555
H2A C7A 1_555 1_555
C8A C6A 1_555 1_555
H3A C8A 1_555 1_555
H4A C8A 1_555 1_555
C9A H5A 1_555 1_555
C10A C9A 1_555 1_555
H6A C10A 1_555 1_555
C11A C10A 1_555 1_555
H7A C11A 1_555 1_555
C12A C11A 1_555 1_555
C13A C12A 1_555 1_555
H8A C13A 1_555 1_555
C14A C12A 1_555 1_555
N5A C8A 1_555 1_555
O8A C14A 1_555 1_555
C15A C17 1_555 1_555
H9A C15A 1_555 1_555
C16A C15A 1_555 1_555
C17A C15 1_555 1_555
H10A C17A 1_555 1_555
C18A C16A 1_555 1_555
H11A C18A 1_555 1_555
H12A C18A 1_555 1_555
C19A H13A 1_555 1_555
C20A C19A 1_555 1_555
H14A C20A 1_555 1_555
C21A C20A 1_555 1_555
H15A C21A 1_555 1_555
C22A C21A 1_555 1_555
C23A C22A 1_555 1_555
H16A C23A 1_555 1_555
C24A C22A 1_555 1_555
N6A C18A 1_555 1_555
O6A C24A 1_555 1_555
O7A C24A 1_555 1_555
Mn1A N1A 1_555 1_555
N1A Mn3 1_555 1_555
C1A N1A 1_555 1_555
O1A C1A 1_555 1_555
N2A Mn3 1_555 1_555
C2A N2A 1_555 1_555
O2A C2A 1_555 1_555
N3A Mn1A 1_555 1_555
C3A N3A 1_555 1_555
O3A C3A 1_555 1_555
N4A Mn1A 1_555 1_555
C4A N4A 1_555 1_555
O4A C4A 1_555 1_555
Mn1A_2 O5A 1_555 1_555
Mn1A_3 O6A 1_555 1_555
Mn2_2 N3A 1_555 1_555
Mn2_3 O7A 1_555 1_555
Mn3_2 O8A 1_555 1_555
N3A_2 Mn2 1_555 1_555
N4A_2 Mn2 1_555 1_555
O5A_2 Mn1A 1_555 1_555
O6A_2 Mn1A 1_555 1_555
O7A_2 Mn2 1_555 1_555
O8A_2 Mn3 1_555 1_555
Mn2 N4 1_555 1_555
Mn3 N2 1_555 1_555
C9 N5 1_555 1_555
C12 C14 1_555 1_555
C13 N5 1_555 1_555
C14 O8 1_555 1_555
C19 N6 1_555 1_555
C23 N6 1_555 1_555
C24 O6 1_555 1_555
C24 O7 1_555 1_555
C6A C7A 1_555 1_555
C9A N5A 1_555 1_555
C13A N5A 1_555 1_555
C16A C17A 1_555 1_555
C19A N6A 1_555 1_555
C23A N6A 1_555 1_555
Mn1A N2A 1_555 1_555
N4A Mn2_2 1_555 1_555

#END
