
#######################################################################
#
#                 Cambridge Crystallographic Data Centre
#                                CCDC 
#
#######################################################################
#
# If this CIF has been generated from an entry in the Cambridge 
# Structural Database, then it will include bibliographic, chemical, 
# crystal, experimental, refinement or atomic coordinate data resulting 
# from the CCDC's data processing and validation procedures.
#
#######################################################################

data_XOGHAE
_symmetry_cell_setting           triclinic
_symmetry_space_group_name_H-M   'P -1'
_symmetry_Int_Tables_number      2
_space_group_name_Hall           '-P 1'
loop_
_symmetry_equiv_pos_site_id
_symmetry_equiv_pos_as_xyz
1 x,y,z
2 -x,-y,-z
_cell_length_a                   12.6298(3)
_cell_length_b                   13.9044(4)
_cell_length_c                   14.5189(4)
_cell_angle_alpha                109.3420(10)
_cell_angle_beta                 103.0250(10)
_cell_angle_gamma                109.9250(10)
_cell_volume                     2090.87
loop_
_atom_site_label
_atom_site_type_symbol
_atom_site_fract_x
_atom_site_fract_y
_atom_site_fract_z
Mn1 Mn 0.0000 0.0000 0.0000
Mn2 Mn -0.34020(4) -0.15880(4) -0.03637(3)
Mn3 Mn -0.03550(4) -0.19745(4) 0.31797(4)
Mn4 Mn 0.07669(4) 0.08341(4) 0.45603(4)
C1 C -0.2091(3) 0.0782(2) -0.0434(2)
C2 C -0.2360(3) 0.1678(2) -0.0687(2)
C3 C -0.1681(3) 0.2296(3) -0.1094(2)
H1 H -0.1019 0.2197 -0.1200
C4 C -0.1986(3) 0.3061(3) -0.1345(3)
H2 H -0.1543 0.3460 -0.1643
C5 C -0.3559(3) 0.2677(3) -0.0733(2)
H3 H -0.4178 0.2833 -0.0586
C6 C -0.3321(3) 0.1878(2) -0.0507(2)
H4 H -0.3796 0.1469 -0.0234
C7 C -0.3198(3) 0.4114(3) -0.1389(3)
H5 H -0.2670 0.4859 -0.0793
H6 H -0.4032 0.3945 -0.1462
C8 C -0.3042(3) 0.4161(2) -0.2376(2)
C9 C -0.3371(3) -0.0659(3) -0.8024(2)
C10 C -0.3662(3) 0.0186(3) -0.7294(2)
C11 C -0.3193(3) 0.0577(3) -0.6201(2)
H7 H -0.2673 0.0330 -0.5899
C12 C -0.3502(3) 0.1324(3) -0.5576(3)
H8 H -0.3167 0.1604 -0.4847
C13 C -0.4762(3) 0.1285(3) -0.7049(2)
H9 H -0.5313 0.1513 -0.7334
C14 C -0.4445(3) 0.0568(3) -0.7700(2)
H10 H -0.4759 0.0335 -0.8424
C15 C -0.4702(3) 0.2411(3) -0.5355(3)
H11 H -0.5396 0.1937 -0.5261
H12 H -0.4978 0.2785 -0.5743
C16 C -0.3750(3) 0.3319(2) -0.4276(2)
C17 C 0.3767(3) 0.6748(3) -0.1771(3)
C18 C 0.2489(3) 0.6633(3) -0.2201(2)
C19 C 0.2272(3) 0.7583(3) -0.1926(2)
H13 H 0.2919 0.8313 -0.1528
C20 C 0.1103(3) 0.7442(3) -0.2243(2)
H14 H 0.0957 0.8079 -0.2058
C21 C 0.0358(3) 0.5470(3) -0.3140(3)
H15 H -0.0299 0.4751 -0.3568
C22 C 0.1509(3) 0.5575(3) -0.2844(3)
H16 H 0.1634 0.4929 -0.3078
C23 C -0.1106(3) 0.6275(3) -0.3142(3)
H17 H -0.1332 0.6290 -0.3820
H18 H -0.1119 0.6925 -0.2629
C24 C -0.2033(2) 0.5190(2) -0.3224(2)
C25 C -0.3856(3) 0.3242(2) -0.3364(2)
C26 C -0.4819(3) 0.2189(3) -0.3411(3)
H19 H -0.5303 0.1640 -0.4135
H20 H -0.5334 0.2402 -0.3078
H21 H -0.4430 0.1860 -0.3050
C27 C -0.2128(3) 0.5140(2) -0.2299(2)
C28 C -0.1258(3) 0.6128(3) -0.1231(3)
H22 H -0.0697 0.6722 -0.1325
H23 H -0.0815 0.5869 -0.0824
H24 H -0.1710 0.6419 -0.0866
C29 C -0.2825(3) 0.4280(3) -0.4218(2)
C30 C -0.2699(3) 0.4302(3) -0.5230(3)
H25 H -0.2030 0.5010 -0.5060
H26 H -0.3437 0.4234 -0.5675
H27 H -0.2550 0.3677 -0.5593
N1 N -0.2910(2) 0.3241(2) -0.11660(18)
N2 N -0.4284(2) 0.1661(2) -0.6001(2)
N3 N 0.0160(2) 0.6389(2) -0.28219(19)
O1 O -0.2978(2) -0.00051(19) -0.0482(2)
O2 O -0.1021(2) 0.09361(19) -0.02034(19)
O3 O -0.2949(3) -0.1198(2) -0.7674(2)
O4 O -0.3658(2) -0.0773(2) -0.89571(19)
O5 O 0.3845(2) 0.5837(2) -0.1983(3)
O6 O 0.46077(19) 0.77398(19) -0.12220(18)
N4 N 0.0261(3) 0.1048(3) 0.3078(2)
N5 N 0.0609(2) 0.1068(2) 0.2408(2)
N6 N 0.0942(3) 0.1135(2) 0.1721(2)
N7 N -0.0910(3) -0.1945(3) 0.1535(2)
N8 N -0.1160(2) -0.1546(2) 0.09899(19)
N9 N -0.1432(2) -0.1160(2) 0.0404(2)
N10 N 0.2606(4) 0.2339(4) 0.5253(3)
N11 N 0.2935(3) 0.2870(3) 0.4960(3)
N12 N 0.3396(5) 0.3507(5) 0.4559(5)
N13 N 0.1425(3) -0.0444(2) 0.3813(3)
N14 N 0.2355(3) -0.0356(2) 0.3741(2)
N15 N 0.3269(3) -0.0284(3) 0.3684(4)
N16 N 0.0104(3) -0.3316(2) 0.2534(2)
N17 N -0.0517(3) -0.4123(3) 0.1711(2)
N18 N -0.1083(5) -0.4922(4) 0.0913(3)
N19 N 0.0060(3) -0.1970(3) 0.4772(2)
N20 N 0.0298(3) -0.2615(2) 0.5041(2)
N21 N 0.0546(4) -0.3217(3) 0.5318(3)
O7 O -0.0870(2) -0.0739(2) 0.39653(18)
H28 H -0.145(4) -0.080(4) 0.359(3)
O8 O -0.3378(2) -0.2232(2) -0.1970(2)
H29 H -0.267(3) -0.193(3) -0.200(4)
H30 H -0.369(4) -0.2948(17) -0.228(4)
O9 O -0.3853(3) -0.3351(3) -0.0561(3)
H31 H -0.384(5) -0.309(5) 0.0109(19)
H32 H -0.461(2) -0.382(4) -0.094(3)
O10 O -0.2368(3) -0.3383(3) 0.2737(3)
H33 H -0.248(6) -0.292(5) 0.248(5)
H34 H -0.260(6) -0.326(5) 0.326(3)
Mn2A Mn 0.34020(4) 0.15880(4) 0.03637(3)
Mn3A Mn 0.03550(4) 0.19745(4) -0.31797(4)
Mn4A Mn -0.07669(4) -0.08341(4) -0.45603(4)
C1A C 0.2091(3) -0.0782(2) 0.0434(2)
C2A C 0.2360(3) -0.1678(2) 0.0687(2)
C3A C 0.1681(3) -0.2296(3) 0.1094(2)
H1A H 0.1019 -0.2197 0.1200
C4A C 0.1986(3) -0.3061(3) 0.1345(3)
H2A H 0.1543 -0.3460 0.1643
C5A C 0.3559(3) -0.2677(3) 0.0733(2)
H3A H 0.4178 -0.2833 0.0586
C6A C 0.3321(3) -0.1878(2) 0.0507(2)
H4A H 0.3796 -0.1469 0.0234
C7A C 0.3198(3) -0.4114(3) 0.1389(3)
H5A H 0.2670 -0.4859 0.0793
H6A H 0.4032 -0.3945 0.1462
C8A C 0.3042(3) -0.4161(2) 0.2376(2)
C9A C 0.3371(3) 0.0659(3) 0.8024(2)
C10A C 0.3662(3) -0.0186(3) 0.7294(2)
C11A C 0.3193(3) -0.0577(3) 0.6201(2)
H7A H 0.2673 -0.0330 0.5899
C12A C 0.3502(3) -0.1324(3) 0.5576(3)
H8A H 0.3167 -0.1604 0.4847
C13A C 0.4762(3) -0.1285(3) 0.7049(2)
H9A H 0.5313 -0.1513 0.7334
C14A C 0.4445(3) -0.0568(3) 0.7700(2)
H10A H 0.4759 -0.0335 0.8424
C15A C 0.4702(3) -0.2411(3) 0.5355(3)
H11A H 0.5396 -0.1937 0.5261
H12A H 0.4978 -0.2785 0.5743
C16A C 0.3750(3) -0.3319(2) 0.4276(2)
C17A C -0.3767(3) -0.6748(3) 0.1771(3)
C18A C -0.2489(3) -0.6633(3) 0.2201(2)
C19A C -0.2272(3) -0.7583(3) 0.1926(2)
H13A H -0.2919 -0.8313 0.1528
C20A C -0.1103(3) -0.7442(3) 0.2243(2)
H14A H -0.0957 -0.8079 0.2058
C21A C -0.0358(3) -0.5470(3) 0.3140(3)
H15A H 0.0299 -0.4751 0.3568
C22A C -0.1509(3) -0.5575(3) 0.2844(3)
H16A H -0.1634 -0.4929 0.3078
C23A C 0.1106(3) -0.6275(3) 0.3142(3)
H17A H 0.1332 -0.6290 0.3820
H18A H 0.1119 -0.6925 0.2629
C24A C 0.2033(2) -0.5190(2) 0.3224(2)
C25A C 0.3856(3) -0.3242(2) 0.3364(2)
C26A C 0.4819(3) -0.2189(3) 0.3411(3)
H19A H 0.5303 -0.1640 0.4135
H20A H 0.5334 -0.2402 0.3078
H21A H 0.4430 -0.1860 0.3050
C27A C 0.2128(3) -0.5140(2) 0.2299(2)
C28A C 0.1258(3) -0.6128(3) 0.1231(3)
H22A H 0.0697 -0.6722 0.1325
H23A H 0.0815 -0.5869 0.0824
H24A H 0.1710 -0.6419 0.0866
C29A C 0.2825(3) -0.4280(3) 0.4218(2)
C30A C 0.2699(3) -0.4302(3) 0.5230(3)
H25A H 0.2030 -0.5010 0.5060
H26A H 0.3437 -0.4234 0.5675
H27A H 0.2550 -0.3677 0.5593
N1A N 0.2910(2) -0.3241(2) 0.11660(18)
N2A N 0.4284(2) -0.1661(2) 0.6001(2)
N3A N -0.0160(2) -0.6389(2) 0.28219(19)
O1A O 0.2978(2) 0.00051(19) 0.0482(2)
O2A O 0.1021(2) -0.09361(19) 0.02034(19)
O3A O 0.2949(3) 0.1198(2) 0.7674(2)
O4A O 0.3658(2) 0.0773(2) 0.89571(19)
O5A O -0.3845(2) -0.5837(2) 0.1983(3)
O6A O -0.46077(19) -0.77398(19) 0.12220(18)
N4A N -0.0261(3) -0.1048(3) -0.3078(2)
N5A N -0.0609(2) -0.1068(2) -0.2408(2)
N6A N -0.0942(3) -0.1135(2) -0.1721(2)
N7A N 0.0910(3) 0.1945(3) -0.1535(2)
N8A N 0.1160(2) 0.1546(2) -0.09899(19)
N9A N 0.1432(2) 0.1160(2) -0.0404(2)
N10A N -0.2606(4) -0.2339(4) -0.5253(3)
N11A N -0.2935(3) -0.2870(3) -0.4960(3)
N12A N -0.3396(5) -0.3507(5) -0.4559(5)
N13A N -0.1425(3) 0.0444(2) -0.3813(3)
N14A N -0.2355(3) 0.0356(2) -0.3741(2)
N15A N -0.3269(3) 0.0284(3) -0.3684(4)
N16A N -0.0104(3) 0.3316(2) -0.2534(2)
N17A N 0.0517(3) 0.4123(3) -0.1711(2)
N18A N 0.1083(5) 0.4922(4) -0.0913(3)
N19A N -0.0060(3) 0.1970(3) -0.4772(2)
N20A N -0.0298(3) 0.2615(2) -0.5041(2)
N21A N -0.0546(4) 0.3217(3) -0.5318(3)
O7A O 0.0870(2) 0.0739(2) -0.39653(18)
H28A H 0.145(4) 0.080(4) -0.359(3)
O8A O 0.3378(2) 0.2232(2) 0.1970(2)
H29A H 0.267(3) 0.193(3) 0.200(4)
H30A H 0.369(4) 0.2948(17) 0.228(4)
O9A O 0.3853(3) 0.3351(3) 0.0561(3)
H31A H 0.384(5) 0.309(5) -0.0109(19)
H32A H 0.461(2) 0.382(4) 0.094(3)
O10A O 0.2368(3) 0.3383(3) -0.2737(3)
H33A H 0.248(6) 0.292(5) -0.248(5)
H34A H 0.260(6) 0.326(5) -0.326(3)
Mn2_2 Mn -0.34020(4) -0.15880(4) -1.03637(3)
Mn2_3 Mn 0.65980(4) 0.84120(4) -0.03637(3)
Mn2A_2 Mn -0.65980(4) -0.84120(4) 0.03637(3)
Mn2A_3 Mn 0.34020(4) 0.15880(4) 1.03637(3)
Mn4_2 Mn 0.07669(4) 0.08341(4) -0.54397(4)
Mn4A_2 Mn -0.07669(4) -0.08341(4) 0.54397(4)
O4_2 O -0.3658(2) -0.0773(2) 0.10429(19)
O4A_2 O 0.3658(2) 0.0773(2) -0.10429(19)
O6_2 O -0.53923(19) -0.22602(19) -0.12220(18)
O6A_2 O 0.53923(19) 0.22602(19) 0.12220(18)
N19_2 N 0.0060(3) -0.1970(3) -0.5228(2)
N19A_2 N -0.0060(3) 0.1970(3) 0.5228(2)
O7_2 O -0.0870(2) -0.0739(2) -0.60347(18)
O7A_2 O 0.0870(2) 0.0739(2) 0.60347(18)
O11 O 0.4663(4) 0.4482(4) 0.3326(5)
O12 O -0.4076(4) -0.3494(5) 0.1141(4)
loop_
_geom_bond_atom_site_label_1
_geom_bond_atom_site_label_2
_geom_bond_site_symmetry_1
_geom_bond_site_symmetry_2
Mn1 O2 1_555 1_555
Mn2 O1 1_555 1_555
Mn3 N7 1_555 1_555
Mn4 N4 1_555 1_555
C1 C2 1_555 1_555
C2 C3 1_555 1_555
C3 H1 1_555 1_555
C4 C3 1_555 1_555
H2 C4 1_555 1_555
C5 H3 1_555 1_555
C6 C2 1_555 1_555
H4 C6 1_555 1_555
C7 H5 1_555 1_555
H6 C7 1_555 1_555
C8 C7 1_555 1_555
C9 C10 1_555 1_555
C10 C11 1_555 1_555
C11 H7 1_555 1_555
C12 C11 1_555 1_555
H8 C12 1_555 1_555
C13 H9 1_555 1_555
C14 C10 1_555 1_555
H10 C14 1_555 1_555
C15 H11 1_555 1_555
H12 C15 1_555 1_555
C16 C15 1_555 1_555
C17 C18 1_555 1_555
C18 C19 1_555 1_555
C19 H13 1_555 1_555
C20 C19 1_555 1_555
H14 C20 1_555 1_555
C21 H15 1_555 1_555
C22 C18 1_555 1_555
H16 C22 1_555 1_555
C23 H17 1_555 1_555
H18 C23 1_555 1_555
C24 C23 1_555 1_555
C25 C8 1_555 1_555
C26 C25 1_555 1_555
H19 C26 1_555 1_555
H20 C26 1_555 1_555
H21 C26 1_555 1_555
C27 C8 1_555 1_555
C28 C27 1_555 1_555
H22 C28 1_555 1_555
H23 C28 1_555 1_555
H24 C28 1_555 1_555
C29 C16 1_555 1_555
C30 C29 1_555 1_555
H25 C30 1_555 1_555
H26 C30 1_555 1_555
H27 C30 1_555 1_555
N1 C4 1_555 1_555
N2 C12 1_555 1_555
N3 C20 1_555 1_555
O1 C1 1_555 1_555
O2 C1 1_555 1_555
O3 C9 1_555 1_555
O4 C9 1_555 1_555
O5 C17 1_555 1_555
O6 C17 1_555 1_555
N4 N5 1_555 1_555
N5 N6 1_555 1_555
N6 Mn1 1_555 1_555
N7 N8 1_555 1_555
N8 N9 1_555 1_555
N9 Mn1 1_555 1_555
N10 Mn4 1_555 1_555
N11 N10 1_555 1_555
N12 N11 1_555 1_555
N13 Mn3 1_555 1_555
N14 N13 1_555 1_555
N15 N14 1_555 1_555
N16 Mn3 1_555 1_555
N17 N16 1_555 1_555
N18 N17 1_555 1_555
N19 Mn3 1_555 1_555
N20 N19 1_555 1_555
N21 N20 1_555 1_555
O7 Mn3 1_555 1_555
H28 O7 1_555 1_555
O8 Mn2 1_555 1_555
H29 O8 1_555 1_555
H30 O8 1_555 1_555
O9 Mn2 1_555 1_555
H31 O9 1_555 1_555
H32 O9 1_555 1_555
O10 Mn3 1_555 1_555
H33 O10 1_555 1_555
H34 O10 1_555 1_555
Mn2A O1A 1_555 1_555
Mn3A N7A 1_555 1_555
Mn4A N4A 1_555 1_555
C1A C2A 1_555 1_555
C2A C3A 1_555 1_555
C3A H1A 1_555 1_555
C4A C3A 1_555 1_555
H2A C4A 1_555 1_555
C5A H3A 1_555 1_555
C6A C2A 1_555 1_555
H4A C6A 1_555 1_555
C7A H5A 1_555 1_555
H6A C7A 1_555 1_555
C8A C7A 1_555 1_555
C9A C10A 1_555 1_555
C10A C11A 1_555 1_555
C11A H7A 1_555 1_555
C12A C11A 1_555 1_555
H8A C12A 1_555 1_555
C13A H9A 1_555 1_555
C14A C10A 1_555 1_555
H10A C14A 1_555 1_555
C15A H11A 1_555 1_555
H12A C15A 1_555 1_555
C16A C15A 1_555 1_555
C17A C18A 1_555 1_555
C18A C19A 1_555 1_555
C19A H13A 1_555 1_555
C20A C19A 1_555 1_555
H14A C20A 1_555 1_555
C21A H15A 1_555 1_555
C22A C18A 1_555 1_555
H16A C22A 1_555 1_555
C23A H17A 1_555 1_555
H18A C23A 1_555 1_555
C24A C23A 1_555 1_555
C25A C8A 1_555 1_555
C26A C25A 1_555 1_555
H19A C26A 1_555 1_555
H20A C26A 1_555 1_555
H21A C26A 1_555 1_555
C27A C8A 1_555 1_555
C28A C27A 1_555 1_555
H22A C28A 1_555 1_555
H23A C28A 1_555 1_555
H24A C28A 1_555 1_555
C29A C16A 1_555 1_555
C30A C29A 1_555 1_555
H25A C30A 1_555 1_555
H26A C30A 1_555 1_555
H27A C30A 1_555 1_555
N1A C4A 1_555 1_555
N2A C12A 1_555 1_555
N3A C20A 1_555 1_555
O1A C1A 1_555 1_555
O2A Mn1 1_555 1_555
O3A C9A 1_555 1_555
O4A C9A 1_555 1_555
O5A C17A 1_555 1_555
O6A C17A 1_555 1_555
N4A N5A 1_555 1_555
N5A N6A 1_555 1_555
N6A Mn1 1_555 1_555
N7A N8A 1_555 1_555
N8A N9A 1_555 1_555
N9A Mn1 1_555 1_555
N10A Mn4A 1_555 1_555
N11A N10A 1_555 1_555
N12A N11A 1_555 1_555
N13A Mn3A 1_555 1_555
N14A N13A 1_555 1_555
N15A N14A 1_555 1_555
N16A Mn3A 1_555 1_555
N17A N16A 1_555 1_555
N18A N17A 1_555 1_555
N19A Mn3A 1_555 1_555
N20A N19A 1_555 1_555
N21A N20A 1_555 1_555
O7A Mn3A 1_555 1_555
H28A O7A 1_555 1_555
O8A Mn2A 1_555 1_555
H29A O8A 1_555 1_555
H30A O8A 1_555 1_555
O9A Mn2A 1_555 1_555
H31A O9A 1_555 1_555
H32A O9A 1_555 1_555
O10A Mn3A 1_555 1_555
H33A O10A 1_555 1_555
H34A O10A 1_555 1_555
Mn2_2 O4 1_555 1_555
Mn2_3 O6 1_555 1_555
Mn2A_2 O6A 1_555 1_555
Mn2A_3 O4A 1_555 1_555
Mn4_2 N19A 1_555 1_555
Mn4A_2 N19 1_555 1_555
O4_2 Mn2 1_555 1_555
O4A_2 Mn2A 1_555 1_555
O6_2 Mn2 1_555 1_555
O6A_2 Mn2A 1_555 1_555
N19_2 Mn4A 1_555 1_555
N19A_2 Mn4 1_555 1_555
O7_2 Mn4A 1_555 1_555
O7A_2 Mn4 1_555 1_555
Mn2 N9 1_555 1_555
Mn4 N13 1_555 1_555
Mn4 O7 1_555 1_555
C5 C6 1_555 1_555
C5 N1 1_555 1_555
C7 N1 1_555 1_555
C13 C14 1_555 1_555
C13 N2 1_555 1_555
C15 N2 1_555 1_555
C16 C25 1_555 1_555
C21 C22 1_555 1_555
C21 N3 1_555 1_555
C23 N3 1_555 1_555
C24 C27 1_555 1_555
C24 C29 1_555 1_555
O7 Mn4A_2 1_555 1_555
Mn2A N9A 1_555 1_555
Mn4A N13A 1_555 1_555
Mn4A O7A 1_555 1_555
C1A O2A 1_555 1_555
C5A C6A 1_555 1_555
C5A N1A 1_555 1_555
C7A N1A 1_555 1_555
C13A C14A 1_555 1_555
C13A N2A 1_555 1_555
C15A N2A 1_555 1_555
C16A C25A 1_555 1_555
C21A C22A 1_555 1_555
C21A N3A 1_555 1_555
C23A N3A 1_555 1_555
C24A C27A 1_555 1_555
C24A C29A 1_555 1_555
O7A Mn4_2 1_555 1_555
Mn4_2 O7_2 1_555 1_555
Mn4A_2 O7A_2 1_555 1_555

#END
