
#######################################################################
#
#                 Cambridge Crystallographic Data Centre
#                                CCDC 
#
#######################################################################
#
# If this CIF has been generated from an entry in the Cambridge 
# Structural Database, then it will include bibliographic, chemical, 
# crystal, experimental, refinement or atomic coordinate data resulting 
# from the CCDC's data processing and validation procedures.
#
#######################################################################

data_XOGLOU
_symmetry_cell_setting           monoclinic
_symmetry_space_group_name_H-M   'C 2/c'
_symmetry_Int_Tables_number      15
_space_group_name_Hall           '-C 2yn'
loop_
_symmetry_equiv_pos_site_id
_symmetry_equiv_pos_as_xyz
1 x,y,z
2 1/2+x,1/2+y,z
3 x,-y,1/2+z
4 1/2+x,1/2-y,1/2+z
5 -x,-y,-z
6 1/2-x,1/2-y,-z
7 -x,y,1/2-z
8 1/2-x,1/2+y,1/2-z
_cell_length_a                   44.345(2)
_cell_length_b                   7.2276(2)
_cell_length_c                   31.287(1)
_cell_angle_alpha                90
_cell_angle_beta                 130.769(1)
_cell_angle_gamma                90
_cell_volume                     7594.49
loop_
_atom_site_label
_atom_site_type_symbol
_atom_site_fract_x
_atom_site_fract_y
_atom_site_fract_z
Co1 Co 0.099147(13) 0.48365(6) 0.406823(18)
Co2 Co 0.251486(14) 0.52137(6) 0.37679(2)
Co3 Co 0.398254(13) 0.49139(6) 0.339711(18)
O1 O 0.14801(9) 0.6638(4) 0.44506(11)
H1 H 0.172(2) 0.646(10) 0.461(3)
H2 H 0.1446(16) 0.761(5) 0.455(2)
O2 O 0.13831(8) 0.2652(4) 0.44056(12)
H3 H 0.1524(11) 0.231(6) 0.4334(17)
H4 H 0.1418(13) 0.174(7) 0.4633(19)
O3 O 0.26653(8) 0.5960(4) 0.45375(11)
H5 H 0.2503(19) 0.558(9) 0.466(3)
H6 H 0.293(2) 0.526(8) 0.489(3)
O4 O 0.27014(8) 0.2519(4) 0.40673(11)
H7 H 0.2787(16) 0.184(8) 0.392(2)
O5 O 0.23659(9) 0.4374(4) 0.30138(11)
H8 H 0.2098(16) 0.477(6) 0.268(2)
H9 H 0.2486(18) 0.494(7) 0.292(3)
O6 O 0.23376(8) 0.7918(4) 0.34688(12)
H10 H 0.241(3) 0.895(18) 0.366(4)
O7 O 0.34641(8) 0.3284(4) 0.29919(11)
H11 H 0.3190(16) 0.381(7) 0.279(2)
H12 H 0.3504(17) 0.235(6) 0.289(2)
O8 O 0.36251(9) 0.7243(4) 0.31155(12)
H13 H 0.3499(11) 0.764(5) 0.3201(17)
H14 H 0.3595(13) 0.812(7) 0.2898(19)
N1 N 0.01944(10) -0.0121(4) 0.33039(16)
C1 C 0.03739(10) 0.1471(5) 0.35078(15)
N2 N 0.05077(9) 0.2927(5) 0.36651(13)
C2 C 0.04090(10) -0.1617(5) 0.35258(15)
N3 N 0.05855(9) -0.2979(4) 0.37086(13)
N4 N 0.47661(10) -0.0196(4) 0.41687(16)
C3 C 0.45436(10) 0.1280(5) 0.39234(15)
N5 N 0.43621(9) 0.2611(4) 0.37306(13)
C4 C 0.46048(10) -0.1815(5) 0.39566(15)
N6 N 0.44885(9) -0.3303(4) 0.38034(13)
N7 N 0.10503(8) 0.4866(4) 0.48103(11)
C5 C 0.14062(10) 0.4961(4) 0.53400(14)
H15 H 0.1641 0.4952 0.5388
C6 C 0.14447(10) 0.5071(4) 0.58159(14)
C7 C 0.11003(10) 0.5016(5) 0.57445(15)
H16 H 0.1116 0.5067 0.6062
C8 C 0.07340(11) 0.4885(5) 0.52044(15)
H17 H 0.0495 0.4830 0.5145
C9 C 0.07236(10) 0.4835(5) 0.47519(15)
H18 H 0.0471 0.4777 0.4382
C10 C 0.18451(10) 0.5357(5) 0.63933(14)
O9 O 0.21516(7) 0.4803(3) 0.64820(10)
O10 O 0.18530(7) 0.6209(4) 0.67523(10)
N8 N 0.09482(8) 0.4810(4) 0.33421(11)
C11 C 0.12695(10) 0.4900(4) 0.33871(14)
H19 H 0.1524 0.4981 0.3754
C12 C 0.12490(10) 0.4883(4) 0.29238(14)
C13 C 0.08776(11) 0.4805(5) 0.23919(14)
H20 H 0.0853 0.4809 0.2066
C14 C 0.05396(11) 0.4720(5) 0.23363(15)
H21 H 0.0281 0.4658 0.1974
C15 C 0.05889(10) 0.4729(5) 0.28205(14)
H22 H 0.0359 0.4675 0.2783
C16 C 0.16229(10) 0.4960(4) 0.30060(14)
O11 O 0.19459(7) 0.4814(3) 0.34990(10)
O12 O 0.15792(7) 0.5125(3) 0.25658(10)
N9 N 0.40488(8) 0.4976(4) 0.41401(11)
C17 C 0.37355(10) 0.5099(4) 0.41124(14)
H23 H 0.3476 0.5107 0.3751
C18 C 0.37707(10) 0.5217(4) 0.45864(14)
C19 C 0.41491(11) 0.5190(5) 0.51129(14)
H24 H 0.4184 0.5263 0.5446
C20 C 0.44796(10) 0.5053(5) 0.51488(15)
H25 H 0.4742 0.5028 0.5504
C21 C 0.44130(10) 0.4957(5) 0.46553(14)
H26 H 0.4637 0.4872 0.4679
C22 C 0.34052(10) 0.5409(5) 0.45248(14)
O13 O 0.30823(7) 0.5662(4) 0.40368(10)
O14 O 0.34575(8) 0.5331(3) 0.49724(10)
N10 N 0.39106(8) 0.4899(4) 0.26478(12)
C23 C 0.35572(10) 0.5136(4) 0.21235(14)
H27 H 0.3326 0.5283 0.2080
C24 C 0.35158(10) 0.5174(4) 0.16424(14)
C25 C 0.38553(10) 0.4917(5) 0.17068(14)
H28 H 0.3838 0.4923 0.1388
C26 C 0.42184(11) 0.4653(5) 0.22441(15)
H29 H 0.4454 0.4466 0.2299
C27 C 0.42322(10) 0.4666(5) 0.26977(15)
H30 H 0.4483 0.4501 0.3065
C28 C 0.31168(10) 0.5578(5) 0.10708(14)
O15 O 0.28079(7) 0.5153(3) 0.09859(10)
O16 O 0.31137(7) 0.6351(4) 0.07060(10)
N3_2 N 0.05855(9) 0.7021(4) 0.37086(13)
N6_2 N 0.44885(9) 0.6697(4) 0.38034(13)
Co1_2 Co 0.099147(13) -0.51635(6) 0.406823(18)
Co3_2 Co 0.398254(13) -0.50861(6) 0.339711(18)
O17 O 0.21885(8) 0.4963(4) 0.48058(12)
H31 H 0.2386(15) 0.502(6) 0.522(2)
H32 H 0.213(2) 0.395(5) 0.466(3)
O18 O 0.27831(8) 0.5314(4) 0.26547(12)
H33 H 0.2560(13) 0.530(6) 0.223(2)
H34 H 0.288(2) 0.632(6) 0.280(3)
loop_
_geom_bond_atom_site_label_1
_geom_bond_atom_site_label_2
_geom_bond_site_symmetry_1
_geom_bond_site_symmetry_2
Co1 O1 1_555 1_555
Co2 O3 1_555 1_555
Co3 O7 1_555 1_555
O1 H1 1_555 1_555
H2 O1 1_555 1_555
O2 Co1 1_555 1_555
H3 O2 1_555 1_555
H4 O2 1_555 1_555
O3 H5 1_555 1_555
H6 O3 1_555 1_555
O4 Co2 1_555 1_555
H7 O4 1_555 1_555
O5 Co2 1_555 1_555
H8 O5 1_555 1_555
H9 O5 1_555 1_555
O6 Co2 1_555 1_555
H10 O6 1_555 1_555
O7 H11 1_555 1_555
H12 O7 1_555 1_555
O8 Co3 1_555 1_555
H13 O8 1_555 1_555
H14 O8 1_555 1_555
N1 C1 1_555 1_555
C1 N2 1_555 1_555
N2 Co1 1_555 1_555
C2 N1 1_555 1_555
N3 C2 1_555 1_555
N4 C3 1_555 1_555
C3 N5 1_555 1_555
N5 Co3 1_555 1_555
C4 N4 1_555 1_555
N6 C4 1_555 1_555
N7 Co1 1_555 1_555
C5 N7 1_555 1_555
H15 C5 1_555 1_555
C6 C5 1_555 1_555
C7 C6 1_555 1_555
H16 C7 1_555 1_555
C8 C7 1_555 1_555
H17 C8 1_555 1_555
C9 N7 1_555 1_555
H18 C9 1_555 1_555
C10 C6 1_555 1_555
O9 C10 1_555 1_555
O10 C10 1_555 1_555
N8 Co1 1_555 1_555
C11 N8 1_555 1_555
H19 C11 1_555 1_555
C12 C11 1_555 1_555
C13 C12 1_555 1_555
H20 C13 1_555 1_555
C14 C13 1_555 1_555
H21 C14 1_555 1_555
C15 N8 1_555 1_555
H22 C15 1_555 1_555
C16 C12 1_555 1_555
O11 Co2 1_555 1_555
O12 C16 1_555 1_555
N9 Co3 1_555 1_555
C17 N9 1_555 1_555
H23 C17 1_555 1_555
C18 C17 1_555 1_555
C19 C18 1_555 1_555
H24 C19 1_555 1_555
C20 C19 1_555 1_555
H25 C20 1_555 1_555
C21 N9 1_555 1_555
H26 C21 1_555 1_555
C22 C18 1_555 1_555
O13 Co2 1_555 1_555
O14 C22 1_555 1_555
N10 Co3 1_555 1_555
C23 N10 1_555 1_555
H27 C23 1_555 1_555
C24 C23 1_555 1_555
C25 C24 1_555 1_555
H28 C25 1_555 1_555
C26 C25 1_555 1_555
H29 C26 1_555 1_555
C27 N10 1_555 1_555
H30 C27 1_555 1_555
C28 C24 1_555 1_555
O15 C28 1_555 1_555
O16 C28 1_555 1_555
O17 H31 1_555 1_555
H32 O17 1_555 1_555
O18 H33 1_555 1_555
H34 O18 1_555 1_555
N3_2 Co1 1_555 1_555
N6_2 Co3 1_555 1_555
Co1_2 N3 1_555 1_555
Co3_2 N6 1_555 1_555
C8 C9 1_555 1_555
C14 C15 1_555 1_555
C16 O11 1_555 1_555
C20 C21 1_555 1_555
C22 O13 1_555 1_555
C26 C27 1_555 1_555

#END
