
#######################################################################
#
#                 Cambridge Crystallographic Data Centre
#                                CCDC 
#
#######################################################################
#
# If this CIF has been generated from an entry in the Cambridge 
# Structural Database, then it will include bibliographic, chemical, 
# crystal, experimental, refinement or atomic coordinate data resulting 
# from the CCDC's data processing and validation procedures.
#
#######################################################################

data_XOGLIO
_symmetry_cell_setting           orthorhombic
_symmetry_space_group_name_H-M   'P b c n'
_symmetry_Int_Tables_number      60
_space_group_name_Hall           '-P 2n 2ab'
loop_
_symmetry_equiv_pos_site_id
_symmetry_equiv_pos_as_xyz
1 x,y,z
2 1/2-x,1/2-y,1/2+z
3 1/2+x,1/2-y,-z
4 -x,y,1/2-z
5 -x,-y,-z
6 1/2+x,1/2+y,1/2-z
7 1/2-x,1/2+y,z
8 x,-y,1/2+z
_cell_length_a                   13.0940(3)
_cell_length_b                   17.9550(4)
_cell_length_c                   20.4870(5)
_cell_angle_alpha                90
_cell_angle_beta                 90
_cell_angle_gamma                90
_cell_volume                     4816.55
loop_
_atom_site_label
_atom_site_type_symbol
_atom_site_fract_x
_atom_site_fract_y
_atom_site_fract_z
W1 W 0.247295(17) 0.383743(13) 0.535022(12)
C1 C 0.1846(5) 0.4818(4) 0.5799(4)
N1 N 0.1500(5) 0.5343(3) 0.6033(3)
C2 C 0.0955(5) 0.3787(4) 0.4963(3)
N2 N 0.0189(5) 0.3748(3) 0.4693(3)
C3 C 0.3309(5) 0.4069(4) 0.6234(3)
N3 N 0.3756(5) 0.4169(4) 0.6709(3)
C4 C 0.2950(5) 0.2737(4) 0.5631(3)
N4 N 0.3247(4) 0.2174(3) 0.5799(3)
C5 C 0.1465(5) 0.3447(4) 0.6104(4)
N5 N 0.0932(6) 0.3265(5) 0.6522(4)
C6 C 0.2496(5) 0.3190(4) 0.4455(3)
N6 N 0.2495(5) 0.2854(4) 0.3984(4)
N7 N 0.2582(4) 0.4728(3) 0.4597(3)
C7 C 0.1814(6) 0.5197(4) 0.4438(4)
H1 H 0.1201 0.5163 0.4666
C8 C 0.1903(7) 0.5721(5) 0.3954(4)
H2 H 0.1361 0.6040 0.3863
C9 C 0.2789(8) 0.5773(5) 0.3608(5)
H3 H 0.2857 0.6126 0.3279
C10 C 0.3580(7) 0.5301(5) 0.3751(4)
H4 H 0.4182 0.5318 0.3511
C11 C 0.3467(5) 0.4795(4) 0.4261(3)
C12 C 0.4298(5) 0.4314(4) 0.4486(4)
C13 C 0.5260(6) 0.4292(5) 0.4189(4)
H5 H 0.5387 0.4576 0.3818
C14 C 0.6009(7) 0.3853(5) 0.4444(5)
H6 H 0.6650 0.3839 0.4250
C15 C 0.5814(6) 0.3437(5) 0.4985(4)
H7 H 0.6321 0.3136 0.5162
C16 C 0.4855(5) 0.3465(4) 0.5268(4)
H8 H 0.4729 0.3183 0.5641
N8 N 0.4094(4) 0.3893(3) 0.5019(3)
Mn1 Mn 0.06751(7) 0.63626(5) 0.62262(5)
O1 O 0.1507(4) 0.6462(4) 0.7165(3)
H9 H 0.195(9) 0.632(6) 0.712(6)
O2 O -0.0370(4) 0.7279(3) 0.6499(3)
H10 H -0.031(8) 0.756(6) 0.686(6)
H11 H -0.092(8) 0.719(6) 0.643(5)
O3 O -0.0490(5) 0.5702(4) 0.6760(3)
H12 H -0.039(8) 0.524(6) 0.690(5)
H13 H -0.072(9) 0.583(7) 0.703(5)
Mn1D Mn -0.06751(7) 0.36374(5) 0.37738(5)
C2D C -0.0955(5) 0.6213(4) 0.5037(3)
N2D N -0.0189(5) 0.6252(3) 0.5307(3)
C4F C 0.2050(5) 0.7737(4) 0.5631(3)
N4F N 0.1753(4) 0.7174(3) 0.5799(3)
C1D C -0.1846(5) 0.5182(4) 0.4201(4)
N1D N -0.1500(5) 0.4657(3) 0.3967(3)
O1D O -0.1507(4) 0.3538(4) 0.2835(3)
H9D H -0.195(9) 0.368(6) 0.288(6)
O2D O 0.0370(4) 0.2721(3) 0.3501(3)
H10D H 0.031(8) 0.244(6) 0.314(6)
H11D H 0.092(8) 0.281(6) 0.357(5)
O3D O 0.0490(5) 0.4298(4) 0.3240(3)
H12D H 0.039(8) 0.476(6) 0.310(5)
H13D H 0.072(9) 0.417(7) 0.297(5)
W1D W -0.247295(17) 0.616257(13) 0.464978(12)
C3D C -0.3309(5) 0.5931(4) 0.3766(3)
N3D N -0.3756(5) 0.5831(4) 0.3291(3)
C5D C -0.1465(5) 0.6553(4) 0.3896(4)
N5D N -0.0932(6) 0.6735(5) 0.3478(4)
C6D C -0.2496(5) 0.6810(4) 0.5545(3)
N6D N -0.2495(5) 0.7146(4) 0.6016(4)
N7D N -0.2582(4) 0.5272(3) 0.5403(3)
C7D C -0.1814(6) 0.4803(4) 0.5562(4)
H1D H -0.1201 0.4837 0.5334
C8D C -0.1903(7) 0.4279(5) 0.6046(4)
H2D H -0.1361 0.3960 0.6137
C9D C -0.2789(8) 0.4227(5) 0.6392(5)
H3D H -0.2857 0.3874 0.6721
C10D C -0.3580(7) 0.4699(5) 0.6249(4)
H4D H -0.4182 0.4682 0.6489
C11D C -0.3467(5) 0.5205(4) 0.5739(3)
C12D C -0.4298(5) 0.5686(4) 0.5514(4)
C13D C -0.5260(6) 0.5708(5) 0.5811(4)
H5D H -0.5387 0.5424 0.6182
C14D C -0.6009(7) 0.6147(5) 0.5556(5)
H6D H -0.6650 0.6161 0.5750
C15D C -0.5814(6) 0.6563(5) 0.5015(4)
H7D H -0.6321 0.6864 0.4838
C16D C -0.4855(5) 0.6535(4) 0.4732(4)
H8D H -0.4729 0.6817 0.4359
N8D N -0.4094(4) 0.6107(3) 0.4981(3)
Mn1F Mn 0.43249(7) 0.13626(5) 0.62262(5)
N4B N -0.1753(4) 0.2826(3) 0.4201(3)
W1F W 0.252705(17) 0.883743(13) 0.535022(12)
C4D C -0.2950(5) 0.7263(4) 0.4369(3)
O4 O 0.5000 0.3243(5) 0.7500
H14 H 0.467(8) 0.345(6) 0.721(5)
H14C H 0.533(8) 0.345(6) 0.779(5)
O5 O -0.2561(5) 0.2745(4) 0.7474(4)
O6 O 0.0000 0.4351(6) 0.7500
H15 H -0.029(8) 0.398(6) 0.785(5)
H15C H 0.029(8) 0.398(6) 0.715(5)
O7 O 0.1780(6) 0.0651(5) 0.7291(5)
O8 O 0.0758(9) 0.7618(7) 0.3233(6)
O9 O 0.5000 0.3646(12) 0.2500
loop_
_geom_bond_atom_site_label_1
_geom_bond_atom_site_label_2
_geom_bond_site_symmetry_1
_geom_bond_site_symmetry_2
W1 C1 1_555 1_555
C1 N1 1_555 1_555
N1 Mn1 1_555 1_555
C2 W1 1_555 1_555
N2 C2 1_555 1_555
C3 W1 1_555 1_555
N3 C3 1_555 1_555
C4 W1 1_555 1_555
N4 C4 1_555 1_555
C5 W1 1_555 1_555
N5 C5 1_555 1_555
C6 W1 1_555 1_555
N6 C6 1_555 1_555
N7 W1 1_555 1_555
C7 N7 1_555 1_555
H1 C7 1_555 1_555
C8 C7 1_555 1_555
H2 C8 1_555 1_555
C9 C8 1_555 1_555
H3 C9 1_555 1_555
C10 C9 1_555 1_555
H4 C10 1_555 1_555
C11 N7 1_555 1_555
C12 C11 1_555 1_555
C13 C12 1_555 1_555
H5 C13 1_555 1_555
C14 C13 1_555 1_555
H6 C14 1_555 1_555
C15 C14 1_555 1_555
H7 C15 1_555 1_555
C16 C15 1_555 1_555
H8 C16 1_555 1_555
N8 W1 1_555 1_555
Mn1 O1 1_555 1_555
O1 H9 1_555 1_555
O2 Mn1 1_555 1_555
H10 O2 1_555 1_555
H11 O2 1_555 1_555
O3 Mn1 1_555 1_555
H12 O3 1_555 1_555
H13 O3 1_555 1_555
O4 H14 1_555 1_555
O6 H15 1_555 1_555
Mn1D N2 1_555 1_555
C2D N2D 1_555 1_555
N2D Mn1 1_555 1_555
C4F N4F 1_555 1_555
N4F Mn1 1_555 1_555
C1D N1D 1_555 1_555
N1D Mn1D 1_555 1_555
O1D Mn1D 1_555 1_555
H9D O1D 1_555 1_555
O2D Mn1D 1_555 1_555
H10D O2D 1_555 1_555
H11D O2D 1_555 1_555
O3D Mn1D 1_555 1_555
H12D O3D 1_555 1_555
H13D O3D 1_555 1_555
W1D C2D 1_555 1_555
C3D W1D 1_555 1_555
N3D C3D 1_555 1_555
C5D W1D 1_555 1_555
N5D C5D 1_555 1_555
C6D W1D 1_555 1_555
N6D C6D 1_555 1_555
N7D W1D 1_555 1_555
C7D N7D 1_555 1_555
H1D C7D 1_555 1_555
C8D C7D 1_555 1_555
H2D C8D 1_555 1_555
C9D C8D 1_555 1_555
H3D C9D 1_555 1_555
C10D C9D 1_555 1_555
H4D C10D 1_555 1_555
C11D N7D 1_555 1_555
C12D C11D 1_555 1_555
C13D C12D 1_555 1_555
H5D C13D 1_555 1_555
C14D C13D 1_555 1_555
H6D C14D 1_555 1_555
C15D C14D 1_555 1_555
H7D C15D 1_555 1_555
C16D C15D 1_555 1_555
H8D C16D 1_555 1_555
N8D W1D 1_555 1_555
Mn1F N4 1_555 1_555
N4B Mn1D 1_555 1_555
W1F C4F 1_555 1_555
C4D W1D 1_555 1_555
H14C O4 1_555 1_555
H15C O6 1_555 1_555
C10 C11 1_555 1_555
C12 N8 1_555 1_555
C16 N8 1_555 1_555
C1D W1D 1_555 1_555
C10D C11D 1_555 1_555
C12D N8D 1_555 1_555
C16D N8D 1_555 1_555

#END
