
#######################################################################
#
#                 Cambridge Crystallographic Data Centre
#                                CCDC 
#
#######################################################################
#
# If this CIF has been generated from an entry in the Cambridge 
# Structural Database, then it will include bibliographic, chemical, 
# crystal, experimental, refinement or atomic coordinate data resulting 
# from the CCDC's data processing and validation procedures.
#
#######################################################################

data_XOGQUG
_symmetry_cell_setting           monoclinic
_symmetry_space_group_name_H-M   'P 21/c'
_symmetry_Int_Tables_number      14
_space_group_name_Hall           '-P 2ybc'
loop_
_symmetry_equiv_pos_site_id
_symmetry_equiv_pos_as_xyz
1 x,y,z
2 -x,1/2+y,1/2-z
3 -x,-y,-z
4 x,1/2-y,1/2+z
_cell_length_a                   14.395(2)
_cell_length_b                   17.708(3)
_cell_length_c                   24.171(4)
_cell_angle_alpha                90
_cell_angle_beta                 106.782(2)
_cell_angle_gamma                90
_cell_volume                     5898.94
loop_
_atom_site_label
_atom_site_type_symbol
_atom_site_fract_x
_atom_site_fract_y
_atom_site_fract_z
Pr1 Pr 0.29211(4) 0.77275(2) 0.01789(2)
N1 N 0.3006(5) 0.5351(4) 0.0615(4)
H1 H 0.3139 0.4881 0.0685
N2 N 0.2710(7) 0.0052(4) 0.0748(3)
H2 H 0.2600 0.0530 0.0725
N3 N 0.4854(6) 0.2557(4) 0.3152(3)
H3 H 0.4290 0.2523 0.2904
N4 N 0.1347(7) 0.7400(4) 0.0714(5)
N5 N 0.4220(8) 0.8339(6) -0.0486(4)
N6 N 0.1744(7) 0.7194(6) -0.0996(5)
O1 O 0.4224(4) 0.4230(3) 0.0721(3)
O2 O 0.3565(4) 0.6504(3) 0.0507(3)
O4 O 0.1307(12) 0.4571(9) -0.0162(8)
O5 O 0.1605(4) 0.1201(3) 0.0318(2)
O6 O 0.2300(5) -0.1064(3) 0.0346(3)
O7 O 0.4170(10) 0.0132(8) 0.2259(5)
O8 O 0.3043(4) 0.3054(4) 0.2733(3)
O9 O 0.5709(5) 0.3021(3) 0.4004(3)
O10 O 0.6568(9) 0.3164(8) 0.2815(5)
O11 O 0.2205(6) 0.7492(4) 0.1015(3)
O12 O 0.1193(5) 0.7443(4) 0.0168(4)
O13 O 0.0677(6) 0.7250(5) 0.0923(4)
O14 O 0.3670(6) 0.8756(4) -0.0297(3)
O15 O 0.4181(6) 0.7642(4) -0.0367(4)
O16 O 0.4740(8) 0.8559(6) -0.0771(5)
O17 O 0.1806(6) 0.7891(4) -0.0863(3)
O18 O 0.2236(6) 0.6744(4) -0.0625(3)
O19 O 0.1209(7) 0.6982(6) -0.1455(4)
C1 C 0.3554(6) 0.3150(4) 0.1051(4)
C2 C 0.2925(6) 0.2688(4) 0.0653(3)
C3 C 0.2092(6) 0.2409(4) 0.0773(4)
C4 C 0.1925(6) 0.2551(5) 0.1308(4)
C5 C 0.2542(6) 0.3060(5) 0.1692(4)
C6 C 0.3343(6) 0.3365(4) 0.1556(4)
C7 C 0.4463(7) 0.3470(4) 0.0936(4)
H4 H 0.4998 0.3477 0.1289
H5 H 0.4649 0.3165 0.0651
C8 C 0.3111(9) 0.2483(6) 0.0084(5)
H6 H 0.2763 0.2824 -0.0212
H7 H 0.2896 0.1975 -0.0020
H8 H 0.3793 0.2519 0.0125
C9 C 0.1337(7) 0.1987(4) 0.0314(4)
H9 H 0.0710 0.2032 0.0387
H10 H 0.1285 0.2205 -0.0062
C10 C 0.1068(8) 0.2193(6) 0.1452(5)
H11 H 0.1222 0.2118 0.1862
H12 H 0.0923 0.1715 0.1259
H13 H 0.0514 0.2519 0.1327
C11 C 0.2312(7) 0.3320(6) 0.2226(4)
H14 H 0.2288 0.3868 0.2230
H15 H 0.1681 0.3129 0.2227
C12 C 0.3980(7) 0.3945(5) 0.1956(4)
H16 H 0.4601 0.3725 0.2142
H17 H 0.3676 0.4099 0.2243
H18 H 0.4064 0.4376 0.1735
C13 C 0.3724(6) 0.5812(4) 0.0590(4)
C14 C 0.4727(6) 0.5498(4) 0.0681(3)
C15 C 0.4968(6) 0.4729(4) 0.0739(3)
C16 C 0.5893(7) 0.4493(5) 0.0805(4)
H19 H 0.6038 0.3980 0.0831
C17 C 0.6614(8) 0.5017(6) 0.0835(5)
H20 H 0.7249 0.4856 0.0889
C18 C 0.6406(8) 0.5769(6) 0.0785(5)
H21 H 0.6896 0.6118 0.0801
C19 C 0.5472(7) 0.6010(5) 0.0711(4)
H22 H 0.5335 0.6525 0.0680
C25 C 0.2013(7) 0.5594(5) 0.0531(6)
H28 H 0.1940 0.5824 0.0880
H29 H 0.1822 0.5956 0.0218
C26 C 0.1437(15) 0.4920(10) 0.0392(9)
C27 C 0.0925(15) 0.4513(11) 0.0701(8)
H30 H 0.0888 0.4635 0.1068
C28 C 0.047(3) 0.3890(19) 0.0372(12)
H31 H 0.0104 0.3522 0.0485
C29 C 0.0685(15) 0.3926(10) -0.0168(8)
H32 H 0.0462 0.3591 -0.0474
C30 C 0.2161(7) -0.0373(5) 0.0342(4)
C31 C 0.1367(6) -0.0008(4) -0.0112(3)
C32 C 0.1078(6) 0.0748(4) -0.0130(4)
C33 C 0.0319(7) 0.1018(5) -0.0578(4)
H33 H 0.0128 0.1520 -0.0581
C34 C -0.0154(7) 0.0538(6) -0.1019(4)
H34 H -0.0661 0.0725 -0.1320
C35 C 0.0103(8) -0.0197(6) -0.1024(4)
H35 H -0.0221 -0.0509 -0.1328
C36 C 0.0846(8) -0.0477(5) -0.0577(4)
H36 H 0.1012 -0.0985 -0.0578
C37 C 0.3504(10) -0.0221(7) 0.1244(5)
H37 H 0.3450 -0.0763 0.1282
H38 H 0.4124 -0.0113 0.1178
C38 C 0.3457(12) 0.0142(10) 0.1764(6)
C39 C 0.2681(14) 0.0327(12) 0.1949(7)
H39 H 0.2037 0.0227 0.1750
C40 C 0.3004(15) 0.0696(11) 0.2491(7)
H40 H 0.2641 0.1000 0.2664
C41 C 0.3927(15) 0.0517(12) 0.2697(7)
H41 H 0.4335 0.0626 0.3063
C42 C 0.4939(7) 0.2985(4) 0.3615(4)
C43 C 0.4088(7) 0.3435(5) 0.3659(4)
C44 C 0.3180(7) 0.3467(6) 0.3237(4)
C45 C 0.2447(9) 0.3883(8) 0.3343(5)
H42 H 0.1835 0.3875 0.3076
C46 C 0.2597(11) 0.4311(8) 0.3837(6)
H43 H 0.2093 0.4602 0.3893
C47 C 0.3471(11) 0.4312(7) 0.4242(5)
H44 H 0.3569 0.4599 0.4577
C48 C 0.4220(8) 0.3879(6) 0.4153(4)
H45 H 0.4824 0.3885 0.4429
C49 C 0.5662(8) 0.2135(6) 0.3035(5)
H46 H 0.6165 0.2064 0.3397
H47 H 0.5428 0.1639 0.2889
C50 C 0.6085(12) 0.2488(10) 0.2631(6)
C51 C 0.6091(12) 0.2305(10) 0.2080(6)
H48 H 0.5774 0.1909 0.1849
C52 C 0.6681(13) 0.2849(11) 0.1953(8)
H49 H 0.6872 0.2842 0.1617
C53 C 0.6965(13) 0.3409(12) 0.2370(7)
H50 H 0.7327 0.3841 0.2360
Pr1_2 Pr 0.29211(4) -0.22725(2) 0.01789(2)
Pr1A Pr 0.70789(4) 0.27275(2) 0.48211(2)
O6_2 O 0.2300(5) 0.8936(3) 0.0346(3)
O9A O 0.4291(5) 0.8021(3) 0.0996(3)
O20 O 0.116(3) 0.193(3) 0.3223(19)
O21 O 0.246(3) 0.564(2) 0.2297(17)
O3? O 0.1174(15) 0.4510(12) 0.0222(9)
C20? C 0.2013(7) 0.5594(5) 0.0531(6)
H23? H 0.1726 0.5727 0.0129
H24? H 0.2010 0.6041 0.0762
C21? C 0.1428(19) 0.5003(12) 0.0693(11)
C22? C 0.0902(19) 0.4805(13) 0.1090(9)
H25? H 0.0907 0.5059 0.1427
C23? C 0.0354(17) 0.4124(12) 0.0858(10)
H26? H -0.0034 0.3847 0.1032
C24? C 0.053(4) 0.396(2) 0.0307(15)
H27? H 0.0261 0.3566 0.0058
loop_
_geom_bond_atom_site_label_1
_geom_bond_atom_site_label_2
_geom_bond_site_symmetry_1
_geom_bond_site_symmetry_2
Pr1 O2 1_555 1_555
N1 H1 1_555 1_555
N2 H2 1_555 1_555
N3 H3 1_555 1_555
N4 O11 1_555 1_555
N5 O14 1_555 1_555
N6 O17 1_555 1_555
O1 C7 1_555 1_555
O2 C13 1_555 1_555
O4 C26 1_555 1_555
O5 C9 1_555 1_555
O6 C30 1_555 1_555
O7 C38 1_555 1_555
O8 C11 1_555 1_555
O9 C42 1_555 1_555
O10 C50 1_555 1_555
O11 Pr1 1_555 1_555
O12 Pr1 1_555 1_555
O13 N4 1_555 1_555
O14 Pr1 1_555 1_555
O15 Pr1 1_555 1_555
O16 N5 1_555 1_555
O17 Pr1 1_555 1_555
O18 Pr1 1_555 1_555
O19 N6 1_555 1_555
C1 C2 1_555 1_555
C2 C3 1_555 1_555
C3 C4 1_555 1_555
C4 C5 1_555 1_555
C5 C6 1_555 1_555
C6 C1 1_555 1_555
C7 C1 1_555 1_555
H4 C7 1_555 1_555
H5 C7 1_555 1_555
C8 C2 1_555 1_555
H6 C8 1_555 1_555
H7 C8 1_555 1_555
H8 C8 1_555 1_555
C9 C3 1_555 1_555
H9 C9 1_555 1_555
H10 C9 1_555 1_555
C10 C4 1_555 1_555
H11 C10 1_555 1_555
H12 C10 1_555 1_555
H13 C10 1_555 1_555
C11 C5 1_555 1_555
H14 C11 1_555 1_555
H15 C11 1_555 1_555
C12 C6 1_555 1_555
H16 C12 1_555 1_555
H17 C12 1_555 1_555
H18 C12 1_555 1_555
C13 N1 1_555 1_555
C14 C13 1_555 1_555
C15 O1 1_555 1_555
C16 C15 1_555 1_555
H19 C16 1_555 1_555
C17 C16 1_555 1_555
H20 C17 1_555 1_555
C18 C17 1_555 1_555
H21 C18 1_555 1_555
C19 C14 1_555 1_555
H22 C19 1_555 1_555
C25 N1 1_555 1_555
H28 C25 1_555 1_555
H29 C25 1_555 1_555
C26 C25 1_555 1_555
C27 C26 1_555 1_555
H30 C27 1_555 1_555
C28 C27 1_555 1_555
H31 C28 1_555 1_555
C29 O4 1_555 1_555
H32 C29 1_555 1_555
C30 N2 1_555 1_555
C31 C30 1_555 1_555
C32 O5 1_555 1_555
C33 C32 1_555 1_555
H33 C33 1_555 1_555
C34 C33 1_555 1_555
H34 C34 1_555 1_555
C35 C34 1_555 1_555
H35 C35 1_555 1_555
C36 C31 1_555 1_555
H36 C36 1_555 1_555
C37 N2 1_555 1_555
H37 C37 1_555 1_555
H38 C37 1_555 1_555
C38 C37 1_555 1_555
C39 C38 1_555 1_555
H39 C39 1_555 1_555
C40 C39 1_555 1_555
H40 C40 1_555 1_555
C41 O7 1_555 1_555
H41 C41 1_555 1_555
C42 N3 1_555 1_555
C43 C42 1_555 1_555
C44 O8 1_555 1_555
C45 C44 1_555 1_555
H42 C45 1_555 1_555
C46 C45 1_555 1_555
H43 C46 1_555 1_555
C47 C46 1_555 1_555
H44 C47 1_555 1_555
C48 C43 1_555 1_555
H45 C48 1_555 1_555
C49 N3 1_555 1_555
H46 C49 1_555 1_555
H47 C49 1_555 1_555
C50 C49 1_555 1_555
C51 C50 1_555 1_555
H48 C51 1_555 1_555
C52 C51 1_555 1_555
H49 C52 1_555 1_555
C53 O10 1_555 1_555
H50 C53 1_555 1_555
Pr1_2 O6 1_555 1_555
Pr1A O9 1_555 1_555
O6_2 Pr1 1_555 1_555
O9A Pr1 1_555 1_555
N4 O12 1_555 1_555
N5 O15 1_555 1_555
N6 O18 1_555 1_555
C14 C15 1_555 1_555
C18 C19 1_555 1_555
C28 C29 1_555 1_555
C31 C32 1_555 1_555
C35 C36 1_555 1_555
C40 C41 1_555 1_555
C43 C44 1_555 1_555
C47 C48 1_555 1_555
C52 C53 1_555 1_555

#END
