
#######################################################################
#
#                 Cambridge Crystallographic Data Centre
#                                CCDC 
#
#######################################################################
#
# If this CIF has been generated from an entry in the Cambridge 
# Structural Database, then it will include bibliographic, chemical, 
# crystal, experimental, refinement or atomic coordinate data resulting 
# from the CCDC's data processing and validation procedures.
#
#######################################################################

data_XOGRER
_symmetry_cell_setting           monoclinic
_symmetry_space_group_name_H-M   'P 21/c'
_symmetry_Int_Tables_number      14
_space_group_name_Hall           '-P 2ybc'
loop_
_symmetry_equiv_pos_site_id
_symmetry_equiv_pos_as_xyz
1 x,y,z
2 -x,1/2+y,1/2-z
3 -x,-y,-z
4 x,1/2-y,1/2+z
_cell_length_a                   16.6382(6)
_cell_length_b                   16.2654(5)
_cell_length_c                   18.6824(6)
_cell_angle_alpha                90
_cell_angle_beta                 98.911(2)
_cell_angle_gamma                90
_cell_volume                     4994.94
loop_
_atom_site_label
_atom_site_type_symbol
_atom_site_fract_x
_atom_site_fract_y
_atom_site_fract_z
C1 C 1.1170(7) 1.2164(9) 0.3993(11)
C2 C 1.0735(11) 1.1571(10) 0.4339(7)
H1 H 1.0889 1.1360 0.4803
C3 C 1.0024(9) 1.1355(7) 0.3852(11)
H2 H 0.9631 1.0979 0.3941
C4 C 1.0020(9) 1.1815(10) 0.3205(9)
H3 H 0.9623 1.1792 0.2796
O1 O 1.0728(12) 1.2314(7) 0.3293(10)
C5 C 1.0237(11) 0.8984(9) 0.4162(10)
H4 H 0.9971 0.9363 0.4415
C6 C 1.0901(10) 0.8478(12) 0.4460(7)
H5 H 1.1146 0.8468 0.4943
C7 C 1.1125(9) 0.7991(8) 0.3892(12)
H6 H 1.1543 0.7605 0.3937
O2 O 1.0600(11) 0.8195(10) 0.3243(8)
C8 C 1.0051(7) 0.8809(11) 0.3410(9)
C9 C 1.3847(7) 1.1476(5) 0.0739(5)
O3 O 1.3045(5) 1.1786(5) 0.0708(5)
C10 C 1.3070(7) 1.2445(5) 0.1209(6)
H7 H 1.2629 1.2758 0.1298
C11 C 1.3889(9) 1.2544(6) 0.1549(5)
H8 H 1.4078 1.2932 0.1900
C12 C 1.4369(5) 1.1945(7) 0.1259(6)
H9 H 1.4927 1.1872 0.1386
C13 C 1.3862(5) 1.1661(5) 0.3190(5)
C14 C 1.4609(7) 1.1338(6) 0.3077(6)
H10 H 1.4638 1.0811 0.2891
C15 C 1.5305(6) 1.1808(7) 0.3243(6)
H11 H 1.5802 1.1578 0.3182
C16 C 1.5292(6) 1.2603(7) 0.3494(6)
H12 H 1.5761 1.2921 0.3578
C17 C 1.4533(6) 1.2912(6) 0.3618(6)
H13 H 1.4509 1.3438 0.3809
C18 C 1.3816(6) 1.2455(6) 0.3463(5)
C19 C 1.3066(6) 1.2836(7) 0.3635(6)
C20 C 1.1771(8) 1.2706(9) 0.4058(12)
H14 H 1.1919 1.2853 0.4565
H15 H 1.1585 1.3200 0.3793
C21 C 1.3193(6) 1.0479(6) 0.2612(6)
H16 H 1.3547 1.0091 0.2904
H17 H 1.3405 1.0573 0.2163
C22 C 1.2316(6) 1.0136(6) 0.2451(5)
C23 C 1.1974(6) 1.0060(7) 0.3150(6)
H18 H 1.1477 0.9741 0.3051
H19 H 1.1824 1.0606 0.3289
C24 C 1.2541(8) 0.9646(8) 0.3852(7)
H20 H 1.2590 0.9066 0.3773
H21 H 1.2294 0.9734 0.4277
H22 H 1.3071 0.9894 0.3918
C25 C 1.1799(6) 1.0702(6) 0.1896(6)
H23 H 1.1810 1.1263 0.2075
H24 H 1.2004 1.0697 0.1438
C26 C 1.0442(7) 1.0661(6) 0.1249(6)
C27 C 1.0668(9) 1.1212(8) 0.0733(7)
H25 H 1.1200 1.1403 0.0781
C28 C 1.0096(9) 1.1473(9) 0.0154(7)
H26 H 1.0242 1.1844 -0.0182
C29 C 0.9320(8) 1.1177(10) 0.0083(8)
H27 H 0.8937 1.1330 -0.0310
C30 C 0.9115(8) 1.0661(7) 0.0588(7)
H28 H 0.8585 1.0462 0.0526
C31 C 0.9625(7) 1.0416(7) 0.1174(7)
C32 C 0.9308(7) 0.9904(7) 0.1737(7)
C33 C 0.9492(12) 0.9065(14) 0.2819(12)
H29 H 0.9068 0.9367 0.3007
H30 H 0.9241 0.8575 0.2587
C34 C 1.2345(6) 0.9296(6) 0.2134(6)
H31 H 1.2688 0.8940 0.2468
H32 H 1.1802 0.9061 0.2045
C35 C 1.2729(6) 0.8660(5) 0.1038(6)
C36 C 1.2498(6) 0.7878(5) 0.1292(6)
H33 H 1.2314 0.7812 0.1733
C37 C 1.2571(7) 0.7229(6) 0.0828(7)
H34 H 1.2459 0.6704 0.0982
C38 C 1.2793(8) 0.7309(7) 0.0165(7)
H35 H 1.2799 0.6855 -0.0136
C39 C 1.3013(7) 0.8081(6) -0.0058(6)
H36 H 1.3191 0.8138 -0.0503
C40 C 1.2974(6) 0.8758(6) 0.0367(6)
C41 C 1.3188(7) 0.9561(6) 0.0089(7)
C42 C 1.3998(7) 1.0838(5) 0.0280(6)
H37 H 1.4579 1.0790 0.0277
H38 H 1.3737 1.0956 -0.0211
N1 N 0.5452(6) 0.9805(5) 0.1884(7)
N2 N 0.7280(13) 1.1765(8) 0.1908(7)
N3 N 0.7707(10) 0.9556(9) 0.3342(10)
N4 N 0.9760(7) 0.9570(7) 0.2256(7)
H39 H 1.0275 0.9646 0.2281
N5 N 1.2500(6) 1.2380(6) 0.3781(7)
H40 H 1.2537 1.1859 0.3717
N6 N 1.3685(5) 1.0066(4) 0.0524(4)
H41 H 1.3826 0.9927 0.0970
O4 O 0.5951(5) 0.9747(4) 0.2462(4)
O5 O 0.5660(4) 0.9951(5) 0.1282(4)
O6 O 0.4708(4) 0.9719(4) 0.1941(4)
O7 O 0.8551(5) 0.9733(4) 0.1672(4)
O8 O 0.7645(6) 1.0318(7) 0.3126(5)
O9 O 0.7525(7) 0.9052(7) 0.2879(6)
O10 O 0.6600(7) 1.1392(6) 0.1875(5)
O11 O 0.7882(7) 1.1344(6) 0.1849(6)
O12 O 1.2995(4) 1.3606(4) 0.3599(4)
O13 O 0.7294(9) 1.2508(6) 0.1933(5)
O14 O 1.2961(4) 0.9733(4) -0.0565(4)
O15 O 0.7942(9) 0.9506(8) 0.3996(6)
O16 O 1.0987(5) 1.0376(4) 0.1810(4)
O17 O 1.2665(4) 0.9359(4) 0.1470(4)
O18 O 1.3152(4) 1.1256(3) 0.3006(4)
Sm1 Sm 0.71784(3) 0.99703(3) 0.18085(3)
O12A O 0.7005(4) 0.8606(4) 0.1401(4)
O14B O 0.7039(4) 1.0267(4) 0.0565(4)
Sm1A Sm 1.28216(3) 1.49703(3) 0.31915(3)
Sm1B Sm 1.28216(3) 1.00297(3) -0.18085(3)
loop_
_geom_bond_atom_site_label_1
_geom_bond_atom_site_label_2
_geom_bond_site_symmetry_1
_geom_bond_site_symmetry_2
C1 C2 1_555 1_555
C2 H1 1_555 1_555
C3 C2 1_555 1_555
H2 C3 1_555 1_555
C4 C3 1_555 1_555
H3 C4 1_555 1_555
O1 C1 1_555 1_555
C5 H4 1_555 1_555
C6 C5 1_555 1_555
H5 C6 1_555 1_555
C7 C6 1_555 1_555
H6 C7 1_555 1_555
O2 C7 1_555 1_555
C8 C5 1_555 1_555
C9 O3 1_555 1_555
O3 C10 1_555 1_555
C10 H7 1_555 1_555
C11 C10 1_555 1_555
H8 C11 1_555 1_555
C12 C9 1_555 1_555
H9 C12 1_555 1_555
C13 C14 1_555 1_555
C14 H10 1_555 1_555
C15 C14 1_555 1_555
H11 C15 1_555 1_555
C16 C15 1_555 1_555
H12 C16 1_555 1_555
C17 C16 1_555 1_555
H13 C17 1_555 1_555
C18 C13 1_555 1_555
C19 C18 1_555 1_555
C20 C1 1_555 1_555
H14 C20 1_555 1_555
H15 C20 1_555 1_555
C21 H16 1_555 1_555
H17 C21 1_555 1_555
C22 C21 1_555 1_555
C23 C22 1_555 1_555
H18 C23 1_555 1_555
H19 C23 1_555 1_555
C24 C23 1_555 1_555
H20 C24 1_555 1_555
H21 C24 1_555 1_555
H22 C24 1_555 1_555
C25 C22 1_555 1_555
H23 C25 1_555 1_555
H24 C25 1_555 1_555
C26 C27 1_555 1_555
C27 H25 1_555 1_555
C28 C27 1_555 1_555
H26 C28 1_555 1_555
C29 C28 1_555 1_555
H27 C29 1_555 1_555
C30 C29 1_555 1_555
H28 C30 1_555 1_555
C31 C26 1_555 1_555
C32 C31 1_555 1_555
C33 C8 1_555 1_555
H29 C33 1_555 1_555
H30 C33 1_555 1_555
C34 C22 1_555 1_555
H31 C34 1_555 1_555
H32 C34 1_555 1_555
C35 C36 1_555 1_555
C36 H33 1_555 1_555
C37 C36 1_555 1_555
H34 C37 1_555 1_555
C38 C37 1_555 1_555
H35 C38 1_555 1_555
C39 C38 1_555 1_555
H36 C39 1_555 1_555
C40 C35 1_555 1_555
C41 C40 1_555 1_555
C42 C9 1_555 1_555
H37 C42 1_555 1_555
H38 C42 1_555 1_555
N1 O4 1_555 1_555
N2 O10 1_555 1_555
N3 O8 1_555 1_555
N4 C32 1_555 1_555
H39 N4 1_555 1_555
N5 C19 1_555 1_555
H40 N5 1_555 1_555
N6 C41 1_555 1_555
H41 N6 1_555 1_555
O4 Sm1 1_555 1_555
O5 N1 1_555 1_555
O6 N1 1_555 1_555
O7 C32 1_555 1_555
O8 Sm1 1_555 1_555
O9 N3 1_555 1_555
O10 Sm1 1_555 1_555
O11 N2 1_555 1_555
O12 C19 1_555 1_555
O13 N2 1_555 1_555
O14 C41 1_555 1_555
O15 N3 1_555 1_555
O16 C25 1_555 1_555
O17 C34 1_555 1_555
O18 C13 1_555 1_555
Sm1 O5 1_555 1_555
O12A Sm1 1_555 1_555
O14B Sm1 1_555 1_555
Sm1A O12 1_555 1_555
Sm1B O14 1_555 1_555
C4 O1 1_555 1_555
O2 C8 1_555 1_555
C11 C12 1_555 1_555
C17 C18 1_555 1_555
C20 N5 1_555 1_555
C21 O18 1_555 1_555
C26 O16 1_555 1_555
C30 C31 1_555 1_555
C33 N4 1_555 1_555
C35 O17 1_555 1_555
C39 C40 1_555 1_555
C42 N6 1_555 1_555
O7 Sm1 1_555 1_555
O9 Sm1 1_555 1_555
O11 Sm1 1_555 1_555

#END
