
#######################################################################
#
#                 Cambridge Crystallographic Data Centre
#                                CCDC 
#
#######################################################################
#
# If this CIF has been generated from an entry in the Cambridge 
# Structural Database, then it will include bibliographic, chemical, 
# crystal, experimental, refinement or atomic coordinate data resulting 
# from the CCDC's data processing and validation procedures.
#
#######################################################################

data_XOGRAN
_symmetry_cell_setting           monoclinic
_symmetry_space_group_name_H-M   'P 21/c'
_symmetry_Int_Tables_number      14
_space_group_name_Hall           '-P 2ybc'
loop_
_symmetry_equiv_pos_site_id
_symmetry_equiv_pos_as_xyz
1 x,y,z
2 -x,1/2+y,1/2-z
3 -x,-y,-z
4 x,1/2-y,1/2+z
_cell_length_a                   16.657(7)
_cell_length_b                   16.373(7)
_cell_length_c                   18.370(9)
_cell_angle_alpha                90
_cell_angle_beta                 98.696(7)
_cell_angle_gamma                90
_cell_volume                     4952.37
loop_
_atom_site_label
_atom_site_type_symbol
_atom_site_fract_x
_atom_site_fract_y
_atom_site_fract_z
O19 O 1.0000 0.5000 0.0000
H4 H 1.0430 0.5085 -0.0152
C43 C 0.973(5) 0.566(3) 0.046(4)
H43 H 1.0099 0.5702 0.0915
H44 H 0.9194 0.5542 0.0566
H45 H 0.9721 0.6172 0.0202
H4B H 0.9570 0.4915 0.0152
C43B C 1.027(5) 0.434(3) -0.046(4)
H43B H 0.9901 0.4298 -0.0915
H44B H 1.0806 0.4458 -0.0566
H45B H 1.0279 0.3828 -0.0202
Nd1 Nd 0.21623(3) 0.00107(3) 0.18542(3)
N1 N 0.2554(6) 0.2595(6) 0.1263(7)
H1 H 0.2501 0.3116 0.1293
N2 N 0.5243(7) 0.5384(8) 0.2664(7)
H2 H 0.4727 0.5332 0.2648
N3 N 0.1303(5) 0.4964(5) 0.4489(5)
H3 H 0.1157 0.5115 0.4040
N4 N 0.2661(8) 0.0317(11) 0.3410(9)
N5 N 0.0389(6) 0.0183(5) 0.1927(6)
N6 N 0.2281(10) -0.1755(8) 0.1926(7)
O1 O 0.1865(4) 0.3756(4) 0.2001(4)
O2 O 0.4023(5) 0.4626(5) 0.3175(5)
O3 O 0.2334(4) 0.5629(4) 0.3538(4)
O4 O 0.2003(4) 0.1377(4) 0.1412(5)
O5 O 0.4360(9) 0.2680(9) 0.1858(10)
O6 O 0.6446(4) 0.5250(5) 0.3258(6)
O7 O 0.4452(9) 0.6727(9) 0.1709(9)
O8 O 0.2026(4) 0.5277(5) 0.5565(4)
O9 O 0.1963(7) 0.3238(6) 0.4322(6)
O10 O 0.2520(6) 0.0891(6) 0.2983(6)
O11 O 0.2623(6) -0.0389(7) 0.3178(6)
O12 O 0.2882(8) 0.0481(9) 0.4050(7)
O13 O 0.0926(5) 0.0215(5) 0.2497(5)
O14 O 0.0644(4) 0.0042(4) 0.1338(4)
O15 O -0.0312(4) 0.0295(5) 0.1971(5)
O16 O 0.1597(6) -0.1395(6) 0.1906(5)
O17 O 0.2907(7) -0.1338(6) 0.1903(6)
O18 O 0.2297(9) -0.2522(6) 0.1907(6)
C1 C 0.2689(6) 0.4847(5) 0.2524(6)
C2 C 0.3040(7) 0.4927(7) 0.1804(6)
H5 H 0.3225 0.4392 0.1673
H6 H 0.3512 0.5280 0.1892
C3 C 0.2458(10) 0.5265(11) 0.1142(9)
H7 H 0.2737 0.5302 0.0723
H8 H 0.2274 0.5798 0.1260
H9 H 0.1999 0.4907 0.1031
C4 C 0.1836(5) 0.4498(5) 0.2398(6)
H10 H 0.1651 0.4396 0.2865
H11 H 0.1465 0.4879 0.2118
C5 C 0.3194(6) 0.4308(7) 0.3078(6)
H12 H 0.2984 0.4318 0.3542
H13 H 0.3183 0.3749 0.2901
C6 C 0.2650(6) 0.5702(6) 0.2858(6)
H14 H 0.3189 0.5942 0.2946
H15 H 0.2302 0.6053 0.2521
C7 C 0.1154(6) 0.3345(6) 0.1826(6)
C8 C 0.0405(6) 0.3663(7) 0.1926(7)
H16 H 0.0367 0.4191 0.2105
C9 C -0.0286(6) 0.3187(7) 0.1758(7)
H17 H -0.0787 0.3398 0.1828
C10 C -0.0245(6) 0.2420(7) 0.1493(8)
H18 H -0.0716 0.2112 0.1379
C11 C 0.0485(6) 0.2099(7) 0.1393(7)
H19 H 0.0505 0.1569 0.1215
C12 C 0.1196(5) 0.2539(6) 0.1548(6)
C13 C 0.1969(6) 0.2123(7) 0.1420(7)
C14 C 0.3287(9) 0.2269(10) 0.1041(11)
H20 H 0.3401 0.1747 0.1285
H21 H 0.3180 0.2163 0.0516
C15 C 0.3982(11) 0.2746(12) 0.1182(13)
C16 C 0.4323(12) 0.3325(12) 0.0850(13)
H22 H 0.4141 0.3545 0.0388
C17 C 0.5030(12) 0.3551(12) 0.1342(14)
H23 H 0.5409 0.3940 0.1251
C18 C 0.5056(14) 0.3139(14) 0.1913(14)
H24 H 0.5475 0.3141 0.2310
C19 C 0.4571(7) 0.4349(8) 0.3742(7)
C20 C 0.4355(8) 0.3840(9) 0.4275(9)
H25 H 0.3826 0.3644 0.4225
C21 C 0.4919(8) 0.3603(10) 0.4904(8)
H26 H 0.4751 0.3300 0.5282
C22 C 0.5692(8) 0.3827(10) 0.4934(9)
H27 H 0.6080 0.3655 0.5322
C23 C 0.5913(8) 0.4324(9) 0.4377(8)
H28 H 0.6456 0.4473 0.4406
C24 C 0.5384(7) 0.4600(9) 0.3799(8)
C25 C 0.5703(8) 0.5079(7) 0.3231(8)
C26 C 0.5524(10) 0.5808(11) 0.2046(10)
H29 H 0.5879 0.6248 0.2247
H30 H 0.5852 0.5427 0.1813
C27 C 0.4951(11) 0.6133(12) 0.1504(11)
C28 C 0.4672(12) 0.5905(13) 0.0801(12)
H31 H 0.4833 0.5443 0.0565
C29 C 0.4120(11) 0.6462(12) 0.0499(12)
H32 H 0.3889 0.6500 0.0007
C30 C 0.3971(12) 0.6954(13) 0.1059(12)
H33 H 0.3599 0.7382 0.1013
C31 C 0.2270(6) 0.6323(6) 0.3945(6)
C32 C 0.2493(6) 0.7095(6) 0.3711(7)
H34 H 0.2696 0.7153 0.3269
C33 C 0.2407(8) 0.7771(7) 0.4151(8)
H35 H 0.2524 0.8289 0.3987
C34 C 0.2154(9) 0.7689(7) 0.4818(8)
H36 H 0.2121 0.8139 0.5122
C35 C 0.1947(8) 0.6911(7) 0.5032(7)
H37 H 0.1755 0.6851 0.5478
C36 C 0.2016(6) 0.6235(6) 0.4614(6)
C37 C 0.1784(6) 0.5444(6) 0.4921(7)
C38 C 0.0995(8) 0.4174(7) 0.4726(7)
H38 H 0.1235 0.4066 0.5232
H39 H 0.0411 0.4209 0.4709
C39 C 0.1185(10) 0.3492(8) 0.4256(9)
C40 C 0.0726(11) 0.3021(8) 0.3765(9)
H40 H 0.0170 0.3072 0.3612
C41 C 0.1252(11) 0.2423(9) 0.3520(9)
H41 H 0.1105 0.1999 0.3189
C42 C 0.1968(11) 0.2589(9) 0.3850(10)
H42 H 0.2433 0.2305 0.3777
Nd1A Nd 0.78377(3) 0.50107(3) 0.31458(3)
Nd1C Nd 0.21623(3) 0.49893(3) 0.68542(3)
O6A O 0.3554(4) 0.0250(5) 0.1742(6)
O8C O 0.2026(4) -0.0277(5) 0.0565(4)
loop_
_geom_bond_atom_site_label_1
_geom_bond_atom_site_label_2
_geom_bond_site_symmetry_1
_geom_bond_site_symmetry_2
Nd1 O4 1_555 1_555
N1 H1 1_555 1_555
N2 H2 1_555 1_555
N3 H3 1_555 1_555
N4 O10 1_555 1_555
N5 O13 1_555 1_555
N6 O16 1_555 1_555
O1 C4 1_555 1_555
O2 C5 1_555 1_555
O3 C6 1_555 1_555
O4 C13 1_555 1_555
O5 C15 1_555 1_555
O6 C25 1_555 1_555
O7 C27 1_555 1_555
O8 C37 1_555 1_555
O9 C39 1_555 1_555
O10 Nd1 1_555 1_555
O11 Nd1 1_555 1_555
O12 N4 1_555 1_555
O13 Nd1 1_555 1_555
O14 Nd1 1_555 1_555
O15 N5 1_555 1_555
O16 Nd1 1_555 1_555
O17 Nd1 1_555 1_555
O18 N6 1_555 1_555
O19 H4 1_555 1_555
C1 C2 1_555 1_555
C2 H5 1_555 1_555
H6 C2 1_555 1_555
C3 C2 1_555 1_555
H7 C3 1_555 1_555
H8 C3 1_555 1_555
H9 C3 1_555 1_555
C4 C1 1_555 1_555
H10 C4 1_555 1_555
H11 C4 1_555 1_555
C5 C1 1_555 1_555
H12 C5 1_555 1_555
H13 C5 1_555 1_555
C6 C1 1_555 1_555
H14 C6 1_555 1_555
H15 C6 1_555 1_555
C7 O1 1_555 1_555
C8 C7 1_555 1_555
H16 C8 1_555 1_555
C9 C8 1_555 1_555
H17 C9 1_555 1_555
C10 C9 1_555 1_555
H18 C10 1_555 1_555
C11 C10 1_555 1_555
H19 C11 1_555 1_555
C12 C7 1_555 1_555
C13 N1 1_555 1_555
C14 N1 1_555 1_555
H20 C14 1_555 1_555
H21 C14 1_555 1_555
C15 C14 1_555 1_555
C16 C15 1_555 1_555
H22 C16 1_555 1_555
C17 C16 1_555 1_555
H23 C17 1_555 1_555
C18 O5 1_555 1_555
H24 C18 1_555 1_555
C19 O2 1_555 1_555
C20 C19 1_555 1_555
H25 C20 1_555 1_555
C21 C20 1_555 1_555
H26 C21 1_555 1_555
C22 C21 1_555 1_555
H27 C22 1_555 1_555
C23 C22 1_555 1_555
H28 C23 1_555 1_555
C24 C19 1_555 1_555
C25 N2 1_555 1_555
C26 N2 1_555 1_555
H29 C26 1_555 1_555
H30 C26 1_555 1_555
C27 C26 1_555 1_555
C28 C27 1_555 1_555
H31 C28 1_555 1_555
C29 C28 1_555 1_555
H32 C29 1_555 1_555
C30 O7 1_555 1_555
H33 C30 1_555 1_555
C31 O3 1_555 1_555
C32 C31 1_555 1_555
H34 C32 1_555 1_555
C33 C32 1_555 1_555
H35 C33 1_555 1_555
C34 C33 1_555 1_555
H36 C34 1_555 1_555
C35 C34 1_555 1_555
H37 C35 1_555 1_555
C36 C31 1_555 1_555
C37 N3 1_555 1_555
C38 N3 1_555 1_555
H38 C38 1_555 1_555
H39 C38 1_555 1_555
C39 C38 1_555 1_555
C40 C39 1_555 1_555
H40 C40 1_555 1_555
C41 C40 1_555 1_555
H41 C41 1_555 1_555
C42 O9 1_555 1_555
H42 C42 1_555 1_555
C43 O19 1_555 1_555
H43 C43 1_555 1_555
H44 C43 1_555 1_555
H45 C43 1_555 1_555
Nd1A O6 1_555 1_555
Nd1C O8 1_555 1_555
O6A Nd1 1_555 1_555
O8C Nd1 1_555 1_555
H4B O19 1_555 1_555
C43B O19 1_555 1_555
H43B C43B 1_555 1_555
H44B C43B 1_555 1_555
H45B C43B 1_555 1_555
N4 O11 1_555 1_555
N5 O14 1_555 1_555
N6 O17 1_555 1_555
C11 C12 1_555 1_555
C12 C13 1_555 1_555
C17 C18 1_555 1_555
C23 C24 1_555 1_555
C24 C25 1_555 1_555
C29 C30 1_555 1_555
C35 C36 1_555 1_555
C36 C37 1_555 1_555
C41 C42 1_555 1_555

#END
