
#######################################################################
#
#                 Cambridge Crystallographic Data Centre
#                                CCDC 
#
#######################################################################
#
# If this CIF has been generated from an entry in the Cambridge 
# Structural Database, then it will include bibliographic, chemical, 
# crystal, experimental, refinement or atomic coordinate data resulting 
# from the CCDC's data processing and validation procedures.
#
#######################################################################

data_XOGWEV
_symmetry_cell_setting           triclinic
_symmetry_space_group_name_H-M   'P -1'
_symmetry_Int_Tables_number      2
_space_group_name_Hall           '-P 1'
loop_
_symmetry_equiv_pos_site_id
_symmetry_equiv_pos_as_xyz
1 x,y,z
2 -x,-y,-z
_cell_length_a                   6.8040(10)
_cell_length_b                   7.2860(10)
_cell_length_c                   9.289(2)
_cell_angle_alpha                69.65(2)
_cell_angle_beta                 68.51(2)
_cell_angle_gamma                67.51(2)
_cell_volume                     384.174
loop_
_atom_site_label
_atom_site_type_symbol
_atom_site_fract_x
_atom_site_fract_y
_atom_site_fract_z
Cu1 Cu 0.0000 0.0000 0.0000
N1 N -0.7019(3) -0.0031(3) -0.0005(2)
C1 C -0.5849(4) 0.1100(4) -0.1232(3)
H1 H -0.6416 0.1895 -0.2125
C2 C -0.6161(4) -0.1136(4) 0.1225(3)
H2 H -0.6947 -0.1959 0.2110
N2 N 0.1358(3) -0.0832(3) -0.2160(2)
N3 N 0.3311(4) -0.2041(4) -0.5041(3)
C3 C 0.1593(4) 0.0553(4) -0.3580(3)
H3 H 0.1083 0.1972 -0.3609
C4 C 0.2569(4) -0.0070(4) -0.4996(3)
H4 H 0.2717 0.0942 -0.5973
C5 C 0.2066(5) -0.2809(4) -0.2192(3)
H5 H 0.1907 -0.3829 -0.1220
C6 C 0.3030(5) -0.3381(5) -0.3632(3)
H6 H 0.3513 -0.4796 -0.3610
N4 N -0.1819(4) 0.5085(3) -0.2015(3)
O1 O -0.0462(3) 0.3498(3) -0.1391(2)
O2 O -0.2100(4) 0.5162(3) -0.3291(2)
O3 O -0.2816(4) 0.6506(3) -0.1350(3)
C2A C -0.3839(4) 0.1136(4) -0.1225(3)
N1A N -0.2981(3) 0.0031(3) 0.0005(2)
Cu1_2 Cu -1.0000 0.0000 0.0000
N1_2 N 0.2981(3) -0.0031(3) -0.0005(2)
N2A N -0.1358(3) 0.0832(3) 0.2160(2)
C3A C -0.1593(4) -0.0553(4) 0.3580(3)
H3A H -0.1083 -0.1972 0.3609
C4A C -0.2569(4) 0.0070(4) 0.4996(3)
N3A N -0.3311(4) 0.2041(4) 0.5041(3)
C6A C -0.3030(5) 0.3381(5) 0.3632(3)
C5A C -0.2066(5) 0.2809(4) 0.2192(3)
H5A H -0.1907 0.3829 0.1220
H6A H -0.3513 0.4796 0.3610
H4A H -0.2717 -0.0942 0.5973
O1A O 0.0462(3) -0.3498(3) 0.1391(2)
N4A N 0.1819(4) -0.5085(3) 0.2015(3)
O2A O 0.2100(4) -0.5162(3) 0.3291(2)
O3A O 0.2816(4) -0.6506(3) 0.1350(3)
C1A C -0.4151(4) -0.1100(4) 0.1232(3)
H1A H -0.3584 -0.1895 0.2125
H2A H -0.3053 0.1959 -0.2110
loop_
_geom_bond_atom_site_label_1
_geom_bond_atom_site_label_2
_geom_bond_site_symmetry_1
_geom_bond_site_symmetry_2
Cu1 N2 1_555 1_555
N1 C1 1_555 1_555
C1 H1 1_555 1_555
C2 N1 1_555 1_555
H2 C2 1_555 1_555
N2 C3 1_555 1_555
N3 C4 1_555 1_555
C3 H3 1_555 1_555
C4 C3 1_555 1_555
H4 C4 1_555 1_555
C5 N2 1_555 1_555
H5 C5 1_555 1_555
C6 N3 1_555 1_555
H6 C6 1_555 1_555
N4 O1 1_555 1_555
O1 Cu1 1_555 1_555
O2 N4 1_555 1_555
O3 N4 1_555 1_555
C2A C1 1_555 1_555
N1A Cu1 1_555 1_555
Cu1_2 N1 1_555 1_555
N1_2 Cu1 1_555 1_555
N2A Cu1 1_555 1_555
C3A N2A 1_555 1_555
H3A C3A 1_555 1_555
C4A C3A 1_555 1_555
N3A C4A 1_555 1_555
C6A N3A 1_555 1_555
C5A N2A 1_555 1_555
H5A C5A 1_555 1_555
H6A C6A 1_555 1_555
H4A C4A 1_555 1_555
O1A Cu1 1_555 1_555
N4A O1A 1_555 1_555
O2A N4A 1_555 1_555
O3A N4A 1_555 1_555
C1A C2 1_555 1_555
H1A C1A 1_555 1_555
H2A C2A 1_555 1_555
C5 C6 1_555 1_555
C2A N1A 1_555 1_555
N1A C1A 1_555 1_555
C6A C5A 1_555 1_555

#END
