
#######################################################################
#
#                 Cambridge Crystallographic Data Centre
#                                CCDC 
#
#######################################################################
#
# If this CIF has been generated from an entry in the Cambridge 
# Structural Database, then it will include bibliographic, chemical, 
# crystal, experimental, refinement or atomic coordinate data resulting 
# from the CCDC's data processing and validation procedures.
#
#######################################################################

data_XOGXUN04
_symmetry_cell_setting           monoclinic
_symmetry_space_group_name_H-M   'P 21/n'
_symmetry_Int_Tables_number      14
_space_group_name_Hall           '-P 2yn'
loop_
_symmetry_equiv_pos_site_id
_symmetry_equiv_pos_as_xyz
1 x,y,z
2 1/2-x,1/2+y,1/2-z
3 -x,-y,-z
4 1/2+x,1/2-y,1/2+z
_cell_length_a                   7.71(5)
_cell_length_b                   11.00(5)
_cell_length_c                   8.32(5)
_cell_angle_alpha                90
_cell_angle_beta                 97.0(5)
_cell_angle_gamma                90
_cell_volume                     700.36
loop_
_atom_site_label
_atom_site_type_symbol
_atom_site_fract_x
_atom_site_fract_y
_atom_site_fract_z
Cu1 Cu 0.50000 -0.50000 0.50000
O1 O 0.62760 -0.64680 0.44380
O2 O 0.52960 -0.13300 0.08710
O3 O 0.23320 -0.12660 -0.04690
O4 O 0.46470 -0.21130 -0.18650
N1 N 0.39560 -0.47250 0.26630
S1 S 0.40140 -0.18840 -0.03130
C1 C 0.41900 -0.36090 0.19830
C2 C 0.35890 -0.34010 0.04850
C3 C 0.24810 -0.41340 -0.04750
C4 C 0.22410 -0.53060 0.02170
C5 C 0.29690 -0.55740 0.17690
O1B O 0.37240 -0.35320 0.55620
O3C O 0.73320 -0.37340 0.45310
N1B N 0.60440 -0.52750 0.73370
C1B C 0.58100 -0.63910 0.80170
C5B C 0.70310 -0.44260 0.82310
C2B C 0.64110 -0.65990 0.95150
C4B C 0.77590 -0.46940 0.97830
O3A O 0.26680 -0.62660 0.54690
S1B S 0.59860 -0.81160 1.03130
C3B C 0.75190 -0.58660 1.04750
Cu1A Cu 0.00000 0.00000 0.00000
O2B O 0.47040 -0.86700 0.91290
O3B O 0.76680 -0.87340 1.04690
O4B O 0.53530 -0.78870 1.18650
Cu1A_2 Cu 1.00000 -1.00000 1.00000
loop_
_geom_bond_atom_site_label_1
_geom_bond_atom_site_label_2
_geom_bond_site_symmetry_1
_geom_bond_site_symmetry_2
Cu1 O1 1_555 1_555
O2 S1 1_555 1_555
O3 S1 1_555 1_555
O4 S1 1_555 1_555
N1 Cu1 1_555 1_555
S1 C2 1_555 1_555
C1 N1 1_555 1_555
C2 C1 1_555 1_555
C3 C2 1_555 1_555
C4 C3 1_555 1_555
C5 N1 1_555 1_555
O1B Cu1 1_555 1_555
O3C Cu1 1_555 1_555
N1B Cu1 1_555 1_555
C1B N1B 1_555 1_555
C5B N1B 1_555 1_555
C2B C1B 1_555 1_555
C4B C5B 1_555 1_555
O3A Cu1 1_555 1_555
S1B C2B 1_555 1_555
C3B C2B 1_555 1_555
Cu1A O3 1_555 1_555
O2B S1B 1_555 1_555
O3B S1B 1_555 1_555
O4B S1B 1_555 1_555
Cu1A_2 O3B 1_555 1_555
C4 C5 1_555 1_555
C4B C3B 1_555 1_555

#END
