
#######################################################################
#
#                 Cambridge Crystallographic Data Centre
#                                CCDC 
#
#######################################################################
#
# If this CIF has been generated from an entry in the Cambridge 
# Structural Database, then it will include bibliographic, chemical, 
# crystal, experimental, refinement or atomic coordinate data resulting 
# from the CCDC's data processing and validation procedures.
#
#######################################################################

data_XOGXUN02
_symmetry_cell_setting           monoclinic
_symmetry_space_group_name_H-M   'P 21/n'
_symmetry_Int_Tables_number      14
_space_group_name_Hall           '-P 2yn'
loop_
_symmetry_equiv_pos_site_id
_symmetry_equiv_pos_as_xyz
1 x,y,z
2 1/2-x,1/2+y,1/2-z
3 -x,-y,-z
4 1/2+x,1/2-y,1/2+z
_cell_length_a                   9.0443(15)
_cell_length_b                   9.0093(11)
_cell_length_c                   9.5518(15)
_cell_angle_alpha                90
_cell_angle_beta                 115.093(11)
_cell_angle_gamma                90
_cell_volume                     704.851
loop_
_atom_site_label
_atom_site_type_symbol
_atom_site_fract_x
_atom_site_fract_y
_atom_site_fract_z
Cu1 Cu 0.0000 0.5000 0.5000
N1 N 0.09012(12) 0.53323(13) 0.72816(11)
C1 C 0.20174(14) 0.44284(14) 0.83030(13)
C2 C 0.25896(13) 0.46552(14) 0.98778(12)
C3 C 0.19939(16) 0.58285(15) 1.04187(14)
C4 C 0.08475(17) 0.67627(16) 0.93613(16)
C5 C 0.03351(16) 0.64812(15) 0.78038(16)
S1 S 0.40399(4) 0.34415(4) 1.12153(3)
O1 O 0.48910(12) 0.27226(12) 1.04078(13)
O2 O 0.30878(14) 0.23982(13) 1.16643(13)
O3 O 0.50555(15) 0.43918(16) 1.24751(13)
O4 O 0.22195(12) 0.49346(13) 0.50395(12)
H1 H 0.233(3) 0.369(3) 0.789(3)
H2 H 0.232(3) 0.592(3) 1.146(3)
H3 H 0.044(3) 0.754(2) 0.975(3)
H4 H -0.041(3) 0.716(3) 0.704(3)
H5 H 0.294(3) 0.512(3) 0.584(3)
H6 H 0.229(3) 0.551(3) 0.445(3)
Cu1C Cu 0.5000 0.0000 1.0000
Cu1C_2 Cu -0.5000 1.0000 0.0000
N1B N -0.09012(12) 0.46677(13) 0.27184(11)
C1B C -0.20174(14) 0.55716(14) 0.16970(13)
C2B C -0.25896(13) 0.53448(14) 0.01222(12)
C3B C -0.19939(16) 0.41715(15) -0.04187(14)
C4B C -0.08475(17) 0.32373(16) 0.06387(16)
C5B C -0.03351(16) 0.35188(15) 0.21962(16)
S1B S -0.40399(4) 0.65585(4) -0.12153(3)
O1B O -0.48910(12) 0.72774(12) -0.04078(13)
O1C O -0.01090(12) 0.22774(12) 0.54078(13)
O1A O 0.01090(12) 0.77226(12) 0.45922(13)
O2B O -0.30878(14) 0.76018(13) -0.16643(13)
O3B O -0.50555(15) 0.56082(16) -0.24751(13)
O4B O -0.22195(12) 0.50654(13) 0.49605(12)
H1B H -0.233(3) 0.631(3) 0.211(3)
H2B H -0.232(3) 0.408(3) -0.146(3)
H3B H -0.044(3) 0.246(2) 0.025(3)
H4B H 0.041(3) 0.284(3) 0.296(3)
H5B H -0.294(3) 0.488(3) 0.416(3)
H6B H -0.229(3) 0.449(3) 0.555(3)
loop_
_geom_bond_atom_site_label_1
_geom_bond_atom_site_label_2
_geom_bond_site_symmetry_1
_geom_bond_site_symmetry_2
Cu1 N1 1_555 1_555
N1 C1 1_555 1_555
C1 C2 1_555 1_555
C2 C3 1_555 1_555
C3 C4 1_555 1_555
C4 C5 1_555 1_555
C5 N1 1_555 1_555
S1 C2 1_555 1_555
O1 S1 1_555 1_555
O2 S1 1_555 1_555
O3 S1 1_555 1_555
O4 Cu1 1_555 1_555
H1 C1 1_555 1_555
H2 C3 1_555 1_555
H3 C4 1_555 1_555
H4 C5 1_555 1_555
H5 O4 1_555 1_555
H6 O4 1_555 1_555
Cu1C O1 1_555 1_555
Cu1C_2 O1B 1_555 1_555
N1B Cu1 1_555 1_555
C1B N1B 1_555 1_555
C2B C1B 1_555 1_555
C3B C2B 1_555 1_555
C4B C3B 1_555 1_555
C5B N1B 1_555 1_555
S1B C2B 1_555 1_555
O1B S1B 1_555 1_555
O1C Cu1 1_555 1_555
O1A Cu1 1_555 1_555
O2B S1B 1_555 1_555
O3B S1B 1_555 1_555
O4B Cu1 1_555 1_555
H1B C1B 1_555 1_555
H2B C3B 1_555 1_555
H3B C4B 1_555 1_555
H4B C5B 1_555 1_555
H5B O4B 1_555 1_555
H6B O4B 1_555 1_555
C4B C5B 1_555 1_555

#END
