
#######################################################################
#
#                 Cambridge Crystallographic Data Centre
#                                CCDC 
#
#######################################################################
#
# If this CIF has been generated from an entry in the Cambridge 
# Structural Database, then it will include bibliographic, chemical, 
# crystal, experimental, refinement or atomic coordinate data resulting 
# from the CCDC's data processing and validation procedures.
#
#######################################################################

data_XOGXUN01
_symmetry_cell_setting           monoclinic
_symmetry_space_group_name_H-M   'P 21/n'
_symmetry_Int_Tables_number      14
_space_group_name_Hall           '-P 2yn'
loop_
_symmetry_equiv_pos_site_id
_symmetry_equiv_pos_as_xyz
1 x,y,z
2 1/2-x,1/2+y,1/2-z
3 -x,-y,-z
4 1/2+x,1/2-y,1/2+z
_cell_length_a                   9.0249(4)
_cell_length_b                   8.9181(3)
_cell_length_c                   9.5654(5)
_cell_angle_alpha                90
_cell_angle_beta                 115.017(6)
_cell_angle_gamma                90
_cell_volume                     697.643
loop_
_atom_site_label
_atom_site_type_symbol
_atom_site_fract_x
_atom_site_fract_y
_atom_site_fract_z
Cu1 Cu 0.0000 0.5000 0.5000
N1 N 0.08963(12) 0.53440(12) 0.72694(11)
C1 C 0.20223(13) 0.44372(13) 0.82981(12)
C2 C 0.25777(13) 0.46682(13) 0.98646(12)
C3 C 0.19634(15) 0.58512(14) 1.04013(13)
C4 C 0.08118(15) 0.67870(14) 0.93369(14)
C5 C 0.03150(15) 0.65026(14) 0.77851(14)
S1 S 0.40402(3) 0.34577(3) 1.12122(3)
O1 O 0.49049(11) 0.27343(11) 1.04123(11)
O2 O 0.30930(13) 0.23984(12) 1.16667(11)
O3 O 0.50472(13) 0.44299(14) 1.24649(12)
O4 O 0.22197(12) 0.49310(12) 0.50409(12)
H1 H 0.243(4) 0.370(3) 0.790(3)
H2 H 0.228(4) 0.597(3) 1.144(3)
H3 H 0.036(4) 0.759(3) 0.964(3)
H4 H -0.042(3) 0.714(3) 0.703(3)
H5 H 0.292(5) 0.511(3) 0.578(5)
H6 H 0.233(4) 0.551(3) 0.445(4)
Cu1C Cu 0.5000 0.0000 1.0000
Cu1C_2 Cu -0.5000 1.0000 0.0000
N1B N -0.08963(12) 0.46560(12) 0.27306(11)
C1B C -0.20223(13) 0.55628(13) 0.17019(12)
C2B C -0.25777(13) 0.53318(13) 0.01354(12)
C3B C -0.19634(15) 0.41488(14) -0.04013(13)
C4B C -0.08118(15) 0.32130(14) 0.06631(14)
C5B C -0.03150(15) 0.34974(14) 0.22149(14)
S1B S -0.40402(3) 0.65423(3) -0.12122(3)
O1B O -0.49049(11) 0.72657(11) -0.04123(11)
O1C O -0.00951(11) 0.22657(11) 0.54123(11)
O1A O 0.00951(11) 0.77343(11) 0.45877(11)
O2B O -0.30930(13) 0.76016(12) -0.16667(11)
O3B O -0.50472(13) 0.55701(14) -0.24649(12)
O4B O -0.22197(12) 0.50690(12) 0.49591(12)
H1B H -0.243(4) 0.630(3) 0.210(3)
H2B H -0.228(4) 0.403(3) -0.144(3)
H3B H -0.036(4) 0.241(3) 0.036(3)
H4B H 0.042(3) 0.286(3) 0.297(3)
H5B H -0.292(5) 0.489(3) 0.422(5)
H6B H -0.233(4) 0.449(3) 0.555(4)
loop_
_geom_bond_atom_site_label_1
_geom_bond_atom_site_label_2
_geom_bond_site_symmetry_1
_geom_bond_site_symmetry_2
Cu1 N1 1_555 1_555
N1 C1 1_555 1_555
C1 C2 1_555 1_555
C2 C3 1_555 1_555
C3 C4 1_555 1_555
C4 C5 1_555 1_555
C5 N1 1_555 1_555
S1 C2 1_555 1_555
O1 S1 1_555 1_555
O2 S1 1_555 1_555
O3 S1 1_555 1_555
O4 Cu1 1_555 1_555
H1 C1 1_555 1_555
H2 C3 1_555 1_555
H3 C4 1_555 1_555
H4 C5 1_555 1_555
H5 O4 1_555 1_555
H6 O4 1_555 1_555
Cu1C O1 1_555 1_555
Cu1C_2 O1B 1_555 1_555
N1B Cu1 1_555 1_555
C1B N1B 1_555 1_555
C2B C1B 1_555 1_555
C3B C2B 1_555 1_555
C4B C3B 1_555 1_555
C5B N1B 1_555 1_555
S1B C2B 1_555 1_555
O1B S1B 1_555 1_555
O1C Cu1 1_555 1_555
O1A Cu1 1_555 1_555
O2B S1B 1_555 1_555
O3B S1B 1_555 1_555
O4B Cu1 1_555 1_555
H1B C1B 1_555 1_555
H2B C3B 1_555 1_555
H3B C4B 1_555 1_555
H4B C5B 1_555 1_555
H5B O4B 1_555 1_555
H6B O4B 1_555 1_555
C4B C5B 1_555 1_555

#END
