
#######################################################################
#
#                 Cambridge Crystallographic Data Centre
#                                CCDC 
#
#######################################################################
#
# If this CIF has been generated from an entry in the Cambridge 
# Structural Database, then it will include bibliographic, chemical, 
# crystal, experimental, refinement or atomic coordinate data resulting 
# from the CCDC's data processing and validation procedures.
#
#######################################################################

data_XOGXUN
_symmetry_cell_setting           monoclinic
_symmetry_space_group_name_H-M   'P 21/n'
_symmetry_Int_Tables_number      14
_space_group_name_Hall           '-P 2yn'
loop_
_symmetry_equiv_pos_site_id
_symmetry_equiv_pos_as_xyz
1 x,y,z
2 1/2-x,1/2+y,1/2-z
3 -x,-y,-z
4 1/2+x,1/2-y,1/2+z
_cell_length_a                   9.0036(2)
_cell_length_b                   8.85840(15)
_cell_length_c                   9.5756(2)
_cell_angle_alpha                90
_cell_angle_beta                 114.931(3)
_cell_angle_gamma                90
_cell_volume                     692.559
loop_
_atom_site_label
_atom_site_type_symbol
_atom_site_fract_x
_atom_site_fract_y
_atom_site_fract_z
Cu1 Cu 0.0000 0.5000 0.5000
N1 N 0.08942(8) 0.53494(8) 0.72642(8)
C1 C 0.20213(9) 0.44389(9) 0.82919(9)
C2 C 0.25721(9) 0.46744(9) 0.98581(9)
C3 C 0.19430(10) 0.58619(10) 1.03900(9)
C4 C 0.07917(10) 0.68006(10) 0.93246(9)
C5 C 0.03008(10) 0.65141(9) 0.77726(9)
S1 S 0.40399(2) 0.34667(2) 1.12091(2)
O1 O 0.49109(8) 0.27368(7) 1.04139(8)
O2 O 0.30959(8) 0.23968(8) 1.16720(8)
O3 O 0.50433(8) 0.44556(9) 1.24572(8)
O4 O 0.22244(8) 0.49278(8) 0.50423(8)
H1 H 0.240(3) 0.370(3) 0.787(3)
H2 H 0.224(3) 0.600(3) 1.141(3)
H3 H 0.037(3) 0.764(3) 0.964(3)
H4 H -0.042(3) 0.714(3) 0.701(3)
H5 H 0.299(3) 0.511(3) 0.586(3)
H6 H 0.231(3) 0.554(3) 0.444(3)
Cu1C Cu 0.5000 0.0000 1.0000
Cu1C_2 Cu -0.5000 1.0000 0.0000
N1B N -0.08942(8) 0.46506(8) 0.27358(8)
C1B C -0.20213(9) 0.55611(9) 0.17081(9)
C2B C -0.25721(9) 0.53256(9) 0.01419(9)
C3B C -0.19430(10) 0.41381(10) -0.03900(9)
C4B C -0.07917(10) 0.31994(10) 0.06754(9)
C5B C -0.03008(10) 0.34859(9) 0.22274(9)
S1B S -0.40399(2) 0.65333(2) -0.12091(2)
O1B O -0.49109(8) 0.72632(7) -0.04139(8)
O1C O -0.00891(8) 0.22632(7) 0.54139(8)
O1A O 0.00891(8) 0.77368(7) 0.45861(8)
O2B O -0.30959(8) 0.76032(8) -0.16720(8)
O3B O -0.50433(8) 0.55444(9) -0.24572(8)
O4B O -0.22244(8) 0.50722(8) 0.49577(8)
H1B H -0.240(3) 0.630(3) 0.213(3)
H2B H -0.224(3) 0.400(3) -0.141(3)
H3B H -0.037(3) 0.236(3) 0.036(3)
H4B H 0.042(3) 0.286(3) 0.299(3)
H5B H -0.299(3) 0.489(3) 0.414(3)
H6B H -0.231(3) 0.446(3) 0.556(3)
loop_
_geom_bond_atom_site_label_1
_geom_bond_atom_site_label_2
_geom_bond_site_symmetry_1
_geom_bond_site_symmetry_2
Cu1 N1 1_555 1_555
N1 C1 1_555 1_555
C1 C2 1_555 1_555
C2 C3 1_555 1_555
C3 C4 1_555 1_555
C4 C5 1_555 1_555
C5 N1 1_555 1_555
S1 C2 1_555 1_555
O1 S1 1_555 1_555
O2 S1 1_555 1_555
O3 S1 1_555 1_555
O4 Cu1 1_555 1_555
H1 C1 1_555 1_555
H2 C3 1_555 1_555
H3 C4 1_555 1_555
H4 C5 1_555 1_555
H5 O4 1_555 1_555
H6 O4 1_555 1_555
Cu1C O1 1_555 1_555
Cu1C_2 O1B 1_555 1_555
N1B Cu1 1_555 1_555
C1B N1B 1_555 1_555
C2B C1B 1_555 1_555
C3B C2B 1_555 1_555
C4B C3B 1_555 1_555
C5B N1B 1_555 1_555
S1B C2B 1_555 1_555
O1B S1B 1_555 1_555
O1C Cu1 1_555 1_555
O1A Cu1 1_555 1_555
O2B S1B 1_555 1_555
O3B S1B 1_555 1_555
O4B Cu1 1_555 1_555
H1B C1B 1_555 1_555
H2B C3B 1_555 1_555
H3B C4B 1_555 1_555
H4B C5B 1_555 1_555
H5B O4B 1_555 1_555
H6B O4B 1_555 1_555
C4B C5B 1_555 1_555

#END
