
#######################################################################
#
#                 Cambridge Crystallographic Data Centre
#                                CCDC 
#
#######################################################################
#
# If this CIF has been generated from an entry in the Cambridge 
# Structural Database, then it will include bibliographic, chemical, 
# crystal, experimental, refinement or atomic coordinate data resulting 
# from the CCDC's data processing and validation procedures.
#
#######################################################################

data_XOGZOK
_symmetry_cell_setting           monoclinic
_symmetry_space_group_name_H-M   'P 21/c'
_symmetry_Int_Tables_number      14
_space_group_name_Hall           '-P 2ybc'
loop_
_symmetry_equiv_pos_site_id
_symmetry_equiv_pos_as_xyz
1 x,y,z
2 -x,1/2+y,1/2-z
3 -x,-y,-z
4 x,1/2-y,1/2+z
_cell_length_a                   6.66010(14)
_cell_length_b                   17.5692(3)
_cell_length_c                   26.7739(6)
_cell_angle_alpha                90
_cell_angle_beta                 91.9260(19)
_cell_angle_gamma                90
_cell_volume                     3131.11
loop_
_atom_site_label
_atom_site_type_symbol
_atom_site_fract_x
_atom_site_fract_y
_atom_site_fract_z
Os1 Os 0.77032(3) 0.922656(10) 0.446371(7)
K1 K 0.34401(16) 0.85636(6) 0.52710(4)
O1 O 0.8601(5) 1.02655(19) 0.42625(12)
O2 O 0.6068(7) 0.8360(2) 0.31075(15)
O3 O 0.6734(5) 0.81955(18) 0.46787(12)
O4 O 0.6134(6) 0.6060(2) 0.52963(14)
O5 O 0.4288(6) 0.7831(2) 0.61611(15)
O6 O 1.0155(5) 0.8946(2) 0.46086(13)
O7 O 0.5226(5) 0.95426(19) 0.45345(13)
O8 O 0.7790(5) 0.9457(2) 0.52825(13)
H1 H 0.717(8) 0.979(3) 0.531(2)
H2 H 0.879(9) 0.953(6) 0.539(4)
O9 O 0.1943(6) 0.7173(2) 0.50981(16)
N1 N 0.7532(6) 0.9032(2) 0.37508(15)
N2 N 0.7225(6) 0.7268(2) 0.54513(15)
C1 C 0.9103(9) 1.0254(3) 0.3746(2)
H3 H 1.0475 1.0079 0.3718
H4 H 0.9023 1.0768 0.3613
C2 C 0.7701(8) 0.9737(3) 0.34376(19)
C3 C 0.5628(9) 1.0106(3) 0.3359(2)
H5 H 0.4727 0.9749 0.3198
H6 H 0.5743 1.0550 0.3154
H7 H 0.5116 1.0248 0.3677
C4 C 0.8697(12) 0.9594(4) 0.2941(2)
H8 H 0.9894 0.9298 0.2998
H9 H 0.9038 1.0072 0.2792
H10 H 0.7785 0.9322 0.2721
C5 C 0.6714(8) 0.8376(3) 0.35440(19)
C6 C 0.6685(7) 0.7654(3) 0.38457(18)
C7 C 0.6705(7) 0.7588(3) 0.43717(18)
C8 C 0.6620(7) 0.6849(3) 0.45870(17)
C9 C 0.6528(7) 0.6217(3) 0.42816(19)
H11 H 0.6462 0.5738 0.4428
C10 C 0.6531(7) 0.6267(3) 0.37610(19)
C11 C 0.6580(7) 0.6989(3) 0.35564(18)
H12 H 0.6541 0.7036 0.3210
C12 C 0.6495(8) 0.5539(3) 0.3444(2)
C13 C 0.6601(11) 0.5706(4) 0.2886(2)
H13 H 0.5467 0.6010 0.2780
H14 H 0.6586 0.5235 0.2703
H15 H 0.7819 0.5977 0.2823
C14 C 0.4580(11) 0.5096(4) 0.3530(3)
H16 H 0.4481 0.4989 0.3879
H17 H 0.4606 0.4627 0.3346
H18 H 0.3441 0.5393 0.3417
C15 C 0.8338(12) 0.5050(4) 0.3594(3)
H19 H 0.9541 0.5341 0.3554
H20 H 0.8368 0.4606 0.3385
H21 H 0.8253 0.4897 0.3937
C16 C 0.6619(7) 0.6697(3) 0.51465(19)
C17 C 0.7506(8) 0.7216(3) 0.59977(19)
C18 C 0.8805(8) 0.6531(3) 0.6147(2)
H22 H 0.8141 0.6072 0.6040
H23 H 0.9010 0.6523 0.6504
H24 H 1.0079 0.6569 0.5992
C19 C 0.5456(8) 0.7153(3) 0.6236(2)
H25 H 0.4730 0.6723 0.6093
H26 H 0.5651 0.7061 0.6592
C20 C 0.8572(9) 0.7945(3) 0.6166(2)
H27 H 0.9870 0.7968 0.6021
H28 H 0.8729 0.7948 0.6524
H29 H 0.7788 0.8377 0.6059
C21 C 0.1699(7) 0.6722(3) 0.4755(2)
C22 C 0.1619(8) 0.6986(4) 0.4223(2)
H30 H 0.1572 0.7531 0.4213
H31 H 0.0440 0.6783 0.4055
H32 H 0.2793 0.6811 0.4058
C23 C 0.1493(9) 0.5885(3) 0.4853(2)
H33 H 0.2787 0.5676 0.4943
H34 H 0.0963 0.5637 0.4558
H35 H 0.0598 0.5808 0.5123
H36 H 0.749(8) 0.766(3) 0.531(2)
K1_2 K 1.34401(16) 0.85636(6) 0.52710(4)
K1B K 0.65599(16) 1.14364(6) 0.47290(4)
O1B O 0.1399(5) 0.97345(19) 0.57375(12)
O6_2 O 0.0155(5) 0.8946(2) 0.46086(13)
O10 O 0.2726(8) 0.6919(3) 0.21238(18)
C24 C 0.2249(9) 0.7418(4) 0.2412(2)
C25 C 0.2339(10) 0.8234(4) 0.2274(2)
H37 H 0.2520 0.8279 0.1921
H38 H 0.3446 0.8471 0.2452
H39 H 0.1110 0.8480 0.2359
C26 C 0.1574(11) 0.7233(5) 0.2924(2)
H40 H 0.1635 0.6692 0.2975
H41 H 0.0217 0.7405 0.2958
H42 H 0.2434 0.7482 0.3168
loop_
_geom_bond_atom_site_label_1
_geom_bond_atom_site_label_2
_geom_bond_site_symmetry_1
_geom_bond_site_symmetry_2
Os1 O1 1_555 1_555
K1 O3 1_555 1_555
O1 C1 1_555 1_555
O2 C5 1_555 1_555
O3 Os1 1_555 1_555
O4 C16 1_555 1_555
O5 K1 1_555 1_555
O6 Os1 1_555 1_555
O7 Os1 1_555 1_555
O8 Os1 1_555 1_555
H1 O8 1_555 1_555
H2 O8 1_555 1_555
O9 K1 1_555 1_555
N1 Os1 1_555 1_555
N2 C16 1_555 1_555
C1 H3 1_555 1_555
H4 C1 1_555 1_555
C2 N1 1_555 1_555
C3 C2 1_555 1_555
H5 C3 1_555 1_555
H6 C3 1_555 1_555
H7 C3 1_555 1_555
C4 C2 1_555 1_555
H8 C4 1_555 1_555
H9 C4 1_555 1_555
H10 C4 1_555 1_555
C5 N1 1_555 1_555
C6 C5 1_555 1_555
C7 O3 1_555 1_555
C8 C7 1_555 1_555
C9 C8 1_555 1_555
H11 C9 1_555 1_555
C10 C9 1_555 1_555
C11 C6 1_555 1_555
H12 C11 1_555 1_555
C12 C10 1_555 1_555
C13 C12 1_555 1_555
H13 C13 1_555 1_555
H14 C13 1_555 1_555
H15 C13 1_555 1_555
C14 C12 1_555 1_555
H16 C14 1_555 1_555
H17 C14 1_555 1_555
H18 C14 1_555 1_555
C15 C12 1_555 1_555
H19 C15 1_555 1_555
H20 C15 1_555 1_555
H21 C15 1_555 1_555
C16 C8 1_555 1_555
C17 N2 1_555 1_555
C18 C17 1_555 1_555
H22 C18 1_555 1_555
H23 C18 1_555 1_555
H24 C18 1_555 1_555
C19 O5 1_555 1_555
H25 C19 1_555 1_555
H26 C19 1_555 1_555
C20 C17 1_555 1_555
H27 C20 1_555 1_555
H28 C20 1_555 1_555
H29 C20 1_555 1_555
C21 O9 1_555 1_555
C22 C21 1_555 1_555
H30 C22 1_555 1_555
H31 C22 1_555 1_555
H32 C22 1_555 1_555
C23 C21 1_555 1_555
H33 C23 1_555 1_555
H34 C23 1_555 1_555
H35 C23 1_555 1_555
H36 N2 1_555 1_555
O10 C24 1_555 1_555
C24 C25 1_555 1_555
C25 H37 1_555 1_555
H38 C25 1_555 1_555
H39 C25 1_555 1_555
C26 C24 1_555 1_555
H40 C26 1_555 1_555
H41 C26 1_555 1_555
H42 C26 1_555 1_555
K1_2 O6 1_555 1_555
K1B O1 1_555 1_555
O1B K1 1_555 1_555
O6_2 K1 1_555 1_555
K1 O7 1_555 1_555
K1 O8 1_555 1_555
C1 C2 1_555 1_555
C6 C7 1_555 1_555
C10 C11 1_555 1_555
C17 C19 1_555 1_555

#END
