
#######################################################################
#
#                 Cambridge Crystallographic Data Centre
#                                CCDC 
#
#######################################################################
#
# If this CIF has been generated from an entry in the Cambridge 
# Structural Database, then it will include bibliographic, chemical, 
# crystal, experimental, refinement or atomic coordinate data resulting 
# from the CCDC's data processing and validation procedures.
#
#######################################################################

data_XOHBIH
_symmetry_cell_setting           orthorhombic
_symmetry_space_group_name_H-M   'P n a 21'
_symmetry_Int_Tables_number      33
_space_group_name_Hall           'P 2c -2n'
loop_
_symmetry_equiv_pos_site_id
_symmetry_equiv_pos_as_xyz
1 x,y,z
2 -x,-y,1/2+z
3 1/2-x,1/2+y,1/2+z
4 1/2+x,1/2-y,z
_cell_length_a                   8.4321(14)
_cell_length_b                   15.064(3)
_cell_length_c                   15.064(3)
_cell_angle_alpha                90
_cell_angle_beta                 90
_cell_angle_gamma                90
_cell_volume                     1913.45
loop_
_atom_site_label
_atom_site_type_symbol
_atom_site_fract_x
_atom_site_fract_y
_atom_site_fract_z
Zn1 Zn 0.68760(3) 0.070147(17) 0.24765(3)
C1 C 0.1392(3) 0.28910(19) 0.6020(2)
C2 C 0.2398(4) 0.2798(2) 0.5311(2)
H1 H 0.2819 0.3304 0.5048
C3 C 0.2805(3) 0.19745(18) 0.4974(2)
C4 C 0.2156(4) 0.1227(2) 0.5364(2)
H2 H 0.2384 0.0667 0.5138
C5 C 0.1180(4) 0.1312(2) 0.6084(2)
H3 H 0.0767 0.0805 0.6350
C6 C 0.0792(4) 0.2140(2) 0.6426(2)
H4 H 0.0138 0.2188 0.6921
C7 C 0.0892(4) 0.5226(2) 0.6319(2)
H5 H 0.1139 0.5814 0.6192
C8 C -0.0159(4) 0.4069(2) 0.6872(2)
H6 H -0.0805 0.3707 0.7218
C9 C 0.0945(3) 0.37739(19) 0.6310(2)
C10 C 0.5523(3) 0.23940(17) 0.3203(2)
H7 H 0.6083 0.2770 0.2826
C11 C 0.4659(3) 0.12294(19) 0.3858(2)
H8 H 0.4513 0.0637 0.4011
C12 C 0.3902(3) 0.19267(17) 0.4242(2)
C13 C 1.1206(4) 0.10397(18) -0.0619(2)
C14 C 1.0290(3) 0.10108(18) 0.0139(2)
H9 H 0.9998 0.0465 0.0376
C15 C 0.9804(4) 0.17771(19) 0.0547(2)
C16 C 1.0239(4) 0.25834(18) 0.0188(2)
H10 H 0.9899 0.3107 0.0454
C17 C 1.1173(4) 0.26193(19) -0.0558(2)
C18 C 1.1649(4) 0.1846(2) -0.0970(2)
H11 H 1.2265 0.1869 -0.1482
C19 C 1.1647(3) 0.0200(2) -0.1088(2)
C20 C 0.8754(4) 0.1750(2) 0.1349(2)
C21 C 1.1647(4) 0.3504(2) -0.0908(3)
N1 N 0.1624(4) 0.45261(19) 0.5959(2)
H12 H 0.2381 0.4543 0.5578
N2 N -0.0207(3) 0.49804(16) 0.68697(17)
N3 N 0.4484(3) 0.26563(15) 0.37959(18)
H13 H 0.4209 0.3198 0.3891
N4 N 0.5663(3) 0.15237(14) 0.32157(17)
O1 O 1.2240(3) 0.02774(13) -0.18366(17)
O2 O 1.1390(4) -0.05125(14) -0.07115(18)
O3 O 0.8124(3) 0.2419(2) 0.16211(19)
O4 O 0.8615(3) 0.09777(17) 0.17058(18)
O5 O 1.2592(3) 0.34565(16) -0.15887(19)
H14 H 1.2968 0.3949 -0.1688
O6 O 1.1201(5) 0.41781(17) -0.0585(3)
Zn1A Zn 1.31240(3) -0.070147(17) -0.25235(3)
Zn1B Zn -0.18760(3) 0.570147(17) 0.74765(3)
N2B N 0.5207(3) -0.00196(16) 0.18697(17)
O1A O 0.7760(3) -0.02774(13) 0.31634(17)
O7 O 0.3554(4) 0.5113(2) 0.7821(3)
loop_
_geom_bond_atom_site_label_1
_geom_bond_atom_site_label_2
_geom_bond_site_symmetry_1
_geom_bond_site_symmetry_2
Zn1 N4 1_555 1_555
C1 C2 1_555 1_555
C2 H1 1_555 1_555
C3 C2 1_555 1_555
C4 C3 1_555 1_555
H2 C4 1_555 1_555
C5 C4 1_555 1_555
H3 C5 1_555 1_555
C6 C1 1_555 1_555
H4 C6 1_555 1_555
C7 H5 1_555 1_555
C8 H6 1_555 1_555
C9 C1 1_555 1_555
C10 H7 1_555 1_555
C11 H8 1_555 1_555
C12 C3 1_555 1_555
C13 C14 1_555 1_555
C14 H9 1_555 1_555
C15 C14 1_555 1_555
C16 C15 1_555 1_555
H10 C16 1_555 1_555
C17 C16 1_555 1_555
C18 C13 1_555 1_555
H11 C18 1_555 1_555
C19 C13 1_555 1_555
C20 C15 1_555 1_555
C21 C17 1_555 1_555
N1 C7 1_555 1_555
H12 N1 1_555 1_555
N2 C7 1_555 1_555
N3 C10 1_555 1_555
H13 N3 1_555 1_555
N4 C10 1_555 1_555
O1 C19 1_555 1_555
O2 C19 1_555 1_555
O3 C20 1_555 1_555
O4 Zn1 1_555 1_555
O5 C21 1_555 1_555
H14 O5 1_555 1_555
O6 C21 1_555 1_555
Zn1A O1 1_555 1_555
Zn1B N2 1_555 1_555
N2B Zn1 1_555 1_555
O1A Zn1 1_555 1_555
C5 C6 1_555 1_555
C8 C9 1_555 1_555
C8 N2 1_555 1_555
C9 N1 1_555 1_555
C11 C12 1_555 1_555
C11 N4 1_555 1_555
C12 N3 1_555 1_555
C17 C18 1_555 1_555
C20 O4 1_555 1_555

#END
