
#######################################################################
#
#                 Cambridge Crystallographic Data Centre
#                                CCDC 
#
#######################################################################
#
# If this CIF has been generated from an entry in the Cambridge 
# Structural Database, then it will include bibliographic, chemical, 
# crystal, experimental, refinement or atomic coordinate data resulting 
# from the CCDC's data processing and validation procedures.
#
#######################################################################

data_XOHBUT
_symmetry_cell_setting           triclinic
_symmetry_space_group_name_H-M   'P -1'
_symmetry_Int_Tables_number      2
_space_group_name_Hall           '-P 1'
loop_
_symmetry_equiv_pos_site_id
_symmetry_equiv_pos_as_xyz
1 x,y,z
2 -x,-y,-z
_cell_length_a                   8.3451(9)
_cell_length_b                   10.1109(10)
_cell_length_c                   11.2679(11)
_cell_angle_alpha                100.743(2)
_cell_angle_beta                 90.027(2)
_cell_angle_gamma                112.287(2)
_cell_volume                     861.65
loop_
_atom_site_label
_atom_site_type_symbol
_atom_site_fract_x
_atom_site_fract_y
_atom_site_fract_z
Cd1 Cd 0.90705(4) 0.40132(3) 0.63863(3)
C1 C 0.2655(5) 0.3779(5) 0.1243(4)
C2 C 0.3510(5) 0.3870(4) 0.2337(4)
H1 H 0.3993 0.4761 0.2876
C3 C 0.3646(5) 0.2635(4) 0.2626(4)
C4 C 0.2948(5) 0.1313(5) 0.1796(4)
H2 H 0.3047 0.0485 0.1977
C5 C 0.2116(6) 0.1222(5) 0.0714(4)
H3 H 0.1652 0.0336 0.0166
C6 C 0.1969(6) 0.2446(5) 0.0441(4)
H4 H 0.1400 0.2376 -0.0292
C7 C 0.1816(6) 0.6932(5) 0.1006(4)
H5 H 0.1528 0.7729 0.1300
C8 C 0.2395(6) 0.5291(5) -0.0254(4)
H6 H 0.2587 0.4749 -0.0960
C9 C 0.2441(5) 0.5035(5) 0.0885(4)
C10 C 0.5325(5) 0.1870(4) 0.5232(4)
H7 H 0.5312 0.1255 0.5754
C11 C 0.6051(5) 0.3725(4) 0.4380(3)
H8 H 0.6654 0.4644 0.4211
C12 C 0.4575(5) 0.2705(4) 0.3755(4)
C13 C 1.1448(5) -0.1373(4) 0.6955(3)
C14 C 1.0594(5) -0.0574(4) 0.6571(3)
H9 H 0.9557 -0.1052 0.6086
C15 C 1.1280(5) 0.0943(4) 0.6905(3)
C16 C 1.2885(5) 0.1645(4) 0.7563(4)
H10 H 1.3386 0.2659 0.7749
C17 C 1.3743(5) 0.0848(5) 0.7946(4)
H11 H 1.4811 0.1328 0.8393
C18 C 1.3022(5) -0.0649(4) 0.7666(4)
H12 H 1.3580 -0.1182 0.7951
C19 C 1.0664(5) -0.3003(4) 0.6681(4)
C20 C 1.0274(5) 0.1820(4) 0.6636(3)
N1 N 0.2081(4) 0.6094(4) 0.1693(3)
N2 N 0.2011(5) 0.6499(4) -0.0155(3)
H13 H 0.1911 0.6909 -0.0740
N3 N 0.4129(4) 0.1524(4) 0.4313(3)
H14 H 0.3245 0.0714 0.4107
N4 N 0.6521(4) 0.3188(4) 0.5306(3)
O1 O 1.0959(4) -0.3658(3) 0.7443(3)
O2 O 0.9723(4) -0.3678(3) 0.5717(3)
O3 O 0.8694(4) 0.1211(3) 0.6292(3)
O4 O 1.1081(4) 0.3194(3) 0.6833(3)
Cd1_2 Cd 0.90705(4) -0.59868(3) 0.63863(3)
Cd1A Cd 0.09295(4) 0.59868(3) 0.36137(3)
Cd1A_2 Cd 1.09295(4) -0.40132(3) 0.36137(3)
N1A N 0.7919(4) 0.3906(4) 0.8307(3)
O1_2 O 1.0959(4) 0.6342(3) 0.7443(3)
O2_2 O 0.9723(4) 0.6322(3) 0.5717(3)
O2A O 1.0277(4) 0.3678(3) 0.4283(3)
loop_
_geom_bond_atom_site_label_1
_geom_bond_atom_site_label_2
_geom_bond_site_symmetry_1
_geom_bond_site_symmetry_2
Cd1 N4 1_555 1_555
C1 C2 1_555 1_555
C2 H1 1_555 1_555
C3 C2 1_555 1_555
C4 C3 1_555 1_555
H2 C4 1_555 1_555
C5 C4 1_555 1_555
H3 C5 1_555 1_555
C6 C1 1_555 1_555
H4 C6 1_555 1_555
C7 H5 1_555 1_555
C8 H6 1_555 1_555
C9 C1 1_555 1_555
C10 H7 1_555 1_555
C11 H8 1_555 1_555
C12 C3 1_555 1_555
C13 C14 1_555 1_555
C14 H9 1_555 1_555
C15 C14 1_555 1_555
C16 C15 1_555 1_555
H10 C16 1_555 1_555
C17 C16 1_555 1_555
H11 C17 1_555 1_555
C18 C13 1_555 1_555
H12 C18 1_555 1_555
C19 C13 1_555 1_555
C20 C15 1_555 1_555
N1 C7 1_555 1_555
N2 C7 1_555 1_555
H13 N2 1_555 1_555
N3 C10 1_555 1_555
H14 N3 1_555 1_555
N4 C10 1_555 1_555
O1 C19 1_555 1_555
O2 C19 1_555 1_555
O3 Cd1 1_555 1_555
O4 Cd1 1_555 1_555
Cd1_2 O1 1_555 1_555
Cd1A N1 1_555 1_555
Cd1A_2 O2 1_555 1_555
N1A Cd1 1_555 1_555
O1_2 Cd1 1_555 1_555
O2_2 Cd1 1_555 1_555
O2A Cd1 1_555 1_555
C5 C6 1_555 1_555
C8 C9 1_555 1_555
C8 N2 1_555 1_555
C9 N1 1_555 1_555
C11 C12 1_555 1_555
C11 N4 1_555 1_555
C12 N3 1_555 1_555
C17 C18 1_555 1_555
C20 O3 1_555 1_555
C20 O4 1_555 1_555
O2 Cd1_2 1_555 1_555

#END
