
#######################################################################
#
#                 Cambridge Crystallographic Data Centre
#                                CCDC 
#
#######################################################################
#
# If this CIF has been generated from an entry in the Cambridge 
# Structural Database, then it will include bibliographic, chemical, 
# crystal, experimental, refinement or atomic coordinate data resulting 
# from the CCDC's data processing and validation procedures.
#
#######################################################################

data_XOHBON
_symmetry_cell_setting           triclinic
_symmetry_space_group_name_H-M   'P -1'
_symmetry_Int_Tables_number      2
_space_group_name_Hall           '-P 1'
loop_
_symmetry_equiv_pos_site_id
_symmetry_equiv_pos_as_xyz
1 x,y,z
2 -x,-y,-z
_cell_length_a                   9.8679(8)
_cell_length_b                   10.2786(7)
_cell_length_c                   10.6037(8)
_cell_angle_alpha                90.5100(10)
_cell_angle_beta                 108.4710(10)
_cell_angle_gamma                106.379(3)
_cell_volume                     972.989
loop_
_atom_site_label
_atom_site_type_symbol
_atom_site_fract_x
_atom_site_fract_y
_atom_site_fract_z
Zn1 Zn 0.60273(3) 0.71295(3) 0.52084(3)
Zn2 Zn 0.47306(3) 0.56965(3) 0.19938(3)
C1 C -0.2470(3) 0.0204(3) -0.0183(3)
C2 C -0.1118(3) 0.1227(3) 0.0124(3)
H1 H -0.0346 0.1251 0.0912
C3 C -0.0904(3) 0.2224(3) -0.0742(3)
C4 C -0.2070(3) 0.2177(3) -0.1924(3)
H2 H -0.1935 0.2831 -0.2509
C5 C -0.3421(3) 0.1165(3) -0.2227(3)
H3 H -0.4195 0.1146 -0.3011
C6 C -0.3627(3) 0.0185(3) -0.1373(3)
H4 H -0.4540 -0.0496 -0.1587
C7 C 0.0490(3) 0.3341(3) -0.0384(2)
C8 C 0.1821(3) 0.3559(3) 0.0628(3)
H5 H 0.2047 0.2953 0.1249
C9 C 0.2036(3) 0.5349(3) -0.0440(3)
H6 H 0.2410 0.6202 -0.0697
C10 C -0.2776(3) -0.0875(3) 0.0680(3)
C11 C -0.4071(3) -0.1883(3) 0.0528(3)
H7 H -0.4969 -0.2002 -0.0165
C12 C -0.2468(3) -0.2192(3) 0.2297(3)
H8 H -0.2012 -0.2552 0.3062
C13 C 0.7061(3) 0.2986(3) 0.3680(2)
C14 C 0.6812(3) 0.1762(2) 0.4269(2)
H9 H 0.5859 0.1305 0.4283
C15 C 0.7993(3) 0.1238(3) 0.4831(2)
C16 C 0.9402(3) 0.1902(2) 0.4762(2)
H10 H 1.0186 0.1536 0.5121
C17 C 0.9656(3) 0.3113(2) 0.4160(2)
C18 C 0.8477(3) 0.3642(3) 0.3636(2)
H11 H 0.8638 0.4455 0.3247
C19 C 0.5817(3) 0.3572(3) 0.3048(2)
C20 C 0.7775(3) -0.0080(3) 0.5474(3)
C21 C 1.1181(3) 0.3794(3) 0.4062(2)
N1 N -0.1764(3) -0.1082(2) 0.1831(2)
H12 H -0.0847 -0.0591 0.2189
N2 N -0.3858(3) -0.2700(2) 0.1552(2)
N3 N 0.0670(2) 0.4491(2) -0.1060(2)
H13 H 0.0014 0.4628 -0.1760
N4 N 0.2785(2) 0.4823(2) 0.0589(2)
O1 O 0.6078(2) 0.45204(19) 0.23300(19)
O2 O 0.4551(2) 0.31129(19) 0.31948(18)
O3 O 0.6475(2) -0.09413(19) 0.49489(19)
O4 O 0.8811(2) -0.0264(2) 0.64016(19)
O5 O 1.1338(2) 0.4690(2) 0.32984(19)
O6 O 1.2242(2) 0.34053(19) 0.48248(19)
O7 O 0.4456(2) 0.61323(19) 0.36418(18)
H14 H 0.3642 0.5733 0.3728
Zn1_2 Zn 0.60273(3) -0.28705(3) 0.52084(3)
Zn1A Zn 0.39727(3) 0.28705(3) 0.47916(3)
Zn1A_2 Zn 1.39727(3) 0.28705(3) 0.47916(3)
Zn2_2 Zn -0.52694(3) -0.43035(3) 0.19938(3)
N2_2 N 0.6142(3) 0.7300(2) 0.1552(2)
O2A O 0.5449(2) 0.68871(19) 0.68052(18)
O3_2 O 0.6475(2) 0.90587(19) 0.49489(19)
O6A O 0.7758(2) 0.65947(19) 0.51752(19)
loop_
_geom_bond_atom_site_label_1
_geom_bond_atom_site_label_2
_geom_bond_site_symmetry_1
_geom_bond_site_symmetry_2
Zn1 O7 1_555 1_555
Zn2 N4 1_555 1_555
C1 C2 1_555 1_555
C2 H1 1_555 1_555
C3 C2 1_555 1_555
C4 C3 1_555 1_555
H2 C4 1_555 1_555
C5 C4 1_555 1_555
H3 C5 1_555 1_555
C6 C1 1_555 1_555
H4 C6 1_555 1_555
C7 C3 1_555 1_555
C8 C7 1_555 1_555
H5 C8 1_555 1_555
C9 H6 1_555 1_555
C10 C1 1_555 1_555
C11 C10 1_555 1_555
H7 C11 1_555 1_555
C12 H8 1_555 1_555
C13 C14 1_555 1_555
C14 H9 1_555 1_555
C15 C14 1_555 1_555
C16 C15 1_555 1_555
H10 C16 1_555 1_555
C17 C16 1_555 1_555
C18 C13 1_555 1_555
H11 C18 1_555 1_555
C19 C13 1_555 1_555
C20 C15 1_555 1_555
C21 C17 1_555 1_555
N1 C10 1_555 1_555
H12 N1 1_555 1_555
N2 C11 1_555 1_555
N3 C7 1_555 1_555
H13 N3 1_555 1_555
N4 C8 1_555 1_555
O1 Zn2 1_555 1_555
O2 C19 1_555 1_555
O3 C20 1_555 1_555
O4 C20 1_555 1_555
O5 C21 1_555 1_555
O6 C21 1_555 1_555
O7 Zn2 1_555 1_555
H14 O7 1_555 1_555
Zn1_2 O3 1_555 1_555
Zn1A O2 1_555 1_555
Zn1A_2 O6 1_555 1_555
Zn2_2 N2 1_555 1_555
N2_2 Zn2 1_555 1_555
O2A Zn1 1_555 1_555
O3_2 Zn1 1_555 1_555
O6A Zn1 1_555 1_555
C5 C6 1_555 1_555
C9 N3 1_555 1_555
C9 N4 1_555 1_555
C12 N1 1_555 1_555
C12 N2 1_555 1_555
C17 C18 1_555 1_555
C19 O1 1_555 1_555

#END
