
#######################################################################
#
#                 Cambridge Crystallographic Data Centre
#                                CCDC 
#
#######################################################################
#
# If this CIF has been generated from an entry in the Cambridge 
# Structural Database, then it will include bibliographic, chemical, 
# crystal, experimental, refinement or atomic coordinate data resulting 
# from the CCDC's data processing and validation procedures.
#
#######################################################################

data_XOHBED
_symmetry_cell_setting           triclinic
_symmetry_space_group_name_H-M   'P -1'
_symmetry_Int_Tables_number      2
_space_group_name_Hall           '-P 1'
loop_
_symmetry_equiv_pos_site_id
_symmetry_equiv_pos_as_xyz
1 x,y,z
2 -x,-y,-z
_cell_length_a                   8.8319(10)
_cell_length_b                   9.7098(10)
_cell_length_c                   11.5626(13)
_cell_angle_alpha                106.277(2)
_cell_angle_beta                 92.356(2)
_cell_angle_gamma                111.188(2)
_cell_volume                     876.169
loop_
_atom_site_label
_atom_site_type_symbol
_atom_site_fract_x
_atom_site_fract_y
_atom_site_fract_z
Zn1 Zn 0.11365(4) 0.56807(4) -0.15918(3)
C1 C 0.7254(4) 0.6555(4) 0.3767(3)
C2 C 0.6315(4) 0.6308(4) 0.2675(3)
H1 H 0.5858 0.5316 0.2107
C3 C 0.6058(4) 0.7529(4) 0.2430(3)
C4 C 0.6738(4) 0.9000(4) 0.3286(3)
H2 H 0.6573 0.9825 0.3123
C5 C 0.7653(4) 0.9261(4) 0.4375(3)
H3 H 0.8094 1.0251 0.4947
C6 C 0.7913(4) 0.8035(4) 0.4613(3)
H4 H 0.8534 0.8206 0.5347
C7 C 0.8336(4) 0.3368(4) 0.3850(3)
H5 H 0.8712 0.2581 0.3535
C8 C 0.7506(5) 0.4957(4) 0.5113(3)
H6 H 0.7194 0.5466 0.5811
C9 C 0.7584(4) 0.5294(4) 0.4046(3)
C10 C 0.4361(4) 0.7975(4) -0.0244(3)
H7 H 0.4400 0.8530 -0.0787
C11 C 0.3581(4) 0.6239(3) 0.0654(3)
H8 H 0.2956 0.5349 0.0839
C12 C 0.5055(4) 0.7300(3) 0.1283(3)
C13 C -0.0986(4) -0.1174(3) -0.1746(3)
C14 C -0.0425(4) 0.0372(3) -0.1731(3)
H9 H 0.0665 0.1033 -0.1414
C15 C -0.1475(4) 0.0927(3) -0.2183(3)
C16 C -0.3099(4) -0.0055(4) -0.2647(3)
H10 H -0.3797 0.0304 -0.2984
C17 C -0.3686(4) -0.1562(4) -0.2614(3)
H11 H -0.4788 -0.2205 -0.2898
C18 C -0.2636(4) -0.2120(4) -0.2155(3)
H12 H -0.3039 -0.3133 -0.2122
C19 C 0.0201(4) -0.1862(3) -0.1447(3)
C20 C -0.0877(4) 0.2557(4) -0.2259(3)
N1 N 0.8099(3) 0.4266(3) 0.3239(2)
N2 N 0.7970(4) 0.3737(3) 0.4966(3)
H13 H 0.8018 0.3286 0.5500
N3 N 0.5542(3) 0.8401(3) 0.0695(2)
H14 H 0.6442 0.9216 0.0896
N4 N 0.3139(3) 0.6674(3) -0.0305(2)
O1 O 0.1693(3) -0.1081(2) -0.1221(2)
O2 O -0.0430(3) -0.3305(2) -0.1530(2)
O3 O -0.1546(3) 0.2799(3) -0.3101(2)
O4 O 0.0286(3) 0.3601(2) -0.1440(2)
Zn1_2 Zn 0.11365(4) -0.43193(4) -0.15918(3)
Zn1A Zn 0.88635(4) 0.43193(4) 0.15918(3)
N1A N 0.1901(3) 0.5734(3) -0.3239(2)
O2_2 O -0.0430(3) 0.6695(2) -0.1530(2)
loop_
_geom_bond_atom_site_label_1
_geom_bond_atom_site_label_2
_geom_bond_site_symmetry_1
_geom_bond_site_symmetry_2
Zn1 N4 1_555 1_555
C1 C2 1_555 1_555
C2 H1 1_555 1_555
C3 C2 1_555 1_555
C4 C3 1_555 1_555
H2 C4 1_555 1_555
C5 C4 1_555 1_555
H3 C5 1_555 1_555
C6 C1 1_555 1_555
H4 C6 1_555 1_555
C7 H5 1_555 1_555
C8 H6 1_555 1_555
C9 C1 1_555 1_555
C10 H7 1_555 1_555
C11 H8 1_555 1_555
C12 C3 1_555 1_555
C13 C14 1_555 1_555
C14 H9 1_555 1_555
C15 C14 1_555 1_555
C16 C15 1_555 1_555
H10 C16 1_555 1_555
C17 C16 1_555 1_555
H11 C17 1_555 1_555
C18 C13 1_555 1_555
H12 C18 1_555 1_555
C19 C13 1_555 1_555
C20 C15 1_555 1_555
N1 C7 1_555 1_555
N2 C7 1_555 1_555
H13 N2 1_555 1_555
N3 C10 1_555 1_555
H14 N3 1_555 1_555
N4 C10 1_555 1_555
O1 C19 1_555 1_555
O2 C19 1_555 1_555
O3 C20 1_555 1_555
O4 Zn1 1_555 1_555
Zn1_2 O2 1_555 1_555
Zn1A N1 1_555 1_555
N1A Zn1 1_555 1_555
O2_2 Zn1 1_555 1_555
C5 C6 1_555 1_555
C8 C9 1_555 1_555
C8 N2 1_555 1_555
C9 N1 1_555 1_555
C11 C12 1_555 1_555
C11 N4 1_555 1_555
C12 N3 1_555 1_555
C17 C18 1_555 1_555
C20 O4 1_555 1_555

#END
