
#######################################################################
#
#                 Cambridge Crystallographic Data Centre
#                                CCDC 
#
#######################################################################
#
# If this CIF has been generated from an entry in the Cambridge 
# Structural Database, then it will include bibliographic, chemical, 
# crystal, experimental, refinement or atomic coordinate data resulting 
# from the CCDC's data processing and validation procedures.
#
#######################################################################

data_XOHCAA
_symmetry_cell_setting           monoclinic
_symmetry_space_group_name_H-M   'P 21/c'
_symmetry_Int_Tables_number      14
_space_group_name_Hall           '-P 2ybc'
loop_
_symmetry_equiv_pos_site_id
_symmetry_equiv_pos_as_xyz
1 x,y,z
2 -x,1/2+y,1/2-z
3 -x,-y,-z
4 x,1/2-y,1/2+z
_cell_length_a                   16.6011(12)
_cell_length_b                   16.2848(12)
_cell_length_c                   19.7529(10)
_cell_angle_alpha                90
_cell_angle_beta                 118.741(4)
_cell_angle_gamma                90
_cell_volume                     4682.22
loop_
_atom_site_label
_atom_site_type_symbol
_atom_site_fract_x
_atom_site_fract_y
_atom_site_fract_z
Cd1 Cd 0.14695(6) 0.78294(6) 0.22875(5)
Cd2 Cd 0.36519(5) 0.86215(6) 0.22719(5)
Cd3 Cd 0.29775(6) 0.43719(6) 0.56979(5)
C1 C 0.1208(8) 1.0077(9) 0.5468(7)
C2 C 0.1270(8) 0.9782(8) 0.4832(7)
H1 H 0.1316 0.9218 0.4785
C3 C 0.1267(8) 1.0280(8) 0.4278(7)
C4 C 0.1167(9) 1.1124(8) 0.4329(8)
H2 H 0.1132 1.1474 0.3943
C5 C 0.1123(10) 1.1426(10) 0.4953(8)
H3 H 0.1082 1.1991 0.4999
C6 C 0.1136(9) 1.0917(9) 0.5523(8)
H4 H 0.1096 1.1140 0.5940
C7 C 0.1251(9) 0.9062(9) 0.7099(7)
H5 H 0.1227 0.9068 0.7560
C8 C 0.1344(9) 0.8678(8) 0.6120(8)
H6 H 0.1394 0.8339 0.5763
C9 C 0.1261(7) 0.9498(8) 0.6050(6)
C10 C 0.1465(11) 0.9772(10) 0.2584(7)
H7 H 0.1486 0.9909 0.2136
C11 C 0.1424(9) 0.9110(9) 0.3484(7)
H8 H 0.1428 0.8677 0.3792
C12 C 0.1340(9) 0.9908(9) 0.3625(7)
C13 C 0.3607(8) 1.0904(8) 0.5911(7)
C14 C 0.3731(8) 1.0772(8) 0.5275(7)
H9 H 0.3800 1.1220 0.5015
C15 C 0.3754(8) 0.9994(8) 0.5021(7)
C16 C 0.3693(9) 0.9333(9) 0.5427(8)
H10 H 0.3718 0.8803 0.5262
C17 C 0.3599(9) 0.9442(9) 0.6065(8)
H11 H 0.3565 0.8990 0.6337
C18 C 0.3553(8) 1.0228(9) 0.6312(7)
H12 H 0.3486 1.0301 0.6749
C19 C 0.3434(11) 1.2461(10) 0.5764(9)
H13 H 0.3402 1.2501 0.5282
C20 C 0.3492(10) 1.2812(9) 0.6796(9)
H14 H 0.3516 1.3117 0.7203
C21 C 0.3559(9) 1.1751(9) 0.6142(7)
C22 C 0.3983(11) 1.0191(10) 0.3307(8)
H15 H 0.4071 1.0505 0.2955
C23 C 0.3781(8) 0.9197(8) 0.3901(7)
H16 H 0.3700 0.8667 0.4033
C24 C 0.3836(8) 0.9874(8) 0.4312(7)
C25 C 0.4717(8) 0.4996(8) 0.3455(6)
C26 C 0.4493(7) 0.5799(7) 0.3192(6)
H17 H 0.4759 0.6046 0.2923
C27 C 0.3872(8) 0.6227(8) 0.3333(7)
C28 C 0.3510(8) 0.5878(8) 0.3768(7)
H18 H 0.3097 0.6174 0.3865
C29 C 0.3762(8) 0.5090(9) 0.4061(7)
C30 C 0.4357(7) 0.4666(8) 0.3896(7)
H19 H 0.4526 0.4136 0.4088
C31 C 0.5346(6) 0.4532(7) 0.3250(6)
C32 C 0.3601(8) 0.7085(8) 0.2994(7)
C33 C 0.3445(8) 0.4762(10) 0.4593(7)
C34 C 0.0335(8) 0.8217(8) -0.1173(6)
C35 C 0.1138(8) 0.8212(8) -0.0478(7)
H20 H 0.1680 0.8032 -0.0460
C36 C 0.1146(8) 0.8470(8) 0.0187(7)
C37 C 0.0350(8) 0.8763(7) 0.0165(7)
H21 H 0.0356 0.8937 0.0616
C38 C -0.0447(7) 0.8794(7) -0.0525(6)
C39 C -0.0467(9) 0.8504(8) -0.1193(7)
H22 H -0.1016 0.8500 -0.1655
C40 C 0.0321(9) 0.7898(9) -0.1903(7)
C41 C 0.2005(8) 0.8458(7) 0.0926(7)
C42 C -0.1308(8) 0.9099(9) -0.0540(8)
N1 N 0.1188(8) 0.9735(7) 0.6685(6)
N2 N 0.1349(7) 0.8396(6) 0.6776(5)
N3 N 0.1390(10) 1.0315(8) 0.3054(6)
N4 N 0.1504(6) 0.9019(7) 0.2832(5)
H23 H 0.1383 1.0834 0.3003
H24 H 0.1122 1.0225 0.6798
N5 N 0.3591(11) 1.1988(9) 0.6796(8)
H25 H 0.3664 1.1665 0.7165
N6 N 0.3360(7) 1.3111(7) 0.6148(6)
N7 N 0.3965(9) 1.0491(8) 0.3911(7)
H26 H 0.4033 1.1001 0.4040
N8 N 0.3862(7) 0.9396(7) 0.3255(6)
O1 O 0.5153(5) 0.3806(5) 0.3030(5)
O2 O 0.6020(5) 0.4891(5) 0.3263(5)
O3 O 0.3973(7) 0.7361(6) 0.2639(6)
O4 O 0.3014(6) 0.7478(6) 0.3109(5)
O5 O 0.3064(7) 0.5222(8) 0.4856(6)
O6 O 0.3589(6) 0.4037(6) 0.4800(5)
O7 O 0.1073(6) 0.7744(6) -0.1862(5)
O8 O -0.0427(7) 0.7836(10) -0.2488(6)
O9 O 0.2773(6) 0.8351(7) 0.0946(6)
O10 O 0.2003(5) 0.8552(5) 0.1564(4)
O11 O -0.1393(6) 0.9031(8) 0.0051(5)
O12 O -0.1928(6) 0.9390(6) -0.1151(5)
O13 O -0.0150(7) 0.8055(7) 0.1460(6)
H27 H -0.0232 0.8540 0.1280
H28 H -0.0431 0.7997 0.1721
Cd1C Cd 0.14695(6) 0.71706(6) -0.27125(5)
Cd1C_2 Cd 0.14695(6) 0.71706(6) 0.72875(5)
Cd2A Cd 0.63481(5) 0.36215(6) 0.27281(5)
Cd3_2 Cd 0.29775(6) 1.43719(6) 0.56979(5)
Cd3A Cd -0.29775(6) 0.93719(6) -0.06979(5)
Cd3B Cd 0.70225(6) 0.56281(6) 0.43021(5)
N2C N 0.1349(7) 0.6604(6) 0.1776(5)
N6_2 N 0.3360(7) 0.3111(7) 0.6148(6)
O1A O 0.4847(5) 0.8806(5) 0.1970(5)
O2A O 0.3980(5) 0.9891(5) 0.1737(5)
O2B O 0.3980(5) 0.5109(5) 0.6737(5)
O7C O 0.1073(6) 0.7256(6) 0.3138(5)
O11A O 0.1393(6) 0.4031(8) 0.4949(5)
O12A O 0.1928(6) 0.4390(6) 0.6151(5)
O14 O 0.3769(11) 0.7811(10) 0.0190(10)
O15 O 0.1240(14) 0.1205(11) 0.7488(9)
O16 O 0.434(2) 0.2680(15) 0.923(2)
O17 O 0.259(3) 0.233(4) 0.329(3)
O18 O 0.1096(11) 0.0131(11) 0.8509(8)
loop_
_geom_bond_atom_site_label_1
_geom_bond_atom_site_label_2
_geom_bond_site_symmetry_1
_geom_bond_site_symmetry_2
Cd1 N4 1_555 1_555
Cd2 N8 1_555 1_555
Cd3 O5 1_555 1_555
C1 C2 1_555 1_555
C2 H1 1_555 1_555
C3 C2 1_555 1_555
C4 C3 1_555 1_555
H2 C4 1_555 1_555
C5 C4 1_555 1_555
H3 C5 1_555 1_555
C6 C1 1_555 1_555
H4 C6 1_555 1_555
C7 H5 1_555 1_555
C8 H6 1_555 1_555
C9 C1 1_555 1_555
C10 H7 1_555 1_555
C11 H8 1_555 1_555
C12 C3 1_555 1_555
C13 C14 1_555 1_555
C14 H9 1_555 1_555
C15 C14 1_555 1_555
C16 C15 1_555 1_555
H10 C16 1_555 1_555
C17 C16 1_555 1_555
H11 C17 1_555 1_555
C18 C13 1_555 1_555
H12 C18 1_555 1_555
C19 H13 1_555 1_555
C20 H14 1_555 1_555
C21 C13 1_555 1_555
C22 H15 1_555 1_555
C23 H16 1_555 1_555
C24 C15 1_555 1_555
C25 C26 1_555 1_555
C26 H17 1_555 1_555
C27 C26 1_555 1_555
C28 C27 1_555 1_555
H18 C28 1_555 1_555
C29 C28 1_555 1_555
C30 C25 1_555 1_555
H19 C30 1_555 1_555
C31 C25 1_555 1_555
C32 C27 1_555 1_555
C33 C29 1_555 1_555
C34 C35 1_555 1_555
C35 H20 1_555 1_555
C36 C35 1_555 1_555
C37 C36 1_555 1_555
H21 C37 1_555 1_555
C38 C37 1_555 1_555
C39 C34 1_555 1_555
H22 C39 1_555 1_555
C40 C34 1_555 1_555
C41 C36 1_555 1_555
C42 C38 1_555 1_555
N1 C7 1_555 1_555
N2 C7 1_555 1_555
N3 C10 1_555 1_555
N4 C10 1_555 1_555
H23 N3 1_555 1_555
H24 N1 1_555 1_555
N5 C20 1_555 1_555
H25 N5 1_555 1_555
N6 C19 1_555 1_555
N7 C22 1_555 1_555
H26 N7 1_555 1_555
N8 C22 1_555 1_555
O1 C31 1_555 1_555
O2 C31 1_555 1_555
O3 Cd2 1_555 1_555
O4 Cd1 1_555 1_555
O5 C33 1_555 1_555
O6 Cd3 1_555 1_555
O7 C40 1_555 1_555
O8 C40 1_555 1_555
O9 Cd2 1_555 1_555
O10 Cd1 1_555 1_555
O11 C42 1_555 1_555
O12 C42 1_555 1_555
O13 Cd1 1_555 1_555
H27 O13 1_555 1_555
H28 O13 1_555 1_555
Cd1C O7 1_555 1_555
Cd1C_2 N2 1_555 1_555
Cd2A O1 1_555 1_555
Cd3_2 N6 1_555 1_555
Cd3A O11 1_555 1_555
Cd3B O2 1_555 1_555
N2C Cd1 1_555 1_555
N6_2 Cd3 1_555 1_555
O1A Cd2 1_555 1_555
O2A Cd2 1_555 1_555
O2B Cd3 1_555 1_555
O7C Cd1 1_555 1_555
O11A Cd3 1_555 1_555
O12A Cd3 1_555 1_555
Cd2 O10 1_555 1_555
C5 C6 1_555 1_555
C8 C9 1_555 1_555
C8 N2 1_555 1_555
C9 N1 1_555 1_555
C11 C12 1_555 1_555
C11 N4 1_555 1_555
C12 N3 1_555 1_555
C17 C18 1_555 1_555
C19 C21 1_555 1_555
C20 N6 1_555 1_555
C21 N5 1_555 1_555
C23 C24 1_555 1_555
C23 N8 1_555 1_555
C24 N7 1_555 1_555
C29 C30 1_555 1_555
C32 O3 1_555 1_555
C32 O4 1_555 1_555
C33 O6 1_555 1_555
C38 C39 1_555 1_555
C41 O9 1_555 1_555
C41 O10 1_555 1_555
O2 Cd2A 1_555 1_555
O12 Cd3A 1_555 1_555

#END
