
#######################################################################
#
#                 Cambridge Crystallographic Data Centre
#                                CCDC 
#
#######################################################################
#
# If this CIF has been generated from an entry in the Cambridge 
# Structural Database, then it will include bibliographic, chemical, 
# crystal, experimental, refinement or atomic coordinate data resulting 
# from the CCDC's data processing and validation procedures.
#
#######################################################################

data_XOHGUX
_symmetry_cell_setting           monoclinic
_symmetry_space_group_name_H-M   'P 21/n'
_symmetry_Int_Tables_number      14
_space_group_name_Hall           '-P 2yn'
loop_
_symmetry_equiv_pos_site_id
_symmetry_equiv_pos_as_xyz
1 x,y,z
2 1/2-x,1/2+y,1/2-z
3 -x,-y,-z
4 1/2+x,1/2-y,1/2+z
_cell_length_a                   15.7837(5)
_cell_length_b                   24.1950(7)
_cell_length_c                   21.4063(7)
_cell_angle_alpha                90
_cell_angle_beta                 95.252(2)
_cell_angle_gamma                90
_cell_volume                     8140.46
loop_
_atom_site_label
_atom_site_type_symbol
_atom_site_fract_x
_atom_site_fract_y
_atom_site_fract_z
W1 W 0.58898(4) 0.31951(3) 0.36180(3)
W2 W 0.58666(4) 0.10103(3) 0.21913(3)
W3 W 0.35067(4) 0.31714(3) 0.34967(3)
W4 W 0.58187(4) 0.30751(3) 0.20433(3)
W5 W 0.37132(5) 0.10733(3) 0.37834(3)
W6 W 0.36554(4) 0.09544(3) 0.20557(3)
W7 W 0.59010(4) 0.11596(3) 0.38982(3)
W8 W 0.46644(5) 0.19054(3) 0.12123(3)
W9 W 0.24544(4) 0.20750(3) 0.27717(3)
W10 W 0.47242(5) 0.21789(3) 0.45206(3)
W11 W 0.34470(5) 0.30157(3) 0.19012(3)
P1 P 0.4699(2) 0.20908(15) 0.28692(16)
Cu1 Cu 0.68244(13) 0.21741(7) 0.29690(9)
Cu2 Cu 0.01813(14) 0.15111(8) 0.29743(10)
Cu3 Cu 1.02933(14) 0.28469(8) 0.25306(9)
Cu4 Cu 0.81086(13) 0.14316(8) 0.23497(10)
Cu5 Cu 0.79977(14) 0.28383(8) 0.43922(9)
Cu6 Cu 0.80173(14) 0.28591(8) 0.19144(9)
O1 O 0.2997(8) 0.0429(5) 0.1781(6)
O2 O 0.2903(8) 0.1624(4) 0.3436(6)
O3 O 0.3059(8) 0.0607(5) 0.4111(6)
O4 O 0.2870(7) 0.1531(4) 0.2240(5)
O5 O 0.2477(7) 0.2588(4) 0.2091(6)
O6 O 0.1379(8) 0.1920(5) 0.2740(6)
O7 O 0.4570(8) 0.3228(5) 0.2000(5)
O8 O 0.3005(8) 0.3453(5) 0.1335(6)
O9 O 0.6793(7) 0.2699(5) 0.2256(5)
O10 O 0.6658(6) 0.1544(4) 0.2375(5)
O11 O 0.3942(8) 0.1572(5) 0.4459(5)
O12 O 0.5602(7) 0.1619(4) 0.4564(5)
O13 O 0.4721(8) 0.2361(5) 0.5287(6)
O14 O 0.6570(8) 0.0720(5) 0.4320(6)
O15 O 0.3853(7) 0.2413(4) 0.2800(5)
O16 O 0.4732(7) 0.1684(4) 0.2333(5)
O17 O 0.5428(7) 0.2492(4) 0.2875(5)
O18 O 0.4752(7) 0.1775(4) 0.3485(5)
O19 O 0.5927(7) 0.3517(4) 0.2793(5)
O20 O 0.4716(7) 0.0627(4) 0.2037(5)
O21 O 0.3849(7) 0.2631(5) 0.4123(5)
O22 O 0.4641(7) 0.3346(4) 0.3502(5)
O23 O 0.5529(7) 0.2687(5) 0.4214(5)
O24 O 0.3799(7) 0.2409(4) 0.1430(5)
O25 O 0.5780(7) 0.0872(4) 0.3058(5)
O26 O 0.3860(8) 0.1320(5) 0.1289(5)
O27 O 0.6890(7) 0.2818(4) 0.3577(5)
O28 O 0.4810(7) 0.0791(5) 0.3997(5)
O29 O 0.5431(7) 0.2465(5) 0.1504(5)
O30 O 0.3718(8) 0.0840(5) 0.2950(5)
O31 O 0.2505(7) 0.2693(5) 0.3325(5)
N1 N 1.0761(9) 0.3445(6) 0.2032(6)
N2 N 1.0698(9) 0.3340(5) 0.3232(6)
C1 C 1.1063(11) 0.3832(8) 0.3032(9)
C2 C 1.1084(13) 0.3869(6) 0.2364(10)
O32 O 0.4626(9) 0.1965(5) 0.0421(6)
O33 O 0.6636(7) 0.1673(4) 0.3649(5)
O34 O 0.6464(8) 0.0459(5) 0.1967(6)
O35 O 0.3122(9) 0.3687(5) 0.3934(7)
O36 O 0.5516(8) 0.1360(5) 0.1378(5)
O37 O 0.6133(8) 0.3539(5) 0.1500(5)
O38 O 0.6201(7) 0.3743(4) 0.4084(5)
O39 O 0.3269(8) 0.3425(5) 0.2651(6)
P2 P 0.8832(3) 0.24489(16) 0.31809(19)
P3 P 0.9399(3) 0.19499(18) 0.1688(2)
O40 O 0.9769(7) 0.2279(4) 0.3068(5)
N3 N 0.0290(10) 0.1342(6) 0.3902(8)
N4 N 0.0615(12) 0.0741(6) 0.2932(8)
C3 C 0.0800(15) 0.0491(9) 0.3478(12)
C4 C 0.0574(14) 0.0817(8) 0.4032(9)
N5 N 0.8224(9) 0.0765(5) 0.2879(7)
N6 N 0.8123(10) 0.0852(6) 0.1665(8)
C5 C 0.8340(12) 0.0283(6) 0.2576(10)
C6 C 0.8083(14) 0.0949(8) 0.1054(9)
H1 H 0.7955 0.1306 0.0913
C7 C 0.8228(12) 0.0756(8) 0.3501(10)
H2 H 0.8193 0.1085 0.3722
C8 C 0.8332(12) 0.0356(7) 0.1883(9)
O41 O 0.8466(7) 0.2032(4) 0.1808(5)
C9 C 1.0697(13) 0.3462(7) 0.1420(9)
H3 H 1.0413 0.3177 0.1197
C10 C 1.1053(13) 0.3911(8) 0.1075(9)
H4 H 1.1048 0.3911 0.0640
C11 C 0.0077(13) 0.1666(8) 0.4363(8)
H5 H -0.0090 0.2027 0.4271
C12 C 1.0788(14) 0.3682(8) 0.4280(9)
H6 H 1.0662 0.3632 0.4693
C13 C 1.1174(17) 0.4143(9) 0.4103(10)
H7 H 1.1355 0.4409 0.4399
C14 C 1.1406(14) 0.4344(7) 0.1448(9)
H8 H 1.1631 0.4647 0.1253
C15 C 1.1302(15) 0.4222(9) 0.3485(11)
H9 H 1.1557 0.4548 0.3368
C16 C 1.0584(13) 0.3285(8) 0.3831(9)
H10 H 1.0350 0.2956 0.3959
C17 C 0.8530(16) -0.0075(9) 0.1498(13)
H11 H 0.8704 -0.0418 0.1658
C18 C 0.8220(16) 0.0553(10) 0.0621(11)
H12 H 0.8163 0.0621 0.0192
C19 C 0.8285(15) 0.0239(9) 0.3831(12)
H13 H 0.8252 0.0225 0.4262
C20 C 0.8450(14) -0.0217(8) 0.2866(11)
H14 H 0.8563 -0.0536 0.2645
O42 O 0.8607(7) 0.2928(4) 0.2728(5)
O43 O 0.8239(7) 0.1950(4) 0.3064(5)
O44 O 0.8852(7) 0.2654(4) 0.3857(5)
O45 O 0.9752(7) 0.1472(4) 0.2099(5)
O46 O 0.9451(9) 0.1768(5) 0.0991(6)
N7 N 0.7534(10) 0.2836(6) 0.1041(7)
N8 N 0.8361(10) 0.3631(6) 0.1659(8)
C21 C 0.8211(13) 0.3703(7) 0.1031(9)
C22 C 0.8802(13) 0.3996(8) 0.2033(10)
H15 H 0.8906 0.3931 0.2461
C23 C 0.124(2) -0.0306(11) 0.2986(16)
H16 H 0.1424 -0.0670 0.3001
C24 C 0.0097(16) 0.1485(10) 0.4968(11)
H17 H -0.0094 0.1717 0.5272
C25 C 0.0729(17) 0.0486(8) 0.2392(12)
H18 H 0.0595 0.0662 0.2009
C26 C 0.114(2) -0.0036(11) 0.3518(13)
H19 H 0.1306 -0.0197 0.3906
C27 C 0.0631(19) 0.0636(11) 0.4639(13)
H20 H 0.0834 0.0281 0.4729
C28 C 1.1429(15) 0.4339(8) 0.2069(12)
H21 H 1.1663 0.4632 0.2306
C29 C 0.8457(18) 0.0030(10) 0.0879(16)
H22 H 0.8568 -0.0255 0.0606
C30 C 0.8386(19) -0.0225(10) 0.3500(15)
H23 H 0.8413 -0.0562 0.3708
O47 O 0.7754(10) 0.2052(5) 0.4540(6)
H24 H 0.7267 0.2020 0.4640
N9 N 0.7404(10) 0.3081(6) 0.5116(7)
C31 C 0.8650(12) 0.3880(7) 0.3899(9)
H25 H 0.8821 0.3668 0.3571
N10 N 0.8225(9) 0.3650(6) 0.4329(7)
C32 C 0.6921(12) 0.2788(8) 0.5460(8)
H26 H 0.6874 0.2411 0.5376
C33 C 0.7966(12) 0.3920(8) 0.4810(9)
C34 C 0.6496(12) 0.2985(10) 0.5918(9)
H27 H 0.6185 0.2750 0.6154
C35 C 0.7459(10) 0.3623(8) 0.5230(8)
C36 C 0.8844(15) 0.4435(8) 0.3932(11)
H28 H 0.9103 0.4604 0.3608
C37 C 0.8225(17) 0.4484(9) 0.4907(13)
H29 H 0.8114 0.4677 0.5266
C38 C 0.6523(12) 0.3543(10) 0.6039(10)
H30 H 0.6228 0.3690 0.6357
C39 C 0.8658(18) 0.4732(10) 0.4430(13)
H31 H 0.8815 0.5102 0.4462
C40 C 0.0391(18) 0.0971(11) 0.5136(11)
H32 H 0.0431 0.0849 0.5550
C41 C 0.6987(14) 0.3878(10) 0.5688(10)
H33 H 0.6995 0.4259 0.5746
C42 C 0.106(2) -0.0052(12) 0.2416(15)
H34 H 0.1152 -0.0237 0.2048
C43 C 0.7675(12) 0.3290(8) 0.0690(8)
C44 C 0.9020(19) 0.4551(10) 0.1128(15)
H35 H 0.9268 0.4849 0.0940
C45 C 0.8544(16) 0.4157(9) 0.0762(11)
H36 H 0.8455 0.4207 0.0330
C46 C 0.7105(14) 0.2407(9) 0.0784(10)
H37 H 0.6981 0.2107 0.1031
C47 C 0.9109(15) 0.4490(8) 0.1757(13)
H38 H 0.9368 0.4765 0.2011
C48 C 0.7411(13) 0.3316(13) 0.0062(10)
H39 H 0.7483 0.3635 -0.0169
C49 C 0.7034(19) 0.2849(14) -0.0216(10)
H40 H 0.6911 0.2835 -0.0649
C50 C 0.6842(17) 0.2408(11) 0.0148(11)
H41 H 0.6537 0.2110 -0.0032
O48 O 0.9893(8) 0.2484(5) 0.1773(5)
Cu2_2 Cu 1.01813(14) 0.15111(8) 0.29743(10)
O40_2 O -0.0231(7) 0.2279(4) 0.3068(5)
O45_2 O -0.0248(7) 0.1472(4) 0.2099(5)
O49 O 0.3065(14) 0.3979(9) 0.0189(8)
loop_
_geom_bond_atom_site_label_1
_geom_bond_atom_site_label_2
_geom_bond_site_symmetry_1
_geom_bond_site_symmetry_2
W1 O17 1_555 1_555
W2 O10 1_555 1_555
W3 O15 1_555 1_555
W4 O7 1_555 1_555
W5 O2 1_555 1_555
W6 O1 1_555 1_555
W7 O12 1_555 1_555
W8 O16 1_555 1_555
W9 O2 1_555 1_555
W10 O11 1_555 1_555
W11 O5 1_555 1_555
P1 O15 1_555 1_555
Cu1 O9 1_555 1_555
Cu2 O6 1_555 1_555
Cu3 N1 1_555 1_555
Cu4 O10 1_555 1_555
Cu5 O27 1_555 1_555
Cu6 O9 1_555 1_555
O3 W5 1_555 1_555
O4 W6 1_555 1_555
O5 W9 1_555 1_555
O6 W9 1_555 1_555
O7 W11 1_555 1_555
O8 W11 1_555 1_555
O9 W4 1_555 1_555
O10 Cu1 1_555 1_555
O11 W5 1_555 1_555
O12 W10 1_555 1_555
O13 W10 1_555 1_555
O14 W7 1_555 1_555
O15 W9 1_555 1_555
O16 W2 1_555 1_555
O17 W4 1_555 1_555
O18 W5 1_555 1_555
O19 W1 1_555 1_555
O20 W2 1_555 1_555
O21 W3 1_555 1_555
O22 W1 1_555 1_555
O23 W1 1_555 1_555
O24 W8 1_555 1_555
O25 W2 1_555 1_555
O26 W6 1_555 1_555
O27 W1 1_555 1_555
O28 W5 1_555 1_555
O29 W4 1_555 1_555
O30 W5 1_555 1_555
O31 W3 1_555 1_555
N1 C2 1_555 1_555
N2 Cu3 1_555 1_555
C1 N2 1_555 1_555
C2 C1 1_555 1_555
O32 W8 1_555 1_555
O33 W7 1_555 1_555
O34 W2 1_555 1_555
O35 W3 1_555 1_555
O36 W2 1_555 1_555
O37 W4 1_555 1_555
O38 W1 1_555 1_555
O39 W3 1_555 1_555
P2 O40 1_555 1_555
P3 O41 1_555 1_555
O40 Cu3 1_555 1_555
N3 Cu2 1_555 1_555
N4 Cu2 1_555 1_555
C3 N4 1_555 1_555
C4 N3 1_555 1_555
N5 Cu4 1_555 1_555
N6 Cu4 1_555 1_555
C5 N5 1_555 1_555
C6 N6 1_555 1_555
H1 C6 1_555 1_555
C7 N5 1_555 1_555
H2 C7 1_555 1_555
C8 N6 1_555 1_555
O41 Cu4 1_555 1_555
C9 N1 1_555 1_555
H3 C9 1_555 1_555
C10 C9 1_555 1_555
H4 C10 1_555 1_555
C11 N3 1_555 1_555
H5 C11 1_555 1_555
C12 H6 1_555 1_555
C13 C12 1_555 1_555
H7 C13 1_555 1_555
C14 C10 1_555 1_555
H8 C14 1_555 1_555
C15 C1 1_555 1_555
H9 C15 1_555 1_555
C16 N2 1_555 1_555
H10 C16 1_555 1_555
C17 C8 1_555 1_555
H11 C17 1_555 1_555
C18 C6 1_555 1_555
H12 C18 1_555 1_555
C19 C7 1_555 1_555
H13 C19 1_555 1_555
C20 C5 1_555 1_555
H14 C20 1_555 1_555
O42 Cu6 1_555 1_555
O43 Cu1 1_555 1_555
O44 Cu5 1_555 1_555
O45 P3 1_555 1_555
O46 P3 1_555 1_555
N7 Cu6 1_555 1_555
N8 Cu6 1_555 1_555
C21 N8 1_555 1_555
C22 N8 1_555 1_555
H15 C22 1_555 1_555
C23 H16 1_555 1_555
C24 C11 1_555 1_555
H17 C24 1_555 1_555
C25 N4 1_555 1_555
H18 C25 1_555 1_555
C26 C3 1_555 1_555
H19 C26 1_555 1_555
C27 C4 1_555 1_555
H20 C27 1_555 1_555
C28 C2 1_555 1_555
H21 C28 1_555 1_555
C29 C17 1_555 1_555
H22 C29 1_555 1_555
C30 C19 1_555 1_555
H23 C30 1_555 1_555
O47 Cu5 1_555 1_555
H24 O47 1_555 1_555
N9 Cu5 1_555 1_555
C31 H25 1_555 1_555
N10 Cu5 1_555 1_555
C32 N9 1_555 1_555
H26 C32 1_555 1_555
C33 N10 1_555 1_555
C34 C32 1_555 1_555
H27 C34 1_555 1_555
C35 N9 1_555 1_555
C36 C31 1_555 1_555
H28 C36 1_555 1_555
C37 C33 1_555 1_555
H29 C37 1_555 1_555
C38 C34 1_555 1_555
H30 C38 1_555 1_555
C39 C36 1_555 1_555
H31 C39 1_555 1_555
C40 C24 1_555 1_555
H32 C40 1_555 1_555
C41 C35 1_555 1_555
H33 C41 1_555 1_555
C42 C23 1_555 1_555
H34 C42 1_555 1_555
C43 N7 1_555 1_555
C44 H35 1_555 1_555
C45 C21 1_555 1_555
H36 C45 1_555 1_555
C46 N7 1_555 1_555
H37 C46 1_555 1_555
C47 C22 1_555 1_555
H38 C47 1_555 1_555
C48 C43 1_555 1_555
H39 C48 1_555 1_555
C49 C48 1_555 1_555
H40 C49 1_555 1_555
C50 C46 1_555 1_555
H41 C50 1_555 1_555
O48 Cu3 1_555 1_555
Cu2_2 O40 1_555 1_555
O40_2 Cu2 1_555 1_555
O45_2 Cu2 1_555 1_555
W3 O22 1_555 1_555
W4 O19 1_555 1_555
W6 O16 1_555 1_555
W6 O20 1_555 1_555
W6 O30 1_555 1_555
W7 O18 1_555 1_555
W7 O25 1_555 1_555
W7 O28 1_555 1_555
W8 O26 1_555 1_555
W8 O29 1_555 1_555
W8 O36 1_555 1_555
W9 O4 1_555 1_555
W9 O31 1_555 1_555
W10 O18 1_555 1_555
W10 O21 1_555 1_555
W10 O23 1_555 1_555
W11 O15 1_555 1_555
W11 O24 1_555 1_555
W11 O39 1_555 1_555
P1 O16 1_555 1_555
P1 O17 1_555 1_555
P1 O18 1_555 1_555
Cu1 O17 1_555 1_555
Cu1 O27 1_555 1_555
Cu1 O33 1_555 1_555
Cu4 O43 1_555 1_555
Cu6 O41 1_555 1_555
P2 O42 1_555 1_555
P2 O43 1_555 1_555
P2 O44 1_555 1_555
P3 O48 1_555 1_555
C3 C4 1_555 1_555
C5 C8 1_555 1_555
C12 C16 1_555 1_555
C13 C15 1_555 1_555
C14 C28 1_555 1_555
C18 C29 1_555 1_555
C20 C30 1_555 1_555
O45 Cu2_2 1_555 1_555
C21 C43 1_555 1_555
C23 C26 1_555 1_555
C25 C42 1_555 1_555
C27 C40 1_555 1_555
C31 N10 1_555 1_555
C33 C35 1_555 1_555
C37 C39 1_555 1_555
C38 C41 1_555 1_555
C44 C45 1_555 1_555
C44 C47 1_555 1_555
C49 C50 1_555 1_555

#END
