
#######################################################################
#
#                 Cambridge Crystallographic Data Centre
#                                CCDC 
#
#######################################################################
#
# If this CIF has been generated from an entry in the Cambridge 
# Structural Database, then it will include bibliographic, chemical, 
# crystal, experimental, refinement or atomic coordinate data resulting 
# from the CCDC's data processing and validation procedures.
#
#######################################################################

data_XOHKEL
_symmetry_cell_setting           monoclinic
_symmetry_space_group_name_H-M   'P 21/c'
_symmetry_Int_Tables_number      14
_space_group_name_Hall           '-P 2ybc'
loop_
_symmetry_equiv_pos_site_id
_symmetry_equiv_pos_as_xyz
1 x,y,z
2 -x,1/2+y,1/2-z
3 -x,-y,-z
4 x,1/2-y,1/2+z
_cell_length_a                   7.0789(5)
_cell_length_b                   21.6570(16)
_cell_length_c                   10.3869(6)
_cell_angle_alpha                90
_cell_angle_beta                 97.831(6)
_cell_angle_gamma                90
_cell_volume                     1577.54
loop_
_atom_site_label
_atom_site_type_symbol
_atom_site_fract_x
_atom_site_fract_y
_atom_site_fract_z
Cu1 Cu 0.19245(8) 0.59882(2) 0.35483(5)
O1 O 0.2870(5) 0.68413(13) 0.3862(3)
O2 O 0.5254(4) 0.62395(13) 0.3509(3)
O3 O 0.9875(4) 0.87832(13) 0.7204(3)
O4 O 1.1848(5) 0.85294(14) 0.5781(3)
N1 N 0.2247(6) 0.57897(16) 0.5459(3)
N2 N 0.2083(5) 0.51216(16) 0.3040(3)
N3 N 0.2684(6) 0.47171(16) 0.5176(3)
C1 C 0.4645(7) 0.6751(2) 0.3862(4)
C2 C 0.6029(7) 0.72449(19) 0.4372(4)
C3 C 0.7923(7) 0.7203(2) 0.4133(4)
C4 C 0.9274(7) 0.76159(19) 0.4700(4)
C5 C 0.8770(7) 0.80668(19) 0.5555(4)
C6 C 0.6892(7) 0.81095(19) 0.5784(4)
C7 C 0.5509(7) 0.77088(19) 0.5187(4)
C8 C 1.0327(7) 0.84908(19) 0.6219(4)
C9 C 0.2556(7) 0.5223(2) 0.5966(4)
C10 C 0.2801(7) 0.5120(2) 0.7312(4)
C11 C 0.2679(8) 0.5608(2) 0.8134(4)
C12 C 0.2318(7) 0.6197(2) 0.7623(4)
C13 C 0.2108(7) 0.6265(2) 0.6304(4)
C14 C 0.2501(6) 0.46448(19) 0.3848(4)
C15 C 0.2775(7) 0.4047(2) 0.3387(4)
C16 C 0.2667(7) 0.3954(2) 0.2074(4)
C17 C 0.2234(7) 0.4446(2) 0.1227(4)
C18 C 0.1961(7) 0.5009(2) 0.1738(4)
H1 H 0.82820 0.68890 0.35760
H2 H 1.05470 0.75930 0.45100
H3 H 0.65450 0.84180 0.63600
H4 H 0.42190 0.77510 0.53320
H5 H 0.30480 0.47160 0.76480
H6 H 0.28410 0.55450 0.90470
H7 H 0.22200 0.65420 0.81760
H8 H 0.18520 0.66670 0.59550
H9 H 0.30320 0.37120 0.39760
H10 H 0.28870 0.35550 0.17450
H11 H 0.21320 0.43890 0.03130
H12 H 0.16680 0.53450 0.11570
H13 H 0.31230 0.43540 0.56520
Cu1C Cu 1.19245(8) 0.90118(2) 0.85483(5)
O3C O -0.0125(4) 0.62168(13) 0.2204(3)
loop_
_geom_bond_atom_site_label_1
_geom_bond_atom_site_label_2
_geom_bond_site_symmetry_1
_geom_bond_site_symmetry_2
Cu1 O1 1_555 1_555
O1 C1 1_555 1_555
O2 Cu1 1_555 1_555
O3 C8 1_555 1_555
O4 C8 1_555 1_555
N1 Cu1 1_555 1_555
N2 Cu1 1_555 1_555
N3 C9 1_555 1_555
C1 O2 1_555 1_555
C2 C1 1_555 1_555
C3 C2 1_555 1_555
C4 C3 1_555 1_555
C5 C4 1_555 1_555
C6 C5 1_555 1_555
C7 C2 1_555 1_555
C8 C5 1_555 1_555
C9 N1 1_555 1_555
C10 C9 1_555 1_555
C11 C10 1_555 1_555
C12 C11 1_555 1_555
C13 N1 1_555 1_555
C14 N2 1_555 1_555
C15 C14 1_555 1_555
C16 C15 1_555 1_555
C17 C16 1_555 1_555
C18 N2 1_555 1_555
H1 C3 1_555 1_555
H2 C4 1_555 1_555
H3 C6 1_555 1_555
H4 C7 1_555 1_555
H5 C10 1_555 1_555
H6 C11 1_555 1_555
H7 C12 1_555 1_555
H8 C13 1_555 1_555
H9 C15 1_555 1_555
H10 C16 1_555 1_555
H11 C17 1_555 1_555
H12 C18 1_555 1_555
H13 N3 1_555 1_555
Cu1C O3 1_555 1_555
O3C Cu1 1_555 1_555
N3 C14 1_555 1_555
C6 C7 1_555 1_555
C12 C13 1_555 1_555
C17 C18 1_555 1_555

#END
