
#######################################################################
#
#                 Cambridge Crystallographic Data Centre
#                                CCDC 
#
#######################################################################
#
# If this CIF has been generated from an entry in the Cambridge 
# Structural Database, then it will include bibliographic, chemical, 
# crystal, experimental, refinement or atomic coordinate data resulting 
# from the CCDC's data processing and validation procedures.
#
#######################################################################

data_XOHNEO
_symmetry_cell_setting           triclinic
_symmetry_space_group_name_H-M   'P -1'
_symmetry_Int_Tables_number      2
_space_group_name_Hall           '-P 1'
loop_
_symmetry_equiv_pos_site_id
_symmetry_equiv_pos_as_xyz
1 x,y,z
2 -x,-y,-z
_cell_length_a                   8.4319(10)
_cell_length_b                   10.2379(12)
_cell_length_c                   12.1489(14)
_cell_angle_alpha                72.3340(10)
_cell_angle_beta                 70.310(2)
_cell_angle_gamma                75.9450(10)
_cell_volume                     929.239
loop_
_atom_site_label
_atom_site_type_symbol
_atom_site_fract_x
_atom_site_fract_y
_atom_site_fract_z
Zn1 Zn 0.32109(6) 0.37415(5) 0.75963(4)
Zn2 Zn -0.04439(6) 0.34994(4) 0.56135(4)
Zn3 Zn -0.58661(6) 0.43350(5) 1.43815(4)
C1 C -0.0015(5) 0.2857(4) 0.8128(4)
C2 C -0.1667(5) 0.2601(4) 0.9084(3)
C3 C -0.2304(5) 0.3469(4) 0.9867(3)
H1 H -0.1785 0.4237 0.9706
C4 C -0.3674(5) 0.3238(4) 1.0874(4)
C5 C -0.4421(6) 0.2078(5) 1.1118(4)
H2 H -0.5334 0.1892 1.1803
C6 C -0.3821(6) 0.1195(5) 1.0351(4)
H3 H -0.4328 0.0414 1.0534
C7 C -0.2470(5) 0.1455(4) 0.9310(3)
C8 C -0.4183(5) 0.4152(4) 1.1739(4)
C9 C -0.3599(5) 0.2104(4) 0.7175(3)
C10 C -0.2402(5) 0.0793(4) 0.7468(3)
C11 C -0.1858(5) -0.0099(4) 0.6712(3)
H4 H -0.2178 0.0152 0.6005
C12 C -0.0841(5) -0.1365(4) 0.6998(4)
C13 C -0.0382(5) -0.1726(4) 0.8056(4)
H5 H 0.0271 -0.2584 0.8268
C14 C -0.0889(6) -0.0816(4) 0.8804(4)
H6 H -0.0561 -0.1065 0.9508
C15 C -0.1883(5) 0.0462(4) 0.8506(3)
C16 C -0.0223(5) -0.2301(4) 0.6160(4)
O1 O 0.1010(3) 0.3215(3) 0.8490(2)
O2 O 0.0328(3) 0.2684(3) 0.7089(2)
O3 O -0.3404(4) 0.5171(3) 1.1402(3)
O4 O -0.5276(4) 0.3836(3) 1.2724(3)
O5 O -0.3042(3) 0.3149(3) 0.6415(2)
O6 O -0.5141(3) 0.2051(3) 0.7730(3)
O7 O -0.0542(4) -0.1864(3) 0.5148(3)
O8 O 0.0576(4) -0.3479(3) 0.6458(3)
O9 O 0.3637(3) 0.4927(3) 0.5969(2)
O10 O -0.1657(3) 0.5493(3) 0.5532(3)
O11 O -0.5120(5) 0.2210(3) 1.5049(4)
H7 H -0.5965 0.1850 1.5468
H8 H -0.173(6) 0.561(4) 0.613(3)
H9 H 0.291(5) 0.553(4) 0.606(4)
H10 H -0.448(9) 0.177(7) 1.458(6)
Zn1A Zn -0.32109(6) 0.62585(5) 1.24037(4)
Zn1_2 Zn -0.67891(6) 0.37415(5) 0.75963(4)
Zn2A Zn 0.04439(6) -0.34994(4) 0.43865(4)
Zn2A_2 Zn 0.04439(6) 0.65006(4) 0.43865(4)
Zn3_2 Zn 0.41339(6) 0.43350(5) 0.43815(4)
Zn3A Zn 0.58661(6) 0.56650(5) 0.56185(4)
Zn3A_2 Zn -0.41339(6) 0.56650(5) 0.56185(4)
O3A O 0.3404(4) 0.4829(3) 0.8598(3)
O6_2 O 0.4859(3) 0.2051(3) 0.7730(3)
O7A O 0.0542(4) 0.1864(3) 0.4852(3)
O9_2 O -0.6363(3) 0.4927(3) 1.5969(2)
O9A O -0.3637(3) 0.5073(3) 1.4031(2)
O10A O 0.1657(3) 0.4507(3) 0.4468(3)
O10A_2 O -0.8343(3) 0.4507(3) 1.4468(3)
H8A H 0.173(6) 0.439(4) 0.387(3)
H8A_2 H -0.827(6) 0.439(4) 1.387(3)
H9_2 H -0.709(5) 0.553(4) 1.606(4)
H9A H -0.291(5) 0.447(4) 1.394(4)
O12 O 0.2892(6) 0.0020(5) 0.6130(5)
H11 H 0.292(10) -0.004(8) 0.685(5)
H12 H 0.204(14) 0.053(14) 0.587(14)
loop_
_geom_bond_atom_site_label_1
_geom_bond_atom_site_label_2
_geom_bond_site_symmetry_1
_geom_bond_site_symmetry_2
Zn1 O1 1_555 1_555
Zn2 O2 1_555 1_555
Zn3 O4 1_555 1_555
C1 C2 1_555 1_555
C2 C3 1_555 1_555
C3 H1 1_555 1_555
C4 C3 1_555 1_555
C5 C4 1_555 1_555
H2 C5 1_555 1_555
C6 C5 1_555 1_555
H3 C6 1_555 1_555
C7 C2 1_555 1_555
C8 C4 1_555 1_555
C9 C10 1_555 1_555
C10 C11 1_555 1_555
C11 H4 1_555 1_555
C12 C11 1_555 1_555
C13 C12 1_555 1_555
H5 C13 1_555 1_555
C14 C13 1_555 1_555
H6 C14 1_555 1_555
C15 C7 1_555 1_555
C16 C12 1_555 1_555
O1 C1 1_555 1_555
O2 C1 1_555 1_555
O3 C8 1_555 1_555
O4 C8 1_555 1_555
O5 Zn2 1_555 1_555
O6 C9 1_555 1_555
O7 C16 1_555 1_555
O8 C16 1_555 1_555
O9 Zn1 1_555 1_555
O10 Zn2 1_555 1_555
O11 Zn3 1_555 1_555
H7 O11 1_555 1_555
H8 O10 1_555 1_555
H9 O9 1_555 1_555
H10 O11 1_555 1_555
O12 H11 1_555 1_555
H12 O12 1_555 1_555
Zn1A O3 1_555 1_555
Zn1_2 O6 1_555 1_555
Zn2A O7 1_555 1_555
Zn2A_2 O10 1_555 1_555
Zn3_2 O9 1_555 1_555
Zn3A O9 1_555 1_555
Zn3A_2 O10 1_555 1_555
O3A Zn1 1_555 1_555
O6_2 Zn1 1_555 1_555
O7A Zn2 1_555 1_555
O9_2 Zn3 1_555 1_555
O9A Zn3 1_555 1_555
O10A Zn2 1_555 1_555
O10A_2 Zn3 1_555 1_555
H8A O10A 1_555 1_555
H8A_2 O10A_2 1_555 1_555
H9_2 O9_2 1_555 1_555
H9A O9A 1_555 1_555
C6 C7 1_555 1_555
C9 O5 1_555 1_555
C10 C15 1_555 1_555
C14 C15 1_555 1_555
Zn1A O9A 1_555 1_555
Zn2A_2 O10A 1_555 1_555
Zn3_2 O10A 1_555 1_555

#END
