
#######################################################################
#
#                 Cambridge Crystallographic Data Centre
#                                CCDC 
#
#######################################################################
#
# If this CIF has been generated from an entry in the Cambridge 
# Structural Database, then it will include bibliographic, chemical, 
# crystal, experimental, refinement or atomic coordinate data resulting 
# from the CCDC's data processing and validation procedures.
#
#######################################################################

data_XOHPEQ
_symmetry_cell_setting           monoclinic
_symmetry_space_group_name_H-M   'P 21/c'
_symmetry_Int_Tables_number      14
_space_group_name_Hall           '-P 2ybc'
loop_
_symmetry_equiv_pos_site_id
_symmetry_equiv_pos_as_xyz
1 x,y,z
2 -x,1/2+y,1/2-z
3 -x,-y,-z
4 x,1/2-y,1/2+z
_cell_length_a                   9.991(3)
_cell_length_b                   13.566(3)
_cell_length_c                   12.381(3)
_cell_angle_alpha                90
_cell_angle_beta                 110.202(6)
_cell_angle_gamma                90
_cell_volume                     1574.86
loop_
_atom_site_label
_atom_site_type_symbol
_atom_site_fract_x
_atom_site_fract_y
_atom_site_fract_z
Cu1 Cu 0.31752(6) 0.40438(5) 0.22230(5)
O1 O 0.4270(3) 0.3903(3) 0.1150(3)
O2 O 0.6449(4) 0.4198(3) 0.2454(3)
O3 O -0.1983(4) 0.4223(3) -0.1149(3)
O4 O -0.3238(4) 0.3380(3) -0.2743(3)
O5 O 0.4607(4) 0.4976(3) 0.3248(3)
N1 N 0.5424(4) 0.3316(3) -0.0450(4)
N2 N 0.4442(5) 0.3856(3) -0.1295(4)
N3 N 0.3754(5) 0.3230(3) -0.2084(4)
N4 N 0.4224(4) 0.2293(3) -0.1771(3)
N5 N 0.6078(5) 0.1637(4) -0.0139(5)
N6 N -0.0202(4) 0.2688(3) -0.0276(4)
N7 N -0.0447(5) 0.2450(4) 0.0706(4)
N8 N 0.0604(5) 0.2792(3) 0.1548(4)
N9 N 0.1556(4) 0.3268(3) 0.1152(4)
N10 N 0.1613(6) 0.3545(4) -0.0739(4)
N11 N 0.1970(4) 0.4354(3) 0.3209(4)
C1 C 0.5270(6) 0.2369(4) -0.0761(4)
C2 C 0.6336(5) 0.3781(4) 0.0596(4)
H1 H 0.6679 0.4415 0.0395
H2 H 0.7179 0.3356 0.0950
C3 C 0.5628(5) 0.3976(4) 0.1484(4)
C4 C 0.1023(6) 0.3187(4) -0.0001(4)
C5 C -0.1303(6) 0.2561(4) -0.1401(5)
H3 H -0.0847 0.2416 -0.1977
H4 H -0.1910 0.1992 -0.1375
C6 C -0.2234(6) 0.3480(4) -0.1773(5)
C7 C 0.2493(6) 0.4206(4) 0.4352(5)
H5 H 0.3416 0.3924 0.4678
C8 C 0.1762(5) 0.4442(4) 0.5068(5)
H6 H 0.2176 0.4322 0.5871
C9 C 0.0415(5) 0.4857(4) 0.4618(4)
C10 C -0.0142(6) 0.5000(4) 0.3430(5)
H7 H -0.1069 0.5272 0.3085
C11 C 0.0650(6) 0.4748(4) 0.2763(5)
H8 H 0.0256 0.4854 0.1956
H9 H 0.585(5) 0.110(4) -0.040(4)
H10 H 0.412(7) 0.556(5) 0.304(5)
H11 H 0.131(7) 0.328(5) -0.148(6)
H12 H 0.522(7) 0.493(5) 0.300(5)
H13 H 0.236(7) 0.377(5) -0.048(5)
H14 H 0.652(8) 0.173(5) 0.063(6)
Cu1C Cu 0.31752(6) 0.09562(5) 0.72230(5)
Cu1C_2 Cu 0.31752(6) 0.09562(5) -0.27770(5)
Cu1B Cu -0.31752(6) 0.59562(5) 0.77770(5)
O1C O 0.4270(3) 0.1097(3) 0.6150(3)
O2C O 0.6449(4) 0.0802(3) 0.7454(3)
O3C O -0.1983(4) 0.0777(3) 0.3851(3)
O4C O -0.3238(4) 0.1620(3) 0.2257(3)
O5C O 0.4607(4) 0.0024(3) 0.8248(3)
N1C N 0.5424(4) 0.1684(3) 0.4550(4)
N2C N 0.4442(5) 0.1144(3) 0.3705(4)
N3C N 0.3754(5) 0.1770(3) 0.2916(4)
N4C N 0.4224(4) 0.2707(3) 0.3229(3)
N4_2 N 0.4224(4) 0.2293(3) 0.8229(3)
N5C N 0.6078(5) 0.3363(4) 0.4861(5)
N6C N -0.0202(4) 0.2312(3) 0.4724(4)
N7C N -0.0447(5) 0.2550(4) 0.5706(4)
N8C N 0.0604(5) 0.2208(3) 0.6548(4)
N9C N 0.1556(4) 0.1732(3) 0.6152(4)
N10C N 0.1613(6) 0.1455(4) 0.4261(4)
N11B N -0.1970(4) 0.5646(3) 0.6791(4)
N11C N 0.1970(4) 0.0646(3) 0.8209(4)
C1C C 0.5270(6) 0.2631(4) 0.4239(4)
C2C C 0.6336(5) 0.1219(4) 0.5596(4)
H1C H 0.6679 0.0585 0.5395
H2C H 0.7179 0.1644 0.5950
C3C C 0.5628(5) 0.1024(4) 0.6484(4)
C4C C 0.1023(6) 0.1813(4) 0.4999(4)
C5C C -0.1303(6) 0.2439(4) 0.3599(5)
H3C H -0.0847 0.2584 0.3023
H4C H -0.1910 0.3008 0.3625
C6C C -0.2234(6) 0.1520(4) 0.3227(5)
C7B C -0.2493(6) 0.5794(4) 0.5648(5)
H5B H -0.3416 0.6076 0.5322
C8B C -0.1762(5) 0.5558(4) 0.4932(5)
H6B H -0.2176 0.5678 0.4129
C9B C -0.0415(5) 0.5143(4) 0.5382(4)
C10B C 0.0142(6) 0.5000(4) 0.6570(5)
H7B H 0.1069 0.4728 0.6915
C11B C -0.0650(6) 0.5252(4) 0.7237(5)
H8B H -0.0256 0.5146 0.8044
H9C H 0.585(5) 0.390(4) 0.460(4)
H10C H 0.412(7) -0.056(5) 0.804(5)
H11C H 0.131(7) 0.172(5) 0.352(6)
H12C H 0.522(7) 0.007(5) 0.800(5)
H13C H 0.236(7) 0.123(5) 0.452(5)
H14C H 0.652(8) 0.327(5) 0.563(6)
loop_
_geom_bond_atom_site_label_1
_geom_bond_atom_site_label_2
_geom_bond_site_symmetry_1
_geom_bond_site_symmetry_2
Cu1 O1 1_555 1_555
O1 C3 1_555 1_555
O2 C3 1_555 1_555
O3 C6 1_555 1_555
O4 C6 1_555 1_555
O5 Cu1 1_555 1_555
N1 N2 1_555 1_555
N2 N3 1_555 1_555
N3 N4 1_555 1_555
N4 C1 1_555 1_555
N5 C1 1_555 1_555
N6 N7 1_555 1_555
N7 N8 1_555 1_555
N8 N9 1_555 1_555
N9 Cu1 1_555 1_555
N10 C4 1_555 1_555
N11 Cu1 1_555 1_555
C1 N1 1_555 1_555
C2 N1 1_555 1_555
H1 C2 1_555 1_555
H2 C2 1_555 1_555
C3 C2 1_555 1_555
C4 N6 1_555 1_555
C5 N6 1_555 1_555
H3 C5 1_555 1_555
H4 C5 1_555 1_555
C6 C5 1_555 1_555
C7 N11 1_555 1_555
H5 C7 1_555 1_555
C8 C7 1_555 1_555
H6 C8 1_555 1_555
C9 C8 1_555 1_555
C10 C9 1_555 1_555
H7 C10 1_555 1_555
C11 N11 1_555 1_555
H8 C11 1_555 1_555
H9 N5 1_555 1_555
H10 O5 1_555 1_555
H11 N10 1_555 1_555
H12 O5 1_555 1_555
H13 N10 1_555 1_555
H14 N5 1_555 1_555
Cu1C O1C 1_555 1_555
Cu1C_2 N4 1_555 1_555
Cu1B N11B 1_555 1_555
O1C C3C 1_555 1_555
O2C C3C 1_555 1_555
O3C C6C 1_555 1_555
O4C C6C 1_555 1_555
O5C Cu1C 1_555 1_555
N1C N2C 1_555 1_555
N2C N3C 1_555 1_555
N3C N4C 1_555 1_555
N4C Cu1 1_555 1_555
N4_2 Cu1C 1_555 1_555
N5C C1C 1_555 1_555
N6C N7C 1_555 1_555
N7C N8C 1_555 1_555
N8C N9C 1_555 1_555
N9C Cu1C 1_555 1_555
N10C C4C 1_555 1_555
N11B C7B 1_555 1_555
N11C Cu1C 1_555 1_555
C1C N1C 1_555 1_555
C2C N1C 1_555 1_555
H1C C2C 1_555 1_555
H2C C2C 1_555 1_555
C3C C2C 1_555 1_555
C4C N6C 1_555 1_555
C5C N6C 1_555 1_555
H3C C5C 1_555 1_555
H4C C5C 1_555 1_555
C6C C5C 1_555 1_555
C7B H5B 1_555 1_555
C8B C7B 1_555 1_555
H6B C8B 1_555 1_555
C9B C9 1_555 1_555
C10B C9B 1_555 1_555
H7B C10B 1_555 1_555
C11B N11B 1_555 1_555
H8B C11B 1_555 1_555
H9C N5C 1_555 1_555
H10C O5C 1_555 1_555
H11C N10C 1_555 1_555
H12C O5C 1_555 1_555
H13C N10C 1_555 1_555
H14C N5C 1_555 1_555
N9 C4 1_555 1_555
C10 C11 1_555 1_555
N4C C1C 1_555 1_555
N9C C4C 1_555 1_555
C8B C9B 1_555 1_555
C10B C11B 1_555 1_555

#END
