
#######################################################################
#
#                 Cambridge Crystallographic Data Centre
#                                CCDC 
#
#######################################################################
#
# If this CIF has been generated from an entry in the Cambridge 
# Structural Database, then it will include bibliographic, chemical, 
# crystal, experimental, refinement or atomic coordinate data resulting 
# from the CCDC's data processing and validation procedures.
#
#######################################################################

data_XOHPAM
_symmetry_cell_setting           monoclinic
_symmetry_space_group_name_H-M   'P 21/n'
_symmetry_Int_Tables_number      14
_space_group_name_Hall           '-P 2yn'
loop_
_symmetry_equiv_pos_site_id
_symmetry_equiv_pos_as_xyz
1 x,y,z
2 1/2-x,1/2+y,1/2-z
3 -x,-y,-z
4 1/2+x,1/2-y,1/2+z
_cell_length_a                   5.0143(12)
_cell_length_b                   12.031(3)
_cell_length_c                   10.818(3)
_cell_angle_alpha                90
_cell_angle_beta                 92.023(4)
_cell_angle_gamma                90
_cell_volume                     652.211
loop_
_atom_site_label
_atom_site_type_symbol
_atom_site_fract_x
_atom_site_fract_y
_atom_site_fract_z
Cu1 Cu 0.5000 1.0000 0.5000
O1 O 0.2184(3) 0.78789(15) 0.37401(16)
O2 O 0.6109(3) 0.85222(13) 0.45077(15)
N1 N 0.1786(4) 0.52950(17) 0.16359(18)
N2 N 0.0762(4) 0.49472(16) 0.27294(19)
N3 N 0.2174(4) 0.53158(18) 0.36490(19)
N4 N 0.4221(4) 0.59010(16) 0.31733(17)
N5 N 0.5650(4) 0.6345(2) 0.1146(2)
H3 H 0.497(6) 0.644(3) 0.0407(19)
H4 H 0.671(6) 0.686(2) 0.144(3)
C1 C 0.3944(5) 0.5896(2) 0.1929(2)
C2 C 0.5869(5) 0.66333(19) 0.3953(2)
H5 H 0.7649 0.6716 0.3595
H6 H 0.6116 0.6304 0.4787
C3 C 0.4553(5) 0.7770(2) 0.4052(2)
Cu1C Cu 0.0000 0.5000 0.0000
Cu1C_2 Cu 1.0000 0.5000 1.0000
O1C O 0.7184(3) 0.71211(15) 0.87401(16)
O2C O 1.1109(3) 0.64778(13) 0.95077(15)
O2B O 0.3891(3) 1.14778(13) 0.54923(15)
N1C N 0.6786(4) 0.97050(17) 0.66359(18)
N1A N 0.3214(4) 1.02950(17) 0.33641(18)
N2C N 0.5762(4) 1.00528(16) 0.77294(19)
N3C N 0.7174(4) 0.96842(18) 0.86490(19)
N4C N 0.9221(4) 0.90990(16) 0.81733(17)
N5C N 1.0650(4) 0.8655(2) 0.6146(2)
H3C H 0.997(6) 0.856(3) 0.5407(19)
H4C H 1.171(6) 0.814(2) 0.644(3)
C1C C 0.8944(5) 0.9104(2) 0.6929(2)
C2C C 1.0869(5) 0.83667(19) 0.8953(2)
H5C H 1.2649 0.8284 0.8595
H6C H 1.1116 0.8696 0.9787
C3C C 0.9553(5) 0.7230(2) 0.9052(2)
O3 O 0.3583(4) 0.67056(16) 0.67799(17)
H1 H 0.464(5) 0.676(3) 0.735(2)
H2 H 0.252(6) 0.623(2) 0.695(3)
loop_
_geom_bond_atom_site_label_1
_geom_bond_atom_site_label_2
_geom_bond_site_symmetry_1
_geom_bond_site_symmetry_2
Cu1 O2 1_555 1_555
O1 C3 1_555 1_555
O2 C3 1_555 1_555
O3 H1 1_555 1_555
H2 O3 1_555 1_555
N1 N2 1_555 1_555
N2 N3 1_555 1_555
N3 N4 1_555 1_555
N4 C1 1_555 1_555
N5 H3 1_555 1_555
H4 N5 1_555 1_555
C1 N1 1_555 1_555
C2 N4 1_555 1_555
H5 C2 1_555 1_555
H6 C2 1_555 1_555
C3 C2 1_555 1_555
Cu1C N1 1_555 1_555
Cu1C_2 O2C 1_555 1_555
O1C C3C 1_555 1_555
O2C C3C 1_555 1_555
O2B Cu1 1_555 1_555
N1C Cu1 1_555 1_555
N1A Cu1 1_555 1_555
N2C N1C 1_555 1_555
N3C N2C 1_555 1_555
N4C N3C 1_555 1_555
N5C H3C 1_555 1_555
H4C N5C 1_555 1_555
C1C N1C 1_555 1_555
C2C N4C 1_555 1_555
H5C C2C 1_555 1_555
H6C C2C 1_555 1_555
C3C C2C 1_555 1_555
N5 C1 1_555 1_555
N4C C1C 1_555 1_555
N5C C1C 1_555 1_555

#END
