
#######################################################################
#
#                 Cambridge Crystallographic Data Centre
#                                CCDC 
#
#######################################################################
#
# If this CIF has been generated from an entry in the Cambridge 
# Structural Database, then it will include bibliographic, chemical, 
# crystal, experimental, refinement or atomic coordinate data resulting 
# from the CCDC's data processing and validation procedures.
#
#######################################################################

data_XOHQIV
_symmetry_cell_setting           monoclinic
_symmetry_space_group_name_H-M   'P 21/n'
_symmetry_Int_Tables_number      14
_space_group_name_Hall           '-P 2yn'
loop_
_symmetry_equiv_pos_site_id
_symmetry_equiv_pos_as_xyz
1 x,y,z
2 1/2-x,1/2+y,1/2-z
3 -x,-y,-z
4 1/2+x,1/2-y,1/2+z
_cell_length_a                   12.3596(12)
_cell_length_b                   9.1961(9)
_cell_length_c                   12.5172(12)
_cell_angle_alpha                90
_cell_angle_beta                 115.162(1)
_cell_angle_gamma                90
_cell_volume                     1287.7
loop_
_atom_site_label
_atom_site_type_symbol
_atom_site_fract_x
_atom_site_fract_y
_atom_site_fract_z
Fe1 Fe -0.14080(2) 0.78714(3) 0.08420(2)
Cl1 Cl -0.11016(4) 0.78258(5) -0.08057(4)
Cl2 Cl -0.20719(4) 0.61493(5) 0.17008(4)
Cl3 Cl -0.09972(4) 1.00006(5) 0.17950(4)
N1 N -0.40357(13) 0.81337(18) 0.00673(14)
N2 N -0.88615(13) 0.71687(17) 0.15001(14)
O1 O -0.31348(11) 0.83228(16) -0.02497(12)
O2 O -0.97886(11) 0.69514(15) 0.17773(12)
C1 C -0.49115(17) 0.7207(2) -0.05746(17)
H1 H -0.4877 0.6702 -0.1222
C2 C -0.58632(17) 0.6990(2) -0.02886(18)
H2 H -0.6479 0.6327 -0.0735
C3 C -0.59239(16) 0.7741(2) 0.06511(17)
C4 C -0.49983(16) 0.8692(2) 0.12907(17)
H3 H -0.5015 0.9219 0.1937
C5 C -0.40570(16) 0.8870(2) 0.09863(17)
H4 H -0.3422 0.9514 0.1427
C6 C -0.84295(16) 0.6012(2) 0.11512(18)
H5 H -0.8784 0.5083 0.1097
C7 C -0.74727(17) 0.6175(2) 0.08724(18)
H6 H -0.7169 0.5358 0.0623
C8 C -0.69481(16) 0.7537(2) 0.09562(16)
C9 C -0.74254(16) 0.8705(2) 0.13154(16)
H7 H -0.7086 0.9646 0.1378
C10 C -0.83891(16) 0.8505(2) 0.15817(17)
H8 H -0.8718 0.9306 0.1822
Fe1_2 Fe -1.14080(2) 0.78714(3) 0.08420(2)
O2_2 O 0.02114(11) 0.69514(15) 0.17773(12)
loop_
_geom_bond_atom_site_label_1
_geom_bond_atom_site_label_2
_geom_bond_site_symmetry_1
_geom_bond_site_symmetry_2
Fe1 Cl1 1_555 1_555
Cl2 Fe1 1_555 1_555
Cl3 Fe1 1_555 1_555
N1 O1 1_555 1_555
N2 O2 1_555 1_555
O1 Fe1 1_555 1_555
O2 Fe1_2 1_555 1_555
C1 N1 1_555 1_555
H1 C1 1_555 1_555
C2 C1 1_555 1_555
H2 C2 1_555 1_555
C3 C2 1_555 1_555
C4 C3 1_555 1_555
H3 C4 1_555 1_555
C5 N1 1_555 1_555
H4 C5 1_555 1_555
C6 N2 1_555 1_555
H5 C6 1_555 1_555
C7 C6 1_555 1_555
H6 C7 1_555 1_555
C8 C3 1_555 1_555
C9 C8 1_555 1_555
H7 C9 1_555 1_555
C10 N2 1_555 1_555
H8 C10 1_555 1_555
O2_2 Fe1 1_555 1_555
C4 C5 1_555 1_555
C7 C8 1_555 1_555
C9 C10 1_555 1_555

#END
