
#######################################################################
#
#                 Cambridge Crystallographic Data Centre
#                                CCDC 
#
#######################################################################
#
# If this CIF has been generated from an entry in the Cambridge 
# Structural Database, then it will include bibliographic, chemical, 
# crystal, experimental, refinement or atomic coordinate data resulting 
# from the CCDC's data processing and validation procedures.
#
#######################################################################

data_XOHQOB
_symmetry_cell_setting           monoclinic
_symmetry_space_group_name_H-M   'P 2/c'
_symmetry_Int_Tables_number      13
_space_group_name_Hall           '-P 2yc'
loop_
_symmetry_equiv_pos_site_id
_symmetry_equiv_pos_as_xyz
1 x,y,z
2 -x,y,1/2-z
3 -x,-y,-z
4 x,-y,1/2+z
_cell_length_a                   7.0131(11)
_cell_length_b                   10.059(2)
_cell_length_c                   28.818(5)
_cell_angle_alpha                90
_cell_angle_beta                 90.711(3)
_cell_angle_gamma                90
_cell_volume                     2032.8
loop_
_atom_site_label
_atom_site_type_symbol
_atom_site_fract_x
_atom_site_fract_y
_atom_site_fract_z
P1 P -0.0021(2) -0.49611(15) 0.14785(5)
F1 F -0.2147(5) -0.5549(4) 0.14155(14)
F2 F 0.0449(6) -0.6101(4) 0.18460(14)
F3 F -0.0708(7) -0.4014(4) 0.18877(13)
F4 F 0.0646(6) -0.5896(4) 0.10627(14)
F5 F -0.0554(6) -0.3829(4) 0.11091(13)
F6 F 0.2102(6) -0.4385(4) 0.15239(14)
O5 O 0.5000 -0.5258(19) 0.2500
C17 C 0.492(3) -0.6300(12) 0.2208(5)
C17A C 0.508(3) -0.6300(12) 0.2792(5)
Cu1 Cu 0.0000 0.0000 0.5000
O1 O 0.2298(4) 0.0384(3) 0.46247(10)
O2 O 0.2948(6) -0.0416(4) 0.12729(12)
O3 O -0.0246(4) -0.1666(3) 0.46496(11)
O4 O -0.1754(5) 0.1143(4) 0.44303(12)
C1 C -0.3353(7) 0.1912(6) 0.4560(2)
H1 H -0.3928 0.2322 0.4284
H2 H -0.2945 0.2608 0.4778
H3 H -0.4293 0.1337 0.4710
H4 H -0.209(9) 0.074(7) 0.415(2)
C2 C 0.2380(7) -0.0952(5) 0.39661(17)
H5 H 0.2442 -0.1721 0.4157
C3 C 0.2420(7) -0.1083(5) 0.34907(17)
H6 H 0.2489 -0.1946 0.3358
C4 C 0.2360(6) 0.0020(5) 0.32000(15)
C5 C 0.2221(8) 0.1256(5) 0.34182(17)
H7 H 0.2163 0.2041 0.3235
C6 C 0.2168(8) 0.1353(5) 0.38948(17)
H8 H 0.2069 0.2203 0.4036
C7 C 0.2703(7) 0.0911(5) 0.19273(17)
H9 H 0.2763 0.1689 0.1741
C8 C 0.2576(7) 0.1027(5) 0.23982(17)
H10 H 0.2571 0.1886 0.2535
C9 C 0.2451(6) -0.0099(5) 0.26852(16)
C10 C 0.2439(7) -0.1324(5) 0.24635(17)
H11 H 0.2341 -0.2114 0.2642
C11 C 0.2568(7) -0.1412(5) 0.19852(18)
H12 H 0.2532 -0.2257 0.1839
C12 C -0.3029(7) -0.2755(5) 0.44513(17)
H13 H -0.3145 -0.2218 0.4181
C13 C -0.4383(7) -0.3717(5) 0.45413(17)
H14 H -0.5410 -0.3849 0.4328
C14 C -0.4262(6) -0.4498(5) 0.49431(16)
C15 C -0.2665(7) -0.4302(5) 0.52286(17)
H15 H -0.2493 -0.4835 0.5498
C16 C -0.1338(6) -0.3346(5) 0.51235(17)
H16 H -0.0258 -0.3226 0.5321
N1 N 0.2255(5) 0.0258(4) 0.41613(13)
N2 N 0.2745(6) -0.0296(4) 0.17250(14)
N3 N -0.1552(5) -0.2580(4) 0.47445(13)
Cu1_2 Cu -1.0000 -1.0000 0.5000
O1B O -0.2298(4) -0.0384(3) 0.53753(10)
O2B O -0.2948(6) 0.0416(4) 0.87271(12)
O3B O -0.9754(4) -0.8334(3) 0.53504(11)
O3B_2 O 0.0246(4) 0.1666(3) 0.53504(11)
O4B O 0.1754(5) -0.1143(4) 0.55697(12)
C1B C 0.3353(7) -0.1912(6) 0.5440(2)
H1B H 0.3928 -0.2322 0.5716
H2B H 0.2945 -0.2608 0.5222
H3B H 0.4293 -0.1337 0.5290
H4B H 0.209(9) -0.074(7) 0.585(2)
C2B C -0.2380(7) 0.0952(5) 0.60339(17)
H5B H -0.2442 0.1721 0.5843
C3B C -0.2420(7) 0.1083(5) 0.65093(17)
H6B H -0.2489 0.1946 0.6642
C4B C -0.2360(6) -0.0020(5) 0.68000(15)
C5B C -0.2221(8) -0.1256(5) 0.65818(17)
H7B H -0.2163 -0.2041 0.6765
C6B C -0.2168(8) -0.1353(5) 0.61052(17)
H8B H -0.2069 -0.2203 0.5964
C7B C -0.2703(7) -0.0911(5) 0.80727(17)
H9B H -0.2763 -0.1689 0.8259
C8B C -0.2576(7) -0.1027(5) 0.76018(17)
H10B H -0.2571 -0.1886 0.7465
C9B C -0.2451(6) 0.0099(5) 0.73148(16)
C10B C -0.2439(7) 0.1324(5) 0.75365(17)
H11B H -0.2341 0.2114 0.7358
C11B C -0.2568(7) 0.1412(5) 0.80148(18)
H12B H -0.2532 0.2257 0.8161
C12B C -0.6971(7) -0.7245(5) 0.55487(17)
H13B H -0.6855 -0.7782 0.5819
C13B C -0.5617(7) -0.6283(5) 0.54587(17)
H14B H -0.4590 -0.6151 0.5672
C14B C -0.5738(6) -0.5502(5) 0.50569(16)
C15B C -0.7335(7) -0.5698(5) 0.47714(17)
H15B H -0.7507 -0.5165 0.4502
C16B C -0.8662(6) -0.6654(5) 0.48765(17)
H16B H -0.9742 -0.6774 0.4679
N1B N -0.2255(5) -0.0258(4) 0.58387(13)
N2B N -0.2745(6) 0.0296(4) 0.82750(14)
N3B N -0.8448(5) -0.7420(4) 0.52555(13)
loop_
_geom_bond_atom_site_label_1
_geom_bond_atom_site_label_2
_geom_bond_site_symmetry_1
_geom_bond_site_symmetry_2
Cu1 O1 1_555 1_555
O1 N1 1_555 1_555
O2 N2 1_555 1_555
O3 Cu1 1_555 1_555
O4 Cu1 1_555 1_555
C1 O4 1_555 1_555
H1 C1 1_555 1_555
H2 C1 1_555 1_555
H3 C1 1_555 1_555
H4 O4 1_555 1_555
C2 H5 1_555 1_555
C3 C2 1_555 1_555
H6 C3 1_555 1_555
C4 C3 1_555 1_555
C5 C4 1_555 1_555
H7 C5 1_555 1_555
C6 C5 1_555 1_555
H8 C6 1_555 1_555
C7 H9 1_555 1_555
C8 C7 1_555 1_555
H10 C8 1_555 1_555
C9 C4 1_555 1_555
C10 C9 1_555 1_555
H11 C10 1_555 1_555
C11 C10 1_555 1_555
H12 C11 1_555 1_555
C12 H13 1_555 1_555
C13 C12 1_555 1_555
H14 C13 1_555 1_555
C14 C13 1_555 1_555
C15 C14 1_555 1_555
H15 C15 1_555 1_555
C16 C15 1_555 1_555
H16 C16 1_555 1_555
N1 C2 1_555 1_555
N2 C7 1_555 1_555
N3 O3 1_555 1_555
P1 F1 1_555 1_555
F2 P1 1_555 1_555
F3 P1 1_555 1_555
F4 P1 1_555 1_555
F5 P1 1_555 1_555
F6 P1 1_555 1_555
O5 C17 1_555 1_555
C17 C17A 1_555 1_555
Cu1_2 O3B 1_555 1_555
O1B Cu1 1_555 1_555
O2B N2B 1_555 1_555
O3B N3B 1_555 1_555
O3B_2 Cu1 1_555 1_555
O4B Cu1 1_555 1_555
C1B O4B 1_555 1_555
H1B C1B 1_555 1_555
H2B C1B 1_555 1_555
H3B C1B 1_555 1_555
H4B O4B 1_555 1_555
C2B H5B 1_555 1_555
C3B C2B 1_555 1_555
H6B C3B 1_555 1_555
C4B C3B 1_555 1_555
C5B C4B 1_555 1_555
H7B C5B 1_555 1_555
C6B C5B 1_555 1_555
H8B C6B 1_555 1_555
C7B H9B 1_555 1_555
C8B C7B 1_555 1_555
H10B C8B 1_555 1_555
C9B C4B 1_555 1_555
C10B C9B 1_555 1_555
H11B C10B 1_555 1_555
C11B C10B 1_555 1_555
H12B C11B 1_555 1_555
C12B H13B 1_555 1_555
C13B C12B 1_555 1_555
H14B C13B 1_555 1_555
C14B C14 1_555 1_555
C15B C14B 1_555 1_555
H15B C15B 1_555 1_555
C16B C15B 1_555 1_555
H16B C16B 1_555 1_555
N1B O1B 1_555 1_555
N2B C7B 1_555 1_555
N3B C12B 1_555 1_555
C17A O5 1_555 1_555
C6 N1 1_555 1_555
C8 C9 1_555 1_555
C11 N2 1_555 1_555
C12 N3 1_555 1_555
C16 N3 1_555 1_555
C2B N1B 1_555 1_555
C6B N1B 1_555 1_555
C8B C9B 1_555 1_555
C11B N2B 1_555 1_555
C13B C14B 1_555 1_555
C16B N3B 1_555 1_555

#END
