
#######################################################################
#
#                 Cambridge Crystallographic Data Centre
#                                CCDC 
#
#######################################################################
#
# If this CIF has been generated from an entry in the Cambridge 
# Structural Database, then it will include bibliographic, chemical, 
# crystal, experimental, refinement or atomic coordinate data resulting 
# from the CCDC's data processing and validation procedures.
#
#######################################################################

data_XOHQUH
_symmetry_cell_setting           monoclinic
_symmetry_space_group_name_H-M   'P 21/c'
_symmetry_Int_Tables_number      14
_space_group_name_Hall           '-P 2ybc'
loop_
_symmetry_equiv_pos_site_id
_symmetry_equiv_pos_as_xyz
1 x,y,z
2 -x,1/2+y,1/2-z
3 -x,-y,-z
4 x,1/2-y,1/2+z
_cell_length_a                   8.4318(12)
_cell_length_b                   12.403(2)
_cell_length_c                   15.087(2)
_cell_angle_alpha                90
_cell_angle_beta                 99.970(3)
_cell_angle_gamma                90
_cell_volume                     1553.97
loop_
_atom_site_label
_atom_site_type_symbol
_atom_site_fract_x
_atom_site_fract_y
_atom_site_fract_z
Mn1 Mn 1.5000 1.0000 0.5000
C1 C 1.1156(3) 0.87085(16) 0.45354(14)
H1 H 1.1953 0.8414 0.4994
C2 C 0.9927(2) 0.80644(16) 0.41028(14)
H2 H 0.9894 0.7324 0.4261
C3 C 0.8731(2) 0.84833(16) 0.34356(13)
C4 C 0.8795(3) 0.95939(17) 0.32760(14)
H3 H 0.7961 0.9925 0.2861
C5 C 1.0043(3) 1.02102(16) 0.37087(14)
H4 H 1.0074 1.0960 0.3586
C6 C 0.5054(3) 0.76216(17) 0.18062(14)
H5 H 0.4101 0.7935 0.1479
C7 C 0.6093(2) 0.82433(16) 0.23968(14)
H6 H 0.5851 0.8982 0.2474
C8 C 0.7501(2) 0.78009(16) 0.28845(13)
C9 C 0.7734(3) 0.66937(17) 0.27849(14)
H7 H 0.8642 0.6352 0.3133
C10 C 0.6662(3) 0.60928(17) 0.21883(14)
H8 H 0.6833 0.5341 0.2130
C11 C 1.3679(3) 0.69951(16) 0.39010(14)
H9 H 1.2820 0.7241 0.3454
C12 C 1.3716(3) 0.59395(16) 0.41809(14)
H10 H 1.2865 0.5466 0.3938
C13 C 1.4995(2) 0.55541(16) 0.48201(13)
C14 C 1.6253(2) 0.62692(16) 0.51073(14)
H11 H 1.7185 0.6023 0.5502
C15 C 1.6165(2) 0.73251(16) 0.48286(14)
H12 H 1.7028 0.7805 0.5037
N1 N 1.1227(2) 0.97566(14) 0.43074(12)
N2 N 0.5371(2) 0.65700(14) 0.16856(12)
N3 N 1.4857(2) 0.76852(13) 0.42588(11)
O1 O 1.24430(18) 1.03714(11) 0.46931(10)
O2 O 0.43821(18) 0.60124(12) 0.10732(10)
O3 O 1.47215(18) 0.87166(11) 0.40306(9)
Mn1C Mn 0.5000 0.5000 0.0000
Mn1_2 Mn 1.5000 0.0000 0.5000
Mn1C_2 Mn 2.5000 0.5000 1.0000
C1C C 2.1156(3) 0.62915(16) 0.95354(14)
H1C H 2.1953 0.6586 0.9994
C2C C 1.9927(2) 0.69356(16) 0.91028(14)
H2C H 1.9894 0.7676 0.9261
C3C C 1.8731(2) 0.65167(16) 0.84356(13)
C4C C 1.8795(3) 0.54061(17) 0.82760(14)
H3C H 1.7961 0.5075 0.7861
C5C C 2.0043(3) 0.47898(16) 0.87087(14)
H4C H 2.0074 0.4040 0.8586
C6C C 1.5054(3) 0.73784(17) 0.68062(14)
H5C H 1.4101 0.7065 0.6479
C7C C 1.6093(2) 0.67567(16) 0.73968(14)
H6C H 1.5851 0.6018 0.7474
C8C C 1.7501(2) 0.71991(16) 0.78845(13)
C9C C 1.7734(3) 0.83063(17) 0.77849(14)
H7C H 1.8642 0.8648 0.8133
C10C C 1.6662(3) 0.89072(17) 0.71883(14)
H8C H 1.6833 0.9659 0.7130
C11B C 1.6321(3) 0.30049(16) 0.60990(14)
H9B H 1.7180 0.2759 0.6546
C12B C 1.6284(3) 0.40605(16) 0.58191(14)
H10B H 1.7135 0.4534 0.6062
C13B C 1.5005(2) 0.44459(16) 0.51799(13)
C14B C 1.3747(2) 0.37308(16) 0.48927(14)
H11B H 1.2815 0.3977 0.4498
C15B C 1.3835(2) 0.26749(16) 0.51714(14)
H12B H 1.2972 0.2195 0.4963
N1C N 2.1227(2) 0.52434(14) 0.93074(12)
N2C N 1.5371(2) 0.84300(14) 0.66856(12)
N3B N 1.5143(2) 0.23148(13) 0.57412(11)
O1C O 2.24430(18) 0.46286(11) 0.96931(10)
O1B O 1.75570(18) 0.96286(11) 0.53069(10)
O2C O 1.43821(18) 0.89876(12) 0.60732(10)
O2A O 1.56179(18) 1.10124(12) 0.39268(10)
O3B O 1.52785(18) 0.12834(11) 0.59694(9)
O3B_2 O 1.52785(18) 1.12834(11) 0.59694(9)
Cl1 Cl 0.92582(6) 0.37348(4) 0.36293(3)
O4 O 1.0370(2) 0.28480(13) 0.37666(14)
O5 O 1.0168(2) 0.47219(13) 0.36784(12)
O6 O 0.8251(2) 0.36457(15) 0.27595(11)
O7 O 0.8277(2) 0.37131(16) 0.43147(12)
loop_
_geom_bond_atom_site_label_1
_geom_bond_atom_site_label_2
_geom_bond_site_symmetry_1
_geom_bond_site_symmetry_2
Mn1 O1 1_555 1_555
C1 H1 1_555 1_555
C2 C1 1_555 1_555
H2 C2 1_555 1_555
C3 C2 1_555 1_555
C4 C3 1_555 1_555
H3 C4 1_555 1_555
C5 C4 1_555 1_555
H4 C5 1_555 1_555
C6 H5 1_555 1_555
C7 C6 1_555 1_555
H6 C7 1_555 1_555
C8 C3 1_555 1_555
C9 C8 1_555 1_555
H7 C9 1_555 1_555
C10 C9 1_555 1_555
H8 C10 1_555 1_555
C11 H9 1_555 1_555
C12 C11 1_555 1_555
H10 C12 1_555 1_555
C13 C12 1_555 1_555
C14 C13 1_555 1_555
H11 C14 1_555 1_555
C15 C14 1_555 1_555
H12 C15 1_555 1_555
N1 C1 1_555 1_555
N2 C6 1_555 1_555
N3 C11 1_555 1_555
O1 N1 1_555 1_555
O2 N2 1_555 1_555
O3 Mn1 1_555 1_555
Cl1 O4 1_555 1_555
O5 Cl1 1_555 1_555
O6 Cl1 1_555 1_555
O7 Cl1 1_555 1_555
Mn1C O2 1_555 1_555
Mn1_2 O3B 1_555 1_555
Mn1C_2 O1C 1_555 1_555
C1C H1C 1_555 1_555
C2C C1C 1_555 1_555
H2C C2C 1_555 1_555
C3C C2C 1_555 1_555
C4C C3C 1_555 1_555
H3C C4C 1_555 1_555
C5C C4C 1_555 1_555
H4C C5C 1_555 1_555
C6C H5C 1_555 1_555
C7C C6C 1_555 1_555
H6C C7C 1_555 1_555
C8C C3C 1_555 1_555
C9C C8C 1_555 1_555
H7C C9C 1_555 1_555
C10C C9C 1_555 1_555
H8C C10C 1_555 1_555
C11B H9B 1_555 1_555
C12B C11B 1_555 1_555
H10B C12B 1_555 1_555
C13B C13 1_555 1_555
C14B C13B 1_555 1_555
H11B C14B 1_555 1_555
C15B C14B 1_555 1_555
H12B C15B 1_555 1_555
N1C C1C 1_555 1_555
N2C C6C 1_555 1_555
N3B C11B 1_555 1_555
O1C N1C 1_555 1_555
O1B Mn1 1_555 1_555
O2C Mn1 1_555 1_555
O2A Mn1 1_555 1_555
O3B N3B 1_555 1_555
O3B_2 Mn1 1_555 1_555
C5 N1 1_555 1_555
C7 C8 1_555 1_555
C10 N2 1_555 1_555
C15 N3 1_555 1_555
N3 O3 1_555 1_555
C5C N1C 1_555 1_555
C7C C8C 1_555 1_555
C10C N2C 1_555 1_555
C12B C13B 1_555 1_555
C15B N3B 1_555 1_555
N2C O2C 1_555 1_555

#END
