
#######################################################################
#
#                 Cambridge Crystallographic Data Centre
#                                CCDC 
#
#######################################################################
#
# If this CIF has been generated from an entry in the Cambridge 
# Structural Database, then it will include bibliographic, chemical, 
# crystal, experimental, refinement or atomic coordinate data resulting 
# from the CCDC's data processing and validation procedures.
#
#######################################################################

data_XOHQER
_symmetry_cell_setting           cubic
_symmetry_space_group_name_H-M   'I 2 3'
_symmetry_Int_Tables_number      197
_space_group_name_Hall           'I 2 2 3'
loop_
_symmetry_equiv_pos_site_id
_symmetry_equiv_pos_as_xyz
1 x,y,z
2 -x,-y,z
3 x,-y,-z
4 z,x,y
5 -x,y,-z
6 -z,-x,y
7 z,-x,-y
8 -z,x,-y
9 y,z,x
10 y,-z,-x
11 -y,z,-x
12 -y,-z,x
13 1/2+x,1/2+y,1/2+z
14 1/2-x,1/2-y,1/2+z
15 1/2+x,1/2-y,1/2-z
16 1/2+z,1/2+x,1/2+y
17 1/2-x,1/2+y,1/2-z
18 1/2-z,1/2-x,1/2+y
19 1/2+z,1/2-x,1/2-y
20 1/2-z,1/2+x,1/2-y
21 1/2+y,1/2+z,1/2+x
22 1/2+y,1/2-z,1/2-x
23 1/2-y,1/2+z,1/2-x
24 1/2-y,1/2-z,1/2+x
_cell_length_a                   15.9737(4)
_cell_length_b                   15.9737(4)
_cell_length_c                   15.9737(4)
_cell_angle_alpha                90
_cell_angle_beta                 90
_cell_angle_gamma                90
_cell_volume                     4075.83
loop_
_atom_site_label
_atom_site_type_symbol
_atom_site_fract_x
_atom_site_fract_y
_atom_site_fract_z
Cu1 Cu 0.0000 1.0000 1.0000
Cu2 Cu 0.16735(6) 1.01483(6) 0.80463(6)
I1 I 0.09396(3) 0.90604(3) 0.90604(3)
S1 S 0.07252(13) 1.09542(10) 0.73437(10)
N1 N 0.2257(4) 1.2581(4) 0.5560(4)
C1 C 0.1304(4) 1.1549(4) 0.6618(4)
C2 C 0.0932(5) 1.2075(4) 0.6044(5)
H1 H 0.0352 1.2086 0.5993
C3 C 0.1420(5) 1.2584(5) 0.5543(5)
H2 H 0.1153 1.2949 0.5176
C4 C 0.2613(5) 1.2061(5) 0.6104(5)
H3 H 0.3195 1.2038 0.6118
C5 C 0.2177(5) 1.1556(5) 0.6648(5)
H4 H 0.2461 1.1223 0.7031
Cu3 Cu 0.0000 1.00000(9) 0.6572
S2 S 0.0000 1.0000 0.5000
Cu2A Cu -0.16735(6) 0.98517(6) 0.80463(6)
Cu2B Cu 0.16735(6) 0.98517(6) 1.19537(6)
Cu2D Cu -0.16735(6) 1.01483(6) 1.19537(6)
Cu2J Cu -0.01483(6) 0.80463(6) 0.83265(6)
Cu2I Cu 0.01483(6) 1.19537(6) 0.83265(6)
Cu2K Cu -0.01483(6) 1.19537(6) 1.16735(6)
Cu2H Cu 0.01483(6) 0.80463(6) 1.16735(6)
Cu2E Cu 0.19537(6) 0.83265(6) 1.01483(6)
Cu2C Cu -0.19537(6) 1.16735(6) 1.01483(6)
Cu2G Cu 0.19537(6) 1.16735(6) 0.98517(6)
Cu2F Cu -0.19537(6) 0.83265(6) 0.98517(6)
Cu2R Cu 0.30463(6) 1.33265(6) 0.48517(6)
Cu2W Cu 0.48517(6) 0.69537(6) 0.66735(6)
Cu2O Cu 0.30463(6) 0.66735(6) 0.51483(6)
Cu2T Cu 0.51483(6) 1.30463(6) 0.66735(6)
Cu2S Cu -0.30463(6) 0.66735(6) 0.48517(6)
Cu2T_2 Cu -0.48517(6) 1.30463(6) 0.66735(6)
Cu2Q Cu -0.30463(6) 1.33265(6) 0.51483(6)
Cu2W_2 Cu -0.51483(6) 0.69537(6) 0.66735(6)
Cu2O_2 Cu 0.30463(6) 0.66735(6) 1.51483(6)
Cu2V Cu 0.48517(6) 1.30463(6) 1.33265(6)
Cu2R_2 Cu 0.30463(6) 1.33265(6) 1.48517(6)
Cu2U Cu 0.51483(6) 0.69537(6) 1.33265(6)
Cu2Q_2 Cu -0.30463(6) 1.33265(6) 1.51483(6)
Cu2U_2 Cu -0.48517(6) 0.69537(6) 1.33265(6)
Cu2S_2 Cu -0.30463(6) 0.66735(6) 1.48517(6)
Cu2V_2 Cu -0.51483(6) 1.30463(6) 1.33265(6)
I1A I -0.09396(3) 1.09396(3) 0.90604(3)
I1B I 0.09396(3) 1.09396(3) 1.09396(3)
I1D I -0.09396(3) 0.90604(3) 1.09396(3)
S1W S 0.40458(10) 0.76563(10) 0.57252(13)
S1G S 0.26563(10) 1.07252(13) 0.90458(10)
S1A S -0.07252(13) 0.90458(10) 0.73437(10)
S1T S -0.40458(10) 1.23437(10) 0.57252(13)
S1F S -0.26563(10) 0.92748(13) 0.90458(10)
S1B S 0.07252(13) 0.90458(10) 1.26563(10)
S1V S 0.40458(10) 1.23437(10) 1.42748(13)
S1E S 0.26563(10) 0.92748(13) 1.09542(10)
S1D S -0.07252(13) 1.09542(10) 1.26563(10)
S1U S -0.40458(10) 0.76563(10) 1.42748(13)
S1C S -0.26563(10) 1.07252(13) 1.09542(10)
S1J S -0.09542(10) 0.73437(10) 0.92748(13)
S1I S 0.09542(10) 1.26563(10) 0.92748(13)
S1K S -0.09542(10) 1.26563(10) 1.07252(13)
S1H S 0.09542(10) 0.73437(10) 1.07252(13)
S1U_2 S 0.59542(10) 0.76563(10) 0.42748(13)
S1V_2 S -0.59542(10) 1.23437(10) 0.42748(13)
N1W N 0.2419(4) 0.9440(4) 0.7257(4)
N1G N 0.4440(4) 1.2257(4) 0.7419(4)
N1A N -0.2257(4) 0.7419(4) 0.5560(4)
N1T N -0.2419(4) 1.0560(4) 0.7257(4)
N1F N -0.4440(4) 0.7743(4) 0.7419(4)
N1B N 0.2257(4) 0.7419(4) 1.4440(4)
N1V N 0.2419(4) 1.0560(4) 1.2743(4)
N1E N 0.4440(4) 0.7743(4) 1.2581(4)
N1D N -0.2257(4) 1.2581(4) 1.4440(4)
N1U N -0.2419(4) 0.9440(4) 1.2743(4)
N1C N -0.4440(4) 1.2257(4) 1.2581(4)
N1O N 0.0560(4) 0.7257(4) 0.7581(4)
N1Q N -0.0560(4) 1.2743(4) 0.7581(4)
N1R N 0.0560(4) 1.2743(4) 1.2419(4)
N1S N -0.0560(4) 0.7257(4) 1.2419(4)
N1P N 0.2743(4) 0.7581(4) 0.9440(4)
N1N N -0.2743(4) 1.2419(4) 0.9440(4)
N1M N 0.2743(4) 1.2419(4) 1.0560(4)
N1L N -0.2743(4) 0.7581(4) 1.0560(4)
C1W C 0.3451(4) 0.8382(4) 0.6304(4)
C1G C 0.3382(4) 1.1304(4) 0.8451(4)
C1A C -0.1304(4) 0.8451(4) 0.6618(4)
C1T C -0.3451(4) 1.1618(4) 0.6304(4)
C1F C -0.3382(4) 0.8696(4) 0.8451(4)
C1B C 0.1304(4) 0.8451(4) 1.3382(4)
C1V C 0.3451(4) 1.1618(4) 1.3696(4)
C1E C 0.3382(4) 0.8696(4) 1.1549(4)
C1D C -0.1304(4) 1.1549(4) 1.3382(4)
C1U C -0.3451(4) 0.8382(4) 1.3696(4)
C1C C -0.3382(4) 1.1304(4) 1.1549(4)
C2W C 0.2925(4) 0.8956(5) 0.5932(5)
C2G C 0.3956(5) 1.0932(5) 0.7925(4)
C2A C -0.0932(5) 0.7925(4) 0.6044(5)
C2T C -0.2925(4) 1.1044(5) 0.5932(5)
C2F C -0.3956(5) 0.9068(5) 0.7925(4)
C2B C 0.0932(5) 0.7925(4) 1.3956(5)
C2V C 0.2925(4) 1.1044(5) 1.4068(5)
C2E C 0.3956(5) 0.9068(5) 1.2075(4)
C2D C -0.0932(5) 1.2075(4) 1.3956(5)
C2U C -0.2925(4) 0.8956(5) 1.4068(5)
C2C C -0.3956(5) 1.0932(5) 1.2075(4)
H1W H 0.2914 0.9007 0.5352
H1G H 0.4007 1.0352 0.7914
H1A H -0.0352 0.7914 0.5993
H1T H -0.2914 1.0993 0.5352
H1F H -0.4007 0.9648 0.7914
H1B H 0.0352 0.7914 1.4007
H1V H 0.2914 1.0993 1.4648
H1E H 0.4007 0.9648 1.2086
H1D H -0.0352 1.2086 1.4007
H1U H -0.2914 0.9007 1.4648
H1C H -0.4007 1.0352 1.2086
C3W C 0.2416(5) 0.9457(5) 0.6420(5)
C3G C 0.4457(5) 1.1420(5) 0.7416(5)
C3A C -0.1420(5) 0.7416(5) 0.5543(5)
C3T C -0.2416(5) 1.0543(5) 0.6420(5)
C3F C -0.4457(5) 0.8580(5) 0.7416(5)
C3B C 0.1420(5) 0.7416(5) 1.4457(5)
C3V C 0.2416(5) 1.0543(5) 1.3580(5)
C3E C 0.4457(5) 0.8580(5) 1.2584(5)
C3D C -0.1420(5) 1.2584(5) 1.4457(5)
C3U C -0.2416(5) 0.9457(5) 1.3580(5)
C3C C -0.4457(5) 1.1420(5) 1.2584(5)
H2W H 0.2051 0.9824 0.6153
H2G H 0.4824 1.1153 0.7051
H2A H -0.1153 0.7051 0.5176
H2T H -0.2051 1.0176 0.6153
H2F H -0.4824 0.8847 0.7051
H2B H 0.1153 0.7051 1.4824
H2V H 0.2051 1.0176 1.3847
H2E H 0.4824 0.8847 1.2949
H2D H -0.1153 1.2949 1.4824
H2U H -0.2051 0.9824 1.3847
H2C H -0.4824 1.1153 1.2949
C4W C 0.2939(5) 0.8896(5) 0.7613(5)
C4G C 0.3896(5) 1.2613(5) 0.7939(5)
C4A C -0.2613(5) 0.7939(5) 0.6104(5)
C4T C -0.2939(5) 1.1104(5) 0.7613(5)
C4F C -0.3896(5) 0.7387(5) 0.7939(5)
C4B C 0.2613(5) 0.7939(5) 1.3896(5)
C4V C 0.2939(5) 1.1104(5) 1.2387(5)
C4E C 0.3896(5) 0.7387(5) 1.2061(5)
C4D C -0.2613(5) 1.2061(5) 1.3896(5)
C4U C -0.2939(5) 0.8896(5) 1.2387(5)
C4C C -0.3896(5) 1.2613(5) 1.2061(5)
H3W H 0.2962 0.8882 0.8195
H3G H 0.3882 1.3195 0.7962
H3A H -0.3195 0.7962 0.6118
H3T H -0.2962 1.1118 0.8195
H3F H -0.3882 0.6805 0.7962
H3B H 0.3195 0.7962 1.3882
H3V H 0.2962 1.1118 1.1805
H3E H 0.3882 0.6805 1.2038
H3D H -0.3195 1.2038 1.3882
H3U H -0.2962 0.8882 1.1805
H3C H -0.3882 1.3195 1.2038
C5W C 0.3444(5) 0.8352(5) 0.7177(5)
C5G C 0.3352(5) 1.2177(5) 0.8444(5)
C5A C -0.2177(5) 0.8444(5) 0.6648(5)
C5T C -0.3444(5) 1.1648(5) 0.7177(5)
C5F C -0.3352(5) 0.7823(5) 0.8444(5)
C5B C 0.2177(5) 0.8444(5) 1.3352(5)
C5V C 0.3444(5) 1.1648(5) 1.2823(5)
C5E C 0.3352(5) 0.7823(5) 1.1556(5)
C5D C -0.2177(5) 1.1556(5) 1.3352(5)
C5U C -0.3444(5) 0.8352(5) 1.2823(5)
C5C C -0.3352(5) 1.2177(5) 1.1556(5)
H4W H 0.3777 0.7969 0.7461
H4G H 0.2969 1.2461 0.8777
H4A H -0.2461 0.8777 0.7031
H4T H -0.3777 1.2031 0.7461
H4F H -0.2969 0.7539 0.8777
H4B H 0.2461 0.8777 1.2969
H4V H 0.3777 1.2031 1.2539
H4E H 0.2969 0.7539 1.1223
H4D H -0.2461 1.1223 1.2969
H4U H -0.3777 0.7969 1.2539
H4C H -0.2969 1.2461 1.1223
Cu3U Cu 0.50000(9) 0.8428 0.5000
Cu3E Cu 0.3428 1.0000 1.00000(9)
Cu3T Cu -0.50000(9) 1.1572 0.5000
Cu3C Cu -0.3428 1.0000 1.00000(9)
Cu3B Cu 0.0000 1.00000(9) 1.3428
Cu3B_2 Cu 0.0000 1.00000(9) 0.3428
Cu3T_2 Cu 0.50000(9) 1.1572 1.5000
Cu3U_2 Cu -0.50000(9) 0.8428 1.5000
Cu3T_3 Cu 0.50000(9) 1.1572 0.5000
Cu3C_2 Cu 0.6572 1.0000 1.00000(9)
S2T S 0.5000 1.0000 0.5000
S2C S 0.5000 1.0000 1.0000
S2T_2 S -0.5000 1.0000 0.5000
S2C_2 S -0.5000 1.0000 1.0000
S2_2 S 0.0000 1.0000 1.5000
loop_
_geom_bond_atom_site_label_1
_geom_bond_atom_site_label_2
_geom_bond_site_symmetry_1
_geom_bond_site_symmetry_2
Cu1 I1 1_555 1_555
Cu2 I1 1_555 1_555
I1 Cu2J 1_555 1_555
S1 Cu2 1_555 1_555
N1 C3 1_555 1_555
C1 S1 1_555 1_555
C2 C1 1_555 1_555
H1 C2 1_555 1_555
C3 C2 1_555 1_555
H2 C3 1_555 1_555
C4 N1 1_555 1_555
H3 C4 1_555 1_555
C5 C1 1_555 1_555
H4 C5 1_555 1_555
Cu3 S1 1_555 1_555
S2 Cu3 1_555 1_555
Cu2A I1A 1_555 1_555
Cu2B I1B 1_555 1_555
Cu2D I1D 1_555 1_555
Cu2J S1A 1_555 1_555
Cu2I S1 1_555 1_555
Cu2K I1B 1_555 1_555
Cu2H I1D 1_555 1_555
Cu2E I1 1_555 1_555
Cu2C I1A 1_555 1_555
Cu2G I1B 1_555 1_555
Cu2F I1D 1_555 1_555
Cu2R N1 1_555 1_555
Cu2W S1W 1_555 1_555
Cu2O S1W 1_555 1_555
Cu2T N1G 1_555 1_555
Cu2S N1A 1_555 1_555
Cu2T_2 S1T 1_555 1_555
Cu2Q S1T 1_555 1_555
Cu2W_2 N1F 1_555 1_555
Cu2O_2 N1B 1_555 1_555
Cu2V S1V 1_555 1_555
Cu2R_2 S1V 1_555 1_555
Cu2U N1E 1_555 1_555
Cu2Q_2 N1D 1_555 1_555
Cu2U_2 S1U 1_555 1_555
Cu2S_2 S1U 1_555 1_555
Cu2V_2 N1C 1_555 1_555
I1A Cu1 1_555 1_555
I1B Cu1 1_555 1_555
I1D Cu1 1_555 1_555
S1W C1W 1_555 1_555
S1G Cu2 1_555 1_555
S1A Cu3 1_555 1_555
S1T C1T 1_555 1_555
S1F Cu2A 1_555 1_555
S1B Cu2B 1_555 1_555
S1V C1V 1_555 1_555
S1E Cu2B 1_555 1_555
S1D Cu2D 1_555 1_555
S1U C1U 1_555 1_555
S1C Cu2D 1_555 1_555
S1J Cu2J 1_555 1_555
S1I Cu2I 1_555 1_555
S1K Cu2K 1_555 1_555
S1H Cu2H 1_555 1_555
S1U_2 Cu3U 1_555 1_555
S1V_2 Cu3T 1_555 1_555
N1W Cu2 1_555 1_555
N1G C3G 1_555 1_555
N1A C3A 1_555 1_555
N1T Cu2A 1_555 1_555
N1F C3F 1_555 1_555
N1B C3B 1_555 1_555
N1V Cu2B 1_555 1_555
N1E C3E 1_555 1_555
N1D C3D 1_555 1_555
N1U Cu2D 1_555 1_555
N1C C3C 1_555 1_555
N1O Cu2J 1_555 1_555
N1Q Cu2I 1_555 1_555
N1R Cu2K 1_555 1_555
N1S Cu2H 1_555 1_555
N1P Cu2E 1_555 1_555
N1N Cu2C 1_555 1_555
N1M Cu2G 1_555 1_555
N1L Cu2F 1_555 1_555
C1W C2W 1_555 1_555
C1G S1G 1_555 1_555
C1A S1A 1_555 1_555
C1T C2T 1_555 1_555
C1F S1F 1_555 1_555
C1B S1B 1_555 1_555
C1V C2V 1_555 1_555
C1E S1E 1_555 1_555
C1D S1D 1_555 1_555
C1U C2U 1_555 1_555
C1C S1C 1_555 1_555
C2W H1W 1_555 1_555
C2G C1G 1_555 1_555
C2A C1A 1_555 1_555
C2T H1T 1_555 1_555
C2F C1F 1_555 1_555
C2B C1B 1_555 1_555
C2V H1V 1_555 1_555
C2E C1E 1_555 1_555
C2D C1D 1_555 1_555
C2U H1U 1_555 1_555
C2C C1C 1_555 1_555
H1G C2G 1_555 1_555
H1A C2A 1_555 1_555
H1F C2F 1_555 1_555
H1B C2B 1_555 1_555
H1E C2E 1_555 1_555
H1D C2D 1_555 1_555
H1C C2C 1_555 1_555
C3W N1W 1_555 1_555
C3G C2G 1_555 1_555
C3A C2A 1_555 1_555
C3T N1T 1_555 1_555
C3F C2F 1_555 1_555
C3B C2B 1_555 1_555
C3V N1V 1_555 1_555
C3E C2E 1_555 1_555
C3D C2D 1_555 1_555
C3U N1U 1_555 1_555
C3C C2C 1_555 1_555
H2W C3W 1_555 1_555
H2G C3G 1_555 1_555
H2A C3A 1_555 1_555
H2T C3T 1_555 1_555
H2F C3F 1_555 1_555
H2B C3B 1_555 1_555
H2V C3V 1_555 1_555
H2E C3E 1_555 1_555
H2D C3D 1_555 1_555
H2U C3U 1_555 1_555
H2C C3C 1_555 1_555
C4W N1W 1_555 1_555
C4G N1G 1_555 1_555
C4A N1A 1_555 1_555
C4T N1T 1_555 1_555
C4F N1F 1_555 1_555
C4B N1B 1_555 1_555
C4V N1V 1_555 1_555
C4E N1E 1_555 1_555
C4D N1D 1_555 1_555
C4U N1U 1_555 1_555
C4C N1C 1_555 1_555
H3W C4W 1_555 1_555
H3G C4G 1_555 1_555
H3A C4A 1_555 1_555
H3T C4T 1_555 1_555
H3F C4F 1_555 1_555
H3B C4B 1_555 1_555
H3V C4V 1_555 1_555
H3E C4E 1_555 1_555
H3D C4D 1_555 1_555
H3U C4U 1_555 1_555
H3C C4C 1_555 1_555
C5W C1W 1_555 1_555
C5G C1G 1_555 1_555
C5A C1A 1_555 1_555
C5T C1T 1_555 1_555
C5F C1F 1_555 1_555
C5B C1B 1_555 1_555
C5V C1V 1_555 1_555
C5E C1E 1_555 1_555
C5D C1D 1_555 1_555
C5U C1U 1_555 1_555
C5C C1C 1_555 1_555
H4W C5W 1_555 1_555
H4G C5G 1_555 1_555
H4A C5A 1_555 1_555
H4T C5T 1_555 1_555
H4F C5F 1_555 1_555
H4B C5B 1_555 1_555
H4V C5V 1_555 1_555
H4E C5E 1_555 1_555
H4D C5D 1_555 1_555
H4U C5U 1_555 1_555
H4C C5C 1_555 1_555
Cu3U S1W 1_555 1_555
Cu3E S1G 1_555 1_555
Cu3T S1T 1_555 1_555
Cu3C S1F 1_555 1_555
Cu3B S1B 1_555 1_555
Cu3B_2 S2 1_555 1_555
Cu3T_2 S1V 1_555 1_555
Cu3U_2 S1U 1_555 1_555
Cu3T_3 S2T 1_555 1_555
Cu3C_2 S2C 1_555 1_555
S2T Cu3U 1_555 1_555
S2C Cu3E 1_555 1_555
S2T_2 Cu3T 1_555 1_555
S2C_2 Cu3C 1_555 1_555
S2_2 Cu3B 1_555 1_555
C4 C5 1_555 1_555
Cu2A S1A 1_555 1_555
Cu2I I1A 1_555 1_555
Cu2K S1D 1_555 1_555
Cu2H S1B 1_555 1_555
Cu2E S1E 1_555 1_555
Cu2E S1H 1_555 1_555
Cu2C S1C 1_555 1_555
Cu2C S1K 1_555 1_555
Cu2G S1G 1_555 1_555
Cu2G S1I 1_555 1_555
Cu2F S1F 1_555 1_555
Cu2F S1J 1_555 1_555
S1E Cu3E 1_555 1_555
S1D Cu3B 1_555 1_555
S1C Cu3C 1_555 1_555
C2W C3W 1_555 1_555
C2T C3T 1_555 1_555
C2V C3V 1_555 1_555
C2U C3U 1_555 1_555
C4W C5W 1_555 1_555
C4G C5G 1_555 1_555
C4A C5A 1_555 1_555
C4T C5T 1_555 1_555
C4F C5F 1_555 1_555
C4B C5B 1_555 1_555
C4V C5V 1_555 1_555
C4E C5E 1_555 1_555
C4D C5D 1_555 1_555
C4U C5U 1_555 1_555
C4C C5C 1_555 1_555

#END
