
#######################################################################
#
#                 Cambridge Crystallographic Data Centre
#                                CCDC 
#
#######################################################################
#
# If this CIF has been generated from an entry in the Cambridge 
# Structural Database, then it will include bibliographic, chemical, 
# crystal, experimental, refinement or atomic coordinate data resulting 
# from the CCDC's data processing and validation procedures.
#
#######################################################################

data_XOHRES
_symmetry_cell_setting           monoclinic
_symmetry_space_group_name_H-M   'P 21/c'
_symmetry_Int_Tables_number      14
_space_group_name_Hall           '-P 2ybc'
loop_
_symmetry_equiv_pos_site_id
_symmetry_equiv_pos_as_xyz
1 x,y,z
2 -x,1/2+y,1/2-z
3 -x,-y,-z
4 x,1/2-y,1/2+z
_cell_length_a                   9.1248(8)
_cell_length_b                   16.8177(15)
_cell_length_c                   7.4667(7)
_cell_angle_alpha                90
_cell_angle_beta                 105.095(1)
_cell_angle_gamma                90
_cell_volume                     1106.29
loop_
_atom_site_label
_atom_site_type_symbol
_atom_site_fract_x
_atom_site_fract_y
_atom_site_fract_z
Cd1 Cd 0.5000 0.0000 0.5000
O1 O 0.43764(13) 0.09818(7) 0.68264(16)
O2 O -0.28155(12) 0.52150(7) 0.23458(16)
O3 O 0.57065(14) 0.10875(8) 0.3575(2)
O4 O 0.72916(14) 0.17546(7) 0.24786(19)
O5 O 0.79813(14) 0.06339(8) 0.3873(2)
N1 N 0.34594(14) 0.15793(8) 0.60961(18)
N2 N -0.17906(14) 0.46452(8) 0.29239(18)
N3 N 0.70107(15) 0.11544(8) 0.32999(18)
C1 C 0.39751(17) 0.23385(10) 0.6312(2)
H1 H 0.5013 0.2439 0.6901
C2 C 0.30037(18) 0.29646(9) 0.5682(2)
H2 H 0.3373 0.3495 0.5841
C3 C 0.14757(17) 0.28212(9) 0.4810(2)
C4 C 0.09978(17) 0.20298(9) 0.4564(2)
H3 H -0.0026 0.1912 0.3941
C5 C 0.19991(17) 0.14209(9) 0.5219(2)
H4 H 0.1661 0.0885 0.5053
C6 C -0.03263(18) 0.47748(9) 0.2915(2)
H5 H -0.0049 0.5266 0.2466
C7 C 0.07638(17) 0.42018(9) 0.3551(2)
H6 H 0.1789 0.4304 0.3559
C8 C 0.03698(17) 0.34717(9) 0.4185(2)
C9 C -0.11445(17) 0.33684(9) 0.4209(2)
H7 H -0.1449 0.2884 0.4659
C10 C -0.22005(17) 0.39583(9) 0.3592(2)
H8 H -0.3222 0.3882 0.3636
Cd1C Cd -0.5000 0.5000 0.0000
Cd1C_2 Cd 1.5000 0.5000 1.0000
O1C O 1.43764(13) 0.40182(7) 1.18264(16)
O1B O 0.56236(13) -0.09818(7) 0.31736(16)
O2C O 0.71845(12) -0.02150(7) 0.73458(16)
O2A O 0.28155(12) 0.02150(7) 0.26542(16)
O3B O 0.42935(14) -0.10875(8) 0.6425(2)
O4B O 0.27084(14) -0.17546(7) 0.75214(19)
O5B O 0.20187(14) -0.06339(8) 0.6127(2)
N1C N 1.34594(14) 0.34207(8) 1.10961(18)
N2C N 0.82094(14) 0.03548(8) 0.79239(18)
N3B N 0.29893(15) -0.11544(8) 0.67001(18)
C1C C 1.39751(17) 0.26615(10) 1.1312(2)
H1C H 1.5013 0.2561 1.1901
C2C C 1.30037(18) 0.20354(9) 1.0682(2)
H2C H 1.3373 0.1505 1.0841
C3C C 1.14757(17) 0.21788(9) 0.9810(2)
C4C C 1.09978(17) 0.29702(9) 0.9564(2)
H3C H 0.9974 0.3088 0.8941
C5C C 1.19991(17) 0.35791(9) 1.0219(2)
H4C H 1.1661 0.4115 1.0053
C6C C 0.96737(18) 0.02252(9) 0.7915(2)
H5C H 0.9951 -0.0266 0.7466
C7C C 1.07638(17) 0.07982(9) 0.8551(2)
H6C H 1.1789 0.0696 0.8559
C8C C 1.03698(17) 0.15283(9) 0.9185(2)
C9C C 0.88555(17) 0.16316(9) 0.9209(2)
H7C H 0.8551 0.2116 0.9659
C10C C 0.77995(17) 0.10417(9) 0.8592(2)
H8C H 0.6778 0.1118 0.8636
loop_
_geom_bond_atom_site_label_1
_geom_bond_atom_site_label_2
_geom_bond_site_symmetry_1
_geom_bond_site_symmetry_2
Cd1 O1 1_555 1_555
O1 N1 1_555 1_555
O2 N2 1_555 1_555
O3 Cd1 1_555 1_555
O4 N3 1_555 1_555
O5 N3 1_555 1_555
N1 C1 1_555 1_555
N2 C6 1_555 1_555
N3 O3 1_555 1_555
C1 H1 1_555 1_555
C2 C1 1_555 1_555
H2 C2 1_555 1_555
C3 C2 1_555 1_555
C4 C3 1_555 1_555
H3 C4 1_555 1_555
C5 N1 1_555 1_555
H4 C5 1_555 1_555
C6 H5 1_555 1_555
C7 C6 1_555 1_555
H6 C7 1_555 1_555
C8 C3 1_555 1_555
C9 C8 1_555 1_555
H7 C9 1_555 1_555
C10 N2 1_555 1_555
H8 C10 1_555 1_555
Cd1C O2 1_555 1_555
Cd1C_2 O1C 1_555 1_555
O1C N1C 1_555 1_555
O1B Cd1 1_555 1_555
O2C Cd1 1_555 1_555
O2A Cd1 1_555 1_555
O3B Cd1 1_555 1_555
O4B N3B 1_555 1_555
O5B N3B 1_555 1_555
N1C C1C 1_555 1_555
N2C O2C 1_555 1_555
N3B O3B 1_555 1_555
C1C H1C 1_555 1_555
C2C C1C 1_555 1_555
H2C C2C 1_555 1_555
C3C C2C 1_555 1_555
C4C C3C 1_555 1_555
H3C C4C 1_555 1_555
C5C N1C 1_555 1_555
H4C C5C 1_555 1_555
C6C N2C 1_555 1_555
H5C C6C 1_555 1_555
C7C C6C 1_555 1_555
H6C C7C 1_555 1_555
C8C C3C 1_555 1_555
C9C C8C 1_555 1_555
H7C C9C 1_555 1_555
C10C N2C 1_555 1_555
H8C C10C 1_555 1_555
C4 C5 1_555 1_555
C7 C8 1_555 1_555
C9 C10 1_555 1_555
C4C C5C 1_555 1_555
C7C C8C 1_555 1_555
C9C C10C 1_555 1_555

#END
