
#######################################################################
#
#                 Cambridge Crystallographic Data Centre
#                                CCDC 
#
#######################################################################
#
# If this CIF has been generated from an entry in the Cambridge 
# Structural Database, then it will include bibliographic, chemical, 
# crystal, experimental, refinement or atomic coordinate data resulting 
# from the CCDC's data processing and validation procedures.
#
#######################################################################

data_XOHSUJ
_symmetry_cell_setting           triclinic
_symmetry_space_group_name_H-M   'P -1'
_symmetry_Int_Tables_number      2
_space_group_name_Hall           '-P 1'
loop_
_symmetry_equiv_pos_site_id
_symmetry_equiv_pos_as_xyz
1 x,y,z
2 -x,-y,-z
_cell_length_a                   6.6108(8)
_cell_length_b                   9.2901(11)
_cell_length_c                   11.2290(13)
_cell_angle_alpha                111.538(2)
_cell_angle_beta                 92.512(2)
_cell_angle_gamma                95.010(2)
_cell_volume                     636.878
loop_
_atom_site_label
_atom_site_type_symbol
_atom_site_fract_x
_atom_site_fract_y
_atom_site_fract_z
H1 H 0.471(5) 0.584(10) 1.139(8)
H2 H 0.271(14) 0.663(7) 1.199(9)
Mn1 Mn 0.24148(9) 0.32147(7) 1.08528(5)
Mn2 Mn -0.09736(9) 0.04535(7) 0.87978(6)
O1 O 0.2369(5) 0.3303(4) 1.2733(3)
O2 O 0.1838(5) 0.0709(3) 0.9894(3)
O3 O 0.3362(5) 0.5719(4) 1.1628(3)
O4 O 0.2519(5) 0.3546(4) 1.9016(3)
O5 O 0.4323(4) 0.7056(4) 1.9385(3)
O6 O 0.0999(4) 0.6999(3) 1.9429(3)
O7 O 0.0782(5) 0.1289(3) 1.3067(3)
O8 O -0.4214(5) 0.0535(4) 0.8414(3)
O9 O -0.0139(5) 0.2005(3) 1.7780(3)
C1 C 0.1300(6) 0.3079(4) 1.8041(3)
C2 C 0.1631(6) 0.3850(4) 1.7081(3)
C3 C 0.1379(6) 0.2951(5) 1.5769(4)
H3 H 0.0868 0.1906 1.5493
C4 C 0.1888(6) 0.3601(5) 1.4865(3)
C5 C 0.2615(6) 0.5172(5) 1.5286(4)
H4 H 0.2966 0.5617 1.4694
C6 C 0.2816(6) 0.6071(5) 1.6582(4)
H5 H 0.3282 0.7124 1.6855
C7 C 0.2334(5) 0.5428(4) 1.7484(3)
C8 C 0.2559(6) 0.6531(4) 1.8868(3)
C9 C 0.1662(6) 0.2652(5) 1.3447(4)
H6 H -0.466(10) 0.145(5) 0.901(5)
H7 H -0.476(8) 0.040(7) 0.758(2)
H8 H 0.279(8) 0.044(6) 0.963(5)
Mn1_2 Mn 0.24148(9) 0.32147(7) 2.08528(5)
Mn1A Mn 0.75852(9) 0.67853(7) 1.91472(5)
Mn1A_2 Mn -0.24148(9) 0.67853(7) 1.91472(5)
Mn2A Mn 0.09736(9) -0.04535(7) 1.12022(6)
Mn2A_2 Mn 0.09736(9) 0.95465(7) 2.12022(6)
Mn2_2 Mn -0.09736(9) 0.04535(7) 1.87978(6)
O2A O -0.1838(5) -0.0709(3) 1.0106(3)
O4_2 O 0.2519(5) 0.3546(4) 0.9016(3)
O5A O 0.5677(4) 0.2944(4) 1.0615(3)
O6A O -0.0999(4) 0.3001(3) 1.0571(3)
O7A O -0.0782(5) -0.1289(3) 0.6933(3)
O9_2 O -0.0139(5) 0.2005(3) 0.7780(3)
H8A H -0.279(8) -0.044(6) 1.037(5)
O10 O 0.3114(7) 0.9740(6) 0.6305(5)
O11 O 0.3571(11) 0.8237(10) 0.3902(6)
loop_
_geom_bond_atom_site_label_1
_geom_bond_atom_site_label_2
_geom_bond_site_symmetry_1
_geom_bond_site_symmetry_2
H1 O3 1_555 1_555
H2 O3 1_555 1_555
Mn1 O1 1_555 1_555
Mn2 O2 1_555 1_555
O1 C9 1_555 1_555
O2 Mn1 1_555 1_555
O3 Mn1 1_555 1_555
O4 C1 1_555 1_555
O5 C8 1_555 1_555
O6 C8 1_555 1_555
O7 C9 1_555 1_555
O8 Mn2 1_555 1_555
O9 C1 1_555 1_555
C1 C2 1_555 1_555
C2 C3 1_555 1_555
C3 H3 1_555 1_555
C4 C3 1_555 1_555
C5 C4 1_555 1_555
H4 C5 1_555 1_555
C6 C5 1_555 1_555
H5 C6 1_555 1_555
C7 C2 1_555 1_555
C8 C7 1_555 1_555
C9 C4 1_555 1_555
H6 O8 1_555 1_555
H7 O8 1_555 1_555
H8 O2 1_555 1_555
Mn1_2 O4 1_555 1_555
Mn1A O5 1_555 1_555
Mn1A_2 O6 1_555 1_555
Mn2A O2 1_555 1_555
Mn2A_2 O6 1_555 1_555
Mn2_2 O9 1_555 1_555
O2A Mn2 1_555 1_555
O4_2 Mn1 1_555 1_555
O5A Mn1 1_555 1_555
O6A Mn1 1_555 1_555
O7A Mn2 1_555 1_555
O9_2 Mn2 1_555 1_555
H8A O2A 1_555 1_555
Mn2 O6A 1_555 1_555
O7 Mn2A 1_555 1_555
C6 C7 1_555 1_555
Mn2A O2A 1_555 1_555

#END
