
#######################################################################
#
#                 Cambridge Crystallographic Data Centre
#                                CCDC 
#
#######################################################################
#
# If this CIF has been generated from an entry in the Cambridge 
# Structural Database, then it will include bibliographic, chemical, 
# crystal, experimental, refinement or atomic coordinate data resulting 
# from the CCDC's data processing and validation procedures.
#
#######################################################################

data_XOHTEU01
_symmetry_cell_setting           triclinic
_symmetry_space_group_name_H-M   'P -1'
_symmetry_Int_Tables_number      2
_space_group_name_Hall           '-P 1'
loop_
_symmetry_equiv_pos_site_id
_symmetry_equiv_pos_as_xyz
1 x,y,z
2 -x,-y,-z
_cell_length_a                   6.7553(12)
_cell_length_b                   7.4407(14)
_cell_length_c                   25.398(5)
_cell_angle_alpha                92.233(3)
_cell_angle_beta                 90.338(3)
_cell_angle_gamma                90.267(3)
_cell_volume                     1275.6
loop_
_atom_site_label
_atom_site_type_symbol
_atom_site_fract_x
_atom_site_fract_y
_atom_site_fract_z
Mn1 Mn -0.5000 -0.5000 0.0000
Mn2 Mn 0.0000 0.0000 0.0000
O1 O -0.4193(6) -0.2533(6) -0.03779(14)
O2 O -0.2851(6) -0.0071(6) 0.04021(15)
H1 H -0.2899 -0.0990 0.0590
H2 H -0.3771 -0.0136 0.0172
O3 O -0.0835(6) 0.2473(5) -0.03812(14)
C1 C -0.3521(8) -0.2644(8) -0.1303(2)
C2 C -0.2929(9) -0.2264(8) -0.0739(2)
C3 C -0.5438(9) -0.3208(10) -0.1431(2)
H3 H -0.6356 -0.3353 -0.1164
C4 C -0.4608(10) -0.3332(9) -0.2336(2)
O4 O -0.1220(6) -0.1642(6) -0.06457(15)
C5 C -0.5984(10) -0.3550(10) -0.1944(2)
H4 H -0.7266 -0.3926 -0.2027
C6 C -0.2712(11) -0.2763(9) -0.2228(2)
H5 H -0.1804 -0.2630 -0.2498
O5 O -0.5182(8) -0.3892(6) -0.28509(16)
C7 C -0.2174(10) -0.2388(9) -0.1704(2)
H6 H -0.0907 -0.1964 -0.1623
C8 C -0.6288(10) -0.2172(10) -0.4123(3)
H7 H -0.6606 -0.2630 -0.4459
C9 C -0.5855(10) -0.3338(9) -0.3732(2)
H8 H -0.5838 -0.4573 -0.3803
C10 C -0.6257(9) -0.0336(10) -0.4026(2)
C11 C -0.5448(10) -0.2642(10) -0.3232(2)
C12 C -0.2124(8) 0.2751(8) -0.0739(2)
O6 O -0.6454(8) 0.2577(7) -0.43608(19)
O7 O -0.0046(8) 0.1212(7) -0.28584(16)
C13 C -0.1555(8) 0.2371(8) -0.1302(2)
C14 C 0.0344(9) 0.1753(9) -0.1433(2)
H9 H 0.1273 0.1568 -0.1169
C15 C -0.0522(11) 0.1716(9) -0.2346(2)
C16 C 0.0838(10) 0.1415(10) -0.1960(3)
H10 H 0.2089 0.0986 -0.2048
C17 C -0.2928(9) 0.2630(8) -0.1702(2)
H11 H -0.4206 0.2995 -0.1618
C18 C -0.5434(10) -0.0820(10) -0.3128(2)
H12 H -0.5155 -0.0370 -0.2789
C19 C -0.6754(11) 0.0895(11) -0.4442(3)
C20 C -0.5824(10) 0.0336(10) -0.3518(2)
H13 H -0.5802 0.1571 -0.3445
C21 C -0.0451(10) 0.2424(10) -0.3253(2)
C22 C -0.0189(11) 0.4251(10) -0.3166(2)
H14 H 0.0261 0.4715 -0.2842
C23 C -0.1026(10) 0.1710(10) -0.3739(2)
H15 H -0.1143 0.0472 -0.3796
C24 C -0.2405(10) 0.2349(10) -0.2223(3)
H16 H -0.3305 0.2582 -0.2490
C25 C -0.1213(9) 0.4693(10) -0.4058(2)
C26 C -0.1427(11) 0.2852(11) -0.4141(3)
H17 H -0.1843 0.2384 -0.4468
C27 C -0.0609(10) 0.5381(10) -0.3572(2)
H18 H -0.0481 0.6619 -0.3516
O8 O -0.3816(6) 0.3328(6) -0.06407(15)
O9 O -0.7420(9) 0.0218(8) -0.48825(19)
H19 H -0.7646 0.1067 -0.5089
O10 O -0.2430(8) 0.5249(7) -0.49104(19)
H20 H -0.2656 0.6091 -0.5119
O11 O -0.1333(8) 0.7591(7) -0.44080(19)
C28 C -0.1720(11) 0.5921(11) -0.4479(3)
O12 O -0.2135(6) -0.5073(6) 0.03893(15)
H21 H -0.1663 -0.6098 0.0455
H22 H -0.1867 -0.4244 0.0619
O1A O -0.5807(6) -0.7467(6) 0.03779(14)
C1A C -0.6479(8) -0.7356(8) 0.1303(2)
C2A C -0.7071(9) -0.7736(8) 0.0739(2)
C3A C -0.4562(9) -0.6792(10) 0.1431(2)
H3A H -0.3644 -0.6647 0.1164
C4A C -0.5392(10) -0.6668(9) 0.2336(2)
O4A O -0.8780(6) -0.8358(6) 0.06457(15)
C5A C -0.4016(10) -0.6450(10) 0.1944(2)
H4A H -0.2734 -0.6074 0.2027
C6A C -0.7288(11) -0.7237(9) 0.2228(2)
H5A H -0.8196 -0.7370 0.2498
O5A O -0.4818(8) -0.6108(6) 0.28509(16)
C7A C -0.7826(10) -0.7612(9) 0.1704(2)
H6A H -0.9093 -0.8036 0.1623
C8A C -0.3712(10) -0.7828(10) 0.4123(3)
H7A H -0.3394 -0.7370 0.4459
C9A C -0.4145(10) -0.6662(9) 0.3732(2)
H8A H -0.4162 -0.5427 0.3803
C10A C -0.3743(9) -0.9664(10) 0.4026(2)
C11A C -0.4552(10) -0.7358(10) 0.3232(2)
O6A O -0.3546(8) -1.2577(7) 0.43608(19)
C18A C -0.4566(10) -0.9180(10) 0.3128(2)
H12A H -0.4845 -0.9630 0.2789
C19A C -0.3246(11) -1.0895(11) 0.4442(3)
C20A C -0.4176(10) -1.0336(10) 0.3518(2)
H13A H -0.4198 -1.1571 0.3445
O9A O -0.2580(9) -1.0218(8) 0.48825(19)
H19A H -0.2354 -1.1067 0.5089
O12A O -0.7865(6) -0.4927(6) -0.03893(15)
H21A H -0.8337 -0.3902 -0.0455
H22A H -0.8133 -0.5756 -0.0619
O3A O -0.9165(6) -0.2473(5) 0.03812(14)
C12A C -0.7876(8) -0.2751(8) 0.0739(2)
O7A O -0.9954(8) -0.1212(7) 0.28584(16)
C13A C -0.8445(8) -0.2371(8) 0.1302(2)
C14A C -1.0344(9) -0.1753(9) 0.1433(2)
H9A H -1.1273 -0.1568 0.1169
C15A C -0.9478(11) -0.1716(9) 0.2346(2)
C16A C -1.0838(10) -0.1415(10) 0.1960(3)
H10A H -1.2089 -0.0986 0.2048
C17A C -0.7072(9) -0.2630(8) 0.1702(2)
H11A H -0.5794 -0.2995 0.1618
C21A C -0.9549(10) -0.2424(10) 0.3253(2)
C22A C -0.9811(11) -0.4251(10) 0.3166(2)
H14A H -1.0261 -0.4715 0.2842
C23A C -0.8974(10) -0.1710(10) 0.3739(2)
H15A H -0.8857 -0.0472 0.3796
C24A C -0.7595(10) -0.2349(10) 0.2223(3)
H16A H -0.6695 -0.2582 0.2490
C25A C -0.8787(9) -0.4693(10) 0.4058(2)
C26A C -0.8573(11) -0.2852(11) 0.4141(3)
H17A H -0.8157 -0.2384 0.4468
C27A C -0.9391(10) -0.5381(10) 0.3572(2)
H18A H -0.9519 -0.6619 0.3516
O8A O -0.6184(6) -0.3328(6) 0.06407(15)
O10A O -0.7570(8) -0.5249(7) 0.49104(19)
H20A H -0.7344 -0.6091 0.5119
O11A O -0.8667(8) -0.7591(7) 0.44080(19)
C28A C -0.8280(11) -0.5921(11) 0.4479(3)
O2A O 0.2851(6) 0.0071(6) -0.04021(15)
H1A H 0.2899 0.0990 -0.0590
H2A H 0.3771 0.0136 -0.0172
Mn1_2 Mn -0.5000 0.5000 0.0000
Mn2_2 Mn -1.0000 -1.0000 0.0000
Mn2_3 Mn -1.0000 0.0000 0.0000
O3A_2 O 0.0835(6) -0.2473(5) 0.03812(14)
O4A_2 O 0.1220(6) 0.1642(6) 0.06457(15)
O8_2 O -0.3816(6) -0.6672(6) -0.06407(15)
loop_
_geom_bond_atom_site_label_1
_geom_bond_atom_site_label_2
_geom_bond_site_symmetry_1
_geom_bond_site_symmetry_2
Mn1 O1 1_555 1_555
Mn2 O2 1_555 1_555
O1 C2 1_555 1_555
O2 H1 1_555 1_555
H2 O2 1_555 1_555
O3 Mn2 1_555 1_555
C1 C2 1_555 1_555
C2 O4 1_555 1_555
C3 C1 1_555 1_555
H3 C3 1_555 1_555
C4 C5 1_555 1_555
O4 Mn2 1_555 1_555
C5 C3 1_555 1_555
H4 C5 1_555 1_555
C6 C4 1_555 1_555
H5 C6 1_555 1_555
O5 C4 1_555 1_555
C7 C1 1_555 1_555
H6 C7 1_555 1_555
C8 H7 1_555 1_555
C9 C8 1_555 1_555
H8 C9 1_555 1_555
C10 C8 1_555 1_555
C11 O5 1_555 1_555
C12 O3 1_555 1_555
O6 C19 1_555 1_555
O7 C15 1_555 1_555
C13 C12 1_555 1_555
C14 C13 1_555 1_555
H9 C14 1_555 1_555
C15 C16 1_555 1_555
C16 C14 1_555 1_555
H10 C16 1_555 1_555
C17 C13 1_555 1_555
H11 C17 1_555 1_555
C18 C11 1_555 1_555
H12 C18 1_555 1_555
C19 C10 1_555 1_555
C20 C10 1_555 1_555
H13 C20 1_555 1_555
C21 O7 1_555 1_555
C22 C21 1_555 1_555
H14 C22 1_555 1_555
C23 C21 1_555 1_555
H15 C23 1_555 1_555
C24 C15 1_555 1_555
H16 C24 1_555 1_555
C25 C26 1_555 1_555
C26 C23 1_555 1_555
H17 C26 1_555 1_555
C27 C22 1_555 1_555
H18 C27 1_555 1_555
O8 C12 1_555 1_555
O9 C19 1_555 1_555
H19 O9 1_555 1_555
O10 H20 1_555 1_555
O11 C28 1_555 1_555
C28 C25 1_555 1_555
O12 Mn1 1_555 1_555
H21 O12 1_555 1_555
H22 O12 1_555 1_555
O1A Mn1 1_555 1_555
C1A C2A 1_555 1_555
C2A O1A 1_555 1_555
C3A C1A 1_555 1_555
H3A C3A 1_555 1_555
C4A C5A 1_555 1_555
O4A C2A 1_555 1_555
C5A C3A 1_555 1_555
H4A C5A 1_555 1_555
C6A C4A 1_555 1_555
H5A C6A 1_555 1_555
O5A C4A 1_555 1_555
C7A C1A 1_555 1_555
H6A C7A 1_555 1_555
C8A H7A 1_555 1_555
C9A C8A 1_555 1_555
H8A C9A 1_555 1_555
C10A C8A 1_555 1_555
C11A O5A 1_555 1_555
O6A C19A 1_555 1_555
C18A C11A 1_555 1_555
H12A C18A 1_555 1_555
C19A C10A 1_555 1_555
C20A C10A 1_555 1_555
H13A C20A 1_555 1_555
O9A C19A 1_555 1_555
H19A O9A 1_555 1_555
O12A Mn1 1_555 1_555
H21A O12A 1_555 1_555
H22A O12A 1_555 1_555
O3A C12A 1_555 1_555
C12A C13A 1_555 1_555
O7A C15A 1_555 1_555
C13A C14A 1_555 1_555
C14A H9A 1_555 1_555
C15A C16A 1_555 1_555
C16A C14A 1_555 1_555
H10A C16A 1_555 1_555
C17A C13A 1_555 1_555
H11A C17A 1_555 1_555
C21A O7A 1_555 1_555
C22A C21A 1_555 1_555
H14A C22A 1_555 1_555
C23A C21A 1_555 1_555
H15A C23A 1_555 1_555
C24A C15A 1_555 1_555
H16A C24A 1_555 1_555
C25A C26A 1_555 1_555
C26A C23A 1_555 1_555
H17A C26A 1_555 1_555
C27A C22A 1_555 1_555
H18A C27A 1_555 1_555
O8A Mn1 1_555 1_555
O10A H20A 1_555 1_555
O11A C28A 1_555 1_555
C28A C25A 1_555 1_555
O2A Mn2 1_555 1_555
H1A O2A 1_555 1_555
H2A O2A 1_555 1_555
Mn1_2 O8 1_555 1_555
Mn2_2 O4A 1_555 1_555
Mn2_3 O3A 1_555 1_555
O3A_2 Mn2 1_555 1_555
O4A_2 Mn2 1_555 1_555
O8_2 Mn1 1_555 1_555
C6 C7 1_555 1_555
C9 C11 1_555 1_555
C17 C24 1_555 1_555
C18 C20 1_555 1_555
C25 C27 1_555 1_555
O10 C28 1_555 1_555
C6A C7A 1_555 1_555
C9A C11A 1_555 1_555
C18A C20A 1_555 1_555
C12A O8A 1_555 1_555
C17A C24A 1_555 1_555
C25A C27A 1_555 1_555
O10A C28A 1_555 1_555

#END
