
#######################################################################
#
#                 Cambridge Crystallographic Data Centre
#                                CCDC 
#
#######################################################################
#
# If this CIF has been generated from an entry in the Cambridge 
# Structural Database, then it will include bibliographic, chemical, 
# crystal, experimental, refinement or atomic coordinate data resulting 
# from the CCDC's data processing and validation procedures.
#
#######################################################################

data_XOHTEU
_symmetry_cell_setting           triclinic
_symmetry_space_group_name_H-M   'P 1'
_symmetry_Int_Tables_number      1
_space_group_name_Hall           'P 1'
loop_
_symmetry_equiv_pos_site_id
_symmetry_equiv_pos_as_xyz
1 x,y,z
_cell_length_a                   5.0218(11)
_cell_length_b                   5.0344(11)
_cell_length_c                   25.438(5)
_cell_angle_alpha                88.593(3)
_cell_angle_beta                 88.101(3)
_cell_angle_gamma                84.484(4)
_cell_volume                     639.64
loop_
_atom_site_label
_atom_site_type_symbol
_atom_site_fract_x
_atom_site_fract_y
_atom_site_fract_z
Mn1 Mn 0.93652(11) 0.46518(11) 0.00031(4)
O1 O 1.2198(7) 0.2019(7) 0.03822(14)
O2 O 0.9809(7) 0.7365(7) -0.06217(14)
O3 O 1.2071(7) 0.1759(7) -0.03731(14)
O4 O 0.6535(7) 0.4287(7) 0.06313(14)
O5 O 0.7744(7) 1.1352(7) -0.03512(14)
O6 O 0.2596(7) 0.6367(8) 0.03612(14)
O7 O 0.3219(15) 0.5518(12) -0.4351(2)
H1 H 0.2902 0.4692 -0.4612
O8 O 0.6522(13) 0.7007(14) -0.4876(2)
O9 O 0.0216(12) 0.6004(12) 0.28300(19)
O10 O 0.2020(17) 1.2411(16) 0.4887(3)
H2 H 0.2606 1.3434 0.5090
O11 O 0.8467(16) 1.3252(13) -0.2800(2)
O12 O 0.5471(12) 1.3615(15) 0.4397(2)
C1 C 0.6031(16) 0.8631(17) -0.4010(3)
C2 C 0.565(2) 0.9917(14) -0.3108(3)
H3 H 0.4845 0.9789 -0.2775
C3 C 0.7598(13) 1.1608(15) -0.3199(3)
C4 C 0.4185(9) 0.5380(9) 0.07164(18)
C5 C 0.3124(12) 0.5645(10) 0.1271(2)
C6 C 0.4863(17) 0.8366(16) -0.3520(3)
H4 H 0.3570 0.7180 -0.3460
C7 C 0.3770(13) 0.4721(14) 0.2194(2)
H5 H 0.4735 0.3887 0.2468
C8 C 0.8744(16) 1.1970(17) -0.3692(3)
H6 H 1.0015 1.3182 -0.3749
C9 C 0.8781(9) 0.9706(9) -0.07070(19)
C10 C 0.4711(11) 0.4529(12) 0.1684(2)
H7 H 0.6397 0.3664 0.1610
C11 C 0.8610(11) 1.0685(12) -0.1264(2)
C12 C 0.7948(14) 1.0464(14) -0.4108(3)
H8 H 0.8682 1.0677 -0.4445
C13 C 0.5266(15) 0.7026(15) -0.4465(3)
C14 C 0.9812(12) 0.8966(11) -0.1667(2)
H9 H 1.0693 0.7316 -0.1577
C15 C 0.9652(14) 0.9781(13) -0.2187(2)
H10 H 1.0464 0.8747 -0.2457
C16 C 0.7120(13) 1.3986(12) -0.1918(2)
H11 H 0.6149 1.5653 -0.1937
C17 C 0.1145(18) 0.7507(14) 0.3205(3)
C18 C 0.2741(15) 1.0591(14) 0.4031(3)
C19 C 0.3167(16) 0.929(2) 0.3126(3)
H12 H 0.3971 0.9453 0.2794
C20 C 0.3956(19) 1.0762(19) 0.3530(3)
H13 H 0.5307 1.1884 0.3469
C21 C -0.0036(19) 0.7313(17) 0.3700(3)
H14 H -0.1323 0.6125 0.3766
C22 C 0.088(2) 0.647(3) 0.2308(3)
C23 C 0.3487(18) 1.2337(16) 0.4445(3)
C24 C 0.0694(19) 0.8884(19) 0.4099(3)
H15 H -0.0202 0.8810 0.4424
C25 C -0.0335(13) 0.7269(14) 0.1920(3)
H16 H -0.1988 0.8274 0.1937
C26 C 0.112(2) 0.646(2) 0.1402(2)
H17 H -0.0011 0.6740 0.1120
C27 C 0.795(3) 1.269(3) -0.2307(3)
C28 C 0.786(3) 1.257(3) -0.1415(6)
H18 H 0.7568 1.3749 -0.1139
H19 H 1.410(3) 0.18(4) 0.039(7)
H20 H 1.172(12) 0.026(12) 0.045(2)
H21 H 1.23(3) -0.012(4) -0.032(5)
H22 H 1.36(3) 0.12(5) -0.017(7)
Mn1_2 Mn 0.93652(11) 1.46518(11) 0.00031(4)
Mn1_3 Mn -0.06348(11) 0.46518(11) 0.00031(4)
O5_2 O 0.7744(7) 0.1352(7) -0.03512(14)
O6_2 O 1.2596(7) 0.6367(8) 0.03612(14)
loop_
_geom_bond_atom_site_label_1
_geom_bond_atom_site_label_2
_geom_bond_site_symmetry_1
_geom_bond_site_symmetry_2
Mn1 O1 1_555 1_555
O1 H19 1_555 1_555
O2 Mn1 1_555 1_555
O3 Mn1 1_555 1_555
O4 Mn1 1_555 1_555
O5 C9 1_555 1_555
O6 C4 1_555 1_555
O7 H1 1_555 1_555
O8 C13 1_555 1_555
O9 C17 1_555 1_555
O10 H2 1_555 1_555
O11 C3 1_555 1_555
O12 C23 1_555 1_555
C1 C6 1_555 1_555
C2 H3 1_555 1_555
C3 C2 1_555 1_555
C4 O4 1_555 1_555
C5 C4 1_555 1_555
C6 C2 1_555 1_555
H4 C6 1_555 1_555
C7 H5 1_555 1_555
C8 C3 1_555 1_555
H6 C8 1_555 1_555
C9 O2 1_555 1_555
C10 C5 1_555 1_555
H7 C10 1_555 1_555
C11 C9 1_555 1_555
C12 C1 1_555 1_555
H8 C12 1_555 1_555
C13 O7 1_555 1_555
C14 C11 1_555 1_555
H9 C14 1_555 1_555
C15 C14 1_555 1_555
H10 C15 1_555 1_555
C16 H11 1_555 1_555
C17 C19 1_555 1_555
C18 C20 1_555 1_555
C19 H12 1_555 1_555
C20 C19 1_555 1_555
H13 C20 1_555 1_555
C21 C17 1_555 1_555
H14 C21 1_555 1_555
C22 O9 1_555 1_555
C23 O10 1_555 1_555
C24 C18 1_555 1_555
H15 C24 1_555 1_555
C25 C22 1_555 1_555
H16 C25 1_555 1_555
C26 C5 1_555 1_555
H17 C26 1_555 1_555
C27 O11 1_555 1_555
C28 C11 1_555 1_555
H18 C28 1_555 1_555
H20 O1 1_555 1_555
H21 O3 1_555 1_555
H22 O3 1_555 1_555
Mn1_2 O5 1_555 1_555
Mn1_3 O6 1_555 1_555
O5_2 Mn1 1_555 1_555
O6_2 Mn1 1_555 1_555
C1 C13 1_555 1_555
C7 C10 1_555 1_555
C7 C22 1_555 1_555
C8 C12 1_555 1_555
C15 C27 1_555 1_555
C16 C27 1_555 1_555
C16 C28 1_555 1_555
C18 C23 1_555 1_555
C21 C24 1_555 1_555
C25 C26 1_555 1_555

#END
