
#######################################################################
#
#                 Cambridge Crystallographic Data Centre
#                                CCDC 
#
#######################################################################
#
# If this CIF has been generated from an entry in the Cambridge 
# Structural Database, then it will include bibliographic, chemical, 
# crystal, experimental, refinement or atomic coordinate data resulting 
# from the CCDC's data processing and validation procedures.
#
#######################################################################

data_XOHTOE
_symmetry_cell_setting           triclinic
_symmetry_space_group_name_H-M   'P -1'
_symmetry_Int_Tables_number      2
_space_group_name_Hall           '-P 1'
loop_
_symmetry_equiv_pos_site_id
_symmetry_equiv_pos_as_xyz
1 x,y,z
2 -x,-y,-z
_cell_length_a                   6.3999(14)
_cell_length_b                   7.3424(15)
_cell_length_c                   10.868(2)
_cell_angle_alpha                92.197(4)
_cell_angle_beta                 100.979(3)
_cell_angle_gamma                100.017(4)
_cell_volume                     492.354
loop_
_atom_site_label
_atom_site_type_symbol
_atom_site_fract_x
_atom_site_fract_y
_atom_site_fract_z
H1 H 0.100(9) 0.245(6) 0.546(4)
H2 H 0.142(8) 0.311(8) 0.416(3)
Mn1 Mn 0.27188(8) 0.62321(8) 0.58117(5)
O1 O 0.3229(5) 0.7212(4) 0.4094(3)
O2 O 0.4780(5) 0.5060(4) 0.3323(3)
O3 O 0.5820(4) 1.1089(4) 0.3268(2)
O4 O 0.1304(4) 0.5674(4) -0.2501(2)
O5 O 0.0845(4) 0.3350(4) 0.4868(2)
O6 O 0.2044(4) 0.3484(4) -0.1201(3)
O7 O 0.2326(4) 1.1147(4) 0.3231(3)
C1 C 0.1844(5) 0.5189(5) -0.1439(3)
C2 C 0.2318(5) 0.6497(5) -0.0303(3)
C3 C 0.2934(5) 0.5902(5) 0.0898(3)
H3 H 0.3062 0.4670 0.0991
C4 C 0.3357(5) 0.7146(5) 0.1954(3)
C5 C 0.3202(5) 0.9013(5) 0.1799(3)
C6 C 0.2599(6) 0.9589(5) 0.0611(3)
H4 H 0.2506 1.0827 0.0513
C7 C 0.2130(6) 0.8342(5) -0.0441(4)
H5 H 0.1690 0.8738 -0.1235
C8 C 0.3853(5) 0.6425(5) 0.3222(3)
C9 C 0.3800(5) 1.0507(5) 0.2873(3)
H8 H 0.183(10) 0.287(10) -0.180(7)
H1A H -0.100(9) 0.755(6) 0.454(4)
H2A H -0.142(8) 0.689(8) 0.584(3)
Mn1A Mn 0.72812(8) 0.37679(8) 0.41883(5)
Mn1A_2 Mn 0.72812(8) 1.37679(8) 0.41883(5)
Mn1_2 Mn 0.27188(8) 0.62321(8) -0.41883(5)
Mn1A_3 Mn -0.27188(8) 0.37679(8) 0.41883(5)
O2A O 0.5220(5) 0.4940(4) 0.6677(3)
O3A O 0.4180(4) 0.8911(4) 0.6732(2)
O4_2 O 0.1304(4) 0.5674(4) 0.7499(2)
O5A O -0.0845(4) 0.6650(4) 0.5132(2)
O8 O 0.1318(5) 0.1202(4) 0.6810(3)
H6 H 0.215(9) 0.056(8) 0.676(6)
H7 H 0.022(10) 0.050(9) 0.682(6)
loop_
_geom_bond_atom_site_label_1
_geom_bond_atom_site_label_2
_geom_bond_site_symmetry_1
_geom_bond_site_symmetry_2
H1 O5 1_555 1_555
H2 O5 1_555 1_555
Mn1 O1 1_555 1_555
O1 C8 1_555 1_555
O2 C8 1_555 1_555
O3 C9 1_555 1_555
O4 C1 1_555 1_555
O5 Mn1 1_555 1_555
O6 C1 1_555 1_555
O7 C9 1_555 1_555
O8 H6 1_555 1_555
C1 C2 1_555 1_555
C2 C3 1_555 1_555
C3 H3 1_555 1_555
C4 C3 1_555 1_555
C5 C4 1_555 1_555
C6 C5 1_555 1_555
H4 C6 1_555 1_555
C7 C2 1_555 1_555
H5 C7 1_555 1_555
C8 C4 1_555 1_555
C9 C5 1_555 1_555
H7 O8 1_555 1_555
H8 O6 1_555 1_555
H1A O5A 1_555 1_555
H2A O5A 1_555 1_555
Mn1A O2 1_555 1_555
Mn1A_2 O3 1_555 1_555
Mn1_2 O4 1_555 1_555
Mn1A_3 O5 1_555 1_555
O2A Mn1 1_555 1_555
O3A Mn1 1_555 1_555
O4_2 Mn1 1_555 1_555
O5A Mn1 1_555 1_555
C6 C7 1_555 1_555
Mn1A_3 O5A 1_555 1_555

#END
