
#######################################################################
#
#                 Cambridge Crystallographic Data Centre
#                                CCDC 
#
#######################################################################
#
# If this CIF has been generated from an entry in the Cambridge 
# Structural Database, then it will include bibliographic, chemical, 
# crystal, experimental, refinement or atomic coordinate data resulting 
# from the CCDC's data processing and validation procedures.
#
#######################################################################

data_XOHTUJ
_symmetry_cell_setting           monoclinic
_symmetry_space_group_name_H-M   'P 21/c'
_symmetry_Int_Tables_number      14
_space_group_name_Hall           '-P 2ybc'
loop_
_symmetry_equiv_pos_site_id
_symmetry_equiv_pos_as_xyz
1 x,y,z
2 x,1/2-y,1/2+z
3 -x,-y,-z
4 -x,1/2+y,1/2-z
_cell_length_a                   18.837(2)
_cell_length_b                   15.021(2)
_cell_length_c                   14.950(2)
_cell_angle_alpha                90.00
_cell_angle_beta                 109.520(10)
_cell_angle_gamma                90.00
_cell_volume                     3986.99
loop_
_atom_site_label
_atom_site_type_symbol
_atom_site_fract_x
_atom_site_fract_y
_atom_site_fract_z
Cl3 Cl 0.2365(4) 0.1638(4) 0.2000(5)
Cl4 Cl 0.2998(4) 0.0799(5) 0.3857(4)
C17 C 0.2706(13) 0.0629(14) 0.2617(17)
H17 H 0.2295 0.0194 0.2444
C18 C 0.3308(13) 0.0272(14) 0.2392(19)
H18 H 0.3488 -0.0257 0.2787
Cl5 Cl 0.2970(4) -0.0081(3) 0.1142(4)
Cl6 Cl 0.4084(4) 0.1001(5) 0.2561(7)
C21 C -0.0561(17) 0.604(3) 0.519(3)
H19 H -0.1085 0.6166 0.4880
H20 H -0.0375 0.6390 0.5761
H21 H -0.0500 0.5418 0.5355
C22 C -0.0122(15) 0.626(2) 0.454(2)
H22 H -0.0290 0.5878 0.3983
H23 H -0.0227 0.6872 0.4322
C23 C 0.0701(13) 0.6151(15) 0.500(2)
H24 H 0.0944 0.6688 0.4885
H25 H 0.0802 0.6113 0.5679
C24 C 0.1063(16) 0.5396(16) 0.472(3)
H26 H 0.0988 0.5484 0.4056
H27 H 0.1598 0.5476 0.5054
O7 O -0.0929(15) 0.5489(15) 0.5186(19)
C24B C -0.1063(16) 0.4604(16) 0.528(3)
C23B C -0.0701(13) 0.3849(15) 0.500(2)
C22B C 0.0122(15) 0.374(2) 0.546(2)
C21B C 0.0561(17) 0.396(3) 0.481(3)
H19B H 0.1085 0.3834 0.5120
O7B O 0.0929(15) 0.4511(15) 0.4814(19)
H20B H 0.0375 0.3610 0.4239
H21B H 0.0500 0.4582 0.4645
H22B H 0.0290 0.4122 0.6017
H23B H 0.0227 0.3128 0.5678
H24B H -0.0944 0.3312 0.5115
H25B H -0.0802 0.3887 0.4321
H26B H -0.0988 0.4516 0.5944
H27B H -0.1598 0.4524 0.4946
Ru1 Ru 0.74738(5) 0.98933(6) 0.25290(7)
Ag1 Ag 0.87054(7) 0.88098(9) 0.53916(9)
Ag2 Ag 0.62555(6) 1.16217(9) -0.00581(9)
Cl1 Cl 0.73163(18) 1.0810(2) 0.1167(2)
Cl2 Cl 0.76564(19) 0.8896(2) 0.3842(2)
C1 C 0.6183(7) 0.8597(9) 0.1858(9)
H1 H 0.6551 0.8169 0.2114
C2 C 0.8502(8) 0.8463(9) 0.2296(10)
H2 H 0.8795 0.8632 0.2907
C3 C 0.8835(7) 1.0609(8) 0.4011(10)
H3 H 0.8540 1.0541 0.4396
C4 C 0.5443(8) 0.8326(9) 0.1392(10)
H4 H 0.5332 0.7721 0.1334
C5 C 0.7734(8) 0.7910(10) 0.0563(10)
H5 H 0.7447 0.7730 -0.0046
C6 C 0.7486(8) 0.8622(10) 0.0964(9)
H6 H 0.7051 0.8921 0.0607
C7 C 0.7295(8) 1.1743(9) 0.3182(10)
H7 H 0.7566 1.1902 0.2788
C8 C 0.9012(7) 1.0490(9) 0.2587(10)
H8 H 0.8840 1.0339 0.1946
C9 C 0.5801(7) 1.0038(9) 0.1582(10)
H9 H 0.5899 1.0646 0.1634
C10 C 0.6719(8) 1.0730(9) 0.3812(10)
H10 H 0.6582 1.0146 0.3883
C11 C 0.5094(8) 0.9757(10) 0.1146(10)
H11 H 0.4720 1.0183 0.0911
C12 C 0.8748(8) 0.7767(10) 0.1864(11)
H12 H 0.9203 0.7491 0.2189
C13 C 0.9549(8) 1.0944(10) 0.4391(10)
H13 H 0.9716 1.1120 0.5024
C14 C 0.9722(8) 1.0818(9) 0.2978(11)
H14 H 1.0013 1.0897 0.2589
C15 C 0.6506(9) 1.1399(11) 0.4310(11)
H15 H 0.6218 1.1253 0.4687
C16 C 0.7093(9) 1.2371(9) 0.3690(11)
H16 H 0.7242 1.2953 0.3634
N1 N 0.4897(6) 0.8909(8) 0.1031(8)
N2 N 0.6376(5) 0.9460(7) 0.1948(7)
N3 N 0.7859(6) 0.8900(7) 0.1867(7)
N4 N 0.8351(6) 0.7482(8) 0.0997(8)
N5 N 0.8553(6) 1.0378(7) 0.3093(8)
N6 N 1.0019(7) 1.1031(8) 0.3892(9)
N7 N 0.7110(6) 1.0891(7) 0.3238(8)
N8 N 0.6700(7) 1.2231(8) 0.4265(9)
S1 S 0.5491(3) 1.2814(4) 0.1471(4)
O1 O 0.5500(14) 1.2167(13) 0.0784(15)
O2 O 0.5395(11) 1.2410(15) 0.2272(12)
O3 O 0.6107(12) 1.3396(14) 0.1676(19)
S2 S 0.8994(3) 1.0857(3) 0.6790(4)
O4 O 0.9013(9) 1.0409(11) 0.7627(8)
O5 O 0.9681(6) 1.1211(9) 0.6771(11)
O6 O 0.8557(8) 1.0413(9) 0.5945(8)
C19 C 0.4669(14) 1.3380(15) 0.0891(16)
F1 F 0.4718(14) 1.3791(17) 0.0142(17)
F2 F 0.4535(17) 1.3972(19) 0.1446(17)
F3 F 0.4096(11) 1.284(2) 0.061(2)
C20 C 0.8452(10) 1.1835(15) 0.6784(13)
F4 F 0.7778(7) 1.1641(10) 0.6785(12)
F5 F 0.8391(11) 1.2298(12) 0.6017(15)
F6 F 0.8791(10) 1.2328(11) 0.7530(14)
Ag1A Ag 0.87054(7) 0.61902(9) 0.03916(9)
Ag2B Ag 0.37445(6) 0.83783(9) 0.00581(9)
C2A C 0.8502(8) 0.6537(9) 0.7296(10)
H2A H 0.8795 0.6368 0.7907
C5A C 0.7734(8) 0.7090(10) 0.5563(10)
H5A H 0.7447 0.7270 0.4954
C6A C 0.7486(8) 0.6378(10) 0.5964(9)
H6A H 0.7051 0.6079 0.5607
C12A C 0.8748(8) 0.7233(10) 0.6864(11)
H12A H 0.9203 0.7509 0.7189
N3A N 0.7859(6) 0.6100(7) 0.6867(7)
N4A N 0.8351(6) 0.7518(8) 0.5997(8)
C3B C 1.1165(7) 0.9391(8) 0.5989(10)
H3B H 1.1460 0.9459 0.5604
C8B C 1.0988(7) 0.9510(9) 0.7413(10)
H8B H 1.1160 0.9661 0.8054
C13B C 1.0451(8) 0.9056(10) 0.5609(10)
H13B H 1.0284 0.8880 0.4976
C14B C 1.0278(8) 0.9182(9) 0.7022(11)
H14B H 0.9987 0.9103 0.7411
N5B N 1.1447(6) 0.9622(7) 0.6907(8)
N6B N 0.9981(7) 0.8969(8) 0.6108(9)
C1B C 0.3817(7) 1.1403(9) -0.1858(9)
H1B H 0.3449 1.1831 -0.2114
C4B C 0.4557(8) 1.1674(9) -0.1392(10)
H4B H 0.4668 1.2279 -0.1334
C9B C 0.4199(7) 0.9962(9) -0.1582(10)
H9B H 0.4101 0.9354 -0.1634
C11B C 0.4906(8) 1.0243(10) -0.1146(10)
H11B H 0.5280 0.9817 -0.0911
N1B N 0.5103(6) 1.1091(8) -0.1031(8)
N2B N 0.3624(5) 1.0540(7) -0.1948(7)
C7A C 0.7295(8) 1.3257(9) -0.1818(10)
H7A H 0.7566 1.3098 -0.2212
C10A C 0.6719(8) 1.4270(9) -0.1188(10)
H10A H 0.6582 1.4854 -0.1117
C15A C 0.6506(9) 1.3601(11) -0.0690(11)
H15A H 0.6218 1.3747 -0.0313
C16A C 0.7093(9) 1.2629(9) -0.1310(11)
H16A H 0.7242 1.2047 -0.1366
N7A N 0.7110(6) 1.4109(7) -0.1762(8)
N8A N 0.6700(7) 1.2769(8) -0.0735(9)
Cl2A Cl 0.76564(19) 0.6104(2) -0.1158(2)
S2A S 0.8994(3) 0.4143(3) 0.1790(4)
O4A O 0.9013(9) 0.4591(11) 0.2627(8)
O5A O 0.9681(6) 0.3789(9) 0.1771(11)
O6A O 0.8557(8) 0.4587(9) 0.0945(8)
C20A C 0.8452(10) 0.3165(15) 0.1784(13)
F4A F 0.7778(7) 0.3359(10) 0.1785(12)
F5A F 0.8391(11) 0.2702(12) 0.1017(15)
F6A F 0.8791(10) 0.2672(11) 0.2530(14)
Cl1B Cl 0.26837(18) 0.9190(2) -0.1167(2)
S1B S 0.4509(3) 0.7186(4) -0.1471(4)
O1B O 0.4500(14) 0.7833(13) -0.0784(15)
O2B O 0.4605(11) 0.7590(15) -0.2272(12)
O3B O 0.3893(12) 0.6604(14) -0.1676(19)
C19B C 0.5331(14) 0.6620(15) -0.0891(16)
F1B F 0.5282(14) 0.6209(17) -0.0142(17)
F2B F 0.5465(17) 0.6028(19) -0.1446(17)
F3B F 0.5904(11) 0.716(2) -0.061(2)
Ru1B Ru 0.25262(5) 1.01067(6) -0.25290(7)
Ag1B Ag 1.12946(7) 1.11902(9) 0.46084(9)
Ag2A Ag 0.62555(6) 1.33783(9) 0.49419(9)
N6C N 0.9981(7) 0.6031(8) 0.1108(9)
N8C N 0.3300(7) 0.7231(8) 0.0735(9)
Ru1A Ru 0.74738(5) 0.51067(6) 0.75290(7)
Ru1B_2 Ru 1.25262(5) 1.01067(6) 0.74710(7)
Ru1A_2 Ru 0.74738(5) 1.51067(6) -0.24710(7)
Ru1A_3 Ru 0.74738(5) 0.51067(6) -0.24710(7)
Cl2B Cl 0.23436(19) 1.1104(2) -0.3842(2)
N3B N 0.2141(6) 1.1100(7) -0.1867(7)
N5B_2 N 0.1447(6) 0.9622(7) -0.3093(8)
N7B N 0.2890(6) 0.9109(7) -0.3238(8)
H28? H 0.0924 0.4246 0.4333
loop_
_geom_bond_atom_site_label_1
_geom_bond_atom_site_label_2
_geom_bond_site_symmetry_1
_geom_bond_site_symmetry_2
Ru1 Cl1 1_555 1_555
Ag1 Cl2 1_555 1_555
Ag2 Cl1 1_555 1_555
Cl2 Ru1 1_555 1_555
C1 H1 1_555 1_555
C2 H2 1_555 1_555
C3 H3 1_555 1_555
C4 C1 1_555 1_555
H4 C4 1_555 1_555
C5 H5 1_555 1_555
C6 C5 1_555 1_555
H6 C6 1_555 1_555
C7 H7 1_555 1_555
C8 H8 1_555 1_555
C9 H9 1_555 1_555
C10 H10 1_555 1_555
C11 C9 1_555 1_555
H11 C11 1_555 1_555
C12 C2 1_555 1_555
H12 C12 1_555 1_555
C13 C3 1_555 1_555
H13 C13 1_555 1_555
C14 C8 1_555 1_555
H14 C14 1_555 1_555
C15 C10 1_555 1_555
H15 C15 1_555 1_555
C16 C7 1_555 1_555
H16 C16 1_555 1_555
N1 C4 1_555 1_555
N2 Ru1 1_555 1_555
N3 Ru1 1_555 1_555
N4 C5 1_555 1_555
N5 Ru1 1_555 1_555
N6 C13 1_555 1_555
N7 Ru1 1_555 1_555
N8 C15 1_555 1_555
Cl3 C17 1_555 1_555
Cl4 C17 1_555 1_555
C17 H17 1_555 1_555
C18 C17 1_555 1_555
H18 C18 1_555 1_555
Cl5 C18 1_555 1_555
Cl6 C18 1_555 1_555
S1 O1 1_555 1_555
O1 Ag2 1_555 1_555
O2 S1 1_555 1_555
O3 S1 1_555 1_555
S2 O4 1_555 1_555
O5 S2 1_555 1_555
O6 Ag1 1_555 1_555
C19 S1 1_555 1_555
F1 C19 1_555 1_555
F2 C19 1_555 1_555
F3 C19 1_555 1_555
C20 S2 1_555 1_555
F4 C20 1_555 1_555
F5 C20 1_555 1_555
F6 C20 1_555 1_555
C21 H19 1_555 1_555
H19 O7 1_555 1_555
H20 C21 1_555 1_555
H21 C21 1_555 1_555
C22 C21 1_555 1_555
H22 C22 1_555 1_555
H23 C22 1_555 1_555
C23 C22 1_555 1_555
H24 C23 1_555 1_555
H25 C23 1_555 1_555
C24 C23 1_555 1_555
H26 C24 1_555 1_555
H27 C24 1_555 1_555
O7 C21 1_555 1_555
C24B O7 1_555 1_555
C23B C24B 1_555 1_555
C22B C23B 1_555 1_555
C21B C22B 1_555 1_555
H19B C21B 1_555 1_555
O7B C24 1_555 1_555
H20B C21B 1_555 1_555
H21B C21B 1_555 1_555
H22B C22B 1_555 1_555
H23B C22B 1_555 1_555
H24B C23B 1_555 1_555
H25B C23B 1_555 1_555
H26B C24B 1_555 1_555
H27B C24B 1_555 1_555
Ag1A N4 1_555 1_555
Ag2B N1 1_555 1_555
C2A H2A 1_555 1_555
C5A H5A 1_555 1_555
C6A C5A 1_555 1_555
H6A C6A 1_555 1_555
C12A C2A 1_555 1_555
H12A C12A 1_555 1_555
N3A C2A 1_555 1_555
N4A Ag1 1_555 1_555
C3B H3B 1_555 1_555
C8B H8B 1_555 1_555
C13B C3B 1_555 1_555
H13B C13B 1_555 1_555
C14B C8B 1_555 1_555
H14B C14B 1_555 1_555
N5B C3B 1_555 1_555
N6B Ag1 1_555 1_555
C1B H1B 1_555 1_555
C4B C1B 1_555 1_555
H4B C4B 1_555 1_555
C9B H9B 1_555 1_555
C11B C9B 1_555 1_555
H11B C11B 1_555 1_555
N1B Ag2 1_555 1_555
N2B C1B 1_555 1_555
C7A H7A 1_555 1_555
C10A H10A 1_555 1_555
C15A C10A 1_555 1_555
H15A C15A 1_555 1_555
C16A C7A 1_555 1_555
H16A C16A 1_555 1_555
N7A C7A 1_555 1_555
N8A Ag2 1_555 1_555
Cl2A Ag1A 1_555 1_555
S2A O4A 1_555 1_555
O5A S2A 1_555 1_555
O6A Ag1A 1_555 1_555
C20A S2A 1_555 1_555
F4A C20A 1_555 1_555
F5A C20A 1_555 1_555
F6A C20A 1_555 1_555
Cl1B Ag2B 1_555 1_555
S1B O1B 1_555 1_555
O1B Ag2B 1_555 1_555
O2B S1B 1_555 1_555
O3B S1B 1_555 1_555
C19B S1B 1_555 1_555
F1B C19B 1_555 1_555
F2B C19B 1_555 1_555
F3B C19B 1_555 1_555
Ru1B N2B 1_555 1_555
Ag1B N6 1_555 1_555
Ag2A N8 1_555 1_555
N6C Ag1A 1_555 1_555
N8C Ag2B 1_555 1_555
Ru1A N3A 1_555 1_555
Ru1B_2 N5B 1_555 1_555
Ru1A_2 N7A 1_555 1_555
Ru1A_3 Cl2A 1_555 1_555
Cl2B Ru1B 1_555 1_555
N3B Ru1B 1_555 1_555
N5B_2 Ru1B 1_555 1_555
N7B Ru1B 1_555 1_555
C1 N2 1_555 1_555
C2 N3 1_555 1_555
C3 N5 1_555 1_555
C6 N3 1_555 1_555
C7 N7 1_555 1_555
C8 N5 1_555 1_555
C9 N2 1_555 1_555
C10 N7 1_555 1_555
C11 N1 1_555 1_555
C12 N4 1_555 1_555
C14 N6 1_555 1_555
C16 N8 1_555 1_555
S2 O6 1_555 1_555
H21 O7 1_555 1_555
C21B O7B 1_555 1_555
H19B O7B 1_555 1_555
O7B H21B 1_555 1_555
C5A N4A 1_555 1_555
C6A N3A 1_555 1_555
C12A N4A 1_555 1_555
C8B N5B 1_555 1_555
C13B N6B 1_555 1_555
C14B N6B 1_555 1_555
C4B N1B 1_555 1_555
C9B N2B 1_555 1_555
C11B N1B 1_555 1_555
C10A N7A 1_555 1_555
C15A N8A 1_555 1_555
C16A N8A 1_555 1_555
S2A O6A 1_555 1_555
Cl1B Ru1B 1_555 1_555

#END
