
#######################################################################
#
#                 Cambridge Crystallographic Data Centre
#                                CCDC 
#
#######################################################################
#
# If this CIF has been generated from an entry in the Cambridge 
# Structural Database, then it will include bibliographic, chemical, 
# crystal, experimental, refinement or atomic coordinate data resulting 
# from the CCDC's data processing and validation procedures.
#
#######################################################################

data_XOHTOE01
_symmetry_cell_setting           triclinic
_symmetry_space_group_name_H-M   'P -1'
_symmetry_Int_Tables_number      2
_space_group_name_Hall           '-P 1'
loop_
_symmetry_equiv_pos_site_id
_symmetry_equiv_pos_as_xyz
1 x,y,z
2 -x,-y,-z
_cell_length_a                   6.4084(6)
_cell_length_b                   7.355(2)
_cell_length_c                   10.882(3)
_cell_angle_alpha                92.202(2)
_cell_angle_beta                 100.894(7)
_cell_angle_gamma                100.013(6)
_cell_volume                     494.645
loop_
_atom_site_label
_atom_site_type_symbol
_atom_site_fract_x
_atom_site_fract_y
_atom_site_fract_z
Mn1 Mn 0.72829(5) 0.37676(4) 0.41885(3)
O1 O 0.5814(2) 0.1085(2) 0.32658(14)
O2 O 0.2332(3) 0.1145(2) 0.32367(16)
O3 O 0.3233(3) -0.2781(2) 0.40940(14)
O4 O 0.4789(3) -0.4937(2) 0.33195(15)
O5 O 0.2050(3) -0.6506(2) -0.12007(14)
H1 H 0.1842 -0.717 -0.1862
O6 O 0.1300(3) -0.4330(2) -0.25018(14)
O7 O 1.0844(2) 0.3354(2) 0.48652(13)
H2 H 1.0969 0.2667 0.5471
H3 H 1.1495 0.2937 0.4316
C1 C 0.3207(3) -0.0984(3) 0.18011(18)
C2 C 0.3358(3) -0.2844(3) 0.19512(18)
C3 C 0.2935(3) -0.4087(3) 0.08930(18)
H6 H 0.3065 -0.5316 0.0985
C4 C 0.2320(3) -0.3495(3) -0.02998(18)
C5 C 0.2126(4) -0.1660(3) -0.0443(2)
H7 H 0.1685 -0.1272 -0.1239
C6 C 0.2590(4) -0.0409(3) 0.0598(2)
H8 H 0.2489 0.0825 0.0497
C7 C 0.3800(3) 0.0503(3) 0.28776(18)
C8 C 0.3855(3) -0.3575(3) 0.32256(19)
C9 C 0.1840(3) -0.4812(3) -0.14374(19)
Mn1A Mn 0.27171(5) -0.37676(4) 0.58115(3)
Mn1_2 Mn 0.72829(5) -0.62324(4) 0.41885(3)
Mn1A_2 Mn 0.27171(5) -0.37676(4) -0.41885(3)
Mn1A_3 Mn 1.27171(5) 0.62324(4) 0.58115(3)
O3A O 0.6767(3) 0.2781(2) 0.59060(14)
O4_2 O 0.4789(3) 0.5063(2) 0.33195(15)
O6A O 0.8700(3) 0.4330(2) 0.25018(14)
O7A O 0.9156(2) 0.6646(2) 0.51348(13)
H2A H 0.9031 0.7333 0.4529
H3A H 0.8505 0.7063 0.5684
O8 O -0.1318(2) -0.1199(2) 0.31906(15)
H4 H -0.2175 -0.059 0.3249
H5 H -0.0079 -0.0455 0.3194
loop_
_geom_bond_atom_site_label_1
_geom_bond_atom_site_label_2
_geom_bond_site_symmetry_1
_geom_bond_site_symmetry_2
Mn1 O1 1_555 1_555
O1 C7 1_555 1_555
O2 C7 1_555 1_555
O3 C8 1_555 1_555
O4 C8 1_555 1_555
O5 H1 1_555 1_555
O6 C9 1_555 1_555
O7 Mn1 1_555 1_555
H2 O7 1_555 1_555
H3 O7 1_555 1_555
O8 H4 1_555 1_555
H5 O8 1_555 1_555
C1 C2 1_555 1_555
C2 C3 1_555 1_555
C3 H6 1_555 1_555
C4 C3 1_555 1_555
C5 C4 1_555 1_555
H7 C5 1_555 1_555
C6 C1 1_555 1_555
H8 C6 1_555 1_555
C7 C1 1_555 1_555
C8 C2 1_555 1_555
C9 O5 1_555 1_555
Mn1A O3 1_555 1_555
Mn1_2 O4 1_555 1_555
Mn1A_2 O6 1_555 1_555
Mn1A_3 O7 1_555 1_555
O3A Mn1 1_555 1_555
O4_2 Mn1 1_555 1_555
O6A Mn1 1_555 1_555
O7A Mn1 1_555 1_555
H2A O7A 1_555 1_555
H3A O7A 1_555 1_555
C4 C9 1_555 1_555
C5 C6 1_555 1_555
Mn1A_3 O7A 1_555 1_555

#END
