
#######################################################################
#
#                 Cambridge Crystallographic Data Centre
#                                CCDC 
#
#######################################################################
#
# If this CIF has been generated from an entry in the Cambridge 
# Structural Database, then it will include bibliographic, chemical, 
# crystal, experimental, refinement or atomic coordinate data resulting 
# from the CCDC's data processing and validation procedures.
#
#######################################################################

data_XOHYUQ
_symmetry_cell_setting           orthorhombic
_symmetry_space_group_name_H-M   'P b c n'
_symmetry_Int_Tables_number      60
_space_group_name_Hall           '-P 2n 2ab'
loop_
_symmetry_equiv_pos_site_id
_symmetry_equiv_pos_as_xyz
1 x,y,z
2 1/2-x,1/2-y,1/2+z
3 -x,y,1/2-z
4 1/2+x,1/2-y,-z
5 -x,-y,-z
6 1/2+x,1/2+y,1/2-z
7 x,-y,1/2+z
8 1/2-x,1/2+y,z
_cell_length_a                   20.6245(7)
_cell_length_b                   16.1559(3)
_cell_length_c                   16.2561(6)
_cell_angle_alpha                90
_cell_angle_beta                 90
_cell_angle_gamma                90
_cell_volume                     5416.65
loop_
_atom_site_label
_atom_site_type_symbol
_atom_site_fract_x
_atom_site_fract_y
_atom_site_fract_z
U1 U 0.671762(6) 0.368217(7) 0.102096(7)
O1 O 0.61153(12) 0.29947(14) 0.06443(14)
O2 O 0.73173(12) 0.43725(14) 0.13911(14)
O3 O 0.67753(11) 0.28743(14) 0.23452(13)
O4 O 0.60772(12) 0.38874(14) 0.22837(14)
O5 O 0.59879(12) 0.51226(14) 0.59617(12)
O6 O 0.65586(12) 0.53790(14) 0.48522(14)
O7 O 0.75654(12) 0.17069(14) 0.48644(13)
O8 O 0.74508(13) 0.24231(15) 0.60001(13)
C1 C 0.61317(16) 0.31624(18) 0.35828(18)
C2 C 0.60732(17) 0.40262(19) 0.39961(17)
H1 H 0.6459 0.4357 0.3843
H2 H 0.5689 0.4310 0.3765
C3 C 0.60136(15) 0.40292(18) 0.49389(18)
C4 C 0.65454(16) 0.34748(19) 0.5320(2)
H3 H 0.6967 0.3761 0.5257
H4 H 0.6459 0.3426 0.5917
C5 C 0.66136(16) 0.2598(2) 0.49649(19)
C6 C 0.66434(16) 0.2634(2) 0.40196(18)
H5 H 0.7076 0.2845 0.3861
H6 H 0.6608 0.2062 0.3808
C7 C 0.63463(16) 0.33127(19) 0.26938(19)
C8 C 0.54743(17) 0.2712(2) 0.3491(2)
H7 H 0.5319 0.2538 0.4034
H8 H 0.5530 0.2224 0.3139
H9 H 0.5158 0.3087 0.3240
C9 C 0.61863(15) 0.48988(19) 0.52582(19)
C10 C 0.53246(16) 0.3838(2) 0.5249(2)
H10 H 0.5316 0.3866 0.5851
H11 H 0.5198 0.3281 0.5070
H12 H 0.5020 0.4244 0.5022
C11 C 0.72516(16) 0.22284(19) 0.52895(19)
C12 C 0.60973(18) 0.1980(2) 0.5306(2)
H13 H 0.6169 0.1432 0.5065
H14 H 0.5662 0.2175 0.5161
H15 H 0.6136 0.1946 0.5906
U1A U 0.828238(6) 0.131783(7) 0.602096(7)
U1F U 0.671762(6) 0.631783(7) 0.602096(7)
O5F O 0.59879(12) 0.48774(14) 0.09617(12)
O6F O 0.65586(12) 0.46210(14) -0.01478(14)
O7A O 0.74346(12) 0.32931(14) -0.01356(13)
O8A O 0.75492(13) 0.25769(15) 0.10001(13)
O9 O 0.9617(7) 0.5678(8) 0.1035(8)
C13 C 0.9218(9) 0.6183(7) 0.1538(12)
H16 H 0.8945 0.6553 0.1198
H17 H 0.9485 0.6525 0.1914
C14 C 0.8809(9) 0.5588(9) 0.2010(13)
H18 H 0.8353 0.5622 0.1824
H19 H 0.8825 0.5720 0.2604
C15 C 0.9075(10) 0.4728(8) 0.1858(13)
H20 H 0.8728 0.4358 0.1653
H21 H 0.9250 0.4492 0.2374
C16 C 0.9610(10) 0.4811(7) 0.1218(13)
H22 H 1.0032 0.4629 0.1444
H23 H 0.9510 0.4481 0.0721
O10 O 0.5000 0.5042(2) 0.2500
H24 H 0.5382 0.4704 0.2368
H24B H 0.4618 0.4704 0.2632
N1 N 0.80076(16) 0.22626(18) 0.27944(18)
H25 H 0.7633 0.2561 0.2574
N2 N 0.7970(2) 0.3860(2) 0.3160(3)
C17 C 0.8038(2) 0.1501(2) 0.2453(2)
H26 H 0.7721 0.1329 0.2065
C18 C 0.8532(2) 0.0979(2) 0.2675(2)
H27 H 0.8567 0.0445 0.2436
C19 C 0.8980(2) 0.1242(2) 0.3255(3)
H28 H 0.9325 0.0887 0.3414
C20 C 0.89266(19) 0.2016(2) 0.3600(2)
H29 H 0.9227 0.2191 0.4007
C21 C 0.84349(18) 0.2537(2) 0.3353(2)
C22 C 0.83217(19) 0.3387(3) 0.3660(3)
C23 C 0.8525(4) 0.3656(3) 0.4423(4)
H30 H 0.8767 0.3305 0.4778
C24 C 0.8361(3) 0.4462(4) 0.4656(4)
H31 H 0.8488 0.4673 0.5177
C25 C 0.8010(3) 0.4950(3) 0.4112(4)
H32 H 0.7898 0.5503 0.4251
C26 C 0.7835(3) 0.4631(3) 0.3399(4)
H33 H 0.7598 0.4972 0.3031
loop_
_geom_bond_atom_site_label_1
_geom_bond_atom_site_label_2
_geom_bond_site_symmetry_1
_geom_bond_site_symmetry_2
U1 O1 1_555 1_555
O2 U1 1_555 1_555
O3 U1 1_555 1_555
O4 U1 1_555 1_555
O5 C9 1_555 1_555
O6 C9 1_555 1_555
O7 C11 1_555 1_555
O8 C11 1_555 1_555
C1 C2 1_555 1_555
C2 H1 1_555 1_555
H2 C2 1_555 1_555
C3 C2 1_555 1_555
C4 C3 1_555 1_555
H3 C4 1_555 1_555
H4 C4 1_555 1_555
C5 C4 1_555 1_555
C6 C1 1_555 1_555
H5 C6 1_555 1_555
H6 C6 1_555 1_555
C7 O3 1_555 1_555
C8 C1 1_555 1_555
H7 C8 1_555 1_555
H8 C8 1_555 1_555
H9 C8 1_555 1_555
C9 C3 1_555 1_555
C10 C3 1_555 1_555
H10 C10 1_555 1_555
H11 C10 1_555 1_555
H12 C10 1_555 1_555
C11 C5 1_555 1_555
C12 C5 1_555 1_555
H13 C12 1_555 1_555
H14 C12 1_555 1_555
H15 C12 1_555 1_555
O9 C13 1_555 1_555
C13 H16 1_555 1_555
H17 C13 1_555 1_555
C14 C13 1_555 1_555
H18 C14 1_555 1_555
H19 C14 1_555 1_555
C15 C14 1_555 1_555
H20 C15 1_555 1_555
H21 C15 1_555 1_555
C16 O9 1_555 1_555
H22 C16 1_555 1_555
H23 C16 1_555 1_555
O10 H24 1_555 1_555
N1 H25 1_555 1_555
N2 C22 1_555 1_555
C17 N1 1_555 1_555
H26 C17 1_555 1_555
C18 C17 1_555 1_555
H27 C18 1_555 1_555
C19 C18 1_555 1_555
H28 C19 1_555 1_555
C20 C19 1_555 1_555
H29 C20 1_555 1_555
C21 N1 1_555 1_555
C22 C21 1_555 1_555
C23 C22 1_555 1_555
H30 C23 1_555 1_555
C24 C23 1_555 1_555
H31 C24 1_555 1_555
C25 C24 1_555 1_555
H32 C25 1_555 1_555
C26 N2 1_555 1_555
H33 C26 1_555 1_555
U1A O7 1_555 1_555
U1F O5 1_555 1_555
O5F U1 1_555 1_555
O6F U1 1_555 1_555
O7A U1 1_555 1_555
O8A U1 1_555 1_555
H24B O10 1_555 1_555
O4 C7 1_555 1_555
O6 U1F 1_555 1_555
O8 U1A 1_555 1_555
C1 C7 1_555 1_555
C5 C6 1_555 1_555
C15 C16 1_555 1_555
C20 C21 1_555 1_555
C25 C26 1_555 1_555

#END
