
#######################################################################
#
#                 Cambridge Crystallographic Data Centre
#                                CCDC 
#
#######################################################################
#
# If this CIF has been generated from an entry in the Cambridge 
# Structural Database, then it will include bibliographic, chemical, 
# crystal, experimental, refinement or atomic coordinate data resulting 
# from the CCDC's data processing and validation procedures.
#
#######################################################################

data_XOJCUV
_symmetry_cell_setting           tetragonal
_symmetry_space_group_name_H-M   'P 41 21 2'
_symmetry_Int_Tables_number      92
_space_group_name_Hall           'P 4abw 2nw'
loop_
_symmetry_equiv_pos_site_id
_symmetry_equiv_pos_as_xyz
1 x,y,z
2 -x,-y,1/2+z
3 1/2+x,1/2-y,3/4-z
4 1/2-x,1/2+y,1/4-z
5 -y,-x,1/2-z
6 y,x,-z
7 1/2+y,1/2-x,3/4+z
8 1/2-y,1/2+x,1/4+z
_cell_length_a                   17.978(2)
_cell_length_b                   17.978(2)
_cell_length_c                   11.086(2)
_cell_angle_alpha                90
_cell_angle_beta                 90
_cell_angle_gamma                90
_cell_volume                     3583.09
loop_
_atom_site_label
_atom_site_type_symbol
_atom_site_fract_x
_atom_site_fract_y
_atom_site_fract_z
V1 V 0.440324(17) 0.037327(18) 0.90491(3)
V2 V 0.039374(16) 0.039374(16) 1.0000
V3 V -0.067134(18) 0.067134(18) 0.7500
Ni1 Ni 0.235368(13) 0.029057(14) 0.92231(2)
C1 C 0.29905(13) -0.12780(13) 0.9472(2)
H1 H 0.3465 -0.1095 0.9627
C2 C 0.28082(14) -0.20053(13) 0.9393(2)
H2 H 0.3127 -0.2408 0.9486
C3 C 0.18272(12) -0.13248(12) 0.9091(2)
H3 H 0.1338 -0.1187 0.8931
C4 C 0.16019(13) -0.26988(12) 0.9006(2)
H4 H 0.1250 -0.2613 0.8357
H5 H 0.1320 -0.2778 0.9741
C5 C 0.20422(13) -0.33920(13) 0.8730(2)
H6 H 0.2346 -0.3522 0.9422
H7 H 0.2371 -0.3299 0.8053
C6 C 0.15293(12) -0.40323(12) 0.8430(2)
H8 H 0.1222 -0.3893 0.7748
H9 H 0.1202 -0.4119 0.9111
C7 C 0.19328(14) -0.47517(12) 0.81323(19)
H10 H 0.2241 -0.4890 0.8814
H11 H 0.1568 -0.5142 0.8017
C8 C 0.31637(13) -0.46680(15) 0.7010(2)
H12 H 0.3486 -0.4658 0.7665
C9 C 0.33511(12) -0.46478(15) 0.5840(2)
H13 H 0.3836 -0.4619 0.5551
C10 C 0.21641(11) -0.47143(11) 0.59013(18)
H14 H 0.1667 -0.4743 0.5676
N1 N 0.23707(10) -0.08529(10) 0.92873(16)
N2 N 0.20675(10) -0.20336(10) 0.91524(18)
N3 N 0.24038(10) -0.47060(10) 0.70492(15)
N4 N 0.27261(9) -0.46759(10) 0.51295(15)
O1 O 0.46874(10) 0.11987(8) 0.94693(14)
O2 O 0.46700(8) 0.02061(7) 0.75180(13)
O3 O 0.12316(8) 0.02929(10) 0.94434(14)
O4 O -0.02746(9) 0.02572(8) 0.88301(13)
O5 O -0.05227(12) 0.15685(9) 0.74996(16)
O6 O 0.34906(7) 0.03387(9) 0.91125(13)
O7 O 0.24853(8) 0.03569(10) 1.11021(14)
O9 O 0.23274(11) 0.14514(9) 0.92717(18)
H15 H 0.2896(12) 0.0227(17) 1.136(3)
H16 H 0.2162(14) 0.0105(15) 1.146(3)
H19 H 0.2731(12) 0.1503(18) 0.957(3)
H20 H 0.2164(15) 0.1743(15) 0.879(2)
V1E V 0.037327(18) 0.440324(17) 1.09509(3)
V1F V 0.537327(18) 0.059676(17) 0.65491(3)
V1G V 0.462673(18) -0.059676(17) 1.15491(3)
V3A V 0.067134(18) -0.067134(18) 1.2500
Ni1E Ni 0.029057(14) 0.235368(13) 1.07769(2)
Ni1C Ni 0.264632(13) -0.470943(14) 0.32769(2)
Ni1C_2 Ni 0.264632(13) 0.529057(14) 0.32769(2)
C1C C 0.20095(13) 0.37220(13) 0.3028(2)
H1C H 0.1535 0.3905 0.2873
C2C C 0.21918(14) 0.29947(13) 0.3107(2)
H2C H 0.1873 0.2592 0.3014
C3C C 0.31728(12) 0.36752(12) 0.3409(2)
H3C H 0.3662 0.3813 0.3569
C4C C 0.33981(13) 0.23012(12) 0.3494(2)
H4C H 0.3750 0.2387 0.4143
H5C H 0.3680 0.2222 0.2759
C5C C 0.29578(13) 0.16080(13) 0.3770(2)
H6C H 0.2654 0.1478 0.3078
H7C H 0.2629 0.1701 0.4447
C6C C 0.34707(12) 0.09677(12) 0.4070(2)
H8C H 0.3778 0.1107 0.4752
H9C H 0.3798 0.0881 0.3389
C7C C 0.30672(14) 0.02483(12) 0.43677(19)
H10C H 0.2759 0.0110 0.3686
H11C H 0.3432 -0.0142 0.4483
C8C C 0.18363(13) 0.03320(15) 0.5490(2)
H12C H 0.1514 0.0342 0.4835
C9C C 0.16489(12) 0.03522(15) 0.6660(2)
H13C H 0.1164 0.0381 0.6949
C10C C 0.28359(11) 0.02857(11) 0.65987(18)
H14C H 0.3333 0.0257 0.6824
N1C N 0.26293(10) 0.41471(10) 0.32127(16)
N1E N -0.08529(10) 0.23707(10) 1.07127(16)
N2C N 0.29325(10) 0.29664(10) 0.33476(18)
N3C N 0.25962(10) 0.02940(10) 0.54508(15)
N4C N 0.22739(9) 0.03241(10) 0.73705(15)
N4F N 0.03241(10) 0.22739(9) 1.26295(15)
O1E O 0.11987(8) 0.46874(10) 1.05307(14)
O2G O 0.47939(7) -0.03300(8) 1.00180(13)
O2E O 0.02061(7) 0.46700(8) 1.24820(13)
O2B O -0.03300(8) 0.47939(7) 0.99820(13)
O3E O 0.02929(10) 0.12316(8) 1.05566(14)
O4E O 0.02572(8) -0.02746(9) 1.11699(13)
O4D O -0.02572(8) 0.02746(9) 0.61699(13)
O5D O -0.15685(9) 0.05227(12) 0.75004(16)
O6E O 0.03387(9) 0.34906(7) 1.08875(13)
O7E O 0.03569(10) 0.24853(8) 0.88979(14)
O9E O 0.14514(9) 0.23274(11) 1.07283(18)
H15E H 0.0227(17) 0.2896(12) 0.864(3)
H16E H 0.0105(15) 0.2162(14) 0.854(3)
H19E H 0.1503(18) 0.2731(12) 1.043(3)
H20E H 0.1743(15) 0.2164(15) 1.121(2)
O8 O 0.28693(13) 0.85151(13) 0.2838(2)
H17 H 0.3120(13) 0.8851(14) 0.250(3)
H18 H 0.2401(9) 0.8547(18) 0.268(3)
loop_
_geom_bond_atom_site_label_1
_geom_bond_atom_site_label_2
_geom_bond_site_symmetry_1
_geom_bond_site_symmetry_2
V1 O1 1_555 1_555
V2 O3 1_555 1_555
V3 O4 1_555 1_555
Ni1 N1 1_555 1_555
C1 H1 1_555 1_555
C2 C1 1_555 1_555
H2 C2 1_555 1_555
C3 H3 1_555 1_555
C4 H4 1_555 1_555
H5 C4 1_555 1_555
C5 C4 1_555 1_555
H6 C5 1_555 1_555
H7 C5 1_555 1_555
C6 C5 1_555 1_555
H8 C6 1_555 1_555
H9 C6 1_555 1_555
C7 C6 1_555 1_555
H10 C7 1_555 1_555
H11 C7 1_555 1_555
C8 H12 1_555 1_555
C9 C8 1_555 1_555
H13 C9 1_555 1_555
C10 H14 1_555 1_555
N1 C1 1_555 1_555
N2 C2 1_555 1_555
N3 C7 1_555 1_555
N4 C9 1_555 1_555
O2 V1 1_555 1_555
O3 Ni1 1_555 1_555
O4 V2 1_555 1_555
O5 V3 1_555 1_555
O6 V1 1_555 1_555
O7 Ni1 1_555 1_555
O8 H17 1_555 1_555
O9 Ni1 1_555 1_555
H15 O7 1_555 1_555
H16 O7 1_555 1_555
H18 O8 1_555 1_555
H19 O9 1_555 1_555
H20 O9 1_555 1_555
V1E O1E 1_555 1_555
V1F O2 1_555 1_555
V1G O2G 1_555 1_555
V3A O4E 1_555 1_555
Ni1E N1E 1_555 1_555
Ni1C N4 1_555 1_555
Ni1C_2 N1C 1_555 1_555
C1C H1C 1_555 1_555
C2C C1C 1_555 1_555
H2C C2C 1_555 1_555
C3C H3C 1_555 1_555
C4C H4C 1_555 1_555
H5C C4C 1_555 1_555
C5C C4C 1_555 1_555
H6C C5C 1_555 1_555
H7C C5C 1_555 1_555
C6C C5C 1_555 1_555
H8C C6C 1_555 1_555
H9C C6C 1_555 1_555
C7C C6C 1_555 1_555
H10C C7C 1_555 1_555
H11C C7C 1_555 1_555
C8C H12C 1_555 1_555
C9C C8C 1_555 1_555
H13C C9C 1_555 1_555
C10C H14C 1_555 1_555
N1C C1C 1_555 1_555
N2C C2C 1_555 1_555
N3C C7C 1_555 1_555
N4C Ni1 1_555 1_555
N4F Ni1E 1_555 1_555
O2G V1 1_555 1_555
O2E V1E 1_555 1_555
O2B V1E 1_555 1_555
O3E V2 1_555 1_555
O4E V2 1_555 1_555
O4D V3 1_555 1_555
O5D V3 1_555 1_555
O6E V1E 1_555 1_555
O7E Ni1E 1_555 1_555
O9E Ni1E 1_555 1_555
H15E O7E 1_555 1_555
H16E O7E 1_555 1_555
H19E O9E 1_555 1_555
H20E O9E 1_555 1_555
Ni1 O6 1_555 1_555
C3 N1 1_555 1_555
C3 N2 1_555 1_555
C4 N2 1_555 1_555
C8 N3 1_555 1_555
C10 N3 1_555 1_555
C10 N4 1_555 1_555
Ni1E O3E 1_555 1_555
Ni1E O6E 1_555 1_555
C3C N1C 1_555 1_555
C3C N2C 1_555 1_555
C4C N2C 1_555 1_555
C8C N3C 1_555 1_555
C9C N4C 1_555 1_555
C10C N3C 1_555 1_555
C10C N4C 1_555 1_555

#END
