
#######################################################################
#
#                 Cambridge Crystallographic Data Centre
#                                CCDC 
#
#######################################################################
#
# If this CIF has been generated from an entry in the Cambridge 
# Structural Database, then it will include bibliographic, chemical, 
# crystal, experimental, refinement or atomic coordinate data resulting 
# from the CCDC's data processing and validation procedures.
#
#######################################################################

data_XOJDAC
_symmetry_cell_setting           orthorhombic
_symmetry_space_group_name_H-M   'P 21 21 21'
_symmetry_Int_Tables_number      19
_space_group_name_Hall           'P 2ac 2ab'
loop_
_symmetry_equiv_pos_site_id
_symmetry_equiv_pos_as_xyz
1 x,y,z
2 1/2-x,-y,1/2+z
3 1/2+x,1/2-y,-z
4 -x,1/2+y,1/2-z
_cell_length_a                   11.188(4)
_cell_length_b                   11.864(4)
_cell_length_c                   12.574(4)
_cell_angle_alpha                90
_cell_angle_beta                 90
_cell_angle_gamma                90
_cell_volume                     1669
loop_
_atom_site_label
_atom_site_type_symbol
_atom_site_fract_x
_atom_site_fract_y
_atom_site_fract_z
V1 V 0.58147(3) -0.12781(3) -0.50481(3)
V2 V 0.86579(3) -0.17005(3) -0.50641(3)
Co1 Co 0.56754(3) 0.04451(3) -0.26566(3)
C1 C 0.3252(3) 0.0581(3) -0.1509(2)
H1 H 0.3514 0.1137 -0.1043
C2 C 0.2152(3) 0.0144(3) -0.1530(3)
H2 H 0.1518 0.0339 -0.1089
C3 C 0.3224(2) -0.0650(2) -0.2749(2)
H3 H 0.3451 -0.1116 -0.3309
C4 C 0.1102(3) -0.1336(3) -0.2598(2)
H4 H 0.1264 -0.1723 -0.3262
H5 H 0.0415 -0.0851 -0.2709
C5 C 0.0807(3) -0.2186(3) -0.1763(3)
H6 H 0.0902 -0.1841 -0.1069
H7 H 0.1369 -0.2806 -0.1812
C6 C -0.0455(3) -0.2648(3) -0.1857(3)
H8 H -0.1011 -0.2020 -0.1862
H9 H -0.0530 -0.3034 -0.2534
C7 C -0.0807(4) -0.3441(3) -0.0991(3)
H10 H -0.1660 -0.3579 -0.1032
H11 H -0.0400 -0.4155 -0.1096
C8 C 0.0411(4) -0.3345(3) 0.0693(3)
H12 H 0.0919 -0.3951 0.0569
C9 C 0.0444(4) -0.2634(3) 0.1525(3)
H13 H 0.0984 -0.2673 0.2086
C10 C -0.0986(3) -0.2094(3) 0.0531(3)
H14 H -0.1627 -0.1691 0.0252
N1 N 0.3940(2) 0.00815(18) -0.22854(18)
N2 N 0.2133(2) -0.0642(2) -0.23184(18)
N3 N -0.0514(3) -0.3003(2) 0.0069(2)
N4 N -0.0449(3) -0.1836(2) 0.14176(19)
O1 O 0.56692(19) -0.07167(15) -0.38526(14)
O2 O 0.59250(18) -0.02821(16) -0.59360(15)
O3 O 0.71283(15) -0.21377(14) -0.51096(15)
O4 O 0.45489(16) -0.21348(16) -0.53581(14)
O5 O 0.87746(18) -0.06598(16) -0.42246(15)
O6 O 0.90791(19) -0.12646(18) -0.62514(15)
O7 O 0.7431(2) 0.0010(3) -0.25337(19)
H15 H 0.785(4) 0.018(4) -0.200(2)
H16 H 0.788(4) -0.014(4) -0.304(2)
V2B V 0.36579(3) -0.32995(3) -0.49359(3)
Co1A Co 0.93246(3) -0.04451(3) -0.76566(3)
Co1A_2 Co -0.06754(3) -0.04451(3) 0.23434(3)
N4A N 0.5449(3) 0.1836(2) -0.35824(19)
O4B O 0.95489(16) -0.28652(16) -0.46419(14)
O6A O 0.59209(19) 0.12646(18) -0.12514(15)
loop_
_geom_bond_atom_site_label_1
_geom_bond_atom_site_label_2
_geom_bond_site_symmetry_1
_geom_bond_site_symmetry_2
V1 O1 1_555 1_555
V2 O3 1_555 1_555
Co1 N1 1_555 1_555
C1 H1 1_555 1_555
C2 C1 1_555 1_555
H2 C2 1_555 1_555
C3 H3 1_555 1_555
C4 H4 1_555 1_555
H5 C4 1_555 1_555
C5 C4 1_555 1_555
H6 C5 1_555 1_555
H7 C5 1_555 1_555
C6 C5 1_555 1_555
H8 C6 1_555 1_555
H9 C6 1_555 1_555
C7 C6 1_555 1_555
H10 C7 1_555 1_555
H11 C7 1_555 1_555
C8 H12 1_555 1_555
C9 C8 1_555 1_555
H13 C9 1_555 1_555
C10 H14 1_555 1_555
N1 C1 1_555 1_555
N2 C2 1_555 1_555
N3 C7 1_555 1_555
N4 C9 1_555 1_555
O1 Co1 1_555 1_555
O2 V1 1_555 1_555
O3 V1 1_555 1_555
O4 V1 1_555 1_555
O5 V2 1_555 1_555
O6 V2 1_555 1_555
O7 Co1 1_555 1_555
H15 O7 1_555 1_555
H16 O7 1_555 1_555
V2B O4 1_555 1_555
Co1A O6 1_555 1_555
Co1A_2 N4 1_555 1_555
N4A Co1 1_555 1_555
O4B V2 1_555 1_555
O6A Co1 1_555 1_555
C3 N1 1_555 1_555
C3 N2 1_555 1_555
C4 N2 1_555 1_555
C8 N3 1_555 1_555
C10 N3 1_555 1_555
C10 N4 1_555 1_555

#END
