
#######################################################################
#
#                 Cambridge Crystallographic Data Centre
#                                CCDC 
#
#######################################################################
#
# If this CIF has been generated from an entry in the Cambridge 
# Structural Database, then it will include bibliographic, chemical, 
# crystal, experimental, refinement or atomic coordinate data resulting 
# from the CCDC's data processing and validation procedures.
#
#######################################################################

data_XOJHUA
_symmetry_cell_setting           orthorhombic
_symmetry_space_group_name_H-M   'P 21 21 21'
_symmetry_Int_Tables_number      19
_space_group_name_Hall           'P 2ac 2ab'
loop_
_symmetry_equiv_pos_site_id
_symmetry_equiv_pos_as_xyz
1 x,y,z
2 1/2-x,-y,1/2+z
3 1/2+x,1/2-y,-z
4 -x,1/2+y,1/2-z
_cell_length_a                   8.1245(6)
_cell_length_b                   15.3342(11)
_cell_length_c                   18.9310(14)
_cell_angle_alpha                90
_cell_angle_beta                 90
_cell_angle_gamma                90
_cell_volume                     2358.48
loop_
_atom_site_label
_atom_site_type_symbol
_atom_site_fract_x
_atom_site_fract_y
_atom_site_fract_z
C1 C 0.0509(6) 0.0573(3) 0.3063(2)
H1 H 0.0732 0.0072 0.2944
H2 H 0.1302 0.0966 0.2862
H3 H -0.0570 0.0721 0.2895
C2 C 0.0552(5) 0.0641(3) 0.38499(19)
C3 C 0.0229(5) 0.1449(3) 0.4177(2)
H4 H -0.0015 0.1921 0.3887
C4 C 0.0250(6) 0.1590(3) 0.4898(2)
C5 C -0.0087(9) 0.2492(3) 0.5184(3)
H5 H -0.0012 0.2483 0.5690
H6 H -0.1172 0.2672 0.5046
H7 H 0.0709 0.2893 0.4998
C6 C 0.6532(5) 0.1018(3) 0.2190(2)
H8 H 0.6222 0.0883 0.1713
H9 H 0.7701 0.0951 0.2243
H10 H 0.6229 0.1609 0.2297
C7 C 0.5655(5) 0.0404(2) 0.26932(18)
C8 C 0.5921(5) 0.0477(2) 0.34163(18)
H11 H 0.6666 0.0895 0.3574
C9 C 0.5129(5) -0.0041(2) 0.3921(2)
C10 C 0.5466(6) 0.0092(3) 0.46890(19)
H12 H 0.4830 -0.0316 0.4960
H13 H 0.5169 0.0675 0.4820
H14 H 0.6616 0.0001 0.4780
C11 C 0.3007(5) -0.1200(2) 0.41598(18)
H15 H 0.3228 -0.1083 0.4660
C12 C 0.3331(5) -0.2169(2) 0.4004(2)
H16 H 0.3299 -0.2263 0.3498
H17 H 0.4425 -0.2321 0.4169
C13 C 0.2078(6) -0.2761(3) 0.4358(2)
H18 H 0.2299 -0.3363 0.4231
H19 H 0.2173 -0.2709 0.4867
C14 C 0.0363(6) -0.2521(3) 0.4133(2)
H20 H -0.0423 -0.2900 0.4366
H21 H 0.0251 -0.2602 0.3627
C15 C -0.0010(5) -0.1568(3) 0.4322(2)
H22 H -0.1110 -0.1421 0.4162
H23 H 0.0019 -0.1500 0.4831
C16 C 0.1213(5) -0.0948(2) 0.39897(19)
H24 H 0.1066 -0.0965 0.3476
C17 C -0.1672(10) 0.2174(5) 0.6966(4)
H25 H -0.2338 0.2585 0.6701
H26 H -0.0593 0.2432 0.7035
C18 C -0.2436(10) 0.2014(6) 0.7653(4)
H27 H -0.2502 0.2551 0.7912
H28 H -0.1784 0.1602 0.7913
H29 H -0.3522 0.1783 0.7585
N1 N 0.0909(5) -0.00570(19) 0.42330(15)
H30 H 0.0970 0.0024 0.4682
N2 N 0.4095(4) -0.06630(19) 0.37255(14)
H31 H 0.4059 -0.0766 0.3279
O1 O 0.0572(4) 0.09847(18) 0.53407(13)
O2 O -0.1507(4) 0.1374(2) 0.65647(17)
H32 H -0.2384 0.1070 0.6452
O3 O 0.4708(3) -0.01647(17) 0.24305(13)
Mn1 Mn 0.08691(7) 0.07127(4) 0.64265(3)
Cl1 Cl 0.27283(13) 0.17838(7) 0.69083(6)
Cl2 Cl 0.22886(14) -0.06163(7) 0.60679(5)
O3A O 0.0292(3) 0.01647(17) 0.74305(13)
Mn1A Mn 0.41309(7) -0.07127(4) 0.14265(3)
O4 O -0.4431(4) 0.0548(3) 0.6429(2)
H33 H -0.5159 0.0830 0.6543
H34 H -0.4848 0.0037 0.6391
loop_
_geom_bond_atom_site_label_1
_geom_bond_atom_site_label_2
_geom_bond_site_symmetry_1
_geom_bond_site_symmetry_2
C1 H1 1_555 1_555
H2 C1 1_555 1_555
H3 C1 1_555 1_555
C2 C1 1_555 1_555
C3 C2 1_555 1_555
H4 C3 1_555 1_555
C4 C3 1_555 1_555
C5 C4 1_555 1_555
H5 C5 1_555 1_555
H6 C5 1_555 1_555
H7 C5 1_555 1_555
C6 H8 1_555 1_555
H9 C6 1_555 1_555
H10 C6 1_555 1_555
C7 C6 1_555 1_555
C8 C7 1_555 1_555
H11 C8 1_555 1_555
C9 C8 1_555 1_555
C10 C9 1_555 1_555
H12 C10 1_555 1_555
H13 C10 1_555 1_555
H14 C10 1_555 1_555
C11 H15 1_555 1_555
C12 C11 1_555 1_555
H16 C12 1_555 1_555
H17 C12 1_555 1_555
C13 C12 1_555 1_555
H18 C13 1_555 1_555
H19 C13 1_555 1_555
C14 C13 1_555 1_555
H20 C14 1_555 1_555
H21 C14 1_555 1_555
C15 C14 1_555 1_555
H22 C15 1_555 1_555
H23 C15 1_555 1_555
C16 C11 1_555 1_555
H24 C16 1_555 1_555
C17 H25 1_555 1_555
H26 C17 1_555 1_555
C18 C17 1_555 1_555
H27 C18 1_555 1_555
H28 C18 1_555 1_555
H29 C18 1_555 1_555
N1 C2 1_555 1_555
H30 N1 1_555 1_555
N2 C9 1_555 1_555
H31 N2 1_555 1_555
O1 C4 1_555 1_555
O2 C17 1_555 1_555
H32 O2 1_555 1_555
O3 C7 1_555 1_555
Mn1 O1 1_555 1_555
Cl1 Mn1 1_555 1_555
Cl2 Mn1 1_555 1_555
O4 H33 1_555 1_555
H34 O4 1_555 1_555
O3A Mn1 1_555 1_555
Mn1A O3 1_555 1_555
C11 N2 1_555 1_555
C15 C16 1_555 1_555
C16 N1 1_555 1_555
O2 Mn1 1_555 1_555

#END
