
#######################################################################
#
#                 Cambridge Crystallographic Data Centre
#                                CCDC 
#
#######################################################################
#
# If this CIF has been generated from an entry in the Cambridge 
# Structural Database, then it will include bibliographic, chemical, 
# crystal, experimental, refinement or atomic coordinate data resulting 
# from the CCDC's data processing and validation procedures.
#
#######################################################################

data_XOJJEM
_symmetry_cell_setting           triclinic
_symmetry_space_group_name_H-M   'P -1'
_symmetry_Int_Tables_number      2
_space_group_name_Hall           '-P 1'
loop_
_symmetry_equiv_pos_site_id
_symmetry_equiv_pos_as_xyz
1 x,y,z
2 -x,-y,-z
_cell_length_a                   8.8241(13)
_cell_length_b                   9.8658(14)
_cell_length_c                   11.0081(16)
_cell_angle_alpha                81.352(2)
_cell_angle_beta                 87.168(2)
_cell_angle_gamma                76.563(2)
_cell_volume                     921.395
loop_
_atom_site_label
_atom_site_type_symbol
_atom_site_fract_x
_atom_site_fract_y
_atom_site_fract_z
Gd1 Gd 0.39153(3) 0.03246(3) 0.15595(3)
O1 O 0.1527(4) 0.1243(5) 0.2566(4)
H1 H 0.170(3) 0.137(7) 0.323(3)
H2 H 0.073(4) 0.170(6) 0.224(6)
O2 O 0.4426(5) -0.0919(4) 0.3629(4)
O3 O 0.2954(4) -0.1819(4) 0.2587(4)
O4 O 0.4991(4) 0.1499(4) -0.0330(3)
O5 O 0.3010(4) 0.2855(4) 0.0505(4)
O6 O 0.2024(4) 0.0389(4) 0.0063(4)
O7 O 0.3276(4) 0.0331(4) -0.1761(4)
N1 N 0.4289(6) -0.2752(5) 0.5723(4)
N2 N 0.5257(6) -0.3926(5) 0.6317(5)
N3 N 0.5331(5) -0.2029(5) 0.7179(4)
N4 N 0.2983(6) 0.5107(5) -0.1299(5)
C1 C 0.1668(8) 0.5700(7) -0.1853(7)
H3 H 0.1220 0.5287 -0.2406
C2 C 0.2099(8) 0.7052(7) -0.0744(7)
H4 H 0.1981 0.7836 -0.0343
N5 N 0.0748(5) 0.1801(5) -0.3008(5)
C3 C 0.0711(7) 0.1086(8) -0.3920(6)
H5 H 0.0456 0.0213 -0.3826
C4 C 0.1342(9) 0.2905(9) -0.4626(7)
H6 H 0.1636 0.3603 -0.5190
C5 C 0.3610(6) -0.1774(6) 0.3548(5)
C6 C 0.3399(7) -0.2823(7) 0.4674(6)
H7 H 0.2303 -0.2653 0.4905
H8 H 0.3706 -0.3768 0.4458
C7 C 0.5850(7) -0.3422(6) 0.7168(6)
H9 H 0.6576 -0.3984 0.7725
C8 C 0.4368(7) -0.1646(6) 0.6254(6)
H10 H 0.3816 -0.0729 0.6005
C9 C 0.3988(7) 0.2670(6) -0.0319(5)
C10 C 0.4059(7) 0.3777(6) -0.1406(5)
H11 H 0.5110 0.3925 -0.1495
H12 H 0.3826 0.3439 -0.2143
N6 N 0.1049(6) 0.6949(6) -0.1538(6)
N7 N 0.3290(6) 0.5999(5) -0.0565(6)
C11 C 0.2098(7) 0.0635(6) -0.1080(6)
C12 C 0.0565(6) 0.1390(7) -0.1699(5)
H13 H -0.0159 0.0775 -0.1565
H14 H 0.0119 0.2223 -0.1320
N8 N 0.1078(7) 0.1751(7) -0.4975(5)
N9 N 0.1171(7) 0.3019(6) -0.3450(5)
Gd1A Gd 0.60847(3) -0.03246(3) -0.15595(3)
Gd1A_2 Gd 0.60847(3) -0.03246(3) 0.84405(3)
O4A O 0.5009(4) -0.1499(4) 0.0330(3)
O7A O 0.6724(4) -0.0331(4) 0.1761(4)
N3A N 0.4669(5) 0.2029(5) 0.2821(4)
loop_
_geom_bond_atom_site_label_1
_geom_bond_atom_site_label_2
_geom_bond_site_symmetry_1
_geom_bond_site_symmetry_2
Gd1 O1 1_555 1_555
O1 H1 1_555 1_555
H2 O1 1_555 1_555
O2 Gd1 1_555 1_555
O3 Gd1 1_555 1_555
O4 Gd1 1_555 1_555
O5 Gd1 1_555 1_555
O6 Gd1 1_555 1_555
O7 C11 1_555 1_555
N1 N2 1_555 1_555
N2 C7 1_555 1_555
N3 C7 1_555 1_555
N4 C1 1_555 1_555
C1 H3 1_555 1_555
C2 H4 1_555 1_555
N5 C3 1_555 1_555
C3 H5 1_555 1_555
C4 H6 1_555 1_555
C5 O2 1_555 1_555
C6 N1 1_555 1_555
H7 C6 1_555 1_555
H8 C6 1_555 1_555
C7 H9 1_555 1_555
C8 N1 1_555 1_555
H10 C8 1_555 1_555
C9 O4 1_555 1_555
C10 N4 1_555 1_555
H11 C10 1_555 1_555
H12 C10 1_555 1_555
N6 C1 1_555 1_555
N7 N4 1_555 1_555
C11 O6 1_555 1_555
C12 N5 1_555 1_555
H13 C12 1_555 1_555
H14 C12 1_555 1_555
N8 C3 1_555 1_555
N9 N5 1_555 1_555
Gd1A O4 1_555 1_555
Gd1A_2 N3 1_555 1_555
O4A Gd1 1_555 1_555
O7A Gd1 1_555 1_555
N3A Gd1 1_555 1_555
O3 C5 1_555 1_555
O5 C9 1_555 1_555
O7 Gd1A 1_555 1_555
N3 C8 1_555 1_555
C2 N6 1_555 1_555
C2 N7 1_555 1_555
C4 N8 1_555 1_555
C4 N9 1_555 1_555
C5 C6 1_555 1_555
C9 C10 1_555 1_555
C11 C12 1_555 1_555
Gd1A O4A 1_555 1_555

#END
