
#######################################################################
#
#                 Cambridge Crystallographic Data Centre
#                                CCDC 
#
#######################################################################
#
# If this CIF has been generated from an entry in the Cambridge 
# Structural Database, then it will include bibliographic, chemical, 
# crystal, experimental, refinement or atomic coordinate data resulting 
# from the CCDC's data processing and validation procedures.
#
#######################################################################

data_XOJJAI01
_symmetry_cell_setting           monoclinic
_symmetry_space_group_name_H-M   'P 21/c'
_symmetry_Int_Tables_number      14
_space_group_name_Hall           '-P 2ybc'
loop_
_symmetry_equiv_pos_site_id
_symmetry_equiv_pos_as_xyz
1 x,y,z
2 -x,1/2+y,1/2-z
3 -x,-y,-z
4 x,1/2-y,1/2+z
_cell_length_a                   19.0951(3)
_cell_length_b                   8.0968(4)
_cell_length_c                   5.2111(11)
_cell_angle_alpha                90
_cell_angle_beta                 94.914(6)
_cell_angle_gamma                90
_cell_volume                     802.723
loop_
_atom_site_label
_atom_site_type_symbol
_atom_site_fract_x
_atom_site_fract_y
_atom_site_fract_z
Cu1 Cu 0.00061(2) 0.17999(5) 0.50342(9)
P1 P 0.08872(4) 0.00054(15) 0.09586(16)
O1 O 0.05406(12) -0.0004(4) 0.3563(5)
O2 O 0.06985(13) 0.1553(3) -0.0600(5)
O3 O 0.07003(13) -0.1559(4) -0.0584(5)
C1 C 0.18168(18) 0.0009(6) 0.1786(7)
C2 C 0.2810(2) -0.0860(7) 0.4621(9)
H1 H 0.2990 -0.1426 0.6083
C3 C 0.2093(2) -0.0843(7) 0.3953(9)
H2 H 0.1793 -0.1397 0.4978
C4 C 0.2270(2) 0.0838(6) 0.0274(9)
H3 H 0.2091 0.1408 -0.1186
C5 C 0.2994(2) 0.0817(7) 0.0929(10)
H4 H 0.3296 0.1382 -0.0072
C6 C 0.3256(2) -0.0035(7) 0.3106(9)
C7 C 0.4029(2) -0.0035(8) 0.3896(10)
O4 O 0.4414(2) 0.0782(8) 0.2529(10)
H5 H 0.4824 0.0714 0.3134
O5 O 0.4246(2) -0.0847(8) 0.5836(10)
Cu1B Cu -0.00061(2) -0.17999(5) 0.49658(9)
Cu1_2 Cu 0.00061(2) 0.17999(5) -0.49658(9)
Cu1C Cu 0.00061(2) 0.32001(5) 0.00342(9)
Cu1A Cu -0.00061(2) -0.32001(5) -0.00342(9)
Cu1B_2 Cu -0.00061(2) -0.17999(5) -0.50342(9)
O1B O -0.05406(12) 0.0004(4) 0.6437(5)
O2_2 O 0.06985(13) 0.1553(3) 0.9400(5)
O2C O 0.06985(13) 0.3447(3) 0.4400(5)
O3A O -0.07003(13) 0.3441(4) 0.5584(5)
O3B O -0.07003(13) 0.1559(4) 0.0584(5)
loop_
_geom_bond_atom_site_label_1
_geom_bond_atom_site_label_2
_geom_bond_site_symmetry_1
_geom_bond_site_symmetry_2
Cu1 O1 1_555 1_555
P1 O1 1_555 1_555
O1 Cu1B 1_555 1_555
O2 P1 1_555 1_555
O3 P1 1_555 1_555
C1 P1 1_555 1_555
C2 H1 1_555 1_555
C3 C1 1_555 1_555
H2 C3 1_555 1_555
C4 C1 1_555 1_555
H3 C4 1_555 1_555
C5 C4 1_555 1_555
H4 C5 1_555 1_555
C6 C2 1_555 1_555
C7 C6 1_555 1_555
O4 C7 1_555 1_555
H5 O4 1_555 1_555
O5 C7 1_555 1_555
Cu1B O1B 1_555 1_555
Cu1_2 O2 1_555 1_555
Cu1C O2 1_555 1_555
Cu1A O3 1_555 1_555
Cu1B_2 O3 1_555 1_555
O1B Cu1 1_555 1_555
O2_2 Cu1 1_555 1_555
O2C Cu1 1_555 1_555
O3A Cu1 1_555 1_555
O3B Cu1 1_555 1_555
C2 C3 1_555 1_555
C5 C6 1_555 1_555
Cu1C O2C 1_555 1_555
Cu1C O3B 1_555 1_555

#END
