
#######################################################################
#
#                 Cambridge Crystallographic Data Centre
#                                CCDC 
#
#######################################################################
#
# If this CIF has been generated from an entry in the Cambridge 
# Structural Database, then it will include bibliographic, chemical, 
# crystal, experimental, refinement or atomic coordinate data resulting 
# from the CCDC's data processing and validation procedures.
#
#######################################################################

data_XOJJAI
_symmetry_cell_setting           monoclinic
_symmetry_space_group_name_H-M   'C 2/c'
_symmetry_Int_Tables_number      15
_space_group_name_Hall           '-C 2yn'
loop_
_symmetry_equiv_pos_site_id
_symmetry_equiv_pos_as_xyz
1 x,y,z
2 1/2+x,1/2+y,z
3 -x,y,1/2-z
4 1/2-x,1/2+y,1/2-z
5 -x,-y,-z
6 1/2-x,1/2-y,-z
7 x,-y,1/2+z
8 1/2+x,1/2-y,1/2+z
_cell_length_a                   38.135(7)
_cell_length_b                   8.1185(14)
_cell_length_c                   5.2249(9)
_cell_angle_alpha                90
_cell_angle_beta                 92.816(4)
_cell_angle_gamma                90
_cell_volume                     1615.67
loop_
_atom_site_label
_atom_site_type_symbol
_atom_site_fract_x
_atom_site_fract_y
_atom_site_fract_z
C1 C 0.90927(14) 0.2526(8) 0.8396(10)
C2 C 0.89518(14) 0.1682(7) 1.0449(10)
H1 H 0.9102 0.1149 1.1636
C3 C 0.85966(14) 0.1629(8) 1.0739(10)
H2 H 0.8507 0.1041 1.2087
C4 C 0.83704(14) 0.2461(8) 0.9004(10)
C5 C 0.85076(14) 0.3297(8) 0.6966(10)
H3 H 0.8356 0.3838 0.5797
C6 C 0.88642(13) 0.3342(8) 0.6639(10)
H4 H 0.8952 0.3910 0.5264
C7 C 0.79797(15) 0.2439(8) 0.9378(10)
Cu1 Cu 1.0000 -0.06888(13) 0.7500
Cu2 Cu 1.0000 0.57137(13) 0.7500
O1 O 0.96485(11) 0.0955(5) 0.6603(7)
O2 O 0.96521(10) 0.4070(5) 0.6587(7)
O3 O 0.97312(9) 0.2495(5) 1.0802(7)
O4 O 0.77856(10) 0.3227(5) 0.7807(7)
H5 H 0.7573(18) 0.313(8) 0.819(12)
O5 O 0.78863(10) 0.1652(5) 1.1308(7)
P1 P 0.95560(4) 0.2519(2) 0.8024(3)
C1B C 1.09073(14) 0.2526(8) 0.6604(10)
C2B C 1.10482(14) 0.1682(7) 0.4551(10)
H1B H 1.0898 0.1149 0.3364
C3B C 1.14034(14) 0.1629(8) 0.4261(10)
H2B H 1.1493 0.1041 0.2913
C4B C 1.16296(14) 0.2461(8) 0.5996(10)
C5B C 1.14924(14) 0.3297(8) 0.8034(10)
H3B H 1.1644 0.3838 0.9203
C6B C 1.11358(13) 0.3342(8) 0.8361(10)
H4B H 1.1048 0.3910 0.9736
C7B C 1.20203(15) 0.2439(8) 0.5622(10)
Cu1F Cu 1.0000 0.06888(13) 1.2500
Cu1F_2 Cu 1.0000 0.06888(13) 0.2500
Cu2F Cu 1.0000 0.42863(13) 1.2500
Cu2F_2 Cu 1.0000 0.42863(13) 0.2500
O1B O 1.03515(11) 0.0955(5) 0.8397(7)
O2B O 1.03479(10) 0.4070(5) 0.8413(7)
O3B O 1.02688(9) 0.2495(5) 0.4198(7)
O3F O 0.97312(9) -0.2495(5) 0.5802(7)
O3D O 1.02688(9) -0.2495(5) 0.9198(7)
O3F_2 O 0.97312(9) 0.7505(5) 0.5802(7)
O3D_2 O 1.02688(9) 0.7505(5) 0.9198(7)
O4B O 1.22144(10) 0.3227(5) 0.7193(7)
H5B H 1.2427(18) 0.313(8) 0.681(12)
O5B O 1.21137(10) 0.1652(5) 0.3692(7)
P1B P 1.04440(4) 0.2519(2) 0.6976(3)
loop_
_geom_bond_atom_site_label_1
_geom_bond_atom_site_label_2
_geom_bond_site_symmetry_1
_geom_bond_site_symmetry_2
C1 C2 1_555 1_555
C2 H1 1_555 1_555
C3 C2 1_555 1_555
H2 C3 1_555 1_555
C4 C3 1_555 1_555
C5 C4 1_555 1_555
H3 C5 1_555 1_555
C6 C1 1_555 1_555
H4 C6 1_555 1_555
C7 C4 1_555 1_555
Cu1 O1 1_555 1_555
Cu2 O2 1_555 1_555
O1 P1 1_555 1_555
O2 P1 1_555 1_555
O3 P1 1_555 1_555
O4 C7 1_555 1_555
H5 O4 1_555 1_555
O5 C7 1_555 1_555
P1 C1 1_555 1_555
C1B C2B 1_555 1_555
C2B H1B 1_555 1_555
C3B C2B 1_555 1_555
H2B C3B 1_555 1_555
C4B C3B 1_555 1_555
C5B C4B 1_555 1_555
H3B C5B 1_555 1_555
C6B C1B 1_555 1_555
H4B C6B 1_555 1_555
C7B C4B 1_555 1_555
Cu1F O3 1_555 1_555
Cu1F_2 O3B 1_555 1_555
Cu2F O3 1_555 1_555
Cu2F_2 O3B 1_555 1_555
O1B Cu1 1_555 1_555
O2B Cu2 1_555 1_555
O3B P1B 1_555 1_555
O3F Cu1 1_555 1_555
O3D Cu1 1_555 1_555
O3F_2 Cu2 1_555 1_555
O3D_2 Cu2 1_555 1_555
O4B C7B 1_555 1_555
H5B O4B 1_555 1_555
O5B C7B 1_555 1_555
P1B C1B 1_555 1_555
C5 C6 1_555 1_555
C5B C6B 1_555 1_555
O1B P1B 1_555 1_555
O2B P1B 1_555 1_555

#END
