
#######################################################################
#
#                 Cambridge Crystallographic Data Centre
#                                CCDC 
#
#######################################################################
#
# If this CIF has been generated from an entry in the Cambridge 
# Structural Database, then it will include bibliographic, chemical, 
# crystal, experimental, refinement or atomic coordinate data resulting 
# from the CCDC's data processing and validation procedures.
#
#######################################################################

data_XOJJOW
_symmetry_cell_setting           triclinic
_symmetry_space_group_name_H-M   'P -1'
_symmetry_Int_Tables_number      2
_space_group_name_Hall           '-P 1'
loop_
_symmetry_equiv_pos_site_id
_symmetry_equiv_pos_as_xyz
1 x,y,z
2 -x,-y,-z
_cell_length_a                   9.5791(2)
_cell_length_b                   10.2033(2)
_cell_length_c                   16.6748(3)
_cell_angle_alpha                95.4660(10)
_cell_angle_beta                 105.0010(10)
_cell_angle_gamma                106.9940(10)
_cell_volume                     1479.5
loop_
_atom_site_label
_atom_site_type_symbol
_atom_site_fract_x
_atom_site_fract_y
_atom_site_fract_z
O1 O 1.0784(2) 0.0574(2) 0.42283(12)
O2 O 1.4481(2) 0.1320(2) 0.46661(13)
Tb1 Tb 1.267480(13) 0.016710(12) 0.524880(7)
I1 I 1.59382(3) 0.50233(3) 0.174830(16)
I2 I 1.04507(4) -0.57079(4) 0.108880(19)
O3 O 1.4950(2) 0.1465(2) 0.64004(14)
O4 O 1.0588(2) -0.2138(2) 0.46621(13)
O5 O 0.8293(2) -0.0080(2) 0.35903(12)
O6 O 1.2483(3) 0.2495(2) 0.56150(16)
O7 O 1.2342(2) -0.1553(2) 0.40148(12)
O8 O 1.6415(2) 0.1542(2) 0.41343(13)
C1 C 1.1170(3) -0.2424(3) 0.40967(16)
C2 C 1.0497(3) -0.3833(3) 0.35403(17)
C3 C 0.9745(4) -0.4971(3) 0.3842(2)
H1 H 0.9541 -0.4831 0.4353
C4 C 1.0184(4) -0.5372(3) 0.2286(2)
C5 C 0.9300(4) -0.6305(3) 0.3392(2)
H2 H 0.8851 -0.7064 0.3615
C6 C 0.9519(4) -0.6513(3) 0.2613(2)
H3 H 0.9224 -0.7412 0.2308
C7 C 1.0698(3) -0.4030(3) 0.27452(18)
H4 H 1.1168 -0.3274 0.2527
C8 C 1.5314(3) 0.1885(3) 0.42414(16)
C9 C 1.4960(3) 0.3048(3) 0.38285(17)
C10 C 1.5506(3) 0.3417(3) 0.31609(18)
H5 H 1.6125 0.2975 0.2982
C11 C 1.5123(4) 0.4446(3) 0.27634(19)
C12 C 1.3719(4) 0.4781(4) 0.3711(2)
H6 H 1.3144 0.5257 0.3907
C13 C 1.4054(4) 0.3725(3) 0.4100(2)
H7 H 1.3674 0.3468 0.4542
C14 C 1.4231(4) 0.5136(3) 0.3033(2)
H8 H 1.3981 0.5828 0.2761
C15 C 0.9649(3) 0.0151(3) 0.35839(16)
C16 C 0.9928(3) -0.0081(3) 0.27408(16)
C17 C 1.1333(4) 0.0611(4) 0.2651(2)
H9 H 1.2104 0.1212 0.3112
C18 C 0.8776(3) -0.0985(3) 0.20480(17)
H10 H 0.7818 -0.1447 0.2097
C19 C 1.1605(5) 0.0417(6) 0.1876(3)
H11 H 1.2552 0.0898 0.1821
C20 C 0.9080(4) -0.1187(4) 0.12848(18)
C21 C 1.0481(5) -0.0483(5) 0.1191(2)
H12 H 1.0662 -0.0614 0.0673
I3 I 0.73899(3) -0.25854(3) 0.023493(14)
H17 H 1.571(6) 0.150(5) 0.631(3)
H18 H 1.505(5) 0.136(5) 0.685(3)
H19 H 1.297(5) 0.295(5) 0.603(3)
H20 H 1.163(5) 0.250(4) 0.554(3)
O1A O 0.9216(2) -0.0574(2) 0.57717(12)
O2A O 1.5519(2) -0.1320(2) 0.53339(13)
O2A_2 O 0.5519(2) -0.1320(2) 0.53339(13)
Tb1A Tb 0.732520(13) -0.016710(12) 0.475120(7)
Tb1A_2 Tb 1.732520(13) -0.016710(12) 0.475120(7)
I1A I 1.40618(3) -0.50233(3) 0.825170(16)
I2A I 0.95493(4) 0.57079(4) 0.891120(19)
O3A O 0.5050(2) -0.1465(2) 0.35996(14)
O4A O 0.9412(2) 0.2138(2) 0.53379(13)
O5A O 1.1707(2) 0.0080(2) 0.64097(12)
O6A O 0.7517(3) -0.2495(2) 0.43850(16)
O7A O 0.7658(2) 0.1553(2) 0.59852(12)
O8A O 1.3585(2) -0.1542(2) 0.58657(13)
O8_2 O 0.6415(2) 0.1542(2) 0.41343(13)
C1A C 0.8830(3) 0.2424(3) 0.59033(16)
C2A C 0.9503(3) 0.3833(3) 0.64597(17)
C3A C 1.0255(4) 0.4971(3) 0.6158(2)
H1A H 1.0459 0.4831 0.5647
C4A C 0.9816(4) 0.5372(3) 0.7714(2)
C5A C 1.0700(4) 0.6305(3) 0.6608(2)
H2A H 1.1149 0.7064 0.6385
C6A C 1.0481(4) 0.6513(3) 0.7387(2)
H3A H 1.0776 0.7412 0.7692
C7A C 0.9302(3) 0.4030(3) 0.72548(18)
H4A H 0.8832 0.3274 0.7473
C8A C 1.4686(3) -0.1885(3) 0.57586(16)
C9A C 1.5040(3) -0.3048(3) 0.61715(17)
C10A C 1.4494(3) -0.3417(3) 0.68391(18)
H5A H 1.3875 -0.2975 0.7018
C11A C 1.4877(4) -0.4446(3) 0.72366(19)
C12A C 1.6281(4) -0.4781(4) 0.6289(2)
H6A H 1.6856 -0.5257 0.6093
C13A C 1.5946(4) -0.3725(3) 0.5900(2)
H7A H 1.6326 -0.3468 0.5458
C14A C 1.5769(4) -0.5136(3) 0.6967(2)
H8A H 1.6019 -0.5828 0.7239
C15A C 1.0351(3) -0.0151(3) 0.64161(16)
C16A C 1.0072(3) 0.0081(3) 0.72592(16)
C17A C 0.8667(4) -0.0611(4) 0.7349(2)
H9A H 0.7896 -0.1212 0.6888
C18A C 1.1224(3) 0.0985(3) 0.79520(17)
H10A H 1.2182 0.1447 0.7903
C19A C 0.8395(5) -0.0417(6) 0.8124(3)
H11A H 0.7448 -0.0898 0.8179
C20A C 1.0920(4) 0.1187(4) 0.87152(18)
C21A C 0.9519(5) 0.0483(5) 0.8809(2)
H12A H 0.9338 0.0614 0.9327
I3A I 1.26101(3) 0.25854(3) 0.976507(14)
H17A H 0.429(6) -0.150(5) 0.369(3)
H18A H 0.495(5) -0.136(5) 0.315(3)
H19A H 0.703(5) -0.295(5) 0.397(3)
H20A H 0.837(5) -0.250(4) 0.446(3)
N1 N 0.4748(4) 0.9017(4) 0.19575(18)
C22 C 0.4934(4) 0.9799(4) 0.04084(19)
C23 C 0.5847(5) 1.0645(4) 0.1173(2)
H13 H 0.6542 1.1509 0.1188
C24 C 0.5723(5) 1.0202(4) 0.1917(2)
H14 H 0.6372 1.0781 0.2422
C25 C 0.3876(6) 0.8217(6) 0.1228(3)
H15 H 0.3183 0.7366 0.1236
C26 C 0.3920(5) 0.8556(5) 0.0451(2)
H16 H 0.3265 0.7945 -0.0042
N1A N 0.5252(4) 1.0983(4) -0.19575(18)
C22A C 0.5066(4) 1.0201(4) -0.04084(19)
C23A C 0.4153(5) 0.9355(4) -0.1173(2)
H13A H 0.3458 0.8491 -0.1188
C24A C 0.4277(5) 0.9798(4) -0.1917(2)
H14A H 0.3628 0.9219 -0.2422
C25A C 0.6124(6) 1.1783(6) -0.1228(3)
H15A H 0.6817 1.2634 -0.1236
C26A C 0.6080(5) 1.1444(5) -0.0451(2)
H16A H 0.6735 1.2055 0.0042
loop_
_geom_bond_atom_site_label_1
_geom_bond_atom_site_label_2
_geom_bond_site_symmetry_1
_geom_bond_site_symmetry_2
O1 Tb1 1_555 1_555
O2 Tb1 1_555 1_555
Tb1 O3 1_555 1_555
I1 C11 1_555 1_555
I2 C4 1_555 1_555
O3 H17 1_555 1_555
O4 Tb1 1_555 1_555
O5 C15 1_555 1_555
O6 Tb1 1_555 1_555
O7 Tb1 1_555 1_555
O8 C8 1_555 1_555
C1 O4 1_555 1_555
C2 C1 1_555 1_555
C3 C2 1_555 1_555
H1 C3 1_555 1_555
C4 C6 1_555 1_555
C5 C3 1_555 1_555
H2 C5 1_555 1_555
C6 C5 1_555 1_555
H3 C6 1_555 1_555
C7 C2 1_555 1_555
H4 C7 1_555 1_555
C8 O2 1_555 1_555
C9 C8 1_555 1_555
C10 C9 1_555 1_555
H5 C10 1_555 1_555
C11 C10 1_555 1_555
C12 H6 1_555 1_555
C13 C9 1_555 1_555
H7 C13 1_555 1_555
C14 C11 1_555 1_555
H8 C14 1_555 1_555
C15 O1 1_555 1_555
C16 C15 1_555 1_555
C17 C16 1_555 1_555
H9 C17 1_555 1_555
C18 C16 1_555 1_555
H10 C18 1_555 1_555
C19 C17 1_555 1_555
H11 C19 1_555 1_555
C20 C18 1_555 1_555
C21 C19 1_555 1_555
H12 C21 1_555 1_555
I3 C20 1_555 1_555
N1 C24 1_555 1_555
C22 C23 1_555 1_555
C23 H13 1_555 1_555
C24 C23 1_555 1_555
H14 C24 1_555 1_555
C25 N1 1_555 1_555
H15 C25 1_555 1_555
C26 C22 1_555 1_555
H16 C26 1_555 1_555
H18 O3 1_555 1_555
H19 O6 1_555 1_555
H20 O6 1_555 1_555
O1A Tb1A 1_555 1_555
O2A Tb1A_2 1_555 1_555
O2A_2 Tb1A 1_555 1_555
Tb1A O5 1_555 1_555
Tb1A_2 O8 1_555 1_555
I1A C11A 1_555 1_555
I2A C4A 1_555 1_555
O3A Tb1A 1_555 1_555
O4A Tb1A 1_555 1_555
O5A Tb1 1_555 1_555
O6A Tb1A 1_555 1_555
O7A Tb1A 1_555 1_555
O8A Tb1 1_555 1_555
O8_2 Tb1A 1_555 1_555
C1A O4A 1_555 1_555
C2A C1A 1_555 1_555
C3A C2A 1_555 1_555
H1A C3A 1_555 1_555
C4A C6A 1_555 1_555
C5A C3A 1_555 1_555
H2A C5A 1_555 1_555
C6A C5A 1_555 1_555
H3A C6A 1_555 1_555
C7A C2A 1_555 1_555
H4A C7A 1_555 1_555
C8A O2A 1_555 1_555
C9A C8A 1_555 1_555
C10A C9A 1_555 1_555
H5A C10A 1_555 1_555
C11A C10A 1_555 1_555
C12A H6A 1_555 1_555
C13A C9A 1_555 1_555
H7A C13A 1_555 1_555
C14A C11A 1_555 1_555
H8A C14A 1_555 1_555
C15A O1A 1_555 1_555
C16A C15A 1_555 1_555
C17A C16A 1_555 1_555
H9A C17A 1_555 1_555
C18A C16A 1_555 1_555
H10A C18A 1_555 1_555
C19A C17A 1_555 1_555
H11A C19A 1_555 1_555
C20A C18A 1_555 1_555
C21A C19A 1_555 1_555
H12A C21A 1_555 1_555
I3A C20A 1_555 1_555
N1A C24A 1_555 1_555
C22A C22 1_555 1_555
C23A C22A 1_555 1_555
H13A C23A 1_555 1_555
C24A C23A 1_555 1_555
H14A C24A 1_555 1_555
C25A N1A 1_555 1_555
H15A C25A 1_555 1_555
C26A C22A 1_555 1_555
H16A C26A 1_555 1_555
H17A O3A 1_555 1_555
H18A O3A 1_555 1_555
H19A O6A 1_555 1_555
H20A O6A 1_555 1_555
O7 C1 1_555 1_555
C4 C7 1_555 1_555
C12 C13 1_555 1_555
C12 C14 1_555 1_555
C20 C21 1_555 1_555
C25 C26 1_555 1_555
O5A C15A 1_555 1_555
O7A C1A 1_555 1_555
O8A C8A 1_555 1_555
C4A C7A 1_555 1_555
C12A C13A 1_555 1_555
C12A C14A 1_555 1_555
C20A C21A 1_555 1_555
C25A C26A 1_555 1_555

#END
