
#######################################################################
#
#                 Cambridge Crystallographic Data Centre
#                                CCDC 
#
#######################################################################
#
# If this CIF has been generated from an entry in the Cambridge 
# Structural Database, then it will include bibliographic, chemical, 
# crystal, experimental, refinement or atomic coordinate data resulting 
# from the CCDC's data processing and validation procedures.
#
#######################################################################

data_XOJKUD01
_symmetry_cell_setting           triclinic
_symmetry_space_group_name_H-M   'P -1'
_symmetry_Int_Tables_number      2
_space_group_name_Hall           '-P 1'
loop_
_symmetry_equiv_pos_site_id
_symmetry_equiv_pos_as_xyz
1 x,y,z
2 -x,-y,-z
_cell_length_a                   8.4026(12)
_cell_length_b                   8.5005(11)
_cell_length_c                   11.1893(16)
_cell_angle_alpha                94.214(11)
_cell_angle_beta                 93.028(11)
_cell_angle_gamma                106.597(18)
_cell_volume                     761.561
loop_
_atom_site_label
_atom_site_type_symbol
_atom_site_fract_x
_atom_site_fract_y
_atom_site_fract_z
Co1 Co 0.18638(3) 0.34456(3) 0.05805(2)
V1 V 0.26294(4) 0.74391(3) -0.01723(3)
V2 V 0.42318(4) 0.08848(3) 0.17973(2)
O1 O 0.29515(19) 0.56175(15) 0.00039(11)
O2 O 0.36418(19) 0.83021(17) -0.14286(12)
O3 O -0.05998(18) 0.28045(17) 0.04035(12)
O4 O 0.4206(2) 0.10024(18) 0.32451(11)
O5 O 0.3415(2) 0.87651(16) 0.11589(12)
O6 O 0.3089(2) 0.20262(17) 0.12520(12)
N1 N 0.1894(2) 0.22296(18) -0.11501(13)
N2 N 0.1819(2) -0.53525(18) -0.76694(13)
C1 C 0.2049(3) 0.0358(2) -0.33043(15)
C2 C 0.1760(3) -0.3500(2) -0.54802(15)
C3 C 0.2145(3) -0.0652(2) -0.44582(16)
H1 H 0.3288 -0.0275 -0.4722
H2 H 0.1373 -0.0460 -0.5093
C4 C 0.2817(3) -0.4493(2) -0.56005(16)
H3 H 0.3544 -0.4553 -0.4937
C5 C 0.1702(3) -0.2505(2) -0.43152(15)
H4 H 0.2493 -0.2703 -0.3698
H5 H 0.0570 -0.2880 -0.4032
C6 C 0.3340(3) 0.1763(2) -0.28764(16)
H6 H 0.4300 0.2104 -0.3313
C7 C 0.0719(3) -0.3485(2) -0.64893(16)
H7 H -0.0042 -0.2847 -0.6448
C8 C 0.0672(3) -0.0071(2) -0.26216(15)
H8 H -0.0243 -0.1008 -0.2880
C9 C 0.0792(3) -0.4400(2) -0.75539(16)
H9 H 0.0084 -0.4352 -0.8233
C10 C 0.2810(3) -0.5399(2) -0.66929(16)
H10 H 0.3532 -0.6076 -0.6751
C11 C 0.0645(3) 0.0882(2) -0.15595(15)
H11 H -0.0299 0.0565 -0.1104
C12 C 0.3219(3) 0.2662(2) -0.18098(16)
H12 H 0.4107 0.3617 -0.1538
Co1_2 Co 0.18638(3) -0.65544(3) -0.94195(2)
V1A V -0.26294(4) 0.25609(3) 0.01723(3)
V2A V 0.57682(4) 0.91152(3) -0.17973(2)
V2_2 V 0.42318(4) 1.08848(3) 0.17973(2)
O2A O 0.63582(19) 0.16979(17) 0.14286(12)
O3A O 0.05998(18) 0.71955(17) -0.04035(12)
O5_2 O 0.3415(2) -0.12349(16) 0.11589(12)
N2_2 N 0.1819(2) 0.46475(18) 0.23306(13)
loop_
_geom_bond_atom_site_label_1
_geom_bond_atom_site_label_2
_geom_bond_site_symmetry_1
_geom_bond_site_symmetry_2
Co1 O1 1_555 1_555
V1 O1 1_555 1_555
V2 O4 1_555 1_555
O2 V1 1_555 1_555
O3 Co1 1_555 1_555
O5 V1 1_555 1_555
O6 Co1 1_555 1_555
N1 Co1 1_555 1_555
N2 C9 1_555 1_555
C1 C3 1_555 1_555
C2 C4 1_555 1_555
C3 H1 1_555 1_555
H2 C3 1_555 1_555
C4 H3 1_555 1_555
C5 C2 1_555 1_555
H4 C5 1_555 1_555
H5 C5 1_555 1_555
C6 C1 1_555 1_555
H6 C6 1_555 1_555
C7 C2 1_555 1_555
H7 C7 1_555 1_555
C8 C1 1_555 1_555
H8 C8 1_555 1_555
C9 C7 1_555 1_555
H9 C9 1_555 1_555
C10 N2 1_555 1_555
H10 C10 1_555 1_555
C11 N1 1_555 1_555
H11 C11 1_555 1_555
C12 N1 1_555 1_555
H12 C12 1_555 1_555
Co1_2 N2 1_555 1_555
V1A O3 1_555 1_555
V2A O2 1_555 1_555
V2_2 O5 1_555 1_555
O2A V2 1_555 1_555
O3A V1 1_555 1_555
O5_2 V2 1_555 1_555
N2_2 Co1 1_555 1_555
V2 O6 1_555 1_555
C3 C5 1_555 1_555
C4 C10 1_555 1_555
C6 C12 1_555 1_555
C8 C11 1_555 1_555

#END
