
#######################################################################
#
#                 Cambridge Crystallographic Data Centre
#                                CCDC 
#
#######################################################################
#
# If this CIF has been generated from an entry in the Cambridge 
# Structural Database, then it will include bibliographic, chemical, 
# crystal, experimental, refinement or atomic coordinate data resulting 
# from the CCDC's data processing and validation procedures.
#
#######################################################################

data_XOJLAK
_symmetry_cell_setting           triclinic
_symmetry_space_group_name_H-M   'P -1'
_symmetry_Int_Tables_number      2
_space_group_name_Hall           '-P 1'
loop_
_symmetry_equiv_pos_site_id
_symmetry_equiv_pos_as_xyz
1 x,y,z
2 -x,-y,-z
_cell_length_a                   5.7048(6)
_cell_length_b                   9.5728(9)
_cell_length_c                   11.6025(13)
_cell_angle_alpha                73.808(5)
_cell_angle_beta                 80.120(5)
_cell_angle_gamma                78.725(5)
_cell_volume                     592.117
loop_
_atom_site_label
_atom_site_type_symbol
_atom_site_fract_x
_atom_site_fract_y
_atom_site_fract_z
Ce1 Ce 1.14622(13) 0.18534(9) -0.01083(8)
O1 O 0.7585(17) 0.2122(12) 0.1261(9)
H1 H 0.68(2) 0.311(5) 0.117(17)
H2 H 0.642(18) 0.149(12) 0.139(16)
O2 O 0.9628(19) 0.4021(12) -0.1391(10)
O3 O 0.5474(18) 0.5331(14) -0.1864(10)
H3 H 0.5230 0.4463 -0.1535
O4 O 0.779(2) 0.6436(13) -0.0804(10)
O5 O 1.0878(18) -0.0750(11) 0.1154(9)
O6 O 1.442(2) 0.0164(13) 0.1385(10)
O7 O 1.4898(18) -0.2483(11) 0.1404(10)
P1 P 0.8084(6) 0.5497(4) -0.1677(3)
P2 P 1.3203(6) -0.1185(4) 0.1771(3)
C1 C 0.924(3) 0.6555(17) -0.3123(13)
H4 H 0.8098 0.7475 -0.3359
H5 H 1.0784 0.6833 -0.3048
C2 C 0.966(3) 0.5768(16) -0.4103(13)
C3 C 0.787(2) 0.5898(17) -0.4815(14)
H6 H 0.6377 0.6513 -0.4678
C4 C 1.184(3) 0.4830(18) -0.4294(15)
H7 H 1.3090 0.4702 -0.3811
C5 C 1.256(3) -0.1839(17) 0.3383(13)
H8 H 1.1643 -0.2661 0.3531
H9 H 1.4130 -0.2274 0.3690
C6 C 1.123(3) -0.0849(17) 0.4196(14)
C7 C 1.238(3) -0.0631(17) 0.5061(14)
H10 H 1.4026 -0.1049 0.5107
C8 C 0.881(3) -0.0197(17) 0.4117(14)
H11 H 0.7977 -0.0314 0.3514
Ce1A Ce 0.85378(13) 0.81466(9) -0.98917(8)
Ce1A_2 Ce 0.85378(13) 0.81466(9) 0.01083(8)
Ce1A_3 Ce 0.85378(13) -0.18534(9) 0.01083(8)
Ce1A_4 Ce 1.85378(13) -0.18534(9) 0.01083(8)
Ce1_2 Ce 1.14622(13) 0.18534(9) -1.01083(8)
Ce1A_5 Ce 0.85378(13) -0.18534(9) 1.01083(8)
Ce1_3 Ce 1.14622(13) 0.18534(9) 0.98917(8)
Ce1_4 Ce 0.14622(13) 0.18534(9) 0.98917(8)
O1A O 1.2415(17) 0.7878(12) -1.1261(9)
H1A H 1.32(2) 0.689(5) -1.117(17)
H2A H 1.358(18) 0.851(12) -1.139(16)
O2A O 1.0372(19) 0.5979(12) -0.8609(10)
O3A O 1.4526(18) 0.4669(14) -0.8136(10)
H3A H 1.4770 0.5537 -0.8465
O4A O 1.221(2) 0.3564(13) -0.9196(10)
O4A_2 O 1.221(2) 0.3564(13) 0.0804(10)
O4_2 O 0.779(2) 0.6436(13) -1.0804(10)
O5A O 0.9122(18) 0.0750(11) 0.8846(9)
O5A_2 O 0.9122(18) 0.0750(11) -0.1154(9)
O5A_3 O 0.9122(18) 1.0750(11) -1.1154(9)
O5_2 O 1.0878(18) 0.9250(11) -0.8846(9)
O6A O 0.558(2) -0.0164(13) 0.8615(10)
O6A_2 O 0.558(2) 0.9836(13) -1.1385(10)
O7A O 0.5102(18) 0.2483(11) 0.8596(10)
O7A_2 O 1.5102(18) 0.2483(11) -0.1404(10)
O7_2 O 0.4898(18) 0.7517(11) -0.8596(10)
P1A P 1.1916(6) 0.4503(4) -0.8323(3)
P2A P 0.6797(6) 0.1185(4) 0.8229(3)
C1A C 1.076(3) 0.3445(17) -0.6877(13)
H4A H 1.1902 0.2525 -0.6641
H5A H 0.9216 0.3167 -0.6952
C2A C 1.034(3) 0.4232(16) -0.5897(13)
C3A C 1.213(2) 0.4102(17) -0.5185(14)
H6A H 1.3623 0.3487 -0.5322
C4A C 0.816(3) 0.5170(18) -0.5706(15)
H7A H 0.6910 0.5298 -0.6189
C5A C 0.744(3) 0.1839(17) 0.6617(13)
H8A H 0.8357 0.2661 0.6469
H9A H 0.5870 0.2274 0.6310
C6A C 0.877(3) 0.0849(17) 0.5804(14)
C7A C 0.762(3) 0.0631(17) 0.4939(14)
H10A H 0.5974 0.1049 0.4893
C8A C 1.119(3) 0.0197(17) 0.5883(14)
H11A H 1.2023 0.0314 0.6486
loop_
_geom_bond_atom_site_label_1
_geom_bond_atom_site_label_2
_geom_bond_site_symmetry_1
_geom_bond_site_symmetry_2
Ce1 O1 1_555 1_555
O1 H1 1_555 1_555
H2 O1 1_555 1_555
O2 Ce1 1_555 1_555
O3 H3 1_555 1_555
O4 P1 1_555 1_555
O5 Ce1 1_555 1_555
O6 Ce1 1_555 1_555
O7 P2 1_555 1_555
P1 O2 1_555 1_555
P2 O5 1_555 1_555
C1 P1 1_555 1_555
H4 C1 1_555 1_555
H5 C1 1_555 1_555
C2 C1 1_555 1_555
C3 C2 1_555 1_555
H6 C3 1_555 1_555
C4 C2 1_555 1_555
H7 C4 1_555 1_555
C5 P2 1_555 1_555
H8 C5 1_555 1_555
H9 C5 1_555 1_555
C6 C5 1_555 1_555
C7 C6 1_555 1_555
H10 C7 1_555 1_555
C8 C6 1_555 1_555
H11 C8 1_555 1_555
Ce1A O1A 1_555 1_555
Ce1A_2 O4 1_555 1_555
Ce1A_3 O5 1_555 1_555
Ce1A_4 O7 1_555 1_555
Ce1_2 O4A 1_555 1_555
Ce1A_5 O5A 1_555 1_555
Ce1_3 O5A 1_555 1_555
Ce1_4 O7A 1_555 1_555
O1A H1A 1_555 1_555
H2A O1A 1_555 1_555
O2A Ce1A 1_555 1_555
O3A H3A 1_555 1_555
O4A P1A 1_555 1_555
O4A_2 Ce1 1_555 1_555
O4_2 Ce1A 1_555 1_555
O5A P2A 1_555 1_555
O5A_2 Ce1 1_555 1_555
O5A_3 Ce1A 1_555 1_555
O5_2 Ce1A 1_555 1_555
O6A Ce1A_5 1_555 1_555
O6A_2 Ce1A 1_555 1_555
O7A P2A 1_555 1_555
O7A_2 Ce1 1_555 1_555
O7_2 Ce1A 1_555 1_555
P1A O2A 1_555 1_555
P2A O6A 1_555 1_555
C1A P1A 1_555 1_555
H4A C1A 1_555 1_555
H5A C1A 1_555 1_555
C2A C1A 1_555 1_555
C3A C4 1_555 1_555
H6A C3A 1_555 1_555
C4A C3 1_555 1_555
H7A C4A 1_555 1_555
C5A P2A 1_555 1_555
H8A C5A 1_555 1_555
H9A C5A 1_555 1_555
C6A C5A 1_555 1_555
C7A C8 1_555 1_555
H10A C7A 1_555 1_555
C8A C7 1_555 1_555
H11A C8A 1_555 1_555
O3 P1 1_555 1_555
O6 P2 1_555 1_555
Ce1A_3 O5A_2 1_555 1_555
O3A P1A 1_555 1_555
C2A C3A 1_555 1_555
C2A C4A 1_555 1_555
C6A C7A 1_555 1_555
C6A C8A 1_555 1_555

#END
