
#######################################################################
#
#                 Cambridge Crystallographic Data Centre
#                                CCDC 
#
#######################################################################
#
# If this CIF has been generated from an entry in the Cambridge 
# Structural Database, then it will include bibliographic, chemical, 
# crystal, experimental, refinement or atomic coordinate data resulting 
# from the CCDC's data processing and validation procedures.
#
#######################################################################

data_XOJLEO
_symmetry_cell_setting           triclinic
_symmetry_space_group_name_H-M   'P -1'
_symmetry_Int_Tables_number      2
_space_group_name_Hall           '-P 1'
loop_
_symmetry_equiv_pos_site_id
_symmetry_equiv_pos_as_xyz
1 x,y,z
2 -x,-y,-z
_cell_length_a                   5.6753(3)
_cell_length_b                   9.5280(4)
_cell_length_c                   11.5759(5)
_cell_angle_alpha                73.985(2)
_cell_angle_beta                 80.573(3)
_cell_angle_gamma                79.193(2)
_cell_volume                     586.816
loop_
_atom_site_label
_atom_site_type_symbol
_atom_site_fract_x
_atom_site_fract_y
_atom_site_fract_z
Pr1 Pr 1.14239(11) 0.18680(7) -0.00890(6)
O1 O 0.7579(14) 0.2155(9) 0.1276(7)
H1 H 0.679(15) 0.314(4) 0.118(12)
H2 H 0.640(13) 0.152(8) 0.142(12)
O2 O 0.9619(14) 0.3992(9) -0.1396(7)
O3 O 0.5456(13) 0.5279(9) -0.1860(7)
H3 H 0.5418 0.4385 -0.1803
O4 O 0.7774(14) 0.6400(9) -0.0789(7)
O5 O 1.0870(13) -0.0754(8) 0.1143(7)
O6 O 1.4370(15) 0.0237(10) 0.1393(7)
O7 O 1.4939(14) -0.2428(9) 0.1395(7)
P1 P 0.8075(5) 0.5472(3) -0.1675(3)
P2 P 1.3188(5) -0.1149(3) 0.1766(2)
C1 C 0.924(2) 0.6553(12) -0.3108(10)
H4 H 0.8101 0.7478 -0.3340
H5 H 1.0796 0.6826 -0.3026
C2 C 0.964(2) 0.5764(12) -0.4096(9)
C3 C 0.785(2) 0.5904(13) -0.4818(10)
H6 H 0.6366 0.6526 -0.4696
C4 C 1.182(2) 0.4845(13) -0.4282(10)
H7 H 1.3072 0.4734 -0.3796
C5 C 1.255(2) -0.1830(12) 0.3376(9)
H8 H 1.1620 -0.2657 0.3513
H9 H 1.4114 -0.2265 0.3689
C6 C 1.121(2) -0.0850(12) 0.4184(10)
C7 C 1.237(2) -0.0636(13) 0.5088(10)
H10 H 1.4006 -0.1066 0.5152
C8 C 0.881(2) -0.0184(13) 0.4109(10)
H11 H 0.7973 -0.0294 0.3500
Pr1A Pr 0.85761(11) 0.81320(7) -0.99110(6)
Pr1A_2 Pr 0.85761(11) 0.81320(7) 0.00890(6)
Pr1A_3 Pr 0.85761(11) -0.18680(7) 0.00890(6)
Pr1A_4 Pr 1.85761(11) -0.18680(7) 0.00890(6)
Pr1_2 Pr 1.14239(11) 0.18680(7) -1.00890(6)
Pr1A_5 Pr 0.85761(11) -0.18680(7) 1.00890(6)
Pr1_3 Pr 1.14239(11) 0.18680(7) 0.99110(6)
Pr1_4 Pr 0.14239(11) 0.18680(7) 0.99110(6)
O1A O 1.2421(14) 0.7845(9) -1.1276(7)
H1A H 1.321(15) 0.686(4) -1.118(12)
H2A H 1.360(13) 0.848(8) -1.142(12)
O2A O 1.0381(14) 0.6008(9) -0.8604(7)
O3A O 1.4544(13) 0.4721(9) -0.8140(7)
H3A H 1.4582 0.5615 -0.8197
O4A O 1.2226(14) 0.3600(9) -0.9211(7)
O4A_2 O 1.2226(14) 0.3600(9) 0.0789(7)
O4_2 O 0.7774(14) 0.6400(9) -1.0789(7)
O5A O 0.9130(13) 0.0754(8) 0.8857(7)
O5A_2 O 0.9130(13) 0.0754(8) -0.1143(7)
O5A_3 O 0.9130(13) 1.0754(8) -1.1143(7)
O5_2 O 1.0870(13) 0.9246(8) -0.8857(7)
O6A O 0.5630(15) -0.0237(10) 0.8607(7)
O6A_2 O 0.5630(15) 0.9763(10) -1.1393(7)
O7A O 0.5061(14) 0.2428(9) 0.8605(7)
O7A_2 O 1.5061(14) 0.2428(9) -0.1395(7)
O7_2 O 0.4939(14) 0.7572(9) -0.8605(7)
P1A P 1.1925(5) 0.4528(3) -0.8325(3)
P2A P 0.6812(5) 0.1149(3) 0.8234(2)
C1A C 1.076(2) 0.3447(12) -0.6892(10)
H4A H 1.1899 0.2522 -0.6660
H5A H 0.9204 0.3174 -0.6974
C2A C 1.036(2) 0.4236(12) -0.5904(9)
C3A C 1.215(2) 0.4096(13) -0.5182(10)
H6A H 1.3634 0.3474 -0.5304
C4A C 0.818(2) 0.5155(13) -0.5718(10)
H7A H 0.6928 0.5266 -0.6204
C5A C 0.745(2) 0.1830(12) 0.6624(9)
H8A H 0.8380 0.2657 0.6487
H9A H 0.5886 0.2265 0.6311
C6A C 0.879(2) 0.0850(12) 0.5816(10)
C7A C 0.763(2) 0.0636(13) 0.4912(10)
H10A H 0.5994 0.1066 0.4848
C8A C 1.119(2) 0.0184(13) 0.5891(10)
H11A H 1.2027 0.0294 0.6500
loop_
_geom_bond_atom_site_label_1
_geom_bond_atom_site_label_2
_geom_bond_site_symmetry_1
_geom_bond_site_symmetry_2
Pr1 O1 1_555 1_555
O1 H1 1_555 1_555
H2 O1 1_555 1_555
O2 Pr1 1_555 1_555
O3 H3 1_555 1_555
O4 P1 1_555 1_555
O5 Pr1 1_555 1_555
O6 Pr1 1_555 1_555
O7 P2 1_555 1_555
P1 O2 1_555 1_555
P2 O5 1_555 1_555
C1 P1 1_555 1_555
H4 C1 1_555 1_555
H5 C1 1_555 1_555
C2 C1 1_555 1_555
C3 C2 1_555 1_555
H6 C3 1_555 1_555
C4 C2 1_555 1_555
H7 C4 1_555 1_555
C5 P2 1_555 1_555
H8 C5 1_555 1_555
H9 C5 1_555 1_555
C6 C5 1_555 1_555
C7 C6 1_555 1_555
H10 C7 1_555 1_555
C8 C6 1_555 1_555
H11 C8 1_555 1_555
Pr1A O1A 1_555 1_555
Pr1A_2 O4 1_555 1_555
Pr1A_3 O5 1_555 1_555
Pr1A_4 O7 1_555 1_555
Pr1_2 O4A 1_555 1_555
Pr1A_5 O5A 1_555 1_555
Pr1_3 O5A 1_555 1_555
Pr1_4 O7A 1_555 1_555
O1A H1A 1_555 1_555
H2A O1A 1_555 1_555
O2A Pr1A 1_555 1_555
O3A H3A 1_555 1_555
O4A P1A 1_555 1_555
O4A_2 Pr1 1_555 1_555
O4_2 Pr1A 1_555 1_555
O5A P2A 1_555 1_555
O5A_2 Pr1 1_555 1_555
O5A_3 Pr1A 1_555 1_555
O5_2 Pr1A 1_555 1_555
O6A Pr1A_5 1_555 1_555
O6A_2 Pr1A 1_555 1_555
O7A P2A 1_555 1_555
O7A_2 Pr1 1_555 1_555
O7_2 Pr1A 1_555 1_555
P1A O2A 1_555 1_555
P2A O6A 1_555 1_555
C1A P1A 1_555 1_555
H4A C1A 1_555 1_555
H5A C1A 1_555 1_555
C2A C1A 1_555 1_555
C3A C4 1_555 1_555
H6A C3A 1_555 1_555
C4A C3 1_555 1_555
H7A C4A 1_555 1_555
C5A P2A 1_555 1_555
H8A C5A 1_555 1_555
H9A C5A 1_555 1_555
C6A C5A 1_555 1_555
C7A C8 1_555 1_555
H10A C7A 1_555 1_555
C8A C7 1_555 1_555
H11A C8A 1_555 1_555
O3 P1 1_555 1_555
O6 P2 1_555 1_555
Pr1A_3 O5A_2 1_555 1_555
O3A P1A 1_555 1_555
C2A C3A 1_555 1_555
C2A C4A 1_555 1_555
C6A C7A 1_555 1_555
C6A C8A 1_555 1_555

#END
