
#######################################################################
#
#                 Cambridge Crystallographic Data Centre
#                                CCDC 
#
#######################################################################
#
# If this CIF has been generated from an entry in the Cambridge 
# Structural Database, then it will include bibliographic, chemical, 
# crystal, experimental, refinement or atomic coordinate data resulting 
# from the CCDC's data processing and validation procedures.
#
#######################################################################

data_XOJMAL
_symmetry_cell_setting           triclinic
_symmetry_space_group_name_H-M   'P -1'
_symmetry_Int_Tables_number      2
_space_group_name_Hall           '-P 1'
loop_
_symmetry_equiv_pos_site_id
_symmetry_equiv_pos_as_xyz
1 x,y,z
2 -x,-y,-z
_cell_length_a                   5.4287(11)
_cell_length_b                   9.8286(16)
_cell_length_c                   10.230(3)
_cell_angle_alpha                96.453(16)
_cell_angle_beta                 91.23(2)
_cell_angle_gamma                91.339(14)
_cell_volume                     542.071
loop_
_atom_site_label
_atom_site_type_symbol
_atom_site_fract_x
_atom_site_fract_y
_atom_site_fract_z
Co1 Co 0.0000 0.0000 1.0000
Co2 Co 0.0000 -0.5000 0.5000
C1 C 0.2110(8) -0.5718(4) 0.7585(4)
C2 C 0.3569(8) -0.5312(4) 0.8844(4)
C3 C 0.3391(8) -0.4020(4) 0.9587(5)
C4 C 0.1579(8) -0.2973(4) 0.9248(4)
C5 C 0.5169(8) -0.6259(4) 0.9280(5)
O1 O 0.2434(6) -0.5018(3) 0.6644(3)
O2 O 0.0730(7) -0.6757(4) 0.7544(4)
O3 O 0.2177(5) -0.1733(3) 0.9616(4)
O4 O -0.0417(6) -0.3359(4) 0.8701(4)
O5 O -0.2637(7) -0.4219(5) 0.6337(4)
O6 O -0.1148(10) -0.6992(5) 0.5153(5)
O7 O 0.3014(6) 0.1102(4) 1.0909(4)
O8 O 0.0759(8) 0.0666(4) 0.8177(4)
H1 H 0.534(11) -0.698(8) 0.886(7)
Co1_2 Co 1.0000 -1.0000 1.0000
Co2_2 Co 1.0000 -0.5000 1.5000
C1A C 0.7890(8) -0.4282(4) 1.2415(4)
C2A C 0.6431(8) -0.4688(4) 1.1156(4)
C3A C 0.6609(8) -0.5980(4) 1.0413(5)
C4A C 0.8421(8) -0.7027(4) 1.0752(4)
C5A C 0.4831(8) -0.3741(4) 1.0720(5)
O1A O 0.7566(6) -0.4982(3) 1.3356(3)
O1A_2 O -0.2434(6) -0.4982(3) 0.3356(3)
O2A O 0.9270(7) -0.3243(4) 1.2456(4)
O3A O 0.7823(5) -0.8267(3) 1.0384(4)
O3A_2 O -0.2177(5) 0.1733(3) 1.0384(4)
O4A O 1.0417(6) -0.6641(4) 1.1299(4)
O5A O 0.2637(7) -0.5781(5) 0.3663(4)
O6A O 0.1148(10) -0.3008(5) 0.4847(5)
O7A O -0.3014(6) -0.1102(4) 0.9091(4)
O8A O -0.0759(8) -0.0666(4) 1.1823(4)
H1A H 0.466(11) -0.302(8) 1.114(7)
O9 O -0.5591(18) -0.8146(12) 0.4826(11)
O10 O -0.291(2) -0.9247(11) 0.3845(10)
O11 O 0.5398(17) 0.0451(12) 0.6979(11)
O12 O -0.196(2) -0.0736(10) 0.6006(9)
loop_
_geom_bond_atom_site_label_1
_geom_bond_atom_site_label_2
_geom_bond_site_symmetry_1
_geom_bond_site_symmetry_2
Co1 O3 1_555 1_555
Co2 O1 1_555 1_555
C1 C2 1_555 1_555
C2 C3 1_555 1_555
C3 C4 1_555 1_555
C4 O3 1_555 1_555
C5 C2 1_555 1_555
O1 C1 1_555 1_555
O2 C1 1_555 1_555
O4 C4 1_555 1_555
O5 Co2 1_555 1_555
O6 Co2 1_555 1_555
O7 Co1 1_555 1_555
O8 Co1 1_555 1_555
H1 C5 1_555 1_555
Co1_2 O3A 1_555 1_555
Co2_2 O1A 1_555 1_555
C1A C2A 1_555 1_555
C2A C3A 1_555 1_555
C3A C5 1_555 1_555
C4A C3A 1_555 1_555
C5A C3 1_555 1_555
O1A C1A 1_555 1_555
O1A_2 Co2 1_555 1_555
O2A C1A 1_555 1_555
O3A C4A 1_555 1_555
O3A_2 Co1 1_555 1_555
O4A C4A 1_555 1_555
O5A Co2 1_555 1_555
O6A Co2 1_555 1_555
O7A Co1 1_555 1_555
O8A Co1 1_555 1_555
H1A C5A 1_555 1_555
C2A C5A 1_555 1_555

#END
