
#######################################################################
#
#                 Cambridge Crystallographic Data Centre
#                                CCDC 
#
#######################################################################
#
# If this CIF has been generated from an entry in the Cambridge 
# Structural Database, then it will include bibliographic, chemical, 
# crystal, experimental, refinement or atomic coordinate data resulting 
# from the CCDC's data processing and validation procedures.
#
#######################################################################

data_XOJMAL02
_symmetry_cell_setting           triclinic
_symmetry_space_group_name_H-M   'P -1'
_symmetry_Int_Tables_number      2
_space_group_name_Hall           '-P 1'
loop_
_symmetry_equiv_pos_site_id
_symmetry_equiv_pos_as_xyz
1 x,y,z
2 -x,-y,-z
_cell_length_a                   10.8762(2)
_cell_length_b                   11.1411(1)
_cell_length_c                   11.5084(3)
_cell_angle_alpha                82.8950(10)
_cell_angle_beta                 63.0050(10)
_cell_angle_gamma                62.1500(10)
_cell_volume                     1091.71
loop_
_atom_site_label
_atom_site_type_symbol
_atom_site_fract_x
_atom_site_fract_y
_atom_site_fract_z
Co1 Co -0.5000 1.0000 0.5000
Co2 Co -1.0000 1.5000 1.0000
O1 O -0.4444(4) 0.7928(3) 0.5087(3)
H1 H -0.4571 0.7817 0.5870
H2 H -0.5013 0.7646 0.5017
O3 O -0.7320(4) 1.0639(4) 0.6341(3)
H5 H -0.7982 1.0410 0.6383
H6 H -0.7713 1.0977 0.7126
O5 O -0.4564(3) 1.0014(3) 0.6630(3)
O7 O -0.4934(5) 0.8233(3) 0.7498(3)
O9 O -0.7874(4) 1.1641(3) 0.8686(3)
O10 O -0.7882(3) 1.3268(3) 0.9654(3)
O11 O -1.1056(4) 1.4351(3) 1.1814(3)
H13 H -1.0557 1.3499 1.1840
H14 H -1.1993 1.4484 1.2224
O12 O -0.9533(4) 1.6069(3) 1.0979(3)
H15 H -0.8744 1.6205 1.0710
H16 H -1.0277 1.6877 1.1145
C1 C -0.4840(5) 0.9299(4) 0.7561(4)
C2 C -0.4969(5) 0.9709(4) 0.8831(4)
C3 C -0.3896(5) 0.8756(4) 0.9252(4)
H25 H -0.3138 0.7900 0.8736
C4 C -0.6091(5) 1.0973(4) 0.9594(4)
C5 C -0.7365(4) 1.2024(4) 0.9260(4)
Co1_2 Co -0.5000 1.0000 1.5000
Co2_2 Co 0.0000 0.5000 1.0000
O1A O -0.5556(4) 1.2072(3) 0.4913(3)
H1A H -0.5429 1.2183 0.4130
H2A H -0.4987 1.2354 0.4983
O3A O -0.2680(4) 0.9361(4) 0.3659(3)
H5A H -0.2018 0.9590 0.3617
H6A H -0.2287 0.9023 0.2874
O5A O -0.5436(3) 0.9986(3) 0.3370(3)
O5A_2 O -0.5436(3) 0.9986(3) 1.3370(3)
O7A O -0.5066(5) 1.1767(3) 1.2502(3)
O9A O -0.2126(4) 0.8359(3) 1.1314(3)
O10A O -1.2118(3) 1.6732(3) 1.0346(3)
O10A_2 O -0.2118(3) 0.6732(3) 1.0346(3)
O11A O -0.8944(4) 1.5649(3) 0.8186(3)
H13A H -0.9443 1.6501 0.8160
H14A H -0.8007 1.5516 0.7776
O12A O -1.0467(4) 1.3931(3) 0.9021(3)
H15A H -1.1256 1.3795 0.9290
H16A H -0.9723 1.3123 0.8855
C1A C -0.5160(5) 1.0701(4) 1.2439(4)
C2A C -0.5031(5) 1.0291(4) 1.1169(4)
C3A C -0.6104(5) 1.1244(4) 1.0748(4)
H25A H -0.6862 1.2100 1.1264
C4A C -0.3909(5) 0.9027(4) 1.0406(4)
C5A C -0.2635(4) 0.7976(4) 1.0740(4)
Co3 Co -0.5000 0.5000 1.0000
Co4 Co 0.0000 0.0000 0.5000
O13 O -0.4173(4) 0.5662(3) 0.8156(3)
H17 H -0.4418 0.6506 0.8145
H18 H -0.3219 0.5281 0.7594
O14 O -0.5527(4) 0.3864(3) 0.9162(4)
H19 H -0.4728 0.3111 0.9057
H20 H -0.6260 0.3658 0.9395
O15 O -0.2825(3) 0.3274(3) 0.9588(3)
O16 O -0.2877(4) 0.1623(3) 0.8711(3)
O17 O -0.0118(4) -0.1752(3) 0.7592(3)
O18 O 0.0386(4) -0.0053(3) 0.6654(3)
O19 O -0.2428(4) 0.0912(4) 0.6324(3)
H21 H -0.3045 0.0583 0.6479
H22 H -0.2652 0.1169 0.7092
O20 O -0.0010(6) 0.1843(4) 0.4746(4)
H23 H -0.0198 0.2486 0.5230
H24 H -0.0383 0.2185 0.4205
C6 C -0.2339(5) 0.2029(4) 0.9240(4)
C7 C -0.1071(4) 0.0967(4) 0.9581(4)
C8 C -0.0011(5) -0.0319(4) 0.8863(4)
C9 C -0.1047(5) 0.1267(4) 1.0710(4)
H26 H -0.1772 0.2142 1.1199
C10 C 0.0080(4) -0.0742(4) 0.7612(4)
Co3_2 Co 0.5000 -0.5000 1.0000
Co4_2 Co 0.0000 0.0000 1.5000
O13A O -0.5827(4) 0.4338(3) 1.1844(3)
H17A H -0.5582 0.3494 1.1855
H18A H -0.6781 0.4719 1.2406
O14A O -0.4473(4) 0.6136(3) 1.0838(4)
H19A H -0.5272 0.6889 1.0943
H20A H -0.3740 0.6342 1.0605
O15A O -0.7175(3) 0.6726(3) 1.0412(3)
O15A_2 O 0.2825(3) -0.3274(3) 1.0412(3)
O16A O 0.2877(4) -0.1623(3) 1.1289(3)
O17A O 0.0118(4) 0.1752(3) 1.2408(3)
O18A O -0.0386(4) 0.0053(3) 0.3346(3)
O18A_2 O -0.0386(4) 0.0053(3) 1.3346(3)
O19A O 0.2428(4) -0.0912(4) 0.3676(3)
H21A H 0.3045 -0.0583 0.3521
H22A H 0.2652 -0.1169 0.2908
O20A O 0.0010(6) -0.1843(4) 0.5254(4)
H23A H 0.0198 -0.2486 0.4770
H24A H 0.0383 -0.2185 0.5795
C6A C 0.2339(5) -0.2029(4) 1.0760(4)
C7A C 0.1071(4) -0.0967(4) 1.0419(4)
C8A C 0.0011(5) 0.0319(4) 1.1137(4)
C9A C 0.1047(5) -0.1267(4) 0.9290(4)
H26A H 0.1772 -0.2142 0.8801
C10A C -0.0080(4) 0.0742(4) 1.2388(4)
O2 O -0.1257(5) 0.4274(4) 0.6150(4)
H3 H -0.0563 0.4343 0.6248
H4 H -0.1111 0.4562 0.5403
O4 O 0.3984(4) 0.5452(4) 0.6979(4)
H7 H 0.4236 0.5511 0.7561
H8 H 0.4100 0.6059 0.6479
O6 O -0.1357(5) 0.5705(4) 0.3990(4)
H9 H -0.2162 0.6476 0.4183
H10 H -0.1309 0.5299 0.3380
O8 O -0.6110(5) 0.6849(4) 0.4826(4)
H11 H -0.6911 0.7612 0.4963
H12 H -0.5499 0.6421 0.4060
loop_
_geom_bond_atom_site_label_1
_geom_bond_atom_site_label_2
_geom_bond_site_symmetry_1
_geom_bond_site_symmetry_2
Co1 O1 1_555 1_555
Co2 O10 1_555 1_555
Co3 O13 1_555 1_555
Co4 O18 1_555 1_555
O1 H1 1_555 1_555
H2 O1 1_555 1_555
O2 H3 1_555 1_555
H4 O2 1_555 1_555
O3 Co1 1_555 1_555
H5 O3 1_555 1_555
H6 O3 1_555 1_555
O4 H7 1_555 1_555
H8 O4 1_555 1_555
O5 Co1 1_555 1_555
O6 H9 1_555 1_555
H10 O6 1_555 1_555
O7 C1 1_555 1_555
O8 H11 1_555 1_555
H12 O8 1_555 1_555
O9 C5 1_555 1_555
O10 C5 1_555 1_555
O11 Co2 1_555 1_555
H13 O11 1_555 1_555
H14 O11 1_555 1_555
O12 Co2 1_555 1_555
H15 O12 1_555 1_555
H16 O12 1_555 1_555
O13 H17 1_555 1_555
H18 O13 1_555 1_555
O14 Co3 1_555 1_555
H19 O14 1_555 1_555
H20 O14 1_555 1_555
O15 Co3 1_555 1_555
O16 C6 1_555 1_555
O17 C10 1_555 1_555
O18 C10 1_555 1_555
O19 Co4 1_555 1_555
H21 O19 1_555 1_555
H22 O19 1_555 1_555
O20 Co4 1_555 1_555
H23 O20 1_555 1_555
H24 O20 1_555 1_555
C1 O5 1_555 1_555
C2 C1 1_555 1_555
C3 C2 1_555 1_555
H25 C3 1_555 1_555
C4 C2 1_555 1_555
C5 C4 1_555 1_555
C6 O15 1_555 1_555
C7 C6 1_555 1_555
C8 C7 1_555 1_555
C9 C7 1_555 1_555
H26 C9 1_555 1_555
C10 C8 1_555 1_555
Co1_2 O5A_2 1_555 1_555
Co2_2 O10A_2 1_555 1_555
Co3_2 O15A_2 1_555 1_555
Co4_2 O18A_2 1_555 1_555
O1A Co1 1_555 1_555
H1A O1A 1_555 1_555
H2A O1A 1_555 1_555
O3A Co1 1_555 1_555
H5A O3A 1_555 1_555
H6A O3A 1_555 1_555
O5A Co1 1_555 1_555
O5A_2 C1A 1_555 1_555
O7A C1A 1_555 1_555
O9A C5A 1_555 1_555
O10A Co2 1_555 1_555
O10A_2 C5A 1_555 1_555
O11A Co2 1_555 1_555
H13A O11A 1_555 1_555
H14A O11A 1_555 1_555
O12A Co2 1_555 1_555
H15A O12A 1_555 1_555
H16A O12A 1_555 1_555
O13A Co3 1_555 1_555
H17A O13A 1_555 1_555
H18A O13A 1_555 1_555
O14A Co3 1_555 1_555
H19A O14A 1_555 1_555
H20A O14A 1_555 1_555
O15A Co3 1_555 1_555
O15A_2 C6A 1_555 1_555
O16A C6A 1_555 1_555
O17A C10A 1_555 1_555
O18A Co4 1_555 1_555
O18A_2 C10A 1_555 1_555
O19A Co4 1_555 1_555
H21A O19A 1_555 1_555
H22A O19A 1_555 1_555
O20A Co4 1_555 1_555
H23A O20A 1_555 1_555
H24A O20A 1_555 1_555
C1A C2A 1_555 1_555
C2A C3A 1_555 1_555
C3A C4 1_555 1_555
H25A C3A 1_555 1_555
C4A C3 1_555 1_555
C5A C4A 1_555 1_555
C6A C7A 1_555 1_555
C7A C8A 1_555 1_555
C8A C9 1_555 1_555
C9A C8 1_555 1_555
H26A C9A 1_555 1_555
C10A C8A 1_555 1_555
C2A C4A 1_555 1_555
C7A C9A 1_555 1_555

#END
