
#######################################################################
#
#                 Cambridge Crystallographic Data Centre
#                                CCDC 
#
#######################################################################
#
# If this CIF has been generated from an entry in the Cambridge 
# Structural Database, then it will include bibliographic, chemical, 
# crystal, experimental, refinement or atomic coordinate data resulting 
# from the CCDC's data processing and validation procedures.
#
#######################################################################

data_XOJMAL01
_symmetry_cell_setting           triclinic
_symmetry_space_group_name_H-M   'P -1'
_symmetry_Int_Tables_number      2
_space_group_name_Hall           '-P 1'
loop_
_symmetry_equiv_pos_site_id
_symmetry_equiv_pos_as_xyz
1 x,y,z
2 -x,-y,-z
_cell_length_a                   10.847(2)
_cell_length_b                   11.107(2)
_cell_length_c                   11.483(2)
_cell_angle_alpha                82.93(3)
_cell_angle_beta                 63.02(3)
_cell_angle_gamma                62.12(3)
_cell_volume                     1082.79
loop_
_atom_site_label
_atom_site_type_symbol
_atom_site_fract_x
_atom_site_fract_y
_atom_site_fract_z
C1 C 0.23695(11) 0.79757(11) 0.07461(11)
C2 C 0.10942(12) 0.90291(11) 0.04101(11)
C3 C -0.00351(12) 1.02975(11) 0.11726(11)
C4 C -0.01793(12) 1.06993(11) 0.24429(11)
C5 C 0.11089(12) 0.87540(10) -0.07475(11)
Co1 Co 0.5000 0.5000 0.0000
Co3 Co 0.0000 1.0000 0.5000
O3 O 0.28853(9) 0.67341(8) 0.03394(8)
O4 O -0.04462(9) 0.99722(8) 0.33852(8)
O7 O 0.28735(9) 0.83574(8) 0.13287(8)
O8 O -0.00867(10) 1.17729(8) 0.25178(9)
O13 O 0.45267(9) 0.39370(8) -0.09792(9)
O14 O 0.39260(9) 0.43550(8) 0.18328(8)
O15 O 0.22956(9) 0.94575(9) 0.36328(9)
O16 O 0.06485(9) 0.79048(8) 0.50568(8)
H1 H 0.369(2) 0.3784(19) -0.0689(18)
H2 H 0.531(3) 0.315(3) -0.115(2)
H3 H 0.297(2) 0.4541(19) 0.2138(18)
H4 H 0.454(3) 0.342(3) 0.185(3)
H5 H 0.008(2) 0.7637(19) 0.4965(18)
H6 H 0.032(3) 0.793(2) 0.595(2)
H7 H 0.297(2) 0.9631(19) 0.3617(18)
H8 H 0.256(3) 0.911(2) 0.287(2)
H18 H 0.1883(19) 0.7887(17) -0.1276(16)
C1A C -0.23695(11) 1.20243(11) -0.07461(11)
C2A C -0.10942(12) 1.09709(11) -0.04101(11)
C3A C 0.00351(12) 0.97025(11) -0.11726(11)
C4A C 0.01793(12) 0.93007(11) -0.24429(11)
C5A C -0.11089(12) 1.12460(10) 0.07475(11)
Co1_2 Co -0.5000 1.5000 0.0000
Co3_2 Co 0.0000 1.0000 -0.5000
O3A O -0.28853(9) 1.32659(8) -0.03394(8)
O3A_2 O 0.71147(9) 0.32659(8) -0.03394(8)
O4A O 0.04462(9) 1.00278(8) -0.33852(8)
O4A_2 O 0.04462(9) 1.00278(8) 0.66148(8)
O7A O -0.28735(9) 1.16426(8) -0.13287(8)
O8A O 0.00867(10) 0.82271(8) -0.25178(9)
O13A O 0.54733(9) 0.60630(8) 0.09792(9)
O14A O 0.60740(9) 0.56450(8) -0.18328(8)
O15A O -0.22956(9) 1.05425(9) 0.63672(9)
O16A O -0.06485(9) 1.20952(8) 0.49432(8)
H1A H 0.631(2) 0.6216(19) 0.0689(18)
H2A H 0.469(3) 0.685(3) 0.115(2)
H3A H 0.703(2) 0.5459(19) -0.2138(18)
H4A H 0.546(3) 0.658(3) -0.185(3)
H5A H -0.008(2) 1.2363(19) 0.5035(18)
H6A H -0.032(3) 1.207(2) 0.405(2)
H7A H -0.297(2) 1.0369(19) 0.6383(18)
H8A H -0.256(3) 1.089(2) 0.713(2)
H18A H -0.1883(19) 1.2113(17) 0.1276(16)
C6 C 0.26531(11) 0.20263(11) -0.07593(11)
C7 C 0.39192(12) 0.09733(10) -0.04157(11)
C8 C 0.39640(12) 0.12807(10) 0.07006(11)
C9 C 0.49708(12) -0.03280(11) -0.11318(11)
C10 C 0.50375(11) -0.07429(11) -0.23652(11)
Co2 Co 0.5000 0.0000 -0.5000
Co4 Co 0.0000 0.5000 0.0000
O1 O 0.21762(9) 0.32744(8) -0.04195(8)
O2 O 0.53757(9) -0.00691(8) -0.33442(8)
O5 O 0.21109(9) 0.16189(8) -0.12882(8)
O6 O 0.48164(10) -0.17545(8) -0.23778(8)
O9 O 0.08187(10) 0.56603(8) -0.18667(8)
O10 O 0.05441(10) 0.61340(8) 0.08105(9)
O11 O 0.51205(10) 0.18017(8) -0.52926(8)
O12 O 0.25497(9) 0.09793(8) -0.36859(8)
H9 H 0.201(2) 0.054(2) -0.360(2)
H10 H 0.243(2) 0.116(2) -0.291(2)
H11 H 0.464(2) 0.250(2) -0.4781(18)
H12 H 0.510(2) 0.2003(19) -0.603(2)
H13 H 0.137(2) 0.624(2) 0.0549(19)
H14 H -0.020(3) 0.689(2) 0.099(2)
H15 H 0.183(2) 0.519(2) -0.2423(19)
H16 H 0.055(3) 0.657(3) -0.191(3)
H17 H 0.3241(19) 0.2166(17) 0.1207(16)
C6A C 0.73469(11) -0.20263(11) 0.07593(11)
C7A C 0.60808(12) -0.09733(10) 0.04157(11)
C8A C 0.60360(12) -0.12807(10) -0.07006(11)
C9A C 0.50292(12) 0.03280(11) 0.11318(11)
C10A C 0.49625(11) 0.07429(11) 0.23652(11)
Co2_2 Co 0.5000 0.0000 0.5000
Co4_2 Co 1.0000 -0.5000 0.0000
O1A O 0.78238(9) -0.32744(8) 0.04195(8)
O1A_2 O -0.21762(9) 0.67256(8) 0.04195(8)
O2A O 0.46243(9) 0.00691(8) 0.33442(8)
O2A_2 O 0.46243(9) 0.00691(8) -0.66558(8)
O5A O 0.78891(9) -0.16189(8) 0.12882(8)
O6A O 0.51836(10) 0.17545(8) 0.23778(8)
O9A O -0.08187(10) 0.43397(8) 0.18667(8)
O10A O -0.05441(10) 0.38660(8) -0.08105(9)
O11A O 0.48795(10) -0.18017(8) -0.47074(8)
O12A O 0.74503(9) -0.09793(8) -0.63141(8)
H9A H 0.799(2) -0.054(2) -0.640(2)
H10A H 0.757(2) -0.116(2) -0.709(2)
H11A H 0.536(2) -0.250(2) -0.5219(18)
H12A H 0.490(2) -0.2003(19) -0.397(2)
H13A H -0.137(2) 0.376(2) -0.0549(19)
H14A H 0.020(3) 0.311(2) -0.099(2)
H15A H -0.183(2) 0.481(2) 0.2423(19)
H16A H -0.055(3) 0.343(3) 0.191(3)
H17A H 0.6759(19) -0.2166(17) -0.1207(16)
O17 O 0.37141(9) 0.42768(8) 0.61390(8)
H19 H 0.365(2) 0.474(2) 0.549(2)
H20 H 0.457(2) 0.417(2) 0.6195(19)
O18 O 0.36794(10) 0.57100(9) 0.39832(9)
H21 H 0.392(3) 0.532(2) 0.326(2)
H22 H 0.281(3) 0.647(2) 0.419(2)
O19 O 0.10144(9) 0.45224(8) 0.30109(8)
H25 H 0.051(3) 0.450(2) 0.260(2)
H26 H 0.112(2) 0.389(2) 0.358(2)
O20 O -0.10166(10) 0.68369(8) 0.47964(9)
H23 H -0.031(3) 0.615(2) 0.411(2)
H24 H -0.164(2) 0.743(2) 0.4532(18)
loop_
_geom_bond_atom_site_label_1
_geom_bond_atom_site_label_2
_geom_bond_site_symmetry_1
_geom_bond_site_symmetry_2
C1 C2 1_555 1_555
C2 C3 1_555 1_555
C3 C4 1_555 1_555
C4 O4 1_555 1_555
C5 C2 1_555 1_555
C6 C7 1_555 1_555
C7 C8 1_555 1_555
C8 H17 1_555 1_555
C9 C7 1_555 1_555
C10 C9 1_555 1_555
Co1 O3 1_555 1_555
Co2 O2 1_555 1_555
Co3 O4 1_555 1_555
Co4 O1 1_555 1_555
O1 C6 1_555 1_555
O2 C10 1_555 1_555
O3 C1 1_555 1_555
O5 C6 1_555 1_555
O6 C10 1_555 1_555
O7 C1 1_555 1_555
O8 C4 1_555 1_555
O9 Co4 1_555 1_555
O10 Co4 1_555 1_555
O11 Co2 1_555 1_555
O12 Co2 1_555 1_555
O13 Co1 1_555 1_555
O14 Co1 1_555 1_555
O15 Co3 1_555 1_555
O16 Co3 1_555 1_555
O17 H19 1_555 1_555
O18 H21 1_555 1_555
O19 H25 1_555 1_555
O20 H23 1_555 1_555
H1 O13 1_555 1_555
H2 O13 1_555 1_555
H3 O14 1_555 1_555
H4 O14 1_555 1_555
H5 O16 1_555 1_555
H6 O16 1_555 1_555
H7 O15 1_555 1_555
H8 O15 1_555 1_555
H9 O12 1_555 1_555
H10 O12 1_555 1_555
H11 O11 1_555 1_555
H12 O11 1_555 1_555
H13 O10 1_555 1_555
H14 O10 1_555 1_555
H15 O9 1_555 1_555
H16 O9 1_555 1_555
H18 C5 1_555 1_555
H20 O17 1_555 1_555
H22 O18 1_555 1_555
H24 O20 1_555 1_555
H26 O19 1_555 1_555
C1A C2A 1_555 1_555
C2A C3A 1_555 1_555
C3A C5 1_555 1_555
C4A C3A 1_555 1_555
C5A C3 1_555 1_555
C6A C7A 1_555 1_555
C7A C8A 1_555 1_555
C8A C9 1_555 1_555
C9A C8 1_555 1_555
C10A C9A 1_555 1_555
Co1_2 O3A 1_555 1_555
Co2_2 O2A 1_555 1_555
Co3_2 O4A 1_555 1_555
Co4_2 O1A 1_555 1_555
O1A C6A 1_555 1_555
O1A_2 Co4 1_555 1_555
O2A C10A 1_555 1_555
O2A_2 Co2 1_555 1_555
O3A C1A 1_555 1_555
O3A_2 Co1 1_555 1_555
O4A C4A 1_555 1_555
O4A_2 Co3 1_555 1_555
O5A C6A 1_555 1_555
O6A C10A 1_555 1_555
O7A C1A 1_555 1_555
O8A C4A 1_555 1_555
O9A Co4 1_555 1_555
O10A Co4 1_555 1_555
O11A Co2 1_555 1_555
O12A Co2 1_555 1_555
O13A Co1 1_555 1_555
O14A Co1 1_555 1_555
O15A Co3 1_555 1_555
O16A Co3 1_555 1_555
H1A O13A 1_555 1_555
H2A O13A 1_555 1_555
H3A O14A 1_555 1_555
H4A O14A 1_555 1_555
H5A O16A 1_555 1_555
H6A O16A 1_555 1_555
H7A O15A 1_555 1_555
H8A O15A 1_555 1_555
H9A O12A 1_555 1_555
H10A O12A 1_555 1_555
H11A O11A 1_555 1_555
H12A O11A 1_555 1_555
H13A O10A 1_555 1_555
H14A O10A 1_555 1_555
H15A O9A 1_555 1_555
H16A O9A 1_555 1_555
H17A C8A 1_555 1_555
H18A C5A 1_555 1_555
C2A C5A 1_555 1_555
C7A C9A 1_555 1_555

#END
