
#######################################################################
#
#                 Cambridge Crystallographic Data Centre
#                                CCDC 
#
#######################################################################
#
# If this CIF has been generated from an entry in the Cambridge 
# Structural Database, then it will include bibliographic, chemical, 
# crystal, experimental, refinement or atomic coordinate data resulting 
# from the CCDC's data processing and validation procedures.
#
#######################################################################

data_XOJSOG
_symmetry_cell_setting           tetragonal
_symmetry_space_group_name_H-M   'P 41'
_symmetry_Int_Tables_number      76
_space_group_name_Hall           'P 4w'
loop_
_symmetry_equiv_pos_site_id
_symmetry_equiv_pos_as_xyz
1 x,y,z
2 -y,x,1/4+z
3 -x,-y,1/2+z
4 y,-x,3/4+z
_cell_length_a                   9.5790(12)
_cell_length_b                   9.5790(12)
_cell_length_c                   12.110(2)
_cell_angle_alpha                90
_cell_angle_beta                 90
_cell_angle_gamma                90
_cell_volume                     1111.18
loop_
_atom_site_label
_atom_site_type_symbol
_atom_site_fract_x
_atom_site_fract_y
_atom_site_fract_z
Zn1 Zn -0.09584(11) 1.03563(10) 0.37569(8)
S1 S -0.0193(2) 0.8246(2) 0.44570(18)
O1 O -0.0824(8) 0.4826(7) 0.2962(6)
N1 N 0.0624(9) 0.4630(8) 0.4414(7)
C1 C -0.1813(10) 0.7250(8) 0.4301(9)
H1 H -0.269(11) 0.765(10) 0.450(9)
H2 H -0.221(10) 0.724(10) 0.361(10)
C2 C -0.1687(12) 0.5738(10) 0.4666(8)
H3 H -0.154(11) 0.561(12) 0.546(12)
C3 C 0.1028(12) 0.4649(12) 0.5592(9)
H4 H 0.0274 0.4276 0.6067
H5 H 0.1275 0.5603 0.5839
C4 C -0.3071(14) 0.4988(11) 0.4510(11)
H6 H -0.3802 0.5480 0.4921
H7 H -0.2992 0.4029 0.4784
H8 H -0.3312 0.4973 0.3724
C5 C -0.0600(11) 0.5023(9) 0.3968(8)
C6 C 0.1659(10) 0.3919(10) 0.3697(9)
H9 H 0.1977 0.4567 0.3100
C7 C 0.1042(9) 0.2624(9) 0.3196(7)
C8 C 0.2872(12) 0.3612(13) 0.4495(10)
H10 H 0.3263 0.2673 0.4351
H11 H 0.3624 0.4312 0.4402
O2 O 0.0477(7) 0.1809(7) 0.3857(6)
O3 O 0.1229(7) 0.2427(7) 0.2181(5)
C9 C 0.2310(15) 0.3681(16) 0.5587(12)
H12 H 0.3025 0.4043 0.6103
H13 H 0.2036 0.2735 0.5836
Zn1_2 Zn -0.09584(11) 0.03563(10) 0.37569(8)
Zn1A Zn -0.03563(10) 0.90416(11) 0.62569(8)
Zn1C Zn 0.03563(10) 0.09584(11) 0.12569(8)
S1C S -0.1754(2) 1.0193(2) 0.19570(18)
O2_2 O 0.0477(7) 1.1809(7) 0.3857(6)
O3A O -0.2427(7) 1.1229(7) 0.4681(5)
loop_
_geom_bond_atom_site_label_1
_geom_bond_atom_site_label_2
_geom_bond_site_symmetry_1
_geom_bond_site_symmetry_2
Zn1 S1 1_555 1_555
S1 C1 1_555 1_555
O1 C5 1_555 1_555
N1 C3 1_555 1_555
C1 H1 1_555 1_555
H2 C1 1_555 1_555
C2 C1 1_555 1_555
H3 C2 1_555 1_555
C3 H4 1_555 1_555
H5 C3 1_555 1_555
C4 C2 1_555 1_555
H6 C4 1_555 1_555
H7 C4 1_555 1_555
H8 C4 1_555 1_555
C5 N1 1_555 1_555
C6 N1 1_555 1_555
H9 C6 1_555 1_555
C7 C6 1_555 1_555
C8 C6 1_555 1_555
H10 C8 1_555 1_555
H11 C8 1_555 1_555
O2 C7 1_555 1_555
O3 C7 1_555 1_555
C9 C3 1_555 1_555
H12 C9 1_555 1_555
H13 C9 1_555 1_555
Zn1_2 O2 1_555 1_555
Zn1A S1 1_555 1_555
Zn1C O3 1_555 1_555
S1C Zn1 1_555 1_555
O2_2 Zn1 1_555 1_555
O3A Zn1 1_555 1_555
C2 C5 1_555 1_555
C8 C9 1_555 1_555

#END
