
#######################################################################
#
#                 Cambridge Crystallographic Data Centre
#                                CCDC 
#
#######################################################################
#
# If this CIF has been generated from an entry in the Cambridge 
# Structural Database, then it will include bibliographic, chemical, 
# crystal, experimental, refinement or atomic coordinate data resulting 
# from the CCDC's data processing and validation procedures.
#
#######################################################################

data_XOJWOJ
_symmetry_cell_setting           monoclinic
_symmetry_space_group_name_H-M   'P 21/c'
_symmetry_Int_Tables_number      14
_space_group_name_Hall           '-P 2ybc'
loop_
_symmetry_equiv_pos_site_id
_symmetry_equiv_pos_as_xyz
1 x,y,z
2 -x,1/2+y,1/2-z
3 -x,-y,-z
4 x,1/2-y,1/2+z
_cell_length_a                   9.869(3)
_cell_length_b                   17.101(5)
_cell_length_c                   17.320(5)
_cell_angle_alpha                90
_cell_angle_beta                 94.896(4)
_cell_angle_gamma                90
_cell_volume                     2912.43
loop_
_atom_site_label
_atom_site_type_symbol
_atom_site_fract_x
_atom_site_fract_y
_atom_site_fract_z
Zn1 Zn 0.06281(7) -0.03402(4) 0.09974(4)
Zn2 Zn -0.44984(7) 0.10733(4) -0.03680(4)
P1 P 0.35393(15) 0.06128(9) 0.08767(9)
P2 P -0.14646(15) 0.10272(9) 0.05420(9)
O1 O 0.2049(4) 0.0418(2) 0.0858(2)
O2 O 0.3837(4) 0.1111(2) 0.0175(2)
O3 O 0.4477(4) -0.0093(3) 0.0968(2)
O4 O 0.5142(5) 0.3265(3) 0.3727(3)
O5 O 0.4822(8) 0.2242(3) 0.4453(3)
O6 O -0.1022(4) 0.0286(3) 0.0978(2)
O7 O -0.0700(4) 0.1137(2) -0.0183(2)
O8 O -0.2986(4) 0.1069(3) 0.0395(2)
O9 O -0.0994(5) 0.4112(3) 0.3007(3)
O10 O 0.1027(5) 0.3571(3) 0.3301(3)
C1 C 0.3917(6) 0.1201(4) 0.1735(3)
C2 C 0.3569(7) 0.0928(4) 0.2445(4)
H1 H 0.3131 0.0449 0.2477
C3 C 0.3880(7) 0.1375(4) 0.3110(4)
H2 H 0.3658 0.1183 0.3586
C4 C 0.4499(7) 0.2085(4) 0.3082(4)
C5 C 0.4825(8) 0.2372(4) 0.2379(4)
H3 H 0.5238 0.2859 0.2351
C6 C 0.4534(7) 0.1928(4) 0.1706(4)
H4 H 0.4759 0.2123 0.1233
C7 C 0.4844(7) 0.2546(4) 0.3816(4)
C8 C -0.1012(6) 0.1834(4) 0.1181(3)
C9 C 0.0242(6) 0.1862(4) 0.1609(4)
H5 H 0.0881 0.1475 0.1537
C10 C 0.0562(6) 0.2453(4) 0.2140(4)
H6 H 0.1414 0.2461 0.2415
C11 C -0.0370(7) 0.3025(4) 0.2263(4)
C12 C -0.1621(7) 0.3024(4) 0.1827(4)
H7 H -0.2247 0.3419 0.1895
C13 C -0.1936(7) 0.2435(4) 0.1292(4)
H8 H -0.2775 0.2440 0.1003
C14 C -0.0072(7) 0.3606(4) 0.2897(4)
Zn1B Zn -0.06281(7) 0.03402(4) -0.09974(4)
Zn1A Zn -0.06281(7) 0.46598(4) 0.40026(4)
Zn1C Zn 0.06281(7) -0.46598(4) -0.40026(4)
Zn2B Zn 0.44984(7) -0.10733(4) 0.03680(4)
Zn2_2 Zn 0.55016(7) 0.10733(4) -0.03680(4)
Zn2A Zn -0.55016(7) -0.39267(4) -0.46320(4)
Zn2B_2 Zn -0.55016(7) -0.10733(4) 0.03680(4)
Zn2C Zn 0.55016(7) 0.39267(4) 0.46320(4)
P1B P -0.35393(15) -0.06128(9) -0.08767(9)
P2B P 0.14646(15) -0.10272(9) -0.05420(9)
O1B O -0.2049(4) -0.0418(2) -0.0858(2)
O2B O -0.3837(4) -0.1111(2) -0.0175(2)
O2_2 O -0.6163(4) 0.1111(2) 0.0175(2)
O2B_2 O 0.6163(4) -0.1111(2) -0.0175(2)
O3B O -0.4477(4) 0.0093(3) -0.0968(2)
O4B O -0.5142(5) -0.3265(3) -0.3727(3)
O4A O 0.4858(5) -0.1735(3) 0.1273(3)
O4C O -0.4858(5) 0.1735(3) -0.1273(3)
O5B O -0.4822(8) -0.2242(3) -0.4453(3)
O6B O 0.1022(4) -0.0286(3) -0.0978(2)
O7B O 0.0700(4) -0.1137(2) 0.0183(2)
O8B O 0.2986(4) -0.1069(3) -0.0395(2)
O9B O 0.0994(5) -0.4112(3) -0.3007(3)
O9A O 0.0994(5) -0.0888(3) 0.1993(3)
O9C O -0.0994(5) 0.0888(3) -0.1993(3)
O10B O -0.1027(5) -0.3571(3) -0.3301(3)
C1B C -0.3917(6) -0.1201(4) -0.1735(3)
C2B C -0.3569(7) -0.0928(4) -0.2445(4)
H1B H -0.3131 -0.0449 -0.2477
C3B C -0.3880(7) -0.1375(4) -0.3110(4)
H2B H -0.3658 -0.1183 -0.3586
C4B C -0.4499(7) -0.2085(4) -0.3082(4)
C5B C -0.4825(8) -0.2372(4) -0.2379(4)
H3B H -0.5238 -0.2859 -0.2351
C6B C -0.4534(7) -0.1928(4) -0.1706(4)
H4B H -0.4759 -0.2123 -0.1233
C7B C -0.4844(7) -0.2546(4) -0.3816(4)
C8B C 0.1012(6) -0.1834(4) -0.1181(3)
C9B C -0.0242(6) -0.1862(4) -0.1609(4)
H5B H -0.0881 -0.1475 -0.1537
C10B C -0.0562(6) -0.2453(4) -0.2140(4)
H6B H -0.1414 -0.2461 -0.2415
C11B C 0.0370(7) -0.3025(4) -0.2263(4)
C12B C 0.1621(7) -0.3024(4) -0.1827(4)
H7B H 0.2247 -0.3419 -0.1895
C13B C 0.1936(7) -0.2435(4) -0.1292(4)
H8B H 0.2775 -0.2440 -0.1003
C14B C 0.0072(7) -0.3606(4) -0.2897(4)
N1 N 0.6905(7) -0.0320(5) 0.1854(4)
H9 H 0.6095 -0.0316 0.1585
H10 H 0.7379 -0.0731 0.1714
H11 H 0.7352 0.0117 0.1758
N2 N 0.8405(14) 0.0483(10) 0.3291(13)
N3 N 1.0014(11) 0.1616(7) 0.4070(11)
N4 N 1.1649(6) 0.2891(3) 0.4738(3)
H12 H 1.2432 0.3139 0.4857
H13 H 1.0970 0.3168 0.4908
H14 H 1.1514 0.2837 0.4226
C15 C 0.6729(15) -0.0366(7) 0.2659(6)
H15 H 0.6422 -0.0894 0.2753
H16 H 0.5977 -0.0022 0.2749
C16 C 0.7828(15) -0.0192(12) 0.3285(8)
H17 H 0.7447 -0.0259 0.3779
H18 H 0.8531 -0.0585 0.3258
C17 C 0.7780(19) 0.1017(12) 0.3677(13)
H19 H 0.7458 0.0776 0.4134
H20 H 0.6991 0.1200 0.3355
C18 C 0.8575(15) 0.1654(12) 0.3906(16)
H21 H 0.8213 0.1860 0.4368
H22 H 0.8405 0.2048 0.3506
C19 C 1.0247(15) 0.1669(7) 0.4832(10)
H23 H 1.0270 0.1147 0.5053
H24 H 0.9503 0.1950 0.5037
C20 C 1.1697(13) 0.2121(6) 0.5103(6)
H25 H 1.1805 0.2174 0.5663
H26 H 1.2460 0.1823 0.4941
O11 O 0.430(3) 0.0856(19) 0.5208(17)
C21? C 0.9733(12) 0.0307(11) 0.3581(12)
C22? C 1.0530(17) 0.0876(10) 0.3909(15)
H27? H 0.9682 -0.0105 0.3963
H28? H 1.0197 0.0089 0.3158
H29? H 1.1260 0.0957 0.3577
H30? H 1.0944 0.0669 0.4395
O12? O 0.547(4) 0.0920(18) 0.5584(19)
loop_
_geom_bond_atom_site_label_1
_geom_bond_atom_site_label_2
_geom_bond_site_symmetry_1
_geom_bond_site_symmetry_2
Zn1 O1 1_555 1_555
Zn2 O8 1_555 1_555
P1 O1 1_555 1_555
P2 O6 1_555 1_555
O2 P1 1_555 1_555
O3 P1 1_555 1_555
O4 C7 1_555 1_555
O5 C7 1_555 1_555
O6 Zn1 1_555 1_555
O7 P2 1_555 1_555
O8 P2 1_555 1_555
O9 C14 1_555 1_555
O10 C14 1_555 1_555
C1 P1 1_555 1_555
C2 C1 1_555 1_555
H1 C2 1_555 1_555
C3 C2 1_555 1_555
H2 C3 1_555 1_555
C4 C3 1_555 1_555
C5 C4 1_555 1_555
H3 C5 1_555 1_555
C6 C1 1_555 1_555
H4 C6 1_555 1_555
C7 C4 1_555 1_555
C8 P2 1_555 1_555
C9 C8 1_555 1_555
H5 C9 1_555 1_555
C10 C9 1_555 1_555
H6 C10 1_555 1_555
C11 C10 1_555 1_555
C12 C11 1_555 1_555
H7 C12 1_555 1_555
C13 C8 1_555 1_555
H8 C13 1_555 1_555
C14 C11 1_555 1_555
N1 H9 1_555 1_555
H10 N1 1_555 1_555
H11 N1 1_555 1_555
N2 C16 1_555 1_555
N3 C18 1_555 1_555
N4 H12 1_555 1_555
H13 N4 1_555 1_555
H14 N4 1_555 1_555
C15 N1 1_555 1_555
H15 C15 1_555 1_555
H16 C15 1_555 1_555
C16 C15 1_555 1_555
H17 C16 1_555 1_555
H18 C16 1_555 1_555
C17 N2 1_555 1_555
H19 C17 1_555 1_555
H20 C17 1_555 1_555
C18 C17 1_555 1_555
H21 C18 1_555 1_555
H22 C18 1_555 1_555
C19 N3 1_555 1_555
H23 C19 1_555 1_555
H24 C19 1_555 1_555
C20 N4 1_555 1_555
H25 C20 1_555 1_555
H26 C20 1_555 1_555
Zn1B O7 1_555 1_555
Zn1A O9 1_555 1_555
Zn1C O9B 1_555 1_555
Zn2B O3 1_555 1_555
Zn2_2 O2 1_555 1_555
Zn2A O4B 1_555 1_555
Zn2B_2 O2B 1_555 1_555
Zn2C O4 1_555 1_555
P1B O1B 1_555 1_555
P2B O6B 1_555 1_555
O1B Zn1B 1_555 1_555
O2B P1B 1_555 1_555
O2_2 Zn2 1_555 1_555
O2B_2 Zn2B 1_555 1_555
O3B Zn2 1_555 1_555
O4B C7B 1_555 1_555
O4A Zn2B 1_555 1_555
O4C Zn2 1_555 1_555
O5B C7B 1_555 1_555
O6B Zn1B 1_555 1_555
O7B Zn1 1_555 1_555
O8B Zn2B 1_555 1_555
O9B C14B 1_555 1_555
O9A Zn1 1_555 1_555
O9C Zn1B 1_555 1_555
O10B C14B 1_555 1_555
C1B P1B 1_555 1_555
C2B C1B 1_555 1_555
H1B C2B 1_555 1_555
C3B C2B 1_555 1_555
H2B C3B 1_555 1_555
C4B C3B 1_555 1_555
C5B C4B 1_555 1_555
H3B C5B 1_555 1_555
C6B C1B 1_555 1_555
H4B C6B 1_555 1_555
C7B C4B 1_555 1_555
C8B P2B 1_555 1_555
C9B C8B 1_555 1_555
H5B C9B 1_555 1_555
C10B C9B 1_555 1_555
H6B C10B 1_555 1_555
C11B C10B 1_555 1_555
C12B C11B 1_555 1_555
H7B C12B 1_555 1_555
C13B C8B 1_555 1_555
H8B C13B 1_555 1_555
C14B C11B 1_555 1_555
C5 C6 1_555 1_555
C12 C13 1_555 1_555
C19 C20 1_555 1_555
P1B O3B 1_555 1_555
P2B O7B 1_555 1_555
P2B O8B 1_555 1_555
C5B C6B 1_555 1_555
C12B C13B 1_555 1_555

#END
