
#######################################################################
#
#                 Cambridge Crystallographic Data Centre
#                                CCDC 
#
#######################################################################
#
# If this CIF has been generated from an entry in the Cambridge 
# Structural Database, then it will include bibliographic, chemical, 
# crystal, experimental, refinement or atomic coordinate data resulting 
# from the CCDC's data processing and validation procedures.
#
#######################################################################

data_XOJWAV
_symmetry_cell_setting           monoclinic
_symmetry_space_group_name_H-M   'P 21/c'
_symmetry_Int_Tables_number      14
_space_group_name_Hall           '-P 2ybc'
loop_
_symmetry_equiv_pos_site_id
_symmetry_equiv_pos_as_xyz
1 x,y,z
2 -x,1/2+y,1/2-z
3 -x,-y,-z
4 x,1/2-y,1/2+z
_cell_length_a                   10.550(2)
_cell_length_b                   8.5260(17)
_cell_length_c                   18.152(4)
_cell_angle_alpha                90
_cell_angle_beta                 97.26(3)
_cell_angle_gamma                90
_cell_volume                     1619.67
loop_
_atom_site_label
_atom_site_type_symbol
_atom_site_fract_x
_atom_site_fract_y
_atom_site_fract_z
Mn1 Mn 0.074926(17) -0.01974(2) -0.123061(10)
O1 O -0.09997(9) -0.02057(11) -0.11256(5)
N1 N 0.26012(11) 0.00808(13) -0.13123(6)
O2 O 0.11326(9) -0.18091(11) -0.05196(5)
N2 N 0.05499(11) 0.15531(13) -0.19131(6)
O3 O 0.11477(12) 0.16124(14) -0.02560(6)
C1 C 0.34350(13) -0.17144(16) -0.03345(7)
C2 C -0.17257(13) 0.11951(15) -0.22612(7)
C3 C 0.22320(15) -0.33967(17) 0.04046(8)
C4 C -0.04971(13) 0.20089(15) -0.23421(7)
C5 C -0.19154(13) 0.01810(15) -0.16698(7)
C6 C 0.22409(13) -0.22600(15) -0.01727(7)
C7 C -0.31230(14) -0.04982(19) -0.16600(8)
H1 H -0.3264 -0.1146 -0.1266
C8 C 0.35409(13) -0.05588(17) -0.08999(7)
H2 H 0.4360 -0.0247 -0.0974
C9 C -0.39257(15) 0.07648(19) -0.28030(9)
H3 H -0.4589 0.0961 -0.3180
C10 C -0.27484(15) 0.14571(17) -0.28141(8)
H4 H -0.2631 0.2125 -0.3205
C11 C 0.33600(18) -0.3957(2) 0.07707(9)
H5 H 0.3340 -0.4695 0.1147
C12 C -0.41069(15) -0.02284(19) -0.22211(10)
H6 H -0.4894 -0.0714 -0.2209
C13 C 0.28166(14) 0.12045(19) -0.18980(8)
H7 H 0.2816 0.0665 -0.2369
H8 H 0.3636 0.1720 -0.1776
C14 C 0.45783(16) -0.2334(2) 0.00481(9)
H9 H 0.5364 -0.1986 -0.0069
C15 C 0.17512(14) 0.23959(18) -0.19519(10)
H10 H 0.1901 0.3142 -0.1547
H11 H 0.1711 0.2965 -0.2417
C16 C 0.45354(17) -0.3437(2) 0.05876(10)
H12 H 0.5290 -0.3845 0.0834
O4 O 0.10324(11) -0.38329(13) 0.05316(6)
C17 C 0.0909(2) -0.50494(19) 0.10598(10)
H13 H 0.0020 -0.5239 0.1090
H14 H 0.1325 -0.4734 0.1538
H15 H 0.1298 -0.5992 0.0906
O5 O -0.04983(11) 0.31028(13) -0.28083(6)
H16 H 0.120(2) 0.119(3) 0.0139(12)
H17 H 0.056(2) 0.224(3) -0.0284(13)
Mn1A Mn -0.074926(17) 0.48026(2) -0.376939(10)
O5A O 0.04983(11) -0.18972(13) -0.21917(6)
loop_
_geom_bond_atom_site_label_1
_geom_bond_atom_site_label_2
_geom_bond_site_symmetry_1
_geom_bond_site_symmetry_2
Mn1 O1 1_555 1_555
O1 C5 1_555 1_555
N1 Mn1 1_555 1_555
O2 Mn1 1_555 1_555
N2 Mn1 1_555 1_555
O3 Mn1 1_555 1_555
C1 C6 1_555 1_555
C2 C4 1_555 1_555
C3 C6 1_555 1_555
C4 N2 1_555 1_555
C5 C2 1_555 1_555
C6 O2 1_555 1_555
C7 C5 1_555 1_555
H1 C7 1_555 1_555
C8 N1 1_555 1_555
H2 C8 1_555 1_555
C9 H3 1_555 1_555
C10 C2 1_555 1_555
H4 C10 1_555 1_555
C11 C3 1_555 1_555
H5 C11 1_555 1_555
C12 C7 1_555 1_555
H6 C12 1_555 1_555
C13 N1 1_555 1_555
H7 C13 1_555 1_555
H8 C13 1_555 1_555
C14 C1 1_555 1_555
H9 C14 1_555 1_555
C15 N2 1_555 1_555
H10 C15 1_555 1_555
H11 C15 1_555 1_555
C16 C11 1_555 1_555
H12 C16 1_555 1_555
O4 C3 1_555 1_555
C17 O4 1_555 1_555
H13 C17 1_555 1_555
H14 C17 1_555 1_555
H15 C17 1_555 1_555
O5 C4 1_555 1_555
H16 O3 1_555 1_555
H17 O3 1_555 1_555
Mn1A O5 1_555 1_555
O5A Mn1 1_555 1_555
C1 C8 1_555 1_555
C9 C10 1_555 1_555
C9 C12 1_555 1_555
C13 C15 1_555 1_555
C14 C16 1_555 1_555

#END
