
#######################################################################
#
#                 Cambridge Crystallographic Data Centre
#                                CCDC 
#
#######################################################################
#
# If this CIF has been generated from an entry in the Cambridge 
# Structural Database, then it will include bibliographic, chemical, 
# crystal, experimental, refinement or atomic coordinate data resulting 
# from the CCDC's data processing and validation procedures.
#
#######################################################################

data_XOJWID
_symmetry_cell_setting           triclinic
_symmetry_space_group_name_H-M   'P -1'
_symmetry_Int_Tables_number      2
_space_group_name_Hall           '-P 1'
loop_
_symmetry_equiv_pos_site_id
_symmetry_equiv_pos_as_xyz
1 x,y,z
2 -x,-y,-z
_cell_length_a                   10.075(9)
_cell_length_b                   13.051(7)
_cell_length_c                   13.240(9)
_cell_angle_alpha                70.79(4)
_cell_angle_beta                 68.85(4)
_cell_angle_gamma                70.61(4)
_cell_volume                     1487.6
loop_
_atom_site_label
_atom_site_type_symbol
_atom_site_fract_x
_atom_site_fract_y
_atom_site_fract_z
Zn1 Zn 1.43318(7) 0.83363(5) 0.55285(5)
Zn2 Zn 0.83744(7) 0.94549(5) 0.66517(5)
P1 P 1.12993(15) 0.83589(12) 0.52661(12)
P2 P 0.50792(15) 0.96900(12) 0.66402(12)
O1 O 1.2288(4) 0.8673(4) 0.5679(3)
O2 O 0.9881(4) 0.8220(3) 0.6160(4)
O3 O 1.1010(5) 0.9167(3) 0.4206(4)
O4 O 1.4467(5) 0.3053(4) 0.4855(4)
O5 O 1.5096(7) 0.3877(4) 0.3072(5)
O6 O 0.6720(4) 0.9288(4) 0.6379(3)
O7 O 0.4414(5) 0.8744(3) 0.6793(3)
O8 O 0.4584(4) 1.0713(3) 0.5798(3)
O9 O 0.2030(5) 1.0376(4) 1.1865(4)
O10 O 0.2697(6) 1.1980(4) 1.1076(4)
C1 C 1.2177(6) 0.7035(5) 0.4916(5)
C2 C 1.2193(7) 0.6058(5) 0.5732(5)
H1 H 1.1714 0.6077 0.6474
C3 C 1.2933(7) 0.5032(5) 0.5442(6)
H2 H 1.2937 0.4370 0.5995
C4 C 1.3638(7) 0.4997(5) 0.4371(6)
C5 C 1.3624(8) 0.5971(6) 0.3546(6)
H3 H 1.4107 0.5946 0.2806
C6 C 1.2892(7) 0.6984(5) 0.3820(5)
H4 H 1.2878 0.7640 0.3260
C7 C 1.4474(7) 0.3904(5) 0.4067(6)
C8 C 0.4330(6) 1.0094(5) 0.7954(5)
C9 C 0.3776(7) 0.9384(5) 0.8925(5)
H5 H 0.3803 0.8667 0.8919
C10 C 0.3190(8) 0.9710(6) 0.9894(5)
H6 H 0.2796 0.9218 1.0540
C11 C 0.3160(7) 1.0753(5) 0.9953(5)
C12 C 0.3710(8) 1.1477(6) 0.8979(5)
H7 H 0.3690 1.2190 0.8993
C13 C 0.4288(7) 1.1157(5) 0.7986(5)
H8 H 0.4652 1.1655 0.7333
C14 C 0.2589(7) 1.1082(6) 1.1028(6)
Zn1A Zn -0.43318(7) 1.16637(5) 1.44715(5)
Zn1_2 Zn -0.56682(7) 1.83363(5) 1.55285(5)
Zn1_3 Zn 0.43318(7) 0.83363(5) 0.55285(5)
Zn1_4 Zn 0.43318(7) 0.83363(5) 1.55285(5)
Zn1A_2 Zn 0.56682(7) 1.16637(5) 0.44715(5)
Zn1A_3 Zn 0.56682(7) 1.16637(5) 1.44715(5)
Zn1A_4 Zn 1.56682(7) 0.16637(5) 0.44715(5)
Zn2A Zn 0.16256(7) 1.05451(5) 1.33483(5)
Zn2_2 Zn -0.16256(7) 0.94549(5) 1.66517(5)
Zn2A_2 Zn 1.16256(7) 1.05451(5) 0.33483(5)
P1A P -0.12993(15) 1.16411(12) 1.47339(12)
P2A P 0.49208(15) 1.03100(12) 1.33598(12)
O1A O -0.2288(4) 1.1327(4) 1.4321(3)
O2A O 0.0119(4) 1.1780(3) 1.3840(4)
O3A O -0.1010(5) 1.0833(3) 1.5794(4)
O3_2 O 0.1010(5) 0.9167(3) 1.4206(4)
O3A_2 O 0.8990(5) 1.0833(3) 0.5794(4)
O4A O -0.4467(5) 1.6947(4) 1.5145(4)
O4_2 O -0.5533(5) 1.3053(4) 1.4855(4)
O4A_2 O 1.5533(5) 0.6947(4) 0.5145(4)
O5A O -0.5096(7) 1.6123(4) 1.6928(5)
O6A O 0.3280(4) 1.0712(4) 1.3621(3)
O7A O 0.5586(5) 1.1256(3) 1.3207(3)
O7_2 O 1.4414(5) 0.8744(3) 0.6793(3)
O7A_2 O -0.4414(5) 1.1256(3) 1.3207(3)
O8A O 0.5416(4) 0.9287(3) 1.4202(3)
O8_2 O -0.5416(4) 1.0713(3) 1.5798(3)
O8A_2 O 1.5416(4) 0.9287(3) 0.4202(3)
O9A O 0.7970(5) 0.9624(4) 0.8135(4)
O10A O 0.7303(6) 0.8020(4) 0.8924(4)
C1A C -0.2177(6) 1.2965(5) 1.5084(5)
C2A C -0.2193(7) 1.3942(5) 1.4268(5)
H1A H -0.1714 1.3923 1.3526
C3A C -0.2933(7) 1.4968(5) 1.4558(6)
H2A H -0.2937 1.5630 1.4005
C4A C -0.3638(7) 1.5003(5) 1.5629(6)
C5A C -0.3624(8) 1.4029(6) 1.6454(6)
H3A H -0.4107 1.4054 1.7194
C6A C -0.2892(7) 1.3016(5) 1.6180(5)
H4A H -0.2878 1.2360 1.6740
C7A C -0.4474(7) 1.6096(5) 1.5933(6)
C8A C 0.5670(6) 0.9906(5) 1.2046(5)
C9A C 0.6224(7) 1.0616(5) 1.1075(5)
H5A H 0.6197 1.1333 1.1081
C10A C 0.6810(8) 1.0290(6) 1.0106(5)
H6A H 0.7204 1.0782 0.9460
C11A C 0.6840(7) 0.9247(5) 1.0047(5)
C12A C 0.6290(8) 0.8523(6) 1.1021(5)
H7A H 0.6310 0.7810 1.1007
C13A C 0.5712(7) 0.8843(5) 1.2014(5)
H8A H 0.5348 0.8345 1.2667
C14A C 0.7411(7) 0.8918(6) 0.8972(6)
N1 N 0.3437(8) 0.3178(6) 0.2024(5)
H9 H 0.3287 0.2631 0.1836
H10 H 0.4004 0.2852 0.2491
C15 C 0.2050(12) 0.3793(9) 0.2597(9)
H13 H 0.1593 0.3295 0.3248
H14 H 0.1428 0.4126 0.2110
H15 H 0.2202 0.4369 0.2814
C16 C 0.4224(14) 0.3876(10) 0.1013(8)
H16 H 0.5140 0.3420 0.0671
H17 H 0.4407 0.4452 0.1209
H18 H 0.3640 0.4210 0.0500
N2 N 0.1522(7) 0.1144(6) 0.6111(6)
H11 H 0.1090 0.0975 0.5718
H12 H 0.2494 0.0864 0.5865
C17 C 0.1020(9) 0.0591(9) 0.7267(7)
H19 H 0.1250 -0.0200 0.7340
H20 H -0.0021 0.0866 0.7537
H21 H 0.1499 0.0741 0.7694
C18 C 0.1243(11) 0.2344(9) 0.5873(11)
H22 H 0.1610 0.2635 0.5086
H23 H 0.1728 0.2539 0.6264
H24 H 0.0207 0.2659 0.6112
O11 O 0.3214(10) 0.4740(9) 0.8686(7)
N3 N 0.0620(12) 0.6982(9) 0.9904(10)
O12 O -0.0684(13) 0.5835(11) 1.1279(10)
C19 C -0.0217(16) 0.6302(11) 1.0294(14)
H25 H -0.0502 0.6144 0.9778
C20 C 0.1142(15) 0.7463(12) 0.8732(11)
H26 H 0.0741 0.7215 0.8323
H27 H 0.2193 0.7232 0.8495
H28 H 0.0839 0.8264 0.8596
C21 C 0.102(2) 0.727(2) 1.0672(17)
H29 H 0.0564 0.6897 1.1416
H30 H 0.0699 0.8062 1.0593
H31 H 0.2065 0.7038 1.0531
loop_
_geom_bond_atom_site_label_1
_geom_bond_atom_site_label_2
_geom_bond_site_symmetry_1
_geom_bond_site_symmetry_2
Zn1 O1 1_555 1_555
Zn2 O2 1_555 1_555
P1 O1 1_555 1_555
P2 O6 1_555 1_555
O2 P1 1_555 1_555
O3 P1 1_555 1_555
O4 C7 1_555 1_555
O5 C7 1_555 1_555
O6 Zn2 1_555 1_555
O7 P2 1_555 1_555
O8 P2 1_555 1_555
O9 C14 1_555 1_555
O10 C14 1_555 1_555
C1 P1 1_555 1_555
C2 C1 1_555 1_555
H1 C2 1_555 1_555
C3 C2 1_555 1_555
H2 C3 1_555 1_555
C4 C3 1_555 1_555
C5 C4 1_555 1_555
H3 C5 1_555 1_555
C6 C1 1_555 1_555
H4 C6 1_555 1_555
C7 C4 1_555 1_555
C8 P2 1_555 1_555
C9 C8 1_555 1_555
H5 C9 1_555 1_555
C10 C9 1_555 1_555
H6 C10 1_555 1_555
C11 C10 1_555 1_555
C12 C11 1_555 1_555
H7 C12 1_555 1_555
C13 C8 1_555 1_555
H8 C13 1_555 1_555
C14 C11 1_555 1_555
N1 H9 1_555 1_555
H10 N1 1_555 1_555
N2 H11 1_555 1_555
H12 N2 1_555 1_555
C15 N1 1_555 1_555
H13 C15 1_555 1_555
H14 C15 1_555 1_555
H15 C15 1_555 1_555
C16 N1 1_555 1_555
H16 C16 1_555 1_555
H17 C16 1_555 1_555
H18 C16 1_555 1_555
C17 N2 1_555 1_555
H19 C17 1_555 1_555
H20 C17 1_555 1_555
H21 C17 1_555 1_555
C18 N2 1_555 1_555
H22 C18 1_555 1_555
H23 C18 1_555 1_555
H24 C18 1_555 1_555
N3 C19 1_555 1_555
O12 C19 1_555 1_555
C19 H25 1_555 1_555
C20 N3 1_555 1_555
H26 C20 1_555 1_555
H27 C20 1_555 1_555
H28 C20 1_555 1_555
C21 N3 1_555 1_555
H29 C21 1_555 1_555
H30 C21 1_555 1_555
H31 C21 1_555 1_555
Zn1A O1A 1_555 1_555
Zn1_2 O4A 1_555 1_555
Zn1_3 O7 1_555 1_555
Zn1_4 O8A 1_555 1_555
Zn1A_2 O8 1_555 1_555
Zn1A_3 O7A 1_555 1_555
Zn1A_4 O4 1_555 1_555
Zn2A O9 1_555 1_555
Zn2_2 O3A 1_555 1_555
Zn2A_2 O3 1_555 1_555
P1A O1A 1_555 1_555
P2A O6A 1_555 1_555
O2A Zn2A 1_555 1_555
O3A P1A 1_555 1_555
O3_2 Zn2A 1_555 1_555
O3A_2 Zn2 1_555 1_555
O4A C7A 1_555 1_555
O4_2 Zn1A 1_555 1_555
O4A_2 Zn1 1_555 1_555
O5A C7A 1_555 1_555
O6A Zn2A 1_555 1_555
O7A P2A 1_555 1_555
O7_2 Zn1 1_555 1_555
O7A_2 Zn1A 1_555 1_555
O8A P2A 1_555 1_555
O8_2 Zn1A 1_555 1_555
O8A_2 Zn1 1_555 1_555
O9A Zn2 1_555 1_555
O10A C14A 1_555 1_555
C1A P1A 1_555 1_555
C2A C1A 1_555 1_555
H1A C2A 1_555 1_555
C3A C2A 1_555 1_555
H2A C3A 1_555 1_555
C4A C3A 1_555 1_555
C5A C4A 1_555 1_555
H3A C5A 1_555 1_555
C6A C1A 1_555 1_555
H4A C6A 1_555 1_555
C7A C4A 1_555 1_555
C8A P2A 1_555 1_555
C9A C8A 1_555 1_555
H5A C9A 1_555 1_555
C10A C9A 1_555 1_555
H6A C10A 1_555 1_555
C11A C10A 1_555 1_555
C12A C11A 1_555 1_555
H7A C12A 1_555 1_555
C13A C8A 1_555 1_555
H8A C13A 1_555 1_555
C14A O9A 1_555 1_555
C5 C6 1_555 1_555
C12 C13 1_555 1_555
P1A O2A 1_555 1_555
C5A C6A 1_555 1_555
C11A C14A 1_555 1_555
C12A C13A 1_555 1_555

#END
