
#######################################################################
#
#                 Cambridge Crystallographic Data Centre
#                                CCDC 
#
#######################################################################
#
# If this CIF has been generated from an entry in the Cambridge 
# Structural Database, then it will include bibliographic, chemical, 
# crystal, experimental, refinement or atomic coordinate data resulting 
# from the CCDC's data processing and validation procedures.
#
#######################################################################

data_XOJXUQ
_symmetry_cell_setting           triclinic
_symmetry_space_group_name_H-M   'P -1'
_symmetry_Int_Tables_number      2
_space_group_name_Hall           '-P 1'
loop_
_symmetry_equiv_pos_site_id
_symmetry_equiv_pos_as_xyz
1 x,y,z
2 -x,-y,-z
_cell_length_a                   9.8467(5)
_cell_length_b                   10.1475(5)
_cell_length_c                   12.5982(6)
_cell_angle_alpha                67.426(4)
_cell_angle_beta                 80.324(4)
_cell_angle_gamma                64.656(5)
_cell_volume                     1050.48
loop_
_atom_site_label
_atom_site_type_symbol
_atom_site_fract_x
_atom_site_fract_y
_atom_site_fract_z
Sm1 Sm -0.731610(19) -0.286760(19) 0.236240(16)
Sm2 Sm -0.258720(19) -0.226600(18) 0.258130(16)
O1 O -0.4309(3) -0.3352(3) 0.2404(2)
O2 O -0.5001(3) -0.4286(3) 0.1376(2)
O3 O 0.0105(3) -0.3103(3) 0.2099(2)
O4 O 0.2260(3) -0.5000(3) 0.2015(3)
O5 O -0.3111(3) -0.1284(3) 0.0502(2)
O6 O -0.2052(3) 0.0053(3) 0.1437(2)
O7 O -0.3305(3) 0.0610(3) -0.1194(2)
O8 O -0.1987(3) 0.1781(3) -0.0322(3)
O9 O -0.4096(3) -0.4595(3) 0.6132(3)
O10 O -0.4013(3) -0.2855(3) 0.4399(2)
O11 O -0.1279(3) -0.6477(3) 0.5844(3)
O12 O -0.1250(3) -0.4814(3) 0.4061(3)
O17 O -0.1742(3) -0.1567(3) 0.3931(2)
H9 H -0.20709(17) -0.2020(5) 0.4559(4)
H10 H -0.0813(3) -0.1783(8) 0.3902(6)
O18 O -0.5022(3) -0.0010(3) 0.2313(3)
H11 H -0.49747(19) 0.08639(18) 0.2071(4)
H12 H -0.5594(3) -0.0113(3) 0.1954(5)
O19 O -0.6877(3) -0.1901(3) 0.3734(3)
H13 H -0.76191(16) -0.1456(16) 0.4090(8)
H14 H -0.60273(18) -0.2088(18) 0.3941(10)
O20 O -0.9474(3) -0.0491(3) 0.2328(2)
H15 H -1.03164(18) -0.0256(2) 0.2071(2)
H16 H -0.9452(3) 0.0077(4) 0.2659(3)
N1 N -0.1466(3) -0.4464(3) 0.1803(3)
C1 C -0.4007(4) -0.4148(4) 0.1774(3)
C2 C -0.2353(4) -0.4962(4) 0.1513(3)
C3 C -0.1809(4) -0.6155(4) 0.1073(3)
H17 H -0.2458 -0.6455 0.0855
C4 C -0.0271(4) -0.6883(4) 0.0968(4)
H18 H 0.0133 -0.7706 0.0694
C5 C 0.0676(4) -0.6387(4) 0.1270(4)
H19 H 0.1715 -0.6874 0.1216
C6 C 0.0009(4) -0.5133(4) 0.1657(3)
C7 C 0.0871(4) -0.4382(4) 0.1951(3)
C8 C -0.2974(4) -0.0074(4) -0.0156(3)
C9 C -0.2273(4) 0.0654(4) 0.0372(3)
C10 C -0.3459(4) -0.4113(4) 0.5183(3)
C11 C -0.1850(4) -0.5257(4) 0.5033(4)
Sm1_2 Sm 0.268390(19) -0.286760(19) 0.236240(16)
Sm1A Sm -0.268390(19) 0.286760(19) -0.236240(16)
Sm1A_2 Sm -0.268390(19) -0.713240(19) 0.763760(16)
O3_2 O -0.9895(3) -0.3103(3) 0.2099(2)
O4_2 O -0.7740(3) -0.5000(3) 0.2015(3)
O7A O -0.6695(3) -0.0610(3) 0.1194(2)
O8A O -0.8013(3) -0.1781(3) 0.0322(3)
O9A O -0.5904(3) -0.5405(3) 0.3868(3)
O11A O -0.8721(3) -0.3523(3) 0.4156(3)
O13 O 0.0037(5) -0.8985(5) 0.3894(5)
H1 H 0.05507(14) -0.8541(4) 0.3965(10)
H2 H -0.0888(2) -0.8595(5) 0.4037(14)
O14 O -0.2874(7) -0.1595(6) 0.6098(4)
H3 H -0.3485(13) -0.0815(3) 0.5605(2)
H4 H -0.3262(13) -0.2024(5) 0.6704(3)
O15 O -0.5248(4) -0.7068(3) 0.1127(3)
H5 H -0.5750(5) -0.6409(4) 0.14419(18)
H6 H -0.4980(8) -0.6721(7) 0.0443(3)
O16 O -0.3201(5) -0.7861(6) 0.3629(6)
H7 H -0.26300(15) -0.7467(4) 0.3678(5)
H8 H -0.4081(2) -0.7239(7) 0.3405(7)
loop_
_geom_bond_atom_site_label_1
_geom_bond_atom_site_label_2
_geom_bond_site_symmetry_1
_geom_bond_site_symmetry_2
Sm1 O1 1_555 1_555
Sm2 O1 1_555 1_555
O1 C1 1_555 1_555
O2 Sm1 1_555 1_555
O3 Sm2 1_555 1_555
O4 C7 1_555 1_555
O5 Sm2 1_555 1_555
O6 Sm2 1_555 1_555
O7 C8 1_555 1_555
O8 C9 1_555 1_555
O9 C10 1_555 1_555
O10 Sm2 1_555 1_555
O11 C11 1_555 1_555
O12 Sm2 1_555 1_555
O13 H1 1_555 1_555
H2 O13 1_555 1_555
O14 H3 1_555 1_555
H4 O14 1_555 1_555
O15 H5 1_555 1_555
H6 O15 1_555 1_555
O16 H7 1_555 1_555
H8 O16 1_555 1_555
O17 Sm2 1_555 1_555
H9 O17 1_555 1_555
H10 O17 1_555 1_555
O18 Sm2 1_555 1_555
H11 O18 1_555 1_555
H12 O18 1_555 1_555
O19 Sm1 1_555 1_555
H13 O19 1_555 1_555
H14 O19 1_555 1_555
O20 Sm1 1_555 1_555
H15 O20 1_555 1_555
H16 O20 1_555 1_555
N1 Sm2 1_555 1_555
C1 O2 1_555 1_555
C2 N1 1_555 1_555
C3 C2 1_555 1_555
H17 C3 1_555 1_555
C4 C3 1_555 1_555
H18 C4 1_555 1_555
C5 C4 1_555 1_555
H19 C5 1_555 1_555
C6 N1 1_555 1_555
C7 O3 1_555 1_555
C8 O5 1_555 1_555
C9 O6 1_555 1_555
C10 O10 1_555 1_555
C11 O12 1_555 1_555
Sm1_2 O3 1_555 1_555
Sm1A O7 1_555 1_555
Sm1A_2 O9 1_555 1_555
O3_2 Sm1 1_555 1_555
O4_2 Sm1 1_555 1_555
O7A Sm1 1_555 1_555
O8A Sm1 1_555 1_555
O9A Sm1 1_555 1_555
O11A Sm1 1_555 1_555
O4 Sm1_2 1_555 1_555
O8 Sm1A 1_555 1_555
O11 Sm1A_2 1_555 1_555
C1 C2 1_555 1_555
C5 C6 1_555 1_555
C6 C7 1_555 1_555
C8 C9 1_555 1_555
C10 C11 1_555 1_555

#END
