
#######################################################################
#
#                 Cambridge Crystallographic Data Centre
#                                CCDC 
#
#######################################################################
#
# If this CIF has been generated from an entry in the Cambridge 
# Structural Database, then it will include bibliographic, chemical, 
# crystal, experimental, refinement or atomic coordinate data resulting 
# from the CCDC's data processing and validation procedures.
#
#######################################################################

data_XOJXAW
_symmetry_cell_setting           monoclinic
_symmetry_space_group_name_H-M   'P 21'
_symmetry_Int_Tables_number      4
_space_group_name_Hall           'P 2yb'
loop_
_symmetry_equiv_pos_site_id
_symmetry_equiv_pos_as_xyz
1 x,y,z
2 -x,1/2+y,-z
_cell_length_a                   9.694(5)
_cell_length_b                   10.117(5)
_cell_length_c                   19.488(10)
_cell_angle_alpha                90
_cell_angle_beta                 104.040(8)
_cell_angle_gamma                90
_cell_volume                     1854.17
loop_
_atom_site_label
_atom_site_type_symbol
_atom_site_fract_x
_atom_site_fract_y
_atom_site_fract_z
Zn1 Zn -0.49523(11) 0.52127(12) -0.22260(7)
Zn2 Zn 0.15660(11) 0.53640(12) -0.19744(6)
Zn3 Zn -0.00852(13) 0.24023(12) -0.22978(7)
Zn4 Zn 0.18399(13) -0.02719(12) -0.26456(7)
P1 P -0.1556(3) 0.4773(3) -0.17749(16)
P2 P 0.3132(3) 0.2633(3) -0.21026(15)
P3 P -0.2778(3) 0.1976(3) -0.68470(15)
O1 O -0.2960(7) 0.5397(9) -0.2133(4)
O2 O -0.0356(7) 0.5575(8) -0.1933(4)
O3 O -0.1526(8) 0.3348(8) -0.1995(5)
O4 O -0.0110(10) 0.5781(8) 0.1748(5)
O5 O -0.1701(10) 0.4210(9) 0.1680(5)
O6 O 0.1742(7) 0.3388(7) -0.2092(4)
O7 O 0.2799(8) 0.1422(7) -0.2558(4)
O8 O 0.4184(8) 0.3515(8) -0.2339(4)
O9 O 0.7212(7) 0.0686(7) 0.1045(4)
O10 O 0.5165(9) 0.1029(9) 0.1358(5)
O11 O 0.0202(8) 0.0091(8) -0.3463(4)
O12 O -0.0588(8) 0.2118(8) -0.3298(4)
O13 O -0.2858(8) 0.3424(7) -0.6982(4)
O14 O -0.4260(8) 0.1376(8) -0.6998(4)
O15 O -0.1819(8) 0.1269(8) -0.7216(4)
C1 C -0.1348(10) 0.4811(12) -0.0839(6)
C2 C -0.2127(15) 0.3948(12) -0.0510(8)
H1 H -0.2745 0.3340 -0.0783
C3 C -0.1984(15) 0.3990(12) 0.0215(7)
H2 H -0.2527 0.3425 0.0420
C4 C -0.1065(13) 0.4844(12) 0.0630(7)
C5 C -0.0240(13) 0.5653(12) 0.0311(7)
H3 H 0.0431 0.6210 0.0591
C6 C -0.0391(14) 0.5649(13) -0.0402(7)
H4 H 0.0158 0.6220 -0.0600
C7 C -0.0951(13) 0.4969(13) 0.1401(7)
C8 C 0.3913(11) 0.2132(10) -0.1212(6)
C9 C 0.3326(11) 0.2491(12) -0.0638(6)
H5 H 0.2497 0.2991 -0.0721
C10 C 0.3965(11) 0.2112(12) 0.0026(6)
H6 H 0.3555 0.2339 0.0394
C11 C 0.5220(11) 0.1391(11) 0.0173(6)
C12 C 0.5804(12) 0.1065(12) -0.0375(7)
H7 H 0.6667 0.0618 -0.0283
C13 C 0.5132(13) 0.1390(13) -0.1064(6)
H8 H 0.5512 0.1101 -0.1432
C14 C 0.5936(12) 0.1013(10) 0.0916(6)
C15 C -0.0399(12) 0.1146(11) -0.3690(6)
C16 C -0.0932(11) 0.1344(12) -0.4471(6)
C17 C -0.0910(13) 0.0370(14) -0.4935(6)
H9 H -0.0539 -0.0450 -0.4768
C18 C -0.1431(14) 0.0556(12) -0.5661(7)
H10 H -0.1383 -0.0128 -0.5973
C19 C -0.2016(11) 0.1756(10) -0.5917(6)
C20 C -0.2005(13) 0.2761(12) -0.5435(6)
H11 H -0.2356 0.3587 -0.5601
C21 C -0.1495(13) 0.2583(12) -0.4725(6)
H12 H -0.1519 0.3272 -0.4413
Zn1_2 Zn 0.50477(11) 0.52127(12) -0.22260(7)
Zn1A Zn 0.49523(11) 0.02127(12) 0.22260(7)
Zn1A_2 Zn -0.50477(11) 0.02127(12) -0.77740(7)
Zn2A Zn 0.84340(11) 0.03640(12) 0.19744(6)
Zn2A_2 Zn -0.15660(11) 0.03640(12) -0.80256(6)
Zn3A Zn 0.00852(13) 0.74023(12) 0.22978(7)
Zn4A Zn -0.18399(13) 0.47281(12) 0.26456(7)
Zn4A_2 Zn -0.18399(13) 0.47281(12) -0.73544(7)
O4A O 0.0110(10) 0.0781(8) -0.1748(5)
O5A O 0.1701(10) -0.0790(9) -0.1680(5)
O8_2 O -0.5816(8) 0.3515(8) -0.2339(4)
O9A O 0.2788(7) 0.5686(7) -0.1045(4)
O10A O -0.5165(9) 0.6029(9) -0.1358(5)
O13A O 0.2858(8) -0.1576(7) -0.3018(4)
O14A O -0.5740(8) 0.6376(8) -0.3002(4)
O15A O 0.1819(8) 0.6269(8) -0.2784(4)
N1 N 0.657(3) 0.802(4) -0.324(2)
H13 H 0.5934 0.7439 -0.3143
C22 C 0.759(3) 0.849(3) -0.2574(16)
H14 H 0.8251 0.7788 -0.2387
H15 H 0.8134 0.9233 -0.2686
C23 C 0.693(3) 0.886(2) -0.2084(19)
H16 H 0.7614 0.9239 -0.1690
H17 H 0.6491 0.8111 -0.1929
H18 H 0.6224 0.9513 -0.2278
C24 C 0.594(4) 0.875(6) -0.389(2)
H19 H 0.6527 0.8673 -0.4227
H20 H 0.4998 0.8415 -0.4107
C25 C 0.588(11) 1.010(6) -0.366(6)
H21 H 0.5181 1.0578 -0.4007
H22 H 0.6793 1.0510 -0.3609
H23 H 0.5622 1.0118 -0.3215
C26 C 0.776(4) 0.734(3) -0.3392(18)
H24 H 0.8341 0.7030 -0.2942
H25 H 0.8324 0.7989 -0.3569
C27 C 0.757(4) 0.622(3) -0.3874(18)
H26 H 0.8461 0.6018 -0.3986
H27 H 0.6878 0.6441 -0.4301
H28 H 0.7253 0.5469 -0.3656
loop_
_geom_bond_atom_site_label_1
_geom_bond_atom_site_label_2
_geom_bond_site_symmetry_1
_geom_bond_site_symmetry_2
Zn1 O1 1_555 1_555
Zn2 O2 1_555 1_555
Zn3 O3 1_555 1_555
Zn4 O7 1_555 1_555
P1 O1 1_555 1_555
P2 O6 1_555 1_555
P3 O13 1_555 1_555
O2 P1 1_555 1_555
O3 P1 1_555 1_555
O4 C7 1_555 1_555
O5 C7 1_555 1_555
O6 Zn2 1_555 1_555
O7 P2 1_555 1_555
O8 P2 1_555 1_555
O9 C14 1_555 1_555
O10 C14 1_555 1_555
O11 Zn4 1_555 1_555
O12 Zn3 1_555 1_555
O13 Zn4A_2 1_555 1_555
O14 P3 1_555 1_555
O15 P3 1_555 1_555
C1 P1 1_555 1_555
C2 C1 1_555 1_555
H1 C2 1_555 1_555
C3 C2 1_555 1_555
H2 C3 1_555 1_555
C4 C3 1_555 1_555
C5 C4 1_555 1_555
H3 C5 1_555 1_555
C6 C1 1_555 1_555
H4 C6 1_555 1_555
C7 C4 1_555 1_555
C8 P2 1_555 1_555
C9 C8 1_555 1_555
H5 C9 1_555 1_555
C10 C9 1_555 1_555
H6 C10 1_555 1_555
C11 C10 1_555 1_555
C12 C11 1_555 1_555
H7 C12 1_555 1_555
C13 C8 1_555 1_555
H8 C13 1_555 1_555
C14 C11 1_555 1_555
C15 O11 1_555 1_555
C16 C15 1_555 1_555
C17 C16 1_555 1_555
H9 C17 1_555 1_555
C18 C17 1_555 1_555
H10 C18 1_555 1_555
C19 P3 1_555 1_555
C20 C19 1_555 1_555
H11 C20 1_555 1_555
C21 C16 1_555 1_555
H12 C21 1_555 1_555
N1 H13 1_555 1_555
C22 N1 1_555 1_555
H14 C22 1_555 1_555
H15 C22 1_555 1_555
C23 C22 1_555 1_555
H16 C23 1_555 1_555
H17 C23 1_555 1_555
H18 C23 1_555 1_555
C24 N1 1_555 1_555
H19 C24 1_555 1_555
H20 C24 1_555 1_555
C25 C24 1_555 1_555
H21 C25 1_555 1_555
H22 C25 1_555 1_555
H23 C25 1_555 1_555
C26 N1 1_555 1_555
H24 C26 1_555 1_555
H25 C26 1_555 1_555
C27 C26 1_555 1_555
H26 C27 1_555 1_555
H27 C27 1_555 1_555
H28 C27 1_555 1_555
Zn1_2 O8 1_555 1_555
Zn1A O10 1_555 1_555
Zn1A_2 O14 1_555 1_555
Zn2A O9 1_555 1_555
Zn2A_2 O15 1_555 1_555
Zn3A O4 1_555 1_555
Zn4A O5 1_555 1_555
O4A Zn3 1_555 1_555
O5A Zn4 1_555 1_555
O8_2 Zn1 1_555 1_555
O9A Zn2 1_555 1_555
O10A Zn1 1_555 1_555
O13A Zn4 1_555 1_555
O14A Zn1 1_555 1_555
O15A Zn2 1_555 1_555
Zn3 O6 1_555 1_555
O12 C15 1_555 1_555
C5 C6 1_555 1_555
C12 C13 1_555 1_555
C18 C19 1_555 1_555
C20 C21 1_555 1_555

#END
