
#######################################################################
#
#                 Cambridge Crystallographic Data Centre
#                                CCDC 
#
#######################################################################
#
# If this CIF has been generated from an entry in the Cambridge 
# Structural Database, then it will include bibliographic, chemical, 
# crystal, experimental, refinement or atomic coordinate data resulting 
# from the CCDC's data processing and validation procedures.
#
#######################################################################

data_XOJXIE
_symmetry_cell_setting           monoclinic
_symmetry_space_group_name_H-M   'P 21/c'
_symmetry_Int_Tables_number      14
_space_group_name_Hall           '-P 2ybc'
loop_
_symmetry_equiv_pos_site_id
_symmetry_equiv_pos_as_xyz
1 x,y,z
2 -x,1/2+y,1/2-z
3 -x,-y,-z
4 x,1/2-y,1/2+z
_cell_length_a                   19.962(6)
_cell_length_b                   5.0809(16)
_cell_length_c                   18.098(6)
_cell_angle_alpha                90
_cell_angle_beta                 106.445(5)
_cell_angle_gamma                90
_cell_volume                     1760.5
loop_
_atom_site_label
_atom_site_type_symbol
_atom_site_fract_x
_atom_site_fract_y
_atom_site_fract_z
Zn1 Zn 0.24040(3) 1.08541(12) 0.28128(3)
Zn2 Zn 0.26776(3) 1.58458(12) 0.41216(3)
Zn3 Zn 0.25124(3) 0.31234(13) 0.09972(3)
P1 P 0.18384(7) 1.0721(3) 0.42642(7)
P2 P 0.32685(7) 0.5690(3) 0.26735(7)
C1 C 0.0922(3) 1.0015(10) 0.3958(3)
C2 C 0.0649(3) 0.7966(11) 0.3450(3)
H1 H 0.0944 0.6936 0.3254
C3 C -0.0065(3) 0.7468(11) 0.3238(3)
H2 H -0.0245 0.6082 0.2905
C4 C -0.0508(3) 0.8998(11) 0.3514(3)
C5 C -0.0237(3) 1.1034(12) 0.4021(4)
H3 H -0.0534 1.2064 0.4213
C6 C 0.0468(3) 1.1537(12) 0.4240(3)
H4 H 0.0644 1.2909 0.4580
C7 C -0.1277(3) 0.8424(11) 0.3297(3)
C8 C 0.4176(3) 0.5418(10) 0.3208(3)
C9 C 0.4391(3) 0.3442(11) 0.3754(3)
H5 H 0.4069 0.2225 0.3829
C10 C 0.5084(3) 0.3273(12) 0.4189(3)
H6 H 0.5223 0.1966 0.4560
C11 C 0.5569(3) 0.5045(11) 0.4070(3)
C12 C 0.5365(3) 0.6982(12) 0.3512(3)
H7 H 0.5692 0.8144 0.3420
C13 C 0.4666(3) 0.7172(11) 0.3092(3)
H8 H 0.4526 0.8500 0.2728
C14 C 0.6304(3) 0.4992(12) 0.4579(3)
O1 O 0.19113(19) 1.3663(7) 0.4194(2)
O2 O 0.22002(18) 0.9224(7) 0.3731(2)
O3 O 0.21328(19) 0.9667(7) 0.5080(2)
O4 O -0.1669(2) 0.9776(8) 0.3552(2)
O5 O -0.14722(19) 0.6402(8) 0.2858(2)
O6 O 0.28466(18) 0.4279(7) 0.3163(2)
O7 O 0.3073(2) 0.8559(7) 0.2586(2)
O8 O 0.31797(19) 0.4267(8) 0.1925(2)
O9 O 0.6431(2) 0.3483(8) 0.5160(2)
O10 O 0.6755(2) 0.6406(11) 0.4446(3)
O11 O 0.1940(3) -0.0214(9) 0.0825(3)
H9 H 0.201(4) -0.164(16) 0.054(5)
H10 H 0.183(3) -0.098(12) 0.113(4)
Zn1_2 Zn 0.24040(3) 0.08541(12) 0.28128(3)
Zn1A Zn -0.24040(3) 0.58541(12) 0.21872(3)
Zn2B Zn 0.73224(3) 0.41542(12) 0.58784(3)
Zn2_2 Zn 0.26776(3) 0.58458(12) 0.41216(3)
Zn3A Zn -0.25124(3) 0.81234(13) 0.40028(3)
Zn3A_2 Zn 0.74876(3) 0.81234(13) 0.40028(3)
Zn3C Zn 0.25124(3) 1.18766(13) 0.59972(3)
O2_2 O 0.22002(18) 1.9224(7) 0.3731(2)
O3C O 0.21328(19) 0.5333(7) 0.0080(2)
O4A O 0.1669(2) 0.4776(8) 0.1448(2)
O5A O 0.14722(19) 1.1402(8) 0.2142(2)
O6_2 O 0.28466(18) 1.4279(7) 0.3163(2)
O9B O 0.3569(2) 1.6517(8) 0.4840(2)
O10A O 0.3245(2) 0.1406(11) 0.0554(3)
loop_
_geom_bond_atom_site_label_1
_geom_bond_atom_site_label_2
_geom_bond_site_symmetry_1
_geom_bond_site_symmetry_2
Zn1 O2 1_555 1_555
Zn2 O1 1_555 1_555
Zn3 O8 1_555 1_555
P1 C1 1_555 1_555
P2 C8 1_555 1_555
C1 C2 1_555 1_555
C2 H1 1_555 1_555
C3 C2 1_555 1_555
H2 C3 1_555 1_555
C4 C3 1_555 1_555
C5 C4 1_555 1_555
H3 C5 1_555 1_555
C6 C1 1_555 1_555
H4 C6 1_555 1_555
C7 C4 1_555 1_555
C8 C9 1_555 1_555
C9 H5 1_555 1_555
C10 C9 1_555 1_555
H6 C10 1_555 1_555
C11 C10 1_555 1_555
C12 C11 1_555 1_555
H7 C12 1_555 1_555
C13 C8 1_555 1_555
H8 C13 1_555 1_555
C14 C11 1_555 1_555
O1 P1 1_555 1_555
O2 P1 1_555 1_555
O3 P1 1_555 1_555
O4 C7 1_555 1_555
O5 C7 1_555 1_555
O6 P2 1_555 1_555
O7 Zn1 1_555 1_555
O8 P2 1_555 1_555
O9 C14 1_555 1_555
O10 C14 1_555 1_555
O11 Zn3 1_555 1_555
H9 O11 1_555 1_555
H10 O11 1_555 1_555
Zn1_2 O6 1_555 1_555
Zn1A O5 1_555 1_555
Zn2B O9 1_555 1_555
Zn2_2 O2 1_555 1_555
Zn3A O4 1_555 1_555
Zn3A_2 O10 1_555 1_555
Zn3C O3 1_555 1_555
O2_2 Zn2 1_555 1_555
O3C Zn3 1_555 1_555
O4A Zn3 1_555 1_555
O5A Zn1 1_555 1_555
O6_2 Zn1 1_555 1_555
O9B Zn2 1_555 1_555
O10A Zn3 1_555 1_555
Zn2 O6_2 1_555 1_555
P2 O7 1_555 1_555
C5 C6 1_555 1_555
C12 C13 1_555 1_555
O6 Zn2_2 1_555 1_555

#END
