
#######################################################################
#
#                 Cambridge Crystallographic Data Centre
#                                CCDC 
#
#######################################################################
#
# If this CIF has been generated from an entry in the Cambridge 
# Structural Database, then it will include bibliographic, chemical, 
# crystal, experimental, refinement or atomic coordinate data resulting 
# from the CCDC's data processing and validation procedures.
#
#######################################################################

data_XOJXOK01
_symmetry_cell_setting           triclinic
_symmetry_space_group_name_H-M   'P -1'
_symmetry_Int_Tables_number      2
_space_group_name_Hall           '-P 1'
loop_
_symmetry_equiv_pos_site_id
_symmetry_equiv_pos_as_xyz
1 x,y,z
2 -x,-y,-z
_cell_length_a                   7.9990(1)
_cell_length_b                   8.3380(4)
_cell_length_c                   9.6180(5)
_cell_angle_alpha                98.194(5)
_cell_angle_beta                 100.438(3)
_cell_angle_gamma                102.437(3)
_cell_volume                     604.952
loop_
_atom_site_label
_atom_site_type_symbol
_atom_site_fract_x
_atom_site_fract_y
_atom_site_fract_z
La1 La 0.271613(15) 0.289012(14) 0.376949(13)
O1 O 0.0169(2) 0.2058(3) 0.1634(2)
O2 O -0.0818(3) 0.1608(3) -0.0758(2)
O3 O 0.5438(2) 0.5237(2) 0.37916(19)
O4 O 0.6655(3) 0.7655(3) 0.3284(3)
O5 O 0.0049(3) 0.2902(2) 0.4931(2)
O6 O -0.1694(3) 0.4338(2) 0.5863(2)
O7 O 0.5423(3) 0.1690(3) 0.4583(3)
H1 H 0.6463 0.2488 0.5148
H2 H 0.5654 0.1175 0.3708
O8 O 0.3542(3) 0.1118(3) 0.1656(2)
H3 H 0.2716 0.0189 0.1078
H4 H 0.4501 0.0849 0.1714
O9 O 0.1216(3) -0.0212(3) 0.3655(2)
H5 H 0.1090 -0.0772 0.2808
H6 H 0.0829 -0.0934 0.4319
N1 N 0.2872(3) 0.4469(3) 0.1532(2)
C1 C 0.0224(3) 0.2369(3) 0.0387(3)
C2 C 0.1648(3) 0.3864(3) 0.0317(3)
C3 C 0.1662(3) 0.4576(3) -0.0903(3)
H9 H 0.0704 0.4054 -0.1702
C4 C 0.2956(4) 0.6006(3) -0.0835(3)
H10 H 0.2950 0.6575 -0.1614
C5 C 0.4215(3) 0.6672(3) 0.0435(3)
H11 H 0.5179 0.7622 0.0556
C6 C 0.4142(3) 0.5838(3) 0.1584(3)
C7 C 0.5518(3) 0.6313(3) 0.2959(3)
C8 C -0.0468(3) 0.4201(3) 0.5229(3)
La1A La 0.728387(15) 0.710988(14) 0.623051(13)
La1A_2 La -0.271613(15) 0.710988(14) 0.623051(13)
O1A O 0.9831(2) 0.7942(3) 0.8366(2)
O2A O 1.0818(3) 0.8392(3) 1.0758(2)
O3A O 0.4562(2) 0.4763(2) 0.62084(19)
O4A O 0.3345(3) 0.2345(3) 0.6716(3)
O5A O -0.0049(3) 0.7098(2) 0.5069(2)
O5A_2 O 0.9951(3) 0.7098(2) 0.5069(2)
O6A O 0.1694(3) 0.5662(2) 0.4137(2)
O6_2 O 0.8306(3) 0.4338(2) 0.5863(2)
O7A O 0.4577(3) 0.8310(3) 0.5417(3)
H1A H 0.3537 0.7512 0.4852
H2A H 0.4346 0.8825 0.6292
O8A O 0.6458(3) 0.8882(3) 0.8344(2)
H3A H 0.7284 0.9811 0.8922
H4A H 0.5499 0.9151 0.8286
O9A O 0.8784(3) 1.0212(3) 0.6345(2)
H5A H 0.8910 1.0772 0.7192
H6A H 0.9171 1.0934 0.5681
N1A N 0.7128(3) 0.5531(3) 0.8468(2)
C1A C 0.9776(3) 0.7631(3) 0.9613(3)
C2A C 0.8352(3) 0.6136(3) 0.9683(3)
C3A C 0.8338(3) 0.5424(3) 1.0903(3)
H9A H 0.9296 0.5946 1.1702
C4A C 0.7044(4) 0.3994(3) 1.0835(3)
H10A H 0.7050 0.3425 1.1614
C5A C 0.5785(3) 0.3328(3) 0.9565(3)
H11A H 0.4821 0.2378 0.9444
C6A C 0.5858(3) 0.4162(3) 0.8416(3)
C7A C 0.4482(3) 0.3687(3) 0.7041(3)
C8A C 0.0468(3) 0.5799(3) 0.4771(3)
O10 O 0.6878(3) 0.0463(3) 0.2076(4)
H7 H 0.7901 0.0849 0.1921
H8 H 0.6869 -0.0425 0.2443
loop_
_geom_bond_atom_site_label_1
_geom_bond_atom_site_label_2
_geom_bond_site_symmetry_1
_geom_bond_site_symmetry_2
La1 O1 1_555 1_555
O1 C1 1_555 1_555
O2 C1 1_555 1_555
O3 La1 1_555 1_555
O4 C7 1_555 1_555
O5 La1 1_555 1_555
O6 C8 1_555 1_555
O7 La1 1_555 1_555
H1 O7 1_555 1_555
H2 O7 1_555 1_555
O8 La1 1_555 1_555
H3 O8 1_555 1_555
H4 O8 1_555 1_555
O9 La1 1_555 1_555
H5 O9 1_555 1_555
H6 O9 1_555 1_555
O10 H7 1_555 1_555
H8 O10 1_555 1_555
N1 La1 1_555 1_555
C1 C2 1_555 1_555
C2 N1 1_555 1_555
C3 C2 1_555 1_555
H9 C3 1_555 1_555
C4 C3 1_555 1_555
H10 C4 1_555 1_555
C5 C4 1_555 1_555
H11 C5 1_555 1_555
C6 N1 1_555 1_555
C7 O3 1_555 1_555
C8 O5 1_555 1_555
La1A O3 1_555 1_555
La1A_2 O6 1_555 1_555
O1A La1A 1_555 1_555
O2A C1A 1_555 1_555
O3A La1 1_555 1_555
O4A La1 1_555 1_555
O5A La1A_2 1_555 1_555
O5A_2 La1A 1_555 1_555
O6A La1 1_555 1_555
O6_2 La1A 1_555 1_555
O7A La1A 1_555 1_555
H1A O7A 1_555 1_555
H2A O7A 1_555 1_555
O8A La1A 1_555 1_555
H3A O8A 1_555 1_555
H4A O8A 1_555 1_555
O9A La1A 1_555 1_555
H5A O9A 1_555 1_555
H6A O9A 1_555 1_555
N1A La1A 1_555 1_555
C1A O1A 1_555 1_555
C2A N1A 1_555 1_555
C3A C2A 1_555 1_555
H9A C3A 1_555 1_555
C4A C3A 1_555 1_555
H10A C4A 1_555 1_555
C5A C4A 1_555 1_555
H11A C5A 1_555 1_555
C6A N1A 1_555 1_555
C7A O3A 1_555 1_555
C8A C8 1_555 1_555
O4 La1A 1_555 1_555
C5 C6 1_555 1_555
C6 C7 1_555 1_555
La1A O3A 1_555 1_555
O4A C7A 1_555 1_555
O5A C8A 1_555 1_555
O6A C8A 1_555 1_555
C1A C2A 1_555 1_555
C5A C6A 1_555 1_555
C6A C7A 1_555 1_555

#END
