
#######################################################################
#
#                 Cambridge Crystallographic Data Centre
#                                CCDC 
#
#######################################################################
#
# If this CIF has been generated from an entry in the Cambridge 
# Structural Database, then it will include bibliographic, chemical, 
# crystal, experimental, refinement or atomic coordinate data resulting 
# from the CCDC's data processing and validation procedures.
#
#######################################################################

data_XOJXEA
_symmetry_cell_setting           rhombohedral
_symmetry_space_group_name_H-M   'R -3'
_symmetry_Int_Tables_number      148
_space_group_name_Hall           '-R 3'
loop_
_symmetry_equiv_pos_site_id
_symmetry_equiv_pos_as_xyz
1 x,y,z
2 -y,x-y,z
3 -x+y,-x,z
4 2/3+x,1/3+y,1/3+z
5 2/3-y,1/3+x-y,1/3+z
6 2/3-x+y,1/3-x,1/3+z
7 1/3+x,2/3+y,2/3+z
8 1/3-y,2/3+x-y,2/3+z
9 1/3-x+y,2/3-x,2/3+z
10 -x,-y,-z
11 y,-x+y,-z
12 x-y,x,-z
13 1/3-x,2/3-y,2/3-z
14 1/3+y,2/3-x+y,2/3-z
15 1/3+x-y,2/3+x,2/3-z
16 2/3-x,1/3-y,1/3-z
17 2/3+y,1/3-x+y,1/3-z
18 2/3+x-y,1/3+x,1/3-z
_cell_length_a                   14.018(3)
_cell_length_b                   14.018(3)
_cell_length_c                   31.122(9)
_cell_angle_alpha                90
_cell_angle_beta                 90
_cell_angle_gamma                120
_cell_volume                     5296.27
loop_
_atom_site_label
_atom_site_type_symbol
_atom_site_fract_x
_atom_site_fract_y
_atom_site_fract_z
Zn1 Zn 0.90177(14) 0.57485(10) 1.13506(3)
P1 P 0.6632(3) 0.5562(2) 1.13028(8)
O1 O 0.7452(8) 0.5182(6) 1.1400(2)
O2 O 0.5509(8) 0.4739(6) 1.1467(2)
O3 O 0.6972(9) 0.6686(6) 1.1484(2)
O4 O 0.6302(8) 0.6800(11) 0.9227(2)
O5 O 0.6590(12) 0.5415(9) 0.9124(3)
C1 C 0.6567(11) 0.5686(8) 1.0726(3)
C2 C 0.6307(13) 0.6433(10) 1.0554(3)
H1 H 0.6149 0.6864 1.0735
C3 C 0.6280(13) 0.6544(10) 1.0108(3)
H2 H 0.6104 0.7048 0.9993
C4 C 0.6514(13) 0.5911(10) 0.9842(3)
C5 C 0.6731(13) 0.5156(10) 1.0010(3)
H3 H 0.6854 0.4703 0.9827
C6 C 0.6771(13) 0.5042(9) 1.0453(3)
H4 H 0.6937 0.4527 1.0565
C7 C 0.6479(16) 0.6053(12) 0.9356(3)
Zn1B Zn 0.67308(17) 0.09823(14) 1.13506(3)
Zn1O Zn 0.76490(14) 0.75848(10) 1.19827(3)
Zn1A Zn 0.42515(10) 0.32692(17) 1.13506(3)
Zn1J Zn 0.57485(10) 0.67308(17) 0.86494(3)
Zn1Q Zn 0.99359(17) 0.23510(14) 1.19827(3)
Zn1I Zn 1.09823(14) 0.42515(10) 0.86494(3)
Zn1P Zn 1.24152(10) 1.00641(17) 1.19827(3)
Zn1D Zn 1.09182(10) 0.66025(17) 1.46839(3)
P1B P 0.8930(4) 0.3368(3) 1.13028(8)
P1O P 1.0035(3) 0.7771(2) 1.20305(8)
O1B O 0.7730(10) 0.2548(8) 1.1400(2)
O1O O 0.9215(8) 0.8151(6) 1.1933(2)
O2B O 0.9230(10) 0.4491(8) 1.1467(2)
O2O O 1.1158(8) 0.8594(6) 1.1866(2)
O2A O 0.5261(6) 0.0770(10) 1.1467(2)
O2Q O 0.7437(10) 0.8842(8) 1.1866(2)
O3B O 0.9714(11) 0.3028(9) 1.1484(2)
O3O O 0.9695(9) 0.6647(6) 1.1849(2)
O3Q O 0.6953(11) 0.0305(9) 1.1849(2)
O4B O 1.0498(14) 0.3698(8) 0.9227(2)
O4O O 1.0365(8) 0.6533(11) 1.4106(2)
O4K O 0.9502(14) 0.6302(8) 1.0773(2)
O4J O 0.6800(11) 0.0498(14) 1.0773(2)
O4E O 0.7165(14) 0.7031(8) 1.2560(2)
O5B O 0.8825(15) 0.3410(12) 0.9124(3)
O5O O 1.0077(12) 0.7918(9) 1.4209(3)
C1B C 0.9119(14) 0.3433(11) 1.0726(3)
C1O C 1.0100(11) 0.7647(8) 1.2607(3)
C2B C 1.0126(16) 0.3693(13) 1.0554(3)
C2O C 1.0360(13) 0.6900(10) 1.2779(3)
H1B H 1.0715 0.3851 1.0735
H1O H 1.0518 0.6469 1.2598
C3B C 1.0264(16) 0.3720(13) 1.0108(3)
C3O C 1.0387(13) 0.6789(10) 1.3225(3)
H2B H 1.0944 0.3896 0.9993
H2O H 1.0563 0.6285 1.3340
C4B C 0.9397(16) 0.3486(13) 0.9842(3)
C4O C 1.0153(13) 0.7422(10) 1.3491(3)
C5B C 0.8425(16) 0.3269(13) 1.0010(3)
C5O C 0.9936(13) 0.8177(10) 1.3323(3)
H3B H 0.7849 0.3146 0.9827
H3O H 0.9813 0.8630 1.3506
C6B C 0.8271(16) 0.3229(13) 1.0453(3)
C6O C 0.9896(13) 0.8291(9) 1.2880(3)
H4B H 0.7590 0.3063 1.0565
H4O H 0.9730 0.8806 1.2768
C7B C 0.9574(20) 0.3521(16) 0.9356(3)
C7O C 1.0188(16) 0.7280(12) 1.3977(3)
O6 O 0.3333 0.6667 0.8020(6)
O8 O 0.467(5) 0.797(3) 0.1847(12)
O7? O 0.4292(28) 0.8578(19) 0.1784(8)
loop_
_geom_bond_atom_site_label_1
_geom_bond_atom_site_label_2
_geom_bond_site_symmetry_1
_geom_bond_site_symmetry_2
Zn1 O1 1_555 1_555
P1 O1 1_555 1_555
O2 P1 1_555 1_555
O3 P1 1_555 1_555
O4 C7 1_555 1_555
O5 C7 1_555 1_555
C1 P1 1_555 1_555
C2 C1 1_555 1_555
H1 C2 1_555 1_555
C3 C2 1_555 1_555
H2 C3 1_555 1_555
C4 C3 1_555 1_555
C5 C4 1_555 1_555
H3 C5 1_555 1_555
C6 C1 1_555 1_555
H4 C6 1_555 1_555
C7 C4 1_555 1_555
Zn1B O1B 1_555 1_555
Zn1O O3 1_555 1_555
Zn1A O2 1_555 1_555
Zn1J O4 1_555 1_555
Zn1Q O3B 1_555 1_555
Zn1I O4B 1_555 1_555
Zn1P O2O 1_555 1_555
Zn1D O4O 1_555 1_555
P1B O1B 1_555 1_555
P1O O1O 1_555 1_555
O1O Zn1O 1_555 1_555
O2B Zn1 1_555 1_555
O2O P1O 1_555 1_555
O2A Zn1B 1_555 1_555
O2Q Zn1O 1_555 1_555
O3B P1B 1_555 1_555
O3O Zn1 1_555 1_555
O3Q Zn1B 1_555 1_555
O4B C7B 1_555 1_555
O4O C7O 1_555 1_555
O4K Zn1 1_555 1_555
O4J Zn1B 1_555 1_555
O4E Zn1O 1_555 1_555
O5B C7B 1_555 1_555
O5O C7O 1_555 1_555
C1B P1B 1_555 1_555
C1O P1O 1_555 1_555
C2B C1B 1_555 1_555
C2O C1O 1_555 1_555
H1B C2B 1_555 1_555
H1O C2O 1_555 1_555
C3B C2B 1_555 1_555
C3O C2O 1_555 1_555
H2B C3B 1_555 1_555
H2O C3O 1_555 1_555
C4B C3B 1_555 1_555
C4O C3O 1_555 1_555
C5B C4B 1_555 1_555
C5O C4O 1_555 1_555
H3B C5B 1_555 1_555
H3O C5O 1_555 1_555
C6B C1B 1_555 1_555
C6O C1O 1_555 1_555
H4B C6B 1_555 1_555
H4O C6O 1_555 1_555
C7B C4B 1_555 1_555
C7O C4O 1_555 1_555
C5 C6 1_555 1_555
P1B O2B 1_555 1_555
P1O O3O 1_555 1_555
C5B C6B 1_555 1_555
C5O C6O 1_555 1_555

#END
