
#######################################################################
#
#                 Cambridge Crystallographic Data Centre
#                                CCDC 
#
#######################################################################
#
# If this CIF has been generated from an entry in the Cambridge 
# Structural Database, then it will include bibliographic, chemical, 
# crystal, experimental, refinement or atomic coordinate data resulting 
# from the CCDC's data processing and validation procedures.
#
#######################################################################

data_XOJYEB
_symmetry_cell_setting           triclinic
_symmetry_space_group_name_H-M   'P -1'
_symmetry_Int_Tables_number      2
_space_group_name_Hall           '-P 1'
loop_
_symmetry_equiv_pos_site_id
_symmetry_equiv_pos_as_xyz
1 x,y,z
2 -x,-y,-z
_cell_length_a                   8.0854(3)
_cell_length_b                   10.4344(3)
_cell_length_c                   12.9248(4)
_cell_angle_alpha                94.0761(18)
_cell_angle_beta                 103.0276(17)
_cell_angle_gamma                107.4915(15)
_cell_volume                     1001.86
loop_
_atom_site_label
_atom_site_type_symbol
_atom_site_fract_x
_atom_site_fract_y
_atom_site_fract_z
Er1 Er -0.170550(13) -0.471110(10) 0.188580(8)
Er2 Er 0.277613(11) 0.178759(9) 0.394863(7)
O1 O 0.5456(2) 0.35874(17) 0.14652(13)
O2 O 0.4532(2) 0.31904(16) 0.29341(13)
O3 O 0.0783(2) -0.05132(16) 0.33997(13)
O4 O -0.0369(2) -0.24397(17) 0.22819(15)
O5 O 0.1042(2) -0.43055(19) 0.13176(13)
O6 O 0.2217(2) -0.47292(19) -0.00051(13)
O7 O 0.0697(2) -0.47141(15) 0.33782(12)
O8 O -0.1303(2) -0.68284(17) 0.18874(15)
O9 O 0.0154(2) -0.81076(16) 0.27156(13)
O10 O 0.2382(2) -0.59242(16) 0.40896(13)
O11 O 0.5194(2) 0.08837(16) 0.39255(12)
O12 O 0.3338(2) 0.04728(16) 0.53847(13)
O13 O -0.38798(10) -0.36537(7) 0.11089(9)
H1 H -0.49079(14) -0.41604(17) 0.0762(2)
H2 H -0.3837(3) -0.29743(11) 0.15168(14)
O14 O -0.2803(2) -0.43924(18) 0.33658(14)
H3 H -0.2472(6) -0.3729(2) 0.3851(6)
H4 H -0.3635(8) -0.5076(3) 0.3408(8)
O15 O 0.0913(2) 0.18488(17) 0.51181(13)
H5 H 0.0152(4) 0.2238(2) 0.4903(3)
H6 H 0.0664(7) 0.1298(3) 0.5549(4)
O16 O 0.5128(2) 0.32808(17) 0.53709(13)
H7 H 0.5126(7) 0.2977(2) 0.5954(2)
H8 H 0.5827(10) 0.4072(3) 0.5406(4)
N1 N 0.2495(2) 0.07375(18) 0.20934(14)
C1 C 0.4556(3) 0.2848(2) 0.19849(18)
C2 C 0.3401(3) 0.1444(2) 0.14635(18)
C3 C 0.3314(4) 0.0885(3) 0.0454(2)
H15 H 0.3973 0.1390 0.0031
C4 C 0.2232(4) -0.0442(3) 0.0074(2)
H16 H 0.2157 -0.0847 -0.0607
C5 C 0.1267(4) -0.1154(3) 0.0719(2)
H17 H 0.0493 -0.2037 0.0471
C6 C 0.1465(3) -0.0540(2) 0.17327(18)
C7 C 0.0553(3) -0.1219(2) 0.25327(18)
C8 C 0.0945(3) -0.4717(2) 0.03807(18)
C9 C 0.1101(3) -0.5767(2) 0.34407(17)
C10 C -0.0125(3) -0.7019(2) 0.26089(18)
C11 C 0.5548(3) 0.0117(2) 0.45810(17)
Er1A Er 0.170550(13) -0.528890(10) -0.188580(8)
Er1_2 Er 0.829450(13) 0.528890(10) 0.188580(8)
Er1_3 Er -1.170550(13) -1.471110(10) 0.188580(8)
Er1_4 Er -0.170550(13) 0.528890(10) 0.188580(8)
Er2_2 Er 0.277613(11) -0.821241(9) 0.394863(7)
Er2_3 Er -0.722387(11) -0.821241(9) 0.394863(7)
Er2A Er 0.722387(11) -0.178759(9) 0.605137(7)
O1_2 O -0.4544(2) -0.64126(17) 0.14652(13)
O1_3 O -1.4544(2) -1.64126(17) 0.14652(13)
O2_2 O -0.5468(2) -0.68096(16) 0.29341(13)
O3_2 O -0.9217(2) -1.05132(16) 0.33997(13)
O4_2 O -1.0369(2) -1.24397(17) 0.22819(15)
O5A O -0.1042(2) -0.56945(19) -0.13176(13)
O5_2 O -0.8958(2) -1.43055(19) 0.13176(13)
O6A O -0.2217(2) -0.52708(19) 0.00051(13)
O6A_2 O -1.2217(2) -1.52708(19) 0.00051(13)
O7_2 O -0.9303(2) -1.47141(15) 0.33782(12)
O7_3 O 0.0697(2) 0.52859(15) 0.33782(12)
O8_2 O -1.1303(2) -1.68284(17) 0.18874(15)
O8_3 O -0.1303(2) 0.31716(17) 0.18874(15)
O9_2 O 0.0154(2) 0.18924(16) 0.27156(13)
O9_3 O -0.9846(2) -0.81076(16) 0.27156(13)
O10_2 O 0.2382(2) 0.40758(16) 0.40896(13)
O10_3 O -0.7618(2) -0.59242(16) 0.40896(13)
O11_2 O -0.4806(2) -0.91163(16) 0.39255(12)
O11A O 0.4806(2) -0.08837(16) 0.60745(12)
O12_2 O -0.6662(2) -0.95272(16) 0.53847(13)
O12A O 0.6662(2) -0.04728(16) 0.46153(13)
O13_2 O -1.38798(10) -1.36537(7) 0.11089(9)
H1_2 H -1.49079(14) -1.41604(17) 0.0762(2)
H2_2 H -1.3837(3) -1.29743(11) 0.15168(14)
O14_2 O -1.2803(2) -1.43924(18) 0.33658(14)
H3_2 H -1.2472(6) -1.3729(2) 0.3851(6)
H4_2 H -1.3635(8) -1.5076(3) 0.3408(8)
O15_2 O -0.9087(2) -0.81512(17) 0.51181(13)
H5_2 H -0.9848(4) -0.7762(2) 0.4903(3)
H6_2 H -0.9336(7) -0.8702(3) 0.5549(4)
O16_2 O -0.4872(2) -0.67192(17) 0.53709(13)
H7_2 H -0.4874(7) -0.7023(2) 0.5954(2)
H8_2 H -0.4173(10) -0.5928(3) 0.5406(4)
N1_2 N -0.7505(2) -0.92625(18) 0.20934(14)
C1_2 C -0.5444(3) -0.7152(2) 0.19849(18)
C2_2 C -0.6599(3) -0.8556(2) 0.14635(18)
C3_2 C -0.6686(4) -0.9115(3) 0.0454(2)
H15_2 H -0.6027 -0.8610 0.0031
C4_2 C -0.7768(4) -1.0442(3) 0.0074(2)
H16_2 H -0.7843 -1.0847 -0.0607
C5_2 C -0.8733(4) -1.1154(3) 0.0719(2)
H17_2 H -0.9507 -1.2037 0.0471
C6_2 C -0.8535(3) -1.0540(2) 0.17327(18)
C7_2 C -0.9447(3) -1.1219(2) 0.25327(18)
C8A C -0.0945(3) -0.5283(2) -0.03807(18)
C9_2 C 0.1101(3) 0.4233(2) 0.34407(17)
C10_2 C -0.0125(3) 0.2981(2) 0.26089(18)
C11A C 0.4452(3) -0.0117(2) 0.54190(17)
O17 O 0.65354(12) -0.03414(6) 0.22256(13)
H9 H 0.6688(3) -0.10401(8) 0.2458(2)
H10 H 0.74514(17) 0.03529(11) 0.2356(5)
O18 O 0.8535(2) -0.69125(19) 0.45918(15)
H11 H 0.7526(6) -0.7510(3) 0.4365(3)
H12 H 0.8689(10) -0.6375(4) 0.5145(4)
O19 O 0.5812(5) -0.7414(3) 0.7322(2)
H13 H 0.5034(3) -0.8020(3) 0.7505(9)
H14 H 0.6565(4) -0.6819(3) 0.7813(9)
loop_
_geom_bond_atom_site_label_1
_geom_bond_atom_site_label_2
_geom_bond_site_symmetry_1
_geom_bond_site_symmetry_2
Er1 O4 1_555 1_555
Er2 O2 1_555 1_555
O1 C1 1_555 1_555
O2 C1 1_555 1_555
O3 Er2 1_555 1_555
O4 C7 1_555 1_555
O5 Er1 1_555 1_555
O6 C8 1_555 1_555
O7 Er1 1_555 1_555
O8 Er1 1_555 1_555
O9 C10 1_555 1_555
O10 C9 1_555 1_555
O11 Er2 1_555 1_555
O12 Er2 1_555 1_555
O13 Er1 1_555 1_555
H1 O13 1_555 1_555
H2 O13 1_555 1_555
O14 Er1 1_555 1_555
H3 O14 1_555 1_555
H4 O14 1_555 1_555
O15 Er2 1_555 1_555
H5 O15 1_555 1_555
H6 O15 1_555 1_555
O16 Er2 1_555 1_555
H7 O16 1_555 1_555
H8 O16 1_555 1_555
O17 H9 1_555 1_555
H10 O17 1_555 1_555
O18 H11 1_555 1_555
H12 O18 1_555 1_555
O19 H13 1_555 1_555
H14 O19 1_555 1_555
N1 Er2 1_555 1_555
C1 C2 1_555 1_555
C2 N1 1_555 1_555
C3 C2 1_555 1_555
H15 C3 1_555 1_555
C4 C3 1_555 1_555
H16 C4 1_555 1_555
C5 C4 1_555 1_555
H17 C5 1_555 1_555
C6 N1 1_555 1_555
C7 O3 1_555 1_555
C8 O5 1_555 1_555
C9 O7 1_555 1_555
C10 O8 1_555 1_555
C11 O11 1_555 1_555
Er1A O6 1_555 1_555
Er1_2 O1 1_555 1_555
Er1_3 O1_3 1_555 1_555
Er1_4 O7_3 1_555 1_555
Er2_2 O9 1_555 1_555
Er2_3 O2_2 1_555 1_555
Er2A O11A 1_555 1_555
O1_2 Er1 1_555 1_555
O2_2 C1_2 1_555 1_555
O3_2 Er2_3 1_555 1_555
O4_2 Er1_3 1_555 1_555
O5A Er1A 1_555 1_555
O5_2 Er1_3 1_555 1_555
O6A Er1 1_555 1_555
O6A_2 Er1_3 1_555 1_555
O7_2 Er1_3 1_555 1_555
O7_3 C9_2 1_555 1_555
O8_2 Er1_3 1_555 1_555
O8_3 Er1_4 1_555 1_555
O9_2 Er2 1_555 1_555
O9_3 Er2_3 1_555 1_555
O10_2 Er2 1_555 1_555
O10_3 Er2_3 1_555 1_555
O11_2 Er2_3 1_555 1_555
O11A C11A 1_555 1_555
O12_2 Er2_3 1_555 1_555
O12A C11 1_555 1_555
O13_2 Er1_3 1_555 1_555
H1_2 O13_2 1_555 1_555
H2_2 O13_2 1_555 1_555
O14_2 Er1_3 1_555 1_555
H3_2 O14_2 1_555 1_555
H4_2 O14_2 1_555 1_555
O15_2 Er2_3 1_555 1_555
H5_2 O15_2 1_555 1_555
H6_2 O15_2 1_555 1_555
O16_2 Er2_3 1_555 1_555
H7_2 O16_2 1_555 1_555
H8_2 O16_2 1_555 1_555
N1_2 Er2_3 1_555 1_555
C1_2 O1_2 1_555 1_555
C2_2 N1_2 1_555 1_555
C3_2 C2_2 1_555 1_555
H15_2 C3_2 1_555 1_555
C4_2 C3_2 1_555 1_555
H16_2 C4_2 1_555 1_555
C5_2 C4_2 1_555 1_555
H17_2 C5_2 1_555 1_555
C6_2 N1_2 1_555 1_555
C7_2 O3_2 1_555 1_555
C8A C8 1_555 1_555
C9_2 O10_2 1_555 1_555
C10_2 O8_3 1_555 1_555
C11A O12 1_555 1_555
O10 Er2_2 1_555 1_555
C5 C6 1_555 1_555
C6 C7 1_555 1_555
C9 C10 1_555 1_555
C11 C11A 1_555 1_555
Er2A O12A 1_555 1_555
O4_2 C7_2 1_555 1_555
O5A C8A 1_555 1_555
O6A C8A 1_555 1_555
O9_2 C10_2 1_555 1_555
C1_2 C2_2 1_555 1_555
C5_2 C6_2 1_555 1_555
C6_2 C7_2 1_555 1_555
C9_2 C10_2 1_555 1_555

#END
