
#######################################################################
#
#                 Cambridge Crystallographic Data Centre
#                                CCDC 
#
#######################################################################
#
# If this CIF has been generated from an entry in the Cambridge 
# Structural Database, then it will include bibliographic, chemical, 
# crystal, experimental, refinement or atomic coordinate data resulting 
# from the CCDC's data processing and validation procedures.
#
#######################################################################

data_XOJYOL
_symmetry_cell_setting           triclinic
_symmetry_space_group_name_H-M   'P -1'
_symmetry_Int_Tables_number      2
_space_group_name_Hall           '-P 1'
loop_
_symmetry_equiv_pos_site_id
_symmetry_equiv_pos_as_xyz
1 x,y,z
2 -x,-y,-z
_cell_length_a                   8.03070(10)
_cell_length_b                   8.29760(10)
_cell_length_c                   9.61390(10)
_cell_angle_alpha                98.1740(10)
_cell_angle_beta                 100.4330(10)
_cell_angle_gamma                102.4260(10)
_cell_volume                     604.235
loop_
_atom_site_label
_atom_site_type_symbol
_atom_site_fract_x
_atom_site_fract_y
_atom_site_fract_z
Ce1 Ce 0.771621(7) 0.789077(7) 0.876993(6)
O1 O 0.51680(10) 0.70573(10) 0.66329(8)
O2 O 0.41814(11) 0.66099(11) 0.42455(9)
O3 O 1.04407(10) 1.02389(10) 0.87921(8)
O4 O 1.16524(12) 1.26546(11) 0.82867(10)
O5 O 0.49553(10) 1.20932(10) 1.00668(9)
O6 O 0.66992(10) 1.06689(10) 0.91424(9)
O7 O 0.62217(13) 0.47939(11) 0.86567(9)
H1 H 0.603(2) 0.436(2) 0.7918(18)
H2 H 0.593(2) 0.421(2) 0.9112(18)
O8 O 0.85440(11) 0.61266(11) 0.66569(9)
H3 H 0.786(2) 0.536(2) 0.6278(17)
H4 H 0.933(2) 0.5865(19) 0.6746(17)
O9 O 1.04250(12) 0.66895(11) 0.95761(11)
H5 H 1.0178(3) 0.57586(19) 0.9789(9)
H6 H 1.1337(4) 0.7386(2) 1.0024(11)
N1 N 0.78694(11) 0.94687(11) 0.65347(9)
C1 C 0.52181(14) 0.73709(14) 0.53834(12)
C2 C 0.66500(13) 0.88630(13) 0.53167(11)
C3 C 0.66642(14) 0.95724(14) 0.41026(12)
H9 H 0.5827 0.9096 0.3257
C4 C 0.79504(14) 1.10065(14) 0.41721(12)
H10 H 0.7973 1.1526 0.3378
C5 C 0.92080(14) 1.16652(14) 0.54383(12)
H11 H 1.0071 1.2641 0.5514
C6 C 0.91448(13) 1.08345(13) 0.65824(11)
C7 C 1.05221(14) 1.13087(14) 0.79636(11)
C8 C 0.54796(13) 1.08000(13) 0.97715(11)
Ce1A Ce 0.228379(7) 1.210923(7) 1.123007(6)
Ce1A_2 Ce 1.228379(7) 1.210923(7) 1.123007(6)
O1A O 1.48320(10) 1.29427(10) 1.33671(8)
O2A O 1.58186(11) 1.33901(11) 1.57545(9)
O3A O 0.95593(10) 0.97611(10) 1.12079(8)
O4A O 0.83476(12) 0.73454(11) 1.17133(10)
O5A O 0.50447(10) 0.79068(10) 0.99332(9)
O5_2 O 1.49553(10) 1.20932(10) 1.00668(9)
O6A O 0.33008(10) 0.93311(10) 1.08576(9)
O6A_2 O 1.33008(10) 0.93311(10) 1.08576(9)
O7A O 1.37783(13) 1.52061(11) 1.13433(9)
H1A H 1.397(2) 1.564(2) 1.2082(18)
H2A H 1.407(2) 1.579(2) 1.0888(18)
O8A O 1.14560(11) 1.38734(11) 1.33431(9)
H3A H 1.214(2) 1.464(2) 1.3722(17)
H4A H 1.067(2) 1.4135(19) 1.3254(17)
O9A O 0.95750(12) 1.33105(11) 1.04239(11)
H5A H 0.9822(3) 1.42414(19) 1.0211(9)
H6A H 0.8663(4) 1.2614(2) 0.9976(11)
N1A N 1.21306(11) 1.05313(11) 1.34653(9)
C1A C 1.47819(14) 1.26291(14) 1.46166(12)
C2A C 1.33500(13) 1.11370(13) 1.46833(11)
C3A C 1.33358(14) 1.04276(14) 1.58974(12)
H9A H 1.4173 1.0904 1.6743
C4A C 1.20496(14) 0.89935(14) 1.58279(12)
H10A H 1.2027 0.8474 1.6622
C5A C 1.07920(14) 0.83348(14) 1.45617(12)
H11A H 0.9929 0.7359 1.4486
C6A C 1.08552(13) 0.91655(13) 1.34176(11)
C7A C 0.94779(14) 0.86913(14) 1.20364(11)
C8A C 0.45204(13) 0.92000(13) 1.02285(11)
O10 O 0.18795(11) 0.54631(11) 0.70816(12)
H7 H 0.1887(3) 0.4614(2) 0.7467(2)
H8 H 0.2827(4) 0.5902(3) 0.6865(3)
loop_
_geom_bond_atom_site_label_1
_geom_bond_atom_site_label_2
_geom_bond_site_symmetry_1
_geom_bond_site_symmetry_2
Ce1 O1 1_555 1_555
O1 C1 1_555 1_555
O2 C1 1_555 1_555
O3 Ce1 1_555 1_555
O4 C7 1_555 1_555
O5 C8 1_555 1_555
O6 Ce1 1_555 1_555
O7 Ce1 1_555 1_555
H1 O7 1_555 1_555
H2 O7 1_555 1_555
O8 Ce1 1_555 1_555
H3 O8 1_555 1_555
H4 O8 1_555 1_555
O9 Ce1 1_555 1_555
H5 O9 1_555 1_555
H6 O9 1_555 1_555
O10 H7 1_555 1_555
H8 O10 1_555 1_555
N1 Ce1 1_555 1_555
C1 C2 1_555 1_555
C2 N1 1_555 1_555
C3 C2 1_555 1_555
H9 C3 1_555 1_555
C4 C3 1_555 1_555
H10 C4 1_555 1_555
C5 C4 1_555 1_555
H11 C5 1_555 1_555
C6 N1 1_555 1_555
C7 O3 1_555 1_555
C8 O6 1_555 1_555
Ce1A O5 1_555 1_555
Ce1A_2 O3 1_555 1_555
O1A Ce1A_2 1_555 1_555
O2A C1A 1_555 1_555
O3A Ce1 1_555 1_555
O4A Ce1 1_555 1_555
O5A Ce1 1_555 1_555
O5_2 Ce1A_2 1_555 1_555
O6A Ce1A 1_555 1_555
O6A_2 Ce1A_2 1_555 1_555
O7A Ce1A_2 1_555 1_555
H1A O7A 1_555 1_555
H2A O7A 1_555 1_555
O8A Ce1A_2 1_555 1_555
H3A O8A 1_555 1_555
H4A O8A 1_555 1_555
O9A Ce1A_2 1_555 1_555
H5A O9A 1_555 1_555
H6A O9A 1_555 1_555
N1A Ce1A_2 1_555 1_555
C1A O1A 1_555 1_555
C2A N1A 1_555 1_555
C3A C2A 1_555 1_555
H9A C3A 1_555 1_555
C4A C3A 1_555 1_555
H10A C4A 1_555 1_555
C5A C4A 1_555 1_555
H11A C5A 1_555 1_555
C6A N1A 1_555 1_555
C7A O3A 1_555 1_555
C8A C8 1_555 1_555
O4 Ce1A_2 1_555 1_555
C5 C6 1_555 1_555
C6 C7 1_555 1_555
Ce1A_2 O3A 1_555 1_555
O4A C7A 1_555 1_555
O5A C8A 1_555 1_555
O6A C8A 1_555 1_555
C1A C2A 1_555 1_555
C5A C6A 1_555 1_555
C6A C7A 1_555 1_555

#END
