
#######################################################################
#
#                 Cambridge Crystallographic Data Centre
#                                CCDC 
#
#######################################################################
#
# If this CIF has been generated from an entry in the Cambridge 
# Structural Database, then it will include bibliographic, chemical, 
# crystal, experimental, refinement or atomic coordinate data resulting 
# from the CCDC's data processing and validation procedures.
#
#######################################################################

data_XOJYAX
_symmetry_cell_setting           triclinic
_symmetry_space_group_name_H-M   'P -1'
_symmetry_Int_Tables_number      2
_space_group_name_Hall           '-P 1'
loop_
_symmetry_equiv_pos_site_id
_symmetry_equiv_pos_as_xyz
1 x,y,z
2 -x,-y,-z
_cell_length_a                   8.15280(10)
_cell_length_b                   10.5121(2)
_cell_length_c                   13.0062(2)
_cell_angle_alpha                93.9940(10)
_cell_angle_beta                 103.2590(10)
_cell_angle_gamma                107.6380(10)
_cell_volume                     1022.25
loop_
_atom_site_label
_atom_site_type_symbol
_atom_site_fract_x
_atom_site_fract_y
_atom_site_fract_z
Eu1 Eu -0.170549(10) 0.528886(8) 0.188588(6)
Eu2 Eu -0.722380(9) 0.178750(7) 0.394860(6)
O1 O -0.45428(18) 0.35841(14) 0.14647(11)
O2 O -0.54689(17) 0.31882(13) 0.29331(10)
O3 O -0.92196(18) -0.05114(13) 0.34008(10)
O4 O -0.03690(19) 0.75604(13) 0.22830(12)
O5 O 0.10424(17) 0.56921(16) 0.13186(10)
O6 O -0.22167(17) 0.47290(15) 0.00049(10)
O7 O 0.06994(16) 0.52878(12) 0.33787(10)
O8 O -0.1299(2) 0.31726(14) 0.18871(12)
O9 O -0.98441(17) 0.18915(13) 0.27159(11)
O10 O -0.76151(16) 0.40751(13) 0.40921(10)
O11 O -0.48063(16) 0.08846(13) 0.39252(10)
O12 O -0.66621(16) 0.04741(13) 0.53856(10)
O13 O -0.3899(2) 0.63481(16) 0.11122(14)
O14 O -0.28068(19) 0.56069(15) 0.33655(11)
H1 H -0.2435(6) 0.6249(2) 0.3871(5)
H2 H -0.3627(7) 0.4922(3) 0.3420(7)
O15 O -0.90851(17) 0.18497(14) 0.51203(10)
H3 H -0.9920(4) 0.2159(2) 0.4871(3)
H4 H -0.9308(7) 0.1307(3) 0.5562(3)
O16 O -0.48716(18) 0.32810(14) 0.53733(11)
H5 H -0.4808(8) 0.3038(2) 0.5984(2)
H6 H -0.4224(11) 0.4083(3) 0.5376(3)
N1 N -0.75042(19) 0.07377(15) 0.20933(12)
C1 C -0.5441(2) 0.28457(19) 0.19847(14)
C2 C -0.6598(2) 0.14423(19) 0.14658(14)
C3 C -0.6688(3) 0.0884(2) 0.04525(16)
H13 H -0.6036 0.1387 0.0032
C4 C -0.7767(4) -0.0437(2) 0.00752(17)
H14 H -0.7846 -0.0840 -0.0602
C5 C -0.8729(3) -0.1151(2) 0.07214(16)
H15 H -0.9494 -0.2031 0.0475
C6 C -0.8535(2) -0.05397(18) 0.17324(14)
C7 C 0.0553(2) 0.87802(18) 0.25319(15)
C8 C 0.0949(2) 0.52817(19) 0.03823(14)
C9 C 0.1098(2) 0.42323(18) 0.34394(14)
C10 C -0.0121(2) 0.29876(19) 0.26100(15)
C11 C -0.4453(2) 0.01173(18) 0.45832(14)
Eu1A Eu 0.170549(10) 0.471114(8) -0.188588(6)
Eu1_2 Eu -1.170549(10) -0.471114(8) 0.188588(6)
Eu1_3 Eu -1.170549(10) 0.528886(8) 0.188588(6)
Eu1_4 Eu 0.829451(10) 1.528886(8) 0.188588(6)
Eu2_2 Eu 0.277620(9) 1.178750(7) 0.394860(6)
Eu2_3 Eu 0.277620(9) 0.178750(7) 0.394860(6)
Eu2A Eu -0.277620(9) -0.178750(7) 0.605140(6)
O1_2 O 0.54572(18) 1.35841(14) 0.14647(11)
O2_2 O 0.45311(17) 1.31882(13) 0.29331(10)
O3_2 O 0.07804(18) 0.94886(13) 0.34008(10)
O4_2 O -1.03690(19) -0.24396(13) 0.22830(12)
O4_3 O 0.96310(19) 1.75604(13) 0.22830(12)
O5A O -0.10424(17) 0.43079(16) -0.13186(10)
O5_2 O 1.10424(17) 1.56921(16) 0.13186(10)
O6A O 0.22167(17) 0.52710(15) -0.00049(10)
O6_2 O 0.77833(17) 1.47290(15) 0.00049(10)
O7_2 O -0.93006(16) 0.52878(12) 0.33787(10)
O7_3 O 1.06994(16) 1.52878(12) 0.33787(10)
O8_2 O -1.1299(2) 0.31726(14) 0.18871(12)
O8_3 O 0.8701(2) 1.31726(14) 0.18871(12)
O9_2 O 0.01559(17) 0.18915(13) 0.27159(11)
O9_3 O 0.01559(17) 1.18915(13) 0.27159(11)
O10_2 O 0.23849(16) 0.40751(13) 0.40921(10)
O10_3 O 0.23849(16) 1.40751(13) 0.40921(10)
O11A O -0.51937(16) -0.08846(13) 0.60748(10)
O11_2 O 0.51937(16) 1.08846(13) 0.39252(10)
O12A O -0.33379(16) -0.04741(13) 0.46144(10)
O12_2 O 0.33379(16) 1.04741(13) 0.53856(10)
O13_2 O 0.6101(2) 1.63481(16) 0.11122(14)
O14_2 O 0.71932(19) 1.56069(15) 0.33655(11)
H1_2 H 0.7565(6) 1.6249(2) 0.3871(5)
H2_2 H 0.6373(7) 1.4922(3) 0.3420(7)
O15_2 O 0.09149(17) 1.18497(14) 0.51203(10)
H3_2 H 0.0080(4) 1.2159(2) 0.4871(3)
H4_2 H 0.0692(7) 1.1307(3) 0.5562(3)
O16_2 O 0.51284(18) 1.32810(14) 0.53733(11)
H5_2 H 0.5192(8) 1.3038(2) 0.5984(2)
H6_2 H 0.5776(11) 1.4083(3) 0.5376(3)
N1_2 N 0.24958(19) 1.07377(15) 0.20933(12)
C1_2 C 0.4559(2) 1.28457(19) 0.19847(14)
C2_2 C 0.3402(2) 1.14423(19) 0.14658(14)
C3_2 C 0.3312(3) 1.0884(2) 0.04525(16)
H13_2 H 0.3964 1.1387 0.0032
C4_2 C 0.2233(4) 0.9563(2) 0.00752(17)
H14_2 H 0.2154 0.9160 -0.0602
C5_2 C 0.1271(3) 0.8849(2) 0.07214(16)
H15_2 H 0.0506 0.7969 0.0475
C6_2 C 0.1465(2) 0.94603(18) 0.17324(14)
C7_2 C -0.9447(2) -0.12198(18) 0.25319(15)
C8A C -0.0949(2) 0.47183(19) -0.03823(14)
C9_2 C -0.8902(2) 0.42323(18) 0.34394(14)
C10_2 C -1.0121(2) 0.29876(19) 0.26100(15)
C11A C -0.5547(2) -0.01173(18) 0.54168(14)
O17 O 0.6528(3) 0.9661(3) 0.22229(18)
H7 H 0.6745(17) 0.89421(13) 0.233(2)
H8 H 0.7382(16) 1.03823(16) 0.247(3)
O18 O 0.85370(18) 0.30894(15) 0.45889(12)
H9 H 0.7532(6) 0.2488(3) 0.4359(3)
H10 H 0.8650(10) 0.3639(4) 0.5126(4)
O19 O 0.5805(4) 0.2592(2) 0.73258(18)
H11 H 0.6608(3) 0.3266(2) 0.7714(7)
H12 H 0.5202(5) 0.2033(4) 0.7642(7)
loop_
_geom_bond_atom_site_label_1
_geom_bond_atom_site_label_2
_geom_bond_site_symmetry_1
_geom_bond_site_symmetry_2
Eu1 O1 1_555 1_555
Eu2 O2 1_555 1_555
O1 C1 1_555 1_555
O2 C1 1_555 1_555
O3 Eu2 1_555 1_555
O4 Eu1 1_555 1_555
O5 Eu1 1_555 1_555
O6 Eu1 1_555 1_555
O7 Eu1 1_555 1_555
O8 Eu1 1_555 1_555
O9 Eu2 1_555 1_555
O10 Eu2 1_555 1_555
O11 Eu2 1_555 1_555
O12 Eu2 1_555 1_555
O13 Eu1 1_555 1_555
O14 Eu1 1_555 1_555
H1 O14 1_555 1_555
H2 O14 1_555 1_555
O15 Eu2 1_555 1_555
H3 O15 1_555 1_555
H4 O15 1_555 1_555
O16 Eu2 1_555 1_555
H5 O16 1_555 1_555
H6 O16 1_555 1_555
O17 H7 1_555 1_555
H8 O17 1_555 1_555
O18 H9 1_555 1_555
H10 O18 1_555 1_555
O19 H11 1_555 1_555
H12 O19 1_555 1_555
N1 Eu2 1_555 1_555
C1 C2 1_555 1_555
C2 N1 1_555 1_555
C3 C2 1_555 1_555
H13 C3 1_555 1_555
C4 C3 1_555 1_555
H14 C4 1_555 1_555
C5 C4 1_555 1_555
H15 C5 1_555 1_555
C6 N1 1_555 1_555
C7 O4 1_555 1_555
C8 O5 1_555 1_555
C9 O7 1_555 1_555
C10 O8 1_555 1_555
C11 O11 1_555 1_555
Eu1A O5A 1_555 1_555
Eu1_2 O4_2 1_555 1_555
Eu1_3 O7_2 1_555 1_555
Eu1_4 O1_2 1_555 1_555
Eu2_2 O2_2 1_555 1_555
Eu2_3 O9_2 1_555 1_555
Eu2A O11A 1_555 1_555
O1_2 C1_2 1_555 1_555
O2_2 C1_2 1_555 1_555
O3_2 C7 1_555 1_555
O4_2 C7_2 1_555 1_555
O4_3 Eu1_4 1_555 1_555
O5A C8A 1_555 1_555
O5_2 Eu1_4 1_555 1_555
O6A C8 1_555 1_555
O6_2 Eu1_4 1_555 1_555
O7_2 C9_2 1_555 1_555
O7_3 Eu1_4 1_555 1_555
O8_2 Eu1_3 1_555 1_555
O8_3 Eu1_4 1_555 1_555
O9_2 C10 1_555 1_555
O9_3 Eu2_2 1_555 1_555
O10_2 C9 1_555 1_555
O10_3 Eu2_2 1_555 1_555
O11A C11A 1_555 1_555
O11_2 Eu2_2 1_555 1_555
O12A C11 1_555 1_555
O12_2 Eu2_2 1_555 1_555
O13_2 Eu1_4 1_555 1_555
O14_2 Eu1_4 1_555 1_555
H1_2 O14_2 1_555 1_555
H2_2 O14_2 1_555 1_555
O15_2 Eu2_2 1_555 1_555
H3_2 O15_2 1_555 1_555
H4_2 O15_2 1_555 1_555
O16_2 Eu2_2 1_555 1_555
H5_2 O16_2 1_555 1_555
H6_2 O16_2 1_555 1_555
N1_2 Eu2_2 1_555 1_555
C1_2 C2_2 1_555 1_555
C2_2 N1_2 1_555 1_555
C3_2 C2_2 1_555 1_555
H13_2 C3_2 1_555 1_555
C4_2 C3_2 1_555 1_555
H14_2 C4_2 1_555 1_555
C5_2 C4_2 1_555 1_555
H15_2 C5_2 1_555 1_555
C6_2 C7 1_555 1_555
C7_2 O3 1_555 1_555
C8A O6 1_555 1_555
C9_2 O10 1_555 1_555
C10_2 O9 1_555 1_555
C11A O12 1_555 1_555
C5 C6 1_555 1_555
C6 C7_2 1_555 1_555
C8 C8A 1_555 1_555
C9 C10 1_555 1_555
C11 C11A 1_555 1_555
Eu1A O6A 1_555 1_555
Eu2_2 O3_2 1_555 1_555
Eu2_3 O10_2 1_555 1_555
Eu2A O12A 1_555 1_555
O8_2 C10_2 1_555 1_555
N1_2 C6_2 1_555 1_555
C5_2 C6_2 1_555 1_555
C9_2 C10_2 1_555 1_555

#END
