
#######################################################################
#
#                 Cambridge Crystallographic Data Centre
#                                CCDC 
#
#######################################################################
#
# If this CIF has been generated from an entry in the Cambridge 
# Structural Database, then it will include bibliographic, chemical, 
# crystal, experimental, refinement or atomic coordinate data resulting 
# from the CCDC's data processing and validation procedures.
#
#######################################################################

data_XOJYIF
_symmetry_cell_setting           triclinic
_symmetry_space_group_name_H-M   'P -1'
_symmetry_Int_Tables_number      2
_space_group_name_Hall           '-P 1'
loop_
_symmetry_equiv_pos_site_id
_symmetry_equiv_pos_as_xyz
1 x,y,z
2 -x,-y,-z
_cell_length_a                   8.1213(3)
_cell_length_b                   10.5379(3)
_cell_length_c                   13.0921(4)
_cell_angle_alpha                94.1358(18)
_cell_angle_beta                 102.9857(17)
_cell_angle_gamma                108.1915(15)
_cell_volume                     1024.89
loop_
_atom_site_label
_atom_site_type_symbol
_atom_site_fract_x
_atom_site_fract_y
_atom_site_fract_z
Tb1 Tb -0.170540(10) -0.471110(8) 0.188590(6)
Tb2 Tb 0.277618(9) 0.178757(7) 0.394862(6)
O1 O 0.51937(16) 0.08834(13) 0.39263(10)
O2 O 0.33384(16) 0.04739(13) 0.53856(10)
O3 O 0.01524(17) -0.81074(13) 0.27154(11)
O4 O -0.1300(2) -0.68283(14) 0.18879(12)
O5 O 0.23835(17) -0.59245(13) 0.40909(10)
O6 O 0.06974(17) -0.47136(12) 0.33783(10)
O7 O 0.10424(17) -0.43064(16) 0.13184(10)
O8 O 0.22163(17) -0.47293(15) -0.00049(10)
O9 O -0.03691(19) -0.24397(13) 0.22825(12)
O10 O 0.07811(18) -0.05123(13) 0.33998(10)
O11 O 0.45318(17) 0.31891(13) 0.29341(10)
O12 O 0.54571(18) 0.35855(14) 0.14648(11)
H1 H -0.48747(13) -0.41754(16) 0.07285(16)
H2 H -0.3903(2) -0.29923(9) 0.14966(12)
O13 O -0.38797(12) -0.36548(9) 0.11098(10)
H3 H -0.3637(6) -0.5071(2) 0.3419(7)
H4 H -0.2451(9) -0.3727(3) 0.3843(7)
O14 O -0.28060(19) -0.43929(15) 0.33644(11)
H5 H 0.0111(4) 0.2186(2) 0.4884(3)
H6 H 0.0679(7) 0.1317(3) 0.5561(3)
O15 O 0.09138(17) 0.18489(14) 0.51192(10)
H7 H 0.5796(8) 0.4084(2) 0.5391(2)
H8 H 0.5226(13) 0.3004(3) 0.5968(3)
O16 O 0.51283(18) 0.32805(14) 0.53728(11)
N1 N 0.24947(19) 0.07367(15) 0.20929(12)
C1 C 0.5546(2) 0.01177(18) 0.45813(14)
C2 C -0.0124(2) -0.70163(19) 0.26098(15)
C3 C 0.1098(2) -0.57678(18) 0.34402(13)
C4 C 0.0946(2) -0.47179(19) 0.03821(14)
C5 C 0.0554(2) -0.12195(18) 0.25331(14)
C6 C 0.1465(2) -0.05400(18) 0.17321(14)
C7 C 0.1270(3) -0.1154(2) 0.07212(16)
H15 H 0.0500 -0.2038 0.0479
C8 C 0.2232(4) -0.0438(2) 0.00727(17)
H16 H 0.2151 -0.0841 -0.0601
C9 C 0.3311(3) 0.0884(2) 0.04524(16)
H17 H 0.3969 0.1395 0.0036
C10 C 0.3402(2) 0.14429(19) 0.14649(14)
C11 C 0.4557(2) 0.28467(18) 0.19853(15)
Tb1A Tb 0.170540(10) -0.528890(8) -0.188590(6)
Tb1_2 Tb 0.829460(10) 0.528890(8) 0.188590(6)
Tb1_3 Tb -1.170540(10) -1.471110(8) 0.188590(6)
Tb1_4 Tb -0.170540(10) 0.528890(8) 0.188590(6)
Tb2_2 Tb 0.277618(9) -0.821243(7) 0.394862(6)
Tb2_3 Tb -0.722382(9) -0.821243(7) 0.394862(6)
Tb2A Tb 0.722382(9) -0.178757(7) 0.605138(6)
O1_2 O -0.48063(16) -0.91166(13) 0.39263(10)
O1A O 0.48063(16) -0.08834(13) 0.60737(10)
O2_2 O -0.66616(16) -0.95261(13) 0.53856(10)
O2A O 0.66616(16) -0.04739(13) 0.46144(10)
O3_2 O 0.01524(17) 0.18926(13) 0.27154(11)
O3_3 O -0.98476(17) -0.81074(13) 0.27154(11)
O4_2 O -1.1300(2) -1.68283(14) 0.18879(12)
O4_3 O -0.1300(2) 0.31717(14) 0.18879(12)
O5_2 O 0.23835(17) 0.40755(13) 0.40909(10)
O5_3 O -0.76165(17) -0.59245(13) 0.40909(10)
O6_2 O -0.93026(17) -1.47136(12) 0.33783(10)
O6_3 O 0.06974(17) 0.52864(12) 0.33783(10)
O7A O -0.10424(17) -0.56936(16) -0.13184(10)
O7_2 O -0.89576(17) -1.43064(16) 0.13184(10)
O8A O -0.22163(17) -0.52707(15) 0.00049(10)
O8A_2 O -1.22163(17) -1.52707(15) 0.00049(10)
O9_2 O -1.03691(19) -1.24397(13) 0.22825(12)
O10_2 O -0.92189(18) -1.05123(13) 0.33998(10)
O11_2 O -0.54682(17) -0.68109(13) 0.29341(10)
O12_2 O -0.45429(18) -0.64145(14) 0.14648(11)
O12_3 O -1.45429(18) -1.64145(14) 0.14648(11)
H1_2 H -1.48747(13) -1.41754(16) 0.07285(16)
H2_2 H -1.3903(2) -1.29923(9) 0.14966(12)
O13_2 O -1.38797(12) -1.36548(9) 0.11098(10)
H3_2 H -1.3637(6) -1.5071(2) 0.3419(7)
H4_2 H -1.2451(9) -1.3727(3) 0.3843(7)
O14_2 O -1.28060(19) -1.43929(15) 0.33644(11)
H5_2 H -0.9889(4) -0.7814(2) 0.4884(3)
H6_2 H -0.9321(7) -0.8683(3) 0.5561(3)
O15_2 O -0.90862(17) -0.81511(14) 0.51192(10)
H7_2 H -0.4204(8) -0.5916(2) 0.5391(2)
H8_2 H -0.4774(13) -0.6996(3) 0.5968(3)
O16_2 O -0.48717(18) -0.67195(14) 0.53728(11)
N1_2 N -0.75053(19) -0.92633(15) 0.20929(12)
C1A C 0.4454(2) -0.01177(18) 0.54187(14)
C2_2 C -0.0124(2) 0.29837(19) 0.26098(15)
C3_2 C 0.1098(2) 0.42322(18) 0.34402(13)
C4A C -0.0946(2) -0.52821(19) -0.03821(14)
C5_2 C -0.9446(2) -1.12195(18) 0.25331(14)
C6_2 C -0.8535(2) -1.05400(18) 0.17321(14)
C7_2 C -0.8730(3) -1.1154(2) 0.07212(16)
H15_2 H -0.9500 -1.2038 0.0479
C8_2 C -0.7768(4) -1.0438(2) 0.00727(17)
H16_2 H -0.7849 -1.0841 -0.0601
C9_2 C -0.6689(3) -0.9116(2) 0.04524(16)
H17_2 H -0.6031 -0.8605 0.0036
C10_2 C -0.6598(2) -0.85571(19) 0.14649(14)
C11_2 C -0.5443(2) -0.71533(18) 0.19853(15)
H9 H 0.68824(17) -0.09275(8) 0.24884(17)
H10 H 0.7281(2) 0.04332(8) 0.2285(3)
O17 O 0.65113(15) -0.03378(8) 0.22149(14)
H11 H 0.7530(7) -0.7532(3) 0.4369(3)
H12 H 0.8664(11) -0.6385(4) 0.5139(4)
O18 O 0.85293(18) -0.69115(15) 0.45893(12)
H13 H 0.4942(3) -0.7922(3) 0.7480(9)
H14 H 0.6536(4) -0.6764(4) 0.7777(9)
O19 O 0.5823(4) -0.7412(2) 0.73163(19)
loop_
_geom_bond_atom_site_label_1
_geom_bond_atom_site_label_2
_geom_bond_site_symmetry_1
_geom_bond_site_symmetry_2
Tb1 O4 1_555 1_555
Tb2 O1 1_555 1_555
O1 C1 1_555 1_555
O2 Tb2 1_555 1_555
O3 C2 1_555 1_555
O4 C2 1_555 1_555
O5 C3 1_555 1_555
O6 Tb1 1_555 1_555
O7 Tb1 1_555 1_555
O8 C4 1_555 1_555
O9 Tb1 1_555 1_555
O10 Tb2 1_555 1_555
O11 Tb2 1_555 1_555
O12 C11 1_555 1_555
H1 O13 1_555 1_555
H2 O13 1_555 1_555
O13 Tb1 1_555 1_555
H3 O14 1_555 1_555
H4 O14 1_555 1_555
O14 Tb1 1_555 1_555
H5 O15 1_555 1_555
H6 O15 1_555 1_555
O15 Tb2 1_555 1_555
H7 O16 1_555 1_555
H8 O16 1_555 1_555
O16 Tb2 1_555 1_555
H9 O17 1_555 1_555
H10 O17 1_555 1_555
H11 O18 1_555 1_555
H12 O18 1_555 1_555
H13 O19 1_555 1_555
H14 O19 1_555 1_555
N1 Tb2 1_555 1_555
C1 O2A 1_555 1_555
C2 C3 1_555 1_555
C3 O6 1_555 1_555
C4 O7 1_555 1_555
C5 O9 1_555 1_555
C6 N1 1_555 1_555
C7 C6 1_555 1_555
H15 C7 1_555 1_555
C8 C7 1_555 1_555
H16 C8 1_555 1_555
C9 C8 1_555 1_555
H17 C9 1_555 1_555
C10 N1 1_555 1_555
C11 O11 1_555 1_555
Tb1A O8 1_555 1_555
Tb1_2 O12 1_555 1_555
Tb1_3 O4_2 1_555 1_555
Tb1_4 O4_3 1_555 1_555
Tb2_2 O3 1_555 1_555
Tb2_3 O1_2 1_555 1_555
Tb2A O1A 1_555 1_555
O1A C1A 1_555 1_555
O2_2 Tb2_3 1_555 1_555
O2A Tb2A 1_555 1_555
O3_2 Tb2 1_555 1_555
O3_3 Tb2_3 1_555 1_555
O4_3 C2_2 1_555 1_555
O5_2 Tb2 1_555 1_555
O5_3 Tb2_3 1_555 1_555
O6_2 Tb1_3 1_555 1_555
O6_3 Tb1_4 1_555 1_555
O7A Tb1A 1_555 1_555
O7_2 Tb1_3 1_555 1_555
O8A Tb1 1_555 1_555
O8A_2 Tb1_3 1_555 1_555
O9_2 Tb1_3 1_555 1_555
O10_2 Tb2_3 1_555 1_555
O11_2 Tb2_3 1_555 1_555
O12_2 Tb1 1_555 1_555
O12_3 Tb1_3 1_555 1_555
H1_2 O13_2 1_555 1_555
H2_2 O13_2 1_555 1_555
O13_2 Tb1_3 1_555 1_555
H3_2 O14_2 1_555 1_555
H4_2 O14_2 1_555 1_555
O14_2 Tb1_3 1_555 1_555
H5_2 O15_2 1_555 1_555
H6_2 O15_2 1_555 1_555
O15_2 Tb2_3 1_555 1_555
H7_2 O16_2 1_555 1_555
H8_2 O16_2 1_555 1_555
O16_2 Tb2_3 1_555 1_555
N1_2 Tb2_3 1_555 1_555
C1A O2 1_555 1_555
C2_2 O3_2 1_555 1_555
C3_2 O5_2 1_555 1_555
C4A C4 1_555 1_555
C5_2 O9_2 1_555 1_555
C6_2 N1_2 1_555 1_555
C7_2 C6_2 1_555 1_555
H15_2 C7_2 1_555 1_555
C8_2 C7_2 1_555 1_555
H16_2 C8_2 1_555 1_555
C9_2 C8_2 1_555 1_555
H17_2 C9_2 1_555 1_555
C10_2 N1_2 1_555 1_555
C11_2 O11_2 1_555 1_555
O5 Tb2_2 1_555 1_555
O10 C5 1_555 1_555
C1 C1A 1_555 1_555
C5 C6 1_555 1_555
C9 C10 1_555 1_555
C10 C11 1_555 1_555
O6_3 C3_2 1_555 1_555
O7A C4A 1_555 1_555
O8A C4A 1_555 1_555
O10_2 C5_2 1_555 1_555
O12_2 C11_2 1_555 1_555
C2_2 C3_2 1_555 1_555
C5_2 C6_2 1_555 1_555
C9_2 C10_2 1_555 1_555
C10_2 C11_2 1_555 1_555

#END
