
#######################################################################
#
#                 Cambridge Crystallographic Data Centre
#                                CCDC 
#
#######################################################################
#
# If this CIF has been generated from an entry in the Cambridge 
# Structural Database, then it will include bibliographic, chemical, 
# crystal, experimental, refinement or atomic coordinate data resulting 
# from the CCDC's data processing and validation procedures.
#
#######################################################################

data_XOJYUR
_symmetry_cell_setting           triclinic
_symmetry_space_group_name_H-M   'P -1'
_symmetry_Int_Tables_number      2
_space_group_name_Hall           '-P 1'
loop_
_symmetry_equiv_pos_site_id
_symmetry_equiv_pos_as_xyz
1 x,y,z
2 -x,-y,-z
_cell_length_a                   9.8232(5)
_cell_length_b                   10.1275(5)
_cell_length_c                   12.7102(6)
_cell_angle_alpha                67.402(3)
_cell_angle_beta                 80.557(4)
_cell_angle_gamma                64.790(3)
_cell_volume                     1056.2
loop_
_atom_site_label
_atom_site_type_symbol
_atom_site_fract_x
_atom_site_fract_y
_atom_site_fract_z
Nd1 Nd 0.25829(3) 0.22766(3) 0.24192(2)
Nd2 Nd 0.73136(3) 0.28694(3) 0.26379(2)
O1 O 0.4353(5) 0.3349(5) 0.2550(4)
O2 O 0.4998(5) 0.4295(5) 0.3628(4)
O3 O -0.0098(5) 0.3086(5) 0.2916(4)
O4 O -0.2273(5) 0.4991(5) 0.2979(4)
O5 O 0.1743(3) 0.1567(6) 0.1069(3)
H1 H 0.2175(7) 0.1734(14) 0.0433(4)
H2 H 0.0807(4) 0.1843(13) 0.1066(8)
O6 O 0.5022(3) 0.0019(3) 0.2674(3)
H3 H 0.4947(7) -0.0839(4) 0.303(2)
H4 H 0.5710(4) 0.0145(6) 0.2886(8)
O7 O 0.3302(5) -0.0614(5) 0.6207(4)
O8 O 0.3127(5) 0.1291(4) 0.4500(3)
O9 O 0.1982(5) -0.1779(5) 0.5318(4)
O10 O 0.2047(5) -0.0050(5) 0.3570(4)
O11 O 0.4095(5) 0.4603(6) -0.1125(4)
O12 O 0.4016(5) 0.2853(5) 0.0603(4)
O13 O 0.1266(5) 0.6494(5) -0.0853(4)
O14 O 0.1248(5) 0.4819(5) 0.0932(4)
O15 O 0.6863(5) 0.1895(4) 0.1269(3)
H5 H 0.7179(17) 0.0919(4) 0.1512(8)
H6 H 0.7101(12) 0.2328(9) 0.0600(4)
O16 O 0.9467(4) 0.0488(4) 0.2674(2)
H7 H 0.9660(14) 0.0292(7) 0.2070(3)
H8 H 1.0197(5) 0.0216(11) 0.3084(5)
N1 N 0.1456(5) 0.4473(5) 0.3199(4)
C1 C 0.3985(7) 0.4155(6) 0.3232(5)
C2 C 0.2375(6) 0.4966(7) 0.3491(5)
C3 C 0.1813(7) 0.6171(7) 0.3931(6)
H17 H 0.2455 0.6482 0.4147
C4 C 0.0279(7) 0.6879(7) 0.4033(6)
H18 H -0.0126 0.7695 0.4311
C5 C -0.0690(7) 0.6386(7) 0.3723(6)
H19 H -0.1730 0.6874 0.3777
C6 C -0.0025(7) 0.5138(6) 0.3332(6)
C7 C -0.0871(6) 0.4379(7) 0.3050(5)
C8 C 0.2968(6) 0.0062(6) 0.5147(5)
C9 C 0.2280(7) -0.0649(7) 0.4637(5)
C10 C 0.3446(6) 0.4139(6) -0.0193(5)
C11 C 0.1846(7) 0.5240(6) -0.0022(5)
Nd2_2 Nd -0.26864(3) 0.28694(3) 0.26379(2)
Nd2A Nd 0.26864(3) -0.28694(3) 0.73621(2)
Nd2A_2 Nd 0.26864(3) 0.71306(3) -0.26379(2)
O3_2 O 0.9902(5) 0.3086(5) 0.2916(4)
O4_2 O 0.7727(5) 0.4991(5) 0.2979(4)
O7A O 0.6698(5) 0.0614(5) 0.3793(4)
O9A O 0.8018(5) 0.1779(5) 0.4682(4)
O11A O 0.5905(5) 0.5397(6) 0.1125(4)
O13A O 0.8734(5) 0.3506(5) 0.0853(4)
O17 O 0.5271(3) 0.7049(4) 0.3868(4)
H9 H 0.4477(4) 0.6916(9) 0.4125(15)
H10 H 0.5537(6) 0.7526(6) 0.4153(6)
O18 O -0.0101(5) 0.8975(4) 0.1121(4)
H11 H 0.0614(10) 0.8411(7) 0.0819(6)
H12 H 0.0089(9) 0.9543(5) 0.1361(6)
O19 O 0.2875(4) 0.1631(11) 0.8869(5)
H13 H 0.3504(7) 0.093(2) 0.9375(8)
H14 H 0.1964(5) 0.190(6) 0.9062(15)
O20 O 0.3195(4) 0.7830(9) 0.1364(4)
H15 H 0.3594(7) 0.7569(17) 0.1988(5)
H16 H 0.2299(5) 0.7924(14) 0.1389(13)
loop_
_geom_bond_atom_site_label_1
_geom_bond_atom_site_label_2
_geom_bond_site_symmetry_1
_geom_bond_site_symmetry_2
Nd1 O1 1_555 1_555
Nd2 O1 1_555 1_555
O1 C1 1_555 1_555
O2 Nd2 1_555 1_555
O3 Nd1 1_555 1_555
O4 C7 1_555 1_555
O5 Nd1 1_555 1_555
H1 O5 1_555 1_555
H2 O5 1_555 1_555
O6 Nd1 1_555 1_555
H3 O6 1_555 1_555
H4 O6 1_555 1_555
O7 C8 1_555 1_555
O8 Nd1 1_555 1_555
O9 C9 1_555 1_555
O10 Nd1 1_555 1_555
O11 C10 1_555 1_555
O12 Nd1 1_555 1_555
O13 C11 1_555 1_555
O14 Nd1 1_555 1_555
O15 Nd2 1_555 1_555
H5 O15 1_555 1_555
H6 O15 1_555 1_555
O16 Nd2 1_555 1_555
H7 O16 1_555 1_555
H8 O16 1_555 1_555
O17 H9 1_555 1_555
H10 O17 1_555 1_555
O18 H11 1_555 1_555
H12 O18 1_555 1_555
O19 H13 1_555 1_555
H14 O19 1_555 1_555
O20 H15 1_555 1_555
H16 O20 1_555 1_555
N1 Nd1 1_555 1_555
C1 O2 1_555 1_555
C2 N1 1_555 1_555
C3 C2 1_555 1_555
H17 C3 1_555 1_555
C4 C3 1_555 1_555
H18 C4 1_555 1_555
C5 C4 1_555 1_555
H19 C5 1_555 1_555
C6 N1 1_555 1_555
C7 O3 1_555 1_555
C8 O8 1_555 1_555
C9 O10 1_555 1_555
C10 O12 1_555 1_555
C11 O14 1_555 1_555
Nd2_2 O3 1_555 1_555
Nd2A O7 1_555 1_555
Nd2A_2 O11 1_555 1_555
O3_2 Nd2 1_555 1_555
O4_2 Nd2 1_555 1_555
O7A Nd2 1_555 1_555
O9A Nd2 1_555 1_555
O11A Nd2 1_555 1_555
O13A Nd2 1_555 1_555
O4 Nd2_2 1_555 1_555
O9 Nd2A 1_555 1_555
O13 Nd2A_2 1_555 1_555
C1 C2 1_555 1_555
C5 C6 1_555 1_555
C6 C7 1_555 1_555
C8 C9 1_555 1_555
C10 C11 1_555 1_555

#END
