
#######################################################################
#
#                 Cambridge Crystallographic Data Centre
#                                CCDC 
#
#######################################################################
#
# If this CIF has been generated from an entry in the Cambridge 
# Structural Database, then it will include bibliographic, chemical, 
# crystal, experimental, refinement or atomic coordinate data resulting 
# from the CCDC's data processing and validation procedures.
#
#######################################################################

data_XOJZOL
_symmetry_cell_setting           triclinic
_symmetry_space_group_name_H-M   'P -1'
_symmetry_Int_Tables_number      2
_space_group_name_Hall           '-P 1'
loop_
_symmetry_equiv_pos_site_id
_symmetry_equiv_pos_as_xyz
1 x,y,z
2 -x,-y,-z
_cell_length_a                   6.3825(8)
_cell_length_b                   7.8877(9)
_cell_length_c                   9.2022(11)
_cell_angle_alpha                66.602(2)
_cell_angle_beta                 71.757(2)
_cell_angle_gamma                79.821(2)
_cell_volume                     403.072
loop_
_atom_site_label
_atom_site_type_symbol
_atom_site_fract_x
_atom_site_fract_y
_atom_site_fract_z
V1 V 0.3446(1) 0.4140(1) 0.8426(1)
P1 P 0.8220(2) 0.3665(2) 0.9083(1)
O1 O 0.3850(5) 0.6527(4) 0.6007(3)
O2 O 0.6540(5) 0.4749(4) 0.8133(4)
O3 O 1.0523(5) 0.4166(5) 0.7986(4)
O4 O 0.7767(5) 0.3862(4) 1.0724(4)
O5 O 0.5113(5) 0.7065(4) 0.3308(3)
O6 O 0.3344(5) 0.2266(4) 0.9998(4)
O7 O 0.8180(5) 0.1528(4) 0.9427(4)
C1 C 0.4695(7) 0.6038(6) 0.4803(5)
C1A C 0.5305(7) 0.3962(6) 0.5197(5)
O1A O 0.6150(5) 0.3473(4) 0.3993(3)
O5A O 0.4887(5) 0.2935(4) 0.6692(3)
P1_2 P -0.1780(2) 0.3665(2) 0.9083(1)
O2_2 O -0.3460(5) 0.4749(4) 0.8133(4)
O3_2 O 0.0523(5) 0.4166(5) 0.7986(4)
O4_2 O -0.2233(5) 0.3862(4) 1.0724(4)
O7_2 O -0.1820(5) 0.1528(4) 0.9427(4)
V1A V 0.6554(1) 0.5860(1) 0.1574(1)
O4A O 0.2233(5) 0.6138(4) 0.9276(4)
V1_2 V 1.3446(1) 0.4140(1) 0.8426(1)
V1A_2 V 0.6554(1) 0.5860(1) 1.1574(1)
V1_3 V -0.6554(1) 0.4140(1) 0.8426(1)
V1A_3 V -0.3446(1) 0.5860(1) 1.1574(1)
O1_2 O -0.6150(5) 0.6527(4) 0.6007(3)
O3_3 O -0.9477(5) 0.4166(5) 0.7986(4)
O4A_2 O -0.7767(5) 0.6138(4) 0.9276(4)
O5A_2 O -0.5113(5) 0.2935(4) 0.6692(3)
O6_2 O -0.6656(5) 0.2266(4) 0.9998(4)
N1 N 1.2754(8) 0.0755(8) 0.4049(7)
N2 N 1.0817(8) 0.2843(6) 0.5206(6)
N3 N 1.1616(9) -0.0096(7) 0.6846(6)
C2 C 1.1737(8) 0.1147(7) 0.5379(6)
H1 H 1.2943(98) 0.1565(87) 0.3111(79)
H2 H 1.0958(88) 0.0044(72) 0.7644(69)
H3 H 1.031(10) 0.3100(86) 0.6074(76)
H4 H 1.321(13) -0.027(11) 0.4194(95)
H5 H 1.101(13) 0.370(11) 0.4144(98)
H6 H 1.1855(13) -0.120(12) 0.697(10)
loop_
_geom_bond_atom_site_label_1
_geom_bond_atom_site_label_2
_geom_bond_site_symmetry_1
_geom_bond_site_symmetry_2
V1 O1 1_555 1_555
P1 O2 1_555 1_555
O1 C1 1_555 1_555
O2 V1 1_555 1_555
O3 P1 1_555 1_555
O4 P1 1_555 1_555
O5 C1 1_555 1_555
O6 V1 1_555 1_555
O7 P1 1_555 1_555
N1 C2 1_555 1_555
N2 C2 1_555 1_555
N3 C2 1_555 1_555
C1 C1A 1_555 1_555
H1 N1 1_555 1_555
H2 N3 1_555 1_555
H3 N2 1_555 1_555
H4 N1 1_555 1_555
H5 N2 1_555 1_555
H6 N3 1_555 1_555
C1A O1A 1_555 1_555
O1A V1A 1_555 1_555
O5A V1 1_555 1_555
P1_2 O2_2 1_555 1_555
O2_2 V1_3 1_555 1_555
O3_2 V1 1_555 1_555
O4_2 P1_2 1_555 1_555
O7_2 P1_2 1_555 1_555
V1A O5 1_555 1_555
O4A V1 1_555 1_555
V1_2 O3 1_555 1_555
V1A_2 O4 1_555 1_555
V1_3 O1_2 1_555 1_555
V1A_3 O4_2 1_555 1_555
O3_3 V1_3 1_555 1_555
O4A_2 V1_3 1_555 1_555
O5A_2 V1_3 1_555 1_555
O6_2 V1_3 1_555 1_555
C1A O5A 1_555 1_555
P1_2 O3_2 1_555 1_555

#END
