
#######################################################################
#
#                 Cambridge Crystallographic Data Centre
#                                CCDC 
#
#######################################################################
#
# If this CIF has been generated from an entry in the Cambridge 
# Structural Database, then it will include bibliographic, chemical, 
# crystal, experimental, refinement or atomic coordinate data resulting 
# from the CCDC's data processing and validation procedures.
#
#######################################################################

data_XOJZIF
_symmetry_cell_setting           triclinic
_symmetry_space_group_name_H-M   'P -1'
_symmetry_Int_Tables_number      2
_space_group_name_Hall           '-P 1'
loop_
_symmetry_equiv_pos_site_id
_symmetry_equiv_pos_as_xyz
1 x,y,z
2 -x,-y,-z
_cell_length_a                   6.3595(7)
_cell_length_b                   6.6236(7)
_cell_length_c                   9.2245(10)
_cell_angle_alpha                98.216(2)
_cell_angle_beta                 108.128(2)
_cell_angle_gamma                100.672(2)
_cell_volume                     354.424
loop_
_atom_site_label
_atom_site_type_symbol
_atom_site_fract_x
_atom_site_fract_y
_atom_site_fract_z
V1 V 0.1843(1) 0.5742(1) 0.8294(1)
P1 P -0.2785(1) 0.6413(1) 0.8790(1)
O1 O -0.1465(3) 0.5279(3) 0.7981(2)
O2 O -0.5306(3) 0.5385(3) 0.7897(2)
O3 O 0.0389(3) 0.3125(3) 0.6133(2)
O4 O -0.2093(3) 0.6505(3) 1.0530(2)
O5 O -0.1210(3) 0.2710(3) 0.3545(2)
O6 O 0.2855(3) 0.7867(3) 0.9614(2)
O7 O -0.2298(4) 0.8784(3) 0.8609(2)
C1 C -0.0217(4) 0.3800(4) 0.4920(3)
C1A C 0.0217(4) 0.6200(4) 0.5080(3)
O3A O -0.0389(3) 0.6875(3) 0.3867(2)
O5A O 0.1210(3) 0.7290(3) 0.6455(2)
P1_2 P 0.7215(1) 0.6413(1) 0.8790(1)
O1_2 O 0.8535(3) 0.5279(3) 0.7981(2)
O2_2 O 0.4694(3) 0.5385(3) 0.7897(2)
O4_2 O 0.7907(3) 0.6505(3) 1.0530(2)
O7_2 O 0.7702(4) 0.8784(3) 0.8609(2)
V1_2 V 1.1843(1) 0.5742(1) 0.8294(1)
O6_2 O 1.2855(3) 0.7867(3) 0.9614(2)
O4A O 0.2093(3) 0.3495(3) 0.9470(2)
V1_3 V -0.8157(1) 0.5742(1) 0.8294(1)
V1A V -0.1843(1) 0.4258(1) 1.1706(1)
V1A_2 V -0.1843(1) 0.4258(1) 0.1706(1)
V1A_3 V 0.8157(1) 0.4258(1) 1.1706(1)
O2_3 O 1.4694(3) 0.5385(3) 0.7897(2)
O3_2 O 1.0389(3) 0.3125(3) 0.6133(2)
O4A_2 O 1.2093(3) 0.3495(3) 0.9470(2)
O5A_2 O 1.1210(3) 0.7290(3) 0.6455(2)
N1 N -0.4463(5) -0.1134(5) 0.3189(3)
C2 C -0.4504(6) -0.0917(5) 0.4800(4)
H1 H -0.5396(68) -0.2100(63) 0.4918(44)
H2 H -0.2927(68) -0.0566(59) 0.5492(45)
H3 H -0.3217(89) -0.0133(84) 0.3193(56)
H4 H -0.4280(82) -0.2367(84) 0.2786(55)
H5 H -0.5469(94) -0.0862(80) 0.2563(61)
C2A C -0.5496(6) 0.0917(5) 0.5200(4)
N1A N -0.5537(5) 0.1134(5) 0.6811(3)
H3A H -0.6783(89) 0.0133(84) 0.6807(56)
H4A H -0.5720(82) 0.2367(84) 0.7214(55)
H5A H -0.4531(94) 0.0862(80) 0.7437(61)
H1A H -0.4604(68) 0.2100(63) 0.5082(44)
H2A H -0.7073(68) 0.0566(59) 0.4508(45)
loop_
_geom_bond_atom_site_label_1
_geom_bond_atom_site_label_2
_geom_bond_site_symmetry_1
_geom_bond_site_symmetry_2
V1 O1 1_555 1_555
P1 O1 1_555 1_555
O2 P1 1_555 1_555
O3 V1 1_555 1_555
O4 P1 1_555 1_555
O5 C1 1_555 1_555
O6 V1 1_555 1_555
O7 P1 1_555 1_555
N1 C2 1_555 1_555
C1 O3 1_555 1_555
C2 H1 1_555 1_555
H2 C2 1_555 1_555
H3 N1 1_555 1_555
H4 N1 1_555 1_555
H5 N1 1_555 1_555
C1A C1 1_555 1_555
O3A C1A 1_555 1_555
O5A V1 1_555 1_555
C2A C2 1_555 1_555
N1A C2A 1_555 1_555
H3A N1A 1_555 1_555
H4A N1A 1_555 1_555
H5A N1A 1_555 1_555
H1A C2A 1_555 1_555
H2A C2A 1_555 1_555
P1_2 O1_2 1_555 1_555
O1_2 V1_2 1_555 1_555
O2_2 V1 1_555 1_555
O4_2 P1_2 1_555 1_555
O7_2 P1_2 1_555 1_555
V1_2 O6_2 1_555 1_555
O4A V1 1_555 1_555
V1_3 O2 1_555 1_555
V1A O4 1_555 1_555
V1A_2 O5 1_555 1_555
V1A_3 O4_2 1_555 1_555
O2_3 V1_2 1_555 1_555
O3_2 V1_2 1_555 1_555
O4A_2 V1_2 1_555 1_555
O5A_2 V1_2 1_555 1_555
C1A O5A 1_555 1_555
O3A V1A_2 1_555 1_555
P1_2 O2_2 1_555 1_555

#END
