
#######################################################################
#
#                 Cambridge Crystallographic Data Centre
#                                CCDC 
#
#######################################################################
#
# If this CIF has been generated from an entry in the Cambridge 
# Structural Database, then it will include bibliographic, chemical, 
# crystal, experimental, refinement or atomic coordinate data resulting 
# from the CCDC's data processing and validation procedures.
#
#######################################################################

data_XOJZAY
_symmetry_cell_setting           triclinic
_symmetry_space_group_name_H-M   'P -1'
_symmetry_Int_Tables_number      2
_space_group_name_Hall           '-P 1'
loop_
_symmetry_equiv_pos_site_id
_symmetry_equiv_pos_as_xyz
1 x,y,z
2 -x,-y,-z
_cell_length_a                   7.2921(6)
_cell_length_b                   7.5161(7)
_cell_length_c                   7.6282(5)
_cell_angle_alpha                88.900(5)
_cell_angle_beta                 78.627(6)
_cell_angle_gamma                80.188(4)
_cell_volume                     403.838
loop_
_atom_site_label
_atom_site_type_symbol
_atom_site_fract_x
_atom_site_fract_y
_atom_site_fract_z
Cu1 Cu 0.35386(4) 0.20392(5) -0.47231(4)
O1 O -0.4139(3) 0.0831(3) -0.6394(2)
O2 O -0.4148(3) 0.3346(3) -0.7983(3)
O3 O 0.2164(3) 0.1239(3) -0.6421(3)
O4 O -0.0860(3) 0.2653(3) -0.5792(3)
N1 N 0.5333(3) 0.2888(4) -0.3386(3)
H3 H 0.6547 0.2407 -0.3903
H4 H 0.5085 0.2529 -0.2230
H5 H 0.5186 0.4114 -0.3417
N2 N 0.1306(3) 0.3417(3) -0.3122(3)
H6 H 0.1229 0.4615 -0.3367
H7 H 0.1426 0.3235 -0.1964
H8 H 0.0235 0.3038 -0.3297
C1 C 0.0490(4) 0.1648(4) -0.6717(4)
C2 C 0.0203(4) 0.0788(4) -0.8399(4)
C3 C -0.1773(4) 0.0116(4) -1.0408(4)
H9 H -0.3000 0.0195 -1.0683
C4 C -0.1596(4) 0.0903(4) -0.8835(4)
C5 C -0.3403(4) 0.1804(4) -0.7638(4)
Cu1A Cu 0.64614(4) -0.20392(5) -1.52769(4)
Cu1A_2 Cu -0.35386(4) -0.20392(5) -0.52769(4)
Cu1_2 Cu -0.64614(4) 0.20392(5) -0.47231(4)
Cu1A_3 Cu -0.35386(4) -0.20392(5) -1.52769(4)
Cu1_3 Cu 0.35386(4) 0.20392(5) -1.47231(4)
O1A O 0.4139(3) -0.0831(3) -1.3606(2)
O1_2 O 0.5861(3) 0.0831(3) -0.6394(2)
O1A_2 O 0.4139(3) -0.0831(3) -0.3606(2)
O1_3 O -0.4139(3) 0.0831(3) -1.6394(2)
O1A_3 O -0.5861(3) -0.0831(3) -1.3606(2)
O2A O 0.4148(3) -0.3346(3) -1.2017(3)
O3A O -0.2164(3) -0.1239(3) -1.3579(3)
O4A O 0.0860(3) -0.2653(3) -1.4208(3)
N1A N -0.5333(3) -0.2888(4) -1.6614(3)
H3A H -0.6547 -0.2407 -1.6097
H4A H -0.5085 -0.2529 -1.7770
H5A H -0.5186 -0.4114 -1.6583
N2A N -0.1306(3) -0.3417(3) -1.6878(3)
H6A H -0.1229 -0.4615 -1.6633
H7A H -0.1426 -0.3235 -1.8036
H8A H -0.0235 -0.3038 -1.6703
C1A C -0.0490(4) -0.1648(4) -1.3283(4)
C2A C -0.0203(4) -0.0788(4) -1.1601(4)
C3A C 0.1773(4) -0.0116(4) -0.9592(4)
H9A H 0.3000 -0.0195 -0.9317
C4A C 0.1596(4) -0.0903(4) -1.1165(4)
C5A C 0.3403(4) -0.1804(4) -1.2362(4)
O5 O -0.7545(3) -0.5770(3) 0.0439(3)
H1 H -0.7218 -0.4841 -0.0011
H2 H -0.6606 -0.6131 0.1080
loop_
_geom_bond_atom_site_label_1
_geom_bond_atom_site_label_2
_geom_bond_site_symmetry_1
_geom_bond_site_symmetry_2
Cu1 O3 1_555 1_555
O1 C5 1_555 1_555
O2 C5 1_555 1_555
O3 C1 1_555 1_555
O4 C1 1_555 1_555
O5 H1 1_555 1_555
H2 O5 1_555 1_555
N1 Cu1 1_555 1_555
H3 N1 1_555 1_555
H4 N1 1_555 1_555
H5 N1 1_555 1_555
N2 Cu1 1_555 1_555
H6 N2 1_555 1_555
H7 N2 1_555 1_555
H8 N2 1_555 1_555
C1 C2 1_555 1_555
C2 C4 1_555 1_555
C3 H9 1_555 1_555
C4 C3 1_555 1_555
C5 C4 1_555 1_555
Cu1A O1A 1_555 1_555
Cu1A_2 O1 1_555 1_555
Cu1_2 O1 1_555 1_555
Cu1A_3 O1_3 1_555 1_555
Cu1_3 O1A 1_555 1_555
O1A C5A 1_555 1_555
O1_2 Cu1 1_555 1_555
O1A_2 Cu1 1_555 1_555
O1A_3 Cu1A_3 1_555 1_555
O2A C5A 1_555 1_555
O3A Cu1A_3 1_555 1_555
O4A C1A 1_555 1_555
N1A Cu1A_3 1_555 1_555
H3A N1A 1_555 1_555
H4A N1A 1_555 1_555
H5A N1A 1_555 1_555
N2A Cu1A_3 1_555 1_555
H6A N2A 1_555 1_555
H7A N2A 1_555 1_555
H8A N2A 1_555 1_555
C1A O3A 1_555 1_555
C2A C3 1_555 1_555
C3A C2 1_555 1_555
H9A C3A 1_555 1_555
C4A C2A 1_555 1_555
C5A C4A 1_555 1_555
C1A C2A 1_555 1_555
C3A C4A 1_555 1_555

#END
