
#######################################################################
#
#                 Cambridge Crystallographic Data Centre
#                                CCDC 
#
#######################################################################
#
# If this CIF has been generated from an entry in the Cambridge 
# Structural Database, then it will include bibliographic, chemical, 
# crystal, experimental, refinement or atomic coordinate data resulting 
# from the CCDC's data processing and validation procedures.
#
#######################################################################

data_XOJZEC
_symmetry_cell_setting           triclinic
_symmetry_space_group_name_H-M   'P -1'
_symmetry_Int_Tables_number      2
_space_group_name_Hall           '-P 1'
loop_
_symmetry_equiv_pos_site_id
_symmetry_equiv_pos_as_xyz
1 x,y,z
2 -x,-y,-z
_cell_length_a                   7.5307(2)
_cell_length_b                   8.7478(3)
_cell_length_c                   8.7673(4)
_cell_angle_alpha                100.595(2)
_cell_angle_beta                 93.595(2)
_cell_angle_gamma                115.240(2)
_cell_volume                     507.009
loop_
_atom_site_label
_atom_site_type_symbol
_atom_site_fract_x
_atom_site_fract_y
_atom_site_fract_z
Cu1 Cu -0.5000 0.0000 0.0000
Cu2 Cu 0.0000 0.5000 1.0000
O1 O -0.2709(3) 0.0360(2) 0.1596(2)
N1 N -0.6564(3) 0.0330(3) 0.1690(3)
H1 H -0.7665 -0.0732 0.1722
H2 H -0.7120 0.1072 0.1355
O2 O -0.3002(3) -0.2348(3) 0.1085(2)
O3 O -0.2011(3) -0.4659(2) 0.3138(2)
O4 O 0.0313(3) -0.3118(2) 0.1819(2)
N2 N -0.1037(3) 0.6199(3) 0.8684(3)
H3 H -0.1786 0.6640 0.9439
H4 H 0.0019 0.6962 0.8437
O5 O -0.6654(3) -0.3099(2) -0.0349(2)
H5 H -0.5550 -0.3040 0.0138
H6 H -0.6944 -0.3815 -0.1322
C1 C -0.5581(4) 0.1206(4) 0.3327(3)
H7 H -0.5107 0.0473 0.3771
H8 H -0.6532 0.1405 0.3949
H9 H -0.4452 0.2323 0.3349
C2 C -0.2343(4) -0.0849(3) 0.1921(3)
C3 C -0.1063(4) -0.0409(3) 0.3492(3)
C4 C -0.0591(4) 0.1163(3) 0.4546(3)
H10 H -0.0993 0.1966 0.4232
C5 C -0.0462(4) -0.1581(3) 0.3946(3)
C6 C -0.0804(4) -0.3277(3) 0.2874(3)
C7 C -0.2473(5) 0.5196(4) 0.7221(3)
H11 H -0.3642 0.4257 0.7456
H12 H -0.2882 0.5967 0.6776
H13 H -0.1847 0.4701 0.6462
Cu1_2 Cu 0.5000 0.0000 1.0000
Cu1_3 Cu -0.5000 0.0000 1.0000
Cu2_2 Cu 0.0000 -0.5000 0.0000
Cu2_3 Cu -1.0000 -0.5000 0.0000
O1A O 0.2709(3) -0.0360(2) 0.8404(2)
O1A_2 O -0.7291(3) -0.0360(2) -0.1596(2)
N1A N -0.3436(3) -0.0330(3) -0.1690(3)
H1A H -0.2335 0.0732 -0.1722
H2A H -0.2880 -0.1072 -0.1355
O2A O 0.3002(3) 0.2348(3) 0.8915(2)
O3A O 0.2011(3) 0.4659(2) 0.6862(2)
O4A O -0.0313(3) 0.3118(2) 0.8181(2)
O4_2 O 0.0313(3) 0.6882(2) 1.1819(2)
N2A N 0.1037(3) 0.3801(3) 1.1316(3)
H3A H 0.1786 0.3360 1.0561
H4A H -0.0019 0.3038 1.1563
O5A O -0.3346(3) 0.3099(2) 0.0349(2)
O5A_2 O -0.3346(3) 0.3099(2) 1.0349(2)
O5_2 O 0.3346(3) 0.6901(2) 0.9651(2)
H5A H -0.4450 0.3040 -0.0138
H5A_2 H -0.4450 0.3040 0.9862
H5_2 H 0.4450 0.6960 1.0138
H6A H -0.3056 0.3815 0.1322
H6A_2 H -0.3056 0.3815 1.1322
H6_2 H 0.3056 0.6185 0.8678
C1A C -0.4419(4) -0.1206(4) -0.3327(3)
H7A H -0.4893 -0.0473 -0.3771
H8A H -0.3468 -0.1405 -0.3949
H9A H -0.5548 -0.2323 -0.3349
C2A C 0.2343(4) 0.0849(3) 0.8079(3)
C3A C 0.1063(4) 0.0409(3) 0.6508(3)
C4A C 0.0591(4) -0.1163(3) 0.5454(3)
H10A H 0.0993 -0.1966 0.5768
C5A C 0.0462(4) 0.1581(3) 0.6054(3)
C6A C 0.0804(4) 0.3277(3) 0.7126(3)
C7A C 0.2473(5) 0.4804(4) 1.2779(3)
H11A H 0.3642 0.5743 1.2544
H12A H 0.2882 0.4033 1.3224
H13A H 0.1847 0.5299 1.3538
loop_
_geom_bond_atom_site_label_1
_geom_bond_atom_site_label_2
_geom_bond_site_symmetry_1
_geom_bond_site_symmetry_2
Cu1 O1 1_555 1_555
Cu2 N2 1_555 1_555
O1 C2 1_555 1_555
N1 Cu1 1_555 1_555
H1 N1 1_555 1_555
H2 N1 1_555 1_555
O2 C2 1_555 1_555
O3 C6 1_555 1_555
O4 C6 1_555 1_555
N2 H3 1_555 1_555
H4 N2 1_555 1_555
O5 Cu1 1_555 1_555
H5 O5 1_555 1_555
H6 O5 1_555 1_555
C1 N1 1_555 1_555
H7 C1 1_555 1_555
H8 C1 1_555 1_555
H9 C1 1_555 1_555
C2 C3 1_555 1_555
C3 C4 1_555 1_555
C4 H10 1_555 1_555
C5 C3 1_555 1_555
C6 C5 1_555 1_555
C7 N2 1_555 1_555
H11 C7 1_555 1_555
H12 C7 1_555 1_555
H13 C7 1_555 1_555
Cu1_2 O1A 1_555 1_555
Cu1_3 O5A_2 1_555 1_555
Cu2_2 O4 1_555 1_555
Cu2_3 O5 1_555 1_555
O1A C2A 1_555 1_555
O1A_2 Cu1 1_555 1_555
N1A Cu1 1_555 1_555
H1A N1A 1_555 1_555
H2A N1A 1_555 1_555
O2A C2A 1_555 1_555
O3A C6A 1_555 1_555
O4A Cu2 1_555 1_555
O4_2 Cu2 1_555 1_555
N2A Cu2 1_555 1_555
H3A N2A 1_555 1_555
H4A N2A 1_555 1_555
O5A Cu1 1_555 1_555
O5A_2 Cu2 1_555 1_555
O5_2 Cu2 1_555 1_555
H5A O5A 1_555 1_555
H5A_2 O5A_2 1_555 1_555
H5_2 O5_2 1_555 1_555
H6A O5A 1_555 1_555
H6A_2 O5A_2 1_555 1_555
H6_2 O5_2 1_555 1_555
C1A N1A 1_555 1_555
H7A C1A 1_555 1_555
H8A C1A 1_555 1_555
H9A C1A 1_555 1_555
C2A C3A 1_555 1_555
C3A C4A 1_555 1_555
C4A C5 1_555 1_555
H10A C4A 1_555 1_555
C5A C4 1_555 1_555
C6A O4A 1_555 1_555
C7A N2A 1_555 1_555
H11A C7A 1_555 1_555
H12A C7A 1_555 1_555
H13A C7A 1_555 1_555
C3A C5A 1_555 1_555
C5A C6A 1_555 1_555

#END
