
#######################################################################
#
#                 Cambridge Crystallographic Data Centre
#                                CCDC 
#
#######################################################################
#
# If this CIF has been generated from an entry in the Cambridge 
# Structural Database, then it will include bibliographic, chemical, 
# crystal, experimental, refinement or atomic coordinate data resulting 
# from the CCDC's data processing and validation procedures.
#
#######################################################################

data_XOKBEG
_symmetry_cell_setting           monoclinic
_symmetry_space_group_name_H-M   'P 21/c'
_symmetry_Int_Tables_number      14
_space_group_name_Hall           '-P 2ybc'
loop_
_symmetry_equiv_pos_site_id
_symmetry_equiv_pos_as_xyz
1 x,y,z
2 -x,1/2+y,1/2-z
3 -x,-y,-z
4 x,1/2-y,1/2+z
_cell_length_a                   12.4801(13)
_cell_length_b                   7.311(2)
_cell_length_c                   25.671(7)
_cell_angle_alpha                90
_cell_angle_beta                 92.860(17)
_cell_angle_gamma                90
_cell_volume                     2339.36
loop_
_atom_site_label
_atom_site_type_symbol
_atom_site_fract_x
_atom_site_fract_y
_atom_site_fract_z
K1 K 0.98958(7) 0.56452(14) 0.24707(4)
Al1 Al 0.78733(9) 0.83577(19) 0.18308(5)
O1 O 0.8273(2) 0.8538(5) 0.25164(10)
O2 O 0.9295(2) 0.8486(5) 0.17108(10)
O3 O 0.6140(2) 0.8349(6) 0.25238(13)
O4 O 1.1356(2) 0.7997(5) 0.18828(12)
O5 O 0.9531(2) 0.8023(5) 0.33554(10)
O6 O 0.8326(3) 0.8276(6) 0.07662(12)
C1 C 0.7806(3) 0.8147(6) 0.29594(15)
C2 C 0.8441(3) 0.7874(6) 0.34120(16)
C3 C 0.7972(4) 0.7459(8) 0.38805(18)
H1 H 0.8398 0.7256 0.4183
C4 C 0.6877(5) 0.7355(10) 0.3889(2)
H2 H 0.6567 0.7095 0.4202
C5 C 0.6221(4) 0.7624(8) 0.3449(2)
H3 H 0.5480 0.7539 0.3463
C6 C 0.6688(3) 0.8020(7) 0.29869(17)
C7 C 0.5003(4) 0.8249(9) 0.2505(3)
H4 H 0.4727 0.8507 0.2157
H5 H 0.4727 0.9128 0.2741
H6 H 0.4786 0.7043 0.2603
C8 C 0.9874(3) 0.8110(6) 0.12976(15)
C9 C 0.9406(4) 0.7959(7) 0.07937(16)
C10 C 1.0012(4) 0.7547(7) 0.03734(17)
H7 H 0.9693 0.7439 0.0040
C11 C 1.1103(4) 0.7300(8) 0.0460(2)
H8 H 1.1519 0.7040 0.0178
C12 C 1.1595(4) 0.7426(8) 0.0952(2)
H9 H 1.2330 0.7246 0.1003
C13 C 1.0968(3) 0.7829(6) 0.13720(17)
C14 C 0.7761(5) 0.8111(11) 0.0279(2)
H10 H 0.7017 0.8380 0.0318
H11 H 0.7832 0.6886 0.0151
H12 H 0.8050 0.8955 0.0036
C15 C 1.2503(3) 0.7960(8) 0.1972(2)
H13 H 1.2680 0.8089 0.2338
H14 H 1.2816 0.8949 0.1786
H15 H 1.2778 0.6819 0.1851
C16 C 0.7046(4) 1.0456(7) 0.15752(19)
H16 H 0.6855 1.0295 0.1211
H17 H 0.7468 1.1546 0.1622
H18 H 0.6406 1.0563 0.1766
C17 C 0.7361(4) 0.5882(7) 0.1696(2)
H19 H 0.7145 0.5760 0.1333
H20 H 0.6759 0.5638 0.1904
H21 H 0.7925 0.5027 0.1783
C18 C 1.0213(4) 0.7953(7) 0.38222(17)
H22 H 1.0948 0.8072 0.3734
H23 H 1.0115 0.6805 0.3995
H24 H 1.0031 0.8935 0.4050
K1A K 1.01042(7) 1.06452(14) 0.25293(4)
O1A O 1.1727(2) 0.3538(5) 0.24836(10)
O2A O 1.0705(2) 0.3486(5) 0.32892(10)
O4A O 0.8644(2) 0.2997(5) 0.31172(12)
O5A O 1.0469(2) 0.3023(5) 0.16446(10)
loop_
_geom_bond_atom_site_label_1
_geom_bond_atom_site_label_2
_geom_bond_site_symmetry_1
_geom_bond_site_symmetry_2
K1 O1 1_555 1_555
Al1 O1 1_555 1_555
O1 C1 1_555 1_555
O2 K1 1_555 1_555
O3 C6 1_555 1_555
O4 K1 1_555 1_555
O5 K1 1_555 1_555
O6 C9 1_555 1_555
C1 C2 1_555 1_555
C2 O5 1_555 1_555
C3 C2 1_555 1_555
H1 C3 1_555 1_555
C4 C3 1_555 1_555
H2 C4 1_555 1_555
C5 C4 1_555 1_555
H3 C5 1_555 1_555
C6 C1 1_555 1_555
C7 O3 1_555 1_555
H4 C7 1_555 1_555
H5 C7 1_555 1_555
H6 C7 1_555 1_555
C8 O2 1_555 1_555
C9 C8 1_555 1_555
C10 C9 1_555 1_555
H7 C10 1_555 1_555
C11 C10 1_555 1_555
H8 C11 1_555 1_555
C12 C11 1_555 1_555
H9 C12 1_555 1_555
C13 O4 1_555 1_555
C14 O6 1_555 1_555
H10 C14 1_555 1_555
H11 C14 1_555 1_555
H12 C14 1_555 1_555
C15 O4 1_555 1_555
H13 C15 1_555 1_555
H14 C15 1_555 1_555
H15 C15 1_555 1_555
C16 Al1 1_555 1_555
H16 C16 1_555 1_555
H17 C16 1_555 1_555
H18 C16 1_555 1_555
C17 Al1 1_555 1_555
H19 C17 1_555 1_555
H20 C17 1_555 1_555
H21 C17 1_555 1_555
C18 O5 1_555 1_555
H22 C18 1_555 1_555
H23 C18 1_555 1_555
H24 C18 1_555 1_555
K1A O1 1_555 1_555
O1A K1 1_555 1_555
O2A K1 1_555 1_555
O4A K1 1_555 1_555
O5A K1 1_555 1_555
Al1 O2 1_555 1_555
O2 K1A 1_555 1_555
O4 K1A 1_555 1_555
O5 K1A 1_555 1_555
C5 C6 1_555 1_555
C8 C13 1_555 1_555
C12 C13 1_555 1_555

#END
