
#######################################################################
#
#                 Cambridge Crystallographic Data Centre
#                                CCDC 
#
#######################################################################
#
# If this CIF has been generated from an entry in the Cambridge 
# Structural Database, then it will include bibliographic, chemical, 
# crystal, experimental, refinement or atomic coordinate data resulting 
# from the CCDC's data processing and validation procedures.
#
#######################################################################

data_XOKDOR
_symmetry_cell_setting           monoclinic
_symmetry_space_group_name_H-M   'P 21/c'
_symmetry_Int_Tables_number      14
_space_group_name_Hall           '-P 2ybc'
loop_
_symmetry_equiv_pos_site_id
_symmetry_equiv_pos_as_xyz
1 x,y,z
2 -x,1/2+y,1/2-z
3 -x,-y,-z
4 x,1/2-y,1/2+z
_cell_length_a                   14.5372(3)
_cell_length_b                   17.6493(3)
_cell_length_c                   16.1490(3)
_cell_angle_alpha                90
_cell_angle_beta                 108.2725(7)
_cell_angle_gamma                90
_cell_volume                     3934.45
loop_
_atom_site_label
_atom_site_type_symbol
_atom_site_fract_x
_atom_site_fract_y
_atom_site_fract_z
Mn1 Mn 0.01004(4) 0.18036(3) 0.17326(4)
Mn2 Mn 0.13174(4) 0.22548(3) 0.36936(4)
Mn3 Mn -0.03699(4) 0.09265(3) 0.32418(4)
O1 O 0.00418(19) 0.18831(14) 0.05656(16)
O2 O -0.0382(2) 0.03214(14) 0.22612(16)
N1 N -0.0386(2) 0.07421(18) 0.1542(2)
O3 O 0.20231(19) 0.29563(14) 0.45158(16)
O4 O 0.06328(18) 0.28058(14) 0.18816(15)
N2 N 0.1170(2) 0.30175(17) 0.27208(19)
O5 O -0.10276(18) 0.01762(14) 0.36326(16)
O6 O 0.10010(17) 0.17971(13) 0.46486(15)
N3 N 0.0190(2) 0.13261(16) 0.44575(19)
O7 O -0.13512(19) 0.21958(15) 0.16104(17)
O8 O -0.16532(19) 0.15194(16) 0.26711(18)
O9 O 0.24824(19) 0.17309(15) 0.34899(18)
O10 O 0.19088(19) 0.14268(15) 0.20646(17)
O11 O 0.03907(18) 0.16562(14) 0.29320(15)
C1 C -0.0432(3) 0.1448(2) -0.0126(3)
C2 C -0.0540(3) 0.1720(3) -0.0957(3)
C3 C -0.0982(3) 0.1287(3) -0.1688(3)
C4 C -0.1326(4) 0.0577(3) -0.1598(3)
C5 C -0.1248(3) 0.0306(3) -0.0781(3)
C6 C -0.0801(3) 0.0732(2) -0.0027(2)
C7 C -0.0727(3) 0.0401(2) 0.0803(3)
C8 C 0.2442(3) 0.3609(2) 0.4390(3)
C9 C 0.3130(4) 0.3934(3) 0.5099(3)
C10 C 0.3554(4) 0.4617(3) 0.5019(4)
C11 C 0.3299(5) 0.4995(3) 0.4235(4)
C12 C 0.2623(4) 0.4693(3) 0.3524(3)
C13 C 0.2191(3) 0.3988(2) 0.3586(3)
C14 C 0.1524(3) 0.3688(2) 0.2789(3)
C15 C -0.1345(3) 0.0211(2) 0.4323(2)
C16 C -0.2112(3) -0.0264(2) 0.4341(3)
C17 C -0.2426(3) -0.0297(3) 0.5063(3)
C18 C -0.1983(4) 0.0143(3) 0.5784(3)
C19 C -0.1246(4) 0.0621(3) 0.5776(3)
C20 C -0.0915(3) 0.0674(2) 0.5051(2)
C21 C -0.0114(3) 0.1174(2) 0.5107(3)
C22 C -0.1898(3) 0.1979(2) 0.2035(3)
C23 C -0.2908(3) 0.2279(3) 0.1779(3)
C24 C -0.3133(4) 0.2958(4) 0.1339(4)
C25 C -0.4068(5) 0.3233(5) 0.1098(4)
C26 C -0.4784(5) 0.2809(6) 0.1270(5)
C27 C -0.4573(4) 0.2142(5) 0.1714(5)
C28 C -0.3627(4) 0.1879(4) 0.1976(4)
C29 C 0.2545(3) 0.1403(2) 0.2803(3)
C30 C 0.3465(3) 0.0963(2) 0.2930(3)
C31 C 0.4235(3) 0.1036(3) 0.3701(3)
C32 C 0.5079(4) 0.0623(4) 0.3818(4)
C33 C 0.5159(4) 0.0137(4) 0.3185(4)
C34 C 0.4401(4) 0.0054(4) 0.2443(4)
C35 C 0.3563(4) 0.0468(3) 0.2304(3)
N4 N 0.3071(3) 0.2972(3) 0.1859(3)
C36 C 0.3622(4) 0.3056(3) 0.2519(4)
C37 C 0.4336(4) 0.3152(4) 0.3375(4)
H1 H 0.4335 0.3670 0.3557
H2 H 0.4967 0.3024 0.3346
H3 H 0.4178 0.2827 0.3787
Na1 Na 0.16683(11) 0.23625(9) 0.08616(10)
H7 H -0.034(3) 0.217(2) -0.105(2)
H8 H -0.102(3) 0.150(2) -0.220(3)
H9 H -0.164(3) 0.029(2) -0.209(3)
H10 H -0.149(3) -0.016(2) -0.070(2)
H11 H -0.096(3) -0.010(2) 0.081(2)
H12 H 0.329(3) 0.367(2) 0.562(3)
H13 H 0.407(4) 0.482(3) 0.552(3)
H14 H 0.355(3) 0.545(2) 0.420(3)
H15 H 0.246(3) 0.493(2) 0.297(3)
H16 H 0.139(3) 0.400(2) 0.227(2)
H17 H -0.234(3) -0.061(2) 0.387(2)
H18 H -0.295(3) -0.067(2) 0.506(2)
H19 H -0.222(3) 0.016(3) 0.626(3)
H20 H -0.095(3) 0.093(2) 0.624(2)
H21 H 0.016(3) 0.141(2) 0.564(3)
H22 H -0.265(4) 0.324(3) 0.121(3)
H23 H -0.417(4) 0.374(3) 0.086(3)
H24 H -0.541(5) 0.301(4) 0.109(4)
H25 H -0.508(4) 0.182(3) 0.185(4)
H26 H -0.347(3) 0.143(2) 0.227(3)
H27 H 0.413(3) 0.144(3) 0.415(3)
H28 H 0.558(4) 0.065(3) 0.435(4)
H29 H 0.577(4) -0.011(3) 0.327(4)
H30 H 0.447(4) -0.025(3) 0.203(3)
H31 H 0.304(3) 0.043(2) 0.176(3)
O3C O 0.20231(19) 0.20437(14) -0.04842(16)
O6C O 0.10010(17) 0.32029(13) -0.03514(15)
Na1C Na 0.16683(11) 0.26375(9) 0.58616(10)
N5 N 0.3396(5) 0.8515(4) 0.0812(6)
C38 C 0.2991(5) 0.7967(5) 0.0729(5)
C39 C 0.2481(4) 0.7273(4) 0.0617(4)
H4 H 0.2915 0.6864 0.0615
H5 H 0.1964 0.7281 0.0074
H6 H 0.2217 0.7204 0.1088
loop_
_geom_bond_atom_site_label_1
_geom_bond_atom_site_label_2
_geom_bond_site_symmetry_1
_geom_bond_site_symmetry_2
Mn1 O1 1_555 1_555
Mn2 O3 1_555 1_555
Mn3 O2 1_555 1_555
O1 C1 1_555 1_555
O2 N1 1_555 1_555
N1 Mn1 1_555 1_555
O3 C8 1_555 1_555
O4 Mn1 1_555 1_555
N2 Mn2 1_555 1_555
O5 Mn3 1_555 1_555
O6 Mn2 1_555 1_555
N3 Mn3 1_555 1_555
O7 Mn1 1_555 1_555
O8 Mn3 1_555 1_555
O9 Mn2 1_555 1_555
O10 C29 1_555 1_555
O11 Mn1 1_555 1_555
C1 C2 1_555 1_555
C2 C3 1_555 1_555
C3 C4 1_555 1_555
C4 C5 1_555 1_555
C5 C6 1_555 1_555
C6 C1 1_555 1_555
C7 N1 1_555 1_555
C8 C9 1_555 1_555
C9 C10 1_555 1_555
C10 C11 1_555 1_555
C11 C12 1_555 1_555
C12 C13 1_555 1_555
C13 C8 1_555 1_555
C14 N2 1_555 1_555
C15 O5 1_555 1_555
C16 C15 1_555 1_555
C17 C16 1_555 1_555
C18 C17 1_555 1_555
C19 C18 1_555 1_555
C20 C15 1_555 1_555
C21 N3 1_555 1_555
C22 O7 1_555 1_555
C23 C22 1_555 1_555
C24 C23 1_555 1_555
C25 C24 1_555 1_555
C26 C25 1_555 1_555
C27 C26 1_555 1_555
C28 C23 1_555 1_555
C29 O9 1_555 1_555
C30 C29 1_555 1_555
C31 C30 1_555 1_555
C32 C31 1_555 1_555
C33 C32 1_555 1_555
C34 C33 1_555 1_555
C35 C30 1_555 1_555
N4 C36 1_555 1_555
C36 C37 1_555 1_555
C37 H1 1_555 1_555
H2 C37 1_555 1_555
H3 C37 1_555 1_555
Na1 O1 1_555 1_555
N5 C38 1_555 1_555
C38 C39 1_555 1_555
C39 H4 1_555 1_555
H5 C39 1_555 1_555
H6 C39 1_555 1_555
H7 C2 1_555 1_555
H8 C3 1_555 1_555
H9 C4 1_555 1_555
H10 C5 1_555 1_555
H11 C7 1_555 1_555
H12 C9 1_555 1_555
H13 C10 1_555 1_555
H14 C11 1_555 1_555
H15 C12 1_555 1_555
H16 C14 1_555 1_555
H17 C16 1_555 1_555
H18 C17 1_555 1_555
H19 C18 1_555 1_555
H20 C19 1_555 1_555
H21 C21 1_555 1_555
H22 C24 1_555 1_555
H23 C25 1_555 1_555
H24 C26 1_555 1_555
H25 C27 1_555 1_555
H26 C28 1_555 1_555
H27 C31 1_555 1_555
H28 C32 1_555 1_555
H29 C33 1_555 1_555
H30 C34 1_555 1_555
H31 C35 1_555 1_555
O3C Na1 1_555 1_555
O6C Na1 1_555 1_555
Na1C O3 1_555 1_555
Mn2 O11 1_555 1_555
Mn3 O11 1_555 1_555
O4 N2 1_555 1_555
O4 Na1 1_555 1_555
O6 N3 1_555 1_555
O6 Na1C 1_555 1_555
O8 C22 1_555 1_555
O10 Na1 1_555 1_555
C6 C7 1_555 1_555
C13 C14 1_555 1_555
C19 C20 1_555 1_555
C20 C21 1_555 1_555
C27 C28 1_555 1_555
C34 C35 1_555 1_555
N4 Na1 1_555 1_555

#END
