
#######################################################################
#
#                 Cambridge Crystallographic Data Centre
#                                CCDC 
#
#######################################################################
#
# If this CIF has been generated from an entry in the Cambridge 
# Structural Database, then it will include bibliographic, chemical, 
# crystal, experimental, refinement or atomic coordinate data resulting 
# from the CCDC's data processing and validation procedures.
#
#######################################################################

data_XOKFIO
_symmetry_cell_setting           triclinic
_symmetry_space_group_name_H-M   'P -1'
_symmetry_Int_Tables_number      2
_space_group_name_Hall           '-P 1'
loop_
_symmetry_equiv_pos_site_id
_symmetry_equiv_pos_as_xyz
1 x,y,z
2 -x,-y,-z
_cell_length_a                   7.6594(5)
_cell_length_b                   8.3378(5)
_cell_length_c                   18.1442(12)
_cell_angle_alpha                90.522(3)
_cell_angle_beta                 91.722(3)
_cell_angle_gamma                107.291(3)
_cell_volume                     1105.67
loop_
_atom_site_label
_atom_site_type_symbol
_atom_site_fract_x
_atom_site_fract_y
_atom_site_fract_z
Ag1 Ag 1.47010(2) 1.32242(2) 0.284138(9)
Mn1 Mn 0.79420(5) 1.18123(5) 0.16651(2)
Mn2 Mn 2.0000 1.5000 0.5000
Cl1 Cl 0.68861(9) 1.41766(7) 0.15749(3)
O1 O 0.6452(2) 1.0558(2) 0.25920(9)
O2 O 2.0732(3) 1.2721(2) 0.47297(11)
N1 N 1.7777(3) 1.4196(3) 0.41596(12)
N2 N 1.0655(3) 1.2284(3) 0.20755(12)
N3 N 0.8487(3) 1.1495(3) 0.04597(11)
N4 N 0.6227(3) 0.9367(2) 0.12831(11)
N5 N 0.5074(3) 0.8341(3) 0.17783(11)
N6 N 0.1923(3) 0.6413(2) 0.41261(11)
C1 C 1.6692(4) 1.3880(3) 0.36938(14)
C2 C 1.2096(4) 1.2541(3) 0.23265(14)
C3 C 0.9578(4) 1.2664(3) 0.00456(15)
C4 C 0.9703(4) 1.2466(3) -0.07081(16)
C5 C 0.8657(4) 1.0994(3) -0.10471(16)
C6 C 0.7533(4) 0.9744(3) -0.06225(14)
C7 C 0.7472(3) 1.0035(3) 0.01271(14)
C8 C 0.6263(3) 0.8807(3) 0.06225(14)
C9 C 0.5315(3) 0.9114(3) 0.24266(14)
C10 C 0.4109(3) 0.8179(3) 0.30150(14)
C11 C 0.2810(4) 0.6648(3) 0.28661(15)
C12 C 0.1746(4) 0.5814(3) 0.34324(15)
C13 C 0.3192(4) 0.7900(3) 0.42649(15)
C14 C 0.4298(4) 0.8817(3) 0.37346(14)
C15 C 0.5221(4) 0.7087(3) 0.03509(16)
C16 C 2.2521(4) 1.2505(4) 0.47797(18)
H1 H 1.031(4) 1.370(4) 0.0297(15)
H2 H 1.040(5) 1.319(4) -0.0945(19)
H3 H 0.874(4) 1.085(3) -0.1577(17)
H4 H 0.680(4) 0.875(4) -0.0861(16)
H5 H 0.264(4) 0.615(4) 0.2390(17)
H6 H 0.081(5) 0.480(4) 0.3345(17)
H7 H 0.329(4) 0.829(3) 0.4723(17)
H8 H 0.520(4) 0.990(4) 0.3861(18)
H9 H 0.449(5) 0.710(4) -0.005(2)
H10 H 0.448(6) 0.650(5) 0.072(2)
H11 H 0.598(6) 0.649(5) 0.020(2)
H12 H 2.022(4) 1.214(4) 0.4467(17)
H13 H 2.340(6) 1.354(6) 0.506(3)
H14 H 2.250(6) 1.147(6) 0.494(3)
H15 H 2.309(5) 1.257(4) 0.430(2)
Ag1A Ag 0.52990(2) 0.67758(2) 0.715862(9)
Mn1A Mn 1.20580(5) 0.81877(5) 0.83349(2)
Cl1A Cl 1.31139(9) 0.58234(7) 0.84251(3)
O1A O 1.3548(2) 0.9442(2) 0.74080(9)
N1A N 0.2223(3) 0.5804(3) 0.58404(12)
N2A N 0.9345(3) 0.7716(3) 0.79245(12)
N3A N 1.1513(3) 0.8505(3) 0.95403(11)
N4A N 1.3773(3) 1.0633(2) 0.87169(11)
N5A N 1.4926(3) 1.1659(3) 0.82217(11)
N6A N 1.8077(3) 1.3587(2) 0.58739(11)
C1A C 0.3308(4) 0.6120(3) 0.63062(14)
C2A C 0.7904(4) 0.7459(3) 0.76735(14)
C3A C 1.0422(4) 0.7336(3) 0.99544(15)
C4A C 1.0297(4) 0.7534(3) 1.07081(16)
C5A C 1.1343(4) 0.9006(3) 1.10471(16)
C6A C 1.2467(4) 1.0256(3) 1.06225(14)
C7A C 1.2528(3) 0.9965(3) 0.98729(14)
C8A C 1.3737(3) 1.1193(3) 0.93775(14)
C9A C 1.4685(3) 1.0886(3) 0.75734(14)
C10A C 1.5891(3) 1.1821(3) 0.69850(14)
C11A C 1.7190(4) 1.3352(3) 0.71339(15)
C12A C 1.8254(4) 1.4186(3) 0.65676(15)
C13A C 1.6808(4) 1.2100(3) 0.57351(15)
C14A C 1.5702(4) 1.1183(3) 0.62654(14)
C15A C 1.4779(4) 1.2913(3) 0.96491(16)
H1A H 0.969(4) 0.630(4) 0.9703(15)
H2A H 0.960(5) 0.681(4) 1.0945(19)
H3A H 1.126(4) 0.915(3) 1.1577(17)
H4A H 1.320(4) 1.125(4) 1.0861(16)
H5A H 1.736(4) 1.385(4) 0.7610(17)
H6A H 1.919(5) 1.520(4) 0.6655(17)
H7A H 1.671(4) 1.171(3) 0.5277(17)
H8A H 1.480(4) 1.010(4) 0.6139(18)
H9A H 1.551(5) 1.290(4) 1.005(2)
H10A H 1.552(6) 1.350(5) 0.928(2)
H11A H 1.402(6) 1.351(5) 0.980(2)
O2A O 1.9268(3) 1.7279(2) 0.52703(11)
C16A C 1.7479(4) 1.7495(4) 0.52203(18)
H12A H 1.978(4) 1.786(4) 0.5533(17)
H13A H 1.660(6) 1.646(6) 0.494(3)
H14A H 1.750(6) 1.853(6) 0.506(3)
H15A H 1.691(5) 1.743(4) 0.570(2)
Ag1_2 Ag 0.47010(2) 1.32242(2) 0.284138(9)
Ag1A_2 Ag 1.52990(2) 0.67758(2) 0.715862(9)
Mn2_2 Mn 0.0000 0.5000 0.5000
Cl1_2 Cl 1.68861(9) 1.41766(7) 0.15749(3)
Cl1A_2 Cl 0.31139(9) 0.58234(7) 0.84251(3)
N1A_2 N 2.2223(3) 1.5804(3) 0.58404(12)
N6_2 N 2.1923(3) 1.6413(2) 0.41261(11)
O3 O 0.8814(3) 1.0472(2) 0.37457(11)
C17 C 0.9321(5) 0.9055(4) 0.34970(19)
H16 H 0.822(5) 1.065(4) 0.3466(19)
H17 H 0.830(6) 0.816(5) 0.332(2)
H18 H 0.975(5) 0.859(5) 0.392(2)
H19 H 1.014(5) 0.926(4) 0.311(2)
loop_
_geom_bond_atom_site_label_1
_geom_bond_atom_site_label_2
_geom_bond_site_symmetry_1
_geom_bond_site_symmetry_2
Ag1 C1 1_555 1_555
Mn1 Cl1 1_555 1_555
Mn2 O2 1_555 1_555
Cl1 Ag1_2 1_555 1_555
O1 Mn1 1_555 1_555
O2 C16 1_555 1_555
N1 Mn2 1_555 1_555
N2 Mn1 1_555 1_555
N3 Mn1 1_555 1_555
N4 Mn1 1_555 1_555
N5 N4 1_555 1_555
N6 C12 1_555 1_555
C1 N1 1_555 1_555
C2 Ag1 1_555 1_555
C3 N3 1_555 1_555
C4 C3 1_555 1_555
C5 C4 1_555 1_555
C6 C5 1_555 1_555
C7 N3 1_555 1_555
C8 N4 1_555 1_555
C9 O1 1_555 1_555
C10 C9 1_555 1_555
C11 C10 1_555 1_555
C12 C11 1_555 1_555
C13 N6 1_555 1_555
C14 C10 1_555 1_555
C15 C8 1_555 1_555
C16 H13 1_555 1_555
H1 C3 1_555 1_555
H2 C4 1_555 1_555
H3 C5 1_555 1_555
H4 C6 1_555 1_555
H5 C11 1_555 1_555
H6 C12 1_555 1_555
H7 C13 1_555 1_555
H8 C14 1_555 1_555
H9 C15 1_555 1_555
H10 C15 1_555 1_555
H11 C15 1_555 1_555
H12 O2 1_555 1_555
H14 C16 1_555 1_555
H15 C16 1_555 1_555
O3 C17 1_555 1_555
C17 H17 1_555 1_555
H16 O3 1_555 1_555
H18 C17 1_555 1_555
H19 C17 1_555 1_555
Ag1A C1A 1_555 1_555
Mn1A Cl1A 1_555 1_555
Cl1A Ag1A_2 1_555 1_555
O1A Mn1A 1_555 1_555
N1A C1A 1_555 1_555
N2A Mn1A 1_555 1_555
N3A Mn1A 1_555 1_555
N4A Mn1A 1_555 1_555
N5A N4A 1_555 1_555
N6A Mn2 1_555 1_555
C2A Ag1A 1_555 1_555
C3A N3A 1_555 1_555
C4A C3A 1_555 1_555
C5A C4A 1_555 1_555
C6A C5A 1_555 1_555
C7A N3A 1_555 1_555
C8A N4A 1_555 1_555
C9A O1A 1_555 1_555
C10A C9A 1_555 1_555
C11A C10A 1_555 1_555
C12A N6A 1_555 1_555
C13A N6A 1_555 1_555
C14A C10A 1_555 1_555
C15A C8A 1_555 1_555
H1A C3A 1_555 1_555
H2A C4A 1_555 1_555
H3A C5A 1_555 1_555
H4A C6A 1_555 1_555
H5A C11A 1_555 1_555
H6A C12A 1_555 1_555
H7A C13A 1_555 1_555
H8A C14A 1_555 1_555
H9A C15A 1_555 1_555
H10A C15A 1_555 1_555
H11A C15A 1_555 1_555
O2A Mn2 1_555 1_555
C16A O2A 1_555 1_555
H12A O2A 1_555 1_555
H13A C16A 1_555 1_555
H14A C16A 1_555 1_555
H15A C16A 1_555 1_555
Mn2_2 N6 1_555 1_555
Cl1_2 Ag1 1_555 1_555
Cl1A_2 Ag1A 1_555 1_555
N1A_2 Mn2 1_555 1_555
N6_2 Mn2 1_555 1_555
N2 C2 1_555 1_555
N5 C9 1_555 1_555
C6 C7 1_555 1_555
C7 C8 1_555 1_555
C13 C14 1_555 1_555
N1A Mn2_2 1_555 1_555
N2A C2A 1_555 1_555
N5A C9A 1_555 1_555
C6A C7A 1_555 1_555
C7A C8A 1_555 1_555
C11A C12A 1_555 1_555
C13A C14A 1_555 1_555

#END
