
#######################################################################
#
#                 Cambridge Crystallographic Data Centre
#                                CCDC 
#
#######################################################################
#
# If this CIF has been generated from an entry in the Cambridge 
# Structural Database, then it will include bibliographic, chemical, 
# crystal, experimental, refinement or atomic coordinate data resulting 
# from the CCDC's data processing and validation procedures.
#
#######################################################################

data_XOKFUA
_symmetry_cell_setting           monoclinic
_symmetry_space_group_name_H-M   'P 21/n'
_symmetry_Int_Tables_number      14
_space_group_name_Hall           '-P 2yn'
loop_
_symmetry_equiv_pos_site_id
_symmetry_equiv_pos_as_xyz
1 x,y,z
2 1/2-x,1/2+y,1/2-z
3 -x,-y,-z
4 1/2+x,1/2-y,1/2+z
_cell_length_a                   12.977(5)
_cell_length_b                   20.255(5)
_cell_length_c                   21.995(5)
_cell_angle_alpha                90
_cell_angle_beta                 97.708(5)
_cell_angle_gamma                90
_cell_volume                     5729.13
loop_
_atom_site_label
_atom_site_type_symbol
_atom_site_fract_x
_atom_site_fract_y
_atom_site_fract_z
Na1 Na 0.4222(4) 0.6479(2) 0.2790(3)
Ag1 Ag 0.79942(4) 1.16791(2) 0.17938(3)
Ag2 Ag 0.76756(4) 1.03626(2) 0.30519(2)
Ag3 Ag 0.73623(4) 0.86135(2) 0.36894(2)
Ag4 Ag 0.93569(4) 0.80665(2) 0.46380(2)
P1 P 0.90330(10) 0.81896(6) 0.11880(6)
Mo1 Mo 1.11366(4) 0.91227(2) 0.07364(2)
Mo2 Mo 1.08914(4) 0.88443(2) 0.23775(2)
Mo3 Mo 0.89983(4) 0.99169(2) 0.14417(2)
Mo4 Mo 0.71892(4) 0.89471(2) 0.20192(2)
Mo5 Mo 0.70065(4) 0.92301(2) 0.04827(2)
Mo6 Mo 0.71884(4) 0.74641(2) 0.00567(2)
Mo7 Mo 0.89328(4) 0.64517(2) 0.09088(2)
Mo8 Mo 0.69686(4) 0.71911(2) 0.15586(2)
Mo9 Mo 0.91532(3) 0.86605(2) -0.03484(2)
Mo10 Mo 1.08891(4) 0.75036(2) 0.02924(2)
Mo11 Mo 1.10707(4) 0.72173(2) 0.19689(2)
Mo12 Mo 0.91256(4) 0.77310(2) 0.27514(2)
C1 C 0.5387(4) 1.0581(2) 0.2290(3)
C2 C 0.4936(5) 1.0823(3) 0.1717(3)
C3 C 0.4781(5) 1.0267(3) 0.2686(3)
H1 H 0.5071 1.0102 0.3066
C4 C 0.3743(5) 1.0214(3) 0.2484(3)
H2 H 0.3312 1.0010 0.2733
C5 C 0.3311(5) 1.0462(3) 0.1909(3)
H3 H 0.2599 1.0414 0.1793
C6 C 0.9797(4) 1.0026(3) 0.3946(3)
C7 C 1.0175(5) 0.9508(3) 0.4326(3)
C8 C 1.0397(5) 1.0589(3) 0.3884(3)
H4 H 1.0147 1.0939 0.3634
C9 C 1.1363(5) 1.0598(3) 0.4210(4)
H5 H 1.1793 1.0958 0.4168
C10 C 1.1739(5) 1.0082(3) 0.4610(4)
H6 H 1.2394 1.0119 0.4838
C11 C 1.1162(5) 0.9531(3) 0.4667(3)
H7 H 1.1414 0.9185 0.4922
C12 C 0.9101(4) 0.7039(3) 0.5663(3)
C13 C 0.9117(4) 0.6361(3) 0.5773(3)
C14 C 0.8997(5) 0.7479(3) 0.6142(3)
H8 H 0.8988 0.7933 0.6080
C15 C 0.8910(5) 0.7216(3) 0.6700(3)
H9 H 0.8826 0.7498 0.7023
C16 C 0.8943(5) 0.6535(4) 0.6808(3)
H10 H 0.8891 0.6379 0.7201
C17 C 0.9048(5) 0.6094(3) 0.6355(3)
H11 H 0.9074 0.5642 0.6426
C18 C 0.3869(5) 1.0765(3) 0.1516(3)
H12 H 0.3567 1.0925 0.1137
C19 C 0.4309(5) 0.7815(4) 0.3442(3)
C20 C 0.4786(6) 0.8874(4) 0.3909(3)
H13 H 0.5281 0.9193 0.4042
C21 C 0.5055(5) 0.8287(3) 0.3641(3)
C22 C 0.3763(8) 0.8960(5) 0.3968(4)
H14 H 0.3554 0.9344 0.4148
C23 C 0.3033(7) 0.8490(6) 0.3766(4)
H15 H 0.2345 0.8574 0.3816
C24 C 0.3248(6) 0.7912(5) 0.3500(3)
H16 H 0.2737 0.7603 0.3366
N1 N 0.6627(4) 1.1031(2) 0.1856(2)
N2 N 0.6423(4) 1.0723(2) 0.2356(2)
N3 N 0.8819(4) 0.9859(2) 0.3689(2)
N4 N 0.8617(4) 0.9264(2) 0.3909(2)
N5 N 0.9189(4) 0.7135(2) 0.5065(2)
N6 N 0.9245(5) 0.6563(2) 0.4795(2)
N7 N 0.9429(4) 0.9034(2) 0.4293(2)
N8 N 0.9198(4) 0.6098(2) 0.5220(2)
H17 H 0.9218 0.5681 0.5149
N9 N 0.5742(4) 1.1089(2) 0.1477(2)
H18 H 0.5691 1.1273 0.1122
N10 N 0.5991(4) 0.8045(3) 0.3533(2)
N11 N 0.5845(4) 0.7462(3) 0.3280(2)
N12 N 0.4838(4) 0.7311(3) 0.3216(2)
O1 O 0.6273(3) 0.72960(19) -0.05391(17)
O2 O 0.9236(3) 1.07134(17) 0.16446(19)
O3 O 0.9138(3) 0.56510(18) 0.07752(18)
O4 O 0.9913(3) 0.66572(16) 0.15603(16)
O5 O 0.7815(3) 0.64148(17) 0.13538(16)
O6 O 0.7884(3) 0.66724(17) 0.01884(16)
O7 O 0.9882(3) 0.68963(17) 0.04011(16)
O8 O 1.1789(3) 0.70596(19) -0.00071(18)
O9 O 1.1324(3) 0.73980(17) 0.11893(16)
O10 O 1.0187(3) 0.79217(17) -0.03802(16)
O11 O 1.1671(3) 0.83519(17) 0.04635(17)
O12 O 0.8327(3) 0.75980(15) 0.10111(15)
O13 O 0.8892(3) 0.88336(19) -0.11002(16)
O14 O 0.9733(3) 0.83099(16) 0.06912(14)
O15 O 0.8166(3) 0.91277(16) -0.00119(16)
O16 O 0.9985(3) 0.97067(16) 0.09716(16)
O17 O 1.1356(3) 0.89440(17) 0.15594(16)
O18 O 0.8360(3) 0.88004(15) 0.12554(15)
O19 O 0.9708(3) 0.80505(16) 0.18013(15)
O20 O 1.1623(3) 0.79798(17) 0.23366(16)
O21 O 0.9903(3) 0.94660(17) 0.21118(16)
O22 O 0.7880(3) 0.99818(16) 0.08288(16)
O23 O 0.8187(3) 0.78959(17) -0.02894(16)
O24 O 0.6400(3) 0.71927(17) 0.07482(16)
O25 O 0.8122(3) 0.72684(16) 0.22589(16)
O26 O 0.6709(3) 0.80585(17) 0.17161(16)
O27 O 0.6446(3) 0.92303(17) 0.12062(16)
O28 O 0.7937(3) 0.97211(16) 0.20058(16)
O29 O 0.8169(3) 0.84983(17) 0.25413(16)
O30 O 0.6309(3) 0.91411(18) 0.24853(18)
O31 O 0.8834(3) 0.75607(18) 0.34613(16)
O32 O 1.0195(3) 0.71703(17) 0.26621(16)
O33 O 0.6729(3) 0.83660(17) 0.02868(16)
O34 O 0.6111(3) 0.67650(18) 0.19200(17)
O35 O 1.1792(3) 0.92868(19) 0.28175(18)
O36 O 1.0159(3) 0.84435(17) 0.29443(16)
O37 O 1.1976(3) 0.66550(19) 0.22134(19)
O38 O 0.6118(3) 0.96564(18) 0.00053(17)
O39 O 1.0275(3) 0.91863(16) -0.00835(16)
O40 O 1.2065(3) 0.96683(18) 0.06483(17)
O41 O 0.7675(5) 1.1363(3) 0.0715(3)
Ag1A Ag 0.70058(4) 0.66791(2) 0.32062(3)
Ag2A Ag 0.73244(4) 0.53626(2) 0.19481(2)
Ag4C Ag 0.43569(4) 0.69335(2) -0.03620(2)
N11A N 0.9155(4) 1.2462(3) 0.1720(2)
O1C O 1.1273(3) 0.77040(19) 0.44609(17)
O5A O 0.7185(3) 1.14148(17) 0.36462(16)
Na2? Na 0.4040(5) 0.6208(4) 0.2508(3)
loop_
_geom_bond_atom_site_label_1
_geom_bond_atom_site_label_2
_geom_bond_site_symmetry_1
_geom_bond_site_symmetry_2
Ag1 N1 1_555 1_555
Ag2 N2 1_555 1_555
Ag3 N4 1_555 1_555
Ag4 N5 1_555 1_555
P1 O12 1_555 1_555
Mo1 O11 1_555 1_555
Mo2 O17 1_555 1_555
Mo3 O2 1_555 1_555
Mo4 O18 1_555 1_555
Mo5 O15 1_555 1_555
Mo6 O1 1_555 1_555
Mo7 O3 1_555 1_555
Mo8 O5 1_555 1_555
Mo9 O10 1_555 1_555
Mo10 O7 1_555 1_555
Mo11 O4 1_555 1_555
Mo12 O19 1_555 1_555
C1 C2 1_555 1_555
C2 C18 1_555 1_555
C3 C1 1_555 1_555
H1 C3 1_555 1_555
C4 C3 1_555 1_555
H2 C4 1_555 1_555
C5 C4 1_555 1_555
H3 C5 1_555 1_555
C6 C7 1_555 1_555
C7 C11 1_555 1_555
C8 C6 1_555 1_555
H4 C8 1_555 1_555
C9 C8 1_555 1_555
H5 C9 1_555 1_555
C10 C9 1_555 1_555
H6 C10 1_555 1_555
C11 C10 1_555 1_555
H7 C11 1_555 1_555
C12 C13 1_555 1_555
C13 C17 1_555 1_555
C14 C12 1_555 1_555
H8 C14 1_555 1_555
C15 C14 1_555 1_555
H9 C15 1_555 1_555
C16 C15 1_555 1_555
H10 C16 1_555 1_555
C17 C16 1_555 1_555
H11 C17 1_555 1_555
C18 C5 1_555 1_555
H12 C18 1_555 1_555
C19 C21 1_555 1_555
C20 H13 1_555 1_555
C21 C20 1_555 1_555
C22 C20 1_555 1_555
H14 C22 1_555 1_555
C23 C22 1_555 1_555
H15 C23 1_555 1_555
C24 C19 1_555 1_555
H16 C24 1_555 1_555
N1 N2 1_555 1_555
N2 C1 1_555 1_555
N3 Ag2 1_555 1_555
N4 N3 1_555 1_555
N5 C12 1_555 1_555
N6 N5 1_555 1_555
N7 Ag4 1_555 1_555
N8 C13 1_555 1_555
H17 N8 1_555 1_555
N9 C2 1_555 1_555
H18 N9 1_555 1_555
N10 Ag3 1_555 1_555
N11 N10 1_555 1_555
N12 C19 1_555 1_555
O1 Ag4C 1_555 1_555
O2 Ag1 1_555 1_555
O4 Mo7 1_555 1_555
O5 Mo7 1_555 1_555
O6 Mo6 1_555 1_555
O7 Mo7 1_555 1_555
O8 Mo10 1_555 1_555
O9 Mo10 1_555 1_555
O10 Mo10 1_555 1_555
O11 Mo10 1_555 1_555
O12 Mo6 1_555 1_555
O13 Mo9 1_555 1_555
O14 P1 1_555 1_555
O15 Mo9 1_555 1_555
O16 Mo1 1_555 1_555
O17 Mo1 1_555 1_555
O18 P1 1_555 1_555
O19 P1 1_555 1_555
O20 Mo2 1_555 1_555
O21 Mo2 1_555 1_555
O22 Mo3 1_555 1_555
O23 Mo6 1_555 1_555
O24 Mo6 1_555 1_555
O25 Mo8 1_555 1_555
O26 Mo4 1_555 1_555
O27 Mo4 1_555 1_555
O28 Ag2 1_555 1_555
O29 Mo4 1_555 1_555
O30 Mo4 1_555 1_555
O31 Mo12 1_555 1_555
O32 Mo11 1_555 1_555
O33 Mo5 1_555 1_555
O34 Mo8 1_555 1_555
O35 Mo2 1_555 1_555
O36 Mo2 1_555 1_555
O37 Mo11 1_555 1_555
O38 Mo5 1_555 1_555
O39 Mo1 1_555 1_555
O40 Mo1 1_555 1_555
O41 Ag1 1_555 1_555
Ag1A N11 1_555 1_555
Ag2A O5 1_555 1_555
N11A Ag1 1_555 1_555
O1C Ag4 1_555 1_555
O5A Ag2 1_555 1_555
Mo1 O14 1_555 1_555
Mo2 O19 1_555 1_555
Mo3 O16 1_555 1_555
Mo3 O18 1_555 1_555
Mo3 O21 1_555 1_555
Mo3 O28 1_555 1_555
Mo4 O28 1_555 1_555
Mo5 O18 1_555 1_555
Mo5 O22 1_555 1_555
Mo5 O27 1_555 1_555
Mo6 O33 1_555 1_555
Mo7 O6 1_555 1_555
Mo7 O12 1_555 1_555
Mo8 O12 1_555 1_555
Mo8 O24 1_555 1_555
Mo8 O26 1_555 1_555
Mo9 O14 1_555 1_555
Mo9 O23 1_555 1_555
Mo9 O39 1_555 1_555
Mo10 O14 1_555 1_555
Mo11 O9 1_555 1_555
Mo11 O19 1_555 1_555
Mo11 O20 1_555 1_555
Mo12 O25 1_555 1_555
Mo12 O29 1_555 1_555
Mo12 O32 1_555 1_555
Mo12 O36 1_555 1_555
C6 N3 1_555 1_555
C7 N7 1_555 1_555
C21 N10 1_555 1_555
C23 C24 1_555 1_555
N1 N9 1_555 1_555
N4 N7 1_555 1_555
N6 N8 1_555 1_555
N11 N12 1_555 1_555

#END
