
#######################################################################
#
#                 Cambridge Crystallographic Data Centre
#                                CCDC 
#
#######################################################################
#
# If this CIF has been generated from an entry in the Cambridge 
# Structural Database, then it will include bibliographic, chemical, 
# crystal, experimental, refinement or atomic coordinate data resulting 
# from the CCDC's data processing and validation procedures.
#
#######################################################################

data_XOKGUB
_symmetry_cell_setting           monoclinic
_symmetry_space_group_name_H-M   'P 21'
_symmetry_Int_Tables_number      4
_space_group_name_Hall           'P 2yb'
loop_
_symmetry_equiv_pos_site_id
_symmetry_equiv_pos_as_xyz
1 x,y,z
2 -x,1/2+y,-z
_cell_length_a                   10.372(7)
_cell_length_b                   22.684(14)
_cell_length_c                   18.375(11)
_cell_angle_alpha                90
_cell_angle_beta                 104.440(10)
_cell_angle_gamma                90
_cell_volume                     4186.67
loop_
_atom_site_label
_atom_site_type_symbol
_atom_site_fract_x
_atom_site_fract_y
_atom_site_fract_z
Zn1 Zn 0.57963(19) 0.75774(8) 0.21471(12)
O1 O 0.2362(12) 0.9400(6) 0.3637(8)
O2 O 0.9633(16) 0.7476(10) 0.6837(11)
O3 O 0.7472(14) 0.7496(8) 0.6456(7)
N1 N 0.7267(14) 0.7011(6) 0.2140(10)
N2 N 0.4496(13) 0.7101(6) 0.1338(9)
N3 N 0.4180(14) 0.7990(7) 0.2333(9)
N4 N 0.6983(13) 0.7920(6) 0.3218(7)
N5 N 1.3480(14) 0.3243(6) -0.1519(9)
C1 C 0.8601(17) 0.7043(7) 0.2589(12)
C2 C 0.9425(17) 0.6644(8) 0.2260(12)
C3 C 0.8592(18) 0.6352(8) 0.1698(11)
C4 C 0.7240(17) 0.6573(7) 0.1615(9)
C5 C 0.6085(19) 0.6401(8) 0.1109(12)
H1 H 0.6180 0.6057 0.0832
C6 C 0.4832(17) 0.6629(7) 0.0930(11)
C7 C 0.3630(19) 0.6411(9) 0.0370(11)
C8 C 0.2609(18) 0.6741(9) 0.0410(12)
C9 C 0.3108(18) 0.7163(8) 0.1052(12)
C10 C 0.2397(16) 0.7553(10) 0.1294(9)
H2 H 0.1466 0.7549 0.1071
C11 C 0.2868(17) 0.7988(8) 0.1858(10)
C12 C 0.2091(18) 0.8406(8) 0.2211(14)
C13 C 0.2983(17) 0.8646(8) 0.2856(13)
C14 C 0.4275(19) 0.8372(9) 0.2907(13)
C15 C 0.5243(17) 0.8574(9) 0.3539(11)
C16 C 0.6532(17) 0.8322(8) 0.3671(12)
C17 C 0.7684(15) 0.8454(7) 0.4402(10)
H3 H 0.7687 0.8878 0.4548
C18 C 0.8877(16) 0.8311(8) 0.4087(11)
H4 H 0.9579 0.8112 0.4485
C19 C 0.8271(16) 0.7849(7) 0.3437(11)
C20 C 0.9026(17) 0.7435(8) 0.3169(9)
H5 H 0.9946 0.7421 0.3418
C21 C 1.0887(17) 0.6542(9) 0.2608(14)
H6 H 1.1390 0.6607 0.2228
H7 H 1.1024 0.6136 0.2794
H8 H 1.1197 0.6817 0.3026
C22 C 0.9044(18) 0.5902(7) 0.1287(11)
C23 C 0.9431(18) 0.5558(9) 0.0893(11)
C24 C 0.3649(19) 0.5881(8) -0.0086(10)
H9 H 0.3349 0.5983 -0.0620
H10 H 0.3054 0.5583 0.0037
H11 H 0.4558 0.5724 0.0019
C25 C 0.112(2) 0.6669(12) 0.0019(14)
H12 H 0.0799 0.6294 0.0183
H13 H 0.0618 0.6994 0.0181
C26 C 0.083(3) 0.6672(13) -0.0821(15)
H14 H 0.1384 0.6375 -0.0986
H15 H 0.1036 0.7062 -0.0994
H16 H -0.0110 0.6582 -0.1034
C27 C 0.0549(17) 0.8538(8) 0.1910(11)
H17 H 0.0416 0.8961 0.1808
H18 H 0.0083 0.8419 0.2289
H19 H 0.0196 0.8315 0.1446
C28 C 0.3175(17) 0.9036(8) 0.3450(12)
C29 C 0.4604(15) 0.8989(9) 0.3942(12)
H20 H 0.5055 0.9377 0.3993
H21 H 0.4611 0.8838 0.4449
C30 C 0.7480(17) 0.8048(8) 0.5043(11)
H22 H 0.6604 0.8131 0.5144
H23 H 0.7490 0.7631 0.4888
C31 C 0.8555(18) 0.8150(9) 0.5740(12)
H24 H 0.8428 0.8542 0.5946
H25 H 0.9426 0.8151 0.5610
C32 C 0.858(3) 0.7660(12) 0.6373(13)
C33 C 0.748(3) 0.7040(16) 0.7041(19)
H26 H 0.7175 0.6664 0.6799
H27 H 0.6893 0.7163 0.7355
H28 H 0.8392 0.6995 0.7356
C34 C 0.9468(16) 0.8835(7) 0.3792(11)
H29 H 0.9702 0.9135 0.4186
H30 H 0.8818 0.8997 0.3357
H31 H 1.0270 0.8714 0.3640
C35 C 1.0077(19) 0.5163(8) 0.0447(11)
C36 C 1.1185(17) 0.4804(8) 0.0885(10)
H32 H 1.1425 0.4801 0.1419
C37 C 1.1843(17) 0.4477(7) 0.0472(10)
H33 H 1.2594 0.4259 0.0740
C38 C 1.1514(16) 0.4433(7) -0.0305(10)
C39 C 1.0482(15) 0.4783(8) -0.0689(9)
H34 H 1.0249 0.4780 -0.1222
C40 C 0.9764(18) 0.5145(7) -0.0302(10)
H35 H 0.9049 0.5378 -0.0580
C41 C 1.2227(17) 0.4046(8) -0.0680(10)
C42 C 1.2572(17) 0.3465(8) -0.0420(10)
H36 H 1.2418 0.3328 0.0040
C43 C 1.3160(17) 0.3091(7) -0.0878(11)
H37 H 1.3344 0.2697 -0.0711
C44 C 1.3192(17) 0.3799(7) -0.1766(10)
H38 H 1.3392 0.3931 -0.2216
C45 C 1.2577(17) 0.4188(7) -0.1334(10)
H39 H 1.2394 0.4578 -0.1517
Zn1A Zn 1.42037(19) 0.25774(8) -0.21471(12)
N5A N 0.6520(14) 0.8243(6) 0.1519(9)
Zn2 Zn 0.8914(2) 0.47610(9) 0.27825(14)
O4 O 1.2795(16) 0.3017(8) 0.1494(11)
O5 O 0.5454(17) 0.2051(9) 0.1802(14)
O6 O 0.3965(19) 0.2018(8) 0.0570(11)
N6 N 0.7311(13) 0.5299(6) 0.2701(9)
N7 N 1.0082(15) 0.5317(7) 0.3596(10)
N8 N 1.0621(15) 0.4405(7) 0.2650(10)
N9 N 0.7880(15) 0.4326(7) 0.1754(10)
N10 N 0.1656(14) 0.9117(7) 0.6510(10)
C46 C 0.6096(17) 0.5210(8) 0.2219(10)
C47 C 0.5126(17) 0.5638(7) 0.2438(11)
C48 C 0.5845(18) 0.5949(7) 0.3042(10)
C49 C 0.7232(18) 0.5730(8) 0.3220(13)
C50 C 0.8293(18) 0.5947(10) 0.3780(13)
H40 H 0.8096 0.6267 0.4068
C51 C 0.957(2) 0.5756(9) 0.3960(14)
C52 C 1.068(2) 0.6004(10) 0.4555(15)
C53 C 1.184(2) 0.5686(12) 0.4506(17)
C54 C 1.141(2) 0.5259(10) 0.3933(14)
C55 C 1.228(2) 0.4823(12) 0.3646(16)
H41 H 1.3181 0.4802 0.3927
C56 C 1.195(2) 0.4466(11) 0.3051(14)
C57 C 1.280(2) 0.4083(11) 0.2830(14)
C58 C 1.195(2) 0.3736(10) 0.2232(12)
C59 C 1.065(2) 0.3964(8) 0.2183(14)
C60 C 0.964(2) 0.3719(9) 0.1619(12)
C61 C 0.836(2) 0.3880(8) 0.1352(13)
C62 C 0.724(2) 0.3594(9) 0.0767(16)
H42 H 0.7474 0.3473 0.0292
C63 C 0.619(2) 0.4094(9) 0.0680(14)
H43 H 0.5281 0.3922 0.0634
C64 C 0.6591(17) 0.4433(7) 0.1364(12)
C65 C 0.5769(18) 0.4832(8) 0.1616(10)
H44 H 0.4867 0.4844 0.1333
C66 C 0.3668(16) 0.5683(9) 0.2075(13)
H45 H 0.3462 0.6082 0.1873
H46 H 0.3162 0.5603 0.2449
H47 H 0.3426 0.5396 0.1666
C67 C 0.533(2) 0.6370(9) 0.3458(13)
C68 C 0.4875(19) 0.6705(8) 0.3851(13)
C69 C 1.047(2) 0.6544(9) 0.5074(14)
H48 H 1.0877 0.6900 0.4925
H49 H 1.0899 0.6453 0.5601
H50 H 0.9520 0.6609 0.5016
C70 C 1.322(2) 0.5724(12) 0.5029(16)
H51 H 1.3885 0.5563 0.4776
H52 H 1.3451 0.6141 0.5159
C71 C 1.326(2) 0.5387(11) 0.5712(16)
H53 H 1.2908 0.4990 0.5576
H54 H 1.2710 0.5586 0.6002
H55 H 1.4178 0.5360 0.6015
C72 C 1.4263(19) 0.4020(9) 0.3144(12)
H56 H 1.4724 0.4105 0.2751
H57 H 1.4466 0.3616 0.3326
H58 H 1.4562 0.4297 0.3561
C73 C 0.668(3) 0.3034(9) 0.1244(14)
H59 H 0.7428 0.2783 0.1511
H60 H 0.6230 0.3198 0.1617
C74 C 0.576(3) 0.2700(11) 0.0692(15)
H61 H 0.6266 0.2499 0.0371
H62 H 0.5136 0.2977 0.0367
C75 C 0.493(4) 0.2222(11) 0.100(2)
C76 C 0.318(3) 0.1638(12) 0.0799(17)
H63 H 0.2786 0.1827 0.1174
H64 H 0.3695 0.1293 0.1023
H65 H 0.2462 0.1513 0.0369
C77 C 0.622(2) 0.4441(10) -0.0046(13)
H66 H 0.7129 0.4582 -0.0010
H67 H 0.5614 0.4778 -0.0103
H68 H 0.5944 0.4181 -0.0483
C78 C 0.4387(18) 0.7076(8) 0.4329(13)
C79 C 0.3277(18) 0.7441(8) 0.3977(13)
H69 H 0.2899 0.7407 0.3451
C80 C 0.2717(19) 0.7867(9) 0.4418(12)
H70 H 0.2046 0.8139 0.4183
C81 C 0.3199(18) 0.7854(8) 0.5174(13)
C82 C 0.4254(17) 0.7470(7) 0.5512(11)
H71 H 0.4595 0.7473 0.6042
C83 C 0.4790(18) 0.7092(8) 0.5085(13)
H72 H 0.5475 0.6831 0.5332
C84 C 0.2662(16) 0.8308(8) 0.5652(12)
C85 C 0.2287(17) 0.8885(8) 0.5418(12)
H73 H 0.2363 0.9008 0.4936
C86 C 0.1824(17) 0.9269(9) 0.5844(12)
H74 H 0.1612 0.9659 0.5666
C87 C 0.1925(15) 0.8538(9) 0.6730(11)
H75 H 0.1735 0.8423 0.7189
C88 C 0.2422(15) 0.8125(9) 0.6362(11)
H76 H 0.2608 0.7737 0.6553
C89 C 1.187(2) 0.3277(11) 0.1653(16)
C90 C 1.037(2) 0.3248(9) 0.1237(15)
H77 H 1.0015 0.2849 0.1282
H78 H 1.0251 0.3340 0.0697
Zn2A Zn 0.1086(2) 0.97610(9) 0.72175(14)
N10A N 0.8344(14) 0.4117(7) 0.3490(10)
loop_
_geom_bond_atom_site_label_1
_geom_bond_atom_site_label_2
_geom_bond_site_symmetry_1
_geom_bond_site_symmetry_2
Zn1 N1 1_555 1_555
O1 C28 1_555 1_555
O2 C32 1_555 1_555
O3 C32 1_555 1_555
N1 C1 1_555 1_555
N2 Zn1 1_555 1_555
N3 Zn1 1_555 1_555
N4 Zn1 1_555 1_555
N5 C43 1_555 1_555
C1 C2 1_555 1_555
C2 C3 1_555 1_555
C3 C4 1_555 1_555
C4 N1 1_555 1_555
C5 C4 1_555 1_555
H1 C5 1_555 1_555
C6 N2 1_555 1_555
C7 C6 1_555 1_555
C8 C7 1_555 1_555
C9 N2 1_555 1_555
C10 C9 1_555 1_555
H2 C10 1_555 1_555
C11 N3 1_555 1_555
C12 C11 1_555 1_555
C13 C12 1_555 1_555
C14 N3 1_555 1_555
C15 C14 1_555 1_555
C16 N4 1_555 1_555
C17 C16 1_555 1_555
H3 C17 1_555 1_555
C18 C17 1_555 1_555
H4 C18 1_555 1_555
C19 N4 1_555 1_555
C20 C1 1_555 1_555
H5 C20 1_555 1_555
C21 C2 1_555 1_555
H6 C21 1_555 1_555
H7 C21 1_555 1_555
H8 C21 1_555 1_555
C22 C3 1_555 1_555
C23 C22 1_555 1_555
C24 C7 1_555 1_555
H9 C24 1_555 1_555
H10 C24 1_555 1_555
H11 C24 1_555 1_555
C25 C8 1_555 1_555
H12 C25 1_555 1_555
H13 C25 1_555 1_555
C26 C25 1_555 1_555
H14 C26 1_555 1_555
H15 C26 1_555 1_555
H16 C26 1_555 1_555
C27 C12 1_555 1_555
H17 C27 1_555 1_555
H18 C27 1_555 1_555
H19 C27 1_555 1_555
C28 C13 1_555 1_555
C29 C15 1_555 1_555
H20 C29 1_555 1_555
H21 C29 1_555 1_555
C30 C17 1_555 1_555
H22 C30 1_555 1_555
H23 C30 1_555 1_555
C31 C30 1_555 1_555
H24 C31 1_555 1_555
H25 C31 1_555 1_555
C32 C31 1_555 1_555
C33 O3 1_555 1_555
H26 C33 1_555 1_555
H27 C33 1_555 1_555
H28 C33 1_555 1_555
C34 C18 1_555 1_555
H29 C34 1_555 1_555
H30 C34 1_555 1_555
H31 C34 1_555 1_555
C35 C23 1_555 1_555
C36 C35 1_555 1_555
H32 C36 1_555 1_555
C37 C36 1_555 1_555
H33 C37 1_555 1_555
C38 C37 1_555 1_555
C39 C38 1_555 1_555
H34 C39 1_555 1_555
C40 C35 1_555 1_555
H35 C40 1_555 1_555
C41 C38 1_555 1_555
C42 C41 1_555 1_555
H36 C42 1_555 1_555
C43 C42 1_555 1_555
H37 C43 1_555 1_555
C44 N5 1_555 1_555
H38 C44 1_555 1_555
C45 C41 1_555 1_555
H39 C45 1_555 1_555
Zn2 N6 1_555 1_555
O4 C89 1_555 1_555
O5 C75 1_555 1_555
O6 C75 1_555 1_555
N6 C46 1_555 1_555
N7 Zn2 1_555 1_555
N8 Zn2 1_555 1_555
N9 Zn2 1_555 1_555
N10 C86 1_555 1_555
C46 C47 1_555 1_555
C47 C48 1_555 1_555
C48 C49 1_555 1_555
C49 N6 1_555 1_555
C50 C49 1_555 1_555
H40 C50 1_555 1_555
C51 N7 1_555 1_555
C52 C51 1_555 1_555
C53 C52 1_555 1_555
C54 N7 1_555 1_555
C55 C54 1_555 1_555
H41 C55 1_555 1_555
C56 N8 1_555 1_555
C57 C56 1_555 1_555
C58 C57 1_555 1_555
C59 N8 1_555 1_555
C60 C59 1_555 1_555
C61 N9 1_555 1_555
C62 C61 1_555 1_555
H42 C62 1_555 1_555
C63 C62 1_555 1_555
H43 C63 1_555 1_555
C64 N9 1_555 1_555
C65 C46 1_555 1_555
H44 C65 1_555 1_555
C66 C47 1_555 1_555
H45 C66 1_555 1_555
H46 C66 1_555 1_555
H47 C66 1_555 1_555
C67 C48 1_555 1_555
C68 C67 1_555 1_555
C69 C52 1_555 1_555
H48 C69 1_555 1_555
H49 C69 1_555 1_555
H50 C69 1_555 1_555
C70 C53 1_555 1_555
H51 C70 1_555 1_555
H52 C70 1_555 1_555
C71 C70 1_555 1_555
H53 C71 1_555 1_555
H54 C71 1_555 1_555
H55 C71 1_555 1_555
C72 C57 1_555 1_555
H56 C72 1_555 1_555
H57 C72 1_555 1_555
H58 C72 1_555 1_555
C73 C62 1_555 1_555
H59 C73 1_555 1_555
H60 C73 1_555 1_555
C74 C73 1_555 1_555
H61 C74 1_555 1_555
H62 C74 1_555 1_555
C75 C74 1_555 1_555
C76 O6 1_555 1_555
H63 C76 1_555 1_555
H64 C76 1_555 1_555
H65 C76 1_555 1_555
C77 C63 1_555 1_555
H66 C77 1_555 1_555
H67 C77 1_555 1_555
H68 C77 1_555 1_555
C78 C68 1_555 1_555
C79 C78 1_555 1_555
H69 C79 1_555 1_555
C80 C79 1_555 1_555
H70 C80 1_555 1_555
C81 C80 1_555 1_555
C82 C81 1_555 1_555
H71 C82 1_555 1_555
C83 C78 1_555 1_555
H72 C83 1_555 1_555
C84 C81 1_555 1_555
C85 C84 1_555 1_555
H73 C85 1_555 1_555
C86 C85 1_555 1_555
H74 C86 1_555 1_555
C87 N10 1_555 1_555
H75 C87 1_555 1_555
C88 C84 1_555 1_555
H76 C88 1_555 1_555
C89 C58 1_555 1_555
C90 C60 1_555 1_555
H77 C90 1_555 1_555
H78 C90 1_555 1_555
Zn1A N5 1_555 1_555
N5A Zn1 1_555 1_555
Zn2A N10 1_555 1_555
N10A Zn2 1_555 1_555
C5 C6 1_555 1_555
C8 C9 1_555 1_555
C10 C11 1_555 1_555
C13 C14 1_555 1_555
C15 C16 1_555 1_555
C18 C19 1_555 1_555
C19 C20 1_555 1_555
C28 C29 1_555 1_555
C39 C40 1_555 1_555
C44 C45 1_555 1_555
C50 C51 1_555 1_555
C53 C54 1_555 1_555
C55 C56 1_555 1_555
C58 C59 1_555 1_555
C60 C61 1_555 1_555
C63 C64 1_555 1_555
C64 C65 1_555 1_555
C82 C83 1_555 1_555
C87 C88 1_555 1_555
C89 C90 1_555 1_555

#END
