
#######################################################################
#
#                 Cambridge Crystallographic Data Centre
#                                CCDC 
#
#######################################################################
#
# If this CIF has been generated from an entry in the Cambridge 
# Structural Database, then it will include bibliographic, chemical, 
# crystal, experimental, refinement or atomic coordinate data resulting 
# from the CCDC's data processing and validation procedures.
#
#######################################################################

data_XOKGAH
_symmetry_cell_setting           triclinic
_symmetry_space_group_name_H-M   'P -1'
_symmetry_Int_Tables_number      2
_space_group_name_Hall           '-P 1'
loop_
_symmetry_equiv_pos_site_id
_symmetry_equiv_pos_as_xyz
1 x,y,z
2 -x,-y,-z
_cell_length_a                   11.396(5)
_cell_length_b                   11.792(5)
_cell_length_c                   13.376(5)
_cell_angle_alpha                65.249(5)
_cell_angle_beta                 80.299(5)
_cell_angle_gamma                61.303(5)
_cell_volume                     1430.67
loop_
_atom_site_label
_atom_site_type_symbol
_atom_site_fract_x
_atom_site_fract_y
_atom_site_fract_z
Mo1 Mo 0.67612(6) 1.29009(7) 0.45278(6)
Mo2 Mo 0.93528(7) 1.32516(7) 0.27385(6)
Mo3 Mo 1.25936(7) 1.02687(7) 0.31638(6)
Mo4 Mo 0.97767(6) 1.03506(7) 0.22717(5)
Mo5 Mo 0.72772(6) 0.98863(7) 0.41434(6)
Mo6 Mo 1.05775(6) 0.70323(7) 0.44948(6)
O1 O 0.6517(9) 1.1770(6) 0.4009(5)
O2 O 0.6620(8) 1.1632(6) 0.5998(5)
O3 O 1.1196(6) 1.2192(7) 0.2695(7)
O4 O 1.1549(6) 1.0036(6) 0.2362(7)
O5 O 0.9670(6) 1.0463(6) 0.1004(5)
O6 O 1.0494(6) 0.8309(6) 0.3087(5)
O7 O 0.8111(6) 1.0410(6) 0.2802(6)
O8 O 0.6029(6) 0.9829(7) 0.3746(6)
O9 O 1.0810(7) 0.5673(6) 0.4253(6)
O10 O 0.8653(5) 0.8009(6) 0.4502(5)
O11 O 1.0385(7) 0.6390(10) 0.6106(6)
O12 O 1.3763(6) 1.0429(6) 0.2295(5)
O13 O 1.2970(8) 1.0610(7) 0.4310(6)
O14 O 0.9076(7) 1.4717(6) 0.1663(5)
O15 O 0.5245(5) 1.4235(6) 0.4303(5)
O16 O 1.2307(7) 0.6623(9) 0.4766(6)
O17 O 0.9145(6) 1.2203(7) 0.2042(8)
O18 O 0.7585(7) 1.3554(9) 0.3239(6)
P1 P 1.0000 1.0000 0.5000
O19 O 0.9211(9) 1.1634(9) 0.4628(8)
O20 O 1.0295(9) 1.0657(9) 0.3783(8)
O21 O 0.9593(9) 0.9541(9) 0.4291(8)
O22 O 1.1506(9) 0.9592(9) 0.4914(8)
O19A O 1.0789(9) 0.8366(9) 0.5372(8)
O20A O 0.9705(9) 0.9343(9) 0.6217(8)
O21A O 1.0407(9) 1.0459(9) 0.5709(8)
O22A O 0.8494(9) 1.0408(9) 0.5086(8)
Mo1A Mo 1.32388(6) 0.70991(7) 0.54722(6)
Mo2A Mo 1.06472(7) 0.67484(7) 0.72615(6)
Mo3A Mo 0.74064(7) 0.97313(7) 0.68362(6)
Mo4A Mo 1.02233(6) 0.96494(7) 0.77283(5)
Mo5A Mo 1.27228(6) 1.01137(7) 0.58566(6)
Mo6A Mo 0.94225(6) 1.29677(7) 0.55052(6)
O1A O 1.3483(9) 0.8230(6) 0.5991(5)
O2A O 1.3380(8) 0.8368(6) 0.4002(5)
O3A O 0.8804(6) 0.7808(7) 0.7305(7)
O4A O 0.8451(6) 0.9964(6) 0.7638(7)
O5A O 1.0330(6) 0.9537(6) 0.8996(5)
O6A O 0.9506(6) 1.1691(6) 0.6913(5)
O7A O 1.1889(6) 0.9590(6) 0.7198(6)
O8A O 1.3971(6) 1.0171(7) 0.6254(6)
O9A O 0.9190(7) 1.4327(6) 0.5747(6)
O10A O 1.1347(5) 1.1991(6) 0.5498(5)
O11A O 0.9615(7) 1.3610(10) 0.3894(6)
O12A O 0.6237(6) 0.9571(6) 0.7705(5)
O13A O 0.7030(8) 0.9390(7) 0.5690(6)
O14A O 1.0924(7) 0.5283(6) 0.8337(5)
O15A O 1.4755(5) 0.5765(6) 0.5697(5)
O16A O 0.7693(7) 1.3377(9) 0.5234(6)
O17A O 1.0855(6) 0.7797(7) 0.7958(8)
O18A O 1.2415(7) 0.6446(9) 0.6761(6)
O23 O 0.6671(9) 0.6824(10) 0.4966(8)
Ag2 Ag 1.08593(6) 0.77117(7) 0.11418(6)
C6 C 0.8165(8) 0.7720(10) 0.2027(8)
H5 H 0.8444 0.7728 0.2637
C7 C 0.6942(8) 0.7765(9) 0.2032(7)
H6 H 0.6416 0.7789 0.2642
C8 C 0.6486(7) 0.7775(7) 0.1138(6)
C9 C 0.7308(7) 0.7749(8) 0.0253(7)
H7 H 0.7032 0.7774 -0.0375
C10 C 0.5169(7) 0.7785(8) 0.1124(7)
C11 C 0.4675(7) 0.7142(8) 0.2094(7)
H8 H 0.5146 0.6723 0.2760
C12 C 0.3470(7) 0.7126(9) 0.2065(7)
H9 H 0.3148 0.6687 0.2720
C13 C 0.4437(7) 0.8407(8) 0.0152(7)
H10 H 0.4735 0.8857 -0.0513
C14 C 0.3238(8) 0.8342(8) 0.0194(7)
H11 H 0.2746 0.8753 -0.0461
C15 C 0.8542(8) 0.7687(8) 0.0301(7)
H12 H 0.9086 0.7660 -0.0299
N2 N 0.8979(6) 0.7665(7) 0.1180(6)
N3 N 0.2762(6) 0.7718(7) 0.1130(6)
Ag2_2 Ag 0.08593(6) 0.77117(7) 0.11418(6)
N3_2 N 1.2762(6) 0.7718(7) 0.1130(6)
Ag1 Ag 0.82135(8) 0.63841(9) 0.63487(7)
C1 C 0.5824(10) 0.6248(12) 0.7664(10)
H1 H 0.5503 0.6694 0.6936
C2 C 0.7484(9) 0.5318(10) 0.8909(9)
H2 H 0.8340 0.5126 0.9069
C3 C 0.6711(9) 0.4929(10) 0.9780(8)
H3 H 0.7049 0.4483 1.0502
C4 C 0.5426(8) 0.5216(9) 0.9555(7)
C5 C 0.4985(10) 0.5940(12) 0.8469(10)
H4 H 0.4110 0.6222 0.8281
N1 N 0.7056(7) 0.5958(8) 0.7849(7)
C1A C 0.4176(10) 0.3752(12) 1.2336(10)
H1A H 0.4497 0.3306 1.3064
C2A C 0.2516(9) 0.4682(10) 1.1091(9)
H2A H 0.1660 0.4874 1.0931
C3A C 0.3289(9) 0.5071(10) 1.0220(8)
H3A H 0.2951 0.5517 0.9498
C4A C 0.4574(8) 0.4784(9) 1.0445(7)
C5A C 0.5015(10) 0.4060(12) 1.1531(10)
H4A H 0.5890 0.3778 1.1719
N1A N 0.2944(7) 0.4042(8) 1.2151(7)
Ag1A Ag 0.17865(8) 0.36159(9) 1.36513(7)
loop_
_geom_bond_atom_site_label_1
_geom_bond_atom_site_label_2
_geom_bond_site_symmetry_1
_geom_bond_site_symmetry_2
Ag1 N1 1_555 1_555
C1 H1 1_555 1_555
C2 H2 1_555 1_555
C3 C2 1_555 1_555
H3 C3 1_555 1_555
C4 C3 1_555 1_555
C5 C1 1_555 1_555
H4 C5 1_555 1_555
N1 C1 1_555 1_555
Mo1 O1 1_555 1_555
Mo2 O3 1_555 1_555
Mo3 O3 1_555 1_555
Mo4 O4 1_555 1_555
Mo5 O1 1_555 1_555
Mo6 O6 1_555 1_555
O2 Mo1 1_555 1_555
O4 Mo3 1_555 1_555
O5 Mo4 1_555 1_555
O6 Mo4 1_555 1_555
O7 Mo4 1_555 1_555
O8 Mo5 1_555 1_555
O9 Mo6 1_555 1_555
O10 Mo5 1_555 1_555
O11 Mo6 1_555 1_555
O12 Mo3 1_555 1_555
O13 Mo3 1_555 1_555
O14 Mo2 1_555 1_555
O15 Mo1 1_555 1_555
O16 Mo6 1_555 1_555
O17 Mo2 1_555 1_555
O18 Mo1 1_555 1_555
P1 O19 1_555 1_555
O19 Mo1 1_555 1_555
O20 Mo2 1_555 1_555
O21 Mo4 1_555 1_555
O22 Mo3 1_555 1_555
Ag2 N2 1_555 1_555
C6 H5 1_555 1_555
C7 C6 1_555 1_555
H6 C7 1_555 1_555
C8 C7 1_555 1_555
C9 C8 1_555 1_555
H7 C9 1_555 1_555
C10 C8 1_555 1_555
C11 C10 1_555 1_555
H8 C11 1_555 1_555
C12 C11 1_555 1_555
H9 C12 1_555 1_555
C13 C10 1_555 1_555
H10 C13 1_555 1_555
C14 C13 1_555 1_555
H11 C14 1_555 1_555
C15 C9 1_555 1_555
H12 C15 1_555 1_555
N2 C6 1_555 1_555
N3 C12 1_555 1_555
C1A H1A 1_555 1_555
C2A H2A 1_555 1_555
C3A C2A 1_555 1_555
H3A C3A 1_555 1_555
C4A C4 1_555 1_555
C5A C1A 1_555 1_555
H4A C5A 1_555 1_555
N1A C1A 1_555 1_555
Ag1A N1A 1_555 1_555
O19A Mo6 1_555 1_555
O20A P1 1_555 1_555
O21A P1 1_555 1_555
O22A Mo1 1_555 1_555
Mo1A O16 1_555 1_555
Mo2A O11 1_555 1_555
Mo3A O2 1_555 1_555
Mo4A O20A 1_555 1_555
Mo5A O13 1_555 1_555
Mo6A O19 1_555 1_555
O1A Mo1A 1_555 1_555
O2A Mo3 1_555 1_555
O3A Mo2A 1_555 1_555
O4A Mo3A 1_555 1_555
O5A Mo4A 1_555 1_555
O6A Mo4A 1_555 1_555
O7A Mo4A 1_555 1_555
O8A Mo5A 1_555 1_555
O9A Mo6A 1_555 1_555
O10A Mo5A 1_555 1_555
O11A Mo2 1_555 1_555
O12A Mo3A 1_555 1_555
O13A Mo5 1_555 1_555
O14A Mo2A 1_555 1_555
O15A Mo1A 1_555 1_555
O16A Mo1 1_555 1_555
O17A Mo2A 1_555 1_555
O18A Mo1A 1_555 1_555
Ag2_2 N3 1_555 1_555
N3_2 Ag2 1_555 1_555
C2 N1 1_555 1_555
C4 C5 1_555 1_555
Mo2 O18 1_555 1_555
Mo2 O19 1_555 1_555
Mo3 O20 1_555 1_555
Mo4 O17 1_555 1_555
Mo4 O20 1_555 1_555
Mo5 O7 1_555 1_555
Mo5 O21 1_555 1_555
Mo5 O22A 1_555 1_555
Mo6 O10 1_555 1_555
Mo6 O21 1_555 1_555
P1 O20 1_555 1_555
P1 O21 1_555 1_555
P1 O22 1_555 1_555
P1 O19A 1_555 1_555
P1 O22A 1_555 1_555
O19 O21A 1_555 1_555
O20 O21 1_555 1_555
O20 O22 1_555 1_555
O21 O19A 1_555 1_555
O21 O22A 1_555 1_555
O22 O21A 1_555 1_555
O22 Mo1A 1_555 1_555
O22 Mo5A 1_555 1_555
C14 N3 1_555 1_555
C15 N2 1_555 1_555
C2A N1A 1_555 1_555
C3A C4A 1_555 1_555
C4A C5A 1_555 1_555
O19A Mo1A 1_555 1_555
O19A Mo2A 1_555 1_555
O20A O21A 1_555 1_555
O20A O22A 1_555 1_555
O20A Mo2A 1_555 1_555
O20A Mo3A 1_555 1_555
O21A Mo4A 1_555 1_555
O21A Mo5A 1_555 1_555
O21A Mo6A 1_555 1_555
O22A Mo3A 1_555 1_555
Mo1A O2A 1_555 1_555
Mo2A O18A 1_555 1_555
Mo3A O3A 1_555 1_555
Mo3A O13A 1_555 1_555
Mo4A O4A 1_555 1_555
Mo4A O17A 1_555 1_555
Mo5A O1A 1_555 1_555
Mo5A O7A 1_555 1_555
Mo6A O6A 1_555 1_555
Mo6A O10A 1_555 1_555
Mo6A O11A 1_555 1_555
Mo6A O16A 1_555 1_555

#END
