
#######################################################################
#
#                 Cambridge Crystallographic Data Centre
#                                CCDC 
#
#######################################################################
#
# If this CIF has been generated from an entry in the Cambridge 
# Structural Database, then it will include bibliographic, chemical, 
# crystal, experimental, refinement or atomic coordinate data resulting 
# from the CCDC's data processing and validation procedures.
#
#######################################################################

data_XOKGEL
_symmetry_cell_setting           monoclinic
_symmetry_space_group_name_H-M   'C 2/c'
_symmetry_Int_Tables_number      15
_space_group_name_Hall           '-C 2yn'
loop_
_symmetry_equiv_pos_site_id
_symmetry_equiv_pos_as_xyz
1 x,y,z
2 -x,y,1/2-z
3 1/2+x,1/2+y,z
4 1/2-x,1/2+y,1/2-z
5 -x,-y,-z
6 x,-y,1/2+z
7 1/2-x,1/2-y,-z
8 1/2+x,1/2-y,1/2+z
_cell_length_a                   22.902(5)
_cell_length_b                   11.913(5)
_cell_length_c                   22.594(5)
_cell_angle_alpha                90
_cell_angle_beta                 101.657(5)
_cell_angle_gamma                90
_cell_volume                     6037.21
loop_
_atom_site_label
_atom_site_type_symbol
_atom_site_fract_x
_atom_site_fract_y
_atom_site_fract_z
W1 W 0.88193(3) -0.00178(7) 0.37021(3)
W2 W 0.92292(4) -0.25477(9) 0.45301(4)
W3 W 0.84981(3) -0.03751(8) 0.51699(4)
W4 W 0.92853(4) 0.21253(10) 0.56845(4)
W5 W 0.95557(4) 0.25445(9) 0.42046(4)
W6 W 1.03202(4) 0.04452(8) 0.35431(3)
O1 O 0.9415(11) -0.039(2) 0.4700(11)
O2 O 1.0057(11) -0.139(2) 0.4962(11)
O3 O 0.9535(11) 0.013(2) 0.5422(10)
O4 O 0.9751(11) 0.043(2) 0.4399(10)
O5 O 0.8260(6) 0.0038(11) 0.3102(5)
O6 O 0.9497(7) -0.0019(14) 0.3361(8)
O7 O 0.8955(7) 0.1555(13) 0.3852(8)
O8 O 0.8398(8) 0.0026(14) 0.4359(7)
O9 O 0.8927(8) -0.1555(12) 0.3876(7)
O10 O 0.9940(9) -0.267(2) 0.4187(9)
O11 O 0.8869(8) -0.3762(13) 0.4299(7)
O12 O 0.8708(8) -0.1829(12) 0.4949(7)
O13 O 0.7795(7) -0.0528(15) 0.5244(7)
O14 O 0.8749(11) 0.124(2) 0.5264(11)
O15 O 1.0442(16) 0.106(3) 0.2822(16)
O16 O 1.0487(9) -0.1142(16) 0.3678(9)
O17 O 1.1051(9) 0.0714(17) 0.4050(9)
O18 O 1.0042(7) 0.1856(14) 0.3721(9)
O19 O 1.0280(10) 0.299(2) 0.4737(9)
O20 O 0.9200(10) 0.267(2) 0.4882(9)
O21 O 0.8942(6) 0.3154(12) 0.6000(6)
O22 O 0.9351(7) 0.3752(12) 0.3819(9)
P1 P 1.0000 0.0000 0.5000
O1D O 1.0585(11) 0.039(2) 0.5300(11)
O2D O 0.9943(11) 0.139(2) 0.5038(11)
O3D O 1.0465(11) -0.013(2) 0.4578(10)
O4D O 1.0249(11) -0.043(2) 0.5601(10)
W1D W 1.11807(3) 0.00178(7) 0.62979(3)
W2D W 1.07708(4) 0.25477(9) 0.54699(4)
W3D W 1.15019(3) 0.03751(8) 0.48301(4)
W4D W 1.07147(4) -0.21253(10) 0.43155(4)
W5D W 1.04443(4) -0.25445(9) 0.57954(4)
W6D W 0.96798(4) -0.04452(8) 0.64569(3)
O5D O 1.1740(6) -0.0038(11) 0.6898(5)
O6D O 1.0503(7) 0.0019(14) 0.6639(8)
O7D O 1.1045(7) -0.1555(13) 0.6148(8)
O8D O 1.1602(8) -0.0026(14) 0.5641(7)
O9D O 1.1073(8) 0.1555(12) 0.6124(7)
O10D O 1.0060(9) 0.267(2) 0.5813(9)
O11D O 1.1131(8) 0.3762(13) 0.5701(7)
O12D O 1.1292(8) 0.1829(12) 0.5051(7)
O13D O 1.2205(7) 0.0528(15) 0.4756(7)
O14D O 1.1251(11) -0.124(2) 0.4736(11)
O15D O 0.9558(16) -0.106(3) 0.7178(16)
O16D O 0.9513(9) 0.1142(16) 0.6322(9)
O17D O 0.8949(9) -0.0714(17) 0.5950(9)
O18D O 0.9958(7) -0.1856(14) 0.6279(9)
O19D O 0.9720(10) -0.299(2) 0.5263(9)
O20D O 1.0800(10) -0.267(2) 0.5118(9)
O21D O 1.1058(6) -0.3154(12) 0.4000(6)
O22D O 1.0649(7) -0.3752(12) 0.6181(9)
Ag1 Ag 0.65621(8) 0.98143(16) -0.01043(8)
Ag2 Ag 0.99732(8) 0.54129(17) 0.34987(9)
Ag3 Ag 1.0000 0.3600(2) 0.2500
C1 C 1.1291(9) 0.3213(17) 0.3242(9)
C2 C 1.1631(11) 0.352(2) 0.3804(12)
C3 C 1.2204(11) 0.314(2) 0.3992(11)
H1 H 1.2437 0.3371 0.4357
C4 C 1.2405(12) 0.245(3) 0.3640(15)
H2 H 1.2791 0.2187 0.3773
C5 C 1.2084(11) 0.205(2) 0.3050(16)
H3 H 1.2253 0.1548 0.2818
C6 C 1.1520(9) 0.2460(16) 0.2863(10)
H4 H 1.1291 0.2248 0.2491
C7 C 0.8740(10) 0.5631(19) 0.2669(10)
H5 H 0.8708 0.4891 0.2789
C8 C 0.8273(9) 0.6115(18) 0.2231(9)
H6 H 0.7950 0.5677 0.2049
C9 C 0.8298(9) 0.7231(19) 0.2076(9)
C10 C 0.8786(8) 0.7830(18) 0.2352(9)
H7 H 0.8821 0.8588 0.2267
C11 C 0.9224(9) 0.7294(18) 0.2758(8)
H8 H 0.9549 0.7722 0.2944
C12 C 0.7179(9) 0.778(2) 0.0645(10)
H9 H 0.7023 0.7405 0.0289
C13 C 0.7568(8) 0.7188(19) 0.1091(9)
H10 H 0.7649 0.6432 0.1043
C14 C 0.7832(9) 0.7770(18) 0.1613(9)
C15 C 0.7653(11) 0.886(2) 0.1663(9)
H11 H 0.7801 0.9259 0.2014
C16 C 0.7256(11) 0.937(2) 0.1199(10)
H12 H 0.7151 1.0110 0.1243
N1 N 1.0753(7) 0.3705(13) 0.3172(7)
N2 N 1.0752(7) 0.4355(14) 0.3670(7)
N3 N 1.1290(7) 0.4249(14) 0.4062(8)
N4 N 0.9223(8) 0.6223(17) 0.2908(7)
N5 N 0.7017(8) 0.8823(16) 0.0684(7)
Ag1A Ag 1.34379(8) 0.98143(16) 0.51043(8)
Ag2A Ag 1.00268(8) 0.54129(17) 0.15013(9)
C1A C 0.8709(9) 0.3213(17) 0.1758(9)
C2A C 0.8369(11) 0.352(2) 0.1196(12)
C3A C 0.7796(11) 0.314(2) 0.1008(11)
H1A H 0.7563 0.3371 0.0643
C4A C 0.7595(12) 0.245(3) 0.1360(15)
H2A H 0.7209 0.2187 0.1227
C5A C 0.7916(11) 0.205(2) 0.1950(16)
H3A H 0.7747 0.1548 0.2182
C6A C 0.8480(9) 0.2460(16) 0.2137(10)
H4A H 0.8709 0.2248 0.2509
C7A C 1.1260(10) 0.5631(19) 0.2331(10)
H5A H 1.1292 0.4891 0.2211
C8A C 1.1727(9) 0.6115(18) 0.2769(9)
H6A H 1.2050 0.5677 0.2951
C9A C 1.1702(9) 0.7231(19) 0.2924(9)
C10A C 1.1214(8) 0.7830(18) 0.2648(9)
H7A H 1.1179 0.8588 0.2733
C11A C 1.0776(9) 0.7294(18) 0.2242(8)
H8A H 1.0451 0.7722 0.2056
C12A C 1.2821(9) 0.778(2) 0.4355(10)
H9A H 1.2977 0.7405 0.4711
C13A C 1.2432(8) 0.7188(19) 0.3909(9)
H10A H 1.2351 0.6432 0.3957
C14A C 1.2168(9) 0.7770(18) 0.3387(9)
C15A C 1.2347(11) 0.886(2) 0.3337(9)
H11A H 1.2199 0.9259 0.2986
C16A C 1.2744(11) 0.937(2) 0.3801(10)
H12A H 1.2849 1.0110 0.3757
N1A N 0.9247(7) 0.3705(13) 0.1828(7)
N2A N 0.9248(7) 0.4355(14) 0.1330(7)
N3A N 0.8710(7) 0.4249(14) 0.0938(8)
N4A N 1.0777(8) 0.6223(17) 0.2092(7)
N5A N 1.2983(8) 0.8823(16) 0.4316(7)
Ag1F Ag 0.84379(8) 0.51857(16) 0.01043(8)
Ag1G Ag 1.15621(8) 0.51857(16) 0.48957(8)
N3F N 1.3710(7) 1.0751(14) 0.5938(8)
N3G N 0.6290(7) 1.0751(14) -0.0938(8)
O23? O 0.6442(11) 1.610(2) -0.0478(11)
O24? O 0.4456(11) 1.545(2) 0.2090(11)
loop_
_geom_bond_atom_site_label_1
_geom_bond_atom_site_label_2
_geom_bond_site_symmetry_1
_geom_bond_site_symmetry_2
Ag1 N5 1_555 1_555
Ag2 N2 1_555 1_555
Ag3 N1 1_555 1_555
C1 C2 1_555 1_555
C2 C3 1_555 1_555
C3 H1 1_555 1_555
C4 C3 1_555 1_555
H2 C4 1_555 1_555
C5 C4 1_555 1_555
H3 C5 1_555 1_555
C6 C1 1_555 1_555
H4 C6 1_555 1_555
C7 H5 1_555 1_555
C8 C7 1_555 1_555
H6 C8 1_555 1_555
C9 C8 1_555 1_555
C10 C9 1_555 1_555
H7 C10 1_555 1_555
C11 C10 1_555 1_555
H8 C11 1_555 1_555
C12 H9 1_555 1_555
C13 C12 1_555 1_555
H10 C13 1_555 1_555
C14 C9 1_555 1_555
C15 C14 1_555 1_555
H11 C15 1_555 1_555
C16 C15 1_555 1_555
H12 C16 1_555 1_555
N1 C1 1_555 1_555
N2 N1 1_555 1_555
N3 C2 1_555 1_555
N4 Ag2 1_555 1_555
N5 C12 1_555 1_555
W1 O1 1_555 1_555
W2 O2 1_555 1_555
W3 O3 1_555 1_555
W4 O14 1_555 1_555
W5 O7 1_555 1_555
W6 O6 1_555 1_555
O1 O3 1_555 1_555
O2 P1 1_555 1_555
O3 P1 1_555 1_555
O4 W1 1_555 1_555
O5 W1 1_555 1_555
O6 W1 1_555 1_555
O7 W1 1_555 1_555
O8 W1 1_555 1_555
O9 W1 1_555 1_555
O10 W2 1_555 1_555
O11 W2 1_555 1_555
O12 W2 1_555 1_555
O13 W3 1_555 1_555
O14 W3 1_555 1_555
O15 W6 1_555 1_555
O16 W6 1_555 1_555
O17 W6 1_555 1_555
O18 W5 1_555 1_555
O19 W5 1_555 1_555
O20 W4 1_555 1_555
O21 W4 1_555 1_555
O22 W5 1_555 1_555
P1 O1 1_555 1_555
Ag1A N5A 1_555 1_555
Ag2A N2A 1_555 1_555
C1A C2A 1_555 1_555
C2A C3A 1_555 1_555
C3A H1A 1_555 1_555
C4A C3A 1_555 1_555
H2A C4A 1_555 1_555
C5A C4A 1_555 1_555
H3A C5A 1_555 1_555
C6A C1A 1_555 1_555
H4A C6A 1_555 1_555
C7A H5A 1_555 1_555
C8A C7A 1_555 1_555
H6A C8A 1_555 1_555
C9A C8A 1_555 1_555
C10A C9A 1_555 1_555
H7A C10A 1_555 1_555
C11A C10A 1_555 1_555
H8A C11A 1_555 1_555
C12A H9A 1_555 1_555
C13A C12A 1_555 1_555
H10A C13A 1_555 1_555
C14A C9A 1_555 1_555
C15A C14A 1_555 1_555
H11A C15A 1_555 1_555
C16A C15A 1_555 1_555
H12A C16A 1_555 1_555
N1A Ag3 1_555 1_555
N2A N1A 1_555 1_555
N3A C2A 1_555 1_555
N4A Ag2A 1_555 1_555
N5A C12A 1_555 1_555
Ag1F N3A 1_555 1_555
Ag1G N3 1_555 1_555
N3F Ag1A 1_555 1_555
N3G Ag1 1_555 1_555
O1D P1 1_555 1_555
O2D W4 1_555 1_555
O3D W6 1_555 1_555
O4D O3 1_555 1_555
W1D O1D 1_555 1_555
W2D O19 1_555 1_555
W3D O17 1_555 1_555
W4D O2 1_555 1_555
W5D O2 1_555 1_555
W6D O3 1_555 1_555
O5D W1D 1_555 1_555
O6D W1D 1_555 1_555
O7D W1D 1_555 1_555
O8D W1D 1_555 1_555
O9D W1D 1_555 1_555
O10D W4 1_555 1_555
O11D W2D 1_555 1_555
O12D W2D 1_555 1_555
O13D W3D 1_555 1_555
O14D W3D 1_555 1_555
O15D W6D 1_555 1_555
O16D W4 1_555 1_555
O17D W3 1_555 1_555
O18D W5D 1_555 1_555
O19D W2 1_555 1_555
O20D W4D 1_555 1_555
O21D W4D 1_555 1_555
O22D W5D 1_555 1_555
C5 C6 1_555 1_555
C7 N4 1_555 1_555
C11 N4 1_555 1_555
C13 C14 1_555 1_555
C16 N5 1_555 1_555
N2 N3 1_555 1_555
W2 O9 1_555 1_555
W3 O8 1_555 1_555
W3 O12 1_555 1_555
W5 O20 1_555 1_555
W5 O2D 1_555 1_555
W6 O18 1_555 1_555
O1 O4 1_555 1_555
O4 P1 1_555 1_555
O4 O3D 1_555 1_555
O10 W4D 1_555 1_555
O16 W4D 1_555 1_555
P1 O2D 1_555 1_555
P1 O3D 1_555 1_555
P1 O4D 1_555 1_555
C1A N1A 1_555 1_555
C5A C6A 1_555 1_555
C7A N4A 1_555 1_555
C11A N4A 1_555 1_555
C13A C14A 1_555 1_555
C16A N5A 1_555 1_555
N2A N3A 1_555 1_555
O1D O3D 1_555 1_555
O1D O4D 1_555 1_555
O2D W2D 1_555 1_555
O3D W3D 1_555 1_555
O4D W1D 1_555 1_555
W2D O9D 1_555 1_555
W2D O10D 1_555 1_555
W3D O8D 1_555 1_555
W3D O12D 1_555 1_555
W4D O14D 1_555 1_555
W5D O7D 1_555 1_555
W5D O19D 1_555 1_555
W5D O20D 1_555 1_555
W6D O6D 1_555 1_555
W6D O16D 1_555 1_555
W6D O17D 1_555 1_555
W6D O18D 1_555 1_555

#END
