
#######################################################################
#
#                 Cambridge Crystallographic Data Centre
#                                CCDC 
#
#######################################################################
#
# If this CIF has been generated from an entry in the Cambridge 
# Structural Database, then it will include bibliographic, chemical, 
# crystal, experimental, refinement or atomic coordinate data resulting 
# from the CCDC's data processing and validation procedures.
#
#######################################################################

data_XOKGOV
_symmetry_cell_setting           monoclinic
_symmetry_space_group_name_H-M   'P 21'
_symmetry_Int_Tables_number      4
_space_group_name_Hall           'P 2yb'
loop_
_symmetry_equiv_pos_site_id
_symmetry_equiv_pos_as_xyz
1 x,y,z
2 -x,1/2+y,-z
_cell_length_a                   14.904(4)
_cell_length_b                   14.159(3)
_cell_length_c                   21.949(5)
_cell_angle_alpha                90
_cell_angle_beta                 99.879(3)
_cell_angle_gamma                90
_cell_volume                     4563.12
loop_
_atom_site_label
_atom_site_type_symbol
_atom_site_fract_x
_atom_site_fract_y
_atom_site_fract_z
Zn2 Zn 0.76894(6) 0.18678(6) 0.21747(4)
N6 N 0.6777(4) 0.1701(5) 0.1393(3)
C46 C 0.6232(5) 0.2359(6) 0.1050(4)
C47 C 0.5590(5) 0.1898(6) 0.0585(3)
C48 C 0.5754(5) 0.0944(6) 0.0686(4)
C49 C 0.5506(6) -0.0009(6) 0.0440(4)
C50 C 0.6155(7) -0.0706(6) 0.0838(4)
H40 H 0.6521 -0.1061 0.0579
H41 H 0.5807 -0.1161 0.1049
C51 C 0.6777(5) -0.0085(6) 0.1317(3)
C52 C 0.6478(5) 0.0859(6) 0.1178(4)
C53 C 0.4871(6) 0.2375(7) 0.0104(4)
H42 H 0.4263 0.2170 0.0163
H43 H 0.4968 0.2198 -0.0311
H44 H 0.4920 0.3062 0.0153
O4 O 0.4931(5) -0.0238(5) 0.0009(3)
C54 C 0.7476(6) -0.0323(7) 0.1759(4)
C55 C 0.7851(8) -0.1283(7) 0.1915(4)
H45 H 0.7317 -0.1678 0.1973
C56 C 0.8412(8) -0.1145(7) 0.2576(4)
H46 H 0.8996 -0.1507 0.2635
C57 C 0.8570(6) -0.0103(7) 0.2576(4)
N7 N 0.7968(5) 0.0354(6) 0.2144(3)
C58 C 0.8319(10) -0.1825(12) 0.1465(7)
H47 H 0.8457 -0.2478 0.1613
H48 H 0.7928 -0.1852 0.1052
C59 C 0.9066(10) -0.1363(12) 0.1438(7)
H49 H 0.9355 -0.1143 0.1854
H50 H 0.8944 -0.0810 0.1160
C60 C 0.9741(15) -0.2158(19) 0.1155(10)
O5 O 1.0333(8) -0.1580(10) 0.0916(5)
C61 C 1.1075(16) -0.219(3) 0.0717(11)
H51 H 1.1003 -0.2847 0.0847
H52 H 1.1675 -0.1958 0.0911
H53 H 1.1024 -0.2169 0.0267
O6 O 0.9997(14) -0.2939(14) 0.1226(10)
C62 C 0.7831(10) -0.1381(7) 0.3093(5)
H54 H 0.7237 -0.1068 0.2995
H55 H 0.8152 -0.1156 0.3494
H56 H 0.7742 -0.2066 0.3111
C63 C 0.9234(6) 0.0375(8) 0.3011(4)
H57 H 0.9634 -0.0021 0.3283
C64 C 0.9379(5) 0.1331(7) 0.3094(3)
C65 C 1.0082(5) 0.1732(7) 0.3563(3)
C66 C 0.9965(6) 0.2682(8) 0.3512(4)
C67 C 0.9187(5) 0.2894(7) 0.3026(4)
N8 N 0.8870(4) 0.2026(6) 0.2785(3)
C68 C 1.0772(6) 0.1202(8) 0.3998(4)
H58 H 1.0708 0.1354 0.4424
H59 H 1.1383 0.1379 0.3930
H60 H 1.0681 0.0522 0.3927
C69 C 1.0528(5) 0.3403(8) 0.3868(3)
C70 C 1.1019(6) 0.3871(8) 0.4206(4)
C71 C 1.1633(5) 0.4417(8) 0.4661(4)
C72 C 1.1413(7) 0.5327(8) 0.4835(4)
H61 H 1.0889 0.5642 0.4622
C73 C 1.1977(6) 0.5765(8) 0.5328(4)
H62 H 1.1825 0.6377 0.5456
C74 C 1.2762(6) 0.5321(7) 0.5638(3)
C75 C 1.2974(5) 0.4451(8) 0.5451(4)
H63 H 1.3514 0.4155 0.5657
C76 C 1.2433(6) 0.3973(8) 0.4972(3)
H64 H 1.2597 0.3360 0.4854
C77 C 1.3295(5) 0.5787(7) 0.6193(4)
C78 C 1.2819(6) 0.6237(7) 0.6624(3)
H65 H 1.2176 0.6287 0.6517
N9 N 1.3215(4) 0.6590(5) 0.7164(3)
C79 C 1.4128(6) 0.6535(8) 0.7305(4)
H66 H 1.4425 0.6762 0.7695
C80 C 1.4645(7) 0.6160(10) 0.6902(5)
H67 H 1.5291 0.6171 0.7005
C81 C 1.4227(6) 0.5766(9) 0.6346(4)
H68 H 1.4582 0.5485 0.6074
C82 C 0.8815(5) 0.3752(6) 0.2852(4)
H69 H 0.9101 0.4275 0.3077
C83 C 0.8074(6) 0.3975(6) 0.2392(4)
C84 C 0.7759(5) 0.4896(6) 0.2182(3)
C85 C 0.7069(5) 0.4793(6) 0.1694(4)
C86 C 0.6952(5) 0.3791(6) 0.1596(3)
N10 N 0.7592(4) 0.3313(6) 0.2030(3)
C87 C 0.8153(7) 0.5805(7) 0.2488(5)
H70 H 0.7677 0.6148 0.2654
H71 H 0.8383 0.6200 0.2182
H72 H 0.8653 0.5653 0.2826
C88 C 0.6582(6) 0.5547(6) 0.1292(4)
H73 H 0.6530 0.6118 0.1544
H74 H 0.5958 0.5329 0.1121
C89 C 0.7073(7) 0.5802(9) 0.0762(5)
H75 H 0.7149 0.5234 0.0521
H76 H 0.7673 0.6067 0.0929
H77 H 0.6714 0.6270 0.0495
C90 C 0.6344(5) 0.3349(6) 0.1139(3)
H78 H 0.5964 0.3746 0.0855
Zn2A Zn 1.23106(6) 0.68678(6) 0.78253(4)
N9A N 0.6785(4) 0.1590(5) 0.2836(3)
C91 C 1.0837(12) 0.8139(15) 0.4891(8)
H79 H 1.1028 0.8800 0.4881
H80 H 1.1302 0.7732 0.4763
H81 H 1.0758 0.7972 0.5312
C92 C 0.9953(10) 0.8006(11) 0.4457(7)
H82 H 0.9460 0.8384 0.4588
H83 H 1.0009 0.8179 0.4028
O7 O 0.9791(9) 0.6993(10) 0.4513(6)
C93 C 0.8937(11) 0.6804(13) 0.4199(8)
H84 H 0.8887 0.6997 0.3761
H85 H 0.8477 0.7157 0.4385
C94 C 0.8757(18) 0.562(2) 0.4247(12)
H86 H 0.8146 0.5462 0.4025
H87 H 0.8808 0.5434 0.4682
H88 H 0.9213 0.5275 0.4060
C95 C 0.6796(13) 0.3741(16) 0.3979(9)
H89 H 0.6808 0.3049 0.3988
H90 H 0.6576 0.3979 0.4346
H91 H 0.7413 0.3980 0.3976
C96 C 0.6172(12) 0.4070(12) 0.3406(8)
H92 H 0.5530 0.3879 0.3391
H93 H 0.6386 0.3899 0.3018
O8 O 0.6367(13) 0.5145(13) 0.3606(9)
C97 C 0.5782(19) 0.544(2) 0.3074(13)
H94 H 0.5163 0.5181 0.3066
H95 H 0.6008 0.5222 0.2699
C98 C 0.577(3) 0.667(3) 0.311(2)
H96 H 0.5347 0.6919 0.2750
H97 H 0.6382 0.6916 0.3098
H98 H 0.5570 0.6874 0.3489
Zn1 Zn 0.22180(5) 0.32095(5) 0.28706(3)
N1 N 0.3195(4) 0.3261(5) 0.3613(3)
C1 C 0.3691(5) 0.2541(6) 0.3972(4)
C2 C 0.4380(5) 0.2960(6) 0.4436(3)
C3 C 0.4277(5) 0.3938(6) 0.4352(4)
C4 C 0.4572(5) 0.4848(6) 0.4593(4)
C5 C 0.4006(6) 0.5606(5) 0.4202(4)
H1 H 0.3671 0.6001 0.4459
H2 H 0.4397 0.6017 0.3993
C6 C 0.3351(5) 0.5035(6) 0.3732(4)
C7 C 0.3553(5) 0.4080(6) 0.3857(4)
C8 C 0.5032(6) 0.2426(7) 0.4901(4)
H3 H 0.4943 0.2603 0.5318
H4 H 0.5657 0.2577 0.4851
H5 H 0.4926 0.1747 0.4840
O1 O 0.5153(4) 0.5043(5) 0.5064(3)
C9 C 0.2629(6) 0.5357(6) 0.3306(4)
C10 C 0.2395(6) 0.6397(6) 0.3115(4)
H6 H 0.2370 0.6780 0.3494
C11 C 0.1444(6) 0.6297(6) 0.2749(4)
H7 H 0.1404 0.6666 0.2357
C12 C 0.1370(5) 0.5251(6) 0.2591(4)
N2 N 0.2039(5) 0.4753(5) 0.2938(3)
C13 C 0.3091(6) 0.6823(6) 0.2771(4)
H8 H 0.2901 0.7474 0.2644
H9 H 0.3683 0.6862 0.3053
C14 C 0.3209(9) 0.6282(8) 0.2219(5)
H10 H 0.2600 0.6127 0.1982
H11 H 0.3516 0.5678 0.2354
C15 C 0.3768(12) 0.6794(11) 0.1779(9)
O2 O 0.3253(7) 0.7508(7) 0.1469(5)
C16 C 0.3692(14) 0.8101(14) 0.1050(8)
H12 H 0.3873 0.7705 0.0726
H13 H 0.4232 0.8407 0.1286
H14 H 0.3262 0.8584 0.0861
O3 O 0.4492(7) 0.6566(8) 0.1664(5)
C17 C 0.0691(6) 0.6631(7) 0.3091(5)
H15 H 0.0728 0.6279 0.3479
H16 H 0.0097 0.6521 0.2832
H17 H 0.0767 0.7307 0.3182
C18 C 0.0683(5) 0.4851(6) 0.2148(4)
H18 H 0.0274 0.5285 0.1916
C19 C 0.0524(5) 0.3920(6) 0.2007(3)
C20 C -0.0193(5) 0.3568(6) 0.1527(3)
C21 C -0.0102(5) 0.2594(7) 0.1521(3)
C22 C 0.0653(5) 0.2348(6) 0.2015(4)
N3 N 0.1025(4) 0.3161(5) 0.2298(3)
C23 C -0.0841(6) 0.4158(7) 0.1083(4)
H19 H -0.1469 0.3976 0.1106
H20 H -0.0726 0.4054 0.0661
H21 H -0.0750 0.4826 0.1191
C24 C -0.0627(5) 0.1946(7) 0.1119(3)
C25 C -0.1064(6) 0.1409(7) 0.0750(4)
C26 C -0.1566(6) 0.0842(7) 0.0287(4)
C27 C -0.1230(7) 0.0008(8) 0.0077(4)
H22 H -0.0656 -0.0224 0.0276
C28 C -0.1707(6) -0.0492(7) -0.0413(4)
H23 H -0.1422 -0.1008 -0.0579
C29 C -0.2580(5) -0.0260(6) -0.0665(3)
C30 C -0.2954(6) 0.0566(7) -0.0444(4)
H24 H -0.3555 0.0757 -0.0617
C31 C -0.2452(5) 0.1094(7) 0.0021(4)
H25 H -0.2717 0.1643 0.0165
C32 C -0.3111(5) -0.0776(6) -0.1199(4)
C33 C -0.2653(5) -0.1131(5) -0.1640(3)
H26 H -0.2008 -0.1079 -0.1567
N4 N -0.3051(4) -0.1549(4) -0.2171(3)
C34 C -0.3982(6) -0.1623(7) -0.2266(4)
H27 H -0.4279 -0.1926 -0.2632
C35 C -0.4499(6) -0.1281(7) -0.1863(4)
H28 H -0.5145 -0.1329 -0.1946
C36 C -0.4046(6) -0.0853(7) -0.1316(4)
H29 H -0.4391 -0.0614 -0.1023
C37 C 0.0937(5) 0.1433(6) 0.2165(4)
H30 H 0.0599 0.0943 0.1936
C38 C 0.1679(5) 0.1148(5) 0.2624(4)
C39 C 0.1927(6) 0.0170(6) 0.2779(4)
C40 C 0.2652(5) 0.0233(6) 0.3251(4)
C41 C 0.2841(5) 0.1225(6) 0.3383(4)
N5 N 0.2226(4) 0.1768(6) 0.2983(3)
C42 C 0.1453(6) -0.0679(6) 0.2467(4)
H31 H 0.1198 -0.1056 0.2771
H32 H 0.1890 -0.1062 0.2288
H33 H 0.0961 -0.0475 0.2139
C43 C 0.3174(7) -0.0590(6) 0.3612(4)
H34 H 0.3232 -0.1115 0.3323
H35 H 0.3795 -0.0377 0.3794
C44 C 0.2690(8) -0.0943(10) 0.4125(7)
H36 H 0.2090 -0.1193 0.3943
H37 H 0.2615 -0.0419 0.4404
H38 H 0.3053 -0.1443 0.4357
C45 C 0.3494(6) 0.1589(6) 0.3847(4)
H39 H 0.3846 0.1143 0.4109
Zn1A Zn -0.22180(5) -0.17905(5) -0.28706(3)
N4A N 0.3051(4) 0.3451(4) 0.2171(3)
loop_
_geom_bond_atom_site_label_1
_geom_bond_atom_site_label_2
_geom_bond_site_symmetry_1
_geom_bond_site_symmetry_2
Zn1 N1 1_555 1_555
N1 C1 1_555 1_555
C1 C2 1_555 1_555
C2 C3 1_555 1_555
C3 C4 1_555 1_555
C4 C5 1_555 1_555
C5 H1 1_555 1_555
H2 C5 1_555 1_555
C6 C5 1_555 1_555
C7 N1 1_555 1_555
C8 C2 1_555 1_555
H3 C8 1_555 1_555
H4 C8 1_555 1_555
H5 C8 1_555 1_555
O1 C4 1_555 1_555
C9 C6 1_555 1_555
C10 C9 1_555 1_555
H6 C10 1_555 1_555
C11 C10 1_555 1_555
H7 C11 1_555 1_555
C12 C11 1_555 1_555
N2 Zn1 1_555 1_555
C13 C10 1_555 1_555
H8 C13 1_555 1_555
H9 C13 1_555 1_555
C14 C13 1_555 1_555
H10 C14 1_555 1_555
H11 C14 1_555 1_555
C15 C14 1_555 1_555
O2 C15 1_555 1_555
C16 O2 1_555 1_555
H12 C16 1_555 1_555
H13 C16 1_555 1_555
H14 C16 1_555 1_555
O3 C15 1_555 1_555
C17 C11 1_555 1_555
H15 C17 1_555 1_555
H16 C17 1_555 1_555
H17 C17 1_555 1_555
C18 C12 1_555 1_555
H18 C18 1_555 1_555
C19 C18 1_555 1_555
C20 C19 1_555 1_555
C21 C20 1_555 1_555
C22 C21 1_555 1_555
N3 Zn1 1_555 1_555
C23 C20 1_555 1_555
H19 C23 1_555 1_555
H20 C23 1_555 1_555
H21 C23 1_555 1_555
C24 C21 1_555 1_555
C25 C24 1_555 1_555
C26 C25 1_555 1_555
C27 C26 1_555 1_555
H22 C27 1_555 1_555
C28 C27 1_555 1_555
H23 C28 1_555 1_555
C29 C28 1_555 1_555
C30 C29 1_555 1_555
H24 C30 1_555 1_555
C31 C26 1_555 1_555
H25 C31 1_555 1_555
C32 C29 1_555 1_555
C33 C32 1_555 1_555
H26 C33 1_555 1_555
N4 C33 1_555 1_555
C34 N4 1_555 1_555
H27 C34 1_555 1_555
C35 C34 1_555 1_555
H28 C35 1_555 1_555
C36 C32 1_555 1_555
H29 C36 1_555 1_555
C37 C22 1_555 1_555
H30 C37 1_555 1_555
C38 C37 1_555 1_555
C39 C38 1_555 1_555
C40 C39 1_555 1_555
C41 C40 1_555 1_555
N5 Zn1 1_555 1_555
C42 C39 1_555 1_555
H31 C42 1_555 1_555
H32 C42 1_555 1_555
H33 C42 1_555 1_555
C43 C40 1_555 1_555
H34 C43 1_555 1_555
H35 C43 1_555 1_555
C44 C43 1_555 1_555
H36 C44 1_555 1_555
H37 C44 1_555 1_555
H38 C44 1_555 1_555
C45 C1 1_555 1_555
H39 C45 1_555 1_555
Zn2 N6 1_555 1_555
N6 C46 1_555 1_555
C46 C47 1_555 1_555
C47 C48 1_555 1_555
C48 C49 1_555 1_555
C49 C50 1_555 1_555
C50 H40 1_555 1_555
H41 C50 1_555 1_555
C51 C50 1_555 1_555
C52 N6 1_555 1_555
C53 C47 1_555 1_555
H42 C53 1_555 1_555
H43 C53 1_555 1_555
H44 C53 1_555 1_555
O4 C49 1_555 1_555
C54 C51 1_555 1_555
C55 C54 1_555 1_555
H45 C55 1_555 1_555
C56 C55 1_555 1_555
H46 C56 1_555 1_555
C57 C56 1_555 1_555
N7 Zn2 1_555 1_555
C58 C55 1_555 1_555
H47 C58 1_555 1_555
H48 C58 1_555 1_555
C59 C58 1_555 1_555
H49 C59 1_555 1_555
H50 C59 1_555 1_555
C60 C59 1_555 1_555
O5 C60 1_555 1_555
C61 O5 1_555 1_555
H51 C61 1_555 1_555
H52 C61 1_555 1_555
H53 C61 1_555 1_555
O6 C60 1_555 1_555
C62 C56 1_555 1_555
H54 C62 1_555 1_555
H55 C62 1_555 1_555
H56 C62 1_555 1_555
C63 C57 1_555 1_555
H57 C63 1_555 1_555
C64 C63 1_555 1_555
C65 C64 1_555 1_555
C66 C65 1_555 1_555
C67 C66 1_555 1_555
N8 Zn2 1_555 1_555
C68 C65 1_555 1_555
H58 C68 1_555 1_555
H59 C68 1_555 1_555
H60 C68 1_555 1_555
C69 C66 1_555 1_555
C70 C69 1_555 1_555
C71 C70 1_555 1_555
C72 C71 1_555 1_555
H61 C72 1_555 1_555
C73 C72 1_555 1_555
H62 C73 1_555 1_555
C74 C73 1_555 1_555
C75 C74 1_555 1_555
H63 C75 1_555 1_555
C76 C71 1_555 1_555
H64 C76 1_555 1_555
C77 C74 1_555 1_555
C78 C77 1_555 1_555
H65 C78 1_555 1_555
N9 C78 1_555 1_555
C79 N9 1_555 1_555
H66 C79 1_555 1_555
C80 C79 1_555 1_555
H67 C80 1_555 1_555
C81 C77 1_555 1_555
H68 C81 1_555 1_555
C82 C67 1_555 1_555
H69 C82 1_555 1_555
C83 C82 1_555 1_555
C84 C83 1_555 1_555
C85 C84 1_555 1_555
C86 C85 1_555 1_555
N10 Zn2 1_555 1_555
C87 C84 1_555 1_555
H70 C87 1_555 1_555
H71 C87 1_555 1_555
H72 C87 1_555 1_555
C88 C85 1_555 1_555
H73 C88 1_555 1_555
H74 C88 1_555 1_555
C89 C88 1_555 1_555
H75 C89 1_555 1_555
H76 C89 1_555 1_555
H77 C89 1_555 1_555
C90 C46 1_555 1_555
H78 C90 1_555 1_555
C91 H79 1_555 1_555
H80 C91 1_555 1_555
H81 C91 1_555 1_555
C92 C91 1_555 1_555
H82 C92 1_555 1_555
H83 C92 1_555 1_555
O7 C92 1_555 1_555
C93 O7 1_555 1_555
H84 C93 1_555 1_555
H85 C93 1_555 1_555
C94 C93 1_555 1_555
H86 C94 1_555 1_555
H87 C94 1_555 1_555
H88 C94 1_555 1_555
C95 H89 1_555 1_555
H90 C95 1_555 1_555
H91 C95 1_555 1_555
C96 C95 1_555 1_555
H92 C96 1_555 1_555
H93 C96 1_555 1_555
O8 C96 1_555 1_555
C97 O8 1_555 1_555
H94 C97 1_555 1_555
H95 C97 1_555 1_555
C98 C97 1_555 1_555
H96 C98 1_555 1_555
H97 C98 1_555 1_555
H98 C98 1_555 1_555
Zn1A N4 1_555 1_555
N4A Zn1 1_555 1_555
Zn2A N9 1_555 1_555
N9A Zn2 1_555 1_555
C3 C7 1_555 1_555
C6 C7 1_555 1_555
C9 N2 1_555 1_555
C12 N2 1_555 1_555
C19 N3 1_555 1_555
C22 N3 1_555 1_555
C30 C31 1_555 1_555
C35 C36 1_555 1_555
C38 N5 1_555 1_555
C41 N5 1_555 1_555
C41 C45 1_555 1_555
C48 C52 1_555 1_555
C51 C52 1_555 1_555
C54 N7 1_555 1_555
C57 N7 1_555 1_555
C64 N8 1_555 1_555
C67 N8 1_555 1_555
C75 C76 1_555 1_555
C80 C81 1_555 1_555
C83 N10 1_555 1_555
C86 N10 1_555 1_555
C86 C90 1_555 1_555

#END
