
#######################################################################
#
#                 Cambridge Crystallographic Data Centre
#                                CCDC 
#
#######################################################################
#
# If this CIF has been generated from an entry in the Cambridge 
# Structural Database, then it will include bibliographic, chemical, 
# crystal, experimental, refinement or atomic coordinate data resulting 
# from the CCDC's data processing and validation procedures.
#
#######################################################################

data_XOKHUB
_symmetry_cell_setting           monoclinic
_symmetry_space_group_name_H-M   'C c'
_symmetry_Int_Tables_number      9
_space_group_name_Hall           'C -2yc'
loop_
_symmetry_equiv_pos_site_id
_symmetry_equiv_pos_as_xyz
1 x,y,z
2 x,-y,1/2+z
3 1/2+x,1/2+y,z
4 1/2+x,1/2-y,1/2+z
_cell_length_a                   16.439(6)
_cell_length_b                   14.562(5)
_cell_length_c                   11.466(4)
_cell_angle_alpha                90
_cell_angle_beta                 115.181(4)
_cell_angle_gamma                90
_cell_volume                     2483.94
loop_
_atom_site_label
_atom_site_type_symbol
_atom_site_fract_x
_atom_site_fract_y
_atom_site_fract_z
Sn1 Sn 0.01844(9) -0.25604(3) -0.44916(10)
Cl1 Cl 0.46249(17) -0.57981(16) -0.1804(2)
N1 N 0.2601(5) -0.5644(4) -0.5231(6)
O1 O 0.1090(4) -0.3480(4) -0.4794(5)
O2 O 0.1761(4) -0.3678(4) -0.2684(5)
O3 O 0.3856(5) -0.6495(4) -0.4532(6)
C1 C 0.1685(5) -0.3872(5) -0.3769(7)
C2 C 0.2043(6) -0.4987(5) -0.5097(7)
H1 H 0.1505 -0.4841 -0.5794
C3 C 0.2278(5) -0.4545(5) -0.3933(8)
C4 C 0.3090(6) -0.4826(6) -0.2915(8)
H2 H 0.3262 -0.4553 -0.2112
C5 C 0.3631(6) -0.5474(5) -0.3055(8)
C6 C 0.3392(5) -0.5923(5) -0.4301(8)
C7 C -0.0436(6) -0.2281(5) -0.6505(8)
C8 C 0.0024(8) -0.1797(7) -0.7094(10)
H3 H 0.0592 -0.1555 -0.6603
C9 C -0.0371(9) -0.1684(8) -0.8394(11)
H4 H -0.0057 -0.1362 -0.8773
C10 C -0.1169(10) -0.2004(9) -0.9143(11)
H5 H -0.1410 -0.1905 -1.0028
C11 C -0.1657(10) -0.2494(6) -0.8605(12)
H6 H -0.2217 -0.2740 -0.9124
C12 C -0.1276(8) -0.2607(5) -0.7250(10)
H7 H -0.1600 -0.2905 -0.6867
C13 C -0.0435(7) -0.3579(6) -0.3800(9)
C14 C -0.0429(7) -0.4483(6) -0.4156(10)
H8 H -0.0194 -0.4635 -0.4739
C15 C -0.0776(9) -0.5173(6) -0.3642(13)
H9 H -0.0737 -0.5786 -0.3840
C16 C -0.1170(9) -0.4940(7) -0.2848(13)
H10 H -0.1460 -0.5384 -0.2581
C17 C -0.1136(11) -0.4061(8) -0.2452(14)
H11 H -0.1351 -0.3916 -0.1844
C18 C -0.0786(8) -0.3371(7) -0.2940(11)
H12 H -0.0789 -0.2765 -0.2683
C19 C 0.1015(6) -0.1528(6) -0.3293(9)
C20 C 0.1040(7) -0.0668(6) -0.3781(10)
H13 H 0.0719 -0.0567 -0.4661
C21 C 0.1528(10) 0.0049(8) -0.3006(14)
H14 H 0.1538 0.0621 -0.3360
C22 C 0.2017(9) -0.0105(9) -0.1650(16)
H15 H 0.2332 0.0369 -0.1098
C23 C 0.2005(7) -0.0931(9) -0.1213(11)
H16 H 0.2337 -0.1037 -0.0337
C24 C 0.1531(7) -0.1659(6) -0.1974(8)
H17 H 0.1555 -0.2234 -0.1608
Sn1B Sn 0.51844(9) -0.75604(3) -0.44916(10)
O3B O -0.1144(5) -0.1495(4) -0.4532(6)
O4 O 0.0663(4) -0.6665(4) -0.4767(5)
H18 H 0.0800 -0.7093 -0.5113
C25 C 0.1343(8) -0.6651(9) -0.3211(13)
H19 H 0.1568 -0.6029 -0.2991
H20 H 0.0981 -0.6779 -0.2747
C26 C 0.2125(8) -0.7272(8) -0.2699(15)
H21 H 0.2356 -0.7203 -0.3344
H22 H 0.1831 -0.7866 -0.2880
C27 C 0.2991(13) -0.7494(8) -0.150(2)
H23 H 0.3300 -0.7991 -0.1688
H24 H 0.2843 -0.7670 -0.0804
H25 H 0.3372 -0.6962 -0.1250
loop_
_geom_bond_atom_site_label_1
_geom_bond_atom_site_label_2
_geom_bond_site_symmetry_1
_geom_bond_site_symmetry_2
Sn1 O1 1_555 1_555
Cl1 C5 1_555 1_555
N1 C2 1_555 1_555
O1 C1 1_555 1_555
O2 C1 1_555 1_555
O3 C6 1_555 1_555
C1 C3 1_555 1_555
C2 H1 1_555 1_555
C3 C2 1_555 1_555
C4 C3 1_555 1_555
H2 C4 1_555 1_555
C5 C4 1_555 1_555
C6 N1 1_555 1_555
C7 Sn1 1_555 1_555
C8 C7 1_555 1_555
H3 C8 1_555 1_555
C9 C8 1_555 1_555
H4 C9 1_555 1_555
C10 C9 1_555 1_555
H5 C10 1_555 1_555
C11 C10 1_555 1_555
H6 C11 1_555 1_555
C12 C7 1_555 1_555
H7 C12 1_555 1_555
C13 Sn1 1_555 1_555
C14 C13 1_555 1_555
H8 C14 1_555 1_555
C15 C14 1_555 1_555
H9 C15 1_555 1_555
C16 C15 1_555 1_555
H10 C16 1_555 1_555
C17 C16 1_555 1_555
H11 C17 1_555 1_555
C18 C13 1_555 1_555
H12 C18 1_555 1_555
C19 Sn1 1_555 1_555
C20 C19 1_555 1_555
H13 C20 1_555 1_555
C21 C20 1_555 1_555
H14 C21 1_555 1_555
C22 C21 1_555 1_555
H15 C22 1_555 1_555
C23 C22 1_555 1_555
H16 C23 1_555 1_555
C24 C19 1_555 1_555
H17 C24 1_555 1_555
O4 H18 1_555 1_555
C25 O4 1_555 1_555
H19 C25 1_555 1_555
H20 C25 1_555 1_555
C26 C25 1_555 1_555
H21 C26 1_555 1_555
H22 C26 1_555 1_555
C27 C26 1_555 1_555
H23 C27 1_555 1_555
H24 C27 1_555 1_555
H25 C27 1_555 1_555
Sn1B O3 1_555 1_555
O3B Sn1 1_555 1_555
C5 C6 1_555 1_555
C11 C12 1_555 1_555
C17 C18 1_555 1_555
C23 C24 1_555 1_555

#END
