
#######################################################################
#
#                 Cambridge Crystallographic Data Centre
#                                CCDC 
#
#######################################################################
#
# If this CIF has been generated from an entry in the Cambridge 
# Structural Database, then it will include bibliographic, chemical, 
# crystal, experimental, refinement or atomic coordinate data resulting 
# from the CCDC's data processing and validation procedures.
#
#######################################################################

data_XOKHOU
_symmetry_cell_setting           orthorhombic
_symmetry_space_group_name_H-M   'P n a 21'
_symmetry_Int_Tables_number      33
_space_group_name_Hall           'P 2c -2n'
loop_
_symmetry_equiv_pos_site_id
_symmetry_equiv_pos_as_xyz
1 x,y,z
2 -x,-y,1/2+z
3 1/2-x,1/2+y,1/2+z
4 1/2+x,1/2-y,z
_cell_length_a                   22.573(3)
_cell_length_b                   6.1208(5)
_cell_length_c                   17.881(2)
_cell_angle_alpha                90
_cell_angle_beta                 90
_cell_angle_gamma                90
_cell_volume                     2470.53
loop_
_atom_site_label
_atom_site_type_symbol
_atom_site_fract_x
_atom_site_fract_y
_atom_site_fract_z
Zn1 Zn 0.62829(5) 0.0339(1) 0.00058(8)
O1 O 0.6481(2) 0.1371(7) 0.1056(3)
N1 N 0.5867(2) 0.4223(7) 0.0738(2)
N2 N 0.5755(2) 0.2995(6) 0.0087(4)
C1 C 0.6226(3) 0.654(1) 0.2047(4)
O2 O 0.5499(2) 0.8012(6) 0.0446(3)
C2 C 0.6468(4) 0.776(1) 0.2624(4)
C3 C 0.6954(4) 0.703(2) 0.2999(4)
C4 C 0.7208(3) 0.502(2) 0.2814(5)
C5 C 0.6971(3) 0.379(1) 0.2229(4)
C6 C 0.6476(3) 0.453(1) 0.1849(4)
C7 C 0.6266(3) 0.3265(9) 0.1186(3)
C8 C 0.5371(2) 0.3709(9) -0.0389(4)
C9 C 0.4969(2) 0.5604(9) -0.0401(3)
C10 C 0.5033(3) 0.7567(7) 0.0005(5)
C11 C 0.4586(2) 0.9142(8) -0.0059(4)
C12 C 0.4119(3) 0.890(1) -0.0546(5)
C13 C 0.4072(3) 0.704(1) -0.0975(5)
C14 C 0.4495(3) 0.545(1) -0.0899(4)
O3 O 0.6078(2) -0.0674(6) -0.1051(3)
N3 N 0.6675(2) -0.3557(8) -0.0733(3)
N4 N 0.6793(2) -0.2402(6) -0.0082(4)
C15 C 0.6294(3) -0.583(1) -0.2046(4)
O4 O 0.7032(2) -0.7361(6) -0.0474(3)
C16 C 0.6048(4) -0.696(1) -0.2636(6)
C17 C 0.5578(5) -0.611(2) -0.3038(5)
C18 C 0.5352(4) -0.410(2) -0.2839(5)
C19 C 0.5592(3) -0.295(1) -0.2248(4)
C20 C 0.6061(3) -0.379(1) -0.1849(4)
C21 C 0.6282(3) -0.2582(9) -0.1183(3)
C22 C 0.7176(2) -0.3142(9) 0.0388(4)
C23 C 0.7567(2) -0.5065(9) 0.0396(3)
C24 C 0.7499(2) -0.7006(7) -0.0042(4)
C25 C 0.7941(2) -0.8615(8) 0.0023(5)
C26 C 0.8384(3) -0.845(1) 0.0544(4)
C27 C 0.8433(3) -0.660(1) 0.0984(4)
C28 C 0.8035(3) -0.494(1) 0.0909(4)
O2_2 O 0.5499(2) -0.1988(6) 0.0446(3)
O4_2 O 0.7032(2) 0.2639(6) -0.0474(3)
Zn1_2 Zn 0.62829(5) 1.0339(1) 0.00058(8)
Zn1_3 Zn 0.62829(5) -0.9661(1) 0.00058(8)
loop_
_geom_bond_atom_site_label_1
_geom_bond_atom_site_label_2
_geom_bond_site_symmetry_1
_geom_bond_site_symmetry_2
Zn1 O1 1_555 1_555
O1 C7 1_555 1_555
N1 N2 1_555 1_555
N2 Zn1 1_555 1_555
C1 C2 1_555 1_555
O2 C10 1_555 1_555
C2 C3 1_555 1_555
C3 C4 1_555 1_555
C4 C5 1_555 1_555
C5 C6 1_555 1_555
C6 C1 1_555 1_555
C7 N1 1_555 1_555
C8 N2 1_555 1_555
C9 C8 1_555 1_555
C10 C9 1_555 1_555
C11 C10 1_555 1_555
C12 C11 1_555 1_555
C13 C12 1_555 1_555
C14 C9 1_555 1_555
O3 Zn1 1_555 1_555
N3 N4 1_555 1_555
N4 Zn1 1_555 1_555
C15 C16 1_555 1_555
O4 C24 1_555 1_555
C16 C17 1_555 1_555
C17 C18 1_555 1_555
C18 C19 1_555 1_555
C19 C20 1_555 1_555
C20 C15 1_555 1_555
C21 O3 1_555 1_555
C22 N4 1_555 1_555
C23 C22 1_555 1_555
C24 C23 1_555 1_555
C25 C24 1_555 1_555
C26 C25 1_555 1_555
C27 C26 1_555 1_555
C28 C23 1_555 1_555
O2_2 Zn1 1_555 1_555
O4_2 Zn1 1_555 1_555
Zn1_2 O2 1_555 1_555
Zn1_3 O4 1_555 1_555
C6 C7 1_555 1_555
C13 C14 1_555 1_555
N3 C21 1_555 1_555
C20 C21 1_555 1_555
C27 C28 1_555 1_555

#END
