
#######################################################################
#
#                 Cambridge Crystallographic Data Centre
#                                CCDC 
#
#######################################################################
#
# If this CIF has been generated from an entry in the Cambridge 
# Structural Database, then it will include bibliographic, chemical, 
# crystal, experimental, refinement or atomic coordinate data resulting 
# from the CCDC's data processing and validation procedures.
#
#######################################################################

data_XOKHEL
_symmetry_cell_setting           orthorhombic
_symmetry_space_group_name_H-M   'P b c m'
_symmetry_Int_Tables_number      57
_space_group_name_Hall           '-P 2c 2b'
loop_
_symmetry_equiv_pos_site_id
_symmetry_equiv_pos_as_xyz
1 x,y,z
2 -x,-y,1/2+z
3 -x,1/2+y,1/2-z
4 x,1/2-y,-z
5 -x,-y,-z
6 x,y,1/2-z
7 x,1/2-y,1/2+z
8 -x,1/2+y,z
_cell_length_a                   4.7932(3)
_cell_length_b                   9.8283(6)
_cell_length_c                   13.7334(8)
_cell_angle_alpha                90
_cell_angle_beta                 90
_cell_angle_gamma                90
_cell_volume                     646.967
loop_
_atom_site_label
_atom_site_type_symbol
_atom_site_fract_x
_atom_site_fract_y
_atom_site_fract_z
N1 N 0.5554(4) 0.44262(18) 0.63076(11)
H1 H 0.6352 0.5210 0.6501
H2 H 0.6944 0.3840 0.6173
C1 C 0.4052(4) 0.4700(2) 0.53913(13)
H3 H 0.2536 0.5329 0.5519
H4 H 0.3248 0.3858 0.5152
O1 O -0.4017(4) 0.1920(2) 0.7500
O2 O -0.0395(5) 0.0243(2) 0.7500
Co1 Co 0.32959(8) 0.36370(4) 0.7500
S1 S -0.09693(15) 0.17224(7) 0.7500
O3 O 0.0342(3) 0.23685(14) 0.83643(10)
N1D N 0.4446(4) 0.55738(18) 0.36924(11)
N1E N 0.5554(4) 0.44262(18) 0.86924(11)
H1D H 0.3648 0.4790 0.3499
H2D H 0.3056 0.6160 0.3827
C1D C 0.5948(4) 0.5300(2) 0.46087(13)
H3D H 0.7464 0.4671 0.4481
H4D H 0.6752 0.6142 0.4848
O1_2 O 0.5983(4) 0.1920(2) 0.7500
O2B O 0.0395(5) 0.5243(2) 0.7500
Co1_2 Co -0.67041(8) 0.36370(4) 0.7500
Co1A Co 0.67041(8) 0.63630(4) 0.2500
Co1B Co -0.32959(8) -0.13630(4) 0.7500
O3E O 0.0342(3) 0.23685(14) 0.66357(10)
loop_
_geom_bond_atom_site_label_1
_geom_bond_atom_site_label_2
_geom_bond_site_symmetry_1
_geom_bond_site_symmetry_2
N1 H1 1_555 1_555
H2 N1 1_555 1_555
C1 N1 1_555 1_555
H3 C1 1_555 1_555
H4 C1 1_555 1_555
O1 S1 1_555 1_555
O2 S1 1_555 1_555
Co1 N1 1_555 1_555
S1 O3 1_555 1_555
O3 Co1 1_555 1_555
N1D H1D 1_555 1_555
N1E Co1 1_555 1_555
H2D N1D 1_555 1_555
C1D C1 1_555 1_555
H3D C1D 1_555 1_555
H4D C1D 1_555 1_555
O1_2 Co1 1_555 1_555
O2B Co1 1_555 1_555
Co1_2 O1 1_555 1_555
Co1A N1D 1_555 1_555
Co1B O2 1_555 1_555
O3E Co1 1_555 1_555
S1 O3E 1_555 1_555
N1D C1D 1_555 1_555

#END
