
#######################################################################
#
#                 Cambridge Crystallographic Data Centre
#                                CCDC 
#
#######################################################################
#
# If this CIF has been generated from an entry in the Cambridge 
# Structural Database, then it will include bibliographic, chemical, 
# crystal, experimental, refinement or atomic coordinate data resulting 
# from the CCDC's data processing and validation procedures.
#
#######################################################################

data_XOKHOW
_symmetry_cell_setting           monoclinic
_symmetry_space_group_name_H-M   'C 2'
_symmetry_Int_Tables_number      5
_space_group_name_Hall           'C 2y'
loop_
_symmetry_equiv_pos_site_id
_symmetry_equiv_pos_as_xyz
1 x,y,z
2 -x,y,-z
3 1/2+x,1/2+y,z
4 1/2-x,1/2+y,-z
_cell_length_a                   14.400(3)
_cell_length_b                   37.700(8)
_cell_length_c                   27.200(5)
_cell_angle_alpha                90
_cell_angle_beta                 100.00(3)
_cell_angle_gamma                90
_cell_volume                     14542
loop_
_atom_site_label
_atom_site_type_symbol
_atom_site_fract_x
_atom_site_fract_y
_atom_site_fract_z
Zn1 Zn 0.70002(9) 0.40655(3) 0.24044(4)
Zn2 Zn -0.19692(9) 0.61674(3) 0.25873(4)
Fe1 Fe 0.61251(14) 0.15511(4) -0.01436(5)
Fe2 Fe -0.38489(13) 0.36847(4) 0.48491(5)
O1 O 0.6568(6) 0.1065(2) -0.0051(2)
O2 O 0.6966(6) 0.1712(2) 0.0458(3)
O3 O 0.5000 0.1611(3) 0.0000
O4 O -0.3472(6) 0.41680(17) 0.49187(19)
O5 O -0.2967(6) 0.35385(17) 0.5401(3)
O6 O -0.5000 0.3703(3) 0.5000
O7 O 0.5874(5) 0.4259(2) 0.2569(3)
O8 O 0.5308(5) 0.4292(2) 0.1770(3)
O9 O 0.8042(5) 0.4407(2) 0.3018(2)
O10 O 0.7638(5) 0.3886(2) 0.3055(2)
O11 O -0.0275(7) 0.5985(3) 0.3230(3)
O12 O -0.0818(5) 0.59710(14) 0.24064(19)
O13 O -0.2825(8) 0.6257(5) 0.1921(4)
H1 H -0.3371 0.6211 0.1945
N1 N 0.6232(7) 0.2074(2) -0.0430(3)
N2 N 0.5944(7) 0.1483(2) -0.0923(3)
N3 N -0.3873(6) 0.3753(2) 0.4092(3)
N4 N -0.3844(8) 0.3175(2) 0.4611(3)
C1 C 0.6227(10) 0.2106(3) -0.0953(3)
H2 H 0.6870 0.2072 -0.1016
C2 C 0.5659(12) 0.1825(3) -0.1174(4)
H3 H 0.5017 0.1874 -0.1119
C3 C 0.5624(12) 0.1827(4) -0.1742(3)
H4 H 0.6253 0.1790 -0.1815
H5 H 0.5225 0.1635 -0.1893
C4 C 0.5262(12) 0.2159(3) -0.1954(4)
H6 H 0.5352 0.2161 -0.2300
H7 H 0.4587 0.2158 -0.1959
C5 C 0.5618(14) 0.2481(4) -0.1738(5)
H8 H 0.5153 0.2666 -0.1834
H9 H 0.6180 0.2544 -0.1870
C6 C 0.5861(12) 0.2465(3) -0.1165(4)
H10 H 0.6335 0.2643 -0.1052
H11 H 0.5301 0.2525 -0.1029
C7 C 0.6090(9) 0.1186(3) -0.1144(4)
H12 H 0.6002 0.1186 -0.1491
C8 C 0.6732(5) 0.04549(15) -0.01737(13)
C9 C 0.6502(5) 0.07906(13) -0.03689(17)
C10 C 0.6389(6) 0.08468(13) -0.08809(18)
C11 C 0.6506(6) 0.05672(16) -0.11978(13)
H13 H 0.6430 0.0605 -0.1540
C12 C 0.6735(6) 0.02314(14) -0.10026(18)
C13 C 0.6848(5) 0.01753(12) -0.04906(19)
H14 H 0.7002 -0.0049 -0.0360
C14 C 0.7156(4) -0.06659(10) -0.15161(19)
H15 H 0.7032 -0.0901 -0.1448
C15 C 0.6908(5) -0.03968(14) -0.12144(17)
H16 H 0.6618 -0.0452 -0.0944
C16 C 0.7094(5) -0.00452(12) -0.13166(18)
C17 C 0.7528(5) 0.00374(10) -0.17205(19)
H17 H 0.7652 0.0273 -0.1789
C18 C 0.7776(4) -0.02317(13) -0.20221(16)
H18 H 0.8066 -0.0177 -0.2292
N5 N 0.7590(4) -0.05834(11) -0.19199(17)
C19 C 0.6862(11) 0.0388(3) 0.0388(4)
C20 C 0.6935(12) -0.0010(3) 0.0516(4)
H19 H 0.7453 -0.0112 0.0386
H20 H 0.6360 -0.0127 0.0371
H21 H 0.7037 -0.0040 0.0872
C21 C 0.7762(10) 0.0577(3) 0.0651(5)
H22 H 0.8306 0.0449 0.0589
H23 H 0.7762 0.0586 0.1004
H24 H 0.7778 0.0814 0.0523
C22 C 0.6028(10) 0.0535(3) 0.0604(5)
H25 H 0.6069 0.0455 0.0942
H26 H 0.5450 0.0452 0.0408
H27 H 0.6042 0.0789 0.0597
C23 C 0.6374(9) 0.2327(3) -0.0133(4)
H28 H 0.6278 0.2552 -0.0272
C24 C 0.6677(5) 0.2313(2) 0.04179(17)
C25 C 0.6625(5) 0.26254(16) 0.0683(2)
H29 H 0.6437 0.2835 0.0514
C26 C 0.6852(6) 0.26245(16) 0.1201(2)
C27 C 0.7133(6) 0.2311(2) 0.14539(17)
H30 H 0.7285 0.2311 0.1800
C28 C 0.7185(7) 0.19991(16) 0.1188(2)
C29 C 0.6957(6) 0.20000(16) 0.0670(2)
C30 C 0.7450(5) 0.33383(14) 0.22186(18)
H31 H 0.7846 0.3372 0.2523
C31 C 0.7481(5) 0.30214(13) 0.1961(2)
H32 H 0.7898 0.2843 0.2093
C32 C 0.6889(5) 0.29704(13) 0.1505(2)
C33 C 0.6266(4) 0.32364(18) 0.1308(2)
H33 H 0.5870 0.3202 0.1003
C34 C 0.6235(4) 0.35533(15) 0.1565(2)
H34 H 0.5818 0.3731 0.1433
N6 N 0.6827(4) 0.36043(11) 0.20208(18)
C35 C 0.7449(10) 0.1650(3) 0.1508(4)
C36 C 0.7603(11) 0.1699(3) 0.2078(4)
H35 H 0.7044 0.1798 0.2172
H36 H 0.8124 0.1857 0.2179
H37 H 0.7738 0.1474 0.2239
C37 C 0.8349(10) 0.1522(3) 0.1401(4)
H38 H 0.8762 0.1720 0.1383
H39 H 0.8248 0.1398 0.1089
H40 H 0.8631 0.1365 0.1662
C38 C 0.6650(10) 0.1377(3) 0.1351(5)
H41 H 0.6916 0.1144 0.1347
H42 H 0.6316 0.1435 0.1024
H43 H 0.6222 0.1383 0.1585
C39 C -0.3982(10) 0.3423(3) 0.3783(4)
H44 H -0.3332 0.3347 0.3779
C40 C -0.4380(8) 0.3133(2) 0.4072(3)
H45 H -0.5052 0.3178 0.4067
C41 C -0.4262(10) 0.2756(3) 0.3839(4)
H46 H -0.4621 0.2577 0.3982
H47 H -0.3605 0.2685 0.3888
C42 C -0.4674(14) 0.2818(3) 0.3263(4)
H48 H -0.4666 0.2590 0.3100
H49 H -0.5331 0.2883 0.3243
C43 C -0.4288(12) 0.3059(3) 0.2978(4)
H50 H -0.4612 0.3051 0.2634
H51 H -0.3625 0.3007 0.2985
C44 C -0.4418(9) 0.3458(3) 0.3231(3)
H52 H -0.4095 0.3639 0.3071
H53 H -0.5080 0.3521 0.3193
C45 C -0.3691(7) 0.2888(3) 0.4912(4)
H54 H -0.3793 0.2662 0.4774
C46 C -0.3382(5) 0.29225(19) 0.54245(17)
C47 C -0.3041(6) 0.32319(15) 0.5669(3)
C48 C -0.2714(6) 0.32276(17) 0.6181(3)
C49 C -0.2728(5) 0.2914(2) 0.64480(19)
H55 H -0.2509 0.2911 0.6790
C50 C -0.3069(6) 0.26044(16) 0.6203(2)
C51 C -0.3396(5) 0.26087(15) 0.5691(2)
H56 H -0.3624 0.2402 0.5528
C52 C -0.2450(4) 0.1922(2) 0.7205(2)
H57 H -0.2011 0.1900 0.7497
C53 C -0.2488(5) 0.22324(18) 0.6925(3)
H58 H -0.2075 0.2418 0.7031
C54 C -0.3144(5) 0.22654(15) 0.6488(3)
C55 C -0.3761(5) 0.19885(18) 0.63302(19)
H59 H -0.4200 0.2011 0.6038
C56 C -0.3723(4) 0.16786(16) 0.6610(2)
H60 H -0.4136 0.1493 0.6504
N7 N -0.3067(4) 0.16456(16) 0.70472(19)
C57 C -0.2257(10) 0.3567(3) 0.6459(4)
C58 C -0.3013(9) 0.3856(3) 0.6400(4)
H61 H -0.3576 0.3764 0.6497
H62 H -0.3150 0.3930 0.6057
H63 H -0.2789 0.4055 0.6607
C59 C -0.1407(9) 0.3690(3) 0.6256(4)
H64 H -0.1461 0.3616 0.5914
H65 H -0.0850 0.3588 0.6449
H66 H -0.1367 0.3944 0.6274
C60 C -0.1972(9) 0.3492(3) 0.7027(4)
H67 H -0.1498 0.3310 0.7078
H68 H -0.2515 0.3414 0.7158
H69 H -0.1726 0.3704 0.7196
C61 C -0.3776(8) 0.4037(3) 0.3873(3)
H70 H -0.3830 0.4027 0.3527
C62 C -0.3223(5) 0.47591(15) 0.48048(14)
C63 C -0.3122(5) 0.50407(12) 0.4488(2)
H71 H -0.2965 0.5265 0.4620
C64 C -0.3257(5) 0.49874(13) 0.39752(19)
C65 C -0.3493(4) 0.46526(16) 0.37784(14)
H72 H -0.3583 0.4617 0.3435
C66 C -0.3594(5) 0.43710(12) 0.40948(19)
C67 C -0.3459(5) 0.44242(13) 0.46080(18)
C68 C -0.2453(5) 0.58665(13) 0.3521(2)
H73 H -0.2185 0.6076 0.3660
C69 C -0.2729(6) 0.56051(16) 0.38258(16)
H74 H -0.2645 0.5640 0.4169
C70 C -0.3129(5) 0.52921(14) 0.36177(19)
C71 C -0.3254(5) 0.52405(14) 0.3104(2)
H75 H -0.3522 0.5031 0.2965
C72 C -0.2978(6) 0.55019(16) 0.27993(15)
H76 H -0.3062 0.5467 0.2456
N8 N -0.2578(5) 0.58149(13) 0.3007(2)
C73 C -0.3123(7) 0.4840(2) 0.5387(3)
C74 C -0.4021(8) 0.4736(3) 0.5579(3)
H77 H -0.4508 0.4906 0.5465
H78 H -0.3898 0.4732 0.5937
H79 H -0.4221 0.4505 0.5455
C75 C -0.2255(8) 0.4637(3) 0.5645(3)
H80 H -0.2261 0.4624 0.5997
H81 H -0.1695 0.4758 0.5590
H82 H -0.2262 0.4402 0.5510
C76 C -0.2964(9) 0.5238(3) 0.5498(3)
H83 H -0.2863 0.5276 0.5853
H84 H -0.3508 0.5369 0.5343
H85 H -0.2421 0.5317 0.5368
C77 C 0.5272(7) 0.4357(3) 0.2200(4)
C78 C 0.4176(5) 0.45812(18) 0.2745(2)
H86 H 0.4492 0.4435 0.2994
C79 C 0.3435(5) 0.4792(2) 0.2838(2)
H87 H 0.3254 0.4787 0.3150
C80 C 0.2962(5) 0.5011(2) 0.2465(2)
C81 C 0.3232(6) 0.5019(2) 0.1999(2)
H88 H 0.2916 0.5165 0.1749
C82 C 0.3974(6) 0.4808(2) 0.19054(18)
H89 H 0.4154 0.4813 0.1593
C83 C 0.4446(5) 0.4589(2) 0.2278(2)
C84 C 0.0632(5) 0.5664(2) 0.2687(3)
C85 C 0.0799(5) 0.55931(19) 0.2209(2)
H90 H 0.0399 0.5685 0.1933
C86 C 0.1566(5) 0.5385(2) 0.21427(18)
H91 H 0.1678 0.5338 0.1823
C87 C 0.2164(5) 0.5248(2) 0.2555(2)
C88 C 0.1997(6) 0.5319(3) 0.3033(2)
H92 H 0.2397 0.5227 0.3309
C89 C 0.1230(6) 0.5526(3) 0.30998(19)
H93 H 0.1118 0.5574 0.3420
C90 C -0.0208(8) 0.5889(3) 0.2779(4)
C91 C 0.8151(7) 0.4117(3) 0.3224(3)
C92 C 0.8646(4) 0.40822(16) 0.37743(16)
C93 C 0.9198(4) 0.43717(14) 0.39571(18)
H94 H 0.9209 0.4573 0.3760
C94 C 0.9733(4) 0.43606(14) 0.44342(19)
H95 H 1.0102 0.4554 0.4557
C95 C 0.9716(4) 0.40601(16) 0.47286(16)
C96 C 0.9164(4) 0.37706(14) 0.45458(19)
H96 H 0.9153 0.3569 0.4743
C97 C 0.8629(4) 0.37816(14) 0.4069(2)
H97 H 0.8260 0.3588 0.3946
O9A O 1.1958(5) 0.4407(2) 0.6982(2)
O10A O 1.2362(5) 0.3886(2) 0.6945(2)
C91A C 1.1849(7) 0.4117(3) 0.6776(3)
C92A C 1.1354(4) 0.40822(16) 0.62257(16)
C93A C 1.0802(4) 0.43717(14) 0.60429(18)
H94A H 1.0791 0.4573 0.6240
C94A C 1.0267(4) 0.43606(14) 0.55658(19)
H95A H 0.9898 0.4554 0.5443
C95A C 1.0284(4) 0.40601(16) 0.52714(16)
C96A C 1.0836(4) 0.37706(14) 0.54542(19)
H96A H 1.0847 0.3569 0.5257
C97A C 1.1371(4) 0.37816(14) 0.5931(2)
H97A H 1.1740 0.3588 0.6054
Zn1A Zn -1.70002(9) 0.40655(3) 0.75956(4)
Zn2A Zn -0.80308(9) 0.61674(3) 0.74127(4)
Fe1A Fe -1.61251(14) 0.15511(4) 1.01436(5)
Fe2A Fe -0.61511(13) 0.36847(4) 0.51509(5)
O1A O -1.6568(6) 0.1065(2) 1.0051(2)
O2A O -1.6966(6) 0.1712(2) 0.9542(3)
O4A O -0.6528(6) 0.41680(17) 0.50813(19)
O5A O -0.7033(6) 0.35385(17) 0.4599(3)
O7A O -1.5874(5) 0.4259(2) 0.7431(3)
O8A O -1.5308(5) 0.4292(2) 0.8230(3)
O11A O -0.9725(7) 0.5985(3) 0.6770(3)
O12A O -0.9182(5) 0.59710(14) 0.75936(19)
O13A O -0.7175(8) 0.6257(5) 0.8079(4)
H1A H -0.6629 0.6211 0.8055
N1A N -1.6232(7) 0.2074(2) 1.0430(3)
N2A N -1.5944(7) 0.1483(2) 1.0923(3)
N3A N -0.6127(6) 0.3753(2) 0.5908(3)
N4A N -0.6156(8) 0.3175(2) 0.5389(3)
C1A C -1.6227(10) 0.2106(3) 1.0953(3)
H2A H -1.6870 0.2072 1.1016
C2A C -1.5659(12) 0.1825(3) 1.1174(4)
H3A H -1.5017 0.1874 1.1119
C3A C -1.5624(12) 0.1827(4) 1.1742(3)
H4A H -1.6253 0.1790 1.1815
H5A H -1.5225 0.1635 1.1893
C4A C -1.5262(12) 0.2159(3) 1.1954(4)
H6A H -1.5352 0.2161 1.2300
H7A H -1.4587 0.2158 1.1959
C5A C -1.5618(14) 0.2481(4) 1.1738(5)
H8A H -1.5153 0.2666 1.1834
H9A H -1.6180 0.2544 1.1870
C6A C -1.5861(12) 0.2465(3) 1.1165(4)
H10A H -1.6335 0.2643 1.1052
H11A H -1.5301 0.2525 1.1029
C7A C -1.6090(9) 0.1186(3) 1.1144(4)
H12A H -1.6002 0.1186 1.1491
C8A C -1.6732(5) 0.04549(15) 1.01737(13)
C9A C -1.6502(5) 0.07906(13) 1.03689(17)
C10A C -1.6389(6) 0.08468(13) 1.08809(18)
C11A C -1.6506(6) 0.05672(16) 1.11978(13)
H13A H -1.6430 0.0605 1.1540
C12A C -1.6735(6) 0.02314(14) 1.10026(18)
C13A C -1.6848(5) 0.01753(12) 1.04906(19)
H14A H -1.7002 -0.0049 1.0360
C14A C -1.7156(4) -0.06659(10) 1.15161(19)
H15A H -1.7032 -0.0901 1.1448
C15A C -1.6908(5) -0.03968(14) 1.12144(17)
H16A H -1.6618 -0.0452 1.0944
C16A C -1.7094(5) -0.00452(12) 1.13166(18)
C17A C -1.7528(5) 0.00374(10) 1.17205(19)
H17A H -1.7652 0.0273 1.1789
C18A C -1.7776(4) -0.02317(13) 1.20221(16)
H18A H -1.8066 -0.0177 1.2292
N5A N -1.7590(4) -0.05834(11) 1.19199(17)
C19A C -1.6862(11) 0.0388(3) 0.9612(4)
C20A C -1.6935(12) -0.0010(3) 0.9484(4)
H19A H -1.7453 -0.0112 0.9614
H20A H -1.6360 -0.0127 0.9629
H21A H -1.7037 -0.0040 0.9128
C21A C -1.7762(10) 0.0577(3) 0.9349(5)
H22A H -1.8306 0.0449 0.9411
H23A H -1.7762 0.0586 0.8996
H24A H -1.7778 0.0814 0.9477
C22A C -1.6028(10) 0.0535(3) 0.9396(5)
H25A H -1.6069 0.0455 0.9058
H26A H -1.5450 0.0452 0.9592
H27A H -1.6042 0.0789 0.9403
C23A C -1.6374(9) 0.2327(3) 1.0133(4)
H28A H -1.6278 0.2552 1.0272
C24A C -1.6677(5) 0.2313(2) 0.95821(17)
C25A C -1.6625(5) 0.26254(16) 0.9317(2)
H29A H -1.6437 0.2835 0.9486
C26A C -1.6852(6) 0.26245(16) 0.8799(2)
C27A C -1.7133(6) 0.2311(2) 0.85461(17)
H30A H -1.7285 0.2311 0.8200
C28A C -1.7185(7) 0.19991(16) 0.8812(2)
C29A C -1.6957(6) 0.20000(16) 0.9330(2)
C30A C -1.7450(5) 0.33383(14) 0.77814(18)
H31A H -1.7846 0.3372 0.7477
C31A C -1.7481(5) 0.30214(13) 0.8039(2)
H32A H -1.7898 0.2843 0.7907
C32A C -1.6889(5) 0.29704(13) 0.8495(2)
C33A C -1.6266(4) 0.32364(18) 0.8692(2)
H33A H -1.5870 0.3202 0.8997
C34A C -1.6235(4) 0.35533(15) 0.8435(2)
H34A H -1.5818 0.3731 0.8567
N6A N -1.6827(4) 0.36043(11) 0.79792(18)
C35A C -1.7449(10) 0.1650(3) 0.8492(4)
C36A C -1.7603(11) 0.1699(3) 0.7922(4)
H35A H -1.7044 0.1798 0.7828
H36A H -1.8124 0.1857 0.7821
H37A H -1.7738 0.1474 0.7761
C37A C -1.8349(10) 0.1522(3) 0.8599(4)
H38A H -1.8762 0.1720 0.8617
H39A H -1.8248 0.1398 0.8911
H40A H -1.8631 0.1365 0.8338
C38A C -1.6650(10) 0.1377(3) 0.8649(5)
H41A H -1.6916 0.1144 0.8653
H42A H -1.6316 0.1435 0.8976
H43A H -1.6222 0.1383 0.8415
C39A C -0.6018(10) 0.3423(3) 0.6217(4)
H44A H -0.6668 0.3347 0.6221
C40A C -0.5620(8) 0.3133(2) 0.5928(3)
H45A H -0.4948 0.3178 0.5933
C41A C -0.5738(10) 0.2756(3) 0.6161(4)
H46A H -0.5379 0.2577 0.6018
H47A H -0.6395 0.2685 0.6112
C42A C -0.5326(14) 0.2818(3) 0.6737(4)
H48A H -0.5334 0.2590 0.6900
H49A H -0.4669 0.2883 0.6757
C43A C -0.5712(12) 0.3059(3) 0.7022(4)
H50A H -0.5388 0.3051 0.7366
H51A H -0.6375 0.3007 0.7015
C44A C -0.5582(9) 0.3458(3) 0.6769(3)
H52A H -0.5905 0.3639 0.6929
H53A H -0.4920 0.3521 0.6807
C45A C -0.6309(7) 0.2888(3) 0.5088(4)
H54A H -0.6207 0.2662 0.5226
C46A C -0.6618(5) 0.29225(19) 0.45755(17)
C47A C -0.6959(6) 0.32319(15) 0.4331(3)
C48A C -0.7286(6) 0.32276(17) 0.3819(3)
C49A C -0.7272(5) 0.2914(2) 0.35520(19)
H55A H -0.7491 0.2911 0.3210
C50A C -0.6931(6) 0.26044(16) 0.3797(2)
C51A C -0.6604(5) 0.26087(15) 0.4309(2)
H56A H -0.6376 0.2402 0.4472
C52A C -0.7550(4) 0.1922(2) 0.2795(2)
H57A H -0.7989 0.1900 0.2503
C53A C -0.7512(5) 0.22324(18) 0.3075(3)
H58A H -0.7925 0.2418 0.2969
C54A C -0.6856(5) 0.22654(15) 0.3512(3)
C55A C -0.6239(5) 0.19885(18) 0.36698(19)
H59A H -0.5800 0.2011 0.3962
C56A C -0.6277(4) 0.16786(16) 0.3390(2)
H60A H -0.5864 0.1493 0.3496
N7A N -0.6933(4) 0.16456(16) 0.29528(19)
C57A C -0.7743(10) 0.3567(3) 0.3541(4)
C58A C -0.6987(9) 0.3856(3) 0.3600(4)
H61A H -0.6424 0.3764 0.3503
H62A H -0.6850 0.3930 0.3943
H63A H -0.7211 0.4055 0.3393
C59A C -0.8593(9) 0.3690(3) 0.3744(4)
H64A H -0.8539 0.3616 0.4086
H65A H -0.9150 0.3588 0.3551
H66A H -0.8633 0.3944 0.3726
C60A C -0.8028(9) 0.3492(3) 0.2973(4)
H67A H -0.8502 0.3310 0.2922
H68A H -0.7485 0.3414 0.2842
H69A H -0.8274 0.3704 0.2804
C61A C -0.6224(8) 0.4037(3) 0.6127(3)
H70A H -0.6170 0.4027 0.6473
C62A C -0.6777(5) 0.47591(15) 0.51952(14)
C63A C -0.6878(5) 0.50407(12) 0.5512(2)
H71A H -0.7035 0.5265 0.5380
C64A C -0.6743(5) 0.49874(13) 0.60248(19)
C65A C -0.6507(4) 0.46526(16) 0.62216(14)
H72A H -0.6417 0.4617 0.6565
C66A C -0.6406(5) 0.43710(12) 0.59052(19)
C67A C -0.6541(5) 0.44242(13) 0.53920(18)
C68A C -0.7547(5) 0.58665(13) 0.6479(2)
H73A H -0.7815 0.6076 0.6340
C69A C -0.7271(6) 0.56051(16) 0.61742(16)
H74A H -0.7355 0.5640 0.5831
C70A C -0.6871(5) 0.52921(14) 0.63823(19)
C71A C -0.6746(5) 0.52405(14) 0.6896(2)
H75A H -0.6478 0.5031 0.7035
C72A C -0.7022(6) 0.55019(16) 0.72007(15)
H76A H -0.6938 0.5467 0.7544
N8A N -0.7422(5) 0.58149(13) 0.6993(2)
C73A C -0.6877(7) 0.4840(2) 0.4613(3)
C74A C -0.5979(8) 0.4736(3) 0.4421(3)
H77A H -0.5492 0.4906 0.4535
H78A H -0.6102 0.4732 0.4063
H79A H -0.5779 0.4505 0.4545
C75A C -0.7745(8) 0.4637(3) 0.4355(3)
H80A H -0.7739 0.4624 0.4003
H81A H -0.8305 0.4758 0.4410
H82A H -0.7738 0.4402 0.4490
C76A C -0.7036(9) 0.5238(3) 0.4502(3)
H83A H -0.7137 0.5276 0.4147
H84A H -0.6492 0.5369 0.4657
H85A H -0.7579 0.5317 0.4632
C77A C -1.5272(7) 0.4357(3) 0.7800(4)
C78A C -1.4176(5) 0.45812(18) 0.7255(2)
H86A H -1.4492 0.4435 0.7006
C79A C -1.3435(5) 0.4792(2) 0.7162(2)
H87A H -1.3254 0.4787 0.6850
C80A C -1.2962(5) 0.5011(2) 0.7535(2)
C81A C -1.3232(6) 0.5019(2) 0.8001(2)
H88A H -1.2916 0.5165 0.8251
C82A C -1.3974(6) 0.4808(2) 0.80946(18)
H89A H -1.4154 0.4813 0.8407
C83A C -1.4446(5) 0.4589(2) 0.7722(2)
C84A C -1.0632(5) 0.5664(2) 0.7313(3)
C85A C -1.0799(5) 0.55931(19) 0.7791(2)
H90A H -1.0399 0.5685 0.8067
C86A C -1.1566(5) 0.5385(2) 0.78573(18)
H91A H -1.1678 0.5338 0.8177
C87A C -1.2164(5) 0.5248(2) 0.7445(2)
C88A C -1.1997(6) 0.5319(3) 0.6967(2)
H92A H -1.2397 0.5227 0.6691
C89A C -1.1230(6) 0.5526(3) 0.69002(19)
H93A H -1.1118 0.5574 0.6580
C90A C -0.9792(8) 0.5889(3) 0.7221(4)
Zn1A_2 Zn 1.29998(9) 0.40655(3) 0.75956(4)
Zn1B Zn -1.79998(9) -0.09345(3) 1.24044(4)
Zn1C Zn 0.79998(9) -0.09345(3) -0.24044(4)
Zn2B Zn -0.69692(9) 0.11674(3) 0.25873(4)
Zn2C Zn -0.30308(9) 0.11674(3) 0.74127(4)
Fe1A_2 Fe 0.38749(14) 0.15511(4) 0.01436(5)
O3_2 O -1.5000 0.1611(3) 1.0000
O9A_2 O -1.8042(5) 0.4407(2) 0.6982(2)
O10A_2 O -1.7638(5) 0.3886(2) 0.6945(2)
N5B N -1.7410(4) 0.44166(11) 0.80801(17)
N5C N 0.7410(4) 0.44166(11) 0.19199(17)
N7B N -0.8067(4) 0.66456(16) 0.70472(19)
N7C N -0.1933(4) 0.66456(16) 0.29528(19)
loop_
_geom_bond_atom_site_label_1
_geom_bond_atom_site_label_2
_geom_bond_site_symmetry_1
_geom_bond_site_symmetry_2
Zn1 O7 1_555 1_555
Zn2 O12 1_555 1_555
Fe1 O1 1_555 1_555
Fe2 O4 1_555 1_555
O1 C9 1_555 1_555
O2 Fe1 1_555 1_555
O3 Fe1 1_555 1_555
O4 C67 1_555 1_555
O5 Fe2 1_555 1_555
O6 Fe2 1_555 1_555
O7 C77 1_555 1_555
O8 C77 1_555 1_555
O9 Zn1 1_555 1_555
O10 Zn1 1_555 1_555
O11 C90 1_555 1_555
O12 C90 1_555 1_555
O13 Zn2 1_555 1_555
H1 O13 1_555 1_555
N1 Fe1 1_555 1_555
N2 Fe1 1_555 1_555
N3 Fe2 1_555 1_555
N4 Fe2 1_555 1_555
C1 N1 1_555 1_555
H2 C1 1_555 1_555
C2 N2 1_555 1_555
H3 C2 1_555 1_555
C3 C2 1_555 1_555
H4 C3 1_555 1_555
H5 C3 1_555 1_555
C4 C3 1_555 1_555
H6 C4 1_555 1_555
H7 C4 1_555 1_555
C5 C4 1_555 1_555
H8 C5 1_555 1_555
H9 C5 1_555 1_555
C6 C1 1_555 1_555
H10 C6 1_555 1_555
H11 C6 1_555 1_555
C7 N2 1_555 1_555
H12 C7 1_555 1_555
C8 C9 1_555 1_555
C9 C10 1_555 1_555
C10 C7 1_555 1_555
C11 C10 1_555 1_555
H13 C11 1_555 1_555
C12 C11 1_555 1_555
C13 C8 1_555 1_555
H14 C13 1_555 1_555
C14 H15 1_555 1_555
C15 C14 1_555 1_555
H16 C15 1_555 1_555
C16 C12 1_555 1_555
C17 C16 1_555 1_555
H17 C17 1_555 1_555
C18 C17 1_555 1_555
H18 C18 1_555 1_555
N5 C14 1_555 1_555
C19 C8 1_555 1_555
C20 C19 1_555 1_555
H19 C20 1_555 1_555
H20 C20 1_555 1_555
H21 C20 1_555 1_555
C21 C19 1_555 1_555
H22 C21 1_555 1_555
H23 C21 1_555 1_555
H24 C21 1_555 1_555
C22 C19 1_555 1_555
H25 C22 1_555 1_555
H26 C22 1_555 1_555
H27 C22 1_555 1_555
C23 N1 1_555 1_555
H28 C23 1_555 1_555
C24 C23 1_555 1_555
C25 C24 1_555 1_555
H29 C25 1_555 1_555
C26 C25 1_555 1_555
C27 C26 1_555 1_555
H30 C27 1_555 1_555
C28 C27 1_555 1_555
C29 O2 1_555 1_555
C30 H31 1_555 1_555
C31 C30 1_555 1_555
H32 C31 1_555 1_555
C32 C26 1_555 1_555
C33 C32 1_555 1_555
H33 C33 1_555 1_555
C34 C33 1_555 1_555
H34 C34 1_555 1_555
N6 Zn1 1_555 1_555
C35 C28 1_555 1_555
C36 C35 1_555 1_555
H35 C36 1_555 1_555
H36 C36 1_555 1_555
H37 C36 1_555 1_555
C37 C35 1_555 1_555
H38 C37 1_555 1_555
H39 C37 1_555 1_555
H40 C37 1_555 1_555
C38 C35 1_555 1_555
H41 C38 1_555 1_555
H42 C38 1_555 1_555
H43 C38 1_555 1_555
C39 N3 1_555 1_555
H44 C39 1_555 1_555
C40 N4 1_555 1_555
H45 C40 1_555 1_555
C41 C40 1_555 1_555
H46 C41 1_555 1_555
H47 C41 1_555 1_555
C42 C41 1_555 1_555
H48 C42 1_555 1_555
H49 C42 1_555 1_555
C43 C42 1_555 1_555
H50 C43 1_555 1_555
H51 C43 1_555 1_555
C44 C39 1_555 1_555
H52 C44 1_555 1_555
H53 C44 1_555 1_555
C45 N4 1_555 1_555
H54 C45 1_555 1_555
C46 C45 1_555 1_555
C47 O5 1_555 1_555
C48 C47 1_555 1_555
C49 C48 1_555 1_555
H55 C49 1_555 1_555
C50 C49 1_555 1_555
C51 C46 1_555 1_555
H56 C51 1_555 1_555
C52 H57 1_555 1_555
C53 C52 1_555 1_555
H58 C53 1_555 1_555
C54 C50 1_555 1_555
C55 C54 1_555 1_555
H59 C55 1_555 1_555
C56 C55 1_555 1_555
H60 C56 1_555 1_555
N7 C52 1_555 1_555
C57 C48 1_555 1_555
C58 C57 1_555 1_555
H61 C58 1_555 1_555
H62 C58 1_555 1_555
H63 C58 1_555 1_555
C59 C57 1_555 1_555
H64 C59 1_555 1_555
H65 C59 1_555 1_555
H66 C59 1_555 1_555
C60 C57 1_555 1_555
H67 C60 1_555 1_555
H68 C60 1_555 1_555
H69 C60 1_555 1_555
C61 N3 1_555 1_555
H70 C61 1_555 1_555
C62 C63 1_555 1_555
C63 H71 1_555 1_555
C64 C63 1_555 1_555
C65 C64 1_555 1_555
H72 C65 1_555 1_555
C66 C61 1_555 1_555
C67 C62 1_555 1_555
C68 H73 1_555 1_555
C69 C68 1_555 1_555
H74 C69 1_555 1_555
C70 C64 1_555 1_555
C71 C70 1_555 1_555
H75 C71 1_555 1_555
C72 C71 1_555 1_555
H76 C72 1_555 1_555
N8 Zn2 1_555 1_555
C73 C62 1_555 1_555
C74 C73 1_555 1_555
H77 C74 1_555 1_555
H78 C74 1_555 1_555
H79 C74 1_555 1_555
C75 C73 1_555 1_555
H80 C75 1_555 1_555
H81 C75 1_555 1_555
H82 C75 1_555 1_555
C76 C73 1_555 1_555
H83 C76 1_555 1_555
H84 C76 1_555 1_555
H85 C76 1_555 1_555
C77 C83 1_555 1_555
C78 H86 1_555 1_555
C79 C78 1_555 1_555
H87 C79 1_555 1_555
C80 C79 1_555 1_555
C81 C80 1_555 1_555
H88 C81 1_555 1_555
C82 C81 1_555 1_555
H89 C82 1_555 1_555
C83 C78 1_555 1_555
C84 C85 1_555 1_555
C85 H90 1_555 1_555
C86 C85 1_555 1_555
H91 C86 1_555 1_555
C87 C80 1_555 1_555
C88 C87 1_555 1_555
H92 C88 1_555 1_555
C89 C84 1_555 1_555
H93 C89 1_555 1_555
C90 C84 1_555 1_555
C91 O9 1_555 1_555
C92 C91 1_555 1_555
C93 C92 1_555 1_555
H94 C93 1_555 1_555
C94 C93 1_555 1_555
H95 C94 1_555 1_555
C95 C94 1_555 1_555
C96 C95 1_555 1_555
H96 C96 1_555 1_555
C97 C92 1_555 1_555
H97 C97 1_555 1_555
O9A C91A 1_555 1_555
O10A C91A 1_555 1_555
C91A C92A 1_555 1_555
C92A C93A 1_555 1_555
C93A H94A 1_555 1_555
C94A C93A 1_555 1_555
H95A C94A 1_555 1_555
C95A C95 1_555 1_555
C96A C95A 1_555 1_555
H96A C96A 1_555 1_555
C97A C92A 1_555 1_555
H97A C97A 1_555 1_555
Zn1A O7A 1_555 1_555
Zn2A O12A 1_555 1_555
Fe1A O1A 1_555 1_555
Fe2A O6 1_555 1_555
O1A C9A 1_555 1_555
O2A Fe1A 1_555 1_555
O4A Fe2A 1_555 1_555
O5A Fe2A 1_555 1_555
O7A C77A 1_555 1_555
O8A C77A 1_555 1_555
O11A C90A 1_555 1_555
O12A C90A 1_555 1_555
O13A Zn2A 1_555 1_555
H1A O13A 1_555 1_555
N1A Fe1A 1_555 1_555
N2A Fe1A 1_555 1_555
N3A Fe2A 1_555 1_555
N4A Fe2A 1_555 1_555
C1A N1A 1_555 1_555
H2A C1A 1_555 1_555
C2A N2A 1_555 1_555
H3A C2A 1_555 1_555
C3A C2A 1_555 1_555
H4A C3A 1_555 1_555
H5A C3A 1_555 1_555
C4A C3A 1_555 1_555
H6A C4A 1_555 1_555
H7A C4A 1_555 1_555
C5A C4A 1_555 1_555
H8A C5A 1_555 1_555
H9A C5A 1_555 1_555
C6A C1A 1_555 1_555
H10A C6A 1_555 1_555
H11A C6A 1_555 1_555
C7A N2A 1_555 1_555
H12A C7A 1_555 1_555
C8A C9A 1_555 1_555
C9A C10A 1_555 1_555
C10A C7A 1_555 1_555
C11A C10A 1_555 1_555
H13A C11A 1_555 1_555
C12A C11A 1_555 1_555
C13A C8A 1_555 1_555
H14A C13A 1_555 1_555
C14A H15A 1_555 1_555
C15A C14A 1_555 1_555
H16A C15A 1_555 1_555
C16A C12A 1_555 1_555
C17A C16A 1_555 1_555
H17A C17A 1_555 1_555
C18A C17A 1_555 1_555
H18A C18A 1_555 1_555
N5A C14A 1_555 1_555
C19A C8A 1_555 1_555
C20A C19A 1_555 1_555
H19A C20A 1_555 1_555
H20A C20A 1_555 1_555
H21A C20A 1_555 1_555
C21A C19A 1_555 1_555
H22A C21A 1_555 1_555
H23A C21A 1_555 1_555
H24A C21A 1_555 1_555
C22A C19A 1_555 1_555
H25A C22A 1_555 1_555
H26A C22A 1_555 1_555
H27A C22A 1_555 1_555
C23A N1A 1_555 1_555
H28A C23A 1_555 1_555
C24A C23A 1_555 1_555
C25A C24A 1_555 1_555
H29A C25A 1_555 1_555
C26A C25A 1_555 1_555
C27A C26A 1_555 1_555
H30A C27A 1_555 1_555
C28A C27A 1_555 1_555
C29A O2A 1_555 1_555
C30A H31A 1_555 1_555
C31A C30A 1_555 1_555
H32A C31A 1_555 1_555
C32A C26A 1_555 1_555
C33A C32A 1_555 1_555
H33A C33A 1_555 1_555
C34A C33A 1_555 1_555
H34A C34A 1_555 1_555
N6A Zn1A 1_555 1_555
C35A C28A 1_555 1_555
C36A C35A 1_555 1_555
H35A C36A 1_555 1_555
H36A C36A 1_555 1_555
H37A C36A 1_555 1_555
C37A C35A 1_555 1_555
H38A C37A 1_555 1_555
H39A C37A 1_555 1_555
H40A C37A 1_555 1_555
C38A C35A 1_555 1_555
H41A C38A 1_555 1_555
H42A C38A 1_555 1_555
H43A C38A 1_555 1_555
C39A N3A 1_555 1_555
H44A C39A 1_555 1_555
C40A N4A 1_555 1_555
H45A C40A 1_555 1_555
C41A C40A 1_555 1_555
H46A C41A 1_555 1_555
H47A C41A 1_555 1_555
C42A C41A 1_555 1_555
H48A C42A 1_555 1_555
H49A C42A 1_555 1_555
C43A C42A 1_555 1_555
H50A C43A 1_555 1_555
H51A C43A 1_555 1_555
C44A C39A 1_555 1_555
H52A C44A 1_555 1_555
H53A C44A 1_555 1_555
C45A N4A 1_555 1_555
H54A C45A 1_555 1_555
C46A C45A 1_555 1_555
C47A O5A 1_555 1_555
C48A C47A 1_555 1_555
C49A C48A 1_555 1_555
H55A C49A 1_555 1_555
C50A C49A 1_555 1_555
C51A C46A 1_555 1_555
H56A C51A 1_555 1_555
C52A H57A 1_555 1_555
C53A C52A 1_555 1_555
H58A C53A 1_555 1_555
C54A C50A 1_555 1_555
C55A C54A 1_555 1_555
H59A C55A 1_555 1_555
C56A C55A 1_555 1_555
H60A C56A 1_555 1_555
N7A C52A 1_555 1_555
C57A C48A 1_555 1_555
C58A C57A 1_555 1_555
H61A C58A 1_555 1_555
H62A C58A 1_555 1_555
H63A C58A 1_555 1_555
C59A C57A 1_555 1_555
H64A C59A 1_555 1_555
H65A C59A 1_555 1_555
H66A C59A 1_555 1_555
C60A C57A 1_555 1_555
H67A C60A 1_555 1_555
H68A C60A 1_555 1_555
H69A C60A 1_555 1_555
C61A N3A 1_555 1_555
H70A C61A 1_555 1_555
C62A C63A 1_555 1_555
C63A H71A 1_555 1_555
C64A C63A 1_555 1_555
C65A C64A 1_555 1_555
H72A C65A 1_555 1_555
C66A C61A 1_555 1_555
C67A O4A 1_555 1_555
C68A H73A 1_555 1_555
C69A C68A 1_555 1_555
H74A C69A 1_555 1_555
C70A C64A 1_555 1_555
C71A C70A 1_555 1_555
H75A C71A 1_555 1_555
C72A C71A 1_555 1_555
H76A C72A 1_555 1_555
N8A Zn2A 1_555 1_555
C73A C62A 1_555 1_555
C74A C73A 1_555 1_555
H77A C74A 1_555 1_555
H78A C74A 1_555 1_555
H79A C74A 1_555 1_555
C75A C73A 1_555 1_555
H80A C75A 1_555 1_555
H81A C75A 1_555 1_555
H82A C75A 1_555 1_555
C76A C73A 1_555 1_555
H83A C76A 1_555 1_555
H84A C76A 1_555 1_555
H85A C76A 1_555 1_555
C77A C83A 1_555 1_555
C78A H86A 1_555 1_555
C79A C78A 1_555 1_555
H87A C79A 1_555 1_555
C80A C79A 1_555 1_555
C81A C80A 1_555 1_555
H88A C81A 1_555 1_555
C82A C81A 1_555 1_555
H89A C82A 1_555 1_555
C83A C78A 1_555 1_555
C84A C85A 1_555 1_555
C85A H90A 1_555 1_555
C86A C85A 1_555 1_555
H91A C86A 1_555 1_555
C87A C80A 1_555 1_555
C88A C87A 1_555 1_555
H92A C88A 1_555 1_555
C89A C84A 1_555 1_555
H93A C89A 1_555 1_555
C90A C84A 1_555 1_555
Zn1A_2 O9A 1_555 1_555
Zn1B N5A 1_555 1_555
Zn1C N5 1_555 1_555
Zn2B N7A 1_555 1_555
Zn2C N7 1_555 1_555
Fe1A_2 O3 1_555 1_555
O3_2 Fe1A 1_555 1_555
O9A_2 Zn1A 1_555 1_555
O10A_2 Zn1A 1_555 1_555
N5B Zn1A 1_555 1_555
N5C Zn1 1_555 1_555
N7B Zn2A 1_555 1_555
N7C Zn2 1_555 1_555
O10 C91 1_555 1_555
C1 C2 1_555 1_555
C5 C6 1_555 1_555
C12 C13 1_555 1_555
C15 C16 1_555 1_555
C18 N5 1_555 1_555
C24 C29 1_555 1_555
C28 C29 1_555 1_555
C30 N6 1_555 1_555
C31 C32 1_555 1_555
C34 N6 1_555 1_555
C39 C40 1_555 1_555
C43 C44 1_555 1_555
C46 C47 1_555 1_555
C50 C51 1_555 1_555
C53 C54 1_555 1_555
C56 N7 1_555 1_555
C65 C66 1_555 1_555
C66 C67 1_555 1_555
C68 N8 1_555 1_555
C69 C70 1_555 1_555
C72 N8 1_555 1_555
C82 C83 1_555 1_555
C86 C87 1_555 1_555
C88 C89 1_555 1_555
C96 C97 1_555 1_555
O10A Zn1A_2 1_555 1_555
C94A C95A 1_555 1_555
C96A C97A 1_555 1_555
C1A C2A 1_555 1_555
C5A C6A 1_555 1_555
C12A C13A 1_555 1_555
C15A C16A 1_555 1_555
C18A N5A 1_555 1_555
C24A C29A 1_555 1_555
C28A C29A 1_555 1_555
C30A N6A 1_555 1_555
C31A C32A 1_555 1_555
C34A N6A 1_555 1_555
C39A C40A 1_555 1_555
C43A C44A 1_555 1_555
C46A C47A 1_555 1_555
C50A C51A 1_555 1_555
C53A C54A 1_555 1_555
C56A N7A 1_555 1_555
C62A C67A 1_555 1_555
C65A C66A 1_555 1_555
C66A C67A 1_555 1_555
C68A N8A 1_555 1_555
C69A C70A 1_555 1_555
C72A N8A 1_555 1_555
C82A C83A 1_555 1_555
C86A C87A 1_555 1_555
C88A C89A 1_555 1_555

#END
