
#######################################################################
#
#                 Cambridge Crystallographic Data Centre
#                                CCDC 
#
#######################################################################
#
# If this CIF has been generated from an entry in the Cambridge 
# Structural Database, then it will include bibliographic, chemical, 
# crystal, experimental, refinement or atomic coordinate data resulting 
# from the CCDC's data processing and validation procedures.
#
#######################################################################

data_XOKHIQ
_symmetry_cell_setting           orthorhombic
_symmetry_space_group_name_H-M   'F 2 2 2'
_symmetry_Int_Tables_number      22
_space_group_name_Hall           'F 2 2'
loop_
_symmetry_equiv_pos_site_id
_symmetry_equiv_pos_as_xyz
1 x,y,z
2 -x,-y,z
3 x,-y,-z
4 -x,y,-z
5 x,1/2+y,1/2+z
6 -x,1/2-y,1/2+z
7 x,1/2-y,1/2-z
8 -x,1/2+y,1/2-z
9 1/2+x,y,1/2+z
10 1/2-x,-y,1/2+z
11 1/2+x,-y,1/2-z
12 1/2-x,y,1/2-z
13 1/2+x,1/2+y,z
14 1/2-x,1/2-y,z
15 1/2+x,1/2-y,-z
16 1/2-x,1/2+y,-z
_cell_length_a                   19.2468(5)
_cell_length_b                   54.9054(13)
_cell_length_c                   64.1439(16)
_cell_angle_alpha                90
_cell_angle_beta                 90
_cell_angle_gamma                90
_cell_volume                     67784.3
loop_
_atom_site_label
_atom_site_type_symbol
_atom_site_fract_x
_atom_site_fract_y
_atom_site_fract_z
Cd1 Cd 0.90140(4) -0.00692(2) 0.86819(2)
Cd2 Cd 0.65066(4) 0.24403(2) 0.87963(2)
Fe1 Fe 0.91541(16) -0.13458(4) 0.98910(3)
Fe2 Fe 0.83253(18) 0.11650(4) 0.73906(3)
O1 O 0.8519(8) -0.14560(16) 1.01074(14)
O2 O 0.8687(7) -0.10412(16) 0.98722(13)
O3 O 1.0000 -0.1329(3) 1.0000
O4 O 0.8938(7) 0.10320(15) 0.75954(14)
O5 O 0.8845(7) 0.14685(15) 0.73887(13)
O6 O 0.7500 0.1229(2) 0.7500
O7 O 0.9753(4) 0.02635(12) 0.86548(11)
O8 O 1.0686(4) 0.04713(13) 0.87303(13)
O9 O 0.6757(5) 0.20298(15) 0.87550(15)
O10 O 0.7725(4) 0.22343(13) 0.88157(14)
O11 O 0.5400(5) 0.22796(17) 0.8770(2)
O12 O 0.5460(5) 0.26798(18) 0.8812(2)
O13 O 0.7892(5) -0.02381(17) 0.8698(2)
O14 O 0.7963(3) 0.01627(12) 0.86714(13)
N1 N 0.8452(6) -0.25734(16) 1.08448(17)
N2 N 0.9071(8) -0.16966(19) 0.97703(17)
N3 N 0.9373(7) -0.12988(19) 0.95702(15)
N4 N 0.9058(5) -0.00164(17) 0.90406(13)
N5 N 0.9046(5) -0.00922(15) 0.83247(13)
N6 N 0.8174(8) 0.08048(19) 0.72887(15)
N7 N 0.8342(8) 0.12039(19) 0.70618(16)
N8 N 0.8425(9) 0.2493(2) 0.6559(2)
C1 C 0.8424(10) -0.2790(2) 1.0741(2)
H1 H 0.8408 -0.2934 1.0817
C2 C 0.8420(12) -0.2796(2) 1.0531(2)
H2 H 0.8409 -0.2945 1.0462
C3 C 0.8431(11) -0.2579(2) 1.0418(2)
H3 H 0.8403 -0.2582 1.0273
C4 C 0.8487(11) -0.2355(2) 1.0525(2)
C5 C 0.8482(9) -0.2364(2) 1.0741(2)
H4 H 0.8499 -0.2219 1.0815
C6 C 0.7888(9) -0.1458(2) 1.0515(2)
C7 C 0.8475(10) -0.1262(2) 1.0545(2)
H5 H 0.8688 -0.1227 1.0413
H6 H 0.8820 -0.1323 1.0640
H7 H 0.8276 -0.1115 1.0601
C8 C 0.7313(9) -0.1358(3) 1.0379(2)
H8 H 0.7162 -0.1204 1.0433
H9 H 0.6930 -0.1470 1.0378
H10 H 0.7483 -0.1337 1.0239
C9 C 0.7582(9) -0.1520(2) 1.07281(19)
H11 H 0.7924 -0.1604 1.0810
H12 H 0.7183 -0.1624 1.0710
H13 H 0.7445 -0.1373 1.0798
C10 C 0.8230(9) -0.1686(2) 1.0406(2)
C11 C 0.8242(9) -0.1914(2) 1.0502(2)
H14 H 0.8071 -0.1925 1.0637
C12 C 0.8491(10) -0.2123(2) 1.0410(2)
C13 C 0.8740(10) -0.2108(2) 1.0210(2)
H15 H 0.8903 -0.2247 1.0144
C14 C 0.8749(10) -0.1880(2) 1.0104(2)
C15 C 0.8502(12) -0.1665(2) 1.0205(2)
C16 C 0.8977(10) -0.1884(2) 0.9890(2)
H16 H 0.9064 -0.2036 0.9832
C17 C 0.9185(10) -0.1729(2) 0.95462(19)
H17 H 0.8737 -0.1707 0.9476
C18 C 0.9482(11) -0.1975(3) 0.9477(2)
H18 H 0.9934 -0.2000 0.9540
H19 H 0.9178 -0.2105 0.9522
C19 C 0.9548(11) -0.1980(3) 0.9245(2)
H20 H 0.9094 -0.1960 0.9182
H21 H 0.9738 -0.2135 0.9201
C20 C 1.0055(11) -0.1761(3) 0.9171(2)
H22 H 1.0512 -0.1782 0.9232
H23 H 1.0104 -0.1764 0.9020
C21 C 0.9747(10) -0.1520(3) 0.92393(19)
H24 H 0.9295 -0.1497 0.9175
H25 H 1.0047 -0.1388 0.9196
C22 C 0.9670(9) -0.1518(2) 0.94785(19)
H26 H 1.0129 -0.1545 0.9540
C23 C 0.9362(8) -0.1098(3) 0.94727(19)
H27 H 0.9531 -0.1097 0.9337
C24 C 0.9099(10) -0.0862(2) 0.95590(18)
C25 C 0.9170(9) -0.0656(3) 0.94317(19)
H28 H 0.9366 -0.0671 0.9300
C26 C 0.8940(8) -0.0424(2) 0.95039(19)
C27 C 0.8647(9) -0.0416(2) 0.97038(19)
H29 H 0.8507 -0.0265 0.9754
C28 C 0.8550(11) -0.0614(2) 0.9831(2)
C29 C 0.8765(9) -0.0844(2) 0.97590(18)
C30 C 0.8222(13) -0.0595(3) 1.0048(2)
C31 C 0.8798(13) -0.0672(3) 1.0211(2)
H30 H 0.8715 -0.0836 1.0257
H31 H 0.8782 -0.0564 1.0329
H32 H 0.9248 -0.0662 1.0147
C32 C 0.7578(18) -0.0746(3) 1.0065(3)
H33 H 0.7356 -0.0755 0.9932
H34 H 0.7267 -0.0673 1.0164
H35 H 0.7698 -0.0907 1.0111
C33 C 0.8040(15) -0.0329(3) 1.0097(3)
H36 H 0.8380 -0.0224 1.0034
H37 H 0.8038 -0.0305 1.0245
H38 H 0.7589 -0.0292 1.0041
C34 C 0.8969(7) -0.0212(2) 0.91590(17)
H39 H 0.8869 -0.0360 0.9095
C35 C 0.9020(8) -0.0203(2) 0.93787(19)
C36 C 0.9136(10) 0.0019(3) 0.9469(2)
H40 H 0.9181 0.0031 0.9613
C37 C 0.9187(8) 0.0231(2) 0.9344(2)
H41 H 0.9242 0.0384 0.9405
C38 C 0.9152(8) 0.0207(2) 0.91299(18)
H42 H 0.9194 0.0344 0.9046
C39 C 0.9025(9) -0.0302(2) 0.82231(18)
H43 H 0.9028 -0.0446 0.8299
C40 C 0.8998(11) -0.0313(2) 0.80039(19)
H44 H 0.8969 -0.0462 0.7935
C41 C 0.9017(11) -0.0097(2) 0.78939(18)
H45 H 0.9010 -0.0100 0.7749
C42 C 0.9045(8) 0.01235(19) 0.79970(16)
C43 C 0.9042(7) 0.01147(17) 0.82121(16)
H46 H 0.9038 0.0262 0.8284
C44 C 0.9634(10) 0.1022(2) 0.7988(2)
C45 C 1.0187(13) 0.1134(3) 0.7844(3)
H47 H 0.9975 0.1183 0.7715
H48 H 1.0543 0.1016 0.7817
H49 H 1.0389 0.1274 0.7911
C46 C 0.9045(13) 0.1219(3) 0.8033(3)
H50 H 0.9249 0.1359 0.8098
H51 H 0.8703 0.1150 0.8125
H52 H 0.8827 0.1265 0.7905
C47 C 0.9981(14) 0.0953(3) 0.8192(3)
H53 H 1.0358 0.0843 0.8165
H54 H 0.9649 0.0876 0.8282
H55 H 1.0157 0.1097 0.8259
C48 C 0.9302(8) 0.0797(2) 0.78865(17)
C49 C 0.9319(8) 0.0575(2) 0.79746(18)
H56 H 0.9545 0.0559 0.8102
C50 C 0.9018(9) 0.0362(2) 0.78876(17)
C51 C 0.8698(9) 0.0385(2) 0.76962(19)
H57 H 0.8516 0.0248 0.7631
C52 C 0.8643(10) 0.0614(2) 0.75967(19)
C53 C 0.8961(9) 0.0820(2) 0.76883(18)
C54 C 0.8312(10) 0.0612(2) 0.73969(19)
H58 H 0.8188 0.0462 0.7341
C55 C 0.7859(9) 0.0800(2) 0.70792(17)
H59 H 0.7387 0.0866 0.7089
C56 C 0.7817(8) 0.0537(2) 0.69807(19)
H60 H 0.8273 0.0461 0.6981
H61 H 0.7503 0.0436 0.7061
C57 C 0.7555(8) 0.0563(2) 0.67582(17)
H62 H 0.7084 0.0626 0.6761
H63 H 0.7541 0.0404 0.6693
C58 C 0.8004(8) 0.0731(2) 0.66262(17)
H64 H 0.7820 0.0739 0.6486
H65 H 0.8473 0.0667 0.6619
C59 C 0.8021(9) 0.0987(2) 0.67193(18)
H66 H 0.7558 0.1056 0.6718
H67 H 0.8322 0.1090 0.6637
C60 C 0.8296(9) 0.0972(2) 0.69466(17)
H68 H 0.8766 0.0904 0.6940
C61 C 0.8380(10) 0.1405(2) 0.6965(2)
H69 H 0.8321 0.1403 0.6821
C62 C 0.8512(11) 0.1643(2) 0.7067(2)
C63 C 0.8443(13) 0.1847(2) 0.6944(2)
H70 H 0.8262 0.1832 0.6810
C64 C 0.8637(13) 0.2071(3) 0.7017(2)
C65 C 0.8927(13) 0.2096(3) 0.7217(2)
H71 H 0.9069 0.2248 0.7264
C66 C 0.9002(13) 0.1888(3) 0.7349(2)
C67 C 0.8761(12) 0.1654(2) 0.7274(2)
C68 C 0.9302(13) 0.1920(3) 0.7563(2)
C69 C 0.9910(13) 0.1771(3) 0.7600(3)
H72 H 0.9818 0.1607 0.7555
H73 H 1.0019 0.1771 0.7746
H74 H 1.0297 0.1835 0.7523
C70 C 0.8846(12) 0.1827(3) 0.7726(3)
H75 H 0.8412 0.1912 0.7723
H76 H 0.9061 0.1849 0.7860
H77 H 0.8764 0.1656 0.7704
C71 C 0.9490(12) 0.2182(3) 0.7612(3)
H78 H 0.9797 0.2243 0.7506
H79 H 0.9715 0.2190 0.7745
H80 H 0.9075 0.2279 0.7615
C72 C 0.8534(11) 0.2296(2) 0.6681(2)
H81 H 0.8637 0.2149 0.6617
C73 C 0.8501(14) 0.2300(2) 0.6896(3)
C74 C 0.8329(17) 0.2520(4) 0.6989(3)
H82 H 0.8288 0.2524 0.7134
C75 C 0.8207(19) 0.2744(4) 0.6873(3)
H83 H 0.8109 0.2893 0.6935
C76 C 0.8258(13) 0.2705(3) 0.6658(3)
H84 H 0.8168 0.2839 0.6573
C77 C 0.9645(5) 0.06890(16) 0.87140(13)
C78 C 0.8940(6) 0.06941(18) 0.86704(19)
H85 H 0.8704 0.0550 0.8643
C79 C 0.8585(6) 0.09142(18) 0.8668(2)
H86 H 0.8119 0.0916 0.8630
C80 C 0.8912(6) 0.11323(17) 0.87202(14)
C81 C 0.9622(6) 0.11240(19) 0.87667(18)
H87 H 0.9860 0.1267 0.8797
C82 C 0.9969(6) 0.09037(19) 0.87683(18)
H88 H 1.0435 0.0900 0.8807
C83 C 1.0054(5) 0.04600(16) 0.86999(14)
C84 C 0.8530(6) 0.13683(17) 0.87226(14)
C85 C 0.7805(6) 0.13721(19) 0.87135(17)
H89 H 0.7562 0.1227 0.8698
C86 C 0.7447(6) 0.15890(19) 0.87271(17)
H90 H 0.6964 0.1590 0.8722
C87 C 0.7809(5) 0.18046(18) 0.87490(16)
C88 C 0.8521(6) 0.18039(19) 0.8756(2)
H91 H 0.8764 0.1949 0.8773
C89 C 0.8877(6) 0.15844(19) 0.8736(2)
H92 H 0.9360 0.1585 0.8733
C90 C 0.7420(7) 0.20424(19) 0.87746(17)
C91 C 0.6453(4) -0.02357(13) 0.8714(2)
H93 H 0.6678 -0.0385 0.8729
C92 C 0.6837(3) -0.00233(15) 0.86901(19)
C93 C 0.6500(4) 0.01991(13) 0.8668(2)
H94 H 0.6757 0.0341 0.8652
C94 C 0.5779(4) 0.02091(13) 0.8670(2)
H95 H 0.5553 0.0358 0.8655
C95 C 0.5394(3) -0.00034(17) 0.8694(2)
C96 C 0.5731(4) -0.02258(14) 0.8716(2)
H96 H 0.5474 -0.0368 0.8732
C97 C 0.7623(6) -0.0033(2) 0.8686(2)
C98 C 0.4340(3) 0.24978(19) 0.8775(2)
C99 C 0.3974(5) 0.22804(16) 0.8758(3)
H97 H 0.4212 0.2134 0.8747
C100 C 0.3252(5) 0.22824(16) 0.8760(3)
H98 H 0.3007 0.2137 0.8749
C101 C 0.2896(3) 0.2502(2) 0.8777(3)
C102 C 0.3262(4) 0.27191(17) 0.8793(3)
H99 H 0.3023 0.2866 0.8805
C103 C 0.3984(4) 0.27171(16) 0.8792(2)
H100 H 0.4229 0.2863 0.8803
C104 C 0.5097(8) 0.2489(3) 0.8784(3)
O11M O -0.0400(5) 0.27204(17) 0.8770(2)
O12M O -0.0460(5) 0.23202(18) 0.8812(2)
C98M C 0.0660(3) 0.25022(19) 0.8775(2)
C99M C 0.1026(5) 0.27196(16) 0.8758(3)
H97M H 0.0788 0.2866 0.8747
C100M C 0.1748(5) 0.27176(16) 0.8760(3)
H98M H 0.1993 0.2863 0.8749
C101M C 0.2104(3) 0.2498(2) 0.8777(3)
C102M C 0.1738(4) 0.22809(17) 0.8793(3)
H99M H 0.1977 0.2134 0.8805
C103M C 0.1016(4) 0.22829(16) 0.8792(2)
H100M H 0.0771 0.2137 0.8803
C104M C -0.0097(8) 0.2511(3) 0.8784(3)
O13A O 0.2108(5) 0.02381(17) 0.8698(2)
O14A O 0.2037(3) -0.01627(12) 0.86714(13)
C91A C 0.3547(4) 0.02357(13) 0.8714(2)
H93A H 0.3322 0.0385 0.8729
C92A C 0.3163(3) 0.00233(15) 0.86901(19)
C93A C 0.3500(4) -0.01991(13) 0.8668(2)
H94A H 0.3243 -0.0341 0.8652
C94A C 0.4221(4) -0.02091(13) 0.8670(2)
H95A H 0.4447 -0.0358 0.8655
C95A C 0.4606(3) 0.00034(17) 0.8694(2)
C96A C 0.4269(4) 0.02258(14) 0.8716(2)
H96A H 0.4526 0.0368 0.8732
C97A C 0.2377(6) 0.0033(2) 0.8686(2)
Cd1A Cd 0.09860(4) 0.00692(2) 0.86819(2)
Cd2A Cd 0.34934(4) -0.24403(2) 0.87963(2)
Fe1A Fe 0.08459(16) 0.13458(4) 0.98910(3)
Fe2A Fe 0.16747(18) -0.11650(4) 0.73906(3)
O1A O 0.1481(8) 0.14560(16) 1.01074(14)
O2A O 0.1313(7) 0.10412(16) 0.98722(13)
O4A O 0.1062(7) -0.10320(15) 0.75954(14)
O5A O 0.1155(7) -0.14685(15) 0.73887(13)
O7A O 0.0247(4) -0.02635(12) 0.86548(11)
O8A O -0.0686(4) -0.04713(13) 0.87303(13)
O9A O 0.3243(5) -0.20298(15) 0.87550(15)
O10A O 0.2275(4) -0.22343(13) 0.88157(14)
N1A N 0.1548(6) 0.25734(16) 1.08448(17)
N2A N 0.0929(8) 0.16966(19) 0.97703(17)
N3A N 0.0627(7) 0.12988(19) 0.95702(15)
N4A N 0.0942(5) 0.00164(17) 0.90406(13)
N5A N 0.0954(5) 0.00922(15) 0.83247(13)
N6A N 0.1826(8) -0.08048(19) 0.72887(15)
N7A N 0.1658(8) -0.12039(19) 0.70618(16)
N8A N 0.1575(9) -0.2493(2) 0.6559(2)
C1A C 0.1576(10) 0.2790(2) 1.0741(2)
H1A H 0.1592 0.2934 1.0817
C2A C 0.1580(12) 0.2796(2) 1.0531(2)
H2A H 0.1591 0.2945 1.0462
C3A C 0.1569(11) 0.2579(2) 1.0418(2)
H3A H 0.1597 0.2582 1.0273
C4A C 0.1513(11) 0.2355(2) 1.0525(2)
C5A C 0.1518(9) 0.2364(2) 1.0741(2)
H4A H 0.1501 0.2219 1.0815
C6A C 0.2112(9) 0.1458(2) 1.0515(2)
C7A C 0.1525(10) 0.1262(2) 1.0545(2)
H5A H 0.1312 0.1227 1.0413
H6A H 0.1180 0.1323 1.0640
H7A H 0.1724 0.1115 1.0601
C8A C 0.2687(9) 0.1358(3) 1.0379(2)
H8A H 0.2838 0.1204 1.0433
H9A H 0.3070 0.1470 1.0378
H10A H 0.2517 0.1337 1.0239
C9A C 0.2418(9) 0.1520(2) 1.07281(19)
H11A H 0.2076 0.1604 1.0810
H12A H 0.2817 0.1624 1.0710
H13A H 0.2555 0.1373 1.0798
C10A C 0.1770(9) 0.1686(2) 1.0406(2)
C11A C 0.1758(9) 0.1914(2) 1.0502(2)
H14A H 0.1929 0.1925 1.0637
C12A C 0.1509(10) 0.2123(2) 1.0410(2)
C13A C 0.1260(10) 0.2108(2) 1.0210(2)
H15A H 0.1097 0.2247 1.0144
C14A C 0.1251(10) 0.1880(2) 1.0104(2)
C15A C 0.1498(12) 0.1665(2) 1.0205(2)
C16A C 0.1023(10) 0.1884(2) 0.9890(2)
H16A H 0.0936 0.2036 0.9832
C17A C 0.0815(10) 0.1729(2) 0.95462(19)
H17A H 0.1263 0.1707 0.9476
C18A C 0.0518(11) 0.1975(3) 0.9477(2)
H18A H 0.0066 0.2000 0.9540
H19A H 0.0822 0.2105 0.9522
C19A C 0.0452(11) 0.1980(3) 0.9245(2)
H20A H 0.0906 0.1960 0.9182
H21A H 0.0262 0.2135 0.9201
C20A C -0.0055(11) 0.1761(3) 0.9171(2)
H22A H -0.0512 0.1782 0.9232
H23A H -0.0104 0.1764 0.9020
C21A C 0.0253(10) 0.1520(3) 0.92393(19)
H24A H 0.0705 0.1497 0.9175
H25A H -0.0047 0.1388 0.9196
C22A C 0.0330(9) 0.1518(2) 0.94785(19)
H26A H -0.0129 0.1545 0.9540
C23A C 0.0638(8) 0.1098(3) 0.94727(19)
H27A H 0.0469 0.1097 0.9337
C24A C 0.0901(10) 0.0862(2) 0.95590(18)
C25A C 0.0830(9) 0.0656(3) 0.94317(19)
H28A H 0.0634 0.0671 0.9300
C26A C 0.1060(8) 0.0424(2) 0.95039(19)
C27A C 0.1353(9) 0.0416(2) 0.97038(19)
H29A H 0.1493 0.0265 0.9754
C28A C 0.1450(11) 0.0614(2) 0.9831(2)
C29A C 0.1235(9) 0.0844(2) 0.97590(18)
C30A C 0.1778(13) 0.0595(3) 1.0048(2)
C31A C 0.1202(13) 0.0672(3) 1.0211(2)
H30A H 0.1285 0.0836 1.0257
H31A H 0.1218 0.0564 1.0329
H32A H 0.0752 0.0662 1.0147
C32A C 0.2422(18) 0.0746(3) 1.0065(3)
H33A H 0.2644 0.0755 0.9932
H34A H 0.2733 0.0673 1.0164
H35A H 0.2302 0.0907 1.0111
C33A C 0.1960(15) 0.0329(3) 1.0097(3)
H36A H 0.1620 0.0224 1.0034
H37A H 0.1962 0.0305 1.0245
H38A H 0.2411 0.0292 1.0041
C34A C 0.1031(7) 0.0212(2) 0.91590(17)
H39A H 0.1131 0.0360 0.9095
C35A C 0.0980(8) 0.0203(2) 0.93787(19)
C36A C 0.0864(10) -0.0019(3) 0.9469(2)
H40A H 0.0819 -0.0031 0.9613
C37A C 0.0813(8) -0.0231(2) 0.9344(2)
H41A H 0.0758 -0.0384 0.9405
C38A C 0.0848(8) -0.0207(2) 0.91299(18)
H42A H 0.0806 -0.0344 0.9046
C39A C 0.0975(9) 0.0302(2) 0.82231(18)
H43A H 0.0972 0.0446 0.8299
C40A C 0.1002(11) 0.0313(2) 0.80039(19)
H44A H 0.1031 0.0462 0.7935
C41A C 0.0983(11) 0.0097(2) 0.78939(18)
H45A H 0.0990 0.0100 0.7749
C42A C 0.0955(8) -0.01235(19) 0.79970(16)
C43A C 0.0958(7) -0.01147(17) 0.82121(16)
H46A H 0.0962 -0.0262 0.8284
C44A C 0.0366(10) -0.1022(2) 0.7988(2)
C45A C -0.0187(13) -0.1134(3) 0.7844(3)
H47A H 0.0025 -0.1183 0.7715
H48A H -0.0543 -0.1016 0.7817
H49A H -0.0389 -0.1274 0.7911
C46A C 0.0955(13) -0.1219(3) 0.8033(3)
H50A H 0.0751 -0.1359 0.8098
H51A H 0.1297 -0.1150 0.8125
H52A H 0.1173 -0.1265 0.7905
C47A C 0.0019(14) -0.0953(3) 0.8192(3)
H53A H -0.0358 -0.0843 0.8165
H54A H 0.0351 -0.0876 0.8282
H55A H -0.0157 -0.1097 0.8259
C48A C 0.0698(8) -0.0797(2) 0.78865(17)
C49A C 0.0681(8) -0.0575(2) 0.79746(18)
H56A H 0.0455 -0.0559 0.8102
C50A C 0.0982(9) -0.0362(2) 0.78876(17)
C51A C 0.1302(9) -0.0385(2) 0.76962(19)
H57A H 0.1484 -0.0248 0.7631
C52A C 0.1357(10) -0.0614(2) 0.75967(19)
C53A C 0.1039(9) -0.0820(2) 0.76883(18)
C54A C 0.1688(10) -0.0612(2) 0.73969(19)
H58A H 0.1812 -0.0462 0.7341
C55A C 0.2141(9) -0.0800(2) 0.70792(17)
H59A H 0.2613 -0.0866 0.7089
C56A C 0.2183(8) -0.0537(2) 0.69807(19)
H60A H 0.1727 -0.0461 0.6981
H61A H 0.2497 -0.0436 0.7061
C57A C 0.2445(8) -0.0563(2) 0.67582(17)
H62A H 0.2916 -0.0626 0.6761
H63A H 0.2459 -0.0404 0.6693
C58A C 0.1996(8) -0.0731(2) 0.66262(17)
H64A H 0.2180 -0.0739 0.6486
H65A H 0.1527 -0.0667 0.6619
C59A C 0.1979(9) -0.0987(2) 0.67193(18)
H66A H 0.2442 -0.1056 0.6718
H67A H 0.1678 -0.1090 0.6637
C60A C 0.1704(9) -0.0972(2) 0.69466(17)
H68A H 0.1234 -0.0904 0.6940
C61A C 0.1620(10) -0.1405(2) 0.6965(2)
H69A H 0.1679 -0.1403 0.6821
C62A C 0.1488(11) -0.1643(2) 0.7067(2)
C63A C 0.1557(13) -0.1847(2) 0.6944(2)
H70A H 0.1738 -0.1832 0.6810
C64A C 0.1363(13) -0.2071(3) 0.7017(2)
C65A C 0.1073(13) -0.2096(3) 0.7217(2)
H71A H 0.0931 -0.2248 0.7264
C66A C 0.0998(13) -0.1888(3) 0.7349(2)
C67A C 0.1239(12) -0.1654(2) 0.7274(2)
C68A C 0.0698(13) -0.1920(3) 0.7563(2)
C69A C 0.0090(13) -0.1771(3) 0.7600(3)
H72A H 0.0182 -0.1607 0.7555
H73A H -0.0019 -0.1771 0.7746
H74A H -0.0297 -0.1835 0.7523
C70A C 0.1154(12) -0.1827(3) 0.7726(3)
H75A H 0.1588 -0.1912 0.7723
H76A H 0.0939 -0.1849 0.7860
H77A H 0.1236 -0.1656 0.7704
C71A C 0.0510(12) -0.2182(3) 0.7612(3)
H78A H 0.0203 -0.2243 0.7506
H79A H 0.0285 -0.2190 0.7745
H80A H 0.0925 -0.2279 0.7615
C72A C 0.1466(11) -0.2296(2) 0.6681(2)
H81A H 0.1363 -0.2149 0.6617
C73A C 0.1499(14) -0.2300(2) 0.6896(3)
C74A C 0.1671(17) -0.2520(4) 0.6989(3)
H82A H 0.1712 -0.2524 0.7134
C75A C 0.1793(19) -0.2744(4) 0.6873(3)
H83A H 0.1891 -0.2893 0.6935
C76A C 0.1742(13) -0.2705(3) 0.6658(3)
H84A H 0.1832 -0.2839 0.6573
C77A C 0.0355(5) -0.06890(16) 0.87140(13)
C78A C 0.1060(6) -0.06941(18) 0.86704(19)
H85A H 0.1296 -0.0550 0.8643
C79A C 0.1415(6) -0.09142(18) 0.8668(2)
H86A H 0.1881 -0.0916 0.8630
C80A C 0.1088(6) -0.11323(17) 0.87202(14)
C81A C 0.0378(6) -0.11240(19) 0.87667(18)
H87A H 0.0140 -0.1267 0.8797
C82A C 0.0031(6) -0.09037(19) 0.87683(18)
H88A H -0.0435 -0.0900 0.8807
C83A C -0.0054(5) -0.04600(16) 0.86999(14)
C84A C 0.1470(6) -0.13683(17) 0.87226(14)
C85A C 0.2195(6) -0.13721(19) 0.87135(17)
H89A H 0.2438 -0.1227 0.8698
C86A C 0.2553(6) -0.15890(19) 0.87271(17)
H90A H 0.3036 -0.1590 0.8722
C87A C 0.2191(5) -0.18046(18) 0.87490(16)
C88A C 0.1479(6) -0.18039(19) 0.8756(2)
H91A H 0.1236 -0.1949 0.8773
C89A C 0.1123(6) -0.15844(19) 0.8736(2)
H92A H 0.0640 -0.1585 0.8733
C90A C 0.2580(7) -0.20424(19) 0.87746(17)
Cd1_2 Cd -0.09860(4) -0.00692(2) 0.86819(2)
Cd1A_2 Cd 1.09860(4) 0.00692(2) 0.86819(2)
Cd2J Cd 0.15066(4) -0.24403(2) 0.62037(2)
Cd2K Cd 0.84934(4) 0.24403(2) 0.62037(2)
Cd2L Cd 0.15066(4) -0.25597(2) 0.87963(2)
Cd2M Cd -0.15066(4) 0.25597(2) 0.87963(2)
Cd2M_2 Cd 0.84934(4) 0.25597(2) 0.87963(2)
Cd2N Cd 0.15066(4) 0.25597(2) 1.12037(2)
Cd2O Cd 0.84934(4) -0.25597(2) 1.12037(2)
Fe1C Fe 1.08459(16) -0.13458(4) 1.01090(3)
Fe2K Fe 0.66747(18) 0.11650(4) 0.76094(3)
O3A O 0.0000 0.1329(3) 1.0000
O6A O 0.2500 -0.1229(2) 0.7500
O7_2 O -0.0247(4) 0.02635(12) 0.86548(11)
O7A_2 O 1.0247(4) -0.02635(12) 0.86548(11)
O8_2 O 0.0686(4) 0.04713(13) 0.87303(13)
O8A_2 O 0.9314(4) -0.04713(13) 0.87303(13)
O10L O 0.2725(4) -0.27657(13) 0.88157(14)
O10M O 0.7275(4) 0.27657(13) 0.88157(14)
O11A O 0.4600(5) -0.22796(17) 0.8770(2)
O12A O 0.4540(5) -0.26798(18) 0.8812(2)
N1N N 0.3452(6) -0.24266(16) 0.91552(17)
N1O N 0.6548(6) 0.24266(16) 0.91552(17)
N8J N 0.3425(9) -0.2493(2) 0.8441(2)
N8K N 0.6575(9) 0.2493(2) 0.8441(2)
loop_
_geom_bond_atom_site_label_1
_geom_bond_atom_site_label_2
_geom_bond_site_symmetry_1
_geom_bond_site_symmetry_2
Cd1 O7 1_555 1_555
Cd2 O9 1_555 1_555
Fe1 O1 1_555 1_555
Fe2 O4 1_555 1_555
O1 C15 1_555 1_555
O2 Fe1 1_555 1_555
O3 Fe1 1_555 1_555
O4 C53 1_555 1_555
O5 Fe2 1_555 1_555
O6 Fe2 1_555 1_555
O7 C83 1_555 1_555
O8 C83 1_555 1_555
O9 C90 1_555 1_555
O10 Cd2 1_555 1_555
O11 Cd2 1_555 1_555
O12 Cd2 1_555 1_555
O13 Cd1 1_555 1_555
O14 Cd1 1_555 1_555
N1 C1 1_555 1_555
N2 Fe1 1_555 1_555
N3 Fe1 1_555 1_555
N4 Cd1 1_555 1_555
N5 Cd1 1_555 1_555
N6 Fe2 1_555 1_555
N7 Fe2 1_555 1_555
N8 C72 1_555 1_555
C1 H1 1_555 1_555
C2 C1 1_555 1_555
H2 C2 1_555 1_555
C3 C2 1_555 1_555
H3 C3 1_555 1_555
C4 C3 1_555 1_555
C5 N1 1_555 1_555
H4 C5 1_555 1_555
C6 C7 1_555 1_555
C7 H5 1_555 1_555
H6 C7 1_555 1_555
H7 C7 1_555 1_555
C8 C6 1_555 1_555
H8 C8 1_555 1_555
H9 C8 1_555 1_555
H10 C8 1_555 1_555
C9 C6 1_555 1_555
H11 C9 1_555 1_555
H12 C9 1_555 1_555
H13 C9 1_555 1_555
C10 C6 1_555 1_555
C11 C10 1_555 1_555
H14 C11 1_555 1_555
C12 C4 1_555 1_555
C13 C12 1_555 1_555
H15 C13 1_555 1_555
C14 C13 1_555 1_555
C15 C10 1_555 1_555
C16 N2 1_555 1_555
H16 C16 1_555 1_555
C17 N2 1_555 1_555
H17 C17 1_555 1_555
C18 C17 1_555 1_555
H18 C18 1_555 1_555
H19 C18 1_555 1_555
C19 C18 1_555 1_555
H20 C19 1_555 1_555
H21 C19 1_555 1_555
C20 C19 1_555 1_555
H22 C20 1_555 1_555
H23 C20 1_555 1_555
C21 C20 1_555 1_555
H24 C21 1_555 1_555
H25 C21 1_555 1_555
C22 N3 1_555 1_555
H26 C22 1_555 1_555
C23 N3 1_555 1_555
H27 C23 1_555 1_555
C24 C23 1_555 1_555
C25 C24 1_555 1_555
H28 C25 1_555 1_555
C26 C25 1_555 1_555
C27 C26 1_555 1_555
H29 C27 1_555 1_555
C28 C27 1_555 1_555
C29 O2 1_555 1_555
C30 C28 1_555 1_555
C31 C30 1_555 1_555
H30 C31 1_555 1_555
H31 C31 1_555 1_555
H32 C31 1_555 1_555
C32 C30 1_555 1_555
H33 C32 1_555 1_555
H34 C32 1_555 1_555
H35 C32 1_555 1_555
C33 C30 1_555 1_555
H36 C33 1_555 1_555
H37 C33 1_555 1_555
H38 C33 1_555 1_555
C34 N4 1_555 1_555
H39 C34 1_555 1_555
C35 C26 1_555 1_555
C36 C35 1_555 1_555
H40 C36 1_555 1_555
C37 C36 1_555 1_555
H41 C37 1_555 1_555
C38 N4 1_555 1_555
H42 C38 1_555 1_555
C39 N5 1_555 1_555
H43 C39 1_555 1_555
C40 C39 1_555 1_555
H44 C40 1_555 1_555
C41 C40 1_555 1_555
H45 C41 1_555 1_555
C42 C41 1_555 1_555
C43 N5 1_555 1_555
H46 C43 1_555 1_555
C44 C45 1_555 1_555
C45 H47 1_555 1_555
H48 C45 1_555 1_555
H49 C45 1_555 1_555
C46 C44 1_555 1_555
H50 C46 1_555 1_555
H51 C46 1_555 1_555
H52 C46 1_555 1_555
C47 C44 1_555 1_555
H53 C47 1_555 1_555
H54 C47 1_555 1_555
H55 C47 1_555 1_555
C48 C44 1_555 1_555
C49 C48 1_555 1_555
H56 C49 1_555 1_555
C50 C42 1_555 1_555
C51 C50 1_555 1_555
H57 C51 1_555 1_555
C52 C51 1_555 1_555
C53 C48 1_555 1_555
C54 N6 1_555 1_555
H58 C54 1_555 1_555
C55 N6 1_555 1_555
H59 C55 1_555 1_555
C56 C55 1_555 1_555
H60 C56 1_555 1_555
H61 C56 1_555 1_555
C57 C56 1_555 1_555
H62 C57 1_555 1_555
H63 C57 1_555 1_555
C58 C57 1_555 1_555
H64 C58 1_555 1_555
H65 C58 1_555 1_555
C59 C58 1_555 1_555
H66 C59 1_555 1_555
H67 C59 1_555 1_555
C60 N7 1_555 1_555
H68 C60 1_555 1_555
C61 N7 1_555 1_555
H69 C61 1_555 1_555
C62 C61 1_555 1_555
C63 C62 1_555 1_555
H70 C63 1_555 1_555
C64 C63 1_555 1_555
C65 C64 1_555 1_555
H71 C65 1_555 1_555
C66 C65 1_555 1_555
C67 O5 1_555 1_555
C68 C66 1_555 1_555
C69 C68 1_555 1_555
H72 C69 1_555 1_555
H73 C69 1_555 1_555
H74 C69 1_555 1_555
C70 C68 1_555 1_555
H75 C70 1_555 1_555
H76 C70 1_555 1_555
H77 C70 1_555 1_555
C71 C68 1_555 1_555
H78 C71 1_555 1_555
H79 C71 1_555 1_555
H80 C71 1_555 1_555
C72 H81 1_555 1_555
C73 C64 1_555 1_555
C74 C73 1_555 1_555
H82 C74 1_555 1_555
C75 C74 1_555 1_555
H83 C75 1_555 1_555
C76 N8 1_555 1_555
H84 C76 1_555 1_555
C77 C78 1_555 1_555
C78 H85 1_555 1_555
C79 C78 1_555 1_555
H86 C79 1_555 1_555
C80 C79 1_555 1_555
C81 C80 1_555 1_555
H87 C81 1_555 1_555
C82 C77 1_555 1_555
H88 C82 1_555 1_555
C83 C77 1_555 1_555
C84 C80 1_555 1_555
C85 C84 1_555 1_555
H89 C85 1_555 1_555
C86 C85 1_555 1_555
H90 C86 1_555 1_555
C87 C86 1_555 1_555
C88 C87 1_555 1_555
H91 C88 1_555 1_555
C89 C84 1_555 1_555
H92 C89 1_555 1_555
C90 O10 1_555 1_555
C91 H93 1_555 1_555
C92 C91 1_555 1_555
C93 C92 1_555 1_555
H94 C93 1_555 1_555
C94 C93 1_555 1_555
H95 C94 1_555 1_555
C95 C94 1_555 1_555
C96 C91 1_555 1_555
H96 C96 1_555 1_555
C97 O13 1_555 1_555
C98 C99 1_555 1_555
C99 H97 1_555 1_555
C100 C99 1_555 1_555
H98 C100 1_555 1_555
C101 C100 1_555 1_555
C102 C101 1_555 1_555
H99 C102 1_555 1_555
C103 C98 1_555 1_555
H100 C103 1_555 1_555
C104 O11 1_555 1_555
O11M C104M 1_555 1_555
O12M C104M 1_555 1_555
C98M C99M 1_555 1_555
C99M H97M 1_555 1_555
C100M C99M 1_555 1_555
H98M C100M 1_555 1_555
C101M C101 1_555 1_555
C102M C101M 1_555 1_555
H99M C102M 1_555 1_555
C103M C98M 1_555 1_555
H100M C103M 1_555 1_555
C104M C98M 1_555 1_555
O13A C97A 1_555 1_555
O14A C97A 1_555 1_555
C91A H93A 1_555 1_555
C92A C91A 1_555 1_555
C93A C92A 1_555 1_555
H94A C93A 1_555 1_555
C94A C93A 1_555 1_555
H95A C94A 1_555 1_555
C95A C95 1_555 1_555
C96A C91A 1_555 1_555
H96A C96A 1_555 1_555
C97A C92A 1_555 1_555
Cd1A O13A 1_555 1_555
Cd2A O9A 1_555 1_555
Fe1A O1A 1_555 1_555
Fe2A O4A 1_555 1_555
O1A C15A 1_555 1_555
O2A Fe1A 1_555 1_555
O4A C53A 1_555 1_555
O5A Fe2A 1_555 1_555
O7A Cd1A 1_555 1_555
O8A C83A 1_555 1_555
O9A C90A 1_555 1_555
O10A Cd2A 1_555 1_555
N1A C1A 1_555 1_555
N2A Fe1A 1_555 1_555
N3A Fe1A 1_555 1_555
N4A Cd1A 1_555 1_555
N5A Cd1A 1_555 1_555
N6A Fe2A 1_555 1_555
N7A Fe2A 1_555 1_555
N8A C72A 1_555 1_555
C1A H1A 1_555 1_555
C2A C1A 1_555 1_555
H2A C2A 1_555 1_555
C3A C2A 1_555 1_555
H3A C3A 1_555 1_555
C4A C3A 1_555 1_555
C5A N1A 1_555 1_555
H4A C5A 1_555 1_555
C6A C7A 1_555 1_555
C7A H5A 1_555 1_555
H6A C7A 1_555 1_555
H7A C7A 1_555 1_555
C8A C6A 1_555 1_555
H8A C8A 1_555 1_555
H9A C8A 1_555 1_555
H10A C8A 1_555 1_555
C9A C6A 1_555 1_555
H11A C9A 1_555 1_555
H12A C9A 1_555 1_555
H13A C9A 1_555 1_555
C10A C6A 1_555 1_555
C11A C10A 1_555 1_555
H14A C11A 1_555 1_555
C12A C4A 1_555 1_555
C13A C12A 1_555 1_555
H15A C13A 1_555 1_555
C14A C13A 1_555 1_555
C15A C10A 1_555 1_555
C16A N2A 1_555 1_555
H16A C16A 1_555 1_555
C17A N2A 1_555 1_555
H17A C17A 1_555 1_555
C18A C17A 1_555 1_555
H18A C18A 1_555 1_555
H19A C18A 1_555 1_555
C19A C18A 1_555 1_555
H20A C19A 1_555 1_555
H21A C19A 1_555 1_555
C20A C19A 1_555 1_555
H22A C20A 1_555 1_555
H23A C20A 1_555 1_555
C21A C20A 1_555 1_555
H24A C21A 1_555 1_555
H25A C21A 1_555 1_555
C22A N3A 1_555 1_555
H26A C22A 1_555 1_555
C23A N3A 1_555 1_555
H27A C23A 1_555 1_555
C24A C23A 1_555 1_555
C25A C24A 1_555 1_555
H28A C25A 1_555 1_555
C26A C25A 1_555 1_555
C27A C26A 1_555 1_555
H29A C27A 1_555 1_555
C28A C27A 1_555 1_555
C29A O2A 1_555 1_555
C30A C28A 1_555 1_555
C31A C30A 1_555 1_555
H30A C31A 1_555 1_555
H31A C31A 1_555 1_555
H32A C31A 1_555 1_555
C32A C30A 1_555 1_555
H33A C32A 1_555 1_555
H34A C32A 1_555 1_555
H35A C32A 1_555 1_555
C33A C30A 1_555 1_555
H36A C33A 1_555 1_555
H37A C33A 1_555 1_555
H38A C33A 1_555 1_555
C34A N4A 1_555 1_555
H39A C34A 1_555 1_555
C35A C26A 1_555 1_555
C36A C35A 1_555 1_555
H40A C36A 1_555 1_555
C37A C36A 1_555 1_555
H41A C37A 1_555 1_555
C38A N4A 1_555 1_555
H42A C38A 1_555 1_555
C39A N5A 1_555 1_555
H43A C39A 1_555 1_555
C40A C39A 1_555 1_555
H44A C40A 1_555 1_555
C41A C40A 1_555 1_555
H45A C41A 1_555 1_555
C42A C41A 1_555 1_555
C43A N5A 1_555 1_555
H46A C43A 1_555 1_555
C44A C45A 1_555 1_555
C45A H47A 1_555 1_555
H48A C45A 1_555 1_555
H49A C45A 1_555 1_555
C46A C44A 1_555 1_555
H50A C46A 1_555 1_555
H51A C46A 1_555 1_555
H52A C46A 1_555 1_555
C47A C44A 1_555 1_555
H53A C47A 1_555 1_555
H54A C47A 1_555 1_555
H55A C47A 1_555 1_555
C48A C44A 1_555 1_555
C49A C48A 1_555 1_555
H56A C49A 1_555 1_555
C50A C42A 1_555 1_555
C51A C50A 1_555 1_555
H57A C51A 1_555 1_555
C52A C51A 1_555 1_555
C53A C48A 1_555 1_555
C54A N6A 1_555 1_555
H58A C54A 1_555 1_555
C55A N6A 1_555 1_555
H59A C55A 1_555 1_555
C56A C55A 1_555 1_555
H60A C56A 1_555 1_555
H61A C56A 1_555 1_555
C57A C56A 1_555 1_555
H62A C57A 1_555 1_555
H63A C57A 1_555 1_555
C58A C57A 1_555 1_555
H64A C58A 1_555 1_555
H65A C58A 1_555 1_555
C59A C58A 1_555 1_555
H66A C59A 1_555 1_555
H67A C59A 1_555 1_555
C60A N7A 1_555 1_555
H68A C60A 1_555 1_555
C61A N7A 1_555 1_555
H69A C61A 1_555 1_555
C62A C61A 1_555 1_555
C63A C62A 1_555 1_555
H70A C63A 1_555 1_555
C64A C63A 1_555 1_555
C65A C64A 1_555 1_555
H71A C65A 1_555 1_555
C66A C65A 1_555 1_555
C67A O5A 1_555 1_555
C68A C66A 1_555 1_555
C69A C68A 1_555 1_555
H72A C69A 1_555 1_555
H73A C69A 1_555 1_555
H74A C69A 1_555 1_555
C70A C68A 1_555 1_555
H75A C70A 1_555 1_555
H76A C70A 1_555 1_555
H77A C70A 1_555 1_555
C71A C68A 1_555 1_555
H78A C71A 1_555 1_555
H79A C71A 1_555 1_555
H80A C71A 1_555 1_555
C72A H81A 1_555 1_555
C73A C64A 1_555 1_555
C74A C73A 1_555 1_555
H82A C74A 1_555 1_555
C75A C74A 1_555 1_555
H83A C75A 1_555 1_555
C76A N8A 1_555 1_555
H84A C76A 1_555 1_555
C77A C78A 1_555 1_555
C78A H85A 1_555 1_555
C79A C78A 1_555 1_555
H86A C79A 1_555 1_555
C80A C79A 1_555 1_555
C81A C80A 1_555 1_555
H87A C81A 1_555 1_555
C82A C77A 1_555 1_555
H88A C82A 1_555 1_555
C83A O7A 1_555 1_555
C84A C80A 1_555 1_555
C85A C84A 1_555 1_555
H89A C85A 1_555 1_555
C86A C85A 1_555 1_555
H90A C86A 1_555 1_555
C87A C86A 1_555 1_555
C88A C87A 1_555 1_555
H91A C88A 1_555 1_555
C89A C84A 1_555 1_555
H92A C89A 1_555 1_555
C90A O10A 1_555 1_555
Cd1_2 O7A 1_555 1_555
Cd1A_2 O7 1_555 1_555
Cd2J N8A 1_555 1_555
Cd2K N8 1_555 1_555
Cd2L O10A 1_555 1_555
Cd2M O11M 1_555 1_555
Cd2M_2 O10 1_555 1_555
Cd2N N1A 1_555 1_555
Cd2O N1 1_555 1_555
Fe1C O3 1_555 1_555
Fe2K O6 1_555 1_555
O3A Fe1A 1_555 1_555
O6A Fe2A 1_555 1_555
O7_2 Cd1A 1_555 1_555
O7A_2 Cd1 1_555 1_555
O8_2 Cd1A 1_555 1_555
O8A_2 Cd1 1_555 1_555
O10L Cd2A 1_555 1_555
O10M Cd2 1_555 1_555
O11A Cd2A 1_555 1_555
O12A Cd2A 1_555 1_555
N1N Cd2A 1_555 1_555
N1O Cd2 1_555 1_555
N8J Cd2A 1_555 1_555
N8K Cd2 1_555 1_555
O8 Cd1A_2 1_555 1_555
O12 C104 1_555 1_555
O14 C97 1_555 1_555
C4 C5 1_555 1_555
C11 C12 1_555 1_555
C14 C15 1_555 1_555
C14 C16 1_555 1_555
C17 C22 1_555 1_555
C21 C22 1_555 1_555
C24 C29 1_555 1_555
C28 C29 1_555 1_555
C34 C35 1_555 1_555
C37 C38 1_555 1_555
C42 C43 1_555 1_555
C49 C50 1_555 1_555
C52 C53 1_555 1_555
C52 C54 1_555 1_555
C55 C60 1_555 1_555
C59 C60 1_555 1_555
C62 C67 1_555 1_555
C66 C67 1_555 1_555
C72 C73 1_555 1_555
C75 C76 1_555 1_555
C81 C82 1_555 1_555
C87 C90 1_555 1_555
C88 C89 1_555 1_555
C92 C97 1_555 1_555
C95 C96 1_555 1_555
C98 C104 1_555 1_555
C102 C103 1_555 1_555
O12M Cd2M 1_555 1_555
C100M C101M 1_555 1_555
C102M C103M 1_555 1_555
O14A Cd1A 1_555 1_555
C94A C95A 1_555 1_555
C95A C96A 1_555 1_555
O8A Cd1_2 1_555 1_555
C4A C5A 1_555 1_555
C11A C12A 1_555 1_555
C14A C15A 1_555 1_555
C14A C16A 1_555 1_555
C17A C22A 1_555 1_555
C21A C22A 1_555 1_555
C24A C29A 1_555 1_555
C28A C29A 1_555 1_555
C34A C35A 1_555 1_555
C37A C38A 1_555 1_555
C42A C43A 1_555 1_555
C49A C50A 1_555 1_555
C52A C53A 1_555 1_555
C52A C54A 1_555 1_555
C55A C60A 1_555 1_555
C59A C60A 1_555 1_555
C62A C67A 1_555 1_555
C66A C67A 1_555 1_555
C72A C73A 1_555 1_555
C75A C76A 1_555 1_555
C77A C83A 1_555 1_555
C81A C82A 1_555 1_555
C87A C90A 1_555 1_555
C88A C89A 1_555 1_555
Cd1_2 O7_2 1_555 1_555
Cd1A_2 O7A_2 1_555 1_555
Cd2L O10L 1_555 1_555
Cd2M_2 O10M 1_555 1_555

#END
