
#######################################################################
#
#                 Cambridge Crystallographic Data Centre
#                                CCDC 
#
#######################################################################
#
# If this CIF has been generated from an entry in the Cambridge 
# Structural Database, then it will include bibliographic, chemical, 
# crystal, experimental, refinement or atomic coordinate data resulting 
# from the CCDC's data processing and validation procedures.
#
#######################################################################

data_XOKHOV
_symmetry_cell_setting           monoclinic
_symmetry_space_group_name_H-M   'C 2/c'
_symmetry_Int_Tables_number      15
_space_group_name_Hall           '-C 2yn'
loop_
_symmetry_equiv_pos_site_id
_symmetry_equiv_pos_as_xyz
1 x,y,z
2 -x,y,1/2-z
3 1/2+x,1/2+y,z
4 1/2-x,1/2+y,1/2-z
5 -x,-y,-z
6 x,-y,1/2+z
7 1/2-x,1/2-y,-z
8 1/2+x,1/2-y,1/2+z
_cell_length_a                   32.978(3)
_cell_length_b                   20.0957(15)
_cell_length_c                   13.0079(10)
_cell_angle_alpha                90
_cell_angle_beta                 112.0310(10)
_cell_angle_gamma                90
_cell_volume                     7991.08
loop_
_atom_site_label
_atom_site_type_symbol
_atom_site_fract_x
_atom_site_fract_y
_atom_site_fract_z
C1 C 0.13983(8) 0.33220(14) -0.1016(2)
C2 C 0.15217(8) 0.40371(15) -0.0622(2)
C3 C 0.16351(11) 0.41877(19) 0.0499(3)
H1 H 0.1626 0.3857 0.0989
C4 C 0.17607(13) 0.4821(2) 0.0884(3)
H2 H 0.1834 0.4914 0.1633
C5 C 0.17790(14) 0.5315(2) 0.0186(4)
H3 H 0.1867 0.5741 0.0456
C6 C 0.16652(15) 0.5177(2) -0.0924(4)
H4 H 0.1675 0.5513 -0.1407
C7 C 0.15366(12) 0.45405(17) -0.1326(3)
H5 H 0.1460 0.4453 -0.2078
C8 C 0.11362(8) 0.26468(14) -0.2861(2)
C9 C 0.10302(9) 0.27555(16) -0.4099(2)
C10 C 0.10938(10) 0.33609(18) -0.4528(2)
H6 H 0.1218 0.3714 -0.4052
C11 C 0.09722(13) 0.3443(2) -0.5668(3)
H7 H 0.1006 0.3855 -0.5949
C12 C 0.08025(14) 0.2917(2) -0.6382(3)
H8 H 0.0725 0.2972 -0.7142
C13 C 0.07489(14) 0.2314(2) -0.5961(3)
H9 H 0.0637 0.1957 -0.6439
C14 C 0.08589(12) 0.22291(19) -0.4833(3)
H10 H 0.0818 0.1817 -0.4561
C15 C 0.21595(15) 0.2785(3) 0.3468(4)
H11 H 0.2244 0.3178 0.3226
C16 C 0.19710(17) 0.2826(3) 0.4240(4)
H12 H 0.1923 0.3235 0.4511
C17 C 0.18569(16) 0.2247(4) 0.4595(4)
H13 H 0.1737 0.2257 0.5137
C18 C 0.19164(15) 0.1644(3) 0.4166(4)
H14 H 0.1833 0.1248 0.4402
C19 C 0.21056(11) 0.1642(3) 0.3363(3)
C20 C 0.21701(11) 0.1039(2) 0.2787(3)
C21 C 0.20418(15) 0.0414(3) 0.2965(5)
H15 H 0.1918 0.0345 0.3492
C22 C 0.20993(17) -0.0103(3) 0.2354(6)
H16 H 0.2015 -0.0529 0.2469
C23 C 0.22807(17) -0.0003(3) 0.1569(5)
H17 H 0.2317 -0.0355 0.1146
C24 C 0.24081(13) 0.0639(2) 0.1429(4)
H18 H 0.2533 0.0717 0.0907
C25 C 0.04218(9) 0.44320(17) -0.3883(3)
H19 H 0.0468 0.4016 -0.4134
C26 C 0.05806(11) 0.4984(2) -0.4238(3)
H20 H 0.0736 0.4941 -0.4700
C27 C 0.05034(13) 0.5598(2) -0.3893(3)
H21 H 0.0608 0.5980 -0.4115
C28 C 0.02690(12) 0.56460(18) -0.3213(3)
H22 H 0.0208 0.6060 -0.2986
C29 C 0.01243(9) 0.50677(15) -0.2868(2)
N1 N 0.12723(8) 0.32882(13) -0.22464(19)
N2 N 0.22276(9) 0.22119(17) 0.3044(2)
N3 N 0.23549(9) 0.11444(16) 0.2028(2)
N4 N 0.02060(7) 0.44628(12) -0.31990(18)
O1 O 0.14735(8) 0.13652(12) -0.2654(2)
O2 O 0.19627(7) 0.23424(13) -0.26921(18)
O3 O 0.17513(7) 0.21327(10) -0.10365(18)
O4 O 0.22476(6) 0.31405(11) -0.06947(16)
O5 O 0.20053(7) 0.26887(12) 0.08113(17)
O6 O 0.10397(7) 0.28970(12) 0.05198(17)
O7 O 0.05846(6) 0.36071(10) -0.11359(16)
O8 O 0.07722(6) 0.24086(10) -0.13809(16)
O9 O 0.02914(6) 0.29082(10) -0.32389(16)
O10 O 0.04945(7) 0.16741(11) -0.3034(2)
P1 P 0.16049(2) 0.20636(4) -0.23693(7)
P2 P 0.19003(2) 0.28245(4) -0.03855(6)
P3 P 0.09249(2) 0.30852(4) -0.06565(6)
P4 P 0.06233(2) 0.23738(4) -0.27124(6)
Zn1 Zn 0.249700(10) 0.213950(18) 0.18198(3)
Zn2 Zn 0.0000 0.36135(2) -0.2500
H23 H 0.1106(14) 0.355(2) -0.253(3)
H24 H 0.1428(14) 0.350(2) -0.244(3)
C1A C -0.13983(8) 0.33220(14) -0.3984(2)
C2A C -0.15217(8) 0.40371(15) -0.4378(2)
C3A C -0.16351(11) 0.41877(19) -0.5499(3)
H1A H -0.1626 0.3857 -0.5989
C4A C -0.17607(13) 0.4821(2) -0.5884(3)
H2A H -0.1834 0.4914 -0.6633
C5A C -0.17790(14) 0.5315(2) -0.5186(4)
H3A H -0.1867 0.5741 -0.5456
C6A C -0.16652(15) 0.5177(2) -0.4076(4)
H4A H -0.1675 0.5513 -0.3593
C7A C -0.15366(12) 0.45405(17) -0.3674(3)
H5A H -0.1460 0.4453 -0.2922
C8A C -0.11362(8) 0.26468(14) -0.2139(2)
C9A C -0.10302(9) 0.27555(16) -0.0901(2)
C10A C -0.10938(10) 0.33609(18) -0.0472(2)
H6A H -0.1218 0.3714 -0.0948
C11A C -0.09722(13) 0.3443(2) 0.0668(3)
H7A H -0.1006 0.3855 0.0949
C12A C -0.08025(14) 0.2917(2) 0.1382(3)
H8A H -0.0725 0.2972 0.2142
C13A C -0.07489(14) 0.2314(2) 0.0961(3)
H9A H -0.0637 0.1957 0.1439
C14A C -0.08589(12) 0.22291(19) -0.0167(3)
H10A H -0.0818 0.1817 -0.0439
C15A C -0.21595(15) 0.2785(3) -0.8468(4)
H11A H -0.2244 0.3178 -0.8226
C16A C -0.19710(17) 0.2826(3) -0.9240(4)
H12A H -0.1923 0.3235 -0.9511
C17A C -0.18569(16) 0.2247(4) -0.9595(4)
H13A H -0.1737 0.2257 -1.0137
C18A C -0.19164(15) 0.1644(3) -0.9166(4)
H14A H -0.1833 0.1248 -0.9402
C19A C -0.21056(11) 0.1642(3) -0.8363(3)
C20A C -0.21701(11) 0.1039(2) -0.7787(3)
C21A C -0.20418(15) 0.0414(3) -0.7965(5)
H15A H -0.1918 0.0345 -0.8492
C22A C -0.20993(17) -0.0103(3) -0.7354(6)
H16A H -0.2015 -0.0529 -0.7469
C23A C -0.22807(17) -0.0003(3) -0.6569(5)
H17A H -0.2317 -0.0355 -0.6146
C24A C -0.24081(13) 0.0639(2) -0.6429(4)
H18A H -0.2533 0.0717 -0.5907
C25A C -0.04218(9) 0.44320(17) -0.1117(3)
H19A H -0.0468 0.4016 -0.0866
C26A C -0.05806(11) 0.4984(2) -0.0762(3)
H20A H -0.0736 0.4941 -0.0300
C27A C -0.05034(13) 0.5598(2) -0.1107(3)
H21A H -0.0608 0.5980 -0.0885
C28A C -0.02690(12) 0.56460(18) -0.1787(3)
H22A H -0.0208 0.6060 -0.2014
C29A C -0.01243(9) 0.50677(15) -0.2132(2)
N1A N -0.12723(8) 0.32882(13) -0.27536(19)
N2A N -0.22276(9) 0.22119(17) -0.8044(2)
N3A N -0.23549(9) 0.11444(16) -0.7028(2)
N4A N -0.02060(7) 0.44628(12) -0.18010(18)
O1A O -0.14735(8) 0.13652(12) -0.2346(2)
O2A O -0.19627(7) 0.23424(13) -0.23079(18)
O2F O 0.30373(7) 0.26576(13) 0.26921(18)
O2G O -0.30373(7) 0.26576(13) -0.76921(18)
O3A O -0.17513(7) 0.21327(10) -0.39635(18)
O4A O -0.22476(6) 0.31405(11) -0.43053(16)
O4F O 0.27524(6) 0.18595(11) 0.06947(16)
O4G O -0.27524(6) 0.18595(11) -0.56947(16)
O5A O -0.20053(7) 0.26887(12) -0.58113(17)
O6A O -0.10397(7) 0.28970(12) -0.55198(17)
O7A O -0.05846(6) 0.36071(10) -0.38641(16)
O8A O -0.07722(6) 0.24086(10) -0.36191(16)
O9A O -0.02914(6) 0.29082(10) -0.17611(16)
O10A O -0.04945(7) 0.16741(11) -0.1966(2)
P1A P -0.16049(2) 0.20636(4) -0.26307(7)
P2A P -0.19003(2) 0.28245(4) -0.46145(6)
P3A P -0.09249(2) 0.30852(4) -0.43435(6)
P4A P -0.06233(2) 0.23738(4) -0.22876(6)
Zn1G Zn -0.250300(10) 0.286050(18) -0.31802(3)
Zn1F Zn 0.250300(10) 0.286050(18) -0.18198(3)
Zn1A Zn -0.249700(10) 0.213950(18) -0.68198(3)
H23A H -0.1106(14) 0.355(2) -0.247(3)
H24A H -0.1428(14) 0.350(2) -0.256(3)
O11 O 0.0963(2) 0.9197(3) -0.2589(6)
H25 H 0.070(3) 0.918(4) -0.303(7)
H26 H 0.109(3) 0.909(4) -0.300(7)
O12 O 0.1274(3) 0.0530(6) -0.5298(14)
H27 H 0.116(4) 0.076(6) -0.593(10)
H28 H 0.119(5) 0.070(7) -0.488(12)
O13 O 0.9645(2) 0.1100(4) -0.3997(8)
H29 H 0.949(3) 0.114(5) -0.361(7)
H30 H 0.965(3) 0.147(5) -0.430(8)
O14 O 0.98449(18) 0.1380(4) -0.6570(5)
H31 H 0.998(3) 0.104(5) -0.625(7)
H32 H 0.982(3) 0.175(4) -0.627(7)
O15 O 0.02272(12) 0.2601(2) -0.9353(3)
H33 H 0.047(2) 0.269(3) -0.939(5)
H34 H -0.002(2) 0.261(3) -1.007(5)
O16 O 0.1213(2) 0.8463(2) -0.4084(5)
H35 H 0.117(2) 0.809(4) -0.443(6)
H36 H 0.146(2) 0.844(4) -0.357(6)
O17 O 0.0270(9) 0.0281(10) -0.5559(19)
H37 H 0.013(8) -0.003(11) -0.601(18)
H38 H 0.053(8) 0.035(12) -0.55(2)
O18 O 0.0866(5) 0.0425(5) -0.3686(9)
H39 H 0.092(5) 0.010(7) -0.338(11)
H40 H 0.062(5) 0.036(8) -0.383(13)
O19 O 0.1363(3) 0.0742(6) -0.0694(8)
H41 H 0.135(4) 0.032(7) -0.057(10)
H42 H 0.133(4) 0.099(6) -0.022(10)
loop_
_geom_bond_atom_site_label_1
_geom_bond_atom_site_label_2
_geom_bond_site_symmetry_1
_geom_bond_site_symmetry_2
C1 C2 1_555 1_555
C2 C3 1_555 1_555
C3 H1 1_555 1_555
C4 C3 1_555 1_555
H2 C4 1_555 1_555
C5 C4 1_555 1_555
H3 C5 1_555 1_555
C6 C5 1_555 1_555
H4 C6 1_555 1_555
C7 C2 1_555 1_555
H5 C7 1_555 1_555
C8 C9 1_555 1_555
C9 C10 1_555 1_555
C10 H6 1_555 1_555
C11 C10 1_555 1_555
H7 C11 1_555 1_555
C12 C11 1_555 1_555
H8 C12 1_555 1_555
C13 C12 1_555 1_555
H9 C13 1_555 1_555
C14 C9 1_555 1_555
H10 C14 1_555 1_555
C15 H11 1_555 1_555
C16 C15 1_555 1_555
H12 C16 1_555 1_555
C17 C16 1_555 1_555
H13 C17 1_555 1_555
C18 C17 1_555 1_555
H14 C18 1_555 1_555
C19 C18 1_555 1_555
C20 C19 1_555 1_555
C21 C20 1_555 1_555
H15 C21 1_555 1_555
C22 C21 1_555 1_555
H16 C22 1_555 1_555
C23 C22 1_555 1_555
H17 C23 1_555 1_555
C24 C23 1_555 1_555
H18 C24 1_555 1_555
C25 H19 1_555 1_555
C26 C25 1_555 1_555
H20 C26 1_555 1_555
C27 C26 1_555 1_555
H21 C27 1_555 1_555
C28 C27 1_555 1_555
H22 C28 1_555 1_555
C29 C28 1_555 1_555
N1 C1 1_555 1_555
N2 C15 1_555 1_555
N3 C20 1_555 1_555
N4 C25 1_555 1_555
O1 P1 1_555 1_555
O2 P1 1_555 1_555
O3 P1 1_555 1_555
O4 P2 1_555 1_555
O5 P2 1_555 1_555
O6 P3 1_555 1_555
O7 P3 1_555 1_555
O8 P3 1_555 1_555
O9 P4 1_555 1_555
O10 P4 1_555 1_555
P1 C8 1_555 1_555
P2 C1 1_555 1_555
P3 C1 1_555 1_555
P4 C8 1_555 1_555
Zn1 N2 1_555 1_555
Zn2 N4 1_555 1_555
H23 N1 1_555 1_555
H24 N1 1_555 1_555
O11 H25 1_555 1_555
H26 O11 1_555 1_555
O12 H27 1_555 1_555
H28 O12 1_555 1_555
O13 H29 1_555 1_555
H30 O13 1_555 1_555
O14 H31 1_555 1_555
H32 O14 1_555 1_555
O15 H33 1_555 1_555
H34 O15 1_555 1_555
O16 H35 1_555 1_555
H36 O16 1_555 1_555
O17 H37 1_555 1_555
H38 O17 1_555 1_555
O18 H39 1_555 1_555
H40 O18 1_555 1_555
O19 H41 1_555 1_555
H42 O19 1_555 1_555
C1A C2A 1_555 1_555
C2A C3A 1_555 1_555
C3A H1A 1_555 1_555
C4A C3A 1_555 1_555
H2A C4A 1_555 1_555
C5A C4A 1_555 1_555
H3A C5A 1_555 1_555
C6A C5A 1_555 1_555
H4A C6A 1_555 1_555
C7A C2A 1_555 1_555
H5A C7A 1_555 1_555
C8A C9A 1_555 1_555
C9A C10A 1_555 1_555
C10A H6A 1_555 1_555
C11A C10A 1_555 1_555
H7A C11A 1_555 1_555
C12A C11A 1_555 1_555
H8A C12A 1_555 1_555
C13A C12A 1_555 1_555
H9A C13A 1_555 1_555
C14A C9A 1_555 1_555
H10A C14A 1_555 1_555
C15A H11A 1_555 1_555
C16A C15A 1_555 1_555
H12A C16A 1_555 1_555
C17A C16A 1_555 1_555
H13A C17A 1_555 1_555
C18A C17A 1_555 1_555
H14A C18A 1_555 1_555
C19A C18A 1_555 1_555
C20A C19A 1_555 1_555
C21A C20A 1_555 1_555
H15A C21A 1_555 1_555
C22A C21A 1_555 1_555
H16A C22A 1_555 1_555
C23A C22A 1_555 1_555
H17A C23A 1_555 1_555
C24A C23A 1_555 1_555
H18A C24A 1_555 1_555
C25A H19A 1_555 1_555
C26A C25A 1_555 1_555
H20A C26A 1_555 1_555
C27A C26A 1_555 1_555
H21A C27A 1_555 1_555
C28A C27A 1_555 1_555
H22A C28A 1_555 1_555
C29A C29 1_555 1_555
N1A C1A 1_555 1_555
N2A C15A 1_555 1_555
N3A C20A 1_555 1_555
N4A Zn2 1_555 1_555
O1A P1A 1_555 1_555
O2A P1A 1_555 1_555
O2F Zn1 1_555 1_555
O2G Zn1A 1_555 1_555
O3A P1A 1_555 1_555
O4A P2A 1_555 1_555
O4F Zn1 1_555 1_555
O4G Zn1A 1_555 1_555
O5A P2A 1_555 1_555
O6A P3A 1_555 1_555
O7A Zn2 1_555 1_555
O8A P3A 1_555 1_555
O9A Zn2 1_555 1_555
O10A P4A 1_555 1_555
P1A C8A 1_555 1_555
P2A C1A 1_555 1_555
P3A C1A 1_555 1_555
P4A C8A 1_555 1_555
Zn1G O2A 1_555 1_555
Zn1F O2 1_555 1_555
Zn1A N2A 1_555 1_555
H23A N1A 1_555 1_555
H24A N1A 1_555 1_555
C6 C7 1_555 1_555
C8 N1 1_555 1_555
C13 C14 1_555 1_555
C19 N2 1_555 1_555
C24 N3 1_555 1_555
C29 N4 1_555 1_555
N3 Zn1 1_555 1_555
O3 P2 1_555 1_555
O4 Zn1F 1_555 1_555
O5 Zn1 1_555 1_555
O7 Zn2 1_555 1_555
O8 P4 1_555 1_555
O9 Zn2 1_555 1_555
C6A C7A 1_555 1_555
C8A N1A 1_555 1_555
C13A C14A 1_555 1_555
C19A N2A 1_555 1_555
C24A N3A 1_555 1_555
C25A N4A 1_555 1_555
C28A C29A 1_555 1_555
C29A N4A 1_555 1_555
N3A Zn1A 1_555 1_555
O3A P2A 1_555 1_555
O4A Zn1G 1_555 1_555
O5A Zn1A 1_555 1_555
O7A P3A 1_555 1_555
O8A P4A 1_555 1_555
O9A P4A 1_555 1_555

#END
