
#######################################################################
#
#                 Cambridge Crystallographic Data Centre
#                                CCDC 
#
#######################################################################
#
# If this CIF has been generated from an entry in the Cambridge 
# Structural Database, then it will include bibliographic, chemical, 
# crystal, experimental, refinement or atomic coordinate data resulting 
# from the CCDC's data processing and validation procedures.
#
#######################################################################

data_XOKJIR
_symmetry_cell_setting           monoclinic
_symmetry_space_group_name_H-M   'C 2/c'
_symmetry_Int_Tables_number      15
_space_group_name_Hall           '-C 2yn'
loop_
_symmetry_equiv_pos_site_id
_symmetry_equiv_pos_as_xyz
1 x,y,z
2 -x,y,1/2-z
3 1/2+x,1/2+y,z
4 1/2-x,1/2+y,1/2-z
5 -x,-y,-z
6 x,-y,1/2+z
7 1/2-x,1/2-y,-z
8 1/2+x,1/2-y,1/2+z
_cell_length_a                   15.85(2)
_cell_length_b                   12.229(17)
_cell_length_c                   25.01(3)
_cell_angle_alpha                90
_cell_angle_beta                 94.47(3)
_cell_angle_gamma                90
_cell_volume                     4832.93
loop_
_atom_site_label
_atom_site_type_symbol
_atom_site_fract_x
_atom_site_fract_y
_atom_site_fract_z
Ag1 Ag 0.207179(18) 0.33704(2) 0.800451(10)
O1 O 0.14191(15) 0.23058(18) 0.72062(9)
N1 N 0.13375(17) 0.2236(2) 0.84474(10)
N2 N 0.2180(2) -0.0363(2) 0.72966(12)
N3 N 0.20341(18) 0.0630(2) 0.70404(10)
C1 C 0.2422(2) 0.0878(3) 0.65569(12)
C2 C 0.1924(3) 0.1264(4) 0.61237(15)
H1 H 0.1343 0.1347 0.6137
C3 C 0.2328(3) 0.1529(4) 0.56596(19)
H2 H 0.2009 0.1811 0.5363
C4 C 0.3176(3) 0.1382(4) 0.56356(19)
H3 H 0.3431 0.1568 0.5325
C5 C 0.3647(3) 0.0969(4) 0.60599(18)
H4 H 0.4222 0.0846 0.6037
C6 C 0.3280(2) 0.0725(4) 0.65303(15)
H5 H 0.3610 0.0460 0.6826
C7 C 0.1628(2) 0.1362(3) 0.73574(12)
C8 C 0.1508(2) 0.0767(3) 0.78374(12)
C9 C 0.1851(3) -0.0281(3) 0.77649(14)
C10 C 0.1886(4) -0.1249(4) 0.81347(19)
H6 H 0.2163 -0.1846 0.7971
H7 H 0.1321 -0.1461 0.8203
H8 H 0.2196 -0.1058 0.8467
C11 C 0.1200(2) 0.1217(3) 0.83198(12)
C12 C 0.0753(2) 0.0448(3) 0.86664(14)
C13 C 0.1026(3) 0.0280(3) 0.91981(16)
H9 H 0.1479 0.0679 0.9356
C14 C 0.0615(4) -0.0491(4) 0.9496(2)
H10 H 0.0811 -0.0624 0.9850
C15 C -0.0070(4) -0.1058(4) 0.9274(3)
H11 H -0.0346 -0.1558 0.9480
C16 C -0.0346(3) -0.0886(4) 0.8753(3)
H12 H -0.0811 -0.1270 0.8601
C17 C 0.0065(3) -0.0138(3) 0.84481(18)
H13 H -0.0126 -0.0028 0.8091
C18 C 0.0967(2) 0.2706(3) 0.88992(12)
C19 C 0.0085(2) 0.2778(3) 0.88951(15)
H14 H -0.0254 0.2520 0.8602
C20 C -0.0284(3) 0.3235(3) 0.93307(19)
H15 H -0.0869 0.3276 0.9332
C21 C 0.0224(3) 0.3625(4) 0.97571(17)
H16 H -0.0018 0.3910 1.0054
C22 C 0.1088(3) 0.3597(3) 0.97469(16)
H17 H 0.1422 0.3889 1.0034
C23 C 0.1478(3) 0.3144(3) 0.93209(14)
C24 C 0.2426(3) 0.3155(4) 0.93198(18)
H18 H 0.2667 0.3492 0.9643
H19 H 0.2587 0.3561 0.9015
H20 H 0.2630 0.2418 0.9300
Ag1C Ag 0.292821(18) -0.16296(2) 0.699549(10)
N2C N 0.2820(2) 0.4637(2) 0.77034(12)
O2 O 0.0000 0.6408(5) 1.2500
H21 H 0.0000 0.694(5) 1.2500
C25 C 0.1018(6) 0.4585(11) 1.1783(4)
H22 H 0.0460 0.4916 1.1752
H23 H 0.1409 0.5088 1.1973
Cl1 Cl 0.1330(3) 0.4320(5) 1.11861(14)
Cl2 Cl 0.0994(5) 0.3351(5) 1.2125(2)
loop_
_geom_bond_atom_site_label_1
_geom_bond_atom_site_label_2
_geom_bond_site_symmetry_1
_geom_bond_site_symmetry_2
Ag1 O1 1_555 1_555
O1 C7 1_555 1_555
N1 Ag1 1_555 1_555
N2 N3 1_555 1_555
N3 C1 1_555 1_555
C1 C2 1_555 1_555
C2 H1 1_555 1_555
C3 C2 1_555 1_555
H2 C3 1_555 1_555
C4 C3 1_555 1_555
H3 C4 1_555 1_555
C5 C4 1_555 1_555
H4 C5 1_555 1_555
C6 C1 1_555 1_555
H5 C6 1_555 1_555
C7 N3 1_555 1_555
C8 C7 1_555 1_555
C9 N2 1_555 1_555
C10 C9 1_555 1_555
H6 C10 1_555 1_555
H7 C10 1_555 1_555
H8 C10 1_555 1_555
C11 N1 1_555 1_555
C12 C11 1_555 1_555
C13 C12 1_555 1_555
H9 C13 1_555 1_555
C14 C13 1_555 1_555
H10 C14 1_555 1_555
C15 C14 1_555 1_555
H11 C15 1_555 1_555
C16 C15 1_555 1_555
H12 C16 1_555 1_555
C17 C12 1_555 1_555
H13 C17 1_555 1_555
C18 N1 1_555 1_555
C19 C18 1_555 1_555
H14 C19 1_555 1_555
C20 C19 1_555 1_555
H15 C20 1_555 1_555
C21 C20 1_555 1_555
H16 C21 1_555 1_555
C22 C21 1_555 1_555
H17 C22 1_555 1_555
C23 C18 1_555 1_555
C24 C23 1_555 1_555
H18 C24 1_555 1_555
H19 C24 1_555 1_555
H20 C24 1_555 1_555
O2 H21 1_555 1_555
C25 H22 1_555 1_555
H23 C25 1_555 1_555
Cl1 C25 1_555 1_555
Cl2 C25 1_555 1_555
Ag1C N2 1_555 1_555
N2C Ag1 1_555 1_555
C5 C6 1_555 1_555
C8 C9 1_555 1_555
C8 C11 1_555 1_555
C16 C17 1_555 1_555
C22 C23 1_555 1_555

#END
