
#######################################################################
#
#                 Cambridge Crystallographic Data Centre
#                                CCDC 
#
#######################################################################
#
# If this CIF has been generated from an entry in the Cambridge 
# Structural Database, then it will include bibliographic, chemical, 
# crystal, experimental, refinement or atomic coordinate data resulting 
# from the CCDC's data processing and validation procedures.
#
#######################################################################

data_XOKJUD
_symmetry_cell_setting           triclinic
_symmetry_space_group_name_H-M   'P -1'
_symmetry_Int_Tables_number      2
_space_group_name_Hall           '-P 1'
loop_
_symmetry_equiv_pos_site_id
_symmetry_equiv_pos_as_xyz
1 x,y,z
2 -x,-y,-z
_cell_length_a                   8.850(6)
_cell_length_b                   9.292(6)
_cell_length_c                   14.741(10)
_cell_angle_alpha                97.113(9)
_cell_angle_beta                 96.054(9)
_cell_angle_gamma                105.195(9)
_cell_volume                     1148.73
loop_
_atom_site_label
_atom_site_type_symbol
_atom_site_fract_x
_atom_site_fract_y
_atom_site_fract_z
Eu1 Eu 0.13841(5) 0.26997(5) 0.27545(3)
Eu2 Eu -0.46034(5) 0.15756(6) 0.17365(3)
O1 O -0.0079(8) 0.3788(8) 0.1800(5)
O2 O -0.2630(8) 0.3369(9) 0.1305(5)
O3 O -0.4233(8) 0.7267(10) -0.0533(5)
O4 O -0.2410(8) 0.8166(8) -0.1367(5)
O5 O -0.2529(9) 0.2181(9) 0.3033(5)
O6 O -0.0422(8) 0.1872(9) 0.3861(5)
O7 O -0.2282(8) -0.0755(8) 0.6675(5)
O8 O -0.4188(9) -0.0002(8) 0.7293(5)
O9 O 0.4672(9) 0.3485(8) 0.2751(5)
O10 O 0.3354(9) 0.5109(9) 0.2435(7)
O11 O 0.6902(9) 0.9917(8) 0.1422(5)
O12 O 0.9505(8) 1.0516(8) 0.1988(5)
O13 O 0.2780(11) 0.3599(10) 0.4476(6)
O14 O 0.0964(11) 0.5021(10) 0.3660(6)
O15 O -0.6096(10) -0.0568(11) 0.0620(6)
N1 N 0.1050(9) 0.7671(9) 0.0648(6)
N2 N -0.4819(10) 0.2513(10) 0.5274(6)
N3 N 0.8934(10) 0.6733(10) 0.3213(7)
C1 C -0.1198(11) 0.4121(12) 0.1397(7)
C2 C -0.0890(11) 0.5511(11) 0.0949(7)
C3 C 0.0670(12) 0.6463(11) 0.1074(7)
H1 H 0.1452 0.6245 0.1461
C4 C -0.0097(13) 0.7939(13) 0.0085(7)
H2 H 0.0176 0.8741 -0.0242
C5 C -0.1622(12) 0.7120(12) -0.0039(7)
C6 C -0.2073(12) 0.5834(12) 0.0391(7)
H3 H -0.3114 0.5233 0.0304
C7 C -0.2884(13) 0.7490(13) -0.0702(7)
C8 C -0.1781(12) 0.1991(12) 0.3778(7)
C9 C -0.2672(11) 0.1878(11) 0.4581(7)
C10 C -0.3892(12) 0.2556(12) 0.4613(7)
H4 H -0.4081 0.3082 0.4135
C11 C -0.4521(12) 0.1713(11) 0.5940(7)
H5 H -0.5143 0.1660 0.6411
C12 C -0.3365(10) 0.0967(11) 0.5976(7)
C13 C -0.2388(11) 0.1068(11) 0.5289(7)
H6 H -0.1571 0.0610 0.5302
C14 C -0.3263(10) -0.0004(10) 0.6703(6)
C15 C 0.4610(11) 0.4784(11) 0.2588(7)
C16 C 0.6179(11) 0.5992(11) 0.2637(7)
C17 C 0.6311(11) 0.7247(11) 0.2223(7)
H7 H 0.5434 0.7404 0.1887
C18 C 0.7799(11) 0.8287(10) 0.2319(7)
C19 C 0.9032(12) 0.7954(12) 0.2800(8)
H8 H 1.0028 0.8633 0.2846
C20 C 0.7484(12) 0.5740(11) 0.3099(7)
H9 H 0.7368 0.4848 0.3345
C21 C 0.8097(11) 0.9667(11) 0.1877(7)
Eu1A Eu -0.13841(5) 0.73003(5) -0.27545(3)
Eu1_2 Eu 1.13841(5) 1.26997(5) 0.27545(3)
Eu1A_2 Eu -0.13841(5) -0.26997(5) 0.72455(3)
Eu2_2 Eu 0.53966(5) 0.15756(6) 0.17365(3)
Eu2A Eu -0.53966(5) 0.84244(6) -0.17365(3)
Eu2_3 Eu 0.53966(5) 1.15756(6) 0.17365(3)
Eu2A_2 Eu -0.53966(5) -0.15756(6) 0.82635(3)
O3A O -0.5767(8) 0.2733(10) 0.0533(5)
O4A O -0.7590(8) 0.1834(8) 0.1367(5)
O4A_2 O 0.2410(8) 0.1834(8) 0.1367(5)
O7A O 0.2282(8) 0.0755(8) 0.3325(5)
O8A O -0.5812(9) 0.0002(8) 0.2707(5)
O9_2 O -0.5328(9) 0.3485(8) 0.2751(5)
O11_2 O -0.3098(9) -0.0083(8) 0.1422(5)
O12_2 O -0.0495(8) 0.0516(8) 0.1988(5)
loop_
_geom_bond_atom_site_label_1
_geom_bond_atom_site_label_2
_geom_bond_site_symmetry_1
_geom_bond_site_symmetry_2
Eu1 O1 1_555 1_555
Eu2 O2 1_555 1_555
O1 C1 1_555 1_555
O2 C1 1_555 1_555
O3 C7 1_555 1_555
O4 C7 1_555 1_555
O5 Eu2 1_555 1_555
O6 Eu1 1_555 1_555
O7 C14 1_555 1_555
O8 C14 1_555 1_555
O9 Eu1 1_555 1_555
O10 Eu1 1_555 1_555
O11 C21 1_555 1_555
O12 C21 1_555 1_555
O13 Eu1 1_555 1_555
O14 Eu1 1_555 1_555
O15 Eu2 1_555 1_555
N1 C3 1_555 1_555
N2 C10 1_555 1_555
N3 C19 1_555 1_555
C1 C2 1_555 1_555
C2 C3 1_555 1_555
C3 H1 1_555 1_555
C4 N1 1_555 1_555
H2 C4 1_555 1_555
C5 C4 1_555 1_555
C6 C2 1_555 1_555
H3 C6 1_555 1_555
C7 C5 1_555 1_555
C8 O5 1_555 1_555
C9 C8 1_555 1_555
C10 C9 1_555 1_555
H4 C10 1_555 1_555
C11 N2 1_555 1_555
H5 C11 1_555 1_555
C12 C11 1_555 1_555
C13 C9 1_555 1_555
H6 C13 1_555 1_555
C14 C12 1_555 1_555
C15 O9 1_555 1_555
C16 C15 1_555 1_555
C17 C16 1_555 1_555
H7 C17 1_555 1_555
C18 C17 1_555 1_555
C19 C18 1_555 1_555
H8 C19 1_555 1_555
C20 N3 1_555 1_555
H9 C20 1_555 1_555
C21 C18 1_555 1_555
Eu1A O4 1_555 1_555
Eu1_2 O12 1_555 1_555
Eu1A_2 O7 1_555 1_555
Eu2_2 O9 1_555 1_555
Eu2A O3 1_555 1_555
Eu2_3 O11 1_555 1_555
Eu2A_2 O8 1_555 1_555
O3A Eu2 1_555 1_555
O4A Eu2 1_555 1_555
O4A_2 Eu1 1_555 1_555
O7A Eu1 1_555 1_555
O8A Eu2 1_555 1_555
O9_2 Eu2 1_555 1_555
O11_2 Eu2 1_555 1_555
O12_2 Eu1 1_555 1_555
O4 Eu2A 1_555 1_555
O6 C8 1_555 1_555
O10 C15 1_555 1_555
C5 C6 1_555 1_555
C12 C13 1_555 1_555
C16 C20 1_555 1_555
Eu2_2 O4A_2 1_555 1_555

#END
