
#######################################################################
#
#                 Cambridge Crystallographic Data Centre
#                                CCDC 
#
#######################################################################
#
# If this CIF has been generated from an entry in the Cambridge 
# Structural Database, then it will include bibliographic, chemical, 
# crystal, experimental, refinement or atomic coordinate data resulting 
# from the CCDC's data processing and validation procedures.
#
#######################################################################

data_XOKKIS
_symmetry_cell_setting           orthorhombic
_symmetry_space_group_name_H-M   'P n m a'
_symmetry_Int_Tables_number      62
_space_group_name_Hall           '-P 2ac 2n'
loop_
_symmetry_equiv_pos_site_id
_symmetry_equiv_pos_as_xyz
1 x,y,z
2 -x,1/2+y,-z
3 1/2-x,-y,1/2+z
4 1/2+x,1/2-y,1/2-z
5 -x,-y,-z
6 x,1/2-y,z
7 1/2+x,y,1/2-z
8 1/2-x,1/2+y,1/2+z
_cell_length_a                   6.0853(2)
_cell_length_b                   11.4479(3)
_cell_length_c                   5.9722(2)
_cell_angle_alpha                90
_cell_angle_beta                 90
_cell_angle_gamma                90
_cell_volume                     416.047
loop_
_atom_site_label
_atom_site_type_symbol
_atom_site_fract_x
_atom_site_fract_y
_atom_site_fract_z
Bi1 Bi -0.29362(6) 0.2500 0.00124(11)
O1 O -0.4459(12) 0.2500 -0.3217(12)
O2 O -0.2499(9) 0.4528(5) -0.1127(10)
O3 O -0.6041(10) 0.3704(4) 0.1119(9)
C1 C -0.3983(13) 0.5249(6) -0.0634(12)
Bi1C Bi -0.79362(6) 0.2500 -0.50124(11)
Bi1A Bi -0.70638(6) 0.7500 -0.00124(11)
O1C O 0.0541(12) 0.2500 -0.1783(12)
O2E O -0.2499(9) 0.0472(5) -0.1127(10)
O2D O -0.7501(9) 0.5472(5) 0.1127(10)
O3E O -0.6041(10) 0.1296(4) 0.1119(9)
O3D O -0.3959(10) 0.6296(4) -0.1119(9)
C1D C -0.6017(13) 0.4751(6) 0.0634(12)
loop_
_geom_bond_atom_site_label_1
_geom_bond_atom_site_label_2
_geom_bond_site_symmetry_1
_geom_bond_site_symmetry_2
Bi1 O1 1_555 1_555
O1 Bi1C 1_555 1_555
O2 Bi1 1_555 1_555
O3 Bi1 1_555 1_555
C1 O2 1_555 1_555
Bi1A O2D 1_555 1_555
O1C Bi1 1_555 1_555
O2E Bi1 1_555 1_555
O2D C1D 1_555 1_555
O3E Bi1 1_555 1_555
O3D C1 1_555 1_555
C1D O3 1_555 1_555
C1 C1D 1_555 1_555
Bi1A O3D 1_555 1_555

#END
