
#######################################################################
#
#                 Cambridge Crystallographic Data Centre
#                                CCDC 
#
#######################################################################
#
# If this CIF has been generated from an entry in the Cambridge 
# Structural Database, then it will include bibliographic, chemical, 
# crystal, experimental, refinement or atomic coordinate data resulting 
# from the CCDC's data processing and validation procedures.
#
#######################################################################

data_XOKPIY
_symmetry_cell_setting           monoclinic
_symmetry_space_group_name_H-M   'P 21/c'
_symmetry_Int_Tables_number      14
_space_group_name_Hall           '-P 2ybc'
loop_
_symmetry_equiv_pos_site_id
_symmetry_equiv_pos_as_xyz
1 x,y,z
2 -x,1/2+y,1/2-z
3 -x,-y,-z
4 x,1/2-y,1/2+z
_cell_length_a                   10.7323(8)
_cell_length_b                   12.8099(10)
_cell_length_c                   17.3311(13)
_cell_angle_alpha                90
_cell_angle_beta                 102.411(5)
_cell_angle_gamma                90
_cell_volume                     2326.99
loop_
_atom_site_label
_atom_site_type_symbol
_atom_site_fract_x
_atom_site_fract_y
_atom_site_fract_z
Ag1 Ag 0.08315(5) 0.49067(4) 0.20951(3)
Mn1 Mn 0.27892(7) 0.42241(6) -0.03998(5)
Mn2 Mn 0.0000 0.5000 0.5000
Cl1 Cl 0.11805(13) 0.31391(11) -0.11660(9)
N1 N -0.0058(4) 0.5023(3) 0.3735(3)
N2 N 0.2121(4) 0.4551(4) 0.0619(3)
N3 N 0.2261(3) 0.5823(3) -0.0967(2)
N4 N 0.4168(3) 0.4637(3) -0.1097(2)
N5 N 0.5194(3) 0.3978(3) -0.1062(2)
N6 N 0.8258(3) 0.1055(3) -0.0236(2)
O1 O 0.4375(3) 0.3162(3) -0.0084(2)
O2 O -0.1299(4) 0.6354(3) 0.4900(3)
C1 C 0.0182(5) 0.4983(4) 0.3130(4)
C2 C 0.1672(5) 0.4726(4) 0.1143(4)
C3 C 0.1247(5) 0.6392(4) -0.0902(3)
C4 C 0.0798(5) 0.7200(4) -0.1409(4)
C5 C 0.1394(6) 0.7427(5) -0.2005(4)
C6 C 0.2453(5) 0.6861(4) -0.2075(3)
C7 C 0.2889(4) 0.6074(4) -0.1542(3)
C8 C 0.5422(5) 0.6654(4) -0.2110(4)
C9 C 0.6191(6) 0.6897(5) -0.2631(4)
C10 C 0.6393(6) 0.6185(6) -0.3165(4)
C11 C 0.5853(7) 0.5221(6) -0.3181(5)
C12 C 0.5096(6) 0.4963(5) -0.2661(4)
C13 C 0.4864(4) 0.5685(4) -0.2120(3)
C14 C 0.4016(4) 0.5425(3) -0.1576(3)
C15 C 0.5186(4) 0.3256(3) -0.0515(3)
C16 C 0.6245(4) 0.2483(3) -0.0437(3)
C17 C 0.7200(4) 0.2576(4) -0.0854(3)
C18 C 0.8170(4) 0.1856(4) -0.0739(3)
H1 H 0.8801 0.1929 -0.1028
C19 C 0.7328(5) 0.0970(4) 0.0162(3)
C20 C 0.6318(5) 0.1658(4) 0.0081(3)
C21 C -0.2347(5) 0.6585(5) 0.4276(4)
H2 H -0.2741 0.7223 0.4391
H3 H -0.2956 0.6027 0.4221
H4 H -0.2055 0.6664 0.3793
H5 H -0.121(5) 0.667(4) 0.526(3)
H6 H 0.078(5) 0.613(4) -0.048(4)
H7 H 0.005(5) 0.759(4) -0.134(3)
H8 H 0.107(5) 0.795(5) -0.237(4)
H9 H 0.281(4) 0.699(4) -0.245(3)
H10 H 0.523(5) 0.714(4) -0.177(3)
H11 H 0.661(6) 0.754(5) -0.260(4)
H12 H 0.700(6) 0.636(5) -0.352(4)
H13 H 0.597(6) 0.472(5) -0.352(4)
H14 H 0.477(5) 0.432(5) -0.266(3)
H15 H 0.720(5) 0.308(4) -0.117(3)
H16 H 0.747(5) 0.037(5) 0.054(3)
H17 H 0.567(4) 0.156(3) 0.032(3)
Ag1B Ag -0.08315(5) 0.50933(4) 0.79049(3)
Mn1B Mn -0.27892(7) 0.57759(6) 1.03998(5)
Cl1B Cl -0.11805(13) 0.68609(11) 1.11660(9)
N1B N 0.0058(4) 0.4977(3) 0.6265(3)
N2B N -0.2121(4) 0.5449(4) 0.9381(3)
N3B N -0.2261(3) 0.4177(3) 1.0967(2)
N4B N -0.4168(3) 0.5363(3) 1.1097(2)
N5B N -0.5194(3) 0.6022(3) 1.1062(2)
N6B N -0.8258(3) 0.8945(3) 1.0236(2)
O1B O -0.4375(3) 0.6838(3) 1.0084(2)
O2B O 0.1299(4) 0.3646(3) 0.5100(3)
C1B C -0.0182(5) 0.5017(4) 0.6870(4)
C2B C -0.1672(5) 0.5274(4) 0.8857(4)
C3B C -0.1247(5) 0.3608(4) 1.0902(3)
C4B C -0.0798(5) 0.2800(4) 1.1409(4)
C5B C -0.1394(6) 0.2573(5) 1.2005(4)
C6B C -0.2453(5) 0.3139(4) 1.2075(3)
C7B C -0.2889(4) 0.3926(4) 1.1542(3)
C8B C -0.5422(5) 0.3346(4) 1.2110(4)
C9B C -0.6191(6) 0.3103(5) 1.2631(4)
C10B C -0.6393(6) 0.3815(6) 1.3165(4)
C11B C -0.5853(7) 0.4779(6) 1.3181(5)
C12B C -0.5096(6) 0.5037(5) 1.2661(4)
C13B C -0.4864(4) 0.4315(4) 1.2120(3)
C14B C -0.4016(4) 0.4575(3) 1.1576(3)
C15B C -0.5186(4) 0.6744(3) 1.0515(3)
C16B C -0.6245(4) 0.7517(3) 1.0437(3)
C17B C -0.7200(4) 0.7424(4) 1.0854(3)
C18B C -0.8170(4) 0.8144(4) 1.0739(3)
H1B H -0.8801 0.8071 1.1028
C19B C -0.7328(5) 0.9030(4) 0.9838(3)
C20B C -0.6318(5) 0.8342(4) 0.9919(3)
C21B C 0.2347(5) 0.3415(5) 0.5724(4)
H2B H 0.2741 0.2777 0.5609
H3B H 0.2956 0.3973 0.5779
H4B H 0.2055 0.3336 0.6207
H5B H 0.121(5) 0.333(4) 0.474(3)
H6B H -0.078(5) 0.387(4) 1.048(4)
H7B H -0.005(5) 0.241(4) 1.134(3)
H8B H -0.107(5) 0.205(5) 1.237(4)
H9B H -0.281(4) 0.301(4) 1.245(3)
H10B H -0.523(5) 0.286(4) 1.177(3)
H11B H -0.661(6) 0.246(5) 1.260(4)
H12B H -0.700(6) 0.364(5) 1.352(4)
H13B H -0.597(6) 0.528(5) 1.352(4)
H14B H -0.477(5) 0.568(5) 1.266(3)
H15B H -0.720(5) 0.692(4) 1.117(3)
H16B H -0.747(5) 0.963(5) 0.946(3)
H17B H -0.567(4) 0.844(3) 0.968(3)
Mn2A Mn -1.0000 1.0000 1.0000
Mn2A_2 Mn 1.0000 0.0000 0.0000
N6A N 0.1742(3) 0.6055(3) 0.5236(2)
N6C N -0.1742(3) 0.3945(3) 0.4764(2)
loop_
_geom_bond_atom_site_label_1
_geom_bond_atom_site_label_2
_geom_bond_site_symmetry_1
_geom_bond_site_symmetry_2
Ag1 C1 1_555 1_555
Mn1 Cl1 1_555 1_555
Mn2 N1 1_555 1_555
N1 C1 1_555 1_555
N2 Mn1 1_555 1_555
N3 Mn1 1_555 1_555
N4 Mn1 1_555 1_555
N5 N4 1_555 1_555
N6 C18 1_555 1_555
O1 Mn1 1_555 1_555
O2 Mn2 1_555 1_555
C2 Ag1 1_555 1_555
C3 N3 1_555 1_555
C4 C3 1_555 1_555
C5 C4 1_555 1_555
C6 C5 1_555 1_555
C7 N3 1_555 1_555
C8 C9 1_555 1_555
C9 C10 1_555 1_555
C10 C11 1_555 1_555
C11 C12 1_555 1_555
C12 C13 1_555 1_555
C13 C8 1_555 1_555
C14 N4 1_555 1_555
C15 N5 1_555 1_555
C16 C15 1_555 1_555
C17 C16 1_555 1_555
C18 C17 1_555 1_555
H1 C18 1_555 1_555
C19 N6 1_555 1_555
C20 C16 1_555 1_555
C21 O2 1_555 1_555
H2 C21 1_555 1_555
H3 C21 1_555 1_555
H4 C21 1_555 1_555
H5 O2 1_555 1_555
H6 C3 1_555 1_555
H7 C4 1_555 1_555
H8 C5 1_555 1_555
H9 C6 1_555 1_555
H10 C8 1_555 1_555
H11 C9 1_555 1_555
H12 C10 1_555 1_555
H13 C11 1_555 1_555
H14 C12 1_555 1_555
H15 C17 1_555 1_555
H16 C19 1_555 1_555
H17 C20 1_555 1_555
Ag1B C1B 1_555 1_555
Mn1B Cl1B 1_555 1_555
N1B Mn2 1_555 1_555
N2B Mn1B 1_555 1_555
N3B Mn1B 1_555 1_555
N4B Mn1B 1_555 1_555
N5B N4B 1_555 1_555
N6B C18B 1_555 1_555
O1B Mn1B 1_555 1_555
O2B Mn2 1_555 1_555
C1B N1B 1_555 1_555
C2B Ag1B 1_555 1_555
C3B N3B 1_555 1_555
C4B C3B 1_555 1_555
C5B C4B 1_555 1_555
C6B C5B 1_555 1_555
C7B N3B 1_555 1_555
C8B C9B 1_555 1_555
C9B C10B 1_555 1_555
C10B C11B 1_555 1_555
C11B C12B 1_555 1_555
C12B C13B 1_555 1_555
C13B C8B 1_555 1_555
C14B N4B 1_555 1_555
C15B N5B 1_555 1_555
C16B C15B 1_555 1_555
C17B C16B 1_555 1_555
C18B C17B 1_555 1_555
H1B C18B 1_555 1_555
C19B N6B 1_555 1_555
C20B C16B 1_555 1_555
C21B O2B 1_555 1_555
H2B C21B 1_555 1_555
H3B C21B 1_555 1_555
H4B C21B 1_555 1_555
H5B O2B 1_555 1_555
H6B C3B 1_555 1_555
H7B C4B 1_555 1_555
H8B C5B 1_555 1_555
H9B C6B 1_555 1_555
H10B C8B 1_555 1_555
H11B C9B 1_555 1_555
H12B C10B 1_555 1_555
H13B C11B 1_555 1_555
H14B C12B 1_555 1_555
H15B C17B 1_555 1_555
H16B C19B 1_555 1_555
H17B C20B 1_555 1_555
Mn2A N6B 1_555 1_555
Mn2A_2 N6 1_555 1_555
N6A Mn2 1_555 1_555
N6C Mn2 1_555 1_555
N2 C2 1_555 1_555
O1 C15 1_555 1_555
C6 C7 1_555 1_555
C7 C14 1_555 1_555
C13 C14 1_555 1_555
C19 C20 1_555 1_555
N2B C2B 1_555 1_555
O1B C15B 1_555 1_555
C6B C7B 1_555 1_555
C7B C14B 1_555 1_555
C13B C14B 1_555 1_555
C19B C20B 1_555 1_555

#END
