
#######################################################################
#
#                 Cambridge Crystallographic Data Centre
#                                CCDC 
#
#######################################################################
#
# If this CIF has been generated from an entry in the Cambridge 
# Structural Database, then it will include bibliographic, chemical, 
# crystal, experimental, refinement or atomic coordinate data resulting 
# from the CCDC's data processing and validation procedures.
#
#######################################################################

data_XOKRAS
_symmetry_cell_setting           monoclinic
_symmetry_space_group_name_H-M   'P 21/c'
_symmetry_Int_Tables_number      14
_space_group_name_Hall           '-P 2ybc'
loop_
_symmetry_equiv_pos_site_id
_symmetry_equiv_pos_as_xyz
1 x,y,z
2 -x,1/2+y,1/2-z
3 -x,-y,-z
4 x,1/2-y,1/2+z
_cell_length_a                   18.6903(7)
_cell_length_b                   31.1946(10)
_cell_length_c                   6.8692(3)
_cell_angle_alpha                90
_cell_angle_beta                 90.094(3)
_cell_angle_gamma                90
_cell_volume                     4004.99
loop_
_atom_site_label
_atom_site_type_symbol
_atom_site_fract_x
_atom_site_fract_y
_atom_site_fract_z
C1 C -0.2814(5) 0.3712(4) 0.4246(18)
H1 H -0.2839 0.4010 0.4218
C2 C -0.3450(5) 0.3476(4) 0.4507(16)
H2 H -0.3888 0.3617 0.4556
C3 C -0.3421(6) 0.3044(4) 0.469(2)
H3 H -0.3833 0.2889 0.4972
C4 C -0.2762(5) 0.2830(3) 0.4437(16)
C5 C -0.2690(6) 0.2380(4) 0.4493(17)
H4 H -0.3091 0.2212 0.4741
C6 C -0.2049(6) 0.2187(3) 0.419(2)
H5 H -0.2018 0.1890 0.4234
C7 C -0.1435(6) 0.2427(3) 0.3819(17)
C8 C -0.0751(6) 0.2253(4) 0.3437(18)
H6 H -0.0689 0.1957 0.3408
C9 C -0.0187(5) 0.2514(4) 0.3111(16)
H7 H 0.0259 0.2397 0.2836
C10 C -0.0271(6) 0.2963(4) 0.3188(17)
H8 H 0.0129 0.3136 0.3012
C11 C -0.1474(5) 0.2890(3) 0.3815(16)
C12 C -0.2155(5) 0.3088(3) 0.4110(16)
C13 C 0.2193(6) 0.3739(4) 0.2125(18)
H9 H 0.2182 0.4033 0.2356
C14 C 0.1550(6) 0.3537(4) 0.174(2)
H10 H 0.1125 0.3691 0.1647
C15 C 0.1562(6) 0.3099(4) 0.1500(16)
H11 H 0.1141 0.2953 0.1217
C16 C 0.2219(6) 0.2869(4) 0.1683(16)
C17 C 0.2269(7) 0.2411(4) 0.152(2)
H12 H 0.1867 0.2249 0.1213
C18 C 0.2912(7) 0.2215(4) 0.1831(18)
H13 H 0.2936 0.1918 0.1764
C19 C 0.3547(6) 0.2449(3) 0.2249(17)
C20 C 0.4218(6) 0.2255(3) 0.2624(17)
H14 H 0.4263 0.1958 0.2655
C21 C 0.4792(6) 0.2512(4) 0.2938(19)
H15 H 0.5239 0.2390 0.3166
C22 C 0.4720(5) 0.2951(3) 0.2922(16)
H16 H 0.5125 0.3117 0.3152
C23 C 0.3516(5) 0.2901(3) 0.2303(12)
C24 C 0.2836(5) 0.3113(3) 0.2043(15)
C25 C 0.1244(5) 0.4046(3) 0.6789(14)
C26 C 0.1951(5) 0.3932(3) 0.7086(17)
H17 H 0.2071 0.3647 0.7310
C27 C 0.2476(5) 0.4241(3) 0.7051(15)
C28 C 0.2290(5) 0.4665(3) 0.6754(15)
H18 H 0.2643 0.4876 0.6774
C29 C 0.1580(5) 0.4781(3) 0.6425(15)
C30 C 0.1046(5) 0.4465(3) 0.6468(15)
H19 H 0.0568 0.4537 0.6283
C31 C 0.1387(5) 0.5244(4) 0.6105(15)
C32 C -0.2556(5) 0.4246(3) -0.1125(15)
C33 C -0.2741(5) 0.4662(3) -0.1439(14)
H20 H -0.2391 0.4869 -0.1630
C34 C -0.3466(5) 0.4773(3) -0.1471(15)
C35 C -0.3991(5) 0.4465(3) -0.1202(15)
H21 H -0.4473 0.4540 -0.1212
C36 C -0.3788(5) 0.4046(3) -0.0920(14)
C37 C -0.3072(5) 0.3927(3) -0.0861(15)
H22 H -0.2939 0.3644 -0.0650
C38 C -0.3672(5) 0.5237(3) -0.1811(17)
N1 N -0.2184(4) 0.3526(3) 0.4041(14)
N2 N -0.0903(4) 0.3148(3) 0.3502(13)
N3 N 0.2828(4) 0.3543(3) 0.2190(13)
N4 N 0.4104(4) 0.3150(3) 0.2597(13)
O1 O -0.0016(4) 0.3809(2) 0.5628(12)
O2 O 0.0326(4) 0.3600(3) 0.8815(12)
O3 O 0.0873(3) 0.3257(2) 0.6104(14)
O4 O 0.3550(4) 0.3842(2) 0.5538(11)
O5 O 0.3514(4) 0.3875(2) 0.9059(11)
O6 O 0.3779(4) 0.4515(2) 0.7217(13)
O7 O -0.4993(4) 0.3819(2) 0.0619(13)
O8 O -0.4746(4) 0.3573(3) -0.2613(12)
O9 O -0.4109(4) 0.3266(2) 0.0103(12)
O10 O -0.1524(3) 0.3833(2) 0.0642(10)
O11 O -0.1251(4) 0.4522(2) -0.0836(12)
O12 O -0.1459(4) 0.3896(3) -0.2818(13)
O13 O 0.0775(4) 0.5344(2) 0.5569(13)
O14 O 0.1863(4) 0.5521(2) 0.6363(12)
O15 O -0.4302(4) 0.5360(2) -0.1578(13)
O16 O -0.3191(4) 0.5501(2) -0.2289(13)
O17 O -0.0158(4) 0.4051(3) 0.1840(12)
H23 H 0.0108 0.4265 0.1630
H24 H -0.0027 0.3804 0.1219
O18 O 0.4883(4) 0.4058(3) 0.4353(12)
H25 H 0.4702 0.4274 0.5052
H26 H 0.4893 0.3937 0.5708
Yb1 Yb -0.10591(3) 0.39217(2) 0.39263(7)
Yb2 Yb 0.39676(3) 0.39285(2) 0.22667(8)
S1 S 0.05597(12) 0.36406(8) 0.6857(4)
S2 S 0.34056(12) 0.41165(8) 0.7232(4)
S3 S -0.44558(12) 0.36391(8) -0.0686(4)
S4 S -0.16206(11) 0.41206(7) -0.1028(4)
O5_2 O 0.3514(4) 0.3875(2) -0.0941(11)
O7_2 O 0.5007(4) 0.3819(2) 0.0619(13)
O12_2 O -0.1459(4) 0.3896(3) 0.7182(13)
O13B O -0.0775(4) 0.4656(2) 0.4431(13)
O14B O -0.1863(4) 0.4479(2) 0.3637(12)
O15B O 0.4302(4) 0.4640(2) 0.1578(13)
O16B O 0.3191(4) 0.4499(2) 0.2289(13)
Yb1_2 Yb -0.10591(3) 0.39217(2) -0.60737(7)
Yb1B Yb 0.10591(3) 0.60783(2) 0.60737(7)
Yb2_2 Yb -0.60324(3) 0.39285(2) 0.22667(8)
Yb2_3 Yb 0.39676(3) 0.39285(2) 1.22667(8)
Yb2B Yb -0.39676(3) 0.60715(2) -0.22667(8)
O19 O 0.5910(12) 0.4622(6) 0.362(3)
H27 H 0.5550 0.4776 0.4178
H28 H 0.6018 0.4626 0.2407
O20 O 0.0556(11) 0.4767(7) 0.192(3)
H29 H 0.0676 0.4837 0.2896
H30 H 0.0790 0.4674 0.1369
loop_
_geom_bond_atom_site_label_1
_geom_bond_atom_site_label_2
_geom_bond_site_symmetry_1
_geom_bond_site_symmetry_2
C1 H1 1_555 1_555
C2 C1 1_555 1_555
H2 C2 1_555 1_555
C3 C2 1_555 1_555
H3 C3 1_555 1_555
C4 C3 1_555 1_555
C5 C4 1_555 1_555
H4 C5 1_555 1_555
C6 C5 1_555 1_555
H5 C6 1_555 1_555
C7 C6 1_555 1_555
C8 C7 1_555 1_555
H6 C8 1_555 1_555
C9 C8 1_555 1_555
H7 C9 1_555 1_555
C10 C9 1_555 1_555
H8 C10 1_555 1_555
C11 C7 1_555 1_555
C12 C4 1_555 1_555
C13 H9 1_555 1_555
C14 C13 1_555 1_555
H10 C14 1_555 1_555
C15 C14 1_555 1_555
H11 C15 1_555 1_555
C16 C15 1_555 1_555
C17 C16 1_555 1_555
H12 C17 1_555 1_555
C18 C17 1_555 1_555
H13 C18 1_555 1_555
C19 C18 1_555 1_555
C20 C19 1_555 1_555
H14 C20 1_555 1_555
C21 C20 1_555 1_555
H15 C21 1_555 1_555
C22 C21 1_555 1_555
H16 C22 1_555 1_555
C23 C19 1_555 1_555
C24 C16 1_555 1_555
C25 C26 1_555 1_555
C26 H17 1_555 1_555
C27 C26 1_555 1_555
C28 C27 1_555 1_555
H18 C28 1_555 1_555
C29 C28 1_555 1_555
C30 C25 1_555 1_555
H19 C30 1_555 1_555
C31 C29 1_555 1_555
C32 C33 1_555 1_555
C33 H20 1_555 1_555
C34 C33 1_555 1_555
C35 C34 1_555 1_555
H21 C35 1_555 1_555
C36 C35 1_555 1_555
C37 C32 1_555 1_555
H22 C37 1_555 1_555
C38 C34 1_555 1_555
N1 C1 1_555 1_555
N2 C10 1_555 1_555
N3 C13 1_555 1_555
N4 C22 1_555 1_555
O1 Yb1 1_555 1_555
O2 S1 1_555 1_555
O3 S1 1_555 1_555
O4 Yb2 1_555 1_555
O5 S2 1_555 1_555
O6 S2 1_555 1_555
O7 S3 1_555 1_555
O8 S3 1_555 1_555
O9 S3 1_555 1_555
O10 Yb1 1_555 1_555
O11 S4 1_555 1_555
O12 S4 1_555 1_555
O13 C31 1_555 1_555
O14 C31 1_555 1_555
O15 C38 1_555 1_555
O16 C38 1_555 1_555
O17 H23 1_555 1_555
H24 O17 1_555 1_555
O18 H25 1_555 1_555
H26 O18 1_555 1_555
Yb1 N1 1_555 1_555
Yb2 N3 1_555 1_555
S1 C25 1_555 1_555
S2 C27 1_555 1_555
S3 C36 1_555 1_555
S4 C32 1_555 1_555
O19 H27 1_555 1_555
H28 O19 1_555 1_555
O20 H29 1_555 1_555
H30 O20 1_555 1_555
O5_2 Yb2 1_555 1_555
O7_2 Yb2 1_555 1_555
O12_2 Yb1 1_555 1_555
O13B Yb1 1_555 1_555
O14B Yb1 1_555 1_555
O15B Yb2 1_555 1_555
O16B Yb2 1_555 1_555
Yb1_2 O12 1_555 1_555
Yb1B O13 1_555 1_555
Yb2_2 O7 1_555 1_555
Yb2_3 O5 1_555 1_555
Yb2B O15 1_555 1_555
C11 C12 1_555 1_555
C11 N2 1_555 1_555
C12 N1 1_555 1_555
C23 C24 1_555 1_555
C23 N4 1_555 1_555
C24 N3 1_555 1_555
C29 C30 1_555 1_555
C36 C37 1_555 1_555
N2 Yb1 1_555 1_555
N4 Yb2 1_555 1_555
O1 S1 1_555 1_555
O4 S2 1_555 1_555
O10 S4 1_555 1_555
O14 Yb1B 1_555 1_555
O16 Yb2B 1_555 1_555
O17 Yb1 1_555 1_555
O18 Yb2 1_555 1_555

#END
