
#######################################################################
#
#                 Cambridge Crystallographic Data Centre
#                                CCDC 
#
#######################################################################
#
# If this CIF has been generated from an entry in the Cambridge 
# Structural Database, then it will include bibliographic, chemical, 
# crystal, experimental, refinement or atomic coordinate data resulting 
# from the CCDC's data processing and validation procedures.
#
#######################################################################

data_XOKROF
_symmetry_cell_setting           monoclinic
_symmetry_space_group_name_H-M   'C 2/c'
_symmetry_Int_Tables_number      15
_space_group_name_Hall           '-C 2yn'
loop_
_symmetry_equiv_pos_site_id
_symmetry_equiv_pos_as_xyz
1 x,y,z
2 -x,y,1/2-z
3 1/2+x,1/2+y,z
4 1/2-x,1/2+y,1/2-z
5 -x,-y,-z
6 x,-y,1/2+z
7 1/2-x,1/2-y,-z
8 1/2+x,1/2-y,1/2+z
_cell_length_a                   23.232(14)
_cell_length_b                   3.788(2)
_cell_length_c                   20.064(12)
_cell_angle_alpha                90
_cell_angle_beta                 117.531(7)
_cell_angle_gamma                90
_cell_volume                     1565.74
loop_
_atom_site_label
_atom_site_type_symbol
_atom_site_fract_x
_atom_site_fract_y
_atom_site_fract_z
V1 V 0.098598(16) 0.00200(9) 0.32189(2)
Na1 Na -0.21778(5) 0.6323(3) 0.36496(6)
O1 O 0.13814(7) 0.1067(5) 0.43450(9)
O2 O 0.10269(8) -0.4244(4) 0.32512(9)
O3 O -0.16735(7) 0.0884(4) 0.21227(9)
O4 O 0.11589(8) 0.3120(5) 0.52478(10)
O5 O -0.18510(8) 0.1864(5) 0.31073(10)
O6 O -0.24553(10) 1.1037(6) 0.42772(11)
H1 H -0.2810(10) 1.030(7) 0.4235(18)
H2 H -0.2158(12) 1.063(8) 0.4725(10)
N1 N 0.01917(9) 0.0827(5) 0.33611(10)
N2 N -0.04442(8) 0.0723(5) 0.28994(10)
C1 C -0.03166(11) 0.2276(6) 0.40388(13)
H3 H -0.0399 0.2927 0.4433
C2 C 0.09832(11) 0.2048(6) 0.46100(13)
C3 C 0.02859(11) 0.1775(6) 0.40502(13)
C4 C -0.07612(10) 0.1564(6) 0.32957(13)
C5 C -0.14815(11) 0.1472(6) 0.28337(13)
V1_2 V 0.098598(16) -0.99800(9) 0.32189(2)
V1A V -0.098598(16) 0.00200(9) 0.17811(2)
Na1D Na 0.21778(5) 0.3677(3) 0.63504(6)
Na1C Na -0.28222(5) 0.1323(3) 0.13504(6)
Na1_2 Na -0.21778(5) -0.3677(3) 0.36496(6)
Na1_3 Na -0.21778(5) 1.6323(3) 0.36496(6)
O2_2 O 0.10269(8) 0.5756(4) 0.32512(9)
O3A O 0.16735(7) 0.0884(4) 0.28773(9)
O3C O -0.33265(7) 0.5884(4) 0.28773(9)
O4D O -0.11589(8) 0.6880(5) 0.47522(10)
O5_2 O -0.18510(8) 1.1864(5) 0.31073(10)
O6_2 O -0.24553(10) 0.1037(6) 0.42772(11)
H1_2 H -0.2810(10) 0.030(7) 0.4235(18)
H2_2 H -0.2158(12) 0.063(8) 0.4725(10)
N2A N 0.04442(8) 0.0723(5) 0.21006(10)
loop_
_geom_bond_atom_site_label_1
_geom_bond_atom_site_label_2
_geom_bond_site_symmetry_1
_geom_bond_site_symmetry_2
V1 O1 1_555 1_555
Na1 O5 1_555 1_555
O1 C2 1_555 1_555
O2 V1 1_555 1_555
O3 C5 1_555 1_555
O4 C2 1_555 1_555
O5 C5 1_555 1_555
O6 Na1 1_555 1_555
H1 O6 1_555 1_555
H2 O6 1_555 1_555
N1 V1 1_555 1_555
N2 N1 1_555 1_555
C1 H3 1_555 1_555
C2 C3 1_555 1_555
C3 N1 1_555 1_555
C4 N2 1_555 1_555
C5 C4 1_555 1_555
V1_2 O2 1_555 1_555
V1A O3 1_555 1_555
Na1D O4 1_555 1_555
Na1C O3 1_555 1_555
Na1_2 O5 1_555 1_555
Na1_3 O6 1_555 1_555
O2_2 V1 1_555 1_555
O3A V1 1_555 1_555
O3C Na1 1_555 1_555
O4D Na1 1_555 1_555
O5_2 Na1 1_555 1_555
O6_2 Na1 1_555 1_555
H1_2 O6_2 1_555 1_555
H2_2 O6_2 1_555 1_555
N2A V1 1_555 1_555
N2 V1A 1_555 1_555
C1 C3 1_555 1_555
C1 C4 1_555 1_555
Na1_2 O6_2 1_555 1_555
Na1_3 O5_2 1_555 1_555

#END
