
#######################################################################
#
#                 Cambridge Crystallographic Data Centre
#                                CCDC 
#
#######################################################################
#
# If this CIF has been generated from an entry in the Cambridge 
# Structural Database, then it will include bibliographic, chemical, 
# crystal, experimental, refinement or atomic coordinate data resulting 
# from the CCDC's data processing and validation procedures.
#
#######################################################################

data_XOKRUL
_symmetry_cell_setting           monoclinic
_symmetry_space_group_name_H-M   'P 2/c'
_symmetry_Int_Tables_number      13
_space_group_name_Hall           '-P 2yc'
loop_
_symmetry_equiv_pos_site_id
_symmetry_equiv_pos_as_xyz
1 x,y,z
2 -x,y,1/2-z
3 -x,-y,-z
4 x,-y,1/2+z
_cell_length_a                   10.6609(4)
_cell_length_b                   3.91240(10)
_cell_length_c                   19.77410(10)
_cell_angle_alpha                90
_cell_angle_beta                 104.965(2)
_cell_angle_gamma                90
_cell_volume                     796.799
loop_
_atom_site_label
_atom_site_type_symbol
_atom_site_fract_x
_atom_site_fract_y
_atom_site_fract_z
V1 V 0.80514(9) 0.4319(3) 0.74575(5)
K1 K 0.56583(17) 0.2102(5) 0.90747(10)
O1 O 0.7985(4) 0.0217(10) 0.7456(2)
O2 O 0.7322(4) 0.5474(11) 0.8280(2)
O3 O 0.7780(4) 0.7730(13) 0.9356(2)
O4 O 1.3800(4) 0.7629(14) 0.9489(2)
O5 O 1.3365(4) 0.5487(11) 0.8411(2)
O6 O 0.5000 0.012(2) 0.7500
H1 H 0.548(11) -0.10(3) 0.737(6)
N1 N 1.0929(4) 0.5198(12) 0.8256(2)
N2 N 0.9680(4) 0.5202(12) 0.8231(2)
C1 C 0.8124(6) 0.6627(16) 0.8852(3)
C2 C 0.9521(6) 0.6422(16) 0.8842(3)
C3 C 1.0729(6) 0.7227(16) 0.9283(3)
H2 H 1.0911 0.8111 0.9734
C4 C 1.1600(6) 0.6407(16) 0.8892(3)
C5 C 1.3014(6) 0.6586(16) 0.8961(3)
V1_2 V 0.80514(9) 1.4319(3) 0.74575(5)
V1_3 V 0.80514(9) -0.5681(3) 0.74575(5)
V1A V 1.19486(9) 0.4319(3) 0.75425(5)
K1A K 1.43417(17) 0.2102(5) 0.59253(10)
K1_2 K 0.56583(17) 1.2102(5) 0.90747(10)
K1B K 1.43417(17) 0.7898(5) 1.09253(10)
K1_3 K 1.56583(17) 0.2102(5) 0.90747(10)
K1_4 K 1.56583(17) 1.2102(5) 0.90747(10)
K1A_2 K 0.43417(17) 0.2102(5) 0.59253(10)
K1A_3 K 1.43417(17) 1.2102(5) 0.59253(10)
K1C K 0.56583(17) 0.7898(5) 0.40747(10)
K1A_4 K 0.43417(17) 1.2102(5) 0.59253(10)
O1_2 O 0.7985(4) 1.0217(10) 0.7456(2)
O1_3 O 0.7985(4) 2.0217(10) 0.7456(2)
O2A O 1.2678(4) 0.5474(11) 0.6720(2)
O2_2 O 0.7322(4) 1.5474(11) 0.8280(2)
O3A O 1.2220(4) 0.7730(13) 0.5644(2)
O3_2 O 0.7780(4) -0.2270(13) 0.9356(2)
O3A_2 O 1.2220(4) -0.2270(13) 0.5644(2)
O4A O 0.6200(4) 0.7629(14) 0.5511(2)
O4B O 0.6200(4) 0.2371(14) 1.0511(2)
O4_2 O 0.3800(4) 0.7629(14) 0.9489(2)
O4_3 O 0.3800(4) -0.2371(14) 0.9489(2)
O4C O 1.3800(4) 0.2371(14) 0.4489(2)
O4A_2 O 1.6200(4) 0.7629(14) 0.5511(2)
O4A_3 O 1.6200(4) -0.2371(14) 0.5511(2)
O5A O 0.6635(4) 0.5487(11) 0.6589(2)
O5_2 O 0.3365(4) 0.5487(11) 0.8411(2)
O5A_2 O 0.6635(4) 1.5487(11) 0.6589(2)
O5A_3 O 1.6635(4) 0.5487(11) 0.6589(2)
O6_2 O 1.5000 0.012(2) 0.7500
H1A H 0.452(11) -0.10(3) 0.763(6)
H1A_2 H 1.452(11) -0.10(3) 0.763(6)
H1_2 H 1.548(11) -0.10(3) 0.737(6)
N1A N 0.9071(4) 0.5198(12) 0.6744(2)
N1A_2 N 0.9071(4) 1.5198(12) 0.6744(2)
N2A N 1.0320(4) 0.5202(12) 0.6769(2)
N2_2 N 0.9680(4) 1.5202(12) 0.8231(2)
C1A C 1.1876(6) 0.6627(16) 0.6148(3)
C2A C 1.0479(6) 0.6422(16) 0.6158(3)
C3A C 0.9271(6) 0.7227(16) 0.5717(3)
H2A H 0.9089 0.8111 0.5266
C4A C 0.8400(6) 0.6407(16) 0.6108(3)
C5A C 0.6986(6) 0.6586(16) 0.6039(3)
loop_
_geom_bond_atom_site_label_1
_geom_bond_atom_site_label_2
_geom_bond_site_symmetry_1
_geom_bond_site_symmetry_2
V1 O1 1_555 1_555
K1 O2 1_555 1_555
O1 V1_3 1_555 1_555
O2 V1 1_555 1_555
O3 K1 1_555 1_555
O4 C5 1_555 1_555
O5 C5 1_555 1_555
O6 K1 1_555 1_555
H1 O6 1_555 1_555
N1 N2 1_555 1_555
N2 V1 1_555 1_555
C1 O2 1_555 1_555
C2 N2 1_555 1_555
C3 C2 1_555 1_555
H2 C3 1_555 1_555
C4 N1 1_555 1_555
C5 C4 1_555 1_555
V1_2 O1_2 1_555 1_555
V1A O5 1_555 1_555
K1A O2A 1_555 1_555
K1_2 O3 1_555 1_555
K1B O4 1_555 1_555
K1_3 O4 1_555 1_555
K1_4 O4 1_555 1_555
K1A_2 O6 1_555 1_555
K1A_3 O3A 1_555 1_555
K1C O4A 1_555 1_555
K1A_4 O4A 1_555 1_555
O1_2 V1 1_555 1_555
O1_3 V1_2 1_555 1_555
O2A V1A 1_555 1_555
O2_2 V1_2 1_555 1_555
O3A K1A 1_555 1_555
O3_2 K1 1_555 1_555
O3A_2 K1A 1_555 1_555
O4A K1A_2 1_555 1_555
O4B K1 1_555 1_555
O4_2 K1 1_555 1_555
O4_3 K1 1_555 1_555
O4C K1A 1_555 1_555
O4A_2 K1A 1_555 1_555
O4A_3 K1A 1_555 1_555
O5A V1 1_555 1_555
O5_2 K1 1_555 1_555
O5A_2 V1_2 1_555 1_555
O5A_3 K1A 1_555 1_555
O6_2 K1A 1_555 1_555
H1A O6 1_555 1_555
H1A_2 O6_2 1_555 1_555
H1_2 O6_2 1_555 1_555
N1A V1 1_555 1_555
N1A_2 V1_2 1_555 1_555
N2A V1A 1_555 1_555
N2_2 V1_2 1_555 1_555
C1A O2A 1_555 1_555
C2A N2A 1_555 1_555
C3A C2A 1_555 1_555
H2A C3A 1_555 1_555
C4A N1A 1_555 1_555
C5A O4A 1_555 1_555
O3 C1 1_555 1_555
O5 K1_3 1_555 1_555
N1 V1A 1_555 1_555
C1 C2 1_555 1_555
C3 C4 1_555 1_555
K1_2 O2_2 1_555 1_555
K1_2 O4_2 1_555 1_555
K1_3 O6_2 1_555 1_555
K1A_2 O5A 1_555 1_555
K1A_3 O4A_2 1_555 1_555
K1A_4 O5A_2 1_555 1_555
O3A C1A 1_555 1_555
O5A C5A 1_555 1_555
N1A N2A 1_555 1_555
C1A C2A 1_555 1_555
C3A C4A 1_555 1_555
C4A C5A 1_555 1_555

#END
