
#######################################################################
#
#                 Cambridge Crystallographic Data Centre
#                                CCDC 
#
#######################################################################
#
# If this CIF has been generated from an entry in the Cambridge 
# Structural Database, then it will include bibliographic, chemical, 
# crystal, experimental, refinement or atomic coordinate data resulting 
# from the CCDC's data processing and validation procedures.
#
#######################################################################

data_XOKSUM
_symmetry_cell_setting           orthorhombic
_symmetry_space_group_name_H-M   'P n a 21'
_symmetry_Int_Tables_number      33
_space_group_name_Hall           'P 2c -2n'
loop_
_symmetry_equiv_pos_site_id
_symmetry_equiv_pos_as_xyz
1 x,y,z
2 -x,-y,1/2+z
3 1/2-x,1/2+y,1/2+z
4 1/2+x,1/2-y,z
_cell_length_a                   32.051(7)
_cell_length_b                   10.630(4)
_cell_length_c                   9.490(3)
_cell_angle_alpha                90
_cell_angle_beta                 90
_cell_angle_gamma                90
_cell_volume                     3233.26
loop_
_atom_site_label
_atom_site_type_symbol
_atom_site_fract_x
_atom_site_fract_y
_atom_site_fract_z
Ag1 Ag 0.540326(9) 0.97268(3) 0.35940(5)
C1 C 0.37441(9) 1.0131(3) 0.3379(4)
H1 H 0.3897 1.0683 0.3936
C2 C 0.39480(9) 0.9292(3) 0.2536(4)
C3 C 0.37169(10) 0.8431(4) 0.1730(4)
H2 H 0.3854 0.7850 0.1162
C4 C 0.32849(10) 0.8445(4) 0.1779(4)
C5 C 0.30806(9) 0.9327(3) 0.2618(5)
H3 H 0.2791 0.9346 0.2640
C6 C 0.33058(9) 1.0173(3) 0.3416(4)
C7 C 0.30866(11) 1.1143(4) 0.4308(5)
C8 C 0.44245(10) 0.9232(4) 0.2458(4)
C9 C 0.30519(11) 0.7478(4) 0.0944(5)
C10 C 0.56061(14) 1.2669(5) 0.3346(5)
H4 H 0.5578 1.2796 0.4310
C11 C 0.56222(13) 1.1785(5) 0.1341(5)
H5 H 0.5606 1.1185 0.0629
C12 C 0.57005(18) 1.3566(5) 0.2402(5)
H6 H 0.5748 1.4413 0.2587
C13 C 0.57791(16) 1.3628(5) -0.0237(5)
H7 H 0.5918 1.3055 -0.0879
H8 H 0.5960 1.4348 -0.0096
C14 C 0.53779(18) 1.4062(7) -0.0892(6)
H9 H 0.5249 1.4669 -0.0265
H10 H 0.5191 1.3347 -0.0960
C15 C 0.54168(19) 1.4663(6) -0.2362(7)
H11 H 0.5590 1.4130 -0.2952
H12 H 0.5142 1.4710 -0.2790
C16 C 0.5596(2) 1.5908(5) -0.2313(7)
H13 H 0.5879 1.5853 -0.1957
H14 H 0.5436 1.6423 -0.1664
C17 C 0.54649(13) 1.7687(4) -0.3999(5)
H15 H 0.5339 1.8217 -0.3346
C18 C 0.57222(13) 1.6957(4) -0.5911(5)
H16 H 0.5807 1.6891 -0.6845
C19 C 0.57678(17) 1.6053(5) -0.4915(5)
H17 H 0.5889 1.5265 -0.5033
N1 N 0.55574(9) 1.1543(3) 0.2677(5)
N2 N 0.57138(12) 1.2991(4) 0.1121(4)
N3 N 0.56018(15) 1.6527(4) -0.3716(4)
N4 N 0.55324(10) 1.7978(4) -0.5329(4)
O1 O 0.27031(8) 1.1009(3) 0.4478(4)
O2 O 0.32871(10) 1.1999(4) 0.4836(5)
O3 O 0.46186(7) 0.9885(3) 0.3338(4)
O4 O 0.45781(8) 0.8541(4) 0.1559(4)
O5 O 0.26531(8) 0.7585(3) 0.0989(4)
H32 H 0.2546 0.7029 0.0510
O6 O 0.32336(9) 0.6669(4) 0.0288(4)
Ag1_2 Ag 0.540326(9) 1.97268(3) -0.64060(5)
N4_2 N 0.55324(10) 0.7978(4) 0.4671(4)
Ag2 Ag 0.684886(11) 0.56435(4) 0.77098(4)
C20 C 0.66367(14) 0.7749(5) 0.5578(5)
H18 H 0.6500 0.8231 0.6253
C21 C 0.69636(15) 0.6263(5) 0.4575(5)
H19 H 0.7097 0.5498 0.4423
C22 C 0.68994(12) 0.7156(4) 0.3588(5)
H20 H 0.6984 0.7134 0.2652
C23 C 0.65444(12) 0.9254(4) 0.3562(5)
H21 H 0.6377 0.9732 0.4223
H22 H 0.6369 0.9041 0.2765
C24 C 0.68970(13) 1.0053(4) 0.3063(5)
H23 H 0.7066 1.0294 0.3868
H24 H 0.7071 0.9559 0.2437
C25 C 0.67616(13) 1.1214(5) 0.2308(5)
H25 H 0.6603 1.1744 0.2945
H26 H 0.6582 1.0986 0.1527
C26 C 0.71368(14) 1.1938(5) 0.1757(6)
H27 H 0.7329 1.2090 0.2528
H28 H 0.7280 1.1429 0.1060
C27 C 0.70472(17) 1.3465(5) -0.0200(5)
H29 H 0.7151 1.2936 -0.0897
C28 C 0.68579(19) 1.4124(5) 0.1826(7)
H30 H 0.6801 1.4173 0.2785
C29 C 0.67956(19) 1.5034(5) 0.0838(7)
H31 H 0.6688 1.5830 0.1021
N5 N 0.70201(11) 1.3140(4) 0.1122(4)
N6 N 0.69131(13) 1.4611(4) -0.0451(5)
N7 N 0.68020(11) 0.6658(4) 0.5831(4)
N8 N 0.66850(10) 0.8098(3) 0.4240(4)
Ag2_2 Ag 0.684886(11) 1.56435(4) -0.22902(4)
N6_2 N 0.69131(13) 0.4611(4) 0.9549(5)
O7 O 0.53711(11) 0.8608(5) 0.0710(5)
H33 H 0.533(2) 0.920(5) 0.003(6)
H34 H 0.528(2) 0.790(4) 0.033(7)
O8 O 0.59792(11) 0.6842(4) 0.0721(5)
H35 H 0.6166(17) 0.687(6) -0.005(5)
H36 H 0.6087(19) 0.753(5) 0.122(6)
loop_
_geom_bond_atom_site_label_1
_geom_bond_atom_site_label_2
_geom_bond_site_symmetry_1
_geom_bond_site_symmetry_2
Ag1 N1 1_555 1_555
Ag2 N7 1_555 1_555
C1 H1 1_555 1_555
C2 C1 1_555 1_555
C3 C2 1_555 1_555
H2 C3 1_555 1_555
C4 C3 1_555 1_555
C5 C4 1_555 1_555
H3 C5 1_555 1_555
C6 C1 1_555 1_555
C7 C6 1_555 1_555
C8 C2 1_555 1_555
C9 C4 1_555 1_555
C10 H4 1_555 1_555
C11 H5 1_555 1_555
C12 C10 1_555 1_555
H6 C12 1_555 1_555
C13 H7 1_555 1_555
H8 C13 1_555 1_555
C14 C13 1_555 1_555
H9 C14 1_555 1_555
H10 C14 1_555 1_555
C15 C14 1_555 1_555
H11 C15 1_555 1_555
H12 C15 1_555 1_555
C16 C15 1_555 1_555
H13 C16 1_555 1_555
H14 C16 1_555 1_555
C17 H15 1_555 1_555
C18 H16 1_555 1_555
C19 C18 1_555 1_555
H17 C19 1_555 1_555
C20 H18 1_555 1_555
C21 H19 1_555 1_555
C22 C21 1_555 1_555
H20 C22 1_555 1_555
C23 H21 1_555 1_555
H22 C23 1_555 1_555
C24 C23 1_555 1_555
H23 C24 1_555 1_555
H24 C24 1_555 1_555
C25 C24 1_555 1_555
H25 C25 1_555 1_555
H26 C25 1_555 1_555
C26 C25 1_555 1_555
H27 C26 1_555 1_555
H28 C26 1_555 1_555
C27 H29 1_555 1_555
C28 H30 1_555 1_555
C29 C28 1_555 1_555
H31 C29 1_555 1_555
N1 C10 1_555 1_555
N2 C11 1_555 1_555
N3 C16 1_555 1_555
N4 C17 1_555 1_555
N5 C26 1_555 1_555
N6 C27 1_555 1_555
N7 C20 1_555 1_555
N8 C20 1_555 1_555
O1 C7 1_555 1_555
O2 C7 1_555 1_555
O3 Ag1 1_555 1_555
O4 C8 1_555 1_555
O5 C9 1_555 1_555
H32 O5 1_555 1_555
O6 C9 1_555 1_555
O7 H33 1_555 1_555
H34 O7 1_555 1_555
O8 H35 1_555 1_555
H36 O8 1_555 1_555
Ag1_2 N4 1_555 1_555
Ag2_2 N6 1_555 1_555
N4_2 Ag1 1_555 1_555
N6_2 Ag2 1_555 1_555
C5 C6 1_555 1_555
C8 O3 1_555 1_555
C11 N1 1_555 1_555
C12 N2 1_555 1_555
C13 N2 1_555 1_555
C17 N3 1_555 1_555
C18 N4 1_555 1_555
C19 N3 1_555 1_555
C21 N7 1_555 1_555
C22 N8 1_555 1_555
C23 N8 1_555 1_555
C27 N5 1_555 1_555
C28 N5 1_555 1_555
C29 N6 1_555 1_555

#END
