
#######################################################################
#
#                 Cambridge Crystallographic Data Centre
#                                CCDC 
#
#######################################################################
#
# If this CIF has been generated from an entry in the Cambridge 
# Structural Database, then it will include bibliographic, chemical, 
# crystal, experimental, refinement or atomic coordinate data resulting 
# from the CCDC's data processing and validation procedures.
#
#######################################################################

data_XOKSIA
_symmetry_cell_setting           monoclinic
_symmetry_space_group_name_H-M   'C 2/c'
_symmetry_Int_Tables_number      15
_space_group_name_Hall           '-C 2yn'
loop_
_symmetry_equiv_pos_site_id
_symmetry_equiv_pos_as_xyz
1 x,y,z
2 -x,y,1/2-z
3 1/2+x,1/2+y,z
4 1/2-x,1/2+y,1/2-z
5 -x,-y,-z
6 x,-y,1/2+z
7 1/2-x,1/2-y,-z
8 1/2+x,1/2-y,1/2+z
_cell_length_a                   14.129(7)
_cell_length_b                   9.279(7)
_cell_length_c                   14.276(6)
_cell_angle_alpha                90
_cell_angle_beta                 99.728(2)
_cell_angle_gamma                90
_cell_volume                     1844.71
loop_
_atom_site_label
_atom_site_type_symbol
_atom_site_fract_x
_atom_site_fract_y
_atom_site_fract_z
Ag1 Ag 0.2500 0.2500 -1.0000
C1 C 0.25768(19) 0.1841(4) -0.78650(19)
H1 H 0.2060 0.1208 -0.7979
C2 C 0.37456(18) 0.3152(4) -0.71301(18)
H2 H 0.4184 0.3587 -0.6655
C3 C 0.36633(18) 0.3355(3) -0.80752(18)
H3 H 0.4046 0.3966 -0.8367
C4 C 0.2862(2) 0.1619(4) -0.60967(18)
H4 H 0.2349 0.0914 -0.6208
H5 H 0.3434 0.1138 -0.5771
C5 C 0.2589(2) 0.2799(3) -0.5475(2)
H6 H 0.3099 0.3509 -0.5366
H7 H 0.2012 0.3273 -0.5795
N1 N 0.29335(18) 0.2528(2) -0.85371(19)
N2 N 0.30459(17) 0.2166(2) -0.70121(16)
Ag1_2 Ag 0.2500 0.2500 0.0000
C1F C 0.24232(19) 0.3159(4) -0.21350(19)
H1F H 0.2940 0.3792 -0.2021
C2F C 0.12544(18) 0.1848(4) -0.28699(18)
H2F H 0.0816 0.1413 -0.3345
C3F C 0.13367(18) 0.1645(3) -0.19248(18)
H3F H 0.0954 0.1034 -0.1633
C4F C 0.2138(2) 0.3381(4) -0.39033(18)
H4F H 0.2651 0.4086 -0.3792
H5F H 0.1566 0.3862 -0.4229
C5F C 0.2411(2) 0.2201(3) -0.4525(2)
H6F H 0.1901 0.1491 -0.4634
H7F H 0.2988 0.1727 -0.4205
N1F N 0.20665(18) 0.2472(2) -0.14629(19)
N1F_2 N 0.20665(18) 0.2472(2) -1.14629(19)
N2F N 0.19541(17) 0.2834(2) -0.29879(16)
C6 C 0.5000 0.0025(5) 0.7500
H8 H 0.5000 -0.0977 0.7500
C7 C 0.5041(2) 0.0762(3) 0.6672(2)
H9 H 0.5068 0.0253 0.6116
C8 C 0.50437(18) 0.2246(2) 0.6659(2)
C9 C 0.5000 0.2994(4) 0.7500
H10 H 0.5000 0.3997 0.7500
C10 C 0.50924(18) 0.3037(3) 0.57474(18)
O1 O 0.5210(3) 0.2368(2) 0.5035(2)
O2 O 0.50014(19) 0.4400(2) 0.57735(12)
C7A C 0.4959(2) 0.0762(3) 0.8328(2)
H9A H 0.4932 0.0253 0.8884
C8A C 0.49563(18) 0.2246(2) 0.8341(2)
C10A C 0.49076(18) 0.3037(3) 0.92526(18)
O1A O 0.4790(3) 0.2368(2) 0.9965(2)
O2A O 0.49986(19) 0.4400(2) 0.92265(12)
H11? H 0.503(8) 0.480(4) 0.527(3)
loop_
_geom_bond_atom_site_label_1
_geom_bond_atom_site_label_2
_geom_bond_site_symmetry_1
_geom_bond_site_symmetry_2
Ag1 N1 1_555 1_555
C1 H1 1_555 1_555
C2 H2 1_555 1_555
C3 C2 1_555 1_555
H3 C3 1_555 1_555
C4 H4 1_555 1_555
H5 C4 1_555 1_555
C5 C4 1_555 1_555
H6 C5 1_555 1_555
H7 C5 1_555 1_555
N1 C1 1_555 1_555
N2 C1 1_555 1_555
C6 H8 1_555 1_555
C7 C6 1_555 1_555
H9 C7 1_555 1_555
C8 C7 1_555 1_555
C9 C8 1_555 1_555
H10 C9 1_555 1_555
C10 C8 1_555 1_555
O1 C10 1_555 1_555
O2 C10 1_555 1_555
Ag1_2 N1F 1_555 1_555
C1F H1F 1_555 1_555
C2F H2F 1_555 1_555
C3F C2F 1_555 1_555
H3F C3F 1_555 1_555
C4F H4F 1_555 1_555
H5F C4F 1_555 1_555
C5F C5 1_555 1_555
H6F C5F 1_555 1_555
H7F C5F 1_555 1_555
N1F C1F 1_555 1_555
N1F_2 Ag1 1_555 1_555
N2F C1F 1_555 1_555
C7A C6 1_555 1_555
H9A C7A 1_555 1_555
C8A C9 1_555 1_555
C10A C8A 1_555 1_555
O1A C10A 1_555 1_555
O2A C10A 1_555 1_555
C2 N2 1_555 1_555
C3 N1 1_555 1_555
C4 N2 1_555 1_555
C2F N2F 1_555 1_555
C3F N1F 1_555 1_555
C4F C5F 1_555 1_555
C4F N2F 1_555 1_555
C7A C8A 1_555 1_555

#END
