
#######################################################################
#
#                 Cambridge Crystallographic Data Centre
#                                CCDC 
#
#######################################################################
#
# If this CIF has been generated from an entry in the Cambridge 
# Structural Database, then it will include bibliographic, chemical, 
# crystal, experimental, refinement or atomic coordinate data resulting 
# from the CCDC's data processing and validation procedures.
#
#######################################################################

data_XOKTOH
_symmetry_cell_setting           triclinic
_symmetry_space_group_name_H-M   'P -1'
_symmetry_Int_Tables_number      2
_space_group_name_Hall           '-P 1'
loop_
_symmetry_equiv_pos_site_id
_symmetry_equiv_pos_as_xyz
1 x,y,z
2 -x,-y,-z
_cell_length_a                   9.6562(9)
_cell_length_b                   9.6858(9)
_cell_length_c                   10.9030(10)
_cell_angle_alpha                80.9840(10)
_cell_angle_beta                 69.7760(10)
_cell_angle_gamma                80.7290(10)
_cell_volume                     938.733
loop_
_atom_site_label
_atom_site_type_symbol
_atom_site_fract_x
_atom_site_fract_y
_atom_site_fract_z
Cu1 Cu 0.02111(5) 0.57277(5) 0.66220(4)
Mn1 Mn 0.18517(6) 0.00453(6) 0.73550(5)
N1 N 0.1839(3) 0.4358(3) 0.5671(3)
N2 N -0.0534(3) 0.4090(3) 0.7786(3)
N3 N -0.1437(3) 0.7099(3) 0.7580(3)
H1 H -0.1039 0.7874 0.7591
H2 H -0.2053 0.7355 0.7104
O1 O 0.2459(3) 0.1917(3) 0.5927(2)
O2 O 0.0268(3) 0.1757(2) 0.8214(2)
O3 O 0.0778(3) 0.7234(3) 0.5221(2)
O4 O 0.2092(3) 0.8416(3) 0.3433(2)
O5 O 0.8275(3) 0.3482(3) 0.2216(2)
O6 O 0.6857(3) 0.1808(3) 0.3413(3)
O7 O 0.3555(3) 0.0202(3) 0.8162(3)
H3 H 0.3894 0.0986 0.7851
H4 H 0.3986 -0.0199 0.8706
O8 O 0.0431(3) -0.1264(3) 0.9094(2)
H5 H 0.0057 -0.1676 0.9862
H6 H 0.0398 -0.1783 0.8547
O9 O 0.0342(3) -0.0293(3) 0.6374(3)
H7 H 0.0056 0.0578 0.6241
H8 H -0.0227 -0.0753 0.6192
C1 C 0.1688(4) 0.3062(4) 0.6245(3)
C2 C 0.0357(4) 0.2955(4) 0.7529(3)
C3 C -0.1824(4) 0.4034(4) 0.9001(4)
H9 H -0.1484 0.3960 0.9751
H10 H -0.2289 0.3196 0.9072
C4 C -0.2959(4) 0.5302(4) 0.9048(4)
H11 H -0.3344 0.5339 0.8330
H12 H -0.3781 0.5198 0.9864
C5 C -0.2357(5) 0.6661(4) 0.8955(4)
H13 H -0.3175 0.7388 0.9254
H14 H -0.1757 0.6552 0.9524
C6 C 0.1945(4) 0.7313(4) 0.4207(3)
C7 C 0.3177(4) 0.6118(4) 0.3939(3)
C8 C 0.3120(4) 0.4735(4) 0.4606(3)
C9 C 0.4406(4) 0.3781(4) 0.4243(3)
H15 H 0.4388 0.2866 0.4659
C10 C 0.5707(4) 0.4154(4) 0.3283(3)
C11 C 0.7055(4) 0.3061(4) 0.2949(3)
C12 C 0.5768(4) 0.5516(4) 0.2656(4)
H16 H 0.6644 0.5782 0.2028
C13 C 0.4512(4) 0.6463(4) 0.2978(3)
H17 H 0.4548 0.7369 0.2542
Cu1A Cu 0.97889(5) 0.42723(5) 0.33780(4)
Cu1_2 Cu 0.02111(5) -0.42723(5) 0.66220(4)
Cu1A_2 Cu 0.97889(5) -0.57277(5) 0.33780(4)
Mn1A Mn 0.81483(6) -0.00453(6) 0.26450(5)
N1A N 0.8161(3) -0.4358(3) 0.4329(3)
N2A N 1.0534(3) -0.4090(3) 0.2214(3)
N3A N 1.1437(3) -0.7099(3) 0.2420(3)
H1A H 1.1039 -0.7874 0.2409
H2A H 1.2053 -0.7355 0.2896
O1A O 0.7541(3) -0.1917(3) 0.4073(2)
O2A O 0.9732(3) -0.1757(2) 0.1786(2)
O3A O 0.9222(3) -0.7234(3) 0.4779(2)
O4A O 0.7908(3) -0.8416(3) 0.6567(2)
O5A O 0.1725(3) 0.6518(3) 0.7784(2)
O5A_2 O 0.1725(3) -0.3482(3) 0.7784(2)
O5_2 O 0.8275(3) -0.6518(3) 0.2216(2)
O6A O 0.3143(3) -0.1808(3) 0.6587(3)
O7A O 0.6445(3) -0.0202(3) 0.1838(3)
H3A H 0.6106 -0.0986 0.2149
H4A H 0.6014 0.0199 0.1294
O8A O 0.9569(3) 0.1264(3) 0.0906(2)
H5A H 0.9943 0.1676 0.0138
H6A H 0.9602 0.1783 0.1453
O9A O 0.9658(3) 0.0293(3) 0.3626(3)
H7A H 0.9944 -0.0578 0.3759
H8A H 1.0227 0.0753 0.3808
C1A C 0.8312(4) -0.3062(4) 0.3755(3)
C2A C 0.9643(4) -0.2955(4) 0.2471(3)
C3A C 1.1824(4) -0.4034(4) 0.0999(4)
H9A H 1.1484 -0.3960 0.0249
H10A H 1.2289 -0.3196 0.0928
C4A C 1.2959(4) -0.5302(4) 0.0952(4)
H11A H 1.3344 -0.5339 0.1670
H12A H 1.3781 -0.5198 0.0136
C5A C 1.2357(5) -0.6661(4) 0.1045(4)
H13A H 1.3175 -0.7388 0.0746
H14A H 1.1757 -0.6552 0.0476
C6A C 0.8055(4) -0.7313(4) 0.5793(3)
C7A C 0.6823(4) -0.6118(4) 0.6061(3)
C8A C 0.6880(4) -0.4735(4) 0.5394(3)
C9A C 0.5594(4) -0.3781(4) 0.5757(3)
H15A H 0.5612 -0.2866 0.5341
C10A C 0.4293(4) -0.4154(4) 0.6717(3)
C11A C 0.2945(4) -0.3061(4) 0.7051(3)
C12A C 0.4232(4) -0.5516(4) 0.7344(4)
H16A H 0.3356 -0.5782 0.7972
C13A C 0.5488(4) -0.6463(4) 0.7022(3)
H17A H 0.5452 -0.7369 0.7458
O10 O 0.6379(3) 0.9327(3) 0.6575(3)
H18 H 0.6599 0.9228 0.5766
H19 H 0.6353 0.8510 0.6998
O11 O 0.2575(3) 0.9905(3) 0.0816(3)
H20 H 0.1898 0.9364 0.1158
H21 H 0.3072 0.9839 0.1336
loop_
_geom_bond_atom_site_label_1
_geom_bond_atom_site_label_2
_geom_bond_site_symmetry_1
_geom_bond_site_symmetry_2
Cu1 N1 1_555 1_555
Mn1 O1 1_555 1_555
N1 C1 1_555 1_555
N2 Cu1 1_555 1_555
N3 Cu1 1_555 1_555
H1 N3 1_555 1_555
H2 N3 1_555 1_555
O1 C1 1_555 1_555
O2 Mn1 1_555 1_555
O3 Cu1 1_555 1_555
O4 C6 1_555 1_555
O5 C11 1_555 1_555
O6 C11 1_555 1_555
O7 Mn1 1_555 1_555
H3 O7 1_555 1_555
H4 O7 1_555 1_555
O8 Mn1 1_555 1_555
H5 O8 1_555 1_555
H6 O8 1_555 1_555
O9 Mn1 1_555 1_555
H7 O9 1_555 1_555
H8 O9 1_555 1_555
C1 C2 1_555 1_555
C2 N2 1_555 1_555
C3 N2 1_555 1_555
H9 C3 1_555 1_555
H10 C3 1_555 1_555
C4 C3 1_555 1_555
H11 C4 1_555 1_555
H12 C4 1_555 1_555
C5 N3 1_555 1_555
H13 C5 1_555 1_555
H14 C5 1_555 1_555
C6 O3 1_555 1_555
C7 C6 1_555 1_555
C8 N1 1_555 1_555
C9 C8 1_555 1_555
H15 C9 1_555 1_555
C10 C9 1_555 1_555
C11 C10 1_555 1_555
C12 C10 1_555 1_555
H16 C12 1_555 1_555
C13 C7 1_555 1_555
H17 C13 1_555 1_555
O10 H18 1_555 1_555
H19 O10 1_555 1_555
O11 H20 1_555 1_555
H21 O11 1_555 1_555
Cu1A O5 1_555 1_555
Cu1_2 O5A_2 1_555 1_555
Cu1A_2 N1A 1_555 1_555
Mn1A O6 1_555 1_555
N1A C1A 1_555 1_555
N2A Cu1A_2 1_555 1_555
N3A Cu1A_2 1_555 1_555
H1A N3A 1_555 1_555
H2A N3A 1_555 1_555
O1A Mn1A 1_555 1_555
O2A Mn1A 1_555 1_555
O3A Cu1A_2 1_555 1_555
O4A C6A 1_555 1_555
O5A Cu1 1_555 1_555
O5A_2 C11A 1_555 1_555
O5_2 Cu1A_2 1_555 1_555
O6A Mn1 1_555 1_555
O7A Mn1A 1_555 1_555
H3A O7A 1_555 1_555
H4A O7A 1_555 1_555
O8A Mn1A 1_555 1_555
H5A O8A 1_555 1_555
H6A O8A 1_555 1_555
O9A Mn1A 1_555 1_555
H7A O9A 1_555 1_555
H8A O9A 1_555 1_555
C1A O1A 1_555 1_555
C2A N2A 1_555 1_555
C3A N2A 1_555 1_555
H9A C3A 1_555 1_555
H10A C3A 1_555 1_555
C4A C3A 1_555 1_555
H11A C4A 1_555 1_555
H12A C4A 1_555 1_555
C5A N3A 1_555 1_555
H13A C5A 1_555 1_555
H14A C5A 1_555 1_555
C6A O3A 1_555 1_555
C7A C6A 1_555 1_555
C8A N1A 1_555 1_555
C9A C8A 1_555 1_555
H15A C9A 1_555 1_555
C10A C9A 1_555 1_555
C11A O6A 1_555 1_555
C12A C10A 1_555 1_555
H16A C12A 1_555 1_555
C13A C7A 1_555 1_555
H17A C13A 1_555 1_555
O2 C2 1_555 1_555
C4 C5 1_555 1_555
C7 C8 1_555 1_555
C12 C13 1_555 1_555
O2A C2A 1_555 1_555
C1A C2A 1_555 1_555
C4A C5A 1_555 1_555
C7A C8A 1_555 1_555
C10A C11A 1_555 1_555
C12A C13A 1_555 1_555

#END
