
#######################################################################
#
#                 Cambridge Crystallographic Data Centre
#                                CCDC 
#
#######################################################################
#
# If this CIF has been generated from an entry in the Cambridge 
# Structural Database, then it will include bibliographic, chemical, 
# crystal, experimental, refinement or atomic coordinate data resulting 
# from the CCDC's data processing and validation procedures.
#
#######################################################################

data_XOKVUP
_symmetry_cell_setting           triclinic
_symmetry_space_group_name_H-M   'P -1'
_symmetry_Int_Tables_number      2
_space_group_name_Hall           '-P 1'
loop_
_symmetry_equiv_pos_site_id
_symmetry_equiv_pos_as_xyz
1 x,y,z
2 -x,-y,-z
_cell_length_a                   7.0710(8)
_cell_length_b                   11.5024(13)
_cell_length_c                   11.7815(13)
_cell_angle_alpha                114.740(2)
_cell_angle_beta                 91.511(2)
_cell_angle_gamma                101.920(2)
_cell_volume                     844.625
loop_
_atom_site_label
_atom_site_type_symbol
_atom_site_fract_x
_atom_site_fract_y
_atom_site_fract_z
Pb1 Pb 0.20058(2) 0.925232(16) 0.861503(15)
S1 S 0.3947(2) 0.77049(17) 1.01082(15)
O1 O -0.0078(6) 0.8718(4) 1.0158(4)
O2 O -0.0226(8) 0.9562(4) 1.2208(4)
O3 O 0.3076(7) 0.7246(4) 0.8817(4)
O4 O 0.5651(8) 0.7226(8) 1.0169(7)
O5 O 0.4228(7) 0.9131(5) 1.0784(4)
O6 O 0.3405(6) 0.8530(5) 0.6462(4)
N1 N -0.0859(7) 0.7378(4) 0.7056(4)
N2 N 0.5671(7) 0.8653(5) 0.5180(5)
C1 C 0.0110(8) 0.8685(5) 1.1197(5)
C2 C 0.0613(8) 0.7522(5) 1.1308(5)
C3 C 0.2233(8) 0.7017(5) 1.0859(5)
C4 C 0.2507(10) 0.5906(6) 1.0975(5)
H1 H 0.3582 0.5574 1.0686
C5 C 0.1206(11) 0.5298(6) 1.1513(6)
H2 H 0.1389 0.4547 1.1572
C6 C -0.0359(11) 0.5787(6) 1.1962(6)
H3 H -0.1230 0.5374 1.2334
C7 C -0.0657(10) 0.6902(6) 1.1864(5)
H4 H -0.1724 0.7233 1.2177
C8 C -0.2580(9) 0.7140(6) 0.7444(6)
H5 H -0.2693 0.7622 0.8289
C9 C -0.4199(8) 0.6233(6) 0.6682(5)
H6 H -0.5359 0.6120 0.7021
C10 C -0.4136(8) 0.5490(5) 0.5431(5)
C11 C -0.2345(10) 0.5721(9) 0.5025(7)
H7 H -0.2192 0.5244 0.4187
C12 C -0.0782(10) 0.6653(8) 0.5851(7)
H8 H 0.0401 0.6780 0.5541
C13 C 0.5046(8) 0.8984(6) 0.6293(5)
H9 H 0.5907 0.9602 0.6997
C14 C 0.4399(11) 0.7710(8) 0.4029(6)
H10 H 0.5017 0.7014 0.3565
H11 H 0.4155 0.8148 0.3523
H12 H 0.3188 0.7347 0.4242
C15 C 0.7627(9) 0.9200(8) 0.5031(6)
H13 H 0.8319 0.9825 0.5840
H14 H 0.7575 0.9634 0.4494
H15 H 0.8288 0.8505 0.4659
Pb1A Pb -0.20058(2) 1.074768(16) 1.138497(15)
Pb1A_2 Pb 0.79942(2) 1.074768(16) 1.138497(15)
Pb1A_3 Pb -1.20058(2) 0.074768(16) 0.138497(15)
Pb1_2 Pb -0.79942(2) 0.925232(16) 0.861503(15)
S1A S -0.3947(2) 1.22951(17) 0.98918(15)
O1A O 0.0078(6) 1.1282(4) 0.9842(4)
O2A O 0.0226(8) 1.0438(4) 0.7792(4)
O3A O -0.3076(7) 1.2754(4) 1.1183(4)
O4A O -0.5651(8) 1.2774(8) 0.9831(7)
O5A O -0.4228(7) 1.0869(5) 0.9216(4)
O5A_2 O 0.5772(7) 1.0869(5) 0.9216(4)
O5_2 O -0.5772(7) 0.9131(5) 1.0784(4)
O6A O -0.3405(6) 1.1470(5) 1.3538(4)
N1A N -0.9141(7) 0.2622(4) 0.2944(4)
N1A_2 N 0.0859(7) 1.2622(4) 1.2944(4)
N2A N -0.5671(7) 1.1347(5) 1.4820(5)
C1A C -0.0110(8) 1.1315(5) 0.8803(5)
C2A C -0.0613(8) 1.2478(5) 0.8692(5)
C3A C -0.2233(8) 1.2983(5) 0.9141(5)
C4A C -0.2507(10) 1.4094(6) 0.9025(5)
H1A H -0.3582 1.4426 0.9314
C5A C -0.1206(11) 1.4702(6) 0.8487(6)
H2A H -0.1389 1.5453 0.8428
C6A C 0.0359(11) 1.4213(6) 0.8038(6)
H3A H 0.1230 1.4626 0.7666
C7A C 0.0657(10) 1.3098(6) 0.8136(5)
H4A H 0.1724 1.2767 0.7823
C8A C -0.7420(9) 0.2860(6) 0.2556(6)
H5A H -0.7307 0.2378 0.1711
C9A C -0.5801(8) 0.3767(6) 0.3318(5)
H6A H -0.4641 0.3880 0.2979
C10A C -0.5864(8) 0.4510(5) 0.4569(5)
C11A C -0.7655(10) 0.4279(9) 0.4975(7)
H7A H -0.7808 0.4756 0.5813
C12A C -0.9218(10) 0.3347(8) 0.4149(7)
H8A H -1.0401 0.3220 0.4459
C13A C -0.5046(8) 1.1016(6) 1.3707(5)
H9A H -0.5907 1.0398 1.3003
C14A C -0.4399(11) 1.2290(8) 1.5971(6)
H10A H -0.5017 1.2986 1.6435
H11A H -0.4155 1.1852 1.6477
H12A H -0.3188 1.2653 1.5758
C15A C -0.7627(9) 1.0800(8) 1.4969(6)
H13A H -0.8319 1.0175 1.4160
H14A H -0.7575 1.0366 1.5506
H15A H -0.8288 1.1495 1.5341
loop_
_geom_bond_atom_site_label_1
_geom_bond_atom_site_label_2
_geom_bond_site_symmetry_1
_geom_bond_site_symmetry_2
Pb1 O1 1_555 1_555
S1 O3 1_555 1_555
O1 C1 1_555 1_555
O2 C1 1_555 1_555
O3 Pb1 1_555 1_555
O4 S1 1_555 1_555
O5 S1 1_555 1_555
O6 Pb1 1_555 1_555
N1 Pb1 1_555 1_555
N2 C13 1_555 1_555
C1 C2 1_555 1_555
C2 C3 1_555 1_555
C3 S1 1_555 1_555
C4 C3 1_555 1_555
H1 C4 1_555 1_555
C5 C4 1_555 1_555
H2 C5 1_555 1_555
C6 C5 1_555 1_555
H3 C6 1_555 1_555
C7 C2 1_555 1_555
H4 C7 1_555 1_555
C8 N1 1_555 1_555
H5 C8 1_555 1_555
C9 C8 1_555 1_555
H6 C9 1_555 1_555
C10 C9 1_555 1_555
C11 C10 1_555 1_555
H7 C11 1_555 1_555
C12 N1 1_555 1_555
H8 C12 1_555 1_555
C13 O6 1_555 1_555
H9 C13 1_555 1_555
C14 N2 1_555 1_555
H10 C14 1_555 1_555
H11 C14 1_555 1_555
H12 C14 1_555 1_555
C15 N2 1_555 1_555
H13 C15 1_555 1_555
H14 C15 1_555 1_555
H15 C15 1_555 1_555
Pb1A O1 1_555 1_555
Pb1A_2 O5 1_555 1_555
Pb1A_3 N1A 1_555 1_555
Pb1_2 O5A 1_555 1_555
S1A O3A 1_555 1_555
O1A Pb1 1_555 1_555
O2A Pb1 1_555 1_555
O3A Pb1A 1_555 1_555
O4A S1A 1_555 1_555
O5A S1A 1_555 1_555
O5A_2 Pb1 1_555 1_555
O5_2 Pb1A 1_555 1_555
O6A Pb1A 1_555 1_555
N1A C8A 1_555 1_555
N1A_2 Pb1A 1_555 1_555
N2A C13A 1_555 1_555
C1A O1A 1_555 1_555
C2A C1A 1_555 1_555
C3A S1A 1_555 1_555
C4A C3A 1_555 1_555
H1A C4A 1_555 1_555
C5A C4A 1_555 1_555
H2A C5A 1_555 1_555
C6A C5A 1_555 1_555
H3A C6A 1_555 1_555
C7A C2A 1_555 1_555
H4A C7A 1_555 1_555
C8A H5A 1_555 1_555
C9A C8A 1_555 1_555
H6A C9A 1_555 1_555
C10A C10 1_555 1_555
C11A C10A 1_555 1_555
H7A C11A 1_555 1_555
C12A N1A 1_555 1_555
H8A C12A 1_555 1_555
C13A O6A 1_555 1_555
H9A C13A 1_555 1_555
C14A N2A 1_555 1_555
H10A C14A 1_555 1_555
H11A C14A 1_555 1_555
H12A C14A 1_555 1_555
C15A N2A 1_555 1_555
H13A C15A 1_555 1_555
H14A C15A 1_555 1_555
H15A C15A 1_555 1_555
O2 Pb1A 1_555 1_555
C6 C7 1_555 1_555
C11 C12 1_555 1_555
Pb1A O1A 1_555 1_555
O2A C1A 1_555 1_555
C2A C3A 1_555 1_555
C6A C7A 1_555 1_555
C9A C10A 1_555 1_555
C11A C12A 1_555 1_555

#END
