
#######################################################################
#
#                 Cambridge Crystallographic Data Centre
#                                CCDC 
#
#######################################################################
#
# If this CIF has been generated from an entry in the Cambridge 
# Structural Database, then it will include bibliographic, chemical, 
# crystal, experimental, refinement or atomic coordinate data resulting 
# from the CCDC's data processing and validation procedures.
#
#######################################################################

data_XOKXIF
_symmetry_cell_setting           monoclinic
_symmetry_space_group_name_H-M   'P 21/n'
_symmetry_Int_Tables_number      14
_space_group_name_Hall           '-P 2yn'
loop_
_symmetry_equiv_pos_site_id
_symmetry_equiv_pos_as_xyz
1 x,y,z
2 1/2-x,1/2+y,1/2-z
3 -x,-y,-z
4 1/2+x,1/2-y,1/2+z
_cell_length_a                   11.6041(6)
_cell_length_b                   10.1850(5)
_cell_length_c                   13.9926(7)
_cell_angle_alpha                90
_cell_angle_beta                 107.412(2)
_cell_angle_gamma                90
_cell_volume                     1577.98
loop_
_atom_site_label
_atom_site_type_symbol
_atom_site_fract_x
_atom_site_fract_y
_atom_site_fract_z
V1 V 0.60271(2) 0.03859(3) 0.94546(2)
O1 O 0.5884(1) -0.0456(1) 1.0597(1)
O2 O 0.5851(1) 0.2130(1) 0.9362(1)
O3 O 0.5447(1) -0.0391(1) 0.8254(1)
N1 N 0.7517(1) 0.0247(2) 0.9629(1)
C1 C 0.8741(1) 0.0132(2) 0.9810(1)
C2 C 0.9235(2) -0.0981(2) 0.9481(2)
C3 C 0.9531(2) 0.1104(2) 1.0329(2)
C4 C 0.6719(2) -0.1160(3) 1.1399(2)
C5 C 0.7171(3) -0.2359(3) 1.0988(3)
C6 C 0.7704(3) -0.0267(4) 1.1985(2)
C7 C 0.6635(2) 0.3161(2) 0.9298(2)
C8 C 0.6959(4) 0.3887(5) 1.0258(4)
C9 C 0.6018(4) 0.3967(5) 0.8402(4)
C10 C 0.6027(2) -0.0879(3) 0.7564(2)
C11 C 0.5391(4) -0.0376(5) 0.6548(3)
C12 C 0.6020(4) -0.2343(4) 0.7580(3)
H1 H 0.8715 -0.1656 0.9126
H2 H 0.9207 0.1859 1.0554
H3 H 0.6287 -0.1457 1.1838
H4 H 0.6505 -0.2886 1.0635
H5 H 0.7609 -0.2092 1.0546
H6 H 0.7685 -0.2850 1.1525
H7 H 0.7358 0.0460 1.2229
H8 H 0.8155 0.0045 1.1566
H9 H 0.8224 -0.0731 1.2535
H10 H 0.7350 0.2798 0.9207
H11 H 0.7296 0.3304 1.0793
H12 H 0.7519 0.4559 1.0246
H13 H 0.6245 0.4276 1.0342
H14 H 0.6543 0.4643 0.8321
H15 H 0.5309 0.4353 0.8495
H16 H 0.5796 0.3428 0.7824
H17 H 0.6839 -0.0578 0.7757
H18 H 0.5409 0.0558 0.6557
H19 H 0.5788 -0.0688 0.6088
H20 H 0.4581 -0.0670 0.6352
H21 H 0.5212 -0.2648 0.7392
H22 H 0.6413 -0.2664 0.7120
H23 H 0.6438 -0.2642 0.8234
V1B V 0.39729(2) -0.03859(3) 1.05454(2)
V1B_2 V 1.39729(2) -0.03859(3) 1.05454(2)
O1B O 0.4116(1) 0.0456(1) 0.9403(1)
O1_2 O 1.5884(1) -0.0456(1) 1.0597(1)
O1B_2 O 1.4116(1) 0.0456(1) 0.9403(1)
O2B O 1.4149(1) -0.2130(1) 1.0638(1)
O3B O 1.4553(1) 0.0391(1) 1.1746(1)
N1B N 1.2483(1) -0.0247(2) 1.0371(1)
C1B C 1.1259(1) -0.0132(2) 1.0190(1)
C2B C 1.0765(2) 0.0981(2) 1.0519(2)
C3B C 1.0469(2) -0.1104(2) 0.9671(2)
C4B C 0.3281(2) 0.1160(3) 0.8601(2)
C5B C 0.2829(3) 0.2359(3) 0.9012(3)
C6B C 0.2296(3) 0.0267(4) 0.8015(2)
C7B C 1.3365(2) -0.3161(2) 1.0702(2)
C8B C 1.3041(4) -0.3887(5) 0.9742(4)
C9B C 1.3982(4) -0.3967(5) 1.1598(4)
C10B C 1.3973(2) 0.0879(3) 1.2436(2)
C11B C 1.4609(4) 0.0376(5) 1.3452(3)
C12B C 1.3980(4) 0.2343(4) 1.2420(3)
H1B H 1.1285 0.1656 1.0874
H2B H 1.0793 -0.1859 0.9446
H3B H 0.3713 0.1457 0.8162
H4B H 0.3495 0.2886 0.9365
H5B H 0.2391 0.2092 0.9454
H6B H 0.2315 0.2850 0.8475
H7B H 0.2642 -0.0460 0.7771
H8B H 0.1845 -0.0045 0.8434
H9B H 0.1776 0.0731 0.7465
H10B H 1.2650 -0.2798 1.0793
H11B H 1.2704 -0.3304 0.9207
H12B H 1.2481 -0.4559 0.9754
H13B H 1.3755 -0.4276 0.9658
H14B H 1.3457 -0.4643 1.1679
H15B H 1.4691 -0.4353 1.1505
H16B H 1.4204 -0.3428 1.2176
H17B H 1.3161 0.0578 1.2243
H18B H 1.4591 -0.0558 1.3443
H19B H 1.4212 0.0688 1.3912
H20B H 1.5419 0.0670 1.3648
H21B H 1.4788 0.2648 1.2608
H22B H 1.3587 0.2664 1.2880
H23B H 1.3562 0.2642 1.1766
loop_
_geom_bond_atom_site_label_1
_geom_bond_atom_site_label_2
_geom_bond_site_symmetry_1
_geom_bond_site_symmetry_2
V1 O1 1_555 1_555
O1 C4 1_555 1_555
O2 V1 1_555 1_555
O3 V1 1_555 1_555
N1 V1 1_555 1_555
C1 N1 1_555 1_555
C2 C1 1_555 1_555
C3 C1 1_555 1_555
C4 C5 1_555 1_555
C5 H4 1_555 1_555
C6 C4 1_555 1_555
C7 O2 1_555 1_555
C8 C7 1_555 1_555
C9 C7 1_555 1_555
C10 O3 1_555 1_555
C11 C10 1_555 1_555
C12 C10 1_555 1_555
H1 C2 1_555 1_555
H2 C3 1_555 1_555
H3 C4 1_555 1_555
H5 C5 1_555 1_555
H6 C5 1_555 1_555
H7 C6 1_555 1_555
H8 C6 1_555 1_555
H9 C6 1_555 1_555
H10 C7 1_555 1_555
H11 C8 1_555 1_555
H12 C8 1_555 1_555
H13 C8 1_555 1_555
H14 C9 1_555 1_555
H15 C9 1_555 1_555
H16 C9 1_555 1_555
H17 C10 1_555 1_555
H18 C11 1_555 1_555
H19 C11 1_555 1_555
H20 C11 1_555 1_555
H21 C12 1_555 1_555
H22 C12 1_555 1_555
H23 C12 1_555 1_555
V1B O1 1_555 1_555
V1B_2 O1_2 1_555 1_555
O1B V1 1_555 1_555
O1B_2 V1B_2 1_555 1_555
O2B V1B_2 1_555 1_555
O3B V1B_2 1_555 1_555
N1B V1B_2 1_555 1_555
C1B N1B 1_555 1_555
C2B C3 1_555 1_555
C3B C2 1_555 1_555
C4B O1B 1_555 1_555
C5B C4B 1_555 1_555
C6B C4B 1_555 1_555
C7B O2B 1_555 1_555
C8B C7B 1_555 1_555
C9B C7B 1_555 1_555
C10B O3B 1_555 1_555
C11B C10B 1_555 1_555
C12B C10B 1_555 1_555
H1B C2B 1_555 1_555
H2B C3B 1_555 1_555
H3B C4B 1_555 1_555
H4B C5B 1_555 1_555
H5B C5B 1_555 1_555
H6B C5B 1_555 1_555
H7B C6B 1_555 1_555
H8B C6B 1_555 1_555
H9B C6B 1_555 1_555
H10B C7B 1_555 1_555
H11B C8B 1_555 1_555
H12B C8B 1_555 1_555
H13B C8B 1_555 1_555
H14B C9B 1_555 1_555
H15B C9B 1_555 1_555
H16B C9B 1_555 1_555
H17B C10B 1_555 1_555
H18B C11B 1_555 1_555
H19B C11B 1_555 1_555
H20B C11B 1_555 1_555
H21B C12B 1_555 1_555
H22B C12B 1_555 1_555
H23B C12B 1_555 1_555
V1B O1B 1_555 1_555
C1B C2B 1_555 1_555
C1B C3B 1_555 1_555

#END
