
#######################################################################
#
#                 Cambridge Crystallographic Data Centre
#                                CCDC 
#
#######################################################################
#
# If this CIF has been generated from an entry in the Cambridge 
# Structural Database, then it will include bibliographic, chemical, 
# crystal, experimental, refinement or atomic coordinate data resulting 
# from the CCDC's data processing and validation procedures.
#
#######################################################################

data_XOLFAH
_symmetry_cell_setting           triclinic
_symmetry_space_group_name_H-M   'P -1'
_symmetry_Int_Tables_number      2
_space_group_name_Hall           '-P 1'
loop_
_symmetry_equiv_pos_site_id
_symmetry_equiv_pos_as_xyz
1 x,y,z
2 -x,-y,-z
_cell_length_a                   8.1292(10)
_cell_length_b                   10.3637(13)
_cell_length_c                   11.0131(16)
_cell_angle_alpha                65.318(13)
_cell_angle_beta                 72.960(12)
_cell_angle_gamma                70.904(11)
_cell_volume                     783.345
loop_
_atom_site_label
_atom_site_type_symbol
_atom_site_fract_x
_atom_site_fract_y
_atom_site_fract_z
Cd1 Cd 1.15215(3) 0.11383(3) 0.48744(2)
Cd2 Cd 0.0000 0.5000 0.5000
C1 C 1.0411(4) 0.1362(4) 0.2658(4)
C2 C 1.0542(4) 0.1460(4) 0.1233(3)
C3 C 0.9512(4) 0.2587(4) 0.0316(3)
C4 C 0.9864(4) 0.2633(4) -0.1012(3)
H1 H 0.9193 0.3385 -0.1631
C5 C 1.1189(4) 0.1589(4) -0.1440(3)
C6 C 1.2200(5) 0.0476(4) -0.0517(4)
H2 H 1.3101 -0.0225 -0.0795
C7 C 1.1875(5) 0.0404(4) 0.0808(4)
H3 H 1.2549 -0.0353 0.1421
C8 C 1.1432(5) 0.1570(4) -0.2831(3)
C9 C 0.7984(4) 0.3677(4) 0.0728(3)
C10 C 0.6628(4) 0.3220(4) 0.1785(4)
H4 H 0.6719 0.2228 0.2282
C11 C 0.5133(5) 0.4237(4) 0.2106(4)
C12 C 0.5030(5) 0.5706(4) 0.1387(4)
H5 H 0.4042 0.6390 0.1610
C13 C 0.6372(5) 0.6168(4) 0.0345(4)
H6 H 0.6294 0.7162 -0.0130
C14 C 0.7841(5) 0.5158(4) 0.0000(4)
H7 H 0.8733 0.5472 -0.0722
C15 C 0.3603(4) 0.3736(4) 0.3174(4)
O1 O 1.0250(4) 0.2497(3) 0.2884(3)
O2 O 1.0649(3) 0.0125(3) 0.3570(2)
O3 O 1.0443(3) 0.2529(3) -0.3659(2)
O4 O 1.2574(3) 0.0547(3) -0.3138(3)
O5 O 0.2355(4) 0.4697(3) 0.3452(3)
O6 O 0.3670(3) 0.2395(3) 0.3687(3)
O7 O 1.3880(4) -0.0796(4) 0.4608(4)
H8 H 1.3517 -0.0432 0.5230
H9 H 1.4704 -0.1287 0.5069
O8 O 0.1803(5) 0.5262(4) 0.6136(4)
H10 H 0.1958 0.5111 0.5404
H11 H 0.1403 0.5785 0.6654
Cd1A Cd -1.15215(3) 0.88617(3) 0.51256(2)
C1A C -1.0411(4) 0.8638(4) 0.7342(4)
C2A C -1.0542(4) 0.8540(4) 0.8767(3)
C3A C -0.9512(4) 0.7413(4) 0.9684(3)
C4A C -0.9864(4) 0.7367(4) 1.1012(3)
H1A H -0.9193 0.6615 1.1631
C5A C -1.1189(4) 0.8411(4) 1.1440(3)
C6A C -1.2200(5) 0.9524(4) 1.0517(4)
H2A H -1.3101 1.0225 1.0795
C7A C -1.1875(5) 0.9596(4) 0.9192(4)
H3A H -1.2549 1.0353 0.8579
C8A C -1.1432(5) 0.8430(4) 1.2831(3)
C9A C -0.7984(4) 0.6323(4) 0.9272(3)
C10A C -0.6628(4) 0.6780(4) 0.8215(4)
H4A H -0.6719 0.7772 0.7718
C11A C -0.5133(5) 0.5763(4) 0.7894(4)
C12A C -0.5030(5) 0.4294(4) 0.8613(4)
H5A H -0.4042 0.3610 0.8390
C13A C -0.6372(5) 0.3832(4) 0.9655(4)
H6A H -0.6294 0.2838 1.0130
C14A C -0.7841(5) 0.4842(4) 1.0000(4)
H7A H -0.8733 0.4528 1.0722
C15A C -0.3603(4) 0.6264(4) 0.6826(4)
O1A O -1.0250(4) 0.7503(3) 0.7116(3)
O2A O -1.0649(3) 0.9875(3) 0.6430(2)
O3A O -1.0443(3) 0.7471(3) 1.3659(2)
O4A O -1.2574(3) 0.9453(3) 1.3138(3)
O5A O -0.2355(4) 0.5303(3) 0.6548(3)
O6A O -0.3670(3) 0.7605(3) 0.6313(3)
O7A O -1.3880(4) 1.0796(4) 0.5392(4)
H8A H -1.3517 1.0432 0.4770
H9A H -1.4704 1.1287 0.4931
O8A O -0.1803(5) 0.4738(4) 0.3864(4)
H10A H -0.1958 0.4889 0.4596
H11A H -0.1403 0.4215 0.3346
Cd1_2 Cd -0.84785(3) 1.11383(3) 0.48744(2)
Cd1_3 Cd 0.15215(3) 0.11383(3) 0.48744(2)
Cd1_4 Cd 1.15215(3) 0.11383(3) -0.51256(2)
Cd1A_2 Cd -1.15215(3) 0.88617(3) 1.51256(2)
Cd1A_3 Cd -0.15215(3) 0.88617(3) 0.51256(2)
Cd1A_4 Cd 0.84785(3) -0.11383(3) 0.51256(2)
Cd2_2 Cd -1.0000 0.5000 1.5000
Cd2_3 Cd 1.0000 0.5000 -0.5000
O2_2 O -0.9351(3) 1.0125(3) 0.3570(2)
O2A_2 O 0.9351(3) -0.0125(3) 0.6430(2)
O3_2 O 0.0443(3) 0.2529(3) 0.6341(2)
O3_3 O 1.0443(3) 0.2529(3) 0.6341(2)
O3A_2 O -1.0443(3) 0.7471(3) 0.3659(2)
O3A_3 O -0.0443(3) 0.7471(3) 0.3659(2)
O4_2 O 1.2574(3) 0.0547(3) 0.6862(3)
O4A_2 O -1.2574(3) 0.9453(3) 0.3138(3)
O6_2 O 1.3670(3) 0.2395(3) 0.3687(3)
O6A_2 O -1.3670(3) 0.7605(3) 0.6313(3)
O9 O 0.4347(10) 0.6747(8) 0.3942(7)
H12 H 0.4206 0.7503 0.4121
H13 H 0.3802 0.6313 0.4672
loop_
_geom_bond_atom_site_label_1
_geom_bond_atom_site_label_2
_geom_bond_site_symmetry_1
_geom_bond_site_symmetry_2
Cd1 O1 1_555 1_555
Cd2 O5 1_555 1_555
C1 C2 1_555 1_555
C2 C3 1_555 1_555
C3 C4 1_555 1_555
C4 H1 1_555 1_555
C5 C4 1_555 1_555
C6 C5 1_555 1_555
H2 C6 1_555 1_555
C7 C2 1_555 1_555
H3 C7 1_555 1_555
C8 C5 1_555 1_555
C9 C3 1_555 1_555
C10 C9 1_555 1_555
H4 C10 1_555 1_555
C11 C10 1_555 1_555
C12 C11 1_555 1_555
H5 C12 1_555 1_555
C13 C12 1_555 1_555
H6 C13 1_555 1_555
C14 C9 1_555 1_555
H7 C14 1_555 1_555
C15 C11 1_555 1_555
O1 C1 1_555 1_555
O2 Cd1 1_555 1_555
O3 C8 1_555 1_555
O4 C8 1_555 1_555
O5 C15 1_555 1_555
O6 C15 1_555 1_555
O7 Cd1 1_555 1_555
H8 O7 1_555 1_555
H9 O7 1_555 1_555
O8 Cd2 1_555 1_555
H10 O8 1_555 1_555
H11 O8 1_555 1_555
O9 H12 1_555 1_555
H13 O9 1_555 1_555
Cd1A O1A 1_555 1_555
C1A C2A 1_555 1_555
C2A C3A 1_555 1_555
C3A C4A 1_555 1_555
C4A H1A 1_555 1_555
C5A C4A 1_555 1_555
C6A C5A 1_555 1_555
H2A C6A 1_555 1_555
C7A C2A 1_555 1_555
H3A C7A 1_555 1_555
C8A C5A 1_555 1_555
C9A C3A 1_555 1_555
C10A C9A 1_555 1_555
H4A C10A 1_555 1_555
C11A C10A 1_555 1_555
C12A C11A 1_555 1_555
H5A C12A 1_555 1_555
C13A C12A 1_555 1_555
H6A C13A 1_555 1_555
C14A C9A 1_555 1_555
H7A C14A 1_555 1_555
C15A C11A 1_555 1_555
O1A C1A 1_555 1_555
O2A Cd1A 1_555 1_555
O3A C8A 1_555 1_555
O4A C8A 1_555 1_555
O5A Cd2 1_555 1_555
O6A C15A 1_555 1_555
O7A Cd1A 1_555 1_555
H8A O7A 1_555 1_555
H9A O7A 1_555 1_555
O8A Cd2 1_555 1_555
H10A O8A 1_555 1_555
H11A O8A 1_555 1_555
Cd1_2 O2A 1_555 1_555
Cd1_3 O6 1_555 1_555
Cd1_4 O3 1_555 1_555
Cd1A_2 O3A 1_555 1_555
Cd1A_3 O6A 1_555 1_555
Cd1A_4 O2 1_555 1_555
Cd2_2 O3A 1_555 1_555
Cd2_3 O3 1_555 1_555
O2_2 Cd1A 1_555 1_555
O2A_2 Cd1 1_555 1_555
O3_2 Cd2 1_555 1_555
O3_3 Cd1 1_555 1_555
O3A_2 Cd1A 1_555 1_555
O3A_3 Cd2 1_555 1_555
O4_2 Cd1 1_555 1_555
O4A_2 Cd1A 1_555 1_555
O6_2 Cd1 1_555 1_555
O6A_2 Cd1A 1_555 1_555
C1 O2 1_555 1_555
C6 C7 1_555 1_555
C13 C14 1_555 1_555
O4 Cd1_4 1_555 1_555
C1A O2A 1_555 1_555
C6A C7A 1_555 1_555
C13A C14A 1_555 1_555
C15A O5A 1_555 1_555
O4A Cd1A_2 1_555 1_555
Cd1_2 O2_2 1_555 1_555
Cd1_3 O3_2 1_555 1_555
Cd1A_3 O3A_3 1_555 1_555
Cd1A_4 O2A_2 1_555 1_555

#END
