
#######################################################################
#
#                 Cambridge Crystallographic Data Centre
#                                CCDC 
#
#######################################################################
#
# If this CIF has been generated from an entry in the Cambridge 
# Structural Database, then it will include bibliographic, chemical, 
# crystal, experimental, refinement or atomic coordinate data resulting 
# from the CCDC's data processing and validation procedures.
#
#######################################################################

data_XOLGEM
_symmetry_cell_setting           rhombohedral
_symmetry_space_group_name_H-M   'R -3 c'
_symmetry_Int_Tables_number      167
_space_group_name_Hall           '-R 3 2"c'
loop_
_symmetry_equiv_pos_site_id
_symmetry_equiv_pos_as_xyz
1 x,y,z
2 -y,x-y,z
3 -x+y,-x,z
4 x-y,-y,1/2-z
5 -x,-x+y,1/2-z
6 y,x,1/2-z
7 2/3+x,1/3+y,1/3+z
8 2/3-y,1/3+x-y,1/3+z
9 2/3-x+y,1/3-x,1/3+z
10 2/3+x-y,1/3-y,5/6-z
11 2/3-x,1/3-x+y,5/6-z
12 2/3+y,1/3+x,5/6-z
13 1/3+x,2/3+y,2/3+z
14 1/3-y,2/3+x-y,2/3+z
15 1/3-x+y,2/3-x,2/3+z
16 1/3+x-y,2/3-y,1/6-z
17 1/3-x,2/3-x+y,1/6-z
18 1/3+y,2/3+x,1/6-z
19 -x,-y,-z
20 y,-x+y,-z
21 x-y,x,-z
22 -x+y,y,1/2+z
23 x,x-y,1/2+z
24 -y,-x,1/2+z
25 1/3-x,2/3-y,2/3-z
26 1/3+y,2/3-x+y,2/3-z
27 1/3+x-y,2/3+x,2/3-z
28 1/3-x+y,2/3+y,1/6+z
29 1/3+x,2/3+x-y,1/6+z
30 1/3-y,2/3-x,1/6+z
31 2/3-x,1/3-y,1/3-z
32 2/3+y,1/3-x+y,1/3-z
33 2/3+x-y,1/3+x,1/3-z
34 2/3-x+y,1/3+y,5/6+z
35 2/3+x,1/3+x-y,5/6+z
36 2/3-y,1/3-x,5/6+z
_cell_length_a                   17.6972(11)
_cell_length_b                   17.6972(11)
_cell_length_c                   76.397(5)
_cell_angle_alpha                90
_cell_angle_beta                 90
_cell_angle_gamma                120
_cell_volume                     20721.3
loop_
_atom_site_label
_atom_site_type_symbol
_atom_site_fract_x
_atom_site_fract_y
_atom_site_fract_z
Co3 Co 0.0000 0.0000 0.5000
O9 O 0.10991(19) 0.0516(2) 0.48445(3)
H1 H 0.1566 0.0913 0.4901
H2 H 0.1040 0.0774 0.4751
O9A O -0.0516(2) 0.05831(28) 0.48445(3)
H1A H -0.0913 0.0653 0.4901
H2A H -0.0774 0.0266 0.4751
O9B O -0.05831(28) -0.10991(19) 0.48445(3)
H1B H -0.0653 -0.1566 0.4901
H2B H -0.0266 -0.1040 0.4751
O9R O -0.10991(19) -0.0516(2) 0.51555(3)
H1R H -0.1566 -0.0913 0.5099
H2R H -0.1040 -0.0774 0.5249
O9S O 0.0516(2) -0.05831(28) 0.51555(3)
H1S H 0.0913 -0.0653 0.5099
H2S H 0.0774 -0.0266 0.5249
O9T O 0.05831(28) 0.10991(19) 0.51555(3)
H1T H 0.0653 0.1566 0.5099
H2T H 0.0266 0.1040 0.5249
C1 C 0.8611(5) 0.8353(4) 0.42061(6)
C2 C 0.8299(3) 0.8589(3) 0.43692(5)
C3 C 0.7563(4) 0.8219(3) 0.44737(5)
C4 C 0.6686(4) 0.7404(4) 0.44818(7)
C5 C 0.5694(4) 0.7395(5) 0.50545(9)
C6 C 0.6511(4) 0.7329(3) 0.50676(7)
C7 C 0.6884(3) 0.6963(4) 0.51686(7)
C8 C 0.6638(5) 0.6377(4) 0.53263(8)
Co1 Co 1.0000 1.0000 0.431197(12)
Co2 Co 0.67204(5) 0.83991(5) 0.477172(7)
Li1 Li 0.7012(11) 0.6667 0.4167
N1 N 0.8841(3) 0.9364(3) 0.44389(5)
N2 N 0.8494(3) 0.9515(3) 0.45789(5)
N3 N 0.7717(3) 0.8823(3) 0.45981(4)
N4 N 0.7113(3) 0.7766(3) 0.49366(5)
N5 N 0.7791(3) 0.7663(3) 0.49552(6)
N6 N 0.7664(3) 0.7191(3) 0.50938(6)
O1 O 0.9375(3) 0.8930(2) 0.41612(4)
O2 O 0.8144(3) 0.7661(3) 0.41309(5)
O3 O 0.6470(3) 0.6822(3) 0.43692(5)
O4 O 0.6207(2) 0.7366(2) 0.46083(4)
O5 O 0.5662(2) 0.7817(3) 0.49250(5)
O6 O 0.5126(3) 0.7038(4) 0.51642(6)
O7 O 0.5938(3) 0.6133(4) 0.53997(5)
O8 O 0.7215(3) 0.6186(3) 0.53710(5)
C1A C 1.1647(4) 1.0258(6) 0.42061(6)
C2A C 1.1411(3) 0.9710(4) 0.43692(5)
C3A C 1.1781(3) 0.9344(5) 0.44737(5)
C4A C 1.2596(4) 0.9282(6) 0.44818(7)
C5A C 1.2605(5) 0.8299(6) 0.50545(9)
C6A C 1.2671(3) 0.9182(5) 0.50676(7)
C7A C 1.3037(4) 0.9921(5) 0.51686(7)
C8A C 1.3623(4) 1.0261(6) 0.53263(8)
Co2A Co 1.16009(5) 0.83213(7) 0.477172(7)
Li1A Li 1.3333 1.0345(11) 0.4167
N1A N 1.0636(3) 0.9477(4) 0.44389(5)
N2A N 1.0485(3) 0.8979(4) 0.45789(5)
N3A N 1.1177(3) 0.8894(4) 0.45981(4)
N4A N 1.2234(3) 0.9347(4) 0.49366(5)
N5A N 1.2337(3) 1.0128(4) 0.49552(6)
N6A N 1.2809(3) 1.0473(4) 0.50938(6)
O1A O 1.1070(2) 1.0445(4) 0.41612(4)
O2A O 1.2339(3) 1.0483(4) 0.41309(5)
O3A O 1.3178(3) 0.9648(4) 0.43692(5)
O4A O 1.2634(2) 0.8841(3) 0.46083(4)
O5A O 1.2183(3) 0.7845(4) 0.49250(5)
O6A O 1.2962(4) 0.8088(5) 0.51642(6)
O7A O 1.3867(4) 0.9805(5) 0.53997(5)
O8A O 1.3814(3) 1.1029(4) 0.53710(5)
C1B C 0.9742(6) 1.1389(5) 0.42061(6)
C2B C 1.0290(4) 1.1701(3) 0.43692(5)
C3B C 1.0656(5) 1.2437(4) 0.44737(5)
C4B C 1.0718(6) 1.3314(4) 0.44818(7)
C5B C 1.1701(6) 1.4306(4) 0.50545(9)
C6B C 1.0818(5) 1.3489(4) 0.50676(7)
C7B C 1.0079(5) 1.3116(3) 0.51686(7)
C8B C 0.9739(6) 1.3362(5) 0.53263(8)
Co2B Co 1.16787(7) 1.32796(5) 0.477172(7)
Li1B Li 0.9655(11) 1.2988(11) 0.4167
N1B N 1.0523(4) 1.1159(3) 0.44389(5)
N2B N 1.1021(4) 1.1506(3) 0.45789(5)
N3B N 1.1106(4) 1.2283(3) 0.45981(4)
N4B N 1.0653(4) 1.2887(3) 0.49366(5)
N5B N 0.9872(4) 1.2209(3) 0.49552(6)
N6B N 0.9527(4) 1.2336(3) 0.50938(6)
O1B O 0.9555(4) 1.0625(3) 0.41612(4)
O2B O 0.9517(4) 1.1856(3) 0.41309(5)
O3B O 1.0352(4) 1.3530(3) 0.43692(5)
O4B O 1.1159(3) 1.3793(2) 0.46083(4)
O5B O 1.2155(4) 1.4338(2) 0.49250(5)
O6B O 1.1912(5) 1.4874(3) 0.51642(6)
O7B O 1.0195(5) 1.4062(3) 0.53997(5)
O8B O 0.8971(4) 1.2785(3) 0.53710(5)
C1R C 1.1389(5) 1.1647(4) 0.57939(6)
C2R C 1.1701(3) 1.1411(3) 0.56308(5)
C3R C 1.2437(4) 1.1781(3) 0.55263(5)
C4R C 1.3314(4) 1.2596(4) 0.55182(7)
C5R C 1.4306(4) 1.2605(5) 0.49455(9)
C6R C 1.3489(4) 1.2671(3) 0.49324(7)
C7R C 1.3116(3) 1.3037(4) 0.48314(7)
C8R C 1.3362(5) 1.3623(4) 0.46737(8)
Co1R Co 1.0000 1.0000 0.568803(12)
Co2R Co 1.32796(5) 1.16009(5) 0.522828(7)
N1R N 1.1159(3) 1.0636(3) 0.55611(5)
N2R N 1.1506(3) 1.0485(3) 0.54211(5)
N3R N 1.2283(3) 1.1177(3) 0.54019(4)
N4R N 1.2887(3) 1.2234(3) 0.50634(5)
N5R N 1.2209(3) 1.2337(3) 0.50448(6)
N6R N 1.2336(3) 1.2809(3) 0.49062(6)
O1R O 1.0625(3) 1.1070(2) 0.58388(4)
O2R O 1.1856(3) 1.2339(3) 0.58691(5)
O3R O 1.3530(3) 1.3178(3) 0.56308(5)
O4R O 1.3793(2) 1.2634(2) 0.53917(4)
O5R O 1.4338(2) 1.2183(3) 0.50750(5)
O6R O 1.4874(3) 1.2962(4) 0.48358(6)
O7R O 1.4062(3) 1.3867(4) 0.46003(5)
O8R O 1.2785(3) 1.3814(3) 0.46290(5)
C1S C 0.8353(4) 0.9742(6) 0.57939(6)
C2S C 0.8589(3) 1.0290(4) 0.56308(5)
C3S C 0.8219(3) 1.0656(5) 0.55263(5)
C4S C 0.7404(4) 1.0718(6) 0.55182(7)
C5S C 0.7395(5) 1.1701(6) 0.49455(9)
C6S C 0.7329(3) 1.0818(5) 0.49324(7)
C7S C 0.6963(4) 1.0079(5) 0.48314(7)
C8S C 0.6377(4) 0.9739(6) 0.46737(8)
Co2S Co 0.83991(5) 1.16787(7) 0.522828(7)
N1S N 0.9364(3) 1.0523(4) 0.55611(5)
N2S N 0.9515(3) 1.1021(4) 0.54211(5)
N3S N 0.8823(3) 1.1106(4) 0.54019(4)
N4S N 0.7766(3) 1.0653(4) 0.50634(5)
N5S N 0.7663(3) 0.9872(4) 0.50448(6)
N6S N 0.7191(3) 0.9527(4) 0.49062(6)
O1S O 0.8930(2) 0.9555(4) 0.58388(4)
O2S O 0.7661(3) 0.9517(4) 0.58691(5)
O3S O 0.6822(3) 1.0352(4) 0.56308(5)
O4S O 0.7366(2) 1.1159(3) 0.53917(4)
O5S O 0.7817(3) 1.2155(4) 0.50750(5)
O6S O 0.7038(4) 1.1912(5) 0.48358(6)
O7S O 0.6133(4) 1.0195(5) 0.46003(5)
O8S O 0.6186(3) 0.8971(4) 0.46290(5)
C1T C 1.0258(6) 0.8611(5) 0.57939(6)
C2T C 0.9710(4) 0.8299(3) 0.56308(5)
C3T C 0.9344(5) 0.7563(4) 0.55263(5)
C4T C 0.9282(6) 0.6686(4) 0.55182(7)
C5T C 0.8299(6) 0.5694(4) 0.49455(9)
C6T C 0.9182(5) 0.6511(4) 0.49324(7)
C7T C 0.9921(5) 0.6884(3) 0.48314(7)
C8T C 1.0261(6) 0.6638(5) 0.46737(8)
Co2T Co 0.83213(7) 0.67204(5) 0.522828(7)
N1T N 0.9477(4) 0.8841(3) 0.55611(5)
N2T N 0.8979(4) 0.8494(3) 0.54211(5)
N3T N 0.8894(4) 0.7717(3) 0.54019(4)
N4T N 0.9347(4) 0.7113(3) 0.50634(5)
N5T N 1.0128(4) 0.7791(3) 0.50448(6)
N6T N 1.0473(4) 0.7664(3) 0.49062(6)
O1T O 1.0445(4) 0.9375(3) 0.58388(4)
O2T O 1.0483(4) 0.8144(3) 0.58691(5)
O3T O 0.9648(4) 0.6470(3) 0.56308(5)
O4T O 0.8841(3) 0.6207(2) 0.53917(4)
O5T O 0.7845(4) 0.5662(2) 0.50750(5)
O6T O 0.8088(5) 0.5126(3) 0.48358(6)
O7T O 0.9805(5) 0.5938(3) 0.46003(5)
O8T O 1.1029(4) 0.7215(3) 0.46290(5)
Li1R Li 1.2988(11) 1.3333 0.5833
Li1S Li 0.6667 0.9655(11) 0.5833
Li1T Li 1.0345(11) 0.7012(11) 0.5833
O2I O 0.7150(4) 0.5672(3) 0.42024(5)
O2J O 0.8523(3) 1.2850(4) 0.42024(5)
O2K O 1.4328(3) 1.1477(3) 0.42024(5)
O3I O 0.6315(4) 0.6511(3) 0.39641(5)
O3J O 1.0197(3) 1.3685(4) 0.39641(5)
O3K O 1.3489(3) 0.9803(3) 0.39641(5)
loop_
_geom_bond_atom_site_label_1
_geom_bond_atom_site_label_2
_geom_bond_site_symmetry_1
_geom_bond_site_symmetry_2
C1 C2 1_555 1_555
C2 C3 1_555 1_555
C3 C4 1_555 1_555
C4 O3 1_555 1_555
C5 C6 1_555 1_555
C6 C7 1_555 1_555
C7 C8 1_555 1_555
C8 O7 1_555 1_555
Co1 N1 1_555 1_555
Co2 N3 1_555 1_555
Li1 O2 1_555 1_555
N1 C2 1_555 1_555
N2 N1 1_555 1_555
N3 C3 1_555 1_555
N4 C6 1_555 1_555
N5 N4 1_555 1_555
N6 C7 1_555 1_555
O1 C1 1_555 1_555
O2 C1 1_555 1_555
O3 Li1 1_555 1_555
O4 C4 1_555 1_555
O5 C5 1_555 1_555
O6 C5 1_555 1_555
O8 C8 1_555 1_555
Co3 O9 1_555 1_555
O9 H1 1_555 1_555
H2 O9 1_555 1_555
C1A C2A 1_555 1_555
C2A C3A 1_555 1_555
C3A C4A 1_555 1_555
C4A O3A 1_555 1_555
C5A C6A 1_555 1_555
C6A C7A 1_555 1_555
C7A C8A 1_555 1_555
C8A O7A 1_555 1_555
Co2A N3A 1_555 1_555
Li1A O2A 1_555 1_555
N1A Co1 1_555 1_555
N2A N1A 1_555 1_555
N3A C3A 1_555 1_555
N4A C6A 1_555 1_555
N5A N4A 1_555 1_555
N6A C7A 1_555 1_555
O1A Co1 1_555 1_555
O2A C1A 1_555 1_555
O3A Li1A 1_555 1_555
O4A C4A 1_555 1_555
O5A C5A 1_555 1_555
O6A C5A 1_555 1_555
O8A C8A 1_555 1_555
C1B C2B 1_555 1_555
C2B C3B 1_555 1_555
C3B C4B 1_555 1_555
C4B O3B 1_555 1_555
C5B C6B 1_555 1_555
C6B C7B 1_555 1_555
C7B C8B 1_555 1_555
C8B O7B 1_555 1_555
Co2B N3B 1_555 1_555
Li1B O2B 1_555 1_555
N1B Co1 1_555 1_555
N2B N1B 1_555 1_555
N3B C3B 1_555 1_555
N4B C6B 1_555 1_555
N5B N4B 1_555 1_555
N6B C7B 1_555 1_555
O1B Co1 1_555 1_555
O2B C1B 1_555 1_555
O3B Li1B 1_555 1_555
O4B C4B 1_555 1_555
O5B C5B 1_555 1_555
O6B C5B 1_555 1_555
O8B C8B 1_555 1_555
C1R C2R 1_555 1_555
C2R C3R 1_555 1_555
C3R C4R 1_555 1_555
C4R O3R 1_555 1_555
C5R C6R 1_555 1_555
C6R C7R 1_555 1_555
C7R C8R 1_555 1_555
C8R O7R 1_555 1_555
Co1R N1R 1_555 1_555
Co2R N6A 1_555 1_555
N1R C2R 1_555 1_555
N2R N1R 1_555 1_555
N3R C3R 1_555 1_555
N4R C6R 1_555 1_555
N5R N4R 1_555 1_555
N6R Co2B 1_555 1_555
O1R C1R 1_555 1_555
O2R C1R 1_555 1_555
O3R Li1R 1_555 1_555
O4R C4R 1_555 1_555
O5R C5R 1_555 1_555
O6R C5R 1_555 1_555
O8R Co2B 1_555 1_555
C1S C2S 1_555 1_555
C2S C3S 1_555 1_555
C3S C4S 1_555 1_555
C4S O3S 1_555 1_555
C5S C6S 1_555 1_555
C6S C7S 1_555 1_555
C7S C8S 1_555 1_555
C8S O7S 1_555 1_555
Co2S N6B 1_555 1_555
N1S Co1R 1_555 1_555
N2S N1S 1_555 1_555
N3S C3S 1_555 1_555
N4S C6S 1_555 1_555
N5S N4S 1_555 1_555
N6S Co2 1_555 1_555
O1S Co1R 1_555 1_555
O2S C1S 1_555 1_555
O3S Li1S 1_555 1_555
O4S C4S 1_555 1_555
O5S C5S 1_555 1_555
O6S C5S 1_555 1_555
O8S Co2 1_555 1_555
C1T C2T 1_555 1_555
C2T C3T 1_555 1_555
C3T C4T 1_555 1_555
C4T O3T 1_555 1_555
C5T C6T 1_555 1_555
C6T C7T 1_555 1_555
C7T C8T 1_555 1_555
C8T O7T 1_555 1_555
Co2T N6 1_555 1_555
N1T Co1R 1_555 1_555
N2T N1T 1_555 1_555
N3T C3T 1_555 1_555
N4T C6T 1_555 1_555
N5T N4T 1_555 1_555
N6T Co2A 1_555 1_555
O1T Co1R 1_555 1_555
O2T C1T 1_555 1_555
O3T Li1T 1_555 1_555
O4T C4T 1_555 1_555
O5T C5T 1_555 1_555
O6T C5T 1_555 1_555
O8T Co2A 1_555 1_555
Li1R O2R 1_555 1_555
Li1S O2S 1_555 1_555
Li1T O2T 1_555 1_555
O2I Li1 1_555 1_555
O2J Li1B 1_555 1_555
O2K Li1A 1_555 1_555
O3I Li1 1_555 1_555
O3J Li1B 1_555 1_555
O3K Li1A 1_555 1_555
O9A Co3 1_555 1_555
H1A O9A 1_555 1_555
H2A O9A 1_555 1_555
O9B Co3 1_555 1_555
H1B O9B 1_555 1_555
H2B O9B 1_555 1_555
O9R Co3 1_555 1_555
H1R O9R 1_555 1_555
H2R O9R 1_555 1_555
O9S Co3 1_555 1_555
H1S O9S 1_555 1_555
H2S O9S 1_555 1_555
O9T Co3 1_555 1_555
H1T O9T 1_555 1_555
H2T O9T 1_555 1_555
Co1 O1 1_555 1_555
Co2 N4 1_555 1_555
Co2 O4 1_555 1_555
Co2 O5 1_555 1_555
N2 N3 1_555 1_555
N5 N6 1_555 1_555
O8 Co2T 1_555 1_555
C1A O1A 1_555 1_555
C2A N1A 1_555 1_555
Co2A N4A 1_555 1_555
Co2A O4A 1_555 1_555
Co2A O5A 1_555 1_555
N2A N3A 1_555 1_555
N5A N6A 1_555 1_555
O8A Co2R 1_555 1_555
C1B O1B 1_555 1_555
C2B N1B 1_555 1_555
Co2B N4B 1_555 1_555
Co2B O4B 1_555 1_555
Co2B O5B 1_555 1_555
N2B N3B 1_555 1_555
N5B N6B 1_555 1_555
O8B Co2S 1_555 1_555
C7R N6R 1_555 1_555
C8R O8R 1_555 1_555
Co1R O1R 1_555 1_555
Co2R N3R 1_555 1_555
Co2R N4R 1_555 1_555
Co2R O4R 1_555 1_555
Co2R O5R 1_555 1_555
N2R N3R 1_555 1_555
N5R N6R 1_555 1_555
C1S O1S 1_555 1_555
C2S N1S 1_555 1_555
C7S N6S 1_555 1_555
C8S O8S 1_555 1_555
Co2S N3S 1_555 1_555
Co2S N4S 1_555 1_555
Co2S O4S 1_555 1_555
Co2S O5S 1_555 1_555
N2S N3S 1_555 1_555
N5S N6S 1_555 1_555
C1T O1T 1_555 1_555
C2T N1T 1_555 1_555
C7T N6T 1_555 1_555
C8T O8T 1_555 1_555
Co2T N3T 1_555 1_555
Co2T N4T 1_555 1_555
Co2T O4T 1_555 1_555
Co2T O5T 1_555 1_555
N2T N3T 1_555 1_555
N5T N6T 1_555 1_555

#END
