
#######################################################################
#
#                 Cambridge Crystallographic Data Centre
#                                CCDC 
#
#######################################################################
#
# If this CIF has been generated from an entry in the Cambridge 
# Structural Database, then it will include bibliographic, chemical, 
# crystal, experimental, refinement or atomic coordinate data resulting 
# from the CCDC's data processing and validation procedures.
#
#######################################################################

data_XOLNUH
_symmetry_cell_setting           triclinic
_symmetry_space_group_name_H-M   'P -1'
_symmetry_Int_Tables_number      2
_space_group_name_Hall           '-P 1'
loop_
_symmetry_equiv_pos_site_id
_symmetry_equiv_pos_as_xyz
1 x,y,z
2 -x,-y,-z
_cell_length_a                   12.1617(9)
_cell_length_b                   12.5054(10)
_cell_length_c                   13.1547(10)
_cell_angle_alpha                64.3370(10)
_cell_angle_beta                 85.938(2)
_cell_angle_gamma                69.3010(10)
_cell_volume                     1678.86
loop_
_atom_site_label
_atom_site_type_symbol
_atom_site_fract_x
_atom_site_fract_y
_atom_site_fract_z
Ag1 Ag 0.76862(2) 0.01155(2) 0.27214(2)
S1 S 0.79291(8) -0.02116(8) 0.47571(8)
S2 S 0.60183(7) 0.17172(7) 0.11069(7)
S3 S 0.84236(8) -0.21260(8) 0.27712(8)
S4 S 0.93395(8) 0.10272(10) 0.16311(7)
C1 C 0.6677(4) -0.0605(4) 0.5421(3)
H1 H 0.6835 -0.1493 0.5626
H2 H 0.6609 -0.0503 0.6116
C2 C 0.5502(4) 0.0188(4) 0.4696(3)
H3 H 0.5334 0.1078 0.4490
H4 H 0.5558 0.0083 0.4003
C3 C 0.7651(3) 0.1264(3) 0.4801(3)
C4 C 0.7057(4) 0.2397(4) 0.3899(4)
H5 H 0.6800 0.2409 0.3243
C5 C 0.6841(5) 0.3530(4) 0.3973(5)
H6 H 0.6421 0.4300 0.3370
C6 C 0.7237(5) 0.3522(5) 0.4915(5)
H7 H 0.7104 0.4285 0.4949
C7 C 0.7829(4) 0.2397(5) 0.5814(5)
H8 H 0.8090 0.2393 0.6463
C8 C 0.8040(4) 0.1265(4) 0.5759(4)
H9 H 0.8447 0.0499 0.6371
C9 C 0.5056(3) 0.4382(3) -0.0015(3)
H10 H 0.4277 0.4371 -0.0106
H11 H 0.5474 0.4319 -0.0654
C10 C 0.5724(3) 0.3260(3) 0.1079(3)
H12 H 0.5270 0.3307 0.1705
H13 H 0.6469 0.3330 0.1195
C11 C 0.4635(3) 0.1507(3) 0.1283(3)
C12 C 0.4582(3) 0.0483(4) 0.1161(4)
H14 H 0.5258 -0.0076 0.1037
C13 C 0.3524(4) 0.0288(4) 0.1223(4)
H15 H 0.3493 -0.0404 0.1143
C14 C 0.2526(4) 0.1100(4) 0.1401(4)
H16 H 0.1813 0.0974 0.1425
C15 C 0.2579(3) 0.2108(4) 0.1544(3)
H17 H 0.1901 0.2658 0.1675
C16 C 0.3633(3) 0.2311(3) 0.1493(3)
H18 H 0.3665 0.2987 0.1601
C17 C 0.9632(3) -0.4583(3) 0.4428(3)
H19 H 1.0099 -0.4724 0.3838
H20 H 0.8949 -0.4815 0.4436
C18 C 0.9225(3) -0.3190(3) 0.4170(3)
H21 H 0.9909 -0.2982 0.4223
H22 H 0.8720 -0.3048 0.4738
C19 C 0.7136(3) -0.2521(3) 0.2851(3)
C20 C 0.6804(4) -0.2681(4) 0.1960(3)
H23 H 0.7257 -0.2609 0.1349
C21 C 0.5783(5) -0.2952(4) 0.1987(5)
H24 H 0.5551 -0.3053 0.1386
C22 C 0.5117(5) -0.3073(5) 0.2880(5)
H25 H 0.4439 -0.3259 0.2891
C23 C 0.5458(4) -0.2917(5) 0.3762(5)
H26 H 0.5007 -0.2995 0.4374
C24 C 0.6464(4) -0.2644(4) 0.3751(4)
H27 H 0.6688 -0.2543 0.4355
C25 C 0.9332(5) 0.0446(5) -0.0130(4)
H28 H 0.9087 0.0752 -0.0923
H29 H 0.8859 -0.0044 0.0318
C26 C 0.9104(4) 0.1537(5) 0.0117(3)
H30 H 0.8297 0.2117 -0.0156
H31 H 0.9626 0.1987 -0.0276
C27 C 0.9266(3) 0.2428(4) 0.1720(3)
C28 C 0.9670(3) 0.2274(4) 0.2746(3)
H32 H 0.9925 0.1471 0.3356
C29 C 0.9697(4) 0.3306(5) 0.2875(4)
H33 H 0.9989 0.3185 0.3567
C30 C 0.9305(5) 0.4488(5) 0.2011(5)
H34 H 0.9318 0.5180 0.2104
C31 C 0.8894(5) 0.4644(5) 0.1013(5)
H35 H 0.8626 0.5457 0.0418
C32 C 0.8854(4) 0.3647(5) 0.0834(4)
H36 H 0.8557 0.3787 0.0137
C2A C 0.4498(4) -0.0188(4) 0.5304(3)
C1A C 0.3323(4) 0.0605(4) 0.4579(3)
S1A S 0.20709(8) 0.02116(8) 0.52429(8)
C3A C 0.2349(3) -0.1264(3) 0.5199(3)
C4A C 0.2943(4) -0.2397(4) 0.6101(4)
H5A H 0.3200 -0.2409 0.6757
C5A C 0.3159(5) -0.3530(4) 0.6027(5)
H6A H 0.3579 -0.4300 0.6630
C6A C 0.2763(5) -0.3522(5) 0.5085(5)
H7A H 0.2896 -0.4285 0.5051
C7A C 0.2171(4) -0.2397(5) 0.4186(5)
H8A H 0.1910 -0.2393 0.3537
C8A C 0.1960(4) -0.1265(4) 0.4241(4)
H9A H 0.1553 -0.0499 0.3629
H1A H 0.3165 0.1493 0.4374
H2A H 0.3391 0.0503 0.3884
H3A H 0.4666 -0.1078 0.5510
H4A H 0.4442 -0.0083 0.5997
C9A C 0.4944(3) 0.5618(3) 0.0015(3)
H10A H 0.5723 0.5629 0.0106
H11A H 0.4526 0.5681 0.0654
C10A C 0.4276(3) 0.6740(3) -0.1079(3)
S2A S 0.39817(7) 0.82828(7) -0.11069(7)
C11A C 0.5365(3) 0.8493(3) -0.1283(3)
C12A C 0.5418(3) 0.9517(4) -0.1161(4)
H14A H 0.4742 1.0076 -0.1037
C13A C 0.6476(4) 0.9712(4) -0.1223(4)
H15A H 0.6507 1.0404 -0.1143
C14A C 0.7474(4) 0.8900(4) -0.1401(4)
H16A H 0.8187 0.9026 -0.1425
C15A C 0.7421(3) 0.7892(4) -0.1544(3)
H17A H 0.8099 0.7342 -0.1675
C16A C 0.6367(3) 0.7689(3) -0.1493(3)
H18A H 0.6335 0.7013 -0.1601
H12A H 0.4730 0.6693 -0.1705
H13A H 0.3531 0.6670 -0.1195
C17A C 1.0368(3) -0.5417(3) 0.5572(3)
H19A H 0.9901 -0.5276 0.6162
H20A H 1.1051 -0.5185 0.5564
C18A C 1.0775(3) -0.6810(3) 0.5830(3)
S3A S 1.15764(8) -0.78740(8) 0.72288(8)
C19A C 1.2864(3) -0.7479(3) 0.7149(3)
C20A C 1.3196(4) -0.7319(4) 0.8040(3)
H23A H 1.2743 -0.7391 0.8651
C21A C 1.4217(5) -0.7048(4) 0.8013(5)
H24A H 1.4449 -0.6947 0.8614
C22A C 1.4883(5) -0.6927(5) 0.7120(5)
H25A H 1.5561 -0.6741 0.7109
C23A C 1.4542(4) -0.7083(5) 0.6238(5)
H26A H 1.4993 -0.7005 0.5626
C24A C 1.3536(4) -0.7356(4) 0.6249(4)
H27A H 1.3312 -0.7457 0.5645
H21A H 1.0091 -0.7018 0.5777
H22A H 1.1280 -0.6952 0.5262
C25A C 1.0668(5) -0.0446(5) 0.0130(4)
H28A H 1.0913 -0.0752 0.0923
H29A H 1.1141 0.0044 -0.0318
C26A C 1.0896(4) -0.1537(5) -0.0117(3)
S4A S 1.06605(8) -0.10272(10) -0.16311(7)
C27A C 1.0734(3) -0.2428(4) -0.1720(3)
C28A C 1.0330(3) -0.2274(4) -0.2746(3)
H32A H 1.0075 -0.1471 -0.3356
C29A C 1.0303(4) -0.3306(5) -0.2875(4)
H33A H 1.0011 -0.3185 -0.3567
C30A C 1.0695(5) -0.4488(5) -0.2011(5)
H34A H 1.0682 -0.5180 -0.2104
C31A C 1.1106(5) -0.4644(5) -0.1013(5)
H35A H 1.1374 -0.5457 -0.0418
C32A C 1.1146(4) -0.3647(5) -0.0834(4)
H36A H 1.1443 -0.3787 -0.0137
H30A H 1.1703 -0.2117 0.0156
H31A H 1.0374 -0.1987 0.0276
Ag1A Ag 0.23138(2) -0.01155(2) 0.72786(2)
Ag1A_2 Ag 0.23138(2) 0.98845(2) -0.27214(2)
Ag1A_3 Ag 1.23138(2) -1.01155(2) 0.72786(2)
Ag1A_4 Ag 1.23138(2) -0.01155(2) -0.27214(2)
S2A_2 S 0.39817(7) -0.17172(7) 0.88931(7)
S3A_2 S 0.15764(8) 0.21260(8) 0.72288(8)
S4A_2 S 0.06605(8) -0.10272(10) 0.83689(7)
Cl1 Cl 0.27150(10) 0.49138(11) 0.27284(9)
O1 O 0.2118(9) 0.5901(9) 0.2914(10)
O2 O 0.3905(6) 0.4354(12) 0.3067(7)
O3 O 0.2244(7) 0.3985(6) 0.3371(6)
O4 O 0.2605(6) 0.5095(5) 0.1633(4)
loop_
_geom_bond_atom_site_label_1
_geom_bond_atom_site_label_2
_geom_bond_site_symmetry_1
_geom_bond_site_symmetry_2
Ag1 S1 1_555 1_555
S1 C1 1_555 1_555
S2 Ag1 1_555 1_555
S3 Ag1 1_555 1_555
S4 Ag1 1_555 1_555
C1 H1 1_555 1_555
H2 C1 1_555 1_555
C2 C1 1_555 1_555
H3 C2 1_555 1_555
H4 C2 1_555 1_555
C3 S1 1_555 1_555
C4 C3 1_555 1_555
H5 C4 1_555 1_555
C5 C4 1_555 1_555
H6 C5 1_555 1_555
C6 C5 1_555 1_555
H7 C6 1_555 1_555
C7 C6 1_555 1_555
H8 C7 1_555 1_555
C8 C3 1_555 1_555
H9 C8 1_555 1_555
C9 H10 1_555 1_555
H11 C9 1_555 1_555
C10 S2 1_555 1_555
H12 C10 1_555 1_555
H13 C10 1_555 1_555
C11 S2 1_555 1_555
C12 C11 1_555 1_555
H14 C12 1_555 1_555
C13 C12 1_555 1_555
H15 C13 1_555 1_555
C14 C13 1_555 1_555
H16 C14 1_555 1_555
C15 C14 1_555 1_555
H17 C15 1_555 1_555
C16 C11 1_555 1_555
H18 C16 1_555 1_555
C17 H19 1_555 1_555
H20 C17 1_555 1_555
C18 S3 1_555 1_555
H21 C18 1_555 1_555
H22 C18 1_555 1_555
C19 S3 1_555 1_555
C20 C19 1_555 1_555
H23 C20 1_555 1_555
C21 C20 1_555 1_555
H24 C21 1_555 1_555
C22 C21 1_555 1_555
H25 C22 1_555 1_555
C23 C22 1_555 1_555
H26 C23 1_555 1_555
C24 C19 1_555 1_555
H27 C24 1_555 1_555
C25 H28 1_555 1_555
H29 C25 1_555 1_555
C26 S4 1_555 1_555
H30 C26 1_555 1_555
H31 C26 1_555 1_555
C27 S4 1_555 1_555
C28 C27 1_555 1_555
H32 C28 1_555 1_555
C29 C28 1_555 1_555
H33 C29 1_555 1_555
C30 C29 1_555 1_555
H34 C30 1_555 1_555
C31 C30 1_555 1_555
H35 C31 1_555 1_555
C32 C27 1_555 1_555
H36 C32 1_555 1_555
Cl1 O1 1_555 1_555
O2 Cl1 1_555 1_555
O3 Cl1 1_555 1_555
O4 Cl1 1_555 1_555
C2A C2 1_555 1_555
C1A C2A 1_555 1_555
S1A C1A 1_555 1_555
C3A S1A 1_555 1_555
C4A C3A 1_555 1_555
H5A C4A 1_555 1_555
C5A C4A 1_555 1_555
H6A C5A 1_555 1_555
C6A C5A 1_555 1_555
H7A C6A 1_555 1_555
C7A C6A 1_555 1_555
H8A C7A 1_555 1_555
C8A C3A 1_555 1_555
H9A C8A 1_555 1_555
H1A C1A 1_555 1_555
H2A C1A 1_555 1_555
H3A C2A 1_555 1_555
H4A C2A 1_555 1_555
C9A C9 1_555 1_555
H10A C9A 1_555 1_555
H11A C9A 1_555 1_555
C10A C9A 1_555 1_555
S2A C10A 1_555 1_555
C11A S2A 1_555 1_555
C12A C11A 1_555 1_555
H14A C12A 1_555 1_555
C13A C12A 1_555 1_555
H15A C13A 1_555 1_555
C14A C13A 1_555 1_555
H16A C14A 1_555 1_555
C15A C14A 1_555 1_555
H17A C15A 1_555 1_555
C16A C11A 1_555 1_555
H18A C16A 1_555 1_555
H12A C10A 1_555 1_555
H13A C10A 1_555 1_555
C17A C17 1_555 1_555
H19A C17A 1_555 1_555
H20A C17A 1_555 1_555
C18A C17A 1_555 1_555
S3A C18A 1_555 1_555
C19A S3A 1_555 1_555
C20A C19A 1_555 1_555
H23A C20A 1_555 1_555
C21A C20A 1_555 1_555
H24A C21A 1_555 1_555
C22A C21A 1_555 1_555
H25A C22A 1_555 1_555
C23A C22A 1_555 1_555
H26A C23A 1_555 1_555
C24A C19A 1_555 1_555
H27A C24A 1_555 1_555
H21A C18A 1_555 1_555
H22A C18A 1_555 1_555
C25A C25 1_555 1_555
H28A C25A 1_555 1_555
H29A C25A 1_555 1_555
C26A C25A 1_555 1_555
S4A C26A 1_555 1_555
C27A S4A 1_555 1_555
C28A C27A 1_555 1_555
H32A C28A 1_555 1_555
C29A C28A 1_555 1_555
H33A C29A 1_555 1_555
C30A C29A 1_555 1_555
H34A C30A 1_555 1_555
C31A C30A 1_555 1_555
H35A C31A 1_555 1_555
C32A C27A 1_555 1_555
H36A C32A 1_555 1_555
H30A C26A 1_555 1_555
H31A C26A 1_555 1_555
Ag1A S1A 1_555 1_555
Ag1A_2 S2A 1_555 1_555
Ag1A_3 S3A 1_555 1_555
Ag1A_4 S4A 1_555 1_555
S2A_2 Ag1A 1_555 1_555
S3A_2 Ag1A 1_555 1_555
S4A_2 Ag1A 1_555 1_555
C7 C8 1_555 1_555
C9 C10 1_555 1_555
C15 C16 1_555 1_555
C17 C18 1_555 1_555
C23 C24 1_555 1_555
C25 C26 1_555 1_555
C31 C32 1_555 1_555
C7A C8A 1_555 1_555
C15A C16A 1_555 1_555
C23A C24A 1_555 1_555
C31A C32A 1_555 1_555

#END
