
#######################################################################
#
#                 Cambridge Crystallographic Data Centre
#                                CCDC 
#
#######################################################################
#
# If this CIF has been generated from an entry in the Cambridge 
# Structural Database, then it will include bibliographic, chemical, 
# crystal, experimental, refinement or atomic coordinate data resulting 
# from the CCDC's data processing and validation procedures.
#
#######################################################################

data_XOLNIV
_symmetry_cell_setting           triclinic
_symmetry_space_group_name_H-M   'P -1'
_symmetry_Int_Tables_number      2
_space_group_name_Hall           '-P 1'
loop_
_symmetry_equiv_pos_site_id
_symmetry_equiv_pos_as_xyz
1 x,y,z
2 -x,-y,-z
_cell_length_a                   11.0253(9)
_cell_length_b                   11.3455(9)
_cell_length_c                   11.5231(9)
_cell_angle_alpha                93.931(2)
_cell_angle_beta                 92.689(2)
_cell_angle_gamma                112.9810(10)
_cell_volume                     1319.61
loop_
_atom_site_label
_atom_site_type_symbol
_atom_site_fract_x
_atom_site_fract_y
_atom_site_fract_z
Ag1 Ag 0.42446(2) 0.61644(2) 0.059221(17)
S1 S 0.40790(6) 0.45070(6) 0.20395(5)
S2 S 0.27964(6) 0.48827(6) -0.11713(5)
S3 S 0.64910(7) 0.79381(6) 0.08027(6)
C1 C 0.4685(3) 0.5425(2) 0.3457(2)
H1 H 0.5585 0.6039 0.3414
H2 H 0.4148 0.5906 0.3638
C2 C 0.4661(3) 0.4587(2) 0.4436(2)
H3 H 0.5107 0.4027 0.4220
H4 H 0.3752 0.4051 0.4556
C3 C 0.2423(2) 0.3491(2) 0.2259(2)
C4 C 0.2093(3) 0.2184(3) 0.2155(3)
H5 H 0.2730 0.1862 0.1990
C5 C 0.0808(4) 0.1348(3) 0.2298(4)
H6 H 0.0577 0.0464 0.2207
C6 C -0.0113(3) 0.1822(4) 0.2571(4)
H7 H -0.0972 0.1263 0.2674
C7 C 0.0225(3) 0.3120(4) 0.2692(3)
H8 H -0.0408 0.3437 0.2885
C8 C 0.1492(3) 0.3970(3) 0.2534(3)
H9 H 0.1711 0.4853 0.2612
C9 C 0.1105(2) 0.4266(3) -0.0753(2)
H10 H 0.0510 0.3865 -0.1444
H11 H 0.0998 0.3607 -0.0226
C10 C 0.0717(2) 0.5286(3) -0.0167(2)
H12 H 0.0815 0.5945 -0.0691
H13 H 0.1304 0.5687 0.0529
C11 C 0.2735(2) 0.5768(2) -0.2383(2)
C12 C 0.3508(3) 0.7063(3) -0.2349(3)
H14 H 0.4024 0.7498 -0.1670
C13 C 0.3521(4) 0.7723(4) -0.3320(3)
H15 H 0.4045 0.8597 -0.3291
C14 C 0.2767(4) 0.7092(5) -0.4319(3)
H16 H 0.2769 0.7539 -0.4966
C15 C 0.2012(4) 0.5808(5) -0.4370(3)
H17 H 0.1504 0.5385 -0.5056
C16 C 0.1989(3) 0.5115(3) -0.3400(2)
H18 H 0.1483 0.4235 -0.3441
C17 C 0.6345(3) 0.9341(3) 0.0218(3)
H19 H 0.7069 1.0105 0.0580
H20 H 0.6460 0.9292 -0.0611
C18 C 0.5089(3) 0.9514(3) 0.0375(3)
H21 H 0.5074 0.9788 0.1188
H22 H 0.4352 0.8692 0.0187
C19 C 0.6967(3) 0.8392(2) 0.2329(2)
C20 C 0.8143(3) 0.8351(3) 0.2758(3)
H23 H 0.8669 0.8123 0.2258
C21 C 0.8530(4) 0.8656(3) 0.3944(4)
H24 H 0.9311 0.8620 0.4247
C22 C 0.7738(5) 0.9013(4) 0.4669(3)
H25 H 0.7997 0.9229 0.5461
C23 C 0.6590(4) 0.9050(3) 0.4235(3)
H26 H 0.6074 0.9299 0.4732
C24 C 0.6177(3) 0.8725(3) 0.3070(3)
H27 H 0.5376 0.8730 0.2784
Cl1 Cl 0.22728(7) 0.82091(8) 0.24435(7)
O1 O 0.1756(3) 0.8442(3) 0.1378(3)
O2 O 0.3253(3) 0.9352(3) 0.3006(3)
O3 O 0.2869(3) 0.7317(3) 0.2194(3)
O4 O 0.1229(3) 0.7663(4) 0.3144(3)
C2A C 0.5339(3) 0.5413(2) 0.5564(2)
C1A C 0.5315(3) 0.4575(2) 0.6543(2)
S1A S 0.59210(6) 0.54930(6) 0.79605(5)
C3A C 0.7577(2) 0.6509(2) 0.7741(2)
C4A C 0.7907(3) 0.7816(3) 0.7845(3)
H5A H 0.7270 0.8138 0.8010
C5A C 0.9192(4) 0.8652(3) 0.7702(4)
H6A H 0.9423 0.9536 0.7793
C6A C 1.0113(3) 0.8178(4) 0.7429(4)
H7A H 1.0972 0.8737 0.7326
C7A C 0.9775(3) 0.6880(4) 0.7308(3)
H8A H 1.0408 0.6563 0.7115
C8A C 0.8508(3) 0.6030(3) 0.7466(3)
H9A H 0.8289 0.5147 0.7388
H1A H 0.4415 0.3961 0.6586
H2A H 0.5852 0.4094 0.6362
H3A H 0.4893 0.5973 0.5780
H4A H 0.6248 0.5949 0.5444
C10A C -0.0717(2) 0.4714(3) 0.0167(2)
C9A C -0.1105(2) 0.5734(3) 0.0753(2)
S2A S -0.27964(6) 0.51173(6) 0.11713(5)
C11A C -0.2735(2) 0.4232(2) 0.2383(2)
C12A C -0.3508(3) 0.2937(3) 0.2349(3)
H14A H -0.4024 0.2502 0.1670
C13A C -0.3521(4) 0.2277(4) 0.3320(3)
H15A H -0.4045 0.1403 0.3291
C14A C -0.2767(4) 0.2908(5) 0.4319(3)
H16A H -0.2769 0.2461 0.4966
C15A C -0.2012(4) 0.4192(5) 0.4370(3)
H17A H -0.1504 0.4615 0.5056
C16A C -0.1989(3) 0.4885(3) 0.3400(2)
H18A H -0.1483 0.5765 0.3441
H10A H -0.0510 0.6135 0.1444
H11A H -0.0998 0.6393 0.0226
H12A H -0.0815 0.4055 0.0691
H13A H -0.1304 0.4313 -0.0529
C18A C 0.4911(3) 1.0486(3) -0.0375(3)
C17A C 0.3655(3) 1.0659(3) -0.0218(3)
S3A S 0.35090(7) 1.20619(6) -0.08027(6)
C19A C 0.3033(3) 1.1608(2) -0.2329(2)
C20A C 0.1857(3) 1.1649(3) -0.2758(3)
H23A H 0.1331 1.1877 -0.2258
C21A C 0.1470(4) 1.1344(3) -0.3944(4)
H24A H 0.0689 1.1380 -0.4247
C22A C 0.2262(5) 1.0987(4) -0.4669(3)
H25A H 0.2003 1.0771 -0.5461
C23A C 0.3410(4) 1.0950(3) -0.4235(3)
H26A H 0.3926 1.0701 -0.4732
C24A C 0.3823(3) 1.1275(3) -0.3070(3)
H27A H 0.4624 1.1270 -0.2784
H19A H 0.2931 0.9895 -0.0580
H20A H 0.3540 1.0708 0.0611
H21A H 0.4926 1.0212 -0.1188
H22A H 0.5648 1.1308 -0.0187
Ag1A Ag 0.57554(2) 0.38356(2) 0.940779(17)
Cl1A Cl 0.77272(7) 0.17909(8) 0.75565(7)
O1A O 0.8244(3) 0.1558(3) 0.8622(3)
O2A O 0.6747(3) 0.0648(3) 0.6994(3)
O3A O 0.7131(3) 0.2683(3) 0.7806(3)
O4A O 0.8771(3) 0.2337(4) 0.6856(3)
Ag1A_2 Ag -0.42446(2) 0.38356(2) -0.059221(17)
Ag1A_3 Ag 0.57554(2) 1.38356(2) -0.059221(17)
S2A_2 S 0.72036(6) 0.51173(6) 1.11713(5)
S3A_2 S 0.35090(7) 0.20619(6) 0.91973(6)
loop_
_geom_bond_atom_site_label_1
_geom_bond_atom_site_label_2
_geom_bond_site_symmetry_1
_geom_bond_site_symmetry_2
Ag1 S1 1_555 1_555
S1 C1 1_555 1_555
S2 Ag1 1_555 1_555
S3 Ag1 1_555 1_555
C1 H1 1_555 1_555
H2 C1 1_555 1_555
C2 C1 1_555 1_555
H3 C2 1_555 1_555
H4 C2 1_555 1_555
C3 S1 1_555 1_555
C4 C3 1_555 1_555
H5 C4 1_555 1_555
C5 C4 1_555 1_555
H6 C5 1_555 1_555
C6 C5 1_555 1_555
H7 C6 1_555 1_555
C7 C6 1_555 1_555
H8 C7 1_555 1_555
C8 C3 1_555 1_555
H9 C8 1_555 1_555
C9 S2 1_555 1_555
H10 C9 1_555 1_555
H11 C9 1_555 1_555
C10 C9 1_555 1_555
H12 C10 1_555 1_555
H13 C10 1_555 1_555
C11 S2 1_555 1_555
C12 C11 1_555 1_555
H14 C12 1_555 1_555
C13 C12 1_555 1_555
H15 C13 1_555 1_555
C14 C13 1_555 1_555
H16 C14 1_555 1_555
C15 C14 1_555 1_555
H17 C15 1_555 1_555
C16 C11 1_555 1_555
H18 C16 1_555 1_555
C17 S3 1_555 1_555
H19 C17 1_555 1_555
H20 C17 1_555 1_555
C18 C17 1_555 1_555
H21 C18 1_555 1_555
H22 C18 1_555 1_555
C19 S3 1_555 1_555
C20 C19 1_555 1_555
H23 C20 1_555 1_555
C21 C20 1_555 1_555
H24 C21 1_555 1_555
C22 C21 1_555 1_555
H25 C22 1_555 1_555
C23 C22 1_555 1_555
H26 C23 1_555 1_555
C24 C19 1_555 1_555
H27 C24 1_555 1_555
Cl1 O1 1_555 1_555
O2 Cl1 1_555 1_555
O3 Ag1 1_555 1_555
O4 Cl1 1_555 1_555
C2A C2 1_555 1_555
C1A C2A 1_555 1_555
S1A C1A 1_555 1_555
C3A S1A 1_555 1_555
C4A C3A 1_555 1_555
H5A C4A 1_555 1_555
C5A C4A 1_555 1_555
H6A C5A 1_555 1_555
C6A C5A 1_555 1_555
H7A C6A 1_555 1_555
C7A C6A 1_555 1_555
H8A C7A 1_555 1_555
C8A C3A 1_555 1_555
H9A C8A 1_555 1_555
H1A C1A 1_555 1_555
H2A C1A 1_555 1_555
H3A C2A 1_555 1_555
H4A C2A 1_555 1_555
C10A C10 1_555 1_555
C9A C10A 1_555 1_555
S2A C9A 1_555 1_555
C11A S2A 1_555 1_555
C12A C11A 1_555 1_555
H14A C12A 1_555 1_555
C13A C12A 1_555 1_555
H15A C13A 1_555 1_555
C14A C13A 1_555 1_555
H16A C14A 1_555 1_555
C15A C14A 1_555 1_555
H17A C15A 1_555 1_555
C16A C11A 1_555 1_555
H18A C16A 1_555 1_555
H10A C9A 1_555 1_555
H11A C9A 1_555 1_555
H12A C10A 1_555 1_555
H13A C10A 1_555 1_555
C18A C18 1_555 1_555
C17A C18A 1_555 1_555
S3A C17A 1_555 1_555
C19A S3A 1_555 1_555
C20A C19A 1_555 1_555
H23A C20A 1_555 1_555
C21A C20A 1_555 1_555
H24A C21A 1_555 1_555
C22A C21A 1_555 1_555
H25A C22A 1_555 1_555
C23A C22A 1_555 1_555
H26A C23A 1_555 1_555
C24A C19A 1_555 1_555
H27A C24A 1_555 1_555
H19A C17A 1_555 1_555
H20A C17A 1_555 1_555
H21A C18A 1_555 1_555
H22A C18A 1_555 1_555
Ag1A S1A 1_555 1_555
Cl1A O1A 1_555 1_555
O2A Cl1A 1_555 1_555
O3A Ag1A 1_555 1_555
O4A Cl1A 1_555 1_555
Ag1A_2 S2A 1_555 1_555
Ag1A_3 S3A 1_555 1_555
S2A_2 Ag1A 1_555 1_555
S3A_2 Ag1A 1_555 1_555
C7 C8 1_555 1_555
C15 C16 1_555 1_555
C23 C24 1_555 1_555
Cl1 O3 1_555 1_555
C7A C8A 1_555 1_555
C15A C16A 1_555 1_555
C23A C24A 1_555 1_555
Cl1A O3A 1_555 1_555

#END
