
#######################################################################
#
#                 Cambridge Crystallographic Data Centre
#                                CCDC 
#
#######################################################################
#
# If this CIF has been generated from an entry in the Cambridge 
# Structural Database, then it will include bibliographic, chemical, 
# crystal, experimental, refinement or atomic coordinate data resulting 
# from the CCDC's data processing and validation procedures.
#
#######################################################################

data_XOLQUK
_symmetry_cell_setting           monoclinic
_symmetry_space_group_name_H-M   'P 21/n'
_symmetry_Int_Tables_number      14
_space_group_name_Hall           '-P 2yn'
loop_
_symmetry_equiv_pos_site_id
_symmetry_equiv_pos_as_xyz
1 x,y,z
2 1/2+x,1/2-y,1/2+z
3 -x,-y,-z
4 1/2-x,1/2+y,1/2-z
_cell_length_a                   13.0722(3)
_cell_length_b                   13.2501(3)
_cell_length_c                   18.3831(4)
_cell_angle_alpha                90
_cell_angle_beta                 107.1365(9)
_cell_angle_gamma                90
_cell_volume                     3042.74
loop_
_atom_site_label
_atom_site_type_symbol
_atom_site_fract_x
_atom_site_fract_y
_atom_site_fract_z
Zn1 Zn 0.94398(2) 0.21634(2) 0.193697(17)
S1 S 0.80850(6) 0.36327(5) 0.16248(4)
S2 S 1.01767(6) 0.24379(6) 0.33851(4)
O1 O 1.04665(15) 0.29200(14) 0.15569(10)
O2 O 1.44058(16) 0.59039(15) 0.26489(11)
N1 N 0.81098(17) 0.14119(16) 0.22390(12)
N2 N 0.88638(17) 0.11711(16) 0.09833(12)
N3 N 0.9729(2) 0.18983(19) 0.01897(14)
C1 C 0.6849(4) 0.4429(3) 0.0239(3)
C2 C 0.7593(4) 0.3578(3) 0.0589(2)
C3 C 0.7041(2) 0.3006(2) 0.19182(19)
C4 C 0.7059(2) 0.1868(2) 0.18336(19)
C5 C 1.0307(4) 0.4270(4) 0.4135(3)
C6 C 0.9510(3) 0.3500(3) 0.3699(2)
C7 C 0.9410(3) 0.1366(3) 0.35610(18)
C8 C 0.8253(3) 0.1370(3) 0.30702(17)
C9 C 0.8164(3) 0.0390(2) 0.19297(18)
C10 C 0.8239(2) 0.04246(19) 0.11283(16)
C11 C 0.7748(2) -0.0285(2) 0.06062(18)
C12 C 0.7896(3) -0.0236(2) -0.01162(18)
C13 C 0.8534(3) 0.0485(2) -0.02743(17)
C14 C 0.9050(2) 0.11934(19) 0.02922(15)
C15 C 1.0172(3) 0.1973(3) -0.04499(17)
C16 C 0.9714(3) 0.2830(2) -0.10056(18)
C17 C 0.8503(4) 0.2698(4) -0.1338(3)
C18 C 1.0240(6) 0.2766(5) -0.1642(3)
C19 C 0.9976(5) 0.3830(3) -0.0603(3)
C20 C 1.3553(2) 0.5813(2) 0.28066(17)
C21 C 1.2773(2) 0.5051(2) 0.24960(15)
C22 C 1.2913(2) 0.4339(2) 0.19708(17)
C23 C 1.2144(3) 0.3643(2) 0.16621(18)
C24 C 1.1189(2) 0.3619(2) 0.18619(14)
C25 C 1.1035(2) 0.4334(2) 0.23740(16)
C26 C 1.1812(2) 0.5038(2) 0.26889(16)
H1 H 0.617(4) 0.448(3) 0.044(2)
H2 H 0.727(3) 0.508(3) 0.040(2)
H3 H 0.675(3) 0.437(3) -0.030(2)
H4 H 0.820(3) 0.371(3) 0.041(2)
H5 H 0.726(3) 0.296(3) 0.042(2)
H6 H 0.638(2) 0.326(2) 0.1631(16)
H7 H 0.718(2) 0.320(2) 0.2467(18)
H8 H 0.999(2) 0.223(2) 0.0525(16)
H9 H 0.691(2) 0.172(2) 0.1322(16)
H10 H 0.651(2) 0.154(2) 0.2040(16)
H11 H 1.081(3) 0.393(3) 0.456(2)
H12 H 0.993(3) 0.494(3) 0.425(2)
H13 H 1.092(4) 0.446(4) 0.388(3)
H14 H 0.896(2) 0.380(2) 0.3236(16)
H15 H 0.908(3) 0.319(2) 0.3994(19)
H16 H 0.947(2) 0.1365(19) 0.4117(16)
H17 H 0.973(2) 0.080(2) 0.3469(17)
H18 H 0.786(2) 0.082(2) 0.3191(15)
H19 H 0.793(2) 0.191(2) 0.3180(15)
H20 H 0.876(2) 0.008(2) 0.2248(15)
H21 H 0.755(2) 0.007(2) 0.1925(16)
H22 H 0.735(3) -0.077(3) 0.0760(18)
H23 H 0.756(2) -0.068(2) -0.0489(17)
H24 H 0.866(2) 0.052(2) -0.0734(17)
H25 H 1.002(2) 0.130(2) -0.0733(16)
H26 H 1.093(3) 0.212(2) -0.0227(18)
H27 H 0.810(4) 0.268(3) -0.096(3)
H28 H 0.830(4) 0.202(4) -0.167(3)
H29 H 0.820(4) 0.324(4) -0.171(3)
H30 H 1.011(4) 0.214(3) -0.184(2)
H31 H 1.003(3) 0.328(3) -0.199(3)
H32 H 1.096(4) 0.284(3) -0.144(2)
H33 H 0.971(4) 0.390(3) -0.016(3)
H34 H 0.975(4) 0.436(4) -0.091(3)
H35 H 1.075(4) 0.390(3) -0.035(2)
H36 H 1.037(2) 0.438(2) 0.2446(16)
H37 H 1.170(3) 0.554(3) 0.304(2)
H38 H 1.362(2) 0.432(2) 0.1847(16)
H39 H 1.224(3) 0.316(3) 0.1315(19)
H40 H 1.334(2) 0.632(2) 0.3174(15)
O2C O 1.05942(16) 0.09039(15) 0.23511(11)
Zn1C Zn 1.55602(2) 0.71634(2) 0.306303(17)
Cl1 Cl 0.41609(6) 0.26472(6) 0.06310(4)
O3 O 0.3984(3) 0.2041(2) 0.12107(17)
O4 O 0.3223(2) 0.2685(2) -0.00047(15)
O5 O 0.5024(2) 0.2246(2) 0.03938(15)
O6 O 0.4439(2) 0.36395(19) 0.09147(16)
loop_
_geom_bond_atom_site_label_1
_geom_bond_atom_site_label_2
_geom_bond_site_symmetry_1
_geom_bond_site_symmetry_2
Zn1 S1 1_555 1_555
Cl1 O3 1_555 1_555
S1 C2 1_555 1_555
S2 Zn1 1_555 1_555
O1 Zn1 1_555 1_555
O2 C20 1_555 1_555
O4 Cl1 1_555 1_555
O5 Cl1 1_555 1_555
O6 Cl1 1_555 1_555
N1 Zn1 1_555 1_555
N2 Zn1 1_555 1_555
N3 C14 1_555 1_555
C1 C2 1_555 1_555
C2 H4 1_555 1_555
C3 S1 1_555 1_555
C4 N1 1_555 1_555
C5 C6 1_555 1_555
C6 S2 1_555 1_555
C7 S2 1_555 1_555
C8 N1 1_555 1_555
C9 N1 1_555 1_555
C10 N2 1_555 1_555
C11 C10 1_555 1_555
C12 C11 1_555 1_555
C13 C12 1_555 1_555
C14 N2 1_555 1_555
C15 N3 1_555 1_555
C16 C15 1_555 1_555
C17 C16 1_555 1_555
C18 C16 1_555 1_555
C19 C16 1_555 1_555
C20 C21 1_555 1_555
C21 C22 1_555 1_555
C22 C23 1_555 1_555
C23 C24 1_555 1_555
C24 O1 1_555 1_555
C25 C24 1_555 1_555
C26 C21 1_555 1_555
H1 C1 1_555 1_555
H2 C1 1_555 1_555
H3 C1 1_555 1_555
H5 C2 1_555 1_555
H6 C3 1_555 1_555
H7 C3 1_555 1_555
H8 N3 1_555 1_555
H9 C4 1_555 1_555
H10 C4 1_555 1_555
H11 C5 1_555 1_555
H12 C5 1_555 1_555
H13 C5 1_555 1_555
H14 C6 1_555 1_555
H15 C6 1_555 1_555
H16 C7 1_555 1_555
H17 C7 1_555 1_555
H18 C8 1_555 1_555
H19 C8 1_555 1_555
H20 C9 1_555 1_555
H21 C9 1_555 1_555
H22 C11 1_555 1_555
H23 C12 1_555 1_555
H24 C13 1_555 1_555
H25 C15 1_555 1_555
H26 C15 1_555 1_555
H27 C17 1_555 1_555
H28 C17 1_555 1_555
H29 C17 1_555 1_555
H30 C18 1_555 1_555
H31 C18 1_555 1_555
H32 C18 1_555 1_555
H33 C19 1_555 1_555
H34 C19 1_555 1_555
H35 C19 1_555 1_555
H36 C25 1_555 1_555
H37 C26 1_555 1_555
H38 C22 1_555 1_555
H39 C23 1_555 1_555
H40 C20 1_555 1_555
O2C Zn1 1_555 1_555
Zn1C O2 1_555 1_555
C3 C4 1_555 1_555
C7 C8 1_555 1_555
C9 C10 1_555 1_555
C13 C14 1_555 1_555
C25 C26 1_555 1_555

#END
