
#######################################################################
#
#                 Cambridge Crystallographic Data Centre
#                                CCDC 
#
#######################################################################
#
# If this CIF has been generated from an entry in the Cambridge 
# Structural Database, then it will include bibliographic, chemical, 
# crystal, experimental, refinement or atomic coordinate data resulting 
# from the CCDC's data processing and validation procedures.
#
#######################################################################

data_XOLROG
_symmetry_cell_setting           monoclinic
_symmetry_space_group_name_H-M   'P 21/n'
_symmetry_Int_Tables_number      14
_space_group_name_Hall           '-P 2yn'
loop_
_symmetry_equiv_pos_site_id
_symmetry_equiv_pos_as_xyz
1 x,y,z
2 1/2-x,1/2+y,1/2-z
3 -x,-y,-z
4 1/2+x,1/2-y,1/2+z
_cell_length_a                   13.339(3)
_cell_length_b                   7.519(2)
_cell_length_c                   20.096(4)
_cell_angle_alpha                90
_cell_angle_beta                 99.96(3)
_cell_angle_gamma                90
_cell_volume                     1985.17
loop_
_atom_site_label
_atom_site_type_symbol
_atom_site_fract_x
_atom_site_fract_y
_atom_site_fract_z
Cu1 Cu 0.66653(5) 0.76811(9) 1.08044(3)
Cu2 Cu 0.5000 0.5000 1.0000
Cu3 Cu 0.5000 1.0000 1.0000
O1 O 0.8242(3) -0.0036(6) 0.9218(2)
O2 O 0.9966(4) -0.0146(6) 0.7458(2)
O3 O 0.7893(3) 0.4498(6) 0.7702(2)
O4 O 1.0951(3) -0.4626(5) 0.8736(2)
O5 O 1.2310(4) -0.2941(7) 0.9057(4)
O6 O 0.9823(4) 0.4526(9) 0.5910(2)
O7 O 1.1148(3) 0.5949(6) 0.6513(2)
O8 O 0.7355(3) 0.6544(5) 1.0125(2)
O9 O 0.6146(3) 0.4776(5) 0.9559(2)
O10 O 0.5250(4) 0.7536(5) 1.0256(3)
O11 O 0.7911(4) 0.7346(5) 1.1487(2)
O12 O 0.6896(3) 1.0224(5) 1.0251(2)
O13 O 0.6046(4) 0.4708(8) 1.1142(3)
N1 N 0.8055(3) 0.2261(5) 0.8468(2)
N2 N 0.9140(3) -0.0111(6) 0.8358(2)
N3 N 0.8942(3) 0.2208(6) 0.7565(2)
C1 C 0.8470(4) 0.0661(7) 0.8717(3)
C2 C 0.9382(4) 0.0595(7) 0.7766(3)
C3 C 0.8270(4) 0.3082(7) 0.7897(3)
C4 C 0.9618(4) -0.1819(7) 0.8586(3)
H1 H 0.9624 -0.2584 0.8198
H2 H 0.9219 -0.2401 0.8883
C5 C 1.0705(4) -0.1563(7) 0.8959(3)
H3 H 1.1003 -0.0541 0.8772
H4 H 1.0692 -0.1320 0.9431
C6 C 1.1365(4) -0.3176(8) 0.8908(3)
C7 C 0.9172(4) 0.2985(8) 0.6937(3)
H5 H 0.8604 0.3710 0.6726
H6 H 0.9270 0.2042 0.6625
C8 C 1.0131(5) 0.4125(10) 0.7084(3)
H7 H 1.0034 0.5053 0.7402
H8 H 1.0698 0.3392 0.7291
C9 C 1.0380(4) 0.4962(8) 0.6452(3)
C10 C 0.7307(4) 0.3133(7) 0.8817(3)
H9 H 0.7007 0.2253 0.9076
H10 H 0.6767 0.3630 0.8484
C11 C 0.7779(4) 0.4597(8) 0.9285(3)
H11 H 0.8361 0.4124 0.9590
H12 H 0.8020 0.5532 0.9020
C12 C 0.7036(4) 0.5377(7) 0.9694(3)
Cu1B Cu 0.33347(5) 0.23189(9) 0.91956(3)
Cu1A Cu -0.16653(5) 0.26811(9) 1.41956(3)
Cu1C Cu 1.16653(5) 0.73189(9) 0.58044(3)
Cu3_2 Cu 0.5000 0.0000 1.0000
Cu3A Cu 0.0000 0.5000 1.5000
Cu3A_2 Cu 1.0000 0.5000 0.5000
O1B O 0.1758(3) 1.0036(6) 1.0782(2)
O2B O 0.0034(4) 1.0146(6) 1.2542(2)
O3B O 0.2107(3) 0.5502(6) 1.2298(2)
O4B O -0.0951(3) 1.4626(5) 1.1264(2)
O5B O -0.2310(4) 1.2941(7) 1.0943(4)
O6B O 0.0177(4) 0.5474(9) 1.4090(2)
O6A O 0.5177(4) 0.9526(9) 0.9090(2)
O6C O 0.4823(4) 1.0474(9) 1.0910(2)
O7B O -0.1148(3) 0.4051(6) 1.3487(2)
O7A O 0.3852(3) 0.0949(6) 0.8487(2)
O7C O 0.6148(3) 0.9051(6) 1.1513(2)
O8B O 0.2645(3) 0.3456(5) 0.9875(2)
O9B O 0.3854(3) 0.5224(5) 1.0441(2)
O10B O 0.4750(4) 0.2464(5) 0.9744(3)
O10B_2 O 0.4750(4) 1.2464(5) 0.9744(3)
O11B O 0.2089(4) 0.2654(5) 0.8513(2)
O12B O 0.3104(3) -0.0224(5) 0.9749(2)
O12B_2 O 0.3104(3) 0.9776(5) 0.9749(2)
O13B O 0.3954(4) 0.5292(8) 0.8858(3)
N1B N 0.1945(3) 0.7739(5) 1.1532(2)
N2B N 0.0860(3) 1.0111(6) 1.1642(2)
N3B N 0.1058(3) 0.7792(6) 1.2435(2)
C1B C 0.1530(4) 0.9339(7) 1.1283(3)
C2B C 0.0618(4) 0.9405(7) 1.2234(3)
C3B C 0.1730(4) 0.6918(7) 1.2103(3)
C4B C 0.0382(4) 1.1819(7) 1.1414(3)
H1B H 0.0376 1.2584 1.1802
H2B H 0.0781 1.2401 1.1117
C5B C -0.0705(4) 1.1563(7) 1.1041(3)
H3B H -0.1003 1.0541 1.1228
H4B H -0.0692 1.1320 1.0569
C6B C -0.1365(4) 1.3176(8) 1.1092(3)
C7B C 0.0828(4) 0.7015(8) 1.3063(3)
H5B H 0.1396 0.6290 1.3274
H6B H 0.0730 0.7958 1.3375
C8B C -0.0131(5) 0.5875(10) 1.2916(3)
H7B H -0.0034 0.4947 1.2598
H8B H -0.0698 0.6608 1.2709
C9B C -0.0380(4) 0.5038(8) 1.3548(3)
C10B C 0.2693(4) 0.6867(7) 1.1183(3)
H9B H 0.2993 0.7747 1.0924
H10B H 0.3233 0.6370 1.1516
C11B C 0.2221(4) 0.5403(8) 1.0715(3)
H11B H 0.1639 0.5876 1.0410
H12B H 0.1980 0.4468 1.0980
C12B C 0.2964(4) 0.4623(7) 1.0306(3)
O14 O 0.7234(5) 0.5959(10) 1.2574(3)
O15 O 0.9778(6) -0.2734(9) 1.0407(4)
loop_
_geom_bond_atom_site_label_1
_geom_bond_atom_site_label_2
_geom_bond_site_symmetry_1
_geom_bond_site_symmetry_2
Cu1 O8 1_555 1_555
Cu2 O9 1_555 1_555
Cu3 O10 1_555 1_555
O1 C1 1_555 1_555
O2 C2 1_555 1_555
O3 C3 1_555 1_555
O4 C6 1_555 1_555
O5 C6 1_555 1_555
O6 C9 1_555 1_555
O7 C9 1_555 1_555
O8 C12 1_555 1_555
O9 C12 1_555 1_555
O10 Cu1 1_555 1_555
O11 Cu1 1_555 1_555
O12 Cu1 1_555 1_555
O13 Cu1 1_555 1_555
N1 C1 1_555 1_555
N2 C1 1_555 1_555
N3 C2 1_555 1_555
C2 N2 1_555 1_555
C3 N1 1_555 1_555
C4 N2 1_555 1_555
H1 C4 1_555 1_555
H2 C4 1_555 1_555
C5 C4 1_555 1_555
H3 C5 1_555 1_555
H4 C5 1_555 1_555
C6 C5 1_555 1_555
C7 N3 1_555 1_555
H5 C7 1_555 1_555
H6 C7 1_555 1_555
C8 C7 1_555 1_555
H7 C8 1_555 1_555
H8 C8 1_555 1_555
C9 C8 1_555 1_555
C10 N1 1_555 1_555
H9 C10 1_555 1_555
H10 C10 1_555 1_555
C11 C10 1_555 1_555
H11 C11 1_555 1_555
H12 C11 1_555 1_555
C12 C11 1_555 1_555
Cu1B O7A 1_555 1_555
Cu1A O7B 1_555 1_555
Cu1C O7 1_555 1_555
Cu3_2 O10B 1_555 1_555
Cu3A O6B 1_555 1_555
Cu3A_2 O6 1_555 1_555
O1B C1B 1_555 1_555
O2B C2B 1_555 1_555
O3B C3B 1_555 1_555
O4B C6B 1_555 1_555
O5B C6B 1_555 1_555
O6B C9B 1_555 1_555
O6A Cu3 1_555 1_555
O6C Cu3 1_555 1_555
O7B C9B 1_555 1_555
O7C Cu1 1_555 1_555
O8B Cu1B 1_555 1_555
O9B Cu2 1_555 1_555
O10B Cu2 1_555 1_555
O10B_2 Cu3 1_555 1_555
O11B Cu1B 1_555 1_555
O12B Cu1B 1_555 1_555
O12B_2 Cu3 1_555 1_555
O13B Cu2 1_555 1_555
N1B C1B 1_555 1_555
N2B C1B 1_555 1_555
N3B C2B 1_555 1_555
C2B N2B 1_555 1_555
C3B N1B 1_555 1_555
C4B N2B 1_555 1_555
H1B C4B 1_555 1_555
H2B C4B 1_555 1_555
C5B C4B 1_555 1_555
H3B C5B 1_555 1_555
H4B C5B 1_555 1_555
C6B C5B 1_555 1_555
C7B N3B 1_555 1_555
H5B C7B 1_555 1_555
H6B C7B 1_555 1_555
C8B C7B 1_555 1_555
H7B C8B 1_555 1_555
H8B C8B 1_555 1_555
C9B C8B 1_555 1_555
C10B N1B 1_555 1_555
H9B C10B 1_555 1_555
H10B C10B 1_555 1_555
C11B C10B 1_555 1_555
H11B C11B 1_555 1_555
H12B C11B 1_555 1_555
C12B O8B 1_555 1_555
Cu2 O10 1_555 1_555
Cu2 O13 1_555 1_555
Cu3 O12 1_555 1_555
N3 C3 1_555 1_555
Cu1B O10B 1_555 1_555
Cu1B O13B 1_555 1_555
Cu3_2 O12B 1_555 1_555
O9B C12B 1_555 1_555
N3B C3B 1_555 1_555
C11B C12B 1_555 1_555

#END
