
#######################################################################
#
#                 Cambridge Crystallographic Data Centre
#                                CCDC 
#
#######################################################################
#
# If this CIF has been generated from an entry in the Cambridge 
# Structural Database, then it will include bibliographic, chemical, 
# crystal, experimental, refinement or atomic coordinate data resulting 
# from the CCDC's data processing and validation procedures.
#
#######################################################################

data_XOLTAT
_symmetry_cell_setting           monoclinic
_symmetry_space_group_name_H-M   'P 21'
_symmetry_Int_Tables_number      4
_space_group_name_Hall           'P 2yb'
loop_
_symmetry_equiv_pos_site_id
_symmetry_equiv_pos_as_xyz
1 x,y,z
2 -x,1/2+y,-z
_cell_length_a                   19.216(4)
_cell_length_b                   16.339(3)
_cell_length_c                   20.751(5)
_cell_angle_alpha                90
_cell_angle_beta                 114.05(2)
_cell_angle_gamma                90
_cell_volume                     5949.61
loop_
_atom_site_label
_atom_site_type_symbol
_atom_site_fract_x
_atom_site_fract_y
_atom_site_fract_z
Ag1 Ag -0.02516(8) 0.23093(8) 0.16803(8)
Ag2 Ag -0.64264(7) 0.02133(8) -0.12300(7)
Ag3 Ag -1.16350(8) -0.35735(12) -0.42032(8)
Ag4 Ag -1.43417(8) -0.74298(9) -0.13368(7)
Ag5 Ag -0.80948(6) 0.99730(8) 0.14219(8)
Ag6 Ag -0.31712(8) 0.64729(15) 0.41290(9)
Si1 Si 0.0233(3) 0.5418(3) 0.4071(3)
Si2 Si -0.3095(3) -0.0336(3) 0.1776(3)
Si3 Si 0.0109(3) 0.1875(4) -0.1488(3)
Si4 Si -0.8172(2) -0.2411(3) -0.4100(2)
Si5 Si -1.49851(19) -0.4743(3) -0.40747(19)
Si6 Si -1.1904(2) 0.9202(3) -0.0736(3)
Si7 Si -0.5205(2) 1.2614(3) 0.1597(2)
Si8 Si -0.6909(2) 0.6539(3) 0.3617(2)
N1 N -0.0064(7) 0.3411(8) 0.2350(6)
N2 N -0.2136(7) 0.6072(10) 0.4056(7)
N3 N -0.1208(7) 0.1434(9) 0.1697(6)
N4 N -0.5355(6) 0.0034(8) -0.0258(7)
N5 N -0.0071(8) 0.2199(8) 0.0676(7)
N6 N 0.2481(8) 0.0853(8) -0.1270(7)
N7 N -0.6962(7) -0.0706(9) -0.2124(7)
N8 N -1.0551(7) -0.3203(9) -0.4176(7)
N9 N -1.4562(7) -0.6538(8) -0.2209(6)
N10 N -1.2695(7) -0.3997(10) -0.4183(8)
N11 N -1.3470(6) 1.1512(8) -0.1134(6)
N12 N -0.9346(7) 0.9750(8) 0.0692(8)
N13 N -0.4664(7) 1.2531(8) -0.0398(7)
N14 N -0.7244(7) 1.0896(8) 0.1403(7)
N15 N -0.7762(7) 0.8816(8) 0.2124(7)
N16 N -0.4310(7) 0.6450(10) 0.4066(8)
C1 C -0.0586(9) 0.3974(11) 0.2265(9)
H1 H -0.1022 0.3976 0.1847
C2 C -0.0517(8) 0.4564(11) 0.2770(9)
H2 H -0.0911 0.4937 0.2684
C3 C 0.0125(8) 0.4609(10) 0.3397(8)
C4 C 0.0674(9) 0.4045(11) 0.3455(10)
H3 H 0.1128 0.4044 0.3857
C5 C 0.0566(11) 0.3473(11) 0.2927(10)
H4 H 0.0962 0.3114 0.2985
C6 C 0.0866(10) 0.5053(18) 0.4948(11)
H5 H 0.1355 0.4920 0.4952
H6 H 0.0650 0.4574 0.5063
H7 H 0.0926 0.5473 0.5290
C7 C 0.0637(13) 0.6324(16) 0.3831(14)
H8 H 0.1128 0.6191 0.3839
H9 H 0.0692 0.6755 0.4162
H10 H 0.0305 0.6500 0.3365
C8 C -0.0728(9) 0.5695(10) 0.4043(9)
C9 C -0.1024(11) 0.5229(12) 0.4418(12)
H11 H -0.0758 0.4779 0.4675
C10 C -0.1763(11) 0.5447(13) 0.4407(11)
H12 H -0.1969 0.5131 0.4659
C11 C -0.1825(10) 0.6494(15) 0.3707(9)
H13 H -0.2096 0.6938 0.3443
C12 C -0.1150(10) 0.6333(13) 0.3702(10)
H14 H -0.0965 0.6678 0.3451
C13 C -0.1060(9) 0.0672(10) 0.1960(8)
H15 H -0.0553 0.0506 0.2154
C14 C -0.1592(8) 0.0118(10) 0.1967(8)
H16 H -0.1461 -0.0417 0.2119
C15 C -0.2340(8) 0.0402(10) 0.1734(8)
C16 C -0.2484(9) 0.1174(11) 0.1504(9)
H17 H -0.2979 0.1372 0.1353
C17 C -0.1927(9) 0.1684(9) 0.1482(8)
H18 H -0.2054 0.2215 0.1314
C18 C -0.2798(12) -0.1410(11) 0.1773(13)
H19 H -0.2344 -0.1514 0.2190
H20 H -0.2698 -0.1507 0.1362
H21 H -0.3197 -0.1769 0.1766
C19 C -0.3271(14) -0.0078(17) 0.2579(11)
H22 H -0.2815 -0.0174 0.2996
H23 H -0.3674 -0.0416 0.2592
H24 H -0.3413 0.0487 0.2562
C20 C -0.3984(7) -0.0155(8) 0.0961(8)
C21 C -0.4707(8) -0.0385(10) 0.0952(9)
H25 H -0.4747 -0.0591 0.1353
C22 C -0.5340(9) -0.0288(10) 0.0330(9)
H26 H -0.5802 -0.0467 0.0323
C23 C -0.4683(9) 0.0241(11) -0.0250(9)
H27 H -0.4673 0.0452 -0.0662
C24 C -0.4010(8) 0.0164(11) 0.0320(8)
H28 H -0.3560 0.0324 0.0287
C25 C -0.0621(10) 0.2369(14) 0.0073(9)
H29 H -0.1081 0.2549 0.0072
C26 C -0.0565(10) 0.2300(14) -0.0574(9)
H30 H -0.0976 0.2448 -0.0987
C27 C 0.0080(8) 0.2020(10) -0.0611(8)
C28 C 0.0685(9) 0.1851(10) 0.0036(9)
H31 H 0.1150 0.1673 0.0047
C29 C 0.0590(8) 0.1949(8) 0.0664(9)
H32 H 0.1000 0.1839 0.1089
C30 C -0.0152(15) 0.2840(18) -0.1980(13)
H33 H -0.0142 0.2769 -0.2435
H34 H 0.0204 0.3259 -0.1725
H35 H -0.0656 0.2998 -0.2038
C31 C -0.0578(11) 0.101(2) -0.1916(11)
H36 H -0.0599 0.0913 -0.2379
H37 H -0.1076 0.1160 -0.1951
H38 H -0.0409 0.0527 -0.1635
C32 C 0.1076(9) 0.1506(11) -0.1392(7)
C33 C 0.1481(9) 0.1868(11) -0.1712(10)
H39 H 0.1297 0.2335 -0.1984
C34 C 0.2182(9) 0.1532(13) -0.1629(10)
H40 H 0.2459 0.1805 -0.1841
C35 C 0.2089(11) 0.0513(10) -0.0954(10)
H41 H 0.2279 0.0042 -0.0690
C36 C 0.1407(11) 0.0822(12) -0.0996(10)
H42 H 0.1160 0.0562 -0.0749
C37 C -0.6812(9) -0.0679(11) -0.2689(9)
H43 H -0.6437 -0.0314 -0.2681
C38 C -0.7164(8) -0.1147(10) -0.3297(8)
H44 H -0.7033 -0.1082 -0.3679
C39 C -0.7715(7) -0.1714(9) -0.3320(7)
C40 C -0.7881(9) -0.1748(12) -0.2735(9)
H45 H -0.8246 -0.2116 -0.2727
C41 C -0.7515(10) -0.1249(11) -0.2162(9)
H46 H -0.7653 -0.1283 -0.1783
C42 C -0.8269(8) -0.1842(10) -0.4907(7)
H47 H -0.8594 -0.1376 -0.4966
H48 H -0.8488 -0.2194 -0.5311
H49 H -0.7776 -0.1662 -0.4863
C43 C -0.7548(10) -0.3309(10) -0.3935(10)
H50 H -0.7759 -0.3684 -0.4323
H51 H -0.7509 -0.3575 -0.3509
H52 H -0.7051 -0.3139 -0.3886
C44 C -0.9139(7) -0.2745(9) -0.4147(7)
C45 C -0.9789(7) -0.2365(11) -0.4588(8)
H53 H -0.9764 -0.1949 -0.4884
C46 C -1.0484(8) -0.2596(12) -0.4598(9)
H54 H -1.0922 -0.2328 -0.4902
C47 C -0.9926(11) -0.3577(12) -0.3755(9)
H55 H -0.9963 -0.4000 -0.3471
C48 C -0.9204(8) -0.3361(11) -0.3717(8)
H56 H -0.8772 -0.3630 -0.3405
C49 C -1.5159(11) -0.6594(12) -0.2809(9)
H57 H -1.5515 -0.7002 -0.2857
C50 C -1.5287(11) -0.6094(13) -0.3360(8)
H58 H -1.5730 -0.6154 -0.3769
C51 C -1.4762(7) -0.5483(9) -0.3325(7)
C52 C -1.4154(8) -0.5438(11) -0.2711(8)
H59 H -1.3773 -0.5058 -0.2656
C53 C -1.4082(9) -0.5952(10) -0.2153(7)
H60 H -1.3672 -0.5875 -0.1721
C54 C -1.5588(9) -0.5281(11) -0.4897(7)
H61 H -1.5314 -0.5739 -0.4966
H62 H -1.5718 -0.4912 -0.5289
H63 H -1.6045 -0.5470 -0.4864
C55 C -1.5430(10) -0.3840(12) -0.3877(10)
H64 H -1.5084 -0.3598 -0.3443
H65 H -1.5889 -0.4000 -0.3833
H66 H -1.5550 -0.3449 -0.4253
C56 C -1.4055(8) -0.4457(10) -0.4110(7)
C57 C -1.3747(9) -0.3670(12) -0.3890(10)
H67 H -1.3978 -0.3299 -0.3698
C58 C -1.3091(11) -0.3476(13) -0.3971(10)
H68 H -1.2911 -0.2943 -0.3870
C59 C -1.2975(8) -0.4725(12) -0.4360(8)
H69 H -1.2707 -0.5093 -0.4516
C60 C -1.3631(8) -0.4983(9) -0.4334(8)
H70 H -1.3800 -0.5515 -0.4467
C61 C -1.2796(10) 1.1481(13) -0.0599(9)
H71 H -1.2652 1.1928 -0.0296
C62 C -1.2282(11) 1.0833(11) -0.0452(11)
H72 H -1.1816 1.0846 -0.0062
C63 C -1.2485(8) 1.0177(9) -0.0900(9)
C64 C -1.3174(7) 1.0237(10) -0.1489(7)
H73 H -1.3312 0.9827 -0.1829
C65 C -1.3642(8) 1.0877(10) -0.1576(8)
H74 H -1.4110 1.0876 -0.1963
C66 C -1.2265(10) 0.8495(14) -0.0208(15)
H75 H -1.2191 0.8751 0.0231
H76 H -1.1988 0.7988 -0.0117
H77 H -1.2798 0.8388 -0.0473
C67 C -1.1988(11) 0.8801(12) -0.1586(10)
H78 H -1.1697 0.8305 -0.1513
H79 H -1.1797 0.9198 -0.1815
H80 H -1.2513 0.8688 -0.1878
C68 C -1.0876(7) 0.9452(9) -0.0165(8)
C69 C -1.0324(9) 0.9342(11) -0.0398(9)
H81 H -1.0461 0.9168 -0.0861
C70 C -0.9563(9) 0.9475(12) 0.0018(11)
H82 H -0.9199 0.9377 -0.0161
C71 C -0.9881(10) 0.9853(12) 0.0940(10)
H83 H -0.9745 1.0025 0.1402
C72 C -1.0643(8) 0.9704(12) 0.0505(11)
H84 H -1.1007 0.9783 0.0688
C73 C -0.5388(10) 1.2428(11) -0.0479(8)
H85 H -0.5768 1.2347 -0.0928
C74 C -0.5577(9) 1.2441(11) 0.0105(7)
H86 H -0.6085 1.2392 0.0033
C75 C -0.5036(7) 1.2525(9) 0.0775(7)
C76 C -0.4292(8) 1.2629(11) 0.0826(7)
H87 H -0.3896 1.2703 0.1267
C77 C -0.4133(10) 1.2624(12) 0.0232(9)
H88 H -0.3631 1.2690 0.0286
C78 C -0.5416(10) 1.3708(10) 0.1706(10)
H89 H -0.5858 1.3880 0.1302
H90 H -0.4988 1.4041 0.1747
H91 H -0.5510 1.3766 0.2123
C79 C -0.4384(8) 1.2242(12) 0.2350(8)
H92 H -0.3950 1.2579 0.2418
H93 H -0.4279 1.1687 0.2266
H94 H -0.4488 1.2263 0.2764
C80 C -0.6028(7) 1.1938(7) 0.1495(6)
C81 C -0.6245(10) 1.1272(10) 0.1065(8)
H95 H -0.5983 1.1145 0.0787
C82 C -0.6853(10) 1.0773(11) 0.1028(9)
H96 H -0.6983 1.0330 0.0720
C83 C -0.7059(8) 1.1563(10) 0.1837(8)
H97 H -0.7340 1.1676 0.2101
C84 C -0.6459(7) 1.2078(9) 0.1895(8)
H98 H -0.6341 1.2522 0.2202
C85 C -0.7577(9) 0.8143(9) 0.1908(8)
H99 H -0.7596 0.8120 0.1453
C86 C -0.7345(9) 0.7440(10) 0.2342(7)
H100 H -0.7245 0.6958 0.2157
C87 C -0.7265(8) 0.7452(9) 0.3018(8)
C88 C -0.7476(9) 0.8180(11) 0.3244(8)
H101 H -0.7457 0.8218 0.3698
C89 C -0.7712(11) 0.8843(11) 0.2795(10)
H102 H -0.7842 0.9325 0.2957
C90 C -0.7364(9) 0.5566(10) 0.3157(11)
H103 H -0.7898 0.5575 0.3056
H104 H -0.7128 0.5108 0.3457
H105 H -0.7298 0.5518 0.2725
C91 C -0.7049(10) 0.6725(14) 0.4440(9)
H106 H -0.7584 0.6751 0.4331
H107 H -0.6813 0.7234 0.4647
H108 H -0.6822 0.6288 0.4767
C92 C -0.5898(8) 0.6489(9) 0.3790(7)
C93 C -0.5585(9) 0.5844(10) 0.3529(8)
H109 H -0.5888 0.5418 0.3264
C94 C -0.4804(11) 0.5875(12) 0.3686(10)
H110 H -0.4609 0.5453 0.3508
C95 C -0.4620(9) 0.7027(14) 0.4314(10)
H111 H -0.4308 0.7451 0.4573
C96 C -0.5367(10) 0.7038(11) 0.4214(9)
H112 H -0.5525 0.7437 0.4444
N6_2 N -0.7519(8) 0.0853(8) -0.1270(7)
N11_2 N -1.3470(6) -0.8488(8) -0.1134(6)
N13_2 N -1.4664(7) -0.7469(8) -0.0398(7)
Ag2_2 Ag 0.35736(7) 0.02133(8) -0.12300(7)
Ag4_2 Ag -1.43417(8) 1.25702(9) -0.13368(7)
Ag4_3 Ag -0.43417(8) 1.25702(9) -0.13368(7)
N17 N 0.7593(8) 0.3661(8) 0.0007(9)
O3 O 0.7882(12) 0.3994(15) -0.0311(11)
O4 O 0.7954(12) 0.3328(11) 0.0538(8)
O5 O 0.6935(11) 0.3747(16) -0.0247(15)
N18 N 0.5739(15) 0.3563(14) 0.4185(12)
O2 O 0.5467(12) 0.3794(14) 0.3605(11)
O6 O 0.5315(17) 0.3290(14) 0.4444(13)
O7 O 0.6408(13) 0.3575(19) 0.4551(11)
N19 N 0.4099(12) 0.1396(12) -0.2171(9)
O1 O 0.4495(11) 0.088(2) -0.1813(13)
O8 O 0.3519(12) 0.1402(18) -0.2113(13)
O9 O 0.4373(19) 0.1774(16) -0.2387(16)
N20 N 0.1271(8) 0.1251(12) 0.2461(7)
O10 O 0.1500(11) 0.1935(11) 0.2371(10)
O11 O 0.0724(8) 0.1226(16) 0.2561(9)
O12 O 0.1689(12) 0.0712(10) 0.2452(10)
N21 N 0.742(3) 0.825(3) 0.496(2)
O13 O 0.7409(12) 0.903(2) 0.5055(17)
O14 O 0.705(2) 0.797(2) 0.441(3)
O15 O 0.768(2) 0.804(3) 0.548(3)
N22 N -0.0504(16) -0.132(2) -0.6556(16)
O16 O -0.0973(15) -0.1691(15) -0.6940(15)
O17 O -0.022(2) -0.069(3) -0.677(3)
O18 O -0.0054(18) -0.121(2) -0.6037(13)
O19 O 0.3765(10) 0.3762(13) 0.3087(9)
O20 O 0.1177(10) 0.9743(12) 0.3738(10)
loop_
_geom_bond_atom_site_label_1
_geom_bond_atom_site_label_2
_geom_bond_site_symmetry_1
_geom_bond_site_symmetry_2
Ag1 N1 1_555 1_555
Ag2 N4 1_555 1_555
Ag3 N8 1_555 1_555
Ag4 N9 1_555 1_555
Ag5 N12 1_555 1_555
Ag6 N2 1_555 1_555
Si1 C3 1_555 1_555
Si2 C15 1_555 1_555
Si3 C27 1_555 1_555
Si4 C39 1_555 1_555
Si5 C51 1_555 1_555
Si6 C63 1_555 1_555
Si7 C75 1_555 1_555
Si8 C87 1_555 1_555
N1 C1 1_555 1_555
N2 C10 1_555 1_555
N3 Ag1 1_555 1_555
N4 C22 1_555 1_555
N5 Ag1 1_555 1_555
N6 C34 1_555 1_555
N7 Ag2 1_555 1_555
N8 C46 1_555 1_555
N9 C49 1_555 1_555
N10 Ag3 1_555 1_555
N11 C61 1_555 1_555
N12 C70 1_555 1_555
N13 C73 1_555 1_555
N14 Ag5 1_555 1_555
N15 Ag5 1_555 1_555
N16 Ag6 1_555 1_555
C1 H1 1_555 1_555
C2 C1 1_555 1_555
H2 C2 1_555 1_555
C3 C2 1_555 1_555
C4 C3 1_555 1_555
H3 C4 1_555 1_555
C5 N1 1_555 1_555
H4 C5 1_555 1_555
C6 Si1 1_555 1_555
H5 C6 1_555 1_555
H6 C6 1_555 1_555
H7 C6 1_555 1_555
C7 Si1 1_555 1_555
H8 C7 1_555 1_555
H9 C7 1_555 1_555
H10 C7 1_555 1_555
C8 Si1 1_555 1_555
C9 C8 1_555 1_555
H11 C9 1_555 1_555
C10 C9 1_555 1_555
H12 C10 1_555 1_555
C11 N2 1_555 1_555
H13 C11 1_555 1_555
C12 C8 1_555 1_555
H14 C12 1_555 1_555
C13 N3 1_555 1_555
H15 C13 1_555 1_555
C14 C13 1_555 1_555
H16 C14 1_555 1_555
C15 C14 1_555 1_555
C16 C15 1_555 1_555
H17 C16 1_555 1_555
C17 N3 1_555 1_555
H18 C17 1_555 1_555
C18 Si2 1_555 1_555
H19 C18 1_555 1_555
H20 C18 1_555 1_555
H21 C18 1_555 1_555
C19 Si2 1_555 1_555
H22 C19 1_555 1_555
H23 C19 1_555 1_555
H24 C19 1_555 1_555
C20 Si2 1_555 1_555
C21 C20 1_555 1_555
H25 C21 1_555 1_555
C22 C21 1_555 1_555
H26 C22 1_555 1_555
C23 N4 1_555 1_555
H27 C23 1_555 1_555
C24 C20 1_555 1_555
H28 C24 1_555 1_555
C25 N5 1_555 1_555
H29 C25 1_555 1_555
C26 C25 1_555 1_555
H30 C26 1_555 1_555
C27 C26 1_555 1_555
C28 C27 1_555 1_555
H31 C28 1_555 1_555
C29 N5 1_555 1_555
H32 C29 1_555 1_555
C30 Si3 1_555 1_555
H33 C30 1_555 1_555
H34 C30 1_555 1_555
H35 C30 1_555 1_555
C31 Si3 1_555 1_555
H36 C31 1_555 1_555
H37 C31 1_555 1_555
H38 C31 1_555 1_555
C32 Si3 1_555 1_555
C33 C32 1_555 1_555
H39 C33 1_555 1_555
C34 C33 1_555 1_555
H40 C34 1_555 1_555
C35 N6 1_555 1_555
H41 C35 1_555 1_555
C36 C32 1_555 1_555
H42 C36 1_555 1_555
C37 N7 1_555 1_555
H43 C37 1_555 1_555
C38 C37 1_555 1_555
H44 C38 1_555 1_555
C39 C38 1_555 1_555
C40 C39 1_555 1_555
H45 C40 1_555 1_555
C41 N7 1_555 1_555
H46 C41 1_555 1_555
C42 Si4 1_555 1_555
H47 C42 1_555 1_555
H48 C42 1_555 1_555
H49 C42 1_555 1_555
C43 Si4 1_555 1_555
H50 C43 1_555 1_555
H51 C43 1_555 1_555
H52 C43 1_555 1_555
C44 Si4 1_555 1_555
C45 C44 1_555 1_555
H53 C45 1_555 1_555
C46 C45 1_555 1_555
H54 C46 1_555 1_555
C47 N8 1_555 1_555
H55 C47 1_555 1_555
C48 C44 1_555 1_555
H56 C48 1_555 1_555
C49 H57 1_555 1_555
C50 C49 1_555 1_555
H58 C50 1_555 1_555
C51 C50 1_555 1_555
C52 C51 1_555 1_555
H59 C52 1_555 1_555
C53 N9 1_555 1_555
H60 C53 1_555 1_555
C54 Si5 1_555 1_555
H61 C54 1_555 1_555
H62 C54 1_555 1_555
H63 C54 1_555 1_555
C55 Si5 1_555 1_555
H64 C55 1_555 1_555
H65 C55 1_555 1_555
H66 C55 1_555 1_555
C56 Si5 1_555 1_555
C57 C56 1_555 1_555
H67 C57 1_555 1_555
C58 N10 1_555 1_555
H68 C58 1_555 1_555
C59 N10 1_555 1_555
H69 C59 1_555 1_555
C60 C56 1_555 1_555
H70 C60 1_555 1_555
C61 H71 1_555 1_555
C62 C61 1_555 1_555
H72 C62 1_555 1_555
C63 C62 1_555 1_555
C64 C63 1_555 1_555
H73 C64 1_555 1_555
C65 N11 1_555 1_555
H74 C65 1_555 1_555
C66 Si6 1_555 1_555
H75 C66 1_555 1_555
H76 C66 1_555 1_555
H77 C66 1_555 1_555
C67 Si6 1_555 1_555
H78 C67 1_555 1_555
H79 C67 1_555 1_555
H80 C67 1_555 1_555
C68 Si6 1_555 1_555
C69 C68 1_555 1_555
H81 C69 1_555 1_555
C70 C69 1_555 1_555
H82 C70 1_555 1_555
C71 N12 1_555 1_555
H83 C71 1_555 1_555
C72 C68 1_555 1_555
H84 C72 1_555 1_555
C73 H85 1_555 1_555
C74 C73 1_555 1_555
H86 C74 1_555 1_555
C75 C74 1_555 1_555
C76 C75 1_555 1_555
H87 C76 1_555 1_555
C77 N13 1_555 1_555
H88 C77 1_555 1_555
C78 Si7 1_555 1_555
H89 C78 1_555 1_555
H90 C78 1_555 1_555
H91 C78 1_555 1_555
C79 Si7 1_555 1_555
H92 C79 1_555 1_555
H93 C79 1_555 1_555
H94 C79 1_555 1_555
C80 Si7 1_555 1_555
C81 C80 1_555 1_555
H95 C81 1_555 1_555
C82 N14 1_555 1_555
H96 C82 1_555 1_555
C83 N14 1_555 1_555
H97 C83 1_555 1_555
C84 C80 1_555 1_555
H98 C84 1_555 1_555
C85 N15 1_555 1_555
H99 C85 1_555 1_555
C86 C85 1_555 1_555
H100 C86 1_555 1_555
C87 C86 1_555 1_555
C88 C87 1_555 1_555
H101 C88 1_555 1_555
C89 N15 1_555 1_555
H102 C89 1_555 1_555
C90 Si8 1_555 1_555
H103 C90 1_555 1_555
H104 C90 1_555 1_555
H105 C90 1_555 1_555
C91 Si8 1_555 1_555
H106 C91 1_555 1_555
H107 C91 1_555 1_555
H108 C91 1_555 1_555
C92 Si8 1_555 1_555
C93 C92 1_555 1_555
H109 C93 1_555 1_555
C94 N16 1_555 1_555
H110 C94 1_555 1_555
C95 N16 1_555 1_555
H111 C95 1_555 1_555
C96 C92 1_555 1_555
H112 C96 1_555 1_555
N17 O3 1_555 1_555
N18 O2 1_555 1_555
N19 O1 1_555 1_555
O4 N17 1_555 1_555
O5 N17 1_555 1_555
O6 N18 1_555 1_555
O7 N18 1_555 1_555
O8 N19 1_555 1_555
O9 N19 1_555 1_555
N20 O10 1_555 1_555
O11 N20 1_555 1_555
O12 N20 1_555 1_555
N21 O13 1_555 1_555
O14 N21 1_555 1_555
O15 N21 1_555 1_555
N22 O16 1_555 1_555
O17 N22 1_555 1_555
O18 N22 1_555 1_555
N6_2 Ag2 1_555 1_555
N11_2 Ag4 1_555 1_555
N13_2 Ag4 1_555 1_555
Ag2_2 N6 1_555 1_555
Ag4_2 N11 1_555 1_555
Ag4_3 N13 1_555 1_555
C4 C5 1_555 1_555
C11 C12 1_555 1_555
C16 C17 1_555 1_555
C23 C24 1_555 1_555
C28 C29 1_555 1_555
C35 C36 1_555 1_555
C40 C41 1_555 1_555
C47 C48 1_555 1_555
C52 C53 1_555 1_555
C57 C58 1_555 1_555
C59 C60 1_555 1_555
C64 C65 1_555 1_555
C71 C72 1_555 1_555
C76 C77 1_555 1_555
C81 C82 1_555 1_555
C83 C84 1_555 1_555
C88 C89 1_555 1_555
C93 C94 1_555 1_555
C95 C96 1_555 1_555

#END
