
#######################################################################
#
#                 Cambridge Crystallographic Data Centre
#                                CCDC 
#
#######################################################################
#
# If this CIF has been generated from an entry in the Cambridge 
# Structural Database, then it will include bibliographic, chemical, 
# crystal, experimental, refinement or atomic coordinate data resulting 
# from the CCDC's data processing and validation procedures.
#
#######################################################################

data_XOLTEZ
_symmetry_cell_setting           monoclinic
_symmetry_space_group_name_H-M   'P 21/n'
_symmetry_Int_Tables_number      14
_space_group_name_Hall           '-P 2yn'
loop_
_symmetry_equiv_pos_site_id
_symmetry_equiv_pos_as_xyz
1 x,y,z
2 1/2-x,1/2+y,1/2-z
3 -x,-y,-z
4 1/2+x,1/2-y,1/2+z
_cell_length_a                   8.1453(2)
_cell_length_b                   8.9831(2)
_cell_length_c                   11.3897(4)
_cell_angle_alpha                90
_cell_angle_beta                 104.0950(10)
_cell_angle_gamma                90
_cell_volume                     808.294
loop_
_atom_site_label
_atom_site_type_symbol
_atom_site_fract_x
_atom_site_fract_y
_atom_site_fract_z
U1 U 0.73005(2) 0.31547(2) 1.596290(18)
Cs1 Cs -0.12236(4) 0.08127(4) 1.31542(3)
O1 O 0.6353(5) 0.4913(4) 1.5987(4)
O2 O 0.8323(5) 0.1418(4) 1.5960(4)
O3 O 0.9978(5) 0.4493(4) 1.6472(3)
O4 O 1.1765(5) 0.5975(4) 1.5801(3)
O5 O 0.5453(5) 0.2300(4) 1.4068(4)
O6 O 0.4702(5) 0.2187(4) 1.6155(4)
O7 O 0.2788(5) 0.1799(4) 1.3073(4)
O8 O 0.1929(5) 0.1952(4) 1.5284(4)
C1 C 1.0483(7) 0.5128(6) 1.5654(5)
C2 C 0.3923(7) 0.2052(6) 1.4017(5)
C3 C 0.3412(7) 0.2054(6) 1.5241(5)
O3B O 1.0022(5) 0.5507(4) 1.3528(3)
C1B C 0.9517(7) 0.4872(6) 1.4346(5)
O4B O 0.8235(5) 0.4025(4) 1.4199(3)
U1B U -0.73005(2) -0.31547(2) 1.403710(18)
Cs1B Cs 0.12236(4) -0.08127(4) 1.68458(3)
O1B O -0.6353(5) -0.4913(4) 1.4013(4)
O2B O -0.8323(5) -0.1418(4) 1.4040(4)
O5B O -0.5453(5) -0.2300(4) 1.5932(4)
O6B O -0.4702(5) -0.2187(4) 1.3845(4)
O7B O -0.2788(5) -0.1799(4) 1.6927(4)
O8B O -0.1929(5) -0.1952(4) 1.4716(4)
C2B C -0.3923(7) -0.2052(6) 1.5983(5)
C3B C -0.3412(7) -0.2054(6) 1.4759(5)
U1A U -0.23005(2) -0.18453(2) 1.903710(18)
U1B_2 U 1.26995(2) 0.68453(2) 1.403710(18)
U1C U 0.23005(2) 0.18453(2) 1.096290(18)
Cs1_2 Cs -1.12236(4) 0.08127(4) 1.31542(3)
Cs1_3 Cs 0.87764(4) 0.08127(4) 1.31542(3)
Cs1A Cs -0.37764(4) -0.41873(4) 1.18458(3)
Cs1A_2 Cs 0.62236(4) 0.58127(4) 1.18458(3)
Cs1B_2 Cs -0.87764(4) -0.08127(4) 1.68458(3)
Cs1B_3 Cs 1.12236(4) -0.08127(4) 1.68458(3)
Cs1B_4 Cs 1.12236(4) 0.91873(4) 1.68458(3)
Cs1C Cs 0.37764(4) 0.41873(4) 1.81542(3)
Cs1C_2 Cs 1.37764(4) 0.41873(4) 1.81542(3)
O1A O -0.1353(5) -0.0087(4) 1.9013(4)
O1C O 0.1353(5) 0.0087(4) 1.0987(4)
O2_2 O -0.1677(5) 0.1418(4) 1.5960(4)
O2B_2 O 0.1677(5) -0.1418(4) 1.4040(4)
O3A O 0.5022(5) -0.0507(4) 1.8528(3)
O3B_2 O -0.9978(5) -0.4493(4) 1.3528(3)
O3C O -0.5022(5) 0.0507(4) 1.1472(3)
O4_2 O -0.8235(5) -0.4025(4) 1.5801(3)
O4_3 O 0.1765(5) -0.4025(4) 1.5801(3)
O4A O 0.3235(5) 0.0975(4) 1.9199(3)
O4B_2 O -0.1765(5) 0.4025(4) 1.4199(3)
O4C O -0.3235(5) -0.0975(4) 1.0801(3)
O5_2 O -0.4547(5) 0.2300(4) 1.4068(4)
O5B_2 O 0.4547(5) -0.2300(4) 1.5932(4)
O6A O 0.0298(5) -0.2813(4) 1.8845(4)
O6C O -0.0298(5) 0.2813(4) 1.1155(4)
O7A O -0.7788(5) -0.3201(4) 1.1927(4)
O7C O 0.7788(5) 0.3201(4) 1.8073(4)
loop_
_geom_bond_atom_site_label_1
_geom_bond_atom_site_label_2
_geom_bond_site_symmetry_1
_geom_bond_site_symmetry_2
U1 O1 1_555 1_555
Cs1 O7 1_555 1_555
O1 Cs1C 1_555 1_555
O2 U1 1_555 1_555
O3 U1 1_555 1_555
O4 C1 1_555 1_555
O5 U1 1_555 1_555
O6 U1 1_555 1_555
O7 C2 1_555 1_555
O8 Cs1 1_555 1_555
C1 O3 1_555 1_555
C2 O5 1_555 1_555
C3 O6 1_555 1_555
O3B C1B 1_555 1_555
C1B C1 1_555 1_555
O4B U1 1_555 1_555
U1B O1B 1_555 1_555
Cs1B O8 1_555 1_555
O1B Cs1A 1_555 1_555
O2B U1B 1_555 1_555
O5B U1B 1_555 1_555
O6B U1B 1_555 1_555
O7B Cs1B 1_555 1_555
O8B Cs1 1_555 1_555
C2B O5B 1_555 1_555
C3B O6B 1_555 1_555
U1A O7B 1_555 1_555
U1B_2 O4 1_555 1_555
U1C O7 1_555 1_555
Cs1_2 O2B 1_555 1_555
Cs1_3 O2 1_555 1_555
Cs1A O6B 1_555 1_555
Cs1A_2 O3B 1_555 1_555
Cs1B_2 O2B 1_555 1_555
Cs1B_3 O2 1_555 1_555
Cs1B_4 O4 1_555 1_555
Cs1C O6 1_555 1_555
Cs1C_2 O3 1_555 1_555
O1A Cs1B 1_555 1_555
O1C Cs1 1_555 1_555
O2_2 Cs1 1_555 1_555
O2B_2 Cs1 1_555 1_555
O3A Cs1B 1_555 1_555
O3B_2 U1B 1_555 1_555
O3C Cs1 1_555 1_555
O4_2 U1B 1_555 1_555
O4_3 Cs1B 1_555 1_555
O4A Cs1B 1_555 1_555
O4B_2 Cs1 1_555 1_555
O4C Cs1 1_555 1_555
O5_2 Cs1 1_555 1_555
O5B_2 Cs1B 1_555 1_555
O6A Cs1B 1_555 1_555
O6C Cs1 1_555 1_555
O7A U1B 1_555 1_555
O7C U1 1_555 1_555
O4 Cs1C_2 1_555 1_555
O5 Cs1_3 1_555 1_555
O8 C3 1_555 1_555
C2 C3 1_555 1_555
O3B U1B_2 1_555 1_555
C1B O4B 1_555 1_555
O4B Cs1_3 1_555 1_555
O4B Cs1A_2 1_555 1_555
Cs1B O8B 1_555 1_555
Cs1B O2_2 1_555 1_555
Cs1B O2B_2 1_555 1_555
O5B Cs1B_2 1_555 1_555
O7B C2B 1_555 1_555
O8B C3B 1_555 1_555
C2B C3B 1_555 1_555
U1A O1A 1_555 1_555
U1A O6A 1_555 1_555
U1C O1C 1_555 1_555
U1C O6C 1_555 1_555
Cs1A O4C 1_555 1_555
Cs1A O7A 1_555 1_555
Cs1B_2 O4_2 1_555 1_555
Cs1C O4A 1_555 1_555
Cs1C O7C 1_555 1_555

#END
