
#######################################################################
#
#                 Cambridge Crystallographic Data Centre
#                                CCDC 
#
#######################################################################
#
# If this CIF has been generated from an entry in the Cambridge 
# Structural Database, then it will include bibliographic, chemical, 
# crystal, experimental, refinement or atomic coordinate data resulting 
# from the CCDC's data processing and validation procedures.
#
#######################################################################

data_XOLYEE
_symmetry_cell_setting           triclinic
_symmetry_space_group_name_H-M   'P -1'
_symmetry_Int_Tables_number      2
_space_group_name_Hall           '-P 1'
loop_
_symmetry_equiv_pos_site_id
_symmetry_equiv_pos_as_xyz
1 x,y,z
2 -x,-y,-z
_cell_length_a                   6.855(3)
_cell_length_b                   10.691(5)
_cell_length_c                   11.195(5)
_cell_angle_alpha                86.992(5)
_cell_angle_beta                 88.439(6)
_cell_angle_gamma                88.351(6)
_cell_volume                     818.704
loop_
_atom_site_label
_atom_site_type_symbol
_atom_site_fract_x
_atom_site_fract_y
_atom_site_fract_z
Cu1 Cu 0.80390(10) 0.00593(6) 0.30984(6)
Cu2 Cu 0.49180(10) -0.13540(6) 0.48045(6)
O1 O 0.6845(6) 0.2681(4) 0.4687(4)
O2 O 0.8169(6) 0.1874(4) 0.3024(4)
O3 O 0.6882(5) -0.0018(3) 0.4703(3)
O4 O 0.8339(7) -0.0345(4) -0.3126(4)
O5 O 0.5755(7) 0.0971(5) -0.2918(4)
O6 O 1.4674(8) 0.5791(5) 0.1885(7)
O7 O 1.4580(9) 0.3798(5) 0.1991(7)
N1 N 0.7739(7) 0.0107(4) 0.1298(4)
N2 N 1.3834(8) 0.4829(5) 0.2141(6)
C1 C 0.7947(8) 0.2706(5) 0.3777(5)
C2 C 0.7967(9) -0.0883(6) -0.0564(5)
H1 H 0.8286 -0.1597 -0.0976
C3 C 1.0883(9) 0.3803(5) 0.2953(6)
H2 H 1.1430 0.3037 0.2742
C4 C 0.7319(9) 0.0205(6) -0.1178(5)
C5 C 0.9079(8) 0.3872(5) 0.3526(5)
C6 C 0.8282(9) 0.5030(5) 0.3824(5)
H3 H 0.7082 0.5069 0.4231
C7 C 0.6822(9) 0.1232(6) -0.0502(5)
H4 H 0.6323 0.1967 -0.0873
C8 C 0.7113(9) 0.0281(6) -0.2525(5)
C9 C 0.7074(9) 0.1154(6) 0.0714(5)
H5 H 0.6771 0.1855 0.1149
C10 C 1.1855(9) 0.4907(5) 0.2701(6)
C11 C 0.8134(9) -0.0897(5) 0.0654(5)
H6 H 0.8542 -0.1639 0.1054
C12 C 1.1080(9) 0.6073(5) 0.2965(5)
H7 H 1.1767 0.6797 0.2775
C13 C 0.8250(8) 0.7365(5) 0.3752(5)
O8 O 0.8883(6) 0.8301(3) 0.3168(4)
O9 O 0.6864(6) 0.7335(4) 0.4513(4)
C14 C 0.9257(9) 0.6129(5) 0.3519(5)
H8 H 0.7493 0.0012 0.5346
Cu1_2 Cu 0.80390(10) 1.00593(6) 0.30984(6)
Cu1A Cu 1.19610(10) -0.00593(6) -0.30984(6)
Cu2_2 Cu 0.49180(10) 0.86460(6) 0.48045(6)
Cu2A Cu 0.50820(10) 0.13540(6) -0.48045(6)
Cu2A_2 Cu 0.50820(10) 0.13540(6) 0.51955(6)
O1A O 0.3155(6) -0.2681(4) 0.5313(4)
O3A O 0.3118(5) 0.0018(3) 0.5297(3)
O4A O 1.1661(7) 0.0345(4) 0.3126(4)
O5A O 0.4245(7) -0.0971(5) 0.2918(4)
O8_2 O 0.8883(6) -0.1699(3) 0.3168(4)
O9_2 O 0.6864(6) -0.2665(4) 0.4513(4)
loop_
_geom_bond_atom_site_label_1
_geom_bond_atom_site_label_2
_geom_bond_site_symmetry_1
_geom_bond_site_symmetry_2
Cu1 O2 1_555 1_555
Cu2 O3 1_555 1_555
O1 C1 1_555 1_555
O2 C1 1_555 1_555
O3 Cu1 1_555 1_555
O4 C8 1_555 1_555
O5 C8 1_555 1_555
O6 N2 1_555 1_555
O7 N2 1_555 1_555
N1 Cu1 1_555 1_555
N2 C10 1_555 1_555
C1 C5 1_555 1_555
C2 H1 1_555 1_555
C3 H2 1_555 1_555
C4 C2 1_555 1_555
C5 C3 1_555 1_555
C6 C5 1_555 1_555
H3 C6 1_555 1_555
C7 C4 1_555 1_555
H4 C7 1_555 1_555
C8 C4 1_555 1_555
C9 N1 1_555 1_555
H5 C9 1_555 1_555
C10 C3 1_555 1_555
C11 N1 1_555 1_555
H6 C11 1_555 1_555
C12 C10 1_555 1_555
H7 C12 1_555 1_555
C13 O8 1_555 1_555
O8 Cu1_2 1_555 1_555
O9 C13 1_555 1_555
C14 C6 1_555 1_555
H8 O3 1_555 1_555
Cu1A O4 1_555 1_555
Cu2_2 O9 1_555 1_555
Cu2A O5 1_555 1_555
Cu2A_2 O1 1_555 1_555
O1A Cu2 1_555 1_555
O3A Cu2 1_555 1_555
O4A Cu1 1_555 1_555
O5A Cu2 1_555 1_555
O8_2 Cu1 1_555 1_555
O9_2 Cu2 1_555 1_555
O3 Cu2A_2 1_555 1_555
C2 C11 1_555 1_555
C7 C9 1_555 1_555
C12 C14 1_555 1_555
C13 C14 1_555 1_555
Cu2A_2 O3A 1_555 1_555

#END
