
#######################################################################
#
#                 Cambridge Crystallographic Data Centre
#                                CCDC 
#
#######################################################################
#
# If this CIF has been generated from an entry in the Cambridge 
# Structural Database, then it will include bibliographic, chemical, 
# crystal, experimental, refinement or atomic coordinate data resulting 
# from the CCDC's data processing and validation procedures.
#
#######################################################################

data_XOLZUT
_symmetry_cell_setting           triclinic
_symmetry_space_group_name_H-M   'P 1'
_symmetry_Int_Tables_number      1
_space_group_name_Hall           'P 1'
loop_
_symmetry_equiv_pos_site_id
_symmetry_equiv_pos_as_xyz
1 x,y,z
_cell_length_a                   7.5400(10)
_cell_length_b                   10.7111(13)
_cell_length_c                   11.1962(15)
_cell_angle_alpha                66.490(5)
_cell_angle_beta                 87.265(6)
_cell_angle_gamma                88.470(6)
_cell_volume                     828.191
loop_
_atom_site_label
_atom_site_type_symbol
_atom_site_fract_x
_atom_site_fract_y
_atom_site_fract_z
Zn1 Zn 0.37042(11) 0.31743(9) 0.68595(8)
Zn2 Zn 0.64954(12) 0.13577(9) 0.85161(9)
O1 O 0.5413(15) 0.2992(13) 0.5439(11)
O2 O 0.7543(18) 0.1724(15) 0.6672(12)
O3 O 1.4840(20) 0.1527(13) -0.0078(13)
O4 O 1.2613(17) 0.2798(13) -0.1306(12)
O5 O 0.7675(17) 0.3080(13) 0.8398(11)
O6 O 0.5616(19) 0.4374(13) 0.7233(13)
O7 O 1.4680(14) 1.0110(12) 0.8246(11)
O8 O 1.2432(16) 1.1450(13) 0.6972(13)
N1 N 0.8127(17) -0.0158(15) 0.9608(16)
N2 N 0.2026(20) 0.4698(14) 0.5779(11)
C1 C 0.9587(24) 0.2049(16) 0.4407(14)
H1 H 1.0181(24) 0.1799(16) 0.5179(14)
C2 C 0.7895(23) 0.2348(18) 0.4426(16)
C3 C 0.6975(24) 0.2755(19) 0.3200(16)
H2 H 0.5791(24) 0.3028(19) 0.3175(16)
C4 C 0.7772(21) 0.2744(18) 0.2145(18)
H3 H 0.7122(21) 0.2948(18) 0.1404(18)
C5 C 1.0545(21) 0.2455(18) 0.0981(17)
H4 H 0.9947(21) 0.2686(18) 0.0213(17)
C6 C 1.2405(26) 0.2132(18) 0.1009(17)
C7 C 1.3293(25) 0.1821(20) 0.2142(19)
H5 H 1.4503(25) 0.1625(20) 0.2159(19)
C8 C 1.2367(26) 0.1799(17) 0.3276(13)
H6 H 1.2978(26) 0.1590(17) 0.4035(13)
C9 C 1.0580(18) 0.2083(16) 0.3277(15)
C10 C 0.9637(25) 0.2424(16) 0.2099(15)
C11 C 0.6829(26) 0.2363(18) 0.5621(14)
C12 C 1.3345(20) 0.2181(15) -0.0213(17)
C13 C 0.9712(22) 0.5450(18) 0.8054(15)
H7 H 1.0302(22) 0.4617(18) 0.8409(15)
C14 C 0.7920(24) 0.5491(18) 0.7676(15)
C15 C 0.7072(25) 0.6783(18) 0.7222(13)
H8 H 0.5893(25) 0.6837(18) 0.6996(13)
C16 C 0.7861(19) 0.7918(15) 0.7100(14)
H9 H 0.7223(19) 0.8733(15) 0.6805(14)
C17 C 1.0595(24) 0.9113(15) 0.7322(16)
H10 H 1.0007(24) 0.9950(15) 0.7022(16)
C18 C 1.2253(20) 0.9052(15) 0.7654(17)
C19 C 1.3180(20) 0.7779(18) 0.8195(17)
H11 H 1.4322(20) 0.7747(18) 0.8485(17)
C20 C 1.2387(25) 0.6603(17) 0.8285(16)
H12 H 1.3022(25) 0.5787(17) 0.8596(16)
C21 C 1.0573(21) 0.6615(16) 0.7901(13)
C22 C 0.9655(23) 0.7914(16) 0.7409(17)
C23 C 0.6996(25) 0.4235(16) 0.7769(14)
C24 C 1.3173(20) 1.0331(18) 0.7578(16)
C25 C 0.7589(28) -0.1496(17) 1.0091(17)
H13 H 0.6428(28) -0.1689(17) 0.9979(17)
C26 C 0.8774(31) -0.2595(21) 1.0761(20)
C27 C 1.0540(27) -0.2215(24) 1.0901(20)
C28 C 1.1012(24) -0.0915(22) 1.0476(18)
H14 H 1.2137(24) -0.0657(22) 1.0593(18)
C29 C 0.9757(21) -0.0007(18) 0.9871(15)
H15 H 1.0108(21) 0.0895(18) 0.9586(15)
C30 C 0.8141(28) -0.3950(22) 1.1215(24)
H16 H 0.6921(28) -0.3935(22) 1.1001(24)
H17 H 0.8236(28) -0.4384(22) 1.2144(24)
H18 H 0.8838(28) -0.4447(22) 1.0809(24)
C31 C 1.1839(38) -0.3456(28) 1.1672(22)
H19 H 1.1237(38) -0.4302(28) 1.1889(22)
H20 H 1.2180(38) -0.3384(28) 1.2457(22)
H21 H 1.2879(38) -0.3427(28) 1.1133(22)
C32 C 0.2497(28) 0.5989(23) 0.5269(19)
H22 H 0.3667(28) 0.6177(23) 0.5361(19)
C33 C 0.1443(30) 0.7057(17) 0.4630(14)
C34 C -0.0285(31) 0.6826(20) 0.4447(17)
C35 C -0.0872(28) 0.5427(21) 0.4956(18)
H23 H -0.2015(28) 0.5217(21) 0.4824(18)
C36 C 0.0326(21) 0.4392(16) 0.5655(15)
H24 H -0.0048(21) 0.3492(16) 0.6035(15)
C37 C 0.2132(37) 0.8509(17) 0.4195(18)
H25 H 0.1220(37) 0.9146(17) 0.3752(18)
H26 H 0.3154(37) 0.8630(17) 0.3616(18)
H27 H 0.2455(37) 0.8663(17) 0.4944(18)
C38 C -0.1656(37) 0.7835(26) 0.3854(21)
H28 H -0.2737(37) 0.7383(26) 0.3850(21)
H29 H -0.1284(37) 0.8401(26) 0.2975(21)
H30 H -0.1852(37) 0.8387(26) 0.4345(21)
O4_2 O 0.2613(17) 0.2798(13) 0.8694(12)
O8_2 O 0.2432(16) 0.1450(13) 0.6972(13)
O3_2 O 0.4840(20) 0.1527(13) 0.9922(13)
O7_2 O 0.4680(14) 0.0110(12) 0.8246(11)
Zn2_2 Zn 1.64954(12) 0.13577(9) -0.14839(9)
Zn1_2 Zn 1.37042(11) 0.31743(9) -0.31405(8)
Zn2_3 Zn 1.64954(12) 1.13577(9) 0.85161(9)
Zn1_3 Zn 1.37042(11) 1.31743(9) 0.68595(8)
loop_
_geom_bond_atom_site_label_1
_geom_bond_atom_site_label_2
_geom_bond_site_symmetry_1
_geom_bond_site_symmetry_2
Zn1 O1 1_555 1_555
Zn2 O2 1_555 1_555
O1 C11 1_555 1_555
O2 C11 1_555 1_555
O3 C12 1_555 1_555
O4 C12 1_555 1_555
O5 Zn2 1_555 1_555
O6 Zn1 1_555 1_555
O7 C24 1_555 1_555
O8 C24 1_555 1_555
N1 Zn2 1_555 1_555
N2 Zn1 1_555 1_555
C1 H1 1_555 1_555
C2 C1 1_555 1_555
C3 C2 1_555 1_555
H2 C3 1_555 1_555
C4 C3 1_555 1_555
H3 C4 1_555 1_555
C5 H4 1_555 1_555
C6 C5 1_555 1_555
C7 C6 1_555 1_555
H5 C7 1_555 1_555
C8 C7 1_555 1_555
H6 C8 1_555 1_555
C9 C1 1_555 1_555
C10 C4 1_555 1_555
C11 C2 1_555 1_555
C12 C6 1_555 1_555
C13 H7 1_555 1_555
C14 C13 1_555 1_555
C15 C14 1_555 1_555
H8 C15 1_555 1_555
C16 C15 1_555 1_555
H9 C16 1_555 1_555
C17 H10 1_555 1_555
C18 C17 1_555 1_555
C19 C18 1_555 1_555
H11 C19 1_555 1_555
C20 C19 1_555 1_555
H12 C20 1_555 1_555
C21 C13 1_555 1_555
C22 C16 1_555 1_555
C23 O5 1_555 1_555
C24 C18 1_555 1_555
C25 N1 1_555 1_555
H13 C25 1_555 1_555
C26 C25 1_555 1_555
C27 C26 1_555 1_555
C28 C27 1_555 1_555
H14 C28 1_555 1_555
C29 N1 1_555 1_555
H15 C29 1_555 1_555
C30 C26 1_555 1_555
H16 C30 1_555 1_555
H17 C30 1_555 1_555
H18 C30 1_555 1_555
C31 C27 1_555 1_555
H19 C31 1_555 1_555
H20 C31 1_555 1_555
H21 C31 1_555 1_555
C32 N2 1_555 1_555
H22 C32 1_555 1_555
C33 C32 1_555 1_555
C34 C33 1_555 1_555
C35 C34 1_555 1_555
H23 C35 1_555 1_555
C36 N2 1_555 1_555
H24 C36 1_555 1_555
C37 C33 1_555 1_555
H25 C37 1_555 1_555
H26 C37 1_555 1_555
H27 C37 1_555 1_555
C38 C34 1_555 1_555
H28 C38 1_555 1_555
H29 C38 1_555 1_555
H30 C38 1_555 1_555
O4_2 Zn1 1_555 1_555
O8_2 Zn1 1_555 1_555
O3_2 Zn2 1_555 1_555
O7_2 Zn2 1_555 1_555
Zn2_2 O3 1_555 1_555
Zn1_2 O4 1_555 1_555
Zn2_3 O7 1_555 1_555
Zn1_3 O8 1_555 1_555
O6 C23 1_555 1_555
C5 C10 1_555 1_555
C8 C9 1_555 1_555
C9 C10 1_555 1_555
C14 C23 1_555 1_555
C17 C22 1_555 1_555
C20 C21 1_555 1_555
C21 C22 1_555 1_555
C28 C29 1_555 1_555
C35 C36 1_555 1_555

#END
