
#######################################################################
#
#                 Cambridge Crystallographic Data Centre
#                                CCDC 
#
#######################################################################
#
# If this CIF has been generated from an entry in the Cambridge 
# Structural Database, then it will include bibliographic, chemical, 
# crystal, experimental, refinement or atomic coordinate data resulting 
# from the CCDC's data processing and validation procedures.
#
#######################################################################

data_XOMBIM
_symmetry_cell_setting           triclinic
_symmetry_space_group_name_H-M   'P -1'
_symmetry_Int_Tables_number      2
_space_group_name_Hall           '-P 1'
loop_
_symmetry_equiv_pos_site_id
_symmetry_equiv_pos_as_xyz
1 x,y,z
2 -x,-y,-z
_cell_length_a                   9.48340(10)
_cell_length_b                   10.6376(2)
_cell_length_c                   14.9133(2)
_cell_angle_alpha                95.1910(10)
_cell_angle_beta                 103.4170(10)
_cell_angle_gamma                96.8640(10)
_cell_volume                     1441.99
loop_
_atom_site_label
_atom_site_type_symbol
_atom_site_fract_x
_atom_site_fract_y
_atom_site_fract_z
Zn1 Zn 0.13448(3) 0.45134(3) 0.33418(2)
O1 O 0.1738(2) 0.63400(18) 0.37823(15)
N1 N 0.3610(2) 0.43687(19) 0.35353(14)
O2 O 0.0984(2) 1.29207(17) 0.38204(14)
O3 O 0.34223(18) 0.10784(18) 0.18821(14)
N2 N 0.5702(2) 0.2097(2) 0.25964(15)
C1 C 0.5469(3) 0.0192(2) 0.15506(17)
N3 N 0.9546(2) -0.4151(2) -0.19105(15)
O4 O -0.0640(2) 0.58910(18) 0.35003(17)
C2 C 0.5350(3) 0.3173(2) 0.30680(17)
C3 C 0.5062(3) -0.1142(2) 0.15833(16)
O5 O 0.6442(2) -0.3351(2) -0.05678(15)
C4 C 0.4755(3) 0.1150(2) 0.20198(17)
C5 C 0.0373(3) 0.8084(2) 0.37834(18)
C6 C 0.5700(3) -0.2034(2) 0.10908(17)
O6 O -0.1267(2) 1.22507(19) 0.30038(17)
C7 C 0.1489(3) 0.9032(2) 0.43651(17)
C8 C -0.0107(3) 1.2044(2) 0.34929(18)
C9 C 0.0110(3) 1.0697(2) 0.36855(17)
N4 N 0.8738(3) -0.2316(2) 0.00711(17)
C10 C 0.0470(3) 0.6678(2) 0.36984(19)
C11 C -0.0834(3) 0.8452(3) 0.3242(2)
H1 H -0.1591 0.7833 0.2900
C12 C 0.3946(3) 0.3287(2) 0.31611(17)
H2 H 0.3215 0.2588 0.2957
C13 C 0.9494(3) -0.3029(3) -0.04552(18)
C14 C 0.1354(3) 1.0356(2) 0.43163(17)
C15 C 0.4088(3) -0.1596(3) 0.21108(18)
H3 H 0.3678 -0.1017 0.2441
C16 C 0.4680(3) 0.5341(2) 0.38875(18)
H4 H 0.4449 0.6094 0.4147
C17 C 0.6467(3) 0.0593(2) 0.10664(18)
H5 H 0.6739 0.1461 0.1063
C18 C 0.6457(3) 0.4177(3) 0.34566(19)
H6 H 0.7419 0.4119 0.3433
C19 C 0.7264(3) -0.2504(3) -0.00261(18)
C20 C 0.5316(3) -0.3350(3) 0.11503(19)
H7 H 0.5717 -0.3951 0.0832
C21 C 0.8862(3) -0.3499(3) -0.13752(18)
H8 H 0.7913 -0.3354 -0.1634
C22 C 0.3745(3) -0.2865(3) 0.21413(19)
H9 H 0.3089 -0.3149 0.2481
C23 C 0.7083(3) -0.0292(3) 0.05752(18)
H10 H 0.7753 -0.0005 0.0246
C24 C 0.2710(3) 0.8715(3) 0.50097(19)
H11 H 0.2807 0.7861 0.5051
C25 C 0.6707(3) -0.1576(2) 0.05770(17)
C26 C 0.6108(3) 0.5265(3) 0.3879(2)
H12 H 0.6839 0.5943 0.4156
C27 C 0.2453(3) 1.1264(3) 0.49224(19)
H13 H 0.2386 1.2127 0.4906
C28 C 0.4376(3) -0.3748(3) 0.1662(2)
H14 H 0.4147 -0.4615 0.1695
C29 C 0.3737(3) 0.9628(3) 0.5567(2)
H15 H 0.4535 0.9397 0.5977
C30 C 1.0900(3) -0.3241(3) -0.0078(2)
H16 H 1.1366 -0.2931 0.0536
C31 C 0.3601(3) 1.0914(3) 0.5527(2)
H17 H 0.4302 1.1536 0.5918
C32 C 1.0913(3) -0.4368(3) -0.1531(2)
H18 H 1.1401 -0.4830 -0.1891
C33 C 1.1606(3) -0.3921(4) -0.0623(2)
H19 H 1.2553 -0.4078 -0.0377
C34 C -0.0962(3) 0.9741(3) 0.3188(2)
H20 H -0.1798 0.9956 0.2804
H21 H 0.653(3) 0.207(3) 0.2655(19)
H22 H 0.925(3) -0.179(3) 0.046(2)
Zn1_2 Zn 0.13448(3) 1.45134(3) 0.33418(2)
Zn1A Zn 0.86552(3) -0.45134(3) -0.33418(2)
O2_2 O 0.0984(2) 0.29207(17) 0.38204(14)
N3A N 0.0454(2) 0.4151(2) 0.19105(15)
O7 O 0.0658(3) 0.9618(4) 0.1405(2)
H23 H 0.147(3) 1.002(4) 0.149(3)
H24 H 0.058(5) 0.958(6) 0.1934(19)
loop_
_geom_bond_atom_site_label_1
_geom_bond_atom_site_label_2
_geom_bond_site_symmetry_1
_geom_bond_site_symmetry_2
Zn1 O1 1_555 1_555
O1 C10 1_555 1_555
N1 Zn1 1_555 1_555
O2 C8 1_555 1_555
O3 C4 1_555 1_555
N2 C2 1_555 1_555
C1 C3 1_555 1_555
N3 C21 1_555 1_555
O4 Zn1 1_555 1_555
C2 C12 1_555 1_555
C3 C6 1_555 1_555
O5 C19 1_555 1_555
C4 N2 1_555 1_555
C5 C7 1_555 1_555
C6 C20 1_555 1_555
O6 C8 1_555 1_555
C7 C14 1_555 1_555
C8 C9 1_555 1_555
C9 C14 1_555 1_555
N4 C13 1_555 1_555
C10 O4 1_555 1_555
C11 C5 1_555 1_555
H1 C11 1_555 1_555
C12 N1 1_555 1_555
H2 C12 1_555 1_555
C13 C21 1_555 1_555
C14 C27 1_555 1_555
C15 C3 1_555 1_555
H3 C15 1_555 1_555
C16 N1 1_555 1_555
H4 C16 1_555 1_555
C17 C1 1_555 1_555
H5 C17 1_555 1_555
C18 C2 1_555 1_555
H6 C18 1_555 1_555
C19 N4 1_555 1_555
C20 H7 1_555 1_555
C21 H8 1_555 1_555
C22 C15 1_555 1_555
H9 C22 1_555 1_555
C23 C17 1_555 1_555
H10 C23 1_555 1_555
C24 C7 1_555 1_555
H11 C24 1_555 1_555
C25 C6 1_555 1_555
C26 C16 1_555 1_555
H12 C26 1_555 1_555
C27 H13 1_555 1_555
C28 C20 1_555 1_555
H14 C28 1_555 1_555
C29 C24 1_555 1_555
H15 C29 1_555 1_555
C30 C13 1_555 1_555
H16 C30 1_555 1_555
C31 C27 1_555 1_555
H17 C31 1_555 1_555
C32 N3 1_555 1_555
H18 C32 1_555 1_555
C33 C30 1_555 1_555
H19 C33 1_555 1_555
C34 C9 1_555 1_555
H20 C34 1_555 1_555
H21 N2 1_555 1_555
H22 N4 1_555 1_555
O7 H23 1_555 1_555
H24 O7 1_555 1_555
Zn1_2 O2 1_555 1_555
Zn1A N3 1_555 1_555
O2_2 Zn1 1_555 1_555
N3A Zn1 1_555 1_555
C1 C4 1_555 1_555
C5 C10 1_555 1_555
C11 C34 1_555 1_555
C18 C26 1_555 1_555
C19 C25 1_555 1_555
C22 C28 1_555 1_555
C23 C25 1_555 1_555
C29 C31 1_555 1_555
C32 C33 1_555 1_555

#END
