
#######################################################################
#
#                 Cambridge Crystallographic Data Centre
#                                CCDC 
#
#######################################################################
#
# If this CIF has been generated from an entry in the Cambridge 
# Structural Database, then it will include bibliographic, chemical, 
# crystal, experimental, refinement or atomic coordinate data resulting 
# from the CCDC's data processing and validation procedures.
#
#######################################################################

data_XOMBAC
_symmetry_cell_setting           monoclinic
_symmetry_space_group_name_H-M   'C 2/m'
_symmetry_Int_Tables_number      12
_space_group_name_Hall           '-C 2y'
loop_
_symmetry_equiv_pos_site_id
_symmetry_equiv_pos_as_xyz
1 x,y,z
2 x,-y,z
3 1/2+x,1/2+y,z
4 1/2+x,1/2-y,z
5 -x,-y,-z
6 -x,y,-z
7 1/2-x,1/2-y,-z
8 1/2-x,1/2+y,-z
_cell_length_a                   10.22523(19)
_cell_length_b                   19.0915(4)
_cell_length_c                   8.05213(15)
_cell_angle_alpha                90
_cell_angle_beta                 98.8239(15)
_cell_angle_gamma                90
_cell_volume                     1553.29
loop_
_atom_site_label
_atom_site_type_symbol
_atom_site_fract_x
_atom_site_fract_y
_atom_site_fract_z
Cu1 Cu 0.0973(4) 0.00000 0.4048(5)
O1 O 0.1696(9) 0.0712(6) 0.5715(11)
O2 O -0.0059(10) 0.0717(7) 0.7365(11)
C1 C 0.1448(14) 0.1676(6) 0.9505(16)
C2 C 0.1758(15) 0.1524(6) 0.7935(15)
C3 C 0.2575(16) 0.1960(7) 0.7130(12)
C4 C 0.3123(14) 0.2567(7) 0.7979(13)
C5 C 0.2297(15) 0.2240(4) 1.0512(12)
C6 C 0.1075(12) 0.0892(7) 0.6931(17)
N1 N 0.2778(11) 0.00000 0.3005(25)
C7 C 0.3493(10) 0.06068(32) 0.3082(20)
C8 C 0.4672(12) 0.06200(31) 0.2355(21)
C9 C 0.5311(16) 0.00000 0.2112(29)
C4F C 0.1877(14) 0.2433(7) 1.2021(13)
C3F C 0.2425(16) 0.3040(7) 1.2870(12)
C2F C 0.3242(15) 0.3476(6) 1.2065(15)
C1F C 0.3552(14) 0.3324(6) 1.0495(16)
C5F C 0.2703(15) 0.2760(4) 0.9488(12)
C6F C 0.3925(12) 0.4108(7) 1.3069(17)
O1F O 0.3304(9) 0.4288(6) 1.4285(11)
O2F O 0.5059(10) 0.4283(7) 1.2635(11)
C8A C 0.4672(12) -0.06200(31) 0.2355(21)
C7A C 0.3493(10) -0.06068(32) 0.3082(20)
O1A O 0.1696(9) -0.0712(6) 0.5715(11)
O2D O 0.0059(10) -0.0717(7) 0.2635(11)
O2E O 0.0059(10) 0.0717(7) 0.2635(11)
Cu1D Cu -0.0973(4) 0.00000 0.5952(5)
Cu1F Cu 0.4027(4) 0.50000 1.5952(5)
Cu1B Cu 0.5973(4) 0.50000 1.4048(5)
loop_
_geom_bond_atom_site_label_1
_geom_bond_atom_site_label_2
_geom_bond_site_symmetry_1
_geom_bond_site_symmetry_2
Cu1 O1 1_555 1_555
O1 C6 1_555 1_555
O2 C6 1_555 1_555
C1 C2 1_555 1_555
C2 C3 1_555 1_555
C3 C4 1_555 1_555
C4 C5F 1_555 1_555
C5 C1 1_555 1_555
C6 C2 1_555 1_555
N1 Cu1 1_555 1_555
C7 N1 1_555 1_555
C8 C7 1_555 1_555
C9 C8 1_555 1_555
C4F C5 1_555 1_555
C3F C4F 1_555 1_555
C2F C3F 1_555 1_555
C1F C2F 1_555 1_555
C5F C5 1_555 1_555
C6F C2F 1_555 1_555
O1F C6F 1_555 1_555
O2F C6F 1_555 1_555
C8A C9 1_555 1_555
C7A N1 1_555 1_555
O1A Cu1 1_555 1_555
O2D Cu1 1_555 1_555
O2E Cu1 1_555 1_555
Cu1D O2 1_555 1_555
Cu1F O1F 1_555 1_555
Cu1B O2F 1_555 1_555
C1F C5F 1_555 1_555
C8A C7A 1_555 1_555

#END
