
#######################################################################
#
#                 Cambridge Crystallographic Data Centre
#                                CCDC 
#
#######################################################################
#
# If this CIF has been generated from an entry in the Cambridge 
# Structural Database, then it will include bibliographic, chemical, 
# crystal, experimental, refinement or atomic coordinate data resulting 
# from the CCDC's data processing and validation procedures.
#
#######################################################################

data_XOMBAE
_symmetry_cell_setting           monoclinic
_symmetry_space_group_name_H-M   'P 21/c'
_symmetry_Int_Tables_number      14
_space_group_name_Hall           '-P 2ybc'
loop_
_symmetry_equiv_pos_site_id
_symmetry_equiv_pos_as_xyz
1 x,y,z
2 -x,1/2+y,1/2-z
3 -x,-y,-z
4 x,1/2-y,1/2+z
_cell_length_a                   7.3644(18)
_cell_length_b                   20.505(5)
_cell_length_c                   18.269(4)
_cell_angle_alpha                90
_cell_angle_beta                 101.628(4)
_cell_angle_gamma                90
_cell_volume                     2702.13
loop_
_atom_site_label
_atom_site_type_symbol
_atom_site_fract_x
_atom_site_fract_y
_atom_site_fract_z
C1 C 0.3455(9) 0.3087(2) 0.4836(3)
C2 C 1.1590(8) 0.6990(2) 1.0382(2)
H1 H 1.2177 0.7077 0.9987
C3 C 0.2771(8) 0.2888(2) 0.5510(2)
C4 C 0.1003(8) 0.3053(2) 0.5600(3)
H2 H 0.0223 0.3283 0.5224
C5 C 0.3931(8) 0.2536(2) 0.6086(2)
H3 H 0.5099 0.2405 0.6023
C6 C 0.1556(9) 0.2553(2) 0.6804(3)
H4 H 0.1144 0.2441 0.7236
C7 C 0.3376(8) 0.2386(2) 0.6727(3)
C8 C 0.4659(8) 0.2065(2) 0.7374(3)
C9 C 0.6937(8) 0.4197(2) 0.4829(2)
H5 H 0.6701 0.3899 0.5183
C10 C 0.7208(9) 0.4409(2) 0.3615(3)
H6 H 0.7160 0.4265 0.3129
C11 C 0.0388(8) 0.2885(2) 0.6231(3)
H7 H -0.0811 0.2992 0.6278
C12 C 0.7370(7) 0.4835(2) 0.5049(3)
C13 C 0.7658(9) 0.5054(2) 0.3791(3)
H8 H 0.7897 0.5343 0.3429
C14 C 0.7572(8) 0.4677(2) 0.6391(3)
C15 C 0.5649(9) 0.4114(2) 0.7542(3)
H9 H 0.5454 0.3926 0.7070
C16 C 0.6961(7) 0.4985(2) 0.8407(2)
C17 C 0.7586(8) 0.5011(2) 0.7138(2)
C18 C 0.6757(8) 0.4702(2) 0.7682(3)
C19 C 1.0322(7) 0.6485(2) 1.0310(2)
C20 C 0.8218(8) 0.5906(2) 0.9309(3)
C21 C 0.9585(9) 0.6316(3) 1.0899(3)
H10 H 0.8820 0.5952 1.0875
C22 C 0.9988(11) 0.6694(3) 1.1548(3)
H11 H 0.9471 0.6594 1.1958
C23 C 0.8551(8) 0.5580(2) 0.7293(2)
H12 H 0.9051 0.5784 0.6923
C24 C 0.5169(10) 0.4105(3) 0.8793(3)
H13 H 0.4674 0.3900 0.9162
C25 C 0.4898(10) 0.3834(3) 0.8072(4)
H14 H 0.4192 0.3457 0.7963
C26 C 0.6157(8) 0.4668(2) 0.8951(3)
H15 H 0.6305 0.4847 0.9427
C27 C 0.8043(7) 0.5576(2) 0.8560(2)
C28 C 0.8795(7) 0.5862(2) 0.8020(2)
H16 H 0.9474 0.6245 0.8125
C29 C 0.7741(8) 0.5258(2) 0.4519(3)
H17 H 0.8054 0.5688 0.4649
C30 C 1.11712(8) 0.72204(2) 1.15674(2)
H18 H 1.1389 0.7485 1.1989
N1 N 1.20132(8) 0.73639(2) 1.10062(2)
N2 N 0.68459(8) 0.39925(2) 0.41198(2)
N3 N 0.73803(8) 0.50654(2) 0.57774(2)
N4 N 0.99379(8) 0.61330(2) 0.96214(2)
O1 O 0.26300(8) 0.35099(2) 0.44023(2)
O2 O 0.49665(8) 0.28110(2) 0.47526(2)
O3 O 0.77375(8) 0.40874(2) 0.63612(2)
O4 O 0.61261(8) 0.18177(2) 0.72974(2)
O5 O 0.41308(8) 0.21040(2) 0.79980(2)
O6 O 0.68965(8) 0.59635(2) 0.96109(2)
Zn1 Zn 0.59494(8) 0.30597(2) 0.38890(2)
H19 H 0.7168 0.5524 0.5874
H20 H 1.0602 0.6051 0.9475
N1A N 0.79868(8) 0.23639(2) 0.39938(2)
O5C O 0.41308(8) 0.28960(2) 0.29980(2)
Zn1A Zn 1.40506(8) 0.80597(2) 1.11110(2)
Zn1C Zn 0.59494(8) 0.19403(2) 0.88890(2)
O7 O 0.69155(8) 0.11407(2) 0.60446(2)
H21 H 0.7646 0.1329 0.5830
H22 H 0.6876 0.1410 0.6387
loop_
_geom_bond_atom_site_label_1
_geom_bond_atom_site_label_2
_geom_bond_site_symmetry_1
_geom_bond_site_symmetry_2
C1 C3 1_555 1_555
C2 H1 1_555 1_555
C3 C4 1_555 1_555
C4 H2 1_555 1_555
C5 C3 1_555 1_555
H3 C5 1_555 1_555
C6 H4 1_555 1_555
C7 C5 1_555 1_555
C8 C7 1_555 1_555
C9 H5 1_555 1_555
C10 H6 1_555 1_555
C11 C4 1_555 1_555
H7 C11 1_555 1_555
C12 C9 1_555 1_555
C13 C10 1_555 1_555
H8 C13 1_555 1_555
C14 C17 1_555 1_555
C15 H9 1_555 1_555
C16 C18 1_555 1_555
C17 C18 1_555 1_555
C18 C15 1_555 1_555
C19 C2 1_555 1_555
C20 C27 1_555 1_555
C21 C19 1_555 1_555
H10 C21 1_555 1_555
C22 C21 1_555 1_555
H11 C22 1_555 1_555
C23 C17 1_555 1_555
H12 C23 1_555 1_555
C24 H13 1_555 1_555
C25 C15 1_555 1_555
H14 C25 1_555 1_555
C26 C16 1_555 1_555
H15 C26 1_555 1_555
C27 C16 1_555 1_555
C28 C23 1_555 1_555
H16 C28 1_555 1_555
C29 C12 1_555 1_555
H17 C29 1_555 1_555
C30 C22 1_555 1_555
H18 C30 1_555 1_555
N1 C2 1_555 1_555
N2 C9 1_555 1_555
N3 C12 1_555 1_555
N4 C19 1_555 1_555
O1 C1 1_555 1_555
O2 C1 1_555 1_555
O3 C14 1_555 1_555
O4 C8 1_555 1_555
O5 C8 1_555 1_555
O6 C20 1_555 1_555
Zn1 N2 1_555 1_555
H19 N3 1_555 1_555
H20 N4 1_555 1_555
O7 H21 1_555 1_555
H22 O7 1_555 1_555
N1A Zn1 1_555 1_555
O5C Zn1 1_555 1_555
Zn1A N1 1_555 1_555
Zn1C O5 1_555 1_555
C6 C7 1_555 1_555
C6 C11 1_555 1_555
C10 N2 1_555 1_555
C13 C29 1_555 1_555
C14 N3 1_555 1_555
C20 N4 1_555 1_555
C24 C25 1_555 1_555
C24 C26 1_555 1_555
C27 C28 1_555 1_555
C30 N1 1_555 1_555
O2 Zn1 1_555 1_555

#END
