
#######################################################################
#
#                 Cambridge Crystallographic Data Centre
#                                CCDC 
#
#######################################################################
#
# If this CIF has been generated from an entry in the Cambridge 
# Structural Database, then it will include bibliographic, chemical, 
# crystal, experimental, refinement or atomic coordinate data resulting 
# from the CCDC's data processing and validation procedures.
#
#######################################################################

data_XOMBEI
_symmetry_cell_setting           monoclinic
_symmetry_space_group_name_H-M   'C 2/c'
_symmetry_Int_Tables_number      15
_space_group_name_Hall           '-C 2yn'
loop_
_symmetry_equiv_pos_site_id
_symmetry_equiv_pos_as_xyz
1 x,y,z
2 -x,y,1/2-z
3 1/2+x,1/2+y,z
4 1/2-x,1/2+y,1/2-z
5 -x,-y,-z
6 x,-y,1/2+z
7 1/2-x,1/2-y,-z
8 1/2+x,1/2-y,1/2+z
_cell_length_a                   27.8066(4)
_cell_length_b                   10.04640(10)
_cell_length_c                   22.2781(3)
_cell_angle_alpha                90
_cell_angle_beta                 109.2360(10)
_cell_angle_gamma                90
_cell_volume                     5876.06
loop_
_atom_site_label
_atom_site_type_symbol
_atom_site_fract_x
_atom_site_fract_y
_atom_site_fract_z
C1 C 0.86638(9) 0.7702(3) 0.37361(11)
C2 C 0.90367(9) 1.2665(2) 0.64589(11)
C3 C 0.91407(10) 0.9648(3) 0.43090(11)
C4 C 0.91120(10) 1.7578(2) 0.64902(12)
C5 C 0.90377(9) 0.9467(2) 0.48745(11)
H1 H 0.8837 0.8751 0.4910
C6 C 0.84271(9) 0.7125(3) 0.30826(11)
C7 C 0.94391(12) 1.0725(3) 0.42677(13)
H2 H 0.9513 1.0884 0.3896
C8 C 0.70306(10) 0.5491(3) -0.01929(11)
H3 H 0.6847 0.6041 -0.0012
C9 C 0.90905(9) 1.5123(2) 0.65333(12)
H4 H 0.8952 1.5140 0.6092
C10 C 0.91783(9) 1.3914(2) 0.68443(11)
C11 C 0.92049(9) 1.6311(2) 0.68653(11)
C12 C 0.80612(10) 0.5250(3) 0.23699(13)
C13 C 0.83319(9) 0.5720(3) 0.29904(12)
C14 C 0.94962(9) 1.5068(2) 0.78427(11)
C15 C 0.93862(9) 1.3883(2) 0.75029(11)
H5 H 0.9452 1.3072 0.7716
C16 C 0.85035(11) 0.4766(3) 0.34861(14)
H6 H 0.8682 0.5050 0.3897
C17 C 0.75687(11) 0.5690(3) 0.12124(13)
C18 C 0.78947(10) 0.6180(3) 0.18577(12)
C19 C 0.82665(11) 0.7968(3) 0.25725(12)
H7 H 0.8334 0.8873 0.2634
C20 C 0.75419(10) 0.5288(3) 0.01289(12)
C21 C 0.96246(13) 1.1555(3) 0.47819(14)
H8 H 0.9827 1.2277 0.4760
C22 C 0.70588(11) 0.4171(3) -0.10186(13)
H9 H 0.6892 0.3762 -0.1406
C23 C 0.94085(9) 1.6285(2) 0.75241(11)
H10 H 0.9486 1.7076 0.7752
C24 C 0.95125(11) 1.1322(3) 0.53254(13)
H11 H 0.9642 1.1888 0.5671
C25 C 0.97189(10) 1.4991(2) 0.85475(12)
C26 C 0.79755(12) 0.3864(3) 0.22721(15)
H12 H 0.7799 0.3553 0.1866
C27 C 0.81438(13) 0.2985(3) 0.27547(16)
H13 H 0.8083 0.2079 0.2680
C28 C 0.78164(12) 0.4524(4) -0.01539(16)
H14 H 0.8163 0.4380 0.0048
C29 C 0.80008(11) 0.7498(3) 0.19565(13)
H15 H 0.7898 0.8091 0.1617
C30 C 0.75697(12) 0.3973(4) -0.07426(17)
H16 H 0.7750 0.3473 -0.0949
C31 C 0.84113(13) 0.3445(3) 0.33715(15)
H17 H 0.8526 0.2839 0.3704
H18 H 0.9035(12) 0.901(3) 0.3494(15)
N1 N 0.89495(9) 0.8806(2) 0.37784(10)
N2 N 0.92201(8) 1.0297(2) 0.53695(9)
N3 N 0.77760(8) 0.5845(3) 0.07428(10)
N4 N 0.67912(8) 0.49279(19) -0.07534(10)
O1 O 0.85889(7) 0.72076(19) 0.42012(8)
O2 O 0.89548(9) 1.7541(2) 0.59028(9)
O3 O 0.91922(8) 1.86717(17) 0.67972(9)
O4 O 0.92621(7) 1.15914(16) 0.67003(8)
O5 O 0.87068(7) 1.27206(17) 0.59230(8)
O6 O 0.71545(9) 0.5193(3) 0.11306(11)
O7 O 0.98941(8) 1.61317(18) 0.88192(8)
H19 H 1.0060 1.6005 0.9194
O8 O 0.97367(8) 1.39591(18) 0.88402(8)
Zn1 Zn 0.898553(10) 1.00643(2) 0.613058(12)
N4C N 0.82088(8) 0.99279(19) 0.57534(10)
O3_2 O 0.91922(8) 0.86717(17) 0.67972(9)
Zn1_2 Zn 0.898553(10) 2.00643(2) 0.613058(12)
Zn1C Zn 0.601447(10) 0.50643(2) -0.113058(12)
O9 O 0.95120(9) 0.4135(2) 1.00048(10)
H20 H 0.9578(9) 0.408(3) 0.9673(10)
H21 H 0.9261(8) 0.367(2) 0.9931(12)
O10 O 0.95210(17) 0.9690(3) 0.29489(15)
H22 H 0.9199(6) 0.986(3) 0.2738(14)
H23 H 0.9662(8) 1.028(2) 0.2880(13)
loop_
_geom_bond_atom_site_label_1
_geom_bond_atom_site_label_2
_geom_bond_site_symmetry_1
_geom_bond_site_symmetry_2
C1 C6 1_555 1_555
C2 C10 1_555 1_555
C3 C5 1_555 1_555
C4 C11 1_555 1_555
C5 H1 1_555 1_555
C6 C13 1_555 1_555
C7 C3 1_555 1_555
H2 C7 1_555 1_555
C8 H3 1_555 1_555
C9 H4 1_555 1_555
C10 C9 1_555 1_555
C11 C9 1_555 1_555
C12 C13 1_555 1_555
C13 C16 1_555 1_555
C14 C15 1_555 1_555
C15 C10 1_555 1_555
H5 C15 1_555 1_555
C16 H6 1_555 1_555
C17 C18 1_555 1_555
C18 C12 1_555 1_555
C19 C6 1_555 1_555
H7 C19 1_555 1_555
C20 C8 1_555 1_555
C21 C7 1_555 1_555
H8 C21 1_555 1_555
C22 H9 1_555 1_555
C23 C11 1_555 1_555
H10 C23 1_555 1_555
C24 C21 1_555 1_555
H11 C24 1_555 1_555
C25 C14 1_555 1_555
C26 C12 1_555 1_555
H12 C26 1_555 1_555
C27 C26 1_555 1_555
H13 C27 1_555 1_555
C28 C20 1_555 1_555
H14 C28 1_555 1_555
C29 C18 1_555 1_555
H15 C29 1_555 1_555
C30 C22 1_555 1_555
H16 C30 1_555 1_555
C31 C16 1_555 1_555
H17 C31 1_555 1_555
H18 N1 1_555 1_555
N1 C1 1_555 1_555
N2 C5 1_555 1_555
N3 C17 1_555 1_555
N4 C8 1_555 1_555
O1 C1 1_555 1_555
O2 C4 1_555 1_555
O3 C4 1_555 1_555
O4 C2 1_555 1_555
O5 C2 1_555 1_555
O6 C17 1_555 1_555
O7 C25 1_555 1_555
H19 O7 1_555 1_555
O8 C25 1_555 1_555
Zn1 N2 1_555 1_555
O9 H20 1_555 1_555
H21 O9 1_555 1_555
O10 H22 1_555 1_555
H23 O10 1_555 1_555
N4C Zn1 1_555 1_555
O3_2 Zn1 1_555 1_555
Zn1_2 O3 1_555 1_555
Zn1C N4 1_555 1_555
C3 N1 1_555 1_555
C14 C23 1_555 1_555
C19 C29 1_555 1_555
C20 N3 1_555 1_555
C22 N4 1_555 1_555
C24 N2 1_555 1_555
C27 C31 1_555 1_555
C28 C30 1_555 1_555
O4 Zn1 1_555 1_555

#END
