
#######################################################################
#
#                 Cambridge Crystallographic Data Centre
#                                CCDC 
#
#######################################################################
#
# If this CIF has been generated from an entry in the Cambridge 
# Structural Database, then it will include bibliographic, chemical, 
# crystal, experimental, refinement or atomic coordinate data resulting 
# from the CCDC's data processing and validation procedures.
#
#######################################################################

data_XOMBEI01
_symmetry_cell_setting           monoclinic
_symmetry_space_group_name_H-M   'C 2/c'
_symmetry_Int_Tables_number      15
_space_group_name_Hall           '-C 2yn'
loop_
_symmetry_equiv_pos_site_id
_symmetry_equiv_pos_as_xyz
1 x,y,z
2 -x,y,1/2-z
3 1/2+x,1/2+y,z
4 1/2-x,1/2+y,1/2-z
5 -x,-y,-z
6 x,-y,1/2+z
7 1/2-x,1/2-y,-z
8 1/2+x,1/2-y,1/2+z
_cell_length_a                   27.781(2)
_cell_length_b                   10.0395(8)
_cell_length_c                   22.2588(17)
_cell_angle_alpha                90
_cell_angle_beta                 109.2150(10)
_cell_angle_gamma                90
_cell_volume                     5862.29
loop_
_atom_site_label
_atom_site_type_symbol
_atom_site_fract_x
_atom_site_fract_y
_atom_site_fract_z
Zn1 Zn 0.101420(9) -0.00636(2) -0.113162(11)
O1 O 0.10458(8) 0.24623(18) -0.09013(9)
N1 N 0.17907(7) 0.00745(18) -0.07535(9)
C1 C 0.20581(10) 0.0831(3) -0.10217(13)
H1 H 0.1891 0.1236 -0.1410
O2 O 0.08092(7) 0.13316(16) -0.17952(8)
N2 N 0.42201(7) -0.52955(19) 0.53686(9)
C2 C 0.25700(11) 0.1027(4) -0.07423(15)
H2 H 0.2751 0.1528 -0.0947
O3 O 0.01034(7) 0.38702(16) -0.38240(8)
C3 C 0.28149(11) 0.0477(4) -0.01546(15)
H3 H 0.3161 0.0625 0.0048
O4 O 0.02641(7) 0.60418(17) -0.38409(8)
C4 C 0.25435(10) -0.0288(3) 0.01277(12)
O5 O 0.07392(6) 0.84048(15) -0.17003(7)
N3 N 0.27722(8) -0.0835(2) 0.07416(9)
H4 H 0.3050 -0.1282 0.0818
C5 C 0.20308(9) -0.0491(2) -0.01946(10)
H5 H 0.1847 -0.1044 -0.0014
O6 O 0.12930(6) 0.72791(16) -0.09221(7)
N4 N 0.39505(7) -0.3807(2) 0.37760(9)
H6 H 0.4024 -0.4021 0.3442
C6 C 0.25698(10) -0.0682(3) 0.12115(12)
C7 C 0.28952(9) -0.1174(3) 0.18564(11)
C8 C 0.30617(9) -0.0247(3) 0.23685(12)
C9 C 0.29763(11) 0.1139(3) 0.22745(14)
H7 H 0.2799 0.1454 0.1869
C10 C 0.31444(12) 0.2011(3) 0.27566(16)
H8 H 0.3083 0.2916 0.2682
C11 C 0.34139(12) 0.1557(3) 0.33742(14)
H9 H 0.3531 0.2164 0.3706
C12 C 0.35036(10) 0.0235(3) 0.34875(13)
H10 H 0.3680 -0.0050 0.3899
O7 O 0.21536(9) -0.0190(3) 0.11288(10)
C13 C 0.33336(9) -0.0719(3) 0.29927(11)
O8 O 0.35909(7) -0.22038(18) 0.42020(8)
C14 C 0.34260(9) -0.2127(2) 0.30820(11)
C15 C 0.32651(10) -0.2966(3) 0.25702(12)
H11 H 0.3332 -0.3873 0.2630
C16 C 0.30015(10) -0.2492(3) 0.19574(12)
H12 H 0.2899 -0.3085 0.1618
C17 C 0.36635(9) -0.2700(2) 0.37358(11)
C18 C 0.41403(9) -0.4643(2) 0.43088(11)
C19 C 0.44416(11) -0.5717(3) 0.42683(12)
H13 H 0.4519 -0.5866 0.3898
C20 C 0.46239(12) -0.6556(3) 0.47783(13)
H14 H 0.4824 -0.7283 0.4754
C21 C 0.45111(10) -0.6322(2) 0.53231(12)
H15 H 0.4640 -0.6891 0.5669
C22 C 0.40398(9) -0.4468(2) 0.48739(10)
H16 H 0.3840 -0.3749 0.4910
C23 C 0.08885(9) 0.2424(2) -0.14904(12)
C24 C 0.07951(8) 0.3690(2) -0.18626(10)
C25 C 0.05906(8) 0.3720(2) -0.25250(10)
H17 H 0.0513 0.2928 -0.2753
C26 C 0.05023(8) 0.4934(2) -0.28437(10)
C27 C 0.02818(9) 0.5008(2) -0.35479(11)
C28 C 0.06146(8) 0.6115(2) -0.25026(10)
H18 H 0.0551 0.6926 -0.2716
C29 C 0.08227(8) 0.6088(2) -0.18427(10)
C30 C 0.09645(8) 0.7332(2) -0.14591(10)
C31 C 0.09111(9) 0.4878(2) -0.15327(11)
H19 H 0.1052 0.4860 -0.1091
Zn1_2 Zn 0.101420(9) 0.99364(2) -0.113162(11)
Zn1C Zn 0.398580(9) -0.50636(2) 0.613162(11)
N2C N 0.07799(7) -0.02955(19) -0.03686(9)
O5_2 O 0.07392(6) -0.15952(15) -0.17003(7)
O9 O -0.04894(7) 0.4109(2) -0.50076(8)
H20 H -0.0598 0.4090 -0.4692
H21 H -0.0552 0.4878 -0.5174
O10 O 0.05031(15) -0.0278(3) -0.29376(13)
H22 H 0.0658 0.0206 -0.2619
H23 H 0.0198 -0.0378 -0.2941
loop_
_geom_bond_atom_site_label_1
_geom_bond_atom_site_label_2
_geom_bond_site_symmetry_1
_geom_bond_site_symmetry_2
Zn1 N1 1_555 1_555
O1 C23 1_555 1_555
N1 C1 1_555 1_555
C1 H1 1_555 1_555
O2 Zn1 1_555 1_555
N2 C21 1_555 1_555
C2 C1 1_555 1_555
H2 C2 1_555 1_555
O3 C27 1_555 1_555
C3 C2 1_555 1_555
H3 C3 1_555 1_555
O4 C27 1_555 1_555
C4 C3 1_555 1_555
O5 C30 1_555 1_555
N3 C4 1_555 1_555
H4 N3 1_555 1_555
C5 N1 1_555 1_555
H5 C5 1_555 1_555
O6 C30 1_555 1_555
N4 H6 1_555 1_555
C6 N3 1_555 1_555
C7 C6 1_555 1_555
C8 C7 1_555 1_555
C9 C8 1_555 1_555
H7 C9 1_555 1_555
C10 C9 1_555 1_555
H8 C10 1_555 1_555
C11 C10 1_555 1_555
H9 C11 1_555 1_555
C12 C11 1_555 1_555
H10 C12 1_555 1_555
O7 C6 1_555 1_555
C13 C8 1_555 1_555
O8 C17 1_555 1_555
C14 C13 1_555 1_555
C15 C14 1_555 1_555
H11 C15 1_555 1_555
C16 C7 1_555 1_555
H12 C16 1_555 1_555
C17 N4 1_555 1_555
C18 N4 1_555 1_555
C19 C18 1_555 1_555
H13 C19 1_555 1_555
C20 C19 1_555 1_555
H14 C20 1_555 1_555
C21 C20 1_555 1_555
H15 C21 1_555 1_555
C22 N2 1_555 1_555
H16 C22 1_555 1_555
C23 O2 1_555 1_555
C24 C23 1_555 1_555
C25 C24 1_555 1_555
H17 C25 1_555 1_555
C26 C25 1_555 1_555
C27 C26 1_555 1_555
C28 C26 1_555 1_555
H18 C28 1_555 1_555
C29 C28 1_555 1_555
C30 C29 1_555 1_555
C31 C24 1_555 1_555
H19 C31 1_555 1_555
O9 H20 1_555 1_555
H21 O9 1_555 1_555
O10 H22 1_555 1_555
H23 O10 1_555 1_555
Zn1_2 O5 1_555 1_555
Zn1C N2 1_555 1_555
N2C Zn1 1_555 1_555
O5_2 Zn1 1_555 1_555
C4 C5 1_555 1_555
C12 C13 1_555 1_555
C14 C17 1_555 1_555
C15 C16 1_555 1_555
C18 C22 1_555 1_555
C29 C31 1_555 1_555

#END
