
#######################################################################
#
#                 Cambridge Crystallographic Data Centre
#                                CCDC 
#
#######################################################################
#
# If this CIF has been generated from an entry in the Cambridge 
# Structural Database, then it will include bibliographic, chemical, 
# crystal, experimental, refinement or atomic coordinate data resulting 
# from the CCDC's data processing and validation procedures.
#
#######################################################################

data_XOMBUY
_symmetry_cell_setting           monoclinic
_symmetry_space_group_name_H-M   'P 21/n'
_symmetry_Int_Tables_number      14
_space_group_name_Hall           '-P 2yn'
loop_
_symmetry_equiv_pos_site_id
_symmetry_equiv_pos_as_xyz
1 x,y,z
2 1/2-x,1/2+y,1/2-z
3 -x,-y,-z
4 1/2+x,1/2-y,1/2+z
_cell_length_a                   11.3580(2)
_cell_length_b                   18.7948(4)
_cell_length_c                   13.6608(3)
_cell_angle_alpha                90
_cell_angle_beta                 100.4380(10)
_cell_angle_gamma                90
_cell_volume                     2867.93
loop_
_atom_site_label
_atom_site_type_symbol
_atom_site_fract_x
_atom_site_fract_y
_atom_site_fract_z
C1 C 1.1648(3) -0.29977(16) 0.9244(2)
H1 H 1.1562 -0.3462 0.9455
C2 C 1.2261(3) -0.25076(16) 0.9889(2)
H2 H 1.2580 -0.2650 1.0534
N1 N 1.2417(2) -0.18358(13) 0.96263(18)
C3 C 1.1957(3) -0.16446(16) 0.8688(2)
H3 H 1.2085 -0.1182 0.8487
C4 C 1.1162(3) -0.28003(16) 0.8286(2)
H4 H 1.0750 -0.3128 0.7840
C5 C 1.1300(3) -0.21034(15) 0.8003(2)
N2 N 1.0766(3) -0.18891(15) 0.7029(2)
O1 O 1.0728(3) -0.07101(12) 0.72935(16)
C6 C 1.0502(3) -0.12137(16) 0.6734(2)
C7 C 0.9910(3) -0.11146(15) 0.5668(2)
O2 O 0.1437(2) 0.31821(14) 0.29132(17)
C8 C 0.2458(3) 0.32284(16) 0.2699(2)
Cd1 Cd 0.647220(18) 0.102837(11) -0.083265(15)
H5 H 0.449(4) 0.041(2) -0.195(3)
H6 H 0.502(4) -0.012(2) -0.143(3)
C9 C 0.4703(3) 0.13981(15) 0.0199(2)
O3 O 0.3189(2) 0.36893(13) 0.30491(19)
O4 O 0.52952(19) 0.08603(11) 0.05387(17)
C10 C 0.2912(2) 0.21912(14) 0.0370(2)
N3 N 0.7670(2) 0.00533(12) -0.03965(17)
C11 C 0.2840(2) 0.26710(15) 0.2030(2)
O5 O 0.48343(18) 0.16926(11) -0.06033(15)
C12 C 0.9440(3) -0.09445(15) 0.0214(2)
H7 H 1.0041 -0.1277 0.0418
C13 C 0.3895(3) 0.17539(15) 0.0809(2)
N4 N 0.9161(2) -0.08002(13) 0.19155(18)
C14 C 0.8398(3) -0.07773(15) 0.2577(2)
O6 O 0.73222(19) -0.07219(12) 0.22933(15)
O7 O 0.5132(2) 0.02269(14) -0.17948(19)
C15 C 0.2382(2) 0.26538(14) 0.0992(2)
C16 C 0.4230(3) 0.17395(16) 0.1823(2)
H8 H 0.4813 0.1418 0.2114
C17 C 0.7937(3) -0.01503(14) 0.0556(2)
H9 H 0.7506 0.0043 0.1009
C18 C 0.8834(2) -0.06394(14) 0.0894(2)
C19 C 0.3711(3) 0.22002(17) 0.2430(2)
H10 H 0.3964 0.2185 0.3117
C20 C 0.8949(3) -0.08542(15) 0.3658(2)
C21 C 0.8263(3) -0.02488(15) -0.1049(2)
H11 H 0.8073 -0.0115 -0.1714
C22 C 0.2458(3) 0.21967(15) -0.0667(2)
H12 H 0.2785 0.1892 -0.1083
C23 C 0.9141(3) -0.07501(16) -0.0774(2)
H13 H 0.9529 -0.0956 -0.1247
C24 C 0.1441(3) 0.31093(17) 0.0550(2)
H14 H 0.1090 0.3416 0.0948
C25 C 0.1555(3) 0.26400(17) -0.1059(2)
H15 H 0.1270 0.2636 -0.1742
C26 C 0.1045(3) 0.31035(18) -0.0450(3)
H16 H 0.0432 0.3409 -0.0731
C27 C 0.8354(3) -0.05675(15) 0.4415(2)
C28 C 0.8823(3) -0.07213(16) 0.5429(2)
C29 C 1.0465(3) -0.13561(18) 0.4935(2)
H17 H 1.1181 -0.1605 0.5101
C30 C 0.9977(3) -0.12369(17) 0.3931(2)
H18 H 1.0362 -0.1422 0.3441
C31 C 0.7300(3) -0.01460(16) 0.4210(2)
H19 H 0.7006 -0.0006 0.3559
C32 C 0.8177(4) -0.0501(2) 0.6169(3)
H20 H 0.8473 -0.0610 0.6832
C33 C 0.6714(3) 0.0055(2) 0.4943(3)
H21 H 0.6019 0.0324 0.4786
C34 C 0.7140(4) -0.0135(2) 0.5935(3)
H22 H 0.6712 -0.0010 0.6429
H23 H 0.984(3) -0.0877(14) 0.210(2)
H24 H 1.056(3) -0.2183(19) 0.665(3)
N1B N 0.7583(2) 0.18358(13) 0.03737(18)
O2C O 0.6437(2) 0.18179(14) -0.20868(17)
Cd1B Cd 1.352780(18) -0.102837(11) 1.083265(15)
Cd1C Cd 0.147220(18) 0.397163(11) 0.416735(15)
O3C O 0.8189(2) 0.13107(13) -0.19509(19)
loop_
_geom_bond_atom_site_label_1
_geom_bond_atom_site_label_2
_geom_bond_site_symmetry_1
_geom_bond_site_symmetry_2
C1 H1 1_555 1_555
C2 C1 1_555 1_555
H2 C2 1_555 1_555
N1 C2 1_555 1_555
C3 N1 1_555 1_555
H3 C3 1_555 1_555
C4 C1 1_555 1_555
H4 C4 1_555 1_555
C5 C3 1_555 1_555
N2 C5 1_555 1_555
O1 C6 1_555 1_555
C6 N2 1_555 1_555
C7 C6 1_555 1_555
O2 C8 1_555 1_555
C8 O3 1_555 1_555
Cd1 O4 1_555 1_555
H5 O7 1_555 1_555
H6 O7 1_555 1_555
C9 O4 1_555 1_555
O3 Cd1C 1_555 1_555
C10 C13 1_555 1_555
N3 Cd1 1_555 1_555
C11 C8 1_555 1_555
O5 Cd1 1_555 1_555
C12 H7 1_555 1_555
C13 C9 1_555 1_555
N4 C14 1_555 1_555
C14 O6 1_555 1_555
O7 Cd1 1_555 1_555
C15 C10 1_555 1_555
C16 C13 1_555 1_555
H8 C16 1_555 1_555
C17 N3 1_555 1_555
H9 C17 1_555 1_555
C18 C12 1_555 1_555
C19 C11 1_555 1_555
H10 C19 1_555 1_555
C20 C14 1_555 1_555
C21 N3 1_555 1_555
H11 C21 1_555 1_555
C22 C10 1_555 1_555
H12 C22 1_555 1_555
C23 C12 1_555 1_555
H13 C23 1_555 1_555
C24 C15 1_555 1_555
H14 C24 1_555 1_555
C25 C22 1_555 1_555
H15 C25 1_555 1_555
C26 C24 1_555 1_555
H16 C26 1_555 1_555
C27 C20 1_555 1_555
C28 C7 1_555 1_555
C29 C7 1_555 1_555
H17 C29 1_555 1_555
C30 C20 1_555 1_555
H18 C30 1_555 1_555
C31 C27 1_555 1_555
H19 C31 1_555 1_555
C32 C28 1_555 1_555
H20 C32 1_555 1_555
C33 C31 1_555 1_555
H21 C33 1_555 1_555
C34 C32 1_555 1_555
H22 C34 1_555 1_555
H23 N4 1_555 1_555
H24 N2 1_555 1_555
N1B Cd1 1_555 1_555
O2C Cd1 1_555 1_555
Cd1B N1 1_555 1_555
Cd1C O2 1_555 1_555
O3C Cd1 1_555 1_555
C4 C5 1_555 1_555
C9 O5 1_555 1_555
C11 C15 1_555 1_555
N4 C18 1_555 1_555
C16 C19 1_555 1_555
C17 C18 1_555 1_555
C21 C23 1_555 1_555
C25 C26 1_555 1_555
C27 C28 1_555 1_555
C29 C30 1_555 1_555
C33 C34 1_555 1_555

#END
