
#######################################################################
#
#                 Cambridge Crystallographic Data Centre
#                                CCDC 
#
#######################################################################
#
# If this CIF has been generated from an entry in the Cambridge 
# Structural Database, then it will include bibliographic, chemical, 
# crystal, experimental, refinement or atomic coordinate data resulting 
# from the CCDC's data processing and validation procedures.
#
#######################################################################

data_XOMBOS
_symmetry_cell_setting           monoclinic
_symmetry_space_group_name_H-M   'P 21/c'
_symmetry_Int_Tables_number      14
_space_group_name_Hall           '-P 2ybc'
loop_
_symmetry_equiv_pos_site_id
_symmetry_equiv_pos_as_xyz
1 x,y,z
2 -x,1/2+y,1/2-z
3 -x,-y,-z
4 x,1/2-y,1/2+z
_cell_length_a                   13.2139(5)
_cell_length_b                   21.7434(8)
_cell_length_c                   16.7754(6)
_cell_angle_alpha                90
_cell_angle_beta                 127.107(2)
_cell_angle_gamma                90
_cell_volume                     3843.86
loop_
_atom_site_label
_atom_site_type_symbol
_atom_site_fract_x
_atom_site_fract_y
_atom_site_fract_z
C1 C -0.0324(2) 0.23020(11) -0.09702(18)
C2 C 1.2856(4) 0.6109(2) 0.3812(3)
H1 H 1.3201 0.6151 0.4483
C3 C 0.1861(5) 0.2162(3) 0.2157(3)
H2 H 0.2349 0.2116 0.2847
C4 C 0.9815(2) 0.56329(13) 0.1401(2)
C5 C 0.1365(2) 0.28716(12) -0.07760(19)
H3 H 0.1662 0.3088 -0.1076
C6 C -0.1630(2) 0.20223(12) -0.16551(18)
C7 C 0.0603(5) 0.1941(3) 0.1542(3)
H4 H 0.0254 0.1763 0.1830
C8 C 0.0154(2) 0.26079(13) -0.13805(19)
H5 H -0.0329 0.2643 -0.2072
C9 C 0.5089(2) 0.48456(12) 0.1365(2)
H6 H 0.4461 0.4690 0.1399
C10 C 0.3424(2) 0.31061(13) 0.08110(19)
C11 C 0.6974(2) 0.47159(11) 0.16005(18)
H7 H 0.7670 0.4471 0.1807
C12 C 1.1883(3) 0.61944(13) 0.0292(2)
C13 C 0.2115(2) 0.28206(11) 0.02292(18)
C14 C 1.3172(2) 0.67801(12) -0.05139(19)
H8 H 1.2569 0.6486 -0.0936
C15 C 1.3210(2) 0.69897(12) 0.0283(2)
C16 C 0.4977(3) 0.54345(13) 0.1038(2)
H9 H 0.4285 0.5674 0.0856
C17 C 1.1077(2) 0.58554(14) 0.2116(2)
C18 C 1.0000(3) 0.58135(14) 0.0080(2)
H10 H 0.9629 0.5798 -0.0599
C19 C 1.1208(2) 0.60272(12) 0.0731(2)
C20 C 0.5901(2) 0.56699(12) 0.0983(2)
H11 H 0.5834 0.6069 0.0755
C21 C 0.6924(2) 0.53080(11) 0.12681(18)
C22 C 0.9072(3) 0.53750(13) 0.1732(2)
C23 C 1.4069(3) 0.74426(14) 0.0881(2)
H12 H 1.4116 0.7597 0.1419
C24 C 1.1790(2) 0.60478(13) 0.1768(2)
C25 C 0.1648(2) 0.25112(16) 0.0693(2)
C26 C 0.0388(2) 0.22645(15) 0.0075(2)
C27 C 1.4798(3) 0.74192(13) -0.0108(2)
H13 H 1.5358 0.7563 -0.0227
C28 C 0.9304(3) 0.56168(14) 0.0415(2)
H14 H 0.8481 0.5473 -0.0046
C29 C 1.4859(3) 0.76632(15) 0.0669(2)
H15 H 1.5431 0.7977 0.1053
C30 C 0.2358(3) 0.2442(3) 0.1742(2)
H16 H 0.3184 0.2593 0.2155
C31 C 1.3582(4) 0.6253(2) 0.3483(3)
H17 H 1.4427 0.6366 0.3947
C32 C 1.1647(3) 0.59059(18) 0.3146(3)
H18 H 1.1181 0.5797 0.3374
C33 C -0.0095(3) 0.1984(2) 0.0543(3)
H19 H -0.0915 0.1826 0.0150
C34 C 1.3069(3) 0.62313(18) 0.2500(3)
H20 H 1.3565 0.6339 0.2299
Cd1 Cd 0.598889(14) 0.345319(8) 0.197826(12)
N1 N 0.60666(17) 0.44833(9) 0.16363(15)
N2 N 0.7826(2) 0.55377(10) 0.11561(17)
H21 H 0.757(3) 0.5837(10) 0.0713(18)
N3 N 1.2430(2) 0.67584(11) 0.05275(19)
H22 H 1.236(3) 0.7028(12) 0.089(2)
N4 N 1.39634(18) 0.69810(9) -0.07061(15)
O1 O 0.35649(16) 0.35926(9) 0.04983(15)
O2 O 0.43385(15) 0.28298(9) 0.15626(14)
O3 O -0.17504(18) 0.15415(9) -0.20949(17)
O4 O -0.25472(15) 0.22923(9) -0.17810(14)
O5 O 0.95490(19) 0.50446(12) 0.24635(18)
O6 O 1.1911(2) 0.58373(10) -0.02502(19)
O7 O 0.5808(4) 0.38502(13) 0.3185(2)
H23 H 0.646(3) 0.4184(14) 0.362(2)
H24 H 0.497(2) 0.4001(11) 0.3048(18)
Cd1B Cd 1.401111(14) 0.654681(8) -0.197826(12)
Cd1C Cd -0.401111(14) 0.154681(8) -0.302174(12)
N4B N 0.60366(18) 0.30190(9) 0.07061(15)
O3C O 0.82496(18) 0.34585(9) 0.29051(17)
O4C O 0.74528(15) 0.27077(9) 0.32190(14)
loop_
_geom_bond_atom_site_label_1
_geom_bond_atom_site_label_2
_geom_bond_site_symmetry_1
_geom_bond_site_symmetry_2
C1 C6 1_555 1_555
C2 H1 1_555 1_555
C3 H2 1_555 1_555
C4 C17 1_555 1_555
C5 H3 1_555 1_555
C6 O3 1_555 1_555
C7 C3 1_555 1_555
H4 C7 1_555 1_555
C8 C1 1_555 1_555
H5 C8 1_555 1_555
C9 H6 1_555 1_555
C10 C13 1_555 1_555
C11 H7 1_555 1_555
C12 C19 1_555 1_555
C13 C5 1_555 1_555
C14 H8 1_555 1_555
C15 C14 1_555 1_555
C16 C9 1_555 1_555
H9 C16 1_555 1_555
C17 C24 1_555 1_555
C18 H10 1_555 1_555
C19 C18 1_555 1_555
C20 C16 1_555 1_555
H11 C20 1_555 1_555
C21 C11 1_555 1_555
C22 C4 1_555 1_555
C23 C15 1_555 1_555
H12 C23 1_555 1_555
C24 C19 1_555 1_555
C25 C13 1_555 1_555
C26 C1 1_555 1_555
C27 H13 1_555 1_555
C28 C4 1_555 1_555
H14 C28 1_555 1_555
C29 C23 1_555 1_555
H15 C29 1_555 1_555
C30 C3 1_555 1_555
H16 C30 1_555 1_555
C31 C2 1_555 1_555
H17 C31 1_555 1_555
C32 C2 1_555 1_555
H18 C32 1_555 1_555
C33 C7 1_555 1_555
H19 C33 1_555 1_555
C34 C24 1_555 1_555
H20 C34 1_555 1_555
Cd1 N1 1_555 1_555
N1 C9 1_555 1_555
N2 C21 1_555 1_555
H21 N2 1_555 1_555
N3 C12 1_555 1_555
H22 N3 1_555 1_555
N4 C14 1_555 1_555
O1 C10 1_555 1_555
O2 C10 1_555 1_555
O3 Cd1C 1_555 1_555
O4 C6 1_555 1_555
O5 C22 1_555 1_555
O6 C12 1_555 1_555
O7 Cd1 1_555 1_555
H23 O7 1_555 1_555
H24 O7 1_555 1_555
Cd1B N4 1_555 1_555
Cd1C O4 1_555 1_555
N4B Cd1 1_555 1_555
O3C Cd1 1_555 1_555
O4C Cd1 1_555 1_555
C5 C8 1_555 1_555
C11 N1 1_555 1_555
C15 N3 1_555 1_555
C17 C32 1_555 1_555
C18 C28 1_555 1_555
C20 C21 1_555 1_555
C22 N2 1_555 1_555
C25 C26 1_555 1_555
C25 C30 1_555 1_555
C26 C33 1_555 1_555
C27 C29 1_555 1_555
C27 N4 1_555 1_555
C31 C34 1_555 1_555
Cd1 O1 1_555 1_555
Cd1 O2 1_555 1_555

#END
