
#######################################################################
#
#                 Cambridge Crystallographic Data Centre
#                                CCDC 
#
#######################################################################
#
# If this CIF has been generated from an entry in the Cambridge 
# Structural Database, then it will include bibliographic, chemical, 
# crystal, experimental, refinement or atomic coordinate data resulting 
# from the CCDC's data processing and validation procedures.
#
#######################################################################

data_XOMDUA
_symmetry_cell_setting           triclinic
_symmetry_space_group_name_H-M   'P -1'
_symmetry_Int_Tables_number      2
_space_group_name_Hall           '-P 1'
loop_
_symmetry_equiv_pos_site_id
_symmetry_equiv_pos_as_xyz
1 x,y,z
2 -x,-y,-z
_cell_length_a                   9.3542(14)
_cell_length_b                   11.1933(16)
_cell_length_c                   11.9630(18)
_cell_angle_alpha                62.314(11)
_cell_angle_beta                 68.905(12)
_cell_angle_gamma                73.544(11)
_cell_volume                     1024.58
loop_
_atom_site_label
_atom_site_type_symbol
_atom_site_fract_x
_atom_site_fract_y
_atom_site_fract_z
O1 O 0.351(2) 0.8681(14) 0.7212(14)
Pb1 Pb 0.52983(4) 0.75180(3) 0.54471(3)
C1 C 0.9495(10) 0.6817(12) 0.7263(9)
H1 H 1.0515 0.6986 0.6874
C2 C 0.8470(10) 0.7324(11) 0.6498(9)
H2 H 0.8828 0.7836 0.5604
C3 C 0.6512(9) 0.6436(9) 0.8285(8)
H3 H 0.5473 0.6326 0.8658
C4 C 0.7455(9) 0.5897(9) 0.9105(8)
H4 H 0.7056 0.5421 1.0001
C5 C 0.9021(9) 0.6066(8) 0.8591(8)
C6 C 1.0118(9) 0.5477(8) 0.9396(8)
H5 H 1.1064 0.5805 0.9023
N1 N 0.3786(8) 0.4935(9) 0.7094(7)
N2 N 0.2872(13) 0.9660(10) 0.6415(10)
N3 N 0.6985(8) 0.7110(7) 0.6986(7)
O2 O 0.4280(8) 0.5433(8) 0.7618(6)
O3 O 0.7215(7) 0.5558(6) 0.5188(6)
O4 O 0.3485(7) 0.5737(6) 0.6001(6)
O5 O 0.3616(10) 0.3759(9) 0.7602(9)
O6 O 0.2218(15) 0.9238(17) 0.5958(18)
O7 O 0.2376(7) 1.0774(6) 0.6474(7)
N4 N 0.3940(9) 0.8738(10) 0.3434(8)
C7 C 0.2476(12) 0.8673(12) 0.3638(11)
H6 H 0.1970 0.8072 0.4452
C8 C 0.1641(11) 0.9446(11) 0.2714(10)
H7 H 0.0618 0.9344 0.2901
C9 C 0.1600(10) 1.1234(8) 0.0454(8)
H8 H 0.2171 1.1844 -0.0313
C10 C 0.2374(9) 1.0385(8) 0.1496(8)
C11 C 0.3898(11) 1.0433(10) 0.1306(9)
H9 H 0.4439 1.1032 0.0510
C12 C 0.0173(10) 1.1226(9) 0.0489(9)
H10 H -0.0416 1.0634 0.1258
C13 C 0.4638(11) 0.9606(11) 0.2276(10)
H11 H 0.5674 0.9661 0.2109
C14 C 0.0281(10) 1.2768(9) -0.1869(9)
H12 H 0.1351 1.2702 -0.2077
C15 C -0.0562(9) 1.2078(8) -0.0591(8)
C16 C -0.2144(11) 1.2216(11) -0.0365(10)
H13 H -0.2749 1.1764 0.0473
N5 N -0.2018(8) 1.3692(7) -0.2601(7)
C17 C -0.0499(10) 1.3556(9) -0.2831(9)
H14 H 0.0077 1.4012 -0.3681
C18 C -0.2838(11) 1.3026(10) -0.1382(10)
H15 H -0.3905 1.3107 -0.1207
C1A C 1.0505(10) 0.3183(12) 1.2737(9)
H1A H 0.9485 0.3014 1.3126
C2A C 1.1530(10) 0.2676(11) 1.3502(9)
H2A H 1.1172 0.2164 1.4396
C3A C 1.3488(9) 0.3564(9) 1.1715(8)
H3A H 1.4527 0.3674 1.1342
C4A C 1.2545(9) 0.4103(9) 1.0895(8)
H4A H 1.2944 0.4579 0.9999
C5A C 1.0979(9) 0.3934(8) 1.1409(8)
C6A C 0.9882(9) 0.4523(8) 1.0604(8)
H5A H 0.8936 0.4195 1.0977
N3A N 1.3015(8) 0.2890(7) 1.3014(7)
O1A O 0.649(2) 1.1319(14) 0.2788(14)
Pb1A Pb 0.47017(4) 1.24820(3) 0.45529(3)
N1A N 0.6214(8) 1.5065(9) 0.2906(7)
N2A N 0.7128(13) 1.0340(10) 0.3585(10)
O2A O 0.5720(8) 1.4567(8) 0.2382(6)
O3A O 0.2785(7) 1.4442(6) 0.4812(6)
O4A O 0.6515(7) 1.4263(6) 0.3999(6)
O5A O 0.6384(10) 1.6241(9) 0.2398(9)
O6A O 0.7782(15) 1.0762(17) 0.4042(18)
O7A O 0.7624(7) 0.9226(6) 0.3526(7)
N4A N 0.6060(9) 1.1262(10) 0.6566(8)
C7A C 0.7524(12) 1.1327(12) 0.6362(11)
H6A H 0.8030 1.1928 0.5548
C8A C 0.8359(11) 1.0554(11) 0.7286(10)
H7A H 0.9382 1.0656 0.7099
C9A C 0.8400(10) 0.8766(8) 0.9546(8)
H8A H 0.7829 0.8156 1.0313
C10A C 0.7626(9) 0.9615(8) 0.8504(8)
C11A C 0.6102(11) 0.9567(10) 0.8694(9)
H9A H 0.5561 0.8968 0.9490
C12A C 0.9827(10) 0.8774(9) 0.9511(9)
H10A H 1.0416 0.9366 0.8742
C13A C 0.5362(11) 1.0394(11) 0.7724(10)
H11A H 0.4326 1.0339 0.7891
C14A C 0.9719(10) 0.7232(9) 1.1869(9)
H12A H 0.8649 0.7298 1.2077
C15A C 1.0562(9) 0.7922(8) 1.0591(8)
C16A C 1.2144(11) 0.7784(11) 1.0365(10)
H13A H 1.2749 0.8236 0.9527
N5A N 1.2018(8) 0.6308(7) 1.2601(7)
C17A C 1.0499(10) 0.6444(9) 1.2831(9)
H14A H 0.9923 0.5988 1.3681
C18A C 1.2838(11) 0.6974(10) 1.1382(10)
H15A H 1.3905 0.6893 1.1207
Pb1A_2 Pb 1.47017(4) 0.24820(3) 1.45529(3)
N3A_2 N 0.3015(8) 1.2890(7) 0.3014(7)
loop_
_geom_bond_atom_site_label_1
_geom_bond_atom_site_label_2
_geom_bond_site_symmetry_1
_geom_bond_site_symmetry_2
O1 Pb1 1_555 1_555
Pb1 N3 1_555 1_555
C1 H1 1_555 1_555
C2 C1 1_555 1_555
H2 C2 1_555 1_555
C3 H3 1_555 1_555
C4 C3 1_555 1_555
H4 C4 1_555 1_555
C5 C1 1_555 1_555
C6 C5 1_555 1_555
H5 C6 1_555 1_555
N1 O2 1_555 1_555
N2 O1 1_555 1_555
N3 C2 1_555 1_555
O2 Pb1 1_555 1_555
O3 Pb1 1_555 1_555
O4 Pb1 1_555 1_555
O5 N1 1_555 1_555
O6 N2 1_555 1_555
O7 N2 1_555 1_555
N4 Pb1 1_555 1_555
C7 N4 1_555 1_555
H6 C7 1_555 1_555
C8 C7 1_555 1_555
H7 C8 1_555 1_555
C9 H8 1_555 1_555
C10 C8 1_555 1_555
C11 C10 1_555 1_555
H9 C11 1_555 1_555
C12 C9 1_555 1_555
H10 C12 1_555 1_555
C13 N4 1_555 1_555
H11 C13 1_555 1_555
C14 H12 1_555 1_555
C15 C12 1_555 1_555
C16 C15 1_555 1_555
H13 C16 1_555 1_555
N5 C17 1_555 1_555
C17 C14 1_555 1_555
H14 C17 1_555 1_555
C18 C16 1_555 1_555
H15 C18 1_555 1_555
C1A H1A 1_555 1_555
C2A C1A 1_555 1_555
H2A C2A 1_555 1_555
C3A H3A 1_555 1_555
C4A C3A 1_555 1_555
H4A C4A 1_555 1_555
C5A C1A 1_555 1_555
C6A C6 1_555 1_555
H5A C6A 1_555 1_555
N3A C2A 1_555 1_555
O1A Pb1A 1_555 1_555
Pb1A O7 1_555 1_555
N1A O2A 1_555 1_555
N2A O1A 1_555 1_555
O2A Pb1A 1_555 1_555
O3A Pb1A 1_555 1_555
O4A Pb1A 1_555 1_555
O5A N1A 1_555 1_555
O6A N2A 1_555 1_555
O7A Pb1 1_555 1_555
N4A Pb1A 1_555 1_555
C7A N4A 1_555 1_555
H6A C7A 1_555 1_555
C8A C7A 1_555 1_555
H7A C8A 1_555 1_555
C9A H8A 1_555 1_555
C10A C8A 1_555 1_555
C11A C10A 1_555 1_555
H9A C11A 1_555 1_555
C12A C9A 1_555 1_555
H10A C12A 1_555 1_555
C13A N4A 1_555 1_555
H11A C13A 1_555 1_555
C14A H12A 1_555 1_555
C15A C12A 1_555 1_555
C16A C15A 1_555 1_555
H13A C16A 1_555 1_555
N5A C17A 1_555 1_555
C17A C14A 1_555 1_555
H14A C17A 1_555 1_555
C18A C16A 1_555 1_555
H15A C18A 1_555 1_555
Pb1A_2 N3A 1_555 1_555
N3A_2 Pb1A 1_555 1_555
C3 N3 1_555 1_555
C4 C5 1_555 1_555
N1 O4 1_555 1_555
C9 C10 1_555 1_555
C11 C13 1_555 1_555
C14 C15 1_555 1_555
N5 C18 1_555 1_555
C3A N3A 1_555 1_555
C4A C5A 1_555 1_555
C5A C6A 1_555 1_555
N1A O4A 1_555 1_555
N2A O7A 1_555 1_555
C9A C10A 1_555 1_555
C11A C13A 1_555 1_555
C14A C15A 1_555 1_555
N5A C18A 1_555 1_555

#END
