
#######################################################################
#
#                 Cambridge Crystallographic Data Centre
#                                CCDC 
#
#######################################################################
#
# If this CIF has been generated from an entry in the Cambridge 
# Structural Database, then it will include bibliographic, chemical, 
# crystal, experimental, refinement or atomic coordinate data resulting 
# from the CCDC's data processing and validation procedures.
#
#######################################################################

data_XOMDOU
_symmetry_cell_setting           hexagonal
_symmetry_space_group_name_H-M   'P 65 2 2'
_symmetry_Int_Tables_number      179
_space_group_name_Hall           "P 65 2' (0,0,1)"
loop_
_symmetry_equiv_pos_site_id
_symmetry_equiv_pos_as_xyz
1 x,y,z
2 -y,x-y,2/3+z
3 -x+y,-x,1/3+z
4 -x,-y,1/2+z
5 y,-x+y,1/6+z
6 x-y,x,5/6+z
7 y,x,2/3-z
8 x-y,-y,-z
9 -x,-x+y,1/3-z
10 -y,-x,1/6-z
11 -x+y,y,1/2-z
12 x,x-y,5/6-z
_cell_length_a                   15.825(5)
_cell_length_b                   15.825(5)
_cell_length_c                   43.703(19)
_cell_angle_alpha                90
_cell_angle_beta                 90
_cell_angle_gamma                120
_cell_volume                     9478.28
loop_
_atom_site_label
_atom_site_type_symbol
_atom_site_fract_x
_atom_site_fract_y
_atom_site_fract_z
Ag1 Ag 0.413163(10) 0.586837(10) 0.0833
Ag2 Ag 0.247573(10) 0.752427(10) 0.0833
Ag3 Ag 0.54626(2) 0.773129(12) -0.0833
C1 C 0.58777(16) 0.66765(16) 0.03511(5)
C2 C 0.63950(17) 0.65174(19) 0.05893(6)
H1 H 0.6079 0.6249 0.0779
C3 C 0.73437(17) 0.6748(2) 0.05479(7)
H2 H 0.7673 0.6614 0.0706
C4 C 0.78456(18) 0.7192(2) 0.02689(7)
H3 H 0.8509 0.7361 0.0245
C5 C 0.73790(16) 0.73747(17) 0.00352(6)
H4 H 0.7715 0.7688 -0.0147
C6 C 0.64003(15) 0.70877(15) 0.00738(5)
C7 C 0.49610(15) 0.69965(15) -0.01200(6)
H5 H 0.4609 0.7084 -0.0281
C8 C 0.45110(15) 0.66488(14) 0.01676(5)
C9 C 0.35199(16) 0.65086(16) 0.02149(6)
C10 C 0.30387(15) 0.67816(16) -0.00285(6)
H6 H 0.3540 0.7367 -0.0138
H7 H 0.2575 0.6949 0.0068
C11 C 0.2494(2) 0.5961(2) -0.02578(7)
H8 H 0.2944 0.5772 -0.0347
H9 H 0.2225 0.6184 -0.0420
H10 H 0.1961 0.5398 -0.0154
C12 C 0.1292(2) 0.3704(2) 0.07719(8)
H11 H 0.1847 0.4090 0.0908
H12 H 0.1335 0.3147 0.0692
H13 H 0.0682 0.3467 0.0886
C13 C 0.13125(18) 0.43402(17) 0.05054(7)
H14 H 0.1829 0.4427 0.0360
H15 H 0.0680 0.3999 0.0396
C14 C 0.14946(15) 0.53143(17) 0.06048(6)
C15 C 0.07175(15) 0.54193(17) 0.07609(6)
C16 C -0.02338(15) 0.46389(17) 0.07707(6)
H16 H -0.0375 0.4032 0.0684
C17 C -0.07429(16) 0.56140(17) 0.10347(6)
C18 C -0.14741(18) 0.57504(19) 0.11522(7)
H17 H -0.2136 0.5241 0.1147
C19 C -0.12234(19) 0.6632(2) 0.12751(7)
H18 H -0.1718 0.6733 0.1361
C20 C -0.0243(2) 0.7409(2) 0.12796(7)
H19 H -0.0085 0.8017 0.1370
C21 C 0.04601(18) 0.72796(18) 0.11559(7)
H20 H 0.1114 0.7806 0.1157
C22 C 0.02517(16) 0.63737(17) 0.10232(6)
N1 N 0.58633(13) 0.71986(13) -0.01648(4)
N2 N 0.49602(13) 0.64793(13) 0.03976(5)
N3 N 0.31257(13) 0.61222(13) 0.04712(5)
N4 N 0.22864(13) 0.61122(13) 0.05670(5)
N5 N 0.09657(14) 0.62856(14) 0.08927(5)
N6 N -0.09463(13) 0.47225(14) 0.08982(5)
O1 O -0.18444(12) 0.39857(12) 0.09033(5)
O2 O 0.62952(11) 0.74915(12) -0.04325(4)
C1I C 0.33235(16) 0.41223(16) 0.13156(5)
C2I C 0.34826(19) 0.36050(17) 0.10774(6)
H1I H 0.3751 0.3921 0.0888
C3I C 0.3252(2) 0.26563(17) 0.11188(7)
H2I H 0.3386 0.2327 0.0961
C4I C 0.2808(2) 0.21544(18) 0.13978(7)
H3I H 0.2639 0.1491 0.1422
C5I C 0.26253(17) 0.26210(16) 0.16315(6)
H4I H 0.2312 0.2285 0.1814
C6I C 0.29123(15) 0.35997(15) 0.15929(5)
C7I C 0.30035(15) 0.50390(15) 0.17867(6)
H5I H 0.2916 0.5391 0.1948
C8I C 0.33512(14) 0.54890(15) 0.14991(5)
C9I C 0.34914(16) 0.64801(16) 0.14518(6)
C10I C 0.32184(16) 0.69613(15) 0.16952(6)
H6I H 0.2633 0.6460 0.1805
H7I H 0.3051 0.7425 0.1599
C11I C 0.4039(2) 0.7506(2) 0.19245(7)
H8I H 0.4228 0.7056 0.2014
H9I H 0.3816 0.7775 0.2087
H10I H 0.4602 0.8039 0.1821
C12I C 0.6296(2) 0.8708(2) 0.08948(8)
H11I H 0.5910 0.8153 0.0759
H12I H 0.6853 0.8665 0.0975
H13I H 0.6533 0.9318 0.0781
C13I C 0.56598(17) 0.86875(18) 0.11613(7)
H14I H 0.5573 0.8171 0.1307
H15I H 0.6001 0.9320 0.1271
C14I C 0.46857(17) 0.85054(15) 0.10619(6)
C15I C 0.45807(17) 0.92825(15) 0.09058(6)
C16I C 0.53611(17) 1.02338(15) 0.08960(6)
H16I H 0.5968 1.0375 0.0983
C17I C 0.43860(17) 1.07429(16) 0.06320(6)
C18I C 0.42496(19) 1.14741(18) 0.05145(7)
H17I H 0.4759 1.2136 0.0520
C19I C 0.3368(2) 1.12234(19) 0.03916(7)
H18I H 0.3267 1.1718 0.0306
C20I C 0.2591(2) 1.0243(2) 0.03871(7)
H19I H 0.1983 1.0085 0.0297
C21I C 0.27204(18) 0.95399(18) 0.05108(7)
H20I H 0.2194 0.8886 0.0510
C22I C 0.36263(17) 0.97483(16) 0.06435(6)
N1I N 0.28014(13) 0.41367(13) 0.18315(4)
N2I N 0.35207(13) 0.50398(13) 0.12691(5)
N3I N 0.38778(13) 0.68743(13) 0.11955(5)
N4I N 0.38878(13) 0.77136(13) 0.10997(5)
N5I N 0.37144(14) 0.90343(14) 0.07740(5)
N6I N 0.52775(14) 1.09463(13) 0.07685(5)
O1I O 0.60143(12) 1.18444(12) 0.07634(5)
O2I O 0.25085(12) 0.37048(11) 0.20992(4)
Ag3B Ag 0.226869(23) 0.45374(2) 0.2500
Ag3D Ag -0.226871(12) 0.226869(23) 0.0834
Ag3D_2 Ag 0.773129(12) 1.226869(23) 0.0834
O1E O 0.41699(17) 0.81556(12) -0.07634(5)
O1G O 0.41699(17) 0.60143(12) -0.09033(5)
O2K O 0.62952(11) 0.88037(16) -0.12342(4)
F1 F 0.48534(12) 0.48239(11) 0.99077(4)
F2 F 0.41790(13) 0.35229(14) 1.03561(4)
F3 F 0.40526(11) 0.29376(11) 0.97870(4)
F4 F 0.24640(10) 0.25969(11) 1.00888(4)
F5 F 0.31414(13) 0.39044(15) 0.96358(5)
F6 F 0.32482(13) 0.44616(12) 1.02083(5)
Sb1 Sb 0.365278(10) 0.370872(11) 0.999561(4)
F7 F -0.08197(17) 0.4091(2) 0.18372(7)
F8 F 0.07371(13) 0.40812(16) 0.20302(4)
F9 F 0.08438(14) 0.3328(2) 0.15131(5)
Sb2 Sb 0.0000 0.37067(2) 0.1667
F7H F 0.08197(17) 0.49107(26) 0.14961(7)
F8H F -0.07371(13) 0.33441(21) 0.13031(4)
F9H F -0.08438(14) 0.24842(24) 0.18202(5)
loop_
_geom_bond_atom_site_label_1
_geom_bond_atom_site_label_2
_geom_bond_site_symmetry_1
_geom_bond_site_symmetry_2
Ag1 N2 1_555 1_555
Ag2 N4 1_555 1_555
Ag3 O2 1_555 1_555
C1 C2 1_555 1_555
C2 H1 1_555 1_555
C3 C2 1_555 1_555
H2 C3 1_555 1_555
C4 C3 1_555 1_555
H3 C4 1_555 1_555
C5 C4 1_555 1_555
H4 C5 1_555 1_555
C6 C1 1_555 1_555
C7 H5 1_555 1_555
C8 C7 1_555 1_555
C9 C8 1_555 1_555
C10 C9 1_555 1_555
H6 C10 1_555 1_555
H7 C10 1_555 1_555
C11 C10 1_555 1_555
H8 C11 1_555 1_555
H9 C11 1_555 1_555
H10 C11 1_555 1_555
C12 H11 1_555 1_555
H12 C12 1_555 1_555
H13 C12 1_555 1_555
C13 C12 1_555 1_555
H14 C13 1_555 1_555
H15 C13 1_555 1_555
C14 C13 1_555 1_555
C15 C14 1_555 1_555
C16 C15 1_555 1_555
H16 C16 1_555 1_555
C17 C18 1_555 1_555
C18 H17 1_555 1_555
C19 C18 1_555 1_555
H18 C19 1_555 1_555
C20 C19 1_555 1_555
H19 C20 1_555 1_555
C21 C20 1_555 1_555
H20 C21 1_555 1_555
C22 C17 1_555 1_555
N1 C6 1_555 1_555
N2 C1 1_555 1_555
N3 Ag1 1_555 1_555
N4 C14 1_555 1_555
N5 Ag2 1_555 1_555
N6 C16 1_555 1_555
O1 N6 1_555 1_555
O2 N1 1_555 1_555
F1 Sb1 1_555 1_555
F2 Sb1 1_555 1_555
F3 Sb1 1_555 1_555
F4 Sb1 1_555 1_555
F5 Sb1 1_555 1_555
F6 Sb1 1_555 1_555
F7 Sb2 1_555 1_555
F8 Sb2 1_555 1_555
F9 Sb2 1_555 1_555
Sb2 F7H 1_555 1_555
C1I C2I 1_555 1_555
C2I H1I 1_555 1_555
C3I C2I 1_555 1_555
H2I C3I 1_555 1_555
C4I C3I 1_555 1_555
H3I C4I 1_555 1_555
C5I C4I 1_555 1_555
H4I C5I 1_555 1_555
C6I C1I 1_555 1_555
C7I H5I 1_555 1_555
C8I C7I 1_555 1_555
C9I C8I 1_555 1_555
C10I C9I 1_555 1_555
H6I C10I 1_555 1_555
H7I C10I 1_555 1_555
C11I C10I 1_555 1_555
H8I C11I 1_555 1_555
H9I C11I 1_555 1_555
H10I C11I 1_555 1_555
C12I H11I 1_555 1_555
H12I C12I 1_555 1_555
H13I C12I 1_555 1_555
C13I C12I 1_555 1_555
H14I C13I 1_555 1_555
H15I C13I 1_555 1_555
C14I C13I 1_555 1_555
C15I C14I 1_555 1_555
C16I C15I 1_555 1_555
H16I C16I 1_555 1_555
C17I C18I 1_555 1_555
C18I H17I 1_555 1_555
C19I C18I 1_555 1_555
H18I C19I 1_555 1_555
C20I C19I 1_555 1_555
H19I C20I 1_555 1_555
C21I C20I 1_555 1_555
H20I C21I 1_555 1_555
C22I C17I 1_555 1_555
N1I C6I 1_555 1_555
N2I Ag1 1_555 1_555
N3I Ag1 1_555 1_555
N4I Ag2 1_555 1_555
N5I Ag2 1_555 1_555
N6I C16I 1_555 1_555
O1I N6I 1_555 1_555
O2I N1I 1_555 1_555
Ag3B O2I 1_555 1_555
Ag3D O1 1_555 1_555
Ag3D_2 O1I 1_555 1_555
O1E Ag3 1_555 1_555
O1G Ag3 1_555 1_555
O2K Ag3 1_555 1_555
F8H Sb2 1_555 1_555
F9H Sb2 1_555 1_555
C5 C6 1_555 1_555
C7 N1 1_555 1_555
C8 N2 1_555 1_555
C9 N3 1_555 1_555
C15 N5 1_555 1_555
C17 N6 1_555 1_555
C21 C22 1_555 1_555
C22 N5 1_555 1_555
N3 N4 1_555 1_555
C1I N2I 1_555 1_555
C5I C6I 1_555 1_555
C7I N1I 1_555 1_555
C8I N2I 1_555 1_555
C9I N3I 1_555 1_555
C14I N4I 1_555 1_555
C15I N5I 1_555 1_555
C17I N6I 1_555 1_555
C21I C22I 1_555 1_555
C22I N5I 1_555 1_555
N3I N4I 1_555 1_555

#END
