
#######################################################################
#
#                 Cambridge Crystallographic Data Centre
#                                CCDC 
#
#######################################################################
#
# If this CIF has been generated from an entry in the Cambridge 
# Structural Database, then it will include bibliographic, chemical, 
# crystal, experimental, refinement or atomic coordinate data resulting 
# from the CCDC's data processing and validation procedures.
#
#######################################################################

data_XOMDUZ
_symmetry_cell_setting           hexagonal
_symmetry_space_group_name_H-M   'P 63'
_symmetry_Int_Tables_number      173
_space_group_name_Hall           'P 6c'
loop_
_symmetry_equiv_pos_site_id
_symmetry_equiv_pos_as_xyz
1 x,y,z
2 x-y,x,1/2+z
3 -y,x-y,z
4 -x,-y,1/2+z
5 -x+y,-x,z
6 y,-x+y,1/2+z
_cell_length_a                   13.966(4)
_cell_length_b                   13.966(4)
_cell_length_c                   16.093(3)
_cell_angle_alpha                90
_cell_angle_beta                 90
_cell_angle_gamma                120
_cell_volume                     2718.39
loop_
_atom_site_label
_atom_site_type_symbol
_atom_site_fract_x
_atom_site_fract_y
_atom_site_fract_z
Co1 Co 0.27932(4) 0.28202(4) 0.18727(4)
Cu1 Cu 0.0000 0.0000 0.19141(6)
Cd1 Cd 0.54271(2) 0.16666(2) 0.37127(3)
Cl1 Cl 0.0000 0.0000 0.04497(13)
Cl2 Cl 0.6667 0.3333 0.25724(12)
Cl3 Cl 0.6667 0.3333 0.47457(12)
Cl4 Cl 0.45541(10) 0.05126(10) 0.24327(8)
Cl5 Cl 0.51435(12) 0.01935(12) 0.47124(8)
S1 S 0.17945(9) 0.10952(9) 0.23992(7)
N1 N 0.3140(3) 0.3344(3) 0.3043(2)
H1 H 0.3878 0.3773 0.3092
H2 H 0.2841 0.3771 0.3149
N2 N 0.2500(3) 0.2235(3) 0.0732(2)
H3 H 0.1786 0.1706 0.0683
H4 H 0.2632 0.2780 0.0371
N3 N 0.4139(3) 0.2704(3) 0.1782(2)
H5 H 0.4722 0.3328 0.1976
H6 H 0.4063 0.2136 0.2095
N4 N 0.1488(3) 0.3006(3) 0.1846(3)
H7 H 0.0902 0.2385 0.1652
H8 H 0.1330 0.3128 0.2364
N5 N 0.3599(3) 0.4381(3) 0.1478(2)
H9 H 0.4193 0.4784 0.1803
H10 H 0.3836 0.4408 0.0954
O1 O 0.4541(2) 0.2660(3) 0.35327(18)
O2 O 0.3291(3) 0.1228(3) 0.4258(2)
C1 C 0.1631(4) 0.1520(4) 0.3441(3)
H11 H 0.1086 0.1756 0.3436
H12 H 0.1393 0.0910 0.3829
C2 C 0.2749(3) 0.2465(3) 0.3689(3)
H13 H 0.2656 0.2777 0.4208
C3 C 0.3592(4) 0.2083(4) 0.3850(3)
C4 C 0.3224(5) 0.1768(4) 0.0537(3)
H14 H 0.3290 0.1723 -0.0060
H15 H 0.2915 0.1031 0.0768
C5 C 0.4344(5) 0.2531(5) 0.0916(3)
H16 H 0.4809 0.2198 0.0892
H17 H 0.4711 0.3230 0.0620
C6 C 0.1702(5) 0.3947(5) 0.1305(3)
H18 H 0.1169 0.4185 0.1412
H19 H 0.1654 0.3741 0.0725
C7 C 0.2842(5) 0.4847(4) 0.1511(3)
H20 H 0.2855 0.5134 0.2062
H21 H 0.3080 0.5447 0.1115
Co1B Co -0.28202(4) -0.00270(6) 0.18727(4)
Co1D Co 0.00270(6) -0.27932(4) 0.18727(4)
Cd1B Cd -0.16666(2) 0.37605(3) 0.37127(3)
Cd1D Cd -0.37605(3) -0.54271(2) 0.37127(3)
Cd1D_2 Cd 0.62395(3) 0.45729(2) 0.37127(3)
Cd1B_2 Cd 0.83334(2) 0.37605(3) 0.37127(3)
Cd1_2 Cd -0.45729(2) 0.16666(2) 0.37127(3)
Cd1B_3 Cd -0.16666(2) -0.62395(3) 0.37127(3)
Cl2B Cl -0.3333 0.3334 0.25724(12)
Cl2D Cl -0.3334 -0.6667 0.25724(12)
Cl3B Cl -0.3333 0.3334 0.47457(12)
Cl3D Cl -0.3334 -0.6667 0.47457(12)
Cl4B Cl -0.05126(10) 0.40415(14) 0.24327(8)
Cl4D Cl -0.40415(14) -0.45541(10) 0.24327(8)
Cl5B Cl -0.01935(12) 0.49500(17) 0.47124(8)
Cl5D Cl -0.49500(17) -0.51435(12) 0.47124(8)
S1B S -0.10952(9) 0.06993(13) 0.23992(7)
S1D S -0.06993(13) -0.17945(9) 0.23992(7)
N1B N -0.3344(3) -0.0204(4) 0.3043(2)
N1D N 0.0204(4) -0.3140(3) 0.3043(2)
H1B H -0.3773 0.0105 0.3092
H1D H -0.0105 -0.3878 0.3092
H2B H -0.3771 -0.0930 0.3149
H2D H 0.0930 -0.2841 0.3149
N2B N -0.2235(3) 0.0265(4) 0.0732(2)
N2D N -0.0265(4) -0.2500(3) 0.0732(2)
H3B H -0.1706 0.0080 0.0683
H3D H -0.0080 -0.1786 0.0683
H4B H -0.2780 -0.0148 0.0371
H4D H 0.0148 -0.2632 0.0371
N3B N -0.2704(3) 0.1435(4) 0.1782(2)
N3D N -0.1435(4) -0.4139(3) 0.1782(2)
H5B H -0.3328 0.1394 0.1976
H5D H -0.1394 -0.4722 0.1976
H6B H -0.2136 0.1927 0.2095
H6D H -0.1927 -0.4063 0.2095
N4B N -0.3006(3) -0.1518(4) 0.1846(3)
N4D N 0.1518(4) -0.1488(3) 0.1846(3)
H7B H -0.2385 -0.1483 0.1652
H7D H 0.1483 -0.0902 0.1652
H8B H -0.3128 -0.1798 0.2364
H8D H 0.1798 -0.1330 0.2364
N5B N -0.4381(3) -0.0782(4) 0.1478(2)
N5D N 0.0782(4) -0.3599(3) 0.1478(2)
H9B H -0.4784 -0.0591 0.1803
H9D H 0.0591 -0.4193 0.1803
H10B H -0.4408 -0.0572 0.0954
H10D H 0.0572 -0.3836 0.0954
O1B O -0.2660(3) 0.1881(4) 0.35327(18)
O1D O -0.1881(4) -0.4541(2) 0.35327(18)
O1B_2 O 0.7340(3) 0.1881(4) 0.35327(18)
O1D_2 O -0.1881(4) 0.5459(2) 0.35327(18)
O1_2 O -0.5459(2) -0.7340(3) 0.35327(18)
O2B O -0.1228(3) 0.2063(4) 0.4258(2)
O2D O -0.2063(4) -0.3291(3) 0.4258(2)
C1B C -0.1520(4) 0.0111(6) 0.3441(3)
C1D C -0.0111(6) -0.1631(4) 0.3441(3)
H11B H -0.1756 -0.0670 0.3436
H11D H 0.0670 -0.1086 0.3436
H12B H -0.0910 0.0483 0.3829
H12D H -0.0483 -0.1393 0.3829
C2B C -0.2465(3) 0.0284(4) 0.3689(3)
C2D C -0.0284(4) -0.2749(3) 0.3689(3)
H13B H -0.2777 -0.0121 0.4208
H13D H 0.0121 -0.2656 0.4208
C3B C -0.2083(4) 0.1509(6) 0.3850(3)
C3D C -0.1509(6) -0.3592(4) 0.3850(3)
C4B C -0.1768(4) 0.1456(6) 0.0537(3)
C4D C -0.1456(6) -0.3224(5) 0.0537(3)
H14B H -0.1723 0.1567 -0.0060
H14D H -0.1567 -0.3290 -0.0060
H15B H -0.1031 0.1884 0.0768
H15D H -0.1884 -0.2915 0.0768
C5B C -0.2531(5) 0.1813(7) 0.0916(3)
C5D C -0.1813(7) -0.4344(5) 0.0916(3)
H16B H -0.2198 0.2611 0.0892
H16D H -0.2611 -0.4809 0.0892
H17B H -0.3230 0.1481 0.0620
H17D H -0.1481 -0.4711 0.0620
C6B C -0.3947(5) -0.2245(7) 0.1305(3)
C6D C 0.2245(7) -0.1702(5) 0.1305(3)
H18B H -0.4185 -0.3016 0.1412
H18D H 0.3016 -0.1169 0.1412
H19B H -0.3741 -0.2087 0.0725
H19D H 0.2087 -0.1654 0.0725
C7B C -0.4847(4) -0.2005(6) 0.1511(3)
C7D C 0.2005(6) -0.2842(5) 0.1511(3)
H20B H -0.5134 -0.2279 0.2062
H20D H 0.2279 -0.2855 0.2062
H21B H -0.5447 -0.2367 0.1115
H21D H 0.2367 -0.3080 0.1115
Cl6 Cl 0.3333 0.6667 0.3540(5)
O3 O 0.1347(5) 0.3852(6) 0.3555(3)
Cl7? Cl 0.3665(12) 0.5916(11) 0.3496(11)
loop_
_geom_bond_atom_site_label_1
_geom_bond_atom_site_label_2
_geom_bond_site_symmetry_1
_geom_bond_site_symmetry_2
Co1 S1 1_555 1_555
Cu1 Cl1 1_555 1_555
Cd1 Cl2 1_555 1_555
Cl2 Cd1D_2 1_555 1_555
Cl3 Cd1 1_555 1_555
Cl4 Cd1 1_555 1_555
Cl5 Cd1 1_555 1_555
S1 Cu1 1_555 1_555
N1 Co1 1_555 1_555
H1 N1 1_555 1_555
H2 N1 1_555 1_555
N2 Co1 1_555 1_555
H3 N2 1_555 1_555
H4 N2 1_555 1_555
N3 Co1 1_555 1_555
H5 N3 1_555 1_555
H6 N3 1_555 1_555
N4 Co1 1_555 1_555
H7 N4 1_555 1_555
H8 N4 1_555 1_555
N5 Co1 1_555 1_555
H9 N5 1_555 1_555
H10 N5 1_555 1_555
O1 Cd1 1_555 1_555
O2 C3 1_555 1_555
C1 S1 1_555 1_555
H11 C1 1_555 1_555
H12 C1 1_555 1_555
C2 N1 1_555 1_555
H13 C2 1_555 1_555
C3 O1 1_555 1_555
C4 N2 1_555 1_555
H14 C4 1_555 1_555
H15 C4 1_555 1_555
C5 N3 1_555 1_555
H16 C5 1_555 1_555
H17 C5 1_555 1_555
C6 N4 1_555 1_555
H18 C6 1_555 1_555
H19 C6 1_555 1_555
C7 N5 1_555 1_555
H20 C7 1_555 1_555
H21 C7 1_555 1_555
Co1B S1B 1_555 1_555
Co1D S1D 1_555 1_555
Cd1B Cl2B 1_555 1_555
Cd1D Cl2D 1_555 1_555
Cd1D_2 Cl3 1_555 1_555
Cd1B_2 Cl2 1_555 1_555
Cd1_2 Cl2B 1_555 1_555
Cd1B_3 Cl2D 1_555 1_555
Cl3B Cd1B 1_555 1_555
Cl3D Cd1D 1_555 1_555
Cl4B Cd1B 1_555 1_555
Cl4D Cd1D 1_555 1_555
Cl5B Cd1B 1_555 1_555
Cl5D Cd1D 1_555 1_555
S1B Cu1 1_555 1_555
S1D Cu1 1_555 1_555
N1B Co1B 1_555 1_555
N1D Co1D 1_555 1_555
H1B N1B 1_555 1_555
H1D N1D 1_555 1_555
H2B N1B 1_555 1_555
H2D N1D 1_555 1_555
N2B Co1B 1_555 1_555
N2D Co1D 1_555 1_555
H3B N2B 1_555 1_555
H3D N2D 1_555 1_555
H4B N2B 1_555 1_555
H4D N2D 1_555 1_555
N3B Co1B 1_555 1_555
N3D Co1D 1_555 1_555
H5B N3B 1_555 1_555
H5D N3D 1_555 1_555
H6B N3B 1_555 1_555
H6D N3D 1_555 1_555
N4B Co1B 1_555 1_555
N4D Co1D 1_555 1_555
H7B N4B 1_555 1_555
H7D N4D 1_555 1_555
H8B N4B 1_555 1_555
H8D N4D 1_555 1_555
N5B Co1B 1_555 1_555
N5D Co1D 1_555 1_555
H9B N5B 1_555 1_555
H9D N5D 1_555 1_555
H10B N5B 1_555 1_555
H10D N5D 1_555 1_555
O1B Cd1B 1_555 1_555
O1D Cd1D 1_555 1_555
O1B_2 Cd1 1_555 1_555
O1D_2 Cd1B 1_555 1_555
O1_2 Cd1D 1_555 1_555
O2B C3B 1_555 1_555
O2D C3D 1_555 1_555
C1B S1B 1_555 1_555
C1D S1D 1_555 1_555
H11B C1B 1_555 1_555
H11D C1D 1_555 1_555
H12B C1B 1_555 1_555
H12D C1D 1_555 1_555
C2B N1B 1_555 1_555
C2D N1D 1_555 1_555
H13B C2B 1_555 1_555
H13D C2D 1_555 1_555
C3B O1B 1_555 1_555
C3D O1D 1_555 1_555
C4B N2B 1_555 1_555
C4D N2D 1_555 1_555
H14B C4B 1_555 1_555
H14D C4D 1_555 1_555
H15B C4B 1_555 1_555
H15D C4D 1_555 1_555
C5B N3B 1_555 1_555
C5D N3D 1_555 1_555
H16B C5B 1_555 1_555
H16D C5D 1_555 1_555
H17B C5B 1_555 1_555
H17D C5D 1_555 1_555
C6B N4B 1_555 1_555
C6D N4D 1_555 1_555
H18B C6B 1_555 1_555
H18D C6D 1_555 1_555
H19B C6B 1_555 1_555
H19D C6D 1_555 1_555
C7B N5B 1_555 1_555
C7D N5D 1_555 1_555
H20B C7B 1_555 1_555
H20D C7D 1_555 1_555
H21B C7B 1_555 1_555
H21D C7D 1_555 1_555
Cl3 Cd1B_2 1_555 1_555
O1 Cd1D_2 1_555 1_555
C1 C2 1_555 1_555
C2 C3 1_555 1_555
C4 C5 1_555 1_555
C6 C7 1_555 1_555
Cd1B_2 O1B_2 1_555 1_555
Cd1_2 Cl3B 1_555 1_555
Cd1_2 O1B 1_555 1_555
Cd1B_3 Cl3D 1_555 1_555
Cd1B_3 O1D 1_555 1_555
C1B C2B 1_555 1_555
C1D C2D 1_555 1_555
C2B C3B 1_555 1_555
C2D C3D 1_555 1_555
C4B C5B 1_555 1_555
C4D C5D 1_555 1_555
C6B C7B 1_555 1_555
C6D C7D 1_555 1_555

#END
