
#######################################################################
#
#                 Cambridge Crystallographic Data Centre
#                                CCDC 
#
#######################################################################
#
# If this CIF has been generated from an entry in the Cambridge 
# Structural Database, then it will include bibliographic, chemical, 
# crystal, experimental, refinement or atomic coordinate data resulting 
# from the CCDC's data processing and validation procedures.
#
#######################################################################

data_XOMFIP
_symmetry_cell_setting           monoclinic
_symmetry_space_group_name_H-M   'P n'
_symmetry_Int_Tables_number      7
_space_group_name_Hall           'P -2yac'
loop_
_symmetry_equiv_pos_site_id
_symmetry_equiv_pos_as_xyz
1 x,y,z
2 1/2+x,-y,1/2+z
_cell_length_a                   5.6312(7)
_cell_length_b                   6.9583(8)
_cell_length_c                   22.768(3)
_cell_angle_alpha                90
_cell_angle_beta                 90.024(2)
_cell_angle_gamma                90
_cell_volume                     892.132
loop_
_atom_site_label
_atom_site_type_symbol
_atom_site_fract_x
_atom_site_fract_y
_atom_site_fract_z
Ag1 Ag 0.57457(9) 0.67795(3) 0.15392(5)
S1 S 0.0648(3) 0.95063(11) 0.1532(2)
O1 O 0.3166(4) 0.9609(4) 0.1547(5)
O2 O -0.0768(7) 0.8339(5) 0.1844(2)
O3 O 0.0200(9) 0.9272(7) 0.0843(2)
O4 O 0.2221(13) 0.0576(8) 0.3681(2)
H1 H 0.1172 0.1276 0.3832
O5 O -0.043(2) 0.3329(9) 0.3840(4)
O6 O 0.2269(14) 0.0515(7) -0.0586(2)
O7 O -0.0454(13) 0.3264(5) -0.0731(3)
H2 H 0.0171 0.2170 -0.0753
N1 N 0.5016(18) 0.5441(10) 0.2412(3)
N2 N 0.4955(13) 0.5353(7) 0.0684(2)
F1 F 0.0790(15) 1.3241(4) 0.1787(2)
F2 F -0.2692(5) 1.2107(4) 0.1543(5)
F3 F -0.0098(7) 1.2355(8) 0.09226(18)
C1 C -0.0382(7) 1.1952(5) 0.1523(7)
C2 C 0.5376(16) 0.0517(10) 0.2978(3)
H3 H 0.5302 -0.0867 0.3055
H4 H 0.6882 0.1030 0.3126
H5 H 0.5269 0.0743 0.2554
C3 C 0.3319(16) 0.1517(11) 0.3285(3)
C4 C 0.2832(18) 0.3456(10) 0.3154(4)
C5 C 0.0653(13) 0.4215(7) 0.3461(2)
C6 C -0.012(2) 0.6348(10) 0.3292(3)
H6 H -0.1823 0.6508 0.3364
H7 H 0.0218 0.6579 0.2876
H8 H 0.0772 0.7267 0.3533
C7 C 0.3939(15) 0.4508(10) 0.2748(3)
C8 C 0.5307(17) 0.0568(10) 0.0102(3)
H9 H 0.6343 0.1537 0.0281
H10 H 0.6236 -0.0232 -0.0168
H11 H 0.4620 -0.0242 0.0410
C9 C 0.347(2) 0.1488(13) -0.0210(5)
C10 C 0.2617(17) 0.3400(10) -0.0098(3)
C11 C 0.0767(16) 0.4351(12) -0.0342(3)
C12 C -0.0021(17) 0.6142(9) -0.0257(3)
H12 H -0.0412 0.6322 0.0159
H13 H -0.1443 0.6357 -0.0496
H14 H 0.1215 0.7060 -0.0371
C13 C 0.4040(16) 0.4493(11) 0.0342(3)
Ag1_2 Ag -0.42543(9) 0.67795(3) 0.15392(5)
O2_2 O 0.9232(7) 0.8339(5) 0.1844(2)
loop_
_geom_bond_atom_site_label_1
_geom_bond_atom_site_label_2
_geom_bond_site_symmetry_1
_geom_bond_site_symmetry_2
Ag1 O1 1_555 1_555
S1 O1 1_555 1_555
O2 S1 1_555 1_555
O3 S1 1_555 1_555
O4 H1 1_555 1_555
O5 C5 1_555 1_555
O6 C9 1_555 1_555
O7 H2 1_555 1_555
N1 Ag1 1_555 1_555
N2 Ag1 1_555 1_555
F1 C1 1_555 1_555
F2 C1 1_555 1_555
F3 C1 1_555 1_555
C1 S1 1_555 1_555
C2 H3 1_555 1_555
H4 C2 1_555 1_555
H5 C2 1_555 1_555
C3 O4 1_555 1_555
C4 C3 1_555 1_555
C5 C4 1_555 1_555
C6 C5 1_555 1_555
H6 C6 1_555 1_555
H7 C6 1_555 1_555
H8 C6 1_555 1_555
C7 N1 1_555 1_555
C8 H9 1_555 1_555
H10 C8 1_555 1_555
H11 C8 1_555 1_555
C9 C8 1_555 1_555
C10 C9 1_555 1_555
C11 O7 1_555 1_555
C12 C11 1_555 1_555
H12 C12 1_555 1_555
H13 C12 1_555 1_555
H14 C12 1_555 1_555
C13 N2 1_555 1_555
Ag1_2 O2 1_555 1_555
O2_2 Ag1 1_555 1_555
C2 C3 1_555 1_555
C4 C7 1_555 1_555
C10 C11 1_555 1_555
C10 C13 1_555 1_555

#END
