
#######################################################################
#
#                 Cambridge Crystallographic Data Centre
#                                CCDC 
#
#######################################################################
#
# If this CIF has been generated from an entry in the Cambridge 
# Structural Database, then it will include bibliographic, chemical, 
# crystal, experimental, refinement or atomic coordinate data resulting 
# from the CCDC's data processing and validation procedures.
#
#######################################################################

data_XOMFAG
_symmetry_cell_setting           monoclinic
_symmetry_space_group_name_H-M   'P 21/n'
_symmetry_Int_Tables_number      14
_space_group_name_Hall           '-P 2yn'
loop_
_symmetry_equiv_pos_site_id
_symmetry_equiv_pos_as_xyz
1 x,y,z
2 1/2+x,1/2-y,1/2+z
3 -x,-y,-z
4 1/2-x,1/2+y,1/2-z
_cell_length_a                   8.114(3)
_cell_length_b                   8.025(3)
_cell_length_c                   23.228(6)
_cell_angle_alpha                90
_cell_angle_beta                 98.44(3)
_cell_angle_gamma                90
_cell_volume                     1496.11
loop_
_atom_site_label
_atom_site_type_symbol
_atom_site_fract_x
_atom_site_fract_y
_atom_site_fract_z
Ba1 Ba 0.691981(14) 0.186988(15) 0.568011(5)
N1 N 0.3378(2) 0.2932(2) 0.54465(8)
S1 S 0.35398(6) 0.48313(6) 0.56428(2)
S2 S 0.16111(6) 0.21005(6) 0.52135(2)
O1 O 0.53293(19) 0.5131(2) 0.57725(7)
O2 O 0.26427(19) 0.5976(2) 0.52246(7)
O3 O 0.1947(2) 0.0364(2) 0.51122(7)
O4 O 0.03923(19) 0.2416(2) 0.56016(7)
C1 C 0.2722(3) 0.5085(3) 0.62957(9)
H1 H 0.3350 0.4392 0.6599
H2 H 0.1549 0.4749 0.6238
H3 H 0.2812 0.6258 0.6415
C2 C 0.0858(3) 0.3028(3) 0.45409(10)
H4 H 0.0656 0.4216 0.4599
H5 H -0.0185 0.2487 0.4373
H6 H 0.1684 0.2898 0.4276
N2 N 1.0001(2) 0.4246(2) 0.75573(8)
S3 S 0.87472(7) 0.50638(7) 0.70432(2)
S4 S 1.09158(7) 0.53511(7) 0.80734(2)
O5 O 0.8558(2) 0.3866(2) 0.65733(7)
O6 O 0.9264(2) 0.6720(2) 0.68890(8)
O7 O 1.1820(2) 0.4208(2) 0.84939(7)
O8 O 0.9806(2) 0.6502(2) 0.83152(7)
C3 C 0.6800(3) 0.5282(3) 0.72825(11)
H7 H 0.6024 0.5843 0.6981
H8 H 0.6929 0.5947 0.7640
H9 H 0.6364 0.4179 0.7359
C4 C 1.2454(3) 0.6541(3) 0.77955(11)
H10 H 1.3181 0.5798 0.7611
H11 H 1.3119 0.7150 0.8114
H12 H 1.1915 0.7335 0.7507
O9 O 0.5142(2) -0.1159(2) 0.55823(8)
H13 H 0.543(4) -0.210(3) 0.5648(16)
H14 H 0.448(5) -0.099(5) 0.5794(17)
O10 O 0.9169(2) -0.0107(2) 0.63774(8)
H15 H 0.909(4) -0.101(3) 0.6512(15)
H16 H 1.008(3) -0.010(5) 0.6289(19)
O2B O 0.73573(19) 0.4024(2) 0.47754(7)
O3B O 0.8053(2) -0.0364(2) 0.48878(7)
O4_2 O 1.03923(19) 0.2416(2) 0.56016(7)
O8C O 0.5194(2) 0.1502(2) 0.66848(7)
O9B O 0.4858(2) 0.1159(2) 0.44177(8)
Ba1B Ba 0.308019(14) 0.813012(15) 0.431989(5)
Ba1B_2 Ba 0.308019(14) -0.186988(15) 0.431989(5)
Ba1_2 Ba -0.308019(14) 0.186988(15) 0.568011(5)
Ba1C Ba 0.808019(14) 0.686988(15) 0.931989(5)
H13B H 0.457(4) 0.210(3) 0.4352(16)
H14B H 0.552(5) 0.099(5) 0.4206(17)
loop_
_geom_bond_atom_site_label_1
_geom_bond_atom_site_label_2
_geom_bond_site_symmetry_1
_geom_bond_site_symmetry_2
Ba1 N1 1_555 1_555
N1 S1 1_555 1_555
S1 O1 1_555 1_555
S2 N1 1_555 1_555
O1 Ba1 1_555 1_555
O2 S1 1_555 1_555
O3 S2 1_555 1_555
O4 S2 1_555 1_555
C1 S1 1_555 1_555
H1 C1 1_555 1_555
H2 C1 1_555 1_555
H3 C1 1_555 1_555
C2 S2 1_555 1_555
H4 C2 1_555 1_555
H5 C2 1_555 1_555
H6 C2 1_555 1_555
N2 S3 1_555 1_555
S3 O5 1_555 1_555
S4 N2 1_555 1_555
O5 Ba1 1_555 1_555
O6 S3 1_555 1_555
O7 S4 1_555 1_555
O8 S4 1_555 1_555
C3 S3 1_555 1_555
H7 C3 1_555 1_555
H8 C3 1_555 1_555
H9 C3 1_555 1_555
C4 S4 1_555 1_555
H10 C4 1_555 1_555
H11 C4 1_555 1_555
H12 C4 1_555 1_555
O9 Ba1 1_555 1_555
H13 O9 1_555 1_555
H14 O9 1_555 1_555
O10 Ba1 1_555 1_555
H15 O10 1_555 1_555
H16 O10 1_555 1_555
O2B Ba1 1_555 1_555
O3B Ba1 1_555 1_555
O4_2 Ba1 1_555 1_555
O8C Ba1 1_555 1_555
O9B Ba1 1_555 1_555
Ba1B O2 1_555 1_555
Ba1B_2 O3 1_555 1_555
Ba1_2 O4 1_555 1_555
Ba1C O8 1_555 1_555
H13B O9B 1_555 1_555
H14B O9B 1_555 1_555
O9 Ba1B_2 1_555 1_555
O9B Ba1B_2 1_555 1_555

#END
