
#######################################################################
#
#                 Cambridge Crystallographic Data Centre
#                                CCDC 
#
#######################################################################
#
# If this CIF has been generated from an entry in the Cambridge 
# Structural Database, then it will include bibliographic, chemical, 
# crystal, experimental, refinement or atomic coordinate data resulting 
# from the CCDC's data processing and validation procedures.
#
#######################################################################

data_XOMGEM
_symmetry_cell_setting           triclinic
_symmetry_space_group_name_H-M   'P 1'
_symmetry_Int_Tables_number      1
_space_group_name_Hall           'P 1'
loop_
_symmetry_equiv_pos_site_id
_symmetry_equiv_pos_as_xyz
1 x,y,z
_cell_length_a                   11.1960(9)
_cell_length_b                   11.9875(9)
_cell_length_c                   13.5929(11)
_cell_angle_alpha                110.429(2)
_cell_angle_beta                 104.050(2)
_cell_angle_gamma                105.843(2)
_cell_volume                     1524.64
loop_
_atom_site_label
_atom_site_type_symbol
_atom_site_fract_x
_atom_site_fract_y
_atom_site_fract_z
Ag1 Ag 0.14884(4) 1.07440(4) 0.26547(3)
Cr1 Cr -0.22657(9) 0.75617(8) -0.40389(7)
O1 O -0.1879(4) 0.9114(4) -0.2710(3)
O2 O -0.1767(4) 0.6731(4) -0.3086(3)
O3 O -0.2739(4) 0.8410(4) 0.5016(3)
O4 O -0.0412(4) 0.8218(4) 0.6071(4)
O5 O 0.5896(4) 1.6861(4) 0.5852(3)
O6 O 0.7298(4) 1.6012(4) 0.4587(3)
N1 N 0.0266(6) 0.9443(7) 0.0847(5)
N2 N 0.0526(7) 1.0249(7) 0.3821(6)
N3 N 0.3433(6) 1.2389(6) 0.3525(5)
C1 C -0.1155(7) 1.0701(6) -0.0827(5)
H2 H -0.1377 1.1199 -0.1229
H3 H -0.0222 1.1165 -0.0292
H4 H -0.1748 1.0591 -0.0412
C2 C -0.1336(6) 0.9408(6) -0.1657(5)
C3 C -0.0944(6) 0.8534(6) -0.1302(5)
C4 C -0.1223(6) 0.7250(6) -0.2007(5)
C5 C -0.0914(7) 0.6376(7) -0.1519(6)
H5 H -0.1648 0.6013 -0.1304
H6 H -0.0081 0.6870 -0.0848
H7 H -0.0811 0.5671 -0.2084
C6 C -0.0290(6) 0.9031(7) -0.0087(6)
C7 C 0.1506(7) 0.9083(9) 0.5734(7)
H8 H 0.1871 0.8737 0.6238
H9 H 0.1990 1.0025 0.6088
H10 H 0.1610 0.8695 0.5012
C8 C 0.0065(6) 0.8766(6) 0.5531(5)
C9 C -0.0688(6) 0.9115(6) 0.4794(5)
C10 C -0.2044(6) 0.8964(6) 0.4585(5)
C11 C -0.2721(8) 0.9444(7) 0.3827(6)
H11 H -0.3646 0.9254 0.3784
H12 H -0.2721 0.9011 0.3068
H13 H -0.2239 1.0381 0.4133
C12 C -0.0032(7) 0.9753(7) 0.4246(6)
C13 C 0.3825(6) 1.5452(6) 0.5617(6)
H14 H 0.4084 1.5703 0.6430
H15 H 0.3251 1.4527 0.5189
H16 H 0.3336 1.5954 0.5415
C14 C 0.5050(6) 1.5713(6) 0.5338(5)
C15 C 0.5230(6) 1.4711(6) 0.4511(5)
C16 C 0.6307(6) 1.4938(6) 0.4128(5)
C17 C 0.6276(8) 1.3886(7) 0.3095(6)
H17 H 0.5583 1.3755 0.2418
H18 H 0.6076 1.3078 0.3171
H19 H 0.7150 1.4140 0.3026
C18 C 0.4219(7) 1.3427(7) 0.3947(6)
Cr1_2 Cr -0.22657(9) 0.75617(8) 0.59611(7)
Cr1_3 Cr 0.77343(9) 1.75617(8) 0.59611(7)
O3_2 O -0.2739(4) 0.8410(4) -0.4984(3)
O4_2 O -0.0412(4) 0.8218(4) -0.3929(4)
O5_2 O -0.4104(4) 0.6861(4) -0.4148(3)
O6_2 O -0.2702(4) 0.6012(4) -0.5413(3)
Ag2 Ag 0.30779(4) 0.89631(4) 0.26346(4)
Cr2 Cr 0.62844(9) 1.26617(9) -0.05698(7)
O7 O 0.4499(4) 1.2004(4) -0.0559(4)
O8 O 0.6943(4) 1.2051(4) 0.0512(3)
O9 O -0.1949(4) 0.3290(4) -0.0624(4)
O10 O -0.3309(4) 0.4323(4) 0.0647(3)
O11 O 0.5605(5) 1.3241(4) 0.8326(3)
O12 O 0.5854(4) 1.0981(4) 0.8211(3)
N4 N 0.3825(8) 0.9617(8) 0.1485(7)
N5 N 0.0978(6) 0.7539(6) 0.1991(6)
N6 N 0.4014(7) 1.0283(6) 0.4482(5)
C19 C 0.2602(7) 1.0890(8) -0.0319(8)
H20 H 0.2468 1.1492 0.0307
H21 H 0.2248 1.0015 -0.0379
H22 H 0.2132 1.0891 -0.1028
C20 C 0.4066(7) 1.1303(6) -0.0101(6)
C21 C 0.4899(7) 1.0970(6) 0.0588(5)
C22 C 0.6297(6) 1.1350(6) 0.0867(5)
C23 C 0.7089(8) 1.0927(7) 0.1628(6)
H23 H 0.6968 1.0031 0.1190
H24 H 0.6771 1.0980 0.2248
H25 H 0.8040 1.1493 0.1941
C24 C 0.4292(8) 1.0200(8) 0.1077(6)
C25 C 0.0291(7) 0.4538(7) -0.0199(6)
H26 H 0.0743 0.4086 0.0131
H27 H 0.0874 0.5460 0.0157
H28 H 0.0096 0.4169 -0.1015
C26 C -0.0991(6) 0.4386(6) -0.0001(5)
C27 C -0.1103(6) 0.5413(6) 0.0837(5)
C28 C -0.2244(6) 0.5359(6) 0.1110(5)
C29 C -0.2262(7) 0.6506(7) 0.2008(5)
H29 H -0.3186 0.6353 0.1957
H30 H -0.1896 0.7277 0.1901
H31 H -0.1718 0.6641 0.2755
C30 C 0.0060(7) 0.6606(7) 0.1481(6)
C31 C 0.4743(9) 1.3384(7) 0.6643(6)
H32 H 0.4553 1.4078 0.7135
H33 H 0.3938 1.2794 0.5961
H34 H 0.5470 1.3760 0.6427
C32 C 0.5148(6) 1.2658(6) 0.7257(5)
C33 C 0.4985(6) 1.1351(6) 0.6651(5)
C34 C 0.5332(6) 1.0576(6) 0.7159(5)
C35 C 0.5087(6) 0.9195(6) 0.6423(5)
H35 H 0.5461 0.8825 0.6899
H36 H 0.5520 0.9178 0.5875
H37 H 0.4122 0.8685 0.6019
C36 C 0.4455(7) 1.0786(6) 0.5458(6)
Cr2_2 Cr -0.37156(9) 0.26617(9) -0.05698(7)
Cr2_3 Cr 0.62844(9) 1.26617(9) 0.94302(7)
O9_2 O 0.8051(4) 1.3290(4) -0.0624(4)
O10_2 O 0.6691(4) 1.4323(4) 0.0647(3)
O11_2 O 0.5605(5) 1.3241(4) -0.1674(3)
O12_2 O 0.5854(4) 1.0981(4) -0.1789(3)
O13 O 0.4082(7) 0.7446(7) 0.2596(7)
H1 H 0.4052 0.7036 0.1942
C37 C 0.3745(16) 0.6693(14) 0.3012(14)
H38 H 0.4535 0.6592 0.3408
H39 H 0.3090 0.5848 0.2406
H40 H 0.3343 0.7046 0.3548
B1 B 0.1202(11) 1.3426(10) 0.2207(7)
F1 F 0.0585(9) 1.2463(10) 0.2440(9)
F2 F 0.1766(6) 1.2984(6) 0.1453(4)
F3 F 0.2145(8) 1.4410(8) 0.3181(5)
F4 F 0.0264(5) 1.3836(5) 0.1761(4)
B2 B -0.4257(10) 0.7296(10) -0.0978(8)
F5 F -0.4192(6) 0.8365(5) -0.1139(5)
F6 F -0.3575(9) 0.7636(6) 0.0124(5)
F7 F -0.3749(6) 0.6598(6) -0.1673(6)
F8 F -0.5568(6) 0.6472(7) -0.1307(6)
O14 O 0.4131(17) 0.6108(11) 0.0676(13)
H41 H 0.4205 0.6204 0.0129
C38 C 0.3740(11) 0.4807(11) 0.0139(11)
H42 H 0.4527 0.4599 0.0134
H43 H 0.3124 0.4476 -0.0642
H44 H 0.3287 0.4407 0.0536
C39 C 0.0156(13) 0.5418(15) 0.4386(10)
H45 H 0.1134 0.5862 0.4691
H46 H -0.0087 0.4507 0.4229
H47 H -0.0198 0.5830 0.4939
O15 O -0.0333(17) 0.5489(18) 0.3481(12)
H48 H -0.0399 0.4844 0.2928
C40 C 0.2194(9) 0.7468(9) 0.7859(9)
H49 H 0.2422 0.7453 0.8596
H50 H 0.2095 0.6648 0.7276
H51 H 0.1349 0.7587 0.7671
O16 O 0.3224(5) 0.8502(6) 0.7905(6)
H52 H 0.3969 0.8489 0.8197
C41 C -0.2167(15) 0.3026(14) 0.5740(13)
H53 H -0.2046 0.3281 0.5148
H54 H -0.2341 0.3683 0.6290
H55 H -0.2928 0.2191 0.5396
C42 C -0.1018(15) 0.2915(13) 0.6284(12)
C43 C -0.1012(13) 0.2051(11) 0.6691(9)
H56 H -0.1848 0.1503 0.6629
C44 C 0.0098(12) 0.1896(12) 0.7186(10)
H57 H 0.0022 0.1255 0.7452
C45 C 0.1296(15) 0.2643(13) 0.7297(13)
H58 H 0.2084 0.2532 0.7615
C46 C 0.1337(17) 0.3555(16) 0.6941(14)
H59 H 0.2182 0.4190 0.7114
C47 C 0.0206(14) 0.3602(18) 0.6340(15)
H60 H 0.0271 0.4124 0.5951
loop_
_geom_bond_atom_site_label_1
_geom_bond_atom_site_label_2
_geom_bond_site_symmetry_1
_geom_bond_site_symmetry_2
Ag1 N1 1_555 1_555
Ag2 N4 1_555 1_555
Cr1 O1 1_555 1_555
Cr2 O7 1_555 1_555
O1 C2 1_555 1_555
O2 Cr1 1_555 1_555
O3 C10 1_555 1_555
O4 C8 1_555 1_555
O5 C14 1_555 1_555
O6 C16 1_555 1_555
O7 C20 1_555 1_555
O8 Cr2 1_555 1_555
O9 C26 1_555 1_555
O10 C28 1_555 1_555
O11 C32 1_555 1_555
O12 C34 1_555 1_555
O13 H1 1_555 1_555
N1 C6 1_555 1_555
N2 Ag1 1_555 1_555
N3 Ag1 1_555 1_555
N4 C24 1_555 1_555
N5 Ag2 1_555 1_555
N6 Ag2 1_555 1_555
C1 H2 1_555 1_555
H3 C1 1_555 1_555
H4 C1 1_555 1_555
C2 C1 1_555 1_555
C3 C2 1_555 1_555
C4 O2 1_555 1_555
C5 C4 1_555 1_555
H5 C5 1_555 1_555
H6 C5 1_555 1_555
H7 C5 1_555 1_555
C6 C3 1_555 1_555
C7 H8 1_555 1_555
H9 C7 1_555 1_555
H10 C7 1_555 1_555
C8 C7 1_555 1_555
C9 C8 1_555 1_555
C10 C9 1_555 1_555
C11 C10 1_555 1_555
H11 C11 1_555 1_555
H12 C11 1_555 1_555
H13 C11 1_555 1_555
C12 N2 1_555 1_555
C13 H14 1_555 1_555
H15 C13 1_555 1_555
H16 C13 1_555 1_555
C14 C13 1_555 1_555
C15 C14 1_555 1_555
C16 C15 1_555 1_555
C17 C16 1_555 1_555
H17 C17 1_555 1_555
H18 C17 1_555 1_555
H19 C17 1_555 1_555
C18 N3 1_555 1_555
C19 H20 1_555 1_555
H21 C19 1_555 1_555
H22 C19 1_555 1_555
C20 C19 1_555 1_555
C21 C20 1_555 1_555
C22 O8 1_555 1_555
C23 C22 1_555 1_555
H23 C23 1_555 1_555
H24 C23 1_555 1_555
H25 C23 1_555 1_555
C24 C21 1_555 1_555
C25 H26 1_555 1_555
H27 C25 1_555 1_555
H28 C25 1_555 1_555
C26 C25 1_555 1_555
C27 C26 1_555 1_555
C28 C27 1_555 1_555
C29 C28 1_555 1_555
H29 C29 1_555 1_555
H30 C29 1_555 1_555
H31 C29 1_555 1_555
C30 N5 1_555 1_555
C31 H32 1_555 1_555
H33 C31 1_555 1_555
H34 C31 1_555 1_555
C32 C31 1_555 1_555
C33 C32 1_555 1_555
C34 C33 1_555 1_555
C35 C34 1_555 1_555
H35 C35 1_555 1_555
H36 C35 1_555 1_555
H37 C35 1_555 1_555
C36 N6 1_555 1_555
C37 O13 1_555 1_555
H38 C37 1_555 1_555
H39 C37 1_555 1_555
H40 C37 1_555 1_555
B1 F1 1_555 1_555
F2 B1 1_555 1_555
F3 B1 1_555 1_555
F4 B1 1_555 1_555
B2 F5 1_555 1_555
F6 B2 1_555 1_555
F7 B2 1_555 1_555
F8 B2 1_555 1_555
O14 H41 1_555 1_555
C38 O14 1_555 1_555
H42 C38 1_555 1_555
H43 C38 1_555 1_555
H44 C38 1_555 1_555
C39 H45 1_555 1_555
H46 C39 1_555 1_555
H47 C39 1_555 1_555
O15 C39 1_555 1_555
H48 O15 1_555 1_555
C40 H49 1_555 1_555
H50 C40 1_555 1_555
H51 C40 1_555 1_555
O16 C40 1_555 1_555
H52 O16 1_555 1_555
C41 H53 1_555 1_555
H54 C41 1_555 1_555
H55 C41 1_555 1_555
C42 C41 1_555 1_555
C43 C42 1_555 1_555
H56 C43 1_555 1_555
C44 C43 1_555 1_555
H57 C44 1_555 1_555
C45 C44 1_555 1_555
H58 C45 1_555 1_555
C46 C45 1_555 1_555
H59 C46 1_555 1_555
C47 C42 1_555 1_555
H60 C47 1_555 1_555
Cr1_2 O3 1_555 1_555
Cr1_3 O5 1_555 1_555
Cr2_2 O9 1_555 1_555
Cr2_3 O11 1_555 1_555
O3_2 Cr1 1_555 1_555
O4_2 Cr1 1_555 1_555
O5_2 Cr1 1_555 1_555
O6_2 Cr1 1_555 1_555
O9_2 Cr2 1_555 1_555
O10_2 Cr2 1_555 1_555
O11_2 Cr2 1_555 1_555
O12_2 Cr2 1_555 1_555
O4 Cr1_2 1_555 1_555
O6 Cr1_3 1_555 1_555
O10 Cr2_2 1_555 1_555
O12 Cr2_3 1_555 1_555
C3 C4 1_555 1_555
C9 C12 1_555 1_555
C15 C18 1_555 1_555
C21 C22 1_555 1_555
C27 C30 1_555 1_555
C33 C36 1_555 1_555
C46 C47 1_555 1_555

#END
