
#######################################################################
#
#                 Cambridge Crystallographic Data Centre
#                                CCDC 
#
#######################################################################
#
# If this CIF has been generated from an entry in the Cambridge 
# Structural Database, then it will include bibliographic, chemical, 
# crystal, experimental, refinement or atomic coordinate data resulting 
# from the CCDC's data processing and validation procedures.
#
#######################################################################

data_XOMGAI
_symmetry_cell_setting           monoclinic
_symmetry_space_group_name_H-M   'P 21/c'
_symmetry_Int_Tables_number      14
_space_group_name_Hall           '-P 2ybc'
loop_
_symmetry_equiv_pos_site_id
_symmetry_equiv_pos_as_xyz
1 x,y,z
2 -x,1/2+y,1/2-z
3 -x,-y,-z
4 x,1/2-y,1/2+z
_cell_length_a                   11.8269(10)
_cell_length_b                   20.0536(18)
_cell_length_c                   18.5766(16)
_cell_angle_alpha                90
_cell_angle_beta                 100.4860(10)
_cell_angle_gamma                90
_cell_volume                     4332.27
loop_
_atom_site_label
_atom_site_type_symbol
_atom_site_fract_x
_atom_site_fract_y
_atom_site_fract_z
Ag1 Ag 0.192709(15) 0.303809(8) 0.556358(10)
Cr1 Cr 0.32151(3) -0.081680(15) 0.609050(17)
O1 O 0.18806(11) -0.02255(6) 0.59567(7)
O2 O 0.41616(11) -0.00942(6) 0.58282(7)
O3 O -0.22935(12) 0.15377(6) 0.36169(7)
O4 O -0.27619(11) 0.10765(6) 0.49323(7)
O5 O 0.54593(11) 0.36008(6) 0.88297(7)
O6 O 0.63414(11) 0.44434(6) 0.78907(7)
N1 N 0.24132(19) 0.19734(10) 0.52246(12)
N2 N 0.00226(16) 0.27645(10) 0.54482(11)
N3 N 0.31854(16) 0.33449(10) 0.65077(10)
C1 C 0.48544(19) 0.09598(11) 0.55820(13)
H1 H 0.5012 0.1271 0.5995
H2 H 0.4634 0.1210 0.5125
H3 H 0.5546 0.0697 0.5561
C2 C 0.38976(17) 0.05043(10) 0.56823(10)
C3 C 0.27586(18) 0.07522(10) 0.56204(11)
C4 C 0.18146(17) 0.03783(10) 0.57621(10)
C5 C 0.06507(17) 0.06945(11) 0.56894(12)
H4 H 0.0155 0.0415 0.5933
H5 H 0.0310 0.0739 0.5170
H6 H 0.0727 0.1137 0.5918
C6 C 0.25704(19) 0.14321(11) 0.54071(12)
C7 C -0.18859(18) 0.15891(11) 0.60198(11)
H7 H -0.1481 0.1194 0.6246
H8 H -0.1425 0.1988 0.6171
H9 H -0.2631 0.1628 0.6176
C8 C -0.20693(16) 0.15245(10) 0.52126(11)
C9 C -0.14896(16) 0.19466(10) 0.47895(11)
C10 C -0.16505(16) 0.19460(10) 0.40156(11)
C11 C -0.10481(19) 0.24515(11) 0.36287(12)
H10 H -0.1319 0.2414 0.3099
H11 H -0.1214 0.2900 0.3792
H12 H -0.0217 0.2372 0.3741
C12 C -0.06658(18) 0.24055(11) 0.51618(12)
C13 C 0.37914(18) 0.29913(11) 0.83837(12)
H13 H 0.3948 0.2553 0.8191
H14 H 0.3046 0.3154 0.8125
H15 H 0.3775 0.2954 0.8908
C14 C 0.47131(17) 0.34679(9) 0.82729(11)
C15 C 0.47214(17) 0.37456(10) 0.75745(11)
C16 C 0.55127(17) 0.42323(10) 0.74196(11)
C17 C 0.53724(19) 0.45318(10) 0.66705(11)
H16 H 0.4692 0.4820 0.6587
H17 H 0.5278 0.4175 0.6304
H18 H 0.6055 0.4796 0.6631
C18 C 0.38701(19) 0.35236(11) 0.69870(12)
C19 C 0.1744(3) 0.37631(15) 0.44302(15)
H19 H 0.1304 0.3414 0.4170
C20 C 0.2894(3) 0.38189(15) 0.44145(14)
H20 H 0.3258 0.3502 0.4152
C21 C 0.3505(3) 0.43182(15) 0.47685(16)
H21 H 0.4302 0.4352 0.4755
C22 C 0.3019(3) 0.47707(13) 0.51407(15)
H22 H 0.3472 0.5127 0.5375
C23 C 0.1900(3) 0.47333(15) 0.51912(16)
H23 H 0.1572 0.5052 0.5470
C24 C 0.1227(2) 0.42207(19) 0.48291(19)
H24 H 0.0434 0.4185 0.4855
Cr1B Cr -0.32151(3) 0.081680(15) 0.390950(17)
Cr1A Cr 0.67849(3) 0.418320(15) 0.890950(17)
O3B O 0.22935(12) -0.15377(6) 0.63831(7)
O4B O 0.27619(11) -0.10765(6) 0.50677(7)
O5A O 0.45407(11) -0.13992(6) 0.61703(7)
O6A O 0.36586(11) -0.05566(6) 0.71093(7)
P1 P 0.60039(6) 0.14077(3) 0.79603(3)
F1 F 0.50840(13) 0.18273(8) 0.74063(9)
F2 F 0.50715(13) 0.12859(7) 0.84670(8)
F3 F 0.55816(14) 0.07503(7) 0.75067(8)
F4 F 0.69166(14) 0.09859(8) 0.85088(8)
F5 F 0.69367(12) 0.15276(7) 0.74546(7)
F6 F 0.64053(12) 0.20689(7) 0.84043(8)
C25 C 0.1622(2) 0.44469(14) 0.25987(13)
H25 H 0.1829 0.4902 0.2679
C26 C 0.2396(2) 0.40127(14) 0.24296(13)
H26 H 0.3147 0.4163 0.2399
C27 C 0.2121(3) 0.33639(15) 0.23022(14)
H27 H 0.2671 0.3062 0.2174
C28 C 0.1018(4) 0.31389(15) 0.23607(15)
H28 H 0.0807 0.2684 0.2277
C29 C 0.0231(3) 0.3609(2) 0.25472(14)
H29 H -0.0522 0.3475 0.2595
C30 C 0.0559(2) 0.42466(17) 0.26563(13)
H30 H 0.0027 0.4564 0.2777
C31 C 0.0590(3) 0.39391(16) 0.7805(2)
H31 H -0.0025 0.3628 0.7719
C32 C 0.1084(3) 0.41634(15) 0.72381(17)
H32 H 0.0812 0.4007 0.6755
C33 C 0.1972(2) 0.46133(14) 0.73679(15)
H33 H 0.2310 0.4771 0.6973
C34 C 0.2371(2) 0.48342(13) 0.80591(16)
H34 H 0.2991 0.5142 0.8148
C35 C 0.1883(3) 0.46142(15) 0.86245(16)
H35 H 0.2160 0.4770 0.9107
C36 C 0.0995(3) 0.41697(16) 0.84988(19)
H36 H 0.0655 0.4019 0.8895
C37 C 0.4049(3) 0.71986(13) 0.3919(2)
H37 H 0.4663 0.7488 0.3862
C38 C 0.3917(3) 0.69819(17) 0.46298(19)
H38 H 0.4435 0.7118 0.5057
C39 C 0.2987(3) 0.65592(15) 0.46677(17)
H39 H 0.2851 0.6410 0.5130
C40 C 0.2290(3) 0.63662(15) 0.40536(19)
H40 H 0.1671 0.6073 0.4086
C41 C 0.2445(3) 0.65774(14) 0.33939(17)
H41 H 0.1936 0.6428 0.2969
C42 C 0.3287(3) 0.69869(13) 0.33223(16)
H42 H 0.3364 0.7137 0.2849
loop_
_geom_bond_atom_site_label_1
_geom_bond_atom_site_label_2
_geom_bond_site_symmetry_1
_geom_bond_site_symmetry_2
Ag1 N1 1_555 1_555
Cr1 O1 1_555 1_555
P1 F1 1_555 1_555
F2 P1 1_555 1_555
F3 P1 1_555 1_555
F4 P1 1_555 1_555
F5 P1 1_555 1_555
F6 P1 1_555 1_555
O1 C4 1_555 1_555
O2 Cr1 1_555 1_555
O3 C10 1_555 1_555
O4 C8 1_555 1_555
O5 C14 1_555 1_555
O6 C16 1_555 1_555
N1 C6 1_555 1_555
N2 Ag1 1_555 1_555
N3 Ag1 1_555 1_555
C1 H1 1_555 1_555
H2 C1 1_555 1_555
H3 C1 1_555 1_555
C2 O2 1_555 1_555
C3 C2 1_555 1_555
C4 C3 1_555 1_555
C5 C4 1_555 1_555
H4 C5 1_555 1_555
H5 C5 1_555 1_555
H6 C5 1_555 1_555
C6 C3 1_555 1_555
C7 H7 1_555 1_555
H8 C7 1_555 1_555
H9 C7 1_555 1_555
C8 C7 1_555 1_555
C9 C8 1_555 1_555
C10 C9 1_555 1_555
C11 C10 1_555 1_555
H10 C11 1_555 1_555
H11 C11 1_555 1_555
H12 C11 1_555 1_555
C12 N2 1_555 1_555
C13 H13 1_555 1_555
H14 C13 1_555 1_555
H15 C13 1_555 1_555
C14 C13 1_555 1_555
C15 C14 1_555 1_555
C16 C15 1_555 1_555
C17 C16 1_555 1_555
H16 C17 1_555 1_555
H17 C17 1_555 1_555
H18 C17 1_555 1_555
C18 N3 1_555 1_555
C19 Ag1 1_555 1_555
H19 C19 1_555 1_555
C20 C19 1_555 1_555
H20 C20 1_555 1_555
C21 C20 1_555 1_555
H21 C21 1_555 1_555
C22 C21 1_555 1_555
H22 C22 1_555 1_555
C23 C22 1_555 1_555
H23 C23 1_555 1_555
C24 C19 1_555 1_555
H24 C24 1_555 1_555
C25 H25 1_555 1_555
C26 C25 1_555 1_555
H26 C26 1_555 1_555
C27 C26 1_555 1_555
H27 C27 1_555 1_555
C28 C27 1_555 1_555
H28 C28 1_555 1_555
C29 C28 1_555 1_555
H29 C29 1_555 1_555
C30 C25 1_555 1_555
H30 C30 1_555 1_555
C31 H31 1_555 1_555
C32 C31 1_555 1_555
H32 C32 1_555 1_555
C33 C32 1_555 1_555
H33 C33 1_555 1_555
C34 C33 1_555 1_555
H34 C34 1_555 1_555
C35 C34 1_555 1_555
H35 C35 1_555 1_555
C36 C31 1_555 1_555
H36 C36 1_555 1_555
C37 H37 1_555 1_555
C38 C37 1_555 1_555
H38 C38 1_555 1_555
C39 C38 1_555 1_555
H39 C39 1_555 1_555
C40 C39 1_555 1_555
H40 C40 1_555 1_555
C41 C40 1_555 1_555
H41 C41 1_555 1_555
C42 C37 1_555 1_555
H42 C42 1_555 1_555
Cr1B O3 1_555 1_555
Cr1A O5 1_555 1_555
O3B Cr1 1_555 1_555
O4B Cr1 1_555 1_555
O5A Cr1 1_555 1_555
O6A Cr1 1_555 1_555
O4 Cr1B 1_555 1_555
O6 Cr1A 1_555 1_555
C1 C2 1_555 1_555
C9 C12 1_555 1_555
C15 C18 1_555 1_555
C23 C24 1_555 1_555
C29 C30 1_555 1_555
C35 C36 1_555 1_555
C41 C42 1_555 1_555

#END
