
#######################################################################
#
#                 Cambridge Crystallographic Data Centre
#                                CCDC 
#
#######################################################################
#
# If this CIF has been generated from an entry in the Cambridge 
# Structural Database, then it will include bibliographic, chemical, 
# crystal, experimental, refinement or atomic coordinate data resulting 
# from the CCDC's data processing and validation procedures.
#
#######################################################################

data_XOMHIR
_symmetry_cell_setting           monoclinic
_symmetry_space_group_name_H-M   'C 2/c'
_symmetry_Int_Tables_number      15
_space_group_name_Hall           '-C 2yn'
loop_
_symmetry_equiv_pos_site_id
_symmetry_equiv_pos_as_xyz
1 x,y,z
2 -x,y,1/2-z
3 1/2+x,1/2+y,z
4 1/2-x,1/2+y,1/2-z
5 -x,-y,-z
6 x,-y,1/2+z
7 1/2-x,1/2-y,-z
8 1/2+x,1/2-y,1/2+z
_cell_length_a                   17.5823(19)
_cell_length_b                   7.6716(10)
_cell_length_c                   10.4306(12)
_cell_angle_alpha                90
_cell_angle_beta                 110.815(8)
_cell_angle_gamma                90
_cell_volume                     1315.1
loop_
_atom_site_label
_atom_site_type_symbol
_atom_site_fract_x
_atom_site_fract_y
_atom_site_fract_z
Co1 Co 0.0000 0.25650(5) 0.2500
Na1 Na 0.0000 0.5000 0.5000
Na2 Na 0.0000 -0.18084(15) 0.2500
O1 O 0.05821(8) 0.07807(19) 0.38577(13)
O2 O 0.05598(9) 0.22312(19) 0.56798(15)
O3 O 0.41200(9) -0.0754(2) 0.61837(15)
O4 O 0.41104(8) 0.11368(18) 0.77849(14)
C1 C 0.08172(10) 0.1040(2) 0.51520(18)
C2 C 0.14675(10) -0.0185(3) 0.60250(19)
H1 H 0.1335 -0.1371 0.5699
H2 H 0.1492 -0.0133 0.6968
C3 C 0.22943(10) 0.0327(3) 0.59557(19)
H3 H 0.2281 0.0172 0.5025
H4 H 0.2397 0.1549 0.6191
C4 C 0.29835(11) -0.0767(3) 0.6930(2)
H5 H 0.2965 -0.0710 0.7847
H6 H 0.2915 -0.1975 0.6636
C5 C 0.37969(10) -0.0106(3) 0.69504(19)
Co1F Co 0.5000 0.24350(5) 0.7500
Co1F_2 Co -0.5000 0.24350(5) -0.2500
Na1B Na 0.5000 0.0000 0.5000
Na1C Na 0.5000 0.0000 1.0000
Na1A Na 0.0000 0.5000 0.0000
Na1C_2 Na -0.5000 0.0000 0.0000
Na1B_2 Na -0.5000 0.0000 -0.5000
Na2D Na 0.0000 0.18084(15) 0.7500
Na2F Na 0.5000 -0.31916(15) 0.7500
Na2D_2 Na 0.0000 0.18084(15) -0.2500
Na2F_2 Na -0.5000 -0.31916(15) -0.2500
O1A O -0.05821(8) 0.07807(19) 0.11423(13)
O2A O -0.05598(9) 0.22312(19) -0.06798(15)
O2D O -0.05598(9) 0.77688(19) 0.43202(15)
O2D_2 O -0.05598(9) -0.22312(19) 0.43202(15)
O2E O 0.05598(9) -0.22312(19) 0.06798(15)
O3A O -0.41200(9) -0.0754(2) -0.11837(15)
O3B O -0.08800(9) 0.4246(2) 0.61837(15)
O3F O 0.08800(9) 0.5754(2) 0.38163(15)
O3F_2 O 0.08800(9) -0.4246(2) 0.38163(15)
O3G O -0.08800(9) -0.4246(2) 0.11837(15)
O4A O -0.41104(8) 0.11368(18) -0.27849(14)
O4F O 0.08896(8) 0.38632(18) 0.22151(14)
O4G O -0.08896(8) 0.38632(18) 0.27849(14)
O4C O 0.08896(8) 0.61368(18) 0.72151(14)
C1A C -0.08172(10) 0.1040(2) -0.01520(18)
C2A C -0.14675(10) -0.0185(3) -0.10250(19)
H1A H -0.1335 -0.1371 -0.0699
H2A H -0.1492 -0.0133 -0.1968
C3A C -0.22943(10) 0.0327(3) -0.09557(19)
H3A H -0.2281 0.0172 -0.0025
H4A H -0.2397 0.1549 -0.1191
C4A C -0.29835(11) -0.0767(3) -0.1930(2)
H5A H -0.2965 -0.0710 -0.2847
H6A H -0.2915 -0.1975 -0.1636
C5A C -0.37969(10) -0.0106(3) -0.19504(19)
loop_
_geom_bond_atom_site_label_1
_geom_bond_atom_site_label_2
_geom_bond_site_symmetry_1
_geom_bond_site_symmetry_2
Co1 O1 1_555 1_555
Na1 O2 1_555 1_555
Na2 O1 1_555 1_555
O1 C1 1_555 1_555
O2 C1 1_555 1_555
O3 C5 1_555 1_555
O4 C5 1_555 1_555
C1 C2 1_555 1_555
C2 H1 1_555 1_555
H2 C2 1_555 1_555
C3 C2 1_555 1_555
H3 C3 1_555 1_555
H4 C3 1_555 1_555
C4 C3 1_555 1_555
H5 C4 1_555 1_555
H6 C4 1_555 1_555
C5 C4 1_555 1_555
Co1F O4 1_555 1_555
Co1F_2 O4A 1_555 1_555
Na1B O3 1_555 1_555
Na1C O4 1_555 1_555
Na1A O2A 1_555 1_555
Na1C_2 O3A 1_555 1_555
Na1B_2 O4A 1_555 1_555
Na2D O2 1_555 1_555
Na2F O3 1_555 1_555
Na2D_2 O2A 1_555 1_555
Na2F_2 O3A 1_555 1_555
O1A Co1 1_555 1_555
O2A C1A 1_555 1_555
O2D Na1 1_555 1_555
O2D_2 Na2 1_555 1_555
O2E Na2 1_555 1_555
O3A C5A 1_555 1_555
O3B Na1 1_555 1_555
O3F Na1 1_555 1_555
O3F_2 Na2 1_555 1_555
O3G Na2 1_555 1_555
O4A C5A 1_555 1_555
O4F Co1 1_555 1_555
O4G Co1 1_555 1_555
O4C Na1 1_555 1_555
C1A O1A 1_555 1_555
C2A C1A 1_555 1_555
H1A C2A 1_555 1_555
H2A C2A 1_555 1_555
C3A C2A 1_555 1_555
H3A C3A 1_555 1_555
H4A C3A 1_555 1_555
C4A C3A 1_555 1_555
H5A C4A 1_555 1_555
H6A C4A 1_555 1_555
C5A C4A 1_555 1_555
Na1 O4G 1_555 1_555
Na2 O1A 1_555 1_555
Na1A O4F 1_555 1_555
Na2D O3B 1_555 1_555

#END
