
#######################################################################
#
#                 Cambridge Crystallographic Data Centre
#                                CCDC 
#
#######################################################################
#
# If this CIF has been generated from an entry in the Cambridge 
# Structural Database, then it will include bibliographic, chemical, 
# crystal, experimental, refinement or atomic coordinate data resulting 
# from the CCDC's data processing and validation procedures.
#
#######################################################################

data_XOMHOX
_symmetry_cell_setting           monoclinic
_symmetry_space_group_name_H-M   'P 21/c'
_symmetry_Int_Tables_number      14
_space_group_name_Hall           '-P 2ybc'
loop_
_symmetry_equiv_pos_site_id
_symmetry_equiv_pos_as_xyz
1 x,y,z
2 -x,1/2+y,1/2-z
3 -x,-y,-z
4 x,1/2-y,1/2+z
_cell_length_a                   8.1450(10)
_cell_length_b                   13.740(2)
_cell_length_c                   17.299(2)
_cell_angle_alpha                90
_cell_angle_beta                 94.602(9)
_cell_angle_gamma                90
_cell_volume                     1929.73
loop_
_atom_site_label
_atom_site_type_symbol
_atom_site_fract_x
_atom_site_fract_y
_atom_site_fract_z
Na1 Na 0.94231(13) 0.70349(8) -0.26687(6)
Na2 Na 1.01412(13) 0.95791(7) -0.28379(6)
O1 O 0.8289(3) 0.74879(12) -0.38610(9)
O2 O 0.8583(2) 0.90703(12) -0.39686(9)
C1 C 0.8094(3) 0.82712(17) -0.42380(13)
C2 C 0.7264(3) 0.82010(18) -0.50529(14)
H1 H 0.8109 0.8204 -0.5418
H2 H 0.6694 0.7582 -0.5106
C3 C 0.6047(3) 0.90059(18) -0.52738(13)
H3 H 0.6585 0.9629 -0.5179
H4 H 0.5141 0.8966 -0.4944
C4 C 0.5356(3) 0.89585(17) -0.61249(13)
H5 H 0.4756 0.8354 -0.6215
H6 H 0.4591 0.9492 -0.6232
C5 C 0.6720(3) 0.90187(17) -0.66657(13)
O3 O 0.7436(2) 0.98141(12) -0.67343(11)
O4 O 0.7128(2) 0.82513(12) -0.70080(10)
O5 O 0.7719(3) 0.58790(13) -0.45002(11)
H7 H 0.792(4) 0.644(2) -0.4245(19)
O6 O 0.8885(2) 0.52865(12) -0.33954(10)
C6 C 0.8263(3) 0.51685(17) -0.40536(15)
C7 C 0.8012(4) 0.41953(17) -0.44433(15)
H8 H 0.8574 0.4207 -0.4917
H9 H 0.6845 0.4121 -0.4593
C8 C 0.8580(4) 0.33070(17) -0.39892(15)
H10 H 0.7955 0.3241 -0.3538
H11 H 0.9735 0.3375 -0.3812
C9 C 0.8341(3) 0.24107(17) -0.44950(14)
H12 H 0.7202 0.2396 -0.4707
H13 H 0.9020 0.2480 -0.4927
C10 C 0.8733(3) 0.14442(17) -0.41134(14)
O7 O 0.8604(3) 0.07326(13) -0.46210(10)
H14 H 0.865(4) 0.013(2) -0.4366(16)
O8 O 0.9101(2) 0.13224(12) -0.34244(9)
O9 O 1.3844(3) 0.85632(13) -0.36128(12)
H15 H 1.331(4) 0.914(2) -0.3466(16)
O10 O 1.1820(2) 0.79106(12) -0.29961(10)
C11 C 1.3081(3) 0.78234(17) -0.33309(14)
C12 C 1.3929(3) 0.68809(17) -0.34633(15)
H16 H 1.4061 0.6821 -0.4014
H17 H 1.5023 0.6908 -0.3198
C13 C 1.3082(3) 0.59690(17) -0.32011(15)
H18 H 1.2955 0.6011 -0.2649
H19 H 1.1992 0.5923 -0.3469
C14 C 1.4063(3) 0.50622(17) -0.33653(16)
H20 H 1.5151 0.5123 -0.3098
H21 H 1.4200 0.5039 -0.3917
C15 C 1.3332(3) 0.41157(18) -0.31335(14)
O11 O 1.2052(2) 0.40284(13) -0.28239(11)
O12 O 1.4225(3) 0.33678(13) -0.33204(13)
H22 H 1.373(4) 0.284(2) -0.3198(17)
Na1C Na 0.94231(13) 0.79651(8) -0.76687(6)
Na1A Na 1.05769(13) 0.20349(8) -0.23313(6)
Na2B Na 0.98588(13) 1.04209(7) -0.71621(6)
Na2A Na 0.98588(13) 0.45791(7) -0.21621(6)
Na2_2 Na 1.01412(13) -0.04209(7) -0.28379(6)
O3B O 1.2564(2) 1.01859(12) -0.32657(11)
O4C O 0.7128(2) 0.67487(12) -0.20080(10)
O6A O 1.1115(2) 1.02865(12) -0.16046(10)
O8A O 1.0899(2) 0.63224(12) -0.15756(9)
O8_2 O 0.9101(2) 1.13224(12) -0.34244(9)
O11A O 0.7948(2) 0.90284(13) -0.21761(11)
loop_
_geom_bond_atom_site_label_1
_geom_bond_atom_site_label_2
_geom_bond_site_symmetry_1
_geom_bond_site_symmetry_2
Na1 O1 1_555 1_555
Na2 O2 1_555 1_555
O1 C1 1_555 1_555
O2 C1 1_555 1_555
C1 C2 1_555 1_555
C2 H1 1_555 1_555
H2 C2 1_555 1_555
C3 C2 1_555 1_555
H3 C3 1_555 1_555
H4 C3 1_555 1_555
C4 C3 1_555 1_555
H5 C4 1_555 1_555
H6 C4 1_555 1_555
C5 C4 1_555 1_555
O3 C5 1_555 1_555
O4 C5 1_555 1_555
O5 H7 1_555 1_555
O6 Na1 1_555 1_555
C6 O5 1_555 1_555
C7 C6 1_555 1_555
H8 C7 1_555 1_555
H9 C7 1_555 1_555
C8 C7 1_555 1_555
H10 C8 1_555 1_555
H11 C8 1_555 1_555
C9 C8 1_555 1_555
H12 C9 1_555 1_555
H13 C9 1_555 1_555
C10 C9 1_555 1_555
O7 C10 1_555 1_555
H14 O7 1_555 1_555
O8 C10 1_555 1_555
O9 H15 1_555 1_555
O10 Na1 1_555 1_555
C11 O9 1_555 1_555
C12 C11 1_555 1_555
H16 C12 1_555 1_555
H17 C12 1_555 1_555
C13 C12 1_555 1_555
H18 C13 1_555 1_555
H19 C13 1_555 1_555
C14 C13 1_555 1_555
H20 C14 1_555 1_555
H21 C14 1_555 1_555
C15 C14 1_555 1_555
O11 C15 1_555 1_555
O12 C15 1_555 1_555
H22 O12 1_555 1_555
Na1C O4 1_555 1_555
Na1A O8 1_555 1_555
Na2B O3 1_555 1_555
Na2A O6 1_555 1_555
Na2_2 O8 1_555 1_555
O3B Na2 1_555 1_555
O4C Na1 1_555 1_555
O6A Na2 1_555 1_555
O8A Na1 1_555 1_555
O8_2 Na2 1_555 1_555
O11A Na2 1_555 1_555
Na2 O10 1_555 1_555
O6 C6 1_555 1_555
O10 C11 1_555 1_555
O11 Na2A 1_555 1_555
Na2A O8A 1_555 1_555

#END
