
#######################################################################
#
#                 Cambridge Crystallographic Data Centre
#                                CCDC 
#
#######################################################################
#
# If this CIF has been generated from an entry in the Cambridge 
# Structural Database, then it will include bibliographic, chemical, 
# crystal, experimental, refinement or atomic coordinate data resulting 
# from the CCDC's data processing and validation procedures.
#
#######################################################################

data_XOMMET
_symmetry_cell_setting           monoclinic
_symmetry_space_group_name_H-M   'P 21/c'
_symmetry_Int_Tables_number      14
_space_group_name_Hall           '-P 2ybc'
loop_
_symmetry_equiv_pos_site_id
_symmetry_equiv_pos_as_xyz
1 x,y,z
2 -x,1/2+y,1/2-z
3 -x,-y,-z
4 x,1/2-y,1/2+z
_cell_length_a                   9.3476(10)
_cell_length_b                   12.4985(14)
_cell_length_c                   17.3322(19)
_cell_angle_alpha                90
_cell_angle_beta                 94.261(2)
_cell_angle_gamma                90
_cell_volume                     2019.34
loop_
_atom_site_label
_atom_site_type_symbol
_atom_site_fract_x
_atom_site_fract_y
_atom_site_fract_z
Zn1 Zn 0.57186(6) 0.26029(5) 0.26074(3)
O1 O 0.7553(4) 0.1945(3) 0.31265(18)
O2 O 0.8098(4) 0.0894(3) 0.2150(2)
O3 O 1.3365(4) -0.0340(3) 0.2211(2)
O4 O 1.3324(3) -0.1499(3) 0.3173(2)
O5 O 0.5331(3) 0.1223(3) 0.1954(2)
H1 H 0.618(2) 0.097(4) 0.202(3)
H2 H 0.465(4) 0.080(3) 0.203(3)
N1 N 0.4955(5) 0.2931(3) 0.3694(2)
N2 N 0.3550(4) 0.3009(4) 0.2327(3)
C1 C 0.8358(5) 0.1297(4) 0.2801(3)
C2 C 0.9738(5) 0.1008(4) 0.3253(3)
C3 C 1.0796(5) 0.0451(4) 0.2891(3)
H3 H 1.0645 0.0289 0.2368
C4 C 1.2074(5) 0.0129(4) 0.3292(3)
C5 C 1.2339(5) 0.0414(4) 0.4080(3)
C6 C 1.1283(5) 0.0985(4) 0.4424(3)
H4 H 1.1438 0.1178 0.4941
C7 C 1.0000(5) 0.1280(4) 0.4021(3)
H5 H 0.9317 0.1661 0.4271
C8 C 1.3014(5) -0.0604(4) 0.2862(3)
C9 C 1.3704(5) 0.0171(4) 0.4544(3)
C10 C 1.5033(5) 0.0266(4) 0.4238(3)
H6 H 1.5069 0.0445 0.3719
C11 C 1.3708(5) -0.0101(4) 0.5319(3)
H7 H 1.2840 -0.0174 0.5543
C12 C 0.5776(7) 0.2938(5) 0.4355(3)
H8 H 0.6706 0.2672 0.4362
C13 C 0.5277(8) 0.3334(6) 0.5037(4)
H9 H 0.5856 0.3319 0.5497
C14 C 0.3929(9) 0.3742(6) 0.5017(4)
H10 H 0.3594 0.4041 0.5460
C15 C 0.3058(7) 0.3715(5) 0.4341(4)
H11 H 0.2123 0.3972 0.4330
C16 C 0.3596(6) 0.3297(4) 0.3672(3)
C17 C 0.2757(6) 0.3215(4) 0.2924(3)
C18 C 0.1273(6) 0.3285(5) 0.2829(4)
H12 H 0.0744 0.3447 0.3247
C19 C 0.0607(6) 0.3116(5) 0.2120(5)
H13 H -0.0389 0.3136 0.2052
C20 C 0.1396(6) 0.2915(5) 0.1505(4)
H14 H 0.0952 0.2799 0.1015
C21 C 0.2873(6) 0.2889(5) 0.1631(4)
H15 H 0.3417 0.2782 0.1210
O1B O 2.2447(4) -0.1945(3) 0.68735(18)
O2B O 2.1902(4) -0.0894(3) 0.7850(2)
O3B O 1.6635(4) 0.0340(3) 0.7789(2)
O4B O 1.6676(3) 0.1499(3) 0.6827(2)
C1B C 2.1642(5) -0.1297(4) 0.7199(3)
C2B C 2.0262(5) -0.1008(4) 0.6747(3)
C3B C 1.9204(5) -0.0451(4) 0.7109(3)
H3B H 1.9355 -0.0289 0.7632
C4B C 1.7926(5) -0.0129(4) 0.6708(3)
C5B C 1.7661(5) -0.0414(4) 0.5920(3)
C6B C 1.8717(5) -0.0985(4) 0.5576(3)
H4B H 1.8562 -0.1178 0.5059
C7B C 2.0000(5) -0.1280(4) 0.5979(3)
H5B H 2.0683 -0.1661 0.5729
C8B C 1.6986(5) 0.0604(4) 0.7138(3)
C9B C 1.6296(5) -0.0171(4) 0.5456(3)
C10B C 1.4967(5) -0.0266(4) 0.5762(3)
H6B H 1.4931 -0.0445 0.6281
C11B C 1.6292(5) 0.0101(4) 0.4681(3)
H7B H 1.7160 0.0174 0.4457
Zn1B Zn 2.42814(6) -0.26029(5) 0.73926(3)
O5B O 2.4669(3) -0.1223(3) 0.8046(2)
H1B H 2.382(2) -0.097(4) 0.798(3)
H2B H 2.535(4) -0.080(3) 0.797(3)
N1B N 2.5045(5) -0.2931(3) 0.6306(2)
N2B N 2.6450(4) -0.3009(4) 0.7673(3)
C12B C 2.4224(7) -0.2938(5) 0.5645(3)
H8B H 2.3294 -0.2672 0.5638
C13B C 2.4723(8) -0.3334(6) 0.4963(4)
H9B H 2.4144 -0.3319 0.4503
C14B C 2.6071(9) -0.3742(6) 0.4983(4)
H10B H 2.6406 -0.4041 0.4540
C15B C 2.6942(7) -0.3715(5) 0.5659(4)
H11B H 2.7877 -0.3972 0.5670
C16B C 2.6404(6) -0.3297(4) 0.6328(3)
C17B C 2.7243(6) -0.3215(4) 0.7076(3)
C18B C 2.8727(6) -0.3285(5) 0.7171(4)
H12B H 2.9256 -0.3447 0.6753
C19B C 2.9393(6) -0.3116(5) 0.7880(5)
H13B H 3.0389 -0.3136 0.7948
C20B C 2.8604(6) -0.2915(5) 0.8495(4)
H14B H 2.9048 -0.2799 0.8985
C21B C 2.7127(6) -0.2889(5) 0.8369(4)
H15B H 2.6583 -0.2782 0.8790
Zn1A Zn 1.42814(6) -0.23971(5) 0.23926(3)
Zn1C Zn 1.57186(6) 0.23971(5) 0.76074(3)
O4A O 0.6676(3) 0.3501(3) 0.1827(2)
O4C O 2.3324(3) -0.3501(3) 0.8173(2)
O6 O 0.9255(13) 0.0936(11) 0.0665(7)
O8 O 0.8725(7) 0.4614(6) 0.4121(3)
H16 H 0.896(9) 0.438(7) 0.457(2)
H17 H 0.802(6) 0.452(7) 0.379(4)
O7? O 0.9011(13) 0.1325(10) 0.0609(7)
loop_
_geom_bond_atom_site_label_1
_geom_bond_atom_site_label_2
_geom_bond_site_symmetry_1
_geom_bond_site_symmetry_2
Zn1 O1 1_555 1_555
O1 C1 1_555 1_555
O2 C1 1_555 1_555
O3 C8 1_555 1_555
O4 C8 1_555 1_555
O5 Zn1 1_555 1_555
H1 O5 1_555 1_555
H2 O5 1_555 1_555
N1 Zn1 1_555 1_555
N2 Zn1 1_555 1_555
C1 C2 1_555 1_555
C2 C3 1_555 1_555
C3 H3 1_555 1_555
C4 C3 1_555 1_555
C5 C4 1_555 1_555
C6 C5 1_555 1_555
H4 C6 1_555 1_555
C7 C2 1_555 1_555
H5 C7 1_555 1_555
C8 C4 1_555 1_555
C9 C5 1_555 1_555
C10 C9 1_555 1_555
H6 C10 1_555 1_555
C11 C9 1_555 1_555
H7 C11 1_555 1_555
C12 N1 1_555 1_555
H8 C12 1_555 1_555
C13 C12 1_555 1_555
H9 C13 1_555 1_555
C14 C13 1_555 1_555
H10 C14 1_555 1_555
C15 C14 1_555 1_555
H11 C15 1_555 1_555
C16 N1 1_555 1_555
C17 N2 1_555 1_555
C18 C17 1_555 1_555
H12 C18 1_555 1_555
C19 C18 1_555 1_555
H13 C19 1_555 1_555
C20 C19 1_555 1_555
H14 C20 1_555 1_555
C21 N2 1_555 1_555
H15 C21 1_555 1_555
O8 H16 1_555 1_555
H17 O8 1_555 1_555
O1B C1B 1_555 1_555
O2B C1B 1_555 1_555
O3B C8B 1_555 1_555
O4B C8B 1_555 1_555
C1B C2B 1_555 1_555
C2B C3B 1_555 1_555
C3B H3B 1_555 1_555
C4B C3B 1_555 1_555
C5B C4B 1_555 1_555
C6B C5B 1_555 1_555
H4B C6B 1_555 1_555
C7B C2B 1_555 1_555
H5B C7B 1_555 1_555
C8B C4B 1_555 1_555
C9B C5B 1_555 1_555
C10B C11 1_555 1_555
H6B C10B 1_555 1_555
C11B C10 1_555 1_555
H7B C11B 1_555 1_555
Zn1B O1B 1_555 1_555
O5B Zn1B 1_555 1_555
H1B O5B 1_555 1_555
H2B O5B 1_555 1_555
N1B Zn1B 1_555 1_555
N2B Zn1B 1_555 1_555
C12B N1B 1_555 1_555
H8B C12B 1_555 1_555
C13B C12B 1_555 1_555
H9B C13B 1_555 1_555
C14B C13B 1_555 1_555
H10B C14B 1_555 1_555
C15B C14B 1_555 1_555
H11B C15B 1_555 1_555
C16B N1B 1_555 1_555
C17B N2B 1_555 1_555
C18B C17B 1_555 1_555
H12B C18B 1_555 1_555
C19B C18B 1_555 1_555
H13B C19B 1_555 1_555
C20B C19B 1_555 1_555
H14B C20B 1_555 1_555
C21B N2B 1_555 1_555
H15B C21B 1_555 1_555
Zn1A O4 1_555 1_555
Zn1C O4B 1_555 1_555
O4A Zn1 1_555 1_555
O4C Zn1B 1_555 1_555
C6 C7 1_555 1_555
C15 C16 1_555 1_555
C16 C17 1_555 1_555
C20 C21 1_555 1_555
C6B C7B 1_555 1_555
C9B C10B 1_555 1_555
C9B C11B 1_555 1_555
C15B C16B 1_555 1_555
C16B C17B 1_555 1_555
C20B C21B 1_555 1_555

#END
