
#######################################################################
#
#                 Cambridge Crystallographic Data Centre
#                                CCDC 
#
#######################################################################
#
# If this CIF has been generated from an entry in the Cambridge 
# Structural Database, then it will include bibliographic, chemical, 
# crystal, experimental, refinement or atomic coordinate data resulting 
# from the CCDC's data processing and validation procedures.
#
#######################################################################

data_XOMMIX
_symmetry_cell_setting           triclinic
_symmetry_space_group_name_H-M   'P -1'
_symmetry_Int_Tables_number      2
_space_group_name_Hall           '-P 1'
loop_
_symmetry_equiv_pos_site_id
_symmetry_equiv_pos_as_xyz
1 x,y,z
2 -x,-y,-z
_cell_length_a                   9.217(8)
_cell_length_b                   9.694(8)
_cell_length_c                   12.127(9)
_cell_angle_alpha                80.225(14)
_cell_angle_beta                 81.086(13)
_cell_angle_gamma                69.151(14)
_cell_volume                     992.623
loop_
_atom_site_label
_atom_site_type_symbol
_atom_site_fract_x
_atom_site_fract_y
_atom_site_fract_z
Zn1 Zn -0.21304(6) 0.16134(6) 0.62684(5)
N1 N -0.1580(4) 0.3333(4) 0.5076(3)
N2 N -0.3857(4) 0.3562(4) 0.6711(3)
O1 O 0.0025(4) 0.0594(4) 0.6679(3)
O2 O -0.0848(4) 0.1557(5) 0.8265(3)
O3 O 0.6376(5) -0.1069(5) 0.6087(4)
O4 O 0.6590(4) 0.0394(4) 0.7218(3)
O5 O -0.2254(5) 0.0697(4) 0.4911(3)
H1 H -0.264(6) 0.004(4) 0.517(4)
H2 H -0.157(5) 0.047(6) 0.437(3)
C1 C 0.0194(5) 0.0780(5) 0.7667(4)
C2 C 0.1797(5) -0.0009(5) 0.8053(4)
C3 C 0.3126(5) 0.0083(5) 0.7384(4)
H3 H 0.3027 0.0665 0.6688
C4 C 0.4608(5) -0.0676(5) 0.7727(4)
C5 C 0.4775(5) -0.1611(5) 0.8747(4)
C6 C 0.3445(5) -0.1697(5) 0.9413(4)
H4 H 0.3539 -0.2308 1.0096
C7 C 0.1968(5) -0.0886(5) 0.9081(4)
H5 H 0.1088 -0.0936 0.9556
C8 C 0.5989(5) -0.0459(5) 0.6950(4)
C9 C 0.6334(5) -0.2584(5) 0.9099(4)
C10 C 0.7301(7) -0.2049(6) 0.9509(6)
H6 H 0.7001 -0.1035 0.9549
C11 C 0.8734(7) -0.2993(6) 0.9868(6)
H7 H 0.9358 -0.2597 1.0155
C12 C 0.9235(5) -0.4494(5) 0.9806(4)
C13 C 0.8271(5) -0.5025(6) 0.9378(4)
H8 H 0.8585 -0.6033 0.9310
C14 C 0.6839(6) -0.4086(6) 0.9044(4)
H9 H 0.6202 -0.4486 0.8776
C15 C -0.0407(6) 0.3118(6) 0.4251(5)
H10 H 0.0249 0.2150 0.4170
C16 C -0.0127(7) 0.4271(7) 0.3516(5)
H11 H 0.0694 0.4087 0.2946
C17 C -0.1087(8) 0.5690(7) 0.3647(5)
H12 H -0.0918 0.6492 0.3174
C18 C -0.2305(7) 0.5924(6) 0.4484(5)
H13 H -0.2969 0.6886 0.4578
C19 C -0.2540(6) 0.4727(5) 0.5186(4)
C20 C -0.3833(5) 0.4843(5) 0.6099(4)
C21 C -0.4991(6) 0.6183(6) 0.6301(5)
H14 H -0.4963 0.7065 0.5870
C22 C -0.6175(6) 0.6197(7) 0.7140(5)
H15 H -0.6966 0.7085 0.7278
C23 C -0.6179(6) 0.4882(7) 0.7773(5)
H16 H -0.6968 0.4870 0.8351
C24 C -0.5003(6) 0.3582(6) 0.7545(4)
H17 H -0.5002 0.2694 0.7981
O1A O 1.9975(4) -1.0594(4) 1.3321(3)
O2A O 2.0848(4) -1.1557(5) 1.1735(3)
O3A O 1.3624(5) -0.8931(5) 1.3913(4)
O4A O 1.3410(4) -1.0394(4) 1.2782(3)
C1A C 1.9806(5) -1.0780(5) 1.2333(4)
C2A C 1.8203(5) -0.9991(5) 1.1947(4)
C3A C 1.6874(5) -1.0083(5) 1.2616(4)
H3A H 1.6973 -1.0665 1.3312
C4A C 1.5392(5) -0.9324(5) 1.2273(4)
C5A C 1.5225(5) -0.8389(5) 1.1253(4)
C6A C 1.6555(5) -0.8303(5) 1.0587(4)
H4A H 1.6461 -0.7692 0.9904
C7A C 1.8032(5) -0.9114(5) 1.0919(4)
H5A H 1.8912 -0.9064 1.0444
C8A C 1.4011(5) -0.9541(5) 1.3050(4)
C9A C 1.3666(5) -0.7416(5) 1.0901(4)
C10A C 1.2699(7) -0.7951(6) 1.0491(6)
H6A H 1.2999 -0.8965 1.0451
C11A C 1.1266(7) -0.7007(6) 1.0132(6)
H7A H 1.0642 -0.7403 0.9845
C12A C 1.0765(5) -0.5506(5) 1.0194(4)
C13A C 1.1729(5) -0.4975(6) 1.0622(4)
H8A H 1.1415 -0.3967 1.0690
C14A C 1.3161(6) -0.5914(6) 1.0956(4)
H9A H 1.3798 -0.5514 1.1224
Zn1A Zn 1.21304(6) -1.16134(6) 1.37316(5)
N1A N 1.1580(4) -1.3333(4) 1.4924(3)
N2A N 1.3857(4) -1.3562(4) 1.3289(3)
O5A O 1.2254(5) -1.0697(4) 1.5089(3)
H1A H 1.264(6) -1.004(4) 1.483(4)
H2A H 1.157(5) -1.047(6) 1.563(3)
C15A C 1.0407(6) -1.3118(6) 1.5749(5)
H10A H 0.9751 -1.2150 1.5830
C16A C 1.0127(7) -1.4271(7) 1.6484(5)
H11A H 0.9306 -1.4087 1.7054
C17A C 1.1087(8) -1.5690(7) 1.6353(5)
H12A H 1.0918 -1.6492 1.6826
C18A C 1.2305(7) -1.5924(6) 1.5516(5)
H13A H 1.2969 -1.6886 1.5422
C19A C 1.2540(6) -1.4727(5) 1.4814(4)
C20A C 1.3833(5) -1.4843(5) 1.3901(4)
C21A C 1.4991(6) -1.6183(6) 1.3699(5)
H14A H 1.4963 -1.7065 1.4130
C22A C 1.6175(6) -1.6197(7) 1.2860(5)
H15A H 1.6966 -1.7085 1.2722
C23A C 1.6179(6) -1.4882(7) 1.2227(5)
H16A H 1.6968 -1.4870 1.1649
C24A C 1.5003(6) -1.3582(6) 1.2455(4)
H17A H 1.5002 -1.2694 1.2019
Zn1_2 Zn 0.78696(6) 0.16134(6) 0.62684(5)
Zn1A_2 Zn 2.21304(6) -1.16134(6) 1.37316(5)
O1A_2 O 0.9975(4) -1.0594(4) 1.3321(3)
O4_2 O -0.3410(4) 0.0394(4) 0.7218(3)
loop_
_geom_bond_atom_site_label_1
_geom_bond_atom_site_label_2
_geom_bond_site_symmetry_1
_geom_bond_site_symmetry_2
Zn1 N1 1_555 1_555
N1 C15 1_555 1_555
N2 Zn1 1_555 1_555
O1 Zn1 1_555 1_555
O2 C1 1_555 1_555
O3 C8 1_555 1_555
O4 C8 1_555 1_555
O5 Zn1 1_555 1_555
H1 O5 1_555 1_555
H2 O5 1_555 1_555
C1 O1 1_555 1_555
C2 C1 1_555 1_555
C3 C2 1_555 1_555
H3 C3 1_555 1_555
C4 C3 1_555 1_555
C5 C4 1_555 1_555
C6 C5 1_555 1_555
H4 C6 1_555 1_555
C7 C2 1_555 1_555
H5 C7 1_555 1_555
C8 C4 1_555 1_555
C9 C5 1_555 1_555
C10 C9 1_555 1_555
H6 C10 1_555 1_555
C11 C10 1_555 1_555
H7 C11 1_555 1_555
C12 C11 1_555 1_555
C13 C12 1_555 1_555
H8 C13 1_555 1_555
C14 C9 1_555 1_555
H9 C14 1_555 1_555
C15 H10 1_555 1_555
C16 C15 1_555 1_555
H11 C16 1_555 1_555
C17 C16 1_555 1_555
H12 C17 1_555 1_555
C18 C17 1_555 1_555
H13 C18 1_555 1_555
C19 N1 1_555 1_555
C20 N2 1_555 1_555
C21 C20 1_555 1_555
H14 C21 1_555 1_555
C22 C21 1_555 1_555
H15 C22 1_555 1_555
C23 C22 1_555 1_555
H16 C23 1_555 1_555
C24 N2 1_555 1_555
H17 C24 1_555 1_555
O1A C1A 1_555 1_555
O2A C1A 1_555 1_555
O3A C8A 1_555 1_555
O4A C8A 1_555 1_555
C1A C2A 1_555 1_555
C2A C3A 1_555 1_555
C3A H3A 1_555 1_555
C4A C3A 1_555 1_555
C5A C4A 1_555 1_555
C6A C5A 1_555 1_555
H4A C6A 1_555 1_555
C7A C2A 1_555 1_555
H5A C7A 1_555 1_555
C8A C4A 1_555 1_555
C9A C5A 1_555 1_555
C10A C9A 1_555 1_555
H6A C10A 1_555 1_555
C11A C10A 1_555 1_555
H7A C11A 1_555 1_555
C12A C12 1_555 1_555
C13A C12A 1_555 1_555
H8A C13A 1_555 1_555
C14A C9A 1_555 1_555
H9A C14A 1_555 1_555
Zn1A O4A 1_555 1_555
N1A Zn1A 1_555 1_555
N2A Zn1A 1_555 1_555
O5A Zn1A 1_555 1_555
H1A O5A 1_555 1_555
H2A O5A 1_555 1_555
C15A N1A 1_555 1_555
H10A C15A 1_555 1_555
C16A C15A 1_555 1_555
H11A C16A 1_555 1_555
C17A C16A 1_555 1_555
H12A C17A 1_555 1_555
C18A C17A 1_555 1_555
H13A C18A 1_555 1_555
C19A N1A 1_555 1_555
C20A N2A 1_555 1_555
C21A C20A 1_555 1_555
H14A C21A 1_555 1_555
C22A C21A 1_555 1_555
H15A C22A 1_555 1_555
C23A C22A 1_555 1_555
H16A C23A 1_555 1_555
C24A N2A 1_555 1_555
H17A C24A 1_555 1_555
Zn1_2 O4 1_555 1_555
Zn1A_2 O1A 1_555 1_555
O1A_2 Zn1A 1_555 1_555
O4_2 Zn1 1_555 1_555
C6 C7 1_555 1_555
C13 C14 1_555 1_555
C18 C19 1_555 1_555
C19 C20 1_555 1_555
C23 C24 1_555 1_555
C6A C7A 1_555 1_555
C11A C12A 1_555 1_555
C13A C14A 1_555 1_555
C18A C19A 1_555 1_555
C19A C20A 1_555 1_555
C23A C24A 1_555 1_555

#END
