
#######################################################################
#
#                 Cambridge Crystallographic Data Centre
#                                CCDC 
#
#######################################################################
#
# If this CIF has been generated from an entry in the Cambridge 
# Structural Database, then it will include bibliographic, chemical, 
# crystal, experimental, refinement or atomic coordinate data resulting 
# from the CCDC's data processing and validation procedures.
#
#######################################################################

data_XOMMOD
_symmetry_cell_setting           monoclinic
_symmetry_space_group_name_H-M   'P 21/n'
_symmetry_Int_Tables_number      14
_space_group_name_Hall           '-P 2yn'
loop_
_symmetry_equiv_pos_site_id
_symmetry_equiv_pos_as_xyz
1 x,y,z
2 1/2-x,1/2+y,1/2-z
3 -x,-y,-z
4 1/2+x,1/2-y,1/2+z
_cell_length_a                   10.1012(10)
_cell_length_b                   15.8278(16)
_cell_length_c                   27.754(3)
_cell_angle_alpha                90
_cell_angle_beta                 92.249(2)
_cell_angle_gamma                90
_cell_volume                     4433.89
loop_
_atom_site_label
_atom_site_type_symbol
_atom_site_fract_x
_atom_site_fract_y
_atom_site_fract_z
C1 C 0.7576(4) 0.2232(3) 0.64223(13)
C2 C 0.7916(4) 0.2646(3) 0.59544(13)
C3 C 0.8152(4) 0.2164(2) 0.55469(13)
H1 H 0.8116 0.1578 0.5562
C4 C 0.8441(4) 0.2559(2) 0.51193(12)
C5 C 0.8526(4) 0.3439(2) 0.51003(12)
C6 C 0.8289(4) 0.3933(3) 0.55045(13)
H2 H 0.8341 0.4519 0.5491
C7 C 0.7974(4) 0.3524(3) 0.59298(13)
H3 H 0.7798 0.3843 0.6201
C8 C 0.8693(4) 0.2167(2) 0.46249(13)
C9 C 0.8996(4) 0.2955(2) 0.43332(12)
C10 C 0.9305(4) 0.3011(2) 0.38516(12)
H4 H 0.9394 0.2524 0.3668
C11 C 0.9481(4) 0.3804(2) 0.36447(12)
C12 C 0.9363(4) 0.4529(2) 0.39239(12)
H5 H 0.9489 0.5056 0.3785
C13 C 0.9060(4) 0.4478(2) 0.44077(13)
H6 H 0.8988 0.4964 0.4593
C14 C 0.8868(4) 0.3688(2) 0.46089(12)
C15 C 0.7420(5) 0.1746(3) 0.44144(15)
H7 H 0.7230 0.1250 0.4598
H8 H 0.7545 0.1590 0.4085
H9 H 0.6694 0.2135 0.4429
C16 C 0.9829(5) 0.1528(3) 0.46500(16)
H10 H 0.9576 0.1047 0.4836
H11 H 1.0601 0.1786 0.4800
H12 H 1.0024 0.1350 0.4330
C17 C 0.9775(4) 0.3865(2) 0.31179(12)
C18 C 0.4590(4) 1.1071(2) 0.65270(12)
C19 C 0.4227(4) 1.1133(2) 0.59991(12)
C20 C 0.4130(4) 1.1927(2) 0.57795(13)
H13 H 0.4270 1.2414 0.5962
C21 C 0.3829(4) 1.1989(2) 0.52922(13)
C22 C 0.3616(4) 1.1249(2) 0.50197(12)
C23 C 0.3685(5) 1.0457(3) 0.52355(14)
H14 H 0.3523 0.9970 0.5055
C24 C 0.4001(4) 1.0409(3) 0.57247(13)
H15 H 0.4064 0.9882 0.5872
C25 C 0.3667(4) 1.2771(2) 0.49745(13)
C26 C 0.3419(4) 1.2367(2) 0.44804(12)
C27 C 0.3223(4) 1.2747(2) 0.40309(13)
H16 H 0.3261 1.3332 0.4003
C28 C 0.2970(4) 1.2251(2) 0.36232(12)
C29 C 0.2892(4) 1.1376(2) 0.36654(13)
H17 H 0.2697 1.1050 0.3393
C30 C 0.3103(4) 1.0983(3) 0.41086(13)
H18 H 0.3075 1.0398 0.4135
C31 C 0.3358(4) 1.1489(2) 0.45133(13)
C32 C 0.2748(4) 1.2661(2) 0.31371(13)
C33 C 0.2465(5) 1.3300(3) 0.51216(15)
H19 H 0.2383 1.3789 0.4918
H20 H 0.2590 1.3474 0.5452
H21 H 0.1675 1.2965 0.5086
C34 C 0.4909(5) 1.3333(3) 0.49948(15)
H22 H 0.4765 1.3815 0.4789
H23 H 0.5652 1.3016 0.4887
H24 H 0.5086 1.3519 0.5320
C35 C 0.3776(5) 0.8590(3) 0.69456(16)
H25 H 0.3551 0.8882 0.6663
C36 C 0.3263(5) 0.7848(3) 0.7073(2)
H26 H 0.2629 0.7534 0.6900
C37 C 0.4700(4) 0.8260(3) 0.76246(15)
H27 H 0.5236 0.8268 0.7905
C38 C 0.3578(5) 0.6881(3) 0.77891(19)
H28 H 0.2649 0.6875 0.7864
H29 H 0.4095 0.6897 0.8091
C39 C 0.3906(5) 0.6084(3) 0.75187(19)
H30 H 0.3486 0.6106 0.7199
H31 H 0.4856 0.6053 0.7483
C40 C 0.3450(5) 0.5304(3) 0.77734(18)
H32 H 0.3889 0.5271 0.8090
H33 H 0.2503 0.5339 0.7817
C41 C 0.3194(4) 0.4321(3) 0.70564(17)
H34 H 0.2544 0.4617 0.6880
C42 C 0.3775(4) 0.3598(3) 0.69286(15)
H35 H 0.3583 0.3304 0.6644
C43 C 0.4635(4) 0.3940(2) 0.76145(14)
H36 H 0.5149 0.3939 0.7900
N1 N 0.4702(3) 0.33525(19) 0.72809(11)
N2 N 0.3745(3) 0.4538(2) 0.74975(13)
N3 N 0.3856(4) 0.7641(2) 0.75089(14)
N4 N 0.4687(3) 0.88587(19) 0.72957(11)
O1 O 0.7005(3) 0.26753(17) 0.67301(9)
O2 O 0.7865(3) 0.14604(19) 0.64745(10)
O3 O 0.9929(3) 0.46033(16) 0.29497(8)
O4 O 0.9820(3) 0.31927(16) 0.28823(8)
O5 O 0.4558(3) 1.17370(16) 0.67691(9)
O6 O 0.4882(3) 1.03457(16) 0.66931(8)
O7 O 0.2191(3) 1.22249(16) 0.28021(8)
O8 O 0.3105(3) 1.34145(18) 0.30877(9)
O9 O 0.6952(2) 1.10641(14) 0.72900(8)
O10 O 0.7328(3) 0.93602(17) 0.76031(11)
Co1 Co 0.56839(5) 0.99974(3) 0.733530(16)
Co2 Co 0.58361(5) 0.22415(3) 0.728863(15)
O3C O 0.4929(3) 1.03967(16) 0.79497(8)
O4C O 0.4820(3) 0.18073(16) 0.78823(8)
O5_2 O 0.4558(3) 0.17370(16) 0.67691(9)
O7C O 0.7191(3) 0.27751(16) 0.78021(8)
O9_2 O 0.6952(2) 0.10641(14) 0.72900(8)
Co1C Co 1.06839(5) 0.50026(3) 0.233530(16)
Co2_2 Co 0.58361(5) 1.22415(3) 0.728863(15)
Co2C Co 0.08361(5) 1.27585(3) 0.228863(15)
Co2C_2 Co 1.08361(5) 0.27585(3) 0.228863(15)
O11 O 0.8734(4) 1.0000(2) 0.83791(13)
O12 O 0.9924(10) 0.0471(7) 0.6172(4)
loop_
_geom_bond_atom_site_label_1
_geom_bond_atom_site_label_2
_geom_bond_site_symmetry_1
_geom_bond_site_symmetry_2
C1 C2 1_555 1_555
C2 C3 1_555 1_555
C3 H1 1_555 1_555
C4 C3 1_555 1_555
C5 C4 1_555 1_555
C6 C5 1_555 1_555
H2 C6 1_555 1_555
C7 C2 1_555 1_555
H3 C7 1_555 1_555
C8 C4 1_555 1_555
C9 C8 1_555 1_555
C10 C9 1_555 1_555
H4 C10 1_555 1_555
C11 C10 1_555 1_555
C12 C11 1_555 1_555
H5 C12 1_555 1_555
C13 C12 1_555 1_555
H6 C13 1_555 1_555
C14 C5 1_555 1_555
C15 C8 1_555 1_555
H7 C15 1_555 1_555
H8 C15 1_555 1_555
H9 C15 1_555 1_555
C16 C8 1_555 1_555
H10 C16 1_555 1_555
H11 C16 1_555 1_555
H12 C16 1_555 1_555
C17 C11 1_555 1_555
C18 C19 1_555 1_555
C19 C20 1_555 1_555
C20 H13 1_555 1_555
C21 C20 1_555 1_555
C22 C21 1_555 1_555
C23 C22 1_555 1_555
H14 C23 1_555 1_555
C24 C19 1_555 1_555
H15 C24 1_555 1_555
C25 C21 1_555 1_555
C26 C25 1_555 1_555
C27 C26 1_555 1_555
H16 C27 1_555 1_555
C28 C27 1_555 1_555
C29 C28 1_555 1_555
H17 C29 1_555 1_555
C30 C29 1_555 1_555
H18 C30 1_555 1_555
C31 C22 1_555 1_555
C32 C28 1_555 1_555
C33 C25 1_555 1_555
H19 C33 1_555 1_555
H20 C33 1_555 1_555
H21 C33 1_555 1_555
C34 C25 1_555 1_555
H22 C34 1_555 1_555
H23 C34 1_555 1_555
H24 C34 1_555 1_555
C35 H25 1_555 1_555
C36 C35 1_555 1_555
H26 C36 1_555 1_555
C37 H27 1_555 1_555
C38 H28 1_555 1_555
H29 C38 1_555 1_555
C39 C38 1_555 1_555
H30 C39 1_555 1_555
H31 C39 1_555 1_555
C40 C39 1_555 1_555
H32 C40 1_555 1_555
H33 C40 1_555 1_555
C41 H34 1_555 1_555
C42 C41 1_555 1_555
H35 C42 1_555 1_555
C43 H36 1_555 1_555
N1 C42 1_555 1_555
N2 C40 1_555 1_555
N3 C36 1_555 1_555
N4 C35 1_555 1_555
O1 C1 1_555 1_555
O2 C1 1_555 1_555
O3 C17 1_555 1_555
O4 C17 1_555 1_555
O5 C18 1_555 1_555
O6 C18 1_555 1_555
O7 C32 1_555 1_555
O8 C32 1_555 1_555
O9 Co1 1_555 1_555
O10 Co1 1_555 1_555
Co1 N4 1_555 1_555
Co2 N1 1_555 1_555
O3C Co1 1_555 1_555
O4C Co2 1_555 1_555
O5_2 Co2 1_555 1_555
O7C Co2 1_555 1_555
O9_2 Co2 1_555 1_555
Co1C O3 1_555 1_555
Co2_2 O5 1_555 1_555
Co2C O7 1_555 1_555
Co2C_2 O4 1_555 1_555
C6 C7 1_555 1_555
C9 C14 1_555 1_555
C13 C14 1_555 1_555
C23 C24 1_555 1_555
C26 C31 1_555 1_555
C30 C31 1_555 1_555
C37 N3 1_555 1_555
C37 N4 1_555 1_555
C38 N3 1_555 1_555
C41 N2 1_555 1_555
C43 N1 1_555 1_555
C43 N2 1_555 1_555
O1 Co2 1_555 1_555
O6 Co1 1_555 1_555
O9 Co2_2 1_555 1_555

#END
