
#######################################################################
#
#                 Cambridge Crystallographic Data Centre
#                                CCDC 
#
#######################################################################
#
# If this CIF has been generated from an entry in the Cambridge 
# Structural Database, then it will include bibliographic, chemical, 
# crystal, experimental, refinement or atomic coordinate data resulting 
# from the CCDC's data processing and validation procedures.
#
#######################################################################

data_XOMNES
_symmetry_cell_setting           triclinic
_symmetry_space_group_name_H-M   'P -1'
_symmetry_Int_Tables_number      2
_space_group_name_Hall           '-P 1'
loop_
_symmetry_equiv_pos_site_id
_symmetry_equiv_pos_as_xyz
1 x,y,z
2 -x,-y,-z
_cell_length_a                   11.397(2)
_cell_length_b                   11.975(2)
_cell_length_c                   12.500(2)
_cell_angle_alpha                107.750(10)
_cell_angle_beta                 104.500(10)
_cell_angle_gamma                109.680(10)
_cell_volume                     1406.32
loop_
_atom_site_label
_atom_site_type_symbol
_atom_site_fract_x
_atom_site_fract_y
_atom_site_fract_z
Ni1 Ni 0.5000 0.5000 0.5000
Ni2 Ni 0.89948(5) 0.68216(4) 0.62540(4)
N1 N 1.0016(3) 0.7636(3) 0.8159(3)
N2 N 0.9540(3) 0.8806(3) 0.6701(3)
C1 C 1.0189(4) 0.7043(4) 0.8879(4)
H1 H 0.9779 0.6131 0.8536
C2 C 1.0966(5) 0.7736(5) 1.0139(4)
H2 H 1.1050 0.7286 1.0620
C3 C 1.1598(5) 0.9068(5) 1.0654(4)
H3 H 1.2130 0.9536 1.1487
C4 C 1.1440(4) 0.9728(4) 0.9924(4)
C5 C 1.2050(4) 1.1135(4) 1.0378(4)
H4 H 1.2619 1.1650 1.1198
C6 C 1.1816(5) 1.1721(4) 0.9640(4)
H5 H 1.2228 1.2632 0.9958
C7 C 1.0937(4) 1.0962(4) 0.8366(4)
C8 C 1.0568(5) 1.1508(4) 0.7577(4)
H6 H 1.0923 1.2414 0.7861
C9 C 0.9694(5) 1.0721(4) 0.6400(5)
H7 H 0.9426 1.1076 0.5874
C10 C 0.9202(5) 0.9362(4) 0.5992(4)
H8 H 0.8607 0.8825 0.5182
C11 C 1.0368(4) 0.9593(3) 0.7889(3)
C12 C 1.0628(4) 0.8973(3) 0.8668(3)
O1 O 0.5471(3) 0.5435(3) 0.3645(2)
O2 O 0.3422(3) 0.4509(3) 0.2181(2)
C13 C 0.4679(4) 0.5212(3) 0.2614(3)
C14 C 0.5296(5) 0.5831(4) 0.1875(4)
H9 H 0.4582 0.5574 0.1106
H10 H 0.5920 0.5493 0.1691
C15 C 0.6058(5) 0.7336(4) 0.2530(4)
H11 H 0.6793 0.7591 0.3283
H12 H 0.6455 0.7658 0.2018
C16 C 0.5188(4) 0.7987(4) 0.2824(4)
H13 H 0.4795 0.7674 0.3343
H14 H 0.4450 0.7734 0.2073
C17 C 0.5965(5) 0.9479(4) 0.3466(4)
H15 H 0.6562 0.9736 0.4293
H16 H 0.6526 0.9775 0.3045
C18 C 0.5064(4) 1.0160(4) 0.3514(4)
H17 H 0.4502 0.9868 0.3936
H18 H 0.4468 0.9909 0.2688
C19 C 0.5863(4) 1.1645(4) 0.4159(4)
H19 H 0.6376 1.1891 0.5009
H20 H 0.6508 1.1917 0.3800
C20 C 0.5035(4) 1.2387(4) 0.4109(3)
O3 O 0.5708(3) 1.3634(2) 0.4707(2)
O4 O 0.3789(3) 1.1808(3) 0.3509(3)
O7 O 0.7046(3) 0.6431(2) 0.6271(2)
O8 O 1.0820(3) 0.6987(3) 0.6098(3)
O9 O 0.8175(3) 0.6357(3) 0.4431(2)
O10 O 0.8439(3) 0.4867(3) 0.5856(3)
H27 H 0.6961 0.6195 0.6857
H28 H 0.6995 0.7146 0.6487
H29 H 1.0732 0.6634 0.5207
H30 H 1.1157 0.6622 0.6376
H31 H 0.7233 0.6053 0.4047
H32 H 0.8185 0.5618 0.3988
H33 H 0.8626 0.4403 0.6323
H34 H 0.7608 0.4351 0.5402
O1A O 0.4529(3) 0.4565(3) 0.6355(2)
O2A O 0.6578(3) 0.5491(3) 0.7819(2)
C13A C 0.5321(4) 0.4788(3) 0.7386(3)
C14A C 0.4704(5) 0.4169(4) 0.8125(4)
H9A H 0.5418 0.4426 0.8894
H10A H 0.4080 0.4507 0.8309
C15A C 0.3942(5) 0.2664(4) 0.7470(4)
H11A H 0.3207 0.2409 0.6717
H12A H 0.3545 0.2342 0.7982
C16A C 0.4812(4) 0.2013(4) 0.7176(4)
H13A H 0.5205 0.2326 0.6657
H14A H 0.5550 0.2266 0.7927
C17A C 0.4035(5) 0.0521(4) 0.6534(4)
H15A H 0.3438 0.0264 0.5707
H16A H 0.3474 0.0225 0.6955
C18A C 0.4936(4) -0.0160(4) 0.6486(4)
H17A H 0.5498 0.0132 0.6064
H18A H 0.5532 0.0091 0.7312
C19A C 0.4137(4) -0.1645(4) 0.5841(4)
H19A H 0.3624 -0.1891 0.4991
H20A H 0.3492 -0.1917 0.6200
C20A C 0.4965(4) -0.2387(4) 0.5891(3)
O3A O 0.4292(3) -0.3634(2) 0.5293(2)
O4A O 0.6211(3) -0.1808(3) 0.6491(3)
O7A O 0.2954(3) 0.3569(2) 0.3729(2)
H27A H 0.3039 0.3805 0.3143
H28A H 0.3005 0.2854 0.3513
Ni2A Ni 0.10052(5) 0.31784(4) 0.37460(4)
N1A N -0.0016(3) 0.2364(3) 0.1841(3)
N2A N 0.0460(3) 0.1194(3) 0.3299(3)
C1A C -0.0189(4) 0.2957(4) 0.1121(4)
H1A H 0.0221 0.3869 0.1464
C2A C -0.0966(5) 0.2264(5) -0.0139(4)
H2A H -0.1050 0.2714 -0.0620
C3A C -0.1598(5) 0.0932(5) -0.0654(4)
H3A H -0.2130 0.0464 -0.1487
C4A C -0.1440(4) 0.0272(4) 0.0076(4)
C5A C -0.2050(4) -0.1135(4) -0.0378(4)
H4A H -0.2619 -0.1650 -0.1198
C6A C -0.1816(5) -0.1721(4) 0.0360(4)
H5A H -0.2228 -0.2632 0.0042
C7A C -0.0937(4) -0.0962(4) 0.1634(4)
C8A C -0.0568(5) -0.1508(4) 0.2423(4)
H6A H -0.0923 -0.2414 0.2139
C9A C 0.0306(5) -0.0721(4) 0.3600(5)
H7A H 0.0574 -0.1076 0.4126
C10A C 0.0798(5) 0.0638(4) 0.4008(4)
H8A H 0.1393 0.1175 0.4818
C11A C -0.0368(4) 0.0407(3) 0.2111(3)
C12A C -0.0628(4) 0.1027(3) 0.1332(3)
O8A O -0.0820(3) 0.3013(3) 0.3902(3)
H29A H -0.0732 0.3366 0.4793
H30A H -0.1157 0.3378 0.3624
O9A O 0.1825(3) 0.3643(3) 0.5569(2)
H31A H 0.2767 0.3947 0.5953
H32A H 0.1815 0.4382 0.6012
O10A O 0.1561(3) 0.5133(3) 0.4144(3)
H33A H 0.1374 0.5597 0.3677
H34A H 0.2392 0.5649 0.4598
O3_2 O 0.5708(3) 0.3634(2) 0.4707(2)
O3A_2 O 0.4292(3) 0.6366(2) 0.5293(2)
Ni1_2 Ni 0.5000 1.5000 0.5000
Ni1_3 Ni 0.5000 -0.5000 0.5000
O5 O 1.1748(4) 0.4835(3) 0.8538(3)
O6 O 1.1722(4) 0.5638(3) 0.7166(3)
C21 C 1.2226(5) 0.5723(4) 0.8214(4)
C22 C 1.3464(6) 0.6952(5) 0.9182(5)
H21 H 1.3357 0.7129 0.9953
H22 H 1.4243 0.6772 0.9267
C23 C 1.3780(5) 0.8156(5) 0.8988(4)
H23 H 1.2959 0.8261 0.8763
H24 H 1.4056 0.8044 0.8304
C24 C 1.4871(5) 0.9392(5) 1.0069(5)
H25 H 1.4628 0.9463 1.0769
H26 H 1.5708 0.9309 1.0253
C24A C 1.5129(5) 1.0608(5) 0.9931(5)
C23A C 1.6220(5) 1.1844(5) 1.1012(4)
C22A C 1.6536(6) 1.3048(5) 1.0818(5)
C21A C 1.7774(5) 1.4277(4) 1.1786(4)
O5A O 1.8252(4) 1.5165(3) 1.1462(3)
O6A O 1.8278(4) 1.4362(3) 1.2834(3)
H21A H 1.6643 1.2871 1.0047
H22A H 1.5757 1.3228 1.0733
H23A H 1.7041 1.1739 1.1237
H24A H 1.5944 1.1956 1.1696
H25A H 1.5372 1.0537 0.9231
H26A H 1.4292 1.0691 0.9747
O11 O 0.8970(4) 0.3568(4) 0.7212(4)
H35 H 0.9823 0.3807 0.7705
H36 H 0.8317 0.3384 0.7679
O12 O 0.1814(4) 0.5420(4) 0.0874(4)
H37 H 0.1834 0.5340 0.0183
H38 H 0.2284 0.5152 0.1195
loop_
_geom_bond_atom_site_label_1
_geom_bond_atom_site_label_2
_geom_bond_site_symmetry_1
_geom_bond_site_symmetry_2
Ni1 O1 1_555 1_555
Ni2 N1 1_555 1_555
N1 C1 1_555 1_555
N2 Ni2 1_555 1_555
C1 H1 1_555 1_555
C2 C1 1_555 1_555
H2 C2 1_555 1_555
C3 C2 1_555 1_555
H3 C3 1_555 1_555
C4 C3 1_555 1_555
C5 C4 1_555 1_555
H4 C5 1_555 1_555
C6 C5 1_555 1_555
H5 C6 1_555 1_555
C7 C6 1_555 1_555
C8 C7 1_555 1_555
H6 C8 1_555 1_555
C9 C8 1_555 1_555
H7 C9 1_555 1_555
C10 N2 1_555 1_555
H8 C10 1_555 1_555
C11 N2 1_555 1_555
C12 N1 1_555 1_555
O1 C13 1_555 1_555
O2 C13 1_555 1_555
C13 C14 1_555 1_555
C14 H9 1_555 1_555
H10 C14 1_555 1_555
C15 C14 1_555 1_555
H11 C15 1_555 1_555
H12 C15 1_555 1_555
C16 C15 1_555 1_555
H13 C16 1_555 1_555
H14 C16 1_555 1_555
C17 C16 1_555 1_555
H15 C17 1_555 1_555
H16 C17 1_555 1_555
C18 C17 1_555 1_555
H17 C18 1_555 1_555
H18 C18 1_555 1_555
C19 C18 1_555 1_555
H19 C19 1_555 1_555
H20 C19 1_555 1_555
C20 C19 1_555 1_555
O3 C20 1_555 1_555
O4 C20 1_555 1_555
O5 C21 1_555 1_555
O6 C21 1_555 1_555
C21 C22 1_555 1_555
C22 H21 1_555 1_555
H22 C22 1_555 1_555
C23 C22 1_555 1_555
H23 C23 1_555 1_555
H24 C23 1_555 1_555
C24 C23 1_555 1_555
H25 C24 1_555 1_555
H26 C24 1_555 1_555
O7 Ni1 1_555 1_555
O8 Ni2 1_555 1_555
O9 Ni2 1_555 1_555
O10 Ni2 1_555 1_555
O11 H35 1_555 1_555
O12 H37 1_555 1_555
H27 O7 1_555 1_555
H28 O7 1_555 1_555
H29 O8 1_555 1_555
H30 O8 1_555 1_555
H31 O9 1_555 1_555
H32 O9 1_555 1_555
H33 O10 1_555 1_555
H34 O10 1_555 1_555
H36 O11 1_555 1_555
H38 O12 1_555 1_555
C24A C24 1_555 1_555
C23A C24A 1_555 1_555
C22A C23A 1_555 1_555
C21A C22A 1_555 1_555
O5A C21A 1_555 1_555
O6A C21A 1_555 1_555
H21A C22A 1_555 1_555
H22A C22A 1_555 1_555
H23A C23A 1_555 1_555
H24A C23A 1_555 1_555
H25A C24A 1_555 1_555
H26A C24A 1_555 1_555
O1A Ni1 1_555 1_555
O2A C13A 1_555 1_555
C13A O1A 1_555 1_555
C14A C13A 1_555 1_555
H9A C14A 1_555 1_555
H10A C14A 1_555 1_555
C15A C14A 1_555 1_555
H11A C15A 1_555 1_555
H12A C15A 1_555 1_555
C16A C15A 1_555 1_555
H13A C16A 1_555 1_555
H14A C16A 1_555 1_555
C17A C16A 1_555 1_555
H15A C17A 1_555 1_555
H16A C17A 1_555 1_555
C18A C17A 1_555 1_555
H17A C18A 1_555 1_555
H18A C18A 1_555 1_555
C19A C18A 1_555 1_555
H19A C19A 1_555 1_555
H20A C19A 1_555 1_555
C20A C19A 1_555 1_555
O3A C20A 1_555 1_555
O4A C20A 1_555 1_555
O7A Ni1 1_555 1_555
H27A O7A 1_555 1_555
H28A O7A 1_555 1_555
Ni2A O7A 1_555 1_555
N1A Ni2A 1_555 1_555
N2A Ni2A 1_555 1_555
C1A N1A 1_555 1_555
H1A C1A 1_555 1_555
C2A C1A 1_555 1_555
H2A C2A 1_555 1_555
C3A C2A 1_555 1_555
H3A C3A 1_555 1_555
C4A C3A 1_555 1_555
C5A C4A 1_555 1_555
H4A C5A 1_555 1_555
C6A C5A 1_555 1_555
H5A C6A 1_555 1_555
C7A C6A 1_555 1_555
C8A C7A 1_555 1_555
H6A C8A 1_555 1_555
C9A C8A 1_555 1_555
H7A C9A 1_555 1_555
C10A N2A 1_555 1_555
H8A C10A 1_555 1_555
C11A N2A 1_555 1_555
C12A N1A 1_555 1_555
O8A Ni2A 1_555 1_555
H29A O8A 1_555 1_555
H30A O8A 1_555 1_555
O9A Ni2A 1_555 1_555
H31A O9A 1_555 1_555
H32A O9A 1_555 1_555
O10A Ni2A 1_555 1_555
H33A O10A 1_555 1_555
H34A O10A 1_555 1_555
O3_2 Ni1 1_555 1_555
O3A_2 Ni1 1_555 1_555
Ni1_2 O3 1_555 1_555
Ni1_3 O3A 1_555 1_555
Ni2 O7 1_555 1_555
C4 C12 1_555 1_555
C7 C11 1_555 1_555
C9 C10 1_555 1_555
C11 C12 1_555 1_555
C4A C12A 1_555 1_555
C7A C11A 1_555 1_555
C9A C10A 1_555 1_555
C11A C12A 1_555 1_555

#END
