
#######################################################################
#
#                 Cambridge Crystallographic Data Centre
#                                CCDC 
#
#######################################################################
#
# If this CIF has been generated from an entry in the Cambridge 
# Structural Database, then it will include bibliographic, chemical, 
# crystal, experimental, refinement or atomic coordinate data resulting 
# from the CCDC's data processing and validation procedures.
#
#######################################################################

data_XOMPAR
_symmetry_cell_setting           monoclinic
_symmetry_space_group_name_H-M   'P 21/c'
_symmetry_Int_Tables_number      14
_space_group_name_Hall           '-P 2ybc'
loop_
_symmetry_equiv_pos_site_id
_symmetry_equiv_pos_as_xyz
1 x,y,z
2 -x,1/2+y,1/2-z
3 -x,-y,-z
4 x,1/2-y,1/2+z
_cell_length_a                   9.7145(19)
_cell_length_b                   13.451(3)
_cell_length_c                   16.096(3)
_cell_angle_alpha                90
_cell_angle_beta                 96.26(3)
_cell_angle_gamma                90
_cell_volume                     2090.72
loop_
_atom_site_label
_atom_site_type_symbol
_atom_site_fract_x
_atom_site_fract_y
_atom_site_fract_z
Zn1 Zn 0.889415(19) 0.347314(14) 0.068145(11)
S1 S 0.58503(4) 0.31265(3) 0.00254(3)
O1 O 0.90248(13) 0.45548(9) 0.16409(7)
O2 O 0.46795(14) 0.33942(10) 0.04621(8)
O3 O 0.70030(13) 0.38382(9) 0.02244(8)
C1 C 1.01939(17) 0.49920(12) 0.16923(10)
N1 N 1.07650(15) 0.41436(10) 0.06228(8)
N2 N 1.11965(15) 0.48626(10) 0.12035(9)
N3 N 0.38163(18) 0.34739(13) -0.35723(10)
H1 H 0.3727 0.2947 -0.3876
H2 H 0.3578 0.4043 -0.3785
O4 O 0.63219(14) 0.21107(9) 0.01703(8)
N4 N 0.97091(15) 0.27506(10) -0.03832(8)
C2 C 0.53402(18) 0.32452(13) -0.10538(10)
C3 C 0.9813(2) 0.16364(13) -0.15308(11)
H3 H 0.9390 0.1142 -0.1872
C4 C 0.43388(18) 0.34060(14) -0.27450(11)
C5 C 1.04917(17) 0.57603(12) 0.23612(10)
C6 C 1.1104(2) 0.19874(14) -0.16575(11)
H4 H 1.1573 0.1727 -0.2082
C7 C 0.49484(18) 0.41693(13) -0.13885(11)
H5 H 0.5018 0.4732 -0.1051
C8 C 1.15336(18) 0.38907(13) 0.00607(10)
H6 H 1.2388 0.4187 0.0017
C9 C 0.52247(19) 0.24044(14) -0.15580(11)
H7 H 0.5483 0.1787 -0.1332
C10 C 1.16980(19) 0.27356(13) -0.11424(11)
H8 H 1.2566 0.2988 -0.1220
C11 C 0.47281(19) 0.24802(14) -0.23946(11)
H9 H 0.4652 0.1913 -0.2727
C12 C 1.09750(17) 0.31004(12) -0.05114(10)
C13 C 0.44552(19) 0.42469(14) -0.22246(11)
H10 H 0.4196 0.4866 -0.2446
C14 C 0.91534(19) 0.20344(13) -0.08830(11)
H11 H 0.8286 0.1790 -0.0795
C15 C 0.97390(18) 0.67567(12) 0.34540(10)
H12 H 0.9054 0.6920 0.3791
C16 C 0.94817(18) 0.60051(12) 0.28720(10)
H13 H 0.8641 0.5668 0.2824
C17 C 1.19247(18) 0.70100(13) 0.30660(10)
H14 H 1.2764 0.7348 0.3136
C18 C 1.17420(18) 0.62708(13) 0.24677(10)
H15 H 1.2446 0.6117 0.2141
N5 N 1.09367(15) 0.72600(10) 0.35514(8)
Zn1A Zn 1.110585(19) 0.847314(14) 0.431855(11)
N5A N 0.90633(15) 0.22600(10) 0.14486(8)
O5 O 0.6720(3) 0.02265(14) -0.03862(13)
H16 H 0.5951 0.0352 -0.0248
C19 C 0.7533(6) -0.0217(3) 0.0283(2)
H17 H 0.8254 0.0232 0.0495
H18 H 0.7937 -0.0818 0.0097
H19 H 0.6965 -0.0372 0.0718
loop_
_geom_bond_atom_site_label_1
_geom_bond_atom_site_label_2
_geom_bond_site_symmetry_1
_geom_bond_site_symmetry_2
Zn1 O1 1_555 1_555
S1 O2 1_555 1_555
O1 C1 1_555 1_555
O3 Zn1 1_555 1_555
C1 N2 1_555 1_555
N1 Zn1 1_555 1_555
N2 N1 1_555 1_555
N3 H1 1_555 1_555
H2 N3 1_555 1_555
O4 S1 1_555 1_555
N4 Zn1 1_555 1_555
C2 S1 1_555 1_555
C3 H3 1_555 1_555
C4 N3 1_555 1_555
C5 C1 1_555 1_555
C6 C3 1_555 1_555
H4 C6 1_555 1_555
C7 C2 1_555 1_555
H5 C7 1_555 1_555
C8 N1 1_555 1_555
H6 C8 1_555 1_555
C9 C2 1_555 1_555
H7 C9 1_555 1_555
C10 C6 1_555 1_555
H8 C10 1_555 1_555
C11 C4 1_555 1_555
H9 C11 1_555 1_555
C12 N4 1_555 1_555
C13 C4 1_555 1_555
H10 C13 1_555 1_555
C14 N4 1_555 1_555
H11 C14 1_555 1_555
C15 H12 1_555 1_555
C16 C5 1_555 1_555
H13 C16 1_555 1_555
C17 H14 1_555 1_555
C18 C5 1_555 1_555
H15 C18 1_555 1_555
O5 H16 1_555 1_555
C19 O5 1_555 1_555
H17 C19 1_555 1_555
H18 C19 1_555 1_555
H19 C19 1_555 1_555
N5 C15 1_555 1_555
Zn1A N5 1_555 1_555
N5A Zn1 1_555 1_555
S1 O3 1_555 1_555
C3 C14 1_555 1_555
C7 C13 1_555 1_555
C8 C12 1_555 1_555
C9 C11 1_555 1_555
C10 C12 1_555 1_555
C15 C16 1_555 1_555
C17 C18 1_555 1_555
C17 N5 1_555 1_555

#END
