
#######################################################################
#
#                 Cambridge Crystallographic Data Centre
#                                CCDC 
#
#######################################################################
#
# If this CIF has been generated from an entry in the Cambridge 
# Structural Database, then it will include bibliographic, chemical, 
# crystal, experimental, refinement or atomic coordinate data resulting 
# from the CCDC's data processing and validation procedures.
#
#######################################################################

data_XOMPEV
_symmetry_cell_setting           triclinic
_symmetry_space_group_name_H-M   'P -1'
_symmetry_Int_Tables_number      2
_space_group_name_Hall           '-P 1'
loop_
_symmetry_equiv_pos_site_id
_symmetry_equiv_pos_as_xyz
1 x,y,z
2 -x,-y,-z
_cell_length_a                   5.7702(5)
_cell_length_b                   8.0269(6)
_cell_length_c                   12.1378(9)
_cell_angle_alpha                88.000(1)
_cell_angle_beta                 81.493(1)
_cell_angle_gamma                88.569(1)
_cell_volume                     555.549
loop_
_atom_site_label
_atom_site_type_symbol
_atom_site_fract_x
_atom_site_fract_y
_atom_site_fract_z
Mn1 Mn 0.0000 0.5000 0.0000
Mn2 Mn -0.05775(6) -0.13432(4) -0.11731(3)
Mn3 Mn -0.49105(6) 0.59343(4) -0.18845(3)
C1 C -0.2050(4) 0.2227(3) -0.3022(2)
C2 C 0.0011(4) 0.3096(3) -0.3388(2)
C3 C 0.0906(4) 0.3137(3) -0.4520(2)
H1 H 0.2286 0.3698 -0.4767
C4 C -0.0230(4) 0.2353(3) -0.5283(2)
C5 C -0.2319(5) 0.1560(3) -0.4913(2)
H2 H -0.3128 0.1075 -0.5423
C6 C -0.3213(5) 0.1484(3) -0.3791(2)
H3 H -0.4603 0.0930 -0.3551
C7 C -0.3181(4) 0.2109(3) -0.1829(2)
C8 C 0.1263(4) 0.3970(3) -0.2586(2)
C9 C 0.0788(5) 0.2339(3) -0.6491(2)
O1 O -0.3157(3) 0.0720(2) -0.12981(15)
O2 O -0.4318(3) 0.3347(2) -0.14055(14)
O3 O 0.0665(3) 0.3606(2) -0.15514(14)
O4 O 0.2805(3) 0.4988(2) -0.29583(15)
O5 O 0.2681(3) 0.3087(2) -0.67820(16)
O6 O -0.0299(3) 0.1561(2) -0.71269(15)
O7 O -0.2697(3) 0.6573(2) -0.06795(16)
O8 O 0.2247(3) 0.6983(2) -0.07825(16)
O9 O 0.1800(4) 0.0641(2) -0.08136(16)
H4 H 0.270(6) 0.732(4) -0.037(3)
H5 H 0.143(6) 0.159(4) -0.112(3)
H6 H 0.319(6) 0.043(4) -0.090(3)
H7 H -0.355(6) 0.672(4) -0.016(3)
Mn2A Mn 0.05775(6) 1.13432(4) 0.11731(3)
Mn2A_2 Mn 0.05775(6) 0.13432(4) -0.88269(3)
Mn2_2 Mn -0.05775(6) 0.86568(4) -0.11731(3)
Mn2A_3 Mn 0.05775(6) 0.13432(4) 0.11731(3)
Mn2_3 Mn -0.05775(6) 0.86568(4) 0.88269(3)
Mn3A Mn 0.49105(6) 0.40657(4) 0.18845(3)
Mn3_2 Mn 0.50895(6) 0.59343(4) -0.18845(3)
Mn3A_2 Mn 0.49105(6) 0.40657(4) -0.81155(3)
Mn3A_3 Mn -0.50895(6) 0.40657(4) 0.18845(3)
Mn3_3 Mn -0.49105(6) 0.59343(4) 0.81155(3)
C1A C 0.2050(4) 0.7773(3) 0.3022(2)
C2A C -0.0011(4) 0.6904(3) 0.3388(2)
C3A C -0.0906(4) 0.6863(3) 0.4520(2)
H1A H -0.2286 0.6302 0.4767
C4A C 0.0230(4) 0.7647(3) 0.5283(2)
C5A C 0.2319(5) 0.8440(3) 0.4913(2)
H2A H 0.3128 0.8925 0.5423
C6A C 0.3213(5) 0.8516(3) 0.3791(2)
H3A H 0.4603 0.9070 0.3551
C7A C 0.3181(4) 0.7891(3) 0.1829(2)
C8A C -0.1263(4) 0.6030(3) 0.2586(2)
C9A C -0.0788(5) 0.7661(3) 0.6491(2)
O1A O 0.3157(3) 0.9280(2) 0.12981(15)
O2A O 0.4318(3) 0.6653(2) 0.14055(14)
O3A O -0.0665(3) 0.6394(2) 0.15514(14)
O4A O -0.2805(3) 0.5012(2) 0.29583(15)
O4_2 O -0.7195(3) 0.4988(2) -0.29583(15)
O4A_2 O 0.7195(3) 0.5012(2) 0.29583(15)
O5A O -0.2681(3) 0.6913(2) 0.67820(16)
O5A_2 O -0.2681(3) 0.6913(2) -0.32180(16)
O5_2 O 0.2681(3) 0.3087(2) 0.32180(16)
O6A O 0.0299(3) 0.8439(2) 0.71269(15)
O6A_2 O 0.0299(3) -0.1561(2) -0.28731(15)
O6_2 O -0.0299(3) 1.1561(2) 0.28731(15)
O7A O 0.2697(3) 0.3427(2) 0.06795(16)
O7_2 O -0.2697(3) -0.3427(2) -0.06795(16)
O7A_2 O 0.2697(3) 1.3427(2) 0.06795(16)
O8A O -0.2247(3) 0.3017(2) 0.07825(16)
O8_2 O 0.2247(3) -0.3017(2) -0.07825(16)
O8_3 O -0.7753(3) 0.6983(2) -0.07825(16)
O8A_2 O -0.2247(3) 1.3017(2) 0.07825(16)
O8A_3 O 0.7753(3) 0.3017(2) 0.07825(16)
O9A O -0.1800(4) -0.0641(2) 0.08136(16)
O9A_2 O -0.1800(4) 0.9359(2) 0.08136(16)
O9_2 O 0.1800(4) 1.0641(2) -0.08136(16)
H4A H -0.270(6) 0.268(4) 0.037(3)
H4_2 H 0.270(6) -0.268(4) -0.037(3)
H4_3 H -0.730(6) 0.732(4) -0.037(3)
H4A_2 H -0.270(6) 1.268(4) 0.037(3)
H4A_3 H 0.730(6) 0.268(4) 0.037(3)
H5A H -0.143(6) -0.159(4) 0.112(3)
H5A_2 H -0.143(6) 0.841(4) 0.112(3)
H5_2 H 0.143(6) 1.159(4) -0.112(3)
H6A H -0.319(6) -0.043(4) 0.090(3)
H6A_2 H -0.319(6) 0.957(4) 0.090(3)
H6_2 H 0.319(6) 1.043(4) -0.090(3)
H7A H 0.355(6) 0.328(4) 0.016(3)
H7_2 H -0.355(6) -0.328(4) -0.016(3)
H7A_2 H 0.355(6) 1.328(4) 0.016(3)
loop_
_geom_bond_atom_site_label_1
_geom_bond_atom_site_label_2
_geom_bond_site_symmetry_1
_geom_bond_site_symmetry_2
Mn1 O3 1_555 1_555
Mn2 O1 1_555 1_555
Mn3 O2 1_555 1_555
C1 C2 1_555 1_555
C2 C3 1_555 1_555
C3 H1 1_555 1_555
C4 C3 1_555 1_555
C5 C4 1_555 1_555
H2 C5 1_555 1_555
C6 C1 1_555 1_555
H3 C6 1_555 1_555
C7 C1 1_555 1_555
C8 C2 1_555 1_555
C9 C4 1_555 1_555
O1 C7 1_555 1_555
O2 C7 1_555 1_555
O3 C8 1_555 1_555
O4 C8 1_555 1_555
O5 C9 1_555 1_555
O6 C9 1_555 1_555
O7 Mn1 1_555 1_555
O8 Mn1 1_555 1_555
O9 Mn2 1_555 1_555
H4 O8 1_555 1_555
H5 O9 1_555 1_555
H6 O9 1_555 1_555
H7 O7 1_555 1_555
Mn2A O1A 1_555 1_555
Mn2A_2 O6 1_555 1_555
Mn2_2 O7 1_555 1_555
Mn2A_3 O9 1_555 1_555
Mn2_3 O6A 1_555 1_555
Mn3A O2A 1_555 1_555
Mn3_2 O4 1_555 1_555
Mn3A_2 O5 1_555 1_555
Mn3A_3 O4A 1_555 1_555
Mn3_3 O5A 1_555 1_555
C1A C2A 1_555 1_555
C2A C3A 1_555 1_555
C3A H1A 1_555 1_555
C4A C3A 1_555 1_555
C5A C4A 1_555 1_555
H2A C5A 1_555 1_555
C6A C1A 1_555 1_555
H3A C6A 1_555 1_555
C7A C1A 1_555 1_555
C8A C2A 1_555 1_555
C9A C4A 1_555 1_555
O1A C7A 1_555 1_555
O2A C7A 1_555 1_555
O3A Mn1 1_555 1_555
O4A C8A 1_555 1_555
O4_2 Mn3 1_555 1_555
O4A_2 Mn3A 1_555 1_555
O5A C9A 1_555 1_555
O5A_2 Mn3 1_555 1_555
O5_2 Mn3A 1_555 1_555
O6A C9A 1_555 1_555
O6A_2 Mn2 1_555 1_555
O6_2 Mn2A 1_555 1_555
O7A Mn1 1_555 1_555
O7_2 Mn2 1_555 1_555
O7A_2 Mn2A 1_555 1_555
O8A Mn1 1_555 1_555
O8_2 Mn2 1_555 1_555
O8_3 Mn3 1_555 1_555
O8A_2 Mn2A 1_555 1_555
O8A_3 Mn3A 1_555 1_555
O9A Mn2 1_555 1_555
O9A_2 Mn2A 1_555 1_555
O9_2 Mn2A 1_555 1_555
H4A O8A 1_555 1_555
H4_2 O8_2 1_555 1_555
H4_3 O8_3 1_555 1_555
H4A_2 O8A_2 1_555 1_555
H4A_3 O8A_3 1_555 1_555
H5A O9A 1_555 1_555
H5A_2 O9A_2 1_555 1_555
H5_2 O9_2 1_555 1_555
H6A O9A 1_555 1_555
H6A_2 O9A_2 1_555 1_555
H6_2 O9_2 1_555 1_555
H7A O7A 1_555 1_555
H7_2 O7_2 1_555 1_555
H7A_2 O7A_2 1_555 1_555
Mn3 O7 1_555 1_555
C5 C6 1_555 1_555
O8 Mn2_2 1_555 1_555
O8 Mn3_2 1_555 1_555
Mn2_2 O9A_2 1_555 1_555
Mn2_2 O9_2 1_555 1_555
Mn2A_3 O7A 1_555 1_555
Mn2A_3 O8A 1_555 1_555
Mn2A_3 O9A 1_555 1_555
Mn3A O7A 1_555 1_555
Mn3A_3 O8A 1_555 1_555
C5A C6A 1_555 1_555
C8A O3A 1_555 1_555

#END
