
#######################################################################
#
#                 Cambridge Crystallographic Data Centre
#                                CCDC 
#
#######################################################################
#
# If this CIF has been generated from an entry in the Cambridge 
# Structural Database, then it will include bibliographic, chemical, 
# crystal, experimental, refinement or atomic coordinate data resulting 
# from the CCDC's data processing and validation procedures.
#
#######################################################################

data_XOMPAS
_symmetry_cell_setting           monoclinic
_symmetry_space_group_name_H-M   'P 21/c'
_symmetry_Int_Tables_number      14
_space_group_name_Hall           '-P 2ybc'
loop_
_symmetry_equiv_pos_site_id
_symmetry_equiv_pos_as_xyz
1 x,y,z
2 -x,1/2+y,1/2-z
3 -x,-y,-z
4 x,1/2-y,1/2+z
_cell_length_a                   11.4423(3)
_cell_length_b                   13.6677(4)
_cell_length_c                   21.4571(5)
_cell_angle_alpha                90
_cell_angle_beta                 107.6760(10)
_cell_angle_gamma                90
_cell_volume                     3197.25
loop_
_atom_site_label
_atom_site_type_symbol
_atom_site_fract_x
_atom_site_fract_y
_atom_site_fract_z
C1 C 0.7183(2) 0.68098(19) -0.02042(12)
C2 C 0.8939(2) 0.65074(19) 0.07824(12)
C3 C 0.3306(3) 0.4406(2) 0.35656(13)
C4 C 0.8563(2) 0.66165(19) 0.19040(12)
C5 C -0.0443(3) 0.4058(2) 0.24298(14)
C6 C 0.8446(2) 0.65505(19) 0.00831(12)
C7 C 0.1989(2) 0.42925(19) 0.31617(12)
C8 C 0.4906(2) 0.6811(2) -0.23213(12)
H1 H 0.5523 0.6342 -0.2249
C9 C 0.8153(2) 0.67212(18) 0.11699(11)
C10 C 0.6958(2) 0.5460(2) 0.29328(12)
H2 H 0.6353 0.5197 0.2579
C11 C 0.0437(3) 0.4104(2) 0.21164(13)
H3 H 0.0217 0.4067 0.1663
C12 C 0.6977(2) 0.7035(2) 0.08719(12)
H4 H 0.6490 0.7227 0.1127
C13 C 0.7770(2) 0.61236(19) 0.28077(12)
C14 C -0.2859(3) 0.4044(2) 0.09845(14)
H5 H -0.3085 0.4681 0.1046
C15 C 0.1659(3) 0.4206(2) 0.24837(13)
H6 H 0.2262 0.4216 0.2275
C16 C 1.0190(2) 0.6245(2) 0.10496(13)
H7 H 1.0525 0.6189 0.1501
C17 C 0.4916(2) 0.7463(2) -0.18256(12)
C18 C 0.6496(2) 0.7073(2) 0.01875(12)
H8 H 0.5693 0.7282 -0.0002
C19 C -0.3320(2) 0.3590(2) 0.03825(13)
H9 H -0.3857 0.3929 0.0037
C20 C -0.2993(2) 0.2641(2) 0.02874(12)
C21 C 0.8636(3) 0.6536(2) 0.33382(13)
H10 H 0.9177 0.7008 0.3277
C22 C -0.3521(2) 0.2165(2) -0.03658(12)
C23 C -0.0137(3) 0.4144(2) 0.31025(14)
H11 H -0.0743 0.4121 0.3309
C24 C 0.6559(2) 0.6705(2) -0.09278(12)
C25 C 0.9236(3) 0.6366(2) -0.02977(13)
H12 H 0.8925 0.6398 -0.0751
C26 C 0.1078(3) 0.4265(2) 0.34633(13)
H13 H 0.1287 0.4329 0.3915
C27 C 0.7863(3) 0.5562(2) 0.40463(13)
H14 H 0.7908 0.5365 0.4468
C28 C -0.2194(2) 0.2138(2) 0.08083(13)
H15 H -0.1978 0.1496 0.0752
C29 C -0.2062(2) 0.3535(2) 0.14888(13)
C30 C 1.0912(3) 0.6075(2) 0.06620(15)
H16 H 1.1732 0.5910 0.0852
C31 C 1.0441(3) 0.6144(2) -0.00165(15)
H17 H 1.0949 0.6039 -0.0276
C32 C 0.3160(3) 0.7512(2) -0.30067(14)
H18 H 0.2542 0.7518 -0.3406
C33 C -0.1717(3) 0.2589(2) 0.14101(13)
H19 H -0.1172 0.2257 0.1756
C34 C 0.8685(3) 0.6237(2) 0.39594(13)
H20 H 0.9278 0.6493 0.4321
C35 C 0.4028(3) 0.8174(2) -0.19492(14)
H21 H 0.4029 0.8637 -0.1632
C36 C 0.3136(3) 0.8195(3) -0.25491(15)
H22 H 0.2525 0.8670 -0.2640
H23 H 0.700(3) 0.616(2) 0.1889(14)
H24 H 0.573(3) 0.789(2) -0.0988(14)
N1 N 0.6992(2) 0.51765(17) 0.35335(10)
N2 N 0.4029(2) 0.68373(17) -0.29055(10)
N3 N 0.5786(2) 0.74419(18) -0.11979(11)
N4 N 0.7639(2) 0.63387(18) 0.21505(10)
O1 O 0.3538(2) 0.45879(19) 0.41569(9)
O2 O 0.41094(17) 0.43331(16) 0.32700(9)
O3 O -0.16864(18) 0.39888(18) 0.20990(10)
O4 O -0.31956(19) 0.12985(15) -0.04423(9)
O5 O -0.42646(19) 0.26088(16) -0.08155(9)
O6 O 0.67112(19) 0.59811(15) -0.12330(9)
O7 O 0.96047(17) 0.67652(16) 0.22516(9)
Zn1 Zn 0.58473(3) 0.40760(2) 0.366144(14)
N2B N 0.5971(2) 0.31627(17) 0.29055(10)
O4C O 0.68044(19) 0.37015(15) 0.45577(9)
Zn1B Zn 0.41527(3) 0.59240(2) -0.366144(14)
Zn1C Zn -0.41527(3) 0.09240(2) -0.133856(14)
H25 H 0.582(3) 0.578(3) 0.4909(10)
H26 H 0.487(3) 0.552(3) 0.4453(17)
O8 O 0.5488(2) 0.58713(19) 0.45213(11)
H27 H 0.526(3) 0.3869(18) 0.875(2)
H28 H 0.549(3) 0.475(2) 0.864(2)
O9 O 0.4891(2) 0.4368(2) 0.85791(14)
loop_
_geom_bond_atom_site_label_1
_geom_bond_atom_site_label_2
_geom_bond_site_symmetry_1
_geom_bond_site_symmetry_2
C1 C6 1_555 1_555
C2 C6 1_555 1_555
C3 C7 1_555 1_555
C4 C9 1_555 1_555
C5 C11 1_555 1_555
C6 C25 1_555 1_555
C7 C15 1_555 1_555
C8 H1 1_555 1_555
C9 C2 1_555 1_555
C10 H2 1_555 1_555
C11 H3 1_555 1_555
C12 C9 1_555 1_555
H4 C12 1_555 1_555
C13 C10 1_555 1_555
C14 H5 1_555 1_555
C15 C11 1_555 1_555
H6 C15 1_555 1_555
C16 C2 1_555 1_555
H7 C16 1_555 1_555
C17 C8 1_555 1_555
C18 C1 1_555 1_555
H8 C18 1_555 1_555
C19 C14 1_555 1_555
H9 C19 1_555 1_555
C20 C19 1_555 1_555
C21 C13 1_555 1_555
H10 C21 1_555 1_555
C22 C20 1_555 1_555
C23 C5 1_555 1_555
H11 C23 1_555 1_555
C24 C1 1_555 1_555
C25 H12 1_555 1_555
C26 C7 1_555 1_555
H13 C26 1_555 1_555
C27 H14 1_555 1_555
C28 C20 1_555 1_555
H15 C28 1_555 1_555
C29 C14 1_555 1_555
C30 C16 1_555 1_555
H16 C30 1_555 1_555
C31 C25 1_555 1_555
H17 C31 1_555 1_555
C32 H18 1_555 1_555
C33 C28 1_555 1_555
H19 C33 1_555 1_555
C34 C21 1_555 1_555
H20 C34 1_555 1_555
C35 C17 1_555 1_555
H21 C35 1_555 1_555
C36 C32 1_555 1_555
H22 C36 1_555 1_555
H23 N4 1_555 1_555
H24 N3 1_555 1_555
N1 C10 1_555 1_555
N2 C8 1_555 1_555
N3 C17 1_555 1_555
N4 C4 1_555 1_555
O1 C3 1_555 1_555
O2 C3 1_555 1_555
O3 C5 1_555 1_555
O4 C22 1_555 1_555
O5 C22 1_555 1_555
O6 C24 1_555 1_555
O7 C4 1_555 1_555
Zn1 N1 1_555 1_555
H25 O8 1_555 1_555
H26 O8 1_555 1_555
H27 O9 1_555 1_555
H28 O9 1_555 1_555
N2B Zn1 1_555 1_555
O4C Zn1 1_555 1_555
Zn1B N2 1_555 1_555
Zn1C O4 1_555 1_555
C12 C18 1_555 1_555
C13 N4 1_555 1_555
C23 C26 1_555 1_555
C24 N3 1_555 1_555
C27 C34 1_555 1_555
C27 N1 1_555 1_555
C29 C33 1_555 1_555
C29 O3 1_555 1_555
C30 C31 1_555 1_555
C32 N2 1_555 1_555
C35 C36 1_555 1_555
O2 Zn1 1_555 1_555

#END
