
#######################################################################
#
#                 Cambridge Crystallographic Data Centre
#                                CCDC 
#
#######################################################################
#
# If this CIF has been generated from an entry in the Cambridge 
# Structural Database, then it will include bibliographic, chemical, 
# crystal, experimental, refinement or atomic coordinate data resulting 
# from the CCDC's data processing and validation procedures.
#
#######################################################################

data_XOMQOH
_symmetry_cell_setting           triclinic
_symmetry_space_group_name_H-M   'P -1'
_symmetry_Int_Tables_number      2
_space_group_name_Hall           '-P 1'
loop_
_symmetry_equiv_pos_site_id
_symmetry_equiv_pos_as_xyz
1 x,y,z
2 -x,-y,-z
_cell_length_a                   7.1747(5)
_cell_length_b                   11.1258(13)
_cell_length_c                   11.4017(8)
_cell_angle_alpha                98.021(8)
_cell_angle_beta                 90.098(6)
_cell_angle_gamma                106.227(8)
_cell_volume                     864.532
loop_
_atom_site_label
_atom_site_type_symbol
_atom_site_fract_x
_atom_site_fract_y
_atom_site_fract_z
Mo1 Mo 1.24845(5) 0.09589(4) 0.27205(3)
Mo2 Mo 0.75984(5) -0.09719(4) 0.22727(3)
Ni1 Ni 0.5000 0.0000 0.5000
Ni2 Ni 0.5000 0.0000 0.0000
O1 O 1.3716(4) 0.0508(3) 0.1485(3)
O2 O 1.3313(4) 0.0913(3) 0.4165(3)
O3 O 1.0259(4) -0.0549(3) 0.2573(3)
O4 O 0.6449(4) -0.0358(3) 0.3466(3)
O5 O 0.7088(5) -0.0426(3) 0.0988(3)
O6 O 1.1174(4) 0.2027(4) 0.2592(3)
O7 O 0.6712(5) -0.2596(3) 0.2059(3)
N1 N 1.5059(6) 0.2783(4) 0.2943(4)
N2 N 2.2789(5) 0.8352(4) 0.4505(3)
N3 N 0.3152(6) -0.1884(4) -0.0049(3)
C1 C 1.6900(7) 0.2742(5) 0.2941(4)
H1 H 1.7153 0.1963 0.2762
C2 C 1.8434(7) 0.3816(5) 0.3195(4)
H2 H 1.9696 0.3748 0.3195
C3 C 1.8131(7) 0.4989(5) 0.3449(4)
C4 C 1.6204(7) 0.5020(5) 0.3410(6)
H3 H 1.5904 0.5787 0.3550
C5 C 1.4759(7) 0.3908(6) 0.3162(5)
H4 H 1.3481 0.3947 0.3147
C6 C 2.3103(7) 0.7340(5) 0.3854(5)
H5 H 2.4365 0.7369 0.3646
C7 C 2.1626(7) 0.6248(5) 0.3475(5)
H6 H 2.1906 0.5566 0.3015
C8 C 1.9726(7) 0.6170(5) 0.3781(4)
C9 C 1.9419(7) 0.7229(5) 0.4445(4)
H7 H 1.8173 0.7223 0.4675
C10 C 2.0950(7) 0.8294(5) 0.4768(4)
H8 H 2.0695 0.9005 0.5189
C11 C 0.3818(7) -0.2884(5) -0.0124(5)
H9 H 0.5151 -0.2755 -0.0178
C12 C 0.2668(7) -0.4105(5) -0.0127(5)
H10 H 0.3226 -0.4771 -0.0204
C13 C 0.0655(7) -0.4344(5) -0.0014(4)
C14 C -0.0026(8) -0.3295(6) 0.0064(5)
H11 H -0.1349 -0.3391 0.0136
C15 C 0.1220(7) -0.2103(6) 0.0039(5)
H12 H 0.0700 -0.1421 0.0084
N3A N -0.3152(6) -0.8116(4) 0.0049(3)
C11A C -0.3818(7) -0.7116(5) 0.0124(5)
H9A H -0.5151 -0.7245 0.0178
C12A C -0.2668(7) -0.5895(5) 0.0127(5)
H10A H -0.3226 -0.5229 0.0204
C13A C -0.0655(7) -0.5656(5) 0.0014(4)
C14A C 0.0026(8) -0.6705(6) -0.0064(5)
H11A H 0.1349 -0.6609 -0.0136
C15A C -0.1220(7) -0.7897(6) -0.0039(5)
H12A H -0.0700 -0.8579 -0.0084
Mo1A Mo 0.75155(5) -0.09589(4) 0.72795(3)
Mo2A Mo 1.24016(5) 0.09719(4) 0.77273(3)
O1A O 0.6284(4) -0.0508(3) 0.8515(3)
O2A O 0.6687(4) -0.0913(3) 0.5835(3)
O3A O 0.9741(4) 0.0549(3) 0.7427(3)
O4A O 1.3551(4) 0.0358(3) 0.6534(3)
O5A O 1.2912(5) 0.0426(3) 0.9012(3)
O6A O 0.8826(4) -0.2027(4) 0.7408(3)
O7A O 1.3288(5) 0.2596(3) 0.7941(3)
N1A N 0.4941(6) -0.2783(4) 0.7057(4)
N2A N -0.2789(5) -0.8352(4) 0.5495(3)
C1A C 0.3100(7) -0.2742(5) 0.7059(4)
H1A H 0.2847 -0.1963 0.7238
C2A C 0.1566(7) -0.3816(5) 0.6805(4)
H2A H 0.0304 -0.3748 0.6805
C3A C 0.1869(7) -0.4989(5) 0.6551(4)
C4A C 0.3796(7) -0.5020(5) 0.6590(6)
H3A H 0.4096 -0.5787 0.6450
C5A C 0.5241(7) -0.3908(6) 0.6838(5)
H4A H 0.6519 -0.3947 0.6853
C6A C -0.3103(7) -0.7340(5) 0.6146(5)
H5A H -0.4365 -0.7369 0.6354
C7A C -0.1626(7) -0.6248(5) 0.6525(5)
H6A H -0.1906 -0.5566 0.6985
C8A C 0.0274(7) -0.6170(5) 0.6219(4)
C9A C 0.0581(7) -0.7229(5) 0.5555(4)
H7A H 0.1827 -0.7223 0.5325
C10A C -0.0950(7) -0.8294(5) 0.5232(4)
H8A H -0.0695 -0.9005 0.4811
Ni1_2 Ni -0.5000 -1.0000 0.5000
Ni1_3 Ni 1.5000 0.0000 0.5000
Ni1_4 Ni 2.5000 1.0000 0.5000
Ni2_2 Ni -0.5000 -1.0000 0.0000
Ni2_3 Ni 0.5000 0.0000 1.0000
Ni2_4 Ni 1.5000 0.0000 0.0000
Ni2_5 Ni 1.5000 0.0000 1.0000
O1_2 O 0.3716(4) 0.0508(3) 0.1485(3)
O1A_2 O 0.6284(4) -0.0508(3) -0.1485(3)
O2_2 O 0.3313(4) 0.0913(3) 0.4165(3)
O4A_2 O 0.3551(4) 0.0358(3) 0.6534(3)
O5A_2 O 0.2912(5) 0.0426(3) -0.0988(3)
N2_2 N 0.2789(5) -0.1648(4) 0.4505(3)
N2A_2 N 0.7211(5) 0.1648(4) 0.5495(3)
N3A_2 N 0.6848(6) 0.1884(4) 0.0049(3)
loop_
_geom_bond_atom_site_label_1
_geom_bond_atom_site_label_2
_geom_bond_site_symmetry_1
_geom_bond_site_symmetry_2
Mo1 O1 1_555 1_555
Mo2 O3 1_555 1_555
Ni1 O4 1_555 1_555
Ni2 O5 1_555 1_555
O1 Ni2_4 1_555 1_555
O2 Mo1 1_555 1_555
O3 Mo1 1_555 1_555
O4 Mo2 1_555 1_555
O5 Mo2 1_555 1_555
O6 Mo1 1_555 1_555
O7 Mo2 1_555 1_555
N1 Mo1 1_555 1_555
N2 C6 1_555 1_555
N3 Ni2 1_555 1_555
C1 N1 1_555 1_555
H1 C1 1_555 1_555
C2 C1 1_555 1_555
H2 C2 1_555 1_555
C3 C2 1_555 1_555
C4 C3 1_555 1_555
H3 C4 1_555 1_555
C5 N1 1_555 1_555
H4 C5 1_555 1_555
C6 H5 1_555 1_555
C7 C6 1_555 1_555
H6 C7 1_555 1_555
C8 C3 1_555 1_555
C9 C8 1_555 1_555
H7 C9 1_555 1_555
C10 N2 1_555 1_555
H8 C10 1_555 1_555
C11 N3 1_555 1_555
H9 C11 1_555 1_555
C12 C11 1_555 1_555
H10 C12 1_555 1_555
C13 C12 1_555 1_555
C14 C13 1_555 1_555
H11 C14 1_555 1_555
C15 N3 1_555 1_555
H12 C15 1_555 1_555
N3A C11A 1_555 1_555
C11A H9A 1_555 1_555
C12A C11A 1_555 1_555
H10A C12A 1_555 1_555
C13A C13 1_555 1_555
C14A C13A 1_555 1_555
H11A C14A 1_555 1_555
C15A N3A 1_555 1_555
H12A C15A 1_555 1_555
Mo1A O1A 1_555 1_555
Mo2A O3A 1_555 1_555
O1A Ni2_3 1_555 1_555
O2A Ni1 1_555 1_555
O3A Mo1A 1_555 1_555
O4A Mo2A 1_555 1_555
O5A Mo2A 1_555 1_555
O6A Mo1A 1_555 1_555
O7A Mo2A 1_555 1_555
N1A Mo1A 1_555 1_555
N2A C6A 1_555 1_555
C1A N1A 1_555 1_555
H1A C1A 1_555 1_555
C2A C1A 1_555 1_555
H2A C2A 1_555 1_555
C3A C2A 1_555 1_555
C4A C3A 1_555 1_555
H3A C4A 1_555 1_555
C5A N1A 1_555 1_555
H4A C5A 1_555 1_555
C6A H5A 1_555 1_555
C7A C6A 1_555 1_555
H6A C7A 1_555 1_555
C8A C3A 1_555 1_555
C9A C8A 1_555 1_555
H7A C9A 1_555 1_555
C10A N2A 1_555 1_555
H8A C10A 1_555 1_555
Ni1_2 N2A 1_555 1_555
Ni1_3 O2 1_555 1_555
Ni1_4 N2 1_555 1_555
Ni2_2 N3A 1_555 1_555
Ni2_5 O5A 1_555 1_555
O1_2 Ni2 1_555 1_555
O1A_2 Ni2 1_555 1_555
O2_2 Ni1 1_555 1_555
O4A_2 Ni1 1_555 1_555
O5A_2 Ni2 1_555 1_555
N2_2 Ni1 1_555 1_555
N2A_2 Ni1 1_555 1_555
N3A_2 Ni2 1_555 1_555
C4 C5 1_555 1_555
C7 C8 1_555 1_555
C9 C10 1_555 1_555
C14 C15 1_555 1_555
C12A C13A 1_555 1_555
C14A C15A 1_555 1_555
Mo1A O2A 1_555 1_555
O4A Ni1_3 1_555 1_555
C4A C5A 1_555 1_555
C7A C8A 1_555 1_555
C9A C10A 1_555 1_555

#END
