
#######################################################################
#
#                 Cambridge Crystallographic Data Centre
#                                CCDC 
#
#######################################################################
#
# If this CIF has been generated from an entry in the Cambridge 
# Structural Database, then it will include bibliographic, chemical, 
# crystal, experimental, refinement or atomic coordinate data resulting 
# from the CCDC's data processing and validation procedures.
#
#######################################################################

data_XOMQEV
_symmetry_cell_setting           orthorhombic
_symmetry_space_group_name_H-M   'P n m a'
_symmetry_Int_Tables_number      62
_space_group_name_Hall           '-P 2ac 2n'
loop_
_symmetry_equiv_pos_site_id
_symmetry_equiv_pos_as_xyz
1 x,y,z
2 1/2+x,y,1/2-z
3 1/2-x,1/2+y,1/2+z
4 x,1/2-y,z
5 -x,-y,-z
6 1/2-x,-y,1/2+z
7 1/2+x,1/2-y,1/2-z
8 -x,1/2+y,-z
_cell_length_a                   17.2514(2)
_cell_length_b                   18.6376(3)
_cell_length_c                   18.8519(3)
_cell_angle_alpha                90
_cell_angle_beta                 90
_cell_angle_gamma                90
_cell_volume                     6061.35
loop_
_atom_site_label
_atom_site_type_symbol
_atom_site_fract_x
_atom_site_fract_y
_atom_site_fract_z
I1 I 0.25851(3) 0.2500 0.64440(4)
I2 I 0.43454(3) 0.2500 0.70254(3)
I3 I 0.58691(4) 0.2500 0.74803(4)
I4 I 0.25163(2) 0.42619(2) 0.65243(3)
I5 I 0.23864(3) 0.57200(2) 0.65828(2)
I6 I 0.22982(4) 0.7500 0.68159(3)
I7 I 0.22049(3) 0.7500 0.51489(3)
I8 I 0.21535(3) 0.7500 0.36526(3)
I4C I 0.25163(2) 0.07381(2) 0.65243(3)
I5C I 0.23864(3) 0.92800(2) 0.65828(2)
I5C_2 I 0.23864(3) -0.07200(2) 0.65828(2)
I4C_2 I 0.25163(2) 1.07381(2) 0.65243(3)
Rb1 Rb 0.47721(4) 0.2500 0.09814(4)
C1 C 0.5707(3) 0.4356(3) 0.1365(3)
O1 O 0.5331(2) 0.3798(2) 0.1685(2)
C2 C 0.5368(4) 0.3751(3) 0.2445(3)
H1 H 0.5155(4) 0.4184(3) 0.2653(3)
H2 H 0.5904(4) 0.3710(3) 0.2594(3)
C3 C 0.4927(4) 0.3122(3) 0.2700(3)
H3 H 0.4931(4) 0.3110(3) 0.3215(3)
H4 H 0.4393(4) 0.3155(3) 0.2543(3)
O2 O 0.5266(3) 0.2500 0.2433(3)
O3 O 0.5334(3) 0.2500 -0.0466(3)
C4 C 0.4966(3) 0.3132(3) -0.0713(3)
H5 H 0.4444(3) 0.3161(3) -0.0523(3)
H6 H 0.4934(3) 0.3125(3) -0.1226(3)
C5 C 0.5421(3) 0.3751(3) -0.0478(3)
H7 H 0.5957(3) 0.3697(3) -0.0625(3)
H8 H 0.5217(3) 0.4187(3) -0.0688(3)
O4 O 0.5374(2) 0.3791(2) 0.0290(2)
C6 C 0.5742(3) 0.4345(3) 0.0622(3)
C7 C 0.6139(3) 0.4881(3) 0.0269(3)
H9 H 0.6168(3) 0.4880(3) -0.0223(3)
C8 C 0.6493(3) 0.5422(3) 0.0657(4)
H10 H 0.6762(3) 0.5781(3) 0.0419(4)
C9 C 0.6455(3) 0.5438(3) 0.1383(4)
H11 H 0.6693(3) 0.5807(3) 0.1635(4)
C10 C 0.6061(3) 0.4899(3) 0.1741(3)
H12 H 0.6035(3) 0.4905(3) 0.2234(3)
C3C C 0.4927(4) 0.1878(3) 0.2700(3)
C4C C 0.4966(3) 0.1868(3) -0.0713(3)
C1C C 0.5707(3) 0.0644(3) 0.1365(3)
O1C O 0.5331(2) 0.1202(2) 0.1685(2)
C2C C 0.5368(4) 0.1249(3) 0.2445(3)
H1C H 0.5155(4) 0.0816(3) 0.2653(3)
H2C H 0.5904(4) 0.1290(3) 0.2594(3)
H3C H 0.4931(4) 0.1890(3) 0.3215(3)
H4C H 0.4393(4) 0.1845(3) 0.2543(3)
H5C H 0.4444(3) 0.1839(3) -0.0523(3)
H6C H 0.4934(3) 0.1875(3) -0.1226(3)
C5C C 0.5421(3) 0.1249(3) -0.0478(3)
H7C H 0.5957(3) 0.1303(3) -0.0625(3)
H8C H 0.5217(3) 0.0813(3) -0.0688(3)
O4C O 0.5374(2) 0.1209(2) 0.0290(2)
C6C C 0.5742(3) 0.0655(3) 0.0622(3)
C7C C 0.6139(3) 0.0119(3) 0.0269(3)
H9C H 0.6168(3) 0.0120(3) -0.0223(3)
C8C C 0.6493(3) -0.0422(3) 0.0657(4)
H10C H 0.6762(3) -0.0781(3) 0.0419(4)
C9C C 0.6455(3) -0.0438(3) 0.1383(4)
H11C H 0.6693(3) -0.0807(3) 0.1635(4)
C10C C 0.6061(3) 0.0101(3) 0.1741(3)
H12C H 0.6035(3) 0.0095(3) 0.2234(3)
Rb2 Rb 0.40021(4) 0.2500 0.49135(4)
C11 C 0.4717(3) 0.4350(3) 0.4196(3)
O5 O 0.4915(2) 0.3796(2) 0.4641(2)
C12 C 0.5707(3) 0.3751(3) 0.4871(3)
H13 H 0.5855(3) 0.4189(3) 0.5114(3)
H14 H 0.6047(3) 0.3687(3) 0.4466(3)
C13 C 0.5773(3) 0.3130(3) 0.5356(3)
H15 H 0.6282(3) 0.3121(3) 0.5574(3)
H16 H 0.5386(3) 0.3163(3) 0.5728(3)
O6 O 0.5655(3) 0.2500 0.4951(2)
O7 O 0.2728(3) 0.2500 0.3949(3)
C14 C 0.2326(3) 0.3130(3) 0.4146(4)
H17 H 0.2306(3) 0.3171(3) 0.4659(4)
H18 H 0.1799(3) 0.3115(3) 0.3967(4)
C15 C 0.2747(3) 0.3753(3) 0.3838(3)
H19 H 0.2798(3) 0.3694(3) 0.3329(3)
H20 H 0.2461(3) 0.4192(3) 0.3928(3)
O8 O 0.3497(2) 0.3797(2) 0.4156(2)
C16 C 0.3954(3) 0.4350(3) 0.3933(3)
C17 C 0.3725(4) 0.4889(3) 0.3478(3)
H21 H 0.3219(4) 0.4896(3) 0.3307(3)
C18 C 0.4238(4) 0.5415(3) 0.3275(3)
H22 H 0.4082(4) 0.5773(3) 0.2961(3)
C19 C 0.4970(4) 0.5413(3) 0.3531(3)
H23 H 0.5310(4) 0.5775(3) 0.3395(3)
C20 C 0.5227(3) 0.4888(3) 0.3991(3)
H24 H 0.5733(3) 0.4894(3) 0.4160(3)
C13C C 0.5773(3) 0.1870(3) 0.5356(3)
C14C C 0.2326(3) 0.1870(3) 0.4146(4)
C11C C 0.4717(3) 0.0650(3) 0.4196(3)
O5C O 0.4915(2) 0.1204(2) 0.4641(2)
C12C C 0.5707(3) 0.1249(3) 0.4871(3)
H13C H 0.5855(3) 0.0811(3) 0.5114(3)
H14C H 0.6047(3) 0.1313(3) 0.4466(3)
H15C H 0.6282(3) 0.1879(3) 0.5574(3)
H16C H 0.5386(3) 0.1837(3) 0.5728(3)
H17C H 0.2306(3) 0.1829(3) 0.4659(4)
H18C H 0.1799(3) 0.1885(3) 0.3967(4)
C15C C 0.2747(3) 0.1247(3) 0.3838(3)
H19C H 0.2798(3) 0.1306(3) 0.3329(3)
H20C H 0.2461(3) 0.0808(3) 0.3928(3)
O8C O 0.3497(2) 0.1203(2) 0.4156(2)
C16C C 0.3954(3) 0.0650(3) 0.3933(3)
C17C C 0.3725(4) 0.0111(3) 0.3478(3)
H21C H 0.3219(4) 0.0104(3) 0.3307(3)
C18C C 0.4238(4) -0.0415(3) 0.3275(3)
H22C H 0.4082(4) -0.0773(3) 0.2961(3)
C19C C 0.4970(4) -0.0413(3) 0.3531(3)
H23C H 0.5310(4) -0.0775(3) 0.3395(3)
C20C C 0.5227(3) 0.0112(3) 0.3991(3)
H24C H 0.5733(3) 0.0106(3) 0.4160(3)
loop_
_geom_bond_atom_site_label_1
_geom_bond_atom_site_label_2
_geom_bond_site_symmetry_1
_geom_bond_site_symmetry_2
I1 I2 1_555 1_555
I2 I3 1_555 1_555
I4 I1 1_555 1_555
I5 I4 1_555 1_555
I6 I5 1_555 1_555
I7 I6 1_555 1_555
I8 I7 1_555 1_555
Rb1 O1 1_555 1_555
C1 O1 1_555 1_555
O1 C2 1_555 1_555
C2 H1 1_555 1_555
H2 C2 1_555 1_555
C3 C2 1_555 1_555
H3 C3 1_555 1_555
H4 C3 1_555 1_555
O2 Rb1 1_555 1_555
O3 Rb1 1_555 1_555
C4 O3 1_555 1_555
H5 C4 1_555 1_555
H6 C4 1_555 1_555
C5 C4 1_555 1_555
H7 C5 1_555 1_555
H8 C5 1_555 1_555
O4 Rb1 1_555 1_555
C6 C1 1_555 1_555
C7 C6 1_555 1_555
H9 C7 1_555 1_555
C8 C7 1_555 1_555
H10 C8 1_555 1_555
C9 C8 1_555 1_555
H11 C9 1_555 1_555
C10 C1 1_555 1_555
H12 C10 1_555 1_555
Rb2 O5 1_555 1_555
C11 O5 1_555 1_555
O5 C12 1_555 1_555
C12 H13 1_555 1_555
H14 C12 1_555 1_555
C13 C12 1_555 1_555
H15 C13 1_555 1_555
H16 C13 1_555 1_555
O6 Rb2 1_555 1_555
O7 Rb2 1_555 1_555
C14 O7 1_555 1_555
H17 C14 1_555 1_555
H18 C14 1_555 1_555
C15 C14 1_555 1_555
H19 C15 1_555 1_555
H20 C15 1_555 1_555
O8 Rb2 1_555 1_555
C16 C11 1_555 1_555
C17 C16 1_555 1_555
H21 C17 1_555 1_555
C18 C17 1_555 1_555
H22 C18 1_555 1_555
C19 C18 1_555 1_555
H23 C19 1_555 1_555
C20 C11 1_555 1_555
H24 C20 1_555 1_555
I4C I1 1_555 1_555
I5C I6 1_555 1_555
C3C O2 1_555 1_555
C4C O3 1_555 1_555
C13C O6 1_555 1_555
C14C O7 1_555 1_555
C1C O1C 1_555 1_555
O1C Rb1 1_555 1_555
C2C C3C 1_555 1_555
H1C C2C 1_555 1_555
H2C C2C 1_555 1_555
H3C C3C 1_555 1_555
H4C C3C 1_555 1_555
H5C C4C 1_555 1_555
H6C C4C 1_555 1_555
C5C C4C 1_555 1_555
H7C C5C 1_555 1_555
H8C C5C 1_555 1_555
O4C Rb1 1_555 1_555
C6C C1C 1_555 1_555
C7C C6C 1_555 1_555
H9C C7C 1_555 1_555
C8C C7C 1_555 1_555
H10C C8C 1_555 1_555
C9C C8C 1_555 1_555
H11C C9C 1_555 1_555
C10C C1C 1_555 1_555
H12C C10C 1_555 1_555
C11C O5C 1_555 1_555
O5C Rb2 1_555 1_555
C12C C13C 1_555 1_555
H13C C12C 1_555 1_555
H14C C12C 1_555 1_555
H15C C13C 1_555 1_555
H16C C13C 1_555 1_555
H17C C14C 1_555 1_555
H18C C14C 1_555 1_555
C15C C14C 1_555 1_555
H19C C15C 1_555 1_555
H20C C15C 1_555 1_555
O8C Rb2 1_555 1_555
C16C C11C 1_555 1_555
C17C C16C 1_555 1_555
H21C C17C 1_555 1_555
C18C C17C 1_555 1_555
H22C C18C 1_555 1_555
C19C C18C 1_555 1_555
H23C C19C 1_555 1_555
C20C C11C 1_555 1_555
H24C C20C 1_555 1_555
I5C_2 I4C 1_555 1_555
I4C_2 I5C 1_555 1_555
C3 O2 1_555 1_555
C5 O4 1_555 1_555
O4 C6 1_555 1_555
C9 C10 1_555 1_555
C13 O6 1_555 1_555
C15 O8 1_555 1_555
O8 C16 1_555 1_555
C19 C20 1_555 1_555
O1C C2C 1_555 1_555
C5C O4C 1_555 1_555
O4C C6C 1_555 1_555
C9C C10C 1_555 1_555
O5C C12C 1_555 1_555
C15C O8C 1_555 1_555
O8C C16C 1_555 1_555
C19C C20C 1_555 1_555

#END
