
#######################################################################
#
#                 Cambridge Crystallographic Data Centre
#                                CCDC 
#
#######################################################################
#
# If this CIF has been generated from an entry in the Cambridge 
# Structural Database, then it will include bibliographic, chemical, 
# crystal, experimental, refinement or atomic coordinate data resulting 
# from the CCDC's data processing and validation procedures.
#
#######################################################################

data_XOMROI
_symmetry_cell_setting           monoclinic
_symmetry_space_group_name_H-M   'C 2/c'
_symmetry_Int_Tables_number      15
_space_group_name_Hall           '-C 2yn'
loop_
_symmetry_equiv_pos_site_id
_symmetry_equiv_pos_as_xyz
1 x,y,z
2 -x,y,1/2-z
3 1/2+x,1/2+y,z
4 1/2-x,1/2+y,1/2-z
5 -x,-y,-z
6 x,-y,1/2+z
7 1/2-x,1/2-y,-z
8 1/2+x,1/2-y,1/2+z
_cell_length_a                   26.223(7)
_cell_length_b                   16.097(4)
_cell_length_c                   7.852(2)
_cell_angle_alpha                90
_cell_angle_beta                 93.031(4)
_cell_angle_gamma                90
_cell_volume                     3309.78
loop_
_atom_site_label
_atom_site_type_symbol
_atom_site_fract_x
_atom_site_fract_y
_atom_site_fract_z
Pr1 Pr 0.177613(7) 0.538154(12) 0.02930(2)
O1 O 0.17918(11) 0.38290(19) 0.0553(4)
O2 O 0.18463(13) 0.35162(17) 0.3310(3)
O3 O 0.22903(10) 0.07809(19) 0.3959(3)
O4 O 0.26829(10) 0.01467(17) 0.1957(3)
O5 O 0.12431(10) 0.48598(18) -0.2159(3)
O6 O 0.08501(12) 0.4187(2) -0.4254(4)
O7 O 0.18007(14) 0.66721(18) 0.2131(4)
H1 H 0.1779(19) 0.7186(11) 0.184(7)
H2 H 0.1786(19) 0.658(3) 0.312(2)
C1 C 0.18153(15) 0.3322(2) 0.1782(5)
C2 C 0.18138(16) 0.2400(2) 0.1371(5)
H3 H 0.1791 0.2332 0.0142
H4 H 0.2136 0.2162 0.1793
C3 C 0.13838(14) 0.1919(2) 0.2119(4)
C4 C 0.09807(16) 0.2306(3) 0.2872(6)
H5 H 0.0968 0.2883 0.2908
C5 C 0.05984(19) 0.1847(4) 0.3570(8)
H6 H 0.0332 0.2116 0.4083
C6 C 0.0611(2) 0.0997(4) 0.3506(9)
H7 H 0.0356 0.0687 0.3982
C7 C 0.10020(19) 0.0605(3) 0.2741(8)
H8 H 0.1007 0.0028 0.2683
C8 C 0.13915(14) 0.1058(2) 0.2050(5)
C9 C 0.18236(16) 0.0598(3) 0.1273(5)
H9 H 0.1706 0.0048 0.0930
H10 H 0.1919 0.0890 0.0256
C10 C 0.22869(15) 0.0514(2) 0.2477(5)
C11 C 0.08816(15) 0.4381(3) -0.2732(5)
C12 C 0.05051(18) 0.4065(3) -0.1487(6)
H11 H 0.0686 0.3969 -0.0394
H12 H 0.0252 0.4493 -0.1325
C13 C 0.02371(19) 0.3284(3) -0.2032(6)
C14 C 0.04594(19) 0.2532(4) -0.1598(6)
H13 H 0.0772 0.2525 -0.0983
C15 C 0.02258(18) 0.1786(3) -0.2060(6)
H14 H 0.0383 0.1286 -0.1759
O5A O -0.12431(10) 0.48598(18) -0.2841(3)
O6A O -0.08501(12) 0.4187(2) -0.0746(4)
C11A C -0.08816(15) 0.4381(3) -0.2268(5)
C12A C -0.05051(18) 0.4065(3) -0.3513(6)
H11A H -0.0686 0.3969 -0.4606
H12A H -0.0252 0.4493 -0.3675
C13A C -0.02371(19) 0.3284(3) -0.2968(6)
C14A C -0.04594(19) 0.2532(4) -0.3402(6)
H13A H -0.0772 0.2525 -0.4017
C15A C -0.02258(18) 0.1786(3) -0.2940(6)
H14A H -0.0383 0.1286 -0.3241
Pr1A Pr -0.177613(7) 0.538154(12) -0.52930(2)
O1A O -0.17918(11) 0.38290(19) -0.5553(4)
O2A O -0.18463(13) 0.35162(17) -0.8310(3)
O3A O -0.22903(10) 0.07809(19) -0.8959(3)
O4A O -0.26829(10) 0.01467(17) -0.6957(3)
O7A O -0.18007(14) 0.66721(18) -0.7131(4)
H1A H -0.1779(19) 0.7186(11) -0.684(7)
H2A H -0.1786(19) 0.658(3) -0.812(2)
C1A C -0.18153(15) 0.3322(2) -0.6782(5)
C2A C -0.18138(16) 0.2400(2) -0.6371(5)
H3A H -0.1791 0.2332 -0.5142
H4A H -0.2136 0.2162 -0.6793
C3A C -0.13838(14) 0.1919(2) -0.7119(4)
C4A C -0.09807(16) 0.2306(3) -0.7872(6)
H5A H -0.0968 0.2883 -0.7908
C5A C -0.05984(19) 0.1847(4) -0.8570(8)
H6A H -0.0332 0.2116 -0.9083
C6A C -0.0611(2) 0.0997(4) -0.8506(9)
H7A H -0.0356 0.0687 -0.8982
C7A C -0.10020(19) 0.0605(3) -0.7741(8)
H8A H -0.1007 0.0028 -0.7683
C8A C -0.13915(14) 0.1058(2) -0.7050(5)
C9A C -0.18236(16) 0.0598(3) -0.6273(5)
H9A H -0.1706 0.0048 -0.5930
H10A H -0.1919 0.0890 -0.5256
C10A C -0.22869(15) 0.0514(2) -0.7477(5)
Pr1B Pr -0.322387(7) 0.038154(12) -0.97070(2)
Pr1C Pr 0.322387(7) 0.038154(12) 0.47070(2)
Pr1D Pr -0.177613(7) 0.461846(12) -1.02930(2)
Pr1D_2 Pr -0.177613(7) 0.461846(12) -0.02930(2)
Pr1E Pr 0.177613(7) 0.461846(12) -0.47070(2)
Pr1E_2 Pr 0.177613(7) 0.461846(12) 0.52930(2)
Pr1F Pr 0.322387(7) -0.038154(12) -0.02930(2)
Pr1G Pr -0.322387(7) -0.038154(12) -0.47070(2)
O2D O -0.18463(13) 0.64838(17) -0.3310(3)
O2E O 0.18463(13) 0.64838(17) -0.1690(3)
O3B O -0.27097(10) 0.57809(19) -0.6041(3)
O3C O 0.27097(10) 0.57809(19) 0.1041(3)
O4B O -0.23171(10) 0.51467(17) -0.8043(3)
O4C O 0.23171(10) 0.51467(17) 0.3043(3)
O4F O 0.23171(10) 0.48533(17) -0.1957(3)
O4G O -0.23171(10) 0.48533(17) -0.3043(3)
O5D O -0.12431(10) 0.51402(18) -0.7841(3)
O5E O 0.12431(10) 0.51402(18) 0.2841(3)
O6D O -0.08501(12) 0.5813(2) -0.5746(4)
O6E O 0.08501(12) 0.5813(2) 0.0746(4)
O8 O 0.1814(3) 0.1681(5) 0.6482(11)
O10 O 0.0000 0.6048(15) 0.7500
O9? O 0.1632(3) 0.1662(4) 0.6358(9)
loop_
_geom_bond_atom_site_label_1
_geom_bond_atom_site_label_2
_geom_bond_site_symmetry_1
_geom_bond_site_symmetry_2
Pr1 O1 1_555 1_555
O1 C1 1_555 1_555
O2 C1 1_555 1_555
O3 C10 1_555 1_555
O4 C10 1_555 1_555
O5 Pr1 1_555 1_555
O6 C11 1_555 1_555
O7 Pr1 1_555 1_555
H1 O7 1_555 1_555
H2 O7 1_555 1_555
C1 C2 1_555 1_555
C2 H3 1_555 1_555
H4 C2 1_555 1_555
C3 C2 1_555 1_555
C4 C3 1_555 1_555
H5 C4 1_555 1_555
C5 C4 1_555 1_555
H6 C5 1_555 1_555
C6 C5 1_555 1_555
H7 C6 1_555 1_555
C7 C6 1_555 1_555
H8 C7 1_555 1_555
C8 C3 1_555 1_555
C9 C8 1_555 1_555
H9 C9 1_555 1_555
H10 C9 1_555 1_555
C10 C9 1_555 1_555
C11 O5 1_555 1_555
C12 C11 1_555 1_555
H11 C12 1_555 1_555
H12 C12 1_555 1_555
C13 C12 1_555 1_555
C14 C13 1_555 1_555
H13 C14 1_555 1_555
C15 C14 1_555 1_555
H14 C15 1_555 1_555
O5A C11A 1_555 1_555
O6A C11A 1_555 1_555
C11A C12A 1_555 1_555
C12A H11A 1_555 1_555
H12A C12A 1_555 1_555
C13A C13 1_555 1_555
C14A C13A 1_555 1_555
H13A C14A 1_555 1_555
C15A C15 1_555 1_555
H14A C15A 1_555 1_555
Pr1A O5A 1_555 1_555
O1A Pr1A 1_555 1_555
O2A C1A 1_555 1_555
O3A C10A 1_555 1_555
O4A C10A 1_555 1_555
O7A Pr1A 1_555 1_555
H1A O7A 1_555 1_555
H2A O7A 1_555 1_555
C1A O1A 1_555 1_555
C2A C1A 1_555 1_555
H3A C2A 1_555 1_555
H4A C2A 1_555 1_555
C3A C2A 1_555 1_555
C4A C3A 1_555 1_555
H5A C4A 1_555 1_555
C5A C4A 1_555 1_555
H6A C5A 1_555 1_555
C6A C5A 1_555 1_555
H7A C6A 1_555 1_555
C7A C6A 1_555 1_555
H8A C7A 1_555 1_555
C8A C3A 1_555 1_555
C9A C8A 1_555 1_555
H9A C9A 1_555 1_555
H10A C9A 1_555 1_555
C10A C9A 1_555 1_555
Pr1B O3A 1_555 1_555
Pr1C O3 1_555 1_555
Pr1D O2A 1_555 1_555
Pr1D_2 O5A 1_555 1_555
Pr1E O5 1_555 1_555
Pr1E_2 O2 1_555 1_555
Pr1F O4 1_555 1_555
Pr1G O4A 1_555 1_555
O2D Pr1A 1_555 1_555
O2E Pr1 1_555 1_555
O3B Pr1A 1_555 1_555
O3C Pr1 1_555 1_555
O4B Pr1A 1_555 1_555
O4C Pr1 1_555 1_555
O4F Pr1 1_555 1_555
O4G Pr1A 1_555 1_555
O5D Pr1A 1_555 1_555
O5E Pr1 1_555 1_555
O6D Pr1A 1_555 1_555
O6E Pr1 1_555 1_555
O4 Pr1C 1_555 1_555
O6 Pr1E 1_555 1_555
C7 C8 1_555 1_555
O6A Pr1D_2 1_555 1_555
C12A C13A 1_555 1_555
C14A C15A 1_555 1_555
O4A Pr1B 1_555 1_555
C7A C8A 1_555 1_555
Pr1D O4B 1_555 1_555
Pr1D O5D 1_555 1_555
Pr1D_2 O4G 1_555 1_555
Pr1E O4F 1_555 1_555
Pr1E_2 O4C 1_555 1_555
Pr1E_2 O5E 1_555 1_555

#END
