
#######################################################################
#
#                 Cambridge Crystallographic Data Centre
#                                CCDC 
#
#######################################################################
#
# If this CIF has been generated from an entry in the Cambridge 
# Structural Database, then it will include bibliographic, chemical, 
# crystal, experimental, refinement or atomic coordinate data resulting 
# from the CCDC's data processing and validation procedures.
#
#######################################################################

data_XOMRUO
_symmetry_cell_setting           monoclinic
_symmetry_space_group_name_H-M   'C 2/c'
_symmetry_Int_Tables_number      15
_space_group_name_Hall           '-C 2yn'
loop_
_symmetry_equiv_pos_site_id
_symmetry_equiv_pos_as_xyz
1 x,y,z
2 -x,y,1/2-z
3 1/2+x,1/2+y,z
4 1/2-x,1/2+y,1/2-z
5 -x,-y,-z
6 x,-y,1/2+z
7 1/2-x,1/2-y,-z
8 1/2+x,1/2-y,1/2+z
_cell_length_a                   26.317(3)
_cell_length_b                   16.1589(19)
_cell_length_c                   7.8459(9)
_cell_angle_alpha                90
_cell_angle_beta                 93.124(2)
_cell_angle_gamma                90
_cell_volume                     3331.54
loop_
_atom_site_label
_atom_site_type_symbol
_atom_site_fract_x
_atom_site_fract_y
_atom_site_fract_z
Er1 Er 0.322249(9) 0.037930(15) -0.03061(3)
O1 O 0.31525(17) 0.1480(2) 0.1665(5)
O2 O 0.32068(15) 0.1164(2) 0.4433(5)
O3 O 0.27062(15) 0.4217(3) 0.1046(4)
O4 O 0.23146(13) 0.4859(2) 0.3058(5)
O5 O 0.41428(16) 0.0813(3) -0.0744(5)
O6 O 0.37535(13) 0.0135(2) -0.2851(5)
O7 O 0.3197(2) 0.1665(2) -0.2129(5)
H1 H 0.321(3) 0.156(5) -0.311(3)
H2 H 0.324(3) 0.2141(14) -0.190(10)
C1 C 0.3183(2) 0.1670(3) 0.3205(6)
C2 C 0.3183(2) 0.2596(3) 0.3631(7)
H3 H 0.2862 0.2833 0.3211
H4 H 0.3207 0.2661 0.4861
C3 C 0.36126(18) 0.3079(3) 0.2884(6)
C4 C 0.4018(2) 0.2692(4) 0.2119(8)
H5 H 0.4033 0.2117 0.2083
C5 C 0.4395(3) 0.3152(5) 0.1420(10)
H6 H 0.4658 0.2886 0.0894
C6 C 0.4386(3) 0.4007(6) 0.1494(12)
H7 H 0.4641 0.4314 0.1018
C7 C 0.3998(3) 0.4402(5) 0.2274(10)
H8 H 0.3995 0.4976 0.2338
C8 C 0.36049(19) 0.3941(3) 0.2976(7)
C9 C 0.3172(2) 0.4399(3) 0.3749(7)
H9 H 0.3075 0.4106 0.4760
H10 H 0.3288 0.4946 0.4101
C10 C 0.2711(2) 0.4486(3) 0.2523(7)
C11 C 0.4115(2) 0.0618(4) -0.2269(7)
C12 C 0.4493(2) 0.0928(5) -0.3518(7)
H11 H 0.4743 0.0498 -0.3680
H12 H 0.4313 0.1026 -0.4612
C13 C 0.4767(3) 0.1708(4) -0.2967(9)
C14 C 0.4543(3) 0.2468(5) -0.3395(9)
H13 H 0.4229 0.2473 -0.3999
C15 C 0.4767(3) 0.3200(5) -0.2965(9)
H14 H 0.4611 0.3696 -0.3287
O5A O 0.58572(16) 0.0813(3) -0.4256(5)
O6A O 0.62465(13) 0.0135(2) -0.2149(5)
C11A C 0.5885(2) 0.0618(4) -0.2731(7)
C12A C 0.5507(2) 0.0928(5) -0.1482(7)
H11A H 0.5257 0.0498 -0.1320
H12A H 0.5687 0.1026 -0.0388
C13A C 0.5233(3) 0.1708(4) -0.2033(9)
C14A C 0.5457(3) 0.2468(5) -0.1605(9)
H13A H 0.5771 0.2473 -0.1001
C15A C 0.5233(3) 0.3200(5) -0.2035(9)
H14A H 0.5389 0.3696 -0.1713
Er1A Er 0.677751(9) 0.037930(15) -0.46939(3)
O1A O 0.68475(17) 0.1480(2) -0.6665(5)
O2A O 0.67932(15) 0.1164(2) -0.9433(5)
O3A O 0.72938(15) 0.4217(3) -0.6046(4)
O4A O 0.76854(13) 0.4859(2) -0.8058(5)
O7A O 0.6803(2) 0.1665(2) -0.2871(5)
H1A H 0.679(3) 0.156(5) -0.189(3)
H2A H 0.676(3) 0.2141(14) -0.310(10)
C1A C 0.6817(2) 0.1670(3) -0.8205(6)
C2A C 0.6817(2) 0.2596(3) -0.8631(7)
H3A H 0.7138 0.2833 -0.8211
H4A H 0.6793 0.2661 -0.9861
C3A C 0.63874(18) 0.3079(3) -0.7884(6)
C4A C 0.5982(2) 0.2692(4) -0.7119(8)
H5A H 0.5967 0.2117 -0.7083
C5A C 0.5605(3) 0.3152(5) -0.6420(10)
H6A H 0.5342 0.2886 -0.5894
C6A C 0.5614(3) 0.4007(6) -0.6494(12)
H7A H 0.5359 0.4314 -0.6018
C7A C 0.6002(3) 0.4402(5) -0.7274(10)
H8A H 0.6005 0.4976 -0.7338
C8A C 0.63951(19) 0.3941(3) -0.7976(7)
C9A C 0.6828(2) 0.4399(3) -0.8749(7)
H9A H 0.6925 0.4106 -0.9760
H10A H 0.6712 0.4946 -0.9101
C10A C 0.7289(2) 0.4486(3) -0.7523(7)
Er1B Er 0.822249(9) 0.537930(15) -1.03061(3)
Er1C Er 0.177751(9) 0.537930(15) 0.53061(3)
Er1D Er 0.677751(9) -0.037930(15) -0.96939(3)
Er1D_2 Er 0.677751(9) -0.037930(15) 0.03061(3)
Er1E Er 0.322249(9) -0.037930(15) -0.53061(3)
Er1E_2 Er 0.322249(9) -0.037930(15) 0.46939(3)
Er1F Er 0.177751(9) 0.462070(15) 0.03061(3)
Er1G Er 0.822249(9) 0.462070(15) -0.53061(3)
O2D O 0.67932(15) -0.1164(2) -0.4433(5)
O2E O 0.32068(15) -0.1164(2) -0.0567(5)
O3F O 0.22938(15) 0.0783(3) -0.1046(4)
O3G O 0.77062(15) 0.0783(3) -0.3954(4)
O4B O 0.73146(13) -0.0141(2) -0.6942(5)
O4C O 0.26854(13) -0.0141(2) 0.1942(5)
O4F O 0.26854(13) 0.0141(2) -0.3058(5)
O4G O 0.73146(13) 0.0141(2) -0.1942(5)
O6D O 0.62465(13) -0.0135(2) -0.7149(5)
O6E O 0.37535(13) -0.0135(2) 0.2149(5)
O8 O 0.3367(4) 0.3330(7) 0.8623(13)
O9? O 0.3195(4) 0.3317(7) 0.8513(13)
O10? O 0.493(2) 0.104(2) 0.218(8)
loop_
_geom_bond_atom_site_label_1
_geom_bond_atom_site_label_2
_geom_bond_site_symmetry_1
_geom_bond_site_symmetry_2
Er1 O1 1_555 1_555
O1 C1 1_555 1_555
O2 C1 1_555 1_555
O3 C10 1_555 1_555
O4 C10 1_555 1_555
O5 Er1 1_555 1_555
O6 Er1 1_555 1_555
O7 Er1 1_555 1_555
H1 O7 1_555 1_555
H2 O7 1_555 1_555
C1 C2 1_555 1_555
C2 H3 1_555 1_555
H4 C2 1_555 1_555
C3 C2 1_555 1_555
C4 C3 1_555 1_555
H5 C4 1_555 1_555
C5 C4 1_555 1_555
H6 C5 1_555 1_555
C6 C5 1_555 1_555
H7 C6 1_555 1_555
C7 C6 1_555 1_555
H8 C7 1_555 1_555
C8 C3 1_555 1_555
C9 C8 1_555 1_555
H9 C9 1_555 1_555
H10 C9 1_555 1_555
C10 C9 1_555 1_555
C11 O5 1_555 1_555
C12 C11 1_555 1_555
H11 C12 1_555 1_555
H12 C12 1_555 1_555
C13 C12 1_555 1_555
C14 C13 1_555 1_555
H13 C14 1_555 1_555
C15 C14 1_555 1_555
H14 C15 1_555 1_555
O5A C11A 1_555 1_555
O6A C11A 1_555 1_555
C11A C12A 1_555 1_555
C12A H11A 1_555 1_555
H12A C12A 1_555 1_555
C13A C13 1_555 1_555
C14A C13A 1_555 1_555
H13A C14A 1_555 1_555
C15A C15 1_555 1_555
H14A C15A 1_555 1_555
Er1A O5A 1_555 1_555
O1A Er1A 1_555 1_555
O2A C1A 1_555 1_555
O3A C10A 1_555 1_555
O4A C10A 1_555 1_555
O7A Er1A 1_555 1_555
H1A O7A 1_555 1_555
H2A O7A 1_555 1_555
C1A O1A 1_555 1_555
C2A C1A 1_555 1_555
H3A C2A 1_555 1_555
H4A C2A 1_555 1_555
C3A C2A 1_555 1_555
C4A C3A 1_555 1_555
H5A C4A 1_555 1_555
C5A C4A 1_555 1_555
H6A C5A 1_555 1_555
C6A C5A 1_555 1_555
H7A C6A 1_555 1_555
C7A C6A 1_555 1_555
H8A C7A 1_555 1_555
C8A C3A 1_555 1_555
C9A C8A 1_555 1_555
H9A C9A 1_555 1_555
H10A C9A 1_555 1_555
C10A C9A 1_555 1_555
Er1B O4A 1_555 1_555
Er1C O4 1_555 1_555
Er1D O2A 1_555 1_555
Er1D_2 O6A 1_555 1_555
Er1E O6 1_555 1_555
Er1E_2 O2 1_555 1_555
Er1F O3 1_555 1_555
Er1G O3A 1_555 1_555
O2D Er1A 1_555 1_555
O2E Er1 1_555 1_555
O3F Er1 1_555 1_555
O3G Er1A 1_555 1_555
O4B Er1A 1_555 1_555
O4C Er1 1_555 1_555
O4F Er1 1_555 1_555
O4G Er1A 1_555 1_555
O6D Er1A 1_555 1_555
O6E Er1 1_555 1_555
O4 Er1F 1_555 1_555
O6 C11 1_555 1_555
C7 C8 1_555 1_555
O6A Er1A 1_555 1_555
C12A C13A 1_555 1_555
C14A C15A 1_555 1_555
O4A Er1G 1_555 1_555
C7A C8A 1_555 1_555
Er1D O4B 1_555 1_555
Er1D O6D 1_555 1_555
Er1D_2 O4G 1_555 1_555
Er1E O4F 1_555 1_555
Er1E_2 O4C 1_555 1_555
Er1E_2 O6E 1_555 1_555

#END
