
#######################################################################
#
#                 Cambridge Crystallographic Data Centre
#                                CCDC 
#
#######################################################################
#
# If this CIF has been generated from an entry in the Cambridge 
# Structural Database, then it will include bibliographic, chemical, 
# crystal, experimental, refinement or atomic coordinate data resulting 
# from the CCDC's data processing and validation procedures.
#
#######################################################################

data_XOMRAS01
_symmetry_cell_setting           monoclinic
_symmetry_space_group_name_H-M   'P 21/n'
_symmetry_Int_Tables_number      14
_space_group_name_Hall           '-P 2yn'
loop_
_symmetry_equiv_pos_site_id
_symmetry_equiv_pos_as_xyz
1 x,y,z
2 1/2-x,1/2+y,1/2-z
3 -x,-y,-z
4 1/2+x,1/2-y,1/2+z
_cell_length_a                   14.261(1)
_cell_length_b                   9.8024(9)
_cell_length_c                   16.911(2)
_cell_angle_alpha                90
_cell_angle_beta                 93.467(8)
_cell_angle_gamma                90
_cell_volume                     2359.7
loop_
_atom_site_label
_atom_site_type_symbol
_atom_site_fract_x
_atom_site_fract_y
_atom_site_fract_z
Tl1 Tl 0.7183(1) 0.8835(1) 0.2230(1)
Al1 Al 0.5445(2) 0.6217(3) 0.2692(1)
O1 O 0.5747(5) 0.6970(6) 0.1808(3)
O2 O 0.6197(5) 0.7202(6) 0.3304(3)
O3 O 0.9236(4) 0.9485(6) 0.2274(3)
O4 O 0.4283(4) 0.6199(7) 0.2867(4)
C1 C 0.5342(7) 0.6893(9) 0.1038(5)
C2 C 0.5016(9) 0.8293(10) 0.0797(6)
C3 C 0.6044(7) 0.6278(12) 0.0506(6)
C4 C 0.6298(7) 0.7385(9) 0.4122(5)
C5 C 0.7236(8) 0.6847(10) 0.4435(5)
C6 C 0.6184(7) 0.8913(11) 0.4282(6)
C7 C 0.9808(6) 0.8439(8) 0.2038(5)
C8 C 0.9587(8) 0.8152(10) 0.1159(6)
C9 C 0.9672(7) 0.7205(10) 0.2574(6)
C10 C 0.3503(6) 0.6989(10) 0.2865(5)
C11 C 0.3108(9) 0.6978(14) 0.3675(8)
C12 C 0.2789(7) 0.6465(11) 0.2222(7)
F1 F 0.5725(5) 0.9209(6) 0.0827(4)
F2 F 0.4387(6) 0.8750(6) 0.1290(5)
F3 F 0.4611(5) 0.8333(7) 0.0074(4)
F4 F 0.6849(4) 0.6995(8) 0.0533(4)
F5 F 0.5715(5) 0.6217(8) -0.0248(3)
F6 F 0.6257(5) 0.5020(7) 0.0739(4)
F7 F 0.7943(4) 0.7433(7) 0.4089(4)
F8 F 0.7286(5) 0.5516(6) 0.4268(3)
F9 F 0.7382(5) 0.6969(7) 0.5207(3)
F10 F 0.6729(5) 0.9694(5) 0.3845(3)
F11 F 0.5300(5) 0.9298(6) 0.4097(5)
F12 F 0.6382(5) 0.9260(6) 0.5040(3)
F13 F 0.8698(4) 0.7760(6) 0.1015(3)
F14 F 0.9714(4) 0.9271(5) 0.0740(3)
F15 F 1.0142(5) 0.7191(6) 0.0885(3)
F16 F 0.8774(4) 0.6800(6) 0.2552(3)
F17 F 1.0169(5) 0.6123(6) 0.2366(4)
F18 F 0.9921(5) 0.7501(6) 0.3311(3)
F19 F 0.3709(7) 0.7605(11) 0.4181(5)
F20 F 0.2287(6) 0.7669(10) 0.3669(5)
F21 F 0.2948(6) 0.5772(9) 0.3946(5)
F22 F 0.2409(5) 0.5265(7) 0.2412(5)
F23 F 0.2073(5) 0.7330(8) 0.2078(5)
F24 F 0.3183(5) 0.6277(9) 0.1543(4)
H1 H 0.4783(7) 0.6278(9) 0.1039(5)
H2 H 0.5789(7) 0.6873(9) 0.4376(5)
H3 H 1.0477(6) 0.8744(8) 0.2112(5)
H4 H 0.3678(6) 0.7947(10) 0.2732(5)
F8A F 0.7714(5) 1.0516(6) 0.0732(3)
F16A F 0.6226(4) 1.1800(6) 0.2448(3)
O3A O 0.5764(4) 0.4485(6) 0.2726(3)
Al1A Al 0.9555(2) 1.1217(3) 0.2308(1)
Tl1A Tl 0.7817(1) 0.3835(1) 0.2770(1)
loop_
_geom_bond_atom_site_label_1
_geom_bond_atom_site_label_2
_geom_bond_site_symmetry_1
_geom_bond_site_symmetry_2
Tl1 O1 1_555 1_555
Al1 O1 1_555 1_555
O1 C1 1_555 1_555
O2 Tl1 1_555 1_555
O3 Tl1 1_555 1_555
O4 Al1 1_555 1_555
C1 C2 1_555 1_555
C2 F1 1_555 1_555
C3 C1 1_555 1_555
C4 O2 1_555 1_555
C5 C4 1_555 1_555
C6 C4 1_555 1_555
C7 O3 1_555 1_555
C8 C7 1_555 1_555
C9 C7 1_555 1_555
C10 O4 1_555 1_555
C11 C10 1_555 1_555
C12 C10 1_555 1_555
F1 Tl1 1_555 1_555
F2 C2 1_555 1_555
F3 C2 1_555 1_555
F4 Tl1 1_555 1_555
F5 C3 1_555 1_555
F6 C3 1_555 1_555
F7 Tl1 1_555 1_555
F8 C5 1_555 1_555
F9 C5 1_555 1_555
F10 Tl1 1_555 1_555
F11 C6 1_555 1_555
F12 C6 1_555 1_555
F13 Tl1 1_555 1_555
F14 C8 1_555 1_555
F15 C8 1_555 1_555
F16 Tl1 1_555 1_555
F17 C9 1_555 1_555
F18 C9 1_555 1_555
F19 C11 1_555 1_555
F20 C11 1_555 1_555
F21 C11 1_555 1_555
F22 C12 1_555 1_555
F23 C12 1_555 1_555
F24 C12 1_555 1_555
H1 C1 1_555 1_555
H2 C4 1_555 1_555
H3 C7 1_555 1_555
H4 C10 1_555 1_555
F8A Tl1 1_555 1_555
F16A Tl1 1_555 1_555
O3A Al1 1_555 1_555
Al1A O3 1_555 1_555
Tl1A F8 1_555 1_555
Al1 O2 1_555 1_555
C3 F4 1_555 1_555
C5 F7 1_555 1_555
C6 F10 1_555 1_555
C8 F13 1_555 1_555
C9 F16 1_555 1_555
F16 Tl1A 1_555 1_555
O3A Tl1A 1_555 1_555

#END
