
#######################################################################
#
#                 Cambridge Crystallographic Data Centre
#                                CCDC 
#
#######################################################################
#
# If this CIF has been generated from an entry in the Cambridge 
# Structural Database, then it will include bibliographic, chemical, 
# crystal, experimental, refinement or atomic coordinate data resulting 
# from the CCDC's data processing and validation procedures.
#
#######################################################################

data_XOMRIC
_symmetry_cell_setting           monoclinic
_symmetry_space_group_name_H-M   'I 2/c'
_symmetry_Int_Tables_number      15
_space_group_name_Hall           '-I 2yc'
loop_
_symmetry_equiv_pos_site_id
_symmetry_equiv_pos_as_xyz
1 x,y,z
2 -x,y,1/2-z
3 1/2+x,1/2+y,1/2+z
4 1/2-x,1/2+y,-z
5 -x,-y,-z
6 x,-y,1/2+z
7 1/2-x,1/2-y,1/2-z
8 1/2+x,1/2-y,z
_cell_length_a                   18.908(3)
_cell_length_b                   11.4227(10)
_cell_length_c                   17.7436(19)
_cell_angle_alpha                90
_cell_angle_beta                 105.178(13)
_cell_angle_gamma                90
_cell_volume                     3698.59
loop_
_atom_site_label
_atom_site_type_symbol
_atom_site_fract_x
_atom_site_fract_y
_atom_site_fract_z
Co1 Co 0.52165(3) 0.31162(5) 0.38737(3)
O1 O 0.46351(17) 0.2376(2) 0.45760(17)
O2 O 0.42158(18) 0.3975(2) 0.50412(18)
O3 O 0.33566(17) -0.1630(2) 0.53174(18)
O4 O 0.43506(16) -0.1476(2) 0.63136(17)
O5 O 0.06313(15) -0.2467(2) 0.71646(17)
O6 O 0.08665(17) -0.1237(2) 0.81896(17)
O7 O 0.47554(17) 0.4793(2) 0.38642(17)
H1 H 0.5056 0.5234 0.4142
H2 H 0.4538 0.4681 0.4226
O8 O 0.60593(17) 0.3650(2) 0.48613(17)
H3 H 0.6215 0.4293 0.4777
H4 H 0.6374 0.3073 0.4731
C1 C 0.4277(2) 0.2880(4) 0.4992(3)
C2 C 0.3873(2) 0.2132(4) 0.5432(2)
C3 C 0.4001(2) 0.0936(3) 0.5508(2)
H5 H 0.4355 0.0601 0.5297
C4 C 0.3608(2) 0.0230(3) 0.5895(2)
C5 C 0.3073(2) 0.0706(4) 0.6223(3)
C6 C 0.2961(3) 0.1911(4) 0.6146(3)
H6 H 0.2612 0.2256 0.6359
C7 C 0.3354(3) 0.2615(4) 0.5760(3)
H7 H 0.3267 0.3417 0.5724
C8 C 0.2605(2) 0.0027(4) 0.6626(3)
C9 C 0.2352(3) -0.1097(4) 0.6404(3)
H8 H 0.2519 -0.1486 0.6023
C10 C 0.1860(3) -0.1646(4) 0.6734(3)
H9 H 0.1699 -0.2396 0.6570
C11 C 0.1600(2) -0.1105(4) 0.7304(2)
C12 C 0.1870(2) 0.0000(4) 0.7559(3)
H10 H 0.1715 0.0376 0.7953
C13 C 0.2367(3) 0.0536(4) 0.7226(3)
H11 H 0.2550 0.1267 0.7411
C14 C 0.3771(3) -0.1066(4) 0.5846(3)
C15 C 0.0997(2) -0.1630(4) 0.7587(3)
Co2 Co 0.5000 -0.12260(7) 0.7500
N1 N 0.5478(2) 0.0208(3) 0.7080(2)
C16 C 0.5250(3) 0.1271(4) 0.7249(3)
C17 C 0.5476(3) 0.2275(4) 0.6939(3)
H12 H 0.5333 0.3008 0.7073
C18 C 0.5913(3) 0.2182(5) 0.6432(3)
H13 H 0.6060 0.2849 0.6214
C19 C 0.6129(3) 0.1098(5) 0.6253(3)
H14 H 0.6424 0.1013 0.5911
C20 C 0.5897(3) 0.0132(4) 0.6594(3)
H15 H 0.6043 -0.0607 0.6474
N1A N 0.4522(2) 0.0208(3) 0.7920(2)
C16A C 0.4750(3) 0.1271(4) 0.7751(3)
C17A C 0.4524(3) 0.2275(4) 0.8061(3)
H12A H 0.4667 0.3008 0.7927
C18A C 0.4087(3) 0.2182(5) 0.8568(3)
H13A H 0.3940 0.2849 0.8786
C19A C 0.3871(3) 0.1098(5) 0.8747(3)
H14A H 0.3576 0.1013 0.9089
C20A C 0.4103(3) 0.0132(4) 0.8406(3)
H15A H 0.3957 -0.0607 0.8526
Co1A Co 0.47835(3) 0.31162(5) 1.11263(3)
O1A O 0.53649(17) 0.2376(2) 1.04240(17)
O2A O 0.57842(18) 0.3975(2) 0.99588(18)
O3A O 0.66434(17) -0.1630(2) 0.96826(18)
O4A O 0.56494(16) -0.1476(2) 0.86864(17)
O5A O 0.93687(15) -0.2467(2) 0.78354(17)
O6A O 0.91335(17) -0.1237(2) 0.68104(17)
O7A O 0.52446(17) 0.4793(2) 1.11358(17)
H1A H 0.4944 0.5234 1.0858
H2A H 0.5462 0.4681 1.0774
O8A O 0.39407(17) 0.3650(2) 1.01387(17)
H3A H 0.3785 0.4293 1.0223
H4A H 0.3626 0.3073 1.0269
C1A C 0.5723(2) 0.2880(4) 1.0008(3)
C2A C 0.6127(2) 0.2132(4) 0.9568(2)
C3A C 0.5999(2) 0.0936(3) 0.9492(2)
H5A H 0.5645 0.0601 0.9703
C4A C 0.6392(2) 0.0230(3) 0.9105(2)
C5A C 0.6927(2) 0.0706(4) 0.8777(3)
C6A C 0.7039(3) 0.1911(4) 0.8854(3)
H6A H 0.7388 0.2256 0.8641
C7A C 0.6646(3) 0.2615(4) 0.9240(3)
H7A H 0.6733 0.3417 0.9276
C8A C 0.7395(2) 0.0027(4) 0.8374(3)
C9A C 0.7648(3) -0.1097(4) 0.8596(3)
H8A H 0.7481 -0.1486 0.8977
C10A C 0.8140(3) -0.1646(4) 0.8266(3)
H9A H 0.8301 -0.2396 0.8430
C11A C 0.8400(2) -0.1105(4) 0.7696(2)
C12A C 0.8130(2) 0.0000(4) 0.7441(3)
H10A H 0.8285 0.0376 0.7047
C13A C 0.7633(3) 0.0536(4) 0.7774(3)
H11A H 0.7450 0.1267 0.7589
C14A C 0.6229(3) -0.1066(4) 0.9154(3)
C15A C 0.9003(2) -0.1630(4) 0.7413(3)
Co1B Co 0.02165(3) -0.18838(5) 0.88737(3)
Co1B_2 Co 1.02165(3) -0.18838(5) 0.88737(3)
Co1C Co -0.02165(3) -0.18838(5) 0.61263(3)
Co1C_2 Co 0.97835(3) -0.18838(5) 0.61263(3)
Co1D Co 0.47835(3) -0.31162(5) 0.61263(3)
Co1E Co 0.52165(3) -0.31162(5) 0.88737(3)
O4D O 0.56494(16) 0.1476(2) 0.36864(17)
O4E O 0.43506(16) 0.1476(2) 1.13136(17)
O5B O 0.56313(15) 0.2533(2) 1.21646(17)
O5C O 0.43687(15) 0.2533(2) 0.28354(17)
O5F O 0.43687(15) -0.2533(2) 0.78354(17)
O5G O 0.56313(15) -0.2533(2) 0.71646(17)
O6B O 0.58665(17) 0.3763(2) 0.31896(17)
O6C O 0.41335(17) 0.3763(2) 1.18104(17)
Co2F Co 0.0000 -0.37740(7) 0.7500
Co2F_2 Co 1.0000 -0.37740(7) 0.7500
loop_
_geom_bond_atom_site_label_1
_geom_bond_atom_site_label_2
_geom_bond_site_symmetry_1
_geom_bond_site_symmetry_2
Co1 O1 1_555 1_555
O1 C1 1_555 1_555
O2 C1 1_555 1_555
O3 C14 1_555 1_555
O4 C14 1_555 1_555
O5 C15 1_555 1_555
O6 C15 1_555 1_555
O7 Co1 1_555 1_555
H1 O7 1_555 1_555
H2 O7 1_555 1_555
O8 Co1 1_555 1_555
H3 O8 1_555 1_555
H4 O8 1_555 1_555
C1 C2 1_555 1_555
C2 C3 1_555 1_555
C3 H5 1_555 1_555
C4 C3 1_555 1_555
C5 C4 1_555 1_555
C6 C5 1_555 1_555
H6 C6 1_555 1_555
C7 C2 1_555 1_555
H7 C7 1_555 1_555
C8 C5 1_555 1_555
C9 C8 1_555 1_555
H8 C9 1_555 1_555
C10 C9 1_555 1_555
H9 C10 1_555 1_555
C11 C10 1_555 1_555
C12 C11 1_555 1_555
H10 C12 1_555 1_555
C13 C8 1_555 1_555
H11 C13 1_555 1_555
C14 C4 1_555 1_555
C15 C11 1_555 1_555
Co2 O4 1_555 1_555
N1 Co2 1_555 1_555
C16 N1 1_555 1_555
C17 C16 1_555 1_555
H12 C17 1_555 1_555
C18 C17 1_555 1_555
H13 C18 1_555 1_555
C19 C18 1_555 1_555
H14 C19 1_555 1_555
C20 N1 1_555 1_555
H15 C20 1_555 1_555
N1A Co2 1_555 1_555
C16A C16 1_555 1_555
C17A C16A 1_555 1_555
H12A C17A 1_555 1_555
C18A C17A 1_555 1_555
H13A C18A 1_555 1_555
C19A C18A 1_555 1_555
H14A C19A 1_555 1_555
C20A N1A 1_555 1_555
H15A C20A 1_555 1_555
Co1A O1A 1_555 1_555
O1A C1A 1_555 1_555
O2A C1A 1_555 1_555
O3A C14A 1_555 1_555
O4A Co2 1_555 1_555
O5A C15A 1_555 1_555
O6A C15A 1_555 1_555
O7A Co1A 1_555 1_555
H1A O7A 1_555 1_555
H2A O7A 1_555 1_555
O8A Co1A 1_555 1_555
H3A O8A 1_555 1_555
H4A O8A 1_555 1_555
C1A C2A 1_555 1_555
C2A C3A 1_555 1_555
C3A H5A 1_555 1_555
C4A C3A 1_555 1_555
C5A C4A 1_555 1_555
C6A C5A 1_555 1_555
H6A C6A 1_555 1_555
C7A C2A 1_555 1_555
H7A C7A 1_555 1_555
C8A C5A 1_555 1_555
C9A C8A 1_555 1_555
H8A C9A 1_555 1_555
C10A C9A 1_555 1_555
H9A C10A 1_555 1_555
C11A C10A 1_555 1_555
C12A C11A 1_555 1_555
H10A C12A 1_555 1_555
C13A C8A 1_555 1_555
H11A C13A 1_555 1_555
C14A O4A 1_555 1_555
C15A C11A 1_555 1_555
Co1B O6 1_555 1_555
Co1B_2 O5A 1_555 1_555
Co1C O5 1_555 1_555
Co1C_2 O6A 1_555 1_555
Co1D O4 1_555 1_555
Co1E O4A 1_555 1_555
O4D Co1 1_555 1_555
O4E Co1A 1_555 1_555
O5B Co1A 1_555 1_555
O5C Co1 1_555 1_555
O5F Co2 1_555 1_555
O5G Co2 1_555 1_555
O6B Co1 1_555 1_555
O6C Co1A 1_555 1_555
Co2F O5 1_555 1_555
Co2F_2 O5A 1_555 1_555
C6 C7 1_555 1_555
C12 C13 1_555 1_555
C19 C20 1_555 1_555
N1A C16A 1_555 1_555
C19A C20A 1_555 1_555
C4A C14A 1_555 1_555
C6A C7A 1_555 1_555
C12A C13A 1_555 1_555
Co1D O5G 1_555 1_555
Co1E O5F 1_555 1_555

#END
