
#######################################################################
#
#                 Cambridge Crystallographic Data Centre
#                                CCDC 
#
#######################################################################
#
# If this CIF has been generated from an entry in the Cambridge 
# Structural Database, then it will include bibliographic, chemical, 
# crystal, experimental, refinement or atomic coordinate data resulting 
# from the CCDC's data processing and validation procedures.
#
#######################################################################

data_XOMREW
_symmetry_cell_setting           monoclinic
_symmetry_space_group_name_H-M   'C 2/c'
_symmetry_Int_Tables_number      15
_space_group_name_Hall           '-C 2yn'
loop_
_symmetry_equiv_pos_site_id
_symmetry_equiv_pos_as_xyz
1 x,y,z
2 1/2+x,1/2+y,z
3 x,-y,1/2+z
4 1/2+x,1/2-y,1/2+z
5 -x,-y,-z
6 1/2-x,1/2-y,-z
7 -x,y,1/2-z
8 1/2-x,1/2+y,1/2-z
_cell_length_a                   23.014(5)
_cell_length_b                   10.788(4)
_cell_length_c                   9.480(2)
_cell_angle_alpha                90.00
_cell_angle_beta                 113.192(14)
_cell_angle_gamma                90.00
_cell_volume                     2163.45
loop_
_atom_site_label
_atom_site_type_symbol
_atom_site_fract_x
_atom_site_fract_y
_atom_site_fract_z
Ag1 Ag 0.5000 0.35834(6) 0.2500
Ag2 Ag 0.5000 0.5000 0.0000
C1 C 0.4174(2) 0.4267(6) 0.0181(6)
C2 C 0.3881(3) 0.3244(7) -0.0627(7)
C3 C 0.3781(3) 0.5074(7) 0.0518(7)
C4 C 0.3231(4) 0.3000(9) -0.1094(8)
C5 C 0.2877(3) 0.3860(11) -0.0725(9)
C6 C 0.3143(3) 0.4884(9) 0.0094(8)
F1 F 0.4212(2) 0.2368(4) -0.1006(4)
F2 F 0.4017(2) 0.6141(4) 0.1290(4)
F3 F 0.2966(2) 0.1977(5) -0.1898(5)
F4 F 0.2247(2) 0.3633(6) -0.1149(6)
F5 F 0.2785(2) 0.5722(6) 0.0450(5)
N1 N 0.5651(3) 0.2223(7) 0.1780(7)
C7 C 0.5878(4) 0.1729(8) 0.1129(9)
C8 C 0.5842(6) 0.0521(12) -0.0909(13)
C9 C 0.6300(5) 0.1035(11) 0.0328(12)
C1F C 0.5826(2) 0.4267(6) 0.4819(6)
C2F C 0.6119(3) 0.3244(7) 0.5627(7)
C3F C 0.6219(3) 0.5074(7) 0.4482(7)
C4F C 0.6769(4) 0.3000(9) 0.6094(8)
C5F C 0.7123(3) 0.3860(11) 0.5725(9)
C6F C 0.6857(3) 0.4884(9) 0.4906(8)
F1F F 0.5788(2) 0.2368(4) 0.6006(4)
F2F F 0.5983(2) 0.6141(4) 0.3710(4)
F3F F 0.7034(2) 0.1977(5) 0.6898(5)
F4F F 0.7753(2) 0.3633(6) 0.6149(6)
F5F F 0.7215(2) 0.5722(6) 0.4550(5)
N1F N 0.4349(3) 0.2223(7) 0.3220(7)
C7F C 0.4122(4) 0.1729(8) 0.3871(9)
C8F C 0.4158(6) 0.0521(12) 0.5909(13)
C9F C 0.3700(5) 0.1035(11) 0.4672(12)
Ag2B Ag 0.5000 0.5000 0.5000
Ag1B Ag 0.5000 0.64166(6) -0.2500
C1D C 0.5826(2) 0.5733(6) -0.0181(6)
loop_
_geom_bond_atom_site_label_1
_geom_bond_atom_site_label_2
_geom_bond_site_symmetry_1
_geom_bond_site_symmetry_2
Ag1 Ag2 1_555 1_555
Ag2 C1 1_555 1_555
C1 Ag1 1_555 1_555
C2 C1 1_555 1_555
C3 C1 1_555 1_555
C4 C2 1_555 1_555
C5 C4 1_555 1_555
C6 C3 1_555 1_555
F1 C2 1_555 1_555
F2 C3 1_555 1_555
F3 C4 1_555 1_555
F4 C5 1_555 1_555
F5 C6 1_555 1_555
N1 Ag1 1_555 1_555
C7 N1 1_555 1_555
C8 C9 1_555 1_555
C9 C7 1_555 1_555
C1F Ag1 1_555 1_555
C2F C1F 1_555 1_555
C3F C1F 1_555 1_555
C4F C2F 1_555 1_555
C5F C4F 1_555 1_555
C6F C3F 1_555 1_555
F1F C2F 1_555 1_555
F2F C3F 1_555 1_555
F3F C4F 1_555 1_555
F4F C5F 1_555 1_555
F5F C6F 1_555 1_555
N1F Ag1 1_555 1_555
C7F N1F 1_555 1_555
C8F C9F 1_555 1_555
C9F C7F 1_555 1_555
Ag2B Ag1 1_555 1_555
Ag1B Ag2 1_555 1_555
C1D Ag2 1_555 1_555
C5 C6 1_555 1_555
C1F Ag2B 1_555 1_555
C5F C6F 1_555 1_555
Ag1B C1D 1_555 1_555

#END
