
#######################################################################
#
#                 Cambridge Crystallographic Data Centre
#                                CCDC 
#
#######################################################################
#
# If this CIF has been generated from an entry in the Cambridge 
# Structural Database, then it will include bibliographic, chemical, 
# crystal, experimental, refinement or atomic coordinate data resulting 
# from the CCDC's data processing and validation procedures.
#
#######################################################################

data_XOMSUN
_symmetry_cell_setting           triclinic
_symmetry_space_group_name_H-M   'P -1'
_symmetry_Int_Tables_number      2
_space_group_name_Hall           '-P 1'
loop_
_symmetry_equiv_pos_site_id
_symmetry_equiv_pos_as_xyz
1 x,y,z
2 -x,-y,-z
_cell_length_a                   9.336(3)
_cell_length_b                   14.686(5)
_cell_length_c                   16.911(5)
_cell_angle_alpha                71.36(2)
_cell_angle_beta                 84.31(2)
_cell_angle_gamma                72.470(10)
_cell_volume                     2094.98
loop_
_atom_site_label
_atom_site_type_symbol
_atom_site_fract_x
_atom_site_fract_y
_atom_site_fract_z
Cd1 Cd -0.26609(5) -0.07120(3) -0.02386(3)
S1 S -0.4179(2) -0.36958(13) 0.15103(11)
S2 S -0.23200(18) 0.12468(12) -0.10366(9)
S3 S -0.55892(17) 0.02829(11) -0.10467(9)
S4 S -0.1612(2) -0.09330(12) -0.16549(10)
N1 N -0.3195(7) -0.2211(4) 0.0321(3)
N2 N 0.0469(6) 0.1102(4) -0.0454(3)
N3 N -0.5349(6) -0.0685(4) -0.2144(3)
H1 H -0.4848 -0.0252 -0.2449
H2 H -0.5485 -0.1151 -0.2345
N4 N -0.6641(6) -0.1247(4) -0.0944(3)
H3 H -0.7023 -0.1152 -0.0457
N5 N -0.1464(6) -0.2055(4) -0.2603(3)
H4 H -0.1289 -0.1535 -0.3016
H5 H -0.1496 -0.2607 -0.2716
N6 N -0.1957(7) -0.2771(4) -0.1230(3)
H6 H -0.2197 -0.2689 -0.0724
C1 C -0.3598(7) -0.2833(4) 0.0815(4)
C2 C -0.0666(8) 0.1145(4) -0.0688(3)
C3 C -0.5891(6) -0.0631(4) -0.1405(3)
C4 C -0.6904(7) -0.2060(4) -0.1153(3)
C5 C -0.7505(7) -0.1901(5) -0.1921(4)
H13 H -0.7796 -0.1237 -0.2309
C6 C -0.7688(8) -0.2706(5) -0.2120(4)
H14 H -0.8089 -0.2601 -0.2654
C7 C -0.7314(9) -0.3638(6) -0.1560(5)
H15 H -0.7387 -0.4197 -0.1714
C8 C -0.6798(9) -0.3787(6) -0.0770(5)
H16 H -0.6603 -0.4442 -0.0367
C9 C -0.6575(8) -0.3005(5) -0.0564(4)
H17 H -0.6209 -0.3107 -0.0022
C10 C -0.1683(7) -0.2001(5) -0.1833(4)
C11 C -0.1910(7) -0.3718(5) -0.1321(4)
C12 C -0.3085(9) -0.3835(6) -0.1660(5)
H18 H -0.3952 -0.3271 -0.1850
C13 C -0.3030(10) -0.4767(6) -0.1726(5)
H19 H -0.3859 -0.4851 -0.1960
C14 C -0.1799(10) -0.5556(6) -0.1468(5)
H20 H -0.1765 -0.6197 -0.1514
C15 C -0.0622(10) -0.5445(6) -0.1141(6)
H21 H 0.0246 -0.6009 -0.0955
C16 C -0.0665(9) -0.4520(6) -0.1074(5)
H22 H 0.0178 -0.4434 -0.0854
S3A S -0.44108(17) -0.02829(11) 0.10467(9)
N2A N -0.0469(6) -0.1102(4) 0.0454(3)
Cd1A Cd -0.73391(5) 0.07120(3) 0.02386(3)
Cd1A_2 Cd 0.26609(5) 0.07120(3) 0.02386(3)
Cd2 Cd 0.24461(5) -0.07721(3) -0.49951(3)
S5 S 0.0264(2) -0.36272(13) -0.37278(11)
S6 S 0.46780(19) -0.16343(12) -0.38007(9)
S7 S 0.42656(18) -0.10620(12) -0.62269(9)
S8 S 0.02270(17) -0.02589(11) -0.39346(9)
N7 N 0.1661(6) -0.2182(4) -0.4629(3)
N8 N 0.6902(6) -0.0747(4) -0.4674(3)
N9 N 0.4806(6) -0.2218(4) -0.7191(3)
H7 H 0.5103 -0.1718 -0.7568
H8 H 0.4844 -0.2774 -0.7320
N10 N 0.3937(6) -0.2902(4) -0.5886(3)
H9 H 0.3696 -0.2840 -0.5374
N11 N -0.0815(5) 0.0994(3) -0.3062(3)
H10 H -0.1555 0.0695 -0.2927
H11 H -0.0825 0.1490 -0.2856
N12 N 0.1394(5) 0.1121(3) -0.3755(3)
H12 H 0.2147 0.0875 -0.4074
C17 C 0.1063(7) -0.2785(4) -0.4249(3)
C18 C 0.5975(7) -0.1106(4) -0.4315(3)
C19 C 0.4327(6) -0.2137(4) -0.6449(3)
C20 C 0.3870(7) -0.3814(4) -0.6008(3)
C21 C 0.2513(7) -0.4013(5) -0.5919(4)
H23 H 0.1622 -0.3537 -0.5805
C22 C 0.2465(9) -0.4916(5) -0.5993(5)
H24 H 0.1522 -0.5069 -0.5932
C23 C 0.3726(9) -0.5592(5) -0.6152(4)
H25 H 0.3669 -0.6214 -0.6199
C24 C 0.5081(8) -0.5391(5) -0.6238(4)
H26 H 0.5965 -0.5864 -0.6363
C25 C 0.5176(7) -0.4494(5) -0.6157(4)
H27 H 0.6123 -0.4351 -0.6196
C26 C 0.0278(6) 0.0701(4) -0.3559(3)
C27 C 0.1468(6) 0.1934(4) -0.3490(4)
C28 C 0.1442(6) 0.1855(4) -0.2655(3)
H28 H 0.1455 0.1227 -0.2243
C29 C 0.1403(7) 0.2681(5) -0.2413(4)
H29 H 0.1357 0.2631 -0.1832
C30 C 0.1424(7) 0.3565(5) -0.2999(4)
H30 H 0.1373 0.4138 -0.2828
C31 C 0.1519(7) 0.3644(5) -0.3847(4)
H31 H 0.1571 0.4260 -0.4257
C32 C 0.1535(6) 0.2826(5) -0.4092(4)
H32 H 0.1595 0.2871 -0.4673
S8A S -0.02270(17) 0.02589(11) -0.60654(9)
N8A N 0.3098(6) 0.0747(4) -0.5326(3)
Cd2A Cd -0.24461(5) 0.07721(3) -0.50049(3)
Cd2A_2 Cd 0.75539(5) 0.07721(3) -0.50049(3)
loop_
_geom_bond_atom_site_label_1
_geom_bond_atom_site_label_2
_geom_bond_site_symmetry_1
_geom_bond_site_symmetry_2
Cd1 S2 1_555 1_555
Cd2 S6 1_555 1_555
S1 C1 1_555 1_555
S2 C2 1_555 1_555
S3 Cd1 1_555 1_555
S4 Cd1 1_555 1_555
S5 C17 1_555 1_555
S6 C18 1_555 1_555
S7 Cd2 1_555 1_555
S8 Cd2 1_555 1_555
N1 Cd1 1_555 1_555
N2 C2 1_555 1_555
N3 H1 1_555 1_555
H2 N3 1_555 1_555
N4 H3 1_555 1_555
N5 H4 1_555 1_555
H5 N5 1_555 1_555
N6 H6 1_555 1_555
N7 Cd2 1_555 1_555
N8 C18 1_555 1_555
N9 H7 1_555 1_555
H8 N9 1_555 1_555
N10 H9 1_555 1_555
N11 H10 1_555 1_555
H11 N11 1_555 1_555
N12 H12 1_555 1_555
C1 N1 1_555 1_555
C3 S3 1_555 1_555
C4 N4 1_555 1_555
C5 C4 1_555 1_555
H13 C5 1_555 1_555
C6 C5 1_555 1_555
H14 C6 1_555 1_555
C7 C6 1_555 1_555
H15 C7 1_555 1_555
C8 C7 1_555 1_555
H16 C8 1_555 1_555
C9 C4 1_555 1_555
H17 C9 1_555 1_555
C10 S4 1_555 1_555
C11 N6 1_555 1_555
C12 C11 1_555 1_555
H18 C12 1_555 1_555
C13 C12 1_555 1_555
H19 C13 1_555 1_555
C14 C13 1_555 1_555
H20 C14 1_555 1_555
C15 C14 1_555 1_555
H21 C15 1_555 1_555
C16 C11 1_555 1_555
H22 C16 1_555 1_555
C17 N7 1_555 1_555
C19 S7 1_555 1_555
C20 N10 1_555 1_555
C21 C20 1_555 1_555
H23 C21 1_555 1_555
C22 C21 1_555 1_555
H24 C22 1_555 1_555
C23 C22 1_555 1_555
H25 C23 1_555 1_555
C24 C23 1_555 1_555
H26 C24 1_555 1_555
C25 C20 1_555 1_555
H27 C25 1_555 1_555
C26 S8 1_555 1_555
C27 N12 1_555 1_555
C28 C27 1_555 1_555
H28 C28 1_555 1_555
C29 C28 1_555 1_555
H29 C29 1_555 1_555
C30 C29 1_555 1_555
H30 C30 1_555 1_555
C31 C30 1_555 1_555
H31 C31 1_555 1_555
C32 C27 1_555 1_555
H32 C32 1_555 1_555
S3A Cd1 1_555 1_555
N2A Cd1 1_555 1_555
S8A Cd2 1_555 1_555
N8A Cd2 1_555 1_555
Cd1A S3 1_555 1_555
Cd2A S8 1_555 1_555
Cd1A_2 N2 1_555 1_555
Cd2A_2 N8 1_555 1_555
N3 C3 1_555 1_555
N4 C3 1_555 1_555
N5 C10 1_555 1_555
N6 C10 1_555 1_555
N9 C19 1_555 1_555
N10 C19 1_555 1_555
N11 C26 1_555 1_555
N12 C26 1_555 1_555
C8 C9 1_555 1_555
C15 C16 1_555 1_555
C24 C25 1_555 1_555
C31 C32 1_555 1_555
S3A Cd1A 1_555 1_555
S8A Cd2A 1_555 1_555

#END
