
#######################################################################
#
#                 Cambridge Crystallographic Data Centre
#                                CCDC 
#
#######################################################################
#
# If this CIF has been generated from an entry in the Cambridge 
# Structural Database, then it will include bibliographic, chemical, 
# crystal, experimental, refinement or atomic coordinate data resulting 
# from the CCDC's data processing and validation procedures.
#
#######################################################################

data_XOMSIC
_symmetry_cell_setting           triclinic
_symmetry_space_group_name_H-M   'P -1'
_symmetry_Int_Tables_number      2
_space_group_name_Hall           '-P 1'
loop_
_symmetry_equiv_pos_site_id
_symmetry_equiv_pos_as_xyz
1 x,y,z
2 -x,-y,-z
_cell_length_a                   8.2010(6)
_cell_length_b                   9.9860(7)
_cell_length_c                   16.9860(13)
_cell_angle_alpha                84.237(3)
_cell_angle_beta                 88.146(3)
_cell_angle_gamma                89.254(3)
_cell_volume                     1383.25
loop_
_atom_site_label
_atom_site_type_symbol
_atom_site_fract_x
_atom_site_fract_y
_atom_site_fract_z
C1 C 0.3489(15) 0.2569(13) 0.1657(9)
C2 C 0.3485(15) 0.2908(14) 0.3181(8)
C3 C 0.1520(17) 0.1211(12) 0.2668(8)
C4 C 0.2618(18) 0.0220(14) 0.4356(10)
C5 C 0.1330(19) -0.1471(14) 0.3318(9)
C6 C 0.4076(16) -0.2052(15) 0.4054(8)
C7 C 0.247(2) -0.0615(14) 0.1551(10)
C8 C 0.4335(17) -0.2584(14) 0.2316(8)
C9 C 0.5656(18) -0.0936(14) 0.1200(11)
C10 C 0.6576(14) 0.2827(12) 0.0028(7)
H1 H 0.5450 0.2917 -0.0009
C11 C 0.7577(15) 0.3500(12) -0.0545(8)
H2 H 0.7117 0.4044 -0.0958
C12 C 0.9277(15) 0.3373(11) -0.0513(7)
C13 C 0.9848(16) 0.2493(12) 0.0105(8)
H3 H 1.0964 0.2325 0.0136
C14 C 0.8824(16) 0.1873(13) 0.0664(8)
H4 H 0.9260 0.1312 0.1076
C15 C 1.2922(15) 0.5216(12) -0.1468(7)
H5 H 1.4015 0.5319 -0.1359
C16 C 1.1981(14) 0.4403(12) -0.0938(7)
H6 H 1.2415 0.4016 -0.0468
C17 C 1.0362(13) 0.4165(11) -0.1115(7)
C18 C 0.9798(15) 0.4752(13) -0.1808(8)
H7 H 0.8747 0.4585 -0.1961
C19 C 1.0832(16) 0.5618(13) -0.2292(8)
H8 H 1.0421 0.6044 -0.2758
C20 C 0.8510(16) 0.2687(13) 0.4222(7)
H9 H 0.8683 0.1749 0.4163
C21 C 0.9603(15) 0.3304(11) 0.4682(7)
H10 H 1.0483 0.2793 0.4928
C22 C 0.9418(15) 0.4635(13) 0.4786(7)
C23 C 0.8054(17) 0.5282(14) 0.4466(8)
H11 H 0.7853 0.6205 0.4553
C24 C 0.7007(17) 0.4609(13) 0.4012(8)
H12 H 0.6071 0.5085 0.3796
Fe1 Fe 0.3642(2) 0.15867(17) 0.25657(10)
Fe2 Fe 0.3222(2) -0.06546(18) 0.34992(11)
Fe3 Fe 0.4362(2) -0.08263(17) 0.20426(11)
Te1 Te 0.60428(10) 0.00987(8) 0.30695(5)
N1 N 0.7194(13) 0.2043(10) 0.0639(6)
N2 N 1.2360(13) 0.5862(10) -0.2124(6)
N3 N 0.7250(12) 0.3332(10) 0.3863(6)
O1 O 0.3180(11) 0.3257(9) 0.1080(6)
O2 O 0.3166(12) 0.3733(10) 0.3599(6)
O3 O 0.0141(11) 0.1195(9) 0.2658(6)
O4 O 0.2255(16) 0.0739(12) 0.4903(7)
O5 O 0.0191(13) -0.2059(12) 0.3224(8)
O6 O 0.4586(13) -0.3012(10) 0.4430(6)
O7 O 0.1287(14) -0.0566(12) 0.1207(8)
O8 O 0.4330(13) -0.3728(10) 0.2445(6)
O9 O 0.6457(16) -0.1197(11) 0.0643(8)
Cu1 Cu 0.57870(19) 0.12868(15) 0.15266(10)
Cu2 Cu 0.63515(19) 0.27230(15) 0.28336(9)
C1A C 1.6511(15) 0.7431(13) -0.1657(9)
C2A C 1.6515(15) 0.7092(14) -0.3181(8)
C3A C 1.8480(17) 0.8789(12) -0.2668(8)
C4A C 1.7382(18) 0.9780(14) -0.4356(10)
C5A C 1.8670(19) 1.1471(14) -0.3318(9)
C6A C 1.5924(16) 1.2052(15) -0.4054(8)
C7A C 1.753(2) 1.0615(14) -0.1551(10)
C8A C 1.5665(17) 1.2584(14) -0.2316(8)
C9A C 1.4344(18) 1.0936(14) -0.1200(11)
C10A C 1.3424(14) 0.7173(12) -0.0028(7)
H1A H 1.4550 0.7083 0.0009
C11A C 1.2423(15) 0.6500(12) 0.0545(8)
H2A H 1.2883 0.5956 0.0958
C12A C 1.0723(15) 0.6627(11) 0.0513(7)
C13A C 1.0152(16) 0.7507(12) -0.0105(8)
H3A H 0.9036 0.7675 -0.0136
C14A C 1.1176(16) 0.8127(13) -0.0664(8)
H4A H 1.0740 0.8688 -0.1076
C15A C 0.7078(15) 0.4784(12) 0.1468(7)
H5A H 0.5985 0.4681 0.1359
C16A C 0.8019(14) 0.5597(12) 0.0938(7)
H6A H 0.7585 0.5984 0.0468
C17A C 0.9638(13) 0.5835(11) 0.1115(7)
C18A C 1.0202(15) 0.5248(13) 0.1808(8)
H7A H 1.1253 0.5415 0.1961
C19A C 0.9168(16) 0.4382(13) 0.2292(8)
H8A H 0.9579 0.3956 0.2758
C20A C 1.1490(16) 0.7313(13) 0.5778(7)
H9A H 1.1317 0.8251 0.5837
C21A C 1.0397(15) 0.6696(11) 0.5318(7)
H10A H 0.9517 0.7207 0.5072
C22A C 1.0582(15) 0.5365(13) 0.5214(7)
C23A C 1.1946(17) 0.4718(14) 0.5534(8)
H11A H 1.2147 0.3795 0.5447
C24A C 1.2993(17) 0.5391(13) 0.5988(8)
H12A H 1.3929 0.4915 0.6204
Fe1A Fe 1.6358(2) 0.84133(17) -0.25657(10)
Fe2A Fe 1.6778(2) 1.06546(18) -0.34992(11)
Fe3A Fe 1.5638(2) 1.08263(17) -0.20426(11)
Te1A Te 1.39572(10) 0.99013(8) -0.30695(5)
N1A N 1.2806(13) 0.7957(10) -0.0639(6)
N2A N 0.7640(13) 0.4138(10) 0.2124(6)
N3A N 1.2750(12) 0.6668(10) 0.6137(6)
N3A_2 N 1.2750(12) 0.6668(10) -0.3863(6)
O1A O 1.6820(11) 0.6743(9) -0.1080(6)
O2A O 1.6834(12) 0.6267(10) -0.3599(6)
O3A O 1.9859(11) 0.8805(9) -0.2658(6)
O4A O 1.7745(16) 0.9261(12) -0.4903(7)
O5A O 1.9809(13) 1.2059(12) -0.3224(8)
O6A O 1.5414(13) 1.3012(10) -0.4430(6)
O7A O 1.8713(14) 1.0566(12) -0.1207(8)
O8A O 1.5670(13) 1.3728(10) -0.2445(6)
O9A O 1.3543(16) 1.1197(11) -0.0643(8)
Cu1A Cu 1.42130(19) 0.87132(15) -0.15266(10)
Cu2A Cu 1.36485(19) 0.72770(15) -0.28336(9)
Cu2A_2 Cu 1.36485(19) 0.72770(15) 0.71664(9)
loop_
_geom_bond_atom_site_label_1
_geom_bond_atom_site_label_2
_geom_bond_site_symmetry_1
_geom_bond_site_symmetry_2
C1 Fe1 1_555 1_555
C2 Fe1 1_555 1_555
C3 Fe1 1_555 1_555
C4 Fe2 1_555 1_555
C5 Fe2 1_555 1_555
C6 Fe2 1_555 1_555
C7 Fe3 1_555 1_555
C8 Fe3 1_555 1_555
C9 Fe3 1_555 1_555
C10 H1 1_555 1_555
C11 C10 1_555 1_555
H2 C11 1_555 1_555
C12 C11 1_555 1_555
C13 C12 1_555 1_555
H3 C13 1_555 1_555
C14 C13 1_555 1_555
H4 C14 1_555 1_555
C15 H5 1_555 1_555
C16 C15 1_555 1_555
H6 C16 1_555 1_555
C17 C12 1_555 1_555
C18 C17 1_555 1_555
H7 C18 1_555 1_555
C19 C18 1_555 1_555
H8 C19 1_555 1_555
C20 H9 1_555 1_555
C21 C20 1_555 1_555
H10 C21 1_555 1_555
C22 C21 1_555 1_555
C23 C22 1_555 1_555
H11 C23 1_555 1_555
C24 C23 1_555 1_555
H12 C24 1_555 1_555
Fe1 Fe2 1_555 1_555
Fe2 Fe3 1_555 1_555
Fe3 Fe1 1_555 1_555
Te1 Fe1 1_555 1_555
N1 C10 1_555 1_555
N2 C15 1_555 1_555
N3 C20 1_555 1_555
O1 C1 1_555 1_555
O2 C2 1_555 1_555
O3 C3 1_555 1_555
O4 C4 1_555 1_555
O5 C5 1_555 1_555
O6 C6 1_555 1_555
O7 C7 1_555 1_555
O8 C8 1_555 1_555
O9 C9 1_555 1_555
Cu1 Fe1 1_555 1_555
Cu2 Fe1 1_555 1_555
C1A Fe1A 1_555 1_555
C2A Fe1A 1_555 1_555
C3A Fe1A 1_555 1_555
C4A Fe2A 1_555 1_555
C5A Fe2A 1_555 1_555
C6A Fe2A 1_555 1_555
C7A Fe3A 1_555 1_555
C8A Fe3A 1_555 1_555
C9A Fe3A 1_555 1_555
C10A H1A 1_555 1_555
C11A C10A 1_555 1_555
H2A C11A 1_555 1_555
C12A C11A 1_555 1_555
C13A C12A 1_555 1_555
H3A C13A 1_555 1_555
C14A C13A 1_555 1_555
H4A C14A 1_555 1_555
C15A H5A 1_555 1_555
C16A C15A 1_555 1_555
H6A C16A 1_555 1_555
C17A C12A 1_555 1_555
C18A C17A 1_555 1_555
H7A C18A 1_555 1_555
C19A C18A 1_555 1_555
H8A C19A 1_555 1_555
C20A H9A 1_555 1_555
C21A C20A 1_555 1_555
H10A C21A 1_555 1_555
C22A C22 1_555 1_555
C23A C22A 1_555 1_555
H11A C23A 1_555 1_555
C24A C23A 1_555 1_555
H12A C24A 1_555 1_555
Fe1A Fe2A 1_555 1_555
Fe2A Fe3A 1_555 1_555
Fe3A Fe1A 1_555 1_555
Te1A Fe1A 1_555 1_555
N1A C10A 1_555 1_555
N2A Cu2 1_555 1_555
N3A C20A 1_555 1_555
N3A_2 Cu2A 1_555 1_555
O1A C1A 1_555 1_555
O2A C2A 1_555 1_555
O3A C3A 1_555 1_555
O4A C4A 1_555 1_555
O5A C5A 1_555 1_555
O6A C6A 1_555 1_555
O7A C7A 1_555 1_555
O8A C8A 1_555 1_555
O9A C9A 1_555 1_555
Cu1A Fe1A 1_555 1_555
Cu2A N2 1_555 1_555
Cu2A_2 N3A 1_555 1_555
C14 N1 1_555 1_555
C16 C17 1_555 1_555
C19 N2 1_555 1_555
C24 N3 1_555 1_555
Fe2 Te1 1_555 1_555
Fe3 Te1 1_555 1_555
Fe3 Cu1 1_555 1_555
Te1 Cu1 1_555 1_555
Te1 Cu2 1_555 1_555
N1 Cu1 1_555 1_555
N3 Cu2 1_555 1_555
Cu1 Cu2 1_555 1_555
C14A N1A 1_555 1_555
C15A N2A 1_555 1_555
C16A C17A 1_555 1_555
C19A N2A 1_555 1_555
C21A C22A 1_555 1_555
C24A N3A 1_555 1_555
Fe1A Cu2A 1_555 1_555
Fe2A Te1A 1_555 1_555
Fe3A Te1A 1_555 1_555
Fe3A Cu1A 1_555 1_555
Te1A Cu1A 1_555 1_555
Te1A Cu2A 1_555 1_555
N1A Cu1A 1_555 1_555
Cu1A Cu2A 1_555 1_555

#END
