
#######################################################################
#
#                 Cambridge Crystallographic Data Centre
#                                CCDC 
#
#######################################################################
#
# If this CIF has been generated from an entry in the Cambridge 
# Structural Database, then it will include bibliographic, chemical, 
# crystal, experimental, refinement or atomic coordinate data resulting 
# from the CCDC's data processing and validation procedures.
#
#######################################################################

data_XOMSUP
_symmetry_cell_setting           tetragonal
_symmetry_space_group_name_H-M   'P -4 2 c'
_symmetry_Int_Tables_number      112
_space_group_name_Hall           'P -4 2c'
loop_
_symmetry_equiv_pos_site_id
_symmetry_equiv_pos_as_xyz
1 x,y,z
2 y,-x,-z
3 -x,-y,z
4 -y,x,-z
5 x,-y,1/2-z
6 -x,y,1/2-z
7 -y,-x,1/2+z
8 y,x,1/2+z
_cell_length_a                   10.74540(10)
_cell_length_b                   10.74540(10)
_cell_length_c                   14.4927(5)
_cell_angle_alpha                90
_cell_angle_beta                 90
_cell_angle_gamma                90
_cell_volume                     1673.38
loop_
_atom_site_label
_atom_site_type_symbol
_atom_site_fract_x
_atom_site_fract_y
_atom_site_fract_z
In1 In 0.0000 0.0000 0.0000
C1 C 0.0819(7) -0.2111(8) 0.0485(8)
C2 C 0.1263(7) -0.3430(8) 0.0777(9)
O1 O 0.0775(6) -0.1960(6) -0.0352(6)
C3 C 0.2031(6) -0.5811(10) 0.1267(11)
H1 H 0.2306 -0.6616 0.1445
O2 O 0.0516(5) -0.1407(7) 0.1120(6)
C4 C 0.1348(6) -0.3709(8) 0.1687(9)
H2 H 0.1168 -0.3085 0.2132
C5 C 0.1696(5) -0.4896(10) 0.1982(8)
C6 C 0.1586(8) -0.4299(10) 0.0140(10)
H3 H 0.1567 -0.4080 -0.0495
C7 C 0.1954(10) -0.5531(12) 0.0390(10)
H4 H 0.2138 -0.6133 -0.0070
C1D C 0.0819(7) -0.7889(8) 0.4515(8)
C2D C 0.1263(7) -0.6570(8) 0.4223(9)
O1D O 0.0775(6) -0.8040(6) 0.5352(6)
C3D C 0.2031(6) -0.4189(10) 0.3733(11)
H1D H 0.2306 -0.3384 0.3555
O2D O 0.0516(5) -0.8593(7) 0.3880(6)
C4D C 0.1348(6) -0.6291(8) 0.3313(9)
H2D H 0.1168 -0.6915 0.2868
C5D C 0.1696(5) -0.5104(10) 0.3018(8)
C6D C 0.1586(8) -0.5701(10) 0.4860(10)
H3D H 0.1567 -0.5920 0.5495
C7D C 0.1954(10) -0.4469(12) 0.4610(10)
H4D H 0.2138 -0.3867 0.5070
C1A C -0.2111(8) -0.0819(7) -0.0485(8)
C2A C -0.3430(8) -0.1263(7) -0.0777(9)
O1A O -0.1960(6) -0.0775(6) 0.0352(6)
C3A C -0.5811(10) -0.2031(6) -0.1267(11)
H1A H -0.6616 -0.2306 -0.1445
O2A O -0.1407(7) -0.0516(5) -0.1120(6)
C4A C -0.3709(8) -0.1348(6) -0.1687(9)
H2A H -0.3085 -0.1168 -0.2132
C5A C -0.4896(10) -0.1696(5) -0.1982(8)
C6A C -0.4299(10) -0.1586(8) -0.0140(10)
H3A H -0.4080 -0.1567 0.0495
C7A C -0.5531(12) -0.1954(10) -0.0390(10)
H4A H -0.6133 -0.2138 0.0070
C1F C -0.7889(8) -0.0819(7) -0.4515(8)
C2F C -0.6570(8) -0.1263(7) -0.4223(9)
O1F O -0.8040(6) -0.0775(6) -0.5352(6)
C3F C -0.4189(10) -0.2031(6) -0.3733(11)
H1F H -0.3384 -0.2306 -0.3555
O2F O -0.8593(7) -0.0516(5) -0.3880(6)
C4F C -0.6291(8) -0.1348(6) -0.3313(9)
H2F H -0.6915 -0.1168 -0.2868
C5F C -0.5104(10) -0.1696(5) -0.3018(8)
C6F C -0.5701(10) -0.1586(8) -0.4860(10)
H3F H -0.5920 -0.1567 -0.5495
C7F C -0.4469(12) -0.1954(10) -0.4610(10)
H4F H -0.3867 -0.2138 -0.5070
In1D In -1.0000 0.0000 -0.5000
In1D_2 In 0.0000 -1.0000 0.5000
O1B O -0.0775(6) 0.1960(6) -0.0352(6)
O1C O 0.1960(6) 0.0775(6) 0.0352(6)
O2B O -0.0516(5) 0.1407(7) 0.1120(6)
O2C O 0.1407(7) 0.0516(5) -0.1120(6)
loop_
_geom_bond_atom_site_label_1
_geom_bond_atom_site_label_2
_geom_bond_site_symmetry_1
_geom_bond_site_symmetry_2
In1 O1 1_555 1_555
C1 C2 1_555 1_555
C2 C4 1_555 1_555
O1 C1 1_555 1_555
C3 H1 1_555 1_555
O2 In1 1_555 1_555
C4 H2 1_555 1_555
C5 C3 1_555 1_555
C6 C2 1_555 1_555
H3 C6 1_555 1_555
C7 C3 1_555 1_555
H4 C7 1_555 1_555
C1D C2D 1_555 1_555
C2D C4D 1_555 1_555
O1D C1D 1_555 1_555
C3D H1D 1_555 1_555
O2D C1D 1_555 1_555
C4D H2D 1_555 1_555
C5D C5 1_555 1_555
C6D C2D 1_555 1_555
H3D C6D 1_555 1_555
C7D C3D 1_555 1_555
H4D C7D 1_555 1_555
C1A C2A 1_555 1_555
C2A C4A 1_555 1_555
O1A In1 1_555 1_555
C3A H1A 1_555 1_555
O2A In1 1_555 1_555
C4A H2A 1_555 1_555
C5A C3A 1_555 1_555
C6A C2A 1_555 1_555
H3A C6A 1_555 1_555
C7A C3A 1_555 1_555
H4A C7A 1_555 1_555
C1F C2F 1_555 1_555
C2F C4F 1_555 1_555
O1F C1F 1_555 1_555
C3F H1F 1_555 1_555
O2F C1F 1_555 1_555
C4F H2F 1_555 1_555
C5F C5A 1_555 1_555
C6F C2F 1_555 1_555
H3F C6F 1_555 1_555
C7F C3F 1_555 1_555
H4F C7F 1_555 1_555
In1D O1F 1_555 1_555
In1D_2 O1D 1_555 1_555
O1B In1 1_555 1_555
O1C In1 1_555 1_555
O2B In1 1_555 1_555
O2C In1 1_555 1_555
C1 O2 1_555 1_555
C4 C5 1_555 1_555
C6 C7 1_555 1_555
C3D C5D 1_555 1_555
O2D In1D_2 1_555 1_555
C4D C5D 1_555 1_555
C6D C7D 1_555 1_555
C1A O1A 1_555 1_555
C1A O2A 1_555 1_555
C4A C5A 1_555 1_555
C6A C7A 1_555 1_555
C3F C5F 1_555 1_555
O2F In1D 1_555 1_555
C4F C5F 1_555 1_555
C6F C7F 1_555 1_555

#END
