
#######################################################################
#
#                 Cambridge Crystallographic Data Centre
#                                CCDC 
#
#######################################################################
#
# If this CIF has been generated from an entry in the Cambridge 
# Structural Database, then it will include bibliographic, chemical, 
# crystal, experimental, refinement or atomic coordinate data resulting 
# from the CCDC's data processing and validation procedures.
#
#######################################################################

data_XOMSUN01
_symmetry_cell_setting           triclinic
_symmetry_space_group_name_H-M   'P -1'
_symmetry_Int_Tables_number      2
_space_group_name_Hall           '-P 1'
loop_
_symmetry_equiv_pos_site_id
_symmetry_equiv_pos_as_xyz
1 x,y,z
2 -x,-y,-z
_cell_length_a                   9.2233(5)
_cell_length_b                   14.5850(8)
_cell_length_c                   16.7849(9)
_cell_angle_alpha                70.903(4)
_cell_angle_beta                 84.598(4)
_cell_angle_gamma                72.041(4)
_cell_volume                     2029.66
loop_
_atom_site_label
_atom_site_type_symbol
_atom_site_fract_x
_atom_site_fract_y
_atom_site_fract_z
Cd1 Cd 0.76860(1) 0.07041(1) 0.52541(1)
S1 S 0.94045(5) 0.02904(3) 0.39450(2)
S2 S 0.73561(5) -0.12579(3) 0.60498(3)
S3 S 0.65966(6) 0.09402(4) 0.66653(3)
S4 S 0.91654(7) 0.37122(4) 0.34605(3)
N1 N 0.83716(19) -0.12670(12) 0.40689(9)
N2 N 0.96374(19) -0.06794(12) 0.28479(9)
N3 N 0.6970(2) 0.27863(13) 0.62275(10)
N4 N 0.6481(2) 0.20669(13) 0.76137(10)
N5 N 0.45247(19) -0.11078(13) 0.54524(10)
N6 N 0.8217(2) 0.22529(14) 0.46638(10)
C1 C 0.91149(19) -0.06313(13) 0.35962(10)
C2 C 0.8109(2) -0.20778(14) 0.38644(11)
C3 C 0.7502(2) -0.19149(15) 0.30868(12)
C4 C 0.7316(2) -0.27231(17) 0.28914(13)
C5 C 0.7678(3) -0.36780(18) 0.34792(16)
C6 C 0.8215(3) -0.38270(18) 0.42698(16)
C7 C 0.8445(3) -0.30301(16) 0.44653(13)
C8 C 0.5688(2) -0.11529(14) 0.56915(10)
C9 C 0.6699(2) 0.20137(14) 0.68390(11)
C10 C 0.6928(2) 0.37370(14) 0.63244(11)
C11 C 0.5652(3) 0.45646(18) 0.60542(16)
C12 C 0.5615(3) 0.5484(2) 0.6131(2)
C13 C 0.6827(3) 0.55844(18) 0.64752(16)
C14 C 0.8089(3) 0.47606(18) 0.67510(15)
C15 C 0.8147(3) 0.38273(17) 0.66753(14)
C16 C 0.8604(2) 0.28232(15) 0.41795(13)
H1 H 0.80090 -0.11800 0.45510
H2 H 0.94960 -0.11380 0.26540
H3 H 1.01270 -0.02530 0.25430
H4 H 0.72140 -0.12520 0.26910
H5 H 0.71910 0.27120 0.57260
H6 H 0.69390 -0.26200 0.23510
H7 H 0.65170 0.26120 0.77200
H8 H 0.63010 0.15570 0.80240
H9 H 0.75590 -0.42340 0.33430
H10 H 0.84260 -0.44810 0.46810
H11 H 0.88280 -0.31350 0.50040
H12 H 0.48080 0.45000 0.58170
H13 H 0.47410 0.60540 0.59430
H14 H 0.67930 0.62220 0.65230
H15 H 0.89240 0.48280 0.69940
H16 H 0.90210 0.32580 0.68640
Cd1A Cd 1.23140(1) -0.07041(1) 0.47459(1)
Cd1A_2 Cd 0.23140(1) -0.07041(1) 0.47459(1)
S1A S 1.05955(5) -0.02904(3) 0.60550(2)
N5A N 0.54753(19) 0.11078(13) 0.45476(10)
Cd2 Cd 0.74311(1) 0.92371(1) -0.00021(1)
S5 S 0.52059(5) 0.97391(3) 0.10719(2)
S6 S 0.96797(5) 0.83610(3) 0.12119(3)
S7 S 0.93197(5) 0.89275(3) -0.12112(3)
S8 S 0.52579(7) 0.63504(4) 0.12786(3)
N7 N 0.63864(17) 1.11168(12) 0.12480(9)
N8 N 0.41267(17) 1.10139(12) 0.19299(9)
N9 N 0.89793(19) 0.70873(12) -0.08641(10)
N10 N 0.98532(19) 0.77717(12) -0.21834(9)
N11 N 1.19133(18) 0.92392(12) 0.03326(10)
N12 N 0.66370(18) 0.77912(12) 0.03866(10)
C17 C 0.52487(19) 1.07019(13) 0.14442(10)
C18 C 0.64481(19) 1.19393(13) 0.15164(11)
C19 C 0.6531(2) 1.28384(15) 0.09170(11)
C20 C 0.6499(2) 1.36515(15) 0.11746(13)
C21 C 0.6379(2) 1.35814(14) 0.20184(13)
C22 C 0.6342(2) 1.26727(14) 0.26160(12)
C23 C 0.6391(2) 1.18444(14) 0.23671(11)
C24 C 1.0982(2) 0.88797(13) 0.06918(10)
C25 C 0.93880(19) 0.78403(13) -0.14321(10)
C26 C 0.8910(2) 0.61738(13) -0.09873(11)
C27 C 0.7523(2) 0.59680(15) -0.08746(13)
C28 C 0.7441(3) 0.50664(16) -0.09474(14)
C29 C 0.8730(3) 0.43798(16) -0.11375(14)
C30 C 1.0097(2) 0.46001(15) -0.12555(14)
C31 C 1.0201(2) 0.54886(15) -0.11754(13)
C32 C 0.6059(2) 0.72127(14) 0.07515(11)
H17 H 0.71360 1.08740 0.09390
H18 H 0.41230 1.15030 0.21290
H19 H 0.33810 1.07330 0.20550
H20 H 0.87260 0.71550 -0.03630
H21 H 0.98940 0.72250 -0.23100
H22 H 1.01230 0.82730 -0.25580
H23 H 0.66100 1.28940 0.03360
H24 H 0.65590 1.42680 0.07660
H25 H 0.63230 1.41530 0.21870
H26 H 0.62820 1.26150 0.31980
H27 H 0.63850 1.12170 0.27770
H28 H 0.66360 0.64400 -0.07490
H29 H 0.64950 0.49170 -0.08660
H30 H 0.86690 0.37620 -0.11860
H31 H 1.09790 0.41350 -0.13940
H32 H 1.11520 0.56300 -0.12490
Cd2A Cd 0.25689(1) 1.07629(1) 0.00021(1)
Cd2A_2 Cd 1.25689(1) 1.07629(1) 0.00021(1)
S5A S 0.47941(5) 1.02609(3) -0.10719(2)
N11A N 0.80867(18) 1.07608(12) -0.03326(10)
loop_
_geom_bond_atom_site_label_1
_geom_bond_atom_site_label_2
_geom_bond_site_symmetry_1
_geom_bond_site_symmetry_2
Cd1 S1 1_555 1_555
S1 C1 1_555 1_555
S2 Cd1 1_555 1_555
S3 Cd1 1_555 1_555
S4 C16 1_555 1_555
N1 C1 1_555 1_555
N2 C1 1_555 1_555
N3 C9 1_555 1_555
N4 C9 1_555 1_555
N5 C8 1_555 1_555
N6 Cd1 1_555 1_555
C2 N1 1_555 1_555
C3 C2 1_555 1_555
C4 C3 1_555 1_555
C5 C4 1_555 1_555
C6 C5 1_555 1_555
C7 C2 1_555 1_555
C8 S2 1_555 1_555
C9 S3 1_555 1_555
C10 N3 1_555 1_555
C11 C10 1_555 1_555
C12 C11 1_555 1_555
C13 C12 1_555 1_555
C14 C13 1_555 1_555
C15 C10 1_555 1_555
C16 N6 1_555 1_555
Cd2 S5 1_555 1_555
S5 C17 1_555 1_555
S6 Cd2 1_555 1_555
S7 Cd2 1_555 1_555
S8 C32 1_555 1_555
N7 C17 1_555 1_555
N8 C17 1_555 1_555
N9 C25 1_555 1_555
N10 C25 1_555 1_555
N11 C24 1_555 1_555
N12 Cd2 1_555 1_555
C18 N7 1_555 1_555
C19 C18 1_555 1_555
C20 C19 1_555 1_555
C21 C20 1_555 1_555
C22 C21 1_555 1_555
C23 C18 1_555 1_555
C24 S6 1_555 1_555
C25 S7 1_555 1_555
C26 N9 1_555 1_555
C27 C26 1_555 1_555
C28 C27 1_555 1_555
C29 C28 1_555 1_555
C30 C29 1_555 1_555
C31 C26 1_555 1_555
C32 N12 1_555 1_555
H1 N1 1_555 1_555
H2 N2 1_555 1_555
H3 N2 1_555 1_555
H4 C3 1_555 1_555
H5 N3 1_555 1_555
H6 C4 1_555 1_555
H7 N4 1_555 1_555
H8 N4 1_555 1_555
H9 C5 1_555 1_555
H10 C6 1_555 1_555
H11 C7 1_555 1_555
H12 C11 1_555 1_555
H13 C12 1_555 1_555
H14 C13 1_555 1_555
H15 C14 1_555 1_555
H16 C15 1_555 1_555
H17 N7 1_555 1_555
H18 N8 1_555 1_555
H19 N8 1_555 1_555
H20 N9 1_555 1_555
H21 N10 1_555 1_555
H22 N10 1_555 1_555
H23 C19 1_555 1_555
H24 C20 1_555 1_555
H25 C21 1_555 1_555
H26 C22 1_555 1_555
H27 C23 1_555 1_555
H28 C27 1_555 1_555
H29 C28 1_555 1_555
H30 C29 1_555 1_555
H31 C30 1_555 1_555
H32 C31 1_555 1_555
Cd1A S1 1_555 1_555
Cd1A_2 N5 1_555 1_555
S1A Cd1 1_555 1_555
N5A Cd1 1_555 1_555
Cd2A S5 1_555 1_555
Cd2A_2 N11 1_555 1_555
S5A Cd2 1_555 1_555
N11A Cd2 1_555 1_555
C6 C7 1_555 1_555
C14 C15 1_555 1_555
C22 C23 1_555 1_555
C30 C31 1_555 1_555
Cd1A S1A 1_555 1_555
Cd2A S5A 1_555 1_555

#END
