
#######################################################################
#
#                 Cambridge Crystallographic Data Centre
#                                CCDC 
#
#######################################################################
#
# If this CIF has been generated from an entry in the Cambridge 
# Structural Database, then it will include bibliographic, chemical, 
# crystal, experimental, refinement or atomic coordinate data resulting 
# from the CCDC's data processing and validation procedures.
#
#######################################################################

data_XOMTAW
_symmetry_cell_setting           monoclinic
_symmetry_space_group_name_H-M   'P 21/n'
_symmetry_Int_Tables_number      14
_space_group_name_Hall           '-P 2yn'
loop_
_symmetry_equiv_pos_site_id
_symmetry_equiv_pos_as_xyz
1 x,y,z
2 1/2-x,1/2+y,1/2-z
3 -x,-y,-z
4 1/2+x,1/2-y,1/2+z
_cell_length_a                   14.0612(2)
_cell_length_b                   16.1146(2)
_cell_length_c                   15.5087(2)
_cell_angle_alpha                90
_cell_angle_beta                 103.837(2)
_cell_angle_gamma                90
_cell_volume                     3412.15
loop_
_atom_site_label
_atom_site_type_symbol
_atom_site_fract_x
_atom_site_fract_y
_atom_site_fract_z
In1 In 0.761182(12) 0.360158(11) 0.652969(11)
O1 O 0.84327(16) 0.37959(14) 0.54570(13)
O2 O 0.69578(15) 0.43097(13) 0.52280(12)
O3 O 0.83553(15) 0.23308(12) 0.66232(13)
O4 O 0.38000(16) 0.60744(13) 0.32438(14)
O5 O 0.69108(14) 0.24935(13) 0.57185(13)
O6 O 0.38922(16) 0.11134(13) 0.26254(13)
C1 C 0.4673(2) 0.64933(17) 0.21877(19)
C2 C 0.5861(2) -0.12444(19) 0.4228(2)
H1 H 0.6338 -0.1601 0.4580
C3 C 0.3756(2) 0.0338(2) 0.25804(18)
C4 C 0.3787(2) 0.65349(18) 0.25639(19)
C5 C 0.6864(2) 0.08072(18) 0.51973(16)
H2 H 0.6264 0.1105 0.5076
C6 C 0.7643(2) 0.20421(18) 0.60316(18)
C7 C 0.6344(3) 0.63361(18) 0.1537(2)
H3 H 0.6909 0.6290 0.1306
C8 C 0.5048(2) -0.15849(19) 0.3655(2)
H4 H 0.4972 -0.2171 0.3623
C9 C 0.7081(2) 0.53183(18) 0.27690(18)
C10 C 0.6885(2) 0.00006(18) 0.48680(17)
C11 C 0.7076(2) 0.50292(17) 0.36170(17)
H5 H 0.6578 0.5216 0.3891
O7 O 0.30352(18) 0.00474(15) 0.20243(16)
C12 C 0.5441(2) 0.59802(17) 0.26003(17)
H6 H 0.5384 0.5679 0.3113
C13 C 0.4458(2) -0.02232(18) 0.31869(17)
C14 C 0.4335(2) -0.10791(18) 0.31196(18)
H7 H 0.3781 -0.1314 0.2721
C15 C 0.5271(2) 0.01205(17) 0.37761(16)
H8 H 0.5334 0.0707 0.3823
C16 C 0.7722(2) 0.41747(17) 0.49727(18)
C17 C 0.7705(2) 0.11772(19) 0.56975(18)
C18 C 0.7778(2) 0.44751(18) 0.40725(18)
C19 C 0.8599(2) 0.07649(19) 0.58594(18)
H9 H 0.9178 0.1029 0.6186
C20 C 0.4738(2) 0.69417(19) 0.14352(19)
H10 H 0.4221 0.7300 0.1150
C21 C 0.5995(2) -0.03831(17) 0.43000(17)
C22 C 0.8513(2) 0.4209(2) 0.3678(2)
H11 H 0.8995 0.3829 0.3980
C23 C 0.7829(2) 0.5050(2) 0.2402(2)
H12 H 0.7858 0.5245 0.1831
C24 C 0.6293(2) 0.58866(18) 0.22949(18)
C25 C 0.7798(2) -0.04164(18) 0.50516(19)
H13 H 0.7836 -0.0965 0.4838
C26 C 0.8639(2) -0.0031(2) 0.55409(19)
H14 H 0.9246 -0.0318 0.5657
C27 C 0.5571(3) 0.6856(2) 0.1111(2)
H15 H 0.5619 0.7152 0.0593
O8 O 0.30813(17) 0.69913(16) 0.22569(14)
C28 C 0.8542(3) 0.4499(2) 0.2848(2)
H16 H 0.9049 0.4323 0.2580
In1B In 0.238818(12) 0.639842(11) 0.347031(11)
In1C In 0.261182(12) 0.139842(11) 0.152969(11)
O4B O 0.62000(16) 0.39256(13) 0.67562(14)
O6C O 0.88922(16) 0.38866(13) 0.76254(13)
O7C O 0.80352(18) 0.49526(15) 0.70243(16)
O8B O 0.69187(17) 0.30087(16) 0.77431(14)
loop_
_geom_bond_atom_site_label_1
_geom_bond_atom_site_label_2
_geom_bond_site_symmetry_1
_geom_bond_site_symmetry_2
In1 O1 1_555 1_555
O1 C16 1_555 1_555
O2 In1 1_555 1_555
O3 In1 1_555 1_555
O4 C4 1_555 1_555
O5 In1 1_555 1_555
O6 C3 1_555 1_555
C1 C4 1_555 1_555
C2 H1 1_555 1_555
C3 O7 1_555 1_555
C4 O8 1_555 1_555
C5 H2 1_555 1_555
C6 O3 1_555 1_555
C7 H3 1_555 1_555
C8 C2 1_555 1_555
H4 C8 1_555 1_555
C9 C11 1_555 1_555
C10 C5 1_555 1_555
C11 H5 1_555 1_555
O7 In1C 1_555 1_555
C12 C1 1_555 1_555
H6 C12 1_555 1_555
C13 C3 1_555 1_555
C14 C8 1_555 1_555
H7 C14 1_555 1_555
C15 C13 1_555 1_555
H8 C15 1_555 1_555
C16 O2 1_555 1_555
C17 C5 1_555 1_555
C18 C11 1_555 1_555
C19 C17 1_555 1_555
H9 C19 1_555 1_555
C20 C1 1_555 1_555
H10 C20 1_555 1_555
C21 C2 1_555 1_555
C22 C18 1_555 1_555
H11 C22 1_555 1_555
C23 C9 1_555 1_555
H12 C23 1_555 1_555
C24 C7 1_555 1_555
C25 C10 1_555 1_555
H13 C25 1_555 1_555
C26 C19 1_555 1_555
H14 C26 1_555 1_555
C27 C7 1_555 1_555
H15 C27 1_555 1_555
O8 In1B 1_555 1_555
C28 C22 1_555 1_555
H16 C28 1_555 1_555
In1B O4 1_555 1_555
In1C O6 1_555 1_555
O4B In1 1_555 1_555
O6C In1 1_555 1_555
O7C In1 1_555 1_555
O8B In1 1_555 1_555
O5 C6 1_555 1_555
C6 C17 1_555 1_555
C9 C24 1_555 1_555
C10 C21 1_555 1_555
C12 C24 1_555 1_555
C13 C14 1_555 1_555
C15 C21 1_555 1_555
C16 C18 1_555 1_555
C20 C27 1_555 1_555
C23 C28 1_555 1_555
C25 C26 1_555 1_555

#END
