
#######################################################################
#
#                 Cambridge Crystallographic Data Centre
#                                CCDC 
#
#######################################################################
#
# If this CIF has been generated from an entry in the Cambridge 
# Structural Database, then it will include bibliographic, chemical, 
# crystal, experimental, refinement or atomic coordinate data resulting 
# from the CCDC's data processing and validation procedures.
#
#######################################################################

data_XOMTIE
_symmetry_cell_setting           triclinic
_symmetry_space_group_name_H-M   'P -1'
_symmetry_Int_Tables_number      2
_space_group_name_Hall           '-P 1'
loop_
_symmetry_equiv_pos_site_id
_symmetry_equiv_pos_as_xyz
1 x,y,z
2 -x,-y,-z
_cell_length_a                   7.9805(7)
_cell_length_b                   8.5298(8)
_cell_length_c                   14.3667(14)
_cell_angle_alpha                78.092(8)
_cell_angle_beta                 85.576(8)
_cell_angle_gamma                86.494(7)
_cell_volume                     953.048
loop_
_atom_site_label
_atom_site_type_symbol
_atom_site_fract_x
_atom_site_fract_y
_atom_site_fract_z
C1 C 0.204(4) 0.163(3) 0.690(3)
C2 C 0.212(5) 0.001(4) 0.731(3)
H1 H 0.1329 -0.0438 0.7786
C3 C 0.343(4) -0.089(3) 0.698(3)
H2 H 0.3536 -0.1983 0.7222
C4 C 0.471(4) -0.008(3) 0.622(3)
H3 H 0.5633 -0.0647 0.5993
C5 C 0.445(3) 0.141(3) 0.590(3)
H4 H 0.5209 0.1918 0.5423
C6 C -0.198(3) 0.052(3) 0.762(2)
H5 H -0.1876 0.0572 0.6969
C7 C -0.115(3) 0.158(2) 0.802(2)
C8 C -0.131(4) 0.151(3) 0.900(2)
H6 H -0.075 0.2218 0.9262
C9 C -0.231(5) 0.037(4) 0.9580(19)
H7 H -0.2415 0.0321 1.0235
C10 C -0.314(4) -0.069(4) 0.919(3)
H8 H -0.3811 -0.145 0.9575
C11 C -0.298(4) -0.061(4) 0.821(3)
H9 H -0.3542 -0.1325 0.7942
C12 C 0.026(3) 0.532(3) 0.827(2)
H10 H -0.0811 0.5574 0.8055
C13 C 0.122(3) 0.405(3) 0.799(2)
C14 C 0.282(3) 0.366(3) 0.831(2)
H11 H 0.3461 0.2814 0.813
C15 C 0.347(3) 0.454(3) 0.890(2)
H12 H 0.4543 0.4284 0.9117
C16 C 0.251(4) 0.581(3) 0.918(2)
H13 H 0.2948 0.64 0.9572
C17 C 0.091(4) 0.620(3) 0.886(2)
H14 H 0.0271 0.7045 0.9042
Cu1 Cu -0.0841(5) 0.4504(5) 0.5937(4)
Cu2 Cu 0.2981(5) 0.4684(5) 0.5535(4)
I1 I -0.0920(2) 0.2809(2) 0.4551(2)
I2 I 0.4000(2) 0.4593(2) 0.3668(2)
P1 P 0.0260(9) 0.2976(9) 0.7227(8)
N1 N 0.307(2) 0.237(3) 0.623(2)
Cu1A Cu 0.0841(5) 0.5496(5) 0.4063(4)
Cu2A Cu -0.2981(5) 0.5316(5) 0.4465(4)
Cu2A_2 Cu 0.7019(5) 0.5316(5) 0.4465(4)
I1A I 0.0920(2) 0.7191(2) 0.5449(2)
I2A I -0.4000(2) 0.5407(2) 0.6332(2)
I2A_2 I 0.6000(2) 0.5407(2) 0.6332(2)
loop_
_geom_bond_atom_site_label_1
_geom_bond_atom_site_label_2
_geom_bond_site_symmetry_1
_geom_bond_site_symmetry_2
C1 C2 1_555 1_555
C2 H1 1_555 1_555
C3 C2 1_555 1_555
H2 C3 1_555 1_555
C4 C3 1_555 1_555
H3 C4 1_555 1_555
C5 C4 1_555 1_555
H4 C5 1_555 1_555
C6 H5 1_555 1_555
C7 C6 1_555 1_555
C8 C7 1_555 1_555
H6 C8 1_555 1_555
C9 C8 1_555 1_555
H7 C9 1_555 1_555
C10 C9 1_555 1_555
H8 C10 1_555 1_555
C11 C6 1_555 1_555
H9 C11 1_555 1_555
C12 H10 1_555 1_555
C13 C12 1_555 1_555
C14 C13 1_555 1_555
H11 C14 1_555 1_555
C15 C14 1_555 1_555
H12 C15 1_555 1_555
C16 C15 1_555 1_555
H13 C16 1_555 1_555
C17 C12 1_555 1_555
H14 C17 1_555 1_555
Cu1 I1 1_555 1_555
Cu2 I2 1_555 1_555
I1 Cu1A 1_555 1_555
I2 Cu1A 1_555 1_555
P1 C1 1_555 1_555
N1 C1 1_555 1_555
Cu1A Cu2 1_555 1_555
Cu2A Cu1 1_555 1_555
Cu2A_2 I2 1_555 1_555
I1A Cu1 1_555 1_555
I2A Cu1 1_555 1_555
I2A_2 Cu2 1_555 1_555
C5 N1 1_555 1_555
C7 P1 1_555 1_555
C10 C11 1_555 1_555
C13 P1 1_555 1_555
C16 C17 1_555 1_555
Cu1 P1 1_555 1_555
Cu2 N1 1_555 1_555
Cu2 I1A 1_555 1_555
I1 Cu2A 1_555 1_555
Cu1A I1A 1_555 1_555
Cu2A I2A 1_555 1_555
Cu2A_2 I2A_2 1_555 1_555

#END
