
#######################################################################
#
#                 Cambridge Crystallographic Data Centre
#                                CCDC 
#
#######################################################################
#
# If this CIF has been generated from an entry in the Cambridge 
# Structural Database, then it will include bibliographic, chemical, 
# crystal, experimental, refinement or atomic coordinate data resulting 
# from the CCDC's data processing and validation procedures.
#
#######################################################################

data_XOMVAY
_symmetry_cell_setting           triclinic
_symmetry_space_group_name_H-M   'P -1'
_symmetry_Int_Tables_number      2
_space_group_name_Hall           '-P 1'
loop_
_symmetry_equiv_pos_site_id
_symmetry_equiv_pos_as_xyz
1 x,y,z
2 -x,-y,-z
_cell_length_a                   11.557(2)
_cell_length_b                   12.577(3)
_cell_length_c                   12.829(3)
_cell_angle_alpha                61.263(2)
_cell_angle_beta                 79.229(2)
_cell_angle_gamma                66.854(2)
_cell_volume                     1503.44
loop_
_atom_site_label
_atom_site_type_symbol
_atom_site_fract_x
_atom_site_fract_y
_atom_site_fract_z
C1 C 0.3017(4) 0.5560(4) 0.1797(3)
H1 H 0.3243 0.4665 0.2144
C2 C 0.2112(4) 0.6233(4) 0.2343(3)
H2 H 0.1733 0.5787 0.3035
C3 C 0.1766(3) 0.7546(4) 0.1879(3)
C4 C 0.2346(4) 0.8143(4) 0.0823(3)
H3 H 0.2126 0.9039 0.0447
C5 C 0.3246(4) 0.7407(4) 0.0333(3)
H4 H 0.3639 0.7830 -0.0361
C6 C 0.0802(3) 0.8285(4) 0.2465(3)
C7 C 0.0135(4) 0.9598(4) 0.1859(3)
H5 H 0.0286 1.0050 0.1055
C8 C -0.0756(4) 1.0241(4) 0.2441(3)
H6 H -0.1230 1.1113 0.2019
C9 C -0.0944(4) 0.9594(4) 0.3647(3)
H7 H -0.1530 1.0045 0.4030
C10 C -0.0284(3) 0.8296(4) 0.4292(3)
C11 C 0.0579(3) 0.7657(4) 0.3680(3)
H8 H 0.1024 0.6775 0.4099
C12 C -0.0413(3) 0.7589(4) 0.5600(3)
C13 C -0.0576(3) 0.8168(4) 0.6334(3)
H9 H -0.0696 0.9043 0.6003
C14 C -0.0557(3) 0.7443(4) 0.7546(3)
H10 H -0.0678 0.7857 0.8015
C15 C -0.0277(4) 0.5640(4) 0.7383(4)
H11 H -0.0191 0.4771 0.7736
C16 C -0.0295(4) 0.6295(4) 0.6163(3)
H12 H -0.0228 0.5871 0.5716
C17 C 0.1402(4) 0.2702(4) 0.9441(3)
C18 C 0.2583(3) 0.1993(4) 0.8961(3)
C19 C 0.2510(4) 0.1254(4) 0.8476(3)
H13 H 0.1739 0.1202 0.8438
C20 C 0.3590(4) 0.0582(4) 0.8042(3)
H14 H 0.3543 0.0085 0.7710
C21 C 0.4729(3) 0.0662(4) 0.8112(3)
C22 C 0.4804(4) 0.1400(4) 0.8594(3)
H15 H 0.5576 0.1443 0.8644
C23 C 0.3732(4) 0.2075(4) 0.9003(4)
H16 H 0.3779 0.2593 0.9310
C24 C 0.6175(3) 0.0873(3) 0.6071(3)
C25 C 0.5360(4) 0.1088(4) 0.5278(3)
H17 H 0.4758 0.0694 0.5545
C26 C 0.5436(4) 0.1895(4) 0.4075(3)
H18 H 0.4882 0.2047 0.3536
C27 C 0.6340(3) 0.2472(3) 0.3682(3)
C28 C 0.7063(3) 0.1450(4) 0.5691(3)
H19 H 0.7603 0.1309 0.6235
C29 C 0.7154(3) 0.2238(4) 0.4500(3)
H20 H 0.7766 0.2618 0.4240
C30 C 0.6459(4) 0.3321(4) 0.2372(3)
Co1 Co 0.5000 0.5000 0.0000
Co2 Co 0.0000 0.5000 1.0000
N1 N 0.3586(3) 0.6145(3) 0.0783(3)
N2 N -0.0375(3) 0.6172(3) 0.8096(3)
O1 O 0.0456(3) 0.2397(3) 0.9583(3)
O2 O 0.1457(2) 0.3573(3) 0.9643(2)
O3 O 0.5927(3) -0.1309(2) 0.7674(2)
O4 O 0.7169(2) -0.0382(3) 0.8177(2)
O5 O 0.5640(3) 0.3580(3) 0.1688(2)
O6 O 0.7366(3) 0.3691(4) 0.2077(2)
O7 O 0.1287(2) 0.5831(2) 0.9883(2)
H21 H 0.0847 0.6640 0.9915
H22 H 0.1734 0.5980 0.9145
O8 O 0.6147(3) 0.6120(3) -0.0312(3)
H23 H 0.6891 0.5651 -0.0221
S1 S 0.61093(9) -0.02035(9) 0.75991(8)
H24 H 0.608(5) 0.683(5) -0.089(5)
C1A C -0.3017(4) 0.4440(4) 1.8203(3)
H1A H -0.3243 0.5335 1.7856
C2A C -0.2112(4) 0.3767(4) 1.7657(3)
H2A H -0.1733 0.4213 1.6965
C3A C -0.1766(3) 0.2454(4) 1.8121(3)
C4A C -0.2346(4) 0.1857(4) 1.9177(3)
H3A H -0.2126 0.0961 1.9553
C5A C -0.3246(4) 0.2593(4) 1.9667(3)
H4A H -0.3639 0.2170 2.0361
C6A C -0.0802(3) 0.1715(4) 1.7535(3)
C7A C -0.0135(4) 0.0402(4) 1.8141(3)
H5A H -0.0286 -0.0050 1.8945
C8A C 0.0756(4) -0.0241(4) 1.7559(3)
H6A H 0.1230 -0.1113 1.7981
C9A C 0.0944(4) 0.0406(4) 1.6353(3)
H7A H 0.1530 -0.0045 1.5970
C10A C 0.0284(3) 0.1704(4) 1.5708(3)
C11A C -0.0579(3) 0.2343(4) 1.6320(3)
H8A H -0.1024 0.3225 1.5901
C12A C 0.0413(3) 0.2411(4) 1.4400(3)
C13A C 0.0576(3) 0.1832(4) 1.3666(3)
H9A H 0.0696 0.0957 1.3997
C14A C 0.0557(3) 0.2557(4) 1.2454(3)
H10A H 0.0678 0.2143 1.1985
C15A C 0.0277(4) 0.4360(4) 1.2617(4)
H11A H 0.0191 0.5229 1.2264
C16A C 0.0295(4) 0.3705(4) 1.3837(3)
H12A H 0.0228 0.4129 1.4284
C17A C -0.1402(4) 0.7298(4) 1.0559(3)
C18A C -0.2583(3) 0.8007(4) 1.1039(3)
C19A C -0.2510(4) 0.8746(4) 1.1524(3)
H13A H -0.1739 0.8798 1.1562
C20A C -0.3590(4) 0.9418(4) 1.1958(3)
H14A H -0.3543 0.9915 1.2290
C21A C -0.4729(3) 0.9338(4) 1.1888(3)
C22A C -0.4804(4) 0.8600(4) 1.1406(3)
H15A H -0.5576 0.8557 1.1356
C23A C -0.3732(4) 0.7925(4) 1.0997(4)
H16A H -0.3779 0.7407 1.0690
C24A C -0.6175(3) 0.9127(3) 1.3929(3)
C25A C -0.5360(4) 0.8912(4) 1.4722(3)
H17A H -0.4758 0.9306 1.4455
C26A C -0.5436(4) 0.8105(4) 1.5925(3)
H18A H -0.4882 0.7953 1.6464
C27A C -0.6340(3) 0.7528(3) 1.6318(3)
C28A C -0.7063(3) 0.8550(4) 1.4309(3)
H19A H -0.7603 0.8691 1.3765
C29A C -0.7154(3) 0.7762(4) 1.5500(3)
H20A H -0.7766 0.7382 1.5760
C30A C -0.6459(4) 0.6679(4) 1.7628(3)
N1A N -0.3586(3) 0.3855(3) 1.9217(3)
N2A N 0.0375(3) 0.3828(3) 1.1904(3)
O1A O -0.0456(3) 0.7603(3) 1.0417(3)
O2A O -0.1457(2) 0.6427(3) 1.0357(2)
O3A O -0.5927(3) 1.1309(2) 1.2326(2)
O4A O -0.7169(2) 1.0382(3) 1.1823(2)
O5A O -0.5640(3) 0.6420(3) 1.8312(2)
O6A O -0.7366(3) 0.6309(4) 1.7923(2)
O7A O -0.1287(2) 0.4169(2) 1.0117(2)
H21A H -0.0847 0.3360 1.0085
H22A H -0.1734 0.4020 1.0855
S1A S -0.61093(9) 1.02035(9) 1.24009(8)
O8A O 0.3853(3) 0.3880(3) 0.0312(3)
H23A H 0.3109 0.4349 0.0221
H24A H 0.392(5) 0.317(5) 0.089(5)
Co1_2 Co -0.5000 0.5000 2.0000
N1A_2 N 0.6414(3) 0.3855(3) -0.0783(3)
O5A_2 O 0.4360(3) 0.6420(3) -0.1688(2)
loop_
_geom_bond_atom_site_label_1
_geom_bond_atom_site_label_2
_geom_bond_site_symmetry_1
_geom_bond_site_symmetry_2
C1 H1 1_555 1_555
C2 C1 1_555 1_555
H2 C2 1_555 1_555
C3 C2 1_555 1_555
C4 C3 1_555 1_555
H3 C4 1_555 1_555
C5 C4 1_555 1_555
H4 C5 1_555 1_555
C6 C3 1_555 1_555
C7 C6 1_555 1_555
H5 C7 1_555 1_555
C8 C7 1_555 1_555
H6 C8 1_555 1_555
C9 C8 1_555 1_555
H7 C9 1_555 1_555
C10 C9 1_555 1_555
C11 C6 1_555 1_555
H8 C11 1_555 1_555
C12 C10 1_555 1_555
C13 C12 1_555 1_555
H9 C13 1_555 1_555
C14 C13 1_555 1_555
H10 C14 1_555 1_555
C15 H11 1_555 1_555
C16 C12 1_555 1_555
H12 C16 1_555 1_555
C17 C18 1_555 1_555
C18 C19 1_555 1_555
C19 H13 1_555 1_555
C20 C19 1_555 1_555
H14 C20 1_555 1_555
C21 C20 1_555 1_555
C22 C21 1_555 1_555
H15 C22 1_555 1_555
C23 C18 1_555 1_555
H16 C23 1_555 1_555
C24 C25 1_555 1_555
C25 H17 1_555 1_555
C26 C25 1_555 1_555
H18 C26 1_555 1_555
C27 C26 1_555 1_555
C28 C24 1_555 1_555
H19 C28 1_555 1_555
C29 C27 1_555 1_555
H20 C29 1_555 1_555
C30 C27 1_555 1_555
Co1 N1 1_555 1_555
Co2 N2 1_555 1_555
N1 C1 1_555 1_555
N2 C14 1_555 1_555
O1 C17 1_555 1_555
O2 C17 1_555 1_555
O3 S1 1_555 1_555
O4 S1 1_555 1_555
O5 C30 1_555 1_555
O6 C30 1_555 1_555
O7 Co2 1_555 1_555
H21 O7 1_555 1_555
H22 O7 1_555 1_555
O8 Co1 1_555 1_555
H23 O8 1_555 1_555
S1 C21 1_555 1_555
H24 O8 1_555 1_555
C1A H1A 1_555 1_555
C2A C1A 1_555 1_555
H2A C2A 1_555 1_555
C3A C2A 1_555 1_555
C4A C3A 1_555 1_555
H3A C4A 1_555 1_555
C5A C4A 1_555 1_555
H4A C5A 1_555 1_555
C6A C3A 1_555 1_555
C7A C6A 1_555 1_555
H5A C7A 1_555 1_555
C8A C7A 1_555 1_555
H6A C8A 1_555 1_555
C9A C8A 1_555 1_555
H7A C9A 1_555 1_555
C10A C9A 1_555 1_555
C11A C6A 1_555 1_555
H8A C11A 1_555 1_555
C12A C10A 1_555 1_555
C13A C12A 1_555 1_555
H9A C13A 1_555 1_555
C14A C13A 1_555 1_555
H10A C14A 1_555 1_555
C15A H11A 1_555 1_555
C16A C12A 1_555 1_555
H12A C16A 1_555 1_555
C17A C18A 1_555 1_555
C18A C19A 1_555 1_555
C19A H13A 1_555 1_555
C20A C19A 1_555 1_555
H14A C20A 1_555 1_555
C21A C20A 1_555 1_555
C22A C21A 1_555 1_555
H15A C22A 1_555 1_555
C23A C18A 1_555 1_555
H16A C23A 1_555 1_555
C24A C25A 1_555 1_555
C25A H17A 1_555 1_555
C26A C25A 1_555 1_555
H18A C26A 1_555 1_555
C27A C26A 1_555 1_555
C28A C24A 1_555 1_555
H19A C28A 1_555 1_555
C29A C27A 1_555 1_555
H20A C29A 1_555 1_555
C30A C27A 1_555 1_555
N1A C1A 1_555 1_555
N2A Co2 1_555 1_555
O1A C17A 1_555 1_555
O2A Co2 1_555 1_555
O3A S1A 1_555 1_555
O4A S1A 1_555 1_555
O5A C30A 1_555 1_555
O6A C30A 1_555 1_555
O7A Co2 1_555 1_555
H21A O7A 1_555 1_555
H22A O7A 1_555 1_555
S1A C21A 1_555 1_555
O8A Co1 1_555 1_555
H23A O8A 1_555 1_555
H24A O8A 1_555 1_555
Co1_2 N1A 1_555 1_555
N1A_2 Co1 1_555 1_555
O5A_2 Co1 1_555 1_555
C5 N1 1_555 1_555
C10 C11 1_555 1_555
C15 C16 1_555 1_555
C15 N2 1_555 1_555
C22 C23 1_555 1_555
C24 S1 1_555 1_555
C28 C29 1_555 1_555
Co1 O5 1_555 1_555
Co2 O2 1_555 1_555
C5A N1A 1_555 1_555
C10A C11A 1_555 1_555
C14A N2A 1_555 1_555
C15A C16A 1_555 1_555
C15A N2A 1_555 1_555
C17A O2A 1_555 1_555
C22A C23A 1_555 1_555
C24A S1A 1_555 1_555
C28A C29A 1_555 1_555
O5A Co1_2 1_555 1_555

#END
