
#######################################################################
#
#                 Cambridge Crystallographic Data Centre
#                                CCDC 
#
#######################################################################
#
# If this CIF has been generated from an entry in the Cambridge 
# Structural Database, then it will include bibliographic, chemical, 
# crystal, experimental, refinement or atomic coordinate data resulting 
# from the CCDC's data processing and validation procedures.
#
#######################################################################

data_XOMYIJ
_symmetry_cell_setting           triclinic
_symmetry_space_group_name_H-M   'P -1'
_symmetry_Int_Tables_number      2
_space_group_name_Hall           '-P 1'
loop_
_symmetry_equiv_pos_site_id
_symmetry_equiv_pos_as_xyz
1 x,y,z
2 -x,-y,-z
_cell_length_a                   10.887(3)
_cell_length_b                   15.158(4)
_cell_length_c                   15.644(2)
_cell_angle_alpha                70.121(2)
_cell_angle_beta                 81.878(4)
_cell_angle_gamma                74.2420(10)
_cell_volume                     2333.16
loop_
_atom_site_label
_atom_site_type_symbol
_atom_site_fract_x
_atom_site_fract_y
_atom_site_fract_z
C1 C 0.9640(8) 0.3639(6) 0.9923(6)
H1 H 0.9661 0.4114 1.0167
C2 C 0.8421(9) 0.3524(7) 0.9760(6)
C3 C 0.8477(9) 0.2730(6) 0.9446(6)
H2 H 0.7716 0.2621 0.9349
C4 C 0.9572(9) 0.2142(7) 0.9286(7)
C5 C 1.0696(9) 0.2297(6) 0.9393(6)
H3 H 1.1455 0.1899 0.9250
C6 C 1.0747(9) 0.3058(7) 0.9721(6)
C7 C 0.7291(8) 0.4209(6) 0.9894(6)
C8 C 1.2033(8) 0.3131(6) 0.9892(6)
C9 C 1.0546(10) 0.0633(7) 0.8929(6)
C10 C 1.0302(9) -0.0110(6) 0.8623(6)
C11 C 0.9082(10) -0.0266(7) 0.8602(6)
H4 H 0.8360 0.0169 0.8738
C12 C 0.8926(12) -0.1011(8) 0.8395(7)
H5 H 0.8101 -0.1065 0.8372
C13 C 1.1071(11) -0.1557(8) 0.8181(8)
H6 H 1.1761 -0.2002 0.8024
C14 C 1.1323(11) -0.0762(7) 0.8369(7)
H7 H 1.2153 -0.0687 0.8322
C15 C 1.1563(9) 0.2732(7) 0.4113(6)
H8 H 1.2418 0.2748 0.4068
C16 C 1.0716(10) 0.3424(7) 0.4401(8)
H9 H 1.0993 0.3876 0.4556
C17 C 0.9495(10) 0.3443(7) 0.4457(7)
C18 C 0.9101(11) 0.2698(7) 0.4187(6)
H10 H 0.8253 0.2680 0.4190
C19 C 0.8481(10) 0.4232(8) 0.4724(7)
C20 C 0.6561(9) 0.4522(6) 0.5657(6)
C21 C 0.6099(8) 0.5520(6) 0.5195(6)
H11 H 0.6349 0.5779 0.4587
C22 C 0.5283(8) 0.6111(6) 0.5643(6)
C23 C 0.4872(11) 0.5730(7) 0.6534(6)
H12 H 0.4277 0.6123 0.6820
C24 C 0.5359(9) 0.4734(7) 0.7018(6)
C25 C 0.6127(10) 0.4141(7) 0.6554(7)
H13 H 0.6359 0.3478 0.6844
C26 C 0.4793(9) 0.7160(7) 0.5124(6)
C27 C 0.4949(10) 0.4337(7) 0.7978(6)
C28 C -0.0921(10) 0.9338(7) 0.3989(7)
H14 H -0.0921 0.9804 0.4252
C29 C -0.2082(10) 0.9168(6) 0.3876(6)
C30 C -0.2027(8) 0.8400(7) 0.3534(6)
H15 H -0.2781 0.8242 0.3497
C31 C -0.0903(9) 0.7893(6) 0.3260(6)
C32 C 0.0282(9) 0.8129(6) 0.3291(5)
H16 H 0.1047 0.7837 0.3043
C33 C 0.0221(8) 0.8818(6) 0.3713(6)
C34 C 0.1459(9) 0.8947(6) 0.3889(7)
C35 C -0.3251(8) 0.9658(6) 0.4230(6)
C36 C 0.0149(8) 0.6426(7) 0.2854(7)
C37 C 0.0015(9) 0.5660(7) 0.2529(6)
C38 C -0.1026(10) 0.4666(7) 0.2155(6)
H17 H -0.1781 0.4510 0.2114
C39 C 0.1149(8) 0.4303(6) 0.2051(6)
H18 H 0.1922 0.3926 0.1899
C40 C 0.1135(9) 0.5048(6) 0.2355(5)
H19 H 0.1907 0.5145 0.2447
C41 C 1.0127(9) 0.2039(6) 0.3933(7)
H20 H 0.9955 0.1547 0.3776
C42 C -0.1095(9) 0.5482(6) 0.2410(6)
H21 H -0.1879 0.5889 0.2495
C43 C 0.5151(13) 0.1310(8) 1.0975(8)
H22 H 0.5030 0.0943 1.0638
Cu1 Cu 0.01978(11) 0.29156(8) 0.17682(7)
Eu1 Eu 0.38186(4) 0.91316(3) 0.42157(3)
Eu2 Eu 0.42750(4) 0.37125(3) 0.98857(3)
N1 N 0.9931(8) -0.1690(6) 0.8218(6)
N2 N 1.1328(8) 0.2078(6) 0.3903(6)
N3 N 0.0059(7) 0.4119(5) 0.1972(5)
N4 N -0.0896(6) 0.7134(5) 0.2934(5)
H23 H -0.1610 0.7116 0.2773
N5 N 0.7487(7) 0.3893(5) 0.5249(5)
H24 H 0.7421 0.3317 0.5331
N6 N 0.9554(7) 0.1360(6) 0.9021(5)
H25 H 0.8820 0.1336 0.8900
O1 O 1.1623(7) 0.0564(6) 0.9099(5)
O2 O 0.6223(6) 0.4035(5) 0.9814(5)
O3 O 0.7340(6) 0.4937(4) 1.0045(4)
O4 O 1.2212(6) 0.3172(5) 1.0618(4)
O5 O 1.2843(6) 0.3241(4) 0.9227(4)
O6 O 0.5249(6) 0.2121(5) 1.0499(5)
O7 O 0.5286(6) 0.3438(5) 0.8413(4)
O8 O 0.4351(6) 0.4927(5) 0.8396(4)
O9 O 0.4066(6) 0.7689(5) 0.5541(5)
O10 O 0.5128(6) 0.7487(5) 0.4302(5)
O11 O 0.8635(7) 0.5014(5) 0.4511(5)
O12 O 0.2489(6) 0.8324(5) 0.3782(5)
O13 O 0.1489(6) 0.9641(5) 0.4115(4)
O14 O -0.4218(7) 0.9374(5) 0.4259(5)
O15 O -0.3246(6) 1.0288(5) 0.4564(5)
O16 O 0.1176(7) 0.6385(5) 0.3075(6)
O17 O 0.5175(8) 0.0860(6) 1.1815(5)
O18 O 0.4441(7) 0.3677(5) 1.1440(5)
H26 H 0.4845 0.3033 1.1794
H27 H 0.4947 0.4111 1.1425
O19 O 0.4551(7) 0.9262(5) 0.2655(4)
H28 H 0.3902 0.9184 0.2350
H29 H 0.4726 0.9884 0.2353
O20 O 0.3280(8) 1.0795(5) 0.3412(5)
H30 H 0.2404 1.0986 0.3256
H31 H 0.3395 1.1151 0.3786
Cu1_2 Cu 1.01978(11) 0.29156(8) 1.17682(7)
Cu1A Cu 0.98022(11) -0.29156(8) 0.82318(7)
Eu1_2 Eu -0.61814(4) 0.91316(3) 0.42157(3)
Eu1A Eu -0.38186(4) 1.08684(3) 0.57843(3)
Eu2_2 Eu 1.42750(4) 0.37125(3) 0.98857(3)
Eu2A Eu 0.57250(4) 0.62875(3) 1.01143(3)
N1A N 0.0069(8) 0.1690(6) 0.1782(6)
O3A O 0.2660(6) 0.5063(4) 0.9955(4)
O4_2 O 0.2212(6) 0.3172(5) 0.0618(4)
O4_3 O 0.2212(6) 0.3172(5) 1.0618(4)
O5_2 O 0.2843(6) 0.3241(4) 0.9227(4)
O14_2 O 0.5782(7) 0.9374(5) 0.4259(5)
O15A O 0.3246(6) 0.9712(5) 0.5436(5)
O21 O 0.4533(7) 0.7927(5) 0.7194(5)
H32 H 0.3772 0.7984 0.7077
H33 H 0.4993 0.7994 0.6701
O22 O 0.3612(7) 0.2718(5) 0.7394(5)
H34 H 0.3819 0.3125 0.7572
H35 H 0.4023 0.2666 0.6903
O23 O 0.3048(8) 0.8288(5) 0.1690(5)
H36 H 0.3736 0.8205 0.1364
H37 H 0.2791 0.7769 0.1885
loop_
_geom_bond_atom_site_label_1
_geom_bond_atom_site_label_2
_geom_bond_site_symmetry_1
_geom_bond_site_symmetry_2
C1 H1 1_555 1_555
C2 C1 1_555 1_555
C3 C2 1_555 1_555
H2 C3 1_555 1_555
C4 C3 1_555 1_555
C5 C4 1_555 1_555
H3 C5 1_555 1_555
C6 C1 1_555 1_555
C7 C2 1_555 1_555
C8 C6 1_555 1_555
C9 C10 1_555 1_555
C10 C11 1_555 1_555
C11 H4 1_555 1_555
C12 C11 1_555 1_555
H5 C12 1_555 1_555
C13 H6 1_555 1_555
C14 C10 1_555 1_555
H7 C14 1_555 1_555
C15 H8 1_555 1_555
C16 C15 1_555 1_555
H9 C16 1_555 1_555
C17 C16 1_555 1_555
C18 C17 1_555 1_555
H10 C18 1_555 1_555
C19 C17 1_555 1_555
C20 C21 1_555 1_555
C21 H11 1_555 1_555
C22 C21 1_555 1_555
C23 C22 1_555 1_555
H12 C23 1_555 1_555
C24 C23 1_555 1_555
C25 C20 1_555 1_555
H13 C25 1_555 1_555
C26 C22 1_555 1_555
C27 C24 1_555 1_555
C28 H14 1_555 1_555
C29 C28 1_555 1_555
C30 C29 1_555 1_555
H15 C30 1_555 1_555
C31 C30 1_555 1_555
C32 C31 1_555 1_555
H16 C32 1_555 1_555
C33 C28 1_555 1_555
C34 C33 1_555 1_555
C35 C29 1_555 1_555
C36 C37 1_555 1_555
C37 C40 1_555 1_555
C38 H17 1_555 1_555
C39 H18 1_555 1_555
C40 C39 1_555 1_555
H19 C40 1_555 1_555
C41 C18 1_555 1_555
H20 C41 1_555 1_555
C42 C37 1_555 1_555
H21 C42 1_555 1_555
C43 H22 1_555 1_555
Cu1 N3 1_555 1_555
Eu1 O9 1_555 1_555
Eu2 O2 1_555 1_555
N1 C12 1_555 1_555
N2 C15 1_555 1_555
N3 C38 1_555 1_555
N4 C31 1_555 1_555
H23 N4 1_555 1_555
N5 C19 1_555 1_555
H24 N5 1_555 1_555
N6 C4 1_555 1_555
H25 N6 1_555 1_555
O1 C9 1_555 1_555
O2 C7 1_555 1_555
O3 C7 1_555 1_555
O4 C8 1_555 1_555
O5 C8 1_555 1_555
O6 C43 1_555 1_555
O7 C27 1_555 1_555
O8 C27 1_555 1_555
O9 C26 1_555 1_555
O10 C26 1_555 1_555
O11 C19 1_555 1_555
O12 C34 1_555 1_555
O13 C34 1_555 1_555
O14 C35 1_555 1_555
O15 C35 1_555 1_555
O16 C36 1_555 1_555
O17 C43 1_555 1_555
O18 Eu2 1_555 1_555
H26 O18 1_555 1_555
H27 O18 1_555 1_555
O19 Eu1 1_555 1_555
H28 O19 1_555 1_555
H29 O19 1_555 1_555
O20 Eu1 1_555 1_555
H30 O20 1_555 1_555
H31 O20 1_555 1_555
O21 H32 1_555 1_555
H33 O21 1_555 1_555
O22 H34 1_555 1_555
H35 O22 1_555 1_555
O23 H36 1_555 1_555
H37 O23 1_555 1_555
Cu1_2 O4 1_555 1_555
Cu1A N1 1_555 1_555
Eu1_2 O14 1_555 1_555
Eu1A O15 1_555 1_555
Eu2_2 O4 1_555 1_555
Eu2A O3 1_555 1_555
N1A Cu1 1_555 1_555
O3A Eu2 1_555 1_555
O4_2 Cu1 1_555 1_555
O4_3 Eu2 1_555 1_555
O5_2 Eu2 1_555 1_555
O14_2 Eu1 1_555 1_555
O15A Eu1 1_555 1_555
C5 C6 1_555 1_555
C9 N6 1_555 1_555
C13 C14 1_555 1_555
C13 N1 1_555 1_555
C20 N5 1_555 1_555
C24 C25 1_555 1_555
C32 C33 1_555 1_555
C36 N4 1_555 1_555
C38 C42 1_555 1_555
C39 N3 1_555 1_555
C41 N2 1_555 1_555
Eu1 O10 1_555 1_555
Eu1 O12 1_555 1_555
Eu1 O13 1_555 1_555
Eu2 O6 1_555 1_555
Eu2 O7 1_555 1_555
Eu2 O8 1_555 1_555
O5 Eu2_2 1_555 1_555

#END
