
#######################################################################
#
#                 Cambridge Crystallographic Data Centre
#                                CCDC 
#
#######################################################################
#
# If this CIF has been generated from an entry in the Cambridge 
# Structural Database, then it will include bibliographic, chemical, 
# crystal, experimental, refinement or atomic coordinate data resulting 
# from the CCDC's data processing and validation procedures.
#
#######################################################################

data_XOMZAC
_symmetry_cell_setting           triclinic
_symmetry_space_group_name_H-M   'P -1'
_symmetry_Int_Tables_number      2
_space_group_name_Hall           '-P 1'
loop_
_symmetry_equiv_pos_site_id
_symmetry_equiv_pos_as_xyz
1 x,y,z
2 -x,-y,-z
_cell_length_a                   10.134(3)
_cell_length_b                   10.836(6)
_cell_length_c                   13.741(2)
_cell_angle_alpha                79.153(4)
_cell_angle_beta                 78.786(2)
_cell_angle_gamma                86.276(5)
_cell_volume                     1453.04
loop_
_atom_site_label
_atom_site_type_symbol
_atom_site_fract_x
_atom_site_fract_y
_atom_site_fract_z
Ni1 Ni 1.0000 0.5000 0.5000
Eu1 Eu 0.68102(2) 0.077480(19) 0.703120(16)
C1 C 0.7018(5) 0.4722(4) 0.7268(4)
C2 C 0.6785(5) 0.4177(4) 0.8285(4)
H1 H 0.6729 0.3308 0.8469
C3 C 0.6636(4) 0.4905(4) 0.9024(3)
C4 C 0.6650(4) 0.6208(4) 0.8745(4)
H2 H 0.6535 0.6710 0.9235
C5 C 0.6837(5) 0.6752(4) 0.7736(4)
C6 C 0.7037(4) 0.6017(4) 0.6999(4)
H3 H 0.7184 0.6392 0.6321
C7 C 0.6870(5) 0.8149(4) 0.7475(4)
C8 C 0.7326(5) 0.3941(4) 0.6462(4)
C9 C 0.6658(5) 0.4823(5) 1.0821(4)
C10 C 0.6516(5) 0.4003(5) 1.1839(4)
C11 C 0.6512(5) 0.2697(5) 1.2019(4)
H4 H 0.6546 0.2261 1.1492
C12 C 0.6457(6) 0.2062(5) 1.2991(4)
H5 H 0.6453 0.1189 1.3101
C13 C 0.6393(6) 0.3874(6) 1.3606(4)
H6 H 0.6346 0.4287 1.4147
C14 C 0.6444(6) 0.4578(6) 1.2661(4)
H7 H 0.6430 0.5451 1.2574
C15 C 1.2625(5) 0.1140(4) -0.1679(4)
C16 C 1.1586(5) 0.1037(4) -0.2166(4)
H8 H 1.1767 0.0859 -0.2816
C17 C 1.0259(5) 0.1202(4) -0.1683(4)
C18 C 0.9990(5) 0.1498(4) -0.0729(4)
H9 H 0.9105 0.1614 -0.0410
C19 C 1.1041(5) 0.1624(5) -0.0245(4)
C20 C 1.2347(5) 0.1419(4) -0.0702(4)
H10 H 1.3048 0.1466 -0.0363
C21 C 1.4067(5) 0.0980(4) -0.2151(4)
C22 C 0.9092(5) 0.1097(4) -0.2178(4)
C23 C 0.9936(5) 0.2956(5) 0.0920(4)
C24 C 0.9903(5) 0.3381(5) 0.1905(4)
C25 C 0.9830(5) 0.2574(5) 0.2810(4)
H11 H 0.9830 0.1709 0.2840
C26 C 0.9755(5) 0.3063(5) 0.3674(4)
H12 H 0.9677 0.2510 0.4286
C27 C 0.9852(5) 0.5064(5) 0.2786(4)
H13 H 0.9868 0.5925 0.2771
C28 C 0.9894(5) 0.4655(5) 0.1892(4)
H14 H 0.9915 0.5225 0.1292
N1 N 0.6459(4) 0.4304(4) 1.0043(3)
H15 H 0.6202 0.3540 1.0180
N2 N 0.6408(5) 0.2611(5) 1.3783(3)
N3 N 1.0792(4) 0.1979(4) 0.0723(3)
H16 H 1.1190 0.1569 0.1189
N4 N 0.9791(4) 0.4296(4) 0.3677(3)
O1 O 0.8070(3) 0.4356(3) 0.5648(3)
O2 O 0.6798(4) 0.2871(3) 0.6643(3)
O3 O 0.6708(4) 0.8710(3) 0.6610(3)
O4 O 0.7058(4) 0.8771(3) 0.8107(3)
O5 O 0.6914(5) 0.5918(4) 1.0745(3)
O6 O 1.4410(3) 0.0990(4) -0.3093(3)
O7 O 1.4963(3) 0.0840(4) -0.1627(3)
O8 O 0.9269(3) 0.0950(4) -0.3095(3)
O9 O 0.7915(3) 0.1147(3) -0.1672(3)
O10 O 0.9243(4) 0.3511(4) 0.0332(3)
O11 O 1.0741(4) 0.3170(3) 0.5667(3)
H17 H 1.1354 0.2802 0.5298
H18 H 1.0107 0.2751 0.6001
O12 O 0.7217(4) 0.0963(4) 0.5280(3)
H19 H 0.6982 0.0275 0.5160
H20 H 0.6716 0.1542 0.5020
Eu1A Eu 1.31898(2) 0.922520(19) 0.296880(16)
C1A C 1.2982(5) 0.5278(4) 0.2732(4)
C2A C 1.3215(5) 0.5823(4) 0.1715(4)
H1A H 1.3271 0.6692 0.1531
C3A C 1.3364(4) 0.5095(4) 0.0976(3)
C4A C 1.3350(4) 0.3792(4) 0.1255(4)
H2A H 1.3465 0.3290 0.0765
C5A C 1.3163(5) 0.3248(4) 0.2264(4)
C6A C 1.2963(4) 0.3983(4) 0.3001(4)
H3A H 1.2816 0.3608 0.3679
C7A C 1.3130(5) 0.1851(4) 0.2525(4)
C8A C 1.2674(5) 0.6059(4) 0.3538(4)
C9A C 1.3342(5) 0.5177(5) -0.0821(4)
C10A C 1.3484(5) 0.5997(5) -0.1839(4)
C11A C 1.3488(5) 0.7303(5) -0.2019(4)
H4A H 1.3454 0.7739 -0.1492
C12A C 1.3543(6) 0.7938(5) -0.2991(4)
H5A H 1.3547 0.8811 -0.3101
C13A C 1.3607(6) 0.6126(6) -0.3606(4)
H6A H 1.3654 0.5713 -0.4147
C14A C 1.3556(6) 0.5422(6) -0.2661(4)
H7A H 1.3570 0.4549 -0.2574
C15A C 0.7375(5) 0.8860(4) 1.1679(4)
C16A C 0.8414(5) 0.8963(4) 1.2166(4)
H8A H 0.8233 0.9141 1.2816
C17A C 0.9741(5) 0.8798(4) 1.1683(4)
C18A C 1.0010(5) 0.8502(4) 1.0729(4)
H9A H 1.0895 0.8386 1.0410
C19A C 0.8959(5) 0.8376(5) 1.0245(4)
C20A C 0.7653(5) 0.8581(4) 1.0702(4)
H10A H 0.6952 0.8534 1.0363
C21A C 0.5933(5) 0.9020(4) 1.2151(4)
C22A C 1.0908(5) 0.8903(4) 1.2178(4)
C23A C 1.0064(5) 0.7044(5) 0.9080(4)
C24A C 1.0097(5) 0.6619(5) 0.8095(4)
C25A C 1.0170(5) 0.7426(5) 0.7190(4)
H11A H 1.0170 0.8291 0.7160
C26A C 1.0245(5) 0.6937(5) 0.6326(4)
H12A H 1.0323 0.7490 0.5714
C27A C 1.0148(5) 0.4936(5) 0.7214(4)
H13A H 1.0132 0.4075 0.7229
C28A C 1.0106(5) 0.5345(5) 0.8108(4)
H14A H 1.0085 0.4775 0.8708
N1A N 1.3541(4) 0.5696(4) -0.0043(3)
H15A H 1.3798 0.6460 -0.0180
N2A N 1.3592(5) 0.7389(5) -0.3783(3)
N3A N 0.9208(4) 0.8021(4) 0.9277(3)
H16A H 0.8810 0.8431 0.8811
N4A N 1.0209(4) 0.5704(4) 0.6323(3)
O1A O 1.1930(3) 0.5644(3) 0.4352(3)
O2A O 1.3202(4) 0.7129(3) 0.3357(3)
O3A O 1.3292(4) 0.1290(3) 0.3390(3)
O4A O 1.2942(4) 0.1229(3) 0.1893(3)
O5A O 1.3086(5) 0.4082(4) -0.0745(3)
O6A O 0.5590(3) 0.9010(4) 1.3093(3)
O7A O 0.5037(3) 0.9160(4) 1.1627(3)
O8A O 1.0731(3) 0.9050(4) 1.3095(3)
O9A O 1.2085(3) 0.8853(3) 1.1672(3)
O10A O 1.0757(4) 0.6489(4) 0.9668(3)
O11A O 0.9259(4) 0.6830(3) 0.4333(3)
H17A H 0.8646 0.7198 0.4702
H18A H 0.9893 0.7249 0.3999
O12A O 1.2783(4) 0.9037(4) 0.4720(3)
H19A H 1.3018 0.9725 0.4840
H20A H 1.3284 0.8458 0.4980
Eu1_2 Eu 0.68102(2) 0.077480(19) -0.296880(16)
Eu1_3 Eu 0.68102(2) 1.077480(19) 0.703120(16)
Eu1_4 Eu 1.68102(2) 0.077480(19) -0.296880(16)
Eu1A_2 Eu 0.31898(2) 0.922520(19) 1.296880(16)
Eu1A_3 Eu 1.31898(2) -0.077480(19) 0.296880(16)
Eu1A_4 Eu 1.31898(2) 0.922520(19) 1.296880(16)
O3_2 O 0.6708(4) -0.1290(3) 0.6610(3)
O3A_2 O 1.3292(4) 1.1290(3) 0.3390(3)
O4_2 O 0.7058(4) -0.1229(3) 0.8107(3)
O4A_2 O 1.2942(4) 1.1229(3) 0.1893(3)
O6_2 O 0.4410(3) 0.0990(4) 0.6907(3)
O6A_2 O 1.5590(3) 0.9010(4) 0.3093(3)
O7_2 O 0.4963(3) 0.0840(4) 0.8373(3)
O7A_2 O 1.5037(3) 0.9160(4) 0.1627(3)
O8_2 O 0.9269(3) 0.0950(4) 0.6905(3)
O8A_2 O 1.0731(3) 0.9050(4) 0.3095(3)
O9_2 O 0.7915(3) 0.1147(3) 0.8328(3)
O9A_2 O 1.2085(3) 0.8853(3) 0.1672(3)
O13 O 0.6977(5) 0.8366(5) 0.4678(4)
H21 H 0.6504 0.7983 0.5217
H22 H 0.6412 0.8654 0.4301
O14 O 0.5845(6) 0.1607(4) 0.0156(3)
H23 H 0.5634 0.0912 0.0546
H24 H 0.6268 0.1477 -0.0416
loop_
_geom_bond_atom_site_label_1
_geom_bond_atom_site_label_2
_geom_bond_site_symmetry_1
_geom_bond_site_symmetry_2
Ni1 N4 1_555 1_555
Eu1 O2 1_555 1_555
C1 C2 1_555 1_555
C2 H1 1_555 1_555
C3 C2 1_555 1_555
C4 C3 1_555 1_555
H2 C4 1_555 1_555
C5 C4 1_555 1_555
C6 C1 1_555 1_555
H3 C6 1_555 1_555
C7 C5 1_555 1_555
C8 C1 1_555 1_555
C9 C10 1_555 1_555
C10 C11 1_555 1_555
C11 H4 1_555 1_555
C12 C11 1_555 1_555
H5 C12 1_555 1_555
C13 H6 1_555 1_555
C14 C10 1_555 1_555
H7 C14 1_555 1_555
C15 C16 1_555 1_555
C16 H8 1_555 1_555
C17 C16 1_555 1_555
C18 C17 1_555 1_555
H9 C18 1_555 1_555
C19 C18 1_555 1_555
C20 C15 1_555 1_555
H10 C20 1_555 1_555
C21 C15 1_555 1_555
C22 C17 1_555 1_555
C23 C24 1_555 1_555
C24 C25 1_555 1_555
C25 H11 1_555 1_555
C26 C25 1_555 1_555
H12 C26 1_555 1_555
C27 H13 1_555 1_555
C28 C24 1_555 1_555
H14 C28 1_555 1_555
N1 C3 1_555 1_555
H15 N1 1_555 1_555
N2 C12 1_555 1_555
N3 C19 1_555 1_555
H16 N3 1_555 1_555
N4 C26 1_555 1_555
O1 Ni1 1_555 1_555
O2 C8 1_555 1_555
O3 C7 1_555 1_555
O4 C7 1_555 1_555
O5 C9 1_555 1_555
O6 C21 1_555 1_555
O7 C21 1_555 1_555
O8 C22 1_555 1_555
O9 C22 1_555 1_555
O10 C23 1_555 1_555
O11 Ni1 1_555 1_555
H17 O11 1_555 1_555
H18 O11 1_555 1_555
O12 Eu1 1_555 1_555
H19 O12 1_555 1_555
H20 O12 1_555 1_555
O13 H21 1_555 1_555
H22 O13 1_555 1_555
O14 H23 1_555 1_555
H24 O14 1_555 1_555
Eu1A O2A 1_555 1_555
C1A C2A 1_555 1_555
C2A H1A 1_555 1_555
C3A C2A 1_555 1_555
C4A C3A 1_555 1_555
H2A C4A 1_555 1_555
C5A C4A 1_555 1_555
C6A C1A 1_555 1_555
H3A C6A 1_555 1_555
C7A C5A 1_555 1_555
C8A C1A 1_555 1_555
C9A C10A 1_555 1_555
C10A C11A 1_555 1_555
C11A H4A 1_555 1_555
C12A C11A 1_555 1_555
H5A C12A 1_555 1_555
C13A H6A 1_555 1_555
C14A C10A 1_555 1_555
H7A C14A 1_555 1_555
C15A C16A 1_555 1_555
C16A H8A 1_555 1_555
C17A C16A 1_555 1_555
C18A C17A 1_555 1_555
H9A C18A 1_555 1_555
C19A C18A 1_555 1_555
C20A C15A 1_555 1_555
H10A C20A 1_555 1_555
C21A C15A 1_555 1_555
C22A C17A 1_555 1_555
C23A C24A 1_555 1_555
C24A C25A 1_555 1_555
C25A H11A 1_555 1_555
C26A C25A 1_555 1_555
H12A C26A 1_555 1_555
C27A H13A 1_555 1_555
C28A C24A 1_555 1_555
H14A C28A 1_555 1_555
N1A C3A 1_555 1_555
H15A N1A 1_555 1_555
N2A C12A 1_555 1_555
N3A C19A 1_555 1_555
H16A N3A 1_555 1_555
N4A Ni1 1_555 1_555
O1A Ni1 1_555 1_555
O2A C8A 1_555 1_555
O3A C7A 1_555 1_555
O4A C7A 1_555 1_555
O5A C9A 1_555 1_555
O6A C21A 1_555 1_555
O7A C21A 1_555 1_555
O8A C22A 1_555 1_555
O9A C22A 1_555 1_555
O10A C23A 1_555 1_555
O11A Ni1 1_555 1_555
H17A O11A 1_555 1_555
H18A O11A 1_555 1_555
O12A Eu1A 1_555 1_555
H19A O12A 1_555 1_555
H20A O12A 1_555 1_555
Eu1_2 O8 1_555 1_555
Eu1_3 O3 1_555 1_555
Eu1_4 O6 1_555 1_555
Eu1A_2 O6A 1_555 1_555
Eu1A_3 O3A 1_555 1_555
Eu1A_4 O8A 1_555 1_555
O3_2 Eu1 1_555 1_555
O3A_2 Eu1A 1_555 1_555
O4_2 Eu1 1_555 1_555
O4A_2 Eu1A 1_555 1_555
O6_2 Eu1 1_555 1_555
O6A_2 Eu1A 1_555 1_555
O7_2 Eu1 1_555 1_555
O7A_2 Eu1A 1_555 1_555
O8_2 Eu1 1_555 1_555
O8A_2 Eu1A 1_555 1_555
O9_2 Eu1 1_555 1_555
O9A_2 Eu1A 1_555 1_555
C5 C6 1_555 1_555
C8 O1 1_555 1_555
C9 N1 1_555 1_555
C13 C14 1_555 1_555
C13 N2 1_555 1_555
C19 C20 1_555 1_555
C23 N3 1_555 1_555
C27 C28 1_555 1_555
C27 N4 1_555 1_555
O4 Eu1_3 1_555 1_555
O7 Eu1_4 1_555 1_555
O9 Eu1_2 1_555 1_555
C5A C6A 1_555 1_555
C8A O1A 1_555 1_555
C9A N1A 1_555 1_555
C13A C14A 1_555 1_555
C13A N2A 1_555 1_555
C19A C20A 1_555 1_555
C23A N3A 1_555 1_555
C26A N4A 1_555 1_555
C27A C28A 1_555 1_555
C27A N4A 1_555 1_555
O4A Eu1A_3 1_555 1_555
O7A Eu1A_2 1_555 1_555
O9A Eu1A_4 1_555 1_555

#END
