
#######################################################################
#
#                 Cambridge Crystallographic Data Centre
#                                CCDC 
#
#######################################################################
#
# If this CIF has been generated from an entry in the Cambridge 
# Structural Database, then it will include bibliographic, chemical, 
# crystal, experimental, refinement or atomic coordinate data resulting 
# from the CCDC's data processing and validation procedures.
#
#######################################################################

data_XONFUD
_symmetry_cell_setting           orthorhombic
_symmetry_space_group_name_H-M   'P b c a'
_symmetry_Int_Tables_number      61
_space_group_name_Hall           '-P 2ac 2ab'
loop_
_symmetry_equiv_pos_site_id
_symmetry_equiv_pos_as_xyz
1 x,y,z
2 1/2-x,-y,1/2+z
3 -x,1/2+y,1/2-z
4 1/2+x,1/2-y,-z
5 -x,-y,-z
6 1/2+x,y,1/2-z
7 x,1/2-y,1/2+z
8 1/2-x,1/2+y,z
_cell_length_a                   11.5689(14)
_cell_length_b                   9.1338(11)
_cell_length_c                   38.163(5)
_cell_angle_alpha                90
_cell_angle_beta                 90
_cell_angle_gamma                90
_cell_volume                     4032.61
loop_
_atom_site_label
_atom_site_type_symbol
_atom_site_fract_x
_atom_site_fract_y
_atom_site_fract_z
O1 O 0.3439(4) 1.2469(4) 0.31223(9)
C1 C 0.4141(5) 1.1424(5) 0.31932(12)
C2 C 0.3915(4) 1.0613(5) 0.35270(12)
Zn1 Zn 0.63990(5) 0.81057(6) 0.235280(13)
O2 O 0.4929(3) 1.1056(4) 0.29913(9)
O3 O 0.6532(3) 0.5187(4) 0.32870(8)
O4 O 0.7628(3) 0.4835(3) 0.24246(8)
O5 O 0.6778(3) 0.6631(3) 0.27125(9)
O6 O 0.4931(3) 0.8708(4) 0.25684(9)
N1 N 0.5275(4) 0.6566(4) 0.37630(10)
N2 N 0.4832(4) 0.7257(4) 0.40121(10)
C3 C 0.3056(5) 1.1097(5) 0.37528(13)
H1 H 0.2637 1.1935 0.3699
C4 C 0.4536(4) 0.9364(5) 0.36039(11)
H2 H 0.5113 0.9040 0.3453
C5 C 0.4288(4) 0.8592(5) 0.39108(11)
C6 C 0.3445(4) 0.9096(5) 0.41385(13)
H3 H 0.3296 0.8600 0.4347
C7 C 0.2825(5) 1.0349(5) 0.40534(13)
H4 H 0.2247 1.0680 0.4203
C8 C 0.5777(4) 0.5195(5) 0.38593(12)
C9 C 0.6406(4) 0.4471(5) 0.35988(12)
C10 C 0.6875(5) 0.3107(5) 0.36754(14)
H5 H 0.7305 0.2612 0.3507
C11 C 0.6704(5) 0.2493(6) 0.39977(14)
H6 H 0.7016 0.1573 0.4042
C12 C 0.6081(5) 0.3184(5) 0.42638(14)
C13 C 0.5647(5) 0.4555(5) 0.41853(12)
H7 H 0.5252 0.5067 0.4359
C14 C 0.5911(6) 0.2494(6) 0.46233(14)
C15 C 0.7135(5) 0.4438(5) 0.30192(12)
H8 H 0.6748 0.3521 0.2967
H9 H 0.7914 0.4219 0.3097
C16 C 0.7178(4) 0.5376(4) 0.26942(10)
H10 H 0.4710 0.7992 0.2694
H11 H 0.4983 0.9408 0.2712
C17 C 0.6187(8) 0.0916(8) 0.4632(2)
H12 H 0.6999 0.0781 0.4591
H13 H 0.5756 0.0420 0.4452
H14 H 0.5986 0.0522 0.4857
C18 C 0.4632(7) 0.2575(9) 0.4731(2)
H15 H 0.4527 0.2086 0.4951
H16 H 0.4166 0.2108 0.4555
H17 H 0.4405 0.3582 0.4753
C19 C 0.6493(8) 0.3389(9) 0.4895(2)
H18 H 0.6276 0.3040 0.5123
H19 H 0.6263 0.4394 0.4871
H20 H 0.7315 0.3313 0.4868
O1B O 0.6561(4) 0.7469(4) 0.18777(9)
Zn1B Zn 0.36010(5) 1.31057(6) 0.264720(13)
Zn1G Zn 0.86010(5) 0.31057(6) 0.235280(13)
O4G O 0.7372(3) 0.9835(3) 0.24246(8)
O7 O 0.4213(4) 0.6589(5) 0.29953(10)
H21 H 0.3717 0.6964 0.3134
H22 H 0.4608 0.6253 0.3168
loop_
_geom_bond_atom_site_label_1
_geom_bond_atom_site_label_2
_geom_bond_site_symmetry_1
_geom_bond_site_symmetry_2
O1 C1 1_555 1_555
C1 C2 1_555 1_555
C2 C3 1_555 1_555
Zn1 O5 1_555 1_555
O2 C1 1_555 1_555
O3 C9 1_555 1_555
O4 C16 1_555 1_555
O5 C16 1_555 1_555
O6 Zn1 1_555 1_555
N1 N2 1_555 1_555
N2 C5 1_555 1_555
C3 H1 1_555 1_555
C4 C2 1_555 1_555
H2 C4 1_555 1_555
C5 C4 1_555 1_555
C6 C5 1_555 1_555
H3 C6 1_555 1_555
C7 C3 1_555 1_555
H4 C7 1_555 1_555
C8 N1 1_555 1_555
C9 C8 1_555 1_555
C10 C9 1_555 1_555
H5 C10 1_555 1_555
C11 C10 1_555 1_555
H6 C11 1_555 1_555
C12 C11 1_555 1_555
C13 C8 1_555 1_555
H7 C13 1_555 1_555
C14 C12 1_555 1_555
C15 O3 1_555 1_555
H8 C15 1_555 1_555
H9 C15 1_555 1_555
C16 C15 1_555 1_555
H10 O6 1_555 1_555
H11 O6 1_555 1_555
C17 C14 1_555 1_555
H12 C17 1_555 1_555
H13 C17 1_555 1_555
H14 C17 1_555 1_555
C18 C14 1_555 1_555
H15 C18 1_555 1_555
H16 C18 1_555 1_555
H17 C18 1_555 1_555
C19 C14 1_555 1_555
H18 C19 1_555 1_555
H19 C19 1_555 1_555
H20 C19 1_555 1_555
O7 H21 1_555 1_555
H22 O7 1_555 1_555
O1B Zn1 1_555 1_555
Zn1B O1 1_555 1_555
Zn1G O4 1_555 1_555
O4G Zn1 1_555 1_555
C6 C7 1_555 1_555
C12 C13 1_555 1_555

#END
