
#######################################################################
#
#                 Cambridge Crystallographic Data Centre
#                                CCDC 
#
#######################################################################
#
# If this CIF has been generated from an entry in the Cambridge 
# Structural Database, then it will include bibliographic, chemical, 
# crystal, experimental, refinement or atomic coordinate data resulting 
# from the CCDC's data processing and validation procedures.
#
#######################################################################

data_XONHAJ
_symmetry_cell_setting           monoclinic
_symmetry_space_group_name_H-M   'P 21/c'
_symmetry_Int_Tables_number      14
_space_group_name_Hall           '-P 2ybc'
loop_
_symmetry_equiv_pos_site_id
_symmetry_equiv_pos_as_xyz
1 x,y,z
2 x,1/2-y,1/2+z
3 -x,-y,-z
4 -x,1/2+y,1/2-z
_cell_length_a                   10.206(2)
_cell_length_b                   21.400(4)
_cell_length_c                   7.3056(15)
_cell_angle_alpha                90
_cell_angle_beta                 91.17(3)
_cell_angle_gamma                90
_cell_volume                     1595.27
loop_
_atom_site_label
_atom_site_type_symbol
_atom_site_fract_x
_atom_site_fract_y
_atom_site_fract_z
Cu1 Cu 0.0000 0.5000 0.0000
Cu2 Cu 0.11792(5) 0.29269(3) 0.41833(8)
P1 P 0.14166(11) 0.44579(6) 0.34891(18)
P2 P 0.30464(11) 0.51512(6) 0.06998(19)
O1 O 0.0231(3) 0.47973(13) 0.2671(4)
O2 O 0.0821(4) 0.3949(2) -0.0811(6)
H1 H 0.1481 0.4003 -0.1601
H2 H 0.1040 0.3730 0.0205
O3 O 0.1668(3) 0.38205(13) 0.2761(4)
O4 O 0.1249(3) 0.44079(16) 0.5604(4)
H3 H 0.082(4) 0.4742(15) 0.618(6)
O5 O 0.1743(3) 0.53422(15) -0.0108(5)
O6 O 0.4070(3) 0.56559(14) 0.0580(5)
O7 O 0.3503(3) 0.45309(15) -0.0205(5)
H4 H 0.4422(11) 0.449(2) -0.020(7)
O8 O 0.4000(4) 0.4619(2) 0.3810(6)
H5 H 0.468(4) 0.460(3) 0.472(6)
N1 N 0.2831(3) 0.27541(17) 0.5363(5)
N2 N 0.9382(3) 0.21894(17) 0.8418(5)
C1 C 0.2841(4) 0.4967(2) 0.3135(7)
C2 C 0.2664(6) 0.5553(2) 0.4217(9)
H6 H 0.2560 0.5450 0.5484
H7 H 0.1899 0.5771 0.3771
H8 H 0.3420 0.5816 0.4089
C3 C 0.3625(4) 0.3213(2) 0.5936(7)
H9 H 0.3320 0.3622 0.5868
C4 C 0.4871(4) 0.3110(2) 0.6622(7)
H10 H 0.5373 0.3448 0.7025
C5 C 0.5393(4) 0.25127(19) 0.6723(6)
C6 C 0.4545(4) 0.2042(2) 0.6171(6)
H11 H 0.4818 0.1628 0.6239
C7 C 0.3308(4) 0.2177(2) 0.5524(6)
H12 H 0.2768 0.1846 0.5177
C8 C 0.6762(4) 0.2397(2) 0.7358(6)
C9 C 0.7313(4) 0.1800(2) 0.7370(7)
H13 H 0.6807 0.1457 0.7021
C10 C 0.8588(4) 0.1720(2) 0.7891(7)
H14 H 0.8929 0.1317 0.7883
C11 C 0.8856(4) 0.2765(2) 0.8402(7)
H15 H 0.9385 0.3100 0.8748
C12 C 0.7583(4) 0.2881(2) 0.7905(7)
H16 H 0.7264 0.3288 0.7933
P1B P -0.14166(11) 0.55421(6) -0.34891(18)
P2B P -0.30464(11) 0.48488(6) -0.06998(19)
O1B O -0.0231(3) 0.52027(13) -0.2671(4)
O3B O -0.1668(3) 0.61795(13) -0.2761(4)
O4B O -0.1249(3) 0.55921(16) -0.5604(4)
H3B H -0.082(4) 0.5258(15) -0.618(6)
O5B O -0.1743(3) 0.46578(15) 0.0108(5)
O6B O -0.4070(3) 0.43441(14) -0.0580(5)
O7B O -0.3503(3) 0.54691(15) 0.0205(5)
H4B H -0.4422(11) 0.551(2) 0.020(7)
O8B O -0.4000(4) 0.5381(2) -0.3810(6)
H5B H -0.468(4) 0.540(3) -0.472(6)
C1B C -0.2841(4) 0.5033(2) -0.3135(7)
C2B C -0.2664(6) 0.4447(2) -0.4217(9)
H6B H -0.2560 0.4550 -0.5484
H7B H -0.1899 0.4229 -0.3771
H8B H -0.3420 0.4184 -0.4089
O2B O -0.0821(4) 0.6051(2) 0.0811(6)
H1B H -0.1481 0.5997 0.1601
H2B H -0.1040 0.6270 -0.0205
Cu2B Cu -0.11792(5) 0.70731(3) -0.41833(8)
N1A N -0.7169(3) 0.22459(17) 0.0363(5)
N2A N -0.0618(3) 0.28106(17) 0.3418(5)
C3A C -0.6375(4) 0.1787(2) 0.0936(7)
H9A H -0.6680 0.1378 0.0868
C4A C -0.5129(4) 0.1890(2) 0.1622(7)
H10A H -0.4627 0.1552 0.2025
C5A C -0.4607(4) 0.24873(19) 0.1723(6)
C6A C -0.5455(4) 0.2958(2) 0.1171(6)
H11A H -0.5182 0.3372 0.1239
C7A C -0.6692(4) 0.2823(2) 0.0524(6)
H12A H -0.7232 0.3154 0.0177
C8A C -0.3238(4) 0.2603(2) 0.2358(6)
C9A C -0.2687(4) 0.3200(2) 0.2370(7)
H13A H -0.3193 0.3543 0.2021
C10A C -0.1412(4) 0.3280(2) 0.2891(7)
H14A H -0.1071 0.3683 0.2883
C11A C -0.1144(4) 0.2235(2) 0.3402(7)
H15A H -0.0615 0.1900 0.3748
C12A C -0.2417(4) 0.2119(2) 0.2905(7)
H16A H -0.2736 0.1712 0.2933
Cu2A Cu 1.11792(5) 0.20731(3) 0.91833(8)
N1B N -0.2831(3) 0.72459(17) -0.5363(5)
N2C N 0.0618(3) 0.71894(17) -0.3418(5)
Cu2A_2 Cu -0.88208(5) 0.20731(3) -0.08167(8)
loop_
_geom_bond_atom_site_label_1
_geom_bond_atom_site_label_2
_geom_bond_site_symmetry_1
_geom_bond_site_symmetry_2
Cu1 O1 1_555 1_555
Cu2 O3 1_555 1_555
P1 O1 1_555 1_555
P2 O5 1_555 1_555
O2 Cu1 1_555 1_555
H1 O2 1_555 1_555
H2 O2 1_555 1_555
O3 P1 1_555 1_555
O4 P1 1_555 1_555
H3 O4 1_555 1_555
O5 Cu1 1_555 1_555
O6 P2 1_555 1_555
O7 P2 1_555 1_555
H4 O7 1_555 1_555
O8 H5 1_555 1_555
N1 Cu2 1_555 1_555
N2 C10 1_555 1_555
C1 P1 1_555 1_555
C2 C1 1_555 1_555
H6 C2 1_555 1_555
H7 C2 1_555 1_555
H8 C2 1_555 1_555
C3 N1 1_555 1_555
H9 C3 1_555 1_555
C4 C3 1_555 1_555
H10 C4 1_555 1_555
C5 C4 1_555 1_555
C6 C5 1_555 1_555
H11 C6 1_555 1_555
C7 N1 1_555 1_555
H12 C7 1_555 1_555
C8 C5 1_555 1_555
C9 C8 1_555 1_555
H13 C9 1_555 1_555
C10 C9 1_555 1_555
H14 C10 1_555 1_555
C11 N2 1_555 1_555
H15 C11 1_555 1_555
C12 C8 1_555 1_555
H16 C12 1_555 1_555
P1B O1B 1_555 1_555
P2B O5B 1_555 1_555
O1B Cu1 1_555 1_555
O3B P1B 1_555 1_555
O4B P1B 1_555 1_555
H3B O4B 1_555 1_555
O5B Cu1 1_555 1_555
O6B P2B 1_555 1_555
O7B P2B 1_555 1_555
H4B O7B 1_555 1_555
O8B H5B 1_555 1_555
C1B P1B 1_555 1_555
C2B C1B 1_555 1_555
H6B C2B 1_555 1_555
H7B C2B 1_555 1_555
H8B C2B 1_555 1_555
O2B Cu1 1_555 1_555
H1B O2B 1_555 1_555
H2B O2B 1_555 1_555
Cu2B O3B 1_555 1_555
N1A C3A 1_555 1_555
N2A Cu2 1_555 1_555
C3A H9A 1_555 1_555
C4A C3A 1_555 1_555
H10A C4A 1_555 1_555
C5A C4A 1_555 1_555
C6A C5A 1_555 1_555
H11A C6A 1_555 1_555
C7A N1A 1_555 1_555
H12A C7A 1_555 1_555
C8A C5A 1_555 1_555
C9A C8A 1_555 1_555
H13A C9A 1_555 1_555
C10A N2A 1_555 1_555
H14A C10A 1_555 1_555
C11A N2A 1_555 1_555
H15A C11A 1_555 1_555
C12A C8A 1_555 1_555
H16A C12A 1_555 1_555
Cu2A N2 1_555 1_555
N1B Cu2B 1_555 1_555
N2C Cu2B 1_555 1_555
Cu2A_2 N1A 1_555 1_555
P2 C1 1_555 1_555
O8 C1 1_555 1_555
C6 C7 1_555 1_555
C11 C12 1_555 1_555
P2B C1B 1_555 1_555
O8B C1B 1_555 1_555
C6A C7A 1_555 1_555
C9A C10A 1_555 1_555
C11A C12A 1_555 1_555

#END
