
#######################################################################
#
#                 Cambridge Crystallographic Data Centre
#                                CCDC 
#
#######################################################################
#
# If this CIF has been generated from an entry in the Cambridge 
# Structural Database, then it will include bibliographic, chemical, 
# crystal, experimental, refinement or atomic coordinate data resulting 
# from the CCDC's data processing and validation procedures.
#
#######################################################################

data_XONTOK
_symmetry_cell_setting           monoclinic
_symmetry_space_group_name_H-M   'P 21/c'
_symmetry_Int_Tables_number      14
_space_group_name_Hall           '-P 2ybc'
loop_
_symmetry_equiv_pos_site_id
_symmetry_equiv_pos_as_xyz
1 x,y,z
2 -x,1/2+y,1/2-z
3 -x,-y,-z
4 x,1/2-y,1/2+z
_cell_length_a                   13.0427(5)
_cell_length_b                   10.2452(4)
_cell_length_c                   14.6127(6)
_cell_angle_alpha                90
_cell_angle_beta                 92.874(2)
_cell_angle_gamma                90
_cell_volume                     1950.17
loop_
_atom_site_label
_atom_site_type_symbol
_atom_site_fract_x
_atom_site_fract_y
_atom_site_fract_z
C1 C 0.7018(3) 0.8984(4) 0.3453(2)
C2 C 0.8259(3) 1.0510(4) 0.3765(3)
H1 H 0.8831 1.0945 0.4054
C3 C 0.7694(3) 1.0903(4) 0.3012(3)
H2 H 0.7791 1.1679 0.2672
C4 C 0.6183(3) 1.0007(4) 0.2075(3)
H3 H 0.5739 0.9227 0.2109
H4 H 0.6534 0.9963 0.1490
C5 C 0.5514(3) 1.1224(4) 0.2071(3)
C6 C 0.8225(3) 0.8536(4) 0.4767(2)
C7 C 0.7722(3) 0.8514(4) 0.5602(2)
C8 C 0.8152(3) 0.7719(4) 0.6297(3)
H5 H 0.7831 0.7669 0.6866
C9 C 0.9028(3) 0.7009(4) 0.6180(3)
H6 H 0.9306 0.6487 0.6669
C10 C 0.9512(3) 0.7041(4) 0.5355(3)
H7 H 1.0121 0.6548 0.5289
C11 C 0.9115(3) 0.7788(4) 0.4627(3)
C12 C 0.9606(3) 0.7776(4) 0.3707(3)
H8 H 0.9091 0.8127 0.3240
C13 C 0.9898(4) 0.6397(4) 0.3404(3)
H9 H 1.0432 0.6046 0.3831
H10 H 1.0157 0.6432 0.2786
H11 H 0.9292 0.5832 0.3402
C14 C 1.0548(3) 0.8674(5) 0.3719(3)
H12 H 1.0347 0.9559 0.3892
H13 H 1.0826 0.8693 0.3108
H14 H 1.1073 0.8345 0.4164
C15 C 0.6746(3) 0.9281(4) 0.5741(3)
H15 H 0.6653 0.9921 0.5227
C16 C 0.6793(3) 1.0042(4) 0.6641(3)
H16 H 0.6801 0.9430 0.7156
H17 H 0.6191 1.0612 0.6662
H18 H 0.7419 1.0574 0.6681
C17 C 0.5819(3) 0.8383(4) 0.5712(3)
H19 H 0.5792 0.7888 0.5138
H20 H 0.5193 0.8905 0.5748
H21 H 0.5876 0.7778 0.6231
N1 N 0.7827(2) 0.9343(3) 0.40247(19)
N2 N 0.6954(2) 0.9968(3) 0.2832(2)
O1 O 0.4741(2) 1.1128(3) 0.14787(17)
O2 O 0.5714(2) 1.2158(3) 0.25713(19)
Cu1 Cu 0.61646(3) 0.75343(4) 0.35034(3)
O1A O 0.5259(2) 0.6128(3) 0.35213(17)
Cu1A Cu 0.38354(3) 1.25343(4) 0.14966(3)
C18 C 0.6542(4) 0.3831(4) 0.4357(3)
H22 H 0.5882 0.4275 0.4452
H23 H 0.6487 0.3383 0.3757
Cl1 Cl 0.75407(12) 0.49924(16) 0.43619(12)
Cl2 Cl 0.67915(10) 0.26823(11) 0.52326(8)
loop_
_geom_bond_atom_site_label_1
_geom_bond_atom_site_label_2
_geom_bond_site_symmetry_1
_geom_bond_site_symmetry_2
C1 N1 1_555 1_555
C2 H1 1_555 1_555
C3 C2 1_555 1_555
H2 C3 1_555 1_555
C4 H3 1_555 1_555
H4 C4 1_555 1_555
C5 C4 1_555 1_555
C6 C7 1_555 1_555
C7 C8 1_555 1_555
C8 H5 1_555 1_555
C9 C8 1_555 1_555
H6 C9 1_555 1_555
C10 C9 1_555 1_555
H7 C10 1_555 1_555
C11 C6 1_555 1_555
C12 C11 1_555 1_555
H8 C12 1_555 1_555
C13 C12 1_555 1_555
H9 C13 1_555 1_555
H10 C13 1_555 1_555
H11 C13 1_555 1_555
C14 C12 1_555 1_555
H12 C14 1_555 1_555
H13 C14 1_555 1_555
H14 C14 1_555 1_555
C15 C7 1_555 1_555
H15 C15 1_555 1_555
C16 C15 1_555 1_555
H16 C16 1_555 1_555
H17 C16 1_555 1_555
H18 C16 1_555 1_555
C17 C15 1_555 1_555
H19 C17 1_555 1_555
H20 C17 1_555 1_555
H21 C17 1_555 1_555
C18 H22 1_555 1_555
H23 C18 1_555 1_555
N1 C2 1_555 1_555
N2 C1 1_555 1_555
O1 C5 1_555 1_555
O2 C5 1_555 1_555
Cu1 C1 1_555 1_555
Cl1 C18 1_555 1_555
Cl2 C18 1_555 1_555
O1A Cu1 1_555 1_555
Cu1A O1 1_555 1_555
C3 N2 1_555 1_555
C4 N2 1_555 1_555
C6 N1 1_555 1_555
C10 C11 1_555 1_555

#END
