
#######################################################################
#
#                 Cambridge Crystallographic Data Centre
#                                CCDC 
#
#######################################################################
#
# If this CIF has been generated from an entry in the Cambridge 
# Structural Database, then it will include bibliographic, chemical, 
# crystal, experimental, refinement or atomic coordinate data resulting 
# from the CCDC's data processing and validation procedures.
#
#######################################################################

data_XONXOP
_symmetry_cell_setting           triclinic
_symmetry_space_group_name_H-M   'P -1'
_symmetry_Int_Tables_number      2
_space_group_name_Hall           '-P 1'
loop_
_symmetry_equiv_pos_site_id
_symmetry_equiv_pos_as_xyz
1 x,y,z
2 -x,-y,-z
_cell_length_a                   9.9222(15)
_cell_length_b                   12.3318(17)
_cell_length_c                   12.682(3)
_cell_angle_alpha                105.728(7)
_cell_angle_beta                 98.656(8)
_cell_angle_gamma                110.147(6)
_cell_volume                     1350.23
loop_
_atom_site_label
_atom_site_type_symbol
_atom_site_fract_x
_atom_site_fract_y
_atom_site_fract_z
C1 C 0.4538(6) 0.0986(5) 0.2685(5)
C2 C 0.4416(7) 0.0148(6) 0.3236(5)
H1 H 0.4926 -0.0378 0.3086
C3 C 0.3560(8) 0.0058(7) 0.4006(6)
H2 H 0.3492 -0.0513 0.4391
C4 C 0.2809(8) 0.0821(7) 0.4198(6)
H3 H 0.2200 0.0763 0.4708
C5 C 0.2937(7) 0.1673(6) 0.3650(6)
H4 H 0.2426 0.2199 0.3801
C6 C 0.3801(6) 0.1765(5) 0.2884(5)
C7 C 0.2084(9) 0.5732(7) 0.1226(8)
H5 H 0.2821 0.6485 0.1174
H6 H 0.1134 0.5831 0.1215
C8 C 0.1855(9) 0.4656(8) 0.0254(7)
H7 H 0.1666 0.4824 -0.0463
H8 H 0.2756 0.4477 0.0326
C9 C 0.0308(9) 0.2527(8) -0.0683(6)
H9 H 0.1177 0.2304 -0.0616
H10 H 0.0099 0.2646 -0.1422
C10 C -0.0998(8) 0.1545(7) -0.0615(6)
H11 H -0.1837 0.1806 -0.0613
H12 H -0.1311 0.0791 -0.1287
C11 C -0.1829(8) 0.0286(6) 0.0474(7)
H13 H -0.2029 -0.0483 -0.0149
H14 H -0.2749 0.0439 0.0404
C12 C -0.1410(8) 0.0154(6) 0.1574(7)
H15 H -0.2136 -0.0628 0.1585
H16 H -0.0413 0.0129 0.1694
C13 C -0.1131(8) 0.1025(7) 0.3542(7)
H17 H -0.0302 0.0759 0.3648
H18 H -0.2037 0.0386 0.3583
C14 C -0.0762(9) 0.2198(9) 0.4442(7)
H19 H -0.1569 0.2486 0.4318
H20 H -0.0658 0.2090 0.5191
C15 C 0.1224(10) 0.4169(8) 0.5412(6)
H21 H 0.1438 0.3959 0.6101
H22 H 0.0510 0.4563 0.5490
C16 C 0.2595(9) 0.5016(8) 0.5305(6)
H23 H 0.3090 0.5745 0.6012
H24 H 0.3286 0.4607 0.5174
C17 C 0.3461(9) 0.6320(8) 0.4258(8)
H25 H 0.4269 0.6034 0.4174
H26 H 0.3845 0.7069 0.4947
C18 C 0.2954(9) 0.6603(7) 0.3229(9)
H27 H 0.2064 0.6787 0.3270
H28 H 0.3754 0.7332 0.3194
N1 N 0.5121(6) 0.2023(5) -0.0169(5)
N2 N 0.7415(6) 0.3559(5) 0.1815(4)
N3 N 0.5422(6) 0.1066(5) 0.1873(4)
H29 H 0.4990 0.0332 0.1271
H30 H 0.6352 0.1142 0.2216
O1 O 0.4936(6) 0.1817(5) -0.1178(4)
O2 O 0.8664(5) 0.4299(4) 0.2047(4)
O3 O 0.2608(5) 0.5573(4) 0.2256(4)
O4 O 0.0619(5) 0.3637(4) 0.0233(4)
O5 O -0.0642(5) 0.1293(4) 0.0388(4)
O6 O -0.1384(5) 0.1164(4) 0.2458(4)
O7 O 0.0586(5) 0.3071(5) 0.4423(4)
O8 O 0.2222(5) 0.5390(5) 0.4357(4)
S1 S 0.39748(17) 0.28272(14) 0.21753(14)
Fe1 Fe 0.57032(9) 0.24882(8) 0.12246(7)
K1 K 0.08519(14) 0.33260(12) 0.23311(11)
O2_2 O -0.1336(5) 0.4299(4) 0.2047(4)
K1_2 K 1.08519(14) 0.33260(12) 0.23311(11)
C19 C 0.2711(11) 0.2857(8) 0.7325(8)
C20 C 0.3962(10) 0.3976(8) 0.8071(8)
H31 H 0.3682 0.4678 0.8159
H32 H 0.4811 0.4103 0.7740
H33 H 0.4239 0.3905 0.8816
N4 N 0.1713(12) 0.1999(8) 0.6753(8)
loop_
_geom_bond_atom_site_label_1
_geom_bond_atom_site_label_2
_geom_bond_site_symmetry_1
_geom_bond_site_symmetry_2
C1 C2 1_555 1_555
C2 H1 1_555 1_555
C3 C2 1_555 1_555
H2 C3 1_555 1_555
C4 C3 1_555 1_555
H3 C4 1_555 1_555
C5 C4 1_555 1_555
H4 C5 1_555 1_555
C6 C1 1_555 1_555
C7 H5 1_555 1_555
H6 C7 1_555 1_555
C8 C7 1_555 1_555
H7 C8 1_555 1_555
H8 C8 1_555 1_555
C9 H9 1_555 1_555
H10 C9 1_555 1_555
C10 C9 1_555 1_555
H11 C10 1_555 1_555
H12 C10 1_555 1_555
C11 H13 1_555 1_555
H14 C11 1_555 1_555
C12 C11 1_555 1_555
H15 C12 1_555 1_555
H16 C12 1_555 1_555
C13 H17 1_555 1_555
H18 C13 1_555 1_555
C14 C13 1_555 1_555
H19 C14 1_555 1_555
H20 C14 1_555 1_555
C15 H21 1_555 1_555
H22 C15 1_555 1_555
C16 C15 1_555 1_555
H23 C16 1_555 1_555
H24 C16 1_555 1_555
C17 H25 1_555 1_555
H26 C17 1_555 1_555
C18 C17 1_555 1_555
H27 C18 1_555 1_555
H28 C18 1_555 1_555
N1 O1 1_555 1_555
N2 O2 1_555 1_555
N3 C1 1_555 1_555
H29 N3 1_555 1_555
H30 N3 1_555 1_555
O2 K1_2 1_555 1_555
O3 C7 1_555 1_555
O4 C8 1_555 1_555
O5 C10 1_555 1_555
O6 C12 1_555 1_555
O7 C14 1_555 1_555
O8 C16 1_555 1_555
S1 C6 1_555 1_555
Fe1 N1 1_555 1_555
K1 O3 1_555 1_555
C19 C20 1_555 1_555
C20 H31 1_555 1_555
H32 C20 1_555 1_555
H33 C20 1_555 1_555
N4 C19 1_555 1_555
O2_2 K1 1_555 1_555
C5 C6 1_555 1_555
C9 O4 1_555 1_555
C11 O5 1_555 1_555
C13 O6 1_555 1_555
C15 O7 1_555 1_555
C17 O8 1_555 1_555
C18 O3 1_555 1_555
N2 Fe1 1_555 1_555
N3 Fe1 1_555 1_555
O4 K1 1_555 1_555
O5 K1 1_555 1_555
O6 K1 1_555 1_555
O7 K1 1_555 1_555
O8 K1 1_555 1_555
S1 Fe1 1_555 1_555
S1 K1 1_555 1_555

#END
