
#######################################################################
#
#                 Cambridge Crystallographic Data Centre
#                                CCDC 
#
#######################################################################
#
# If this CIF has been generated from an entry in the Cambridge 
# Structural Database, then it will include bibliographic, chemical, 
# crystal, experimental, refinement or atomic coordinate data resulting 
# from the CCDC's data processing and validation procedures.
#
#######################################################################

data_XONZAD
_symmetry_cell_setting           triclinic
_symmetry_space_group_name_H-M   'P -1'
_symmetry_Int_Tables_number      2
_space_group_name_Hall           '-P 1'
loop_
_symmetry_equiv_pos_site_id
_symmetry_equiv_pos_as_xyz
1 x,y,z
2 -x,-y,-z
_cell_length_a                   12.298(3)
_cell_length_b                   14.102(3)
_cell_length_c                   23.178(5)
_cell_angle_alpha                101.346(3)
_cell_angle_beta                 90.873(2)
_cell_angle_gamma                111.092(3)
_cell_volume                     3660.78
loop_
_atom_site_label
_atom_site_type_symbol
_atom_site_fract_x
_atom_site_fract_y
_atom_site_fract_z
C1 C 0.5001(4) 0.7376(3) 0.19335(18)
C2 C 0.4520(4) 0.8078(3) 0.16887(17)
C3 C 0.4966(4) 0.9136(3) 0.1913(2)
H1 H 0.5562 0.9422 0.2220
C4 C 0.4527(4) 0.9779(3) 0.1681(2)
H2 H 0.4826 1.0494 0.1832
C5 C 0.3646(4) 0.9348(3) 0.12253(19)
H3 H 0.3360 0.9781 0.1070
C6 C 0.3172(3) 0.8279(3) 0.09908(17)
C7 C 0.3611(3) 0.7648(3) 0.12313(17)
H4 H 0.3298 0.6931 0.1087
C8 C 0.2185(4) 0.7814(3) 0.05091(17)
C9 C 0.1367(4) 0.8278(3) 0.04726(18)
H5 H 0.1450 0.8888 0.0743
C10 C 0.0430(4) 0.7844(3) 0.00388(18)
C11 C 0.0306(4) 0.6920(3) -0.03586(18)
H6 H -0.0337 0.6609 -0.0640
C12 C 0.1134(4) 0.6457(3) -0.03405(17)
C13 C 0.2073(4) 0.6920(3) 0.00974(17)
H7 H 0.2633 0.6622 0.0113
C14 C 0.0985(4) 0.5469(3) -0.07675(16)
C15 C 0.1933(3) 0.5301(3) -0.10292(17)
H8 H 0.2679 0.5812 -0.0935
C16 C 0.1771(4) 0.4369(3) -0.14333(17)
C17 C 0.0667(4) 0.3607(4) -0.15675(19)
H9 H 0.0556 0.2985 -0.1833
C18 C -0.0275(4) 0.3768(4) -0.1308(2)
H10 H -0.1018 0.3251 -0.1399
C19 C -0.0119(4) 0.4697(4) -0.0911(2)
H11 H -0.0760 0.4800 -0.0742
C20 C 0.2784(4) 0.4203(3) -0.17394(17)
C21 C -0.0458(4) 0.8335(3) 0.00036(18)
C22 C -0.1050(4) 0.8222(3) -0.05395(18)
H12 H -0.0840 0.7888 -0.0882
C23 C -0.1947(4) 0.8595(3) -0.05834(18)
C24 C -0.2229(4) 0.9132(4) -0.0077(2)
H13 H -0.2822 0.9389 -0.0100
C25 C -0.1619(5) 0.9283(5) 0.0465(2)
H14 H -0.1797 0.9655 0.0804
C26 C -0.0757(5) 0.8887(4) 0.0502(2)
H15 H -0.0364 0.8989 0.0869
C27 C -0.2617(4) 0.8399(3) -0.11724(19)
C28 C 0.2502(4) 0.3733(3) 0.32740(17)
C29 C 0.1573(3) 0.4012(3) 0.35996(17)
C30 C 0.1841(3) 0.5024(3) 0.39285(17)
H16 H 0.2595 0.5514 0.3948
C31 C 0.0995(3) 0.5311(3) 0.42267(17)
C32 C -0.0130(4) 0.4555(3) 0.41941(18)
H17 H -0.0703 0.4730 0.4394
C33 C -0.0403(4) 0.3548(4) 0.38678(19)
H18 H -0.1156 0.3056 0.3847
C34 C 0.0448(4) 0.3281(3) 0.35751(19)
H19 H 0.0267 0.2605 0.3359
C35 C 0.1262(4) 0.6388(3) 0.45759(17)
C36 C 0.2320(4) 0.6943(3) 0.49296(18)
H20 H 0.2880 0.6642 0.4935
C37 C 0.2551(4) 0.7930(3) 0.52723(18)
C38 C 0.1706(4) 0.8376(3) 0.52562(18)
H21 H 0.1857 0.9042 0.5480
C39 C 0.0650(4) 0.7846(3) 0.49145(18)
C40 C 0.0437(4) 0.6850(3) 0.45731(18)
H22 H -0.0270 0.6490 0.4340
C41 C 0.3641(4) 0.8480(3) 0.56848(19)
C42 C 0.3996(4) 0.7944(3) 0.60447(18)
H23 H 0.3563 0.7240 0.6015
C43 C 0.4991(4) 0.8440(3) 0.64513(19)
C44 C 0.5624(5) 0.9490(4) 0.6490(3)
H24 H 0.6276 0.9835 0.6764
C45 C 0.5300(6) 1.0029(4) 0.6129(3)
H25 H 0.5757 1.0724 0.6146
C46 C 0.4295(5) 0.9539(4) 0.5738(3)
H26 H 0.4057 0.9918 0.5511
C47 C 0.5361(4) 0.7825(3) 0.68196(17)
C48 C -0.0289(4) 0.8285(3) 0.49220(18)
C49 C -0.1042(4) 0.8068(3) 0.44180(17)
H27 H -0.0921 0.7684 0.4067
C50 C -0.1967(4) 0.8409(3) 0.44279(18)
C51 C -0.2139(4) 0.9000(4) 0.49458(19)
H28 H -0.2763 0.9228 0.4956
C52 C -0.1379(5) 0.9251(4) 0.5447(2)
H29 H -0.1481 0.9659 0.5794
C53 C -0.0464(4) 0.8894(4) 0.5433(2)
H30 H 0.0041 0.9065 0.5772
C54 C -0.2805(4) 0.8104(3) 0.38791(19)
C55 C 0.5607(4) 0.5859(3) 0.42720(18)
H31 H 0.5032 0.6062 0.4131
C56 C 0.6919(5) 0.5941(5) 0.5083(2)
H32 H 0.7100 0.6271 0.5494
H33 H 0.7609 0.6170 0.4879
H34 H 0.6647 0.5199 0.5039
C57 C 0.5539(5) 0.6882(4) 0.5230(2)
H35 H 0.5936 0.7066 0.5618
H36 H 0.4717 0.6514 0.5244
H37 H 0.5653 0.7502 0.5087
C58 C 0.4262(4) 0.3847(4) 0.0638(2)
H38 H 0.4815 0.3603 0.0761
C59 C 0.3118(6) 0.4022(6) -0.0152(3)
H39 H 0.3011 0.3817 -0.0575
H40 H 0.3392 0.4767 -0.0034
H41 H 0.2386 0.3722 0.0007
C60 C 0.4518(6) 0.3111(6) -0.0355(3)
H42 H 0.4198 0.3047 -0.0747
H43 H 0.4368 0.2431 -0.0282
H44 H 0.5347 0.3494 -0.0317
C61 C 0.2072(7) 0.4693(11) 0.2142(4)
H45 H 0.2313 0.5415 0.2225
C62 C 0.0167(9) 0.3425(7) 0.2022(3)
H46 H -0.0601 0.3387 0.2119
H47 H 0.0392 0.2960 0.2205
H48 H 0.0163 0.3230 0.1601
C63 C 0.0579(9) 0.5202(7) 0.2558(3)
H49 H -0.0251 0.4896 0.2576
H50 H 0.0753 0.5783 0.2370
H51 H 0.0967 0.5437 0.2951
C64 C 0.7911(6) 0.5099(8) 0.3203(3)
H52 H 0.8576 0.5173 0.2979
H53 H 0.7842 0.4595 0.3439
H54 H 0.8013 0.5757 0.3457
N1 N 0.6011(3) 0.6218(3) 0.48327(16)
N2 N 0.3973(4) 0.3659(4) 0.00709(17)
N3 N 0.0973(4) 0.4452(4) 0.2228(2)
O1 O 0.4566(3) 0.6420(2) 0.17112(13)
O2 O 0.5802(3) 0.7820(2) 0.23494(14)
O3 O 0.2499(3) 0.3367(2) -0.21356(13)
O4 O 0.3798(3) 0.4860(2) -0.15945(12)
O5 O -0.2098(3) 0.8222(3) -0.16270(13)
O6 O -0.3621(3) 0.8398(3) -0.11847(15)
O7 O 0.2145(3) 0.2884(2) 0.28843(13)
O8 O 0.3542(3) 0.4336(2) 0.34060(13)
O9 O 0.4821(3) 0.6862(2) 0.66926(14)
O10 O 0.6186(3) 0.8318(2) 0.72239(13)
O11 O -0.2473(3) 0.7691(3) 0.34100(13)
O12 O -0.3732(3) 0.8253(3) 0.39206(15)
O13 O 0.4500(3) 0.3685(2) 0.22009(12)
O14 O 0.5128(2) 0.5746(2) 0.27764(12)
O15 O 0.5952(3) 0.5264(2) 0.39195(13)
O16 O 0.3853(3) 0.4326(3) 0.10208(14)
O17 O 0.2785(3) 0.4625(5) 0.2053(2)
O18 O 0.6898(3) 0.4768(3) 0.28184(14)
Zn1 Zn 0.64691(4) 0.69697(4) 0.27053(2)
Zn2 Zn 0.45214(4) 0.50049(4) 0.18930(2)
Zn3 Zn 0.31906(4) 0.24753(4) 0.23370(2)
Zn4 Zn 0.51674(4) 0.44823(4) 0.308006(19)
O3A O 0.7501(3) 0.6633(2) 0.21356(13)
O4A O 0.6202(3) 0.5140(2) 0.15945(12)
O5A O 0.2098(3) 0.1778(3) 0.16270(13)
O9A O 0.5179(3) 0.3138(2) 0.33074(14)
O10A O 0.3814(3) 0.1682(2) 0.27761(13)
O11_2 O 0.7527(3) 0.7691(3) 0.34100(13)
Zn1_2 Zn -0.35309(4) 0.69697(4) 0.27053(2)
Zn1A Zn 0.35309(4) 0.30303(4) -0.27053(2)
Zn2A Zn 0.54786(4) 0.49951(4) -0.18930(2)
Zn3A Zn -0.31906(4) 0.75247(4) -0.23370(2)
Zn3A_2 Zn 0.68094(4) 0.75247(4) 0.76630(2)
Zn4A Zn 0.48326(4) 0.55177(4) 0.691994(19)
C65 C 0.7567(8) 1.1256(7) 0.2616(5)
H55 H 0.7131 1.1282 0.2938
C66 C 0.8039(12) 1.0054(9) 0.3067(4)
H56 H 0.8511 0.9637 0.2997
H57 H 0.7235 0.9610 0.3066
H58 H 0.8300 1.0530 0.3443
C67 C 0.8785(15) 1.0432(14) 0.2161(5)
H59 H 0.9132 0.9955 0.2240
H60 H 0.9391 1.1072 0.2127
H61 H 0.8285 1.0134 0.1798
N4 N 0.8141(5) 1.0623(4) 0.2613(2)
O19 O 0.7487(7) 1.1756(5) 0.2324(4)
C68 C 0.2222(6) 0.8227(6) 0.2662(4)
H62 H 0.2740 0.8417 0.2380
C69 C 0.1312(8) 0.9271(7) 0.2344(4)
H63 H 0.0642 0.9458 0.2421
H64 H 0.1250 0.8939 0.1935
H65 H 0.2010 0.9887 0.2434
C70 C 0.0489(7) 0.8307(7) 0.3111(3)
H66 H -0.0055 0.8641 0.3069
H67 H 0.0858 0.8538 0.3509
H68 H 0.0080 0.7566 0.3028
N5 N 0.1363(4) 0.8570(4) 0.2707(2)
O20 O 0.2376(5) 0.7678(5) 0.2966(3)
C71 C 0.6164(7) 0.1259(6) 0.0628(4)
H69 H 0.6998 0.1507 0.0618
H70 H 0.5792 0.0875 0.0242
H71 H 0.5940 0.0815 0.0906
O21 O 0.5808(4) 0.2127(4) 0.0805(2)
H72 H 0.5116 0.1916 0.0867
O22 O 0.6662(4) 0.3093(4) 0.19860(19)
O23 O 0.4015(3) 0.6960(3) 0.34586(18)
loop_
_geom_bond_atom_site_label_1
_geom_bond_atom_site_label_2
_geom_bond_site_symmetry_1
_geom_bond_site_symmetry_2
C1 C2 1_555 1_555
C2 C3 1_555 1_555
C3 H1 1_555 1_555
C4 C3 1_555 1_555
H2 C4 1_555 1_555
C5 C4 1_555 1_555
H3 C5 1_555 1_555
C6 C5 1_555 1_555
C7 C2 1_555 1_555
H4 C7 1_555 1_555
C8 C6 1_555 1_555
C9 C8 1_555 1_555
H5 C9 1_555 1_555
C10 C9 1_555 1_555
C11 C10 1_555 1_555
H6 C11 1_555 1_555
C12 C11 1_555 1_555
C13 C8 1_555 1_555
H7 C13 1_555 1_555
C14 C12 1_555 1_555
C15 C14 1_555 1_555
H8 C15 1_555 1_555
C16 C15 1_555 1_555
C17 C16 1_555 1_555
H9 C17 1_555 1_555
C18 C17 1_555 1_555
H10 C18 1_555 1_555
C19 C14 1_555 1_555
H11 C19 1_555 1_555
C20 C16 1_555 1_555
C21 C10 1_555 1_555
C22 C21 1_555 1_555
H12 C22 1_555 1_555
C23 C22 1_555 1_555
C24 C23 1_555 1_555
H13 C24 1_555 1_555
C25 C24 1_555 1_555
H14 C25 1_555 1_555
C26 C21 1_555 1_555
H15 C26 1_555 1_555
C27 C23 1_555 1_555
C28 C29 1_555 1_555
C29 C30 1_555 1_555
C30 H16 1_555 1_555
C31 C30 1_555 1_555
C32 C31 1_555 1_555
H17 C32 1_555 1_555
C33 C32 1_555 1_555
H18 C33 1_555 1_555
C34 C29 1_555 1_555
H19 C34 1_555 1_555
C35 C31 1_555 1_555
C36 C35 1_555 1_555
H20 C36 1_555 1_555
C37 C36 1_555 1_555
C38 C37 1_555 1_555
H21 C38 1_555 1_555
C39 C38 1_555 1_555
C40 C35 1_555 1_555
H22 C40 1_555 1_555
C41 C37 1_555 1_555
C42 C41 1_555 1_555
H23 C42 1_555 1_555
C43 C42 1_555 1_555
C44 C43 1_555 1_555
H24 C44 1_555 1_555
C45 C44 1_555 1_555
H25 C45 1_555 1_555
C46 C41 1_555 1_555
H26 C46 1_555 1_555
C47 C43 1_555 1_555
C48 C39 1_555 1_555
C49 C48 1_555 1_555
H27 C49 1_555 1_555
C50 C49 1_555 1_555
C51 C50 1_555 1_555
H28 C51 1_555 1_555
C52 C51 1_555 1_555
H29 C52 1_555 1_555
C53 C48 1_555 1_555
H30 C53 1_555 1_555
C54 C50 1_555 1_555
C55 H31 1_555 1_555
C56 H32 1_555 1_555
H33 C56 1_555 1_555
H34 C56 1_555 1_555
C57 H35 1_555 1_555
H36 C57 1_555 1_555
H37 C57 1_555 1_555
C58 H38 1_555 1_555
C59 H39 1_555 1_555
H40 C59 1_555 1_555
H41 C59 1_555 1_555
C60 H42 1_555 1_555
H43 C60 1_555 1_555
H44 C60 1_555 1_555
C61 H45 1_555 1_555
C62 H46 1_555 1_555
H47 C62 1_555 1_555
H48 C62 1_555 1_555
C63 H49 1_555 1_555
H50 C63 1_555 1_555
H51 C63 1_555 1_555
C64 H52 1_555 1_555
H53 C64 1_555 1_555
H54 C64 1_555 1_555
N1 C55 1_555 1_555
N2 C58 1_555 1_555
N3 C61 1_555 1_555
O1 C1 1_555 1_555
O2 C1 1_555 1_555
O3 C20 1_555 1_555
O4 C20 1_555 1_555
O5 C27 1_555 1_555
O6 C27 1_555 1_555
O7 C28 1_555 1_555
O8 C28 1_555 1_555
O9 C47 1_555 1_555
O10 C47 1_555 1_555
O11 C54 1_555 1_555
O12 C54 1_555 1_555
O13 Zn2 1_555 1_555
O14 Zn1 1_555 1_555
O15 C55 1_555 1_555
O16 C58 1_555 1_555
O17 C61 1_555 1_555
O18 C64 1_555 1_555
Zn1 O2 1_555 1_555
Zn2 O1 1_555 1_555
Zn3 O7 1_555 1_555
Zn4 O8 1_555 1_555
C65 H55 1_555 1_555
C66 H56 1_555 1_555
H57 C66 1_555 1_555
H58 C66 1_555 1_555
C67 H59 1_555 1_555
H60 C67 1_555 1_555
H61 C67 1_555 1_555
N4 C65 1_555 1_555
O19 C65 1_555 1_555
C68 H62 1_555 1_555
C69 H63 1_555 1_555
H64 C69 1_555 1_555
H65 C69 1_555 1_555
C70 H66 1_555 1_555
H67 C70 1_555 1_555
H68 C70 1_555 1_555
N5 C68 1_555 1_555
O20 C68 1_555 1_555
C71 H69 1_555 1_555
H70 C71 1_555 1_555
H71 C71 1_555 1_555
O21 C71 1_555 1_555
H72 O21 1_555 1_555
O3A Zn1 1_555 1_555
O4A Zn2 1_555 1_555
O5A Zn3 1_555 1_555
O9A Zn4 1_555 1_555
O10A Zn3 1_555 1_555
O11_2 Zn1 1_555 1_555
Zn1_2 O11 1_555 1_555
Zn1A O3 1_555 1_555
Zn2A O4 1_555 1_555
Zn3A O5 1_555 1_555
Zn3A_2 O10 1_555 1_555
Zn4A O9 1_555 1_555
C6 C7 1_555 1_555
C12 C13 1_555 1_555
C18 C19 1_555 1_555
C25 C26 1_555 1_555
C33 C34 1_555 1_555
C39 C40 1_555 1_555
C45 C46 1_555 1_555
C52 C53 1_555 1_555
C56 N1 1_555 1_555
C57 N1 1_555 1_555
C59 N2 1_555 1_555
C60 N2 1_555 1_555
C62 N3 1_555 1_555
C63 N3 1_555 1_555
O13 Zn3 1_555 1_555
O13 Zn4 1_555 1_555
O14 Zn2 1_555 1_555
O14 Zn4 1_555 1_555
O15 Zn4 1_555 1_555
O16 Zn2 1_555 1_555
O17 Zn2 1_555 1_555
O18 Zn4 1_555 1_555
C66 N4 1_555 1_555
C67 N4 1_555 1_555
C69 N5 1_555 1_555
C70 N5 1_555 1_555

#END
