
#######################################################################
#
#                 Cambridge Crystallographic Data Centre
#                                CCDC 
#
#######################################################################
#
# If this CIF has been generated from an entry in the Cambridge 
# Structural Database, then it will include bibliographic, chemical, 
# crystal, experimental, refinement or atomic coordinate data resulting 
# from the CCDC's data processing and validation procedures.
#
#######################################################################

data_XOPDIP
_symmetry_cell_setting           monoclinic
_symmetry_space_group_name_H-M   'P 21/n'
_symmetry_Int_Tables_number      14
_space_group_name_Hall           '-P 2yn'
loop_
_symmetry_equiv_pos_site_id
_symmetry_equiv_pos_as_xyz
1 x,y,z
2 1/2+x,1/2-y,1/2+z
3 -x,-y,-z
4 1/2-x,1/2+y,1/2-z
_cell_length_a                   8.85100(10)
_cell_length_b                   9.10500(10)
_cell_length_c                   19.8280(4)
_cell_angle_alpha                90
_cell_angle_beta                 97.3830(6)
_cell_angle_gamma                90
_cell_volume                     1584.66
loop_
_atom_site_label
_atom_site_type_symbol
_atom_site_fract_x
_atom_site_fract_y
_atom_site_fract_z
Zn1 Zn 0.38248(2) 0.24800(2) 0.133592(12)
O1 O 0.17567(16) 0.16756(15) 0.09971(7)
C1 C 0.1011(2) 0.24427(19) 0.05203(11)
O2 O 0.14968(17) 0.35912(15) 0.02953(8)
C2 C -0.0550(2) 0.1881(2) 0.02325(11)
N1 N -0.1136(2) 0.35063(19) -0.07632(9)
C3 C -0.1585(2) 0.3101(2) -0.00833(10)
H1 H -0.144(3) 0.396(3) 0.0206(12)
H2 H -0.011(3) 0.378(3) -0.0722(13)
H3 H -0.100(3) 0.137(3) 0.0562(14)
H4 H -0.044(3) 0.119(3) -0.0107(14)
H5 H -0.119(3) 0.270(3) -0.1023(16)
H6 H -0.168(3) 0.429(3) -0.0935(15)
O6 O -0.51576(17) 0.20601(18) 0.05295(8)
O7 O -0.31715(17) 0.33272(18) 0.10177(7)
C4 C -0.3259(3) 0.2679(2) -0.01605(11)
H13 H -0.383(3) 0.341(3) -0.0456(14)
H14 H -0.343(3) 0.166(3) -0.0375(13)
C5 C -0.3880(2) 0.2696(2) 0.05185(11)
O8 O 0.36618(16) 0.46021(15) 0.15161(7)
C6 C 0.5272(3) 0.7531(2) 0.26933(11)
N2 N 0.6937(2) 0.7449(2) 0.26300(11)
H15 H 0.515(3) 0.693(3) 0.3125(13)
H16 H 0.713(4) 0.809(4) 0.2310(17)
H17 H 0.716(4) 0.656(4) 0.2580(17)
H18 H 0.747(4) 0.772(3) 0.3036(18)
O9 O 0.55763(17) 0.45422(16) 0.23709(7)
C7 C 0.4579(2) 0.5205(2) 0.19952(9)
C8 C 0.4325(2) 0.6835(2) 0.20821(11)
H19 H 0.327(4) 0.698(4) 0.2118(15)
H20 H 0.456(4) 0.735(3) 0.1661(18)
O10 O 0.40792(18) 1.12763(16) 0.21657(8)
C9 C 0.4950(2) 1.0163(2) 0.22110(10)
O11 O 0.59466(19) 0.99177(19) 0.18383(8)
C10 C 0.4791(2) 0.9122(2) 0.27974(10)
H21 H 0.542(3) 0.952(3) 0.3202(14)
H22 H 0.370(3) 0.915(3) 0.2892(14)
O6_2 O 0.48424(17) 0.20601(18) 0.05295(8)
O10_2 O 0.40792(18) 0.12763(16) 0.21657(8)
Zn1_2 Zn -0.61752(2) 0.24800(2) 0.133592(12)
Zn1_3 Zn 0.38248(2) 1.24800(2) 0.133592(12)
O3 O -0.1224(2) 0.10466(18) -0.15454(9)
H7 H -0.054(4) 0.102(4) -0.1803(18)
H11 H -0.129(4) 0.021(4) -0.1385(16)
O4 O 0.2939(2) 0.1018(2) -0.06296(9)
H9 H 0.344(4) 0.054(3) -0.0902(17)
H10 H 0.357(4) 0.127(4) -0.0299(18)
O5 O 0.7923(2) 0.6342(2) 0.12699(9)
H8 H 0.756(4) 0.708(4) 0.1013(19)
H12 H 0.733(5) 0.560(5) 0.108(2)
loop_
_geom_bond_atom_site_label_1
_geom_bond_atom_site_label_2
_geom_bond_site_symmetry_1
_geom_bond_site_symmetry_2
Zn1 O1 1_555 1_555
O1 C1 1_555 1_555
C1 O2 1_555 1_555
C2 C1 1_555 1_555
N1 C3 1_555 1_555
C3 C2 1_555 1_555
O3 H7 1_555 1_555
O4 H9 1_555 1_555
O5 H8 1_555 1_555
H1 C3 1_555 1_555
H2 N1 1_555 1_555
H3 C2 1_555 1_555
H4 C2 1_555 1_555
H5 N1 1_555 1_555
H6 N1 1_555 1_555
H10 O4 1_555 1_555
H11 O3 1_555 1_555
H12 O5 1_555 1_555
O6 C5 1_555 1_555
O7 C5 1_555 1_555
C4 C3 1_555 1_555
H13 C4 1_555 1_555
H14 C4 1_555 1_555
C5 C4 1_555 1_555
O8 Zn1 1_555 1_555
C6 N2 1_555 1_555
N2 H16 1_555 1_555
H15 C6 1_555 1_555
H17 N2 1_555 1_555
H18 N2 1_555 1_555
O9 C7 1_555 1_555
C7 O8 1_555 1_555
C8 C6 1_555 1_555
H19 C8 1_555 1_555
H20 C8 1_555 1_555
O10 C9 1_555 1_555
C9 O11 1_555 1_555
C10 C6 1_555 1_555
H21 C10 1_555 1_555
H22 C10 1_555 1_555
O6_2 Zn1 1_555 1_555
O10_2 Zn1 1_555 1_555
Zn1_2 O6 1_555 1_555
Zn1_3 O10 1_555 1_555
C7 C8 1_555 1_555
C9 C10 1_555 1_555

#END
