
#######################################################################
#
#                 Cambridge Crystallographic Data Centre
#                                CCDC 
#
#######################################################################
#
# If this CIF has been generated from an entry in the Cambridge 
# Structural Database, then it will include bibliographic, chemical, 
# crystal, experimental, refinement or atomic coordinate data resulting 
# from the CCDC's data processing and validation procedures.
#
#######################################################################

data_XOPDOV
_symmetry_cell_setting           monoclinic
_symmetry_space_group_name_H-M   'P 21/c'
_symmetry_Int_Tables_number      14
_space_group_name_Hall           '-P 2ybc'
loop_
_symmetry_equiv_pos_site_id
_symmetry_equiv_pos_as_xyz
1 x,y,z
2 x,1/2-y,1/2+z
3 -x,-y,-z
4 -x,1/2+y,1/2-z
_cell_length_a                   7.3350(2)
_cell_length_b                   10.3040(2)
_cell_length_c                   9.7550(2)
_cell_angle_alpha                90
_cell_angle_beta                 97.1410(10)
_cell_angle_gamma                90
_cell_volume                     731.562
loop_
_atom_site_label
_atom_site_type_symbol
_atom_site_fract_x
_atom_site_fract_y
_atom_site_fract_z
O1 O 0.35005(11) 0.80296(8) 0.08110(9)
O2 O -0.29777(11) 0.84565(8) 0.58278(8)
O3 O -0.29973(12) 1.00003(8) 0.42156(9)
O4 O 0.18156(11) 0.98291(8) 0.08887(8)
N1 N -0.17407(13) 0.89883(9) 0.17516(10)
C1 C 0.14041(15) 0.81314(11) 0.24859(11)
C2 C 0.22973(14) 0.87093(11) 0.12958(11)
C3 C -0.09014(15) 0.82427(11) 0.41528(11)
C4 C -0.02086(15) 0.88907(10) 0.29190(11)
C5 C -0.24213(15) 0.89628(11) 0.47689(11)
Li1 Li 0.4599(3) 0.63722(19) 0.1408(2)
H1 H 0.018(2) 0.9773(14) 0.3157(15)
H2 H -0.133(2) 0.7342(17) 0.3916(16)
H3 H 0.233(2) 0.8097(16) 0.3302(17)
H4 H 0.014(2) 0.8174(15) 0.4869(17)
H5 H -0.269(2) 0.9442(16) 0.2047(16)
H6 H -0.142(2) 0.9435(17) 0.1012(18)
H7 H 0.105(2) 0.7220(17) 0.2266(17)
H8 H -0.219(2) 0.8158(18) 0.1461(18)
O5 O 0.48528(13) 0.61085(9) 0.34400(9)
H9 H 0.585(3) 0.5704(19) 0.3726(19)
H10 H 0.437(3) 0.642(2) 0.420(2)
Li1A Li -0.5401(3) 0.86278(19) 0.6408(2)
Li1C Li -0.4599(3) 1.13722(19) 0.3592(2)
O2A O 0.70223(11) 0.65435(8) 0.08278(8)
O3C O 0.29973(12) 0.50003(8) 0.07844(9)
loop_
_geom_bond_atom_site_label_1
_geom_bond_atom_site_label_2
_geom_bond_site_symmetry_1
_geom_bond_site_symmetry_2
O1 C2 1_555 1_555
O2 C5 1_555 1_555
O3 C5 1_555 1_555
O4 C2 1_555 1_555
N1 C4 1_555 1_555
C1 C2 1_555 1_555
C3 C4 1_555 1_555
C4 C1 1_555 1_555
C5 C3 1_555 1_555
Li1 O1 1_555 1_555
H1 C4 1_555 1_555
H2 C3 1_555 1_555
H3 C1 1_555 1_555
H4 C3 1_555 1_555
H5 N1 1_555 1_555
H6 N1 1_555 1_555
H7 C1 1_555 1_555
H8 N1 1_555 1_555
O5 Li1 1_555 1_555
H9 O5 1_555 1_555
H10 O5 1_555 1_555
Li1A O2 1_555 1_555
Li1C O3 1_555 1_555
O2A Li1 1_555 1_555
O3C Li1 1_555 1_555

#END
