
#######################################################################
#
#                 Cambridge Crystallographic Data Centre
#                                CCDC 
#
#######################################################################
#
# If this CIF has been generated from an entry in the Cambridge 
# Structural Database, then it will include bibliographic, chemical, 
# crystal, experimental, refinement or atomic coordinate data resulting 
# from the CCDC's data processing and validation procedures.
#
#######################################################################

data_XOPGUF
_symmetry_cell_setting           triclinic
_symmetry_space_group_name_H-M   'P -1'
_symmetry_Int_Tables_number      2
_space_group_name_Hall           '-P 1'
loop_
_symmetry_equiv_pos_site_id
_symmetry_equiv_pos_as_xyz
1 x,y,z
2 -x,-y,-z
_cell_length_a                   10.6423(18)
_cell_length_b                   12.354(2)
_cell_length_c                   16.323(3)
_cell_angle_alpha                79.113(3)
_cell_angle_beta                 79.926(4)
_cell_angle_gamma                83.023(2)
_cell_volume                     2066.25
loop_
_atom_site_label
_atom_site_type_symbol
_atom_site_fract_x
_atom_site_fract_y
_atom_site_fract_z
C1 C 0.2944(7) 0.2601(6) 0.9565(4)
C2 C 0.3610(6) 0.3503(5) 0.9260(4)
C3 C 0.3780(6) 0.4223(6) 0.9793(4)
H1 H 0.4306 0.4794 0.9586
C4 C 0.3192(6) 0.4100(6) 1.0602(4)
H2 H 0.3269 0.4611 1.0937
C5 C 0.2471(6) 0.3207(6) 1.0934(5)
H3 H 0.2053 0.3127 1.1489
C6 C 0.2373(7) 0.2425(6) 1.0428(5)
C7 C 0.1719(7) 0.1431(6) 1.0811(4)
C8 C 0.2283(7) 0.0619(6) 1.1423(4)
C9 C 0.1722(7) -0.0361(6) 1.1744(5)
C10 C 0.0541(7) -0.0512(6) 1.1511(5)
H4 H 0.0153 -0.1162 1.1734
C11 C -0.0028(7) 0.0283(5) 1.0967(4)
H5 H -0.0821 0.0190 1.0837
C12 C 0.0573(6) 0.1242(6) 1.0601(4)
H6 H 0.0193 0.1765 1.0207
C13 C 0.2833(6) 0.1759(6) 0.9029(4)
C14 C 0.4324(7) 0.3748(6) 0.8369(4)
C15 C 0.3484(7) 0.0884(6) 1.1666(4)
C16 C 0.2386(7) -0.1297(6) 1.2303(4)
C17 C 0.1015(7) 0.7422(6) 0.5547(5)
C18 C 0.1690(7) 0.7205(6) 0.6227(5)
C19 C 0.1061(7) 0.7556(5) 0.6972(4)
H7 H 0.1498 0.7441 0.7432
C20 C -0.0118(6) 0.8043(6) 0.7057(4)
H8 H -0.0498 0.8247 0.7570
C21 C -0.0789(6) 0.8249(6) 0.6379(4)
H9 H -0.1618 0.8596 0.6436
C22 C -0.0215(7) 0.7935(6) 0.5608(4)
C23 C -0.0890(6) 0.8221(6) 0.4875(4)
C24 C -0.2010(7) 0.7734(6) 0.4853(5)
C25 C -0.2639(7) 0.8067(6) 0.4154(5)
C26 C -0.2139(6) 0.8857(6) 0.3483(4)
H10 H -0.2534 0.9044 0.3004
C27 C -0.1085(7) 0.9354(6) 0.3520(4)
H11 H -0.0786 0.9906 0.3083
C28 C -0.0470(6) 0.9041(6) 0.4202(5)
H12 H 0.0254 0.9383 0.4222
C29 C 0.1678(7) 0.7083(6) 0.4732(4)
C30 C 0.2981(7) 0.6554(6) 0.6204(5)
C31 C -0.2416(7) 0.6847(6) 0.5587(4)
C32 C -0.3789(7) 0.7541(6) 0.4075(5)
Cd1 Cd 0.54890(5) 0.58026(4) 0.70103(3)
Cd2 Cd -0.60663(5) 0.71062(4) 0.32235(3)
Cd3 Cd 0.5000 0.5000 0.5000
Cd4 Cd 0.5000 0.0000 1.0000
Cd5 Cd -0.52998(5) 0.98733(4) 0.31493(3)
Cd6 Cd 0.0000 0.5000 0.5000
O1 O 0.2191(5) 0.2024(4) 0.8452(3)
O2 O 0.3432(4) 0.0781(4) 0.9198(3)
O3 O 0.4230(5) 0.4722(5) 0.7974(3)
O4 O 0.4998(5) 0.2951(4) 0.8092(3)
O5 O 0.4467(5) 0.0871(4) 1.1121(3)
O6 O 0.3434(4) 0.1162(4) 1.2367(3)
O7 O 0.3387(4) -0.1112(4) 1.2554(3)
O8 O 0.2032(4) -0.2249(4) 1.2436(3)
O9 O 0.1306(5) 0.6355(4) 0.4438(3)
O10 O 0.2593(4) 0.7642(4) 0.4351(3)
O11 O 0.3212(4) 0.5819(4) 0.5789(3)
O12 O 0.3717(5) 0.6843(4) 0.6647(3)
O13 O -0.1757(5) 0.5979(4) 0.5709(3)
O14 O -0.3451(4) 0.7109(4) 0.6074(3)
O15 O -0.3935(4) 0.6575(4) 0.4463(3)
O16 O -0.4555(5) 0.8056(4) 0.3573(3)
O18 O 0.6016(5) 0.4592(4) 0.6129(3)
H17 H 0.691(8) 0.470(7) 0.589(5)
O19 O 0.7506(5) 0.4983(5) 0.7499(3)
H18 H 0.749(8) 0.429(8) 0.753(5)
H19 H 0.809(8) 0.518(7) 0.709(6)
O20 O 0.5263(4) 0.7011(4) 0.7910(3)
H20 H 0.448(8) 0.727(7) 0.793(5)
H21 H 0.530(7) 0.660(7) 0.839(5)
O21 O 0.6084(4) 0.1502(4) 0.9433(3)
H22 H 0.628(7) 0.179(6) 0.982(5)
H23 H 0.561(7) 0.196(7) 0.914(5)
O22 O -0.3637(5) 1.0305(5) 0.2101(3)
H24 H -0.350(8) 0.976(8) 0.174(6)
H25 H -0.383(8) 1.102(8) 0.178(6)
O23 O -0.6690(5) 0.9597(5) 0.4394(3)
H26 H -0.632(8) 0.981(7) 0.483(5)
H27 H -0.683(8) 0.883(7) 0.454(5)
O24 O -0.4737(5) 1.1099(4) 0.3893(3)
H28 H -0.407(7) 1.152(6) 0.354(5)
H29 H -0.547(8) 1.159(7) 0.404(5)
O25 O -0.0969(5) 0.5341(4) 0.3861(3)
H30 H -0.092(7) 0.610(7) 0.360(5)
H31 H -0.185(8) 0.520(6) 0.403(5)
C1A C -0.2944(7) 0.7399(6) 0.0435(4)
C2A C -0.3610(6) 0.6497(5) 0.0740(4)
C3A C -0.3780(6) 0.5777(6) 0.0207(4)
H1A H -0.4306 0.5206 0.0414
C4A C -0.3192(6) 0.5900(6) -0.0602(4)
H2A H -0.3269 0.5389 -0.0937
C5A C -0.2471(6) 0.6793(6) -0.0934(5)
H3A H -0.2053 0.6873 -0.1489
C6A C -0.2373(7) 0.7575(6) -0.0428(5)
C7A C -0.1719(7) 0.8569(6) -0.0811(4)
C8A C -0.2283(7) 0.9381(6) -0.1423(4)
C9A C -0.1722(7) 1.0361(6) -0.1744(5)
C10A C -0.0541(7) 1.0512(6) -0.1511(5)
H4A H -0.0153 1.1162 -0.1734
C11A C 0.0028(7) 0.9717(5) -0.0967(4)
H5A H 0.0821 0.9810 -0.0837
C12A C -0.0573(6) 0.8758(6) -0.0601(4)
H6A H -0.0193 0.8235 -0.0207
C13A C -0.2833(6) 0.8241(6) 0.0971(4)
C14A C -0.4324(7) 0.6252(6) 0.1631(4)
C15A C -0.3484(7) 0.9116(6) -0.1666(4)
C16A C -0.2386(7) 1.1297(6) -0.2303(4)
C17A C 0.8985(7) 0.2578(6) 0.4453(5)
C18A C 0.8310(7) 0.2795(6) 0.3773(5)
C19A C 0.8939(7) 0.2444(5) 0.3028(4)
H7A H 0.8502 0.2559 0.2568
C20A C 1.0118(6) 0.1957(6) 0.2943(4)
H8A H 1.0498 0.1753 0.2430
C21A C 1.0789(6) 0.1751(6) 0.3621(4)
H9A H 1.1618 0.1404 0.3564
C22A C 1.0215(7) 0.2065(6) 0.4392(4)
C23A C 1.0890(6) 0.1779(6) 0.5125(4)
C24A C 1.2010(7) 0.2266(6) 0.5147(5)
C25A C 1.2639(7) 0.1933(6) 0.5846(5)
C26A C 1.2139(6) 0.1143(6) 0.6517(4)
H10A H 1.2534 0.0956 0.6996
C27A C 1.1085(7) 0.0646(6) 0.6480(4)
H11A H 1.0786 0.0094 0.6917
C28A C 1.0470(6) 0.0959(6) 0.5798(5)
H12A H 0.9746 0.0617 0.5778
C29A C 0.8322(7) 0.2917(6) 0.5268(4)
C30A C 0.7019(7) 0.3446(6) 0.3796(5)
C31A C 1.2416(7) 0.3153(6) 0.4413(4)
C32A C 1.3789(7) 0.2459(6) 0.5925(5)
Cd1A Cd 0.45110(5) 0.41974(4) 0.29897(3)
Cd1_2 Cd -0.45110(5) 0.58026(4) 0.70103(3)
Cd1A_2 Cd 1.45110(5) 0.41974(4) 0.29897(3)
Cd1A_3 Cd -0.54890(5) 0.41974(4) 0.29897(3)
Cd2A Cd 1.60663(5) 0.28938(4) 0.67765(3)
Cd2A_2 Cd 0.60663(5) 0.28938(4) 0.67765(3)
Cd2_2 Cd 0.39337(5) -0.28938(4) 1.32235(3)
Cd2_3 Cd 0.39337(5) 0.71062(4) 0.32235(3)
Cd2A_3 Cd -0.39337(5) 1.28938(4) -0.32235(3)
Cd3_2 Cd -0.5000 0.5000 0.5000
Cd3_3 Cd 1.5000 0.5000 0.5000
Cd4_2 Cd -0.5000 1.0000 0.0000
Cd5A Cd 1.52998(5) 0.01267(4) 0.68507(3)
Cd5_2 Cd 0.47002(5) -0.01267(4) 1.31493(3)
Cd5A_2 Cd -0.47002(5) 1.01267(4) -0.31493(3)
Cd6_2 Cd 1.0000 0.5000 0.5000
O1A O -0.2191(5) 0.7976(4) 0.1548(3)
O2A O -0.3432(4) 0.9219(4) 0.0802(3)
O2A_2 O 0.6568(4) -0.0781(4) 1.0802(3)
O3A O -0.4230(5) 0.5278(5) 0.2026(3)
O3A_2 O 0.5770(5) 0.5278(5) 0.2026(3)
O4A O -0.4998(5) 0.7049(4) 0.1908(3)
O4_2 O 1.4998(5) 0.2951(4) 0.8092(3)
O5A O -0.4467(5) 0.9129(4) -0.1121(3)
O5A_2 O 0.5533(5) -0.0871(4) 0.8879(3)
O6A O -0.3434(4) 0.8838(4) -0.2367(3)
O6_2 O -0.6566(4) 1.1162(4) 0.2367(3)
O6A_2 O 1.6566(4) -0.1162(4) 0.7633(3)
O7A O -0.3387(4) 1.1112(4) -0.2554(3)
O7_2 O -0.6613(4) 0.8888(4) 0.2554(3)
O7A_2 O 1.6613(4) 0.1112(4) 0.7446(3)
O8A O -0.2032(4) 1.2249(4) -0.2436(3)
O8_2 O -0.7968(4) 0.7751(4) 0.2436(3)
O8A_2 O 1.7968(4) 0.2249(4) 0.7564(3)
O9A O 0.8694(5) 0.3645(4) 0.5562(3)
O9A_2 O -0.1306(5) 0.3645(4) 0.5562(3)
O10A O 0.7407(4) 0.2358(4) 0.5649(3)
O10_2 O -0.7407(4) 0.7642(4) 0.4351(3)
O10A_2 O 1.7407(4) 0.2358(4) 0.5649(3)
O11A O 0.6788(4) 0.4181(4) 0.4211(3)
O12A O 0.6283(5) 0.3157(4) 0.3353(3)
O13A O 1.1757(5) 0.4021(4) 0.4291(3)
O13A_2 O 0.1757(5) 0.4021(4) 0.4291(3)
O14A O 1.3451(4) 0.2891(4) 0.3926(3)
O14_2 O 0.6549(4) 0.7109(4) 0.6074(3)
O14A_2 O 0.3451(4) 0.2891(4) 0.3926(3)
O15A O 1.3935(4) 0.3425(4) 0.5537(3)
O15_2 O 0.6065(4) 0.6575(4) 0.4463(3)
O15A_2 O 0.3935(4) 0.3425(4) 0.5537(3)
O16A O 1.4555(5) 0.1944(4) 0.6427(3)
O18A O 0.3984(5) 0.5408(4) 0.3871(3)
O18A_2 O -0.6016(5) 0.5408(4) 0.3871(3)
O18_2 O 1.6016(5) 0.4592(4) 0.6129(3)
H17A H 0.309(8) 0.530(7) 0.411(5)
H17A_2 H -0.691(8) 0.530(7) 0.411(5)
H17_2 H 1.691(8) 0.470(7) 0.589(5)
O19A O 0.2494(5) 0.5017(5) 0.2501(3)
H18A H 0.251(8) 0.571(8) 0.247(5)
H19A H 0.191(8) 0.482(7) 0.291(6)
O20A O 0.4737(4) 0.2989(4) 0.2090(3)
H20A H 0.552(8) 0.273(7) 0.207(5)
H21A H 0.470(7) 0.340(7) 0.161(5)
O21A O 0.3916(4) -0.1502(4) 1.0567(3)
H22A H 0.372(7) -0.179(6) 1.018(5)
H23A H 0.439(7) -0.196(7) 1.086(5)
O22A O 1.3637(5) -0.0305(5) 0.7899(3)
H24A H 1.350(8) 0.024(8) 0.826(6)
H25A H 1.383(8) -0.102(8) 0.822(6)
O23A O 1.6690(5) 0.0403(5) 0.5606(3)
H26A H 1.632(8) 0.019(7) 0.517(5)
H27A H 1.683(8) 0.117(7) 0.546(5)
O24A O 1.4737(5) -0.1099(4) 0.6107(3)
H28A H 1.407(7) -0.152(6) 0.646(5)
H29A H 1.547(8) -0.159(7) 0.596(5)
O25A O 0.0969(5) 0.4659(4) 0.6139(3)
H30A H 0.092(7) 0.390(7) 0.640(5)
H31A H 0.185(8) 0.480(6) 0.597(5)
C33 C 0.2175(6) 0.6339(6) 0.8896(4)
H13 H 0.2617 0.6492 0.8349
C34 C 0.1214(6) 0.5598(5) 0.9101(4)
H14 H 0.1055 0.5237 0.8684
C35 C 0.0509(6) 0.5387(6) 0.9886(5)
C36 C 0.0778(7) 0.5968(6) 1.0488(4)
H15 H 0.0321 0.5866 1.1033
C37 C 0.1704(7) 0.6675(6) 1.0271(5)
H16 H 0.1838 0.7080 1.0669
N1 N 0.2433(5) 0.6818(4) 0.9512(3)
O17 O 0.3445(5) 0.7419(4) 0.9325(3)
C33A C -0.2175(6) 0.3661(6) 1.1104(4)
H13A H -0.2617 0.3508 1.1651
C34A C -0.1214(6) 0.4402(5) 1.0899(4)
H14A H -0.1055 0.4763 1.1316
C35A C -0.0509(6) 0.4613(6) 1.0114(5)
C36A C -0.0778(7) 0.4032(6) 0.9512(4)
H15A H -0.0321 0.4134 0.8967
C37A C -0.1704(7) 0.3325(6) 0.9729(5)
H16A H -0.1838 0.2920 0.9331
N1A N -0.2433(5) 0.3182(4) 1.0488(3)
O17A O -0.3445(5) 0.2581(4) 1.0675(3)
O26 O 0.9681(5) 0.6702(5) 0.2409(3)
H32 H 0.935(8) 0.736(8) 0.245(5)
H33 H 1.049(9) 0.670(7) 0.230(5)
loop_
_geom_bond_atom_site_label_1
_geom_bond_atom_site_label_2
_geom_bond_site_symmetry_1
_geom_bond_site_symmetry_2
C1 C2 1_555 1_555
C2 C3 1_555 1_555
C3 H1 1_555 1_555
C4 C3 1_555 1_555
H2 C4 1_555 1_555
C5 C4 1_555 1_555
H3 C5 1_555 1_555
C6 C1 1_555 1_555
C7 C6 1_555 1_555
C8 C7 1_555 1_555
C9 C8 1_555 1_555
C10 C9 1_555 1_555
H4 C10 1_555 1_555
C11 C10 1_555 1_555
H5 C11 1_555 1_555
C12 C7 1_555 1_555
H6 C12 1_555 1_555
C13 C1 1_555 1_555
C14 C2 1_555 1_555
C15 C8 1_555 1_555
C16 C9 1_555 1_555
C17 C18 1_555 1_555
C18 C19 1_555 1_555
C19 H7 1_555 1_555
C20 C19 1_555 1_555
H8 C20 1_555 1_555
C21 C20 1_555 1_555
H9 C21 1_555 1_555
C22 C17 1_555 1_555
C23 C22 1_555 1_555
C24 C23 1_555 1_555
C25 C24 1_555 1_555
C26 C25 1_555 1_555
H10 C26 1_555 1_555
C27 C26 1_555 1_555
H11 C27 1_555 1_555
C28 C23 1_555 1_555
H12 C28 1_555 1_555
C29 C17 1_555 1_555
C30 C18 1_555 1_555
C31 C24 1_555 1_555
C32 C25 1_555 1_555
C33 H13 1_555 1_555
C34 C33 1_555 1_555
H14 C34 1_555 1_555
C35 C34 1_555 1_555
C36 C35 1_555 1_555
H15 C36 1_555 1_555
C37 C36 1_555 1_555
H16 C37 1_555 1_555
Cd1 O3 1_555 1_555
Cd2 O16 1_555 1_555
Cd3 O11 1_555 1_555
Cd4 O2 1_555 1_555
Cd5 O16 1_555 1_555
Cd6 O9 1_555 1_555
N1 C33 1_555 1_555
O1 C13 1_555 1_555
O2 C13 1_555 1_555
O3 C14 1_555 1_555
O4 C14 1_555 1_555
O5 C15 1_555 1_555
O6 C15 1_555 1_555
O7 C16 1_555 1_555
O8 C16 1_555 1_555
O9 C29 1_555 1_555
O10 C29 1_555 1_555
O11 C30 1_555 1_555
O12 C30 1_555 1_555
O13 C31 1_555 1_555
O14 C31 1_555 1_555
O15 C32 1_555 1_555
O16 C32 1_555 1_555
O17 N1 1_555 1_555
O18 Cd1 1_555 1_555
H17 O18 1_555 1_555
O19 Cd1 1_555 1_555
H18 O19 1_555 1_555
H19 O19 1_555 1_555
O20 Cd1 1_555 1_555
H20 O20 1_555 1_555
H21 O20 1_555 1_555
O21 Cd4 1_555 1_555
H22 O21 1_555 1_555
H23 O21 1_555 1_555
O22 Cd5 1_555 1_555
H24 O22 1_555 1_555
H25 O22 1_555 1_555
O23 Cd5 1_555 1_555
H26 O23 1_555 1_555
H27 O23 1_555 1_555
O24 Cd5 1_555 1_555
H28 O24 1_555 1_555
H29 O24 1_555 1_555
O25 Cd6 1_555 1_555
H30 O25 1_555 1_555
H31 O25 1_555 1_555
O26 H32 1_555 1_555
H33 O26 1_555 1_555
C1A C2A 1_555 1_555
C2A C3A 1_555 1_555
C3A H1A 1_555 1_555
C4A C3A 1_555 1_555
H2A C4A 1_555 1_555
C5A C4A 1_555 1_555
H3A C5A 1_555 1_555
C6A C1A 1_555 1_555
C7A C6A 1_555 1_555
C8A C7A 1_555 1_555
C9A C8A 1_555 1_555
C10A C9A 1_555 1_555
H4A C10A 1_555 1_555
C11A C10A 1_555 1_555
H5A C11A 1_555 1_555
C12A C7A 1_555 1_555
H6A C12A 1_555 1_555
C13A C1A 1_555 1_555
C14A C2A 1_555 1_555
C15A C8A 1_555 1_555
C16A C9A 1_555 1_555
C17A C18A 1_555 1_555
C18A C19A 1_555 1_555
C19A H7A 1_555 1_555
C20A C19A 1_555 1_555
H8A C20A 1_555 1_555
C21A C20A 1_555 1_555
H9A C21A 1_555 1_555
C22A C17A 1_555 1_555
C23A C22A 1_555 1_555
C24A C23A 1_555 1_555
C25A C24A 1_555 1_555
C26A C25A 1_555 1_555
H10A C26A 1_555 1_555
C27A C26A 1_555 1_555
H11A C27A 1_555 1_555
C28A C23A 1_555 1_555
H12A C28A 1_555 1_555
C29A C17A 1_555 1_555
C30A C18A 1_555 1_555
C31A C24A 1_555 1_555
C32A C25A 1_555 1_555
C33A H13A 1_555 1_555
C34A C33A 1_555 1_555
H14A C34A 1_555 1_555
C35A C35 1_555 1_555
C36A C35A 1_555 1_555
H15A C36A 1_555 1_555
C37A C36A 1_555 1_555
H16A C37A 1_555 1_555
Cd1A O3A_2 1_555 1_555
Cd1_2 O14 1_555 1_555
Cd1A_2 O14A 1_555 1_555
Cd1A_3 O3A 1_555 1_555
Cd2A O4_2 1_555 1_555
Cd2A_2 O4 1_555 1_555
Cd2_2 O7 1_555 1_555
Cd2_3 O10 1_555 1_555
Cd2A_3 O7A 1_555 1_555
Cd3_2 O15 1_555 1_555
Cd3_3 O15A 1_555 1_555
Cd4_2 O2A 1_555 1_555
Cd5A O6A_2 1_555 1_555
Cd5_2 O6 1_555 1_555
Cd5A_2 O6A 1_555 1_555
Cd6_2 O9A 1_555 1_555
N1A C33A 1_555 1_555
O1A C13A 1_555 1_555
O2A C13A 1_555 1_555
O2A_2 Cd4 1_555 1_555
O3A C14A 1_555 1_555
O4A Cd2 1_555 1_555
O5A C15A 1_555 1_555
O5A_2 Cd4 1_555 1_555
O6A C15A 1_555 1_555
O6_2 Cd5 1_555 1_555
O7A C16A 1_555 1_555
O7_2 Cd2 1_555 1_555
O7A_2 Cd2A 1_555 1_555
O8A C16A 1_555 1_555
O8_2 Cd2 1_555 1_555
O8A_2 Cd2A 1_555 1_555
O9A C29A 1_555 1_555
O9A_2 Cd6 1_555 1_555
O10A C29A 1_555 1_555
O10_2 Cd2 1_555 1_555
O10A_2 Cd2A 1_555 1_555
O11A Cd3 1_555 1_555
O12A C30A 1_555 1_555
O13A C31A 1_555 1_555
O13A_2 Cd6 1_555 1_555
O14A C31A 1_555 1_555
O14_2 Cd1 1_555 1_555
O14A_2 Cd1A 1_555 1_555
O15A C32A 1_555 1_555
O15_2 Cd3 1_555 1_555
O15A_2 Cd3 1_555 1_555
O16A C32A 1_555 1_555
O17A N1A 1_555 1_555
O18A Cd3 1_555 1_555
O18A_2 Cd2 1_555 1_555
O18_2 Cd2A 1_555 1_555
H17A O18A 1_555 1_555
H17A_2 O18A_2 1_555 1_555
H17_2 O18_2 1_555 1_555
O19A Cd1A 1_555 1_555
H18A O19A 1_555 1_555
H19A O19A 1_555 1_555
O20A Cd1A 1_555 1_555
H20A O20A 1_555 1_555
H21A O20A 1_555 1_555
O21A Cd4 1_555 1_555
H22A O21A 1_555 1_555
H23A O21A 1_555 1_555
O22A Cd5A 1_555 1_555
H24A O22A 1_555 1_555
H25A O22A 1_555 1_555
O23A Cd5A 1_555 1_555
H26A O23A 1_555 1_555
H27A O23A 1_555 1_555
O24A Cd5A 1_555 1_555
H28A O24A 1_555 1_555
H29A O24A 1_555 1_555
O25A Cd6 1_555 1_555
H30A O25A 1_555 1_555
H31A O25A 1_555 1_555
C5 C6 1_555 1_555
C11 C12 1_555 1_555
C21 C22 1_555 1_555
C27 C28 1_555 1_555
C37 N1 1_555 1_555
Cd1 O12 1_555 1_555
Cd3 O18 1_555 1_555
Cd4 O5 1_555 1_555
Cd5 O7_2 1_555 1_555
Cd6 O13 1_555 1_555
O7 Cd5_2 1_555 1_555
O8 Cd2_2 1_555 1_555
O18 Cd2A_2 1_555 1_555
C5A C6A 1_555 1_555
C11A C12A 1_555 1_555
C14A O4A 1_555 1_555
C21A C22A 1_555 1_555
C27A C28A 1_555 1_555
C30A O11A 1_555 1_555
C34A C35A 1_555 1_555
C37A N1A 1_555 1_555
Cd1A O12A 1_555 1_555
Cd1A O18A 1_555 1_555
Cd1A_3 O18A_2 1_555 1_555
Cd2A O16A 1_555 1_555
Cd2A_2 O10A 1_555 1_555
Cd2_3 O18A 1_555 1_555
Cd2A_3 O8A 1_555 1_555
Cd3_2 O18A_2 1_555 1_555
Cd3_3 O18_2 1_555 1_555
Cd4_2 O5A 1_555 1_555
Cd5A O7A_2 1_555 1_555
Cd5A O16A 1_555 1_555
Cd5A_2 O7A 1_555 1_555
Cd6_2 O13A 1_555 1_555

#END
