
#######################################################################
#
#                 Cambridge Crystallographic Data Centre
#                                CCDC 
#
#######################################################################
#
# If this CIF has been generated from an entry in the Cambridge 
# Structural Database, then it will include bibliographic, chemical, 
# crystal, experimental, refinement or atomic coordinate data resulting 
# from the CCDC's data processing and validation procedures.
#
#######################################################################

data_XOPHOA
_symmetry_cell_setting           orthorhombic
_symmetry_space_group_name_H-M   'F d d 2'
_symmetry_Int_Tables_number      43
_space_group_name_Hall           'F 2 -2d'
loop_
_symmetry_equiv_pos_site_id
_symmetry_equiv_pos_as_xyz
1 x,y,z
2 -x,-y,z
3 1/4-x,1/4+y,1/4+z
4 1/4+x,1/4-y,1/4+z
5 x,1/2+y,1/2+z
6 -x,1/2-y,1/2+z
7 1/4-x,3/4+y,3/4+z
8 1/4+x,3/4-y,3/4+z
9 1/2+x,y,1/2+z
10 1/2-x,-y,1/2+z
11 3/4-x,1/4+y,3/4+z
12 3/4+x,1/4-y,3/4+z
13 1/2+x,1/2+y,z
14 1/2-x,1/2-y,z
15 3/4-x,3/4+y,1/4+z
16 3/4+x,3/4-y,1/4+z
_cell_length_a                   20.008(2)
_cell_length_b                   53.655(6)
_cell_length_c                   8.9809(10)
_cell_angle_alpha                90
_cell_angle_beta                 90
_cell_angle_gamma                90
_cell_volume                     9641.26
loop_
_atom_site_label
_atom_site_type_symbol
_atom_site_fract_x
_atom_site_fract_y
_atom_site_fract_z
C1 C 0.0382(4) -0.03910(14) 0.1796(10)
C2 C 0.0790(3) -0.02040(12) 0.2652(10)
C3 C 0.0733(5) -0.01819(18) 0.4140(10)
H1 H 0.0423 -0.0279 0.4648
C4 C 0.1131(5) -0.00161(16) 0.4925(10)
H2 H 0.1080 -0.0001 0.5950
C5 C 0.1586(4) 0.01216(13) 0.4223(9)
C6 C 0.1655(3) 0.01068(11) 0.2696(11)
H3 H 0.1968 0.0204 0.2196
C7 C 0.1244(4) -0.00566(13) 0.1932(8)
H4 H 0.1279 -0.0067 0.0901
C8 C 0.2134(4) 0.05108(13) 0.4670(7)
C9 C 0.2527(3) 0.12714(13) 0.3680(7)
C10 C 0.1625(3) 0.06592(14) 0.4080(7)
H5 H 0.1205 0.0593 0.3886
C11 C 0.1760(3) 0.09032(13) 0.3798(7)
H6 H 0.1423 0.1004 0.3414
C12 C 0.2387(3) 0.10080(12) 0.4067(7)
C13 C 0.2885(3) 0.08559(13) 0.4648(7)
H7 H 0.3309 0.0921 0.4822
C14 C 0.2756(4) 0.06119(14) 0.4964(8)
H8 H 0.3089 0.0513 0.5379
C15 C 0.2746(4) 0.16995(18) -0.0980(12)
H9 H 0.3117 0.1804 -0.1023
C16 C 0.2454(4) 0.15929(16) -0.2163(12)
H10 H 0.2574 0.1612 -0.3158
C17 C 0.1951(4) 0.14860(12) -0.0094(9)
H11 H 0.1650 0.1412 0.0559
C18 C 0.1466(6) 0.1313(2) -0.2540(15)
H12 H 0.1701 0.1227 -0.3334
H13 H 0.1247 0.1188 -0.1929
C19 C 0.0614(13) 0.1711(4) -0.362(3)
H14 H 0.0163 0.1675 -0.3954
H15 H 0.0853 0.1792 -0.4421
C20 C 0.0955(8) 0.1481(3) -0.319(2)
H16 H 0.0572 0.1403 -0.2716
H17 H 0.0957 0.1407 -0.4179
C21 C -0.1093(5) 0.20900(16) -0.3624(10)
H18 H -0.1383 0.2206 -0.4044
C22 C -0.0755(4) 0.17802(18) -0.2481(13)
H19 H -0.0723 0.1634 -0.1930
C23 C -0.0458(6) 0.21000(18) -0.3708(12)
H20 H -0.0202 0.2222 -0.4176
C24 C 0.0595(9) 0.1874(4) -0.229(3)
H21 H 0.0870 0.2023 -0.2339
H22 H 0.0634 0.1789 -0.1335
N1 N 0.2423(3) 0.16335(11) 0.0289(8)
N2 N 0.1953(3) 0.14531(11) -0.1620(8)
N3 N -0.1289(3) 0.18832(11) -0.2821(7)
N4 N -0.0242(4) 0.1905(2) -0.3003(14)
O1 O 0.0016(3) -0.05386(10) 0.2480(6)
O2 O 0.0465(2) -0.04005(8) 0.0386(7)
O4 O 0.3103(2) 0.13502(8) 0.3628(5)
O5 O 0.2037(3) 0.14100(9) 0.3396(6)
O6 O 0.2023(3) 0.02659(9) 0.5077(6)
Cd1 Cd 0.26791(2) 0.174411(9) 0.26799(7)
C1B C 0.2118(4) 0.21090(14) 0.4296(10)
C2B C 0.1710(3) 0.22960(12) 0.5152(10)
C3B C 0.1767(5) 0.23181(18) 0.6640(10)
H1B H 0.2077 0.2221 0.7148
C4B C 0.1369(5) 0.24839(16) 0.7425(10)
H2B H 0.1420 0.2499 0.8450
C5B C 0.0914(4) 0.26216(13) 0.6723(9)
C6B C 0.0845(3) 0.26068(11) 0.5196(11)
H3B H 0.0532 0.2704 0.4696
C7B C 0.1256(4) 0.24434(13) 0.4432(8)
H4B H 0.1221 0.2433 0.3401
C8B C 0.0366(4) 0.30108(13) 0.7170(7)
C9B C -0.0027(3) 0.37714(13) 0.6180(7)
C10B C 0.0875(3) 0.31592(14) 0.6580(7)
H5B H 0.1295 0.3093 0.6386
C11B C 0.0740(3) 0.34032(13) 0.6298(7)
H6B H 0.1077 0.3504 0.5914
C12B C 0.0113(3) 0.35080(12) 0.6567(7)
C13B C -0.0385(3) 0.33559(13) 0.7148(7)
H7B H -0.0809 0.3421 0.7322
C14B C -0.0256(4) 0.31119(14) 0.7464(8)
H8B H -0.0589 0.3013 0.7879
C15H C 0.7746(4) 0.16995(18) 0.4020(12)
H9H H 0.8117 0.1804 0.3977
C16H C 0.7454(4) 0.15929(16) 0.2837(12)
H10H H 0.7574 0.1612 0.1842
C17H C 0.6951(4) 0.14860(12) 0.4906(9)
H11H H 0.6650 0.1412 0.5559
C18H C 0.6466(6) 0.1313(2) 0.2460(15)
H12H H 0.6701 0.1227 0.1666
H13H H 0.6247 0.1188 0.3071
C19H C 0.5614(13) 0.1711(4) 0.138(3)
H14H H 0.5163 0.1675 0.1046
H15H H 0.5853 0.1792 0.0579
C20H C 0.5955(8) 0.1481(3) 0.181(2)
H16H H 0.5572 0.1403 0.2284
H17H H 0.5957 0.1407 0.0821
C21H C 0.3907(5) 0.20900(16) 0.1376(10)
H18H H 0.3617 0.2206 0.0956
C22H C 0.4245(4) 0.17802(18) 0.2519(13)
H19H H 0.4277 0.1634 0.3070
C23H C 0.4542(6) 0.21000(18) 0.1292(12)
H20H H 0.4798 0.2222 0.0824
C24H C 0.5595(9) 0.1874(4) 0.271(3)
H21H H 0.5870 0.2023 0.2661
H22H H 0.5634 0.1789 0.3665
N1H N 0.7423(3) 0.16335(11) 0.5289(8)
N2H N 0.6953(3) 0.14531(11) 0.3380(8)
N3H N 0.3711(3) 0.18832(11) 0.2179(7)
N3_2 N 0.8711(3) 0.18832(11) 0.7179(7)
N4H N 0.4758(4) 0.1905(2) 0.1997(14)
O1B O 0.2484(3) 0.19614(10) 0.4980(6)
O1J O 0.7484(3) 0.19614(10) 0.9980(6)
O2B O 0.2035(2) 0.20995(8) 0.2886(7)
O2J O 0.7035(2) 0.20995(8) 0.7886(7)
O4B O -0.0603(2) 0.38502(8) 0.6128(5)
O4H O 0.8103(2) 0.13502(8) 0.8628(5)
O5B O 0.0463(3) 0.39100(9) 0.5896(6)
O5H O 0.7037(3) 0.14100(9) 0.8396(6)
O6B O 0.0477(3) 0.27659(9) 0.7577(6)
Cd1H Cd 0.76791(2) 0.174411(9) 0.76799(7)
Cd1H_2 Cd -0.23209(2) 0.174411(9) -0.23201(7)
Cd1F Cd -0.01791(2) -0.075589(9) 0.01799(7)
Cd1B Cd -0.01791(2) 0.424411(9) 0.51799(7)
O3 O 0.2500 0.2500 0.0896(10)
loop_
_geom_bond_atom_site_label_1
_geom_bond_atom_site_label_2
_geom_bond_site_symmetry_1
_geom_bond_site_symmetry_2
C1 C2 1_555 1_555
C2 C3 1_555 1_555
C3 H1 1_555 1_555
C4 C3 1_555 1_555
H2 C4 1_555 1_555
C5 C4 1_555 1_555
C6 C5 1_555 1_555
H3 C6 1_555 1_555
C7 C2 1_555 1_555
H4 C7 1_555 1_555
C8 C10 1_555 1_555
C9 C12 1_555 1_555
C10 H5 1_555 1_555
C11 C10 1_555 1_555
H6 C11 1_555 1_555
C12 C11 1_555 1_555
C13 C12 1_555 1_555
H7 C13 1_555 1_555
C14 C8 1_555 1_555
H8 C14 1_555 1_555
C15 H9 1_555 1_555
C16 C15 1_555 1_555
H10 C16 1_555 1_555
C17 H11 1_555 1_555
C18 H12 1_555 1_555
H13 C18 1_555 1_555
C19 H14 1_555 1_555
H15 C19 1_555 1_555
C20 C18 1_555 1_555
H16 C20 1_555 1_555
H17 C20 1_555 1_555
C21 H18 1_555 1_555
C22 H19 1_555 1_555
C23 C21 1_555 1_555
H20 C23 1_555 1_555
C24 C19 1_555 1_555
H21 C24 1_555 1_555
H22 C24 1_555 1_555
N1 C15 1_555 1_555
N2 C16 1_555 1_555
N3 C21 1_555 1_555
N4 C22 1_555 1_555
O1 C1 1_555 1_555
O2 C1 1_555 1_555
O4 C9 1_555 1_555
O5 C9 1_555 1_555
O6 C5 1_555 1_555
Cd1 N1 1_555 1_555
C1B C2B 1_555 1_555
C2B C3B 1_555 1_555
C3B H1B 1_555 1_555
C4B C3B 1_555 1_555
H2B C4B 1_555 1_555
C5B C4B 1_555 1_555
C6B C5B 1_555 1_555
H3B C6B 1_555 1_555
C7B C2B 1_555 1_555
H4B C7B 1_555 1_555
C8B C10B 1_555 1_555
C9B C12B 1_555 1_555
C10B H5B 1_555 1_555
C11B C10B 1_555 1_555
H6B C11B 1_555 1_555
C12B C11B 1_555 1_555
C13B C12B 1_555 1_555
H7B C13B 1_555 1_555
C14B C8B 1_555 1_555
H8B C14B 1_555 1_555
C15H H9H 1_555 1_555
C16H C15H 1_555 1_555
H10H C16H 1_555 1_555
C17H H11H 1_555 1_555
C18H H12H 1_555 1_555
H13H C18H 1_555 1_555
C19H H14H 1_555 1_555
H15H C19H 1_555 1_555
C20H C18H 1_555 1_555
H16H C20H 1_555 1_555
H17H C20H 1_555 1_555
C21H H18H 1_555 1_555
C22H H19H 1_555 1_555
C23H C21H 1_555 1_555
H20H C23H 1_555 1_555
C24H C19H 1_555 1_555
H21H C24H 1_555 1_555
H22H C24H 1_555 1_555
N1H C15H 1_555 1_555
N2H C16H 1_555 1_555
N3H Cd1 1_555 1_555
N3_2 Cd1H 1_555 1_555
N4H C22H 1_555 1_555
O1B Cd1 1_555 1_555
O1J Cd1H 1_555 1_555
O2B Cd1 1_555 1_555
O2J Cd1H 1_555 1_555
O4B C9B 1_555 1_555
O4H Cd1H 1_555 1_555
O5B C9B 1_555 1_555
O5H Cd1H 1_555 1_555
O6B C5B 1_555 1_555
Cd1H N1H 1_555 1_555
Cd1H_2 N3 1_555 1_555
Cd1F O1 1_555 1_555
Cd1B O4B 1_555 1_555
C6 C7 1_555 1_555
C8 O6 1_555 1_555
C13 C14 1_555 1_555
C17 N1 1_555 1_555
C17 N2 1_555 1_555
C18 N2 1_555 1_555
C19 C20 1_555 1_555
C22 N3 1_555 1_555
C23 N4 1_555 1_555
C24 N4 1_555 1_555
O2 Cd1F 1_555 1_555
O4 Cd1 1_555 1_555
O5 Cd1 1_555 1_555
C1B O1B 1_555 1_555
C1B O2B 1_555 1_555
C6B C7B 1_555 1_555
C8B O6B 1_555 1_555
C13B C14B 1_555 1_555
C17H N1H 1_555 1_555
C17H N2H 1_555 1_555
C18H N2H 1_555 1_555
C19H C20H 1_555 1_555
C21H N3H 1_555 1_555
C22H N3H 1_555 1_555
C23H N4H 1_555 1_555
C24H N4H 1_555 1_555
O5B Cd1B 1_555 1_555

#END
