
#######################################################################
#
#                 Cambridge Crystallographic Data Centre
#                                CCDC 
#
#######################################################################
#
# If this CIF has been generated from an entry in the Cambridge 
# Structural Database, then it will include bibliographic, chemical, 
# crystal, experimental, refinement or atomic coordinate data resulting 
# from the CCDC's data processing and validation procedures.
#
#######################################################################

data_XOPHIU
_symmetry_cell_setting           triclinic
_symmetry_space_group_name_H-M   'P -1'
_symmetry_Int_Tables_number      2
_space_group_name_Hall           '-P 1'
loop_
_symmetry_equiv_pos_site_id
_symmetry_equiv_pos_as_xyz
1 x,y,z
2 -x,-y,-z
_cell_length_a                   10.0622(6)
_cell_length_b                   11.1733(7)
_cell_length_c                   13.2450(8)
_cell_angle_alpha                89.4170(10)
_cell_angle_beta                 75.1850(10)
_cell_angle_gamma                76.9370(10)
_cell_volume                     1400.56
loop_
_atom_site_label
_atom_site_type_symbol
_atom_site_fract_x
_atom_site_fract_y
_atom_site_fract_z
C1 C -0.1228(4) 0.3220(4) -0.1664(4)
C2 C -0.0949(4) 0.2392(4) -0.0908(3)
C3 C -0.0946(4) 0.1162(4) -0.1077(4)
H1 H -0.0767 0.0599 -0.0579
C4 C -0.1209(4) 0.0773(4) -0.1978(4)
H2 H -0.1117 -0.0060 -0.2118
C5 C -0.1604(4) 0.1617(4) -0.2664(4)
H3 H -0.1841 0.1356 -0.3246
C6 C -0.1659(4) 0.2855(4) -0.2508(3)
C7 C -0.2325(4) 0.3765(4) -0.3168(3)
C8 C -0.3768(4) 0.4321(4) -0.2792(3)
C9 C -0.4481(4) 0.5131(4) -0.3393(3)
C10 C -0.3743(4) 0.5390(4) -0.4370(4)
H4 H -0.4210 0.5923 -0.4778
C11 C -0.2304(5) 0.4859(4) -0.4751(4)
H5 H -0.1812 0.5040 -0.5408
C12 C -0.1612(5) 0.4058(4) -0.4143(4)
H6 H -0.0651 0.3712 -0.4396
C13 C -0.0917(5) 0.4483(4) -0.1698(3)
C14 C -0.0787(4) 0.2809(5) 0.0117(4)
C15 C -0.4542(4) 0.4071(5) -0.1716(4)
C16 C -0.6056(5) 0.5653(5) -0.3014(4)
C17 C 0.1370(5) 0.2625(5) 0.3219(4)
H7 H 0.1966 0.3088 0.2835
N1 N 0.1722(4) 0.1821(3) 0.3898(3)
C18 C 0.0597(5) 0.1335(5) 0.4303(4)
H8 H 0.0541 0.0741 0.4799
C19 C -0.0436(5) 0.1878(5) 0.3846(4)
H9 H -0.1333 0.1721 0.3983
C20 C 0.3124(5) 0.1413(5) 0.4092(4)
H10 H 0.3634 0.2059 0.3919
H11 H 0.3650 0.0694 0.3639
C21 C 0.3030(5) 0.1104(5) 0.5211(4)
C22 C 0.2602(5) 0.2025(5) 0.5990(4)
H12 H 0.2372 0.2841 0.5819
C23 C 0.2512(5) 0.1752(5) 0.7010(4)
H13 H 0.2210 0.2387 0.7524
C24 C 0.2859(5) 0.0558(5) 0.7291(4)
C25 C 0.3258(5) -0.0377(5) 0.6521(4)
H14 H 0.3468 -0.1195 0.6693
C26 C 0.3341(5) -0.0084(5) 0.5495(4)
H15 H 0.3617 -0.0716 0.4980
C27 C 0.2716(5) 0.0258(5) 0.8421(4)
H16 H 0.2433 0.1020 0.8846
H17 H 0.1973 -0.0184 0.8639
N2 N 0.4020(4) -0.0482(3) 0.8615(3)
C28 C 0.5204(5) -0.0110(5) 0.8615(4)
H18 H 0.5374 0.0666 0.8471
C29 C 0.6095(5) -0.1096(5) 0.8869(4)
H19 H 0.6996 -0.1105 0.8933
C30 C 0.4209(5) -0.1625(5) 0.8855(4)
H20 H 0.3531 -0.2083 0.8909
Cd1 Cd -0.10605(3) 0.37488(3) 0.20688(3)
Cd2 Cd 0.61247(3) -0.38519(3) 0.97287(3)
N3 N 0.0054(4) 0.2691(4) 0.3154(3)
N4 N 0.5478(4) -0.2074(4) 0.9017(3)
O1 O 0.0359(3) 0.4481(3) -0.2086(3)
O2 O -0.1857(3) 0.5458(3) -0.1454(2)
O3 O -0.0706(3) 0.3896(3) 0.0245(3)
O4 O -0.0814(4) 0.2092(3) 0.0853(3)
O5 O -0.5063(3) 0.4987(3) -0.1046(2)
O6 O -0.4662(3) 0.3024(3) -0.1478(3)
O7 O -0.6574(3) 0.6703(3) -0.3198(3)
O8 O -0.6779(3) 0.4947(3) -0.2518(3)
O9 O 0.7633(3) -0.3460(3) 1.0675(2)
H21 H 0.8469 -0.3862 1.0389
H22 H 0.7373 -0.3683 1.1297
Cd1A Cd 0.10605(3) 0.62512(3) -0.20688(3)
Cd1A_2 Cd -0.89395(3) 0.62512(3) -0.20688(3)
Cd2_2 Cd -0.38753(3) 0.61481(3) -0.02713(3)
Cd2A Cd -0.61247(3) 0.38519(3) 0.02713(3)
O1A O -0.0359(3) 0.5519(3) 0.2086(3)
O2_2 O 0.8143(3) -0.4542(3) 0.8546(2)
O5_2 O 0.4937(3) -0.5013(3) 0.8954(2)
O5A O 0.5063(3) -0.4987(3) 1.1046(2)
O6A O 0.4662(3) -0.3024(3) 1.1478(3)
O7A O -0.3426(3) 0.3297(3) 0.3198(3)
O8A O -0.3221(3) 0.5053(3) 0.2518(3)
loop_
_geom_bond_atom_site_label_1
_geom_bond_atom_site_label_2
_geom_bond_site_symmetry_1
_geom_bond_site_symmetry_2
C1 C2 1_555 1_555
C2 C3 1_555 1_555
C3 H1 1_555 1_555
C4 C3 1_555 1_555
H2 C4 1_555 1_555
C5 C4 1_555 1_555
H3 C5 1_555 1_555
C6 C1 1_555 1_555
C7 C6 1_555 1_555
C8 C7 1_555 1_555
C9 C8 1_555 1_555
C10 C9 1_555 1_555
H4 C10 1_555 1_555
C11 C10 1_555 1_555
H5 C11 1_555 1_555
C12 C7 1_555 1_555
H6 C12 1_555 1_555
C13 C1 1_555 1_555
C14 C2 1_555 1_555
C15 C8 1_555 1_555
C16 C9 1_555 1_555
C17 H7 1_555 1_555
N1 C17 1_555 1_555
C18 N1 1_555 1_555
H8 C18 1_555 1_555
C19 C18 1_555 1_555
H9 C19 1_555 1_555
C20 N1 1_555 1_555
H10 C20 1_555 1_555
H11 C20 1_555 1_555
C21 C20 1_555 1_555
C22 C21 1_555 1_555
H12 C22 1_555 1_555
C23 C22 1_555 1_555
H13 C23 1_555 1_555
C24 C23 1_555 1_555
C25 C24 1_555 1_555
H14 C25 1_555 1_555
C26 C21 1_555 1_555
H15 C26 1_555 1_555
C27 C24 1_555 1_555
H16 C27 1_555 1_555
H17 C27 1_555 1_555
N2 C27 1_555 1_555
C28 N2 1_555 1_555
H18 C28 1_555 1_555
C29 C28 1_555 1_555
H19 C29 1_555 1_555
C30 N2 1_555 1_555
H20 C30 1_555 1_555
Cd1 N3 1_555 1_555
Cd2 N4 1_555 1_555
N3 C17 1_555 1_555
N4 C29 1_555 1_555
O1 C13 1_555 1_555
O2 C13 1_555 1_555
O3 C14 1_555 1_555
O4 C14 1_555 1_555
O5 C15 1_555 1_555
O6 C15 1_555 1_555
O7 C16 1_555 1_555
O8 C16 1_555 1_555
O9 Cd2 1_555 1_555
H21 O9 1_555 1_555
H22 O9 1_555 1_555
Cd1A O1 1_555 1_555
Cd1A_2 O7 1_555 1_555
Cd2_2 O2 1_555 1_555
Cd2A O5 1_555 1_555
O1A Cd1 1_555 1_555
O2_2 Cd2 1_555 1_555
O5_2 Cd2 1_555 1_555
O5A Cd2 1_555 1_555
O6A Cd2 1_555 1_555
O7A Cd1 1_555 1_555
O8A Cd1 1_555 1_555
C5 C6 1_555 1_555
C11 C12 1_555 1_555
C19 N3 1_555 1_555
C25 C26 1_555 1_555
C30 N4 1_555 1_555
Cd1 O3 1_555 1_555
Cd1 O4 1_555 1_555
O5 Cd2_2 1_555 1_555
O6 Cd2A 1_555 1_555
O8 Cd1A_2 1_555 1_555

#END
