
#######################################################################
#
#                 Cambridge Crystallographic Data Centre
#                                CCDC 
#
#######################################################################
#
# If this CIF has been generated from an entry in the Cambridge 
# Structural Database, then it will include bibliographic, chemical, 
# crystal, experimental, refinement or atomic coordinate data resulting 
# from the CCDC's data processing and validation procedures.
#
#######################################################################

data_XOPHAM
_symmetry_cell_setting           triclinic
_symmetry_space_group_name_H-M   'P -1'
_symmetry_Int_Tables_number      2
_space_group_name_Hall           '-P 1'
loop_
_symmetry_equiv_pos_site_id
_symmetry_equiv_pos_as_xyz
1 x,y,z
2 -x,-y,-z
_cell_length_a                   10.2134(4)
_cell_length_b                   11.7040(5)
_cell_length_c                   12.3421(5)
_cell_angle_alpha                79.7200(10)
_cell_angle_beta                 79.2680(10)
_cell_angle_gamma                72.6080(10)
_cell_volume                     1371.35
loop_
_atom_site_label
_atom_site_type_symbol
_atom_site_fract_x
_atom_site_fract_y
_atom_site_fract_z
Cd1 Cd 0.49769(4) 0.18329(4) 0.52201(3)
Cd2 Cd 1.23482(4) -0.48420(4) 1.31820(3)
N1 N 0.5218(4) 0.1058(4) 0.7055(3)
N2 N 1.0877(5) -0.3363(4) 1.2217(4)
O1 O 0.6871(4) 0.2770(3) 0.4607(3)
O2 O 0.5816(4) 0.2449(4) 0.3350(3)
O3 O 0.4545(4) 0.5114(4) 0.3390(4)
O4 O 0.4337(4) 0.5160(4) 0.1644(4)
O5 O 1.0632(4) 0.4066(4) 0.4054(3)
O6 O 1.2333(4) 0.3380(4) 0.2753(3)
O7 O 1.2900(4) 0.1969(4) 0.4867(4)
O8 O 1.3445(4) -0.0027(3) 0.5156(3)
O9 O 0.3902(4) 0.3704(3) 0.5838(3)
H1 H 0.4498 0.3962 0.6045
H2 H 0.3540 0.4202 0.5313
O10 O 1.1872(4) -0.4263(4) 1.4871(4)
H3 H 1.1026 -0.4209 1.5125
H4 H 1.2022 -0.3579 1.4829
C1 C 0.7423(6) 0.3611(5) 0.2726(4)
C2 C 0.6609(6) 0.4648(5) 0.2133(5)
C3 C 0.7240(6) 0.5385(5) 0.1337(4)
H7 H 0.6701 0.6059 0.0943
C4 C 0.8676(6) 0.5118(5) 0.1126(5)
H8 H 0.9099 0.5633 0.0617
C5 C 0.9478(6) 0.4081(5) 0.1676(4)
H9 H 1.0439 0.3892 0.1511
C6 C 0.8865(6) 0.3314(5) 0.2475(5)
C7 C 0.9756(6) 0.2149(5) 0.3011(4)
C8 C 1.0883(5) 0.2126(5) 0.3525(4)
C9 C 1.1627(5) 0.1021(5) 0.4079(4)
C10 C 1.1313(6) -0.0045(5) 0.4018(5)
H10 H 1.1816 -0.0776 0.4361
C11 C 1.0254(6) -0.0022(5) 0.3449(5)
H11 H 1.0074 -0.0740 0.3388
C12 C 0.9463(5) 0.1065(5) 0.2969(5)
H12 H 0.8730 0.1075 0.2617
C13 C 0.5067(6) 0.4988(5) 0.2392(5)
C14 C 0.6664(6) 0.2890(5) 0.3616(5)
C15 C 1.1326(5) 0.3265(5) 0.3463(4)
C16 C 1.2733(5) 0.0978(5) 0.4735(4)
C17 C 0.5206(5) -0.0092(5) 0.7375(4)
H13 H 0.4765 -0.0437 0.6980
C18 C 0.5814(6) -0.0778(5) 0.8256(5)
H14 H 0.5792 -0.1578 0.8447
C19 C 0.6465(6) -0.0285(5) 0.8867(5)
C20 C 0.6399(7) 0.0938(6) 0.8570(5)
H15 H 0.6764 0.1326 0.8986
C21 C 0.5784(6) 0.1567(6) 0.7651(5)
H16 H 0.5768 0.2374 0.7445
C22 C 0.7231(7) -0.1099(6) 0.9781(6)
H17 H 0.6554 -0.1327 1.0377
H18 H 0.7806 -0.1831 0.9488
C23 C 0.8127(8) -0.0585(6) 1.0267(6)
C24 C 0.9081(6) -0.1555(6) 1.0972(6)
C25 C 0.8685(7) -0.1929(6) 1.2056(6)
H19 H 0.7797 -0.1574 1.2395
C26 C 0.9586(6) -0.2833(5) 1.2666(5)
H20 H 0.9285 -0.3078 1.3406
H21 H 0.7548 0.0025 1.0722
H22 H 0.8678 -0.0198 0.9672
C27 C 1.1289(6) -0.3025(6) 1.1151(5)
H23 H 1.2179 -0.3397 1.0828
C28 C 1.0415(7) -0.2127(6) 1.0514(6)
H24 H 1.0727 -0.1906 0.9771
Cd1_2 Cd 1.49769(4) 0.18329(4) 0.52201(3)
Cd1A Cd 1.50231(4) -0.18329(4) 0.47799(3)
Cd2_2 Cd 0.23482(4) 0.51580(4) 0.31820(3)
Cd2_3 Cd 1.23482(4) 0.51580(4) 0.31820(3)
O3_2 O 1.4545(4) -0.4886(4) 1.3390(4)
O4_2 O 1.4337(4) -0.4840(4) 1.1644(4)
O5_2 O 1.0632(4) -0.5934(4) 1.4054(3)
O6_2 O 1.2333(4) -0.6620(4) 1.2753(3)
O7_2 O 0.2900(4) 0.1969(4) 0.4867(4)
O8A O 0.6555(4) 0.0027(3) 0.4844(3)
O11 O 0.5858(5) 0.2820(4) 0.0643(4)
H5 H 0.5603 0.2933 0.1321
H6 H 0.5658 0.3493 0.0229
loop_
_geom_bond_atom_site_label_1
_geom_bond_atom_site_label_2
_geom_bond_site_symmetry_1
_geom_bond_site_symmetry_2
Cd1 N1 1_555 1_555
Cd2 N2 1_555 1_555
N1 C17 1_555 1_555
N2 C26 1_555 1_555
O1 Cd1 1_555 1_555
O2 Cd1 1_555 1_555
O3 C13 1_555 1_555
O4 C13 1_555 1_555
O5 C15 1_555 1_555
O6 C15 1_555 1_555
O7 C16 1_555 1_555
O8 C16 1_555 1_555
O9 Cd1 1_555 1_555
H1 O9 1_555 1_555
H2 O9 1_555 1_555
O10 Cd2 1_555 1_555
H3 O10 1_555 1_555
H4 O10 1_555 1_555
O11 H5 1_555 1_555
H6 O11 1_555 1_555
C1 C2 1_555 1_555
C2 C3 1_555 1_555
C3 H7 1_555 1_555
C4 C3 1_555 1_555
H8 C4 1_555 1_555
C5 C4 1_555 1_555
H9 C5 1_555 1_555
C6 C1 1_555 1_555
C7 C6 1_555 1_555
C8 C7 1_555 1_555
C9 C8 1_555 1_555
C10 C9 1_555 1_555
H10 C10 1_555 1_555
C11 C10 1_555 1_555
H11 C11 1_555 1_555
C12 C7 1_555 1_555
H12 C12 1_555 1_555
C13 C2 1_555 1_555
C14 O1 1_555 1_555
C15 C8 1_555 1_555
C16 C9 1_555 1_555
C17 H13 1_555 1_555
C18 C17 1_555 1_555
H14 C18 1_555 1_555
C19 C18 1_555 1_555
C20 C19 1_555 1_555
H15 C20 1_555 1_555
C21 N1 1_555 1_555
H16 C21 1_555 1_555
C22 C19 1_555 1_555
H17 C22 1_555 1_555
H18 C22 1_555 1_555
C23 C22 1_555 1_555
C24 C23 1_555 1_555
C25 C24 1_555 1_555
H19 C25 1_555 1_555
C26 C25 1_555 1_555
H20 C26 1_555 1_555
H21 C23 1_555 1_555
H22 C23 1_555 1_555
C27 N2 1_555 1_555
H23 C27 1_555 1_555
C28 C24 1_555 1_555
H24 C28 1_555 1_555
Cd1_2 O7 1_555 1_555
Cd1A O8 1_555 1_555
Cd2_2 O3 1_555 1_555
Cd2_3 O5 1_555 1_555
O3_2 Cd2 1_555 1_555
O4_2 Cd2 1_555 1_555
O5_2 Cd2 1_555 1_555
O6_2 Cd2 1_555 1_555
O7_2 Cd1 1_555 1_555
O8A Cd1 1_555 1_555
O2 C14 1_555 1_555
O4 Cd2_2 1_555 1_555
O6 Cd2_3 1_555 1_555
C1 C14 1_555 1_555
C5 C6 1_555 1_555
C11 C12 1_555 1_555
C20 C21 1_555 1_555
C27 C28 1_555 1_555

#END
