
#######################################################################
#
#                 Cambridge Crystallographic Data Centre
#                                CCDC 
#
#######################################################################
#
# If this CIF has been generated from an entry in the Cambridge 
# Structural Database, then it will include bibliographic, chemical, 
# crystal, experimental, refinement or atomic coordinate data resulting 
# from the CCDC's data processing and validation procedures.
#
#######################################################################

data_XOPHUG
_symmetry_cell_setting           monoclinic
_symmetry_space_group_name_H-M   'C c'
_symmetry_Int_Tables_number      9
_space_group_name_Hall           'C -2yc'
loop_
_symmetry_equiv_pos_site_id
_symmetry_equiv_pos_as_xyz
1 x,y,z
2 x,-y,1/2+z
3 1/2+x,1/2+y,z
4 1/2+x,1/2-y,1/2+z
_cell_length_a                   8.8554(11)
_cell_length_b                   19.877(2)
_cell_length_c                   26.017(3)
_cell_angle_alpha                90
_cell_angle_beta                 97.727(2)
_cell_angle_gamma                90
_cell_volume                     4537.9
loop_
_atom_site_label
_atom_site_type_symbol
_atom_site_fract_x
_atom_site_fract_y
_atom_site_fract_z
C1 C 0.6150(9) 0.5882(4) 0.0316(3)
H1 H 0.6226 0.5512 0.0537
C2 C 0.4824(9) 0.6161(4) 0.0096(3)
H2 H 0.3843 0.6030 0.0143
C3 C 0.6762(8) 0.6694(3) -0.0149(3)
H3 H 0.7322 0.7006 -0.0311
C4 C 0.4145(9) 0.7119(4) -0.0523(3)
H4 H 0.3452 0.6850 -0.0760
H5 H 0.4697 0.7415 -0.0727
C5 C 0.3237(9) 0.7537(4) -0.0182(3)
H6 H 0.2373 0.7734 -0.0399
H7 H 0.2840 0.7241 0.0064
C6 C 0.4133(10) 0.8091(4) 0.0112(3)
H8 H 0.4510 0.8403 -0.0128
H9 H 0.4997 0.7904 0.0335
C7 C 0.3069(10) 0.8450(4) 0.0435(3)
H10 H 0.2107 0.8531 0.0218
H11 H 0.2866 0.8153 0.0713
C8 C 0.4194(8) 0.9610(4) 0.0401(3)
H12 H 0.4438 0.9581 0.0065
C9 C 0.3404(10) 0.9343(4) 0.1134(3)
H13 H 0.3025 0.9108 0.1399
C10 C 0.3827(10) 0.9992(4) 0.1148(3)
H14 H 0.3776 1.0283 0.1425
C11 C 1.1430(10) 0.6608(3) 0.1044(3)
C12 C 1.2520(9) 0.7032(3) 0.1409(3)
C13 C 1.1959(9) 0.7450(4) 0.1757(3)
H15 H 1.0916 0.7464 0.1773
C14 C 1.2933(10) 0.7848(4) 0.2085(3)
H16 H 1.2543 0.8123 0.2325
C15 C 1.4463(10) 0.7845(4) 0.2060(3)
C16 C 1.5048(10) 0.7422(4) 0.1704(3)
H17 H 1.6090 0.7409 0.1687
C17 C 1.4065(9) 0.7026(4) 0.1380(3)
H18 H 1.4445 0.6751 0.1139
C18 C 1.5378(8) 0.8364(4) 0.2870(3)
C19 C 1.5806(9) 0.8975(4) 0.3090(3)
H19 H 1.6107 0.9319 0.2884
C20 C 1.5797(9) 0.9086(3) 0.3610(3)
H20 H 1.6127 0.9498 0.3753
C21 C 1.5308(8) 0.8599(3) 0.3922(3)
C22 C 1.4890(8) 0.7971(3) 0.3700(3)
H21 H 1.4606 0.7629 0.3911
C23 C 1.4891(8) 0.7851(3) 0.3184(3)
H22 H 1.4575 0.7437 0.3041
C24 C 1.5156(8) 0.8724(4) 0.4466(3)
N1 N 0.7378(7) 0.6225(3) 0.0164(2)
N2 N 0.5221(7) 0.6677(3) -0.0210(2)
N3 N 0.3630(7) 0.9090(3) 0.0662(2)
N4 N 0.4348(7) 1.0159(3) 0.0690(2)
O1 O 1.0006(6) 0.6659(2) 0.10429(19)
O2 O 1.1960(6) 0.6229(2) 0.07193(17)
O4 O 1.5030(6) 0.8228(2) 0.47777(18)
O5 O 1.5076(6) 0.9316(2) 0.46429(17)
O11 O 1.5476(6) 0.8272(2) 0.23486(18)
Ni1 Ni 0.96558(9) 0.60669(4) 0.03678(4)
N4B N 0.9348(7) 0.5159(3) 0.0690(2)
O4C O 1.0030(6) 0.6772(2) -0.02223(18)
O5C O 1.0076(6) 0.5684(2) -0.03571(17)
Ni1B Ni 0.46558(9) 1.10669(4) 0.03678(4)
Ni1C Ni 1.46558(9) 0.89331(4) 0.53678(4)
C25 C 0.7363(9) 0.8730(4) -0.0660(3)
C26 C 0.8039(8) 0.8884(4) -0.0121(3)
C27 C 0.8779(8) 0.8396(4) 0.0208(3)
H23 H 0.8904 0.7963 0.0085
C28 C 0.9322(8) 0.8555(4) 0.0713(3)
H24 H 0.9794 0.8228 0.0934
C29 C 0.9167(8) 0.9202(4) 0.0890(3)
C30 C 0.8413(8) 0.9690(3) 0.0578(3)
H25 H 0.8274 1.0119 0.0706
C31 C 0.7872(8) 0.9529(3) 0.0072(3)
H26 H 0.7386 0.9858 -0.0145
C32 C 0.9120(9) 0.9816(4) 0.1679(3)
C33 C 0.9965(10) 1.0331(4) 0.1928(3)
H27 H 1.0964 1.0407 0.1869
C34 C 0.9296(10) 1.0730(4) 0.2267(3)
H28 H 0.9869 1.1074 0.2439
C35 C 0.7802(9) 1.0642(4) 0.2364(3)
C36 C 0.6978(9) 1.0148(4) 0.2086(3)
H29 H 0.5964 1.0086 0.2131
C37 C 0.7609(10) 0.9734(4) 0.1739(3)
H30 H 0.7019 0.9408 0.1550
C38 C 0.7136(9) 1.1047(4) 0.2752(3)
C39 C 0.3584(9) 0.9292(4) -0.1064(3)
H31 H 0.4298 0.9625 -0.0958
C40 C 0.2527(9) 0.8401(4) -0.1398(3)
H32 H 0.2382 0.7984 -0.1559
C41 C 0.1427(10) 0.8778(4) -0.1236(3)
H33 H 0.0393 0.8678 -0.1274
C42 C 0.1341(10) 0.9919(4) -0.0802(3)
H34 H 0.2111 1.0224 -0.0635
H35 H 0.0728 0.9768 -0.0543
C43 C 0.0341(13) 1.0293(5) -0.1220(4)
H36 H -0.0563 1.0029 -0.1334
H37 H 0.0019 1.0715 -0.1082
C44 C 0.1153(18) 1.0424(7) -0.1654(5)
H38 H 0.2156 1.0566 -0.1495
H39 H 0.1299 0.9982 -0.1797
C45 C 0.0842(15) 1.0850(5) -0.2105(5)
H40 H 0.0062 1.0633 -0.2346
H41 H 0.1758 1.0871 -0.2271
C46 C -0.0718(12) 1.1775(5) -0.2367(3)
H42 H -0.1331 1.1547 -0.2629
C47 C -0.0754(10) 1.2435(4) -0.2256(3)
H43 H -0.1402 1.2746 -0.2439
C48 C 0.0965(11) 1.2015(4) -0.1709(3)
H44 H 0.1748 1.1959 -0.1436
N5 N 0.3905(7) 0.8727(3) -0.1289(2)
N6 N 0.2103(8) 0.9331(3) -0.1005(2)
N7 N 0.0291(7) 1.2582(3) -0.1839(2)
N8 N 0.0361(11) 1.1520(3) -0.2028(3)
O6 O 0.7112(6) 0.8123(2) -0.08095(17)
O7 O 0.7002(6) 0.9203(2) -0.09847(18)
O8 O 0.5741(6) 1.0962(3) 0.28002(19)
O9 O 0.7973(6) 1.1424(2) 0.30610(19)
O10 O 0.9807(6) 0.9346(3) 0.13952(17)
Ni2 Ni 0.59684(10) 0.84850(4) -0.15214(4)
N7B N 0.5291(7) 0.7582(3) -0.1839(2)
O8A O 0.5741(6) 0.9038(3) -0.21998(19)
O9A O 0.7973(6) 0.8576(2) -0.19390(19)
Ni2B Ni 0.09684(10) 1.34850(4) -0.15214(4)
Ni2A Ni 0.59684(10) 1.15150(4) 0.34786(4)
O3 O 0.8405(7) 0.6299(4) 0.1927(3)
H45 H 0.911(7) 0.615(5) 0.216(2)
H46 H 0.886(8) 0.644(5) 0.168(2)
loop_
_geom_bond_atom_site_label_1
_geom_bond_atom_site_label_2
_geom_bond_site_symmetry_1
_geom_bond_site_symmetry_2
C1 H1 1_555 1_555
C2 C1 1_555 1_555
H2 C2 1_555 1_555
C3 H3 1_555 1_555
C4 H4 1_555 1_555
H5 C4 1_555 1_555
C5 C4 1_555 1_555
H6 C5 1_555 1_555
H7 C5 1_555 1_555
C6 C5 1_555 1_555
H8 C6 1_555 1_555
H9 C6 1_555 1_555
C7 C6 1_555 1_555
H10 C7 1_555 1_555
H11 C7 1_555 1_555
C8 H12 1_555 1_555
C9 H13 1_555 1_555
C10 C9 1_555 1_555
H14 C10 1_555 1_555
C11 C12 1_555 1_555
C12 C13 1_555 1_555
C13 H15 1_555 1_555
C14 C13 1_555 1_555
H16 C14 1_555 1_555
C15 C14 1_555 1_555
C16 C15 1_555 1_555
H17 C16 1_555 1_555
C17 C12 1_555 1_555
H18 C17 1_555 1_555
C18 C19 1_555 1_555
C19 H19 1_555 1_555
C20 C19 1_555 1_555
H20 C20 1_555 1_555
C21 C20 1_555 1_555
C22 C21 1_555 1_555
H21 C22 1_555 1_555
C23 C18 1_555 1_555
H22 C23 1_555 1_555
C24 C21 1_555 1_555
C25 C26 1_555 1_555
C26 C27 1_555 1_555
C27 H23 1_555 1_555
C28 C27 1_555 1_555
H24 C28 1_555 1_555
C29 C28 1_555 1_555
C30 C29 1_555 1_555
H25 C30 1_555 1_555
C31 C26 1_555 1_555
H26 C31 1_555 1_555
C32 C33 1_555 1_555
C33 H27 1_555 1_555
C34 C33 1_555 1_555
H28 C34 1_555 1_555
C35 C34 1_555 1_555
C36 C35 1_555 1_555
H29 C36 1_555 1_555
C37 C32 1_555 1_555
H30 C37 1_555 1_555
C38 C35 1_555 1_555
C39 H31 1_555 1_555
C40 H32 1_555 1_555
C41 C40 1_555 1_555
H33 C41 1_555 1_555
C42 H34 1_555 1_555
H35 C42 1_555 1_555
C43 C42 1_555 1_555
H36 C43 1_555 1_555
H37 C43 1_555 1_555
C44 C43 1_555 1_555
H38 C44 1_555 1_555
H39 C44 1_555 1_555
C45 C44 1_555 1_555
H40 C45 1_555 1_555
H41 C45 1_555 1_555
C46 H42 1_555 1_555
C47 C46 1_555 1_555
H43 C47 1_555 1_555
C48 H44 1_555 1_555
N1 C1 1_555 1_555
N2 C2 1_555 1_555
N3 C7 1_555 1_555
N4 C8 1_555 1_555
N5 C39 1_555 1_555
N6 C39 1_555 1_555
N7 C47 1_555 1_555
N8 C45 1_555 1_555
O1 C11 1_555 1_555
O2 C11 1_555 1_555
O3 H45 1_555 1_555
H46 O3 1_555 1_555
O4 C24 1_555 1_555
O5 C24 1_555 1_555
O6 C25 1_555 1_555
O7 C25 1_555 1_555
O8 C38 1_555 1_555
O9 C38 1_555 1_555
O10 C29 1_555 1_555
O11 C15 1_555 1_555
Ni1 N1 1_555 1_555
Ni2 N5 1_555 1_555
N4B Ni1 1_555 1_555
N7B Ni2 1_555 1_555
O4C Ni1 1_555 1_555
O5C Ni1 1_555 1_555
O8A Ni2 1_555 1_555
O9A Ni2 1_555 1_555
Ni1B N4 1_555 1_555
Ni1C O4 1_555 1_555
Ni2B N7 1_555 1_555
Ni2A O8 1_555 1_555
C3 N1 1_555 1_555
C3 N2 1_555 1_555
C4 N2 1_555 1_555
C8 N3 1_555 1_555
C9 N3 1_555 1_555
C10 N4 1_555 1_555
C16 C17 1_555 1_555
C18 O11 1_555 1_555
C22 C23 1_555 1_555
C30 C31 1_555 1_555
C32 O10 1_555 1_555
C36 C37 1_555 1_555
C40 N5 1_555 1_555
C41 N6 1_555 1_555
C42 N6 1_555 1_555
C46 N8 1_555 1_555
C48 N7 1_555 1_555
C48 N8 1_555 1_555
O1 Ni1 1_555 1_555
O2 Ni1 1_555 1_555
O5 Ni1C 1_555 1_555
O6 Ni2 1_555 1_555
O7 Ni2 1_555 1_555
O9 Ni2A 1_555 1_555

#END
