
#######################################################################
#
#                 Cambridge Crystallographic Data Centre
#                                CCDC 
#
#######################################################################
#
# If this CIF has been generated from an entry in the Cambridge 
# Structural Database, then it will include bibliographic, chemical, 
# crystal, experimental, refinement or atomic coordinate data resulting 
# from the CCDC's data processing and validation procedures.
#
#######################################################################

data_XOPJOC
_symmetry_cell_setting           monoclinic
_symmetry_space_group_name_H-M   'C 2/c'
_symmetry_Int_Tables_number      15
_space_group_name_Hall           '-C 2yn'
loop_
_symmetry_equiv_pos_site_id
_symmetry_equiv_pos_as_xyz
1 x,y,z
2 1/2+x,1/2+y,z
3 -x,y,1/2-z
4 1/2-x,1/2+y,1/2-z
5 -x,-y,-z
6 1/2-x,1/2-y,-z
7 x,-y,1/2+z
8 1/2+x,1/2-y,1/2+z
_cell_length_a                   28.442(3)
_cell_length_b                   5.7468(6)
_cell_length_c                   24.666(3)
_cell_angle_alpha                90
_cell_angle_beta                 112.039(2)
_cell_angle_gamma                90
_cell_volume                     3737.07
loop_
_atom_site_label
_atom_site_type_symbol
_atom_site_fract_x
_atom_site_fract_y
_atom_site_fract_z
Ni1 Ni 0.728997(13) 0.11371(6) 0.543759(15)
O1 O 0.94205(7) -0.6505(3) 0.79013(8)
O2 O 0.79970(7) 0.1064(3) 0.61393(8)
O3 O 1.14580(7) -0.1841(3) 0.96398(9)
O4 O 1.16460(7) -0.5652(3) 0.97603(8)
O5 O 0.75172(7) -0.2046(3) 0.58955(8)
O6 O 0.73130(8) 0.4546(3) 0.51156(9)
N1 N 0.63325(9) 0.4355(4) 0.61282(10)
C1 C 0.54450(11) 0.5433(5) 0.54901(13)
C2 C 1.02861(10) -0.7277(5) 0.84070(12)
H1 H 1.0237 -0.8681 0.8206
C3 C 0.50570(11) 0.7064(5) 0.53002(13)
H2 H 0.5092 0.8461 0.5502
N2 N 0.69037(9) 0.2295(4) 0.59380(10)
C4 C 0.98885(10) -0.5722(5) 0.82882(12)
C5 C 0.65668(11) 0.3979(5) 0.57575(13)
H3 H 0.6500 0.4809 0.5413
C6 C 0.90715(10) -0.4993(5) 0.75162(11)
C7 C 0.82071(10) -0.4543(5) 0.68711(12)
H4 H 0.7877 -0.5111 0.6711
C8 C 1.04329(10) -0.3049(5) 0.89847(12)
H5 H 1.0483 -0.1613 0.9172
C9 C 1.13575(10) -0.3948(5) 0.95386(11)
C10 C 1.07567(10) -0.6735(5) 0.88257(12)
H6 H 1.1020 -0.7809 0.8918
C11 C 0.53797(11) 0.3349(5) 0.51825(14)
H7 H 0.5633 0.2224 0.5303
C12 C 0.91941(10) -0.2888(5) 0.73348(12)
H8 H 0.9527 -0.2348 0.7486
C13 C 0.99560(10) -0.3622(5) 0.85857(12)
H9 H 0.9684 -0.2613 0.8518
C14 C 0.83221(10) -0.2406(5) 0.66844(11)
C15 C 0.68810(12) 0.1567(6) 0.64572(14)
H10 H 0.7078 0.0388 0.6692
C16 C 1.08383(10) -0.4584(5) 0.91111(11)
C17 C 0.88184(10) -0.1593(5) 0.69265(12)
H11 H 0.8898 -0.0153 0.6811
C18 C 0.85765(10) -0.5829(5) 0.72908(12)
H12 H 0.8496 -0.7235 0.7421
C19 C 0.65282(12) 0.2823(6) 0.65770(14)
H13 H 0.6438 0.2668 0.6901
C20 C 0.59136(11) 0.5994(5) 0.60254(14)
H14 H 0.6029 0.7544 0.5981
H15 H 0.5822 0.6008 0.6366
C21 C 0.79301(10) -0.1052(5) 0.62193(12)
H16 H 0.7439(14) 0.564(7) 0.5385(16)
H17 H 0.7048(14) 0.514(7) 0.4930(16)
Ni1G Ni 0.228997(13) -0.61371(6) 0.043759(15)
Ni1G_2 Ni 1.228997(13) -0.61371(6) 1.043759(15)
Ni1E Ni 0.771003(13) 0.38629(6) 0.456241(15)
Ni1D Ni 0.271003(13) 0.88629(6) 0.456241(15)
O1G O 0.44205(7) 0.1505(3) 0.29013(8)
O2G O 0.29970(7) -0.6064(3) 0.11393(8)
O3G O 0.64580(7) -0.3159(3) 0.46398(9)
O4G O 0.66460(7) 0.0652(3) 0.47603(8)
O4_2 O 0.16460(7) -0.5652(3) -0.02397(8)
O5G O 0.25172(7) -0.2954(3) 0.08955(8)
O6E O 0.76870(8) 0.0454(3) 0.48844(9)
O6G O 0.23130(8) -0.9546(3) 0.01156(9)
O6B O 0.26870(8) -0.5454(3) -0.01156(9)
N1D N 0.36675(9) 0.5645(4) 0.38718(10)
C1D C 0.45550(11) 0.4567(5) 0.45099(13)
C2G C 0.52861(10) 0.2277(5) 0.34070(12)
H1G H 0.5237 0.3681 0.3206
C3D C 0.49430(11) 0.2936(5) 0.46998(13)
H2D H 0.4908 0.1539 0.4498
N2D N 0.30963(9) 0.7705(4) 0.40620(10)
N2G N 0.19037(9) -0.7295(4) 0.09380(10)
C4G C 0.48885(10) 0.0722(5) 0.32882(12)
C5D C 0.34332(11) 0.6021(5) 0.42425(13)
H3D H 0.3500 0.5191 0.4587
C6G C 0.40715(10) -0.0007(5) 0.25162(11)
C7G C 0.32071(10) -0.0457(5) 0.18711(12)
H4G H 0.2877 0.0111 0.1711
C8G C 0.54329(10) -0.1951(5) 0.39847(12)
H5G H 0.5483 -0.3387 0.4172
C9G C 0.63575(10) -0.1052(5) 0.45386(11)
C10G C 0.57567(10) 0.1735(5) 0.38257(12)
H6G H 0.6020 0.2809 0.3918
C11D C 0.46203(11) 0.6651(5) 0.48175(14)
H7D H 0.4367 0.7776 0.4697
C12G C 0.41941(10) -0.2112(5) 0.23348(12)
H8G H 0.4527 -0.2652 0.2486
C13G C 0.49560(10) -0.1378(5) 0.35857(12)
H9G H 0.4684 -0.2387 0.3518
C14G C 0.33221(10) -0.2594(5) 0.16844(11)
C15D C 0.31190(12) 0.8433(6) 0.35428(14)
H10D H 0.2922 0.9612 0.3308
C16G C 0.58383(10) -0.0416(5) 0.41111(11)
C17G C 0.38184(10) -0.3407(5) 0.19265(12)
H11G H 0.3898 -0.4847 0.1811
C18G C 0.35765(10) 0.0829(5) 0.22908(12)
H12G H 0.3496 0.2235 0.2421
C19D C 0.34718(12) 0.7177(6) 0.34230(14)
H13D H 0.3562 0.7332 0.3099
C20D C 0.40864(11) 0.4006(5) 0.39746(14)
H14D H 0.3971 0.2456 0.4019
H15D H 0.4178 0.3992 0.3634
C21G C 0.29301(10) -0.3948(5) 0.12193(12)
H16E H 0.7561(14) -0.064(7) 0.4615(16)
H16G H 0.2439(14) -1.064(7) 0.0385(16)
H16B H 0.2561(14) -0.436(7) -0.0385(16)
H17E H 0.7952(14) -0.014(7) 0.5070(16)
H17G H 0.2048(14) -1.014(7) -0.0070(16)
H17B H 0.2952(14) -0.486(7) 0.0070(16)
loop_
_geom_bond_atom_site_label_1
_geom_bond_atom_site_label_2
_geom_bond_site_symmetry_1
_geom_bond_site_symmetry_2
Ni1 O2 1_555 1_555
O1 C4 1_555 1_555
O2 C21 1_555 1_555
O3 C9 1_555 1_555
O4 C9 1_555 1_555
O5 Ni1 1_555 1_555
O6 Ni1 1_555 1_555
N1 C5 1_555 1_555
C1 C3 1_555 1_555
C2 H1 1_555 1_555
C3 H2 1_555 1_555
N2 Ni1 1_555 1_555
C4 C2 1_555 1_555
C5 N2 1_555 1_555
H3 C5 1_555 1_555
C6 O1 1_555 1_555
C7 H4 1_555 1_555
C8 H5 1_555 1_555
C9 C16 1_555 1_555
C10 C2 1_555 1_555
H6 C10 1_555 1_555
C11 C1 1_555 1_555
H7 C11 1_555 1_555
C12 C6 1_555 1_555
H8 C12 1_555 1_555
C13 C4 1_555 1_555
H9 C13 1_555 1_555
C14 C7 1_555 1_555
C15 N2 1_555 1_555
H10 C15 1_555 1_555
C16 C8 1_555 1_555
C17 C12 1_555 1_555
H11 C17 1_555 1_555
C18 C6 1_555 1_555
H12 C18 1_555 1_555
C19 N1 1_555 1_555
H13 C19 1_555 1_555
C20 N1 1_555 1_555
H14 C20 1_555 1_555
H15 C20 1_555 1_555
C21 O5 1_555 1_555
H16 O6 1_555 1_555
H17 O6 1_555 1_555
Ni1G O2G 1_555 1_555
Ni1G_2 O4 1_555 1_555
Ni1E O6 1_555 1_555
Ni1D N2D 1_555 1_555
O1G C4G 1_555 1_555
O2G C21G 1_555 1_555
O3G C9G 1_555 1_555
O4G Ni1 1_555 1_555
O4_2 Ni1G 1_555 1_555
O5G Ni1G 1_555 1_555
O6E Ni1 1_555 1_555
O6G Ni1G 1_555 1_555
O6B Ni1G 1_555 1_555
N1D C5D 1_555 1_555
C1D C3D 1_555 1_555
C2G H1G 1_555 1_555
C3D C11 1_555 1_555
H2D C3D 1_555 1_555
N2D C5D 1_555 1_555
N2G Ni1G 1_555 1_555
C4G C2G 1_555 1_555
C5D H3D 1_555 1_555
C6G O1G 1_555 1_555
C7G H4G 1_555 1_555
C8G H5G 1_555 1_555
C9G O4G 1_555 1_555
C10G C2G 1_555 1_555
H6G C10G 1_555 1_555
C11D C3 1_555 1_555
H7D C11D 1_555 1_555
C12G C6G 1_555 1_555
H8G C12G 1_555 1_555
C13G C4G 1_555 1_555
H9G C13G 1_555 1_555
C14G C7G 1_555 1_555
C15D N2D 1_555 1_555
H10D C15D 1_555 1_555
C16G C8G 1_555 1_555
C17G C12G 1_555 1_555
H11G C17G 1_555 1_555
C18G C6G 1_555 1_555
H12G C18G 1_555 1_555
C19D N1D 1_555 1_555
H13D C19D 1_555 1_555
C20D N1D 1_555 1_555
H14D C20D 1_555 1_555
H15D C20D 1_555 1_555
C21G O5G 1_555 1_555
H16E O6E 1_555 1_555
H16G O6G 1_555 1_555
H16B O6B 1_555 1_555
H17E O6E 1_555 1_555
H17G O6G 1_555 1_555
H17B O6B 1_555 1_555
C1 C20 1_555 1_555
C7 C18 1_555 1_555
C8 C13 1_555 1_555
C10 C16 1_555 1_555
C14 C17 1_555 1_555
C14 C21 1_555 1_555
C15 C19 1_555 1_555
Ni1E O6E 1_555 1_555
C1D C11D 1_555 1_555
C1D C20D 1_555 1_555
C7G C18G 1_555 1_555
C8G C13G 1_555 1_555
C9G C16G 1_555 1_555
C10G C16G 1_555 1_555
C14G C17G 1_555 1_555
C14G C21G 1_555 1_555
C15D C19D 1_555 1_555

#END
