
#######################################################################
#
#                 Cambridge Crystallographic Data Centre
#                                CCDC 
#
#######################################################################
#
# If this CIF has been generated from an entry in the Cambridge 
# Structural Database, then it will include bibliographic, chemical, 
# crystal, experimental, refinement or atomic coordinate data resulting 
# from the CCDC's data processing and validation procedures.
#
#######################################################################

data_XOPJIW
_symmetry_cell_setting           orthorhombic
_symmetry_space_group_name_H-M   'P n m a'
_symmetry_Int_Tables_number      62
_space_group_name_Hall           '-P 2ac 2n'
loop_
_symmetry_equiv_pos_site_id
_symmetry_equiv_pos_as_xyz
1 x,y,z
2 1/2-x,-y,1/2+z
3 1/2+x,1/2-y,1/2-z
4 -x,1/2+y,-z
5 -x,-y,-z
6 1/2+x,y,1/2-z
7 1/2-x,1/2+y,1/2+z
8 x,1/2-y,z
_cell_length_a                   14.7584(10)
_cell_length_b                   14.2630(9)
_cell_length_c                   12.1990(8)
_cell_angle_alpha                90
_cell_angle_beta                 90
_cell_angle_gamma                90
_cell_volume                     2567.88
loop_
_atom_site_label
_atom_site_type_symbol
_atom_site_fract_x
_atom_site_fract_y
_atom_site_fract_z
Cd1 Cd 0.720054(11) 0.2500 0.854893(14)
N1 N 0.77853(11) 0.00466(13) 0.65217(14)
O1 O 0.62294(11) 0.2500 0.99282(14)
O2 O -0.15563(9) 0.32750(11) 0.94707(11)
O3 O 0.54938(12) 0.2500 0.83440(14)
O4 O 0.22290(12) 0.2500 1.17865(18)
N2 N 0.72623(9) 0.12614(11) 0.74242(13)
C1 C 0.38156(18) 0.2500 1.1715(2)
H1 H 0.3819 0.2500 1.2477
C2 C 0.13937(19) 0.2500 1.1253(2)
C3 C 0.92285(14) -0.03220(13) 0.55523(16)
C4 C 0.54948(16) 0.2500 0.9368(2)
C5 C 0.29875(18) 0.2500 1.0007(2)
H2 H 0.2439 0.2500 0.9631
C6 C -0.02929(17) 0.2500 1.0271(2)
C7 C 0.46229(16) 0.2500 0.99947(19)
C8 C 0.38040(16) 0.2500 0.9444(2)
H3 H 0.3801 0.2500 0.8681
C9 C 0.65914(14) 0.09180(16) 0.67568(16)
H4 H 0.6009 0.1163 0.6698
C10 C 0.46189(17) 0.2500 1.1134(2)
H5 H 0.5166 0.2500 1.1512
C11 C 1.00447(15) -0.02193(14) 0.60934(17)
H6 H 1.0082 -0.0368 0.6834
C12 C 0.91925(14) -0.01012(14) 0.44477(17)
H7 H 0.8651 -0.0169 0.4067
C13 C 0.30074(19) 0.2500 1.1145(2)
C14 C 0.79715(13) 0.07164(13) 0.72611(16)
H8 H 0.8527 0.0787 0.7612
C15 C -0.11946(17) 0.2500 0.9702(2)
C16 C 0.01376(14) 0.16644(17) 1.05205(17)
H9 H -0.0144 0.1098 1.0355
C17 C 0.84020(16) -0.06979(15) 0.6138(2)
H10 H 0.8074 -0.1110 0.5646
H11 H 0.8597 -0.1067 0.6763
C18 C 0.69067(16) 0.01711(17) 0.62000(18)
H12 H 0.6589 -0.0190 0.5695
C19 C 0.09828(14) 0.1663(2) 1.10139(18)
H13 H 0.1268 0.1099 1.1181
Cd1_2 Cd -0.279946(11) 0.2500 0.854893(14)
Cd1D Cd 1.279946(11) -0.2500 0.145107(14)
N1D N 1.22147(11) -0.00466(13) 0.34783(14)
O2G O -0.15563(9) 0.17250(11) 0.94707(11)
O2_2 O 0.84437(9) 0.32750(11) 0.94707(11)
O2G_2 O 0.84437(9) 0.17250(11) 0.94707(11)
N2D N 1.27377(9) -0.12614(11) 0.25758(13)
N2G N 0.72623(9) 0.37386(11) 0.74242(13)
C3D C 1.07715(14) 0.03220(13) 0.44477(16)
C9D C 1.34086(14) -0.09180(16) 0.32432(16)
H4D H 1.3991 -0.1163 0.3302
C11D C 0.99553(15) 0.02193(14) 0.39066(17)
H6D H 0.9918 0.0368 0.3166
C12D C 1.08075(14) 0.01012(14) 0.55523(17)
H7D H 1.1349 0.0169 0.5933
C14D C 1.20285(13) -0.07164(13) 0.27389(16)
H8D H 1.1473 -0.0787 0.2388
C16G C 0.01376(14) 0.33356(17) 1.05205(17)
H9G H -0.0144 0.3902 1.0355
C17D C 1.15980(16) 0.06979(15) 0.3862(2)
H10D H 1.1926 0.1110 0.4354
H11D H 1.1403 0.1067 0.3237
C18D C 1.30933(16) -0.01711(17) 0.38000(18)
H12D H 1.3411 0.0190 0.4305
C19G C 0.09828(14) 0.3337(2) 1.10139(18)
H13G H 0.1268 0.3901 1.1181
loop_
_geom_bond_atom_site_label_1
_geom_bond_atom_site_label_2
_geom_bond_site_symmetry_1
_geom_bond_site_symmetry_2
Cd1 O1 1_555 1_555
N1 C14 1_555 1_555
O1 C4 1_555 1_555
O2 C15 1_555 1_555
O3 Cd1 1_555 1_555
O4 C2 1_555 1_555
N2 Cd1 1_555 1_555
C1 H1 1_555 1_555
C2 C19 1_555 1_555
C3 C11 1_555 1_555
C4 O3 1_555 1_555
C5 H2 1_555 1_555
C6 C15 1_555 1_555
C7 C4 1_555 1_555
C8 C5 1_555 1_555
H3 C8 1_555 1_555
C9 N2 1_555 1_555
H4 C9 1_555 1_555
C10 C1 1_555 1_555
H5 C10 1_555 1_555
C11 H6 1_555 1_555
C12 C3 1_555 1_555
H7 C12 1_555 1_555
C13 O4 1_555 1_555
C14 N2 1_555 1_555
H8 C14 1_555 1_555
C15 O2G 1_555 1_555
C16 C6 1_555 1_555
H9 C16 1_555 1_555
C17 N1 1_555 1_555
H10 C17 1_555 1_555
H11 C17 1_555 1_555
C18 N1 1_555 1_555
H12 C18 1_555 1_555
C19 C16 1_555 1_555
H13 C19 1_555 1_555
Cd1_2 O2 1_555 1_555
Cd1D N2D 1_555 1_555
N1D C14D 1_555 1_555
O2G Cd1_2 1_555 1_555
O2_2 Cd1 1_555 1_555
O2G_2 Cd1 1_555 1_555
N2D C9D 1_555 1_555
N2G Cd1 1_555 1_555
C3D C11D 1_555 1_555
C9D H4D 1_555 1_555
C11D C12 1_555 1_555
H6D C11D 1_555 1_555
C12D C11 1_555 1_555
H7D C12D 1_555 1_555
C14D N2D 1_555 1_555
H8D C14D 1_555 1_555
C16G C6 1_555 1_555
H9G C16G 1_555 1_555
C17D N1D 1_555 1_555
H10D C17D 1_555 1_555
H11D C17D 1_555 1_555
C18D N1D 1_555 1_555
H12D C18D 1_555 1_555
C19G C2 1_555 1_555
H13G C19G 1_555 1_555
C1 C13 1_555 1_555
C3 C17 1_555 1_555
C5 C13 1_555 1_555
C7 C8 1_555 1_555
C7 C10 1_555 1_555
C9 C18 1_555 1_555
C3D C12D 1_555 1_555
C3D C17D 1_555 1_555
C9D C18D 1_555 1_555
C16G C19G 1_555 1_555

#END
