
#######################################################################
#
#                 Cambridge Crystallographic Data Centre
#                                CCDC 
#
#######################################################################
#
# If this CIF has been generated from an entry in the Cambridge 
# Structural Database, then it will include bibliographic, chemical, 
# crystal, experimental, refinement or atomic coordinate data resulting 
# from the CCDC's data processing and validation procedures.
#
#######################################################################

data_XOPJES
_symmetry_cell_setting           triclinic
_symmetry_space_group_name_H-M   'P -1'
_symmetry_Int_Tables_number      2
_space_group_name_Hall           '-P 1'
loop_
_symmetry_equiv_pos_site_id
_symmetry_equiv_pos_as_xyz
1 x,y,z
2 -x,-y,-z
_cell_length_a                   8.6765(9)
_cell_length_b                   11.9414(12)
_cell_length_c                   24.044(2)
_cell_angle_alpha                81.697(2)
_cell_angle_beta                 88.455(2)
_cell_angle_gamma                84.325(2)
_cell_volume                     2452.79
loop_
_atom_site_label
_atom_site_type_symbol
_atom_site_fract_x
_atom_site_fract_y
_atom_site_fract_z
Co1 Co 0.77538(6) 0.30717(5) 0.98388(2)
Co2 Co -0.38356(7) 0.68205(5) 1.54264(2)
O1 O -0.2912(3) 0.7866(3) 1.44583(12)
O2 O 0.6266(3) 0.2183(3) 1.06674(13)
O3 O -0.2491(3) 0.6091(2) 1.48785(12)
O4 O 0.6712(3) 0.3974(3) 1.04045(12)
O5 O 0.6212(4) 0.2637(2) 0.93417(12)
O6 O 0.8029(4) 0.2143(3) 0.87230(14)
N1 N 1.1815(4) 0.1143(3) 1.03697(16)
N2 N 0.9456(4) 0.1900(3) 1.01528(14)
C1 C 0.3330(5) 0.4214(4) 1.21317(18)
N3 N 1.4624(4) 0.4450(3) 0.67188(15)
C2 C 0.5162(5) 0.3554(4) 1.12320(18)
C3 C -0.0420(5) 0.5484(4) 1.40497(18)
H1 H -0.0507 0.4982 1.4380
N4 N 1.5711(4) 0.5453(3) 0.60015(14)
N5 N 1.0095(4) 0.5364(3) 0.87127(14)
C4 C 0.8686(6) 0.5447(4) 0.94674(19)
H2 H 0.8142 0.5720 0.9766
C5 C -0.1253(5) 0.6547(4) 1.39976(17)
N6 N 0.8842(4) 0.4333(3) 0.93763(14)
C6 C 0.1690(5) 0.5572(4) 1.26535(18)
H3 H 0.1880 0.6152 1.2365
C7 C 0.2345(5) 0.4538(4) 1.25995(17)
H4 H 0.2159 0.3959 1.2889
C8 C -0.0125(5) 0.6964(4) 1.30758(17)
H5 H -0.0023 0.7476 1.2750
C9 C 0.3731(5) 0.4996(4) 1.16782(18)
H6 H 0.3373 0.5758 1.1670
C10 C -0.2301(5) 0.6875(4) 1.44659(18)
C11 C 1.5255(5) 0.3698(4) 0.63785(19)
H7 H 1.5234 0.2912 0.6437
C12 C 0.4640(5) 0.4671(4) 1.12437(18)
H8 H 0.4908 0.5219 1.0951
C13 C 1.2821(5) 0.5118(4) 0.74486(17)
H9 H 1.2089 0.5423 0.7155
H10 H 1.3445 0.5718 0.7511
C14 C 0.6668(6) 0.2232(4) 0.8893(2)
C15 C -0.1625(5) -0.1535(4) 0.65580(18)
C16 C 0.0698(5) 0.5893(4) 1.31201(17)
C17 C 1.0993(6) 0.5706(4) 0.81989(19)
H11 H 1.1677 0.6260 0.8274
H12 H 1.0286 0.6071 0.7907
C18 C 1.3859(6) 0.4137(4) 0.72633(18)
H13 H 1.4642 0.3877 0.7545
H14 H 1.3244 0.3511 0.7237
C19 C 0.4801(5) 0.2753(4) 1.1684(2)
H15 H 0.5159 0.1992 1.1688
C20 C 0.0537(5) 0.5155(4) 1.36215(17)
H16 H 0.1078 0.4437 1.3667
C21 C 1.0828(5) 0.0502(4) 1.0697(2)
H17 H 1.1098 -0.0133 1.0960
C22 C 1.4928(5) 0.5492(4) 0.64801(17)
H18 H 1.4628 0.6156 0.6631
C23 C 1.0951(5) 0.1961(4) 1.00488(18)
H19 H 1.1352 0.2508 0.9784
C24 C -0.2028(6) -0.0809(4) 0.69478(19)
H20 H -0.3068 -0.0599 0.7018
C25 C 1.1947(5) 0.4725(4) 0.79860(18)
H21 H 1.1272 0.4162 0.7916
H22 H 1.2680 0.4370 0.8271
C26 C 0.6101(5) 0.3193(4) 1.07438(18)
C27 C 0.9696(5) 0.4315(4) 0.89147(17)
H23 H 0.9984 0.3666 0.8750
C28 C 1.4123(4) 0.0071(4) 1.00073(19)
H24 H 1.3742 0.0280 0.9627
H25 H 1.3740 -0.0647 1.0161
C29 C -0.0068(6) -0.1852(4) 0.64693(19)
H26 H 0.0224 -0.2348 0.6212
C30 C -0.1092(5) 0.7287(4) 1.35044(17)
H27 H -0.1636 0.8005 1.3461
C31 C 0.3853(6) 0.1973(4) 0.8746(2)
H28 H 0.3590 0.2375 0.9043
C32 C 0.3064(7) 0.0937(5) 0.8037(2)
C33 C 0.5405(6) 0.1832(4) 0.85704(18)
C34 C 0.3910(6) 0.3086(4) 1.2128(2)
H29 H 0.3694 0.2544 1.2431
C35 C 0.9374(5) 0.0973(4) 1.05621(19)
H30 H 0.8464 0.0711 1.0721
C36 C 1.5919(5) 0.4326(4) 0.59392(19)
H31 H 1.6438 0.4035 0.5640
C37 C 0.1060(6) -0.1437(4) 0.6760(2)
H32 H 0.2098 -0.1665 0.6696
C38 C 0.9437(6) 0.6086(4) 0.90597(19)
H33 H 0.9495 0.6867 0.9023
C39 C 0.1777(7) 0.0425(4) 0.7788(2)
H34 H 0.0779 0.0597 0.7922
C40 C 1.3515(5) 0.0971(4) 1.0360(2)
H35 H 1.3882 0.0752 1.0741
H36 H 1.3923 0.1683 1.0211
C41 C 0.2708(6) 0.1523(4) 0.8483(2)
H37 H 0.1687 0.1617 0.8610
C42 C 0.0676(6) -0.0696(4) 0.7140(2)
C43 C 0.4569(7) 0.0847(5) 0.7845(2)
H38 H 0.4814 0.0486 0.7532
C44 C 0.1926(7) -0.0221(5) 0.7410(2)
H39 H 0.2932 -0.0418 0.7290
C45 C -0.0897(7) -0.0389(4) 0.7235(2)
H40 H -0.1188 0.0101 0.7495
C46 C 0.5746(7) 0.1289(5) 0.8111(2)
H41 H 0.6760 0.1214 0.7976
O7 O -0.4237(4) -0.1821(3) 0.63683(14)
C47 C -0.2850(6) -0.1937(4) 0.62252(19)
O8 O -0.2358(4) -0.2408(3) 0.58012(13)
N7 N -0.6043(4) 0.7329(3) 1.51862(14)
C48 C -0.6604(5) 0.8215(4) 1.48280(19)
H42 H -0.6010 0.8760 1.4638
C49 C -0.7305(5) 0.6747(4) 1.53653(18)
H43 H -0.7272 0.6084 1.5623
N8 N -0.8139(4) 0.8222(3) 1.47753(15)
C50 C -0.8578(5) 0.7280(4) 1.51132(18)
H44 H -0.9575 0.7054 1.5158
C51 C -0.9173(6) 0.9090(4) 1.44351(19)
H45 H -0.9705 0.8735 1.4168
H46 H -0.8560 0.9648 1.4225
C52 C -1.0355(5) 0.9684(4) 1.47927(19)
H47 H -1.0975 0.9125 1.4998
H48 H -1.1041 1.0218 1.4549
Co1A Co 2.22462(6) -0.30717(5) 1.01612(2)
Co1_2 Co -1.22462(6) 0.30717(5) 1.98388(2)
Co1_3 Co 0.77538(6) 1.30717(5) 1.98388(2)
Co2_2 Co 1.61644(7) 0.68205(5) 0.54264(2)
Co2_3 Co -0.38356(7) -0.31795(5) 0.54264(2)
Co2A Co -1.61644(7) 1.31795(5) 1.45736(2)
Co2A_2 Co 3.38356(7) -0.68205(5) 0.45736(2)
O1A O 3.2912(3) -0.7866(3) 0.55417(12)
O1_2 O 1.7088(3) 0.7866(3) 0.44583(12)
O2A O 2.3734(3) -0.2183(3) 0.93326(13)
O3A O 3.2491(3) -0.6091(2) 0.51215(12)
O3_2 O 1.7509(3) 0.6091(2) 0.48785(12)
O4A O 2.3288(3) -0.3974(3) 0.95955(12)
O5_2 O 0.6212(4) 1.2637(2) 1.93417(12)
O5A O 2.3788(4) -0.2637(2) 1.06583(12)
O6_2 O 0.8029(4) 1.2143(3) 1.87230(14)
N1A N 1.8185(4) -0.1143(3) 0.96303(16)
N2A N 2.0544(4) -0.1900(3) 0.98472(14)
C1A C 2.6670(5) -0.4214(4) 0.78683(18)
N3_2 N -0.5376(4) 0.4450(3) 1.67188(15)
C2A C 2.4838(5) -0.3554(4) 0.87680(18)
C3A C 3.0420(5) -0.5484(4) 0.59503(18)
H1A H 3.0507 -0.4982 0.5620
N4_2 N -0.4289(4) 0.5453(3) 1.60015(14)
N5_2 N -0.9905(4) 0.5364(3) 1.87127(14)
C4_2 C -1.1314(6) 0.5447(4) 1.94674(19)
H2_2 H -1.1858 0.5720 1.9766
C5A C 3.1253(5) -0.6547(4) 0.60024(17)
N6_2 N -1.1158(4) 0.4333(3) 1.93763(14)
N6A N 2.1158(4) -0.4333(3) 1.06237(14)
C6A C 2.8310(5) -0.5572(4) 0.73465(18)
H3A H 2.8120 -0.6152 0.7635
C7A C 2.7655(5) -0.4538(4) 0.74005(17)
H4A H 2.7841 -0.3959 0.7111
C8A C 3.0125(5) -0.6964(4) 0.69242(17)
H5A H 3.0023 -0.7476 0.7250
C9A C 2.6269(5) -0.4996(4) 0.83218(18)
H6A H 2.6627 -0.5758 0.8330
C10A C 3.2301(5) -0.6875(4) 0.55341(18)
C11_2 C -0.4745(5) 0.3698(4) 1.63785(19)
H7_2 H -0.4766 0.2912 1.6437
C12A C 2.5360(5) -0.4671(4) 0.87563(18)
H8A H 2.5092 -0.5219 0.9049
C13_2 C -0.7179(5) 0.5118(4) 1.74486(17)
H9_2 H -0.7911 0.5423 1.7155
H10_2 H -0.6555 0.5718 1.7511
C14_2 C 0.6668(6) 1.2232(4) 1.8893(2)
C15_2 C -0.1625(5) 0.8465(4) 1.65580(18)
C16A C 2.9302(5) -0.5893(4) 0.68799(17)
C17_2 C -0.9007(6) 0.5706(4) 1.81989(19)
H11_2 H -0.8323 0.6260 1.8274
H12_2 H -0.9714 0.6071 1.7907
C18_2 C -0.6141(6) 0.4137(4) 1.72633(18)
H13_2 H -0.5358 0.3877 1.7545
H14_2 H -0.6756 0.3511 1.7237
C19A C 2.5199(5) -0.2753(4) 0.8316(2)
H15A H 2.4841 -0.1992 0.8312
C20A C 2.9463(5) -0.5155(4) 0.63785(17)
H16A H 2.8922 -0.4437 0.6333
C21A C 1.9172(5) -0.0502(4) 0.9303(2)
H17A H 1.8902 0.0133 0.9040
C22_2 C -0.5072(5) 0.5492(4) 1.64801(17)
H18_2 H -0.5372 0.6156 1.6631
C23A C 1.9049(5) -0.1961(4) 0.99512(18)
H19A H 1.8648 -0.2508 1.0216
C24_2 C -0.2028(6) 0.9191(4) 1.69478(19)
H20_2 H -0.3068 0.9401 1.7018
C25_2 C -0.8053(5) 0.4725(4) 1.79860(18)
H21_2 H -0.8728 0.4162 1.7916
H22_2 H -0.7320 0.4370 1.8271
C26A C 2.3899(5) -0.3193(4) 0.92562(18)
C27_2 C -1.0304(5) 0.4315(4) 1.89147(17)
H23_2 H -1.0016 0.3666 1.8750
C28A C 1.5877(4) -0.0071(4) 0.99927(19)
H24A H 1.6258 -0.0280 1.0373
H25A H 1.6260 0.0647 0.9839
C29_2 C -0.0068(6) 0.8148(4) 1.64693(19)
H26_2 H 0.0224 0.7652 1.6212
C30A C 3.1092(5) -0.7287(4) 0.64956(17)
H27A H 3.1636 -0.8005 0.6539
C31_2 C 0.3853(6) 1.1973(4) 1.8746(2)
H28_2 H 0.3590 1.2375 1.9043
C32_2 C 0.3064(7) 1.0937(5) 1.8037(2)
C33_2 C 0.5405(6) 1.1832(4) 1.85704(18)
C34A C 2.6090(6) -0.3086(4) 0.7872(2)
H29A H 2.6306 -0.2544 0.7569
C35A C 2.0626(5) -0.0973(4) 0.94379(19)
H30A H 2.1536 -0.0711 0.9279
C36_2 C -0.4081(5) 0.4326(4) 1.59392(19)
H31_2 H -0.3562 0.4035 1.5640
C37_2 C 0.1060(6) 0.8563(4) 1.6760(2)
H32_2 H 0.2098 0.8335 1.6696
C38_2 C -1.0563(6) 0.6086(4) 1.90597(19)
H33_2 H -1.0505 0.6867 1.9023
C39_2 C 0.1777(7) 1.0425(4) 1.7788(2)
H34_2 H 0.0779 1.0597 1.7922
C40A C 1.6485(5) -0.0971(4) 0.9640(2)
H35A H 1.6118 -0.0752 0.9259
H36A H 1.6077 -0.1683 0.9789
C41_2 C 0.2708(6) 1.1523(4) 1.8483(2)
H37_2 H 0.1687 1.1617 1.8610
C42_2 C 0.0676(6) 0.9304(4) 1.7140(2)
C43_2 C 0.4569(7) 1.0847(5) 1.7845(2)
H38_2 H 0.4814 1.0486 1.7532
C44_2 C 0.1926(7) 0.9779(5) 1.7410(2)
H39_2 H 0.2932 0.9582 1.7290
C45_2 C -0.0897(7) 0.9611(4) 1.7235(2)
H40_2 H -0.1188 1.0101 1.7495
C46_2 C 0.5746(7) 1.1289(5) 1.8111(2)
H41_2 H 0.6760 1.1214 1.7976
O7_2 O -0.4237(4) 0.8179(3) 1.63683(14)
C47_2 C -0.2850(6) 0.8063(4) 1.62252(19)
O8_2 O -0.2358(4) 0.7592(3) 1.58012(13)
O8_3 O 1.7642(4) 0.7592(3) 0.58012(13)
N7A N -1.3957(4) 1.2671(3) 1.48138(14)
N7_2 N 1.3957(4) 0.7329(3) 0.51862(14)
C48A C -1.3396(5) 1.1785(4) 1.51720(19)
H42A H -1.3990 1.1240 1.5362
C49A C -1.2695(5) 1.3253(4) 1.46347(18)
H43A H -1.2728 1.3916 1.4377
N8A N -1.1861(4) 1.1778(3) 1.52247(15)
C50A C -1.1422(5) 1.2720(4) 1.48868(18)
H44A H -1.0425 1.2946 1.4842
C51A C -1.0827(6) 1.0910(4) 1.55649(19)
H45A H -1.0295 1.1265 1.5832
H46A H -1.1440 1.0352 1.5775
C52A C -0.9645(5) 1.0316(4) 1.52073(19)
H47A H -0.9025 1.0875 1.5002
H48A H -0.8959 0.9782 1.5451
O9 O -0.4649(5) 0.9433(3) 1.36749(15)
O10 O 0.3305(12) 0.3754(9) 0.9555(5)
loop_
_geom_bond_atom_site_label_1
_geom_bond_atom_site_label_2
_geom_bond_site_symmetry_1
_geom_bond_site_symmetry_2
Co1 O2 1_555 1_555
Co2 O1 1_555 1_555
O1 C10 1_555 1_555
O2 C26 1_555 1_555
O3 Co2 1_555 1_555
O4 Co1 1_555 1_555
O5 Co1 1_555 1_555
O6 C14 1_555 1_555
N1 C21 1_555 1_555
N2 Co1 1_555 1_555
C1 C7 1_555 1_555
N3 C11 1_555 1_555
C2 C12 1_555 1_555
C3 H1 1_555 1_555
N4 C22 1_555 1_555
N5 C17 1_555 1_555
C4 H2 1_555 1_555
C5 C3 1_555 1_555
N6 Co1 1_555 1_555
C6 H3 1_555 1_555
C7 C6 1_555 1_555
H4 C7 1_555 1_555
C8 H5 1_555 1_555
C9 C1 1_555 1_555
H6 C9 1_555 1_555
C10 O3 1_555 1_555
C11 H7 1_555 1_555
C12 C9 1_555 1_555
H8 C12 1_555 1_555
C13 H9 1_555 1_555
H10 C13 1_555 1_555
C14 O5 1_555 1_555
C15 C24 1_555 1_555
C16 C6 1_555 1_555
C17 H11 1_555 1_555
H12 C17 1_555 1_555
C18 N3 1_555 1_555
H13 C18 1_555 1_555
H14 C18 1_555 1_555
C19 C2 1_555 1_555
H15 C19 1_555 1_555
C20 C3 1_555 1_555
H16 C20 1_555 1_555
C21 H17 1_555 1_555
C22 N3 1_555 1_555
H18 C22 1_555 1_555
C23 N1 1_555 1_555
H19 C23 1_555 1_555
C24 H20 1_555 1_555
C25 C13 1_555 1_555
H21 C25 1_555 1_555
H22 C25 1_555 1_555
C26 O4 1_555 1_555
C27 N5 1_555 1_555
H23 C27 1_555 1_555
C28 H24 1_555 1_555
H25 C28 1_555 1_555
C29 C15 1_555 1_555
H26 C29 1_555 1_555
C30 C5 1_555 1_555
H27 C30 1_555 1_555
C31 H28 1_555 1_555
C32 C39 1_555 1_555
C33 C14 1_555 1_555
C34 C1 1_555 1_555
H29 C34 1_555 1_555
C35 N2 1_555 1_555
H30 C35 1_555 1_555
C36 N4 1_555 1_555
H31 C36 1_555 1_555
C37 C29 1_555 1_555
H32 C37 1_555 1_555
C38 N5 1_555 1_555
H33 C38 1_555 1_555
C39 H34 1_555 1_555
C40 N1 1_555 1_555
H35 C40 1_555 1_555
H36 C40 1_555 1_555
C41 C31 1_555 1_555
H37 C41 1_555 1_555
C42 C37 1_555 1_555
C43 C32 1_555 1_555
H38 C43 1_555 1_555
C44 C39 1_555 1_555
H39 C44 1_555 1_555
C45 C24 1_555 1_555
H40 C45 1_555 1_555
C46 C33 1_555 1_555
H41 C46 1_555 1_555
O7 C47 1_555 1_555
C47 C15 1_555 1_555
O8 C47 1_555 1_555
N7 Co2 1_555 1_555
C48 N7 1_555 1_555
H42 C48 1_555 1_555
C49 N7 1_555 1_555
H43 C49 1_555 1_555
N8 C48 1_555 1_555
C50 C49 1_555 1_555
H44 C50 1_555 1_555
C51 N8 1_555 1_555
H45 C51 1_555 1_555
H46 C51 1_555 1_555
C52 C51 1_555 1_555
H47 C52 1_555 1_555
H48 C52 1_555 1_555
Co1A O2A 1_555 1_555
Co1_2 N6_2 1_555 1_555
Co1_3 O5_2 1_555 1_555
Co2_2 N4 1_555 1_555
Co2_3 O8 1_555 1_555
Co2A N7A 1_555 1_555
Co2A_2 O1A 1_555 1_555
O1A C10A 1_555 1_555
O1_2 Co2_2 1_555 1_555
O2A C26A 1_555 1_555
O3A Co2A_2 1_555 1_555
O3_2 Co2_2 1_555 1_555
O4A Co1A 1_555 1_555
O5_2 C14_2 1_555 1_555
O5A Co1A 1_555 1_555
O6_2 C14_2 1_555 1_555
N1A C21A 1_555 1_555
N2A Co1A 1_555 1_555
C1A C7A 1_555 1_555
N3_2 C11_2 1_555 1_555
C2A C12A 1_555 1_555
C3A H1A 1_555 1_555
N4_2 Co2 1_555 1_555
N5_2 C17_2 1_555 1_555
C4_2 H2_2 1_555 1_555
C5A C3A 1_555 1_555
N6_2 C4_2 1_555 1_555
N6A Co1A 1_555 1_555
C6A H3A 1_555 1_555
C7A C6A 1_555 1_555
H4A C7A 1_555 1_555
C8A H5A 1_555 1_555
C9A C1A 1_555 1_555
H6A C9A 1_555 1_555
C10A O3A 1_555 1_555
C11_2 H7_2 1_555 1_555
C12A C9A 1_555 1_555
H8A C12A 1_555 1_555
C13_2 H9_2 1_555 1_555
H10_2 C13_2 1_555 1_555
C14_2 C33_2 1_555 1_555
C15_2 C24_2 1_555 1_555
C16A C6A 1_555 1_555
C17_2 H11_2 1_555 1_555
H12_2 C17_2 1_555 1_555
C18_2 N3_2 1_555 1_555
H13_2 C18_2 1_555 1_555
H14_2 C18_2 1_555 1_555
C19A C2A 1_555 1_555
H15A C19A 1_555 1_555
C20A C3A 1_555 1_555
H16A C20A 1_555 1_555
C21A H17A 1_555 1_555
C22_2 N3_2 1_555 1_555
H18_2 C22_2 1_555 1_555
C23A N1A 1_555 1_555
H19A C23A 1_555 1_555
C24_2 H20_2 1_555 1_555
C25_2 C13_2 1_555 1_555
H21_2 C25_2 1_555 1_555
H22_2 C25_2 1_555 1_555
C26A O4A 1_555 1_555
C27_2 N5_2 1_555 1_555
H23_2 C27_2 1_555 1_555
C28A C28 1_555 1_555
H24A C28A 1_555 1_555
H25A C28A 1_555 1_555
C29_2 C15_2 1_555 1_555
H26_2 C29_2 1_555 1_555
C30A C5A 1_555 1_555
H27A C30A 1_555 1_555
C31_2 H28_2 1_555 1_555
C32_2 C39_2 1_555 1_555
C33_2 C31_2 1_555 1_555
C34A C1A 1_555 1_555
H29A C34A 1_555 1_555
C35A N2A 1_555 1_555
H30A C35A 1_555 1_555
C36_2 N4_2 1_555 1_555
H31_2 C36_2 1_555 1_555
C37_2 C29_2 1_555 1_555
H32_2 C37_2 1_555 1_555
C38_2 N5_2 1_555 1_555
H33_2 C38_2 1_555 1_555
C39_2 H34_2 1_555 1_555
C40A N1A 1_555 1_555
H35A C40A 1_555 1_555
H36A C40A 1_555 1_555
C41_2 C31_2 1_555 1_555
H37_2 C41_2 1_555 1_555
C42_2 C37_2 1_555 1_555
C43_2 C32_2 1_555 1_555
H38_2 C43_2 1_555 1_555
C44_2 C39_2 1_555 1_555
H39_2 C44_2 1_555 1_555
C45_2 C24_2 1_555 1_555
H40_2 C45_2 1_555 1_555
C46_2 C33_2 1_555 1_555
H41_2 C46_2 1_555 1_555
O7_2 C47_2 1_555 1_555
C47_2 C15_2 1_555 1_555
O8_2 Co2 1_555 1_555
O8_3 Co2_2 1_555 1_555
N7A C48A 1_555 1_555
N7_2 Co2_2 1_555 1_555
C48A H42A 1_555 1_555
C49A N7A 1_555 1_555
H43A C49A 1_555 1_555
N8A C48A 1_555 1_555
C50A C49A 1_555 1_555
H44A C50A 1_555 1_555
C51A N8A 1_555 1_555
H45A C51A 1_555 1_555
H46A C51A 1_555 1_555
C52A C52 1_555 1_555
H47A C52A 1_555 1_555
H48A C52A 1_555 1_555
N2 C23 1_555 1_555
C2 C26 1_555 1_555
C4 N6 1_555 1_555
C4 C38 1_555 1_555
C5 C10 1_555 1_555
N6 C27 1_555 1_555
C8 C16 1_555 1_555
C8 C30 1_555 1_555
C11 C36 1_555 1_555
C13 C18 1_555 1_555
C16 C20 1_555 1_555
C17 C25 1_555 1_555
C19 C34 1_555 1_555
C21 C35 1_555 1_555
C28 C40 1_555 1_555
C31 C33 1_555 1_555
C32 C41 1_555 1_555
C42 C44 1_555 1_555
C42 C45 1_555 1_555
C43 C46 1_555 1_555
N8 C50 1_555 1_555
N2A C23A 1_555 1_555
C2A C26A 1_555 1_555
N4_2 C22_2 1_555 1_555
C4_2 C38_2 1_555 1_555
C5A C10A 1_555 1_555
N6_2 C27_2 1_555 1_555
C8A C16A 1_555 1_555
C8A C30A 1_555 1_555
C11_2 C36_2 1_555 1_555
C13_2 C18_2 1_555 1_555
C16A C20A 1_555 1_555
C17_2 C25_2 1_555 1_555
C19A C34A 1_555 1_555
C21A C35A 1_555 1_555
C28A C40A 1_555 1_555
C32_2 C41_2 1_555 1_555
C42_2 C44_2 1_555 1_555
C42_2 C45_2 1_555 1_555
C43_2 C46_2 1_555 1_555
C47_2 O8_2 1_555 1_555
N8A C50A 1_555 1_555
C51A C52A 1_555 1_555

#END
