
#######################################################################
#
#                 Cambridge Crystallographic Data Centre
#                                CCDC 
#
#######################################################################
#
# If this CIF has been generated from an entry in the Cambridge 
# Structural Database, then it will include bibliographic, chemical, 
# crystal, experimental, refinement or atomic coordinate data resulting 
# from the CCDC's data processing and validation procedures.
#
#######################################################################

data_XOPKIX
_symmetry_cell_setting           tetragonal
_symmetry_space_group_name_H-M   'P 4/n'
_symmetry_Int_Tables_number      85
_space_group_name_Hall           '-P 4a'
loop_
_symmetry_equiv_pos_site_id
_symmetry_equiv_pos_as_xyz
1 x,y,z
2 1/2-y,x,z
3 y,1/2-x,z
4 1/2-x,1/2-y,z
5 -x,-y,-z
6 1/2+y,-x,-z
7 -y,1/2+x,-z
8 1/2+x,1/2+y,-z
_cell_length_a                   13.6376(19)
_cell_length_b                   13.6376(19)
_cell_length_c                   6.2054(17)
_cell_angle_alpha                90
_cell_angle_beta                 90
_cell_angle_gamma                90
_cell_volume                     1154.11
loop_
_atom_site_label
_atom_site_type_symbol
_atom_site_fract_x
_atom_site_fract_y
_atom_site_fract_z
B1 B 0.2500 0.2500 0.774(2)
F1 F 0.2500 0.2500 1.0033(12)
F2 F 0.2557(6) 0.3467(4) 0.7236(9)
F3 F 0.2500 0.2500 0.526(5)
F2A F 0.1533(4) 0.2557(6) 0.7236(9)
F2B F 0.3467(4) 0.2443(6) 0.7236(9)
F2C F 0.2443(6) 0.1533(4) 0.7236(9)
Ag1 Ag 0.2500 0.7500 0.5000
S1 S 0.47262(7) 0.60431(6) 1.24374(14)
N1 N 0.3263(2) 0.6527(2) 0.7498(5)
C1 C 0.3803(2) 0.5584(2) 1.0844(5)
C2 C 0.3474(3) 0.4691(3) 1.1546(6)
H1 H 0.2974 0.4323 1.0852
C3 C 0.3966(3) 0.4387(3) 1.3417(6)
H2 H 0.3824 0.3793 1.4150
C4 C 0.4671(2) 0.5033(2) 1.4078(5)
C5 C 0.3497(2) 0.6103(3) 0.8984(6)
Ag1A Ag 0.7500 0.2500 2.5000
Ag1A_2 Ag -0.2500 0.2500 -1.5000
S1D S 0.52738(7) 0.39569(6) 1.75626(14)
S1E S 0.10431(6) 0.52738(7) -0.24374(14)
S1A S -0.10431(6) 0.47262(7) -0.75626(14)
N1D N 0.6737(2) 0.3473(2) 2.2502(5)
N1E N 0.1527(2) 0.6737(2) 0.2502(5)
N1A N -0.1527(2) 0.3263(2) -1.2502(5)
N1F N 0.3473(2) 0.8263(2) 0.2502(5)
N1C N 0.1737(2) 0.8473(2) 0.7498(5)
C1D C 0.6197(2) 0.4416(2) 1.9156(5)
C1E C 0.0584(2) 0.6197(2) -0.0844(5)
C1A C -0.0584(2) 0.3803(2) -0.9156(5)
C2D C 0.6526(3) 0.5309(3) 1.8454(6)
C2E C -0.0309(3) 0.6526(3) -0.1546(6)
C2A C 0.0309(3) 0.3474(3) -0.8454(6)
H1D H 0.7026 0.5677 1.9148
H1E H -0.0677 0.7026 -0.0852
H1A H 0.0677 0.2974 -0.9148
C3D C 0.6034(3) 0.5613(3) 1.6583(6)
C3E C -0.0613(3) 0.6034(3) -0.3417(6)
C3A C 0.0613(3) 0.3966(3) -0.6583(6)
H2D H 0.6176 0.6207 1.5850
H2E H -0.1207 0.6176 -0.4150
H2A H 0.1207 0.3824 -0.5850
C4D C 0.5329(2) 0.4967(2) 1.5922(5)
C4E C 0.0033(2) 0.5329(2) -0.4078(5)
C4A C -0.0033(2) 0.4671(2) -0.5922(5)
C5D C 0.6503(2) 0.3897(3) 2.1016(6)
C5E C 0.1103(3) 0.6503(2) 0.1016(6)
C5A C -0.1103(3) 0.3497(2) -1.1016(6)
loop_
_geom_bond_atom_site_label_1
_geom_bond_atom_site_label_2
_geom_bond_site_symmetry_1
_geom_bond_site_symmetry_2
Ag1 N1 1_555 1_555
S1 C1 1_555 1_555
B1 F1 1_555 1_555
N1 C5 1_555 1_555
C1 C2 1_555 1_555
C2 H1 1_555 1_555
C3 C2 1_555 1_555
H2 C3 1_555 1_555
C4 S1 1_555 1_555
C5 C1 1_555 1_555
F2 B1 1_555 1_555
F3 B1 1_555 1_555
Ag1A N1D 1_555 1_555
Ag1A_2 N1A 1_555 1_555
S1D C1D 1_555 1_555
S1E C1E 1_555 1_555
S1A C1A 1_555 1_555
N1D C5D 1_555 1_555
N1E Ag1 1_555 1_555
N1A C5A 1_555 1_555
N1F Ag1 1_555 1_555
N1C Ag1 1_555 1_555
C1D C2D 1_555 1_555
C1E C2E 1_555 1_555
C1A C2A 1_555 1_555
C2D H1D 1_555 1_555
C2E H1E 1_555 1_555
C2A H1A 1_555 1_555
C3D C2D 1_555 1_555
C3E C2E 1_555 1_555
C3A C2A 1_555 1_555
H2D C3D 1_555 1_555
H2E C3E 1_555 1_555
H2A C3A 1_555 1_555
C4D C4 1_555 1_555
C4E S1E 1_555 1_555
C4A S1A 1_555 1_555
C5D C1D 1_555 1_555
C5E N1E 1_555 1_555
C5A C1A 1_555 1_555
F2A B1 1_555 1_555
F2B B1 1_555 1_555
F2C B1 1_555 1_555
C3 C4 1_555 1_555
S1D C4D 1_555 1_555
C1E C5E 1_555 1_555
C3D C4D 1_555 1_555
C3E C4E 1_555 1_555
C3A C4A 1_555 1_555
C4E C4A 1_555 1_555

#END
