
#######################################################################
#
#                 Cambridge Crystallographic Data Centre
#                                CCDC 
#
#######################################################################
#
# If this CIF has been generated from an entry in the Cambridge 
# Structural Database, then it will include bibliographic, chemical, 
# crystal, experimental, refinement or atomic coordinate data resulting 
# from the CCDC's data processing and validation procedures.
#
#######################################################################

data_XOPKOD
_symmetry_cell_setting           tetragonal
_symmetry_space_group_name_H-M   'P 4/n'
_symmetry_Int_Tables_number      85
_space_group_name_Hall           '-P 4a'
loop_
_symmetry_equiv_pos_site_id
_symmetry_equiv_pos_as_xyz
1 x,y,z
2 1/2-y,x,z
3 y,1/2-x,z
4 1/2-x,1/2-y,z
5 -x,-y,-z
6 1/2+y,-x,-z
7 -y,1/2+x,-z
8 1/2+x,1/2+y,-z
_cell_length_a                   13.834(5)
_cell_length_b                   13.834(5)
_cell_length_c                   6.162(4)
_cell_angle_alpha                90
_cell_angle_beta                 90
_cell_angle_gamma                90
_cell_volume                     1179.28
loop_
_atom_site_label
_atom_site_type_symbol
_atom_site_fract_x
_atom_site_fract_y
_atom_site_fract_z
Ag1 Ag 0.2500 0.7500 0.5000
S1 S 0.47298(4) 0.60196(4) 1.23856(9)
N1 N 0.32319(14) 0.65123(15) 0.7473(3)
C1 C 0.37797(15) 0.55880(16) 1.0862(4)
C2 C 0.34311(19) 0.47269(18) 1.1639(4)
H1 H 0.2921 0.4388 1.1017
C3 C 0.39397(18) 0.44188(18) 1.3491(4)
H2 H 0.3798 0.3851 1.4232
C4 C 0.46636(15) 0.50366(14) 1.4093(3)
C5 C 0.34690(16) 0.60950(16) 0.8986(4)
Ag1A Ag 0.7500 0.2500 2.5000
Ag1A_2 Ag -0.2500 0.2500 -1.5000
S1D S 0.52702(4) 0.39804(4) 1.76144(9)
S1E S 0.10196(4) 0.52702(4) -0.23856(9)
S1A S -0.10196(4) 0.47298(4) -0.76144(9)
N1D N 0.67681(14) 0.34877(15) 2.2527(3)
N1E N 0.15123(15) 0.67681(14) 0.2527(3)
N1A N -0.15123(15) 0.32319(14) -1.2527(3)
N1F N 0.34877(15) 0.82319(14) 0.2527(3)
N1C N 0.17681(14) 0.84877(15) 0.7473(3)
C1D C 0.62203(15) 0.44120(16) 1.9138(4)
C1E C 0.05880(16) 0.62203(15) -0.0862(4)
C1A C -0.05880(16) 0.37797(15) -0.9138(4)
C2D C 0.65689(19) 0.52731(18) 1.8361(4)
C2E C -0.02731(18) 0.65689(19) -0.1639(4)
C2A C 0.02731(18) 0.34311(19) -0.8361(4)
H1D H 0.7079 0.5612 1.8983
H1E H -0.0612 0.7079 -0.1017
H1A H 0.0612 0.2921 -0.8983
C3D C 0.60603(18) 0.55812(18) 1.6509(4)
C3E C -0.05812(18) 0.60603(18) -0.3491(4)
C3A C 0.05812(18) 0.39397(18) -0.6509(4)
H2D H 0.6202 0.6149 1.5768
H2E H -0.1149 0.6202 -0.4232
H2A H 0.1149 0.3798 -0.5768
C4D C 0.53364(15) 0.49634(14) 1.5907(3)
C4E C 0.00366(14) 0.53364(15) -0.4093(3)
C4A C -0.00366(14) 0.46636(15) -0.5907(3)
C5D C 0.65310(16) 0.39050(16) 2.1014(4)
C5E C 0.10950(16) 0.65310(16) 0.1014(4)
C5A C -0.10950(16) 0.34690(16) -1.1014(4)
Cl1 Cl 0.2500 0.2500 0.8058(2)
O2 O 0.284(2) 0.3348(18) 0.722(2)
O2A O 0.1652(18) 0.284(2) 0.722(2)
O2B O 0.3348(18) 0.216(2) 0.722(2)
O2C O 0.216(2) 0.1652(18) 0.722(2)
O1? O 0.2500 0.2500 1.0400(7)
O3? O 0.3525(8) 0.2590(15) 0.7440(15)
loop_
_geom_bond_atom_site_label_1
_geom_bond_atom_site_label_2
_geom_bond_site_symmetry_1
_geom_bond_site_symmetry_2
Ag1 N1 1_555 1_555
Cl1 O2 1_555 1_555
S1 C1 1_555 1_555
N1 C5 1_555 1_555
C1 C2 1_555 1_555
C2 H1 1_555 1_555
C3 C2 1_555 1_555
H2 C3 1_555 1_555
C4 S1 1_555 1_555
C5 C1 1_555 1_555
Ag1A N1D 1_555 1_555
Ag1A_2 N1A 1_555 1_555
S1D C1D 1_555 1_555
S1E C1E 1_555 1_555
S1A C1A 1_555 1_555
O2A Cl1 1_555 1_555
O2B Cl1 1_555 1_555
O2C Cl1 1_555 1_555
N1D C5D 1_555 1_555
N1E Ag1 1_555 1_555
N1A C5A 1_555 1_555
N1F Ag1 1_555 1_555
N1C Ag1 1_555 1_555
C1D C2D 1_555 1_555
C1E C2E 1_555 1_555
C1A C2A 1_555 1_555
C2D H1D 1_555 1_555
C2E H1E 1_555 1_555
C2A H1A 1_555 1_555
C3D C2D 1_555 1_555
C3E C2E 1_555 1_555
C3A C2A 1_555 1_555
H2D C3D 1_555 1_555
H2E C3E 1_555 1_555
H2A C3A 1_555 1_555
C4D C4 1_555 1_555
C4E S1E 1_555 1_555
C4A S1A 1_555 1_555
C5D C1D 1_555 1_555
C5E N1E 1_555 1_555
C5A C1A 1_555 1_555
C3 C4 1_555 1_555
S1D C4D 1_555 1_555
C1E C5E 1_555 1_555
C3D C4D 1_555 1_555
C3E C4E 1_555 1_555
C3A C4A 1_555 1_555
C4E C4A 1_555 1_555

#END
