
#######################################################################
#
#                 Cambridge Crystallographic Data Centre
#                                CCDC 
#
#######################################################################
#
# If this CIF has been generated from an entry in the Cambridge 
# Structural Database, then it will include bibliographic, chemical, 
# crystal, experimental, refinement or atomic coordinate data resulting 
# from the CCDC's data processing and validation procedures.
#
#######################################################################

data_XOPKUJ
_symmetry_cell_setting           monoclinic
_symmetry_space_group_name_H-M   'P 21/n'
_symmetry_Int_Tables_number      14
_space_group_name_Hall           '-P 2yn'
loop_
_symmetry_equiv_pos_site_id
_symmetry_equiv_pos_as_xyz
1 x,y,z
2 1/2-x,1/2+y,1/2-z
3 -x,-y,-z
4 1/2+x,1/2-y,1/2+z
_cell_length_a                   9.1730(11)
_cell_length_b                   11.3098(13)
_cell_length_c                   11.0517(10)
_cell_angle_alpha                90
_cell_angle_beta                 107.793(8)
_cell_angle_gamma                90
_cell_volume                     1091.71
loop_
_atom_site_label
_atom_site_type_symbol
_atom_site_fract_x
_atom_site_fract_y
_atom_site_fract_z
Cd1 Cd 0.0000 0.0000 0.5000
O1 O 0.0695(3) 0.0653(3) 0.6984(2)
N1 N 0.2440(4) -0.0684(3) 0.5604(3)
N2 N 0.2854(4) -0.0454(3) 0.7828(3)
C1 C 0.3355(4) -0.0788(3) 0.6799(3)
C2 C 0.4820(5) -0.1260(4) 0.7084(4)
C3 C 0.5361(5) -0.1594(4) 0.6121(5)
C4 C 0.4435(5) -0.1481(4) 0.4870(4)
C5 C 0.3011(5) -0.1030(4) 0.4671(4)
C6 C 0.1663(4) 0.0215(4) 0.7906(3)
C7 C 0.1559(5) 0.0409(5) 0.9223(4)
C8 C 0.0066(5) -0.0086(5) 0.9341(4)
Cl1 Cl 0.04009(12) 0.28397(10) 0.37950(9)
O2 O 0.1017(4) 0.1698(3) 0.4216(5)
O3 O 0.0054(4) 0.3444(4) 0.4796(3)
O4 O 0.1511(4) 0.3479(3) 0.3401(3)
O5 O -0.0965(4) 0.2715(4) 0.2762(3)
H1 H 0.335(5) -0.066(4) 0.856(4)
H2 H 0.536(5) -0.137(4) 0.793(4)
H3 H 0.630(5) -0.196(4) 0.629(4)
H4 H 0.483(5) -0.177(4) 0.419(4)
H5 H 0.240(5) -0.100(4) 0.387(4)
H6 H 0.164(5) 0.123(4) 0.934(4)
H7 H 0.239(6) 0.001(4) 0.983(5)
H8 H -0.077(6) 0.021(4) 0.872(5)
H9 H 0.002(6) -0.091(5) 0.911(4)
Cd1_2 Cd 0.0000 0.0000 1.5000
O1B O -0.0695(3) -0.0653(3) 1.3016(2)
O1B_2 O -0.0695(3) -0.0653(3) 0.3016(2)
N1B N -0.2440(4) 0.0684(3) 1.4396(3)
N1B_2 N -0.2440(4) 0.0684(3) 0.4396(3)
N2B N -0.2854(4) 0.0454(3) 1.2172(3)
C1B C -0.3355(4) 0.0788(3) 1.3201(3)
C2B C -0.4820(5) 0.1260(4) 1.2916(4)
C3B C -0.5361(5) 0.1594(4) 1.3879(5)
C4B C -0.4435(5) 0.1481(4) 1.5130(4)
C5B C -0.3011(5) 0.1030(4) 1.5329(4)
C6B C -0.1663(4) -0.0215(4) 1.2094(3)
C7B C -0.1559(5) -0.0409(5) 1.0777(4)
C8B C -0.0066(5) 0.0086(5) 1.0659(4)
Cl1B Cl -0.04009(12) -0.28397(10) 0.62050(9)
O2B O -0.1017(4) -0.1698(3) 0.5784(5)
O3B O -0.0054(4) -0.3444(4) 0.5204(3)
O4B O -0.1511(4) -0.3479(3) 0.6599(3)
O5B O 0.0965(4) -0.2715(4) 0.7238(3)
H1B H -0.335(5) 0.066(4) 1.144(4)
H2B H -0.536(5) 0.137(4) 1.207(4)
H3B H -0.630(5) 0.196(4) 1.371(4)
H4B H -0.483(5) 0.177(4) 1.581(4)
H5B H -0.240(5) 0.100(4) 1.613(4)
H6B H -0.164(5) -0.123(4) 1.066(4)
H7B H -0.239(6) -0.001(4) 1.017(5)
H8B H 0.077(6) -0.021(4) 1.128(5)
H9B H -0.002(6) 0.091(5) 1.089(4)
loop_
_geom_bond_atom_site_label_1
_geom_bond_atom_site_label_2
_geom_bond_site_symmetry_1
_geom_bond_site_symmetry_2
Cd1 O1 1_555 1_555
O1 C6 1_555 1_555
N1 Cd1 1_555 1_555
N2 C1 1_555 1_555
C1 N1 1_555 1_555
C2 C1 1_555 1_555
C3 C2 1_555 1_555
C4 C3 1_555 1_555
C5 N1 1_555 1_555
C6 N2 1_555 1_555
C7 C6 1_555 1_555
C8 C7 1_555 1_555
Cl1 O2 1_555 1_555
O2 Cd1 1_555 1_555
O3 Cl1 1_555 1_555
O4 Cl1 1_555 1_555
O5 Cl1 1_555 1_555
H1 N2 1_555 1_555
H2 C2 1_555 1_555
H3 C3 1_555 1_555
H4 C4 1_555 1_555
H5 C5 1_555 1_555
H6 C7 1_555 1_555
H7 C7 1_555 1_555
H8 C8 1_555 1_555
H9 C8 1_555 1_555
Cd1_2 O1B 1_555 1_555
O1B C6B 1_555 1_555
O1B_2 Cd1 1_555 1_555
N1B Cd1_2 1_555 1_555
N1B_2 Cd1 1_555 1_555
N2B C1B 1_555 1_555
C1B N1B 1_555 1_555
C2B C1B 1_555 1_555
C3B C2B 1_555 1_555
C4B C3B 1_555 1_555
C5B N1B 1_555 1_555
C6B N2B 1_555 1_555
C7B C6B 1_555 1_555
C8B C8 1_555 1_555
Cl1B O2B 1_555 1_555
O2B Cd1 1_555 1_555
O3B Cl1B 1_555 1_555
O4B Cl1B 1_555 1_555
O5B Cl1B 1_555 1_555
H1B N2B 1_555 1_555
H2B C2B 1_555 1_555
H3B C3B 1_555 1_555
H4B C4B 1_555 1_555
H5B C5B 1_555 1_555
H6B C7B 1_555 1_555
H7B C7B 1_555 1_555
H8B C8B 1_555 1_555
H9B C8B 1_555 1_555
C4 C5 1_555 1_555
C4B C5B 1_555 1_555
C7B C8B 1_555 1_555

#END
