
#######################################################################
#
#                 Cambridge Crystallographic Data Centre
#                                CCDC 
#
#######################################################################
#
# If this CIF has been generated from an entry in the Cambridge 
# Structural Database, then it will include bibliographic, chemical, 
# crystal, experimental, refinement or atomic coordinate data resulting 
# from the CCDC's data processing and validation procedures.
#
#######################################################################

data_XOPLOF
_symmetry_cell_setting           monoclinic
_symmetry_space_group_name_H-M   'P 21/n'
_symmetry_Int_Tables_number      14
_space_group_name_Hall           '-P 2yn'
loop_
_symmetry_equiv_pos_site_id
_symmetry_equiv_pos_as_xyz
1 x,y,z
2 1/2-x,1/2+y,1/2-z
3 -x,-y,-z
4 1/2+x,1/2-y,1/2+z
_cell_length_a                   10.0130(4)
_cell_length_b                   18.6170(8)
_cell_length_c                   21.2365(8)
_cell_angle_alpha                90
_cell_angle_beta                 91.844(2)
_cell_angle_gamma                90
_cell_volume                     3956.69
loop_
_atom_site_label
_atom_site_type_symbol
_atom_site_fract_x
_atom_site_fract_y
_atom_site_fract_z
Cd1 Cd 0.91779(6) 0.39542(4) 0.22708(3)
Cd2 Cd 0.30488(5) 0.37400(3) 0.32806(2)
Cd3 Cd 0.31395(5) 0.32685(3) 0.14642(2)
O1 O 1.0566(5) 0.3756(3) 0.3122(3)
O2 O 1.1499(6) 0.3273(4) 0.3962(3)
O3 O 0.8034(5) 0.3523(3) 0.3593(2)
O4 O 0.4659(5) 0.3130(4) 0.3951(3)
O5 O 0.1917(6) 0.7866(3) 0.2473(3)
O6 O 0.4632(5) 0.3009(4) 0.0634(3)
O7 O 1.0615(5) 0.3447(3) 0.1601(2)
O8 O 0.8038(5) 0.3228(3) 0.1094(2)
O9 O 1.1449(5) 0.3073(3) 0.0714(3)
O10 O 0.3152(7) 0.4457(3) 0.1425(3)
O11 O 0.2866(8) 0.4541(3) 0.2455(3)
O12 O 0.2558(6) 0.5984(3) 0.2364(2)
O13 O 0.7001(6) 0.4163(4) 0.2268(3)
H1 H 0.6734 0.4156 0.2644
H2 H 0.6597 0.3839 0.2054
O14 O 0.9073(10) 0.4778(5) 0.1415(5)
C1 C 0.8069(18) 0.4902(7) 0.1095(6)
H3 H 0.7283 0.4674 0.1205
N1 N 0.8011(18) 0.5337(8) 0.0603(7)
O15 O 0.9148(15) 0.5056(5) 0.2838(8)
C2 C 0.985(2) 0.5324(9) 0.3234(9)
H4 H 1.0764 0.5328 0.3160
N2 N 0.9475(17) 0.5619(9) 0.3772(10)
C3 C 1.0476(7) 0.3439(4) 0.3633(4)
C4 C 0.9159(7) 0.3255(5) 0.3889(3)
C5 C 0.6986(7) 0.3235(4) 0.3907(3)
C6 C 0.5614(7) 0.3432(5) 0.3676(4)
C7 C 0.5610(7) 0.3128(4) 0.0983(4)
O16 O 0.5519(5) 0.3288(4) 0.1562(3)
C8 C 0.6963(7) 0.3043(5) 0.0720(4)
C9 C 0.7363(8) 0.2819(6) 0.0158(4)
H5 H 0.6816 0.2676 -0.0181
C10 C 0.8768(8) 0.2839(5) 0.0178(4)
H6 H 0.9328 0.2696 -0.0140
C11 C 0.9141(6) 0.3104(4) 0.0743(3)
C12 C 1.0477(7) 0.3226(4) 0.1045(4)
O17 O 0.2121(7) 0.7050(3) 0.3212(3)
C13 C 0.2124(7) 0.7220(4) 0.2648(3)
C14 C 0.2362(8) 0.6676(4) 0.2156(4)
C15 C 0.2937(8) 0.4794(4) 0.1920(4)
C16 C 0.2746(8) 0.5575(4) 0.1837(3)
C17 C 0.2421(11) 0.6704(5) 0.1528(4)
H7 H 0.2309 0.7111 0.1279
C18 C 0.2684(11) 0.6006(5) 0.1314(4)
H8 H 0.2795 0.5864 0.0898
O18 O 0.5456(6) 0.3866(4) 0.3249(3)
O19 O 0.3272(9) 0.4762(4) 0.3897(4)
C19 C 0.3927(15) 0.5261(6) 0.3686(8)
H9 H 0.4069 0.5236 0.3255
N3 N 0.4441(15) 0.5806(7) 0.3961(9)
C20 C 0.7444(8) 0.2837(5) 0.4394(4)
H10 H 0.6928 0.2594 0.4682
C21 C 0.8836(8) 0.2852(5) 0.4389(4)
H11 H 0.9425 0.2629 0.4674
O20 O 0.8746(9) 0.2715(5) 0.2441(4)
C22 C 0.7761(14) 0.2444(7) 0.2551(5)
H12 H 0.6996 0.2700 0.2431
N4 N 0.7543(12) 0.1811(6) 0.2826(5)
C23 C 0.6213(18) 0.1585(10) 0.3016(9)
H13 H 0.6090 0.1718 0.3447
H14 H 0.6131 0.1074 0.2973
H15 H 0.5545 0.1816 0.2752
C24 C 0.868(2) 0.1382(10) 0.3087(9)
H16 H 0.9498 0.1636 0.3026
H17 H 0.8706 0.0927 0.2875
H18 H 0.8565 0.1305 0.3529
C25 C 0.519(3) 0.6407(14) 0.3664(12)
H19 H 0.5973 0.6222 0.3476
H20 H 0.5437 0.6755 0.3980
H21 H 0.4624 0.6631 0.3346
C26 C 1.039(3) 0.5977(13) 0.4194(12)
H22 H 1.1115 0.5659 0.4308
H23 H 0.9942 0.6119 0.4566
H24 H 1.0742 0.6395 0.3992
C27 C 0.916(3) 0.5726(18) 0.0395(16)
H25 H 0.9831 0.5739 0.0728
H26 H 0.8901 0.6208 0.0285
H27 H 0.9510 0.5492 0.0033
C28 C 0.406(4) 0.6031(19) 0.4525(18)
C29 C 0.686(3) 0.5509(14) 0.0260(12)
C30 C 0.812(5) 0.551(2) 0.392(2)
Cd2_2 Cd 1.30488(5) 0.37400(3) 0.32806(2)
Cd2A Cd 0.19512(5) 0.87400(3) 0.17194(2)
Cd3_2 Cd 1.31395(5) 0.32685(3) 0.14642(2)
Cd3A Cd 0.18605(5) 0.82685(3) 0.35358(2)
O1_2 O 0.0566(5) 0.3756(3) 0.3122(3)
O2_2 O 0.1499(6) 0.3273(4) 0.3962(3)
O5A O 0.3083(6) 0.2866(3) 0.2527(3)
O7_2 O 0.0615(5) 0.3447(3) 0.1601(2)
O9_2 O 0.1449(5) 0.3073(3) 0.0714(3)
O17A O 0.2879(7) 0.2050(3) 0.1788(3)
loop_
_geom_bond_atom_site_label_1
_geom_bond_atom_site_label_2
_geom_bond_site_symmetry_1
_geom_bond_site_symmetry_2
Cd1 O1 1_555 1_555
Cd2 O4 1_555 1_555
Cd3 O6 1_555 1_555
O1 C3 1_555 1_555
O2 C3 1_555 1_555
O3 C4 1_555 1_555
O4 C6 1_555 1_555
O5 C13 1_555 1_555
O6 C7 1_555 1_555
O7 Cd1 1_555 1_555
O8 C8 1_555 1_555
O9 C12 1_555 1_555
O10 Cd3 1_555 1_555
O11 Cd2 1_555 1_555
O12 C14 1_555 1_555
O13 Cd1 1_555 1_555
H1 O13 1_555 1_555
H2 O13 1_555 1_555
O14 Cd1 1_555 1_555
C1 O14 1_555 1_555
H3 C1 1_555 1_555
N1 C1 1_555 1_555
O15 Cd1 1_555 1_555
C2 O15 1_555 1_555
H4 C2 1_555 1_555
N2 C2 1_555 1_555
C3 C4 1_555 1_555
C4 C21 1_555 1_555
C5 O3 1_555 1_555
C6 C5 1_555 1_555
C7 O16 1_555 1_555
O16 Cd3 1_555 1_555
C8 C7 1_555 1_555
C9 C8 1_555 1_555
H5 C9 1_555 1_555
C10 C9 1_555 1_555
H6 C10 1_555 1_555
C11 O8 1_555 1_555
C12 O7 1_555 1_555
O17 C13 1_555 1_555
C13 C14 1_555 1_555
C14 C17 1_555 1_555
C15 O10 1_555 1_555
C16 O12 1_555 1_555
C17 H7 1_555 1_555
C18 C16 1_555 1_555
H8 C18 1_555 1_555
O18 Cd2 1_555 1_555
O19 Cd2 1_555 1_555
C19 O19 1_555 1_555
H9 C19 1_555 1_555
N3 C19 1_555 1_555
C20 C5 1_555 1_555
H10 C20 1_555 1_555
C21 C20 1_555 1_555
H11 C21 1_555 1_555
O20 Cd1 1_555 1_555
C22 O20 1_555 1_555
H12 C22 1_555 1_555
N4 C22 1_555 1_555
C23 N4 1_555 1_555
H13 C23 1_555 1_555
H14 C23 1_555 1_555
H15 C23 1_555 1_555
C24 N4 1_555 1_555
H16 C24 1_555 1_555
H17 C24 1_555 1_555
H18 C24 1_555 1_555
C25 N3 1_555 1_555
H19 C25 1_555 1_555
H20 C25 1_555 1_555
H21 C25 1_555 1_555
C26 N2 1_555 1_555
H22 C26 1_555 1_555
H23 C26 1_555 1_555
H24 C26 1_555 1_555
C27 N1 1_555 1_555
H25 C27 1_555 1_555
H26 C27 1_555 1_555
H27 C27 1_555 1_555
C28 N3 1_555 1_555
C29 N1 1_555 1_555
C30 N2 1_555 1_555
Cd2_2 O1 1_555 1_555
Cd2A O5 1_555 1_555
Cd3_2 O7 1_555 1_555
Cd3A O5 1_555 1_555
O1_2 Cd2 1_555 1_555
O2_2 Cd2 1_555 1_555
O5A Cd2 1_555 1_555
O7_2 Cd3 1_555 1_555
O9_2 Cd3 1_555 1_555
O17A Cd3 1_555 1_555
Cd3 O5A 1_555 1_555
O2 Cd2_2 1_555 1_555
O9 Cd3_2 1_555 1_555
O11 C15 1_555 1_555
C6 O18 1_555 1_555
C10 C11 1_555 1_555
C11 C12 1_555 1_555
O17 Cd3A 1_555 1_555
C15 C16 1_555 1_555
C17 C18 1_555 1_555

#END
