
#######################################################################
#
#                 Cambridge Crystallographic Data Centre
#                                CCDC 
#
#######################################################################
#
# If this CIF has been generated from an entry in the Cambridge 
# Structural Database, then it will include bibliographic, chemical, 
# crystal, experimental, refinement or atomic coordinate data resulting 
# from the CCDC's data processing and validation procedures.
#
#######################################################################

data_XOPLUL
_symmetry_cell_setting           triclinic
_symmetry_space_group_name_H-M   'P -1'
_symmetry_Int_Tables_number      2
_space_group_name_Hall           '-P 1'
loop_
_symmetry_equiv_pos_site_id
_symmetry_equiv_pos_as_xyz
1 x,y,z
2 -x,-y,-z
_cell_length_a                   9.4327(2)
_cell_length_b                   10.1954(2)
_cell_length_c                   11.2452(2)
_cell_angle_alpha                63.9830(10)
_cell_angle_beta                 73.2120(10)
_cell_angle_gamma                83.2200(10)
_cell_volume                     930.395
loop_
_atom_site_label
_atom_site_type_symbol
_atom_site_fract_x
_atom_site_fract_y
_atom_site_fract_z
Cd1 Cd 0.0000 0.0000 0.5000
Cd2 Cd 0.0142 0.3412 0.1868
O1 O 0.0163 -0.0048 0.2913
O2 O 0.1291 0.1884 0.1033
O3 O -0.0029 -0.4423 0.2043
O4 O 0.7847 0.2608 0.3053
O5 O 0.7807 0.1085 0.5224
O6 O 0.4884 0.2427 0.3644
O7 O 0.0761 -0.1681 0.1463
O8 O 0.1069 0.2317 0.3839
C1 C 0.0895 0.0567 0.1702
C2 C 0.0778 -0.3698 0.0851
O9 O 0.1223 -0.4182 -0.0040
C3 C 0.1245 -0.2219 0.0484
C4 C 0.2425 0.2754 0.3317
C5 C 0.3403 0.2192 0.4247
O10 O 0.2907 0.3624 0.2110
C6 C 0.7217 0.1827 0.4290
C7 C 0.5569 0.1807 0.4665
C8 C 0.3141 0.1440 0.5630
H1 H 0.2225 0.1153 0.6267
C9 C 0.4549 0.1181 0.5906
H2 H 0.4740 0.0685 0.6761
C10 C 0.1336 -0.0304 0.0882
C11 C 0.2109 -0.1214 -0.0679
H3 H 0.2592 -0.1322 -0.1478
C12 C 0.2132 0.0038 -0.0440
H4 H 0.2601 0.0924 -0.1067
Cd2A Cd -0.0142 -0.3412 -0.1868
O1A O -0.0163 0.0048 -0.2913
O2A O -0.1291 -0.1884 -0.1033
O3A O 0.0029 0.4423 -0.2043
O4A O -0.7847 -0.2608 -0.3053
O5A O -0.7807 -0.1085 -0.5224
O6A O -0.4884 -0.2427 -0.3644
O7A O -0.0761 0.1681 -0.1463
O8A O -0.1069 -0.2317 -0.3839
C1A C -0.0895 -0.0567 -0.1702
C2A C -0.0778 0.3698 -0.0851
O9A O -0.1223 0.4182 0.0040
C3A C -0.1245 0.2219 -0.0484
C4A C -0.2425 -0.2754 -0.3317
C5A C -0.3403 -0.2192 -0.4247
O10A O -0.2907 -0.3624 -0.2110
C6A C -0.7217 -0.1827 -0.4290
C7A C -0.5569 -0.1807 -0.4665
C8A C -0.3141 -0.1440 -0.5630
H1A H -0.2225 -0.1153 -0.6267
C9A C -0.4549 -0.1181 -0.5906
H2A H -0.4740 -0.0685 -0.6761
C10A C -0.1336 0.0304 -0.0882
C11A C -0.2109 0.1214 0.0679
H3A H -0.2592 0.1322 0.1478
C12A C -0.2132 -0.0038 0.0440
H4A H -0.2601 -0.0924 0.1067
Cd1_2 Cd -1.0000 0.0000 -0.5000
Cd1_3 Cd 0.0000 0.0000 -0.5000
Cd1_4 Cd 1.0000 0.0000 0.5000
Cd2_2 Cd 0.0142 -0.6588 0.1868
Cd2_3 Cd 1.0142 0.3412 0.1868
Cd2A_2 Cd -1.0142 -0.3412 -0.1868
Cd2A_3 Cd -0.0142 0.6588 -0.1868
O1A_2 O -0.0163 0.0048 0.7087
O3_2 O -0.0029 0.5577 0.2043
O3A_2 O 0.0029 -0.5577 -0.2043
O4_2 O -0.2153 0.2608 0.3053
O4A_2 O 0.2153 -0.2608 -0.3053
O5_2 O -0.2193 0.1085 0.5224
O5A_2 O 0.2193 -0.1085 0.4776
O8A_2 O -0.1069 -0.2317 0.6161
O9_2 O 0.1223 0.5818 -0.0040
O9A_2 O -0.1223 -0.5818 0.0040
N1 N 0.4701 0.3554 0.7916
H5 H 0.5574 0.3782 0.7293
H6 H 0.4586 0.2590 0.8376
C13 C 0.3537 0.4231 0.7385
H7 H 0.3867 0.4661 0.6401
H8 H 0.3162 0.4980 0.7691
H9 H 0.2768 0.3528 0.7691
C14 C 0.4350 0.4517 0.9066
H10 H 0.4496 0.5548 0.8515
H11 H 0.5023 0.4166 0.9634
H12 H 0.3350 0.4328 0.9634
O11 O 0.9274 0.4385 0.5113
H13 H 0.8691 0.3673 0.5681
H14 H 0.9629 0.4708 0.5548
loop_
_geom_bond_atom_site_label_1
_geom_bond_atom_site_label_2
_geom_bond_site_symmetry_1
_geom_bond_site_symmetry_2
Cd1 O1 1_555 1_555
Cd2 O2 1_555 1_555
O1 C1 1_555 1_555
O2 C1 1_555 1_555
O3 C2 1_555 1_555
O4 C6 1_555 1_555
O5 C6 1_555 1_555
O6 C5 1_555 1_555
O7 C3 1_555 1_555
O8 Cd1 1_555 1_555
C1 C10 1_555 1_555
C2 O9 1_555 1_555
O9 Cd2A 1_555 1_555
C3 C2 1_555 1_555
C4 O8 1_555 1_555
C5 C4 1_555 1_555
O10 Cd2 1_555 1_555
C6 C7 1_555 1_555
C7 O6 1_555 1_555
C8 C5 1_555 1_555
H1 C8 1_555 1_555
C9 C7 1_555 1_555
H2 C9 1_555 1_555
C10 O7 1_555 1_555
C11 C3 1_555 1_555
H3 C11 1_555 1_555
C12 C10 1_555 1_555
H4 C12 1_555 1_555
N1 H5 1_555 1_555
H6 N1 1_555 1_555
C13 N1 1_555 1_555
H7 C13 1_555 1_555
H8 C13 1_555 1_555
H9 C13 1_555 1_555
C14 N1 1_555 1_555
H10 C14 1_555 1_555
H11 C14 1_555 1_555
H12 C14 1_555 1_555
O11 H13 1_555 1_555
H14 O11 1_555 1_555
Cd2A O2A 1_555 1_555
O1A C1A 1_555 1_555
O2A C1A 1_555 1_555
O3A C2A 1_555 1_555
O4A C6A 1_555 1_555
O5A C6A 1_555 1_555
O6A C5A 1_555 1_555
O7A C3A 1_555 1_555
O8A Cd2A 1_555 1_555
C1A C10A 1_555 1_555
C2A O9A 1_555 1_555
O9A Cd2 1_555 1_555
C3A C2A 1_555 1_555
C4A O8A 1_555 1_555
C5A C4A 1_555 1_555
O10A Cd2A 1_555 1_555
C6A C7A 1_555 1_555
C7A O6A 1_555 1_555
C8A C5A 1_555 1_555
H1A C8A 1_555 1_555
C9A C7A 1_555 1_555
H2A C9A 1_555 1_555
C10A O7A 1_555 1_555
C11A C3A 1_555 1_555
H3A C11A 1_555 1_555
C12A C10A 1_555 1_555
H4A C12A 1_555 1_555
Cd1_2 O5A 1_555 1_555
Cd1_3 O1A 1_555 1_555
Cd1_4 O5 1_555 1_555
Cd2_2 O3 1_555 1_555
Cd2_3 O4 1_555 1_555
Cd2A_2 O4A 1_555 1_555
Cd2A_3 O3A 1_555 1_555
O1A_2 Cd1 1_555 1_555
O3_2 Cd2 1_555 1_555
O3A_2 Cd2A 1_555 1_555
O4_2 Cd2 1_555 1_555
O4A_2 Cd2A 1_555 1_555
O5_2 Cd1 1_555 1_555
O5A_2 Cd1 1_555 1_555
O8A_2 Cd1 1_555 1_555
O9_2 Cd2 1_555 1_555
O9A_2 Cd2A 1_555 1_555
Cd2 O8 1_555 1_555
O9 Cd2_2 1_555 1_555
C4 O10 1_555 1_555
C8 C9 1_555 1_555
C11 C12 1_555 1_555
O8A Cd1_3 1_555 1_555
O9A Cd2A_3 1_555 1_555
C4A O10A 1_555 1_555
C8A C9A 1_555 1_555
C11A C12A 1_555 1_555
Cd2_2 O9A_2 1_555 1_555
Cd2A_3 O9_2 1_555 1_555

#END
