
#######################################################################
#
#                 Cambridge Crystallographic Data Centre
#                                CCDC 
#
#######################################################################
#
# If this CIF has been generated from an entry in the Cambridge 
# Structural Database, then it will include bibliographic, chemical, 
# crystal, experimental, refinement or atomic coordinate data resulting 
# from the CCDC's data processing and validation procedures.
#
#######################################################################

data_XOPPOJ
_symmetry_cell_setting           monoclinic
_symmetry_space_group_name_H-M   'P 21/c'
_symmetry_Int_Tables_number      14
_space_group_name_Hall           '-P 2ybc'
loop_
_symmetry_equiv_pos_site_id
_symmetry_equiv_pos_as_xyz
1 x,y,z
2 -x,1/2+y,1/2-z
3 -x,-y,-z
4 x,1/2-y,1/2+z
_cell_length_a                   11.6974(2)
_cell_length_b                   18.9426(3)
_cell_length_c                   22.8571(5)
_cell_angle_alpha                90
_cell_angle_beta                 92.565(1)
_cell_angle_gamma                90
_cell_volume                     5059.58
loop_
_atom_site_label
_atom_site_type_symbol
_atom_site_fract_x
_atom_site_fract_y
_atom_site_fract_z
Ce1 Ce 0.407056(13) 0.248380(10) 0.028921(7)
N1 N 0.4975(2) 0.38024(14) 0.05136(10)
N2 N 0.4176(2) 0.13064(14) -0.03853(10)
N3 N 0.4090(2) 0.11545(14) 0.08061(11)
N4 N 0.0153(2) 0.05843(15) 0.28021(12)
N5 N -0.2166(2) 0.07986(15) 0.27311(11)
N6 N 0.2651(2) 0.36375(14) 0.03764(11)
C1 C 0.3817(2) 0.06811(16) -0.01697(13)
C2 C -0.1768(3) 0.01326(18) 0.28256(13)
C3 C -0.2504(3) -0.04534(19) 0.28926(14)
C4 C 0.3753(2) 0.06042(16) 0.04584(13)
C5 C 0.4010(3) 0.10691(18) 0.13815(13)
H1 H 0.4262 0.1444 0.1631
C6 C 0.3977(3) 0.08090(19) -0.13508(14)
H2 H 0.4050 0.0872 -0.1760
C7 C -0.0542(3) 0.00186(18) 0.28550(14)
C8 C -0.3287(3) 0.0887(2) 0.27081(14)
H3 H -0.3574 0.1350 0.2643
C9 C 0.3506(3) 0.01008(18) -0.05304(14)
C10 C 0.3244(3) -0.00897(19) 0.12927(15)
H4 H 0.2947 -0.0506 0.1460
C11 C -0.4082(3) 0.0343(2) 0.27729(14)
H5 H -0.4880 0.0437 0.2751
C12 C -0.0117(3) -0.06707(19) 0.29345(17)
C13 C 0.3343(3) -0.00355(17) 0.06841(14)
C14 C 0.4266(3) 0.13550(18) -0.09607(13)
H6 H 0.4543 0.1784 -0.1116
C15 C 0.3591(3) 0.0187(2) -0.11390(15)
H7 H 0.3379 -0.0186 -0.1399
C16 C 0.3120(3) -0.05399(18) -0.02837(16)
H8 H 0.2925 -0.0928 -0.0531
C17 C -0.2037(3) -0.1140(2) 0.29884(18)
H9 H -0.2536 -0.1528 0.3041
C18 C 0.3031(3) -0.05990(18) 0.03002(16)
H10 H 0.2752 -0.1027 0.0458
C19 C 0.3580(3) 0.04656(18) 0.16386(15)
H11 H 0.3522 0.0440 0.2051
C20 C 0.1273(3) 0.0461(2) 0.28123(16)
H12 H 0.1766 0.0854 0.2769
C21 C -0.0896(3) -0.1247(2) 0.3006(2)
H13 H -0.0604 -0.1711 0.3067
C22 C -0.3686(3) -0.0322(2) 0.28670(14)
H14 H -0.4209 -0.0699 0.2916
C23 C 0.1071(3) -0.0774(2) 0.29467(19)
H15 H 0.1385 -0.1233 0.2999
C24 C 0.1775(3) -0.0201(2) 0.28815(18)
H16 H 0.2582 -0.0256 0.2884
C25 C 0.5935(3) 0.51201(18) 0.08135(14)
H17 H 0.6269 0.5564 0.0913
C26 C 0.4734(3) 0.50474(17) 0.07514(13)
C27 C 0.6094(3) 0.38999(18) 0.05798(13)
H18 H 0.6579 0.3506 0.0522
C28 C 0.3067(3) 0.42841(17) 0.05339(13)
C29 C 0.4293(3) 0.43769(17) 0.06039(13)
C30 C 0.6608(3) 0.45451(19) 0.07295(14)
H19 H 0.7417 0.4582 0.0772
C31 C 0.2355(3) 0.48739(17) 0.06277(14)
C32 C 0.3982(3) 0.56275(18) 0.08356(13)
H20 H 0.4289 0.6080 0.0929
C33 C 0.1171(3) 0.47708(19) 0.05597(16)
H21 H 0.0661 0.5148 0.0631
C34 C 0.1522(3) 0.35770(19) 0.03013(15)
H22 H 0.1217 0.3133 0.0179
C35 C 0.2840(3) 0.55387(18) 0.07834(14)
H23 H 0.2351 0.5927 0.0852
C36 C 0.0754(3) 0.41328(19) 0.03919(18)
H24 H -0.0047 0.4061 0.0336
C37 C 0.2742(3) 0.28792(16) -0.13033(12)
C38 C 0.5871(3) 0.26447(16) 0.17825(13)
C39 C 0.7095(3) 0.24265(17) 0.18002(12)
C40 C 0.1571(3) 0.26073(17) -0.14457(13)
C41 C 0.3355(3) 0.32036(18) -0.17641(13)
C42 C 0.5419(3) 0.2927(2) 0.23029(14)
N7 N 0.7505(2) 0.21873(15) 0.13061(11)
H25 H 0.8223 0.2051 0.1298
H26 H 0.7059 0.2165 0.0986
N8 N 0.5056(3) 0.3168(2) 0.27135(14)
O1 O 0.76673(18) 0.24738(13) 0.22660(9)
O2 O 0.41191(17) 0.27551(12) 0.13502(9)
N9 N 0.5208(2) 0.25700(14) 0.13153(10)
N10 N 0.2027(2) 0.20075(14) 0.07038(10)
N11 N -0.0447(3) 0.1208(2) 0.02169(15)
C43 C 0.1069(3) 0.17870(17) 0.09102(13)
C44 C 0.0865(3) 0.18829(17) 0.15400(13)
C45 C 0.0205(3) 0.1468(2) 0.05391(14)
O3 O 0.21684(17) 0.19265(12) 0.01393(8)
O4 O 0.42427(17) 0.30505(12) -0.06733(9)
N12 N 0.3204(2) 0.28138(14) -0.07748(11)
O5 O 0.11071(18) 0.27436(12) -0.19366(9)
N13 N 0.1091(2) 0.22272(17) -0.10407(12)
H27 H 0.0402 0.2051 -0.1108
H28 H 0.1461 0.2149 -0.0703
O6 O 0.61457(17) 0.23490(11) 0.01364(8)
O7 O -0.00974(18) 0.17997(13) 0.17269(9)
N14 N 0.6433(2) 0.23436(13) -0.04164(11)
N15 N 0.1776(2) 0.20673(15) 0.18763(11)
H29 H 0.1707 0.2137 0.2254
H30 H 0.2445 0.2120 0.1721
C46 C 0.7458(2) 0.25591(17) -0.05269(13)
C47 C 0.7792(3) 0.25859(18) -0.11466(13)
N16 N 0.7055(3) 0.22966(19) -0.15313(12)
H31 H 0.7198 0.2297 -0.1906
H32 H 0.6421 0.2104 -0.1413
C48 C 0.8264(3) 0.27850(19) -0.00763(14)
N17 N 0.8868(3) 0.2955(2) 0.03077(14)
O8 O 0.86957(18) 0.28653(13) -0.12794(9)
N18 N 0.3838(3) 0.34574(19) -0.21294(12)
Na1 Na -0.07339(10) 0.17829(7) 0.27286(5)
O1_2 O -0.23327(18) 0.24738(13) 0.22660(9)
O5C O 0.11071(18) 0.22564(12) 0.30634(9)
O8C O -0.13043(18) 0.21347(13) 0.37206(9)
Na1_2 Na 0.92661(10) 0.17829(7) 0.27286(5)
Na1C Na -0.07339(10) 0.32171(7) -0.22714(5)
Na1C_2 Na 0.92661(10) 0.32171(7) -0.22714(5)
O9 O -0.0697(3) 0.10686(18) -0.10573(13)
H33 H -0.0692 0.1085 -0.0690
C49 C -0.0017(5) 0.0491(3) -0.1234(3)
H34 H -0.0057 0.0456 -0.1663
H35 H -0.0304 0.0053 -0.1066
H36 H 0.0780 0.0565 -0.1097
loop_
_geom_bond_atom_site_label_1
_geom_bond_atom_site_label_2
_geom_bond_site_symmetry_1
_geom_bond_site_symmetry_2
Ce1 N1 1_555 1_555
N1 C27 1_555 1_555
N2 Ce1 1_555 1_555
N3 Ce1 1_555 1_555
N4 C7 1_555 1_555
N5 C2 1_555 1_555
N6 Ce1 1_555 1_555
C1 N2 1_555 1_555
C2 C3 1_555 1_555
C3 C17 1_555 1_555
C4 N3 1_555 1_555
C5 N3 1_555 1_555
H1 C5 1_555 1_555
C6 H2 1_555 1_555
C7 C2 1_555 1_555
C8 N5 1_555 1_555
H3 C8 1_555 1_555
C9 C1 1_555 1_555
C10 H4 1_555 1_555
C11 C8 1_555 1_555
H5 C11 1_555 1_555
C12 C7 1_555 1_555
C13 C4 1_555 1_555
C14 N2 1_555 1_555
H6 C14 1_555 1_555
C15 C6 1_555 1_555
H7 C15 1_555 1_555
C16 C9 1_555 1_555
H8 C16 1_555 1_555
C17 H9 1_555 1_555
C18 C13 1_555 1_555
H10 C18 1_555 1_555
C19 C5 1_555 1_555
H11 C19 1_555 1_555
C20 N4 1_555 1_555
H12 C20 1_555 1_555
C21 C12 1_555 1_555
H13 C21 1_555 1_555
C22 C3 1_555 1_555
H14 C22 1_555 1_555
C23 C12 1_555 1_555
H15 C23 1_555 1_555
C24 C20 1_555 1_555
H16 C24 1_555 1_555
C25 H17 1_555 1_555
C26 C25 1_555 1_555
C27 H18 1_555 1_555
C28 N6 1_555 1_555
C29 N1 1_555 1_555
C30 C25 1_555 1_555
H19 C30 1_555 1_555
C31 C28 1_555 1_555
C32 C26 1_555 1_555
H20 C32 1_555 1_555
C33 C31 1_555 1_555
H21 C33 1_555 1_555
C34 N6 1_555 1_555
H22 C34 1_555 1_555
C35 C31 1_555 1_555
H23 C35 1_555 1_555
C36 C33 1_555 1_555
H24 C36 1_555 1_555
C37 C40 1_555 1_555
C38 C39 1_555 1_555
C39 N7 1_555 1_555
C40 O5 1_555 1_555
C41 C37 1_555 1_555
C42 C38 1_555 1_555
N7 H25 1_555 1_555
H26 N7 1_555 1_555
N8 C42 1_555 1_555
O1 C39 1_555 1_555
O2 Ce1 1_555 1_555
N9 Ce1 1_555 1_555
N10 Ce1 1_555 1_555
N11 C45 1_555 1_555
C43 N10 1_555 1_555
C44 C43 1_555 1_555
C45 C43 1_555 1_555
O3 Ce1 1_555 1_555
O4 Ce1 1_555 1_555
N12 Ce1 1_555 1_555
O5 Na1C 1_555 1_555
N13 C40 1_555 1_555
H27 N13 1_555 1_555
H28 N13 1_555 1_555
O6 Ce1 1_555 1_555
O7 C44 1_555 1_555
N14 O6 1_555 1_555
N15 C44 1_555 1_555
H29 N15 1_555 1_555
H30 N15 1_555 1_555
C46 N14 1_555 1_555
C47 C46 1_555 1_555
N16 C47 1_555 1_555
H31 N16 1_555 1_555
H32 N16 1_555 1_555
C48 C46 1_555 1_555
N17 C48 1_555 1_555
O8 C47 1_555 1_555
N18 C41 1_555 1_555
Na1 N4 1_555 1_555
O9 H33 1_555 1_555
C49 O9 1_555 1_555
H34 C49 1_555 1_555
H35 C49 1_555 1_555
H36 C49 1_555 1_555
O1_2 Na1 1_555 1_555
O5C Na1 1_555 1_555
O8C Na1 1_555 1_555
Na1_2 O1 1_555 1_555
Na1C_2 O8 1_555 1_555
N5 Na1 1_555 1_555
C1 C4 1_555 1_555
C6 C14 1_555 1_555
C9 C15 1_555 1_555
C10 C13 1_555 1_555
C10 C19 1_555 1_555
C11 C22 1_555 1_555
C16 C18 1_555 1_555
C17 C21 1_555 1_555
C23 C24 1_555 1_555
C26 C29 1_555 1_555
C27 C30 1_555 1_555
C28 C29 1_555 1_555
C32 C35 1_555 1_555
C34 C36 1_555 1_555
C37 N12 1_555 1_555
C38 N9 1_555 1_555
O2 N9 1_555 1_555
N10 O3 1_555 1_555
O4 N12 1_555 1_555
O7 Na1 1_555 1_555

#END
