
#######################################################################
#
#                 Cambridge Crystallographic Data Centre
#                                CCDC 
#
#######################################################################
#
# If this CIF has been generated from an entry in the Cambridge 
# Structural Database, then it will include bibliographic, chemical, 
# crystal, experimental, refinement or atomic coordinate data resulting 
# from the CCDC's data processing and validation procedures.
#
#######################################################################

data_XOPPUP
_symmetry_cell_setting           monoclinic
_symmetry_space_group_name_H-M   'P 21/c'
_symmetry_Int_Tables_number      14
_space_group_name_Hall           '-P 2ybc'
loop_
_symmetry_equiv_pos_site_id
_symmetry_equiv_pos_as_xyz
1 x,y,z
2 -x,1/2+y,1/2-z
3 -x,-y,-z
4 x,1/2-y,1/2+z
_cell_length_a                   13.2907(4)
_cell_length_b                   18.3890(5)
_cell_length_c                   9.0517(2)
_cell_angle_alpha                90
_cell_angle_beta                 98.235(2)
_cell_angle_gamma                90
_cell_volume                     2189.45
loop_
_atom_site_label
_atom_site_type_symbol
_atom_site_fract_x
_atom_site_fract_y
_atom_site_fract_z
Ce1 Ce 0.637968(15) 0.061014(10) 0.53653(2)
O1 O 0.77687(19) 0.10286(13) 0.7315(3)
N1 N 0.7148(2) 0.15636(16) 0.7445(4)
N2 N 0.7949(2) -0.03603(17) 0.6041(4)
C1 C 0.7401(3) 0.0572(2) 0.1942(5)
H1 H 0.6848 0.0902 0.1741
N3 N 0.7592(2) 0.02833(17) 0.3295(4)
C2 C 0.8122(3) -0.0678(2) 0.7364(5)
H2 H 0.7679 -0.0571 0.8071
C3 C 0.7462(3) 0.20958(19) 0.8366(4)
C4 C 0.9431(3) -0.0990(2) 0.5368(5)
C5 C 0.9025(3) -0.0347(2) 0.2500(5)
C6 C 0.8394(3) -0.01803(19) 0.3576(4)
C7 C 0.7974(3) 0.0416(2) 0.0787(5)
H3 H 0.7799 0.0623 -0.0177
C8 C 0.8592(3) -0.0512(2) 0.5034(5)
C9 C 0.8930(3) -0.1167(2) 0.7781(5)
H4 H 0.9020 -0.1389 0.8739
C10 C 1.0071(3) -0.1121(2) 0.4246(5)
H5 H 1.0646 -0.1429 0.4476
C11 C 0.9882(3) -0.0823(2) 0.2887(5)
H6 H 1.0318 -0.0927 0.2169
C12 C 0.8783(3) -0.0037(2) 0.1086(5)
H7 H 0.9187 -0.0144 0.0328
C13 C 0.9584(3) -0.1317(2) 0.6779(5)
H8 H 1.0137 -0.1642 0.7040
O2 O 0.4259(2) 0.05805(12) 0.5531(3)
O3 O 0.71030(19) 0.32480(13) 0.9322(3)
O4 O 0.59946(19) 0.00125(14) 0.7661(3)
O5 O 0.50893(19) 0.16147(13) 0.5626(3)
O6 O 0.47111(19) -0.07807(14) 0.7133(3)
C14 C 0.5439(3) -0.05059(19) 0.7987(4)
C15 C 0.6793(3) 0.2737(2) 0.8473(4)
C16 C 0.4300(3) 0.1264(2) 0.5751(5)
N4 N 0.5905(3) 0.27320(18) 0.7633(4)
H9 H 0.5491 0.3104 0.7649
H10 H 0.5723 0.2357 0.7053
C17 C 0.8454(3) 0.2101(2) 0.9221(5)
N5 N 0.9257(3) 0.2079(2) 0.9897(5)
C18 C 0.5679(4) -0.0826(3) 0.9548(5)
H11 H 0.5050 -0.0867 0.9992
H12 H 0.6158 -0.0508 1.0168
H13 H 0.5982 -0.1309 0.9489
C19 C 0.3400(3) 0.1656(2) 0.6209(7)
H14 H 0.3626 0.2115 0.6697
H15 H 0.3085 0.1352 0.6905
H16 H 0.2904 0.1756 0.5323
Ce1B Ce 0.362032(15) -0.061014(10) 0.46347(2)
Ce1C Ce 0.637968(15) 0.438986(10) 1.03653(2)
O2B O 0.5741(2) -0.05805(12) 0.4469(3)
O3C O 0.71030(19) 0.17520(13) 0.4322(3)
O6B O 0.52889(19) 0.07807(14) 0.2867(3)
loop_
_geom_bond_atom_site_label_1
_geom_bond_atom_site_label_2
_geom_bond_site_symmetry_1
_geom_bond_site_symmetry_2
Ce1 O1 1_555 1_555
O1 N1 1_555 1_555
N1 Ce1 1_555 1_555
N2 Ce1 1_555 1_555
C1 H1 1_555 1_555
N3 Ce1 1_555 1_555
C2 N2 1_555 1_555
H2 C2 1_555 1_555
C3 N1 1_555 1_555
C4 C8 1_555 1_555
C5 C6 1_555 1_555
C6 N3 1_555 1_555
C7 C1 1_555 1_555
H3 C7 1_555 1_555
C8 N2 1_555 1_555
C9 C2 1_555 1_555
H4 C9 1_555 1_555
C10 C4 1_555 1_555
H5 C10 1_555 1_555
C11 C5 1_555 1_555
H6 C11 1_555 1_555
C12 C5 1_555 1_555
H7 C12 1_555 1_555
C13 C4 1_555 1_555
H8 C13 1_555 1_555
O2 Ce1 1_555 1_555
O3 C15 1_555 1_555
O4 Ce1 1_555 1_555
O5 Ce1 1_555 1_555
O6 C14 1_555 1_555
C14 O4 1_555 1_555
C15 C3 1_555 1_555
C16 O2 1_555 1_555
N4 C15 1_555 1_555
H9 N4 1_555 1_555
H10 N4 1_555 1_555
C17 C3 1_555 1_555
N5 C17 1_555 1_555
C18 C14 1_555 1_555
H11 C18 1_555 1_555
H12 C18 1_555 1_555
H13 C18 1_555 1_555
C19 C16 1_555 1_555
H14 C19 1_555 1_555
H15 C19 1_555 1_555
H16 C19 1_555 1_555
Ce1B O2 1_555 1_555
Ce1C O3 1_555 1_555
O2B Ce1 1_555 1_555
O3C Ce1 1_555 1_555
O6B Ce1 1_555 1_555
C1 N3 1_555 1_555
C6 C8 1_555 1_555
C7 C12 1_555 1_555
C9 C13 1_555 1_555
C10 C11 1_555 1_555
O5 C16 1_555 1_555
O6 Ce1B 1_555 1_555
Ce1B O2B 1_555 1_555

#END
