
#######################################################################
#
#                 Cambridge Crystallographic Data Centre
#                                CCDC 
#
#######################################################################
#
# If this CIF has been generated from an entry in the Cambridge 
# Structural Database, then it will include bibliographic, chemical, 
# crystal, experimental, refinement or atomic coordinate data resulting 
# from the CCDC's data processing and validation procedures.
#
#######################################################################

data_XOPRIF
_symmetry_cell_setting           monoclinic
_symmetry_space_group_name_H-M   'P 21/c'
_symmetry_Int_Tables_number      14
_space_group_name_Hall           '-P 2ybc'
loop_
_symmetry_equiv_pos_site_id
_symmetry_equiv_pos_as_xyz
1 x,y,z
2 -x,1/2+y,1/2-z
3 -x,-y,-z
4 x,1/2-y,1/2+z
_cell_length_a                   7.6638(2)
_cell_length_b                   18.4492(4)
_cell_length_c                   21.7066(5)
_cell_angle_alpha                90
_cell_angle_beta                 108.7790(10)
_cell_angle_gamma                90
_cell_volume                     2905.74
loop_
_atom_site_label
_atom_site_type_symbol
_atom_site_fract_x
_atom_site_fract_y
_atom_site_fract_z
Ag1 Ag 0.83727(6) 0.630686(19) 0.466527(19)
Ag2 Ag 0.31001(7) 0.96153(2) 0.45472(2)
S1 S 0.61911(16) 0.69096(6) 0.57495(6)
S2 S 1.09142(16) 0.71483(6) 0.53795(5)
C1 C 0.4558(6) 0.8058(2) 0.5006(2)
H1 H 0.4288 0.8203 0.5376
C2 C 0.5425(5) 0.7405(2) 0.5008(2)
C3 C 0.5329(7) 0.7587(3) 0.3967(2)
H2 H 0.5551 0.7433 0.3592
C4 C 0.4470(7) 0.8249(3) 0.3962(2)
H3 H 0.4149 0.8531 0.3588
C5 C 0.4897(6) 0.6103(2) 0.5586(2)
C6 C 0.3558(6) 0.5929(2) 0.5001(2)
H4 H 0.3298 0.6243 0.4648
C7 C 0.4221(7) 0.4982(2) 0.6004(2)
H5 H 0.4441 0.4661 0.6351
C8 C 0.2622(6) 0.5281(2) 0.4954(2)
H6 H 0.1722 0.5168 0.4562
C9 C 0.5233(7) 0.5613(2) 0.6097(2)
H7 H 0.6126 0.5709 0.6495
N1 N 1.0530(6) 0.6052(2) 0.6095(2)
N2 N 1.3038(8) 0.6570(3) 0.7255(2)
C10 C 1.1355(6) 0.6691(2) 0.6136(2)
C11 C 1.2628(8) 0.6936(3) 0.6707(3)
H8 H 1.3215 0.7376 0.6704
C12 C 1.2180(9) 0.5923(3) 0.7210(3)
H9 H 1.2417 0.5640 0.7583
C13 C 1.0996(9) 0.5668(3) 0.6648(3)
H10 H 1.0486 0.5210 0.6644
C14 C 0.9935(5) 0.7995(2) 0.5462(2)
C15 C 0.9521(6) 0.8236(2) 0.6000(2)
H11 H 0.9754 0.7947 0.6368
C16 C 0.8750(7) 0.8917(2) 0.5979(2)
H12 H 0.8488 0.9078 0.6346
C17 C 0.8767(7) 0.9116(2) 0.4946(2)
H13 H 0.8516 0.9416 0.4584
C18 C 0.9536(6) 0.8445(2) 0.4920(2)
H14 H 0.9785 0.8297 0.4548
C19 C 0.9734(10) 0.6688(3) 0.3527(3)
C20 C 1.0570(13) 0.6570(5) 0.2986(3)
C21 C 0.5367(8) 1.0418(3) 0.3709(3)
C22 C 0.5418(10) 1.0807(4) 0.3101(3)
N3 N 0.4096(5) 0.8488(2) 0.44850(19)
N4 N 0.5847(5) 0.71647(19) 0.44935(18)
N5 N 0.2944(5) 0.48082(19) 0.54442(18)
N6 N 0.8363(6) 0.9354(2) 0.54667(19)
O1 O 0.9386(7) 0.6140(3) 0.3755(2)
O2 O 0.9595(13) 0.7301(3) 0.3688(3)
O3 O 0.6382(7) 1.0672(3) 0.4218(2)
O4 O 0.4251(7) 0.9930(2) 0.3609(2)
F1 F 0.9972(9) 0.6051(4) 0.2610(2)
F2 F 1.0600(15) 0.7095(4) 0.2644(3)
F3 F 1.2350(10) 0.6414(6) 0.3230(4)
F4 F 0.4821(18) 1.1512(4) 0.3133(5)
F5 F 0.4314(16) 1.0577(6) 0.2553(3)
F6 F 0.7083(14) 1.0851(8) 0.3077(6)
Ag1B Ag 0.16273(6) 0.369314(19) 0.533473(19)
Ag2B Ag 0.68999(7) 1.03847(2) 0.54528(2)
N5B N 0.7056(5) 0.51918(19) 0.45558(18)
N6B N 0.1637(6) 1.0646(2) 0.45333(19)
O3B O 0.3618(7) 0.9328(3) 0.5782(2)
O5 O 1.0075(13) 0.8753(5) 0.3424(4)
F7? F 0.541(3) 1.0299(10) 0.2638(8)
F8? F 0.675(3) 1.1239(9) 0.3109(11)
F9? F 0.390(3) 1.1174(14) 0.2792(11)
O6? O 0.849(2) 0.8961(9) 0.2980(8)
loop_
_geom_bond_atom_site_label_1
_geom_bond_atom_site_label_2
_geom_bond_site_symmetry_1
_geom_bond_site_symmetry_2
Ag1 S2 1_555 1_555
Ag2 N3 1_555 1_555
S1 C2 1_555 1_555
S2 C10 1_555 1_555
C1 H1 1_555 1_555
C2 C1 1_555 1_555
C3 H2 1_555 1_555
C4 C3 1_555 1_555
H3 C4 1_555 1_555
C5 S1 1_555 1_555
C6 C5 1_555 1_555
H4 C6 1_555 1_555
C7 H5 1_555 1_555
C8 C6 1_555 1_555
H6 C8 1_555 1_555
C9 C5 1_555 1_555
H7 C9 1_555 1_555
N1 C10 1_555 1_555
N2 C11 1_555 1_555
C10 C11 1_555 1_555
C11 H8 1_555 1_555
C12 N2 1_555 1_555
H9 C12 1_555 1_555
C13 N1 1_555 1_555
H10 C13 1_555 1_555
C14 S2 1_555 1_555
C15 C14 1_555 1_555
H11 C15 1_555 1_555
C16 C15 1_555 1_555
H12 C16 1_555 1_555
C17 H13 1_555 1_555
C18 C14 1_555 1_555
H14 C18 1_555 1_555
C19 C20 1_555 1_555
C20 F1 1_555 1_555
C21 C22 1_555 1_555
C22 F4 1_555 1_555
N3 C1 1_555 1_555
N4 Ag1 1_555 1_555
N5 C7 1_555 1_555
N6 C16 1_555 1_555
O1 Ag1 1_555 1_555
O2 C19 1_555 1_555
O3 C21 1_555 1_555
O4 Ag2 1_555 1_555
F2 C20 1_555 1_555
F3 C20 1_555 1_555
F5 C22 1_555 1_555
F6 C22 1_555 1_555
Ag1B N5 1_555 1_555
Ag2B N6 1_555 1_555
N5B Ag1 1_555 1_555
N6B Ag2 1_555 1_555
O3B Ag2 1_555 1_555
C2 N4 1_555 1_555
C3 N4 1_555 1_555
C4 N3 1_555 1_555
C7 C9 1_555 1_555
C8 N5 1_555 1_555
C12 C13 1_555 1_555
C17 C18 1_555 1_555
C17 N6 1_555 1_555
C19 O1 1_555 1_555
C21 O4 1_555 1_555
O3 Ag2B 1_555 1_555

#END
