
#######################################################################
#
#                 Cambridge Crystallographic Data Centre
#                                CCDC 
#
#######################################################################
#
# If this CIF has been generated from an entry in the Cambridge 
# Structural Database, then it will include bibliographic, chemical, 
# crystal, experimental, refinement or atomic coordinate data resulting 
# from the CCDC's data processing and validation procedures.
#
#######################################################################

data_XOPRUR
_symmetry_cell_setting           triclinic
_symmetry_space_group_name_H-M   'P -1'
_symmetry_Int_Tables_number      2
_space_group_name_Hall           '-P 1'
loop_
_symmetry_equiv_pos_site_id
_symmetry_equiv_pos_as_xyz
1 x,y,z
2 -x,-y,-z
_cell_length_a                   11.901(2)
_cell_length_b                   15.417(3)
_cell_length_c                   16.497(3)
_cell_angle_alpha                68.06(3)
_cell_angle_beta                 72.20(3)
_cell_angle_gamma                85.88(3)
_cell_volume                     2670.13
loop_
_atom_site_label
_atom_site_type_symbol
_atom_site_fract_x
_atom_site_fract_y
_atom_site_fract_z
Ag1 Ag 0.52935(5) 0.72519(4) 0.26854(5)
Ag2 Ag 1.06925(7) 0.27635(5) 0.12052(5)
Ag3 Ag 0.00325(8) 1.18119(6) 0.35289(6)
S1 S 0.70091(17) 0.62820(14) 0.11856(16)
S2 S 0.32438(18) 0.80092(14) 0.40413(16)
S3 S 0.44716(19) 0.92819(15) 0.13883(17)
S4 S 0.64206(18) 0.52802(13) 0.37794(15)
N1 N 0.9568(6) 0.3958(5) 0.1138(5)
N2 N 0.1077(7) 1.0607(5) 0.3681(6)
N3 N 0.1872(7) 1.1597(5) 0.1298(5)
N4 N 0.3371(9) 0.4019(7) 0.4347(7)
N5 N 0.4369(6) 0.5765(4) 0.3594(4)
N6 N 0.8848(7) 0.2910(5) 0.3595(5)
C1 C 0.9780(7) 0.4620(5) 0.1449(6)
H1 H 1.0430 0.4575 0.1661
C2 C 0.9046(7) 0.5352(6) 0.1454(5)
H2 H 0.9194 0.5787 0.1680
C3 C 0.8084(6) 0.5441(5) 0.1123(5)
C4 C 0.7908(7) 0.4778(6) 0.0797(6)
H3 H 0.7276 0.4817 0.0566
C5 C 0.8654(8) 0.4060(5) 0.0811(6)
H4 H 0.8517 0.3623 0.0582
N7 N 0.7114(3) 0.7807(3) 0.1504(3)
C6 C 0.7751(4) 0.7223(3) 0.1077(3)
C7 C 0.8908(4) 0.7479(3) 0.0518(3)
H5 H 0.9334 0.7088 0.0232
N8 N 0.9427(3) 0.8320(4) 0.0385(4)
C8 C 0.8790(5) 0.8905(3) 0.0812(5)
H6 H 0.9138 0.9467 0.0723
C9 C 0.7633(4) 0.8648(3) 0.1371(4)
H7 H 0.7207 0.9039 0.1657
C10 C 0.6621(3) 0.8084(5) 0.3769(4)
H8 H 0.7300 0.7874 0.3450
C11 C 0.6690(4) 0.8531(5) 0.4346(5)
H9 H 0.7417 0.8619 0.4413
N9 N 0.5675(6) 0.8845(5) 0.4821(4)
C12 C 0.4590(5) 0.8714(4) 0.4720(4)
H10 H 0.3910 0.8924 0.5038
C13 C 0.4520(3) 0.8267(4) 0.4143(4)
N10 N 0.5535(4) 0.7953(3) 0.3667(3)
C14 C 0.0597(8) 0.9735(6) 0.3988(7)
H11 H -0.0215 0.9665 0.4112
C15 C 0.2261(8) 1.0684(6) 0.3521(7)
H12 H 0.2613 1.1276 0.3325
C16 C 0.2963(7) 0.9927(6) 0.3636(7)
H13 H 0.3774 1.0012 0.3504
C17 C 0.2450(7) 0.9029(5) 0.3952(5)
C18 C 0.1235(7) 0.8949(6) 0.4127(6)
H14 H 0.0859 0.8363 0.4336
C19 C 0.3424(7) 1.0151(5) 0.1306(6)
C20 C 0.3818(8) 1.1069(6) 0.1030(6)
H15 H 0.4624 1.1217 0.0845
C21 C 0.3031(8) 1.1761(6) 0.1026(6)
H16 H 0.3322 1.2374 0.0824
C22 C 0.1481(8) 1.0705(6) 0.1572(7)
H17 H 0.0669 1.0580 0.1768
C23 C 0.2198(8) 0.9969(6) 0.1583(7)
H18 H 0.1883 0.9367 0.1767
C24 C 0.3186(6) 0.7012(4) 0.0797(5)
H19 H 0.2950 0.6531 0.0665
N11 N 0.2855(5) 0.7920(5) 0.0405(4)
C25 C 0.3209(5) 0.8638(3) 0.0603(4)
H20 H 0.2987 0.9246 0.0341
C26 C 0.3892(4) 0.8449(3) 0.1193(4)
N12 N 0.4223(4) 0.7541(3) 0.1585(3)
C27 C 0.3870(6) 0.6823(3) 0.1387(4)
H21 H 0.4091 0.6215 0.1649
C28 C 0.2681(8) 0.4758(6) 0.4122(7)
H22 H 0.1875 0.4670 0.4232
C29 C 0.3206(7) 0.5623(6) 0.3734(6)
H23 H 0.2754 0.6138 0.3558
C30 C 0.4958(6) 0.4999(5) 0.3883(5)
C31 C 0.4531(6) 0.4130(5) 0.4243(5)
H24 H 0.4996 0.3623 0.4417
C32 C 0.7833(8) 0.2945(6) 0.3394(6)
H25 H 0.7671 0.2487 0.3201
C33 C 0.9068(8) 0.3582(6) 0.3875(6)
H26 H 0.9772 0.3577 0.4011
C34 C 0.8306(8) 0.4267(6) 0.3967(6)
H27 H 0.8485 0.4710 0.4172
C35 C 0.7259(6) 0.4297(5) 0.3752(5)
C36 C 0.7019(8) 0.3609(6) 0.3454(6)
H28 H 0.6330 0.3604 0.3302
Ag2_2 Ag 0.06925(7) 1.27635(5) 0.12052(5)
Ag3_2 Ag 1.00325(8) 0.18119(6) 0.35289(6)
N3_2 N 1.1872(7) 0.1597(5) 0.1298(5)
N6_2 N -0.1152(7) 1.2910(5) 0.3595(5)
S5 S 0.8083(2) 0.09961(17) 0.21324(19)
O1 O 0.8380(11) 0.0994(12) 0.2871(11)
O2 O 0.8234(13) 0.0380(13) 0.1755(18)
O3 O 0.8557(11) 0.1847(9) 0.1478(13)
F1 F 0.6014(16) 0.135(2) 0.1793(13)
F2 F 0.6345(15) 0.1996(18) 0.221(2)
F3 F 0.5988(10) 0.110(2) 0.3148(11)
C37 C 0.6553(11) 0.1159(10) 0.2390(8)
C38 C 1.4204(15) 0.3865(11) 0.1737(11)
S6 S 1.2773(3) 0.3918(2) 0.1953(2)
F4 F 1.4866(9) 0.3393(9) 0.1276(9)
F5 F 1.4756(12) 0.4692(10) 0.1186(11)
O4 O 1.2525(11) 0.3778(10) 0.1239(10)
O5 O 1.2364(15) 0.3093(12) 0.2621(15)
O6 O 1.2392(11) 0.4577(9) 0.2278(10)
F6 F 1.462(2) 0.3639(16) 0.2427(14)
S7 S 0.0259(5) 0.7260(12) 0.3468(10)
F7 F 0.0552(16) 0.738(2) 0.211(2)
O7 O 0.1487(8) 0.7479(8) 0.3089(12)
O8 O -0.0644(11) 0.7265(13) 0.4215(10)
O9 O -0.034(2) 0.825(2) 0.285(3)
F8 F -0.1247(7) 0.6665(8) 0.3011(11)
C39 C -0.0069(17) 0.668(2) 0.284(3)
F9 F 0.0440(18) 0.5881(14) 0.317(3)
O10 O -0.1446(13) 0.7663(11) 0.5646(12)
F10? F 0.5980(12) 0.0314(13) 0.2624(18)
S8? S -0.0253(14) 0.6709(6) 0.3782(7)
F11? F 0.014(2) 0.8066(17) 0.2220(18)
O11? O 0.0131(15) 0.5902(10) 0.4093(17)
F12? F 1.4792(16) 0.4328(16) 0.2090(16)
C40? C -0.028(3) 0.719(3) 0.280(5)
F13? F 0.0655(17) 0.668(2) 0.2181(15)
loop_
_geom_bond_atom_site_label_1
_geom_bond_atom_site_label_2
_geom_bond_site_symmetry_1
_geom_bond_site_symmetry_2
Ag1 N5 1_555 1_555
Ag2 N1 1_555 1_555
Ag3 N2 1_555 1_555
S1 C3 1_555 1_555
S2 C13 1_555 1_555
S3 C19 1_555 1_555
S4 C30 1_555 1_555
N1 C1 1_555 1_555
N2 C14 1_555 1_555
N3 C21 1_555 1_555
N4 C28 1_555 1_555
N5 C29 1_555 1_555
N6 C32 1_555 1_555
C1 H1 1_555 1_555
C2 C1 1_555 1_555
H2 C2 1_555 1_555
C3 C2 1_555 1_555
C4 C3 1_555 1_555
H3 C4 1_555 1_555
C5 N1 1_555 1_555
H4 C5 1_555 1_555
N7 Ag1 1_555 1_555
C6 S1 1_555 1_555
C7 C6 1_555 1_555
H5 C7 1_555 1_555
N8 C7 1_555 1_555
C8 N8 1_555 1_555
H6 C8 1_555 1_555
C9 N7 1_555 1_555
H7 C9 1_555 1_555
C10 H8 1_555 1_555
C11 C10 1_555 1_555
H9 C11 1_555 1_555
N9 C11 1_555 1_555
C12 N9 1_555 1_555
H10 C12 1_555 1_555
C13 C12 1_555 1_555
N10 Ag1 1_555 1_555
C14 H11 1_555 1_555
C15 N2 1_555 1_555
H12 C15 1_555 1_555
C16 C15 1_555 1_555
H13 C16 1_555 1_555
C17 S2 1_555 1_555
C18 C14 1_555 1_555
H14 C18 1_555 1_555
C19 C20 1_555 1_555
C20 H15 1_555 1_555
C21 C20 1_555 1_555
H16 C21 1_555 1_555
C22 N3 1_555 1_555
H17 C22 1_555 1_555
C23 C19 1_555 1_555
H18 C23 1_555 1_555
C24 H19 1_555 1_555
N11 C24 1_555 1_555
C25 N11 1_555 1_555
H20 C25 1_555 1_555
C26 S3 1_555 1_555
N12 Ag1 1_555 1_555
C27 C24 1_555 1_555
H21 C27 1_555 1_555
C28 H22 1_555 1_555
C29 C28 1_555 1_555
H23 C29 1_555 1_555
C30 N5 1_555 1_555
C31 N4 1_555 1_555
H24 C31 1_555 1_555
C32 H25 1_555 1_555
C33 N6 1_555 1_555
H26 C33 1_555 1_555
C34 C33 1_555 1_555
H27 C34 1_555 1_555
C35 S4 1_555 1_555
C36 C32 1_555 1_555
H28 C36 1_555 1_555
S5 O1 1_555 1_555
O2 S5 1_555 1_555
O3 S5 1_555 1_555
F1 C37 1_555 1_555
F2 C37 1_555 1_555
F3 C37 1_555 1_555
C37 S5 1_555 1_555
C38 S6 1_555 1_555
S6 O4 1_555 1_555
F4 C38 1_555 1_555
F5 C38 1_555 1_555
O5 S6 1_555 1_555
O6 S6 1_555 1_555
F6 C38 1_555 1_555
S7 O7 1_555 1_555
F7 C39 1_555 1_555
O8 S7 1_555 1_555
O9 S7 1_555 1_555
F8 C39 1_555 1_555
C39 S7 1_555 1_555
F9 C39 1_555 1_555
Ag2_2 N3 1_555 1_555
Ag3_2 N6 1_555 1_555
N3_2 Ag2 1_555 1_555
N6_2 Ag3 1_555 1_555
C4 C5 1_555 1_555
N7 C6 1_555 1_555
C8 C9 1_555 1_555
C10 N10 1_555 1_555
C13 N10 1_555 1_555
C16 C17 1_555 1_555
C17 C18 1_555 1_555
C22 C23 1_555 1_555
C25 C26 1_555 1_555
C26 N12 1_555 1_555
N12 C27 1_555 1_555
C30 C31 1_555 1_555
C34 C35 1_555 1_555
C35 C36 1_555 1_555

#END
