
#######################################################################
#
#                 Cambridge Crystallographic Data Centre
#                                CCDC 
#
#######################################################################
#
# If this CIF has been generated from an entry in the Cambridge 
# Structural Database, then it will include bibliographic, chemical, 
# crystal, experimental, refinement or atomic coordinate data resulting 
# from the CCDC's data processing and validation procedures.
#
#######################################################################

data_XOPSAY
_symmetry_cell_setting           monoclinic
_symmetry_space_group_name_H-M   'C 2/c'
_symmetry_Int_Tables_number      15
_space_group_name_Hall           '-C 2yn'
loop_
_symmetry_equiv_pos_site_id
_symmetry_equiv_pos_as_xyz
1 x,y,z
2 -x,y,1/2-z
3 1/2+x,1/2+y,z
4 1/2-x,1/2+y,1/2-z
5 -x,-y,-z
6 x,-y,1/2+z
7 1/2-x,1/2-y,-z
8 1/2+x,1/2-y,1/2+z
_cell_length_a                   23.4025(9)
_cell_length_b                   8.9706(3)
_cell_length_c                   18.1839(7)
_cell_angle_alpha                90
_cell_angle_beta                 125.952(2)
_cell_angle_gamma                90
_cell_volume                     3090.24
loop_
_atom_site_label
_atom_site_type_symbol
_atom_site_fract_x
_atom_site_fract_y
_atom_site_fract_z
Ag1 Ag 0.55165(3) 0.89729(7) 0.61066(4)
S1 S 0.34016(8) 0.40205(19) 0.28678(11)
S2 S 0.5000 0.8730(4) 0.7500
N1 N 0.4767(2) 0.7544(6) 0.4984(3)
N2 N 0.2618(3) 0.3091(6) 0.3407(4)
N3 N 0.1418(2) 0.4599(5) 0.2039(3)
O1 O 0.4804(4) 0.9725(11) 0.6742(5)
O2 O 0.4417(3) 0.7919(9) 0.7316(6)
C1 C 0.2612(3) 0.3929(6) 0.2801(4)
C2 C 0.2024(3) 0.4668(6) 0.2119(3)
H1 H 0.2044 0.5227 0.1704
C3 C 0.1423(3) 0.3758(7) 0.2652(5)
H2 H 0.1013 0.3677 0.2622
C4 C 0.2016(4) 0.3020(7) 0.3319(5)
H3 H 0.1997 0.2444 0.3729
C5 C 0.3885(3) 0.5407(6) 0.3692(3)
C6 C 0.4534(3) 0.5790(7) 0.3855(4)
H4 H 0.4680 0.5334 0.3533
C7 C 0.4942(3) 0.6840(8) 0.4495(4)
H5 H 0.5370 0.7085 0.4598
C8 C 0.4147(3) 0.7174(6) 0.4821(4)
H6 H 0.4016 0.7646 0.5156
C9 C 0.3694(3) 0.6135(6) 0.4184(4)
H7 H 0.3265 0.5926 0.4088
O1A O 0.5196(4) 0.9725(11) 0.8258(5)
O2A O 0.5583(3) 0.7919(9) 0.7684(6)
Ag1A Ag 0.44835(3) 0.89729(7) 0.88934(4)
S1A S 0.65984(8) 0.40205(19) 1.21322(11)
N1A N 0.5233(2) 0.7544(6) 1.0016(3)
N2A N 0.7382(3) 0.3091(6) 1.1593(4)
N3A N 0.8582(2) 0.4599(5) 1.2961(3)
C1A C 0.7388(3) 0.3929(6) 1.2199(4)
C2A C 0.7976(3) 0.4668(6) 1.2881(3)
H1A H 0.7956 0.5227 1.3296
C3A C 0.8577(3) 0.3758(7) 1.2348(5)
H2A H 0.8987 0.3677 1.2378
C4A C 0.7984(4) 0.3020(7) 1.1681(5)
H3A H 0.8003 0.2444 1.1271
C5A C 0.6115(3) 0.5407(6) 1.1308(3)
C6A C 0.5466(3) 0.5790(7) 1.1145(4)
H4A H 0.5320 0.5334 1.1467
C7A C 0.5058(3) 0.6840(8) 1.0505(4)
H5A H 0.4630 0.7085 1.0402
C8A C 0.5853(3) 0.7174(6) 1.0179(4)
H6A H 0.5984 0.7646 0.9844
C9A C 0.6306(3) 0.6135(6) 1.0816(4)
H7A H 0.6735 0.5926 1.0912
Ag1F Ag 0.94835(3) 0.60271(7) 1.38934(4)
Ag1G Ag 0.05165(3) 0.60271(7) 0.11066(4)
N3F N 0.3582(2) 1.0401(5) 0.7961(3)
N3G N 0.6418(2) 1.0401(5) 0.7039(3)
O3 O 0.2949(2) 0.8130(6) 0.6224(3)
H8 H 0.3382 0.7753 0.6575
H9 H 0.2815 0.8635 0.5725
O4 O 0.2458(3) 0.9679(7) 0.4654(4)
H10 H 0.2799 0.9886 0.4594
H11 H 0.1988 0.9700 0.4255
O5 O 0.3701(5) 1.0978(9) 0.5191(7)
H12 H 0.4082 1.0551 0.5673
H13 H 0.3512 1.1591 0.4718
O6 O 0.0982(9) 1.0044(17) 0.3629(12)
O8 O 0.0000 0.2095(17) 0.2500
O7? O 0.1196(14) 1.108(3) 0.406(2)
loop_
_geom_bond_atom_site_label_1
_geom_bond_atom_site_label_2
_geom_bond_site_symmetry_1
_geom_bond_site_symmetry_2
Ag1 N1 1_555 1_555
S1 C1 1_555 1_555
S2 O1 1_555 1_555
N1 C7 1_555 1_555
N2 C1 1_555 1_555
N3 C2 1_555 1_555
O1 Ag1 1_555 1_555
O2 S2 1_555 1_555
C1 C2 1_555 1_555
C2 H1 1_555 1_555
C3 N3 1_555 1_555
H2 C3 1_555 1_555
C4 N2 1_555 1_555
H3 C4 1_555 1_555
C5 S1 1_555 1_555
C6 C5 1_555 1_555
H4 C6 1_555 1_555
C7 C6 1_555 1_555
H5 C7 1_555 1_555
C8 N1 1_555 1_555
H6 C8 1_555 1_555
C9 C5 1_555 1_555
H7 C9 1_555 1_555
O3 H8 1_555 1_555
H9 O3 1_555 1_555
O4 H10 1_555 1_555
H11 O4 1_555 1_555
O5 H12 1_555 1_555
H13 O5 1_555 1_555
O1A S2 1_555 1_555
O2A S2 1_555 1_555
Ag1A O1A 1_555 1_555
S1A C1A 1_555 1_555
N1A Ag1A 1_555 1_555
N2A C1A 1_555 1_555
N3A C2A 1_555 1_555
C1A C2A 1_555 1_555
C2A H1A 1_555 1_555
C3A N3A 1_555 1_555
H2A C3A 1_555 1_555
C4A N2A 1_555 1_555
H3A C4A 1_555 1_555
C5A S1A 1_555 1_555
C6A C5A 1_555 1_555
H4A C6A 1_555 1_555
C7A N1A 1_555 1_555
H5A C7A 1_555 1_555
C8A N1A 1_555 1_555
H6A C8A 1_555 1_555
C9A C5A 1_555 1_555
H7A C9A 1_555 1_555
Ag1F N3A 1_555 1_555
Ag1G N3 1_555 1_555
N3F Ag1A 1_555 1_555
N3G Ag1 1_555 1_555
C3 C4 1_555 1_555
C8 C9 1_555 1_555
C3A C4A 1_555 1_555
C6A C7A 1_555 1_555
C8A C9A 1_555 1_555

#END
