
#######################################################################
#
#                 Cambridge Crystallographic Data Centre
#                                CCDC 
#
#######################################################################
#
# If this CIF has been generated from an entry in the Cambridge 
# Structural Database, then it will include bibliographic, chemical, 
# crystal, experimental, refinement or atomic coordinate data resulting 
# from the CCDC's data processing and validation procedures.
#
#######################################################################

data_XOPSIE
_symmetry_cell_setting           triclinic
_symmetry_space_group_name_H-M   'P -1'
_symmetry_Int_Tables_number      2
_space_group_name_Hall           '-P 1'
loop_
_symmetry_equiv_pos_site_id
_symmetry_equiv_pos_as_xyz
1 x,y,z
2 -x,-y,-z
_cell_length_a                   7.86400(10)
_cell_length_b                   9.2070(2)
_cell_length_c                   10.9340(2)
_cell_angle_alpha                88.0590(9)
_cell_angle_beta                 76.1890(9)
_cell_angle_gamma                80.1820(11)
_cell_volume                     757.497
loop_
_atom_site_label
_atom_site_type_symbol
_atom_site_fract_x
_atom_site_fract_y
_atom_site_fract_z
Cu1 Cu 0.5000 0.5000 0.5000
N1 N 0.4607(1) 0.5311(1) 0.3241(1)
N2 N 0.7174(1) 0.5940(1) 0.4325(1)
C1 C 0.6290(2) 0.5582(1) 0.2374(1)
C2 C 0.6052(2) 0.6295(2) 0.1130(1)
C3 C 0.7831(2) 0.6573(2) 0.0304(1)
C4 C 0.8756(2) 0.7489(2) 0.0993(1)
C5 C 0.8938(2) 0.6802(2) 0.2261(1)
C6 C 0.7124(2) 0.6582(1) 0.3062(1)
C7 C 0.7670(2) 0.6923(1) 0.5195(1)
C8 C 0.7936(2) 0.6061(2) 0.6372(1)
C9 C 0.3744(2) 0.4253(2) 0.2709(1)
C10 C 0.6300(2) 0.8324(1) 0.5497(1)
O1 O 0.7729(1) 0.2681(1) 0.4404(1)
O2 O 0.7683(1) 0.1916(1) 0.6373(1)
C11 C 0.8196(2) 0.1758(1) 0.5198(1)
C12 C 0.9490(2) 0.0409(1) 0.4673(1)
H1 H 0.3837 0.6205 0.3283
H2 H 0.8112 0.5152 0.4164
H3 H 0.7114 0.4620 0.2186
H4 H 0.5220 0.7241 0.1304
H5 H 0.5530 0.5641 0.0676
H6 H 0.8610 0.5617 0.0047
H7 H 0.7627 0.7095 -0.0468
H8 H 0.8066 0.8498 0.1135
H9 H 0.9950 0.7561 0.0464
H10 H 0.9743 0.5840 0.2117
H11 H 0.9464 0.7454 0.2714
H12 H 0.6335 0.7565 0.3190
H13 H 0.8831 0.7213 0.4758
H14 H 0.8716 0.5109 0.6103
H15 H 0.8569 0.6618 0.6827
H16 H 0.3444 0.4659 0.1923
H17 H 0.4588 0.3319 0.2496
H18 H 0.6372 0.8943 0.4745
H19 H 0.6538 0.8865 0.6177
H20 H 0.5109 0.8065 0.5762
H21 H 0.9583 0.0127 0.3829
C9A C 0.6256(2) 0.5747(2) 0.7291(1)
N1A N 0.5393(1) 0.4689(1) 0.6759(1)
C1A C 0.3710(2) 0.4418(1) 0.7626(1)
C2A C 0.3948(2) 0.3705(2) 0.8870(1)
C3A C 0.2169(2) 0.3427(2) 0.9696(1)
C4A C 0.1244(2) 0.2511(2) 0.9007(1)
C5A C 0.1062(2) 0.3198(2) 0.7739(1)
C6A C 0.2876(2) 0.3418(1) 0.6938(1)
N2A N 0.2826(1) 0.4060(1) 0.5675(1)
C7A C 0.2330(2) 0.3077(1) 0.4805(1)
C8A C 0.2064(2) 0.3939(2) 0.3628(1)
H14A H 0.1284 0.4891 0.3897
H15A H 0.1431 0.3382 0.3173
C10A C 0.3700(2) 0.1676(1) 0.4503(1)
H18A H 0.3628 0.1057 0.5255
H19A H 0.3462 0.1135 0.3823
H20A H 0.4891 0.1935 0.4238
H13A H 0.1169 0.2787 0.5242
H2A H 0.1888 0.4848 0.5836
H3A H 0.2886 0.5380 0.7814
H12A H 0.3665 0.2435 0.6810
H10A H 0.0257 0.4160 0.7883
H11A H 0.0536 0.2546 0.7286
H8A H 0.1934 0.1502 0.8865
H9A H 0.0050 0.2439 0.9536
H6A H 0.1390 0.4383 0.9953
H7A H 0.2373 0.2905 1.0468
H4A H 0.4780 0.2759 0.8696
H5A H 0.4470 0.4359 0.9324
H1A H 0.6163 0.3795 0.6717
H16A H 0.6556 0.5341 0.8077
H17A H 0.5412 0.6681 0.7504
C12A C 1.0510(2) -0.0409(1) 0.5327(1)
C11A C 1.1804(2) -0.1758(1) 0.4802(1)
O1A O 1.2271(1) -0.2681(1) 0.5596(1)
O2A O 1.2317(1) -0.1916(1) 0.3627(1)
H21A H 1.0417 -0.0127 0.6171
O1A_2 O 0.2271(1) 0.7319(1) 0.5596(1)
Cu1_2 Cu 1.5000 -0.5000 0.5000
O3 O 0.8958(2) 0.1664(2) 0.1912(1)
H22 H 0.8570(30) 0.1970(20) 0.2610(20)
H23 H 0.8170(30) 0.1480(30) 0.1660(20)
O4 O 0.7483(2) -0.0047(1) 0.8412(1)
H24 H 0.8450(30) -0.0460(20) 0.8365(19)
H25 H 0.7620(30) 0.0490(30) 0.7850(20)
O5 O 0.6015(2) 0.1150(2) 1.0897(1)
H26 H 0.6420(30) 0.0870(20) 1.0190(20)
H27 H 0.5040(40) 0.0850(30) 1.1120(20)
loop_
_geom_bond_atom_site_label_1
_geom_bond_atom_site_label_2
_geom_bond_site_symmetry_1
_geom_bond_site_symmetry_2
Cu1 N1 1_555 1_555
N1 C1 1_555 1_555
N2 Cu1 1_555 1_555
C1 C2 1_555 1_555
C2 C3 1_555 1_555
C3 C4 1_555 1_555
C4 C5 1_555 1_555
C5 C6 1_555 1_555
C6 N2 1_555 1_555
C7 N2 1_555 1_555
C8 C7 1_555 1_555
C9 N1 1_555 1_555
C10 C7 1_555 1_555
O1 Cu1 1_555 1_555
O2 C11 1_555 1_555
C11 O1 1_555 1_555
C12 C11 1_555 1_555
O3 H22 1_555 1_555
O4 H24 1_555 1_555
O5 H26 1_555 1_555
H1 N1 1_555 1_555
H2 N2 1_555 1_555
H3 C1 1_555 1_555
H4 C2 1_555 1_555
H5 C2 1_555 1_555
H6 C3 1_555 1_555
H7 C3 1_555 1_555
H8 C4 1_555 1_555
H9 C4 1_555 1_555
H10 C5 1_555 1_555
H11 C5 1_555 1_555
H12 C6 1_555 1_555
H13 C7 1_555 1_555
H14 C8 1_555 1_555
H15 C8 1_555 1_555
H16 C9 1_555 1_555
H17 C9 1_555 1_555
H18 C10 1_555 1_555
H19 C10 1_555 1_555
H20 C10 1_555 1_555
H21 C12 1_555 1_555
H23 O3 1_555 1_555
H25 O4 1_555 1_555
H27 O5 1_555 1_555
C9A C8 1_555 1_555
N1A Cu1 1_555 1_555
C1A N1A 1_555 1_555
C2A C1A 1_555 1_555
C3A C2A 1_555 1_555
C4A C3A 1_555 1_555
C5A C4A 1_555 1_555
C6A C1A 1_555 1_555
N2A Cu1 1_555 1_555
C7A N2A 1_555 1_555
C8A C9 1_555 1_555
H14A C8A 1_555 1_555
H15A C8A 1_555 1_555
C10A C7A 1_555 1_555
H18A C10A 1_555 1_555
H19A C10A 1_555 1_555
H20A C10A 1_555 1_555
H13A C7A 1_555 1_555
H2A N2A 1_555 1_555
H3A C1A 1_555 1_555
H12A C6A 1_555 1_555
H10A C5A 1_555 1_555
H11A C5A 1_555 1_555
H8A C4A 1_555 1_555
H9A C4A 1_555 1_555
H6A C3A 1_555 1_555
H7A C3A 1_555 1_555
H4A C2A 1_555 1_555
H5A C2A 1_555 1_555
H1A N1A 1_555 1_555
H16A C9A 1_555 1_555
H17A C9A 1_555 1_555
C12A C12 1_555 1_555
C11A C12A 1_555 1_555
O1A C11A 1_555 1_555
O2A C11A 1_555 1_555
H21A C12A 1_555 1_555
O1A_2 Cu1 1_555 1_555
Cu1_2 O1A 1_555 1_555
C1 C6 1_555 1_555
C9A N1A 1_555 1_555
C5A C6A 1_555 1_555
C6A N2A 1_555 1_555
C7A C8A 1_555 1_555

#END
