
#######################################################################
#
#                 Cambridge Crystallographic Data Centre
#                                CCDC 
#
#######################################################################
#
# If this CIF has been generated from an entry in the Cambridge 
# Structural Database, then it will include bibliographic, chemical, 
# crystal, experimental, refinement or atomic coordinate data resulting 
# from the CCDC's data processing and validation procedures.
#
#######################################################################

data_XOPTIG
_symmetry_cell_setting           monoclinic
_symmetry_space_group_name_H-M   'P 21'
_symmetry_Int_Tables_number      4
_space_group_name_Hall           'P 2yb'
loop_
_symmetry_equiv_pos_site_id
_symmetry_equiv_pos_as_xyz
1 x,y,z
2 -x,1/2+y,-z
_cell_length_a                   7.6207(10)
_cell_length_b                   20.686(3)
_cell_length_c                   11.6092(16)
_cell_angle_alpha                90
_cell_angle_beta                 97.296(2)
_cell_angle_gamma                90
_cell_volume                     1815.28
loop_
_atom_site_label
_atom_site_type_symbol
_atom_site_fract_x
_atom_site_fract_y
_atom_site_fract_z
O1 O 0.6367(4) 0.84997(14) -0.4756(2)
Cu1 Cu 1.04170(6) 0.59786(2) -0.09741(4)
Cu2 Cu 0.62163(6) 0.93853(2) -0.52616(4)
Cu3 Cu 0.71121(7) 0.41016(2) 0.09842(4)
Cu4 Cu 0.90282(6) 1.11853(2) -0.31395(4)
N1 N 0.7924(4) 0.63043(15) -0.1311(3)
O2 O 0.4319(4) 1.08601(15) -0.1927(3)
O3 O 0.7267(4) 1.33135(14) -0.8097(3)
O4 O 1.0909(4) 0.68349(14) -0.0262(3)
O5 O 0.5549(5) 0.45378(16) 0.1950(3)
H1 H 0.5573 0.4929 0.1835
O6 O 1.2780(4) 0.56671(15) -0.0492(3)
H2 H 1.2890 0.5304 -0.0755
C1 C 0.7401(5) 1.25933(18) -0.6520(4)
O7 O 1.0023(3) 0.54423(14) -0.2402(2)
O8 O 0.8866(4) 0.52827(14) -0.4228(2)
O9 O 0.7638(4) 1.05406(13) -0.4147(2)
O10 O 0.6115(4) 1.02735(13) -0.5820(2)
O11 O 0.6508(4) 0.48081(14) -0.0123(2)
C2 C 0.7736(5) 0.7264(2) -0.4577(3)
H3 H 0.7703 0.7470 -0.5291
O12 O 0.3935(4) 0.95624(16) -0.4626(3)
H4 H 0.3470 0.9887 -0.4937
C3 C 0.7531(5) 0.52403(19) -0.0374(3)
O13 O 0.7225(3) 1.09916(15) -0.1812(2)
C4 C 0.6956(5) 1.1452(2) -0.6776(3)
H5 H 0.6804 1.1095 -0.7265
C5 C 0.9665(6) 1.2473(2) -0.2863(4)
O14 O 0.4943(4) 0.91076(16) -0.7030(3)
H6 H 0.4909 0.8712 -0.7085
N2 N 0.7075(4) 1.18306(15) -0.3615(3)
O15 O 0.9114(4) 0.52962(15) 0.0034(3)
C6 C 0.6941(5) 1.13691(18) -0.5580(3)
C7 C 0.6890(5) 1.06887(18) -0.5139(3)
C8 C 0.8313(5) 0.63000(18) -0.3390(3)
O16 O 1.0352(4) 1.30149(15) -0.2854(3)
C9 C 0.7644(5) 1.32609(19) -0.7008(4)
O17 O 0.8180(5) 1.37046(14) -0.6316(3)
O18 O 1.0518(4) 1.19416(14) -0.2817(3)
C10 C 0.5678(5) 1.1103(2) -0.2270(3)
C11 C 0.7680(5) 1.2404(2) -0.2902(3)
H7 H 0.7376 1.2353 -0.2120
H8 H 0.7098 1.2790 -0.3236
C12 C 0.9480(6) 0.7142(2) -0.0114(3)
C13 C 0.7806(5) 0.66321(18) -0.2436(3)
C14 C 0.7094(5) 1.19156(18) -0.4857(3)
O19 O 0.8140(5) 0.36339(17) -0.0220(3)
H9 H 0.8355 0.3887 -0.0727
C15 C 0.7350(5) 1.25173(19) -0.5335(3)
H10 H 0.7490 1.2878 -0.4853
C16 C 0.7318(5) 0.72766(19) -0.2560(3)
H11 H 0.7005 0.7501 -0.1922
C17 C 0.7195(5) 1.2056(2) -0.7242(3)
H12 H 0.7217 1.2103 -0.8036
C18 C 0.6710(5) 0.57363(19) -0.1265(3)
H13 H 0.6495 0.5536 -0.2025
H14 H 0.5584 0.5882 -0.1053
O20 O 1.1020(4) 1.06066(16) -0.2896(3)
H15 H 1.1812 1.0774 -0.2451
O21 O 0.9920(5) 0.44921(17) 0.1928(3)
H16 H 1.0198 0.4289 0.2530
C19 C 0.8235(5) 0.66197(19) -0.4453(3)
H17 H 0.8524 0.6395 -0.5097
O22 O 0.8773(4) 0.93021(16) -0.5481(4)
H18 H 0.9164 0.9658 -0.5625
C20 C 0.5372(5) 1.15643(19) -0.3295(3)
H19 H 0.4753 1.1338 -0.3958
H20 H 0.4628 1.1919 -0.3102
C21 C 0.7288(5) 0.75932(18) -0.3616(3)
C22 C 0.9092(5) 0.56315(19) -0.3342(3)
O23 O 0.6896(5) 0.86483(16) -0.2844(3)
O25 O 0.9437(4) 0.77065(15) 0.0207(3)
C23 C 0.7814(5) 0.67416(19) -0.0315(3)
H21 H 0.7681 0.6490 0.0374
H22 H 0.6793 0.7022 -0.0476
C24 C 0.6808(5) 0.83058(19) -0.3721(4)
H23 H 1.308(6) 0.5707(18) 0.0201(18)
Cu3_2 Cu 0.71121(7) 1.41016(2) -0.90158(4)
O3_2 O 0.7267(4) 0.33135(14) 0.1903(3)
O24 O 0.2716(5) 0.44855(19) 0.8730(4)
H26 H 0.318(8) 0.425(3) 0.926(4)
O26 O 0.5769(5) 0.2413(2) 0.9764(4)
H28 H 0.59(3) 0.261(9) 1.039(9)
O27 O 0.3984(5) 0.29554(19) 0.7717(4)
H24 H 0.436(5) 0.286(2) 0.841(2)
H25 H 0.293(3) 0.296(3) 0.757(4)
O28 O 0.8758(4) 0.41338(17) 0.7744(3)
H29 H 0.890(11) 0.378(2) 0.746(7)
O29 O 0.3481(7) 0.3514(2) 0.0409(4)
H27 H 0.245(5) 0.350(4) 0.011(8)
loop_
_geom_bond_atom_site_label_1
_geom_bond_atom_site_label_2
_geom_bond_site_symmetry_1
_geom_bond_site_symmetry_2
O1 Cu2 1_555 1_555
Cu1 N1 1_555 1_555
Cu2 O10 1_555 1_555
Cu3 O5 1_555 1_555
Cu4 O9 1_555 1_555
N1 C13 1_555 1_555
O2 C10 1_555 1_555
O3 C9 1_555 1_555
O4 Cu1 1_555 1_555
O5 H1 1_555 1_555
O6 Cu1 1_555 1_555
H2 O6 1_555 1_555
C1 C9 1_555 1_555
O7 Cu1 1_555 1_555
O8 C22 1_555 1_555
O9 C7 1_555 1_555
O10 C7 1_555 1_555
O11 Cu3 1_555 1_555
C2 H3 1_555 1_555
O12 Cu2 1_555 1_555
H4 O12 1_555 1_555
C3 O11 1_555 1_555
O13 Cu4 1_555 1_555
C4 H5 1_555 1_555
C5 O16 1_555 1_555
O14 Cu2 1_555 1_555
H6 O14 1_555 1_555
N2 Cu4 1_555 1_555
O15 Cu1 1_555 1_555
C6 C4 1_555 1_555
C7 C6 1_555 1_555
C8 C13 1_555 1_555
C9 O17 1_555 1_555
O18 Cu4 1_555 1_555
C10 O13 1_555 1_555
C11 C5 1_555 1_555
H7 C11 1_555 1_555
H8 C11 1_555 1_555
C12 O4 1_555 1_555
C13 C16 1_555 1_555
C14 N2 1_555 1_555
O19 Cu3 1_555 1_555
H9 O19 1_555 1_555
C15 C1 1_555 1_555
H10 C15 1_555 1_555
C16 H11 1_555 1_555
C17 C1 1_555 1_555
H12 C17 1_555 1_555
C18 N1 1_555 1_555
H13 C18 1_555 1_555
H14 C18 1_555 1_555
O20 Cu4 1_555 1_555
H15 O20 1_555 1_555
O21 Cu3 1_555 1_555
H16 O21 1_555 1_555
C19 C2 1_555 1_555
H17 C19 1_555 1_555
O22 Cu2 1_555 1_555
H18 O22 1_555 1_555
C20 N2 1_555 1_555
H19 C20 1_555 1_555
H20 C20 1_555 1_555
C21 C2 1_555 1_555
C22 O7 1_555 1_555
O23 C24 1_555 1_555
O24 H26 1_555 1_555
O25 C12 1_555 1_555
C23 N1 1_555 1_555
H21 C23 1_555 1_555
H22 C23 1_555 1_555
C24 O1 1_555 1_555
O26 H28 1_555 1_555
O27 H24 1_555 1_555
H23 O6 1_555 1_555
H25 O27 1_555 1_555
O28 H29 1_555 1_555
O29 H27 1_555 1_555
Cu3_2 O3 1_555 1_555
O3_2 Cu3 1_555 1_555
C3 O15 1_555 1_555
C3 C18 1_555 1_555
C4 C17 1_555 1_555
C5 O18 1_555 1_555
N2 C11 1_555 1_555
C6 C14 1_555 1_555
C8 C19 1_555 1_555
C8 C22 1_555 1_555
C10 C20 1_555 1_555
C12 C23 1_555 1_555
C14 C15 1_555 1_555
C16 C21 1_555 1_555
C21 C24 1_555 1_555

#END
