
#######################################################################
#
#                 Cambridge Crystallographic Data Centre
#                                CCDC 
#
#######################################################################
#
# If this CIF has been generated from an entry in the Cambridge 
# Structural Database, then it will include bibliographic, chemical, 
# crystal, experimental, refinement or atomic coordinate data resulting 
# from the CCDC's data processing and validation procedures.
#
#######################################################################

data_XOPVAB
_symmetry_cell_setting           monoclinic
_symmetry_space_group_name_H-M   'P 21/c'
_symmetry_Int_Tables_number      14
_space_group_name_Hall           '-P 2ybc'
loop_
_symmetry_equiv_pos_site_id
_symmetry_equiv_pos_as_xyz
1 x,y,z
2 -x,1/2+y,1/2-z
3 -x,-y,-z
4 x,1/2-y,1/2+z
_cell_length_a                   12.032(2)
_cell_length_b                   5.6210(11)
_cell_length_c                   19.648(4)
_cell_angle_alpha                90
_cell_angle_beta                 97.97(3)
_cell_angle_gamma                90
_cell_volume                     1316
loop_
_atom_site_label
_atom_site_type_symbol
_atom_site_fract_x
_atom_site_fract_y
_atom_site_fract_z
Pd1 Pd 0.06059(6) 0.15776(15) -0.02199(4)
Br1 Br -0.08132(9) -0.59805(18) 0.08144(5)
C1 C 0.3093(7) 0.2360(15) 0.1020(4)
N1 N 0.2027(6) 0.0905(13) 0.0801(4)
Br2 Br 0.32749(9) 0.0773(3) -0.01886(6)
C2 C 0.3488(8) 0.3635(17) 0.1619(5)
H1 H 0.3051 0.3443 0.1971
N2 N 0.1077(6) -0.1713(13) 0.1171(4)
C3 C 0.4471(9) 0.524(2) 0.1801(6)
H2 H 0.4610 0.5962 0.2230
N3 N 0.2057(5) -0.0400(13) 0.1310(4)
C4 C 0.5067(9) 0.555(2) 0.1379(7)
H3 H 0.5680 0.6572 0.1428
C5 C 0.4722(9) 0.417(2) 0.0799(6)
H4 H 0.5201 0.4233 0.0467
C6 C 0.3729(8) 0.2618(19) 0.0617(5)
C7 C 0.1238(7) -0.3143(15) 0.1754(5)
C8 C 0.2133(8) -0.2680(17) 0.2406(5)
H5 H 0.2551 -0.1287 0.2414
C9 C 0.2342(8) -0.4154(17) 0.2958(5)
H6 H 0.2870 -0.3876 0.3342
C10 C 0.1640(10) -0.6164(19) 0.2862(6)
H7 H 0.1730 -0.7317 0.3205
C11 C 0.0694(8) -0.6648(17) 0.2213(5)
H8 H 0.0269 -0.8033 0.2205
C12 C 0.0493(7) -0.5120(16) 0.1678(4)
Pd1_2 Pd 0.06059(6) -0.84224(15) -0.02199(4)
Pd1B Pd -0.06059(6) -0.15776(15) 0.02199(4)
Br1_2 Br -0.08132(9) 0.40195(18) 0.08144(5)
Br1B Br 0.08132(9) 0.59805(18) -0.08144(5)
N2B N -0.1077(6) 0.1713(13) -0.1171(4)
loop_
_geom_bond_atom_site_label_1
_geom_bond_atom_site_label_2
_geom_bond_site_symmetry_1
_geom_bond_site_symmetry_2
Pd1 N1 1_555 1_555
Br1 C12 1_555 1_555
C1 N1 1_555 1_555
N1 N3 1_555 1_555
Br2 C6 1_555 1_555
C2 C1 1_555 1_555
H1 C2 1_555 1_555
N2 N3 1_555 1_555
C3 C2 1_555 1_555
H2 C3 1_555 1_555
C4 C3 1_555 1_555
H3 C4 1_555 1_555
C5 C4 1_555 1_555
H4 C5 1_555 1_555
C6 C1 1_555 1_555
C7 N2 1_555 1_555
C8 C7 1_555 1_555
H5 C8 1_555 1_555
C9 C8 1_555 1_555
H6 C9 1_555 1_555
C10 C9 1_555 1_555
H7 C10 1_555 1_555
C11 C10 1_555 1_555
H8 C11 1_555 1_555
C12 C7 1_555 1_555
Pd1_2 Br1 1_555 1_555
Pd1B Pd1 1_555 1_555
Br1_2 Pd1 1_555 1_555
Br1B Pd1 1_555 1_555
N2B Pd1 1_555 1_555
Br1 Pd1B 1_555 1_555
N2 Pd1B 1_555 1_555
C5 C6 1_555 1_555
C11 C12 1_555 1_555

#END
