
#######################################################################
#
#                 Cambridge Crystallographic Data Centre
#                                CCDC 
#
#######################################################################
#
# If this CIF has been generated from an entry in the Cambridge 
# Structural Database, then it will include bibliographic, chemical, 
# crystal, experimental, refinement or atomic coordinate data resulting 
# from the CCDC's data processing and validation procedures.
#
#######################################################################

data_XOPWIJ
_symmetry_cell_setting           monoclinic
_symmetry_space_group_name_H-M   'P 21/n'
_symmetry_Int_Tables_number      14
_space_group_name_Hall           '-P 2yn'
loop_
_symmetry_equiv_pos_site_id
_symmetry_equiv_pos_as_xyz
1 x,y,z
2 1/2-x,1/2+y,1/2-z
3 -x,-y,-z
4 1/2+x,1/2-y,1/2+z
_cell_length_a                   7.1760(13)
_cell_length_b                   10.5145(18)
_cell_length_c                   20.899(4)
_cell_angle_alpha                90
_cell_angle_beta                 99.300(3)
_cell_angle_gamma                90
_cell_volume                     1556.15
loop_
_atom_site_label
_atom_site_type_symbol
_atom_site_fract_x
_atom_site_fract_y
_atom_site_fract_z
Cd1 Cd 1.00956(4) 0.22394(2) 0.256995(11)
N1 N 0.9949(4) 0.3274(3) 0.35423(13)
N2 N 1.0373(5) 0.1292(3) 0.15846(13)
O1 O 1.1316(4) 0.4077(3) 0.21671(14)
O2 O 1.3302(4) 0.1987(3) 0.29919(17)
O3 O 1.0228(4) 0.0196(2) 0.30576(15)
O4 O 0.7034(5) 0.0207(4) 0.3194(3)
O5 O 0.9295(9) -0.0757(5) 0.39916(17)
S1 S 0.84845(14) -0.22166(9) 0.28609(5)
S2 S 0.87712(14) -0.05207(9) 0.33161(4)
C1 C 0.9752(6) 0.4535(4) 0.35413(17)
H1 H 0.9595 0.4959 0.3146
C2 C 0.9769(6) 0.5240(3) 0.40991(16)
H2 H 0.9635 0.6119 0.4075
C3 C 0.9987(5) 0.4638(3) 0.46937(15)
C4 C 1.0159(7) 0.3330(4) 0.46913(18)
H3 H 1.0279 0.2877 0.5078
C5 C 1.0153(7) 0.2699(4) 0.41122(19)
H4 H 1.0301 0.1820 0.4123
C6 C 1.0370(9) 0.2022(4) 0.1064(2)
H5 H 1.0465 0.2897 0.1125
C7 C 1.0233(9) 0.1559(4) 0.04398(19)
H6 H 1.0241 0.2114 0.0094
C8 C 1.0084(5) 0.0268(3) 0.03346(15)
C9 C 1.0096(6) -0.0490(4) 0.08693(17)
H7 H 1.0002 -0.1368 0.0822
C10 C 1.0248(6) 0.0052(3) 0.14817(16)
H8 H 1.0262 -0.0484 0.1837
H9 H 1.253(3) 0.437(5) 0.212(2)
H10 H 1.024(4) 0.459(4) 0.203(2)
H11 H 1.423(8) 0.206(7) 0.272(3)
H12 H 1.379(9) 0.162(6) 0.3400(17)
Cd1B Cd 0.99044(4) 0.77606(2) 0.743005(11)
Cd1A Cd 0.49044(4) -0.27606(2) 0.243005(11)
Cd1B_2 Cd 0.99044(4) -0.22394(2) -0.256995(11)
Cd1A_2 Cd 0.49044(4) 0.72394(2) 0.243005(11)
N1B N 1.0051(4) 0.6726(3) 0.64577(13)
N2B N 0.9627(5) -0.1292(3) -0.15846(13)
N2B_2 N 0.9627(5) 0.8708(3) 0.84154(13)
O1B O 0.8684(4) 0.5923(3) 0.78329(14)
O2B O 0.6698(4) 0.8013(3) 0.70081(17)
O3A O 0.4772(4) 0.5196(2) 0.19424(15)
O3B O 0.9772(4) 0.9804(2) 0.69424(15)
O4A O 0.7966(5) 0.5207(4) 0.1806(3)
O5A O 0.5705(9) 0.4243(5) 0.10084(17)
S1A S 0.65155(14) 0.27834(9) 0.21391(5)
S1C S 1.34845(14) 0.72166(9) 0.78609(5)
S2A S 0.62288(14) 0.44793(9) 0.16839(4)
C1B C 1.0248(6) 0.5465(4) 0.64587(17)
H1B H 1.0405 0.5041 0.6854
C2B C 1.0231(6) 0.4760(3) 0.59009(16)
H2B H 1.0365 0.3881 0.5925
C3B C 1.0013(5) 0.5362(3) 0.53063(15)
C4B C 0.9841(7) 0.6670(4) 0.53087(18)
H3B H 0.9721 0.7123 0.4922
C5B C 0.9847(7) 0.7301(4) 0.58878(19)
H4B H 0.9699 0.8180 0.5877
C6B C 0.9630(9) -0.2022(4) -0.1064(2)
H5B H 0.9535 -0.2897 -0.1125
C7B C 0.9767(9) -0.1559(4) -0.04398(19)
H6B H 0.9759 -0.2114 -0.0094
C8B C 0.9916(5) -0.0268(3) -0.03346(15)
C9B C 0.9904(6) 0.0490(4) -0.08693(17)
H7B H 0.9998 0.1368 -0.0822
C10B C 0.9752(6) -0.0052(3) -0.14817(16)
H8B H 0.9738 0.0484 -0.1837
H9B H 0.747(3) 0.563(5) 0.788(2)
H10B H 0.976(4) 0.541(4) 0.797(2)
H11B H 0.577(8) 0.794(7) 0.728(3)
H12B H 0.621(9) 0.838(6) 0.6600(17)
O6 O 1.4641(13) 0.1158(6) 0.4204(3)
H13 H 1.346(8) 0.050(6) 0.427(3)
H14 H 1.555(11) 0.069(8) 0.429(4)
O7 O 0.7690(9) 0.0119(6) 0.5058(3)
loop_
_geom_bond_atom_site_label_1
_geom_bond_atom_site_label_2
_geom_bond_site_symmetry_1
_geom_bond_site_symmetry_2
Cd1 N1 1_555 1_555
N1 C1 1_555 1_555
N2 Cd1 1_555 1_555
O1 Cd1 1_555 1_555
O2 Cd1 1_555 1_555
O3 Cd1 1_555 1_555
O4 S2 1_555 1_555
O5 S2 1_555 1_555
S1 S2 1_555 1_555
S2 O3 1_555 1_555
C1 H1 1_555 1_555
C2 C1 1_555 1_555
H2 C2 1_555 1_555
C3 C2 1_555 1_555
C4 C3 1_555 1_555
H3 C4 1_555 1_555
C5 N1 1_555 1_555
H4 C5 1_555 1_555
C6 N2 1_555 1_555
H5 C6 1_555 1_555
C7 C6 1_555 1_555
H6 C7 1_555 1_555
C8 C7 1_555 1_555
C9 C8 1_555 1_555
H7 C9 1_555 1_555
C10 N2 1_555 1_555
H8 C10 1_555 1_555
O6 H13 1_555 1_555
H9 O1 1_555 1_555
H10 O1 1_555 1_555
H11 O2 1_555 1_555
H12 O2 1_555 1_555
H14 O6 1_555 1_555
Cd1B N1B 1_555 1_555
Cd1A S1 1_555 1_555
Cd1B_2 N2B 1_555 1_555
Cd1A_2 O3A 1_555 1_555
N1B C1B 1_555 1_555
N2B C6B 1_555 1_555
N2B_2 Cd1B 1_555 1_555
O1B Cd1B 1_555 1_555
O2B Cd1B 1_555 1_555
O3A S2A 1_555 1_555
O3B Cd1B 1_555 1_555
O4A S2A 1_555 1_555
O5A S2A 1_555 1_555
S1A Cd1 1_555 1_555
S1C Cd1B 1_555 1_555
S2A S1A 1_555 1_555
C1B H1B 1_555 1_555
C2B C1B 1_555 1_555
H2B C2B 1_555 1_555
C3B C3 1_555 1_555
C4B C3B 1_555 1_555
H3B C4B 1_555 1_555
C5B N1B 1_555 1_555
H4B C5B 1_555 1_555
C6B H5B 1_555 1_555
C7B C6B 1_555 1_555
H6B C7B 1_555 1_555
C8B C8 1_555 1_555
C9B C8B 1_555 1_555
H7B C9B 1_555 1_555
C10B N2B 1_555 1_555
H8B C10B 1_555 1_555
H9B O1B 1_555 1_555
H10B O1B 1_555 1_555
H11B O2B 1_555 1_555
H12B O2B 1_555 1_555
C4 C5 1_555 1_555
C9 C10 1_555 1_555
C2B C3B 1_555 1_555
C4B C5B 1_555 1_555
C7B C8B 1_555 1_555
C9B C10B 1_555 1_555

#END
