
#######################################################################
#
#                 Cambridge Crystallographic Data Centre
#                                CCDC 
#
#######################################################################
#
# If this CIF has been generated from an entry in the Cambridge 
# Structural Database, then it will include bibliographic, chemical, 
# crystal, experimental, refinement or atomic coordinate data resulting 
# from the CCDC's data processing and validation procedures.
#
#######################################################################

data_XOPWUV
_symmetry_cell_setting           monoclinic
_symmetry_space_group_name_H-M   'P 21/c'
_symmetry_Int_Tables_number      14
_space_group_name_Hall           '-P 2ybc'
loop_
_symmetry_equiv_pos_site_id
_symmetry_equiv_pos_as_xyz
1 x,y,z
2 -x,1/2+y,1/2-z
3 -x,-y,-z
4 x,1/2-y,1/2+z
_cell_length_a                   11.0343(17)
_cell_length_b                   15.894(2)
_cell_length_c                   15.823(2)
_cell_angle_alpha                90
_cell_angle_beta                 91.969(3)
_cell_angle_gamma                90
_cell_volume                     2773.39
loop_
_atom_site_label
_atom_site_type_symbol
_atom_site_fract_x
_atom_site_fract_y
_atom_site_fract_z
Cd1 Cd 0.32384(2) 0.242892(14) 0.264343(15)
Cd2 Cd 0.21848(2) -0.248020(14) -0.272610(15)
N1 N 0.3359(3) 0.15263(17) 0.15293(17)
N2 N 0.2827(3) 0.35675(17) 0.17188(17)
S1 S 0.52821(9) 0.30082(5) 0.31550(6)
S2 S 0.55748(8) 0.19332(5) 0.38771(5)
S3 S 0.04496(8) 0.16348(5) 0.28754(5)
S4 S 0.15917(10) 0.23449(8) 0.36303(7)
N3 N 0.2846(3) -0.14780(16) -0.17693(17)
N4 N 0.1331(2) -0.34986(16) -0.35961(16)
O1 O 0.6864(2) 0.17642(18) 0.37933(17)
O2 O -0.0691(2) 0.16016(16) 0.33210(16)
N5 N 0.2188(3) 0.65269(15) -0.16157(16)
O3 O 0.5283(3) 0.21022(18) 0.47369(15)
O4 O 0.4817(2) 0.12943(15) 0.34821(16)
O5 O 0.0973(3) 0.08229(19) 0.2788(2)
O6 O 0.0243(3) 0.2061(2) 0.20818(18)
C1 C 0.3381(3) -0.1669(2) -0.1021(2)
H1 H 0.3626 -0.2222 -0.0926
C2 C 0.3314(3) 0.03633(19) 0.01916(19)
C3 C 0.1581(3) 0.4574(2) 0.0977(2)
H2 H 0.0843 0.4855 0.0933
C4 C 0.2345(3) 0.53588(19) -0.0289(2)
C5 C 0.1465(3) 0.6574(2) -0.0956(2)
H3 H 0.0892 0.7003 -0.0950
C6 C 0.1067(3) -0.3309(2) -0.4402(2)
H4 H 0.1252 -0.2772 -0.4592
C7 C 0.3585(3) -0.10919(19) -0.0388(2)
H5 H 0.3966 -0.1256 0.0118
C8 C 0.0261(3) -0.46803(19) -0.47068(19)
C9 C 0.2491(3) 0.47533(19) 0.0422(2)
C10 C 0.1781(3) 0.3975(2) 0.1596(2)
H6 H 0.1148 0.3848 0.1948
C11 C 0.2729(3) -0.0054(2) -0.1300(2)
H7 H 0.2515 0.0500 -0.1423
C12 C 0.2560(4) -0.0672(2) -0.1902(2)
H8 H 0.2229 -0.0520 -0.2428
C13 C 0.3223(3) -0.02617(19) -0.0504(2)
C14 C 0.3809(3) 0.0169(2) 0.0985(2)
H9 H 0.4136 -0.0363 0.1085
C15 C 0.0533(3) -0.3867(2) -0.4968(2)
H10 H 0.0356 -0.3701 -0.5522
C16 C 0.2959(3) 0.5880(2) -0.1619(2)
H11 H 0.3460 0.5827 -0.2076
C17 C 0.3059(3) 0.5292(2) -0.0992(2)
H12 H 0.3602 0.4848 -0.1035
C18 C 0.1523(3) 0.6023(2) -0.0284(2)
H13 H 0.1018 0.6094 0.0168
C19 C 0.2887(4) 0.1716(2) 0.0771(2)
H14 H 0.2556 0.2249 0.0690
C20 C 0.3573(4) 0.4330(2) 0.0551(2)
H15 H 0.4216 0.4433 0.0201
C21 C 0.3699(4) 0.3757(2) 0.1196(2)
H16 H 0.4441 0.3485 0.1270
C22 C 0.3820(3) 0.0757(2) 0.1626(2)
H17 H 0.4164 0.0609 0.2150
C23 C 0.1036(3) -0.4266(2) -0.3341(2)
H18 H 0.1193 -0.4405 -0.2777
C24 C 0.2859(4) 0.1167(2) 0.0100(2)
H19 H 0.2531 0.1340 -0.0421
C25 C 0.0511(3) -0.4866(2) -0.3862(2)
H20 H 0.0325 -0.5394 -0.3649
Cd1B Cd 0.67616(2) -0.242892(14) -0.264343(15)
Cd1B_2 Cd -0.32384(2) -0.242892(14) -0.264343(15)
Cd1_2 Cd 0.32384(2) -0.757108(14) 0.264343(15)
Cd2B Cd 0.78152(2) 0.248020(14) 0.272610(15)
Cd2B_2 Cd -0.21848(2) 0.248020(14) 0.272610(15)
Cd2_2 Cd 0.21848(2) 0.751980(14) -0.272610(15)
Cd2B_3 Cd -0.21848(2) -0.751980(14) -0.727390(15)
N1B N 0.6641(3) -0.15263(17) -0.15293(17)
N2_2 N 0.2827(3) -0.64325(17) 0.17188(17)
N2B N 0.7173(3) -0.35675(17) -0.17188(17)
S1B S 0.47179(9) -0.30082(5) -0.31550(6)
S2B S 0.44252(8) -0.19332(5) -0.38771(5)
S3B S -0.04496(8) -0.16348(5) -0.28754(5)
S4B S -0.15917(10) -0.23449(8) -0.36303(7)
S4B_2 S 0.84083(10) -0.23449(8) -0.36303(7)
N3B N 0.7154(3) 0.14780(16) 0.17693(17)
N4B N -0.1331(2) -0.65014(16) -0.64039(16)
N4B_2 N 0.8669(2) 0.34986(16) 0.35961(16)
O1B O 0.3136(2) -0.17642(18) -0.37933(17)
O2B O 0.0691(2) -0.16016(16) -0.33210(16)
O2_2 O 0.9309(2) 0.16016(16) 0.33210(16)
N5_2 N 0.2188(3) -0.34731(15) -0.16157(16)
N5B N 0.7812(3) 0.34731(15) 0.16157(16)
O3B O 0.4717(3) -0.21022(18) -0.47369(15)
O4B O 0.5183(2) -0.12943(15) -0.34821(16)
O5B O -0.0973(3) -0.08229(19) -0.2788(2)
O6B O -0.0243(3) -0.2061(2) -0.20818(18)
C1B C 0.6619(3) 0.1669(2) 0.1021(2)
H1B H 0.6374 0.2222 0.0926
C2B C 0.6686(3) -0.03633(19) -0.01916(19)
C3_2 C 0.1581(3) -0.5426(2) 0.0977(2)
H2_2 H 0.0843 -0.5145 0.0933
C4_2 C 0.2345(3) -0.46412(19) -0.0289(2)
C5_2 C 0.1465(3) -0.3426(2) -0.0956(2)
H3_2 H 0.0892 -0.2997 -0.0950
C6B C -0.1067(3) -0.6691(2) -0.5598(2)
H4B H -0.1252 -0.7228 -0.5408
C7B C 0.6415(3) 0.10919(19) 0.0388(2)
H5B H 0.6034 0.1256 -0.0118
C8B C -0.0261(3) -0.53197(19) -0.52932(19)
C9_2 C 0.2491(3) -0.52467(19) 0.0422(2)
C10_2 C 0.1781(3) -0.6025(2) 0.1596(2)
H6_2 H 0.1148 -0.6152 0.1948
C11B C 0.7271(3) 0.0054(2) 0.1300(2)
H7B H 0.7485 -0.0500 0.1423
C12B C 0.7440(4) 0.0672(2) 0.1902(2)
H8B H 0.7771 0.0520 0.2428
C13B C 0.6777(3) 0.02617(19) 0.0504(2)
C14B C 0.6191(3) -0.0169(2) -0.0985(2)
H9B H 0.5864 0.0363 -0.1085
C15B C -0.0533(3) -0.6133(2) -0.5032(2)
H10B H -0.0356 -0.6299 -0.4478
C16_2 C 0.2959(3) -0.4120(2) -0.1619(2)
H11_2 H 0.3460 -0.4173 -0.2076
C17_2 C 0.3059(3) -0.4708(2) -0.0992(2)
H12_2 H 0.3602 -0.5152 -0.1035
C18_2 C 0.1523(3) -0.3977(2) -0.0284(2)
H13_2 H 0.1018 -0.3906 0.0168
C19B C 0.7113(4) -0.1716(2) -0.0771(2)
H14B H 0.7444 -0.2249 -0.0690
C20_2 C 0.3573(4) -0.5670(2) 0.0551(2)
H15_2 H 0.4216 -0.5567 0.0201
C21_2 C 0.3699(4) -0.6243(2) 0.1196(2)
H16_2 H 0.4441 -0.6515 0.1270
C22B C 0.6180(3) -0.0757(2) -0.1626(2)
H17B H 0.5836 -0.0609 -0.2150
C23B C -0.1036(3) -0.5734(2) -0.6659(2)
H18B H -0.1193 -0.5595 -0.7223
C24B C 0.7141(4) -0.1167(2) -0.0100(2)
H19B H 0.7469 -0.1340 0.0421
C25B C -0.0511(3) -0.5134(2) -0.6138(2)
H20B H -0.0325 -0.4606 -0.6351
loop_
_geom_bond_atom_site_label_1
_geom_bond_atom_site_label_2
_geom_bond_site_symmetry_1
_geom_bond_site_symmetry_2
Cd1 N1 1_555 1_555
Cd2 N3 1_555 1_555
N1 C19 1_555 1_555
N2 Cd1 1_555 1_555
S1 Cd1 1_555 1_555
S2 S1 1_555 1_555
S3 S4 1_555 1_555
S4 Cd1 1_555 1_555
N3 C1 1_555 1_555
N4 Cd2 1_555 1_555
O1 S2 1_555 1_555
O2 S3 1_555 1_555
N5 C5 1_555 1_555
O3 S2 1_555 1_555
O4 S2 1_555 1_555
O5 S3 1_555 1_555
O6 S3 1_555 1_555
C1 H1 1_555 1_555
C2 C13 1_555 1_555
C3 H2 1_555 1_555
C4 C9 1_555 1_555
C5 H3 1_555 1_555
C6 N4 1_555 1_555
H4 C6 1_555 1_555
C7 C1 1_555 1_555
H5 C7 1_555 1_555
C8 C15 1_555 1_555
C9 C3 1_555 1_555
C10 N2 1_555 1_555
H6 C10 1_555 1_555
C11 H7 1_555 1_555
C12 N3 1_555 1_555
H8 C12 1_555 1_555
C13 C7 1_555 1_555
C14 C2 1_555 1_555
H9 C14 1_555 1_555
C15 C6 1_555 1_555
H10 C15 1_555 1_555
C16 N5 1_555 1_555
H11 C16 1_555 1_555
C17 C4 1_555 1_555
H12 C17 1_555 1_555
C18 C4 1_555 1_555
H13 C18 1_555 1_555
C19 H14 1_555 1_555
C20 C9 1_555 1_555
H15 C20 1_555 1_555
C21 N2 1_555 1_555
H16 C21 1_555 1_555
C22 N1 1_555 1_555
H17 C22 1_555 1_555
C23 N4 1_555 1_555
H18 C23 1_555 1_555
C24 C2 1_555 1_555
H19 C24 1_555 1_555
C25 C8 1_555 1_555
H20 C25 1_555 1_555
Cd1B N1B 1_555 1_555
Cd1B_2 S4B 1_555 1_555
Cd1_2 N2_2 1_555 1_555
Cd2B O1 1_555 1_555
Cd2B_2 O2 1_555 1_555
Cd2_2 N5 1_555 1_555
Cd2B_3 N4B 1_555 1_555
N1B C19B 1_555 1_555
N2_2 C10_2 1_555 1_555
N2B Cd1B 1_555 1_555
S1B Cd1B 1_555 1_555
S2B S1B 1_555 1_555
S3B S4B 1_555 1_555
S4B_2 Cd1B 1_555 1_555
N3B Cd2B 1_555 1_555
N4B C6B 1_555 1_555
N4B_2 Cd2B 1_555 1_555
O1B Cd2 1_555 1_555
O2B Cd2 1_555 1_555
O2_2 Cd2B 1_555 1_555
N5_2 Cd2 1_555 1_555
N5B Cd2B 1_555 1_555
O3B S2B 1_555 1_555
O4B S2B 1_555 1_555
O5B S3B 1_555 1_555
O6B S3B 1_555 1_555
C1B N3B 1_555 1_555
H1B C1B 1_555 1_555
C2B C13B 1_555 1_555
C3_2 H2_2 1_555 1_555
C4_2 C9_2 1_555 1_555
C5_2 N5_2 1_555 1_555
H3_2 C5_2 1_555 1_555
C6B H4B 1_555 1_555
C7B C1B 1_555 1_555
H5B C7B 1_555 1_555
C8B C8 1_555 1_555
C9_2 C3_2 1_555 1_555
C10_2 C3_2 1_555 1_555
H6_2 C10_2 1_555 1_555
C11B H7B 1_555 1_555
C12B N3B 1_555 1_555
H8B C12B 1_555 1_555
C13B C7B 1_555 1_555
C14B C2B 1_555 1_555
H9B C14B 1_555 1_555
C15B C6B 1_555 1_555
H10B C15B 1_555 1_555
C16_2 N5_2 1_555 1_555
H11_2 C16_2 1_555 1_555
C17_2 C4_2 1_555 1_555
H12_2 C17_2 1_555 1_555
C18_2 C4_2 1_555 1_555
H13_2 C18_2 1_555 1_555
C19B H14B 1_555 1_555
C20_2 C9_2 1_555 1_555
H15_2 C20_2 1_555 1_555
C21_2 N2_2 1_555 1_555
H16_2 C21_2 1_555 1_555
C22B N1B 1_555 1_555
H17B C22B 1_555 1_555
C23B N4B 1_555 1_555
H18B C23B 1_555 1_555
C24B C2B 1_555 1_555
H19B C24B 1_555 1_555
C25B C8B 1_555 1_555
H20B C25B 1_555 1_555
C3 C10 1_555 1_555
C5 C18 1_555 1_555
C11 C12 1_555 1_555
C11 C13 1_555 1_555
C14 C22 1_555 1_555
C16 C17 1_555 1_555
C19 C24 1_555 1_555
C20 C21 1_555 1_555
C23 C25 1_555 1_555
S2B O1B 1_555 1_555
S3B O2B 1_555 1_555
C5_2 C18_2 1_555 1_555
C8B C15B 1_555 1_555
C11B C12B 1_555 1_555
C11B C13B 1_555 1_555
C14B C22B 1_555 1_555
C16_2 C17_2 1_555 1_555
C19B C24B 1_555 1_555
C20_2 C21_2 1_555 1_555
C23B C25B 1_555 1_555

#END
