
#######################################################################
#
#                 Cambridge Crystallographic Data Centre
#                                CCDC 
#
#######################################################################
#
# If this CIF has been generated from an entry in the Cambridge 
# Structural Database, then it will include bibliographic, chemical, 
# crystal, experimental, refinement or atomic coordinate data resulting 
# from the CCDC's data processing and validation procedures.
#
#######################################################################

data_XOPWOP
_symmetry_cell_setting           monoclinic
_symmetry_space_group_name_H-M   'C 2/c'
_symmetry_Int_Tables_number      15
_space_group_name_Hall           '-C 2yn'
loop_
_symmetry_equiv_pos_site_id
_symmetry_equiv_pos_as_xyz
1 x,y,z
2 1/2+x,1/2+y,z
3 -x,y,1/2-z
4 1/2-x,1/2+y,1/2-z
5 -x,-y,-z
6 1/2-x,1/2-y,-z
7 x,-y,1/2+z
8 1/2+x,1/2-y,1/2+z
_cell_length_a                   12.628(2)
_cell_length_b                   15.081(2)
_cell_length_c                   17.362(3)
_cell_angle_alpha                90
_cell_angle_beta                 107.076(3)
_cell_angle_gamma                90
_cell_volume                     3160.71
loop_
_atom_site_label
_atom_site_type_symbol
_atom_site_fract_x
_atom_site_fract_y
_atom_site_fract_z
Cd1 Cd 0.5000 0.495876(18) 0.2500
Cd2 Cd 0.5000 1.01410(2) 0.7500
O1 O 0.6804(2) 0.49222(16) 0.24475(16)
O2 O 0.6417(2) 0.46692(17) 0.10204(16)
O3 O 0.79037(18) 0.56433(14) 0.17241(13)
N1 N 0.5770(2) 0.39060(16) 0.35082(15)
N2 N 0.5388(2) 0.61678(16) 0.34332(15)
N3 N 0.5248(2) 0.92307(16) 0.64955(15)
S1 S 0.83694(7) 0.38276(6) 0.19911(7)
S2 S 0.72616(6) 0.48522(5) 0.17656(5)
C1 C 0.5958(2) 0.40626(18) 0.42944(17)
H1 H 0.5610 0.4547 0.4448
C2 C 0.6638(2) 0.35441(18) 0.48890(18)
H2 H 0.6766 0.3697 0.5428
C3 C 0.7135(2) 0.27920(18) 0.46853(17)
C4 C 0.6908(3) 0.26135(19) 0.38681(18)
H3 H 0.7193 0.2106 0.3698
C5 C 0.6260(3) 0.3189(2) 0.33114(18)
H4 H 0.6157 0.3074 0.2768
C6 C 0.4616(3) 0.6804(2) 0.33174(18)
H5 H 0.4035 0.6798 0.2842
C7 C 0.4641(3) 0.7461(2) 0.3864(2)
H6 H 0.4103 0.7903 0.3744
C8 C 0.5465(3) 0.74742(18) 0.45992(19)
C9 C 0.6288(3) 0.68300(19) 0.47115(19)
H7 H 0.6874 0.6816 0.5184
C10 C 0.6220(3) 0.62140(19) 0.41118(19)
H8 H 0.6792 0.5805 0.4187
C11 C 0.4609(3) 0.9340(2) 0.57361(19)
H9 H 0.4088 0.9794 0.5628
C12 C 0.4685(3) 0.88131(19) 0.51092(19)
H10 H 0.4241 0.8930 0.4589
C13 C 0.5423(2) 0.81069(19) 0.52483(18)
C14 C 0.6082(3) 0.7994(2) 0.60351(19)
H11 H 0.6595 0.7534 0.6163
C15 C 0.5974(3) 0.8565(2) 0.6627(2)
H12 H 0.6435 0.8482 0.7148
Cd1G Cd 1.0000 0.004124(18) 0.7500
Cd2G Cd 1.0000 0.48590(2) 0.2500
Cd2G_2 Cd 0.0000 0.48590(2) 0.2500
Cd2_2 Cd 0.5000 1.01410(2) -0.2500
O1B O 0.3196(2) 0.49222(16) 0.25525(16)
O2B O 0.3583(2) 0.46692(17) 0.39796(16)
O3B O 0.20963(18) 0.56433(14) 0.32759(13)
N1E N 0.9230(2) 0.10940(16) 0.64918(15)
N1B N 0.4230(2) 0.39060(16) 0.14918(15)
N2B N 0.4612(2) 0.61678(16) 0.15668(15)
N3B N 0.4752(2) 0.92307(16) -0.14955(15)
N3B_2 N 0.4752(2) 0.92307(16) 0.85045(15)
S1B S 0.16306(7) 0.38276(6) 0.30089(7)
S1G S 0.33694(7) 1.11724(6) 0.69911(7)
S1E S 0.66306(7) 1.11724(6) 0.80089(7)
S2B S 0.27384(6) 0.48522(5) 0.32344(5)
C1E C 0.9042(2) 0.09374(18) 0.57056(17)
H1E H 0.9390 0.0453 0.5552
C2E C 0.8362(2) 0.14559(18) 0.51110(18)
H2E H 0.8234 0.1303 0.4572
C3E C 0.7865(2) 0.22080(18) 0.53147(17)
C4E C 0.8092(3) 0.23865(19) 0.61319(18)
H3E H 0.7807 0.2894 0.6302
C5E C 0.8740(3) 0.1811(2) 0.66886(18)
H4E H 0.8843 0.1926 0.7232
C6B C 0.5384(3) 0.6804(2) 0.16826(18)
H5B H 0.5965 0.6798 0.2158
C7B C 0.5359(3) 0.7461(2) 0.1136(2)
H6B H 0.5897 0.7903 0.1256
C8B C 0.4535(3) 0.74742(18) 0.04008(19)
C9B C 0.3712(3) 0.68300(19) 0.02885(19)
H7B H 0.3126 0.6816 -0.0184
C10B C 0.3780(3) 0.62140(19) 0.08882(19)
H8B H 0.3208 0.5805 0.0813
C11B C 0.5391(3) 0.9340(2) -0.07361(19)
H9B H 0.5912 0.9794 -0.0628
C12B C 0.5315(3) 0.88131(19) -0.01092(19)
H10B H 0.5759 0.8930 0.0411
C13B C 0.4577(2) 0.81069(19) -0.02483(18)
C14B C 0.3918(3) 0.7994(2) -0.10351(19)
H11B H 0.3405 0.7534 -0.1163
C15B C 0.4026(3) 0.8565(2) -0.1627(2)
H12B H 0.3565 0.8482 -0.2148
loop_
_geom_bond_atom_site_label_1
_geom_bond_atom_site_label_2
_geom_bond_site_symmetry_1
_geom_bond_site_symmetry_2
Cd1 O1 1_555 1_555
Cd2 N3 1_555 1_555
O1 S2 1_555 1_555
O2 S2 1_555 1_555
O3 S2 1_555 1_555
N1 Cd1 1_555 1_555
N2 Cd1 1_555 1_555
N3 C11 1_555 1_555
S1 S2 1_555 1_555
C1 N1 1_555 1_555
H1 C1 1_555 1_555
C2 C1 1_555 1_555
H2 C2 1_555 1_555
C3 C2 1_555 1_555
C4 C3 1_555 1_555
H3 C4 1_555 1_555
C5 N1 1_555 1_555
H4 C5 1_555 1_555
C6 N2 1_555 1_555
H5 C6 1_555 1_555
C7 C6 1_555 1_555
H6 C7 1_555 1_555
C8 C7 1_555 1_555
C9 C8 1_555 1_555
H7 C9 1_555 1_555
C10 N2 1_555 1_555
H8 C10 1_555 1_555
C11 H9 1_555 1_555
C12 C11 1_555 1_555
H10 C12 1_555 1_555
C13 C8 1_555 1_555
C14 C13 1_555 1_555
H11 C14 1_555 1_555
C15 N3 1_555 1_555
H12 C15 1_555 1_555
Cd1G N1E 1_555 1_555
Cd2G S1 1_555 1_555
Cd2G_2 S1B 1_555 1_555
Cd2_2 N3B 1_555 1_555
O1B Cd1 1_555 1_555
O2B S2B 1_555 1_555
O3B S2B 1_555 1_555
N1E C1E 1_555 1_555
N1B Cd1 1_555 1_555
N2B Cd1 1_555 1_555
N3B C11B 1_555 1_555
N3B_2 Cd2 1_555 1_555
S1B S2B 1_555 1_555
S1G Cd2 1_555 1_555
S1E Cd2 1_555 1_555
S2B O1B 1_555 1_555
C1E H1E 1_555 1_555
C2E C1E 1_555 1_555
H2E C2E 1_555 1_555
C3E C3 1_555 1_555
C4E C3E 1_555 1_555
H3E C4E 1_555 1_555
C5E N1E 1_555 1_555
H4E C5E 1_555 1_555
C6B N2B 1_555 1_555
H5B C6B 1_555 1_555
C7B C6B 1_555 1_555
H6B C7B 1_555 1_555
C8B C7B 1_555 1_555
C9B C8B 1_555 1_555
H7B C9B 1_555 1_555
C10B N2B 1_555 1_555
H8B C10B 1_555 1_555
C11B H9B 1_555 1_555
C12B C11B 1_555 1_555
H10B C12B 1_555 1_555
C13B C8B 1_555 1_555
C14B C13B 1_555 1_555
H11B C14B 1_555 1_555
C15B N3B 1_555 1_555
H12B C15B 1_555 1_555
C4 C5 1_555 1_555
C9 C10 1_555 1_555
C12 C13 1_555 1_555
C14 C15 1_555 1_555
C2E C3E 1_555 1_555
C4E C5E 1_555 1_555
C9B C10B 1_555 1_555
C12B C13B 1_555 1_555
C14B C15B 1_555 1_555

#END
