
#######################################################################
#
#                 Cambridge Crystallographic Data Centre
#                                CCDC 
#
#######################################################################
#
# If this CIF has been generated from an entry in the Cambridge 
# Structural Database, then it will include bibliographic, chemical, 
# crystal, experimental, refinement or atomic coordinate data resulting 
# from the CCDC's data processing and validation procedures.
#
#######################################################################

data_XOPWAB
_symmetry_cell_setting           monoclinic
_symmetry_space_group_name_H-M   'P 21/c'
_symmetry_Int_Tables_number      14
_space_group_name_Hall           '-P 2ybc'
loop_
_symmetry_equiv_pos_site_id
_symmetry_equiv_pos_as_xyz
1 x,y,z
2 -x,1/2+y,1/2-z
3 -x,-y,-z
4 x,1/2-y,1/2+z
_cell_length_a                   11.6950(7)
_cell_length_b                   14.2219(8)
_cell_length_c                   22.1864(14)
_cell_angle_alpha                90
_cell_angle_beta                 102.442(1)
_cell_angle_gamma                90
_cell_volume                     3603.49
loop_
_atom_site_label
_atom_site_type_symbol
_atom_site_fract_x
_atom_site_fract_y
_atom_site_fract_z
C1 C 0.9368(7) 0.4900(5) 0.7281(3)
C2 C 1.4136(6) 0.7033(5) 0.7993(3)
C3 C 1.1572(7) 0.7647(6) 0.6817(3)
H1 H 1.1374 0.7969 0.7155
C4 C 1.1618(7) 0.8143(6) 0.6289(3)
H2 H 1.1456 0.8799 0.6262
C5 C 1.1906(7) 0.7661(5) 0.5797(3)
H3 H 1.1926 0.7983 0.5424
C6 C 1.2166(7) 0.6709(6) 0.5851(3)
C7 C 1.2092(6) 0.6263(5) 0.6401(3)
H4 H 1.2259 0.5609 0.6444
C8 C 1.2498(7) 0.6153(5) 0.5343(3)
C9 C 1.2164(8) 0.6508(6) 0.4690(3)
H5 H 1.2137 0.5981 0.4403
H6 H 1.1393 0.6809 0.4622
H7 H 1.2747 0.6968 0.4619
C10 C 1.4513(7) 0.4621(5) 0.7550(4)
C11 C 0.9006(7) 0.7081(5) 0.7960(3)
C12 C 1.4730(7) 0.2635(5) 0.3666(3)
H8 H 1.4917 0.2310 0.3326
C13 C 1.5061(8) 0.2252(6) 0.4249(4)
H9 H 1.5456 0.1664 0.4304
C14 C 1.4822(7) 0.2720(5) 0.4750(4)
H10 H 1.5045 0.2461 0.5153
C15 C 1.4244(6) 0.3583(5) 0.4655(3)
C16 C 1.3934(7) 0.3924(5) 0.4052(3)
H11 H 1.3553 0.4516 0.3984
C17 C 1.3958(7) 0.4143(5) 0.5179(4)
C18 C 1.4373(8) 0.3779(6) 0.5814(3)
H12 H 1.4027 0.4150 0.6102
H13 H 1.5228 0.3825 0.5930
H14 H 1.4138 0.3119 0.5831
Hg1 Hg 1.17947(2) 0.59274(2) 0.783040(12)
Hg2 Hg 0.65777(3) 0.59719(2) 0.747130(12)
N1 N 0.8414(6) 0.5161(5) 0.7103(3)
N2 N 1.4849(6) 0.7005(4) 0.7706(3)
N3 N 1.1797(5) 0.6722(4) 0.6868(3)
N4 N 1.3066(6) 0.5386(5) 0.5517(3)
N5 N 1.3588(7) 0.4749(5) 0.7622(4)
N6 N 0.9977(6) 0.6944(4) 0.7960(3)
N7 N 1.4151(6) 0.3454(4) 0.3566(3)
N8 N 1.3342(6) 0.4886(4) 0.5021(3)
S1 S 1.07372(18) 0.44886(14) 0.75150(10)
S2 S 1.31092(17) 0.70897(14) 0.84221(8)
S3 S 1.58685(17) 0.43788(15) 0.74451(9)
S4 S 0.76129(17) 0.73380(14) 0.79644(9)
C1_2 C 1.9368(7) 0.4900(5) 0.7281(3)
C2_2 C 0.4136(6) 0.7033(5) 0.7993(3)
C3B C 0.8428(7) 0.2353(6) 0.3183(3)
H1B H 0.8626 0.2031 0.2845
C4B C 0.8382(7) 0.1857(6) 0.3711(3)
H2B H 0.8544 0.1201 0.3738
C5B C 0.8094(7) 0.2339(5) 0.4203(3)
H3B H 0.8074 0.2017 0.4576
C6B C 0.7834(7) 0.3291(6) 0.4149(3)
C7B C 0.7908(6) 0.3737(5) 0.3599(3)
H4B H 0.7741 0.4391 0.3556
C8B C 0.7502(7) 0.3847(5) 0.4657(3)
C9B C 0.7836(8) 0.3492(6) 0.5310(3)
H5B H 0.7863 0.4019 0.5597
H6B H 0.8607 0.3191 0.5378
H7B H 0.7253 0.3032 0.5381
C10_2 C 0.4513(7) 0.4621(5) 0.7550(4)
C11_2 C 1.9006(7) 0.7081(5) 0.7960(3)
C12B C 0.5270(7) 0.7365(5) 0.6334(3)
H8B H 0.5083 0.7690 0.6674
C13B C 0.4939(8) 0.7748(6) 0.5751(4)
H9B H 0.4544 0.8336 0.5696
C14B C 0.5178(7) 0.7280(5) 0.5250(4)
H10B H 0.4955 0.7539 0.4847
C15B C 0.5756(6) 0.6417(5) 0.5345(3)
C16B C 0.6066(7) 0.6076(5) 0.5948(3)
H11B H 0.6447 0.5484 0.6016
C17B C 0.6042(7) 0.5857(5) 0.4821(4)
C18B C 0.5627(8) 0.6221(6) 0.4186(3)
H12B H 0.5973 0.5850 0.3898
H13B H 0.4772 0.6175 0.4070
H14B H 0.5862 0.6881 0.4169
Hg1B Hg 0.82053(2) 0.40726(2) 0.216960(12)
Hg1_2 Hg 0.17947(2) 0.59274(2) 0.783040(12)
Hg1_3 Hg 2.17947(2) 0.59274(2) 0.783040(12)
Hg2_2 Hg 1.65777(3) 0.59719(2) 0.747130(12)
Hg2B Hg 1.34223(3) 0.40281(2) 0.252870(12)
N1_2 N 1.8414(6) 0.5161(5) 0.7103(3)
N2_2 N 0.4849(6) 0.7005(4) 0.7706(3)
N3B N 0.8203(5) 0.3278(4) 0.3132(3)
N4B N 0.6934(6) 0.4614(5) 0.4483(3)
N5_2 N 0.3588(7) 0.4749(5) 0.7622(4)
N5B N 0.6412(7) 0.5251(5) 0.2378(4)
N6_2 N 1.9977(6) 0.6944(4) 0.7960(3)
N6B N 1.0023(6) 0.3056(4) 0.2040(3)
N7B N 0.5849(6) 0.6546(4) 0.6434(3)
N7B_2 N 1.5849(6) 0.6546(4) 0.6434(3)
N8B N 0.6658(6) 0.5114(4) 0.4979(3)
S1_2 S 2.07372(18) 0.44886(14) 0.75150(10)
S1B S 0.92628(18) 0.55114(14) 0.24850(10)
S2_2 S 0.31092(17) 0.70897(14) 0.84221(8)
S2B S 0.68908(17) 0.29103(14) 0.15779(8)
S3_2 S 0.58685(17) 0.43788(15) 0.74451(9)
S4_2 S 1.76129(17) 0.73380(14) 0.79644(9)
C19 C 0.9948(6) 0.4381(5) 0.0685(3)
C20 C 1.4861(7) 0.5215(5) -0.0784(3)
C21 C 1.1815(7) 0.3141(5) -0.0999(3)
H15 H 1.2071 0.3613 -0.1242
C22 C 1.1399(7) 0.2293(5) -0.1280(3)
H16 H 1.1353 0.2192 -0.1708
C23 C 1.1062(7) 0.1610(5) -0.0920(3)
H17 H 1.0793 0.1022 -0.1098
C24 C 1.1110(6) 0.1771(5) -0.0294(3)
C25 C 1.1520(6) 0.2631(5) -0.0058(3)
H18 H 1.1560 0.2750 0.0368
C26 C 1.0716(6) 0.1040(5) 0.0107(3)
C27 C 1.0973(7) 0.1194(6) 0.0791(3)
H19 H 1.0608 0.0692 0.0987
H20 H 1.1822 0.1185 0.0952
H21 H 1.0657 0.1803 0.0881
Hg3 Hg 1.25249(2) 0.47692(2) 0.002750(12)
N9 N 1.0904(6) 0.4557(5) 0.0697(3)
N10 N 1.4021(6) 0.4911(5) -0.0683(3)
N11 N 1.1866(5) 0.3315(4) -0.0401(3)
N12 N 1.0179(5) 0.0328(4) -0.0190(3)
S5 S 0.85616(17) 0.40982(13) 0.07021(8)
S6 S 1.60808(19) 0.56225(18) -0.09686(9)
C19B C 1.0052(6) 0.5619(5) -0.0685(3)
C20B C 1.5139(7) 0.4785(5) 0.0784(3)
C21B C 0.8185(7) -0.3141(5) 0.0999(3)
H15B H 0.7929 -0.3613 0.1242
C22B C 0.8601(7) -0.2293(5) 0.1280(3)
H16B H 0.8647 -0.2192 0.1708
C23B C 0.8938(7) -0.1610(5) 0.0920(3)
H17B H 0.9207 -0.1022 0.1098
C24B C 0.8890(6) -0.1771(5) 0.0294(3)
C25B C 0.8480(6) -0.2631(5) 0.0058(3)
H18B H 0.8440 -0.2750 -0.0368
C26B C 0.9284(6) -0.1040(5) -0.0107(3)
C27B C 0.9027(7) -0.1194(6) -0.0791(3)
H19B H 0.9392 -0.0692 -0.0987
H20B H 0.8178 -0.1185 -0.0952
H21B H 0.9343 -0.1803 -0.0881
Hg3B Hg 0.74751(2) 0.52308(2) -0.002750(12)
Hg3B_2 Hg 1.74751(2) 0.52308(2) -0.002750(12)
Hg3B_3 Hg 0.74751(2) -0.47692(2) -0.002750(12)
N9B N 0.9096(6) 0.5443(5) -0.0697(3)
N10B N 1.5979(6) 0.5089(5) 0.0683(3)
N10B_2 N 0.5979(6) 0.5089(5) 0.0683(3)
N11B N 0.8134(5) -0.3315(4) 0.0401(3)
N11B_2 N 0.8134(5) 0.6685(4) 0.0401(3)
N12B N 0.9821(5) -0.0328(4) 0.0190(3)
S5B S 1.14384(17) 0.59018(13) -0.07021(8)
S6B S 1.39192(19) 0.43775(18) 0.09686(9)
S6_2 S 0.60808(19) 0.56225(18) -0.09686(9)
loop_
_geom_bond_atom_site_label_1
_geom_bond_atom_site_label_2
_geom_bond_site_symmetry_1
_geom_bond_site_symmetry_2
C1 N1 1_555 1_555
C2 N2 1_555 1_555
C3 H1 1_555 1_555
C4 C3 1_555 1_555
H2 C4 1_555 1_555
C5 C4 1_555 1_555
H3 C5 1_555 1_555
C6 C5 1_555 1_555
C7 C6 1_555 1_555
H4 C7 1_555 1_555
C8 C6 1_555 1_555
C9 C8 1_555 1_555
H5 C9 1_555 1_555
H6 C9 1_555 1_555
H7 C9 1_555 1_555
C10 N5 1_555 1_555
C11 N6 1_555 1_555
C12 H8 1_555 1_555
C13 C12 1_555 1_555
H9 C13 1_555 1_555
C14 C13 1_555 1_555
H10 C14 1_555 1_555
C15 C14 1_555 1_555
C16 C15 1_555 1_555
H11 C16 1_555 1_555
C17 C15 1_555 1_555
C18 C17 1_555 1_555
H12 C18 1_555 1_555
H13 C18 1_555 1_555
H14 C18 1_555 1_555
C19 N9 1_555 1_555
C20 N10 1_555 1_555
C21 H15 1_555 1_555
C22 C21 1_555 1_555
H16 C22 1_555 1_555
C23 C22 1_555 1_555
H17 C23 1_555 1_555
C24 C23 1_555 1_555
C25 C24 1_555 1_555
H18 C25 1_555 1_555
C26 C24 1_555 1_555
C27 C26 1_555 1_555
H19 C27 1_555 1_555
H20 C27 1_555 1_555
H21 C27 1_555 1_555
Hg1 N3 1_555 1_555
Hg2 N1 1_555 1_555
Hg3 N9 1_555 1_555
N2 Hg2_2 1_555 1_555
N3 C3 1_555 1_555
N4 C8 1_555 1_555
N5 Hg1 1_555 1_555
N6 Hg1 1_555 1_555
N7 C12 1_555 1_555
N8 C17 1_555 1_555
N10 Hg3 1_555 1_555
N11 C21 1_555 1_555
N12 C26 1_555 1_555
S1 C1 1_555 1_555
S2 C2 1_555 1_555
S3 C10 1_555 1_555
S4 C11 1_555 1_555
S5 C19 1_555 1_555
S6 C20 1_555 1_555
C1_2 N1_2 1_555 1_555
C2_2 N2_2 1_555 1_555
C3B H1B 1_555 1_555
C4B C3B 1_555 1_555
H2B C4B 1_555 1_555
C5B C4B 1_555 1_555
H3B C5B 1_555 1_555
C6B C5B 1_555 1_555
C7B C6B 1_555 1_555
H4B C7B 1_555 1_555
C8B C6B 1_555 1_555
C9B C8B 1_555 1_555
H5B C9B 1_555 1_555
H6B C9B 1_555 1_555
H7B C9B 1_555 1_555
C10_2 N5_2 1_555 1_555
C11_2 N6_2 1_555 1_555
C12B H8B 1_555 1_555
C13B C12B 1_555 1_555
H9B C13B 1_555 1_555
C14B C13B 1_555 1_555
H10B C14B 1_555 1_555
C15B C14B 1_555 1_555
C16B C15B 1_555 1_555
H11B C16B 1_555 1_555
C17B C15B 1_555 1_555
C18B C17B 1_555 1_555
H12B C18B 1_555 1_555
H13B C18B 1_555 1_555
H14B C18B 1_555 1_555
C19B N9B 1_555 1_555
C20B N10B 1_555 1_555
C21B H15B 1_555 1_555
C22B C21B 1_555 1_555
H16B C22B 1_555 1_555
C23B C22B 1_555 1_555
H17B C23B 1_555 1_555
C24B C23B 1_555 1_555
C25B C24B 1_555 1_555
H18B C25B 1_555 1_555
C26B C24B 1_555 1_555
C27B C26B 1_555 1_555
H19B C27B 1_555 1_555
H20B C27B 1_555 1_555
H21B C27B 1_555 1_555
Hg1B N3B 1_555 1_555
Hg1_2 N5_2 1_555 1_555
Hg1_3 N6_2 1_555 1_555
Hg2_2 S3 1_555 1_555
Hg2B N7 1_555 1_555
Hg3B S5 1_555 1_555
Hg3B_2 S6 1_555 1_555
Hg3B_3 N11B 1_555 1_555
N1_2 Hg2_2 1_555 1_555
N2_2 Hg2 1_555 1_555
N3B C3B 1_555 1_555
N4B C8B 1_555 1_555
N5B Hg1B 1_555 1_555
N6B Hg1B 1_555 1_555
N7B Hg2 1_555 1_555
N7B_2 Hg2_2 1_555 1_555
N8B C17B 1_555 1_555
N9B Hg3B 1_555 1_555
N10B Hg3B_2 1_555 1_555
N10B_2 Hg3B 1_555 1_555
N11B C21B 1_555 1_555
N11B_2 Hg3B 1_555 1_555
N12B N12 1_555 1_555
S1_2 C1_2 1_555 1_555
S1B Hg1B 1_555 1_555
S2_2 C2_2 1_555 1_555
S2B Hg1B 1_555 1_555
S3_2 Hg2 1_555 1_555
S4_2 C11_2 1_555 1_555
S5B Hg3 1_555 1_555
S6B Hg3 1_555 1_555
S6_2 Hg3B 1_555 1_555
C7 N3 1_555 1_555
C16 N7 1_555 1_555
C25 N11 1_555 1_555
Hg1 S1 1_555 1_555
Hg1 S2 1_555 1_555
Hg2 S4 1_555 1_555
Hg3 N11 1_555 1_555
N4 N8 1_555 1_555
C7B N3B 1_555 1_555
C10_2 S3_2 1_555 1_555
C12B N7B 1_555 1_555
C16B N7B 1_555 1_555
C19B S5B 1_555 1_555
C20B S6B 1_555 1_555
C25B N11B 1_555 1_555
C26B N12B 1_555 1_555
Hg1_2 S2_2 1_555 1_555
Hg1_3 S1_2 1_555 1_555
Hg2_2 S4_2 1_555 1_555
N4B N8B 1_555 1_555

#END
