
#######################################################################
#
#                 Cambridge Crystallographic Data Centre
#                                CCDC 
#
#######################################################################
#
# If this CIF has been generated from an entry in the Cambridge 
# Structural Database, then it will include bibliographic, chemical, 
# crystal, experimental, refinement or atomic coordinate data resulting 
# from the CCDC's data processing and validation procedures.
#
#######################################################################

data_XOPXIK
_symmetry_cell_setting           trigonal
_symmetry_space_group_name_H-M   'P 31 1 2'
_symmetry_Int_Tables_number      151
_space_group_name_Hall           "P 31 2' (0,0,4)"
loop_
_symmetry_equiv_pos_site_id
_symmetry_equiv_pos_as_xyz
1 x,y,z
2 -y,x-y,1/3+z
3 -x+y,-x,2/3+z
4 -y,-x,2/3-z
5 x,x-y,-z
6 -x+y,y,1/3-z
_cell_length_a                   8.9349(19)
_cell_length_b                   8.9349(19)
_cell_length_c                   19.992(4)
_cell_angle_alpha                90
_cell_angle_beta                 90
_cell_angle_gamma                120
_cell_volume                     1382.19
loop_
_atom_site_label
_atom_site_type_symbol
_atom_site_fract_x
_atom_site_fract_y
_atom_site_fract_z
Au1 Au 0.09822(5) 0.27635(6) 0.988544(19)
Cd1 Cd -0.36936(6) 0.26128(6) 1.1667
N1 N -0.1906(12) 0.2486(12) 1.0836(5)
N2 N -0.6019(11) 0.0765(13) 1.1016(4)
N3 N -0.3742(12) 0.5077(10) 1.1324(4)
C1 C -0.0880(16) 0.2580(15) 1.0480(5)
C2 C -0.7085(15) -0.0110(17) 1.0692(5)
C3 C -0.5082(17) 0.4981(18) 1.1000(7)
H1 H -0.6010 0.3897 1.0897
C4 C -0.515(2) 0.642(2) 1.0810(7)
H2 H -0.6112 0.6317 1.0589
C5 C -0.3774(18) 0.8004(17) 1.0952(5)
H3 H -0.3788 0.9005 1.0836
C6 C -0.2375(16) 0.8099(15) 1.1269(5)
H4 H -0.1401 0.9170 1.1349
C7 C -0.2402(12) 0.6615(13) 1.1471(4)
Au1E Au -0.82187(8) 0.27635(6) 1.344789(19)
Au1D Au -0.90178(5) -0.17813(8) 1.011456(19)
Au1A Au -0.27635(6) -0.17813(8) 1.321877(19)
N1E N -0.5608(17) 0.2486(12) 1.2497(5)
N2E N -0.3216(17) 0.0765(13) 1.2317(4)
N3E N -0.1181(16) 0.5077(10) 1.2009(4)
C1E C -0.6540(22) 0.2580(15) 1.2853(5)
C2E C -0.3025(23) -0.0110(17) 1.2641(5)
C2D C 0.2915(15) 0.3025(23) 0.9308(5)
C2A C -0.9890(17) 0.3025(23) 1.4025(5)
C3E C 0.0063(25) 0.4981(18) 1.2333(7)
H1E H -0.0093 0.3897 1.2436
C4E C 0.157(3) 0.642(2) 1.2523(7)
H2E H 0.2429 0.6317 1.2744
C5E C 0.1778(25) 0.8004(17) 1.2381(5)
H3E H 0.2793 0.9005 1.2497
C6E C 0.0474(22) 0.8099(15) 1.2064(5)
H4E H 0.0571 0.9170 1.1984
C7E C -0.0983(18) 0.6615(13) 1.1862(4)
loop_
_geom_bond_atom_site_label_1
_geom_bond_atom_site_label_2
_geom_bond_site_symmetry_1
_geom_bond_site_symmetry_2
Au1 C1 1_555 1_555
Cd1 N1 1_555 1_555
N1 C1 1_555 1_555
N2 Cd1 1_555 1_555
N3 Cd1 1_555 1_555
C2 N2 1_555 1_555
C3 N3 1_555 1_555
H1 C3 1_555 1_555
C4 C3 1_555 1_555
H2 C4 1_555 1_555
C5 C4 1_555 1_555
H3 C5 1_555 1_555
C6 C5 1_555 1_555
H4 C6 1_555 1_555
C7 N3 1_555 1_555
Au1E C1E 1_555 1_555
Au1D C2 1_555 1_555
Au1A C2E 1_555 1_555
N1E Cd1 1_555 1_555
N2E Cd1 1_555 1_555
N3E Cd1 1_555 1_555
C1E N1E 1_555 1_555
C2E N2E 1_555 1_555
C2D Au1 1_555 1_555
C2A Au1E 1_555 1_555
C3E N3E 1_555 1_555
H1E C3E 1_555 1_555
C4E C3E 1_555 1_555
H2E C4E 1_555 1_555
C5E C4E 1_555 1_555
H3E C5E 1_555 1_555
C6E C5E 1_555 1_555
H4E C6E 1_555 1_555
C7E C7 1_555 1_555
C6 C7 1_555 1_555
N3E C7E 1_555 1_555
C6E C7E 1_555 1_555

#END
