
#######################################################################
#
#                 Cambridge Crystallographic Data Centre
#                                CCDC 
#
#######################################################################
#
# If this CIF has been generated from an entry in the Cambridge 
# Structural Database, then it will include bibliographic, chemical, 
# crystal, experimental, refinement or atomic coordinate data resulting 
# from the CCDC's data processing and validation procedures.
#
#######################################################################

data_XOPXAC
_symmetry_cell_setting           rhombohedral
_symmetry_space_group_name_H-M   'R -3'
_symmetry_Int_Tables_number      148
_space_group_name_Hall           '-R 3'
loop_
_symmetry_equiv_pos_site_id
_symmetry_equiv_pos_as_xyz
1 x,y,z
2 -y,x-y,z
3 -x+y,-x,z
4 2/3+x,1/3+y,1/3+z
5 2/3-y,1/3+x-y,1/3+z
6 2/3-x+y,1/3-x,1/3+z
7 1/3+x,2/3+y,2/3+z
8 1/3-y,2/3+x-y,2/3+z
9 1/3-x+y,2/3-x,2/3+z
10 -x,-y,-z
11 y,-x+y,-z
12 x-y,x,-z
13 1/3-x,2/3-y,2/3-z
14 1/3+y,2/3-x+y,2/3-z
15 1/3+x-y,2/3+x,2/3-z
16 2/3-x,1/3-y,1/3-z
17 2/3+y,1/3-x+y,1/3-z
18 2/3+x-y,1/3+x,1/3-z
_cell_length_a                   38.3092(6)
_cell_length_b                   38.3092(6)
_cell_length_c                   47.3977(13)
_cell_angle_alpha                90
_cell_angle_beta                 90
_cell_angle_gamma                120.00
_cell_volume                     60241.3
loop_
_atom_site_label
_atom_site_type_symbol
_atom_site_fract_x
_atom_site_fract_y
_atom_site_fract_z
Mg1 Mg 0.10665(3) 0.39275(3) 0.37931(2)
Mg2 Mg 0.08559(3) 0.31956(4) 0.32606(2)
Mg3 Mg 0.05093(3) 0.60157(3) 0.43588(2)
Mg4 Mg 0.03833(3) 0.50390(4) 0.44485(2)
O1 O 0.08096(8) 0.40350(8) 0.34572(5)
O2 O 0.07268(8) 0.36118(8) 0.31050(5)
O3 O 0.07800(7) 0.71254(7) 0.30866(5)
O4 O 0.04031(8) 0.71869(8) 0.27571(5)
O5 O -0.00957(10) 0.47895(8) 0.06579(5)
O6 O -0.04780(8) 0.41564(8) 0.08091(5)
O7 O 0.15928(8) 0.44463(7) 0.37041(5)
O8 O 0.19602(8) 0.42885(8) 0.34321(7)
O9 O 0.09630(8) 0.54451(8) 0.43510(6)
O10 O 0.10462(8) 0.60555(8) 0.42689(5)
O11 O 0.02641(8) 0.57064(8) 0.39940(5)
O12 O 0.01296(8) 0.50816(8) 0.40897(5)
O13 O -0.13530(8) 0.60380(10) 0.17220(5)
O14 O -0.10677(7) 0.58925(8) 0.13709(5)
O15 O -0.12489(8) 0.25002(9) 0.19834(6)
O16 O -0.06841(7) 0.26796(8) 0.22235(5)
O17 O 0.09447(8) 0.42998(8) 0.40499(5)
O18 O 0.04385(9) 0.45857(8) 0.42246(6)
O19 O 0.13008(6) 0.36094(6) 0.35356(4)
O20 O 0.12223(9) 0.33520(9) 0.29069(6)
O21 O 0.09526(8) 0.27299(8) 0.33840(6)
O22 O 0.03613(8) 0.27442(9) 0.30139(5)
O23 O -0.01143(7) 0.25585(8) 0.25303(5)
O24 O 0.02941(6) 0.54844(6) 0.46299(4)
O25 O -0.02008(8) 0.45858(8) 0.45470(5)
O26 O 0.06373(8) 0.49389(9) 0.48068(5)
C1 C 0.07238(12) 0.39137(12) 0.32068(8)
C2 C 0.06100(12) 0.41528(12) 0.30128(7)
C3 C 0.05348(14) 0.44405(13) 0.31198(8)
H1 H 0.0549 0.4483 0.3314
C4 C 0.04377(15) 0.46696(13) 0.29453(8)
H2 H 0.0366 0.4847 0.3024
C5 C 0.04462(13) 0.46368(12) 0.26499(7)
C6 C 0.05080(14) 0.43335(12) 0.25467(8)
H3 H 0.0497 0.4290 0.2353
C7 C 0.05856(14) 0.40947(13) 0.27238(8)
H4 H 0.0622 0.3891 0.2648
C8 C 0.03596(13) 0.48952(12) 0.24641(7)
C9 C 0.04086(13) 0.52601(11) 0.25643(8)
H5 H 0.0494 0.5338 0.2749
C10 C 0.03318(13) 0.55115(11) 0.23923(7)
C11 C 0.02068(13) 0.53939(12) 0.21178(8)
H6 H 0.0155 0.5559 0.2002
C12 C 0.01578(13) 0.50359(11) 0.20118(7)
C13 C 0.02370(12) 0.47883(11) 0.21868(7)
H7 H 0.0207 0.4548 0.2116
C14 C 0.03847(12) 0.58957(11) 0.25145(8)
C15 C 0.06525(12) 0.60905(13) 0.27330(8)
H8 H 0.0806 0.5983 0.2802
C16 C 0.06987(12) 0.64375(12) 0.28515(8)
H9 H 0.0875 0.6557 0.3002
C17 C 0.04844(11) 0.66100(11) 0.27479(8)
C18 C 0.02169(11) 0.64232(12) 0.25317(8)
H10 H 0.0069 0.6537 0.2462
C19 C 0.01635(12) 0.60685(12) 0.24169(8)
H11 H -0.0023 0.5944 0.2273
C20 C 0.05572(11) 0.70020(13) 0.28731(8)
C21 C 0.00311(13) 0.49116(12) 0.17159(8)
C22 C 0.01515(15) 0.51887(13) 0.15007(8)
H12 H 0.0303 0.5462 0.1542
C23 C 0.00496(14) 0.50660(12) 0.12185(8)
H13 H 0.0136 0.5258 0.1076
C24 C -0.01743(12) 0.46674(11) 0.11529(7)
C25 C -0.03060(13) 0.43885(12) 0.13702(8)
H14 H -0.0462 0.4116 0.1327
C26 C -0.02129(14) 0.45016(13) 0.16474(8)
H15 H -0.0311 0.4308 0.1789
C27 C -0.02621(13) 0.45257(13) 0.08524(7)
C28 C 0.19041(12) 0.45452(11) 0.35632(9)
C29 C 0.22070(11) 0.49803(11) 0.35411(8)
C30 C 0.21376(12) 0.52701(12) 0.36528(9)
H16 H 0.1899 0.5189 0.3751
C31 C 0.24038(12) 0.56729(12) 0.36267(9)
H17 H 0.2340 0.5858 0.3703
C32 C 0.27683(12) 0.58109(11) 0.34882(9)
C33 C 0.28461(13) 0.55272(12) 0.33688(10)
H18 H 0.3084 0.5613 0.3269
C34 C 0.25757(12) 0.51173(12) 0.33957(10)
H19 H 0.2637 0.4932 0.3318
C35 C 0.30575(11) 0.62504(12) 0.34710(10)
C36 C 0.34698(12) 0.63946(11) 0.34690(9)
H20 H 0.3562 0.6212 0.3466
C37 C 0.11772(13) 0.58156(12) 0.42952(8)
C38 C 0.16245(12) 0.59929(11) 0.42629(8)
C39 C 0.17986(12) 0.57611(12) 0.43454(9)
H21 H 0.1636 0.5497 0.4407
C40 C 0.22122(13) 0.59290(12) 0.43349(10)
H22 H 0.2325 0.5780 0.4402
C41 C 0.24673(11) 0.63171(11) 0.42271(9)
C42 C 0.22799(12) 0.65299(12) 0.41384(10)
H23 H 0.2436 0.6788 0.4065
C43 C 0.18669(12) 0.63665(12) 0.41573(9)
H24 H 0.1752 0.6518 0.4096
C44 C 0.29144(12) 0.64981(12) 0.42183(9)
C45 C 0.31671(11) 0.69137(11) 0.42177(9)
H25 H 0.3055 0.7081 0.4217
C46 C 0.01280(12) 0.53482(11) 0.39295(8)
C47 C -0.00524(11) 0.52114(12) 0.36415(7)
C48 C -0.00262(13) 0.54692(13) 0.34387(8)
H26 H 0.0110 0.5744 0.3477
C49 C -0.01945(13) 0.53389(13) 0.31735(8)
H27 H -0.0164 0.5527 0.3037
C50 C -0.04070(12) 0.49318(12) 0.31085(8)
C51 C -0.04398(13) 0.46671(14) 0.33125(9)
H28 H -0.0583 0.4392 0.3274
C52 C -0.02624(13) 0.47993(14) 0.35803(8)
H29 H -0.0285 0.4613 0.3715
C53 C -0.05866(11) 0.47820(13) 0.28212(8)
C54 C -0.06803(11) 0.50139(12) 0.26434(7)
H30 H -0.0646 0.5258 0.2708
C55 C -0.08222(12) 0.48884(13) 0.23725(8)
C56 C -0.08764(11) 0.45201(13) 0.22794(8)
H31 H -0.0975 0.4432 0.2098
C57 C -0.07849(12) 0.42801(13) 0.24515(8)
C58 C -0.06433(12) 0.44155(13) 0.27214(8)
H32 H -0.0584 0.4257 0.2839
C59 C -0.09059(12) 0.51428(13) 0.21820(8)
C60 C -0.10593(12) 0.53754(15) 0.22848(8)
H33 H -0.1111 0.5371 0.2477
C61 C -0.11382(12) 0.56162(14) 0.21056(8)
H34 H -0.1241 0.5771 0.2179
C62 C -0.10650(11) 0.56263(12) 0.18189(8)
C63 C -0.09011(12) 0.54032(13) 0.17164(8)
H35 H -0.0843 0.5412 0.1525
C64 C -0.08215(12) 0.51648(13) 0.18950(8)
H36 H -0.0710 0.5016 0.1821
C65 C -0.11637(12) 0.58730(12) 0.16231(8)
C66 C -0.08275(12) 0.38964(13) 0.23539(8)
C67 C -0.11180(12) 0.36401(14) 0.21609(9)
H37 H -0.1291 0.3718 0.2082
C68 C -0.11579(12) 0.32750(14) 0.20820(9)
H38 H -0.1359 0.3108 0.1956
C69 C -0.08980(11) 0.31611(13) 0.21895(8)
C70 C -0.05915(13) 0.34190(13) 0.23705(9)
H39 H -0.0404 0.3351 0.2437
C71 C -0.05677(13) 0.37705(14) 0.24495(9)
H40 H -0.0365 0.3936 0.2575
C72 C -0.09423(12) 0.27517(13) 0.21251(8)
C73 C 0.09994(13) 0.46801(12) 0.39452(9)
H41 H 0.1112 0.4730 0.3756
H42 H 0.1185 0.4899 0.4066
C74 C 0.06074(14) 0.46591(14) 0.39414(8)
H43 H 0.0639 0.4910 0.3870
H44 H 0.0425 0.4444 0.3817
C75 C 0.03797(13) 0.42046(12) 0.43258(9)
H45 H 0.0188 0.3988 0.4206
H46 H 0.0272 0.4156 0.4516
C76 C 0.07722(14) 0.42131(14) 0.43241(8)
H47 H 0.0956 0.4417 0.4455
H48 H 0.0732 0.3954 0.4386
C77 C -0.00323(13) 0.27207(14) 0.30176(9)
H49 H -0.0034 0.2902 0.3159
H50 H -0.0241 0.2449 0.3064
C78 C -0.01111(13) 0.28323(12) 0.27378(8)
H51 H -0.0369 0.2822 0.2739
H52 H 0.0096 0.3105 0.2692
C79 C 0.02630(12) 0.25671(14) 0.25212(9)
H53 H 0.0475 0.2833 0.2464
H54 H 0.0250 0.2373 0.2384
C80 C 0.03543(13) 0.24676(13) 0.28055(9)
H55 H 0.0151 0.2195 0.2856
H56 H 0.0614 0.2481 0.2801
Mg1M Mg -0.27392(3) -0.04723(4) 0.28736(2)
Mg1E Mg -0.04723(4) 0.22668(3) 0.71264(2)
Mg1N Mg 0.04723(4) 0.77332(3) 0.28736(2)
Mg1G Mg -0.05942(3) 0.38057(4) 0.04598(2)
Mg1A Mg 0.60725(3) 0.71390(4) 0.37931(2)
Mg1B Mg 0.28610(4) 0.89335(3) 0.37931(2)
Mg1K Mg -0.28610(4) 0.10665(3) 0.62069(2)
Mg1J Mg 0.39275(3) 0.28610(4) 0.62069(2)
Mg2M Mg -0.34711(4) -0.09936(5) 0.34061(2)
Mg2E Mg -0.09936(5) 0.24774(3) 0.65939(2)
Mg2N Mg 0.09936(5) 0.75226(3) 0.34061(2)
Mg2J Mg 0.31956(4) 0.23397(5) 0.67394(2)
Mg3B Mg 0.55064(4) 0.94907(3) 0.43588(2)
Mg3A Mg 0.39843(3) 0.44936(4) 0.43588(2)
Mg3H Mg -0.11603(4) 0.61574(3) 0.10255(2)
Mg3M Mg -0.06510(3) 0.21731(4) 0.23079(2)
Mg3B_2 Mg -0.44936(4) -0.05093(3) 0.43588(2)
Mg3I Mg -0.05093(3) 0.39843(3) 0.56412(2)
Mg3D Mg 0.06510(3) 0.78269(4) 0.76921(2)
Mg3K Mg 0.44936(4) 1.05093(3) 0.56412(2)
Mg3N Mg -0.21731(4) 0.71760(3) 0.23079(2)
Mg3J Mg -0.39843(3) 0.55064(4) 0.56412(2)
Mg4B Mg 0.46557(5) 0.96167(3) 0.44485(2)
Mg4A Mg 0.49610(4) 0.53443(5) 0.44485(2)
Mg4M Mg -0.16277(4) 0.13224(5) 0.22182(2)
Mg4E Mg 0.13224(5) 0.29500(3) 0.77818(2)
Mg4D Mg 0.16277(4) 0.86776(5) 0.77818(2)
Mg4N Mg -0.13224(5) 0.70500(3) 0.22182(2)
O1M O -0.26317(8) -0.01079(11) 0.32095(5)
O1E O -0.01079(11) 0.25237(8) 0.67905(5)
O2M O -0.30549(8) -0.04483(11) 0.35617(5)
O2E O -0.04483(11) 0.26065(8) 0.64383(5)
O3M O 0.04587(7) 0.30121(10) 0.35801(5)
O3E O 0.30121(10) 0.25533(7) 0.64199(5)
O3B O -0.36546(10) -0.07800(7) 0.30866(5)
O3I O -0.07800(7) 0.28746(7) 0.69134(5)
O4M O 0.05202(8) 0.34505(11) 0.39096(5)
O4E O 0.34505(11) 0.29302(8) 0.60904(5)
O4B O -0.32162(11) -0.04031(8) 0.27571(5)
O4I O -0.04031(8) 0.28131(8) 0.72429(5)
O5M O -0.18772(8) 0.15519(13) 0.60088(5)
O5E O 0.15519(13) 0.34290(10) 0.39912(5)
O6M O -0.25103(8) 0.13011(11) 0.58576(5)
O6E O 0.13011(11) 0.38113(8) 0.41424(5)
O6O O -0.28553(8) -0.08231(8) 0.25242(5)
O6G O -0.08231(8) 0.20323(11) 0.74758(5)
O7A O 0.55537(7) 0.71465(11) 0.37041(5)
O7B O 0.28535(11) 0.84072(8) 0.37041(5)
O7M O -0.22204(7) -0.04798(11) 0.29626(5)
O7E O -0.04798(11) 0.17405(8) 0.70374(5)
O8A O 0.57115(8) 0.76717(11) 0.34321(7)
O8B O 0.23283(11) 0.80398(8) 0.34321(7)
O9B O 0.44821(11) 0.90370(8) 0.43510(6)
O9A O 0.45549(8) 0.55179(11) 0.43510(6)
O10B O 0.50093(11) 0.89538(8) 0.42689(5)
O10A O 0.39445(8) 0.49907(11) 0.42689(5)
O11D O 0.09603(8) 0.78910(11) 0.73273(5)
O11N O -0.21090(11) 0.69308(8) 0.26727(5)
O11B O 0.54423(11) 0.97359(8) 0.39940(5)
O11A O 0.42936(8) 0.45577(11) 0.39940(5)
O12D O 0.15851(8) 0.83813(11) 0.74230(5)
O12N O -0.16187(11) 0.67963(8) 0.25770(5)
O12B O 0.49520(11) 0.98704(8) 0.40897(5)
O12A O 0.49184(8) 0.50480(11) 0.40897(5)
O13D O 0.06287(10) 0.59423(13) 0.50553(5)
O13N O -0.40577(13) 0.53137(8) 0.49447(5)
O14D O 0.07742(8) 0.63731(11) 0.47042(5)
O14N O -0.36269(11) 0.55990(7) 0.52958(5)
O14C O 0.55990(7) 0.92258(8) 0.47042(5)
O14E O 0.36269(11) 0.44010(7) 0.47042(5)
O15D O 0.41665(9) 0.95842(12) 0.53167(6)
O15N O -0.04158(12) 0.54178(8) 0.46833(6)
O16D O 0.39871(8) 0.99696(11) 0.55568(5)
O16N O -0.00304(11) 0.59826(7) 0.44432(5)
O16M O 0.60129(8) 1.00304(11) 0.44432(5)
O16L O 0.40174(7) 0.39871(8) 0.44432(5)
O17M O -0.23669(8) 0.00218(11) 0.26168(5)
O17E O 0.00218(11) 0.23886(8) 0.73832(5)
O18M O -0.20810(8) 0.08139(12) 0.24421(6)
O18E O 0.08139(12) 0.28948(9) 0.75579(6)
O18B O 0.41472(12) 0.95615(9) 0.42246(6)
O18A O 0.54143(8) 0.58528(12) 0.42246(6)
O19M O -0.30573(6) -0.10247(8) 0.31311(4)
O19E O -0.10247(8) 0.20325(6) 0.68689(4)
O20M O -0.33147(9) -0.12036(13) 0.37598(6)
O20E O -0.12036(13) 0.21110(9) 0.62402(6)
O21M O -0.39368(8) -0.15560(11) 0.32827(6)
O21E O -0.15560(11) 0.23807(8) 0.67173(6)
O22M O -0.39225(9) -0.09504(12) 0.36528(5)
O22E O -0.09504(12) 0.29720(8) 0.63472(5)
O23M O -0.41082(8) -0.06605(11) 0.41364(5)
O23E O -0.06605(11) 0.34476(7) 0.58636(5)
O23N O 0.06605(11) 0.65524(7) 0.41364(5)
O23M_2 O 0.58918(8) 0.93395(11) 0.41364(5)
O23L O 0.34476(7) 0.41082(8) 0.41364(5)
O24B O 0.51903(8) 0.97059(6) 0.46299(4)
O24A O 0.45156(6) 0.48097(8) 0.46299(4)
O25B O 0.47866(11) 1.02008(8) 0.45470(5)
O25A O 0.54142(8) 0.52134(11) 0.45470(5)
O26B O 0.43016(12) 0.93627(8) 0.48068(5)
O26A O 0.50611(9) 0.56984(12) 0.48068(5)
C1M C -0.27530(12) -0.01434(17) 0.34599(8)
C1E C -0.01434(17) 0.26095(12) 0.65401(8)
C2M C -0.25139(12) 0.02095(17) 0.36539(7)
C2E C 0.02095(17) 0.27233(12) 0.63461(7)
C3M C -0.22262(13) 0.05724(19) 0.35469(8)
C3E C 0.05724(19) 0.27985(14) 0.64531(8)
H1M H -0.2184 0.0601 0.3353
H1E H 0.0601 0.2784 0.6647
C4M C -0.19971(13) 0.08986(20) 0.37214(8)
C4E C 0.08986(20) 0.28956(15) 0.62786(8)
H2M H -0.1820 0.1148 0.3643
H2E H 0.1148 0.2967 0.6357
C5M C -0.20299(12) 0.08573(18) 0.40168(7)
C5E C 0.08573(18) 0.28871(13) 0.59832(7)
C6M C -0.23332(12) 0.04922(18) 0.41200(8)
C6E C 0.04922(18) 0.28253(14) 0.58800(8)
H3M H -0.2377 0.0460 0.4314
H3E H 0.0460 0.2836 0.5686
C7M C -0.25720(13) 0.01758(19) 0.39429(8)
C7E C 0.01758(19) 0.27477(14) 0.60571(8)
H4M H -0.2776 -0.0064 0.4019
H4E H -0.0064 0.2711 0.5981
C8M C -0.17715(12) 0.12023(18) 0.42026(7)
C8E C 0.12023(18) 0.29737(13) 0.57974(7)
C9M C -0.14066(11) 0.15182(17) 0.41024(8)
C9E C 0.15182(17) 0.29247(13) 0.58976(8)
H5M H -0.1329 0.1511 0.3918
H5E H 0.1511 0.2839 0.6082
C10M C -0.11552(11) 0.18464(17) 0.42744(7)
C10E C 0.18464(17) 0.30015(13) 0.57256(7)
C11M C -0.12728(12) 0.18538(18) 0.45489(8)
C11E C 0.18538(18) 0.31265(13) 0.54511(8)
H6M H -0.1108 0.2071 0.4665
H6E H 0.2071 0.3178 0.5335
C12M C -0.16308(11) 0.15448(17) 0.46549(7)
C12E C 0.15448(17) 0.31755(13) 0.53451(7)
C13M C -0.18784(11) 0.12180(16) 0.44799(7)
C13E C 0.12180(16) 0.30963(12) 0.55201(7)
H7M H -0.2119 0.1008 0.4551
H7E H 0.1008 0.3126 0.5449
C14M C -0.07710(11) 0.21777(16) 0.41522(8)
C14E C 0.21777(16) 0.29486(12) 0.58478(8)
C15M C -0.05762(13) 0.21047(18) 0.39337(8)
C15E C 0.21047(18) 0.26808(12) 0.60663(8)
H8M H -0.0684 0.1844 0.3865
H8E H 0.1844 0.2527 0.6135
C16M C -0.02292(12) 0.24055(17) 0.38152(8)
C16E C 0.24055(17) 0.26346(12) 0.61848(8)
H9M H -0.0110 0.2349 0.3665
H9E H 0.2349 0.2458 0.6335
C17M C -0.00567(11) 0.27923(16) 0.39188(8)
C17E C 0.27923(16) 0.28489(11) 0.60812(8)
C18M C -0.02435(12) 0.28730(16) 0.41350(8)
C18E C 0.28730(16) 0.31164(11) 0.58650(8)
H10M H -0.0130 0.3135 0.4205
H10E H 0.3135 0.3264 0.5795
C19M C -0.05982(12) 0.25717(17) 0.42498(8)
C19E C 0.25717(17) 0.31698(12) 0.57502(8)
H11M H -0.0723 0.2634 0.4394
H11E H 0.2634 0.3356 0.5606
C20M C 0.03353(13) 0.31115(17) 0.37936(8)
C20E C 0.31115(17) 0.27761(11) 0.62064(8)
C21M C -0.17551(12) 0.15472(18) 0.49508(8)
C21E C 0.15472(18) 0.33022(13) 0.50492(8)
C22M C -0.14780(13) 0.17039(20) 0.51660(8)
C22E C 0.17039(20) 0.31818(15) 0.48340(8)
H12M H -0.1205 0.1826 0.5125
H12E H 0.1826 0.3030 0.4875
C23M C -0.16007(12) 0.16831(18) 0.54482(8)
C23E C 0.16831(18) 0.32837(14) 0.45518(8)
H13M H -0.1409 0.1789 0.5591
H13E H 0.1789 0.3197 0.4409
C24M C -0.19993(11) 0.15084(16) 0.55138(7)
C24E C 0.15084(16) 0.35076(12) 0.44862(7)
C25M C -0.22782(12) 0.13612(18) 0.52965(8)
C25E C 0.13612(18) 0.36393(13) 0.47035(8)
H14M H -0.2551 0.1245 0.5340
H14E H 0.1245 0.3795 0.4660
C26M C -0.21651(13) 0.13812(19) 0.50193(8)
C26E C 0.13812(19) 0.35462(14) 0.49807(8)
H15M H -0.2359 0.1286 0.4878
H15E H 0.1286 0.3644 0.5122
C27M C -0.21410(13) 0.14545(18) 0.58143(7)
C27E C 0.14545(18) 0.35954(13) 0.41857(7)
C28A C 0.54548(11) 0.73589(16) 0.35632(9)
C28B C 0.26411(16) 0.80959(12) 0.35632(9)
C29A C 0.50197(11) 0.72267(16) 0.35411(8)
C29B C 0.27733(16) 0.77930(11) 0.35411(8)
C30A C 0.47299(12) 0.68675(17) 0.36528(9)
C30B C 0.31325(17) 0.78624(12) 0.36528(9)
H16A H 0.4811 0.6710 0.3751
H16B H 0.3290 0.8101 0.3751
C31A C 0.43271(12) 0.67309(17) 0.36267(9)
C31B C 0.32691(17) 0.75962(12) 0.36267(9)
H17A H 0.4142 0.6482 0.3703
H17B H 0.3518 0.7660 0.3703
C32A C 0.41891(11) 0.69574(16) 0.34882(9)
C32B C 0.30426(16) 0.72317(12) 0.34882(9)
C33A C 0.44728(12) 0.73189(18) 0.33688(10)
C33B C 0.26811(18) 0.71539(13) 0.33688(10)
H18A H 0.4387 0.7471 0.3269
H18B H 0.2529 0.6916 0.3269
C34A C 0.48827(12) 0.74584(17) 0.33957(10)
C34B C 0.25416(17) 0.74243(12) 0.33957(10)
H19A H 0.5068 0.7705 0.3318
H19B H 0.2295 0.7363 0.3318
C35A C 0.37496(12) 0.68071(16) 0.34710(10)
C35B C 0.31929(16) 0.69425(11) 0.34710(10)
C36A C 0.36054(11) 0.70752(16) 0.34690(9)
C36B C 0.29248(16) 0.65302(12) 0.34690(9)
H20B H 0.2650 0.6438 0.3466
H20A H 0.3788 0.7350 0.3466
C37B C 0.46384(18) 0.88228(13) 0.42952(8)
C37A C 0.41844(12) 0.53616(18) 0.42952(8)
C38B C 0.43684(16) 0.83755(12) 0.42629(8)
C38A C 0.40071(11) 0.56316(16) 0.42629(8)
C39B C 0.39625(17) 0.82014(12) 0.43454(9)
C39A C 0.42389(12) 0.60375(17) 0.43454(9)
H21B H 0.3861 0.8364 0.4407
H21A H 0.4503 0.6139 0.4407
C40B C 0.37168(18) 0.77878(13) 0.43349(10)
C40A C 0.40710(12) 0.62832(18) 0.43349(10)
H22B H 0.3455 0.7675 0.4402
H22A H 0.4220 0.6545 0.4402
C41B C 0.38498(16) 0.75327(11) 0.42271(9)
C41A C 0.36829(11) 0.61502(16) 0.42271(9)
C42B C 0.42500(17) 0.77201(12) 0.41384(10)
C42A C 0.34701(12) 0.57500(17) 0.41384(10)
H23B H 0.4352 0.7564 0.4065
H23A H 0.3212 0.5648 0.4065
C43B C 0.44996(17) 0.81331(12) 0.41573(9)
C43A C 0.36335(12) 0.55004(17) 0.41573(9)
H24B H 0.4766 0.8248 0.4096
H24A H 0.3482 0.5234 0.4096
C44B C 0.35837(17) 0.70856(12) 0.42183(9)
C44A C 0.35019(12) 0.64163(17) 0.42183(9)
C45B C 0.37466(16) 0.68329(11) 0.42177(9)
C45A C 0.30863(11) 0.62534(16) 0.42177(9)
H25A H 0.2919 0.5974 0.4217
H25B H 0.4026 0.6945 0.4217
C46D C 0.13185(11) 0.81131(16) 0.72628(8)
C46N C -0.18869(16) 0.67947(12) 0.27372(8)
C47D C 0.14553(12) 0.80695(16) 0.69748(7)
C47N C -0.19305(16) 0.66143(11) 0.30252(7)
C48D C 0.11975(13) 0.78379(18) 0.67720(8)
C48N C -0.21621(18) 0.66405(13) 0.32280(8)
H26D H 0.0923 0.7699 0.6810
H26N H -0.2301 0.6777 0.3190
C49D C 0.13278(13) 0.77999(18) 0.65068(8)
C49N C -0.22001(18) 0.64722(13) 0.34932(8)
H27D H 0.1140 0.7642 0.6370
H27N H -0.2358 0.6503 0.3630
C50D C 0.17349(12) 0.79945(17) 0.64418(8)
C50N C -0.20055(17) 0.62597(12) 0.35582(8)
C51D C 0.19996(14) 0.82264(19) 0.66458(9)
C51N C -0.17736(19) 0.62269(13) 0.33542(9)
H28D H 0.2275 0.8358 0.6607
H28N H -0.1642 0.6084 0.3393
C52D C 0.18674(14) 0.82716(19) 0.69136(8)
C52N C -0.17284(19) 0.64043(13) 0.30864(8)
H29D H 0.2054 0.8435 0.7048
H29N H -0.1565 0.6382 0.2952
C53D C 0.18847(13) 0.79647(17) 0.61545(8)
C53N C -0.20353(17) 0.60801(11) 0.38455(8)
C54D C 0.16528(12) 0.76391(16) 0.59767(7)
C54N C -0.23609(16) 0.59864(11) 0.40233(7)
H30D H 0.1409 0.7429 0.6041
H30N H -0.2571 0.6021 0.3959
C55D C 0.17783(13) 0.76227(18) 0.57058(8)
C55N C -0.23773(18) 0.58445(12) 0.42942(8)
C56D C 0.21466(13) 0.79368(17) 0.56127(8)
C56N C -0.20632(17) 0.57903(11) 0.43873(8)
H31D H 0.2235 0.7926 0.5431
H31N H -0.2074 0.5692 0.4569
C57D C 0.23866(13) 0.82683(18) 0.57848(8)
C57N C -0.17317(18) 0.58818(12) 0.42152(8)
C58D C 0.22512(13) 0.82745(18) 0.60547(8)
C58N C -0.17255(18) 0.60234(12) 0.39453(8)
H32D H 0.2410 0.8492 0.6172
H32N H -0.1508 0.6083 0.3828
C59D C 0.15239(13) 0.72846(18) 0.55153(8)
C59N C -0.27154(18) 0.57608(12) 0.44847(8)
C60D C 0.12913(15) 0.68986(19) 0.56181(8)
C60N C -0.31014(19) 0.56074(12) 0.43819(8)
H33D H 0.1296 0.6851 0.5810
H33N H -0.3149 0.5556 0.4190
C61D C 0.10505(14) 0.65789(18) 0.54389(8)
C61N C -0.34211(18) 0.55285(12) 0.45611(8)
H34D H 0.0896 0.6321 0.5512
H34N H -0.3679 0.5426 0.4488
C62D C 0.10404(12) 0.66420(16) 0.51522(8)
C62N C -0.33580(16) 0.56017(11) 0.48478(8)
C63D C 0.12635(13) 0.70290(18) 0.50497(8)
C63N C -0.29710(18) 0.57656(12) 0.49503(8)
H35D H 0.1255 0.7078 0.4858
H35N H -0.2922 0.5824 0.5142
C64D C 0.15019(13) 0.73470(18) 0.52283(8)
C64N C -0.26530(18) 0.58452(12) 0.47717(8)
H36D H 0.1651 0.7607 0.5154
H36N H -0.2393 0.5957 0.4846
C65D C 0.07937(12) 0.62966(17) 0.49564(8)
C65N C -0.37034(17) 0.55030(12) 0.50436(8)
C66D C 0.27703(13) 0.86094(18) 0.56872(8)
C66N C -0.13906(18) 0.58392(12) 0.43128(8)
C67D C 0.30266(14) 0.85752(18) 0.54942(9)
C67N C -0.14248(18) 0.55487(12) 0.45058(9)
H37D H 0.2949 0.8324 0.5415
H37N H -0.1676 0.5376 0.4585
C68D C 0.33917(14) 0.89004(18) 0.54153(9)
C68N C -0.10996(18) 0.55088(12) 0.45847(9)
H38D H 0.3559 0.8866 0.5289
H38N H -0.1134 0.5308 0.4711
C69D C 0.35056(13) 0.92742(17) 0.55228(8)
C69N C -0.07258(17) 0.57687(11) 0.44772(8)
C70D C 0.32477(13) 0.93228(18) 0.57038(9)
C70N C -0.06772(18) 0.60752(13) 0.42962(9)
H39D H 0.3316 0.9578 0.5770
H39N H -0.0422 0.6263 0.4230
C71D C 0.28962(14) 0.89951(19) 0.57828(9)
C71N C -0.10049(19) 0.60990(13) 0.42172(9)
H40D H 0.2731 0.9032 0.5908
H40N H -0.0968 0.6302 0.4092
C72D C 0.39150(13) 0.96393(18) 0.54584(8)
C72N C -0.03607(18) 0.57244(12) 0.45416(8)
C73M C -0.19866(12) 0.03474(18) 0.27215(9)
C73E C 0.03474(18) 0.23339(13) 0.72785(9)
H41M H -0.1937 0.0285 0.2911
H41E H 0.0285 0.2221 0.7089
H42M H -0.1768 0.0381 0.2601
H42E H 0.0381 0.2148 0.7399
C74M C -0.20076(14) 0.07184(20) 0.27253(8)
C74E C 0.07184(20) 0.27259(14) 0.72747(8)
H43M H -0.1757 0.0938 0.2797
H43E H 0.0938 0.2694 0.7203
H44M H -0.2223 0.0686 0.2850
H44E H 0.0686 0.2908 0.7150
C75M C -0.24621(12) 0.04916(18) 0.23409(9)
C75E C 0.04916(18) 0.29536(13) 0.76591(9)
H45M H -0.2679 0.0467 0.2461
H45E H 0.0467 0.3145 0.7539
H46M H -0.2511 0.0551 0.2151
H46E H 0.0551 0.3061 0.7849
C76M C -0.24536(14) 0.01076(20) 0.23426(8)
C76E C 0.01076(20) 0.25611(14) 0.76574(8)
H47M H -0.2250 0.0128 0.2212
H47E H 0.0128 0.2377 0.7788
H48M H -0.2713 -0.0111 0.2281
H48E H -0.0111 0.2601 0.7719
C77M C -0.39460(14) -0.05803(19) 0.36491(9)
C77E C -0.05803(19) 0.33656(13) 0.63509(9)
H49M H -0.3765 -0.0397 0.3508
H49E H -0.0397 0.3367 0.6492
H50M H -0.4218 -0.0643 0.3603
H50E H -0.0643 0.3574 0.6397
C78M C -0.38344(12) -0.03899(18) 0.39289(8)
C78E C -0.03899(18) 0.34444(13) 0.60711(8)
H51M H -0.3845 -0.0142 0.3928
H51E H -0.0142 0.3702 0.6072
H52M H -0.3562 -0.0324 0.3975
H52E H -0.0324 0.3237 0.6025
C79M C -0.40996(14) -0.10292(18) 0.41455(9)
C79E C -0.10292(18) 0.30703(12) 0.58545(9)
H53M H -0.3834 -0.0975 0.4203
H53E H -0.0975 0.2858 0.5797
H54M H -0.4294 -0.1210 0.4283
H54E H -0.1210 0.3083 0.5717
C80M C -0.41991(13) -0.12200(18) 0.38612(9)
C80E C -0.12200(18) 0.29790(13) 0.61388(9)
H55M H -0.4472 -0.1289 0.3811
H55E H -0.1289 0.3182 0.6189
H56M H -0.4186 -0.1466 0.3866
H56E H -0.1466 0.2719 0.6134
loop_
_geom_bond_atom_site_label_1
_geom_bond_atom_site_label_2
_geom_bond_site_symmetry_1
_geom_bond_site_symmetry_2
Mg1 O1 1_555 1_555
Mg2 O2 1_555 1_555
Mg3 O10 1_555 1_555
Mg4 O9 1_555 1_555
O1 C1 1_555 1_555
O2 C1 1_555 1_555
O3 C20 1_555 1_555
O4 C20 1_555 1_555
O5 C27 1_555 1_555
O6 C27 1_555 1_555
O7 Mg1 1_555 1_555
O8 C28 1_555 1_555
O9 C37 1_555 1_555
O10 C37 1_555 1_555
O11 Mg3 1_555 1_555
O12 Mg4 1_555 1_555
O13 C65 1_555 1_555
O14 C65 1_555 1_555
O15 C72 1_555 1_555
O16 C72 1_555 1_555
O17 Mg1 1_555 1_555
O18 Mg4 1_555 1_555
O19 Mg1 1_555 1_555
O20 Mg2 1_555 1_555
O21 Mg2 1_555 1_555
O22 Mg2 1_555 1_555
O23 C78 1_555 1_555
O24 Mg3 1_555 1_555
O25 Mg4 1_555 1_555
O26 Mg4 1_555 1_555
C1 C2 1_555 1_555
C2 C3 1_555 1_555
C3 H1 1_555 1_555
C4 C3 1_555 1_555
H2 C4 1_555 1_555
C5 C4 1_555 1_555
C6 C5 1_555 1_555
H3 C6 1_555 1_555
C7 C2 1_555 1_555
H4 C7 1_555 1_555
C8 C5 1_555 1_555
C9 C8 1_555 1_555
H5 C9 1_555 1_555
C10 C9 1_555 1_555
C11 C10 1_555 1_555
H6 C11 1_555 1_555
C12 C11 1_555 1_555
C13 C8 1_555 1_555
H7 C13 1_555 1_555
C14 C10 1_555 1_555
C15 C14 1_555 1_555
H8 C15 1_555 1_555
C16 C15 1_555 1_555
H9 C16 1_555 1_555
C17 C16 1_555 1_555
C18 C17 1_555 1_555
H10 C18 1_555 1_555
C19 C14 1_555 1_555
H11 C19 1_555 1_555
C20 C17 1_555 1_555
C21 C12 1_555 1_555
C22 C21 1_555 1_555
H12 C22 1_555 1_555
C23 C22 1_555 1_555
H13 C23 1_555 1_555
C24 C23 1_555 1_555
C25 C24 1_555 1_555
H14 C25 1_555 1_555
C26 C21 1_555 1_555
H15 C26 1_555 1_555
C27 C24 1_555 1_555
C28 O7 1_555 1_555
C29 C28 1_555 1_555
C30 C29 1_555 1_555
H16 C30 1_555 1_555
C31 C30 1_555 1_555
H17 C31 1_555 1_555
C32 C31 1_555 1_555
C33 C32 1_555 1_555
H18 C33 1_555 1_555
C34 C29 1_555 1_555
H19 C34 1_555 1_555
C35 C32 1_555 1_555
C36 C35 1_555 1_555
H20 C36 1_555 1_555
C37 C38 1_555 1_555
C38 C39 1_555 1_555
C39 H21 1_555 1_555
C40 C39 1_555 1_555
H22 C40 1_555 1_555
C41 C40 1_555 1_555
C42 C41 1_555 1_555
H23 C42 1_555 1_555
C43 C38 1_555 1_555
H24 C43 1_555 1_555
C44 C41 1_555 1_555
C45 C44 1_555 1_555
H25 C45 1_555 1_555
C46 O11 1_555 1_555
C47 C46 1_555 1_555
C48 C47 1_555 1_555
H26 C48 1_555 1_555
C49 C48 1_555 1_555
H27 C49 1_555 1_555
C50 C49 1_555 1_555
C51 C50 1_555 1_555
H28 C51 1_555 1_555
C52 C47 1_555 1_555
H29 C52 1_555 1_555
C53 C50 1_555 1_555
C54 C53 1_555 1_555
H30 C54 1_555 1_555
C55 C54 1_555 1_555
C56 C55 1_555 1_555
H31 C56 1_555 1_555
C57 C56 1_555 1_555
C58 C53 1_555 1_555
H32 C58 1_555 1_555
C59 C55 1_555 1_555
C60 C59 1_555 1_555
H33 C60 1_555 1_555
C61 C60 1_555 1_555
H34 C61 1_555 1_555
C62 C61 1_555 1_555
C63 C62 1_555 1_555
H35 C63 1_555 1_555
C64 C59 1_555 1_555
H36 C64 1_555 1_555
C65 C62 1_555 1_555
C66 C57 1_555 1_555
C67 C66 1_555 1_555
H37 C67 1_555 1_555
C68 C67 1_555 1_555
H38 C68 1_555 1_555
C69 C68 1_555 1_555
C70 C69 1_555 1_555
H39 C70 1_555 1_555
C71 C66 1_555 1_555
H40 C71 1_555 1_555
C72 C69 1_555 1_555
C73 O17 1_555 1_555
H41 C73 1_555 1_555
H42 C73 1_555 1_555
C74 O18 1_555 1_555
H43 C74 1_555 1_555
H44 C74 1_555 1_555
C75 O18 1_555 1_555
H45 C75 1_555 1_555
H46 C75 1_555 1_555
C76 O17 1_555 1_555
H47 C76 1_555 1_555
H48 C76 1_555 1_555
C77 O22 1_555 1_555
H49 C77 1_555 1_555
H50 C77 1_555 1_555
C78 C77 1_555 1_555
H51 C78 1_555 1_555
H52 C78 1_555 1_555
C79 O23 1_555 1_555
H53 C79 1_555 1_555
H54 C79 1_555 1_555
C80 O22 1_555 1_555
H55 C80 1_555 1_555
H56 C80 1_555 1_555
Mg1M O1M 1_555 1_555
Mg1E O1E 1_555 1_555
Mg1N O4 1_555 1_555
Mg1G O6 1_555 1_555
Mg1A O7A 1_555 1_555
Mg1B O7B 1_555 1_555
Mg1K O6M 1_555 1_555
Mg1J O4E 1_555 1_555
Mg2M O2M 1_555 1_555
Mg2E O2E 1_555 1_555
Mg2N O3 1_555 1_555
Mg2J O3E 1_555 1_555
Mg3B O10B 1_555 1_555
Mg3A O10A 1_555 1_555
Mg3H O14 1_555 1_555
Mg3M O16 1_555 1_555
Mg3B_2 O23M 1_555 1_555
Mg3I O23E 1_555 1_555
Mg3D O11D 1_555 1_555
Mg3K O16D 1_555 1_555
Mg3N O11N 1_555 1_555
Mg3J O14N 1_555 1_555
Mg4B O9B 1_555 1_555
Mg4A O9A 1_555 1_555
Mg4M O18M 1_555 1_555
Mg4E O18E 1_555 1_555
Mg4D O12D 1_555 1_555
Mg4N O12N 1_555 1_555
O1M C1M 1_555 1_555
O1E C1E 1_555 1_555
O2M C1M 1_555 1_555
O2E C1E 1_555 1_555
O3M Mg2 1_555 1_555
O3E C20E 1_555 1_555
O3B Mg2M 1_555 1_555
O3I Mg2E 1_555 1_555
O4M Mg1 1_555 1_555
O4E C20E 1_555 1_555
O4B Mg1M 1_555 1_555
O4I Mg1E 1_555 1_555
O5M C27M 1_555 1_555
O5E C27E 1_555 1_555
O6M C27M 1_555 1_555
O6E Mg1 1_555 1_555
O6O Mg1M 1_555 1_555
O6G Mg1E 1_555 1_555
O7A C28A 1_555 1_555
O7B C28B 1_555 1_555
O7M Mg1M 1_555 1_555
O7E Mg1E 1_555 1_555
O8A C28A 1_555 1_555
O8B C28B 1_555 1_555
O9B C37B 1_555 1_555
O9A C37A 1_555 1_555
O10B C37B 1_555 1_555
O10A C37A 1_555 1_555
O11D C46D 1_555 1_555
O11N C46N 1_555 1_555
O11B Mg3B 1_555 1_555
O11A Mg3A 1_555 1_555
O12D C46D 1_555 1_555
O12N C46N 1_555 1_555
O12B Mg4B 1_555 1_555
O12A Mg4A 1_555 1_555
O13D C65D 1_555 1_555
O13N C65N 1_555 1_555
O14D Mg3 1_555 1_555
O14N C65N 1_555 1_555
O14C Mg3B 1_555 1_555
O14E Mg3A 1_555 1_555
O15D C72D 1_555 1_555
O15N C72N 1_555 1_555
O16D C72D 1_555 1_555
O16N Mg3 1_555 1_555
O16M Mg3B 1_555 1_555
O16L Mg3A 1_555 1_555
O17M Mg1M 1_555 1_555
O17E Mg1E 1_555 1_555
O18M C74M 1_555 1_555
O18E C74E 1_555 1_555
O18B Mg4B 1_555 1_555
O18A Mg4A 1_555 1_555
O19M Mg1M 1_555 1_555
O19E Mg1E 1_555 1_555
O20M Mg2M 1_555 1_555
O20E Mg2E 1_555 1_555
O21M Mg2M 1_555 1_555
O21E Mg2E 1_555 1_555
O22M Mg2M 1_555 1_555
O22E Mg2E 1_555 1_555
O23M C78M 1_555 1_555
O23E C78E 1_555 1_555
O23N Mg3 1_555 1_555
O23M_2 Mg3B 1_555 1_555
O23L Mg3A 1_555 1_555
O24B Mg3B 1_555 1_555
O24A Mg3A 1_555 1_555
O25B Mg4B 1_555 1_555
O25A Mg4A 1_555 1_555
O26B Mg4B 1_555 1_555
O26A Mg4A 1_555 1_555
C1M C2M 1_555 1_555
C1E C2E 1_555 1_555
C2M C3M 1_555 1_555
C2E C3E 1_555 1_555
C3M H1M 1_555 1_555
C3E H1E 1_555 1_555
C4M C3M 1_555 1_555
C4E C3E 1_555 1_555
H2M C4M 1_555 1_555
H2E C4E 1_555 1_555
C5M C4M 1_555 1_555
C5E C4E 1_555 1_555
C6M C5M 1_555 1_555
C6E C5E 1_555 1_555
H3M C6M 1_555 1_555
H3E C6E 1_555 1_555
C7M C2M 1_555 1_555
C7E C2E 1_555 1_555
H4M C7M 1_555 1_555
H4E C7E 1_555 1_555
C8M C5M 1_555 1_555
C8E C5E 1_555 1_555
C9M C8M 1_555 1_555
C9E C8E 1_555 1_555
H5M C9M 1_555 1_555
H5E C9E 1_555 1_555
C10M C9M 1_555 1_555
C10E C9E 1_555 1_555
C11M C10M 1_555 1_555
C11E C10E 1_555 1_555
H6M C11M 1_555 1_555
H6E C11E 1_555 1_555
C12M C11M 1_555 1_555
C12E C11E 1_555 1_555
C13M C8M 1_555 1_555
C13E C8E 1_555 1_555
H7M C13M 1_555 1_555
H7E C13E 1_555 1_555
C14M C10M 1_555 1_555
C14E C10E 1_555 1_555
C15M C14M 1_555 1_555
C15E C14E 1_555 1_555
H8M C15M 1_555 1_555
H8E C15E 1_555 1_555
C16M C15M 1_555 1_555
C16E C15E 1_555 1_555
H9M C16M 1_555 1_555
H9E C16E 1_555 1_555
C17M C16M 1_555 1_555
C17E C16E 1_555 1_555
C18M C17M 1_555 1_555
C18E C17E 1_555 1_555
H10M C18M 1_555 1_555
H10E C18E 1_555 1_555
C19M C14M 1_555 1_555
C19E C14E 1_555 1_555
H11M C19M 1_555 1_555
H11E C19E 1_555 1_555
C20M O3M 1_555 1_555
C20E C17E 1_555 1_555
C21M C12M 1_555 1_555
C21E C12E 1_555 1_555
C22M C21M 1_555 1_555
C22E C21E 1_555 1_555
H12M C22M 1_555 1_555
H12E C22E 1_555 1_555
C23M C22M 1_555 1_555
C23E C22E 1_555 1_555
H13M C23M 1_555 1_555
H13E C23E 1_555 1_555
C24M C23M 1_555 1_555
C24E C23E 1_555 1_555
C25M C24M 1_555 1_555
C25E C24E 1_555 1_555
H14M C25M 1_555 1_555
H14E C25E 1_555 1_555
C26M C21M 1_555 1_555
C26E C21E 1_555 1_555
H15M C26M 1_555 1_555
H15E C26E 1_555 1_555
C27M C24M 1_555 1_555
C27E O6E 1_555 1_555
C28A C29A 1_555 1_555
C28B C29B 1_555 1_555
C29A C30A 1_555 1_555
C29B C30B 1_555 1_555
C30A H16A 1_555 1_555
C30B H16B 1_555 1_555
C31A C30A 1_555 1_555
C31B C30B 1_555 1_555
H17A C31A 1_555 1_555
H17B C31B 1_555 1_555
C32A C31A 1_555 1_555
C32B C31B 1_555 1_555
C33A C32A 1_555 1_555
C33B C32B 1_555 1_555
H18A C33A 1_555 1_555
H18B C33B 1_555 1_555
C34A C29A 1_555 1_555
C34B C29B 1_555 1_555
H19A C34A 1_555 1_555
H19B C34B 1_555 1_555
C35A C36 1_555 1_555
C35B C32B 1_555 1_555
C36A C35A 1_555 1_555
C36B C35 1_555 1_555
H20B C36B 1_555 1_555
H20A C36A 1_555 1_555
C37B C38B 1_555 1_555
C37A C38A 1_555 1_555
C38B C39B 1_555 1_555
C38A C39A 1_555 1_555
C39B H21B 1_555 1_555
C39A H21A 1_555 1_555
C40B C39B 1_555 1_555
C40A C39A 1_555 1_555
H22B C40B 1_555 1_555
H22A C40A 1_555 1_555
C41B C40B 1_555 1_555
C41A C40A 1_555 1_555
C42B C41B 1_555 1_555
C42A C41A 1_555 1_555
H23B C42B 1_555 1_555
H23A C42A 1_555 1_555
C43B C38B 1_555 1_555
C43A C38A 1_555 1_555
H24B C43B 1_555 1_555
H24A C43A 1_555 1_555
C44B C45 1_555 1_555
C44A C41A 1_555 1_555
C45B C44B 1_555 1_555
C45A C44 1_555 1_555
H25A C45A 1_555 1_555
H25B C45B 1_555 1_555
C46D C47D 1_555 1_555
C46N C47N 1_555 1_555
C47D C48D 1_555 1_555
C47N C48N 1_555 1_555
C48D H26D 1_555 1_555
C48N H26N 1_555 1_555
C49D C48D 1_555 1_555
C49N C48N 1_555 1_555
H27D C49D 1_555 1_555
H27N C49N 1_555 1_555
C50D C49D 1_555 1_555
C50N C49N 1_555 1_555
C51D C50D 1_555 1_555
C51N C50N 1_555 1_555
H28D C51D 1_555 1_555
H28N C51N 1_555 1_555
C52D C47D 1_555 1_555
C52N C47N 1_555 1_555
H29D C52D 1_555 1_555
H29N C52N 1_555 1_555
C53D C50D 1_555 1_555
C53N C50N 1_555 1_555
C54D C53D 1_555 1_555
C54N C53N 1_555 1_555
H30D C54D 1_555 1_555
H30N C54N 1_555 1_555
C55D C54D 1_555 1_555
C55N C54N 1_555 1_555
C56D C55D 1_555 1_555
C56N C55N 1_555 1_555
H31D C56D 1_555 1_555
H31N C56N 1_555 1_555
C57D C56D 1_555 1_555
C57N C56N 1_555 1_555
C58D C53D 1_555 1_555
C58N C53N 1_555 1_555
H32D C58D 1_555 1_555
H32N C58N 1_555 1_555
C59D C55D 1_555 1_555
C59N C55N 1_555 1_555
C60D C59D 1_555 1_555
C60N C59N 1_555 1_555
H33D C60D 1_555 1_555
H33N C60N 1_555 1_555
C61D C60D 1_555 1_555
C61N C60N 1_555 1_555
H34D C61D 1_555 1_555
H34N C61N 1_555 1_555
C62D C61D 1_555 1_555
C62N C61N 1_555 1_555
C63D C62D 1_555 1_555
C63N C62N 1_555 1_555
H35D C63D 1_555 1_555
H35N C63N 1_555 1_555
C64D C59D 1_555 1_555
C64N C59N 1_555 1_555
H36D C64D 1_555 1_555
H36N C64N 1_555 1_555
C65D O14D 1_555 1_555
C65N C62N 1_555 1_555
C66D C57D 1_555 1_555
C66N C57N 1_555 1_555
C67D C66D 1_555 1_555
C67N C66N 1_555 1_555
H37D C67D 1_555 1_555
H37N C67N 1_555 1_555
C68D C67D 1_555 1_555
C68N C67N 1_555 1_555
H38D C68D 1_555 1_555
H38N C68N 1_555 1_555
C69D C68D 1_555 1_555
C69N C68N 1_555 1_555
C70D C69D 1_555 1_555
C70N C69N 1_555 1_555
H39D C70D 1_555 1_555
H39N C70N 1_555 1_555
C71D C66D 1_555 1_555
C71N C66N 1_555 1_555
H40D C71D 1_555 1_555
H40N C71N 1_555 1_555
C72D C69D 1_555 1_555
C72N O16N 1_555 1_555
C73M O17M 1_555 1_555
C73E O17E 1_555 1_555
H41M C73M 1_555 1_555
H41E C73E 1_555 1_555
H42M C73M 1_555 1_555
H42E C73E 1_555 1_555
C74M C73M 1_555 1_555
C74E C73E 1_555 1_555
H43M C74M 1_555 1_555
H43E C74E 1_555 1_555
H44M C74M 1_555 1_555
H44E C74E 1_555 1_555
C75M O18M 1_555 1_555
C75E O18E 1_555 1_555
H45M C75M 1_555 1_555
H45E C75E 1_555 1_555
H46M C75M 1_555 1_555
H46E C75E 1_555 1_555
C76M O17M 1_555 1_555
C76E O17E 1_555 1_555
H47M C76M 1_555 1_555
H47E C76E 1_555 1_555
H48M C76M 1_555 1_555
H48E C76E 1_555 1_555
C77M O22M 1_555 1_555
C77E O22E 1_555 1_555
H49M C77M 1_555 1_555
H49E C77E 1_555 1_555
H50M C77M 1_555 1_555
H50E C77E 1_555 1_555
C78M C77M 1_555 1_555
C78E C77E 1_555 1_555
H51M C78M 1_555 1_555
H51E C78E 1_555 1_555
H52M C78M 1_555 1_555
H52E C78E 1_555 1_555
C79M O23M 1_555 1_555
C79E O23E 1_555 1_555
H53M C79M 1_555 1_555
H53E C79E 1_555 1_555
H54M C79M 1_555 1_555
H54E C79E 1_555 1_555
C80M O22M 1_555 1_555
C80E O22E 1_555 1_555
H55M C80M 1_555 1_555
H55E C80E 1_555 1_555
H56M C80M 1_555 1_555
H56E C80E 1_555 1_555
Mg2 O19 1_555 1_555
Mg4 O24 1_555 1_555
O12 C46 1_555 1_555
O23 Mg3M 1_555 1_555
C6 C7 1_555 1_555
C12 C13 1_555 1_555
C18 C19 1_555 1_555
C25 C26 1_555 1_555
C33 C34 1_555 1_555
C42 C43 1_555 1_555
C51 C52 1_555 1_555
C57 C58 1_555 1_555
C63 C64 1_555 1_555
C70 C71 1_555 1_555
C73 C74 1_555 1_555
C75 C76 1_555 1_555
C79 C80 1_555 1_555
Mg2M O19M 1_555 1_555
Mg2E O19E 1_555 1_555
Mg4B O24B 1_555 1_555
Mg4A O24A 1_555 1_555
O4M C20M 1_555 1_555
C6M C7M 1_555 1_555
C6E C7E 1_555 1_555
C12M C13M 1_555 1_555
C12E C13E 1_555 1_555
C17M C20M 1_555 1_555
C18M C19M 1_555 1_555
C18E C19E 1_555 1_555
C24E C27E 1_555 1_555
C25M C26M 1_555 1_555
C25E C26E 1_555 1_555
C32A C35A 1_555 1_555
C33A C34A 1_555 1_555
C33B C34B 1_555 1_555
C35B C36A 1_555 1_555
C35B C36B 1_555 1_555
C41B C44B 1_555 1_555
C42B C43B 1_555 1_555
C42A C43A 1_555 1_555
C44A C45B 1_555 1_555
C44A C45A 1_555 1_555
C51D C52D 1_555 1_555
C51N C52N 1_555 1_555
C57D C58D 1_555 1_555
C57N C58N 1_555 1_555
C62D C65D 1_555 1_555
C63D C64D 1_555 1_555
C63N C64N 1_555 1_555
C69N C72N 1_555 1_555
C70D C71D 1_555 1_555
C70N C71N 1_555 1_555
C75M C76M 1_555 1_555
C75E C76E 1_555 1_555
C79M C80M 1_555 1_555
C79E C80E 1_555 1_555

#END
