
#######################################################################
#
#                 Cambridge Crystallographic Data Centre
#                                CCDC 
#
#######################################################################
#
# If this CIF has been generated from an entry in the Cambridge 
# Structural Database, then it will include bibliographic, chemical, 
# crystal, experimental, refinement or atomic coordinate data resulting 
# from the CCDC's data processing and validation procedures.
#
#######################################################################

data_XOPYAD
_symmetry_cell_setting           monoclinic
_symmetry_space_group_name_H-M   'C 2/c'
_symmetry_Int_Tables_number      15
_space_group_name_Hall           '-C 2yn'
loop_
_symmetry_equiv_pos_site_id
_symmetry_equiv_pos_as_xyz
1 x,y,z
2 1/2+x,1/2+y,z
3 -x,y,1/2-z
4 1/2-x,1/2+y,1/2-z
5 -x,-y,-z
6 1/2-x,1/2-y,-z
7 x,-y,1/2+z
8 1/2+x,1/2-y,1/2+z
_cell_length_a                   21.5639(14)
_cell_length_b                   15.2134(10)
_cell_length_c                   14.3946(10)
_cell_angle_alpha                90
_cell_angle_beta                 123.3460(10)
_cell_angle_gamma                90
_cell_volume                     3944.85
loop_
_atom_site_label
_atom_site_type_symbol
_atom_site_fract_x
_atom_site_fract_y
_atom_site_fract_z
C1 C 0.12399(10) 0.32065(11) 0.40542(14)
H1 H 0.0868 0.3101 0.4241
H2 H 0.1716 0.2943 0.4647
C2 C 0.13384(9) 0.41840(11) 0.39940(13)
C3 C 0.26900(10) 0.39595(14) 0.49400(15)
H3 H 0.2885 0.3857 0.5727
H4 H 0.3066 0.4262 0.4875
H5 H 0.2567 0.3395 0.4549
C4 C 0.21450(10) 0.54478(13) 0.44800(16)
H6 H 0.1666 0.5754 0.4087
H7 H 0.2410 0.5580 0.4120
H8 H 0.2442 0.5645 0.5256
C5 C 0.13457(9) 0.56583(11) 0.15407(13)
C6 C 0.26761(9) 0.53298(11) 0.23568(13)
C7 C 0.34330(9) 0.52245(12) 0.28051(14)
H9 H 0.3737 0.5712 0.2896
C8 C 0.37259(10) 0.43880(12) 0.31124(15)
H10 H 0.4240 0.4299 0.3422
C9 C 0.32787(10) 0.36689(12) 0.29756(14)
H11 H 0.3494 0.3101 0.3203
C10 C 0.25290(10) 0.37734(11) 0.25155(14)
H12 H 0.2228 0.3280 0.2413
C11 C 0.22157(9) 0.46120(11) 0.22004(13)
C12 C -0.10145(11) 0.78073(12) 0.15739(17)
H13 H -0.0679 0.7870 0.2391
H14 H -0.1534 0.7810 0.1371
C13 C -0.08898(14) 0.85422(16) 0.0992(2)
H15 H -0.0389 0.8802 0.1478
H16 H -0.1267 0.9010 0.0754
C14 C -0.09672(18) 0.8081(2) -0.0019(3)
H17 H -0.1359 0.8361 -0.0722
H18 H -0.0493 0.8098 0.0024
C15 C -0.11724(13) 0.71604(17) 0.00525(17)
H19 H -0.1718 0.7089 -0.0382
H20 H -0.0963 0.6742 -0.0232
Fe1 Fe 0.0000 0.17945(2) 0.2500
N1 N 0.02702(8) 0.11827(10) 0.36396(13)
N2 N 0.20213(7) 0.45033(10) 0.44455(11)
N3 N 0.14712(8) 0.48141(9) 0.17383(11)
Na1 Na 0.02782(4) 0.42930(4) 0.13784(5)
Na2 Na 0.0000 0.59850(6) 0.2500
O1 O 0.03919(9) 0.06072(10) 0.42587(12)
O2 O 0.07730(6) 0.46641(8) 0.35134(9)
O3 O -0.08595(7) 0.70177(8) 0.12113(10)
S1 S 0.09311(2) 0.26852(3) 0.27110(4)
S2 S 0.05043(2) 0.61765(3) 0.09826(3)
S3 S 0.21437(2) 0.62843(3) 0.19185(4)
C1B C -0.12399(10) 0.32065(11) 0.09458(14)
H1B H -0.0868 0.3101 0.0759
H2B H -0.1716 0.2943 0.0353
C2B C -0.13384(9) 0.41840(11) 0.10060(13)
C3B C -0.26900(10) 0.39595(14) 0.00600(15)
H3B H -0.2885 0.3857 -0.0727
H4B H -0.3066 0.4262 0.0125
H5B H -0.2567 0.3395 0.0451
C4B C -0.21450(10) 0.54478(13) 0.05200(16)
H6B H -0.1666 0.5754 0.0913
H7B H -0.2410 0.5580 0.0880
H8B H -0.2442 0.5645 -0.0256
C5D C -0.13457(9) 0.43417(11) -0.15407(13)
C6D C -0.26761(9) 0.46702(11) -0.23568(13)
C7D C -0.34330(9) 0.47755(12) -0.28051(14)
H9D H -0.3737 0.4288 -0.2896
C8D C -0.37259(10) 0.56120(12) -0.31124(15)
H10D H -0.4240 0.5701 -0.3422
C9D C -0.32787(10) 0.63311(12) -0.29756(14)
H11D H -0.3494 0.6899 -0.3203
C10D C -0.25290(10) 0.62266(11) -0.25155(14)
H12D H -0.2228 0.6720 -0.2413
C11D C -0.22157(9) 0.53880(11) -0.22004(13)
C12B C 0.10145(11) 0.78073(12) 0.34261(17)
H13B H 0.0679 0.7870 0.2609
H14B H 0.1534 0.7810 0.3629
C13B C 0.08898(14) 0.85422(16) 0.4008(2)
H15B H 0.0389 0.8802 0.3522
H16B H 0.1267 0.9010 0.4246
C14B C 0.09672(18) 0.8081(2) 0.5019(3)
H17B H 0.1359 0.8361 0.5722
H18B H 0.0493 0.8098 0.4976
C15B C 0.11724(13) 0.71604(17) 0.49475(17)
H19B H 0.1718 0.7089 0.5382
H20B H 0.0963 0.6742 0.5232
N1B N -0.02702(8) 0.11827(10) 0.13604(13)
N2B N -0.20213(7) 0.45033(10) 0.05545(11)
N3D N -0.14712(8) 0.51859(9) -0.17383(11)
N3B N -0.14712(8) 0.48141(9) 0.32617(11)
Na1B Na -0.02782(4) 0.42930(4) 0.36216(5)
Na1D Na -0.02782(4) 0.57070(4) -0.13784(5)
Na2F Na 0.0000 0.40150(6) -0.2500
O1B O -0.03919(9) 0.06072(10) 0.07413(12)
O2B O -0.07730(6) 0.46641(8) 0.14866(9)
O3B O 0.08595(7) 0.70177(8) 0.37887(10)
S1B S -0.09311(2) 0.26852(3) 0.22890(4)
S2D S -0.05043(2) 0.38235(3) -0.09826(3)
S2B S -0.05043(2) 0.61765(3) 0.40174(3)
S2F S 0.05043(2) 0.38235(3) 0.59826(3)
S3D S -0.21437(2) 0.37157(3) -0.19185(4)
loop_
_geom_bond_atom_site_label_1
_geom_bond_atom_site_label_2
_geom_bond_site_symmetry_1
_geom_bond_site_symmetry_2
C1 H1 1_555 1_555
H2 C1 1_555 1_555
C2 C1 1_555 1_555
C3 H3 1_555 1_555
H4 C3 1_555 1_555
H5 C3 1_555 1_555
C4 H6 1_555 1_555
H7 C4 1_555 1_555
H8 C4 1_555 1_555
C5 N3 1_555 1_555
C6 C7 1_555 1_555
C7 H9 1_555 1_555
C8 C7 1_555 1_555
H10 C8 1_555 1_555
C9 C8 1_555 1_555
H11 C9 1_555 1_555
C10 C9 1_555 1_555
H12 C10 1_555 1_555
C11 C6 1_555 1_555
C12 H13 1_555 1_555
H14 C12 1_555 1_555
C13 C12 1_555 1_555
H15 C13 1_555 1_555
H16 C13 1_555 1_555
C14 C13 1_555 1_555
H17 C14 1_555 1_555
H18 C14 1_555 1_555
C15 C14 1_555 1_555
H19 C15 1_555 1_555
H20 C15 1_555 1_555
Fe1 N1 1_555 1_555
N1 O1 1_555 1_555
N2 C2 1_555 1_555
N3 C11 1_555 1_555
Na1 N3 1_555 1_555
Na2 O2 1_555 1_555
O2 C2 1_555 1_555
O3 C12 1_555 1_555
S1 C1 1_555 1_555
S2 C5 1_555 1_555
S3 C5 1_555 1_555
C1B H1B 1_555 1_555
H2B C1B 1_555 1_555
C2B C1B 1_555 1_555
C3B H3B 1_555 1_555
H4B C3B 1_555 1_555
H5B C3B 1_555 1_555
C4B H6B 1_555 1_555
H7B C4B 1_555 1_555
H8B C4B 1_555 1_555
C5D N3D 1_555 1_555
C6D C7D 1_555 1_555
C7D H9D 1_555 1_555
C8D C7D 1_555 1_555
H10D C8D 1_555 1_555
C9D C8D 1_555 1_555
H11D C9D 1_555 1_555
C10D C9D 1_555 1_555
H12D C10D 1_555 1_555
C11D C6D 1_555 1_555
C12B H13B 1_555 1_555
H14B C12B 1_555 1_555
C13B C12B 1_555 1_555
H15B C13B 1_555 1_555
H16B C13B 1_555 1_555
C14B C13B 1_555 1_555
H17B C14B 1_555 1_555
H18B C14B 1_555 1_555
C15B C14B 1_555 1_555
H19B C15B 1_555 1_555
H20B C15B 1_555 1_555
N1B Fe1 1_555 1_555
N2B C2B 1_555 1_555
N3D C11D 1_555 1_555
N3B Na1B 1_555 1_555
Na1B O2 1_555 1_555
Na1D S2 1_555 1_555
Na2F S2D 1_555 1_555
O1B N1B 1_555 1_555
O2B Na1 1_555 1_555
O3B Na2 1_555 1_555
S1B Fe1 1_555 1_555
S2D Na1 1_555 1_555
S2B Na2 1_555 1_555
S2F Na1B 1_555 1_555
S3D C5D 1_555 1_555
C3 N2 1_555 1_555
C4 N2 1_555 1_555
C6 S3 1_555 1_555
C10 C11 1_555 1_555
C15 O3 1_555 1_555
Fe1 S1 1_555 1_555
Na1 O2 1_555 1_555
Na1 S1 1_555 1_555
Na1 S2 1_555 1_555
Na2 O3 1_555 1_555
Na2 S2 1_555 1_555
Na2 O2B 1_555 1_555
C1B S1B 1_555 1_555
C2B O2B 1_555 1_555
C3B N2B 1_555 1_555
C4B N2B 1_555 1_555
C5D S2D 1_555 1_555
C6D S3D 1_555 1_555
C10D C11D 1_555 1_555
C12B O3B 1_555 1_555
C15B O3B 1_555 1_555
N3D Na1D 1_555 1_555
Na1B O2B 1_555 1_555
Na1B S1B 1_555 1_555
Na1B S2B 1_555 1_555
Na1D S2D 1_555 1_555

#END
