
#######################################################################
#
#                 Cambridge Crystallographic Data Centre
#                                CCDC 
#
#######################################################################
#
# If this CIF has been generated from an entry in the Cambridge 
# Structural Database, then it will include bibliographic, chemical, 
# crystal, experimental, refinement or atomic coordinate data resulting 
# from the CCDC's data processing and validation procedures.
#
#######################################################################

data_XOQBEM
_symmetry_cell_setting           monoclinic
_symmetry_space_group_name_H-M   'C c'
_symmetry_Int_Tables_number      9
_space_group_name_Hall           'C -2yc'
loop_
_symmetry_equiv_pos_site_id
_symmetry_equiv_pos_as_xyz
1 x,y,z
2 x,-y,1/2+z
3 1/2+x,1/2+y,z
4 1/2+x,1/2-y,1/2+z
_cell_length_a                   22.4650(17)
_cell_length_b                   10.0193(8)
_cell_length_c                   19.3871(15)
_cell_angle_alpha                90
_cell_angle_beta                 108.360(3)
_cell_angle_gamma                90
_cell_volume                     4141.59
loop_
_atom_site_label
_atom_site_type_symbol
_atom_site_fract_x
_atom_site_fract_y
_atom_site_fract_z
C1 C 0.1573(3) 0.9925(8) 1.1354(4)
H1 H 0.1448 1.0146 1.1754
C2 C 0.1766(3) 1.0929(8) 1.0983(4)
H2 H 0.1758 1.1812 1.1128
C3 C 0.1970(3) 1.0631(7) 1.0400(4)
H3 H 0.2104 1.1296 1.0147
C4 C 0.1969(3) 0.9308(7) 1.0206(4)
C5 C 0.1759(3) 0.8348(8) 1.0597(4)
H4 H 0.1758 0.7459 1.0460
C6 C 0.2396(3) 0.9736(7) 0.9236(4)
H5 H 0.2695 1.0346 0.9552
H6 H 0.2045 1.0254 0.8935
C7 C 0.2709(3) 0.8977(6) 0.8750(3)
C8 C 0.3376(3) 0.8535(7) 0.9158(4)
H7 H 0.3582 0.8229 0.8816
H8 H 0.3614 0.9281 0.9428
C9 C 0.2772(3) 0.9982(6) 0.8177(4)
H9 H 0.2366 1.0334 0.7897
H10 H 0.3044 1.0717 0.8405
C10 C 0.2319(3) 0.7752(7) 0.8384(4)
H11 H 0.2519 0.7305 0.8071
H12 H 0.2283 0.7123 0.8749
C11 C 0.1401(3) 0.5976(6) 0.7488(4)
H13 H 0.1806 0.5652 0.7700
C12 C 0.1280(3) 0.7320(7) 0.7586(4)
C13 C 0.0676(4) 0.7758(9) 0.7289(5)
H14 H 0.0578 0.8645 0.7346
C14 C 0.0217(4) 0.6907(9) 0.6911(6)
H15 H -0.0194 0.7207 0.6715
C15 C 0.0364(3) 0.5597(7) 0.6822(4)
H16 H 0.0048 0.5019 0.6565
C16 C 0.3504(4) 0.8892(8) 0.6854(4)
H17 H 0.3545 0.8010 0.7013
C17 C 0.3242(4) 0.9802(9) 0.7206(4)
O1 O 0.3041(3) 0.9218(5) 0.7727(3)
C18 C 0.3196(3) 1.1120(7) 0.7005(4)
H18 H 0.3035 1.1759 0.7246
C19 C 0.3402(4) 1.1448(8) 0.6426(4)
H19 H 0.3370 1.2325 0.6261
C20 C 0.3649(3) 1.0514(7) 0.6099(4)
H20 H 0.3790 1.0779 0.5718
C21 C 0.3833(3) 0.5536(7) 1.0181(4)
H21 H 0.3430 0.5257 1.0146
C22 C 0.3910(3) 0.6765(7) 0.9920(4)
C23 C 0.4508(4) 0.7186(9) 0.9934(5)
H22 H 0.4574 0.8002 0.9741
C24 C 0.5005(3) 0.6300(9) 1.0260(6)
H23 H 0.5414 0.6537 1.0294
C25 C 0.4894(3) 0.5120(8) 1.0519(5)
H24 H 0.5233 0.4562 1.0732
C26 C -0.0005(3) 0.6269(6) 1.0159(3)
C27 C 0.0230(3) 0.5495(6) 0.9633(3)
C28 C 0.0852(3) 0.5060(7) 0.9865(3)
H25 H 0.1108 0.5263 1.0332
C29 C 0.1092(3) 0.4335(7) 0.9412(4)
C30 C 0.0711(3) 0.4054(7) 0.8707(4)
H26 H 0.0871 0.3572 0.8395
C31 C 0.0093(3) 0.4490(9) 0.8469(4)
H27 H -0.0160 0.4298 0.7998
C32 C -0.0149(3) 0.5212(7) 0.8932(4)
H28 H -0.0562 0.5504 0.8772
C33 C 0.1765(3) 0.3892(8) 0.9665(4)
C34 C 0.0241(3) 0.8358(6) 1.2341(3)
C35 C 0.0036(3) 0.9253(6) 1.2860(3)
C36 C 0.0457(3) 0.9832(9) 1.3464(4)
H29 H 0.0882 0.9625 1.3587
C37 C 0.0248(3) 1.0730(10) 1.3892(4)
H30 H 0.0535 1.1142 1.4289
C38 C -0.0400(3) 1.1009(8) 1.3722(4)
H31 H -0.0542 1.1601 1.4005
C39 C -0.0820(3) 1.0391(7) 1.3129(3)
C40 C -0.0593(3) 0.9513(7) 1.2710(3)
H32 H -0.0878 0.9088 1.2317
C41 C -0.1509(3) 1.0690(8) 1.2917(4)
Cd1 Cd 0.122525(17) 0.69407(4) 1.17702(2)
Cd2 Cd -0.093647(18) 0.75963(4) 1.07800(2)
N1 N 0.1561(3) 0.8648(6) 1.1156(3)
N2 N 0.4323(3) 0.4702(6) 1.0489(3)
N3 N 0.3704(3) 0.9222(7) 0.6290(3)
N4 N 0.0954(3) 0.5135(6) 0.7096(3)
O2 O 0.2181(2) 0.8808(5) 0.9663(3)
O3 O 0.1710(2) 0.8234(5) 0.7965(3)
O4 O 0.3358(2) 0.7478(5) 0.9647(3)
O5 O 0.0382(3) 0.6857(5) 1.0682(4)
O6 O -0.0592(2) 0.6291(5) 1.0034(3)
O7 O 0.2082(3) 0.4175(7) 1.0317(3)
O8 O 0.1987(2) 0.3258(6) 0.9260(3)
O9 O 0.0816(2) 0.8368(5) 1.2400(3)
O10 O -0.0158(3) 0.7641(5) 1.1909(4)
O11 O -0.1855(2) 1.0160(6) 1.2346(3)
O12 O -0.1708(2) 1.1446(7) 1.3308(3)
O13 O 0.2051(3) 0.7013(6) 1.2863(4)
H33 H 0.2438 0.6790 1.2778
H34 H 0.1973 0.6385 1.3198
O14 O 0.2006(2) 0.5690(6) 1.1468(3)
H35 H 0.2139 0.5163 1.1827
H36 H 0.2299 0.6254 1.1519
O15 O -0.1775(3) 0.7649(5) 0.9665(3)
H37 H -0.1615 0.7879 0.9276
H38 H -0.2077 0.8305 0.9697
O16 O -0.1738(2) 0.8792(6) 1.1124(3)
H39 H -0.1669 0.9427 1.1430
H40 H -0.2145 0.8444 1.0861
Cd1A Cd 0.122525(17) 0.30593(4) 0.67702(2)
Cd2B Cd 0.406353(18) 0.25963(4) 1.07800(2)
Cd2C Cd 0.406353(18) 0.74037(4) 0.57800(2)
N2B N -0.0677(3) 0.9702(6) 1.0489(3)
N3C N -0.1296(3) 0.5778(7) 1.1290(3)
N4A N 0.0954(3) 0.4865(6) 1.2096(3)
loop_
_geom_bond_atom_site_label_1
_geom_bond_atom_site_label_2
_geom_bond_site_symmetry_1
_geom_bond_site_symmetry_2
C1 H1 1_555 1_555
C2 C1 1_555 1_555
H2 C2 1_555 1_555
C3 C2 1_555 1_555
H3 C3 1_555 1_555
C4 C3 1_555 1_555
C5 C4 1_555 1_555
H4 C5 1_555 1_555
C6 H5 1_555 1_555
H6 C6 1_555 1_555
C7 C6 1_555 1_555
C8 C7 1_555 1_555
H7 C8 1_555 1_555
H8 C8 1_555 1_555
C9 C7 1_555 1_555
H9 C9 1_555 1_555
H10 C9 1_555 1_555
C10 C7 1_555 1_555
H11 C10 1_555 1_555
H12 C10 1_555 1_555
C11 H13 1_555 1_555
C12 C11 1_555 1_555
C13 C12 1_555 1_555
H14 C13 1_555 1_555
C14 C13 1_555 1_555
H15 C14 1_555 1_555
C15 C14 1_555 1_555
H16 C15 1_555 1_555
C16 H17 1_555 1_555
C17 C16 1_555 1_555
O1 C9 1_555 1_555
C18 C17 1_555 1_555
H18 C18 1_555 1_555
C19 C18 1_555 1_555
H19 C19 1_555 1_555
C20 C19 1_555 1_555
H20 C20 1_555 1_555
C21 H21 1_555 1_555
C22 C21 1_555 1_555
C23 C22 1_555 1_555
H22 C23 1_555 1_555
C24 C23 1_555 1_555
H23 C24 1_555 1_555
C25 C24 1_555 1_555
H24 C25 1_555 1_555
C26 C27 1_555 1_555
C27 C28 1_555 1_555
C28 H25 1_555 1_555
C29 C28 1_555 1_555
C30 C29 1_555 1_555
H26 C30 1_555 1_555
C31 C30 1_555 1_555
H27 C31 1_555 1_555
C32 C27 1_555 1_555
H28 C32 1_555 1_555
C33 C29 1_555 1_555
C34 C35 1_555 1_555
C35 C36 1_555 1_555
C36 H29 1_555 1_555
C37 C36 1_555 1_555
H30 C37 1_555 1_555
C38 C37 1_555 1_555
H31 C38 1_555 1_555
C39 C38 1_555 1_555
C40 C35 1_555 1_555
H32 C40 1_555 1_555
C41 C39 1_555 1_555
Cd1 N1 1_555 1_555
Cd2 O6 1_555 1_555
N1 C1 1_555 1_555
N2 C21 1_555 1_555
N3 C16 1_555 1_555
N4 C11 1_555 1_555
O2 C4 1_555 1_555
O3 C10 1_555 1_555
O4 C8 1_555 1_555
O5 C26 1_555 1_555
O6 C26 1_555 1_555
O7 C33 1_555 1_555
O8 C33 1_555 1_555
O9 C34 1_555 1_555
O10 C34 1_555 1_555
O11 C41 1_555 1_555
O12 C41 1_555 1_555
O13 Cd1 1_555 1_555
H33 O13 1_555 1_555
H34 O13 1_555 1_555
O14 Cd1 1_555 1_555
H35 O14 1_555 1_555
H36 O14 1_555 1_555
O15 Cd2 1_555 1_555
H37 O15 1_555 1_555
H38 O15 1_555 1_555
O16 Cd2 1_555 1_555
H39 O16 1_555 1_555
H40 O16 1_555 1_555
Cd1A N4 1_555 1_555
Cd2B N2 1_555 1_555
Cd2C N3 1_555 1_555
N2B Cd2 1_555 1_555
N3C Cd2 1_555 1_555
N4A Cd1 1_555 1_555
C5 N1 1_555 1_555
C6 O2 1_555 1_555
C12 O3 1_555 1_555
C15 N4 1_555 1_555
C17 O1 1_555 1_555
C20 N3 1_555 1_555
C22 O4 1_555 1_555
C25 N2 1_555 1_555
C31 C32 1_555 1_555
C39 C40 1_555 1_555
Cd1 O5 1_555 1_555
Cd1 O9 1_555 1_555
Cd2 O10 1_555 1_555

#END
