
#######################################################################
#
#                 Cambridge Crystallographic Data Centre
#                                CCDC 
#
#######################################################################
#
# If this CIF has been generated from an entry in the Cambridge 
# Structural Database, then it will include bibliographic, chemical, 
# crystal, experimental, refinement or atomic coordinate data resulting 
# from the CCDC's data processing and validation procedures.
#
#######################################################################

data_XOQBIQ
_symmetry_cell_setting           orthorhombic
_symmetry_space_group_name_H-M   'F d d d'
_symmetry_Int_Tables_number      70
_space_group_name_Hall           '-F 2uv 2vw'
loop_
_symmetry_equiv_pos_site_id
_symmetry_equiv_pos_as_xyz
1 x,y,z
2 3/4-x,3/4-y,z
3 3/4-x,y,3/4-z
4 x,3/4-y,3/4-z
5 x,1/2+y,1/2+z
6 3/4-x,1/4-y,1/2+z
7 3/4-x,1/2+y,1/4-z
8 x,1/4-y,1/4-z
9 1/2+x,y,1/2+z
10 1/4-x,3/4-y,1/2+z
11 1/4-x,y,1/4-z
12 1/2+x,3/4-y,1/4-z
13 1/2+x,1/2+y,z
14 1/4-x,1/4-y,z
15 1/4-x,1/2+y,3/4-z
16 1/2+x,1/4-y,3/4-z
17 -x,-y,-z
18 1/4+x,1/4+y,-z
19 1/4+x,-y,1/4+z
20 -x,1/4+y,1/4+z
21 -x,1/2-y,1/2-z
22 1/4+x,3/4+y,1/2-z
23 1/4+x,1/2-y,3/4+z
24 -x,3/4+y,3/4+z
25 1/2-x,-y,1/2-z
26 3/4+x,1/4+y,1/2-z
27 3/4+x,-y,3/4+z
28 1/2-x,1/4+y,3/4+z
29 1/2-x,1/2-y,-z
30 3/4+x,3/4+y,-z
31 3/4+x,1/2-y,1/4+z
32 1/2-x,3/4+y,1/4+z
_cell_length_a                   20.0000(13)
_cell_length_b                   32.214(2)
_cell_length_c                   36.422(2)
_cell_angle_alpha                90
_cell_angle_beta                 90
_cell_angle_gamma                90
_cell_volume                     23466
loop_
_atom_site_label
_atom_site_type_symbol
_atom_site_fract_x
_atom_site_fract_y
_atom_site_fract_z
C1 C 0.16206(17) 0.93006(12) 0.05408(10)
C2 C 0.20557(16) 0.96431(11) 0.06772(9)
C3 C 0.24173(18) 0.98848(12) 0.04314(9)
H1 H 0.2385 0.9829 0.0181
C4 C 0.28263(17) 1.02075(12) 0.05489(10)
H2 H 0.3068 1.0365 0.0381
C5 C 0.28672(16) 1.02902(11) 0.09222(9)
C6 C 0.25133(16) 1.00497(12) 0.11720(9)
H3 H 0.2543 1.0107 0.1422
C7 C 0.21148(17) 0.97239(12) 0.10496(9)
H4 H 0.1887 0.9560 0.1218
C8 C 0.32885(18) 1.06458(12) 0.10569(10)
C9 C -0.0313(2) 0.81129(14) 0.07142(10)
H5 H -0.0255 0.8036 0.0470
C10 C -0.0803(2) 0.79221(15) 0.09168(11)
H6 H -0.1072 0.7720 0.0810
C11 C -0.0897(2) 0.80307(14) 0.12803(11)
H7 H -0.1220 0.7900 0.1423
C12 C -0.04993(18) 0.83379(13) 0.14234(10)
C13 C -0.00028(18) 0.85123(12) 0.12059(9)
H8 H 0.0278 0.8711 0.1309
C14 C -0.10903(19) 0.83729(14) 0.19973(10)
H9 H -0.0973 0.8136 0.2149
H10 H -0.1473 0.8300 0.1847
C15 C -0.1250 0.8750 0.22372(13)
C16 C -0.06444(18) 0.88373(13) 0.24809(9)
H11 H -0.0568 0.8607 0.2647
H12 H -0.0247 0.8875 0.2332
C17 C 0.00240(17) 0.90329(12) 0.31529(9)
H13 H 0.0196 0.8813 0.3017
C18 C -0.04838(18) 0.92726(12) 0.30068(10)
C19 C -0.0713(2) 0.96138(13) 0.32083(11)
H14 H -0.1047 0.9785 0.3115
C20 C -0.0439(2) 0.96903(14) 0.35444(11)
H15 H -0.0583 0.9916 0.3682
C21 C 0.0047(2) 0.94354(13) 0.36786(10)
H16 H 0.0225 0.9488 0.3910
C22 C 0.15727(18) 0.80472(13) 0.03764(11)
C23 C 0.20482(17) 0.77655(11) 0.01780(9)
C24 C 0.24518(17) 0.74945(13) 0.03730(9)
H17 H 0.2420 0.7490 0.0628
C25 C 0.29042(18) 0.72280(12) 0.02021(9)
H18 H 0.3169 0.7049 0.0340
C26 C -0.0183(2) 0.93109(16) 0.02764(12)
H19 H -0.0106 0.9406 0.0514
C27 C -0.0598(2) 0.95327(16) 0.00569(12)
H20 H -0.0781 0.9783 0.0136
C28 C -0.0744(2) 0.93738(16) -0.02923(12)
H21 H -0.1045 0.9510 -0.0446
C29 C -0.0444(2) 0.90231(17) -0.04017(11)
C30 C -0.00076(19) 0.88313(14) -0.01697(10)
H22 H 0.0214 0.8595 -0.0252
C31 C -0.0853(2) 0.90482(16) -0.10143(11)
H23 H -0.0452 0.9191 -0.1162
H24 H -0.1109 0.9284 -0.0957
C32 C -0.1250 0.8750 -0.1250
N1 N 0.01172(15) 0.89658(11) 0.01702(8)
N2 N 0.00857(14) 0.84068(10) 0.08580(7)
N3 N 0.02727(13) 0.91134(10) 0.34873(7)
O1 O 0.12632(13) 0.91083(8) 0.07748(6)
O2 O 0.16230(13) 0.92111(8) 0.02108(7)
O3 O 0.36738(12) 1.08322(8) 0.08412(7)
O4 O 0.32454(12) 1.07548(8) 0.13843(6)
O5 O -0.05369(13) 0.84904(9) 0.17704(6)
O6 O -0.07856(14) 0.92070(9) 0.26838(7)
O7 O 0.15714(12) 0.80636(9) 0.07124(7)
O8 O 0.11733(14) 0.82545(9) 0.01790(7)
O9 O -0.05353(15) 0.88213(10) -0.07337(8)
Zn1 Zn 0.39966(3) 1.1250 0.1250
Zn2 Zn 0.07878(2) 0.866633(15) 0.051213(11)
C9A C -0.2187(2) 0.93871(14) 0.07142(10)
H5A H -0.2245 0.9464 0.0470
C10A C -0.1697(2) 0.95779(15) 0.09168(11)
H6A H -0.1428 0.9780 0.0810
C11A C -0.1603(2) 0.94693(14) 0.12803(11)
H7A H -0.1280 0.9600 0.1423
C12A C -0.20007(18) 0.91621(13) 0.14234(10)
C13A C -0.24972(18) 0.89877(12) 0.12059(9)
H8A H -0.2778 0.8789 0.1309
C14A C -0.14097(19) 0.91271(14) 0.19973(10)
H9A H -0.1527 0.9364 0.2149
H10A H -0.1027 0.9200 0.1847
C16A C -0.18556(18) 0.86627(13) 0.24809(9)
H11A H -0.1932 0.8893 0.2647
H12A H -0.2253 0.8625 0.2332
C17A C -0.25240(17) 0.84671(12) 0.31529(9)
H13A H -0.2696 0.8687 0.3017
C18A C -0.20162(18) 0.82274(12) 0.30068(10)
C19A C -0.1787(2) 0.78862(13) 0.32083(11)
H14A H -0.1453 0.7715 0.3115
C20A C -0.2061(2) 0.78097(14) 0.35444(11)
H15A H -0.1917 0.7584 0.3682
C21A C -0.2547(2) 0.80646(13) 0.36786(10)
H16A H -0.2725 0.8012 0.3910
N2A N -0.25857(14) 0.90932(10) 0.08580(7)
N3A N -0.27727(13) 0.83866(10) 0.34873(7)
O5A O -0.19631(13) 0.90096(9) 0.17704(6)
O6A O -0.17144(14) 0.82930(9) 0.26838(7)
C22BA C 0.34273(18) 0.69528(13) -0.03764(11)
C23BA C 0.29518(17) 0.72345(11) -0.01780(9)
C24BA C 0.25482(17) 0.75055(13) -0.03730(9)
H17BA H 0.2580 0.7510 -0.0628
C25BA C 0.20958(18) 0.77720(12) -0.02021(9)
H18BA H 0.1831 0.7951 -0.0340
O7BA O 0.34286(12) 0.69364(9) -0.07124(7)
O8BA O 0.38267(14) 0.67455(9) -0.01790(7)
C26A C -0.2317(2) 0.81891(16) 0.02764(12)
H19A H -0.2394 0.8094 0.0514
C27A C -0.1902(2) 0.79673(16) 0.00569(12)
H20A H -0.1719 0.7717 0.0136
C28A C -0.1756(2) 0.81262(16) -0.02923(12)
H21A H -0.1455 0.7990 -0.0446
C29A C -0.2056(2) 0.84769(17) -0.04017(11)
C30A C -0.24924(19) 0.86687(14) -0.01697(10)
H22A H -0.2714 0.8905 -0.0252
C31A C -0.1647(2) 0.84518(16) -0.10143(11)
H23A H -0.2048 0.8309 -0.1162
H24A H -0.1391 0.8216 -0.0957
N1A N -0.26172(15) 0.85342(11) 0.01702(8)
O9A O -0.19647(15) 0.86787(10) -0.07337(8)
C26B C -0.2317(2) 0.93109(16) -0.27764(12)
H19B H -0.2394 0.9406 -0.3014
C27B C -0.1902(2) 0.95327(16) -0.25569(12)
H20B H -0.1719 0.9783 -0.2636
C28B C -0.1756(2) 0.93738(16) -0.22077(12)
H21B H -0.1455 0.9510 -0.2054
C29B C -0.2056(2) 0.90231(17) -0.20983(11)
C30B C -0.24924(19) 0.88313(14) -0.23303(10)
H22B H -0.2714 0.8595 -0.2248
C31B C -0.1647(2) 0.90482(16) -0.14857(11)
H23B H -0.2048 0.9191 -0.1338
H24B H -0.1391 0.9284 -0.1543
N1B N -0.26172(15) 0.89658(11) -0.26702(8)
O9B O -0.19647(15) 0.88213(10) -0.17663(8)
C26C C -0.0183(2) 0.81891(16) -0.27764(12)
H19C H -0.0106 0.8094 -0.3014
C27C C -0.0598(2) 0.79673(16) -0.25569(12)
H20C H -0.0781 0.7717 -0.2636
C28C C -0.0744(2) 0.81262(16) -0.22077(12)
H21C H -0.1045 0.7990 -0.2054
C29C C -0.0444(2) 0.84769(17) -0.20983(11)
C30C C -0.00076(19) 0.86687(14) -0.23303(10)
H22C H 0.0214 0.8905 -0.2248
C31C C -0.0853(2) 0.84518(16) -0.14857(11)
H23C H -0.0452 0.8309 -0.1338
H24C H -0.1109 0.8216 -0.1543
N1C N 0.01172(15) 0.85342(11) -0.26702(8)
O9C O -0.05353(15) 0.86787(10) -0.17663(8)
C1A C -0.41206(17) 0.81994(12) 0.05408(10)
C2A C -0.45557(16) 0.78569(11) 0.06772(9)
C3A C -0.49173(18) 0.76152(12) 0.04314(9)
H1A H -0.4885 0.7671 0.0181
C4A C -0.53263(17) 0.72925(12) 0.05489(10)
H2A H -0.5568 0.7135 0.0381
C5A C -0.53672(16) 0.72098(11) 0.09222(9)
C6A C -0.50133(16) 0.74503(12) 0.11720(9)
H3A H -0.5043 0.7393 0.1422
C7A C -0.46148(17) 0.77761(12) 0.10496(9)
H4A H -0.4387 0.7940 0.1218
C8A C -0.57885(18) 0.68542(12) 0.10569(10)
C22A C -0.40727(18) 0.94528(13) 0.03764(11)
C23A C -0.45482(17) 0.97345(11) 0.01780(9)
C24A C -0.49518(17) 1.00055(13) 0.03730(9)
H17A H -0.4920 1.0010 0.0628
C25A C -0.54042(18) 1.02720(12) 0.02021(9)
H18A H -0.5669 1.0451 0.0340
O1A O -0.37632(13) 0.83917(8) 0.07748(6)
O2A O -0.41230(13) 0.82889(8) 0.02108(7)
O3A O -0.61738(12) 0.66678(8) 0.08412(7)
O4A O -0.57454(12) 0.67452(8) 0.13843(6)
O7A O -0.40714(12) 0.94364(9) 0.07124(7)
O8A O -0.36733(14) 0.92455(9) 0.01790(7)
Zn1A Zn -0.64966(3) 0.6250 0.1250
Zn2A Zn -0.32878(2) 0.883367(15) 0.051213(11)
C22Q C -0.59273(18) 1.05472(13) -0.03764(11)
C23Q C -0.54518(17) 1.02655(11) -0.01780(9)
C24Q C -0.50482(17) 0.99945(13) -0.03730(9)
H17Q H -0.5080 0.9990 -0.0628
C25Q C -0.45958(18) 0.97280(12) -0.02021(9)
H18Q H -0.4331 0.9549 -0.0340
O7Q O -0.59286(12) 1.05636(9) -0.07124(7)
O8Q O -0.63267(14) 1.07545(9) -0.01790(7)
C1B C -0.41206(17) 0.93006(12) -0.30408(10)
C2B C -0.45557(16) 0.96431(11) -0.31772(9)
C3B C -0.49173(18) 0.98848(12) -0.29314(9)
H1B H -0.4885 0.9829 -0.2681
C4B C -0.53263(17) 1.02075(12) -0.30489(10)
H2B H -0.5568 1.0365 -0.2881
C5B C -0.53672(16) 1.02902(11) -0.34222(9)
C6B C -0.50133(16) 1.00497(12) -0.36720(9)
H3B H -0.5043 1.0107 -0.3922
C7B C -0.46148(17) 0.97239(12) -0.35496(9)
H4B H -0.4387 0.9560 -0.3718
C8B C -0.57885(18) 1.06458(12) -0.35569(10)
C9B C -0.2187(2) 0.81129(14) -0.32142(10)
H5B H -0.2245 0.8036 -0.2970
C10B C -0.1697(2) 0.79221(15) -0.34168(11)
H6B H -0.1428 0.7720 -0.3310
C11B C -0.1603(2) 0.80307(14) -0.37803(11)
H7B H -0.1280 0.7900 -0.3923
C12B C -0.20007(18) 0.83379(13) -0.39234(10)
C13B C -0.24972(18) 0.85123(12) -0.37059(9)
H8B H -0.2778 0.8711 -0.3809
C14B C -0.14097(19) 0.83729(14) -0.44973(10)
H9B H -0.1527 0.8136 -0.4649
H10B H -0.1027 0.8300 -0.4347
C15B C -0.1250 0.8750 -0.47372(13)
C16B C -0.18556(18) 0.88373(13) -0.49809(9)
H11B H -0.1932 0.8607 -0.5147
H12B H -0.2253 0.8875 -0.4832
C17B C -0.25240(17) 0.90329(12) -0.56529(9)
H13B H -0.2696 0.8813 -0.5517
C18B C -0.20162(18) 0.92726(12) -0.55068(10)
C19B C -0.1787(2) 0.96138(13) -0.57083(11)
H14B H -0.1453 0.9785 -0.5615
C20B C -0.2061(2) 0.96903(14) -0.60444(11)
H15B H -0.1917 0.9916 -0.6182
C21B C -0.2547(2) 0.94354(13) -0.61786(10)
H16B H -0.2725 0.9488 -0.6410
N2B N -0.25857(14) 0.84068(10) -0.33580(7)
N3B N -0.27727(13) 0.91134(10) -0.59873(7)
O1B O -0.37632(13) 0.91083(8) -0.32748(6)
O2B O -0.41230(13) 0.92111(8) -0.27108(7)
O3B O -0.61738(12) 1.08322(8) -0.33412(7)
O4B O -0.57454(12) 1.07548(8) -0.38843(6)
O5B O -0.19631(13) 0.84904(9) -0.42704(6)
O6B O -0.17144(14) 0.92070(9) -0.51838(7)
Zn2B Zn -0.32878(2) 0.866633(15) -0.301213(11)
C9C C -0.0313(2) 0.93871(14) -0.32142(10)
H5C H -0.0255 0.9464 -0.2970
C10C C -0.0803(2) 0.95779(15) -0.34168(11)
H6C H -0.1072 0.9780 -0.3310
C11C C -0.0897(2) 0.94693(14) -0.37803(11)
H7C H -0.1220 0.9600 -0.3923
C12C C -0.04993(18) 0.91621(13) -0.39234(10)
C13C C -0.00028(18) 0.89877(12) -0.37059(9)
H8C H 0.0278 0.8789 -0.3809
C14C C -0.10903(19) 0.91271(14) -0.44973(10)
H9C H -0.0973 0.9364 -0.4649
H10C H -0.1473 0.9200 -0.4347
C16C C -0.06444(18) 0.86627(13) -0.49809(9)
H11C H -0.0568 0.8893 -0.5147
H12C H -0.0247 0.8625 -0.4832
C17C C 0.00240(17) 0.84671(12) -0.56529(9)
H13C H 0.0196 0.8687 -0.5517
C18C C -0.04838(18) 0.82274(12) -0.55068(10)
C19C C -0.0713(2) 0.78862(13) -0.57083(11)
H14C H -0.1047 0.7715 -0.5615
C20C C -0.0439(2) 0.78097(14) -0.60444(11)
H15C H -0.0583 0.7584 -0.6182
C21C C 0.0047(2) 0.80646(13) -0.61786(10)
H16C H 0.0225 0.8012 -0.6410
N2C N 0.00857(14) 0.90932(10) -0.33580(7)
N3C N 0.02727(13) 0.83866(10) -0.59873(7)
O5C O -0.05369(13) 0.90096(9) -0.42704(6)
O6C O -0.07856(14) 0.82930(9) -0.51838(7)
C1C C 0.16206(17) 0.81994(12) -0.30408(10)
C2C C 0.20557(16) 0.78569(11) -0.31772(9)
C3C C 0.24173(18) 0.76152(12) -0.29314(9)
H1C H 0.2385 0.7671 -0.2681
C4C C 0.28263(17) 0.72925(12) -0.30489(10)
H2C H 0.3068 0.7135 -0.2881
C5C C 0.28672(16) 0.72098(11) -0.34222(9)
C6C C 0.25133(16) 0.74503(12) -0.36720(9)
H3C H 0.2543 0.7393 -0.3922
C7C C 0.21148(17) 0.77761(12) -0.35496(9)
H4C H 0.1887 0.7940 -0.3718
C8C C 0.32885(18) 0.68542(12) -0.35569(10)
O1C O 0.12632(13) 0.83917(8) -0.32748(6)
O2C O 0.16230(13) 0.82889(8) -0.27108(7)
O3C O 0.36738(12) 0.66678(8) -0.33412(7)
O4C O 0.32454(12) 0.67452(8) -0.38843(6)
Zn2C Zn 0.07878(2) 0.883367(15) -0.301213(11)
N3U N -0.72273(13) 0.66134(10) 0.15127(7)
N3V N -0.72273(13) 0.58866(10) 0.09873(7)
N3X N 0.47273(13) 1.08866(10) 0.15127(7)
N3AA N 0.47273(13) 1.16134(10) 0.09873(7)
O3F O -0.61738(12) 0.58322(8) 0.16588(7)
O3G O 0.36738(12) 1.16678(8) 0.16588(7)
O4F O -0.57454(12) 0.57548(8) 0.11157(6)
O4G O 0.32454(12) 1.17452(8) 0.11157(6)
O8B O -0.36733(14) 0.82545(9) -0.26790(7)
O8C O 0.11733(14) 0.92455(9) -0.26790(7)
Zn1B Zn -0.64966(3) 1.1250 -0.3750
Zn1C Zn 0.39966(3) 0.6250 -0.3750
Zn1R Zn -0.35034(3) 0.8750 -0.6250
Zn1R_2 Zn -0.35034(3) 0.8750 0.3750
Zn1X Zn 0.10034(3) 0.8750 -0.6250
Zn1X_2 Zn 0.10034(3) 0.8750 0.3750
Zn2Q Zn -0.67122(2) 1.116633(15) -0.051213(11)
Zn2BA Zn 0.42122(2) 0.633367(15) -0.051213(11)
H25 H 0.1125 0.9360 0.9550
H26 H 0.1452 0.9703 0.9694
O10 O 0.11158(15) 0.96205(10) 0.95699(8)
loop_
_geom_bond_atom_site_label_1
_geom_bond_atom_site_label_2
_geom_bond_site_symmetry_1
_geom_bond_site_symmetry_2
C1 C2 1_555 1_555
C2 C3 1_555 1_555
C3 H1 1_555 1_555
C4 C3 1_555 1_555
H2 C4 1_555 1_555
C5 C4 1_555 1_555
C6 C5 1_555 1_555
H3 C6 1_555 1_555
C7 C2 1_555 1_555
H4 C7 1_555 1_555
C8 C5 1_555 1_555
C9 H5 1_555 1_555
C10 C9 1_555 1_555
H6 C10 1_555 1_555
C11 C10 1_555 1_555
H7 C11 1_555 1_555
C12 C11 1_555 1_555
C13 C12 1_555 1_555
H8 C13 1_555 1_555
C14 H9 1_555 1_555
H10 C14 1_555 1_555
C15 C14 1_555 1_555
C16 C15 1_555 1_555
H11 C16 1_555 1_555
H12 C16 1_555 1_555
C17 H13 1_555 1_555
C18 C17 1_555 1_555
C19 C18 1_555 1_555
H14 C19 1_555 1_555
C20 C19 1_555 1_555
H15 C20 1_555 1_555
C21 C20 1_555 1_555
H16 C21 1_555 1_555
C22 C23 1_555 1_555
C23 C24 1_555 1_555
C24 H17 1_555 1_555
C25 C24 1_555 1_555
H18 C25 1_555 1_555
C26 H19 1_555 1_555
C27 C26 1_555 1_555
H20 C27 1_555 1_555
C28 C27 1_555 1_555
H21 C28 1_555 1_555
C29 C28 1_555 1_555
C30 C29 1_555 1_555
H22 C30 1_555 1_555
C31 H23 1_555 1_555
H24 C31 1_555 1_555
C32 C31 1_555 1_555
N1 C26 1_555 1_555
N2 C9 1_555 1_555
N3 C17 1_555 1_555
O1 C1 1_555 1_555
O2 C1 1_555 1_555
O3 C8 1_555 1_555
O4 C8 1_555 1_555
O5 C12 1_555 1_555
O6 C16 1_555 1_555
O7 C22 1_555 1_555
O8 C22 1_555 1_555
O9 C29 1_555 1_555
Zn1 O3 1_555 1_555
Zn2 N1 1_555 1_555
H25 O10 1_555 1_555
H26 O10 1_555 1_555
C9A H5A 1_555 1_555
C10A C9A 1_555 1_555
H6A C10A 1_555 1_555
C11A C10A 1_555 1_555
H7A C11A 1_555 1_555
C12A C11A 1_555 1_555
C13A C12A 1_555 1_555
H8A C13A 1_555 1_555
C14A C15 1_555 1_555
H9A C14A 1_555 1_555
H10A C14A 1_555 1_555
C16A C15 1_555 1_555
H11A C16A 1_555 1_555
H12A C16A 1_555 1_555
C17A H13A 1_555 1_555
C18A C17A 1_555 1_555
C19A C18A 1_555 1_555
H14A C19A 1_555 1_555
C20A C19A 1_555 1_555
H15A C20A 1_555 1_555
C21A C20A 1_555 1_555
H16A C21A 1_555 1_555
N2A C9A 1_555 1_555
N3A C17A 1_555 1_555
O5A C12A 1_555 1_555
O6A C16A 1_555 1_555
C22BA C23BA 1_555 1_555
C23BA C25 1_555 1_555
C24BA C23BA 1_555 1_555
H17BA C24BA 1_555 1_555
C25BA C23 1_555 1_555
H18BA C25BA 1_555 1_555
O7BA C22BA 1_555 1_555
O8BA C22BA 1_555 1_555
C26A H19A 1_555 1_555
C27A C26A 1_555 1_555
H20A C27A 1_555 1_555
C28A C27A 1_555 1_555
H21A C28A 1_555 1_555
C29A C28A 1_555 1_555
C30A C29A 1_555 1_555
H22A C30A 1_555 1_555
C31A C32 1_555 1_555
H23A C31A 1_555 1_555
H24A C31A 1_555 1_555
N1A C26A 1_555 1_555
O9A C29A 1_555 1_555
C26B H19B 1_555 1_555
C27B C26B 1_555 1_555
H20B C27B 1_555 1_555
C28B C27B 1_555 1_555
H21B C28B 1_555 1_555
C29B C28B 1_555 1_555
C30B C29B 1_555 1_555
H22B C30B 1_555 1_555
C31B C32 1_555 1_555
H23B C31B 1_555 1_555
H24B C31B 1_555 1_555
N1B C26B 1_555 1_555
O9B C29B 1_555 1_555
C26C H19C 1_555 1_555
C27C C26C 1_555 1_555
H20C C27C 1_555 1_555
C28C C27C 1_555 1_555
H21C C28C 1_555 1_555
C29C C28C 1_555 1_555
C30C C29C 1_555 1_555
H22C C30C 1_555 1_555
C31C C32 1_555 1_555
H23C C31C 1_555 1_555
H24C C31C 1_555 1_555
N1C C26C 1_555 1_555
O9C C29C 1_555 1_555
C1A C2A 1_555 1_555
C2A C3A 1_555 1_555
C3A H1A 1_555 1_555
C4A C3A 1_555 1_555
H2A C4A 1_555 1_555
C5A C4A 1_555 1_555
C6A C5A 1_555 1_555
H3A C6A 1_555 1_555
C7A C2A 1_555 1_555
H4A C7A 1_555 1_555
C8A C5A 1_555 1_555
C22A C23A 1_555 1_555
C23A C24A 1_555 1_555
C24A H17A 1_555 1_555
C25A C24A 1_555 1_555
H18A C25A 1_555 1_555
O1A C1A 1_555 1_555
O2A C1A 1_555 1_555
O3A C8A 1_555 1_555
O4A C8A 1_555 1_555
O7A C22A 1_555 1_555
O8A C22A 1_555 1_555
Zn1A O3A 1_555 1_555
Zn2A N2A 1_555 1_555
C22Q C23Q 1_555 1_555
C23Q C25A 1_555 1_555
C24Q C23Q 1_555 1_555
H17Q C24Q 1_555 1_555
C25Q C23A 1_555 1_555
H18Q C25Q 1_555 1_555
O7Q C22Q 1_555 1_555
O8Q C22Q 1_555 1_555
C1B C2B 1_555 1_555
C2B C3B 1_555 1_555
C3B H1B 1_555 1_555
C4B C3B 1_555 1_555
H2B C4B 1_555 1_555
C5B C4B 1_555 1_555
C6B C5B 1_555 1_555
H3B C6B 1_555 1_555
C7B C2B 1_555 1_555
H4B C7B 1_555 1_555
C8B C5B 1_555 1_555
C9B H5B 1_555 1_555
C10B C9B 1_555 1_555
H6B C10B 1_555 1_555
C11B C10B 1_555 1_555
H7B C11B 1_555 1_555
C12B C11B 1_555 1_555
C13B C12B 1_555 1_555
H8B C13B 1_555 1_555
C14B H9B 1_555 1_555
H10B C14B 1_555 1_555
C15B C14B 1_555 1_555
C16B C15B 1_555 1_555
H11B C16B 1_555 1_555
H12B C16B 1_555 1_555
C17B H13B 1_555 1_555
C18B C17B 1_555 1_555
C19B C18B 1_555 1_555
H14B C19B 1_555 1_555
C20B C19B 1_555 1_555
H15B C20B 1_555 1_555
C21B C20B 1_555 1_555
H16B C21B 1_555 1_555
N2B C9B 1_555 1_555
N3B C17B 1_555 1_555
O1B C1B 1_555 1_555
O2B C1B 1_555 1_555
O3B C8B 1_555 1_555
O4B C8B 1_555 1_555
O5B C12B 1_555 1_555
O6B C16B 1_555 1_555
Zn2B N1B 1_555 1_555
C9C H5C 1_555 1_555
C10C C9C 1_555 1_555
H6C C10C 1_555 1_555
C11C C10C 1_555 1_555
H7C C11C 1_555 1_555
C12C C11C 1_555 1_555
C13C C12C 1_555 1_555
H8C C13C 1_555 1_555
C14C C15B 1_555 1_555
H9C C14C 1_555 1_555
H10C C14C 1_555 1_555
C16C C15B 1_555 1_555
H11C C16C 1_555 1_555
H12C C16C 1_555 1_555
C17C H13C 1_555 1_555
C18C C17C 1_555 1_555
C19C C18C 1_555 1_555
H14C C19C 1_555 1_555
C20C C19C 1_555 1_555
H15C C20C 1_555 1_555
C21C C20C 1_555 1_555
H16C C21C 1_555 1_555
N2C C9C 1_555 1_555
N3C C17C 1_555 1_555
O5C C12C 1_555 1_555
O6C C16C 1_555 1_555
C1C C2C 1_555 1_555
C2C C3C 1_555 1_555
C3C H1C 1_555 1_555
C4C C3C 1_555 1_555
H2C C4C 1_555 1_555
C5C C4C 1_555 1_555
C6C C5C 1_555 1_555
H3C C6C 1_555 1_555
C7C C2C 1_555 1_555
H4C C7C 1_555 1_555
C8C C5C 1_555 1_555
O1C C1C 1_555 1_555
O2C C1C 1_555 1_555
O3C C8C 1_555 1_555
O4C C8C 1_555 1_555
Zn2C N1C 1_555 1_555
N3U Zn1A 1_555 1_555
N3V Zn1A 1_555 1_555
N3X Zn1 1_555 1_555
N3AA Zn1 1_555 1_555
O3F Zn1A 1_555 1_555
O3G Zn1 1_555 1_555
O4F Zn1A 1_555 1_555
O4G Zn1 1_555 1_555
O8B Zn2B 1_555 1_555
O8C Zn2C 1_555 1_555
Zn1B O3B 1_555 1_555
Zn1C O3C 1_555 1_555
Zn1R N3B 1_555 1_555
Zn1R_2 N3A 1_555 1_555
Zn1X N3C 1_555 1_555
Zn1X_2 N3 1_555 1_555
Zn2Q O8Q 1_555 1_555
Zn2BA O8BA 1_555 1_555
C6 C7 1_555 1_555
C13 N2 1_555 1_555
C14 O5 1_555 1_555
C18 O6 1_555 1_555
C21 N3 1_555 1_555
C30 N1 1_555 1_555
C31 O9 1_555 1_555
N2 Zn2 1_555 1_555
O1 Zn2 1_555 1_555
O4 Zn1 1_555 1_555
O8 Zn2 1_555 1_555
C13A N2A 1_555 1_555
C14A O5A 1_555 1_555
C18A O6A 1_555 1_555
C21A N3A 1_555 1_555
C24BA C25BA 1_555 1_555
C30A N1A 1_555 1_555
C31A O9A 1_555 1_555
N1A Zn2A 1_555 1_555
C30B N1B 1_555 1_555
C31B O9B 1_555 1_555
C30C N1C 1_555 1_555
C31C O9C 1_555 1_555
C6A C7A 1_555 1_555
O1A Zn2A 1_555 1_555
O4A Zn1A 1_555 1_555
O8A Zn2A 1_555 1_555
C24Q C25Q 1_555 1_555
C6B C7B 1_555 1_555
C13B N2B 1_555 1_555
C14B O5B 1_555 1_555
C18B O6B 1_555 1_555
C21B N3B 1_555 1_555
N2B Zn2B 1_555 1_555
O1B Zn2B 1_555 1_555
O4B Zn1B 1_555 1_555
C13C N2C 1_555 1_555
C14C O5C 1_555 1_555
C18C O6C 1_555 1_555
C21C N3C 1_555 1_555
N2C Zn2C 1_555 1_555
C6C C7C 1_555 1_555
O1C Zn2C 1_555 1_555
O4C Zn1C 1_555 1_555

#END
