
#######################################################################
#
#                 Cambridge Crystallographic Data Centre
#                                CCDC 
#
#######################################################################
#
# If this CIF has been generated from an entry in the Cambridge 
# Structural Database, then it will include bibliographic, chemical, 
# crystal, experimental, refinement or atomic coordinate data resulting 
# from the CCDC's data processing and validation procedures.
#
#######################################################################

data_XOQCUD
_symmetry_cell_setting           monoclinic
_symmetry_space_group_name_H-M   'P 21/c'
_symmetry_Int_Tables_number      14
_space_group_name_Hall           '-P 2ybc'
loop_
_symmetry_equiv_pos_site_id
_symmetry_equiv_pos_as_xyz
1 x,y,z
2 -x,1/2+y,1/2-z
3 -x,-y,-z
4 x,1/2-y,1/2+z
_cell_length_a                   10.2328(11)
_cell_length_b                   18.045(2)
_cell_length_c                   22.132(3)
_cell_angle_alpha                90
_cell_angle_beta                 102.859(2)
_cell_angle_gamma                90
_cell_volume                     3984.2
loop_
_atom_site_label
_atom_site_type_symbol
_atom_site_fract_x
_atom_site_fract_y
_atom_site_fract_z
Zn1 Zn 0.93842(8) 0.92907(4) 0.66974(4)
Zn2 Zn 0.61095(8) 0.63826(4) 0.68326(3)
O1 O 0.7949(5) 0.8923(3) 0.8373(2)
O2 O 0.9083(5) 0.9459(3) 0.7738(2)
O3 O 0.6279(5) 0.7893(3) 0.8304(2)
O4 O 0.5443(4) 0.7006(2) 0.7617(2)
O5 O 1.5170(4) 0.9370(3) 0.7598(3)
O6 O 1.5240(4) 1.0510(2) 0.7998(2)
O7 O 1.3415(5) 0.8483(3) 0.7092(3)
H1 H 1.4021 0.8775 0.7103
O8 O 1.1217(5) 0.8502(2) 0.6716(2)
O9 O 0.7425(5) 1.1819(3) 0.7735(3)
H2 H 0.7434 1.1407 0.7893
O10 O 1.0447(7) 0.6312(4) 0.5333(4)
N1 N 0.6831(5) 0.5739(3) 0.6134(3)
N2 N 0.4713(5) 0.6651(3) 0.5991(2)
N3 N 0.9138(5) 0.9278(3) 0.5712(2)
N4 N 0.7666(5) 1.0029(3) 0.6381(2)
N5 N 0.7066(5) 0.7380(3) 0.6860(2)
N6 N 0.8375(5) 0.8382(3) 0.6864(2)
N7 N 1.1002(5) 0.9967(3) 0.7003(2)
N8 N 1.2633(5) 1.0760(3) 0.7469(2)
C1 C 0.7854(7) 0.5279(4) 0.6206(3)
H3 H 0.8332 0.5184 0.6607
C2 C 0.8271(7) 0.4923(4) 0.5715(3)
H4 H 0.8997 0.4599 0.5791
C3 C 0.7579(7) 0.5066(4) 0.5125(3)
H5 H 0.7837 0.4843 0.4792
C4 C 0.6127(7) 0.5870(4) 0.5540(3)
C5 C 0.5019(7) 0.6365(4) 0.5472(3)
C6 C 0.4311(7) 0.6559(4) 0.4870(3)
C7 C 0.4718(7) 0.6225(4) 0.4350(4)
H6 H 0.4266 0.6353 0.3951
C8 C 0.5703(7) 0.5746(4) 0.4420(3)
H7 H 0.5903 0.5528 0.4070
C9 C 0.6484(7) 0.5547(4) 0.5022(3)
C10 C 0.3700(7) 0.7134(4) 0.5912(4)
H8 H 0.3480 0.7334 0.6264
C11 C 0.2974(8) 0.7352(4) 0.5353(4)
H9 H 0.2284 0.7694 0.5326
C12 C 0.3273(8) 0.7058(4) 0.4821(4)
H10 H 0.2776 0.7198 0.4433
C13 C 0.6931(7) 1.0391(4) 0.6710(3)
H11 H 0.7091 1.0310 0.7135
C14 C 0.5919(7) 1.0891(4) 0.6438(4)
H12 H 0.5406 1.1129 0.6677
C15 C 0.5704(8) 1.1021(4) 0.5822(4)
H13 H 0.5079 1.1376 0.5640
C16 C 0.6411(8) 1.0628(4) 0.5460(4)
C17 C 0.7388(7) 1.0145(4) 0.5755(3)
C18 C 0.8154(7) 0.9726(4) 0.5396(3)
C19 C 0.7849(7) 0.9793(4) 0.4741(3)
C20 C 0.6843(8) 1.0296(4) 0.4458(4)
H14 H 0.6642 1.0342 0.4029
C21 C 0.6164(8) 1.0712(4) 0.4791(4)
H15 H 0.5535 1.1054 0.4592
C22 C 0.8637(7) 0.9359(4) 0.4434(3)
H16 H 0.8487 0.9383 0.4005
C23 C 0.9603(7) 0.8910(4) 0.4744(3)
H17 H 1.0111 0.8624 0.4532
C24 C 0.9835(7) 0.8878(4) 0.5388(3)
H18 H 1.0503 0.8565 0.5600
C25 C 0.9224(7) 0.7060(4) 0.5934(3)
H19 H 0.9849 0.6936 0.6293
C26 C 0.7259(7) 0.7719(4) 0.5417(3)
H20 H 0.6541 0.8026 0.5439
C27 C 0.8488(7) 0.7032(4) 0.4826(3)
H21 H 0.8619 0.6877 0.4443
C28 C 0.9364(7) 0.6800(4) 0.5357(3)
C29 C 0.8135(6) 0.7507(3) 0.5962(3)
C30 C 0.7896(6) 0.7764(3) 0.6564(3)
C31 C 0.7876(6) 0.8390(3) 0.7396(3)
C32 C 0.7054(6) 0.7788(3) 0.7380(3)
C33 C 0.8309(7) 0.8964(4) 0.7850(3)
C34 C 0.6193(7) 0.7535(4) 0.7788(3)
C35 C 0.7418(7) 0.7490(4) 0.4847(3)
H22 H 0.6823 0.7639 0.4486
C36 C 1.2271(7) 0.8815(4) 0.6967(3)
C37 C 1.2220(6) 0.9600(3) 0.7141(3)
C38 C 1.3186(6) 1.0081(3) 0.7423(3)
C39 C 1.1306(6) 1.0665(3) 0.7212(3)
C40 C 1.0321(6) 1.1282(3) 0.7147(3)
C41 C 0.9326(6) 1.1282(4) 0.7477(3)
H23 H 0.9276 1.0895 0.7748
C42 C 1.0422(7) 1.1874(4) 0.6747(3)
H24 H 1.1103 1.1889 0.6531
C43 C 0.9465(7) 1.2442(4) 0.6685(3)
H25 H 0.9505 1.2833 0.6415
C44 C 0.8477(7) 1.2434(4) 0.7010(3)
H26 H 0.7860 1.2820 0.6963
C45 C 0.8393(7) 1.1857(4) 0.7408(3)
C46 C 1.4617(6) 0.9991(4) 0.7686(3)
Zn2A Zn 1.38905(8) 1.13826(4) 0.81674(3)
O6A O 0.4760(4) 0.5510(2) 0.7002(2)
N8A N 0.7367(5) 0.5760(3) 0.7531(2)
O11 O 0.8095(5) 0.0567(3) 0.8714(2)
H27 H 0.8715(17) 0.037(2) 0.875(3)
H28 H 0.7312(18) 0.037(2) 0.875(2)
loop_
_geom_bond_atom_site_label_1
_geom_bond_atom_site_label_2
_geom_bond_site_symmetry_1
_geom_bond_site_symmetry_2
Zn1 O2 1_555 1_555
Zn2 O4 1_555 1_555
O1 C33 1_555 1_555
O2 C33 1_555 1_555
O3 C34 1_555 1_555
O4 C34 1_555 1_555
O5 C46 1_555 1_555
O6 C46 1_555 1_555
O7 H1 1_555 1_555
O8 Zn1 1_555 1_555
O9 H2 1_555 1_555
O10 C28 1_555 1_555
N1 Zn2 1_555 1_555
N2 Zn2 1_555 1_555
N3 Zn1 1_555 1_555
N4 Zn1 1_555 1_555
N5 Zn2 1_555 1_555
N6 Zn1 1_555 1_555
N7 Zn1 1_555 1_555
N8 C38 1_555 1_555
C1 N1 1_555 1_555
H3 C1 1_555 1_555
C2 C1 1_555 1_555
H4 C2 1_555 1_555
C3 C2 1_555 1_555
H5 C3 1_555 1_555
C4 N1 1_555 1_555
C5 N2 1_555 1_555
C6 C5 1_555 1_555
C7 C6 1_555 1_555
H6 C7 1_555 1_555
C8 C7 1_555 1_555
H7 C8 1_555 1_555
C9 C3 1_555 1_555
C10 N2 1_555 1_555
H8 C10 1_555 1_555
C11 C10 1_555 1_555
H9 C11 1_555 1_555
C12 C6 1_555 1_555
H10 C12 1_555 1_555
C13 N4 1_555 1_555
H11 C13 1_555 1_555
C14 C13 1_555 1_555
H12 C14 1_555 1_555
C15 C14 1_555 1_555
H13 C15 1_555 1_555
C16 C15 1_555 1_555
C17 N4 1_555 1_555
C18 N3 1_555 1_555
C19 C18 1_555 1_555
C20 C19 1_555 1_555
H14 C20 1_555 1_555
C21 C16 1_555 1_555
H15 C21 1_555 1_555
C22 C19 1_555 1_555
H16 C22 1_555 1_555
C23 C22 1_555 1_555
H17 C23 1_555 1_555
C24 N3 1_555 1_555
H18 C24 1_555 1_555
C25 H19 1_555 1_555
C26 H20 1_555 1_555
C27 H21 1_555 1_555
C28 C25 1_555 1_555
C29 C25 1_555 1_555
C30 N5 1_555 1_555
C31 N6 1_555 1_555
C32 N5 1_555 1_555
C33 C31 1_555 1_555
C34 C32 1_555 1_555
C35 C26 1_555 1_555
H22 C35 1_555 1_555
C36 O7 1_555 1_555
C37 N7 1_555 1_555
C38 C37 1_555 1_555
C39 N7 1_555 1_555
C40 C39 1_555 1_555
C41 C40 1_555 1_555
H23 C41 1_555 1_555
C42 C40 1_555 1_555
H24 C42 1_555 1_555
C43 C42 1_555 1_555
H25 C43 1_555 1_555
C44 C43 1_555 1_555
H26 C44 1_555 1_555
C45 O9 1_555 1_555
C46 C38 1_555 1_555
O11 H27 1_555 1_555
H28 O11 1_555 1_555
Zn2A O6 1_555 1_555
O6A Zn2 1_555 1_555
N8A Zn2 1_555 1_555
O8 C36 1_555 1_555
N6 C30 1_555 1_555
N8 C39 1_555 1_555
N8 Zn2A 1_555 1_555
C4 C5 1_555 1_555
C4 C9 1_555 1_555
C8 C9 1_555 1_555
C11 C12 1_555 1_555
C16 C17 1_555 1_555
C17 C18 1_555 1_555
C20 C21 1_555 1_555
C23 C24 1_555 1_555
C26 C29 1_555 1_555
C27 C28 1_555 1_555
C27 C35 1_555 1_555
C29 C30 1_555 1_555
C31 C32 1_555 1_555
C36 C37 1_555 1_555
C41 C45 1_555 1_555
C44 C45 1_555 1_555

#END
