
#######################################################################
#
#                 Cambridge Crystallographic Data Centre
#                                CCDC 
#
#######################################################################
#
# If this CIF has been generated from an entry in the Cambridge 
# Structural Database, then it will include bibliographic, chemical, 
# crystal, experimental, refinement or atomic coordinate data resulting 
# from the CCDC's data processing and validation procedures.
#
#######################################################################

data_XOQDAJ
_symmetry_cell_setting           monoclinic
_symmetry_space_group_name_H-M   'P 21/c'
_symmetry_Int_Tables_number      14
_space_group_name_Hall           '-P 2ybc'
loop_
_symmetry_equiv_pos_site_id
_symmetry_equiv_pos_as_xyz
1 x,y,z
2 -x,1/2+y,1/2-z
3 -x,-y,-z
4 x,1/2-y,1/2+z
_cell_length_a                   11.318(2)
_cell_length_b                   11.271(2)
_cell_length_c                   10.596(2)
_cell_angle_alpha                90
_cell_angle_beta                 91.87(3)
_cell_angle_gamma                90
_cell_volume                     1350.96
loop_
_atom_site_label
_atom_site_type_symbol
_atom_site_fract_x
_atom_site_fract_y
_atom_site_fract_z
S1 S 0.2336(2) 1.1985(2) -0.0408(2)
Na1 Na 0.1890(3) 0.9880(3) -0.1832(2)
S2 S 0.7912(2) 1.2652(2) -0.0388(2)
O1 O 0.8502(4) 1.1627(4) 0.0195(3)
O2 O 0.8215(4) 1.2819(4) -0.1703(3)
O3 O 0.8127(4) 1.3710(4) 0.0369(3)
Na2 Na 0.9603(3) 1.1849(3) -0.3099(2)
N1 N 0.4042(5) 1.0323(4) -0.1622(4)
C1 C 0.4699(7) 0.9538(6) -0.2192(6)
C2 C 0.5928(7) 0.9599(6) -0.2252(6)
C3 C 0.6495(7) 1.0534(6) -0.1674(6)
C4 C 0.5854(7) 1.1393(6) -0.1035(6)
C5 C 0.6374(7) 1.2383(6) -0.0382(6)
C6 C 0.5675(7) 1.3170(6) 0.0248(6)
C7 C 0.4441(8) 1.3024(6) 0.0242(6)
C8 C 0.3880(7) 1.2107(6) -0.0391(6)
C9 C 0.4590(7) 1.1263(6) -0.1033(6)
O4 O -0.0144(5) 1.0360(4) -0.1586(4)
O5 O 1.1148(5) 1.3252(4) -0.2782(4)
O6 O 0.1299(5) 1.0712(4) -0.3928(4)
H1 H 0.4302 0.8855 -0.2569
H2 H 0.6368 0.8997 -0.2669
H3 H 0.7339 1.0599 -0.1661
H4 H 0.6032 1.3845 0.0630
H5 H 0.3944 1.3556 0.0721
H6 H -0.0473 0.9771 -0.1770
H7 H -0.0444 1.0634 -0.1002
H8 H 1.1457 1.2984 -0.2113
H9 H 1.1562 1.3052 -0.3440
H10 H 0.1308 1.0141 -0.4416
H11 H 0.1555 1.1198 -0.4337
Na1B Na 0.8110(3) 1.0120(3) 0.1832(2)
O1B O 0.1498(4) 0.8373(4) -0.0195(3)
O3C O 0.8127(4) 1.1290(4) -0.4631(3)
Na2C Na 0.9603(3) 1.3151(3) 0.1901(2)
Na2_2 Na -0.0397(3) 1.1849(3) -0.3099(2)
O4_2 O 0.9856(5) 1.0360(4) -0.1586(4)
O6_2 O 1.1299(5) 1.0712(4) -0.3928(4)
H6_2 H 0.9527 0.9771 -0.1770
H7_2 H 0.9556 1.0634 -0.1002
H10_2 H 1.1308 1.0141 -0.4416
H11_2 H 1.1555 1.1198 -0.4337
loop_
_geom_bond_atom_site_label_1
_geom_bond_atom_site_label_2
_geom_bond_site_symmetry_1
_geom_bond_site_symmetry_2
S1 Na1 1_555 1_555
Na1 N1 1_555 1_555
S2 O1 1_555 1_555
O1 Na1B 1_555 1_555
O2 S2 1_555 1_555
O3 S2 1_555 1_555
Na2 O2 1_555 1_555
N1 C1 1_555 1_555
C1 C2 1_555 1_555
C2 C3 1_555 1_555
C3 C4 1_555 1_555
C4 C5 1_555 1_555
C5 S2 1_555 1_555
C6 C5 1_555 1_555
C7 C6 1_555 1_555
C8 S1 1_555 1_555
C9 N1 1_555 1_555
O4 Na1 1_555 1_555
O5 Na2 1_555 1_555
O6 Na1 1_555 1_555
H1 C1 1_555 1_555
H2 C2 1_555 1_555
H3 C3 1_555 1_555
H4 C6 1_555 1_555
H5 C7 1_555 1_555
H6 O4 1_555 1_555
H7 O4 1_555 1_555
H8 O5 1_555 1_555
H9 O5 1_555 1_555
H10 O6 1_555 1_555
H11 O6 1_555 1_555
O1B Na1 1_555 1_555
O3C Na2 1_555 1_555
Na2C O3 1_555 1_555
Na2_2 O4 1_555 1_555
O4_2 Na2 1_555 1_555
O6_2 Na2 1_555 1_555
H6_2 O4_2 1_555 1_555
H7_2 O4_2 1_555 1_555
H10_2 O6_2 1_555 1_555
H11_2 O6_2 1_555 1_555
C4 C9 1_555 1_555
C7 C8 1_555 1_555
C8 C9 1_555 1_555
O6 Na2_2 1_555 1_555

#END
