
#######################################################################
#
#                 Cambridge Crystallographic Data Centre
#                                CCDC 
#
#######################################################################
#
# If this CIF has been generated from an entry in the Cambridge 
# Structural Database, then it will include bibliographic, chemical, 
# crystal, experimental, refinement or atomic coordinate data resulting 
# from the CCDC's data processing and validation procedures.
#
#######################################################################

data_XOQDEO
_symmetry_cell_setting           monoclinic
_symmetry_space_group_name_H-M   'P 21/n'
_symmetry_Int_Tables_number      14
_space_group_name_Hall           '-P 2yn'
loop_
_symmetry_equiv_pos_site_id
_symmetry_equiv_pos_as_xyz
1 x,y,z
2 1/2-x,1/2+y,1/2-z
3 -x,-y,-z
4 1/2+x,1/2-y,1/2+z
_cell_length_a                   9.7323(19)
_cell_length_b                   11.179(2)
_cell_length_c                   13.491(3)
_cell_angle_alpha                90
_cell_angle_beta                 96.52(3)
_cell_angle_gamma                90
_cell_volume                     1458.29
loop_
_atom_site_label
_atom_site_type_symbol
_atom_site_fract_x
_atom_site_fract_y
_atom_site_fract_z
Cd1 Cd 0.0000 0.0000 0.0000
N1 N 0.2000(3) -0.0342(3) 0.1116(2)
N2 N 0.0847(3) 0.1914(3) -0.0335(2)
N3 N 0.1105(3) -0.0637(3) -0.1318(2)
C1 C 0.3233(4) 0.0023(5) 0.0883(4)
H1 H 0.3268 0.0408 0.0275
C2 C 0.4435(5) -0.0140(5) 0.1484(5)
H2 H 0.5259 0.0134 0.1280
C3 C 0.4451(5) -0.0693(4) 0.2375(4)
C4 C 0.5836(6) -0.0876(4) 0.2966(4)
H3 H 0.6612 -0.0792 0.2629
C5 C 0.3178(6) -0.1065(5) 0.2640(3)
H4 H 0.3124 -0.1436 0.3252
C6 C 0.1986(5) -0.0877(5) 0.1984(3)
H5 H 0.1145 -0.1142 0.2166
C7 C 0.6033(6) -0.1128(4) 0.3861(4)
H6 H 0.5267 -0.1222 0.4208
C8 C 0.7432(5) -0.1291(4) 0.4415(4)
C9 C 0.7508(5) -0.1306(5) 0.5436(4)
H7 H 0.6708 -0.1219 0.5747
C10 C 0.8653(6) -0.1468(4) 0.4005(4)
H8 H 0.8652 -0.1479 0.3316
C11 C 0.9891(5) -0.1632(4) 0.4623(3)
H9 H 1.0701 -0.1754 0.4331
N4 N 0.9954(4) -0.1620(3) 0.5610(3)
C12 C 0.8764(5) -0.1448(4) 0.5999(4)
H10 H 0.8790 -0.1424 0.6690
Ag1 Ag 1.22139(3) -0.16761(2) 0.669916(18)
C13 C 0.1491(4) 0.2482(3) -0.0793(2)
C14 C 0.1536(3) -0.0982(3) -0.2005(2)
N1B N -0.2000(3) 0.0342(3) -0.1116(2)
N2B N -0.0847(3) -0.1914(3) 0.0335(2)
N3B N -0.1105(3) 0.0637(3) 0.1318(2)
C1B C -0.3233(4) -0.0023(5) -0.0883(4)
H1B H -0.3268 -0.0408 -0.0275
C2B C -0.4435(5) 0.0140(5) -0.1484(5)
H2B H -0.5259 -0.0134 -0.1280
C3B C -0.4451(5) 0.0693(4) -0.2375(4)
C4B C -0.5836(6) 0.0876(4) -0.2966(4)
H3B H -0.6612 0.0792 -0.2629
C5B C -0.3178(6) 0.1065(5) -0.2640(3)
H4B H -0.3124 0.1436 -0.3252
C6B C -0.1986(5) 0.0877(5) -0.1984(3)
H5B H -0.1145 0.1142 -0.2166
C7B C -0.6033(6) 0.1128(4) -0.3861(4)
H6B H -0.5267 0.1222 -0.4208
C8B C -0.7432(5) 0.1291(4) -0.4415(4)
C9B C -0.7508(5) 0.1306(5) -0.5436(4)
H7B H -0.6708 0.1219 -0.5747
C10B C -0.8653(6) 0.1468(4) -0.4005(4)
H8B H -0.8652 0.1479 -0.3316
C11B C -0.9891(5) 0.1632(4) -0.4623(3)
H9B H -1.0701 0.1754 -0.4331
N4B N -0.9954(4) 0.1620(3) -0.5610(3)
C12B C -0.8764(5) 0.1448(4) -0.5999(4)
H10B H -0.8790 0.1424 -0.6690
Ag1B Ag -1.22139(3) 0.16761(2) -0.669916(18)
C13B C -0.1491(4) -0.2482(3) 0.0793(2)
C14B C -0.1536(3) 0.0982(3) 0.2005(2)
Ag1_2 Ag 0.22139(3) -0.16761(2) -0.330084(18)
Ag1A Ag 0.27861(3) 0.33239(2) -0.169916(18)
Ag1B_2 Ag -0.22139(3) 0.16761(2) 0.330084(18)
Ag1C Ag -0.27861(3) -0.33239(2) 0.169916(18)
C13A C 1.3509(4) -0.2518(3) 0.5793(2)
C13C C -1.3509(4) 0.2518(3) -0.5793(2)
C14_2 C 1.1536(3) -0.0982(3) 0.7995(2)
C14B_2 C -1.1536(3) 0.0982(3) -0.7995(2)
loop_
_geom_bond_atom_site_label_1
_geom_bond_atom_site_label_2
_geom_bond_site_symmetry_1
_geom_bond_site_symmetry_2
Cd1 N1 1_555 1_555
N1 C1 1_555 1_555
N2 Cd1 1_555 1_555
N3 Cd1 1_555 1_555
C1 H1 1_555 1_555
C2 C1 1_555 1_555
H2 C2 1_555 1_555
C3 C2 1_555 1_555
C4 C3 1_555 1_555
H3 C4 1_555 1_555
C5 C3 1_555 1_555
H4 C5 1_555 1_555
C6 N1 1_555 1_555
H5 C6 1_555 1_555
C7 C4 1_555 1_555
H6 C7 1_555 1_555
C8 C7 1_555 1_555
C9 C8 1_555 1_555
H7 C9 1_555 1_555
C10 C8 1_555 1_555
H8 C10 1_555 1_555
C11 C10 1_555 1_555
H9 C11 1_555 1_555
N4 C11 1_555 1_555
C12 C9 1_555 1_555
H10 C12 1_555 1_555
Ag1 N4 1_555 1_555
C13 N2 1_555 1_555
C14 N3 1_555 1_555
N1B Cd1 1_555 1_555
N2B Cd1 1_555 1_555
N3B Cd1 1_555 1_555
C1B N1B 1_555 1_555
H1B C1B 1_555 1_555
C2B C1B 1_555 1_555
H2B C2B 1_555 1_555
C3B C2B 1_555 1_555
C4B C3B 1_555 1_555
H3B C4B 1_555 1_555
C5B C3B 1_555 1_555
H4B C5B 1_555 1_555
C6B N1B 1_555 1_555
H5B C6B 1_555 1_555
C7B C4B 1_555 1_555
H6B C7B 1_555 1_555
C8B C7B 1_555 1_555
C9B C8B 1_555 1_555
H7B C9B 1_555 1_555
C10B C8B 1_555 1_555
H8B C10B 1_555 1_555
C11B C10B 1_555 1_555
H9B C11B 1_555 1_555
N4B C11B 1_555 1_555
C12B C9B 1_555 1_555
H10B C12B 1_555 1_555
Ag1B N4B 1_555 1_555
C13B N2B 1_555 1_555
C14B N3B 1_555 1_555
Ag1_2 C14 1_555 1_555
Ag1A C13 1_555 1_555
Ag1B_2 C14B 1_555 1_555
Ag1C C13B 1_555 1_555
C13A Ag1 1_555 1_555
C13C Ag1B 1_555 1_555
C14_2 Ag1 1_555 1_555
C14B_2 Ag1B 1_555 1_555
C5 C6 1_555 1_555
N4 C12 1_555 1_555
C5B C6B 1_555 1_555
N4B C12B 1_555 1_555

#END
