
#######################################################################
#
#                 Cambridge Crystallographic Data Centre
#                                CCDC 
#
#######################################################################
#
# If this CIF has been generated from an entry in the Cambridge 
# Structural Database, then it will include bibliographic, chemical, 
# crystal, experimental, refinement or atomic coordinate data resulting 
# from the CCDC's data processing and validation procedures.
#
#######################################################################

data_XOQDAK
_symmetry_cell_setting           monoclinic
_symmetry_space_group_name_H-M   'P 21/n'
_symmetry_Int_Tables_number      14
_space_group_name_Hall           '-P 2yn'
loop_
_symmetry_equiv_pos_site_id
_symmetry_equiv_pos_as_xyz
1 x,y,z
2 1/2-x,1/2+y,1/2-z
3 -x,-y,-z
4 1/2+x,1/2-y,1/2+z
_cell_length_a                   7.529(8)
_cell_length_b                   14.898(15)
_cell_length_c                   10.561(11)
_cell_angle_alpha                90
_cell_angle_beta                 99.451(11)
_cell_angle_gamma                90
_cell_volume                     1168.52
loop_
_atom_site_label
_atom_site_type_symbol
_atom_site_fract_x
_atom_site_fract_y
_atom_site_fract_z
Ba1 Ba 0.0000 0.5000 0.5000
N1 N 0.0826(4) 0.3464(2) 0.6729(3)
N2 N 0.1763(5) 0.2116(2) 0.7345(4)
O1 O -0.5789(5) 0.3047(2) 0.4753(3)
H1 H -0.6695 0.2765 0.4451
C1 C 0.3567(5) 0.4355(3) 0.7505(4)
C2 C -0.4449(7) 0.2469(3) 0.5189(4)
C3 C 0.0358(6) 0.2626(3) 0.6732(4)
C4 C -0.1621(6) 0.1327(3) 0.6044(5)
H2 H -0.0675 0.0936 0.6326
C5 C -0.4701(6) 0.1552(4) 0.5063(4)
H3 H -0.5811 0.1316 0.4698
C6 C 0.2584(6) 0.3500(3) 0.7363(4)
C7 C -0.1358(6) 0.2234(3) 0.6185(4)
C8 C -0.2812(6) 0.2806(3) 0.5749(4)
H4 H -0.2664 0.3423 0.5842
C9 C -0.3241(6) 0.0989(3) 0.5499(5)
H5 H -0.3384 0.0371 0.5415
C10 C 0.3182(6) 0.2678(3) 0.7740(4)
O2 O 0.6167(4) 0.2846(2) 0.8801(4)
O3 O 0.4973(4) 0.1492(2) 0.8644(3)
C11 C 0.4860(6) 0.2299(3) 0.8429(4)
O4 O 0.5217(4) 0.4341(2) 0.8091(3)
O5 O 0.3188(8) 0.4877(2) 0.4052(7)
O6 O 0.2844(6) 0.50482(15) 0.7060(5)
H6 H 0.201(5) 0.150(3) 0.753(4)
N1B N -0.0826(4) 0.6536(2) 0.3271(3)
N2B N -0.1763(5) 0.7884(2) 0.2655(4)
O1B O 0.5789(5) 0.6953(2) 0.5247(3)
H1B H 0.6695 0.7235 0.5549
C1B C -0.3567(5) 0.5645(3) 0.2495(4)
C2B C 0.4449(7) 0.7531(3) 0.4811(4)
C3B C -0.0358(6) 0.7374(3) 0.3268(4)
C4B C 0.1621(6) 0.8673(3) 0.3956(5)
H2B H 0.0675 0.9064 0.3674
C5B C 0.4701(6) 0.8448(4) 0.4937(4)
H3B H 0.5811 0.8684 0.5302
C6B C -0.2584(6) 0.6500(3) 0.2637(4)
C7B C 0.1358(6) 0.7766(3) 0.3815(4)
C8B C 0.2812(6) 0.7194(3) 0.4251(4)
H4B H 0.2664 0.6577 0.4158
C9B C 0.3241(6) 0.9011(3) 0.4501(5)
H5B H 0.3384 0.9629 0.4585
C10B C -0.3182(6) 0.7322(3) 0.2260(4)
O2B O -0.6167(4) 0.7154(2) 0.1199(4)
O3B O -0.4973(4) 0.8508(2) 0.1356(3)
C11B C -0.4860(6) 0.7701(3) 0.1571(4)
O4B O -0.5217(4) 0.5659(2) 0.1909(3)
O5B O -0.3188(8) 0.5123(2) 0.5948(7)
O6B O -0.2844(6) 0.49518(15) 0.2940(5)
H6B H -0.201(5) 0.850(3) 0.247(4)
Ba1A Ba -0.5000 1.0000 0.0000
Ba1A_2 Ba 0.5000 0.0000 1.0000
O3A O 0.0027(4) 0.6492(2) 0.6356(3)
O3C O -0.0027(4) 0.3508(2) 0.3644(3)
loop_
_geom_bond_atom_site_label_1
_geom_bond_atom_site_label_2
_geom_bond_site_symmetry_1
_geom_bond_site_symmetry_2
Ba1 N1 1_555 1_555
N1 C3 1_555 1_555
N2 C3 1_555 1_555
O1 H1 1_555 1_555
C1 C6 1_555 1_555
C2 O1 1_555 1_555
C3 C7 1_555 1_555
C4 H2 1_555 1_555
C5 C2 1_555 1_555
H3 C5 1_555 1_555
C6 N1 1_555 1_555
C7 C4 1_555 1_555
C8 C2 1_555 1_555
H4 C8 1_555 1_555
C9 C4 1_555 1_555
H5 C9 1_555 1_555
C10 N2 1_555 1_555
O2 C11 1_555 1_555
O3 C11 1_555 1_555
C11 C10 1_555 1_555
O4 C1 1_555 1_555
O5 Ba1 1_555 1_555
O6 Ba1 1_555 1_555
H6 N2 1_555 1_555
N1B Ba1 1_555 1_555
N2B C3B 1_555 1_555
O1B H1B 1_555 1_555
C1B C6B 1_555 1_555
C2B O1B 1_555 1_555
C3B N1B 1_555 1_555
C4B H2B 1_555 1_555
C5B C2B 1_555 1_555
H3B C5B 1_555 1_555
C6B N1B 1_555 1_555
C7B C3B 1_555 1_555
C8B C2B 1_555 1_555
H4B C8B 1_555 1_555
C9B C4B 1_555 1_555
H5B C9B 1_555 1_555
C10B N2B 1_555 1_555
O2B C11B 1_555 1_555
O3B C11B 1_555 1_555
C11B C10B 1_555 1_555
O4B C1B 1_555 1_555
O5B Ba1 1_555 1_555
O6B Ba1 1_555 1_555
H6B N2B 1_555 1_555
Ba1A O3B 1_555 1_555
Ba1A_2 O3 1_555 1_555
O3A Ba1 1_555 1_555
O3C Ba1 1_555 1_555
C1 O6 1_555 1_555
C5 C9 1_555 1_555
C6 C10 1_555 1_555
C7 C8 1_555 1_555
C1B O6B 1_555 1_555
C4B C7B 1_555 1_555
C5B C9B 1_555 1_555
C6B C10B 1_555 1_555
C7B C8B 1_555 1_555

#END
