
#######################################################################
#
#                 Cambridge Crystallographic Data Centre
#                                CCDC 
#
#######################################################################
#
# If this CIF has been generated from an entry in the Cambridge 
# Structural Database, then it will include bibliographic, chemical, 
# crystal, experimental, refinement or atomic coordinate data resulting 
# from the CCDC's data processing and validation procedures.
#
#######################################################################

data_XOQFIU
_symmetry_cell_setting           monoclinic
_symmetry_space_group_name_H-M   'P 21/n'
_symmetry_Int_Tables_number      14
_space_group_name_Hall           '-P 2yn'
loop_
_symmetry_equiv_pos_site_id
_symmetry_equiv_pos_as_xyz
1 x,y,z
2 1/2-x,1/2+y,1/2-z
3 -x,-y,-z
4 1/2+x,1/2-y,1/2+z
_cell_length_a                   7.6118(10)
_cell_length_b                   14.728(2)
_cell_length_c                   10.5146(14)
_cell_angle_alpha                90
_cell_angle_beta                 100.345(2)
_cell_angle_gamma                90
_cell_volume                     1159.59
loop_
_atom_site_label
_atom_site_type_symbol
_atom_site_fract_x
_atom_site_fract_y
_atom_site_fract_z
Sr1 Sr 1.0000 0.5000 0.5000
O1 O 1.4851(2) 0.14437(12) 0.87029(18)
N1 N 1.1649(3) 0.20925(16) 0.7338(2)
O2 O 0.4155(2) 0.30819(14) 0.4699(2)
H1 H 0.3220 0.2808 0.4446
N2 N 1.0794(3) 0.34691(14) 0.6653(2)
O3 O 1.5215(2) 0.43331(13) 0.7967(2)
H2 H 1.5473 0.3819 0.8238
O4 O 1.2864(3) 0.50473(11) 0.6896(2)
C1 C 0.5470(3) 0.24774(19) 0.5150(2)
C2 C 1.2550(3) 0.34879(17) 0.7290(2)
C3 C 1.3554(3) 0.43493(19) 0.7376(3)
C4 C 0.8537(3) 0.22403(18) 0.6152(2)
C5 C 0.8278(4) 0.1308(2) 0.6029(3)
H3 H 0.9212 0.0909 0.6316
C6 C 0.7124(3) 0.28180(18) 0.5705(2)
H4 H 0.7289 0.3443 0.5779
C7 C 1.3091(3) 0.26347(17) 0.7716(2)
C8 C 0.5214(3) 0.1550(2) 0.5042(3)
H5 H 0.4103 0.1315 0.4680
C9 C 1.0290(3) 0.26075(17) 0.6702(2)
C10 C 0.6621(4) 0.0981(2) 0.5476(4)
H6 H 0.6451 0.0357 0.5395
O5 O 1.6081(2) 0.28100(13) 0.87650(18)
O6 O 1.2893(4) 0.4901(2) 0.4014(3)
C11 C 1.4777(3) 0.22558(17) 0.8440(2)
H7 H 1.292(8) 0.509(3) 0.329(6)
H8 H 1.336(6) 0.449(3) 0.418(4)
H9 H 1.163(4) 0.152(2) 0.747(3)
O1B O 0.5149(2) 0.85563(12) 0.12971(18)
N1B N 0.8351(3) 0.79075(16) 0.2662(2)
O2B O 1.5845(2) 0.69181(14) 0.5301(2)
H1B H 1.6780 0.7192 0.5554
N2B N 0.9206(3) 0.65309(14) 0.3347(2)
O3B O 0.4785(2) 0.56669(13) 0.2033(2)
H2B H 0.4527 0.6181 0.1762
O4B O 0.7136(3) 0.49527(11) 0.3104(2)
C1B C 1.4530(3) 0.75226(19) 0.4850(2)
C2B C 0.7450(3) 0.65121(17) 0.2710(2)
C3B C 0.6446(3) 0.56507(19) 0.2624(3)
C4B C 1.1463(3) 0.77597(18) 0.3848(2)
C5B C 1.1722(4) 0.8692(2) 0.3971(3)
H3B H 1.0788 0.9091 0.3684
C6B C 1.2876(3) 0.71820(18) 0.4295(2)
H4B H 1.2711 0.6557 0.4221
C7B C 0.6909(3) 0.73653(17) 0.2284(2)
C8B C 1.4786(3) 0.8450(2) 0.4958(3)
H5B H 1.5897 0.8685 0.5320
C9B C 0.9710(3) 0.73925(17) 0.3298(2)
C10B C 1.3379(4) 0.9019(2) 0.4524(4)
H6B H 1.3549 0.9643 0.4605
O5B O 0.3919(2) 0.71900(13) 0.12350(18)
O6B O 0.7107(4) 0.5099(2) 0.5986(3)
C11B C 0.5223(3) 0.77442(17) 0.1560(2)
H7B H 0.708(8) 0.491(3) 0.671(6)
H8B H 0.664(6) 0.551(3) 0.582(4)
H9B H 0.837(4) 0.848(2) 0.253(3)
Sr1A Sr 0.5000 1.0000 0.0000
Sr1A_2 Sr 1.5000 0.0000 1.0000
O1A O 1.0149(2) 0.64437(12) 0.62971(18)
O1C O 0.9851(2) 0.35563(12) 0.37029(18)
loop_
_geom_bond_atom_site_label_1
_geom_bond_atom_site_label_2
_geom_bond_site_symmetry_1
_geom_bond_site_symmetry_2
Sr1 N2 1_555 1_555
O1 C11 1_555 1_555
N1 C7 1_555 1_555
O2 H1 1_555 1_555
N2 C2 1_555 1_555
O3 H2 1_555 1_555
O4 Sr1 1_555 1_555
C1 O2 1_555 1_555
C2 C3 1_555 1_555
C3 O3 1_555 1_555
C4 C5 1_555 1_555
C5 H3 1_555 1_555
C6 C1 1_555 1_555
H4 C6 1_555 1_555
C7 C2 1_555 1_555
C8 C1 1_555 1_555
H5 C8 1_555 1_555
C9 N1 1_555 1_555
C10 C5 1_555 1_555
H6 C10 1_555 1_555
O5 C11 1_555 1_555
O6 Sr1 1_555 1_555
C11 C7 1_555 1_555
H7 O6 1_555 1_555
H8 O6 1_555 1_555
H9 N1 1_555 1_555
O1B C11B 1_555 1_555
N1B C7B 1_555 1_555
O2B H1B 1_555 1_555
N2B Sr1 1_555 1_555
O3B H2B 1_555 1_555
O4B Sr1 1_555 1_555
C1B O2B 1_555 1_555
C2B N2B 1_555 1_555
C3B O3B 1_555 1_555
C4B C5B 1_555 1_555
C5B H3B 1_555 1_555
C6B C1B 1_555 1_555
H4B C6B 1_555 1_555
C7B C2B 1_555 1_555
C8B C1B 1_555 1_555
H5B C8B 1_555 1_555
C9B N1B 1_555 1_555
C10B C5B 1_555 1_555
H6B C10B 1_555 1_555
O5B C11B 1_555 1_555
O6B Sr1 1_555 1_555
C11B C7B 1_555 1_555
H7B O6B 1_555 1_555
H8B O6B 1_555 1_555
H9B N1B 1_555 1_555
Sr1A O1B 1_555 1_555
Sr1A_2 O1 1_555 1_555
O1A Sr1 1_555 1_555
O1C Sr1 1_555 1_555
N2 C9 1_555 1_555
O4 C3 1_555 1_555
C4 C6 1_555 1_555
C4 C9 1_555 1_555
C8 C10 1_555 1_555
N2B C9B 1_555 1_555
O4B C3B 1_555 1_555
C2B C3B 1_555 1_555
C4B C6B 1_555 1_555
C4B C9B 1_555 1_555
C8B C10B 1_555 1_555

#END
