
#######################################################################
#
#                 Cambridge Crystallographic Data Centre
#                                CCDC 
#
#######################################################################
#
# If this CIF has been generated from an entry in the Cambridge 
# Structural Database, then it will include bibliographic, chemical, 
# crystal, experimental, refinement or atomic coordinate data resulting 
# from the CCDC's data processing and validation procedures.
#
#######################################################################

data_XOQHIW
_symmetry_cell_setting           triclinic
_symmetry_space_group_name_H-M   'P -1'
_symmetry_Int_Tables_number      2
_space_group_name_Hall           '-P 1'
loop_
_symmetry_equiv_pos_site_id
_symmetry_equiv_pos_as_xyz
1 x,y,z
2 -x,-y,-z
_cell_length_a                   8.5403(9)
_cell_length_b                   9.0663(9)
_cell_length_c                   11.6497(11)
_cell_angle_alpha                86.826(2)
_cell_angle_beta                 69.090(2)
_cell_angle_gamma                87.443(2)
_cell_volume                     841.027
loop_
_atom_site_label
_atom_site_type_symbol
_atom_site_fract_x
_atom_site_fract_y
_atom_site_fract_z
Cu1 Cu 0.0000 0.5000 1.0000
O1 O 0.4095(2) 0.46142(17) 0.17620(13)
N1 N 0.5631(2) 0.70295(19) 0.03085(16)
C1 C 0.4711(3) 0.7724(3) 0.1334(2)
H1 H 0.3768 0.7267 0.1886
O2 O -0.1862(2) 0.37846(17) 0.99949(13)
H2 H -0.2753 0.3561 1.0591
H3 H -0.1874 0.3358 0.9366
Cu2 Cu 0.5000 0.5000 0.0000
O3 O 0.5932(2) 0.30055(19) 0.21506(14)
N2 N 1.0182(2) 0.9094(2) -0.19553(19)
H4 H 1.0141 0.8145 -0.1892
C2 C 0.5118(3) 0.9091(3) 0.1596(2)
H5 H 0.4457 0.9543 0.2312
O4 O 0.15192(19) 0.40919(17) 0.84828(12)
C3 C 0.6508(3) 0.9774(3) 0.0789(2)
H6 H 0.6790 1.0700 0.0949
O5 O 0.0203(2) 0.59750(18) 0.79070(14)
C4 C 0.7492(3) 0.9071(2) -0.0270(2)
C5 C 0.7000(3) 0.7697(2) -0.04795(19)
H7 H 0.7642 0.7224 -0.1190
O6 O 0.8958(3) 1.1243(2) -0.1184(2)
C6 C 0.8955(3) 0.9875(2) -0.1175(2)
C7 C 1.1598(3) 0.9776(3) -0.2924(2)
H8 H 1.2635 0.9355 -0.2869
H9 H 1.1572 1.0826 -0.2796
C8 C 1.1578(4) 0.9557(4) -0.4191(3)
H10 H 1.2536 1.0039 -0.4793
H11 H 1.1695 0.8509 -0.4341
C9 C 1.0021(4) 1.0150(5) -0.4368(3)
H12 H 0.9933 1.1208 -0.4262
H13 H 0.9058 0.9706 -0.3740
C10 C 0.4676(3) 0.3845(2) 0.24770(18)
C11 C 0.3733(3) 0.4034(2) 0.38323(18)
C12 C 0.2409(3) 0.5058(3) 0.42099(19)
H14 H 0.2053 0.5569 0.3629
C13 C 0.1619(3) 0.5322(3) 0.5440(2)
H15 H 0.0751 0.6026 0.5680
C14 C 0.2105(2) 0.4546(2) 0.63289(18)
C15 C 0.3405(3) 0.3494(2) 0.59580(18)
H16 H 0.3729 0.2954 0.6543
C16 C 0.4219(3) 0.3248(2) 0.47169(19)
H17 H 0.5096 0.2553 0.4474
C17 C 0.1219(3) 0.4901(2) 0.76532(18)
N1A N 1.4369(2) 1.29705(19) -1.03085(16)
C1A C 1.5289(3) 1.2276(3) -1.1334(2)
H1A H 1.6232 1.2733 -1.1886
N2A N 0.9818(2) 1.0906(2) -0.80447(19)
H4A H 0.9859 1.1855 -0.8108
C2A C 1.4882(3) 1.0909(3) -1.1596(2)
H5A H 1.5543 1.0457 -1.2312
C3A C 1.3492(3) 1.0226(3) -1.0789(2)
H6A H 1.3210 0.9300 -1.0949
C4A C 1.2508(3) 1.0929(2) -0.9730(2)
C5A C 1.3000(3) 1.2303(2) -0.95205(19)
H7A H 1.2358 1.2776 -0.8810
O6A O 1.1042(3) 0.8757(2) -0.8816(2)
C6A C 1.1045(3) 1.0125(2) -0.8825(2)
C7A C 0.8402(3) 1.0224(3) -0.7076(2)
H8A H 0.7365 1.0645 -0.7131
H9A H 0.8428 0.9174 -0.7204
C8A C 0.8422(4) 1.0443(4) -0.5809(3)
H10A H 0.7464 0.9961 -0.5207
H11A H 0.8305 1.1491 -0.5659
C9A C 0.9979(4) 0.9850(5) -0.5632(3)
H12A H 1.0067 0.8792 -0.5738
H13A H 1.0942 1.0294 -0.6260
O1A O -0.4095(2) 0.53858(17) 1.82380(13)
O2A O 0.1862(2) 0.62154(17) 1.00051(13)
H2A H 0.2753 0.6439 0.9409
H3A H 0.1874 0.6642 1.0634
O3A O -0.5932(2) 0.69945(19) 1.78494(14)
O4A O -0.15192(19) 0.59081(17) 1.15172(12)
O5A O -0.0203(2) 0.40250(18) 1.20930(14)
C10A C -0.4676(3) 0.6155(2) 1.75230(18)
C11A C -0.3733(3) 0.5966(2) 1.61677(18)
C12A C -0.2409(3) 0.4942(3) 1.57901(19)
H14A H -0.2053 0.4431 1.6371
C13A C -0.1619(3) 0.4678(3) 1.4560(2)
H15A H -0.0751 0.3974 1.4320
C14A C -0.2105(2) 0.5454(2) 1.36711(18)
C15A C -0.3405(3) 0.6506(2) 1.40420(18)
H16A H -0.3729 0.7046 1.3457
C16A C -0.4219(3) 0.6752(2) 1.52831(19)
H17A H -0.5096 0.7447 1.5526
C17A C -0.1219(3) 0.5099(2) 1.23468(18)
O1A_2 O 0.5905(2) 0.53858(17) -0.17620(13)
N1A_2 N 0.4369(2) 0.29705(19) -0.03085(16)
Cu2_2 Cu -0.5000 0.5000 2.0000
Cu2_3 Cu 1.5000 1.5000 -1.0000
loop_
_geom_bond_atom_site_label_1
_geom_bond_atom_site_label_2
_geom_bond_site_symmetry_1
_geom_bond_site_symmetry_2
Cu1 O2 1_555 1_555
O1 Cu2 1_555 1_555
N1 C1 1_555 1_555
C1 H1 1_555 1_555
O2 H2 1_555 1_555
H3 O2 1_555 1_555
Cu2 N1 1_555 1_555
O3 C10 1_555 1_555
N2 H4 1_555 1_555
C2 C1 1_555 1_555
H5 C2 1_555 1_555
O4 Cu1 1_555 1_555
C3 C2 1_555 1_555
H6 C3 1_555 1_555
O5 Cu1 1_555 1_555
C4 C3 1_555 1_555
C5 N1 1_555 1_555
H7 C5 1_555 1_555
O6 C6 1_555 1_555
C6 N2 1_555 1_555
C7 N2 1_555 1_555
H8 C7 1_555 1_555
H9 C7 1_555 1_555
C8 C7 1_555 1_555
H10 C8 1_555 1_555
H11 C8 1_555 1_555
C9 C8 1_555 1_555
H12 C9 1_555 1_555
H13 C9 1_555 1_555
C10 O1 1_555 1_555
C11 C10 1_555 1_555
C12 C11 1_555 1_555
H14 C12 1_555 1_555
C13 C12 1_555 1_555
H15 C13 1_555 1_555
C14 C13 1_555 1_555
C15 C14 1_555 1_555
H16 C15 1_555 1_555
C16 C11 1_555 1_555
H17 C16 1_555 1_555
C17 O4 1_555 1_555
N1A C1A 1_555 1_555
C1A H1A 1_555 1_555
N2A H4A 1_555 1_555
C2A C1A 1_555 1_555
H5A C2A 1_555 1_555
C3A C2A 1_555 1_555
H6A C3A 1_555 1_555
C4A C3A 1_555 1_555
C5A N1A 1_555 1_555
H7A C5A 1_555 1_555
O6A C6A 1_555 1_555
C6A N2A 1_555 1_555
C7A N2A 1_555 1_555
H8A C7A 1_555 1_555
H9A C7A 1_555 1_555
C8A C7A 1_555 1_555
H10A C8A 1_555 1_555
H11A C8A 1_555 1_555
C9A C9 1_555 1_555
H12A C9A 1_555 1_555
H13A C9A 1_555 1_555
O1A C10A 1_555 1_555
O2A Cu1 1_555 1_555
H2A O2A 1_555 1_555
H3A O2A 1_555 1_555
O3A C10A 1_555 1_555
O4A Cu1 1_555 1_555
O5A Cu1 1_555 1_555
C10A C11A 1_555 1_555
C11A C12A 1_555 1_555
C12A H14A 1_555 1_555
C13A C12A 1_555 1_555
H15A C13A 1_555 1_555
C14A C13A 1_555 1_555
C15A C14A 1_555 1_555
H16A C15A 1_555 1_555
C16A C11A 1_555 1_555
H17A C16A 1_555 1_555
C17A O4A 1_555 1_555
O1A_2 Cu2 1_555 1_555
N1A_2 Cu2 1_555 1_555
Cu2_2 O1A 1_555 1_555
Cu2_3 N1A 1_555 1_555
O5 C17 1_555 1_555
C4 C5 1_555 1_555
C4 C6 1_555 1_555
C14 C17 1_555 1_555
C15 C16 1_555 1_555
C4A C5A 1_555 1_555
C4A C6A 1_555 1_555
C8A C9A 1_555 1_555
O5A C17A 1_555 1_555
C14A C17A 1_555 1_555
C15A C16A 1_555 1_555

#END
