
#######################################################################
#
#                 Cambridge Crystallographic Data Centre
#                                CCDC 
#
#######################################################################
#
# If this CIF has been generated from an entry in the Cambridge 
# Structural Database, then it will include bibliographic, chemical, 
# crystal, experimental, refinement or atomic coordinate data resulting 
# from the CCDC's data processing and validation procedures.
#
#######################################################################

data_XOQHOC
_symmetry_cell_setting           triclinic
_symmetry_space_group_name_H-M   'P -1'
_symmetry_Int_Tables_number      2
_space_group_name_Hall           '-P 1'
loop_
_symmetry_equiv_pos_site_id
_symmetry_equiv_pos_as_xyz
1 x,y,z
2 -x,-y,-z
_cell_length_a                   7.4293(4)
_cell_length_b                   9.6186(5)
_cell_length_c                   10.0314(5)
_cell_angle_alpha                113.8680(10)
_cell_angle_beta                 90.2780(10)
_cell_angle_gamma                97.4930(10)
_cell_volume                     648.623
loop_
_atom_site_label
_atom_site_type_symbol
_atom_site_fract_x
_atom_site_fract_y
_atom_site_fract_z
Co1 Co 0.5000 0.5000 0.0000
O1 O 0.70247(15) 0.67777(12) 0.01881(12)
N1 N 0.66041(18) 0.45306(15) 0.15441(14)
C1 C 0.8418(2) 0.48852(19) 0.16619(18)
H1 H 0.8960 0.5366 0.1095
O2 O 0.35585(15) 0.65670(13) 0.16337(12)
H2 H 0.3714 0.6655 0.2506
H3 H 0.4052 0.7395 0.1590
O3 O 0.55751(16) 0.88229(14) 0.11544(15)
N2 N 0.4697(2) 0.15743(19) 0.36266(18)
H4 H 0.4647 0.1144 0.2688
C2 C 0.9519(2) 0.4571(2) 0.2584(2)
H5 H 1.0776 0.4824 0.2629
O4 O 0.6244(2) 0.34450(18) 0.56214(14)
C3 C 0.8727(2) 0.3875(2) 0.34372(19)
H6 H 0.9440 0.3665 0.4079
C4 C 0.6854(2) 0.34906(18) 0.33285(17)
C5 C 0.5850(2) 0.38363(18) 0.23656(17)
H7 H 0.4592 0.3574 0.2286
C6 C 0.5905(2) 0.2820(2) 0.42952(18)
C7 C 0.3448(3) 0.0889(2) 0.4381(2)
H8 H 0.4000 0.1097 0.5333
H9 H 0.3229 -0.0217 0.3829
C8 C 0.1661(3) 0.1508(2) 0.4568(3)
H10 H 0.1095 0.1267 0.3612
H11 H 0.1890 0.2617 0.5085
C9 C 0.0342(3) 0.0849(3) 0.5409(3)
H12 H 0.0949 0.1015 0.6331
H13 H -0.0692 0.1408 0.5628
C10 C 0.6913(2) 0.81892(17) 0.05835(17)
C11 C 0.8520(2) 0.91396(17) 0.03034(17)
C12 C 1.0264(2) 0.87605(18) 0.03108(18)
H14 H 1.0446 0.7929 0.0520
C13 C 1.1732(2) 0.96094(18) 0.00092(18)
H15 H 1.2891 0.9344 0.0015
O1A O 1.29753(15) 1.32223(12) -0.01881(12)
O3A O 1.44249(16) 1.11771(14) -0.11544(15)
C10A C 1.3087(2) 1.18108(17) -0.05835(17)
C11A C 1.1480(2) 1.08604(17) -0.03034(17)
C12A C 0.9736(2) 1.12395(18) -0.03108(18)
H14A H 0.9554 1.2071 -0.0520
C13A C 0.8268(2) 1.03906(18) -0.00092(18)
H15A H 0.7109 1.0656 -0.0015
N1A N -0.66041(18) -0.45306(15) 0.84559(14)
C1A C -0.8418(2) -0.48852(19) 0.83381(18)
H1A H -0.8960 -0.5366 0.8905
N2A N -0.4697(2) -0.15743(19) 0.63734(18)
H4A H -0.4647 -0.1144 0.7312
C2A C -0.9519(2) -0.4571(2) 0.7416(2)
H5A H -1.0776 -0.4824 0.7371
O4A O -0.6244(2) -0.34450(18) 0.43786(14)
C3A C -0.8727(2) -0.3875(2) 0.65628(19)
H6A H -0.9440 -0.3665 0.5921
C4A C -0.6854(2) -0.34906(18) 0.66715(17)
C5A C -0.5850(2) -0.38363(18) 0.76344(17)
H7A H -0.4592 -0.3574 0.7714
C6A C -0.5905(2) -0.2820(2) 0.57048(18)
C7A C -0.3448(3) -0.0889(2) 0.5619(2)
H8A H -0.4000 -0.1097 0.4667
H9A H -0.3229 0.0217 0.6171
C8A C -0.1661(3) -0.1508(2) 0.5432(3)
H10A H -0.1095 -0.1267 0.6388
H11A H -0.1890 -0.2617 0.4915
C9A C -0.0342(3) -0.0849(3) 0.4591(3)
H12A H -0.0949 -0.1015 0.3669
H13A H 0.0692 -0.1408 0.4372
O2A O 0.64415(15) 0.34330(13) -0.16337(12)
H2A H 0.6286 0.3345 -0.2506
H3A H 0.5948 0.2605 -0.1590
Co1_2 Co -0.5000 -0.5000 1.0000
Co1_3 Co 1.5000 1.5000 0.0000
O1A_2 O 0.29753(15) 0.32223(12) -0.01881(12)
N1A_2 N 0.33959(18) 0.54694(15) -0.15441(14)
loop_
_geom_bond_atom_site_label_1
_geom_bond_atom_site_label_2
_geom_bond_site_symmetry_1
_geom_bond_site_symmetry_2
Co1 O1 1_555 1_555
O1 C10 1_555 1_555
N1 Co1 1_555 1_555
C1 N1 1_555 1_555
H1 C1 1_555 1_555
O2 Co1 1_555 1_555
H2 O2 1_555 1_555
H3 O2 1_555 1_555
O3 C10 1_555 1_555
N2 H4 1_555 1_555
C2 C1 1_555 1_555
H5 C2 1_555 1_555
O4 C6 1_555 1_555
C3 C2 1_555 1_555
H6 C3 1_555 1_555
C4 C3 1_555 1_555
C5 N1 1_555 1_555
H7 C5 1_555 1_555
C6 N2 1_555 1_555
C7 N2 1_555 1_555
H8 C7 1_555 1_555
H9 C7 1_555 1_555
C8 C7 1_555 1_555
H10 C8 1_555 1_555
H11 C8 1_555 1_555
C9 C8 1_555 1_555
H12 C9 1_555 1_555
H13 C9 1_555 1_555
C10 C11 1_555 1_555
C11 C12 1_555 1_555
C12 H14 1_555 1_555
C13 C12 1_555 1_555
H15 C13 1_555 1_555
O1A C10A 1_555 1_555
O3A C10A 1_555 1_555
C10A C11A 1_555 1_555
C11A C13 1_555 1_555
C12A C11A 1_555 1_555
H14A C12A 1_555 1_555
C13A C11 1_555 1_555
H15A C13A 1_555 1_555
N1A C1A 1_555 1_555
C1A H1A 1_555 1_555
N2A H4A 1_555 1_555
C2A C1A 1_555 1_555
H5A C2A 1_555 1_555
O4A C6A 1_555 1_555
C3A C2A 1_555 1_555
H6A C3A 1_555 1_555
C4A C3A 1_555 1_555
C5A N1A 1_555 1_555
H7A C5A 1_555 1_555
C6A N2A 1_555 1_555
C7A N2A 1_555 1_555
H8A C7A 1_555 1_555
H9A C7A 1_555 1_555
C8A C7A 1_555 1_555
H10A C8A 1_555 1_555
H11A C8A 1_555 1_555
C9A C9 1_555 1_555
H12A C9A 1_555 1_555
H13A C9A 1_555 1_555
O2A Co1 1_555 1_555
H2A O2A 1_555 1_555
H3A O2A 1_555 1_555
Co1_2 N1A 1_555 1_555
Co1_3 O1A 1_555 1_555
O1A_2 Co1 1_555 1_555
N1A_2 Co1 1_555 1_555
C4 C5 1_555 1_555
C4 C6 1_555 1_555
C12A C13A 1_555 1_555
C4A C5A 1_555 1_555
C4A C6A 1_555 1_555
C8A C9A 1_555 1_555

#END
