
#######################################################################
#
#                 Cambridge Crystallographic Data Centre
#                                CCDC 
#
#######################################################################
#
# If this CIF has been generated from an entry in the Cambridge 
# Structural Database, then it will include bibliographic, chemical, 
# crystal, experimental, refinement or atomic coordinate data resulting 
# from the CCDC's data processing and validation procedures.
#
#######################################################################

data_XOQHES
_symmetry_cell_setting           triclinic
_symmetry_space_group_name_H-M   'P -1'
_symmetry_Int_Tables_number      2
_space_group_name_Hall           '-P 1'
loop_
_symmetry_equiv_pos_site_id
_symmetry_equiv_pos_as_xyz
1 x,y,z
2 -x,-y,-z
_cell_length_a                   7.293(3)
_cell_length_b                   10.585(5)
_cell_length_c                   13.134(5)
_cell_angle_alpha                91.504(7)
_cell_angle_beta                 92.425(7)
_cell_angle_gamma                94.077(7)
_cell_volume                     1009.99
loop_
_atom_site_label
_atom_site_type_symbol
_atom_site_fract_x
_atom_site_fract_y
_atom_site_fract_z
Cu1 Cu 0.71217(5) 0.09609(3) 0.98532(3)
O1 O 0.8228(3) 0.18556(19) 0.87344(16)
N1 N 0.6470(3) 0.2556(2) 1.05855(19)
C1 C 0.5291(4) 0.2491(3) 1.1341(2)
H1 H 0.4769 0.1697 1.1500
O2 O 0.8158(3) -0.05614(19) 0.92444(15)
H2 H 0.9088 -0.0488 0.8876
H3 H 0.8244 -0.1223 0.9591
O3 O 1.1068(3) 0.22691(19) 0.94406(15)
N2 N 0.2172(4) 0.2483(3) 1.2642(2)
H4 H 0.2107 0.2034 1.2085
C2 C 0.4803(4) 0.3538(3) 1.1900(2)
O4 O 1.3981(3) 0.01974(18) 0.91329(14)
C3 C 0.5609(5) 0.4722(3) 1.1670(3)
H5 H 0.5338 0.5445 1.2035
O5 O 1.1249(3) -0.01522(19) 0.83159(16)
C4 C 0.6815(5) 0.4802(3) 1.0893(3)
H6 H 0.7356 0.5584 1.0719
C5 C 0.7217(5) 0.3715(3) 1.0373(3)
H7 H 0.8040 0.3785 0.9852
O6 O 0.3642(4) 0.4179(2) 1.3485(2)
C6 C 0.3480(5) 0.3430(3) 1.2757(3)
C7 C 0.0846(5) 0.2170(3) 1.3416(3)
H8 H -0.0385 0.2098 1.3100
H9 H 0.0904 0.2851 1.3928
C8 C 0.1210(5) 0.0943(3) 1.3927(3)
H10 H 0.2430 0.1023 1.4256
H11 H 0.1183 0.0266 1.3413
C9 C -0.0197(5) 0.0597(3) 1.4716(3)
H12 H -0.1407 0.0476 1.4377
H13 H -0.0218 0.1298 1.5205
C10 C 0.9944(4) 0.2200(3) 0.8694(2)
C11 C 1.0575(4) 0.2650(3) 0.7681(2)
C12 C 0.9570(5) 0.3538(3) 0.7220(2)
H14 H 0.8445 0.3711 0.7481
C13 C 1.0175(5) 0.4194(3) 0.6373(3)
H15 H 0.9468 0.4799 0.6082
C14 C 1.1807(5) 0.3938(3) 0.5978(2)
H16 H 1.2234 0.4396 0.5430
C15 C 1.2864(4) 0.2989(3) 0.6386(2)
C16 C 1.4541(4) 0.2721(3) 0.5943(2)
H17 H 1.4928 0.3173 0.5384
C17 C 1.5589(5) 0.1820(3) 0.6321(3)
H18 H 1.6687 0.1659 0.6023
C18 C 1.5012(4) 0.1129(3) 0.7165(2)
H19 H 1.5740 0.0513 0.7421
C19 C 1.3395(4) 0.1346(3) 0.7620(2)
C20 C 1.2807(4) 0.0422(3) 0.8415(2)
C21 C 1.2260(4) 0.2306(3) 0.7257(2)
N1A N -0.6470(3) -0.2556(2) 1.94145(19)
C1A C -0.5291(4) -0.2491(3) 1.8659(2)
H1A H -0.4769 -0.1697 1.8500
N2A N -0.2172(4) -0.2483(3) 1.7358(2)
H4A H -0.2107 -0.2034 1.7915
C2A C -0.4803(4) -0.3538(3) 1.8100(2)
C3A C -0.5609(5) -0.4722(3) 1.8330(3)
H5A H -0.5338 -0.5445 1.7965
C4A C -0.6815(5) -0.4802(3) 1.9107(3)
H6A H -0.7356 -0.5584 1.9281
C5A C -0.7217(5) -0.3715(3) 1.9627(3)
H7A H -0.8040 -0.3785 2.0148
O6A O -0.3642(4) -0.4179(2) 1.6515(2)
C6A C -0.3480(5) -0.3430(3) 1.7243(3)
C7A C -0.0846(5) -0.2170(3) 1.6584(3)
H8A H 0.0385 -0.2098 1.6900
H9A H -0.0904 -0.2851 1.6072
C8A C -0.1210(5) -0.0943(3) 1.6073(3)
H10A H -0.2430 -0.1023 1.5744
H11A H -0.1183 -0.0266 1.6587
C9A C 0.0197(5) -0.0597(3) 1.5284(3)
H12A H 0.1407 -0.0476 1.5623
H13A H 0.0218 -0.1298 1.4795
Cu1A Cu -0.71217(5) -0.09609(3) 2.01468(3)
O1A O -0.8228(3) -0.18556(19) 2.12656(16)
O2A O -0.8158(3) 0.05614(19) 2.07556(15)
H2A H -0.9088 0.0488 2.1124
H3A H -0.8244 0.1223 2.0409
O3A O -1.1068(3) -0.22691(19) 2.05594(15)
O4A O -1.3981(3) -0.01974(18) 2.08671(14)
O5A O -1.1249(3) 0.01522(19) 2.16841(16)
C10A C -0.9944(4) -0.2200(3) 2.1306(2)
C11A C -1.0575(4) -0.2650(3) 2.2319(2)
C12A C -0.9570(5) -0.3538(3) 2.2780(2)
H14A H -0.8445 -0.3711 2.2519
C13A C -1.0175(5) -0.4194(3) 2.3627(3)
H15A H -0.9468 -0.4799 2.3918
C14A C -1.1807(5) -0.3938(3) 2.4022(2)
H16A H -1.2234 -0.4396 2.4570
C15A C -1.2864(4) -0.2989(3) 2.3614(2)
C16A C -1.4541(4) -0.2721(3) 2.4057(2)
H17A H -1.4928 -0.3173 2.4616
C17A C -1.5589(5) -0.1820(3) 2.3679(3)
H18A H -1.6687 -0.1659 2.3977
C18A C -1.5012(4) -0.1129(3) 2.2835(2)
H19A H -1.5740 -0.0513 2.2579
C19A C -1.3395(4) -0.1346(3) 2.2380(2)
C20A C -1.2807(4) -0.0422(3) 2.1585(2)
C21A C -1.2260(4) -0.2306(3) 2.2743(2)
Cu1_2 Cu -1.28783(5) 0.09609(3) 1.98532(3)
Cu1_3 Cu 1.71217(5) 0.09609(3) 0.98532(3)
Cu1A_2 Cu -1.71217(5) -0.09609(3) 2.01468(3)
Cu1A_3 Cu 1.28783(5) -0.09609(3) 1.01468(3)
O4_2 O -0.6019(3) 0.01974(18) 1.91329(14)
O4_3 O 0.3981(3) 0.01974(18) 0.91329(14)
O4A_2 O -0.3981(3) -0.01974(18) 2.08671(14)
O4A_3 O 0.6019(3) -0.01974(18) 1.08671(14)
loop_
_geom_bond_atom_site_label_1
_geom_bond_atom_site_label_2
_geom_bond_site_symmetry_1
_geom_bond_site_symmetry_2
Cu1 O1 1_555 1_555
O1 C10 1_555 1_555
N1 Cu1 1_555 1_555
C1 N1 1_555 1_555
H1 C1 1_555 1_555
O2 Cu1 1_555 1_555
H2 O2 1_555 1_555
H3 O2 1_555 1_555
O3 C10 1_555 1_555
N2 H4 1_555 1_555
C2 C1 1_555 1_555
O4 C20 1_555 1_555
C3 C2 1_555 1_555
H5 C3 1_555 1_555
O5 C20 1_555 1_555
C4 C3 1_555 1_555
H6 C4 1_555 1_555
C5 N1 1_555 1_555
H7 C5 1_555 1_555
O6 C6 1_555 1_555
C6 N2 1_555 1_555
C7 N2 1_555 1_555
H8 C7 1_555 1_555
H9 C7 1_555 1_555
C8 C7 1_555 1_555
H10 C8 1_555 1_555
H11 C8 1_555 1_555
C9 C8 1_555 1_555
H12 C9 1_555 1_555
H13 C9 1_555 1_555
C10 C11 1_555 1_555
C11 C12 1_555 1_555
C12 H14 1_555 1_555
C13 C12 1_555 1_555
H15 C13 1_555 1_555
C14 C13 1_555 1_555
H16 C14 1_555 1_555
C15 C14 1_555 1_555
C16 C15 1_555 1_555
H17 C16 1_555 1_555
C17 C16 1_555 1_555
H18 C17 1_555 1_555
C18 C17 1_555 1_555
H19 C18 1_555 1_555
C19 C18 1_555 1_555
C20 C19 1_555 1_555
C21 C11 1_555 1_555
N1A C1A 1_555 1_555
C1A H1A 1_555 1_555
N2A H4A 1_555 1_555
C2A C1A 1_555 1_555
C3A C2A 1_555 1_555
H5A C3A 1_555 1_555
C4A C3A 1_555 1_555
H6A C4A 1_555 1_555
C5A N1A 1_555 1_555
H7A C5A 1_555 1_555
O6A C6A 1_555 1_555
C6A N2A 1_555 1_555
C7A N2A 1_555 1_555
H8A C7A 1_555 1_555
H9A C7A 1_555 1_555
C8A C7A 1_555 1_555
H10A C8A 1_555 1_555
H11A C8A 1_555 1_555
C9A C9 1_555 1_555
H12A C9A 1_555 1_555
H13A C9A 1_555 1_555
Cu1A N1A 1_555 1_555
O1A Cu1A 1_555 1_555
O2A Cu1A 1_555 1_555
H2A O2A 1_555 1_555
H3A O2A 1_555 1_555
O3A C10A 1_555 1_555
O4A C20A 1_555 1_555
O5A C20A 1_555 1_555
C10A O1A 1_555 1_555
C11A C10A 1_555 1_555
C12A C11A 1_555 1_555
H14A C12A 1_555 1_555
C13A C12A 1_555 1_555
H15A C13A 1_555 1_555
C14A C13A 1_555 1_555
H16A C14A 1_555 1_555
C15A C14A 1_555 1_555
C16A C15A 1_555 1_555
H17A C16A 1_555 1_555
C17A C16A 1_555 1_555
H18A C17A 1_555 1_555
C18A C17A 1_555 1_555
H19A C18A 1_555 1_555
C19A C18A 1_555 1_555
C20A C19A 1_555 1_555
C21A C11A 1_555 1_555
Cu1_2 O4A 1_555 1_555
Cu1_3 O4 1_555 1_555
Cu1A_2 O4A 1_555 1_555
Cu1A_3 O4 1_555 1_555
O4_2 Cu1A 1_555 1_555
O4_3 Cu1 1_555 1_555
O4A_2 Cu1A 1_555 1_555
O4A_3 Cu1 1_555 1_555
C2 C6 1_555 1_555
C4 C5 1_555 1_555
C15 C21 1_555 1_555
C19 C21 1_555 1_555
C2A C6A 1_555 1_555
C4A C5A 1_555 1_555
C8A C9A 1_555 1_555
C15A C21A 1_555 1_555
C19A C21A 1_555 1_555

#END
