
#######################################################################
#
#                 Cambridge Crystallographic Data Centre
#                                CCDC 
#
#######################################################################
#
# If this CIF has been generated from an entry in the Cambridge 
# Structural Database, then it will include bibliographic, chemical, 
# crystal, experimental, refinement or atomic coordinate data resulting 
# from the CCDC's data processing and validation procedures.
#
#######################################################################

data_XOQJUK
_symmetry_cell_setting           triclinic
_symmetry_space_group_name_H-M   'P -1'
_symmetry_Int_Tables_number      2
_space_group_name_Hall           '-P 1'
loop_
_symmetry_equiv_pos_site_id
_symmetry_equiv_pos_as_xyz
1 x,y,z
2 -x,-y,-z
_cell_length_a                   12.7832(8)
_cell_length_b                   14.4851(8)
_cell_length_c                   15.8039(7)
_cell_angle_alpha                67.785(3)
_cell_angle_beta                 88.911(4)
_cell_angle_gamma                64.480(3)
_cell_volume                     2408.28
loop_
_atom_site_label
_atom_site_type_symbol
_atom_site_fract_x
_atom_site_fract_y
_atom_site_fract_z
Pb1 Pb 0.138918(19) 0.837187(18) 0.362192(14)
Pb2 Pb 0.096655(19) 1.237577(18) 0.682009(13)
O1 O 0.2160(4) 0.2148(4) 0.5634(3)
O2 O 0.0451(4) 0.0445(4) 0.3865(3)
O3 O 0.1566(4) 0.6957(4) 0.2800(3)
O4 O 0.3074(4) 0.6833(4) 0.3589(3)
O5 O 0.3272(4) 0.3301(4) 0.2391(3)
O6 O 0.1992(4) 0.7451(4) 0.5318(3)
O7 O -0.0033(4) 0.4715(4) 0.6197(3)
O8 O 0.2484(4) 1.0479(3) 0.7793(3)
O9 O 0.0761(4) 1.0490(4) 0.7895(3)
O10 O 0.1577(5) 0.6502(4) 0.8779(3)
N1 N 0.0866(5) 0.0686(5) 0.5128(3)
H1 H 0.0550 0.0269 0.5428
N2 N 0.1264(5) 0.1106(5) 0.5632(3)
N3 N 0.1324(5) 0.6424(4) 0.4962(3)
N4 N 0.0820(5) 0.5682(4) 0.5252(3)
H2 H 0.0741 0.5421 0.4864
N5 N 0.1092(4) 1.2512(4) 0.8408(3)
N6 N 0.2582(4) 1.2817(4) 0.7194(3)
N7 N 0.2019(5) 0.9208(4) 0.2004(4)
N8 N 0.3051(4) 0.8887(4) 0.3660(4)
C1 C 0.0693(6) 0.5654(5) 0.8260(4)
H3 H 0.0472 0.5440 0.8839
C2 C 0.1326(6) 0.6278(5) 0.8056(4)
C3 C 0.1619(5) 0.6630(5) 0.7197(4)
H4 H 0.2019 0.7060 0.7060
C4 C 0.1316(5) 0.6342(5) 0.6528(4)
C5 C 0.0715(5) 0.5693(5) 0.6734(4)
C6 C 0.0404(6) 0.5363(5) 0.7609(4)
H5 H -0.0004 0.4941 0.7749
C7 C 0.4164(7) 0.6962(7) 0.8864(6)
H6 H 0.4979 0.6549 0.9026
C8 C 0.3639(6) 0.8111(6) 0.8566(4)
H7 H 0.4102 0.8468 0.8536
C9 C 0.2430(5) 0.8739(5) 0.8309(4)
C10 C 0.1748(6) 0.8192(5) 0.8362(4)
H8 H 0.0934 0.8601 0.8187
C11 C 0.2284(7) 0.7043(6) 0.8676(4)
C12 C 0.3476(8) 0.6420(6) 0.8924(5)
H9 H 0.3824 0.5644 0.9129
C13 C 0.1568(5) 0.6747(5) 0.5574(4)
C14 C 0.0453(5) 0.5338(5) 0.6049(4)
C15 C 0.1833(5) 0.9996(5) 0.7969(4)
C16 C 0.1686(5) 0.1660(5) 0.2857(4)
H10 H 0.1392 0.1378 0.2534
C17 C 0.2295(6) 0.2245(5) 0.2441(4)
H11 H 0.2429 0.2343 0.1840
C18 C 0.2716(5) 0.2696(5) 0.2914(4)
C19 C 0.2553(5) 0.2537(5) 0.3807(4)
H12 H 0.2830 0.2840 0.4118
C20 C 0.1963(5) 0.1912(5) 0.4247(4)
C21 C 0.1513(5) 0.1489(5) 0.3770(4)
C22 C 0.4572(6) 0.4737(6) 0.3620(4)
H13 H 0.4871 0.5057 0.3898
C23 C 0.3391(5) 0.5301(5) 0.3221(4)
C24 C 0.2955(5) 0.4815(5) 0.2809(4)
H14 H 0.2170 0.5181 0.2529
C25 C 0.4870(6) 0.3244(6) 0.3198(5)
H15 H 0.5365 0.2562 0.3175
C26 C 0.5299(6) 0.3728(6) 0.3612(5)
H16 H 0.6087 0.3361 0.3885
C27 C 0.1799(5) 0.1709(5) 0.5207(4)
C28 C 0.0901(5) 0.0835(5) 0.4246(4)
C29 C 0.2611(6) 0.6445(5) 0.3196(4)
C30 C 0.0300(6) 1.2469(6) 0.8942(4)
H17 H -0.0305 1.2359 0.8752
C31 C 0.3699(6) 0.3791(5) 0.2821(4)
C32 C 0.4429(9) 0.9909(9) 0.1242(9)
H18 H 0.4734 1.0141 0.0707
C33 C 0.4936(8) 0.9778(8) 0.2058(9)
H19 H 0.5594 0.9897 0.2071
C34 C 0.4472(6) 0.9458(6) 0.2899(7)
C35 C 0.4921(7) 0.9352(7) 0.3741(9)
H20 H 0.5549 0.9508 0.3776
C36 C 0.4463(8) 0.9025(7) 0.4513(7)
H21 H 0.4774 0.8940 0.5080
C37 C 0.3504(6) 0.8820(6) 0.4429(6)
H22 H 0.3168 0.8623 0.4953
C38 C 0.2972(6) 0.9372(5) 0.2012(5)
C39 C 0.3503(5) 0.9230(5) 0.2873(5)
C40 C 0.0319(8) 1.2579(7) 0.9768(5)
H23 H -0.0260 1.2545 1.0125
C41 C 0.1193(8) 1.2737(7) 1.0047(5)
H24 H 0.1217 1.2814 1.0603
C42 C 0.2061(7) 1.2786(6) 0.9513(4)
C43 C 0.3033(8) 1.2956(7) 0.9749(5)
H25 H 0.3137 1.2980 1.0320
C44 C 0.3778(7) 1.3079(7) 0.9175(5)
H26 H 0.4398 1.3176 0.9357
C45 C 0.3653(6) 1.3065(6) 0.8275(5)
C46 C 0.4352(7) 1.3282(6) 0.7612(5)
H27 H 0.4949 1.3438 0.7742
C47 C 0.4160(7) 1.3265(6) 0.6780(5)
H28 H 0.4632 1.3396 0.6341
C48 C 0.3257(6) 1.3051(5) 0.6587(4)
H29 H 0.3117 1.3072 0.6003
C49 C 0.1973(5) 1.2676(5) 0.8675(4)
C50 C 0.2752(5) 1.2850(5) 0.8039(4)
C51 C 0.1540(7) 0.9316(6) 0.1211(4)
H30 H 0.0878 0.9202 0.1205
C52 C 0.1976(10) 0.9587(8) 0.0402(5)
H31 H 0.1617 0.9645 -0.0135
C53 C 0.2915(9) 0.9765(7) 0.0388(6)
H32 H 0.3220 0.9936 -0.0157
C54 C 0.3441(7) 0.9699(6) 0.1182(6)
Pb1_2 Pb 0.138918(19) -0.162813(18) 0.362192(14)
Pb2_2 Pb 0.096655(19) 0.237577(18) 0.682009(13)
O1_2 O 0.2160(4) 1.2148(4) 0.5634(3)
O2_2 O 0.0451(4) 1.0445(4) 0.3865(3)
O7_2 O -0.0033(4) 1.4715(4) 0.6197(3)
loop_
_geom_bond_atom_site_label_1
_geom_bond_atom_site_label_2
_geom_bond_site_symmetry_1
_geom_bond_site_symmetry_2
Pb1 O3 1_555 1_555
Pb2 O8 1_555 1_555
O1 C27 1_555 1_555
O2 C28 1_555 1_555
O3 C29 1_555 1_555
O4 Pb1 1_555 1_555
O5 C18 1_555 1_555
O6 Pb1 1_555 1_555
O7 C14 1_555 1_555
O8 C15 1_555 1_555
O9 Pb2 1_555 1_555
O10 C2 1_555 1_555
N1 H1 1_555 1_555
N2 N1 1_555 1_555
N3 Pb1 1_555 1_555
N4 N3 1_555 1_555
H2 N4 1_555 1_555
N5 Pb2 1_555 1_555
N6 Pb2 1_555 1_555
N7 Pb1 1_555 1_555
N8 Pb1 1_555 1_555
C1 H3 1_555 1_555
C2 C1 1_555 1_555
C3 C2 1_555 1_555
H4 C3 1_555 1_555
C4 C3 1_555 1_555
C5 C4 1_555 1_555
C6 C1 1_555 1_555
H5 C6 1_555 1_555
C7 H6 1_555 1_555
C8 C7 1_555 1_555
H7 C8 1_555 1_555
C9 C8 1_555 1_555
C10 C9 1_555 1_555
H8 C10 1_555 1_555
C11 O10 1_555 1_555
C12 C7 1_555 1_555
H9 C12 1_555 1_555
C13 O6 1_555 1_555
C14 N4 1_555 1_555
C15 O9 1_555 1_555
C16 H10 1_555 1_555
C17 C16 1_555 1_555
H11 C17 1_555 1_555
C18 C17 1_555 1_555
C19 C18 1_555 1_555
H12 C19 1_555 1_555
C20 C19 1_555 1_555
C21 C16 1_555 1_555
C22 H13 1_555 1_555
C23 C22 1_555 1_555
C24 C23 1_555 1_555
H14 C24 1_555 1_555
C25 H15 1_555 1_555
C26 C22 1_555 1_555
H16 C26 1_555 1_555
C27 N2 1_555 1_555
C28 N1 1_555 1_555
C29 O4 1_555 1_555
C30 N5 1_555 1_555
H17 C30 1_555 1_555
C31 O5 1_555 1_555
C32 H18 1_555 1_555
C33 C32 1_555 1_555
H19 C33 1_555 1_555
C34 C33 1_555 1_555
C35 C34 1_555 1_555
H20 C35 1_555 1_555
C36 C35 1_555 1_555
H21 C36 1_555 1_555
C37 N8 1_555 1_555
H22 C37 1_555 1_555
C38 N7 1_555 1_555
C39 N8 1_555 1_555
C40 C30 1_555 1_555
H23 C40 1_555 1_555
C41 C40 1_555 1_555
H24 C41 1_555 1_555
C42 C41 1_555 1_555
C43 C42 1_555 1_555
H25 C43 1_555 1_555
C44 C43 1_555 1_555
H26 C44 1_555 1_555
C45 C44 1_555 1_555
C46 C45 1_555 1_555
H27 C46 1_555 1_555
C47 C46 1_555 1_555
H28 C47 1_555 1_555
C48 N6 1_555 1_555
H29 C48 1_555 1_555
C49 N5 1_555 1_555
C50 N6 1_555 1_555
C51 N7 1_555 1_555
H30 C51 1_555 1_555
C52 C51 1_555 1_555
H31 C52 1_555 1_555
C53 C52 1_555 1_555
H32 C53 1_555 1_555
C54 C32 1_555 1_555
Pb1_2 O2 1_555 1_555
Pb2_2 O1 1_555 1_555
O1_2 Pb2 1_555 1_555
O2_2 Pb1 1_555 1_555
O7_2 Pb2 1_555 1_555
O7 Pb2_2 1_555 1_555
N3 C13 1_555 1_555
C4 C13 1_555 1_555
C5 C6 1_555 1_555
C5 C14 1_555 1_555
C9 C15 1_555 1_555
C10 C11 1_555 1_555
C11 C12 1_555 1_555
C20 C21 1_555 1_555
C20 C27 1_555 1_555
C21 C28 1_555 1_555
C23 C29 1_555 1_555
C24 C31 1_555 1_555
C25 C26 1_555 1_555
C25 C31 1_555 1_555
C34 C39 1_555 1_555
C36 C37 1_555 1_555
C38 C39 1_555 1_555
C38 C54 1_555 1_555
C42 C49 1_555 1_555
C45 C50 1_555 1_555
C47 C48 1_555 1_555
C49 C50 1_555 1_555
C53 C54 1_555 1_555

#END
