
#######################################################################
#
#                 Cambridge Crystallographic Data Centre
#                                CCDC 
#
#######################################################################
#
# If this CIF has been generated from an entry in the Cambridge 
# Structural Database, then it will include bibliographic, chemical, 
# crystal, experimental, refinement or atomic coordinate data resulting 
# from the CCDC's data processing and validation procedures.
#
#######################################################################

data_XOQJAQ
_symmetry_cell_setting           triclinic
_symmetry_space_group_name_H-M   'P -1'
_symmetry_Int_Tables_number      2
_space_group_name_Hall           '-P 1'
loop_
_symmetry_equiv_pos_site_id
_symmetry_equiv_pos_as_xyz
1 x,y,z
2 -x,-y,-z
_cell_length_a                   8.8799(4)
_cell_length_b                   13.9664(7)
_cell_length_c                   20.5812(9)
_cell_angle_alpha                97.8590(10)
_cell_angle_beta                 99.4900(10)
_cell_angle_gamma                101.1950(10)
_cell_volume                     2431.8
loop_
_atom_site_label
_atom_site_type_symbol
_atom_site_fract_x
_atom_site_fract_y
_atom_site_fract_z
Cd1 Cd 0.34848(3) -0.06454(2) 0.052009(12)
O1 O 0.2035(4) -0.1104(2) -0.05070(13)
N1 N 0.3075(4) 0.0951(2) 0.05971(15)
C1 C 0.1943(5) 0.1227(3) 0.0193(2)
H1 H 0.1238 0.0745 -0.0131
Cd2 Cd -0.65677(3) -1.033517(19) -0.446024(12)
O2 O 0.3857(3) -0.0052(2) -0.08320(13)
N2 N 0.4147(4) -0.2188(2) 0.04584(16)
C2 C 0.1789(5) 0.2193(3) 0.0242(2)
H2 H 0.0995 0.2359 -0.0046
O3 O 0.3384(3) -0.0194(2) -0.33103(12)
N3 N -0.6887(4) -0.8748(2) -0.44795(15)
C3 C 0.2817(5) 0.2909(3) 0.0719(2)
H3 H 0.2742 0.3568 0.0753
N4 N 1.3862(4) 0.8072(2) 0.54429(17)
C4 C 0.3974(5) 0.2635(3) 0.1150(2)
O4 O 0.1124(3) -0.0878(2) -0.39738(13)
O5 O -0.3485(3) -0.9428(2) -0.16801(13)
N5 N 0.5682(4) 0.3152(3) 0.22330(19)
H4 H 0.5256 0.2582 0.2310
C5 C 0.4059(5) 0.1649(3) 0.10669(19)
H5 H 0.4837 0.1464 0.1351
O6 O -0.1234(3) -0.8767(2) -0.10043(13)
N6 N 0.1771(5) -0.4883(3) -0.08760(19)
H6 H 0.2279 -0.4416 -0.1040
C6 C 0.5169(5) 0.3412(3) 0.1657(2)
O7 O -0.3895(3) -0.9733(2) -0.41484(14)
N7 N -0.4519(4) -0.6384(3) -0.29218(18)
H7 H -0.4851 -0.6971 -0.2846
C7 C 0.6948(6) 0.3799(4) 0.2743(3)
H8 H 0.7162 0.4455 0.2626
H9 H 0.6613 0.3859 0.3170
O8 O -0.1792(3) -0.9159(2) -0.45387(12)
N8 N 1.1711(5) 0.4862(3) 0.4175(3)
H10 H 1.2656 0.4822 0.4154
C8 C 0.8313(10) 0.3447(7) 0.2810(5)
H11 H 0.8441 0.3171 0.2369
H12 H 0.8199 0.2912 0.3066
O9 O 0.5621(4) 0.4237(2) 0.15173(17)
C9 C 0.5357(5) -0.2319(3) 0.0889(2)
H13 H 0.6079 -0.1761 0.1133
O10 O 0.1497(4) -0.5499(2) 0.00561(17)
C10 C 0.5594(5) -0.3230(3) 0.0991(2)
H14 H 0.6455 -0.3286 0.1297
O11 O -0.4706(4) -0.5355(2) -0.36781(16)
C11 C 0.4532(5) -0.4063(3) 0.0632(2)
H15 H 0.4648 -0.4691 0.0702
O12 O 1.0081(5) 0.5786(3) 0.4522(3)
C12 C 0.3291(5) -0.3953(3) 0.0166(2)
C13 C 0.3137(5) -0.3005(3) 0.0095(2)
H16 H 0.2301 -0.2929 -0.0215
C14 C 0.2106(5) -0.4851(3) -0.0225(2)
C15 C 0.0597(6) -0.5658(4) -0.1335(3)
H17 H 0.0272 -0.6198 -0.1103
H18 H 0.1054 -0.5913 -0.1700
C16 C -0.0794(5) -0.5291(3) -0.1610(2)
H19 H -0.0453 -0.4724 -0.1817
H20 H -0.1275 -0.5067 -0.1244
C17 C -0.2022(6) -0.6069(3) -0.2125(2)
H21 H -0.1548 -0.6295 -0.2493
H22 H -0.2375 -0.6635 -0.1920
C18 C -0.3399(6) -0.5671(3) -0.2392(2)
H23 H -0.3922 -0.5494 -0.2029
H24 H -0.3036 -0.5074 -0.2564
C19 C -0.5055(5) -0.6171(3) -0.3519(2)
C20 C -0.6135(5) -0.7025(3) -0.4003(2)
C21 C -0.7410(5) -0.6854(3) -0.4431(2)
H25 H -0.7581 -0.6216 -0.4421
C22 C -0.8406(5) -0.7638(3) -0.4868(2)
H26 H -0.9267 -0.7538 -0.5154
C23 C -0.8119(5) -0.8574(3) -0.48802(19)
H27 H -0.8803 -0.9103 -0.5176
C24 C -0.5929(5) -0.7984(3) -0.40507(19)
H28 H -0.5078 -0.8105 -0.3770
C25 C 1.5068(5) 0.7797(3) 0.5793(2)
H29 H 1.5866 0.8286 0.6070
C26 C 1.5179(6) 0.6830(4) 0.5762(2)
H30 H 1.6024 0.6672 0.6023
C27 C 1.4046(6) 0.6097(4) 0.5347(3)
H31 H 1.4118 0.5437 0.5314
C28 C 1.2777(5) 0.6363(3) 0.4973(2)
C29 C 1.2750(5) 0.7351(3) 0.5048(2)
H32 H 1.1898 0.7529 0.4806
C30 C 1.1418(6) 0.5638(4) 0.4538(3)
C31 C 1.0289(10) 0.4015(6) 0.3785(4)
H33 H 1.0571 0.3376 0.3726
H34 H 0.9396 0.3973 0.4003
C32 C 1.0020(11) 0.4345(7) 0.3202(5)
H35 H 1.0867 0.4325 0.2960
H36 H 0.9829 0.5009 0.3263
C33 C 0.2555(5) -0.0651(3) -0.09408(18)
C34 C 0.1550(4) -0.0867(3) -0.16256(18)
C35 C -0.0018(5) -0.1378(3) -0.1729(2)
H37 H -0.0434 -0.1580 -0.1371
C36 C -0.0946(5) -0.1584(4) -0.2363(2)
H38 H -0.1991 -0.1911 -0.2430
C37 C -0.0307(5) -0.1300(3) -0.28965(19)
H39 H -0.0931 -0.1439 -0.3322
C38 C 0.1243(4) -0.0815(3) -0.28054(18)
C39 C 0.2156(4) -0.0586(3) -0.21646(18)
H40 H 0.3191 -0.0239 -0.2098
C40 C 0.1934(5) -0.0614(3) -0.34027(18)
C41 C -0.2477(4) -0.9313(3) -0.40677(17)
C42 C -0.1536(4) -0.8970(3) -0.33696(17)
C43 C 0.0022(5) -0.8474(3) -0.32672(19)
H41 H 0.0478 -0.8352 -0.3632
C44 C 0.0898(5) -0.8160(4) -0.2624(2)
H42 H 0.1934 -0.7817 -0.2559
C45 C 0.0242(5) -0.8355(3) -0.20802(19)
H43 H 0.0846 -0.8161 -0.1650
C46 C -0.1319(4) -0.8840(3) -0.21738(18)
C47 C -0.2192(4) -0.9147(3) -0.28194(17)
H44 H -0.3235 -0.9477 -0.2884
C48 C -0.2030(5) -0.9021(3) -0.15798(18)
Cd1A Cd -0.34848(3) -0.93546(2) -0.052009(12)
Cd1A_2 Cd 0.65152(3) 0.06454(2) -0.052009(12)
Cd2_2 Cd 0.34323(3) -0.033517(19) -0.446024(12)
Cd2_3 Cd 1.34323(3) 0.966483(19) 0.553976(12)
Cd2A Cd -0.34323(3) -0.966483(19) -0.553976(12)
O2A O 0.6143(3) 0.0052(2) 0.08320(13)
O3_2 O -0.6616(3) -1.0194(2) -0.33103(12)
N4_2 N -0.6138(4) -1.1928(2) -0.45571(17)
O4_2 O -0.8876(3) -1.0878(2) -0.39738(13)
O5A O 0.3485(3) -0.0572(2) 0.16801(13)
O6A O 0.1234(3) -0.1233(2) 0.10043(13)
O8A O -0.8208(3) -1.0841(2) -0.54613(12)
loop_
_geom_bond_atom_site_label_1
_geom_bond_atom_site_label_2
_geom_bond_site_symmetry_1
_geom_bond_site_symmetry_2
Cd1 O1 1_555 1_555
O1 C33 1_555 1_555
N1 Cd1 1_555 1_555
C1 N1 1_555 1_555
H1 C1 1_555 1_555
Cd2 N3 1_555 1_555
O2 C33 1_555 1_555
N2 Cd1 1_555 1_555
C2 C1 1_555 1_555
H2 C2 1_555 1_555
O3 C40 1_555 1_555
N3 C23 1_555 1_555
C3 C2 1_555 1_555
H3 C3 1_555 1_555
N4 C25 1_555 1_555
C4 C3 1_555 1_555
O4 C40 1_555 1_555
O5 C48 1_555 1_555
N5 H4 1_555 1_555
C5 N1 1_555 1_555
H5 C5 1_555 1_555
O6 C48 1_555 1_555
N6 H6 1_555 1_555
C6 C4 1_555 1_555
O7 Cd2 1_555 1_555
N7 H7 1_555 1_555
C7 N5 1_555 1_555
H8 C7 1_555 1_555
H9 C7 1_555 1_555
O8 C41 1_555 1_555
N8 H10 1_555 1_555
C8 C7 1_555 1_555
H11 C8 1_555 1_555
H12 C8 1_555 1_555
O9 C6 1_555 1_555
C9 N2 1_555 1_555
H13 C9 1_555 1_555
O10 C14 1_555 1_555
C10 C9 1_555 1_555
H14 C10 1_555 1_555
O11 C19 1_555 1_555
C11 C10 1_555 1_555
H15 C11 1_555 1_555
O12 C30 1_555 1_555
C12 C11 1_555 1_555
C13 N2 1_555 1_555
H16 C13 1_555 1_555
C14 N6 1_555 1_555
C15 N6 1_555 1_555
H17 C15 1_555 1_555
H18 C15 1_555 1_555
C16 C15 1_555 1_555
H19 C16 1_555 1_555
H20 C16 1_555 1_555
C17 C16 1_555 1_555
H21 C17 1_555 1_555
H22 C17 1_555 1_555
C18 N7 1_555 1_555
H23 C18 1_555 1_555
H24 C18 1_555 1_555
C19 N7 1_555 1_555
C20 C19 1_555 1_555
C21 C20 1_555 1_555
H25 C21 1_555 1_555
C22 C21 1_555 1_555
H26 C22 1_555 1_555
C23 C22 1_555 1_555
H27 C23 1_555 1_555
C24 N3 1_555 1_555
H28 C24 1_555 1_555
C25 H29 1_555 1_555
C26 C25 1_555 1_555
H30 C26 1_555 1_555
C27 C26 1_555 1_555
H31 C27 1_555 1_555
C28 C27 1_555 1_555
C29 N4 1_555 1_555
H32 C29 1_555 1_555
C30 N8 1_555 1_555
C31 N8 1_555 1_555
H33 C31 1_555 1_555
H34 C31 1_555 1_555
C32 C8 1_555 1_555
H35 C32 1_555 1_555
H36 C32 1_555 1_555
C33 C34 1_555 1_555
C34 C35 1_555 1_555
C35 H37 1_555 1_555
C36 C35 1_555 1_555
H38 C36 1_555 1_555
C37 C36 1_555 1_555
H39 C37 1_555 1_555
C38 C37 1_555 1_555
C39 C34 1_555 1_555
H40 C39 1_555 1_555
C40 C38 1_555 1_555
C41 O7 1_555 1_555
C42 C41 1_555 1_555
C43 C42 1_555 1_555
H41 C43 1_555 1_555
C44 C43 1_555 1_555
H42 C44 1_555 1_555
C45 C44 1_555 1_555
H43 C45 1_555 1_555
C46 C45 1_555 1_555
C47 C42 1_555 1_555
H44 C47 1_555 1_555
C48 C46 1_555 1_555
Cd1A O5 1_555 1_555
Cd1A_2 O2 1_555 1_555
Cd2_2 O3 1_555 1_555
Cd2_3 N4 1_555 1_555
Cd2A O8 1_555 1_555
O2A Cd1 1_555 1_555
O3_2 Cd2 1_555 1_555
N4_2 Cd2 1_555 1_555
O4_2 Cd2 1_555 1_555
O5A Cd1 1_555 1_555
O6A Cd1 1_555 1_555
O8A Cd2 1_555 1_555
C4 C5 1_555 1_555
O4 Cd2_2 1_555 1_555
N5 C6 1_555 1_555
O6 Cd1A 1_555 1_555
C12 C13 1_555 1_555
C12 C14 1_555 1_555
C17 C18 1_555 1_555
C20 C24 1_555 1_555
C28 C29 1_555 1_555
C28 C30 1_555 1_555
C31 C32 1_555 1_555
C38 C39 1_555 1_555
C46 C47 1_555 1_555

#END
