
#######################################################################
#
#                 Cambridge Crystallographic Data Centre
#                                CCDC 
#
#######################################################################
#
# If this CIF has been generated from an entry in the Cambridge 
# Structural Database, then it will include bibliographic, chemical, 
# crystal, experimental, refinement or atomic coordinate data resulting 
# from the CCDC's data processing and validation procedures.
#
#######################################################################

data_XOQKAR
_symmetry_cell_setting           monoclinic
_symmetry_space_group_name_H-M   'P 21/n'
_symmetry_Int_Tables_number      14
_space_group_name_Hall           '-P 2yn'
loop_
_symmetry_equiv_pos_site_id
_symmetry_equiv_pos_as_xyz
1 x,y,z
2 1/2-x,1/2+y,1/2-z
3 -x,-y,-z
4 1/2+x,1/2-y,1/2+z
_cell_length_a                   17.621(4)
_cell_length_b                   6.7717(14)
_cell_length_c                   20.364(4)
_cell_angle_alpha                90
_cell_angle_beta                 103.97(3)
_cell_angle_gamma                90
_cell_volume                     2358.05
loop_
_atom_site_label
_atom_site_type_symbol
_atom_site_fract_x
_atom_site_fract_y
_atom_site_fract_z
Cd1 Cd 0.780268(11) 0.31344(3) 0.575776(9)
N1 N 0.90317(13) 0.2284(3) 0.56887(10)
N2 N 0.96323(13) 0.3148(3) 0.54562(11)
H1 H 0.9535 0.4279 0.5262
N3 N 0.67345(14) 0.3352(3) 0.62290(12)
N4 N 0.82270(14) 0.3666(3) 0.69482(11)
O1 O 0.85838(11) -0.0184(3) 0.62076(9)
O2 O 1.08327(11) 0.3321(3) 0.52652(10)
O3 O 1.21565(16) -0.5710(4) 0.99255(11)
O4 O 1.20686(17) -0.8757(4) 0.96261(12)
O5 O 1.08624(14) -0.5086(3) 0.67217(9)
O6 O 0.80855(16) 0.6423(3) 0.55555(12)
C1 C 1.13459(18) -0.2272(5) 0.62342(14)
H2 H 1.1825 -0.2906 0.6285
C2 C 1.12210(16) -0.0456(4) 0.59242(13)
H3 H 1.1617 0.0144 0.5765
C3 C 1.04991(14) 0.0489(4) 0.58476(11)
C4 C 0.99074(15) -0.0426(4) 0.60903(11)
C5 C 1.00416(17) -0.2265(4) 0.64057(12)
H4 H 0.9653 -0.2879 0.6569
C6 C 1.07539(18) -0.3152(4) 0.64709(12)
C7 C 1.1164(2) -0.7379(5) 0.75974(15)
H5 H 1.1014 -0.8365 0.7274
C8 C 1.14218(19) -0.7852(4) 0.82706(16)
H6 H 1.1445 -0.9171 0.8401
C9 C 1.16472(17) -0.6408(5) 0.87573(14)
C10 C 1.16150(19) -0.4452(5) 0.85568(14)
H7 H 1.1769 -0.3465 0.8879
C11 C 1.13547(18) -0.3950(4) 0.78787(14)
H8 H 1.1332 -0.2633 0.7746
C12 C 1.11312(16) -0.5414(4) 0.74079(12)
C13 C 0.91474(15) 0.0559(4) 0.59936(12)
C14 C 1.03431(15) 0.2403(4) 0.55039(12)
C15 C 1.19726(19) -0.6996(5) 0.94899(15)
C16 C 0.59988(19) 0.3299(5) 0.58498(17)
H9 H 0.5919 0.3136 0.5385
C17 C 0.68500(16) 0.3588(4) 0.69016(14)
C18 C 0.5355(2) 0.3474(5) 0.6117(2)
H10 H 0.4852 0.3420 0.5840
C19 C 0.89763(17) 0.3714(4) 0.72885(14)
H11 H 0.9357 0.3753 0.7043
C20 C 0.76762(17) 0.3635(4) 0.73004(13)
C21 C 0.62281(19) 0.3778(4) 0.72015(17)
H12 H 0.6317 0.3936 0.7667
C22 C 0.9216(2) 0.3709(4) 0.79865(15)
H13 H 0.9744 0.3743 0.8205
C23 C 0.8652(2) 0.3653(4) 0.83471(15)
H14 H 0.8792 0.3638 0.8818
C24 C 0.7877(2) 0.3619(4) 0.80075(14)
H15 H 0.7489 0.3586 0.8246
C25 C 0.5477(2) 0.3729(5) 0.68030(19)
H16 H 0.5054 0.3868 0.6998
Cd1C Cd 1.280268(11) -0.81344(3) 1.075776(9)
O3C O 0.71565(16) 0.0710(4) 0.49255(11)
O4C O 0.70686(17) 0.3757(4) 0.46261(12)
O7 O 0.8699(2) 0.2394(6) -0.00294(16)
loop_
_geom_bond_atom_site_label_1
_geom_bond_atom_site_label_2
_geom_bond_site_symmetry_1
_geom_bond_site_symmetry_2
Cd1 N1 1_555 1_555
N1 N2 1_555 1_555
N2 H1 1_555 1_555
N3 Cd1 1_555 1_555
N4 Cd1 1_555 1_555
O1 Cd1 1_555 1_555
O2 C14 1_555 1_555
O3 C15 1_555 1_555
O4 C15 1_555 1_555
O5 C6 1_555 1_555
O6 Cd1 1_555 1_555
C1 H2 1_555 1_555
C2 C1 1_555 1_555
H3 C2 1_555 1_555
C3 C2 1_555 1_555
C4 C3 1_555 1_555
C5 C4 1_555 1_555
H4 C5 1_555 1_555
C6 C1 1_555 1_555
C7 H5 1_555 1_555
C8 C7 1_555 1_555
H6 C8 1_555 1_555
C9 C8 1_555 1_555
C10 C9 1_555 1_555
H7 C10 1_555 1_555
C11 C10 1_555 1_555
H8 C11 1_555 1_555
C12 O5 1_555 1_555
C13 N1 1_555 1_555
C14 N2 1_555 1_555
C15 C9 1_555 1_555
C16 N3 1_555 1_555
H9 C16 1_555 1_555
C17 N3 1_555 1_555
C18 C16 1_555 1_555
H10 C18 1_555 1_555
C19 N4 1_555 1_555
H11 C19 1_555 1_555
C20 N4 1_555 1_555
C21 C17 1_555 1_555
H12 C21 1_555 1_555
C22 C19 1_555 1_555
H13 C22 1_555 1_555
C23 C22 1_555 1_555
H14 C23 1_555 1_555
C24 C20 1_555 1_555
H15 C24 1_555 1_555
C25 C18 1_555 1_555
H16 C25 1_555 1_555
Cd1C O3 1_555 1_555
O3C Cd1 1_555 1_555
O4C Cd1 1_555 1_555
O1 C13 1_555 1_555
O4 Cd1C 1_555 1_555
C3 C14 1_555 1_555
C4 C13 1_555 1_555
C5 C6 1_555 1_555
C7 C12 1_555 1_555
C11 C12 1_555 1_555
C17 C20 1_555 1_555
C21 C25 1_555 1_555
C23 C24 1_555 1_555

#END
