
#######################################################################
#
#                 Cambridge Crystallographic Data Centre
#                                CCDC 
#
#######################################################################
#
# If this CIF has been generated from an entry in the Cambridge 
# Structural Database, then it will include bibliographic, chemical, 
# crystal, experimental, refinement or atomic coordinate data resulting 
# from the CCDC's data processing and validation procedures.
#
#######################################################################

data_XOQKEV
_symmetry_cell_setting           triclinic
_symmetry_space_group_name_H-M   'P -1'
_symmetry_Int_Tables_number      2
_space_group_name_Hall           '-P 1'
loop_
_symmetry_equiv_pos_site_id
_symmetry_equiv_pos_as_xyz
1 x,y,z
2 -x,-y,-z
_cell_length_a                   8.0011(5)
_cell_length_b                   9.9758(7)
_cell_length_c                   11.5409(7)
_cell_angle_alpha                105.443(4)
_cell_angle_beta                 91.409(4)
_cell_angle_gamma                95.468(4)
_cell_volume                     882.667
loop_
_atom_site_label
_atom_site_type_symbol
_atom_site_fract_x
_atom_site_fract_y
_atom_site_fract_z
Zn1 Zn 0.13437(4) 0.85161(4) 0.98622(3)
Cl1 Cl 0.46999(16) 0.46807(14) 1.34501(10)
Cl2 Cl 0.84560(15) 0.43128(11) 1.28965(10)
Cl3 Cl -0.14842(14) 0.73021(12) 1.58023(9)
Cl4 Cl 0.19641(13) 0.73167(11) 1.45702(9)
O1 O 0.2942(3) 0.7547(3) 1.0473(2)
O2 O 0.9413(3) 0.7080(3) 0.9562(3)
O3 O 0.0838(3) 1.0038(2) 1.12638(19)
O4 O -0.5103(3) 0.9995(3) 1.3324(2)
N1 N 0.5204(3) 0.7989(3) 0.9436(3)
N2 N 0.6883(3) 0.7805(3) 0.9259(3)
H1 H 0.7337 0.8171 0.8731
N3 N -0.1798(3) 1.0617(3) 1.1481(2)
N4 N -0.3310(3) 1.0604(3) 1.2041(2)
H2 H -0.4079 1.1030 1.1802
C1 C 0.8059(4) 0.5765(3) 1.1291(3)
H3 H 0.9176 0.5649 1.1126
C2 C 0.7309(4) 0.5217(3) 1.2139(3)
C3 C 0.5618(5) 0.5394(4) 1.2386(3)
C4 C 0.4700(4) 0.6110(3) 1.1782(3)
H4 H 0.3582 0.6218 1.1952
C5 C 0.5437(4) 0.6675(3) 1.0916(3)
C6 C 0.7124(4) 0.6503(3) 1.0674(3)
C7 C 0.4508(3) 0.7437(3) 1.0249(3)
C8 C 0.7882(4) 0.7139(3) 0.9795(3)
C9 C -0.2519(4) 0.8706(3) 1.4278(3)
H5 H -0.3538 0.8703 1.4647
C10 C -0.1212(4) 0.8090(3) 1.4654(3)
C11 C 0.0329(4) 0.8097(3) 1.4103(3)
C12 C 0.0563(4) 0.8732(3) 1.3186(3)
H6 H 0.1593 0.8749 1.2831
C13 C -0.0753(4) 0.9345(3) 1.2797(3)
C14 C -0.2300(4) 0.9332(3) 1.3340(3)
C15 C -0.0558(4) 1.0016(3) 1.1823(3)
C16 C -0.3694(4) 0.9989(3) 1.2927(3)
Zn1_2 Zn 1.13437(4) 0.85161(4) 0.98622(3)
Zn1A Zn -0.13437(4) 1.14839(4) 1.01378(3)
O2_2 O -0.0587(3) 0.7080(3) 0.9562(3)
N3A N 0.1798(3) 0.9383(3) 0.8519(2)
loop_
_geom_bond_atom_site_label_1
_geom_bond_atom_site_label_2
_geom_bond_site_symmetry_1
_geom_bond_site_symmetry_2
Zn1 O1 1_555 1_555
Cl1 C3 1_555 1_555
Cl2 C2 1_555 1_555
Cl3 C10 1_555 1_555
Cl4 C11 1_555 1_555
O1 C7 1_555 1_555
O2 C8 1_555 1_555
O3 Zn1 1_555 1_555
O4 C16 1_555 1_555
N1 N2 1_555 1_555
N2 H1 1_555 1_555
N3 N4 1_555 1_555
N4 H2 1_555 1_555
C1 H3 1_555 1_555
C2 C1 1_555 1_555
C3 C2 1_555 1_555
C4 C3 1_555 1_555
H4 C4 1_555 1_555
C5 C4 1_555 1_555
C6 C1 1_555 1_555
C7 N1 1_555 1_555
C8 N2 1_555 1_555
C9 H5 1_555 1_555
C10 C9 1_555 1_555
C11 C10 1_555 1_555
C12 C11 1_555 1_555
H6 C12 1_555 1_555
C13 C12 1_555 1_555
C14 C9 1_555 1_555
C15 O3 1_555 1_555
C16 N4 1_555 1_555
Zn1_2 O2 1_555 1_555
Zn1A N3 1_555 1_555
O2_2 Zn1 1_555 1_555
N3A Zn1 1_555 1_555
N3 C15 1_555 1_555
C5 C6 1_555 1_555
C5 C7 1_555 1_555
C6 C8 1_555 1_555
C13 C14 1_555 1_555
C13 C15 1_555 1_555
C14 C16 1_555 1_555

#END
