
#######################################################################
#
#                 Cambridge Crystallographic Data Centre
#                                CCDC 
#
#######################################################################
#
# If this CIF has been generated from an entry in the Cambridge 
# Structural Database, then it will include bibliographic, chemical, 
# crystal, experimental, refinement or atomic coordinate data resulting 
# from the CCDC's data processing and validation procedures.
#
#######################################################################

data_XOQXUX
_symmetry_cell_setting           triclinic
_symmetry_space_group_name_H-M   'P -1'
_symmetry_Int_Tables_number      2
_space_group_name_Hall           '-P 1'
loop_
_symmetry_equiv_pos_site_id
_symmetry_equiv_pos_as_xyz
1 x,y,z
2 -x,-y,-z
_cell_length_a                   9.9644(8)
_cell_length_b                   17.1080(13)
_cell_length_c                   24.0173(18)
_cell_angle_alpha                87.8180(10)
_cell_angle_beta                 79.6890(10)
_cell_angle_gamma                75.4550(10)
_cell_volume                     3898.93
loop_
_atom_site_label
_atom_site_type_symbol
_atom_site_fract_x
_atom_site_fract_y
_atom_site_fract_z
Zn1 Zn 0.34326(5) 0.61349(2) -0.219130(18)
Zn2 Zn 0.60783(5) -0.12310(3) -0.276350(19)
Zn3 Zn 0.62697(5) 0.68539(3) -0.24877(2)
Zn4 Zn 0.32778(5) -0.19610(3) -0.255530(19)
Si1 Si 0.97731(11) 0.20303(6) -0.11902(4)
Si2 Si -0.00851(10) 0.28808(5) -0.38661(4)
O1 O 0.4890(3) 0.53139(17) -0.18979(13)
O2 O 0.6846(3) 0.56662(16) -0.23297(13)
O3 O 0.8722(3) -0.15228(16) -0.21154(13)
O4 O 0.6945(3) -0.05822(18) -0.23765(14)
O5 O 0.7589(3) 0.19838(15) 0.17029(11)
O6 O 0.7789(3) 0.32556(16) 0.15558(11)
O7 O 0.2695(3) -0.07366(17) -0.26566(13)
O8 O 0.4681(3) -0.03772(17) -0.30537(13)
O9 O 0.2608(3) 0.18249(16) -0.66057(11)
O10 O 0.2840(3) 0.31013(16) -0.66703(12)
O11 O 0.2587(3) 0.54554(17) -0.25679(13)
O12 O 0.0852(3) 0.64043(17) -0.28504(14)
O13 O 0.4316(3) 0.68275(16) -0.26990(11)
O14 O 0.5198(3) -0.19788(17) -0.23005(11)
O15 O 0.5429(8) 0.6824(3) -0.1514(2)
O16 O 0.8117(3) 0.70216(15) -0.22560(12)
O17 O 0.1406(3) -0.21248(16) -0.27597(12)
O18 O 0.4144(4) -0.1911(2) -0.34824(15)
C1 C 0.8702(4) 0.2985(2) -0.14602(15)
C2 C 0.7254(5) 0.3250(2) -0.12555(18)
H1 H 0.6822 0.2937 -0.0977
C3 C 0.6431(4) 0.3951(2) -0.14456(17)
H2 H 0.5446 0.4106 -0.1307
C4 C 0.7057(4) 0.4428(2) -0.18407(16)
C5 C 0.8487(4) 0.4179(2) -0.20475(17)
H3 H 0.8919 0.4501 -0.2318
C6 C 0.9299(4) 0.3465(2) -0.18655(16)
H4 H 1.0275 0.3300 -0.2019
C7 C 0.6204(4) 0.5197(2) -0.20400(16)
C8 C 0.9289(4) 0.1148(2) -0.14668(16)
C9 C 0.9975(4) 0.0340(2) -0.13872(17)
H5 H 1.0719 0.0224 -0.1175
C10 C 0.9602(4) -0.0295(2) -0.16083(16)
H6 H 1.0107 -0.0835 -0.1556
C11 C 0.8483(4) -0.0143(2) -0.19074(16)
C12 C 0.7799(5) 0.0662(2) -0.1991(2)
H7 H 0.7046 0.0778 -0.2199
C13 C 0.8200(5) 0.1292(2) -0.17755(19)
H8 H 0.7720 0.1833 -0.1840
C14 C 0.8029(4) -0.0810(2) -0.21456(17)
C15 C 0.9293(4) 0.2113(2) -0.03992(15)
C16 C 0.9171(5) 0.2863(2) -0.01535(17)
H9 H 0.9371 0.3294 -0.0388
C17 C 0.8763(4) 0.2986(2) 0.04252(17)
H10 H 0.8709 0.3496 0.0583
C18 C 0.8434(3) 0.2375(2) 0.07769(15)
C19 C 0.8532(4) 0.1634(2) 0.05430(16)
H11 H 0.8305 0.1211 0.0779
C20 C 0.8964(4) 0.1502(2) -0.00390(15)
H12 H 0.9035 0.0987 -0.0193
C21 C 0.7903(4) 0.2543(2) 0.13954(15)
C22 C 1.1681(4) 0.1996(2) -0.14425(17)
C23 C 1.2268(6) 0.2548(3) -0.1249(3)
H13 H 1.1724 0.2919 -0.0961
C24 C 1.3641(6) 0.2580(3) -0.1464(3)
H14 H 1.4037 0.2959 -0.1315
C25 C 1.4428(6) 0.2062(4) -0.1892(3)
H15 H 1.5360 0.2091 -0.2049
C26 C 1.3860(6) 0.1509(5) -0.2087(3)
H16 H 1.4404 0.1147 -0.2381
C27 C 1.2483(5) 0.1461(4) -0.1864(3)
H17 H 1.2104 0.1064 -0.2001
C28 C 0.0926(4) 0.1912(2) -0.35881(15)
C29 C 0.0289(4) 0.1456(2) -0.31796(16)
H18 H -0.0692 0.1636 -0.3040
C30 C 0.1055(4) 0.0741(2) -0.29703(17)
H19 H 0.0593 0.0433 -0.2699
C31 C 0.2500(4) 0.0483(2) -0.31624(16)
C32 C 0.3161(4) 0.0941(2) -0.35655(18)
H20 H 0.4148 0.0773 -0.3695
C33 C 0.2379(4) 0.1637(2) -0.37750(17)
H21 H 0.2838 0.1937 -0.4053
C34 C 0.3345(5) -0.0275(2) -0.29375(17)
C35 C 0.0567(4) 0.2852(2) -0.46517(15)
C36 C 0.0634(7) 0.2150(3) -0.49470(19)
H22 H 0.0280 0.1729 -0.4753
C37 C 0.1208(6) 0.2059(3) -0.55177(19)
H23 H 0.1249 0.1576 -0.5710
C38 C 0.1718(4) 0.2661(2) -0.58064(16)
C39 C 0.1663(5) 0.3361(2) -0.55214(16)
H24 H 0.2020 0.3779 -0.5717
C40 C 0.1089(4) 0.3451(2) -0.49503(16)
H25 H 0.1053 0.3935 -0.4760
C41 C 0.2460(4) 0.2525(2) -0.64151(16)
C42 C 0.0339(4) 0.3745(2) -0.35432(14)
C43 C 0.1376(4) 0.3595(2) -0.31994(16)
H26 H 0.1830 0.3053 -0.3126
C44 C 0.1752(4) 0.4220(2) -0.29646(16)
H27 H 0.2464 0.4102 -0.2737
C45 C 0.1090(4) 0.5020(2) -0.30613(15)
C46 C 0.0033(4) 0.5190(2) -0.33870(16)
H28 H -0.0442 0.5734 -0.3446
C47 C -0.0324(4) 0.4556(2) -0.36264(16)
H29 H -0.1039 0.4678 -0.3853
C48 C 0.1514(4) 0.5686(2) -0.28116(16)
C49 C -0.2001(4) 0.2931(2) -0.36703(19)
C50 C -0.2828(7) 0.3369(6) -0.3219(3)
H30 H -0.2438 0.3714 -0.3030
C51 C -0.4214(8) 0.3341(7) -0.3018(4)
H31 H -0.4754 0.3662 -0.2702
C52 C -0.4769(7) 0.2854(5) -0.3276(4)
H32 H -0.5700 0.2807 -0.3139
C53 C -0.3989(7) 0.2427(5) -0.3737(5)
H33 H -0.4402 0.2099 -0.3931
C54 C -0.2638(6) 0.2452(4) -0.3930(4)
H34 H -0.2119 0.2135 -0.4250
Zn1A Zn 0.65674(5) 0.38651(2) 0.219130(18)
Zn2A Zn 0.39217(5) 0.12310(3) -0.723650(19)
Zn3A Zn 0.37303(5) 0.31461(3) -0.75123(2)
Zn3_2 Zn 0.62697(5) -0.31461(3) -0.24877(2)
Zn4A Zn 0.67222(5) 0.19610(3) 0.255530(19)
Zn4_2 Zn 0.32778(5) 0.80390(3) -0.255530(19)
O5A O 0.2411(3) -0.19838(15) -0.17029(11)
O6A O 0.2211(3) 0.67444(16) -0.15558(11)
O9A O 0.7392(3) -0.18249(16) -0.33943(11)
O10A O 0.7160(3) 0.68987(16) -0.33297(12)
O13_2 O 0.4316(3) -0.31725(16) -0.26990(11)
O14_2 O 0.5198(3) 0.80212(17) -0.23005(11)
loop_
_geom_bond_atom_site_label_1
_geom_bond_atom_site_label_2
_geom_bond_site_symmetry_1
_geom_bond_site_symmetry_2
Zn1 O1 1_555 1_555
Zn2 O4 1_555 1_555
Zn3 O2 1_555 1_555
Zn4 O7 1_555 1_555
Si1 C1 1_555 1_555
Si2 C28 1_555 1_555
O1 C7 1_555 1_555
O2 C7 1_555 1_555
O3 C14 1_555 1_555
O4 C14 1_555 1_555
O5 C21 1_555 1_555
O6 C21 1_555 1_555
O7 C34 1_555 1_555
O8 Zn2 1_555 1_555
O9 C41 1_555 1_555
O10 C41 1_555 1_555
O11 Zn1 1_555 1_555
O12 C48 1_555 1_555
O13 Zn1 1_555 1_555
O14 Zn2 1_555 1_555
O15 Zn3 1_555 1_555
O16 Zn3 1_555 1_555
O17 Zn4 1_555 1_555
O18 Zn4 1_555 1_555
C1 C2 1_555 1_555
C2 H1 1_555 1_555
C3 C2 1_555 1_555
H2 C3 1_555 1_555
C4 C3 1_555 1_555
C5 C4 1_555 1_555
H3 C5 1_555 1_555
C6 C1 1_555 1_555
H4 C6 1_555 1_555
C7 C4 1_555 1_555
C8 Si1 1_555 1_555
C9 C8 1_555 1_555
H5 C9 1_555 1_555
C10 C9 1_555 1_555
H6 C10 1_555 1_555
C11 C10 1_555 1_555
C12 C11 1_555 1_555
H7 C12 1_555 1_555
C13 C8 1_555 1_555
H8 C13 1_555 1_555
C14 C11 1_555 1_555
C15 Si1 1_555 1_555
C16 C15 1_555 1_555
H9 C16 1_555 1_555
C17 C16 1_555 1_555
H10 C17 1_555 1_555
C18 C17 1_555 1_555
C19 C18 1_555 1_555
H11 C19 1_555 1_555
C20 C15 1_555 1_555
H12 C20 1_555 1_555
C21 C18 1_555 1_555
C22 Si1 1_555 1_555
C23 C22 1_555 1_555
H13 C23 1_555 1_555
C24 C23 1_555 1_555
H14 C24 1_555 1_555
C25 C24 1_555 1_555
H15 C25 1_555 1_555
C26 C25 1_555 1_555
H16 C26 1_555 1_555
C27 C22 1_555 1_555
H17 C27 1_555 1_555
C28 C29 1_555 1_555
C29 H18 1_555 1_555
C30 C29 1_555 1_555
H19 C30 1_555 1_555
C31 C30 1_555 1_555
C32 C31 1_555 1_555
H20 C32 1_555 1_555
C33 C28 1_555 1_555
H21 C33 1_555 1_555
C34 O8 1_555 1_555
C35 Si2 1_555 1_555
C36 C35 1_555 1_555
H22 C36 1_555 1_555
C37 C36 1_555 1_555
H23 C37 1_555 1_555
C38 C37 1_555 1_555
C39 C38 1_555 1_555
H24 C39 1_555 1_555
C40 C35 1_555 1_555
H25 C40 1_555 1_555
C41 C38 1_555 1_555
C42 Si2 1_555 1_555
C43 C42 1_555 1_555
H26 C43 1_555 1_555
C44 C43 1_555 1_555
H27 C44 1_555 1_555
C45 C44 1_555 1_555
C46 C45 1_555 1_555
H28 C46 1_555 1_555
C47 C42 1_555 1_555
H29 C47 1_555 1_555
C48 O11 1_555 1_555
C49 Si2 1_555 1_555
C50 C49 1_555 1_555
H30 C50 1_555 1_555
C51 C50 1_555 1_555
H31 C51 1_555 1_555
C52 C51 1_555 1_555
H32 C52 1_555 1_555
C53 C52 1_555 1_555
H33 C53 1_555 1_555
C54 C49 1_555 1_555
H34 C54 1_555 1_555
Zn1A O6 1_555 1_555
Zn2A O9 1_555 1_555
Zn3A O10 1_555 1_555
Zn3_2 O14 1_555 1_555
Zn4A O5 1_555 1_555
Zn4_2 O13 1_555 1_555
O5A Zn4 1_555 1_555
O6A Zn1 1_555 1_555
O9A Zn2 1_555 1_555
O10A Zn3 1_555 1_555
O13_2 Zn4 1_555 1_555
O14_2 Zn3 1_555 1_555
Zn3 O13 1_555 1_555
Zn4 O14 1_555 1_555
C5 C6 1_555 1_555
C12 C13 1_555 1_555
C19 C20 1_555 1_555
C26 C27 1_555 1_555
C31 C34 1_555 1_555
C32 C33 1_555 1_555
C39 C40 1_555 1_555
C45 C48 1_555 1_555
C46 C47 1_555 1_555
C53 C54 1_555 1_555
Zn3_2 O13_2 1_555 1_555
Zn4_2 O14_2 1_555 1_555

#END
