
#######################################################################
#
#                 Cambridge Crystallographic Data Centre
#                                CCDC 
#
#######################################################################
#
# If this CIF has been generated from an entry in the Cambridge 
# Structural Database, then it will include bibliographic, chemical, 
# crystal, experimental, refinement or atomic coordinate data resulting 
# from the CCDC's data processing and validation procedures.
#
#######################################################################

data_XORBUC
_symmetry_cell_setting           triclinic
_symmetry_space_group_name_H-M   'P -1'
_symmetry_Int_Tables_number      2
_space_group_name_Hall           '-P 1'
loop_
_symmetry_equiv_pos_site_id
_symmetry_equiv_pos_as_xyz
1 x,y,z
2 -x,-y,-z
_cell_length_a                   8.2803(16)
_cell_length_b                   10.3542(15)
_cell_length_c                   11.1326(16)
_cell_angle_alpha                113.727(2)
_cell_angle_beta                 104.282(2)
_cell_angle_gamma                100.255(2)
_cell_volume                     804.355
loop_
_atom_site_label
_atom_site_type_symbol
_atom_site_fract_x
_atom_site_fract_y
_atom_site_fract_z
Cu1 Cu 0.19610(4) 0.10191(4) 0.85793(3)
O1 O 0.2219(2) -0.1190(2) 0.72071(19)
H1 H 0.1429 -0.1781 0.7210
H2 H 0.2044 -0.1368 0.6355
O2 O 0.0914(2) 0.1452(2) 0.70850(19)
O3 O -0.1259(2) 0.1550(2) 0.5551(2)
O4 O -0.03462(19) 0.0177(2) 0.85253(17)
N1 N 0.4334(2) 0.2137(2) 0.8836(2)
N2 N -0.1750(2) -0.0553(2) 0.7360(2)
C1 C -0.0674(3) 0.1033(3) 0.6318(3)
C2 C -0.2009(3) -0.0229(3) 0.6273(3)
C3 C -0.3540(3) -0.1045(3) 0.5131(3)
H3 H -0.3732 -0.0846 0.4372
C4 C -0.4790(4) -0.2146(3) 0.5090(3)
H4 H -0.5816 -0.2691 0.4311
C5 C -0.4505(3) -0.2435(3) 0.6216(3)
H5 H -0.5340 -0.3173 0.6207
C6 C -0.2977(3) -0.1622(3) 0.7352(3)
C7 C 0.5711(3) 0.1730(3) 0.9304(3)
H6 H 0.5515 0.0959 0.9532
C8 C 0.7385(3) 0.2394(3) 0.9463(3)
H7 H 0.8296 0.2069 0.9786
C9 C 0.7720(3) 0.3550(3) 0.9140(3)
C10 C 0.9550(3) 0.4315(3) 0.9299(3)
H8 H 1.0233 0.3633 0.9208
H9 H 0.9489 0.4589 0.8556
C11 C 0.6311(3) 0.3996(3) 0.8688(3)
H10 H 0.6476 0.4781 0.8478
C12 C 0.4657(3) 0.3265(3) 0.8552(3)
H11 H 0.3725 0.3579 0.8247
C13 C -0.2547(3) -0.1842(3) 0.8652(3)
O7 O -0.28529(19) -0.0934(2) 0.96613(18)
O8 O -0.1981(2) -0.2882(2) 0.85992(19)
Cu1A Cu -0.19610(4) -0.10191(4) 1.14207(3)
Cu1A_2 Cu 1.80390(4) 0.89809(4) 1.14207(3)
O1A O -0.2219(2) 0.1190(2) 1.27929(19)
H1A H -0.1429 0.1781 1.2790
H2A H -0.2044 0.1368 1.3645
O2A O -0.0914(2) -0.1452(2) 1.29150(19)
O3A O 0.1259(2) -0.1550(2) 1.4449(2)
O4A O 0.03462(19) -0.0177(2) 1.14747(17)
N1A N 1.5666(2) 0.7863(2) 1.1164(2)
N1A_2 N -0.4334(2) -0.2137(2) 1.1164(2)
N2A N 0.1750(2) 0.0553(2) 1.2640(2)
C1A C 0.0674(3) -0.1033(3) 1.3682(3)
C2A C 0.2009(3) 0.0229(3) 1.3727(3)
C3A C 0.3540(3) 0.1045(3) 1.4869(3)
H3A H 0.3732 0.0846 1.5628
C4A C 0.4790(4) 0.2146(3) 1.4910(3)
H4A H 0.5816 0.2691 1.5689
C5A C 0.4505(3) 0.2435(3) 1.3784(3)
H5A H 0.5340 0.3173 1.3793
C6A C 0.2977(3) 0.1622(3) 1.2648(3)
C7A C 1.4289(3) 0.8270(3) 1.0696(3)
H6A H 1.4485 0.9041 1.0468
C8A C 1.2615(3) 0.7606(3) 1.0537(3)
H7A H 1.1704 0.7931 1.0214
C9A C 1.2280(3) 0.6450(3) 1.0860(3)
C10A C 1.0450(3) 0.5685(3) 1.0701(3)
H8A H 0.9767 0.6367 1.0792
H9A H 1.0511 0.5411 1.1444
C11A C 1.3689(3) 0.6004(3) 1.1312(3)
H10A H 1.3524 0.5219 1.1522
C12A C 1.5343(3) 0.6735(3) 1.1448(3)
H11A H 1.6275 0.6421 1.1753
C13A C 0.2547(3) 0.1842(3) 1.1348(3)
O7A O 0.28529(19) 0.0934(2) 1.03387(18)
O8A O 0.1981(2) 0.2882(2) 1.14008(19)
O5 O 0.1565(4) 0.4191(4) 0.6143(4)
H14 H 0.073(4) 0.350(3) 0.594(5)
H15 H 0.139(6) 0.499(3) 0.629(6)
O6 O 0.0310(4) 0.3758(3) 0.3339(4)
H12 H 0.088(5) 0.363(5) 0.280(3)
H13 H 0.091(6) 0.450(4) 0.414(3)
loop_
_geom_bond_atom_site_label_1
_geom_bond_atom_site_label_2
_geom_bond_site_symmetry_1
_geom_bond_site_symmetry_2
Cu1 O1 1_555 1_555
O1 H1 1_555 1_555
H2 O1 1_555 1_555
O2 Cu1 1_555 1_555
O3 C1 1_555 1_555
O4 Cu1 1_555 1_555
N1 Cu1 1_555 1_555
N2 O4 1_555 1_555
C1 O2 1_555 1_555
C2 N2 1_555 1_555
C3 C2 1_555 1_555
H3 C3 1_555 1_555
C4 C3 1_555 1_555
H4 C4 1_555 1_555
C5 C4 1_555 1_555
H5 C5 1_555 1_555
C6 N2 1_555 1_555
C7 N1 1_555 1_555
H6 C7 1_555 1_555
C8 C7 1_555 1_555
H7 C8 1_555 1_555
C9 C8 1_555 1_555
C10 C9 1_555 1_555
H8 C10 1_555 1_555
H9 C10 1_555 1_555
C11 C9 1_555 1_555
H10 C11 1_555 1_555
C12 N1 1_555 1_555
H11 C12 1_555 1_555
O5 H14 1_555 1_555
O6 H12 1_555 1_555
C13 C6 1_555 1_555
O7 C13 1_555 1_555
O8 C13 1_555 1_555
H13 O6 1_555 1_555
H15 O5 1_555 1_555
Cu1A O7 1_555 1_555
Cu1A_2 N1A 1_555 1_555
O1A Cu1A 1_555 1_555
H1A O1A 1_555 1_555
H2A O1A 1_555 1_555
O2A Cu1A 1_555 1_555
O3A C1A 1_555 1_555
O4A Cu1A 1_555 1_555
N1A C7A 1_555 1_555
N1A_2 Cu1A 1_555 1_555
N2A O4A 1_555 1_555
C1A O2A 1_555 1_555
C2A N2A 1_555 1_555
C3A C2A 1_555 1_555
H3A C3A 1_555 1_555
C4A C3A 1_555 1_555
H4A C4A 1_555 1_555
C5A C4A 1_555 1_555
H5A C5A 1_555 1_555
C6A N2A 1_555 1_555
C7A H6A 1_555 1_555
C8A C7A 1_555 1_555
H7A C8A 1_555 1_555
C9A C8A 1_555 1_555
C10A C10 1_555 1_555
H8A C10A 1_555 1_555
H9A C10A 1_555 1_555
C11A C9A 1_555 1_555
H10A C11A 1_555 1_555
C12A N1A 1_555 1_555
H11A C12A 1_555 1_555
C13A C6A 1_555 1_555
O7A Cu1 1_555 1_555
O8A C13A 1_555 1_555
C1 C2 1_555 1_555
C5 C6 1_555 1_555
C11 C12 1_555 1_555
C1A C2A 1_555 1_555
C5A C6A 1_555 1_555
C9A C10A 1_555 1_555
C11A C12A 1_555 1_555
C13A O7A 1_555 1_555

#END
