
#######################################################################
#
#                 Cambridge Crystallographic Data Centre
#                                CCDC 
#
#######################################################################
#
# If this CIF has been generated from an entry in the Cambridge 
# Structural Database, then it will include bibliographic, chemical, 
# crystal, experimental, refinement or atomic coordinate data resulting 
# from the CCDC's data processing and validation procedures.
#
#######################################################################

data_XORBOW
_symmetry_cell_setting           triclinic
_symmetry_space_group_name_H-M   'P -1'
_symmetry_Int_Tables_number      2
_space_group_name_Hall           '-P 1'
loop_
_symmetry_equiv_pos_site_id
_symmetry_equiv_pos_as_xyz
1 x,y,z
2 -x,-y,-z
_cell_length_a                   7.5793(10)
_cell_length_b                   10.4791(13)
_cell_length_c                   11.0258(14)
_cell_angle_alpha                109.295(2)
_cell_angle_beta                 107.267(2)
_cell_angle_gamma                104.026(2)
_cell_volume                     730.805
loop_
_atom_site_label
_atom_site_type_symbol
_atom_site_fract_x
_atom_site_fract_y
_atom_site_fract_z
Cu1 Cu 0.35764(4) 0.12742(3) 0.24999(3)
N1 N 0.0701(3) 0.2588(2) 0.2056(2)
N2 N 0.5996(3) 0.0935(2) 0.3437(2)
O1 O 0.3844(3) 0.2595(2) 0.43263(17)
O2 O 0.3075(3) 0.4150(2) 0.57771(19)
O3 O 0.0959(2) 0.13258(17) 0.16839(17)
O4 O -0.2846(2) 0.03777(18) -0.06931(17)
O5 O -0.0764(3) 0.1668(2) -0.13033(19)
O6 O 0.5230(3) 0.2967(2) 0.2039(2)
C1 C 0.2931(4) 0.3438(3) 0.4596(3)
C2 C 0.1572(3) 0.3640(3) 0.3403(2)
C3 C 0.1193(4) 0.4908(3) 0.3685(3)
H1 H 0.1765 0.5633 0.4605
C4 C -0.0032(4) 0.5106(3) 0.2609(3)
H2 H -0.0263 0.5968 0.2797
C5 C -0.0898(4) 0.4018(3) 0.1266(3)
H3 H -0.1729 0.4138 0.0536
C6 C -0.0546(3) 0.2743(3) 0.0989(2)
C7 C -0.1441(4) 0.1487(3) -0.0463(3)
C8 C 0.6618(4) 0.1143(3) 0.4783(3)
H4 H 0.5970 0.1543 0.5311
C9 C 0.8156(4) 0.0799(3) 0.5423(3)
H5 H 0.8521 0.0961 0.6360
C10 C 0.9179(3) 0.0205(2) 0.4674(2)
C11 C 0.8570(4) 0.0040(3) 0.3286(3)
H6 H 0.9230 -0.0317 0.2745
C12 C 0.7003(4) 0.0401(3) 0.2719(3)
H7 H 0.6619 0.0269 0.1789
H8 H 0.589(5) 0.3839(17) 0.265(3)
H9 H 0.459(5) 0.302(4) 0.129(2)
Cu1A Cu -0.35764(4) -0.12742(3) -0.24999(3)
Cu1A_2 Cu 1.64236(4) -0.12742(3) 0.75001(3)
N1A N -0.0701(3) -0.2588(2) -0.2056(2)
N2A N 1.4004(3) -0.0935(2) 0.6563(2)
N2A_2 N -0.5996(3) -0.0935(2) -0.3437(2)
O1A O -0.3844(3) -0.2595(2) -0.43263(17)
O2A O -0.3075(3) -0.4150(2) -0.57771(19)
O3A O -0.0959(2) -0.13258(17) -0.16839(17)
O4A O 0.2846(2) -0.03777(18) 0.06931(17)
O5A O 0.0764(3) -0.1668(2) 0.13033(19)
O6A O -0.5230(3) -0.2967(2) -0.2039(2)
C1A C -0.2931(4) -0.3438(3) -0.4596(3)
C2A C -0.1572(3) -0.3640(3) -0.3403(2)
C3A C -0.1193(4) -0.4908(3) -0.3685(3)
H1A H -0.1765 -0.5633 -0.4605
C4A C 0.0032(4) -0.5106(3) -0.2609(3)
H2A H 0.0263 -0.5968 -0.2797
C5A C 0.0898(4) -0.4018(3) -0.1266(3)
H3A H 0.1729 -0.4138 -0.0536
C6A C 0.0546(3) -0.2743(3) -0.0989(2)
C7A C 0.1441(4) -0.1487(3) 0.0463(3)
C8A C 1.3382(4) -0.1143(3) 0.5217(3)
H4A H 1.4030 -0.1543 0.4689
C9A C 1.1844(4) -0.0799(3) 0.4577(3)
H5A H 1.1479 -0.0961 0.3640
C10A C 1.0821(3) -0.0205(2) 0.5326(2)
C11A C 1.1430(4) -0.0040(3) 0.6714(3)
H6A H 1.0770 0.0317 0.7255
C12A C 1.2997(4) -0.0401(3) 0.7281(3)
H7A H 1.3381 -0.0269 0.8211
H8A H -0.589(5) -0.3839(17) -0.265(3)
H9A H -0.459(5) -0.302(4) -0.129(2)
O7 O 0.4730(5) 0.6357(4) 0.1892(3)
H10 H 0.553(5) 0.641(4) 0.264(2)
H11 H 0.430(6) 0.5445(14) 0.141(4)
O8 O 0.6831(4) 0.6554(3) 0.0209(3)
H12 H 0.803(2) 0.713(3) 0.064(4)
H13 H 0.629(5) 0.664(4) 0.078(3)
loop_
_geom_bond_atom_site_label_1
_geom_bond_atom_site_label_2
_geom_bond_site_symmetry_1
_geom_bond_site_symmetry_2
Cu1 N2 1_555 1_555
N1 O3 1_555 1_555
N2 C8 1_555 1_555
O1 Cu1 1_555 1_555
O2 C1 1_555 1_555
O3 Cu1 1_555 1_555
O4 C7 1_555 1_555
O5 C7 1_555 1_555
O6 Cu1 1_555 1_555
O7 H10 1_555 1_555
O8 H12 1_555 1_555
C1 O1 1_555 1_555
C2 N1 1_555 1_555
C3 C2 1_555 1_555
H1 C3 1_555 1_555
C4 C3 1_555 1_555
H2 C4 1_555 1_555
C5 C4 1_555 1_555
H3 C5 1_555 1_555
C6 N1 1_555 1_555
C7 C6 1_555 1_555
C8 H4 1_555 1_555
C9 C8 1_555 1_555
H5 C9 1_555 1_555
C10 C9 1_555 1_555
C11 C10 1_555 1_555
H6 C11 1_555 1_555
C12 N2 1_555 1_555
H7 C12 1_555 1_555
H8 O6 1_555 1_555
H9 O6 1_555 1_555
H11 O7 1_555 1_555
H13 O8 1_555 1_555
Cu1A O4 1_555 1_555
Cu1A_2 N2A 1_555 1_555
N1A O3A 1_555 1_555
N2A C8A 1_555 1_555
N2A_2 Cu1A 1_555 1_555
O1A Cu1A 1_555 1_555
O2A C1A 1_555 1_555
O3A Cu1A 1_555 1_555
O4A Cu1 1_555 1_555
O5A C7A 1_555 1_555
O6A Cu1A 1_555 1_555
C1A O1A 1_555 1_555
C2A N1A 1_555 1_555
C3A C2A 1_555 1_555
H1A C3A 1_555 1_555
C4A C3A 1_555 1_555
H2A C4A 1_555 1_555
C5A C4A 1_555 1_555
H3A C5A 1_555 1_555
C6A N1A 1_555 1_555
C7A O4A 1_555 1_555
C8A H4A 1_555 1_555
C9A C8A 1_555 1_555
H5A C9A 1_555 1_555
C10A C10 1_555 1_555
C11A C10A 1_555 1_555
H6A C11A 1_555 1_555
C12A N2A 1_555 1_555
H7A C12A 1_555 1_555
H8A O6A 1_555 1_555
H9A O6A 1_555 1_555
C1 C2 1_555 1_555
C5 C6 1_555 1_555
C11 C12 1_555 1_555
C1A C2A 1_555 1_555
C5A C6A 1_555 1_555
C6A C7A 1_555 1_555
C9A C10A 1_555 1_555
C11A C12A 1_555 1_555

#END
