
#######################################################################
#
#                 Cambridge Crystallographic Data Centre
#                                CCDC 
#
#######################################################################
#
# If this CIF has been generated from an entry in the Cambridge 
# Structural Database, then it will include bibliographic, chemical, 
# crystal, experimental, refinement or atomic coordinate data resulting 
# from the CCDC's data processing and validation procedures.
#
#######################################################################

data_XORCIR
_symmetry_cell_setting           monoclinic
_symmetry_space_group_name_H-M   'P 21/c'
_symmetry_Int_Tables_number      14
_space_group_name_Hall           '-P 2ybc'
loop_
_symmetry_equiv_pos_site_id
_symmetry_equiv_pos_as_xyz
1 x,y,z
2 -x,1/2+y,1/2-z
3 -x,-y,-z
4 x,1/2-y,1/2+z
_cell_length_a                   10.2735(10)
_cell_length_b                   11.5277(11)
_cell_length_c                   18.3136(18)
_cell_angle_alpha                90
_cell_angle_beta                 90.492(2)
_cell_angle_gamma                90
_cell_volume                     2168.8
loop_
_atom_site_label
_atom_site_type_symbol
_atom_site_fract_x
_atom_site_fract_y
_atom_site_fract_z
Ni1 Ni 0.24345(4) 0.82146(3) 0.24643(3)
N1 N 0.2101(3) 1.6756(2) 0.18978(14)
O1 O 0.2792(2) 0.72143(17) 0.32889(12)
N2 N 0.1583(3) 0.9239(2) 0.17306(16)
O2 O 0.2660(3) 1.0546(2) 0.41223(14)
O3 O 0.4933(3) 0.5357(2) 0.34099(15)
O4 O 0.2380(3) 0.95330(19) 0.31071(14)
C1 C 0.2792(4) 1.4843(3) 0.15808(18)
H1 H 0.3426 1.4270 0.1617
C2 C 0.1006(4) 1.6554(3) 0.15205(19)
H2 H 0.0374 1.7131 0.1501
O5 O 0.4462(3) 0.8314(2) 0.2137(2)
H3 H 0.4663 0.8994 0.2072
C3 C 0.4072(3) 0.6676(3) 0.42433(18)
C4 C 0.3369(3) 0.8639(3) 0.4170(2)
N3 N 0.3425(3) 0.7536(2) 0.38980(15)
C5 C 0.2748(4) 0.9651(3) 0.3764(2)
O6 O 0.3287(3) 0.4783(2) 0.41065(14)
C6 C -0.0065(4) 1.1891(3) 0.03513(19)
H4 H -0.0980 1.1736 0.0260
H5 H 0.0374 1.1899 -0.0115
C7 C 0.4684(4) 0.6900(3) 0.4901(2)
H6 H 0.5148 0.6313 0.5136
C8 C 0.0495(4) 1.0937(3) 0.0819(2)
C9 C 0.1631(4) 1.0371(3) 0.06457(19)
H7 H 0.2062 1.0551 0.0216
C10 C 0.0460(4) 0.9761(3) 0.1888(2)
H8 H 0.0036 0.9547 0.2313
C11 C 0.4071(4) 0.5490(3) 0.3885(2)
C12 C 0.1668(4) 1.4639(3) 0.11813(19)
C13 C 0.2128(3) 0.9536(3) 0.1109(2)
H9 H 0.2891 0.9161 0.0975
C14 C 0.2976(4) 1.5894(3) 0.19265(19)
H10 H 0.3742 1.6010 0.2191
C15 C 0.0770(4) 1.5520(3) 0.11569(19)
H11 H -0.0001 1.5423 0.0895
C16 C 0.3962(3) 0.8847(3) 0.4835(2)
H12 H 0.3921 0.9587 0.5034
C17 C 0.4615(4) 0.7986(4) 0.5213(2)
H13 H 0.4997 0.8134 0.5666
C18 C -0.0102(4) 1.0596(3) 0.1454(2)
H14 H -0.0887 1.0932 0.1588
C19 C 0.0078(3) 1.3085(3) 0.0714(2)
H15 H -0.0394 1.3653 0.0424
H16 H -0.0317 1.3059 0.1193
C20 C 0.1474(4) 1.3478(3) 0.0797(2)
H17 H 0.1854 1.3528 0.0315
H18 H 0.1950 1.2888 0.1066
H19 H 0.513(3) 0.792(3) 0.233(3)
Ni1_2 Ni 0.24345(4) 1.82146(3) 0.24643(3)
N1_2 N 0.2101(3) 0.6756(2) 0.18978(14)
O7 O 0.6402(4) 0.7147(3) 0.2843(2)
H22 H 0.614(4) 0.647(2) 0.267(2)
H23 H 0.721(4) 0.721(6) 0.265(5)
O8 O 0.1997(4) 0.2720(4) 0.3500(3)
H20 H 0.218(7) 0.212(4) 0.376(4)
H21 H 0.255(5) 0.326(3) 0.358(3)
loop_
_geom_bond_atom_site_label_1
_geom_bond_atom_site_label_2
_geom_bond_site_symmetry_1
_geom_bond_site_symmetry_2
Ni1 O1 1_555 1_555
N1 C2 1_555 1_555
O1 N3 1_555 1_555
N2 Ni1 1_555 1_555
O2 C5 1_555 1_555
O3 C11 1_555 1_555
O4 Ni1 1_555 1_555
C1 H1 1_555 1_555
C2 H2 1_555 1_555
O5 Ni1 1_555 1_555
H3 O5 1_555 1_555
C3 N3 1_555 1_555
C4 N3 1_555 1_555
C5 O4 1_555 1_555
O6 C11 1_555 1_555
C6 H4 1_555 1_555
H5 C6 1_555 1_555
C7 C3 1_555 1_555
H6 C7 1_555 1_555
C8 C6 1_555 1_555
C9 C8 1_555 1_555
H7 C9 1_555 1_555
C10 N2 1_555 1_555
H8 C10 1_555 1_555
C11 C3 1_555 1_555
C12 C1 1_555 1_555
C13 N2 1_555 1_555
H9 C13 1_555 1_555
C14 N1 1_555 1_555
H10 C14 1_555 1_555
C15 C2 1_555 1_555
H11 C15 1_555 1_555
C16 C4 1_555 1_555
H12 C16 1_555 1_555
C17 C7 1_555 1_555
H13 C17 1_555 1_555
C18 C8 1_555 1_555
H14 C18 1_555 1_555
C19 C6 1_555 1_555
H15 C19 1_555 1_555
H16 C19 1_555 1_555
C20 C12 1_555 1_555
H17 C20 1_555 1_555
H18 C20 1_555 1_555
O7 H22 1_555 1_555
O8 H20 1_555 1_555
H19 O5 1_555 1_555
H21 O8 1_555 1_555
H23 O7 1_555 1_555
Ni1_2 N1 1_555 1_555
N1_2 Ni1 1_555 1_555
C1 C14 1_555 1_555
C4 C5 1_555 1_555
C9 C13 1_555 1_555
C10 C18 1_555 1_555
C12 C15 1_555 1_555
C16 C17 1_555 1_555
C19 C20 1_555 1_555

#END
