
#######################################################################
#
#                 Cambridge Crystallographic Data Centre
#                                CCDC 
#
#######################################################################
#
# If this CIF has been generated from an entry in the Cambridge 
# Structural Database, then it will include bibliographic, chemical, 
# crystal, experimental, refinement or atomic coordinate data resulting 
# from the CCDC's data processing and validation procedures.
#
#######################################################################

data_XORCAJ
_symmetry_cell_setting           triclinic
_symmetry_space_group_name_H-M   'P -1'
_symmetry_Int_Tables_number      2
_space_group_name_Hall           '-P 1'
loop_
_symmetry_equiv_pos_site_id
_symmetry_equiv_pos_as_xyz
1 x,y,z
2 -x,-y,-z
_cell_length_a                   8.569(4)
_cell_length_b                   10.442(5)
_cell_length_c                   10.694(8)
_cell_angle_alpha                109.441(10)
_cell_angle_beta                 109.313(11)
_cell_angle_gamma                102.054(7)
_cell_volume                     794.983
loop_
_atom_site_label
_atom_site_type_symbol
_atom_site_fract_x
_atom_site_fract_y
_atom_site_fract_z
C1 C 0.2098(5) 0.0336(4) 0.1418(4)
C2 C 0.3354(5) 0.1494(4) 0.1278(4)
C3 C 0.3730(5) 0.1133(4) 0.0074(4)
H1 H 0.3192 0.0182 -0.0660
C4 C 0.4874(6) 0.2141(5) -0.0062(5)
H2 H 0.5093 0.1884 -0.0891
C5 C 0.5714(6) 0.3557(5) 0.1048(4)
H3 H 0.6516 0.4250 0.0978
C6 C 0.5343(4) 0.3922(4) 0.2255(4)
N1 N 0.4167(4) 0.2891(3) 0.2335(3)
C7 C 0.6214(5) 0.5424(4) 0.3528(4)
C8 C -0.1238(5) 0.2767(4) 0.4324(4)
H4 H -0.0835 0.3707 0.4415
C9 C -0.2617(5) 0.2381(4) 0.4671(4)
H5 H -0.3120 0.3056 0.4996
C10 C -0.3258(5) 0.0989(4) 0.4538(4)
C11 C -0.2458(5) 0.0021(4) 0.4025(4)
H6 H -0.2858 -0.0932 0.3899
C12 C -0.1080(5) 0.0494(4) 0.3710(4)
H7 H -0.0558 -0.0160 0.3374
C13 C -0.4693(5) 0.0611(4) 0.4967(4)
H8 H -0.5209 0.1300 0.5211
Cu1 Cu 0.16858(5) 0.26150(4) 0.35873(5)
H9 H 0.078(5) 0.408(3) 0.199(4)
H10 H -0.038(5) 0.278(3) 0.119(2)
N2 N -0.0448(4) 0.1857(3) 0.3863(3)
O1 O 0.1275(3) 0.0692(3) 0.2185(3)
O2 O 0.1944(4) -0.0925(3) 0.0717(3)
O3 O 0.3940(3) 0.3343(3) 0.3566(3)
O4 O 0.5680(4) 0.6394(3) 0.3346(3)
O5 O 0.7458(3) 0.5553(3) 0.4648(3)
O6 O 0.0187(4) 0.3392(3) 0.2017(3)
C1A C -1.2098(5) -0.0336(4) 0.8582(4)
C2A C -1.3354(5) -0.1494(4) 0.8722(4)
C3A C -1.3730(5) -0.1133(4) 0.9926(4)
H1A H -1.3192 -0.0182 1.0660
C4A C -1.4874(6) -0.2141(5) 1.0062(5)
H2A H -1.5093 -0.1884 1.0891
C5A C -1.5714(6) -0.3557(5) 0.8952(4)
H3A H -1.6516 -0.4250 0.9022
C6A C -1.5343(4) -0.3922(4) 0.7745(4)
N1A N -1.4167(4) -0.2891(3) 0.7665(3)
C7A C -1.6214(5) -0.5424(4) 0.6472(4)
C8A C -0.8762(5) -0.2767(4) 0.5676(4)
H4A H -0.9165 -0.3707 0.5585
C9A C -0.7383(5) -0.2381(4) 0.5329(4)
H5A H -0.6880 -0.3056 0.5004
C10A C -0.6742(5) -0.0989(4) 0.5462(4)
C11A C -0.7542(5) -0.0021(4) 0.5975(4)
H6A H -0.7142 0.0932 0.6101
C12A C -0.8920(5) -0.0494(4) 0.6290(4)
H7A H -0.9442 0.0160 0.6626
C13A C -0.5307(5) -0.0611(4) 0.5033(4)
H8A H -0.4791 -0.1300 0.4789
Cu1A Cu -1.16858(5) -0.26150(4) 0.64127(5)
Cu1_2 Cu -1.83142(5) -0.73850(4) 0.35873(5)
Cu1A_2 Cu 0.83142(5) 0.73850(4) 0.64127(5)
H9A H -1.078(5) -0.408(3) 0.801(4)
H10A H -0.962(5) -0.278(3) 0.881(2)
N2A N -0.9552(4) -0.1857(3) 0.6137(3)
O1A O -1.1275(3) -0.0692(3) 0.7815(3)
O2A O -1.1944(4) 0.0925(3) 0.9283(3)
O3A O -1.3940(3) -0.3343(3) 0.6434(3)
O4A O -1.5680(4) -0.6394(3) 0.6654(3)
O5A O -1.7458(3) -0.5553(3) 0.5352(3)
O5_2 O -1.2542(3) -0.4447(3) 0.4648(3)
O5A_2 O 0.2542(3) 0.4447(3) 0.5352(3)
O6A O -1.0187(4) -0.3392(3) 0.7983(3)
H11 H 0.180(5) 0.607(3) 0.128(4)
H12 H 0.317(3) 0.561(4) 0.188(4)
O7 O 0.2135(5) 0.5412(5) 0.1367(5)
H13 H 0.041(5) 0.384(2) 0.897(4)
H14 H 0.073(5) 0.294(4) 0.795(4)
O8 O 0.0082(10) 0.2866(6) 0.8432(6)
loop_
_geom_bond_atom_site_label_1
_geom_bond_atom_site_label_2
_geom_bond_site_symmetry_1
_geom_bond_site_symmetry_2
C1 C2 1_555 1_555
C2 C3 1_555 1_555
C3 H1 1_555 1_555
C4 C3 1_555 1_555
H2 C4 1_555 1_555
C5 C4 1_555 1_555
H3 C5 1_555 1_555
C6 C5 1_555 1_555
N1 C2 1_555 1_555
C7 C6 1_555 1_555
C8 H4 1_555 1_555
C9 C8 1_555 1_555
H5 C9 1_555 1_555
C10 C9 1_555 1_555
C11 C10 1_555 1_555
H6 C11 1_555 1_555
C12 C11 1_555 1_555
H7 C12 1_555 1_555
C13 C10 1_555 1_555
H8 C13 1_555 1_555
Cu1 N2 1_555 1_555
H9 O6 1_555 1_555
H10 O6 1_555 1_555
H11 O7 1_555 1_555
H12 O7 1_555 1_555
H13 O8 1_555 1_555
H14 O8 1_555 1_555
N2 C8 1_555 1_555
O1 C1 1_555 1_555
O2 C1 1_555 1_555
O3 N1 1_555 1_555
O4 C7 1_555 1_555
O5 C7 1_555 1_555
O6 Cu1 1_555 1_555
C1A C2A 1_555 1_555
C2A C3A 1_555 1_555
C3A H1A 1_555 1_555
C4A C3A 1_555 1_555
H2A C4A 1_555 1_555
C5A C4A 1_555 1_555
H3A C5A 1_555 1_555
C6A C5A 1_555 1_555
N1A C2A 1_555 1_555
C7A C6A 1_555 1_555
C8A H4A 1_555 1_555
C9A C8A 1_555 1_555
H5A C9A 1_555 1_555
C10A C9A 1_555 1_555
C11A C10A 1_555 1_555
H6A C11A 1_555 1_555
C12A C11A 1_555 1_555
H7A C12A 1_555 1_555
C13A C13 1_555 1_555
H8A C13A 1_555 1_555
Cu1A N2A 1_555 1_555
Cu1_2 O5A 1_555 1_555
Cu1A_2 O5 1_555 1_555
H9A O6A 1_555 1_555
H10A O6A 1_555 1_555
N2A C8A 1_555 1_555
O1A C1A 1_555 1_555
O2A C1A 1_555 1_555
O3A N1A 1_555 1_555
O4A C7A 1_555 1_555
O5A C7A 1_555 1_555
O5_2 Cu1A 1_555 1_555
O5A_2 Cu1 1_555 1_555
O6A Cu1A 1_555 1_555
C6 N1 1_555 1_555
C12 N2 1_555 1_555
Cu1 O1 1_555 1_555
Cu1 O3 1_555 1_555
C6A N1A 1_555 1_555
C10A C13A 1_555 1_555
C12A N2A 1_555 1_555
Cu1A O1A 1_555 1_555
Cu1A O3A 1_555 1_555

#END
