
#######################################################################
#
#                 Cambridge Crystallographic Data Centre
#                                CCDC 
#
#######################################################################
#
# If this CIF has been generated from an entry in the Cambridge 
# Structural Database, then it will include bibliographic, chemical, 
# crystal, experimental, refinement or atomic coordinate data resulting 
# from the CCDC's data processing and validation procedures.
#
#######################################################################

data_XORCOX
_symmetry_cell_setting           triclinic
_symmetry_space_group_name_H-M   'P -1'
_symmetry_Int_Tables_number      2
_space_group_name_Hall           '-P 1'
loop_
_symmetry_equiv_pos_site_id
_symmetry_equiv_pos_as_xyz
1 x,y,z
2 -x,-y,-z
_cell_length_a                   4.9739(9)
_cell_length_b                   8.8459(15)
_cell_length_c                   9.1479(16)
_cell_angle_alpha                93.829(2)
_cell_angle_beta                 94.930(2)
_cell_angle_gamma                103.0610(10)
_cell_volume                     389.088
loop_
_atom_site_label
_atom_site_type_symbol
_atom_site_fract_x
_atom_site_fract_y
_atom_site_fract_z
Ag1 Ag 0.57616(14) -0.04906(8) 0.33474(7)
Cu1 Cu 1.0000 0.0000 0.0000
O1 O 0.9602(10) 0.0870(5) 0.1923(5)
O2 O 1.5106(11) 0.2019(7) 0.3730(7)
O3 O 1.2030(14) 0.1996(8) 0.5351(6)
O4 O 0.7282(10) 0.1075(5) -0.0874(5)
O5 O 0.4009(10) 0.2352(6) -0.0451(6)
N1 N 0.9796(10) 0.2439(6) 0.2063(6)
C1 C 1.1451(13) 0.3261(8) 0.3220(7)
C2 C 1.1592(14) 0.4842(8) 0.3477(8)
H1 H 1.2768 0.5427 0.4260
C3 C 0.9967(16) 0.5543(8) 0.2560(8)
H2 H 1.0036 0.6601 0.2722
C4 C 0.8245(14) 0.4650(8) 0.1399(8)
H3 H 0.7146 0.5113 0.0782
C5 C 0.8131(13) 0.3073(7) 0.1142(7)
C6 C 1.3006(14) 0.2324(8) 0.4184(8)
C7 C 0.6297(14) 0.2077(8) -0.0144(7)
Ag1A Ag 1.42384(14) 0.04906(8) -0.33474(7)
Ag1_2 Ag 1.57616(14) -0.04906(8) 0.33474(7)
Ag1A_2 Ag 1.42384(14) 0.04906(8) 0.66526(7)
Ag1A_3 Ag 0.42384(14) 0.04906(8) -0.33474(7)
Ag1_3 Ag 0.57616(14) -0.04906(8) -0.66526(7)
Cu1_2 Cu 0.0000 0.0000 0.0000
Cu1_3 Cu 2.0000 0.0000 0.0000
O1A O 1.0398(10) -0.0870(5) -0.1923(5)
O2A O 0.4894(11) -0.2019(7) -0.3730(7)
O2_2 O 0.5106(11) 0.2019(7) 0.3730(7)
O2A_2 O 1.4894(11) -0.2019(7) -0.3730(7)
O3A O 0.7970(14) -0.1996(8) -0.5351(6)
O3A_2 O 0.7970(14) -0.1996(8) 0.4649(6)
O3_2 O 1.2030(14) 0.1996(8) -0.4649(6)
O4A O 1.2718(10) -0.1075(5) 0.0874(5)
O4A_2 O 0.2718(10) -0.1075(5) 0.0874(5)
O4_2 O 1.7282(10) 0.1075(5) -0.0874(5)
O5A O 1.5991(10) -0.2352(6) 0.0451(6)
O5_2 O 1.4009(10) 0.2352(6) -0.0451(6)
O5A_2 O 0.5991(10) -0.2352(6) 0.0451(6)
N1A N 1.0204(10) -0.2439(6) -0.2063(6)
C1A C 0.8549(13) -0.3261(8) -0.3220(7)
C2A C 0.8408(14) -0.4842(8) -0.3477(8)
H1A H 0.7232 -0.5427 -0.4260
C3A C 1.0033(16) -0.5543(8) -0.2560(8)
H2A H 0.9964 -0.6601 -0.2722
C4A C 1.1755(14) -0.4650(8) -0.1399(8)
H3A H 1.2854 -0.5113 -0.0782
C5A C 1.1869(13) -0.3073(7) -0.1142(7)
C6A C 0.6994(14) -0.2324(8) -0.4184(8)
C7A C 1.3703(14) -0.2077(8) 0.0144(7)
loop_
_geom_bond_atom_site_label_1
_geom_bond_atom_site_label_2
_geom_bond_site_symmetry_1
_geom_bond_site_symmetry_2
Ag1 O1 1_555 1_555
Cu1 O1 1_555 1_555
O1 N1 1_555 1_555
O2 C6 1_555 1_555
O3 C6 1_555 1_555
O4 Cu1 1_555 1_555
O5 C7 1_555 1_555
N1 C1 1_555 1_555
C1 C2 1_555 1_555
C2 H1 1_555 1_555
C3 C2 1_555 1_555
H2 C3 1_555 1_555
C4 C3 1_555 1_555
H3 C4 1_555 1_555
C5 N1 1_555 1_555
C6 C1 1_555 1_555
C7 O4 1_555 1_555
Ag1A O1A 1_555 1_555
Ag1_2 O2 1_555 1_555
Ag1A_2 O3 1_555 1_555
Ag1A_3 O4 1_555 1_555
Ag1_3 O3A 1_555 1_555
Cu1_2 O5 1_555 1_555
Cu1_3 O4_2 1_555 1_555
O1A Cu1 1_555 1_555
O2A Ag1A_3 1_555 1_555
O2_2 Ag1 1_555 1_555
O2A_2 Ag1A 1_555 1_555
O3A C6A 1_555 1_555
O3A_2 Ag1 1_555 1_555
O3_2 Ag1A 1_555 1_555
O4A Cu1 1_555 1_555
O4A_2 Ag1 1_555 1_555
O4_2 Ag1A 1_555 1_555
O5A Cu1_3 1_555 1_555
O5_2 Cu1 1_555 1_555
O5A_2 Cu1 1_555 1_555
N1A O1A 1_555 1_555
C1A N1A 1_555 1_555
C2A C1A 1_555 1_555
H1A C2A 1_555 1_555
C3A C2A 1_555 1_555
H2A C3A 1_555 1_555
C4A C3A 1_555 1_555
H3A C4A 1_555 1_555
C5A N1A 1_555 1_555
C6A O2A 1_555 1_555
C7A O4A 1_555 1_555
C4 C5 1_555 1_555
C5 C7 1_555 1_555
Ag1_2 O4A 1_555 1_555
Cu1_2 O4A_2 1_555 1_555
O5A C7A 1_555 1_555
C1A C6A 1_555 1_555
C4A C5A 1_555 1_555
C5A C7A 1_555 1_555

#END
