
#######################################################################
#
#                 Cambridge Crystallographic Data Centre
#                                CCDC 
#
#######################################################################
#
# If this CIF has been generated from an entry in the Cambridge 
# Structural Database, then it will include bibliographic, chemical, 
# crystal, experimental, refinement or atomic coordinate data resulting 
# from the CCDC's data processing and validation procedures.
#
#######################################################################

data_XORCEN
_symmetry_cell_setting           monoclinic
_symmetry_space_group_name_H-M   'P 21/c'
_symmetry_Int_Tables_number      14
_space_group_name_Hall           '-P 2ybc'
loop_
_symmetry_equiv_pos_site_id
_symmetry_equiv_pos_as_xyz
1 x,y,z
2 -x,1/2+y,1/2-z
3 -x,-y,-z
4 x,1/2-y,1/2+z
_cell_length_a                   10.2712(12)
_cell_length_b                   11.5251(13)
_cell_length_c                   18.309(2)
_cell_angle_alpha                90
_cell_angle_beta                 90.521(2)
_cell_angle_gamma                90
_cell_volume                     2167.27
loop_
_atom_site_label
_atom_site_type_symbol
_atom_site_fract_x
_atom_site_fract_y
_atom_site_fract_z
O1 O 0.3294(4) -0.0222(4) 0.4107(2)
N1 N 0.2099(4) 1.1755(4) 0.1898(2)
C1 C 0.2964(6) 1.0891(5) 0.1931(3)
H1 H 0.3722 1.1004 0.2203
C2 C 0.2793(6) 0.9843(5) 0.1583(3)
H2 H 0.3431 0.9273 0.1622
C3 C 0.1004(5) 1.1549(5) 0.1512(3)
H3 H 0.0378 1.2130 0.1482
C4 C 0.0772(6) 1.0516(5) 0.1160(3)
H4 H -0.0008 1.0412 0.0907
C5 C 0.1675(6) 0.9632(5) 0.1177(3)
C6 C 0.1473(6) 0.8479(5) 0.0793(3)
H5 H 0.1847 0.8530 0.0310
H6 H 0.1952 0.7888 0.1060
Cu1 Cu 0.24338(6) 0.32154(5) 0.24658(3)
O2 O 0.2789(4) 0.2217(3) 0.32903(19)
N2 N 0.1570(4) 0.4238(4) 0.1726(2)
O3 O 0.2662(5) 0.5545(4) 0.4122(2)
O4 O 0.2385(5) 0.4531(3) 0.3115(2)
O5 O 0.4935(4) 0.0356(3) 0.3419(3)
O6 O 0.4465(5) 0.3312(4) 0.2133(4)
C7 C 0.3379(5) 0.3646(5) 0.4175(3)
C8 C 0.1622(6) 0.5381(5) 0.0652(3)
H7 H 0.2050 0.5578 0.0225
N3 N 0.3428(4) 0.2545(4) 0.3897(2)
C9 C 0.4696(6) 0.1911(6) 0.4906(3)
H8 H 0.5162 0.1328 0.5143
C10 C 0.2756(6) 0.4649(5) 0.3768(3)
C11 C 0.4082(5) 0.1681(5) 0.4244(3)
C12 C -0.0072(6) 0.6897(5) 0.0350(3)
H9 H -0.0989 0.6748 0.0262
H10 H 0.0362 0.6905 -0.0118
C13 C 0.0495(5) 0.5925(5) 0.0820(3)
C14 C 0.4079(6) 0.0501(5) 0.3885(3)
C15 C 0.3955(6) 0.3840(5) 0.4834(3)
H11 H 0.3897 0.4578 0.5036
C16 C 0.2146(5) 0.4543(5) 0.1102(3)
H12 H 0.2917 0.4180 0.0969
C17 C 0.0446(6) 0.4770(5) 0.1894(3)
H13 H 0.0030 0.4569 0.2325
C18 C 0.4621(7) 0.2998(6) 0.5216(3)
H14 H 0.5006 0.3156 0.5667
C19 C -0.0102(6) 0.5588(5) 0.1457(3)
H15 H -0.0888 0.5925 0.1589
C20 C 0.0086(6) 0.8094(4) 0.0717(3)
H16 H -0.0389 0.8665 0.0431
H17 H -0.0302 0.8065 0.1197
H18 H 0.506(5) 0.287(4) 0.232(4)
H19 H 0.477(6) 0.399(3) 0.204(5)
N1_2 N 0.2099(4) 0.1755(4) 0.1898(2)
Cu1_2 Cu 0.24338(6) 1.32154(5) 0.24658(3)
O7 O 0.6397(6) 0.2147(6) 0.2848(4)
H22 H 0.659(7) 0.175(6) 0.247(3)
H23 H 0.570(19) 0.19(2) 0.305(11)
O8 O 0.2009(7) 0.7709(6) 0.3493(5)
H20 H 0.243(7) 0.828(4) 0.369(4)
H21 H 0.207(18) 0.709(6) 0.376(6)
loop_
_geom_bond_atom_site_label_1
_geom_bond_atom_site_label_2
_geom_bond_site_symmetry_1
_geom_bond_site_symmetry_2
O1 C14 1_555 1_555
N1 C1 1_555 1_555
C1 H1 1_555 1_555
C2 C1 1_555 1_555
H2 C2 1_555 1_555
C3 N1 1_555 1_555
H3 C3 1_555 1_555
C4 C3 1_555 1_555
H4 C4 1_555 1_555
C5 C2 1_555 1_555
C6 C5 1_555 1_555
H5 C6 1_555 1_555
H6 C6 1_555 1_555
Cu1 O2 1_555 1_555
O2 N3 1_555 1_555
N2 Cu1 1_555 1_555
O3 C10 1_555 1_555
O4 Cu1 1_555 1_555
O5 C14 1_555 1_555
O6 Cu1 1_555 1_555
C7 N3 1_555 1_555
C8 H7 1_555 1_555
N3 C11 1_555 1_555
C9 H8 1_555 1_555
C10 O4 1_555 1_555
C11 C9 1_555 1_555
C12 H9 1_555 1_555
H10 C12 1_555 1_555
C13 C8 1_555 1_555
C14 C11 1_555 1_555
C15 C7 1_555 1_555
H11 C15 1_555 1_555
C16 N2 1_555 1_555
H12 C16 1_555 1_555
C17 N2 1_555 1_555
H13 C17 1_555 1_555
C18 C9 1_555 1_555
H14 C18 1_555 1_555
C19 C13 1_555 1_555
H15 C19 1_555 1_555
C20 C6 1_555 1_555
H16 C20 1_555 1_555
H17 C20 1_555 1_555
O7 H22 1_555 1_555
O8 H20 1_555 1_555
H18 O6 1_555 1_555
H19 O6 1_555 1_555
H21 O8 1_555 1_555
H23 O7 1_555 1_555
N1_2 Cu1 1_555 1_555
Cu1_2 N1 1_555 1_555
C4 C5 1_555 1_555
C7 C10 1_555 1_555
C8 C16 1_555 1_555
C12 C13 1_555 1_555
C12 C20 1_555 1_555
C15 C18 1_555 1_555
C17 C19 1_555 1_555

#END
