
#######################################################################
#
#                 Cambridge Crystallographic Data Centre
#                                CCDC 
#
#######################################################################
#
# If this CIF has been generated from an entry in the Cambridge 
# Structural Database, then it will include bibliographic, chemical, 
# crystal, experimental, refinement or atomic coordinate data resulting 
# from the CCDC's data processing and validation procedures.
#
#######################################################################

data_XORDAJ
_symmetry_cell_setting           monoclinic
_symmetry_space_group_name_H-M   'P 21/n'
_symmetry_Int_Tables_number      14
_space_group_name_Hall           '-P 2yn'
loop_
_symmetry_equiv_pos_site_id
_symmetry_equiv_pos_as_xyz
1 x,y,z
2 1/2-x,1/2+y,1/2-z
3 -x,-y,-z
4 1/2+x,1/2-y,1/2+z
_cell_length_a                   6.341(1)
_cell_length_b                   16.880(2)
_cell_length_c                   5.7798(8)
_cell_angle_alpha                90
_cell_angle_beta                 97.60(1)
_cell_angle_gamma                90
_cell_volume                     613.213
loop_
_atom_site_label
_atom_site_type_symbol
_atom_site_fract_x
_atom_site_fract_y
_atom_site_fract_z
Sr1 Sr 0.8786(5) 0.4184(2) 0.7385(6)
C1 C 0.6300(6) 0.2384(2) 0.5764(6)
C2 C 0.5849(5) 0.5177(2) 1.0912(6)
C3 C 0.6495(6) 0.2790(2) 0.3378(6)
O1 O 0.6171(7) 0.2290(3) 0.1597(9)
O2 O 0.6749(8) 0.2813(3) 0.7532(8)
O3 O 0.8613(7) 0.5630(3) 0.5715(8)
O4 O 0.7759(6) 0.5072(2) 1.0679(8)
O5 O 0.5734(7) 0.1682(3) 0.5661(8)
O6 O 0.5139(7) 0.5549(2) 1.2612(9)
O7 O 0.6978(8) 0.3493(3) 0.3315(9)
D1 D 0.7196(8) 0.5700(3) 0.4781(9)
D2 D 0.8683(9) 0.6041(3) 0.6981(9)
D3 D 0.6473(9) 0.2544(3) 0.0027(9)
C2B C 0.4151(5) 0.4823(2) 0.9088(6)
O4B O 0.2241(6) 0.4928(2) 0.9321(8)
O6B O 0.4861(7) 0.4451(2) 0.7388(9)
O3B O 1.1387(7) 0.4370(3) 0.4285(8)
D1B D 1.2804(8) 0.4300(3) 0.5219(9)
D2B D 1.1317(9) 0.3959(3) 0.3019(9)
C1C C 1.1300(6) 0.2616(2) 1.0764(6)
C3C C 1.1495(6) 0.2210(2) 0.8378(6)
O1C O 1.1171(7) 0.2710(3) 0.6597(9)
O2C O 1.1749(8) 0.2187(3) 1.2532(8)
O5C O 1.0734(7) 0.3318(3) 1.0661(8)
O7C O 1.1978(8) 0.1507(3) 0.8315(9)
D3C D 1.1473(9) 0.2456(3) 0.5027(9)
Sr1C Sr 1.3786(5) 0.0816(2) 1.2385(6)
O4B_2 O 1.2241(6) 0.4928(2) 0.9321(8)
Sr1B Sr 1.1214(5) 0.5816(2) 0.2615(6)
Sr1B_2 Sr 1.1214(5) 0.5816(2) 1.2615(6)
Sr1C_2 Sr 0.3786(5) 0.0816(2) 0.2385(6)
Sr1B_3 Sr 0.1214(5) 0.5816(2) 1.2615(6)
Sr1_2 Sr -0.1214(5) 0.4184(2) 0.7385(6)
O3A O 1.6387(7) 0.0630(3) 0.9285(8)
O3C O 1.3613(7) -0.0630(3) 1.0715(8)
O4A O 1.7241(6) 0.0072(2) 1.4321(8)
O4C O 1.2759(6) -0.0072(2) 1.5679(8)
O5_2 O 1.5734(7) 0.1682(3) 1.5661(8)
O6A O 0.9861(7) 0.0549(2) 1.2388(9)
D1A D 1.7804(8) 0.0700(3) 1.0219(9)
D2A D 1.6317(9) 0.1041(3) 0.8019(9)
D1C D 1.2196(8) -0.0700(3) 0.9781(9)
D2C D 1.3683(9) -0.1041(3) 1.1981(9)
loop_
_geom_bond_atom_site_label_1
_geom_bond_atom_site_label_2
_geom_bond_site_symmetry_1
_geom_bond_site_symmetry_2
Sr1 O2 1_555 1_555
C1 C3 1_555 1_555
C2 O4 1_555 1_555
C3 O1 1_555 1_555
O1 D3 1_555 1_555
O2 C1 1_555 1_555
O3 Sr1 1_555 1_555
O4 Sr1 1_555 1_555
O5 C1 1_555 1_555
O6 C2 1_555 1_555
O7 Sr1 1_555 1_555
D1 O3 1_555 1_555
D2 O3 1_555 1_555
C2B C2 1_555 1_555
O4B C2B 1_555 1_555
O6B Sr1 1_555 1_555
O3B Sr1 1_555 1_555
D1B O3B 1_555 1_555
D2B O3B 1_555 1_555
C1C C3C 1_555 1_555
C3C O1C 1_555 1_555
O1C D3C 1_555 1_555
O2C C1C 1_555 1_555
O5C Sr1 1_555 1_555
O7C C3C 1_555 1_555
Sr1C O2C 1_555 1_555
O4B_2 Sr1 1_555 1_555
Sr1B O3 1_555 1_555
Sr1B_2 O4 1_555 1_555
Sr1C_2 O5 1_555 1_555
Sr1B_3 O6 1_555 1_555
Sr1_2 O4B 1_555 1_555
O3A Sr1C 1_555 1_555
O3C Sr1C 1_555 1_555
O4A Sr1C 1_555 1_555
O4C Sr1C 1_555 1_555
O5_2 Sr1C 1_555 1_555
O6A Sr1C 1_555 1_555
D1A O3A 1_555 1_555
D2A O3A 1_555 1_555
D1C O3C 1_555 1_555
D2C O3C 1_555 1_555
C3 O7 1_555 1_555
C2B O6B 1_555 1_555
O4B Sr1B_3 1_555 1_555
O3B Sr1B 1_555 1_555
C1C O5C 1_555 1_555
O7C Sr1C 1_555 1_555
O4B_2 Sr1B_2 1_555 1_555

#END
