
#######################################################################
#
#                 Cambridge Crystallographic Data Centre
#                                CCDC 
#
#######################################################################
#
# If this CIF has been generated from an entry in the Cambridge 
# Structural Database, then it will include bibliographic, chemical, 
# crystal, experimental, refinement or atomic coordinate data resulting 
# from the CCDC's data processing and validation procedures.
#
#######################################################################

data_XORDAJ01
_symmetry_cell_setting           monoclinic
_symmetry_space_group_name_H-M   'P 21/n'
_symmetry_Int_Tables_number      14
_space_group_name_Hall           '-P 2yn'
loop_
_symmetry_equiv_pos_site_id
_symmetry_equiv_pos_as_xyz
1 x,y,z
2 1/2-x,1/2+y,1/2-z
3 -x,-y,-z
4 1/2+x,1/2-y,1/2+z
_cell_length_a                   6.341(1)
_cell_length_b                   16.880(2)
_cell_length_c                   5.7798(8)
_cell_angle_alpha                90
_cell_angle_beta                 97.60(1)
_cell_angle_gamma                90
_cell_volume                     613.213
loop_
_atom_site_label
_atom_site_type_symbol
_atom_site_fract_x
_atom_site_fract_y
_atom_site_fract_z
Sr1 Sr 0.8793(2) 0.41798(8) 0.7356(3)
C1 C 0.632(2) 0.2392(8) 0.578(3)
C2 C 0.583(2) 0.5164(9) 1.093(2)
C3 C 0.648(2) 0.2778(8) 0.347(3)
O1 O 0.622(1) 0.2287(5) 0.157(2)
O2 O 0.673(1) 0.2813(5) 0.756(2)
O3 O 0.856(1) 0.5661(5) 0.576(1)
O4 O 0.779(1) 0.5085(5) 1.070(1)
O5 O 0.575(1) 0.1676(5) 0.569(2)
O6 O 0.524(1) 0.5548(4) 1.265(1)
O7 O 0.694(1) 0.3488(5) 0.329(1)
C2B C 0.417(2) 0.4836(9) 0.907(2)
O4B O 0.221(1) 0.4915(5) 0.930(1)
O6B O 0.476(1) 0.4452(4) 0.735(1)
O3B O 1.144(1) 0.4339(5) 0.424(1)
C1C C 1.132(2) 0.2608(8) 1.078(3)
C3C C 1.148(2) 0.2222(8) 0.847(3)
O1C O 1.122(1) 0.2713(5) 0.657(2)
O2C O 1.173(1) 0.2187(5) 1.256(2)
O5C O 1.075(1) 0.3324(5) 1.069(2)
O7C O 1.194(1) 0.1512(5) 0.829(1)
Sr1C Sr 1.3793(2) 0.08202(8) 1.2356(3)
O4B_2 O 1.221(1) 0.4915(5) 0.930(1)
Sr1B Sr 1.1207(2) 0.58202(8) 0.2644(3)
Sr1B_2 Sr 1.1207(2) 0.58202(8) 1.2644(3)
Sr1C_2 Sr 0.3793(2) 0.08202(8) 0.2356(3)
Sr1B_3 Sr 0.1207(2) 0.58202(8) 1.2644(3)
Sr1_2 Sr -0.1207(2) 0.41798(8) 0.7356(3)
O3A O 1.644(1) 0.0661(5) 0.924(1)
O3C O 1.356(1) -0.0661(5) 1.076(1)
O4A O 1.721(1) 0.0085(5) 1.430(1)
O4C O 1.279(1) -0.0085(5) 1.570(1)
O5_2 O 1.575(1) 0.1676(5) 1.569(2)
O6A O 0.976(1) 0.0548(4) 1.235(1)
loop_
_geom_bond_atom_site_label_1
_geom_bond_atom_site_label_2
_geom_bond_site_symmetry_1
_geom_bond_site_symmetry_2
Sr1 O2 1_555 1_555
C1 C3 1_555 1_555
C2 O4 1_555 1_555
C3 O1 1_555 1_555
O2 C1 1_555 1_555
O3 Sr1 1_555 1_555
O4 Sr1 1_555 1_555
O5 C1 1_555 1_555
O6 C2 1_555 1_555
O7 Sr1 1_555 1_555
C2B C2 1_555 1_555
O4B C2B 1_555 1_555
O6B Sr1 1_555 1_555
O3B Sr1 1_555 1_555
C1C C3C 1_555 1_555
C3C O1C 1_555 1_555
O2C C1C 1_555 1_555
O5C Sr1 1_555 1_555
O7C C3C 1_555 1_555
Sr1C O2C 1_555 1_555
O4B_2 Sr1 1_555 1_555
Sr1B O3 1_555 1_555
Sr1B_2 O4 1_555 1_555
Sr1C_2 O5 1_555 1_555
Sr1B_3 O6 1_555 1_555
Sr1_2 O4B 1_555 1_555
O3A Sr1C 1_555 1_555
O3C Sr1C 1_555 1_555
O4A Sr1C 1_555 1_555
O4C Sr1C 1_555 1_555
O5_2 Sr1C 1_555 1_555
O6A Sr1C 1_555 1_555
C3 O7 1_555 1_555
C2B O6B 1_555 1_555
O4B Sr1B_3 1_555 1_555
O3B Sr1B 1_555 1_555
C1C O5C 1_555 1_555
O7C Sr1C 1_555 1_555
O4B_2 Sr1B_2 1_555 1_555

#END
