
#######################################################################
#
#                 Cambridge Crystallographic Data Centre
#                                CCDC 
#
#######################################################################
#
# If this CIF has been generated from an entry in the Cambridge 
# Structural Database, then it will include bibliographic, chemical, 
# crystal, experimental, refinement or atomic coordinate data resulting 
# from the CCDC's data processing and validation procedures.
#
#######################################################################

data_XORFUG
_symmetry_cell_setting           orthorhombic
_symmetry_space_group_name_H-M   'P b c a'
_symmetry_Int_Tables_number      61
_space_group_name_Hall           '-P 2ac 2ab'
loop_
_symmetry_equiv_pos_site_id
_symmetry_equiv_pos_as_xyz
1 x,y,z
2 1/2-x,-y,1/2+z
3 1/2+x,1/2-y,-z
4 -x,1/2+y,1/2-z
5 -x,-y,-z
6 1/2+x,y,1/2-z
7 1/2-x,1/2+y,z
8 x,1/2-y,1/2+z
_cell_length_a                   18.8307(5)
_cell_length_b                   7.3395(2)
_cell_length_c                   26.3168(8)
_cell_angle_alpha                90
_cell_angle_beta                 90
_cell_angle_gamma                90
_cell_volume                     3637.19
loop_
_atom_site_label
_atom_site_type_symbol
_atom_site_fract_x
_atom_site_fract_y
_atom_site_fract_z
Co1 Co 0.119243(18) 0.18049(5) 0.124990(15)
O1 O 0.18857(9) 0.2100(2) 0.07165(7)
O2 O 0.20574(9) 0.1894(2) 0.16361(7)
N1 N 0.09189(14) -0.2326(4) 0.04475(11)
N2 N 0.04094(12) 0.1812(3) 0.07745(9)
C1 C -0.02903(16) 0.1000(5) 0.08958(14)
C2 C 0.15525(16) 0.2377(4) 0.24559(12)
N3 N 0.11063(12) -0.1574(3) 0.08041(10)
N4 N 0.13131(12) -0.0853(3) 0.11938(9)
C3 C 0.23349(18) 0.3177(4) 0.31523(13)
N5 N 0.06137(14) 0.5182(3) 0.14616(10)
C4 C 0.29011(18) 0.3137(4) 0.28177(13)
N6 N 0.11529(12) 0.4466(3) 0.13164(9)
N7 N 0.06237(12) 0.1464(3) 0.18529(9)
C5 C -0.00890(17) 0.0641(5) 0.18272(14)
C6 C 0.04589(17) 0.2466(4) 0.03213(13)
C7 C 0.1574(2) 0.4352(5) -0.07097(14)
C8 C 0.17697(15) 0.2820(4) 0.02609(11)
C9 C 0.16658(18) 0.2784(4) 0.29740(13)
C10 C 0.09977(19) 0.3858(4) -0.04238(12)
C11 C -0.05457(16) 0.1482(5) 0.14203(13)
C12 C 0.21319(15) 0.2335(4) 0.21207(11)
N8 N 0.01043(15) 0.5929(4) 0.15961(12)
C13 C 0.08482(16) 0.1821(4) 0.23060(12)
C14 C 0.10825(15) 0.3099(4) 0.00645(11)
C15 C 0.22540(19) 0.4067(5) -0.05140(14)
C16 C 0.28104(16) 0.2721(4) 0.23128(12)
C17 C 0.23494(17) 0.3307(4) -0.00435(12)
Na1 Na 0.26130(6) -0.02634(15) 0.11501(4)
H1 H -0.0289(13) 0.076(3) 0.2133(11)
H2 H 0.0527(13) 0.161(3) 0.2564(10)
H3 H 0.0052(14) 0.250(4) 0.0131(11)
H4 H 0.2798(14) 0.310(3) 0.0073(11)
H5 H 0.3211(14) 0.262(4) 0.2082(11)
H6 H 0.1264(14) 0.278(4) 0.3181(11)
H7 H -0.1008(14) 0.100(4) 0.1454(10)
H8 H 0.3361(15) 0.344(4) 0.2917(11)
H9 H -0.0064(13) -0.063(4) 0.1757(11)
H10 H 0.2647(16) 0.431(4) -0.0694(12)
H11 H 0.2405(15) 0.341(4) 0.3517(12)
H12 H 0.0522(14) 0.404(4) -0.0547(11)
H13 H -0.0599(14) 0.283(4) 0.1466(11)
H14 H 0.1491(15) 0.484(4) -0.1024(12)
H15 H -0.0253(14) -0.029(4) 0.0870(11)
H16 H -0.0624(18) 0.144(4) 0.0643(13)
O1F O 0.31143(9) -0.2900(2) 0.07165(7)
O2F O 0.29426(9) -0.3106(2) 0.16361(7)
N6F N 0.38471(12) -0.0534(3) 0.13164(9)
Na1F Na 0.23870(6) 0.47366(15) 0.11501(4)
loop_
_geom_bond_atom_site_label_1
_geom_bond_atom_site_label_2
_geom_bond_site_symmetry_1
_geom_bond_site_symmetry_2
Co1 O1 1_555 1_555
O1 C8 1_555 1_555
O2 Co1 1_555 1_555
N1 N3 1_555 1_555
N2 Co1 1_555 1_555
C1 N2 1_555 1_555
C2 C9 1_555 1_555
N3 N4 1_555 1_555
N4 Co1 1_555 1_555
C3 C4 1_555 1_555
N5 N6 1_555 1_555
C4 C16 1_555 1_555
N6 Co1 1_555 1_555
N7 Co1 1_555 1_555
C5 N7 1_555 1_555
C6 N2 1_555 1_555
C7 C10 1_555 1_555
C8 C14 1_555 1_555
C9 C3 1_555 1_555
C10 C14 1_555 1_555
C11 C1 1_555 1_555
C12 O2 1_555 1_555
N8 N5 1_555 1_555
C13 C2 1_555 1_555
C14 C6 1_555 1_555
C15 C7 1_555 1_555
C16 C12 1_555 1_555
C17 C8 1_555 1_555
Na1 O1 1_555 1_555
H1 C5 1_555 1_555
H2 C13 1_555 1_555
H3 C6 1_555 1_555
H4 C17 1_555 1_555
H5 C16 1_555 1_555
H6 C9 1_555 1_555
H7 C11 1_555 1_555
H8 C4 1_555 1_555
H9 C5 1_555 1_555
H10 C15 1_555 1_555
H11 C3 1_555 1_555
H12 C10 1_555 1_555
H13 C11 1_555 1_555
H14 C7 1_555 1_555
H15 C1 1_555 1_555
H16 C1 1_555 1_555
O1F Na1 1_555 1_555
O2F Na1 1_555 1_555
N6F Na1 1_555 1_555
Na1F O1 1_555 1_555
O2 Na1 1_555 1_555
O2 Na1F 1_555 1_555
C2 C12 1_555 1_555
N4 Na1 1_555 1_555
N6 Na1F 1_555 1_555
N7 C13 1_555 1_555
C5 C11 1_555 1_555
C15 C17 1_555 1_555

#END
