
#######################################################################
#
#                 Cambridge Crystallographic Data Centre
#                                CCDC 
#
#######################################################################
#
# If this CIF has been generated from an entry in the Cambridge 
# Structural Database, then it will include bibliographic, chemical, 
# crystal, experimental, refinement or atomic coordinate data resulting 
# from the CCDC's data processing and validation procedures.
#
#######################################################################

data_XORGOC
_symmetry_cell_setting           monoclinic
_symmetry_space_group_name_H-M   'P 21/c'
_symmetry_Int_Tables_number      14
_space_group_name_Hall           '-P 2ybc'
loop_
_symmetry_equiv_pos_site_id
_symmetry_equiv_pos_as_xyz
1 x,y,z
2 -x,1/2+y,1/2-z
3 -x,-y,-z
4 x,1/2-y,1/2+z
_cell_length_a                   9.902(2)
_cell_length_b                   11.171(2)
_cell_length_c                   14.512(3)
_cell_angle_alpha                90
_cell_angle_beta                 100.402(4)
_cell_angle_gamma                90
_cell_volume                     1578.87
loop_
_atom_site_label
_atom_site_type_symbol
_atom_site_fract_x
_atom_site_fract_y
_atom_site_fract_z
S1 S 0.88324(7) 1.07802(6) 0.14719(4)
Zn1 Zn 0.90714(3) 1.00698(2) 0.362003(19)
Zn2 Zn 0.65167(3) 0.89187(3) 0.070452(19)
O1 O 0.8949(2) 1.11574(16) 0.24611(13)
O2 O 1.0642(2) 0.89748(17) 0.32087(14)
H1 H 1.0447 0.8883 0.2618
H2 H 1.0784 0.8286 0.3456
O3 O 0.7361(2) 1.05362(17) 0.10875(13)
O4 O 0.5851(2) 0.96186(17) -0.06213(12)
H3 H 0.6460 1.0082 -0.0767
H4 H 0.5695 0.9050 -0.1015
O5 O 0.9623(2) 0.96838(19) 0.14200(14)
O6 O 0.9297(2) 1.17632(18) 0.09424(13)
N1 N 0.7529(2) 0.87246(19) 0.29660(15)
N2 N 0.6653(2) 0.84925(19) 0.21483(14)
N3 N 0.6034(2) 0.7326(2) 0.32580(15)
N4 N 0.8875(2) 0.88938(18) 0.47366(14)
N5 N 0.9457(2) 0.87788(19) 0.56597(14)
N6 N 0.7801(2) 0.74099(19) 0.53290(15)
N7 N 0.4813(2) 0.75941(19) 0.07315(15)
N8 N 0.2734(2) 0.6065(2) 0.10620(15)
C1 C 0.7125(3) 0.8011(2) 0.36037(17)
C2 C 0.5792(3) 0.7662(2) 0.23508(17)
C3 C 0.7897(2) 0.8070(2) 0.45618(17)
C4 C 0.8799(3) 0.7893(2) 0.59848(18)
H5 H 0.8999 0.7628 0.6602
C5 C 0.4724(3) 0.7215(2) 0.16042(17)
C6 C 0.3683(3) 0.6468(2) 0.17649(18)
H6 H 0.3641 0.6240 0.2376
C7 C 0.2858(3) 0.6390(3) 0.01926(19)
H7 H 0.2239 0.6091 -0.0314
C8 C 0.3888(3) 0.7160(2) 0.00300(18)
H8 H 0.3933 0.7378 -0.0582
Zn1A Zn 0.09286(3) 0.50698(2) 0.137997(19)
Zn1B Zn 1.09286(3) 0.99302(2) 0.637997(19)
Zn2C Zn 0.65167(3) 0.60813(3) 0.570452(19)
N5B N 1.0543(2) 1.12212(19) 0.43403(14)
N6C N 0.7801(2) 0.75901(19) 0.03290(15)
N8A N 0.7266(2) 1.1065(2) 0.39380(15)
O7 O 0.3519(12) 0.9744(11) 0.3077(10)
H9 H 0.2700 0.9521 0.3084
H10 H 0.4101 0.9178 0.3121
O8 O 0.7957(2) 1.0976(2) -0.09159(15)
H11 H 0.8345 1.1207 -0.0375
H12 H 0.8708 1.0770 -0.1076
loop_
_geom_bond_atom_site_label_1
_geom_bond_atom_site_label_2
_geom_bond_site_symmetry_1
_geom_bond_site_symmetry_2
S1 O1 1_555 1_555
Zn1 O1 1_555 1_555
Zn2 O3 1_555 1_555
O2 Zn1 1_555 1_555
H1 O2 1_555 1_555
H2 O2 1_555 1_555
O3 S1 1_555 1_555
O4 Zn2 1_555 1_555
H3 O4 1_555 1_555
H4 O4 1_555 1_555
O5 S1 1_555 1_555
O6 S1 1_555 1_555
N1 Zn1 1_555 1_555
N2 Zn2 1_555 1_555
N3 C1 1_555 1_555
N4 Zn1 1_555 1_555
N5 N4 1_555 1_555
N6 C3 1_555 1_555
N7 Zn2 1_555 1_555
N8 C6 1_555 1_555
C1 N1 1_555 1_555
C2 N2 1_555 1_555
C3 N4 1_555 1_555
C4 N5 1_555 1_555
H5 C4 1_555 1_555
C5 N7 1_555 1_555
C6 C5 1_555 1_555
H6 C6 1_555 1_555
C7 N8 1_555 1_555
H7 C7 1_555 1_555
C8 N7 1_555 1_555
H8 C8 1_555 1_555
O7 H9 1_555 1_555
H10 O7 1_555 1_555
O8 H11 1_555 1_555
H12 O8 1_555 1_555
Zn1A N8 1_555 1_555
Zn1B N5 1_555 1_555
Zn2C N6 1_555 1_555
N5B Zn1 1_555 1_555
N6C Zn2 1_555 1_555
N8A Zn1 1_555 1_555
N1 N2 1_555 1_555
N3 C2 1_555 1_555
N6 C4 1_555 1_555
C1 C3 1_555 1_555
C2 C5 1_555 1_555
C7 C8 1_555 1_555

#END
