
#######################################################################
#
#                 Cambridge Crystallographic Data Centre
#                                CCDC 
#
#######################################################################
#
# If this CIF has been generated from an entry in the Cambridge 
# Structural Database, then it will include bibliographic, chemical, 
# crystal, experimental, refinement or atomic coordinate data resulting 
# from the CCDC's data processing and validation procedures.
#
#######################################################################

data_XORHET
_symmetry_cell_setting           tetragonal
_symmetry_space_group_name_H-M   'P 43 21 2'
_symmetry_Int_Tables_number      96
_space_group_name_Hall           'P 4nw 2abw'
loop_
_symmetry_equiv_pos_site_id
_symmetry_equiv_pos_as_xyz
1 x,y,z
2 -x,-y,1/2+z
3 1/2-y,1/2+x,3/4+z
4 1/2+y,1/2-x,1/4+z
5 1/2-x,1/2+y,3/4-z
6 1/2+x,1/2-y,1/4-z
7 y,x,-z
8 -y,-x,1/2-z
_cell_length_a                   18.341(4)
_cell_length_b                   18.341(4)
_cell_length_c                   17.503(5)
_cell_angle_alpha                90
_cell_angle_beta                 90
_cell_angle_gamma                90
_cell_volume                     5887.87
loop_
_atom_site_label
_atom_site_type_symbol
_atom_site_fract_x
_atom_site_fract_y
_atom_site_fract_z
Co1 Co 0.84010(2) 0.84010(2) 0.0000
N1 N 0.73514(14) 0.83261(15) 0.04401(14)
N2 N 0.85199(16) 0.94289(15) 0.05710(15)
N3 N 0.88852(14) 0.81101(14) 0.10614(14)
N4 N 0.67761(14) 0.86860(14) 0.01160(15)
C1 C 0.7099(2) 0.8045(2) 0.1084(2)
N5 N 0.84072(17) 1.01638(15) 0.04223(17)
C2 C 0.87987(18) 0.93848(19) 0.12673(18)
C3 C 0.89894(19) 0.86611(18) 0.15344(19)
N6 N 0.91158(17) 0.74997(15) 0.14401(15)
C4 C 0.62098(18) 0.85826(17) 0.05829(17)
Co2 Co 0.65364(2) 0.93261(2) -0.08623(2)
N7 N 0.63714(16) 0.81884(18) 0.11999(17)
H1 H 0.7385 0.7778 0.1422
C5 C 0.8650(2) 1.05030(19) 0.1039(2)
N8 N 0.88967(15) 1.00420(15) 0.15910(16)
N9 N 0.9261(2) 0.84538(18) 0.22180(17)
C6 C 0.9337(3) 0.7742(2) 0.2117(2)
C7 C 0.55388(18) 0.89503(18) 0.03837(17)
N10 N 0.55433(15) 0.93764(17) -0.02239(15)
O1 O 0.69742(15) 1.02489(14) -0.03030(14)
N11 N 0.60880(14) 0.98923(14) -0.17882(14)
N12 N 0.59309(16) 0.84600(17) -0.14860(17)
C8 C 0.8702(2) 1.1266(2) 0.1160(2)
Co3 Co 0.94392(3) 1.05608(3) 0.2500
H2 H 0.9530 0.7436 0.2490
N13 N 0.48562(17) 0.96467(17) -0.03116(17)
H3 H 0.7393 1.0144 -0.0125
H4 H 0.7013 1.0597 -0.0621
N14 N 0.90670(19) 1.14738(17) 0.17838(19)
C9 C 0.8400(3) 1.1797(2) 0.0668(3)
O2 O 0.9550(2) 0.95997(16) 0.31280(17)
C10 C 0.44915(18) 0.93604(19) 0.02625(19)
C11 C 0.9144(3) 1.2204(2) 0.1897(3)
H5 H 0.8145 1.1645 0.0237
N15 N 0.8470(4) 1.2507(2) 0.0802(3)
H6 H 0.9965 0.9602 0.3344
H7 H 0.9522 0.9236 0.2829
C12 C 0.37182(19) 0.9485(2) 0.0437(2)
H8 H 0.9420 1.2376 0.2305
C13 C 0.8822(4) 1.2676(3) 0.1417(4)
C14 C 0.3281(3) 0.9964(3) 0.0045(3)
C15 C 0.2762(2) 0.9153(3) 0.1185(2)
H9 H 0.8854 1.3168 0.1538
H10 H 0.3474 1.0239 -0.0353
N16 N 0.2567(2) 1.0037(3) 0.0237(3)
H11 H 0.2561 0.8877 0.1578
C16 C 0.2319(3) 0.9645(4) 0.0792(3)
H12 H 0.1833 0.9692 0.0934
N1F N 0.83261(15) 0.73514(14) -0.04401(14)
N2F N 0.94289(15) 0.85199(16) -0.05710(15)
N3F N 0.81101(14) 0.88852(14) -0.10614(14)
N4F N 0.86860(14) 0.67761(14) -0.01160(15)
C1F C 0.8045(2) 0.7099(2) -0.1084(2)
N5F N 1.01638(15) 0.84072(17) -0.04223(17)
C2F C 0.93848(19) 0.87987(18) -0.12673(18)
C3F C 0.86611(18) 0.89894(19) -0.15344(19)
N6F N 0.74997(15) 0.91158(17) -0.14401(15)
Co2F Co 0.93261(2) 0.65364(2) 0.08623(2)
C4F C 0.85826(17) 0.62098(18) -0.05829(17)
N7F N 0.81884(18) 0.63714(16) -0.11999(17)
H1F H 0.7778 0.7385 -0.1422
C5F C 1.05030(19) 0.8650(2) -0.1039(2)
N8F N 1.00420(15) 0.88967(15) -0.15910(16)
N9F N 0.84538(18) 0.9261(2) -0.22180(17)
C6F C 0.7742(2) 0.9337(3) -0.2117(2)
N10F N 0.93764(17) 0.55433(15) 0.02239(15)
O1F O 1.02489(14) 0.69742(15) 0.03030(14)
N11F N 0.98923(14) 0.60880(14) 0.17882(14)
N12F N 0.84600(17) 0.59309(16) 0.14860(17)
C7F C 0.89503(18) 0.55388(18) -0.03837(17)
C8F C 1.1266(2) 0.8702(2) -0.1160(2)
Co3A Co 1.05608(3) 0.94392(3) -0.2500
H2F H 0.7436 0.9530 -0.2490
N11C N 0.48923(14) 0.89120(14) 0.07118(14)
O2G O 1.04003(16) 1.0450(2) 0.18720(17)
N8G N 0.99580(15) 1.11033(15) 0.34090(16)
N14G N 0.85262(17) 1.09330(19) 0.32162(19)
N13F N 0.96467(17) 0.48562(17) 0.03116(17)
H3F H 1.0144 0.7393 0.0125
H4F H 1.0597 0.7013 0.0621
N11D N 0.89120(14) 0.48923(14) -0.07118(14)
N14F N 1.14738(17) 0.90670(19) -0.17838(19)
C9F C 1.1797(2) 0.8400(3) -0.0668(3)
Co2C Co 0.43261(2) 0.84636(2) 0.16377(2)
H6G H 1.0398 1.0035 0.1656
H7G H 1.0764 1.0478 0.2171
C10F C 0.93604(19) 0.44915(18) -0.02625(19)
Co2D Co 0.84636(2) 0.43261(2) -0.16377(2)
C11F C 1.2204(2) 0.9144(3) -0.1897(3)
H5F H 1.1645 0.8145 -0.0237
N15F N 1.2507(2) 0.8470(4) -0.0802(3)
N12C N 0.34600(17) 0.90691(16) 0.10140(17)
C12F C 0.9485(2) 0.37182(19) -0.0437(2)
N12D N 0.90691(16) 0.34600(17) -0.10140(17)
H8F H 1.2376 0.9420 -0.2305
C13F C 1.2676(3) 0.8822(4) -0.1417(4)
C14F C 0.9964(3) 0.3281(3) -0.0045(3)
C15F C 0.9153(3) 0.2762(2) -0.1185(2)
H9F H 1.3168 0.8854 -0.1538
H10F H 1.0239 0.3474 0.0353
N16F N 1.0037(3) 0.2567(2) -0.0237(3)
H11F H 0.8877 0.2561 -0.1578
C16F C 0.9645(4) 0.2319(3) -0.0792(3)
H12F H 0.9692 0.1833 -0.0934
loop_
_geom_bond_atom_site_label_1
_geom_bond_atom_site_label_2
_geom_bond_site_symmetry_1
_geom_bond_site_symmetry_2
Co1 N1 1_555 1_555
N1 N4 1_555 1_555
N2 Co1 1_555 1_555
N3 Co1 1_555 1_555
N4 C4 1_555 1_555
C1 N1 1_555 1_555
N5 N2 1_555 1_555
C2 N2 1_555 1_555
C3 N3 1_555 1_555
N6 N3 1_555 1_555
C4 N7 1_555 1_555
Co2 N4 1_555 1_555
N7 C1 1_555 1_555
H1 C1 1_555 1_555
C5 N5 1_555 1_555
N8 C2 1_555 1_555
N9 C3 1_555 1_555
C6 N6 1_555 1_555
C7 C4 1_555 1_555
N10 Co2 1_555 1_555
O1 Co2 1_555 1_555
N11 Co2 1_555 1_555
N12 Co2 1_555 1_555
C8 C5 1_555 1_555
Co3 N8 1_555 1_555
H2 C6 1_555 1_555
N13 N10 1_555 1_555
H3 O1 1_555 1_555
H4 O1 1_555 1_555
N14 C8 1_555 1_555
C9 C8 1_555 1_555
O2 Co3 1_555 1_555
C10 N13 1_555 1_555
C11 N14 1_555 1_555
H5 C9 1_555 1_555
N15 C9 1_555 1_555
H6 O2 1_555 1_555
H7 O2 1_555 1_555
C12 C10 1_555 1_555
H8 C11 1_555 1_555
C13 C11 1_555 1_555
C14 C12 1_555 1_555
C15 H11 1_555 1_555
H9 C13 1_555 1_555
H10 C14 1_555 1_555
N16 C14 1_555 1_555
C16 C15 1_555 1_555
H12 C16 1_555 1_555
N1F Co1 1_555 1_555
N2F Co1 1_555 1_555
N3F Co1 1_555 1_555
N4F N1F 1_555 1_555
C1F N1F 1_555 1_555
N5F N2F 1_555 1_555
C2F N2F 1_555 1_555
C3F N3F 1_555 1_555
N6F Co2 1_555 1_555
Co2F N6 1_555 1_555
C4F N4F 1_555 1_555
N7F C1F 1_555 1_555
H1F C1F 1_555 1_555
C5F N5F 1_555 1_555
N8F C2F 1_555 1_555
N9F C3F 1_555 1_555
C6F N6F 1_555 1_555
N10F Co2F 1_555 1_555
O1F Co2F 1_555 1_555
N11F Co2F 1_555 1_555
N12F Co2F 1_555 1_555
C7F C4F 1_555 1_555
C8F C5F 1_555 1_555
Co3A N8F 1_555 1_555
H2F C6F 1_555 1_555
N11C C7 1_555 1_555
O2G Co3 1_555 1_555
N8G Co3 1_555 1_555
N14G Co3 1_555 1_555
N13F N10F 1_555 1_555
H3F O1F 1_555 1_555
H4F O1F 1_555 1_555
N11D C7F 1_555 1_555
N14F C8F 1_555 1_555
C9F C8F 1_555 1_555
Co2C N11C 1_555 1_555
H6G O2G 1_555 1_555
H7G O2G 1_555 1_555
C10F N13F 1_555 1_555
Co2D N11D 1_555 1_555
C11F N14F 1_555 1_555
H5F C9F 1_555 1_555
N15F C9F 1_555 1_555
N12C C12 1_555 1_555
C12F C10F 1_555 1_555
N12D Co2D 1_555 1_555
H8F C11F 1_555 1_555
C13F C11F 1_555 1_555
C14F C12F 1_555 1_555
C15F N12D 1_555 1_555
H9F C13F 1_555 1_555
H10F C14F 1_555 1_555
N16F C14F 1_555 1_555
H11F C15F 1_555 1_555
C16F C15F 1_555 1_555
H12F C16F 1_555 1_555
C2 C3 1_555 1_555
C5 N8 1_555 1_555
N9 C6 1_555 1_555
C7 N10 1_555 1_555
Co3 N14 1_555 1_555
C10 N11C 1_555 1_555
N15 C13 1_555 1_555
C15 N12C 1_555 1_555
N16 C16 1_555 1_555
N3F N6F 1_555 1_555
N4F Co2F 1_555 1_555
C2F C3F 1_555 1_555
C4F N7F 1_555 1_555
C5F N8F 1_555 1_555
N9F C6F 1_555 1_555
N10F C7F 1_555 1_555
Co3A N14F 1_555 1_555
N11D C10F 1_555 1_555
Co2C N12C 1_555 1_555
N15F C13F 1_555 1_555
C12F N12D 1_555 1_555
N16F C16F 1_555 1_555

#END
