
#######################################################################
#
#                 Cambridge Crystallographic Data Centre
#                                CCDC 
#
#######################################################################
#
# If this CIF has been generated from an entry in the Cambridge 
# Structural Database, then it will include bibliographic, chemical, 
# crystal, experimental, refinement or atomic coordinate data resulting 
# from the CCDC's data processing and validation procedures.
#
#######################################################################

data_XORHUI
_symmetry_cell_setting           monoclinic
_symmetry_space_group_name_H-M   'C 2/c'
_symmetry_Int_Tables_number      15
_space_group_name_Hall           '-C 2yn'
loop_
_symmetry_equiv_pos_site_id
_symmetry_equiv_pos_as_xyz
1 x,y,z
2 -x,y,1/2-z
3 1/2+x,1/2+y,z
4 1/2-x,1/2+y,1/2-z
5 -x,-y,-z
6 x,-y,1/2+z
7 1/2-x,1/2-y,-z
8 1/2+x,1/2-y,1/2+z
_cell_length_a                   9.3171(3)
_cell_length_b                   13.2987(5)
_cell_length_c                   9.1151(3)
_cell_angle_alpha                90
_cell_angle_beta                 101.086(1)
_cell_angle_gamma                90
_cell_volume                     1108.33
loop_
_atom_site_label
_atom_site_type_symbol
_atom_site_fract_x
_atom_site_fract_y
_atom_site_fract_z
O4 O 0.550(2) 0.0296(18) 0.265(3)
O4A O 0.450(2) 0.0296(18) 0.235(3)
Cs1 Cs 0.35159(8) 0.08015(5) -0.04599(9)
U1 U 0.00000 0.160370(17) 0.25000
O1 O 0.1230(5) 0.1613(3) 0.1257(4)
O2 O -0.1195(3) 0.3109(3) 0.1311(4)
O3 O -0.2963(4) 0.3737(3) -0.0463(4)
N1 N 0.00000 -0.0198(5) 0.25000
S1 S 0.00000 -0.22781(16) 0.25000
C1 C 0.00000 -0.1069(6) 0.25000
C2 C -0.2259(5) 0.3037(3) 0.0246(4)
U1F U -0.50000 0.339630(17) -0.25000
O1A O -0.1230(5) 0.1613(3) 0.3743(4)
O2F O -0.3805(3) 0.1891(3) -0.1311(4)
O2A O 0.1195(3) 0.3109(3) 0.3689(4)
O3F O -0.2037(4) 0.1263(3) 0.0463(4)
O3G O 0.2037(4) 0.1263(3) 0.4537(4)
C2F C -0.2741(5) 0.1963(3) -0.0246(4)
loop_
_geom_bond_atom_site_label_1
_geom_bond_atom_site_label_2
_geom_bond_site_symmetry_1
_geom_bond_site_symmetry_2
U1 O1 1_555 1_555
O2 U1 1_555 1_555
O3 C2 1_555 1_555
O4 O4A 1_555 1_555
N1 U1 1_555 1_555
S1 C1 1_555 1_555
C1 N1 1_555 1_555
C2 O2 1_555 1_555
U1F O3 1_555 1_555
O1A U1 1_555 1_555
O2F U1F 1_555 1_555
O2A U1 1_555 1_555
O3F U1 1_555 1_555
O3G U1 1_555 1_555
C2F C2 1_555 1_555
O2F C2F 1_555 1_555
O3F C2F 1_555 1_555

#END
