
#######################################################################
#
#                 Cambridge Crystallographic Data Centre
#                                CCDC 
#
#######################################################################
#
# If this CIF has been generated from an entry in the Cambridge 
# Structural Database, then it will include bibliographic, chemical, 
# crystal, experimental, refinement or atomic coordinate data resulting 
# from the CCDC's data processing and validation procedures.
#
#######################################################################

data_XORKIZ
_symmetry_cell_setting           triclinic
_symmetry_space_group_name_H-M   'P -1'
_symmetry_Int_Tables_number      2
_space_group_name_Hall           '-P 1'
loop_
_symmetry_equiv_pos_site_id
_symmetry_equiv_pos_as_xyz
1 x,y,z
2 -x,-y,-z
_cell_length_a                   9.6437(8)
_cell_length_b                   10.4200(8)
_cell_length_c                   13.5737(11)
_cell_angle_alpha                112.246(1)
_cell_angle_beta                 91.428(1)
_cell_angle_gamma                115.032(1)
_cell_volume                     1115.67
loop_
_atom_site_label
_atom_site_type_symbol
_atom_site_fract_x
_atom_site_fract_y
_atom_site_fract_z
Er1 Er 0.227083(14) 0.456605(16) 0.487094(11)
O1 O 0.1451(3) 0.4726(3) 0.65804(19)
O2 O 0.3953(3) 0.6194(3) 0.6719(2)
O3 O 0.7742(4) 0.8584(6) 1.0325(3)
O4 O 0.6790(4) 0.7886(5) 1.1604(2)
H1 H 0.7707 0.8444 1.1941
O5 O 0.1421(5) 0.4569(6) 1.1144(3)
O6 O -0.0142(4) 0.3240(5) 0.9565(3)
O7 O 0.4546(3) 0.6186(3) 0.4659(2)
O8 O 0.7074(3) 0.7051(3) 0.4653(2)
O9 O 0.9891(2) 1.2256(3) 0.4312(2)
O10 O 0.8430(3) 1.3475(3) 0.4575(2)
O11 O 0.2901(4) 0.9788(4) 0.2448(4)
O12 O 0.1679(3) 0.7981(4) 0.2951(3)
N1 N 0.1110(5) 0.4215(5) 1.0169(3)
N2 N 0.2879(3) 0.8955(4) 0.2875(3)
C1 C 0.2842(4) 0.5576(4) 0.7131(3)
C2 C 0.3190(4) 0.5791(5) 0.8283(3)
C3 C 0.4697(4) 0.6761(5) 0.8935(3)
H2 H 0.5497 0.7313 0.8661
C4 C 0.5027(5) 0.6919(5) 0.9983(3)
C5 C 0.3842(5) 0.6087(5) 1.0391(3)
H3 H 0.4044 0.6179 1.1094
C6 C 0.2364(5) 0.5124(5) 0.9734(3)
C7 C 0.2003(4) 0.4947(5) 0.8686(3)
H4 H 0.0990 0.4280 0.8259
C8 C 0.6663(5) 0.7900(6) 1.0654(4)
C9 C 0.5808(3) 0.7075(4) 0.4513(3)
C10 C 0.5789(3) 0.8254(4) 0.4142(3)
C11 C 0.7178(3) 0.9598(4) 0.4313(3)
H5 H 0.8133 0.9723 0.4607
C12 C 0.7139(3) 1.0748(4) 0.4045(3)
C13 C 0.5727(4) 1.0527(4) 0.3551(3)
H6 H 0.5687 1.1275 0.3353
C14 C 0.4380(4) 0.9163(4) 0.3361(3)
C15 C 0.4367(3) 0.8041(4) 0.3667(3)
H7 H 0.3431 0.7163 0.3560
C16 C 0.8590(3) 1.2272(4) 0.4334(3)
O13 O 0.1043(3) 0.4515(3) 0.3299(2)
H8 H 0.0495 0.4990 0.3367
H9 H 0.1155 0.4022 0.2670
O14 O 0.2804(3) 0.2994(3) 0.3298(2)
H10 H 0.3334 0.2541 0.3360
H11 H 0.2465 0.2885 0.2672
Er1A Er 0.772917(14) 0.543395(16) 0.512906(11)
Er1_2 Er 1.227083(14) 1.456605(16) 0.487094(11)
Er1A_2 Er 0.772917(14) 1.543395(16) 0.512906(11)
O8A O 0.2926(3) 0.2949(3) 0.5347(2)
O9_2 O -0.0109(2) 0.2256(3) 0.4312(2)
O10A O 0.1570(3) 0.6525(3) 0.5425(2)
O15 O 0.9584(3) 0.9438(4) 0.2749(3)
H12 H 1.0505 0.9957 0.3148
H13 H 0.9430 0.9430 0.2127
O16 O 0.9329(5) 0.8441(6) 0.8547(3)
H14 H 0.9349 0.8687 0.9222
H15 H 0.9624 0.9005 0.8201
loop_
_geom_bond_atom_site_label_1
_geom_bond_atom_site_label_2
_geom_bond_site_symmetry_1
_geom_bond_site_symmetry_2
Er1 O1 1_555 1_555
O1 C1 1_555 1_555
O2 Er1 1_555 1_555
O3 C8 1_555 1_555
O4 H1 1_555 1_555
O5 N1 1_555 1_555
O6 N1 1_555 1_555
O7 Er1 1_555 1_555
O8 C9 1_555 1_555
O9 C16 1_555 1_555
O10 C16 1_555 1_555
O11 N2 1_555 1_555
O12 N2 1_555 1_555
N1 C6 1_555 1_555
N2 C14 1_555 1_555
C1 O2 1_555 1_555
C2 C1 1_555 1_555
C3 C2 1_555 1_555
H2 C3 1_555 1_555
C4 C3 1_555 1_555
C5 C4 1_555 1_555
H3 C5 1_555 1_555
C6 C5 1_555 1_555
C7 C2 1_555 1_555
H4 C7 1_555 1_555
C8 O4 1_555 1_555
C9 O7 1_555 1_555
C10 C9 1_555 1_555
C11 C10 1_555 1_555
H5 C11 1_555 1_555
C12 C11 1_555 1_555
C13 C12 1_555 1_555
H6 C13 1_555 1_555
C14 C13 1_555 1_555
C15 C10 1_555 1_555
H7 C15 1_555 1_555
C16 C12 1_555 1_555
O13 Er1 1_555 1_555
H8 O13 1_555 1_555
H9 O13 1_555 1_555
O14 Er1 1_555 1_555
H10 O14 1_555 1_555
H11 O14 1_555 1_555
O15 H12 1_555 1_555
H13 O15 1_555 1_555
O16 H14 1_555 1_555
H15 O16 1_555 1_555
Er1A O8 1_555 1_555
Er1_2 O9 1_555 1_555
Er1A_2 O10 1_555 1_555
O8A Er1 1_555 1_555
O9_2 Er1 1_555 1_555
O10A Er1 1_555 1_555
C4 C8 1_555 1_555
C6 C7 1_555 1_555
C14 C15 1_555 1_555

#END
