
#######################################################################
#
#                 Cambridge Crystallographic Data Centre
#                                CCDC 
#
#######################################################################
#
# If this CIF has been generated from an entry in the Cambridge 
# Structural Database, then it will include bibliographic, chemical, 
# crystal, experimental, refinement or atomic coordinate data resulting 
# from the CCDC's data processing and validation procedures.
#
#######################################################################

data_XORKAR
_symmetry_cell_setting           triclinic
_symmetry_space_group_name_H-M   'P -1'
_symmetry_Int_Tables_number      2
_space_group_name_Hall           '-P 1'
loop_
_symmetry_equiv_pos_site_id
_symmetry_equiv_pos_as_xyz
1 x,y,z
2 -x,-y,-z
_cell_length_a                   9.6585(2)
_cell_length_b                   10.4244(2)
_cell_length_c                   13.5887(2)
_cell_angle_alpha                112.346(1)
_cell_angle_beta                 91.440(1)
_cell_angle_gamma                115.009(1)
_cell_volume                     1118.23
loop_
_atom_site_label
_atom_site_type_symbol
_atom_site_fract_x
_atom_site_fract_y
_atom_site_fract_z
Y1 Y 0.22681(3) 0.45655(3) 0.48694(2)
N1 N 0.1126(4) 0.4231(5) 1.0173(3)
N2 N 0.7115(3) 0.1045(3) 0.7124(2)
O1 O 0.3953(2) 0.6205(3) 0.67257(17)
O2 O 0.1449(2) 0.4733(3) 0.65851(16)
O3 O -0.0138(4) 0.3240(5) 0.9566(3)
O4 O 0.1409(5) 0.4557(6) 1.1132(3)
O5 O 0.6797(3) 0.7881(4) 1.1600(2)
H1 H 0.7726 0.8322 1.1899
O6 O 0.7745(4) 0.8594(6) 1.0330(3)
O7 O 0.2930(2) 0.2948(3) 0.5348(2)
O8 O 0.5453(2) 0.3804(2) 0.53369(18)
O9 O 0.8316(3) 0.2003(4) 0.7039(3)
O10 O 0.7098(3) 0.0205(4) 0.7540(3)
O11 O 0.1571(2) -0.3470(2) 0.54206(18)
O12 O 0.0115(2) -0.2250(2) 0.56871(18)
C1 C 0.5027(4) 0.6907(5) 0.9988(3)
C2 C 0.3845(4) 0.6094(5) 1.0393(3)
H2 H 0.4045 0.6191 1.1098
C3 C 0.2365(4) 0.5136(4) 0.9741(3)
C4 C 0.2002(4) 0.4943(4) 0.8683(3)
H3 H 0.0992 0.4269 0.8254
C5 C 0.3185(4) 0.5781(4) 0.8283(2)
C6 C 0.4689(4) 0.6760(4) 0.8929(3)
H4 H 0.5480 0.7325 0.8658
C7 C 0.6671(4) 0.7891(6) 1.0650(3)
C8 C 0.2844(3) 0.5583(3) 0.7139(2)
C9 C 0.5636(3) 0.1965(3) 0.6336(2)
H5 H 0.6569 0.2846 0.6449
C10 C 0.4215(3) 0.1739(3) 0.5857(2)
C11 C 0.2828(3) 0.0411(3) 0.5690(2)
H6 H 0.1876 0.0292 0.5398
C12 C 0.2864(3) -0.0742(3) 0.5959(2)
C13 C 0.4273(3) -0.0530(3) 0.6447(2)
H7 H 0.4313 -0.1281 0.6640
C14 C 0.5612(3) 0.0834(3) 0.6638(2)
C15 C 0.4198(3) 0.2929(3) 0.5493(2)
C16 C 0.1419(3) -0.2266(3) 0.5669(2)
O13 O 0.1027(3) 0.4499(3) 0.32876(18)
H8 H 0.1581 0.4947 0.2926
H9 H 0.0034 0.4029 0.3089
O14 O 0.2800(3) 0.2981(3) 0.3293(2)
H10 H 0.3548 0.3405 0.3021
H11 H 0.2241 0.1990 0.3003
Y1A Y 0.77319(3) 0.54345(3) 0.51306(2)
Y1_2 Y 0.22681(3) -0.54345(3) 0.48694(2)
Y1A_2 Y -0.22681(3) -0.45655(3) 0.51306(2)
O8A O 0.4547(2) 0.6196(2) 0.46631(18)
O11_2 O 0.1571(2) 0.6530(2) 0.54206(18)
O12A O -0.0115(2) 0.2250(2) 0.43129(18)
O15 O 0.0667(5) 0.1559(5) 0.1455(3)
H12 H 0.1223 0.1789 0.1014
H13 H -0.0208 0.0729 0.1217
O16 O 0.9594(3) 0.9443(3) 0.2739(2)
H14 H 0.9592 0.9102 0.2063
H15 H 1.0363 1.0294 0.3193
loop_
_geom_bond_atom_site_label_1
_geom_bond_atom_site_label_2
_geom_bond_site_symmetry_1
_geom_bond_site_symmetry_2
Y1 O1 1_555 1_555
N1 O3 1_555 1_555
N2 O9 1_555 1_555
O1 C8 1_555 1_555
O2 Y1 1_555 1_555
O4 N1 1_555 1_555
O5 H1 1_555 1_555
O6 C7 1_555 1_555
O7 Y1 1_555 1_555
O8 C15 1_555 1_555
O10 N2 1_555 1_555
O11 C16 1_555 1_555
O12 C16 1_555 1_555
C1 C2 1_555 1_555
C2 H2 1_555 1_555
C3 N1 1_555 1_555
C4 C3 1_555 1_555
H3 C4 1_555 1_555
C5 C4 1_555 1_555
C6 C1 1_555 1_555
H4 C6 1_555 1_555
C7 O5 1_555 1_555
C8 O2 1_555 1_555
C9 H5 1_555 1_555
C10 C9 1_555 1_555
C11 C10 1_555 1_555
H6 C11 1_555 1_555
C12 C11 1_555 1_555
C13 C12 1_555 1_555
H7 C13 1_555 1_555
C14 N2 1_555 1_555
C15 O7 1_555 1_555
C16 C12 1_555 1_555
O13 Y1 1_555 1_555
H8 O13 1_555 1_555
H9 O13 1_555 1_555
O14 Y1 1_555 1_555
H10 O14 1_555 1_555
H11 O14 1_555 1_555
O15 H12 1_555 1_555
H13 O15 1_555 1_555
O16 H14 1_555 1_555
H15 O16 1_555 1_555
Y1A O8 1_555 1_555
Y1_2 O11 1_555 1_555
Y1A_2 O12 1_555 1_555
O8A Y1 1_555 1_555
O11_2 Y1 1_555 1_555
O12A Y1 1_555 1_555
C1 C7 1_555 1_555
C2 C3 1_555 1_555
C5 C6 1_555 1_555
C5 C8 1_555 1_555
C9 C14 1_555 1_555
C10 C15 1_555 1_555
C13 C14 1_555 1_555

#END
