
#######################################################################
#
#                 Cambridge Crystallographic Data Centre
#                                CCDC 
#
#######################################################################
#
# If this CIF has been generated from an entry in the Cambridge 
# Structural Database, then it will include bibliographic, chemical, 
# crystal, experimental, refinement or atomic coordinate data resulting 
# from the CCDC's data processing and validation procedures.
#
#######################################################################

data_XORMEW
_symmetry_cell_setting           triclinic
_symmetry_space_group_name_H-M   'P -1'
_symmetry_Int_Tables_number      2
_space_group_name_Hall           '-P 1'
loop_
_symmetry_equiv_pos_site_id
_symmetry_equiv_pos_as_xyz
1 x,y,z
2 -x,-y,-z
_cell_length_a                   9.940(2)
_cell_length_b                   12.182(2)
_cell_length_c                   14.652(4)
_cell_angle_alpha                85.98(3)
_cell_angle_beta                 75.62(3)
_cell_angle_gamma                78.17(2)
_cell_volume                     1681.76
loop_
_atom_site_label
_atom_site_type_symbol
_atom_site_fract_x
_atom_site_fract_y
_atom_site_fract_z
La1 La 0.3037(2) -0.3888(1) 0.0016(1)
La2 La -0.0872(1) -0.1508(1) 0.0001(1)
O1 O 0.0935(12) -0.2331(10) 0.0961(11)
O2 O 0.2306(15) -0.3327(12) 0.1784(10)
O3 O 0.4462(14) -0.3322(13) -0.1634(11)
O4 O 0.5724(16) -0.4488(12) -0.0800(11)
O5 O 0.1160(16) -0.3092(12) -0.0875(10)
O6 O -0.0448(19) -0.2330(13) -0.1667(13)
O7 O -0.2439(14) -0.0710(10) 0.1582(11)
O8 O -0.0932(15) 0.0389(12) 0.0882(10)
O9 O -0.3346(13) -0.1499(11) -0.0341(12)
O10 O -0.2374(13) -0.0016(12) -0.0828(11)
O11 O 0.3162(18) -0.5562(12) -0.0932(13)
O12 O 0.1604(14) -0.6686(13) -0.0630(13)
O13 O 0.0859(15) -0.4844(11) 0.0808(11)
O14 O 0.4014(15) -0.2135(13) 0.0173(14)
C1 C 0.1220(2) -0.2612(18) 0.1711(14)
C2 C 0.0310(3) -0.1980(2) 0.2595(17)
C3 C 0.0640(4) -0.2570(4) 0.3540(2)
C4 C -0.0330(7) -0.1910(5) 0.4370(3)
C5 C 0.5590(2) -0.3900(2) -0.1557(14)
C6 C 0.6940(3) -0.3870(3) -0.2314(19)
C7 C 0.6710(4) -0.3360(3) -0.3220(3)
C8 C 0.6460(9) -0.3980(6) -0.3860(4)
C9 C 0.0720(2) -0.3035(18) -0.1648(15)
C10 C 0.1540(2) -0.3700(2) -0.2432(15)
C11 C 0.0900(3) -0.3560(3) -0.3270(2)
C12 C 0.1800(4) -0.4220(3) -0.4130(2)
C13 C -0.1830(2) 0.0131(18) 0.1581(15)
C14 C -0.2300(3) 0.0896(17) 0.2460(15)
C15 C -0.3220(3) 0.0350(3) 0.3286(18)
C16 C -0.3460(4) 0.1070(3) 0.4230(2)
C17 C -0.3260(2) -0.0669(17) -0.0850(19)
C18 C -0.4270(3) -0.0280(2) -0.1581(14)
C19 C -0.3500(3) 0.0330(2) -0.2470(2)
C20 C -0.2270(4) -0.0380(3) -0.3100(3)
C21 C 0.2812(19) -0.6417(16) -0.1158(16)
C22 C 0.3500(4) -0.6930(2) -0.2010(2)
C23 C 0.4370(6) -0.6460(4) -0.2680(2)
C24 C 0.4920(4) -0.7010(4) -0.3690(2)
O4A O 0.4276(16) -0.5512(12) 0.0800(11)
O8A O 0.0932(15) -0.0389(12) -0.0882(10)
La1A La 0.6963(2) -0.6112(1) -0.0016(1)
La2A La 0.0872(1) 0.1508(1) -0.0001(1)
O12A O -0.1604(14) -0.3314(13) 0.0630(13)
La2A_2 La 0.0872(1) -0.8492(1) -0.0001(1)
loop_
_geom_bond_atom_site_label_1
_geom_bond_atom_site_label_2
_geom_bond_site_symmetry_1
_geom_bond_site_symmetry_2
La1 O1 1_555 1_555
La2 O1 1_555 1_555
O1 C1 1_555 1_555
O2 La1 1_555 1_555
O3 La1 1_555 1_555
O4 La1 1_555 1_555
O5 La1 1_555 1_555
O6 La2 1_555 1_555
O7 La2 1_555 1_555
O8 La2 1_555 1_555
O9 La2 1_555 1_555
O10 La2 1_555 1_555
O11 La1 1_555 1_555
O12 C21 1_555 1_555
O13 La1 1_555 1_555
O14 La1 1_555 1_555
C1 O2 1_555 1_555
C2 C1 1_555 1_555
C3 C2 1_555 1_555
C4 C3 1_555 1_555
C5 O3 1_555 1_555
C6 C5 1_555 1_555
C7 C6 1_555 1_555
C8 C7 1_555 1_555
C9 O5 1_555 1_555
C10 C9 1_555 1_555
C11 C10 1_555 1_555
C12 C11 1_555 1_555
C13 O7 1_555 1_555
C14 C13 1_555 1_555
C15 C14 1_555 1_555
C16 C15 1_555 1_555
C17 O9 1_555 1_555
C18 C17 1_555 1_555
C19 C18 1_555 1_555
C20 C19 1_555 1_555
C21 O11 1_555 1_555
C22 C21 1_555 1_555
C23 C22 1_555 1_555
C24 C23 1_555 1_555
O4A La1 1_555 1_555
O8A La2 1_555 1_555
La1A O4 1_555 1_555
La2A O8 1_555 1_555
O12A La2 1_555 1_555
La2A_2 O12 1_555 1_555
La2 O5 1_555 1_555
O4 C5 1_555 1_555
O6 C9 1_555 1_555
O8 C13 1_555 1_555
O10 C17 1_555 1_555
O4A La1A 1_555 1_555
O8A La2A 1_555 1_555

#END
