
#######################################################################
#
#                 Cambridge Crystallographic Data Centre
#                                CCDC 
#
#######################################################################
#
# If this CIF has been generated from an entry in the Cambridge 
# Structural Database, then it will include bibliographic, chemical, 
# crystal, experimental, refinement or atomic coordinate data resulting 
# from the CCDC's data processing and validation procedures.
#
#######################################################################

data_XORMIB
_symmetry_cell_setting           monoclinic
_symmetry_space_group_name_H-M   'P 21'
_symmetry_Int_Tables_number      4
_space_group_name_Hall           'P 2yb'
loop_
_symmetry_equiv_pos_site_id
_symmetry_equiv_pos_as_xyz
1 x,y,z
2 -x,1/2+y,-z
_cell_length_a                   11.950(4)
_cell_length_b                   23.477(2)
_cell_length_c                   12.7259(17)
_cell_angle_alpha                90
_cell_angle_beta                 104.63(2)
_cell_angle_gamma                90
_cell_volume                     3454.5
loop_
_atom_site_label
_atom_site_type_symbol
_atom_site_fract_x
_atom_site_fract_y
_atom_site_fract_z
Ag1 Ag 0.45633(11) 0.51543(4) 0.15549(10)
Ag2 Ag 0.49862(18) 0.23644(4) 0.16749(12)
B1 B 0.4028(9) 0.4072(4) 0.1652(7)
H49 H 0.4358 0.4331 0.1075
B2 B 0.4507(8) 0.3358(4) 0.1980(8)
H50 H 0.5152 0.3157 0.1617
B3 B 0.4937(8) 0.3887(4) 0.3005(9)
H51 H 0.5842 0.4025 0.3300
B4 B 0.3743(8) 0.4372(4) 0.2839(8)
H52 H 0.3894 0.4827 0.3030
B5 B 0.2578(9) 0.4126(5) 0.1752(8)
H53 H 0.1963 0.4424 0.1243
B6 B 0.3033(9) 0.3502(4) 0.1191(7)
H54 H 0.2729 0.3399 0.0322
B7 B 0.4469(8) 0.3201(4) 0.3349(8)
H55 H 0.5069 0.2900 0.3869
B8 B 0.3999(10) 0.3834(5) 0.3899(7)
H56 H 0.4291 0.3946 0.4765
B9 B 0.2512(8) 0.3980(5) 0.3098(8)
H57 H 0.1865 0.4187 0.3451
B10 B 0.2120(7) 0.3438(4) 0.2094(7)
H58 H 0.1221 0.3289 0.1817
B11 B 0.3308(8) 0.2948(4) 0.2218(8)
H59 H 0.3180 0.2494 0.2007
B12 B 0.2989(9) 0.3261(5) 0.3413(7)
H60 H 0.2654 0.3001 0.3985
B13 B 0.4178(8) 0.6448(4) -0.1396(8)
H61 H 0.4865 0.6601 -0.1760
B14 B 0.4452(9) 0.5906(4) -0.0358(7)
H62 H 0.5317 0.5719 -0.0053
B15 B 0.4137(8) 0.6628(4) -0.0020(8)
H63 H 0.4802 0.6901 0.0495
B16 B 0.3054(8) 0.6918(4) -0.1118(8)
H64 H 0.3016 0.7374 -0.1319
B17 B 0.2691(9) 0.6378(4) -0.2162(6)
H65 H 0.2425 0.6491 -0.3029
B18 B 0.3556(9) 0.5756(4) -0.1699(7)
H66 H 0.3842 0.5468 -0.2262
B19 B 0.3516(9) 0.6028(5) 0.0520(7)
H67 H 0.3777 0.5911 0.1384
B20 B 0.2672(9) 0.6665(5) 0.0056(7)
H68 H 0.2397 0.6958 0.0617
B21 B 0.1774(8) 0.6508(4) -0.1265(7)
H69 H 0.0910 0.6700 -0.1554
B22 B 0.2058(9) 0.5785(4) -0.1638(7)
H70 H 0.1385 0.5518 -0.2160
B23 B 0.3149(9) 0.5494(4) -0.0515(8)
H71 H 0.3177 0.5037 -0.0324
B24 B 0.2035(9) 0.5958(5) -0.0252(7)
H72 H 0.1358 0.5800 0.0120
N1 N 0.6607(14) 0.5116(8) 0.2036(11)
C59 C 0.7503(19) 0.4972(8) 0.2048(15)
C60 C 0.8677(19) 0.4730(12) 0.212(2)
H73 H 0.9214 0.5035 0.2121
H74 H 0.8646 0.4487 0.1506
H75 H 0.8926 0.4513 0.2777
Ag2A Ag 0.50138(18) 0.73644(4) -0.16749(12)
B13A B 0.5822(8) 0.1448(4) 0.1396(8)
H61A H 0.5135 0.1601 0.1760
B16A B 0.6946(8) 0.1918(4) 0.1118(8)
H64A H 0.6984 0.2374 0.1319
P1 P 0.00545(15) 0.82579(8) 1.15898(13)
C1 C -0.0755(7) 0.7631(4) 1.1007(5)
C2 C -0.1800(6) 0.7478(4) 1.1282(6)
H1 H -0.2078 0.7697 1.1769
C3 C -0.2403(7) 0.6990(5) 1.0806(7)
H2 H -0.3073 0.6880 1.0997
C4 C -0.2007(9) 0.6669(5) 1.0045(9)
H3 H -0.2427 0.6355 0.9716
C5 C -0.1002(8) 0.6816(5) 0.9785(8)
H4 H -0.0736 0.6593 0.9295
C6 C -0.0369(7) 0.7291(4) 1.0235(7)
H5 H 0.0303 0.7388 1.0035
C7 C -0.0703(6) 0.8653(3) 1.2431(6)
C8 C -0.0392(7) 0.8577(4) 1.3568(6)
H6 H 0.0223 0.8340 1.3885
C9 C -0.0997(9) 0.8854(4) 1.4217(7)
H7 H -0.0774 0.8808 1.4967
C10 C -0.1940(10) 0.9202(4) 1.3744(9)
H8 H -0.2348 0.9385 1.4180
C11 C -0.2271(8) 0.9274(4) 1.2618(9)
H9 H -0.2901 0.9503 1.2301
C12 C -0.1636(8) 0.8996(4) 1.1963(7)
H10 H -0.1850 0.9046 1.1213
C13 C 0.1472(6) 0.8044(4) 1.2434(6)
C14 C 0.2216(7) 0.8481(5) 1.3015(6)
H11 H 0.1971 0.8858 1.2980
C15 C 0.3306(8) 0.8331(6) 1.3629(7)
H12 H 0.3799 0.8608 1.4013
C16 C 0.3663(7) 0.7772(6) 1.3672(7)
H13 H 0.4410 0.7683 1.4064
C17 C 0.2938(7) 0.7332(6) 1.3144(7)
H14 H 0.3176 0.6953 1.3215
C18 C 0.1839(6) 0.7485(4) 1.2506(6)
H15 H 0.1351 0.7205 1.2125
C19 C 0.0208(8) 0.8702(5) 1.0439(6)
H16 H 0.0418 0.8458 0.9904
H17 H -0.0537 0.8871 1.0101
C20 C 0.1095(7) 0.9173(4) 1.0740(6)
C21 C 0.0763(10) 0.9708(4) 1.1019(8)
H18 H -0.0012 0.9781 1.0977
C22 C 0.1613(13) 1.0151(5) 1.1373(9)
H19 H 0.1393 1.0507 1.1575
C23 C 0.2766(11) 1.0040(5) 1.1408(9)
H20 H 0.3311 1.0327 1.1628
C24 C 0.3130(9) 0.9510(4) 1.1126(8)
C25 C 0.4331(11) 0.9377(6) 1.1153(10)
H21 H 0.4879 0.9663 1.1369
C26 C 0.4694(12) 0.8870(7) 1.0887(11)
H22 H 0.5473 0.8810 1.0928
C27 C 0.3878(10) 0.8426(6) 1.0542(10)
H23 H 0.4124 0.8073 1.0357
C28 C 0.2701(8) 0.8517(4) 1.0479(8)
H24 H 0.2174 0.8222 1.0251
C29 C 0.2303(8) 0.9055(4) 1.0762(6)
P2 P -0.04226(15) 0.66506(8) 1.50893(14)
C30 C 0.0416(6) 0.7275(3) 1.5684(5)
C31 C 0.1457(7) 0.7409(4) 1.5390(6)
H25 H 0.1688 0.7197 1.4864
C32 C 0.2126(7) 0.7865(4) 1.5902(7)
H26 H 0.2823 0.7948 1.5735
C33 C 0.1770(7) 0.8195(4) 1.6652(8)
H27 H 0.2216 0.8503 1.6974
C34 C 0.0738(8) 0.8066(4) 1.6930(8)
H28 H 0.0503 0.8288 1.7442
C35 C 0.0055(7) 0.7605(4) 1.6442(6)
H29 H -0.0634 0.7522 1.6623
C36 C 0.0344(7) 0.6243(3) 1.4286(6)
C37 C 0.0061(8) 0.6312(4) 1.3149(7)
H30 H -0.0545 0.6551 1.2813
C38 C 0.0690(10) 0.6023(5) 1.2523(9)
H31 H 0.0524 0.6083 1.1778
C39 C 0.1562(10) 0.5644(5) 1.3014(10)
H32 H 0.1972 0.5451 1.2592
C40 C 0.1822(9) 0.5554(5) 1.4108(10)
H33 H 0.2386 0.5288 1.4419
C41 C 0.1240(8) 0.5860(4) 1.4785(9)
H34 H 0.1443 0.5810 1.5534
C42 C -0.1813(6) 0.6863(4) 1.4216(5)
C43 C -0.2166(6) 0.7427(4) 1.4170(6)
H35 H -0.1678 0.7702 1.4571
C44 C -0.3645(8) 0.6601(6) 1.2981(7)
H36 H -0.4136 0.6326 1.2587
C45 C -0.4000(7) 0.7160(6) 1.2931(7)
H37 H -0.4731 0.7256 1.2510
C46 C -0.3274(8) 0.7591(6) 1.3510(7)
H38 H -0.3510 0.7969 1.3462
C47 C -0.2546(8) 0.6440(5) 1.3621(7)
H39 H -0.2309 0.6062 1.3650
C48 C -0.0643(8) 0.6216(4) 1.6236(6)
H40 H 0.0089 0.6045 1.6605
H41 H -0.0876 0.6466 1.6749
C49 C -0.1537(8) 0.5749(4) 1.5908(6)
C50 C -0.1195(9) 0.5216(4) 1.5656(8)
H42 H -0.0415 0.5140 1.5728
C51 C -0.2028(11) 0.4784(5) 1.5288(9)
H43 H -0.1786 0.4432 1.5096
C52 C -0.3185(10) 0.4871(5) 1.5206(10)
H44 H -0.3718 0.4581 1.4959
C53 C -0.3564(9) 0.5422(4) 1.5512(7)
C54 C -0.4773(10) 0.5514(6) 1.5430(11)
H45 H -0.5304 0.5221 1.5211
C55 C -0.5138(10) 0.6046(6) 1.5681(13)
H46 H -0.5920 0.6113 1.5615
C56 C -0.4327(10) 0.6485(5) 1.6035(9)
H47 H -0.4576 0.6838 1.6215
C57 C -0.3173(9) 0.6396(4) 1.6117(8)
H48 H -0.2655 0.6693 1.6348
C58 C -0.2750(7) 0.5863(4) 1.5860(6)
loop_
_geom_bond_atom_site_label_1
_geom_bond_atom_site_label_2
_geom_bond_site_symmetry_1
_geom_bond_site_symmetry_2
Ag1 B1 1_555 1_555
Ag2 B2 1_555 1_555
P1 C1 1_555 1_555
P2 C30 1_555 1_555
C1 C2 1_555 1_555
C2 H1 1_555 1_555
C3 C2 1_555 1_555
H2 C3 1_555 1_555
C4 C3 1_555 1_555
H3 C4 1_555 1_555
C5 C4 1_555 1_555
H4 C5 1_555 1_555
C6 C1 1_555 1_555
H5 C6 1_555 1_555
C7 P1 1_555 1_555
C8 C7 1_555 1_555
H6 C8 1_555 1_555
C9 C8 1_555 1_555
H7 C9 1_555 1_555
C10 C9 1_555 1_555
H8 C10 1_555 1_555
C11 C10 1_555 1_555
H9 C11 1_555 1_555
C12 C7 1_555 1_555
H10 C12 1_555 1_555
C13 P1 1_555 1_555
C14 C13 1_555 1_555
H11 C14 1_555 1_555
C15 C14 1_555 1_555
H12 C15 1_555 1_555
C16 C15 1_555 1_555
H13 C16 1_555 1_555
C17 C16 1_555 1_555
H14 C17 1_555 1_555
C18 C13 1_555 1_555
H15 C18 1_555 1_555
C19 P1 1_555 1_555
H16 C19 1_555 1_555
H17 C19 1_555 1_555
C20 C19 1_555 1_555
C21 C20 1_555 1_555
H18 C21 1_555 1_555
C22 C21 1_555 1_555
H19 C22 1_555 1_555
C23 C22 1_555 1_555
H20 C23 1_555 1_555
C24 C23 1_555 1_555
C25 C24 1_555 1_555
H21 C25 1_555 1_555
C26 C25 1_555 1_555
H22 C26 1_555 1_555
C27 C26 1_555 1_555
H23 C27 1_555 1_555
C28 C27 1_555 1_555
H24 C28 1_555 1_555
C29 C20 1_555 1_555
C30 C31 1_555 1_555
C31 H25 1_555 1_555
C32 C31 1_555 1_555
H26 C32 1_555 1_555
C33 C32 1_555 1_555
H27 C33 1_555 1_555
C34 C33 1_555 1_555
H28 C34 1_555 1_555
C35 C30 1_555 1_555
H29 C35 1_555 1_555
C36 P2 1_555 1_555
C37 C36 1_555 1_555
H30 C37 1_555 1_555
C38 C37 1_555 1_555
H31 C38 1_555 1_555
C39 C38 1_555 1_555
H32 C39 1_555 1_555
C40 C39 1_555 1_555
H33 C40 1_555 1_555
C41 C36 1_555 1_555
H34 C41 1_555 1_555
C42 P2 1_555 1_555
C43 C42 1_555 1_555
H35 C43 1_555 1_555
C44 H36 1_555 1_555
C45 C44 1_555 1_555
H37 C45 1_555 1_555
C46 C43 1_555 1_555
H38 C46 1_555 1_555
C47 C42 1_555 1_555
H39 C47 1_555 1_555
C48 P2 1_555 1_555
H40 C48 1_555 1_555
H41 C48 1_555 1_555
C49 C48 1_555 1_555
C50 C49 1_555 1_555
H42 C50 1_555 1_555
C51 C50 1_555 1_555
H43 C51 1_555 1_555
C52 C51 1_555 1_555
H44 C52 1_555 1_555
C53 C52 1_555 1_555
C54 C53 1_555 1_555
H45 C54 1_555 1_555
C55 C54 1_555 1_555
H46 C55 1_555 1_555
C56 C55 1_555 1_555
H47 C56 1_555 1_555
C57 C56 1_555 1_555
H48 C57 1_555 1_555
C58 C49 1_555 1_555
B1 H49 1_555 1_555
H49 Ag1 1_555 1_555
B2 B1 1_555 1_555
H50 Ag2 1_555 1_555
B3 B1 1_555 1_555
H51 B3 1_555 1_555
B4 Ag1 1_555 1_555
H52 Ag1 1_555 1_555
B5 B1 1_555 1_555
H53 B5 1_555 1_555
B6 B1 1_555 1_555
H54 B6 1_555 1_555
B7 B2 1_555 1_555
H55 B7 1_555 1_555
B8 B3 1_555 1_555
H56 B8 1_555 1_555
B9 B4 1_555 1_555
H57 B9 1_555 1_555
B10 B5 1_555 1_555
H58 B10 1_555 1_555
B11 Ag2 1_555 1_555
H59 Ag2 1_555 1_555
B12 B7 1_555 1_555
H60 B12 1_555 1_555
B13 H61 1_555 1_555
H61 Ag2A 1_555 1_555
B14 B13 1_555 1_555
H62 B14 1_555 1_555
B15 B13 1_555 1_555
H63 B15 1_555 1_555
B16 B13 1_555 1_555
H64 B16 1_555 1_555
B17 B13 1_555 1_555
H65 B17 1_555 1_555
B18 B13 1_555 1_555
H66 B18 1_555 1_555
B19 Ag1 1_555 1_555
H67 Ag1 1_555 1_555
B20 B15 1_555 1_555
H68 B20 1_555 1_555
B21 B16 1_555 1_555
H69 B21 1_555 1_555
B22 B17 1_555 1_555
H70 B22 1_555 1_555
B23 Ag1 1_555 1_555
H71 Ag1 1_555 1_555
B24 B19 1_555 1_555
H72 B24 1_555 1_555
N1 Ag1 1_555 1_555
C59 N1 1_555 1_555
C60 C59 1_555 1_555
H73 C60 1_555 1_555
H74 C60 1_555 1_555
H75 C60 1_555 1_555
Ag2A B13 1_555 1_555
B13A Ag2 1_555 1_555
H61A Ag2 1_555 1_555
B16A Ag2 1_555 1_555
H64A Ag2 1_555 1_555
C5 C6 1_555 1_555
C11 C12 1_555 1_555
C17 C18 1_555 1_555
C24 C29 1_555 1_555
C28 C29 1_555 1_555
C34 C35 1_555 1_555
C40 C41 1_555 1_555
C44 C47 1_555 1_555
C45 C46 1_555 1_555
C53 C58 1_555 1_555
C57 C58 1_555 1_555
B1 B4 1_555 1_555
B2 H50 1_555 1_555
B2 B3 1_555 1_555
B2 B6 1_555 1_555
B2 B11 1_555 1_555
B3 B4 1_555 1_555
B3 B7 1_555 1_555
B4 H52 1_555 1_555
B4 B5 1_555 1_555
B4 B8 1_555 1_555
B5 B6 1_555 1_555
B5 B9 1_555 1_555
B6 B10 1_555 1_555
B6 B11 1_555 1_555
B7 B8 1_555 1_555
B7 B11 1_555 1_555
B8 B9 1_555 1_555
B8 B12 1_555 1_555
B9 B10 1_555 1_555
B9 B12 1_555 1_555
B10 B11 1_555 1_555
B10 B12 1_555 1_555
B11 H59 1_555 1_555
B11 B12 1_555 1_555
B14 B15 1_555 1_555
B14 B18 1_555 1_555
B14 B19 1_555 1_555
B14 B23 1_555 1_555
B15 B16 1_555 1_555
B15 B19 1_555 1_555
B16 B17 1_555 1_555
B16 B20 1_555 1_555
B16 Ag2A 1_555 1_555
H64 Ag2A 1_555 1_555
B17 B18 1_555 1_555
B17 B21 1_555 1_555
B18 B22 1_555 1_555
B18 B23 1_555 1_555
B19 H67 1_555 1_555
B19 B20 1_555 1_555
B19 B23 1_555 1_555
B20 B21 1_555 1_555
B20 B24 1_555 1_555
B21 B22 1_555 1_555
B21 B24 1_555 1_555
B22 B23 1_555 1_555
B22 B24 1_555 1_555
B23 H71 1_555 1_555
B23 B24 1_555 1_555
B13A H61A 1_555 1_555
B13A B16A 1_555 1_555
B16A H64A 1_555 1_555

#END
