
#######################################################################
#
#                 Cambridge Crystallographic Data Centre
#                                CCDC 
#
#######################################################################
#
# If this CIF has been generated from an entry in the Cambridge 
# Structural Database, then it will include bibliographic, chemical, 
# crystal, experimental, refinement or atomic coordinate data resulting 
# from the CCDC's data processing and validation procedures.
#
#######################################################################

data_XORMAT
_symmetry_cell_setting           monoclinic
_symmetry_space_group_name_H-M   'P 21/c'
_symmetry_Int_Tables_number      14
_space_group_name_Hall           '-P 2ybc'
loop_
_symmetry_equiv_pos_site_id
_symmetry_equiv_pos_as_xyz
1 x,y,z
2 -x,1/2+y,1/2-z
3 -x,-y,-z
4 x,1/2-y,1/2+z
_cell_length_a                   8.354(2)
_cell_length_b                   18.022(10)
_cell_length_c                   10.422(3)
_cell_angle_alpha                90
_cell_angle_beta                 96.96(2)
_cell_angle_gamma                90
_cell_volume                     1557.53
loop_
_atom_site_label
_atom_site_type_symbol
_atom_site_fract_x
_atom_site_fract_y
_atom_site_fract_z
Cu1 Cu 0.62748(7) 0.74796(3) 0.98846(5)
B1 B 0.5261(5) 0.8099(2) 0.8191(4)
B2 B 0.7291(5) 0.8204(2) 0.8472(4)
B3 B 0.6273(6) 0.7854(3) 0.6943(4)
B4 B 0.4862(5) 0.8648(3) 0.6879(4)
B5 B 0.5897(5) 0.8997(2) 0.8400(4)
B6 B 0.8227(6) 0.8310(3) 0.7023(4)
B7 B 0.6535(6) 0.8621(2) 0.5874(4)
B8 B 0.6240(6) 0.9427(2) 0.6892(4)
B9 B 0.7927(6) 0.9117(2) 0.8048(4)
B10 B 0.8049(6) 0.9183(2) 0.6450(4)
H16 H 0.443(5) 0.778(3) 0.866(4)
H17 H 0.808(6) 0.796(3) 0.922(5)
H18 H 0.609(5) 0.732(2) 0.657(4)
H19 H 0.376(4) 0.872(2) 0.653(4)
H20 H 0.548(4) 0.9336(19) 0.913(3)
H21 H 0.926(4) 0.801(2) 0.685(4)
H22 H 0.637(4) 0.856(2) 0.484(4)
H23 H 0.560(4) 0.994(2) 0.658(4)
H24 H 0.878(5) 0.938(2) 0.874(4)
H25 H 0.893(5) 0.952(2) 0.594(4)
Cu1C Cu 0.62748(7) 0.75204(3) 0.48846(5)
B3C B 0.6273(6) 0.7146(3) 1.1943(4)
B7C B 0.6535(6) 0.6379(2) 1.0874(4)
H18C H 0.609(5) 0.768(2) 1.157(4)
H22C H 0.637(4) 0.644(2) 0.984(4)
N1 N 0.0746(4) 0.9096(2) 0.2634(3)
C1 C -0.1059(7) 0.9130(4) 0.2821(6)
H1 H -0.1521 0.8641 0.2643
H2 H -0.1139 0.9240 0.3722
C2 C -0.2002(7) 0.9647(4) 0.2060(7)
H3 H -0.3096 0.9621 0.2252
H4 H -0.1971 0.9536 0.1162
H5 H -0.1586 1.0137 0.2243
C3 C 0.0978(8) 0.8720(3) 0.1405(5)
H6 H 0.0201 0.8915 0.0721
H7 H 0.0759 0.8194 0.1489
C4 C 0.2637(8) 0.8812(3) 0.1023(7)
H8 H 0.2702 0.8563 0.0217
H9 H 0.3412 0.8602 0.1678
H10 H 0.2862 0.9330 0.0929
C5 C 0.1645(6) 0.8804(3) 0.3850(4)
H11 H 0.2789 0.8824 0.3771
H12 H 0.1449 0.9130 0.4555
C6 C 0.1230(6) 0.8034(3) 0.4195(5)
H13 H 0.1868 0.7893 0.4986
H14 H 0.1447 0.7702 0.3516
H15 H 0.0107 0.8009 0.4305
H26 H 0.109(5) 0.962(3) 0.255(4)
loop_
_geom_bond_atom_site_label_1
_geom_bond_atom_site_label_2
_geom_bond_site_symmetry_1
_geom_bond_site_symmetry_2
Cu1 B1 1_555 1_555
B1 B2 1_555 1_555
B2 Cu1 1_555 1_555
B3 B1 1_555 1_555
B4 B1 1_555 1_555
B5 B1 1_555 1_555
B6 B2 1_555 1_555
B7 B3 1_555 1_555
B8 B4 1_555 1_555
B9 B2 1_555 1_555
B10 B6 1_555 1_555
N1 C1 1_555 1_555
C1 H1 1_555 1_555
H2 C1 1_555 1_555
C2 C1 1_555 1_555
H3 C2 1_555 1_555
H4 C2 1_555 1_555
H5 C2 1_555 1_555
C3 N1 1_555 1_555
H6 C3 1_555 1_555
H7 C3 1_555 1_555
C4 C3 1_555 1_555
H8 C4 1_555 1_555
H9 C4 1_555 1_555
H10 C4 1_555 1_555
C5 N1 1_555 1_555
H11 C5 1_555 1_555
H12 C5 1_555 1_555
C6 C5 1_555 1_555
H13 C6 1_555 1_555
H14 C6 1_555 1_555
H15 C6 1_555 1_555
H16 Cu1 1_555 1_555
H17 Cu1 1_555 1_555
H18 B3 1_555 1_555
H19 B4 1_555 1_555
H20 B5 1_555 1_555
H21 B6 1_555 1_555
H22 B7 1_555 1_555
H23 B8 1_555 1_555
H24 B9 1_555 1_555
H25 B10 1_555 1_555
H26 N1 1_555 1_555
Cu1C B3 1_555 1_555
B3C Cu1 1_555 1_555
B7C Cu1 1_555 1_555
H18C Cu1 1_555 1_555
H22C Cu1 1_555 1_555
B1 H16 1_555 1_555
B2 B3 1_555 1_555
B2 B5 1_555 1_555
B2 H17 1_555 1_555
B3 B4 1_555 1_555
B3 B6 1_555 1_555
B4 B5 1_555 1_555
B4 B7 1_555 1_555
B5 B8 1_555 1_555
B5 B9 1_555 1_555
B6 B7 1_555 1_555
B6 B9 1_555 1_555
B7 B8 1_555 1_555
B7 B10 1_555 1_555
B7 Cu1C 1_555 1_555
B8 B9 1_555 1_555
B8 B10 1_555 1_555
B9 B10 1_555 1_555
H18 Cu1C 1_555 1_555
H22 Cu1C 1_555 1_555
B3C B7C 1_555 1_555
B3C H18C 1_555 1_555
B7C H22C 1_555 1_555

#END
