
#######################################################################
#
#                 Cambridge Crystallographic Data Centre
#                                CCDC 
#
#######################################################################
#
# If this CIF has been generated from an entry in the Cambridge 
# Structural Database, then it will include bibliographic, chemical, 
# crystal, experimental, refinement or atomic coordinate data resulting 
# from the CCDC's data processing and validation procedures.
#
#######################################################################

data_XORMEX
_symmetry_cell_setting           monoclinic
_symmetry_space_group_name_H-M   'C 2/c'
_symmetry_Int_Tables_number      15
_space_group_name_Hall           '-C 2yn'
loop_
_symmetry_equiv_pos_site_id
_symmetry_equiv_pos_as_xyz
1 x,y,z
2 1/2+x,1/2+y,z
3 -x,y,1/2-z
4 1/2-x,1/2+y,1/2-z
5 -x,-y,-z
6 1/2-x,1/2-y,-z
7 x,-y,1/2+z
8 1/2+x,1/2-y,1/2+z
_cell_length_a                   31.017(7)
_cell_length_b                   11.727(2)
_cell_length_c                   22.344(4)
_cell_angle_alpha                90
_cell_angle_beta                 128.135(8)
_cell_angle_gamma                90
_cell_volume                     6392.61
loop_
_atom_site_label
_atom_site_type_symbol
_atom_site_fract_x
_atom_site_fract_y
_atom_site_fract_z
Ag1 Ag 0.11635(2) 0.11716(6) 0.34348(4)
B1 B 0.2150(2) 0.1284(5) 0.4693(3)
H25 H 0.1916 0.0481 0.4493
B2 B 0.1967(2) 0.2457(5) 0.4074(3)
H26 H 0.1617 0.2426 0.3464
B3 B 0.2574(2) 0.1677(5) 0.4453(3)
H27 H 0.2616 0.1137 0.4089
B4 B 0.2864(2) 0.1277(5) 0.5390(3)
H28 H 0.3099 0.0482 0.5640
B5 B 0.2427(2) 0.1825(5) 0.5598(3)
H29 H 0.2378 0.1384 0.5987
B6 B 0.1871(2) 0.2550(5) 0.4777(3)
H30 H 0.1460 0.2577 0.4625
B7 B 0.0428(3) -0.0136(6) 0.2428(4)
H31 H 0.0708 0.0352 0.2380
B8 B 0.0247(2) 0.0346(5) 0.3002(3)
H32 H 0.0408 0.1144 0.3330
B9 B -0.0133(3) -0.0878(5) 0.1648(3)
H33 H -0.0218 -0.0871 0.1091
B10 B 0.0661(2) -0.0892(6) 0.3275(3)
H34 H 0.1094 -0.0897 0.3782
B11 B -0.0240(2) -0.2094(5) 0.2006(3)
H35 H -0.0398 -0.2892 0.1677
B12 B 0.0429(3) -0.1638(6) 0.2437(3)
H36 H 0.0712 -0.2138 0.2400
Ag1E Ag 0.38365(2) 0.38284(6) 0.65652(4)
Ag1B Ag -0.11635(2) 0.11716(6) 0.15652(4)
B1E B 0.2850(2) 0.3716(5) 0.5307(3)
H25E H 0.3084 0.4519 0.5507
B2E B 0.3033(2) 0.2543(5) 0.5926(3)
H26E H 0.3383 0.2574 0.6536
B3E B 0.2426(2) 0.3323(5) 0.5547(3)
H27E H 0.2384 0.3863 0.5911
B4E B 0.2136(2) 0.3723(5) 0.4610(3)
H28E H 0.1901 0.4518 0.4360
B5E B 0.2573(2) 0.3175(5) 0.4402(3)
H29E H 0.2622 0.3616 0.4013
B6E B 0.3129(2) 0.2450(5) 0.5223(3)
H30E H 0.3540 0.2423 0.5375
B7B B -0.0428(3) -0.0136(6) 0.2572(4)
B7E B 0.4572(3) 0.5136(6) 0.7572(4)
H31B H -0.0708 0.0352 0.2620
H31E H 0.4292 0.4648 0.7620
B8B B -0.0247(2) 0.0346(5) 0.1998(3)
B8E B 0.4753(2) 0.4654(5) 0.6998(3)
H32B H -0.0408 0.1144 0.1670
H32E H 0.4592 0.3856 0.6670
B9B B 0.0133(3) -0.0878(5) 0.3352(3)
H33B H 0.0218 -0.0871 0.3909
B10B B -0.0661(2) -0.0892(6) 0.1725(3)
H34B H -0.1094 -0.0897 0.1218
B11B B 0.0240(2) -0.2094(5) 0.2994(3)
H35B H 0.0398 -0.2892 0.3323
B12B B -0.0429(3) -0.1638(6) 0.2563(3)
H36B H -0.0712 -0.2138 0.2600
P1 P 0.14341(5) 0.61997(10) 0.19496(7)
C1 C 0.1047(2) 0.7177(4) 0.1173(3)
C2 C 0.1290(3) 0.7738(4) 0.0895(3)
H1 H 0.1654 0.7598 0.1109
C3 C 0.0987(3) 0.8494(5) 0.0307(4)
H2 H 0.1148 0.8863 0.0121
C4 C 0.0457(3) 0.8713(5) -0.0008(3)
H3 H 0.0255 0.9223 -0.0412
C5 C 0.0220(3) 0.8185(5) 0.0268(3)
H4 H -0.0143 0.8346 0.0054
C6 C 0.0508(2) 0.7422(5) 0.0853(3)
H5 H 0.0342 0.7068 0.1035
C7 C 0.18553(19) 0.6957(4) 0.2828(3)
C8 C 0.2242(2) 0.6390(5) 0.3502(3)
H6 H 0.2289 0.5608 0.3499
C9 C 0.2556(2) 0.6984(6) 0.4176(3)
H7 H 0.2813 0.6601 0.4629
C10 C 0.2491(3) 0.8130(6) 0.4181(4)
H8 H 0.2705 0.8529 0.4638
C11 C 0.2112(3) 0.8698(5) 0.3518(4)
H9 H 0.2072 0.9482 0.3525
C12 C 0.1793(2) 0.8118(4) 0.2843(3)
H10 H 0.1534 0.8508 0.2395
C13 C 0.09731(19) 0.5272(4) 0.1940(3)
C14 C 0.0588(2) 0.4662(5) 0.1284(3)
H11 H 0.0561 0.4756 0.0849
C15 C 0.0245(3) 0.3917(5) 0.1286(5)
H12 H -0.0015 0.3505 0.0849
C16 C 0.0287(3) 0.3780(6) 0.1927(5)
H13 H 0.0060 0.3263 0.1928
C17 C 0.0653(3) 0.4387(7) 0.2555(4)
H14 H 0.0672 0.4297 0.2984
C18 C 0.1002(2) 0.5141(5) 0.2576(3)
H15 H 0.1255 0.5558 0.3015
C19 C 0.18891(19) 0.5389(4) 0.1860(3)
H16 H 0.2089 0.5917 0.1778
H17 H 0.2155 0.4998 0.2337
C20 C 0.16073(18) 0.4519(4) 0.1224(3)
C21 C 0.1385(2) 0.4863(4) 0.0506(3)
H18 H 0.1411 0.5626 0.0416
C22 C 0.1119(2) 0.4089(5) -0.0103(3)
H19 H 0.0961 0.4343 -0.0593
C23 C 0.1093(2) 0.2984(5) 0.0022(3)
H20 H 0.0918 0.2473 -0.0382
C24 C 0.1303(2) 0.1431(4) 0.0896(3)
H21 H 0.1137 0.0918 0.0493
C25 C 0.1513(3) 0.1042(5) 0.1592(4)
H22 H 0.1493 0.0270 0.1668
C26 C 0.1758(2) 0.1796(5) 0.2195(3)
H23 H 0.1899 0.1524 0.2675
C27 C 0.1799(2) 0.2921(4) 0.2102(3)
H24 H 0.1970 0.3409 0.2519
C28 C 0.15836(17) 0.3364(4) 0.1376(2)
C29 C 0.13257(19) 0.2590(4) 0.0759(3)
loop_
_geom_bond_atom_site_label_1
_geom_bond_atom_site_label_2
_geom_bond_site_symmetry_1
_geom_bond_site_symmetry_2
Ag1 B1 1_555 1_555
P1 C1 1_555 1_555
C1 C2 1_555 1_555
C2 H1 1_555 1_555
C3 C2 1_555 1_555
H2 C3 1_555 1_555
C4 C3 1_555 1_555
H3 C4 1_555 1_555
C5 C4 1_555 1_555
H4 C5 1_555 1_555
C6 C1 1_555 1_555
H5 C6 1_555 1_555
C7 P1 1_555 1_555
C8 C7 1_555 1_555
H6 C8 1_555 1_555
C9 C8 1_555 1_555
H7 C9 1_555 1_555
C10 C9 1_555 1_555
H8 C10 1_555 1_555
C11 C10 1_555 1_555
H9 C11 1_555 1_555
C12 C7 1_555 1_555
H10 C12 1_555 1_555
C13 P1 1_555 1_555
C14 C13 1_555 1_555
H11 C14 1_555 1_555
C15 C14 1_555 1_555
H12 C15 1_555 1_555
C16 C15 1_555 1_555
H13 C16 1_555 1_555
C17 C16 1_555 1_555
H14 C17 1_555 1_555
C18 C13 1_555 1_555
H15 C18 1_555 1_555
C19 P1 1_555 1_555
H16 C19 1_555 1_555
H17 C19 1_555 1_555
C20 C19 1_555 1_555
C21 C20 1_555 1_555
H18 C21 1_555 1_555
C22 C21 1_555 1_555
H19 C22 1_555 1_555
C23 C22 1_555 1_555
H20 C23 1_555 1_555
C24 H21 1_555 1_555
C25 C24 1_555 1_555
H22 C25 1_555 1_555
C26 C25 1_555 1_555
H23 C26 1_555 1_555
C27 C26 1_555 1_555
H24 C27 1_555 1_555
C28 C20 1_555 1_555
C29 C23 1_555 1_555
B1 H25 1_555 1_555
H25 Ag1 1_555 1_555
B2 Ag1 1_555 1_555
H26 Ag1 1_555 1_555
B3 B1 1_555 1_555
H27 B3 1_555 1_555
B4 B1 1_555 1_555
H28 B4 1_555 1_555
B5 B1 1_555 1_555
H29 B5 1_555 1_555
B6 B1 1_555 1_555
H30 B6 1_555 1_555
B7 Ag1 1_555 1_555
H31 Ag1 1_555 1_555
B8 Ag1 1_555 1_555
H32 Ag1 1_555 1_555
B9 B7 1_555 1_555
H33 B9 1_555 1_555
B10 B7 1_555 1_555
H34 B10 1_555 1_555
B11 B9 1_555 1_555
H35 B11 1_555 1_555
B12 B7 1_555 1_555
H36 B12 1_555 1_555
Ag1E B1E 1_555 1_555
Ag1B B7B 1_555 1_555
B1E H25E 1_555 1_555
H25E Ag1E 1_555 1_555
B2E B4 1_555 1_555
H26E Ag1E 1_555 1_555
B3E B5 1_555 1_555
H27E B3E 1_555 1_555
B4E B2 1_555 1_555
H28E B4E 1_555 1_555
B5E B2 1_555 1_555
H29E B5E 1_555 1_555
B6E B3 1_555 1_555
H30E B6E 1_555 1_555
B7B B8 1_555 1_555
B7E Ag1E 1_555 1_555
H31B Ag1B 1_555 1_555
H31E Ag1E 1_555 1_555
B8B B7 1_555 1_555
B8E Ag1E 1_555 1_555
H32B Ag1B 1_555 1_555
H32E Ag1E 1_555 1_555
B9B B8 1_555 1_555
H33B B9B 1_555 1_555
B10B B9 1_555 1_555
H34B B10B 1_555 1_555
B11B B10 1_555 1_555
H35B B11B 1_555 1_555
B12B B11 1_555 1_555
H36B B12B 1_555 1_555
C5 C6 1_555 1_555
C11 C12 1_555 1_555
C17 C18 1_555 1_555
C24 C29 1_555 1_555
C27 C28 1_555 1_555
C28 C29 1_555 1_555
B1 B2 1_555 1_555
B2 H26 1_555 1_555
B2 B3 1_555 1_555
B2 B6 1_555 1_555
B3 B4 1_555 1_555
B3 B5E 1_555 1_555
B4 B5 1_555 1_555
B4 B6E 1_555 1_555
B5 B6 1_555 1_555
B5 B2E 1_555 1_555
B6 B3E 1_555 1_555
B6 B4E 1_555 1_555
B7 H31 1_555 1_555
B7 B8 1_555 1_555
B8 H32 1_555 1_555
B8 B10 1_555 1_555
B8 B8B 1_555 1_555
B9 B12 1_555 1_555
B9 B8B 1_555 1_555
B10 B12 1_555 1_555
B10 B9B 1_555 1_555
B11 B12 1_555 1_555
B11 B10B 1_555 1_555
B11 B11B 1_555 1_555
B12 B11B 1_555 1_555
Ag1E B2E 1_555 1_555
Ag1B B8B 1_555 1_555
B1E B2E 1_555 1_555
B1E B3E 1_555 1_555
B1E B4E 1_555 1_555
B1E B5E 1_555 1_555
B1E B6E 1_555 1_555
B2E H26E 1_555 1_555
B2E B3E 1_555 1_555
B2E B6E 1_555 1_555
B3E B4E 1_555 1_555
B4E B5E 1_555 1_555
B5E B6E 1_555 1_555
B7B H31B 1_555 1_555
B7B B8B 1_555 1_555
B7B B9B 1_555 1_555
B7B B10B 1_555 1_555
B7B B12B 1_555 1_555
B7E H31E 1_555 1_555
B7E B8E 1_555 1_555
B8B H32B 1_555 1_555
B8B B10B 1_555 1_555
B8E H32E 1_555 1_555
B9B B11B 1_555 1_555
B9B B12B 1_555 1_555
B10B B12B 1_555 1_555
B11B B12B 1_555 1_555

#END
