
#######################################################################
#
#                 Cambridge Crystallographic Data Centre
#                                CCDC 
#
#######################################################################
#
# If this CIF has been generated from an entry in the Cambridge 
# Structural Database, then it will include bibliographic, chemical, 
# crystal, experimental, refinement or atomic coordinate data resulting 
# from the CCDC's data processing and validation procedures.
#
#######################################################################

data_XORPUR
_symmetry_cell_setting           monoclinic
_symmetry_space_group_name_H-M   'P 21/c'
_symmetry_Int_Tables_number      14
_space_group_name_Hall           '-P 2ybc'
loop_
_symmetry_equiv_pos_site_id
_symmetry_equiv_pos_as_xyz
1 x,y,z
2 -x,1/2+y,1/2-z
3 -x,-y,-z
4 x,1/2-y,1/2+z
_cell_length_a                   10.925(5)
_cell_length_b                   14.467(7)
_cell_length_c                   8.802(4)
_cell_angle_alpha                90
_cell_angle_beta                 107.112(5)
_cell_angle_gamma                90
_cell_volume                     1329.59
loop_
_atom_site_label
_atom_site_type_symbol
_atom_site_fract_x
_atom_site_fract_y
_atom_site_fract_z
Zn1 Zn 0.98788(7) 0.09222(5) 0.85968(8)
Zn2 Zn 1.32694(9) 0.26978(5) 0.99565(9)
C1 C 1.2833(6) -0.0220(4) 0.9414(7)
C2 C 1.2059(6) -0.0853(4) 0.8402(7)
H1 H 1.1422 -0.0647 0.7515
C3 C 1.2222(6) -0.1799(4) 0.8696(7)
C4 C 1.3171(7) -0.2117(5) 1.0003(8)
H2 H 1.3285 -0.2748 1.0196
C5 C 1.3947(6) -0.1486(5) 1.1018(8)
C6 C 1.3786(6) -0.0541(5) 1.0755(7)
H3 H 1.4305 -0.0124 1.1462
C7 C 1.2632(6) 0.0787(4) 0.9098(7)
C8 C 1.1291(7) -0.2450(5) 0.7573(8)
C9 C 1.5053(8) -0.1857(7) 1.2362(12)
C10 C 1.1787(6) 0.4405(4) 0.8322(7)
C11 C 1.1510(6) 0.3289(4) 0.6697(7)
O1 O 1.3482(4) 0.1338(3) 0.9802(5)
O2 O 1.1581(4) 0.1050(3) 0.8113(5)
O3 O 1.1354(5) -0.3310(3) 0.7907(5)
O4 O 1.0525(5) -0.2121(3) 0.6358(6)
O5 O 1.5495(6) -0.1439(6) 1.3585(7)
N1 N 1.2185(5) 0.3536(3) 0.8220(6)
N2 N 1.0950(5) 0.4702(3) 0.6986(6)
N3 N 1.0753(5) 0.3961(3) 0.5924(6)
N4 N 1.2190(6) 0.4926(4) 0.9656(6)
H4 H 1.1903 0.5479 0.9667
H5 H 1.2733 0.4704 1.0492
N5 N 1.1670(5) 0.2447(3) 0.6010(6)
H6 H 1.1265 0.2340 0.5030
H7 H 1.2174 0.2035 0.6566
O6 O 1.5567(8) -0.2643(4) 1.2046(11)
Zn1A Zn 1.01212(7) -0.40778(5) 0.64032(8)
Zn1A_2 Zn 1.01212(7) 0.59222(5) 0.64032(8)
Zn1C Zn 0.98788(7) 0.40778(5) 0.35968(8)
Zn2A Zn 1.67306(9) -0.23022(5) 1.50435(9)
Zn2B Zn 1.67306(9) -0.26978(5) 1.00435(9)
Zn2C Zn 1.32694(9) 0.23022(5) 0.49565(9)
O3A O 0.8646(5) 0.1690(3) 0.7093(5)
O5A O 1.4505(6) 0.3561(6) 1.1415(7)
N2A N 0.9050(5) -0.0298(3) 0.8014(6)
N3C N 1.0753(5) 0.1039(3) 1.0924(6)
N5C N 1.1670(5) 0.2553(3) 1.1010(6)
O6B O 1.4433(8) 0.2643(4) 0.7954(11)
loop_
_geom_bond_atom_site_label_1
_geom_bond_atom_site_label_2
_geom_bond_site_symmetry_1
_geom_bond_site_symmetry_2
Zn1 O2 1_555 1_555
Zn2 O1 1_555 1_555
C1 C2 1_555 1_555
C2 H1 1_555 1_555
C3 C2 1_555 1_555
C4 C3 1_555 1_555
H2 C4 1_555 1_555
C5 C4 1_555 1_555
C6 C1 1_555 1_555
H3 C6 1_555 1_555
C7 C1 1_555 1_555
C8 C3 1_555 1_555
C9 C5 1_555 1_555
C10 N1 1_555 1_555
C11 N1 1_555 1_555
O1 C7 1_555 1_555
O2 C7 1_555 1_555
O3 C8 1_555 1_555
O4 C8 1_555 1_555
O5 C9 1_555 1_555
N1 Zn2 1_555 1_555
N2 C10 1_555 1_555
N3 C11 1_555 1_555
N4 C10 1_555 1_555
H4 N4 1_555 1_555
H5 N4 1_555 1_555
N5 C11 1_555 1_555
H6 N5 1_555 1_555
H7 N5 1_555 1_555
O6 C9 1_555 1_555
Zn1A O3 1_555 1_555
Zn1A_2 N2 1_555 1_555
Zn1C N3 1_555 1_555
Zn2A O5 1_555 1_555
Zn2B O6 1_555 1_555
Zn2C N5 1_555 1_555
O3A Zn1 1_555 1_555
O5A Zn2 1_555 1_555
N2A Zn1 1_555 1_555
N3C Zn1 1_555 1_555
N5C Zn2 1_555 1_555
O6B Zn2 1_555 1_555
C5 C6 1_555 1_555
N2 N3 1_555 1_555

#END
