
#######################################################################
#
#                 Cambridge Crystallographic Data Centre
#                                CCDC 
#
#######################################################################
#
# If this CIF has been generated from an entry in the Cambridge 
# Structural Database, then it will include bibliographic, chemical, 
# crystal, experimental, refinement or atomic coordinate data resulting 
# from the CCDC's data processing and validation procedures.
#
#######################################################################

data_XORQOL01
_symmetry_cell_setting           monoclinic
_symmetry_space_group_name_H-M   'P 21/c'
_symmetry_Int_Tables_number      14
_space_group_name_Hall           '-P 2ybc'
loop_
_symmetry_equiv_pos_site_id
_symmetry_equiv_pos_as_xyz
1 x,y,z
2 -x,1/2+y,1/2-z
3 -x,-y,-z
4 x,1/2-y,1/2+z
_cell_length_a                   7.4615(8)
_cell_length_b                   19.921(2)
_cell_length_c                   8.8263(9)
_cell_angle_alpha                90
_cell_angle_beta                 111.281(2)
_cell_angle_gamma                90
_cell_volume                     1222.49
loop_
_atom_site_label
_atom_site_type_symbol
_atom_site_fract_x
_atom_site_fract_y
_atom_site_fract_z
Br1 Br 0.13333(6) 0.531829(19) 0.34906(5)
Cu1 Cu 0.05341(7) 0.56823(3) 0.58332(7)
S1 S 0.06942(14) 0.63195(5) 0.91543(13)
S2 S 0.12945(15) 0.77104(5) 1.06886(16)
N1 N 0.4507(5) 0.61249(15) 1.0581(4)
N2 N 0.2960(4) 0.57654(14) 0.7836(4)
N3 N -0.1487(4) 0.85781(14) 1.0171(4)
N4 N -0.2386(6) 0.74366(16) 1.0041(6)
C1 C 0.1288(6) 0.68182(19) 1.0968(5)
H1 H 0.0378 0.6714 1.1487
H2 H 0.2553 0.6685 1.1709
C2 C 0.2965(5) 0.60505(17) 0.9233(5)
C3 C 0.6167(6) 0.5888(2) 1.0537(6)
H3 H 0.7273 0.5936 1.1459
C4 C 0.6317(6) 0.55800(19) 0.9207(6)
H4 H 0.7479 0.5411 0.9208
C5 C 0.4640(5) 0.55347(18) 0.7859(5)
H5 H 0.4690 0.5333 0.6925
C6 C -0.1118(5) 0.79138(18) 1.0246(5)
C7 C -0.4182(7) 0.7638(2) 0.9768(9)
H6 H -0.5121 0.7310 0.9610
C8 C -0.4722(6) 0.8286(2) 0.9707(6)
H7 H -0.5976 0.8412 0.9554
C9 C -0.3310(6) 0.8745(2) 0.9883(5)
H8 H -0.3633 0.9198 0.9798
Br1B Br -0.13333(6) 0.468171(19) 0.65094(5)
Cu1B Cu -0.05341(7) 0.43177(3) 0.41668(7)
Cu1C Cu 0.05341(7) 0.93177(3) 1.08332(7)
N3C N -0.1487(4) 0.64219(14) 0.5171(4)
loop_
_geom_bond_atom_site_label_1
_geom_bond_atom_site_label_2
_geom_bond_site_symmetry_1
_geom_bond_site_symmetry_2
Br1 Cu1 1_555 1_555
Cu1 N2 1_555 1_555
S1 C1 1_555 1_555
S2 C1 1_555 1_555
N1 C2 1_555 1_555
N2 C2 1_555 1_555
N3 C6 1_555 1_555
N4 C6 1_555 1_555
C1 H1 1_555 1_555
H2 C1 1_555 1_555
C2 S1 1_555 1_555
C3 N1 1_555 1_555
H3 C3 1_555 1_555
C4 C3 1_555 1_555
H4 C4 1_555 1_555
C5 N2 1_555 1_555
H5 C5 1_555 1_555
C6 S2 1_555 1_555
C7 N4 1_555 1_555
H6 C7 1_555 1_555
C8 C7 1_555 1_555
H7 C8 1_555 1_555
C9 N3 1_555 1_555
H8 C9 1_555 1_555
Br1B Cu1 1_555 1_555
Cu1B Br1 1_555 1_555
Cu1C N3 1_555 1_555
N3C Cu1 1_555 1_555
C4 C5 1_555 1_555
C8 C9 1_555 1_555
Br1B Cu1B 1_555 1_555

#END
