
#######################################################################
#
#                 Cambridge Crystallographic Data Centre
#                                CCDC 
#
#######################################################################
#
# If this CIF has been generated from an entry in the Cambridge 
# Structural Database, then it will include bibliographic, chemical, 
# crystal, experimental, refinement or atomic coordinate data resulting 
# from the CCDC's data processing and validation procedures.
#
#######################################################################

data_XORQUR01
_symmetry_cell_setting           monoclinic
_symmetry_space_group_name_H-M   'C 2/c'
_symmetry_Int_Tables_number      15
_space_group_name_Hall           '-C 2yn'
loop_
_symmetry_equiv_pos_site_id
_symmetry_equiv_pos_as_xyz
1 x,y,z
2 -x,y,1/2-z
3 1/2+x,1/2+y,z
4 1/2-x,1/2+y,1/2-z
5 -x,-y,-z
6 x,-y,1/2+z
7 1/2-x,1/2-y,-z
8 1/2+x,1/2-y,1/2+z
_cell_length_a                   23.384(4)
_cell_length_b                   11.8151(19)
_cell_length_c                   9.7842(15)
_cell_angle_alpha                90
_cell_angle_beta                 96.960(2)
_cell_angle_gamma                90
_cell_volume                     2683.3
loop_
_atom_site_label
_atom_site_type_symbol
_atom_site_fract_x
_atom_site_fract_y
_atom_site_fract_z
C1 C 0.18387(12) -0.1721(3) 0.5656(3)
C2 C 0.20803(12) -0.2541(3) 0.6600(3)
C3 C 0.20192(13) -0.3683(3) 0.6336(3)
H1 H 0.2186 -0.4214 0.6963
C4 C 0.17034(13) -0.4022(3) 0.5113(3)
C5 C 0.14583(13) -0.3241(4) 0.4194(4)
H2 H 0.1245 -0.3480 0.3381
C6 C 0.15260(13) -0.2101(4) 0.4463(4)
H3 H 0.1357 -0.1579 0.3827
C7 C 0.15869(15) 0.0191(3) 0.5203(4)
H4 H 0.1733 0.0946 0.5424
H5 H 0.1611 0.0059 0.4233
C8 C 0.09552(13) 0.0130(2) 0.5465(3)
C9 C 0.04552(12) -0.2782(3) 0.7183(3)
H6 H 0.0778 -0.2385 0.6980
C10 C 0.04659(12) -0.3951(3) 0.7145(3)
H7 H 0.0785 -0.4325 0.6882
C11 C 0.0000 -0.4568(3) 0.7500
C12 C 0.0000 -0.5818(3) 0.7500
C13 C 0.01782(13) -0.6431(2) 0.6415(3)
H8 H 0.0305 -0.6055 0.5673
C14 C 0.01660(14) -0.7602(2) 0.6443(3)
H9 H 0.0278 -0.7997 0.5697
Cd1 Cd 0.0000 -0.02033(2) 0.7500
Cl1 Cl 0.24625(4) -0.20962(10) 0.81270(10)
Cl2 Cl 0.16052(5) -0.54605(11) 0.47726(13)
N1 N 0.0000 -0.2199(3) 0.7500
N2 N 0.0000 -0.8192(3) 0.7500
O1 O 0.05987(10) 0.0505(2) 0.4531(2)
O2 O 0.08563(10) -0.02112(19) 0.6614(3)
O3 O 0.19404(9) -0.0617(2) 0.5999(3)
C1A C -0.18387(12) -0.1721(3) 0.9344(3)
C2A C -0.20803(12) -0.2541(3) 0.8400(3)
C3A C -0.20192(13) -0.3683(3) 0.8664(3)
H1A H -0.2186 -0.4214 0.8037
C4A C -0.17034(13) -0.4022(3) 0.9887(3)
C5A C -0.14583(13) -0.3241(4) 1.0806(4)
H2A H -0.1245 -0.3480 1.1619
C6A C -0.15260(13) -0.2101(4) 1.0537(4)
H3A H -0.1357 -0.1579 1.1173
C7A C -0.15869(15) 0.0191(3) 0.9797(4)
H4A H -0.1733 0.0946 0.9576
H5A H -0.1611 0.0059 1.0767
C8A C -0.09552(13) 0.0130(2) 0.9535(3)
C9A C -0.04552(12) -0.2782(3) 0.7817(3)
H6A H -0.0778 -0.2385 0.8020
C10A C -0.04659(12) -0.3951(3) 0.7855(3)
H7A H -0.0785 -0.4325 0.8118
C13A C -0.01782(13) -0.6431(2) 0.8585(3)
H8A H -0.0305 -0.6055 0.9327
C14A C -0.01660(14) -0.7602(2) 0.8557(3)
H9A H -0.0278 -0.7997 0.9303
Cd1_2 Cd 0.0000 -1.02033(2) 0.7500
Cd1D Cd 0.0000 0.02033(2) 0.2500
Cd1D_2 Cd 0.0000 0.02033(2) 1.2500
Cl1A Cl -0.24625(4) -0.20962(10) 0.68730(10)
Cl2A Cl -0.16052(5) -0.54605(11) 1.02274(13)
N2_2 N 0.0000 0.1808(3) 0.7500
O1A O -0.05987(10) 0.0505(2) 1.0469(2)
O1D O -0.05987(10) -0.0505(2) 0.5469(2)
O1E O 0.05987(10) -0.0505(2) 0.9531(2)
O2A O -0.08563(10) -0.02112(19) 0.8386(3)
O3A O -0.19404(9) -0.0617(2) 0.9001(3)
loop_
_geom_bond_atom_site_label_1
_geom_bond_atom_site_label_2
_geom_bond_site_symmetry_1
_geom_bond_site_symmetry_2
C1 C2 1_555 1_555
C2 C3 1_555 1_555
C3 H1 1_555 1_555
C4 C3 1_555 1_555
C5 C4 1_555 1_555
H2 C5 1_555 1_555
C6 C1 1_555 1_555
H3 C6 1_555 1_555
C7 H4 1_555 1_555
H5 C7 1_555 1_555
C8 C7 1_555 1_555
C9 H6 1_555 1_555
C10 C9 1_555 1_555
H7 C10 1_555 1_555
C11 C10 1_555 1_555
C12 C11 1_555 1_555
C13 C12 1_555 1_555
H8 C13 1_555 1_555
C14 C13 1_555 1_555
H9 C14 1_555 1_555
Cd1 N1 1_555 1_555
Cl1 C2 1_555 1_555
Cl2 C4 1_555 1_555
N1 C9 1_555 1_555
N2 C14 1_555 1_555
O1 C8 1_555 1_555
O2 C8 1_555 1_555
O3 C1 1_555 1_555
C1A C2A 1_555 1_555
C2A C3A 1_555 1_555
C3A H1A 1_555 1_555
C4A C3A 1_555 1_555
C5A C4A 1_555 1_555
H2A C5A 1_555 1_555
C6A C1A 1_555 1_555
H3A C6A 1_555 1_555
C7A H4A 1_555 1_555
H5A C7A 1_555 1_555
C8A C7A 1_555 1_555
C9A N1 1_555 1_555
H6A C9A 1_555 1_555
C10A C11 1_555 1_555
H7A C10A 1_555 1_555
C13A C12 1_555 1_555
H8A C13A 1_555 1_555
C14A N2 1_555 1_555
H9A C14A 1_555 1_555
Cd1_2 N2 1_555 1_555
Cd1D O1 1_555 1_555
Cd1D_2 O1A 1_555 1_555
Cl1A C2A 1_555 1_555
Cl2A C4A 1_555 1_555
N2_2 Cd1 1_555 1_555
O1A C8A 1_555 1_555
O1D Cd1 1_555 1_555
O1E Cd1 1_555 1_555
O2A Cd1 1_555 1_555
O3A C1A 1_555 1_555
C5 C6 1_555 1_555
C7 O3 1_555 1_555
Cd1 O2 1_555 1_555
C5A C6A 1_555 1_555
C7A O3A 1_555 1_555
C8A O2A 1_555 1_555
C9A C10A 1_555 1_555
C13A C14A 1_555 1_555

#END
