
#######################################################################
#
#                 Cambridge Crystallographic Data Centre
#                                CCDC 
#
#######################################################################
#
# If this CIF has been generated from an entry in the Cambridge 
# Structural Database, then it will include bibliographic, chemical, 
# crystal, experimental, refinement or atomic coordinate data resulting 
# from the CCDC's data processing and validation procedures.
#
#######################################################################

data_XORQOL
_symmetry_cell_setting           monoclinic
_symmetry_space_group_name_H-M   'P 21/c'
_symmetry_Int_Tables_number      14
_space_group_name_Hall           '-P 2ybc'
loop_
_symmetry_equiv_pos_site_id
_symmetry_equiv_pos_as_xyz
1 x,y,z
2 -x,1/2+y,1/2-z
3 -x,-y,-z
4 x,1/2-y,1/2+z
_cell_length_a                   7.4652(7)
_cell_length_b                   19.9503(19)
_cell_length_c                   8.8300(8)
_cell_angle_alpha                90
_cell_angle_beta                 111.202(2)
_cell_angle_gamma                90
_cell_volume                     1226.06
loop_
_atom_site_label
_atom_site_type_symbol
_atom_site_fract_x
_atom_site_fract_y
_atom_site_fract_z
Br1 Br 0.36639(5) 0.468195(16) 1.15072(4)
Cu1 Cu 0.44645(6) 0.43125(2) 0.91624(6)
S1 S 0.43097(12) 0.36828(4) 0.58412(11)
S2 S 0.37045(13) 0.22923(5) 0.43133(14)
N1 N 0.2051(4) 0.42344(12) 0.7156(3)
N2 N 0.6487(4) 0.14248(13) 0.4827(3)
C1 C 0.2035(4) 0.39516(14) 0.5766(4)
N3 N 0.0507(4) 0.38781(13) 0.4406(3)
C2 C -0.1309(5) 0.44203(17) 0.5792(5)
H1 H -0.2471 0.4588 0.5792
C3 C 0.8309(5) 0.12509(17) 0.5116(4)
H2 H 0.8629 0.0798 0.5203
C4 C 0.0351(5) 0.44653(16) 0.7132(4)
H3 H 0.0296 0.4665 0.8066
C5 C 0.9712(5) 0.17118(19) 0.5289(5)
H4 H 1.0968 0.1586 0.5456
C6 C -0.1159(5) 0.41140(17) 0.4451(5)
H5 H -0.2264 0.4067 0.3529
C7 C 0.6124(5) 0.20847(16) 0.4746(4)
N4 N 0.7391(5) 0.25672(16) 0.4943(5)
C8 C 0.9184(6) 0.2362(2) 0.5204(7)
H6 H 1.0122 0.2686 0.5335
C9 C 0.3710(5) 0.31867(17) 0.4029(4)
H7 H 0.4616 0.3291 0.3505
H8 H 0.2445 0.3320 0.3292
Br1B Br 0.63361(5) 0.531805(16) 0.84928(4)
Cu1B Cu 0.55355(6) 0.56875(2) 1.08376(6)
Cu1C Cu 0.44645(6) 0.06875(2) 0.41624(6)
N2C N 0.6487(4) 0.35752(13) 0.9827(3)
loop_
_geom_bond_atom_site_label_1
_geom_bond_atom_site_label_2
_geom_bond_site_symmetry_1
_geom_bond_site_symmetry_2
Br1 Cu1 1_555 1_555
Cu1 N1 1_555 1_555
S1 C1 1_555 1_555
S2 C7 1_555 1_555
N1 C1 1_555 1_555
N2 C3 1_555 1_555
C1 N3 1_555 1_555
N3 C6 1_555 1_555
C2 H1 1_555 1_555
C3 H2 1_555 1_555
C4 N1 1_555 1_555
H3 C4 1_555 1_555
C5 C3 1_555 1_555
H4 C5 1_555 1_555
C6 C2 1_555 1_555
H5 C6 1_555 1_555
C7 N2 1_555 1_555
N4 C7 1_555 1_555
C8 C5 1_555 1_555
H6 C8 1_555 1_555
C9 S1 1_555 1_555
H7 C9 1_555 1_555
H8 C9 1_555 1_555
Br1B Cu1 1_555 1_555
Cu1B Br1 1_555 1_555
Cu1C N2 1_555 1_555
N2C Cu1 1_555 1_555
S2 C9 1_555 1_555
C2 C4 1_555 1_555
N4 C8 1_555 1_555
Br1B Cu1B 1_555 1_555

#END
