
#######################################################################
#
#                 Cambridge Crystallographic Data Centre
#                                CCDC 
#
#######################################################################
#
# If this CIF has been generated from an entry in the Cambridge 
# Structural Database, then it will include bibliographic, chemical, 
# crystal, experimental, refinement or atomic coordinate data resulting 
# from the CCDC's data processing and validation procedures.
#
#######################################################################

data_XORQUR
_symmetry_cell_setting           monoclinic
_symmetry_space_group_name_H-M   'C 2/c'
_symmetry_Int_Tables_number      15
_space_group_name_Hall           '-C 2yn'
loop_
_symmetry_equiv_pos_site_id
_symmetry_equiv_pos_as_xyz
1 x,y,z
2 -x,y,1/2-z
3 1/2+x,1/2+y,z
4 1/2-x,1/2+y,1/2-z
5 -x,-y,-z
6 x,-y,1/2+z
7 1/2-x,1/2-y,-z
8 1/2+x,1/2-y,1/2+z
_cell_length_a                   23.425(3)
_cell_length_b                   11.8100(15)
_cell_length_c                   9.7794(13)
_cell_angle_alpha                90
_cell_angle_beta                 96.819(2)
_cell_angle_gamma                90
_cell_volume                     2686.33
loop_
_atom_site_label
_atom_site_type_symbol
_atom_site_fract_x
_atom_site_fract_y
_atom_site_fract_z
Cd1 Cd 0.0000 0.020144(18) 0.7500
Cl1 Cl 0.24583(4) 0.20913(8) 0.81197(8)
Cl2 Cl 0.16062(4) 0.54593(8) 0.47776(10)
O1 O 0.08539(8) 0.02099(16) 0.66099(19)
O2 O 0.05982(9) -0.05059(18) 0.45313(19)
O3 O 0.19357(8) 0.06153(18) 0.5993(2)
N1 N 0.0000 0.2198(2) 0.7500
N2 N 0.0000 0.8191(2) 0.7500
C1 C 0.18354(10) 0.1718(3) 0.5656(3)
C2 C 0.20755(11) 0.2535(3) 0.6587(3)
C3 C 0.20164(11) 0.3676(3) 0.6329(3)
H1 H 0.2185 0.4204 0.6958
C4 C 0.17010(11) 0.4025(3) 0.5112(3)
C5 C 0.14579(12) 0.3238(3) 0.4186(3)
H2 H 0.1247 0.3477 0.3371
C6 C 0.15235(12) 0.2099(3) 0.4455(3)
H3 H 0.1355 0.1577 0.3819
C7 C 0.09532(10) -0.01317(19) 0.5462(2)
C8 C 0.15822(12) -0.0197(3) 0.5206(3)
H4 H 0.1727 -0.0951 0.5437
H5 H 0.1608 -0.0073 0.4235
C9 C -0.04507(10) 0.2782(2) 0.7814(3)
H6 H -0.0772 0.2385 0.8021
C10 C -0.04652(10) 0.3949(2) 0.7847(2)
H7 H -0.0786 0.4323 0.8101
C11 C 0.0000 0.4558(2) 0.7500
C12 C 0.0000 0.5816(2) 0.7500
C13 C -0.01794(11) 0.64300(19) 0.8582(2)
H8 H -0.0309 0.6056 0.9323
C14 C -0.01653(12) 0.75975(19) 0.8553(3)
H9 H -0.0276 0.7992 0.9301
Cd1_2 Cd 0.0000 1.020144(18) 0.7500
Cd1D Cd 0.0000 -0.020144(18) 0.2500
Cd1D_2 Cd 0.0000 -0.020144(18) 1.2500
Cl1A Cl -0.24583(4) 0.20913(8) 0.68803(8)
Cl2A Cl -0.16062(4) 0.54593(8) 1.02224(10)
O1A O -0.08539(8) 0.02099(16) 0.83901(19)
O2A O -0.05982(9) -0.05059(18) 1.04687(19)
O2D O -0.05982(9) 0.05059(18) 0.54687(19)
O2E O 0.05982(9) 0.05059(18) 0.95313(19)
O3A O -0.19357(8) 0.06153(18) 0.9007(2)
N2_2 N 0.0000 -0.1809(2) 0.7500
C1A C -0.18354(10) 0.1718(3) 0.9344(3)
C2A C -0.20755(11) 0.2535(3) 0.8413(3)
C3A C -0.20164(11) 0.3676(3) 0.8671(3)
H1A H -0.2185 0.4204 0.8042
C4A C -0.17010(11) 0.4025(3) 0.9888(3)
C5A C -0.14579(12) 0.3238(3) 1.0814(3)
H2A H -0.1247 0.3477 1.1629
C6A C -0.15235(12) 0.2099(3) 1.0545(3)
H3A H -0.1355 0.1577 1.1181
C7A C -0.09532(10) -0.01317(19) 0.9538(2)
C8A C -0.15822(12) -0.0197(3) 0.9794(3)
H4A H -0.1727 -0.0951 0.9563
H5A H -0.1608 -0.0073 1.0765
C9A C 0.04507(10) 0.2782(2) 0.7186(3)
H6A H 0.0772 0.2385 0.6979
C10A C 0.04652(10) 0.3949(2) 0.7153(2)
H7A H 0.0786 0.4323 0.6899
C13A C 0.01794(11) 0.64300(19) 0.6418(2)
H8A H 0.0309 0.6056 0.5677
C14A C 0.01653(12) 0.75975(19) 0.6447(3)
H9A H 0.0276 0.7992 0.5699
loop_
_geom_bond_atom_site_label_1
_geom_bond_atom_site_label_2
_geom_bond_site_symmetry_1
_geom_bond_site_symmetry_2
Cd1 O1 1_555 1_555
Cl1 C2 1_555 1_555
Cl2 C4 1_555 1_555
O1 C7 1_555 1_555
O2 C7 1_555 1_555
O3 C1 1_555 1_555
N1 Cd1 1_555 1_555
N2 C14 1_555 1_555
C1 C2 1_555 1_555
C2 C3 1_555 1_555
C3 H1 1_555 1_555
C4 C3 1_555 1_555
C5 C4 1_555 1_555
H2 C5 1_555 1_555
C6 C1 1_555 1_555
H3 C6 1_555 1_555
C7 C8 1_555 1_555
C8 O3 1_555 1_555
H4 C8 1_555 1_555
H5 C8 1_555 1_555
C9 N1 1_555 1_555
H6 C9 1_555 1_555
C10 C9 1_555 1_555
H7 C10 1_555 1_555
C11 C10 1_555 1_555
C12 C11 1_555 1_555
C13 C12 1_555 1_555
H8 C13 1_555 1_555
C14 C13 1_555 1_555
H9 C14 1_555 1_555
Cd1_2 N2 1_555 1_555
Cd1D O2 1_555 1_555
Cd1D_2 O2A 1_555 1_555
Cl1A C2A 1_555 1_555
Cl2A C4A 1_555 1_555
O1A Cd1 1_555 1_555
O2A C7A 1_555 1_555
O2D Cd1 1_555 1_555
O2E Cd1 1_555 1_555
O3A C1A 1_555 1_555
N2_2 Cd1 1_555 1_555
C1A C2A 1_555 1_555
C2A C3A 1_555 1_555
C3A H1A 1_555 1_555
C4A C3A 1_555 1_555
C5A C4A 1_555 1_555
H2A C5A 1_555 1_555
C6A C1A 1_555 1_555
H3A C6A 1_555 1_555
C7A O1A 1_555 1_555
C8A O3A 1_555 1_555
H4A C8A 1_555 1_555
H5A C8A 1_555 1_555
C9A N1 1_555 1_555
H6A C9A 1_555 1_555
C10A C11 1_555 1_555
H7A C10A 1_555 1_555
C13A C12 1_555 1_555
H8A C13A 1_555 1_555
C14A N2 1_555 1_555
H9A C14A 1_555 1_555
C5 C6 1_555 1_555
C5A C6A 1_555 1_555
C7A C8A 1_555 1_555
C9A C10A 1_555 1_555
C13A C14A 1_555 1_555

#END
