
#######################################################################
#
#                 Cambridge Crystallographic Data Centre
#                                CCDC 
#
#######################################################################
#
# If this CIF has been generated from an entry in the Cambridge 
# Structural Database, then it will include bibliographic, chemical, 
# crystal, experimental, refinement or atomic coordinate data resulting 
# from the CCDC's data processing and validation procedures.
#
#######################################################################

data_XORRIF01
_symmetry_cell_setting           monoclinic
_symmetry_space_group_name_H-M   'C 2/c'
_symmetry_Int_Tables_number      15
_space_group_name_Hall           '-C 2yn'
loop_
_symmetry_equiv_pos_site_id
_symmetry_equiv_pos_as_xyz
1 x,y,z
2 -x,y,1/2-z
3 1/2+x,1/2+y,z
4 1/2-x,1/2+y,1/2-z
5 -x,-y,-z
6 x,-y,1/2+z
7 1/2-x,1/2-y,-z
8 1/2+x,1/2-y,1/2+z
_cell_length_a                   25.694(2)
_cell_length_b                   5.4590(8)
_cell_length_c                   28.306(3)
_cell_angle_alpha                90
_cell_angle_beta                 114.248(4)
_cell_angle_gamma                90
_cell_volume                     3620.03
loop_
_atom_site_label
_atom_site_type_symbol
_atom_site_fract_x
_atom_site_fract_y
_atom_site_fract_z
C1 C 0.58379(14) 0.4112(7) -0.05135(13)
C2 C 0.53959(15) 0.5447(7) -0.04809(14)
H1 H 0.5471 0.6858 -0.0280
C3 C 0.48410(15) 0.4652(8) -0.07518(14)
C4 C 0.47076(16) 0.2624(8) -0.10662(15)
H2 H 0.4332 0.2126 -0.1251
C5 C 0.51566(17) 0.1370(8) -0.10932(14)
C6 C 0.57195(15) 0.2057(7) -0.08236(13)
H3 H 0.6013 0.1153 -0.0851
C7 C 0.64463(13) 0.5004(7) -0.02347(12)
C8 C 0.80919(14) -0.3702(6) 0.14955(12)
C9 C 0.84416(15) -0.1682(7) 0.15864(13)
H4 H 0.8518 -0.1004 0.1320
C10 C 0.86766(15) -0.0675(6) 0.20766(13)
C11 C 0.85669(15) -0.1579(7) 0.24801(13)
H5 H 0.8716 -0.0846 0.2805
C12 C 0.82245(15) -0.3626(7) 0.23775(13)
C13 C 0.79915(15) -0.4723(7) 0.18998(12)
H6 H 0.7770 -0.6127 0.1847
C14 C 0.78312(14) -0.4879(7) 0.09636(12)
N1 N 0.43740(15) 0.6073(8) -0.07039(15)
N2 N 0.50339(17) -0.0810(7) -0.14343(13)
N3 N 0.90717(15) 0.1410(6) 0.21821(13)
N4 N 0.81212(14) -0.4693(7) 0.28070(11)
O1 O 0.68384(10) 0.3568(4) -0.02194(9)
O2 O 0.65082(10) 0.7114(5) -0.00573(10)
O3 O 0.44853(14) 0.8068(7) -0.04943(14)
O4 O 0.39014(12) 0.5130(8) -0.08773(15)
O5 O 0.45334(14) -0.1496(7) -0.16339(12)
O6 O 0.54268(16) -0.1854(7) -0.14780(13)
O7 O 0.78148(10) -0.3560(4) 0.05863(8)
O8 O 0.76614(11) -0.7011(5) 0.09357(9)
O9 O 0.91749(15) 0.2193(6) 0.18275(12)
O10 O 0.92584(15) 0.2300(7) 0.26145(12)
O11 O 0.82123(15) -0.3398(7) 0.31879(11)
O12 O 0.79608(15) -0.6800(7) 0.27706(12)
Ca1 Ca 0.72616(3) 0.00219(14) 0.02710(2)
O13 O 0.68555(14) -0.0614(7) 0.08791(13)
H7 H 0.685(2) 0.021(8) 0.1121(14)
H8 H 0.6563(14) -0.143(8) 0.0770(18)
O1F O 0.81616(10) 0.1432(4) 0.02194(9)
O2_2 O 0.65082(10) -0.2886(5) -0.00573(10)
O7F O 0.71852(10) -0.1440(4) -0.05863(8)
O8_2 O 0.76614(11) 0.2989(5) 0.09357(9)
Ca1_2 Ca 0.72616(3) -0.99781(14) 0.02710(2)
Ca1_3 Ca 0.72616(3) 1.00219(14) 0.02710(2)
Ca1F Ca 0.77384(3) -0.50219(14) -0.02710(2)
Ca1F_2 Ca 0.77384(3) 0.49781(14) -0.02710(2)
loop_
_geom_bond_atom_site_label_1
_geom_bond_atom_site_label_2
_geom_bond_site_symmetry_1
_geom_bond_site_symmetry_2
C1 C2 1_555 1_555
C2 H1 1_555 1_555
C3 C2 1_555 1_555
C4 C3 1_555 1_555
H2 C4 1_555 1_555
C5 C4 1_555 1_555
C6 C1 1_555 1_555
H3 C6 1_555 1_555
C7 C1 1_555 1_555
C8 C9 1_555 1_555
C9 H4 1_555 1_555
C10 C9 1_555 1_555
C11 C10 1_555 1_555
H5 C11 1_555 1_555
C12 C11 1_555 1_555
C13 C8 1_555 1_555
H6 C13 1_555 1_555
C14 C8 1_555 1_555
N1 C3 1_555 1_555
N2 C5 1_555 1_555
N3 C10 1_555 1_555
N4 C12 1_555 1_555
O1 C7 1_555 1_555
O2 C7 1_555 1_555
O3 N1 1_555 1_555
O4 N1 1_555 1_555
O5 N2 1_555 1_555
O6 N2 1_555 1_555
O7 C14 1_555 1_555
O8 C14 1_555 1_555
O9 N3 1_555 1_555
O10 N3 1_555 1_555
O11 N4 1_555 1_555
O12 N4 1_555 1_555
Ca1 O1 1_555 1_555
O13 Ca1 1_555 1_555
H7 O13 1_555 1_555
H8 O13 1_555 1_555
O1F Ca1 1_555 1_555
O2_2 Ca1 1_555 1_555
O7F Ca1 1_555 1_555
O8_2 Ca1 1_555 1_555
Ca1_2 O8 1_555 1_555
Ca1_3 O2 1_555 1_555
Ca1F O7 1_555 1_555
Ca1F_2 O1 1_555 1_555
C5 C6 1_555 1_555
C12 C13 1_555 1_555
O7 Ca1 1_555 1_555
O1F Ca1F_2 1_555 1_555
O7F Ca1F 1_555 1_555

#END
