
#######################################################################
#
#                 Cambridge Crystallographic Data Centre
#                                CCDC 
#
#######################################################################
#
# If this CIF has been generated from an entry in the Cambridge 
# Structural Database, then it will include bibliographic, chemical, 
# crystal, experimental, refinement or atomic coordinate data resulting 
# from the CCDC's data processing and validation procedures.
#
#######################################################################

data_XORRON
_symmetry_cell_setting           tetragonal
_symmetry_space_group_name_H-M   'I -4'
_symmetry_Int_Tables_number      82
_space_group_name_Hall           'I -4'
loop_
_symmetry_equiv_pos_site_id
_symmetry_equiv_pos_as_xyz
1 x,y,z
2 y,-x,-z
3 -x,-y,z
4 -y,x,-z
5 1/2+x,1/2+y,1/2+z
6 1/2+y,1/2-x,1/2-z
7 1/2-x,1/2-y,1/2+z
8 1/2-y,1/2+x,1/2-z
_cell_length_a                   12.8897(5)
_cell_length_b                   12.8897(5)
_cell_length_c                   16.4462(12)
_cell_angle_alpha                90
_cell_angle_beta                 90
_cell_angle_gamma                90
_cell_volume                     2732.44
loop_
_atom_site_label
_atom_site_type_symbol
_atom_site_fract_x
_atom_site_fract_y
_atom_site_fract_z
Tb1 Tb 0.34840(2) 0.53256(2) 0.92358(2)
S1 S 0.28658(14) 0.43926(13) 0.71847(12)
O1 O 0.1107(4) 0.7478(4) 0.5449(3)
O2 O 0.2419(4) 0.8383(4) 0.4938(4)
O3 O 0.5000 0.5000 0.6790(4)
O4 O 0.3142(5) 0.3435(4) 0.6775(3)
O5 O 0.1754(3) 0.4508(4) 0.7302(3)
O6 O 0.3449(4) 0.4519(4) 0.7946(3)
O7 O 0.5170(3) 0.6007(3) 0.9372(3)
H1 H 0.5273 0.6513 0.9051
O8 O 0.3453(5) 0.6794(4) 0.8311(4)
H2 H 0.3186 0.7359 0.8476
H3 H 0.4032 0.6958 0.8099
O9 O 0.1646(4) 0.5530(4) 0.8767(3)
H4 H 0.1681 0.5253 0.8299
H5 H 0.1095 0.5871 0.8865
C1 C 0.2060(5) 0.7630(6) 0.5323(4)
C2 C 0.2829(5) 0.6869(5) 0.5669(5)
C3 C 0.3865(5) 0.6967(5) 0.5474(5)
H6 H 0.4071 0.7468 0.5101
C4 C 0.4598(5) 0.6329(5) 0.5827(5)
H7 H 0.5298 0.6407 0.5702
C5 C 0.4281(5) 0.5581(5) 0.6362(4)
C6 C 0.3260(5) 0.5411(6) 0.6538(4)
C7 C 0.2511(6) 0.6091(5) 0.6188(5)
H8 H 0.1811 0.6011 0.6309
S1B S 0.71342(14) 0.56074(13) 0.71847(12)
O1B O 0.8893(4) 0.2522(4) 0.5449(3)
O2B O 0.7581(4) 0.1617(4) 0.4938(4)
O4B O 0.6858(5) 0.6565(4) 0.6775(3)
O5B O 0.8246(3) 0.5492(4) 0.7302(3)
O6B O 0.6551(4) 0.5481(4) 0.7946(3)
C1B C 0.7940(5) 0.2370(6) 0.5323(4)
C2B C 0.7171(5) 0.3131(5) 0.5669(5)
C3B C 0.6135(5) 0.3033(5) 0.5474(5)
H6B H 0.5929 0.2532 0.5101
C4B C 0.5402(5) 0.3671(5) 0.5827(5)
H7B H 0.4702 0.3593 0.5702
C5B C 0.5719(5) 0.4419(5) 0.6362(4)
C6B C 0.6740(5) 0.4589(6) 0.6538(4)
C7B C 0.7489(6) 0.3909(5) 0.6188(5)
H8B H 0.8189 0.3989 0.6309
Tb1A Tb 0.53256(2) 0.65160(2) 1.07642(2)
O7A O 0.6007(3) 0.4830(3) 1.0628(3)
H1A H 0.6513 0.4727 1.0949
O8A O 0.6794(4) 0.6547(5) 1.1689(4)
H2A H 0.7359 0.6814 1.1524
H3A H 0.6958 0.5968 1.1901
O9A O 0.5530(4) 0.8354(4) 1.1233(3)
H4A H 0.5253 0.8319 1.1701
H5A H 0.5871 0.8905 1.1135
Tb1B Tb 0.65160(2) 0.46744(2) 0.92358(2)
Tb1C Tb 0.46744(2) 0.34840(2) 1.07642(2)
Tb1D Tb 0.84840(2) 0.03256(2) 0.42358(2)
Tb1E Tb 1.03256(2) 0.15160(2) 0.57642(2)
Tb1F Tb 0.15160(2) 0.96744(2) 0.42358(2)
Tb1G Tb -0.03256(2) 0.84840(2) 0.57642(2)
O1E O 0.2478(4) 0.3893(4) 0.9551(3)
O1F O 0.3893(4) 0.7522(4) 1.0449(3)
O2F O 0.2581(4) 0.6617(4) 0.9938(4)
O2G O 0.6617(4) 0.7419(4) 1.0062(4)
O6A O 0.4519(4) 0.6551(4) 1.2054(3)
O7B O 0.4830(3) 0.3993(3) 0.9372(3)
O7C O 0.3993(3) 0.5170(3) 1.0628(3)
O10 O 0.5309(6) 0.7594(6) 0.7862(6)
H9 H 0.5404 0.7896 0.8315
H10 H 0.5664 0.7048 0.7780
O11 O 0.5886(13) 0.9538(14) 0.8399(12)
H11 H 0.5864 0.9625 0.7887
H12 H 0.5572 1.0117 0.8426
O12 O 0.0000 0.5000 1.0010(11)
H13 H 0.0588 0.4825 0.9821
H13B H -0.0588 0.5175 0.9821
loop_
_geom_bond_atom_site_label_1
_geom_bond_atom_site_label_2
_geom_bond_site_symmetry_1
_geom_bond_site_symmetry_2
Tb1 O6 1_555 1_555
S1 O4 1_555 1_555
O1 C1 1_555 1_555
O2 C1 1_555 1_555
O3 C5 1_555 1_555
O5 S1 1_555 1_555
O6 S1 1_555 1_555
O7 Tb1 1_555 1_555
H1 O7 1_555 1_555
O8 Tb1 1_555 1_555
H2 O8 1_555 1_555
H3 O8 1_555 1_555
O9 Tb1 1_555 1_555
H4 O9 1_555 1_555
H5 O9 1_555 1_555
C1 C2 1_555 1_555
C2 C3 1_555 1_555
C3 H6 1_555 1_555
C4 C3 1_555 1_555
H7 C4 1_555 1_555
C5 C4 1_555 1_555
C6 S1 1_555 1_555
C7 C2 1_555 1_555
H8 C7 1_555 1_555
O10 H9 1_555 1_555
H10 O10 1_555 1_555
O11 H11 1_555 1_555
H12 O11 1_555 1_555
O12 H13 1_555 1_555
S1B O4B 1_555 1_555
O1B C1B 1_555 1_555
O2B C1B 1_555 1_555
O5B S1B 1_555 1_555
O6B S1B 1_555 1_555
C1B C2B 1_555 1_555
C2B C3B 1_555 1_555
C3B H6B 1_555 1_555
C4B C3B 1_555 1_555
H7B C4B 1_555 1_555
C5B O3 1_555 1_555
C6B S1B 1_555 1_555
C7B C2B 1_555 1_555
H8B C7B 1_555 1_555
Tb1A O7 1_555 1_555
O7A Tb1A 1_555 1_555
H1A O7A 1_555 1_555
O8A Tb1A 1_555 1_555
H2A O8A 1_555 1_555
H3A O8A 1_555 1_555
O9A Tb1A 1_555 1_555
H4A O9A 1_555 1_555
H5A O9A 1_555 1_555
Tb1B O7 1_555 1_555
Tb1C O7A 1_555 1_555
Tb1D O2B 1_555 1_555
Tb1E O1B 1_555 1_555
Tb1F O2 1_555 1_555
Tb1G O1 1_555 1_555
O1E Tb1 1_555 1_555
O1F Tb1A 1_555 1_555
O2F Tb1 1_555 1_555
O2G Tb1A 1_555 1_555
O6A Tb1A 1_555 1_555
O7B Tb1 1_555 1_555
O7C Tb1 1_555 1_555
H13B O12 1_555 1_555
C5 C6 1_555 1_555
C6 C7 1_555 1_555
O6B Tb1B 1_555 1_555
C4B C5B 1_555 1_555
C5B C6B 1_555 1_555
C6B C7B 1_555 1_555
Tb1A O7C 1_555 1_555
O7A Tb1B 1_555 1_555
Tb1B O7B 1_555 1_555
Tb1C O7B 1_555 1_555
Tb1C O7C 1_555 1_555

#END
