
#######################################################################
#
#                 Cambridge Crystallographic Data Centre
#                                CCDC 
#
#######################################################################
#
# If this CIF has been generated from an entry in the Cambridge 
# Structural Database, then it will include bibliographic, chemical, 
# crystal, experimental, refinement or atomic coordinate data resulting 
# from the CCDC's data processing and validation procedures.
#
#######################################################################

data_XORSAZ
_symmetry_cell_setting           triclinic
_symmetry_space_group_name_H-M   'P -1'
_symmetry_Int_Tables_number      2
_space_group_name_Hall           '-P 1'
loop_
_symmetry_equiv_pos_site_id
_symmetry_equiv_pos_as_xyz
1 x,y,z
2 -x,-y,-z
_cell_length_a                   13.368(4)
_cell_length_b                   16.503(4)
_cell_length_c                   18.506(5)
_cell_angle_alpha                88.831(5)
_cell_angle_beta                 82.095(5)
_cell_angle_gamma                83.578(5)
_cell_volume                     4018.42
loop_
_atom_site_label
_atom_site_type_symbol
_atom_site_fract_x
_atom_site_fract_y
_atom_site_fract_z
P1 P 0.48615(13) 1.33382(10) 0.23589(9)
Mo1 Mo 0.37231(6) 1.14861(4) 0.25134(4)
Mo2 Mo 0.56221(6) 1.17134(4) 0.11108(4)
Mo3 Mo 0.30348(5) 1.30860(5) 0.39024(4)
Mo4 Mo 0.34809(6) 1.51488(4) 0.17911(4)
Mo5 Mo 0.61654(6) 1.14539(4) 0.28520(4)
Mo6 Mo 0.22892(5) 1.34203(5) 0.20635(4)
Mo7 Mo 0.55025(6) 1.31519(4) 0.41649(4)
Mo8 Mo 0.74583(5) 1.33214(5) 0.25862(4)
Mo9 Mo 0.41040(6) 1.35763(5) 0.05880(4)
Mo10 Mo 0.40770(6) 1.48790(4) 0.36731(4)
Mo11 Mo 0.67661(6) 1.36490(5) 0.08732(4)
Mo12 Mo 0.61222(6) 1.51241(4) 0.21629(5)
O1 O 0.2987(5) 1.0729(4) 0.2678(4)
O2 O 0.5978(5) 1.1063(4) 0.0419(3)
O3 O 0.2060(5) 1.2877(4) 0.4521(3)
O4 O 0.2904(5) 1.6089(4) 0.1672(4)
O5 O 0.6931(5) 1.0692(3) 0.3168(3)
O6 O 0.1053(5) 1.3315(4) 0.2067(4)
O7 O 0.5984(5) 1.2902(4) 0.4935(3)
O8 O 0.8634(5) 1.3213(5) 0.2805(4)
O9 O 0.3971(5) 1.3603(4) -0.0298(3)
O10 O 0.3787(5) 1.5725(4) 0.4166(3)
O11 O 0.7552(5) 1.3682(4) 0.0088(3)
O12 O 0.6510(5) 1.6055(4) 0.2137(4)
O13 O 0.6515(4) 1.2514(3) 0.0938(3)
O14 O 0.6710(4) 1.4730(3) 0.1210(3)
O15 O 0.3426(4) 1.5126(3) 0.2856(3)
O16 O 0.3676(4) 1.4717(3) 0.0850(3)
O17 O 0.4639(4) 1.2495(3) 0.0734(3)
O18 O 0.2883(4) 1.2287(3) 0.2117(3)
O19 O 0.4111(4) 1.2873(3) 0.4466(3)
O20 O 0.6617(4) 1.3428(4) 0.3526(3)
O21 O 0.5474(4) 1.3840(3) 0.0585(3)
O22 O 0.3046(4) 1.4239(3) 0.4093(3)
O23 O 0.7111(4) 1.2260(4) 0.2583(3)
O24 O 0.4920(4) 1.0987(3) 0.2927(3)
O25 O 0.6359(4) 1.1198(3) 0.1817(3)
O26 O 0.7205(4) 1.4515(3) 0.2536(3)
O27 O 0.2792(4) 1.3361(4) 0.1026(3)
O28 O 0.5313(4) 1.5095(4) 0.3077(3)
O29 O 0.4834(4) 1.5294(4) 0.1770(3)
O30 O 0.2277(4) 1.4561(3) 0.1979(3)
O31 O 0.2363(4) 1.3439(3) 0.3071(3)
O32 O 0.7733(4) 1.3360(3) 0.1557(3)
O33 O 0.4963(4) 1.4252(3) 0.4303(3)
O34 O 0.4452(4) 1.1194(3) 0.1596(3)
O35 O 0.5717(4) 1.2106(3) 0.3678(3)
O36 O 0.3398(4) 1.2100(3) 0.3409(3)
O37 O 0.5852(4) 1.3697(3) 0.2111(3)
O38 O 0.4045(4) 1.3708(3) 0.1906(3)
O39 O 0.4509(4) 1.3526(3) 0.3170(3)
O40 O 0.5017(4) 1.2412(3) 0.2254(3)
Ce1 Ce 0.04304(3) 1.17940(3) -0.28853(2)
O41 O -0.0046(5) 1.1788(5) -0.1549(3)
H1 H 0.0496 1.1585 -0.1391
H2 H -0.0479 1.1465 -0.1388
O42 O 0.0657(7) 1.0294(4) -0.2900(5)
H3 H 0.0384 1.0067 -0.3220
H4 H 0.0601 1.0053 -0.2488
O43 O 0.0010(5) 1.1294(4) -0.4070(4)
H5 H -0.0603 1.1208 -0.4084
H6 H 0.0449 1.0951 -0.4308
O44 O 0.1893(4) 1.1340(4) -0.2274(3)
O45 O 0.8405(5) 1.1466(6) -0.0621(4)
O46 O 0.1897(4) 1.1916(4) -0.3839(3)
O47 O 0.8633(4) 1.1683(4) -0.2539(3)
O48 O -0.0574(4) 1.2935(4) -0.3455(4)
O49 O 0.1474(6) 1.8140(4) -0.5170(5)
O50 O 0.0932(5) 1.3101(4) -0.2515(3)
O51 O -0.1374(5) 1.7582(5) 0.0790(4)
N1 N 0.2736(5) 1.1395(4) -0.1986(3)
N2 N 0.7523(5) 1.1446(6) -0.0858(4)
N3 N 0.2866(5) 1.1895(4) -0.3751(3)
N4 N 0.7794(5) 1.1737(4) -0.2843(4)
N5 N -0.0251(5) 1.3650(4) -0.3667(4)
N6 N 0.1238(6) 1.7434(5) -0.4886(5)
N7 N 0.0535(5) 1.3724(4) -0.2097(4)
N8 N -0.1100(5) 1.6994(5) 0.0328(4)
C1 C 0.3234(6) 1.0707(5) -0.1736(5)
H7 H 0.2947 1.0218 -0.1726
C2 C 0.4134(7) 1.0728(5) -0.1503(5)
H8 H 0.4462 1.0248 -0.1336
C3 C 0.4599(6) 1.1447(5) -0.1501(4)
C4 C 0.4025(6) 1.2138(4) -0.1717(4)
H9 H 0.4274 1.2640 -0.1696
C5 C 0.3125(6) 1.2113(5) -0.1955(4)
H10 H 0.2768 1.2591 -0.2100
C6 C 0.7232(7) 1.0759(7) -0.1077(6)
H11 H 0.7673 1.0280 -0.1090
C7 C 0.6287(6) 1.0749(6) -0.1286(5)
H12 H 0.6090 1.0261 -0.1431
C8 C 0.5618(6) 1.1462(5) -0.1282(4)
C9 C 0.5953(7) 1.2162(6) -0.1078(4)
H13 H 0.5527 1.2648 -0.1077
C10 C 0.6901(8) 1.2171(7) -0.0875(5)
H14 H 0.7121 1.2658 -0.0750
C11 C 0.3337(6) 1.2569(5) -0.3840(4)
H15 H 0.2991 1.3055 -0.3981
C12 C 0.4330(6) 1.2546(5) -0.3724(4)
H16 H 0.4645 1.3022 -0.3775
C13 C 0.4875(6) 1.1830(5) -0.3534(4)
C14 C 0.4374(6) 1.1147(5) -0.3477(4)
H17 H 0.4718 1.0652 -0.3356
C15 C 0.3384(6) 1.1169(5) -0.3593(4)
H18 H 0.3067 1.0694 -0.3563
C16 C 0.7483(6) 1.1061(6) -0.3091(5)
H19 H 0.7900 1.0571 -0.3094
C17 C 0.6558(6) 1.1085(5) -0.3339(4)
H20 H 0.6358 1.0609 -0.3508
C18 C 0.5914(6) 1.1809(5) -0.3342(4)
C19 C 0.6316(6) 1.2494(5) -0.3117(5)
H21 H 0.5935 1.3000 -0.3135
C20 C 0.7211(6) 1.2459(5) -0.2880(5)
H22 H 0.7442 1.2935 -0.2738
C21 C -0.0832(8) 1.4341(6) -0.3434(5)
H23 H -0.1450 1.4316 -0.3140
C22 C -0.0496(7) 1.5095(6) -0.3640(6)
H24 H -0.0882 1.5570 -0.3461
C23 C 0.0390(6) 1.5147(5) -0.4100(4)
C24 C 0.0938(6) 1.4410(5) -0.4337(5)
H25 H 0.1540 1.4417 -0.4655
C25 C 0.0617(6) 1.3686(5) -0.4117(5)
H26 H 0.1006 1.3205 -0.4280
C26 C 0.0440(9) 1.7403(6) -0.4386(7)
H27 H 0.0057 1.7886 -0.4222
C27 C 0.0162(8) 1.6671(6) -0.4101(6)
H28 H -0.0399 1.6663 -0.3744
C28 C 0.0722(6) 1.5939(5) -0.4350(4)
C29 C 0.1559(6) 1.6014(5) -0.4847(5)
H29 H 0.1970 1.5544 -0.5013
C30 C 0.1820(7) 1.6754(6) -0.5111(6)
H30 H 0.2401 1.6782 -0.5446
C31 C -0.0334(6) 1.3710(6) -0.1628(5)
H31 H -0.0690 1.3256 -0.1615
C32 C -0.0695(6) 1.4341(5) -0.1179(5)
H32 H -0.1299 1.4313 -0.0867
C33 C -0.0187(6) 1.5037(5) -0.1167(4)
C34 C 0.0674(7) 1.5035(5) -0.1674(5)
H33 H 0.1035 1.5488 -0.1702
C35 C 0.1018(6) 1.4404(5) -0.2134(5)
H34 H 0.1589 1.4439 -0.2476
C36 C -0.1621(6) 1.6313(6) 0.0375(5)
H35 H -0.2170 1.6281 0.0738
C37 C -0.1337(6) 1.5687(6) -0.0106(5)
H36 H -0.1705 1.5238 -0.0067
C38 C -0.0516(6) 1.5701(5) -0.0652(4)
C39 C 0.0004(7) 1.6397(6) -0.0664(5)
H37 H 0.0571 1.6435 -0.1011
C40 C -0.0298(7) 1.7011(6) -0.0185(5)
H38 H 0.0066 1.7462 -0.0214
Ce1_2 Ce 1.04304(3) 1.17940(3) -0.28853(2)
O47_2 O -0.1367(4) 1.1683(4) -0.2539(3)
N9 N 0.7640(6) 0.9814(5) 0.5097(4)
O52 O 0.8629(5) 0.9730(5) 0.5103(4)
C41 C 0.7087(7) 0.9199(6) 0.5316(5)
H39 H 0.7410 0.8721 0.5490
C42 C 0.6069(7) 0.9259(5) 0.5291(5)
H40 H 0.5714 0.8819 0.5447
C43 C 0.5541(6) 0.9966(5) 0.5034(4)
C44 C 0.6139(7) 1.0603(5) 0.4849(4)
H41 H 0.5828 1.1101 0.4704
C45 C 0.7159(8) 1.0519(6) 0.4875(5)
H42 H 0.7530 1.0955 0.4738
N9A N 0.2360(6) 1.0186(5) 0.4903(4)
O52A O 0.1371(5) 1.0270(5) 0.4897(4)
C41A C 0.2913(7) 1.0801(6) 0.4684(5)
H39A H 0.2590 1.1279 0.4510
C42A C 0.3931(7) 1.0741(5) 0.4709(5)
H40A H 0.4286 1.1181 0.4553
C43A C 0.4459(6) 1.0034(5) 0.4966(4)
C44A C 0.3861(7) 0.9397(5) 0.5151(4)
H41A H 0.4172 0.8899 0.5296
C45A C 0.2841(8) 0.9481(6) 0.5125(5)
H42A H 0.2470 0.9045 0.5262
O53 O 0.6620(6) 1.5503(5) 0.4231(4)
O54 O -0.0077(11) 0.9371(9) -0.3898(8)
O55 O 0.1139(15) 0.9246(12) -0.1821(10)
O56 O 0.100(2) 0.9756(14) -0.0356(16)
O57 O 0.136(2) 0.8232(13) -0.0723(12)
O58 O -0.184(3) 1.901(3) 0.005(3)
O59 O -0.045(4) 1.824(3) -0.263(3)
loop_
_geom_bond_atom_site_label_1
_geom_bond_atom_site_label_2
_geom_bond_site_symmetry_1
_geom_bond_site_symmetry_2
P1 O37 1_555 1_555
Mo1 O1 1_555 1_555
Mo2 O2 1_555 1_555
Mo3 O3 1_555 1_555
Mo4 O4 1_555 1_555
Mo5 O5 1_555 1_555
Mo6 O6 1_555 1_555
Mo7 O7 1_555 1_555
Mo8 O8 1_555 1_555
Mo9 O9 1_555 1_555
Mo10 O10 1_555 1_555
Mo11 O11 1_555 1_555
Mo12 O12 1_555 1_555
O13 Mo2 1_555 1_555
O14 Mo11 1_555 1_555
O15 Mo4 1_555 1_555
O16 Mo4 1_555 1_555
O17 Mo2 1_555 1_555
O18 Mo1 1_555 1_555
O19 Mo3 1_555 1_555
O20 Mo7 1_555 1_555
O21 Mo9 1_555 1_555
O22 Mo3 1_555 1_555
O23 Mo5 1_555 1_555
O24 Mo1 1_555 1_555
O25 Mo2 1_555 1_555
O26 Mo8 1_555 1_555
O27 Mo6 1_555 1_555
O28 Mo10 1_555 1_555
O29 Mo4 1_555 1_555
O30 Mo4 1_555 1_555
O31 Mo3 1_555 1_555
O32 Mo8 1_555 1_555
O33 Mo7 1_555 1_555
O34 Mo1 1_555 1_555
O35 Mo5 1_555 1_555
O36 Mo1 1_555 1_555
O37 Mo8 1_555 1_555
O38 P1 1_555 1_555
O39 P1 1_555 1_555
O40 P1 1_555 1_555
Ce1 O41 1_555 1_555
O41 H1 1_555 1_555
H2 O41 1_555 1_555
O42 Ce1 1_555 1_555
H3 O42 1_555 1_555
H4 O42 1_555 1_555
O43 Ce1 1_555 1_555
H5 O43 1_555 1_555
H6 O43 1_555 1_555
O44 Ce1 1_555 1_555
O45 N2 1_555 1_555
O46 Ce1 1_555 1_555
O47 N4 1_555 1_555
O48 Ce1 1_555 1_555
O49 N6 1_555 1_555
O50 Ce1 1_555 1_555
O51 N8 1_555 1_555
N1 O44 1_555 1_555
N2 C6 1_555 1_555
N3 O46 1_555 1_555
N4 C16 1_555 1_555
N5 O48 1_555 1_555
N6 C26 1_555 1_555
N7 O50 1_555 1_555
N8 C36 1_555 1_555
C1 N1 1_555 1_555
H7 C1 1_555 1_555
C2 C1 1_555 1_555
H8 C2 1_555 1_555
C3 C2 1_555 1_555
C4 C3 1_555 1_555
H9 C4 1_555 1_555
C5 N1 1_555 1_555
H10 C5 1_555 1_555
C6 H11 1_555 1_555
C7 C6 1_555 1_555
H12 C7 1_555 1_555
C8 C3 1_555 1_555
C9 C8 1_555 1_555
H13 C9 1_555 1_555
C10 N2 1_555 1_555
H14 C10 1_555 1_555
C11 N3 1_555 1_555
H15 C11 1_555 1_555
C12 C11 1_555 1_555
H16 C12 1_555 1_555
C13 C12 1_555 1_555
C14 C13 1_555 1_555
H17 C14 1_555 1_555
C15 N3 1_555 1_555
H18 C15 1_555 1_555
C16 H19 1_555 1_555
C17 C16 1_555 1_555
H20 C17 1_555 1_555
C18 C13 1_555 1_555
C19 C18 1_555 1_555
H21 C19 1_555 1_555
C20 N4 1_555 1_555
H22 C20 1_555 1_555
C21 N5 1_555 1_555
H23 C21 1_555 1_555
C22 C21 1_555 1_555
H24 C22 1_555 1_555
C23 C22 1_555 1_555
C24 C23 1_555 1_555
H25 C24 1_555 1_555
C25 N5 1_555 1_555
H26 C25 1_555 1_555
C26 H27 1_555 1_555
C27 C26 1_555 1_555
H28 C27 1_555 1_555
C28 C23 1_555 1_555
C29 C28 1_555 1_555
H29 C29 1_555 1_555
C30 N6 1_555 1_555
H30 C30 1_555 1_555
C31 N7 1_555 1_555
H31 C31 1_555 1_555
C32 C31 1_555 1_555
H32 C32 1_555 1_555
C33 C32 1_555 1_555
C34 C33 1_555 1_555
H33 C34 1_555 1_555
C35 N7 1_555 1_555
H34 C35 1_555 1_555
C36 H35 1_555 1_555
C37 C36 1_555 1_555
H36 C37 1_555 1_555
C38 C33 1_555 1_555
C39 C38 1_555 1_555
H37 C39 1_555 1_555
C40 N8 1_555 1_555
H38 C40 1_555 1_555
N9 O52 1_555 1_555
C41 N9 1_555 1_555
H39 C41 1_555 1_555
C42 C41 1_555 1_555
H40 C42 1_555 1_555
C43 C42 1_555 1_555
C44 C43 1_555 1_555
H41 C44 1_555 1_555
C45 N9 1_555 1_555
H42 C45 1_555 1_555
Ce1_2 O47 1_555 1_555
O47_2 Ce1 1_555 1_555
N9A O52A 1_555 1_555
C41A N9A 1_555 1_555
H39A C41A 1_555 1_555
C42A C41A 1_555 1_555
H40A C42A 1_555 1_555
C43A C43 1_555 1_555
C44A C43A 1_555 1_555
H41A C44A 1_555 1_555
C45A N9A 1_555 1_555
H42A C45A 1_555 1_555
Mo1 O40 1_555 1_555
Mo2 O34 1_555 1_555
Mo2 O40 1_555 1_555
Mo3 O36 1_555 1_555
Mo3 O39 1_555 1_555
Mo4 O38 1_555 1_555
Mo5 O24 1_555 1_555
Mo5 O25 1_555 1_555
Mo5 O40 1_555 1_555
Mo6 O18 1_555 1_555
Mo6 O30 1_555 1_555
Mo6 O31 1_555 1_555
Mo6 O38 1_555 1_555
Mo7 O19 1_555 1_555
Mo7 O35 1_555 1_555
Mo7 O39 1_555 1_555
Mo8 O20 1_555 1_555
Mo8 O23 1_555 1_555
Mo9 O16 1_555 1_555
Mo9 O17 1_555 1_555
Mo9 O27 1_555 1_555
Mo9 O38 1_555 1_555
Mo10 O15 1_555 1_555
Mo10 O22 1_555 1_555
Mo10 O33 1_555 1_555
Mo10 O39 1_555 1_555
Mo11 O13 1_555 1_555
Mo11 O21 1_555 1_555
Mo11 O32 1_555 1_555
Mo11 O37 1_555 1_555
Mo12 O14 1_555 1_555
Mo12 O26 1_555 1_555
Mo12 O28 1_555 1_555
Mo12 O29 1_555 1_555
Mo12 O37 1_555 1_555
C4 C5 1_555 1_555
C7 C8 1_555 1_555
C9 C10 1_555 1_555
C14 C15 1_555 1_555
C17 C18 1_555 1_555
C19 C20 1_555 1_555
C24 C25 1_555 1_555
C27 C28 1_555 1_555
C29 C30 1_555 1_555
C34 C35 1_555 1_555
C37 C38 1_555 1_555
C39 C40 1_555 1_555
C44 C45 1_555 1_555
C42A C43A 1_555 1_555
C44A C45A 1_555 1_555

#END
