
#######################################################################
#
#                 Cambridge Crystallographic Data Centre
#                                CCDC 
#
#######################################################################
#
# If this CIF has been generated from an entry in the Cambridge 
# Structural Database, then it will include bibliographic, chemical, 
# crystal, experimental, refinement or atomic coordinate data resulting 
# from the CCDC's data processing and validation procedures.
#
#######################################################################

data_XORVIL
_symmetry_cell_setting           monoclinic
_symmetry_space_group_name_H-M   'P 21/n'
_symmetry_Int_Tables_number      14
_space_group_name_Hall           '-P 2yn'
loop_
_symmetry_equiv_pos_site_id
_symmetry_equiv_pos_as_xyz
1 x,y,z
2 1/2-x,1/2+y,1/2-z
3 -x,-y,-z
4 1/2+x,1/2-y,1/2+z
_cell_length_a                   7.0184(4)
_cell_length_b                   10.3158(4)
_cell_length_c                   10.6545(5)
_cell_angle_alpha                90
_cell_angle_beta                 107.051(6)
_cell_angle_gamma                90
_cell_volume                     737.483
loop_
_atom_site_label
_atom_site_type_symbol
_atom_site_fract_x
_atom_site_fract_y
_atom_site_fract_z
Cd1 Cd 0.18319(3) 0.640494(18) 0.002513(18)
Cl1 Cl -0.09845(11) 0.58841(6) 0.10801(6)
O1 O 0.4281(3) 0.58086(17) 0.18703(16)
O2 O 0.4892(3) 0.76557(17) 0.30227(18)
O3 O 0.4542(3) 0.64144(17) -0.0875(2)
H1 H 0.558(3) 0.649(3) -0.022(2)
H2 H 0.484(4) 0.577(2) -0.128(3)
N1 N 0.8252(3) 0.5558(2) 0.6006(2)
H3 H 0.8917 0.5749 0.6799
N2 N 0.7238(4) 0.64168(19) 0.5132(2)
C1 C 0.8117(4) 0.4364(3) 0.5506(3)
H4 H 0.8707 0.3621 0.5945
C2 C 0.6949(4) 0.4436(3) 0.4228(3)
H5 H 0.6589 0.3764 0.3623
C3 C 0.6420(4) 0.5742(2) 0.4035(2)
C4 C 0.5108(4) 0.6455(2) 0.2890(3)
Cd1B Cd -0.18319(3) 0.359506(18) -0.002513(18)
Cd1C Cd 0.68319(3) 0.859506(18) 0.502513(18)
Cl1B Cl 0.09845(11) 0.41159(6) -0.10801(6)
O2C O -0.0108(3) 0.73443(17) -0.19773(18)
N2C N 0.2238(4) 0.85832(19) 0.0132(2)
loop_
_geom_bond_atom_site_label_1
_geom_bond_atom_site_label_2
_geom_bond_site_symmetry_1
_geom_bond_site_symmetry_2
Cd1 Cl1 1_555 1_555
Cl1 Cd1B 1_555 1_555
O1 Cd1 1_555 1_555
O2 C4 1_555 1_555
O3 Cd1 1_555 1_555
H1 O3 1_555 1_555
H2 O3 1_555 1_555
N1 H3 1_555 1_555
N2 N1 1_555 1_555
C1 N1 1_555 1_555
H4 C1 1_555 1_555
C2 C1 1_555 1_555
H5 C2 1_555 1_555
C3 N2 1_555 1_555
C4 O1 1_555 1_555
Cd1B Cl1B 1_555 1_555
Cd1C O2 1_555 1_555
Cl1B Cd1 1_555 1_555
O2C Cd1 1_555 1_555
N2C Cd1 1_555 1_555
N2 Cd1C 1_555 1_555
C2 C3 1_555 1_555
C3 C4 1_555 1_555

#END
