
#######################################################################
#
#                 Cambridge Crystallographic Data Centre
#                                CCDC 
#
#######################################################################
#
# If this CIF has been generated from an entry in the Cambridge 
# Structural Database, then it will include bibliographic, chemical, 
# crystal, experimental, refinement or atomic coordinate data resulting 
# from the CCDC's data processing and validation procedures.
#
#######################################################################

data_XORVUW
_symmetry_cell_setting           triclinic
_symmetry_space_group_name_H-M   'P -1'
_symmetry_Int_Tables_number      2
_space_group_name_Hall           '-P 1'
loop_
_symmetry_equiv_pos_site_id
_symmetry_equiv_pos_as_xyz
1 x,y,z
2 -x,-y,-z
_cell_length_a                   7.8666(7)
_cell_length_b                   9.7700(9)
_cell_length_c                   11.3475(10)
_cell_angle_alpha                80.404(2)
_cell_angle_beta                 76.818(2)
_cell_angle_gamma                83.097(2)
_cell_volume                     834.197
loop_
_atom_site_label
_atom_site_type_symbol
_atom_site_fract_x
_atom_site_fract_y
_atom_site_fract_z
Nd1 Nd 0.714673(12) 0.732783(9) 0.048577(8)
C1 C 0.6821(2) 0.98867(19) -0.32009(17)
S1 S 0.68364(6) 1.05171(5) -0.18171(4)
O1 O 0.7697(2) 0.94147(15) -0.10631(14)
O2 O 0.7847(2) 1.17354(15) -0.21609(14)
O3 O 0.49960(19) 1.08676(15) -0.12641(14)
C2 C 0.5930(2) 0.87411(19) -0.32829(17)
S2 S 0.44939(6) 0.77869(5) -0.20531(4)
O4 O 0.5339(2) 0.75159(18) -0.10040(15)
O5 O 0.4302(2) 0.65121(16) -0.24913(15)
O6 O 0.2834(2) 0.86449(16) -0.18019(15)
C3 C 0.6076(3) 0.8338(2) -0.44286(18)
C4 C 0.7040(3) 0.9069(2) -0.54809(19)
C5 C 0.7889(3) 1.0197(2) -0.53991(19)
C6 C 0.7786(3) 1.0606(2) -0.42616(18)
O7 O 0.4452(2) 0.60104(17) 0.15032(15)
O8 O 0.7479(2) 0.50612(17) -0.02242(16)
O9 O 1.0078(2) 0.69430(17) -0.08618(15)
O10 O 0.8947(2) 0.87693(18) 0.12126(17)
C7 C 0.7933(3) 0.5748(2) 0.27690(18)
O11 O 0.8933(2) 0.55364(16) 0.17565(14)
O12 O 0.6690(2) 0.66505(17) 0.28962(15)
C8 C 0.8344(3) 0.4794(2) 0.39252(19)
F1 F 0.8813(2) 0.34679(15) 0.36882(16)
F2 F 0.6910(2) 0.4776(2) 0.48425(14)
C9 C 0.9890(3) 0.5294(2) 0.43428(18)
F3 F 1.13721(19) 0.49380(19) 0.35427(13)
F4 F 0.9686(2) 0.66953(14) 0.42463(14)
H1 H 0.561(4) 0.757(3) -0.448(3)
H2 H 0.700(5) 0.891(4) -0.620(4)
H3 H 0.854(5) 1.074(4) -0.613(3)
H4 H 0.835(4) 1.146(3) -0.421(3)
H5 H 0.477(7) 0.532(6) 0.190(5)
H6 H 0.368(6) 0.649(5) 0.198(4)
H7 H 0.825(9) 0.444(7) -0.022(6)
H8 H 0.711(6) 0.479(5) -0.072(4)
H9 H 1.023(5) 0.631(4) -0.136(4)
H10 H 1.072(6) 0.745(5) -0.114(4)
H11 H 0.858(6) 0.960(2) 0.123(5)
H12 H 0.981(6) 0.865(5) 0.144(4)
Nd1A Nd 0.285327(12) 1.267217(9) -0.048577(8)
Nd1A_2 Nd 1.285327(12) 0.267217(9) 0.951423(8)
C1A C 0.3179(2) 1.01133(19) 0.32009(17)
S1A S 0.31636(6) 0.94829(5) 0.18171(4)
O1A O 0.2303(2) 1.05853(15) 0.10631(14)
O2A O 0.2153(2) 0.82646(15) 0.21609(14)
O3A O 0.50040(19) 0.91324(15) 0.12641(14)
C2A C 0.4070(2) 1.12589(19) 0.32829(17)
S2A S 0.55061(6) 1.22131(5) 0.20531(4)
O4A O 0.4661(2) 1.24841(18) 0.10040(15)
O5A O 0.5698(2) 1.34879(16) 0.24913(15)
O6A O 0.7166(2) 1.13551(16) 0.18019(15)
C3A C 0.3924(3) 1.1662(2) 0.44286(18)
C4A C 0.2960(3) 1.0931(2) 0.54809(19)
C5A C 0.2111(3) 0.9803(2) 0.53991(19)
C6A C 0.2214(3) 0.9394(2) 0.42616(18)
O7A O 0.5548(2) 1.39896(17) -0.15032(15)
O8A O 0.2521(2) 1.49388(17) 0.02242(16)
O9A O -0.0078(2) 1.30570(17) 0.08618(15)
O10A O 0.1053(2) 1.12307(18) -0.12126(17)
C7A C 1.2067(3) 0.4252(2) 0.72310(18)
O11A O 1.1067(2) 0.44636(16) 0.82435(14)
O11A_2 O 0.1067(2) 1.44636(16) -0.17565(14)
O12A O 1.3310(2) 0.33495(17) 0.71038(15)
O12A_2 O 0.3310(2) 1.33495(17) -0.28962(15)
C8A C 1.1656(3) 0.5206(2) 0.60748(19)
F1A F 1.1187(2) 0.65321(15) 0.63118(16)
F2A F 1.3090(2) 0.5224(2) 0.51575(14)
C9A C 1.0110(3) 0.4706(2) 0.56572(18)
F3A F 0.86279(19) 0.50620(19) 0.64573(13)
F4A F 1.0314(2) 0.33047(14) 0.57537(14)
H1A H 0.439(4) 1.243(3) 0.448(3)
H2A H 0.300(5) 1.109(4) 0.620(4)
H3A H 0.146(5) 0.926(4) 0.613(3)
H4A H 0.165(4) 0.854(3) 0.421(3)
H5A H 0.523(7) 1.468(6) -0.190(5)
H6A H 0.632(6) 1.351(5) -0.198(4)
H7A H 0.175(9) 1.556(7) 0.022(6)
H8A H 0.289(6) 1.521(5) 0.072(4)
H9A H -0.023(5) 1.369(4) 0.136(4)
H10A H -0.072(6) 1.255(5) 0.114(4)
H11A H 0.142(6) 1.040(2) -0.123(5)
H12A H 0.019(6) 1.135(5) -0.144(4)
loop_
_geom_bond_atom_site_label_1
_geom_bond_atom_site_label_2
_geom_bond_site_symmetry_1
_geom_bond_site_symmetry_2
Nd1 O1 1_555 1_555
C1 S1 1_555 1_555
S1 O1 1_555 1_555
O2 S1 1_555 1_555
O3 S1 1_555 1_555
C2 C1 1_555 1_555
S2 C2 1_555 1_555
O4 Nd1 1_555 1_555
O5 S2 1_555 1_555
O6 S2 1_555 1_555
C3 C2 1_555 1_555
C4 C3 1_555 1_555
C5 C4 1_555 1_555
C6 C1 1_555 1_555
O7 Nd1 1_555 1_555
O8 Nd1 1_555 1_555
O9 Nd1 1_555 1_555
O10 Nd1 1_555 1_555
C7 O11 1_555 1_555
O11 Nd1 1_555 1_555
O12 Nd1 1_555 1_555
C8 C7 1_555 1_555
F1 C8 1_555 1_555
F2 C8 1_555 1_555
C9 C8 1_555 1_555
F3 C9 1_555 1_555
F4 C9 1_555 1_555
H1 C3 1_555 1_555
H2 C4 1_555 1_555
H3 C5 1_555 1_555
H4 C6 1_555 1_555
H5 O7 1_555 1_555
H6 O7 1_555 1_555
H7 O8 1_555 1_555
H8 O8 1_555 1_555
H9 O9 1_555 1_555
H10 O9 1_555 1_555
H11 O10 1_555 1_555
H12 O10 1_555 1_555
Nd1A O3 1_555 1_555
Nd1A_2 O11A 1_555 1_555
C1A S1A 1_555 1_555
S1A O1A 1_555 1_555
O1A Nd1A 1_555 1_555
O2A S1A 1_555 1_555
O3A Nd1 1_555 1_555
C2A C1A 1_555 1_555
S2A C2A 1_555 1_555
O4A Nd1A 1_555 1_555
O5A S2A 1_555 1_555
O6A S2A 1_555 1_555
C3A C2A 1_555 1_555
C4A C3A 1_555 1_555
C5A C4A 1_555 1_555
C6A C1A 1_555 1_555
O7A Nd1A 1_555 1_555
O8A Nd1A 1_555 1_555
O9A Nd1A 1_555 1_555
O10A Nd1A 1_555 1_555
C7A O11A 1_555 1_555
O11A_2 Nd1A 1_555 1_555
O12A Nd1A_2 1_555 1_555
O12A_2 Nd1A 1_555 1_555
C8A C7A 1_555 1_555
F1A C8A 1_555 1_555
F2A C8A 1_555 1_555
C9A C9 1_555 1_555
F3A C9A 1_555 1_555
F4A C9A 1_555 1_555
H1A C3A 1_555 1_555
H2A C4A 1_555 1_555
H3A C5A 1_555 1_555
H4A C6A 1_555 1_555
H5A O7A 1_555 1_555
H6A O7A 1_555 1_555
H7A O8A 1_555 1_555
H8A O8A 1_555 1_555
H9A O9A 1_555 1_555
H10A O9A 1_555 1_555
H11A O10A 1_555 1_555
H12A O10A 1_555 1_555
S2 O4 1_555 1_555
C5 C6 1_555 1_555
C7 O12 1_555 1_555
S1A O3A 1_555 1_555
S2A O4A 1_555 1_555
C5A C6A 1_555 1_555
C7A O12A 1_555 1_555
C8A C9A 1_555 1_555

#END
