
#######################################################################
#
#                 Cambridge Crystallographic Data Centre
#                                CCDC 
#
#######################################################################
#
# If this CIF has been generated from an entry in the Cambridge 
# Structural Database, then it will include bibliographic, chemical, 
# crystal, experimental, refinement or atomic coordinate data resulting 
# from the CCDC's data processing and validation procedures.
#
#######################################################################

data_XORWUY
_symmetry_cell_setting           triclinic
_symmetry_space_group_name_H-M   'P -1'
_symmetry_Int_Tables_number      2
_space_group_name_Hall           '-P 1'
loop_
_symmetry_equiv_pos_site_id
_symmetry_equiv_pos_as_xyz
1 x,y,z
2 -x,-y,-z
_cell_length_a                   8.8663(2)
_cell_length_b                   12.6367(2)
_cell_length_c                   13.1137(3)
_cell_angle_alpha                99.4518(9)
_cell_angle_beta                 97.4863(9)
_cell_angle_gamma                101.9240(9)
_cell_volume                     1397.37
loop_
_atom_site_label
_atom_site_type_symbol
_atom_site_fract_x
_atom_site_fract_y
_atom_site_fract_z
Mo1 Mo 0.908937(7) 0.857389(5) 0.614990(5)
Mo2 Mo 0.666521(7) 0.824732(5) 0.471965(5)
K1 K 0.36282(2) 0.393439(15) 0.326026(15)
K2 K 0.80186(2) 0.554680(14) 0.420699(15)
K3 K 0.837400(19) 1.156293(13) 0.588763(14)
K4 K 1.44017(2) 0.911130(14) 0.672936(14)
O1 O 0.98499(8) 0.99415(5) 0.62396(6)
O2 O 0.65898(7) 0.95715(5) 0.46354(5)
O3 O 0.69158(7) 0.82788(5) 0.62466(5)
O4 O 0.86664(7) 0.79414(5) 0.46284(5)
O5 O 0.91690(7) 0.68312(5) 0.62407(5)
O6 O 1.12598(7) 0.80787(5) 0.61918(5)
O7 O 1.15152(8) 0.64138(6) 0.64931(6)
O8 O 0.95545(8) 0.86899(6) 0.77546(5)
O9 O 0.42046(7) 0.76484(5) 0.46829(5)
O10 O 0.56621(7) 0.64502(5) 0.46840(5)
O11 O 0.30512(8) 0.58340(5) 0.44485(6)
O12 O 0.60725(7) 0.76625(5) 0.31249(5)
O13 O 0.56433(10) 0.27890(7) 0.23790(8)
H1 H 0.650(2) 0.3028(17) 0.2691(17)
O14 O 0.94003(9) 1.37767(6) 0.67284(7)
H2 H 0.873(2) 1.3894(17) 0.6383(16)
O15 O 0.54557(12) 0.54825(6) 0.24454(7)
H3 H 0.553(2) 0.6128(17) 0.2673(16)
O16 O 0.16284(12) 0.30607(9) 0.14080(7)
H4 H 0.130(3) 0.257(2) 0.1668(19)
O17 O 1.62699(9) 1.13149(6) 0.73923(6)
H5 H 1.555(2) 1.1605(16) 0.7187(15)
O18 O 1.27684(9) 0.95269(7) 0.82977(6)
H6 H 1.190(2) 0.9224(18) 0.8085(16)
C1 C 1.06829(9) 0.70684(6) 0.63181(6)
C2 C 0.89205(13) 0.94674(11) 0.83596(9)
H7 H 0.9210 0.9463 0.9106
H8 H 0.7778 0.9273 0.8165
H9 H 0.9333 1.0205 0.8227
C3 C 0.42511(9) 0.66037(6) 0.46000(6)
C4 C 0.72097(11) 0.79594(8) 0.24835(7)
H10 H 0.6714 0.7753 0.1744
H11 H 0.8048 0.7572 0.2600
H12 H 0.7649 0.8758 0.2666
C5 C 0.5757(2) 0.26811(14) 0.13027(12)
H13 H 0.6374 0.3373 0.1180
H14 H 0.4707 0.2515 0.0884
H15 H 0.6270 0.2081 0.1098
C6 C 0.9643(2) 1.44872(12) 0.77254(11)
H16 H 0.9954 1.5355 0.7700
H17 H 1.0497 1.4283 0.8280
H18 H 0.8595 1.4393 0.8073
C7 C 0.5008(2) 0.53466(10) 0.13454(10)
H19 H 0.6062 0.5466 0.1004
H20 H 0.4281 0.4546 0.0967
H21 H 0.4296 0.5905 0.1141
C8 C 0.0686(2) 0.30129(15) 0.04521(12)
H22 H 0.0669 0.2330 -0.0032
H23 H 0.1109 0.3648 0.0151
H24 H -0.0380 0.3027 0.0568
C9 C 1.69355(18) 1.18493(12) 0.84333(10)
H25 H 1.6104 1.1880 0.8854
H26 H 1.7515 1.2600 0.8439
H27 H 1.7650 1.1439 0.8731
C10 C 1.29257(16) 1.01346(12) 0.93209(9)
H28 H 1.2510 0.9642 0.9774
H29 H 1.2343 1.0713 0.9308
H30 H 1.4034 1.0472 0.9594
K1A K 0.63718(2) 0.606561(15) 0.673974(15)
K2A K 0.19814(2) 0.445320(14) 0.579301(15)
K2A_2 K 1.19814(2) 0.445320(14) 0.579301(15)
K2A_3 K 1.19814(2) 1.445320(14) 0.579301(15)
K3_2 K 1.837400(19) 1.156293(13) 0.588763(14)
K3A K 0.162600(19) 0.843707(13) 0.411237(14)
K3A_2 K 1.162600(19) 0.843707(13) 0.411237(14)
K4_2 K 0.44017(2) 0.911130(14) 0.672936(14)
K4A K 0.55983(2) 0.088870(14) 0.327064(14)
K4A_2 K 0.55983(2) 1.088870(14) 0.327064(14)
O2A O 1.34102(7) 1.04285(5) 0.53646(5)
O3_2 O 1.69158(7) 0.82788(5) 0.62466(5)
O3A O 0.30842(7) 0.17212(5) 0.37534(5)
O4A O 1.13336(7) 1.20586(5) 0.53716(5)
O5A O 0.08310(7) 0.31688(5) 0.37593(5)
O6A O 0.87402(7) 1.19213(5) 0.38082(5)
O7A O 0.84848(8) 0.35862(6) 0.35069(6)
O9_2 O 1.42046(7) 0.76484(5) 0.46829(5)
O9A O 0.57954(7) 1.23516(5) 0.53171(5)
O10A O 0.43379(7) 0.35498(5) 0.53160(5)
O11A O 0.69488(8) 0.41660(5) 0.55515(6)
O13A O 1.43567(10) 0.72110(7) 0.76210(8)
O14A O 1.05997(9) 0.62233(6) 0.32716(7)
O17_2 O 0.62699(9) 1.13149(6) 0.73923(6)
loop_
_geom_bond_atom_site_label_1
_geom_bond_atom_site_label_2
_geom_bond_site_symmetry_1
_geom_bond_site_symmetry_2
Mo1 Mo2 1_555 1_555
Mo2 O2 1_555 1_555
K1 O11 1_555 1_555
K2 O4 1_555 1_555
K3 O1 1_555 1_555
K4 O6 1_555 1_555
O1 Mo1 1_555 1_555
O2 K3 1_555 1_555
O3 Mo1 1_555 1_555
O4 Mo1 1_555 1_555
O5 Mo1 1_555 1_555
O6 Mo1 1_555 1_555
O7 C1 1_555 1_555
O8 Mo1 1_555 1_555
O9 Mo2 1_555 1_555
O10 Mo2 1_555 1_555
O11 C3 1_555 1_555
O12 Mo2 1_555 1_555
O13 K1 1_555 1_555
H1 O13 1_555 1_555
O14 K3 1_555 1_555
H2 O14 1_555 1_555
O15 K1 1_555 1_555
H3 O15 1_555 1_555
O16 K1 1_555 1_555
H4 O16 1_555 1_555
O17 K4 1_555 1_555
H5 O17 1_555 1_555
O18 K4 1_555 1_555
H6 O18 1_555 1_555
C1 O5 1_555 1_555
C2 O8 1_555 1_555
H7 C2 1_555 1_555
H8 C2 1_555 1_555
H9 C2 1_555 1_555
C3 O9 1_555 1_555
C4 O12 1_555 1_555
H10 C4 1_555 1_555
H11 C4 1_555 1_555
H12 C4 1_555 1_555
C5 O13 1_555 1_555
H13 C5 1_555 1_555
H14 C5 1_555 1_555
H15 C5 1_555 1_555
C6 O14 1_555 1_555
H16 C6 1_555 1_555
H17 C6 1_555 1_555
H18 C6 1_555 1_555
C7 O15 1_555 1_555
H19 C7 1_555 1_555
H20 C7 1_555 1_555
H21 C7 1_555 1_555
C8 O16 1_555 1_555
H22 C8 1_555 1_555
H23 C8 1_555 1_555
H24 C8 1_555 1_555
C9 O17 1_555 1_555
H25 C9 1_555 1_555
H26 C9 1_555 1_555
H27 C9 1_555 1_555
C10 O18 1_555 1_555
H28 C10 1_555 1_555
H29 C10 1_555 1_555
H30 C10 1_555 1_555
K1A O3 1_555 1_555
K2A O11 1_555 1_555
K2A_2 O7 1_555 1_555
K2A_3 O14 1_555 1_555
K3_2 O17 1_555 1_555
K3A O9 1_555 1_555
K3A_2 O4 1_555 1_555
K4_2 O3 1_555 1_555
K4A O13 1_555 1_555
K4A_2 O2 1_555 1_555
O2A K4 1_555 1_555
O3_2 K4 1_555 1_555
O3A K1 1_555 1_555
O4A K3 1_555 1_555
O5A K1 1_555 1_555
O6A K3 1_555 1_555
O7A K2 1_555 1_555
O9_2 K4 1_555 1_555
O9A K3 1_555 1_555
O10A K1 1_555 1_555
O11A K2 1_555 1_555
O13A K4 1_555 1_555
O14A K2 1_555 1_555
O17_2 K3 1_555 1_555
Mo2 O3 1_555 1_555
Mo2 O4 1_555 1_555
K2 O5 1_555 1_555
K2 O10 1_555 1_555
K2 O15 1_555 1_555
O5 K1A 1_555 1_555
O6 C1 1_555 1_555
O6 K3A_2 1_555 1_555
O9 K4_2 1_555 1_555
O10 C3 1_555 1_555
O10 K1A 1_555 1_555
K1A O11A 1_555 1_555
K2A O5A 1_555 1_555
K2A O10A 1_555 1_555
K2A_3 O4A 1_555 1_555
K3A_2 O2A 1_555 1_555
K3A_2 O9_2 1_555 1_555
K3A_2 O14A 1_555 1_555
K4_2 O17_2 1_555 1_555
K4A O3A 1_555 1_555
K4A_2 O6A 1_555 1_555
K4A_2 O9A 1_555 1_555

#END
