
#######################################################################
#
#                 Cambridge Crystallographic Data Centre
#                                CCDC 
#
#######################################################################
#
# If this CIF has been generated from an entry in the Cambridge 
# Structural Database, then it will include bibliographic, chemical, 
# crystal, experimental, refinement or atomic coordinate data resulting 
# from the CCDC's data processing and validation procedures.
#
#######################################################################

data_XORWOQ
_symmetry_cell_setting           orthorhombic
_symmetry_space_group_name_H-M   'P b c a'
_symmetry_Int_Tables_number      61
_space_group_name_Hall           '-P 2ac 2ab'
loop_
_symmetry_equiv_pos_site_id
_symmetry_equiv_pos_as_xyz
1 x,y,z
2 1/2+x,y,1/2-z
3 x,1/2-y,1/2+z
4 1/2-x,1/2+y,z
5 -x,-y,-z
6 1/2-x,-y,1/2+z
7 -x,1/2+y,1/2-z
8 1/2+x,1/2-y,-z
_cell_length_a                   15.3800(12)
_cell_length_b                   7.0779(5)
_cell_length_c                   30.148(2)
_cell_angle_alpha                90
_cell_angle_beta                 90
_cell_angle_gamma                90
_cell_volume                     3281.85
loop_
_atom_site_label
_atom_site_type_symbol
_atom_site_fract_x
_atom_site_fract_y
_atom_site_fract_z
Mn1 Mn 0.94408(3) 0.87466(6) 0.127265(14)
S1 S 0.97740(5) 1.23218(12) 0.11055(3)
S2 S 0.88337(4) 1.41039(10) 0.12560(2)
O1 O 0.83438(12) 1.4596(3) 0.08556(6)
O2 O 0.82477(12) 1.3244(3) 0.15822(6)
O3 O 0.92418(14) 1.5809(3) 0.14461(7)
O4 O 0.83555(15) 0.8424(4) 0.08005(8)
O5 O 0.84105(15) 0.9556(4) 0.17335(7)
N1 N 1.06030(14) 0.8210(3) 0.08116(8)
N2 N 1.06404(14) 0.8798(3) 0.17163(8)
C1 C 1.05962(18) 0.7831(4) 0.03790(10)
C2 C 1.1366(2) 0.7753(5) 0.01309(11)
H1 H 1.1344 0.7485 -0.0171
C3 C 1.2137(2) 0.8068(5) 0.03300(12)
H2 H 1.2646 0.8052 0.0164
C4 C 1.21711(19) 0.8417(4) 0.07835(11)
C5 C 1.2973(2) 0.8687(5) 0.10122(12)
H3 H 1.3492 0.8665 0.0854
C6 C 1.29921(19) 0.8967(5) 0.14453(13)
H4 H 1.3524 0.9131 0.1587
C7 C 1.2211(2) 0.9022(4) 0.16988(11)
C8 C 1.2199(2) 0.9296(5) 0.21559(12)
H5 H 1.2720 0.9481 0.2307
C9 C 1.1446(2) 0.9298(5) 0.23823(11)
H6 H 1.1445 0.9480 0.2688
C10 C 1.0661(2) 0.9022(4) 0.21528(10)
C11 C 1.14000(17) 0.8791(4) 0.14866(10)
C12 C 1.13829(17) 0.8475(4) 0.10160(10)
C13 C 0.9826(2) 0.8991(5) 0.24091(10)
H7 H 0.9462 0.7990 0.2300
H8 H 0.9532 1.0178 0.2373
H9 H 0.9948 0.8786 0.2718
C14 C 0.9749(2) 0.7468(5) 0.01531(10)
H10 H 0.9368 0.8523 0.0199
H11 H 0.9489 0.6347 0.0274
H12 H 0.9846 0.7299 -0.0159
H13 H 0.825(2) 0.713(5) 0.0796(12)
H14 H 0.789(2) 0.884(5) 0.0827(11)
H15 H 0.834(2) 1.074(5) 0.1701(12)
H16 H 0.793(2) 0.910(4) 0.1696(10)
O3_2 O 0.92418(14) 0.5809(3) 0.14461(7)
Mn1_2 Mn 0.94408(3) 1.87466(6) 0.127265(14)
loop_
_geom_bond_atom_site_label_1
_geom_bond_atom_site_label_2
_geom_bond_site_symmetry_1
_geom_bond_site_symmetry_2
Mn1 S1 1_555 1_555
S1 S2 1_555 1_555
S2 O1 1_555 1_555
O2 S2 1_555 1_555
O3 S2 1_555 1_555
O4 Mn1 1_555 1_555
O5 Mn1 1_555 1_555
N1 Mn1 1_555 1_555
N2 Mn1 1_555 1_555
C1 N1 1_555 1_555
C2 C1 1_555 1_555
H1 C2 1_555 1_555
C3 C2 1_555 1_555
H2 C3 1_555 1_555
C4 C3 1_555 1_555
C5 C4 1_555 1_555
H3 C5 1_555 1_555
C6 C5 1_555 1_555
H4 C6 1_555 1_555
C7 C6 1_555 1_555
C8 C7 1_555 1_555
H5 C8 1_555 1_555
C9 C8 1_555 1_555
H6 C9 1_555 1_555
C10 N2 1_555 1_555
C11 N2 1_555 1_555
C12 N1 1_555 1_555
C13 C10 1_555 1_555
H7 C13 1_555 1_555
H8 C13 1_555 1_555
H9 C13 1_555 1_555
C14 C1 1_555 1_555
H10 C14 1_555 1_555
H11 C14 1_555 1_555
H12 C14 1_555 1_555
H13 O4 1_555 1_555
H14 O4 1_555 1_555
H15 O5 1_555 1_555
H16 O5 1_555 1_555
O3_2 Mn1 1_555 1_555
Mn1_2 O3 1_555 1_555
C4 C12 1_555 1_555
C7 C11 1_555 1_555
C9 C10 1_555 1_555
C11 C12 1_555 1_555

#END
