
#######################################################################
#
#                 Cambridge Crystallographic Data Centre
#                                CCDC 
#
#######################################################################
#
# If this CIF has been generated from an entry in the Cambridge 
# Structural Database, then it will include bibliographic, chemical, 
# crystal, experimental, refinement or atomic coordinate data resulting 
# from the CCDC's data processing and validation procedures.
#
#######################################################################

data_XORWAD
_symmetry_cell_setting           triclinic
_symmetry_space_group_name_H-M   'P -1'
_symmetry_Int_Tables_number      2
_space_group_name_Hall           '-P 1'
loop_
_symmetry_equiv_pos_site_id
_symmetry_equiv_pos_as_xyz
1 x,y,z
2 -x,-y,-z
_cell_length_a                   9.7883(5)
_cell_length_b                   10.4743(5)
_cell_length_c                   10.6252(5)
_cell_angle_alpha                85.2850(10)
_cell_angle_beta                 88.8400(10)
_cell_angle_gamma                70.1470(10)
_cell_volume                     1021.11
loop_
_atom_site_label
_atom_site_type_symbol
_atom_site_fract_x
_atom_site_fract_y
_atom_site_fract_z
La1 La 0.393507(5) 0.275089(5) 0.471042(5)
C1 C 0.39247(11) 0.53140(10) 0.66991(9)
O1 O 0.45336(9) 0.41476(8) 0.63397(8)
O2 O 0.42490(10) 0.63557(8) 0.64636(8)
C2 C 0.25373(12) 0.55237(11) 0.75177(11)
F1 F 0.24087(12) 0.43238(9) 0.79178(10)
F2 F 0.13522(9) 0.62163(12) 0.67910(9)
C3 C 0.25242(11) 0.63193(11) 0.86881(10)
F3 F 0.38320(9) 0.57804(13) 0.92477(9)
F4 F 0.23051(12) 0.76288(9) 0.82886(9)
C4 C 0.13374(11) 0.62982(11) 0.96759(10)
F5 F 0.16583(11) 0.50168(8) 1.02136(8)
F6 F 0.00530(8) 0.66425(9) 0.90647(8)
C5 C 0.11451(12) 0.72521(11) 1.07530(10)
F7 F 0.24616(8) 0.69254(9) 1.13365(8)
F8 F 0.07735(10) 0.85449(8) 1.02487(8)
C6 C -0.00206(11) 0.71054(12) 1.17318(10)
O3 O -0.12770(10) 0.78939(10) 1.15197(9)
O4 O 0.04422(10) 0.62034(10) 1.26211(8)
O5 O 0.31860(10) 0.07327(9) 0.44815(9)
O6 O 0.36168(9) -0.14822(9) 0.42748(9)
C7 C 0.28692(10) -0.02509(10) 0.41734(9)
C8 C 0.13435(11) 0.00801(11) 0.35569(10)
F9 F 0.07687(9) 0.14154(8) 0.31911(8)
F10 F 0.15006(9) -0.06060(10) 0.25030(7)
C9 C 0.01954(11) -0.03317(11) 0.43695(10)
F11 F -0.10410(8) 0.00204(10) 0.36729(8)
F12 F 0.06913(9) -0.16937(8) 0.46042(8)
O7 O 0.36432(9) 0.16103(8) 0.69347(8)
O8 O 0.54725(10) 0.12380(9) 0.30520(9)
O9 O 0.12345(10) 0.35475(10) 0.52608(9)
O10 O 0.28132(10) 0.53565(9) 0.41949(9)
O11 O 0.25532(11) 0.32969(10) 0.26266(9)
H1 H 0.434(3) 0.157(3) 0.754(3)
H2 H 0.289(3) 0.180(2) 0.733(2)
H3 H 0.618(3) 0.149(3) 0.274(2)
H4 H 0.581(3) 0.038(3) 0.310(2)
H5 H 0.077(3) 0.359(3) 0.595(3)
H6 H 0.073(3) 0.344(3) 0.474(3)
H7 H 0.348(3) 0.569(3) 0.401(3)
H8 H 0.218(3) 0.574(3) 0.366(3)
H9 H 0.197(3) 0.403(3) 0.239(2)
H10 H 0.266(3) 0.281(3) 0.204(3)
La1A La 0.606493(5) 0.724911(5) 0.528958(5)
La1A_2 La 0.606493(5) -0.275089(5) 0.528958(5)
La1A_3 La -0.393507(5) -0.275089(5) 0.528958(5)
La1_2 La -0.606493(5) 0.275089(5) 0.471042(5)
C1A C 0.60753(11) 0.46860(10) 0.33009(9)
O1A O 0.54664(9) 0.58524(8) 0.36603(8)
O2A O 0.57510(10) 0.36443(8) 0.35364(8)
C2A C 0.74627(12) 0.44763(11) 0.24823(11)
F1A F 0.75913(12) 0.56762(9) 0.20822(10)
F2A F 0.86478(9) 0.37837(12) 0.32090(9)
C3A C 0.74758(11) 0.36807(11) 0.13119(10)
F3A F 0.61680(9) 0.42196(13) 0.07523(9)
F4A F 0.76949(12) 0.23712(9) 0.17114(9)
C4A C 0.86626(11) 0.37018(11) 0.03241(10)
F5A F 0.83417(11) 0.49832(8) -0.02136(8)
F6A F 0.99470(8) 0.33575(9) 0.09353(8)
C5A C 0.88549(12) 0.27479(11) -0.07530(10)
F7A F 0.75384(8) 0.30746(9) -0.13365(8)
F8A F 0.92265(10) 0.14551(8) -0.02487(8)
C6A C 1.00206(11) 0.28946(12) -0.17318(10)
O3A O 1.12770(10) 0.21061(10) -0.15197(9)
O4A O 0.95578(10) 0.37966(10) -0.26211(8)
O5A O -0.31860(10) -0.07327(9) 0.55185(9)
O5A_2 O 0.68140(10) 0.92673(9) 0.55185(9)
O6A O -0.36168(9) 0.14822(9) 0.57252(9)
O6A_2 O 0.63832(9) 0.14822(9) 0.57252(9)
O6_2 O 0.36168(9) 0.85178(9) 0.42748(9)
C7A C -0.28692(10) 0.02509(10) 0.58266(9)
C8A C -0.13435(11) -0.00801(11) 0.64431(10)
F9A F -0.07687(9) -0.14154(8) 0.68089(8)
F10A F -0.15006(9) 0.06060(10) 0.74970(7)
C9A C -0.01954(11) 0.03317(11) 0.56305(10)
F11A F 0.10410(8) -0.00204(10) 0.63271(8)
F12A F -0.06913(9) 0.16937(8) 0.53958(8)
O7A O 0.63568(9) 0.83897(8) 0.30653(8)
O8A O 0.45275(10) 0.87620(9) 0.69480(9)
O9A O 0.87655(10) 0.64525(10) 0.47392(9)
O10A O 0.71868(10) 0.46435(9) 0.58051(9)
O11A O 0.74468(11) 0.67031(10) 0.73734(9)
H1A H 0.566(3) 0.843(3) 0.246(3)
H2A H 0.711(3) 0.820(2) 0.267(2)
H3A H 0.382(3) 0.851(3) 0.726(2)
H4A H 0.419(3) 0.962(3) 0.690(2)
H5A H 0.923(3) 0.641(3) 0.405(3)
H6A H 0.927(3) 0.656(3) 0.526(3)
H7A H 0.652(3) 0.431(3) 0.599(3)
H8A H 0.782(3) 0.426(3) 0.634(3)
H9A H 0.803(3) 0.597(3) 0.761(2)
H10A H 0.734(3) 0.719(3) 0.796(3)
O12 O 0.31544(12) 0.15210(12) 0.06409(10)
H11 H 0.382(3) 0.170(3) 0.020(3)
H12 H 0.252(3) 0.174(3) 0.008(3)
O13 O 0.55294(12) 0.13225(13) 0.89297(11)
H13 H 0.608(4) 0.178(4) 0.888(3)
H14 H 0.601(4) 0.043(4) 0.902(3)
loop_
_geom_bond_atom_site_label_1
_geom_bond_atom_site_label_2
_geom_bond_site_symmetry_1
_geom_bond_site_symmetry_2
La1 O1 1_555 1_555
C1 O1 1_555 1_555
O2 C1 1_555 1_555
C2 C1 1_555 1_555
F1 C2 1_555 1_555
F2 C2 1_555 1_555
C3 C2 1_555 1_555
F3 C3 1_555 1_555
F4 C3 1_555 1_555
C4 C3 1_555 1_555
F5 C4 1_555 1_555
F6 C4 1_555 1_555
C5 C4 1_555 1_555
F7 C5 1_555 1_555
F8 C5 1_555 1_555
C6 C5 1_555 1_555
O3 C6 1_555 1_555
O4 C6 1_555 1_555
O5 La1 1_555 1_555
O6 C7 1_555 1_555
C7 O5 1_555 1_555
C8 C7 1_555 1_555
F9 C8 1_555 1_555
F10 C8 1_555 1_555
C9 C8 1_555 1_555
F11 C9 1_555 1_555
F12 C9 1_555 1_555
O7 La1 1_555 1_555
O8 La1 1_555 1_555
O9 La1 1_555 1_555
O10 La1 1_555 1_555
O11 La1 1_555 1_555
O12 H11 1_555 1_555
O13 H13 1_555 1_555
H1 O7 1_555 1_555
H2 O7 1_555 1_555
H3 O8 1_555 1_555
H4 O8 1_555 1_555
H5 O9 1_555 1_555
H6 O9 1_555 1_555
H7 O10 1_555 1_555
H8 O10 1_555 1_555
H9 O11 1_555 1_555
H10 O11 1_555 1_555
H12 O12 1_555 1_555
H14 O13 1_555 1_555
La1A O2 1_555 1_555
La1A_2 O6 1_555 1_555
La1A_3 O5A 1_555 1_555
La1_2 O6A 1_555 1_555
C1A O1A 1_555 1_555
O1A La1A 1_555 1_555
O2A La1 1_555 1_555
C2A C1A 1_555 1_555
F1A C2A 1_555 1_555
F2A C2A 1_555 1_555
C3A C2A 1_555 1_555
F3A C3A 1_555 1_555
F4A C3A 1_555 1_555
C4A C3A 1_555 1_555
F5A C4A 1_555 1_555
F6A C4A 1_555 1_555
C5A C4A 1_555 1_555
F7A C5A 1_555 1_555
F8A C5A 1_555 1_555
C6A C5A 1_555 1_555
O3A C6A 1_555 1_555
O4A C6A 1_555 1_555
O5A C7A 1_555 1_555
O5A_2 La1A 1_555 1_555
O6A C7A 1_555 1_555
O6A_2 La1 1_555 1_555
O6_2 La1A 1_555 1_555
C7A C8A 1_555 1_555
C8A F9A 1_555 1_555
F10A C8A 1_555 1_555
C9A C9 1_555 1_555
F11A C9A 1_555 1_555
F12A C9A 1_555 1_555
O7A La1A 1_555 1_555
O8A La1A 1_555 1_555
O9A La1A 1_555 1_555
O10A La1A 1_555 1_555
O11A La1A 1_555 1_555
H1A O7A 1_555 1_555
H2A O7A 1_555 1_555
H3A O8A 1_555 1_555
H4A O8A 1_555 1_555
H5A O9A 1_555 1_555
H6A O9A 1_555 1_555
H7A O10A 1_555 1_555
H8A O10A 1_555 1_555
H9A O11A 1_555 1_555
H10A O11A 1_555 1_555
C1A O2A 1_555 1_555
C8A C9A 1_555 1_555

#END
