
#######################################################################
#
#                 Cambridge Crystallographic Data Centre
#                                CCDC 
#
#######################################################################
#
# If this CIF has been generated from an entry in the Cambridge 
# Structural Database, then it will include bibliographic, chemical, 
# crystal, experimental, refinement or atomic coordinate data resulting 
# from the CCDC's data processing and validation procedures.
#
#######################################################################

data_XORWEH
_symmetry_cell_setting           triclinic
_symmetry_space_group_name_H-M   'P -1'
_symmetry_Int_Tables_number      2
_space_group_name_Hall           '-P 1'
loop_
_symmetry_equiv_pos_site_id
_symmetry_equiv_pos_as_xyz
1 x,y,z
2 -x,-y,-z
_cell_length_a                   9.7332(8)
_cell_length_b                   10.3814(8)
_cell_length_c                   10.5723(8)
_cell_angle_alpha                84.938(2)
_cell_angle_beta                 88.659(2)
_cell_angle_gamma                70.151(2)
_cell_volume                     1000.86
loop_
_atom_site_label
_atom_site_type_symbol
_atom_site_fract_x
_atom_site_fract_y
_atom_site_fract_z
Nd1 Nd 0.394496(7) 0.275960(7) 0.471070(6)
C1 C 0.39447(17) 0.52948(16) 0.66879(14)
O1 O 0.45528(14) 0.41226(12) 0.63191(12)
O2 O 0.42732(15) 0.63501(13) 0.64523(13)
C2 C 0.25577(19) 0.54987(18) 0.75253(17)
F1 F 0.2454(2) 0.42822(16) 0.79505(17)
F2 F 0.13587(15) 0.6175(2) 0.67957(14)
C3 C 0.25371(17) 0.63233(17) 0.86835(15)
F3 F 0.38531(15) 0.5807(2) 0.92440(14)
F4 F 0.22843(19) 0.76448(13) 0.82569(15)
C4 C 0.13524(18) 0.62895(16) 0.96865(15)
F5 F 0.16793(17) 0.49947(13) 1.02292(12)
F6 F 0.00572(13) 0.66405(15) 0.90790(12)
C5 C 0.11599(18) 0.72487(17) 1.07724(15)
F7 F 0.24815(13) 0.69022(15) 1.13635(12)
F8 F 0.08040(16) 0.85543(12) 1.02640(12)
C6 C -0.00197(18) 0.71060(18) 1.17487(15)
O3 O -0.12756(15) 0.79098(16) 1.15352(14)
O4 O 0.04335(15) 0.61856(16) 1.26462(13)
O5 O 0.31951(16) 0.07657(14) 0.45011(13)
O6 O 0.36495(14) -0.14785(14) 0.43090(13)
C7 C 0.28931(16) -0.02336(16) 0.41972(14)
C8 C 0.13697(17) 0.00861(17) 0.35631(15)
F9 F 0.07834(13) 0.14368(13) 0.31896(13)
F10 F 0.15432(14) -0.06035(16) 0.25062(11)
C9 C 0.02082(17) -0.03363(17) 0.43707(15)
F11 F -0.10203(13) 0.00027(15) 0.36569(12)
F12 F 0.07157(14) -0.17134(12) 0.46190(13)
O7 O 0.36573(14) 0.16245(13) 0.68977(12)
O8 O 0.54340(15) 0.12597(13) 0.30748(13)
O9 O 0.12891(15) 0.35302(15) 0.52368(14)
O10 O 0.28166(14) 0.53351(13) 0.42255(13)
O11 O 0.25932(17) 0.32992(15) 0.26634(13)
H1 H 0.439(5) 0.161(5) 0.750(4)
H2 H 0.288(5) 0.172(5) 0.728(5)
H3 H 0.615(5) 0.149(5) 0.265(5)
H4 H 0.578(4) 0.031(4) 0.318(4)
H5 H 0.080(5) 0.363(4) 0.587(4)
H6 H 0.081(5) 0.340(4) 0.463(4)
H7 H 0.359(4) 0.557(5) 0.400(5)
H8 H 0.207(6) 0.589(5) 0.355(5)
H9 H 0.196(4) 0.406(4) 0.246(4)
H10 H 0.270(5) 0.284(5) 0.202(4)
Nd1A Nd 0.605504(7) 0.724040(7) 0.528930(6)
Nd1A_2 Nd 0.605504(7) -0.275960(7) 0.528930(6)
Nd1A_3 Nd -0.394496(7) -0.275960(7) 0.528930(6)
Nd1_2 Nd -0.605504(7) 0.275960(7) 0.471070(6)
C1A C 0.60553(17) 0.47052(16) 0.33121(14)
O1A O 0.54472(14) 0.58774(12) 0.36809(12)
O2A O 0.57268(15) 0.36499(13) 0.35477(13)
C2A C 0.74423(19) 0.45013(18) 0.24747(17)
F1A F 0.7546(2) 0.57178(16) 0.20495(17)
F2A F 0.86413(15) 0.3825(2) 0.32043(14)
C3A C 0.74629(17) 0.36767(17) 0.13165(15)
F3A F 0.61469(15) 0.4193(2) 0.07560(14)
F4A F 0.77157(19) 0.23552(13) 0.17431(15)
C4A C 0.86476(18) 0.37105(16) 0.03135(15)
F5A F 0.83207(17) 0.50053(13) -0.02292(12)
F6A F 0.99428(13) 0.33595(15) 0.09210(12)
C5A C 0.88401(18) 0.27513(17) -0.07724(15)
F7A F 0.75185(13) 0.30978(15) -0.13635(12)
F8A F 0.91960(16) 0.14457(12) -0.02640(12)
C6A C 1.00197(18) 0.28940(18) -0.17487(15)
O3A O 1.12756(15) 0.20902(16) -0.15352(14)
O4A O 0.95665(15) 0.38144(16) -0.26462(13)
O5A O -0.31951(16) -0.07657(14) 0.54989(13)
O5A_2 O 0.68049(16) 0.92343(14) 0.54989(13)
O6A O -0.36495(14) 0.14785(14) 0.56910(13)
O6A_2 O 0.63505(14) 0.14785(14) 0.56910(13)
O6_2 O 0.36495(14) 0.85215(14) 0.43090(13)
C7A C -0.28931(16) 0.02336(16) 0.58028(14)
C8A C -0.13697(17) -0.00861(17) 0.64369(15)
F9A F -0.07834(13) -0.14368(13) 0.68104(13)
F10A F -0.15432(14) 0.06035(16) 0.74938(11)
C9A C -0.02082(17) 0.03363(17) 0.56293(15)
F11A F 0.10203(13) -0.00027(15) 0.63431(12)
F12A F -0.07157(14) 0.17134(12) 0.53810(13)
O7A O 0.63427(14) 0.83755(13) 0.31023(12)
O8A O 0.45660(15) 0.87403(13) 0.69252(13)
O9A O 0.87109(15) 0.64698(15) 0.47632(14)
O10A O 0.71834(14) 0.46649(13) 0.57745(13)
O11A O 0.74068(17) 0.67008(15) 0.73366(13)
H1A H 0.561(5) 0.839(5) 0.250(4)
H2A H 0.712(5) 0.828(5) 0.272(5)
H3A H 0.385(5) 0.851(5) 0.735(5)
H4A H 0.422(4) 0.969(4) 0.682(4)
H5A H 0.920(5) 0.637(4) 0.413(4)
H6A H 0.919(5) 0.660(4) 0.537(4)
H7A H 0.641(4) 0.443(5) 0.600(5)
H8A H 0.793(6) 0.411(5) 0.645(5)
H9A H 0.804(4) 0.594(4) 0.754(4)
H10A H 0.730(5) 0.716(5) 0.798(4)
O12 O 0.31582(18) 0.15324(19) 0.06528(15)
H11 H 0.379(4) 0.181(5) 0.021(4)
H12 H 0.245(4) 0.177(5) 0.009(4)
O13 O 0.55129(18) 0.1343(2) 0.89257(17)
H13 H 0.623(6) 0.161(6) 0.896(8)
H14 H 0.590(6) 0.044(3) 0.898(6)
loop_
_geom_bond_atom_site_label_1
_geom_bond_atom_site_label_2
_geom_bond_site_symmetry_1
_geom_bond_site_symmetry_2
Nd1 O1 1_555 1_555
C1 O1 1_555 1_555
O2 C1 1_555 1_555
C2 C1 1_555 1_555
F1 C2 1_555 1_555
F2 C2 1_555 1_555
C3 C2 1_555 1_555
F3 C3 1_555 1_555
F4 C3 1_555 1_555
C4 C3 1_555 1_555
F5 C4 1_555 1_555
F6 C4 1_555 1_555
C5 C4 1_555 1_555
F7 C5 1_555 1_555
F8 C5 1_555 1_555
C6 C5 1_555 1_555
O3 C6 1_555 1_555
O4 C6 1_555 1_555
O5 Nd1 1_555 1_555
O6 C7 1_555 1_555
C7 O5 1_555 1_555
C8 C7 1_555 1_555
F9 C8 1_555 1_555
F10 C8 1_555 1_555
C9 C8 1_555 1_555
F11 C9 1_555 1_555
F12 C9 1_555 1_555
O7 Nd1 1_555 1_555
O8 Nd1 1_555 1_555
O9 Nd1 1_555 1_555
O10 Nd1 1_555 1_555
O11 Nd1 1_555 1_555
O12 H11 1_555 1_555
O13 H13 1_555 1_555
H1 O7 1_555 1_555
H2 O7 1_555 1_555
H3 O8 1_555 1_555
H4 O8 1_555 1_555
H5 O9 1_555 1_555
H6 O9 1_555 1_555
H7 O10 1_555 1_555
H8 O10 1_555 1_555
H9 O11 1_555 1_555
H10 O11 1_555 1_555
H12 O12 1_555 1_555
H14 O13 1_555 1_555
Nd1A O2 1_555 1_555
Nd1A_2 O6 1_555 1_555
Nd1A_3 O5A 1_555 1_555
Nd1_2 O6A 1_555 1_555
C1A O1A 1_555 1_555
O1A Nd1A 1_555 1_555
O2A Nd1 1_555 1_555
C2A C1A 1_555 1_555
F1A C2A 1_555 1_555
F2A C2A 1_555 1_555
C3A C2A 1_555 1_555
F3A C3A 1_555 1_555
F4A C3A 1_555 1_555
C4A C3A 1_555 1_555
F5A C4A 1_555 1_555
F6A C4A 1_555 1_555
C5A C4A 1_555 1_555
F7A C5A 1_555 1_555
F8A C5A 1_555 1_555
C6A C5A 1_555 1_555
O3A C6A 1_555 1_555
O4A C6A 1_555 1_555
O5A C7A 1_555 1_555
O5A_2 Nd1A 1_555 1_555
O6A C7A 1_555 1_555
O6A_2 Nd1 1_555 1_555
O6_2 Nd1A 1_555 1_555
C7A C8A 1_555 1_555
C8A F9A 1_555 1_555
F10A C8A 1_555 1_555
C9A C9 1_555 1_555
F11A C9A 1_555 1_555
F12A C9A 1_555 1_555
O7A Nd1A 1_555 1_555
O8A Nd1A 1_555 1_555
O9A Nd1A 1_555 1_555
O10A Nd1A 1_555 1_555
O11A Nd1A 1_555 1_555
H1A O7A 1_555 1_555
H2A O7A 1_555 1_555
H3A O8A 1_555 1_555
H4A O8A 1_555 1_555
H5A O9A 1_555 1_555
H6A O9A 1_555 1_555
H7A O10A 1_555 1_555
H8A O10A 1_555 1_555
H9A O11A 1_555 1_555
H10A O11A 1_555 1_555
C1A O2A 1_555 1_555
C8A C9A 1_555 1_555

#END
