
#######################################################################
#
#                 Cambridge Crystallographic Data Centre
#                                CCDC 
#
#######################################################################
#
# If this CIF has been generated from an entry in the Cambridge 
# Structural Database, then it will include bibliographic, chemical, 
# crystal, experimental, refinement or atomic coordinate data resulting 
# from the CCDC's data processing and validation procedures.
#
#######################################################################

data_XOSHIY
_symmetry_cell_setting           triclinic
_symmetry_space_group_name_H-M   'P -1'
_symmetry_Int_Tables_number      2
_space_group_name_Hall           '-P 1'
loop_
_symmetry_equiv_pos_site_id
_symmetry_equiv_pos_as_xyz
1 x,y,z
2 -x,-y,-z
_cell_length_a                   9.004(5)
_cell_length_b                   13.522(5)
_cell_length_c                   17.296(5)
_cell_angle_alpha                79.133(5)
_cell_angle_beta                 75.504(5)
_cell_angle_gamma                71.182(5)
_cell_volume                     1916.41
loop_
_atom_site_label
_atom_site_type_symbol
_atom_site_fract_x
_atom_site_fract_y
_atom_site_fract_z
Zn1 Zn 0.67675(18) 0.48741(15) 0.00503(11)
O1 O 0.4579(10) 0.5951(9) 0.0213(7)
N1 N 0.7415(13) 0.5716(11) 0.0717(8)
N2 N 0.8778(13) 0.5127(11) 0.1028(8)
C1 C 0.9171(17) 0.4152(13) 0.0911(10)
C2 C 1.0637(17) 0.3434(15) 0.1165(10)
C3 C 0.7390(18) 0.7130(14) 0.1482(10)
H1 H 0.7727 0.6590 0.1911
H2 H 0.6555 0.7711 0.1722
N3 N 1.1878(15) 0.4837(11) 0.1122(8)
H3 H 1.0856 0.5241 0.1158
H4 H 1.2289 0.4997 0.1490
C4 C 1.3294(19) 0.2970(15) 0.1439(10)
H5 H 1.4161 0.3175 0.1480
C5 C 0.2937(17) 0.7707(13) 0.0040(13)
H6 H 0.2313 0.7481 -0.0203
O2 O 0.8269(14) 0.3760(9) 0.0635(8)
C6 C 1.1938(17) 0.3716(12) 0.1276(9)
C7 C 0.5304(16) 0.7339(13) 0.0597(9)
C8 C 1.0801(19) 0.2341(14) 0.1319(10)
H7 H 0.9950 0.2120 0.1279
C9 C 0.3574(19) 0.9148(13) 0.0344(11)
H8 H 0.3417 0.9869 0.0304
C10 C 0.251(2) 0.8741(16) 0.0122(11)
H9 H 0.1525 0.9181 0.0030
C11 C 0.6731(15) 0.6679(12) 0.0926(9)
C12 C 1.2117(18) 0.1594(14) 0.1521(11)
H10 H 1.2139 0.0890 0.1638
C13 C 1.340(2) 0.1898(15) 0.1547(11)
H11 H 1.4345 0.1396 0.1637
C14 C 0.4274(16) 0.6944(12) 0.0303(10)
C15 C 0.883(2) 0.7516(16) 0.0988(13)
H12 H 0.9780 0.6927 0.0921
H13 H 0.8996 0.8010 0.1268
H14 H 0.8620 0.7852 0.0471
C16 C 0.4884(18) 0.8416(13) 0.0632(11)
H15 H 0.5507 0.8666 0.0858
Zn1A Zn 0.32325(18) 0.51259(15) -0.00503(11)
Zn1A_2 Zn 1.32325(18) 0.51259(15) -0.00503(11)
O1A O 0.5421(10) 0.4049(9) -0.0213(7)
N3A N 0.8122(15) 0.5163(11) -0.1122(8)
Zn2 Zn 0.18068(18) 0.99226(16) 0.49389(10)
O3 O 0.3611(12) 0.9985(10) 0.3976(6)
O4 O -0.0429(10) 1.0702(9) 0.5475(6)
N4 N 0.7113(14) 1.1270(11) 0.4251(8)
H16 H 0.7623 1.1769 0.4128
H17 H 0.6089 1.1567 0.4485
N5 N 0.2518(12) 1.1200(9) 0.5099(8)
C17 C 0.5954(16) 1.0498(12) 0.3432(10)
C18 C 0.4383(17) 1.0617(14) 0.4027(9)
C19 C 0.6151(18) 1.0060(14) 0.2737(9)
H18 H 0.5340 0.9834 0.2651
C20 C 0.0303(17) 1.1877(13) 0.6138(9)
N6 N 0.3967(14) 1.1242(12) 0.4582(8)
C21 C -0.0719(16) 1.1301(14) 0.6092(9)
C22 C 0.7142(15) 1.0893(13) 0.3530(9)
C23 C 0.245(2) 1.2850(15) 0.5473(11)
H19 H 0.2890 1.3010 0.4908
H20 H 0.1588 1.3463 0.5646
C24 C 0.756(2) 0.9961(14) 0.2177(11)
H21 H 0.7699 0.9635 0.1725
C25 C 0.1776(17) 1.1926(14) 0.5577(9)
C26 C 0.850(2) 1.0842(16) 0.2919(11)
H22 H 0.9241 1.1163 0.2958
C27 C -0.0156(19) 1.2443(15) 0.6783(11)
H23 H 0.0489 1.2847 0.6811
C28 C -0.246(2) 1.1921(18) 0.7295(12)
H24 H -0.3410 1.1948 0.7667
C29 C -0.2064(17) 1.1333(15) 0.6663(10)
H25 H -0.2736 1.0952 0.6629
C30 C 0.877(2) 1.0325(17) 0.2254(11)
H26 H 0.9727 1.0229 0.1878
C31 C 0.374(2) 1.2618(15) 0.5954(13)
H27 H 0.3318 1.2443 0.6512
H28 H 0.4108 1.3228 0.5892
H29 H 0.4627 1.2038 0.5762
C32 C -0.147(2) 1.2469(17) 0.7388(12)
H30 H -0.1690 1.2829 0.7830
Zn2A Zn -0.18068(18) 1.00774(16) 0.50611(10)
Zn2A_2 Zn 0.81932(18) 1.00774(16) 0.50611(10)
O4A O 0.0429(10) 0.9298(9) 0.4525(6)
N4A N 0.2887(14) 0.8730(11) 0.5749(8)
S1 S 0.9411(7) 0.3595(6) 0.4014(3)
O5 O 0.7924(15) 0.3299(12) 0.4055(10)
C33 C 1.102(3) 0.267(2) 0.3412(12)
H31 H 1.0636 0.2550 0.2974
H32 H 1.1346 0.2011 0.3741
H33 H 1.1908 0.2947 0.3202
C34 C 0.924(3) 0.4733(16) 0.3276(13)
H34 H 0.9626 0.4513 0.2747
H35 H 0.9865 0.5148 0.3354
H36 H 0.8137 0.5145 0.3331
S2 S 0.5416(11) 0.5088(8) 0.7312(5)
O6 O 0.6991(18) 0.5128(14) 0.7461(10)
C35 C 0.586(3) 0.515(3) 0.637(2)
H37 H 0.6388 0.5686 0.6156
H38 H 0.4902 0.5318 0.6163
H39 H 0.6564 0.4484 0.6215
C36 C 0.401(3) 0.638(2) 0.7377(17)
H40 H 0.3659 0.6518 0.7929
H41 H 0.3101 0.6425 0.7163
H42 H 0.4518 0.6901 0.7072
loop_
_geom_bond_atom_site_label_1
_geom_bond_atom_site_label_2
_geom_bond_site_symmetry_1
_geom_bond_site_symmetry_2
Zn1 O1 1_555 1_555
O1 C14 1_555 1_555
N1 Zn1 1_555 1_555
N2 N1 1_555 1_555
C1 N2 1_555 1_555
C2 C1 1_555 1_555
C3 H1 1_555 1_555
H2 C3 1_555 1_555
N3 H3 1_555 1_555
H4 N3 1_555 1_555
C4 H5 1_555 1_555
C5 H6 1_555 1_555
O2 Zn1 1_555 1_555
C6 C2 1_555 1_555
C7 C11 1_555 1_555
C8 C2 1_555 1_555
H7 C8 1_555 1_555
C9 H8 1_555 1_555
C10 C5 1_555 1_555
H9 C10 1_555 1_555
C11 N1 1_555 1_555
C12 C8 1_555 1_555
H10 C12 1_555 1_555
C13 C4 1_555 1_555
H11 C13 1_555 1_555
C14 C5 1_555 1_555
C15 C3 1_555 1_555
H12 C15 1_555 1_555
H13 C15 1_555 1_555
H14 C15 1_555 1_555
C16 C7 1_555 1_555
H15 C16 1_555 1_555
Zn2 O3 1_555 1_555
O3 C18 1_555 1_555
O4 Zn2 1_555 1_555
N4 H16 1_555 1_555
H17 N4 1_555 1_555
N5 Zn2 1_555 1_555
C17 C18 1_555 1_555
C18 N6 1_555 1_555
C19 C17 1_555 1_555
H18 C19 1_555 1_555
C20 C21 1_555 1_555
N6 N5 1_555 1_555
C21 O4 1_555 1_555
C22 N4 1_555 1_555
C23 H19 1_555 1_555
H20 C23 1_555 1_555
C24 C19 1_555 1_555
H21 C24 1_555 1_555
C25 N5 1_555 1_555
C26 C22 1_555 1_555
H22 C26 1_555 1_555
C27 C20 1_555 1_555
H23 C27 1_555 1_555
C28 H24 1_555 1_555
C29 C21 1_555 1_555
H25 C29 1_555 1_555
C30 C24 1_555 1_555
H26 C30 1_555 1_555
C31 C23 1_555 1_555
H27 C31 1_555 1_555
H28 C31 1_555 1_555
H29 C31 1_555 1_555
C32 C27 1_555 1_555
H30 C32 1_555 1_555
S1 O5 1_555 1_555
C33 S1 1_555 1_555
H31 C33 1_555 1_555
H32 C33 1_555 1_555
H33 C33 1_555 1_555
C34 S1 1_555 1_555
H34 C34 1_555 1_555
H35 C34 1_555 1_555
H36 C34 1_555 1_555
S2 O6 1_555 1_555
C35 S2 1_555 1_555
H37 C35 1_555 1_555
H38 C35 1_555 1_555
H39 C35 1_555 1_555
C36 S2 1_555 1_555
H40 C36 1_555 1_555
H41 C36 1_555 1_555
H42 C36 1_555 1_555
Zn1A O1 1_555 1_555
Zn1A_2 N3 1_555 1_555
O1A Zn1 1_555 1_555
N3A Zn1 1_555 1_555
Zn2A O4 1_555 1_555
Zn2A_2 N4 1_555 1_555
O4A Zn2 1_555 1_555
N4A Zn2 1_555 1_555
C1 O2 1_555 1_555
C3 C11 1_555 1_555
N3 C6 1_555 1_555
C4 C6 1_555 1_555
C7 C14 1_555 1_555
C9 C10 1_555 1_555
C9 C16 1_555 1_555
C12 C13 1_555 1_555
C17 C22 1_555 1_555
C20 C25 1_555 1_555
C23 C25 1_555 1_555
C26 C30 1_555 1_555
C28 C29 1_555 1_555
C28 C32 1_555 1_555
Zn1A O1A 1_555 1_555
Zn2A O4A 1_555 1_555

#END
