
#######################################################################
#
#                 Cambridge Crystallographic Data Centre
#                                CCDC 
#
#######################################################################
#
# If this CIF has been generated from an entry in the Cambridge 
# Structural Database, then it will include bibliographic, chemical, 
# crystal, experimental, refinement or atomic coordinate data resulting 
# from the CCDC's data processing and validation procedures.
#
#######################################################################

data_XOSLUM
_symmetry_cell_setting           monoclinic
_symmetry_space_group_name_H-M   'C c'
_symmetry_Int_Tables_number      9
_space_group_name_Hall           'C -2yc'
loop_
_symmetry_equiv_pos_site_id
_symmetry_equiv_pos_as_xyz
1 x,y,z
2 x,-y,1/2+z
3 1/2+x,1/2+y,z
4 1/2+x,1/2-y,1/2+z
_cell_length_a                   13.7612(6)
_cell_length_b                   14.0630(5)
_cell_length_c                   8.2001(4)
_cell_angle_alpha                90
_cell_angle_beta                 105.598(2)
_cell_angle_gamma                90
_cell_volume                     1528.47
loop_
_atom_site_label
_atom_site_type_symbol
_atom_site_fract_x
_atom_site_fract_y
_atom_site_fract_z
Cl1 Cl -0.11489(7) 0.09991(7) -0.36316(10)
Cl2 Cl 0.24560(5) 0.10283(7) 0.85653(9)
Ca1 Ca 0.05848(5) 0.22472(3) 0.24602(10)
O1 O 0.1403(2) 0.4981(2) 0.6139(4)
O2 O 0.15253(15) 0.36775(17) 0.3550(3)
O3 O 0.18851(15) 0.20719(17) 0.5127(3)
O4 O 0.42872(16) 0.30535(19) 0.4844(3)
O5 O 0.45467(15) 0.13960(17) 0.6299(3)
O6 O 0.4490(2) 0.00548(18) 0.3581(3)
O7 O 0.1531(2) 0.2785(2) 0.0353(4)
O8 O -0.0371(2) 0.2727(2) 0.4538(4)
O9 O -0.0045(3) 0.0811(3) 0.3444(5)
O10 O 0.1373(3) 0.0881(2) 0.1568(5)
C1 C 0.1859(3) 0.4070(3) 0.6517(5)
H1 H 0.1358 0.3618 0.6671
H2 H 0.2389 0.4104 0.7569
C2 C 0.2301(2) 0.3721(2) 0.5110(4)
H3 H 0.2836 0.4154 0.4993
C3 C 0.2722(2) 0.2718(2) 0.5481(4)
H4 H 0.3086 0.2671 0.6683
C4 C 0.3431(2) 0.2433(2) 0.4410(4)
H5 H 0.3080 0.2517 0.3210
C5 C 0.3791(2) 0.1414(2) 0.4709(4)
H6 H 0.3225 0.1010 0.4784
C6 C 0.4222(2) 0.1044(2) 0.3313(5)
H7 H 0.4815 0.1411 0.3290
H8 H 0.3727 0.1120 0.2228
H9 H 0.087(4) 0.494(4) 0.554(7)
H10 H 0.159(4) 0.423(5) 0.283(8)
H11 H 0.189(4) 0.165(5) 0.599(8)
H12 H 0.427(5) 0.340(5) 0.392(10)
H13 H 0.459(4) 0.088(5) 0.670(8)
H14 H 0.403(4) -0.031(4) 0.388(7)
H15 H 0.173(5) 0.234(5) -0.040(9)
H16 H 0.184(4) 0.314(5) 0.058(9)
H17 H -0.051(5) 0.237(5) 0.515(9)
H18 H -0.087(5) 0.314(5) 0.422(8)
H19 H -0.021(5) 0.035(5) 0.288(9)
H20 H -0.024(5) 0.082(5) 0.422(10)
H21 H 0.152(5) 0.048(5) 0.214(9)
H22 H 0.152(5) 0.090(5) 0.078(10)
O4C O -0.07128(16) 0.19465(19) -0.0156(3)
O5C O -0.04533(15) 0.36040(17) 0.1299(3)
Ca1C Ca 0.55848(5) 0.27528(3) 0.74602(10)
H12C H -0.073(5) 0.160(5) -0.108(10)
H13C H -0.041(4) 0.412(5) 0.170(8)
loop_
_geom_bond_atom_site_label_1
_geom_bond_atom_site_label_2
_geom_bond_site_symmetry_1
_geom_bond_site_symmetry_2
Ca1 O2 1_555 1_555
O1 C1 1_555 1_555
O2 C2 1_555 1_555
O3 Ca1 1_555 1_555
O4 C4 1_555 1_555
O5 C5 1_555 1_555
O6 C6 1_555 1_555
O7 Ca1 1_555 1_555
O8 Ca1 1_555 1_555
O9 Ca1 1_555 1_555
O10 Ca1 1_555 1_555
C1 H1 1_555 1_555
H2 C1 1_555 1_555
C2 C1 1_555 1_555
H3 C2 1_555 1_555
C3 O3 1_555 1_555
H4 C3 1_555 1_555
C4 C3 1_555 1_555
H5 C4 1_555 1_555
C5 C4 1_555 1_555
H6 C5 1_555 1_555
C6 C5 1_555 1_555
H7 C6 1_555 1_555
H8 C6 1_555 1_555
H9 O1 1_555 1_555
H10 O2 1_555 1_555
H11 O3 1_555 1_555
H12 O4 1_555 1_555
H13 O5 1_555 1_555
H14 O6 1_555 1_555
H15 O7 1_555 1_555
H16 O7 1_555 1_555
H17 O8 1_555 1_555
H18 O8 1_555 1_555
H19 O9 1_555 1_555
H20 O9 1_555 1_555
H21 O10 1_555 1_555
H22 O10 1_555 1_555
O4C Ca1 1_555 1_555
O5C Ca1 1_555 1_555
Ca1C O4 1_555 1_555
H12C O4C 1_555 1_555
H13C O5C 1_555 1_555
O5 Ca1C 1_555 1_555
C2 C3 1_555 1_555

#END
