
#######################################################################
#
#                 Cambridge Crystallographic Data Centre
#                                CCDC 
#
#######################################################################
#
# If this CIF has been generated from an entry in the Cambridge 
# Structural Database, then it will include bibliographic, chemical, 
# crystal, experimental, refinement or atomic coordinate data resulting 
# from the CCDC's data processing and validation procedures.
#
#######################################################################

data_XOSNOJ
_symmetry_cell_setting           monoclinic
_symmetry_space_group_name_H-M   'P 21/c'
_symmetry_Int_Tables_number      14
_space_group_name_Hall           '-P 2ybc'
loop_
_symmetry_equiv_pos_site_id
_symmetry_equiv_pos_as_xyz
1 x,y,z
2 -x,1/2+y,1/2-z
3 -x,-y,-z
4 x,1/2-y,1/2+z
_cell_length_a                   12.1508(9)
_cell_length_b                   15.7859(11)
_cell_length_c                   11.2672(8)
_cell_angle_alpha                90
_cell_angle_beta                 95.5030(10)
_cell_angle_gamma                90
_cell_volume                     2151.22
loop_
_atom_site_label
_atom_site_type_symbol
_atom_site_fract_x
_atom_site_fract_y
_atom_site_fract_z
Zn1 Zn -0.12237(2) 0.04594(2) 0.72492(3)
N1 N -0.08138(18) -0.07987(15) 0.95668(19)
H1 H -0.0618 -0.1051 1.0230
N2 N -0.02804(17) -0.06034(15) 0.76170(19)
N3 N -0.20262(18) 0.02830(14) 0.87674(19)
O1 O 0.00156(15) 0.10251(13) 0.62224(16)
O2 O -0.00285(14) 0.13804(12) 0.80988(16)
O3 O 0.41005(16) 0.35461(15) 0.67817(17)
O4 O 0.75368(17) 0.37062(14) 1.13934(18)
O5 O 0.76524(16) 0.50059(14) 1.07688(18)
C1 C -0.0150(2) -0.09973(17) 0.8676(2)
C2 C 0.0642(2) -0.16335(18) 0.8920(3)
H2 H 0.0727 -0.1893 0.9664
C3 C 0.1284(2) -0.1866(2) 0.8055(3)
H3 H 0.1827 -0.2278 0.8207
C4 C 0.1128(3) -0.1485(2) 0.6938(3)
H4 H 0.1543 -0.1649 0.6325
C5 C 0.0351(2) -0.0865(2) 0.6768(3)
H5 H 0.0251 -0.0607 0.6023
C6 C -0.1724(2) -0.02829(18) 0.9619(2)
C7 C -0.2298(3) -0.0370(2) 1.0631(3)
H6 H -0.2080 -0.0772 1.1209
C8 C -0.3180(3) 0.0143(3) 1.0755(3)
H7 H -0.3563 0.0101 1.1429
C9 C -0.3502(3) 0.0724(2) 0.9882(3)
H8 H -0.4112 0.1072 0.9948
C10 C -0.2912(2) 0.0779(2) 0.8925(3)
H9 H -0.3127 0.1179 0.8342
C11 C 0.0402(2) 0.14269(18) 0.7124(3)
C12 C 0.1410(2) 0.19695(17) 0.7051(2)
C13 C 0.2056(2) 0.1886(2) 0.6116(2)
H10 H 0.1876 0.1483 0.5527
C14 C 0.2970(2) 0.2399(2) 0.6052(3)
H11 H 0.3413 0.2338 0.5429
C15 C 0.3219(2) 0.3002(2) 0.6918(2)
C16 C 0.2589(2) 0.30978(18) 0.7857(2)
H12 H 0.2766 0.3507 0.8438
C17 C 0.1687(2) 0.25724(18) 0.7921(2)
H13 H 0.1259 0.2625 0.8558
C18 C 0.4815(2) 0.3721(2) 0.7795(2)
C19 C 0.5091(2) 0.4540(2) 0.8032(2)
H14 H 0.4752 0.4973 0.7571
C20 C 0.5881(2) 0.47268(19) 0.8964(2)
H15 H 0.6088 0.5287 0.9111
C21 C 0.6361(2) 0.40943(19) 0.9674(2)
C22 C 0.6049(2) 0.3269(2) 0.9442(3)
H16 H 0.6359 0.2836 0.9926
C23 C 0.5275(3) 0.3074(2) 0.8494(3)
H17 H 0.5070 0.2515 0.8334
C24 C 0.7238(2) 0.4283(2) 1.0666(3)
Zn1C Zn 0.87763(2) 0.45406(2) 1.22492(3)
O4C O -0.24632(17) 0.12938(14) 0.63934(18)
O5C O -0.23476(16) -0.00059(14) 0.57688(18)
loop_
_geom_bond_atom_site_label_1
_geom_bond_atom_site_label_2
_geom_bond_site_symmetry_1
_geom_bond_site_symmetry_2
Zn1 N2 1_555 1_555
N1 H1 1_555 1_555
N2 C1 1_555 1_555
N3 Zn1 1_555 1_555
O1 Zn1 1_555 1_555
O2 Zn1 1_555 1_555
O3 C15 1_555 1_555
O4 C24 1_555 1_555
O5 C24 1_555 1_555
C1 N1 1_555 1_555
C2 C1 1_555 1_555
H2 C2 1_555 1_555
C3 C2 1_555 1_555
H3 C3 1_555 1_555
C4 C3 1_555 1_555
H4 C4 1_555 1_555
C5 N2 1_555 1_555
H5 C5 1_555 1_555
C6 N1 1_555 1_555
C7 C6 1_555 1_555
H6 C7 1_555 1_555
C8 C7 1_555 1_555
H7 C8 1_555 1_555
C9 C8 1_555 1_555
H8 C9 1_555 1_555
C10 N3 1_555 1_555
H9 C10 1_555 1_555
C11 O1 1_555 1_555
C12 C11 1_555 1_555
C13 C12 1_555 1_555
H10 C13 1_555 1_555
C14 C13 1_555 1_555
H11 C14 1_555 1_555
C15 C14 1_555 1_555
C16 C15 1_555 1_555
H12 C16 1_555 1_555
C17 C12 1_555 1_555
H13 C17 1_555 1_555
C18 O3 1_555 1_555
C19 C18 1_555 1_555
H14 C19 1_555 1_555
C20 C19 1_555 1_555
H15 C20 1_555 1_555
C21 C20 1_555 1_555
C22 C21 1_555 1_555
H16 C22 1_555 1_555
C23 C18 1_555 1_555
H17 C23 1_555 1_555
C24 C21 1_555 1_555
Zn1C O4 1_555 1_555
O4C Zn1 1_555 1_555
O5C Zn1 1_555 1_555
N3 C6 1_555 1_555
O2 C11 1_555 1_555
O5 Zn1C 1_555 1_555
C4 C5 1_555 1_555
C9 C10 1_555 1_555
C16 C17 1_555 1_555
C22 C23 1_555 1_555

#END
