
#######################################################################
#
#                 Cambridge Crystallographic Data Centre
#                                CCDC 
#
#######################################################################
#
# If this CIF has been generated from an entry in the Cambridge 
# Structural Database, then it will include bibliographic, chemical, 
# crystal, experimental, refinement or atomic coordinate data resulting 
# from the CCDC's data processing and validation procedures.
#
#######################################################################

data_XOSNID
_symmetry_cell_setting           triclinic
_symmetry_space_group_name_H-M   'P -1'
_symmetry_Int_Tables_number      2
_space_group_name_Hall           '-P 1'
loop_
_symmetry_equiv_pos_site_id
_symmetry_equiv_pos_as_xyz
1 x,y,z
2 -x,-y,-z
_cell_length_a                   13.318(3)
_cell_length_b                   15.750(3)
_cell_length_c                   19.764(4)
_cell_angle_alpha                100.55(3)
_cell_angle_beta                 92.69(3)
_cell_angle_gamma                103.65(3)
_cell_volume                     3942.8
loop_
_atom_site_label
_atom_site_type_symbol
_atom_site_fract_x
_atom_site_fract_y
_atom_site_fract_z
Pt1 Pt 0.57231(3) 0.17088(2) 0.343348(17)
Pt2 Pt 0.45810(2) 0.32484(2) 0.347523(16)
P1 P 0.62040(17) 0.18542(15) 0.23809(11)
P2 P 0.1068(2) -0.10431(18) 0.14623(15)
P3 P 0.46240(17) 0.30802(14) 0.23222(11)
P4 P 0.8438(3) 0.6752(2) 0.30258(18)
O1 O 0.0657(5) -0.1860(4) 0.1705(4)
O2 O 0.0565(6) -0.0272(5) 0.1760(4)
O3 O 0.0861(6) -0.1148(5) 0.0667(4)
O4 O 0.9063(6) 0.7018(5) 0.2474(4)
O5 O 0.7294(7) 0.6854(6) 0.2960(5)
O6 O 0.8873(9) 0.7283(6) 0.3759(5)
N1 N 0.5331(6) 0.1462(5) 0.4356(4)
N2 N 0.7026(6) 0.2563(5) 0.4110(4)
N3 N 0.4637(5) 0.3480(4) 0.4512(3)
N4 N 0.3155(5) 0.2381(4) 0.3663(4)
N6 N -0.1587(10) -0.3035(10) 0.0865(8)
N7 N 0.0209(14) -0.4007(12) 0.1312(11)
C1 C 0.4358(7) 0.0799(6) 0.3136(5)
C2 C 0.3799(6) 0.0430(6) 0.2490(5)
H1 H 0.4069 0.0637 0.2109
C3 C 0.2884(7) -0.0212(6) 0.2380(5)
C4 C 0.2469(8) -0.0538(6) 0.2939(6)
H2 H 0.1866 -0.0995 0.2873
C5 C 0.2955(8) -0.0181(7) 0.3586(6)
H3 H 0.2658 -0.0382 0.3963
C6 C 0.3888(7) 0.0477(6) 0.3698(5)
C7 C 0.4458(8) 0.0873(6) 0.4389(5)
C8 C 0.4166(9) 0.0697(7) 0.5029(6)
H4 H 0.3538 0.0297 0.5054
C9 C 0.4788(10) 0.1102(8) 0.5608(6)
H5 H 0.4602 0.0981 0.6034
C10 C 0.5725(9) 0.1711(8) 0.5559(5)
H6 H 0.6167 0.1996 0.5955
C11 C 0.5990(8) 0.1886(7) 0.4925(5)
C12 C 0.6944(8) 0.2490(6) 0.4785(5)
C13 C 0.7725(9) 0.2972(7) 0.5307(5)
H7 H 0.7668 0.2909 0.5763
C14 C 0.8574(9) 0.3537(7) 0.5131(6)
H8 H 0.9096 0.3866 0.5472
C15 C 0.8664(8) 0.3623(7) 0.4461(6)
H9 H 0.9253 0.3993 0.4340
C16 C 0.7866(8) 0.3154(7) 0.3967(5)
H10 H 0.7906 0.3247 0.3517
C17 C 0.2434(7) -0.0580(6) 0.1644(5)
H11 H 0.2776 -0.1039 0.1456
H12 H 0.2626 -0.0105 0.1389
C18 C 0.0945(14) -0.1922(10) 0.0199(7)
H13 H 0.1484 -0.2153 0.0393
H14 H 0.0296 -0.2374 0.0157
C19 C 0.1164(14) -0.1788(15) -0.0427(8)
H15 H 0.1198 -0.2340 -0.0714
H16 H 0.1820 -0.1360 -0.0393
H17 H 0.0631 -0.1565 -0.0626
C20 C -0.0580(10) -0.0412(11) 0.1850(9)
H18 H -0.0867 -0.1030 0.1879
H19 H -0.0665 -0.0042 0.2283
C21 C -0.1096(14) -0.0222(15) 0.1351(11)
H20 H -0.1817 -0.0329 0.1431
H21 H -0.1023 -0.0591 0.0921
H22 H -0.0832 0.0393 0.1330
C22 C 0.7603(6) 0.2220(6) 0.2382(4)
C23 C 0.8127(8) 0.2953(7) 0.2148(5)
H23 H 0.7777 0.3282 0.1922
C24 C 0.9222(8) 0.3187(8) 0.2264(5)
H24 H 0.9593 0.3674 0.2100
C25 C 0.9756(8) 0.2735(9) 0.2603(6)
H25 H 1.0475 0.2929 0.2689
C26 C 0.9235(7) 0.1997(8) 0.2817(6)
H26 H 0.9599 0.1673 0.3038
C27 C 0.8167(7) 0.1726(6) 0.2708(5)
H27 H 0.7816 0.1214 0.2849
C28 C 0.5974(6) 0.0848(6) 0.1717(4)
C29 C 0.5783(7) 0.0016(6) 0.1893(5)
H28 H 0.5733 -0.0033 0.2353
C30 C 0.5666(8) -0.0740(7) 0.1387(6)
H29 H 0.5490 -0.1299 0.1503
C31 C 0.5808(8) -0.0672(7) 0.0724(6)
H30 H 0.5752 -0.1184 0.0389
C32 C 0.6030(8) 0.0130(8) 0.0545(5)
H31 H 0.6126 0.0166 0.0087
C33 C 0.6117(7) 0.0913(6) 0.1037(5)
H32 H 0.6269 0.1466 0.0910
C34 C 0.5930(6) 0.4181(5) 0.3696(4)
C35 C 0.6645(6) 0.4614(5) 0.3290(5)
H33 H 0.6480 0.4479 0.2814
C36 C 0.7569(6) 0.5222(6) 0.3543(5)
C37 C 0.7833(7) 0.5455(6) 0.4251(5)
H34 H 0.8461 0.5856 0.4429
C38 C 0.7151(7) 0.5084(6) 0.4696(5)
H35 H 0.7314 0.5244 0.5173
C39 C 0.6227(6) 0.4474(5) 0.4416(4)
C40 C 0.5492(6) 0.4058(5) 0.4869(4)
C41 C 0.5563(7) 0.4201(6) 0.5588(4)
H36 H 0.6141 0.4597 0.5848
C42 C 0.4783(8) 0.3758(6) 0.5904(5)
H37 H 0.4836 0.3852 0.6384
C43 C 0.3911(8) 0.3171(6) 0.5534(5)
H38 H 0.3383 0.2873 0.5760
C44 C 0.3839(6) 0.3034(6) 0.4817(4)
C45 C 0.3005(7) 0.2435(6) 0.4336(5)
C46 C 0.2157(7) 0.1925(7) 0.4564(5)
H39 H 0.2097 0.1964 0.5035
C47 C 0.1376(7) 0.1341(7) 0.4078(6)
H40 H 0.0775 0.1012 0.4219
C48 C 0.1522(6) 0.1273(6) 0.3402(5)
H41 H 0.1040 0.0869 0.3068
C49 C 0.2419(7) 0.1822(6) 0.3207(5)
H42 H 0.2496 0.1792 0.2738
C50 C 0.8292(8) 0.5605(6) 0.3042(5)
H43 H 0.8043 0.5263 0.2580
H44 H 0.8973 0.5516 0.3152
C51 C 0.692(2) 0.7645(19) 0.2869(14)
H45 H 0.6206 0.7544 0.2990
H46 H 0.7323 0.8152 0.3205
C52 C 0.693(2) 0.785(2) 0.2344(16)
H47 H 0.6701 0.8392 0.2378
H48 H 0.6467 0.7387 0.2008
H49 H 0.7618 0.7946 0.2205
C53 C 0.9852(17) 0.7821(14) 0.3971(12)
H50 H 0.9946 0.7820 0.4460
H51 H 1.0312 0.7481 0.3754
C54 C 1.0228(17) 0.8545(14) 0.3929(13)
H52 H 1.0936 0.8709 0.4127
H53 H 0.9853 0.8935 0.4175
H54 H 1.0208 0.8593 0.3452
C55 C 0.3484(7) 0.2435(5) 0.1733(4)
C56 C 0.3510(7) 0.1725(6) 0.1206(4)
H55 H 0.4115 0.1530 0.1155
C57 C 0.2630(7) 0.1309(6) 0.0756(5)
H56 H 0.2657 0.0847 0.0395
C58 C 0.1731(8) 0.1563(7) 0.0831(5)
H57 H 0.1141 0.1270 0.0532
C59 C 0.1706(7) 0.2264(7) 0.1361(5)
H58 H 0.1095 0.2449 0.1410
C60 C 0.2554(7) 0.2687(6) 0.1809(5)
H59 H 0.2514 0.3146 0.2168
C61 C 0.4765(7) 0.4124(6) 0.2021(4)
C62 C 0.4307(8) 0.4768(6) 0.2390(5)
H60 H 0.4007 0.4676 0.2794
C63 C 0.4308(8) 0.5517(6) 0.2152(6)
H61 H 0.3990 0.5934 0.2388
C64 C 0.4778(10) 0.5676(8) 0.1559(7)
H62 H 0.4803 0.6205 0.1407
C65 C 0.5191(10) 0.5058(8) 0.1212(6)
H63 H 0.5480 0.5150 0.0804
C66 C 0.5203(7) 0.4273(6) 0.1441(5)
H64 H 0.5512 0.3857 0.1195
C67 C 0.5720(6) 0.2686(5) 0.2010(4)
H65 H 0.6298 0.3206 0.2055
H66 H 0.5551 0.2445 0.1519
C70 C -0.2306(14) -0.3215(12) 0.0488(10)
C71 C -0.3214(11) -0.3451(15) -0.0004(10)
H70 H -0.3688 -0.3974 0.0080
H71 H -0.3546 -0.2967 0.0046
H72 H -0.3010 -0.3567 -0.0464
C72 C 0.061(4) -0.467(3) 0.0997(15)
C73 C 0.104(4) -0.536(3) 0.0705(16)
Li1 Li -0.0372(15) -0.2909(14) 0.1675(12)
O4_2 O -0.0937(6) -0.2982(5) 0.2474(4)
Li1_2 Li 0.9628(15) 0.7091(14) 0.1675(12)
Cl1 Cl 0.8316(3) 0.4993(3) 0.68822(17)
O7 O 0.7489(7) 0.4208(6) 0.6720(5)
O8 O 0.8438(7) 0.5382(6) 0.7585(4)
O9 O 0.7960(10) 0.5595(8) 0.6506(6)
O10 O 0.9229(8) 0.4885(10) 0.6666(7)
Cl2 Cl 0.1801(3) -0.0266(3) 0.5931(2)
O15 O 0.1797(9) 0.0345(8) 0.5506(6)
O16 O 0.1112(8) -0.0196(8) 0.6399(6)
O17 O 0.1466(19) -0.1138(13) 0.5582(9)
O18 O 0.2758(9) -0.0163(12) 0.6257(10)
Cl3 Cl 0.3565(4) -0.3063(4) 0.0111(2)
O11 O 0.3189(16) -0.3026(13) -0.0506(7)
O12 O 0.3323(13) -0.2507(13) 0.0622(7)
O13 O 0.340(2) -0.3921(12) 0.0108(9)
O14 O 0.4569(14) -0.2807(12) 0.0073(15)
N5 N 0.4329(13) -0.1960(10) 0.2664(8)
C68 C 0.3526(14) -0.2387(11) 0.2406(9)
C69 C 0.2532(13) -0.2854(11) 0.2148(9)
H67 H 0.2090 -0.2864 0.2518
H68 H 0.2532 -0.3453 0.1937
H69 H 0.2279 -0.2569 0.1810
loop_
_geom_bond_atom_site_label_1
_geom_bond_atom_site_label_2
_geom_bond_site_symmetry_1
_geom_bond_site_symmetry_2
Pt1 P1 1_555 1_555
Pt2 P3 1_555 1_555
Cl1 O7 1_555 1_555
Cl2 O15 1_555 1_555
Cl3 O11 1_555 1_555
P1 C22 1_555 1_555
P2 O1 1_555 1_555
P3 C55 1_555 1_555
P4 O4 1_555 1_555
O1 Li1 1_555 1_555
O2 P2 1_555 1_555
O3 P2 1_555 1_555
O4 Li1_2 1_555 1_555
O5 P4 1_555 1_555
O6 P4 1_555 1_555
O8 Cl1 1_555 1_555
O9 Cl1 1_555 1_555
O10 Cl1 1_555 1_555
O12 Cl3 1_555 1_555
O13 Cl3 1_555 1_555
O14 Cl3 1_555 1_555
O16 Cl2 1_555 1_555
O17 Cl2 1_555 1_555
O18 Cl2 1_555 1_555
N1 Pt1 1_555 1_555
N2 Pt1 1_555 1_555
N3 Pt2 1_555 1_555
N4 Pt2 1_555 1_555
N5 C68 1_555 1_555
N6 C70 1_555 1_555
N7 C72 1_555 1_555
C1 Pt1 1_555 1_555
C2 C1 1_555 1_555
H1 C2 1_555 1_555
C3 C2 1_555 1_555
C4 C3 1_555 1_555
H2 C4 1_555 1_555
C5 C4 1_555 1_555
H3 C5 1_555 1_555
C6 C1 1_555 1_555
C7 N1 1_555 1_555
C8 C7 1_555 1_555
H4 C8 1_555 1_555
C9 C8 1_555 1_555
H5 C9 1_555 1_555
C10 C9 1_555 1_555
H6 C10 1_555 1_555
C11 N1 1_555 1_555
C12 N2 1_555 1_555
C13 C12 1_555 1_555
H7 C13 1_555 1_555
C14 C13 1_555 1_555
H8 C14 1_555 1_555
C15 C14 1_555 1_555
H9 C15 1_555 1_555
C16 N2 1_555 1_555
H10 C16 1_555 1_555
C17 P2 1_555 1_555
H11 C17 1_555 1_555
H12 C17 1_555 1_555
C18 O3 1_555 1_555
H13 C18 1_555 1_555
H14 C18 1_555 1_555
C19 C18 1_555 1_555
H15 C19 1_555 1_555
H16 C19 1_555 1_555
H17 C19 1_555 1_555
C20 O2 1_555 1_555
H18 C20 1_555 1_555
H19 C20 1_555 1_555
C21 C20 1_555 1_555
H20 C21 1_555 1_555
H21 C21 1_555 1_555
H22 C21 1_555 1_555
C22 C23 1_555 1_555
C23 H23 1_555 1_555
C24 C23 1_555 1_555
H24 C24 1_555 1_555
C25 C24 1_555 1_555
H25 C25 1_555 1_555
C26 C25 1_555 1_555
H26 C26 1_555 1_555
C27 C22 1_555 1_555
H27 C27 1_555 1_555
C28 P1 1_555 1_555
C29 C28 1_555 1_555
H28 C29 1_555 1_555
C30 C29 1_555 1_555
H29 C30 1_555 1_555
C31 C30 1_555 1_555
H30 C31 1_555 1_555
C32 C31 1_555 1_555
H31 C32 1_555 1_555
C33 C28 1_555 1_555
H32 C33 1_555 1_555
C34 Pt2 1_555 1_555
C35 C34 1_555 1_555
H33 C35 1_555 1_555
C36 C35 1_555 1_555
C37 C36 1_555 1_555
H34 C37 1_555 1_555
C38 C37 1_555 1_555
H35 C38 1_555 1_555
C39 C34 1_555 1_555
C40 N3 1_555 1_555
C41 C40 1_555 1_555
H36 C41 1_555 1_555
C42 C41 1_555 1_555
H37 C42 1_555 1_555
C43 C42 1_555 1_555
H38 C43 1_555 1_555
C44 N3 1_555 1_555
C45 N4 1_555 1_555
C46 C45 1_555 1_555
H39 C46 1_555 1_555
C47 C46 1_555 1_555
H40 C47 1_555 1_555
C48 C47 1_555 1_555
H41 C48 1_555 1_555
C49 N4 1_555 1_555
H42 C49 1_555 1_555
C50 P4 1_555 1_555
H43 C50 1_555 1_555
H44 C50 1_555 1_555
C51 O5 1_555 1_555
H45 C51 1_555 1_555
H46 C51 1_555 1_555
C52 C51 1_555 1_555
H47 C52 1_555 1_555
H48 C52 1_555 1_555
H49 C52 1_555 1_555
C53 O6 1_555 1_555
H50 C53 1_555 1_555
H51 C53 1_555 1_555
C54 C53 1_555 1_555
H52 C54 1_555 1_555
H53 C54 1_555 1_555
H54 C54 1_555 1_555
C55 C56 1_555 1_555
C56 H55 1_555 1_555
C57 C56 1_555 1_555
H56 C57 1_555 1_555
C58 C57 1_555 1_555
H57 C58 1_555 1_555
C59 C58 1_555 1_555
H58 C59 1_555 1_555
C60 C55 1_555 1_555
H59 C60 1_555 1_555
C61 P3 1_555 1_555
C62 C61 1_555 1_555
H60 C62 1_555 1_555
C63 C62 1_555 1_555
H61 C63 1_555 1_555
C64 C63 1_555 1_555
H62 C64 1_555 1_555
C65 C64 1_555 1_555
H63 C65 1_555 1_555
C66 C61 1_555 1_555
H64 C66 1_555 1_555
C67 P1 1_555 1_555
H65 C67 1_555 1_555
H66 C67 1_555 1_555
C68 C69 1_555 1_555
C69 H67 1_555 1_555
H68 C69 1_555 1_555
H69 C69 1_555 1_555
C70 C71 1_555 1_555
C71 H70 1_555 1_555
H71 C71 1_555 1_555
H72 C71 1_555 1_555
C72 C73 1_555 1_555
Li1 N6 1_555 1_555
O4_2 Li1 1_555 1_555
P3 C67 1_555 1_555
N7 Li1 1_555 1_555
C3 C17 1_555 1_555
C5 C6 1_555 1_555
C6 C7 1_555 1_555
C10 C11 1_555 1_555
C11 C12 1_555 1_555
C15 C16 1_555 1_555
C26 C27 1_555 1_555
C32 C33 1_555 1_555
C36 C50 1_555 1_555
C38 C39 1_555 1_555
C39 C40 1_555 1_555
C43 C44 1_555 1_555
C44 C45 1_555 1_555
C48 C49 1_555 1_555
C59 C60 1_555 1_555
C65 C66 1_555 1_555

#END
