
#######################################################################
#
#                 Cambridge Crystallographic Data Centre
#                                CCDC 
#
#######################################################################
#
# If this CIF has been generated from an entry in the Cambridge 
# Structural Database, then it will include bibliographic, chemical, 
# crystal, experimental, refinement or atomic coordinate data resulting 
# from the CCDC's data processing and validation procedures.
#
#######################################################################

data_XOSTEF
_symmetry_cell_setting           triclinic
_symmetry_space_group_name_H-M   'P -1'
_symmetry_Int_Tables_number      2
_space_group_name_Hall           '-P 1'
loop_
_symmetry_equiv_pos_site_id
_symmetry_equiv_pos_as_xyz
1 x,y,z
2 -x,-y,-z
_cell_length_a                   8.4037(5)
_cell_length_b                   8.5697(5)
_cell_length_c                   10.9509(6)
_cell_angle_alpha                74.038(4)
_cell_angle_beta                 84.244(3)
_cell_angle_gamma                70.545(3)
_cell_volume                     714.92
loop_
_atom_site_label
_atom_site_type_symbol
_atom_site_fract_x
_atom_site_fract_y
_atom_site_fract_z
Cu1 Cu 0.48704(4) 0.61247(4) 0.86675(3)
O1 O 0.6358(3) 0.5095(3) 1.0083(2)
O2 O 0.6110(3) 0.4154(3) 0.7429(2)
H1 H 0.6873 0.3334 0.7846
O3 O 0.3242(3) 0.7321(3) 0.7331(2)
O4 O 0.1229(3) 0.8997(3) 0.8345(2)
N1 N 0.6768(3) 0.7103(3) 0.7851(2)
C1 C 0.7934(4) 0.5356(4) 0.9940(3)
H4 H 0.8792 0.4416 0.9647
H5 H 0.8303 0.5397 1.0758
C2 C 0.7711(4) 0.7057(4) 0.8956(3)
H6 H 0.7075 0.8015 0.9333
H7 H 0.8828 0.7182 0.8670
C3 C 0.6918(4) 0.5157(4) 0.6503(3)
H8 H 0.6060 0.6071 0.5922
H9 H 0.7703 0.4427 0.5994
C4 C 0.7886(4) 0.5961(4) 0.7094(3)
H10 H 0.8773 0.5046 0.7650
H11 H 0.8449 0.6630 0.6415
C5 C 0.6141(4) 0.8878(4) 0.7010(3)
H12 H 0.5593 0.8839 0.6265
H13 H 0.7123 0.9274 0.6694
C6 C 0.4898(4) 1.0185(4) 0.7635(3)
H14 H 0.5520 1.0585 0.8141
H15 H 0.4139 0.9645 0.8217
C7 C 0.3857(4) 1.1706(4) 0.6626(3)
H16 H 0.4627 1.2238 0.6051
H17 H 0.3262 1.1288 0.6112
C8 C 0.2565(5) 1.3057(5) 0.7187(4)
H18 H 0.1820 1.2531 0.7777
H19 H 0.1894 1.3970 0.6502
H20 H 0.3150 1.3541 0.7642
C9 C 0.1832(4) 0.8485(4) 0.7388(3)
C10 C 0.0870(4) 0.9274(4) 0.6150(3)
C11 C 0.1264(4) 0.8439(4) 0.5182(3)
H21 H 0.2135 0.7367 0.5302
C12 C -0.0407(4) 1.0850(4) 0.5950(3)
H22 H -0.0689 1.1439 0.6600
Cu1A Cu 0.51296(4) 0.38753(4) 1.13325(3)
Cu1A_2 Cu -0.48704(4) 1.38753(4) 0.13325(3)
O1A O 0.3642(3) 0.4905(3) 0.9917(2)
O2A O 0.3890(3) 0.5846(3) 1.2571(2)
H1A H 0.3127 0.6666 1.2154
O3A O -0.3242(3) 1.2679(3) 0.2669(2)
O3A_2 O 0.6758(3) 0.2679(3) 1.2669(2)
O4A O -0.1229(3) 1.1003(3) 0.1655(2)
N1A N 0.3232(3) 0.2897(3) 1.2149(2)
C1A C 0.2066(4) 0.4644(4) 1.0060(3)
H4A H 0.1208 0.5584 1.0353
H5A H 0.1697 0.4603 0.9242
C2A C 0.2289(4) 0.2943(4) 1.1044(3)
H6A H 0.2925 0.1985 1.0667
H7A H 0.1172 0.2818 1.1330
C3A C 0.3082(4) 0.4843(4) 1.3497(3)
H8A H 0.3940 0.3929 1.4078
H9A H 0.2297 0.5573 1.4006
C4A C 0.2114(4) 0.4039(4) 1.2906(3)
H10A H 0.1227 0.4954 1.2350
H11A H 0.1551 0.3370 1.3585
C5A C 0.3859(4) 0.1122(4) 1.2990(3)
H12A H 0.4407 0.1161 1.3735
H13A H 0.2877 0.0726 1.3306
C6A C 0.5102(4) -0.0185(4) 1.2365(3)
H14A H 0.4480 -0.0585 1.1859
H15A H 0.5861 0.0355 1.1783
C7A C 0.6143(4) -0.1706(4) 1.3374(3)
H16A H 0.5373 -0.2238 1.3949
H17A H 0.6738 -0.1288 1.3888
C8A C 0.7435(5) -0.3057(5) 1.2813(4)
H18A H 0.8180 -0.2531 1.2223
H19A H 0.8106 -0.3970 1.3498
H20A H 0.6850 -0.3541 1.2358
C9A C -0.1832(4) 1.1515(4) 0.2612(3)
C10A C -0.0870(4) 1.0726(4) 0.3850(3)
C11A C -0.1264(4) 1.1561(4) 0.4818(3)
H21A H -0.2135 1.2633 0.4698
C12A C 0.0407(4) 0.9150(4) 0.4050(3)
H22A H 0.0689 0.8561 0.3400
O5 O 0.8349(3) 0.1512(3) 0.8996(2)
H2 H 0.8506 0.1486 0.9813
H3 H 0.9257 0.0800 0.8851
loop_
_geom_bond_atom_site_label_1
_geom_bond_atom_site_label_2
_geom_bond_site_symmetry_1
_geom_bond_site_symmetry_2
Cu1 O1 1_555 1_555
O1 C1 1_555 1_555
O2 Cu1 1_555 1_555
H1 O2 1_555 1_555
O3 Cu1 1_555 1_555
O4 C9 1_555 1_555
O5 H2 1_555 1_555
H3 O5 1_555 1_555
N1 Cu1 1_555 1_555
C1 H4 1_555 1_555
H5 C1 1_555 1_555
C2 N1 1_555 1_555
H6 C2 1_555 1_555
H7 C2 1_555 1_555
C3 O2 1_555 1_555
H8 C3 1_555 1_555
H9 C3 1_555 1_555
C4 N1 1_555 1_555
H10 C4 1_555 1_555
H11 C4 1_555 1_555
C5 N1 1_555 1_555
H12 C5 1_555 1_555
H13 C5 1_555 1_555
C6 C5 1_555 1_555
H14 C6 1_555 1_555
H15 C6 1_555 1_555
C7 C6 1_555 1_555
H16 C7 1_555 1_555
H17 C7 1_555 1_555
C8 C7 1_555 1_555
H18 C8 1_555 1_555
H19 C8 1_555 1_555
H20 C8 1_555 1_555
C9 O3 1_555 1_555
C10 C9 1_555 1_555
C11 C10 1_555 1_555
H21 C11 1_555 1_555
C12 C10 1_555 1_555
H22 C12 1_555 1_555
Cu1A O1 1_555 1_555
Cu1A_2 O3A 1_555 1_555
O1A Cu1 1_555 1_555
O2A Cu1A 1_555 1_555
H1A O2A 1_555 1_555
O3A C9A 1_555 1_555
O3A_2 Cu1A 1_555 1_555
O4A C9A 1_555 1_555
N1A Cu1A 1_555 1_555
C1A O1A 1_555 1_555
H4A C1A 1_555 1_555
H5A C1A 1_555 1_555
C2A N1A 1_555 1_555
H6A C2A 1_555 1_555
H7A C2A 1_555 1_555
C3A O2A 1_555 1_555
H8A C3A 1_555 1_555
H9A C3A 1_555 1_555
C4A N1A 1_555 1_555
H10A C4A 1_555 1_555
H11A C4A 1_555 1_555
C5A N1A 1_555 1_555
H12A C5A 1_555 1_555
H13A C5A 1_555 1_555
C6A C5A 1_555 1_555
H14A C6A 1_555 1_555
H15A C6A 1_555 1_555
C7A C6A 1_555 1_555
H16A C7A 1_555 1_555
H17A C7A 1_555 1_555
C8A C7A 1_555 1_555
H18A C8A 1_555 1_555
H19A C8A 1_555 1_555
H20A C8A 1_555 1_555
C9A C10A 1_555 1_555
C10A C11A 1_555 1_555
C11A C12 1_555 1_555
H21A C11A 1_555 1_555
C12A C11 1_555 1_555
H22A C12A 1_555 1_555
C1 C2 1_555 1_555
C3 C4 1_555 1_555
Cu1A O1A 1_555 1_555
C1A C2A 1_555 1_555
C3A C4A 1_555 1_555
C10A C12A 1_555 1_555

#END
