
#######################################################################
#
#                 Cambridge Crystallographic Data Centre
#                                CCDC 
#
#######################################################################
#
# If this CIF has been generated from an entry in the Cambridge 
# Structural Database, then it will include bibliographic, chemical, 
# crystal, experimental, refinement or atomic coordinate data resulting 
# from the CCDC's data processing and validation procedures.
#
#######################################################################

data_XOSZAG
_symmetry_cell_setting           monoclinic
_symmetry_space_group_name_H-M   'C 2/c'
_symmetry_Int_Tables_number      15
_space_group_name_Hall           '-C 2yn'
loop_
_symmetry_equiv_pos_site_id
_symmetry_equiv_pos_as_xyz
1 x,y,z
2 1/2+x,1/2+y,z
3 x,-y,1/2+z
4 1/2+x,1/2-y,1/2+z
5 -x,-y,-z
6 1/2-x,1/2-y,-z
7 -x,y,1/2-z
8 1/2-x,1/2+y,1/2-z
_cell_length_a                   10.9364(4)
_cell_length_b                   17.7748(5)
_cell_length_c                   14.4837(5)
_cell_angle_alpha                90
_cell_angle_beta                 110.149(2)
_cell_angle_gamma                90
_cell_volume                     2643.21
loop_
_atom_site_label
_atom_site_type_symbol
_atom_site_fract_x
_atom_site_fract_y
_atom_site_fract_z
Mo1 Mo 0.0000 0.22138(7) 0.2500
Cu1 Cu 0.10342(11) 0.04088(8) 0.18475(10)
O1 O 0.0917(8) 0.1644(5) 0.1991(8)
O2 O -0.1044(9) 0.2779(5) 0.1577(8)
N1 N -0.0638(7) 0.0215(5) 0.0890(6)
N2 N -0.7205(7) -0.0266(4) -0.2289(6)
C1 C -0.2606(9) 0.0710(6) -0.0304(8)
H1 H -0.3048 0.1123 -0.0658
C2 C -0.4595(9) -0.0090(6) -0.1068(7)
C3 C -0.1345(10) 0.0793(6) 0.0343(8)
H2 H -0.0960 0.1266 0.0408
C4 C -0.5175(10) -0.0795(6) -0.1289(8)
H3 H -0.4696 -0.1225 -0.1033
C5 C -0.1210(10) -0.0475(6) 0.0722(9)
H4 H -0.0724 -0.0887 0.1044
C6 C -0.6458(10) -0.0855(6) -0.1886(8)
H5 H -0.6824 -0.1332 -0.2015
C7 C -0.6651(9) 0.0414(6) -0.2082(8)
H6 H -0.7148 0.0835 -0.2359
C8 C -0.5367(9) 0.0520(5) -0.1474(8)
H7 H -0.5029 0.1004 -0.1342
C9 C -0.2449(9) -0.0597(6) 0.0112(8)
H8 H -0.2801 -0.1078 0.0043
C10 C -0.3213(9) 0.0019(5) -0.0427(7)
O1F O -0.0917(8) 0.1644(5) 0.3009(8)
O2F O 0.1044(9) 0.2779(5) 0.3423(8)
Cu1F Cu -0.10342(11) 0.04088(8) 0.31525(10)
N1B N 0.9362(7) -0.0215(5) 0.5890(6)
N2B N 0.2795(7) 0.0266(4) 0.2711(6)
C1B C 0.7394(9) -0.0710(6) 0.4696(8)
H1B H 0.6952 -0.1123 0.4342
C2B C 0.5405(9) 0.0090(6) 0.3932(7)
C3B C 0.8655(10) -0.0793(6) 0.5343(8)
H2B H 0.9040 -0.1266 0.5408
C4B C 0.4825(10) 0.0795(6) 0.3711(8)
H3B H 0.5304 0.1225 0.3967
C5B C 0.8790(10) 0.0475(6) 0.5722(9)
H4B H 0.9276 0.0887 0.6044
C6B C 0.3542(10) 0.0855(6) 0.3114(8)
H5B H 0.3176 0.1332 0.2985
C7B C 0.3349(9) -0.0414(6) 0.2918(8)
H6B H 0.2852 -0.0835 0.2641
C8B C 0.4633(9) -0.0520(5) 0.3526(8)
H7B H 0.4971 -0.1004 0.3658
C9B C 0.7551(9) 0.0597(6) 0.5112(8)
H8B H 0.7199 0.1078 0.5043
C10B C 0.6787(9) -0.0019(5) 0.4573(7)
Cu1B Cu -0.89658(11) -0.04088(8) -0.31525(10)
N1F N 0.0638(7) 0.0215(5) 0.4110(6)
N2D N -0.2795(7) 0.0266(4) 0.2289(6)
Cu1B_2 Cu 1.10342(11) -0.04088(8) 0.68475(10)
O3 O -0.1313(17) 0.2541(9) -0.0534(14)
O4 O -0.254(4) -0.254(2) 0.103(3)
O5 O -0.087(5) 0.199(2) -0.201(4)
loop_
_geom_bond_atom_site_label_1
_geom_bond_atom_site_label_2
_geom_bond_site_symmetry_1
_geom_bond_site_symmetry_2
Mo1 O1 1_555 1_555
Cu1 O1 1_555 1_555
O2 Mo1 1_555 1_555
N1 Cu1 1_555 1_555
N2 C6 1_555 1_555
C1 H1 1_555 1_555
C2 C4 1_555 1_555
C3 N1 1_555 1_555
H2 C3 1_555 1_555
C4 H3 1_555 1_555
C5 N1 1_555 1_555
H4 C5 1_555 1_555
C6 C4 1_555 1_555
H5 C6 1_555 1_555
C7 N2 1_555 1_555
H6 C7 1_555 1_555
C8 C2 1_555 1_555
H7 C8 1_555 1_555
C9 C5 1_555 1_555
H8 C9 1_555 1_555
C10 C1 1_555 1_555
O1F Mo1 1_555 1_555
O2F Mo1 1_555 1_555
Cu1F O1F 1_555 1_555
N1B C3B 1_555 1_555
N2B Cu1 1_555 1_555
C1B H1B 1_555 1_555
C2B C4B 1_555 1_555
C3B C1B 1_555 1_555
H2B C3B 1_555 1_555
C4B H3B 1_555 1_555
C5B N1B 1_555 1_555
H4B C5B 1_555 1_555
C6B N2B 1_555 1_555
H5B C6B 1_555 1_555
C7B N2B 1_555 1_555
H6B C7B 1_555 1_555
C8B C2B 1_555 1_555
H7B C8B 1_555 1_555
C9B C5B 1_555 1_555
H8B C9B 1_555 1_555
C10B C1B 1_555 1_555
Cu1B N2 1_555 1_555
N1F Cu1F 1_555 1_555
N2D Cu1F 1_555 1_555
Cu1B_2 N1B 1_555 1_555
C1 C3 1_555 1_555
C2 C10 1_555 1_555
C7 C8 1_555 1_555
C9 C10 1_555 1_555
C2B C10B 1_555 1_555
C4B C6B 1_555 1_555
C7B C8B 1_555 1_555
C9B C10B 1_555 1_555

#END
