
#######################################################################
#
#                 Cambridge Crystallographic Data Centre
#                                CCDC 
#
#######################################################################
#
# If this CIF has been generated from an entry in the Cambridge 
# Structural Database, then it will include bibliographic, chemical, 
# crystal, experimental, refinement or atomic coordinate data resulting 
# from the CCDC's data processing and validation procedures.
#
#######################################################################

data_XOSZUA
_symmetry_cell_setting           monoclinic
_symmetry_space_group_name_H-M   'P 21/c'
_symmetry_Int_Tables_number      14
_space_group_name_Hall           '-P 2ybc'
loop_
_symmetry_equiv_pos_site_id
_symmetry_equiv_pos_as_xyz
1 x,y,z
2 x,1/2-y,1/2+z
3 -x,-y,-z
4 -x,1/2+y,1/2-z
_cell_length_a                   10.7327(14)
_cell_length_b                   13.010(2)
_cell_length_c                   10.5513(14)
_cell_angle_alpha                90
_cell_angle_beta                 90.458(9)
_cell_angle_gamma                90
_cell_volume                     1473.26
loop_
_atom_site_label
_atom_site_type_symbol
_atom_site_fract_x
_atom_site_fract_y
_atom_site_fract_z
Sn1 Sn 0.853915(18) 0.924425(15) 0.185587(16)
O1 O 0.7145(2) 1.0269(2) 0.3013(2)
O2 O 1.0181(2) 1.33954(19) 0.4358(2)
O3 O 0.8684(3) 1.30770(19) 0.29281(19)
N1 N 0.7503(3) 1.1763(2) 0.4487(2)
C1 C 0.8088(4) 0.7967(3) 0.3024(4)
H1 H 0.7206 0.7850 0.2993
H2 H 0.8341 0.8108 0.3882
H3 H 0.8516 0.7367 0.2725
C2 C 0.9865(3) 1.0324(3) 0.2527(4)
H4 H 0.9912 1.0290 0.3435
H5 H 0.9618 1.1003 0.2273
H6 H 1.0666 1.0168 0.2178
C3 C 0.7487(4) 0.9531(3) 0.0183(3)
H7 H 0.7328 0.8894 -0.0247
H8 H 0.7947 0.9981 -0.0362
H9 H 0.6710 0.9848 0.0402
C4 C 0.5483(3) 1.1178(2) 0.3986(2)
C5 C 0.5952(3) 1.0365(3) 0.3205(2)
C6 C 0.5077(4) 0.9695(3) 0.2644(3)
H10 H 0.5359 0.9165 0.2129
C7 C 0.3817(3) 0.9802(3) 0.2837(3)
H11 H 0.3266 0.9340 0.2461
C8 C 0.3366(3) 1.0581(4) 0.3575(4)
H12 H 0.2512 1.0653 0.3689
C9 C 0.4181(3) 1.1257(3) 0.4148(3)
H13 H 0.3866 1.1780 0.4655
C10 C 0.6318(3) 1.1873(2) 0.4650(3)
C11 C 0.5849(5) 1.2707(3) 0.5517(5)
H14 H 0.6493 1.2890 0.6112
H15 H 0.5133 1.2462 0.5965
H16 H 0.5623 1.3299 0.5024
C12 C 0.8526(3) 1.2364(3) 0.4994(3)
H17 H 0.9131 1.1908 0.5386
H18 H 0.8215 1.2823 0.5644
C13 C 0.9163(3) 1.2995(2) 0.3969(2)
H19 H 0.771(3) 1.123(3) 0.401(3)
O2C O 0.9819(2) 0.83954(19) 0.0642(2)
Sn1C Sn 1.146085(18) 1.424425(15) 0.314413(16)
loop_
_geom_bond_atom_site_label_1
_geom_bond_atom_site_label_2
_geom_bond_site_symmetry_1
_geom_bond_site_symmetry_2
Sn1 O1 1_555 1_555
O1 C5 1_555 1_555
O2 C13 1_555 1_555
O3 C13 1_555 1_555
N1 C10 1_555 1_555
C1 Sn1 1_555 1_555
H1 C1 1_555 1_555
H2 C1 1_555 1_555
H3 C1 1_555 1_555
C2 Sn1 1_555 1_555
H4 C2 1_555 1_555
H5 C2 1_555 1_555
H6 C2 1_555 1_555
C3 Sn1 1_555 1_555
H7 C3 1_555 1_555
H8 C3 1_555 1_555
H9 C3 1_555 1_555
C4 C5 1_555 1_555
C5 C6 1_555 1_555
C6 H10 1_555 1_555
C7 C6 1_555 1_555
H11 C7 1_555 1_555
C8 C7 1_555 1_555
H12 C8 1_555 1_555
C9 C4 1_555 1_555
H13 C9 1_555 1_555
C10 C4 1_555 1_555
C11 C10 1_555 1_555
H14 C11 1_555 1_555
H15 C11 1_555 1_555
H16 C11 1_555 1_555
C12 N1 1_555 1_555
H17 C12 1_555 1_555
H18 C12 1_555 1_555
C13 C12 1_555 1_555
H19 N1 1_555 1_555
O2C Sn1 1_555 1_555
Sn1C O2 1_555 1_555
C8 C9 1_555 1_555

#END
