
#######################################################################
#
#                 Cambridge Crystallographic Data Centre
#                                CCDC 
#
#######################################################################
#
# If this CIF has been generated from an entry in the Cambridge 
# Structural Database, then it will include bibliographic, chemical, 
# crystal, experimental, refinement or atomic coordinate data resulting 
# from the CCDC's data processing and validation procedures.
#
#######################################################################

data_XOTBAJ
_symmetry_cell_setting           monoclinic
_symmetry_space_group_name_H-M   'P 21/n'
_symmetry_Int_Tables_number      14
_space_group_name_Hall           '-P 2yn'
loop_
_symmetry_equiv_pos_site_id
_symmetry_equiv_pos_as_xyz
1 x,y,z
2 1/2+x,1/2-y,1/2+z
3 -x,-y,-z
4 1/2-x,1/2+y,1/2-z
_cell_length_a                   10.7790(12)
_cell_length_b                   13.3111(13)
_cell_length_c                   16.1450(19)
_cell_angle_alpha                90
_cell_angle_beta                 91.132(9)
_cell_angle_gamma                90
_cell_volume                     2316.04
loop_
_atom_site_label
_atom_site_type_symbol
_atom_site_fract_x
_atom_site_fract_y
_atom_site_fract_z
Sn1 Sn 0.59886(2) 0.301694(18) 0.198519(15)
O1 O 0.5929(2) 0.15461(19) 0.27967(15)
O2 O 0.8602(2) -0.05616(19) 0.35994(16)
O3 O 1.0533(2) -0.0162(2) 0.40136(17)
N1 N 0.7675(3) 0.1235(2) 0.3929(2)
H1 H 0.736(6) 0.136(5) 0.336(4)
C1 C 0.5492(4) 0.1238(3) 0.4218(2)
C2 C 0.5112(3) 0.1381(3) 0.3372(2)
C3 C 0.3832(4) 0.1362(3) 0.3207(3)
H2 H 0.3548 0.1412 0.2661
C4 C 0.2983(5) 0.1272(4) 0.3825(4)
H3 H 0.2140 0.1268 0.3691
C5 C 0.3371(5) 0.1185(4) 0.4654(4)
H4 H 0.2792 0.1145 0.5072
C6 C 0.4599(5) 0.1161(3) 0.4837(3)
H5 H 0.4860 0.1092 0.5386
C7 C 0.6778(4) 0.1160(3) 0.4447(2)
H6 H 0.6981 0.1049 0.5002
C8 C 0.8974(4) 0.1065(3) 0.4145(3)
H7 H 0.9091 0.1154 0.4738
H8 H 0.9473 0.1567 0.3870
C9 C 0.9430(3) 0.0029(3) 0.3906(2)
C10 C 0.7945(3) 0.2788(3) 0.2065(2)
C11 C 0.8755(4) 0.3593(4) 0.2212(3)
H9 H 0.8438 0.4237 0.2279
C12 C 1.0021(5) 0.3438(5) 0.2259(3)
H10 H 1.0551 0.3974 0.2373
C13 C 1.0502(5) 0.2491(6) 0.2138(4)
H11 H 1.1356 0.2393 0.2165
C14 C 0.9731(5) 0.1691(5) 0.1979(3)
H12 H 1.0057 0.1053 0.1897
C15 C 0.8460(4) 0.1846(4) 0.1941(3)
H13 H 0.7938 0.1304 0.1830
C16 C 0.4934(3) 0.3690(3) 0.2938(2)
C17 C 0.5380(4) 0.3633(3) 0.3756(2)
H14 H 0.6170 0.3377 0.3862
C18 C 0.4670(4) 0.3951(3) 0.4408(3)
H15 H 0.4972 0.3889 0.4949
C19 C 0.3502(4) 0.4366(3) 0.4255(3)
H16 H 0.3018 0.4578 0.4693
C20 C 0.3071(4) 0.4461(3) 0.3452(3)
H17 H 0.2304 0.4759 0.3347
C21 C 0.3766(3) 0.4116(3) 0.2798(2)
H18 H 0.3451 0.4170 0.2260
C22 C 0.5062(3) 0.2289(3) 0.0978(2)
C23 C 0.5740(4) 0.1883(3) 0.0329(3)
H19 H 0.6600 0.1946 0.0331
C24 C 0.5135(5) 0.1384(4) -0.0318(3)
H20 H 0.5590 0.1116 -0.0749
C25 C 0.3871(5) 0.1287(4) -0.0323(3)
H21 H 0.3472 0.0946 -0.0755
C26 C 0.3194(4) 0.1685(3) 0.0299(3)
H22 H 0.2334 0.1619 0.0290
C27 C 0.3783(4) 0.2185(3) 0.0943(3)
H23 H 0.3312 0.2459 0.1364
O2C O 0.6398(2) 0.44384(19) 0.14006(16)
Sn1C Sn 0.90114(2) -0.198306(18) 0.301481(15)
loop_
_geom_bond_atom_site_label_1
_geom_bond_atom_site_label_2
_geom_bond_site_symmetry_1
_geom_bond_site_symmetry_2
Sn1 O1 1_555 1_555
O1 C2 1_555 1_555
O2 C9 1_555 1_555
O3 C9 1_555 1_555
N1 H1 1_555 1_555
C1 C2 1_555 1_555
C2 C3 1_555 1_555
C3 H2 1_555 1_555
C4 C3 1_555 1_555
H3 C4 1_555 1_555
C5 C4 1_555 1_555
H4 C5 1_555 1_555
C6 C1 1_555 1_555
H5 C6 1_555 1_555
C7 N1 1_555 1_555
H6 C7 1_555 1_555
C8 N1 1_555 1_555
H7 C8 1_555 1_555
H8 C8 1_555 1_555
C9 C8 1_555 1_555
C10 Sn1 1_555 1_555
C11 C10 1_555 1_555
H9 C11 1_555 1_555
C12 C11 1_555 1_555
H10 C12 1_555 1_555
C13 C12 1_555 1_555
H11 C13 1_555 1_555
C14 C13 1_555 1_555
H12 C14 1_555 1_555
C15 C10 1_555 1_555
H13 C15 1_555 1_555
C16 Sn1 1_555 1_555
C17 C16 1_555 1_555
H14 C17 1_555 1_555
C18 C17 1_555 1_555
H15 C18 1_555 1_555
C19 C18 1_555 1_555
H16 C19 1_555 1_555
C20 C19 1_555 1_555
H17 C20 1_555 1_555
C21 C16 1_555 1_555
H18 C21 1_555 1_555
C22 Sn1 1_555 1_555
C23 C22 1_555 1_555
H19 C23 1_555 1_555
C24 C23 1_555 1_555
H20 C24 1_555 1_555
C25 C24 1_555 1_555
H21 C25 1_555 1_555
C26 C25 1_555 1_555
H22 C26 1_555 1_555
C27 C22 1_555 1_555
H23 C27 1_555 1_555
O2C Sn1 1_555 1_555
Sn1C O2 1_555 1_555
C1 C7 1_555 1_555
C5 C6 1_555 1_555
C14 C15 1_555 1_555
C20 C21 1_555 1_555
C26 C27 1_555 1_555

#END
