
#######################################################################
#
#                 Cambridge Crystallographic Data Centre
#                                CCDC 
#
#######################################################################
#
# If this CIF has been generated from an entry in the Cambridge 
# Structural Database, then it will include bibliographic, chemical, 
# crystal, experimental, refinement or atomic coordinate data resulting 
# from the CCDC's data processing and validation procedures.
#
#######################################################################

data_XOTBUF
_symmetry_cell_setting           monoclinic
_symmetry_space_group_name_H-M   'C 2/c'
_symmetry_Int_Tables_number      15
_space_group_name_Hall           '-C 2yn'
loop_
_symmetry_equiv_pos_site_id
_symmetry_equiv_pos_as_xyz
1 x,y,z
2 -x,y,1/2-z
3 1/2+x,1/2+y,z
4 1/2-x,1/2+y,1/2-z
5 -x,-y,-z
6 x,-y,1/2+z
7 1/2-x,1/2-y,-z
8 1/2+x,1/2-y,1/2+z
_cell_length_a                   17.977(4)
_cell_length_b                   11.648(2)
_cell_length_c                   24.687(5)
_cell_angle_alpha                90
_cell_angle_beta                 91.54(3)
_cell_angle_gamma                90
_cell_volume                     5167.49
loop_
_atom_site_label
_atom_site_type_symbol
_atom_site_fract_x
_atom_site_fract_y
_atom_site_fract_z
Fe1 Fe 0.0000 -0.08020(12) 0.2500
O1 O 0.1053(3) -0.0749(5) 0.2868(2)
H1 H 0.1334 -0.0380 0.2678
N1 N 0.0000 0.1187(8) 0.2500
N2 N 0.0000 0.7285(8) 0.2500
N3 N 0.0476(3) -0.0869(5) 0.1679(2)
N4 N 0.1188(4) -0.0242(7) -0.1122(3)
C1 C 0.0824(4) -0.0707(6) 0.0575(3)
C2 C 0.0000 0.4866(11) 0.2500
C3 C 0.0986(4) -0.0574(7) -0.0013(3)
C4 C 0.0341(5) -0.1541(8) 0.0772(3)
H2 H 0.0126 -0.2071 0.0534
C5 C 0.0000 0.3590(10) 0.2500
C6 C -0.0640(5) 0.2947(7) 0.2369(3)
H3 H -0.1084 0.3317 0.2275
C7 C -0.0609(4) 0.1789(7) 0.2380(3)
H4 H -0.1045 0.1386 0.2299
C8 C 0.1163(5) 0.0012(8) 0.0973(3)
H5 H 0.1513 0.0558 0.0878
C9 C 0.0180(5) -0.1589(7) 0.1304(3)
H6 H -0.0151 -0.2148 0.1417
C10 C 0.0963(5) -0.0116(8) 0.1504(3)
H7 H 0.1189 0.0365 0.1760
C11 C 0.0609(5) 0.6684(8) 0.2399(3)
H8 H 0.1042 0.7089 0.2330
C12 C 0.0764(5) -0.1073(9) -0.0950(4)
H9 H 0.0529 -0.1545 -0.1205
C13 C 0.0646(5) -0.1288(8) -0.0398(4)
H10 H 0.0346 -0.1895 -0.0292
C14 C 0.1522(7) 0.0418(11) -0.0744(5)
H11 H 0.1822 0.1020 -0.0855
C15 C 0.1440(6) 0.0243(9) -0.0196(4)
H12 H 0.1704 0.0700 0.0050
C16 C 0.0641(5) 0.5509(8) 0.2391(4)
H13 H 0.1085 0.5139 0.2314
C6A C 0.0640(5) 0.2947(7) 0.2631(3)
H3A H 0.1084 0.3317 0.2725
C7A C 0.0609(4) 0.1789(7) 0.2620(3)
H4A H 0.1045 0.1386 0.2701
C16A C -0.0641(5) 0.5509(8) 0.2609(4)
H13A H -0.1085 0.5139 0.2686
C11A C -0.0609(5) 0.6684(8) 0.2601(3)
H8A H -0.1042 0.7089 0.2670
O1A O -0.1053(3) -0.0749(5) 0.2132(2)
H1A H -0.1334 -0.0380 0.2322
N3A N -0.0476(3) -0.0869(5) 0.3321(2)
N4A N -0.1188(4) -0.0242(7) 0.6122(3)
C1A C -0.0824(4) -0.0707(6) 0.4425(3)
C3A C -0.0986(4) -0.0574(7) 0.5013(3)
C4A C -0.0341(5) -0.1541(8) 0.4228(3)
H2A H -0.0126 -0.2071 0.4466
C8A C -0.1163(5) 0.0012(8) 0.4027(3)
H5A H -0.1513 0.0558 0.4122
C9A C -0.0180(5) -0.1589(7) 0.3696(3)
H6A H 0.0151 -0.2148 0.3583
C10A C -0.0963(5) -0.0116(8) 0.3496(3)
H7A H -0.1189 0.0365 0.3240
C12A C -0.0764(5) -0.1073(9) 0.5950(4)
H9A H -0.0529 -0.1545 0.6205
C13A C -0.0646(5) -0.1288(8) 0.5398(4)
H10A H -0.0346 -0.1895 0.5292
C14A C -0.1522(7) 0.0418(11) 0.5744(5)
H11A H -0.1822 0.1020 0.5855
C15A C -0.1440(6) 0.0243(9) 0.5196(4)
H12A H -0.1704 0.0700 0.4950
Fe1_2 Fe 0.0000 0.91980(12) 0.2500
N2_2 N 0.0000 -0.2715(8) 0.2500
N5 N 0.2490(7) 0.7800(12) 0.1424(5)
C17 C 0.2141(8) 0.6834(13) 0.0628(6)
H14 H 0.1881 0.6211 0.0482
C18 C 0.2886(9) 0.8420(13) 0.0536(6)
H15 H 0.3163 0.8930 0.0333
C19 C 0.2503(6) 0.7569(9) 0.0302(4)
C20 C 0.2161(9) 0.7025(14) 0.1188(6)
H16 H 0.1900 0.6512 0.1400
C21 C 0.2851(11) 0.8522(18) 0.1136(8)
H17 H 0.3098 0.9126 0.1308
N5F N 0.2510(7) 0.7200(12) -0.1424(5)
C17F C 0.2859(8) 0.8166(13) -0.0628(6)
H14F H 0.3119 0.8789 -0.0482
C18F C 0.2114(9) 0.6580(13) -0.0536(6)
H15F H 0.1837 0.6070 -0.0333
C19F C 0.2497(6) 0.7431(9) -0.0302(4)
C20F C 0.2839(9) 0.7975(14) -0.1188(6)
H16F H 0.3100 0.8488 -0.1400
C21F C 0.2149(11) 0.6478(18) -0.1136(8)
H17F H 0.1902 0.5874 -0.1308
Cl1 Cl 0.1664(8) 0.3007(13) 0.1297(5)
O2 O 0.2019(14) 0.264(2) 0.0766(10)
O3 O 0.2062(16) 0.224(3) 0.1684(11)
O4 O 0.1800(18) 0.431(3) 0.1377(12)
O5 O 0.0797(17) 0.292(2) 0.1143(9)
O6 O 0.2647(6) 0.3591(10) 0.2514(4)
loop_
_geom_bond_atom_site_label_1
_geom_bond_atom_site_label_2
_geom_bond_site_symmetry_1
_geom_bond_site_symmetry_2
Fe1 O1 1_555 1_555
O1 H1 1_555 1_555
N1 Fe1 1_555 1_555
N2 C11 1_555 1_555
N3 Fe1 1_555 1_555
N4 C12 1_555 1_555
C1 C3 1_555 1_555
C2 C5 1_555 1_555
C3 C13 1_555 1_555
C4 C1 1_555 1_555
H2 C4 1_555 1_555
C5 C6 1_555 1_555
C6 H3 1_555 1_555
C7 N1 1_555 1_555
H4 C7 1_555 1_555
C8 C1 1_555 1_555
H5 C8 1_555 1_555
C9 N3 1_555 1_555
H6 C9 1_555 1_555
C10 N3 1_555 1_555
H7 C10 1_555 1_555
C11 H8 1_555 1_555
C12 H9 1_555 1_555
C13 C12 1_555 1_555
H10 C13 1_555 1_555
C14 N4 1_555 1_555
H11 C14 1_555 1_555
C15 C3 1_555 1_555
H12 C15 1_555 1_555
C16 C2 1_555 1_555
H13 C16 1_555 1_555
N5 C20 1_555 1_555
C17 H14 1_555 1_555
C18 H15 1_555 1_555
C19 C17 1_555 1_555
C20 C17 1_555 1_555
H16 C20 1_555 1_555
C21 N5 1_555 1_555
H17 C21 1_555 1_555
Cl1 O2 1_555 1_555
O3 Cl1 1_555 1_555
O4 Cl1 1_555 1_555
O5 Cl1 1_555 1_555
C6A C5 1_555 1_555
H3A C6A 1_555 1_555
C7A N1 1_555 1_555
H4A C7A 1_555 1_555
C16A C2 1_555 1_555
H13A C16A 1_555 1_555
C11A N2 1_555 1_555
H8A C11A 1_555 1_555
O1A Fe1 1_555 1_555
H1A O1A 1_555 1_555
N3A Fe1 1_555 1_555
N4A C12A 1_555 1_555
C1A C3A 1_555 1_555
C3A C13A 1_555 1_555
C4A C1A 1_555 1_555
H2A C4A 1_555 1_555
C8A C1A 1_555 1_555
H5A C8A 1_555 1_555
C9A N3A 1_555 1_555
H6A C9A 1_555 1_555
C10A N3A 1_555 1_555
H7A C10A 1_555 1_555
C12A H9A 1_555 1_555
C13A C12A 1_555 1_555
H10A C13A 1_555 1_555
C14A N4A 1_555 1_555
H11A C14A 1_555 1_555
C15A C3A 1_555 1_555
H12A C15A 1_555 1_555
Fe1_2 N2 1_555 1_555
N2_2 Fe1 1_555 1_555
N5F C20F 1_555 1_555
C17F H14F 1_555 1_555
C18F H15F 1_555 1_555
C19F C19 1_555 1_555
C20F C17F 1_555 1_555
H16F C20F 1_555 1_555
C21F N5F 1_555 1_555
H17F C21F 1_555 1_555
C4 C9 1_555 1_555
C6 C7 1_555 1_555
C8 C10 1_555 1_555
C11 C16 1_555 1_555
C14 C15 1_555 1_555
C18 C19 1_555 1_555
C18 C21 1_555 1_555
C6A C7A 1_555 1_555
C16A C11A 1_555 1_555
C4A C9A 1_555 1_555
C8A C10A 1_555 1_555
C14A C15A 1_555 1_555
C17F C19F 1_555 1_555
C18F C19F 1_555 1_555
C18F C21F 1_555 1_555

#END
