
#######################################################################
#
#                 Cambridge Crystallographic Data Centre
#                                CCDC 
#
#######################################################################
#
# If this CIF has been generated from an entry in the Cambridge 
# Structural Database, then it will include bibliographic, chemical, 
# crystal, experimental, refinement or atomic coordinate data resulting 
# from the CCDC's data processing and validation procedures.
#
#######################################################################

data_XOTHEU
_symmetry_cell_setting           triclinic
_symmetry_space_group_name_H-M   'P -1'
_symmetry_Int_Tables_number      2
_space_group_name_Hall           '-P 1'
loop_
_symmetry_equiv_pos_site_id
_symmetry_equiv_pos_as_xyz
1 x,y,z
2 -x,-y,-z
_cell_length_a                   11.1175(9)
_cell_length_b                   11.5437(10)
_cell_length_c                   11.6647(10)
_cell_angle_alpha                85.729(6)
_cell_angle_beta                 89.691(6)
_cell_angle_gamma                61.458(6)
_cell_volume                     1310.65
loop_
_atom_site_label
_atom_site_type_symbol
_atom_site_fract_x
_atom_site_fract_y
_atom_site_fract_z
O1 O -0.0288(2) 0.2671(2) 0.5763(2)
O2 O 0.0561(2) 0.37316(19) 0.4718(2)
C1 C 0.0643(3) 0.2644(3) 0.5137(3)
Mn1 Mn -0.12837(5) 0.49032(4) 0.58291(4)
O3 O -0.2957(2) 0.5388(2) 0.4712(2)
H1 H -0.3447 0.6172 0.4652
H2 H -0.2558 0.5186 0.4066
O4 O 0.7277(3) -0.4027(2) -0.2807(2)
O5 O 0.9308(3) -0.5661(3) -0.2299(2)
N1 N 0.6272(3) -0.4858(3) 0.2458(2)
N2 N 0.4693(2) -0.3624(2) 0.1071(2)
N3 N 0.3919(2) -0.0992(2) 0.1088(2)
N4 N 0.4770(2) -0.0214(2) 0.2975(2)
N5 N 0.5410(3) -0.1986(2) 0.4215(2)
C2 C 0.8117(4) -0.4825(3) -0.2046(3)
C3 C 0.7684(3) -0.4812(3) -0.0835(3)
C4 C 0.6296(3) -0.4088(3) -0.0593(3)
H3 H 0.5639 -0.3574 -0.1166
C5 C 0.5944(3) -0.4171(3) 0.0534(3)
C6 C 0.6915(3) -0.4949(3) 0.1418(3)
C7 C 0.8310(3) -0.5672(3) 0.1183(3)
C8 C 0.8652(3) -0.5582(3) 0.0054(3)
H4 H 0.9568 -0.6053 -0.0130
C9 C 0.9342(4) -0.6482(4) 0.2139(3)
H5 H 1.0208 -0.7039 0.1818
H6 H 0.9031 -0.7020 0.2576
H7 H 0.9443 -0.5902 0.2632
C10 C 0.4951(3) -0.4049(3) 0.2209(3)
C11 C 0.3875(4) -0.3657(4) 0.3068(3)
H8 H 0.4237 -0.4226 0.3763
H9 H 0.3115 -0.3734 0.2772
H10 H 0.3574 -0.2758 0.3228
C12 C 0.3382(3) -0.2676(3) 0.0513(3)
H11 H 0.2653 -0.2724 0.0938
H12 H 0.3345 -0.2928 -0.0256
C13 C 0.3125(3) -0.1264(3) 0.0429(3)
C14 C 0.2052(3) -0.0302(3) -0.0273(3)
H13 H 0.1523 -0.0530 -0.0725
C15 C 0.1787(4) 0.0989(3) -0.0290(3)
H14 H 0.1074 0.1650 -0.0750
C16 C 0.2603(3) 0.1292(3) 0.0396(3)
H15 H 0.2447 0.2158 0.0401
C17 C 0.3652(3) 0.0279(3) 0.1070(3)
C18 C 0.4569(3) 0.0521(3) 0.1852(3)
H16 H 0.5449 0.0248 0.1504
H17 H 0.4161 0.1459 0.1952
C19 C 0.5709(3) -0.1501(3) 0.3264(3)
C20 C 0.6948(3) -0.2239(3) 0.2588(3)
H18 H 0.6677 -0.2353 0.1843
H19 H 0.7523 -0.3089 0.2983
H20 H 0.7444 -0.1750 0.2501
C21 C 0.4174(3) -0.0967(3) 0.4564(3)
C22 C 0.3773(3) 0.0150(3) 0.3794(3)
C23 C 0.2622(3) 0.1348(3) 0.3944(3)
H21 H 0.2385 0.2095 0.3443
C24 C 0.1846(3) 0.1368(3) 0.4881(3)
C25 C 0.2218(3) 0.0235(3) 0.5635(3)
H22 H 0.1657 0.0287 0.6245
C26 C 0.3389(3) -0.0962(3) 0.5507(3)
C27 C 0.3797(4) -0.2164(3) 0.6320(3)
H23 H 0.3320 -0.1909 0.7023
H24 H 0.4767 -0.2589 0.6482
H25 H 0.3565 -0.2766 0.5978
O2A O -0.0561(2) 0.62684(19) 0.5282(2)
Mn1A Mn 0.12837(5) 0.50968(4) 0.41709(4)
Mn1_2 Mn 0.87163(5) -0.50968(4) -0.41709(4)
O4_2 O -0.2723(3) 0.5973(2) 0.7193(2)
O5_2 O -0.0692(3) 0.4339(3) 0.7701(2)
O6 O 0.0514(3) -0.1174(3) 0.2268(2)
H26 H 0.0405 -0.1657 0.2761
C28 C 0.0754(5) -0.0248(5) 0.2803(5)
H27 H 0.0023 0.0591 0.2681
H28 H 0.1590 -0.0294 0.2491
H29 H 0.0945 -0.0514 0.3630
loop_
_geom_bond_atom_site_label_1
_geom_bond_atom_site_label_2
_geom_bond_site_symmetry_1
_geom_bond_site_symmetry_2
O1 C1 1_555 1_555
O2 C1 1_555 1_555
C1 C24 1_555 1_555
Mn1 O1 1_555 1_555
O3 Mn1 1_555 1_555
H1 O3 1_555 1_555
H2 O3 1_555 1_555
O4 C2 1_555 1_555
O5 C2 1_555 1_555
N1 C6 1_555 1_555
N2 C5 1_555 1_555
N3 C13 1_555 1_555
N4 C18 1_555 1_555
N5 C19 1_555 1_555
C2 C3 1_555 1_555
C3 C4 1_555 1_555
C4 H3 1_555 1_555
C5 C4 1_555 1_555
C6 C5 1_555 1_555
C7 C6 1_555 1_555
C8 C3 1_555 1_555
H4 C8 1_555 1_555
C9 C7 1_555 1_555
H5 C9 1_555 1_555
H6 C9 1_555 1_555
H7 C9 1_555 1_555
C10 N1 1_555 1_555
C11 C10 1_555 1_555
H8 C11 1_555 1_555
H9 C11 1_555 1_555
H10 C11 1_555 1_555
C12 N2 1_555 1_555
H11 C12 1_555 1_555
H12 C12 1_555 1_555
C13 C12 1_555 1_555
C14 C13 1_555 1_555
H13 C14 1_555 1_555
C15 C14 1_555 1_555
H14 C15 1_555 1_555
C16 C15 1_555 1_555
H15 C16 1_555 1_555
C17 N3 1_555 1_555
C18 C17 1_555 1_555
H16 C18 1_555 1_555
H17 C18 1_555 1_555
C19 N4 1_555 1_555
C20 C19 1_555 1_555
H18 C20 1_555 1_555
H19 C20 1_555 1_555
H20 C20 1_555 1_555
C21 N5 1_555 1_555
C22 N4 1_555 1_555
C23 C22 1_555 1_555
H21 C23 1_555 1_555
C24 C23 1_555 1_555
C25 C24 1_555 1_555
H22 C25 1_555 1_555
C26 C21 1_555 1_555
C27 C26 1_555 1_555
H23 C27 1_555 1_555
H24 C27 1_555 1_555
H25 C27 1_555 1_555
O6 H26 1_555 1_555
C28 O6 1_555 1_555
H27 C28 1_555 1_555
H28 C28 1_555 1_555
H29 C28 1_555 1_555
O2A Mn1 1_555 1_555
Mn1A O2 1_555 1_555
Mn1_2 O4 1_555 1_555
O4_2 Mn1 1_555 1_555
O5_2 Mn1 1_555 1_555
O2 Mn1 1_555 1_555
O5 Mn1_2 1_555 1_555
N2 C10 1_555 1_555
C7 C8 1_555 1_555
C16 C17 1_555 1_555
C21 C22 1_555 1_555
C25 C26 1_555 1_555
O2A Mn1A 1_555 1_555

#END
