
#######################################################################
#
#                 Cambridge Crystallographic Data Centre
#                                CCDC 
#
#######################################################################
#
# If this CIF has been generated from an entry in the Cambridge 
# Structural Database, then it will include bibliographic, chemical, 
# crystal, experimental, refinement or atomic coordinate data resulting 
# from the CCDC's data processing and validation procedures.
#
#######################################################################

data_XOTHET
_symmetry_cell_setting           triclinic
_symmetry_space_group_name_H-M   'P 1'
_symmetry_Int_Tables_number      1
_space_group_name_Hall           'P 1'
loop_
_symmetry_equiv_pos_site_id
_symmetry_equiv_pos_as_xyz
1 x,y,z
_cell_length_a                   14.5860(11)
_cell_length_b                   15.9383(12)
_cell_length_c                   20.4614(15)
_cell_angle_alpha                79.1710(10)
_cell_angle_beta                 74.1830(10)
_cell_angle_gamma                82.2190(10)
_cell_volume                     4477.31
loop_
_atom_site_label
_atom_site_type_symbol
_atom_site_fract_x
_atom_site_fract_y
_atom_site_fract_z
Cd1 Cd 0.64355(2) -0.30115(3) 0.466556(16)
Cd2 Cd 1.11771(2) 0.16613(3) -0.545280(17)
Cd4 Cd 0.78299(2) -0.13966(3) 0.539930(17)
Cd6 Cd 1.28665(2) 0.36615(2) -0.457620(17)
N7 N 0.8437(3) -0.0920(3) 0.42816(19)
C67 C 0.8079(4) -0.0168(4) 0.3993(2)
H49 H 0.7589 0.0158 0.4277
C68 C 0.8388(3) 0.0157(4) 0.3305(3)
H50 H 0.8124 0.0702 0.3126
C69 C 0.9086(3) -0.0314(3) 0.2871(2)
C70 C 0.9446(3) -0.1098(3) 0.3173(2)
H51 H 0.9924 -0.1444 0.2900
C71 C 0.9112(3) -0.1373(4) 0.3863(3)
H52 H 0.9372 -0.1911 0.4056
C72 C 0.9413(3) 0.0016(3) 0.2130(2)
C73 C 1.0349(3) -0.0193(3) 0.1755(2)
H53 H 1.0771 -0.0579 0.1974
C74 C 1.0668(3) 0.0158(3) 0.1066(2)
H54 H 1.1308 0.0015 0.0823
C75 C 1.0063(3) 0.0718(3) 0.0726(2)
C76 C 0.9113(3) 0.0913(3) 0.1095(2)
H55 H 0.8684 0.1282 0.0872
C77 C 0.8804(3) 0.0568(3) 0.1785(2)
H56 H 0.8164 0.0709 0.2029
C78 C 1.0401(3) 0.1104(3) -0.0007(2)
C79 C 1.1066(3) 0.0640(4) -0.0480(2)
H57 H 1.1301 0.0071 -0.0330
C80 C 1.1376(4) 0.1007(4) -0.1160(3)
H58 H 1.1830 0.0689 -0.1472
C81 C 1.1033(3) 0.1836(4) -0.1396(2)
C82 C 1.0372(3) 0.2294(4) -0.0936(2)
H59 H 1.0129 0.2858 -0.1093
C83 C 1.0064(4) 0.1937(4) -0.0253(3)
H60 H 0.9616 0.2262 0.0056
N8 N 1.2207(3) 0.3047(3) -0.3469(2)
C84 C 1.2742(4) 0.2449(4) -0.3134(3)
H61 H 1.3386 0.2300 -0.3364
C85 C 1.2383(4) 0.2049(4) -0.2472(2)
H62 H 1.2784 0.1635 -0.2254
C86 C 1.1438(3) 0.2244(4) -0.2119(2)
C87 C 1.0882(4) 0.2859(4) -0.2472(3)
H63 H 1.0233 0.3016 -0.2258
C88 C 1.1294(4) 0.3228(4) -0.3135(3)
H64 H 1.0908 0.3637 -0.3369
N9 N 1.0715(3) 0.1243(3) -0.42805(19)
C89 C 1.1234(4) 0.0633(4) -0.3965(3)
H65 H 1.1809 0.0388 -0.4234
C90 C 1.0982(4) 0.0335(4) -0.3264(3)
H66 H 1.1386 -0.0096 -0.3065
C91 C 1.0141(3) 0.0667(4) -0.2856(2)
C92 C 0.9616(4) 0.1315(4) -0.3180(3)
H67 H 0.9047 0.1584 -0.2921
C93 C 0.9922(4) 0.1575(4) -0.3887(3)
H68 H 0.9540 0.2015 -0.4099
C94 C 0.9823(3) 0.0312(3) -0.2106(2)
C95 C 0.9133(3) 0.0783(4) -0.1656(2)
H69 H 0.8880 0.1337 -0.1825
C96 C 0.8816(4) 0.0438(4) -0.0957(2)
H70 H 0.8349 0.0764 -0.0659
C97 C 0.9170(3) -0.0363(4) -0.0696(2)
C98 C 0.9878(3) -0.0816(3) -0.1149(2)
H71 H 1.0143 -0.1363 -0.0978
C99 C 1.0200(3) -0.0483(4) -0.1842(2)
H72 H 1.0682 -0.0803 -0.2135
C100 C 0.8831(3) -0.0741(3) 0.0039(2)
C101 C 0.9429(4) -0.1284(4) 0.0387(2)
H73 H 1.0073 -0.1421 0.0150
C102 C 0.9106(3) -0.1632(4) 0.1077(2)
H74 H 0.9525 -0.2017 0.1300
C103 C 0.8178(3) -0.1423(4) 0.1442(2)
C104 C 0.7568(3) -0.0867(4) 0.1091(2)
H75 H 0.6927 -0.0718 0.1329
C105 C 0.7894(3) -0.0538(3) 0.0408(2)
H76 H 0.7472 -0.0163 0.0181
N10 N 0.7157(3) -0.2391(3) 0.35802(19)
C106 C 0.6911(3) -0.1585(4) 0.3327(2)
H77 H 0.6498 -0.1229 0.3629
C107 C 0.7236(3) -0.1251(4) 0.2641(2)
H78 H 0.7047 -0.0673 0.2478
C108 C 0.7837(3) -0.1759(3) 0.2189(2)
C109 C 0.8105(4) -0.2591(4) 0.2461(2)
H79 H 0.8533 -0.2954 0.2173
C110 C 0.7749(4) -0.2893(4) 0.3153(3)
H80 H 0.7927 -0.3469 0.3331
N11 N 0.3259(3) -0.5826(3) 1.42883(19)
C111 C 0.2787(4) -0.5146(4) 1.4005(3)
H81 H 0.2239 -0.4886 1.4293
C112 C 0.3042(4) -0.4795(5) 1.3320(3)
H82 H 0.2681 -0.4300 1.3151
C113 C 0.3829(3) -0.5165(3) 1.2873(2)
C114 C 0.4297(3) -0.5897(4) 1.3169(2)
H83 H 0.4827 -0.6192 1.2893
C115 C 0.3992(3) -0.6194(4) 1.3861(2)
H84 H 0.4327 -0.6695 1.4046
C116 C 0.4165(3) -0.4794(4) 1.2136(2)
C117 C 0.3821(3) -0.3978(3) 1.1883(2)
H85 H 0.3344 -0.3665 1.2185
C118 C 0.4155(3) -0.3606(4) 1.1202(2)
H86 H 0.3910 -0.3044 1.1043
C119 C 0.4857(3) -0.4064(4) 1.0750(2)
C120 C 0.5188(3) -0.4891(4) 1.1005(3)
H87 H 0.5655 -0.5214 1.0704
C121 C 0.4851(3) -0.5245(4) 1.1681(2)
H88 H 0.5091 -0.5808 1.1841
C122 C 0.5220(3) -0.3669(3) 1.0020(2)
C123 C 0.6156(3) -0.3909(3) 0.9653(2)
H89 H 0.6561 -0.4310 0.9877
C124 C 0.6492(3) -0.3566(4) 0.8966(3)
H90 H 0.7127 -0.3731 0.8727
C125 C 0.5914(3) -0.2986(3) 0.8621(2)
C126 C 0.5003(3) -0.2745(4) 0.8975(2)
H91 H 0.4602 -0.2346 0.8746
C127 C 0.4661(3) -0.3079(4) 0.9666(2)
H92 H 0.4029 -0.2899 0.9902
N12 N 0.7068(3) -0.1928(3) 0.6496(2)
C128 C 0.6370(3) -0.1497(4) 0.6919(2)
H93 H 0.6143 -0.0938 0.6738
C129 C 0.5966(4) -0.1811(4) 0.7590(3)
H94 H 0.5461 -0.1480 0.7858
C130 C 0.6299(3) -0.2622(3) 0.7884(2)
C131 C 0.7021(3) -0.3080(4) 0.7439(2)
H95 H 0.7266 -0.3640 0.7603
C132 C 0.7367(3) -0.2709(4) 0.6766(2)
H96 H 0.7850 -0.3032 0.6476
N13 N 0.5898(3) -0.3490(3) 0.5803(2)
C133 C 0.5182(3) -0.3066(4) 0.6225(3)
H97 H 0.4901 -0.2532 0.6042
C134 C 0.4847(3) -0.3386(3) 0.6915(2)
H98 H 0.4343 -0.3070 0.7196
C135 C 0.5236(3) -0.4159(3) 0.7199(2)
C136 C 0.5979(3) -0.4593(4) 0.6763(2)
H99 H 0.6274 -0.5125 0.6936
C137 C 0.6282(3) -0.4239(4) 0.6074(2)
H100 H 0.6785 -0.4543 0.5783
C138 C 0.4886(3) -0.4539(3) 0.7933(2)
C139 C 0.5479(3) -0.5088(4) 0.8284(3)
H101 H 0.6126 -0.5225 0.8052
C140 C 0.5142(4) -0.5439(4) 0.8966(3)
H102 H 0.5563 -0.5813 0.9194
C141 C 0.4201(4) -0.5257(4) 0.9323(2)
C142 C 0.3608(3) -0.4700(4) 0.8979(2)
H103 H 0.2966 -0.4556 0.9217
C143 C 0.3938(3) -0.4349(3) 0.8289(2)
H104 H 0.3516 -0.3977 0.8060
C144 C 0.3813(3) -0.5653(4) 1.0055(2)
C145 C 0.3118(3) -0.5199(4) 1.0503(3)
H105 H 0.2878 -0.4636 1.0343
C146 C 0.2771(4) -0.5572(4) 1.1190(2)
H106 H 0.2287 -0.5260 1.1488
C147 C 0.3120(3) -0.6381(4) 1.1442(2)
C148 C 0.3818(4) -0.6841(4) 1.0991(2)
H107 H 0.4059 -0.7402 1.1154
C149 C 0.4159(4) -0.6480(4) 1.0305(3)
H108 H 0.4631 -0.6798 1.0004
N14 N 0.1982(3) -0.7589(3) 1.3513(2)
C150 C 0.2874(4) -0.7800(4) 1.3175(3)
H109 H 0.3247 -0.8240 1.3395
C151 C 0.3285(3) -0.7406(4) 1.2512(3)
H110 H 0.3934 -0.7564 1.2297
C152 C 0.2748(3) -0.6778(3) 1.2161(2)
C153 C 0.1819(4) -0.6557(4) 1.2530(2)
H111 H 0.1423 -0.6122 1.2326
C154 C 0.1474(3) -0.6971(4) 1.3189(2)
H112 H 0.0838 -0.6807 1.3428
N15 N 0.5818(3) -0.0901(3) 0.5252(2)
O1 O 0.6386(2) -0.1537(3) 0.50570(19)
O2 O 0.6131(3) -0.0367(3) 0.5484(2)
O3 O 0.4969(3) -0.0825(3) 0.5210(2)
N16 N 0.5572(3) -0.4527(3) 0.4377(2)
O4 O 0.6032(3) -0.3905(3) 0.4038(2)
O5 O 0.5515(4) -0.4709(4) 0.4989(2)
O6 O 0.5203(3) -0.4959(3) 0.4095(2)
N17 N 0.8338(3) -0.3435(3) 0.4883(2)
O7 O 0.7816(2) -0.2775(3) 0.50712(18)
O8 O 0.7973(2) -0.3923(2) 0.46195(17)
O9 O 0.9151(3) -0.3582(3) 0.4946(3)
N18 N 1.2340(4) 0.0117(3) -0.5688(2)
O10 O 1.2619(3) 0.0712(3) -0.54832(19)
O11 O 1.2871(4) -0.0532(4) -0.5798(3)
O12 O 1.1517(3) 0.0239(3) -0.5777(2)
N19 N 0.9246(3) 0.1534(3) -0.5652(2)
O13 O 0.9334(4) 0.1059(4) -0.5116(2)
O14 O 0.8511(3) 0.1627(3) -0.5856(3)
O15 O 0.9953(3) 0.1916(3) -0.6002(2)
N20 N 1.1184(3) 0.3279(3) -0.49575(19)
O16 O 1.0531(2) 0.3106(3) -0.51922(17)
O17 O 1.1144(3) 0.3959(3) -0.47341(19)
O18 O 1.1904(2) 0.2732(3) -0.49519(18)
O37 O 0.4964(3) -0.2216(3) 0.4599(2)
C155 C 0.4142(5) -0.2430(6) 0.4495(5)
H113 H 0.3682 -0.1922 0.4485
H114 H 0.3866 -0.2876 0.4870
H115 H 0.4289 -0.2644 0.4056
O38 O 0.8108(3) -0.0099(3) 0.5641(2)
C156 C 0.7917(12) 0.0230(10) 0.6211(6)
H116 H 0.8146 0.0802 0.6107
H117 H 0.8239 -0.0140 0.6537
H118 H 0.7225 0.0273 0.6414
C157 C 1.0134(5) -0.1417(6) 0.5371(6)
H119 H 1.0688 -0.1778 0.5482
H120 H 0.9990 -0.0930 0.5623
H121 H 1.0279 -0.1204 0.4875
O39 O 0.9344(3) -0.1899(3) 0.5559(2)
C158 C 1.2895(5) 0.5744(6) -0.4555(6)
H122 H 1.2537 0.6245 -0.4361
H123 H 1.3012 0.5860 -0.5057
H124 H 1.3508 0.5627 -0.4430
O40 O 1.2361(3) 0.5026(3) -0.4291(2)
O41 O 1.4315(3) 0.3998(3) -0.4397(2)
C159 C 1.4516(7) 0.3971(7) -0.3763(4)
H125 H 1.5164 0.4139 -0.3839
H126 H 1.4473 0.3388 -0.3505
H127 H 1.4053 0.4368 -0.3500
O42 O 1.3906(2) 0.2424(2) -0.46875(18)
C160 C 1.3707(5) 0.1580(5) -0.4674(5)
H128 H 1.3158 0.1430 -0.4287
H129 H 1.4266 0.1183 -0.4620
H130 H 1.3558 0.1538 -0.5105
N14_2 N 1.1982(3) 0.2411(3) -0.6487(2)
N11_2 N 1.3259(3) 0.4174(3) -0.57117(19)
Cd6_2 Cd 0.28665(2) -0.63385(2) 1.542380(17)
Cd2_2 Cd 0.11771(2) -0.83387(3) 1.454720(17)
Cd3 Cd -0.18963(2) -0.59532(2) 0.191696(16)
N1 N -0.2787(3) -0.4630(3) 0.1889(2)
C1 C -0.2609(4) -0.3996(4) 0.1349(3)
H1 H -0.2085 -0.4094 0.0969
C2 C -0.3138(3) -0.3213(4) 0.1312(3)
H2 H -0.2979 -0.2785 0.0918
C3 C -0.3920(3) -0.3058(3) 0.1870(2)
C4 C -0.4089(3) -0.3702(3) 0.2428(2)
H3 H -0.4599 -0.3620 0.2820
C5 C -0.3516(3) -0.4474(3) 0.2420(2)
H4 H -0.3651 -0.4909 0.2811
C6 C -0.4524(3) -0.2239(3) 0.1850(3)
C7 C -0.4901(3) -0.1863(3) 0.2445(3)
H5 H -0.4731 -0.2123 0.2858
C8 C -0.5513(3) -0.1125(3) 0.2444(3)
H6 H -0.5744 -0.0877 0.2853
C9 C -0.5802(3) -0.0731(3) 0.1846(3)
C10 C -0.5401(3) -0.1104(3) 0.1246(3)
H7 H -0.5571 -0.0850 0.0831
C11 C -0.4775(3) -0.1824(3) 0.1249(3)
H8 H -0.4503 -0.2048 0.0832
C12 C -0.6547(3) -0.0004(3) 0.1855(3)
C13 C -0.6609(3) 0.0568(3) 0.1254(3)
H9 H -0.6126 0.0525 0.0839
C14 C -0.7365(3) 0.1193(3) 0.1257(3)
H10 H -0.7390 0.1573 0.0844
C15 C -0.8094(3) 0.1281(3) 0.1854(2)
C16 C -0.7997(3) 0.0735(3) 0.2464(2)
H11 H -0.8461 0.0796 0.2884
C17 C -0.7243(3) 0.0113(3) 0.2462(2)
H12 H -0.7194 -0.0243 0.2881
N2 N -1.0589(2) 0.3066(3) 0.18520(18)
C18 C -0.9790(3) 0.3126(4) 0.1331(2)
H13 H -0.9792 0.3576 0.0954
C19 C -0.8978(4) 0.2580(3) 0.1312(2)
H14 H -0.8433 0.2667 0.0935
C20 C -0.8948(3) 0.1892(3) 0.1847(2)
C21 C -0.9776(3) 0.1819(3) 0.2383(2)
H15 H -0.9802 0.1362 0.2758
C22 C -1.0564(3) 0.2414(3) 0.2369(2)
H16 H -1.1114 0.2355 0.2746
N5 N -0.1984(3) -0.6066(3) 0.07967(19)
C45 C -0.2531(5) -0.6590(4) 0.0663(3)
H33 H -0.2913 -0.6941 0.1038
C46 C -0.2567(5) -0.6642(4) 0.0005(3)
H34 H -0.2978 -0.7015 -0.0061
C47 C -0.2005(3) -0.6154(3) -0.0562(2)
C48 C -0.1474(4) -0.5618(5) -0.0419(3)
H35 H -0.1091 -0.5255 -0.0784
C49 C -0.1483(4) -0.5589(5) 0.0267(3)
H36 H -0.1102 -0.5200 0.0348
C50 C -0.2004(3) -0.6189(3) -0.1290(2)
C51 C -0.2341(3) -0.6871(3) -0.1458(2)
H37 H -0.2589 -0.7324 -0.1106
C52 C -0.2320(3) -0.6899(3) -0.2137(2)
H38 H -0.2561 -0.7368 -0.2242
C53 C -0.1950(3) -0.6250(3) -0.2668(2)
C54 C -0.1617(4) -0.5569(4) -0.2494(2)
H39 H -0.1362 -0.5119 -0.2846
C55 C -0.1652(4) -0.5534(4) -0.1813(3)
H40 H -0.1432 -0.5055 -0.1705
C56 C -0.1938(3) -0.6268(3) -0.3392(2)
C57 C -0.2543(3) -0.6744(4) -0.3565(2)
H41 H -0.2951 -0.7099 -0.3211
C58 C -0.2563(4) -0.6711(4) -0.4245(2)
H42 H -0.2995 -0.7034 -0.4345
C59 C -0.1957(3) -0.6211(3) -0.4785(2)
C60 C -0.1341(3) -0.5749(3) -0.4613(2)
H43 H -0.0923 -0.5403 -0.4968
C61 C -0.1320(3) -0.5781(3) -0.3937(2)
H44 H -0.0879 -0.5466 -0.3839
N6 N -0.2001(3) -0.6056(3) -0.68975(18)
C62 C -0.2773(3) -0.6239(3) -0.6376(2)
H45 H -0.3338 -0.6334 -0.6486
C63 C -0.2795(3) -0.6298(3) -0.5695(2)
H46 H -0.3363 -0.6430 -0.5350
C64 C -0.1974(3) -0.6163(3) -0.5511(2)
C65 C -0.1175(3) -0.5987(3) -0.6048(2)
H47 H -0.0596 -0.5905 -0.5950
C66 C -0.1209(3) -0.5929(3) -0.6721(2)
H48 H -0.0652 -0.5793 -0.7076
N21 N -0.0049(5) -0.4657(4) 0.1360(3)
O19 O -0.0642(3) -0.4982(3) 0.1215(3)
O20 O 0.0406(6) -0.4112(5) 0.0949(3)
O21 O 0.0134(8) -0.4934(7) 0.1897(4)
N22 N -0.3398(3) -0.7329(3) 0.2544(3)
O22 O -0.4160(3) -0.7630(3) 0.2909(3)
O23 O -0.2655(3) -0.7785(3) 0.2432(3)
O24 O -0.3412(2) -0.6530(3) 0.23064(18)
N2_2 N -0.0589(2) -0.6934(3) 0.18520(18)
N6_2 N -0.2001(3) -0.6056(3) 0.31025(18)
Cd3_2 Cd -1.18963(2) 0.40468(2) 0.191696(16)
Cd3_3 Cd -0.18963(2) -0.59532(2) -0.808304(16)
Cd5 Cd 0.53152(2) 0.05922(2) 0.872277(19)
N3 N 0.4263(3) 0.1767(3) 0.8823(2)
C23 C 0.4457(3) 0.2499(4) 0.8400(3)
H17 H 0.5076 0.2536 0.8095
C24 C 0.3809(3) 0.3201(3) 0.8384(3)
H18 H 0.3972 0.3710 0.8069
C25 C 0.2911(3) 0.3156(3) 0.8834(3)
C26 C 0.2712(3) 0.2401(3) 0.9291(3)
H19 H 0.2107 0.2354 0.9614
C27 C 0.3413(3) 0.1718(4) 0.9268(3)
H20 H 0.3280 0.1200 0.9580
C28 C 0.2166(3) 0.3890(3) 0.8825(3)
C29 C 0.1609(3) 0.4161(4) 0.9431(3)
H21 H 0.1690 0.3857 0.9860
C30 C 0.0944(3) 0.4858(3) 0.9420(3)
H22 H 0.0580 0.5034 0.9841
C31 C 0.0797(3) 0.5314(3) 0.8795(3)
C32 C 0.1346(3) 0.5042(4) 0.8187(3)
H23 H 0.1252 0.5336 0.7757
C33 C 0.2033(3) 0.4339(3) 0.8203(3)
H24 H 0.2411 0.4167 0.7785
C34 C 0.0055(3) 0.6056(3) 0.8789(3)
C35 C -0.0323(3) 0.6458(3) 0.9357(3)
H25 H -0.0098 0.6266 0.9759
C36 C -0.1024(3) 0.7136(3) 0.9352(3)
H26 H -0.1290 0.7390 0.9755
C37 C -0.1346(3) 0.7456(3) 0.8755(2)
C38 C -0.0941(3) 0.7053(3) 0.8173(3)
H27 H -0.1140 0.7257 0.7762
C39 C -0.0269(3) 0.6375(3) 0.8192(3)
H28 H -0.0012 0.6109 0.7795
N4 N -0.3514(3) 0.9528(3) 0.8721(2)
C40 C -0.3548(3) 0.8928(4) 0.9280(3)
H29 H -0.4072 0.8970 0.9671
C41 C -0.2861(3) 0.8259(3) 0.9312(3)
H30 H -0.2914 0.7848 0.9719
C42 C -0.2073(3) 0.8180(3) 0.8741(2)
C43 C -0.2046(3) 0.8810(3) 0.8177(3)
H31 H -0.1526 0.8789 0.7780
C44 C -0.2763(3) 0.9475(3) 0.8177(3)
H32 H -0.2722 0.9904 0.7781
N23 N 0.5679(5) 0.1308(5) 0.7184(3)
O25 O 0.6205(4) 0.1277(5) 0.7560(3)
O26 O 0.5061(9) 0.0915(9) 0.7451(5)
O27 O 0.5881(8) 0.1679(7) 0.6639(3)
N24 N 0.6211(3) 0.1294(3) 0.9568(3)
O28 O 0.6424(3) 0.1474(3) 0.8923(2)
O29 O 0.5600(3) 0.0781(3) 0.9867(2)
O30 O 0.6644(4) 0.1610(4) 0.9899(2)
N25 N 0.3850(3) -0.0573(3) 0.9305(3)
O31 O 0.4219(3) -0.0233(3) 0.96759(19)
O32 O 0.4193(3) -0.0387(4) 0.8662(2)
O33 O 0.3218(4) -0.1036(4) 0.9555(3)
N4_2 N 0.6486(3) -0.0472(3) 0.8721(2)
Cd5_2 Cd -0.46848(2) 1.05922(2) 0.872277(19)
N26 N 2.0215(3) 1.6114(4) -0.3715(3)
O34 O 1.9417(3) 1.6387(4) -0.3404(3)
O35 O 2.0605(3) 1.5424(3) -0.3491(2)
O36 O 2.0639(4) 1.6550(4) -0.4255(3)
O43 O 0.5705(3) 0.2180(4) 0.5324(3)
C161 C 0.6192(6) 0.1713(6) 0.4763(6)
H131 H 0.6145 0.2067 0.4325
H132 H 0.5892 0.1180 0.4821
H133 H 0.6867 0.1577 0.4765
O44 O 0.5772(7) 0.1874(6) 0.1289(5)
C162 C 0.5869(8) 0.1080(6) 0.1663(5)
H134 H 0.6521 0.0818 0.1504
H135 H 0.5411 0.0721 0.1605
H136 H 0.5744 0.1130 0.2151
O45 O 0.6050(4) 0.0498(4) 0.3408(3)
C163 C 0.5062(5) 0.0426(7) 0.3614(5)
H137 H 0.4942 -0.0169 0.3819
H138 H 0.4794 0.0591 0.3213
H139 H 0.4760 0.0804 0.3954
C164 C 0.1720(4) -0.2437(5) 0.3158(4)
C165 C 0.1942(4) -0.2153(5) 0.2455(4)
H140 H 0.2336 -0.1692 0.2277
C166 C 0.1617(4) -0.2509(5) 0.1998(4)
C167 C 0.1056(4) -0.3183(5) 0.2282(4)
H141 H 0.0836 -0.3453 0.1983
C168 C 0.0795(4) -0.3487(4) 0.2986(4)
C169 C 0.1134(4) -0.3103(4) 0.3422(4)
H142 H 0.0963 -0.3299 0.3904
C170 C 0.2063(6) -0.2028(7) 0.3653(5)
H143 H 0.1828 -0.2325 0.4123
H144 H 0.1819 -0.1422 0.3624
H145 H 0.2764 -0.2075 0.3529
C171 C 0.1860(5) -0.2188(6) 0.1241(4)
H146 H 0.2263 -0.1711 0.1139
H147 H 0.1270 -0.1990 0.1095
H148 H 0.2206 -0.2653 0.0994
C172 C 0.0207(5) -0.4246(5) 0.3288(4)
H149 H 0.0103 -0.4352 0.3789
H150 H 0.0548 -0.4755 0.3098
H151 H -0.0412 -0.4122 0.3172
C173 C 0.3132(4) -0.1125(5) 0.7253(4)
C174 C 0.2924(4) -0.1444(4) 0.7935(3)
H152 H 0.3167 -0.1190 0.8230
C175 C 0.2369(4) -0.2127(4) 0.8216(4)
C176 C 0.2041(4) -0.2482(5) 0.7787(4)
H153 H 0.1662 -0.2953 0.7972
C177 C 0.2233(5) -0.2189(5) 0.7091(4)
C178 C 0.2811(5) -0.1520(5) 0.6805(4)
H154 H 0.2984 -0.1335 0.6322
C179 C 0.3728(6) -0.0352(6) 0.6953(4)
H155 H 0.3802 -0.0219 0.6455
H156 H 0.4359 -0.0490 0.7047
H157 H 0.3401 0.0145 0.7167
C180 C 0.2143(5) -0.2460(5) 0.8986(4)
H158 H 0.2438 -0.2117 0.9211
H159 H 0.2398 -0.3061 0.9063
H160 H 0.1448 -0.2415 0.9178
C181 C 0.1839(4) -0.2611(4) 0.6620(3)
H161 H 0.1456 -0.3075 0.6897
H162 H 0.2372 -0.2845 0.6277
H163 H 0.1437 -0.2181 0.6387
loop_
_geom_bond_atom_site_label_1
_geom_bond_atom_site_label_2
_geom_bond_site_symmetry_1
_geom_bond_site_symmetry_2
Cd1 N10 1_555 1_555
Cd2 N9 1_555 1_555
Cd3 N1 1_555 1_555
Cd4 N7 1_555 1_555
Cd5 N3 1_555 1_555
Cd6 N8 1_555 1_555
N1 C1 1_555 1_555
C1 H1 1_555 1_555
C2 C1 1_555 1_555
H2 C2 1_555 1_555
C3 C2 1_555 1_555
C4 C3 1_555 1_555
H3 C4 1_555 1_555
C5 N1 1_555 1_555
H4 C5 1_555 1_555
C6 C3 1_555 1_555
C7 C6 1_555 1_555
H5 C7 1_555 1_555
C8 C7 1_555 1_555
H6 C8 1_555 1_555
C9 C8 1_555 1_555
C10 C9 1_555 1_555
H7 C10 1_555 1_555
C11 C6 1_555 1_555
H8 C11 1_555 1_555
C12 C9 1_555 1_555
C13 C12 1_555 1_555
H9 C13 1_555 1_555
C14 C13 1_555 1_555
H10 C14 1_555 1_555
C15 C14 1_555 1_555
C16 C15 1_555 1_555
H11 C16 1_555 1_555
C17 C12 1_555 1_555
H12 C17 1_555 1_555
N2 C18 1_555 1_555
C18 H13 1_555 1_555
C19 C18 1_555 1_555
H14 C19 1_555 1_555
C20 C15 1_555 1_555
C21 C20 1_555 1_555
H15 C21 1_555 1_555
C22 N2 1_555 1_555
H16 C22 1_555 1_555
N3 C23 1_555 1_555
C23 H17 1_555 1_555
C24 C23 1_555 1_555
H18 C24 1_555 1_555
C25 C24 1_555 1_555
C26 C25 1_555 1_555
H19 C26 1_555 1_555
C27 N3 1_555 1_555
H20 C27 1_555 1_555
C28 C25 1_555 1_555
C29 C28 1_555 1_555
H21 C29 1_555 1_555
C30 C29 1_555 1_555
H22 C30 1_555 1_555
C31 C30 1_555 1_555
C32 C31 1_555 1_555
H23 C32 1_555 1_555
C33 C28 1_555 1_555
H24 C33 1_555 1_555
C34 C31 1_555 1_555
C35 C34 1_555 1_555
H25 C35 1_555 1_555
C36 C35 1_555 1_555
H26 C36 1_555 1_555
C37 C36 1_555 1_555
C38 C37 1_555 1_555
H27 C38 1_555 1_555
C39 C34 1_555 1_555
H28 C39 1_555 1_555
N4 C40 1_555 1_555
C40 H29 1_555 1_555
C41 C40 1_555 1_555
H30 C41 1_555 1_555
C42 C37 1_555 1_555
C43 C42 1_555 1_555
H31 C43 1_555 1_555
C44 N4 1_555 1_555
H32 C44 1_555 1_555
N5 Cd3 1_555 1_555
C45 N5 1_555 1_555
H33 C45 1_555 1_555
C46 C45 1_555 1_555
H34 C46 1_555 1_555
C47 C46 1_555 1_555
C48 C47 1_555 1_555
H35 C48 1_555 1_555
C49 N5 1_555 1_555
H36 C49 1_555 1_555
C50 C47 1_555 1_555
C51 C50 1_555 1_555
H37 C51 1_555 1_555
C52 C51 1_555 1_555
H38 C52 1_555 1_555
C53 C52 1_555 1_555
C54 C53 1_555 1_555
H39 C54 1_555 1_555
C55 C50 1_555 1_555
H40 C55 1_555 1_555
C56 C53 1_555 1_555
C57 C56 1_555 1_555
H41 C57 1_555 1_555
C58 C57 1_555 1_555
H42 C58 1_555 1_555
C59 C58 1_555 1_555
C60 C59 1_555 1_555
H43 C60 1_555 1_555
C61 C56 1_555 1_555
H44 C61 1_555 1_555
N6 C62 1_555 1_555
C62 H45 1_555 1_555
C63 C62 1_555 1_555
H46 C63 1_555 1_555
C64 C59 1_555 1_555
C65 C64 1_555 1_555
H47 C65 1_555 1_555
C66 N6 1_555 1_555
H48 C66 1_555 1_555
N7 C67 1_555 1_555
C67 H49 1_555 1_555
C68 C67 1_555 1_555
H50 C68 1_555 1_555
C69 C68 1_555 1_555
C70 C69 1_555 1_555
H51 C70 1_555 1_555
C71 N7 1_555 1_555
H52 C71 1_555 1_555
C72 C69 1_555 1_555
C73 C72 1_555 1_555
H53 C73 1_555 1_555
C74 C73 1_555 1_555
H54 C74 1_555 1_555
C75 C74 1_555 1_555
C76 C75 1_555 1_555
H55 C76 1_555 1_555
C77 C72 1_555 1_555
H56 C77 1_555 1_555
C78 C75 1_555 1_555
C79 C78 1_555 1_555
H57 C79 1_555 1_555
C80 C79 1_555 1_555
H58 C80 1_555 1_555
C81 C80 1_555 1_555
C82 C81 1_555 1_555
H59 C82 1_555 1_555
C83 C78 1_555 1_555
H60 C83 1_555 1_555
N8 C84 1_555 1_555
C84 H61 1_555 1_555
C85 C84 1_555 1_555
H62 C85 1_555 1_555
C86 C81 1_555 1_555
C87 C86 1_555 1_555
H63 C87 1_555 1_555
C88 N8 1_555 1_555
H64 C88 1_555 1_555
N9 C89 1_555 1_555
C89 H65 1_555 1_555
C90 C89 1_555 1_555
H66 C90 1_555 1_555
C91 C90 1_555 1_555
C92 C91 1_555 1_555
H67 C92 1_555 1_555
C93 N9 1_555 1_555
H68 C93 1_555 1_555
C94 C91 1_555 1_555
C95 C94 1_555 1_555
H69 C95 1_555 1_555
C96 C95 1_555 1_555
H70 C96 1_555 1_555
C97 C96 1_555 1_555
C98 C97 1_555 1_555
H71 C98 1_555 1_555
C99 C94 1_555 1_555
H72 C99 1_555 1_555
C100 C97 1_555 1_555
C101 C100 1_555 1_555
H73 C101 1_555 1_555
C102 C101 1_555 1_555
H74 C102 1_555 1_555
C103 C102 1_555 1_555
C104 C103 1_555 1_555
H75 C104 1_555 1_555
C105 C100 1_555 1_555
H76 C105 1_555 1_555
N10 C106 1_555 1_555
C106 H77 1_555 1_555
C107 C106 1_555 1_555
H78 C107 1_555 1_555
C108 C103 1_555 1_555
C109 C108 1_555 1_555
H79 C109 1_555 1_555
C110 N10 1_555 1_555
H80 C110 1_555 1_555
N11 C111 1_555 1_555
C111 H81 1_555 1_555
C112 C111 1_555 1_555
H82 C112 1_555 1_555
C113 C112 1_555 1_555
C114 C113 1_555 1_555
H83 C114 1_555 1_555
C115 N11 1_555 1_555
H84 C115 1_555 1_555
C116 C113 1_555 1_555
C117 C116 1_555 1_555
H85 C117 1_555 1_555
C118 C117 1_555 1_555
H86 C118 1_555 1_555
C119 C118 1_555 1_555
C120 C119 1_555 1_555
H87 C120 1_555 1_555
C121 C116 1_555 1_555
H88 C121 1_555 1_555
C122 C119 1_555 1_555
C123 C122 1_555 1_555
H89 C123 1_555 1_555
C124 C123 1_555 1_555
H90 C124 1_555 1_555
C125 C124 1_555 1_555
C126 C125 1_555 1_555
H91 C126 1_555 1_555
C127 C122 1_555 1_555
H92 C127 1_555 1_555
N12 Cd4 1_555 1_555
C128 N12 1_555 1_555
H93 C128 1_555 1_555
C129 C128 1_555 1_555
H94 C129 1_555 1_555
C130 C125 1_555 1_555
C131 C130 1_555 1_555
H95 C131 1_555 1_555
C132 N12 1_555 1_555
H96 C132 1_555 1_555
N13 Cd1 1_555 1_555
C133 N13 1_555 1_555
H97 C133 1_555 1_555
C134 C133 1_555 1_555
H98 C134 1_555 1_555
C135 C134 1_555 1_555
C136 C135 1_555 1_555
H99 C136 1_555 1_555
C137 N13 1_555 1_555
H100 C137 1_555 1_555
C138 C135 1_555 1_555
C139 C138 1_555 1_555
H101 C139 1_555 1_555
C140 C139 1_555 1_555
H102 C140 1_555 1_555
C141 C140 1_555 1_555
C142 C141 1_555 1_555
H103 C142 1_555 1_555
C143 C138 1_555 1_555
H104 C143 1_555 1_555
C144 C141 1_555 1_555
C145 C144 1_555 1_555
H105 C145 1_555 1_555
C146 C145 1_555 1_555
H106 C146 1_555 1_555
C147 C146 1_555 1_555
C148 C147 1_555 1_555
H107 C148 1_555 1_555
C149 C144 1_555 1_555
H108 C149 1_555 1_555
N14 C150 1_555 1_555
C150 H109 1_555 1_555
C151 C150 1_555 1_555
H110 C151 1_555 1_555
C152 C147 1_555 1_555
C153 C152 1_555 1_555
H111 C153 1_555 1_555
C154 N14 1_555 1_555
H112 C154 1_555 1_555
N15 O1 1_555 1_555
O1 Cd1 1_555 1_555
O2 Cd4 1_555 1_555
O3 N15 1_555 1_555
N16 O4 1_555 1_555
O4 Cd1 1_555 1_555
O5 N16 1_555 1_555
O6 N16 1_555 1_555
N17 O7 1_555 1_555
O7 Cd1 1_555 1_555
O8 Cd1 1_555 1_555
O9 N17 1_555 1_555
N18 O10 1_555 1_555
O10 Cd2 1_555 1_555
O11 N18 1_555 1_555
O12 Cd2 1_555 1_555
N19 O13 1_555 1_555
O14 N19 1_555 1_555
O15 Cd2 1_555 1_555
N20 O16 1_555 1_555
O16 Cd2 1_555 1_555
O17 Cd6 1_555 1_555
O18 Cd2 1_555 1_555
N21 O19 1_555 1_555
O19 Cd3 1_555 1_555
O20 N21 1_555 1_555
O21 N21 1_555 1_555
N22 O22 1_555 1_555
O23 N22 1_555 1_555
O24 Cd3 1_555 1_555
N23 O25 1_555 1_555
O25 Cd5 1_555 1_555
O26 Cd5 1_555 1_555
O27 N23 1_555 1_555
N24 O28 1_555 1_555
O28 Cd5 1_555 1_555
O29 Cd5 1_555 1_555
O30 N24 1_555 1_555
N25 O31 1_555 1_555
O31 Cd5 1_555 1_555
O32 Cd5 1_555 1_555
O33 N25 1_555 1_555
N26 O34 1_555 1_555
O35 N26 1_555 1_555
O36 N26 1_555 1_555
O37 Cd1 1_555 1_555
C155 O37 1_555 1_555
H113 C155 1_555 1_555
H114 C155 1_555 1_555
H115 C155 1_555 1_555
O38 Cd4 1_555 1_555
C156 O38 1_555 1_555
H116 C156 1_555 1_555
H117 C156 1_555 1_555
H118 C156 1_555 1_555
C157 H119 1_555 1_555
H120 C157 1_555 1_555
H121 C157 1_555 1_555
O39 Cd4 1_555 1_555
C158 H122 1_555 1_555
H123 C158 1_555 1_555
H124 C158 1_555 1_555
O40 Cd6 1_555 1_555
O41 Cd6 1_555 1_555
C159 O41 1_555 1_555
H125 C159 1_555 1_555
H126 C159 1_555 1_555
H127 C159 1_555 1_555
O42 Cd6 1_555 1_555
C160 O42 1_555 1_555
H128 C160 1_555 1_555
H129 C160 1_555 1_555
H130 C160 1_555 1_555
O43 C161 1_555 1_555
C161 H131 1_555 1_555
H132 C161 1_555 1_555
H133 C161 1_555 1_555
O44 C162 1_555 1_555
C162 H134 1_555 1_555
H135 C162 1_555 1_555
H136 C162 1_555 1_555
O45 C163 1_555 1_555
C163 H137 1_555 1_555
H138 C163 1_555 1_555
H139 C163 1_555 1_555
C164 C165 1_555 1_555
C165 H140 1_555 1_555
C166 C165 1_555 1_555
C167 C166 1_555 1_555
H141 C167 1_555 1_555
C168 C167 1_555 1_555
C169 C164 1_555 1_555
H142 C169 1_555 1_555
C170 C164 1_555 1_555
H143 C170 1_555 1_555
H144 C170 1_555 1_555
H145 C170 1_555 1_555
C171 C166 1_555 1_555
H146 C171 1_555 1_555
H147 C171 1_555 1_555
H148 C171 1_555 1_555
C172 C168 1_555 1_555
H149 C172 1_555 1_555
H150 C172 1_555 1_555
H151 C172 1_555 1_555
C173 C174 1_555 1_555
C174 H152 1_555 1_555
C175 C174 1_555 1_555
C176 C175 1_555 1_555
H153 C176 1_555 1_555
C177 C176 1_555 1_555
C178 C173 1_555 1_555
H154 C178 1_555 1_555
C179 C173 1_555 1_555
H155 C179 1_555 1_555
H156 C179 1_555 1_555
H157 C179 1_555 1_555
C180 C175 1_555 1_555
H158 C180 1_555 1_555
H159 C180 1_555 1_555
H160 C180 1_555 1_555
C181 C177 1_555 1_555
H161 C181 1_555 1_555
H162 C181 1_555 1_555
H163 C181 1_555 1_555
N14_2 Cd2 1_555 1_555
N2_2 Cd3 1_555 1_555
N6_2 Cd3 1_555 1_555
N4_2 Cd5 1_555 1_555
N11_2 Cd6 1_555 1_555
Cd3_2 N2 1_555 1_555
Cd5_2 N4 1_555 1_555
Cd3_3 N6 1_555 1_555
Cd6_2 N11 1_555 1_555
Cd2_2 N14 1_555 1_555
Cd4 O1 1_555 1_555
Cd4 O7 1_555 1_555
Cd6 O18 1_555 1_555
C4 C5 1_555 1_555
C10 C11 1_555 1_555
C16 C17 1_555 1_555
C19 C20 1_555 1_555
C21 C22 1_555 1_555
C26 C27 1_555 1_555
C32 C33 1_555 1_555
C38 C39 1_555 1_555
C41 C42 1_555 1_555
C43 C44 1_555 1_555
C48 C49 1_555 1_555
C54 C55 1_555 1_555
C60 C61 1_555 1_555
C63 C64 1_555 1_555
C65 C66 1_555 1_555
C70 C71 1_555 1_555
C76 C77 1_555 1_555
C82 C83 1_555 1_555
C85 C86 1_555 1_555
C87 C88 1_555 1_555
C92 C93 1_555 1_555
C98 C99 1_555 1_555
C104 C105 1_555 1_555
C107 C108 1_555 1_555
C109 C110 1_555 1_555
C114 C115 1_555 1_555
C120 C121 1_555 1_555
C126 C127 1_555 1_555
C129 C130 1_555 1_555
C131 C132 1_555 1_555
C136 C137 1_555 1_555
C142 C143 1_555 1_555
C148 C149 1_555 1_555
C151 C152 1_555 1_555
C153 C154 1_555 1_555
N15 O2 1_555 1_555
N17 O8 1_555 1_555
N18 O12 1_555 1_555
N19 O15 1_555 1_555
N20 O17 1_555 1_555
N20 O18 1_555 1_555
N22 O24 1_555 1_555
N23 O26 1_555 1_555
N24 O29 1_555 1_555
N25 O32 1_555 1_555
C157 O39 1_555 1_555
C158 O40 1_555 1_555
C168 C169 1_555 1_555
C177 C178 1_555 1_555

#END
