
#######################################################################
#
#                 Cambridge Crystallographic Data Centre
#                                CCDC 
#
#######################################################################
#
# If this CIF has been generated from an entry in the Cambridge 
# Structural Database, then it will include bibliographic, chemical, 
# crystal, experimental, refinement or atomic coordinate data resulting 
# from the CCDC's data processing and validation procedures.
#
#######################################################################

data_XOTHIX
_symmetry_cell_setting           triclinic
_symmetry_space_group_name_H-M   'P 1'
_symmetry_Int_Tables_number      1
_space_group_name_Hall           'P 1'
loop_
_symmetry_equiv_pos_site_id
_symmetry_equiv_pos_as_xyz
1 x,y,z
_cell_length_a                   14.5829(11)
_cell_length_b                   15.6484(11)
_cell_length_c                   20.3931(15)
_cell_angle_alpha                78.8690(10)
_cell_angle_beta                 75.7050(10)
_cell_angle_gamma                83.1750(10)
_cell_volume                     4412.35
loop_
_atom_site_label
_atom_site_type_symbol
_atom_site_fract_x
_atom_site_fract_y
_atom_site_fract_z
Cd1 Cd 0.64946(3) -0.30328(3) 0.46178(2)
Cd2 Cd 1.11763(3) 0.16870(3) -0.54904(2)
Cd4 Cd 0.78075(3) -0.13548(3) 0.54149(2)
Cd6 Cd 1.28775(3) 0.36970(2) -0.455280(19)
N7 N 0.8441(4) -0.0874(3) 0.4299(2)
C67 C 0.8063(4) -0.0114(4) 0.3987(3)
H49 H 0.7574 0.0215 0.4256
C68 C 0.8361(4) 0.0193(4) 0.3301(3)
H50 H 0.8080 0.0729 0.3104
C69 C 0.9072(4) -0.0272(3) 0.2889(3)
C70 C 0.9447(4) -0.1061(4) 0.3210(3)
H51 H 0.9923 -0.1411 0.2950
C71 C 0.9118(5) -0.1326(4) 0.3907(3)
H52 H 0.9387 -0.1859 0.4118
C72 C 0.9384(4) 0.0049(3) 0.2141(3)
C73 C 1.0309(4) -0.0175(3) 0.1776(3)
H53 H 1.0723 -0.0562 0.2009
C74 C 1.0624(4) 0.0155(4) 0.1091(3)
H54 H 1.1252 -0.0006 0.0859
C75 C 1.0029(4) 0.0724(3) 0.0731(3)
C76 C 0.9113(4) 0.0932(4) 0.1095(3)
H55 H 0.8697 0.1318 0.0862
C77 C 0.8789(4) 0.0599(4) 0.1781(3)
H56 H 0.8155 0.0746 0.2009
C78 C 1.0370(4) 0.1096(4) -0.0004(3)
C79 C 1.1010(4) 0.0619(4) -0.0446(3)
H57 H 1.1231 0.0043 -0.0277
C80 C 1.1337(5) 0.0973(4) -0.1138(3)
H58 H 1.1785 0.0640 -0.1431
C81 C 1.1007(4) 0.1820(4) -0.1405(3)
C82 C 1.0371(4) 0.2297(4) -0.0957(3)
H59 H 1.0147 0.2873 -0.1125
C83 C 1.0055(5) 0.1943(4) -0.0266(3)
H60 H 0.9621 0.2282 0.0031
N8 N 1.2188(4) 0.3014(3) -0.3473(3)
C84 C 1.2691(5) 0.2382(4) -0.3129(3)
H61 H 1.3317 0.2206 -0.3353
C85 C 1.2333(5) 0.1983(4) -0.2466(3)
H62 H 1.2716 0.1551 -0.2239
C86 C 1.1403(4) 0.2213(4) -0.2125(3)
C87 C 1.0885(5) 0.2851(4) -0.2483(3)
H63 H 1.0253 0.3033 -0.2274
C88 C 1.1298(4) 0.3224(4) -0.3149(3)
H64 H 1.0927 0.3654 -0.3389
N9 N 1.0740(4) 0.1270(3) -0.4329(3)
C89 C 1.1235(5) 0.0615(4) -0.3994(3)
H65 H 1.1796 0.0353 -0.4251
C90 C 1.0964(4) 0.0311(4) -0.3299(3)
H66 H 1.1339 -0.0150 -0.3090
C91 C 1.0145(4) 0.0672(4) -0.2898(3)
C92 C 0.9649(5) 0.1358(4) -0.3243(3)
H67 H 0.9096 0.1642 -0.2997
C93 C 0.9962(5) 0.1625(4) -0.3942(3)
H68 H 0.9602 0.2088 -0.4162
C94 C 0.9807(4) 0.0342(3) -0.2151(3)
C95 C 0.9135(4) 0.0798(4) -0.1718(3)
H69 H 0.8882 0.1357 -0.1898
C96 C 0.8815(4) 0.0464(4) -0.1025(3)
H70 H 0.8345 0.0793 -0.0743
C97 C 0.9174(4) -0.0344(3) -0.0745(3)
C98 C 0.9860(4) -0.0814(4) -0.1170(3)
H71 H 1.0113 -0.1370 -0.0984
C99 C 1.0184(4) -0.0483(3) -0.1867(3)
H72 H 1.0657 -0.0810 -0.2149
C100 C 0.8828(4) -0.0726(3) 0.0006(3)
C101 C 0.9435(4) -0.1283(4) 0.0355(3)
H73 H 1.0064 -0.1432 0.0119
C102 C 0.9127(4) -0.1622(4) 0.1051(3)
H74 H 0.9546 -0.1997 0.1287
C103 C 0.8205(4) -0.1412(4) 0.1397(3)
C104 C 0.7593(4) -0.0855(4) 0.1051(3)
H75 H 0.6966 -0.0702 0.1289
C105 C 0.7906(4) -0.0523(4) 0.0351(3)
H76 H 0.7484 -0.0157 0.0112
N10 N 0.7227(4) -0.2409(3) 0.3552(3)
C106 C 0.6973(4) -0.1590(4) 0.3277(3)
H77 H 0.6572 -0.1227 0.3571
C107 C 0.7265(4) -0.1249(4) 0.2592(3)
H78 H 0.7047 -0.0673 0.2420
C108 C 0.7878(4) -0.1749(4) 0.2149(3)
C109 C 0.8177(4) -0.2597(4) 0.2441(3)
H79 H 0.8617 -0.2959 0.2168
C110 C 0.7818(5) -0.2892(4) 0.3129(3)
H80 H 0.8003 -0.3473 0.3314
N11 N 0.3298(3) -0.5737(3) 1.4312(2)
C111 C 0.2975(5) -0.4943(5) 1.4053(4)
H81 H 0.2551 -0.4601 1.4353
C112 C 0.3238(6) -0.4598(5) 1.3358(4)
H82 H 0.2996 -0.4026 1.3195
C113 C 0.3850(4) -0.5075(4) 1.2895(3)
C114 C 0.4185(5) -0.5916(4) 1.3187(3)
H83 H 0.4609 -0.6281 1.2907
C115 C 0.3883(5) -0.6200(4) 1.3893(3)
H84 H 0.4116 -0.6764 1.4081
C116 C 0.4176(4) -0.4739(4) 1.2151(3)
C117 C 0.3814(4) -0.3920(4) 1.1867(3)
H85 H 0.3337 -0.3593 1.2146
C118 C 0.4148(4) -0.3585(4) 1.1179(3)
H86 H 0.3893 -0.3030 1.0994
C119 C 0.4850(4) -0.4043(4) 1.0750(3)
C120 C 0.5194(4) -0.4859(4) 1.1037(3)
H87 H 0.5664 -0.5191 1.0757
C121 C 0.4862(4) -0.5200(4) 1.1730(3)
H88 H 0.5113 -0.5758 1.1914
C122 C 0.5202(4) -0.3671(3) 1.0015(3)
C123 C 0.6132(4) -0.3913(4) 0.9663(3)
H89 H 0.6533 -0.4307 0.9904
C124 C 0.6460(4) -0.3590(4) 0.8985(3)
H90 H 0.7090 -0.3757 0.8761
C125 C 0.5877(4) -0.3009(3) 0.8610(3)
C126 C 0.4975(4) -0.2767(4) 0.8949(3)
H91 H 0.4574 -0.2372 0.8709
C127 C 0.4638(4) -0.3098(4) 0.9649(3)
H92 H 0.4011 -0.2924 0.9874
N12 N 0.7041(4) -0.1926(3) 0.6494(3)
C128 C 0.6318(5) -0.1495(4) 0.6893(3)
H93 H 0.6081 -0.0939 0.6695
C129 C 0.5907(5) -0.1819(4) 0.7570(3)
H94 H 0.5399 -0.1493 0.7826
C130 C 0.6259(4) -0.2642(3) 0.7873(3)
C131 C 0.6987(4) -0.3088(4) 0.7451(3)
H95 H 0.7233 -0.3650 0.7630
C132 C 0.7351(4) -0.2719(4) 0.6778(3)
H96 H 0.7842 -0.3041 0.6505
N13 N 0.5934(4) -0.3518(3) 0.5746(3)
C133 C 0.5227(4) -0.3101(4) 0.6147(3)
H97 H 0.4956 -0.2562 0.5946
C134 C 0.4869(4) -0.3403(4) 0.6833(3)
H98 H 0.4361 -0.3081 0.7092
C135 C 0.5266(4) -0.4201(4) 0.7148(3)
C136 C 0.6009(4) -0.4628(4) 0.6728(3)
H99 H 0.6305 -0.5162 0.6914
C137 C 0.6320(5) -0.4276(4) 0.6040(3)
H100 H 0.6825 -0.4582 0.5765
C138 C 0.4905(4) -0.4565(3) 0.7880(3)
C139 C 0.5486(4) -0.5127(4) 0.8247(3)
H101 H 0.6122 -0.5274 0.8024
C140 C 0.5154(5) -0.5479(4) 0.8934(3)
H102 H 0.5560 -0.5868 0.9174
C141 C 0.4220(4) -0.5260(4) 0.9271(3)
C142 C 0.3650(4) -0.4697(4) 0.8908(3)
H103 H 0.3019 -0.4540 0.9136
C143 C 0.3970(4) -0.4351(4) 0.8219(3)
H104 H 0.3558 -0.3972 0.7979
C144 C 0.3846(5) -0.5646(4) 0.9998(3)
C145 C 0.3170(5) -0.5188(4) 1.0445(3)
H105 H 0.2945 -0.4614 1.0273
C146 C 0.2815(4) -0.5539(4) 1.1129(3)
H106 H 0.2339 -0.5215 1.1411
C147 C 0.3161(5) -0.6374(4) 1.1402(3)
C148 C 0.3835(5) -0.6833(4) 1.0969(3)
H107 H 0.4065 -0.7404 1.1143
C149 C 0.4183(5) -0.6479(4) 1.0289(3)
H108 H 0.4662 -0.6805 1.0010
N14 N 0.1994(4) -0.7566(3) 1.3486(2)
C150 C 0.2868(5) -0.7804(4) 1.3153(3)
H109 H 0.3224 -0.8260 1.3383
C151 C 0.3290(4) -0.7420(4) 1.2484(3)
H110 H 0.3916 -0.7612 1.2271
C152 C 0.2773(4) -0.6745(3) 1.2128(3)
C153 C 0.1878(5) -0.6477(4) 1.2491(3)
H111 H 0.1511 -0.6007 1.2284
C154 C 0.1524(5) -0.6896(4) 1.3153(3)
H112 H 0.0911 -0.6699 1.3388
N15 N 0.5857(4) -0.0899(4) 0.5150(3)
O1 O 0.6418(3) -0.1538(3) 0.5000(3)
O2 O 0.6154(5) -0.0360(3) 0.5416(3)
O3 O 0.5061(4) -0.0810(4) 0.5046(4)
N16 N 0.5644(4) -0.4607(4) 0.4333(3)
O4 O 0.6151(4) -0.4005(3) 0.4000(3)
O5 O 0.5470(5) -0.4741(4) 0.4965(3)
O6 O 0.5332(4) -0.5069(4) 0.4028(3)
N17 N 0.8362(4) -0.3435(3) 0.4922(3)
O7 O 0.7838(3) -0.2766(3) 0.5080(2)
O8 O 0.8037(4) -0.3928(3) 0.4627(2)
O9 O 0.9148(4) -0.3575(4) 0.5039(4)
N18 N 1.2235(6) 0.0094(4) -0.5737(3)
O10 O 1.2557(4) 0.0646(3) -0.5506(2)
O11 O 1.2705(7) -0.0591(4) -0.5860(4)
O12 O 1.1442(5) 0.0265(3) -0.5850(3)
N19 N 0.9234(4) 0.1600(3) -0.5683(3)
O13 O 0.9340(5) 0.1106(5) -0.5140(3)
O14 O 0.8483(4) 0.1708(3) -0.5868(3)
O15 O 0.9938(4) 0.1999(3) -0.6048(3)
N20 N 1.1227(4) 0.3342(3) -0.5002(2)
O16 O 1.0575(3) 0.3167(3) -0.5245(2)
O17 O 1.1198(3) 0.4033(3) -0.4774(2)
O18 O 1.1936(3) 0.2787(3) -0.4989(2)
O37 O 0.5032(4) -0.2273(4) 0.4467(3)
C155 C 0.4211(7) -0.2556(7) 0.4394(7)
H113 H 0.3750 -0.2055 0.4333
H114 H 0.3946 -0.2969 0.4805
H115 H 0.4352 -0.2846 0.3991
O38 O 0.8077(4) -0.0012(3) 0.5638(3)
C156 C 0.7808(15) 0.0364(11) 0.6173(7)
H116 H 0.8127 0.0905 0.6089
H117 H 0.7974 -0.0028 0.6570
H118 H 0.7120 0.0500 0.6265
C157 C 1.0077(8) -0.1315(7) 0.5499(11)
H119 H 1.0609 -0.1675 0.5649
H120 H 0.9914 -0.0812 0.5738
H121 H 1.0259 -0.1109 0.5002
O39 O 0.9284(4) -0.1817(3) 0.5652(3)
C158 C 1.2895(9) 0.5673(7) -0.4084(10)
H122 H 1.2460 0.6153 -0.3920
H123 H 1.3338 0.5898 -0.4512
H124 H 1.3251 0.5406 -0.3737
O40 O 1.2382(4) 0.5052(3) -0.4202(3)
O41 O 1.4326(4) 0.3983(3) -0.4360(3)
C159 C 1.4655(8) 0.3817(7) -0.3743(5)
H125 H 1.5303 0.3999 -0.3841
H126 H 1.4653 0.3192 -0.3556
H127 H 1.4238 0.4147 -0.3408
O42 O 1.3876(3) 0.2415(3) -0.4667(2)
C160 C 1.3651(6) 0.1587(5) -0.4747(6)
H128 H 1.3209 0.1330 -0.4330
H129 H 1.4233 0.1201 -0.4828
H130 H 1.3356 0.1661 -0.5139
N14_2 N 1.1994(4) 0.2434(3) -0.6514(2)
N11_2 N 1.3298(3) 0.4263(3) -0.5688(2)
Cd6_2 Cd 0.28775(3) -0.63030(2) 1.544720(19)
Cd2_2 Cd 0.11763(3) -0.83130(3) 1.45096(2)
Cd3 Cd -0.19200(3) -0.59345(2) 0.195486(19)
N1 N -0.2764(4) -0.4585(3) 0.1886(2)
C1 C -0.2606(5) -0.3941(4) 0.1336(3)
H1 H -0.2094 -0.4033 0.0960
C2 C -0.3143(4) -0.3161(4) 0.1291(3)
H2 H -0.3000 -0.2733 0.0888
C3 C -0.3896(4) -0.2993(3) 0.1831(3)
C4 C -0.4060(4) -0.3660(3) 0.2403(3)
H3 H -0.4567 -0.3581 0.2786
C5 C -0.3484(4) -0.4440(4) 0.2415(3)
H4 H -0.3607 -0.4881 0.2810
C6 C -0.4520(4) -0.2183(3) 0.1817(3)
C7 C -0.4891(4) -0.1825(4) 0.2405(3)
H5 H -0.4711 -0.2089 0.2819
C8 C -0.5524(4) -0.1085(4) 0.2402(3)
H6 H -0.5768 -0.0851 0.2813
C9 C -0.5804(4) -0.0682(3) 0.1798(3)
C10 C -0.5386(4) -0.1016(4) 0.1193(3)
H7 H -0.5537 -0.0733 0.0773
C11 C -0.4751(4) -0.1761(4) 0.1201(3)
H8 H -0.4476 -0.1981 0.0788
C12 C -0.6545(4) 0.0054(3) 0.1807(3)
C13 C -0.6645(4) 0.0631(3) 0.1201(3)
H9 H -0.6190 0.0592 0.0783
C14 C -0.7404(4) 0.1256(4) 0.1215(3)
H10 H -0.7451 0.1649 0.0805
C15 C -0.8102(4) 0.1322(3) 0.1812(3)
C16 C -0.7978(4) 0.0764(4) 0.2418(3)
H11 H -0.8423 0.0812 0.2839
C17 C -0.7218(5) 0.0146(4) 0.2407(3)
H12 H -0.7154 -0.0227 0.2823
N2 N -1.0577(3) 0.3108(3) 0.1858(2)
C18 C -0.9823(4) 0.3210(4) 0.1330(3)
H13 H -0.9845 0.3688 0.0966
C19 C -0.9004(5) 0.2643(4) 0.1293(3)
H14 H -0.8482 0.2735 0.0908
C20 C -0.8957(4) 0.1937(3) 0.1826(3)
C21 C -0.9741(4) 0.1854(3) 0.2362(3)
H15 H -0.9742 0.1382 0.2734
C22 C -1.0522(4) 0.2437(3) 0.2373(3)
H16 H -1.1044 0.2364 0.2758
N5 N -0.2006(3) -0.6054(3) 0.0835(2)
C45 C -0.2565(6) -0.6569(4) 0.0697(3)
H33 H -0.2953 -0.6921 0.1070
C46 C -0.2612(6) -0.6621(5) 0.0033(3)
H34 H -0.3046 -0.6980 -0.0040
C47 C -0.2015(4) -0.6140(3) -0.0525(3)
C48 C -0.1457(5) -0.5600(5) -0.0375(3)
H35 H -0.1062 -0.5235 -0.0734
C49 C -0.1468(5) -0.5585(4) 0.0313(3)
H36 H -0.1063 -0.5212 0.0404
C50 C -0.2006(4) -0.6180(3) -0.1251(3)
C51 C -0.2332(4) -0.6875(4) -0.1428(3)
H37 H -0.2585 -0.7334 -0.1076
C52 C -0.2304(4) -0.6925(4) -0.2104(3)
H38 H -0.2544 -0.7411 -0.2206
C53 C -0.1925(4) -0.6263(4) -0.2639(3)
C54 C -0.1603(5) -0.5557(4) -0.2454(3)
H39 H -0.1351 -0.5094 -0.2803
C55 C -0.1644(5) -0.5516(4) -0.1772(3)
H40 H -0.1420 -0.5027 -0.1663
C56 C -0.1897(4) -0.6300(4) -0.3369(3)
C57 C -0.2489(5) -0.6787(4) -0.3555(3)
H41 H -0.2900 -0.7152 -0.3208
C58 C -0.2498(4) -0.6755(4) -0.4239(3)
H42 H -0.2914 -0.7098 -0.4352
C59 C -0.1908(4) -0.6229(4) -0.4760(3)
C60 C -0.1282(4) -0.5757(4) -0.4578(3)
H43 H -0.0855 -0.5408 -0.4927
C61 C -0.1277(4) -0.5792(4) -0.3893(3)
H44 H -0.0846 -0.5466 -0.3779
N6 N -0.1974(3) -0.6029(3) -0.6877(2)
C62 C -0.2740(4) -0.6243(3) -0.6369(3)
H45 H -0.3300 -0.6352 -0.6487
C63 C -0.2741(4) -0.6310(4) -0.5680(3)
H46 H -0.3300 -0.6451 -0.5338
C64 C -0.1937(4) -0.6173(3) -0.5490(3)
C65 C -0.1136(4) -0.5959(4) -0.6023(3)
H47 H -0.0557 -0.5871 -0.5919
C66 C -0.1199(4) -0.5880(4) -0.6695(3)
H48 H -0.0661 -0.5709 -0.7048
N21 N -0.0051(5) -0.4568(4) 0.1407(3)
O19 O -0.0689(6) -0.4881(5) 0.1532(12)
O20 O 0.0240(15) -0.4353(10) 0.0839(5)
O21 O 0.0415(11) -0.457(2) 0.1766(9)
N22 N -0.3429(4) -0.7312(3) 0.2565(3)
O22 O -0.4188(4) -0.7638(4) 0.2876(4)
O23 O -0.2671(4) -0.7748(3) 0.2474(3)
O24 O -0.3437(3) -0.6495(3) 0.2325(2)
N2_2 N -0.0577(3) -0.6892(3) 0.1858(2)
N6_2 N -0.1974(3) -0.6029(3) 0.3123(2)
Cd3_2 Cd -1.19200(3) 0.40655(2) 0.195486(19)
Cd3_3 Cd -0.19200(3) -0.59345(2) -0.804514(19)
Cd5 Cd 0.52463(3) 0.05745(3) 0.86612(2)
N3 N 0.4228(4) 0.1757(3) 0.8771(3)
C23 C 0.4409(4) 0.2509(4) 0.8335(4)
H17 H 0.5009 0.2554 0.8021
C24 C 0.3757(4) 0.3215(4) 0.8329(3)
H18 H 0.3911 0.3737 0.8013
C25 C 0.2879(4) 0.3177(3) 0.8779(3)
C26 C 0.2712(4) 0.2407(4) 0.9252(3)
H19 H 0.2133 0.2357 0.9590
C27 C 0.3398(4) 0.1719(4) 0.9221(3)
H20 H 0.3270 0.1193 0.9538
C28 C 0.2146(4) 0.3915(3) 0.8768(3)
C29 C 0.1616(4) 0.4166(4) 0.9379(3)
H21 H 0.1711 0.3852 0.9808
C30 C 0.0954(4) 0.4872(4) 0.9360(3)
H22 H 0.0599 0.5042 0.9778
C31 C 0.0793(4) 0.5346(3) 0.8733(3)
C32 C 0.1310(4) 0.5076(4) 0.8127(3)
H23 H 0.1197 0.5373 0.7698
C33 C 0.1992(4) 0.4374(4) 0.8145(3)
H24 H 0.2354 0.4207 0.7727
C34 C 0.0048(4) 0.6077(3) 0.8722(3)
C35 C -0.0347(4) 0.6475(4) 0.9315(3)
H25 H -0.0121 0.6275 0.9721
C36 C -0.1046(4) 0.7140(4) 0.9305(3)
H26 H -0.1324 0.7374 0.9712
C37 C -0.1362(4) 0.7487(3) 0.8696(3)
C38 C -0.0955(4) 0.7111(4) 0.8121(3)
H27 H -0.1157 0.7336 0.7708
C39 C -0.0271(4) 0.6425(4) 0.8121(3)
H28 H -0.0013 0.6186 0.7714
N4 N -0.3557(4) 0.9528(3) 0.8666(3)
C40 C -0.3585(4) 0.8916(4) 0.9228(3)
H29 H -0.4105 0.8939 0.9612
C41 C -0.2876(4) 0.8252(4) 0.9259(3)
H30 H -0.2903 0.7827 0.9663
C42 C -0.2109(4) 0.8214(3) 0.8685(3)
C43 C -0.2088(4) 0.8851(4) 0.8120(3)
H31 H -0.1580 0.8849 0.7725
C44 C -0.2823(4) 0.9501(4) 0.8134(3)
H32 H -0.2799 0.9949 0.7744
N23 N 0.5627(8) 0.1290(6) 0.7115(5)
O25 O 0.6117(5) 0.1288(6) 0.7521(4)
O26 O 0.4957(14) 0.0934(15) 0.7367(9)
O27 O 0.5877(14) 0.1589(12) 0.6566(6)
N24 N 0.6143(5) 0.1276(3) 0.9532(3)
O28 O 0.6357(4) 0.1480(3) 0.8898(2)
O29 O 0.5520(4) 0.0758(3) 0.9813(3)
O30 O 0.6562(7) 0.1598(5) 0.9881(4)
N25 N 0.3785(5) -0.0631(4) 0.9175(6)
O31 O 0.4145(4) -0.0316(3) 0.9570(3)
O32 O 0.4136(6) -0.0398(5) 0.8539(4)
O33 O 0.3155(6) -0.1096(5) 0.9373(6)
N4_2 N 0.6443(4) -0.0472(3) 0.8666(3)
Cd5_2 Cd -0.47537(3) 1.05745(3) 0.86612(2)
N26 N 2.0257(5) 1.6165(4) -0.3714(3)
O34 O 1.9442(5) 1.6443(5) -0.3472(4)
O35 O 2.0563(4) 1.5417(3) -0.3509(3)
O36 O 2.0770(6) 1.6648(5) -0.4184(4)
O43 O 0.5705(4) 0.2157(4) 0.5238(3)
C161 C 0.6110(7) 0.1736(6) 0.4646(7)
H131 H 0.6119 0.2164 0.4225
H132 H 0.5726 0.1260 0.4654
H133 H 0.6760 0.1501 0.4660
O44 O -0.4226(12) -0.8163(8) 0.1259(7)
C162 C -0.4054(11) -0.8912(6) 0.1605(6)
H134 H -0.3380 -0.9101 0.1459
H135 H -0.4442 -0.9335 0.1526
H136 H -0.4205 -0.8875 0.2095
O45 O 0.6019(5) 0.0466(4) 0.3375(4)
C163 C 0.5004(7) 0.0408(6) 0.3539(6)
H137 H 0.4734 0.0527 0.4006
H138 H 0.4866 -0.0179 0.3511
H139 H 0.4724 0.0839 0.3212
O46 O 0.1649(17) -0.2966(17) 0.0260(14)
C164 C 0.0916(8) -0.3461(6) 0.3279(9)
C165 C 0.1229(7) -0.3116(7) 0.2597(10)
H140 H 0.1090 -0.3363 0.2246
C166 C 0.1730(10) -0.2428(8) 0.2449(14)
C167 C 0.1950(8) -0.2118(8) 0.2987(14)
H141 H 0.2344 -0.1643 0.2870
C168 C 0.1610(11) -0.2480(11) 0.3743(15)
H142 H 0.1721 -0.2266 0.4120
C169 C 0.1154(11) -0.3120(10) 0.3769(13)
H143 H 0.0933 -0.3426 0.4221
C170 C 0.0388(11) -0.4226(9) 0.3448(9)
H144 H 0.0288 -0.4374 0.3027
H145 H -0.0227 -0.4110 0.3756
H146 H 0.0745 -0.4716 0.3676
C171 C 0.2075(13) -0.2030(12) 0.1731(18)
H147 H 0.1857 -0.2344 0.1432
H148 H 0.2770 -0.2062 0.1618
H149 H 0.1827 -0.1417 0.1661
C172 C 0.2391(8) -1.2060(8) 0.7698(11)
C173 C 0.2965(7) -1.1400(6) 0.7570(8)
H150 H 0.3155 -1.1205 0.7927
C174 C 0.3282(7) -1.0998(6) 0.6833(9)
C175 C 0.2977(10) -1.1369(10) 0.6366(9)
H151 H 0.3221 -1.1106 0.5904
C176 C 0.2476(11) -1.1943(13) 0.6408(18)
H152 H 0.2331 -1.2116 0.6025
C177 C 0.2130(10) -1.2327(11) 0.7098(14)
H153 H 0.1711 -1.2778 0.7189
C178 C 0.2012(11) -1.2490(8) 0.8405(11)
H154 H 0.1597 -1.2936 0.8401
H155 H 0.1649 -1.2055 0.8674
H156 H 0.2538 -1.2765 0.8611
C179 C 0.3850(10) -1.0288(10) 0.6702(9)
H157 H 0.3976 -1.0198 0.7134
H158 H 0.3517 -0.9759 0.6500
H159 H 0.4452 -1.0412 0.6382
loop_
_geom_bond_atom_site_label_1
_geom_bond_atom_site_label_2
_geom_bond_site_symmetry_1
_geom_bond_site_symmetry_2
Cd1 N10 1_555 1_555
Cd2 N9 1_555 1_555
Cd3 N1 1_555 1_555
Cd4 N7 1_555 1_555
Cd5 N3 1_555 1_555
Cd6 N8 1_555 1_555
N1 C1 1_555 1_555
C1 H1 1_555 1_555
C2 C1 1_555 1_555
H2 C2 1_555 1_555
C3 C2 1_555 1_555
C4 C3 1_555 1_555
H3 C4 1_555 1_555
C5 N1 1_555 1_555
H4 C5 1_555 1_555
C6 C3 1_555 1_555
C7 C6 1_555 1_555
H5 C7 1_555 1_555
C8 C7 1_555 1_555
H6 C8 1_555 1_555
C9 C8 1_555 1_555
C10 C9 1_555 1_555
H7 C10 1_555 1_555
C11 C6 1_555 1_555
H8 C11 1_555 1_555
C12 C9 1_555 1_555
C13 C12 1_555 1_555
H9 C13 1_555 1_555
C14 C13 1_555 1_555
H10 C14 1_555 1_555
C15 C14 1_555 1_555
C16 C15 1_555 1_555
H11 C16 1_555 1_555
C17 C12 1_555 1_555
H12 C17 1_555 1_555
N2 C18 1_555 1_555
C18 H13 1_555 1_555
C19 C18 1_555 1_555
H14 C19 1_555 1_555
C20 C15 1_555 1_555
C21 C20 1_555 1_555
H15 C21 1_555 1_555
C22 N2 1_555 1_555
H16 C22 1_555 1_555
N3 C23 1_555 1_555
C23 H17 1_555 1_555
C24 C23 1_555 1_555
H18 C24 1_555 1_555
C25 C24 1_555 1_555
C26 C25 1_555 1_555
H19 C26 1_555 1_555
C27 N3 1_555 1_555
H20 C27 1_555 1_555
C28 C25 1_555 1_555
C29 C28 1_555 1_555
H21 C29 1_555 1_555
C30 C29 1_555 1_555
H22 C30 1_555 1_555
C31 C30 1_555 1_555
C32 C31 1_555 1_555
H23 C32 1_555 1_555
C33 C28 1_555 1_555
H24 C33 1_555 1_555
C34 C31 1_555 1_555
C35 C34 1_555 1_555
H25 C35 1_555 1_555
C36 C35 1_555 1_555
H26 C36 1_555 1_555
C37 C36 1_555 1_555
C38 C37 1_555 1_555
H27 C38 1_555 1_555
C39 C34 1_555 1_555
H28 C39 1_555 1_555
N4 C40 1_555 1_555
C40 H29 1_555 1_555
C41 C40 1_555 1_555
H30 C41 1_555 1_555
C42 C37 1_555 1_555
C43 C42 1_555 1_555
H31 C43 1_555 1_555
C44 N4 1_555 1_555
H32 C44 1_555 1_555
N5 Cd3 1_555 1_555
C45 N5 1_555 1_555
H33 C45 1_555 1_555
C46 C45 1_555 1_555
H34 C46 1_555 1_555
C47 C46 1_555 1_555
C48 C47 1_555 1_555
H35 C48 1_555 1_555
C49 N5 1_555 1_555
H36 C49 1_555 1_555
C50 C47 1_555 1_555
C51 C50 1_555 1_555
H37 C51 1_555 1_555
C52 C51 1_555 1_555
H38 C52 1_555 1_555
C53 C52 1_555 1_555
C54 C53 1_555 1_555
H39 C54 1_555 1_555
C55 C50 1_555 1_555
H40 C55 1_555 1_555
C56 C53 1_555 1_555
C57 C56 1_555 1_555
H41 C57 1_555 1_555
C58 C57 1_555 1_555
H42 C58 1_555 1_555
C59 C58 1_555 1_555
C60 C59 1_555 1_555
H43 C60 1_555 1_555
C61 C56 1_555 1_555
H44 C61 1_555 1_555
N6 C62 1_555 1_555
C62 H45 1_555 1_555
C63 C62 1_555 1_555
H46 C63 1_555 1_555
C64 C59 1_555 1_555
C65 C64 1_555 1_555
H47 C65 1_555 1_555
C66 N6 1_555 1_555
H48 C66 1_555 1_555
N7 C67 1_555 1_555
C67 H49 1_555 1_555
C68 C67 1_555 1_555
H50 C68 1_555 1_555
C69 C68 1_555 1_555
C70 C69 1_555 1_555
H51 C70 1_555 1_555
C71 N7 1_555 1_555
H52 C71 1_555 1_555
C72 C69 1_555 1_555
C73 C72 1_555 1_555
H53 C73 1_555 1_555
C74 C73 1_555 1_555
H54 C74 1_555 1_555
C75 C74 1_555 1_555
C76 C75 1_555 1_555
H55 C76 1_555 1_555
C77 C72 1_555 1_555
H56 C77 1_555 1_555
C78 C75 1_555 1_555
C79 C78 1_555 1_555
H57 C79 1_555 1_555
C80 C79 1_555 1_555
H58 C80 1_555 1_555
C81 C80 1_555 1_555
C82 C81 1_555 1_555
H59 C82 1_555 1_555
C83 C78 1_555 1_555
H60 C83 1_555 1_555
N8 C84 1_555 1_555
C84 H61 1_555 1_555
C85 C84 1_555 1_555
H62 C85 1_555 1_555
C86 C81 1_555 1_555
C87 C86 1_555 1_555
H63 C87 1_555 1_555
C88 N8 1_555 1_555
H64 C88 1_555 1_555
N9 C89 1_555 1_555
C89 H65 1_555 1_555
C90 C89 1_555 1_555
H66 C90 1_555 1_555
C91 C90 1_555 1_555
C92 C91 1_555 1_555
H67 C92 1_555 1_555
C93 N9 1_555 1_555
H68 C93 1_555 1_555
C94 C91 1_555 1_555
C95 C94 1_555 1_555
H69 C95 1_555 1_555
C96 C95 1_555 1_555
H70 C96 1_555 1_555
C97 C96 1_555 1_555
C98 C97 1_555 1_555
H71 C98 1_555 1_555
C99 C94 1_555 1_555
H72 C99 1_555 1_555
C100 C97 1_555 1_555
C101 C100 1_555 1_555
H73 C101 1_555 1_555
C102 C101 1_555 1_555
H74 C102 1_555 1_555
C103 C102 1_555 1_555
C104 C103 1_555 1_555
H75 C104 1_555 1_555
C105 C100 1_555 1_555
H76 C105 1_555 1_555
N10 C106 1_555 1_555
C106 H77 1_555 1_555
C107 C106 1_555 1_555
H78 C107 1_555 1_555
C108 C103 1_555 1_555
C109 C108 1_555 1_555
H79 C109 1_555 1_555
C110 N10 1_555 1_555
H80 C110 1_555 1_555
N11 C111 1_555 1_555
C111 H81 1_555 1_555
C112 C111 1_555 1_555
H82 C112 1_555 1_555
C113 C112 1_555 1_555
C114 C113 1_555 1_555
H83 C114 1_555 1_555
C115 N11 1_555 1_555
H84 C115 1_555 1_555
C116 C113 1_555 1_555
C117 C116 1_555 1_555
H85 C117 1_555 1_555
C118 C117 1_555 1_555
H86 C118 1_555 1_555
C119 C118 1_555 1_555
C120 C119 1_555 1_555
H87 C120 1_555 1_555
C121 C116 1_555 1_555
H88 C121 1_555 1_555
C122 C119 1_555 1_555
C123 C122 1_555 1_555
H89 C123 1_555 1_555
C124 C123 1_555 1_555
H90 C124 1_555 1_555
C125 C124 1_555 1_555
C126 C125 1_555 1_555
H91 C126 1_555 1_555
C127 C122 1_555 1_555
H92 C127 1_555 1_555
N12 Cd4 1_555 1_555
C128 N12 1_555 1_555
H93 C128 1_555 1_555
C129 C128 1_555 1_555
H94 C129 1_555 1_555
C130 C125 1_555 1_555
C131 C130 1_555 1_555
H95 C131 1_555 1_555
C132 N12 1_555 1_555
H96 C132 1_555 1_555
N13 Cd1 1_555 1_555
C133 N13 1_555 1_555
H97 C133 1_555 1_555
C134 C133 1_555 1_555
H98 C134 1_555 1_555
C135 C134 1_555 1_555
C136 C135 1_555 1_555
H99 C136 1_555 1_555
C137 N13 1_555 1_555
H100 C137 1_555 1_555
C138 C135 1_555 1_555
C139 C138 1_555 1_555
H101 C139 1_555 1_555
C140 C139 1_555 1_555
H102 C140 1_555 1_555
C141 C140 1_555 1_555
C142 C141 1_555 1_555
H103 C142 1_555 1_555
C143 C138 1_555 1_555
H104 C143 1_555 1_555
C144 C141 1_555 1_555
C145 C144 1_555 1_555
H105 C145 1_555 1_555
C146 C145 1_555 1_555
H106 C146 1_555 1_555
C147 C146 1_555 1_555
C148 C147 1_555 1_555
H107 C148 1_555 1_555
C149 C144 1_555 1_555
H108 C149 1_555 1_555
N14 C150 1_555 1_555
C150 H109 1_555 1_555
C151 C150 1_555 1_555
H110 C151 1_555 1_555
C152 C147 1_555 1_555
C153 C152 1_555 1_555
H111 C153 1_555 1_555
C154 N14 1_555 1_555
H112 C154 1_555 1_555
N15 O1 1_555 1_555
O1 Cd1 1_555 1_555
O2 Cd4 1_555 1_555
O3 N15 1_555 1_555
N16 O4 1_555 1_555
O4 Cd1 1_555 1_555
O5 N16 1_555 1_555
O6 N16 1_555 1_555
N17 O7 1_555 1_555
O7 Cd1 1_555 1_555
O8 Cd1 1_555 1_555
O9 N17 1_555 1_555
N18 O10 1_555 1_555
O10 Cd2 1_555 1_555
O11 N18 1_555 1_555
O12 Cd2 1_555 1_555
N19 O13 1_555 1_555
O14 N19 1_555 1_555
O15 Cd2 1_555 1_555
N20 O16 1_555 1_555
O16 Cd2 1_555 1_555
O17 Cd6 1_555 1_555
O18 Cd2 1_555 1_555
N21 O19 1_555 1_555
O19 Cd3 1_555 1_555
O20 N21 1_555 1_555
O21 N21 1_555 1_555
N22 O22 1_555 1_555
O23 N22 1_555 1_555
O24 Cd3 1_555 1_555
N23 O25 1_555 1_555
O25 Cd5 1_555 1_555
O26 Cd5 1_555 1_555
O27 N23 1_555 1_555
N24 O28 1_555 1_555
O28 Cd5 1_555 1_555
O29 Cd5 1_555 1_555
O30 N24 1_555 1_555
N25 O31 1_555 1_555
O31 Cd5 1_555 1_555
O32 Cd5 1_555 1_555
O33 N25 1_555 1_555
N26 O34 1_555 1_555
O35 N26 1_555 1_555
O36 N26 1_555 1_555
O37 Cd1 1_555 1_555
C155 O37 1_555 1_555
H113 C155 1_555 1_555
H114 C155 1_555 1_555
H115 C155 1_555 1_555
O38 Cd4 1_555 1_555
C156 O38 1_555 1_555
H116 C156 1_555 1_555
H117 C156 1_555 1_555
H118 C156 1_555 1_555
C157 H119 1_555 1_555
H120 C157 1_555 1_555
H121 C157 1_555 1_555
O39 Cd4 1_555 1_555
C158 H122 1_555 1_555
H123 C158 1_555 1_555
H124 C158 1_555 1_555
O40 Cd6 1_555 1_555
O41 Cd6 1_555 1_555
C159 O41 1_555 1_555
H125 C159 1_555 1_555
H126 C159 1_555 1_555
H127 C159 1_555 1_555
O42 Cd6 1_555 1_555
C160 O42 1_555 1_555
H128 C160 1_555 1_555
H129 C160 1_555 1_555
H130 C160 1_555 1_555
O43 C161 1_555 1_555
C161 H131 1_555 1_555
H132 C161 1_555 1_555
H133 C161 1_555 1_555
O44 C162 1_555 1_555
C162 H134 1_555 1_555
H135 C162 1_555 1_555
H136 C162 1_555 1_555
O45 C163 1_555 1_555
C163 H137 1_555 1_555
H138 C163 1_555 1_555
H139 C163 1_555 1_555
C164 C165 1_555 1_555
C165 H140 1_555 1_555
C166 C165 1_555 1_555
C167 C166 1_555 1_555
H141 C167 1_555 1_555
C168 C167 1_555 1_555
H142 C168 1_555 1_555
C169 C164 1_555 1_555
H143 C169 1_555 1_555
C170 C164 1_555 1_555
H144 C170 1_555 1_555
H145 C170 1_555 1_555
H146 C170 1_555 1_555
C171 C166 1_555 1_555
H147 C171 1_555 1_555
H148 C171 1_555 1_555
H149 C171 1_555 1_555
C172 C173 1_555 1_555
C173 H150 1_555 1_555
C174 C173 1_555 1_555
C175 C174 1_555 1_555
H151 C175 1_555 1_555
C176 C175 1_555 1_555
H152 C176 1_555 1_555
C177 C172 1_555 1_555
H153 C177 1_555 1_555
C178 C172 1_555 1_555
H154 C178 1_555 1_555
H155 C178 1_555 1_555
H156 C178 1_555 1_555
C179 C174 1_555 1_555
H157 C179 1_555 1_555
H158 C179 1_555 1_555
H159 C179 1_555 1_555
N14_2 Cd2 1_555 1_555
N2_2 Cd3 1_555 1_555
N6_2 Cd3 1_555 1_555
N4_2 Cd5 1_555 1_555
N11_2 Cd6 1_555 1_555
Cd3_2 N2 1_555 1_555
Cd5_2 N4 1_555 1_555
Cd3_3 N6 1_555 1_555
Cd6_2 N11 1_555 1_555
Cd2_2 N14 1_555 1_555
Cd4 O1 1_555 1_555
Cd4 O7 1_555 1_555
Cd6 O18 1_555 1_555
C4 C5 1_555 1_555
C10 C11 1_555 1_555
C16 C17 1_555 1_555
C19 C20 1_555 1_555
C21 C22 1_555 1_555
C26 C27 1_555 1_555
C32 C33 1_555 1_555
C38 C39 1_555 1_555
C41 C42 1_555 1_555
C43 C44 1_555 1_555
C48 C49 1_555 1_555
C54 C55 1_555 1_555
C60 C61 1_555 1_555
C63 C64 1_555 1_555
C65 C66 1_555 1_555
C70 C71 1_555 1_555
C76 C77 1_555 1_555
C82 C83 1_555 1_555
C85 C86 1_555 1_555
C87 C88 1_555 1_555
C92 C93 1_555 1_555
C98 C99 1_555 1_555
C104 C105 1_555 1_555
C107 C108 1_555 1_555
C109 C110 1_555 1_555
C114 C115 1_555 1_555
C120 C121 1_555 1_555
C126 C127 1_555 1_555
C129 C130 1_555 1_555
C131 C132 1_555 1_555
C136 C137 1_555 1_555
C142 C143 1_555 1_555
C148 C149 1_555 1_555
C151 C152 1_555 1_555
C153 C154 1_555 1_555
N15 O2 1_555 1_555
N17 O8 1_555 1_555
N18 O12 1_555 1_555
N19 O15 1_555 1_555
N20 O17 1_555 1_555
N20 O18 1_555 1_555
N22 O24 1_555 1_555
N23 O26 1_555 1_555
N24 O29 1_555 1_555
N25 O32 1_555 1_555
C157 O39 1_555 1_555
C158 O40 1_555 1_555
C168 C169 1_555 1_555
C176 C177 1_555 1_555

#END
