
#######################################################################
#
#                 Cambridge Crystallographic Data Centre
#                                CCDC 
#
#######################################################################
#
# If this CIF has been generated from an entry in the Cambridge 
# Structural Database, then it will include bibliographic, chemical, 
# crystal, experimental, refinement or atomic coordinate data resulting 
# from the CCDC's data processing and validation procedures.
#
#######################################################################

data_XOTHOD
_symmetry_cell_setting           triclinic
_symmetry_space_group_name_H-M   'P 1'
_symmetry_Int_Tables_number      1
_space_group_name_Hall           'P 1'
loop_
_symmetry_equiv_pos_site_id
_symmetry_equiv_pos_as_xyz
1 x,y,z
_cell_length_a                   14.692(2)
_cell_length_b                   15.522(2)
_cell_length_c                   20.387(3)
_cell_angle_alpha                79.360(3)
_cell_angle_beta                 74.950(3)
_cell_angle_gamma                83.088(4)
_cell_volume                     4399.72
loop_
_atom_site_label
_atom_site_type_symbol
_atom_site_fract_x
_atom_site_fract_y
_atom_site_fract_z
Cd1 Cd 0.64783(8) -0.30368(7) 0.46141(5)
Cd2 Cd 1.11874(8) 0.16789(7) -0.54886(5)
Cd4 Cd 0.77984(8) -0.13918(7) 0.54397(5)
Cd6 Cd 1.28939(8) 0.36465(7) -0.45304(5)
N7 N 0.8453(9) -0.0896(8) 0.4323(6)
C67 C 0.8086(10) -0.0151(9) 0.4008(7)
H49 H 0.7596 0.0181 0.4280
C68 C 0.8375(9) 0.0167(10) 0.3310(7)
H50 H 0.8103 0.0708 0.3114
C69 C 0.9068(10) -0.0327(10) 0.2908(7)
C70 C 0.9445(10) -0.1098(9) 0.3235(6)
H51 H 0.9929 -0.1452 0.2978
C71 C 0.9115(10) -0.1352(10) 0.3936(8)
H52 H 0.9382 -0.1884 0.4147
C72 C 0.9411(10) -0.0018(9) 0.2164(7)
C73 C 1.0311(11) -0.0231(10) 0.1797(7)
H53 H 1.0722 -0.0615 0.2030
C74 C 1.0651(11) 0.0087(8) 0.1102(6)
H54 H 1.1268 -0.0097 0.0861
C75 C 1.0070(11) 0.0676(9) 0.0770(7)
C76 C 0.9094(13) 0.0897(10) 0.1115(8)
H55 H 0.8675 0.1263 0.0879
C77 C 0.8805(12) 0.0548(9) 0.1803(7)
H56 H 0.8176 0.0693 0.2045
C78 C 1.0367(12) 0.1055(10) 0.0032(8)
C79 C 1.1055(10) 0.0554(10) -0.0424(7)
H57 H 1.1304 -0.0012 -0.0252
C80 C 1.1359(11) 0.0914(10) -0.1135(7)
H58 H 1.1779 0.0570 -0.1443
C81 C 1.1048(12) 0.1756(11) -0.1377(7)
C82 C 1.0383(11) 0.2229(11) -0.0933(7)
H59 H 1.0139 0.2799 -0.1099
C83 C 1.0075(12) 0.1863(10) -0.0244(8)
H60 H 0.9630 0.2207 0.0050
N8 N 1.2207(10) 0.2973(8) -0.3449(6)
C84 C 1.2684(12) 0.2385(12) -0.3107(8)
H61 H 1.3329 0.2254 -0.3321
C85 C 1.2336(12) 0.1936(11) -0.2462(7)
H62 H 1.2707 0.1473 -0.2256
C86 C 1.1422(12) 0.2185(11) -0.2121(8)
C87 C 1.0926(11) 0.2793(11) -0.2457(7)
H63 H 1.0293 0.2966 -0.2239
C88 C 1.1313(12) 0.3173(11) -0.3111(8)
H64 H 1.0933 0.3601 -0.3341
N9 N 1.0718(8) 0.1262(8) -0.4312(6)
C89 C 1.1193(11) 0.0634(10) -0.4003(7)
H65 H 1.1746 0.0364 -0.4269
C90 C 1.0931(12) 0.0339(10) -0.3302(7)
H66 H 1.1318 -0.0100 -0.3089
C91 C 1.0083(10) 0.0696(9) -0.2910(7)
C92 C 0.9613(12) 0.1356(11) -0.3245(9)
H67 H 0.9054 0.1639 -0.2997
C93 C 0.9938(11) 0.1636(10) -0.3964(7)
H68 H 0.9589 0.2095 -0.4194
C94 C 0.9766(10) 0.0349(9) -0.2130(7)
C95 C 0.9067(11) 0.0832(10) -0.1706(7)
H69 H 0.8803 0.1384 -0.1889
C96 C 0.8769(11) 0.0498(9) -0.1020(7)
H70 H 0.8312 0.0836 -0.0728
C97 C 0.9116(10) -0.0316(10) -0.0743(7)
C98 C 0.9819(11) -0.0805(11) -0.1169(7)
H71 H 1.0074 -0.1358 -0.0980
C99 C 1.0143(10) -0.0478(9) -0.1868(7)
H72 H 1.0609 -0.0809 -0.2160
C100 C 0.8788(9) -0.0735(9) 0.0019(7)
C101 C 0.9405(12) -0.1266(10) 0.0357(7)
H73 H 1.0037 -0.1404 0.0117
C102 C 0.9100(10) -0.1584(9) 0.1033(7)
H74 H 0.9527 -0.1943 0.1266
C103 C 0.8155(10) -0.1395(10) 0.1404(7)
C104 C 0.7581(11) -0.0883(10) 0.1036(8)
H75 H 0.6935 -0.0768 0.1258
C105 C 0.7900(12) -0.0523(10) 0.0351(8)
H76 H 0.7494 -0.0131 0.0120
N10 N 0.7211(8) -0.2382(8) 0.3535(5)
C106 C 0.6972(10) -0.1571(10) 0.3297(7)
H77 H 0.6598 -0.1193 0.3597
C107 C 0.7267(11) -0.1278(10) 0.2613(8)
H78 H 0.7066 -0.0692 0.2447
C108 C 0.7825(10) -0.1756(11) 0.2149(7)
C109 C 0.8144(10) -0.2582(10) 0.2426(7)
H79 H 0.8600 -0.2930 0.2142
C110 C 0.7798(11) -0.2905(11) 0.3121(7)
H80 H 0.7976 -0.3491 0.3303
N11 N 0.3345(8) -0.5801(9) 1.4346(5)
C111 C 0.3003(13) -0.5003(12) 1.4094(9)
H81 H 0.2581 -0.4658 1.4400
C112 C 0.3252(13) -0.4672(12) 1.3398(8)
H82 H 0.2998 -0.4104 1.3238
C113 C 0.3850(10) -0.5137(10) 1.2939(7)
C114 C 0.4174(11) -0.5949(8) 1.3203(6)
H83 H 0.4607 -0.6300 1.2909
C115 C 0.3876(11) -0.6272(11) 1.3905(7)
H84 H 0.4070 -0.6862 1.4067
C116 C 0.4164(9) -0.4787(9) 1.2197(7)
C117 C 0.3778(10) -0.3993(9) 1.1907(6)
H85 H 0.3260 -0.3685 1.2177
C118 C 0.4153(9) -0.3646(9) 1.1215(7)
H86 H 0.3913 -0.3079 1.1039
C119 C 0.4847(9) -0.4087(10) 1.0784(7)
C120 C 0.5193(10) -0.4902(9) 1.1089(6)
H87 H 0.5684 -0.5229 1.0813
C121 C 0.4872(9) -0.5233(9) 1.1737(6)
H88 H 0.5126 -0.5798 1.1905
C122 C 0.5207(10) -0.3711(11) 1.0032(6)
C123 C 0.6148(10) -0.3940(10) 0.9675(7)
H89 H 0.6562 -0.4304 0.9916
C124 C 0.6461(12) -0.3642(10) 0.8987(8)
H90 H 0.7065 -0.3847 0.8740
C125 C 0.5882(11) -0.3030(10) 0.8648(7)
C126 C 0.4961(10) -0.2779(10) 0.8984(7)
H91 H 0.4561 -0.2386 0.8747
C127 C 0.4640(10) -0.3129(9) 0.9688(7)
H92 H 0.4018 -0.2959 0.9928
N12 N 0.7059(9) -0.1967(8) 0.6529(6)
C128 C 0.6300(11) -0.1550(11) 0.6946(8)
H93 H 0.6034 -0.1004 0.6753
C129 C 0.5914(11) -0.1876(10) 0.7613(7)
H94 H 0.5403 -0.1555 0.7878
C130 C 0.6273(10) -0.2681(10) 0.7904(7)
C131 C 0.6986(10) -0.3155(10) 0.7461(7)
H95 H 0.7189 -0.3745 0.7615
C132 C 0.7370(10) -0.2753(10) 0.6814(6)
H96 H 0.7898 -0.3052 0.6546
N13 N 0.5935(9) -0.3548(8) 0.5766(6)
C133 C 0.5177(10) -0.3073(11) 0.6161(7)
H97 H 0.4897 -0.2539 0.5961
C134 C 0.4850(11) -0.3412(10) 0.6854(7)
H98 H 0.4358 -0.3090 0.7134
C135 C 0.5232(11) -0.4221(11) 0.7150(7)
C136 C 0.5985(11) -0.4628(11) 0.6716(7)
H99 H 0.6286 -0.5159 0.6902
C137 C 0.6316(11) -0.4298(11) 0.6030(7)
H100 H 0.6816 -0.4611 0.5749
C138 C 0.4908(12) -0.4592(11) 0.7890(7)
C139 C 0.5479(11) -0.5120(11) 0.8235(7)
H101 H 0.6124 -0.5238 0.8015
C140 C 0.5132(12) -0.5488(13) 0.8903(8)
H102 H 0.5540 -0.5908 0.9113
C141 C 0.4256(11) -0.5304(11) 0.9293(7)
C142 C 0.3678(12) -0.4743(11) 0.8948(8)
H103 H 0.3047 -0.4607 0.9192
C143 C 0.3978(12) -0.4339(9) 0.8218(8)
H104 H 0.3573 -0.3940 0.7990
C144 C 0.3852(11) -0.5658(10) 0.9992(8)
C145 C 0.3195(11) -0.5229(10) 1.0439(8)
H105 H 0.2966 -0.4649 1.0282
C146 C 0.2843(10) -0.5596(10) 1.1114(7)
H106 H 0.2343 -0.5280 1.1394
C147 C 0.3184(11) -0.6392(11) 1.1394(8)
C148 C 0.3837(10) -0.6842(10) 1.0951(7)
H107 H 0.4078 -0.7412 1.1121
C149 C 0.4168(11) -0.6504(11) 1.0260(7)
H108 H 0.4612 -0.6849 0.9966
N14 N 0.1981(8) -0.7613(8) 1.3483(6)
C150 C 0.2849(11) -0.7845(10) 1.3147(7)
H109 H 0.3197 -0.8311 1.3370
C151 C 0.3291(11) -0.7444(11) 1.2475(8)
H110 H 0.3928 -0.7622 1.2272
C152 C 0.2803(12) -0.6798(11) 1.2115(8)
C153 C 0.1919(12) -0.6547(11) 1.2478(8)
H111 H 0.1543 -0.6107 1.2256
C154 C 0.1545(12) -0.6910(11) 1.3162(8)
H112 H 0.0967 -0.6653 1.3408
N15 N 0.5888(8) -0.0871(7) 0.5164(6)
O1 O 0.6411(7) -0.1538(6) 0.5027(5)
O2 O 0.6157(8) -0.0329(7) 0.5441(5)
O3 O 0.5095(8) -0.0766(8) 0.5039(6)
N16 N 0.5627(9) -0.4630(8) 0.4332(5)
O4 O 0.6112(7) -0.4010(6) 0.4015(5)
O5 O 0.5446(10) -0.4759(8) 0.4968(5)
O6 O 0.5320(8) -0.5112(8) 0.4042(6)
N17 N 0.8282(8) -0.3470(7) 0.4924(6)
O7 O 0.7794(7) -0.2790(6) 0.5074(5)
O8 O 0.7991(7) -0.3947(6) 0.4617(5)
O9 O 0.9048(7) -0.3647(8) 0.5078(6)
N18 N 1.2298(8) 0.0089(8) -0.5721(6)
O10 O 1.2578(8) 0.0678(7) -0.5496(5)
O11 O 1.2768(11) -0.0599(8) -0.5810(7)
O12 O 1.1475(8) 0.0229(8) -0.5792(6)
N19 N 0.9248(8) 0.1556(7) -0.5657(6)
O13 O 0.9352(8) 0.1040(8) -0.5142(5)
O14 O 0.8502(7) 0.1686(7) -0.5839(6)
O15 O 0.9934(8) 0.1969(8) -0.6019(6)
N20 N 1.1265(8) 0.3332(7) -0.4995(5)
O16 O 1.0632(6) 0.3177(6) -0.5255(4)
O17 O 1.1214(6) 0.4002(6) -0.4738(5)
O18 O 1.1925(6) 0.2761(7) -0.4974(5)
O37 O 0.5041(7) -0.2263(8) 0.4494(5)
C155 C 0.4228(13) -0.2494(13) 0.4405(9)
H113 H 0.4370 -0.2804 0.4008
H114 H 0.3810 -0.1965 0.4323
H115 H 0.3915 -0.2881 0.4818
O38 O 0.8096(8) -0.0039(7) 0.5653(5)
C156 C 0.769(2) 0.0378(19) 0.6197(12)
H116 H 0.7022 0.0273 0.6355
H117 H 0.7763 0.1010 0.6058
H118 H 0.8007 0.0152 0.6571
C157 C 1.0010(14) -0.1380(14) 0.5480(10)
H119 H 0.9839 -0.0799 0.5241
H120 H 1.0530 -0.1674 0.5172
H121 H 1.0207 -0.1315 0.5891
O39 O 0.9237(8) -0.1878(8) 0.5672(6)
C158 C 1.2863(13) 0.5662(16) -0.4145(14)
H122 H 1.2961 0.5602 -0.3681
H123 H 1.2503 0.6221 -0.4250
H124 H 1.3477 0.5648 -0.4480
O40 O 1.2383(7) 0.4998(7) -0.4179(5)
O41 O 1.4305(8) 0.3931(7) -0.4360(5)
C159 C 1.4594(17) 0.3793(15) -0.3720(10)
H125 H 1.4310 0.4272 -0.3462
H126 H 1.5285 0.3780 -0.3818
H127 H 1.4385 0.3232 -0.3446
O42 O 1.3908(7) 0.2385(7) -0.4660(5)
C160 C 1.3662(13) 0.1501(13) -0.4646(9)
H128 H 1.2998 0.1442 -0.4401
H129 H 1.4066 0.1073 -0.4410
H130 H 1.3756 0.1392 -0.5118
N14_2 N 1.1981(8) 0.2387(8) -0.6517(6)
N11_2 N 1.3345(8) 0.4199(9) -0.5654(5)
Cd6_2 Cd 0.28939(8) -0.63535(7) 1.54696(5)
Cd2_2 Cd 0.11874(8) -0.83211(7) 1.45114(5)
Cd3 Cd -0.19098(7) -0.59276(7) 0.19526(5)
N1 N -0.2799(8) -0.4597(6) 0.1898(5)
C1 C -0.2635(11) -0.3960(9) 0.1350(7)
H1 H -0.2109 -0.4047 0.0977
C2 C -0.3190(10) -0.3192(9) 0.1303(7)
H2 H -0.3066 -0.2768 0.0896
C3 C -0.3928(9) -0.3036(9) 0.1848(7)
C4 C -0.4096(9) -0.3649(8) 0.2410(6)
H3 H -0.4600 -0.3558 0.2797
C5 C -0.3517(9) -0.4418(8) 0.2412(6)
H4 H -0.3644 -0.4852 0.2812
C6 C -0.4545(9) -0.2203(9) 0.1821(6)
C7 C -0.4924(9) -0.1835(9) 0.2423(8)
H5 H -0.4756 -0.2101 0.2838
C8 C -0.5548(10) -0.1080(9) 0.2418(8)
H6 H -0.5764 -0.0816 0.2821
C9 C -0.5857(9) -0.0708(8) 0.1829(7)
C10 C -0.5439(9) -0.1068(9) 0.1227(8)
H7 H -0.5598 -0.0792 0.0811
C11 C -0.4802(10) -0.1810(9) 0.1210(8)
H8 H -0.4548 -0.2045 0.0796
C12 C -0.6601(10) 0.0017(9) 0.1816(7)
C13 C -0.6700(10) 0.0609(9) 0.1235(7)
H9 H -0.6235 0.0581 0.0816
C14 C -0.7440(9) 0.1228(9) 0.1245(7)
H10 H -0.7481 0.1610 0.0830
C15 C -0.8138(9) 0.1320(9) 0.1843(7)
C16 C -0.8048(10) 0.0745(10) 0.2424(7)
H11 H -0.8501 0.0795 0.2845
C17 C -0.7312(10) 0.0087(9) 0.2413(6)
H12 H -0.7294 -0.0320 0.2820
N2 N -1.0622(8) 0.3091(7) 0.1879(5)
C18 C -0.9850(9) 0.3171(10) 0.1345(6)
H13 H -0.9864 0.3645 0.0977
C19 C -0.9034(11) 0.2600(10) 0.1301(8)
H14 H -0.8513 0.2683 0.0912
C20 C -0.8997(9) 0.1916(8) 0.1829(7)
C21 C -0.9771(10) 0.1844(8) 0.2370(6)
H15 H -0.9773 0.1385 0.2749
C22 C -1.0569(10) 0.2447(9) 0.2370(7)
H16 H -1.1099 0.2373 0.2753
N5 N -0.1983(8) -0.6047(7) 0.0840(6)
C45 C -0.2523(14) -0.6583(13) 0.0707(7)
H33 H -0.2908 -0.6944 0.1078
C46 C -0.2538(13) -0.6630(13) 0.0023(7)
H34 H -0.2942 -0.7024 -0.0043
C47 C -0.2023(10) -0.6158(9) -0.0538(6)
C48 C -0.1485(11) -0.5601(11) -0.0377(7)
H35 H -0.1112 -0.5211 -0.0733
C49 C -0.1483(11) -0.5605(11) 0.0307(7)
H36 H -0.1062 -0.5237 0.0384
C50 C -0.1993(12) -0.6175(11) -0.1276(8)
C51 C -0.2363(10) -0.6869(10) -0.1440(7)
H37 H -0.2645 -0.7310 -0.1081
C52 C -0.2333(10) -0.6926(9) -0.2083(7)
H38 H -0.2596 -0.7406 -0.2179
C53 C -0.1930(10) -0.6311(9) -0.2612(7)
C54 C -0.1625(12) -0.5578(10) -0.2469(7)
H39 H -0.1408 -0.5111 -0.2829
C55 C -0.1636(13) -0.5527(13) -0.1772(8)
H40 H -0.1396 -0.5043 -0.1665
C56 C -0.1948(9) -0.6311(9) -0.3354(6)
C57 C -0.2506(10) -0.6825(9) -0.3554(7)
H41 H -0.2895 -0.7220 -0.3215
C58 C -0.2508(11) -0.6773(10) -0.4237(7)
H42 H -0.2934 -0.7099 -0.4353
C59 C -0.1907(10) -0.6260(11) -0.4753(7)
C60 C -0.1313(11) -0.5783(9) -0.4569(6)
H43 H -0.0893 -0.5429 -0.4920
C61 C -0.1303(10) -0.5799(9) -0.3871(6)
H44 H -0.0875 -0.5474 -0.3756
N6 N -0.1976(8) -0.6016(8) -0.6872(5)
C62 C -0.2743(10) -0.6244(9) -0.6373(6)
H45 H -0.3302 -0.6360 -0.6482
C63 C -0.2700(10) -0.6306(9) -0.5680(7)
H46 H -0.3254 -0.6438 -0.5329
C64 C -0.1916(11) -0.6189(9) -0.5494(7)
C65 C -0.1165(9) -0.5950(9) -0.6037(6)
H47 H -0.0596 -0.5841 -0.5939
C66 C -0.1197(11) -0.5862(11) -0.6713(7)
H48 H -0.0659 -0.5690 -0.7069
N21 N 0.0010(11) -0.4583(11) 0.1390(6)
O19 O -0.0716(11) -0.4846(10) 0.1367(14)
O20 O 0.0389(19) -0.411(2) 0.0893(11)
O21 O 0.0300(19) -0.4910(15) 0.1901(9)
N22 N -0.3417(8) -0.7312(7) 0.2553(6)
O22 O -0.4168(8) -0.7644(8) 0.2868(6)
O23 O -0.2680(7) -0.7785(7) 0.2478(6)
O24 O -0.3423(6) -0.6517(6) 0.2324(4)
N2_2 N -0.0622(8) -0.6909(7) 0.1879(5)
N6_2 N -0.1976(8) -0.6016(8) 0.3128(5)
Cd3_2 Cd -1.19098(7) 0.40724(7) 0.19526(5)
Cd3_3 Cd -0.19098(7) -0.59276(7) -0.80474(5)
Cd5 Cd 0.52332(8) 0.05683(8) 0.86759(6)
N3 N 0.4189(9) 0.1734(8) 0.8781(6)
C23 C 0.4379(12) 0.2477(10) 0.8342(9)
H17 H 0.4979 0.2495 0.8023
C24 C 0.3761(10) 0.3226(10) 0.8317(8)
H18 H 0.3935 0.3751 0.8009
C25 C 0.2873(10) 0.3162(9) 0.8770(7)
C26 C 0.2699(10) 0.2415(9) 0.9249(7)
H19 H 0.2117 0.2377 0.9589
C27 C 0.3381(10) 0.1720(9) 0.9231(7)
H20 H 0.3253 0.1206 0.9564
C28 C 0.2119(11) 0.3946(9) 0.8771(7)
C29 C 0.1612(10) 0.4182(9) 0.9377(8)
H21 H 0.1706 0.3859 0.9801
C30 C 0.0960(10) 0.4895(9) 0.9369(8)
H22 H 0.0620 0.5083 0.9788
C31 C 0.0796(9) 0.5350(8) 0.8734(7)
C32 C 0.1335(10) 0.5066(10) 0.8142(7)
H23 H 0.1244 0.5364 0.7710
C33 C 0.1993(11) 0.4371(9) 0.8157(7)
H24 H 0.2359 0.4187 0.7742
C34 C 0.0062(11) 0.6088(10) 0.8728(7)
C35 C -0.0343(10) 0.6521(9) 0.9337(7)
H25 H -0.0114 0.6364 0.9741
C36 C -0.1068(10) 0.7161(10) 0.9295(8)
H26 H -0.1360 0.7415 0.9695
C37 C -0.1405(10) 0.7464(9) 0.8712(7)
C38 C -0.0979(10) 0.7088(10) 0.8138(7)
H27 H -0.1177 0.7293 0.7724
C39 C -0.0271(9) 0.6417(9) 0.8149(8)
H28 H 0.0000 0.6172 0.7741
N4 N -0.3615(9) 0.9551(8) 0.8688(6)
C40 C -0.3560(11) 0.8941(9) 0.9234(8)
H29 H -0.4054 0.8985 0.9636
C41 C -0.2865(10) 0.8240(9) 0.9293(7)
H30 H -0.2899 0.7830 0.9705
C42 C -0.2119(11) 0.8185(10) 0.8706(8)
C43 C -0.2127(10) 0.8845(9) 0.8134(8)
H31 H -0.1623 0.8838 0.7733
C44 C -0.2840(13) 0.9498(9) 0.8140(8)
H32 H -0.2800 0.9939 0.7745
N23 N 0.5559(12) 0.1177(11) 0.7174(6)
O25 O 0.6094(8) 0.1295(8) 0.7514(7)
O26 O 0.4924(17) 0.0698(18) 0.7455(10)
O27 O 0.5693(17) 0.1530(15) 0.6576(7)
N24 N 0.6097(9) 0.1326(8) 0.9524(6)
O28 O 0.6345(7) 0.1520(7) 0.8890(5)
O29 O 0.5498(8) 0.0797(7) 0.9817(5)
O30 O 0.6474(12) 0.1643(10) 0.9886(7)
N25 N 0.3741(11) -0.0620(10) 0.9254(8)
O31 O 0.4138(7) -0.0302(7) 0.9608(5)
O32 O 0.4082(11) -0.0503(11) 0.8623(7)
O33 O 0.3115(12) -0.1122(11) 0.9520(10)
N4_2 N 0.6385(9) -0.0449(8) 0.8688(6)
Cd5_2 Cd -0.47668(8) 1.05683(8) 0.86759(6)
N26 N 2.0257(9) 1.6119(8) -0.3703(6)
O34 O 1.9458(8) 1.6424(9) -0.3460(6)
O35 O 2.0581(9) 1.5390(7) -0.3485(5)
O36 O 2.0741(9) 1.6560(8) -0.4231(6)
O43 O 0.5705(8) 0.2104(9) 0.5241(7)
C161 C 0.6057(14) 0.1679(12) 0.4663(11)
H131 H 0.6585 0.1988 0.4349
H132 H 0.5554 0.1684 0.4426
H133 H 0.6276 0.1070 0.4811
O44 O -0.4195(18) -0.8219(15) 0.1310(12)
C162 C -0.409(2) -0.8971(13) 0.1635(13)
H134 H -0.4022 -0.8927 0.2095
H135 H -0.3514 -0.9280 0.1389
H136 H -0.4635 -0.9297 0.1679
O45 O 0.6035(10) 0.0541(11) 0.3348(8)
C163 C 0.4982(13) 0.0439(14) 0.3528(10)
H137 H 0.4840 -0.0101 0.3859
H138 H 0.4784 0.0407 0.3110
H139 H 0.4640 0.0946 0.3732
O46 O 0.1776(13) -0.284(2) 0.0098(11)
C164 C 0.0951(15) -0.3417(13) 0.3321(13)
C165 C 0.1420(13) -0.2836(13) 0.2768(11)
C166 C 0.2014(15) -0.2236(14) 0.2800(15)
H140 H 0.2350 -0.1901 0.2389
C167 C 0.2120(15) -0.2121(14) 0.3407(14)
H141 H 0.2487 -0.1689 0.3464
C168 C 0.152(2) -0.2842(16) 0.4072(10)
H142 H 0.1477 -0.2822 0.4542
C169 C 0.1186(14) -0.3334(18) 0.3901(13)
H143 H 0.1024 -0.3824 0.4253
C170 C 0.0418(18) -0.4118(14) 0.3360(15)
H144 H 0.0179 -0.4373 0.3844
H145 H 0.0816 -0.4567 0.3113
H146 H -0.0115 -0.3907 0.3152
C171 C 0.1326(19) -0.294(2) 0.2111(14)
H147 H 0.1689 -0.2510 0.1756
H148 H 0.0658 -0.2845 0.2100
H149 H 0.1566 -0.3536 0.2024
C172 C 0.3036(18) -0.1255(15) 0.6900(18)
C173 C 0.2504(16) -0.1862(13) 0.7390(15)
C174 C 0.1857(18) -0.234(2) 0.7259(11)
H150 H 0.1487 -0.2715 0.7629
C175 C 0.1742(18) -0.2290(18) 0.6635(15)
H151 H 0.1263 -0.2559 0.6526
C176 C 0.257(2) -0.1672(19) 0.6039(12)
H152 H 0.2694 -0.1673 0.5558
C177 C 0.294(2) -0.128(2) 0.6266(17)
H153 H 0.3277 -0.0841 0.5930
C178 C 0.3676(15) -0.0685(16) 0.6921(18)
H154 H 0.3901 -0.0349 0.6461
H155 H 0.4213 -0.1020 0.7074
H156 H 0.3369 -0.0279 0.7243
C179 C 0.252(3) -0.189(3) 0.8091(17)
H157 H 0.2124 -0.2347 0.8383
H158 H 0.2283 -0.1320 0.8231
H159 H 0.3173 -0.2029 0.8138
loop_
_geom_bond_atom_site_label_1
_geom_bond_atom_site_label_2
_geom_bond_site_symmetry_1
_geom_bond_site_symmetry_2
Cd1 N10 1_555 1_555
Cd2 N9 1_555 1_555
Cd3 N1 1_555 1_555
Cd4 N7 1_555 1_555
Cd5 N3 1_555 1_555
Cd6 N8 1_555 1_555
N1 C1 1_555 1_555
C1 H1 1_555 1_555
C2 C1 1_555 1_555
H2 C2 1_555 1_555
C3 C2 1_555 1_555
C4 C3 1_555 1_555
H3 C4 1_555 1_555
C5 N1 1_555 1_555
H4 C5 1_555 1_555
C6 C3 1_555 1_555
C7 C6 1_555 1_555
H5 C7 1_555 1_555
C8 C7 1_555 1_555
H6 C8 1_555 1_555
C9 C8 1_555 1_555
C10 C9 1_555 1_555
H7 C10 1_555 1_555
C11 C6 1_555 1_555
H8 C11 1_555 1_555
C12 C9 1_555 1_555
C13 C12 1_555 1_555
H9 C13 1_555 1_555
C14 C13 1_555 1_555
H10 C14 1_555 1_555
C15 C14 1_555 1_555
C16 C15 1_555 1_555
H11 C16 1_555 1_555
C17 C12 1_555 1_555
H12 C17 1_555 1_555
N2 C18 1_555 1_555
C18 H13 1_555 1_555
C19 C18 1_555 1_555
H14 C19 1_555 1_555
C20 C15 1_555 1_555
C21 C20 1_555 1_555
H15 C21 1_555 1_555
C22 N2 1_555 1_555
H16 C22 1_555 1_555
N3 C23 1_555 1_555
C23 H17 1_555 1_555
C24 C23 1_555 1_555
H18 C24 1_555 1_555
C25 C24 1_555 1_555
C26 C25 1_555 1_555
H19 C26 1_555 1_555
C27 N3 1_555 1_555
H20 C27 1_555 1_555
C28 C25 1_555 1_555
C29 C28 1_555 1_555
H21 C29 1_555 1_555
C30 C29 1_555 1_555
H22 C30 1_555 1_555
C31 C30 1_555 1_555
C32 C31 1_555 1_555
H23 C32 1_555 1_555
C33 C28 1_555 1_555
H24 C33 1_555 1_555
C34 C31 1_555 1_555
C35 C34 1_555 1_555
H25 C35 1_555 1_555
C36 C35 1_555 1_555
H26 C36 1_555 1_555
C37 C36 1_555 1_555
C38 C37 1_555 1_555
H27 C38 1_555 1_555
C39 C34 1_555 1_555
H28 C39 1_555 1_555
N4 C40 1_555 1_555
C40 H29 1_555 1_555
C41 C40 1_555 1_555
H30 C41 1_555 1_555
C42 C37 1_555 1_555
C43 C42 1_555 1_555
H31 C43 1_555 1_555
C44 N4 1_555 1_555
H32 C44 1_555 1_555
N5 Cd3 1_555 1_555
C45 N5 1_555 1_555
H33 C45 1_555 1_555
C46 C45 1_555 1_555
H34 C46 1_555 1_555
C47 C46 1_555 1_555
C48 C47 1_555 1_555
H35 C48 1_555 1_555
C49 N5 1_555 1_555
H36 C49 1_555 1_555
C50 C47 1_555 1_555
C51 C50 1_555 1_555
H37 C51 1_555 1_555
C52 C51 1_555 1_555
H38 C52 1_555 1_555
C53 C52 1_555 1_555
C54 C53 1_555 1_555
H39 C54 1_555 1_555
C55 C50 1_555 1_555
H40 C55 1_555 1_555
C56 C53 1_555 1_555
C57 C56 1_555 1_555
H41 C57 1_555 1_555
C58 C57 1_555 1_555
H42 C58 1_555 1_555
C59 C58 1_555 1_555
C60 C59 1_555 1_555
H43 C60 1_555 1_555
C61 C56 1_555 1_555
H44 C61 1_555 1_555
N6 C62 1_555 1_555
C62 H45 1_555 1_555
C63 C62 1_555 1_555
H46 C63 1_555 1_555
C64 C59 1_555 1_555
C65 C64 1_555 1_555
H47 C65 1_555 1_555
C66 N6 1_555 1_555
H48 C66 1_555 1_555
N7 C67 1_555 1_555
C67 H49 1_555 1_555
C68 C67 1_555 1_555
H50 C68 1_555 1_555
C69 C68 1_555 1_555
C70 C69 1_555 1_555
H51 C70 1_555 1_555
C71 N7 1_555 1_555
H52 C71 1_555 1_555
C72 C69 1_555 1_555
C73 C72 1_555 1_555
H53 C73 1_555 1_555
C74 C73 1_555 1_555
H54 C74 1_555 1_555
C75 C74 1_555 1_555
C76 C75 1_555 1_555
H55 C76 1_555 1_555
C77 C72 1_555 1_555
H56 C77 1_555 1_555
C78 C75 1_555 1_555
C79 C78 1_555 1_555
H57 C79 1_555 1_555
C80 C79 1_555 1_555
H58 C80 1_555 1_555
C81 C80 1_555 1_555
C82 C81 1_555 1_555
H59 C82 1_555 1_555
C83 C78 1_555 1_555
H60 C83 1_555 1_555
N8 C84 1_555 1_555
C84 H61 1_555 1_555
C85 C84 1_555 1_555
H62 C85 1_555 1_555
C86 C81 1_555 1_555
C87 C86 1_555 1_555
H63 C87 1_555 1_555
C88 N8 1_555 1_555
H64 C88 1_555 1_555
N9 C89 1_555 1_555
C89 H65 1_555 1_555
C90 C89 1_555 1_555
H66 C90 1_555 1_555
C91 C90 1_555 1_555
C92 C91 1_555 1_555
H67 C92 1_555 1_555
C93 N9 1_555 1_555
H68 C93 1_555 1_555
C94 C91 1_555 1_555
C95 C94 1_555 1_555
H69 C95 1_555 1_555
C96 C95 1_555 1_555
H70 C96 1_555 1_555
C97 C96 1_555 1_555
C98 C97 1_555 1_555
H71 C98 1_555 1_555
C99 C94 1_555 1_555
H72 C99 1_555 1_555
C100 C97 1_555 1_555
C101 C100 1_555 1_555
H73 C101 1_555 1_555
C102 C101 1_555 1_555
H74 C102 1_555 1_555
C103 C102 1_555 1_555
C104 C103 1_555 1_555
H75 C104 1_555 1_555
C105 C100 1_555 1_555
H76 C105 1_555 1_555
N10 C106 1_555 1_555
C106 H77 1_555 1_555
C107 C106 1_555 1_555
H78 C107 1_555 1_555
C108 C103 1_555 1_555
C109 C108 1_555 1_555
H79 C109 1_555 1_555
C110 N10 1_555 1_555
H80 C110 1_555 1_555
N11 C111 1_555 1_555
C111 H81 1_555 1_555
C112 C111 1_555 1_555
H82 C112 1_555 1_555
C113 C112 1_555 1_555
C114 C113 1_555 1_555
H83 C114 1_555 1_555
C115 N11 1_555 1_555
H84 C115 1_555 1_555
C116 C113 1_555 1_555
C117 C116 1_555 1_555
H85 C117 1_555 1_555
C118 C117 1_555 1_555
H86 C118 1_555 1_555
C119 C118 1_555 1_555
C120 C119 1_555 1_555
H87 C120 1_555 1_555
C121 C116 1_555 1_555
H88 C121 1_555 1_555
C122 C119 1_555 1_555
C123 C122 1_555 1_555
H89 C123 1_555 1_555
C124 C123 1_555 1_555
H90 C124 1_555 1_555
C125 C124 1_555 1_555
C126 C125 1_555 1_555
H91 C126 1_555 1_555
C127 C122 1_555 1_555
H92 C127 1_555 1_555
N12 Cd4 1_555 1_555
C128 N12 1_555 1_555
H93 C128 1_555 1_555
C129 C128 1_555 1_555
H94 C129 1_555 1_555
C130 C125 1_555 1_555
C131 C130 1_555 1_555
H95 C131 1_555 1_555
C132 N12 1_555 1_555
H96 C132 1_555 1_555
N13 Cd1 1_555 1_555
C133 N13 1_555 1_555
H97 C133 1_555 1_555
C134 C133 1_555 1_555
H98 C134 1_555 1_555
C135 C134 1_555 1_555
C136 C135 1_555 1_555
H99 C136 1_555 1_555
C137 N13 1_555 1_555
H100 C137 1_555 1_555
C138 C135 1_555 1_555
C139 C138 1_555 1_555
H101 C139 1_555 1_555
C140 C139 1_555 1_555
H102 C140 1_555 1_555
C141 C140 1_555 1_555
C142 C141 1_555 1_555
H103 C142 1_555 1_555
C143 C138 1_555 1_555
H104 C143 1_555 1_555
C144 C141 1_555 1_555
C145 C144 1_555 1_555
H105 C145 1_555 1_555
C146 C145 1_555 1_555
H106 C146 1_555 1_555
C147 C146 1_555 1_555
C148 C147 1_555 1_555
H107 C148 1_555 1_555
C149 C144 1_555 1_555
H108 C149 1_555 1_555
N14 C150 1_555 1_555
C150 H109 1_555 1_555
C151 C150 1_555 1_555
H110 C151 1_555 1_555
C152 C147 1_555 1_555
C153 C152 1_555 1_555
H111 C153 1_555 1_555
C154 N14 1_555 1_555
H112 C154 1_555 1_555
N15 O1 1_555 1_555
O1 Cd1 1_555 1_555
O2 Cd4 1_555 1_555
O3 N15 1_555 1_555
N16 O4 1_555 1_555
O4 Cd1 1_555 1_555
O5 N16 1_555 1_555
O6 N16 1_555 1_555
N17 O7 1_555 1_555
O7 Cd1 1_555 1_555
O8 Cd1 1_555 1_555
O9 N17 1_555 1_555
N18 O10 1_555 1_555
O10 Cd2 1_555 1_555
O11 N18 1_555 1_555
O12 Cd2 1_555 1_555
N19 O13 1_555 1_555
O14 N19 1_555 1_555
O15 Cd2 1_555 1_555
N20 O16 1_555 1_555
O16 Cd2 1_555 1_555
O17 Cd6 1_555 1_555
O18 Cd2 1_555 1_555
N21 O19 1_555 1_555
O19 Cd3 1_555 1_555
O20 N21 1_555 1_555
O21 N21 1_555 1_555
N22 O22 1_555 1_555
O23 N22 1_555 1_555
O24 Cd3 1_555 1_555
N23 O25 1_555 1_555
O25 Cd5 1_555 1_555
O26 Cd5 1_555 1_555
O27 N23 1_555 1_555
N24 O28 1_555 1_555
O28 Cd5 1_555 1_555
O29 Cd5 1_555 1_555
O30 N24 1_555 1_555
N25 O31 1_555 1_555
O31 Cd5 1_555 1_555
O32 Cd5 1_555 1_555
O33 N25 1_555 1_555
N26 O34 1_555 1_555
O35 N26 1_555 1_555
O36 N26 1_555 1_555
O37 Cd1 1_555 1_555
C155 O37 1_555 1_555
H113 C155 1_555 1_555
H114 C155 1_555 1_555
H115 C155 1_555 1_555
O38 Cd4 1_555 1_555
C156 O38 1_555 1_555
H116 C156 1_555 1_555
H117 C156 1_555 1_555
H118 C156 1_555 1_555
C157 H119 1_555 1_555
H120 C157 1_555 1_555
H121 C157 1_555 1_555
O39 Cd4 1_555 1_555
C158 H122 1_555 1_555
H123 C158 1_555 1_555
H124 C158 1_555 1_555
O40 Cd6 1_555 1_555
O41 Cd6 1_555 1_555
C159 O41 1_555 1_555
H125 C159 1_555 1_555
H126 C159 1_555 1_555
H127 C159 1_555 1_555
O42 Cd6 1_555 1_555
C160 O42 1_555 1_555
H128 C160 1_555 1_555
H129 C160 1_555 1_555
H130 C160 1_555 1_555
O43 C161 1_555 1_555
C161 H131 1_555 1_555
H132 C161 1_555 1_555
H133 C161 1_555 1_555
O44 C162 1_555 1_555
C162 H134 1_555 1_555
H135 C162 1_555 1_555
H136 C162 1_555 1_555
O45 C163 1_555 1_555
C163 H137 1_555 1_555
H138 C163 1_555 1_555
H139 C163 1_555 1_555
C164 C165 1_555 1_555
C165 C166 1_555 1_555
C166 H140 1_555 1_555
C167 C166 1_555 1_555
H141 C167 1_555 1_555
C168 C167 1_555 1_555
H142 C168 1_555 1_555
C169 C164 1_555 1_555
H143 C169 1_555 1_555
C170 C164 1_555 1_555
H144 C170 1_555 1_555
H145 C170 1_555 1_555
H146 C170 1_555 1_555
C171 C165 1_555 1_555
H147 C171 1_555 1_555
H148 C171 1_555 1_555
H149 C171 1_555 1_555
C172 C173 1_555 1_555
C173 C174 1_555 1_555
C174 H150 1_555 1_555
C175 C174 1_555 1_555
H151 C175 1_555 1_555
C176 C175 1_555 1_555
H152 C176 1_555 1_555
C177 C172 1_555 1_555
H153 C177 1_555 1_555
C178 C172 1_555 1_555
H154 C178 1_555 1_555
H155 C178 1_555 1_555
H156 C178 1_555 1_555
C179 C173 1_555 1_555
H157 C179 1_555 1_555
H158 C179 1_555 1_555
H159 C179 1_555 1_555
N14_2 Cd2 1_555 1_555
N2_2 Cd3 1_555 1_555
N6_2 Cd3 1_555 1_555
N4_2 Cd5 1_555 1_555
N11_2 Cd6 1_555 1_555
Cd3_2 N2 1_555 1_555
Cd5_2 N4 1_555 1_555
Cd3_3 N6 1_555 1_555
Cd6_2 N11 1_555 1_555
Cd2_2 N14 1_555 1_555
Cd4 O1 1_555 1_555
Cd4 O7 1_555 1_555
Cd6 O18 1_555 1_555
C4 C5 1_555 1_555
C10 C11 1_555 1_555
C16 C17 1_555 1_555
C19 C20 1_555 1_555
C21 C22 1_555 1_555
C26 C27 1_555 1_555
C32 C33 1_555 1_555
C38 C39 1_555 1_555
C41 C42 1_555 1_555
C43 C44 1_555 1_555
C48 C49 1_555 1_555
C54 C55 1_555 1_555
C60 C61 1_555 1_555
C63 C64 1_555 1_555
C65 C66 1_555 1_555
C70 C71 1_555 1_555
C76 C77 1_555 1_555
C82 C83 1_555 1_555
C85 C86 1_555 1_555
C87 C88 1_555 1_555
C92 C93 1_555 1_555
C98 C99 1_555 1_555
C104 C105 1_555 1_555
C107 C108 1_555 1_555
C109 C110 1_555 1_555
C114 C115 1_555 1_555
C120 C121 1_555 1_555
C126 C127 1_555 1_555
C129 C130 1_555 1_555
C131 C132 1_555 1_555
C136 C137 1_555 1_555
C142 C143 1_555 1_555
C148 C149 1_555 1_555
C151 C152 1_555 1_555
C153 C154 1_555 1_555
N15 O2 1_555 1_555
N17 O8 1_555 1_555
N18 O12 1_555 1_555
N19 O15 1_555 1_555
N20 O17 1_555 1_555
N20 O18 1_555 1_555
N22 O24 1_555 1_555
N23 O26 1_555 1_555
N24 O29 1_555 1_555
N25 O32 1_555 1_555
C157 O39 1_555 1_555
C158 O40 1_555 1_555
C168 C169 1_555 1_555
C176 C177 1_555 1_555

#END
