
#######################################################################
#
#                 Cambridge Crystallographic Data Centre
#                                CCDC 
#
#######################################################################
#
# If this CIF has been generated from an entry in the Cambridge 
# Structural Database, then it will include bibliographic, chemical, 
# crystal, experimental, refinement or atomic coordinate data resulting 
# from the CCDC's data processing and validation procedures.
#
#######################################################################

data_XOTKEW
_symmetry_cell_setting           monoclinic
_symmetry_space_group_name_H-M   'C 2'
_symmetry_Int_Tables_number      5
_space_group_name_Hall           'C 2y'
loop_
_symmetry_equiv_pos_site_id
_symmetry_equiv_pos_as_xyz
1 x,y,z
2 -x,y,-z
3 1/2+x,1/2+y,z
4 1/2-x,1/2+y,-z
_cell_length_a                   26.1974(8)
_cell_length_b                   11.2679(4)
_cell_length_c                   16.6366(5)
_cell_angle_alpha                90
_cell_angle_beta                 125.960(5)
_cell_angle_gamma                90
_cell_volume                     3975.06
loop_
_atom_site_label
_atom_site_type_symbol
_atom_site_fract_x
_atom_site_fract_y
_atom_site_fract_z
Co1 Co 0.5000 0.7756 0.5000
Cl1 Cl 0.5993(1) 0.7780(3) 0.6661(2)
N1 N 0.4449(5) 0.828(1) 0.5585(7)
C1 C 0.4394(5) 0.939(1) 0.5594(7)
O1 O 0.4035(4) 0.9853(9) 0.5854(6)
C2 C 0.3765(6) 0.884(1) 0.6006(9)
C3 C 0.4045(5) 0.776(1) 0.5840(7)
C4 C 0.4409(6) 0.692(1) 0.6731(8)
C5 C 0.3962(7) 0.635(2) 0.695(1)
C6 C 0.4975(7) 0.756(2) 0.7652(9)
C7 C 0.4701(5) 1.023(1) 0.5310(8)
C8 C 0.4687(5) 1.144(1) 0.5317(8)
C9 C 0.5000 1.207(2) 0.5000
N2 N 0.5000 0.961(1) 0.5000
N3 N 0.5000 1.586(1) 0.5000
C10 C 0.4479(5) 1.526(1) 0.4704(8)
C11 C 0.4463(6) 1.404(1) 0.4701(9)
C12 C 0.5000 1.339(2) 0.5000
H1 H 0.3319 0.8845 0.5542
H2 H 0.3876 0.8840 0.6662
H3 H 0.3723 0.7256 0.5335
H4 H 0.4579 0.6294 0.6573
H5 H 0.4197 0.5834 0.7503
H6 H 0.3774 0.6957 0.7089
H7 H 0.3643 0.5912 0.6384
H8 H 0.5193 0.7023 0.8194
H9 H 0.5253 0.7843 0.7504
H10 H 0.4825 0.8212 0.7823
H11 H 0.4470 1.1847 0.5532
H12 H 0.4106 1.5681 0.4487
H13 H 0.4085 1.3638 0.4494
C8A C 0.5313(5) 1.144(1) 0.4683(8)
C7A C 0.5299(5) 1.023(1) 0.4690(8)
C1A C 0.5606(5) 0.939(1) 0.4406(7)
N1A N 0.5551(5) 0.828(1) 0.4415(7)
C3A C 0.5955(5) 0.776(1) 0.4160(7)
C2A C 0.6235(6) 0.884(1) 0.3994(9)
O1A O 0.5965(4) 0.9853(9) 0.4146(6)
H1A H 0.6681 0.8845 0.4458
H2A H 0.6124 0.8840 0.3338
C4A C 0.5591(6) 0.692(1) 0.3269(8)
C5A C 0.6038(7) 0.635(2) 0.305(1)
H5A H 0.5803 0.5834 0.2497
H6A H 0.6226 0.6957 0.2911
H7A H 0.6357 0.5912 0.3616
C6A C 0.5025(7) 0.756(2) 0.2348(9)
H8A H 0.4807 0.7023 0.1806
H9A H 0.4747 0.7843 0.2496
H10A H 0.5175 0.8212 0.2177
H4A H 0.5421 0.6294 0.3427
H3A H 0.6277 0.7256 0.4665
H11A H 0.5530 1.1847 0.4468
C10A C 0.5521(5) 1.526(1) 0.5296(8)
C11A C 0.5537(6) 1.404(1) 0.5299(9)
H13A H 0.5915 1.3638 0.5506
H12A H 0.5894 1.5681 0.5513
Cl1A Cl 0.4007(1) 0.7780(3) 0.3339(2)
N3_2 N 0.5000 0.586(1) 0.5000
Co1_2 Co 0.5000 1.7756 0.5000
Co2 Co 0.5000 1.0533(2) 1.0000
Cl2 Cl 0.4301(1) 1.0462(4) 0.8219(2)
N4 N 0.5834(4) 1.1076(9) 1.0012(7)
C13 C 0.5890(5) 1.219(1) 1.0014(8)
O2 O 0.6371(3) 1.2665(8) 1.0057(6)
C14 C 0.6759(5) 1.167(1) 1.015(1)
C15 C 0.6381(5) 1.055(1) 1.0053(8)
C16 C 0.6158(6) 0.980(1) 0.9142(8)
C17 C 0.6695(6) 0.919(2) 0.925(1)
C18 C 0.5739(6) 1.049(2) 0.8136(9)
C19 C 0.5439(5) 1.299(1) 1.0000(8)
C20 C 0.5459(5) 1.425(1) 0.9995(8)
C21 C 0.5000 1.487(2) 1.0000
N5 N 0.5000 1.241(1) 1.0000
N6 N 0.5000 1.865(1) 1.0000
C22 C 0.4461(5) 1.805(1) 0.9496(8)
C23 C 0.4434(5) 1.681(1) 0.9478(9)
C24 C 0.5000 1.619(1) 1.0000
H14 H 0.7158 1.1681 1.0783
H15 H 0.6819 1.1687 0.9643
H16 H 0.6632 1.0014 1.0585
H17 H 0.5888 0.9207 0.9111
H18 H 0.6546 0.8725 0.8676
H19 H 0.6986 0.9766 0.9324
H20 H 0.6900 0.8693 0.9819
H21 H 0.5616 0.9972 0.7600
H22 H 0.5374 1.0787 0.8062
H23 H 0.5973 1.1135 0.8136
H24 H 0.5774 1.4653 0.9988
H25 H 0.4077 1.8486 0.9130
H26 H 0.4041 1.6406 0.9122
C20A C 0.4541(5) 1.425(1) 1.0005(8)
C19A C 0.4561(5) 1.299(1) 1.0000(8)
C13A C 0.4110(5) 1.219(1) 0.9986(8)
N4A N 0.4166(4) 1.1076(9) 0.9988(7)
C15A C 0.3619(5) 1.055(1) 0.9947(8)
C14A C 0.3241(5) 1.167(1) 0.985(1)
O2A O 0.3629(3) 1.2665(8) 0.9943(6)
H14A H 0.2842 1.1681 0.9217
H15A H 0.3181 1.1687 1.0357
C16A C 0.3842(6) 0.980(1) 1.0858(8)
C17A C 0.3305(6) 0.919(2) 1.075(1)
H18A H 0.3454 0.8725 1.1324
H19A H 0.3014 0.9766 1.0676
H20A H 0.3100 0.8693 1.0181
C18A C 0.4261(6) 1.049(2) 1.1864(9)
H21A H 0.4384 0.9972 1.2400
H22A H 0.4626 1.0787 1.1938
H23A H 0.4027 1.1135 1.1864
H17A H 0.4112 0.9207 1.0889
H16A H 0.3368 1.0014 0.9415
H24A H 0.4226 1.4653 1.0012
C22A C 0.5539(5) 1.805(1) 1.0504(8)
C23A C 0.5566(5) 1.681(1) 1.0522(9)
H26A H 0.5959 1.6406 1.0878
H25A H 0.5923 1.8486 1.0870
Cl2A Cl 0.5699(1) 1.0462(4) 1.1781(2)
N6_2 N 0.5000 0.865(1) 1.0000
Co2_2 Co 0.5000 2.0533(2) 1.0000
C25 C 0.624(1) 0.525(2) 0.812(1)
Cl3 Cl 0.5552(3) 0.4401(8) 0.7701(5)
Cl4 Cl 0.6782(3) 0.4394(9) 0.8117(5)
Cl5 Cl 0.6565(3) 0.5796(6) 0.9317(4)
C26 C 0.2722(8) 1.037(2) 0.681(1)
Cl6 Cl 0.2624(3) 0.8947(6) 0.7023(5)
Cl7 Cl 0.2522(3) 1.0657(9) 0.5622(4)
Cl8 Cl 0.2239(2) 1.1374(6) 0.6959(4)
C27 C 0.380(1) 1.285(4) 0.657(2)
Cl9 Cl 0.3366(5) 1.299(1) 0.5427(7)
Cl10 Cl 0.4544(4) 1.309(1) 0.7216(7)
Cl11 Cl 0.3479(4) 1.3349(9) 0.7229(6)
C28 C 0.2072(9) 1.520(2) 0.727(1)
Cl12 Cl 0.2735(2) 1.4471(6) 0.8286(3)
Cl13 Cl 0.1886(3) 1.6458(7) 0.7602(5)
Cl14 Cl 0.2171(3) 1.5498(9) 0.6352(4)
loop_
_geom_bond_atom_site_label_1
_geom_bond_atom_site_label_2
_geom_bond_site_symmetry_1
_geom_bond_site_symmetry_2
Co1 Cl1 1_555 1_555
N1 Co1 1_555 1_555
C1 N1 1_555 1_555
O1 C1 1_555 1_555
C2 O1 1_555 1_555
C3 N1 1_555 1_555
C4 C3 1_555 1_555
C5 C4 1_555 1_555
C6 C4 1_555 1_555
C7 C1 1_555 1_555
C8 C7 1_555 1_555
C9 C8 1_555 1_555
N2 Co1 1_555 1_555
N3 C10 1_555 1_555
C10 C11 1_555 1_555
C11 C12 1_555 1_555
C12 C9 1_555 1_555
Co2 Cl2 1_555 1_555
N4 Co2 1_555 1_555
C13 N4 1_555 1_555
O2 C13 1_555 1_555
C14 O2 1_555 1_555
C15 N4 1_555 1_555
C16 C15 1_555 1_555
C17 C16 1_555 1_555
C18 C16 1_555 1_555
C19 C13 1_555 1_555
C20 C19 1_555 1_555
C21 C20 1_555 1_555
N5 Co2 1_555 1_555
N6 C22 1_555 1_555
C22 C23 1_555 1_555
C23 C24 1_555 1_555
C24 C21 1_555 1_555
C25 Cl3 1_555 1_555
Cl4 C25 1_555 1_555
Cl5 C25 1_555 1_555
C26 Cl6 1_555 1_555
Cl7 C26 1_555 1_555
Cl8 C26 1_555 1_555
C27 Cl9 1_555 1_555
Cl10 C27 1_555 1_555
Cl11 C27 1_555 1_555
C28 Cl12 1_555 1_555
Cl13 C28 1_555 1_555
Cl14 C28 1_555 1_555
H1 C2 1_555 1_555
H2 C2 1_555 1_555
H3 C3 1_555 1_555
H4 C4 1_555 1_555
H5 C5 1_555 1_555
H6 C5 1_555 1_555
H7 C5 1_555 1_555
H8 C6 1_555 1_555
H9 C6 1_555 1_555
H10 C6 1_555 1_555
H11 C8 1_555 1_555
H12 C10 1_555 1_555
H13 C11 1_555 1_555
H14 C14 1_555 1_555
H15 C14 1_555 1_555
H16 C15 1_555 1_555
H17 C16 1_555 1_555
H18 C17 1_555 1_555
H19 C17 1_555 1_555
H20 C17 1_555 1_555
H21 C18 1_555 1_555
H22 C18 1_555 1_555
H23 C18 1_555 1_555
H24 C20 1_555 1_555
H25 C22 1_555 1_555
H26 C23 1_555 1_555
C8A C9 1_555 1_555
C7A N2 1_555 1_555
C1A C7A 1_555 1_555
N1A Co1 1_555 1_555
C3A N1A 1_555 1_555
C2A C3A 1_555 1_555
O1A C1A 1_555 1_555
H1A C2A 1_555 1_555
H2A C2A 1_555 1_555
C4A C3A 1_555 1_555
C5A C4A 1_555 1_555
H5A C5A 1_555 1_555
H6A C5A 1_555 1_555
H7A C5A 1_555 1_555
C6A C4A 1_555 1_555
H8A C6A 1_555 1_555
H9A C6A 1_555 1_555
H10A C6A 1_555 1_555
H4A C4A 1_555 1_555
H3A C3A 1_555 1_555
H11A C8A 1_555 1_555
C10A N3 1_555 1_555
C11A C12 1_555 1_555
H13A C11A 1_555 1_555
H12A C10A 1_555 1_555
C20A C21 1_555 1_555
C19A N5 1_555 1_555
C13A C19A 1_555 1_555
N4A Co2 1_555 1_555
C15A N4A 1_555 1_555
C14A C15A 1_555 1_555
O2A C13A 1_555 1_555
H14A C14A 1_555 1_555
H15A C14A 1_555 1_555
C16A C15A 1_555 1_555
C17A C16A 1_555 1_555
H18A C17A 1_555 1_555
H19A C17A 1_555 1_555
H20A C17A 1_555 1_555
C18A C16A 1_555 1_555
H21A C18A 1_555 1_555
H22A C18A 1_555 1_555
H23A C18A 1_555 1_555
H17A C16A 1_555 1_555
H16A C15A 1_555 1_555
H24A C20A 1_555 1_555
C22A N6 1_555 1_555
C23A C24 1_555 1_555
H26A C23A 1_555 1_555
H25A C22A 1_555 1_555
Cl1A Co1 1_555 1_555
Cl2A Co2 1_555 1_555
N3_2 Co1 1_555 1_555
Co1_2 N3 1_555 1_555
N6_2 Co2 1_555 1_555
Co2_2 N6 1_555 1_555
C2 C3 1_555 1_555
C7 N2 1_555 1_555
C14 C15 1_555 1_555
C19 N5 1_555 1_555
C8A C7A 1_555 1_555
C1A N1A 1_555 1_555
C2A O1A 1_555 1_555
C10A C11A 1_555 1_555
C20A C19A 1_555 1_555
C13A N4A 1_555 1_555
C14A O2A 1_555 1_555
C22A C23A 1_555 1_555

#END
