
#######################################################################
#
#                 Cambridge Crystallographic Data Centre
#                                CCDC 
#
#######################################################################
#
# If this CIF has been generated from an entry in the Cambridge 
# Structural Database, then it will include bibliographic, chemical, 
# crystal, experimental, refinement or atomic coordinate data resulting 
# from the CCDC's data processing and validation procedures.
#
#######################################################################

data_XOTMEY
_symmetry_cell_setting           monoclinic
_symmetry_space_group_name_H-M   'P 21/n'
_symmetry_Int_Tables_number      14
_space_group_name_Hall           '-P 2yn'
loop_
_symmetry_equiv_pos_site_id
_symmetry_equiv_pos_as_xyz
1 x,y,z
2 1/2+x,1/2-y,1/2+z
3 -x,-y,-z
4 1/2-x,1/2+y,1/2-z
_cell_length_a                   11.217(3)
_cell_length_b                   19.020(3)
_cell_length_c                   15.526(3)
_cell_angle_alpha                90
_cell_angle_beta                 93.05(2)
_cell_angle_gamma                90
_cell_volume                     3307.74
loop_
_atom_site_label
_atom_site_type_symbol
_atom_site_fract_x
_atom_site_fract_y
_atom_site_fract_z
K1 K 0.20210(9) 0.27194(6) 0.95067(6)
Si1 Si 0.15975(13) 0.40806(6) 0.75777(8)
Si2 Si -0.30406(13) 0.38016(7) 0.62540(8)
O1 O 0.4153(4) 0.2199(3) 0.8986(3)
O2 O -0.0057(4) 0.3295(3) 1.0029(3)
N1 N 0.1215(3) 0.3248(2) 0.7877(2)
N2 N -0.2463(3) 0.2980(2) 0.6094(2)
C1 C 0.0352(4) 0.2850(2) 0.7528(2)
C2 C -0.0589(4) 0.3079(2) 0.6962(2)
H1 H -0.0642(4) 0.3565(2) 0.6909(2)
C3 C -0.1478(4) 0.2707(2) 0.6454(2)
C4 C 0.0389(4) 0.2101(2) 0.7833(2)
C5 C -0.0581(4) 0.1761(2) 0.8136(3)
H2 H -0.1310(4) 0.1993(2) 0.8157(3)
C6 C -0.0467(6) 0.1056(3) 0.8418(4)
H3 H -0.1130(6) 0.0822(3) 0.8611(4)
C7 C 0.0593(7) 0.0720(3) 0.8411(4)
H4 H 0.0657(7) 0.0256(3) 0.8600(4)
C8 C 0.1554(6) 0.1052(3) 0.8132(4)
H5 H 0.2281(6) 0.0818(3) 0.8129(4)
C9 C 0.1472(4) 0.1739(2) 0.7848(3)
H6 H 0.2149(4) 0.1963(2) 0.7663(3)
C10 C -0.1297(4) 0.1941(2) 0.6246(2)
C11 C -0.2245(4) 0.1477(2) 0.6299(3)
H7 H -0.2975(4) 0.1642(2) 0.6472(3)
C12 C -0.2122(5) 0.0768(2) 0.6099(3)
H8 H -0.2763(5) 0.0463(2) 0.6144(3)
C13 C -0.1062(6) 0.0522(3) 0.5837(3)
H9 H -0.0975(6) 0.0049(3) 0.5706(3)
C14 C -0.0130(5) 0.0971(3) 0.5766(3)
H10 H 0.0593(5) 0.0802(3) 0.5584(3)
C15 C -0.0244(4) 0.1680(2) 0.5962(3)
H11 H 0.0399(4) 0.1981(2) 0.5900(3)
C16 C 0.2986(6) 0.4307(3) 0.8227(4)
H12 H 0.2837(6) 0.4283(3) 0.8829(4)
H13 H 0.3232(6) 0.4774(3) 0.8086(4)
H14 H 0.3605(6) 0.3980(3) 0.8100(4)
C17 C 0.0487(6) 0.4779(3) 0.7810(5)
H15 H -0.0250(6) 0.4686(3) 0.7489(5)
H16 H 0.0790(6) 0.5229(3) 0.7646(5)
H17 H 0.0352(6) 0.4781(3) 0.8416(5)
C18 C 0.1888(6) 0.4128(3) 0.6409(3)
H18 H 0.1173(6) 0.4011(3) 0.6073(3)
H19 H 0.2508(6) 0.3801(3) 0.6283(3)
H20 H 0.2135(6) 0.4595(3) 0.6268(3)
C19 C -0.3105(5) 0.4064(3) 0.7406(3)
H21 H -0.3511(5) 0.3707(3) 0.7714(3)
H22 H -0.3528(5) 0.4501(3) 0.7442(3)
H23 H -0.2309(5) 0.4120(3) 0.7655(3)
C20 C -0.2253(6) 0.4496(3) 0.5662(4)
H24 H -0.2218(6) 0.4363(3) 0.5068(4)
H25 H -0.1458(6) 0.4551(3) 0.5913(4)
H26 H -0.2677(6) 0.4932(3) 0.5700(4)
C21 C -0.4615(6) 0.3760(3) 0.5806(5)
H27 H -0.5038(6) 0.3404(3) 0.6103(5)
H28 H -0.4623(6) 0.3648(3) 0.5202(5)
H29 H -0.4993(6) 0.4207(3) 0.5880(5)
C22 C 0.4772(8) 0.2461(6) 0.8322(6)
H30 H 0.4975(8) 0.2950(6) 0.8430(6)
H31 H 0.4289(8) 0.2433(6) 0.7786(6)
C23 C 0.5823(9) 0.2057(8) 0.8263(7)
H32 H 0.5769(9) 0.1770(8) 0.7746(7)
H33 H 0.6511(9) 0.2364(8) 0.8235(7)
C24 C 0.5946(9) 0.1625(6) 0.9001(8)
H34 H 0.6592(9) 0.1790(6) 0.9389(8)
H35 H 0.6107(9) 0.1143(6) 0.8840(8)
C25 C 0.4836(7) 0.1674(5) 0.9395(5)
H36 H 0.4418(7) 0.1228(5) 0.9347(5)
H37 H 0.4969(7) 0.1785(5) 1.0002(5)
C26 C -0.0926(10) 0.3555(8) 0.9498(7)
H38 H -0.0642(10) 0.3981(8) 0.9234(7)
H39 H -0.1108(10) 0.3217(8) 0.9041(7)
C27 C -0.1914(10) 0.3698(9) 0.9888(7)
H40 H -0.2607(10) 0.3509(9) 0.9567(7)
H41 H -0.2014(10) 0.4202(9) 0.9953(7)
C28 C -0.1751(9) 0.3372(10) 1.0691(8)
H42 H -0.2044(9) 0.3666(10) 1.1144(8)
H43 H -0.2159(9) 0.2922(10) 1.0695(8)
C29 C -0.0539(9) 0.3285(8) 1.0794(6)
H44 H -0.0198(9) 0.3659(8) 1.1153(6)
H45 H -0.0362(9) 0.2840(8) 1.1079(6)
N2A N 0.2537(3) 0.2020(2) 1.1094(2)
K1A K -0.29790(9) 0.22806(6) 0.45067(6)
loop_
_geom_bond_atom_site_label_1
_geom_bond_atom_site_label_2
_geom_bond_site_symmetry_1
_geom_bond_site_symmetry_2
K1 O1 1_555 1_555
Si1 N1 1_555 1_555
Si2 N2 1_555 1_555
O1 C22 1_555 1_555
O2 K1 1_555 1_555
N1 K1 1_555 1_555
N2 C3 1_555 1_555
C1 N1 1_555 1_555
C2 C1 1_555 1_555
H1 C2 1_555 1_555
C3 C2 1_555 1_555
C4 C1 1_555 1_555
C5 C4 1_555 1_555
H2 C5 1_555 1_555
C6 C5 1_555 1_555
H3 C6 1_555 1_555
C7 C6 1_555 1_555
H4 C7 1_555 1_555
C8 C7 1_555 1_555
H5 C8 1_555 1_555
C9 C4 1_555 1_555
H6 C9 1_555 1_555
C10 C3 1_555 1_555
C11 C10 1_555 1_555
H7 C11 1_555 1_555
C12 C11 1_555 1_555
H8 C12 1_555 1_555
C13 C12 1_555 1_555
H9 C13 1_555 1_555
C14 C13 1_555 1_555
H10 C14 1_555 1_555
C15 C10 1_555 1_555
H11 C15 1_555 1_555
C16 Si1 1_555 1_555
H12 C16 1_555 1_555
H13 C16 1_555 1_555
H14 C16 1_555 1_555
C17 Si1 1_555 1_555
H15 C17 1_555 1_555
H16 C17 1_555 1_555
H17 C17 1_555 1_555
C18 Si1 1_555 1_555
H18 C18 1_555 1_555
H19 C18 1_555 1_555
H20 C18 1_555 1_555
C19 Si2 1_555 1_555
H21 C19 1_555 1_555
H22 C19 1_555 1_555
H23 C19 1_555 1_555
C20 Si2 1_555 1_555
H24 C20 1_555 1_555
H25 C20 1_555 1_555
H26 C20 1_555 1_555
C21 Si2 1_555 1_555
H27 C21 1_555 1_555
H28 C21 1_555 1_555
H29 C21 1_555 1_555
C22 H30 1_555 1_555
H31 C22 1_555 1_555
C23 C22 1_555 1_555
H32 C23 1_555 1_555
H33 C23 1_555 1_555
C24 C23 1_555 1_555
H34 C24 1_555 1_555
H35 C24 1_555 1_555
C25 O1 1_555 1_555
H36 C25 1_555 1_555
H37 C25 1_555 1_555
C26 O2 1_555 1_555
H38 C26 1_555 1_555
H39 C26 1_555 1_555
C27 C26 1_555 1_555
H40 C27 1_555 1_555
H41 C27 1_555 1_555
C28 C27 1_555 1_555
H42 C28 1_555 1_555
H43 C28 1_555 1_555
C29 O2 1_555 1_555
H44 C29 1_555 1_555
H45 C29 1_555 1_555
N2A K1 1_555 1_555
K1A N2 1_555 1_555
C8 C9 1_555 1_555
C14 C15 1_555 1_555
C24 C25 1_555 1_555
C28 C29 1_555 1_555

#END
