
#######################################################################
#
#                 Cambridge Crystallographic Data Centre
#                                CCDC 
#
#######################################################################
#
# If this CIF has been generated from an entry in the Cambridge 
# Structural Database, then it will include bibliographic, chemical, 
# crystal, experimental, refinement or atomic coordinate data resulting 
# from the CCDC's data processing and validation procedures.
#
#######################################################################

data_XOTPOL01
_symmetry_cell_setting           triclinic
_symmetry_space_group_name_H-M   'P -1'
_symmetry_Int_Tables_number      2
_space_group_name_Hall           '-P 1'
loop_
_symmetry_equiv_pos_site_id
_symmetry_equiv_pos_as_xyz
1 x,y,z
2 -x,-y,-z
_cell_length_a                   8.402(4)
_cell_length_b                   9.270(5)
_cell_length_c                   9.676(7)
_cell_angle_alpha                97.10(1)
_cell_angle_beta                 110.29(1)
_cell_angle_gamma                98.92(1)
_cell_volume                     685.405
loop_
_atom_site_label
_atom_site_type_symbol
_atom_site_fract_x
_atom_site_fract_y
_atom_site_fract_z
V1 V 0.47123(9) 0.68460(8) 0.48137(8)
V2 V 0.05659(9) 0.77858(8) 0.37746(8)
P1 P 0.72158(14) 0.91879(12) 0.38175(13)
O1 O 0.5000 0.5000 0.5000
O2 O 0.5257(4) 0.7866(4) 0.6458(4)
O3 O 0.2647(4) 0.6814(4) 0.3833(4)
O4 O 0.0321(5) 0.7108(4) 0.5162(4)
O5 O 0.8636(4) 0.8860(4) 0.3268(4)
O6 O 0.7779(4) 1.0256(3) 0.5321(4)
O7 O 0.6007(5) 0.9879(4) 0.2527(4)
O8 O 0.6075(5) 0.7695(4) 0.3873(4)
N1 N 0.0683(5) 0.8101(4) 0.1508(4)
N2 N -0.1238(5) 0.5953(4) 0.2125(4)
C1 C 0.1780(6) 0.9214(5) 0.1309(5)
H1 H 0.2574 0.9928 0.2174
C2 C 0.1798(7) 0.9360(6) -0.0103(6)
H2 H 0.2618 1.0139 -0.0212
C3 C 0.0608(7) 0.8355(6) -0.1343(6)
H3 H 0.0567 0.8447 -0.2332
C4 C -0.0530(7) 0.7214(6) -0.1154(5)
H4 H -0.1360 0.6506 -0.2005
C5 C -0.0446(6) 0.7102(5) 0.0288(5)
C6 C -0.1541(6) 0.5902(5) 0.0645(5)
C7 C -0.2799(7) 0.4764(6) -0.0452(5)
H5 H -0.2993 0.4742 -0.1493
C8 C -0.3765(7) 0.3678(6) -0.0034(6)
H6 H -0.4623 0.2885 -0.0777
C9 C -0.3468(7) 0.3747(6) 0.1474(6)
H7 H -0.4144 0.3019 0.1788
C10 C -0.2198(6) 0.4882(5) 0.2519(5)
H8 H -0.1978 0.4913 0.3565
H9 H 0.5650 1.0639 0.2984
V1A V 0.52877(9) 0.31540(8) 0.51863(8)
V2_2 V 1.05659(9) 0.77858(8) 0.37746(8)
P1_2 P -0.27842(14) 0.91879(12) 0.38175(13)
O5_2 O -0.1364(4) 0.8860(4) 0.3268(4)
O6_2 O -0.2221(4) 1.0256(3) 0.5321(4)
O7_2 O -0.3993(5) 0.9879(4) 0.2527(4)
O8_2 O -0.3925(5) 0.7695(4) 0.3873(4)
H9_2 H -0.4350 1.0639 0.2984
O2A O 0.4743(4) 0.2134(4) 0.3542(4)
O3A O 0.7353(4) 0.3186(4) 0.6167(4)
O4_2 O 1.0321(5) 0.7108(4) 0.5162(4)
N1_2 N 1.0683(5) 0.8101(4) 0.1508(4)
N2_2 N 0.8762(5) 0.5953(4) 0.2125(4)
C1_2 C 1.1780(6) 0.9214(5) 0.1309(5)
H1_2 H 1.2574 0.9928 0.2174
C2_2 C 1.1798(7) 0.9360(6) -0.0103(6)
H2_2 H 1.2618 1.0139 -0.0212
C3_2 C 1.0608(7) 0.8355(6) -0.1343(6)
H3_2 H 1.0567 0.8447 -0.2332
C4_2 C 0.9470(7) 0.7214(6) -0.1154(5)
H4_2 H 0.8640 0.6506 -0.2005
C5_2 C 0.9554(6) 0.7102(5) 0.0288(5)
C6_2 C 0.8459(6) 0.5902(5) 0.0645(5)
C7_2 C 0.7201(7) 0.4764(6) -0.0452(5)
H5_2 H 0.7007 0.4742 -0.1493
C8_2 C 0.6235(7) 0.3678(6) -0.0034(6)
H6_2 H 0.5377 0.2885 -0.0777
C9_2 C 0.6532(7) 0.3747(6) 0.1474(6)
H7_2 H 0.5856 0.3019 0.1788
C10_2 C 0.7802(6) 0.4882(5) 0.2519(5)
H8_2 H 0.8022 0.4913 0.3565
O6A O 0.2221(4) 0.9744(3) 0.4679(4)
V2A V 0.94341(9) 1.22142(8) 0.62254(8)
O8A O 0.3925(5) 0.2305(4) 0.6127(4)
O3_2 O 1.2647(4) 0.6814(4) 0.3833(4)
O6A_2 O 1.2221(4) 0.9744(3) 0.4679(4)
V2A_2 V -0.05659(9) 1.22142(8) 0.62254(8)
V1_2 V -0.52877(9) 0.68460(8) 0.48137(8)
V2A_3 V 0.94341(9) 0.22142(8) 0.62254(8)
loop_
_geom_bond_atom_site_label_1
_geom_bond_atom_site_label_2
_geom_bond_site_symmetry_1
_geom_bond_site_symmetry_2
V1 O1 1_555 1_555
V2 O3 1_555 1_555
P1 O5 1_555 1_555
O1 V1A 1_555 1_555
O2 V1 1_555 1_555
O3 V1 1_555 1_555
O4 V2 1_555 1_555
O5 V2_2 1_555 1_555
O6 P1 1_555 1_555
O7 P1 1_555 1_555
O8 V1 1_555 1_555
N1 V2 1_555 1_555
N2 V2 1_555 1_555
C1 N1 1_555 1_555
H1 C1 1_555 1_555
C2 C1 1_555 1_555
H2 C2 1_555 1_555
C3 C2 1_555 1_555
H3 C3 1_555 1_555
C4 C3 1_555 1_555
H4 C4 1_555 1_555
C5 N1 1_555 1_555
C6 N2 1_555 1_555
C7 C6 1_555 1_555
H5 C7 1_555 1_555
C8 C7 1_555 1_555
H6 C8 1_555 1_555
C9 C8 1_555 1_555
H7 C9 1_555 1_555
C10 N2 1_555 1_555
H8 C10 1_555 1_555
H9 O7 1_555 1_555
V1A O2A 1_555 1_555
V2_2 O4_2 1_555 1_555
P1_2 O5_2 1_555 1_555
O5_2 V2 1_555 1_555
O6_2 P1_2 1_555 1_555
O7_2 P1_2 1_555 1_555
O8_2 P1_2 1_555 1_555
H9_2 O7_2 1_555 1_555
O3A V1A 1_555 1_555
N1_2 V2_2 1_555 1_555
N2_2 V2_2 1_555 1_555
C1_2 N1_2 1_555 1_555
H1_2 C1_2 1_555 1_555
C2_2 C1_2 1_555 1_555
H2_2 C2_2 1_555 1_555
C3_2 C2_2 1_555 1_555
H3_2 C3_2 1_555 1_555
C4_2 C3_2 1_555 1_555
H4_2 C4_2 1_555 1_555
C5_2 N1_2 1_555 1_555
C6_2 N2_2 1_555 1_555
C7_2 C6_2 1_555 1_555
H5_2 C7_2 1_555 1_555
C8_2 C7_2 1_555 1_555
H6_2 C8_2 1_555 1_555
C9_2 C8_2 1_555 1_555
H7_2 C9_2 1_555 1_555
C10_2 N2_2 1_555 1_555
H8_2 C10_2 1_555 1_555
O6A V2 1_555 1_555
V2A O6 1_555 1_555
O8A V1A 1_555 1_555
O3_2 V2_2 1_555 1_555
O6A_2 V2_2 1_555 1_555
V2A_2 O6_2 1_555 1_555
V1_2 O8_2 1_555 1_555
V2A_3 O3A 1_555 1_555
P1 O8 1_555 1_555
C4 C5 1_555 1_555
C5 C6 1_555 1_555
C9 C10 1_555 1_555
C4_2 C5_2 1_555 1_555
C5_2 C6_2 1_555 1_555
C9_2 C10_2 1_555 1_555

#END
