
#######################################################################
#
#                 Cambridge Crystallographic Data Centre
#                                CCDC 
#
#######################################################################
#
# If this CIF has been generated from an entry in the Cambridge 
# Structural Database, then it will include bibliographic, chemical, 
# crystal, experimental, refinement or atomic coordinate data resulting 
# from the CCDC's data processing and validation procedures.
#
#######################################################################

data_XOTPOL
_symmetry_cell_setting           triclinic
_symmetry_space_group_name_H-M   'P -1'
_symmetry_Int_Tables_number      2
_space_group_name_Hall           '-P 1'
loop_
_symmetry_equiv_pos_site_id
_symmetry_equiv_pos_as_xyz
1 x,y,z
2 -x,-y,-z
_cell_length_a                   8.3682(17)
_cell_length_b                   9.2153(18)
_cell_length_c                   9.5991(19)
_cell_angle_alpha                97.04(3)
_cell_angle_beta                 109.91(3)
_cell_angle_gamma                99.01(3)
_cell_volume                     674.963
loop_
_atom_site_label
_atom_site_type_symbol
_atom_site_fract_x
_atom_site_fract_y
_atom_site_fract_z
V1 V 0.47245(6) 0.68487(5) 0.98109(6)
V2 V 1.05808(6) 0.77876(5) 0.87825(5)
P1 P 0.72169(9) 0.91890(8) 0.88116(8)
O1 O 0.8648(3) 0.8867(2) 0.8278(3)
O2 O 0.7764(3) 1.0258(2) 1.0309(2)
O3 O 0.6100(3) 0.7694(3) 0.8868(3)
O4 O 0.6011(3) 0.9860(3) 0.7524(3)
H1 H 0.5755 1.0596 0.7898
O5 O 0.2668(3) 0.6831(3) 0.8826(3)
O6 O 0.5262(3) 0.7872(3) 1.1456(3)
O7 O 0.5000 0.5000 1.0000
O8 O 1.0330(3) 0.7120(3) 1.0171(3)
N1 N 0.8776(3) 0.5954(3) 0.7128(3)
N2 N 1.0698(3) 0.8112(3) 0.6516(3)
C1 C 0.8467(4) 0.5907(3) 0.5654(3)
C2 C 0.7213(5) 0.4779(4) 0.4541(4)
H2 H 0.710(6) 0.473(5) 0.352(5)
C3 C 0.6240(5) 0.3693(4) 0.4971(4)
H3 H 0.538(6) 0.310(5) 0.412(5)
C4 C 0.6533(5) 0.3751(4) 0.6470(5)
H4 H 0.585(6) 0.302(5) 0.689(5)
C5 C 0.7812(5) 0.4883(4) 0.7521(4)
H5 H 0.802(5) 0.498(5) 0.870(5)
C6 C 0.9559(4) 0.7105(4) 0.5292(3)
C7 C 0.9492(5) 0.7226(4) 0.3844(4)
H6 H 0.869(5) 0.661(4) 0.298(4)
C8 C 1.0616(5) 0.8371(4) 0.3656(4)
H7 H 1.055(4) 0.839(4) 0.274(4)
C9 C 1.1798(5) 0.9364(4) 0.4906(4)
H8 H 1.247(6) 1.011(5) 0.469(5)
C10 C 1.1785(4) 0.9211(4) 0.6309(4)
H9 H 1.244(4) 0.998(4) 0.721(4)
V1A V 0.52755(6) 0.31513(5) 1.01891(6)
V2A V 0.94192(6) 1.22124(5) 1.12175(5)
P1A P 1.27831(9) 1.08110(8) 1.11884(8)
O1A O 1.1352(3) 1.1133(2) 1.1722(3)
O2A O 1.2236(3) 0.9742(2) 0.9691(2)
O3A O 1.3900(3) 1.2306(3) 1.1132(3)
O4A O 1.3989(3) 1.0140(3) 1.2476(3)
H1A H 1.4245 0.9404 1.2102
O5_2 O 1.2668(3) 0.6831(3) 0.8826(3)
O6A O 0.4738(3) 0.2128(3) 0.8544(3)
O8A O 0.9670(3) 1.2880(3) 0.9829(3)
N1A N 1.1224(3) 1.4046(3) 1.2872(3)
N2A N 0.9302(3) 1.1888(3) 1.3484(3)
C1A C 1.1533(4) 1.4093(3) 1.4346(3)
C2A C 1.2787(5) 1.5221(4) 1.5459(4)
H2A H 1.290(6) 1.527(5) 1.648(5)
C3A C 1.3760(5) 1.6307(4) 1.5029(4)
H3A H 1.462(6) 1.690(5) 1.588(5)
C4A C 1.3467(5) 1.6249(4) 1.3530(5)
H4A H 1.415(6) 1.698(5) 1.311(5)
C5A C 1.2188(5) 1.5117(4) 1.2479(4)
H5A H 1.198(5) 1.502(5) 1.130(5)
C6A C 1.0441(4) 1.2895(4) 1.4708(3)
C7A C 1.0508(5) 1.2774(4) 1.6156(4)
H6A H 1.131(5) 1.339(4) 1.702(4)
C8A C 0.9384(5) 1.1629(4) 1.6344(4)
H7A H 0.945(4) 1.161(4) 1.726(4)
C9A C 0.8202(5) 1.0636(4) 1.5094(4)
H8A H 0.753(6) 0.989(5) 1.531(5)
C10A C 0.8215(4) 1.0789(4) 1.3691(4)
H9A H 0.756(4) 1.002(4) 1.279(4)
V2_2 V 0.05808(6) 0.77876(5) 0.87825(5)
O3A_2 O 0.3900(3) 0.2306(3) 1.1132(3)
O5A O 0.7332(3) 0.3169(3) 1.1174(3)
O5A_2 O 0.7332(3) 1.3169(3) 1.1174(3)
V1A_2 V 1.52755(6) 1.31513(5) 1.01891(6)
V1_2 V 1.47245(6) 0.68487(5) 0.98109(6)
loop_
_geom_bond_atom_site_label_1
_geom_bond_atom_site_label_2
_geom_bond_site_symmetry_1
_geom_bond_site_symmetry_2
V1 O3 1_555 1_555
V2 O1 1_555 1_555
P1 O1 1_555 1_555
O2 P1 1_555 1_555
O3 P1 1_555 1_555
O4 P1 1_555 1_555
H1 O4 1_555 1_555
O5 V1 1_555 1_555
O6 V1 1_555 1_555
O7 V1 1_555 1_555
O8 V2 1_555 1_555
N1 V2 1_555 1_555
N2 V2 1_555 1_555
C1 N1 1_555 1_555
C2 C1 1_555 1_555
H2 C2 1_555 1_555
C3 C2 1_555 1_555
H3 C3 1_555 1_555
C4 C3 1_555 1_555
H4 C4 1_555 1_555
C5 N1 1_555 1_555
H5 C5 1_555 1_555
C6 N2 1_555 1_555
C7 C6 1_555 1_555
H6 C7 1_555 1_555
C8 C7 1_555 1_555
H7 C8 1_555 1_555
C9 C8 1_555 1_555
H8 C9 1_555 1_555
C10 N2 1_555 1_555
H9 C10 1_555 1_555
V1A O7 1_555 1_555
V2A O2 1_555 1_555
P1A O1A 1_555 1_555
O1A V2A 1_555 1_555
O2A V2 1_555 1_555
O3A P1A 1_555 1_555
O4A P1A 1_555 1_555
H1A O4A 1_555 1_555
O5_2 V2 1_555 1_555
O6A V1A 1_555 1_555
O8A V2A 1_555 1_555
N1A V2A 1_555 1_555
N2A V2A 1_555 1_555
C1A N1A 1_555 1_555
C2A C1A 1_555 1_555
H2A C2A 1_555 1_555
C3A C2A 1_555 1_555
H3A C3A 1_555 1_555
C4A C3A 1_555 1_555
H4A C4A 1_555 1_555
C5A N1A 1_555 1_555
H5A C5A 1_555 1_555
C6A N2A 1_555 1_555
C7A C6A 1_555 1_555
H6A C7A 1_555 1_555
C8A C7A 1_555 1_555
H7A C8A 1_555 1_555
C9A C8A 1_555 1_555
H8A C9A 1_555 1_555
C10A N2A 1_555 1_555
H9A C10A 1_555 1_555
V2_2 O5 1_555 1_555
O3A_2 V1A 1_555 1_555
O5A V1A 1_555 1_555
O5A_2 V2A 1_555 1_555
V1A_2 O3A 1_555 1_555
V1_2 O5_2 1_555 1_555
C1 C6 1_555 1_555
C4 C5 1_555 1_555
C9 C10 1_555 1_555
P1A O2A 1_555 1_555
C1A C6A 1_555 1_555
C4A C5A 1_555 1_555
C9A C10A 1_555 1_555

#END
