
#######################################################################
#
#                 Cambridge Crystallographic Data Centre
#                                CCDC 
#
#######################################################################
#
# If this CIF has been generated from an entry in the Cambridge 
# Structural Database, then it will include bibliographic, chemical, 
# crystal, experimental, refinement or atomic coordinate data resulting 
# from the CCDC's data processing and validation procedures.
#
#######################################################################

data_XOTSEF
_symmetry_cell_setting           orthorhombic
_symmetry_space_group_name_H-M   'P b c a'
_symmetry_Int_Tables_number      61
_space_group_name_Hall           '-P 2ac 2ab'
loop_
_symmetry_equiv_pos_site_id
_symmetry_equiv_pos_as_xyz
1 x,y,z
2 1/2-x,-y,1/2+z
3 1/2+x,1/2-y,-z
4 -x,1/2+y,1/2-z
5 -x,-y,-z
6 1/2+x,y,1/2-z
7 1/2-x,1/2+y,z
8 x,1/2-y,1/2+z
_cell_length_a                   8.1044(9)
_cell_length_b                   12.9859(14)
_cell_length_c                   13.0941(14)
_cell_angle_alpha                90
_cell_angle_beta                 90
_cell_angle_gamma                90
_cell_volume                     1378.06
loop_
_atom_site_label
_atom_site_type_symbol
_atom_site_fract_x
_atom_site_fract_y
_atom_site_fract_z
Cu1 Cu 0.0000 0.5000 0.5000
N1 N -0.0642(2) 0.42205(11) 0.19511(12)
N2 N 0.04075(19) 0.34734(10) 0.22773(11)
N3 N -0.01594(17) 0.43684(11) 0.36205(11)
C1 C 0.0018(2) 0.19127(14) 0.11905(14)
C2 C 0.1163(2) 0.27625(13) 0.15611(14)
H1 H 0.2116 0.2449 0.1884
H2 H 0.1553 0.3148 0.0974
C3 C -0.0951(2) 0.47329(14) 0.27863(14)
H3 H -0.1654 0.5299 0.2806
C4 C 0.0679(2) 0.35693(12) 0.32671(12)
H4 H 0.1354 0.3142 0.3655
O1 O 0.07274(17) 0.13360(9) 0.05481(9)
O2 O -0.13887(18) 0.18354(11) 0.15247(12)
Cu1C Cu 0.0000 0.0000 0.0000
Cu1C_2 Cu 0.0000 1.0000 1.0000
N1D N 0.0642(2) 0.57795(11) 0.80489(12)
N2D N -0.04075(19) 0.65266(10) 0.77227(11)
N3D N 0.01594(17) 0.56316(11) 0.63795(11)
C1D C -0.0018(2) 0.80873(14) 0.88095(14)
C2D C -0.1163(2) 0.72375(13) 0.84389(14)
H1D H -0.2116 0.7551 0.8116
H2D H -0.1553 0.6852 0.9026
C3D C 0.0951(2) 0.52671(14) 0.72137(14)
H3D H 0.1654 0.4701 0.7194
C4D C -0.0679(2) 0.64307(12) 0.67329(12)
H4D H -0.1354 0.6858 0.6345
O1D O -0.07274(17) 0.86640(9) 0.94519(9)
O1C O -0.07274(17) 0.63360(9) 0.44519(9)
O1G O 0.07274(17) 0.36640(9) 0.55481(9)
O2D O 0.13887(18) 0.81646(11) 0.84753(12)
O3 O -0.2962(2) 0.45462(14) 0.52562(13)
H5 H -0.263(5) 0.401(3) 0.579(3)
H6 H -0.350(6) 0.498(3) 0.553(4)
O4 O 0.4280(19) 0.1569(10) 0.0811(13)
loop_
_geom_bond_atom_site_label_1
_geom_bond_atom_site_label_2
_geom_bond_site_symmetry_1
_geom_bond_site_symmetry_2
Cu1 N3 1_555 1_555
N1 N2 1_555 1_555
N2 C2 1_555 1_555
N3 C3 1_555 1_555
C1 C2 1_555 1_555
C2 H1 1_555 1_555
H2 C2 1_555 1_555
C3 N1 1_555 1_555
H3 C3 1_555 1_555
C4 N2 1_555 1_555
H4 C4 1_555 1_555
O1 C1 1_555 1_555
O2 C1 1_555 1_555
O3 H5 1_555 1_555
H6 O3 1_555 1_555
Cu1C O1 1_555 1_555
Cu1C_2 O1D 1_555 1_555
N1D N2D 1_555 1_555
N2D C2D 1_555 1_555
N3D Cu1 1_555 1_555
C1D C2D 1_555 1_555
C2D H1D 1_555 1_555
H2D C2D 1_555 1_555
C3D N1D 1_555 1_555
H3D C3D 1_555 1_555
C4D N2D 1_555 1_555
H4D C4D 1_555 1_555
O1D C1D 1_555 1_555
O1C Cu1 1_555 1_555
O1G Cu1 1_555 1_555
O2D C1D 1_555 1_555
N3 C4 1_555 1_555
N3D C3D 1_555 1_555
N3D C4D 1_555 1_555

#END
