
#######################################################################
#
#                 Cambridge Crystallographic Data Centre
#                                CCDC 
#
#######################################################################
#
# If this CIF has been generated from an entry in the Cambridge 
# Structural Database, then it will include bibliographic, chemical, 
# crystal, experimental, refinement or atomic coordinate data resulting 
# from the CCDC's data processing and validation procedures.
#
#######################################################################

data_XOTSIJ
_symmetry_cell_setting           monoclinic
_symmetry_space_group_name_H-M   'P 21/c'
_symmetry_Int_Tables_number      14
_space_group_name_Hall           '-P 2ybc'
loop_
_symmetry_equiv_pos_site_id
_symmetry_equiv_pos_as_xyz
1 x,y,z
2 -x,1/2+y,1/2-z
3 -x,-y,-z
4 x,1/2-y,1/2+z
_cell_length_a                   7.6789(11)
_cell_length_b                   12.6444(18)
_cell_length_c                   7.8519(11)
_cell_angle_alpha                90
_cell_angle_beta                 118.452(2)
_cell_angle_gamma                90
_cell_volume                     670.298
loop_
_atom_site_label
_atom_site_type_symbol
_atom_site_fract_x
_atom_site_fract_y
_atom_site_fract_z
Co1 Co 0.0000 0.0000 0.5000
N1 N 0.2804(2) 0.29714(11) 0.57826(19)
N2 N 0.1266(2) 0.33405(11) 0.6013(2)
N3 N 0.1039(2) 0.15894(10) 0.5551(2)
O1 O 0.73079(17) 0.44789(10) 0.77477(17)
O2 O 0.5777(2) 0.37199(13) 0.92309(19)
O3 O -0.1078(2) 0.02270(12) 0.6990(2)
H1 H -0.211(4) 0.055(2) 0.640(4)
H2 H -0.121(4) -0.023(2) 0.752(4)
C1 C 0.5924(2) 0.39790(13) 0.7785(2)
C2 C 0.4304(3) 0.36643(15) 0.5775(2)
H3 H 0.3665 0.4301 0.5060
H4 H 0.4913 0.3315 0.5092
C3 C 0.0249(2) 0.24782(13) 0.5857(3)
H5 H -0.0915 0.2479 0.5950
C4 C 0.2647(2) 0.19361(13) 0.5523(2)
H6 H 0.3539 0.1513 0.5346
Co1A Co 1.0000 0.5000 1.0000
Co1A_2 Co -1.0000 -0.5000 0.0000
N1B N -0.2804(2) -0.29714(11) 0.42174(19)
N2B N -0.1266(2) -0.33405(11) 0.3987(2)
N3B N -0.1039(2) -0.15894(10) 0.4449(2)
O1B O -0.73079(17) -0.44789(10) 0.22523(17)
O1A O 0.26921(17) -0.05211(10) 0.72523(17)
O1C O -0.26921(17) 0.05211(10) 0.27477(17)
O2B O -0.5777(2) -0.37199(13) 0.07691(19)
O3B O 0.1078(2) -0.02270(12) 0.3010(2)
H1B H 0.211(4) -0.055(2) 0.360(4)
H2B H 0.121(4) 0.023(2) 0.248(4)
C1B C -0.5924(2) -0.39790(13) 0.2215(2)
C2B C -0.4304(3) -0.36643(15) 0.4225(2)
H3B H -0.3665 -0.4301 0.4940
H4B H -0.4913 -0.3315 0.4908
C3B C -0.0249(2) -0.24782(13) 0.4143(3)
H5B H 0.0915 -0.2479 0.4050
C4B C -0.2647(2) -0.19361(13) 0.4477(2)
H6B H -0.3539 -0.1513 0.4654
loop_
_geom_bond_atom_site_label_1
_geom_bond_atom_site_label_2
_geom_bond_site_symmetry_1
_geom_bond_site_symmetry_2
Co1 N3 1_555 1_555
N1 N2 1_555 1_555
N2 C3 1_555 1_555
N3 C3 1_555 1_555
O1 C1 1_555 1_555
O2 C1 1_555 1_555
O3 Co1 1_555 1_555
H1 O3 1_555 1_555
H2 O3 1_555 1_555
C1 C2 1_555 1_555
C2 N1 1_555 1_555
H3 C2 1_555 1_555
H4 C2 1_555 1_555
C3 H5 1_555 1_555
C4 N1 1_555 1_555
H6 C4 1_555 1_555
Co1A O1 1_555 1_555
Co1A_2 O1B 1_555 1_555
N1B N2B 1_555 1_555
N2B C3B 1_555 1_555
N3B Co1 1_555 1_555
O1B C1B 1_555 1_555
O1A Co1 1_555 1_555
O1C Co1 1_555 1_555
O2B C1B 1_555 1_555
O3B Co1 1_555 1_555
H1B O3B 1_555 1_555
H2B O3B 1_555 1_555
C1B C2B 1_555 1_555
C2B N1B 1_555 1_555
H3B C2B 1_555 1_555
H4B C2B 1_555 1_555
C3B N3B 1_555 1_555
H5B C3B 1_555 1_555
C4B N1B 1_555 1_555
H6B C4B 1_555 1_555
N3 C4 1_555 1_555
N3B C4B 1_555 1_555

#END
