
#######################################################################
#
#                 Cambridge Crystallographic Data Centre
#                                CCDC 
#
#######################################################################
#
# If this CIF has been generated from an entry in the Cambridge 
# Structural Database, then it will include bibliographic, chemical, 
# crystal, experimental, refinement or atomic coordinate data resulting 
# from the CCDC's data processing and validation procedures.
#
#######################################################################

data_XOTSOP
_symmetry_cell_setting           monoclinic
_symmetry_space_group_name_H-M   'P 21/c'
_symmetry_Int_Tables_number      14
_space_group_name_Hall           '-P 2ybc'
loop_
_symmetry_equiv_pos_site_id
_symmetry_equiv_pos_as_xyz
1 x,y,z
2 -x,1/2+y,1/2-z
3 -x,-y,-z
4 x,1/2-y,1/2+z
_cell_length_a                   7.6367(11)
_cell_length_b                   12.5208(18)
_cell_length_c                   7.8744(12)
_cell_angle_alpha                90
_cell_angle_beta                 118.669(2)
_cell_angle_gamma                90
_cell_volume                     660.626
loop_
_atom_site_label
_atom_site_type_symbol
_atom_site_fract_x
_atom_site_fract_y
_atom_site_fract_z
Ni1 Ni 1.0000 0.0000 1.0000
N1 N 1.2788(2) 0.29671(12) 1.0786(2)
N2 N 1.1238(3) 0.33269(13) 1.1023(2)
N3 N 1.1034(2) 0.15604(12) 1.0546(2)
O1 O 1.7334(2) 0.44831(11) 1.27506(19)
O2 O 1.5758(2) 0.37503(15) 1.4222(2)
O3 O 0.8970(2) 0.02279(13) 1.1978(2)
C1 C 1.0230(3) 0.24510(15) 1.0862(3)
H1 H 0.9063 0.2443 1.0958
C2 C 1.2649(3) 0.19210(15) 1.0519(3)
H2 H 1.3552 0.1502 1.0340
C3 C 1.4284(3) 0.36767(17) 1.0779(3)
H3 H 1.3628 0.4319 1.0069
H4 H 1.4896 0.3331 1.0092
C4 C 1.5919(3) 0.39954(15) 1.2780(3)
H5 H 0.793(4) 0.055(2) 1.140(4)
H6 H 0.892(4) -0.022(2) 1.255(4)
Ni1A Ni 2.0000 0.5000 1.5000
Ni1A_2 Ni 0.0000 -0.5000 0.5000
N1B N 0.7212(2) -0.29671(12) 0.9214(2)
N2B N 0.8762(3) -0.33269(13) 0.8977(2)
N3B N 0.8966(2) -0.15604(12) 0.9454(2)
O1B O 0.2666(2) -0.44831(11) 0.72494(19)
O1A O 1.2666(2) -0.05169(11) 1.22494(19)
O1C O 0.7334(2) 0.05169(11) 0.77506(19)
O2B O 0.4242(2) -0.37503(15) 0.5778(2)
O3B O 1.1030(2) -0.02279(13) 0.8022(2)
C1B C 0.9770(3) -0.24510(15) 0.9138(3)
H1B H 1.0937 -0.2443 0.9042
C2B C 0.7351(3) -0.19210(15) 0.9481(3)
H2B H 0.6448 -0.1502 0.9660
C3B C 0.5716(3) -0.36767(17) 0.9221(3)
H3B H 0.6372 -0.4319 0.9931
H4B H 0.5104 -0.3331 0.9908
C4B C 0.4081(3) -0.39954(15) 0.7220(3)
H5B H 1.207(4) -0.055(2) 0.860(4)
H6B H 1.108(4) 0.022(2) 0.745(4)
loop_
_geom_bond_atom_site_label_1
_geom_bond_atom_site_label_2
_geom_bond_site_symmetry_1
_geom_bond_site_symmetry_2
Ni1 N3 1_555 1_555
N1 N2 1_555 1_555
N2 C1 1_555 1_555
N3 C1 1_555 1_555
O1 C4 1_555 1_555
O2 C4 1_555 1_555
O3 Ni1 1_555 1_555
C1 H1 1_555 1_555
C2 N1 1_555 1_555
H2 C2 1_555 1_555
C3 N1 1_555 1_555
H3 C3 1_555 1_555
H4 C3 1_555 1_555
C4 C3 1_555 1_555
H5 O3 1_555 1_555
H6 O3 1_555 1_555
Ni1A O1 1_555 1_555
Ni1A_2 O1B 1_555 1_555
N1B N2B 1_555 1_555
N2B C1B 1_555 1_555
N3B Ni1 1_555 1_555
O1B C4B 1_555 1_555
O1A Ni1 1_555 1_555
O1C Ni1 1_555 1_555
O2B C4B 1_555 1_555
O3B Ni1 1_555 1_555
C1B N3B 1_555 1_555
H1B C1B 1_555 1_555
C2B N1B 1_555 1_555
H2B C2B 1_555 1_555
C3B N1B 1_555 1_555
H3B C3B 1_555 1_555
H4B C3B 1_555 1_555
C4B C3B 1_555 1_555
H5B O3B 1_555 1_555
H6B O3B 1_555 1_555
N3 C2 1_555 1_555
N3B C2B 1_555 1_555

#END
