
#######################################################################
#
#                 Cambridge Crystallographic Data Centre
#                                CCDC 
#
#######################################################################
#
# If this CIF has been generated from an entry in the Cambridge 
# Structural Database, then it will include bibliographic, chemical, 
# crystal, experimental, refinement or atomic coordinate data resulting 
# from the CCDC's data processing and validation procedures.
#
#######################################################################

data_XOTVOT
_symmetry_cell_setting           orthorhombic
_symmetry_space_group_name_H-M   'P 21 21 21'
_symmetry_Int_Tables_number      19
_space_group_name_Hall           'P 2ac 2ab'
loop_
_symmetry_equiv_pos_site_id
_symmetry_equiv_pos_as_xyz
1 x,y,z
2 1/2-x,-y,1/2+z
3 -x,1/2+y,1/2-z
4 1/2+x,1/2-y,-z
_cell_length_a                   5.755(2)
_cell_length_b                   8.999(4)
_cell_length_c                   22.796(9)
_cell_angle_alpha                90
_cell_angle_beta                 90
_cell_angle_gamma                90
_cell_volume                     1180.59
loop_
_atom_site_label
_atom_site_type_symbol
_atom_site_fract_x
_atom_site_fract_y
_atom_site_fract_z
Cu1 Cu -0.31773(9) 1.10730(5) 0.762593(19)
C1 C 0.1109(8) 1.1417(4) 0.84259(17)
H1 H 0.1991 1.1652 0.8097
C2 C -0.1777(8) 1.0958(4) 0.89472(15)
H2 H -0.3280 1.0790 0.9082
C3 C 0.0446(7) 1.0482(4) 0.98727(16)
C4 C -0.0866(8) 1.0907(5) 1.03212(16)
H3 H -0.2178 1.1504 1.0286
C5 C -0.0022(9) 1.0340(5) 1.08592(17)
H4 H -0.0716 1.0522 1.1221
C6 C 0.1882(9) 0.9516(4) 1.07892(15)
C7 C 0.5797(9) 0.7485(4) 1.15710(19)
H5 H 0.6827 0.6699 1.1620
C8 C 0.3980(7) 0.9419(4) 1.17406(16)
H6 H 0.3398 1.0281 1.1911
C9 C -0.4412(6) 0.9146(4) 0.75531(15)
N1 N -0.1227(6) 1.1342(3) 0.84063(13)
N2 N 0.2071(6) 1.1137(4) 0.89384(13)
N3 N 0.0149(6) 1.0847(3) 0.92744(13)
N4 N 0.3334(7) 0.8899(4) 1.12170(12)
N5 N 0.4517(8) 0.7620(4) 1.11031(16)
N6 N 0.5537(6) 0.8560(3) 1.19821(13)
N7 N -0.5212(6) 0.7983(3) 0.74780(13)
S1 S 0.2719(2) 0.93710(13) 1.00674(4)
Cu1A Cu 0.81773(9) 0.89270(5) 1.262593(19)
Cu1B Cu -0.68227(9) 0.60730(5) 0.737407(19)
N6A N -0.0537(6) 1.1440(3) 0.69821(13)
N7B N -0.4788(6) 1.2983(3) 0.75220(13)
loop_
_geom_bond_atom_site_label_1
_geom_bond_atom_site_label_2
_geom_bond_site_symmetry_1
_geom_bond_site_symmetry_2
Cu1 C9 1_555 1_555
C1 H1 1_555 1_555
C2 H2 1_555 1_555
C3 C4 1_555 1_555
C4 H3 1_555 1_555
C5 C4 1_555 1_555
H4 C5 1_555 1_555
C6 C5 1_555 1_555
C7 H5 1_555 1_555
C8 H6 1_555 1_555
C9 N7 1_555 1_555
N1 Cu1 1_555 1_555
N2 C1 1_555 1_555
N3 C2 1_555 1_555
N4 C6 1_555 1_555
N5 C7 1_555 1_555
N6 C7 1_555 1_555
N7 Cu1B 1_555 1_555
S1 C3 1_555 1_555
Cu1A N6 1_555 1_555
N6A Cu1 1_555 1_555
N7B Cu1 1_555 1_555
C1 N1 1_555 1_555
C2 N1 1_555 1_555
C3 N3 1_555 1_555
C6 S1 1_555 1_555
C8 N4 1_555 1_555
C8 N6 1_555 1_555
N2 N3 1_555 1_555
N4 N5 1_555 1_555

#END
