
#######################################################################
#
#                 Cambridge Crystallographic Data Centre
#                                CCDC 
#
#######################################################################
#
# If this CIF has been generated from an entry in the Cambridge 
# Structural Database, then it will include bibliographic, chemical, 
# crystal, experimental, refinement or atomic coordinate data resulting 
# from the CCDC's data processing and validation procedures.
#
#######################################################################

data_XOTVUZ
_symmetry_cell_setting           monoclinic
_symmetry_space_group_name_H-M   'C 2/c'
_symmetry_Int_Tables_number      15
_space_group_name_Hall           '-C 2yn'
loop_
_symmetry_equiv_pos_site_id
_symmetry_equiv_pos_as_xyz
1 x,y,z
2 -x,y,1/2-z
3 1/2+x,1/2+y,z
4 1/2-x,1/2+y,1/2-z
5 -x,-y,-z
6 x,-y,1/2+z
7 1/2-x,1/2-y,-z
8 1/2+x,1/2-y,1/2+z
_cell_length_a                   17.5005(18)
_cell_length_b                   20.105(2)
_cell_length_c                   7.6595(8)
_cell_angle_alpha                90
_cell_angle_beta                 95.0710(10)
_cell_angle_gamma                90
_cell_volume                     2684.43
loop_
_atom_site_label
_atom_site_type_symbol
_atom_site_fract_x
_atom_site_fract_y
_atom_site_fract_z
Ni1 Ni 0.0000 0.79465(3) 0.2500
C1 C 0.0554(2) 0.92837(19) 0.4198(6)
H1 H 0.0102 0.9311 0.4744
C2 C 0.1428(2) 0.88925(19) 0.2798(5)
H2 H 0.1730 0.8618 0.2165
C3 C 0.2252(2) 0.98857(19) 0.2885(5)
C4 C 0.2937(3) 0.9644(2) 0.2569(6)
H3 H 0.3069 0.9196 0.2645
C5 C 0.3439(2) 1.0155(2) 0.2106(6)
H4 H 0.3940 1.0082 0.1835
C6 C 0.3109(2) 1.07549(19) 0.2101(6)
C7 C 0.3593(2) 1.2256(2) 0.0377(6)
H5 H 0.3526 1.2610 -0.0403
C8 C 0.4062(2) 1.1662(2) 0.2462(6)
H6 H 0.4362 1.1493 0.3424
N1 N 0.07604(17) 0.87232(15) 0.3376(4)
N2 N 0.1028(2) 0.97821(17) 0.4178(4)
N3 N 0.15972(18) 0.95188(16) 0.3270(4)
N4 N 0.34407(18) 1.13700(16) 0.1691(4)
N5 N 0.31285(19) 1.17522(17) 0.0331(4)
N6 N 0.41912(17) 1.22273(15) 0.1659(5)
O1 O 0.04139(16) 0.79747(14) 0.0017(4)
H7 H 0.0163 0.7721 -0.0647
H8 H 0.0883 0.7859 0.0102
S1 S 0.21785(6) 1.07364(5) 0.26871(16)
C1A C -0.0554(2) 0.92837(19) 0.0802(6)
H1A H -0.0102 0.9311 0.0256
C2A C -0.1428(2) 0.88925(19) 0.2202(5)
H2A H -0.1730 0.8618 0.2835
C3A C -0.2252(2) 0.98857(19) 0.2115(5)
C4A C -0.2937(3) 0.9644(2) 0.2431(6)
H3A H -0.3069 0.9196 0.2355
C5A C -0.3439(2) 1.0155(2) 0.2894(6)
H4A H -0.3940 1.0082 0.3165
C6A C -0.3109(2) 1.07549(19) 0.2899(6)
C7A C -0.3593(2) 1.2256(2) 0.4623(6)
H5A H -0.3526 1.2610 0.5403
C8A C -0.4062(2) 1.1662(2) 0.2538(6)
H6A H -0.4362 1.1493 0.1576
N1A N -0.07604(17) 0.87232(15) 0.1624(4)
N2A N -0.1028(2) 0.97821(17) 0.0822(4)
N3A N -0.15972(18) 0.95188(16) 0.1730(4)
N4A N -0.34407(18) 1.13700(16) 0.3309(4)
N5A N -0.31285(19) 1.17522(17) 0.4669(4)
N6A N -0.41912(17) 1.22273(15) 0.3341(5)
O1A O -0.04139(16) 0.79747(14) 0.4983(4)
H7A H -0.0163 0.7721 0.5647
H8A H -0.0883 0.7859 0.4898
S1A S -0.21785(6) 1.07364(5) 0.23129(16)
Ni1B Ni -0.5000 1.29465(3) 0.2500
Ni1B_2 Ni 0.5000 1.29465(3) 0.2500
N6B N -0.08088(17) 0.72273(15) 0.1659(5)
N6C N 0.08088(17) 0.72273(15) 0.3341(5)
Cl1 Cl 0.2500 0.7500 0.0000
O2 O 0.2190(7) 0.7507(4) 0.1339(11)
O3 O 0.1911(5) 0.7946(4) -0.0764(18)
O2F O 0.2810(7) 0.7493(4) -0.1339(11)
O3F O 0.3089(5) 0.7054(4) 0.0764(18)
Cl2 Cl 0.0000 0.63426(9) 0.7500
O4 O -0.0189(3) 0.6014(2) 0.8950(5)
O5 O 0.0868(4) 0.6379(5) 0.8449(11)
O4A O 0.0189(3) 0.6014(2) 0.6050(5)
O5A O -0.0868(4) 0.6379(5) 0.6551(11)
O6? O 0.0000 0.7021(3) 0.7500
O7? O 0.3010(5) 0.8165(4) 0.0585(9)
loop_
_geom_bond_atom_site_label_1
_geom_bond_atom_site_label_2
_geom_bond_site_symmetry_1
_geom_bond_site_symmetry_2
Ni1 N1 1_555 1_555
C1 H1 1_555 1_555
C2 H2 1_555 1_555
C3 C4 1_555 1_555
C4 H3 1_555 1_555
C5 C4 1_555 1_555
H4 C5 1_555 1_555
C6 C5 1_555 1_555
C7 H5 1_555 1_555
C8 H6 1_555 1_555
N1 C1 1_555 1_555
N2 C1 1_555 1_555
N3 C2 1_555 1_555
N4 C6 1_555 1_555
N5 C7 1_555 1_555
N6 C7 1_555 1_555
O1 Ni1 1_555 1_555
H7 O1 1_555 1_555
H8 O1 1_555 1_555
S1 C3 1_555 1_555
Cl1 O2 1_555 1_555
O3 Cl1 1_555 1_555
Cl2 O4 1_555 1_555
O5 Cl2 1_555 1_555
C1A H1A 1_555 1_555
C2A H2A 1_555 1_555
C3A C4A 1_555 1_555
C4A H3A 1_555 1_555
C5A C4A 1_555 1_555
H4A C5A 1_555 1_555
C6A C5A 1_555 1_555
C7A H5A 1_555 1_555
C8A H6A 1_555 1_555
N1A Ni1 1_555 1_555
N2A C1A 1_555 1_555
N3A C2A 1_555 1_555
N4A C6A 1_555 1_555
N5A C7A 1_555 1_555
N6A C7A 1_555 1_555
O1A Ni1 1_555 1_555
H7A O1A 1_555 1_555
H8A O1A 1_555 1_555
S1A C3A 1_555 1_555
Ni1B N6A 1_555 1_555
Ni1B_2 N6 1_555 1_555
N6B Ni1 1_555 1_555
N6C Ni1 1_555 1_555
O2F Cl1 1_555 1_555
O3F Cl1 1_555 1_555
O4A Cl2 1_555 1_555
O5A Cl2 1_555 1_555
C2 N1 1_555 1_555
C3 N3 1_555 1_555
C6 S1 1_555 1_555
C8 N4 1_555 1_555
C8 N6 1_555 1_555
N2 N3 1_555 1_555
N4 N5 1_555 1_555
C1A N1A 1_555 1_555
C2A N1A 1_555 1_555
C3A N3A 1_555 1_555
C6A S1A 1_555 1_555
C8A N4A 1_555 1_555
C8A N6A 1_555 1_555
N2A N3A 1_555 1_555
N4A N5A 1_555 1_555

#END
