
#######################################################################
#
#                 Cambridge Crystallographic Data Centre
#                                CCDC 
#
#######################################################################
#
# If this CIF has been generated from an entry in the Cambridge 
# Structural Database, then it will include bibliographic, chemical, 
# crystal, experimental, refinement or atomic coordinate data resulting 
# from the CCDC's data processing and validation procedures.
#
#######################################################################

data_XOTVAE
_symmetry_cell_setting           triclinic
_symmetry_space_group_name_H-M   'P -1'
_symmetry_Int_Tables_number      2
_space_group_name_Hall           '-P 1'
loop_
_symmetry_equiv_pos_site_id
_symmetry_equiv_pos_as_xyz
1 x,y,z
2 -x,-y,-z
_cell_length_a                   10.905(2)
_cell_length_b                   12.415(3)
_cell_length_c                   13.004(3)
_cell_angle_alpha                113.49(3)
_cell_angle_beta                 93.47(3)
_cell_angle_gamma                99.16(3)
_cell_volume                     1579.05
loop_
_atom_site_label
_atom_site_type_symbol
_atom_site_fract_x
_atom_site_fract_y
_atom_site_fract_z
O23 O 0.415(4) 1.042(4) 0.185(3)
C1 C 0.326(3) 0.501(3) 0.482(2)
H1 H 0.2903 0.4201 0.4485
C2 C 0.250(2) 0.585(2) 0.500(2)
H2 H 0.1636 0.5586 0.4833
C3 C 0.457(2) 0.538(2) 0.512(2)
C4 C 0.505(2) 0.666(2) 0.564(2)
H3 H 0.5901 0.6971 0.5872
C5 C 0.418(3) 0.744(2) 0.581(3)
H4 H 0.4473 0.8265 0.6186
N1 N 0.300(3) 0.704(2) 0.544(2)
C1A C 0.674(3) 0.499(3) 0.518(2)
H1A H 0.7097 0.5799 0.5515
C2A C 0.750(2) 0.415(2) 0.500(2)
H2A H 0.8364 0.4414 0.5167
C3A C 0.543(2) 0.462(2) 0.488(2)
C4A C 0.495(2) 0.334(2) 0.436(2)
H3A H 0.4099 0.3029 0.4128
C5A C 0.582(3) 0.256(2) 0.419(3)
H4A H 0.5527 0.1735 0.3814
N1A N 0.700(3) 0.296(2) 0.456(2)
O24 O 0.320(12) 0.164(12) 0.300(11)
B1 B 0.0000 0.0000 0.5000
W1 W -0.26498(9) -0.23022(9) 0.40501(8)
W2 W 0.05389(11) -0.07061(11) 0.22039(9)
W3 W -0.02699(10) 0.28984(9) 0.67385(9)
W4 W 0.02810(11) 0.21925(10) 0.39502(10)
W5 W -0.29090(9) 0.05905(10) 0.58089(9)
W6 W -0.23713(9) -0.01318(10) 0.29995(9)
Cu1 Cu 0.0000 0.5000 1.0000
Cu2 Cu -0.0167(3) 0.2847(5) 0.1311(4)
O1 O 0.040(2) 0.329(2) 0.3470(18)
O2 O -0.393(2) -0.342(2) 0.3608(18)
O3 O 0.0761(17) -0.1063(18) 0.0860(14)
O4 O -0.352(2) -0.0167(19) 0.2018(18)
O5 O -0.291(2) -0.1652(18) 0.3003(16)
O6 O -0.197(3) 0.221(2) 0.632(2)
O7 O -0.0359(19) 0.4293(18) 0.7584(17)
O8 O -0.425(2) 0.095(2) 0.6272(19)
O9 O -0.329(2) -0.108(2) 0.516(2)
O10 O -0.034(2) 0.2945(19) 0.5327(17)
O11 O -0.309(3) 0.0580(19) 0.4345(17)
O12 O 0.078(2) 0.103(2) 0.270(2)
O13 O -0.152(2) -0.309(2) 0.317(2)
O14 O -0.223(2) 0.053(2) 0.714(2)
O15 O -0.191(2) -0.254(2) 0.527(2)
O16 O -0.019(3) 0.233(3) 0.785(2)
O17 O -0.135(2) -0.038(2) 0.463(2)
O18 O -0.139(2) 0.145(2) 0.340(2)
O19 O -0.126(2) -0.075(2) 0.192(2)
O20 O 0.068(3) -0.078(3) 0.408(2)
O21 O -0.054(3) -0.132(3) 0.466(2)
O22 O -0.033(3) 0.028(3) 0.396(2)
C6 C -0.436(2) 0.495(2) 0.9968(19)
C7 C -0.342(3) 0.593(3) 1.062(3)
H5 H -0.3655 0.6624 1.1118
C8 C -0.221(3) 0.594(3) 1.058(3)
H6 H -0.1625 0.6646 1.1001
C9 C -0.391(3) 0.399(3) 0.930(2)
H7 H -0.4477 0.3285 0.8864
C10 C -0.267(3) 0.400(3) 0.925(3)
H8 H -0.2429 0.3345 0.8712
C11 C 0.367(2) 0.386(3) 0.191(2)
H9 H 0.4255 0.4567 0.2326
C12 C 0.640(3) 0.384(3) 0.205(2)
H10 H 0.6139 0.4536 0.2501
C13 C 0.414(2) 0.284(2) 0.133(2)
C14 C 0.550(2) 0.276(2) 0.134(2)
C15 C 0.325(3) 0.181(3) 0.070(2)
H11 H 0.3485 0.1091 0.0268
C16 C 0.249(3) 0.392(3) 0.193(2)
H12 H 0.2246 0.4644 0.2328
C17 C 0.763(3) 0.382(4) 0.204(3)
H13 H 0.8216 0.4501 0.2516
C18 C 0.593(3) 0.183(3) 0.061(3)
H14 H 0.5394 0.1166 0.0050
C19 C 0.200(3) 0.189(4) 0.074(3)
H15 H 0.1414 0.1191 0.0308
C20 C 0.721(4) 0.190(4) 0.072(3)
H16 H 0.7481 0.1196 0.0304
N2 N -0.180(2) 0.491(2) 0.993(2)
N3 N 0.157(3) 0.280(3) 0.129(2)
N4 N 0.805(2) 0.277(2) 0.132(2)
W1A W 0.26498(9) 0.23022(9) 0.59499(8)
W2A W -0.05389(11) 0.07061(11) 0.77961(9)
W3A W 0.02699(10) -0.28984(9) 0.32615(9)
W4A W -0.02810(11) -0.21925(10) 0.60498(10)
W5A W 0.29090(9) -0.05905(10) 0.41911(9)
W6A W 0.23713(9) 0.01318(10) 0.70005(9)
Cu1_2 Cu 0.0000 -0.5000 0.0000
Cu1_3 Cu -1.0000 0.5000 1.0000
Cu2A Cu 0.0167(3) -0.2847(5) 0.8689(4)
Cu2A_2 Cu 0.0167(3) -0.2847(5) -0.1311(4)
Cu2_2 Cu 0.9833(3) 0.2847(5) 0.1311(4)
Cu2_3 Cu -0.0167(3) 0.2847(5) 1.1311(4)
Cu2_4 Cu -1.0167(3) 0.2847(5) 0.1311(4)
O1A O -0.040(2) -0.329(2) 0.6530(18)
O2A O 0.393(2) 0.342(2) 0.6392(18)
O3A O -0.0761(17) 0.1063(18) 0.9140(14)
O3A_2 O -0.0761(17) 0.1063(18) -0.0860(14)
O3_2 O 0.0761(17) -0.1063(18) 1.0860(14)
O4A O 0.352(2) 0.0167(19) 0.7982(18)
O5A O 0.291(2) 0.1652(18) 0.6997(16)
O6A O 0.197(3) -0.221(2) 0.368(2)
O7A O 0.0359(19) -0.4293(18) 0.2416(17)
O7A_2 O 0.0359(19) 0.5707(18) 1.2416(17)
O8A O 0.425(2) -0.095(2) 0.3728(19)
O9A O 0.329(2) 0.108(2) 0.484(2)
O10A O 0.034(2) -0.2945(19) 0.4673(17)
O11A O 0.309(3) -0.0580(19) 0.5655(17)
O12A O -0.078(2) -0.103(2) 0.730(2)
O13A O 0.152(2) 0.309(2) 0.683(2)
O14A O 0.223(2) -0.053(2) 0.286(2)
O15A O 0.191(2) 0.254(2) 0.473(2)
O16A O 0.019(3) -0.233(3) 0.215(2)
O17A O 0.135(2) 0.038(2) 0.537(2)
O18A O 0.139(2) -0.145(2) 0.660(2)
O19A O 0.126(2) 0.075(2) 0.808(2)
O20A O -0.068(3) 0.078(3) 0.592(2)
O21A O 0.054(3) 0.132(3) 0.534(2)
O22A O 0.033(3) -0.028(3) 0.604(2)
C6A C -0.564(2) 0.505(2) 1.0032(19)
C7A C -0.658(3) 0.407(3) 0.938(3)
H5A H -0.6345 0.3376 0.8882
C8A C -0.779(3) 0.406(3) 0.942(3)
H6A H -0.8375 0.3354 0.8999
C9A C -0.609(3) 0.601(3) 1.070(2)
H7A H -0.5523 0.6715 1.1136
C10A C -0.733(3) 0.600(3) 1.075(3)
H8A H -0.7571 0.6655 1.1288
C11_2 C -0.633(2) 0.386(3) 0.191(2)
H9_2 H -0.5745 0.4567 0.2326
C12_2 C -0.360(3) 0.384(3) 0.205(2)
H10_2 H -0.3861 0.4536 0.2501
C13_2 C -0.586(2) 0.284(2) 0.133(2)
C14_2 C -0.450(2) 0.276(2) 0.134(2)
C15_2 C -0.675(3) 0.181(3) 0.070(2)
H11_2 H -0.6515 0.1091 0.0268
C16_2 C -0.751(3) 0.392(3) 0.193(2)
H12_2 H -0.7754 0.4644 0.2328
C17_2 C -0.237(3) 0.382(4) 0.204(3)
H13_2 H -0.1784 0.4501 0.2516
C18_2 C -0.407(3) 0.183(3) 0.061(3)
H14_2 H -0.4606 0.1166 0.0050
C19_2 C -0.800(3) 0.189(4) 0.074(3)
H15_2 H -0.8586 0.1191 0.0308
C20_2 C -0.279(4) 0.190(4) 0.072(3)
H16_2 H -0.2519 0.1196 0.0304
N2A N -0.820(2) 0.509(2) 1.007(2)
N2A_2 N 0.180(2) 0.509(2) 1.007(2)
N3_2 N -0.843(3) 0.280(3) 0.129(2)
N3A N -0.157(3) -0.280(3) 0.871(2)
N4_2 N -0.195(2) 0.277(2) 0.132(2)
N4A N 0.195(2) -0.277(2) 0.868(2)
loop_
_geom_bond_atom_site_label_1
_geom_bond_atom_site_label_2
_geom_bond_site_symmetry_1
_geom_bond_site_symmetry_2
B1 O17 1_555 1_555
W1 O2 1_555 1_555
W2 O3 1_555 1_555
W3 O6 1_555 1_555
W4 O1 1_555 1_555
W5 O6 1_555 1_555
W6 O4 1_555 1_555
Cu1 O7 1_555 1_555
Cu2 O1 1_555 1_555
O3 Cu2A_2 1_555 1_555
O5 W1 1_555 1_555
O7 W3 1_555 1_555
O8 W5 1_555 1_555
O9 W1 1_555 1_555
O10 W3 1_555 1_555
O11 W5 1_555 1_555
O12 W2 1_555 1_555
O13 W1 1_555 1_555
O14 W5 1_555 1_555
O15 W1 1_555 1_555
O16 W3 1_555 1_555
O17 W1 1_555 1_555
O18 W4 1_555 1_555
O19 W2 1_555 1_555
O20 B1 1_555 1_555
O21 B1 1_555 1_555
O22 B1 1_555 1_555
C1 H1 1_555 1_555
C2 C1 1_555 1_555
H2 C2 1_555 1_555
C3 C1 1_555 1_555
C4 C3 1_555 1_555
H3 C4 1_555 1_555
C5 C4 1_555 1_555
H4 C5 1_555 1_555
C6 C7 1_555 1_555
C7 H5 1_555 1_555
C8 C7 1_555 1_555
H6 C8 1_555 1_555
C9 C6 1_555 1_555
H7 C9 1_555 1_555
C10 C9 1_555 1_555
H8 C10 1_555 1_555
C11 H9 1_555 1_555
C12 H10 1_555 1_555
C13 C11 1_555 1_555
C14 C12 1_555 1_555
C15 C13 1_555 1_555
H11 C15 1_555 1_555
C16 C11 1_555 1_555
H12 C16 1_555 1_555
C17 C12 1_555 1_555
H13 C17 1_555 1_555
C18 C14 1_555 1_555
H14 C18 1_555 1_555
C19 C15 1_555 1_555
H15 C19 1_555 1_555
C20 C18 1_555 1_555
H16 C20 1_555 1_555
N1 C2 1_555 1_555
N2 Cu1 1_555 1_555
N3 Cu2 1_555 1_555
N4 C17 1_555 1_555
W1A O2A 1_555 1_555
W2A O14 1_555 1_555
W3A O13 1_555 1_555
W4A O15 1_555 1_555
W5A O20 1_555 1_555
W6A O4A 1_555 1_555
Cu1_2 O7A 1_555 1_555
Cu1_3 N2A 1_555 1_555
Cu2A O1A 1_555 1_555
Cu2_2 N4 1_555 1_555
Cu2_3 O3A 1_555 1_555
Cu2_4 N3_2 1_555 1_555
O1A W4A 1_555 1_555
O3A W2A 1_555 1_555
O3A_2 Cu2 1_555 1_555
O3_2 Cu2A 1_555 1_555
O5A W1A 1_555 1_555
O6A W3A 1_555 1_555
O7A W3A 1_555 1_555
O7A_2 Cu1 1_555 1_555
O8A W5A 1_555 1_555
O9A W1A 1_555 1_555
O10A W3A 1_555 1_555
O11A W5A 1_555 1_555
O12A W2A 1_555 1_555
O13A W3 1_555 1_555
O14A W2 1_555 1_555
O15A W4 1_555 1_555
O16A W2 1_555 1_555
O17A B1 1_555 1_555
O18A W4A 1_555 1_555
O19A W2A 1_555 1_555
O20A B1 1_555 1_555
O21A B1 1_555 1_555
O22A B1 1_555 1_555
C1A H1A 1_555 1_555
C2A C1A 1_555 1_555
H2A C2A 1_555 1_555
C3A C3 1_555 1_555
C4A C3A 1_555 1_555
H3A C4A 1_555 1_555
C5A C4A 1_555 1_555
H4A C5A 1_555 1_555
C6A C6 1_555 1_555
C7A C6A 1_555 1_555
H5A C7A 1_555 1_555
C8A C7A 1_555 1_555
H6A C8A 1_555 1_555
C9A C6A 1_555 1_555
H7A C9A 1_555 1_555
C10A C9A 1_555 1_555
H8A C10A 1_555 1_555
C11_2 H9_2 1_555 1_555
C12_2 H10_2 1_555 1_555
C13_2 C11_2 1_555 1_555
C14_2 C12_2 1_555 1_555
C15_2 C13_2 1_555 1_555
H11_2 C15_2 1_555 1_555
C16_2 C11_2 1_555 1_555
H12_2 C16_2 1_555 1_555
C17_2 C12_2 1_555 1_555
H13_2 C17_2 1_555 1_555
C18_2 C14_2 1_555 1_555
H14_2 C18_2 1_555 1_555
C19_2 C15_2 1_555 1_555
H15_2 C19_2 1_555 1_555
C20_2 C18_2 1_555 1_555
H16_2 C20_2 1_555 1_555
N1A C2A 1_555 1_555
N2A C8A 1_555 1_555
N2A_2 Cu1 1_555 1_555
N3_2 C16_2 1_555 1_555
N3A Cu2A 1_555 1_555
N4_2 Cu2 1_555 1_555
N4A Cu2A 1_555 1_555
W1 O21 1_555 1_555
W2 O20 1_555 1_555
W2 O22 1_555 1_555
W3 O20A 1_555 1_555
W3 O21A 1_555 1_555
W4 O10 1_555 1_555
W4 O12 1_555 1_555
W4 O22 1_555 1_555
W4 O21A 1_555 1_555
W5 O9 1_555 1_555
W5 O17 1_555 1_555
W5 O20A 1_555 1_555
W6 O5 1_555 1_555
W6 O11 1_555 1_555
W6 O17 1_555 1_555
W6 O18 1_555 1_555
W6 O19 1_555 1_555
W6 O22 1_555 1_555
O16 W2A 1_555 1_555
O17 O21 1_555 1_555
O17 O22 1_555 1_555
O17 O20A 1_555 1_555
O20 O21 1_555 1_555
O20 W3A 1_555 1_555
O20 O17A 1_555 1_555
O21 W3A 1_555 1_555
O21 W4A 1_555 1_555
O21 O22A 1_555 1_555
O22 O21A 1_555 1_555
C5 N1 1_555 1_555
C8 N2 1_555 1_555
C10 N2 1_555 1_555
C13 C14 1_555 1_555
C16 N3 1_555 1_555
C19 N3 1_555 1_555
C20 N4 1_555 1_555
W1A O13A 1_555 1_555
W1A O15A 1_555 1_555
W1A O17A 1_555 1_555
W1A O21A 1_555 1_555
W2A O20A 1_555 1_555
W2A O22A 1_555 1_555
W3A O16A 1_555 1_555
W4A O10A 1_555 1_555
W4A O12A 1_555 1_555
W4A O22A 1_555 1_555
W5A O6A 1_555 1_555
W5A O9A 1_555 1_555
W5A O14A 1_555 1_555
W5A O17A 1_555 1_555
W6A O5A 1_555 1_555
W6A O11A 1_555 1_555
W6A O17A 1_555 1_555
W6A O18A 1_555 1_555
W6A O19A 1_555 1_555
W6A O22A 1_555 1_555
O17A O21A 1_555 1_555
O17A O22A 1_555 1_555
O20A O21A 1_555 1_555
C1A C3A 1_555 1_555
C5A N1A 1_555 1_555
C10A N2A 1_555 1_555
C13_2 C14_2 1_555 1_555
C17_2 N4_2 1_555 1_555
C19_2 N3_2 1_555 1_555
C20_2 N4_2 1_555 1_555

#END
