
#######################################################################
#
#                 Cambridge Crystallographic Data Centre
#                                CCDC 
#
#######################################################################
#
# If this CIF has been generated from an entry in the Cambridge 
# Structural Database, then it will include bibliographic, chemical, 
# crystal, experimental, refinement or atomic coordinate data resulting 
# from the CCDC's data processing and validation procedures.
#
#######################################################################

data_XOTVAF
_symmetry_cell_setting           monoclinic
_symmetry_space_group_name_H-M   'P 21/c'
_symmetry_Int_Tables_number      14
_space_group_name_Hall           '-P 2ybc'
loop_
_symmetry_equiv_pos_site_id
_symmetry_equiv_pos_as_xyz
1 x,y,z
2 -x,1/2+y,1/2-z
3 -x,-y,-z
4 x,1/2-y,1/2+z
_cell_length_a                   7.4935(18)
_cell_length_b                   24.295(6)
_cell_length_c                   8.055(2)
_cell_angle_alpha                90
_cell_angle_beta                 115.810(3)
_cell_angle_gamma                90
_cell_volume                     1320.16
loop_
_atom_site_label
_atom_site_type_symbol
_atom_site_fract_x
_atom_site_fract_y
_atom_site_fract_z
Ni1 Ni 1.0000 0.0000 0.5000
C1 C 0.9555(3) 0.12217(9) 0.3343(3)
H1 H 1.0890 0.1252 0.3612
C2 C 0.6870(3) 0.08814(8) 0.3062(3)
H2 H 0.5896 0.0646 0.3075
C3 C 0.4859(4) 0.22502(9) 0.2468(3)
H3 H 0.6000 0.2432 0.3274
C4 C 0.4823(3) 0.17257(9) 0.1888(3)
C5 C 0.2874(3) 0.15500(8) 0.0669(3)
C6 C 0.1500(3) 0.19471(10) 0.0373(3)
H4 H 0.0152 0.1904 -0.0374
C7 C 0.1856(4) 0.01909(9) -0.0762(3)
H5 H 0.1776 -0.0185 -0.0590
C8 C 0.1669(3) 0.09467(9) -0.2073(3)
H6 H 0.1447 0.1221 -0.2948
N1 N 0.8757(3) 0.07490(7) 0.3632(2)
N2 N 0.8312(3) 0.16299(8) 0.2661(3)
N3 N 0.6566(2) 0.14009(7) 0.2468(2)
N4 N 0.2379(3) 0.10341(7) -0.0273(2)
N5 N 0.2493(3) 0.05422(8) 0.0613(2)
N6 N 0.1323(2) 0.04177(7) -0.2452(2)
O1 O 1.2548(2) 0.01109(6) 0.4600(2)
H7 H 1.2334 -0.0039 0.3425
H8 H 1.2831 0.0497 0.4626
S1 S 0.25476(10) 0.25343(3) 0.15336(10)
C1B C 0.0445(3) -0.12217(9) -0.3343(3)
H1B H -0.0890 -0.1252 -0.3612
C2B C 0.3130(3) -0.08814(8) -0.3062(3)
H2B H 0.4104 -0.0646 -0.3075
C3B C 0.5141(4) -0.22502(9) -0.2468(3)
H3B H 0.4000 -0.2432 -0.3274
C4B C 0.5177(3) -0.17257(9) -0.1888(3)
C5B C 0.7126(3) -0.15500(8) -0.0669(3)
C6B C 0.8500(3) -0.19471(10) -0.0373(3)
H4B H 0.9848 -0.1904 0.0374
C7B C 0.8144(4) -0.01909(9) 0.0762(3)
H5B H 0.8224 0.0185 0.0590
C8B C 0.8331(3) -0.09467(9) 0.2073(3)
H6B H 0.8553 -0.1221 0.2948
N1B N 0.1243(3) -0.07490(7) -0.3632(2)
N2B N 0.1688(3) -0.16299(8) -0.2661(3)
N3B N 0.3434(2) -0.14009(7) -0.2468(2)
N4B N 0.7621(3) -0.10341(7) 0.0273(2)
N5B N 0.7507(3) -0.05422(8) -0.0613(2)
N6B N 0.8677(2) -0.04177(7) 0.2452(2)
S1B S 0.74524(10) -0.25343(3) -0.15336(10)
O1B O 0.7452(2) -0.01109(6) 0.5400(2)
H7B H 0.7666 0.0039 0.6575
H8B H 0.7169 -0.0497 0.5374
Ni1_2 Ni 0.0000 0.0000 -0.5000
N1B_2 N 1.1243(3) -0.07490(7) 0.6368(2)
N6_2 N 1.1323(2) 0.04177(7) 0.7548(2)
Cl1 Cl 0.61870(8) 0.12223(2) 0.71038(7)
O2 O 0.4444(3) 0.11232(8) 0.5405(2)
O3 O 0.5641(3) 0.14766(8) 0.8401(3)
O4 O 0.7482(3) 0.15714(10) 0.6710(3)
O5 O 0.7141(4) 0.07095(9) 0.7810(3)
loop_
_geom_bond_atom_site_label_1
_geom_bond_atom_site_label_2
_geom_bond_site_symmetry_1
_geom_bond_site_symmetry_2
Ni1 N1 1_555 1_555
C1 H1 1_555 1_555
C2 H2 1_555 1_555
C3 H3 1_555 1_555
C4 C3 1_555 1_555
C5 C4 1_555 1_555
C6 C5 1_555 1_555
H4 C6 1_555 1_555
C7 H5 1_555 1_555
C8 H6 1_555 1_555
N1 C1 1_555 1_555
N2 C1 1_555 1_555
N3 C2 1_555 1_555
N4 C5 1_555 1_555
N5 C7 1_555 1_555
N6 C7 1_555 1_555
O1 Ni1 1_555 1_555
H7 O1 1_555 1_555
H8 O1 1_555 1_555
S1 C3 1_555 1_555
Cl1 O2 1_555 1_555
O3 Cl1 1_555 1_555
O4 Cl1 1_555 1_555
O5 Cl1 1_555 1_555
C1B H1B 1_555 1_555
C2B H2B 1_555 1_555
C3B H3B 1_555 1_555
C4B C3B 1_555 1_555
C5B C4B 1_555 1_555
C6B C5B 1_555 1_555
H4B C6B 1_555 1_555
C7B H5B 1_555 1_555
C8B H6B 1_555 1_555
N1B C1B 1_555 1_555
N2B C1B 1_555 1_555
N3B C2B 1_555 1_555
N4B C5B 1_555 1_555
N5B C7B 1_555 1_555
N6B Ni1 1_555 1_555
S1B C3B 1_555 1_555
O1B Ni1 1_555 1_555
H7B O1B 1_555 1_555
H8B O1B 1_555 1_555
Ni1_2 N6 1_555 1_555
N1B_2 Ni1 1_555 1_555
N6_2 Ni1 1_555 1_555
C2 N1 1_555 1_555
C4 N3 1_555 1_555
C6 S1 1_555 1_555
C8 N4 1_555 1_555
C8 N6 1_555 1_555
N2 N3 1_555 1_555
N4 N5 1_555 1_555
C2B N1B 1_555 1_555
C4B N3B 1_555 1_555
C6B S1B 1_555 1_555
C7B N6B 1_555 1_555
C8B N4B 1_555 1_555
C8B N6B 1_555 1_555
N1B Ni1_2 1_555 1_555
N2B N3B 1_555 1_555
N4B N5B 1_555 1_555

#END
