
#######################################################################
#
#                 Cambridge Crystallographic Data Centre
#                                CCDC 
#
#######################################################################
#
# If this CIF has been generated from an entry in the Cambridge 
# Structural Database, then it will include bibliographic, chemical, 
# crystal, experimental, refinement or atomic coordinate data resulting 
# from the CCDC's data processing and validation procedures.
#
#######################################################################

data_XOTVEI
_symmetry_cell_setting           triclinic
_symmetry_space_group_name_H-M   'P -1'
_symmetry_Int_Tables_number      2
_space_group_name_Hall           '-P 1'
loop_
_symmetry_equiv_pos_site_id
_symmetry_equiv_pos_as_xyz
1 x,y,z
2 -x,-y,-z
_cell_length_a                   10.851(2)
_cell_length_b                   10.953(2)
_cell_length_c                   13.696(3)
_cell_angle_alpha                98.61(3)
_cell_angle_beta                 98.93(3)
_cell_angle_gamma                101.17(3)
_cell_volume                     1550.21
loop_
_atom_site_label
_atom_site_type_symbol
_atom_site_fract_x
_atom_site_fract_y
_atom_site_fract_z
O1 O 0.673(4) 0.282(4) 1.242(3)
O2 O 0.742(4) 0.439(4) 1.123(3)
Mo1 Mo 0.99148(13) 0.13848(12) 1.24955(10)
Mo2 Mo 1.07312(13) 0.19596(12) 0.82516(10)
Mo3 Mo 0.70319(11) -0.02366(12) 1.08276(9)
Mo4 Mo 1.06121(16) 0.33415(13) 1.07346(15)
Mo5 Mo 0.77422(13) 0.17067(15) 0.90510(12)
Mo6 Mo 1.28852(11) 0.16340(13) 1.16674(11)
O3 O 0.700(2) 0.1076(16) 1.0092(13)
O4 O 0.702(2) 0.003(2) 0.8257(14)
O5 O 0.9954(19) 0.2061(19) 1.3659(15)
O6 O 0.6802(19) 0.2544(19) 0.8602(15)
O7 O 0.973(2) 0.123(2) 0.9580(19)
O8 O 1.0981(15) 0.4864(13) 1.1122(12)
O9 O 0.6523(18) -0.1444(17) 0.9557(14)
O10 O 0.898(2) 0.297(2) 1.005(2)
O11 O 0.9750(17) -0.0328(18) 1.2610(14)
O12 O 1.429(2) 0.243(2) 1.2452(17)
O13 O 0.901(3) 0.188(3) 0.826(3)
O14 O 1.006(2) 0.277(2) 1.187(2)
O15 O 1.108(2) 0.2894(19) 0.7413(16)
O16 O 1.176(3) 0.163(3) 1.263(2)
O17 O 0.8117(16) 0.0896(16) 1.1926(13)
O18 O 1.2377(19) 0.1567(16) 0.8636(13)
O19 O 1.115(3) 0.318(3) 0.952(2)
O20 O 0.566(2) -0.030(2) 1.1214(18)
O21 O 1.227(3) 0.305(3) 1.135(3)
O22 O 0.866(2) -0.009(2) 0.9759(16)
O23 O 1.064(2) 0.112(3) 1.0996(19)
O24 O 1.071(2) 0.014(2) 0.921(2)
C3 C 1.468(2) 0.420(2) 0.6540(16)
H6 H 1.5259 0.4562 0.7135
C4 C 1.339(2) 0.415(2) 0.6500(19)
H7 H 1.3147 0.4514 0.7078
C5 C 1.6376(14) 0.367(2) 0.5689(15)
C6 C 1.4157(12) 0.323(2) 0.4860(13)
H8 H 1.4381 0.2906 0.4262
C7 C 1.5107(13) 0.3726(18) 0.5695(12)
C8 C 1.2896(15) 0.3203(19) 0.4879(16)
H9 H 1.2302 0.2871 0.4286
C9 C 0.741(3) -0.029(2) 1.411(3)
H10 H 0.7708 -0.0515 1.3525
C10 C 0.617(2) -0.028(2) 1.410(2)
H11 H 0.5616 -0.0485 1.3481
C11 C 0.777(3) 0.027(3) 1.589(2)
H12 H 0.8312 0.0420 1.6513
C12 C 0.6566(19) 0.030(2) 1.5868(19)
H13 H 0.6319 0.0508 1.6481
C13 C 0.5620(17) 0.0037(17) 1.5007(12)
C14 C 1.811(3) 0.330(3) 0.479(3)
H14 H 1.8370 0.3078 0.4185
C15 C 1.6847(17) 0.331(3) 0.4795(15)
H15 H 1.6269 0.3075 0.4187
C16 C 1.738(2) 0.395(2) 0.652(2)
H16 H 1.7172 0.4187 0.7141
C17 C 1.855(3) 0.393(3) 0.651(2)
H17 H 1.9117 0.4135 0.7126
N2 N 1.901(3) 0.363(3) 0.570(2)
N3 N 1.2467(18) 0.3627(19) 0.5702(14)
N4 N 0.823(3) 0.005(3) 1.506(3)
Cu1 Cu 1.0728(4) 0.3549(4) 0.5718(4)
Cu2 Cu 0.9924(7) -0.0137(7) 1.4637(5)
P1 P 1.0000 0.0000 1.0000
Mo1A Mo 1.00852(13) -0.13848(12) 0.75045(10)
Mo2A Mo 0.92688(13) -0.19596(12) 1.17484(10)
Mo3A Mo 1.29681(11) 0.02366(12) 0.91724(9)
Mo4A Mo 0.93879(16) -0.33415(13) 0.92654(15)
Mo5A Mo 1.22578(13) -0.17067(15) 1.09490(12)
Mo6A Mo 0.71148(11) -0.16340(13) 0.83326(11)
O3A O 1.300(2) -0.1076(16) 0.9908(13)
O4A O 1.298(2) -0.003(2) 1.1743(14)
O5A O 1.0046(19) -0.2061(19) 0.6341(15)
O6A O 1.3198(19) -0.2544(19) 1.1398(15)
O7A O 1.027(2) -0.123(2) 1.0420(19)
O8A O 0.9019(15) -0.4864(13) 0.8878(12)
O9A O 1.3477(18) 0.1444(17) 1.0443(14)
O10A O 1.102(2) -0.297(2) 0.995(2)
O11A O 1.0250(17) 0.0328(18) 0.7390(14)
O12A O 0.571(2) -0.243(2) 0.7548(17)
O13A O 1.099(3) -0.188(3) 1.174(3)
O14A O 0.994(2) -0.277(2) 0.813(2)
O15A O 0.892(2) -0.2894(19) 1.2587(16)
O16A O 0.824(3) -0.163(3) 0.737(2)
O17A O 1.1883(16) -0.0896(16) 0.8074(13)
O18A O 0.7623(19) -0.1567(16) 1.1364(13)
O19A O 0.885(3) -0.318(3) 1.048(2)
O20A O 1.434(2) 0.030(2) 0.8786(18)
O21A O 0.773(3) -0.305(3) 0.865(3)
O22A O 1.134(2) 0.009(2) 1.0241(16)
O23A O 0.936(2) -0.112(3) 0.9004(19)
O24A O 0.929(2) -0.014(2) 1.079(2)
C3_2 C 0.468(2) 0.420(2) 0.6540(16)
H6_2 H 0.5259 0.4562 0.7135
C4_2 C 0.339(2) 0.415(2) 0.6500(19)
H7_2 H 0.3147 0.4514 0.7078
C5_2 C 0.6376(14) 0.367(2) 0.5689(15)
C6_2 C 0.4157(12) 0.323(2) 0.4860(13)
H8_2 H 0.4381 0.2906 0.4262
C7_2 C 0.5107(13) 0.3726(18) 0.5695(12)
C8_2 C 0.2896(15) 0.3203(19) 0.4879(16)
H9_2 H 0.2302 0.2871 0.4286
C9A C 0.259(3) 0.029(2) 1.589(3)
H10A H 0.2292 0.0515 1.6475
C10A C 0.383(2) 0.028(2) 1.590(2)
H11A H 0.4384 0.0485 1.6519
C11A C 0.223(3) -0.027(3) 1.411(2)
H12A H 0.1688 -0.0420 1.3487
C12A C 0.3434(19) -0.030(2) 1.4132(19)
H13A H 0.3681 -0.0508 1.3519
C13A C 0.4380(17) -0.0037(17) 1.4993(12)
C14_2 C 0.811(3) 0.330(3) 0.479(3)
H14_2 H 0.8370 0.3078 0.4185
C15_2 C 0.6847(17) 0.331(3) 0.4795(15)
H15_2 H 0.6269 0.3075 0.4187
C16_2 C 0.738(2) 0.395(2) 0.652(2)
H16_2 H 0.7172 0.4187 0.7141
C17_2 C 0.855(3) 0.393(3) 0.651(2)
H17_2 H 0.9117 0.4135 0.7126
N2_2 N 0.901(3) 0.363(3) 0.570(2)
N2A N 1.099(3) -0.363(3) 1.430(2)
N3_2 N 0.2467(18) 0.3627(19) 0.5702(14)
N3A N 0.7533(18) -0.3627(19) 1.4298(14)
N4A N 0.177(3) -0.005(3) 1.494(3)
N4A_2 N 1.177(3) -0.005(3) 1.494(3)
N4A_3 N 1.177(3) -0.005(3) 0.494(3)
N4_2 N 0.823(3) 0.005(3) 0.506(3)
Cu1A Cu 0.9272(4) -0.3549(4) 1.4282(4)
Cu1_2 Cu 2.0728(4) 0.3549(4) 0.5718(4)
Cu1_3 Cu 0.0728(4) 0.3549(4) 0.5718(4)
Cu2A Cu 1.0076(7) 0.0137(7) 0.5363(5)
Cu2A_2 Cu 1.0076(7) 0.0137(7) 1.5363(5)
Cu2A_3 Cu 0.0076(7) 0.0137(7) 1.5363(5)
Cu2_2 Cu -0.0076(7) -0.0137(7) 1.4637(5)
Cu2_3 Cu 0.9924(7) -0.0137(7) 0.4637(5)
C1 C 0.472(3) 0.384(3) 0.924(2)
H1 H 0.4230 0.3537 0.8558
H2 H 0.5109 0.3164 0.9426
C2 C 0.384(2) 0.406(2) 0.9894(19)
H3 H 0.3096 0.4225 0.9488
H4 H 0.3552 0.3262 1.0111
N1 N 0.579(2) 0.496(2) 0.921(2)
H5 H 0.6148 0.5009 0.8698
C1A C 0.528(3) 0.616(3) 1.076(2)
H1A H 0.5770 0.6463 1.1442
H2A H 0.4891 0.6836 1.0574
C2A C 0.616(2) 0.594(2) 1.0106(19)
H3A H 0.6904 0.5775 1.0512
H4A H 0.6448 0.6738 0.9889
N1A N 0.421(2) 0.504(2) 1.079(2)
H5A H 0.3852 0.4991 1.1302
loop_
_geom_bond_atom_site_label_1
_geom_bond_atom_site_label_2
_geom_bond_site_symmetry_1
_geom_bond_site_symmetry_2
C1 H1 1_555 1_555
H2 C1 1_555 1_555
C2 C1 1_555 1_555
H3 C2 1_555 1_555
H4 C2 1_555 1_555
N1 C1 1_555 1_555
H5 N1 1_555 1_555
Mo1 O5 1_555 1_555
Mo2 O7 1_555 1_555
Mo3 O3 1_555 1_555
Mo4 O7 1_555 1_555
Mo5 O3 1_555 1_555
Mo6 O12 1_555 1_555
O4 Mo5 1_555 1_555
O5 Cu2 1_555 1_555
O6 Mo5 1_555 1_555
O7 Mo5 1_555 1_555
O8 Mo4 1_555 1_555
O9 Mo3 1_555 1_555
O10 Mo4 1_555 1_555
O11 Mo1 1_555 1_555
O13 Mo2 1_555 1_555
O14 Mo1 1_555 1_555
O15 Mo2 1_555 1_555
O16 Mo1 1_555 1_555
O17 Mo1 1_555 1_555
O18 Mo2 1_555 1_555
O19 Mo2 1_555 1_555
O20 Mo3 1_555 1_555
O21 Mo4 1_555 1_555
O22 Mo3 1_555 1_555
O23 Mo1 1_555 1_555
O24 Mo2 1_555 1_555
C3 H6 1_555 1_555
C4 C3 1_555 1_555
H7 C4 1_555 1_555
C5 C7 1_555 1_555
C6 H8 1_555 1_555
C7 C3 1_555 1_555
C8 C6 1_555 1_555
H9 C8 1_555 1_555
C9 H10 1_555 1_555
C10 C9 1_555 1_555
H11 C10 1_555 1_555
C11 H12 1_555 1_555
C12 C11 1_555 1_555
H13 C12 1_555 1_555
C13 C10 1_555 1_555
C14 H14 1_555 1_555
C15 C5 1_555 1_555
H15 C15 1_555 1_555
C16 C5 1_555 1_555
H16 C16 1_555 1_555
C17 C16 1_555 1_555
H17 C17 1_555 1_555
N2 C14 1_555 1_555
N3 C4 1_555 1_555
N4 C9 1_555 1_555
Cu1 O15 1_555 1_555
Cu2 O11 1_555 1_555
P1 O7 1_555 1_555
C1A H1A 1_555 1_555
H2A C1A 1_555 1_555
C2A N1 1_555 1_555
H3A C2A 1_555 1_555
H4A C2A 1_555 1_555
N1A C2 1_555 1_555
H5A N1A 1_555 1_555
Mo1A O5A 1_555 1_555
Mo2A O11 1_555 1_555
Mo3A O18 1_555 1_555
Mo4A O7A 1_555 1_555
Mo5A O3A 1_555 1_555
Mo6A O4 1_555 1_555
O3A Mo3A 1_555 1_555
O4A Mo6 1_555 1_555
O5A Cu2A 1_555 1_555
O6A Mo5A 1_555 1_555
O7A P1 1_555 1_555
O8A Mo4A 1_555 1_555
O9A Mo6 1_555 1_555
O10A Mo4A 1_555 1_555
O11A Mo2 1_555 1_555
O12A Mo6A 1_555 1_555
O13A Mo2A 1_555 1_555
O14A Mo1A 1_555 1_555
O15A Mo2A 1_555 1_555
O16A Mo1A 1_555 1_555
O17A Mo1A 1_555 1_555
O18A Mo3 1_555 1_555
O19A Mo2A 1_555 1_555
O20A Mo3A 1_555 1_555
O21A Mo4A 1_555 1_555
O22A Mo6 1_555 1_555
O23A O22 1_555 1_555
O24A Mo3 1_555 1_555
C3_2 H6_2 1_555 1_555
C4_2 C3_2 1_555 1_555
H7_2 C4_2 1_555 1_555
C5_2 C7_2 1_555 1_555
C6_2 H8_2 1_555 1_555
C7_2 C3_2 1_555 1_555
C8_2 C6_2 1_555 1_555
H9_2 C8_2 1_555 1_555
C9A H10A 1_555 1_555
C10A C9A 1_555 1_555
H11A C10A 1_555 1_555
C11A H12A 1_555 1_555
C12A C11A 1_555 1_555
H13A C12A 1_555 1_555
C13A C13 1_555 1_555
C14_2 H14_2 1_555 1_555
C15_2 C5_2 1_555 1_555
H15_2 C15_2 1_555 1_555
C16_2 C5_2 1_555 1_555
H16_2 C16_2 1_555 1_555
C17_2 C16_2 1_555 1_555
H17_2 C17_2 1_555 1_555
N2_2 Cu1 1_555 1_555
N2A Cu1A 1_555 1_555
N3_2 C4_2 1_555 1_555
N3A Cu1A 1_555 1_555
N4A C9A 1_555 1_555
N4A_2 Cu2 1_555 1_555
N4A_3 Cu2A 1_555 1_555
N4_2 Cu2A 1_555 1_555
Cu1A O15A 1_555 1_555
Cu1_2 N2 1_555 1_555
Cu1_3 N3_2 1_555 1_555
Cu2A O11A 1_555 1_555
Cu2A_2 N4 1_555 1_555
Cu2A_3 N4A 1_555 1_555
Cu2_2 N4A 1_555 1_555
Cu2_3 N4A_3 1_555 1_555
Mo3 O17 1_555 1_555
Mo4 O14 1_555 1_555
Mo4 O19 1_555 1_555
Mo4 O23 1_555 1_555
Mo5 O10 1_555 1_555
Mo5 O13 1_555 1_555
Mo6 O16 1_555 1_555
Mo6 O21 1_555 1_555
Mo6 O23 1_555 1_555
O7 O10 1_555 1_555
O7 O13 1_555 1_555
O7 O22 1_555 1_555
O7 O23 1_555 1_555
O7 O24 1_555 1_555
O9 Mo6A 1_555 1_555
O14 O23 1_555 1_555
O22 P1 1_555 1_555
O22 Mo6A 1_555 1_555
O22 O24A 1_555 1_555
O23 P1 1_555 1_555
O23 O22A 1_555 1_555
O23 O24A 1_555 1_555
O24 P1 1_555 1_555
O24 Mo3A 1_555 1_555
O24 O22A 1_555 1_555
O24 O23A 1_555 1_555
C6 C7 1_555 1_555
C8 N3 1_555 1_555
C11 N4 1_555 1_555
C12 C13 1_555 1_555
C14 C15 1_555 1_555
C17 N2 1_555 1_555
N3 Cu1 1_555 1_555
N4 Cu2 1_555 1_555
Cu2 Cu2A_2 1_555 1_555
P1 O22A 1_555 1_555
P1 O23A 1_555 1_555
P1 O24A 1_555 1_555
C1A C2A 1_555 1_555
C1A N1A 1_555 1_555
Mo1A O11A 1_555 1_555
Mo1A O23A 1_555 1_555
Mo2A O7A 1_555 1_555
Mo2A O18A 1_555 1_555
Mo2A O24A 1_555 1_555
Mo3A O9A 1_555 1_555
Mo3A O17A 1_555 1_555
Mo3A O22A 1_555 1_555
Mo4A O14A 1_555 1_555
Mo4A O19A 1_555 1_555
Mo4A O23A 1_555 1_555
Mo5A O4A 1_555 1_555
Mo5A O7A 1_555 1_555
Mo5A O10A 1_555 1_555
Mo5A O13A 1_555 1_555
Mo6A O16A 1_555 1_555
Mo6A O21A 1_555 1_555
Mo6A O23A 1_555 1_555
O7A O10A 1_555 1_555
O7A O13A 1_555 1_555
O7A O22A 1_555 1_555
O7A O23A 1_555 1_555
O7A O24A 1_555 1_555
O14A O23A 1_555 1_555
C6_2 C7_2 1_555 1_555
C8_2 N3_2 1_555 1_555
C10A C13A 1_555 1_555
C11A N4A 1_555 1_555
C12A C13A 1_555 1_555
C14_2 C15_2 1_555 1_555
C14_2 N2_2 1_555 1_555
C17_2 N2_2 1_555 1_555
N4A_2 Cu2A_2 1_555 1_555
N4_2 Cu2_3 1_555 1_555
Cu2A Cu2_3 1_555 1_555
Cu2A_3 Cu2_2 1_555 1_555

#END
