
#######################################################################
#
#                 Cambridge Crystallographic Data Centre
#                                CCDC 
#
#######################################################################
#
# If this CIF has been generated from an entry in the Cambridge 
# Structural Database, then it will include bibliographic, chemical, 
# crystal, experimental, refinement or atomic coordinate data resulting 
# from the CCDC's data processing and validation procedures.
#
#######################################################################

data_XOTVEJ
_symmetry_cell_setting           monoclinic
_symmetry_space_group_name_H-M   'P 21/c'
_symmetry_Int_Tables_number      14
_space_group_name_Hall           '-P 2ybc'
loop_
_symmetry_equiv_pos_site_id
_symmetry_equiv_pos_as_xyz
1 x,y,z
2 -x,1/2+y,1/2-z
3 -x,-y,-z
4 x,1/2-y,1/2+z
_cell_length_a                   7.5049(17)
_cell_length_b                   24.391(6)
_cell_length_c                   8.0661(18)
_cell_angle_alpha                90
_cell_angle_beta                 115.808(2)
_cell_angle_gamma                90
_cell_volume                     1329.25
loop_
_atom_site_label
_atom_site_type_symbol
_atom_site_fract_x
_atom_site_fract_y
_atom_site_fract_z
Zn1 Zn 0.5000 0.0000 1.0000
C1 C 0.4543(4) 0.12373(9) 0.8323(3)
H1 H 0.5876 0.1269 0.8591
C2 C 0.1867(3) 0.08968(9) 0.8039(3)
H2 H 0.0899 0.0661 0.8049
C3 C -0.0149(4) 0.22569(9) 0.7474(3)
H3 H 0.0989 0.2439 0.8275
C4 C -0.0183(3) 0.17363(9) 0.6897(3)
C5 C -0.2122(3) 0.15588(9) 0.5687(3)
C6 C -0.3500(4) 0.19542(10) 0.5389(3)
H4 H -0.4846 0.1911 0.4644
C7 C -0.3129(4) 0.02050(10) 0.4280(3)
H5 H -0.3214 -0.0169 0.4456
C8 C -0.3309(3) 0.09541(9) 0.2966(3)
H6 H -0.3526 0.1225 0.2089
N1 N 0.3750(3) 0.07660(7) 0.8588(2)
N2 N 0.3303(3) 0.16444(8) 0.7666(3)
N3 N 0.1560(3) 0.14150(7) 0.7472(2)
N4 N -0.2615(3) 0.10450(7) 0.4753(2)
N5 N -0.2493(3) 0.05585(8) 0.5646(2)
N6 N -0.3651(3) 0.04298(7) 0.2594(2)
O1 O 0.7613(2) 0.01075(7) 0.9607(2)
H7 H 0.7778 0.0489 0.9422
H8 H 0.7489 -0.0096 0.8544
S1 S -0.24598(10) 0.25371(3) 0.65443(10)
C1B C -0.4543(4) -0.12373(9) 0.1677(3)
H1B H -0.5876 -0.1269 0.1409
C2B C -0.1867(3) -0.08968(9) 0.1961(3)
H2B H -0.0899 -0.0661 0.1951
C3B C 0.0149(4) -0.22569(9) 0.2526(3)
H3B H -0.0989 -0.2439 0.1725
C4B C 0.0183(3) -0.17363(9) 0.3103(3)
C5B C 0.2122(3) -0.15588(9) 0.4313(3)
C6B C 0.3500(4) -0.19542(10) 0.4611(3)
H4B H 0.4846 -0.1911 0.5356
C7B C 0.3129(4) -0.02050(10) 0.5720(3)
H5B H 0.3214 0.0169 0.5544
C8B C 0.3309(3) -0.09541(9) 0.7034(3)
H6B H 0.3526 -0.1225 0.7911
N1B N -0.3750(3) -0.07660(7) 0.1412(2)
N2B N -0.3303(3) -0.16444(8) 0.2334(3)
N3B N -0.1560(3) -0.14150(7) 0.2528(2)
N4B N 0.2615(3) -0.10450(7) 0.5247(2)
N5B N 0.2493(3) -0.05585(8) 0.4354(2)
N6B N 0.3651(3) -0.04298(7) 0.7406(2)
S1B S 0.24598(10) -0.25371(3) 0.34557(10)
O1B O 0.2387(2) -0.01075(7) 1.0393(2)
H7B H 0.2222 -0.0489 1.0578
H8B H 0.2511 0.0096 1.1456
Zn1_2 Zn -0.5000 0.0000 0.0000
N1B_2 N 0.6250(3) -0.07660(7) 1.1412(2)
N6_2 N 0.6349(3) 0.04298(7) 1.2594(2)
Cl1 Cl 0.11844(8) 0.37783(2) 0.71145(7)
O2 O -0.0545(3) 0.38753(8) 0.5419(3)
O3 O 0.0632(3) 0.35229(9) 0.8400(3)
O4 O 0.2489(3) 0.34319(10) 0.6732(3)
O5 O 0.2133(4) 0.42872(9) 0.7821(3)
loop_
_geom_bond_atom_site_label_1
_geom_bond_atom_site_label_2
_geom_bond_site_symmetry_1
_geom_bond_site_symmetry_2
Zn1 N1 1_555 1_555
C1 H1 1_555 1_555
C2 H2 1_555 1_555
C3 H3 1_555 1_555
C4 C3 1_555 1_555
C5 C4 1_555 1_555
C6 C5 1_555 1_555
H4 C6 1_555 1_555
C7 H5 1_555 1_555
C8 H6 1_555 1_555
N1 C1 1_555 1_555
N2 C1 1_555 1_555
N3 C2 1_555 1_555
N4 C5 1_555 1_555
N5 C7 1_555 1_555
N6 C7 1_555 1_555
O1 Zn1 1_555 1_555
H7 O1 1_555 1_555
H8 O1 1_555 1_555
S1 C3 1_555 1_555
Cl1 O2 1_555 1_555
O3 Cl1 1_555 1_555
O4 Cl1 1_555 1_555
O5 Cl1 1_555 1_555
C1B H1B 1_555 1_555
C2B H2B 1_555 1_555
C3B H3B 1_555 1_555
C4B C3B 1_555 1_555
C5B C4B 1_555 1_555
C6B C5B 1_555 1_555
H4B C6B 1_555 1_555
C7B H5B 1_555 1_555
C8B H6B 1_555 1_555
N1B C1B 1_555 1_555
N2B C1B 1_555 1_555
N3B C2B 1_555 1_555
N4B C5B 1_555 1_555
N5B C7B 1_555 1_555
N6B Zn1 1_555 1_555
S1B C3B 1_555 1_555
O1B Zn1 1_555 1_555
H7B O1B 1_555 1_555
H8B O1B 1_555 1_555
Zn1_2 N6 1_555 1_555
N1B_2 Zn1 1_555 1_555
N6_2 Zn1 1_555 1_555
C2 N1 1_555 1_555
C4 N3 1_555 1_555
C6 S1 1_555 1_555
C8 N4 1_555 1_555
C8 N6 1_555 1_555
N2 N3 1_555 1_555
N4 N5 1_555 1_555
C2B N1B 1_555 1_555
C4B N3B 1_555 1_555
C6B S1B 1_555 1_555
C7B N6B 1_555 1_555
C8B N4B 1_555 1_555
C8B N6B 1_555 1_555
N1B Zn1_2 1_555 1_555
N2B N3B 1_555 1_555
N4B N5B 1_555 1_555

#END
