
#######################################################################
#
#                 Cambridge Crystallographic Data Centre
#                                CCDC 
#
#######################################################################
#
# If this CIF has been generated from an entry in the Cambridge 
# Structural Database, then it will include bibliographic, chemical, 
# crystal, experimental, refinement or atomic coordinate data resulting 
# from the CCDC's data processing and validation procedures.
#
#######################################################################

data_XOTWIO
_symmetry_cell_setting           monoclinic
_symmetry_space_group_name_H-M   'P 21/c'
_symmetry_Int_Tables_number      14
_space_group_name_Hall           '-P 2ybc'
loop_
_symmetry_equiv_pos_site_id
_symmetry_equiv_pos_as_xyz
1 x,y,z
2 -x,1/2+y,1/2-z
3 -x,-y,-z
4 x,1/2-y,1/2+z
_cell_length_a                   9.0071(11)
_cell_length_b                   13.2773(18)
_cell_length_c                   12.1021(16)
_cell_angle_alpha                90
_cell_angle_beta                 104.697(14)
_cell_angle_gamma                90
_cell_volume                     1399.94
loop_
_atom_site_label
_atom_site_type_symbol
_atom_site_fract_x
_atom_site_fract_y
_atom_site_fract_z
Ag1 Ag 0.22744(11) 0.13722(8) 0.72082(9)
Ag2 Ag 0.70790(12) 0.14096(8) 0.65236(9)
Ag3 Ag -0.02871(13) -0.40170(8) 0.59802(9)
Ag4 Ag 0.60302(13) 0.18575(8) 0.89518(9)
O1 O 0.4620(10) 0.1993(7) 0.6749(8)
O2 O 0.1934(10) 0.3189(7) 0.6735(7)
O3 O 0.2735(10) 0.5361(7) 0.6468(8)
O4 O 0.5814(10) 0.5432(7) 0.6179(7)
O5 O 0.6986(11) 0.3301(7) 0.6257(8)
O6 O 0.1233(11) -0.2541(8) 0.6151(9)
O7 O -0.2045(10) -0.2601(7) 0.5858(8)
O8 O -0.3126(10) -0.0469(7) 0.6019(8)
O9 O -0.0404(10) 0.0818(7) 0.6567(8)
O10 O 0.2227(10) -0.0357(7) 0.6435(8)
O11 O -0.0577(10) -0.5686(7) 0.5929(8)
H1 H -0.0285 -0.5919 0.6603
H2 H -0.1518 -0.5828 0.5650
O12 O 0.5788(10) 0.1513(7) 0.4394(8)
C1 C 0.4509(14) 0.2943(10) 0.6599(10)
C2 C 0.3141(15) 0.3536(10) 0.6622(10)
C3 C 0.3542(14) 0.4604(10) 0.6475(10)
C4 C 0.5123(15) 0.4642(10) 0.6334(10)
C5 C 0.5679(15) 0.3583(10) 0.6395(11)
C6 C 0.0428(15) -0.1765(11) 0.6133(11)
C7 C -0.1249(15) -0.1806(10) 0.6009(10)
C8 C -0.1787(14) -0.0771(10) 0.6088(10)
C9 C -0.0432(15) -0.0114(10) 0.6332(10)
C10 C 0.0903(15) -0.0714(10) 0.6314(10)
H3 H 0.4998 0.1205 0.4185
H4 H 0.6420 0.1132 0.4159
Ag1A Ag 0.77256(11) 0.63722(8) 0.77918(9)
Ag2_2 Ag -0.29210(12) 0.14096(8) 0.65236(9)
Ag3B Ag 0.02871(13) -0.59830(8) 0.40198(9)
Ag4A Ag 0.39698(13) -0.31425(8) 0.60482(9)
Ag4A_2 Ag 0.39698(13) 0.68575(8) 0.60482(9)
Ag4C Ag 0.60302(13) 0.31425(8) 0.39518(9)
O3A O 0.7265(10) 0.0361(7) 0.8532(8)
O4A O 0.4186(10) 0.0432(7) 0.8821(7)
O5C O 0.6986(11) 0.1699(7) 1.1257(8)
O6A O 0.8767(11) 0.2459(8) 0.8849(9)
O8_2 O 0.6874(10) -0.0469(7) 0.6019(8)
O9_2 O 0.9596(10) 0.0818(7) 0.6567(8)
O11B O 0.0577(10) -0.4314(7) 0.4071(8)
O12C O 0.5788(10) 0.3487(7) 0.9394(8)
loop_
_geom_bond_atom_site_label_1
_geom_bond_atom_site_label_2
_geom_bond_site_symmetry_1
_geom_bond_site_symmetry_2
Ag1 O1 1_555 1_555
Ag2 O1 1_555 1_555
Ag3 O6 1_555 1_555
Ag4 O1 1_555 1_555
O1 C1 1_555 1_555
O2 Ag1 1_555 1_555
O3 C3 1_555 1_555
O4 C4 1_555 1_555
O5 Ag2 1_555 1_555
O6 C6 1_555 1_555
O7 Ag3 1_555 1_555
O8 C8 1_555 1_555
O9 Ag1 1_555 1_555
O10 Ag1 1_555 1_555
O11 Ag3 1_555 1_555
H1 O11 1_555 1_555
H2 O11 1_555 1_555
O12 Ag2 1_555 1_555
C1 C2 1_555 1_555
C2 O2 1_555 1_555
C3 C2 1_555 1_555
C4 C3 1_555 1_555
C5 O5 1_555 1_555
C6 C7 1_555 1_555
C7 O7 1_555 1_555
C8 C7 1_555 1_555
C9 O9 1_555 1_555
C10 O10 1_555 1_555
H3 O12 1_555 1_555
H4 O12 1_555 1_555
Ag1A O4 1_555 1_555
Ag2_2 O8 1_555 1_555
Ag3B O11 1_555 1_555
Ag4A O6 1_555 1_555
Ag4A_2 O3 1_555 1_555
Ag4C O5 1_555 1_555
O3A Ag4 1_555 1_555
O4A Ag1 1_555 1_555
O5C Ag4 1_555 1_555
O6A Ag4 1_555 1_555
O8_2 Ag2 1_555 1_555
O9_2 Ag2 1_555 1_555
O11B Ag3 1_555 1_555
O12C Ag4 1_555 1_555
Ag4 O4A 1_555 1_555
O4 Ag4A_2 1_555 1_555
O9 Ag2_2 1_555 1_555
O12 Ag4C 1_555 1_555
C1 C5 1_555 1_555
C4 C5 1_555 1_555
C6 C10 1_555 1_555
C8 C9 1_555 1_555
C9 C10 1_555 1_555
Ag3B O11B 1_555 1_555

#END
