
#######################################################################
#
#                 Cambridge Crystallographic Data Centre
#                                CCDC 
#
#######################################################################
#
# If this CIF has been generated from an entry in the Cambridge 
# Structural Database, then it will include bibliographic, chemical, 
# crystal, experimental, refinement or atomic coordinate data resulting 
# from the CCDC's data processing and validation procedures.
#
#######################################################################

data_XOTYEM
_symmetry_cell_setting           orthorhombic
_symmetry_space_group_name_H-M   'P 21 21 21'
_symmetry_Int_Tables_number      19
_space_group_name_Hall           'P 2ac 2ab'
loop_
_symmetry_equiv_pos_site_id
_symmetry_equiv_pos_as_xyz
1 x,y,z
2 1/2-x,-y,1/2+z
3 1/2+x,1/2-y,-z
4 -x,1/2+y,1/2-z
_cell_length_a                   8.3103(3)
_cell_length_b                   9.0566(5)
_cell_length_c                   20.1313(10)
_cell_angle_alpha                90
_cell_angle_beta                 90
_cell_angle_gamma                90
_cell_volume                     1515.14
loop_
_atom_site_label
_atom_site_type_symbol
_atom_site_fract_x
_atom_site_fract_y
_atom_site_fract_z
Cu1 Cu -0.07465(4) 0.02997(4) 0.993271(18)
O1 O 0.1062(2) 0.0119(3) 0.93552(10)
N1 N -0.2526(3) 0.0003(3) 1.06315(13)
N2 N 0.1914(3) 0.1822(3) 1.05266(13)
N3 N 0.0631(3) 0.1244(4) 1.06208(13)
N4 N 0.3157(3) 0.2397(4) 1.04728(16)
C1 C -0.1579(4) -0.1737(4) 0.88418(17)
C2 C 0.1092(3) -0.0439(4) 0.87603(15)
C3 C 0.3909(4) 0.0470(4) 0.86895(15)
H1 H 0.3805 0.0866 0.9124
N5 N -0.1995(3) -0.1116(3) 0.93961(14)
C4 C 0.2595(4) -0.0246(4) 0.83930(15)
C5 C 0.2755(4) -0.0832(4) 0.77412(16)
C6 C 0.5525(4) 0.0032(4) 0.77155(15)
H2 H 0.6524 0.0129 0.7490
C7 C 0.4258(4) -0.0670(4) 0.74116(15)
H3 H 0.4387 -0.1053 0.6975
C8 C 0.5347(4) 0.0605(4) 0.83567(16)
H4 H 0.6227 0.1091 0.8564
C9 C 0.0057(4) -0.1786(4) 0.77967(17)
H5 H -0.0810 -0.2291 0.7589
C10 C -0.2949(4) 0.1297(4) 1.10432(18)
H6 H -0.2010 0.1599 1.1305
H7 H -0.3834 0.1037 1.1343
H8 H -0.3283 0.2113 1.0755
C11 C -0.0148(4) -0.1284(4) 0.84713(17)
C12 C 0.1416(4) -0.1574(4) 0.74464(18)
H9 H 0.1486 -0.1919 0.7002
C13 C -0.2534(4) -0.3014(4) 0.85699(18)
H10 H -0.3021 -0.3564 0.8938
H11 H -0.1821 -0.3668 0.8318
H12 H -0.3384 -0.2640 0.8277
C14 C -0.3943(3) -0.0449(4) 1.02391(15)
H13 H -0.4393 0.0420 1.0006
H14 H -0.4782 -0.0845 1.0539
C15 C -0.3477(4) -0.1617(4) 0.97364(18)
H15 H -0.3281 -0.2571 0.9963
H16 H -0.4354 -0.1756 0.9410
C16 C -0.1996(4) -0.1189(4) 1.10728(18)
H17 H -0.1052 -0.0863 1.1325
H18 H -0.1714 -0.2059 1.0807
H19 H -0.2866 -0.1442 1.1381
Cu1B Cu 0.42535(4) 0.47003(4) 1.006729(18)
N4B N -0.1843(3) 0.2603(4) 0.95272(16)
loop_
_geom_bond_atom_site_label_1
_geom_bond_atom_site_label_2
_geom_bond_site_symmetry_1
_geom_bond_site_symmetry_2
Cu1 O1 1_555 1_555
O1 C2 1_555 1_555
N1 Cu1 1_555 1_555
N2 N3 1_555 1_555
N3 Cu1 1_555 1_555
N4 N2 1_555 1_555
C1 N5 1_555 1_555
C2 C4 1_555 1_555
C3 H1 1_555 1_555
N5 Cu1 1_555 1_555
C4 C3 1_555 1_555
C5 C4 1_555 1_555
C6 H2 1_555 1_555
C7 C5 1_555 1_555
H3 C7 1_555 1_555
C8 C3 1_555 1_555
H4 C8 1_555 1_555
C9 H5 1_555 1_555
C10 N1 1_555 1_555
H6 C10 1_555 1_555
H7 C10 1_555 1_555
H8 C10 1_555 1_555
C11 C1 1_555 1_555
C12 C5 1_555 1_555
H9 C12 1_555 1_555
C13 C1 1_555 1_555
H10 C13 1_555 1_555
H11 C13 1_555 1_555
H12 C13 1_555 1_555
C14 N1 1_555 1_555
H13 C14 1_555 1_555
H14 C14 1_555 1_555
C15 N5 1_555 1_555
H15 C15 1_555 1_555
H16 C15 1_555 1_555
C16 N1 1_555 1_555
H17 C16 1_555 1_555
H18 C16 1_555 1_555
H19 C16 1_555 1_555
Cu1B N4 1_555 1_555
N4B Cu1 1_555 1_555
C2 C11 1_555 1_555
C6 C7 1_555 1_555
C6 C8 1_555 1_555
C9 C11 1_555 1_555
C9 C12 1_555 1_555
C14 C15 1_555 1_555

#END
