
#######################################################################
#
#                 Cambridge Crystallographic Data Centre
#                                CCDC 
#
#######################################################################
#
# If this CIF has been generated from an entry in the Cambridge 
# Structural Database, then it will include bibliographic, chemical, 
# crystal, experimental, refinement or atomic coordinate data resulting 
# from the CCDC's data processing and validation procedures.
#
#######################################################################

data_XOVBIV
_symmetry_cell_setting           rhombohedral
_symmetry_space_group_name_H-M   'R -3'
_symmetry_Int_Tables_number      148
_space_group_name_Hall           '-R 3'
loop_
_symmetry_equiv_pos_site_id
_symmetry_equiv_pos_as_xyz
1 x,y,z
2 -y,x-y,z
3 -x+y,-x,z
4 2/3+x,1/3+y,1/3+z
5 2/3-y,1/3+x-y,1/3+z
6 2/3-x+y,1/3-x,1/3+z
7 1/3+x,2/3+y,2/3+z
8 1/3-y,2/3+x-y,2/3+z
9 1/3-x+y,2/3-x,2/3+z
10 -x,-y,-z
11 y,-x+y,-z
12 x-y,x,-z
13 1/3-x,2/3-y,2/3-z
14 1/3+y,2/3-x+y,2/3-z
15 1/3+x-y,2/3+x,2/3-z
16 2/3-x,1/3-y,1/3-z
17 2/3+y,1/3-x+y,1/3-z
18 2/3+x-y,1/3+x,1/3-z
_cell_length_a                   18.8897(3)
_cell_length_b                   18.8897(3)
_cell_length_c                   25.2441(4)
_cell_angle_alpha                90
_cell_angle_beta                 90
_cell_angle_gamma                120
_cell_volume                     7800.83
loop_
_atom_site_label
_atom_site_type_symbol
_atom_site_fract_x
_atom_site_fract_y
_atom_site_fract_z
Co1 Co 0.6667 0.3333 0.8333
N1 N 0.67497(15) 0.42828(15) 0.88358(10)
N2 N 0.62968(16) 0.49720(15) 0.92689(10)
N3 N 0.68963(16) 0.49911(17) 0.95844(11)
C1 C 0.62158(19) 0.45541(19) 0.88359(12)
H1 H 0.5833 0.4458 0.8562
C2 C 0.7144(2) 0.45726(19) 0.93037(13)
H2 H 0.7569 0.4479 0.9419
C3 C 0.5809(2) 0.5329(2) 0.94495(13)
H3 H 0.5469 0.5338 0.9154
H4 H 0.6174 0.5899 0.9567
C4 C 0.5266(2) 0.4832(2) 0.99032(12)
H5 H 0.5610 0.4832 1.0199
H6 H 0.4913 0.4260 0.9786
N1I N 0.32503(15) 0.57172(15) 1.11642(10)
N2I N 0.37032(16) 0.50280(15) 1.07311(10)
N3I N 0.31037(16) 0.50089(17) 1.04156(11)
C1I C 0.37842(19) 0.54459(19) 1.11641(12)
H1I H 0.4167 0.5542 1.1438
C2I C 0.2856(2) 0.54274(19) 1.06963(13)
H2I H 0.2431 0.5521 1.0581
C3I C 0.4191(2) 0.4671(2) 1.05505(13)
H3I H 0.4531 0.4662 1.0846
H4I H 0.3826 0.4101 1.0433
C4I C 0.4734(2) 0.5168(2) 1.00968(12)
H5I H 0.4390 0.5168 0.9801
H6I H 0.5087 0.5740 1.0214
N1A N 0.57172(15) 0.24669(21) 0.88358(10)
N2A N 0.50280(15) 0.13248(22) 0.92689(10)
N3A N 0.50089(17) 0.19052(23) 0.95844(11)
C1A C 0.54459(19) 0.16617(27) 0.88359(12)
H1A H 0.5542 0.1375 0.8562
C2A C 0.54274(19) 0.25714(28) 0.93037(13)
H2A H 0.5521 0.3090 0.9419
C3A C 0.4671(2) 0.0480(3) 0.94495(13)
H3A H 0.4662 0.0131 0.9154
H4A H 0.4101 0.0275 0.9567
C4A C 0.5168(2) 0.0434(3) 0.99032(12)
H5A H 0.5168 0.0778 1.0199
H6A H 0.5740 0.0653 0.9786
N1J N 0.42828(15) -0.24669(21) 1.11642(10)
N2J N 0.49720(15) -0.13248(22) 1.07311(10)
N3J N 0.49911(17) -0.19052(23) 1.04156(11)
C1J C 0.45541(19) -0.16617(27) 1.11641(12)
H1J H 0.4458 -0.1375 1.1438
C2J C 0.45726(19) -0.25714(28) 1.06963(13)
H2J H 0.4479 -0.3090 1.0581
C3J C 0.5329(2) -0.0480(3) 1.05505(13)
H3J H 0.5338 -0.0131 1.0846
H4J H 0.5899 -0.0275 1.0433
C4J C 0.4832(2) -0.0434(3) 1.00968(12)
H5J H 0.4832 -0.0778 0.9801
H6J H 0.4260 -0.0653 1.0214
N1B N 0.75331(21) 0.32503(15) 0.88358(10)
N2B N 0.86752(22) 0.37032(16) 0.92689(10)
N3B N 0.80948(23) 0.31037(16) 0.95844(11)
C1B C 0.83383(27) 0.37842(19) 0.88359(12)
H1B H 0.8625 0.4167 0.8562
C2B C 0.74286(28) 0.2856(2) 0.93037(13)
H2B H 0.6910 0.2431 0.9419
C3B C 0.9520(3) 0.4191(2) 0.94495(13)
H3B H 0.9869 0.4531 0.9154
H4B H 0.9725 0.3826 0.9567
C4B C 0.9566(3) 0.4734(2) 0.99032(12)
H5B H 0.9222 0.4390 1.0199
H6B H 0.9347 0.5087 0.9786
N1K N 1.24669(21) 0.67497(15) 1.11642(10)
N2K N 1.13248(22) 0.62968(16) 1.07311(10)
N3K N 1.19052(23) 0.68963(16) 1.04156(11)
C1K C 1.16617(27) 0.62158(19) 1.11641(12)
H1K H 1.1375 0.5833 1.1438
C2K C 1.25714(28) 0.7144(2) 1.06963(13)
H2K H 1.3090 0.7569 1.0581
C3K C 1.0480(3) 0.5809(2) 1.05505(13)
H3K H 1.0131 0.5469 1.0846
H4K H 1.0275 0.6174 1.0433
C4K C 1.0434(3) 0.5266(2) 1.00968(12)
H5K H 1.0778 0.5610 0.9801
H6K H 1.0653 0.4913 1.0214
Co1C Co 0.3334 -0.3334 1.1666
Co1C_2 Co 0.3334 0.6666 1.1666
Co1C_3 Co 1.3334 0.6666 1.1666
N1L N 0.65836(15) 0.23839(15) 0.78309(10)
N1M N 0.76161(15) 0.41998(21) 0.78309(10)
N1N N 0.58002(21) 0.34164(15) 0.78309(10)
Co2 Co 0.0000 1.0000 1.16147(2)
N4 N 0.03514(14) 0.93004(14) 1.11134(9)
N5 N 0.03338(16) 0.85177(16) 1.04319(10)
N6 N 0.10074(15) 0.87553(15) 1.07394(9)
N7 N 0.24953(15) 0.81327(15) 0.90476(9)
N8 N 0.32030(16) 0.84142(17) 0.93216(10)
N9 N 0.30296(14) 0.74115(14) 0.87636(9)
C5 C 0.10044(18) 0.92088(18) 1.11359(11)
H7 H 0.1414 0.9439 1.1402
C6 C -0.00393(18) 0.88602(18) 1.06704(11)
H8 H -0.0538 0.8806 1.0545
C7 C 0.1584(2) 0.8460(2) 1.06449(12)
H9 H 0.1279 0.7855 1.0658
H10 H 0.1989 0.8656 1.0936
C8 C 0.20363(19) 0.87272(19) 1.01216(11)
H11 H 0.2521 0.8656 1.0138
H12 H 0.2233 0.9316 1.0068
C9 C 0.15109(19) 0.82502(19) 0.96490(11)
H13 H 0.1294 0.7660 0.9712
H14 H 0.1039 0.8340 0.9626
C10 C 0.1958(2) 0.84796(19) 0.91219(11)
H15 H 0.1551 0.8287 0.8832
H16 H 0.2289 0.9083 0.9097
C11 C 0.24014(18) 0.75413(18) 0.87209(10)
H17 H 0.1950 0.7252 0.8489
C12 C 0.34976(19) 0.79635(19) 0.91399(11)
H18 H 0.3999 0.8018 0.9261
N4A N 0.06996(14) 1.10510(20) 1.11134(9)
N5A N 0.14823(16) 1.18161(23) 1.04319(10)
N6A N 0.12447(15) 1.22521(21) 1.07394(9)
N7A N 0.18673(15) 1.43626(21) 0.90476(9)
N8A N 0.15858(17) 1.47888(23) 0.93216(10)
N9A N 0.25885(14) 1.56181(20) 0.87636(9)
C5A C 0.07912(18) 1.17956(25) 1.11359(11)
H7A H 0.0561 1.1975 1.1402
C6A C 0.11398(18) 1.11005(25) 1.06704(11)
H8A H 0.1194 1.0656 1.0545
C7A C 0.1540(2) 1.3124(3) 1.06449(12)
H9A H 0.2145 1.3424 1.0658
H10A H 0.1344 1.3333 1.0936
C8A C 0.12728(19) 1.33091(27) 1.01216(11)
H11A H 0.1344 1.3865 1.0138
H12A H 0.0684 1.2917 1.0068
C9A C 0.17498(19) 1.32607(27) 0.96490(11)
H13A H 0.2340 1.3634 0.9712
H14A H 0.1660 1.2699 0.9626
C10A C 0.15204(19) 1.34784(28) 0.91219(11)
H15A H 0.1713 1.3264 0.8832
H16A H 0.0917 1.3206 0.9097
C11A C 0.24587(18) 1.48601(25) 0.87209(10)
H17A H 0.2748 1.4698 0.8489
C12A C 0.20365(19) 1.55341(27) 0.91399(11)
H18A H 0.1982 1.5981 0.9261
N4B N -0.10510(20) 0.96486(14) 1.11134(9)
N5B N -0.18161(23) 0.96662(16) 1.04319(10)
N6B N -0.22521(21) 0.89926(15) 1.07394(9)
N7B N -0.43626(21) 0.75047(15) 0.90476(9)
N8B N -0.47888(23) 0.67970(16) 0.93216(10)
N9B N -0.56181(20) 0.69704(14) 0.87636(9)
C5B C -0.17956(25) 0.89956(18) 1.11359(11)
H7B H -0.1975 0.8586 1.1402
C6B C -0.11005(25) 1.00393(18) 1.06704(11)
H8B H -0.0656 1.0538 1.0545
C7B C -0.3124(3) 0.8416(2) 1.06449(12)
H9B H -0.3424 0.8721 1.0658
H10B H -0.3333 0.8011 1.0936
C8B C -0.33091(27) 0.79637(19) 1.01216(11)
H11B H -0.3865 0.7479 1.0138
H12B H -0.2917 0.7767 1.0068
C9B C -0.32607(27) 0.84891(19) 0.96490(11)
H13B H -0.3634 0.8706 0.9712
H14B H -0.2699 0.8961 0.9626
C10B C -0.34784(28) 0.8042(2) 0.91219(11)
H15B H -0.3264 0.8449 0.8832
H16B H -0.3206 0.7711 0.9097
C11B C -0.48601(25) 0.75986(18) 0.87209(10)
H17B H -0.4698 0.8050 0.8489
C12B C -0.55341(27) 0.65024(19) 0.91399(11)
H18B H -0.5981 0.6001 0.9261
Co2F Co -0.6667 0.6667 0.82814(2)
Co2F_2 Co 0.3333 0.6667 0.82814(2)
Co2F_3 Co 0.3333 1.6667 0.82814(2)
N9C N -0.03037(14) 1.07448(14) 1.20969(9)
N9D N -0.07448(14) 0.89514(20) 1.20969(9)
N9E N 0.10486(20) 1.03037(14) 1.20969(9)
Cl1 Cl 0.00018(5) 0.63680(5) 0.86249(3)
O1 O 0.0457(3) 0.6384(2) 0.90617(17)
O2 O 0.0398(3) 0.6279(3) 0.81932(18)
O3 O 0.0061(2) 0.71396(19) 0.86025(15)
O4 O -0.08062(17) 0.57186(18) 0.86987(15)
loop_
_geom_bond_atom_site_label_1
_geom_bond_atom_site_label_2
_geom_bond_site_symmetry_1
_geom_bond_site_symmetry_2
Co1 N1 1_555 1_555
N1 C1 1_555 1_555
N2 N3 1_555 1_555
N3 C2 1_555 1_555
C1 N2 1_555 1_555
H1 C1 1_555 1_555
C2 N1 1_555 1_555
H2 C2 1_555 1_555
C3 N2 1_555 1_555
H3 C3 1_555 1_555
H4 C3 1_555 1_555
C4 C3 1_555 1_555
H5 C4 1_555 1_555
H6 C4 1_555 1_555
Co2 N4 1_555 1_555
N4 C5 1_555 1_555
N5 N6 1_555 1_555
N6 C5 1_555 1_555
N7 N8 1_555 1_555
N8 C12 1_555 1_555
N9 C11 1_555 1_555
C5 H7 1_555 1_555
C6 N4 1_555 1_555
H8 C6 1_555 1_555
C7 N6 1_555 1_555
H9 C7 1_555 1_555
H10 C7 1_555 1_555
C8 C7 1_555 1_555
H11 C8 1_555 1_555
H12 C8 1_555 1_555
C9 C8 1_555 1_555
H13 C9 1_555 1_555
H14 C9 1_555 1_555
C10 N7 1_555 1_555
H15 C10 1_555 1_555
H16 C10 1_555 1_555
C11 N7 1_555 1_555
H17 C11 1_555 1_555
C12 N9 1_555 1_555
H18 C12 1_555 1_555
Cl1 O1 1_555 1_555
O2 Cl1 1_555 1_555
O3 Cl1 1_555 1_555
O4 Cl1 1_555 1_555
N1I C1I 1_555 1_555
N2I N3I 1_555 1_555
N3I C2I 1_555 1_555
C1I N2I 1_555 1_555
H1I C1I 1_555 1_555
C2I N1I 1_555 1_555
H2I C2I 1_555 1_555
C3I N2I 1_555 1_555
H3I C3I 1_555 1_555
H4I C3I 1_555 1_555
C4I C4 1_555 1_555
H5I C4I 1_555 1_555
H6I C4I 1_555 1_555
N1A Co1 1_555 1_555
N2A N3A 1_555 1_555
N3A C2A 1_555 1_555
C1A N1A 1_555 1_555
H1A C1A 1_555 1_555
C2A N1A 1_555 1_555
H2A C2A 1_555 1_555
C3A N2A 1_555 1_555
H3A C3A 1_555 1_555
H4A C3A 1_555 1_555
C4A C3A 1_555 1_555
H5A C4A 1_555 1_555
H6A C4A 1_555 1_555
N1J C1J 1_555 1_555
N2J N3J 1_555 1_555
N3J C2J 1_555 1_555
C1J N2J 1_555 1_555
H1J C1J 1_555 1_555
C2J N1J 1_555 1_555
H2J C2J 1_555 1_555
C3J N2J 1_555 1_555
H3J C3J 1_555 1_555
H4J C3J 1_555 1_555
C4J C4A 1_555 1_555
H5J C4J 1_555 1_555
H6J C4J 1_555 1_555
N1B Co1 1_555 1_555
N2B N3B 1_555 1_555
N3B C2B 1_555 1_555
C1B N1B 1_555 1_555
H1B C1B 1_555 1_555
C2B N1B 1_555 1_555
H2B C2B 1_555 1_555
C3B N2B 1_555 1_555
H3B C3B 1_555 1_555
H4B C3B 1_555 1_555
C4B C3B 1_555 1_555
H5B C4B 1_555 1_555
H6B C4B 1_555 1_555
N1K C1K 1_555 1_555
N2K N3K 1_555 1_555
N3K C2K 1_555 1_555
C1K N2K 1_555 1_555
H1K C1K 1_555 1_555
C2K N1K 1_555 1_555
H2K C2K 1_555 1_555
C3K N2K 1_555 1_555
H3K C3K 1_555 1_555
H4K C3K 1_555 1_555
C4K C4B 1_555 1_555
H5K C4K 1_555 1_555
H6K C4K 1_555 1_555
Co1C N1J 1_555 1_555
Co1C_2 N1I 1_555 1_555
Co1C_3 N1K 1_555 1_555
N1L Co1 1_555 1_555
N1M Co1 1_555 1_555
N1N Co1 1_555 1_555
N4A Co2 1_555 1_555
N5A N6A 1_555 1_555
N6A C5A 1_555 1_555
N7A N8A 1_555 1_555
N8A C12A 1_555 1_555
N9A C11A 1_555 1_555
C5A N4A 1_555 1_555
H7A C5A 1_555 1_555
C6A N4A 1_555 1_555
H8A C6A 1_555 1_555
C7A N6A 1_555 1_555
H9A C7A 1_555 1_555
H10A C7A 1_555 1_555
C8A C7A 1_555 1_555
H11A C8A 1_555 1_555
H12A C8A 1_555 1_555
C9A C8A 1_555 1_555
H13A C9A 1_555 1_555
H14A C9A 1_555 1_555
C10A N7A 1_555 1_555
H15A C10A 1_555 1_555
H16A C10A 1_555 1_555
C11A N7A 1_555 1_555
H17A C11A 1_555 1_555
C12A N9A 1_555 1_555
H18A C12A 1_555 1_555
N4B Co2 1_555 1_555
N5B N6B 1_555 1_555
N6B C5B 1_555 1_555
N7B N8B 1_555 1_555
N8B C12B 1_555 1_555
N9B C11B 1_555 1_555
C5B N4B 1_555 1_555
H7B C5B 1_555 1_555
C6B N4B 1_555 1_555
H8B C6B 1_555 1_555
C7B N6B 1_555 1_555
H9B C7B 1_555 1_555
H10B C7B 1_555 1_555
C8B C7B 1_555 1_555
H11B C8B 1_555 1_555
H12B C8B 1_555 1_555
C9B C8B 1_555 1_555
H13B C9B 1_555 1_555
H14B C9B 1_555 1_555
C10B N7B 1_555 1_555
H15B C10B 1_555 1_555
H16B C10B 1_555 1_555
C11B N7B 1_555 1_555
H17B C11B 1_555 1_555
C12B N9B 1_555 1_555
H18B C12B 1_555 1_555
Co2F N9B 1_555 1_555
Co2F_2 N9 1_555 1_555
Co2F_3 N9A 1_555 1_555
N9C Co2 1_555 1_555
N9D Co2 1_555 1_555
N9E Co2 1_555 1_555
N5 C6 1_555 1_555
C9 C10 1_555 1_555
C3I C4I 1_555 1_555
N2A C1A 1_555 1_555
C3J C4J 1_555 1_555
N2B C1B 1_555 1_555
C3K C4K 1_555 1_555
N5A C6A 1_555 1_555
C9A C10A 1_555 1_555
N5B C6B 1_555 1_555
C9B C10B 1_555 1_555

#END
