
#######################################################################
#
#                 Cambridge Crystallographic Data Centre
#                                CCDC 
#
#######################################################################
#
# If this CIF has been generated from an entry in the Cambridge 
# Structural Database, then it will include bibliographic, chemical, 
# crystal, experimental, refinement or atomic coordinate data resulting 
# from the CCDC's data processing and validation procedures.
#
#######################################################################

data_XOVFOF
_symmetry_cell_setting           orthorhombic
_symmetry_space_group_name_H-M   'P b c m'
_symmetry_Int_Tables_number      57
_space_group_name_Hall           '-P 2c 2b'
loop_
_symmetry_equiv_pos_site_id
_symmetry_equiv_pos_as_xyz
1 x,y,z
2 -x,-y,1/2+z
3 -x,1/2+y,1/2-z
4 x,1/2-y,-z
5 -x,-y,-z
6 x,y,1/2-z
7 x,1/2-y,1/2+z
8 -x,1/2+y,z
_cell_length_a                   6.8232(4)
_cell_length_b                   13.2372(11)
_cell_length_c                   23.2008(17)
_cell_angle_alpha                90
_cell_angle_beta                 90
_cell_angle_gamma                90
_cell_volume                     2095.5
loop_
_atom_site_label
_atom_site_type_symbol
_atom_site_fract_x
_atom_site_fract_y
_atom_site_fract_z
Cd1 Cd 0.41515(5) 0.08686(3) 0.2500
Cd2 Cd 0.12097(6) 0.40945(3) 0.2500
N1 N 0.4170(5) 0.1038(2) 0.34642(14)
N2 N 0.3204(5) 0.1512(3) 0.43456(15)
N3 N 0.5108(5) 0.1191(2) 0.43522(13)
O1 O 0.9068(4) 0.1614(3) 0.68467(13)
O2 O 1.1239(5) 0.0681(3) 0.64146(14)
O3 O 0.3638(5) 0.2653(3) 0.2500
O4 O 0.4642(6) 0.4212(3) 0.2500
O5 O 0.0807(5) 0.0624(3) 0.2500
O6 O -0.2326(6) 0.0921(3) 0.2500
C1 C 0.9693(6) 0.1178(3) 0.64047(18)
C2 C 0.8487(6) 0.1221(3) 0.58669(18)
C3 C 0.6480(6) 0.1336(3) 0.58935(18)
H1 H 0.5879 0.1434 0.6249
C4 C 0.5344(6) 0.1310(3) 0.53980(17)
H2 H 0.3987 0.1361 0.5422
C5 C 0.6249(6) 0.1206(3) 0.48695(17)
C6 C 0.8252(6) 0.1133(4) 0.48323(19)
H3 H 0.8858 0.1087 0.4474
C7 C 0.9358(6) 0.1128(4) 0.53297(19)
H4 H 1.0713 0.1062 0.5304
C8 C 0.5631(6) 0.0915(3) 0.38228(17)
H5 H 0.6861 0.0670 0.3722
C9 C 0.2708(6) 0.1410(4) 0.38035(19)
H6 H 0.1473 0.1577 0.3663
C10 C 0.4976(9) 0.3287(5) 0.2500
H7 H 0.6269 0.3065 0.2500
C11 C -0.0622(9) 0.1218(5) 0.2500
H8 H -0.0383 0.1910 0.2500
N1E N 0.4170(5) 0.1038(2) 0.15358(14)
N2E N 0.3204(5) 0.1512(3) 0.06544(15)
N3E N 0.5108(5) 0.1191(2) 0.06478(13)
O1E O 0.9068(4) 0.1614(3) -0.18467(13)
O2E O 1.1239(5) 0.0681(3) -0.14146(14)
C1E C 0.9693(6) 0.1178(3) -0.14047(18)
C2E C 0.8487(6) 0.1221(3) -0.08669(18)
C3E C 0.6480(6) 0.1336(3) -0.08935(18)
H1E H 0.5879 0.1434 -0.1249
C4E C 0.5344(6) 0.1310(3) -0.03980(17)
H2E H 0.3987 0.1361 -0.0422
C5E C 0.6249(6) 0.1206(3) 0.01305(17)
C6E C 0.8252(6) 0.1133(4) 0.01677(19)
H3E H 0.8858 0.1087 0.0526
C7E C 0.9358(6) 0.1128(4) -0.03297(19)
H4E H 1.0713 0.1062 -0.0304
C8E C 0.5631(6) 0.0915(3) 0.11772(17)
H5E H 0.6861 0.0670 0.1278
C9E C 0.2708(6) 0.1410(4) 0.11965(19)
H6E H 0.1473 0.1577 0.1337
Cd1_2 Cd -0.58485(5) 0.08686(3) 0.2500
Cd1B Cd 0.58485(5) 0.58686(3) 0.2500
Cd2B Cd -0.12097(6) -0.09055(3) 0.2500
Cd2C Cd 1.12097(6) 0.09055(3) -0.2500
Cd2C_2 Cd 1.12097(6) 0.09055(3) 0.7500
O1C O -0.0932(4) 0.3386(3) 0.31533(13)
O1F O -0.0932(4) 0.3386(3) 0.18467(13)
O2C O 0.1239(5) 0.4319(3) 0.35854(14)
O2F O 0.1239(5) 0.4319(3) 0.14146(14)
O4B O 0.5358(6) -0.0788(3) 0.2500
O5B O -0.0807(5) 0.5624(3) 0.2500
O6_2 O 0.7674(6) 0.0921(3) 0.2500
O6B O 0.2326(6) 0.5921(3) 0.2500
loop_
_geom_bond_atom_site_label_1
_geom_bond_atom_site_label_2
_geom_bond_site_symmetry_1
_geom_bond_site_symmetry_2
Cd1 N1 1_555 1_555
Cd2 O3 1_555 1_555
N1 C8 1_555 1_555
N2 N3 1_555 1_555
N3 C5 1_555 1_555
O1 C1 1_555 1_555
O2 C1 1_555 1_555
O3 Cd1 1_555 1_555
O4 Cd2 1_555 1_555
O5 Cd1 1_555 1_555
O6 C11 1_555 1_555
C1 C2 1_555 1_555
C2 C3 1_555 1_555
C3 H1 1_555 1_555
C4 C3 1_555 1_555
H2 C4 1_555 1_555
C5 C4 1_555 1_555
C6 C5 1_555 1_555
H3 C6 1_555 1_555
C7 C2 1_555 1_555
H4 C7 1_555 1_555
C8 N3 1_555 1_555
H5 C8 1_555 1_555
C9 N1 1_555 1_555
H6 C9 1_555 1_555
C10 O3 1_555 1_555
H7 C10 1_555 1_555
C11 O5 1_555 1_555
H8 C11 1_555 1_555
N1E Cd1 1_555 1_555
N2E N3E 1_555 1_555
N3E C5E 1_555 1_555
O1E C1E 1_555 1_555
O2E C1E 1_555 1_555
C1E C2E 1_555 1_555
C2E C3E 1_555 1_555
C3E H1E 1_555 1_555
C4E C3E 1_555 1_555
H2E C4E 1_555 1_555
C5E C4E 1_555 1_555
C6E C5E 1_555 1_555
H3E C6E 1_555 1_555
C7E C2E 1_555 1_555
H4E C7E 1_555 1_555
C8E N1E 1_555 1_555
H5E C8E 1_555 1_555
C9E N1E 1_555 1_555
H6E C9E 1_555 1_555
Cd1_2 O6 1_555 1_555
Cd1B O4 1_555 1_555
Cd2B O5 1_555 1_555
Cd2C O1E 1_555 1_555
Cd2C_2 O1 1_555 1_555
O1C Cd2 1_555 1_555
O1F Cd2 1_555 1_555
O2C Cd2 1_555 1_555
O2F Cd2 1_555 1_555
O4B Cd1 1_555 1_555
O5B Cd2 1_555 1_555
O6_2 Cd1 1_555 1_555
O6B Cd2 1_555 1_555
N2 C9 1_555 1_555
O2 Cd2C_2 1_555 1_555
O4 C10 1_555 1_555
O6 Cd2B 1_555 1_555
C6 C7 1_555 1_555
N2E C9E 1_555 1_555
N3E C8E 1_555 1_555
O2E Cd2C 1_555 1_555
C6E C7E 1_555 1_555
Cd1B O6B 1_555 1_555

#END
