
#######################################################################
#
#                 Cambridge Crystallographic Data Centre
#                                CCDC 
#
#######################################################################
#
# If this CIF has been generated from an entry in the Cambridge 
# Structural Database, then it will include bibliographic, chemical, 
# crystal, experimental, refinement or atomic coordinate data resulting 
# from the CCDC's data processing and validation procedures.
#
#######################################################################

data_XOVNUR
_symmetry_cell_setting           monoclinic
_symmetry_space_group_name_H-M   'P 21/n'
_symmetry_Int_Tables_number      14
_space_group_name_Hall           '-P 2yn'
loop_
_symmetry_equiv_pos_site_id
_symmetry_equiv_pos_as_xyz
1 x,y,z
2 1/2+x,1/2-y,1/2+z
3 -x,-y,-z
4 1/2-x,1/2+y,1/2-z
_cell_length_a                   11.095(2)
_cell_length_b                   10.1990(10)
_cell_length_c                   21.221(4)
_cell_angle_alpha                90
_cell_angle_beta                 101.260(10)
_cell_angle_gamma                90
_cell_volume                     2355.1
loop_
_atom_site_label
_atom_site_type_symbol
_atom_site_fract_x
_atom_site_fract_y
_atom_site_fract_z
Cu1 Cu 0.14416(3) 0.93343(3) 0.013205(18)
N1 N 0.2615(2) 0.8452(2) -0.03516(12)
N2 N 0.2313(2) 1.0959(2) -0.01112(13)
C1 C 0.2754(3) 0.7180(3) -0.04576(17)
H1 H 0.2250 0.6583 -0.0301
C2 C 0.3625(3) 0.6705(4) -0.07942(18)
H2 H 0.3698 0.5809 -0.0858
C3 C 0.4366(3) 0.7563(4) -0.10277(17)
H3 H 0.4941 0.7256 -0.1258
C4 C 0.4264(3) 0.8913(4) -0.09211(15)
C5 C 0.5009(3) 0.9903(4) -0.11307(17)
H4 H 0.5606 0.9658 -0.1361
C6 C 0.4869(3) 1.1173(4) -0.10045(18)
H5 H 0.5371 1.1790 -0.1147
C7 C 0.3962(3) 1.1602(3) -0.06539(16)
C8 C 0.3783(3) 1.2912(4) -0.04901(18)
H6 H 0.4266 1.3574 -0.0612
C9 C 0.2897(3) 1.3201(3) -0.01526(18)
H7 H 0.2776 1.4065 -0.0039
C10 C 0.2166(3) 1.2200(3) 0.00260(17)
H8 H 0.1554 1.2422 0.0250
C11 C 0.3204(2) 1.0663(3) -0.04485(13)
C12 C 0.3361(3) 0.9302(3) -0.05789(14)
O1 O 0.0749(2) 0.7682(2) 0.03478(12)
O2 O 0.2396(2) 0.7363(3) 0.11077(14)
C13 C 0.1333(3) 0.7088(3) 0.08416(18)
C14 C 0.0611(4) 0.6021(4) 0.1106(2)
H9 H 0.0081 0.5569 0.0756
H10 H 0.1171 0.5386 0.1346
C15 C -0.0155(3) 0.6658(4) 0.15424(18)
H11 H -0.0652 0.7344 0.1304
H12 H 0.0395 0.7070 0.1899
C16 C -0.0998(3) 0.5718(4) 0.18103(19)
H13 H -0.1485 0.5225 0.1460
H14 H -0.0504 0.5101 0.2099
C17 C -0.1845(3) 0.6444(4) 0.21676(18)
H15 H -0.2304 0.7084 0.1878
H16 H -0.1344 0.6923 0.2519
C18 C -0.2754(3) 0.5610(4) 0.24411(19)
H17 H -0.3240 0.5097 0.2098
H18 H -0.2306 0.5004 0.2754
C19 C -0.3595(3) 0.6417(4) 0.27545(18)
H19 H -0.4104 0.6949 0.2427
H20 H -0.3100 0.7010 0.3057
C20 C -0.4435(3) 0.5646(4) 0.31104(17)
H21 H -0.4981 0.5097 0.2808
H22 H -0.3941 0.5078 0.3426
C21 C -0.5196(3) 0.6561(4) 0.34462(18)
H23 H -0.4649 0.7144 0.3729
H24 H -0.5721 0.7094 0.3127
C22 C -0.5985(3) 0.5814(3) 0.38343(15)
O3 O -0.54279(18) 0.5295(2) 0.43614(10)
O4 O -0.7114(2) 0.5734(2) 0.36483(12)
O3A O -0.04279(18) 0.9705(2) -0.06386(10)
O3C O 0.04279(18) 1.0295(2) 0.06386(10)
Cu1A Cu -0.35584(3) 0.56657(3) 0.513205(18)
Cu1C Cu -0.64416(3) 0.43343(3) 0.486795(18)
O5 O -0.7998(4) 0.3789(6) 0.2729(2)
H25 H -0.801(6) 0.334(7) 0.306(3)
H26 H -0.776(6) 0.442(6) 0.282(3)
O6 O -0.8286(4) 0.8160(4) 0.3235(2)
H27 H -0.794(5) 0.838(5) 0.292(3)
H28 H -0.799(6) 0.760(6) 0.334(3)
O7 O 0.4118(4) 0.5309(4) 0.1107(3)
H29 H 0.387(4) 0.475(5) 0.129(2)
H30 H 0.370(5) 0.580(5) 0.112(3)
loop_
_geom_bond_atom_site_label_1
_geom_bond_atom_site_label_2
_geom_bond_site_symmetry_1
_geom_bond_site_symmetry_2
Cu1 N1 1_555 1_555
N1 C1 1_555 1_555
N2 Cu1 1_555 1_555
C1 H1 1_555 1_555
C2 C1 1_555 1_555
H2 C2 1_555 1_555
C3 C2 1_555 1_555
H3 C3 1_555 1_555
C4 C3 1_555 1_555
C5 C4 1_555 1_555
H4 C5 1_555 1_555
C6 C5 1_555 1_555
H5 C6 1_555 1_555
C7 C6 1_555 1_555
C8 C7 1_555 1_555
H6 C8 1_555 1_555
C9 C8 1_555 1_555
H7 C9 1_555 1_555
C10 N2 1_555 1_555
H8 C10 1_555 1_555
C11 N2 1_555 1_555
C12 N1 1_555 1_555
O1 Cu1 1_555 1_555
O2 C13 1_555 1_555
C13 O1 1_555 1_555
C14 C13 1_555 1_555
H9 C14 1_555 1_555
H10 C14 1_555 1_555
C15 C14 1_555 1_555
H11 C15 1_555 1_555
H12 C15 1_555 1_555
C16 C15 1_555 1_555
H13 C16 1_555 1_555
H14 C16 1_555 1_555
C17 C16 1_555 1_555
H15 C17 1_555 1_555
H16 C17 1_555 1_555
C18 C17 1_555 1_555
H17 C18 1_555 1_555
H18 C18 1_555 1_555
C19 C18 1_555 1_555
H19 C19 1_555 1_555
H20 C19 1_555 1_555
C20 C19 1_555 1_555
H21 C20 1_555 1_555
H22 C20 1_555 1_555
C21 C20 1_555 1_555
H23 C21 1_555 1_555
H24 C21 1_555 1_555
C22 C21 1_555 1_555
O3 C22 1_555 1_555
O4 C22 1_555 1_555
O5 H25 1_555 1_555
O6 H27 1_555 1_555
O7 H29 1_555 1_555
H26 O5 1_555 1_555
H28 O6 1_555 1_555
H30 O7 1_555 1_555
O3A Cu1 1_555 1_555
O3C Cu1 1_555 1_555
Cu1A O3 1_555 1_555
Cu1C O3 1_555 1_555
C4 C12 1_555 1_555
C7 C11 1_555 1_555
C9 C10 1_555 1_555
C11 C12 1_555 1_555

#END
