
#######################################################################
#
#                 Cambridge Crystallographic Data Centre
#                                CCDC 
#
#######################################################################
#
# If this CIF has been generated from an entry in the Cambridge 
# Structural Database, then it will include bibliographic, chemical, 
# crystal, experimental, refinement or atomic coordinate data resulting 
# from the CCDC's data processing and validation procedures.
#
#######################################################################

data_XOVPEE
_symmetry_cell_setting           orthorhombic
_symmetry_space_group_name_H-M   'P n m a'
_symmetry_Int_Tables_number      62
_space_group_name_Hall           '-P 2ac 2n'
loop_
_symmetry_equiv_pos_site_id
_symmetry_equiv_pos_as_xyz
1 x,y,z
2 1/2-x,-y,1/2+z
3 -x,1/2+y,-z
4 1/2+x,1/2-y,1/2-z
5 -x,-y,-z
6 1/2+x,y,1/2-z
7 x,1/2-y,z
8 1/2-x,1/2+y,1/2+z
_cell_length_a                   6.8436(14)
_cell_length_b                   7.0732(14)
_cell_length_c                   16.600(3)
_cell_angle_alpha                90
_cell_angle_beta                 90
_cell_angle_gamma                90
_cell_volume                     803.542
loop_
_atom_site_label
_atom_site_type_symbol
_atom_site_fract_x
_atom_site_fract_y
_atom_site_fract_z
Cu1 Cu 0.5000 0.0000 0.5000
O1 O 0.7377(9) 0.0919(9) 0.5521(4)
N1 N 0.3609(19) 0.2500 0.3876(8)
N2 N 0.4538(17) 0.2500 0.4502(8)
N3 N 0.281(2) 0.2500 0.3252(8)
C1 C 0.8077(19) 0.2500 0.5679(8)
C2 C 1.0055(15) 0.2500 0.6056(7)
C3 C 1.2804(13) 0.0818(17) 0.6657(6)
H1 H 1.3417 -0.0311 0.6793
C4 C 1.367(2) 0.2500 0.6851(8)
H2 H 1.4861 0.2500 0.7120
C5 C 1.1007(13) 0.0778(15) 0.6255(6)
H3 H 1.0438 -0.0372 0.6118
Cu1B Cu 0.5000 0.5000 0.5000
O1F O 0.7377(9) 0.4081(9) 0.5521(4)
O1D O 0.2623(9) -0.0919(9) 0.4479(4)
N2B N 0.5462(17) -0.2500 0.5498(8)
C3F C 1.2804(13) 0.4182(17) 0.6657(6)
H1F H 1.3417 0.5311 0.6793
C5F C 1.1007(13) 0.4222(15) 0.6255(6)
H3F H 1.0438 0.5372 0.6118
loop_
_geom_bond_atom_site_label_1
_geom_bond_atom_site_label_2
_geom_bond_site_symmetry_1
_geom_bond_site_symmetry_2
Cu1 O1 1_555 1_555
O1 C1 1_555 1_555
N1 N2 1_555 1_555
N2 Cu1 1_555 1_555
N3 N1 1_555 1_555
C1 C2 1_555 1_555
C2 C5 1_555 1_555
C3 H1 1_555 1_555
C4 C3 1_555 1_555
H2 C4 1_555 1_555
C5 C3 1_555 1_555
H3 C5 1_555 1_555
Cu1B N2 1_555 1_555
O1F C1 1_555 1_555
O1D Cu1 1_555 1_555
N2B Cu1 1_555 1_555
C3F C4 1_555 1_555
H1F C3F 1_555 1_555
C5F C2 1_555 1_555
H3F C5F 1_555 1_555
Cu1B O1F 1_555 1_555
C3F C5F 1_555 1_555

#END
