
#######################################################################
#
#                 Cambridge Crystallographic Data Centre
#                                CCDC 
#
#######################################################################
#
# If this CIF has been generated from an entry in the Cambridge 
# Structural Database, then it will include bibliographic, chemical, 
# crystal, experimental, refinement or atomic coordinate data resulting 
# from the CCDC's data processing and validation procedures.
#
#######################################################################

data_XOVPOO
_symmetry_cell_setting           monoclinic
_symmetry_space_group_name_H-M   'P 21/c'
_symmetry_Int_Tables_number      14
_space_group_name_Hall           '-P 2ybc'
loop_
_symmetry_equiv_pos_site_id
_symmetry_equiv_pos_as_xyz
1 x,y,z
2 -x,1/2+y,1/2-z
3 -x,-y,-z
4 x,1/2-y,1/2+z
_cell_length_a                   15.912(12)
_cell_length_b                   6.799(5)
_cell_length_c                   9.948(7)
_cell_angle_alpha                90
_cell_angle_beta                 101.981(11)
_cell_angle_gamma                90
_cell_volume                     1052.79
loop_
_atom_site_label
_atom_site_type_symbol
_atom_site_fract_x
_atom_site_fract_y
_atom_site_fract_z
Cu1 Cu 0.99284(9) 0.03162(19) 0.75370(15)
O1 O 1.0886(7) -0.0636(14) 0.8905(10)
O2 O 1.1143(6) -0.3823(14) 0.8605(9)
N1 N 0.9933(7) -0.2116(14) 0.6431(10)
N2 N 0.9506(8) -0.2132(18) 0.5258(12)
N3 N 0.9142(9) -0.214(2) 0.4114(12)
C1 C 1.1374(8) -0.211(2) 0.9062(13)
C2 C 1.2787(9) -0.016(2) 0.9718(14)
C3 C 1.3648(8) -0.009(2) 1.0516(15)
C4 C 1.3033(11) 0.293(2) 0.8609(18)
H1 H 1.2839 0.3900 0.7957
C5 C 1.2279(9) -0.187(2) 0.9874(14)
C6 C 1.2498(9) 0.141(2) 0.8797(16)
H2 H 1.1933 0.1410 0.8307
C7 C 1.2621(10) -0.336(2) 1.0787(16)
H3 H 1.2297 -0.4476 1.0867
C8 C 1.3965(9) -0.160(3) 1.1454(15)
H4 H 1.4520 -0.1515 1.1979
C9 C 1.3465(10) -0.318(3) 1.1598(17)
H5 H 1.3679 -0.4150 1.2235
C10 C 1.4176(10) 0.157(3) 1.0362(19)
H6 H 1.4724 0.1666 1.0910
C11 C 1.3887(13) 0.302(3) 0.942(2)
H7 H 1.4246 0.4062 0.9310
Cu1A Cu 1.00716(9) -0.46838(19) 0.74630(15)
Cu1B Cu 1.00716(9) -0.03162(19) 0.24630(15)
O2A O 0.8857(6) 0.1177(14) 0.6395(9)
N1A N 1.0067(7) 0.2884(14) 0.8569(10)
N3B N 1.0858(9) 0.214(2) 0.5886(12)
loop_
_geom_bond_atom_site_label_1
_geom_bond_atom_site_label_2
_geom_bond_site_symmetry_1
_geom_bond_site_symmetry_2
Cu1 O1 1_555 1_555
O1 C1 1_555 1_555
O2 C1 1_555 1_555
N1 Cu1 1_555 1_555
N2 N1 1_555 1_555
N3 N2 1_555 1_555
C1 C5 1_555 1_555
C2 C3 1_555 1_555
C3 C8 1_555 1_555
C4 H1 1_555 1_555
C5 C2 1_555 1_555
C6 C2 1_555 1_555
H2 C6 1_555 1_555
C7 C5 1_555 1_555
H3 C7 1_555 1_555
C8 H4 1_555 1_555
C9 C7 1_555 1_555
H5 C9 1_555 1_555
C10 C3 1_555 1_555
H6 C10 1_555 1_555
C11 C4 1_555 1_555
H7 C11 1_555 1_555
Cu1A O2 1_555 1_555
Cu1B N3 1_555 1_555
O2A Cu1 1_555 1_555
N1A Cu1 1_555 1_555
N3B Cu1 1_555 1_555
N1 Cu1A 1_555 1_555
C4 C6 1_555 1_555
C8 C9 1_555 1_555
C10 C11 1_555 1_555

#END
