
#######################################################################
#
#                 Cambridge Crystallographic Data Centre
#                                CCDC 
#
#######################################################################
#
# If this CIF has been generated from an entry in the Cambridge 
# Structural Database, then it will include bibliographic, chemical, 
# crystal, experimental, refinement or atomic coordinate data resulting 
# from the CCDC's data processing and validation procedures.
#
#######################################################################

data_XOVQUU01
_symmetry_cell_setting           orthorhombic
_symmetry_space_group_name_H-M   'P n a 21'
_symmetry_Int_Tables_number      33
_space_group_name_Hall           'P 2c -2n'
loop_
_symmetry_equiv_pos_site_id
_symmetry_equiv_pos_as_xyz
1 x,y,z
2 -x,-y,1/2+z
3 1/2-x,1/2+y,1/2+z
4 1/2+x,1/2-y,z
_cell_length_a                   10.0654(10)
_cell_length_b                   16.5208(17)
_cell_length_c                   4.6223(5)
_cell_angle_alpha                90
_cell_angle_beta                 90
_cell_angle_gamma                90
_cell_volume                     768.635
loop_
_atom_site_label
_atom_site_type_symbol
_atom_site_fract_x
_atom_site_fract_y
_atom_site_fract_z
Gd1 Gd -0.64745(8) 0.47924(4) -0.2375(5)
O1 O -0.2041(16) 0.4415(10) -0.998(4)
O2 O -0.0372(16) 0.3516(9) -0.979(4)
O3 O -0.2712(16) 0.1347(9) -0.372(3)
O4 O -0.4968(11) 0.3640(6) -0.224(8)
O5 O -0.4279(10) 0.5371(5) -0.231(8)
O6 O -0.8513(16) 0.4778(9) 0.022(4)
N1 N -0.3326(18) 0.3702(11) -0.565(4)
N2 N -0.3810(16) 0.2533(9) -0.313(4)
H1 H -0.4322 0.2291 -0.1855
C1 C -0.144(2) 0.3759(13) -0.895(5)
C2 C -0.2323(18) 0.3281(10) -0.685(5)
C3 C -0.205(2) 0.2492(14) -0.637(5)
H2 H -0.1345 0.2226 -0.7352
C4 C -0.286(3) 0.2084(15) -0.437(6)
C5 C -0.406(2) 0.3320(12) -0.367(5)
O5A O -0.5721(10) 0.4629(5) -0.731(8)
Gd1C Gd -0.14745(8) 0.02076(4) -0.2375(5)
Gd1A Gd -0.35255(8) 0.52076(4) -0.7375(5)
Gd1A_2 Gd -0.35255(8) 0.52076(4) 0.2625(5)
O1A O -0.7959(16) 0.5585(10) -0.498(4)
O3C O -0.7712(16) 0.3653(9) -0.372(3)
O5A_2 O -0.5721(10) 0.4629(5) 0.269(8)
N1A N -0.6674(18) 0.6298(11) -0.065(4)
loop_
_geom_bond_atom_site_label_1
_geom_bond_atom_site_label_2
_geom_bond_site_symmetry_1
_geom_bond_site_symmetry_2
Gd1 O4 1_555 1_555
O1 C1 1_555 1_555
O2 C1 1_555 1_555
O3 C4 1_555 1_555
O4 C5 1_555 1_555
O5 Gd1 1_555 1_555
O6 Gd1 1_555 1_555
N1 C2 1_555 1_555
N2 H1 1_555 1_555
C1 C2 1_555 1_555
C2 C3 1_555 1_555
C3 H2 1_555 1_555
C4 N2 1_555 1_555
C5 N1 1_555 1_555
O5A Gd1 1_555 1_555
Gd1C O3 1_555 1_555
Gd1A O1 1_555 1_555
Gd1A_2 O5 1_555 1_555
O1A Gd1 1_555 1_555
O3C Gd1 1_555 1_555
O5A_2 Gd1 1_555 1_555
N1A Gd1 1_555 1_555
O5 Gd1A 1_555 1_555
N1 Gd1A 1_555 1_555
N2 C5 1_555 1_555
C3 C4 1_555 1_555
O5A Gd1A 1_555 1_555
Gd1A_2 O5A_2 1_555 1_555

#END
