
#######################################################################
#
#                 Cambridge Crystallographic Data Centre
#                                CCDC 
#
#######################################################################
#
# If this CIF has been generated from an entry in the Cambridge 
# Structural Database, then it will include bibliographic, chemical, 
# crystal, experimental, refinement or atomic coordinate data resulting 
# from the CCDC's data processing and validation procedures.
#
#######################################################################

data_XOVQOO
_symmetry_cell_setting           orthorhombic
_symmetry_space_group_name_H-M   'F d d 2'
_symmetry_Int_Tables_number      43
_space_group_name_Hall           'F 2 -2d'
loop_
_symmetry_equiv_pos_site_id
_symmetry_equiv_pos_as_xyz
1 x,y,z
2 -x,-y,z
3 1/4-x,1/4+y,1/4+z
4 3/4+x,3/4-y,1/4+z
5 x,1/2+y,1/2+z
6 -x,1/2-y,1/2+z
7 1/4-x,3/4+y,3/4+z
8 3/4+x,1/4-y,3/4+z
9 1/2+x,y,1/2+z
10 1/2-x,-y,1/2+z
11 3/4-x,1/4+y,3/4+z
12 1/4+x,3/4-y,3/4+z
13 1/2+x,1/2+y,z
14 1/2-x,1/2-y,z
15 3/4-x,3/4+y,1/4+z
16 1/4+x,1/4-y,1/4+z
_cell_length_a                   16.597(3)
_cell_length_b                   40.310(8)
_cell_length_c                   16.399(3)
_cell_angle_alpha                90
_cell_angle_beta                 90
_cell_angle_gamma                90
_cell_volume                     10971.3
loop_
_atom_site_label
_atom_site_type_symbol
_atom_site_fract_x
_atom_site_fract_y
_atom_site_fract_z
Cu1 Cu 0.31808(6) 0.12388(2) -0.14101(7)
O1 O 0.2306(3) 0.15145(17) -0.2288(4)
S1 S 0.11793(13) -0.01607(6) -0.11619(19)
N1 N 0.2597(4) 0.08014(16) -0.1416(5)
C1 C 0.1919(5) -0.0493(2) -0.1142(6)
H1 H 0.2242 -0.0491 -0.1636
H2 H 0.2274 -0.0469 -0.0676
O2 O -0.0658(3) -0.14706(17) -0.2228(5)
S2 S 0.73212(13) 0.01278(5) -0.34013(18)
N2 N 0.8681(4) -0.08481(16) -0.3738(5)
C2 C 0.1444(5) -0.0813(2) -0.1083(6)
O4 O 0.0032(4) -0.11197(15) -0.3038(4)
C3 C 0.1471(5) -0.1016(2) -0.0399(5)
H3 H 0.1811 -0.0960 0.0030
O6 O 0.4781(4) 0.08477(15) -0.1465(5)
C4 C 0.1008(6) -0.1297(2) -0.0344(6)
H4 H 0.1044 -0.1434 0.0111
O7 O 0.3896(3) 0.10849(15) -0.2302(4)
C5 C 0.0486(5) -0.1375(3) -0.0977(6)
H5 H 0.0153 -0.1559 -0.0935
C6 C 0.0458(5) -0.1180(2) -0.1664(5)
C7 C 0.0946(5) -0.09022(19) -0.1726(6)
H6 H 0.0939 -0.0775 -0.2200
C8 C -0.0106(5) -0.1269(2) -0.2342(6)
C9 C 0.1754(5) 0.0200(2) -0.1261(6)
C10 C 0.2588(5) 0.0211(2) -0.1189(7)
H7 H 0.2883 0.0019 -0.1088
C11 C 0.2964(5) 0.0511(2) -0.1271(6)
H8 H 0.3522 0.0513 -0.1221
C12 C 0.1795(5) 0.0785(2) -0.1471(7)
H9 H 0.1512 0.0981 -0.1550
C13 C 0.1366(5) 0.0496(2) -0.1417(7)
H10 H 0.0810 0.0499 -0.1485
C14 C 0.7869(5) -0.0843(2) -0.3598(5)
H11 H 0.7599 -0.1045 -0.3578
C15 C 0.7429(5) -0.05613(19) -0.3487(5)
H12 H 0.6874 -0.0575 -0.3413
C16 C 0.7807(5) -0.02522(19) -0.3485(6)
C17 C 0.8652(5) -0.0259(2) -0.3588(9)
H13 H 0.8944 -0.0063 -0.3556
C18 C 0.9042(5) -0.0547(2) -0.3731(9)
H14 H 0.9593 -0.0538 -0.3832
C19 C 0.6287(5) 0.0010(2) -0.3318(6)
H15 H 0.6187 -0.0085 -0.2784
H16 H 0.6162 -0.0157 -0.3726
C20 C 0.5754(5) 0.0313(2) -0.3444(6)
C21 C 0.5399(5) 0.0472(2) -0.2784(5)
H17 H 0.5506 0.0396 -0.2260
C22 C 0.4891(4) 0.07401(19) -0.2887(5)
C23 C 0.4772(5) 0.0858(2) -0.3677(6)
H18 H 0.4427 0.1037 -0.3764
C24 C 0.5158(5) 0.0715(2) -0.4325(6)
H19 H 0.5094 0.0802 -0.4845
C25 C 0.5637(5) 0.0443(3) -0.4209(7)
H20 H 0.5888 0.0344 -0.4655
C26 C 0.4509(5) 0.0899(2) -0.2143(7)
O4B O 0.2468(4) 0.13803(15) -0.0538(4)
Cu1F Cu -0.06808(6) -0.12612(2) -0.39101(7)
Cu1F_2 Cu 0.93192(6) -0.12612(2) -0.39101(7)
N2B N 0.3819(4) 0.16519(16) -0.1238(5)
O3 O 0.3884(9) 0.1722(4) -0.3405(11)
O5 O -0.1403(16) -0.1939(7) -0.1173(18)
O8 O 0.7500 0.2500 0.180(7)
loop_
_geom_bond_atom_site_label_1
_geom_bond_atom_site_label_2
_geom_bond_site_symmetry_1
_geom_bond_site_symmetry_2
Cu1 O1 1_555 1_555
S1 C1 1_555 1_555
N1 Cu1 1_555 1_555
C1 H1 1_555 1_555
H2 C1 1_555 1_555
O2 C8 1_555 1_555
S2 C16 1_555 1_555
N2 C14 1_555 1_555
C2 C1 1_555 1_555
O4 C8 1_555 1_555
C3 C2 1_555 1_555
H3 C3 1_555 1_555
O6 C26 1_555 1_555
C4 C3 1_555 1_555
H4 C4 1_555 1_555
O7 Cu1 1_555 1_555
C5 C4 1_555 1_555
H5 C5 1_555 1_555
C6 C5 1_555 1_555
C7 C2 1_555 1_555
H6 C7 1_555 1_555
C8 C6 1_555 1_555
C9 S1 1_555 1_555
C10 C9 1_555 1_555
H7 C10 1_555 1_555
C11 N1 1_555 1_555
H8 C11 1_555 1_555
C12 N1 1_555 1_555
H9 C12 1_555 1_555
C13 C9 1_555 1_555
H10 C13 1_555 1_555
C14 H11 1_555 1_555
C15 C14 1_555 1_555
H12 C15 1_555 1_555
C16 C15 1_555 1_555
C17 C16 1_555 1_555
H13 C17 1_555 1_555
C18 N2 1_555 1_555
H14 C18 1_555 1_555
C19 S2 1_555 1_555
H15 C19 1_555 1_555
H16 C19 1_555 1_555
C20 C19 1_555 1_555
C21 C20 1_555 1_555
H17 C21 1_555 1_555
C22 C21 1_555 1_555
C23 C22 1_555 1_555
H18 C23 1_555 1_555
C24 C23 1_555 1_555
H19 C24 1_555 1_555
C25 C20 1_555 1_555
H20 C25 1_555 1_555
C26 O7 1_555 1_555
O4B Cu1 1_555 1_555
Cu1F O4 1_555 1_555
Cu1F_2 N2 1_555 1_555
N2B Cu1 1_555 1_555
C6 C7 1_555 1_555
C10 C11 1_555 1_555
C12 C13 1_555 1_555
C17 C18 1_555 1_555
C22 C26 1_555 1_555
C24 C25 1_555 1_555

#END
