
#######################################################################
#
#                 Cambridge Crystallographic Data Centre
#                                CCDC 
#
#######################################################################
#
# If this CIF has been generated from an entry in the Cambridge 
# Structural Database, then it will include bibliographic, chemical, 
# crystal, experimental, refinement or atomic coordinate data resulting 
# from the CCDC's data processing and validation procedures.
#
#######################################################################

data_XOVQUU
_symmetry_cell_setting           orthorhombic
_symmetry_space_group_name_H-M   'P n a 21'
_symmetry_Int_Tables_number      33
_space_group_name_Hall           'P 2c -2n'
loop_
_symmetry_equiv_pos_site_id
_symmetry_equiv_pos_as_xyz
1 x,y,z
2 -x,-y,1/2+z
3 1/2+x,1/2-y,z
4 1/2-x,1/2+y,1/2+z
_cell_length_a                   10.0654(10)
_cell_length_b                   16.5208(17)
_cell_length_c                   4.6223(5)
_cell_angle_alpha                90
_cell_angle_beta                 90
_cell_angle_gamma                90
_cell_volume                     768.635
loop_
_atom_site_label
_atom_site_type_symbol
_atom_site_fract_x
_atom_site_fract_y
_atom_site_fract_z
Gd1 Gd 0.35257(8) 0.52076(5) 0.4683(6)
O1 O 0.5029(12) 0.6359(7) 0.469(8)
O2 O 0.5724(11) 0.4631(6) 0.478(9)
C1 C 0.767(2) 0.6715(11) 0.928(10)
O3 O 0.9629(17) 0.6483(10) 1.218(4)
O4 O 0.7284(17) 0.8660(9) 0.617(4)
N1 N 0.6187(18) 0.7477(10) 0.556(4)
H1 H 0.5679 0.7715 0.4328
N2 N 0.667(2) 0.6288(10) 0.808(5)
C2 C 0.794(3) 0.7512(13) 0.879(5)
H2 H 0.8631 0.7774 0.9751
O5 O 0.7951(18) 0.5584(11) 1.242(4)
C3 C 0.857(3) 0.6242(13) 1.138(5)
C4 C 0.715(3) 0.7925(17) 0.679(6)
O6 O 0.1487(15) 0.5221(11) 0.219(4)
C5 C 0.595(2) 0.6682(11) 0.608(5)
O2A O 0.4276(11) 0.5369(6) -0.022(9)
O2A_2 O 0.4276(11) 0.5369(6) 0.978(9)
O4B O 0.2284(17) 0.6340(9) 0.617(4)
N2A N 0.333(2) 0.3712(10) 0.308(5)
O5A O 0.2049(18) 0.4416(11) 0.742(4)
Gd1A Gd 0.64743(8) 0.47924(5) -0.0317(6)
Gd1A_2 Gd 0.64743(8) 0.47924(5) 0.9683(6)
Gd1B Gd 0.85257(8) 0.97924(5) 0.4683(6)
loop_
_geom_bond_atom_site_label_1
_geom_bond_atom_site_label_2
_geom_bond_site_symmetry_1
_geom_bond_site_symmetry_2
Gd1 O1 1_555 1_555
O1 C5 1_555 1_555
O2 Gd1 1_555 1_555
C1 N2 1_555 1_555
O3 C3 1_555 1_555
O4 C4 1_555 1_555
N1 H1 1_555 1_555
N2 C5 1_555 1_555
C2 C1 1_555 1_555
H2 C2 1_555 1_555
O5 C3 1_555 1_555
C3 C1 1_555 1_555
C4 N1 1_555 1_555
O6 Gd1 1_555 1_555
C5 N1 1_555 1_555
O2A Gd1 1_555 1_555
O2A_2 Gd1 1_555 1_555
O4B Gd1 1_555 1_555
N2A Gd1 1_555 1_555
O5A Gd1 1_555 1_555
Gd1A O2 1_555 1_555
Gd1A_2 O2 1_555 1_555
Gd1B O4 1_555 1_555
N2 Gd1A_2 1_555 1_555
C2 C4 1_555 1_555
O5 Gd1A_2 1_555 1_555
O2A Gd1A 1_555 1_555
O2A_2 Gd1A_2 1_555 1_555

#END
