
#######################################################################
#
#                 Cambridge Crystallographic Data Centre
#                                CCDC 
#
#######################################################################
#
# If this CIF has been generated from an entry in the Cambridge 
# Structural Database, then it will include bibliographic, chemical, 
# crystal, experimental, refinement or atomic coordinate data resulting 
# from the CCDC's data processing and validation procedures.
#
#######################################################################

data_XOVTUY
_symmetry_cell_setting           trigonal
_symmetry_space_group_name_H-M   'P -3 c 1'
_symmetry_Int_Tables_number      165
_space_group_name_Hall           '-P 3 2"c'
loop_
_symmetry_equiv_pos_site_id
_symmetry_equiv_pos_as_xyz
1 x,y,z
2 -y,x-y,z
3 -x+y,-x,z
4 x-y,-y,1/2-z
5 -x,-x+y,1/2-z
6 y,x,1/2-z
7 -x,-y,-z
8 y,-x+y,-z
9 x-y,x,-z
10 -x+y,y,1/2+z
11 x,x-y,1/2+z
12 -y,-x,1/2+z
_cell_length_a                   15.6887(3)
_cell_length_b                   15.6887(3)
_cell_length_c                   22.2702(8)
_cell_angle_alpha                90
_cell_angle_beta                 90
_cell_angle_gamma                120
_cell_volume                     4747.1
loop_
_atom_site_label
_atom_site_type_symbol
_atom_site_fract_x
_atom_site_fract_y
_atom_site_fract_z
Mn1 Mn 0.65454(5) 0.44607(5) 0.46730(3)
O1 O 0.6667 0.3333 0.4809(2)
O2 O 0.5152(3) 0.3702(3) 0.46918(17)
N1 N 0.4715(3) 0.2713(3) 0.45941(19)
C1 C 0.3788(4) 0.2281(5) 0.4488(3)
C2 C 0.3174(4) 0.1251(5) 0.4370(3)
C3 C 0.3544(4) 0.0608(4) 0.4335(3)
O3 O 0.4482(3) 0.0894(3) 0.44114(17)
C4 C 0.2897(5) -0.0385(5) 0.4193(3)
C5 C 0.1915(6) -0.0716(6) 0.4106(5)
C6 C 0.1539(6) -0.0091(7) 0.4154(6)
C7 C 0.2162(6) 0.0877(6) 0.4271(6)
N2 N 0.6548(3) 0.4895(3) 0.56485(19)
C8 C 0.7025(4) 0.4817(4) 0.6117(2)
C9 C 0.6865(5) 0.5019(4) 0.6702(3)
C10 C 0.6197(4) 0.5333(4) 0.6816(2)
C11 C 0.5706(4) 0.5419(4) 0.6316(2)
C12 C 0.5896(4) 0.5194(4) 0.5761(2)
C13 C 0.6019(4) 0.5547(4) 0.7433(2)
Cl1 Cl 0.6667 0.3333 0.33521(9)
O4 O 0.6407(3) 0.4033(3) 0.35753(17)
O5 O 0.6667 0.3333 0.2710(3)
H1 H 0.3493 0.2681 0.4495
H2 H 0.3130 -0.0840 0.4160
H3 H 0.1500 -0.1391 0.4008
H4 H 0.0877 -0.0322 0.4078
H5 H 0.1920 0.1306 0.4296
H6 H 0.7487 0.4606 0.6042
H7 H 0.7218 0.4947 0.7007
H8 H 0.5244 0.5607 0.6364
H9 H 0.5562 0.5251 0.5431
H10 H 0.6265 0.5346 0.7749
Mn1B Mn 0.79153(7) 0.34546(5) 0.46730(3)
Mn1A Mn 0.55393(5) 0.20847(7) 0.46730(3)
Mn1E Mn 0.44607(5) 0.65454(5) 1.03270(3)
Mn1D Mn 0.34546(5) 0.79153(7) 1.03270(3)
Mn1C Mn 0.20847(7) 0.55393(5) 1.03270(3)
Mn1C_2 Mn 1.20847(7) 0.55393(5) 1.03270(3)
Mn1D_2 Mn 0.34546(5) -0.20847(7) 1.03270(3)
O1E O 0.3333 0.6667 1.0191(2)
O2B O 0.8550(4) 0.4848(3) 0.46918(17)
O2A O 0.6298(3) 0.1450(4) 0.46918(17)
O2E O 0.3702(3) 0.5152(3) 1.03082(17)
O2D O 0.4848(3) 0.8550(4) 1.03082(17)
O2C O 0.1450(4) 0.6298(3) 1.03082(17)
N1B N 0.7998(4) 0.5285(3) 0.45941(19)
N1A N 0.7287(3) 0.2002(4) 0.45941(19)
N1E N 0.2713(3) 0.4715(3) 1.04059(19)
N1D N 0.5285(3) 0.7998(4) 1.04059(19)
N1C N 0.2002(4) 0.7287(3) 1.04059(19)
C1B C 0.8493(6) 0.6212(4) 0.4488(3)
C1A C 0.7719(5) 0.1507(6) 0.4488(3)
C1E C 0.2281(5) 0.3788(4) 1.0512(3)
C1D C 0.6212(4) 0.8493(6) 1.0512(3)
C1C C 0.1507(6) 0.7719(5) 1.0512(3)
C2B C 0.8077(6) 0.6826(4) 0.4370(3)
C2A C 0.8749(5) 0.1923(6) 0.4370(3)
C2E C 0.1251(5) 0.3174(4) 1.0630(3)
C2D C 0.6826(4) 0.8077(6) 1.0630(3)
C2C C 0.1923(6) 0.8749(5) 1.0630(3)
C3B C 0.7064(6) 0.6456(4) 0.4335(3)
C3A C 0.9392(4) 0.2936(6) 0.4335(3)
C3E C 0.0608(4) 0.3544(4) 1.0665(3)
C3D C 0.6456(4) 0.7064(6) 1.0665(3)
C3C C 0.2936(6) 0.9392(4) 1.0665(3)
O3B O 0.6412(4) 0.5518(3) 0.44114(17)
O3A O 0.9106(3) 0.3588(4) 0.44114(17)
O3E O 0.0894(3) 0.4482(3) 1.05886(17)
O3D O 0.5518(3) 0.6412(4) 1.05886(17)
O3C O 0.3588(4) 0.9106(3) 1.05886(17)
C4B C 0.6718(7) 0.7103(5) 0.4193(3)
C4A C 1.0385(5) 0.3282(7) 0.4193(3)
C4E C -0.0385(5) 0.2897(5) 1.0807(3)
C4D C 0.7103(5) 0.6718(7) 1.0807(3)
C4C C 0.3282(7) 1.0385(5) 1.0807(3)
C5B C 0.7369(8) 0.8085(6) 0.4106(5)
C5A C 1.0716(6) 0.2631(8) 0.4106(5)
C5E C -0.0716(6) 0.1915(6) 1.0894(5)
C5D C 0.8085(6) 0.7369(8) 1.0894(5)
C5C C 0.2631(8) 1.0716(6) 1.0894(5)
C6B C 0.8370(9) 0.8461(6) 0.4154(6)
C6A C 1.0091(7) 0.1630(9) 0.4154(6)
C6E C -0.0091(7) 0.1539(6) 1.0846(6)
C6D C 0.8461(6) 0.8370(9) 1.0846(6)
C6C C 0.1630(9) 1.0091(7) 1.0846(6)
C7B C 0.8715(8) 0.7838(6) 0.4271(6)
C7A C 0.9123(6) 0.1285(8) 0.4271(6)
C7E C 0.0877(6) 0.2162(6) 1.0729(6)
C7D C 0.7838(6) 0.8715(8) 1.0729(6)
C7C C 0.1285(8) 0.9123(6) 1.0729(6)
N2E N 0.4895(3) 0.6548(3) 0.93515(19)
N2B N 0.8347(4) 0.3452(3) 0.56485(19)
N2C N 1.1653(4) 0.5105(3) 0.93515(19)
N2A N 0.5105(3) 0.1653(4) 0.56485(19)
N2D N 0.3452(3) -0.1653(4) 0.93515(19)
N2D_2 N 0.3452(3) 0.8347(4) 0.93515(19)
N2C_2 N 0.1653(4) 0.5105(3) 0.93515(19)
C8E C 0.4817(4) 0.7025(4) 0.8883(2)
C8B C 0.7792(6) 0.2975(4) 0.6117(2)
C8C C 1.2208(6) 0.5183(4) 0.8883(2)
C8A C 0.5183(4) 0.2208(6) 0.6117(2)
C8D C 0.2975(4) -0.2208(6) 0.8883(2)
C9E C 0.5019(4) 0.6865(5) 0.8298(3)
C9B C 0.8154(6) 0.3135(5) 0.6702(3)
C9C C 1.1846(6) 0.4981(4) 0.8298(3)
C9A C 0.4981(4) 0.1846(6) 0.6702(3)
C9D C 0.3135(5) -0.1846(6) 0.8298(3)
C10E C 0.5333(4) 0.6197(4) 0.8184(2)
C10B C 0.9136(6) 0.3803(4) 0.6816(2)
C10C C 1.0864(6) 0.4667(4) 0.8184(2)
C10A C 0.4667(4) 0.0864(6) 0.6816(2)
C10D C 0.3803(4) -0.0864(6) 0.8184(2)
C11E C 0.5419(4) 0.5706(4) 0.8684(2)
C11B C 0.9713(6) 0.4294(4) 0.6316(2)
C11C C 1.0287(6) 0.4581(4) 0.8684(2)
C11A C 0.4581(4) 0.0287(6) 0.6316(2)
C11D C 0.4294(4) -0.0287(6) 0.8684(2)
C12E C 0.5194(4) 0.5896(4) 0.9239(2)
C12B C 0.9298(6) 0.4104(4) 0.5761(2)
C12C C 1.0702(6) 0.4806(4) 0.9239(2)
C12A C 0.4806(4) 0.0702(6) 0.5761(2)
C12D C 0.4104(4) -0.0702(6) 0.9239(2)
C13E C 0.5547(4) 0.6019(4) 0.7567(2)
C13B C 0.9528(6) 0.3981(4) 0.7433(2)
C13C C 1.0472(6) 0.4453(4) 0.7567(2)
C13A C 0.4453(4) 0.0472(6) 0.7433(2)
C13D C 0.3981(4) -0.0472(6) 0.7567(2)
Cl1E Cl 0.3333 0.6667 1.16479(9)
O4A O 0.5967(3) 0.2374(4) 0.35753(17)
O4B O 0.7626(4) 0.3593(3) 0.35753(17)
O4E O 0.4033(3) 0.6407(3) 1.14247(17)
O4C O 0.2374(4) 0.5967(3) 1.14247(17)
O4D O 0.3593(3) 0.7626(4) 1.14247(17)
O5E O 0.3333 0.6667 1.2290(3)
H1B H 0.9188 0.6507 0.4495
H1A H 0.7319 0.0812 0.4495
H1E H 0.2681 0.3493 1.0505
H1D H 0.6507 0.9188 1.0505
H1C H 0.0812 0.7319 1.0505
H2B H 0.6030 0.6870 0.4160
H2A H 1.0840 0.3970 0.4160
H2E H -0.0840 0.3130 1.0840
H2D H 0.6870 0.6030 1.0840
H2C H 0.3970 1.0840 1.0840
H3B H 0.7109 0.8500 0.4008
H3A H 1.1391 0.2891 0.4008
H3E H -0.1391 0.1500 1.0992
H3D H 0.8500 0.7109 1.0992
H3C H 0.2891 1.1391 1.0992
H4B H 0.8801 0.9123 0.4078
H4A H 1.0322 0.1199 0.4078
H4E H -0.0322 0.0877 1.0922
H4D H 0.9123 0.8801 1.0922
H4C H 0.1199 1.0322 1.0922
H5B H 0.9386 0.8080 0.4296
H5A H 0.8694 0.0614 0.4296
H5E H 0.1306 0.1920 1.0704
H5D H 0.8080 0.9386 1.0704
H5C H 0.0614 0.8694 1.0704
H6E H 0.4606 0.7487 0.8958
H6B H 0.7119 0.2513 0.6042
H6C H 1.2881 0.5394 0.8958
H6A H 0.5394 0.2881 0.6042
H6D H 0.2513 -0.2881 0.8958
H7E H 0.4947 0.7218 0.7993
H7B H 0.7729 0.2782 0.7007
H7C H 1.2271 0.5053 0.7993
H7A H 0.5053 0.2271 0.7007
H7D H 0.2782 -0.2271 0.7993
H8E H 0.5607 0.5244 0.8636
H8B H 1.0363 0.4756 0.6364
H8C H 0.9637 0.4393 0.8636
H8A H 0.4393 -0.0363 0.6364
H8D H 0.4756 0.0363 0.8636
H9E H 0.5251 0.5562 0.9569
H9B H 0.9689 0.4438 0.5431
H9C H 1.0311 0.4749 0.9569
H9A H 0.4749 0.0311 0.5431
H9D H 0.4438 -0.0311 0.9569
H10E H 0.5346 0.6265 0.7251
H10B H 0.9081 0.3735 0.7749
H10C H 1.0919 0.4654 0.7251
H10A H 0.4654 0.0919 0.7749
H10D H 0.3735 -0.0919 0.7251
loop_
_geom_bond_atom_site_label_1
_geom_bond_atom_site_label_2
_geom_bond_site_symmetry_1
_geom_bond_site_symmetry_2
Mn1 O1 1_555 1_555
O1 Mn1B 1_555 1_555
O2 Mn1 1_555 1_555
N1 O2 1_555 1_555
C1 N1 1_555 1_555
C2 C1 1_555 1_555
C3 C2 1_555 1_555
O3 C3 1_555 1_555
C4 C3 1_555 1_555
C5 C4 1_555 1_555
C6 C5 1_555 1_555
C7 C2 1_555 1_555
N2 Mn1 1_555 1_555
C8 N2 1_555 1_555
C9 C8 1_555 1_555
C10 C9 1_555 1_555
C11 C10 1_555 1_555
C12 N2 1_555 1_555
C13 C10 1_555 1_555
Cl1 O4 1_555 1_555
O4 Mn1 1_555 1_555
O5 Cl1 1_555 1_555
H1 C1 1_555 1_555
H2 C4 1_555 1_555
H3 C5 1_555 1_555
H4 C6 1_555 1_555
H5 C7 1_555 1_555
H6 C8 1_555 1_555
H7 C9 1_555 1_555
H8 C11 1_555 1_555
H9 C12 1_555 1_555
H10 C13 1_555 1_555
Mn1B O2B 1_555 1_555
Mn1A O1 1_555 1_555
Mn1E O1E 1_555 1_555
Mn1D O1E 1_555 1_555
Mn1C O1E 1_555 1_555
Mn1C_2 N2C 1_555 1_555
Mn1D_2 N2D 1_555 1_555
O2B N1B 1_555 1_555
O2A Mn1A 1_555 1_555
O2E Mn1E 1_555 1_555
O2D Mn1D 1_555 1_555
O2C Mn1C 1_555 1_555
N1B Mn1 1_555 1_555
N1A Mn1B 1_555 1_555
N1E Mn1C 1_555 1_555
N1D Mn1E 1_555 1_555
N1C Mn1D 1_555 1_555
C1B N1B 1_555 1_555
C1A N1A 1_555 1_555
C1E N1E 1_555 1_555
C1D N1D 1_555 1_555
C1C N1C 1_555 1_555
C2B C1B 1_555 1_555
C2A C1A 1_555 1_555
C2E C1E 1_555 1_555
C2D C1D 1_555 1_555
C2C C1C 1_555 1_555
C3B C2B 1_555 1_555
C3A C2A 1_555 1_555
C3E C2E 1_555 1_555
C3D C2D 1_555 1_555
C3C C2C 1_555 1_555
O3B Mn1 1_555 1_555
O3A Mn1B 1_555 1_555
O3E Mn1C 1_555 1_555
O3D Mn1E 1_555 1_555
O3C Mn1D 1_555 1_555
C4B C3B 1_555 1_555
C4A C3A 1_555 1_555
C4E C3E 1_555 1_555
C4D C3D 1_555 1_555
C4C C3C 1_555 1_555
C5B C4B 1_555 1_555
C5A C4A 1_555 1_555
C5E C4E 1_555 1_555
C5D C4D 1_555 1_555
C5C C4C 1_555 1_555
C6B C5B 1_555 1_555
C6A C5A 1_555 1_555
C6E C5E 1_555 1_555
C6D C5D 1_555 1_555
C6C C5C 1_555 1_555
C7B C2B 1_555 1_555
C7A C2A 1_555 1_555
C7E C2E 1_555 1_555
C7D C2D 1_555 1_555
C7C C2C 1_555 1_555
N2E Mn1E 1_555 1_555
N2B Mn1B 1_555 1_555
N2C C8C 1_555 1_555
N2A Mn1A 1_555 1_555
N2D C8D 1_555 1_555
N2D_2 Mn1D 1_555 1_555
N2C_2 Mn1C 1_555 1_555
C8E N2E 1_555 1_555
C8B N2B 1_555 1_555
C8C C9C 1_555 1_555
C8A N2A 1_555 1_555
C8D C9D 1_555 1_555
C9E C8E 1_555 1_555
C9B C8B 1_555 1_555
C9C C10C 1_555 1_555
C9A C8A 1_555 1_555
C9D C10D 1_555 1_555
C10E C9E 1_555 1_555
C10B C9B 1_555 1_555
C10C C11C 1_555 1_555
C10A C9A 1_555 1_555
C10D C11D 1_555 1_555
C11E C10E 1_555 1_555
C11B C10B 1_555 1_555
C11C C12C 1_555 1_555
C11A C10A 1_555 1_555
C11D C12D 1_555 1_555
C12E N2E 1_555 1_555
C12B N2B 1_555 1_555
C12C N2C 1_555 1_555
C12A N2A 1_555 1_555
C12D N2D 1_555 1_555
C13E C13 1_555 1_555
C13B C10B 1_555 1_555
C13C C10C 1_555 1_555
C13A C10A 1_555 1_555
C13D C10D 1_555 1_555
Cl1E O4E 1_555 1_555
O4A Cl1 1_555 1_555
O4B Cl1 1_555 1_555
O4E Mn1E 1_555 1_555
O4C Mn1C 1_555 1_555
O4D Mn1D 1_555 1_555
O5E Cl1E 1_555 1_555
H1B C1B 1_555 1_555
H1A C1A 1_555 1_555
H1E C1E 1_555 1_555
H1D C1D 1_555 1_555
H1C C1C 1_555 1_555
H2B C4B 1_555 1_555
H2A C4A 1_555 1_555
H2E C4E 1_555 1_555
H2D C4D 1_555 1_555
H2C C4C 1_555 1_555
H3B C5B 1_555 1_555
H3A C5A 1_555 1_555
H3E C5E 1_555 1_555
H3D C5D 1_555 1_555
H3C C5C 1_555 1_555
H4B C6B 1_555 1_555
H4A C6A 1_555 1_555
H4E C6E 1_555 1_555
H4D C6D 1_555 1_555
H4C C6C 1_555 1_555
H5B C7B 1_555 1_555
H5A C7A 1_555 1_555
H5E C7E 1_555 1_555
H5D C7D 1_555 1_555
H5C C7C 1_555 1_555
H6E C8E 1_555 1_555
H6B C8B 1_555 1_555
H6C C8C 1_555 1_555
H6A C8A 1_555 1_555
H6D C8D 1_555 1_555
H7E C9E 1_555 1_555
H7B C9B 1_555 1_555
H7C C9C 1_555 1_555
H7A C9A 1_555 1_555
H7D C9D 1_555 1_555
H8E C11E 1_555 1_555
H8B C11B 1_555 1_555
H8C C11C 1_555 1_555
H8A C11A 1_555 1_555
H8D C11D 1_555 1_555
H9E C12E 1_555 1_555
H9B C12B 1_555 1_555
H9C C12C 1_555 1_555
H9A C12A 1_555 1_555
H9D C12D 1_555 1_555
H10E C13E 1_555 1_555
H10B C13B 1_555 1_555
H10C C13C 1_555 1_555
H10A C13A 1_555 1_555
H10D C13D 1_555 1_555
N1 Mn1A 1_555 1_555
O3 Mn1A 1_555 1_555
C6 C7 1_555 1_555
C11 C12 1_555 1_555
Mn1B O4B 1_555 1_555
Mn1A O4A 1_555 1_555
O2A N1A 1_555 1_555
O2E N1E 1_555 1_555
O2D N1D 1_555 1_555
O2C N1C 1_555 1_555
C3B O3B 1_555 1_555
C3A O3A 1_555 1_555
C3E O3E 1_555 1_555
C3D O3D 1_555 1_555
C3C O3C 1_555 1_555
C6B C7B 1_555 1_555
C6A C7A 1_555 1_555
C6E C7E 1_555 1_555
C6D C7D 1_555 1_555
C6C C7C 1_555 1_555
C10E C13E 1_555 1_555
C11E C12E 1_555 1_555
C11B C12B 1_555 1_555
C11A C12A 1_555 1_555
C13B C13C 1_555 1_555
C13A C13D 1_555 1_555
Cl1E O4C 1_555 1_555
Cl1E O4D 1_555 1_555

#END
