
#######################################################################
#
#                 Cambridge Crystallographic Data Centre
#                                CCDC 
#
#######################################################################
#
# If this CIF has been generated from an entry in the Cambridge 
# Structural Database, then it will include bibliographic, chemical, 
# crystal, experimental, refinement or atomic coordinate data resulting 
# from the CCDC's data processing and validation procedures.
#
#######################################################################

data_XOVTAF
_symmetry_cell_setting           monoclinic
_symmetry_space_group_name_H-M   'P 21/n'
_symmetry_Int_Tables_number      14
_space_group_name_Hall           '-P 2yn'
loop_
_symmetry_equiv_pos_site_id
_symmetry_equiv_pos_as_xyz
1 x,y,z
2 1/2-x,1/2+y,1/2-z
3 -x,-y,-z
4 1/2+x,1/2-y,1/2+z
_cell_length_a                   11.1447(14)
_cell_length_b                   29.694(4)
_cell_length_c                   11.8597(14)
_cell_angle_alpha                90
_cell_angle_beta                 103.941(4)
_cell_angle_gamma                90
_cell_volume                     3809.13
loop_
_atom_site_label
_atom_site_type_symbol
_atom_site_fract_x
_atom_site_fract_y
_atom_site_fract_z
Pb1 Pb 0.96723(3) 0.43662(2) 0.39419(3)
Pb2 Pb 1.09865(4) 0.31230(2) 0.58736(3)
Pb3 Pb 0.98507(3) 0.18567(2) 0.40741(3)
Pb4 Pb 1.07290(3) 0.05882(2) 0.60542(3)
O1 O 0.7399(6) 0.4682(2) 0.3553(6)
O2 O 0.7962(6) 0.4054(2) 0.4545(6)
O3 O 1.0040(7) 0.4700(2) 0.5906(6)
O4 O 1.0871(7) 0.4030(2) 0.5891(6)
O5 O 1.0131(6) 0.3484(2) 0.3958(6)
O6 O 1.0227(7) 0.2751(2) 0.3972(6)
O7 O 1.3471(7) 0.3072(3) 0.6898(6)
O8 O 1.2763(7) 0.3133(3) 0.4997(6)
O9 O 1.1040(7) 0.2231(2) 0.6007(6)
O10 O 1.0341(6) 0.1551(2) 0.6181(5)
O11 O 0.8067(7) 0.2193(2) 0.4613(7)
O12 O 0.7851(6) 0.1481(2) 0.4133(6)
O13 O 1.0352(6) 0.0970(2) 0.4139(6)
O14 O 0.9730(7) 0.0274(2) 0.4033(6)
O15 O 1.3094(7) 0.0892(2) 0.6606(6)
O16 O 1.2513(6) 0.0321(2) 0.5413(6)
N1 N 0.8445(8) 0.3134(3) 0.5734(7)
H1 H 0.825(8) 0.3367(16) 0.525(6)
H2 H 0.811(8) 0.2888(15) 0.538(6)
N2 N 0.8160(13) 0.2434(4) 0.7296(9)
H3 H 0.796(12) 0.2323(18) 0.657(3)
H4 H 0.818(12) 0.2193(12) 0.776(5)
N3 N 0.8106(9) 0.0629(3) 0.5758(7)
H5 H 0.794(9) 0.0893(12) 0.543(7)
H6 H 0.774(8) 0.0418(19) 0.527(6)
N4 N 0.8000(10) 0.1348(3) 0.7272(10)
H7 H 0.827(9) 0.146(3) 0.798(4)
H8 H 0.851(8) 0.142(3) 0.684(7)
C1 C 0.8190(9) 0.3205(3) 0.6868(8)
C2 C 0.8133(10) 0.3672(4) 0.7200(9)
H9 H 0.8224 0.3908 0.6687
C3 C 0.7946(11) 0.3763(4) 0.8272(10)
H10 H 0.7895 0.4067 0.8512
C4 C 0.7832(10) 0.3414(4) 0.9007(10)
H11 H 0.7714 0.3487 0.9753
C5 C 0.7879(10) 0.2975(4) 0.8724(9)
H12 H 0.7771 0.2745 0.9248
C6 C 0.8096(10) 0.2864(4) 0.7613(9)
C7 C 0.7861(9) 0.0904(4) 0.7650(9)
C8 C 0.7876(9) 0.0548(3) 0.6853(9)
C9 C 0.7734(10) 0.0105(4) 0.7208(9)
H13 H 0.7772 -0.0137 0.6695
C10 C 0.7537(11) 0.0016(4) 0.8298(9)
H14 H 0.7385 -0.0283 0.851
C11 C 0.7565(10) 0.0366(4) 0.9073(10)
H15 H 0.7481 0.0302 0.9835
C12 C 0.7711(9) 0.0805(4) 0.8758(9)
H16 H 0.7709 0.1042 0.9297
C13 C 0.7171(9) 0.4340(3) 0.4121(8)
C14 C 0.5894(9) 0.4294(4) 0.4293(10)
H17 H 0.5768 0.3986 0.4536
H18 H 0.5292 0.4361 0.3562
H19 H 0.5783 0.4506 0.4894
C15 C 1.0659(9) 0.4370(3) 0.6435(8)
C16 C 1.1129(12) 0.4395(4) 0.7736(9)
H20 H 1.1738 0.4638 0.7937
H21 H 1.1519 0.4108 0.8026
H22 H 1.0437 0.4454 0.8092
C17 C 0.9977(8) 0.3114(3) 0.3407(7)
C18 C 0.9578(11) 0.3100(4) 0.2115(8)
H23 H 1.0306 0.3075 0.1792
H24 H 0.9126 0.3377 0.183
H25 H 0.9038 0.2839 0.1872
C19 C 1.3646(10) 0.3104(4) 0.5901(10)
C20 C 1.4962(10) 0.3101(4) 0.5755(10)
H26 H 1.5138 0.3389 0.5423
H27 H 1.5059 0.2855 0.5234
H28 H 1.5538 0.3058 0.6514
C21 C 1.0930(9) 0.1891(4) 0.6614(8)
C22 C 1.1513(12) 0.1894(4) 0.7902(8)
H29 H 1.2099 0.2145 0.8089
H30 H 1.1951 0.1609 0.8125
H31 H 1.0867 0.1929 0.8329
C23 C 0.7422(10) 0.1834(4) 0.4410(9)
C24 C 0.6089(10) 0.1854(4) 0.4486(10)
H32 H 0.5571 0.1956 0.374
H33 H 0.6011 0.2066 0.5098
H34 H 0.5821 0.1555 0.4669
C25 C 0.9838(9) 0.0635(3) 0.3540(8)
C26 C 0.9410(10) 0.0680(4) 0.2243(8)
H35 H 0.9203 0.0381 0.1897
H36 H 1.007 0.0813 0.1936
H37 H 0.8677 0.0873 0.2048
C27 C 1.3316(9) 0.0598(4) 0.5943(8)
C28 C 1.4623(9) 0.0562(4) 0.5755(10)
H38 H 1.4851 0.0847 0.5449
H39 H 1.4649 0.0319 0.52
H40 H 1.5207 0.0495 0.6497
Pb1B Pb 1.03277(3) 0.56338(2) 0.60581(3)
Pb3C Pb 1.48507(3) 0.31433(2) 0.90741(3)
Pb4B Pb 0.92710(3) -0.05882(2) 0.39458(3)
O3B O 0.9960(7) 0.5300(2) 0.4094(6)
O7C O 0.8471(7) 0.1928(3) 0.1898(6)
O14B O 1.0270(7) -0.0274(2) 0.5967(6)
loop_
_geom_bond_atom_site_label_1
_geom_bond_atom_site_label_2
_geom_bond_site_symmetry_1
_geom_bond_site_symmetry_2
Pb1 O1 1_555 1_555
Pb2 O4 1_555 1_555
Pb3 O6 1_555 1_555
Pb4 O10 1_555 1_555
O1 C13 1_555 1_555
O2 Pb1 1_555 1_555
O3 Pb1 1_555 1_555
O4 Pb1 1_555 1_555
O5 Pb1 1_555 1_555
O6 Pb2 1_555 1_555
O7 Pb2 1_555 1_555
O8 Pb2 1_555 1_555
O9 Pb2 1_555 1_555
O10 Pb3 1_555 1_555
O11 Pb3 1_555 1_555
O12 Pb3 1_555 1_555
O13 Pb3 1_555 1_555
O14 Pb4 1_555 1_555
O15 Pb4 1_555 1_555
O16 Pb4 1_555 1_555
N1 Pb2 1_555 1_555
H1 N1 1_555 1_555
H2 N1 1_555 1_555
N2 H3 1_555 1_555
H4 N2 1_555 1_555
N3 Pb4 1_555 1_555
H5 N3 1_555 1_555
H6 N3 1_555 1_555
N4 H7 1_555 1_555
H8 N4 1_555 1_555
C1 N1 1_555 1_555
C2 C1 1_555 1_555
H9 C2 1_555 1_555
C3 C2 1_555 1_555
H10 C3 1_555 1_555
C4 C3 1_555 1_555
H11 C4 1_555 1_555
C5 C4 1_555 1_555
H12 C5 1_555 1_555
C6 N2 1_555 1_555
C7 N4 1_555 1_555
C8 N3 1_555 1_555
C9 C8 1_555 1_555
H13 C9 1_555 1_555
C10 C9 1_555 1_555
H14 C10 1_555 1_555
C11 C10 1_555 1_555
H15 C11 1_555 1_555
C12 C7 1_555 1_555
H16 C12 1_555 1_555
C13 O2 1_555 1_555
C14 C13 1_555 1_555
H17 C14 1_555 1_555
H18 C14 1_555 1_555
H19 C14 1_555 1_555
C15 O3 1_555 1_555
C16 C15 1_555 1_555
H20 C16 1_555 1_555
H21 C16 1_555 1_555
H22 C16 1_555 1_555
C17 O5 1_555 1_555
C18 C17 1_555 1_555
H23 C18 1_555 1_555
H24 C18 1_555 1_555
H25 C18 1_555 1_555
C19 O7 1_555 1_555
C20 C19 1_555 1_555
H26 C20 1_555 1_555
H27 C20 1_555 1_555
H28 C20 1_555 1_555
C21 O9 1_555 1_555
C22 C21 1_555 1_555
H29 C22 1_555 1_555
H30 C22 1_555 1_555
H31 C22 1_555 1_555
C23 O11 1_555 1_555
C24 C23 1_555 1_555
H32 C24 1_555 1_555
H33 C24 1_555 1_555
H34 C24 1_555 1_555
C25 O13 1_555 1_555
C26 C25 1_555 1_555
H35 C26 1_555 1_555
H36 C26 1_555 1_555
H37 C26 1_555 1_555
C27 O15 1_555 1_555
C28 C27 1_555 1_555
H38 C28 1_555 1_555
H39 C28 1_555 1_555
H40 C28 1_555 1_555
Pb1B O3 1_555 1_555
Pb3C O7 1_555 1_555
Pb4B O14 1_555 1_555
O3B Pb1 1_555 1_555
O7C Pb3 1_555 1_555
O14B Pb4 1_555 1_555
Pb2 O5 1_555 1_555
Pb3 O9 1_555 1_555
Pb4 O13 1_555 1_555
O4 C15 1_555 1_555
O6 C17 1_555 1_555
O8 C19 1_555 1_555
O10 C21 1_555 1_555
O12 C23 1_555 1_555
O14 C25 1_555 1_555
O16 C27 1_555 1_555
C1 C6 1_555 1_555
C5 C6 1_555 1_555
C7 C8 1_555 1_555
C11 C12 1_555 1_555
Pb1B O3B 1_555 1_555
Pb4B O14B 1_555 1_555

#END
