
#######################################################################
#
#                 Cambridge Crystallographic Data Centre
#                                CCDC 
#
#######################################################################
#
# If this CIF has been generated from an entry in the Cambridge 
# Structural Database, then it will include bibliographic, chemical, 
# crystal, experimental, refinement or atomic coordinate data resulting 
# from the CCDC's data processing and validation procedures.
#
#######################################################################

data_XOVWUB
_symmetry_cell_setting           monoclinic
_symmetry_space_group_name_H-M   'P 21/n'
_symmetry_Int_Tables_number      14
_space_group_name_Hall           '-P 2yn'
loop_
_symmetry_equiv_pos_site_id
_symmetry_equiv_pos_as_xyz
1 x,y,z
2 1/2-x,1/2+y,1/2-z
3 -x,-y,-z
4 1/2+x,1/2-y,1/2+z
_cell_length_a                   12.455(3)
_cell_length_b                   7.0946(17)
_cell_length_c                   14.054(3)
_cell_angle_alpha                90
_cell_angle_beta                 100.897(4)
_cell_angle_gamma                90
_cell_volume                     1219.46
loop_
_atom_site_label
_atom_site_type_symbol
_atom_site_fract_x
_atom_site_fract_y
_atom_site_fract_z
Zn1 Zn 0.52324(3) 1.05757(5) 0.17676(2)
C1 C 0.3751(3) 0.7608(5) 0.1507(2)
C2 C 0.3354(2) 0.5860(4) 0.0928(2)
C3 C 0.3371(2) 0.5761(4) -0.0056(2)
C4 C 0.3623(3) 0.7380(4) -0.0681(2)
C5 C 0.2759(3) 0.2604(5) -0.0102(2)
H1 H 0.2590 0.1491 -0.0447
C6 C 0.2708(3) 0.2687(5) 0.0869(3)
H2 H 0.2485 0.1639 0.1179
C7 C 0.2987(3) 0.4321(4) 0.1377(3)
H3 H 0.2930 0.4394 0.2026
C8 C 0.4588(3) 1.1558(6) 0.3649(3)
H4 H 0.4291 1.0352 0.3607
C9 C 0.4553(3) 1.2624(6) 0.4466(3)
H5 H 0.4229 1.2133 0.4957
C10 C 0.4998(2) 1.4414(4) 0.4558(2)
C11 C 0.5424(3) 1.5077(5) 0.3786(2)
H6 H 0.5707 1.6292 0.3799
C12 C 0.5429(3) 1.3931(5) 0.2994(2)
H7 H 0.5728 1.4400 0.2484
N1 N 0.3058(2) 0.4153(4) -0.05460(18)
N2 N 0.5027(2) 1.2191(4) 0.29228(18)
O1 O 0.42313(19) 0.8797(3) 0.10590(16)
O2 O 0.3617(2) 0.7752(4) 0.23408(18)
O3 O 0.45776(18) 0.7403(3) -0.08741(16)
O4 O 0.2872(2) 0.8469(3) -0.09745(17)
O5 O 0.30156(19) 0.4104(3) -0.15036(15)
O6 O 0.63541(18) 0.8842(3) 0.24746(16)
H8 H 0.6539 0.8055 0.2079
H9 H 0.6909 0.9472 0.2743
Zn1B Zn 0.47676(3) 1.94243(5) 0.82324(2)
Zn1B_2 Zn 0.47676(3) 0.94243(5) -0.17676(2)
C1B C 0.6249(3) 1.2392(5) -0.1507(2)
C2B C 0.6646(2) 1.4140(4) -0.0928(2)
C3B C 0.6629(2) 1.4239(4) 0.0056(2)
C4B C 0.6377(3) 1.2620(4) 0.0681(2)
C5B C 0.7241(3) 1.7396(5) 0.0102(2)
H1B H 0.7410 1.8509 0.0447
C6B C 0.7292(3) 1.7313(5) -0.0869(3)
H2B H 0.7515 1.8361 -0.1179
C7B C 0.7013(3) 1.5679(4) -0.1377(3)
H3B H 0.7070 1.5606 -0.2026
C8B C 0.5412(3) 1.8442(6) 0.6351(3)
H4B H 0.5709 1.9648 0.6393
C9B C 0.5447(3) 1.7376(6) 0.5534(3)
H5B H 0.5771 1.7867 0.5043
C10B C 0.5002(2) 1.5586(4) 0.5442(2)
C11B C 0.4576(3) 1.4923(5) 0.6214(2)
H6B H 0.4293 1.3708 0.6201
C12B C 0.4571(3) 1.6069(5) 0.7006(2)
H7B H 0.4272 1.5600 0.7516
N1B N 0.6942(2) 1.5847(4) 0.05460(18)
N2B N 0.4973(2) 1.7809(4) 0.70772(18)
O1B O 0.57687(19) 1.1203(3) -0.10590(16)
O1B_2 O 0.57687(19) 2.1203(3) 0.89410(16)
O2B O 0.6383(2) 1.2248(4) -0.23408(18)
O3B O 0.54224(18) 1.2597(3) 0.08741(16)
O3_2 O 0.45776(18) 1.7403(3) 0.91259(16)
O4B O 0.7128(2) 1.1531(3) 0.09745(17)
O5B O 0.69844(19) 1.5896(3) 0.15036(15)
O6B O 0.36459(18) 2.1158(3) 0.75254(16)
H8B H 0.3461 2.1945 0.7921
H9B H 0.3091 2.0528 0.7257
loop_
_geom_bond_atom_site_label_1
_geom_bond_atom_site_label_2
_geom_bond_site_symmetry_1
_geom_bond_site_symmetry_2
Zn1 N2 1_555 1_555
C1 C2 1_555 1_555
C2 C3 1_555 1_555
C3 C4 1_555 1_555
C4 O3 1_555 1_555
C5 H1 1_555 1_555
C6 C5 1_555 1_555
H2 C6 1_555 1_555
C7 C2 1_555 1_555
H3 C7 1_555 1_555
C8 H4 1_555 1_555
C9 C8 1_555 1_555
H5 C9 1_555 1_555
C10 C9 1_555 1_555
C11 C10 1_555 1_555
H6 C11 1_555 1_555
C12 C11 1_555 1_555
H7 C12 1_555 1_555
N1 C3 1_555 1_555
N2 C8 1_555 1_555
O1 Zn1 1_555 1_555
O2 C1 1_555 1_555
O3 Zn1B_2 1_555 1_555
O4 C4 1_555 1_555
O5 N1 1_555 1_555
O6 Zn1 1_555 1_555
H8 O6 1_555 1_555
H9 O6 1_555 1_555
Zn1B N2B 1_555 1_555
Zn1B_2 O1B 1_555 1_555
C1B C2B 1_555 1_555
C2B C3B 1_555 1_555
C3B C4B 1_555 1_555
C4B O3B 1_555 1_555
C5B H1B 1_555 1_555
C6B C5B 1_555 1_555
H2B C6B 1_555 1_555
C7B C2B 1_555 1_555
H3B C7B 1_555 1_555
C8B H4B 1_555 1_555
C9B C8B 1_555 1_555
H5B C9B 1_555 1_555
C10B C10 1_555 1_555
C11B C10B 1_555 1_555
H6B C11B 1_555 1_555
C12B C11B 1_555 1_555
H7B C12B 1_555 1_555
N1B C3B 1_555 1_555
N2B C8B 1_555 1_555
O1B C1B 1_555 1_555
O1B_2 Zn1B 1_555 1_555
O2B C1B 1_555 1_555
O3B Zn1 1_555 1_555
O3_2 Zn1B 1_555 1_555
O4B C4B 1_555 1_555
O5B N1B 1_555 1_555
O6B Zn1B 1_555 1_555
H8B O6B 1_555 1_555
H9B O6B 1_555 1_555
C1 O1 1_555 1_555
C5 N1 1_555 1_555
C6 C7 1_555 1_555
C12 N2 1_555 1_555
C5B N1B 1_555 1_555
C6B C7B 1_555 1_555
C9B C10B 1_555 1_555
C12B N2B 1_555 1_555

#END
