
#######################################################################
#
#                 Cambridge Crystallographic Data Centre
#                                CCDC 
#
#######################################################################
#
# If this CIF has been generated from an entry in the Cambridge 
# Structural Database, then it will include bibliographic, chemical, 
# crystal, experimental, refinement or atomic coordinate data resulting 
# from the CCDC's data processing and validation procedures.
#
#######################################################################

data_XOVXOW
_symmetry_cell_setting           monoclinic
_symmetry_space_group_name_H-M   'C 2/c'
_symmetry_Int_Tables_number      15
_space_group_name_Hall           '-C 2yn'
loop_
_symmetry_equiv_pos_site_id
_symmetry_equiv_pos_as_xyz
1 x,y,z
2 -x,y,1/2-z
3 1/2+x,1/2+y,z
4 1/2-x,1/2+y,1/2-z
5 -x,-y,-z
6 x,-y,1/2+z
7 1/2-x,1/2-y,-z
8 1/2+x,1/2-y,1/2+z
_cell_length_a                   26.670(7)
_cell_length_b                   11.677(3)
_cell_length_c                   8.191(2)
_cell_angle_alpha                90
_cell_angle_beta                 107.886(6)
_cell_angle_gamma                90
_cell_volume                     2427.6
loop_
_atom_site_label
_atom_site_type_symbol
_atom_site_fract_x
_atom_site_fract_y
_atom_site_fract_z
Co1 Co 0.630389(19) -0.35106(4) 0.89345(6)
C1 C 0.64888(13) -0.5923(3) 1.0717(4)
C2 C 0.67324(15) -0.7012(3) 1.0739(5)
C3 C 0.67079(14) -0.7626(3) 0.9248(4)
C4 C 0.63498(15) -0.7217(3) 0.7516(5)
C5 C 0.69887(13) -0.8642(3) 0.9398(5)
H1 H 0.6979 -0.9054 0.8417
C6 C 0.72817(13) -0.9046(3) 1.0983(4)
H2 H 0.7476 -0.9718 1.1084
C7 C 0.72797(15) -0.8432(3) 1.2414(5)
H3 H 0.7466 -0.8704 1.3497
C8 C 0.54405(14) -0.2374(3) 0.6259(5)
H4 H 0.5367 -0.3150 0.6066
C9 C 0.50903(15) -0.1588(3) 0.5256(5)
H5 H 0.4795 -0.1840 0.4393
C10 C 0.51790(14) -0.0450(3) 0.5535(5)
C11 C 0.56354(15) -0.0143(3) 0.6813(5)
H6 H 0.5720 0.0626 0.7036
C12 C 0.59667(14) -0.0987(3) 0.7759(5)
H7 H 0.6267 -0.0765 0.8630
N1 N 0.58735(12) -0.2074(3) 0.7476(4)
N2 N 0.70117(12) -0.7443(3) 1.2268(4)
O1 O 0.66551(9) -0.5101(2) 0.9921(3)
O2 O 0.61704(9) -0.5706(2) 1.1526(3)
O3 O 0.55867(8) -0.4049(2) 0.9207(3)
H8 H 0.5632 -0.4662 0.9792
H9 H 0.5471 -0.3528 0.9723
O4 O 0.59140(9) -0.6868(2) 0.7501(3)
O5 O 0.65332(10) -0.7291(2) 0.6296(3)
O6 O 0.70218(9) -0.6878(2) 1.3669(3)
Co1D Co 0.369611(19) 0.35106(4) 0.10655(6)
Co1E Co 0.630389(19) -0.64894(4) 1.39345(6)
Co1E_2 Co 0.630389(19) -0.64894(4) 0.39345(6)
Co1_2 Co 0.630389(19) -0.35106(4) -0.10655(6)
C1E C 0.64888(13) -0.4077(3) 0.5717(4)
C2E C 0.67324(15) -0.2988(3) 0.5739(5)
C3E C 0.67079(14) -0.2374(3) 0.4248(4)
C4E C 0.63498(15) -0.2783(3) 0.2516(5)
C5E C 0.69887(13) -0.1358(3) 0.4398(5)
H1E H 0.6979 -0.0946 0.3417
C6E C 0.72817(13) -0.0954(3) 0.5983(4)
H2E H 0.7476 -0.0282 0.6084
C7E C 0.72797(15) -0.1568(3) 0.7414(5)
H3E H 0.7466 -0.1296 0.8497
C8D C 0.45595(14) 0.2374(3) 0.3741(5)
H4D H 0.4633 0.3150 0.3934
C9D C 0.49097(15) 0.1588(3) 0.4744(5)
H5D H 0.5205 0.1840 0.5607
C10D C 0.48210(14) 0.0450(3) 0.4465(5)
C11D C 0.43646(15) 0.0143(3) 0.3187(5)
H6D H 0.4280 -0.0626 0.2964
C12D C 0.40333(14) 0.0987(3) 0.2241(5)
H7D H 0.3733 0.0765 0.1370
N1D N 0.41265(12) 0.2074(3) 0.2524(4)
N2E N 0.70117(12) -0.2557(3) 0.7268(4)
O1E O 0.66551(9) -0.4899(2) 0.4921(3)
O1D O 0.33449(9) 0.5101(2) 0.0079(3)
O2E O 0.61704(9) -0.4294(2) 0.6526(3)
O2A O 0.38296(9) 0.4294(2) 0.3474(3)
O3D O 0.44133(8) 0.4049(2) 0.0793(3)
H8D H 0.4368 0.4662 0.0208
H9D H 0.4529 0.3528 0.0277
O4E O 0.59140(9) -0.3132(2) 0.2501(3)
O5E O 0.65332(10) -0.2709(2) 0.1296(3)
O5E_2 O 0.65332(10) -0.2709(2) 1.1296(3)
O5A O 0.34668(10) 0.2709(2) -0.1296(3)
O6E O 0.70218(9) -0.3122(2) 0.8669(3)
O6A O 0.29782(9) 0.3122(2) 0.1331(3)
O7 O 0.5000 0.5883(3) 0.2500
H10? H 0.4900 0.6527 0.2026
H11? H 0.4748 0.5627 0.2828
loop_
_geom_bond_atom_site_label_1
_geom_bond_atom_site_label_2
_geom_bond_site_symmetry_1
_geom_bond_site_symmetry_2
Co1 N1 1_555 1_555
C1 C2 1_555 1_555
C2 C3 1_555 1_555
C3 C4 1_555 1_555
C4 O4 1_555 1_555
C5 C3 1_555 1_555
H1 C5 1_555 1_555
C6 C5 1_555 1_555
H2 C6 1_555 1_555
C7 C6 1_555 1_555
H3 C7 1_555 1_555
C8 H4 1_555 1_555
C9 C8 1_555 1_555
H5 C9 1_555 1_555
C10 C9 1_555 1_555
C11 C10 1_555 1_555
H6 C11 1_555 1_555
C12 C11 1_555 1_555
H7 C12 1_555 1_555
N1 C8 1_555 1_555
N2 C2 1_555 1_555
O1 Co1 1_555 1_555
O2 C1 1_555 1_555
O3 Co1 1_555 1_555
H8 O3 1_555 1_555
H9 O3 1_555 1_555
O5 C4 1_555 1_555
O6 N2 1_555 1_555
Co1D N1D 1_555 1_555
Co1E O2 1_555 1_555
Co1E_2 O5 1_555 1_555
Co1_2 O5E 1_555 1_555
C1E C2E 1_555 1_555
C2E C3E 1_555 1_555
C3E C4E 1_555 1_555
C4E O4E 1_555 1_555
C5E C3E 1_555 1_555
H1E C5E 1_555 1_555
C6E C5E 1_555 1_555
H2E C6E 1_555 1_555
C7E C6E 1_555 1_555
H3E C7E 1_555 1_555
C8D H4D 1_555 1_555
C9D C8D 1_555 1_555
H5D C9D 1_555 1_555
C10D C10 1_555 1_555
C11D C10D 1_555 1_555
H6D C11D 1_555 1_555
C12D C11D 1_555 1_555
H7D C12D 1_555 1_555
N1D C8D 1_555 1_555
N2E C2E 1_555 1_555
O1E Co1E_2 1_555 1_555
O1D Co1D 1_555 1_555
O2E Co1 1_555 1_555
O2A Co1D 1_555 1_555
O3D Co1D 1_555 1_555
H8D O3D 1_555 1_555
H9D O3D 1_555 1_555
O5E C4E 1_555 1_555
O5E_2 Co1 1_555 1_555
O5A Co1D 1_555 1_555
O6E Co1 1_555 1_555
O6A Co1D 1_555 1_555
C1 O1 1_555 1_555
C7 N2 1_555 1_555
C12 N1 1_555 1_555
O6 Co1E 1_555 1_555
C1E O1E 1_555 1_555
C1E O2E 1_555 1_555
C7E N2E 1_555 1_555
C9D C10D 1_555 1_555
C12D N1D 1_555 1_555
N2E O6E 1_555 1_555

#END
