
#######################################################################
#
#                 Cambridge Crystallographic Data Centre
#                                CCDC 
#
#######################################################################
#
# If this CIF has been generated from an entry in the Cambridge 
# Structural Database, then it will include bibliographic, chemical, 
# crystal, experimental, refinement or atomic coordinate data resulting 
# from the CCDC's data processing and validation procedures.
#
#######################################################################

data_XOVXIQ
_symmetry_cell_setting           monoclinic
_symmetry_space_group_name_H-M   'P 21'
_symmetry_Int_Tables_number      4
_space_group_name_Hall           'P 2yb'
loop_
_symmetry_equiv_pos_site_id
_symmetry_equiv_pos_as_xyz
1 x,y,z
2 -x,1/2+y,-z
_cell_length_a                   8.4003(11)
_cell_length_b                   10.9826(11)
_cell_length_c                   11.3651(13)
_cell_angle_alpha                90
_cell_angle_beta                 104.022(2)
_cell_angle_gamma                90
_cell_volume                     1017.27
loop_
_atom_site_label
_atom_site_type_symbol
_atom_site_fract_x
_atom_site_fract_y
_atom_site_fract_z
Zn1 Zn 0.21230(7) 0.34509(8) 0.76878(6)
C1 C 0.5316(9) 0.1087(8) 0.9558(7)
H1 H 0.4567 0.0751 0.9949
C2 C 0.6692(9) 0.0425(8) 0.9444(8)
H2 H 0.6830 -0.0380 0.9703
C3 C 0.7843(8) 0.0983(7) 0.8940(7)
H3 H 0.8785 0.0562 0.8891
C4 C 0.7603(8) 0.2178(7) 0.8503(6)
C5 C 0.6169(8) 0.2798(7) 0.8601(6)
C6 C 0.8764(8) 0.2749(7) 0.7847(6)
C7 C 0.5771(9) 0.4072(7) 0.8147(7)
C8 C 1.2314(9) -0.3737(9) 0.7586(8)
H4 H 1.3330 -0.3737 0.7395
C9 C 1.1559(10) -0.2781(9) 0.7803(9)
H5 H 1.1908 -0.1981 0.7771
C10 C 1.0096(8) -0.4384(7) 0.7985(7)
H6 H 0.9267 -0.4892 0.8110
C11 C 0.8855(9) -0.2419(8) 0.8469(7)
H7 H 0.9401 -0.1809 0.9043
H8 H 0.8227 -0.2937 0.8881
C12 C 0.7673(8) -0.1780(7) 0.7411(6)
C13 C 0.8191(9) -0.1073(9) 0.6589(7)
H9 H 0.9301 -0.1048 0.6599
C14 C 0.7067(9) -0.0382(9) 0.5728(8)
H10 H 0.7443 0.0134 0.5206
C15 C 0.5392(9) -0.0470(7) 0.5655(6)
C16 C 0.4914(9) -0.1231(9) 0.6469(8)
H11 H 0.3798 -0.1304 0.6424
C17 C 0.5985(9) -0.1889(8) 0.7344(8)
H12 H 0.5606 -0.2393 0.7875
C18 C 0.4222(9) 0.0246(8) 0.4713(7)
H13 H 0.3491 -0.0440 0.4579
H14 H 0.4216 0.0253 0.3894
C19 C 0.3384(8) 0.1881(7) 0.5963(6)
H15 H 0.4413 0.2247 0.6175
N1 N 0.2071(7) 0.2264(6) 0.6352(6)
C20 C 0.1413(9) 0.0618(8) 0.5147(8)
H16 H 0.0834 -0.0021 0.4702
N2 N 1.1420(7) -0.4757(6) 0.7673(6)
N3 N 1.0108(7) -0.3164(6) 0.8098(6)
N4 N 0.3029(7) 0.0930(6) 0.5248(5)
C21 C 0.0855(9) 0.1433(8) 0.5824(7)
H17 H -0.0209 0.1443 0.5930
N5 N 0.5092(6) 0.2225(6) 0.9090(5)
O1 O 0.3720(5) 0.2815(5) 0.9238(4)
O2 O 0.4458(6) 0.4192(5) 0.7348(5)
O3 O 0.6779(6) 0.4877(5) 0.8602(5)
O4 O 0.8200(6) 0.3191(5) 0.6843(4)
O5 O 1.0290(5) 0.2691(6) 0.8395(5)
Zn1_2 Zn 1.21230(7) -0.65491(8) 0.76878(6)
Zn1_3 Zn 1.21230(7) 0.34509(8) 0.76878(6)
N2_2 N 0.1420(7) 0.5243(6) 0.7673(6)
O5_2 O 0.0290(5) 0.2691(6) 0.8395(5)
O6 O 0.8442(8) 0.5060(8) 0.1098(7)
H18 H 0.8274 0.5789 0.0846
H19 H 0.8106 0.4572 0.0511
loop_
_geom_bond_atom_site_label_1
_geom_bond_atom_site_label_2
_geom_bond_site_symmetry_1
_geom_bond_site_symmetry_2
Zn1 N1 1_555 1_555
C1 H1 1_555 1_555
C2 C1 1_555 1_555
H2 C2 1_555 1_555
C3 C2 1_555 1_555
H3 C3 1_555 1_555
C4 C3 1_555 1_555
C5 C4 1_555 1_555
C6 C4 1_555 1_555
C7 C5 1_555 1_555
C8 H4 1_555 1_555
C9 C8 1_555 1_555
H5 C9 1_555 1_555
C10 H6 1_555 1_555
C11 H7 1_555 1_555
H8 C11 1_555 1_555
C12 C11 1_555 1_555
C13 C12 1_555 1_555
H9 C13 1_555 1_555
C14 C13 1_555 1_555
H10 C14 1_555 1_555
C15 C14 1_555 1_555
C16 C15 1_555 1_555
H11 C16 1_555 1_555
C17 C12 1_555 1_555
H12 C17 1_555 1_555
C18 C15 1_555 1_555
H13 C18 1_555 1_555
H14 C18 1_555 1_555
C19 H15 1_555 1_555
N1 C19 1_555 1_555
C20 H16 1_555 1_555
N2 C8 1_555 1_555
N3 C9 1_555 1_555
N4 C18 1_555 1_555
C21 N1 1_555 1_555
H17 C21 1_555 1_555
N5 C1 1_555 1_555
O1 Zn1 1_555 1_555
O2 Zn1 1_555 1_555
O3 C7 1_555 1_555
O4 C6 1_555 1_555
O5 C6 1_555 1_555
O6 H18 1_555 1_555
H19 O6 1_555 1_555
Zn1_2 N2 1_555 1_555
Zn1_3 O5 1_555 1_555
N2_2 Zn1 1_555 1_555
O5_2 Zn1 1_555 1_555
C5 N5 1_555 1_555
C7 O2 1_555 1_555
C10 N2 1_555 1_555
C10 N3 1_555 1_555
C11 N3 1_555 1_555
C16 C17 1_555 1_555
C19 N4 1_555 1_555
C20 N4 1_555 1_555
C20 C21 1_555 1_555
N5 O1 1_555 1_555

#END
