
#######################################################################
#
#                 Cambridge Crystallographic Data Centre
#                                CCDC 
#
#######################################################################
#
# If this CIF has been generated from an entry in the Cambridge 
# Structural Database, then it will include bibliographic, chemical, 
# crystal, experimental, refinement or atomic coordinate data resulting 
# from the CCDC's data processing and validation procedures.
#
#######################################################################

data_XOVYOX
_symmetry_cell_setting           triclinic
_symmetry_space_group_name_H-M   'P -1'
_symmetry_Int_Tables_number      2
_space_group_name_Hall           '-P 1'
loop_
_symmetry_equiv_pos_site_id
_symmetry_equiv_pos_as_xyz
1 x,y,z
2 -x,-y,-z
_cell_length_a                   10.3937(19)
_cell_length_b                   11.728(2)
_cell_length_c                   12.594(2)
_cell_angle_alpha                102.077(4)
_cell_angle_beta                 99.661(4)
_cell_angle_gamma                115.816(3)
_cell_volume                     1291.59
loop_
_atom_site_label
_atom_site_type_symbol
_atom_site_fract_x
_atom_site_fract_y
_atom_site_fract_z
Co1 Co 0.72118(6) 0.79446(6) 0.38104(5)
C1 C 0.4653(5) 0.7435(5) 0.4822(4)
H1 H 0.4921 0.6982 0.5261
C2 C 0.4539(4) 0.8418(4) 0.3575(3)
C3 C 0.4744(5) 0.9003(4) 0.2729(4)
H2 H 0.5460 0.9034 0.2364
C4 C 0.3842(5) 0.9539(5) 0.2449(5)
H3 H 0.3936 0.9922 0.1870
C5 C 0.2820(6) 0.9521(5) 0.2998(6)
H4 H 0.2244 0.9906 0.2787
C6 C 0.2599(5) 0.8968(5) 0.3838(6)
H5 H 0.1896 0.8972 0.4207
C7 C 0.3478(4) 0.8391(4) 0.4126(4)
C8 C 0.2733(5) 0.7558(5) 0.5744(5)
H6 H 0.2474 0.8262 0.5919
H7 H 0.3366 0.7625 0.6440
C9 C 0.1312(4) 0.6217(4) 0.5335(4)
C10 C 0.0079(5) 0.5976(5) 0.4511(4)
H8 H 0.0124 0.6626 0.4181
C11 C -0.1218(5) 0.4763(5) 0.4181(4)
H9 H -0.2043 0.4602 0.3624
C12 C 0.7323(5) 0.6617(5) 0.1576(4)
H10 H 0.7978 0.7450 0.1546
C13 C 0.5861(4) 0.5095(4) 0.2124(3)
C14 C 0.4958(5) 0.4350(5) 0.2692(4)
H11 H 0.4920 0.4751 0.3397
C15 C 0.4119(6) 0.2989(6) 0.2164(5)
H12 H 0.3469 0.2467 0.2506
C16 C 0.4219(7) 0.2371(5) 0.1128(5)
H13 H 0.3656 0.1447 0.0808
C17 C 0.5128(6) 0.3097(5) 0.0572(4)
H14 H 0.5187 0.2695 -0.0124
C18 C 0.5962(5) 0.4478(4) 0.1113(3)
C19 C 0.7381(6) 0.5365(5) -0.0244(4)
H15 H 0.7617 0.6172 -0.0447
H16 H 0.6569 0.4621 -0.0868
C20 C 0.8739(5) 0.5167(5) -0.0094(3)
C21 C 0.8663(5) 0.4008(4) -0.0744(4)
H17 H 0.7756 0.3328 -0.1253
C22 C 0.9916(5) 0.3858(5) -0.0642(4)
H18 H 0.9841 0.3077 -0.1084
C23 C 1.0939(4) 0.9964(5) 0.6930(4)
C24 C 1.0539(3) 0.8702(2) 0.7200(2)
N1 N 1.1605(2) 0.8854(2) 0.8129(2)
C25 C 1.1395(3) 0.7772(3) 0.85079(19)
H19 H 1.2108 0.7874 0.9129
C26 C 1.0120(3) 0.6539(2) 0.7958(2)
H20 H 0.9979 0.5815 0.8211
C27 C 0.9054(3) 0.6387(2) 0.7029(2)
H21 H 0.8201 0.5561 0.6661
C28 C 0.9264(3) 0.7468(3) 0.66505(19)
C29 C 0.8153(5) 0.7290(5) 0.5630(4)
N2 N 0.5281(4) 0.7818(4) 0.4039(3)
N3 N 0.3582(4) 0.7772(4) 0.4916(3)
N4 N 0.6751(4) 0.6458(3) 0.2413(3)
N5 N 0.6883(4) 0.5469(4) 0.0758(3)
O1 O 0.8645(3) 0.8159(3) 0.5141(3)
O2 O 0.6869(4) 0.6332(4) 0.5330(3)
O3 O 1.2711(4) 0.9993(5) 0.8697(3)
O4 O 1.0313(4) 1.0587(3) 0.7255(3)
O5 O 1.1923(3) 1.0301(3) 0.6425(3)
Co1A Co -0.72118(6) 0.20554(6) 0.61896(5)
Co1_2 Co -1.27882(6) -0.20554(6) 0.38104(5)
Co1A_2 Co 1.27882(6) 0.20554(6) -0.38104(5)
Co1A_3 Co 1.27882(6) 1.20554(6) 0.61896(5)
C1A C -0.4653(5) 0.2565(5) 0.5178(4)
H1A H -0.4921 0.3018 0.4739
C2A C -0.4539(4) 0.1582(4) 0.6425(3)
C3A C -0.4744(5) 0.0997(4) 0.7271(4)
H2A H -0.5460 0.0966 0.7636
C4A C -0.3842(5) 0.0461(5) 0.7551(5)
H3A H -0.3936 0.0078 0.8130
C5A C -0.2820(6) 0.0479(5) 0.7002(6)
H4A H -0.2244 0.0094 0.7213
C6A C -0.2599(5) 0.1032(5) 0.6162(6)
H5A H -0.1896 0.1028 0.5793
C7A C -0.3478(4) 0.1609(4) 0.5874(4)
C8A C -0.2733(5) 0.2442(5) 0.4256(5)
H6A H -0.2474 0.1738 0.4081
H7A H -0.3366 0.2375 0.3560
C9A C -0.1312(4) 0.3783(4) 0.4665(4)
C10A C -0.0079(5) 0.4024(5) 0.5489(4)
H8A H -0.0124 0.3374 0.5819
C11A C 0.1218(5) 0.5237(5) 0.5819(4)
H9A H 0.2043 0.5398 0.6376
C12A C 1.2677(5) 0.3383(5) -0.1576(4)
H10A H 1.2022 0.2550 -0.1546
C13A C 1.4139(4) 0.4905(4) -0.2124(3)
C14A C 1.5042(5) 0.5650(5) -0.2692(4)
H11A H 1.5080 0.5249 -0.3397
C15A C 1.5881(6) 0.7011(6) -0.2164(5)
H12A H 1.6531 0.7533 -0.2506
C16A C 1.5781(7) 0.7629(5) -0.1128(5)
H13A H 1.6344 0.8553 -0.0808
C17A C 1.4872(6) 0.6903(5) -0.0572(4)
H14A H 1.4813 0.7305 0.0124
C18A C 1.4038(5) 0.5522(4) -0.1113(3)
C19A C 1.2619(6) 0.4635(5) 0.0244(4)
H15A H 1.2383 0.3828 0.0447
H16A H 1.3431 0.5379 0.0868
C20A C 1.1261(5) 0.4833(5) 0.0094(3)
C21A C 1.1337(5) 0.5992(4) 0.0744(4)
H17A H 1.2244 0.6672 0.1253
C22A C 1.0084(5) 0.6142(5) 0.0642(4)
H18A H 1.0159 0.6923 0.1084
C23A C -1.0939(4) 0.0036(5) 0.3070(4)
C24A C -1.0539(3) 0.1298(2) 0.2800(2)
N1A N -1.1605(2) 0.1146(2) 0.1871(2)
C25A C -1.1395(3) 0.2228(3) 0.14921(19)
H19A H -1.2108 0.2126 0.0871
C26A C -1.0120(3) 0.3461(2) 0.2042(2)
H20A H -0.9979 0.4185 0.1789
C27A C -0.9054(3) 0.3613(2) 0.2971(2)
H21A H -0.8201 0.4439 0.3339
C28A C -0.9264(3) 0.2532(3) 0.33495(19)
C29A C -0.8153(5) 0.2710(5) 0.4370(4)
N2A N -0.5281(4) 0.2182(4) 0.5961(3)
N3A N -0.3582(4) 0.2228(4) 0.5084(3)
N4A N 1.3249(4) 0.3542(3) -0.2413(3)
N4A_2 N -0.6751(4) 0.3542(3) 0.7587(3)
N5A N 1.3117(4) 0.4531(4) -0.0758(3)
O1A O -0.8645(3) 0.1841(3) 0.4859(3)
O2A O -0.6869(4) 0.3668(4) 0.4670(3)
O3A O -1.2711(4) 0.0007(5) 0.1303(3)
O4A O -1.0313(4) -0.0587(3) 0.2745(3)
O5A O -1.1923(3) -0.0301(3) 0.3575(3)
O5_2 O -0.8077(3) 0.0301(3) 0.6425(3)
O5A_2 O 0.8077(3) 0.9699(3) 0.3575(3)
O6 O -0.0015(19) 0.0679(15) 0.9570(11)
H22 H 0.0346 0.1204 0.9195
H23 H 0.0034 0.1126 1.0216
loop_
_geom_bond_atom_site_label_1
_geom_bond_atom_site_label_2
_geom_bond_site_symmetry_1
_geom_bond_site_symmetry_2
Co1 N2 1_555 1_555
C1 H1 1_555 1_555
C2 C3 1_555 1_555
C3 H2 1_555 1_555
C4 C3 1_555 1_555
H3 C4 1_555 1_555
C5 C4 1_555 1_555
H4 C5 1_555 1_555
C6 C5 1_555 1_555
H5 C6 1_555 1_555
C7 C2 1_555 1_555
C8 H6 1_555 1_555
H7 C8 1_555 1_555
C9 C8 1_555 1_555
C10 C9 1_555 1_555
H8 C10 1_555 1_555
C11 C10 1_555 1_555
H9 C11 1_555 1_555
C12 H10 1_555 1_555
C13 C14 1_555 1_555
C14 H11 1_555 1_555
C15 C14 1_555 1_555
H12 C15 1_555 1_555
C16 C15 1_555 1_555
H13 C16 1_555 1_555
C17 C16 1_555 1_555
H14 C17 1_555 1_555
C18 C13 1_555 1_555
C19 H15 1_555 1_555
H16 C19 1_555 1_555
C20 C19 1_555 1_555
C21 C20 1_555 1_555
H17 C21 1_555 1_555
C22 C21 1_555 1_555
H18 C22 1_555 1_555
C23 C24 1_555 1_555
C24 N1 1_555 1_555
N1 C25 1_555 1_555
C25 H19 1_555 1_555
C26 C25 1_555 1_555
H20 C26 1_555 1_555
C27 C26 1_555 1_555
H21 C27 1_555 1_555
C28 C24 1_555 1_555
C29 C28 1_555 1_555
N2 C1 1_555 1_555
N3 C1 1_555 1_555
N4 Co1 1_555 1_555
N5 C12 1_555 1_555
O1 Co1 1_555 1_555
O2 C29 1_555 1_555
O3 N1 1_555 1_555
O4 C23 1_555 1_555
O5 C23 1_555 1_555
O6 H22 1_555 1_555
H23 O6 1_555 1_555
Co1A N2A 1_555 1_555
Co1_2 O5A 1_555 1_555
Co1A_2 N4A 1_555 1_555
Co1A_3 O5 1_555 1_555
C1A H1A 1_555 1_555
C2A C3A 1_555 1_555
C3A H2A 1_555 1_555
C4A C3A 1_555 1_555
H3A C4A 1_555 1_555
C5A C4A 1_555 1_555
H4A C5A 1_555 1_555
C6A C5A 1_555 1_555
H5A C6A 1_555 1_555
C7A C2A 1_555 1_555
C8A H6A 1_555 1_555
H7A C8A 1_555 1_555
C9A C11 1_555 1_555
C10A C9A 1_555 1_555
H8A C10A 1_555 1_555
C11A C9 1_555 1_555
H9A C11A 1_555 1_555
C12A H10A 1_555 1_555
C13A C14A 1_555 1_555
C14A H11A 1_555 1_555
C15A C14A 1_555 1_555
H12A C15A 1_555 1_555
C16A C15A 1_555 1_555
H13A C16A 1_555 1_555
C17A C16A 1_555 1_555
H14A C17A 1_555 1_555
C18A C13A 1_555 1_555
C19A H15A 1_555 1_555
H16A C19A 1_555 1_555
C20A C22 1_555 1_555
C21A C20A 1_555 1_555
H17A C21A 1_555 1_555
C22A C20 1_555 1_555
H18A C22A 1_555 1_555
C23A C24A 1_555 1_555
C24A N1A 1_555 1_555
N1A C25A 1_555 1_555
C25A H19A 1_555 1_555
C26A C25A 1_555 1_555
H20A C26A 1_555 1_555
C27A C26A 1_555 1_555
H21A C27A 1_555 1_555
C28A C24A 1_555 1_555
C29A C28A 1_555 1_555
N2A C1A 1_555 1_555
N3A C1A 1_555 1_555
N4A C12A 1_555 1_555
N4A_2 Co1A 1_555 1_555
N5A C12A 1_555 1_555
O1A Co1A 1_555 1_555
O2A C29A 1_555 1_555
O3A N1A 1_555 1_555
O4A C23A 1_555 1_555
O5A C23A 1_555 1_555
O5_2 Co1A 1_555 1_555
O5A_2 Co1 1_555 1_555
C2 N2 1_555 1_555
C6 C7 1_555 1_555
C7 N3 1_555 1_555
C8 N3 1_555 1_555
C12 N4 1_555 1_555
C13 N4 1_555 1_555
C17 C18 1_555 1_555
C18 N5 1_555 1_555
C19 N5 1_555 1_555
C27 C28 1_555 1_555
C29 O1 1_555 1_555
C2A N2A 1_555 1_555
C6A C7A 1_555 1_555
C7A N3A 1_555 1_555
C8A C9A 1_555 1_555
C8A N3A 1_555 1_555
C10A C11A 1_555 1_555
C13A N4A 1_555 1_555
C17A C18A 1_555 1_555
C18A N5A 1_555 1_555
C19A C20A 1_555 1_555
C19A N5A 1_555 1_555
C21A C22A 1_555 1_555
C27A C28A 1_555 1_555
C29A O1A 1_555 1_555

#END
