
#######################################################################
#
#                 Cambridge Crystallographic Data Centre
#                                CCDC 
#
#######################################################################
#
# If this CIF has been generated from an entry in the Cambridge 
# Structural Database, then it will include bibliographic, chemical, 
# crystal, experimental, refinement or atomic coordinate data resulting 
# from the CCDC's data processing and validation procedures.
#
#######################################################################

data_XOVYEN
_symmetry_cell_setting           monoclinic
_symmetry_space_group_name_H-M   'C 2/c'
_symmetry_Int_Tables_number      15
_space_group_name_Hall           '-C 2yn'
loop_
_symmetry_equiv_pos_site_id
_symmetry_equiv_pos_as_xyz
1 x,y,z
2 -x,y,1/2-z
3 1/2+x,1/2+y,z
4 1/2-x,1/2+y,1/2-z
5 -x,-y,-z
6 x,-y,1/2+z
7 1/2-x,1/2-y,-z
8 1/2+x,1/2-y,1/2+z
_cell_length_a                   19.914(4)
_cell_length_b                   11.607(2)
_cell_length_c                   15.188(3)
_cell_angle_alpha                90
_cell_angle_beta                 100.896(4)
_cell_angle_gamma                90
_cell_volume                     3447.29
loop_
_atom_site_label
_atom_site_type_symbol
_atom_site_fract_x
_atom_site_fract_y
_atom_site_fract_z
Mn1 Mn 0.5000 0.58964(5) 0.2500
Mn2 Mn 0.2500 0.7500 0.0000
C1 C 0.54170(16) 0.3350(2) 0.2086(2)
H1 H 0.5708 0.3756 0.1787
C2 C 0.54431(16) 0.2166(2) 0.2075(2)
H2 H 0.5753 0.1788 0.1787
C3 C 0.5000 0.1542(3) 0.2500
C4 C 0.5000 0.0255(3) 0.2500
C5 C 0.44020(16) -0.0357(2) 0.2478(2)
H3 H 0.3989 0.0025 0.2462
C6 C 0.44283(15) -0.1540(2) 0.2480(2)
H4 H 0.4022 -0.1941 0.2466
C7 C 0.33428(13) 0.5691(2) 0.15824(17)
C8 C 0.31396(13) 0.4446(2) 0.14798(17)
C9 C 0.37904(14) 0.3994(2) 0.02449(19)
C10 C 0.33438(15) 0.3655(2) 0.08890(19)
C11 C 0.31299(17) 0.2525(3) 0.0917(2)
H5 H 0.3264 0.1988 0.0530
C12 C 0.2723(2) 0.2178(3) 0.1506(2)
H6 H 0.2581 0.1416 0.1516
C13 C 0.25308(17) 0.2971(3) 0.2078(2)
H7 H 0.2257 0.2749 0.2481
C14 C 0.15346(15) 0.5400(3) 0.0146(3)
H8 H 0.1953 0.5021 0.0285
C15 C 0.09500(15) 0.4784(2) 0.0177(2)
H9 H 0.0980 0.4007 0.0331
C16 C 0.03209(13) 0.5313(2) -0.00193(18)
C17 C 0.03181(13) 0.6457(2) -0.0236(2)
H10 H -0.0093 0.6858 -0.0365
C18 C 0.09284(15) 0.7019(2) -0.0265(2)
H11 H 0.0912 0.7792 -0.0429
N1 N 0.5000 0.3945(3) 0.2500
N2 N 0.5000 -0.2155(3) 0.2500
N3 N 0.15324(12) 0.65101(19) -0.00724(17)
N4 N 0.27379(12) 0.40709(19) 0.20552(15)
O1 O 0.38910(10) 0.59138(16) 0.21045(13)
O2 O 0.29482(9) 0.64262(15) 0.11567(13)
O3 O 0.39272(10) 0.50435(16) 0.01965(13)
O4 O 0.39893(13) 0.32227(19) -0.01992(17)
O5 O 0.25389(12) 0.48119(18) 0.26204(13)
O6 O 0.51060(11) 0.58351(19) 0.11231(14)
H12 H 0.5123 0.6519 0.0928
H13 H 0.5474 0.5483 0.1086
O7 O 0.20974(12) 0.87947(19) 0.07893(15)
H14 H 0.2391 0.9329 0.0925
H15 H 0.2017 0.8485 0.1266
Mn1_2 Mn 0.5000 -0.41036(5) 0.2500
Mn2B Mn -0.2500 0.2500 0.0000
Mn2A Mn 0.7500 0.7500 0.5000
C1A C 0.45830(16) 0.3350(2) 0.2914(2)
H1A H 0.4292 0.3756 0.3213
C2A C 0.45569(16) 0.2166(2) 0.2925(2)
H2A H 0.4247 0.1788 0.3213
C5A C 0.55980(16) -0.0357(2) 0.2522(2)
H3A H 0.6011 0.0025 0.2538
C6A C 0.55717(15) -0.1540(2) 0.2520(2)
H4A H 0.5978 -0.1941 0.2534
C7A C 0.66572(13) 0.5691(2) 0.34176(17)
C8A C 0.68604(13) 0.4446(2) 0.35202(17)
C9A C 0.62096(14) 0.3994(2) 0.47551(19)
C10A C 0.66562(15) 0.3655(2) 0.41110(19)
C11A C 0.68701(17) 0.2525(3) 0.4083(2)
H5A H 0.6736 0.1988 0.4470
C12A C 0.7277(2) 0.2178(3) 0.3494(2)
H6A H 0.7419 0.1416 0.3484
C13A C 0.74692(17) 0.2971(3) 0.2922(2)
H7A H 0.7743 0.2749 0.2519
C14D C -0.15346(15) 0.4600(3) -0.0146(3)
H8D H -0.1953 0.4979 -0.0285
C15D C -0.09500(15) 0.5216(2) -0.0177(2)
H9D H -0.0980 0.5993 -0.0331
C16D C -0.03209(13) 0.4687(2) 0.00193(18)
C17D C -0.03181(13) 0.3543(2) 0.0236(2)
H10D H 0.0093 0.3142 0.0365
C18D C -0.09284(15) 0.2981(2) 0.0265(2)
H11D H -0.0912 0.2208 0.0429
N2_2 N 0.5000 0.7845(3) 0.2500
N3D N -0.15324(12) 0.34899(19) 0.00724(17)
N3F N 0.34676(12) 0.84899(19) 0.00724(17)
N4A N 0.72621(12) 0.40709(19) 0.29448(15)
O1A O 0.61090(10) 0.59138(16) 0.28955(13)
O2A O 0.70518(9) 0.64262(15) 0.38433(13)
O2F O 0.20518(9) 0.85738(15) -0.11567(13)
O3A O 0.60728(10) 0.50435(16) 0.48035(13)
O4A O 0.60107(13) 0.32227(19) 0.51992(17)
O5A O 0.74611(12) 0.48119(18) 0.23796(13)
O6A O 0.48940(11) 0.58351(19) 0.38769(14)
H12A H 0.4877 0.6519 0.4072
H13A H 0.4526 0.5483 0.3914
O7F O 0.29026(12) 0.62053(19) -0.07893(15)
H14F H 0.2609 0.5671 -0.0925
H15F H 0.2983 0.6515 -0.1266
loop_
_geom_bond_atom_site_label_1
_geom_bond_atom_site_label_2
_geom_bond_site_symmetry_1
_geom_bond_site_symmetry_2
Mn1 N1 1_555 1_555
Mn2 N3 1_555 1_555
C1 H1 1_555 1_555
C2 C1 1_555 1_555
H2 C2 1_555 1_555
C3 C2 1_555 1_555
C4 C3 1_555 1_555
C5 C4 1_555 1_555
H3 C5 1_555 1_555
C6 C5 1_555 1_555
H4 C6 1_555 1_555
C7 C8 1_555 1_555
C8 C10 1_555 1_555
C9 C10 1_555 1_555
C10 C11 1_555 1_555
C11 H5 1_555 1_555
C12 C11 1_555 1_555
H6 C12 1_555 1_555
C13 C12 1_555 1_555
H7 C13 1_555 1_555
C14 H8 1_555 1_555
C15 C14 1_555 1_555
H9 C15 1_555 1_555
C16 C15 1_555 1_555
C17 C16 1_555 1_555
H10 C17 1_555 1_555
C18 C17 1_555 1_555
H11 C18 1_555 1_555
N1 C1 1_555 1_555
N2 C6 1_555 1_555
N3 C14 1_555 1_555
N4 C8 1_555 1_555
O1 Mn1 1_555 1_555
O2 Mn2 1_555 1_555
O3 C9 1_555 1_555
O4 C9 1_555 1_555
O5 N4 1_555 1_555
O6 Mn1 1_555 1_555
H12 O6 1_555 1_555
H13 O6 1_555 1_555
O7 Mn2 1_555 1_555
H14 O7 1_555 1_555
H15 O7 1_555 1_555
Mn1_2 N2 1_555 1_555
Mn2B N3D 1_555 1_555
Mn2A O2A 1_555 1_555
C1A N1 1_555 1_555
H1A C1A 1_555 1_555
C2A C3 1_555 1_555
H2A C2A 1_555 1_555
C5A C4 1_555 1_555
H3A C5A 1_555 1_555
C6A N2 1_555 1_555
H4A C6A 1_555 1_555
C7A C8A 1_555 1_555
C8A C10A 1_555 1_555
C9A C10A 1_555 1_555
C10A C11A 1_555 1_555
C11A H5A 1_555 1_555
C12A C11A 1_555 1_555
H6A C12A 1_555 1_555
C13A C12A 1_555 1_555
H7A C13A 1_555 1_555
C14D H8D 1_555 1_555
C15D C14D 1_555 1_555
H9D C15D 1_555 1_555
C16D C16 1_555 1_555
C17D C16D 1_555 1_555
H10D C17D 1_555 1_555
C18D C17D 1_555 1_555
H11D C18D 1_555 1_555
N2_2 Mn1 1_555 1_555
N3D C14D 1_555 1_555
N3F Mn2 1_555 1_555
N4A C8A 1_555 1_555
O1A Mn1 1_555 1_555
O2A C7A 1_555 1_555
O2F Mn2 1_555 1_555
O3A C9A 1_555 1_555
O4A C9A 1_555 1_555
O5A N4A 1_555 1_555
O6A Mn1 1_555 1_555
H12A O6A 1_555 1_555
H13A O6A 1_555 1_555
O7F Mn2 1_555 1_555
H14F O7F 1_555 1_555
H15F O7F 1_555 1_555
C7 O1 1_555 1_555
C7 O2 1_555 1_555
C13 N4 1_555 1_555
C18 N3 1_555 1_555
C1A C2A 1_555 1_555
C5A C6A 1_555 1_555
C7A O1A 1_555 1_555
C13A N4A 1_555 1_555
C15D C16D 1_555 1_555
C18D N3D 1_555 1_555

#END
