
#######################################################################
#
#                 Cambridge Crystallographic Data Centre
#                                CCDC 
#
#######################################################################
#
# If this CIF has been generated from an entry in the Cambridge 
# Structural Database, then it will include bibliographic, chemical, 
# crystal, experimental, refinement or atomic coordinate data resulting 
# from the CCDC's data processing and validation procedures.
#
#######################################################################

data_XOVYAJ
_symmetry_cell_setting           monoclinic
_symmetry_space_group_name_H-M   'C 2'
_symmetry_Int_Tables_number      5
_space_group_name_Hall           'C 2y'
loop_
_symmetry_equiv_pos_site_id
_symmetry_equiv_pos_as_xyz
1 x,y,z
2 -x,y,-z
3 1/2+x,1/2+y,z
4 1/2-x,1/2+y,-z
_cell_length_a                   10.536(3)
_cell_length_b                   11.077(3)
_cell_length_c                   14.174(4)
_cell_angle_alpha                90
_cell_angle_beta                 105.124(6)
_cell_angle_gamma                90
_cell_volume                     1596.91
loop_
_atom_site_label
_atom_site_type_symbol
_atom_site_fract_x
_atom_site_fract_y
_atom_site_fract_z
Cu1 Cu 0.0000 0.13075(4) 0.0000
Cu2 Cu 0.5000 0.36836(4) 0.5000
O1 O 0.6215(3) 0.3369(3) 0.3745(2)
C1 C 0.1132(3) -0.6264(5) 0.0177(2)
H1 H 0.1921 -0.6685 0.0294
C2 C 0.5352(4) -0.3871(4) 0.4301(3)
H2 H 0.5587 -0.4287 0.3802
O2 O 0.3320(3) 0.4414(3) 0.2285(2)
C3 C 0.3673(3) 0.3699(4) 0.2975(3)
O3 O 0.3514(2) 0.3841(3) 0.38193(18)
C4 C 0.0903(4) -0.2382(4) 0.0689(3)
H3 H 0.1546 -0.2776 0.1164
C5 C 0.0850(4) -0.1158(4) 0.0670(3)
H4 H 0.1447 -0.0735 0.1158
N1 N 0.0000 -0.0536(5) 0.0000
N2 N 0.5606(3) 0.2457(3) 0.3195(2)
C6 C 0.4298(4) 0.2554(3) 0.2781(3)
N3 N 0.5000 0.1849(5) 0.5000
C7 C 0.6272(4) 0.1437(4) 0.3117(3)
H5 H 0.7169 0.1390 0.3411
C8 C 0.3630(3) 0.1592(3) 0.2232(2)
C9 C 0.4301(4) 0.0548(4) 0.2158(3)
H6 H 0.3863 -0.0107 0.1809
C10 C 0.5633(4) 0.0477(4) 0.2607(3)
H7 H 0.6092 -0.0228 0.2560
C11 C 0.0000 -0.4349(7) 0.0000
O4 O 0.1779(2) 0.1277(3) 0.09346(16)
C12 C 0.5383(4) -0.2641(4) 0.4286(3)
H8 H 0.5660 -0.2241 0.3799
C13 C 0.1165(4) -0.5019(4) 0.0192(3)
H9 H 0.1970 -0.4621 0.0331
N4 N 0.0000 -0.6893(5) 0.0000
C14 C 0.2166(3) 0.1699(3) 0.1791(3)
C15 C 0.6110(4) 0.1224(5) 0.5361(3)
H12 H 0.6887 0.1646 0.5619
C16 C 0.6144(4) 0.0005(4) 0.5363(3)
H13 H 0.6935 -0.0400 0.5608
O6 O 0.1489(3) 0.2163(3) 0.2277(2)
C17 C 0.5000 -0.0635(6) 0.5000
N5 N 0.5000 -0.4517(5) 0.5000
C18 C 0.0000 -0.3043(6) 0.0000
C19 C 0.5000 -0.1986(7) 0.5000
Cu1_2 Cu 0.0000 -0.86925(4) 0.0000
Cu2_2 Cu 0.5000 -0.63164(4) 0.5000
Cu2_3 Cu -0.5000 0.36836(4) -0.5000
O1A O -0.6215(3) 0.3369(3) -0.3745(2)
C1A C -0.1132(3) -0.6264(5) -0.0177(2)
H1A H -0.1921 -0.6685 -0.0294
C2A C 0.4648(4) -0.3871(4) 0.5699(3)
H2A H 0.4413 -0.4287 0.6198
O2A O -0.3320(3) 0.4414(3) -0.2285(2)
C3A C -0.3673(3) 0.3699(4) -0.2975(3)
O3A O -0.3514(2) 0.3841(3) -0.38193(18)
O3A_2 O 0.6486(2) 0.3841(3) 0.61807(18)
C4A C -0.0903(4) -0.2382(4) -0.0689(3)
H3A H -0.1546 -0.2776 -0.1164
C5A C -0.0850(4) -0.1158(4) -0.0670(3)
H4A H -0.1447 -0.0735 -0.1158
N2A N -0.5606(3) 0.2457(3) -0.3195(2)
C6A C -0.4298(4) 0.2554(3) -0.2781(3)
C7A C -0.6272(4) 0.1437(4) -0.3117(3)
H5A H -0.7169 0.1390 -0.3411
C8A C -0.3630(3) 0.1592(3) -0.2232(2)
C9A C -0.4301(4) 0.0548(4) -0.2158(3)
H6A H -0.3863 -0.0107 -0.1809
C10A C -0.5633(4) 0.0477(4) -0.2607(3)
H7A H -0.6092 -0.0228 -0.2560
O4A O -0.1779(2) 0.1277(3) -0.09346(16)
C12A C 0.4617(4) -0.2641(4) 0.5714(3)
H8A H 0.4340 -0.2241 0.6201
C13A C -0.1165(4) -0.5019(4) -0.0192(3)
H9A H -0.1970 -0.4621 -0.0331
N4_2 N 0.0000 0.3107(5) 0.0000
C14A C -0.2166(3) 0.1699(3) -0.1791(3)
C15A C 0.3890(4) 0.1224(5) 0.4639(3)
H12A H 0.3113 0.1646 0.4381
C16A C 0.3856(4) 0.0005(4) 0.4637(3)
H13A H 0.3065 -0.0400 0.4392
O6A O -0.1489(3) 0.2163(3) -0.2277(2)
N5_2 N 0.5000 0.5483(5) 0.5000
O5 O -0.1038(3) 0.1473(3) 0.1396(2)
H10 H -0.0777 0.2202 0.1436
H11 H -0.0715 0.1117 0.1936
loop_
_geom_bond_atom_site_label_1
_geom_bond_atom_site_label_2
_geom_bond_site_symmetry_1
_geom_bond_site_symmetry_2
Cu1 N1 1_555 1_555
Cu2 O3 1_555 1_555
O1 N2 1_555 1_555
C1 H1 1_555 1_555
C2 H2 1_555 1_555
O2 C3 1_555 1_555
C3 O3 1_555 1_555
C4 H3 1_555 1_555
C5 C4 1_555 1_555
H4 C5 1_555 1_555
N1 C5 1_555 1_555
N2 C6 1_555 1_555
C6 C3 1_555 1_555
N3 Cu2 1_555 1_555
C7 N2 1_555 1_555
H5 C7 1_555 1_555
C8 C6 1_555 1_555
C9 C8 1_555 1_555
H6 C9 1_555 1_555
C10 C7 1_555 1_555
H7 C10 1_555 1_555
C11 C13 1_555 1_555
O4 Cu1 1_555 1_555
C12 C2 1_555 1_555
H8 C12 1_555 1_555
C13 C1 1_555 1_555
H9 C13 1_555 1_555
O5 H10 1_555 1_555
H11 O5 1_555 1_555
N4 C1 1_555 1_555
C14 C8 1_555 1_555
C15 N3 1_555 1_555
H12 C15 1_555 1_555
C16 C15 1_555 1_555
H13 C16 1_555 1_555
O6 C14 1_555 1_555
C17 C16 1_555 1_555
N5 C2 1_555 1_555
C18 C4 1_555 1_555
C19 C12 1_555 1_555
Cu1_2 N4 1_555 1_555
Cu2_2 N5 1_555 1_555
Cu2_3 O3A 1_555 1_555
O1A N2A 1_555 1_555
C1A N4 1_555 1_555
H1A C1A 1_555 1_555
C2A N5 1_555 1_555
H2A C2A 1_555 1_555
O2A C3A 1_555 1_555
C3A O3A 1_555 1_555
O3A_2 Cu2 1_555 1_555
C4A C18 1_555 1_555
H3A C4A 1_555 1_555
C5A N1 1_555 1_555
H4A C5A 1_555 1_555
N2A C6A 1_555 1_555
C6A C3A 1_555 1_555
C7A N2A 1_555 1_555
H5A C7A 1_555 1_555
C8A C6A 1_555 1_555
C9A C8A 1_555 1_555
H6A C9A 1_555 1_555
C10A C7A 1_555 1_555
H7A C10A 1_555 1_555
O4A Cu1 1_555 1_555
C12A C19 1_555 1_555
H8A C12A 1_555 1_555
C13A C11 1_555 1_555
H9A C13A 1_555 1_555
N4_2 Cu1 1_555 1_555
C14A C8A 1_555 1_555
C15A N3 1_555 1_555
H12A C15A 1_555 1_555
C16A C17 1_555 1_555
H13A C16A 1_555 1_555
O6A C14A 1_555 1_555
N5_2 Cu2 1_555 1_555
C9 C10 1_555 1_555
C11 C18 1_555 1_555
O4 C14 1_555 1_555
C17 C19 1_555 1_555
C1A C13A 1_555 1_555
C2A C12A 1_555 1_555
C4A C5A 1_555 1_555
C9A C10A 1_555 1_555
O4A C14A 1_555 1_555
C15A C16A 1_555 1_555

#END
