
#######################################################################
#
#                 Cambridge Crystallographic Data Centre
#                                CCDC 
#
#######################################################################
#
# If this CIF has been generated from an entry in the Cambridge 
# Structural Database, then it will include bibliographic, chemical, 
# crystal, experimental, refinement or atomic coordinate data resulting 
# from the CCDC's data processing and validation procedures.
#
#######################################################################

data_XOVZAJ
_symmetry_cell_setting           monoclinic
_symmetry_space_group_name_H-M   'P 21/c'
_symmetry_Int_Tables_number      14
_space_group_name_Hall           '-P 2ybc'
loop_
_symmetry_equiv_pos_site_id
_symmetry_equiv_pos_as_xyz
1 x,y,z
2 x,1/2-y,1/2+z
3 -x,-y,-z
4 -x,1/2+y,1/2-z
_cell_length_a                   15.1313(2)
_cell_length_b                   13.7513(2)
_cell_length_c                   39.8676(6)
_cell_angle_alpha                90
_cell_angle_beta                 94.8510(10)
_cell_angle_gamma                90
_cell_volume                     8265.74
loop_
_atom_site_label
_atom_site_type_symbol
_atom_site_fract_x
_atom_site_fract_y
_atom_site_fract_z
C85 C 0.5470(14) 0.3723(16) 0.0076(5)
C86 C 0.4620(11) 0.4274(12) -0.0135(4)
C87 C 0.5815(12) 0.4802(17) 0.0212(5)
C87B C 0.4185(12) 0.5198(17) -0.0212(5)
C85B C 0.4530(14) 0.6277(16) -0.0076(5)
C86B C 0.5380(11) 0.5726(12) 0.0135(4)
K1 K 0.34147(5) 0.44286(6) 0.23433(2)
K2 K 0.28284(5) 0.12962(6) 0.22341(2)
K3 K 0.26478(6) 0.14620(7) 0.11230(2)
K4 K 0.07588(5) 0.41113(6) 0.33405(2)
K5 K -0.04590(6) 0.16436(7) 0.11913(2)
K6 K 0.35449(6) 0.45629(7) 0.34821(3)
K7 K 0.02620(8) 0.39997(8) 0.45946(2)
P1 P 0.23127(6) 0.30885(8) 0.17197(2)
P2 P 0.19060(7) 0.59653(8) 0.31546(3)
P3 P 0.17956(8) 0.42612(9) 0.40807(3)
P4 P 0.02021(9) 0.14890(9) 0.03984(3)
P5 P 0.48674(7) 0.09445(8) 0.19913(3)
P6 P 0.10934(7) 0.00815(8) 0.14261(3)
P7 P 0.30288(7) 0.27406(7) 0.29093(3)
C1 C 0.1201(2) 0.3421(3) 0.15594(9)
C2 C 0.0519(3) 0.3299(3) 0.17750(10)
H1 H 0.0663 0.3062 0.1997
C3 C -0.0358(3) 0.3518(4) 0.16720(12)
H2 H -0.08 0.3426 0.1825
C4 C -0.0601(3) 0.3862(3) 0.13561(13)
H3 H -0.1199 0.4039 0.1292
C5 C 0.0046(3) 0.3948(3) 0.11315(11)
H4 H -0.0114 0.4158 0.0908
C6 C 0.0927(2) 0.3729(3) 0.12305(10)
H5 H 0.1357 0.3791 0.1071
C7 C 0.3038(2) 0.3681(3) 0.14410(10)
C8 C 0.2884(3) 0.4568(3) 0.12710(11)
H6 H 0.2345 0.4905 0.1294
C9 C 0.3494(3) 0.4964(3) 0.10717(13)
H7 H 0.3365 0.556 0.0957
C10 C 0.4289(3) 0.4500(4) 0.10385(15)
H8 H 0.4708 0.4772 0.0901
C11 C 0.4469(3) 0.3647(4) 0.12045(14)
H9 H 0.502 0.3331 0.1184
C12 C 0.3866(2) 0.3236(3) 0.14019(11)
H10 H 0.4009 0.264 0.1514
C13 C 0.2112(2) 0.6130(2) 0.27164(9)
C14 C 0.1548(2) 0.5634(3) 0.24749(11)
H11 H 0.1059 0.5282 0.2547
C15 C 0.1680(3) 0.5640(3) 0.21372(11)
H12 H 0.1293 0.5281 0.1983
C16 C 0.2373(3) 0.6168(3) 0.20202(11)
H13 H 0.2456 0.6189 0.1787
C17 C 0.2938(3) 0.6662(3) 0.22509(10)
H14 H 0.3413 0.703 0.2174
C18 C 0.2828(2) 0.6631(2) 0.25904(9)
H15 H 0.3244 0.6955 0.2743
C19 C 0.2441(2) 0.6955(3) 0.33950(9)
C20 C 0.2625(3) 0.6807(4) 0.37441(10)
H16 H 0.2523 0.6185 0.3837
C21 C 0.2949(3) 0.7546(4) 0.39543(11)
H17 H 0.3062 0.7421 0.4188
C22 C 0.3111(3) 0.8457(4) 0.38320(12)
H18 H 0.3328 0.8963 0.3979
C23 C 0.2949(3) 0.8619(3) 0.34898(11)
H19 H 0.3069 0.9241 0.3401
C24 C 0.2616(2) 0.7895(3) 0.32763(10)
H20 H 0.2502 0.8032 0.3043
C25 C 0.1701(3) 0.3004(3) 0.42148(10)
C26 C 0.1049(4) 0.2433(4) 0.40365(12)
H21 H 0.0675 0.273 0.3862
C27 C 0.0929(4) 0.1460(4) 0.41037(13)
H22 H 0.0488 0.1098 0.3974
C28 C 0.1449(4) 0.1014(4) 0.43580(13)
H23 H 0.1383 0.034 0.4401
C29 C 0.2063(4) 0.1559(4) 0.45490(12)
H24 H 0.2408 0.1264 0.4731
C30 C 0.2187(3) 0.2537(3) 0.44785(10)
H25 H 0.2616 0.2897 0.4615
C31 C 0.2609(3) 0.4786(3) 0.43906(9)
C32 C 0.2385(3) 0.5579(3) 0.45839(10)
H26 H 0.1783 0.5782 0.4571
C33 C 0.2996(4) 0.6081(4) 0.47934(12)
H27 H 0.2817 0.6636 0.4912
C34 C 0.3835(4) 0.5791(5) 0.48293(14)
H28 H 0.4246 0.6128 0.4981
C35 C 0.4119(3) 0.5020(5) 0.46534(14)
H29 H 0.4724 0.4829 0.468
C36 C 0.3509(3) 0.4505(4) 0.44318(11)
H30 H 0.3706 0.3964 0.431
C37 C -0.0373(3) 0.2577(3) 0.02365(11)
C38 C -0.1206(3) 0.2833(4) 0.03423(13)
H31 H -0.1436 0.2451 0.0514
C39 C -0.1699(4) 0.3588(5) 0.02149(17)
H32 H -0.2263 0.3716 0.0294
C40 C -0.1382(4) 0.4173(4) -0.00289(16)
H33 H -0.1722 0.4707 -0.0119
C41 C -0.0561(4) 0.3969(3) -0.01407(14)
H34 H -0.0333 0.4373 -0.0306
C42 C -0.0071(3) 0.3189(3) -0.00142(11)
H35 H 0.0487 0.3058 -0.0098
C43 C 0.1361(3) 0.1818(3) 0.03760(9)
C44 C 0.1717(3) 0.2743(3) 0.04576(11)
H36 H 0.1324 0.325 0.0509
C45 C 0.2614(4) 0.2943(4) 0.04652(12)
H37 H 0.283 0.3575 0.0523
C46 C 0.3202(4) 0.2206(5) 0.03868(13)
H38 H 0.3821 0.233 0.0391
C47 C 0.2863(4) 0.1292(4) 0.03027(11)
H39 H 0.3256 0.0786 0.0251
C48 C 0.1975(4) 0.1109(3) 0.02931(10)
H40 H 0.1765 0.048 0.0228
C49 C 0.4521(2) 0.0417(3) 0.15905(10)
C50 C 0.4829(3) 0.0882(3) 0.13029(12)
H41 H 0.5214 0.1426 0.1336
C51 C 0.4590(4) 0.0571(5) 0.09796(14)
H42 H 0.4797 0.0913 0.0794
C52 C 0.4057(4) -0.0229(5) 0.09230(14)
H43 H 0.3911 -0.0454 0.07
C53 C 0.3734(3) -0.0704(4) 0.11911(13)
H44 H 0.336 -0.1254 0.1153
C54 C 0.3955(3) -0.0379(3) 0.15169(11)
H45 H 0.3713 -0.0707 0.1698
C55 C 0.4686(2) 0.0024(3) 0.23043(10)
C56 C 0.4732(2) -0.0991(3) 0.22689(10)
H46 H 0.4795 -0.1258 0.2052
C57 C 0.4691(2) -0.1608(3) 0.25383(10)
H47 H 0.4725 -0.229 0.2503
C58 C 0.4601(2) -0.1261(3) 0.28607(10)
H48 H 0.4573 -0.1695 0.3045
C59 C 0.4555(3) -0.0271(3) 0.29058(11)
H49 H 0.4501 -0.0014 0.3124
C60 C 0.4585(2) 0.0355(3) 0.26343(10)
H50 H 0.4536 0.1035 0.2672
C61 C 0.1355(3) -0.1025(3) 0.12104(9)
C62 C 0.1356(3) -0.1975(3) 0.13385(11)
H51 H 0.1232 -0.2073 0.1566
C63 C 0.1532(5) -0.2769(4) 0.11455(15)
H52 H 0.1538 -0.3401 0.1242
C64 C 0.1700(5) -0.2658(6) 0.08113(17)
H53 H 0.1817 -0.3206 0.0677
C65 C 0.1694(4) -0.1750(7) 0.06822(14)
H54 H 0.18 -0.1667 0.0452
C66 C 0.1538(3) -0.0937(4) 0.08723(11)
H55 H 0.1556 -0.031 0.0773
C67 C 0.1313(2) -0.0154(3) 0.18739(9)
C68 C 0.1949(2) -0.0790(3) 0.20293(9)
H56 H 0.2276 -0.1198 0.1892
C69 C 0.2114(3) -0.0841(3) 0.23746(10)
H57 H 0.2552 -0.1277 0.247
C70 C 0.1649(2) -0.0264(3) 0.25837(10)
H58 H 0.1763 -0.0302 0.2821
C71 C 0.1016(2) 0.0369(3) 0.24385(10)
H59 H 0.0693 0.0772 0.2578
C72 C 0.0847(2) 0.0422(3) 0.20943(10)
H60 H 0.0404 0.0858 0.2002
C73 C 0.1849(2) 0.2541(2) 0.29380(9)
C74 C 0.1428(3) 0.1911(3) 0.31599(10)
H61 H 0.1779 0.1543 0.3323
C75 C 0.0506(3) 0.1831(3) 0.31395(10)
H62 H 0.024 0.1405 0.3289
C76 C -0.0029(3) 0.2354(3) 0.29074(10)
H63 H -0.0656 0.2308 0.2902
C77 C 0.0369(3) 0.2945(3) 0.26834(9)
H64 H 0.0011 0.3294 0.2517
C78 C 0.1276(2) 0.3034(3) 0.26987(9)
H65 H 0.1528 0.3445 0.2541
C79 C 0.3626(3) 0.2329(3) 0.32986(9)
C80 C 0.3311(3) 0.2275(3) 0.36188(11)
H66 H 0.2701 0.2399 0.3641
C81 C 0.3864(3) 0.2045(4) 0.39049(11)
H67 H 0.3623 0.1996 0.4117
C82 C 0.4749(4) 0.1888(4) 0.38836(12)
H68 H 0.5124 0.1741 0.408
C83 C 0.5092(3) 0.1945(3) 0.35756(12)
H69 H 0.5709 0.1846 0.3559
C84 C 0.4538(3) 0.2147(3) 0.32885(11)
H70 H 0.4785 0.2163 0.3077
K4C K -0.07588(5) -0.08887(6) 0.16595(2)
P6C P -0.10934(7) 0.50815(8) 0.35739(3)
C61C C -0.1355(3) 0.3975(3) 0.37896(9)
C62C C -0.1356(3) 0.3025(3) 0.36615(11)
H51C H -0.1232 0.2927 0.3434
C63C C -0.1532(5) 0.2231(4) 0.38545(15)
H52C H -0.1538 0.1599 0.3758
C64C C -0.1700(5) 0.2342(6) 0.41887(17)
H53C H -0.1817 0.1794 0.4323
C65C C -0.1694(4) 0.3250(7) 0.43178(14)
H54C H -0.18 0.3333 0.4548
C66C C -0.1538(3) 0.4063(4) 0.41277(11)
H55C H -0.1556 0.469 0.4227
C67C C -0.1313(2) 0.4846(3) 0.31261(9)
C68C C -0.1949(2) 0.4210(3) 0.29707(9)
H56C H -0.2276 0.3802 0.3108
C69C C -0.2114(3) 0.4159(3) 0.26254(10)
H57C H -0.2552 0.3723 0.253
C70C C -0.1649(2) 0.4736(3) 0.24163(10)
H58C H -0.1763 0.4698 0.2179
C71C C -0.1016(2) 0.5369(3) 0.25615(10)
H59C H -0.0693 0.5772 0.2422
C72C C -0.0847(2) 0.5422(3) 0.29057(10)
H60C H -0.0404 0.5858 0.2998
P2C P -0.19060(7) 0.09653(8) 0.18454(3)
C13C C -0.2112(2) 0.1130(2) 0.22836(9)
C14C C -0.1548(2) 0.0634(3) 0.25251(11)
H11C H -0.1059 0.0282 0.2453
C15C C -0.1680(3) 0.0640(3) 0.28628(11)
H12C H -0.1293 0.0281 0.3017
C16C C -0.2373(3) 0.1168(3) 0.29798(11)
H13C H -0.2456 0.1189 0.3213
C17C C -0.2938(3) 0.1662(3) 0.27491(10)
H14C H -0.3413 0.203 0.2826
C18C C -0.2828(2) 0.1631(2) 0.24096(9)
H15C H -0.3244 0.1955 0.2257
C19C C -0.2441(2) 0.1955(3) 0.16050(9)
C20C C -0.2625(3) 0.1807(4) 0.12559(10)
H16C H -0.2523 0.1185 0.1163
C21C C -0.2949(3) 0.2546(4) 0.10457(11)
H17C H -0.3062 0.2421 0.0812
C22C C -0.3111(3) 0.3457(4) 0.11680(12)
H18C H -0.3328 0.3963 0.1021
C23C C -0.2949(3) 0.3619(3) 0.15102(11)
H19C H -0.3069 0.4241 0.1599
C24C C -0.2616(2) 0.2895(3) 0.17237(10)
H20C H -0.2502 0.3032 0.1957
P3C P -0.17956(8) -0.07388(9) 0.09193(3)
C25C C -0.1701(3) -0.1996(3) 0.07852(10)
C26C C -0.1049(4) -0.2567(4) 0.09635(12)
H21C H -0.0675 -0.227 0.1138
C27C C -0.0929(4) -0.3540(4) 0.08963(13)
H22C H -0.0488 -0.3902 0.1026
C28C C -0.1449(4) -0.3986(4) 0.06420(13)
H23C H -0.1383 -0.466 0.0599
C29C C -0.2063(4) -0.3441(4) 0.04510(12)
H24C H -0.2408 -0.3736 0.0269
C30C C -0.2187(3) -0.2463(3) 0.05215(10)
H25C H -0.2616 -0.2103 0.0385
C31C C -0.2609(3) -0.0214(3) 0.06094(9)
C32C C -0.2385(3) 0.0579(3) 0.04161(10)
H26C H -0.1783 0.0782 0.0429
C33C C -0.2996(4) 0.1081(4) 0.02066(12)
H27C H -0.2817 0.1636 0.0088
C34C C -0.3835(4) 0.0791(5) 0.01707(14)
H28C H -0.4246 0.1128 0.0019
C35C C -0.4119(3) 0.0020(5) 0.03466(14)
H29C H -0.4724 -0.0171 0.032
C36C C -0.3509(3) -0.0495(4) 0.05682(11)
H30C H -0.3706 -0.1036 0.069
K3C K -0.26478(6) 0.64620(7) 0.38770(2)
K5C K 0.04590(6) 0.66436(7) 0.38087(2)
K6C K -0.35449(6) -0.04371(7) 0.15179(3)
K7C K -0.02620(8) -0.10003(8) 0.04054(2)
P4C P -0.02021(9) 0.64890(9) 0.46016(3)
C37C C 0.0373(3) 0.7577(3) 0.47635(11)
C38C C 0.1206(3) 0.7833(4) 0.46577(13)
H31C H 0.1436 0.7451 0.4486
C39C C 0.1699(4) 0.8588(5) 0.47851(17)
H32C H 0.2263 0.8716 0.4706
C40C C 0.1382(4) 0.9173(4) 0.50289(16)
H33C H 0.1722 0.9707 0.5119
C41C C 0.0561(4) 0.8969(3) 0.51407(14)
H34C H 0.0333 0.9373 0.5306
C42C C 0.0071(3) 0.8189(3) 0.50142(11)
H35C H -0.0487 0.8058 0.5098
C43C C -0.1361(3) 0.6818(3) 0.46240(9)
C44C C -0.1717(3) 0.7743(3) 0.45424(11)
H36C H -0.1324 0.825 0.4491
C45C C -0.2614(4) 0.7943(4) 0.45348(12)
H37C H -0.283 0.8575 0.4477
C46C C -0.3202(4) 0.7206(5) 0.46132(13)
H38C H -0.3821 0.733 0.4609
C47C C -0.2863(4) 0.6292(4) 0.46973(11)
H39C H -0.3256 0.5786 0.4749
C48C C -0.1975(4) 0.6109(3) 0.47069(10)
H40C H -0.1765 0.548 0.4772
P1C P -0.23127(6) 0.80885(8) 0.32803(2)
C1C C -0.1201(2) 0.8421(3) 0.34406(9)
C2C C -0.0519(3) 0.8299(3) 0.32250(10)
H1C H -0.0663 0.8062 0.3003
C3C C 0.0358(3) 0.8518(4) 0.33280(12)
H2C H 0.08 0.8426 0.3175
C4C C 0.0601(3) 0.8862(3) 0.36439(13)
H3C H 0.1199 0.9039 0.3708
C5C C -0.0046(3) 0.8948(3) 0.38685(11)
H4C H 0.0114 0.9158 0.4092
C6C C -0.0927(2) 0.8729(3) 0.37695(10)
H5C H -0.1357 0.8791 0.3929
C7C C -0.3038(2) 0.8681(3) 0.35590(10)
C8C C -0.2884(3) 0.9568(3) 0.37290(11)
H6C H -0.2345 0.9905 0.3706
C9C C -0.3494(3) 0.9964(3) 0.39283(13)
H7C H -0.3365 1.056 0.4043
C10C C -0.4289(3) 0.9500(4) 0.39615(15)
H8C H -0.4708 0.9772 0.4099
C11C C -0.4469(3) 0.8647(4) 0.37955(14)
H9C H -0.502 0.8331 0.3816
C12C C -0.3866(2) 0.8236(3) 0.35981(11)
H10C H -0.4009 0.764 0.3486
P7C P -0.30288(7) -0.22594(7) 0.20907(3)
C73C C -0.1849(2) -0.2459(2) 0.20620(9)
C74C C -0.1428(3) -0.3089(3) 0.18401(10)
H61C H -0.1779 -0.3457 0.1677
C75C C -0.0506(3) -0.3169(3) 0.18605(10)
H62C H -0.024 -0.3595 0.1711
C76C C 0.0029(3) -0.2646(3) 0.20926(10)
H63C H 0.0656 -0.2692 0.2098
C77C C -0.0369(3) -0.2055(3) 0.23166(9)
H64C H -0.0011 -0.1706 0.2483
C78C C -0.1276(2) -0.1966(3) 0.23013(9)
H65C H -0.1528 -0.1555 0.2459
C79C C -0.3626(3) -0.2671(3) 0.17014(9)
C80C C -0.3311(3) -0.2725(3) 0.13812(11)
H66C H -0.2701 -0.2601 0.1359
C81C C -0.3864(3) -0.2955(4) 0.10951(11)
H67C H -0.3623 -0.3004 0.0883
C82C C -0.4749(4) -0.3112(4) 0.11164(12)
H68C H -0.5124 -0.3259 0.092
C83C C -0.5092(3) -0.3055(3) 0.14244(12)
H69C H -0.5709 -0.3154 0.1441
C84C C -0.4538(3) -0.2853(3) 0.17115(11)
H70C H -0.4785 -0.2837 0.1923
K1C K -0.34147(5) 0.94286(6) 0.26567(2)
K2C K -0.28284(5) 0.62962(6) 0.27659(2)
P5C P -0.48674(7) 0.59445(8) 0.30087(3)
C49C C -0.4521(2) 0.5417(3) 0.34095(10)
C50C C -0.4829(3) 0.5882(3) 0.36971(12)
H41C H -0.5214 0.6426 0.3664
C51C C -0.4590(4) 0.5571(5) 0.40204(14)
H42C H -0.4797 0.5913 0.4206
C52C C -0.4057(4) 0.4771(5) 0.40770(14)
H43C H -0.3911 0.4546 0.43
C53C C -0.3734(3) 0.4296(4) 0.38089(13)
H44C H -0.336 0.3746 0.3847
C54C C -0.3955(3) 0.4621(3) 0.34831(11)
H45C H -0.3713 0.4293 0.3302
C55C C -0.4686(2) 0.5024(3) 0.26957(10)
C56C C -0.4732(2) 0.4009(3) 0.27311(10)
H46C H -0.4795 0.3742 0.2948
C57C C -0.4691(2) 0.3392(3) 0.24617(10)
H47C H -0.4725 0.271 0.2497
C58C C -0.4601(2) 0.3739(3) 0.21393(10)
H48C H -0.4573 0.3305 0.1955
C59C C -0.4555(3) 0.4729(3) 0.20942(11)
H49C H -0.4501 0.4986 0.1876
C60C C -0.4585(2) 0.5355(3) 0.23657(10)
H50C H -0.4536 0.6035 0.2328
P4A P 0.02021(9) 0.35110(9) 0.53984(3)
K7A K 0.02620(8) 0.10003(8) -0.04054(2)
P4B P -0.02021(9) -0.14890(9) -0.03984(3)
K7B K -0.02620(8) 0.60003(8) 0.54054(2)
K1C_2 K -0.34147(5) -0.05714(6) 0.26567(2)
K2C_2 K -0.28284(5) -0.37038(6) 0.27659(2)
P7C_2 P -0.30288(7) 0.77406(7) 0.20907(3)
loop_
_geom_bond_atom_site_label_1
_geom_bond_atom_site_label_2
_geom_bond_site_symmetry_1
_geom_bond_site_symmetry_2
K1 P1 1_555 1_555
K2 P1 1_555 1_555
K3 P1 1_555 1_555
K4 P2 1_555 1_555
K5 P4 1_555 1_555
K6 P2 1_555 1_555
K7 P3 1_555 1_555
P1 C1 1_555 1_555
P2 C13 1_555 1_555
P3 K4 1_555 1_555
P4 C37 1_555 1_555
P5 K2 1_555 1_555
P6 K3 1_555 1_555
P7 K1 1_555 1_555
C1 C2 1_555 1_555
C2 H1 1_555 1_555
C3 C2 1_555 1_555
H2 C3 1_555 1_555
C4 C3 1_555 1_555
H3 C4 1_555 1_555
C5 C4 1_555 1_555
H4 C5 1_555 1_555
C6 C1 1_555 1_555
H5 C6 1_555 1_555
C7 P1 1_555 1_555
C8 C7 1_555 1_555
H6 C8 1_555 1_555
C9 C8 1_555 1_555
H7 C9 1_555 1_555
C10 C9 1_555 1_555
H8 C10 1_555 1_555
C11 C10 1_555 1_555
H9 C11 1_555 1_555
C12 C7 1_555 1_555
H10 C12 1_555 1_555
C13 C14 1_555 1_555
C14 H11 1_555 1_555
C15 C14 1_555 1_555
H12 C15 1_555 1_555
C16 C15 1_555 1_555
H13 C16 1_555 1_555
C17 C16 1_555 1_555
H14 C17 1_555 1_555
C18 C13 1_555 1_555
H15 C18 1_555 1_555
C19 P2 1_555 1_555
C20 C19 1_555 1_555
H16 C20 1_555 1_555
C21 C20 1_555 1_555
H17 C21 1_555 1_555
C22 C21 1_555 1_555
H18 C22 1_555 1_555
C23 C22 1_555 1_555
H19 C23 1_555 1_555
C24 C19 1_555 1_555
H20 C24 1_555 1_555
C25 P3 1_555 1_555
C26 C25 1_555 1_555
H21 C26 1_555 1_555
C27 C26 1_555 1_555
H22 C27 1_555 1_555
C28 C27 1_555 1_555
H23 C28 1_555 1_555
C29 C28 1_555 1_555
H24 C29 1_555 1_555
C30 C25 1_555 1_555
H25 C30 1_555 1_555
C31 P3 1_555 1_555
C32 C31 1_555 1_555
H26 C32 1_555 1_555
C33 C32 1_555 1_555
H27 C33 1_555 1_555
C34 C33 1_555 1_555
H28 C34 1_555 1_555
C35 C34 1_555 1_555
H29 C35 1_555 1_555
C36 C31 1_555 1_555
H30 C36 1_555 1_555
C37 C38 1_555 1_555
C38 H31 1_555 1_555
C39 C38 1_555 1_555
H32 C39 1_555 1_555
C40 C39 1_555 1_555
H33 C40 1_555 1_555
C41 C40 1_555 1_555
H34 C41 1_555 1_555
C42 C37 1_555 1_555
H35 C42 1_555 1_555
C43 P4 1_555 1_555
C44 C43 1_555 1_555
H36 C44 1_555 1_555
C45 C44 1_555 1_555
H37 C45 1_555 1_555
C46 C45 1_555 1_555
H38 C46 1_555 1_555
C47 C46 1_555 1_555
H39 C47 1_555 1_555
C48 C43 1_555 1_555
H40 C48 1_555 1_555
C49 P5 1_555 1_555
C50 C49 1_555 1_555
H41 C50 1_555 1_555
C51 C50 1_555 1_555
H42 C51 1_555 1_555
C52 C51 1_555 1_555
H43 C52 1_555 1_555
C53 C52 1_555 1_555
H44 C53 1_555 1_555
C54 C49 1_555 1_555
H45 C54 1_555 1_555
C55 P5 1_555 1_555
C56 C55 1_555 1_555
H46 C56 1_555 1_555
C57 C56 1_555 1_555
H47 C57 1_555 1_555
C58 C57 1_555 1_555
H48 C58 1_555 1_555
C59 C58 1_555 1_555
H49 C59 1_555 1_555
C60 C55 1_555 1_555
H50 C60 1_555 1_555
C61 P6 1_555 1_555
C62 C61 1_555 1_555
H51 C62 1_555 1_555
C63 C62 1_555 1_555
H52 C63 1_555 1_555
C64 C63 1_555 1_555
H53 C64 1_555 1_555
C65 C64 1_555 1_555
H54 C65 1_555 1_555
C66 C61 1_555 1_555
H55 C66 1_555 1_555
C67 P6 1_555 1_555
C68 C67 1_555 1_555
H56 C68 1_555 1_555
C69 C68 1_555 1_555
H57 C69 1_555 1_555
C70 C69 1_555 1_555
H58 C70 1_555 1_555
C71 C70 1_555 1_555
H59 C71 1_555 1_555
C72 C67 1_555 1_555
H60 C72 1_555 1_555
C73 P7 1_555 1_555
C74 C73 1_555 1_555
H61 C74 1_555 1_555
C75 C74 1_555 1_555
H62 C75 1_555 1_555
C76 C75 1_555 1_555
H63 C76 1_555 1_555
C77 C76 1_555 1_555
H64 C77 1_555 1_555
C78 C73 1_555 1_555
H65 C78 1_555 1_555
C79 P7 1_555 1_555
C80 C79 1_555 1_555
H66 C80 1_555 1_555
C81 C80 1_555 1_555
H67 C81 1_555 1_555
C82 C81 1_555 1_555
H68 C82 1_555 1_555
C83 C82 1_555 1_555
H69 C83 1_555 1_555
C84 C79 1_555 1_555
H70 C84 1_555 1_555
C85 C86 1_555 1_555
C86 C87B 1_555 1_555
C87 C85 1_555 1_555
C87B C85B 1_555 1_555
C85B C86B 1_555 1_555
C86B C87 1_555 1_555
K4C P6 1_555 1_555
P6C K4 1_555 1_555
C61C P6C 1_555 1_555
C62C C61C 1_555 1_555
H51C C62C 1_555 1_555
C63C C62C 1_555 1_555
H52C C63C 1_555 1_555
C64C C63C 1_555 1_555
H53C C64C 1_555 1_555
C65C C64C 1_555 1_555
H54C C65C 1_555 1_555
C66C C61C 1_555 1_555
H55C C66C 1_555 1_555
C67C P6C 1_555 1_555
C68C C67C 1_555 1_555
H56C C68C 1_555 1_555
C69C C68C 1_555 1_555
H57C C69C 1_555 1_555
C70C C69C 1_555 1_555
H58C C70C 1_555 1_555
C71C C70C 1_555 1_555
H59C C71C 1_555 1_555
C72C C67C 1_555 1_555
H60C C72C 1_555 1_555
P2C K4C 1_555 1_555
C13C P2C 1_555 1_555
C14C C13C 1_555 1_555
H11C C14C 1_555 1_555
C15C C14C 1_555 1_555
H12C C15C 1_555 1_555
C16C C15C 1_555 1_555
H13C C16C 1_555 1_555
C17C C16C 1_555 1_555
H14C C17C 1_555 1_555
C18C C13C 1_555 1_555
H15C C18C 1_555 1_555
C19C P2C 1_555 1_555
C20C C19C 1_555 1_555
H16C C20C 1_555 1_555
C21C C20C 1_555 1_555
H17C C21C 1_555 1_555
C22C C21C 1_555 1_555
H18C C22C 1_555 1_555
C23C C22C 1_555 1_555
H19C C23C 1_555 1_555
C24C C19C 1_555 1_555
H20C C24C 1_555 1_555
P3C K4C 1_555 1_555
C25C P3C 1_555 1_555
C26C C25C 1_555 1_555
H21C C26C 1_555 1_555
C27C C26C 1_555 1_555
H22C C27C 1_555 1_555
C28C C27C 1_555 1_555
H23C C28C 1_555 1_555
C29C C28C 1_555 1_555
H24C C29C 1_555 1_555
C30C C25C 1_555 1_555
H25C C30C 1_555 1_555
C31C P3C 1_555 1_555
C32C C31C 1_555 1_555
H26C C32C 1_555 1_555
C33C C32C 1_555 1_555
H27C C33C 1_555 1_555
C34C C33C 1_555 1_555
H28C C34C 1_555 1_555
C35C C34C 1_555 1_555
H29C C35C 1_555 1_555
C36C C31C 1_555 1_555
H30C C36C 1_555 1_555
K3C P6C 1_555 1_555
K5C P6C 1_555 1_555
K6C P2C 1_555 1_555
K7C P4 1_555 1_555
P4C K7 1_555 1_555
C37C P4C 1_555 1_555
C38C C37C 1_555 1_555
H31C C38C 1_555 1_555
C39C C38C 1_555 1_555
H32C C39C 1_555 1_555
C40C C39C 1_555 1_555
H33C C40C 1_555 1_555
C41C C40C 1_555 1_555
H34C C41C 1_555 1_555
C42C C37C 1_555 1_555
H35C C42C 1_555 1_555
C43C P4C 1_555 1_555
C44C C43C 1_555 1_555
H36C C44C 1_555 1_555
C45C C44C 1_555 1_555
H37C C45C 1_555 1_555
C46C C45C 1_555 1_555
H38C C46C 1_555 1_555
C47C C46C 1_555 1_555
H39C C47C 1_555 1_555
C48C C43C 1_555 1_555
H40C C48C 1_555 1_555
P1C K3C 1_555 1_555
C1C P1C 1_555 1_555
C2C C1C 1_555 1_555
H1C C2C 1_555 1_555
C3C C2C 1_555 1_555
H2C C3C 1_555 1_555
C4C C3C 1_555 1_555
H3C C4C 1_555 1_555
C5C C4C 1_555 1_555
H4C C5C 1_555 1_555
C6C C1C 1_555 1_555
H5C C6C 1_555 1_555
C7C P1C 1_555 1_555
C8C C7C 1_555 1_555
H6C C8C 1_555 1_555
C9C C8C 1_555 1_555
H7C C9C 1_555 1_555
C10C C9C 1_555 1_555
H8C C10C 1_555 1_555
C11C C10C 1_555 1_555
H9C C11C 1_555 1_555
C12C C7C 1_555 1_555
H10C C12C 1_555 1_555
P7C K6C 1_555 1_555
C73C P7C 1_555 1_555
C74C C73C 1_555 1_555
H61C C74C 1_555 1_555
C75C C74C 1_555 1_555
H62C C75C 1_555 1_555
C76C C75C 1_555 1_555
H63C C76C 1_555 1_555
C77C C76C 1_555 1_555
H64C C77C 1_555 1_555
C78C C73C 1_555 1_555
H65C C78C 1_555 1_555
C79C P7C 1_555 1_555
C80C C79C 1_555 1_555
H66C C80C 1_555 1_555
C81C C80C 1_555 1_555
H67C C81C 1_555 1_555
C82C C81C 1_555 1_555
H68C C82C 1_555 1_555
C83C C82C 1_555 1_555
H69C C83C 1_555 1_555
C84C C79C 1_555 1_555
H70C C84C 1_555 1_555
K1C P1C 1_555 1_555
K2C P1C 1_555 1_555
P5C K2C 1_555 1_555
C49C P5C 1_555 1_555
C50C C49C 1_555 1_555
H41C C50C 1_555 1_555
C51C C50C 1_555 1_555
H42C C51C 1_555 1_555
C52C C51C 1_555 1_555
H43C C52C 1_555 1_555
C53C C52C 1_555 1_555
H44C C53C 1_555 1_555
C54C C49C 1_555 1_555
H45C C54C 1_555 1_555
C55C P5C 1_555 1_555
C56C C55C 1_555 1_555
H46C C56C 1_555 1_555
C57C C56C 1_555 1_555
H47C C57C 1_555 1_555
C58C C57C 1_555 1_555
H48C C58C 1_555 1_555
C59C C58C 1_555 1_555
H49C C59C 1_555 1_555
C60C C55C 1_555 1_555
H50C C60C 1_555 1_555
P4A K7 1_555 1_555
K7A P4 1_555 1_555
P4B K7C 1_555 1_555
K7B P4C 1_555 1_555
K1C_2 P7C 1_555 1_555
K2C_2 P7C 1_555 1_555
P7C_2 K1C 1_555 1_555
K2 P7 1_555 1_555
K5 P6 1_555 1_555
K6 P7 1_555 1_555
C5 C6 1_555 1_555
C11 C12 1_555 1_555
C17 C18 1_555 1_555
C23 C24 1_555 1_555
C29 C30 1_555 1_555
C35 C36 1_555 1_555
C41 C42 1_555 1_555
C47 C48 1_555 1_555
C53 C54 1_555 1_555
C59 C60 1_555 1_555
C65 C66 1_555 1_555
C71 C72 1_555 1_555
C77 C78 1_555 1_555
C83 C84 1_555 1_555
C65C C66C 1_555 1_555
C71C C72C 1_555 1_555
C17C C18C 1_555 1_555
C23C C24C 1_555 1_555
P3C K7C 1_555 1_555
C29C C30C 1_555 1_555
C35C C36C 1_555 1_555
K5C P4C 1_555 1_555
C41C C42C 1_555 1_555
C47C C48C 1_555 1_555
C5C C6C 1_555 1_555
C11C C12C 1_555 1_555
C77C C78C 1_555 1_555
C83C C84C 1_555 1_555
K2C P7C_2 1_555 1_555
C53C C54C 1_555 1_555
C59C C60C 1_555 1_555
P4A K7B 1_555 1_555
K7A P4B 1_555 1_555

#END
