
#######################################################################
#
#                 Cambridge Crystallographic Data Centre
#                                CCDC 
#
#######################################################################
#
# If this CIF has been generated from an entry in the Cambridge 
# Structural Database, then it will include bibliographic, chemical, 
# crystal, experimental, refinement or atomic coordinate data resulting 
# from the CCDC's data processing and validation procedures.
#
#######################################################################

data_XOWBAO
_symmetry_cell_setting           triclinic
_symmetry_space_group_name_H-M   'P -1'
_symmetry_Int_Tables_number      2
_space_group_name_Hall           '-P 1'
loop_
_symmetry_equiv_pos_site_id
_symmetry_equiv_pos_as_xyz
1 x,y,z
2 -x,-y,-z
_cell_length_a                   10.561(3)
_cell_length_b                   14.315(3)
_cell_length_c                   16.180(4)
_cell_angle_alpha                81.931(9)
_cell_angle_beta                 77.025(7)
_cell_angle_gamma                78.491(9)
_cell_volume                     2324
loop_
_atom_site_label
_atom_site_type_symbol
_atom_site_fract_x
_atom_site_fract_y
_atom_site_fract_z
Ru1 Ru 0.53057(8) 0.06490(5) 0.45573(5)
Ru2 Ru 0.51041(8) 0.49501(5) 0.06958(5)
F1 F 0.8309(7) -0.1884(4) 0.6631(5)
F2 F 1.0467(7) -0.1971(5) 0.7225(5)
F3 F 1.0871(7) 0.1151(5) 0.5945(5)
F4 F 0.8701(7) 0.1296(4) 0.5388(5)
F5 F 0.4281(9) -0.2148(5) 0.3403(5)
F6 F 0.4867(12) -0.3302(6) 0.2182(5)
F7 F 0.9056(10) -0.2407(6) 0.1250(5)
F8 F 0.8504(8) -0.1261(5) 0.2499(5)
F9 F 0.6914(12) 0.1865(6) 0.1273(5)
F10 F 0.8075(11) 0.0074(6) 0.1118(6)
F11 F 0.8792(13) 0.0673(8) -0.1856(7)
F12 F 0.7644(11) 0.2472(7) -0.1729(5)
F13 F 0.0496(7) 0.5487(5) 0.1319(5)
F14 F -0.1868(7) 0.4957(6) 0.1802(5)
F15 F -0.0080(8) 0.1971(5) 0.0735(5)
F16 F 0.2297(7) 0.2498(5) 0.0252(4)
O1 O 0.7025(7) 0.0439(5) 0.5013(5)
O2 O 0.6420(8) -0.0823(5) 0.5900(5)
O3 O 0.6168(7) -0.0200(5) 0.3574(5)
O4 O 0.5549(7) -0.1469(5) 0.4445(5)
O5 O 0.6223(7) 0.3590(5) 0.0565(4)
O6 O 0.5980(8) 0.3688(5) -0.0791(4)
O7 O 0.3352(7) 0.4412(5) 0.1066(4)
O8 O 0.3163(7) 0.4490(5) -0.0302(4)
N1 N 0.5833(8) 0.2045(6) 0.3805(5)
N2 N 0.5301(7) 0.4657(6) 0.2088(5)
C1 C 0.7192(11) -0.0226(7) 0.5602(7)
C2 C 0.8389(11) -0.0288(7) 0.5971(7)
C3 C 0.8900(11) -0.1106(7) 0.6462(7)
C4 C 1.0034(12) -0.1155(8) 0.6768(7)
C5 C 1.0716(11) -0.0412(7) 0.6621(7)
C6 C 1.0231(12) 0.0404(8) 0.6143(7)
C7 C 0.9097(11) 0.0470(7) 0.5830(7)
C8 C 0.6015(11) -0.1069(7) 0.3736(7)
C9 C 0.6387(12) -0.1683(7) 0.3002(7)
C10 C 0.5467(16) -0.2215(8) 0.2897(8)
C11 C 0.5773(19) -0.2805(9) 0.2253(8)
C12 C 0.696(2) -0.2882(9) 0.1699(8)
C13 C 0.7857(16) -0.2353(9) 0.1785(8)
C14 C 0.7594(14) -0.1750(8) 0.2426(8)
C15 C 0.6386(11) 0.3260(7) -0.0139(7)
C16 C 0.7138(12) 0.2247(8) -0.0220(7)
C17 C 0.7334(14) 0.1599(9) 0.0480(8)
C18 C 0.7964(14) 0.0664(9) 0.0390(9)
C19 C 0.8407(13) 0.0326(9) -0.0365(9)
C20 C 0.8298(15) 0.0968(10) -0.1075(9)
C21 C 0.7681(12) 0.1901(9) -0.1003(8)
C22 C 0.2775(11) 0.4324(7) 0.0483(6)
C23 C 0.1451(11) 0.4004(7) 0.0771(6)
C24 C 0.0353(12) 0.4622(8) 0.1173(7)
C25 C -0.0851(11) 0.4336(9) 0.1414(7)
C26 C -0.1035(12) 0.3465(8) 0.1259(7)
C27 C 0.0047(13) 0.2859(8) 0.0867(7)
C28 C 0.1268(11) 0.3123(8) 0.0621(7)
C29 C 0.5632(9) 0.2877(7) 0.3712(6)
C30 C 0.5388(8) 0.3887(6) 0.3609(6)
C31 C 0.5340(9) 0.4310(7) 0.2757(6)
C32 C 0.5189(8) 0.4442(6) 0.4307(6)
C33 C 0.5292(9) 0.4006(7) 0.5143(6)
C34 C 0.5134(9) 0.4533(6) 0.5796(6)
H1 H 1.1492 -0.0454 0.6838
H2 H 0.7159 -0.3297 0.1261
H3 H 0.8783 -0.0329 -0.0413
H4 H -0.1880 0.3283 0.1417
H5 H 0.5477 0.3327 0.5240
H6 H 0.5238 0.4218 0.6340
N1A N 0.4167(8) 0.7955(6) 0.6195(5)
N2A N 0.4699(7) 0.5343(6) 0.7912(5)
C29A C 0.4368(9) 0.7123(7) 0.6288(6)
C30A C 0.4612(8) 0.6113(6) 0.6391(6)
C31A C 0.4660(9) 0.5690(7) 0.7243(6)
C32A C 0.4811(8) 0.5558(6) 0.5693(6)
C33A C 0.4708(9) 0.5994(7) 0.4857(6)
C34A C 0.4866(9) 0.5467(6) 0.4204(6)
H5A H 0.4523 0.6673 0.4760
H6A H 0.4762 0.5782 0.3660
Ru1A Ru 0.46943(8) -0.06490(5) 0.54427(5)
F1A F 0.1691(7) 0.1884(4) 0.3369(5)
F2A F -0.0467(7) 0.1971(5) 0.2775(5)
F3A F -0.0871(7) -0.1151(5) 0.4055(5)
F4A F 0.1299(7) -0.1296(4) 0.4612(5)
F5A F 0.5719(9) 0.2148(5) 0.6597(5)
F6A F 0.5133(12) 0.3302(6) 0.7818(5)
F7A F 0.0944(10) 0.2407(6) 0.8750(5)
F8A F 0.1496(8) 0.1261(5) 0.7501(5)
O1A O 0.2975(7) -0.0439(5) 0.4987(5)
O2A O 0.3580(8) 0.0823(5) 0.4100(5)
O3A O 0.3832(7) 0.0200(5) 0.6426(5)
O4A O 0.4451(7) 0.1469(5) 0.5555(5)
C1A C 0.2808(11) 0.0226(7) 0.4398(7)
C2A C 0.1611(11) 0.0288(7) 0.4029(7)
C3A C 0.1100(11) 0.1106(7) 0.3538(7)
C4A C -0.0034(12) 0.1155(8) 0.3232(7)
C5A C -0.0716(11) 0.0412(7) 0.3379(7)
C6A C -0.0231(12) -0.0404(8) 0.3857(7)
C7A C 0.0903(11) -0.0470(7) 0.4170(7)
C8A C 0.3985(11) 0.1069(7) 0.6264(7)
C9A C 0.3613(12) 0.1683(7) 0.6998(7)
C10A C 0.4533(16) 0.2215(8) 0.7103(8)
C11A C 0.4227(19) 0.2805(9) 0.7747(8)
C12A C 0.304(2) 0.2882(9) 0.8301(8)
C13A C 0.2143(16) 0.2353(9) 0.8215(8)
C14A C 0.2406(14) 0.1750(8) 0.7574(8)
H1A H -0.1492 0.0454 0.3162
H2A H 0.2841 0.3297 0.8739
Ru2A Ru 0.48959(8) 0.50499(5) -0.06958(5)
F9A F 0.3086(12) 0.8135(6) -0.1273(5)
F10A F 0.1925(11) 0.9926(6) -0.1118(6)
F11A F 0.1208(13) 0.9327(8) 0.1856(7)
F12A F 0.2356(11) 0.7528(7) 0.1729(5)
F13A F 0.9504(7) 0.4513(5) -0.1319(5)
F14A F 1.1868(7) 0.5043(6) -0.1802(5)
F15A F 1.0080(8) 0.8029(5) -0.0735(5)
F16A F 0.7703(7) 0.7502(5) -0.0252(4)
O5A O 0.3777(7) 0.6410(5) -0.0565(4)
O6A O 0.4020(8) 0.6312(5) 0.0791(4)
O7A O 0.6648(7) 0.5588(5) -0.1066(4)
O8A O 0.6837(7) 0.5510(5) 0.0302(4)
C15A C 0.3614(11) 0.6740(7) 0.0139(7)
C16A C 0.2862(12) 0.7753(8) 0.0220(7)
C17A C 0.2666(14) 0.8401(9) -0.0480(8)
C18A C 0.2036(14) 0.9336(9) -0.0390(9)
C19A C 0.1593(13) 0.9674(9) 0.0365(9)
C20A C 0.1702(15) 0.9032(10) 0.1075(9)
C21A C 0.2319(12) 0.8099(9) 0.1003(8)
C22A C 0.7225(11) 0.5676(7) -0.0483(6)
C23A C 0.8549(11) 0.5996(7) -0.0771(6)
C24A C 0.9647(12) 0.5378(8) -0.1173(7)
C25A C 1.0851(11) 0.5664(9) -0.1414(7)
C26A C 1.1035(12) 0.6535(8) -0.1259(7)
C27A C 0.9953(13) 0.7141(8) -0.0867(7)
C28A C 0.8732(11) 0.6877(8) -0.0621(7)
H3A H 0.1217 1.0329 0.0413
H4A H 1.1880 0.6717 -0.1417
Ru1A_2 Ru 0.46943(8) 0.93510(5) 0.54427(5)
Ru2A_2 Ru 0.48959(8) 0.50499(5) 0.93042(5)
N1A_2 N 0.4167(8) -0.2045(6) 0.6195(5)
N2A_2 N 0.4699(7) 0.5343(6) -0.2088(5)
Fe1 Fe 1.0000 0.5000 0.5000
C35 C 1.1438(9) 0.5710(7) 0.5194(6)
C36 C 1.1203(11) 0.6557(8) 0.5693(8)
C37 C 1.1688(9) 0.4725(7) 0.5520(6)
C38 C 1.1734(11) 0.4352(9) 0.6430(7)
C39 C 1.1892(8) 0.4147(7) 0.4832(6)
C40 C 1.2180(10) 0.3085(8) 0.4908(8)
C41 C 1.1754(9) 0.4783(7) 0.4079(6)
C42 C 1.1900(10) 0.4477(9) 0.3204(7)
C43 C 1.1495(9) 0.5737(7) 0.4298(7)
C44 C 1.1374(10) 0.6632(8) 0.3678(7)
H7 H 1.0425 0.6529 0.6152
H8 H 1.1975 0.6547 0.5938
H9 H 1.1057 0.7149 0.5314
H10 H 1.2428 0.4594 0.6605
H11 H 1.0881 0.4569 0.6796
H12 H 1.1924 0.3650 0.6481
H13 H 1.3032 0.2870 0.4539
H14 H 1.1485 0.2844 0.4733
H15 H 1.2215 0.2840 0.5500
H16 H 1.2636 0.4730 0.2815
H17 H 1.1084 0.4726 0.2994
H18 H 1.2074 0.3776 0.3234
H19 H 1.0650 0.6644 0.3387
H20 H 1.2201 0.6630 0.3256
H21 H 1.1193 0.7199 0.3989
C35A C 0.8562(9) 0.4290(7) 0.4806(6)
C36A C 0.8797(11) 0.3443(8) 0.4307(8)
C37A C 0.8312(9) 0.5275(7) 0.4480(6)
C38A C 0.8266(11) 0.5648(9) 0.3570(7)
C39A C 0.8108(8) 0.5853(7) 0.5168(6)
C40A C 0.7820(10) 0.6915(8) 0.5092(8)
C41A C 0.8246(9) 0.5217(7) 0.5921(6)
C42A C 0.8100(10) 0.5523(9) 0.6796(7)
C43A C 0.8505(9) 0.4263(7) 0.5702(7)
C44A C 0.8626(10) 0.3368(8) 0.6322(7)
H7A H 0.9575 0.3471 0.3848
H8A H 0.8025 0.3453 0.4062
H9A H 0.8943 0.2851 0.4686
H10A H 0.7572 0.5406 0.3395
H11A H 0.9119 0.5431 0.3204
H12A H 0.8076 0.6350 0.3519
H13A H 0.6968 0.7130 0.5461
H14A H 0.8515 0.7156 0.5267
H15A H 0.7785 0.7160 0.4500
H16A H 0.7364 0.5270 0.7185
H17A H 0.8916 0.5274 0.7006
H18A H 0.7926 0.6224 0.6766
H19A H 0.9350 0.3356 0.6613
H20A H 0.7799 0.3370 0.6744
H21A H 0.8807 0.2801 0.6011
Cl1 Cl 0.5096(10) -0.0636(7) 0.1036(8)
Cl2 Cl 0.3994(7) 0.2291(6) 0.1863(5)
C45 C 0.390(3) 0.0265(18) 0.1845(14)
C46 C 0.362(3) 0.1124(17) 0.1408(13)
H22 H 0.3081 0.0014 0.2104
H23 H 0.4347 0.0327 0.2308
H24 H 0.2674 0.1239 0.1384
H25 H 0.4129 0.1089 0.0815
loop_
_geom_bond_atom_site_label_1
_geom_bond_atom_site_label_2
_geom_bond_site_symmetry_1
_geom_bond_site_symmetry_2
Ru1 O1 1_555 1_555
Ru2 O5 1_555 1_555
F1 C3 1_555 1_555
F2 C4 1_555 1_555
F3 C6 1_555 1_555
F4 C7 1_555 1_555
F5 C10 1_555 1_555
F6 C11 1_555 1_555
F7 C13 1_555 1_555
F8 C14 1_555 1_555
F9 C17 1_555 1_555
F10 C18 1_555 1_555
F11 C20 1_555 1_555
F12 C21 1_555 1_555
F13 C24 1_555 1_555
F14 C25 1_555 1_555
F15 C27 1_555 1_555
F16 C28 1_555 1_555
O1 C1 1_555 1_555
O2 C1 1_555 1_555
O3 Ru1 1_555 1_555
O4 C8 1_555 1_555
O5 C15 1_555 1_555
O6 C15 1_555 1_555
O7 Ru2 1_555 1_555
O8 C22 1_555 1_555
N1 Ru1 1_555 1_555
N2 Ru2 1_555 1_555
C1 C2 1_555 1_555
C2 C3 1_555 1_555
C3 C4 1_555 1_555
C4 C5 1_555 1_555
C5 C6 1_555 1_555
C6 C7 1_555 1_555
C7 C2 1_555 1_555
C8 O3 1_555 1_555
C9 C8 1_555 1_555
C10 C9 1_555 1_555
C11 C10 1_555 1_555
C12 C11 1_555 1_555
C13 C12 1_555 1_555
C14 C9 1_555 1_555
C15 C16 1_555 1_555
C16 C17 1_555 1_555
C17 C18 1_555 1_555
C18 C19 1_555 1_555
C19 C20 1_555 1_555
C20 C21 1_555 1_555
C21 C16 1_555 1_555
C22 O7 1_555 1_555
C23 C22 1_555 1_555
C24 C23 1_555 1_555
C25 C24 1_555 1_555
C26 C25 1_555 1_555
C27 C26 1_555 1_555
C28 C23 1_555 1_555
C29 N1 1_555 1_555
C30 C29 1_555 1_555
C31 N2 1_555 1_555
C32 C30 1_555 1_555
C33 C32 1_555 1_555
C34 C33 1_555 1_555
H1 C5 1_555 1_555
H2 C12 1_555 1_555
H3 C19 1_555 1_555
H4 C26 1_555 1_555
H5 C33 1_555 1_555
H6 C34 1_555 1_555
Fe1 C35 1_555 1_555
C35 C36 1_555 1_555
C36 H7 1_555 1_555
C37 Fe1 1_555 1_555
C38 C37 1_555 1_555
C39 Fe1 1_555 1_555
C40 C39 1_555 1_555
C41 Fe1 1_555 1_555
C42 C41 1_555 1_555
C43 Fe1 1_555 1_555
C44 C43 1_555 1_555
H8 C36 1_555 1_555
H9 C36 1_555 1_555
H10 C38 1_555 1_555
H11 C38 1_555 1_555
H12 C38 1_555 1_555
H13 C40 1_555 1_555
H14 C40 1_555 1_555
H15 C40 1_555 1_555
H16 C42 1_555 1_555
H17 C42 1_555 1_555
H18 C42 1_555 1_555
H19 C44 1_555 1_555
H20 C44 1_555 1_555
H21 C44 1_555 1_555
Cl1 C45 1_555 1_555
Cl2 C46 1_555 1_555
C45 C46 1_555 1_555
C46 H24 1_555 1_555
H22 C45 1_555 1_555
H23 C45 1_555 1_555
H25 C46 1_555 1_555
N1A C29A 1_555 1_555
N2A C31A 1_555 1_555
C29A C30A 1_555 1_555
C30A C31A 1_555 1_555
C32A C34 1_555 1_555
C33A C32A 1_555 1_555
C34A C32 1_555 1_555
H5A C33A 1_555 1_555
H6A C34A 1_555 1_555
Ru1A Ru1 1_555 1_555
F1A C3A 1_555 1_555
F2A C4A 1_555 1_555
F3A C6A 1_555 1_555
F4A C7A 1_555 1_555
F5A C10A 1_555 1_555
F6A C11A 1_555 1_555
F7A C13A 1_555 1_555
F8A C14A 1_555 1_555
O1A Ru1A 1_555 1_555
O2A Ru1 1_555 1_555
O3A Ru1A 1_555 1_555
O4A Ru1 1_555 1_555
C1A O1A 1_555 1_555
C2A C1A 1_555 1_555
C3A C2A 1_555 1_555
C4A C3A 1_555 1_555
C5A C4A 1_555 1_555
C6A C5A 1_555 1_555
C7A C2A 1_555 1_555
C8A O3A 1_555 1_555
C9A C8A 1_555 1_555
C10A C9A 1_555 1_555
C11A C10A 1_555 1_555
C12A C11A 1_555 1_555
C13A C12A 1_555 1_555
C14A C9A 1_555 1_555
H1A C5A 1_555 1_555
H2A C12A 1_555 1_555
Ru2A Ru2 1_555 1_555
F9A C17A 1_555 1_555
F10A C18A 1_555 1_555
F11A C20A 1_555 1_555
F12A C21A 1_555 1_555
F13A C24A 1_555 1_555
F14A C25A 1_555 1_555
F15A C27A 1_555 1_555
F16A C28A 1_555 1_555
O5A Ru2A 1_555 1_555
O6A Ru2 1_555 1_555
O7A Ru2A 1_555 1_555
O8A Ru2 1_555 1_555
C15A O5A 1_555 1_555
C16A C15A 1_555 1_555
C17A C16A 1_555 1_555
C18A C17A 1_555 1_555
C19A C18A 1_555 1_555
C20A C19A 1_555 1_555
C21A C16A 1_555 1_555
C22A O7A 1_555 1_555
C23A C22A 1_555 1_555
C24A C23A 1_555 1_555
C25A C24A 1_555 1_555
C26A C25A 1_555 1_555
C27A C26A 1_555 1_555
C28A C23A 1_555 1_555
H3A C19A 1_555 1_555
H4A C26A 1_555 1_555
Ru1A_2 N1A 1_555 1_555
Ru2A_2 N2A 1_555 1_555
N1A_2 Ru1A 1_555 1_555
N2A_2 Ru2A 1_555 1_555
C35A Fe1 1_555 1_555
C36A C35A 1_555 1_555
C37A Fe1 1_555 1_555
C38A C37A 1_555 1_555
C39A Fe1 1_555 1_555
C40A C39A 1_555 1_555
C41A Fe1 1_555 1_555
C42A C41A 1_555 1_555
C43A Fe1 1_555 1_555
C44A C43A 1_555 1_555
H7A C36A 1_555 1_555
H8A C36A 1_555 1_555
H9A C36A 1_555 1_555
H10A C38A 1_555 1_555
H11A C38A 1_555 1_555
H12A C38A 1_555 1_555
H13A C40A 1_555 1_555
H14A C40A 1_555 1_555
H15A C40A 1_555 1_555
H16A C42A 1_555 1_555
H17A C42A 1_555 1_555
H18A C42A 1_555 1_555
H19A C44A 1_555 1_555
H20A C44A 1_555 1_555
H21A C44A 1_555 1_555
O2 Ru1A 1_555 1_555
O4 Ru1A 1_555 1_555
O6 Ru2A 1_555 1_555
O8 Ru2A 1_555 1_555
C13 C14 1_555 1_555
C27 C28 1_555 1_555
C30 C31 1_555 1_555
C35 C37 1_555 1_555
C35 C43 1_555 1_555
C37 C39 1_555 1_555
C39 C41 1_555 1_555
C41 C43 1_555 1_555
C30A C32A 1_555 1_555
C33A C34A 1_555 1_555
O2A C1A 1_555 1_555
O4A C8A 1_555 1_555
C6A C7A 1_555 1_555
C13A C14A 1_555 1_555
O6A C15A 1_555 1_555
O8A C22A 1_555 1_555
C20A C21A 1_555 1_555
C27A C28A 1_555 1_555
C35A C37A 1_555 1_555
C35A C43A 1_555 1_555
C37A C39A 1_555 1_555
C39A C41A 1_555 1_555
C41A C43A 1_555 1_555

#END
