
#######################################################################
#
#                 Cambridge Crystallographic Data Centre
#                                CCDC 
#
#######################################################################
#
# If this CIF has been generated from an entry in the Cambridge 
# Structural Database, then it will include bibliographic, chemical, 
# crystal, experimental, refinement or atomic coordinate data resulting 
# from the CCDC's data processing and validation procedures.
#
#######################################################################

data_XOWBES
_symmetry_cell_setting           triclinic
_symmetry_space_group_name_H-M   'P -1'
_symmetry_Int_Tables_number      2
_space_group_name_Hall           '-P 1'
loop_
_symmetry_equiv_pos_site_id
_symmetry_equiv_pos_as_xyz
1 x,y,z
2 -x,-y,-z
_cell_length_a                   10.5646(16)
_cell_length_b                   14.177(2)
_cell_length_c                   16.192(2)
_cell_angle_alpha                81.449(6)
_cell_angle_beta                 77.821(5)
_cell_angle_gamma                78.755(6)
_cell_volume                     2310.38
loop_
_atom_site_label
_atom_site_type_symbol
_atom_site_fract_x
_atom_site_fract_y
_atom_site_fract_z
Rh1 Rh 0.53181(4) 0.06930(3) 0.45371(3)
Rh2 Rh 0.51245(4) 0.49300(3) 0.07288(2)
F1 F 0.8273(4) -0.1923(3) 0.6658(3)
F2 F 1.0434(4) -0.2012(3) 0.7255(3)
F3 F 1.0876(4) 0.1122(3) 0.5935(3)
F4 F 0.8721(4) 0.1273(3) 0.5354(3)
F5 F 0.4080(4) -0.2040(3) 0.3450(2)
F6 F 0.4501(6) -0.3162(3) 0.2233(3)
F7 F 0.8789(5) -0.2463(4) 0.1310(3)
F8 F 0.8380(4) -0.1307(3) 0.2542(3)
F9 F 0.6749(9) 0.1798(4) 0.1257(4)
F10 F 0.7944(9) 0.0013(4) 0.1074(5)
F11 F 0.9043(8) 0.0821(5) -0.1856(5)
F12 F 0.7911(6) 0.2637(4) -0.1686(4)
F13 F 0.0599(4) 0.5521(3) 0.1294(3)
F14 F -0.1796(4) 0.5028(3) 0.1759(3)
F15 F -0.0118(4) 0.2013(3) 0.0699(3)
F16 F 0.2273(4) 0.2511(3) 0.0245(3)
O1 O 0.7012(4) 0.0428(3) 0.4999(3)
O2 O 0.6416(4) -0.0863(3) 0.5888(3)
O3 O 0.6120(4) -0.0172(3) 0.3588(2)
O4 O 0.5507(4) -0.1470(3) 0.4467(2)
O5 O 0.6214(4) 0.3593(3) 0.0576(2)
O6 O 0.5937(4) 0.3719(3) -0.0785(2)
O7 O 0.3409(4) 0.4397(3) 0.1061(2)
O8 O 0.3190(4) 0.4508(3) -0.0313(2)
N1 N 0.5831(5) 0.2060(3) 0.3803(3)
N2 N 0.5343(4) 0.4686(3) 0.2073(3)
C1 C 0.7164(6) -0.0245(4) 0.5592(4)
C2 C 0.8385(6) -0.0315(4) 0.5957(4)
C3 C 0.8873(7) -0.1143(4) 0.6472(4)
C4 C 0.9997(7) -0.1196(5) 0.6790(4)
C5 C 1.0708(7) -0.0448(4) 0.6631(4)
C6 C 1.0213(6) 0.0372(4) 0.6154(4)
C7 C 0.9095(6) 0.0437(4) 0.5820(4)
C8 C 0.5945(6) -0.1045(4) 0.3756(4)
C9 C 0.6238(7) -0.1649(4) 0.3036(4)
C10 C 0.5257(7) -0.2143(5) 0.2935(4)
C11 C 0.5484(8) -0.2708(5) 0.2296(4)
C12 C 0.6650(9) -0.2834(5) 0.1735(4)
C13 C 0.7618(8) -0.2362(5) 0.1827(4)
C14 C 0.7406(7) -0.1758(4) 0.2470(4)
C15 C 0.6378(6) 0.3281(4) -0.0144(4)
C16 C 0.7172(7) 0.2286(5) -0.0231(4)
C17 C 0.7311(11) 0.1595(6) 0.0456(6)
C18 C 0.7921(12) 0.0654(6) 0.0362(7)
C19 C 0.8451(12) 0.0349(8) -0.0393(7)
C20 C 0.8456(10) 0.1045(8) -0.1056(7)
C21 C 0.7834(8) 0.2000(6) -0.0987(6)
C22 C 0.2812(5) 0.4331(4) 0.0485(3)
C23 C 0.1495(6) 0.4028(4) 0.0753(3)
C24 C 0.0427(6) 0.4646(4) 0.1141(4)
C25 C -0.0800(6) 0.4389(5) 0.1373(4)
C26 C -0.1019(6) 0.3514(5) 0.1219(4)
C27 C 0.0032(7) 0.2897(5) 0.0842(4)
C28 C 0.1265(6) 0.3131(4) 0.0612(4)
C29 C 0.5661(5) 0.2880(4) 0.3702(3)
C30 C 0.5416(5) 0.3912(3) 0.3601(3)
C31 C 0.5372(5) 0.4350(3) 0.2758(3)
C32 C 0.5207(5) 0.4454(3) 0.4300(3)
C33 C 0.5312(5) 0.3992(3) 0.5126(3)
C34 C 0.5122(4) 0.4518(3) 0.5801(3)
H1 H 1.14967 -0.04967 0.68397
H2 H 0.67855 -0.3237 0.12942
H3 H 0.88003 -0.03113 -0.04586
H4 H -0.18707 0.33442 0.13695
H5 H 0.55164 0.33057 0.52149
H6 H 0.5212 0.41905 0.63471
N1A N 0.4169(5) 0.7940(3) 0.6197(3)
N2A N 0.4657(4) 0.5314(3) 0.7927(3)
C29A C 0.4339(5) 0.7120(4) 0.6298(3)
C30A C 0.4584(5) 0.6088(3) 0.6399(3)
C31A C 0.4628(5) 0.5650(3) 0.7242(3)
C32A C 0.4793(5) 0.5546(3) 0.5700(3)
C33A C 0.4688(5) 0.6008(3) 0.4874(3)
C34A C 0.4878(4) 0.5482(3) 0.4199(3)
H5A H 0.44836 0.66943 0.47851
H6A H 0.4788 0.58095 0.36529
Rh1A Rh 0.46819(4) -0.06930(3) 0.54629(3)
F1A F 0.1727(4) 0.1923(3) 0.3342(3)
F2A F -0.0434(4) 0.2012(3) 0.2745(3)
F3A F -0.0876(4) -0.1122(3) 0.4065(3)
F4A F 0.1279(4) -0.1273(3) 0.4646(3)
F5A F 0.5920(4) 0.2040(3) 0.6550(2)
F6A F 0.5499(6) 0.3162(3) 0.7767(3)
F7A F 0.1211(5) 0.2463(4) 0.8690(3)
F8A F 0.1620(4) 0.1307(3) 0.7458(3)
O1A O 0.2988(4) -0.0428(3) 0.5001(3)
O2A O 0.3584(4) 0.0863(3) 0.4112(3)
O3A O 0.3880(4) 0.0172(3) 0.6412(2)
O4A O 0.4493(4) 0.1470(3) 0.5533(2)
C1A C 0.2836(6) 0.0245(4) 0.4408(4)
C2A C 0.1615(6) 0.0315(4) 0.4043(4)
C3A C 0.1127(7) 0.1143(4) 0.3528(4)
C4A C 0.0003(7) 0.1196(5) 0.3210(4)
C5A C -0.0708(7) 0.0448(4) 0.3369(4)
C6A C -0.0213(6) -0.0372(4) 0.3846(4)
C7A C 0.0905(6) -0.0437(4) 0.4180(4)
C8A C 0.4055(6) 0.1045(4) 0.6244(4)
C9A C 0.3762(7) 0.1649(4) 0.6964(4)
C10A C 0.4743(7) 0.2143(5) 0.7065(4)
C11A C 0.4516(8) 0.2708(5) 0.7704(4)
C12A C 0.3350(9) 0.2834(5) 0.8265(4)
C13A C 0.2382(8) 0.2362(5) 0.8173(4)
C14A C 0.2594(7) 0.1758(4) 0.7530(4)
H1A H -0.14967 0.04967 0.31603
H2A H 0.32145 0.3237 0.87058
Rh2A Rh 0.48755(4) 0.50700(3) -0.07288(2)
F9A F 0.3251(9) 0.8202(4) -0.1257(4)
F10A F 0.2056(9) 0.9987(4) -0.1074(5)
F11A F 0.0957(8) 0.9179(5) 0.1856(5)
F12A F 0.2089(6) 0.7363(4) 0.1686(4)
F13A F 0.9401(4) 0.4479(3) -0.1294(3)
F14A F 1.1796(4) 0.4972(3) -0.1759(3)
F15A F 1.0118(4) 0.7987(3) -0.0699(3)
F16A F 0.7727(4) 0.7489(3) -0.0245(3)
O5A O 0.3786(4) 0.6407(3) -0.0576(2)
O6A O 0.4063(4) 0.6281(3) 0.0785(2)
O7A O 0.6591(4) 0.5603(3) -0.1061(2)
O8A O 0.6810(4) 0.5492(3) 0.0313(2)
C15A C 0.3622(6) 0.6719(4) 0.0144(4)
C16A C 0.2828(7) 0.7714(5) 0.0231(4)
C17A C 0.2689(11) 0.8405(6) -0.0456(6)
C18A C 0.2079(12) 0.9346(6) -0.0362(7)
C19A C 0.1549(12) 0.9651(8) 0.0393(7)
C20A C 0.1544(10) 0.8955(8) 0.1056(7)
C21A C 0.2166(8) 0.8000(6) 0.0987(6)
C22A C 0.7188(5) 0.5669(4) -0.0485(3)
C23A C 0.8505(6) 0.5972(4) -0.0753(3)
C24A C 0.9573(6) 0.5354(4) -0.1141(4)
C25A C 1.0800(6) 0.5611(5) -0.1373(4)
C26A C 1.1019(6) 0.6486(5) -0.1219(4)
C27A C 0.9968(7) 0.7103(5) -0.0842(4)
C28A C 0.8735(6) 0.6869(4) -0.0612(4)
H3A H 0.11997 1.03113 0.04586
H4A H 1.18707 0.66558 -0.13695
Rh1A_2 Rh 0.46819(4) 0.93070(3) 0.54629(3)
Rh2A_2 Rh 0.48755(4) 0.50700(3) 0.92712(2)
N1A_2 N 0.4169(5) -0.2060(3) 0.6197(3)
N2A_2 N 0.4657(4) 0.5314(3) -0.2073(3)
Fe1 Fe 1.0 0.500 0.500
C35 C 1.1413(5) 0.5725(4) 0.5217(4)
C36 C 1.1169(6) 0.6557(5) 0.5734(5)
C37 C 1.1691(5) 0.4721(4) 0.5529(3)
C38 C 1.1755(6) 0.4309(6) 0.6427(4)
C39 C 1.1901(5) 0.4163(4) 0.4841(4)
C40 C 1.2222(6) 0.3096(5) 0.4883(5)
C41 C 1.1745(5) 0.4822(4) 0.4089(3)
C42 C 1.1896(6) 0.4555(6) 0.3209(4)
C43 C 1.1463(5) 0.5777(4) 0.4325(4)
C44 C 1.1299(7) 0.6693(5) 0.3722(5)
H7 H 1.11885 0.63094 0.63304
H8 H 1.03058 0.69463 0.569
H9 H 1.18511 0.69582 0.55203
H10 H 1.15752 0.48364 0.67863
H11 H 1.2633 0.39363 0.64539
H12 H 1.10983 0.38839 0.66307
H13 H 1.23156 0.29 0.43144
H14 H 1.30488 0.28695 0.50901
H15 H 1.15158 0.28105 0.52711
H16 H 1.20882 0.38488 0.32204
H17 H 1.10795 0.4805 0.29944
H18 H 1.2619 0.48359 0.28349
H19 H 1.11094 0.72552 0.40419
H20 H 1.21107 0.67191 0.33001
H21 H 1.05709 0.67006 0.34315
C35A C 0.8587(5) 0.4275(4) 0.4783(4)
C36A C 0.8831(6) 0.3443(5) 0.4266(5)
C37A C 0.8309(5) 0.5279(4) 0.4471(3)
C38A C 0.8245(6) 0.5691(6) 0.3573(4)
C39A C 0.8099(5) 0.5837(4) 0.5159(4)
C40A C 0.7778(6) 0.6904(5) 0.5117(5)
C41A C 0.8255(5) 0.5178(4) 0.5911(3)
C42A C 0.8104(6) 0.5445(6) 0.6791(4)
C43A C 0.8537(5) 0.4223(4) 0.5675(4)
C44A C 0.8701(7) 0.3307(5) 0.6278(5)
H7A H 0.88115 0.36906 0.36696
H8A H 0.96942 0.30537 0.431
H9A H 0.81489 0.30418 0.44797
H10A H 0.84248 0.51636 0.32137
H11A H 0.7367 0.60637 0.35461
H12A H 0.89017 0.61161 0.33693
H13A H 0.76844 0.71 0.56856
H14A H 0.69512 0.71305 0.49099
H15A H 0.84842 0.71895 0.47289
H16A H 0.79118 0.61512 0.67796
H17A H 0.89205 0.5195 0.70056
H18A H 0.7381 0.51641 0.71651
H19A H 0.88906 0.27448 0.59581
H20A H 0.78893 0.32809 0.66999
H21A H 0.94291 0.32994 0.65685
loop_
_geom_bond_atom_site_label_1
_geom_bond_atom_site_label_2
_geom_bond_site_symmetry_1
_geom_bond_site_symmetry_2
Rh1 O1 1_555 1_555
Rh2 O5 1_555 1_555
F1 C3 1_555 1_555
F2 C4 1_555 1_555
F3 C6 1_555 1_555
F4 C7 1_555 1_555
F5 C10 1_555 1_555
F6 C11 1_555 1_555
F7 C13 1_555 1_555
F8 C14 1_555 1_555
F9 C17 1_555 1_555
F10 C18 1_555 1_555
F11 C20 1_555 1_555
F12 C21 1_555 1_555
F13 C24 1_555 1_555
F14 C25 1_555 1_555
F15 C27 1_555 1_555
F16 C28 1_555 1_555
O1 C1 1_555 1_555
O2 C1 1_555 1_555
O3 Rh1 1_555 1_555
O4 C8 1_555 1_555
O5 C15 1_555 1_555
O6 C15 1_555 1_555
O7 Rh2 1_555 1_555
O8 C22 1_555 1_555
N1 Rh1 1_555 1_555
N2 Rh2 1_555 1_555
C1 C2 1_555 1_555
C2 C3 1_555 1_555
C3 C4 1_555 1_555
C4 C5 1_555 1_555
C5 C6 1_555 1_555
C6 C7 1_555 1_555
C7 C2 1_555 1_555
C8 O3 1_555 1_555
C9 C8 1_555 1_555
C10 C9 1_555 1_555
C11 C10 1_555 1_555
C12 C11 1_555 1_555
C13 C12 1_555 1_555
C14 C9 1_555 1_555
C15 C16 1_555 1_555
C16 C17 1_555 1_555
C17 C18 1_555 1_555
C18 C19 1_555 1_555
C19 C20 1_555 1_555
C20 C21 1_555 1_555
C21 C16 1_555 1_555
C22 O7 1_555 1_555
C23 C22 1_555 1_555
C24 C23 1_555 1_555
C25 C24 1_555 1_555
C26 C25 1_555 1_555
C27 C26 1_555 1_555
C28 C23 1_555 1_555
C29 N1 1_555 1_555
C30 C29 1_555 1_555
C31 N2 1_555 1_555
C32 C30 1_555 1_555
C33 C32 1_555 1_555
C34 C33 1_555 1_555
H1 C5 1_555 1_555
H2 C12 1_555 1_555
H3 C19 1_555 1_555
H4 C26 1_555 1_555
H5 C33 1_555 1_555
H6 C34 1_555 1_555
Fe1 C35 1_555 1_555
C35 C36 1_555 1_555
C36 H7 1_555 1_555
C37 Fe1 1_555 1_555
C38 C37 1_555 1_555
C39 Fe1 1_555 1_555
C40 C39 1_555 1_555
C41 Fe1 1_555 1_555
C42 C41 1_555 1_555
C43 Fe1 1_555 1_555
C44 C43 1_555 1_555
H8 C36 1_555 1_555
H9 C36 1_555 1_555
H10 C38 1_555 1_555
H11 C38 1_555 1_555
H12 C38 1_555 1_555
H13 C40 1_555 1_555
H14 C40 1_555 1_555
H15 C40 1_555 1_555
H16 C42 1_555 1_555
H17 C42 1_555 1_555
H18 C42 1_555 1_555
H19 C44 1_555 1_555
H20 C44 1_555 1_555
H21 C44 1_555 1_555
N1A C29A 1_555 1_555
N2A C31A 1_555 1_555
C29A C30A 1_555 1_555
C30A C31A 1_555 1_555
C32A C34 1_555 1_555
C33A C32A 1_555 1_555
C34A C32 1_555 1_555
H5A C33A 1_555 1_555
H6A C34A 1_555 1_555
Rh1A Rh1 1_555 1_555
F1A C3A 1_555 1_555
F2A C4A 1_555 1_555
F3A C6A 1_555 1_555
F4A C7A 1_555 1_555
F5A C10A 1_555 1_555
F6A C11A 1_555 1_555
F7A C13A 1_555 1_555
F8A C14A 1_555 1_555
O1A Rh1A 1_555 1_555
O2A Rh1 1_555 1_555
O3A Rh1A 1_555 1_555
O4A Rh1 1_555 1_555
C1A O1A 1_555 1_555
C2A C1A 1_555 1_555
C3A C2A 1_555 1_555
C4A C3A 1_555 1_555
C5A C4A 1_555 1_555
C6A C5A 1_555 1_555
C7A C2A 1_555 1_555
C8A O3A 1_555 1_555
C9A C8A 1_555 1_555
C10A C9A 1_555 1_555
C11A C10A 1_555 1_555
C12A C11A 1_555 1_555
C13A C12A 1_555 1_555
C14A C9A 1_555 1_555
H1A C5A 1_555 1_555
H2A C12A 1_555 1_555
Rh2A Rh2 1_555 1_555
F9A C17A 1_555 1_555
F10A C18A 1_555 1_555
F11A C20A 1_555 1_555
F12A C21A 1_555 1_555
F13A C24A 1_555 1_555
F14A C25A 1_555 1_555
F15A C27A 1_555 1_555
F16A C28A 1_555 1_555
O5A Rh2A 1_555 1_555
O6A Rh2 1_555 1_555
O7A Rh2A 1_555 1_555
O8A Rh2 1_555 1_555
C15A O5A 1_555 1_555
C16A C15A 1_555 1_555
C17A C16A 1_555 1_555
C18A C17A 1_555 1_555
C19A C18A 1_555 1_555
C20A C19A 1_555 1_555
C21A C16A 1_555 1_555
C22A O7A 1_555 1_555
C23A C22A 1_555 1_555
C24A C23A 1_555 1_555
C25A C24A 1_555 1_555
C26A C25A 1_555 1_555
C27A C26A 1_555 1_555
C28A C23A 1_555 1_555
H3A C19A 1_555 1_555
H4A C26A 1_555 1_555
Rh1A_2 N1A 1_555 1_555
Rh2A_2 N2A 1_555 1_555
N1A_2 Rh1A 1_555 1_555
N2A_2 Rh2A 1_555 1_555
C35A Fe1 1_555 1_555
C36A C35A 1_555 1_555
C37A Fe1 1_555 1_555
C38A C37A 1_555 1_555
C39A Fe1 1_555 1_555
C40A C39A 1_555 1_555
C41A Fe1 1_555 1_555
C42A C41A 1_555 1_555
C43A Fe1 1_555 1_555
C44A C43A 1_555 1_555
H7A C36A 1_555 1_555
H8A C36A 1_555 1_555
H9A C36A 1_555 1_555
H10A C38A 1_555 1_555
H11A C38A 1_555 1_555
H12A C38A 1_555 1_555
H13A C40A 1_555 1_555
H14A C40A 1_555 1_555
H15A C40A 1_555 1_555
H16A C42A 1_555 1_555
H17A C42A 1_555 1_555
H18A C42A 1_555 1_555
H19A C44A 1_555 1_555
H20A C44A 1_555 1_555
H21A C44A 1_555 1_555
O2 Rh1A 1_555 1_555
O4 Rh1A 1_555 1_555
O6 Rh2A 1_555 1_555
O8 Rh2A 1_555 1_555
C13 C14 1_555 1_555
C27 C28 1_555 1_555
C30 C31 1_555 1_555
C35 C37 1_555 1_555
C35 C43 1_555 1_555
C37 C39 1_555 1_555
C39 C41 1_555 1_555
C41 C43 1_555 1_555
C30A C32A 1_555 1_555
C33A C34A 1_555 1_555
O2A C1A 1_555 1_555
O4A C8A 1_555 1_555
C6A C7A 1_555 1_555
C13A C14A 1_555 1_555
O6A C15A 1_555 1_555
O8A C22A 1_555 1_555
C20A C21A 1_555 1_555
C27A C28A 1_555 1_555
C35A C37A 1_555 1_555
C35A C43A 1_555 1_555
C37A C39A 1_555 1_555
C39A C41A 1_555 1_555
C41A C43A 1_555 1_555

#END
