
#######################################################################
#
#                 Cambridge Crystallographic Data Centre
#                                CCDC 
#
#######################################################################
#
# If this CIF has been generated from an entry in the Cambridge 
# Structural Database, then it will include bibliographic, chemical, 
# crystal, experimental, refinement or atomic coordinate data resulting 
# from the CCDC's data processing and validation procedures.
#
#######################################################################

data_XOWFIY
_symmetry_cell_setting           triclinic
_symmetry_space_group_name_H-M   'P -1'
_symmetry_Int_Tables_number      2
_space_group_name_Hall           '-P 1'
loop_
_symmetry_equiv_pos_site_id
_symmetry_equiv_pos_as_xyz
1 x,y,z
2 -x,-y,-z
_cell_length_a                   8.2628(2)
_cell_length_b                   8.5254(1)
_cell_length_c                   8.9832(2)
_cell_angle_alpha                97.466(2)
_cell_angle_beta                 104.013(2)
_cell_angle_gamma                86.296(2)
_cell_volume                     608.411
loop_
_atom_site_label
_atom_site_type_symbol
_atom_site_fract_x
_atom_site_fract_y
_atom_site_fract_z
Pb1 Pb 1.00028(4) 0.24357(4) -0.05193(4)
S1 S 0.9596(3) 0.3494(3) -0.3232(3)
S2 S 1.2236(3) 0.0536(3) -0.1549(2)
S3 S 1.2975(3) -0.0166(3) -0.4639(2)
S4 S 1.0850(3) 0.2279(3) -0.6007(2)
S5 S 1.2668(3) 0.0108(3) -0.7969(2)
O1 O 1.2334(8) 0.4417(9) 0.0794(9)
N1 N 1.505(1) 0.4612(9) 0.2120(1)
C1 C 1.087(1) 0.2156(9) -0.4087(9)
C2 C 1.190(1) 0.0979(9) -0.3444(9)
C3 C 1.218(1) 0.071(1) -0.6284(9)
C4 C 1.671(1) 0.386(1) 0.248(2)
C5 C 1.484(2) 0.622(2) 0.283(2)
C6 C 1.380(1) 0.388(1) 0.117(1)
S5_2 S 1.2668(3) 0.0108(3) 0.2031(2)
S5A S 0.7332(3) -0.0108(3) -0.2031(2)
O1A O 0.7666(8) 0.5583(9) -0.0794(9)
Pb1_2 Pb 1.00028(4) 0.24357(4) -1.05193(4)
Pb1A Pb 0.99972(4) -0.24357(4) -0.94807(4)
Pb1A_2 Pb 0.99972(4) 0.75643(4) 0.05193(4)
loop_
_geom_bond_atom_site_label_1
_geom_bond_atom_site_label_2
_geom_bond_site_symmetry_1
_geom_bond_site_symmetry_2
Pb1 S1 1_555 1_555
S1 C1 1_555 1_555
S2 Pb1 1_555 1_555
S3 C2 1_555 1_555
S4 C1 1_555 1_555
S5 C3 1_555 1_555
O1 Pb1 1_555 1_555
N1 C4 1_555 1_555
C1 C2 1_555 1_555
C2 S2 1_555 1_555
C3 S3 1_555 1_555
C5 N1 1_555 1_555
C6 O1 1_555 1_555
S5_2 Pb1 1_555 1_555
S5A Pb1 1_555 1_555
O1A Pb1 1_555 1_555
Pb1_2 S5 1_555 1_555
Pb1A S5 1_555 1_555
Pb1A_2 O1 1_555 1_555
S4 C3 1_555 1_555
N1 C6 1_555 1_555
O1A Pb1A_2 1_555 1_555

#END
