
#######################################################################
#
#                 Cambridge Crystallographic Data Centre
#                                CCDC 
#
#######################################################################
#
# If this CIF has been generated from an entry in the Cambridge 
# Structural Database, then it will include bibliographic, chemical, 
# crystal, experimental, refinement or atomic coordinate data resulting 
# from the CCDC's data processing and validation procedures.
#
#######################################################################

data_XOWJAU
_symmetry_cell_setting           triclinic
_symmetry_space_group_name_H-M   'P -1'
_symmetry_Int_Tables_number      2
_space_group_name_Hall           '-P 1'
loop_
_symmetry_equiv_pos_site_id
_symmetry_equiv_pos_as_xyz
1 x,y,z
2 -x,-y,-z
_cell_length_a                   10.2490(9)
_cell_length_b                   13.1572(13)
_cell_length_c                   15.3591(19)
_cell_angle_alpha                89.578(4)
_cell_angle_beta                 74.427(4)
_cell_angle_gamma                87.400(8)
_cell_volume                     1993.03
loop_
_atom_site_label
_atom_site_type_symbol
_atom_site_fract_x
_atom_site_fract_y
_atom_site_fract_z
Mo1 Mo -0.04258(8) 0.06361(6) 0.97258(5)
P1 P 0.4122(3) -0.2335(2) 0.45885(16)
P2 P 0.7490(2) 0.31199(19) 0.96474(16)
O1 O 0.0642(6) 0.0239(5) 0.8395(4)
O2 O 0.1555(6) -0.1085(5) 0.8969(4)
O3 O 0.1189(6) 0.1538(4) 0.9803(4)
O4 O 0.2078(6) 0.0193(5) 1.0384(4)
O5 O 0.5612(6) -0.2483(6) 0.4349(4)
O6 O 0.8601(5) 0.2317(5) 0.9352(4)
C1 C 0.1431(10) -0.0562(7) 0.8293(6)
C2 C 0.2189(9) -0.0903(7) 0.7373(5)
C3 C 0.2131(10) -0.0338(8) 0.6617(6)
C4 C 0.2747(9) -0.0753(8) 0.5756(6)
C5 C 0.3426(9) -0.1704(7) 0.5655(6)
C6 C 0.3530(10) -0.2216(8) 0.6425(6)
C7 C 0.2934(10) -0.1833(8) 0.7267(6)
C8 C 0.2146(9) 0.111(7) 1.0082(6)
C9 C 0.3388(8) 0.1668(7) 1.0017(5)
C10 C 0.3635(9) 0.2561(7) 0.9532(6)
C11 C 0.4851(9) 0.3022(8) 0.9421(6)
C12 C 0.5839(8) 0.2608(7) 0.9805(6)
C13 C 0.5580(9) 0.1726(7) 1.0311(6)
C14 C 0.4384(9) 0.1245(7) 1.0415(6)
C15 C 0.3300(10) -0.3536(8) 0.4761(6)
C16 C 0.1966(12) -0.3620(9) 0.5237(7)
C17 C 0.1402(14) -0.4575(13) 0.5342(8)
C18 C 0.222(2) -0.5440(10) 0.4949(10)
C19 C 0.3488(18) -0.5346(10) 0.4501(10)
C20 C 0.4079(13) -0.4408(10) 0.4382(8)
C21 C 0.3549(11) -0.1680(7) 0.3720(6)
C22 C 0.4492(14) -0.1355(9) 0.2979(8)
C23 C 0.4083(16) -0.0931(10) 0.2250(8)
C24 C 0.2757(17) -0.0805(9) 0.2287(8)
C25 C 0.1801(14) -0.1090(8) 0.3032(9)
C26 C 0.2190(11) -0.1522(8) 0.3751(8)
C27 C 0.7460(9) 0.3725(7) 1.0703(6)
C28 C 0.6279(10) 0.4131(7) 1.1247(6)
C29 C 0.6262(11) 0.4615(8) 1.2067(7)
C30 C 0.7420(11) 0.4640(9) 1.2324(7)
C31 C 0.8614(12) 0.4232(10) 1.1786(8)
C32 C 0.8660(10) 0.3743(9) 1.0959(7)
C33 C 0.7613(8) 0.4116(8) 0.8825(6)
C34 C 0.7773(10) 0.3843(8) 0.7942(6)
C35 C 0.7904(10) 0.4555(9) 0.7260(8)
C36 C 0.7815(10) 0.5574(8) 0.7488(7)
C37 C 0.7626(10) 0.5863(8) 0.8361(7)
C38 C 0.7516(9) 0.5160(7) 0.9046(6)
H1 H 0.169 0.030 0.668
H2 H 0.270 -0.039 0.524
H3 H 0.402 -0.284 0.637
H4 H 0.302 -0.219 0.777
H5 H 0.298 0.285 0.928
H6 H 0.501 0.362 0.909
H7 H 0.622 0.146 1.058
H8 H 0.423 0.065 1.074
H9 H 0.144 -0.304 0.549
H10 H 0.050 -0.464 0.567
H11 H 0.185 -0.608 0.501
H12 H 0.401 -0.592 0.425
H13 H 0.498 -0.436 0.406
H14 H 0.541 -0.141 0.296
H15 H 0.473 -0.073 0.174
H16 H 0.250 -0.052 0.180
H17 H 0.089 -0.100 0.306
H18 H 0.153 -0.171 0.426
H19 H 0.548 0.409 1.108
H20 H 0.546 0.491 1.243
H21 H 0.741 0.494 1.287
H22 H 0.941 0.428 1.197
H23 H 0.946 0.344 1.060
H24 H 0.779 0.316 0.780
H25 H 0.805 0.435 0.666
H26 H 0.789 0.606 0.704
H27 H 0.757 0.655 0.850
H28 H 0.738 0.537 0.964
Mo1A Mo 0.04258(8) -0.06361(6) 1.02742(5)
O2A O -0.1555(6) 0.1085(5) 1.1031(4)
O4A O -0.2078(6) -0.0193(5) 0.9616(4)
O6_2 O -0.1399(5) 0.2317(5) 0.9352(4)
Mo1_2 Mo 0.95742(8) 0.06361(6) 0.97258(5)
O1A O -0.0642(6) -0.0239(5) 1.1605(4)
O3A O -0.1189(6) -0.1538(4) 1.0197(4)
O6A O 0.1399(5) -0.2317(5) 1.0648(4)
C8A C -0.2146(9) -0.111(7) 0.9918(6)
C1A C -0.1431(10) 0.0562(7) 1.1707(6)
C2A C -0.2189(9) 0.0903(7) 1.2627(5)
C9A C -0.3388(8) -0.1668(7) 0.9983(5)
C3A C -0.2131(10) 0.0338(8) 1.3383(6)
C7A C -0.2934(10) 0.1833(8) 1.2733(6)
C10A C -0.3635(9) -0.2561(7) 1.0468(6)
C14A C -0.4384(9) -0.1245(7) 0.9585(6)
C4A C -0.2747(9) 0.0753(8) 1.4244(6)
H1A H -0.169 -0.030 1.332
C6A C -0.3530(10) 0.2216(8) 1.3575(6)
H4A H -0.302 0.219 1.223
C11A C -0.4851(9) -0.3022(8) 1.0579(6)
H5A H -0.298 -0.285 1.072
C5A C -0.3426(9) 0.1704(7) 1.4345(6)
H2A H -0.270 0.039 1.476
H3A H -0.402 0.284 1.363
C12A C -0.5839(8) -0.2608(7) 1.0195(6)
H6A H -0.501 -0.362 1.091
C13A C -0.5580(9) -0.1726(7) 0.9689(6)
H8A H -0.423 -0.065 0.926
P1A P -0.4122(3) 0.2335(2) 1.54115(16)
P2A P -0.7490(2) -0.31199(19) 1.03526(16)
H7A H -0.622 -0.146 0.942
O5A O -0.5612(6) 0.2483(6) 1.5651(4)
C15A C -0.3300(10) 0.3536(8) 1.5239(6)
C21A C -0.3549(11) 0.1680(7) 1.6280(6)
O6A_2 O -0.8601(5) -0.2317(5) 1.0648(4)
C27A C -0.7460(9) -0.3725(7) 0.9297(6)
C33A C -0.7613(8) -0.4116(8) 1.1175(6)
C22A C -0.4492(14) 0.1355(9) 1.7021(8)
C26A C -0.2190(11) 0.1522(8) 1.6249(8)
C16A C -0.1966(12) 0.3620(9) 1.4763(7)
C20A C -0.4079(13) 0.4408(10) 1.5618(8)
C34A C -0.7773(10) -0.3843(8) 1.2058(6)
C38A C -0.7516(9) -0.5160(7) 1.0954(6)
C28A C -0.6279(10) -0.4131(7) 0.8753(6)
C32A C -0.8660(10) -0.3743(9) 0.9041(7)
C19A C -0.3488(18) 0.5346(10) 1.5499(10)
H13A H -0.498 0.436 1.594
C17A C -0.1402(14) 0.4575(13) 1.4658(8)
H9A H -0.144 0.304 1.451
C23A C -0.4083(16) 0.0931(10) 1.7750(8)
H14A H -0.541 0.141 1.704
C25A C -0.1801(14) 0.1090(8) 1.6968(9)
H18A H -0.153 0.171 1.574
C29A C -0.6262(11) -0.4615(8) 0.7933(7)
H19A H -0.548 -0.409 0.892
C37A C -0.7626(10) -0.5863(8) 1.1639(7)
H28A H -0.738 -0.537 1.036
C31A C -0.8614(12) -0.4232(10) 0.8214(8)
H23A H -0.946 -0.344 0.940
C35A C -0.7904(10) -0.4555(9) 1.2740(8)
H24A H -0.779 -0.316 1.220
C24A C -0.2757(17) 0.0805(9) 1.7713(8)
H15A H -0.473 0.073 1.826
H17A H -0.089 0.100 1.694
C18A C -0.222(2) 0.5440(10) 1.5051(10)
H12A H -0.401 0.592 1.575
H10A H -0.050 0.464 1.433
H16A H -0.250 0.052 1.820
H11A H -0.185 0.608 1.499
C36A C -0.7815(10) -0.5574(8) 1.2512(7)
H27A H -0.757 -0.655 1.150
H25A H -0.805 -0.435 1.334
C30A C -0.7420(11) -0.4640(9) 0.7676(7)
H22A H -0.941 -0.428 0.803
H20A H -0.546 -0.491 0.757
H26A H -0.789 -0.606 1.296
H21A H -0.741 -0.494 0.713
Mo1A_2 Mo -0.95742(8) -0.06361(6) 1.02742(5)
O7 O 1.1706(8) 0.2160(7) 0.6145(6)
C39 C 1.1102(12) 0.2790(10) 0.6905(8)
C40 C 1.1739(13) 0.2689(10) 0.7658(8)
H29 H 1.253 0.219 0.602
H30 H 1.015 0.263 0.713
H31 H 1.113 0.349 0.671
H32 H 1.171 0.200 0.786
H33 H 1.126 0.313 0.815
H34 H 1.267 0.288 0.746
O8 O 0.0859(11) 0.2200(10) 0.4589(8)
C41 C 0.158(4) 0.144(3) 0.402(3)
C43 C 0.119(4) 0.172(3) 0.309(3)
H35 H 0.111 0.281 0.452
H37 H 0.128 0.077 0.424
H38 H 0.255 0.146 0.395
H41 H 0.095 0.111 0.283
H42 H 0.195 0.200 0.266
H43 H 0.043 0.220 0.321
C42? C 0.133(5) 0.149(3) 0.390(3)
C44? C 0.295(3) 0.151(2) 0.3761(16)
H36? H 0.023 0.206 0.505
H39? H 0.109 0.170 0.336
H40? H 0.100 0.083 0.408
H44? H 0.332 0.200 0.331
H45? H 0.335 0.085 0.357
H46? H 0.313 0.168 0.432
loop_
_geom_bond_atom_site_label_1
_geom_bond_atom_site_label_2
_geom_bond_site_symmetry_1
_geom_bond_site_symmetry_2
Mo1 O1 1_555 1_555
P1 O5 1_555 1_555
P2 O6 1_555 1_555
O1 C1 1_555 1_555
O2 C1 1_555 1_555
O3 Mo1 1_555 1_555
O4 C8 1_555 1_555
O6 Mo1_2 1_555 1_555
C1 C2 1_555 1_555
C2 C3 1_555 1_555
C3 C4 1_555 1_555
C4 C5 1_555 1_555
C5 P1 1_555 1_555
C6 C5 1_555 1_555
C7 C2 1_555 1_555
C8 O3 1_555 1_555
C9 C8 1_555 1_555
C10 C9 1_555 1_555
C11 C10 1_555 1_555
C12 P2 1_555 1_555
C13 C12 1_555 1_555
C14 C9 1_555 1_555
C15 P1 1_555 1_555
C16 C15 1_555 1_555
C17 C16 1_555 1_555
C18 C17 1_555 1_555
C19 C18 1_555 1_555
C20 C15 1_555 1_555
C21 P1 1_555 1_555
C22 C21 1_555 1_555
C23 C22 1_555 1_555
C24 C23 1_555 1_555
C25 C24 1_555 1_555
C26 C21 1_555 1_555
C27 P2 1_555 1_555
C28 C27 1_555 1_555
C29 C28 1_555 1_555
C30 C29 1_555 1_555
C31 C30 1_555 1_555
C32 C27 1_555 1_555
C33 P2 1_555 1_555
C34 C33 1_555 1_555
C35 C34 1_555 1_555
C36 C35 1_555 1_555
C37 C36 1_555 1_555
C38 C33 1_555 1_555
O7 C39 1_555 1_555
O8 C41 1_555 1_555
C39 C40 1_555 1_555
C40 H32 1_555 1_555
C41 C43 1_555 1_555
C43 H41 1_555 1_555
H1 C3 1_555 1_555
H2 C4 1_555 1_555
H3 C6 1_555 1_555
H4 C7 1_555 1_555
H5 C10 1_555 1_555
H6 C11 1_555 1_555
H7 C13 1_555 1_555
H8 C14 1_555 1_555
H9 C16 1_555 1_555
H10 C17 1_555 1_555
H11 C18 1_555 1_555
H12 C19 1_555 1_555
H13 C20 1_555 1_555
H14 C22 1_555 1_555
H15 C23 1_555 1_555
H16 C24 1_555 1_555
H17 C25 1_555 1_555
H18 C26 1_555 1_555
H19 C28 1_555 1_555
H20 C29 1_555 1_555
H21 C30 1_555 1_555
H22 C31 1_555 1_555
H23 C32 1_555 1_555
H24 C34 1_555 1_555
H25 C35 1_555 1_555
H26 C36 1_555 1_555
H27 C37 1_555 1_555
H28 C38 1_555 1_555
H29 O7 1_555 1_555
H30 C39 1_555 1_555
H31 C39 1_555 1_555
H33 C40 1_555 1_555
H34 C40 1_555 1_555
H35 O8 1_555 1_555
H37 C41 1_555 1_555
H38 C41 1_555 1_555
H42 C43 1_555 1_555
H43 C43 1_555 1_555
Mo1A Mo1 1_555 1_555
O2A Mo1 1_555 1_555
O4A Mo1 1_555 1_555
O6_2 Mo1 1_555 1_555
O1A Mo1A 1_555 1_555
O3A Mo1A 1_555 1_555
O6A Mo1A 1_555 1_555
C8A O4A 1_555 1_555
C1A O2A 1_555 1_555
C2A C1A 1_555 1_555
C9A C8A 1_555 1_555
C3A C2A 1_555 1_555
C7A C2A 1_555 1_555
C10A C9A 1_555 1_555
C14A C9A 1_555 1_555
C4A C3A 1_555 1_555
H1A C3A 1_555 1_555
C6A C7A 1_555 1_555
H4A C7A 1_555 1_555
C11A C10A 1_555 1_555
H5A C10A 1_555 1_555
C5A C4A 1_555 1_555
H2A C4A 1_555 1_555
H3A C6A 1_555 1_555
C12A C11A 1_555 1_555
H6A C11A 1_555 1_555
C13A C14A 1_555 1_555
H8A C14A 1_555 1_555
P1A C5A 1_555 1_555
P2A C12A 1_555 1_555
H7A C13A 1_555 1_555
O5A P1A 1_555 1_555
C15A P1A 1_555 1_555
C21A P1A 1_555 1_555
O6A_2 P2A 1_555 1_555
C27A P2A 1_555 1_555
C33A P2A 1_555 1_555
C22A C21A 1_555 1_555
C26A C21A 1_555 1_555
C16A C15A 1_555 1_555
C20A C15A 1_555 1_555
C34A C33A 1_555 1_555
C38A C33A 1_555 1_555
C28A C27A 1_555 1_555
C32A C27A 1_555 1_555
C19A C20A 1_555 1_555
H13A C20A 1_555 1_555
C17A C16A 1_555 1_555
H9A C16A 1_555 1_555
C23A C22A 1_555 1_555
H14A C22A 1_555 1_555
C25A C26A 1_555 1_555
H18A C26A 1_555 1_555
C29A C28A 1_555 1_555
H19A C28A 1_555 1_555
C37A C38A 1_555 1_555
H28A C38A 1_555 1_555
C31A C32A 1_555 1_555
H23A C32A 1_555 1_555
C35A C34A 1_555 1_555
H24A C34A 1_555 1_555
C24A C23A 1_555 1_555
H15A C23A 1_555 1_555
H17A C25A 1_555 1_555
C18A C19A 1_555 1_555
H12A C19A 1_555 1_555
H10A C17A 1_555 1_555
H16A C24A 1_555 1_555
H11A C18A 1_555 1_555
C36A C37A 1_555 1_555
H27A C37A 1_555 1_555
H25A C35A 1_555 1_555
C30A C29A 1_555 1_555
H22A C31A 1_555 1_555
H20A C29A 1_555 1_555
H26A C36A 1_555 1_555
H21A C30A 1_555 1_555
Mo1A_2 O6A_2 1_555 1_555
O2 Mo1A 1_555 1_555
O4 Mo1A 1_555 1_555
C6 C7 1_555 1_555
C11 C12 1_555 1_555
C13 C14 1_555 1_555
C19 C20 1_555 1_555
C25 C26 1_555 1_555
C31 C32 1_555 1_555
C37 C38 1_555 1_555
O1A C1A 1_555 1_555
O3A C8A 1_555 1_555
C6A C5A 1_555 1_555
C12A C13A 1_555 1_555
C17A C18A 1_555 1_555
C25A C24A 1_555 1_555
C31A C30A 1_555 1_555
C35A C36A 1_555 1_555

#END
