
#######################################################################
#
#                 Cambridge Crystallographic Data Centre
#                                CCDC 
#
#######################################################################
#
# If this CIF has been generated from an entry in the Cambridge 
# Structural Database, then it will include bibliographic, chemical, 
# crystal, experimental, refinement or atomic coordinate data resulting 
# from the CCDC's data processing and validation procedures.
#
#######################################################################

data_XOWKUQ
_symmetry_cell_setting           monoclinic
_symmetry_space_group_name_H-M   'C 2/c'
_symmetry_Int_Tables_number      15
_space_group_name_Hall           '-C 2yn'
loop_
_symmetry_equiv_pos_site_id
_symmetry_equiv_pos_as_xyz
1 x,y,z
2 -x,y,1/2-z
3 1/2+x,1/2+y,z
4 1/2-x,1/2+y,1/2-z
5 -x,-y,-z
6 x,-y,1/2+z
7 1/2-x,1/2-y,-z
8 1/2+x,1/2-y,1/2+z
_cell_length_a                   22.1660(9)
_cell_length_b                   14.9825(7)
_cell_length_c                   11.4773(4)
_cell_angle_alpha                90
_cell_angle_beta                 107.972(2)
_cell_angle_gamma                90
_cell_volume                     3625.66
loop_
_atom_site_label
_atom_site_type_symbol
_atom_site_fract_x
_atom_site_fract_y
_atom_site_fract_z
Cu1 Cu 0.2500 0.2500 0.5000
Cu2 Cu 0.0000 0.11358(4) 0.2500
Cu3 Cu 0.10563(2) 0.51701(3) 0.75451(4)
N1 N 0.18480(12) 0.17415(19) 0.4104(2)
N2 N 0.08743(12) 0.11493(19) 0.3230(3)
N3 N 0.10593(13) 0.55080(19) 0.5987(2)
N4 N 0.11176(13) 0.53034(19) 0.4075(2)
C1 C 0.10972(15) 0.3351(2) 0.4552(3)
H1 H 0.1399 0.3522 0.4186
C2 C 0.09329(14) 0.2455(2) 0.4556(3)
C3 C 0.04803(16) 0.2202(2) 0.5111(3)
H2 H 0.0363 0.1606 0.5109
C4 C 0.02055(17) 0.2841(3) 0.5666(3)
H3 H -0.0090 0.2670 0.6048
C5 C 0.03694(16) 0.3728(3) 0.5653(3)
H4 H 0.0181 0.4151 0.6022
C6 C 0.08148(15) 0.3997(2) 0.5090(3)
C7 C 0.09940(15) 0.4941(2) 0.5052(3)
C8 C 0.12241(15) 0.1777(2) 0.3962(3)
C9 C 0.12528(16) 0.6306(2) 0.5597(3)
C10 C 0.1396(2) 0.7131(3) 0.6170(3)
H5 H 0.1374 0.7223 0.6957
C11 C 0.1571(2) 0.7808(3) 0.5525(4)
H6 H 0.1674 0.8364 0.5892
C12 C 0.1598(2) 0.7683(3) 0.4338(4)
H7 H 0.1712 0.8158 0.3927
C13 C 0.14590(19) 0.6872(3) 0.3770(3)
H8 H 0.1479 0.6786 0.2980
C14 C 0.12859(16) 0.6177(2) 0.4411(3)
C15 C 0.19098(16) 0.1007(2) 0.3395(3)
C16 C 0.24371(17) 0.0646(3) 0.3156(4)
H9 H 0.2840 0.0884 0.3502
C17 C 0.23368(19) -0.0079(3) 0.2385(4)
H10 H 0.2681 -0.0335 0.2209
C18 C 0.1731(2) -0.0445(3) 0.1856(4)
H11 H 0.1683 -0.0939 0.1344
C19 C 0.12091(18) -0.0086(3) 0.2083(4)
H12 H 0.0806 -0.0323 0.1724
C20 C 0.13032(16) 0.0643(2) 0.2869(3)
Cu2F Cu 0.5000 0.38642(4) 0.7500
Cu3F Cu 0.39437(2) -0.01701(3) 0.24549(4)
Cu3E Cu 0.10563(2) 0.48299(3) 0.25451(4)
Cu3C Cu 0.39437(2) 0.01701(3) 0.74549(4)
N1F N 0.31520(12) 0.32585(19) 0.5896(2)
N2F N 0.41257(12) 0.38507(19) 0.6770(3)
N2A N -0.08743(12) 0.11493(19) 0.1770(3)
N3F N 0.39407(13) -0.05080(19) 0.4013(2)
N4F N 0.38824(13) -0.03034(19) 0.5925(2)
N4E N 0.11176(13) 0.46966(19) 0.9075(2)
N4C N 0.38824(13) 0.03034(19) 0.0925(2)
C1F C 0.39028(15) 0.1649(2) 0.5448(3)
H1F H 0.3601 0.1478 0.5814
C2F C 0.40671(14) 0.2545(2) 0.5444(3)
C3F C 0.45197(16) 0.2798(2) 0.4889(3)
H2F H 0.4637 0.3394 0.4891
C4F C 0.47945(17) 0.2159(3) 0.4334(3)
H3F H 0.5090 0.2330 0.3952
C5F C 0.46306(16) 0.1272(3) 0.4347(3)
H4F H 0.4819 0.0849 0.3978
C6F C 0.41852(15) 0.1003(2) 0.4910(3)
C7F C 0.40060(15) 0.0059(2) 0.4948(3)
C8F C 0.37759(15) 0.3223(2) 0.6038(3)
C9F C 0.37472(16) -0.1306(2) 0.4403(3)
C10F C 0.3604(2) -0.2131(3) 0.3830(3)
H5F H 0.3626 -0.2223 0.3043
C11F C 0.3429(2) -0.2808(3) 0.4475(4)
H6F H 0.3326 -0.3364 0.4108
C12F C 0.3402(2) -0.2683(3) 0.5662(4)
H7F H 0.3288 -0.3158 0.6073
C13F C 0.35410(19) -0.1872(3) 0.6230(3)
H8F H 0.3521 -0.1786 0.7020
C14F C 0.37141(16) -0.1177(2) 0.5589(3)
C15F C 0.30902(16) 0.3993(2) 0.6605(3)
C16F C 0.25629(17) 0.4354(3) 0.6844(4)
H9F H 0.2160 0.4116 0.6498
C17F C 0.26632(19) 0.5079(3) 0.7615(4)
H10F H 0.2319 0.5335 0.7791
C18F C 0.3269(2) 0.5445(3) 0.8144(4)
H11F H 0.3317 0.5939 0.8656
C19F C 0.37909(18) 0.5086(3) 0.7917(4)
H12F H 0.4194 0.5323 0.8276
C20F C 0.36968(16) 0.4357(2) 0.7131(3)
loop_
_geom_bond_atom_site_label_1
_geom_bond_atom_site_label_2
_geom_bond_site_symmetry_1
_geom_bond_site_symmetry_2
Cu1 N1 1_555 1_555
Cu2 N2 1_555 1_555
Cu3 N3 1_555 1_555
N1 C8 1_555 1_555
N2 C8 1_555 1_555
N3 C7 1_555 1_555
N4 C7 1_555 1_555
C1 H1 1_555 1_555
C2 C1 1_555 1_555
C3 C2 1_555 1_555
H2 C3 1_555 1_555
C4 C3 1_555 1_555
H3 C4 1_555 1_555
C5 C4 1_555 1_555
H4 C5 1_555 1_555
C6 C1 1_555 1_555
C7 C6 1_555 1_555
C8 C2 1_555 1_555
C9 N3 1_555 1_555
C10 C9 1_555 1_555
H5 C10 1_555 1_555
C11 C10 1_555 1_555
H6 C11 1_555 1_555
C12 C11 1_555 1_555
H7 C12 1_555 1_555
C13 C12 1_555 1_555
H8 C13 1_555 1_555
C14 N4 1_555 1_555
C15 N1 1_555 1_555
C16 C15 1_555 1_555
H9 C16 1_555 1_555
C17 C16 1_555 1_555
H10 C17 1_555 1_555
C18 C17 1_555 1_555
H11 C18 1_555 1_555
C19 C18 1_555 1_555
H12 C19 1_555 1_555
C20 N2 1_555 1_555
Cu2F N2F 1_555 1_555
Cu3F N3F 1_555 1_555
Cu3E N4 1_555 1_555
Cu3C N4F 1_555 1_555
N1F Cu1 1_555 1_555
N2F C8F 1_555 1_555
N2A Cu2 1_555 1_555
N3F C7F 1_555 1_555
N4F C7F 1_555 1_555
N4E Cu3 1_555 1_555
N4C Cu3F 1_555 1_555
C1F H1F 1_555 1_555
C2F C1F 1_555 1_555
C3F C2F 1_555 1_555
H2F C3F 1_555 1_555
C4F C3F 1_555 1_555
H3F C4F 1_555 1_555
C5F C4F 1_555 1_555
H4F C5F 1_555 1_555
C6F C1F 1_555 1_555
C7F C6F 1_555 1_555
C8F N1F 1_555 1_555
C9F N3F 1_555 1_555
C10F C9F 1_555 1_555
H5F C10F 1_555 1_555
C11F C10F 1_555 1_555
H6F C11F 1_555 1_555
C12F C11F 1_555 1_555
H7F C12F 1_555 1_555
C13F C12F 1_555 1_555
H8F C13F 1_555 1_555
C14F N4F 1_555 1_555
C15F N1F 1_555 1_555
C16F C15F 1_555 1_555
H9F C16F 1_555 1_555
C17F C16F 1_555 1_555
H10F C17F 1_555 1_555
C18F C17F 1_555 1_555
H11F C18F 1_555 1_555
C19F C18F 1_555 1_555
H12F C19F 1_555 1_555
C20F N2F 1_555 1_555
C5 C6 1_555 1_555
C9 C14 1_555 1_555
C13 C14 1_555 1_555
C15 C20 1_555 1_555
C19 C20 1_555 1_555
C2F C8F 1_555 1_555
C5F C6F 1_555 1_555
C9F C14F 1_555 1_555
C13F C14F 1_555 1_555
C15F C20F 1_555 1_555
C19F C20F 1_555 1_555

#END
