
#######################################################################
#
#                 Cambridge Crystallographic Data Centre
#                                CCDC 
#
#######################################################################
#
# If this CIF has been generated from an entry in the Cambridge 
# Structural Database, then it will include bibliographic, chemical, 
# crystal, experimental, refinement or atomic coordinate data resulting 
# from the CCDC's data processing and validation procedures.
#
#######################################################################

data_XOWLOL
_symmetry_cell_setting           monoclinic
_symmetry_space_group_name_H-M   'C 2/c'
_symmetry_Int_Tables_number      15
_space_group_name_Hall           '-C 2yn'
loop_
_symmetry_equiv_pos_site_id
_symmetry_equiv_pos_as_xyz
1 x,y,z
2 -x,y,1/2-z
3 1/2+x,1/2+y,z
4 1/2-x,1/2+y,1/2-z
5 -x,-y,-z
6 x,-y,1/2+z
7 1/2-x,1/2-y,-z
8 1/2+x,1/2-y,1/2+z
_cell_length_a                   25.767(3)
_cell_length_b                   11.9442(15)
_cell_length_c                   14.1265(17)
_cell_angle_alpha                90
_cell_angle_beta                 98.993(2)
_cell_angle_gamma                90
_cell_volume                     4294.22
loop_
_atom_site_label
_atom_site_type_symbol
_atom_site_fract_x
_atom_site_fract_y
_atom_site_fract_z
Cu1 Cu 0.0000 0.08706(4) 0.7500
Cu2 Cu 0.146708(12) 0.04903(3) 0.82220(3)
N1 N 0.03684(8) -0.02492(18) 0.83922(16)
N2 N 0.08965(8) -0.03082(19) 0.86008(17)
N3 N 0.10772(8) 0.1630(2) 0.74690(18)
O1 O 0.18836(8) -0.06233(19) 0.90213(17)
O2 O 0.18071(9) -0.2186(2) 0.9832(2)
O3 O 0.20708(8) 0.1293(2) 0.78889(19)
O4 O 0.22761(9) 0.2723(3) 0.7017(2)
O5 O 0.28257(18) -0.0651(5) 1.1142(3)
H1 H 0.2927 -0.1129 1.1657
O6 O 0.30128(12) 0.0421(3) 0.8852(3)
H2 H 0.2757 0.0740 0.8553
C1 C 0.10308(11) -0.1220(2) 0.9134(2)
C2 C 0.05792(11) -0.1781(2) 0.9286(2)
H3 H 0.0556 -0.2433 0.9636
C3 C 0.01692(10) -0.1151(2) 0.87982(19)
C4 C -0.04053(10) -0.1360(2) 0.86676(19)
C5 C -0.06065(12) -0.2333(3) 0.8214(2)
H4 H -0.0380 -0.2868 0.8029
C6 C -0.11472(14) -0.2508(3) 0.8035(3)
H5 H -0.1281 -0.3154 0.7718
C7 C -0.14832(13) -0.1737(4) 0.8322(3)
H6 H -0.1844 -0.1855 0.8200
C8 C -0.12823(13) -0.0783(3) 0.8793(3)
H7 H -0.1510 -0.0264 0.8999
C9 C -0.07474(12) -0.0589(3) 0.8964(2)
H8 H -0.0617 0.0060 0.9278
C10 C 0.16107(12) -0.1387(3) 0.9362(2)
C11 C 0.13778(11) 0.2403(3) 0.7144(2)
C12 C 0.10623(12) 0.3213(3) 0.6650(2)
H9 H 0.1169 0.3851 0.6355
C13 C 0.05492(11) 0.2866(2) 0.66912(19)
C14 C 0.00558(12) 0.3416(2) 0.6287(2)
C15 C -0.03797(12) 0.2806(3) 0.5865(2)
H10 H -0.0355 0.2034 0.5798
C16 C -0.08507(14) 0.3350(4) 0.5545(3)
H11 H -0.1140 0.2941 0.5256
C17 C -0.08926(19) 0.4478(4) 0.5649(3)
H12 H -0.1212 0.4834 0.5453
C18 C -0.0458(2) 0.5092(4) 0.6049(4)
H13 H -0.0485 0.5864 0.6111
C19 C 0.00110(17) 0.4570(3) 0.6353(3)
H14 H 0.0303 0.4993 0.6606
C20 C 0.19516(12) 0.2162(3) 0.7347(3)
Na1 Na 0.27457(5) -0.12887(12) 0.94681(11)
N4 N 0.05649(8) 0.18931(18) 0.71911(16)
C21 C 0.2711(17) 0.045(3) 1.126(3)
H15 H 0.2754 0.0623 1.1936
H16 H 0.2354 0.0600 1.0978
H17 H 0.2943 0.0914 1.0963
Cu2A Cu -0.146708(12) 0.04903(3) 0.67780(3)
N1A N -0.03684(8) -0.02492(18) 0.66078(16)
N2A N -0.08965(8) -0.03082(19) 0.63992(17)
N3A N -0.10772(8) 0.1630(2) 0.75310(18)
O1A O -0.18836(8) -0.06233(19) 0.59787(17)
O2A O -0.18071(9) -0.2186(2) 0.5168(2)
O2F O 0.31929(9) -0.2814(2) 1.0168(2)
O2G O -0.31929(9) -0.2814(2) 0.4832(2)
O3A O -0.20708(8) 0.1293(2) 0.71111(19)
O4A O -0.22761(9) 0.2723(3) 0.7983(2)
O4C O 0.27239(9) -0.2277(3) 0.7983(2)
O4B O -0.27239(9) -0.2277(3) 0.7017(2)
O5A O -0.28257(18) -0.0651(5) 0.3858(3)
H1A H -0.2927 -0.1129 0.3343
O6A O -0.30128(12) 0.0421(3) 0.6148(3)
H2A H -0.2757 0.0740 0.6447
C1A C -0.10308(11) -0.1220(2) 0.5866(2)
C2A C -0.05792(11) -0.1781(2) 0.5714(2)
H3A H -0.0556 -0.2433 0.5364
C3A C -0.01692(10) -0.1151(2) 0.62018(19)
C4A C 0.04053(10) -0.1360(2) 0.63324(19)
C5A C 0.06065(12) -0.2333(3) 0.6786(2)
H4A H 0.0380 -0.2868 0.6971
C6A C 0.11472(14) -0.2508(3) 0.6965(3)
H5A H 0.1281 -0.3154 0.7282
C7A C 0.14832(13) -0.1737(4) 0.6678(3)
H6A H 0.1844 -0.1855 0.6800
C8A C 0.12823(13) -0.0783(3) 0.6207(3)
H7A H 0.1510 -0.0264 0.6001
C9A C 0.07474(12) -0.0589(3) 0.6036(2)
H8A H 0.0617 0.0060 0.5722
C10A C -0.16107(12) -0.1387(3) 0.5638(2)
C11A C -0.13778(11) 0.2403(3) 0.7856(2)
C12A C -0.10623(12) 0.3213(3) 0.8350(2)
H9A H -0.1169 0.3851 0.8645
C13A C -0.05492(11) 0.2866(2) 0.83088(19)
C14A C -0.00558(12) 0.3416(2) 0.8713(2)
C15A C 0.03797(12) 0.2806(3) 0.9135(2)
H10A H 0.0355 0.2034 0.9202
C16A C 0.08507(14) 0.3350(4) 0.9455(3)
H11A H 0.1140 0.2941 0.9744
C17A C 0.08926(19) 0.4478(4) 0.9351(3)
H12A H 0.1212 0.4834 0.9547
C18A C 0.0458(2) 0.5092(4) 0.8951(4)
H13A H 0.0485 0.5864 0.8889
C19A C -0.00110(17) 0.4570(3) 0.8647(3)
H14A H -0.0303 0.4993 0.8394
C20A C -0.19516(12) 0.2162(3) 0.7653(3)
Na1A Na -0.27457(5) -0.12887(12) 0.55319(11)
Na1F Na 0.22543(5) -0.37113(12) 1.05319(11)
Na1C Na 0.22543(5) 0.37113(12) 0.55319(11)
Na1G Na -0.22543(5) -0.37113(12) 0.44681(11)
Na1B Na -0.22543(5) 0.37113(12) 0.94681(11)
N4A N -0.05649(8) 0.18931(18) 0.78089(16)
C21A C -0.2711(17) 0.045(3) 0.374(3)
H15A H -0.2754 0.0623 0.3064
H16A H -0.2354 0.0600 0.4022
H17A H -0.2943 0.0914 0.4037
loop_
_geom_bond_atom_site_label_1
_geom_bond_atom_site_label_2
_geom_bond_site_symmetry_1
_geom_bond_site_symmetry_2
Cu1 N1 1_555 1_555
Cu2 N2 1_555 1_555
N1 N2 1_555 1_555
N2 C1 1_555 1_555
N3 Cu2 1_555 1_555
O1 Cu2 1_555 1_555
O2 C10 1_555 1_555
O3 Cu2 1_555 1_555
O4 C20 1_555 1_555
O5 H1 1_555 1_555
O6 H2 1_555 1_555
C1 C2 1_555 1_555
C2 H3 1_555 1_555
C3 N1 1_555 1_555
C4 C3 1_555 1_555
C5 C4 1_555 1_555
H4 C5 1_555 1_555
C6 C5 1_555 1_555
H5 C6 1_555 1_555
C7 C6 1_555 1_555
H6 C7 1_555 1_555
C8 C7 1_555 1_555
H7 C8 1_555 1_555
C9 C4 1_555 1_555
H8 C9 1_555 1_555
C10 O1 1_555 1_555
C11 N3 1_555 1_555
C12 C11 1_555 1_555
H9 C12 1_555 1_555
C13 C12 1_555 1_555
C14 C13 1_555 1_555
C15 C14 1_555 1_555
H10 C15 1_555 1_555
C16 C15 1_555 1_555
H11 C16 1_555 1_555
C17 C16 1_555 1_555
H12 C17 1_555 1_555
C18 C17 1_555 1_555
H13 C18 1_555 1_555
C19 C14 1_555 1_555
H14 C19 1_555 1_555
C20 O3 1_555 1_555
Na1 O1 1_555 1_555
N4 Cu1 1_555 1_555
C21 O5 1_555 1_555
H15 C21 1_555 1_555
H16 C21 1_555 1_555
H17 C21 1_555 1_555
Cu2A N2A 1_555 1_555
N1A Cu1 1_555 1_555
N2A N1A 1_555 1_555
N3A Cu2A 1_555 1_555
O1A Cu2A 1_555 1_555
O2A C10A 1_555 1_555
O2F Na1 1_555 1_555
O2G Na1A 1_555 1_555
O3A Cu2A 1_555 1_555
O4A C20A 1_555 1_555
O4C Na1 1_555 1_555
O4B Na1A 1_555 1_555
O5A H1A 1_555 1_555
O6A H2A 1_555 1_555
C1A N2A 1_555 1_555
C2A C1A 1_555 1_555
H3A C2A 1_555 1_555
C3A N1A 1_555 1_555
C4A C3A 1_555 1_555
C5A C4A 1_555 1_555
H4A C5A 1_555 1_555
C6A C5A 1_555 1_555
H5A C6A 1_555 1_555
C7A C6A 1_555 1_555
H6A C7A 1_555 1_555
C8A C7A 1_555 1_555
H7A C8A 1_555 1_555
C9A C4A 1_555 1_555
H8A C9A 1_555 1_555
C10A O1A 1_555 1_555
C11A N3A 1_555 1_555
C12A C11A 1_555 1_555
H9A C12A 1_555 1_555
C13A C12A 1_555 1_555
C14A C13A 1_555 1_555
C15A C14A 1_555 1_555
H10A C15A 1_555 1_555
C16A C15A 1_555 1_555
H11A C16A 1_555 1_555
C17A C16A 1_555 1_555
H12A C17A 1_555 1_555
C18A C17A 1_555 1_555
H13A C18A 1_555 1_555
C19A C14A 1_555 1_555
H14A C19A 1_555 1_555
C20A O3A 1_555 1_555
Na1A O1A 1_555 1_555
Na1F O2 1_555 1_555
Na1C O4 1_555 1_555
Na1G O2A 1_555 1_555
Na1B O4A 1_555 1_555
N4A Cu1 1_555 1_555
C21A O5A 1_555 1_555
H15A C21A 1_555 1_555
H16A C21A 1_555 1_555
H17A C21A 1_555 1_555
N3 N4 1_555 1_555
O2 Na1 1_555 1_555
O5 Na1 1_555 1_555
O6 Na1 1_555 1_555
C1 C10 1_555 1_555
C2 C3 1_555 1_555
C8 C9 1_555 1_555
C11 C20 1_555 1_555
C13 N4 1_555 1_555
C18 C19 1_555 1_555
N3A N4A 1_555 1_555
O2A Na1A 1_555 1_555
O2F Na1F 1_555 1_555
O2G Na1G 1_555 1_555
O5A Na1A 1_555 1_555
O6A Na1A 1_555 1_555
C1A C10A 1_555 1_555
C2A C3A 1_555 1_555
C8A C9A 1_555 1_555
C11A C20A 1_555 1_555
C13A N4A 1_555 1_555
C18A C19A 1_555 1_555

#END
