
#######################################################################
#
#                 Cambridge Crystallographic Data Centre
#                                CCDC 
#
#######################################################################
#
# If this CIF has been generated from an entry in the Cambridge 
# Structural Database, then it will include bibliographic, chemical, 
# crystal, experimental, refinement or atomic coordinate data resulting 
# from the CCDC's data processing and validation procedures.
#
#######################################################################

data_XOWPOQ
_symmetry_cell_setting           triclinic
_symmetry_space_group_name_H-M   'P -1'
_symmetry_Int_Tables_number      2
_space_group_name_Hall           '-P 1'
loop_
_symmetry_equiv_pos_site_id
_symmetry_equiv_pos_as_xyz
1 x,y,z
2 -x,-y,-z
_cell_length_a                   7.9728(17)
_cell_length_b                   8.7556(19)
_cell_length_c                   9.748(2)
_cell_angle_alpha                66.953(2)
_cell_angle_beta                 88.290(2)
_cell_angle_gamma                73.131(2)
_cell_volume                     596.502
loop_
_atom_site_label
_atom_site_type_symbol
_atom_site_fract_x
_atom_site_fract_y
_atom_site_fract_z
Dy1 Dy -0.07833(8) -0.98091(7) 0.24364(6)
O1 O -0.1310(15) -0.7630(14) 0.3267(13)
N1 N -0.2831(16) -0.4196(15) 0.2194(14)
H1 H -0.3579 -0.3162 0.2103
H2 H -0.3477 -0.4856 0.2122
O2 O -0.1521(15) -0.1572(14) 0.1579(13)
O3 O 0.0060(16) -0.2169(16) -0.0432(14)
O4 O 0.2111(16) -1.1522(16) 0.1945(15)
O5 O 0.2240(16) -0.9881(17) 0.3098(15)
O6 O -0.3421(16) -0.7981(16) 0.0868(13)
H3 H -0.42(2) -0.72(2) 0.12(3)
H4 H -0.34(3) -0.74(3) -0.012(6)
O7 O -0.0188(17) -0.7825(16) 0.5407(14)
O8 O -0.3258(16) -1.0178(18) 0.3847(14)
H5 H -0.2953 -1.1322 0.4387
H6 H -0.4011 -1.0473 0.3401
C1 C -0.106(2) -0.7003(18) 0.4152(17)
C2 C -0.183(2) -0.506(2) 0.3693(17)
H7 H -0.2609 -0.4841 0.4425
H8 H -0.0890 -0.4559 0.3681
C3 C -0.167(2) -0.3906(19) 0.0929(16)
H9 H -0.0683 -0.4948 0.1154
H10 H -0.2338 -0.3696 0.0021
N2 N 0.3044(18) -1.0925(18) 0.2514(17)
O9 O 0.4639(17) -1.129(2) 0.248(2)
C4 C -0.1013(19) -0.2413(17) 0.0673(15)
Dy1_2 Dy -0.07833(8) 0.01909(7) 0.24364(6)
Dy1A Dy 0.07833(8) -1.01909(7) 0.75636(6)
Dy1A_2 Dy 0.07833(8) -0.01909(7) -0.24364(6)
O2_2 O -0.1521(15) -1.1572(14) 0.1579(13)
O3A O -0.0060(16) -0.7831(16) 0.0432(14)
O7A O 0.0188(17) -1.2175(16) 0.4593(14)
O10 O -0.5600(18) -0.5416(17) 0.1625(14)
N3 N -0.627(2) -0.590(2) 0.2869(18)
O11 O -0.545(2) -0.602(3) 0.3970(19)
O12 O -0.764(3) -0.623(3) 0.297(3)
loop_
_geom_bond_atom_site_label_1
_geom_bond_atom_site_label_2
_geom_bond_site_symmetry_1
_geom_bond_site_symmetry_2
Dy1 O1 1_555 1_555
O1 C1 1_555 1_555
N1 H1 1_555 1_555
H2 N1 1_555 1_555
O2 C4 1_555 1_555
O3 C4 1_555 1_555
O4 Dy1 1_555 1_555
O5 Dy1 1_555 1_555
O6 Dy1 1_555 1_555
H3 O6 1_555 1_555
H4 O6 1_555 1_555
O7 C1 1_555 1_555
O8 Dy1 1_555 1_555
H5 O8 1_555 1_555
H6 O8 1_555 1_555
C1 C2 1_555 1_555
C2 N1 1_555 1_555
H7 C2 1_555 1_555
H8 C2 1_555 1_555
C3 N1 1_555 1_555
H9 C3 1_555 1_555
H10 C3 1_555 1_555
N2 O4 1_555 1_555
O9 N2 1_555 1_555
C4 C3 1_555 1_555
O10 N3 1_555 1_555
N3 O11 1_555 1_555
O12 N3 1_555 1_555
Dy1_2 O2 1_555 1_555
Dy1A O7 1_555 1_555
Dy1A_2 O3 1_555 1_555
O2_2 Dy1 1_555 1_555
O3A Dy1 1_555 1_555
O7A Dy1 1_555 1_555
O5 N2 1_555 1_555

#END
