
#######################################################################
#
#                 Cambridge Crystallographic Data Centre
#                                CCDC 
#
#######################################################################
#
# If this CIF has been generated from an entry in the Cambridge 
# Structural Database, then it will include bibliographic, chemical, 
# crystal, experimental, refinement or atomic coordinate data resulting 
# from the CCDC's data processing and validation procedures.
#
#######################################################################

data_XOWPUW
_symmetry_cell_setting           orthorhombic
_symmetry_space_group_name_H-M   'C m c m'
_symmetry_Int_Tables_number      63
_space_group_name_Hall           '-C 2n 2'
loop_
_symmetry_equiv_pos_site_id
_symmetry_equiv_pos_as_xyz
1 x,y,z
2 -x,-y,1/2+z
3 -x,y,1/2-z
4 x,-y,-z
5 1/2+x,1/2+y,z
6 1/2-x,1/2-y,1/2+z
7 1/2-x,1/2+y,1/2-z
8 1/2+x,1/2-y,-z
9 -x,-y,-z
10 x,y,1/2-z
11 x,-y,1/2+z
12 -x,y,z
13 1/2-x,1/2-y,-z
14 1/2+x,1/2+y,1/2-z
15 1/2+x,1/2-y,1/2+z
16 1/2-x,1/2+y,z
_cell_length_a                   18.835(8)
_cell_length_b                   9.133(4)
_cell_length_c                   19.034(8)
_cell_angle_alpha                90
_cell_angle_beta                 90
_cell_angle_gamma                90
_cell_volume                     3274.23
loop_
_atom_site_label
_atom_site_type_symbol
_atom_site_fract_x
_atom_site_fract_y
_atom_site_fract_z
O5 O 0.0000 0.3177(12) 0.7500
O6 O 0.0559(4) 0.1198(9) 0.7500
N2 N 0.0000 0.1919(14) 0.7500
O6B O -0.0559(4) 0.1198(9) 0.7500
O7 O 0.5000 0.4870(9) 0.5970(5)
H9 H 0.517(5) 0.565(6) 0.575(4)
H9K H 0.483(5) 0.565(6) 0.575(4)
O8 O 0.0000 0.4911(9) 0.4165(6)
N3 N 0.0000 0.6252(10) 0.4213(4)
O9 O -0.0569(2) 0.6865(7) 0.4238(3)
O9K O 0.0569(2) 0.6865(7) 0.4238(3)
O10 O 0.3768(6) 0.2414(16) 0.6908(7)
O11 O 0.3337(4) 0.1391(8) 0.7850(4)
C3 C 0.4471(8) 0.2480(18) 0.7883(9)
H10 H 0.465(4) 0.144(4) 0.790(6)
H11 H 0.415(9) 0.308(16) 0.838(9)
C4 C 0.3805(4) 0.2077(9) 0.7500
N4 N 0.5000 0.3203(10) 0.7500
H12 H 0.5000 0.417(2) 0.7500
O10B O 0.6232(6) 0.2414(16) 0.8092(7)
O11B O 0.6663(4) 0.1391(8) 0.7150(4)
C3B C 0.5529(8) 0.2480(18) 0.7117(9)
H10B H 0.535(4) 0.144(4) 0.710(6)
H11B H 0.585(9) 0.308(16) 0.662(9)
C4B C 0.6195(4) 0.2077(9) 0.7500
O10I O 0.3768(6) 0.2414(16) 0.8092(7)
O11I O 0.3337(4) 0.1391(8) 0.7150(4)
C3I C 0.4471(8) 0.2480(18) 0.7117(9)
H10I H 0.465(4) 0.144(4) 0.710(6)
H11I H 0.415(9) 0.308(16) 0.662(9)
O10K O 0.6232(6) 0.2414(16) 0.6908(7)
O11K O 0.6663(4) 0.1391(8) 0.7850(4)
C3K C 0.5529(8) 0.2480(18) 0.7883(9)
H10K H 0.535(4) 0.144(4) 0.790(6)
H11K H 0.585(9) 0.308(16) 0.838(9)
La1 La 0.264693(18) 0.5000 0.5000
O1 O 0.15366(19) 0.4337(4) 0.42952(19)
H1 H 0.169(2) 0.387(5) 0.392(2)
H2 H 0.112(2) 0.479(5) 0.443(2)
O2 O 0.22363(17) 0.2702(3) 0.56499(17)
O3 O 0.1965(2) 0.0741(3) 0.62699(15)
O4 O 0.3784(2) 0.3628(4) 0.5347(2)
H3 H 0.375(2) 0.275(4) 0.523(3)
H4 H 0.414(2) 0.428(5) 0.550(3)
N1 N 0.1974(3) 0.2152(5) 0.7500
H5 H 0.1606 0.1523 0.7500
H6 H 0.2377 0.1623 0.7500
C1 C 0.2051(3) 0.2082(5) 0.6222(2)
C2 C 0.1946(3) 0.3047(5) 0.6856(2)
H7 H 0.2315 0.3788 0.6870
H8 H 0.1491 0.3538 0.6825
O2I O 0.22363(17) 0.2702(3) 0.93501(17)
O3I O 0.1965(2) 0.0741(3) 0.87301(15)
C1I C 0.2051(3) 0.2082(5) 0.8778(2)
C2I C 0.1946(3) 0.3047(5) 0.8144(2)
H7I H 0.2315 0.3788 0.8130
H8I H 0.1491 0.3538 0.8175
O1C O 0.15366(19) 0.5663(4) 0.57048(19)
H1C H 0.169(2) 0.613(5) 0.608(2)
H2C H 0.112(2) 0.521(5) 0.557(2)
O4C O 0.3784(2) 0.6372(4) 0.4653(2)
H3C H 0.375(2) 0.725(4) 0.477(3)
H4C H 0.414(2) 0.572(5) 0.450(3)
La1E La 0.235307(18) 0.0000 1.0000
La1I La 0.264693(18) 0.5000 1.0000
La1L La 0.235307(18) 0.0000 0.5000
O2C O 0.22363(17) 0.7298(3) 0.43501(17)
O2L O 0.27637(17) 0.2298(3) 0.43501(17)
O2O O 0.27637(17) 0.7702(3) 0.56499(17)
O3L O 0.3035(2) 0.4259(3) 0.37301(15)
O3O O 0.3035(2) 0.5741(3) 0.62699(15)
loop_
_geom_bond_atom_site_label_1
_geom_bond_atom_site_label_2
_geom_bond_site_symmetry_1
_geom_bond_site_symmetry_2
La1 O1 1_555 1_555
O1 H1 1_555 1_555
H2 O1 1_555 1_555
O2 La1 1_555 1_555
O3 C1 1_555 1_555
O4 La1 1_555 1_555
H3 O4 1_555 1_555
H4 O4 1_555 1_555
N1 H5 1_555 1_555
H6 N1 1_555 1_555
C1 O2 1_555 1_555
C2 N1 1_555 1_555
H7 C2 1_555 1_555
H8 C2 1_555 1_555
O5 N2 1_555 1_555
O6 N2 1_555 1_555
N2 O6B 1_555 1_555
O7 H9 1_555 1_555
O8 N3 1_555 1_555
N3 O9 1_555 1_555
O10 C4 1_555 1_555
O11 C4 1_555 1_555
C3 H10 1_555 1_555
H11 C3 1_555 1_555
C4 C3 1_555 1_555
N4 C3 1_555 1_555
H12 N4 1_555 1_555
O2I C1I 1_555 1_555
O3I C1I 1_555 1_555
C1I C2I 1_555 1_555
C2I N1 1_555 1_555
H7I C2I 1_555 1_555
H8I C2I 1_555 1_555
O1C La1 1_555 1_555
H1C O1C 1_555 1_555
H2C O1C 1_555 1_555
O4C La1 1_555 1_555
H3C O4C 1_555 1_555
H4C O4C 1_555 1_555
La1E O2I 1_555 1_555
La1I O2I 1_555 1_555
La1L O2 1_555 1_555
O2C La1 1_555 1_555
O2L La1 1_555 1_555
O2O La1 1_555 1_555
O3L La1 1_555 1_555
O3O La1 1_555 1_555
H9K O7 1_555 1_555
O9K N3 1_555 1_555
O10B C4B 1_555 1_555
O11B C4B 1_555 1_555
C3B N4 1_555 1_555
H10B C3B 1_555 1_555
H11B C3B 1_555 1_555
C4B C3B 1_555 1_555
O10I O11 1_555 1_555
O11I O10 1_555 1_555
C3I O10 1_555 1_555
H10I C3I 1_555 1_555
H11I O10 1_555 1_555
O10K O11B 1_555 1_555
O11K O10B 1_555 1_555
C3K N4 1_555 1_555
H10K C3K 1_555 1_555
H11K O10B 1_555 1_555
O3 La1L 1_555 1_555
C1 C2 1_555 1_555
O11 O11I 1_555 1_555
C3 O10I 1_555 1_555
C3 C3I 1_555 1_555
H11 O10I 1_555 1_555
C4 O10I 1_555 1_555
C4 O11I 1_555 1_555
C4 C3I 1_555 1_555
N4 C3I 1_555 1_555
O3I La1E 1_555 1_555
La1L O2L 1_555 1_555
O10B C3K 1_555 1_555
O11B O11K 1_555 1_555
C3B O10K 1_555 1_555
C3B C3K 1_555 1_555
H11B O10K 1_555 1_555
C4B O10K 1_555 1_555
C4B O11K 1_555 1_555
C4B C3K 1_555 1_555
C3I H11I 1_555 1_555
C3K H11K 1_555 1_555

#END
