
#######################################################################
#
#                 Cambridge Crystallographic Data Centre
#                                CCDC 
#
#######################################################################
#
# If this CIF has been generated from an entry in the Cambridge 
# Structural Database, then it will include bibliographic, chemical, 
# crystal, experimental, refinement or atomic coordinate data resulting 
# from the CCDC's data processing and validation procedures.
#
#######################################################################

data_XOWSUY
_symmetry_cell_setting           monoclinic
_symmetry_space_group_name_H-M   'P 21/n'
_symmetry_Int_Tables_number      14
_space_group_name_Hall           '-P 2yn'
loop_
_symmetry_equiv_pos_site_id
_symmetry_equiv_pos_as_xyz
1 x,y,z
2 1/2-x,1/2+y,1/2-z
3 -x,-y,-z
4 1/2+x,1/2-y,1/2+z
_cell_length_a                   7.0603(2)
_cell_length_b                   9.1849(2)
_cell_length_c                   22.4155(5)
_cell_angle_alpha                90
_cell_angle_beta                 93.6500(10)
_cell_angle_gamma                90
_cell_volume                     1450.66
loop_
_atom_site_label
_atom_site_type_symbol
_atom_site_fract_x
_atom_site_fract_y
_atom_site_fract_z
K1 K 0.39899(5) 0.16479(4) 0.167953(16)
O1 O 0.35977(16) 0.38407(11) 0.08496(5)
O2 O 0.23787(16) 0.60916(12) 0.08681(5)
O3 O 0.14295(16) 0.16866(12) 0.01653(5)
O4 O 0.42659(15) 0.15518(12) -0.02240(5)
O5 O 0.09180(15) 0.14314(11) -0.12740(5)
O6 O 0.32907(16) 0.22596(12) -0.17881(5)
O7 O 0.06028(16) 0.44510(12) -0.22872(5)
O8 O 0.27061(16) 0.62758(12) -0.21723(5)
O9 O -0.02023(15) 0.79441(12) -0.15648(5)
O10 O 0.23848(16) 0.88600(12) -0.10700(6)
O11 O 0.3218(2) 0.40583(16) 0.27369(7)
O12 O 0.26314(18) -0.05284(13) 0.08056(5)
C1 C 0.2437(2) 0.49445(15) -0.00654(7)
C2 C 0.2419(2) 0.36770(15) -0.04087(7)
C3 C 0.2136(2) 0.37634(15) -0.10312(7)
C4 C 0.1847(2) 0.51093(15) -0.13077(7)
C5 C 0.1779(2) 0.63652(15) -0.09572(7)
C6 C 0.2102(2) 0.62864(16) -0.03449(7)
H1 H 0.2097 0.7150 -0.0112
C7 C 0.2864(2) 0.48837(16) 0.05973(7)
C8 C 0.2818(2) 0.21978(16) -0.01398(7)
C9 C 0.2116(2) 0.23802(15) -0.13956(7)
C10 C 0.1625(2) 0.52290(15) -0.19755(7)
C11 C 0.1209(2) 0.77968(15) -0.12359(7)
H2 H 0.272(3) 0.606(3) 0.1262(12)
H3 H 0.178(3) 0.090(3) 0.0331(11)
H4 H 0.238(4) 0.649(3) -0.2568(14)
H5 H 0.188(3) 0.970(3) -0.1176(11)
H6 H 0.259(4) 0.327(3) 0.2788(12)
H7 H 0.413(4) 0.401(3) 0.2993(13)
H8 H 0.349(4) -0.099(3) 0.0647(11)
H9 H 0.185(3) -0.112(3) 0.0877(11)
K1C K -0.10101(5) 0.33521(4) -0.332047(16)
K1B K 0.60101(5) 0.83521(4) -0.167953(16)
K1B_2 K -0.39899(5) 0.83521(4) -0.167953(16)
K1A K 0.10101(5) 0.66479(4) 0.332047(16)
O7C O 0.56028(16) 0.05490(12) 0.27128(5)
O8B O 0.72939(16) 0.37242(12) 0.21723(5)
O9B O 0.02023(15) 0.20559(12) 0.15648(5)
O10B O 0.76152(16) 0.11400(12) 0.10700(6)
O11A O 0.1782(2) -0.09417(16) 0.22631(7)
H4B H 0.762(4) 0.351(3) 0.2568(14)
H5B H 0.812(3) 0.030(3) 0.1176(11)
H6A H 0.241(4) -0.173(3) 0.2212(12)
H7A H 0.087(4) -0.099(3) 0.2007(13)
O13 O 0.34556(17) 0.63474(13) 0.19800(5)
H10 H 0.461(4) 0.657(3) 0.1956(11)
H11 H 0.338(3) 0.560(3) 0.2206(11)
loop_
_geom_bond_atom_site_label_1
_geom_bond_atom_site_label_2
_geom_bond_site_symmetry_1
_geom_bond_site_symmetry_2
K1 O1 1_555 1_555
O1 C7 1_555 1_555
O2 C7 1_555 1_555
O3 C8 1_555 1_555
O4 C8 1_555 1_555
O5 C9 1_555 1_555
O6 C9 1_555 1_555
O7 C10 1_555 1_555
O8 C10 1_555 1_555
O9 C11 1_555 1_555
O10 C11 1_555 1_555
O11 K1 1_555 1_555
O12 K1 1_555 1_555
O13 H10 1_555 1_555
C1 C2 1_555 1_555
C2 C3 1_555 1_555
C3 C4 1_555 1_555
C4 C5 1_555 1_555
C5 C6 1_555 1_555
C6 C1 1_555 1_555
H1 C6 1_555 1_555
C7 C1 1_555 1_555
C8 C2 1_555 1_555
C9 C3 1_555 1_555
C10 C4 1_555 1_555
C11 C5 1_555 1_555
H2 O2 1_555 1_555
H3 O3 1_555 1_555
H4 O8 1_555 1_555
H5 O10 1_555 1_555
H6 O11 1_555 1_555
H7 O11 1_555 1_555
H8 O12 1_555 1_555
H9 O12 1_555 1_555
H11 O13 1_555 1_555
K1C O7 1_555 1_555
K1B O8 1_555 1_555
K1B_2 O9 1_555 1_555
K1A O11 1_555 1_555
O7C K1 1_555 1_555
O8B K1 1_555 1_555
O9B K1 1_555 1_555
O10B K1 1_555 1_555
O11A K1 1_555 1_555
H4B O8B 1_555 1_555
H5B O10B 1_555 1_555
H6A O11A 1_555 1_555
H7A O11A 1_555 1_555
O10 K1B 1_555 1_555

#END
