
#######################################################################
#
#                 Cambridge Crystallographic Data Centre
#                                CCDC 
#
#######################################################################
#
# If this CIF has been generated from an entry in the Cambridge 
# Structural Database, then it will include bibliographic, chemical, 
# crystal, experimental, refinement or atomic coordinate data resulting 
# from the CCDC's data processing and validation procedures.
#
#######################################################################

data_XOWTAF
_symmetry_cell_setting           orthorhombic
_symmetry_space_group_name_H-M   'P 21 21 21'
_symmetry_Int_Tables_number      19
_space_group_name_Hall           'P 2ac 2ab'
loop_
_symmetry_equiv_pos_site_id
_symmetry_equiv_pos_as_xyz
1 x,y,z
2 1/2-x,-y,1/2+z
3 1/2+x,1/2-y,-z
4 -x,1/2+y,1/2-z
_cell_length_a                   6.9092(2)
_cell_length_b                   9.5586(3)
_cell_length_c                   24.7338(7)
_cell_angle_alpha                90
_cell_angle_beta                 90
_cell_angle_gamma                90
_cell_volume                     1633.48
loop_
_atom_site_label
_atom_site_type_symbol
_atom_site_fract_x
_atom_site_fract_y
_atom_site_fract_z
K1 K -0.04659(6) 0.28913(4) 0.032493(15)
K2 K -0.04944(7) 0.42583(5) 0.188784(16)
O1 O 0.2359(2) 0.45667(12) -0.01660(5)
O2 O 0.3275(2) 0.65727(13) -0.05620(5)
O3 O 0.25106(19) 0.35320(12) 0.11293(5)
O4 O 0.53124(19) 0.37529(12) 0.06818(5)
O5 O 0.25098(19) 0.59042(14) 0.22349(5)
O6 O 0.53057(19) 0.50186(12) 0.19319(5)
O7 O 0.16526(18) 0.92303(13) 0.20643(5)
O8 O 0.48054(18) 0.87592(12) 0.21665(5)
O9 O 0.3392(2) 1.09905(13) 0.12561(5)
O10 O 0.21937(19) 1.07969(13) 0.04231(5)
O11 O -0.1388(2) 0.54036(15) 0.08809(6)
O12 O -0.2071(2) 0.22015(16) 0.13187(6)
O13 O 0.1757(3) 0.22099(18) 0.23795(7)
C1 C 0.3201(2) 0.65268(17) 0.03864(7)
C2 C 0.3505(2) 0.57985(18) 0.08714(7)
C3 C 0.3550(2) 0.65471(17) 0.13577(7)
C4 C 0.3290(2) 0.80044(18) 0.13657(7)
C5 C 0.3065(2) 0.87174(17) 0.08788(7)
C6 C 0.3011(2) 0.79752(18) 0.03956(7)
H1 H 0.2840 0.8467 0.0065
C7 C 0.2916(2) 0.57693(18) -0.01373(6)
C8 C 0.3811(2) 0.42234(18) 0.08876(6)
C9 C 0.3743(2) 0.57874(17) 0.18898(7)
C10 C 0.3216(3) 0.87329(16) 0.19077(7)
C11 C 0.2838(3) 1.02780(17) 0.08351(7)
H2 H 0.311(4) 0.620(3) -0.0850(10)
H3 H 0.538(5) 0.460(3) 0.2284(12)
H4 H 0.312(4) 1.192(3) 0.1181(11)
H5 H -0.144(5) 0.627(3) 0.0834(12)
H6 H -0.263(5) 0.506(3) 0.0819(11)
H7 H -0.320(4) 0.238(3) 0.1209(10)
H8 H -0.207(4) 0.139(3) 0.1434(10)
H9 H 0.177(4) 0.1399(14) 0.2265(11)
H12 H 0.263(8) 0.255(8) 0.257(2)
K1B K 0.45341(6) 0.21087(4) -0.032493(15)
K1B_2 K -0.54659(6) 0.21087(4) -0.032493(15)
K1_2 K 0.95341(6) 0.28913(4) 0.032493(15)
K1_3 K -0.04659(6) 1.28913(4) 0.032493(15)
K1B_3 K 0.45341(6) 1.21087(4) -0.032493(15)
K2_2 K 0.95056(7) 0.42583(5) 0.188784(16)
K2C K 0.04944(7) 0.92583(5) 0.311216(16)
O1B O -0.2641(2) 0.04333(12) 0.01660(5)
O4_2 O -0.46876(19) 0.37529(12) 0.06818(5)
O4B O 0.03124(19) 0.12471(12) -0.06818(5)
O6_2 O -0.46943(19) 0.50186(12) 0.19319(5)
O7C O -0.16526(18) 0.42303(13) 0.29357(5)
O10_2 O 0.21937(19) 0.07969(13) 0.04231(5)
O10B O -0.28063(19) 0.42031(13) -0.04231(5)
H3_2 H -0.462(5) 0.460(3) 0.2284(12)
O14 O 0.8138(2) 0.93162(15) 0.15422(5)
H10 H 0.728(4) 0.916(3) 0.1745(10)
H11 H 0.913(4) 0.917(2) 0.1719(9)
loop_
_geom_bond_atom_site_label_1
_geom_bond_atom_site_label_2
_geom_bond_site_symmetry_1
_geom_bond_site_symmetry_2
K1 O1 1_555 1_555
K2 O3 1_555 1_555
O1 C7 1_555 1_555
O2 C7 1_555 1_555
O3 K1 1_555 1_555
O4 C8 1_555 1_555
O5 K2 1_555 1_555
O6 C9 1_555 1_555
O7 C10 1_555 1_555
O8 C10 1_555 1_555
O9 C11 1_555 1_555
O10 C11 1_555 1_555
O11 K1 1_555 1_555
O12 K1 1_555 1_555
O13 K2 1_555 1_555
O14 H10 1_555 1_555
C1 C2 1_555 1_555
C2 C3 1_555 1_555
C3 C4 1_555 1_555
C4 C5 1_555 1_555
C5 C6 1_555 1_555
C6 C1 1_555 1_555
H1 C6 1_555 1_555
C7 C1 1_555 1_555
C8 O3 1_555 1_555
C9 O5 1_555 1_555
C10 C4 1_555 1_555
C11 C5 1_555 1_555
H2 O2 1_555 1_555
H3 O6 1_555 1_555
H4 O9 1_555 1_555
H5 O11 1_555 1_555
H6 O11 1_555 1_555
H7 O12 1_555 1_555
H8 O12 1_555 1_555
H9 O13 1_555 1_555
H11 O14 1_555 1_555
H12 O13 1_555 1_555
K1B O1 1_555 1_555
K1B_2 O1B 1_555 1_555
K1_2 O4 1_555 1_555
K1_3 O10 1_555 1_555
K1B_3 O10 1_555 1_555
K2_2 O6 1_555 1_555
K2C O7 1_555 1_555
O1B K1 1_555 1_555
O4_2 K1 1_555 1_555
O4B K1 1_555 1_555
O6_2 K2 1_555 1_555
O7C K2 1_555 1_555
O10_2 K1 1_555 1_555
O10B K1 1_555 1_555
H3_2 O6_2 1_555 1_555
K2 O11 1_555 1_555
K2 O12 1_555 1_555
O4 K1B 1_555 1_555
C2 C8 1_555 1_555
C3 C9 1_555 1_555
K1B O4B 1_555 1_555
K1B O10_2 1_555 1_555
K1B_2 O4_2 1_555 1_555
K1B_2 O10B 1_555 1_555

#END
