
#######################################################################
#
#                 Cambridge Crystallographic Data Centre
#                                CCDC 
#
#######################################################################
#
# If this CIF has been generated from an entry in the Cambridge 
# Structural Database, then it will include bibliographic, chemical, 
# crystal, experimental, refinement or atomic coordinate data resulting 
# from the CCDC's data processing and validation procedures.
#
#######################################################################

data_XOXBAO
_symmetry_cell_setting           orthorhombic
_symmetry_space_group_name_H-M   'C c c a'
_symmetry_Int_Tables_number      68
_space_group_name_Hall           '-C 2a 2ac'
loop_
_symmetry_equiv_pos_site_id
_symmetry_equiv_pos_as_xyz
1 x,y,z
2 -x,1/2-y,z
3 x,1/2-y,1/2-z
4 -x,y,1/2-z
5 1/2+x,1/2+y,z
6 1/2-x,-y,z
7 1/2+x,-y,1/2-z
8 1/2-x,1/2+y,1/2-z
9 -x,-y,-z
10 x,1/2+y,-z
11 -x,1/2+y,1/2+z
12 x,-y,1/2+z
13 1/2-x,1/2-y,-z
14 1/2+x,y,-z
15 1/2-x,y,1/2+z
16 1/2+x,1/2-y,1/2+z
_cell_length_a                   10.359(4)
_cell_length_b                   11.128(4)
_cell_length_c                   10.303(4)
_cell_angle_alpha                90
_cell_angle_beta                 90
_cell_angle_gamma                90
_cell_volume                     1187.68
loop_
_atom_site_label
_atom_site_type_symbol
_atom_site_fract_x
_atom_site_fract_y
_atom_site_fract_z
Mg1 Mg 0.50000 0.25000 0.25000
N1 N 0.65709(19) 0.24312(13) 0.0986(2)
C1 C 0.75764(18) 0.31843(17) 0.10497(18)
C2 C 0.65055(18) 0.17416(16) -0.00842(17)
B1 B 0.50000 0.0096(2) 0.25000
H1 H 0.7651(19) 0.3675(16) 0.1798(17)
H2 H 0.5819(17) 0.1175(17) -0.0151(19)
H3 H 0.458(2) 0.064(2) 0.175(2)
H4 H 0.579(2) -0.048(2) 0.200(3)
Mg1L Mg 1.00000 0.25000 -0.25000
Mg1L_2 Mg 0.00000 0.25000 -0.25000
N1L N 0.84291(19) 0.25688(13) -0.0986(2)
N1A N 0.34291(19) 0.25688(13) 0.0986(2)
N1M N 0.15709(19) 0.24312(13) -0.0986(2)
N1B N 0.65709(19) 0.25688(13) 0.4014(2)
N1C N 0.34291(19) 0.24312(13) 0.4014(2)
C1L C 0.74236(18) 0.18157(17) -0.10497(18)
C1A C 0.24236(18) 0.18157(17) 0.10497(18)
C1M C 0.25764(18) 0.31843(17) -0.10497(18)
C2L C 0.84945(18) 0.32584(16) 0.00842(17)
C2A C 0.34945(18) 0.32584(16) -0.00842(17)
C2M C 0.15055(18) 0.17416(16) 0.00842(17)
B1A B 0.50000 0.4904(2) 0.25000
H1L H 0.7349(19) 0.1325(16) -0.1798(17)
H1A H 0.2349(19) 0.1325(16) 0.1798(17)
H1M H 0.2651(19) 0.3675(16) -0.1798(17)
H2L H 0.9181(17) 0.3825(17) 0.0151(19)
H2A H 0.4181(17) 0.3825(17) -0.0151(19)
H2M H 0.0819(17) 0.1175(17) 0.0151(19)
H3C H 0.542(2) 0.064(2) 0.325(2)
H3A H 0.542(2) 0.436(2) 0.175(2)
H3B H 0.458(2) 0.436(2) 0.325(2)
H4C H 0.421(2) -0.048(2) 0.300(3)
H4A H 0.421(2) 0.548(2) 0.200(3)
H4B H 0.579(2) 0.548(2) 0.300(3)
loop_
_geom_bond_atom_site_label_1
_geom_bond_atom_site_label_2
_geom_bond_site_symmetry_1
_geom_bond_site_symmetry_2
Mg1 N1 1_555 1_555
N1 C1 1_555 1_555
C1 H1 1_555 1_555
C2 N1 1_555 1_555
B1 H3 1_555 1_555
H2 C2 1_555 1_555
H3 Mg1 1_555 1_555
H4 B1 1_555 1_555
Mg1L N1L 1_555 1_555
Mg1L_2 N1M 1_555 1_555
N1L C1L 1_555 1_555
N1A Mg1 1_555 1_555
N1M C1M 1_555 1_555
N1B Mg1 1_555 1_555
N1C Mg1 1_555 1_555
C1L C2 1_555 1_555
C1A N1A 1_555 1_555
C1M C2A 1_555 1_555
C2L C1 1_555 1_555
C2A N1A 1_555 1_555
C2M N1M 1_555 1_555
B1A H3A 1_555 1_555
H1L C1L 1_555 1_555
H1A C1A 1_555 1_555
H1M C1M 1_555 1_555
H2L C2L 1_555 1_555
H2A C2A 1_555 1_555
H2M C2M 1_555 1_555
H3C Mg1 1_555 1_555
H3A Mg1 1_555 1_555
H3B Mg1 1_555 1_555
H4C B1 1_555 1_555
H4A B1A 1_555 1_555
H4B B1A 1_555 1_555
B1 H3C 1_555 1_555
N1L C2L 1_555 1_555
C1A C2M 1_555 1_555
B1A H3B 1_555 1_555

#END
