
#######################################################################
#
#                 Cambridge Crystallographic Data Centre
#                                CCDC 
#
#######################################################################
#
# If this CIF has been generated from an entry in the Cambridge 
# Structural Database, then it will include bibliographic, chemical, 
# crystal, experimental, refinement or atomic coordinate data resulting 
# from the CCDC's data processing and validation procedures.
#
#######################################################################

data_XOXGOH
_symmetry_cell_setting           monoclinic
_symmetry_space_group_name_H-M   'C 2/c'
_symmetry_Int_Tables_number      15
_space_group_name_Hall           '-C 2yn'
loop_
_symmetry_equiv_pos_site_id
_symmetry_equiv_pos_as_xyz
1 x,y,z
2 -x,y,1/2-z
3 1/2+x,1/2+y,z
4 1/2-x,1/2+y,1/2-z
5 -x,-y,-z
6 x,-y,1/2+z
7 1/2-x,1/2-y,-z
8 1/2+x,1/2-y,1/2+z
_cell_length_a                   31.384(6)
_cell_length_b                   8.2869(17)
_cell_length_c                   21.465(4)
_cell_angle_alpha                90
_cell_angle_beta                 111.61(3)
_cell_angle_gamma                90
_cell_volume                     5190.15
loop_
_atom_site_label
_atom_site_type_symbol
_atom_site_fract_x
_atom_site_fract_y
_atom_site_fract_z
Co1 Co 0.298761(15) 0.27535(6) 0.10620(2)
N1 N 0.32442(11) 0.4763(4) 0.06369(14)
N2 N 0.28593(10) 0.0484(4) 0.14624(13)
O1 O 0.37033(8) 0.2369(3) 0.17700(12)
O2 O 0.32099(9) 0.3825(3) 0.20369(11)
O3 O 0.29480(7) 0.1469(3) 0.02506(11)
O4 O 0.26707(8) 0.1526(3) -0.08635(11)
C1 C 0.36066(13) 0.3228(5) 0.21859(18)
C2 C 0.39672(13) 0.3601(5) 0.28533(17)
C3 C 0.44098(15) 0.3040(5) 0.3015(2)
H1 H 0.4483 0.2422 0.2708
C4 C 0.38649(15) 0.4544(5) 0.33075(19)
H2 H 0.3571 0.4953 0.3200
C5 C 0.47418(16) 0.3388(6) 0.3628(2)
H3 H 0.5038 0.3002 0.3727
C6 C 0.42070(16) 0.4886(6) 0.3934(2)
H4 H 0.4137 0.5519 0.4242
C7 C 0.46468(15) 0.4290(6) 0.4097(2)
C8 C 0.50122(17) 0.4574(6) 0.4757(2)
H5 H 0.5292 0.4079 0.4829
C9 C 0.29975(11) 0.1426(4) -0.03084(17)
C10 C 0.34689(11) 0.1151(4) -0.03011(17)
C11 C 0.35453(12) 0.0938(5) -0.08905(19)
H6 H 0.3302 0.1015 -0.1300
C12 C 0.38346(12) 0.1029(4) 0.02985(18)
H7 H 0.3787 0.1185 0.0697
C13 C 0.39833(14) 0.0609(5) -0.0872(2)
H8 H 0.4030 0.0480 -0.1272
C14 C 0.42683(12) 0.0682(5) 0.03205(19)
H9 H 0.4508 0.0589 0.0733
C15 C 0.43548(13) 0.0466(5) -0.0268(2)
C16 C 0.48133(12) 0.0110(5) -0.0266(2)
H10 H 0.4842 0.0031 -0.0681
C17 C 0.29754(16) 0.5646(6) 0.0144(2)
H11 H 0.2661 0.5516 0.0020
C18 C 0.3129(2) 0.6764(6) -0.0206(2)
H12 H 0.2920 0.7352 -0.0553
C19 C 0.3574(2) 0.6990(6) -0.0042(3)
H13 H 0.3685 0.7715 -0.0277
C20 C 0.38681(19) 0.6123(7) 0.0485(3)
H14 H 0.4183 0.6274 0.0624
C21 C 0.36915(16) 0.5028(6) 0.0807(3)
H15 H 0.3895 0.4443 0.1162
C22 C 0.25531(14) 0.0284(5) 0.1753(2)
H16 H 0.2371 0.1158 0.1768
C23 C 0.24944(17) -0.1143(6) 0.2029(2)
H17 H 0.2277 -0.1234 0.2226
C24 C 0.27599(19) -0.2436(5) 0.2012(2)
H18 H 0.2727 -0.3420 0.2197
C25 C 0.30725(18) -0.2250(5) 0.1718(2)
H19 H 0.3256 -0.3112 0.1696
C26 C 0.31146(14) -0.0797(5) 0.1457(2)
H20 H 0.3334 -0.0687 0.1263
Co1D Co 0.701239(15) 0.72465(6) 0.89380(2)
Co1F Co 0.201239(15) 0.22465(6) -0.10620(2)
Co1D_2 Co 0.701239(15) -0.27535(6) -0.10620(2)
Co1B Co 0.798761(15) -0.22465(6) 0.10620(2)
N1D N 0.67558(11) 0.5237(4) 0.93631(14)
N2D N 0.71407(10) 0.9516(4) 0.85376(13)
O1D O 0.62967(8) 0.7631(3) 0.82300(12)
O2D O 0.67901(9) 0.6175(3) 0.79631(11)
O3D O 0.70520(7) -0.1469(3) -0.02506(11)
O3D_2 O 0.70520(7) 0.8531(3) 0.97494(11)
O4D O 0.73293(8) -0.1526(3) 0.08635(11)
O4F O 0.23293(8) 0.3474(3) 0.08635(11)
O4B O 0.76707(8) 0.6526(3) 0.91365(11)
C1D C 0.63934(13) 0.6772(5) 0.78141(18)
C2D C 0.60328(13) 0.6399(5) 0.71467(17)
C3D C 0.55902(15) 0.6960(5) 0.6985(2)
H1D H 0.5517 0.7578 0.7292
C4D C 0.61351(15) 0.5456(5) 0.66925(19)
H2D H 0.6429 0.5047 0.6800
C5D C 0.52582(16) 0.6612(6) 0.6372(2)
H3D H 0.4962 0.6998 0.6273
C6D C 0.57930(16) 0.5114(6) 0.6066(2)
H4D H 0.5863 0.4481 0.5758
C7D C 0.53532(15) 0.5710(6) 0.5903(2)
C8D C 0.49878(17) 0.5426(6) 0.5243(2)
H5D H 0.4708 0.5921 0.5171
C9D C 0.70025(11) -0.1426(4) 0.03084(17)
C10D C 0.65311(11) -0.1151(4) 0.03011(17)
C11D C 0.64547(12) -0.0938(5) 0.08905(19)
H6D H 0.6698 -0.1015 0.1300
C12D C 0.61654(12) -0.1029(4) -0.02985(18)
H7D H 0.6213 -0.1185 -0.0697
C13D C 0.60167(14) -0.0609(5) 0.0872(2)
H8D H 0.5970 -0.0480 0.1272
C14D C 0.57317(12) -0.0682(5) -0.03205(19)
H9D H 0.5492 -0.0589 -0.0733
C15D C 0.56452(13) -0.0466(5) 0.0268(2)
C16D C 0.51867(12) -0.0110(5) 0.0266(2)
H10D H 0.5158 -0.0031 0.0681
C17D C 0.70246(16) 0.4354(6) 0.9856(2)
H11D H 0.7339 0.4484 0.9980
C18D C 0.6871(2) 0.3236(6) 1.0206(2)
H12D H 0.7080 0.2648 1.0553
C19D C 0.6426(2) 0.3010(6) 1.0042(3)
H13D H 0.6315 0.2285 1.0277
C20D C 0.61319(19) 0.3877(7) 0.9515(3)
H14D H 0.5817 0.3726 0.9376
C21D C 0.63085(16) 0.4972(6) 0.9193(3)
H15D H 0.6105 0.5557 0.8838
C22D C 0.74469(14) 0.9716(5) 0.8247(2)
H16D H 0.7629 0.8842 0.8232
C23D C 0.75056(17) 1.1143(6) 0.7971(2)
H17D H 0.7723 1.1234 0.7774
C24D C 0.72401(19) 1.2436(5) 0.7988(2)
H18D H 0.7273 1.3420 0.7803
C25D C 0.69275(18) 1.2250(5) 0.8282(2)
H19D H 0.6744 1.3112 0.8304
C26D C 0.68854(14) 1.0797(5) 0.8543(2)
H20D H 0.6666 1.0687 0.8737
C27 C 0.5000 0.985(2) 0.2500
H21 H 0.5000 1.0977 0.2500
N3 N 0.5000 0.6621(17) 0.2500
C28 C 0.4825(5) 0.7432(18) 0.2908(6)
H22 H 0.4685 0.6876 0.3158
C29 C 0.4859(5) 0.9013(18) 0.2940(6)
H23 H 0.4786 0.9568 0.3265
C28A C 0.5175(5) 0.7432(18) 0.2092(6)
H22A H 0.5315 0.6876 0.1842
C29A C 0.5141(5) 0.9013(18) 0.2060(6)
H23A H 0.5214 0.9568 0.1735
C30? C 0.4587(3) 0.7496(17) 0.2343(8)
C31? C 0.4582(3) 0.9025(15) 0.2308(7)
H24? H 0.4314 0.6942 0.2264
H25? H 0.4306 0.9585 0.2158
loop_
_geom_bond_atom_site_label_1
_geom_bond_atom_site_label_2
_geom_bond_site_symmetry_1
_geom_bond_site_symmetry_2
Co1 N1 1_555 1_555
N1 C17 1_555 1_555
N2 Co1 1_555 1_555
O1 Co1 1_555 1_555
O2 Co1 1_555 1_555
O3 Co1 1_555 1_555
O4 C9 1_555 1_555
C1 O1 1_555 1_555
C2 C1 1_555 1_555
C3 C2 1_555 1_555
H1 C3 1_555 1_555
C4 C2 1_555 1_555
H2 C4 1_555 1_555
C5 C3 1_555 1_555
H3 C5 1_555 1_555
C6 C4 1_555 1_555
H4 C6 1_555 1_555
C7 C5 1_555 1_555
C8 C7 1_555 1_555
H5 C8 1_555 1_555
C9 O3 1_555 1_555
C10 C9 1_555 1_555
C11 C10 1_555 1_555
H6 C11 1_555 1_555
C12 C10 1_555 1_555
H7 C12 1_555 1_555
C13 C11 1_555 1_555
H8 C13 1_555 1_555
C14 C12 1_555 1_555
H9 C14 1_555 1_555
C15 C13 1_555 1_555
C16 C15 1_555 1_555
H10 C16 1_555 1_555
C17 H11 1_555 1_555
C18 C17 1_555 1_555
H12 C18 1_555 1_555
C19 C18 1_555 1_555
H13 C19 1_555 1_555
C20 C19 1_555 1_555
H14 C20 1_555 1_555
C21 N1 1_555 1_555
H15 C21 1_555 1_555
C22 N2 1_555 1_555
H16 C22 1_555 1_555
C23 C22 1_555 1_555
H17 C23 1_555 1_555
C24 C23 1_555 1_555
H18 C24 1_555 1_555
C25 C24 1_555 1_555
H19 C25 1_555 1_555
C26 N2 1_555 1_555
H20 C26 1_555 1_555
C27 H21 1_555 1_555
N3 C28 1_555 1_555
C28 H22 1_555 1_555
C29 C27 1_555 1_555
H23 C29 1_555 1_555
Co1D N1D 1_555 1_555
Co1F O4 1_555 1_555
Co1D_2 O3D 1_555 1_555
Co1B O4D 1_555 1_555
N1D C17D 1_555 1_555
N2D Co1D 1_555 1_555
O1D Co1D 1_555 1_555
O2D Co1D 1_555 1_555
O3D C9D 1_555 1_555
O3D_2 Co1D 1_555 1_555
O4D C9D 1_555 1_555
O4F Co1 1_555 1_555
O4B Co1D 1_555 1_555
C1D O1D 1_555 1_555
C2D C1D 1_555 1_555
C3D C2D 1_555 1_555
H1D C3D 1_555 1_555
C4D C2D 1_555 1_555
H2D C4D 1_555 1_555
C5D C3D 1_555 1_555
H3D C5D 1_555 1_555
C6D C4D 1_555 1_555
H4D C6D 1_555 1_555
C7D C5D 1_555 1_555
C8D C8 1_555 1_555
H5D C8D 1_555 1_555
C9D C10D 1_555 1_555
C10D C11D 1_555 1_555
C11D H6D 1_555 1_555
C12D C10D 1_555 1_555
H7D C12D 1_555 1_555
C13D C11D 1_555 1_555
H8D C13D 1_555 1_555
C14D C12D 1_555 1_555
H9D C14D 1_555 1_555
C15D C13D 1_555 1_555
C16D C16 1_555 1_555
H10D C16D 1_555 1_555
C17D H11D 1_555 1_555
C18D C17D 1_555 1_555
H12D C18D 1_555 1_555
C19D C18D 1_555 1_555
H13D C19D 1_555 1_555
C20D C19D 1_555 1_555
H14D C20D 1_555 1_555
C21D N1D 1_555 1_555
H15D C21D 1_555 1_555
C22D N2D 1_555 1_555
H16D C22D 1_555 1_555
C23D C22D 1_555 1_555
H17D C23D 1_555 1_555
C24D C23D 1_555 1_555
H18D C24D 1_555 1_555
C25D C24D 1_555 1_555
H19D C25D 1_555 1_555
C26D N2D 1_555 1_555
H20D C26D 1_555 1_555
C28A N3 1_555 1_555
H22A C28A 1_555 1_555
C29A C27 1_555 1_555
H23A C29A 1_555 1_555
O2 C1 1_555 1_555
C6 C7 1_555 1_555
C14 C15 1_555 1_555
C20 C21 1_555 1_555
C25 C26 1_555 1_555
C28 C29 1_555 1_555
O2D C1D 1_555 1_555
C6D C7D 1_555 1_555
C7D C8D 1_555 1_555
C14D C15D 1_555 1_555
C15D C16D 1_555 1_555
C20D C21D 1_555 1_555
C25D C26D 1_555 1_555
C28A C29A 1_555 1_555

#END
