
#######################################################################
#
#                 Cambridge Crystallographic Data Centre
#                                CCDC 
#
#######################################################################
#
# If this CIF has been generated from an entry in the Cambridge 
# Structural Database, then it will include bibliographic, chemical, 
# crystal, experimental, refinement or atomic coordinate data resulting 
# from the CCDC's data processing and validation procedures.
#
#######################################################################

data_XOXGUN
_symmetry_cell_setting           tetragonal
_symmetry_space_group_name_H-M   'P 43'
_symmetry_Int_Tables_number      78
_space_group_name_Hall           'P 4cw'
loop_
_symmetry_equiv_pos_site_id
_symmetry_equiv_pos_as_xyz
1 x,y,z
2 -x,-y,1/2+z
3 -y,x,3/4+z
4 y,-x,1/4+z
_cell_length_a                   15.8465(14)
_cell_length_b                   15.8465(14)
_cell_length_c                   21.775(3)
_cell_angle_alpha                90
_cell_angle_beta                 90
_cell_angle_gamma                90
_cell_volume                     5467.95
loop_
_atom_site_label
_atom_site_type_symbol
_atom_site_fract_x
_atom_site_fract_y
_atom_site_fract_z
Ni1 Ni 0.79330(6) 0.72577(6) 0.83021(5)
Ni2 Ni 0.69523(6) 0.74807(6) 0.97567(5)
C1 C 0.8731(5) 0.8088(5) 0.9433(4)
C2 C 0.9505(5) 0.8488(5) 0.9691(5)
C3 C 1.0225(5) 0.8651(6) 0.9315(5)
H1 H 1.0212 0.8505 0.8901
C4 C 0.9554(6) 0.8755(7) 1.0304(5)
H2 H 0.9090 0.8693 1.0561
C5 C 1.0294(6) 0.9112(8) 1.0529(6)
H3 H 1.0316 0.9271 1.0940
C6 C 1.0948(5) 0.9026(6) 0.9558(5)
H4 H 1.1407 0.9132 0.9303
C7 C 1.0993(6) 0.9239(6) 1.0166(5)
C8 C 1.1764(6) 0.9601(7) 1.0451(5)
H5 H 1.1736 0.9735 1.0866
C9 C 1.2484(6) 0.9751(7) 1.0166(5)
H6 H 1.2504 0.9610 0.9752
C10 C 1.3260(6) 1.0115(7) 1.0428(5)
C11 C 1.3979(7) 1.0196(9) 1.0071(7)
H7 H 1.3965 0.9994 0.9670
C12 C 1.3312(6) 1.0398(7) 1.1029(5)
H8 H 1.2849 1.0341 1.1288
C13 C 1.4702(6) 1.0553(8) 1.0276(6)
H9 H 1.5167 1.0591 1.0016
C14 C 1.4060(6) 1.0774(7) 1.1250(6)
H10 H 1.4088 1.0964 1.1654
C15 C 1.4754(5) 1.0859(5) 1.0866(5)
C16 C 1.5557(5) 1.1308(6) 1.1075(5)
C17 C 0.3732(5) 1.5521(6) 0.6949(5)
C18 C 0.4125(5) 1.4706(6) 0.7128(5)
C19 C 0.4668(6) 1.4285(7) 0.6729(7)
H11 H 0.4778 1.4500 0.6339
C20 C 0.4007(8) 1.4374(9) 0.7692(7)
H12 H 0.3660 1.4658 0.7968
C21 C 0.4393(8) 1.3609(10) 0.7880(7)
H13 H 0.4293 1.3397 0.8271
C22 C 0.5040(8) 1.3542(8) 0.6921(9)
H14 H 0.5401 1.3272 0.6648
C23 C 0.4922(7) 1.3176(9) 0.7477(8)
C24 C 0.5356(9) 1.2392(11) 0.7602(8)
H15 H 0.5799 1.2280 0.7334
C25 C 0.5257(8) 1.1881(11) 0.7972(8)
H16 H 0.4839 1.2036 0.8250
C26 C 0.5623(7) 1.1028(8) 0.8124(7)
C27 C 0.6167(7) 1.0598(8) 0.7734(6)
H17 H 0.6305 1.0838 0.7357
C28 C 0.5425(7) 1.0650(8) 0.8657(7)
H18 H 0.5053 1.0924 0.8920
C29 C 0.5739(6) 0.9882(6) 0.8834(5)
H19 H 0.5578 0.9638 0.9204
C30 C 0.6515(6) 0.9814(7) 0.7889(5)
H20 H 0.6876 0.9531 0.7622
C31 C 0.6305(5) 0.9478(6) 0.8448(4)
C32 C 0.6708(5) 0.8652(5) 0.8660(4)
C33 C 0.8850(7) 0.7451(6) 0.7085(5)
H21 H 0.8719 0.6881 0.7052
C34 C 0.9248(9) 0.7832(8) 0.6607(6)
H22 H 0.9377 0.7524 0.6255
C35 C 0.9465(8) 0.8701(9) 0.6643(6)
H23 H 0.9748 0.8979 0.6328
C36 C 0.9235(8) 0.9086(8) 0.7159(6)
H24 H 0.9354 0.9656 0.7208
C37 C 0.8813(7) 0.8644(6) 0.7637(5)
H25 H 0.8656 0.8936 0.7990
C38 C 0.6688(7) 0.7243(7) 0.7248(6)
H26 H 0.6770 0.7823 0.7281
C39 C 0.6159(7) 0.6952(9) 0.6807(6)
H27 H 0.5888 0.7332 0.6548
C40 C 0.6019(7) 0.6094(9) 0.6738(7)
H28 H 0.5673 0.5878 0.6431
C41 C 0.6417(9) 0.5597(8) 0.7145(8)
H29 H 0.6330 0.5017 0.7130
C42 C 0.6953(8) 0.5927(7) 0.7585(6)
H30 H 0.7221 0.5558 0.7854
C43 C 0.7275(6) 0.5799(6) 1.0412(5)
H31 H 0.6943 0.5593 1.0093
C44 C 0.7541(7) 0.5229(6) 1.0838(6)
H32 H 0.7442 0.4653 1.0793
C45 C 0.7956(8) 0.5544(8) 1.1327(6)
H33 H 0.8113 0.5185 1.1645
C46 C 0.8144(7) 0.6362(7) 1.1364(6)
H34 H 0.8450 0.6573 1.1694
C47 C 0.7875(7) 0.6883(7) 1.0901(6)
H35 H 0.7998 0.7455 1.0929
C48 C 0.5979(10) 0.7996(8) 1.0858(8)
H36 H 0.5681 0.7499 1.0791
C49 C 0.5837(10) 0.8500(8) 1.1396(7)
H37 H 0.5490 0.8300 1.1708
C50 C 0.6203(10) 0.9252(8) 1.1449(8)
H38 H 0.6078 0.9597 1.1782
C51 C 0.6701(10) 0.9488(9) 1.1060(7)
H39 H 0.6960 1.0012 1.1102
C52 C 0.6884(11) 0.9007(8) 1.0571(7)
H40 H 0.7274 0.9213 1.0290
O1 O 0.8788(4) 0.7784(4) 0.8906(3)
O2 O 0.8103(3) 0.8078(4) 0.9785(3)
O3 O 1.6148(3) 1.1369(3) 1.0703(3)
O4 O 1.5538(4) 1.1592(4) 1.1618(3)
O5 O 0.3142(3) 1.5805(4) 0.7290(3)
O6 O 0.3989(4) 1.5867(4) 0.6479(3)
O7 O 0.6455(3) 0.8355(4) 0.9168(3)
O8 O 0.7236(3) 0.8332(4) 0.8306(3)
O9 O 0.7310(4) 0.6708(3) 0.9039(3)
H41 H 0.686(2) 0.642(4) 0.898(5)
H42 H 0.771(3) 0.635(3) 0.906(5)
N1 N 0.8642(5) 0.7850(5) 0.7595(4)
N2 N 0.7097(5) 0.6735(5) 0.7638(4)
N3 N 0.7440(5) 0.6611(4) 1.0406(4)
N4 N 0.6551(5) 0.8268(4) 1.0463(4)
Ni1C Ni 1.72577(6) 1.20670(6) 1.08021(5)
Ni2B Ni 0.25193(6) 1.69523(6) 0.72567(5)
O3B O 0.8631(3) 0.6148(3) 0.8203(3)
O5C O 0.5805(4) 0.6858(3) 0.9790(3)
loop_
_geom_bond_atom_site_label_1
_geom_bond_atom_site_label_2
_geom_bond_site_symmetry_1
_geom_bond_site_symmetry_2
Ni1 O1 1_555 1_555
Ni2 O2 1_555 1_555
C1 C2 1_555 1_555
C2 C3 1_555 1_555
C3 H1 1_555 1_555
C4 C2 1_555 1_555
H2 C4 1_555 1_555
C5 C4 1_555 1_555
H3 C5 1_555 1_555
C6 C3 1_555 1_555
H4 C6 1_555 1_555
C7 C5 1_555 1_555
C8 C7 1_555 1_555
H5 C8 1_555 1_555
C9 C8 1_555 1_555
H6 C9 1_555 1_555
C10 C9 1_555 1_555
C11 C10 1_555 1_555
H7 C11 1_555 1_555
C12 C10 1_555 1_555
H8 C12 1_555 1_555
C13 C11 1_555 1_555
H9 C13 1_555 1_555
C14 C12 1_555 1_555
H10 C14 1_555 1_555
C15 C13 1_555 1_555
C16 C15 1_555 1_555
C17 C18 1_555 1_555
C18 C19 1_555 1_555
C19 H11 1_555 1_555
C20 C18 1_555 1_555
H12 C20 1_555 1_555
C21 C20 1_555 1_555
H13 C21 1_555 1_555
C22 C19 1_555 1_555
H14 C22 1_555 1_555
C23 C21 1_555 1_555
C24 C23 1_555 1_555
H15 C24 1_555 1_555
C25 C24 1_555 1_555
H16 C25 1_555 1_555
C26 C25 1_555 1_555
C27 C26 1_555 1_555
H17 C27 1_555 1_555
C28 C26 1_555 1_555
H18 C28 1_555 1_555
C29 C28 1_555 1_555
H19 C29 1_555 1_555
C30 C27 1_555 1_555
H20 C30 1_555 1_555
C31 C29 1_555 1_555
C32 C31 1_555 1_555
C33 H21 1_555 1_555
C34 C33 1_555 1_555
H22 C34 1_555 1_555
C35 C34 1_555 1_555
H23 C35 1_555 1_555
C36 C35 1_555 1_555
H24 C36 1_555 1_555
C37 C36 1_555 1_555
H25 C37 1_555 1_555
C38 H26 1_555 1_555
C39 C38 1_555 1_555
H27 C39 1_555 1_555
C40 C39 1_555 1_555
H28 C40 1_555 1_555
C41 C40 1_555 1_555
H29 C41 1_555 1_555
C42 C41 1_555 1_555
H30 C42 1_555 1_555
C43 H31 1_555 1_555
C44 C43 1_555 1_555
H32 C44 1_555 1_555
C45 C44 1_555 1_555
H33 C45 1_555 1_555
C46 C45 1_555 1_555
H34 C46 1_555 1_555
C47 C46 1_555 1_555
H35 C47 1_555 1_555
C48 H36 1_555 1_555
C49 C48 1_555 1_555
H37 C49 1_555 1_555
C50 C49 1_555 1_555
H38 C50 1_555 1_555
C51 C50 1_555 1_555
H39 C51 1_555 1_555
C52 C51 1_555 1_555
H40 C52 1_555 1_555
O1 C1 1_555 1_555
O2 C1 1_555 1_555
O3 C16 1_555 1_555
O4 C16 1_555 1_555
O5 C17 1_555 1_555
O6 C17 1_555 1_555
O7 Ni2 1_555 1_555
O8 Ni1 1_555 1_555
O9 Ni1 1_555 1_555
H41 O9 1_555 1_555
H42 O9 1_555 1_555
N1 Ni1 1_555 1_555
N2 Ni1 1_555 1_555
N3 Ni2 1_555 1_555
N4 Ni2 1_555 1_555
Ni1C O3 1_555 1_555
Ni2B O5 1_555 1_555
O3B Ni1 1_555 1_555
O5C Ni2 1_555 1_555
Ni2 O9 1_555 1_555
C6 C7 1_555 1_555
C14 C15 1_555 1_555
C22 C23 1_555 1_555
C30 C31 1_555 1_555
C32 O7 1_555 1_555
C32 O8 1_555 1_555
C33 N1 1_555 1_555
C37 N1 1_555 1_555
C38 N2 1_555 1_555
C42 N2 1_555 1_555
C43 N3 1_555 1_555
C47 N3 1_555 1_555
C48 N4 1_555 1_555
C52 N4 1_555 1_555

#END
