
#######################################################################
#
#                 Cambridge Crystallographic Data Centre
#                                CCDC 
#
#######################################################################
#
# If this CIF has been generated from an entry in the Cambridge 
# Structural Database, then it will include bibliographic, chemical, 
# crystal, experimental, refinement or atomic coordinate data resulting 
# from the CCDC's data processing and validation procedures.
#
#######################################################################

data_XOXGEX
_symmetry_cell_setting           monoclinic
_symmetry_space_group_name_H-M   'P 2/c'
_symmetry_Int_Tables_number      13
_space_group_name_Hall           '-P 2yc'
loop_
_symmetry_equiv_pos_site_id
_symmetry_equiv_pos_as_xyz
1 x,y,z
2 -x,y,1/2-z
3 -x,-y,-z
4 x,-y,1/2+z
_cell_length_a                   13.868(5)
_cell_length_b                   5.817(2)
_cell_length_c                   20.578(8)
_cell_angle_alpha                90
_cell_angle_beta                 91.174(5)
_cell_angle_gamma                90
_cell_volume                     1659.68
loop_
_atom_site_label
_atom_site_type_symbol
_atom_site_fract_x
_atom_site_fract_y
_atom_site_fract_z
Cu1 Cu 0.5000 0.48238(8) 0.7500
C1 C 0.6434(2) 0.2959(5) 0.66846(14)
C2 C 0.7285(2) 0.3300(5) 0.62525(13)
C3 C 0.7831(2) 0.5299(5) 0.62815(15)
H1 H 0.7657 0.6469 0.6564
C4 C 0.7557(2) 0.1576(5) 0.58288(15)
H2 H 0.7205 0.0218 0.5805
C5 C 0.8352(2) 0.1872(5) 0.54421(15)
H3 H 0.8522 0.0706 0.5157
C6 C 0.8628(2) 0.5582(6) 0.58990(15)
H4 H 0.8987 0.6930 0.5928
C7 C 0.8900(2) 0.3855(5) 0.54685(14)
C8 C 0.9738(2) 0.4082(6) 0.50442(14)
H5 H 0.9913 0.2776 0.4814
C9 C 0.4485(3) 0.6160(7) 0.61564(17)
H6 H 0.4906 0.7370 0.6246
C10 C 0.4058(3) 0.6014(8) 0.5549(2)
H7 H 0.4200 0.7096 0.5232
C11 C 0.3429(3) 0.4288(10) 0.5412(2)
H8 H 0.3123 0.4192 0.5007
C12 C 0.3254(3) 0.2695(8) 0.5882(2)
H9 H 0.2839 0.1469 0.5799
C13 C 0.3703(2) 0.2935(6) 0.64825(18)
H10 H 0.3571 0.1866 0.6805
N1 N 0.43173(18) 0.4632(4) 0.66197(13)
O1 O 0.62341(15) 0.4628(4) 0.70607(11)
O2 O 0.59910(17) 0.1114(4) 0.66520(12)
O3 O 0.5000 0.8608(7) 0.7500
H16 H 0.527(4) 0.938(7) 0.728(2)
Cu1B Cu 1.5000 0.51762(8) 0.2500
C1B C 1.3566(2) 0.7041(5) 0.33154(14)
C2B C 1.2715(2) 0.6700(5) 0.37475(13)
C3B C 1.2169(2) 0.4701(5) 0.37185(15)
H1B H 1.2343 0.3531 0.3436
C4B C 1.2443(2) 0.8424(5) 0.41712(15)
H2B H 1.2795 0.9782 0.4195
C5B C 1.1648(2) 0.8128(5) 0.45579(15)
H3B H 1.1478 0.9294 0.4843
C6B C 1.1372(2) 0.4418(6) 0.41010(15)
H4B H 1.1013 0.3070 0.4072
C7B C 1.1100(2) 0.6145(5) 0.45315(14)
C8B C 1.0262(2) 0.5918(6) 0.49558(14)
H5B H 1.0087 0.7224 0.5186
C9A C 0.5515(3) 0.6160(7) 0.88436(17)
H6A H 0.5094 0.7370 0.8754
C10A C 0.5942(3) 0.6014(8) 0.9451(2)
H7A H 0.5800 0.7096 0.9768
C11A C 0.6571(3) 0.4288(10) 0.9588(2)
H8A H 0.6877 0.4192 0.9993
C12A C 0.6746(3) 0.2695(8) 0.9118(2)
H9A H 0.7161 0.1469 0.9201
C13A C 0.6297(2) 0.2935(6) 0.85175(18)
H10A H 0.6429 0.1866 0.8195
N1A N 0.56827(18) 0.4632(4) 0.83803(13)
O1B O 1.37659(15) 0.5372(4) 0.29393(11)
O1A O 0.37659(15) 0.4628(4) 0.79393(11)
O2B O 1.40090(17) 0.8886(4) 0.33480(12)
H16A H 0.473(4) 0.938(7) 0.772(2)
C14 C 0.8598(4) 0.2111(8) 0.3590(2)
H11 H 0.8539 0.3386 0.3859
C15 C 0.8063(4) 0.2057(8) 0.3025(3)
H12 H 0.7650 0.3262 0.2916
C16 C 0.8146(4) 0.0228(8) 0.2629(2)
H13 H 0.7799 0.0151 0.2238
C17 C 0.8744(4) -0.1486(9) 0.2813(2)
H14 H 0.8814 -0.2782 0.2554
C18 C 0.9249(4) -0.1287(10) 0.3392(3)
H15 H 0.9658 -0.2484 0.3516
N2 N 0.9189(3) 0.0472(7) 0.3775(2)
loop_
_geom_bond_atom_site_label_1
_geom_bond_atom_site_label_2
_geom_bond_site_symmetry_1
_geom_bond_site_symmetry_2
Cu1 N1 1_555 1_555
C1 C2 1_555 1_555
C2 C3 1_555 1_555
C3 H1 1_555 1_555
C4 C2 1_555 1_555
H2 C4 1_555 1_555
C5 C4 1_555 1_555
H3 C5 1_555 1_555
C6 C3 1_555 1_555
H4 C6 1_555 1_555
C7 C5 1_555 1_555
C8 C7 1_555 1_555
H5 C8 1_555 1_555
C9 H6 1_555 1_555
C10 C9 1_555 1_555
H7 C10 1_555 1_555
C11 C10 1_555 1_555
H8 C11 1_555 1_555
C12 C11 1_555 1_555
H9 C12 1_555 1_555
C13 C12 1_555 1_555
H10 C13 1_555 1_555
C14 H11 1_555 1_555
C15 C14 1_555 1_555
H12 C15 1_555 1_555
C16 C15 1_555 1_555
H13 C16 1_555 1_555
C17 C16 1_555 1_555
H14 C17 1_555 1_555
C18 C17 1_555 1_555
H15 C18 1_555 1_555
N1 C9 1_555 1_555
N2 C14 1_555 1_555
O1 Cu1 1_555 1_555
O2 C1 1_555 1_555
O3 Cu1 1_555 1_555
H16 O3 1_555 1_555
Cu1B O1B 1_555 1_555
C1B C2B 1_555 1_555
C2B C3B 1_555 1_555
C3B H1B 1_555 1_555
C4B C2B 1_555 1_555
H2B C4B 1_555 1_555
C5B C4B 1_555 1_555
H3B C5B 1_555 1_555
C6B C3B 1_555 1_555
H4B C6B 1_555 1_555
C7B C5B 1_555 1_555
C8B C8 1_555 1_555
H5B C8B 1_555 1_555
C9A H6A 1_555 1_555
C10A C9A 1_555 1_555
H7A C10A 1_555 1_555
C11A C10A 1_555 1_555
H8A C11A 1_555 1_555
C12A C11A 1_555 1_555
H9A C12A 1_555 1_555
C13A C12A 1_555 1_555
H10A C13A 1_555 1_555
N1A Cu1 1_555 1_555
O1B C1B 1_555 1_555
O1A Cu1 1_555 1_555
O2B C1B 1_555 1_555
H16A O3 1_555 1_555
C1 O1 1_555 1_555
C6 C7 1_555 1_555
C13 N1 1_555 1_555
C18 N2 1_555 1_555
C6B C7B 1_555 1_555
C7B C8B 1_555 1_555
C9A N1A 1_555 1_555
C13A N1A 1_555 1_555

#END
