
#######################################################################
#
#                 Cambridge Crystallographic Data Centre
#                                CCDC 
#
#######################################################################
#
# If this CIF has been generated from an entry in the Cambridge 
# Structural Database, then it will include bibliographic, chemical, 
# crystal, experimental, refinement or atomic coordinate data resulting 
# from the CCDC's data processing and validation procedures.
#
#######################################################################

data_XOXGIC
_symmetry_cell_setting           monoclinic
_symmetry_space_group_name_H-M   'P 21/c'
_symmetry_Int_Tables_number      14
_space_group_name_Hall           '-P 2ybc'
loop_
_symmetry_equiv_pos_site_id
_symmetry_equiv_pos_as_xyz
1 x,y,z
2 -x,1/2+y,1/2-z
3 -x,-y,-z
4 x,1/2-y,1/2+z
_cell_length_a                   7.8454(3)
_cell_length_b                   22.3677(8)
_cell_length_c                   9.5853(3)
_cell_angle_alpha                90
_cell_angle_beta                 93.491(2)
_cell_angle_gamma                90
_cell_volume                     1678.94
loop_
_atom_site_label
_atom_site_type_symbol
_atom_site_fract_x
_atom_site_fract_y
_atom_site_fract_z
Mn1 Mn 0.56764(6) 0.59717(2) 0.91323(5)
N1 N 0.6920(4) 0.64811(11) 0.7295(3)
N2 N 0.4280(3) 0.56346(11) 0.7158(3)
N3 N 0.4260(4) 0.68588(11) 0.8832(2)
O1 O 0.7339(3) 0.52144(10) 0.9052(2)
O2 O 0.6153(3) 0.43344(11) 0.9515(2)
O3 O 1.2759(3) 0.35987(10) 0.9300(2)
O4 O 1.1729(4) 0.35311(12) 0.7097(2)
C1 C 0.7349(4) 0.46617(15) 0.9169(3)
C2 C 0.8934(4) 0.43510(14) 0.8868(3)
C3 C 1.0195(5) 0.40753(14) 0.8631(3)
C4 C 1.1689(4) 0.37067(14) 0.8301(3)
C5 C 0.5938(5) 0.63854(15) 0.5941(3)
H1 H 0.6753 0.6305 0.5215
H2 H 0.5323 0.6759 0.568
C6 C 0.8720(5) 0.62706(15) 0.7278(3)
H3 H 0.8706 0.5841 0.7032
H4 H 0.9254 0.6306 0.8237
C7 C 0.9852(5) 0.65962(17) 0.6282(3)
H5 H 0.9388 0.6542 0.5318
H6 H 1.1011 0.6432 0.638
H7 H 0.9882 0.7023 0.6509
C8 C 0.6832(4) 0.71191(14) 0.7710(3)
H8 H 0.7158 0.7376 0.6928
H9 H 0.7647 0.7194 0.8521
C9 C 0.5055(4) 0.72747(14) 0.8090(3)
C10 C 0.4279(5) 0.78140(15) 0.7702(3)
H10 H 0.4857 0.8099 0.7167
C11 C 0.2653(5) 0.79269(16) 0.8113(4)
H11 H 0.2099 0.8293 0.7868
C12 C 0.1840(5) 0.75051(15) 0.8880(3)
H12 H 0.0721 0.7575 0.917
C13 C 0.2687(4) 0.69757(15) 0.9220(3)
H13 H 0.2127 0.6685 0.9751
C14 C 0.3109(5) 0.51998(15) 0.7132(3)
H14 H 0.2866 0.5016 0.7991
C15 C 0.2237(5) 0.50049(16) 0.5926(3)
H15 H 0.1385 0.4704 0.5953
C16 C 0.2639(5) 0.52606(15) 0.4678(4)
H16 H 0.2068 0.5135 0.3825
C17 C 0.3866(4) 0.56960(14) 0.4676(3)
H17 H 0.4169 0.587 0.3821
C18 C 0.4664(4) 0.58812(14) 0.5934(3)
Mn1B Mn 0.43236(6) 0.40283(2) 1.08677(5)
Mn1B_2 Mn 1.43236(6) 0.40283(2) 1.08677(5)
O2B O 0.3847(3) 0.56656(11) 1.0485(2)
O3B O 0.7241(3) 0.64013(10) 1.0700(2)
loop_
_geom_bond_atom_site_label_1
_geom_bond_atom_site_label_2
_geom_bond_site_symmetry_1
_geom_bond_site_symmetry_2
Mn1 N1 1_555 1_555
N1 C5 1_555 1_555
N2 Mn1 1_555 1_555
N3 Mn1 1_555 1_555
O1 Mn1 1_555 1_555
O2 C1 1_555 1_555
O3 C4 1_555 1_555
O4 C4 1_555 1_555
C1 O1 1_555 1_555
C2 C1 1_555 1_555
C3 C2 1_555 1_555
C4 C3 1_555 1_555
C5 H1 1_555 1_555
H2 C5 1_555 1_555
C6 N1 1_555 1_555
H3 C6 1_555 1_555
H4 C6 1_555 1_555
C7 C6 1_555 1_555
H5 C7 1_555 1_555
H6 C7 1_555 1_555
H7 C7 1_555 1_555
C8 N1 1_555 1_555
H8 C8 1_555 1_555
H9 C8 1_555 1_555
C9 N3 1_555 1_555
C10 C9 1_555 1_555
H10 C10 1_555 1_555
C11 C10 1_555 1_555
H11 C11 1_555 1_555
C12 C11 1_555 1_555
H12 C12 1_555 1_555
C13 N3 1_555 1_555
H13 C13 1_555 1_555
C14 N2 1_555 1_555
H14 C14 1_555 1_555
C15 C14 1_555 1_555
H15 C15 1_555 1_555
C16 C15 1_555 1_555
H16 C16 1_555 1_555
C17 C16 1_555 1_555
H17 C17 1_555 1_555
C18 N2 1_555 1_555
Mn1B O2 1_555 1_555
Mn1B_2 O3 1_555 1_555
O2B Mn1 1_555 1_555
O3B Mn1 1_555 1_555
C5 C18 1_555 1_555
C8 C9 1_555 1_555
C12 C13 1_555 1_555
C17 C18 1_555 1_555

#END
