
#######################################################################
#
#                 Cambridge Crystallographic Data Centre
#                                CCDC 
#
#######################################################################
#
# If this CIF has been generated from an entry in the Cambridge 
# Structural Database, then it will include bibliographic, chemical, 
# crystal, experimental, refinement or atomic coordinate data resulting 
# from the CCDC's data processing and validation procedures.
#
#######################################################################

data_XOXHOI
_symmetry_cell_setting           monoclinic
_symmetry_space_group_name_H-M   'C 2/c'
_symmetry_Int_Tables_number      15
_space_group_name_Hall           '-C 2yn'
loop_
_symmetry_equiv_pos_site_id
_symmetry_equiv_pos_as_xyz
1 x,y,z
2 -x,y,1/2-z
3 1/2+x,1/2+y,z
4 1/2-x,1/2+y,1/2-z
5 -x,-y,-z
6 x,-y,1/2+z
7 1/2-x,1/2-y,-z
8 1/2+x,1/2-y,1/2+z
_cell_length_a                   34.373(4)
_cell_length_b                   14.0358(18)
_cell_length_c                   11.3722(15)
_cell_angle_alpha                90
_cell_angle_beta                 90.187(2)
_cell_angle_gamma                90
_cell_volume                     5486.52
loop_
_atom_site_label
_atom_site_type_symbol
_atom_site_fract_x
_atom_site_fract_y
_atom_site_fract_z
Zn1 Zn 0.0000 -0.21275(4) -0.2500
Zn2 Zn 0.0000 -0.41956(4) -0.2500
Fe1 Fe 0.15503(2) -0.06802(6) -0.42188(8)
Fe2 Fe 0.17743(2) -0.38960(6) 0.15727(7)
O1 O 0.02961(10) -0.2408(2) -0.4012(3)
O2 O 0.03984(12) -0.3970(2) -0.3795(3)
O3 O 0.05087(10) -0.2350(3) -0.1561(3)
O4 O 0.04340(12) -0.3897(3) -0.1309(3)
N1 N 0.0000 0.4352(3) -0.2500
N2 N 0.0000 -0.0670(3) -0.2500
C1 C 0.04638(13) -0.3179(3) -0.4262(4)
C2 C 0.07736(15) -0.3158(4) -0.5202(5)
H1 H 0.0674 -0.2832 -0.5892
H2 H 0.0839 -0.3805 -0.5427
C3 C 0.11403(14) -0.2645(4) -0.4755(5)
H3 H 0.1201 -0.2885 -0.3976
H4 H 0.1355 -0.2812 -0.5265
C4 C 0.11147(14) -0.1589(4) -0.4691(4)
C5 C 0.09996(15) -0.1025(4) -0.3720(5)
H5 H 0.0926 -0.1272 -0.2946
C6 C 0.10163(17) -0.0054(4) -0.4028(6)
H6 H 0.0953 0.0488 -0.3521
C7 C 0.11411(18) -0.0013(5) -0.5213(6)
H7 H 0.1181 0.0571 -0.5669
C8 C 0.11994(17) -0.0948(4) -0.5626(6)
H8 H 0.1286 -0.1126 -0.6416
C9 C 0.2014(2) -0.1495(7) -0.3826(11)
H9 H 0.2032 -0.2190 -0.3893
C10 C 0.2109(2) -0.0835(9) -0.4678(9)
H10 H 0.2200 -0.0989 -0.5471
C11 C 0.2054(2) 0.0078(8) -0.4247(10)
H11 H 0.2102 0.0677 -0.4664
C12 C 0.1928(2) -0.0027(8) -0.3115(9)
H12 H 0.1864 0.0496 -0.2580
C13 C 0.1907(2) -0.0984(8) -0.2844(9)
H13 H 0.1827 -0.1254 -0.2088
C14 C 0.06069(15) -0.3133(4) -0.1156(5)
C15 C 0.0948(2) -0.3154(7) -0.0288(9)
H14 H 0.0888 -0.2716 0.0345
H15 H 0.0959 -0.3788 0.0052
C16 C 0.1307(3) -0.2943(7) -0.0677(9)
H16 H 0.1299 -0.2337 -0.1087
H17 H 0.1388 -0.3426 -0.1235
C17 C 0.1615(2) -0.2883(5) 0.0342(8)
C18 C 0.1994(2) -0.3207(7) 0.0156(8)
H18 H 0.2092 -0.3507 -0.0564
C19 C 0.2213(3) -0.3005(7) 0.1169(8)
H19 H 0.2490 -0.3150 0.1271
C20 C 0.1971(3) -0.2623(7) 0.2047(10)
H20 H 0.2046 -0.2411 0.2837
C21 C 0.1605(3) -0.2531(7) 0.1498(9)
H21 H 0.1373 -0.2277 0.1881
C22 C 0.1473(2) -0.5115(6) 0.1315(8)
H22 H 0.1303 -0.5250 0.0642
C23 C 0.1865(2) -0.5312(6) 0.1376(8)
H23 H 0.2020 -0.5609 0.0754
C24 C 0.2005(3) -0.5010(7) 0.2446(8)
H24 H 0.2272 -0.5069 0.2740
C25 C 0.1689(3) -0.4650(8) 0.3046(9)
H25 H 0.1697 -0.4389 0.3845
C26 C 0.1360(3) -0.4695(7) 0.2342(9)
H26 H 0.1097 -0.4491 0.2553
C27 C -0.01208(14) 0.3862(3) -0.1558(4)
H27 H 0.0207 0.4196 -0.4098
C28 C -0.01226(14) 0.2879(3) -0.1527(4)
H28 H 0.0206 0.2560 -0.4144
C29 C 0.0000 0.2371(4) -0.2500
C30 C 0.0000 0.1313(4) -0.2500
C31 C -0.01513(14) 0.0804(3) -0.3447(4)
H29 H 0.0252 0.1121 -0.0901
C32 C -0.01496(13) -0.0180(3) -0.3404(4)
H30 H -0.0257 -0.0516 -0.4030
Zn2_2 Zn 0.0000 0.58044(4) -0.2500
Fe1A Fe -0.15503(2) -0.06802(6) -0.07812(8)
Fe2A Fe -0.17743(2) -0.38960(6) -0.65727(7)
O1A O -0.02961(10) -0.2408(2) -0.0988(3)
O2A O -0.03984(12) -0.3970(2) -0.1205(3)
O3A O -0.05087(10) -0.2350(3) -0.3439(3)
O4A O -0.04340(12) -0.3897(3) -0.3691(3)
N1_2 N 0.0000 -0.5648(3) -0.2500
C1A C -0.04638(13) -0.3179(3) -0.0738(4)
C2A C -0.07736(15) -0.3158(4) 0.0202(5)
H1A H -0.0674 -0.2832 0.0892
H2A H -0.0839 -0.3805 0.0427
C3A C -0.11403(14) -0.2645(4) -0.0245(5)
H3A H -0.1201 -0.2885 -0.1024
H4A H -0.1355 -0.2812 0.0265
C4A C -0.11147(14) -0.1589(4) -0.0309(4)
C5A C -0.09996(15) -0.1025(4) -0.1280(5)
H5A H -0.0926 -0.1272 -0.2054
C6A C -0.10163(17) -0.0054(4) -0.0972(6)
H6A H -0.0953 0.0488 -0.1479
C7A C -0.11411(18) -0.0013(5) 0.0213(6)
H7A H -0.1181 0.0571 0.0669
C8A C -0.11994(17) -0.0948(4) 0.0626(6)
H8A H -0.1286 -0.1126 0.1416
C9A C -0.2014(2) -0.1495(7) -0.1174(11)
H9A H -0.2032 -0.2190 -0.1107
C10A C -0.2109(2) -0.0835(9) -0.0322(9)
H10A H -0.2200 -0.0989 0.0471
C11A C -0.2054(2) 0.0078(8) -0.0753(10)
H11A H -0.2102 0.0677 -0.0336
C12A C -0.1928(2) -0.0027(8) -0.1885(9)
H12A H -0.1864 0.0496 -0.2420
C13A C -0.1907(2) -0.0984(8) -0.2156(9)
H13A H -0.1827 -0.1254 -0.2912
C14A C -0.06069(15) -0.3133(4) -0.3844(5)
C15A C -0.0948(2) -0.3154(7) -0.4712(9)
H14A H -0.0888 -0.2716 -0.5345
H15A H -0.0959 -0.3788 -0.5052
C16A C -0.1307(3) -0.2943(7) -0.4323(9)
H16A H -0.1299 -0.2337 -0.3913
H17A H -0.1388 -0.3426 -0.3765
C17A C -0.1615(2) -0.2883(5) -0.5342(8)
C18A C -0.1994(2) -0.3207(7) -0.5156(8)
H18A H -0.2092 -0.3507 -0.4436
C19A C -0.2213(3) -0.3005(7) -0.6169(8)
H19A H -0.2490 -0.3150 -0.6271
C20A C -0.1971(3) -0.2623(7) -0.7047(10)
H20A H -0.2046 -0.2411 -0.7837
C21A C -0.1605(3) -0.2531(7) -0.6498(9)
H21A H -0.1373 -0.2277 -0.6881
C22A C -0.1473(2) -0.5115(6) -0.6315(8)
H22A H -0.1303 -0.5250 -0.5642
C23A C -0.1865(2) -0.5312(6) -0.6376(8)
H23A H -0.2020 -0.5609 -0.5754
C24A C -0.2005(3) -0.5010(7) -0.7446(8)
H24A H -0.2272 -0.5069 -0.7740
C25A C -0.1689(3) -0.4650(8) -0.8046(9)
H25A H -0.1697 -0.4389 -0.8845
C26A C -0.1360(3) -0.4695(7) -0.7342(9)
H26A H -0.1097 -0.4491 -0.7553
C27A C 0.01208(14) 0.3862(3) -0.3442(4)
H27A H -0.0207 0.4196 -0.0902
C28A C 0.01226(14) 0.2879(3) -0.3473(4)
H28A H -0.0206 0.2560 -0.0856
C31A C 0.01513(14) 0.0804(3) -0.1553(4)
H29A H -0.0252 0.1121 -0.4099
C32A C 0.01496(13) -0.0180(3) -0.1596(4)
H30A H 0.0257 -0.0516 -0.0970
loop_
_geom_bond_atom_site_label_1
_geom_bond_atom_site_label_2
_geom_bond_site_symmetry_1
_geom_bond_site_symmetry_2
Zn1 O1 1_555 1_555
Zn2 O2 1_555 1_555
Fe1 C4 1_555 1_555
Fe2 C17 1_555 1_555
O1 C1 1_555 1_555
O2 C1 1_555 1_555
O3 Zn1 1_555 1_555
O4 Zn2 1_555 1_555
N1 C27 1_555 1_555
N2 Zn1 1_555 1_555
C1 C2 1_555 1_555
C2 H1 1_555 1_555
H2 C2 1_555 1_555
C3 C2 1_555 1_555
H3 C3 1_555 1_555
H4 C3 1_555 1_555
C4 C3 1_555 1_555
C5 Fe1 1_555 1_555
H5 C5 1_555 1_555
C6 Fe1 1_555 1_555
H6 C6 1_555 1_555
C7 Fe1 1_555 1_555
H7 C7 1_555 1_555
C8 Fe1 1_555 1_555
H8 C8 1_555 1_555
C9 Fe1 1_555 1_555
H9 C9 1_555 1_555
C10 Fe1 1_555 1_555
H10 C10 1_555 1_555
C11 Fe1 1_555 1_555
H11 C11 1_555 1_555
C12 Fe1 1_555 1_555
H12 C12 1_555 1_555
C13 Fe1 1_555 1_555
H13 C13 1_555 1_555
C14 O3 1_555 1_555
C15 C14 1_555 1_555
H14 C15 1_555 1_555
H15 C15 1_555 1_555
C16 C15 1_555 1_555
H16 C16 1_555 1_555
H17 C16 1_555 1_555
C17 C16 1_555 1_555
C18 Fe2 1_555 1_555
H18 C18 1_555 1_555
C19 Fe2 1_555 1_555
H19 C19 1_555 1_555
C20 Fe2 1_555 1_555
H20 C20 1_555 1_555
C21 Fe2 1_555 1_555
H21 C21 1_555 1_555
C22 Fe2 1_555 1_555
H22 C22 1_555 1_555
C23 Fe2 1_555 1_555
H23 C23 1_555 1_555
C24 Fe2 1_555 1_555
H24 C24 1_555 1_555
C25 Fe2 1_555 1_555
H25 C25 1_555 1_555
C26 Fe2 1_555 1_555
H26 C26 1_555 1_555
C27 C28 1_555 1_555
H27 C27A 1_555 1_555
C28 C29 1_555 1_555
H28 C28A 1_555 1_555
C29 C30 1_555 1_555
C30 C31 1_555 1_555
C31 C32 1_555 1_555
H29 C31A 1_555 1_555
C32 N2 1_555 1_555
H30 C32 1_555 1_555
Zn2_2 N1 1_555 1_555
Fe1A C4A 1_555 1_555
Fe2A C17A 1_555 1_555
O1A Zn1 1_555 1_555
O2A Zn2 1_555 1_555
O3A Zn1 1_555 1_555
O4A Zn2 1_555 1_555
N1_2 Zn2 1_555 1_555
C1A O1A 1_555 1_555
C2A C1A 1_555 1_555
H1A C2A 1_555 1_555
H2A C2A 1_555 1_555
C3A C2A 1_555 1_555
H3A C3A 1_555 1_555
H4A C3A 1_555 1_555
C4A C3A 1_555 1_555
C5A Fe1A 1_555 1_555
H5A C5A 1_555 1_555
C6A Fe1A 1_555 1_555
H6A C6A 1_555 1_555
C7A Fe1A 1_555 1_555
H7A C7A 1_555 1_555
C8A Fe1A 1_555 1_555
H8A C8A 1_555 1_555
C9A Fe1A 1_555 1_555
H9A C9A 1_555 1_555
C10A Fe1A 1_555 1_555
H10A C10A 1_555 1_555
C11A Fe1A 1_555 1_555
H11A C11A 1_555 1_555
C12A Fe1A 1_555 1_555
H12A C12A 1_555 1_555
C13A Fe1A 1_555 1_555
H13A C13A 1_555 1_555
C14A O3A 1_555 1_555
C15A C14A 1_555 1_555
H14A C15A 1_555 1_555
H15A C15A 1_555 1_555
C16A C15A 1_555 1_555
H16A C16A 1_555 1_555
H17A C16A 1_555 1_555
C17A C16A 1_555 1_555
C18A Fe2A 1_555 1_555
H18A C18A 1_555 1_555
C19A Fe2A 1_555 1_555
H19A C19A 1_555 1_555
C20A Fe2A 1_555 1_555
H20A C20A 1_555 1_555
C21A Fe2A 1_555 1_555
H21A C21A 1_555 1_555
C22A Fe2A 1_555 1_555
H22A C22A 1_555 1_555
C23A Fe2A 1_555 1_555
H23A C23A 1_555 1_555
C24A Fe2A 1_555 1_555
H24A C24A 1_555 1_555
C25A Fe2A 1_555 1_555
H25A C25A 1_555 1_555
C26A Fe2A 1_555 1_555
H26A C26A 1_555 1_555
C27A N1 1_555 1_555
H27A C27 1_555 1_555
C28A C29 1_555 1_555
H28A C28 1_555 1_555
C31A C30 1_555 1_555
H29A C31 1_555 1_555
C32A N2 1_555 1_555
H30A C32A 1_555 1_555
O4 C14 1_555 1_555
C4 C5 1_555 1_555
C4 C8 1_555 1_555
C5 C6 1_555 1_555
C6 C7 1_555 1_555
C7 C8 1_555 1_555
C9 C10 1_555 1_555
C9 C13 1_555 1_555
C10 C11 1_555 1_555
C11 C12 1_555 1_555
C12 C13 1_555 1_555
C17 C18 1_555 1_555
C17 C21 1_555 1_555
C18 C19 1_555 1_555
C19 C20 1_555 1_555
C20 C21 1_555 1_555
C22 C23 1_555 1_555
C22 C26 1_555 1_555
C23 C24 1_555 1_555
C24 C25 1_555 1_555
C25 C26 1_555 1_555
O2A C1A 1_555 1_555
O4A C14A 1_555 1_555
C4A C5A 1_555 1_555
C4A C8A 1_555 1_555
C5A C6A 1_555 1_555
C6A C7A 1_555 1_555
C7A C8A 1_555 1_555
C9A C10A 1_555 1_555
C9A C13A 1_555 1_555
C10A C11A 1_555 1_555
C11A C12A 1_555 1_555
C12A C13A 1_555 1_555
C17A C18A 1_555 1_555
C17A C21A 1_555 1_555
C18A C19A 1_555 1_555
C19A C20A 1_555 1_555
C20A C21A 1_555 1_555
C22A C23A 1_555 1_555
C22A C26A 1_555 1_555
C23A C24A 1_555 1_555
C24A C25A 1_555 1_555
C25A C26A 1_555 1_555
C27A C28A 1_555 1_555
C31A C32A 1_555 1_555

#END
