
#######################################################################
#
#                 Cambridge Crystallographic Data Centre
#                                CCDC 
#
#######################################################################
#
# If this CIF has been generated from an entry in the Cambridge 
# Structural Database, then it will include bibliographic, chemical, 
# crystal, experimental, refinement or atomic coordinate data resulting 
# from the CCDC's data processing and validation procedures.
#
#######################################################################

data_XOXHIC
_symmetry_cell_setting           monoclinic
_symmetry_space_group_name_H-M   'P 21/n'
_symmetry_Int_Tables_number      14
_space_group_name_Hall           '-P 2yn'
loop_
_symmetry_equiv_pos_site_id
_symmetry_equiv_pos_as_xyz
1 x,y,z
2 1/2-x,1/2+y,1/2-z
3 -x,-y,-z
4 1/2+x,1/2-y,1/2+z
_cell_length_a                   12.159(3)
_cell_length_b                   32.718(7)
_cell_length_c                   13.924(3)
_cell_angle_alpha                90
_cell_angle_beta                 112.369(3)
_cell_angle_gamma                90
_cell_volume                     5122.41
loop_
_atom_site_label
_atom_site_type_symbol
_atom_site_fract_x
_atom_site_fract_y
_atom_site_fract_z
Zn1 Zn 0.60231(6) 0.24218(2) 0.01808(5)
Zn2 Zn 0.57002(6) 0.24355(2) 0.21241(5)
Fe1 Fe 0.72717(10) 0.39899(3) 0.05068(8)
Fe2 Fe 0.22258(11) 0.41201(3) 0.09040(9)
Fe3 Fe 0.13046(11) 0.10150(3) 0.04182(11)
Fe4 Fe 0.65414(10) 0.07458(3) 0.07249(8)
O1 O 0.7367(4) 0.28199(12) 0.0899(3)
O2 O 0.7040(4) 0.28570(13) 0.2364(3)
O3 O 0.4820(4) 0.28895(13) -0.0001(3)
O4 O 0.4540(4) 0.29028(12) 0.1486(3)
O5 O 0.4675(4) 0.20144(13) -0.0058(3)
O6 O 0.4371(4) 0.20240(13) 0.1421(3)
O7 O 0.7193(4) 0.19500(12) 0.0790(3)
O8 O 0.6896(4) 0.19733(13) 0.2273(3)
N1 N 0.5722(5) 0.24084(14) 0.3581(3)
N2 N 0.5972(5) 0.24256(14) 0.8709(3)
C1 C 0.7564(6) 0.29633(17) 0.1783(5)
C2 C 0.8513(5) 0.32933(18) 0.2195(5)
H1 H 0.8890 0.3267 0.2944
H2 H 0.9118 0.3249 0.1910
C3 C 0.8044(6) 0.3715(2) 0.1938(5)
C4 C 0.6872(7) 0.3852(2) 0.1768(5)
H3 H 0.6212 0.3679 0.1766
C5 C 0.6821(8) 0.4277(2) 0.1586(6)
H4 H 0.6121 0.4451 0.1447
C6 C 0.7938(8) 0.4408(2) 0.1659(6)
H5 H 0.8157 0.4690 0.1574
C7 C 0.8701(7) 0.4067(2) 0.1879(5)
H6 H 0.9539 0.4071 0.1962
C8 C 0.6262(9) 0.3644(3) -0.0731(6)
H7 H 0.5757 0.3414 -0.0703
C9 C 0.7444(9) 0.3614(3) -0.0593(6)
H8 H 0.7915 0.3362 -0.0465
C10 C 0.7848(10) 0.4011(3) -0.0676(7)
H9 H 0.8648 0.4087 -0.0627
C11 C 0.6887(11) 0.4275(3) -0.0868(7)
H10 H 0.6893 0.4571 -0.0973
C12 C 0.5910(10) 0.4044(3) -0.0893(6)
H11 H 0.5113 0.4149 -0.1016
C13 C 0.4394(6) 0.30439(19) 0.0603(5)
C14 C 0.3680(6) 0.34362(19) 0.0242(5)
H12 H 0.4234 0.3659 0.0326
H13 H 0.3205 0.3411 -0.0494
C15 C 0.2878(7) 0.35486(19) 0.0780(6)
C16 C 0.1615(8) 0.3556(2) 0.0319(7)
H14 H 0.1131 0.3495 -0.0409
C17 C 0.1174(9) 0.3670(2) 0.1083(8)
H15 H 0.0333 0.3698 0.0978
C18 C 0.2122(9) 0.3737(2) 0.1995(7)
H16 H 0.2075 0.3817 0.2656
C19 C 0.3186(8) 0.3665(2) 0.1822(6)
H17 H 0.3996 0.3690 0.2344
C20 C 0.3264(12) 0.4622(3) 0.1164(11)
H18 H 0.4111 0.4639 0.1606
C21 C 0.2790(12) 0.4535(3) 0.0123(10)
H19 H 0.3248 0.4474 -0.0305
C22 C 0.1584(13) 0.4545(3) -0.0219(10)
H20 H 0.1029 0.4495 -0.0933
C23 C 0.1279(11) 0.4647(3) 0.0603(10)
H21 H 0.0468 0.4680 0.0578
C24 C 0.2305(12) 0.4692(3) 0.1469(10)
H22 H 0.2358 0.4767 0.2167
C25 C 0.4182(6) 0.18898(19) 0.0524(5)
C26 C 0.3328(6) 0.1531(2) 0.0115(5)
H23 H 0.3048 0.1531 -0.0637
H24 H 0.3773 0.1280 0.0357
C27 C 0.2267(7) 0.1520(2) 0.0407(6)
C28 C 0.2275(8) 0.1457(2) 0.1418(7)
H25 H 0.2985 0.1410 0.2047
C29 C 0.1105(8) 0.1461(2) 0.1365(8)
H26 H 0.0853 0.1420 0.1948
C30 C 0.0388(8) 0.1526(2) 0.0377(8)
H27 H -0.0481 0.1540 0.0129
C31 C 0.1054(7) 0.1567(2) -0.0283(7)
H28 H 0.0747 0.1625 -0.1030
C32 C 0.1315(12) 0.0569(3) -0.0589(10)
H29 H 0.1396 0.0620 -0.1253
C33 C 0.0232(11) 0.0562(3) -0.0466(10)
H30 H -0.0571 0.0586 -0.1000
C34 C 0.0556(11) 0.0486(3) 0.0569(10)
H31 H -0.0012 0.0462 0.0911
C35 C 0.1810(12) 0.0470(3) 0.1105(10)
H32 H 0.2275 0.0407 0.1836
C36 C 0.2199(11) 0.0522(3) 0.0278(10)
H33 H 0.3034 0.0524 0.0357
C37 C 0.7359(5) 0.18208(18) 0.1686(5)
C38 C 0.8172(6) 0.14595(18) 0.2103(5)
H34 H 0.8684 0.1433 0.1716
H35 H 0.8675 0.1512 0.2822
C39 C 0.7527(7) 0.1063(2) 0.2040(5)
C40 C 0.8003(8) 0.0665(2) 0.2039(5)
H36 H 0.8806 0.0601 0.2076
C41 C 0.7124(9) 0.0380(2) 0.1992(6)
H37 H 0.7210 0.0082 0.1981
C42 C 0.6107(9) 0.0584(2) 0.1939(6)
H38 H 0.5359 0.0456 0.1891
C43 C 0.6338(7) 0.1011(2) 0.1985(5)
H39 H 0.5779 0.1230 0.1965
C44 C 0.5760(8) 0.1096(2) -0.0559(5)
H40 H 0.5480 0.1377 -0.0567
C45 C 0.6891(8) 0.0982(3) -0.0471(6)
H41 H 0.7548 0.1165 -0.0419
C46 C 0.6907(8) 0.0544(3) -0.0498(6)
H42 H 0.7587 0.0374 -0.0457
C47 C 0.5809(8) 0.0404(3) -0.0596(6)
H43 H 0.5569 0.0117 -0.0631
C48 C 0.5086(8) 0.0744(3) -0.0645(6)
H44 H 0.4254 0.0735 -0.0714
C49 C 0.4739(6) 0.23404(18) 0.3786(5)
H45 H 0.4025 0.2289 0.3234
C50 C 0.4750(6) 0.23442(18) 0.4776(5)
H46 H 0.4054 0.2300 0.4891
C51 C 0.5821(5) 0.24157(17) 0.5604(4)
C52 C 0.6826(6) 0.24731(18) 0.5392(4)
H47 H 0.7557 0.2513 0.5932
C53 C 0.6749(6) 0.24713(17) 0.4384(4)
H48 H 0.7435 0.2515 0.4254
C54 C 0.6819(6) 0.22449(18) 0.8460(5)
H49 H 0.7442 0.2115 0.8984
C55 C 0.6812(6) 0.22411(18) 0.7475(4)
H50 H 0.7427 0.2118 0.7339
C56 C 0.5869(5) 0.24248(17) 0.6682(4)
C57 C 0.4981(5) 0.26072(17) 0.6930(4)
H51 H 0.4332 0.2730 0.6417
C58 C 0.5075(6) 0.26032(18) 0.7948(4)
H52 H 0.4485 0.2731 0.8110
Zn1_2 Zn 0.60231(6) 0.24218(2) 1.01808(5)
N2_2 N 0.5972(5) 0.24256(14) -0.1291(3)
loop_
_geom_bond_atom_site_label_1
_geom_bond_atom_site_label_2
_geom_bond_site_symmetry_1
_geom_bond_site_symmetry_2
Zn1 O1 1_555 1_555
Zn2 O2 1_555 1_555
Fe1 C3 1_555 1_555
Fe2 C15 1_555 1_555
Fe3 C27 1_555 1_555
Fe4 C39 1_555 1_555
O1 C1 1_555 1_555
O2 C1 1_555 1_555
O3 Zn1 1_555 1_555
O4 Zn2 1_555 1_555
O5 Zn1 1_555 1_555
O6 Zn2 1_555 1_555
O7 Zn1 1_555 1_555
O8 Zn2 1_555 1_555
N1 Zn2 1_555 1_555
N2 C54 1_555 1_555
C1 C2 1_555 1_555
C2 H1 1_555 1_555
H2 C2 1_555 1_555
C3 C2 1_555 1_555
C4 Fe1 1_555 1_555
H3 C4 1_555 1_555
C5 Fe1 1_555 1_555
H4 C5 1_555 1_555
C6 Fe1 1_555 1_555
H5 C6 1_555 1_555
C7 Fe1 1_555 1_555
H6 C7 1_555 1_555
C8 Fe1 1_555 1_555
H7 C8 1_555 1_555
C9 Fe1 1_555 1_555
H8 C9 1_555 1_555
C10 Fe1 1_555 1_555
H9 C10 1_555 1_555
C11 Fe1 1_555 1_555
H10 C11 1_555 1_555
C12 Fe1 1_555 1_555
H11 C12 1_555 1_555
C13 O3 1_555 1_555
C14 C13 1_555 1_555
H12 C14 1_555 1_555
H13 C14 1_555 1_555
C15 C14 1_555 1_555
C16 Fe2 1_555 1_555
H14 C16 1_555 1_555
C17 Fe2 1_555 1_555
H15 C17 1_555 1_555
C18 Fe2 1_555 1_555
H16 C18 1_555 1_555
C19 Fe2 1_555 1_555
H17 C19 1_555 1_555
C20 Fe2 1_555 1_555
H18 C20 1_555 1_555
C21 Fe2 1_555 1_555
H19 C21 1_555 1_555
C22 Fe2 1_555 1_555
H20 C22 1_555 1_555
C23 Fe2 1_555 1_555
H21 C23 1_555 1_555
C24 Fe2 1_555 1_555
H22 C24 1_555 1_555
C25 O5 1_555 1_555
C26 C25 1_555 1_555
H23 C26 1_555 1_555
H24 C26 1_555 1_555
C27 C26 1_555 1_555
C28 Fe3 1_555 1_555
H25 C28 1_555 1_555
C29 Fe3 1_555 1_555
H26 C29 1_555 1_555
C30 Fe3 1_555 1_555
H27 C30 1_555 1_555
C31 Fe3 1_555 1_555
H28 C31 1_555 1_555
C32 Fe3 1_555 1_555
H29 C32 1_555 1_555
C33 Fe3 1_555 1_555
H30 C33 1_555 1_555
C34 Fe3 1_555 1_555
H31 C34 1_555 1_555
C35 Fe3 1_555 1_555
H32 C35 1_555 1_555
C36 Fe3 1_555 1_555
H33 C36 1_555 1_555
C37 O7 1_555 1_555
C38 C37 1_555 1_555
H34 C38 1_555 1_555
H35 C38 1_555 1_555
C39 C38 1_555 1_555
C40 Fe4 1_555 1_555
H36 C40 1_555 1_555
C41 Fe4 1_555 1_555
H37 C41 1_555 1_555
C42 Fe4 1_555 1_555
H38 C42 1_555 1_555
C43 Fe4 1_555 1_555
H39 C43 1_555 1_555
C44 Fe4 1_555 1_555
H40 C44 1_555 1_555
C45 Fe4 1_555 1_555
H41 C45 1_555 1_555
C46 Fe4 1_555 1_555
H42 C46 1_555 1_555
C47 Fe4 1_555 1_555
H43 C47 1_555 1_555
C48 Fe4 1_555 1_555
H44 C48 1_555 1_555
C49 N1 1_555 1_555
H45 C49 1_555 1_555
C50 C49 1_555 1_555
H46 C50 1_555 1_555
C51 C50 1_555 1_555
C52 C51 1_555 1_555
H47 C52 1_555 1_555
C53 N1 1_555 1_555
H48 C53 1_555 1_555
C54 H49 1_555 1_555
C55 C54 1_555 1_555
H50 C55 1_555 1_555
C56 C51 1_555 1_555
C57 C56 1_555 1_555
H51 C57 1_555 1_555
C58 N2 1_555 1_555
H52 C58 1_555 1_555
Zn1_2 N2 1_555 1_555
N2_2 Zn1 1_555 1_555
O4 C13 1_555 1_555
O6 C25 1_555 1_555
O8 C37 1_555 1_555
C3 C4 1_555 1_555
C3 C7 1_555 1_555
C4 C5 1_555 1_555
C5 C6 1_555 1_555
C6 C7 1_555 1_555
C8 C9 1_555 1_555
C8 C12 1_555 1_555
C9 C10 1_555 1_555
C10 C11 1_555 1_555
C11 C12 1_555 1_555
C15 C16 1_555 1_555
C15 C19 1_555 1_555
C16 C17 1_555 1_555
C17 C18 1_555 1_555
C18 C19 1_555 1_555
C20 C21 1_555 1_555
C20 C24 1_555 1_555
C21 C22 1_555 1_555
C22 C23 1_555 1_555
C23 C24 1_555 1_555
C27 C28 1_555 1_555
C27 C31 1_555 1_555
C28 C29 1_555 1_555
C29 C30 1_555 1_555
C30 C31 1_555 1_555
C32 C33 1_555 1_555
C32 C36 1_555 1_555
C33 C34 1_555 1_555
C34 C35 1_555 1_555
C35 C36 1_555 1_555
C39 C40 1_555 1_555
C39 C43 1_555 1_555
C40 C41 1_555 1_555
C41 C42 1_555 1_555
C42 C43 1_555 1_555
C44 C45 1_555 1_555
C44 C48 1_555 1_555
C45 C46 1_555 1_555
C46 C47 1_555 1_555
C47 C48 1_555 1_555
C52 C53 1_555 1_555
C55 C56 1_555 1_555
C57 C58 1_555 1_555

#END
