
#######################################################################
#
#                 Cambridge Crystallographic Data Centre
#                                CCDC 
#
#######################################################################
#
# If this CIF has been generated from an entry in the Cambridge 
# Structural Database, then it will include bibliographic, chemical, 
# crystal, experimental, refinement or atomic coordinate data resulting 
# from the CCDC's data processing and validation procedures.
#
#######################################################################

data_XOXJOK
_symmetry_cell_setting           triclinic
_symmetry_space_group_name_H-M   'P -1'
_symmetry_Int_Tables_number      2
_space_group_name_Hall           '-P 1'
loop_
_symmetry_equiv_pos_site_id
_symmetry_equiv_pos_as_xyz
1 x,y,z
2 -x,-y,-z
_cell_length_a                   10.051(2)
_cell_length_b                   11.728(2)
_cell_length_c                   12.039(2)
_cell_angle_alpha                62.20(3)
_cell_angle_beta                 78.96(3)
_cell_angle_gamma                85.23(3)
_cell_volume                     1232.08
loop_
_atom_site_label
_atom_site_type_symbol
_atom_site_fract_x
_atom_site_fract_y
_atom_site_fract_z
C1 C 0.2137(8) 0.6265(7) 0.1701(9)
H1 H 0.2957 0.5737 0.1791
C2 C 0.1749(9) 0.7203(8) 0.0536(7)
H2 H 0.2257 0.7437 -0.0323
C3 C 0.0523(8) 0.7717(7) 0.0826(7)
H3 H 0.0013 0.8382 0.0210
C4 C 0.0120(7) 0.7096(7) 0.2154(7)
H4 H -0.0711 0.7266 0.2629
C5 C 0.1121(8) 0.6213(7) 0.2682(7)
H5 H 0.1112 0.5655 0.3594
C6 C 0.3803(6) 0.8853(6) 0.1147(6)
H6 H 0.4610 0.8645 0.0675
C7 C 0.2862(7) 0.9820(6) 0.0606(7)
H7 H 0.2888 1.0385 -0.0307
C8 C 0.1864(6) 0.9811(6) 0.1583(7)
H8 H 0.1068 1.0371 0.1474
C9 C 0.2170(5) 0.8838(5) 0.2762(6)
H9 H 0.1642 0.8624 0.3608
C10 C 0.3401(5) 0.8241(5) 0.2493(5)
C11 C 0.4022(5) 0.7109(5) 0.3443(5)
C12 C 0.1878(7) 0.0171(6) 0.7451(6)
H10 H 0.1151 0.0449 0.7939
C13 C 0.1775(8) -0.0770(6) 0.7051(6)
H11 H 0.0954 -0.1256 0.7207
C14 C 0.3041(9) -0.0887(6) 0.6389(7)
H12 H 0.3265 -0.1472 0.6008
C15 C 0.3939(7) -0.0030(7) 0.6389(7)
H13 H 0.4901 0.0093 0.6001
C16 C 0.3219(7) 0.0627(6) 0.7024(6)
H14 H 0.3592 0.1288 0.7161
C17 C 0.1181(5) 0.2537(5) 0.4809(5)
H15 H 0.0557 0.2880 0.5311
C18 C 0.0856(6) 0.1631(6) 0.4435(6)
H16 H -0.0032 0.1224 0.4649
C19 C 0.2020(7) 0.1397(6) 0.3727(6)
H17 H 0.2090 0.0801 0.3358
C20 C 0.3083(6) 0.2170(6) 0.3643(5)
H18 H 0.4017 0.2200 0.3204
C21 C 0.2577(5) 0.2877(5) 0.4308(5)
C22 C 0.3391(5) 0.3722(5) 0.4541(5)
C23 C 0.2610(6) 0.4246(8) 0.8708(6)
H19 H 0.3361 0.3714 0.8895
C24 C 0.1660(7) 0.4242(8) 0.9693(6)
H20 H 0.1785 0.3709 1.0528
C25 C 0.0523(5) 0.5006(5) 0.9479(5)
C26 C 0.0407(5) 0.5728(5) 0.8228(5)
H21 H -0.0350 0.6246 0.8017
C27 C 0.1399(5) 0.5703(5) 0.7267(5)
H22 H 0.1291 0.6214 0.6424
Fe1 Fe 0.19523(8) 0.80306(8) 0.16403(8)
Fe2 Fe 0.23600(8) 0.09560(8) 0.55076(8)
N1 N 0.2494(4) 0.4981(4) 0.7500(4)
O1 O 0.5089(4) 0.6686(4) 0.3030(4)
O2 O 0.3439(4) 0.6666(3) 0.4583(4)
O3 O 0.2875(3) 0.4053(3) 0.5375(3)
O4 O 0.4549(4) 0.4034(4) 0.3864(4)
Zn1 Zn 0.39189(5) 0.49823(6) 0.60281(5)
C1A C 0.7863(8) 0.3735(7) 0.8299(9)
H1A H 0.7043 0.4263 0.8209
C2A C 0.8251(9) 0.2797(8) 0.9464(7)
H2A H 0.7743 0.2563 1.0323
C3A C 0.9477(8) 0.2283(7) 0.9174(7)
H3A H 0.9987 0.1618 0.9790
C4A C 0.9880(7) 0.2904(7) 0.7846(7)
H4A H 1.0711 0.2734 0.7371
C5A C 0.8879(8) 0.3787(7) 0.7318(7)
H5A H 0.8888 0.4345 0.6406
C6A C 0.6197(6) 0.1147(6) 0.8853(6)
H6A H 0.5390 0.1355 0.9325
C7A C 0.7138(7) 0.0180(6) 0.9394(7)
H7A H 0.7112 -0.0385 1.0307
C8A C 0.8136(6) 0.0189(6) 0.8417(7)
H8A H 0.8932 -0.0371 0.8526
C9A C 0.7830(5) 0.1162(5) 0.7238(6)
H9A H 0.8358 0.1376 0.6392
C10A C 0.6599(5) 0.1759(5) 0.7507(5)
C11A C 0.5978(5) 0.2891(5) 0.6557(5)
C12A C 0.8122(7) 0.9829(6) 0.2549(6)
H10A H 0.8849 0.9551 0.2061
C13A C 0.8225(8) 1.0770(6) 0.2949(6)
H11A H 0.9046 1.1256 0.2793
C14A C 0.6959(9) 1.0887(6) 0.3611(7)
H12A H 0.6735 1.1472 0.3992
C15A C 0.6061(7) 1.0030(7) 0.3611(7)
H13A H 0.5099 0.9907 0.3999
C16A C 0.6781(7) 0.9373(6) 0.2976(6)
H14A H 0.6408 0.8712 0.2839
C17A C 0.8819(5) 0.7463(5) 0.5191(5)
H15A H 0.9443 0.7120 0.4689
C18A C 0.9144(6) 0.8369(6) 0.5565(6)
H16A H 1.0032 0.8776 0.5351
C19A C 0.7980(7) 0.8603(6) 0.6273(6)
H17A H 0.7910 0.9199 0.6642
C20A C 0.6917(6) 0.7830(6) 0.6357(5)
H18A H 0.5983 0.7800 0.6796
C21A C 0.7423(5) 0.7123(5) 0.5692(5)
C22A C 0.6609(5) 0.6278(5) 0.5459(5)
C23A C -0.2610(6) 0.5754(8) 1.1292(6)
H19A H -0.3361 0.6286 1.1105
C24A C -0.1660(7) 0.5758(8) 1.0307(6)
H20A H -0.1785 0.6291 0.9472
C25A C -0.0523(5) 0.4994(5) 1.0521(5)
C26A C -0.0407(5) 0.4272(5) 1.1772(5)
H21A H 0.0350 0.3754 1.1983
C27A C -0.1399(5) 0.4297(5) 1.2733(5)
H22A H -0.1291 0.3786 1.3576
Fe1A Fe 0.80477(8) 0.19694(8) 0.83597(8)
Fe2A Fe 0.76400(8) 0.90440(8) 0.44924(8)
N1A N -0.2494(4) 0.5019(4) 1.2500(4)
N1A_2 N 0.7506(4) 0.5019(4) 0.2500(4)
O1A O 0.4911(4) 0.3314(4) 0.6970(4)
O2A O 0.6561(4) 0.3334(3) 0.5417(4)
O3A O 0.7125(3) 0.5947(3) 0.4625(3)
O4A O 0.5451(4) 0.5966(4) 0.6136(4)
Zn1A Zn 0.60811(5) 0.50177(6) 0.39719(5)
Zn1A_2 Zn -0.39189(5) 0.50177(6) 1.39719(5)
O5 O 0.493(2) 0.430(2) 0.0864(19)
loop_
_geom_bond_atom_site_label_1
_geom_bond_atom_site_label_2
_geom_bond_site_symmetry_1
_geom_bond_site_symmetry_2
C1 H1 1_555 1_555
C2 C1 1_555 1_555
H2 C2 1_555 1_555
C3 C2 1_555 1_555
H3 C3 1_555 1_555
C4 C3 1_555 1_555
H4 C4 1_555 1_555
C5 C1 1_555 1_555
H5 C5 1_555 1_555
C6 H6 1_555 1_555
C7 C6 1_555 1_555
H7 C7 1_555 1_555
C8 C7 1_555 1_555
H8 C8 1_555 1_555
C9 C8 1_555 1_555
H9 C9 1_555 1_555
C10 C6 1_555 1_555
C11 C10 1_555 1_555
C12 H10 1_555 1_555
C13 C12 1_555 1_555
H11 C13 1_555 1_555
C14 C13 1_555 1_555
H12 C14 1_555 1_555
C15 C14 1_555 1_555
H13 C15 1_555 1_555
C16 C12 1_555 1_555
H14 C16 1_555 1_555
C17 H15 1_555 1_555
C18 C17 1_555 1_555
H16 C18 1_555 1_555
C19 C18 1_555 1_555
H17 C19 1_555 1_555
C20 C19 1_555 1_555
H18 C20 1_555 1_555
C21 C17 1_555 1_555
C22 C21 1_555 1_555
C23 H19 1_555 1_555
C24 C23 1_555 1_555
H20 C24 1_555 1_555
C25 C24 1_555 1_555
C26 C25 1_555 1_555
H21 C26 1_555 1_555
C27 C26 1_555 1_555
H22 C27 1_555 1_555
Fe1 C1 1_555 1_555
Fe2 C12 1_555 1_555
N1 C23 1_555 1_555
O1 C11 1_555 1_555
O2 C11 1_555 1_555
O3 C22 1_555 1_555
O4 C22 1_555 1_555
Zn1 N1 1_555 1_555
C1A H1A 1_555 1_555
C2A C1A 1_555 1_555
H2A C2A 1_555 1_555
C3A C2A 1_555 1_555
H3A C3A 1_555 1_555
C4A C3A 1_555 1_555
H4A C4A 1_555 1_555
C5A C1A 1_555 1_555
H5A C5A 1_555 1_555
C6A H6A 1_555 1_555
C7A C6A 1_555 1_555
H7A C7A 1_555 1_555
C8A C7A 1_555 1_555
H8A C8A 1_555 1_555
C9A C8A 1_555 1_555
H9A C9A 1_555 1_555
C10A C6A 1_555 1_555
C11A C10A 1_555 1_555
C12A H10A 1_555 1_555
C13A C12A 1_555 1_555
H11A C13A 1_555 1_555
C14A C13A 1_555 1_555
H12A C14A 1_555 1_555
C15A C14A 1_555 1_555
H13A C15A 1_555 1_555
C16A C12A 1_555 1_555
H14A C16A 1_555 1_555
C17A H15A 1_555 1_555
C18A C17A 1_555 1_555
H16A C18A 1_555 1_555
C19A C18A 1_555 1_555
H17A C19A 1_555 1_555
C20A C19A 1_555 1_555
H18A C20A 1_555 1_555
C21A C17A 1_555 1_555
C22A C21A 1_555 1_555
C23A H19A 1_555 1_555
C24A C23A 1_555 1_555
H20A C24A 1_555 1_555
C25A C25 1_555 1_555
C26A C25A 1_555 1_555
H21A C26A 1_555 1_555
C27A C26A 1_555 1_555
H22A C27A 1_555 1_555
Fe1A C1A 1_555 1_555
Fe2A C12A 1_555 1_555
N1A C23A 1_555 1_555
N1A_2 Zn1A 1_555 1_555
O1A Zn1 1_555 1_555
O2A C11A 1_555 1_555
O3A C22A 1_555 1_555
O4A Zn1 1_555 1_555
Zn1A O1 1_555 1_555
Zn1A_2 N1A 1_555 1_555
C2 Fe1 1_555 1_555
C3 Fe1 1_555 1_555
C4 C5 1_555 1_555
C4 Fe1 1_555 1_555
C5 Fe1 1_555 1_555
C6 Fe1 1_555 1_555
C7 Fe1 1_555 1_555
C8 Fe1 1_555 1_555
C9 C10 1_555 1_555
C9 Fe1 1_555 1_555
C10 Fe1 1_555 1_555
C13 Fe2 1_555 1_555
C14 Fe2 1_555 1_555
C15 C16 1_555 1_555
C15 Fe2 1_555 1_555
C16 Fe2 1_555 1_555
C17 Fe2 1_555 1_555
C18 Fe2 1_555 1_555
C19 Fe2 1_555 1_555
C20 C21 1_555 1_555
C20 Fe2 1_555 1_555
C21 Fe2 1_555 1_555
C27 N1 1_555 1_555
O2 Zn1 1_555 1_555
O3 Zn1 1_555 1_555
O4 Zn1A 1_555 1_555
C2A Fe1A 1_555 1_555
C3A Fe1A 1_555 1_555
C4A C5A 1_555 1_555
C4A Fe1A 1_555 1_555
C5A Fe1A 1_555 1_555
C6A Fe1A 1_555 1_555
C7A Fe1A 1_555 1_555
C8A Fe1A 1_555 1_555
C9A C10A 1_555 1_555
C9A Fe1A 1_555 1_555
C10A Fe1A 1_555 1_555
C11A O1A 1_555 1_555
C13A Fe2A 1_555 1_555
C14A Fe2A 1_555 1_555
C15A C16A 1_555 1_555
C15A Fe2A 1_555 1_555
C16A Fe2A 1_555 1_555
C17A Fe2A 1_555 1_555
C18A Fe2A 1_555 1_555
C19A Fe2A 1_555 1_555
C20A C21A 1_555 1_555
C20A Fe2A 1_555 1_555
C21A Fe2A 1_555 1_555
C22A O4A 1_555 1_555
C24A C25A 1_555 1_555
C27A N1A 1_555 1_555
O2A Zn1A 1_555 1_555
O3A Zn1A 1_555 1_555

#END
