
#######################################################################
#
#                 Cambridge Crystallographic Data Centre
#                                CCDC 
#
#######################################################################
#
# If this CIF has been generated from an entry in the Cambridge 
# Structural Database, then it will include bibliographic, chemical, 
# crystal, experimental, refinement or atomic coordinate data resulting 
# from the CCDC's data processing and validation procedures.
#
#######################################################################

data_XOXJAW
_symmetry_cell_setting           monoclinic
_symmetry_space_group_name_H-M   'C 2/c'
_symmetry_Int_Tables_number      15
_space_group_name_Hall           '-C 2yn'
loop_
_symmetry_equiv_pos_site_id
_symmetry_equiv_pos_as_xyz
1 x,y,z
2 -x,y,1/2-z
3 1/2+x,1/2+y,z
4 1/2-x,1/2+y,1/2-z
5 -x,-y,-z
6 x,-y,1/2+z
7 1/2-x,1/2-y,-z
8 1/2+x,1/2-y,1/2+z
_cell_length_a                   28.347(6)
_cell_length_b                   11.537(2)
_cell_length_c                   10.987(2)
_cell_angle_alpha                90
_cell_angle_beta                 101.47(3)
_cell_angle_gamma                90
_cell_volume                     3521.42
loop_
_atom_site_label
_atom_site_type_symbol
_atom_site_fract_x
_atom_site_fract_y
_atom_site_fract_z
C1 C 0.89577(8) 0.06668(19) 1.1077(2)
C2 C 0.86006(9) 0.0745(2) 0.9844(2)
H1 H 0.8281 0.0876 1.0008
H2 H 0.8596 0.0011 0.9412
C3 C 0.87201(9) 0.1715(2) 0.9002(2)
H3 H 0.9057 0.1656 0.8946
H4 H 0.8529 0.1609 0.8174
C4 C 0.86260(9) 0.2922(2) 0.9463(2)
H5 H 0.8282 0.3024 0.9403
H6 H 0.8780 0.2992 1.0331
C5 C 0.88135(10) 0.3870(2) 0.8722(2)
H7 H 0.9158 0.3770 0.8808
H8 H 0.8669 0.3765 0.7851
C6 C 0.87190(9) 0.5092(2) 0.9083(2)
C7 C 0.88026(9) 0.6115(2) 0.8434(3)
H9 H 0.8919 0.6140 0.7652
C8 C 0.86830(10) 0.7092(2) 0.9094(3)
H10 H 0.8707 0.7905 0.8856
C9 C 0.85220(10) 0.6685(2) 1.0163(2)
H11 H 0.8417 0.7166 1.0795
C10 C 0.85461(10) 0.5447(2) 1.0158(2)
H12 H 0.8455 0.4931 1.0780
C11 C 0.74615(11) 0.5142(3) 0.8200(3)
H13 H 0.7406 0.4380 0.8541
C12 C 0.76364(11) 0.5333(3) 0.7118(3)
H14 H 0.7718 0.4735 0.6562
C13 C 0.76709(12) 0.6541(4) 0.6964(3)
H15 H 0.7775 0.6939 0.6274
C14 C 0.75140(12) 0.7071(3) 0.7974(4)
H16 H 0.7494 0.7907 0.8113
C15 C 0.73858(11) 0.6203(3) 0.8728(3)
H17 H 0.7264 0.6319 0.9494
C16 C 0.98626(9) 0.29520(19) 1.1453(2)
H18 H 0.9770 0.2547 1.0712
C17 C 0.98516(9) 0.41475(18) 1.1414(2)
H19 H 0.9745 0.4529 1.0664
C18 C 1.0000 0.4779(2) 1.2500
C19 C 1.0000 0.6064(2) 1.2500
C20 C 0.97140(9) 0.66978(19) 1.1558(2)
H20 H 0.9516 0.6317 1.0903
C21 C 0.97232(9) 0.78937(19) 1.1595(2)
H21 H 0.9526 0.8296 1.0955
Fe1 Fe 0.809498(12) 0.60550(3) 0.85940(3)
N1 N 1.0000 0.2346(2) 1.2500
N2 N 1.0000 0.8509(2) 1.2500
O1 O 0.93974(6) 0.04772(13) 1.10185(14)
O2 O 0.88097(7) 0.0791(2) 1.20552(18)
O3 O 1.04338(7) 0.05386(16) 1.11593(17)
Zn1 Zn 1.0000 0.04193(3) 1.2500
H22 H 1.0483(13) 0.019(3) 1.056(4)
H23 H 1.0687(14) 0.069(3) 1.156(4)
C1A C 1.10423(8) 0.06668(19) 1.3923(2)
C2A C 1.13994(9) 0.0745(2) 1.5156(2)
H1A H 1.1719 0.0876 1.4992
H2A H 1.1404 0.0011 1.5588
C3A C 1.12799(9) 0.1715(2) 1.5998(2)
H3A H 1.0943 0.1656 1.6054
H4A H 1.1471 0.1609 1.6826
C4A C 1.13740(9) 0.2922(2) 1.5537(2)
H5A H 1.1718 0.3024 1.5597
H6A H 1.1220 0.2992 1.4669
C5A C 1.11865(10) 0.3870(2) 1.6278(2)
H7A H 1.0842 0.3770 1.6192
H8A H 1.1331 0.3765 1.7149
C6A C 1.12810(9) 0.5092(2) 1.5917(2)
C7A C 1.11974(9) 0.6115(2) 1.6566(3)
H9A H 1.1081 0.6140 1.7348
C8A C 1.13170(10) 0.7092(2) 1.5906(3)
H10A H 1.1293 0.7905 1.6144
C9A C 1.14780(10) 0.6685(2) 1.4837(2)
H11A H 1.1583 0.7166 1.4205
C10A C 1.14539(10) 0.5447(2) 1.4842(2)
H12A H 1.1545 0.4931 1.4220
C11A C 1.25385(11) 0.5142(3) 1.6800(3)
H13A H 1.2594 0.4380 1.6459
C12A C 1.23636(11) 0.5333(3) 1.7882(3)
H14A H 1.2282 0.4735 1.8438
C13A C 1.23291(12) 0.6541(4) 1.8036(3)
H15A H 1.2225 0.6939 1.8726
C14A C 1.24860(12) 0.7071(3) 1.7026(4)
H16A H 1.2506 0.7907 1.6887
C15A C 1.26142(11) 0.6203(3) 1.6272(3)
H17A H 1.2736 0.6319 1.5506
C16A C 1.01374(9) 0.29520(19) 1.3547(2)
H18A H 1.0230 0.2547 1.4288
C17A C 1.01484(9) 0.41475(18) 1.3586(2)
H19A H 1.0255 0.4529 1.4336
C20A C 1.02860(9) 0.66978(19) 1.3442(2)
H20A H 1.0484 0.6317 1.4097
C21A C 1.02768(9) 0.78937(19) 1.3405(2)
H21A H 1.0474 0.8296 1.4045
Fe1A Fe 1.190502(12) 0.60550(3) 1.64060(3)
N2_2 N 1.0000 -0.1491(2) 1.2500
O1A O 1.06026(6) 0.04772(13) 1.39815(14)
O2A O 1.11903(7) 0.0791(2) 1.29448(18)
O3A O 0.95662(7) 0.05386(16) 1.38407(17)
Zn1_2 Zn 1.0000 1.04193(3) 1.2500
H22A H 0.9517(13) 0.019(3) 1.444(4)
H23A H 0.9313(14) 0.069(3) 1.344(4)
loop_
_geom_bond_atom_site_label_1
_geom_bond_atom_site_label_2
_geom_bond_site_symmetry_1
_geom_bond_site_symmetry_2
C1 C2 1_555 1_555
C2 H1 1_555 1_555
H2 C2 1_555 1_555
C3 C2 1_555 1_555
H3 C3 1_555 1_555
H4 C3 1_555 1_555
C4 C3 1_555 1_555
H5 C4 1_555 1_555
H6 C4 1_555 1_555
C5 C4 1_555 1_555
H7 C5 1_555 1_555
H8 C5 1_555 1_555
C6 C5 1_555 1_555
C7 C6 1_555 1_555
H9 C7 1_555 1_555
C8 C7 1_555 1_555
H10 C8 1_555 1_555
C9 C8 1_555 1_555
H11 C9 1_555 1_555
C10 C6 1_555 1_555
H12 C10 1_555 1_555
C11 H13 1_555 1_555
C12 C11 1_555 1_555
H14 C12 1_555 1_555
C13 C12 1_555 1_555
H15 C13 1_555 1_555
C14 C13 1_555 1_555
H16 C14 1_555 1_555
C15 C11 1_555 1_555
H17 C15 1_555 1_555
C16 H18 1_555 1_555
C17 C16 1_555 1_555
H19 C17 1_555 1_555
C18 C17 1_555 1_555
C19 C18 1_555 1_555
C20 C19 1_555 1_555
H20 C20 1_555 1_555
C21 C20 1_555 1_555
H21 C21 1_555 1_555
Fe1 C6 1_555 1_555
N1 C16 1_555 1_555
N2 C21 1_555 1_555
O1 C1 1_555 1_555
O2 C1 1_555 1_555
O3 Zn1 1_555 1_555
Zn1 N1 1_555 1_555
H22 O3 1_555 1_555
H23 O3 1_555 1_555
C1A C2A 1_555 1_555
C2A H1A 1_555 1_555
H2A C2A 1_555 1_555
C3A C2A 1_555 1_555
H3A C3A 1_555 1_555
H4A C3A 1_555 1_555
C4A C3A 1_555 1_555
H5A C4A 1_555 1_555
H6A C4A 1_555 1_555
C5A C4A 1_555 1_555
H7A C5A 1_555 1_555
H8A C5A 1_555 1_555
C6A C5A 1_555 1_555
C7A C6A 1_555 1_555
H9A C7A 1_555 1_555
C8A C7A 1_555 1_555
H10A C8A 1_555 1_555
C9A C8A 1_555 1_555
H11A C9A 1_555 1_555
C10A C6A 1_555 1_555
H12A C10A 1_555 1_555
C11A H13A 1_555 1_555
C12A C11A 1_555 1_555
H14A C12A 1_555 1_555
C13A C12A 1_555 1_555
H15A C13A 1_555 1_555
C14A C13A 1_555 1_555
H16A C14A 1_555 1_555
C15A C11A 1_555 1_555
H17A C15A 1_555 1_555
C16A N1 1_555 1_555
H18A C16A 1_555 1_555
C17A C18 1_555 1_555
H19A C17A 1_555 1_555
C20A C19 1_555 1_555
H20A C20A 1_555 1_555
C21A N2 1_555 1_555
H21A C21A 1_555 1_555
Fe1A C6A 1_555 1_555
N2_2 Zn1 1_555 1_555
O1A Zn1 1_555 1_555
O2A C1A 1_555 1_555
O3A Zn1 1_555 1_555
Zn1_2 N2 1_555 1_555
H22A O3A 1_555 1_555
H23A O3A 1_555 1_555
C7 Fe1 1_555 1_555
C8 Fe1 1_555 1_555
C9 C10 1_555 1_555
C9 Fe1 1_555 1_555
C10 Fe1 1_555 1_555
C11 Fe1 1_555 1_555
C12 Fe1 1_555 1_555
C13 Fe1 1_555 1_555
C14 C15 1_555 1_555
C14 Fe1 1_555 1_555
C15 Fe1 1_555 1_555
O1 Zn1 1_555 1_555
C1A O1A 1_555 1_555
C7A Fe1A 1_555 1_555
C8A Fe1A 1_555 1_555
C9A C10A 1_555 1_555
C9A Fe1A 1_555 1_555
C10A Fe1A 1_555 1_555
C11A Fe1A 1_555 1_555
C12A Fe1A 1_555 1_555
C13A Fe1A 1_555 1_555
C14A C15A 1_555 1_555
C14A Fe1A 1_555 1_555
C15A Fe1A 1_555 1_555
C16A C17A 1_555 1_555
C20A C21A 1_555 1_555

#END
