
#######################################################################
#
#                 Cambridge Crystallographic Data Centre
#                                CCDC 
#
#######################################################################
#
# If this CIF has been generated from an entry in the Cambridge 
# Structural Database, then it will include bibliographic, chemical, 
# crystal, experimental, refinement or atomic coordinate data resulting 
# from the CCDC's data processing and validation procedures.
#
#######################################################################

data_XOXJIE
_symmetry_cell_setting           triclinic
_symmetry_space_group_name_H-M   'P -1'
_symmetry_Int_Tables_number      2
_space_group_name_Hall           '-P 1'
loop_
_symmetry_equiv_pos_site_id
_symmetry_equiv_pos_as_xyz
1 x,y,z
2 -x,-y,-z
_cell_length_a                   12.6640(12)
_cell_length_b                   12.8431(13)
_cell_length_c                   13.3132(13)
_cell_angle_alpha                90.598(15)
_cell_angle_beta                 100.892(15)
_cell_angle_gamma                105.459(15)
_cell_volume                     2045.16
loop_
_atom_site_label
_atom_site_type_symbol
_atom_site_fract_x
_atom_site_fract_y
_atom_site_fract_z
Fe1 Fe -0.06171(9) 0.76438(8) -0.02023(8)
Fe2 Fe 0.45940(9) 0.57157(8) 0.21237(8)
Fe3 Fe 0.28444(8) 0.03351(7) 0.40653(7)
Zn1 Zn 0.21059(5) 0.72948(5) 0.67129(5)
Ca1 Ca 0.0000 0.5000 0.5000
C1 C -0.1393(6) 0.7427(5) 0.1029(5)
C2 C -0.0885(6) 0.8525(6) 0.0937(6)
H1 H -0.0294 0.8991 0.1460
C3 C -0.1329(6) 0.8863(5) -0.0017(6)
H2 H -0.1121 0.9592 -0.0263
C4 C -0.2130(6) 0.7948(5) -0.0543(5)
H3 H -0.2578 0.7925 -0.1233
C5 C -0.2183(5) 0.7067(5) 0.0094(5)
H4 H -0.2669 0.6330 -0.0084
C6 C 0.1062(8) 0.7980(10) -0.0103(12)
H5 H 0.1639 0.8518 0.0373
C7 C 0.0538(11) 0.8152(11) -0.1100(11)
H6 H 0.0680 0.8832 -0.1444
C8 C -0.0208(10) 0.7174(12) -0.1500(9)
H7 H -0.0695 0.7050 -0.2181
C9 C -0.0175(12) 0.6392(9) -0.0777(13)
H8 H -0.0611 0.5630 -0.0865
C10 C 0.0618(11) 0.6890(13) 0.0066(11)
H9 H 0.0825 0.6540 0.0696
C11 C -0.1163(6) 0.6765(5) 0.1926(5)
H10 H -0.1538 0.6931 0.2454
H11 H -0.0366 0.6977 0.2207
C12 C -0.1538(6) 0.5559(5) 0.1668(5)
H12 H -0.1167 0.5400 0.1135
H13 H -0.2335 0.5354 0.1386
C13 C -0.1320(6) 0.4856(5) 0.2548(5)
C14 C 0.3928(6) 0.4951(5) 0.3295(5)
C15 C 0.3629(7) 0.4228(5) 0.2397(6)
H14 H 0.2867 0.3876 0.2030
C16 C 0.4607(9) 0.4133(6) 0.2117(7)
H15 H 0.4644 0.3697 0.1523
C17 C 0.5529(7) 0.4761(7) 0.2821(7)
H16 H 0.6318 0.4833 0.2818
C18 C 0.5096(6) 0.5283(6) 0.3554(5)
H17 H 0.5543 0.5776 0.4139
C19 C 0.3905(8) 0.6954(6) 0.1777(6)
H18 H 0.3306 0.7102 0.2077
C20 C 0.3743(10) 0.6292(8) 0.0901(7)
H19 H 0.3021 0.5906 0.0474
C21 C 0.4789(14) 0.6275(9) 0.0740(8)
H20 H 0.4941 0.5881 0.0173
C22 C 0.5592(10) 0.6955(9) 0.1518(10)
H21 H 0.6405 0.7114 0.1595
C23 C 0.5022(8) 0.7355(6) 0.2170(6)
H22 H 0.5362 0.7849 0.2780
C24 C 0.3104(5) 0.5214(5) 0.3850(5)
H23 H 0.2861 0.4627 0.4279
H24 H 0.2454 0.5260 0.3352
C25 C 0.3556(5) 0.6256(5) 0.4508(5)
H25 H 0.3723 0.6851 0.4068
H26 H 0.4252 0.6241 0.4953
C26 C 0.2772(5) 0.6476(5) 0.5164(4)
C27 C 0.2709(5) 0.1616(5) 0.4922(5)
C28 C 0.3754(6) 0.1847(6) 0.4615(6)
H27 H 0.4049 0.2445 0.4205
C29 C 0.4310(6) 0.1087(6) 0.5028(6)
H28 H 0.5055 0.1061 0.4944
C30 C 0.3608(6) 0.0351(6) 0.5548(5)
H29 H 0.3777 -0.0267 0.5903
C31 C 0.2616(6) 0.0689(6) 0.5492(5)
H30 H 0.1973 0.0331 0.5791
C32 C 0.1815(7) 0.0156(6) 0.2677(6)
H31 H 0.1414 0.0677 0.2394
C33 C 0.2866(8) 0.0148(7) 0.2553(6)
H32 H 0.3335 0.0662 0.2171
C34 C 0.3162(9) -0.0695(10) 0.3071(8)
H33 H 0.3862 -0.0896 0.3108
C35 C 0.2252(11) -0.1224(7) 0.3502(8)
H34 H 0.2207 -0.1862 0.3906
C36 C 0.1417(8) -0.0678(7) 0.3265(6)
H35 H 0.0685 -0.0870 0.3461
C37 C 0.1880(5) 0.2276(5) 0.4690(6)
H36 H 0.2054 0.2835 0.5239
H37 H 0.1987 0.2636 0.4065
C38 C 0.0689(5) 0.1678(5) 0.4567(6)
H38 H 0.0567 0.1359 0.5207
H39 H 0.0522 0.1090 0.4048
C39 C -0.0123(5) 0.2356(5) 0.4267(5)
C40 C 0.3919(8) 0.8041(7) 0.8486(7)
H40 H 0.3967 0.7342 0.8365
C41 C 0.4664(7) 0.8681(7) 0.9325(7)
H41 H 0.5201 0.8405 0.9724
C42 C 0.4612(5) 0.9664(4) 0.9554(4)
C43 C 0.3820(6) 1.0005(5) 0.8916(5)
H42 H 0.3744 1.0694 0.9031
C44 C 0.3129(6) 0.9344(5) 0.8101(5)
H43 H 0.2596 0.9609 0.7683
N1 N 0.3176(4) 0.8371(4) 0.7879(4)
O1 O -0.0561(4) 0.5235(4) 0.3286(3)
O2 O -0.1939(4) 0.3913(3) 0.2426(3)
O3 O 0.3159(3) 0.7262(3) 0.5817(3)
O4 O 0.1824(4) 0.5891(4) 0.5057(4)
O5 O 0.0174(4) 0.3322(4) 0.4534(4)
O6 O -0.1050(3) 0.1871(3) 0.3723(3)
Fe1A Fe 0.06171(9) 0.23562(8) 1.02023(8)
Fe2A Fe -0.45940(9) 0.42843(8) 0.78763(8)
Fe3A Fe -0.28444(8) 0.96649(7) 0.59347(7)
Zn1A Zn -0.21059(5) 0.27052(5) 0.32871(5)
Zn1A_2 Zn 0.78941(5) 1.27052(5) 1.32871(5)
C1A C 0.1393(6) 0.2573(5) 0.8971(5)
C2A C 0.0885(6) 0.1475(6) 0.9063(6)
H1A H 0.0294 0.1009 0.8540
C3A C 0.1329(6) 0.1137(5) 1.0017(6)
H2A H 0.1121 0.0408 1.0263
C4A C 0.2130(6) 0.2052(5) 1.0543(5)
H3A H 0.2578 0.2075 1.1233
C5A C 0.2183(5) 0.2933(5) 0.9906(5)
H4A H 0.2669 0.3670 1.0084
C6A C -0.1062(8) 0.2020(10) 1.0103(12)
H5A H -0.1639 0.1482 0.9627
C7A C -0.0538(11) 0.1848(11) 1.1100(11)
H6A H -0.0680 0.1168 1.1444
C8A C 0.0208(10) 0.2826(12) 1.1500(9)
H7A H 0.0695 0.2950 1.2181
C9A C 0.0175(12) 0.3608(9) 1.0777(13)
H8A H 0.0611 0.4370 1.0865
C10A C -0.0618(11) 0.3110(13) 0.9934(11)
H9A H -0.0825 0.3460 0.9304
C11A C 0.1163(6) 0.3235(5) 0.8074(5)
H10A H 0.1538 0.3069 0.7546
H11A H 0.0366 0.3023 0.7793
C12A C 0.1538(6) 0.4441(5) 0.8332(5)
H12A H 0.1167 0.4600 0.8865
H13A H 0.2335 0.4646 0.8614
C13A C 0.1320(6) 0.5144(5) 0.7452(5)
C14A C -0.3928(6) 0.5049(5) 0.6705(5)
C15A C -0.3629(7) 0.5772(5) 0.7603(6)
H14A H -0.2867 0.6124 0.7970
C16A C -0.4607(9) 0.5867(6) 0.7883(7)
H15A H -0.4644 0.6303 0.8477
C17A C -0.5529(7) 0.5239(7) 0.7179(7)
H16A H -0.6318 0.5167 0.7182
C18A C -0.5096(6) 0.4717(6) 0.6446(5)
H17A H -0.5543 0.4224 0.5861
C19A C -0.3905(8) 0.3046(6) 0.8223(6)
H18A H -0.3306 0.2898 0.7923
C20A C -0.3743(10) 0.3708(8) 0.9099(7)
H19A H -0.3021 0.4094 0.9526
C21A C -0.4789(14) 0.3725(9) 0.9260(8)
H20A H -0.4941 0.4119 0.9827
C22A C -0.5592(10) 0.3045(9) 0.8482(10)
H21A H -0.6405 0.2886 0.8405
C23A C -0.5022(8) 0.2645(6) 0.7830(6)
H22A H -0.5362 0.2151 0.7220
C24A C -0.3104(5) 0.4786(5) 0.6150(5)
H23A H -0.2861 0.5373 0.5721
H24A H -0.2454 0.4740 0.6648
C25A C -0.3556(5) 0.3744(5) 0.5492(5)
H25A H -0.3723 0.3149 0.5932
H26A H -0.4252 0.3759 0.5047
C26A C -0.2772(5) 0.3524(5) 0.4836(4)
C27A C -0.2709(5) 0.8384(5) 0.5078(5)
C28A C -0.3754(6) 0.8153(6) 0.5385(6)
H27A H -0.4049 0.7555 0.5795
C29A C -0.4310(6) 0.8913(6) 0.4972(6)
H28A H -0.5055 0.8939 0.5056
C30A C -0.3608(6) 0.9649(6) 0.4452(5)
H29A H -0.3777 1.0267 0.4097
C31A C -0.2616(6) 0.9311(6) 0.4508(5)
H30A H -0.1973 0.9669 0.4209
C32A C -0.1815(7) 0.9844(6) 0.7323(6)
H31A H -0.1414 0.9323 0.7606
C33A C -0.2866(8) 0.9852(7) 0.7447(6)
H32A H -0.3335 0.9338 0.7829
C34A C -0.3162(9) 1.0695(10) 0.6929(8)
H33A H -0.3862 1.0896 0.6892
C35A C -0.2252(11) 1.1224(7) 0.6498(8)
H34A H -0.2207 1.1862 0.6094
C36A C -0.1417(8) 1.0678(7) 0.6735(6)
H35A H -0.0685 1.0870 0.6539
C37A C -0.1880(5) 0.7724(5) 0.5310(6)
H36A H -0.2054 0.7165 0.4761
H37A H -0.1987 0.7364 0.5935
C38A C -0.0689(5) 0.8322(5) 0.5433(6)
H38A H -0.0567 0.8641 0.4793
H39A H -0.0522 0.8910 0.5952
C39A C 0.0123(5) 0.7644(5) 0.5733(5)
C40A C 0.6081(8) 1.1959(7) 1.1514(7)
H40A H 0.6033 1.2658 1.1635
C41A C 0.5336(7) 1.1319(7) 1.0675(7)
H41A H 0.4799 1.1595 1.0276
C42A C 0.5388(5) 1.0336(4) 1.0446(4)
C43A C 0.6180(6) 0.9995(5) 1.1084(5)
H42A H 0.6256 0.9306 1.0969
C44A C 0.6871(6) 1.0656(5) 1.1899(5)
H43A H 0.7404 1.0391 1.2317
N1A N 0.6824(4) 1.1629(4) 1.2121(4)
N1A_2 N -0.3176(4) 0.1629(4) 0.2121(4)
O1A O 0.0561(4) 0.4765(4) 0.6714(3)
O2A O 0.1939(4) 0.6087(3) 0.7574(3)
O3A O -0.3159(3) 0.2738(3) 0.4183(3)
O4A O -0.1824(4) 0.4109(4) 0.4943(4)
O5A O -0.0174(4) 0.6678(4) 0.5466(4)
O6A O 0.1050(3) 0.8129(3) 0.6277(3)
loop_
_geom_bond_atom_site_label_1
_geom_bond_atom_site_label_2
_geom_bond_site_symmetry_1
_geom_bond_site_symmetry_2
Fe1 C1 1_555 1_555
Fe2 C14 1_555 1_555
Fe3 C27 1_555 1_555
Zn1 N1 1_555 1_555
Ca1 O1 1_555 1_555
C1 C2 1_555 1_555
C2 Fe1 1_555 1_555
H1 C2 1_555 1_555
C3 Fe1 1_555 1_555
H2 C3 1_555 1_555
C4 Fe1 1_555 1_555
H3 C4 1_555 1_555
C5 Fe1 1_555 1_555
H4 C5 1_555 1_555
C6 Fe1 1_555 1_555
H5 C6 1_555 1_555
C7 Fe1 1_555 1_555
H6 C7 1_555 1_555
C8 Fe1 1_555 1_555
H7 C8 1_555 1_555
C9 Fe1 1_555 1_555
H8 C9 1_555 1_555
C10 Fe1 1_555 1_555
H9 C10 1_555 1_555
C11 C1 1_555 1_555
H10 C11 1_555 1_555
H11 C11 1_555 1_555
C12 C11 1_555 1_555
H12 C12 1_555 1_555
H13 C12 1_555 1_555
C13 C12 1_555 1_555
C14 C15 1_555 1_555
C15 Fe2 1_555 1_555
H14 C15 1_555 1_555
C16 Fe2 1_555 1_555
H15 C16 1_555 1_555
C17 Fe2 1_555 1_555
H16 C17 1_555 1_555
C18 Fe2 1_555 1_555
H17 C18 1_555 1_555
C19 Fe2 1_555 1_555
H18 C19 1_555 1_555
C20 Fe2 1_555 1_555
H19 C20 1_555 1_555
C21 Fe2 1_555 1_555
H20 C21 1_555 1_555
C22 Fe2 1_555 1_555
H21 C22 1_555 1_555
C23 Fe2 1_555 1_555
H22 C23 1_555 1_555
C24 C14 1_555 1_555
H23 C24 1_555 1_555
H24 C24 1_555 1_555
C25 C24 1_555 1_555
H25 C25 1_555 1_555
H26 C25 1_555 1_555
C26 C25 1_555 1_555
C27 C28 1_555 1_555
C28 Fe3 1_555 1_555
H27 C28 1_555 1_555
C29 Fe3 1_555 1_555
H28 C29 1_555 1_555
C30 Fe3 1_555 1_555
H29 C30 1_555 1_555
C31 Fe3 1_555 1_555
H30 C31 1_555 1_555
C32 Fe3 1_555 1_555
H31 C32 1_555 1_555
C33 Fe3 1_555 1_555
H32 C33 1_555 1_555
C34 Fe3 1_555 1_555
H33 C34 1_555 1_555
C35 Fe3 1_555 1_555
H34 C35 1_555 1_555
C36 Fe3 1_555 1_555
H35 C36 1_555 1_555
C37 C27 1_555 1_555
H36 C37 1_555 1_555
H37 C37 1_555 1_555
C38 C37 1_555 1_555
H38 C38 1_555 1_555
H39 C38 1_555 1_555
C39 C38 1_555 1_555
C40 H40 1_555 1_555
C41 C40 1_555 1_555
H41 C41 1_555 1_555
C42 C41 1_555 1_555
C43 C42 1_555 1_555
H42 C43 1_555 1_555
C44 C43 1_555 1_555
H43 C44 1_555 1_555
N1 C40 1_555 1_555
O1 C13 1_555 1_555
O2 C13 1_555 1_555
O3 Zn1 1_555 1_555
O4 Ca1 1_555 1_555
O5 Ca1 1_555 1_555
O6 C39 1_555 1_555
Fe1A C1A 1_555 1_555
Fe2A C14A 1_555 1_555
Fe3A C27A 1_555 1_555
Zn1A O2 1_555 1_555
Zn1A_2 N1A 1_555 1_555
C1A C2A 1_555 1_555
C2A Fe1A 1_555 1_555
H1A C2A 1_555 1_555
C3A Fe1A 1_555 1_555
H2A C3A 1_555 1_555
C4A Fe1A 1_555 1_555
H3A C4A 1_555 1_555
C5A Fe1A 1_555 1_555
H4A C5A 1_555 1_555
C6A Fe1A 1_555 1_555
H5A C6A 1_555 1_555
C7A Fe1A 1_555 1_555
H6A C7A 1_555 1_555
C8A Fe1A 1_555 1_555
H7A C8A 1_555 1_555
C9A Fe1A 1_555 1_555
H8A C9A 1_555 1_555
C10A Fe1A 1_555 1_555
H9A C10A 1_555 1_555
C11A C1A 1_555 1_555
H10A C11A 1_555 1_555
H11A C11A 1_555 1_555
C12A C11A 1_555 1_555
H12A C12A 1_555 1_555
H13A C12A 1_555 1_555
C13A C12A 1_555 1_555
C14A C15A 1_555 1_555
C15A Fe2A 1_555 1_555
H14A C15A 1_555 1_555
C16A Fe2A 1_555 1_555
H15A C16A 1_555 1_555
C17A Fe2A 1_555 1_555
H16A C17A 1_555 1_555
C18A Fe2A 1_555 1_555
H17A C18A 1_555 1_555
C19A Fe2A 1_555 1_555
H18A C19A 1_555 1_555
C20A Fe2A 1_555 1_555
H19A C20A 1_555 1_555
C21A Fe2A 1_555 1_555
H20A C21A 1_555 1_555
C22A Fe2A 1_555 1_555
H21A C22A 1_555 1_555
C23A Fe2A 1_555 1_555
H22A C23A 1_555 1_555
C24A C14A 1_555 1_555
H23A C24A 1_555 1_555
H24A C24A 1_555 1_555
C25A C24A 1_555 1_555
H25A C25A 1_555 1_555
H26A C25A 1_555 1_555
C26A C25A 1_555 1_555
C27A C28A 1_555 1_555
C28A Fe3A 1_555 1_555
H27A C28A 1_555 1_555
C29A Fe3A 1_555 1_555
H28A C29A 1_555 1_555
C30A Fe3A 1_555 1_555
H29A C30A 1_555 1_555
C31A Fe3A 1_555 1_555
H30A C31A 1_555 1_555
C32A Fe3A 1_555 1_555
H31A C32A 1_555 1_555
C33A Fe3A 1_555 1_555
H32A C33A 1_555 1_555
C34A Fe3A 1_555 1_555
H33A C34A 1_555 1_555
C35A Fe3A 1_555 1_555
H34A C35A 1_555 1_555
C36A Fe3A 1_555 1_555
H35A C36A 1_555 1_555
C37A C27A 1_555 1_555
H36A C37A 1_555 1_555
H37A C37A 1_555 1_555
C38A C37A 1_555 1_555
H38A C38A 1_555 1_555
H39A C38A 1_555 1_555
C39A C38A 1_555 1_555
C40A H40A 1_555 1_555
C41A C40A 1_555 1_555
H41A C41A 1_555 1_555
C42A C42 1_555 1_555
C43A C42A 1_555 1_555
H42A C43A 1_555 1_555
C44A C43A 1_555 1_555
H43A C44A 1_555 1_555
N1A C40A 1_555 1_555
N1A_2 Zn1A 1_555 1_555
O1A Ca1 1_555 1_555
O2A Zn1 1_555 1_555
O3A Zn1A 1_555 1_555
O4A Ca1 1_555 1_555
O5A Ca1 1_555 1_555
O6A Zn1 1_555 1_555
C1 C5 1_555 1_555
C2 C3 1_555 1_555
C3 C4 1_555 1_555
C4 C5 1_555 1_555
C6 C7 1_555 1_555
C6 C10 1_555 1_555
C7 C8 1_555 1_555
C8 C9 1_555 1_555
C9 C10 1_555 1_555
C14 C18 1_555 1_555
C15 C16 1_555 1_555
C16 C17 1_555 1_555
C17 C18 1_555 1_555
C19 C20 1_555 1_555
C19 C23 1_555 1_555
C20 C21 1_555 1_555
C21 C22 1_555 1_555
C22 C23 1_555 1_555
C26 O3 1_555 1_555
C26 O4 1_555 1_555
C27 C31 1_555 1_555
C28 C29 1_555 1_555
C29 C30 1_555 1_555
C30 C31 1_555 1_555
C32 C33 1_555 1_555
C32 C36 1_555 1_555
C33 C34 1_555 1_555
C34 C35 1_555 1_555
C35 C36 1_555 1_555
C39 O5 1_555 1_555
C44 N1 1_555 1_555
O6 Zn1A 1_555 1_555
C1A C5A 1_555 1_555
C2A C3A 1_555 1_555
C3A C4A 1_555 1_555
C4A C5A 1_555 1_555
C6A C7A 1_555 1_555
C6A C10A 1_555 1_555
C7A C8A 1_555 1_555
C8A C9A 1_555 1_555
C9A C10A 1_555 1_555
C13A O1A 1_555 1_555
C13A O2A 1_555 1_555
C14A C18A 1_555 1_555
C15A C16A 1_555 1_555
C16A C17A 1_555 1_555
C17A C18A 1_555 1_555
C19A C20A 1_555 1_555
C19A C23A 1_555 1_555
C20A C21A 1_555 1_555
C21A C22A 1_555 1_555
C22A C23A 1_555 1_555
C26A O3A 1_555 1_555
C26A O4A 1_555 1_555
C27A C31A 1_555 1_555
C28A C29A 1_555 1_555
C29A C30A 1_555 1_555
C30A C31A 1_555 1_555
C32A C33A 1_555 1_555
C32A C36A 1_555 1_555
C33A C34A 1_555 1_555
C34A C35A 1_555 1_555
C35A C36A 1_555 1_555
C39A O5A 1_555 1_555
C39A O6A 1_555 1_555
C41A C42A 1_555 1_555
C44A N1A 1_555 1_555

#END
