
#######################################################################
#
#                 Cambridge Crystallographic Data Centre
#                                CCDC 
#
#######################################################################
#
# If this CIF has been generated from an entry in the Cambridge 
# Structural Database, then it will include bibliographic, chemical, 
# crystal, experimental, refinement or atomic coordinate data resulting 
# from the CCDC's data processing and validation procedures.
#
#######################################################################

data_XOYCET
_symmetry_cell_setting           orthorhombic
_symmetry_space_group_name_H-M   'P c c a'
_symmetry_Int_Tables_number      54
_space_group_name_Hall           '-P 2a 2ac'
loop_
_symmetry_equiv_pos_site_id
_symmetry_equiv_pos_as_xyz
1 x,y,z
2 1/2-x,-y,z
3 1/2+x,-y,1/2-z
4 -x,y,1/2-z
5 -x,-y,-z
6 1/2+x,y,-z
7 1/2-x,y,1/2+z
8 x,-y,1/2+z
_cell_length_a                   37.477(8)
_cell_length_b                   4.772(4)
_cell_length_c                   9.330(2)
_cell_angle_alpha                90
_cell_angle_beta                 90
_cell_angle_gamma                90
_cell_volume                     1668.58
loop_
_atom_site_label
_atom_site_type_symbol
_atom_site_fract_x
_atom_site_fract_y
_atom_site_fract_z
Co1 Co 0.1213(1) -0.9541(1) 0.0640(1)
O1 O 0.1087(1) -0.5582(5) 0.0459(3)
O2 O 0.0787(1) -0.1703(5) 0.0106(3)
O3 O 0.3351(1) -0.0843(5) 0.4653(2)
O4 O 0.1339(1) -0.9808(5) 0.2686(2)
C1 C 0.0826(1) -0.4302(7) -0.0082(3)
C2 C 0.0554(1) -0.5826(7) -0.0974(4)
C3 C 0.0280(1) -0.4004(7) -0.1716(4)
C4 C 0.0000 -0.5763(10) -0.2500
C5 C 0.3390(1) -0.1125(6) 0.3316(3)
C6 C 0.3103(1) -0.2605(9) 0.2484(4)
C7 C 0.2800(1) -0.3784(10) 0.3375(4)
C8 C 0.2500 -0.5000 0.2462(6)
O2_2 O 0.0787(1) -1.1703(5) 0.0106(3)
Co1_2 Co 0.1213(1) 0.0459(1) 0.0640(1)
O2A O 0.4213(1) 0.1703(5) 0.0106(3)
Co1A Co 0.3787(1) -0.0459(1) 0.0640(1)
O1A O 0.3913(1) -0.4418(5) 0.0459(3)
O3G O 0.3351(1) 0.0843(5) -0.0347(2)
O4A O 0.3661(1) -0.0192(5) 0.2686(2)
O3F O 0.1649(1) -1.0843(5) -0.0347(2)
C5A C 0.1610(1) -0.8875(6) 0.3316(3)
C3C C -0.0280(1) -0.4004(7) -0.3284(4)
Co1F Co 0.3787(1) 0.0459(1) 0.5640(1)
O3A O 0.1649(1) -0.9157(5) 0.4653(2)
C6A C 0.1897(1) -0.7395(9) 0.2484(4)
C2C C -0.0554(1) -0.5826(7) -0.4026(4)
Co1G Co 0.1213(1) -1.0459(1) 0.5640(1)
C7A C 0.2200(1) -0.6216(10) 0.3375(4)
C1C C -0.0826(1) -0.4302(7) -0.4918(3)
O1C O -0.1087(1) -0.5582(5) -0.5459(3)
O2C O -0.0787(1) -0.1703(5) -0.5106(3)
Co1C Co -0.1213(1) -0.9541(1) -0.5640(1)
Co1C_2 Co -0.1213(1) 0.0459(1) -0.5640(1)
loop_
_geom_bond_atom_site_label_1
_geom_bond_atom_site_label_2
_geom_bond_site_symmetry_1
_geom_bond_site_symmetry_2
Co1 O1 1_555 1_555
O1 C1 1_555 1_555
O2 C1 1_555 1_555
O3 C5 1_555 1_555
O4 Co1 1_555 1_555
C1 C2 1_555 1_555
C2 C3 1_555 1_555
C3 C4 1_555 1_555
C4 C3C 1_555 1_555
C5 C6 1_555 1_555
C6 C7 1_555 1_555
C7 C8 1_555 1_555
C8 C7A 1_555 1_555
O2_2 Co1 1_555 1_555
Co1_2 O2 1_555 1_555
O2A Co1A 1_555 1_555
Co1A O1A 1_555 1_555
O3G Co1A 1_555 1_555
O4A C5 1_555 1_555
O3F Co1 1_555 1_555
C5A O4 1_555 1_555
C3C C2C 1_555 1_555
Co1F O3 1_555 1_555
O3A C5A 1_555 1_555
C6A C5A 1_555 1_555
C2C C1C 1_555 1_555
Co1G O3A 1_555 1_555
C7A C6A 1_555 1_555
C1C O1C 1_555 1_555
O1C Co1C 1_555 1_555
O2C C1C 1_555 1_555
Co1C_2 O2C 1_555 1_555
Co1A O4A 1_555 1_555

#END
