
#######################################################################
#
#                 Cambridge Crystallographic Data Centre
#                                CCDC 
#
#######################################################################
#
# If this CIF has been generated from an entry in the Cambridge 
# Structural Database, then it will include bibliographic, chemical, 
# crystal, experimental, refinement or atomic coordinate data resulting 
# from the CCDC's data processing and validation procedures.
#
#######################################################################

data_XOYGOI
_symmetry_cell_setting           orthorhombic
_symmetry_space_group_name_H-M   'P 21 21 21'
_symmetry_Int_Tables_number      19
_space_group_name_Hall           'P 2ac 2ab'
loop_
_symmetry_equiv_pos_site_id
_symmetry_equiv_pos_as_xyz
1 x,y,z
2 1/2-x,-y,1/2+z
3 -x,1/2+y,1/2-z
4 1/2+x,1/2-y,-z
_cell_length_a                   13.0638(4)
_cell_length_b                   13.5574(3)
_cell_length_c                   20.3649(5)
_cell_angle_alpha                90
_cell_angle_beta                 90
_cell_angle_gamma                90
_cell_volume                     3606.85
loop_
_atom_site_label
_atom_site_type_symbol
_atom_site_fract_x
_atom_site_fract_y
_atom_site_fract_z
Fe1 Fe 0.62434(7) 0.16275(6) 0.17220(4)
C1 C 0.4796(4) 0.1840(4) 0.1490(3)
N1 N 0.3990(4) 0.2008(3) 0.1310(2)
C2 C 0.6505(4) 0.2113(3) 0.0845(3)
N2 N 0.6659(4) 0.2459(3) 0.0338(2)
C3 C 0.7723(5) 0.1389(4) 0.1702(3)
N3 N 0.8580(5) 0.1251(4) 0.1680(3)
N4 N 0.6406(4) 0.3005(3) 0.2087(3)
C4 C 0.6527(5) 0.3842(4) 0.1790(3)
H1 H 0.6544 0.3830 0.1324
C5 C 0.6635(5) 0.4758(4) 0.2094(3)
H2 H 0.6696 0.5343 0.1840
C6 C 0.6650(6) 0.4795(5) 0.2775(4)
H3 H 0.6745 0.5400 0.3003
C7 C 0.6513(6) 0.3858(5) 0.3127(3)
C8 C 0.6483(6) 0.3834(6) 0.3817(4)
H4 H 0.6566 0.4417 0.4070
C9 C 0.6329(7) 0.2942(6) 0.4109(4)
H5 H 0.6315 0.2901 0.4575
C10 C 0.6191(6) 0.2078(5) 0.3731(3)
H6 H 0.6071 0.1468 0.3948
C11 C 0.6225(5) 0.2103(5) 0.3073(3)
C12 C 0.6398(5) 0.3016(4) 0.2749(3)
N5 N 0.6112(5) 0.1333(4) 0.2625(3)
C13 C 0.5963(5) 0.0400(4) 0.2815(3)
O1 O 0.5803(4) 0.0044(3) 0.3350(2)
C14 C 0.6008(5) -0.0272(5) 0.2206(3)
C15 C 0.6088(6) -0.1332(4) 0.2298(3)
H7 H 0.6047 -0.1621 0.2722
C16 C 0.6220(7) -0.1887(5) 0.1759(4)
H8 H 0.6351 -0.2572 0.1807
C17 C 0.6170(6) -0.1478(4) 0.1119(4)
C18 C 0.6212(8) -0.2040(5) 0.0548(5)
H9 H 0.6338 -0.2729 0.0575
C19 C 0.6075(8) -0.1616(5) -0.0036(5)
H10 H 0.6091 -0.2007 -0.0423
C20 C 0.5910(6) -0.0613(4) -0.0083(3)
H11 H 0.5793 -0.0343 -0.0506
C21 C 0.5903(6) 0.0012(5) 0.0438(3)
H12 H 0.5812 0.0702 0.0384
C22 C 0.6043(5) -0.0431(5) 0.1085(3)
N6 N 0.6027(5) 0.0167(4) 0.1629(3)
Mn1 Mn 0.27713(7) 0.22256(5) 0.05096(4)
O2 O 0.2819(4) 0.0886(3) 0.0264(2)
C23 C 0.3186(5) 0.0508(4) -0.0278(3)
C24 C 0.2950(6) -0.0475(4) -0.0444(3)
H13 H 0.2501 -0.0844 -0.0171
C25 C 0.3370(6) -0.0920(5) -0.1010(3)
H14 H 0.3223 -0.1593 -0.1101
C26 C 0.3988(6) -0.0399(5) -0.1431(4)
H15 H 0.4246 -0.0704 -0.1817
C27 C 0.4233(5) 0.0569(5) -0.1292(3)
H16 H 0.4661 0.0929 -0.1583
C28 C 0.3851(5) 0.1029(4) -0.0717(3)
C29 C 0.4205(5) 0.2017(4) -0.0596(3)
H17 H 0.4690 0.2292 -0.0892
N7 N 0.3899(4) 0.2555(3) -0.0105(2)
C30 C 0.4343(5) 0.3545(4) -0.0007(3)
H18 H 0.4694 0.3776 -0.0409
H19 H 0.4839 0.3542 0.0361
C31 C 0.3413(5) 0.4209(4) 0.0155(3)
H20 H 0.3645 0.4855 0.0328
H21 H 0.2996 0.4325 -0.0243
N8 N 0.2812(4) 0.3680(3) 0.0654(2)
C32 C 0.2394(5) 0.4155(4) 0.1127(3)
H22 H 0.2457 0.4854 0.1131
C33 C 0.1840(5) 0.3698(4) 0.1650(3)
C34 C 0.1592(6) 0.4291(5) 0.2191(3)
H23 H 0.1776 0.4969 0.2186
C35 C 0.1098(6) 0.3920(6) 0.2719(4)
H24 H 0.0968 0.4324 0.3090
C36 C 0.0780(8) 0.2933(6) 0.2712(4)
H25 H 0.0411 0.2676 0.3076
C37 C 0.0994(7) 0.2328(5) 0.2182(3)
H26 H 0.0777 0.1660 0.2189
C38 C 0.1529(5) 0.2690(4) 0.1634(3)
O3 O 0.1716(3) 0.2087(3) 0.11372(19)
N2C N 0.1659(4) 0.2541(3) -0.0338(2)
Mn1C Mn 0.77713(7) 0.27744(5) -0.05096(4)
C39 C 0.0819(11) 0.9903(13) 0.1217(6)
H27 H 0.0367 1.0471 0.1284
H28 H 0.1481 1.0131 0.1049
H29 H 0.0921 0.9561 0.1636
C40 C 0.0332(11) 0.9194(8) 0.0720(6)
N9 N -0.0130(15) 0.8772(9) 0.0352(7)
loop_
_geom_bond_atom_site_label_1
_geom_bond_atom_site_label_2
_geom_bond_site_symmetry_1
_geom_bond_site_symmetry_2
Fe1 C1 1_555 1_555
C1 N1 1_555 1_555
N1 Mn1 1_555 1_555
C2 Fe1 1_555 1_555
N2 C2 1_555 1_555
C3 Fe1 1_555 1_555
N3 C3 1_555 1_555
N4 Fe1 1_555 1_555
C4 N4 1_555 1_555
H1 C4 1_555 1_555
C5 C4 1_555 1_555
H2 C5 1_555 1_555
C6 C5 1_555 1_555
H3 C6 1_555 1_555
C7 C6 1_555 1_555
C8 C7 1_555 1_555
H4 C8 1_555 1_555
C9 C8 1_555 1_555
H5 C9 1_555 1_555
C10 C9 1_555 1_555
H6 C10 1_555 1_555
C11 C10 1_555 1_555
C12 N4 1_555 1_555
N5 Fe1 1_555 1_555
C13 N5 1_555 1_555
O1 C13 1_555 1_555
C14 C13 1_555 1_555
C15 C14 1_555 1_555
H7 C15 1_555 1_555
C16 C15 1_555 1_555
H8 C16 1_555 1_555
C17 C16 1_555 1_555
C18 C17 1_555 1_555
H9 C18 1_555 1_555
C19 C18 1_555 1_555
H10 C19 1_555 1_555
C20 C19 1_555 1_555
H11 C20 1_555 1_555
C21 C20 1_555 1_555
H12 C21 1_555 1_555
C22 C17 1_555 1_555
N6 Fe1 1_555 1_555
Mn1 O2 1_555 1_555
O2 C23 1_555 1_555
C23 C24 1_555 1_555
C24 H13 1_555 1_555
C25 C24 1_555 1_555
H14 C25 1_555 1_555
C26 C25 1_555 1_555
H15 C26 1_555 1_555
C27 C26 1_555 1_555
H16 C27 1_555 1_555
C28 C23 1_555 1_555
C29 C28 1_555 1_555
H17 C29 1_555 1_555
N7 Mn1 1_555 1_555
C30 N7 1_555 1_555
H18 C30 1_555 1_555
H19 C30 1_555 1_555
C31 C30 1_555 1_555
H20 C31 1_555 1_555
H21 C31 1_555 1_555
N8 Mn1 1_555 1_555
C32 N8 1_555 1_555
H22 C32 1_555 1_555
C33 C32 1_555 1_555
C34 C33 1_555 1_555
H23 C34 1_555 1_555
C35 C34 1_555 1_555
H24 C35 1_555 1_555
C36 C35 1_555 1_555
H25 C36 1_555 1_555
C37 C36 1_555 1_555
H26 C37 1_555 1_555
C38 C33 1_555 1_555
O3 Mn1 1_555 1_555
C39 H27 1_555 1_555
H28 C39 1_555 1_555
H29 C39 1_555 1_555
C40 C39 1_555 1_555
N9 C40 1_555 1_555
N2C Mn1 1_555 1_555
Mn1C N2 1_555 1_555
C7 C12 1_555 1_555
C11 C12 1_555 1_555
C11 N5 1_555 1_555
C14 N6 1_555 1_555
C21 C22 1_555 1_555
C22 N6 1_555 1_555
C27 C28 1_555 1_555
C29 N7 1_555 1_555
C31 N8 1_555 1_555
C37 C38 1_555 1_555
C38 O3 1_555 1_555

#END
