
#######################################################################
#
#                 Cambridge Crystallographic Data Centre
#                                CCDC 
#
#######################################################################
#
# If this CIF has been generated from an entry in the Cambridge 
# Structural Database, then it will include bibliographic, chemical, 
# crystal, experimental, refinement or atomic coordinate data resulting 
# from the CCDC's data processing and validation procedures.
#
#######################################################################

data_XOYHAV
_symmetry_cell_setting           monoclinic
_symmetry_space_group_name_H-M   'P 21/c'
_symmetry_Int_Tables_number      14
_space_group_name_Hall           '-P 2ybc'
loop_
_symmetry_equiv_pos_site_id
_symmetry_equiv_pos_as_xyz
1 x,y,z
2 -x,1/2+y,1/2-z
3 -x,-y,-z
4 x,1/2-y,1/2+z
_cell_length_a                   10.0113(3)
_cell_length_b                   14.1801(4)
_cell_length_c                   26.7347(7)
_cell_angle_alpha                90
_cell_angle_beta                 90.860(2)
_cell_angle_gamma                90
_cell_volume                     3794.86
loop_
_atom_site_label
_atom_site_type_symbol
_atom_site_fract_x
_atom_site_fract_y
_atom_site_fract_z
Fe1 Fe 0.31056(5) 0.62980(4) 0.362890(19)
C1 C 0.4297(4) 0.6686(2) 0.31066(14)
N1 N 0.5056(3) 0.6942(2) 0.28135(11)
C2 C 0.3653(3) 0.5024(3) 0.34339(13)
N2 N 0.3952(3) 0.4296(2) 0.32808(11)
C3 C 0.2674(3) 0.7651(3) 0.36508(13)
N3 N 0.2467(3) 0.8443(2) 0.36517(12)
N4 N 0.4574(3) 0.6483(2) 0.41384(12)
C4 C 0.5798(4) 0.6838(3) 0.40901(15)
H1 H 0.6052 0.7044 0.3767
C5 C 0.6733(4) 0.6927(3) 0.44795(15)
H2 H 0.7590 0.7189 0.4421
C6 C 0.6388(4) 0.6627(3) 0.49540(17)
H3 H 0.7007 0.6666 0.5226
C7 C 0.5065(4) 0.6256(2) 0.50227(14)
C8 C 0.4599(5) 0.5945(3) 0.54892(15)
H4 H 0.5177 0.5949 0.5774
C9 C 0.3332(5) 0.5642(3) 0.55300(16)
H5 H 0.3030 0.5434 0.5847
C10 C 0.2440(4) 0.5623(3) 0.51192(14)
H6 H 0.1551 0.5407 0.5163
C11 C 0.2843(4) 0.5915(2) 0.46546(15)
C12 C 0.4205(4) 0.6228(2) 0.46039(14)
N5 N 0.2135(3) 0.5954(2) 0.42096(12)
C13 C 0.0812(4) 0.5901(3) 0.41691(16)
O1 O -0.0010(3) 0.5788(2) 0.45062(10)
C14 C 0.0358(4) 0.6006(3) 0.36258(15)
C15 C -0.1021(4) 0.6019(3) 0.35143(16)
H7 H -0.1657 0.5947 0.3772
C16 C -0.1425(4) 0.6138(3) 0.30271(17)
H8 H -0.2345 0.6207 0.2942
C17 C -0.0421(4) 0.6155(2) 0.26478(14)
C18 C -0.0770(4) 0.6200(3) 0.21390(16)
H9 H -0.1679 0.6277 0.2040
C19 C 0.0182(4) 0.6133(3) 0.17895(17)
H10 H -0.0059 0.6160 0.1445
C20 C 0.1521(4) 0.6025(3) 0.19317(15)
H11 H 0.2169 0.5957 0.1678
C21 C 0.1937(4) 0.6014(2) 0.24206(14)
H12 H 0.2857 0.5956 0.2507
C22 C 0.0937(4) 0.6092(2) 0.28046(15)
N6 N 0.1320(3) 0.6084(2) 0.32959(12)
Mn1 Mn 0.56646(5) 0.80800(4) 0.22595(2)
O2 O 0.6268(2) 0.71640(16) 0.17998(9)
C23 C 0.5709(4) 0.6939(2) 0.13644(14)
C24 C 0.6486(4) 0.6434(3) 0.10164(14)
H13 H 0.7372 0.6255 0.1107
C25 C 0.5991(4) 0.6196(3) 0.05509(14)
H14 H 0.6535 0.5862 0.0323
C26 C 0.4692(4) 0.6446(3) 0.04141(14)
Cl1 Cl 0.40958(11) 0.62211(7) -0.01913(4)
C27 C 0.3890(4) 0.6901(3) 0.07479(14)
H15 H 0.2992 0.7045 0.0657
C28 C 0.4383(4) 0.7156(2) 0.12219(14)
C29 C 0.3482(4) 0.7669(2) 0.15436(14)
H16 H 0.2582 0.7743 0.1433
N7 N 0.3818(3) 0.8031(2) 0.19692(11)
C30 C 0.2797(3) 0.8490(3) 0.22782(14)
H17 H 0.2451 0.8042 0.2529
H18 H 0.2041 0.8710 0.2066
C31 C 0.3481(4) 0.9326(3) 0.25371(14)
H19 H 0.3582 0.9855 0.2299
H20 H 0.2943 0.9545 0.2822
N8 N 0.4803(3) 0.8997(2) 0.27152(11)
C32 C 0.5243(4) 0.9246(2) 0.31476(15)
H21 H 0.4662 0.9597 0.3355
C33 C 0.6563(4) 0.9030(2) 0.33433(14)
C34 C 0.6901(4) 0.9389(3) 0.38202(14)
H22 H 0.6241 0.9687 0.4017
C35 C 0.8185(4) 0.9306(3) 0.40000(14)
Cl2 Cl 0.86173(11) 0.98105(8) 0.45783(4)
C36 C 0.9176(4) 0.8873(3) 0.37172(15)
H23 H 1.0065 0.8826 0.3844
C37 C 0.8843(4) 0.8516(2) 0.32521(14)
H24 H 0.9517 0.8216 0.3063
C38 C 0.7549(4) 0.8580(2) 0.30477(14)
O3 O 0.7318(2) 0.82339(17) 0.25978(9)
N2A N 0.6048(3) 0.9296(2) 0.17192(11)
Mn1A Mn 0.43354(5) 0.30800(4) 0.27405(2)
C39 C 0.9352(4) 0.8568(3) 0.1590(2)
H25 H 0.9584 0.8681 0.1942
H26 H 0.8872 0.7967 0.1558
H27 H 0.8782 0.9081 0.1465
O5 O 1.0536(3) 0.8529(3) 0.13055(13)
H32 H 1.0365 0.8289 0.1025
O4 O 0.9592(4) 0.6819(3) 0.53561(14)
H28 H 0.9685 0.6424 0.5125
C40 C 1.0017(7) 0.7733(4) 0.5188(3)
H29 H 1.0386 0.8090 0.5471
H30 H 0.9251 0.8073 0.5044
H31 H 1.0703 0.7658 0.4933
loop_
_geom_bond_atom_site_label_1
_geom_bond_atom_site_label_2
_geom_bond_site_symmetry_1
_geom_bond_site_symmetry_2
Fe1 C1 1_555 1_555
C1 N1 1_555 1_555
N1 Mn1 1_555 1_555
C2 Fe1 1_555 1_555
N2 C2 1_555 1_555
C3 Fe1 1_555 1_555
N3 C3 1_555 1_555
N4 Fe1 1_555 1_555
C4 N4 1_555 1_555
H1 C4 1_555 1_555
C5 C4 1_555 1_555
H2 C5 1_555 1_555
C6 C5 1_555 1_555
H3 C6 1_555 1_555
C7 C6 1_555 1_555
C8 C7 1_555 1_555
H4 C8 1_555 1_555
C9 C8 1_555 1_555
H5 C9 1_555 1_555
C10 C9 1_555 1_555
H6 C10 1_555 1_555
C11 C10 1_555 1_555
C12 N4 1_555 1_555
N5 Fe1 1_555 1_555
C13 N5 1_555 1_555
O1 C13 1_555 1_555
C14 C13 1_555 1_555
C15 C14 1_555 1_555
H7 C15 1_555 1_555
C16 C15 1_555 1_555
H8 C16 1_555 1_555
C17 C16 1_555 1_555
C18 C17 1_555 1_555
H9 C18 1_555 1_555
C19 C18 1_555 1_555
H10 C19 1_555 1_555
C20 C19 1_555 1_555
H11 C20 1_555 1_555
C21 C20 1_555 1_555
H12 C21 1_555 1_555
C22 C17 1_555 1_555
N6 Fe1 1_555 1_555
Mn1 O2 1_555 1_555
O2 C23 1_555 1_555
C23 C24 1_555 1_555
C24 H13 1_555 1_555
C25 C24 1_555 1_555
H14 C25 1_555 1_555
C26 C25 1_555 1_555
Cl1 C26 1_555 1_555
C27 C26 1_555 1_555
H15 C27 1_555 1_555
C28 C23 1_555 1_555
C29 C28 1_555 1_555
H16 C29 1_555 1_555
N7 Mn1 1_555 1_555
C30 N7 1_555 1_555
H17 C30 1_555 1_555
H18 C30 1_555 1_555
C31 C30 1_555 1_555
H19 C31 1_555 1_555
H20 C31 1_555 1_555
N8 Mn1 1_555 1_555
C32 N8 1_555 1_555
H21 C32 1_555 1_555
C33 C32 1_555 1_555
C34 C33 1_555 1_555
H22 C34 1_555 1_555
C35 C34 1_555 1_555
Cl2 C35 1_555 1_555
C36 C35 1_555 1_555
H23 C36 1_555 1_555
C37 C36 1_555 1_555
H24 C37 1_555 1_555
C38 C33 1_555 1_555
O3 Mn1 1_555 1_555
C39 H25 1_555 1_555
H26 C39 1_555 1_555
H27 C39 1_555 1_555
O4 H28 1_555 1_555
C40 O4 1_555 1_555
H29 C40 1_555 1_555
H30 C40 1_555 1_555
H31 C40 1_555 1_555
O5 C39 1_555 1_555
H32 O5 1_555 1_555
N2A Mn1 1_555 1_555
Mn1A N2 1_555 1_555
C7 C12 1_555 1_555
C11 C12 1_555 1_555
C11 N5 1_555 1_555
C14 N6 1_555 1_555
C21 C22 1_555 1_555
C22 N6 1_555 1_555
C27 C28 1_555 1_555
C29 N7 1_555 1_555
C31 N8 1_555 1_555
C37 C38 1_555 1_555
C38 O3 1_555 1_555

#END
