
#######################################################################
#
#                 Cambridge Crystallographic Data Centre
#                                CCDC 
#
#######################################################################
#
# If this CIF has been generated from an entry in the Cambridge 
# Structural Database, then it will include bibliographic, chemical, 
# crystal, experimental, refinement or atomic coordinate data resulting 
# from the CCDC's data processing and validation procedures.
#
#######################################################################

data_XOYHEZ
_symmetry_cell_setting           monoclinic
_symmetry_space_group_name_H-M   'P 21/c'
_symmetry_Int_Tables_number      14
_space_group_name_Hall           '-P 2ybc'
loop_
_symmetry_equiv_pos_site_id
_symmetry_equiv_pos_as_xyz
1 x,y,z
2 -x,1/2+y,1/2-z
3 -x,-y,-z
4 x,1/2-y,1/2+z
_cell_length_a                   10.0064(2)
_cell_length_b                   14.2657(3)
_cell_length_c                   26.9395(7)
_cell_angle_alpha                90
_cell_angle_beta                 90.805(2)
_cell_angle_gamma                90
_cell_volume                     3845.19
loop_
_atom_site_label
_atom_site_type_symbol
_atom_site_fract_x
_atom_site_fract_y
_atom_site_fract_z
Fe1 Fe 0.18860(9) 1.12172(6) 0.13879(3)
C1 C 0.0709(6) 1.1600(4) 0.1910(2)
N1 N -0.0041(5) 1.1860(3) 0.2206(2)
C2 C 0.1311(6) 0.9947(4) 0.1567(2)
N2 N 0.0989(5) 0.9220(4) 0.1708(2)
C3 C 0.2320(6) 1.2565(5) 0.1371(2)
N3 N 0.2525(5) 1.3349(4) 0.1371(2)
N4 N 0.0406(6) 1.1427(3) 0.0889(2)
C4 C -0.0819(6) 1.1772(4) 0.0938(3)
H1 H -0.1079 1.1945 0.1263
C5 C -0.1752(7) 1.1904(4) 0.0561(3)
H2 H -0.2600 1.2175 0.0625
C6 C -0.1407(7) 1.1628(4) 0.0085(3)
H3 H -0.2033 1.1684 -0.0181
C7 C -0.0091(6) 1.1256(4) 0.0000(2)
C8 C 0.0369(8) 1.0975(4) -0.0472(3)
H4 H -0.0204 1.1004 -0.0756
C9 C 0.1619(8) 1.0671(5) -0.0510(3)
H5 H 0.1923 1.0473 -0.0826
C10 C 0.2510(7) 1.0628(4) -0.0105(3)
H6 H 0.3397 1.0419 -0.0158
C11 C 0.2135(7) 1.0884(4) 0.0376(3)
C12 C 0.0758(7) 1.1201(4) 0.0426(3)
N5 N 0.2833(6) 1.0892(4) 0.0806(2)
C13 C 0.4165(7) 1.0826(5) 0.0839(3)
O1 O 0.4979(4) 1.0701(3) 0.05104(17)
C14 C 0.4636(7) 1.0917(4) 0.1381(3)
C15 C 0.6018(6) 1.0927(4) 0.1480(3)
H7 H 0.6642 1.0847 0.1221
C16 C 0.6439(8) 1.1055(5) 0.1962(3)
H8 H 0.7360 1.1126 0.2042
C17 C 0.5432(6) 1.1078(4) 0.2347(3)
C18 C 0.5795(8) 1.1132(5) 0.2848(3)
H9 H 0.6709 1.1199 0.2941
C19 C 0.4869(8) 1.1089(5) 0.3193(3)
H10 H 0.5124 1.1143 0.3533
C20 C 0.3503(7) 1.0965(4) 0.3064(3)
H11 H 0.2864 1.0901 0.3320
C21 C 0.3084(7) 1.0933(4) 0.2575(3)
H12 H 0.2165 1.0864 0.2490
C22 C 0.4090(7) 1.1010(4) 0.2192(3)
N6 N 0.3668(6) 1.0990(4) 0.1711(2)
Mn1 Mn -0.06203(9) 1.30007(6) 0.27578(4)
O2 O -0.1214(4) 1.2103(3) 0.32210(16)
C23 C -0.0659(6) 1.1897(4) 0.3662(2)
C24 C -0.1428(7) 1.1427(4) 0.4013(2)
H13 H -0.2316 1.1244 0.3930
C25 C -0.0925(7) 1.1229(5) 0.4470(3)
H14 H -0.1473 1.0925 0.4706
C26 C 0.0379(7) 1.1463(4) 0.4598(2)
Br1 Br 0.10425(8) 1.12770(5) 0.52632(3)
C27 C 0.1181(7) 1.1885(4) 0.4262(2)
H15 H 0.2087 1.2017 0.4345
C28 C 0.0669(6) 1.2128(4) 0.3791(3)
C29 C 0.1558(7) 1.2609(4) 0.3459(2)
H16 H 0.2463 1.2675 0.3565
N7 N 0.1241(5) 1.2951(3) 0.3037(2)
C30 C 0.2240(6) 1.3399(5) 0.2718(2)
H17 H 0.2556 1.2950 0.2466
H18 H 0.3017 1.3611 0.2920
C31 C 0.1564(6) 1.4231(5) 0.2469(3)
H19 H 0.1480 1.4756 0.2706
H20 H 0.2096 1.4447 0.2183
N8 N 0.0229(5) 1.3918(3) 0.2297(2)
C32 C -0.0241(6) 1.4172(4) 0.1876(2)
H21 H 0.0326 1.4529 0.1669
C33 C -0.1568(6) 1.3961(4) 0.1689(2)
C34 C -0.1917(6) 1.4314(4) 0.1220(3)
H22 H -0.1260 1.4602 0.1019
C35 C -0.3214(7) 1.4241(4) 0.1051(2)
Br2 Br -0.37100(8) 1.48160(6) 0.04387(3)
C36 C -0.4184(7) 1.3798(4) 0.1332(3)
H23 H -0.5076 1.3747 0.1210
C37 C -0.3834(6) 1.3438(4) 0.1788(3)
H24 H -0.4501 1.3136 0.1977
C38 C -0.2534(6) 1.3498(4) 0.1984(2)
O3 O -0.2292(4) 1.3151(3) 0.24320(16)
N2A N -0.0989(5) 1.4220(4) 0.3292(2)
Mn1A Mn 0.06203(9) 0.80007(6) 0.22422(4)
C39 C 0.4941(12) 0.7369(7) 0.0184(5)
H25 H 0.5493 0.7417 -0.0113
H26 H 0.4137 0.7002 0.0106
H27 H 0.5452 0.7058 0.0450
O4 O 0.4570(7) 0.8273(5) 0.0341(3)
H28 H 0.5050 0.8433 0.0585
C40 C 0.5688(8) 0.3480(6) 0.3427(4)
H29 H 0.6268 0.3994 0.3539
H30 H 0.5458 0.3566 0.3075
H31 H 0.6157 0.2882 0.3472
O5 O 0.4502(5) 0.3476(5) 0.3711(2)
H32 H 0.4622 0.3150 0.3967
loop_
_geom_bond_atom_site_label_1
_geom_bond_atom_site_label_2
_geom_bond_site_symmetry_1
_geom_bond_site_symmetry_2
Fe1 C1 1_555 1_555
C1 N1 1_555 1_555
N1 Mn1 1_555 1_555
C2 Fe1 1_555 1_555
N2 C2 1_555 1_555
C3 Fe1 1_555 1_555
N3 C3 1_555 1_555
N4 Fe1 1_555 1_555
C4 N4 1_555 1_555
H1 C4 1_555 1_555
C5 C4 1_555 1_555
H2 C5 1_555 1_555
C6 C5 1_555 1_555
H3 C6 1_555 1_555
C7 C6 1_555 1_555
C8 C7 1_555 1_555
H4 C8 1_555 1_555
C9 C8 1_555 1_555
H5 C9 1_555 1_555
C10 C9 1_555 1_555
H6 C10 1_555 1_555
C11 C10 1_555 1_555
C12 N4 1_555 1_555
N5 Fe1 1_555 1_555
C13 N5 1_555 1_555
O1 C13 1_555 1_555
C14 C13 1_555 1_555
C15 C14 1_555 1_555
H7 C15 1_555 1_555
C16 C15 1_555 1_555
H8 C16 1_555 1_555
C17 C16 1_555 1_555
C18 C17 1_555 1_555
H9 C18 1_555 1_555
C19 C18 1_555 1_555
H10 C19 1_555 1_555
C20 C19 1_555 1_555
H11 C20 1_555 1_555
C21 C20 1_555 1_555
H12 C21 1_555 1_555
C22 C17 1_555 1_555
N6 Fe1 1_555 1_555
Mn1 O2 1_555 1_555
O2 C23 1_555 1_555
C23 C24 1_555 1_555
C24 H13 1_555 1_555
C25 C24 1_555 1_555
H14 C25 1_555 1_555
C26 C25 1_555 1_555
Br1 C26 1_555 1_555
C27 C26 1_555 1_555
H15 C27 1_555 1_555
C28 C23 1_555 1_555
C29 C28 1_555 1_555
H16 C29 1_555 1_555
N7 Mn1 1_555 1_555
C30 N7 1_555 1_555
H17 C30 1_555 1_555
H18 C30 1_555 1_555
C31 C30 1_555 1_555
H19 C31 1_555 1_555
H20 C31 1_555 1_555
N8 Mn1 1_555 1_555
C32 N8 1_555 1_555
H21 C32 1_555 1_555
C33 C32 1_555 1_555
C34 C33 1_555 1_555
H22 C34 1_555 1_555
C35 C34 1_555 1_555
Br2 C35 1_555 1_555
C36 C35 1_555 1_555
H23 C36 1_555 1_555
C37 C36 1_555 1_555
H24 C37 1_555 1_555
C38 C33 1_555 1_555
O3 Mn1 1_555 1_555
C39 H25 1_555 1_555
H26 C39 1_555 1_555
H27 C39 1_555 1_555
O4 C39 1_555 1_555
H28 O4 1_555 1_555
C40 H29 1_555 1_555
H30 C40 1_555 1_555
H31 C40 1_555 1_555
O5 C40 1_555 1_555
H32 O5 1_555 1_555
N2A Mn1 1_555 1_555
Mn1A N2 1_555 1_555
C7 C12 1_555 1_555
C11 C12 1_555 1_555
C11 N5 1_555 1_555
C14 N6 1_555 1_555
C21 C22 1_555 1_555
C22 N6 1_555 1_555
C27 C28 1_555 1_555
C29 N7 1_555 1_555
C31 N8 1_555 1_555
C37 C38 1_555 1_555
C38 O3 1_555 1_555

#END
