
#######################################################################
#
#                 Cambridge Crystallographic Data Centre
#                                CCDC 
#
#######################################################################
#
# If this CIF has been generated from an entry in the Cambridge 
# Structural Database, then it will include bibliographic, chemical, 
# crystal, experimental, refinement or atomic coordinate data resulting 
# from the CCDC's data processing and validation procedures.
#
#######################################################################

data_XOYNUW
_symmetry_cell_setting           monoclinic
_symmetry_space_group_name_H-M   'P 21/c'
_symmetry_Int_Tables_number      14
_space_group_name_Hall           '-P 2ybc'
loop_
_symmetry_equiv_pos_site_id
_symmetry_equiv_pos_as_xyz
1 x,y,z
2 -x,1/2+y,1/2-z
3 -x,-y,-z
4 x,1/2-y,1/2+z
_cell_length_a                   16.236(5)
_cell_length_b                   10.705(5)
_cell_length_c                   21.821(5)
_cell_angle_alpha                90
_cell_angle_beta                 107.244(5)
_cell_angle_gamma                90
_cell_volume                     3622.15
loop_
_atom_site_label
_atom_site_type_symbol
_atom_site_fract_x
_atom_site_fract_y
_atom_site_fract_z
Ni1 Ni 0.241312(15) 0.12241(2) 0.251915(11)
Ni2 Ni 0.320614(16) -0.12342(2) 0.309339(12)
Ni3 Ni 0.134189(17) -0.06118(3) 0.163362(12)
C1 C 0.08085(15) -0.2664(2) 0.23067(12)
O1 O 0.16197(9) 0.12037(13) 0.15909(6)
O2 O 0.28822(9) -0.05089(13) 0.21990(7)
O3 O 0.31127(9) 0.05060(12) 0.33699(6)
N1 N 0.31763(12) -0.18403(17) 0.39602(9)
O4 O 0.15191(11) -0.01602(15) 0.25442(7)
N2 N 0.14352(12) -0.0917(2) 0.07458(9)
N3 N 0.11272(12) -0.24127(17) 0.18493(10)
C2 C 0.07494(13) -0.1851(2) 0.28199(10)
N4 N 0.41617(15) 0.3964(2) 0.20293(15)
N5 N 0.18383(11) 0.26442(17) 0.28561(9)
C3 C 0.18587(15) 0.3137(2) 0.11588(11)
H1 H 0.1876 0.3534 0.1541
N6 N 0.31439(12) -0.29448(16) 0.26829(9)
C4 C 0.16999(12) 0.1849(2) 0.10969(9)
N7 N 0.33494(12) 0.23583(17) 0.23942(9)
C5 C 0.11226(14) -0.0026(2) 0.34958(10)
H2 H 0.1393 0.0746 0.3589
C6 C 0.36225(15) 0.2227(2) 0.40527(10)
H3 H 0.3493 0.2768 0.3704
C7 C 0.16380(15) 0.1282(2) 0.04997(10)
C8 C 0.33520(13) -0.0841(2) 0.18147(9)
C9 C 0.36483(15) 0.0156(2) 0.44933(10)
C10 C 0.36125(14) -0.2103(2) 0.17997(10)
C11 C 0.11417(13) -0.0655(2) 0.29428(10)
C12 C 0.34530(13) 0.0951(2) 0.39498(9)
C13 C 0.03180(15) -0.2312(2) 0.32458(12)
H4 H 0.0043 -0.3083 0.3162
C14 C 0.34119(16) -0.3081(2) 0.21921(12)
C15 C 0.35707(15) 0.0013(2) 0.14104(10)
H5 H 0.3407 0.0844 0.1416
C16 C 0.34366(16) -0.1154(2) 0.44600(11)
C17 C 0.19902(17) 0.3824(3) 0.06619(13)
H6 H 0.2107 0.4674 0.0717
C18 C 0.41963(19) 0.1928(3) 0.51909(11)
H7 H 0.4453 0.2253 0.5598
C19 C 0.07966(19) -0.3051(3) 0.07127(13)
H8 H 0.0250 -0.2629 0.0652
H9 H 0.0688 -0.3794 0.0446
C20 C 0.15577(13) 0.3441(2) 0.30825(10)
C21 C 0.33361(19) -0.4070(2) 0.37077(14)
H10 H 0.3947 -0.3889 0.3811
H11 H 0.3277 -0.4897 0.3871
C22 C 0.37695(14) 0.3056(2) 0.22260(11)
C23 C 0.07100(15) -0.0527(2) 0.39077(11)
H12 H 0.0713 -0.0093 0.4278
C24 C 0.29568(19) -0.4084(2) 0.29902(13)
H13 H 0.3183 -0.4798 0.2819
H14 H 0.2337 -0.4185 0.2884
C25 C 0.15126(16) -0.0040(3) 0.03698(11)
C26 C 0.39768(17) 0.2697(2) 0.46592(11)
H15 H 0.4071 0.3553 0.4713
C27 C 0.40279(18) 0.0678(3) 0.51041(11)
H16 H 0.4169 0.0156 0.5461
C28 C 0.11433(18) -0.3442(2) 0.14052(13)
H17 H 0.0802 -0.4131 0.1485
H18 H 0.1732 -0.3733 0.1487
C29 C 0.1392(2) -0.2199(3) 0.04891(14)
H19 H 0.1967 -0.2555 0.0617
H20 H 0.1198 -0.2162 0.0024
C30 C 0.02914(16) -0.1664(3) 0.37787(12)
H21 H -0.0004 -0.1982 0.4050
C31 C 0.40261(18) -0.0355(3) 0.10012(12)
H22 H 0.4167 0.0232 0.0735
C32 C 0.17694(17) 0.2034(3) 0.00054(11)
H23 H 0.1729 0.1668 -0.0389
C33 C 0.29290(19) -0.3133(2) 0.40484(13)
H24 H 0.2306 -0.3208 0.3887
H25 H 0.3101 -0.3325 0.4503
C34 C 0.40731(18) -0.2441(3) 0.13745(13)
H26 H 0.4244 -0.3268 0.1362
C35 C 0.19515(19) 0.3268(3) 0.00841(13)
H27 H 0.2049 0.3735 -0.0247
C36 C 0.4277(2) -0.1585(3) 0.09786(14)
H28 H 0.4581 -0.1826 0.0698
C37 C 0.48753(14) 0.38278(19) 0.18912(11)
C38 C 0.06032(14) 0.44618(19) 0.34881(10)
N8 N 0.13254(14) 0.44213(19) 0.33470(12)
N9 N 0.54938(12) 0.38338(18) 0.17456(9)
N10 N -0.00055(13) 0.46172(18) 0.36395(10)
H29 H 0.3460(16) -0.155(2) 0.4864(12)
H30 H 0.3527(16) -0.395(2) 0.2075(12)
H31 H 0.1517(17) -0.030(2) -0.0047(13)
H32 H 0.0567(16) -0.346(2) 0.2317(11)
Ni2A Ni 0.679386(16) 0.37658(2) 0.190661(12)
Ni3A Ni -0.134189(17) 0.43882(3) 0.336638(12)
N9A N 0.45062(12) -0.11662(18) 0.32544(9)
N10A N 0.00055(13) -0.03828(18) 0.13605(10)
loop_
_geom_bond_atom_site_label_1
_geom_bond_atom_site_label_2
_geom_bond_site_symmetry_1
_geom_bond_site_symmetry_2
Ni1 O1 1_555 1_555
Ni2 O2 1_555 1_555
Ni3 O1 1_555 1_555
C1 N3 1_555 1_555
O1 C4 1_555 1_555
O2 Ni1 1_555 1_555
O3 Ni1 1_555 1_555
N1 Ni2 1_555 1_555
O4 Ni1 1_555 1_555
N2 Ni3 1_555 1_555
N3 Ni3 1_555 1_555
C2 C1 1_555 1_555
N4 C22 1_555 1_555
N5 Ni1 1_555 1_555
C3 H1 1_555 1_555
N6 Ni2 1_555 1_555
C4 C3 1_555 1_555
N7 Ni1 1_555 1_555
C5 H2 1_555 1_555
C6 H3 1_555 1_555
C7 C4 1_555 1_555
C8 O2 1_555 1_555
C9 C12 1_555 1_555
C10 C8 1_555 1_555
C11 O4 1_555 1_555
C12 O3 1_555 1_555
C13 C2 1_555 1_555
H4 C13 1_555 1_555
C14 N6 1_555 1_555
C15 C8 1_555 1_555
H5 C15 1_555 1_555
C16 N1 1_555 1_555
C17 C3 1_555 1_555
H6 C17 1_555 1_555
C18 H7 1_555 1_555
C19 H8 1_555 1_555
H9 C19 1_555 1_555
C20 N5 1_555 1_555
C21 H10 1_555 1_555
H11 C21 1_555 1_555
C22 N7 1_555 1_555
C23 C5 1_555 1_555
H12 C23 1_555 1_555
C24 N6 1_555 1_555
H13 C24 1_555 1_555
H14 C24 1_555 1_555
C25 N2 1_555 1_555
C26 C6 1_555 1_555
H15 C26 1_555 1_555
C27 C9 1_555 1_555
H16 C27 1_555 1_555
C28 N3 1_555 1_555
H17 C28 1_555 1_555
H18 C28 1_555 1_555
C29 N2 1_555 1_555
H19 C29 1_555 1_555
H20 C29 1_555 1_555
C30 C13 1_555 1_555
H21 C30 1_555 1_555
C31 C15 1_555 1_555
H22 C31 1_555 1_555
C32 C7 1_555 1_555
H23 C32 1_555 1_555
C33 N1 1_555 1_555
H24 C33 1_555 1_555
H25 C33 1_555 1_555
C34 C10 1_555 1_555
H26 C34 1_555 1_555
C35 C17 1_555 1_555
H27 C35 1_555 1_555
C36 C31 1_555 1_555
H28 C36 1_555 1_555
C37 N4 1_555 1_555
C38 N8 1_555 1_555
N8 C20 1_555 1_555
N9 C37 1_555 1_555
N10 C38 1_555 1_555
H29 C16 1_555 1_555
H30 C14 1_555 1_555
H31 C25 1_555 1_555
H32 C1 1_555 1_555
Ni2A N9 1_555 1_555
Ni3A N10 1_555 1_555
N9A Ni2 1_555 1_555
N10A Ni3 1_555 1_555
Ni2 O3 1_555 1_555
Ni3 O2 1_555 1_555
Ni3 O4 1_555 1_555
C2 C11 1_555 1_555
C5 C11 1_555 1_555
C6 C12 1_555 1_555
C7 C25 1_555 1_555
C9 C16 1_555 1_555
C10 C14 1_555 1_555
C18 C26 1_555 1_555
C18 C27 1_555 1_555
C19 C28 1_555 1_555
C19 C29 1_555 1_555
C21 C24 1_555 1_555
C21 C33 1_555 1_555
C23 C30 1_555 1_555
C32 C35 1_555 1_555
C34 C36 1_555 1_555

#END
