
#######################################################################
#
#                 Cambridge Crystallographic Data Centre
#                                CCDC 
#
#######################################################################
#
# If this CIF has been generated from an entry in the Cambridge 
# Structural Database, then it will include bibliographic, chemical, 
# crystal, experimental, refinement or atomic coordinate data resulting 
# from the CCDC's data processing and validation procedures.
#
#######################################################################

data_XOYPAE
_symmetry_cell_setting           orthorhombic
_symmetry_space_group_name_H-M   'P b c n'
_symmetry_Int_Tables_number      60
_space_group_name_Hall           '-P 2n 2ab'
loop_
_symmetry_equiv_pos_site_id
_symmetry_equiv_pos_as_xyz
1 x,y,z
2 1/2-x,1/2-y,1/2+z
3 1/2+x,1/2-y,-z
4 -x,y,1/2-z
5 -x,-y,-z
6 1/2+x,1/2+y,1/2-z
7 1/2-x,1/2+y,z
8 x,-y,1/2+z
_cell_length_a                   14.9315(7)
_cell_length_b                   19.8367(9)
_cell_length_c                   12.5335(6)
_cell_angle_alpha                90
_cell_angle_beta                 90
_cell_angle_gamma                90
_cell_volume                     3712.32
loop_
_atom_site_label
_atom_site_type_symbol
_atom_site_fract_x
_atom_site_fract_y
_atom_site_fract_z
Zn1 Zn 0.0000 0.225280(17) 0.7500
Ni1 Ni -0.086819(18) 0.224238(14) 0.96726(2)
O1 O 0.00215(10) 0.17060(8) 0.87890(12)
O2 O -0.09463(10) 0.27461(7) 0.82414(12)
N1 N -0.07174(13) 0.15960(10) 1.09047(15)
N2 N -0.16881(14) 0.29253(11) 1.03622(16)
N3 N -0.35971(14) 0.13996(11) 0.9170(2)
C1 C 0.10768(14) 0.08703(12) 0.8309(2)
H1 H 0.1107 0.1045 0.7621
C2 C 0.05133(13) 0.11749(11) 0.90625(18)
C3 C 0.04702(14) 0.08997(11) 1.01011(19)
N4 N -0.20003(13) 0.16622(11) 0.91732(16)
C4 C -0.27546(16) 0.15677(11) 0.91888(18)
C5 C -0.14738(16) 0.37888(12) 0.8982(2)
C6 C 0.15854(16) 0.03174(13) 0.8573(2)
H2 H 0.1950 0.0119 0.8059
C7 C 0.10102(16) 0.03388(13) 1.0337(2)
H3 H 0.0992 0.0157 1.1020
C8 C -0.01595(16) 0.11135(13) 1.09274(19)
C9 C -0.10151(15) 0.37129(12) 0.7146(2)
H4 H -0.0854 0.3452 0.6561
C10 C -0.11209(17) 0.43969(14) 0.7014(2)
H5 H -0.1022 0.4593 0.6351
C11 C 0.15621(16) 0.00521(13) 0.9593(2)
H6 H 0.1917 -0.0316 0.9771
C12 C -0.11420(14) 0.34002(11) 0.81271(19)
C13 C -0.15602(19) 0.44878(14) 0.8818(3)
H7 H -0.1753 0.4754 0.9384
C14 C -0.13562(18) 0.16421(15) 1.1796(2)
H8 H -0.1115 0.1398 1.2402
H9 H -0.1911 0.1424 1.1590
C15 C -0.1557(2) 0.23486(15) 1.2131(2)
H10 H -0.0992 0.2582 1.2232
H11 H -0.1853 0.2332 1.2819
C16 C -0.13751(19) 0.47924(14) 0.7873(3)
H12 H -0.1418 0.5258 0.7804
C17 C -0.2126(2) 0.27640(16) 1.1389(2)
H13 H -0.2677 0.2521 1.1246
H14 H -0.2284 0.3182 1.1744
C18 C -0.17701(19) 0.35216(15) 1.0007(2)
C19 C -0.42035(15) 0.18257(12) 0.95044(19)
N5 N -0.47817(14) 0.21589(11) 0.97908(18)
H15 H -0.0139(14) 0.0825(12) 1.1519(19)
H16 H -0.2076(18) 0.3841(14) 1.040(2)
Ni1C Ni 0.086819(18) 0.224238(14) 0.53274(2)
O1C O -0.00215(10) 0.17060(8) 0.62110(12)
O2C O 0.09463(10) 0.27461(7) 0.67586(12)
N1C N 0.07174(13) 0.15960(10) 0.40953(15)
N2C N 0.16881(14) 0.29253(11) 0.46378(16)
N3C N 0.35971(14) 0.13996(11) 0.5830(2)
C1C C -0.10768(14) 0.08703(12) 0.6691(2)
H1C H -0.1107 0.1045 0.7379
C2C C -0.05133(13) 0.11749(11) 0.59375(18)
C3C C -0.04702(14) 0.08997(11) 0.48989(19)
N4C N 0.20003(13) 0.16622(11) 0.58268(16)
C4C C 0.27546(16) 0.15677(11) 0.58112(18)
C5C C 0.14738(16) 0.37888(12) 0.6018(2)
C6C C -0.15854(16) 0.03174(13) 0.6427(2)
H2C H -0.1950 0.0119 0.6941
C7C C -0.10102(16) 0.03388(13) 0.4663(2)
H3C H -0.0992 0.0157 0.3980
C8C C 0.01595(16) 0.11135(13) 0.40726(19)
C9C C 0.10151(15) 0.37129(12) 0.7854(2)
H4C H 0.0854 0.3452 0.8439
C10C C 0.11209(17) 0.43969(14) 0.7986(2)
H5C H 0.1022 0.4593 0.8649
C11C C -0.15621(16) 0.00521(13) 0.5407(2)
H6C H -0.1917 -0.0316 0.5229
C12C C 0.11420(14) 0.34002(11) 0.68729(19)
C13C C 0.15602(19) 0.44878(14) 0.6182(3)
H7C H 0.1753 0.4754 0.5616
C14C C 0.13562(18) 0.16421(15) 0.3204(2)
H8C H 0.1115 0.1398 0.2598
H9C H 0.1911 0.1424 0.3410
C15C C 0.1557(2) 0.23486(15) 0.2869(2)
H10C H 0.0992 0.2582 0.2768
H11C H 0.1853 0.2332 0.2181
C16C C 0.13751(19) 0.47924(14) 0.7127(3)
H12C H 0.1418 0.5258 0.7196
C17C C 0.2126(2) 0.27640(16) 0.3611(2)
H13C H 0.2677 0.2521 0.3754
H14C H 0.2284 0.3182 0.3256
C18C C 0.17701(19) 0.35216(15) 0.4993(2)
C19C C 0.42035(15) 0.18257(12) 0.54956(19)
N5C N 0.47817(14) 0.21589(11) 0.52092(18)
H15C H 0.0139(14) 0.0825(12) 0.3481(19)
H16C H 0.2076(18) 0.3841(14) 0.460(2)
Ni1A Ni 0.586819(18) 0.275762(14) 0.46726(2)
Ni1B Ni -0.586819(18) 0.275762(14) 1.03274(2)
N5A N -0.02183(14) 0.28411(11) 0.47908(18)
N5B N 0.02183(14) 0.28411(11) 1.02092(18)
loop_
_geom_bond_atom_site_label_1
_geom_bond_atom_site_label_2
_geom_bond_site_symmetry_1
_geom_bond_site_symmetry_2
Zn1 O1 1_555 1_555
Ni1 O1 1_555 1_555
O1 C2 1_555 1_555
O2 Zn1 1_555 1_555
N1 Ni1 1_555 1_555
N2 Ni1 1_555 1_555
N3 C4 1_555 1_555
C1 H1 1_555 1_555
C2 C1 1_555 1_555
C3 C2 1_555 1_555
N4 Ni1 1_555 1_555
C4 N4 1_555 1_555
C5 C12 1_555 1_555
C6 C1 1_555 1_555
H2 C6 1_555 1_555
C7 C3 1_555 1_555
H3 C7 1_555 1_555
C8 N1 1_555 1_555
C9 H4 1_555 1_555
C10 C9 1_555 1_555
H5 C10 1_555 1_555
C11 C6 1_555 1_555
H6 C11 1_555 1_555
C12 O2 1_555 1_555
C13 C5 1_555 1_555
H7 C13 1_555 1_555
C14 N1 1_555 1_555
H8 C14 1_555 1_555
H9 C14 1_555 1_555
C15 C14 1_555 1_555
H10 C15 1_555 1_555
H11 C15 1_555 1_555
C16 C10 1_555 1_555
H12 C16 1_555 1_555
C17 N2 1_555 1_555
H13 C17 1_555 1_555
H14 C17 1_555 1_555
C18 N2 1_555 1_555
C19 N3 1_555 1_555
N5 C19 1_555 1_555
H15 C8 1_555 1_555
H16 C18 1_555 1_555
Ni1C O1C 1_555 1_555
O1C Zn1 1_555 1_555
O2C Zn1 1_555 1_555
N1C Ni1C 1_555 1_555
N2C Ni1C 1_555 1_555
N3C C4C 1_555 1_555
C1C H1C 1_555 1_555
C2C O1C 1_555 1_555
C3C C2C 1_555 1_555
N4C Ni1C 1_555 1_555
C4C N4C 1_555 1_555
C5C C12C 1_555 1_555
C6C C1C 1_555 1_555
H2C C6C 1_555 1_555
C7C C3C 1_555 1_555
H3C C7C 1_555 1_555
C8C N1C 1_555 1_555
C9C H4C 1_555 1_555
C10C C9C 1_555 1_555
H5C C10C 1_555 1_555
C11C C6C 1_555 1_555
H6C C11C 1_555 1_555
C12C O2C 1_555 1_555
C13C C5C 1_555 1_555
H7C C13C 1_555 1_555
C14C N1C 1_555 1_555
H8C C14C 1_555 1_555
H9C C14C 1_555 1_555
C15C C14C 1_555 1_555
H10C C15C 1_555 1_555
H11C C15C 1_555 1_555
C16C C10C 1_555 1_555
H12C C16C 1_555 1_555
C17C N2C 1_555 1_555
H13C C17C 1_555 1_555
H14C C17C 1_555 1_555
C18C N2C 1_555 1_555
C19C N3C 1_555 1_555
N5C C19C 1_555 1_555
H15C C8C 1_555 1_555
H16C C18C 1_555 1_555
Ni1A N5C 1_555 1_555
Ni1B N5 1_555 1_555
N5A Ni1C 1_555 1_555
N5B Ni1 1_555 1_555
Ni1 O2 1_555 1_555
C3 C8 1_555 1_555
C5 C18 1_555 1_555
C7 C11 1_555 1_555
C9 C12 1_555 1_555
C13 C16 1_555 1_555
C15 C17 1_555 1_555
Ni1C O2C 1_555 1_555
C1C C2C 1_555 1_555
C3C C8C 1_555 1_555
C5C C18C 1_555 1_555
C7C C11C 1_555 1_555
C9C C12C 1_555 1_555
C13C C16C 1_555 1_555
C15C C17C 1_555 1_555

#END
