
#######################################################################
#
#                 Cambridge Crystallographic Data Centre
#                                CCDC 
#
#######################################################################
#
# If this CIF has been generated from an entry in the Cambridge 
# Structural Database, then it will include bibliographic, chemical, 
# crystal, experimental, refinement or atomic coordinate data resulting 
# from the CCDC's data processing and validation procedures.
#
#######################################################################

data_XOYQUZ
_symmetry_cell_setting           monoclinic
_symmetry_space_group_name_H-M   'C 2/c'
_symmetry_Int_Tables_number      15
_space_group_name_Hall           '-C 2yn'
loop_
_symmetry_equiv_pos_site_id
_symmetry_equiv_pos_as_xyz
1 x,y,z
2 -x,y,1/2-z
3 1/2+x,1/2+y,z
4 1/2-x,1/2+y,1/2-z
5 -x,-y,-z
6 x,-y,1/2+z
7 1/2-x,1/2-y,-z
8 1/2+x,1/2-y,1/2+z
_cell_length_a                   18.484(4)
_cell_length_b                   54.534(11)
_cell_length_c                   18.076(4)
_cell_angle_alpha                90
_cell_angle_beta                 103.40(3)
_cell_angle_gamma                90
_cell_volume                     17724.7
loop_
_atom_site_label
_atom_site_type_symbol
_atom_site_fract_x
_atom_site_fract_y
_atom_site_fract_z
Mo1 Mo -0.06623(7) 0.31979(3) 0.84434(6)
Mo2 Mo 0.0000 0.36286(4) 0.7500
Mo3 Mo -0.10986(6) 0.32006(3) 0.65886(6)
Mo4 Mo 0.0000 0.27693(3) 0.7500
O11 O 0.0000 0.2459(2) 0.7500
O12 O -0.0508(5) 0.28547(16) 0.8280(4)
O13 O -0.0891(5) 0.28478(18) 0.6781(5)
O14 O 0.0000 0.32006(19) 0.7500
O15 O -0.1412(4) 0.32023(16) 0.7542(5)
O16 O -0.0901(5) 0.3547(2) 0.6794(5)
O17 O -0.1909(5) 0.3205(2) 0.5921(5)
O18 O 0.0000 0.3914(2) 0.7500
O19 O -0.0513(6) 0.35418(18) 0.8275(5)
O20 O -0.1116(6) 0.3199(2) 0.9163(5)
O21 O 0.0351(5) 0.32017(18) 0.8999(4)
Mo1A Mo 0.06623(7) 0.31979(3) 0.65566(6)
Mo3A Mo 0.10986(6) 0.32006(3) 0.84114(6)
O12A O 0.0508(5) 0.28547(16) 0.6720(4)
O13A O 0.0891(5) 0.28478(18) 0.8219(5)
O15A O 0.1412(4) 0.32023(16) 0.7458(5)
O16A O 0.0901(5) 0.3547(2) 0.8206(5)
O17A O 0.1909(5) 0.3205(2) 0.9079(5)
O19A O 0.0513(6) 0.35418(18) 0.6725(5)
O20A O 0.1116(6) 0.3199(2) 0.5837(5)
O21A O -0.0351(5) 0.32017(18) 0.6001(4)
Mo5 Mo 0.0000 0.10051(3) 0.2500
Mo6 Mo 0.06989(7) 0.058145(19) 0.15754(5)
Mo7 Mo 0.0000 0.01556(2) 0.2500
Mo8 Mo 0.10815(7) 0.05793(2) 0.34428(6)
O22 O 0.0000 0.1339(4) 0.2500
O23 O 0.0886(7) 0.09237(16) 0.3255(4)
O24 O 0.1895(7) 0.0570(2) 0.4116(5)
O25 O 0.0888(4) 0.02347(14) 0.3254(4)
O26 O 0.1445(5) 0.05783(16) 0.2497(5)
O27 O 0.0000 0.05790(16) 0.2500
O28 O 0.0551(7) 0.09298(14) 0.1745(4)
O29 O -0.0320(5) 0.05744(14) 0.0999(4)
O30 O 0.1183(6) 0.05807(15) 0.0887(5)
O31 O 0.0556(4) 0.02398(12) 0.1747(4)
O32 O 0.0000 -0.01606(16) 0.2500
Mo6A Mo -0.06989(7) 0.058145(19) 0.34246(5)
Mo8A Mo -0.10815(7) 0.05793(2) 0.15572(6)
O23A O -0.0886(7) 0.09237(16) 0.1745(4)
O24A O -0.1895(7) 0.0570(2) 0.0884(5)
O25A O -0.0888(4) 0.02347(14) 0.1746(4)
O26A O -0.1445(5) 0.05783(16) 0.2503(5)
O28A O -0.0551(7) 0.09298(14) 0.3255(4)
O29A O 0.0320(5) 0.05744(14) 0.4001(4)
O30A O -0.1183(6) 0.05807(15) 0.4113(5)
O31A O -0.0556(4) 0.02398(12) 0.3253(4)
Zn1 Zn 0.24831(4) 0.125223(12) 0.75291(4)
N1 N 0.2012(3) 0.15605(11) 0.8059(3)
N2 N 0.0917(4) 0.21128(13) 0.9024(4)
N3 N -0.1997(3) 0.34859(11) 1.1947(3)
N4 N -0.0868(3) 0.29847(13) 1.0850(4)
N5 N 0.1976(3) 0.09727(10) 0.8077(3)
N6 N 0.0912(3) 0.04345(11) 0.9096(4)
N7 N 0.0645(5) 0.1170(2) 0.5553(6)
N8 N 0.4418(5) 0.12223(19) 0.9437(6)
C1 C 0.1525(4) 0.17175(14) 0.7620(4)
H1 H 0.1431 0.1700 0.7084
C2 C 0.1162(4) 0.18989(15) 0.7905(5)
H2 H 0.0822 0.2005 0.7582
C3 C 0.1317(4) 0.19217(15) 0.8705(5)
C4 C 0.1836(5) 0.17755(17) 0.9161(5)
H3 H 0.1963 0.1797 0.9698
C5 C 0.2162(5) 0.16005(16) 0.8823(5)
H4 H 0.2520 0.1498 0.9140
C6 C 0.1312(4) 0.23255(16) 0.9327(5)
C7 C 0.0191(4) 0.20683(18) 0.9056(5)
C8 C 0.0948(4) 0.25005(16) 0.9709(5)
C9 C 0.1315(4) 0.27040(18) 1.0040(6)
H5 H 0.1821 0.2726 1.0026
C10 C 0.0965(4) 0.28813(17) 1.0399(6)
H6 H 0.1224 0.3026 1.0600
C11 C 0.0234(4) 0.28434(16) 1.0458(5)
C12 C -0.0164(4) 0.26381(15) 1.0103(5)
C13 C 0.0192(4) 0.24661(16) 0.9731(5)
C14 C -0.0201(4) 0.22546(19) 0.9409(6)
C15 C -0.0941(6) 0.2223(2) 0.9434(9)
H7 H -0.1207 0.2083 0.9209
C16 C -0.1284(6) 0.2395(3) 0.9781(8)
H8 H -0.1795 0.2376 0.9781
C17 C -0.0897(5) 0.2600(2) 1.0138(6)
C18 C -0.1318(5) 0.2781(2) 1.0512(6)
C19 C -0.0114(5) 0.30323(17) 1.0830(5)
C20 C -0.1105(4) 0.31651(15) 1.2013(5)
H9 H -0.0746 0.3059 1.2315
C21 C -0.1495(5) 0.33277(14) 1.2340(4)
H10 H -0.1408 0.3329 1.2879
C22 C -0.2107(5) 0.34816(19) 1.1191(5)
H11 H -0.2446 0.3596 1.0904
C23 C -0.1749(5) 0.33177(19) 1.0797(5)
H12 H -0.1850 0.3316 1.0257
C24 C -0.1245(5) 0.31588(17) 1.1229(5)
C25 C 0.2096(5) 0.09527(15) 0.8837(5)
H13 H 0.2419 0.1067 0.9146
C26 C 0.1770(5) 0.07729(16) 0.9185(5)
H14 H 0.1887 0.0758 0.9723
C27 C 0.1276(4) 0.06161(13) 0.8745(4)
C28 C 0.1154(5) 0.06313(15) 0.7966(5)
H15 H 0.0832 0.0518 0.7649
C29 C 0.1504(4) 0.08127(13) 0.7655(4)
H16 H 0.1409 0.0825 0.7117
C30 C 0.1353(5) 0.02400(16) 0.9495(5)
C31 C 0.0955(4) 0.00565(13) 0.9869(4)
C32 C 0.0182(4) 0.00880(14) 0.9822(4)
C33 C -0.0231(5) 0.02859(14) 0.9436(4)
C34 C 0.0125(4) 0.04712(13) 0.9051(4)
C35 C -0.0976(5) 0.03027(15) 0.9382(6)
H17 H -0.1253 0.0432 0.9097
C36 C 0.1334(3) -0.01313(8) 1.0257(3)
H18 H 0.1851 -0.0147 1.0285
N9 N 0.2976(3) 0.09597(8) 0.7004(3)
C37 C 0.3492(3) 0.08183(8) 0.7395(3)
H19 H 0.3642 0.0832 0.7933
C38 C 0.3828(17) 0.0641(6) 0.6995(19)
H20 H 0.4170 0.0529 0.7292
C39 C 0.3710(15) 0.0620(5) 0.6287(16)
C40 C 0.3142(16) 0.0778(5) 0.5755(18)
H21 H 0.3026 0.0762 0.5217
C41 C 0.285(2) 0.0929(7) 0.609(2)
H22 H 0.2509 0.1040 0.5790
N10 N 0.4086(8) 0.0438(3) 0.5911(9)
C42 C 0.4818(8) 0.0478(3) 0.5870(10)
C43 C 0.5190(7) 0.0302(3) 0.5540(11)
C44 C 0.4829(9) 0.0087(3) 0.5251(10)
C45 C 0.4097(9) 0.0048(3) 0.5291(11)
C46 C 0.3725(7) 0.0223(3) 0.5622(11)
C47 C 0.376(2) -0.0191(8) 0.504(2)
H23 H 0.3354 -0.0246 0.5238
C48 C 0.5975(19) 0.0346(7) 0.550(2)
H24 H 0.6280 0.0466 0.5798
C49 C 0.4037(6) 0.12273(15) 0.8745(6)
C50 C 0.4589(6) 0.1191(3) 0.8235(7)
H25 H 0.4386 0.1075 0.7815
H26 H 0.4702 0.1349 0.8017
C51 C 0.5286(19) 0.1084(6) 0.8768(18)
H27 H 0.5747 0.1140 0.8629
H28 H 0.5275 0.0903 0.8778
C52 C 0.5207(7) 0.1197(3) 0.9543(9)
H29 H 0.5415 0.1086 0.9973
H30 H 0.5459 0.1358 0.9635
C53 C 0.4112(10) 0.1284(3) 1.0059(8)
H31 H 0.3820 0.1435 0.9945
H32 H 0.4514 0.1309 1.0513
H33 H 0.3789 0.1150 1.0152
C54 C 0.0900(5) 0.12370(13) 0.6228(5)
C55 C 0.0280(7) 0.1283(2) 0.6623(11)
H34 H 0.0258 0.1153 0.6998
H35 H 0.0342 0.1444 0.6885
C56 C -0.0401(12) 0.1281(4) 0.5982(13)
H36 H -0.0804 0.1187 0.6130
H37 H -0.0578 0.1450 0.5853
C57 C -0.0203(8) 0.1167(4) 0.5338(9)
H38 H -0.0397 0.1262 0.4867
H39 H -0.0395 0.0997 0.5265
C58 C 0.1108(10) 0.1074(4) 0.5063(9)
H40 H 0.1477 0.1198 0.5009
H41 H 0.0795 0.1035 0.4562
H42 H 0.1365 0.0926 0.5291
O1 O 0.1954(4) 0.23435(13) 0.9255(5)
O2 O -0.0132(3) 0.18833(13) 0.8742(4)
O3 O -0.1943(4) 0.27649(16) 1.0537(5)
O4 O 0.0176(3) 0.32109(11) 1.1148(3)
O5 O 0.3107(15) 0.0192(5) 0.5754(17)
O6 O 0.5140(10) 0.0666(5) 0.6203(13)
O7 O -0.0167(3) 0.06480(10) 0.8721(3)
O8 O 0.2000(3) 0.02341(11) 0.9514(4)
O9 O 0.3375(3) 0.12581(8) 0.8525(3)
O10 O 0.1565(3) 0.12530(9) 0.6541(3)
N5D N -0.1976(3) -0.09727(10) 1.1923(3)
N6D N -0.0912(3) -0.04345(11) 1.0904(4)
C25D C -0.2096(5) -0.09527(15) 1.1163(5)
H13D H -0.2419 -0.1067 1.0854
C26D C -0.1770(5) -0.07729(16) 1.0815(5)
H14D H -0.1887 -0.0758 1.0277
C27D C -0.1276(4) -0.06161(13) 1.1255(4)
C28D C -0.1154(5) -0.06313(15) 1.2034(5)
H15D H -0.0832 -0.0518 1.2351
C29D C -0.1504(4) -0.08127(13) 1.2345(4)
H16D H -0.1409 -0.0825 1.2883
C30D C -0.1353(5) -0.02400(16) 1.0505(5)
C31D C -0.0955(4) -0.00565(13) 1.0131(4)
C32D C -0.0182(4) -0.00880(14) 1.0178(4)
C33D C 0.0231(5) -0.02859(14) 1.0564(4)
C34D C -0.0125(4) -0.04712(13) 1.0949(4)
C35D C 0.0976(5) -0.03027(15) 1.0618(6)
H17D H 0.1253 -0.0432 1.0903
C36D C -0.1334(3) 0.01313(8) 0.9743(3)
H18D H -0.1851 0.0147 0.9715
O7D O 0.0167(3) -0.06480(10) 1.1279(3)
O8D O -0.2000(3) -0.02341(11) 1.0486(4)
N9D N 0.7024(3) -0.09597(8) 0.2996(3)
C37D C 0.6508(3) -0.08183(8) 0.2605(3)
H19D H 0.6358 -0.0832 0.2067
C38D C 0.6172(17) -0.0641(6) 0.3005(19)
H20D H 0.5830 -0.0529 0.2708
C39D C 0.6290(15) -0.0620(5) 0.3713(16)
C40D C 0.6858(16) -0.0778(5) 0.4245(18)
H21D H 0.6974 -0.0762 0.4783
C41D C 0.715(2) -0.0929(7) 0.391(2)
H22D H 0.7491 -0.1040 0.4210
N10D N 0.5914(8) -0.0438(3) 0.4089(9)
C42D C 0.5182(8) -0.0478(3) 0.4130(10)
C43D C 0.4810(7) -0.0302(3) 0.4460(11)
C44D C 0.5171(9) -0.0087(3) 0.4749(10)
C45D C 0.5903(9) -0.0048(3) 0.4709(11)
C46D C 0.6275(7) -0.0223(3) 0.4378(11)
C47D C 0.624(2) 0.0191(8) 0.496(2)
H23D H 0.6646 0.0246 0.4762
C48D C 0.4025(19) -0.0346(7) 0.450(2)
H24D H 0.3720 -0.0466 0.4202
O5D O 0.6893(15) -0.0192(5) 0.4246(17)
O6D O 0.4860(10) -0.0666(5) 0.3797(13)
Zn1D Zn -0.24831(4) -0.125223(12) 1.24709(4)
N1D N -0.2012(3) -0.15605(11) 1.1941(3)
N2D N -0.0917(4) -0.21128(13) 1.0976(4)
N3D N 0.1997(3) -0.34859(11) 0.8053(3)
N4D N 0.0868(3) -0.29847(13) 0.9150(4)
N7D N -0.0645(5) -0.1170(2) 1.4447(6)
N8D N -0.4418(5) -0.12223(19) 1.0563(6)
C1D C -0.1525(4) -0.17175(14) 1.2380(4)
H1D H -0.1431 -0.1700 1.2916
C2D C -0.1162(4) -0.18989(15) 1.2095(5)
H2D H -0.0822 -0.2005 1.2418
C3D C -0.1317(4) -0.19217(15) 1.1295(5)
C4D C -0.1836(5) -0.17755(17) 1.0839(5)
H3D H -0.1963 -0.1797 1.0302
C5D C -0.2162(5) -0.16005(16) 1.1177(5)
H4D H -0.2520 -0.1498 1.0860
C6D C -0.1312(4) -0.23255(16) 1.0673(5)
C7D C -0.0191(4) -0.20683(18) 1.0944(5)
C8D C -0.0948(4) -0.25005(16) 1.0291(5)
C9D C -0.1315(4) -0.27040(18) 0.9960(6)
H5D H -0.1821 -0.2726 0.9974
C10D C -0.0965(4) -0.28813(17) 0.9601(6)
H6D H -0.1224 -0.3026 0.9400
C11D C -0.0234(4) -0.28434(16) 0.9542(5)
C12D C 0.0164(4) -0.26381(15) 0.9897(5)
C13D C -0.0192(4) -0.24661(16) 1.0269(5)
C14D C 0.0201(4) -0.22546(19) 1.0591(6)
C15D C 0.0941(6) -0.2223(2) 1.0566(9)
H7D H 0.1207 -0.2083 1.0791
C16D C 0.1284(6) -0.2395(3) 1.0219(8)
H8D H 0.1795 -0.2376 1.0219
C17D C 0.0897(5) -0.2600(2) 0.9862(6)
C18D C 0.1318(5) -0.2781(2) 0.9488(6)
C19D C 0.0114(5) -0.30323(17) 0.9170(5)
C20D C 0.1105(4) -0.31651(15) 0.7987(5)
H9D H 0.0746 -0.3059 0.7685
C21D C 0.1495(5) -0.33277(14) 0.7660(4)
H10D H 0.1408 -0.3329 0.7121
C22D C 0.2107(5) -0.34816(19) 0.8809(5)
H11D H 0.2446 -0.3596 0.9096
C23D C 0.1749(5) -0.33177(19) 0.9203(5)
H12D H 0.1850 -0.3316 0.9743
C24D C 0.1245(5) -0.31588(17) 0.8771(5)
C49D C -0.4037(6) -0.12273(15) 1.1255(6)
C50D C -0.4589(6) -0.1191(3) 1.1765(7)
H25D H -0.4386 -0.1075 1.2185
H26D H -0.4702 -0.1349 1.1983
C51D C -0.5286(19) -0.1084(6) 1.1232(18)
H27D H -0.5747 -0.1140 1.1371
H28D H -0.5275 -0.0903 1.1222
C52D C -0.5207(7) -0.1197(3) 1.0457(9)
H29D H -0.5415 -0.1086 1.0027
H30D H -0.5459 -0.1358 1.0365
C53D C -0.4112(10) -0.1284(3) 0.9941(8)
H31D H -0.3820 -0.1435 1.0055
H32D H -0.4514 -0.1309 0.9487
H33D H -0.3789 -0.1150 0.9848
C54D C -0.0900(5) -0.12370(13) 1.3772(5)
C55D C -0.0280(7) -0.1283(2) 1.3377(11)
H34D H -0.0258 -0.1153 1.3002
H35D H -0.0342 -0.1444 1.3115
C56D C 0.0401(12) -0.1281(4) 1.4018(13)
H36D H 0.0804 -0.1187 1.3870
H37D H 0.0578 -0.1450 1.4147
C57D C 0.0203(8) -0.1167(4) 1.4662(9)
H38D H 0.0397 -0.1262 1.5133
H39D H 0.0395 -0.0997 1.4735
C58D C -0.1108(10) -0.1074(4) 1.4937(9)
H40D H -0.1477 -0.1198 1.4991
H41D H -0.0795 -0.1035 1.5438
H42D H -0.1365 -0.0926 1.4709
O1D O -0.1954(4) -0.23435(13) 1.0745(5)
O2D O 0.0132(3) -0.18833(13) 1.1258(4)
O3D O 0.1943(4) -0.27649(16) 0.9463(5)
O4D O -0.0176(3) -0.32109(11) 0.8852(3)
O9D O -0.3375(3) -0.12581(8) 1.1475(3)
O10D O -0.1565(3) -0.12530(9) 1.3459(3)
Zn1C Zn 0.25169(4) -0.374777(12) 0.74709(4)
Zn1D_2 Zn 0.75169(4) -0.125223(12) 0.24709(4)
Zn1G Zn -0.25169(4) 0.374777(12) 1.25291(4)
N3C N -0.3003(3) -0.15141(11) 1.3053(3)
N3G N 0.3003(3) 0.15141(11) 0.6947(3)
N9D_2 N -0.2976(3) -0.09597(8) 1.2996(3)
O33? O 0.2976(3) 0.09597(8) 0.7004(3)
C59? C 0.534(2) 0.1225(8) 0.882(3)
loop_
_geom_bond_atom_site_label_1
_geom_bond_atom_site_label_2
_geom_bond_site_symmetry_1
_geom_bond_site_symmetry_2
Zn1 N1 1_555 1_555
N1 C1 1_555 1_555
N2 C3 1_555 1_555
N3 C21 1_555 1_555
N4 C18 1_555 1_555
N5 Zn1 1_555 1_555
N6 C27 1_555 1_555
N7 C54 1_555 1_555
N8 C49 1_555 1_555
C1 H1 1_555 1_555
C2 C1 1_555 1_555
H2 C2 1_555 1_555
C3 C2 1_555 1_555
C4 C3 1_555 1_555
H3 C4 1_555 1_555
C5 N1 1_555 1_555
H4 C5 1_555 1_555
C6 N2 1_555 1_555
C7 N2 1_555 1_555
C8 C6 1_555 1_555
C9 C8 1_555 1_555
H5 C9 1_555 1_555
C10 C9 1_555 1_555
H6 C10 1_555 1_555
C11 C10 1_555 1_555
C12 C11 1_555 1_555
C13 C8 1_555 1_555
C14 C7 1_555 1_555
C15 C14 1_555 1_555
H7 C15 1_555 1_555
C16 C15 1_555 1_555
H8 C16 1_555 1_555
C17 C12 1_555 1_555
C18 C17 1_555 1_555
C19 N4 1_555 1_555
C20 H9 1_555 1_555
C21 C20 1_555 1_555
H10 C21 1_555 1_555
C22 N3 1_555 1_555
H11 C22 1_555 1_555
C23 C22 1_555 1_555
H12 C23 1_555 1_555
C24 N4 1_555 1_555
C25 N5 1_555 1_555
H13 C25 1_555 1_555
C26 C25 1_555 1_555
H14 C26 1_555 1_555
C27 C26 1_555 1_555
C28 C27 1_555 1_555
H15 C28 1_555 1_555
C29 N5 1_555 1_555
H16 C29 1_555 1_555
C30 N6 1_555 1_555
C31 C30 1_555 1_555
C32 C31 1_555 1_555
C33 C32 1_555 1_555
C34 N6 1_555 1_555
C35 C33 1_555 1_555
H17 C35 1_555 1_555
C36 C31 1_555 1_555
H18 C36 1_555 1_555
N9 Zn1 1_555 1_555
C37 N9 1_555 1_555
H19 C37 1_555 1_555
C38 C37 1_555 1_555
H20 C38 1_555 1_555
C39 C38 1_555 1_555
C40 C39 1_555 1_555
H21 C40 1_555 1_555
C41 N9 1_555 1_555
H22 C41 1_555 1_555
N10 C39 1_555 1_555
C42 N10 1_555 1_555
C43 C42 1_555 1_555
C44 C43 1_555 1_555
C45 C44 1_555 1_555
C46 N10 1_555 1_555
C47 C45 1_555 1_555
H23 C47 1_555 1_555
C48 C43 1_555 1_555
H24 C48 1_555 1_555
C49 C50 1_555 1_555
C50 H25 1_555 1_555
H26 C50 1_555 1_555
C51 C50 1_555 1_555
H27 C51 1_555 1_555
H28 C51 1_555 1_555
C52 N8 1_555 1_555
H29 C52 1_555 1_555
H30 C52 1_555 1_555
C53 N8 1_555 1_555
H31 C53 1_555 1_555
H32 C53 1_555 1_555
H33 C53 1_555 1_555
C54 C55 1_555 1_555
C55 H34 1_555 1_555
H35 C55 1_555 1_555
C56 C55 1_555 1_555
H36 C56 1_555 1_555
H37 C56 1_555 1_555
C57 N7 1_555 1_555
H38 C57 1_555 1_555
H39 C57 1_555 1_555
C58 N7 1_555 1_555
H40 C58 1_555 1_555
H41 C58 1_555 1_555
H42 C58 1_555 1_555
O1 C6 1_555 1_555
O2 C7 1_555 1_555
O3 C18 1_555 1_555
O4 C19 1_555 1_555
O5 C46 1_555 1_555
O6 C42 1_555 1_555
O7 C34 1_555 1_555
O8 C30 1_555 1_555
O9 Zn1 1_555 1_555
O10 Zn1 1_555 1_555
Mo1 O12 1_555 1_555
Mo2 O14 1_555 1_555
Mo3 O13 1_555 1_555
Mo4 O11 1_555 1_555
O12 Mo4 1_555 1_555
O13 Mo4 1_555 1_555
O14 Mo1 1_555 1_555
O15 Mo1 1_555 1_555
O16 Mo2 1_555 1_555
O17 Mo3 1_555 1_555
O18 Mo2 1_555 1_555
O19 Mo1 1_555 1_555
O20 Mo1 1_555 1_555
O21 Mo1 1_555 1_555
Mo5 O22 1_555 1_555
Mo6 O26 1_555 1_555
Mo7 O25 1_555 1_555
Mo8 O23 1_555 1_555
O23 Mo5 1_555 1_555
O24 Mo8 1_555 1_555
O25 Mo8 1_555 1_555
O26 Mo8 1_555 1_555
O27 Mo5 1_555 1_555
O28 Mo5 1_555 1_555
O29 Mo6 1_555 1_555
O30 Mo6 1_555 1_555
O31 Mo6 1_555 1_555
O32 Mo7 1_555 1_555
N5D C25D 1_555 1_555
N6D C27D 1_555 1_555
C25D H13D 1_555 1_555
C26D C25D 1_555 1_555
H14D C26D 1_555 1_555
C27D C26D 1_555 1_555
C28D C27D 1_555 1_555
H15D C28D 1_555 1_555
C29D N5D 1_555 1_555
H16D C29D 1_555 1_555
C30D N6D 1_555 1_555
C31D C30D 1_555 1_555
C32D C32 1_555 1_555
C33D C32D 1_555 1_555
C34D N6D 1_555 1_555
C35D C36 1_555 1_555
H17D C35D 1_555 1_555
C36D C35 1_555 1_555
H18D C36D 1_555 1_555
O7D C34D 1_555 1_555
O8D C30D 1_555 1_555
N9D C37D 1_555 1_555
C37D H19D 1_555 1_555
C38D C37D 1_555 1_555
H20D C38D 1_555 1_555
C39D C38D 1_555 1_555
C40D C39D 1_555 1_555
H21D C40D 1_555 1_555
C41D N9D 1_555 1_555
H22D C41D 1_555 1_555
N10D C39D 1_555 1_555
C42D N10D 1_555 1_555
C43D C42D 1_555 1_555
C44D C44 1_555 1_555
C45D C44D 1_555 1_555
C46D N10D 1_555 1_555
C47D C48 1_555 1_555
H23D C47D 1_555 1_555
C48D C47 1_555 1_555
H24D C48D 1_555 1_555
O5D C46D 1_555 1_555
O6D C42D 1_555 1_555
Zn1D N5D 1_555 1_555
N1D Zn1D 1_555 1_555
N2D C3D 1_555 1_555
N3D C21D 1_555 1_555
N4D C18D 1_555 1_555
N7D C54D 1_555 1_555
N8D C49D 1_555 1_555
C1D N1D 1_555 1_555
H1D C1D 1_555 1_555
C2D C1D 1_555 1_555
H2D C2D 1_555 1_555
C3D C2D 1_555 1_555
C4D C3D 1_555 1_555
H3D C4D 1_555 1_555
C5D N1D 1_555 1_555
H4D C5D 1_555 1_555
C6D N2D 1_555 1_555
C7D N2D 1_555 1_555
C8D C6D 1_555 1_555
C9D C8D 1_555 1_555
H5D C9D 1_555 1_555
C10D C9D 1_555 1_555
H6D C10D 1_555 1_555
C11D C10D 1_555 1_555
C12D C11D 1_555 1_555
C13D C8D 1_555 1_555
C14D C7D 1_555 1_555
C15D C14D 1_555 1_555
H7D C15D 1_555 1_555
C16D C15D 1_555 1_555
H8D C16D 1_555 1_555
C17D C12D 1_555 1_555
C18D C17D 1_555 1_555
C19D N4D 1_555 1_555
C20D H9D 1_555 1_555
C21D C20D 1_555 1_555
H10D C21D 1_555 1_555
C22D N3D 1_555 1_555
H11D C22D 1_555 1_555
C23D C22D 1_555 1_555
H12D C23D 1_555 1_555
C24D N4D 1_555 1_555
C49D C50D 1_555 1_555
C50D H25D 1_555 1_555
H26D C50D 1_555 1_555
C51D C50D 1_555 1_555
H27D C51D 1_555 1_555
H28D C51D 1_555 1_555
C52D N8D 1_555 1_555
H29D C52D 1_555 1_555
H30D C52D 1_555 1_555
C53D N8D 1_555 1_555
H31D C53D 1_555 1_555
H32D C53D 1_555 1_555
H33D C53D 1_555 1_555
C54D C55D 1_555 1_555
C55D H34D 1_555 1_555
H35D C55D 1_555 1_555
C56D C55D 1_555 1_555
H36D C56D 1_555 1_555
H37D C56D 1_555 1_555
C57D N7D 1_555 1_555
H38D C57D 1_555 1_555
H39D C57D 1_555 1_555
C58D N7D 1_555 1_555
H40D C58D 1_555 1_555
H41D C58D 1_555 1_555
H42D C58D 1_555 1_555
O1D C6D 1_555 1_555
O2D C7D 1_555 1_555
O3D C18D 1_555 1_555
O4D C19D 1_555 1_555
O9D Zn1D 1_555 1_555
O10D Zn1D 1_555 1_555
Zn1C N3D 1_555 1_555
Zn1D_2 N9D 1_555 1_555
Zn1G N3 1_555 1_555
N3C Zn1D 1_555 1_555
N3G Zn1 1_555 1_555
N9D_2 Zn1D 1_555 1_555
Mo1A O14 1_555 1_555
Mo3A O14 1_555 1_555
O12A Mo4 1_555 1_555
O13A Mo4 1_555 1_555
O15A Mo1A 1_555 1_555
O16A Mo2 1_555 1_555
O17A Mo3A 1_555 1_555
O19A Mo2 1_555 1_555
O20A Mo1A 1_555 1_555
O21A Mo3 1_555 1_555
Mo6A O27 1_555 1_555
Mo8A O27 1_555 1_555
O23A Mo5 1_555 1_555
O24A Mo8A 1_555 1_555
O25A Mo7 1_555 1_555
O26A Mo6A 1_555 1_555
O28A Mo5 1_555 1_555
O29A Mo8 1_555 1_555
O30A Mo6A 1_555 1_555
O31A Mo7 1_555 1_555
C4 C5 1_555 1_555
C11 C19 1_555 1_555
C12 C13 1_555 1_555
C13 C14 1_555 1_555
C16 C17 1_555 1_555
C20 C24 1_555 1_555
C23 C24 1_555 1_555
C28 C29 1_555 1_555
C33 C34 1_555 1_555
C40 C41 1_555 1_555
C45 C46 1_555 1_555
C49 O9 1_555 1_555
C51 C52 1_555 1_555
C54 O10 1_555 1_555
C56 C57 1_555 1_555
Mo2 O19 1_555 1_555
Mo3 O14 1_555 1_555
Mo3 O15 1_555 1_555
Mo3 O16 1_555 1_555
Mo4 O14 1_555 1_555
O21 Mo3A 1_555 1_555
Mo6 O27 1_555 1_555
Mo6 O28 1_555 1_555
Mo7 O27 1_555 1_555
Mo7 O31 1_555 1_555
Mo8 O27 1_555 1_555
O29 Mo8A 1_555 1_555
C28D C29D 1_555 1_555
C31D C32D 1_555 1_555
C31D C36D 1_555 1_555
C33D C34D 1_555 1_555
C33D C35D 1_555 1_555
C40D C41D 1_555 1_555
C43D C44D 1_555 1_555
C43D C48D 1_555 1_555
C45D C46D 1_555 1_555
C45D C47D 1_555 1_555
C4D C5D 1_555 1_555
C11D C19D 1_555 1_555
C12D C13D 1_555 1_555
C13D C14D 1_555 1_555
C16D C17D 1_555 1_555
C20D C24D 1_555 1_555
C23D C24D 1_555 1_555
C49D O9D 1_555 1_555
C51D C52D 1_555 1_555
C54D O10D 1_555 1_555
C56D C57D 1_555 1_555
Mo1A O12A 1_555 1_555
Mo1A O19A 1_555 1_555
Mo1A O21A 1_555 1_555
Mo3A O13A 1_555 1_555
Mo3A O15A 1_555 1_555
Mo3A O16A 1_555 1_555
Mo6A O28A 1_555 1_555
Mo6A O29A 1_555 1_555
Mo6A O31A 1_555 1_555
Mo8A O23A 1_555 1_555
Mo8A O25A 1_555 1_555
Mo8A O26A 1_555 1_555

#END
