
#######################################################################
#
#                 Cambridge Crystallographic Data Centre
#                                CCDC 
#
#######################################################################
#
# If this CIF has been generated from an entry in the Cambridge 
# Structural Database, then it will include bibliographic, chemical, 
# crystal, experimental, refinement or atomic coordinate data resulting 
# from the CCDC's data processing and validation procedures.
#
#######################################################################

data_XOYQEJ
_symmetry_cell_setting           monoclinic
_symmetry_space_group_name_H-M   'P 21/c'
_symmetry_Int_Tables_number      14
_space_group_name_Hall           '-P 2ybc'
loop_
_symmetry_equiv_pos_site_id
_symmetry_equiv_pos_as_xyz
1 x,y,z
2 -x,1/2+y,1/2-z
3 -x,-y,-z
4 x,1/2-y,1/2+z
_cell_length_a                   16.713(5)
_cell_length_b                   10.748(5)
_cell_length_c                   21.986(5)
_cell_angle_alpha                90
_cell_angle_beta                 109.293(5)
_cell_angle_gamma                90
_cell_volume                     3727.58
loop_
_atom_site_label
_atom_site_type_symbol
_atom_site_fract_x
_atom_site_fract_y
_atom_site_fract_z
Cd1 Cd 0.738950(12) 0.164523(17) 0.750116(9)
Ni1 Ni 0.81375(2) -0.10935(3) 0.804966(17)
Ni2 Ni 0.63527(2) -0.04738(3) 0.657550(18)
N1 N 0.67888(17) 0.3136(3) 0.79188(16)
C1 C 0.88292(19) 0.3425(3) 0.71481(17)
C2 C 0.8334(2) -0.2978(3) 0.71692(17)
O1 O 0.65420(12) 0.13692(18) 0.64965(9)
O2 O 0.65086(18) -0.0076(3) 0.74965(12)
O3 O 0.78256(12) -0.04058(17) 0.71394(10)
O4 O 0.81341(13) 0.06319(18) 0.83675(9)
N2 N 0.84197(17) 0.2841(3) 0.73658(15)
N3 N 0.61150(15) -0.2285(2) 0.67630(13)
N4 N 0.80643(15) -0.2817(2) 0.76432(13)
C3 C 0.57333(17) -0.1769(3) 0.77171(15)
C4 C 0.86931(18) 0.0236(3) 0.94922(14)
N5 N 0.81513(16) -0.1710(2) 0.89264(13)
C5 C 0.6779(2) 0.3285(3) 0.60634(17)
H1 H 0.6749 0.3700 0.6426
C6 C 0.60801(19) 0.0036(3) 0.84117(15)
H2 H 0.6340 0.0807 0.8519
C7 C 0.61128(17) -0.0580(3) 0.78580(15)
N6 N 0.64356(16) -0.0776(3) 0.56854(13)
C8 C 0.6834(2) 0.2125(4) 0.49651(17)
H3 H 0.6846 0.1735 0.4591
C9 C 0.6549(2) 0.0084(4) 0.53205(15)
C10 C 0.5269(2) -0.1635(3) 0.86463(19)
H4 H 0.4981 -0.1975 0.8904
C11 C 0.66631(19) 0.1404(3) 0.54425(15)
C12 C 0.66548(16) 0.1999(3) 0.60150(14)
C13 C 0.7864(2) -0.3936(3) 0.79468(18)
H5 H 0.8057 -0.4662 0.7772
H6 H 0.7254 -0.3999 0.7838
C14 C 0.65037(17) 0.3858(3) 0.81654(15)
C15 C 0.8704(2) 0.2303(3) 0.90726(15)
H7 H 0.8579 0.2853 0.8727
C16 C 0.57959(19) -0.2558(3) 0.72044(16)
C17 C 0.9084(2) 0.2741(3) 0.96895(17)
H8 H 0.9206 0.3585 0.9754
C18 C 0.53032(19) -0.2259(3) 0.81161(17)
H9 H 0.5036 -0.3027 0.8015
C19 C 0.85036(16) 0.1040(3) 0.89569(13)
C20 C 0.8265(2) -0.3941(3) 0.86669(18)
H10 H 0.8867 -0.3779 0.8775
H11 H 0.8202 -0.4763 0.8827
C21 C 0.6981(3) 0.3370(4) 0.50316(19)
H12 H 0.7104 0.3821 0.4713
C22 C 0.5778(2) -0.2878(4) 0.56197(18)
H13 H 0.5655 -0.3609 0.5345
H14 H 0.5250 -0.2436 0.5551
C23 C 0.83018(17) -0.0763(3) 0.67882(14)
C24 C 0.6124(2) -0.3290(3) 0.63166(19)
H15 H 0.5788 -0.3979 0.6383
H16 H 0.6702 -0.3581 0.6409
C25 C 0.9088(2) 0.0721(4) 1.01151(16)
H17 H 0.9217 0.0190 1.0468
C26 C 0.85487(19) -0.2022(3) 0.67840(15)
C27 C 0.9286(3) 0.1953(4) 1.02117(17)
H18 H 0.9554 0.2256 1.0625
C28 C 0.8446(2) -0.1062(3) 0.94385(16)
C29 C 0.6945(2) 0.3950(3) 0.5581(2)
H19 H 0.7034 0.4804 0.5628
C30 C 0.7890(2) -0.2987(3) 0.90093(18)
H20 H 0.7276 -0.3040 0.8841
H21 H 0.8069 -0.3183 0.9465
C31 C 0.5668(2) -0.0484(4) 0.87998(16)
H22 H 0.5657 -0.0064 0.9167
C32 C 0.9007(3) -0.0304(4) 0.6023(2)
H23 H 0.9170 0.0274 0.5771
C33 C 0.8545(2) 0.0086(3) 0.64051(16)
H24 H 0.8395 0.0919 0.6406
C34 C 0.6379(3) -0.2051(4) 0.54236(19)
H25 H 0.6939 -0.2424 0.5569
H26 H 0.6195 -0.2007 0.4957
C35 C 0.9010(3) -0.2373(4) 0.63854(19)
H27 H 0.9169 -0.3201 0.6379
C36 C 0.9232(3) -0.1536(4) 0.6008(2)
H28 H 0.9533 -0.1789 0.5741
N7 N 0.62630(18) 0.4763(3) 0.84534(17)
C37 C 0.99508(18) 0.4011(3) 0.68450(15)
C38 C 0.55576(19) 0.4718(3) 0.85798(15)
N8 N 0.9208(2) 0.4209(3) 0.6893(2)
N9 N 1.05846(15) 0.3944(2) 0.67640(13)
N10 N 0.49602(17) 0.4780(3) 0.87214(15)
H29 H 0.559(2) -0.335(3) 0.7210(16)
H30 H 0.844(2) -0.381(3) 0.7030(18)
H31 H 0.845(2) -0.141(3) 0.9833(17)
H32 H 0.659(2) -0.020(4) 0.491(2)
Ni1A Ni 1.18625(2) 0.39065(3) 0.695034(17)
Ni2A Ni 0.36473(2) 0.45262(3) 0.842450(18)
N9A N 0.94154(15) -0.1056(2) 0.82360(13)
N10A N 0.50398(17) -0.0220(3) 0.62786(15)
loop_
_geom_bond_atom_site_label_1
_geom_bond_atom_site_label_2
_geom_bond_site_symmetry_1
_geom_bond_site_symmetry_2
Cd1 N1 1_555 1_555
Ni1 O3 1_555 1_555
Ni2 O1 1_555 1_555
N1 C14 1_555 1_555
C1 N2 1_555 1_555
C2 N4 1_555 1_555
O1 Cd1 1_555 1_555
O2 Cd1 1_555 1_555
O3 Cd1 1_555 1_555
O4 Cd1 1_555 1_555
N2 Cd1 1_555 1_555
N3 Ni2 1_555 1_555
N4 Ni1 1_555 1_555
C3 C7 1_555 1_555
C4 C19 1_555 1_555
N5 Ni1 1_555 1_555
C5 H1 1_555 1_555
C6 H2 1_555 1_555
C7 O2 1_555 1_555
N6 Ni2 1_555 1_555
C8 H3 1_555 1_555
C9 N6 1_555 1_555
C10 H4 1_555 1_555
C11 C8 1_555 1_555
C12 O1 1_555 1_555
C13 N4 1_555 1_555
H5 C13 1_555 1_555
H6 C13 1_555 1_555
C14 N7 1_555 1_555
C15 H7 1_555 1_555
C16 N3 1_555 1_555
C17 C15 1_555 1_555
H8 C17 1_555 1_555
C18 C3 1_555 1_555
H9 C18 1_555 1_555
C19 O4 1_555 1_555
C20 C13 1_555 1_555
H10 C20 1_555 1_555
H11 C20 1_555 1_555
C21 C8 1_555 1_555
H12 C21 1_555 1_555
C22 H13 1_555 1_555
H14 C22 1_555 1_555
C23 O3 1_555 1_555
C24 N3 1_555 1_555
H15 C24 1_555 1_555
H16 C24 1_555 1_555
C25 C4 1_555 1_555
H17 C25 1_555 1_555
C26 C2 1_555 1_555
C27 C17 1_555 1_555
H18 C27 1_555 1_555
C28 C4 1_555 1_555
C29 C5 1_555 1_555
H19 C29 1_555 1_555
C30 N5 1_555 1_555
H20 C30 1_555 1_555
H21 C30 1_555 1_555
C31 C6 1_555 1_555
H22 C31 1_555 1_555
C32 H23 1_555 1_555
C33 C23 1_555 1_555
H24 C33 1_555 1_555
C34 N6 1_555 1_555
H25 C34 1_555 1_555
H26 C34 1_555 1_555
C35 C26 1_555 1_555
H27 C35 1_555 1_555
C36 C32 1_555 1_555
H28 C36 1_555 1_555
N7 C38 1_555 1_555
C37 N8 1_555 1_555
C38 N10 1_555 1_555
N8 C1 1_555 1_555
N9 C37 1_555 1_555
N10 Ni2A 1_555 1_555
H29 C16 1_555 1_555
H30 C2 1_555 1_555
H31 C28 1_555 1_555
H32 C9 1_555 1_555
Ni1A N9 1_555 1_555
N9A Ni1 1_555 1_555
N10A Ni2 1_555 1_555
Ni1 O4 1_555 1_555
Ni2 O2 1_555 1_555
Ni2 O3 1_555 1_555
C3 C16 1_555 1_555
N5 C28 1_555 1_555
C5 C12 1_555 1_555
C6 C7 1_555 1_555
C9 C11 1_555 1_555
C10 C18 1_555 1_555
C10 C31 1_555 1_555
C11 C12 1_555 1_555
C15 C19 1_555 1_555
C20 C30 1_555 1_555
C21 C29 1_555 1_555
C22 C24 1_555 1_555
C22 C34 1_555 1_555
C23 C26 1_555 1_555
C25 C27 1_555 1_555
C32 C33 1_555 1_555
C35 C36 1_555 1_555

#END
