
#######################################################################
#
#                 Cambridge Crystallographic Data Centre
#                                CCDC 
#
#######################################################################
#
# If this CIF has been generated from an entry in the Cambridge 
# Structural Database, then it will include bibliographic, chemical, 
# crystal, experimental, refinement or atomic coordinate data resulting 
# from the CCDC's data processing and validation procedures.
#
#######################################################################

data_XOYSEK
_symmetry_cell_setting           triclinic
_symmetry_space_group_name_H-M   'P -1'
_symmetry_Int_Tables_number      2
_space_group_name_Hall           '-P 1'
loop_
_symmetry_equiv_pos_site_id
_symmetry_equiv_pos_as_xyz
1 x,y,z
2 -x,-y,-z
_cell_length_a                   16.328(3)
_cell_length_b                   17.671(4)
_cell_length_c                   18.614(4)
_cell_angle_alpha                108.40(3)
_cell_angle_beta                 100.25(3)
_cell_angle_gamma                112.32(3)
_cell_volume                     4434.7
loop_
_atom_site_label
_atom_site_type_symbol
_atom_site_fract_x
_atom_site_fract_y
_atom_site_fract_z
W1 W 0.45960(3) 0.58964(3) 0.21967(3)
Cu1 Cu 0.31190(10) 0.42717(9) 0.13836(9)
Cu2 Cu 0.35852(10) 0.56384(10) 0.07721(8)
Cu3 Cu 0.28819(10) 0.57694(10) 0.20936(10)
S1 S 0.4313(2) 0.48286(18) 0.09501(17)
S2 S 0.3547(2) 0.51186(19) 0.26883(17)
S3 S 0.4052(2) 0.68318(19) 0.19231(17)
Br1 Br 0.17847(8) 0.46221(9) 0.05372(8)
C1 C 0.7545(11) 0.8541(11) 0.5160(9)
H1 H 0.7930 0.8913 0.4948
H2 H 0.7568 0.8915 0.5674
H3 H 0.7774 0.8131 0.5223
C2 C 0.6545(10) 0.8014(8) 0.4590(7)
C3 C 0.5736(11) 0.8053(10) 0.4690(8)
H4 H 0.5693 0.8421 0.5150
C4 C 0.5024(9) 0.7454(9) 0.3988(7)
C5 C 0.4051(11) 0.7328(12) 0.3866(9)
H5 H 0.3650 0.6880 0.3332
H6 H 0.3825 0.7134 0.4251
H7 H 0.4046 0.7888 0.3935
C6 C 0.7736(9) 0.6024(9) 0.4247(7)
H8 H 0.7707 0.6434 0.4712
H9 H 0.7871 0.5591 0.4379
H10 H 0.8223 0.6354 0.4079
C7 C 0.6807(8) 0.5543(8) 0.3577(7)
C8 C 0.6178(8) 0.4650(8) 0.3211(7)
H11 H 0.6250 0.4187 0.3301
C9 C 0.5412(8) 0.4572(8) 0.2680(7)
C10 C 0.4579(9) 0.3693(8) 0.2131(9)
H12 H 0.4471 0.3631 0.1587
H13 H 0.4692 0.3212 0.2176
H14 H 0.4037 0.3667 0.2276
C11 C 0.8555(8) 0.8034(10) 0.2985(9)
H15 H 0.8689 0.7641 0.3186
H16 H 0.8943 0.8188 0.2670
H17 H 0.8685 0.8573 0.3429
C12 C 0.7541(8) 0.7567(9) 0.2472(8)
C13 C 0.7169(8) 0.7534(8) 0.1730(8)
H18 H 0.7498 0.7801 0.1443
C14 C 0.6199(8) 0.7020(8) 0.1500(7)
C15 C 0.5522(8) 0.6790(8) 0.0727(7)
H19 H 0.5058 0.6979 0.0828
H20 H 0.5849 0.7091 0.0440
H21 H 0.5217 0.6150 0.0411
C16 C -0.1784(8) -0.2660(8) -0.1437(7)
H22 H -0.2042 -0.3007 -0.1990
C17 C -0.1760(8) -0.2499(8) -0.0172(7)
H23 H -0.1997 -0.2732 0.0172
C18 C -0.1044(8) -0.1822(8) -0.1160(7)
H24 H -0.0813 -0.1617 -0.1521
C19 C -0.1008(9) -0.1638(8) 0.0155(7)
H25 H -0.0751 -0.1301 0.0710
C20 C -0.0640(8) -0.1281(7) -0.0348(8)
C21 C 0.0164(9) -0.0346(8) -0.0002(8)
H26 H 0.0581 -0.0331 -0.0315
H27 H 0.0519 -0.0191 0.0545
C22 C -0.2635(10) 0.3919(9) 0.0353(8)
H28 H -0.2639 0.3505 -0.0106
C23 C -0.3182(8) 0.4885(9) 0.0936(7)
H29 H -0.3568 0.5152 0.0880
C24 C -0.2092(8) 0.4090(8) 0.1108(7)
H30 H -0.1722 0.3804 0.1144
C25 C -0.2669(9) 0.5081(9) 0.1709(7)
H31 H -0.2703 0.5473 0.2159
C26 C -0.2092(8) 0.4660(8) 0.1787(7)
C27 C -0.1504(8) 0.4880(8) 0.2622(7)
H32 H -0.1309 0.4420 0.2591
H33 H -0.1889 0.4865 0.2963
C28 C 0.1586(8) 0.5624(8) 0.2987(7)
H34 H 0.1989 0.5494 0.3288
C29 C 0.1182(9) 0.5982(9) 0.1964(8)
H35 H 0.1290 0.6094 0.1525
C30 C 0.0820(9) 0.5602(9) 0.3188(7)
H36 H 0.0711 0.5452 0.3611
C31 C 0.0402(9) 0.5994(9) 0.2138(8)
H37 H 0.0011 0.6131 0.1832
C32 C 0.0201(8) 0.5801(8) 0.2770(7)
C33 C -0.0621(8) 0.5813(9) 0.3013(7)
H38 H -0.0440 0.6031 0.3594
H39 H -0.0777 0.6234 0.2867
N1 N 0.6281(7) 0.7369(6) 0.3847(5)
N2 N 0.5324(6) 0.7010(6) 0.3468(5)
N3 N 0.6442(6) 0.5995(6) 0.3276(5)
N4 N 0.5556(6) 0.5384(6) 0.2707(5)
N5 N 0.6823(6) 0.7102(6) 0.2671(6)
N6 N 0.5986(6) 0.6761(6) 0.2078(5)
N7 N -0.2160(6) -0.3012(6) -0.0978(6)
N8 N -0.3151(7) 0.4343(6) 0.0278(5)
N9 N 0.1798(7) 0.5818(7) 0.2391(6)
B1 B 0.6840(9) 0.6975(10) 0.3445(9)
H80 H 0.7494 0.7293 0.3809
W1A W -0.45960(3) 0.41036(3) -0.21967(3)
Cu1A Cu -0.31190(10) -0.42717(9) -0.13836(9)
Cu1A_2 Cu -0.31190(10) 0.57283(9) -0.13836(9)
Cu2A Cu -0.35852(10) 0.43616(10) -0.07721(8)
Cu3A Cu -0.28819(10) 0.42306(10) -0.20936(10)
S1A S -0.4313(2) 0.51714(18) -0.09501(17)
S2A S -0.3547(2) 0.48814(19) -0.26883(17)
S3A S -0.4052(2) 0.31682(19) -0.19231(17)
Br1A Br -0.17847(8) 0.53779(9) -0.05372(8)
C1A C -0.7545(11) 0.1459(11) -0.5160(9)
H1A H -0.7930 0.1087 -0.4948
H2A H -0.7568 0.1085 -0.5674
H3A H -0.7774 0.1869 -0.5223
C2A C -0.6545(10) 0.1986(8) -0.4590(7)
C3A C -0.5736(11) 0.1947(10) -0.4690(8)
H4A H -0.5693 0.1579 -0.5150
C4A C -0.5024(9) 0.2546(9) -0.3988(7)
C5A C -0.4051(11) 0.2672(12) -0.3866(9)
H5A H -0.3650 0.3120 -0.3332
H6A H -0.3825 0.2866 -0.4251
H7A H -0.4046 0.2112 -0.3935
C6A C -0.7736(9) 0.3976(9) -0.4247(7)
H8A H -0.7707 0.3566 -0.4712
H9A H -0.7871 0.4409 -0.4379
H10A H -0.8223 0.3646 -0.4079
C7A C -0.6807(8) 0.4457(8) -0.3577(7)
C8A C -0.6178(8) 0.5350(8) -0.3211(7)
H11A H -0.6250 0.5813 -0.3301
C9A C -0.5412(8) 0.5428(8) -0.2680(7)
C10A C -0.4579(9) 0.6307(8) -0.2131(9)
H12A H -0.4471 0.6369 -0.1587
H13A H -0.4692 0.6788 -0.2176
H14A H -0.4037 0.6333 -0.2276
C11A C -0.8555(8) 0.1966(10) -0.2985(9)
H15A H -0.8689 0.2359 -0.3186
H16A H -0.8943 0.1812 -0.2670
H17A H -0.8685 0.1427 -0.3429
C12A C -0.7541(8) 0.2433(9) -0.2472(8)
C13A C -0.7169(8) 0.2466(8) -0.1730(8)
H18A H -0.7498 0.2199 -0.1443
C14A C -0.6199(8) 0.2980(8) -0.1500(7)
C15A C -0.5522(8) 0.3210(8) -0.0727(7)
H19A H -0.5058 0.3021 -0.0828
H20A H -0.5849 0.2909 -0.0440
H21A H -0.5217 0.3850 -0.0411
C16A C 0.1784(8) 0.2660(8) 0.1437(7)
H22A H 0.2042 0.3007 0.1990
C17A C 0.1760(8) 0.2499(8) 0.0172(7)
H23A H 0.1997 0.2732 -0.0172
C18A C 0.1044(8) 0.1822(8) 0.1160(7)
H24A H 0.0813 0.1617 0.1521
C19A C 0.1008(9) 0.1638(8) -0.0155(7)
H25A H 0.0751 0.1301 -0.0710
C20A C 0.0640(8) 0.1281(7) 0.0348(8)
C21A C -0.0164(9) 0.0346(8) 0.0002(8)
H26A H -0.0581 0.0331 0.0315
H27A H -0.0519 0.0191 -0.0545
C22A C 0.2635(10) 0.6081(9) -0.0353(8)
H28A H 0.2639 0.6495 0.0106
C23A C 0.3182(8) 0.5115(9) -0.0936(7)
H29A H 0.3568 0.4848 -0.0880
C24A C 0.2092(8) 0.5910(8) -0.1108(7)
H30A H 0.1722 0.6196 -0.1144
C25A C 0.2669(9) 0.4919(9) -0.1709(7)
H31A H 0.2703 0.4527 -0.2159
C26A C 0.2092(8) 0.5340(8) -0.1787(7)
C27A C 0.1504(8) 0.5120(8) -0.2622(7)
H32A H 0.1309 0.5580 -0.2591
H33A H 0.1889 0.5135 -0.2963
C28A C -0.1586(8) 0.4376(8) -0.2987(7)
H34A H -0.1989 0.4506 -0.3288
C29A C -0.1182(9) 0.4018(9) -0.1964(8)
H35A H -0.1290 0.3906 -0.1525
C30A C -0.0820(9) 0.4398(9) -0.3188(7)
H36A H -0.0711 0.4548 -0.3611
C31A C -0.0402(9) 0.4006(9) -0.2138(8)
H37A H -0.0011 0.3869 -0.1832
C32A C -0.0201(8) 0.4199(8) -0.2770(7)
C33A C 0.0621(8) 0.4187(9) -0.3013(7)
H38A H 0.0440 0.3969 -0.3594
H39A H 0.0777 0.3766 -0.2867
N1A N -0.6281(7) 0.2631(6) -0.3847(5)
N2A N -0.5324(6) 0.2990(6) -0.3468(5)
N3A N -0.6442(6) 0.4005(6) -0.3276(5)
N4A N -0.5556(6) 0.4616(6) -0.2707(5)
N5A N -0.6823(6) 0.2898(6) -0.2671(6)
N6A N -0.5986(6) 0.3239(6) -0.2078(5)
N7A N 0.2160(6) 0.3012(6) 0.0978(6)
N7_2 N -0.2160(6) 0.6988(6) -0.0978(6)
N8A N 0.3151(7) 0.5657(6) -0.0278(5)
N9A N -0.1798(7) 0.4182(7) -0.2391(6)
B1A B -0.6840(9) 0.3025(10) -0.3445(9)
H80A H -0.7494 0.2707 -0.3809
W2 W 0.31668(3) -0.07237(3) 0.11312(3)
Cu4 Cu 0.26753(11) -0.09948(10) 0.23487(9)
Cu5 Cu 0.45617(10) -0.04192(10) 0.23592(8)
Cu6 Cu 0.37532(11) 0.07863(10) 0.24748(9)
S4 S 0.4632(2) 0.04956(19) 0.17300(17)
S5 S 0.3272(2) -0.17552(18) 0.16100(16)
S6 S 0.2244(2) -0.02332(19) 0.17364(18)
Br2 Br 0.42236(11) 0.02514(9) 0.36656(7)
C34 C 0.3406(9) -0.2503(9) -0.1939(7)
H40 H 0.2734 -0.2865 -0.2148
H41 H 0.3696 -0.2881 -0.2097
H42 H 0.3581 -0.2057 -0.2150
C35 C 0.3729(8) -0.2046(8) -0.1041(7)
C36 C 0.4516(9) -0.1928(8) -0.0498(7)
H43 H 0.4956 -0.2111 -0.0623
C37 C 0.4526(8) -0.1479(8) 0.0275(7)
C38 C 0.5226(8) -0.1224(9) 0.1037(7)
H44 H 0.5521 -0.0582 0.1343
H45 H 0.5694 -0.1403 0.0929
H46 H 0.4922 -0.1519 0.1339
C39 C 0.0385(9) -0.3001(10) -0.1959(8)
H47 H 0.0395 -0.2511 -0.2084
H48 H -0.0252 -0.3470 -0.2155
H49 H 0.0755 -0.3232 -0.2211
C40 C 0.0779(8) -0.2675(8) -0.1076(7)
C41 C 0.0319(8) -0.2970(8) -0.0577(7)
H50 H -0.0295 -0.3416 -0.0730
C42 C 0.0976(8) -0.2456(8) 0.0198(7)
C43 C 0.0789(9) -0.2510(10) 0.0935(8)
H51 H 0.1274 -0.2579 0.1241
H52 H 0.0190 -0.3019 0.0788
H53 H 0.0783 -0.1968 0.1255
C44 C 0.2373(9) -0.0406(9) -0.1833(7)
H54 H 0.2783 -0.0651 -0.1979
H55 H 0.2473 0.0086 -0.1982
H56 H 0.1730 -0.0866 -0.2108
C45 C 0.2576(8) -0.0078(9) -0.0950(7)
C46 C 0.2713(9) 0.0712(8) -0.0380(8)
H57 H 0.2672 0.1185 -0.0474
C47 C 0.2920(8) 0.0682(8) 0.0351(7)
C48 C 0.3112(10) 0.1398(8) 0.1125(7)
H58 H 0.3091 0.1899 0.1041
H59 H 0.3725 0.1591 0.1483
H60 H 0.2647 0.1170 0.1358
C49 C 0.1384(8) -0.1042(9) 0.3199(7)
H61 H 0.1222 -0.0754 0.2902
C50 C 0.2206(10) -0.1753(9) 0.3494(8)
H62 H 0.2632 -0.1969 0.3398
C51 C 0.0988(8) -0.1122(8) 0.3786(7)
H63 H 0.0568 -0.0895 0.3868
C52 C 0.1854(9) -0.1860(9) 0.4079(7)
H64 H 0.2036 -0.2147 0.4368
C53 C 0.1213(7) -0.1538(8) 0.4252(7)
C54 C 0.0819(8) -0.1584(9) 0.4908(7)
H65 H 0.0891 -0.2036 0.5063
H66 H 0.0152 -0.1769 0.4709
C55 C 0.1306(9) -0.0675(9) 0.5649(7)
H67 H 0.1290 -0.0215 0.5477
H68 H 0.0950 -0.0711 0.6013
C56 C 0.3516(9) -0.0694(9) 0.6665(8)
H69 H 0.3688 -0.1121 0.6727
C57 C 0.3883(9) 0.0757(9) 0.6915(8)
H70 H 0.4319 0.1365 0.7160
C58 C 0.2599(9) -0.0994(9) 0.6215(8)
H71 H 0.2172 -0.1605 0.5985
C59 C 0.2998(9) 0.0514(9) 0.6478(8)
H72 H 0.2844 0.0955 0.6426
C60 C 0.2317(8) -0.0381(8) 0.6106(7)
C61 C 0.3496(10) 0.2337(8) 0.3341(8)
H73 H 0.2874 0.1972 0.3001
C62 C 0.4997(9) 0.2581(8) 0.3761(7)
H74 H 0.5447 0.2385 0.3716
C63 C 0.3728(10) 0.3178(9) 0.3926(9)
H75 H 0.3268 0.3363 0.3957
C64 C 0.5276(10) 0.3406(8) 0.4347(7)
H76 H 0.5904 0.3755 0.4678
C65 C 0.4640(10) 0.3739(8) 0.4462(7)
C66 C 0.4923(13) 0.4636(10) 0.5166(9)
N10 N 0.3288(6) -0.1693(6) -0.0617(5)
N11 N 0.3758(6) -0.1335(6) 0.0204(5)
N12 N 0.1658(6) -0.2073(6) -0.0631(5)
N13 N 0.1790(6) -0.1900(6) 0.0166(5)
N14 N 0.2675(6) -0.0585(6) -0.0549(5)
N15 N 0.2890(6) -0.0132(6) 0.0259(5)
N16 N 0.1979(7) -0.1351(7) 0.3038(5)
N17 N 0.5833(7) -0.0157(6) 0.2986(6)
N18 N 0.4113(7) 0.2026(6) 0.3240(6)
B2 B 0.2425(9) -0.1581(9) -0.0908(8)
H81 H 0.2201 -0.1825 -0.1497
W2A W 0.68332(3) 0.07237(3) 0.88688(3)
Cu4A Cu 0.73247(11) 0.09948(10) 0.76513(9)
Cu5A Cu 0.54383(10) 0.04192(10) 0.76408(8)
Cu6A Cu 0.62468(11) -0.07863(10) 0.75252(9)
Cu6A_2 Cu 0.62468(11) 0.92137(10) 0.75252(9)
S4A S 0.5368(2) -0.04956(19) 0.82700(17)
S5A S 0.6728(2) 0.17552(18) 0.83900(16)
S6A S 0.7756(2) 0.02332(19) 0.82636(18)
Br2A Br 0.57764(11) -0.02514(9) 0.63344(7)
C34A C 0.6594(9) 0.2503(9) 1.1939(7)
H40A H 0.7266 0.2865 1.2148
H41A H 0.6304 0.2881 1.2097
H42A H 0.6419 0.2057 1.2150
C35A C 0.6271(8) 0.2046(8) 1.1041(7)
C36A C 0.5484(9) 0.1928(8) 1.0498(7)
H43A H 0.5044 0.2111 1.0623
C37A C 0.5474(8) 0.1479(8) 0.9725(7)
C38A C 0.4774(8) 0.1224(9) 0.8963(7)
H44A H 0.4479 0.0582 0.8657
H45A H 0.4306 0.1403 0.9071
H46A H 0.5078 0.1519 0.8661
C39A C 0.9615(9) 0.3001(10) 1.1959(8)
H47A H 0.9605 0.2511 1.2084
H48A H 1.0252 0.3470 1.2155
H49A H 0.9245 0.3232 1.2211
C40A C 0.9221(8) 0.2675(8) 1.1076(7)
C41A C 0.9681(8) 0.2970(8) 1.0577(7)
H50A H 1.0295 0.3416 1.0730
C42A C 0.9024(8) 0.2456(8) 0.9802(7)
C43A C 0.9211(9) 0.2510(10) 0.9065(8)
H51A H 0.8726 0.2579 0.8759
H52A H 0.9810 0.3019 0.9212
H53A H 0.9217 0.1968 0.8745
C44A C 0.7627(9) 0.0406(9) 1.1833(7)
H54A H 0.7217 0.0651 1.1979
H55A H 0.7527 -0.0086 1.1982
H56A H 0.8270 0.0866 1.2108
C45A C 0.7424(8) 0.0078(9) 1.0950(7)
C46A C 0.7287(9) -0.0712(8) 1.0380(8)
H57A H 0.7328 -0.1185 1.0474
C47A C 0.7080(8) -0.0682(8) 0.9649(7)
C48A C 0.6888(10) -0.1398(8) 0.8875(7)
H58A H 0.6909 -0.1899 0.8959
H59A H 0.6275 -0.1591 0.8517
H60A H 0.7353 -0.1170 0.8642
C49A C 0.8616(8) 0.1042(9) 0.6801(7)
H61A H 0.8778 0.0754 0.7098
C50A C 0.7794(10) 0.1753(9) 0.6506(8)
H62A H 0.7368 0.1969 0.6602
C51A C 0.9012(8) 0.1122(8) 0.6214(7)
H63A H 0.9432 0.0895 0.6132
C52A C 0.8146(9) 0.1860(9) 0.5921(7)
H64A H 0.7964 0.2147 0.5632
C53A C 0.8787(7) 0.1538(8) 0.5748(7)
C54A C 0.9181(8) 0.1584(9) 0.5092(7)
H65A H 0.9109 0.2036 0.4937
H66A H 0.9848 0.1769 0.5291
C55A C 0.8694(9) 0.0675(9) 0.4351(7)
H67A H 0.8710 0.0215 0.4523
H68A H 0.9050 0.0711 0.3987
C56A C 0.6484(9) 0.0694(9) 0.3335(8)
H69A H 0.6312 0.1121 0.3273
C57A C 0.6117(9) -0.0757(9) 0.3085(8)
H70A H 0.5681 -0.1365 0.2840
C58A C 0.7401(9) 0.0994(9) 0.3785(8)
H71A H 0.7828 0.1605 0.4015
C59A C 0.7002(9) -0.0514(9) 0.3522(8)
H72A H 0.7156 -0.0955 0.3574
C60A C 0.7683(8) 0.0381(8) 0.3894(7)
C61A C 0.6504(10) 0.7663(8) 0.6659(8)
H73A H 0.7126 0.8028 0.6999
C62A C 0.5003(9) 0.7419(8) 0.6239(7)
H74A H 0.4553 0.7615 0.6284
C63A C 0.6272(10) 0.6822(9) 0.6074(9)
H75A H 0.6732 0.6637 0.6043
C64A C 0.4724(10) 0.6594(8) 0.5653(7)
H76A H 0.4096 0.6245 0.5322
C65A C 0.5360(10) 0.6261(8) 0.5538(7)
C66A C 0.5077(13) 0.5364(10) 0.4834(9)
N10A N 0.6712(6) 0.1693(6) 1.0617(5)
N11A N 0.6242(6) 0.1335(6) 0.9796(5)
N12A N 0.8342(6) 0.2073(6) 1.0631(5)
N13A N 0.8210(6) 0.1900(6) 0.9834(5)
N14A N 0.7325(6) 0.0585(6) 1.0549(5)
N15A N 0.7110(6) 0.0132(6) 0.9741(5)
N16A N 0.8021(7) 0.1351(7) 0.6962(5)
N17A N 0.4167(7) 0.0157(6) 0.7014(6)
N18A N 0.5887(7) -0.2026(6) 0.6760(6)
N18A_2 N 0.5887(7) 0.7974(6) 0.6760(6)
B2A B 0.7575(9) 0.1581(9) 1.0908(8)
H81A H 0.7799 0.1825 1.1497
C67 C 0.0436(12) -0.6589(13) 0.4014(10)
H77 H -0.0032 -0.6530 0.3676
H78 H 0.0618 -0.6174 0.4562
H79 H 0.0182 -0.7194 0.3973
C68 C 0.1252(14) -0.6391(12) 0.3758(9)
N19 N 0.1881(11) -0.6248(13) 0.3550(9)
P1 P -0.0082(3) -0.0430(3) 0.7341(2)
F1 F -0.1114(7) -0.1022(10) 0.7265(8)
F2 F -0.0138(8) 0.0470(8) 0.7831(6)
F3 F 0.0031(8) -0.1256(7) 0.6883(7)
F4 F 0.0303(7) -0.0471(8) 0.8166(6)
F5 F -0.0449(7) -0.0354(7) 0.6528(6)
F6 F 0.0967(6) 0.0202(6) 0.7433(5)
P2 P 0.1900(3) -0.3646(2) 0.5640(2)
F7 F 0.1114(9) -0.4407(9) 0.5775(9)
F8 F 0.2676(8) -0.2894(8) 0.5550(10)
F9 F 0.1891(10) -0.4352(7) 0.4893(5)
F10 F 0.2639(8) -0.3780(8) 0.6173(6)
F11 F 0.1143(8) -0.3499(8) 0.5125(6)
F12 F 0.1881(8) -0.2947(8) 0.6403(6)
loop_
_geom_bond_atom_site_label_1
_geom_bond_atom_site_label_2
_geom_bond_site_symmetry_1
_geom_bond_site_symmetry_2
W1 S1 1_555 1_555
W2 S4 1_555 1_555
Cu1 S1 1_555 1_555
Cu2 S1 1_555 1_555
Cu3 S2 1_555 1_555
Cu4 S5 1_555 1_555
Cu5 S4 1_555 1_555
Cu6 S4 1_555 1_555
S2 W1 1_555 1_555
S3 W1 1_555 1_555
S5 W2 1_555 1_555
S6 W2 1_555 1_555
Br1 Cu1 1_555 1_555
Br2 Cu4 1_555 1_555
C1 H1 1_555 1_555
H2 C1 1_555 1_555
H3 C1 1_555 1_555
C2 C1 1_555 1_555
C3 C2 1_555 1_555
H4 C3 1_555 1_555
C4 C3 1_555 1_555
C5 C4 1_555 1_555
H5 C5 1_555 1_555
H6 C5 1_555 1_555
H7 C5 1_555 1_555
C6 H8 1_555 1_555
H9 C6 1_555 1_555
H10 C6 1_555 1_555
C7 C6 1_555 1_555
C8 C7 1_555 1_555
H11 C8 1_555 1_555
C9 C8 1_555 1_555
C10 C9 1_555 1_555
H12 C10 1_555 1_555
H13 C10 1_555 1_555
H14 C10 1_555 1_555
C11 H15 1_555 1_555
H16 C11 1_555 1_555
H17 C11 1_555 1_555
C12 C11 1_555 1_555
C13 C12 1_555 1_555
H18 C13 1_555 1_555
C14 C13 1_555 1_555
C15 C14 1_555 1_555
H19 C15 1_555 1_555
H20 C15 1_555 1_555
H21 C15 1_555 1_555
C16 H22 1_555 1_555
C17 H23 1_555 1_555
C18 C16 1_555 1_555
H24 C18 1_555 1_555
C19 C17 1_555 1_555
H25 C19 1_555 1_555
C20 C18 1_555 1_555
C21 C20 1_555 1_555
H26 C21 1_555 1_555
H27 C21 1_555 1_555
C22 H28 1_555 1_555
C23 H29 1_555 1_555
C24 C22 1_555 1_555
H30 C24 1_555 1_555
C25 C23 1_555 1_555
H31 C25 1_555 1_555
C26 C24 1_555 1_555
C27 C26 1_555 1_555
H32 C27 1_555 1_555
H33 C27 1_555 1_555
C28 H34 1_555 1_555
C29 H35 1_555 1_555
C30 C28 1_555 1_555
H36 C30 1_555 1_555
C31 C29 1_555 1_555
H37 C31 1_555 1_555
C32 C30 1_555 1_555
C33 C27 1_555 1_555
H38 C33 1_555 1_555
H39 C33 1_555 1_555
C34 H40 1_555 1_555
H41 C34 1_555 1_555
H42 C34 1_555 1_555
C35 C34 1_555 1_555
C36 C35 1_555 1_555
H43 C36 1_555 1_555
C37 C36 1_555 1_555
C38 C37 1_555 1_555
H44 C38 1_555 1_555
H45 C38 1_555 1_555
H46 C38 1_555 1_555
C39 H47 1_555 1_555
H48 C39 1_555 1_555
H49 C39 1_555 1_555
C40 C39 1_555 1_555
C41 C40 1_555 1_555
H50 C41 1_555 1_555
C42 C41 1_555 1_555
C43 C42 1_555 1_555
H51 C43 1_555 1_555
H52 C43 1_555 1_555
H53 C43 1_555 1_555
C44 H54 1_555 1_555
H55 C44 1_555 1_555
H56 C44 1_555 1_555
C45 C44 1_555 1_555
C46 C45 1_555 1_555
H57 C46 1_555 1_555
C47 C46 1_555 1_555
C48 C47 1_555 1_555
H58 C48 1_555 1_555
H59 C48 1_555 1_555
H60 C48 1_555 1_555
C49 H61 1_555 1_555
C50 H62 1_555 1_555
C51 C49 1_555 1_555
H63 C51 1_555 1_555
C52 C50 1_555 1_555
H64 C52 1_555 1_555
C53 C51 1_555 1_555
C54 C53 1_555 1_555
H65 C54 1_555 1_555
H66 C54 1_555 1_555
C55 C54 1_555 1_555
H67 C55 1_555 1_555
H68 C55 1_555 1_555
C56 H69 1_555 1_555
C57 H70 1_555 1_555
C58 C56 1_555 1_555
H71 C58 1_555 1_555
C59 C57 1_555 1_555
H72 C59 1_555 1_555
C60 C55 1_555 1_555
C61 H73 1_555 1_555
C62 H74 1_555 1_555
C63 C61 1_555 1_555
H75 C63 1_555 1_555
C64 C62 1_555 1_555
H76 C64 1_555 1_555
C65 C63 1_555 1_555
C66 C65 1_555 1_555
C67 H77 1_555 1_555
H78 C67 1_555 1_555
H79 C67 1_555 1_555
C68 C67 1_555 1_555
N1 C2 1_555 1_555
N2 W1 1_555 1_555
N3 C7 1_555 1_555
N4 W1 1_555 1_555
N5 C12 1_555 1_555
N6 W1 1_555 1_555
N7 C16 1_555 1_555
N8 C22 1_555 1_555
N9 Cu3 1_555 1_555
N10 C35 1_555 1_555
N11 W2 1_555 1_555
N12 C40 1_555 1_555
N13 W2 1_555 1_555
N14 C45 1_555 1_555
N15 W2 1_555 1_555
N16 Cu4 1_555 1_555
N17 Cu5 1_555 1_555
N18 Cu6 1_555 1_555
N19 C68 1_555 1_555
P1 F1 1_555 1_555
P2 F7 1_555 1_555
F2 P1 1_555 1_555
F3 P1 1_555 1_555
F4 P1 1_555 1_555
F5 P1 1_555 1_555
F6 P1 1_555 1_555
F8 P2 1_555 1_555
F9 P2 1_555 1_555
F10 P2 1_555 1_555
F11 P2 1_555 1_555
F12 P2 1_555 1_555
B1 N1 1_555 1_555
H80 B1 1_555 1_555
B2 N10 1_555 1_555
H81 B2 1_555 1_555
W1A S1A 1_555 1_555
W2A S4A 1_555 1_555
Cu1A N7 1_555 1_555
Cu1A_2 S1A 1_555 1_555
Cu2A N8 1_555 1_555
Cu3A S2A 1_555 1_555
Cu4A S5A 1_555 1_555
Cu5A S4A 1_555 1_555
Cu6A S4A 1_555 1_555
Cu6A_2 N18A_2 1_555 1_555
S1A Cu2A 1_555 1_555
S2A W1A 1_555 1_555
S3A W1A 1_555 1_555
S5A W2A 1_555 1_555
S6A W2A 1_555 1_555
Br1A Cu1A_2 1_555 1_555
Br2A Cu4A 1_555 1_555
C1A H1A 1_555 1_555
H2A C1A 1_555 1_555
H3A C1A 1_555 1_555
C2A C1A 1_555 1_555
C3A C2A 1_555 1_555
H4A C3A 1_555 1_555
C4A C3A 1_555 1_555
C5A C4A 1_555 1_555
H5A C5A 1_555 1_555
H6A C5A 1_555 1_555
H7A C5A 1_555 1_555
C6A H8A 1_555 1_555
H9A C6A 1_555 1_555
H10A C6A 1_555 1_555
C7A C6A 1_555 1_555
C8A C7A 1_555 1_555
H11A C8A 1_555 1_555
C9A C8A 1_555 1_555
C10A C9A 1_555 1_555
H12A C10A 1_555 1_555
H13A C10A 1_555 1_555
H14A C10A 1_555 1_555
C11A H15A 1_555 1_555
H16A C11A 1_555 1_555
H17A C11A 1_555 1_555
C12A C11A 1_555 1_555
C13A C12A 1_555 1_555
H18A C13A 1_555 1_555
C14A C13A 1_555 1_555
C15A C14A 1_555 1_555
H19A C15A 1_555 1_555
H20A C15A 1_555 1_555
H21A C15A 1_555 1_555
C16A H22A 1_555 1_555
C17A H23A 1_555 1_555
C18A C16A 1_555 1_555
H24A C18A 1_555 1_555
C19A C17A 1_555 1_555
H25A C19A 1_555 1_555
C20A C18A 1_555 1_555
C21A C21 1_555 1_555
H26A C21A 1_555 1_555
H27A C21A 1_555 1_555
C22A H28A 1_555 1_555
C23A H29A 1_555 1_555
C24A C22A 1_555 1_555
H30A C24A 1_555 1_555
C25A C23A 1_555 1_555
H31A C25A 1_555 1_555
C26A C24A 1_555 1_555
C27A C26A 1_555 1_555
H32A C27A 1_555 1_555
H33A C27A 1_555 1_555
C28A H34A 1_555 1_555
C29A H35A 1_555 1_555
C30A C28A 1_555 1_555
H36A C30A 1_555 1_555
C31A C29A 1_555 1_555
H37A C31A 1_555 1_555
C32A C30A 1_555 1_555
C33A C27A 1_555 1_555
H38A C33A 1_555 1_555
H39A C33A 1_555 1_555
C34A H40A 1_555 1_555
H41A C34A 1_555 1_555
H42A C34A 1_555 1_555
C35A C34A 1_555 1_555
C36A C35A 1_555 1_555
H43A C36A 1_555 1_555
C37A C36A 1_555 1_555
C38A C37A 1_555 1_555
H44A C38A 1_555 1_555
H45A C38A 1_555 1_555
H46A C38A 1_555 1_555
C39A H47A 1_555 1_555
H48A C39A 1_555 1_555
H49A C39A 1_555 1_555
C40A C39A 1_555 1_555
C41A C40A 1_555 1_555
H50A C41A 1_555 1_555
C42A C41A 1_555 1_555
C43A C42A 1_555 1_555
H51A C43A 1_555 1_555
H52A C43A 1_555 1_555
H53A C43A 1_555 1_555
C44A H54A 1_555 1_555
H55A C44A 1_555 1_555
H56A C44A 1_555 1_555
C45A C44A 1_555 1_555
C46A C45A 1_555 1_555
H57A C46A 1_555 1_555
C47A C46A 1_555 1_555
C48A C47A 1_555 1_555
H58A C48A 1_555 1_555
H59A C48A 1_555 1_555
H60A C48A 1_555 1_555
C49A H61A 1_555 1_555
C50A H62A 1_555 1_555
C51A C49A 1_555 1_555
H63A C51A 1_555 1_555
C52A C50A 1_555 1_555
H64A C52A 1_555 1_555
C53A C51A 1_555 1_555
C54A C53A 1_555 1_555
H65A C54A 1_555 1_555
H66A C54A 1_555 1_555
C55A C54A 1_555 1_555
H67A C55A 1_555 1_555
H68A C55A 1_555 1_555
C56A N17 1_555 1_555
H69A C56A 1_555 1_555
C57A N17 1_555 1_555
H70A C57A 1_555 1_555
C58A C56A 1_555 1_555
H71A C58A 1_555 1_555
C59A C57A 1_555 1_555
H72A C59A 1_555 1_555
C60A C55A 1_555 1_555
C61A H73A 1_555 1_555
C62A H74A 1_555 1_555
C63A C61A 1_555 1_555
H75A C63A 1_555 1_555
C64A C62A 1_555 1_555
H76A C64A 1_555 1_555
C65A C63A 1_555 1_555
C66A C66 1_555 1_555
N1A C2A 1_555 1_555
N2A W1A 1_555 1_555
N3A C7A 1_555 1_555
N4A W1A 1_555 1_555
N5A C12A 1_555 1_555
N6A W1A 1_555 1_555
N7A Cu1 1_555 1_555
N7_2 Cu1A_2 1_555 1_555
N8A Cu2 1_555 1_555
N9A Cu3A 1_555 1_555
N10A C35A 1_555 1_555
N11A W2A 1_555 1_555
N12A C40A 1_555 1_555
N13A W2A 1_555 1_555
N14A C45A 1_555 1_555
N15A W2A 1_555 1_555
N16A Cu4A 1_555 1_555
N17A C56 1_555 1_555
N18A Cu6A 1_555 1_555
N18A_2 C61A 1_555 1_555
B1A N1A 1_555 1_555
H80A B1A 1_555 1_555
B2A N10A 1_555 1_555
H81A B2A 1_555 1_555
Cu1 S2 1_555 1_555
Cu2 S3 1_555 1_555
Cu2 Br1 1_555 1_555
Cu3 S3 1_555 1_555
Cu3 Br1 1_555 1_555
Cu4 S6 1_555 1_555
Cu5 S5 1_555 1_555
Cu5 Br2 1_555 1_555
Cu6 S6 1_555 1_555
Cu6 Br2 1_555 1_555
C4 N2 1_555 1_555
C9 N4 1_555 1_555
C14 N6 1_555 1_555
C17 N7 1_555 1_555
C19 C20 1_555 1_555
C23 N8 1_555 1_555
C25 C26 1_555 1_555
C28 N9 1_555 1_555
C29 N9 1_555 1_555
C31 C32 1_555 1_555
C32 C33 1_555 1_555
C37 N11 1_555 1_555
C42 N13 1_555 1_555
C47 N15 1_555 1_555
C49 N16 1_555 1_555
C50 N16 1_555 1_555
C52 C53 1_555 1_555
C57 N17A 1_555 1_555
C58 C60 1_555 1_555
C59 C60 1_555 1_555
C61 N18 1_555 1_555
C62 N18 1_555 1_555
C64 C65 1_555 1_555
N1 N2 1_555 1_555
N3 N4 1_555 1_555
N3 B1 1_555 1_555
N5 N6 1_555 1_555
N5 B1 1_555 1_555
N10 N11 1_555 1_555
N12 N13 1_555 1_555
N12 B2 1_555 1_555
N14 N15 1_555 1_555
N14 B2 1_555 1_555
Cu1A_2 S2A 1_555 1_555
Cu2A S3A 1_555 1_555
Cu2A Br1A 1_555 1_555
Cu3A S3A 1_555 1_555
Cu3A Br1A 1_555 1_555
Cu4A S6A 1_555 1_555
Cu5A S5A 1_555 1_555
Cu5A Br2A 1_555 1_555
Cu5A N17A 1_555 1_555
Cu6A S6A 1_555 1_555
Cu6A Br2A 1_555 1_555
C4A N2A 1_555 1_555
C9A N4A 1_555 1_555
C14A N6A 1_555 1_555
C16A N7A 1_555 1_555
C17A N7A 1_555 1_555
C19A C20A 1_555 1_555
C20A C21A 1_555 1_555
C22A N8A 1_555 1_555
C23A N8A 1_555 1_555
C25A C26A 1_555 1_555
C28A N9A 1_555 1_555
C29A N9A 1_555 1_555
C31A C32A 1_555 1_555
C32A C33A 1_555 1_555
C37A N11A 1_555 1_555
C42A N13A 1_555 1_555
C47A N15A 1_555 1_555
C49A N16A 1_555 1_555
C50A N16A 1_555 1_555
C52A C53A 1_555 1_555
C58A C60A 1_555 1_555
C59A C60A 1_555 1_555
C62A N18A_2 1_555 1_555
C64A C65A 1_555 1_555
C65A C66A 1_555 1_555
N1A N2A 1_555 1_555
N3A N4A 1_555 1_555
N3A B1A 1_555 1_555
N5A N6A 1_555 1_555
N5A B1A 1_555 1_555
N10A N11A 1_555 1_555
N12A N13A 1_555 1_555
N12A B2A 1_555 1_555
N14A N15A 1_555 1_555
N14A B2A 1_555 1_555

#END
