
#######################################################################
#
#                 Cambridge Crystallographic Data Centre
#                                CCDC 
#
#######################################################################
#
# If this CIF has been generated from an entry in the Cambridge 
# Structural Database, then it will include bibliographic, chemical, 
# crystal, experimental, refinement or atomic coordinate data resulting 
# from the CCDC's data processing and validation procedures.
#
#######################################################################

data_XOYSUA
_symmetry_cell_setting           monoclinic
_symmetry_space_group_name_H-M   'C 2/c'
_symmetry_Int_Tables_number      15
_space_group_name_Hall           '-C 2yn'
loop_
_symmetry_equiv_pos_site_id
_symmetry_equiv_pos_as_xyz
1 x,y,z
2 -x,y,1/2-z
3 1/2+x,1/2+y,z
4 1/2-x,1/2+y,1/2-z
5 -x,-y,-z
6 x,-y,1/2+z
7 1/2-x,1/2-y,-z
8 1/2+x,1/2-y,1/2+z
_cell_length_a                   6.97005(81)
_cell_length_b                   11.9049(15)
_cell_length_c                   10.7713(16)
_cell_angle_alpha                90
_cell_angle_beta                 93.2977(73)
_cell_angle_gamma                90
_cell_volume                     892.298
loop_
_atom_site_label
_atom_site_type_symbol
_atom_site_fract_x
_atom_site_fract_y
_atom_site_fract_z
Co1 Co 0.75000 0.75000 0.00000
O1 O 0.4914(12) 0.7447(21) 0.08887(91)
N1 N 0.901310 0.701840 0.157490
C1 C 1.00000 0.758960 0.25000
H1 H 1.00000 0.838760 0.25000
C2 C 0.901310 0.587600 0.157490
C3 C 1.00000 0.530490 0.25000
H2 H 1.00000 0.450690 0.25000
C4 C 0.792470 0.524610 0.055460
O2 O 0.769030 0.420940 0.065080
O3 O 0.717650 0.576200 -0.036090
Co1A Co 1.25000 0.75000 0.50000
O1F O 1.0086(12) 0.7553(21) -0.08887(91)
N1A N 1.098690 0.701840 0.342510
N1F N 0.598690 0.798160 -0.157490
C2A C 1.098690 0.587600 0.342510
C4A C 1.207530 0.524610 0.444540
O2A O 1.230970 0.420940 0.434920
O3A O 1.282350 0.576200 0.536090
O3F O 0.782350 0.923800 0.036090
loop_
_geom_bond_atom_site_label_1
_geom_bond_atom_site_label_2
_geom_bond_site_symmetry_1
_geom_bond_site_symmetry_2
Co1 O1 1_555 1_555
N1 Co1 1_555 1_555
C1 N1 1_555 1_555
H1 C1 1_555 1_555
C2 N1 1_555 1_555
C3 C2 1_555 1_555
H2 C3 1_555 1_555
C4 C2 1_555 1_555
O2 C4 1_555 1_555
O3 Co1 1_555 1_555
Co1A N1A 1_555 1_555
O1F Co1 1_555 1_555
N1A C1 1_555 1_555
N1F Co1 1_555 1_555
C2A C3 1_555 1_555
C4A C2A 1_555 1_555
O2A C4A 1_555 1_555
O3A Co1A 1_555 1_555
O3F Co1 1_555 1_555
C4 O3 1_555 1_555
N1A C2A 1_555 1_555
C4A O3A 1_555 1_555

#END
