
#######################################################################
#
#                 Cambridge Crystallographic Data Centre
#                                CCDC 
#
#######################################################################
#
# If this CIF has been generated from an entry in the Cambridge 
# Structural Database, then it will include bibliographic, chemical, 
# crystal, experimental, refinement or atomic coordinate data resulting 
# from the CCDC's data processing and validation procedures.
#
#######################################################################

data_XOYSOU
_symmetry_cell_setting           monoclinic
_symmetry_space_group_name_H-M   'C 2/c'
_symmetry_Int_Tables_number      15
_space_group_name_Hall           '-C 2yn'
loop_
_symmetry_equiv_pos_site_id
_symmetry_equiv_pos_as_xyz
1 x,y,z
2 -x,y,1/2-z
3 1/2+x,1/2+y,z
4 1/2-x,1/2+y,1/2-z
5 -x,-y,-z
6 x,-y,1/2+z
7 1/2-x,1/2-y,-z
8 1/2+x,1/2-y,1/2+z
_cell_length_a                   7.16618(91)
_cell_length_b                   12.0359(12)
_cell_length_c                   10.5854(14)
_cell_angle_alpha                90
_cell_angle_beta                 96.4907(65)
_cell_angle_gamma                90
_cell_volume                     907.154
loop_
_atom_site_label
_atom_site_type_symbol
_atom_site_fract_x
_atom_site_fract_y
_atom_site_fract_z
Ni1 Ni 0.75000 0.75000 0.00000
O1 O 0.98092(67) 0.7501(13) -0.09791(59)
N1 N 0.901770 0.702860 0.152960
C1 C 1.00000 0.759360 0.25000
H1 H 1.00000 0.838290 0.25000
C2 C 0.901770 0.589870 0.152960
C3 C 1.00000 0.533370 0.25000
H2 H 1.00000 0.454440 0.25000
C4 C 0.793420 0.527550 0.045930
O3 O 0.790240 0.423720 0.047260
O4 O 0.705290 0.579460 -0.044160
Ni1A Ni 1.25000 0.75000 0.50000
O1F O 0.51908(67) 0.7499(13) 0.09791(59)
N1A N 1.098230 0.702860 0.347040
N1F N 0.598230 0.797140 -0.152960
C2A C 1.098230 0.589870 0.347040
C4A C 1.206580 0.527550 0.454070
O3A O 1.209760 0.423720 0.452740
O4A O 1.294710 0.579460 0.544160
O4F O 0.794710 0.920540 0.044160
O2 O 0.00000 0.0524(13) -0.75
loop_
_geom_bond_atom_site_label_1
_geom_bond_atom_site_label_2
_geom_bond_site_symmetry_1
_geom_bond_site_symmetry_2
Ni1 O1 1_555 1_555
N1 Ni1 1_555 1_555
C1 N1 1_555 1_555
H1 C1 1_555 1_555
C2 N1 1_555 1_555
C3 C2 1_555 1_555
H2 C3 1_555 1_555
C4 C2 1_555 1_555
O3 C4 1_555 1_555
O4 Ni1 1_555 1_555
Ni1A N1A 1_555 1_555
O1F Ni1 1_555 1_555
N1A C1 1_555 1_555
N1F Ni1 1_555 1_555
C2A C3 1_555 1_555
C4A C2A 1_555 1_555
O3A C4A 1_555 1_555
O4A Ni1A 1_555 1_555
O4F Ni1 1_555 1_555
C4 O4 1_555 1_555
N1A C2A 1_555 1_555
C4A O4A 1_555 1_555

#END
