
#######################################################################
#
#                 Cambridge Crystallographic Data Centre
#                                CCDC 
#
#######################################################################
#
# If this CIF has been generated from an entry in the Cambridge 
# Structural Database, then it will include bibliographic, chemical, 
# crystal, experimental, refinement or atomic coordinate data resulting 
# from the CCDC's data processing and validation procedures.
#
#######################################################################

data_XOYTIP
_symmetry_cell_setting           triclinic
_symmetry_space_group_name_H-M   'P -1'
_symmetry_Int_Tables_number      2
_space_group_name_Hall           '-P 1'
loop_
_symmetry_equiv_pos_site_id
_symmetry_equiv_pos_as_xyz
1 x,y,z
2 -x,-y,-z
_cell_length_a                   5.14948(49)
_cell_length_b                   6.72065(62)
_cell_length_c                   10.3797(11)
_cell_angle_alpha                86.5106(61)
_cell_angle_beta                 100.130(10)
_cell_angle_gamma                108.1225(71)
_cell_volume                     336.07
loop_
_atom_site_label
_atom_site_type_symbol
_atom_site_fract_x
_atom_site_fract_y
_atom_site_fract_z
Cu1 Cu 0.00000 1.00000 0.00000
Cu2 Cu 0.00000 0.50000 0.50000
N1 N 0.092843 0.847763 0.154359
C1 C -0.037621 0.690455 0.231223
H1 H -0.222585 0.606977 0.201475
N2 N 0.096706 0.652652 0.350675
C2 C 0.361497 0.772157 0.393261
C3 C 0.491961 0.929465 0.316397
H2 H 0.676925 1.012943 0.346145
C4 C 0.357634 0.967268 0.196946
C5 C 0.501527 1.14077 0.112169
O1 O 0.756613 1.228026 0.140878
O2 O 0.366354 1.198098 0.012811
C6 C 0.509652 0.730463 0.525009
O3 O 0.374551 0.629394 0.609494
O4 O 0.768215 0.796787 0.550315
Cu2_2 Cu 0.00000 1.50000 -0.50000
N1A N -0.092843 1.152237 -0.154359
C1A C 0.037621 1.309545 -0.231223
H1A H 0.222585 1.393023 -0.201475
N2A N -0.096706 0.347348 0.649325
N2A_2 N -0.096706 1.347348 -0.350675
C2A C -0.361497 1.227843 -0.393261
C3A C -0.491961 1.070535 -0.316397
H2A H -0.676925 0.987057 -0.346145
C4A C -0.357634 1.032732 -0.196946
C5A C -0.501527 0.85923 -0.112169
O1A O -0.756613 0.771974 -0.140878
O2A O -0.366354 0.801902 -0.012811
C6A C -0.509652 1.269537 -0.525009
O3A O -0.374551 0.370606 0.390506
O3A_2 O -0.374551 1.370606 -0.609494
O4A O -0.768215 1.203213 -0.550315
loop_
_geom_bond_atom_site_label_1
_geom_bond_atom_site_label_2
_geom_bond_site_symmetry_1
_geom_bond_site_symmetry_2
Cu1 N1 1_555 1_555
Cu2 N2 1_555 1_555
N1 C1 1_555 1_555
C1 H1 1_555 1_555
N2 C1 1_555 1_555
C2 N2 1_555 1_555
C3 C2 1_555 1_555
H2 C3 1_555 1_555
C4 N1 1_555 1_555
C5 C4 1_555 1_555
O1 C5 1_555 1_555
O2 Cu1 1_555 1_555
C6 C2 1_555 1_555
O3 Cu2 1_555 1_555
O4 C6 1_555 1_555
Cu2_2 N2A_2 1_555 1_555
N1A Cu1 1_555 1_555
C1A N1A 1_555 1_555
H1A C1A 1_555 1_555
N2A Cu2 1_555 1_555
N2A_2 C1A 1_555 1_555
C2A N2A_2 1_555 1_555
C3A C2A 1_555 1_555
H2A C3A 1_555 1_555
C4A N1A 1_555 1_555
C5A C4A 1_555 1_555
O1A C5A 1_555 1_555
O2A Cu1 1_555 1_555
C6A C2A 1_555 1_555
O3A Cu2 1_555 1_555
O3A_2 Cu2_2 1_555 1_555
O4A C6A 1_555 1_555
C3 C4 1_555 1_555
C5 O2 1_555 1_555
C6 O3 1_555 1_555
C3A C4A 1_555 1_555
C5A O2A 1_555 1_555
C6A O3A_2 1_555 1_555

#END
