
#######################################################################
#
#                 Cambridge Crystallographic Data Centre
#                                CCDC 
#
#######################################################################
#
# If this CIF has been generated from an entry in the Cambridge 
# Structural Database, then it will include bibliographic, chemical, 
# crystal, experimental, refinement or atomic coordinate data resulting 
# from the CCDC's data processing and validation procedures.
#
#######################################################################

data_XOYWIT
_symmetry_cell_setting           monoclinic
_symmetry_space_group_name_H-M   'P 21/c'
_symmetry_Int_Tables_number      14
_space_group_name_Hall           '-P 2ybc'
loop_
_symmetry_equiv_pos_site_id
_symmetry_equiv_pos_as_xyz
1 x,y,z
2 -x,1/2+y,1/2-z
3 -x,-y,-z
4 x,1/2-y,1/2+z
_cell_length_a                   7.8224(2)
_cell_length_b                   14.1255(4)
_cell_length_c                   8.8197(3)
_cell_angle_alpha                90
_cell_angle_beta                 91.558(2)
_cell_angle_gamma                90
_cell_volume                     974.175
loop_
_atom_site_label
_atom_site_type_symbol
_atom_site_fract_x
_atom_site_fract_y
_atom_site_fract_z
Cu1 Cu 0.5000 0.0000 0.0000
S1 S 0.23317(11) -0.04341(7) 0.45310(9)
C1 C 0.3510(3) -0.03384(18) 0.3077(3)
N1 N 0.3626(2) 0.11804(13) 0.0035(2)
N2 N 0.2177(3) 0.13373(14) -0.0810(2)
N3 N 0.4321(3) -0.02802(18) 0.2042(3)
C2 C 0.1706(4) 0.2252(2) -0.0686(3)
C3 C 0.0112(5) 0.2629(3) -0.1461(4)
H1 H 0.0171 0.2526 -0.2534
H2 H 0.0015 0.3295 -0.1263
H3 H -0.0868 0.2306 -0.1080
C4 C 0.2875(4) 0.26845(19) 0.0247(3)
H4 H 0.2878 0.3318 0.0535
C5 C 0.4058(3) 0.20021(17) 0.0685(3)
C6 C 0.5602(4) 0.2083(2) 0.1689(4)
H5 H 0.5746 0.1511 0.2265
H6 H 0.5472 0.2608 0.2367
H7 H 0.6588 0.2183 0.1084
C7 C 0.1348(3) 0.0552(2) -0.1610(3)
H8 H 0.2170 0.0254 -0.2261
H9 H 0.0426 0.0799 -0.2254
C8 C 0.0627(3) -0.0191(2) -0.0559(3)
H10 H 0.0063 -0.0676 -0.1169
H11 H 0.1568 -0.0489 -0.0001
N1B N -0.3626(2) -0.11804(13) -0.0035(2)
N2B N -0.2177(3) -0.13373(14) 0.0810(2)
C2B C -0.1706(4) -0.2252(2) 0.0686(3)
C3B C -0.0112(5) -0.2629(3) 0.1461(4)
H1B H -0.0171 -0.2526 0.2534
H2B H -0.0015 -0.3295 0.1263
H3B H 0.0868 -0.2306 0.1080
C4B C -0.2875(4) -0.26845(19) -0.0247(3)
H4B H -0.2878 -0.3318 -0.0535
C5B C -0.4058(3) -0.20021(17) -0.0685(3)
C6B C -0.5602(4) -0.2083(2) -0.1689(4)
H5B H -0.5746 -0.1511 -0.2265
H6B H -0.5472 -0.2608 -0.2367
H7B H -0.6588 -0.2183 -0.1084
C7B C -0.1348(3) -0.0552(2) 0.1610(3)
H8B H -0.2170 -0.0254 0.2261
H9B H -0.0426 -0.0799 0.2254
C8B C -0.0627(3) 0.0191(2) 0.0559(3)
H10B H -0.0063 0.0676 0.1169
H11B H -0.1568 0.0489 0.0001
S1B S 0.76683(11) 0.04341(7) -0.45310(9)
C1B C 0.6490(3) 0.03384(18) -0.3077(3)
N3B N 0.5679(3) 0.02802(18) -0.2042(3)
Cu1_2 Cu -0.5000 0.0000 0.0000
N1B_2 N 0.6374(2) -0.11804(13) -0.0035(2)
loop_
_geom_bond_atom_site_label_1
_geom_bond_atom_site_label_2
_geom_bond_site_symmetry_1
_geom_bond_site_symmetry_2
Cu1 N1 1_555 1_555
S1 C1 1_555 1_555
C1 N3 1_555 1_555
N1 N2 1_555 1_555
N2 C2 1_555 1_555
N3 Cu1 1_555 1_555
C2 C3 1_555 1_555
C3 H1 1_555 1_555
H2 C3 1_555 1_555
H3 C3 1_555 1_555
C4 C2 1_555 1_555
H4 C4 1_555 1_555
C5 N1 1_555 1_555
C6 C5 1_555 1_555
H5 C6 1_555 1_555
H6 C6 1_555 1_555
H7 C6 1_555 1_555
C7 N2 1_555 1_555
H8 C7 1_555 1_555
H9 C7 1_555 1_555
C8 C7 1_555 1_555
H10 C8 1_555 1_555
H11 C8 1_555 1_555
N1B N2B 1_555 1_555
N2B C2B 1_555 1_555
C2B C3B 1_555 1_555
C3B H1B 1_555 1_555
H2B C3B 1_555 1_555
H3B C3B 1_555 1_555
C4B C2B 1_555 1_555
H4B C4B 1_555 1_555
C5B N1B 1_555 1_555
C6B C5B 1_555 1_555
H5B C6B 1_555 1_555
H6B C6B 1_555 1_555
H7B C6B 1_555 1_555
C7B N2B 1_555 1_555
H8B C7B 1_555 1_555
H9B C7B 1_555 1_555
C8B C8 1_555 1_555
H10B C8B 1_555 1_555
H11B C8B 1_555 1_555
S1B C1B 1_555 1_555
C1B N3B 1_555 1_555
N3B Cu1 1_555 1_555
Cu1_2 N1B 1_555 1_555
N1B_2 Cu1 1_555 1_555
C4 C5 1_555 1_555
C4B C5B 1_555 1_555
C7B C8B 1_555 1_555

#END
