
#######################################################################
#
#                 Cambridge Crystallographic Data Centre
#                                CCDC 
#
#######################################################################
#
# If this CIF has been generated from an entry in the Cambridge 
# Structural Database, then it will include bibliographic, chemical, 
# crystal, experimental, refinement or atomic coordinate data resulting 
# from the CCDC's data processing and validation procedures.
#
#######################################################################

data_XOZGOK
_symmetry_cell_setting           triclinic
_symmetry_space_group_name_H-M   'P -1'
_symmetry_Int_Tables_number      2
_space_group_name_Hall           '-P 1'
loop_
_symmetry_equiv_pos_site_id
_symmetry_equiv_pos_as_xyz
1 x,y,z
2 -x,-y,-z
_cell_length_a                   9.0888(5)
_cell_length_b                   10.2251(7)
_cell_length_c                   11.7223(6)
_cell_angle_alpha                85.734(5)
_cell_angle_beta                 68.972(5)
_cell_angle_gamma                67.644(6)
_cell_volume                     937.986
loop_
_atom_site_label
_atom_site_type_symbol
_atom_site_fract_x
_atom_site_fract_y
_atom_site_fract_z
O1 O 0.4754(3) 0.7481(2) -0.2066(2)
O2 O 0.6580(3) 0.5848(2) -0.1384(2)
O3 O 0.5343(3) 0.0343(2) -0.20975(19)
O4 O 0.5732(3) 0.1204(2) -0.05993(19)
C1 C 0.1487(4) 0.1439(4) 0.4264(3)
H1 H 0.2404 0.0600 0.4218
C2 C -0.0038(10) 0.3241(11) 0.3799(5)
H2 H -0.0475 0.3999 0.3368
C3 C -0.0873(10) 0.3049(11) 0.4964(5)
H3 H -0.1964 0.3630 0.5462
C4 C -0.0201(5) 0.1280(5) 0.6434(3)
H4 H 0.0565 0.0292 0.6321
H5 H -0.1359 0.1314 0.6743
C5 C 0.0048(4) 0.2042(4) 0.7357(3)
H6 H -0.0756 0.3019 0.7507
H7 H 0.1191 0.2043 0.7040
C6 C -0.0223(5) 0.1305(4) 0.8543(3)
H8 H -0.1399 0.1387 0.8895
H9 H 0.0498 0.0306 0.8372
C7 C 0.1523(4) 0.1317(3) 0.9760(3)
H10 H 0.2330 0.0404 0.9490
C8 C -0.0667(6) 0.3253(5) 0.9969(4)
H11 H -0.1647 0.3938 0.9894
C9 C 0.0196(6) 0.3388(5) 1.0646(4)
H12 H -0.0101 0.4195 1.1129
C10 C 0.5473(4) 0.6211(3) -0.1865(3)
C11 C 0.5360(3) 0.1342(3) -0.1542(3)
C12 C 0.4958(3) 0.2756(3) -0.2090(2)
C13 C 0.5306(3) 0.3809(3) -0.1709(2)
H13 H 0.5750 0.3656 -0.1086
C14 C 0.5002(4) 0.5105(3) -0.2244(3)
C15 C 0.4279(4) 0.5332(3) -0.3131(3)
H14 H 0.4020 0.6207 -0.3468
C16 C 0.3937(5) 0.4280(4) -0.3523(3)
H15 H 0.3467 0.4441 -0.4132
C17 C 0.4290(4) 0.2988(3) -0.3015(3)
H16 H 0.4081 0.2272 -0.3292
Cd1 Cd 0.35338(3) 0.17668(2) 0.138042(17)
N1 N 0.1463(4) 0.2228(4) 0.3353(3)
N2 N 0.0121(4) 0.1909(5) 0.5261(3)
N3 N 0.0174(3) 0.1920(3) 0.9417(2)
N4 N 0.1577(3) 0.2157(3) 1.0516(2)
O1A O 0.5246(3) 0.2519(2) 0.2066(2)
O2A O 0.3420(3) 0.4152(2) 0.1384(2)
O3A O 0.4657(3) -0.0343(2) 0.20975(19)
Cd1_2 Cd 0.35338(3) 0.17668(2) 1.138042(17)
Cd1A Cd 0.64662(3) -0.17668(2) -0.138042(17)
Cd1A_2 Cd 0.64662(3) 0.82332(2) -0.138042(17)
N4_2 N 0.1577(3) 0.2157(3) 0.0516(2)
O5 O 0.5989(7) 0.0675(6) 0.3937(5)
H17 H 0.551(5) 0.019(4) 0.422(4)
H18 H 0.645(5) 0.108(4) 0.344(3)
loop_
_geom_bond_atom_site_label_1
_geom_bond_atom_site_label_2
_geom_bond_site_symmetry_1
_geom_bond_site_symmetry_2
O1 C10 1_555 1_555
O2 C10 1_555 1_555
O3 C11 1_555 1_555
O4 C11 1_555 1_555
C1 H1 1_555 1_555
C2 H2 1_555 1_555
C3 C2 1_555 1_555
H3 C3 1_555 1_555
C4 H4 1_555 1_555
H5 C4 1_555 1_555
C5 C4 1_555 1_555
H6 C5 1_555 1_555
H7 C5 1_555 1_555
C6 C5 1_555 1_555
H8 C6 1_555 1_555
H9 C6 1_555 1_555
C7 H10 1_555 1_555
C8 H11 1_555 1_555
C9 C8 1_555 1_555
H12 C9 1_555 1_555
C10 C14 1_555 1_555
C11 C12 1_555 1_555
C12 C13 1_555 1_555
C13 H13 1_555 1_555
C14 C13 1_555 1_555
C15 C14 1_555 1_555
H14 C15 1_555 1_555
C16 C15 1_555 1_555
H15 C16 1_555 1_555
C17 C12 1_555 1_555
H16 C17 1_555 1_555
Cd1 O4 1_555 1_555
N1 C1 1_555 1_555
N2 C1 1_555 1_555
N3 C6 1_555 1_555
N4 C7 1_555 1_555
O5 H17 1_555 1_555
H18 O5 1_555 1_555
O1A Cd1 1_555 1_555
O2A Cd1 1_555 1_555
O3A Cd1 1_555 1_555
Cd1_2 N4 1_555 1_555
Cd1A O3 1_555 1_555
Cd1A_2 O1 1_555 1_555
N4_2 Cd1 1_555 1_555
O2 Cd1A_2 1_555 1_555
C2 N1 1_555 1_555
C3 N2 1_555 1_555
C4 N2 1_555 1_555
C7 N3 1_555 1_555
C8 N3 1_555 1_555
C9 N4 1_555 1_555
C16 C17 1_555 1_555
Cd1 N1 1_555 1_555

#END
