
#######################################################################
#
#                 Cambridge Crystallographic Data Centre
#                                CCDC 
#
#######################################################################
#
# If this CIF has been generated from an entry in the Cambridge 
# Structural Database, then it will include bibliographic, chemical, 
# crystal, experimental, refinement or atomic coordinate data resulting 
# from the CCDC's data processing and validation procedures.
#
#######################################################################

data_XOZGIE
_symmetry_cell_setting           triclinic
_symmetry_space_group_name_H-M   'P -1'
_symmetry_Int_Tables_number      2
_space_group_name_Hall           '-P 1'
loop_
_symmetry_equiv_pos_site_id
_symmetry_equiv_pos_as_xyz
1 x,y,z
2 -x,-y,-z
_cell_length_a                   9.1798(5)
_cell_length_b                   10.2216(5)
_cell_length_c                   11.1625(6)
_cell_angle_alpha                83.300(4)
_cell_angle_beta                 87.617(4)
_cell_angle_gamma                76.392(4)
_cell_volume                     1010.94
loop_
_atom_site_label
_atom_site_type_symbol
_atom_site_fract_x
_atom_site_fract_y
_atom_site_fract_z
Zn1 Zn 0.12756(5) 0.39722(5) 0.18734(4)
N1 N 0.2860(4) 0.3843(4) 0.0592(3)
N2 N 0.4045(4) 0.4399(4) -0.1070(3)
N3 N 0.2199(6) 0.4087(5) -0.4538(4)
N4 N 0.1801(5) 0.3698(4) -0.6365(4)
O1 O 0.0054(4) 0.5860(3) 0.1562(3)
O2 O 0.2034(4) 0.6553(3) 0.2041(4)
O3 O -0.0239(4) 1.2894(3) 0.1648(3)
O4 O 0.1861(4) 1.1375(3) 0.1982(4)
C1 C -0.1774(5) 1.0878(5) 0.1221(5)
H1 H -0.2318 1.1772 0.1108
C2 C -0.0270(5) 1.0588(5) 0.1554(4)
C3 C 0.0511(5) 0.9255(4) 0.1707(4)
H2 H 0.1513 0.9050 0.1925
C4 C -0.0162(5) 0.8214(4) 0.1544(4)
C5 C -0.1654(5) 0.8529(5) 0.1211(5)
H3 H -0.2120 0.7840 0.1090
C6 C -0.2447(5) 0.9856(5) 0.1061(5)
H4 H -0.3450 1.0059 0.0848
C7 C 0.0725(5) 0.6773(4) 0.1733(4)
C8 C 0.0494(5) 1.1674(4) 0.1743(4)
C9 C 0.2855(5) 0.4769(5) -0.0342(4)
H5 H 0.2123 0.5570 -0.0477
C10 C 0.4149(5) 0.2827(5) 0.0446(5)
H6 H 0.4463 0.2042 0.0970
C11 C 0.4859(5) 0.3170(6) -0.0578(5)
H7 H 0.5740 0.2667 -0.0892
C12 C 0.4417(6) 0.5168(7) -0.2173(4)
H8 H 0.5466 0.5194 -0.2164
H9 H 0.3824 0.6092 -0.2205
C13 C 0.4128(6) 0.4563(7) -0.3282(5)
H10 H 0.4577 0.3599 -0.3185
H11 H 0.4601 0.4967 -0.3975
C14 C 0.2478(6) 0.4785(7) -0.3510(5)
H12 H 0.1989 0.4450 -0.2791
H13 H 0.2045 0.5748 -0.3676
C15 C 0.1958(6) 0.4583(6) -0.5669(4)
H14 H 0.1906 0.5487 -0.5945
C16 C 0.2073(13) 0.2800(8) -0.4470(7)
H15 H 0.2146 0.2190 -0.3777
C17 C 0.1822(12) 0.2552(8) -0.5603(6)
H16 H 0.1686 0.1738 -0.5821
Zn1_2 Zn 0.12756(5) 0.39722(5) -0.81266(4)
Zn1_3 Zn 0.12756(5) 1.39722(5) 0.18734(4)
N4_2 N 0.1801(5) 0.3698(4) 0.3635(4)
O3_2 O -0.0239(4) 0.2894(3) 0.1648(3)
O4_2 O 0.1861(4) 0.1375(3) 0.1982(4)
O5 O 0.4301(8) 0.9539(10) 0.2955(9)
O6 O 0.2418(18) 0.7787(14) 0.4447(12)
loop_
_geom_bond_atom_site_label_1
_geom_bond_atom_site_label_2
_geom_bond_site_symmetry_1
_geom_bond_site_symmetry_2
Zn1 N1 1_555 1_555
N1 C9 1_555 1_555
N2 C9 1_555 1_555
N3 C14 1_555 1_555
N4 C15 1_555 1_555
O1 Zn1 1_555 1_555
O2 C7 1_555 1_555
O3 C8 1_555 1_555
O4 C8 1_555 1_555
C1 H1 1_555 1_555
C2 C1 1_555 1_555
C3 C2 1_555 1_555
H2 C3 1_555 1_555
C4 C3 1_555 1_555
C5 C4 1_555 1_555
H3 C5 1_555 1_555
C6 C1 1_555 1_555
H4 C6 1_555 1_555
C7 O1 1_555 1_555
C8 C2 1_555 1_555
C9 H5 1_555 1_555
C10 N1 1_555 1_555
H6 C10 1_555 1_555
C11 N2 1_555 1_555
H7 C11 1_555 1_555
C12 N2 1_555 1_555
H8 C12 1_555 1_555
H9 C12 1_555 1_555
C13 C12 1_555 1_555
H10 C13 1_555 1_555
H11 C13 1_555 1_555
C14 C13 1_555 1_555
H12 C14 1_555 1_555
H13 C14 1_555 1_555
C15 N3 1_555 1_555
H14 C15 1_555 1_555
C16 N3 1_555 1_555
H15 C16 1_555 1_555
C17 N4 1_555 1_555
H16 C17 1_555 1_555
Zn1_2 N4 1_555 1_555
Zn1_3 O3 1_555 1_555
N4_2 Zn1 1_555 1_555
O3_2 Zn1 1_555 1_555
O4_2 Zn1 1_555 1_555
O4 Zn1_3 1_555 1_555
C4 C7 1_555 1_555
C5 C6 1_555 1_555
C10 C11 1_555 1_555
C16 C17 1_555 1_555

#END
