
#######################################################################
#
#                 Cambridge Crystallographic Data Centre
#                                CCDC 
#
#######################################################################
#
# If this CIF has been generated from an entry in the Cambridge 
# Structural Database, then it will include bibliographic, chemical, 
# crystal, experimental, refinement or atomic coordinate data resulting 
# from the CCDC's data processing and validation procedures.
#
#######################################################################

data_XOZJEB
_symmetry_cell_setting           triclinic
_symmetry_space_group_name_H-M   'P -1'
_symmetry_Int_Tables_number      2
_space_group_name_Hall           '-P 1'
loop_
_symmetry_equiv_pos_site_id
_symmetry_equiv_pos_as_xyz
1 x,y,z
2 -x,-y,-z
_cell_length_a                   7.097(5)
_cell_length_b                   9.776(5)
_cell_length_c                   10.454(5)
_cell_angle_alpha                85.91(2)
_cell_angle_beta                 70.69(1)
_cell_angle_gamma                87.40(1)
_cell_volume                     682.572
loop_
_atom_site_label
_atom_site_type_symbol
_atom_site_fract_x
_atom_site_fract_y
_atom_site_fract_z
Cu1 Cu -0.12562(4) 0.48627(3) -0.11426(2)
O1 O -0.1837(3) 0.6167(2) 0.0242(2)
O2 O -0.3335(3) 0.3802(2) 0.0177(2)
O3 O -0.5833(3) 0.4087(2) 0.2099(2)
O4 O -0.4217(3) 0.6626(2) 0.2170(2)
C1 C -0.3427(3) 0.5892(2) 0.1240(2)
C2 C -0.4305(3) 0.4471(2) 0.1199(2)
N1 N 0.0706(3) 0.5988(2) -0.2563(2)
C3 C 0.1198(4) 0.7276(3) -0.2466(3)
C4 C 0.2530(4) 0.7993(3) -0.3535(3)
C5 C 0.3369(4) 0.7376(3) -0.4749(3)
C6 C 0.2884(4) 0.6048(3) -0.4864(2)
C7 C 0.1551(3) 0.5376(2) -0.3743(2)
C8 C 0.0941(3) 0.3946(2) -0.3710(2)
N2 N -0.0427(3) 0.3507(2) -0.2538(2)
C9 C -0.1052(4) 0.2219(3) -0.2380(3)
C10 C -0.0301(5) 0.1303(3) -0.3381(3)
C11 C 0.1092(4) 0.1748(3) -0.4590(3)
C12 C 0.1718(4) 0.3089(3) -0.4768(2)
H1 H 0.069(5) 0.764(3) -0.174(3)
H2 H 0.276(6) 0.895(4) -0.336(4)
H3 H 0.423(5) 0.789(4) -0.546(4)
H4 H 0.352(4) 0.563(3) -0.562(3)
H5 H -0.194(5) 0.200(4) -0.165(4)
H6 H -0.078(5) 0.042(4) -0.327(4)
H7 H 0.170(6) 0.129(4) -0.535(4)
H8 H 0.265(5) 0.340(3) -0.548(3)
O1A O 0.1837(3) 0.3833(2) -0.0242(2)
O3A O -0.4167(3) 0.5913(2) -0.2099(2)
Cu1A Cu 0.12562(4) 0.51373(3) 0.11426(2)
Cu1A_2 Cu -0.87438(4) 0.51373(3) 0.11426(2)
O5 O 0.6531(4) -0.1205(3) -0.1761(3)
O8 O 0.3731(8) 0.0665(6) -0.2250(6)
O6? O 0.0873(10) 0.0300(7) 0.0347(7)
O7? O 0.3100(10) 0.0616(7) -0.0877(7)
loop_
_geom_bond_atom_site_label_1
_geom_bond_atom_site_label_2
_geom_bond_site_symmetry_1
_geom_bond_site_symmetry_2
Cu1 O1 1_555 1_555
O1 C1 1_555 1_555
O2 Cu1 1_555 1_555
O3 C2 1_555 1_555
O4 C1 1_555 1_555
C1 C2 1_555 1_555
C2 O2 1_555 1_555
N1 Cu1 1_555 1_555
C3 N1 1_555 1_555
C4 C3 1_555 1_555
C5 C4 1_555 1_555
C6 C5 1_555 1_555
C7 N1 1_555 1_555
C8 C7 1_555 1_555
N2 Cu1 1_555 1_555
C9 N2 1_555 1_555
C10 C9 1_555 1_555
C11 C10 1_555 1_555
C12 C8 1_555 1_555
H1 C3 1_555 1_555
H2 C4 1_555 1_555
H3 C5 1_555 1_555
H4 C6 1_555 1_555
H5 C9 1_555 1_555
H6 C10 1_555 1_555
H7 C11 1_555 1_555
H8 C12 1_555 1_555
O1A Cu1 1_555 1_555
O3A Cu1 1_555 1_555
Cu1A O1 1_555 1_555
Cu1A_2 O3 1_555 1_555
C6 C7 1_555 1_555
C8 N2 1_555 1_555
C11 C12 1_555 1_555
O1A Cu1A 1_555 1_555

#END
