
#######################################################################
#
#                 Cambridge Crystallographic Data Centre
#                                CCDC 
#
#######################################################################
#
# If this CIF has been generated from an entry in the Cambridge 
# Structural Database, then it will include bibliographic, chemical, 
# crystal, experimental, refinement or atomic coordinate data resulting 
# from the CCDC's data processing and validation procedures.
#
#######################################################################

data_XOZKUU
_symmetry_cell_setting           orthorhombic
_symmetry_space_group_name_H-M   'P b c a'
_symmetry_Int_Tables_number      61
_space_group_name_Hall           '-P 2ac 2ab'
loop_
_symmetry_equiv_pos_site_id
_symmetry_equiv_pos_as_xyz
1 x,y,z
2 1/2-x,-y,1/2+z
3 -x,1/2+y,1/2-z
4 1/2+x,1/2-y,-z
5 -x,-y,-z
6 1/2+x,y,1/2-z
7 x,1/2-y,1/2+z
8 1/2-x,1/2+y,z
_cell_length_a                   10.6726(4)
_cell_length_b                   15.8618(6)
_cell_length_c                   20.2582(5)
_cell_angle_alpha                90
_cell_angle_beta                 90
_cell_angle_gamma                90
_cell_volume                     3429.44
loop_
_atom_site_label
_atom_site_type_symbol
_atom_site_fract_x
_atom_site_fract_y
_atom_site_fract_z
Zn1 Zn 0.94721(6) 0.11156(4) 0.36510(2)
C1 C 0.7186(8) -0.0079(6) 0.3183(4)
H1 H 0.6790 0.0395 0.3011
C2 C 0.8514(10) -0.0882(6) 0.3639(5)
H2 H 0.9238 -0.1075 0.3845
C3 C 0.7533(9) -0.1365(6) 0.3462(5)
H3 H 0.7447 -0.1941 0.3532
C4 C 0.5533(9) -0.1125(7) 0.2892(7)
H4 H 0.5508 -0.0933 0.2438
H5 H 0.5527 -0.1737 0.2882
C5 C 0.4414(12) -0.0858(12) 0.3202(7)
H6 H 0.4023 -0.0480 0.2888
H7 H 0.3888 -0.1356 0.3215
C6 C 0.4244(12) -0.0472(14) 0.3816(9)
H8 H 0.4862 -0.0026 0.3849
H9 H 0.4456 -0.0887 0.4150
C7 C 0.2167(9) 0.0199(8) 0.3652(5)
H10 H 0.2196 0.0255 0.3195
C8 C 0.2753(14) -0.0036(15) 0.4626(8)
H11 H 0.3229 -0.0172 0.4996
C9 C 0.1584(14) 0.0289(17) 0.4611(6)
H12 H 0.1106 0.0396 0.4986
C10 C 0.9440(7) 0.1667(5) 0.2393(3)
C11 C 0.9370(7) 0.1961(5) 0.1689(4)
C12 C 1.0416(7) 0.1903(6) 0.1292(4)
H13 H 1.1159 0.1689 0.1464
C13 C 1.0368(7) 0.2160(5) 0.0640(4)
H14 H 1.1071 0.2101 0.0373
C14 C 0.9282(7) 0.2504(5) 0.0382(4)
C15 C 0.8247(8) 0.2550(6) 0.0799(4)
H15 H 0.7502 0.2769 0.0633
C16 C 0.8278(7) 0.2289(6) 0.1433(4)
H16 H 0.7566 0.2331 0.1695
C17 C 0.9282(8) 0.2856(6) -0.0288(4)
N1 N 0.8280(7) -0.0075(4) 0.3469(3)
N2 N 0.6713(7) -0.0862(5) 0.3170(4)
N3 N 0.3074(7) -0.0119(6) 0.3998(5)
N4 N 0.1206(7) 0.0435(5) 0.4009(4)
O1 O 1.0376(5) 0.1258(4) 0.2588(3)
O2 O 0.8535(6) 0.1830(4) 0.2771(2)
O3 O 1.0136(6) 0.2672(4) -0.0688(3)
O4 O 0.8422(6) 0.3361(4) -0.0448(3)
Zn1_2 Zn -0.05279(6) 0.11156(4) 0.36510(2)
Zn1F Zn 0.94721(6) 0.38844(4) -0.13490(2)
N4_2 N 1.1206(7) 0.0435(5) 0.4009(4)
O3F O 1.0136(6) 0.2328(4) 0.4312(3)
O4F O 0.8422(6) 0.1639(4) 0.4552(3)
loop_
_geom_bond_atom_site_label_1
_geom_bond_atom_site_label_2
_geom_bond_site_symmetry_1
_geom_bond_site_symmetry_2
Zn1 N1 1_555 1_555
C1 H1 1_555 1_555
C2 H2 1_555 1_555
C3 C2 1_555 1_555
H3 C3 1_555 1_555
C4 H4 1_555 1_555
H5 C4 1_555 1_555
C5 C4 1_555 1_555
H6 C5 1_555 1_555
H7 C5 1_555 1_555
C6 C5 1_555 1_555
H8 C6 1_555 1_555
H9 C6 1_555 1_555
C7 H10 1_555 1_555
C8 H11 1_555 1_555
C9 C8 1_555 1_555
H12 C9 1_555 1_555
C10 C11 1_555 1_555
C11 C12 1_555 1_555
C12 H13 1_555 1_555
C13 C12 1_555 1_555
H14 C13 1_555 1_555
C14 C13 1_555 1_555
C15 C14 1_555 1_555
H15 C15 1_555 1_555
C16 C11 1_555 1_555
H16 C16 1_555 1_555
C17 C14 1_555 1_555
N1 C1 1_555 1_555
N2 C1 1_555 1_555
N3 C6 1_555 1_555
N4 C7 1_555 1_555
O1 Zn1 1_555 1_555
O2 Zn1 1_555 1_555
O3 C17 1_555 1_555
O4 C17 1_555 1_555
Zn1_2 N4 1_555 1_555
Zn1F O3 1_555 1_555
N4_2 Zn1 1_555 1_555
O3F Zn1 1_555 1_555
O4F Zn1 1_555 1_555
C2 N1 1_555 1_555
C3 N2 1_555 1_555
C4 N2 1_555 1_555
C7 N3 1_555 1_555
C8 N3 1_555 1_555
C9 N4 1_555 1_555
C10 O1 1_555 1_555
C10 O2 1_555 1_555
C15 C16 1_555 1_555
O4 Zn1F 1_555 1_555

#END
