
#######################################################################
#
#                 Cambridge Crystallographic Data Centre
#                                CCDC 
#
#######################################################################
#
# If this CIF has been generated from an entry in the Cambridge 
# Structural Database, then it will include bibliographic, chemical, 
# crystal, experimental, refinement or atomic coordinate data resulting 
# from the CCDC's data processing and validation procedures.
#
#######################################################################

data_XOZLEF
_symmetry_cell_setting           triclinic
_symmetry_space_group_name_H-M   'P -1'
_symmetry_Int_Tables_number      2
_space_group_name_Hall           '-P 1'
loop_
_symmetry_equiv_pos_site_id
_symmetry_equiv_pos_as_xyz
1 x,y,z
2 -x,-y,-z
_cell_length_a                   6.5942(7)
_cell_length_b                   9.2966(14)
_cell_length_c                   9.9628(16)
_cell_angle_alpha                64.874(15)
_cell_angle_beta                 76.697(11)
_cell_angle_gamma                76.365(11)
_cell_volume                     531.481
loop_
_atom_site_label
_atom_site_type_symbol
_atom_site_fract_x
_atom_site_fract_y
_atom_site_fract_z
Cd1 Cd 0.79408(5) 0.56566(3) 0.14455(3)
Cu1 Cu 0.5000 0.5000 0.5000
O1 O 0.6281(4) 0.2905(3) 0.5066(3)
O2 O 0.7355(5) 0.3115(3) 0.2691(3)
O3 O 0.8683(6) -0.2123(4) 0.1849(3)
O4 O 0.7652(4) -0.4188(3) 0.3810(3)
O5 O 0.8465(5) -0.4574(3) 0.8795(3)
O6 O 0.7586(5) -0.2348(4) 0.9219(3)
O7 O 0.4244(5) 0.6131(4) 0.2076(4)
H1 H 0.3893 0.6018 0.1362
H2 H 0.3062 0.5957 0.2627
C1 C 0.7431(6) 0.0525(4) 0.4646(4)
C2 C 0.7443(6) -0.0375(4) 0.6162(4)
H3 H 0.7175 0.0139 0.6822
C3 C 0.7857(6) -0.2057(5) 0.6707(4)
C4 C 0.8131(6) -0.2808(5) 0.5722(4)
H4 H 0.8379 -0.3925 0.6076
C5 C 0.8035(6) -0.1899(4) 0.4214(4)
C6 C 0.7748(6) -0.0236(5) 0.3659(4)
H5 H 0.7766 0.0367 0.2636
C7 C 0.6990(6) 0.2338(4) 0.4077(4)
C8 C 0.7985(6) -0.3031(5) 0.8327(4)
C9 C 0.8132(6) -0.2745(5) 0.3210(5)
Cd1A Cd 0.20592(5) -0.56566(3) 0.85545(3)
O1A O 0.3719(4) -0.2905(3) 0.4934(3)
O2A O 0.2645(5) -0.3115(3) 0.7309(3)
O3A O 0.1317(6) 0.2123(4) 0.8151(3)
O4A O 0.2348(4) 0.4188(3) 0.6190(3)
O5A O 0.1535(5) 0.4574(3) 0.1205(3)
O6A O 0.2414(5) 0.2348(4) 0.0781(3)
O7A O 0.5756(5) -0.6131(4) 0.7924(4)
H1A H 0.6107 -0.6018 0.8638
H2A H 0.6938 -0.5957 0.7373
C1A C 0.2569(6) -0.0525(4) 0.5354(4)
C2A C 0.2557(6) 0.0375(4) 0.3838(4)
H3A H 0.2825 -0.0139 0.3178
C3A C 0.2143(6) 0.2057(5) 0.3293(4)
C4A C 0.1869(6) 0.2808(5) 0.4278(4)
H4A H 0.1621 0.3925 0.3924
C5A C 0.1965(6) 0.1899(4) 0.5786(4)
C6A C 0.2252(6) 0.0236(5) 0.6341(4)
H5A H 0.2234 -0.0367 0.7364
C7A C 0.3010(6) -0.2338(4) 0.5923(4)
C8A C 0.2015(6) 0.3031(5) 0.1673(4)
C9A C 0.1868(6) 0.2745(5) 0.6790(5)
Cd1_2 Cd -0.20592(5) 0.56566(3) 0.14455(3)
Cd1_3 Cd 0.79408(5) -0.43434(3) 0.14455(3)
Cd1_4 Cd 0.79408(5) -0.43434(3) 1.14455(3)
Cd1A_2 Cd 0.20592(5) 0.43434(3) -0.14455(3)
Cd1A_3 Cd 0.20592(5) 0.43434(3) 0.85545(3)
Cd1A_4 Cd 1.20592(5) -0.56566(3) 0.85545(3)
Cu1_2 Cu 0.5000 -0.5000 0.5000
O1A_2 O 0.3719(4) 0.7095(3) 0.4934(3)
O3_2 O 0.8683(6) 0.7877(4) 0.1849(3)
O3A_2 O 0.1317(6) -0.7877(4) 0.8151(3)
O4_2 O 0.7652(4) 0.5812(3) 0.3810(3)
O4A_2 O 0.2348(4) -0.5812(3) 0.6190(3)
O5_2 O -0.1535(5) -0.4574(3) 0.8795(3)
O5_3 O 0.8465(5) 0.5426(3) -0.1205(3)
O5A_2 O 0.1535(5) -0.5426(3) 1.1205(3)
O5A_3 O 1.1535(5) 0.4574(3) 0.1205(3)
O6_2 O 0.7586(5) 0.7652(4) -0.0781(3)
O6A_2 O 0.2414(5) -0.7652(4) 1.0781(3)
O7A_2 O 0.5756(5) 0.3869(4) 0.7924(4)
O8 O 0.2586(9) 0.9154(5) 0.0828(6)
H6 H 0.3876 0.9276 0.0576
H7 H 0.2273 1.0117 0.0218
loop_
_geom_bond_atom_site_label_1
_geom_bond_atom_site_label_2
_geom_bond_site_symmetry_1
_geom_bond_site_symmetry_2
Cd1 O2 1_555 1_555
Cu1 O1 1_555 1_555
O1 C7 1_555 1_555
O2 C7 1_555 1_555
O3 C9 1_555 1_555
O4 C9 1_555 1_555
O5 C8 1_555 1_555
O6 C8 1_555 1_555
O7 Cd1 1_555 1_555
H1 O7 1_555 1_555
H2 O7 1_555 1_555
C1 C2 1_555 1_555
C2 H3 1_555 1_555
C3 C2 1_555 1_555
C4 C3 1_555 1_555
H4 C4 1_555 1_555
C5 C4 1_555 1_555
C6 C1 1_555 1_555
H5 C6 1_555 1_555
C7 C1 1_555 1_555
C8 C3 1_555 1_555
C9 C5 1_555 1_555
O8 H6 1_555 1_555
H7 O8 1_555 1_555
Cd1A O2A 1_555 1_555
O1A C7A 1_555 1_555
O2A C7A 1_555 1_555
O3A C9A 1_555 1_555
O4A Cu1 1_555 1_555
O5A C8A 1_555 1_555
O6A C8A 1_555 1_555
O7A Cd1A 1_555 1_555
H1A O7A 1_555 1_555
H2A O7A 1_555 1_555
C1A C2A 1_555 1_555
C2A H3A 1_555 1_555
C3A C2A 1_555 1_555
C4A C3A 1_555 1_555
H4A C4A 1_555 1_555
C5A C4A 1_555 1_555
C6A C1A 1_555 1_555
H5A C6A 1_555 1_555
C7A C1A 1_555 1_555
C8A C3A 1_555 1_555
C9A O4A 1_555 1_555
Cd1_2 O5A 1_555 1_555
Cd1_3 O3 1_555 1_555
Cd1_4 O5 1_555 1_555
Cd1A_2 O5A 1_555 1_555
Cd1A_3 O3A 1_555 1_555
Cd1A_4 O5 1_555 1_555
Cu1_2 O4 1_555 1_555
O1A_2 Cu1 1_555 1_555
O3_2 Cd1 1_555 1_555
O3A_2 Cd1A 1_555 1_555
O4_2 Cd1 1_555 1_555
O4A_2 Cd1A 1_555 1_555
O5_2 Cd1A 1_555 1_555
O5_3 Cd1 1_555 1_555
O5A_2 Cd1A 1_555 1_555
O5A_3 Cd1 1_555 1_555
O6_2 Cd1 1_555 1_555
O6A_2 Cd1A 1_555 1_555
O7A_2 Cu1 1_555 1_555
Cu1 O7 1_555 1_555
Cu1 O4_2 1_555 1_555
O4 Cd1_3 1_555 1_555
O6 Cd1_4 1_555 1_555
C5 C6 1_555 1_555
O1A Cu1_2 1_555 1_555
O4A Cd1A_3 1_555 1_555
O6A Cd1A_2 1_555 1_555
O7A Cu1_2 1_555 1_555
C5A C6A 1_555 1_555
C5A C9A 1_555 1_555
Cd1A_3 O7A_2 1_555 1_555
Cu1_2 O4A_2 1_555 1_555

#END
