
#######################################################################
#
#                 Cambridge Crystallographic Data Centre
#                                CCDC 
#
#######################################################################
#
# If this CIF has been generated from an entry in the Cambridge 
# Structural Database, then it will include bibliographic, chemical, 
# crystal, experimental, refinement or atomic coordinate data resulting 
# from the CCDC's data processing and validation procedures.
#
#######################################################################

data_XOZRAG
_symmetry_cell_setting           monoclinic
_symmetry_space_group_name_H-M   'C 2/c'
_symmetry_Int_Tables_number      15
_space_group_name_Hall           '-C 2yc'
loop_
_symmetry_equiv_pos_site_id
_symmetry_equiv_pos_as_xyz
1 x,y,z
2 1/2+x,1/2+y,z
3 1/2-x,1/2+y,1/2-z
4 -x,y,1/2-z
5 -x,-y,-z
6 1/2-x,1/2-y,-z
7 1/2+x,1/2-y,1/2+z
8 x,-y,1/2+z
_cell_length_a                   7.01875(42)
_cell_length_b                   12.6502(12)
_cell_length_c                   10.38893(86)
_cell_angle_alpha                90
_cell_angle_beta                 94.9849(32)
_cell_angle_gamma                90
_cell_volume                     918.93
loop_
_atom_site_label
_atom_site_type_symbol
_atom_site_fract_x
_atom_site_fract_y
_atom_site_fract_z
Cu1 Cu 0.75000 0.75000 0.00000
O1 O 1.05147(78) 0.77755(56) -0.10292(63)
N1 N 0.901030 0.705200 0.152450
C1 C 1.00000 0.758960 0.25000
H1 H 1.00000 0.834060 0.25000
C2 C 0.901030 0.597700 0.152450
C3 C 1.00000 0.543940 0.25000
H2 H 1.00000 0.468840 0.25000
C4 C 0.791860 0.538410 0.044870
O2 O 0.794320 0.439610 0.043800
O3 O 0.699230 0.587800 -0.044070
N1C N 1.098970 0.705200 0.347550
C2C C 1.098970 0.597700 0.347550
C4C C 1.208140 0.538410 0.455130
O2C O 1.205680 0.439610 0.456200
O3C O 1.300770 0.587800 0.544070
O1E O 0.44853(78) 0.72245(56) 0.10292(63)
Cu1C Cu 1.25000 0.75000 0.50000
N1E N 0.598970 0.794800 -0.152450
O3E O 0.800770 0.912200 0.044070
O4 O 0.00000 -0.0266(19) 0.25000
loop_
_geom_bond_atom_site_label_1
_geom_bond_atom_site_label_2
_geom_bond_site_symmetry_1
_geom_bond_site_symmetry_2
Cu1 O1 1_555 1_555
N1 Cu1 1_555 1_555
C1 N1 1_555 1_555
H1 C1 1_555 1_555
C2 N1 1_555 1_555
C3 C2 1_555 1_555
H2 C3 1_555 1_555
C4 C2 1_555 1_555
O2 C4 1_555 1_555
O3 Cu1 1_555 1_555
N1C C1 1_555 1_555
C2C C3 1_555 1_555
C4C C2C 1_555 1_555
O2C C4C 1_555 1_555
O3C C4C 1_555 1_555
O1E Cu1 1_555 1_555
Cu1C N1C 1_555 1_555
N1E Cu1 1_555 1_555
O3E Cu1 1_555 1_555
C4 O3 1_555 1_555
N1C C2C 1_555 1_555
O3C Cu1C 1_555 1_555

#END
