
#######################################################################
#
#                 Cambridge Crystallographic Data Centre
#                                CCDC 
#
#######################################################################
#
# If this CIF has been generated from an entry in the Cambridge 
# Structural Database, then it will include bibliographic, chemical, 
# crystal, experimental, refinement or atomic coordinate data resulting 
# from the CCDC's data processing and validation procedures.
#
#######################################################################

data_XOZREK
_symmetry_cell_setting           monoclinic
_symmetry_space_group_name_H-M   'C 2/c'
_symmetry_Int_Tables_number      15
_space_group_name_Hall           '-C 2yn'
loop_
_symmetry_equiv_pos_site_id
_symmetry_equiv_pos_as_xyz
1 x,y,z
2 -x,y,1/2-z
3 1/2+x,1/2+y,z
4 1/2-x,1/2+y,1/2-z
5 -x,-y,-z
6 x,-y,1/2+z
7 1/2-x,1/2-y,-z
8 1/2+x,1/2-y,1/2+z
_cell_length_a                   6.8972(14)
_cell_length_b                   11.8628(14)
_cell_length_c                   10.6916(25)
_cell_angle_alpha                90
_cell_angle_beta                 94.1109(88)
_cell_angle_gamma                90
_cell_volume                     872.537
loop_
_atom_site_label
_atom_site_type_symbol
_atom_site_fract_x
_atom_site_fract_y
_atom_site_fract_z
Ni1 Ni 0.75000 0.75000 0.00000
O1 O 0.52170(60) 0.72695(83) 0.10753(48)
N1 N 0.903940 0.707580 0.154370
C1 C 1.00000 0.764900 0.25000
H1 H 1.00000 0.844980 0.25000
C2 C 0.903940 0.592930 0.154370
C3 C 1.00000 0.535610 0.25000
H2 H 1.00000 0.455530 0.25000
C4 C 0.797990 0.529710 0.048900
O2 O 0.807170 0.424540 0.045270
O3 O 0.703480 0.582260 -0.036540
Ni1A Ni 1.25000 0.75000 0.50000
O1F O 0.97830(60) 0.77305(83) -0.10753(48)
N1A N 1.096060 0.707580 0.345630
N1F N 0.596060 0.792420 -0.154370
C2A C 1.096060 0.592930 0.345630
C4A C 1.202010 0.529710 0.451100
O2A O 1.192830 0.424540 0.454730
O3A O 1.296520 0.582260 0.536540
O3F O 0.796520 0.917740 0.036540
loop_
_geom_bond_atom_site_label_1
_geom_bond_atom_site_label_2
_geom_bond_site_symmetry_1
_geom_bond_site_symmetry_2
Ni1 O1 1_555 1_555
N1 Ni1 1_555 1_555
C1 N1 1_555 1_555
H1 C1 1_555 1_555
C2 N1 1_555 1_555
C3 C2 1_555 1_555
H2 C3 1_555 1_555
C4 C2 1_555 1_555
O2 C4 1_555 1_555
O3 Ni1 1_555 1_555
Ni1A N1A 1_555 1_555
O1F Ni1 1_555 1_555
N1A C1 1_555 1_555
N1F Ni1 1_555 1_555
C2A C3 1_555 1_555
C4A C2A 1_555 1_555
O2A C4A 1_555 1_555
O3A Ni1A 1_555 1_555
O3F Ni1 1_555 1_555
C4 O3 1_555 1_555
N1A C2A 1_555 1_555
C4A O3A 1_555 1_555

#END
