
#######################################################################
#
#                 Cambridge Crystallographic Data Centre
#                                CCDC 
#
#######################################################################
#
# If this CIF has been generated from an entry in the Cambridge 
# Structural Database, then it will include bibliographic, chemical, 
# crystal, experimental, refinement or atomic coordinate data resulting 
# from the CCDC's data processing and validation procedures.
#
#######################################################################

data_XOZXUG04
_symmetry_cell_setting           cubic
_symmetry_space_group_name_H-M   'P 21 3'
_symmetry_Int_Tables_number      198
_space_group_name_Hall           'P 2ac 2ab 3'
loop_
_symmetry_equiv_pos_site_id
_symmetry_equiv_pos_as_xyz
1 x,y,z
2 1/2-x,-y,1/2+z
3 -x,1/2+y,1/2-z
4 1/2+x,1/2-y,-z
5 z,x,y
6 1/2+z,1/2-x,-y
7 1/2-z,-x,1/2+y
8 -z,1/2+x,1/2-y
9 y,z,x
10 -y,1/2+z,1/2-x
11 1/2+y,1/2-z,-x
12 1/2-y,-z,1/2+x
_cell_length_a                   9.1451(5)
_cell_length_b                   9.1451(5)
_cell_length_c                   9.1451(5)
_cell_angle_alpha                90
_cell_angle_beta                 90
_cell_angle_gamma                90
_cell_volume                     764.831
loop_
_atom_site_label
_atom_site_type_symbol
_atom_site_fract_x
_atom_site_fract_y
_atom_site_fract_z
C1 C 0.3641(3) 0.4660(2) 0.7627(2)
H1 H 0.2656 0.4682 0.7919
O1 O 0.43029(15) 0.35079(15) 0.78345(15)
Mn1 Mn 0.63577(3) 0.63577(3) 0.63577(3)
Na1 Na 0.31493(8) 0.81493(8) 0.68507(8)
O2 O 0.41355(16) 0.58050(15) 0.70703(17)
C1D C 0.7627(2) 0.3641(3) 0.4660(2)
H1D H 0.7919 0.2656 0.4682
O1D O 0.78345(15) 0.43029(15) 0.35079(15)
O2D O 0.70703(17) 0.41355(16) 0.58050(15)
C1H C 0.4660(2) 0.7627(2) 0.3641(3)
H1H H 0.4682 0.7919 0.2656
O1H O 0.35079(15) 0.78345(15) 0.43029(15)
O2H O 0.58050(15) 0.70703(17) 0.41355(16)
O1B O 0.56971(15) 0.85079(15) 0.71655(15)
O1E O 0.28345(15) 1.06971(15) 0.64921(15)
O1F O 0.71655(15) 0.56971(15) 0.85079(15)
O1J O 0.85079(15) 0.71655(15) 0.56971(15)
Mn1A Mn 0.86423(3) 0.36423(3) 0.13577(3)
Mn1B Mn 0.36423(3) 0.13577(3) 0.86423(3)
Mn1C Mn 0.13577(3) 0.86423(3) 0.36423(3)
Na1B Na 0.68507(8) 0.31493(8) 0.81493(8)
Na1C Na 0.81493(8) 0.68507(8) 0.31493(8)
O2G O 0.29297(17) 0.91355(16) 0.91950(15)
O2J O 0.08050(15) 0.79297(17) 0.58645(16)
loop_
_geom_bond_atom_site_label_1
_geom_bond_atom_site_label_2
_geom_bond_site_symmetry_1
_geom_bond_site_symmetry_2
C1 H1 1_555 1_555
O1 C1 1_555 1_555
Mn1 O2 1_555 1_555
Na1 O2 1_555 1_555
O2 C1 1_555 1_555
C1D H1D 1_555 1_555
O1D C1D 1_555 1_555
O2D Mn1 1_555 1_555
C1H H1H 1_555 1_555
O1H Na1 1_555 1_555
O2H Mn1 1_555 1_555
O1B Mn1 1_555 1_555
O1E Na1 1_555 1_555
O1F Mn1 1_555 1_555
O1J Mn1 1_555 1_555
Mn1A O1D 1_555 1_555
Mn1B O1 1_555 1_555
Mn1C O1H 1_555 1_555
Na1B O1 1_555 1_555
Na1C O1D 1_555 1_555
O2G Na1 1_555 1_555
O2J Na1 1_555 1_555
Na1 O1B 1_555 1_555
C1D O2D 1_555 1_555
O2D Na1B 1_555 1_555
C1H O1H 1_555 1_555
C1H O2H 1_555 1_555
O2H Na1C 1_555 1_555
O1F Na1B 1_555 1_555
O1J Na1C 1_555 1_555
Mn1C O2J 1_555 1_555

#END
