
#######################################################################
#
#                 Cambridge Crystallographic Data Centre
#                                CCDC 
#
#######################################################################
#
# If this CIF has been generated from an entry in the Cambridge 
# Structural Database, then it will include bibliographic, chemical, 
# crystal, experimental, refinement or atomic coordinate data resulting 
# from the CCDC's data processing and validation procedures.
#
#######################################################################

data_XOZXUG05
_symmetry_cell_setting           cubic
_symmetry_space_group_name_H-M   'P 21 3'
_symmetry_Int_Tables_number      198
_space_group_name_Hall           'P 2ac 2ab 3'
loop_
_symmetry_equiv_pos_site_id
_symmetry_equiv_pos_as_xyz
1 x,y,z
2 1/2-x,-y,1/2+z
3 -x,1/2+y,1/2-z
4 1/2+x,1/2-y,-z
5 z,x,y
6 1/2+z,1/2-x,-y
7 1/2-z,-x,1/2+y
8 -z,1/2+x,1/2-y
9 y,z,x
10 -y,1/2+z,1/2-x
11 1/2+y,1/2-z,-x
12 1/2-y,-z,1/2+x
_cell_length_a                   9.1496(5)
_cell_length_b                   9.1496(5)
_cell_length_c                   9.1496(5)
_cell_angle_alpha                90
_cell_angle_beta                 90
_cell_angle_gamma                90
_cell_volume                     765.96
loop_
_atom_site_label
_atom_site_type_symbol
_atom_site_fract_x
_atom_site_fract_y
_atom_site_fract_z
C1 C 0.3645(3) 0.5333(3) 0.7384(3)
H1 H 0.2668 0.5310 0.7105
Mn1 Mn 0.36334(4) 0.86334(4) 0.63666(4)
Na1 Na 0.68459(10) 0.68459(10) 0.68459(10)
O1 O 0.42976(17) 0.64879(18) 0.71716(18)
O2 O 0.41435(19) 0.41891(18) 0.7930(2)
C1D C 0.7384(3) 0.3645(3) 0.5333(3)
H1D H 0.7105 0.2668 0.5310
O1D O 0.71716(18) 0.42976(17) 0.64879(18)
O2D O 0.7930(2) 0.41435(19) 0.41891(18)
C1H C 0.5333(3) 0.7384(3) 0.3645(3)
H1H H 0.5310 0.7105 0.2668
O1H O 0.64879(18) 0.71716(18) 0.42976(17)
O2H O 0.41891(18) 0.7930(2) 0.41435(19)
Mn1B Mn 0.63666(4) 0.36334(4) 0.86334(4)
Mn1C Mn 0.86334(4) 0.63666(4) 0.36334(4)
Na1A Na 0.81541(10) 0.31541(10) 0.18459(10)
Na1B Na 0.31541(10) 0.18459(10) 0.81541(10)
Na1C Na 0.18459(10) 0.81541(10) 0.31541(10)
O1G O 0.28284(18) 0.92976(17) 0.85121(18)
O1J O 0.14879(18) 0.78284(18) 0.57024(17)
O2B O 0.58565(19) 0.91891(18) 0.7070(2)
O2E O 0.2930(2) 1.08565(19) 0.58109(18)
O2F O 0.7070(2) 0.58565(19) 0.91891(18)
O2J O 0.91891(18) 0.7070(2) 0.58565(19)
loop_
_geom_bond_atom_site_label_1
_geom_bond_atom_site_label_2
_geom_bond_site_symmetry_1
_geom_bond_site_symmetry_2
C1 H1 1_555 1_555
Mn1 O1 1_555 1_555
Na1 O1 1_555 1_555
O1 C1 1_555 1_555
O2 C1 1_555 1_555
C1D H1D 1_555 1_555
O1D Na1 1_555 1_555
O2D C1D 1_555 1_555
C1H H1H 1_555 1_555
O1H Na1 1_555 1_555
O2H Mn1 1_555 1_555
Mn1B O2 1_555 1_555
Mn1C O2D 1_555 1_555
Na1A O2D 1_555 1_555
Na1B O2 1_555 1_555
Na1C O2H 1_555 1_555
O1G Mn1 1_555 1_555
O1J Mn1 1_555 1_555
O2B Mn1 1_555 1_555
O2E Mn1 1_555 1_555
O2F Na1 1_555 1_555
O2J Na1 1_555 1_555
Na1 O2B 1_555 1_555
C1D O1D 1_555 1_555
O1D Mn1B 1_555 1_555
C1H O1H 1_555 1_555
C1H O2H 1_555 1_555
O1H Mn1C 1_555 1_555
Mn1B O2F 1_555 1_555
Mn1C O2J 1_555 1_555
Na1C O1J 1_555 1_555

#END
