
#######################################################################
#
#                 Cambridge Crystallographic Data Centre
#                                CCDC 
#
#######################################################################
#
# If this CIF has been generated from an entry in the Cambridge 
# Structural Database, then it will include bibliographic, chemical, 
# crystal, experimental, refinement or atomic coordinate data resulting 
# from the CCDC's data processing and validation procedures.
#
#######################################################################

data_XOZYAN
_symmetry_cell_setting           triclinic
_symmetry_space_group_name_H-M   'P 1'
_symmetry_Int_Tables_number      1
_space_group_name_Hall           'P 1'
loop_
_symmetry_equiv_pos_site_id
_symmetry_equiv_pos_as_xyz
1 x,y,z
_cell_length_a                   6.4633(10)
_cell_length_b                   7.0452(13)
_cell_length_c                   7.0745(12)
_cell_angle_alpha                85.351(5)
_cell_angle_beta                 77.678(5)
_cell_angle_gamma                73.276(4)
_cell_volume                     301.34
loop_
_atom_site_label
_atom_site_type_symbol
_atom_site_fract_x
_atom_site_fract_y
_atom_site_fract_z
Sr1 Sr 0.8655 0.2233 0.4886
O1 O 0.7047(12) 0.2616(12) 0.8841(12)
O2 O 1.1008(8) 0.0577(7) 0.1680(8)
O3 O 0.7318(7) 0.4875(7) 0.2212(8)
O4 O 0.5132(7) 0.7905(7) 0.1841(7)
O5 O 0.4430(7) 0.4085(7) 0.5420(7)
O6 O 0.2029(7) 0.3835(6) 0.3438(7)
O7 O -0.0609(7) 0.8510(7) 0.5795(7)
O8 O -0.1531(7) 0.5663(7) 0.6182(8)
O9 O 0.5582(7) 0.1254(7) 0.3500(8)
O10 O 0.2374(7) 0.1577(8) 0.6106(8)
C1 C 0.5596(10) 0.6194(10) 0.2695(10)
C2 C 0.3843(10) 0.5903(9) 0.4415(10)
H1 H 0.3502 0.6988 0.5315
C3 C 0.1702(10) 0.5861(9) 0.3799(10)
H2 H 0.1574 0.6632 0.2592
C4 C -0.0314(10) 0.6743(10) 0.5356(10)
B1 B 0.3635(14) 0.2585(11) 0.4609(13)
H4 H 0.258(16) 0.093(17) 0.514(16)
H5 H 0.693(15) 0.204(14) 0.942(14)
H6 H 0.559(18) -0.01(2) 0.370(17)
Sr1_2 Sr -0.1345 0.2233 0.4886
Sr1_3 Sr -0.1345 1.2233 0.4886
O6_2 O 1.2029(7) 0.3835(6) 0.3438(7)
O7_2 O 0.9391(7) -0.1490(7) 0.5795(7)
O8_2 O 0.8469(7) 0.5663(7) 0.6182(8)
O10_2 O 1.2374(7) 0.1577(8) 0.6106(8)
H4_2 H 1.258(16) 0.093(17) 0.514(16)
N1 N 0.4426(10) 0.7986(12) 0.8021(9)
H3 H 0.571(19) 0.742(17) 0.748(17)
O11 O 0.9170(9) 0.8321(9) 0.9776(8)
H7 H 0.770(16) 0.840(16) 1.000(15)
O12 O 0.1900(11) 0.4134(11) 0.9383(10)
loop_
_geom_bond_atom_site_label_1
_geom_bond_atom_site_label_2
_geom_bond_site_symmetry_1
_geom_bond_site_symmetry_2
Sr1 O1 1_555 1_555
O1 H5 1_555 1_555
O2 Sr1 1_555 1_555
O3 Sr1 1_555 1_555
O4 C1 1_555 1_555
O5 Sr1 1_555 1_555
O6 C3 1_555 1_555
O7 C4 1_555 1_555
O8 C4 1_555 1_555
O9 Sr1 1_555 1_555
O10 B1 1_555 1_555
N1 H3 1_555 1_555
O11 H7 1_555 1_555
C1 O3 1_555 1_555
C2 O5 1_555 1_555
H1 C2 1_555 1_555
C3 C2 1_555 1_555
H2 C3 1_555 1_555
C4 C3 1_555 1_555
B1 O5 1_555 1_555
H4 O10 1_555 1_555
H6 O9 1_555 1_555
Sr1_2 O6 1_555 1_555
Sr1_3 O7 1_555 1_555
O6_2 Sr1 1_555 1_555
O7_2 Sr1 1_555 1_555
O8_2 Sr1 1_555 1_555
O10_2 Sr1 1_555 1_555
H4_2 O10_2 1_555 1_555
O6 B1 1_555 1_555
O8 Sr1_2 1_555 1_555
O9 B1 1_555 1_555
O10 Sr1_2 1_555 1_555
C1 C2 1_555 1_555

#END
