
#######################################################################
#
#                 Cambridge Crystallographic Data Centre
#                                CCDC 
#
#######################################################################
#
# If this CIF has been generated from an entry in the Cambridge 
# Structural Database, then it will include bibliographic, chemical, 
# crystal, experimental, refinement or atomic coordinate data resulting 
# from the CCDC's data processing and validation procedures.
#
#######################################################################

data_XOZZUI
_symmetry_cell_setting           monoclinic
_symmetry_space_group_name_H-M   'P 21/c'
_symmetry_Int_Tables_number      14
_space_group_name_Hall           '-P 2ybc'
loop_
_symmetry_equiv_pos_site_id
_symmetry_equiv_pos_as_xyz
1 x,y,z
2 -x,1/2+y,1/2-z
3 -x,-y,-z
4 x,1/2-y,1/2+z
_cell_length_a                   6.8780(12)
_cell_length_b                   13.132(2)
_cell_length_c                   8.1870(15)
_cell_angle_alpha                90
_cell_angle_beta                 111.282(2)
_cell_angle_gamma                90
_cell_volume                     689.038
loop_
_atom_site_label
_atom_site_type_symbol
_atom_site_fract_x
_atom_site_fract_y
_atom_site_fract_z
C1 C 0.9337(9) 0.2700(4) 0.4197(8)
H1 H 1.0542 0.2688 0.3931
C2 C 0.6872(7) 0.3246(4) 0.4935(6)
H2 H 0.5990 0.3663 0.5272
C3 C 0.5064(7) 0.1565(4) 0.4823(5)
H3 H 0.4286 0.1910 0.5438
H4 H 0.5745 0.0980 0.5520
C4 C 0.3536(7) 0.1192(4) 0.3053(6)
Cl1 Cl 0.2329(2) 0.06371(11) 0.76478(16)
Hg1 Hg 1.0000 0.5000 0.5000
Hg2 Hg 0.0000 0.0000 0.5000
N1 N 0.6656(6) 0.2255(3) 0.4682(5)
N2 N 0.8210(7) 0.1878(3) 0.4185(6)
N3 N 0.8549(6) 0.3553(3) 0.4634(5)
O1 O 0.2259(5) 0.0533(3) 0.3170(4)
O2 O 0.3615(5) 0.1543(3) 0.1693(4)
C1B C 1.0663(9) 0.7300(4) 0.5803(8)
H1B H 0.9458 0.7312 0.6069
C2B C 1.3128(7) 0.6754(4) 0.5065(6)
H2B H 1.4010 0.6337 0.4728
C3B C 1.4936(7) 0.8435(4) 0.5177(5)
H3B H 1.5714 0.8090 0.4562
H4B H 1.4255 0.9020 0.4480
C4B C 1.6464(7) 0.8808(4) 0.6947(6)
Cl1B Cl -0.2329(2) -0.06371(11) 0.23522(16)
Hg1A Hg 0.0000 0.0000 0.0000
Hg1A_2 Hg 2.0000 1.0000 1.0000
Hg2_2 Hg 2.0000 1.0000 0.5000
N1B N 1.3344(6) 0.7745(3) 0.5318(5)
N2B N 1.1790(7) 0.8122(3) 0.5815(6)
N3B N 1.1451(6) 0.6447(3) 0.5366(5)
O1B O 1.7741(5) 0.9467(3) 0.6830(4)
O1A O 0.7741(5) 0.5533(3) 0.1830(4)
O1C O 1.2259(5) 0.4467(3) 0.8170(4)
O1B_2 O -0.2259(5) -0.0533(3) 0.6830(4)
O2B O 1.6385(5) 0.8457(3) 0.8307(4)
loop_
_geom_bond_atom_site_label_1
_geom_bond_atom_site_label_2
_geom_bond_site_symmetry_1
_geom_bond_site_symmetry_2
C1 H1 1_555 1_555
C2 H2 1_555 1_555
C3 H3 1_555 1_555
H4 C3 1_555 1_555
C4 C3 1_555 1_555
Cl1 Hg2 1_555 1_555
Hg1 N3 1_555 1_555
Hg2 O1 1_555 1_555
N1 C2 1_555 1_555
N2 C1 1_555 1_555
N3 C1 1_555 1_555
O1 C4 1_555 1_555
O2 C4 1_555 1_555
C1B H1B 1_555 1_555
C2B H2B 1_555 1_555
C3B H3B 1_555 1_555
H4B C3B 1_555 1_555
C4B C3B 1_555 1_555
Cl1B Hg2 1_555 1_555
Hg1A O1 1_555 1_555
Hg1A_2 O1B 1_555 1_555
Hg2_2 O1B 1_555 1_555
N1B C2B 1_555 1_555
N2B C1B 1_555 1_555
N3B Hg1 1_555 1_555
O1B C4B 1_555 1_555
O1A Hg1 1_555 1_555
O1C Hg1 1_555 1_555
O1B_2 Hg2 1_555 1_555
O2B C4B 1_555 1_555
C2 N3 1_555 1_555
C3 N1 1_555 1_555
N1 N2 1_555 1_555
C1B N3B 1_555 1_555
C2B N3B 1_555 1_555
C3B N1B 1_555 1_555
N1B N2B 1_555 1_555

#END
