
#######################################################################
#
#                 Cambridge Crystallographic Data Centre
#                                CCDC 
#
#######################################################################
#
# If this CIF has been generated from an entry in the Cambridge 
# Structural Database, then it will include bibliographic, chemical, 
# crystal, experimental, refinement or atomic coordinate data resulting 
# from the CCDC's data processing and validation procedures.
#
#######################################################################

data_XUBBAY
_symmetry_cell_setting           monoclinic
_symmetry_space_group_name_H-M   'C 2/c'
_symmetry_Int_Tables_number      15
_space_group_name_Hall           '-C 2yn'
loop_
_symmetry_equiv_pos_site_id
_symmetry_equiv_pos_as_xyz
1 x,y,z
2 -x,y,1/2-z
3 1/2+x,1/2+y,z
4 1/2-x,1/2+y,1/2-z
5 -x,-y,-z
6 x,-y,1/2+z
7 1/2-x,1/2-y,-z
8 1/2+x,1/2-y,1/2+z
_cell_length_a                   15.899(3)
_cell_length_b                   7.2573(15)
_cell_length_c                   13.543(3)
_cell_angle_alpha                90
_cell_angle_beta                 111.32(3)
_cell_angle_gamma                90
_cell_volume                     1455.7
loop_
_atom_site_label
_atom_site_type_symbol
_atom_site_fract_x
_atom_site_fract_y
_atom_site_fract_z
N4 N 0.5000 -0.2600(7) 0.7500
O3 O 0.4696(8) -0.2872(13) 0.6537(6)
O4 O 0.5866(5) -0.2695(16) 0.7879(7)
O5 O 0.4686(8) -0.2144(18) 0.8089(13)
O3A O 0.5304(8) -0.2872(13) 0.8463(6)
O4A O 0.4134(5) -0.2695(16) 0.7121(7)
O5A O 0.5314(8) -0.2144(18) 0.6911(13)
Ag1 Ag 0.0000 0.0000 0.5000
Ag2 Ag 0.42016(2) -0.01110(5) 0.53197(3)
C1 C 0.1921(2) 0.1603(5) 0.6324(3)
H1 H 0.1690 0.2277 0.6752
C2 C 0.2053(2) -0.0167(5) 0.5159(3)
H2 H 0.1904 -0.0985 0.4593
C3 C 0.3541(2) 0.2589(5) 0.7146(3)
H3 H 0.3357 0.3836 0.7229
H4 H 0.4015 0.2666 0.6856
C4 C 0.3918(2) 0.1678(5) 0.8229(3)
N1 N 0.27756(17) 0.1618(4) 0.6398(2)
N2 N 0.28773(19) 0.0462(4) 0.5653(2)
N3 N 0.14467(19) 0.0488(4) 0.5552(2)
O1 O 0.47420(19) 0.1985(4) 0.8729(3)
O2 O 0.3394(2) 0.0813(4) 0.8546(2)
Ag2D Ag -0.42016(2) 0.01110(5) 0.46803(3)
Ag2A Ag 0.57984(2) -0.01110(5) 0.96803(3)
Ag2E Ag 0.42016(2) 0.01110(5) 1.03197(3)
Ag2E_2 Ag -0.57984(2) 0.01110(5) 0.03197(3)
Ag2A_2 Ag -0.42016(2) -0.01110(5) -0.03197(3)
C1D C -0.1921(2) -0.1603(5) 0.3676(3)
H1D H -0.1690 -0.2277 0.3248
C2D C -0.2053(2) 0.0167(5) 0.4841(3)
H2D H -0.1904 0.0985 0.5407
C3D C -0.3541(2) -0.2589(5) 0.2854(3)
H3D H -0.3357 -0.3836 0.2771
H4D H -0.4015 -0.2666 0.3144
C4D C -0.3918(2) -0.1678(5) 0.1771(3)
N1D N -0.27756(17) -0.1618(4) 0.3602(2)
N2D N -0.28773(19) -0.0462(4) 0.4347(2)
N3D N -0.14467(19) -0.0488(4) 0.4448(2)
O1D O -0.47420(19) -0.1985(4) 0.1271(3)
O1A O 0.52580(19) 0.1985(4) 0.6271(3)
O1E O -0.52580(19) -0.1985(4) 0.3729(3)
O2D O -0.3394(2) -0.0813(4) 0.1454(2)
O2E O 0.3394(2) -0.0813(4) 0.3546(2)
O2A O -0.3394(2) 0.0813(4) 0.6454(2)
loop_
_geom_bond_atom_site_label_1
_geom_bond_atom_site_label_2
_geom_bond_site_symmetry_1
_geom_bond_site_symmetry_2
Ag1 N3 1_555 1_555
Ag2 N2 1_555 1_555
C1 H1 1_555 1_555
C2 H2 1_555 1_555
C3 H3 1_555 1_555
H4 C3 1_555 1_555
C4 C3 1_555 1_555
N1 C1 1_555 1_555
N2 C2 1_555 1_555
N3 C1 1_555 1_555
N4 O3 1_555 1_555
O1 C4 1_555 1_555
O2 C4 1_555 1_555
O3 O4A 1_555 1_555
O4 N4 1_555 1_555
O5 N4 1_555 1_555
Ag2D N2D 1_555 1_555
Ag2A O1 1_555 1_555
Ag2E O2 1_555 1_555
Ag2E_2 O1D 1_555 1_555
Ag2A_2 O2D 1_555 1_555
C1D H1D 1_555 1_555
C2D H2D 1_555 1_555
C3D H3D 1_555 1_555
H4D C3D 1_555 1_555
C4D C3D 1_555 1_555
N1D C1D 1_555 1_555
N2D C2D 1_555 1_555
N3D Ag1 1_555 1_555
O1D C4D 1_555 1_555
O1A Ag2 1_555 1_555
O1E Ag2D 1_555 1_555
O2D C4D 1_555 1_555
O2E Ag2 1_555 1_555
O2A Ag2D 1_555 1_555
O3A N4 1_555 1_555
O4A N4 1_555 1_555
O5A N4 1_555 1_555
C2 N3 1_555 1_555
C3 N1 1_555 1_555
N1 N2 1_555 1_555
O3 O5A 1_555 1_555
O4 O3A 1_555 1_555
O4 O5A 1_555 1_555
O5 O3A 1_555 1_555
O5 O4A 1_555 1_555
C1D N3D 1_555 1_555
C2D N3D 1_555 1_555
C3D N1D 1_555 1_555
N1D N2D 1_555 1_555

#END
