
#######################################################################
#
#                 Cambridge Crystallographic Data Centre
#                                CCDC 
#
#######################################################################
#
# If this CIF has been generated from an entry in the Cambridge 
# Structural Database, then it will include bibliographic, chemical, 
# crystal, experimental, refinement or atomic coordinate data resulting 
# from the CCDC's data processing and validation procedures.
#
#######################################################################

data_XUBBUT
_symmetry_cell_setting           monoclinic
_symmetry_space_group_name_H-M   'P 21/c'
_symmetry_Int_Tables_number      14
_space_group_name_Hall           '-P 2ybc'
loop_
_symmetry_equiv_pos_site_id
_symmetry_equiv_pos_as_xyz
1 x,y,z
2 -x,1/2+y,1/2-z
3 -x,-y,-z
4 x,1/2-y,1/2+z
_cell_length_a                   11.258(5)
_cell_length_b                   11.095(5)
_cell_length_c                   20.256(5)
_cell_angle_alpha                90
_cell_angle_beta                 118.129(15)
_cell_angle_gamma                90
_cell_volume                     2231.29
loop_
_atom_site_label
_atom_site_type_symbol
_atom_site_fract_x
_atom_site_fract_y
_atom_site_fract_z
Lu1 Lu 0.39692(4) 0.12515(4) -0.048368(19)
O1 O 0.2309(7) -0.0032(7) -0.1159(4)
O2 O 0.4616(8) -0.2421(7) -0.5318(4)
O3 O 0.4824(8) 0.2603(7) -0.1116(4)
O4 O 0.3306(8) 0.1413(7) -0.1851(4)
O5 O 0.4175(9) 0.2703(8) -0.2302(4)
O6 O 0.2207(10) 0.2776(8) -0.1066(5)
O7 O 0.2427(8) 0.2022(7) -0.0045(4)
O8 O 0.0861(10) 0.3345(10) -0.0635(6)
O9 O 0.5477(7) -0.0006(5) -0.0482(3)
N1 N 0.1955(10) -0.1100(8) -0.2408(5)
H1 H 0.2392 -0.0572 -0.2068
N2 N 0.2631(10) -0.1487(8) -0.5089(5)
H2 H 0.3339 -0.1933 -0.4919
N3 N 0.4101(9) 0.2256(8) -0.1776(4)
N4 N 0.1798(10) 0.2721(8) -0.0578(5)
C1 C -0.0146(14) -0.1319(10) -0.0686(8)
H3 H -0.0392 -0.1286 -0.0308
C2 C 0.0916(12) -0.0639(11) -0.0631(6)
H4 H 0.1388 -0.0159 -0.0210
C3 C 0.1302(10) -0.0650(9) -0.1190(6)
C4 C 0.0634(10) -0.1457(9) -0.1798(5)
C5 C -0.0490(12) -0.2159(10) -0.1844(7)
H5 H -0.0954 -0.2678 -0.2245
C6 C 0.2920(13) -0.1107(9) -0.6163(6)
C7 C 0.4090(11) -0.1813(9) -0.5953(5)
C8 C 0.4651(13) -0.1822(11) -0.6442(6)
H6 H 0.5405 -0.2296 -0.6327
C9 C 0.4127(15) -0.1166(10) -0.7067(7)
H7 H 0.4560 -0.1159 -0.7361
C10 C 0.1010(13) -0.1630(10) -0.2362(6)
H8 H 0.0515 -0.2186 -0.2735
C11 C 0.2394(14) -0.1282(9) -0.2974(7)
H9 H 0.1939 -0.1985 -0.3270
H10 H 0.3353 -0.1447 -0.2724
C12 C 0.2122(12) -0.0226(9) -0.3490(6)
H11 H 0.2505 0.0492 -0.3191
H12 H 0.1156 -0.0108 -0.3775
C13 C 0.5911(13) -0.0067(11) -0.1024(6)
H13 H 0.6562 -0.0701 -0.0898
H14 H 0.6314 0.0687 -0.1042
H15 H 0.5155 -0.0228 -0.1504
C14 C -0.0856(13) -0.2057(11) -0.1305(8)
H16 H -0.1598 -0.2486 -0.1346
C15 C 0.2946(16) -0.0487(11) -0.7298(7)
H17 H 0.2574 -0.0065 -0.7748
C16 C 0.2368(14) -0.0466(10) -0.6850(6)
H18 H 0.1586 -0.0018 -0.6993
C17 C 0.2233(12) -0.1025(10) -0.5734(6)
H19 H 0.1426 -0.0600 -0.5939
C18 C 0.2693(12) -0.0374(11) -0.4029(6)
H20 H 0.2624 0.0388 -0.4279
H21 H 0.3641 -0.0577 -0.3748
C19 C 0.1991(13) -0.1330(10) -0.4610(6)
H22 H 0.2016 -0.2088 -0.4365
H23 H 0.1055 -0.1107 -0.4917
Lu1A Lu 0.60308(4) -0.37485(4) -0.451632(19)
Lu1B Lu 0.60308(4) -0.12515(4) 0.048368(19)
O2A O 0.5384(8) 0.2579(7) 0.0318(4)
O9B O 0.4523(7) 0.0006(5) 0.0482(3)
loop_
_geom_bond_atom_site_label_1
_geom_bond_atom_site_label_2
_geom_bond_site_symmetry_1
_geom_bond_site_symmetry_2
Lu1 O1 1_555 1_555
O1 C3 1_555 1_555
O2 C7 1_555 1_555
O3 Lu1 1_555 1_555
O4 Lu1 1_555 1_555
O5 N3 1_555 1_555
O6 Lu1 1_555 1_555
O7 Lu1 1_555 1_555
O8 N4 1_555 1_555
O9 Lu1 1_555 1_555
N1 H1 1_555 1_555
N2 H2 1_555 1_555
N3 O3 1_555 1_555
N4 O6 1_555 1_555
C1 H3 1_555 1_555
C2 C1 1_555 1_555
H4 C2 1_555 1_555
C3 C2 1_555 1_555
C4 C3 1_555 1_555
C5 C4 1_555 1_555
H5 C5 1_555 1_555
C6 C7 1_555 1_555
C7 C8 1_555 1_555
C8 H6 1_555 1_555
C9 C8 1_555 1_555
H7 C9 1_555 1_555
C10 N1 1_555 1_555
H8 C10 1_555 1_555
C11 N1 1_555 1_555
H9 C11 1_555 1_555
H10 C11 1_555 1_555
C12 C11 1_555 1_555
H11 C12 1_555 1_555
H12 C12 1_555 1_555
C13 O9 1_555 1_555
H13 C13 1_555 1_555
H14 C13 1_555 1_555
H15 C13 1_555 1_555
C14 C1 1_555 1_555
H16 C14 1_555 1_555
C15 C9 1_555 1_555
H17 C15 1_555 1_555
C16 C6 1_555 1_555
H18 C16 1_555 1_555
C17 N2 1_555 1_555
H19 C17 1_555 1_555
C18 C12 1_555 1_555
H20 C18 1_555 1_555
H21 C18 1_555 1_555
C19 N2 1_555 1_555
H22 C19 1_555 1_555
H23 C19 1_555 1_555
Lu1A O2 1_555 1_555
Lu1B O9 1_555 1_555
O2A Lu1 1_555 1_555
O9B Lu1 1_555 1_555
O4 N3 1_555 1_555
O7 N4 1_555 1_555
C4 C10 1_555 1_555
C5 C14 1_555 1_555
C6 C17 1_555 1_555
C15 C16 1_555 1_555
C18 C19 1_555 1_555
Lu1B O9B 1_555 1_555

#END
