
#######################################################################
#
#                 Cambridge Crystallographic Data Centre
#                                CCDC 
#
#######################################################################
#
# If this CIF has been generated from an entry in the Cambridge 
# Structural Database, then it will include bibliographic, chemical, 
# crystal, experimental, refinement or atomic coordinate data resulting 
# from the CCDC's data processing and validation procedures.
#
#######################################################################

data_XUBBOM
_symmetry_cell_setting           orthorhombic
_symmetry_space_group_name_H-M   'P b c a'
_symmetry_Int_Tables_number      61
_space_group_name_Hall           '-P 2ac 2ab'
loop_
_symmetry_equiv_pos_site_id
_symmetry_equiv_pos_as_xyz
1 x,y,z
2 1/2-x,-y,1/2+z
3 1/2+x,1/2-y,-z
4 -x,1/2+y,1/2-z
5 -x,-y,-z
6 1/2+x,y,1/2-z
7 1/2-x,1/2+y,z
8 x,1/2-y,1/2+z
_cell_length_a                   8.8049(15)
_cell_length_b                   12.206(3)
_cell_length_c                   43.845(7)
_cell_angle_alpha                90
_cell_angle_beta                 90
_cell_angle_gamma                90
_cell_volume                     4712.14
loop_
_atom_site_label
_atom_site_type_symbol
_atom_site_fract_x
_atom_site_fract_y
_atom_site_fract_z
Ag1 Ag 0.64875(4) 0.32322(3) 0.354137(7)
Ag2 Ag 0.85280(4) 0.58908(2) 0.399414(7)
N1 N 0.7853(4) 0.4927(3) 0.30555(7)
N2 N 0.7627(4) 0.4816(3) 0.33542(7)
N3 N 0.7836(4) 0.5771(3) 0.34914(7)
N4 N 0.8211(4) 0.6527(3) 0.32817(7)
N5 N 0.8369(4) 0.8191(3) 0.16861(8)
N6 N 0.8467(4) 0.3853(3) 0.44518(7)
N7 N 0.8097(4) 0.4114(3) 0.41641(8)
N8 N 0.7563(4) 0.3245(3) 0.40233(7)
N9 N 0.7579(4) 0.2393(3) 0.42176(7)
N10 N 0.8235(4) -0.0333(3) 0.57055(7)
N11 N 0.6067(4) -0.0967(3) 0.58874(7)
N12 N 0.6008(4) 0.8546(3) 0.15456(8)
C1 C 0.8589(5) 0.6431(3) 0.27135(8)
C2 C 0.8782(5) 0.5709(3) 0.24722(10)
H1 H 0.8652 0.4945 0.2505
C3 C 0.9159(6) 0.6087(4) 0.21856(10)
H2 H 0.9313 0.5580 0.2024
C4 C 0.9315(5) 0.7194(4) 0.21320(9)
C5 C 0.9107(6) 0.7913(4) 0.23711(10)
H3 H 0.9211 0.8678 0.2336
C6 C 0.8750(5) 0.7545(4) 0.26611(10)
H4 H 0.8616 0.8052 0.2823
C7 C 0.8215(4) 0.5974(3) 0.30167(9)
C8 C 0.9679(5) 0.7610(4) 0.18161(10)
H5 H 1.0561 0.8112 0.1826
H6 H 0.9953 0.6986 0.1683
C9 C 0.6913(5) 0.7859(4) 0.16908(10)
H7 H 0.6575 0.7206 0.1787
C10 C 0.6947(5) 0.9366(4) 0.14450(10)
H8 H 0.6624 0.9992 0.1334
C11 C 0.8394(5) 0.9157(4) 0.15268(10)
H9 H 0.9260 0.9594 0.1483
C12 C 0.8379(4) 0.2179(3) 0.47626(8)
C13 C 0.7842(5) 0.1116(3) 0.48017(8)
H10 H 0.7278 0.0775 0.4643
C14 C 0.8127(4) 0.0551(3) 0.50708(9)
H11 H 0.7776 -0.0180 0.5093
C15 C 0.8925(4) 0.1048(3) 0.53089(9)
C16 C 0.9414(5) 0.2120(4) 0.52708(9)
H12 H 0.9928 0.2476 0.5433
C17 C 0.9169(5) 0.2680(3) 0.50012(9)
H13 H 0.9538 0.3407 0.4978
C18 C 0.8136(4) 0.2790(3) 0.44796(9)
C19 C 0.9367(5) 0.0450(4) 0.55961(9)
H14 H 0.9558 0.0995 0.5759
H15 H 1.0330 0.0054 0.5559
C20 C 0.6739(4) -0.0145(4) 0.57442(9)
H16 H 0.6230 0.0497 0.5677
C21 C 0.7205(5) -0.1715(4) 0.59449(9)
H17 H 0.7074 -0.2396 0.6046
C22 C 0.8535(5) -0.1332(3) 0.58348(9)
H18 H 0.9494 -0.1687 0.5845
Ag1F Ag 0.85125(4) 0.82322(3) 0.354137(7)
Ag1C Ag 0.35125(4) 0.82322(3) 0.145863(7)
Ag2F Ag 0.64720(4) 0.08908(2) 0.399414(7)
Ag2B Ag 0.35280(4) -0.08908(2) 0.600586(7)
N4F N 0.6789(4) 0.1527(3) 0.32817(7)
N9F N 0.7421(4) 0.7393(3) 0.42176(7)
N11B N 1.1067(4) 0.5967(3) 0.41126(7)
N12C N 0.3992(4) 0.3546(3) 0.34544(8)
loop_
_geom_bond_atom_site_label_1
_geom_bond_atom_site_label_2
_geom_bond_site_symmetry_1
_geom_bond_site_symmetry_2
Ag1 N2 1_555 1_555
Ag2 N3 1_555 1_555
N1 N2 1_555 1_555
N2 N3 1_555 1_555
N3 N4 1_555 1_555
N4 C7 1_555 1_555
N5 C8 1_555 1_555
N6 N7 1_555 1_555
N7 Ag2 1_555 1_555
N8 Ag1 1_555 1_555
N9 N8 1_555 1_555
N10 C19 1_555 1_555
N11 C20 1_555 1_555
N12 C9 1_555 1_555
C1 C2 1_555 1_555
C2 H1 1_555 1_555
C3 C2 1_555 1_555
H2 C3 1_555 1_555
C4 C3 1_555 1_555
C5 C4 1_555 1_555
H3 C5 1_555 1_555
C6 C1 1_555 1_555
H4 C6 1_555 1_555
C7 N1 1_555 1_555
C8 C4 1_555 1_555
H5 C8 1_555 1_555
H6 C8 1_555 1_555
C9 N5 1_555 1_555
H7 C9 1_555 1_555
C10 N12 1_555 1_555
H8 C10 1_555 1_555
C11 N5 1_555 1_555
H9 C11 1_555 1_555
C12 C13 1_555 1_555
C13 H10 1_555 1_555
C14 C13 1_555 1_555
H11 C14 1_555 1_555
C15 C14 1_555 1_555
C16 C15 1_555 1_555
H12 C16 1_555 1_555
C17 C12 1_555 1_555
H13 C17 1_555 1_555
C18 N6 1_555 1_555
C19 C15 1_555 1_555
H14 C19 1_555 1_555
H15 C19 1_555 1_555
C20 N10 1_555 1_555
H16 C20 1_555 1_555
C21 N11 1_555 1_555
H17 C21 1_555 1_555
C22 N10 1_555 1_555
H18 C22 1_555 1_555
Ag1F N4 1_555 1_555
Ag1C N12 1_555 1_555
Ag2F N9 1_555 1_555
Ag2B N11 1_555 1_555
N4F Ag1 1_555 1_555
N9F Ag2 1_555 1_555
N11B Ag2 1_555 1_555
N12C Ag1 1_555 1_555
N7 N8 1_555 1_555
N9 C18 1_555 1_555
C1 C7 1_555 1_555
C5 C6 1_555 1_555
C10 C11 1_555 1_555
C12 C18 1_555 1_555
C16 C17 1_555 1_555
C21 C22 1_555 1_555

#END
