
#######################################################################
#
#                 Cambridge Crystallographic Data Centre
#                                CCDC 
#
#######################################################################
#
# If this CIF has been generated from an entry in the Cambridge 
# Structural Database, then it will include bibliographic, chemical, 
# crystal, experimental, refinement or atomic coordinate data resulting 
# from the CCDC's data processing and validation procedures.
#
#######################################################################

data_XUBBEC
_symmetry_cell_setting           monoclinic
_symmetry_space_group_name_H-M   'C 2/c'
_symmetry_Int_Tables_number      15
_space_group_name_Hall           '-C 2yn'
loop_
_symmetry_equiv_pos_site_id
_symmetry_equiv_pos_as_xyz
1 x,y,z
2 -x,y,1/2-z
3 1/2+x,1/2+y,z
4 1/2-x,1/2+y,1/2-z
5 -x,-y,-z
6 x,-y,1/2+z
7 1/2-x,1/2-y,-z
8 1/2+x,1/2-y,1/2+z
_cell_length_a                   24.7213(17)
_cell_length_b                   9.1269(6)
_cell_length_c                   13.8765(10)
_cell_angle_alpha                90
_cell_angle_beta                 122.2880(10)
_cell_angle_gamma                90
_cell_volume                     2646.81
loop_
_atom_site_label
_atom_site_type_symbol
_atom_site_fract_x
_atom_site_fract_y
_atom_site_fract_z
C1 C 0.11057(11) 0.3226(3) 0.1025(2)
C2 C 0.04452(12) 0.3100(3) 0.0748(2)
C3 C 0.02023(12) 0.4041(3) 0.1200(2)
H1 H 0.0471 0.4721 0.1748
C4 C -0.04413(12) 0.3990(3) 0.0848(2)
H2 H -0.0597 0.4635 0.1162
C5 C -0.08484(12) 0.2991(3) 0.0037(2)
C6 C -0.06032(14) 0.2017(4) -0.0398(3)
H3 H -0.0872 0.1324 -0.0933
C7 C 0.00378(14) 0.2060(4) -0.0046(3)
H4 H 0.0197 0.1391 -0.0341
C8 C -0.15565(13) 0.2977(4) -0.0400(3)
H5 H -0.1678 0.3921 -0.0252
H6 H -0.1799 0.2826 -0.1219
C9 C -0.16248(15) 0.1875(4) 0.1194(3)
H7 H -0.1445 0.2643 0.1712
C10 C -0.18402(14) 0.0599(4) 0.1348(2)
H8 H -0.1834 0.0335 0.2002
C11 C -0.19933(12) 0.0544(3) -0.0312(2)
H9 H -0.2116 0.0245 -0.1042
Cd1 Cd 0.2500 0.2500 0.0000
H10 H 0.3659(17) 0.190(5) 0.195(3)
H11 H 0.3381(19) 0.090(5) 0.210(4)
N1 N 0.20847(10) 0.3854(2) 0.17952(18)
N2 N 0.19316(10) 0.2988(3) 0.09285(19)
N3 N 0.13087(12) 0.2577(2) 0.0421(2)
N4 N 0.15700(10) 0.4029(2) 0.18781(17)
N5 N -0.17202(10) 0.1826(3) 0.01368(19)
N6 N -0.20705(10) -0.0252(2) 0.03952(18)
O1 O 0.33312(13) 0.1559(4) 0.1773(2)
C1B C 0.61057(11) 0.8226(3) 0.1025(2)
C2B C 0.54452(12) 0.8100(3) 0.0748(2)
C3B C 0.52023(12) 0.9041(3) 0.1200(2)
H1B H 0.5471 0.9721 0.1748
C4B C 0.45587(12) 0.8990(3) 0.0848(2)
H2B H 0.4403 0.9635 0.1162
C5B C 0.41516(12) 0.7991(3) 0.0037(2)
C6B C 0.43968(14) 0.7017(4) -0.0398(3)
H3B H 0.4128 0.6324 -0.0933
C7B C 0.50378(14) 0.7060(4) -0.0046(3)
H4B H 0.5197 0.6391 -0.0341
C8B C 0.34435(13) 0.7977(4) -0.0400(3)
H5B H 0.3322 0.8921 -0.0252
H6B H 0.3201 0.7826 -0.1219
C9B C 0.33752(15) 0.6875(4) 0.1194(3)
H7B H 0.3555 0.7643 0.1712
C10B C 0.31598(14) 0.5599(4) 0.1348(2)
H8B H 0.3166 0.5335 0.2002
C11B C 0.30067(12) 0.5544(3) -0.0312(2)
H9B H 0.2884 0.5245 -0.1042
Cd1B Cd -0.2500 -0.2500 0.0000
Cd1B_2 Cd 0.7500 0.7500 0.0000
H10F H 0.1341(17) 0.310(5) -0.195(3)
H11F H 0.1619(19) 0.410(5) -0.210(4)
N1B N 0.70847(10) 0.8854(2) 0.17952(18)
N2B N 0.69316(10) 0.7988(3) 0.09285(19)
N2F N 0.30684(10) 0.2012(3) -0.09285(19)
N3B N 0.63087(12) 0.7577(2) 0.0421(2)
N4B N 0.65700(10) 0.9029(2) 0.18781(17)
N5B N 0.32798(10) 0.6826(3) 0.01368(19)
N6B N 0.29295(10) 0.4748(2) 0.03952(18)
N6D N 0.20705(10) 0.0252(2) -0.03952(18)
O1F O 0.16688(13) 0.3441(4) -0.1773(2)
O2 O 0.43501(14) 0.2853(5) 0.1929(3)
O3 O 0.0000 0.0673(9) 0.2500
loop_
_geom_bond_atom_site_label_1
_geom_bond_atom_site_label_2
_geom_bond_site_symmetry_1
_geom_bond_site_symmetry_2
C1 C2 1_555 1_555
C2 C3 1_555 1_555
C3 H1 1_555 1_555
C4 C3 1_555 1_555
H2 C4 1_555 1_555
C5 C4 1_555 1_555
C6 C5 1_555 1_555
H3 C6 1_555 1_555
C7 C2 1_555 1_555
H4 C7 1_555 1_555
C8 C5 1_555 1_555
H5 C8 1_555 1_555
H6 C8 1_555 1_555
C9 H7 1_555 1_555
C10 C9 1_555 1_555
H8 C10 1_555 1_555
C11 H9 1_555 1_555
Cd1 N2 1_555 1_555
H10 O1 1_555 1_555
H11 O1 1_555 1_555
N1 N2 1_555 1_555
N2 N3 1_555 1_555
N3 C1 1_555 1_555
N4 C1 1_555 1_555
N5 C8 1_555 1_555
N6 C10 1_555 1_555
O1 Cd1 1_555 1_555
C1B C2B 1_555 1_555
C2B C3B 1_555 1_555
C3B H1B 1_555 1_555
C4B C3B 1_555 1_555
H2B C4B 1_555 1_555
C5B C4B 1_555 1_555
C6B C5B 1_555 1_555
H3B C6B 1_555 1_555
C7B C2B 1_555 1_555
H4B C7B 1_555 1_555
C8B C5B 1_555 1_555
H5B C8B 1_555 1_555
H6B C8B 1_555 1_555
C9B H7B 1_555 1_555
C10B C9B 1_555 1_555
H8B C10B 1_555 1_555
C11B H9B 1_555 1_555
Cd1B N6 1_555 1_555
Cd1B_2 N2B 1_555 1_555
H10F O1F 1_555 1_555
H11F O1F 1_555 1_555
N1B N2B 1_555 1_555
N2B N3B 1_555 1_555
N2F Cd1 1_555 1_555
N3B C1B 1_555 1_555
N4B C1B 1_555 1_555
N5B C8B 1_555 1_555
N6B Cd1 1_555 1_555
N6D Cd1 1_555 1_555
O1F Cd1 1_555 1_555
C6 C7 1_555 1_555
C9 N5 1_555 1_555
C11 N5 1_555 1_555
C11 N6 1_555 1_555
N1 N4 1_555 1_555
C6B C7B 1_555 1_555
C9B N5B 1_555 1_555
C10B N6B 1_555 1_555
C11B N5B 1_555 1_555
C11B N6B 1_555 1_555
N1B N4B 1_555 1_555

#END
