
#######################################################################
#
#                 Cambridge Crystallographic Data Centre
#                                CCDC 
#
#######################################################################
#
# If this CIF has been generated from an entry in the Cambridge 
# Structural Database, then it will include bibliographic, chemical, 
# crystal, experimental, refinement or atomic coordinate data resulting 
# from the CCDC's data processing and validation procedures.
#
#######################################################################

data_XUBCED
_symmetry_cell_setting           monoclinic
_symmetry_space_group_name_H-M   'P 21/c'
_symmetry_Int_Tables_number      14
_space_group_name_Hall           '-P 2ybc'
loop_
_symmetry_equiv_pos_site_id
_symmetry_equiv_pos_as_xyz
1 x,y,z
2 -x,1/2+y,1/2-z
3 -x,-y,-z
4 x,1/2-y,1/2+z
_cell_length_a                   11.683(8)
_cell_length_b                   12.680(8)
_cell_length_c                   25.831(18)
_cell_angle_alpha                90
_cell_angle_beta                 97.184(7)
_cell_angle_gamma                90
_cell_volume                     3796.58
loop_
_atom_site_label
_atom_site_type_symbol
_atom_site_fract_x
_atom_site_fract_y
_atom_site_fract_z
Cu1 Cu -0.20997(6) 1.18754(6) 0.53610(3)
Cu2 Cu -0.35539(6) 1.12675(6) 0.35080(3)
Cu3 Cu 0.12606(6) 0.62482(6) 0.29873(3)
N1 N -0.1833(4) 1.2879(4) 0.5922(2)
N2 N -0.3108(5) 1.1548(4) 0.4246(2)
N3 N -0.2058(5) 1.1282(4) 0.2611(2)
N4 N -0.1696(4) 0.4625(4) 0.32404(17)
N5 N -0.0222(4) 0.5413(4) 0.29443(19)
N6 N -0.5234(4) 0.8301(3) 0.36325(17)
C1 C -0.5740(6) 0.9861(5) 0.3372(3)
H1 H -0.6188 1.0437 0.3251
N7 N -0.0141(4) 0.9212(4) 0.5896(2)
N8 N -0.1058(4) 1.0708(4) 0.57168(19)
N9 N -0.3681(4) 0.6517(4) 0.68082(17)
N10 N -0.5154(4) 0.7620(4) 0.67655(17)
C2 C -0.1609(5) 1.3257(5) 0.6327(2)
C3 C -0.2782(5) 1.1683(5) 0.4682(2)
C4 C -0.2580(5) 1.1277(4) 0.29574(19)
C5 C -0.0778(6) 0.4778(5) 0.2563(2)
H2 H -0.0573 0.4701 0.2229
C6 C -0.1651(6) 0.4290(6) 0.2742(2)
H3 H -0.2146 0.3805 0.2560
C7 C -0.0819(5) 0.5290(5) 0.3343(2)
H4 H -0.0643 0.5634 0.3661
N11 N -0.4569(4) 0.9876(4) 0.34739(17)
C8 C -0.6164(5) 0.8915(5) 0.3470(3)
H5 H -0.6936 0.8716 0.3435
C9 C -0.4306(5) 0.8914(4) 0.3630(2)
H6 H -0.3555 0.8683 0.3729
C10 C 0.0446(6) 0.9968(5) 0.6191(2)
H7 H 0.1116 0.9878 0.6422
C11 C -0.0132(6) 1.0870(5) 0.6084(2)
H8 H 0.0070 1.1517 0.6238
C12 C -0.1036(6) 0.9692(5) 0.5619(3)
H9 H -0.1579 0.9347 0.5384
C13 C -0.4129(6) 0.6448(5) 0.7270(2)
H10 H -0.3866 0.6019 0.7552
C14 C -0.5024(6) 0.7118(4) 0.7238(2)
H11 H -0.5490 0.7227 0.7500
C15 C -0.4334(5) 0.7233(4) 0.6518(2)
H12 H -0.4216 0.7428 0.6182
C16 C -0.2522(5) 0.4290(5) 0.3594(2)
H13 H -0.2163 0.3758 0.3830
H14 H -0.3187 0.3971 0.3390
C17 C -0.5349(5) 0.7200(5) 0.3798(3)
H15 H -0.5738 0.6807 0.3506
H16 H -0.5845 0.7189 0.4073
C18 C 0.0185(5) 0.8090(4) 0.5882(3)
H17 H 0.0661 0.7910 0.6205
H18 H 0.0640 0.7978 0.5597
C19 C -0.2727(6) 0.5872(5) 0.6658(2)
H19 H -0.3001 0.5159 0.6585
H20 H -0.2115 0.5841 0.6949
C20 C -0.3798(5) 0.5874(5) 0.3677(2)
C21 C -0.4245(5) 0.6632(4) 0.3993(2)
C22 C -0.3763(5) 0.6790(4) 0.4505(2)
C23 C -0.2835(5) 0.6150(4) 0.4716(2)
C24 C -0.2453(4) 0.5323(4) 0.4424(2)
C25 C -0.2926(5) 0.5190(4) 0.3909(2)
C26 C -0.2272(4) 0.6381(4) 0.5251(2)
C27 C -0.1311(5) 0.7059(4) 0.5316(2)
C28 C -0.0850(5) 0.7375(4) 0.5811(2)
C29 C -0.1342(5) 0.7027(4) 0.6248(2)
C30 C -0.2247(5) 0.6305(4) 0.6186(2)
C31 C -0.2728(5) 0.5980(4) 0.5690(2)
C32 C -0.4232(7) 0.5775(6) 0.3110(3)
H21 H -0.4818 0.6296 0.3016
H22 H -0.4550 0.5084 0.3041
H23 H -0.3606 0.5883 0.2908
C33 C -0.4206(6) 0.7639(5) 0.4838(3)
H24 H -0.4845 0.7993 0.4642
H25 H -0.3602 0.8137 0.4940
H26 H -0.4454 0.7325 0.5143
C34 C -0.1525(5) 0.4589(5) 0.4677(2)
H27 H -0.1358 0.4064 0.4429
H28 H -0.1790 0.4251 0.4973
H29 H -0.0839 0.4986 0.4789
C35 C -0.0825(6) 0.7439(5) 0.4834(3)
H30 H -0.0192 0.7910 0.4934
H31 H -0.1414 0.7803 0.4610
H32 H -0.0559 0.6846 0.4651
C36 C -0.3729(5) 0.5224(5) 0.5608(3)
H33 H -0.3927 0.5097 0.5241
H34 H -0.4380 0.5522 0.5748
H35 H -0.3517 0.4570 0.5781
C37 C -0.0932(7) 0.7469(6) 0.6782(3)
H36 H -0.0309 0.7953 0.6758
H37 H -0.0670 0.6903 0.7014
H38 H -0.1556 0.7831 0.6914
Cu2B Cu -0.64461(6) 0.87325(6) 0.64920(3)
Cu3A Cu -0.12606(6) 1.12482(6) 0.20127(3)
Cu3B Cu -0.12606(6) 1.37518(6) 0.70127(3)
N3A N 0.2058(5) 0.6282(4) 0.2389(2)
N10B N -0.4846(4) 1.2380(4) 0.32345(17)
C2B C 0.1609(5) 0.6743(5) 0.3673(2)
loop_
_geom_bond_atom_site_label_1
_geom_bond_atom_site_label_2
_geom_bond_site_symmetry_1
_geom_bond_site_symmetry_2
Cu1 N1 1_555 1_555
Cu2 N2 1_555 1_555
Cu3 N5 1_555 1_555
N1 C2 1_555 1_555
N2 C3 1_555 1_555
N3 C4 1_555 1_555
N4 C6 1_555 1_555
N5 C5 1_555 1_555
N6 C8 1_555 1_555
C1 H1 1_555 1_555
N7 C10 1_555 1_555
N8 Cu1 1_555 1_555
N9 C13 1_555 1_555
N10 C14 1_555 1_555
C2 Cu3B 1_555 1_555
C3 Cu1 1_555 1_555
C4 Cu2 1_555 1_555
C5 H2 1_555 1_555
C6 C5 1_555 1_555
H3 C6 1_555 1_555
C7 N4 1_555 1_555
H4 C7 1_555 1_555
N11 Cu2 1_555 1_555
C8 C1 1_555 1_555
H5 C8 1_555 1_555
C9 N6 1_555 1_555
H6 C9 1_555 1_555
C10 H7 1_555 1_555
C11 N8 1_555 1_555
H8 C11 1_555 1_555
C12 N7 1_555 1_555
H9 C12 1_555 1_555
C13 H10 1_555 1_555
C14 C13 1_555 1_555
H11 C14 1_555 1_555
C15 N9 1_555 1_555
H12 C15 1_555 1_555
C16 N4 1_555 1_555
H13 C16 1_555 1_555
H14 C16 1_555 1_555
C17 N6 1_555 1_555
H15 C17 1_555 1_555
H16 C17 1_555 1_555
C18 N7 1_555 1_555
H17 C18 1_555 1_555
H18 C18 1_555 1_555
C19 N9 1_555 1_555
H19 C19 1_555 1_555
H20 C19 1_555 1_555
C20 C21 1_555 1_555
C21 C17 1_555 1_555
C22 C21 1_555 1_555
C23 C22 1_555 1_555
C24 C23 1_555 1_555
C25 C16 1_555 1_555
C26 C23 1_555 1_555
C27 C26 1_555 1_555
C28 C18 1_555 1_555
C29 C28 1_555 1_555
C30 C19 1_555 1_555
C31 C26 1_555 1_555
C32 C20 1_555 1_555
H21 C32 1_555 1_555
H22 C32 1_555 1_555
H23 C32 1_555 1_555
C33 C22 1_555 1_555
H24 C33 1_555 1_555
H25 C33 1_555 1_555
H26 C33 1_555 1_555
C34 C24 1_555 1_555
H27 C34 1_555 1_555
H28 C34 1_555 1_555
H29 C34 1_555 1_555
C35 C27 1_555 1_555
H30 C35 1_555 1_555
H31 C35 1_555 1_555
H32 C35 1_555 1_555
C36 C31 1_555 1_555
H33 C36 1_555 1_555
H34 C36 1_555 1_555
H35 C36 1_555 1_555
C37 C29 1_555 1_555
H36 C37 1_555 1_555
H37 C37 1_555 1_555
H38 C37 1_555 1_555
Cu2B N10 1_555 1_555
Cu3A N3 1_555 1_555
N3A Cu3 1_555 1_555
N10B Cu2 1_555 1_555
C2B Cu3 1_555 1_555
N5 C7 1_555 1_555
C1 N11 1_555 1_555
N8 C12 1_555 1_555
N10 C15 1_555 1_555
N11 C9 1_555 1_555
C10 C11 1_555 1_555
C20 C25 1_555 1_555
C24 C25 1_555 1_555
C27 C28 1_555 1_555
C29 C30 1_555 1_555
C30 C31 1_555 1_555

#END
