
#######################################################################
#
#                 Cambridge Crystallographic Data Centre
#                                CCDC 
#
#######################################################################
#
# If this CIF has been generated from an entry in the Cambridge 
# Structural Database, then it will include bibliographic, chemical, 
# crystal, experimental, refinement or atomic coordinate data resulting 
# from the CCDC's data processing and validation procedures.
#
#######################################################################

data_XUBCIH
_symmetry_cell_setting           monoclinic
_symmetry_space_group_name_H-M   'P 21/c'
_symmetry_Int_Tables_number      14
_space_group_name_Hall           '-P 2ybc'
loop_
_symmetry_equiv_pos_site_id
_symmetry_equiv_pos_as_xyz
1 x,y,z
2 -x,1/2+y,1/2-z
3 -x,-y,-z
4 x,1/2-y,1/2+z
_cell_length_a                   18.389(5)
_cell_length_b                   11.479(3)
_cell_length_c                   16.992(4)
_cell_angle_alpha                90
_cell_angle_beta                 97.692(4)
_cell_angle_gamma                90
_cell_volume                     3554.52
loop_
_atom_site_label
_atom_site_type_symbol
_atom_site_fract_x
_atom_site_fract_y
_atom_site_fract_z
Cu1 Cu -0.02993(3) -0.47442(5) 0.08012(3)
Cu2 Cu -0.50689(3) -0.98992(4) 0.31790(4)
S1 S -0.00857(5) -0.66045(9) 0.00905(6)
S2 S -0.49939(6) -0.89020(8) 0.18443(6)
N1 N 0.1189(2) -0.7309(3) 0.1088(2)
N2 N -0.46299(18) -0.6528(3) 0.2022(2)
N3 N -0.24253(14) -0.5134(2) 0.13576(14)
N4 N -0.13744(15) -0.4668(3) 0.09508(16)
N5 N -0.27934(14) -0.9810(2) 0.35297(16)
N6 N -0.39650(16) -1.0186(2) 0.3548(2)
N7 N -0.06459(16) -0.4613(3) 0.68527(17)
N8 N -0.02457(17) -0.5225(3) 0.80744(19)
N9 N -0.39966(15) -0.3068(2) 0.60092(16)
N10 N -0.45254(15) -0.1396(2) 0.62163(19)
C1 C 0.0668(2) -0.7014(3) 0.0673(2)
C2 C -0.47651(18) -0.7522(3) 0.1956(2)
C3 C -0.25861(18) -0.4419(3) 0.07106(19)
H1 H -0.3050 -0.4179 0.0481
C4 C -0.19371(18) -0.4132(3) 0.04730(19)
H2 H -0.1880 -0.3645 0.0048
C5 C -0.16964(18) -0.5259(3) 0.14747(19)
H3 H -0.1445 -0.5709 0.1878
C6 C -0.28575(17) -1.0996(2) 0.36041(18)
H4 H -0.2480 -1.1542 0.3642
C7 C -0.35793(18) -1.1210(3) 0.3612(2)
H5 H -0.3784 -1.1945 0.3654
C8 C -0.34716(18) -0.9368(3) 0.3508(2)
H6 H -0.3579 -0.8577 0.3468
C9 C -0.0582(3) -0.5789(4) 0.6821(3)
H7 H -0.0684 -0.6258 0.6374
C10 C -0.0339(3) -0.6147(4) 0.7575(3)
H8 H -0.0250 -0.6918 0.7726
C11 C -0.0446(2) -0.4313(4) 0.7617(2)
H9 H -0.0447 -0.3551 0.7803
C12 C -0.4274(2) -0.2636(3) 0.5282(2)
H10 H -0.4248 -0.2978 0.4791
C13 C -0.4594(2) -0.1607(3) 0.5422(3)
H11 H -0.4827 -0.1116 0.5031
C14 C -0.41628(18) -0.2292(3) 0.6548(2)
H12 H -0.4036 -0.2380 0.7093
C15 C -0.29822(18) -0.5692(3) 0.17789(19)
H13 H -0.3221 -0.6305 0.1447
H14 H -0.3352 -0.5119 0.1861
C16 C -0.21111(18) -0.9163(3) 0.3476(2)
H15 H -0.1890 -0.9439 0.3023
H16 H -0.1766 -0.9297 0.3951
C17 C -0.0900(2) -0.3813(3) 0.6193(2)
H17 H -0.0545 -0.3804 0.5819
H18 H -0.0934 -0.3030 0.6399
C18 C -0.36281(19) -0.4193(3) 0.6185(2)
H19 H -0.3976 -0.4813 0.6028
H20 H -0.3485 -0.4252 0.6754
C19 C -0.24948(17) -0.7394(3) 0.26368(18)
C20 C -0.26729(16) -0.6205(3) 0.25723(17)
C21 C -0.26129(15) -0.5502(2) 0.32498(17)
C22 C -0.24134(15) -0.6001(2) 0.39980(16)
C23 C -0.22526(15) -0.7193(2) 0.40688(17)
C24 C -0.22709(16) -0.7874(2) 0.33860(18)
C25 C -0.23710(16) -0.5270(2) 0.47322(17)
C26 C -0.30071(17) -0.5069(2) 0.50879(18)
C27 C -0.29561(17) -0.4376(2) 0.57745(18)
C28 C -0.22737(18) -0.3924(2) 0.61074(17)
C29 C -0.16448(17) -0.4181(3) 0.57655(17)
C30 C -0.16913(17) -0.4833(2) 0.50668(18)
C31 C -0.2586(3) -0.8166(4) 0.1906(2)
H21 H -0.2442 -0.8948 0.2055
H22 H -0.2284 -0.7879 0.1530
H23 H -0.3091 -0.8161 0.1670
C32 C -0.2772(2) -0.4207(3) 0.3192(2)
H24 H -0.2698 -0.3870 0.3714
H25 H -0.3271 -0.4087 0.2958
H26 H -0.2447 -0.3845 0.2868
C33 C -0.2090(2) -0.7728(3) 0.48839(19)
H27 H -0.2090 -0.7131 0.5279
H28 H -0.1618 -0.8098 0.4938
H29 H -0.2459 -0.8297 0.4953
C34 C -0.10268(18) -0.5099(3) 0.4662(2)
H30 H -0.1172 -0.5568 0.4199
H31 H -0.0671 -0.5515 0.5021
H32 H -0.0816 -0.4384 0.4507
C35 C -0.37193(18) -0.5634(3) 0.4733(2)
H33 H -0.3641 -0.6068 0.4269
H34 H -0.4082 -0.5043 0.4590
H35 H -0.3886 -0.6151 0.5116
C36 C -0.2214(2) -0.3174(3) 0.6846(2)
H36 H -0.2688 -0.3110 0.7022
H37 H -0.2042 -0.2413 0.6728
H38 H -0.1875 -0.3524 0.7257
Cu1B Cu 0.02993(3) -0.52558(5) -0.08012(3)
Cu1B_2 Cu 0.02993(3) -0.52558(5) 0.91988(3)
Cu2B Cu -0.49311(3) -0.01008(4) 0.68210(4)
Cu2A Cu -0.49311(3) -0.48992(4) 0.18210(4)
S1B S 0.00857(5) -0.33955(9) -0.00905(6)
N2A N -0.53701(18) -1.1528(3) 0.2978(2)
N8B N 0.02457(17) -0.4775(3) 0.19256(19)
N10B N -0.54746(15) -0.8604(2) 0.37837(19)
loop_
_geom_bond_atom_site_label_1
_geom_bond_atom_site_label_2
_geom_bond_site_symmetry_1
_geom_bond_site_symmetry_2
Cu1 S1 1_555 1_555
Cu2 S2 1_555 1_555
S1 C1 1_555 1_555
S2 C2 1_555 1_555
N1 C1 1_555 1_555
N2 C2 1_555 1_555
N3 C3 1_555 1_555
N4 Cu1 1_555 1_555
N5 C6 1_555 1_555
N6 Cu2 1_555 1_555
N7 C9 1_555 1_555
N8 C10 1_555 1_555
N9 C12 1_555 1_555
N10 C13 1_555 1_555
C3 H1 1_555 1_555
C4 N4 1_555 1_555
H2 C4 1_555 1_555
C5 N3 1_555 1_555
H3 C5 1_555 1_555
C6 H4 1_555 1_555
C7 N6 1_555 1_555
H5 C7 1_555 1_555
C8 N5 1_555 1_555
H6 C8 1_555 1_555
C9 H7 1_555 1_555
C10 C9 1_555 1_555
H8 C10 1_555 1_555
C11 N7 1_555 1_555
H9 C11 1_555 1_555
C12 H10 1_555 1_555
C13 C12 1_555 1_555
H11 C13 1_555 1_555
C14 N9 1_555 1_555
H12 C14 1_555 1_555
C15 N3 1_555 1_555
H13 C15 1_555 1_555
H14 C15 1_555 1_555
C16 N5 1_555 1_555
H15 C16 1_555 1_555
H16 C16 1_555 1_555
C17 N7 1_555 1_555
H17 C17 1_555 1_555
H18 C17 1_555 1_555
C18 N9 1_555 1_555
H19 C18 1_555 1_555
H20 C18 1_555 1_555
C19 C20 1_555 1_555
C20 C15 1_555 1_555
C21 C20 1_555 1_555
C22 C21 1_555 1_555
C23 C22 1_555 1_555
C24 C16 1_555 1_555
C25 C22 1_555 1_555
C26 C25 1_555 1_555
C27 C18 1_555 1_555
C28 C27 1_555 1_555
C29 C17 1_555 1_555
C30 C25 1_555 1_555
C31 C19 1_555 1_555
H21 C31 1_555 1_555
H22 C31 1_555 1_555
H23 C31 1_555 1_555
C32 C21 1_555 1_555
H24 C32 1_555 1_555
H25 C32 1_555 1_555
H26 C32 1_555 1_555
C33 C23 1_555 1_555
H27 C33 1_555 1_555
H28 C33 1_555 1_555
H29 C33 1_555 1_555
C34 C30 1_555 1_555
H30 C34 1_555 1_555
H31 C34 1_555 1_555
H32 C34 1_555 1_555
C35 C26 1_555 1_555
H33 C35 1_555 1_555
H34 C35 1_555 1_555
H35 C35 1_555 1_555
C36 C28 1_555 1_555
H36 C36 1_555 1_555
H37 C36 1_555 1_555
H38 C36 1_555 1_555
Cu1B S1 1_555 1_555
Cu1B_2 N8 1_555 1_555
Cu2B N10 1_555 1_555
Cu2A N2 1_555 1_555
S1B Cu1 1_555 1_555
N2A Cu2 1_555 1_555
N8B Cu1 1_555 1_555
N10B Cu2 1_555 1_555
N4 C5 1_555 1_555
N6 C8 1_555 1_555
N8 C11 1_555 1_555
N10 C14 1_555 1_555
C3 C4 1_555 1_555
C6 C7 1_555 1_555
C19 C24 1_555 1_555
C23 C24 1_555 1_555
C26 C27 1_555 1_555
C28 C29 1_555 1_555
C29 C30 1_555 1_555
Cu1B S1B 1_555 1_555

#END
