
#######################################################################
#
#                 Cambridge Crystallographic Data Centre
#                                CCDC 
#
#######################################################################
#
# If this CIF has been generated from an entry in the Cambridge 
# Structural Database, then it will include bibliographic, chemical, 
# crystal, experimental, refinement or atomic coordinate data resulting 
# from the CCDC's data processing and validation procedures.
#
#######################################################################

data_XUBJAF
_symmetry_cell_setting           monoclinic
_symmetry_space_group_name_H-M   'I a'
_symmetry_Int_Tables_number      9
_space_group_name_Hall           'I -2ya'
loop_
_symmetry_equiv_pos_site_id
_symmetry_equiv_pos_as_xyz
1 x,y,z
2 1/2+x,-y,z
3 1/2+x,1/2+y,1/2+z
4 x,1/2-y,1/2+z
_cell_length_a                   11.0504(12)
_cell_length_b                   12.2959(16)
_cell_length_c                   13.467(3)
_cell_angle_alpha                90
_cell_angle_beta                 91.915(16)
_cell_angle_gamma                90
_cell_volume                     1828.8
loop_
_atom_site_label
_atom_site_type_symbol
_atom_site_fract_x
_atom_site_fract_y
_atom_site_fract_z
Eu1 Eu 1.23186(2) 0.14560(3) 0.355556(19)
O1 O 1.0313(11) 0.0670(6) 0.3971(8)
H1 H 0.970(5) 0.087(5) 0.346(4)
H2 H 1.008(6) -0.001(3) 0.427(4)
O2 O 1.3419(10) 0.1736(7) 0.1947(8)
H3 H 1.291(5) 0.195(5) 0.137(4)
H4 H 1.403(4) 0.232(4) 0.206(4)
O3 O 1.2520(9) 0.0072(7) 0.4818(6)
H5 H 1.177(3) 0.002(6) 0.518(4)
H6 H 1.321(3) -0.013(5) 0.524(4)
O4 O 1.4363(13) 0.1448(5) 0.4046(10)
O5 O 1.6303(9) 0.1864(7) 0.4425(8)
O6 O 1.3106(10) 0.3264(8) 0.3361(8)
O7 O 1.4127(9) 0.4836(6) 0.3547(7)
O8 O 1.0803(9) 0.2924(6) 0.4089(7)
O9 O 1.2218(10) 0.2499(6) 0.5179(7)
C1 C 1.5215(13) 0.2134(9) 0.4285(10)
C2 C 1.4902(12) 0.3282(10) 0.4424(9)
H7 H 1.5654 0.3712 0.4371
H8 H 1.4628 0.3368 0.5112
C3 C 1.3964(13) 0.3784(10) 0.3744(10)
C4 C 1.1326(12) 0.3045(7) 0.4939(9)
Eu2 Eu 1.42749(2) 0.65043(3) 0.283920(18)
O10 O 1.4219(8) 0.5143(6) 0.1356(6)
H9 H 1.459(5) 0.445(3) 0.157(4)
H10 H 1.474(5) 0.548(4) 0.086(4)
O11 O 1.6239(10) 0.5703(6) 0.2435(8)
H11 H 1.701(4) 0.603(5) 0.261(5)
H12 H 1.631(6) 0.4910(17) 0.250(5)
O12 O 1.3217(9) 0.6758(7) 0.4439(7)
H13 H 1.306(5) 0.613(3) 0.487(4)
H14 H 1.381(5) 0.722(4) 0.479(4)
O13 O 1.3432(10) -0.1678(7) 0.2945(8)
O14 O 1.2378(8) -0.0192(6) 0.2698(6)
O15 O 1.2182(12) -0.3589(5) 0.2301(10)
O16 O 1.0295(8) -0.3221(7) 0.1939(7)
O17 O 1.0814(9) 0.2978(6) 0.7300(7)
O18 O 0.9410(9) 0.2463(6) 0.6196(7)
C5 C 1.2555(12) -0.1141(9) 0.2585(9)
C6 C 1.1693(13) -0.1722(10) 0.1837(10)
H15 H 1.0927 -0.1304 0.1793
H16 H 1.2057 -0.1687 0.1176
C7 C 1.1369(13) -0.2945(8) 0.2051(9)
C8 C 1.0321(12) 0.3060(8) 0.6460(10)
C9 C 1.0810(16) 0.3822(4) 0.5674(12)
H17 H 1.1443 0.4309 0.5961
H18 H 1.0154 0.4268 0.5363
O17C O 1.0814(9) 0.2022(6) 0.2300(7)
Eu2A Eu 0.92749(2) 0.34957(3) 0.283920(18)
O8A O 1.5803(9) 0.7076(6) 0.4089(7)
O13_2 O 1.3432(10) 0.8322(7) 0.2945(8)
O15_2 O 1.2182(12) 0.6411(5) 0.2301(10)
O17B O 1.5814(9) 0.7978(6) 0.2300(7)
O18B O 1.4410(9) 0.7463(6) 0.1196(7)
Eu2_2 Eu 1.42749(2) -0.34957(3) 0.283920(18)
Eu1C Eu 1.23186(2) 0.35440(3) 0.855556(19)
Eu2B Eu 0.92749(2) 0.15043(3) 0.783920(18)
loop_
_geom_bond_atom_site_label_1
_geom_bond_atom_site_label_2
_geom_bond_site_symmetry_1
_geom_bond_site_symmetry_2
Eu1 O1 1_555 1_555
O1 H1 1_555 1_555
H2 O1 1_555 1_555
O2 Eu1 1_555 1_555
H3 O2 1_555 1_555
H4 O2 1_555 1_555
O3 Eu1 1_555 1_555
H5 O3 1_555 1_555
H6 O3 1_555 1_555
O4 Eu1 1_555 1_555
O5 C1 1_555 1_555
O6 Eu1 1_555 1_555
O7 C3 1_555 1_555
O8 Eu1 1_555 1_555
O9 Eu1 1_555 1_555
C1 O4 1_555 1_555
C2 C1 1_555 1_555
H7 C2 1_555 1_555
H8 C2 1_555 1_555
C3 O6 1_555 1_555
C4 O8 1_555 1_555
Eu2 O7 1_555 1_555
O10 Eu2 1_555 1_555
H9 O10 1_555 1_555
H10 O10 1_555 1_555
O11 Eu2 1_555 1_555
H11 O11 1_555 1_555
H12 O11 1_555 1_555
O12 Eu2 1_555 1_555
H13 O12 1_555 1_555
H14 O12 1_555 1_555
O13 C5 1_555 1_555
O14 Eu1 1_555 1_555
O15 C7 1_555 1_555
O16 C7 1_555 1_555
O17 C8 1_555 1_555
O18 C8 1_555 1_555
C5 O14 1_555 1_555
C6 C5 1_555 1_555
H15 C6 1_555 1_555
H16 C6 1_555 1_555
C7 C6 1_555 1_555
C8 C9 1_555 1_555
C9 C4 1_555 1_555
H17 C9 1_555 1_555
H18 C9 1_555 1_555
O17C Eu1 1_555 1_555
Eu2A O8 1_555 1_555
O8A Eu2 1_555 1_555
O13_2 Eu2 1_555 1_555
O15_2 Eu2 1_555 1_555
O17B Eu2 1_555 1_555
O18B Eu2 1_555 1_555
Eu2_2 O13 1_555 1_555
Eu1C O17 1_555 1_555
Eu2B O17 1_555 1_555
O9 C4 1_555 1_555
C2 C3 1_555 1_555
O15 Eu2_2 1_555 1_555
O18 Eu2B 1_555 1_555
O17C Eu2A 1_555 1_555

#END
