
#######################################################################
#
#                 Cambridge Crystallographic Data Centre
#                                CCDC 
#
#######################################################################
#
# If this CIF has been generated from an entry in the Cambridge 
# Structural Database, then it will include bibliographic, chemical, 
# crystal, experimental, refinement or atomic coordinate data resulting 
# from the CCDC's data processing and validation procedures.
#
#######################################################################

data_XUBKOU
_symmetry_cell_setting           monoclinic
_symmetry_space_group_name_H-M   'P 21/c'
_symmetry_Int_Tables_number      14
_space_group_name_Hall           '-P 2ybc'
loop_
_symmetry_equiv_pos_site_id
_symmetry_equiv_pos_as_xyz
1 x,y,z
2 x,1/2-y,1/2+z
3 -x,-y,-z
4 -x,1/2+y,1/2-z
_cell_length_a                   11.3236(4)
_cell_length_b                   6.6084(4)
_cell_length_c                   7.2011(6)
_cell_angle_alpha                90
_cell_angle_beta                 101.948(5)
_cell_angle_gamma                90
_cell_volume                     527.191
loop_
_atom_site_label
_atom_site_type_symbol
_atom_site_fract_x
_atom_site_fract_y
_atom_site_fract_z
Co1 Co 1.0000 0.0000 1.0000
O1 O 0.9137(3) 0.0824(5) 1.2215(4)
O2 O 1.0885(3) 0.2776(5) 1.0153(5)
O3 O 1.1424(3) -0.1088(5) 1.2094(5)
C1 C 0.8341(4) 0.2196(7) 1.2223(6)
C2 C 0.7045(4) 0.1704(8) 1.1432(7)
C3 C 0.6150(9) 0.305(2) 1.126(2)
C4 C 0.4926(8) 0.249(2) 1.052(2)
C5 C 0.4548(5) 0.070(1) 0.995(1)
C6 C 0.6700(5) -0.019(1) 1.0777(9)
O1B O 1.0863(3) -0.0824(5) 0.7785(4)
O2B O 0.9115(3) -0.2776(5) 0.9847(5)
O3B O 0.8576(3) 0.1088(5) 0.7906(5)
C1C C 1.1659(4) -0.2804(7) 1.2777(6)
O3C O 0.8576(3) 0.3912(5) 1.2906(5)
C5B C 0.5452(5) -0.070(1) 1.005(1)
C6B C 0.3300(5) 0.019(1) 0.9223(9)
loop_
_geom_bond_atom_site_label_1
_geom_bond_atom_site_label_2
_geom_bond_site_symmetry_1
_geom_bond_site_symmetry_2
Co1 O1 1_555 1_555
O1 C1 1_555 1_555
O2 Co1 1_555 1_555
O3 Co1 1_555 1_555
C1 C2 1_555 1_555
C2 C3 1_555 1_555
C3 C4 1_555 1_555
C4 C5 1_555 1_555
C5 C5B 1_555 1_555
C6 C2 1_555 1_555
O1B Co1 1_555 1_555
O2B Co1 1_555 1_555
O3B Co1 1_555 1_555
C1C O3 1_555 1_555
O3C C1 1_555 1_555
C5B C6 1_555 1_555
C6B C5 1_555 1_555

#END
