
#######################################################################
#
#                 Cambridge Crystallographic Data Centre
#                                CCDC 
#
#######################################################################
#
# If this CIF has been generated from an entry in the Cambridge 
# Structural Database, then it will include bibliographic, chemical, 
# crystal, experimental, refinement or atomic coordinate data resulting 
# from the CCDC's data processing and validation procedures.
#
#######################################################################

data_XUBKIO
_symmetry_cell_setting           monoclinic
_symmetry_space_group_name_H-M   'C 2/c'
_symmetry_Int_Tables_number      15
_space_group_name_Hall           '-C 2yn'
loop_
_symmetry_equiv_pos_site_id
_symmetry_equiv_pos_as_xyz
1 x,y,z
2 x,-y,1/2+z
3 1/2+x,1/2+y,z
4 1/2+x,1/2-y,1/2+z
5 -x,-y,-z
6 -x,y,1/2-z
7 1/2-x,1/2-y,-z
8 1/2-x,1/2+y,1/2-z
_cell_length_a                   36.564(5)
_cell_length_b                   6.4037(9)
_cell_length_c                   7.327(1)
_cell_angle_alpha                90
_cell_angle_beta                 92.101(4)
_cell_angle_gamma                90
_cell_volume                     1714.43
loop_
_atom_site_label
_atom_site_type_symbol
_atom_site_fract_x
_atom_site_fract_y
_atom_site_fract_z
Co1 Co 0.2500 0.2500 0.5000
O1 O 0.22071(6) 0.1641(4) 0.2604(3)
O2 O 0.20911(6) -0.1635(4) 0.1719(3)
O3 O 0.27708(7) -0.0374(4) 0.5150(3)
C1 C 0.19931(9) 0.0081(5) 0.2374(4)
C2 C 0.16081(10) 0.0247(6) 0.2874(5)
C3 C 0.14653(10) 0.1980(6) 0.3525(5)
C4 C 0.10858(10) 0.2252(6) 0.4036(5)
C5 C 0.0815(1) 0.0806(7) 0.3624(6)
C6 C 0.0461(1) 0.1155(8) 0.4130(7)
C7 C 0.0371(1) 0.2915(8) 0.5052(7)
C8 C 0.0634(1) 0.4372(8) 0.5479(7)
C9 C 0.0989(1) 0.4065(7) 0.4955(6)
H1 H 0.1451 -0.0966 0.2573
H2 H 0.1635 0.3122 0.3774
H3 H 0.0851 -0.0473 0.2876
H4 H 0.0261 0.0237 0.4060
H5 H 0.0121 0.3092 0.5486
H6 H 0.0592 0.5762 0.5915
H7 H 0.1179 0.4785 0.5421
H8 H 0.2678 -0.1468 0.5877
H9 H 0.2987 -0.0586 0.4493
O1F O 0.27929(6) 0.3359(4) 0.7396(3)
O2F O 0.29089(6) 0.6635(4) 0.8281(3)
C1F C 0.30069(9) 0.4919(5) 0.7626(4)
C2F C 0.33919(10) 0.4753(6) 0.7126(5)
C3F C 0.35347(10) 0.3020(6) 0.6475(5)
C4F C 0.39142(10) 0.2748(6) 0.5964(5)
C5F C 0.4185(1) 0.4194(7) 0.6376(6)
C6F C 0.4539(1) 0.3845(8) 0.5870(7)
C7F C 0.4629(1) 0.2085(8) 0.4948(7)
C8F C 0.4366(1) 0.0628(8) 0.4521(7)
C9F C 0.4011(1) 0.0935(7) 0.5045(6)
H1F H 0.3549 0.5966 0.7427
H2F H 0.3365 0.1878 0.6226
H3F H 0.4149 0.5473 0.7124
H4F H 0.4739 0.4763 0.5940
H5F H 0.4879 0.1908 0.4514
H6F H 0.4408 -0.0762 0.4085
H7F H 0.3821 0.0215 0.4579
O3F O 0.22292(7) 0.5374(4) 0.4850(3)
H8F H 0.2322 0.6468 0.4123
H9F H 0.2013 0.5586 0.5507
O2A O 0.20911(6) 0.1635(4) 0.6719(3)
O2G O 0.29089(6) 0.3365(4) 0.3281(3)
Co1A Co 0.2500 -0.2500 0.0000
Co1A_2 Co 0.2500 0.7500 1.0000
loop_
_geom_bond_atom_site_label_1
_geom_bond_atom_site_label_2
_geom_bond_site_symmetry_1
_geom_bond_site_symmetry_2
Co1 O1 1_555 1_555
O1 C1 1_555 1_555
O2 C1 1_555 1_555
O3 Co1 1_555 1_555
C1 C2 1_555 1_555
C2 C3 1_555 1_555
C3 C4 1_555 1_555
C4 C5 1_555 1_555
C5 C6 1_555 1_555
C6 C7 1_555 1_555
C7 C8 1_555 1_555
C8 C9 1_555 1_555
C9 C4 1_555 1_555
H1 C2 1_555 1_555
H2 C3 1_555 1_555
H3 C5 1_555 1_555
H4 C6 1_555 1_555
H5 C7 1_555 1_555
H6 C8 1_555 1_555
H7 C9 1_555 1_555
H8 O3 1_555 1_555
H9 O3 1_555 1_555
O1F Co1 1_555 1_555
O2F C1F 1_555 1_555
C1F O1F 1_555 1_555
C2F C1F 1_555 1_555
C3F C2F 1_555 1_555
C4F C3F 1_555 1_555
C5F C4F 1_555 1_555
C6F C5F 1_555 1_555
C7F C6F 1_555 1_555
C8F C7F 1_555 1_555
C9F C4F 1_555 1_555
H1F C2F 1_555 1_555
H2F C3F 1_555 1_555
H3F C5F 1_555 1_555
H4F C6F 1_555 1_555
H5F C7F 1_555 1_555
H6F C8F 1_555 1_555
H7F C9F 1_555 1_555
O3F Co1 1_555 1_555
H8F O3F 1_555 1_555
H9F O3F 1_555 1_555
O2A Co1 1_555 1_555
O2G Co1 1_555 1_555
Co1A O2 1_555 1_555
Co1A_2 O2F 1_555 1_555
C8F C9F 1_555 1_555

#END
