
#######################################################################
#
#                 Cambridge Crystallographic Data Centre
#                                CCDC 
#
#######################################################################
#
# If this CIF has been generated from an entry in the Cambridge 
# Structural Database, then it will include bibliographic, chemical, 
# crystal, experimental, refinement or atomic coordinate data resulting 
# from the CCDC's data processing and validation procedures.
#
#######################################################################

data_XUBLEM
_symmetry_cell_setting           monoclinic
_symmetry_space_group_name_H-M   'C 2/c'
_symmetry_Int_Tables_number      15
_space_group_name_Hall           '-C 2yn'
loop_
_symmetry_equiv_pos_site_id
_symmetry_equiv_pos_as_xyz
1 x,y,z
2 -x,y,1/2-z
3 1/2+x,1/2+y,z
4 1/2-x,1/2+y,1/2-z
5 -x,-y,-z
6 x,-y,1/2+z
7 1/2-x,1/2-y,-z
8 1/2+x,1/2-y,1/2+z
_cell_length_a                   13.490(3)
_cell_length_b                   21.510(5)
_cell_length_c                   9.803(2)
_cell_angle_alpha                90
_cell_angle_beta                 91.125(4)
_cell_angle_gamma                90
_cell_volume                     2843.99
loop_
_atom_site_label
_atom_site_type_symbol
_atom_site_fract_x
_atom_site_fract_y
_atom_site_fract_z
Mn1 Mn 0.32935(6) 0.06982(4) 0.41356(8)
Br1 Br 0.34335(4) 0.15379(3) 0.21825(6)
Br2 Br 0.13026(5) 0.06928(3) 0.40001(8)
O1 O 0.3336(3) 0.01771(15) 0.6076(4)
O2 O 0.3331(3) 0.02393(17) 0.8343(4)
O3 O 0.4928(3) 0.06506(18) 0.4217(5)
H1 H 0.5358 0.0983 0.3865
H2 H 0.5394 0.0408 0.4376
N1 N 0.3431(3) 0.14114(19) 0.5834(4)
C1 C 0.3514(4) 0.2031(2) 0.5714(6)
H3 H 0.3488 0.2203 0.4844
C2 C 0.3634(5) 0.2422(3) 0.6809(7)
H4 H 0.3667 0.2850 0.6687
C3 C 0.3702(5) 0.2168(3) 0.8077(7)
H5 H 0.3800 0.2422 0.8836
C4 C 0.3625(5) 0.1532(3) 0.8234(6)
H6 H 0.3667 0.1351 0.9095
C5 C 0.3488(4) 0.1175(2) 0.7091(5)
C6 C 0.3378(4) 0.0470(3) 0.7180(6)
Mn1E Mn 0.32935(6) -0.06982(4) 0.91356(8)
O2E O 0.3331(3) -0.02393(17) 0.3343(4)
N2 N 0.1654(3) 0.06720(19) 1.0558(5)
H7 H 0.2232 0.0622 1.0151
H8 H 0.1262 0.0350 1.0366
H9 H 0.1754 0.0696 1.1457
C7 C 0.1177(3) 0.12511(19) 1.0062(5)
H10 H 0.1654 0.1588 1.0122
H11 H 0.0630 0.1353 1.0650
C8 C 0.0796(5) 0.1202(3) 0.8624(7)
H12 H 0.0399 0.0828 0.8525
H13 H 0.1351 0.1169 0.8013
C9 C 0.0174(5) 0.1762(3) 0.8230(7)
H14 H -0.0400 0.1777 0.8810
H15 H 0.0560 0.2136 0.8400
N2A N -0.1654(3) 0.06720(19) 0.4442(5)
H7A H -0.2232 0.0622 0.4849
H8A H -0.1262 0.0350 0.4634
H9A H -0.1754 0.0696 0.3543
C7A C -0.1177(3) 0.12511(19) 0.4938(5)
H10A H -0.1654 0.1588 0.4878
H11A H -0.0630 0.1353 0.4350
C8A C -0.0796(5) 0.1202(3) 0.6376(7)
H12A H -0.0399 0.0828 0.6475
H13A H -0.1351 0.1169 0.6987
C9A C -0.0174(5) 0.1762(3) 0.6770(7)
H14A H 0.0400 0.1777 0.6190
H15A H -0.0560 0.2136 0.6600
loop_
_geom_bond_atom_site_label_1
_geom_bond_atom_site_label_2
_geom_bond_site_symmetry_1
_geom_bond_site_symmetry_2
Mn1 Br1 1_555 1_555
Br2 Mn1 1_555 1_555
O1 Mn1 1_555 1_555
O2 C6 1_555 1_555
O3 Mn1 1_555 1_555
H1 O3 1_555 1_555
H2 O3 1_555 1_555
N1 Mn1 1_555 1_555
C1 N1 1_555 1_555
H3 C1 1_555 1_555
C2 C1 1_555 1_555
H4 C2 1_555 1_555
C3 C2 1_555 1_555
H5 C3 1_555 1_555
C4 C3 1_555 1_555
H6 C4 1_555 1_555
C5 N1 1_555 1_555
C6 O1 1_555 1_555
N2 H7 1_555 1_555
H8 N2 1_555 1_555
H9 N2 1_555 1_555
C7 N2 1_555 1_555
H10 C7 1_555 1_555
H11 C7 1_555 1_555
C8 C7 1_555 1_555
H12 C8 1_555 1_555
H13 C8 1_555 1_555
C9 C8 1_555 1_555
H14 C9 1_555 1_555
H15 C9 1_555 1_555
Mn1E O2 1_555 1_555
O2E Mn1 1_555 1_555
N2A H7A 1_555 1_555
H8A N2A 1_555 1_555
H9A N2A 1_555 1_555
C7A N2A 1_555 1_555
H10A C7A 1_555 1_555
H11A C7A 1_555 1_555
C8A C7A 1_555 1_555
H12A C8A 1_555 1_555
H13A C8A 1_555 1_555
C9A C9 1_555 1_555
H14A C9A 1_555 1_555
H15A C9A 1_555 1_555
C4 C5 1_555 1_555
C5 C6 1_555 1_555
C8A C9A 1_555 1_555

#END
