
#######################################################################
#
#                 Cambridge Crystallographic Data Centre
#                                CCDC 
#
#######################################################################
#
# If this CIF has been generated from an entry in the Cambridge 
# Structural Database, then it will include bibliographic, chemical, 
# crystal, experimental, refinement or atomic coordinate data resulting 
# from the CCDC's data processing and validation procedures.
#
#######################################################################

data_XUBLUC
_symmetry_cell_setting           monoclinic
_symmetry_space_group_name_H-M   'C 2'
_symmetry_Int_Tables_number      5
_space_group_name_Hall           'C 2y'
loop_
_symmetry_equiv_pos_site_id
_symmetry_equiv_pos_as_xyz
1 x,y,z
2 -x,y,-z
3 1/2+x,1/2+y,z
4 1/2-x,1/2+y,-z
_cell_length_a                   17.3394(10)
_cell_length_b                   12.8724(7)
_cell_length_c                   6.5462(3)
_cell_angle_alpha                90
_cell_angle_beta                 111.609(2)
_cell_angle_gamma                90
_cell_volume                     1358.42
loop_
_atom_site_label
_atom_site_type_symbol
_atom_site_fract_x
_atom_site_fract_y
_atom_site_fract_z
Ni1 Ni 0.5000 0.68238(4) 0.0000
Ni2 Ni 0.757745(18) -0.02765(2) 0.22999(5)
O1 O 0.56460(12) 0.54287(15) 0.1157(3)
O2 O 0.58008(19) 0.7828(2) 0.1959(5)
H1 H 0.5729 0.8177 0.2978
H2 H 0.6113 0.8141 0.1460
O3 O 0.44433(15) 0.68727(18) 0.2333(4)
H3 H 0.4101 0.6382 0.2657
H4 H 0.4382 0.7546 0.2822
O4 O 0.83989(12) 0.08047(16) 0.4286(3)
H5 H 0.8029 0.1274 0.4439
H6 H 0.8708 0.0577 0.5683
O5 O 0.67707(12) -0.13068(15) 0.0142(3)
H7 H 0.7035 -0.1838 0.0246
H8 H 0.6543 -0.1191 -0.1354
O6 O 0.77890(12) 0.03467(16) -0.0377(3)
H9 H 0.7595 0.0949 -0.0829
H10 H 0.8290 0.0322 -0.0698
O7 O 0.85264(11) -0.12996(14) 0.3010(3)
O8 O 0.65774(12) 0.06587(15) 0.1685(3)
O9 O 0.73419(13) -0.09194(17) 0.4944(3)
H11 H 0.6945 -0.0832 0.5292
H12 H 0.7453 -0.1563 0.5346
O10 O 0.71601(12) 0.21051(15) 0.3445(3)
O11 O 0.78560(12) -0.27492(14) 0.1508(3)
O12 O 0.93126(13) -0.61400(16) 0.4291(4)
C1 C 0.92709(16) -0.3961(2) 0.3927(4)
H13 H 0.8781 -0.4324 0.3216
C2 C 0.5000 0.1625(3) 0.0000
H14 H 0.5000 0.0903 0.0000
C3 C 1.0000 -0.4499(3) 0.5000
C4 C 1.0000 -0.2341(3) 0.5000
H15 H 1.0000 -0.1618 0.5000
C5 C 0.92667(15) -0.28782(19) 0.3907(4)
C6 C 0.65536(16) 0.1604(2) 0.2156(4)
C7 C 0.5000 0.3778(3) 0.0000
C8 C 0.84852(15) -0.2270(2) 0.2722(4)
C9 C 0.57403(16) 0.2158(2) 0.1077(4)
C10 C 0.57306(15) 0.3237(2) 0.1084(4)
H16 H 0.6218 0.3601 0.1821
C11 C 0.5000 0.4925(3) 0.0000
C12 C 1.0000 -0.5673(3) 0.5000
Ni2A Ni 0.242255(18) -0.02765(2) -0.22999(5)
Ni2A_2 Ni 1.242255(18) -0.02765(2) 0.77001(5)
O1A O 0.43540(12) 0.54287(15) -0.1157(3)
O2A O 0.41992(19) 0.7828(2) -0.1959(5)
H1A H 0.4271 0.8177 -0.2978
H2A H 0.3887 0.8141 -0.1460
O3A O 0.55567(15) 0.68727(18) -0.2333(4)
H3A H 0.5899 0.6382 -0.2657
H4A H 0.5618 0.7546 -0.2822
O4A O 0.16011(12) 0.08047(16) -0.4286(3)
H5A H 0.1971 0.1274 -0.4439
H6A H 0.1292 0.0577 -0.5683
O5A O 0.32293(12) -0.13068(15) -0.0142(3)
H7A H 0.2965 -0.1838 -0.0246
H8A H 0.3457 -0.1191 0.1354
O6A O 0.22110(12) 0.03467(16) 0.0377(3)
H9A H 0.2405 0.0949 0.0829
H10A H 0.1710 0.0322 0.0698
O7A O 1.14736(11) -0.12996(14) 0.6990(3)
O7A_2 O 0.14736(11) -0.12996(14) -0.3010(3)
O8A O 0.34226(12) 0.06587(15) -0.1685(3)
O9A O 0.26581(13) -0.09194(17) -0.4944(3)
H11A H 0.3055 -0.0832 -0.5292
H12A H 0.2547 -0.1563 -0.5346
O10A O 0.28399(12) 0.21051(15) -0.3445(3)
O11A O 1.21440(12) -0.27492(14) 0.8492(3)
O12A O 1.06874(13) -0.61400(16) 0.5709(4)
C1A C 1.07291(16) -0.3961(2) 0.6073(4)
H13A H 1.1219 -0.4324 0.6784
C5A C 1.07333(15) -0.28782(19) 0.6093(4)
C6A C 0.34464(16) 0.1604(2) -0.2156(4)
C8A C 1.15148(15) -0.2270(2) 0.7278(4)
C9A C 0.42597(16) 0.2158(2) -0.1077(4)
C10A C 0.42694(15) 0.3237(2) -0.1084(4)
H16A H 0.3782 0.3601 -0.1821
loop_
_geom_bond_atom_site_label_1
_geom_bond_atom_site_label_2
_geom_bond_site_symmetry_1
_geom_bond_site_symmetry_2
Ni1 O1 1_555 1_555
Ni2 O4 1_555 1_555
O1 C11 1_555 1_555
O2 Ni1 1_555 1_555
H1 O2 1_555 1_555
H2 O2 1_555 1_555
O3 Ni1 1_555 1_555
H3 O3 1_555 1_555
H4 O3 1_555 1_555
O4 H5 1_555 1_555
H6 O4 1_555 1_555
O5 Ni2 1_555 1_555
H7 O5 1_555 1_555
H8 O5 1_555 1_555
O6 Ni2 1_555 1_555
H9 O6 1_555 1_555
H10 O6 1_555 1_555
O7 Ni2 1_555 1_555
O8 Ni2 1_555 1_555
O9 Ni2 1_555 1_555
H11 O9 1_555 1_555
H12 O9 1_555 1_555
O10 C6 1_555 1_555
O11 C8 1_555 1_555
O12 C12 1_555 1_555
C1 H13 1_555 1_555
C2 H14 1_555 1_555
C3 C1 1_555 1_555
C4 H15 1_555 1_555
C5 C1 1_555 1_555
C6 O8 1_555 1_555
C7 C10 1_555 1_555
C8 O7 1_555 1_555
C9 C2 1_555 1_555
C10 C9 1_555 1_555
H16 C10 1_555 1_555
C11 C7 1_555 1_555
C12 C3 1_555 1_555
Ni2A O4A 1_555 1_555
Ni2A_2 O7A 1_555 1_555
O1A Ni1 1_555 1_555
O2A Ni1 1_555 1_555
H1A O2A 1_555 1_555
H2A O2A 1_555 1_555
O3A Ni1 1_555 1_555
H3A O3A 1_555 1_555
H4A O3A 1_555 1_555
O4A H5A 1_555 1_555
H6A O4A 1_555 1_555
O5A Ni2A 1_555 1_555
H7A O5A 1_555 1_555
H8A O5A 1_555 1_555
O6A Ni2A 1_555 1_555
H9A O6A 1_555 1_555
H10A O6A 1_555 1_555
O7A C8A 1_555 1_555
O7A_2 Ni2A 1_555 1_555
O8A Ni2A 1_555 1_555
O9A Ni2A 1_555 1_555
H11A O9A 1_555 1_555
H12A O9A 1_555 1_555
O10A C6A 1_555 1_555
O11A C8A 1_555 1_555
O12A C12 1_555 1_555
C1A C3 1_555 1_555
H13A C1A 1_555 1_555
C5A C4 1_555 1_555
C6A O8A 1_555 1_555
C8A C5A 1_555 1_555
C9A C2 1_555 1_555
C10A C7 1_555 1_555
H16A C10A 1_555 1_555
C4 C5 1_555 1_555
C5 C8 1_555 1_555
C6 C9 1_555 1_555
C11 O1A 1_555 1_555
C1A C5A 1_555 1_555
C6A C9A 1_555 1_555
C9A C10A 1_555 1_555

#END
