
#######################################################################
#
#                 Cambridge Crystallographic Data Centre
#                                CCDC 
#
#######################################################################
#
# If this CIF has been generated from an entry in the Cambridge 
# Structural Database, then it will include bibliographic, chemical, 
# crystal, experimental, refinement or atomic coordinate data resulting 
# from the CCDC's data processing and validation procedures.
#
#######################################################################

data_XUBLUC02
_symmetry_cell_setting           monoclinic
_symmetry_space_group_name_H-M   'C 2'
_symmetry_Int_Tables_number      5
_space_group_name_Hall           'C 2y'
loop_
_symmetry_equiv_pos_site_id
_symmetry_equiv_pos_as_xyz
1 x,y,z
2 -x,y,-z
3 1/2+x,1/2+y,z
4 1/2-x,1/2+y,-z
_cell_length_a                   17.407(6)
_cell_length_b                   12.878(5)
_cell_length_c                   6.542(2)
_cell_angle_alpha                90
_cell_angle_beta                 112.07
_cell_angle_gamma                90
_cell_volume                     1359.05
loop_
_atom_site_label
_atom_site_type_symbol
_atom_site_fract_x
_atom_site_fract_y
_atom_site_fract_z
Ni1 Ni 0.25820(4) 0.49338(4) 0.22806(11)
Ni2 Ni 0.0000 1.20345(7) 0.0000
C1 C 0.4268(4) 0.2336(5) 0.3908(9)
C2 C 0.5000 0.2871(7) 0.5000
H1 H 0.5000 0.3593 0.5000
C3 C 0.5000 0.0706(6) 0.5000
C4 C 0.4269(3) 0.1253(5) 0.3935(9)
H2 H 0.3776 0.0893 0.3234
C5 C 0.3494(3) 0.2946(5) 0.2708(8)
C6 C 0.5000 -0.0453(7) 0.5000
C7 C 0.0735(3) 0.7367(4) 0.1080(9)
C8 C 0.0741(3) 0.8437(5) 0.1090(9)
H3 H 0.1232 0.8796 0.1813
C9 C 0.0000 0.8981(6) 0.0000
C10 C 0.0000 0.6827(6) 0.0000
H4 H 0.0000 0.6105 0.0000
C11 C 0.1561(3) 0.6796(5) 0.2152(9)
C12 C 0.0000 1.0126(6) 0.0000
O1 O 0.3527(3) 0.3898(3) 0.2996(7)
O2 O 0.2853(3) 0.2457(3) 0.1506(8)
O3 O 0.5691(3) -0.0941(4) 0.5719(8)
O4 O 0.1569(3) 0.5864(3) 0.1678(8)
O5 O 0.2163(3) 0.7320(4) 0.3441(8)
O6 O 0.0648(3) 1.0639(3) 0.1164(7)
O7 O 0.1780(3) 0.3900(4) 0.0140(8)
H5 H 0.191(5) 0.329(7) 0.035(13)
H6 H 0.162(5) 0.405(7) -0.117(14)
O8 O 0.2348(3) 0.4287(4) 0.4920(8)
H7 H 0.252(6) 0.369(10) 0.527(17)
H8 H 0.193(6) 0.441(9) 0.519(17)
O9 O 0.3401(3) 0.6031(4) 0.4267(8)
H9 H 0.367(5) 0.569(7) 0.537(15)
H10 H 0.312(5) 0.646(8) 0.460(14)
O10 O 0.2780(3) 0.5551(4) -0.0433(9)
H11 H 0.322(6) 0.549(8) -0.060(16)
H12 H 0.263(6) 0.616(10) -0.056(16)
O11 O -0.0804(5) 1.3047(6) -0.1966(13)
H13 H -0.074(10) 1.338(12) -0.30(2)
H14 H -0.111(9) 1.334(12) -0.14(2)
O12 O -0.0557(3) 1.2091(5) 0.2344(9)
H15 H -0.072(7) 1.152(9) 0.258(17)
H16 H -0.073(7) 1.257(8) 0.288(18)
C1A C 0.5732(4) 0.2336(5) 0.6092(9)
C4A C 0.5731(3) 0.1253(5) 0.6065(9)
H2A H 0.6224 0.0893 0.6766
C5A C 0.6506(3) 0.2946(5) 0.7292(8)
O1A O 0.6473(3) 0.3898(3) 0.7004(7)
O2A O 0.7147(3) 0.2457(3) 0.8494(8)
O3A O 0.4309(3) -0.0941(4) 0.4281(8)
C7A C -0.0735(3) 0.7367(4) -0.1080(9)
C8A C -0.0741(3) 0.8437(5) -0.1090(9)
H3A H -0.1232 0.8796 -0.1813
C11A C -0.1561(3) 0.6796(5) -0.2152(9)
O4A O -0.1569(3) 0.5864(3) -0.1678(8)
O5A O -0.2163(3) 0.7320(4) -0.3441(8)
O6A O -0.0648(3) 1.0639(3) -0.1164(7)
Ni1A Ni -0.25820(4) 0.49338(4) -0.22806(11)
O7A O -0.1780(3) 0.3900(4) -0.0140(8)
H5A H -0.191(5) 0.329(7) -0.035(13)
H6A H -0.162(5) 0.405(7) 0.117(14)
O8A O -0.2348(3) 0.4287(4) -0.4920(8)
H7A H -0.252(6) 0.369(10) -0.527(17)
H8A H -0.193(6) 0.441(9) -0.519(17)
O9A O -0.3401(3) 0.6031(4) -0.4267(8)
H9A H -0.367(5) 0.569(7) -0.537(15)
H10A H -0.312(5) 0.646(8) -0.460(14)
O10A O -0.2780(3) 0.5551(4) 0.0433(9)
H11A H -0.322(6) 0.549(8) 0.060(16)
H12A H -0.263(6) 0.616(10) 0.056(16)
O11A O 0.0804(5) 1.3047(6) 0.1966(13)
H13A H 0.074(10) 1.338(12) 0.30(2)
H14A H 0.111(9) 1.334(12) 0.14(2)
O12A O 0.0557(3) 1.2091(5) -0.2344(9)
H15A H 0.072(7) 1.152(9) -0.258(17)
H16A H 0.073(7) 1.257(8) -0.288(18)
Ni1A_2 Ni 0.74180(4) 0.49338(4) 0.77194(11)
O1A_2 O -0.3527(3) 0.3898(3) -0.2996(7)
loop_
_geom_bond_atom_site_label_1
_geom_bond_atom_site_label_2
_geom_bond_site_symmetry_1
_geom_bond_site_symmetry_2
Ni1 O1 1_555 1_555
Ni2 O6 1_555 1_555
C1 C2 1_555 1_555
C2 H1 1_555 1_555
C3 C4 1_555 1_555
C4 C1 1_555 1_555
H2 C4 1_555 1_555
C5 C1 1_555 1_555
C6 C3 1_555 1_555
C7 C8 1_555 1_555
C8 H3 1_555 1_555
C9 C8 1_555 1_555
C10 C7 1_555 1_555
H4 C10 1_555 1_555
C11 C7 1_555 1_555
C12 C9 1_555 1_555
O1 C5 1_555 1_555
O2 C5 1_555 1_555
O3 C6 1_555 1_555
O4 Ni1 1_555 1_555
O5 C11 1_555 1_555
O6 C12 1_555 1_555
O7 Ni1 1_555 1_555
H5 O7 1_555 1_555
H6 O7 1_555 1_555
O8 Ni1 1_555 1_555
H7 O8 1_555 1_555
H8 O8 1_555 1_555
O9 Ni1 1_555 1_555
H9 O9 1_555 1_555
H10 O9 1_555 1_555
O10 Ni1 1_555 1_555
H11 O10 1_555 1_555
H12 O10 1_555 1_555
O11 Ni2 1_555 1_555
H13 O11 1_555 1_555
H14 O11 1_555 1_555
O12 Ni2 1_555 1_555
H15 O12 1_555 1_555
H16 O12 1_555 1_555
C1A C2 1_555 1_555
C4A C3 1_555 1_555
H2A C4A 1_555 1_555
C5A C1A 1_555 1_555
O1A C5A 1_555 1_555
O2A C5A 1_555 1_555
O3A C6 1_555 1_555
C7A C10 1_555 1_555
C8A C9 1_555 1_555
H3A C8A 1_555 1_555
C11A C7A 1_555 1_555
O4A C11A 1_555 1_555
O5A C11A 1_555 1_555
O6A Ni2 1_555 1_555
Ni1A O4A 1_555 1_555
O7A Ni1A 1_555 1_555
H5A O7A 1_555 1_555
H6A O7A 1_555 1_555
O8A Ni1A 1_555 1_555
H7A O8A 1_555 1_555
H8A O8A 1_555 1_555
O9A Ni1A 1_555 1_555
H9A O9A 1_555 1_555
H10A O9A 1_555 1_555
O10A Ni1A 1_555 1_555
H11A O10A 1_555 1_555
H12A O10A 1_555 1_555
O11A Ni2 1_555 1_555
H13A O11A 1_555 1_555
H14A O11A 1_555 1_555
O12A Ni2 1_555 1_555
H15A O12A 1_555 1_555
H16A O12A 1_555 1_555
Ni1A_2 O1A 1_555 1_555
O1A_2 Ni1A 1_555 1_555
C11 O4 1_555 1_555
C12 O6A 1_555 1_555
C1A C4A 1_555 1_555
C7A C8A 1_555 1_555

#END
