
#######################################################################
#
#                 Cambridge Crystallographic Data Centre
#                                CCDC 
#
#######################################################################
#
# If this CIF has been generated from an entry in the Cambridge 
# Structural Database, then it will include bibliographic, chemical, 
# crystal, experimental, refinement or atomic coordinate data resulting 
# from the CCDC's data processing and validation procedures.
#
#######################################################################

data_XUBMEN
_symmetry_cell_setting           orthorhombic
_symmetry_space_group_name_H-M   'C 2 2 21'
_symmetry_Int_Tables_number      20
_space_group_name_Hall           'C 2n 2'
loop_
_symmetry_equiv_pos_site_id
_symmetry_equiv_pos_as_xyz
1 x,y,z
2 -x,-y,1/2+z
3 x,-y,-z
4 -x,y,1/2-z
5 1/2+x,1/2+y,z
6 1/2-x,1/2-y,1/2+z
7 1/2+x,1/2-y,-z
8 1/2-x,1/2+y,1/2-z
_cell_length_a                   10.7901(4)
_cell_length_b                   11.1995(5)
_cell_length_c                   30.5880(10)
_cell_angle_alpha                90
_cell_angle_beta                 90
_cell_angle_gamma                90
_cell_volume                     3696.37
loop_
_atom_site_label
_atom_site_type_symbol
_atom_site_fract_x
_atom_site_fract_y
_atom_site_fract_z
Cd1 Cd 1.0000 0.70141(4) 0.7500
Cd2 Cd 0.95531(3) 0.81768(3) 0.578406(9)
Cd3 Cd 0.91091(3) 0.29800(2) 0.601930(8)
Cd4 Cd 1.0000 1.19902(4) 0.7500
O1 O 1.0079(3) 0.7619(3) 0.67881(10)
O2 O 1.1079(3) 0.8548(3) 0.62512(10)
O3 O 1.1495(3) 0.8566(3) 0.74078(9)
H1 H 1.2130 0.8367 0.7536
O4 O 1.0508(4) 1.0602(3) 0.69188(15)
H2 H 1.0337 1.0916 0.6684
O5 O 1.3661(3) 1.0768(3) 0.72008(12)
O6 O 1.1993(3) 1.1322(3) 0.75792(11)
O7 O 0.9280(3) 0.6190(3) 0.58705(11)
O8 O 0.8178(3) 0.4562(3) 0.57088(11)
O9 O 0.7827(3) 0.7584(3) 0.53809(12)
H3 H 0.7944 0.7771 0.5125
O10 O 0.6037(3) 0.6797(2) 0.59740(9)
H4 H 0.6630 0.7235 0.6023
O11 O 0.4479(3) 0.7476(3) 0.53234(10)
O12 O 0.5479(4) 0.6380(4) 0.48342(11)
O13 O 0.7972(3) 1.1471(3) 0.62762(11)
O14 O 0.8822(3) 1.0056(3) 0.58715(11)
O15 O 0.7955(3) 0.8293(3) 0.63798(9)
H5 H 0.8205 0.7918 0.6592
O16 O 0.5760(3) 0.9462(2) 0.61037(9)
H6 H 0.5493 1.0109 0.6021
O17 O 0.4749(2) 0.8105(3) 0.67293(9)
O18 O 0.6216(3) 0.8518(3) 0.72046(10)
C1 C 1.0921(4) 0.8279(3) 0.66460(12)
C2 C 1.1821(3) 0.8874(3) 0.69695(12)
H7 H 1.2666 0.8599 0.6909
C3 C 1.1755(4) 1.0224(4) 0.69036(15)
H8 H 1.2103 1.0423 0.6617
C4 C 1.2533(4) 1.0834(3) 0.72602(13)
C5 C 0.8399(4) 0.5650(4) 0.56782(13)
C6 C 0.7517(4) 0.6364(3) 0.53935(12)
H9 H 0.7558 0.6047 0.5095
C7 C 0.6197(3) 0.6243(3) 0.55551(12)
H10 H 0.6016 0.5390 0.5588
C8 C 0.5297(4) 0.6755(4) 0.52122(13)
C9 C 0.8210(4) 1.0408(4) 0.61868(13)
C10 C 0.7672(3) 0.9479(3) 0.65126(12)
H11 H 0.8020 0.9622 0.6804
C11 C 0.6258(4) 0.9612(3) 0.65322(13)
H12 H 0.6054 1.0415 0.6638
C12 C 0.5704(4) 0.8690(3) 0.68453(12)
Cd1D Cd 1.5000 1.20141(4) 0.7500
Cd1D_2 Cd 0.5000 1.20141(4) 0.7500
Cd2C Cd 1.04469(3) 0.81768(3) 0.921594(9)
Cd2F Cd 0.45531(3) 0.68232(3) 0.421594(9)
Cd2F_2 Cd 1.45531(3) 0.68232(3) 0.421594(9)
Cd2D Cd 1.45531(3) 1.31768(3) 0.578406(9)
Cd3F Cd 1.41091(3) 1.20200(2) 0.398070(8)
Cd3D Cd 0.41091(3) 0.79800(2) 0.601930(8)
Cd3_2 Cd 0.91091(3) 1.29800(2) 0.601930(8)
Cd3B Cd 0.91091(3) 0.70200(2) 0.398070(8)
Cd3D_2 Cd 1.41091(3) 1.79800(2) 0.601930(8)
Cd4D Cd 0.5000 0.69902(4) 0.7500
O1C O 0.9921(3) 0.7619(3) 0.82119(10)
O2C O 0.8921(3) 0.8548(3) 0.87488(10)
O3C O 0.8505(3) 0.8566(3) 0.75922(9)
H1C H 0.7870 0.8367 0.7464
O4C O 0.9492(4) 1.0602(3) 0.80812(15)
H2C H 0.9663 1.0916 0.8316
O5C O 0.6339(3) 1.0768(3) 0.77992(12)
O5D O 0.8661(3) 0.5768(3) 0.72008(12)
O5G O 1.1339(3) 0.5768(3) 0.77992(12)
O6C O 0.8007(3) 1.1322(3) 0.74208(11)
O7F O 1.4280(3) 0.8810(3) 0.41295(11)
O7C O 1.0720(3) 0.6190(3) 0.91295(11)
O8F O 1.3178(3) 1.0438(3) 0.42912(11)
O9F O 1.2827(3) 0.7416(3) 0.46191(12)
O9C O 1.2173(3) 0.7584(3) 0.96191(12)
H3F H 1.2944 0.7229 0.4875
H3C H 1.2056 0.7771 0.9875
O10F O 1.1037(3) 0.8203(2) 0.40260(9)
O10D O 1.1037(3) 0.1797(2) 0.59740(9)
O10B O 1.6037(3) 1.3203(2) 0.40260(9)
H4F H 1.1630 0.7765 0.3977
H4D H 1.1630 0.2235 0.6023
H4B H 1.6630 1.2765 0.3977
O11F O 0.9479(3) 0.7524(3) 0.46766(10)
O11D O 0.9479(3) 0.2476(3) 0.53234(10)
O11B O 1.4479(3) 1.2524(3) 0.46766(10)
O12F O 1.0479(4) 0.8620(4) 0.51658(11)
O12E O 0.9521(4) 0.8620(4) 0.98342(11)
O13D O 1.2972(3) 1.6471(3) 0.62762(11)
O13_2 O 0.7972(3) 0.1471(3) 0.62762(11)
O13F O 1.2972(3) 1.3529(3) 0.37238(11)
O14D O 1.3822(3) 1.5056(3) 0.58715(11)
O14C O 1.1178(3) 1.0056(3) 0.91285(11)
O15D O 1.2955(3) 1.3293(3) 0.63798(9)
O15C O 1.2045(3) 0.8293(3) 0.86202(9)
H5D H 1.3205 1.2918 0.6592
H5C H 1.1795 0.7918 0.8408
O16D O 1.0760(3) 1.4462(2) 0.61037(9)
O16D_2 O 1.0760(3) 0.4462(2) 0.61037(9)
O16B O 1.5760(3) 1.0538(2) 0.38963(9)
H6D H 1.0493 1.5109 0.6021
H6D_2 H 1.0493 0.5109 0.6021
H6B H 1.5493 0.9891 0.3979
O17D O 0.9749(2) 1.3105(3) 0.67293(9)
O17D_2 O 0.9749(2) 0.3105(3) 0.67293(9)
O17B O 1.4749(2) 1.1895(3) 0.32707(9)
O18D O 1.1216(3) 1.3518(3) 0.72046(10)
O18G O 0.8784(3) 1.3518(3) 0.77954(10)
C1C C 0.9079(4) 0.8279(3) 0.83540(12)
C2C C 0.8179(3) 0.8874(3) 0.80305(12)
H7C H 0.7334 0.8599 0.8091
C3C C 0.8245(4) 1.0224(4) 0.80964(15)
H8C H 0.7897 1.0423 0.8383
C4C C 0.7467(4) 1.0834(3) 0.77398(13)
C5F C 1.3399(4) 0.9350(4) 0.43218(13)
C6F C 1.2517(4) 0.8636(3) 0.46065(12)
H9F H 1.2558 0.8953 0.4905
C7F C 1.1197(3) 0.8757(3) 0.44449(12)
H10F H 1.1016 0.9610 0.4412
C8F C 1.0297(4) 0.8245(4) 0.47878(13)
C9D C 1.3210(4) 1.5408(4) 0.61868(13)
C10D C 1.2672(3) 1.4479(3) 0.65126(12)
H11D H 1.3020 1.4622 0.6804
C11D C 1.1258(4) 1.4612(3) 0.65322(13)
H12D H 1.1054 1.5415 0.6638
C12D C 1.0704(4) 1.3690(3) 0.68453(12)
O19 O 0.6901(17) 0.9073(17) 0.4779(6)
H13 H 0.7356 0.9133 0.4565
H14 H 0.6878 0.9711 0.4910
loop_
_geom_bond_atom_site_label_1
_geom_bond_atom_site_label_2
_geom_bond_site_symmetry_1
_geom_bond_site_symmetry_2
Cd1 O1 1_555 1_555
Cd2 O2 1_555 1_555
Cd3 O8 1_555 1_555
Cd4 O4 1_555 1_555
O1 C1 1_555 1_555
O2 C1 1_555 1_555
O3 Cd1 1_555 1_555
H1 O3 1_555 1_555
O4 H2 1_555 1_555
O5 C4 1_555 1_555
O6 Cd4 1_555 1_555
O7 Cd2 1_555 1_555
O8 C5 1_555 1_555
O9 Cd2 1_555 1_555
H3 O9 1_555 1_555
O10 H4 1_555 1_555
O11 C8 1_555 1_555
O12 C8 1_555 1_555
O13 C9 1_555 1_555
O14 Cd2 1_555 1_555
O15 Cd2 1_555 1_555
H5 O15 1_555 1_555
O16 H6 1_555 1_555
O17 C12 1_555 1_555
O18 C12 1_555 1_555
C1 C2 1_555 1_555
C2 O3 1_555 1_555
H7 C2 1_555 1_555
C3 O4 1_555 1_555
H8 C3 1_555 1_555
C4 O6 1_555 1_555
C5 O7 1_555 1_555
C6 O9 1_555 1_555
H9 C6 1_555 1_555
C7 O10 1_555 1_555
H10 C7 1_555 1_555
C8 C7 1_555 1_555
C9 O14 1_555 1_555
C10 O15 1_555 1_555
H11 C10 1_555 1_555
C11 O16 1_555 1_555
H12 C11 1_555 1_555
C12 C11 1_555 1_555
O19 H13 1_555 1_555
H14 O19 1_555 1_555
Cd1D O5 1_555 1_555
Cd1D_2 O5C 1_555 1_555
Cd2C O2C 1_555 1_555
Cd2F O12 1_555 1_555
Cd2F_2 O7F 1_555 1_555
Cd2D O14D 1_555 1_555
Cd3F O8F 1_555 1_555
Cd3D O10 1_555 1_555
Cd3_2 O13 1_555 1_555
Cd3B O10F 1_555 1_555
Cd3D_2 O13D 1_555 1_555
Cd4D O18 1_555 1_555
O1C Cd1 1_555 1_555
O2C C1C 1_555 1_555
O3C Cd1 1_555 1_555
H1C O3C 1_555 1_555
O4C Cd4 1_555 1_555
H2C O4C 1_555 1_555
O5C C4C 1_555 1_555
O5D Cd1 1_555 1_555
O5G Cd1 1_555 1_555
O6C Cd4 1_555 1_555
O7F C5F 1_555 1_555
O7C Cd2C 1_555 1_555
O8F C5F 1_555 1_555
O9F Cd2F_2 1_555 1_555
O9C Cd2C 1_555 1_555
H3F O9F 1_555 1_555
H3C O9C 1_555 1_555
O10F H4F 1_555 1_555
O10D Cd3 1_555 1_555
O10B Cd3F 1_555 1_555
H4D O10D 1_555 1_555
H4B O10B 1_555 1_555
O11F Cd3B 1_555 1_555
O11D Cd3 1_555 1_555
O11B Cd3F 1_555 1_555
O12F Cd2 1_555 1_555
O12E Cd2C 1_555 1_555
O13D C9D 1_555 1_555
O13_2 Cd3 1_555 1_555
O13F Cd3F 1_555 1_555
O14D C9D 1_555 1_555
O14C Cd2C 1_555 1_555
O15D Cd2D 1_555 1_555
O15C Cd2C 1_555 1_555
H5D O15D 1_555 1_555
H5C O15C 1_555 1_555
O16D Cd3_2 1_555 1_555
O16D_2 Cd3 1_555 1_555
O16B Cd3F 1_555 1_555
H6D O16D 1_555 1_555
H6D_2 O16D_2 1_555 1_555
H6B O16B 1_555 1_555
O17D Cd3_2 1_555 1_555
O17D_2 Cd3 1_555 1_555
O17B Cd3F 1_555 1_555
O18D Cd4 1_555 1_555
O18G Cd4 1_555 1_555
C1C O1C 1_555 1_555
C2C O3C 1_555 1_555
H7C C2C 1_555 1_555
C3C O4C 1_555 1_555
H8C C3C 1_555 1_555
C4C O6C 1_555 1_555
C5F C6F 1_555 1_555
C6F O9F 1_555 1_555
H9F C6F 1_555 1_555
C7F O10F 1_555 1_555
H10F C7F 1_555 1_555
C8F O11F 1_555 1_555
C9D C10D 1_555 1_555
C10D O15D 1_555 1_555
H11D C10D 1_555 1_555
C11D O16D 1_555 1_555
H12D C11D 1_555 1_555
C12D O17D 1_555 1_555
O11 Cd3D 1_555 1_555
O16 Cd3D 1_555 1_555
O17 Cd3D 1_555 1_555
C2 C3 1_555 1_555
C3 C4 1_555 1_555
C5 C6 1_555 1_555
C6 C7 1_555 1_555
C9 C10 1_555 1_555
C10 C11 1_555 1_555
O12F C8F 1_555 1_555
O18D C12D 1_555 1_555
C1C C2C 1_555 1_555
C2C C3C 1_555 1_555
C3C C4C 1_555 1_555
C6F C7F 1_555 1_555
C7F C8F 1_555 1_555
C10D C11D 1_555 1_555
C11D C12D 1_555 1_555

#END
