
#######################################################################
#
#                 Cambridge Crystallographic Data Centre
#                                CCDC 
#
#######################################################################
#
# If this CIF has been generated from an entry in the Cambridge 
# Structural Database, then it will include bibliographic, chemical, 
# crystal, experimental, refinement or atomic coordinate data resulting 
# from the CCDC's data processing and validation procedures.
#
#######################################################################

data_XUBMUD
_symmetry_cell_setting           monoclinic
_symmetry_space_group_name_H-M   'P 21/c'
_symmetry_Int_Tables_number      14
_space_group_name_Hall           '-P 2ybc'
loop_
_symmetry_equiv_pos_site_id
_symmetry_equiv_pos_as_xyz
1 x,y,z
2 -x,1/2+y,1/2-z
3 -x,-y,-z
4 x,1/2-y,1/2+z
_cell_length_a                   10.352(8)
_cell_length_b                   14.108(9)
_cell_length_c                   8.626(8)
_cell_angle_alpha                90
_cell_angle_beta                 90.31(2)
_cell_angle_gamma                90
_cell_volume                     1259.77
loop_
_atom_site_label
_atom_site_type_symbol
_atom_site_fract_x
_atom_site_fract_y
_atom_site_fract_z
Zn1 Zn 0.95242(4) 0.90443(3) 0.09995(5)
N1 N 0.7775(3) 0.9622(3) 0.1958(4)
N2 N 1.0142(3) 0.7920(3) -0.0386(4)
O1 O 0.7733(3) 0.8144(2) 0.0151(4)
C1 C 0.6528(4) 0.8458(3) 0.0556(5)
C2 C 0.5420(4) 0.9627(4) 0.2162(6)
C3 C 0.7806(5) 1.0369(3) 0.2914(5)
H1 H 0.8605 1.0629 0.3173
C4 C 0.6587(4) 0.9259(3) 0.1565(5)
C5 C 0.4240(5) 0.9206(4) 0.1716(8)
H2 H 0.3469 0.9447 0.2100
C6 C 0.5380(4) 0.8062(3) 0.0114(6)
H3 H 0.5366 0.7553 -0.0571
C7 C 0.4212(5) 0.8432(4) 0.0705(8)
H4 H 0.3427 0.8161 0.0421
C8 C 0.5503(5) 1.0407(4) 0.3162(6)
H5 H 0.4755 1.0674 0.3566
C9 C 0.7891(4) 0.7426(3) -0.0998(5)
H6 H 0.7493 0.7611 -0.1973
H7 H 0.7521 0.6829 -0.0661
N3 N 1.1345(4) 0.7624(3) -0.0749(5)
C10 C 0.9352(4) 0.7353(3) -0.1149(5)
N4 N 1.0849(3) 1.0102(3) 0.1218(4)
N5 N 1.1247(4) 0.6921(3) -0.1722(5)
C11 C 0.6690(6) 1.0780(4) 0.3545(7)
H8 H 0.6753 1.1296 0.4212
N6 N 1.1303(4) 1.0413(3) 0.2394(4)
N7 N 1.1778(6) 1.0723(4) 0.3487(6)
N8 N 0.9978(3) 0.6719(3) -0.1977(4)
Zn1B Zn 1.04758(4) 1.09557(3) -0.09995(5)
Zn1C Zn 0.95242(4) 0.59557(3) -0.40005(5)
N4B N 0.9151(3) 0.9898(3) -0.1218(4)
N8C N 0.9978(3) 0.8281(3) 0.3023(4)
loop_
_geom_bond_atom_site_label_1
_geom_bond_atom_site_label_2
_geom_bond_site_symmetry_1
_geom_bond_site_symmetry_2
Zn1 N1 1_555 1_555
N1 C3 1_555 1_555
N2 Zn1 1_555 1_555
O1 Zn1 1_555 1_555
C1 O1 1_555 1_555
C2 C4 1_555 1_555
C3 H1 1_555 1_555
C4 N1 1_555 1_555
C5 C2 1_555 1_555
H2 C5 1_555 1_555
C6 C1 1_555 1_555
H3 C6 1_555 1_555
C7 C5 1_555 1_555
H4 C7 1_555 1_555
C8 C2 1_555 1_555
H5 C8 1_555 1_555
C9 O1 1_555 1_555
H6 C9 1_555 1_555
H7 C9 1_555 1_555
N3 N2 1_555 1_555
C10 N2 1_555 1_555
N4 Zn1 1_555 1_555
N5 N3 1_555 1_555
C11 C3 1_555 1_555
H8 C11 1_555 1_555
N6 N4 1_555 1_555
N7 N6 1_555 1_555
N8 C10 1_555 1_555
Zn1B N4 1_555 1_555
Zn1C N8 1_555 1_555
N4B Zn1 1_555 1_555
N8C Zn1 1_555 1_555
C1 C4 1_555 1_555
C6 C7 1_555 1_555
C8 C11 1_555 1_555
C9 C10 1_555 1_555
N5 N8 1_555 1_555
Zn1B N4B 1_555 1_555

#END
