
#######################################################################
#
#                 Cambridge Crystallographic Data Centre
#                                CCDC 
#
#######################################################################
#
# If this CIF has been generated from an entry in the Cambridge 
# Structural Database, then it will include bibliographic, chemical, 
# crystal, experimental, refinement or atomic coordinate data resulting 
# from the CCDC's data processing and validation procedures.
#
#######################################################################

data_XUBNAL
_symmetry_cell_setting           monoclinic
_symmetry_space_group_name_H-M   'C 2/c'
_symmetry_Int_Tables_number      15
_space_group_name_Hall           '-C 2yn'
loop_
_symmetry_equiv_pos_site_id
_symmetry_equiv_pos_as_xyz
1 x,y,z
2 -x,y,1/2-z
3 1/2+x,1/2+y,z
4 1/2-x,1/2+y,1/2-z
5 -x,-y,-z
6 x,-y,1/2+z
7 1/2-x,1/2-y,-z
8 1/2+x,1/2-y,1/2+z
_cell_length_a                   33.165(7)
_cell_length_b                   8.1955(16)
_cell_length_c                   17.164(3)
_cell_angle_alpha                90
_cell_angle_beta                 106.74(3)
_cell_angle_gamma                90
_cell_volume                     4467.53
loop_
_atom_site_label
_atom_site_type_symbol
_atom_site_fract_x
_atom_site_fract_y
_atom_site_fract_z
C1 C 0.10468(8) 0.6600(3) 0.12146(16)
C2 C 0.11157(8) 0.7481(4) 0.05902(17)
H1 H 0.0888 0.7848 0.0172
Cd1 Cd 0.0000 0.62187(4) 0.2500
Cd2 Cd 0.039733(6) 0.61052(3) 0.463093(12)
O1 O 0.05326(6) 0.6308(3) 0.19018(12)
C3 C 0.16178(9) 0.8751(4) -0.01150(17)
N1 N 0.18648(7) 0.7352(3) 0.11557(14)
C4 C 0.20224(9) 0.8694(4) -0.02061(18)
H2 H 0.2230 0.8086 0.0157
C5 C 0.13995(8) 0.6003(3) 0.18406(16)
N2 N 0.11351(7) 0.6515(3) 0.51045(14)
C6 C 0.18048(8) 0.6421(4) 0.17712(17)
C7 C 0.14121(9) 0.5935(4) 0.47421(19)
H3 H 0.1315 0.5268 0.4288
C8 C 0.21695(10) 0.5804(4) 0.23525(18)
H4 H 0.2435 0.6104 0.2322
C9 C 0.05979(9) 0.6290(3) 0.12280(17)
C10 C 0.13764(10) 0.4958(4) 0.24823(18)
H5 H 0.1115 0.4679 0.2542
C11 C 0.13148(9) 0.9693(4) -0.06631(18)
H6 H 0.1042 0.9737 -0.0618
C12 C 0.21178(10) 0.9534(4) -0.08307(19)
H7 H 0.2386 0.9458 -0.0895
C13 C 0.12738(9) 0.7492(4) 0.57547(18)
C14 C 0.18355(10) 0.6288(4) 0.5016(2)
H8 H 0.2021 0.5865 0.4751
C15 C 0.21349(10) 0.4781(4) 0.29529(19)
H9 H 0.2376 0.4363 0.3322
C16 C 0.15310(9) 0.7842(3) 0.05723(17)
C17 C 0.14150(10) 1.0559(4) -0.12699(19)
H10 H 0.1211 1.1200 -0.1623
C18 C 0.18154(11) 1.0483(4) -0.13574(19)
H11 H 0.1881 1.1068 -0.1769
C19 C 0.19805(10) 0.7272(4) 0.5685(2)
H12 H 0.2265 0.7522 0.5881
C20 C 0.17349(10) 0.4356(4) 0.30152(19)
H13 H 0.1714 0.3652 0.3427
C21 C 0.16984(10) 0.7879(4) 0.6058(2)
H14 H 0.1791 0.8548 0.6512
Cl1 Cl 0.03351(2) 0.84407(10) 0.35822(4)
N3 N 0.05561(8) 0.7643(4) 0.58137(16)
C22 C 0.09573(9) 0.8094(4) 0.61231(18)
C23 C 0.06052(12) 0.9204(5) 0.6891(2)
H15 H 0.0529 0.9778 0.7295
C24 C 0.09988(11) 0.9083(5) 0.6800(2)
H16 H 0.1244 0.9562 0.7123
Cl2 Cl 0.04333(2) 0.40142(10) 0.35350(4)
O2 O 0.03216(6) 0.6061(3) 0.05440(11)
N4 N 0.03506(9) 0.8346(4) 0.62923(17)
H17 H 0.0084 0.8253 0.6220
C1A C -0.10468(8) 0.6600(3) 0.37854(16)
C2A C -0.11157(8) 0.7481(4) 0.44098(17)
H1A H -0.0888 0.7848 0.4828
Cd2A Cd -0.039733(6) 0.61052(3) 0.036907(12)
O1A O -0.05326(6) 0.6308(3) 0.30982(12)
C3A C -0.16178(9) 0.8751(4) 0.51150(17)
N1A N -0.18648(7) 0.7352(3) 0.38443(14)
C4A C -0.20224(9) 0.8694(4) 0.52061(18)
H2A H -0.2230 0.8086 0.4843
C5A C -0.13995(8) 0.6003(3) 0.31594(16)
N2A N -0.11351(7) 0.6515(3) -0.01045(14)
C6A C -0.18048(8) 0.6421(4) 0.32288(17)
C7A C -0.14121(9) 0.5935(4) 0.02579(19)
H3A H -0.1315 0.5268 0.0712
C8A C -0.21695(10) 0.5804(4) 0.26475(18)
H4A H -0.2435 0.6104 0.2678
C9A C -0.05979(9) 0.6290(3) 0.37720(17)
C10A C -0.13764(10) 0.4958(4) 0.25177(18)
H5A H -0.1115 0.4679 0.2458
C11A C -0.13148(9) 0.9693(4) 0.56631(18)
H6A H -0.1042 0.9737 0.5618
C12A C -0.21178(10) 0.9534(4) 0.58307(19)
H7A H -0.2386 0.9458 0.5895
C13A C -0.12738(9) 0.7492(4) -0.07547(18)
C14A C -0.18355(10) 0.6288(4) -0.0016(2)
H8A H -0.2021 0.5865 0.0249
C15A C -0.21349(10) 0.4781(4) 0.20471(19)
H9A H -0.2376 0.4363 0.1678
C16A C -0.15310(9) 0.7842(3) 0.44277(17)
C17A C -0.14150(10) 1.0559(4) 0.62699(19)
H10A H -0.1211 1.1200 0.6623
C18A C -0.18154(11) 1.0483(4) 0.63574(19)
H11A H -0.1881 1.1068 0.6769
C19A C -0.19805(10) 0.7272(4) -0.0685(2)
H12A H -0.2265 0.7522 -0.0881
C20A C -0.17349(10) 0.4356(4) 0.19848(19)
H13A H -0.1714 0.3652 0.1573
C21A C -0.16984(10) 0.7879(4) -0.1058(2)
H14A H -0.1791 0.8548 -0.1512
Cl1A Cl -0.03351(2) 0.84407(10) 0.14178(4)
N3A N -0.05561(8) 0.7643(4) -0.08137(16)
C22A C -0.09573(9) 0.8094(4) -0.11231(18)
C23A C -0.06052(12) 0.9204(5) -0.1891(2)
H15A H -0.0529 0.9778 -0.2295
C24A C -0.09988(11) 0.9083(5) -0.1800(2)
H16A H -0.1244 0.9562 -0.2123
Cl2A Cl -0.04333(2) 0.40142(10) 0.14650(4)
O2A O -0.03216(6) 0.6061(3) 0.44560(11)
N4A N -0.03506(9) 0.8346(4) -0.12923(17)
H17A H -0.0084 0.8253 -0.1220
Cd2D Cd -0.039733(6) 0.38948(3) 0.536907(12)
Cd2E Cd 0.039733(6) 0.38948(3) -0.036907(12)
O2D O -0.03216(6) 0.3939(3) -0.05440(11)
O2E O 0.03216(6) 0.3939(3) 0.55440(11)
loop_
_geom_bond_atom_site_label_1
_geom_bond_atom_site_label_2
_geom_bond_site_symmetry_1
_geom_bond_site_symmetry_2
C1 C2 1_555 1_555
C2 H1 1_555 1_555
Cd1 O1 1_555 1_555
Cd2 N2 1_555 1_555
O1 C9 1_555 1_555
C3 C4 1_555 1_555
N1 C6 1_555 1_555
C4 H2 1_555 1_555
C5 C1 1_555 1_555
N2 C7 1_555 1_555
C6 C5 1_555 1_555
C7 H3 1_555 1_555
C8 C6 1_555 1_555
H4 C8 1_555 1_555
C9 C1 1_555 1_555
C10 C5 1_555 1_555
H5 C10 1_555 1_555
C11 C3 1_555 1_555
H6 C11 1_555 1_555
C12 C4 1_555 1_555
H7 C12 1_555 1_555
C13 N2 1_555 1_555
C14 C7 1_555 1_555
H8 C14 1_555 1_555
C15 C8 1_555 1_555
H9 C15 1_555 1_555
C16 C2 1_555 1_555
C17 C11 1_555 1_555
H10 C17 1_555 1_555
C18 C12 1_555 1_555
H11 C18 1_555 1_555
C19 C14 1_555 1_555
H12 C19 1_555 1_555
C20 C10 1_555 1_555
H13 C20 1_555 1_555
C21 C13 1_555 1_555
H14 C21 1_555 1_555
Cl1 Cd1 1_555 1_555
N3 Cd2 1_555 1_555
C22 C13 1_555 1_555
C23 H15 1_555 1_555
C24 C22 1_555 1_555
H16 C24 1_555 1_555
Cl2 Cd1 1_555 1_555
O2 C9 1_555 1_555
N4 N3 1_555 1_555
H17 N4 1_555 1_555
C1A C2A 1_555 1_555
C2A H1A 1_555 1_555
Cd2A O2 1_555 1_555
O1A Cd1 1_555 1_555
C3A C4A 1_555 1_555
N1A C6A 1_555 1_555
C4A H2A 1_555 1_555
C5A C1A 1_555 1_555
N2A Cd2A 1_555 1_555
C6A C5A 1_555 1_555
C7A N2A 1_555 1_555
H3A C7A 1_555 1_555
C8A C6A 1_555 1_555
H4A C8A 1_555 1_555
C9A C1A 1_555 1_555
C10A C5A 1_555 1_555
H5A C10A 1_555 1_555
C11A C3A 1_555 1_555
H6A C11A 1_555 1_555
C12A C4A 1_555 1_555
H7A C12A 1_555 1_555
C13A N2A 1_555 1_555
C14A C7A 1_555 1_555
H8A C14A 1_555 1_555
C15A C8A 1_555 1_555
H9A C15A 1_555 1_555
C16A C2A 1_555 1_555
C17A C11A 1_555 1_555
H10A C17A 1_555 1_555
C18A C12A 1_555 1_555
H11A C18A 1_555 1_555
C19A C14A 1_555 1_555
H12A C19A 1_555 1_555
C20A C10A 1_555 1_555
H13A C20A 1_555 1_555
C21A C13A 1_555 1_555
H14A C21A 1_555 1_555
Cl1A Cd1 1_555 1_555
N3A Cd2A 1_555 1_555
C22A C13A 1_555 1_555
C23A H15A 1_555 1_555
C24A C22A 1_555 1_555
H16A C24A 1_555 1_555
Cl2A Cd1 1_555 1_555
O2A Cd2 1_555 1_555
N4A N3A 1_555 1_555
H17A N4A 1_555 1_555
Cd2D O2A 1_555 1_555
Cd2E O2 1_555 1_555
O2D Cd2A 1_555 1_555
O2E Cd2 1_555 1_555
Cd2 Cl1 1_555 1_555
Cd2 Cl2 1_555 1_555
C3 C16 1_555 1_555
N1 C16 1_555 1_555
C15 C20 1_555 1_555
C17 C18 1_555 1_555
C19 C21 1_555 1_555
N3 C22 1_555 1_555
C23 C24 1_555 1_555
C23 N4 1_555 1_555
Cd2A Cl1A 1_555 1_555
Cd2A Cl2A 1_555 1_555
O1A C9A 1_555 1_555
C3A C16A 1_555 1_555
N1A C16A 1_555 1_555
C9A O2A 1_555 1_555
C15A C20A 1_555 1_555
C17A C18A 1_555 1_555
C19A C21A 1_555 1_555
N3A C22A 1_555 1_555
C23A C24A 1_555 1_555
C23A N4A 1_555 1_555
Cd2D O2E 1_555 1_555
Cd2E O2D 1_555 1_555

#END
