
#######################################################################
#
#                 Cambridge Crystallographic Data Centre
#                                CCDC 
#
#######################################################################
#
# If this CIF has been generated from an entry in the Cambridge 
# Structural Database, then it will include bibliographic, chemical, 
# crystal, experimental, refinement or atomic coordinate data resulting 
# from the CCDC's data processing and validation procedures.
#
#######################################################################

data_XUBNIT
_symmetry_cell_setting           triclinic
_symmetry_space_group_name_H-M   'P -1'
_symmetry_Int_Tables_number      2
_space_group_name_Hall           '-P 1'
loop_
_symmetry_equiv_pos_site_id
_symmetry_equiv_pos_as_xyz
1 x,y,z
2 -x,-y,-z
_cell_length_a                   10.436(2)
_cell_length_b                   10.948(2)
_cell_length_c                   14.223(3)
_cell_angle_alpha                79.30(3)
_cell_angle_beta                 69.38(3)
_cell_angle_gamma                61.76(3)
_cell_volume                     1339.53
loop_
_atom_site_label
_atom_site_type_symbol
_atom_site_fract_x
_atom_site_fract_y
_atom_site_fract_z
Mn1 Mn 0.4686(2) 0.08232(18) 0.24610(14)
O1 O 0.3684(10) 0.0579(8) 0.4050(6)
O2 O 0.3949(14) -0.0723(12) 0.2389(8)
H1 H 0.3006 -0.0186 0.2479
H2 H 0.4911 -0.1039 0.2243
O3 O 0.2547(11) 0.0423(9) 0.5660(7)
O4 O 0.6949(14) -0.0519(13) 0.2620(9)
H3 H 0.6356 -0.0890 0.2724
H4 H 0.7282 0.0067 0.2589
O5 O 0.0173(9) 0.2557(8) 0.4719(7)
O6 O 0.5916(11) 0.0541(8) 0.0884(6)
O7 O 0.6987(11) 0.0453(8) -0.0752(7)
O8 O 0.7342(9) 0.2542(8) 0.0159(7)
N1 N 0.4845(11) 0.2816(11) 0.2587(7)
N2 N 0.2476(12) 0.2670(11) 0.2315(8)
C1 C 0.2960(12) 0.1071(11) 0.4916(8)
C2 C 0.2728(12) 0.2515(11) 0.5054(8)
C3 C 0.3914(13) 0.2616(12) 0.5213(9)
H5 H 0.4792 0.1814 0.5242
C4 C 0.3808(13) 0.3895(13) 0.5328(9)
H6 H 0.4616 0.3941 0.5430
C5 C 0.2522(12) 0.5089(11) 0.5291(8)
H7 H 0.2466 0.5943 0.5361
C6 C 0.1292(11) 0.5028(10) 0.5149(7)
C7 C 0.1392(11) 0.3730(10) 0.5024(7)
C8 C 0.0099(11) 0.3664(10) 0.4858(7)
C9 C 0.6015(14) 0.1065(11) 0.0028(9)
C10 C 0.4785(13) 0.2506(10) -0.0096(8)
C11 C 0.3498(15) 0.2597(12) -0.0258(9)
H8 H 0.3443 0.1792 -0.0314
C12 C 0.2316(14) 0.3865(12) -0.0336(9)
H9 H 0.1460 0.3911 -0.0437
C13 C 0.2383(13) 0.5087(11) -0.0264(8)
H10 H 0.1567 0.5943 -0.0301
C14 C 0.3681(11) 0.5015(10) -0.0137(7)
C15 C 0.4878(11) 0.3733(10) -0.0041(7)
C16 C 0.6276(12) 0.3660(10) 0.0086(7)
C17 C 0.1322(17) 0.257(2) 0.2184(11)
H11 H 0.1402 0.1708 0.2121
C18 C -0.001(2) 0.377(3) 0.2141(13)
H12 H -0.0799 0.3691 0.2043
C19 C -0.0168(19) 0.507(3) 0.2240(12)
H13 H -0.1058 0.5862 0.2210
C20 C 0.1015(16) 0.5181(16) 0.2383(9)
C21 C 0.094(3) 0.6469(18) 0.2487(12)
H14 H 0.0047 0.7277 0.2498
C22 C 0.215(3) 0.6538(16) 0.2570(13)
H15 H 0.2094 0.7404 0.2594
C23 C 0.350(2) 0.5333(15) 0.2622(9)
C24 C 0.475(3) 0.535(2) 0.2775(11)
H16 H 0.4713 0.6190 0.2854
C25 C 0.598(2) 0.419(3) 0.2807(12)
H17 H 0.6815 0.4208 0.2885
C26 C 0.6001(16) 0.289(2) 0.2721(11)
H18 H 0.6859 0.2072 0.2760
C27 C 0.3604(14) 0.4011(12) 0.2547(8)
C28 C 0.2337(13) 0.3949(12) 0.2409(8)
O1A O -0.3684(10) 0.9421(8) 0.5950(6)
O3A O -0.2547(11) 0.9577(9) 0.4340(7)
O5A O -0.0173(9) 0.7443(8) 0.5281(7)
C1A C -0.2960(12) 0.8929(11) 0.5084(8)
C2A C -0.2728(12) 0.7485(11) 0.4946(8)
C3A C -0.3914(13) 0.7384(12) 0.4787(9)
H5A H -0.4792 0.8186 0.4758
C4A C -0.3808(13) 0.6105(13) 0.4672(9)
H6A H -0.4616 0.6059 0.4570
C5A C -0.2522(12) 0.4911(11) 0.4709(8)
H7A H -0.2466 0.4057 0.4639
C6A C -0.1292(11) 0.4972(10) 0.4851(7)
C7A C -0.1392(11) 0.6270(10) 0.4976(7)
C8A C -0.0099(11) 0.6336(10) 0.5142(7)
O6A O 0.4084(11) 0.9459(8) -0.0884(6)
O7A O 0.3013(11) 0.9547(8) 0.0752(7)
O8A O 0.2658(9) 0.7458(8) -0.0159(7)
C9A C 0.3985(14) 0.8935(11) -0.0028(9)
C10A C 0.5215(13) 0.7494(10) 0.0096(8)
C11A C 0.6502(15) 0.7403(12) 0.0258(9)
H8A H 0.6557 0.8208 0.0314
C12A C 0.7684(14) 0.6135(12) 0.0336(9)
H9A H 0.8540 0.6089 0.0437
C13A C 0.7617(13) 0.4913(11) 0.0264(8)
H10A H 0.8433 0.4057 0.0301
C14A C 0.6319(11) 0.4985(10) 0.0137(7)
C15A C 0.5122(11) 0.6267(10) 0.0041(7)
C16A C 0.3724(12) 0.6340(10) -0.0086(7)
Mn1A Mn -0.4686(2) 0.91768(18) 0.75390(14)
O2A O -0.3949(14) 1.0723(12) 0.7611(8)
H1A H -0.3006 1.0186 0.7521
H2A H -0.4911 1.1039 0.7757
O4A O -0.6949(14) 1.0519(13) 0.7380(9)
H3A H -0.6356 1.0890 0.7276
H4A H -0.7282 0.9933 0.7411
N1A N -0.4845(11) 0.7184(11) 0.7413(7)
N2A N -0.2476(12) 0.7330(11) 0.7685(8)
C17A C -0.1322(17) 0.743(2) 0.7816(11)
H11A H -0.1402 0.8292 0.7879
C18A C 0.001(2) 0.623(3) 0.7859(13)
H12A H 0.0799 0.6309 0.7957
C19A C 0.0168(19) 0.493(3) 0.7760(12)
H13A H 0.1058 0.4138 0.7790
C20A C -0.1015(16) 0.4819(16) 0.7617(9)
C21A C -0.094(3) 0.3531(18) 0.7513(12)
H14A H -0.0047 0.2723 0.7502
C22A C -0.215(3) 0.3462(16) 0.7430(13)
H15A H -0.2094 0.2596 0.7406
C23A C -0.350(2) 0.4667(15) 0.7378(9)
C24A C -0.475(3) 0.465(2) 0.7225(11)
H16A H -0.4713 0.3810 0.7146
C25A C -0.598(2) 0.581(3) 0.7193(12)
H17A H -0.6815 0.5792 0.7115
C26A C -0.6001(16) 0.711(2) 0.7279(11)
H18A H -0.6859 0.7928 0.7240
C27A C -0.3604(14) 0.5989(12) 0.7453(8)
C28A C -0.2337(13) 0.6051(12) 0.7591(8)
Mn1A_2 Mn 0.5314(2) 0.91768(18) -0.24610(14)
O6A_2 O -0.5916(11) 0.9459(8) 0.9116(6)
O9 O 0.027(4) 0.970(5) 0.865(3)
H19 H 0.0208 0.8943 0.8726
H20 H -0.0073 0.9695 0.8194
O10 O 0.241(2) 0.8524(18) 0.4286(13)
H21 H 0.2183 0.9020 0.4640
H22 H 0.2131 0.8546 0.4834
O11 O 0.095(2) 1.149(2) 0.9251(15)
H23 H 0.0734 1.0845 0.9212
H24 H 0.0611 1.1556 0.9886
loop_
_geom_bond_atom_site_label_1
_geom_bond_atom_site_label_2
_geom_bond_site_symmetry_1
_geom_bond_site_symmetry_2
Mn1 O1 1_555 1_555
O1 C1 1_555 1_555
O2 Mn1 1_555 1_555
H1 O2 1_555 1_555
H2 O2 1_555 1_555
O3 C1 1_555 1_555
O4 Mn1 1_555 1_555
H3 O4 1_555 1_555
H4 O4 1_555 1_555
O5 C8 1_555 1_555
O6 Mn1 1_555 1_555
O7 C9 1_555 1_555
O8 C16 1_555 1_555
N1 Mn1 1_555 1_555
N2 Mn1 1_555 1_555
C1 C2 1_555 1_555
C2 C3 1_555 1_555
C3 H5 1_555 1_555
C4 C3 1_555 1_555
H6 C4 1_555 1_555
C5 C4 1_555 1_555
H7 C5 1_555 1_555
C6 C5 1_555 1_555
C7 C2 1_555 1_555
C8 C7 1_555 1_555
C9 O6 1_555 1_555
C10 C9 1_555 1_555
C11 C10 1_555 1_555
H8 C11 1_555 1_555
C12 C11 1_555 1_555
H9 C12 1_555 1_555
C13 C12 1_555 1_555
H10 C13 1_555 1_555
C14 C13 1_555 1_555
C15 C10 1_555 1_555
C16 C15 1_555 1_555
C17 N2 1_555 1_555
H11 C17 1_555 1_555
C18 C17 1_555 1_555
H12 C18 1_555 1_555
C19 C18 1_555 1_555
H13 C19 1_555 1_555
C20 C19 1_555 1_555
C21 C20 1_555 1_555
H14 C21 1_555 1_555
C22 C21 1_555 1_555
H15 C22 1_555 1_555
C23 C22 1_555 1_555
C24 C23 1_555 1_555
H16 C24 1_555 1_555
C25 C24 1_555 1_555
H17 C25 1_555 1_555
C26 N1 1_555 1_555
H18 C26 1_555 1_555
C27 N1 1_555 1_555
C28 N2 1_555 1_555
O9 H19 1_555 1_555
H20 O9 1_555 1_555
O10 H21 1_555 1_555
H22 O10 1_555 1_555
O11 H23 1_555 1_555
H24 O11 1_555 1_555
O1A C1A 1_555 1_555
O3A C1A 1_555 1_555
O5A C8A 1_555 1_555
C1A C2A 1_555 1_555
C2A C3A 1_555 1_555
C3A H5A 1_555 1_555
C4A C3A 1_555 1_555
H6A C4A 1_555 1_555
C5A C4A 1_555 1_555
H7A C5A 1_555 1_555
C6A C8 1_555 1_555
C7A C2A 1_555 1_555
C8A C6 1_555 1_555
O6A C9A 1_555 1_555
O7A C9A 1_555 1_555
O8A C16A 1_555 1_555
C9A C10A 1_555 1_555
C10A C11A 1_555 1_555
C11A H8A 1_555 1_555
C12A C11A 1_555 1_555
H9A C12A 1_555 1_555
C13A C12A 1_555 1_555
H10A C13A 1_555 1_555
C14A C16 1_555 1_555
C15A C10A 1_555 1_555
C16A C14 1_555 1_555
Mn1A O1A 1_555 1_555
O2A Mn1A 1_555 1_555
H1A O2A 1_555 1_555
H2A O2A 1_555 1_555
O4A Mn1A 1_555 1_555
H3A O4A 1_555 1_555
H4A O4A 1_555 1_555
N1A Mn1A 1_555 1_555
N2A Mn1A 1_555 1_555
C17A N2A 1_555 1_555
H11A C17A 1_555 1_555
C18A C17A 1_555 1_555
H12A C18A 1_555 1_555
C19A C18A 1_555 1_555
H13A C19A 1_555 1_555
C20A C19A 1_555 1_555
C21A C20A 1_555 1_555
H14A C21A 1_555 1_555
C22A C21A 1_555 1_555
H15A C22A 1_555 1_555
C23A C22A 1_555 1_555
C24A C23A 1_555 1_555
H16A C24A 1_555 1_555
C25A C24A 1_555 1_555
H17A C25A 1_555 1_555
C26A N1A 1_555 1_555
H18A C26A 1_555 1_555
C27A N1A 1_555 1_555
C28A N2A 1_555 1_555
Mn1A_2 O6A 1_555 1_555
O6A_2 Mn1A 1_555 1_555
C6 C7 1_555 1_555
C14 C15 1_555 1_555
C20 C28 1_555 1_555
C23 C27 1_555 1_555
C25 C26 1_555 1_555
C27 C28 1_555 1_555
C5A C6A 1_555 1_555
C6A C7A 1_555 1_555
C7A C8A 1_555 1_555
C13A C14A 1_555 1_555
C14A C15A 1_555 1_555
C15A C16A 1_555 1_555
C20A C28A 1_555 1_555
C23A C27A 1_555 1_555
C25A C26A 1_555 1_555
C27A C28A 1_555 1_555

#END
