
#######################################################################
#
#                 Cambridge Crystallographic Data Centre
#                                CCDC 
#
#######################################################################
#
# If this CIF has been generated from an entry in the Cambridge 
# Structural Database, then it will include bibliographic, chemical, 
# crystal, experimental, refinement or atomic coordinate data resulting 
# from the CCDC's data processing and validation procedures.
#
#######################################################################

data_XUBPIV
_symmetry_cell_setting           triclinic
_symmetry_space_group_name_H-M   'P -1'
_symmetry_Int_Tables_number      2
_space_group_name_Hall           '-P 1'
loop_
_symmetry_equiv_pos_site_id
_symmetry_equiv_pos_as_xyz
1 x,y,z
2 -x,-y,-z
_cell_length_a                   8.5730(13)
_cell_length_b                   10.2088(15)
_cell_length_c                   11.8626(17)
_cell_angle_alpha                70.459(2)
_cell_angle_beta                 87.386(3)
_cell_angle_gamma                88.669(3)
_cell_volume                     977.363
loop_
_atom_site_label
_atom_site_type_symbol
_atom_site_fract_x
_atom_site_fract_y
_atom_site_fract_z
Co1 Co 0.52665(8) 0.08651(6) 0.12326(6)
O1 O 0.4547(4) -0.2739(5) -0.0097(4)
O2 O 0.4812(5) -0.4372(5) 0.1588(5)
N1 N 0.6112(5) 0.1285(5) 0.2663(4)
N2 N 0.7022(5) 0.2333(5) 0.3832(4)
N3 N 0.8571(5) 0.1568(5) 0.7063(3)
N4 N 0.6848(5) -0.0032(4) 0.7987(4)
O3 O 0.7606(16) -0.0141(13) 0.0983(18)
O4 O 0.5890(8) -0.0983(11) 0.1018(17)
C1 C 0.6439(6) 0.2489(6) 0.2774(5)
H1 H 0.6281 0.3345 0.2184
C2 C 0.7067(8) 0.0933(7) 0.4458(6)
H2 H 0.7419 0.0506 0.5226
C3 C 0.6496(7) 0.0300(6) 0.3728(5)
H3 H 0.6382 -0.0654 0.3918
C4 C 0.7599(7) 0.3450(7) 0.4225(6)
H4 H 0.7124 0.3364 0.5005
H5 H 0.7286 0.4342 0.3667
C5 C 0.9353(7) 0.3407(6) 0.4302(5)
C6 C 1.0132(6) 0.3167(5) 0.5354(5)
C7 C 1.1755(7) 0.3180(6) 0.5309(6)
H6 H 1.2283 0.3010 0.6013
C8 C 1.2605(8) 0.3444(7) 0.4227(7)
H7 H 1.3690 0.3447 0.4208
C9 C 1.1823(9) 0.3699(7) 0.3192(6)
H8 H 1.2387 0.3897 0.2467
C10 C 1.0220(8) 0.3668(7) 0.3208(6)
C11 C 0.9302(7) 0.2939(6) 0.6564(5)
H9 H 1.0049 0.3038 0.7120
H10 H 0.8505 0.3653 0.6479
C12 C 0.9221(7) 0.0305(6) 0.7128(5)
H11 H 1.0209 0.0148 0.6839
C13 C 0.8143(7) -0.0668(6) 0.7697(5)
H12 H 0.8267 -0.1620 0.7862
C14 C 0.7157(6) 0.1311(6) 0.7608(5)
H13 H 0.6478 0.1990 0.7708
C15 C 0.7937(5) -0.2257(4) 0.0668(4)
C16 C 0.7124(4) -0.3364(4) 0.0539(4)
C17 C 0.5357(5) -0.3496(4) 0.0702(4)
C18 C 0.7947(4) -0.4424(4) 0.0270(4)
H14 H 0.7398 -0.5160 0.0187
C19 C 0.9572(4) -0.4412(4) 0.0124(3)
C20 C 1.0361(5) -0.3287(5) 0.0242(4)
H15 H 1.1444 -0.3252 0.0151
C21 C 0.9548(5) -0.2219(5) 0.0495(4)
H16 H 1.0093 -0.1467 0.0550
C22 C 0.7103(6) -0.1097(6) 0.0968(5)
O1A O 1.5453(4) -0.7261(5) 0.0097(4)
O2A O 1.5188(5) -0.5628(5) -0.1588(5)
O3A O 1.2394(16) -0.9859(13) -0.0983(18)
O4A O 1.4110(8) -0.9017(11) -0.1018(17)
C15A C 1.2063(5) -0.7743(4) -0.0668(4)
C16A C 1.2876(4) -0.6636(4) -0.0539(4)
C17A C 1.4643(5) -0.6504(4) -0.0702(4)
C18A C 1.2053(4) -0.5576(4) -0.0270(4)
H14A H 1.2602 -0.4840 -0.0187
C19A C 1.0428(4) -0.5588(4) -0.0124(3)
C20A C 0.9639(5) -0.6713(5) -0.0242(4)
H15A H 0.8556 -0.6748 -0.0151
C21A C 1.0452(5) -0.7781(5) -0.0495(4)
H16A H 0.9907 -0.8533 -0.0550
C22A C 1.2897(6) -0.8903(6) -0.0968(5)
Co1A Co 0.47335(8) -0.08651(6) -0.12326(6)
N1A N 0.3888(5) -0.1285(5) -0.2663(4)
N2A N 0.2978(5) -0.2333(5) -0.3832(4)
N3A N 0.1429(5) -0.1568(5) -0.7063(3)
N4A N 0.3152(5) 0.0032(4) -0.7987(4)
C1A C 0.3561(6) -0.2489(6) -0.2774(5)
H1A H 0.3719 -0.3345 -0.2184
C2A C 0.2933(8) -0.0933(7) -0.4458(6)
H2A H 0.2581 -0.0506 -0.5226
C3A C 0.3504(7) -0.0300(6) -0.3728(5)
H3A H 0.3618 0.0654 -0.3918
C4A C 0.2401(7) -0.3450(7) -0.4225(6)
H4A H 0.2876 -0.3364 -0.5005
H5A H 0.2714 -0.4342 -0.3667
C5A C 0.0647(7) -0.3407(6) -0.4302(5)
C6A C -0.0132(6) -0.3167(5) -0.5354(5)
C7A C -0.1755(7) -0.3180(6) -0.5309(6)
H6A H -0.2283 -0.3010 -0.6013
C8A C -0.2605(8) -0.3444(7) -0.4227(7)
H7A H -0.3690 -0.3447 -0.4208
C9A C -0.1823(9) -0.3699(7) -0.3192(6)
H8A H -0.2387 -0.3897 -0.2467
C10A C -0.0220(8) -0.3668(7) -0.3208(6)
C11A C 0.0698(7) -0.2939(6) -0.6564(5)
H9A H -0.0049 -0.3038 -0.7120
H10A H 0.1495 -0.3653 -0.6479
C12A C 0.0779(7) -0.0305(6) -0.7128(5)
H11A H -0.0209 -0.0148 -0.6839
C13A C 0.1857(7) 0.0668(6) -0.7697(5)
H12A H 0.1733 0.1620 -0.7862
C14A C 0.2843(6) -0.1311(6) -0.7608(5)
H13A H 0.3522 -0.1990 -0.7708
Co1_2 Co 0.52665(8) 0.08651(6) -0.87674(6)
Co1_3 Co 1.52665(8) -0.91349(6) 0.12326(6)
Co1A_2 Co 0.47335(8) -0.08651(6) 0.87674(6)
Co1A_3 Co 1.47335(8) -1.08651(6) -0.12326(6)
O1A_2 O 0.5453(4) 0.2739(5) 0.0097(4)
N4_2 N 0.6848(5) -0.0032(4) -0.2013(4)
N4A_2 N 0.3152(5) 0.0032(4) 0.2013(4)
O3A_2 O 0.2394(16) 0.0141(13) -0.0983(18)
O4A_2 O 0.4110(8) 0.0983(11) -0.1018(17)
O5 O 0.4975(12) -0.3952(13) 0.3743(11)
H17 H 0.4609 -0.4213 0.3200
H18 H 0.5098 -0.3077 0.3458
loop_
_geom_bond_atom_site_label_1
_geom_bond_atom_site_label_2
_geom_bond_site_symmetry_1
_geom_bond_site_symmetry_2
Co1 N1 1_555 1_555
O1 C17 1_555 1_555
O2 C17 1_555 1_555
N1 C1 1_555 1_555
N2 C1 1_555 1_555
N3 C11 1_555 1_555
N4 C13 1_555 1_555
O3 Co1 1_555 1_555
O4 Co1 1_555 1_555
C1 H1 1_555 1_555
C2 N2 1_555 1_555
H2 C2 1_555 1_555
C3 N1 1_555 1_555
H3 C3 1_555 1_555
C4 N2 1_555 1_555
H4 C4 1_555 1_555
H5 C4 1_555 1_555
C5 C4 1_555 1_555
C6 C5 1_555 1_555
C7 C6 1_555 1_555
H6 C7 1_555 1_555
C8 C7 1_555 1_555
H7 C8 1_555 1_555
C9 C8 1_555 1_555
H8 C9 1_555 1_555
C10 C5 1_555 1_555
C11 C6 1_555 1_555
H9 C11 1_555 1_555
H10 C11 1_555 1_555
C12 N3 1_555 1_555
H11 C12 1_555 1_555
C13 C12 1_555 1_555
H12 C13 1_555 1_555
C14 N3 1_555 1_555
H13 C14 1_555 1_555
C15 C16 1_555 1_555
C16 C17 1_555 1_555
C18 C16 1_555 1_555
H14 C18 1_555 1_555
C19 C18 1_555 1_555
C20 C19 1_555 1_555
H15 C20 1_555 1_555
C21 C15 1_555 1_555
H16 C21 1_555 1_555
C22 O3 1_555 1_555
O5 H17 1_555 1_555
H18 O5 1_555 1_555
O1A C17A 1_555 1_555
O2A C17A 1_555 1_555
O3A C22A 1_555 1_555
O4A C22A 1_555 1_555
C15A C16A 1_555 1_555
C16A C17A 1_555 1_555
C18A C16A 1_555 1_555
H14A C18A 1_555 1_555
C19A C19 1_555 1_555
C20A C19A 1_555 1_555
H15A C20A 1_555 1_555
C21A C15A 1_555 1_555
H16A C21A 1_555 1_555
C22A C15A 1_555 1_555
Co1A O1 1_555 1_555
N1A Co1A 1_555 1_555
N2A C1A 1_555 1_555
N3A C11A 1_555 1_555
N4A C13A 1_555 1_555
C1A N1A 1_555 1_555
H1A C1A 1_555 1_555
C2A N2A 1_555 1_555
H2A C2A 1_555 1_555
C3A N1A 1_555 1_555
H3A C3A 1_555 1_555
C4A N2A 1_555 1_555
H4A C4A 1_555 1_555
H5A C4A 1_555 1_555
C5A C4A 1_555 1_555
C6A C5A 1_555 1_555
C7A C6A 1_555 1_555
H6A C7A 1_555 1_555
C8A C7A 1_555 1_555
H7A C8A 1_555 1_555
C9A C8A 1_555 1_555
H8A C9A 1_555 1_555
C10A C5A 1_555 1_555
C11A C6A 1_555 1_555
H9A C11A 1_555 1_555
H10A C11A 1_555 1_555
C12A N3A 1_555 1_555
H11A C12A 1_555 1_555
C13A C12A 1_555 1_555
H12A C13A 1_555 1_555
C14A N3A 1_555 1_555
H13A C14A 1_555 1_555
Co1_2 N4A 1_555 1_555
Co1_3 O1A 1_555 1_555
Co1A_2 N4 1_555 1_555
Co1A_3 O3A 1_555 1_555
O1A_2 Co1 1_555 1_555
N4_2 Co1A 1_555 1_555
N4A_2 Co1 1_555 1_555
O3A_2 Co1A 1_555 1_555
O4A_2 Co1A 1_555 1_555
N4 C14 1_555 1_555
O4 C22 1_555 1_555
C2 C3 1_555 1_555
C9 C10 1_555 1_555
C15 C22 1_555 1_555
C20 C21 1_555 1_555
O4A Co1A_3 1_555 1_555
C18A C19A 1_555 1_555
C20A C21A 1_555 1_555
N4A C14A 1_555 1_555
C2A C3A 1_555 1_555
C9A C10A 1_555 1_555

#END
