
#######################################################################
#
#                 Cambridge Crystallographic Data Centre
#                                CCDC 
#
#######################################################################
#
# If this CIF has been generated from an entry in the Cambridge 
# Structural Database, then it will include bibliographic, chemical, 
# crystal, experimental, refinement or atomic coordinate data resulting 
# from the CCDC's data processing and validation procedures.
#
#######################################################################

data_XUBQUI
_symmetry_cell_setting           monoclinic
_symmetry_space_group_name_H-M   'I 2/a'
_symmetry_Int_Tables_number      15
_space_group_name_Hall           '-I 2ya'
loop_
_symmetry_equiv_pos_site_id
_symmetry_equiv_pos_as_xyz
1 x,y,z
2 1/2-x,y,-z
3 1/2+x,1/2+y,1/2+z
4 -x,1/2+y,1/2-z
5 -x,-y,-z
6 1/2+x,-y,z
7 1/2-x,1/2-y,1/2-z
8 x,1/2-y,1/2+z
_cell_length_a                   33.6606(11)
_cell_length_b                   6.29573(17)
_cell_length_c                   24.6411(7)
_cell_angle_alpha                90
_cell_angle_beta                 91.275(3)
_cell_angle_gamma                90
_cell_volume                     5220.6
loop_
_atom_site_label
_atom_site_type_symbol
_atom_site_fract_x
_atom_site_fract_y
_atom_site_fract_z
Co1 Co 0.2500 0.89086(7) 1.0000
N1 N 0.38392(6) 0.6399(3) 0.66340(8)
O1 O 0.25913(5) 1.1018(2) 1.05843(6)
C1 C 0.35799(7) 0.9193(4) 1.01416(9)
H1 H 0.3440 1.0262 1.0315
C2 C 0.49409(8) 0.6266(4) 0.68222(10)
C3 C 0.36310(8) 0.4445(4) 0.67720(9)
H2 H 0.3773 0.3251 0.6621
H3 H 0.3368 0.4477 0.6602
C4 C 0.33775(7) 0.7519(4) 0.98841(9)
O2 O 0.26844(5) 0.8010(3) 1.10437(6)
C5 C 0.43028(8) 0.8766(4) 0.64510(9)
C6 C 0.35921(7) 0.5922(4) 0.96290(9)
N2 N 0.29714(6) 0.7089(3) 0.98211(8)
C7 C 0.26076(7) 1.1218(4) 1.15443(9)
C8 C 0.35872(7) 0.4082(4) 0.73768(9)
C9 C 0.42182(8) 1.1034(4) 1.04064(10)
H4 H 0.4035 1.2019 1.0561
H5 H 0.4375 1.1752 1.0142
H6 H 0.4389 1.0470 1.0688
C10 C 0.40026(7) 0.5925(4) 0.96213(10)
H7 H 0.4140 0.4844 0.9449
C11 C 0.54257(8) 0.9159(4) 0.65655(11)
H8 H 0.5423 1.0511 0.6385
H9 H 0.5583 0.8175 0.6364
H10 H 0.5538 0.9319 0.6925
C12 C 0.24305(7) 1.1426(4) 1.24923(9)
C13 C 0.33876(8) 0.5252(4) 0.82647(10)
H11 H 0.3295 0.6332 0.8486
C14 C 0.42437(7) 0.6750(4) 0.66751(9)
C15 C 0.42042(7) 0.7582(4) 0.98767(10)
C16 C 0.34611(7) 0.3252(4) 0.84836(9)
C17 C 0.39899(7) 0.9236(4) 1.01350(9)
C18 C 0.50070(8) 0.8331(4) 0.66006(10)
C19 C 0.36030(7) 0.1680(4) 0.81407(10)
H12 H 0.3657 0.0335 0.8280
C20 C 0.45581(8) 0.5481(4) 0.68586(10)
H13 H 0.4512 0.4140 0.7002
C21 C 0.36653(7) 0.2081(4) 0.75963(10)
H14 H 0.3760 0.1005 0.7375
N3 N 0.33097(6) 0.4513(3) 0.94191(7)
C22 C 0.34516(8) 0.5656(4) 0.77183(10)
H15 H 0.3402 0.7008 0.7580
C23 C 0.36787(8) 0.8163(4) 0.63929(9)
H16 H 0.3408 0.8308 0.6315
C24 C 0.46893(8) 0.9555(4) 0.64170(10)
H17 H 0.4733 1.0896 0.6272
C25 C 0.26324(7) 0.9954(4) 1.10299(9)
C26 C 0.22798(7) 1.0516(4) 1.29688(9)
H18 H 0.2187 0.9124 1.2961
C27 C 0.27329(7) 1.3355(4) 1.15574(9)
H19 H 0.2824 1.3997 1.1244
C28 C 0.24587(7) 1.0285(4) 1.20005(9)
H20 H 0.2375 0.8878 1.1986
C29 C 0.29502(7) 0.5290(4) 0.95415(9)
H21 H 0.2712 0.4635 0.9441
C30 C 0.33834(7) 0.2682(4) 0.90679(9)
H22 H 0.3155 0.1744 0.9077
H23 H 0.3611 0.1905 0.9214
C31 C 0.46523(8) 0.7613(4) 0.98796(11)
H24 H 0.4748 0.6363 0.9702
H25 H 0.4752 0.7642 1.0248
H26 H 0.4742 0.8852 0.9691
C32 C 0.52894(8) 0.4938(4) 0.70140(11)
H27 H 0.5195 0.3597 0.7145
H28 H 0.5430 0.5668 0.7301
H29 H 0.5465 0.4704 0.6718
N4 N 0.39414(6) 0.9641(3) 0.62801(8)
O1F O 0.24087(5) 1.3982(2) 1.44157(6)
O2F O 0.23156(5) 1.6990(3) 1.39563(6)
C7F C 0.23924(7) 1.3782(4) 1.34557(9)
C12F C 0.25695(7) 1.3574(4) 1.25077(9)
C25F C 0.23676(7) 1.5046(4) 1.39701(9)
C26F C 0.27202(7) 1.4484(4) 1.20312(9)
H18F H 0.2813 1.5876 1.2039
C27F C 0.22671(7) 1.1645(4) 1.34426(9)
H19F H 0.2176 1.1003 1.3756
C28F C 0.25413(7) 1.4715(4) 1.29995(9)
H20F H 0.2625 1.6122 1.3014
N1A N 0.11608(6) 0.6399(3) 1.33660(8)
C1A C 0.14201(7) 0.9193(4) 0.98584(9)
H1A H 0.1560 1.0262 0.9685
C2A C 0.00591(8) 0.6266(4) 1.31778(10)
C3A C 0.13690(8) 0.4445(4) 1.32280(9)
H2A H 0.1227 0.3251 1.3379
H3A H 0.1632 0.4477 1.3398
C4A C 0.16225(7) 0.7519(4) 1.01159(9)
C5A C 0.06972(8) 0.8766(4) 1.35490(9)
C6A C 0.14079(7) 0.5922(4) 1.03710(9)
N2A N 0.20286(6) 0.7089(3) 1.01789(8)
C8A C 0.14128(7) 0.4082(4) 1.26232(9)
C9A C 0.07818(8) 1.1034(4) 0.95936(10)
H4A H 0.0965 1.2019 0.9439
H5A H 0.0625 1.1752 0.9858
H6A H 0.0611 1.0470 0.9312
C10A C 0.09974(7) 0.5925(4) 1.03787(10)
H7A H 0.0860 0.4844 1.0551
C11A C -0.04257(8) 0.9159(4) 1.34345(11)
H8A H -0.0423 1.0511 1.3615
H9A H -0.0583 0.8175 1.3636
H10A H -0.0538 0.9319 1.3075
C13A C 0.16124(8) 0.5252(4) 1.17353(10)
H11A H 0.1705 0.6332 1.1514
C14A C 0.07563(7) 0.6750(4) 1.33249(9)
C15A C 0.07958(7) 0.7582(4) 1.01233(10)
C16A C 0.15389(7) 0.3252(4) 1.15164(9)
C17A C 0.10101(7) 0.9236(4) 0.98650(9)
C18A C -0.00070(8) 0.8331(4) 1.33994(10)
C19A C 0.13970(7) 0.1680(4) 1.18593(10)
H12A H 0.1343 0.0335 1.1720
C20A C 0.04419(8) 0.5481(4) 1.31414(10)
H13A H 0.0488 0.4140 1.2998
C21A C 0.13347(7) 0.2081(4) 1.24037(10)
H14A H 0.1240 0.1005 1.2625
N3A N 0.16903(6) 0.4513(3) 1.05809(7)
C22A C 0.15484(8) 0.5656(4) 1.22817(10)
H15A H 0.1598 0.7008 1.2420
C23A C 0.13213(8) 0.8163(4) 1.36071(9)
H16A H 0.1592 0.8308 1.3685
C24A C 0.03107(8) 0.9555(4) 1.35830(10)
H17A H 0.0267 1.0896 1.3728
C29A C 0.20498(7) 0.5290(4) 1.04585(9)
H21A H 0.2288 0.4635 1.0559
C30A C 0.16166(7) 0.2682(4) 1.09321(9)
H22A H 0.1845 0.1744 1.0923
H23A H 0.1389 0.1905 1.0786
C31A C 0.03477(8) 0.7613(4) 1.01204(11)
H24A H 0.0252 0.6363 1.0298
H25A H 0.0248 0.7642 0.9752
H26A H 0.0258 0.8852 1.0309
C32A C -0.02894(8) 0.4938(4) 1.29860(11)
H27A H -0.0195 0.3597 1.2855
H28A H -0.0430 0.5668 1.2699
H29A H -0.0465 0.4704 1.3282
N4A N 0.10586(6) 0.9641(3) 1.37199(8)
Co1F Co 0.2500 1.60914(7) 1.5000
O1A O 0.24087(5) 1.1018(2) 0.94157(6)
loop_
_geom_bond_atom_site_label_1
_geom_bond_atom_site_label_2
_geom_bond_site_symmetry_1
_geom_bond_site_symmetry_2
Co1 O1 1_555 1_555
N1 C3 1_555 1_555
O1 C25 1_555 1_555
C1 H1 1_555 1_555
C2 C18 1_555 1_555
C3 H2 1_555 1_555
H3 C3 1_555 1_555
C4 C1 1_555 1_555
O2 C25 1_555 1_555
C5 C14 1_555 1_555
C6 C4 1_555 1_555
N2 Co1 1_555 1_555
C7 C25 1_555 1_555
C8 C3 1_555 1_555
C9 H4 1_555 1_555
H5 C9 1_555 1_555
H6 C9 1_555 1_555
C10 C6 1_555 1_555
H7 C10 1_555 1_555
C11 H8 1_555 1_555
H9 C11 1_555 1_555
H10 C11 1_555 1_555
C12 C26 1_555 1_555
C13 H11 1_555 1_555
C14 N1 1_555 1_555
C15 C10 1_555 1_555
C16 C13 1_555 1_555
C17 C1 1_555 1_555
C18 C11 1_555 1_555
C19 C16 1_555 1_555
H12 C19 1_555 1_555
C20 C2 1_555 1_555
H13 C20 1_555 1_555
C21 C8 1_555 1_555
H14 C21 1_555 1_555
N3 C6 1_555 1_555
C22 C8 1_555 1_555
H15 C22 1_555 1_555
C23 N1 1_555 1_555
H16 C23 1_555 1_555
C24 C5 1_555 1_555
H17 C24 1_555 1_555
C26 H18 1_555 1_555
C27 C7 1_555 1_555
H19 C27 1_555 1_555
C28 C7 1_555 1_555
H20 C28 1_555 1_555
C29 N2 1_555 1_555
H21 C29 1_555 1_555
C30 C16 1_555 1_555
H22 C30 1_555 1_555
H23 C30 1_555 1_555
C31 C15 1_555 1_555
H24 C31 1_555 1_555
H25 C31 1_555 1_555
H26 C31 1_555 1_555
C32 C2 1_555 1_555
H27 C32 1_555 1_555
H28 C32 1_555 1_555
H29 C32 1_555 1_555
N4 C5 1_555 1_555
O1F C25F 1_555 1_555
O2F C25F 1_555 1_555
C7F C25F 1_555 1_555
C12F C12 1_555 1_555
C26F C27 1_555 1_555
H18F C26F 1_555 1_555
C27F C26 1_555 1_555
H19F C27F 1_555 1_555
C28F C7F 1_555 1_555
H20F C28F 1_555 1_555
N1A C3A 1_555 1_555
C1A H1A 1_555 1_555
C2A C18A 1_555 1_555
C3A H2A 1_555 1_555
H3A C3A 1_555 1_555
C4A C1A 1_555 1_555
C5A C14A 1_555 1_555
C6A C4A 1_555 1_555
N2A Co1 1_555 1_555
C8A C3A 1_555 1_555
C9A H4A 1_555 1_555
H5A C9A 1_555 1_555
H6A C9A 1_555 1_555
C10A C6A 1_555 1_555
H7A C10A 1_555 1_555
C11A H8A 1_555 1_555
H9A C11A 1_555 1_555
H10A C11A 1_555 1_555
C13A H11A 1_555 1_555
C14A N1A 1_555 1_555
C15A C10A 1_555 1_555
C16A C13A 1_555 1_555
C17A C1A 1_555 1_555
C18A C11A 1_555 1_555
C19A C16A 1_555 1_555
H12A C19A 1_555 1_555
C20A C2A 1_555 1_555
H13A C20A 1_555 1_555
C21A C8A 1_555 1_555
H14A C21A 1_555 1_555
N3A C6A 1_555 1_555
C22A C8A 1_555 1_555
H15A C22A 1_555 1_555
C23A N1A 1_555 1_555
H16A C23A 1_555 1_555
C24A C5A 1_555 1_555
H17A C24A 1_555 1_555
C29A N2A 1_555 1_555
H21A C29A 1_555 1_555
C30A C16A 1_555 1_555
H22A C30A 1_555 1_555
H23A C30A 1_555 1_555
C31A C15A 1_555 1_555
H24A C31A 1_555 1_555
H25A C31A 1_555 1_555
H26A C31A 1_555 1_555
C32A C2A 1_555 1_555
H27A C32A 1_555 1_555
H28A C32A 1_555 1_555
H29A C32A 1_555 1_555
N4A C5A 1_555 1_555
Co1F O1F 1_555 1_555
O1A Co1 1_555 1_555
C4 N2 1_555 1_555
C9 C17 1_555 1_555
C12 C28 1_555 1_555
C13 C22 1_555 1_555
C14 C20 1_555 1_555
C15 C17 1_555 1_555
C18 C24 1_555 1_555
C19 C21 1_555 1_555
N3 C29 1_555 1_555
N3 C30 1_555 1_555
C23 N4 1_555 1_555
C7F C27F 1_555 1_555
C12F C26F 1_555 1_555
C12F C28F 1_555 1_555
C4A N2A 1_555 1_555
C9A C17A 1_555 1_555
C13A C22A 1_555 1_555
C14A C20A 1_555 1_555
C15A C17A 1_555 1_555
C18A C24A 1_555 1_555
C19A C21A 1_555 1_555
N3A C29A 1_555 1_555
N3A C30A 1_555 1_555
C23A N4A 1_555 1_555

#END
