
#######################################################################
#
#                 Cambridge Crystallographic Data Centre
#                                CCDC 
#
#######################################################################
#
# If this CIF has been generated from an entry in the Cambridge 
# Structural Database, then it will include bibliographic, chemical, 
# crystal, experimental, refinement or atomic coordinate data resulting 
# from the CCDC's data processing and validation procedures.
#
#######################################################################

data_XUBQAO
_symmetry_cell_setting           monoclinic
_symmetry_space_group_name_H-M   'P 21/n'
_symmetry_Int_Tables_number      14
_space_group_name_Hall           '-P 2yn'
loop_
_symmetry_equiv_pos_site_id
_symmetry_equiv_pos_as_xyz
1 x,y,z
2 1/2-x,1/2+y,1/2-z
3 -x,-y,-z
4 1/2+x,1/2-y,1/2+z
_cell_length_a                   10.9265(8)
_cell_length_b                   11.5269(8)
_cell_length_c                   18.0941(13)
_cell_angle_alpha                90
_cell_angle_beta                 100.183(2)
_cell_angle_gamma                90
_cell_volume                     2243.03
loop_
_atom_site_label
_atom_site_type_symbol
_atom_site_fract_x
_atom_site_fract_y
_atom_site_fract_z
H1 H 1.1850 0.7040 0.1973
H2 H 1.3544 0.8302 0.2106
H3 H 1.3190 1.0296 0.1923
H4 H 1.1177 1.1003 0.1571
H5 H 0.9152 1.1238 -0.0048
H6 H 0.9470 1.3189 -0.0312
H7 H 0.9632 1.4572 0.0648
H8 H 0.9353 1.4023 0.1848
H9 H 0.6344 0.4223 0.2284
H10 H 0.5648 0.2363 0.1897
H11 H 0.5493 0.1821 0.0642
H12 H 0.6976 0.5888 -0.1694
H13 H 0.7577 0.7686 -0.1161
H14 H 0.7699 0.7975 0.0131
H15 H 0.5727 0.2407 -0.0699
H16 H 0.6213 0.3808 -0.1501
C1 C 0.94606(18) 0.73602(15) 0.16221(10)
C2 C 1.04865(17) 0.82473(16) 0.16850(10)
C3 C 1.17088(18) 0.78460(16) 0.18890(10)
C4 C 1.27210(19) 0.85925(16) 0.19723(12)
C5 C 1.25080(18) 0.97726(17) 0.18570(12)
C6 C 1.13053(18) 1.01933(16) 0.16464(11)
C7 C 1.02760(17) 0.94453(15) 0.15435(10)
C8 C 0.89986(17) 1.14641(15) 0.10502(11)
C9 C 0.91745(17) 1.18037(17) 0.03361(11)
C10 C 0.93821(18) 1.29622(17) 0.01806(11)
C11 C 0.94602(17) 1.37856(16) 0.07474(11)
C12 C 0.92866(17) 1.34575(15) 0.14607(10)
C13 C 0.90152(16) 1.23075(15) 0.16164(10)
C14 C 0.87354(16) 1.20601(15) 0.23885(10)
C15 C 0.62724(16) 0.40167(16) 0.17697(10)
C16 C 0.58600(17) 0.28988(16) 0.15411(11)
C17 C 0.57635(18) 0.25794(16) 0.07996(11)
C18 C 0.60702(17) 0.33880(16) 0.02766(11)
C19 C 0.64611(16) 0.44900(15) 0.05541(10)
C20 C 0.67844(16) 0.53566(16) 0.00523(10)
C21 C 0.67003(17) 0.51098(17) -0.07122(11)
C22 C 0.70137(18) 0.60110(19) -0.11712(11)
C23 C 0.73742(19) 0.70700(19) -0.08549(11)
C24 C 0.74429(18) 0.72412(18) -0.00808(11)
C25 C 0.59891(18) 0.31511(17) -0.05077(11)
C26 C 0.62838(18) 0.39795(17) -0.09818(10)
N1 N 0.65667(14) 0.47979(13) 0.12866(9)
N2 N 0.71575(15) 0.64001(13) 0.03640(9)
O1 O 0.83542(12) 0.77570(11) 0.15979(7)
O2 O 0.97005(14) 0.63098(11) 0.16044(9)
O3 O 0.78715(13) 1.13305(11) 0.24490(8)
O4 O 0.93078(12) 1.26044(12) 0.29379(7)
S1 S 0.87376(4) 0.99592(4) 0.12059(3)
Cu1 Cu 0.72903(2) 0.63841(2) 0.14866(2)
O3A O 0.71285(13) 0.63305(11) 0.25510(8)
O4A O 0.56922(12) 0.76044(12) 0.20621(7)
Cu1A Cu 0.77097(2) 1.13841(2) 0.35134(2)
H17 H 0.578(4) 0.930(3) 0.171(2)
H18 H 0.648(4) 1.026(3) 0.182(2)
O5 O 0.57296(17) 0.99521(17) 0.15393(14)
O6 O 0.4016(5) 1.0155(4) 0.0127(3)
loop_
_geom_bond_atom_site_label_1
_geom_bond_atom_site_label_2
_geom_bond_site_symmetry_1
_geom_bond_site_symmetry_2
H1 C3 1_555 1_555
H2 C4 1_555 1_555
H3 C5 1_555 1_555
H4 C6 1_555 1_555
H5 C9 1_555 1_555
H6 C10 1_555 1_555
H7 C11 1_555 1_555
H8 C12 1_555 1_555
H9 C15 1_555 1_555
H10 C16 1_555 1_555
H11 C17 1_555 1_555
H12 C22 1_555 1_555
H13 C23 1_555 1_555
H14 C24 1_555 1_555
H15 C25 1_555 1_555
H16 C26 1_555 1_555
C1 C2 1_555 1_555
C2 C3 1_555 1_555
C3 C4 1_555 1_555
C4 C5 1_555 1_555
C5 C6 1_555 1_555
C6 C7 1_555 1_555
C7 C2 1_555 1_555
C8 C9 1_555 1_555
C9 C10 1_555 1_555
C10 C11 1_555 1_555
C11 C12 1_555 1_555
C12 C13 1_555 1_555
C13 C8 1_555 1_555
C14 C13 1_555 1_555
C15 C16 1_555 1_555
C16 C17 1_555 1_555
C17 C18 1_555 1_555
C18 C19 1_555 1_555
C19 C20 1_555 1_555
C20 C21 1_555 1_555
C21 C22 1_555 1_555
C22 C23 1_555 1_555
C23 C24 1_555 1_555
C24 N2 1_555 1_555
C25 C18 1_555 1_555
C26 C21 1_555 1_555
N1 C15 1_555 1_555
N2 C20 1_555 1_555
O1 C1 1_555 1_555
O2 C1 1_555 1_555
O3 C14 1_555 1_555
O4 C14 1_555 1_555
S1 C7 1_555 1_555
Cu1 N1 1_555 1_555
H17 O5 1_555 1_555
H18 O5 1_555 1_555
O3A Cu1 1_555 1_555
O4A Cu1 1_555 1_555
Cu1A O3 1_555 1_555
C8 S1 1_555 1_555
C19 N1 1_555 1_555
C25 C26 1_555 1_555
N2 Cu1 1_555 1_555
O1 Cu1 1_555 1_555
O2 Cu1 1_555 1_555
O4 Cu1A 1_555 1_555

#END
