
#######################################################################
#
#                 Cambridge Crystallographic Data Centre
#                                CCDC 
#
#######################################################################
#
# If this CIF has been generated from an entry in the Cambridge 
# Structural Database, then it will include bibliographic, chemical, 
# crystal, experimental, refinement or atomic coordinate data resulting 
# from the CCDC's data processing and validation procedures.
#
#######################################################################

data_XUBRAP
_symmetry_cell_setting           triclinic
_symmetry_space_group_name_H-M   'P -1'
_symmetry_Int_Tables_number      2
_space_group_name_Hall           '-P 1'
loop_
_symmetry_equiv_pos_site_id
_symmetry_equiv_pos_as_xyz
1 x,y,z
2 -x,-y,-z
_cell_length_a                   8.958(3)
_cell_length_b                   10.589(4)
_cell_length_c                   13.893(5)
_cell_angle_alpha                92.977(5)
_cell_angle_beta                 94.838(6)
_cell_angle_gamma                90.639(5)
_cell_volume                     1311.21
loop_
_atom_site_label
_atom_site_type_symbol
_atom_site_fract_x
_atom_site_fract_y
_atom_site_fract_z
Co1 Co 1.11485(13) 1.20390(10) 0.25069(7)
O1 O 1.2131(6) 1.3118(5) 0.3544(4)
O2 O 1.4151(7) 1.1902(6) 0.3774(4)
O3 O 1.2381(6) 1.0973(5) 0.1750(4)
O4 O 1.3419(7) 1.2741(6) 0.1275(4)
N1 N 0.9753(7) 1.0774(6) 0.3003(4)
N2 N 0.7821(8) 0.9537(6) 0.3381(4)
N3 N 0.8506(7) 0.4675(6) 0.0959(4)
C1 C 1.5812(9) 1.4078(7) 0.4553(5)
H1 H 1.6367 1.3461 0.4250
C2 C 0.9499(9) 0.2788(7) 0.0636(5)
C3 C 1.0279(10) 0.9766(7) 0.3593(5)
C4 C 0.9275(9) 0.4234(7) 0.1772(5)
C5 C 0.9119(10) 0.9036(7) 0.3816(5)
C6 C 0.8242(9) 1.0555(8) 0.2923(5)
C7 C 0.8655(9) 0.3772(8) 0.0214(6)
C8 C 0.9823(9) 0.1735(8) 0.0058(6)
H2 H 1.0383 0.1082 0.0320
C9 C 0.6998(9) 0.7425(8) 0.2107(6)
H3 H 0.7763 0.7962 0.1956
C10 C 0.4927(9) 0.6944(8) 0.3065(6)
H4 H 0.4337 0.7161 0.3566
C11 C 1.3287(10) 1.1575(9) 0.1267(6)
C12 C 0.6098(9) 0.7783(7) 0.2828(6)
C13 C 1.4228(9) 0.9464(8) 0.0700(6)
H5 H 1.3717 0.9104 0.1176
C14 C 1.4168(9) 1.0772(8) 0.0605(6)
C15 C 1.3473(10) 1.2898(8) 0.3890(6)
C16 C 0.6757(9) 0.6248(8) 0.1603(5)
C17 C 1.1728(10) 0.9520(8) 0.3953(6)
H6 H 1.2521 1.0027 0.3802
C18 C 1.3468(9) 1.4928(8) 0.4913(5)
H7 H 1.2427 1.4886 0.4852
C19 C 0.4697(10) 0.5823(8) 0.2543(6)
H8 H 0.3898 0.5305 0.2667
C20 C 0.8171(10) 0.3758(8) -0.0778(5)
H9 H 0.7650 0.4426 -0.1049
C21 C 1.4263(9) 1.3997(7) 0.4468(5)
C22 C 0.5606(10) 0.5434(8) 0.1841(6)
H10 H 0.5464 0.4640 0.1525
C23 C 1.1980(11) 0.8542(9) 0.4523(6)
H11 H 1.2947 0.8368 0.4774
C24 C 1.4969(9) 1.1304(8) -0.0100(6)
H12 H 1.4962 1.2174 -0.0165
C25 C 0.6322(9) 0.9053(8) 0.3393(6)
H13 H 0.5625 0.9657 0.3115
H14 H 0.6103 0.8957 0.4057
C26 C 0.9317(12) 0.8012(9) 0.4390(6)
H15 H 0.8520 0.7504 0.4534
C27 C 0.7186(9) 1.1378(9) 0.2357(6)
H16 H 0.7119 1.1097 0.1687
H17 H 0.7548 1.2237 0.2427
H18 H 0.6213 1.1328 0.2595
C28 C 0.9420(11) 0.4926(8) 0.2739(5)
H19 H 0.8474 0.4909 0.3015
H20 H 0.9720 0.5787 0.2668
H21 H 1.0161 0.4527 0.3157
C29 C 0.9312(10) 0.1665(8) -0.0896(6)
H22 H 0.9478 0.0942 -0.1279
C30 C 0.8515(10) 0.2707(9) -0.1312(6)
H23 H 0.8224 0.2658 -0.1972
C31 C 1.0773(12) 0.7795(8) 0.4733(6)
H24 H 1.0960 0.7117 0.5124
C32 C 0.7810(10) 0.5910(7) 0.0824(6)
H25 H 0.7253 0.5897 0.0194
H26 H 0.8589 0.6557 0.0839
N4 N 0.9884(7) 0.3128(6) 0.1606(4)
O1A O 1.7869(6) 1.6882(5) 0.6456(4)
O2A O 1.5849(7) 1.8098(6) 0.6226(4)
C1A C 1.4188(9) 1.5922(7) 0.5447(5)
H1A H 1.3633 1.6539 0.5750
C15A C 1.6527(10) 1.7102(8) 0.6110(6)
C18A C 1.6532(9) 1.5072(8) 0.5087(5)
H7A H 1.7573 1.5114 0.5148
C21A C 1.5737(9) 1.6003(7) 0.5532(5)
O3A O 1.7619(6) 0.9027(5) -0.1750(4)
O4A O 1.6581(7) 0.7259(6) -0.1275(4)
C11A C 1.6713(10) 0.8425(9) -0.1267(6)
C13A C 1.5772(9) 1.0536(8) -0.0700(6)
H5A H 1.6283 1.0896 -0.1176
C14A C 1.5832(9) 0.9228(8) -0.0605(6)
C24A C 1.5031(9) 0.8696(8) 0.0100(6)
H12A H 1.5038 0.7826 0.0165
Co1A Co 1.88515(13) 0.79610(10) -0.25069(7)
N1A N 2.0247(7) 0.9226(6) -0.3003(4)
N2A N 2.2179(8) 1.0463(6) -0.3381(4)
N3A N 2.1494(7) 1.5325(6) -0.0959(4)
C2A C 2.0501(9) 1.7212(7) -0.0636(5)
C3A C 1.9721(10) 1.0234(7) -0.3593(5)
C4A C 2.0725(9) 1.5766(7) -0.1772(5)
C5A C 2.0881(10) 1.0964(7) -0.3816(5)
C6A C 2.1758(9) 0.9445(8) -0.2923(5)
C7A C 2.1345(9) 1.6228(8) -0.0214(6)
C8A C 2.0177(9) 1.8265(8) -0.0058(6)
H2A H 1.9617 1.8918 -0.0320
C9A C 2.3002(9) 1.2575(8) -0.2107(6)
H3A H 2.2237 1.2038 -0.1956
C10A C 2.5073(9) 1.3056(8) -0.3065(6)
H4A H 2.5663 1.2839 -0.3566
C12A C 2.3902(9) 1.2217(7) -0.2828(6)
C16A C 2.3243(9) 1.3752(8) -0.1603(5)
C17A C 1.8272(10) 1.0480(8) -0.3953(6)
H6A H 1.7479 0.9973 -0.3802
C19A C 2.5303(10) 1.4177(8) -0.2543(6)
H8A H 2.6102 1.4695 -0.2667
C20A C 2.1829(10) 1.6242(8) 0.0778(5)
H9A H 2.2350 1.5574 0.1049
C22A C 2.4394(10) 1.4566(8) -0.1841(6)
H10A H 2.4536 1.5360 -0.1525
C23A C 1.8020(11) 1.1458(9) -0.4523(6)
H11A H 1.7053 1.1632 -0.4774
C25A C 2.3678(9) 1.0947(8) -0.3393(6)
H13A H 2.4375 1.0343 -0.3115
H14A H 2.3897 1.1043 -0.4057
C26A C 2.0683(12) 1.1988(9) -0.4390(6)
H15A H 2.1480 1.2496 -0.4534
C27A C 2.2814(9) 0.8622(9) -0.2357(6)
H16A H 2.2881 0.8903 -0.1687
H17A H 2.2452 0.7763 -0.2427
H18A H 2.3787 0.8672 -0.2595
C28A C 2.0580(11) 1.5074(8) -0.2739(5)
H19A H 2.1526 1.5091 -0.3015
H20A H 2.0280 1.4213 -0.2668
H21A H 1.9839 1.5473 -0.3157
C29A C 2.0688(10) 1.8335(8) 0.0896(6)
H22A H 2.0522 1.9058 0.1279
C30A C 2.1485(10) 1.7293(9) 0.1312(6)
H23A H 2.1776 1.7342 0.1972
C31A C 1.9227(12) 1.2205(8) -0.4733(6)
H24A H 1.9040 1.2883 -0.5124
C32A C 2.2190(10) 1.4090(7) -0.0824(6)
H25A H 2.2747 1.4103 -0.0194
H26A H 2.1411 1.3443 -0.0839
N4A N 2.0116(7) 1.6872(6) -0.1606(4)
Co1_2 Co 1.11485(13) 0.20390(10) 0.25069(7)
Co1A_2 Co 1.88515(13) 1.79610(10) -0.25069(7)
Co1A_3 Co 1.88515(13) 1.79610(10) 0.74931(7)
O1A_2 O 1.7869(6) 0.6882(5) -0.3544(4)
N4_2 N 0.9884(7) 1.3128(6) 0.1606(4)
N4A_2 N 2.0116(7) 0.6872(6) -0.1606(4)
loop_
_geom_bond_atom_site_label_1
_geom_bond_atom_site_label_2
_geom_bond_site_symmetry_1
_geom_bond_site_symmetry_2
Co1 O1 1_555 1_555
O1 C15 1_555 1_555
O2 C15 1_555 1_555
O3 Co1 1_555 1_555
O4 C11 1_555 1_555
N1 Co1 1_555 1_555
N2 C5 1_555 1_555
N3 C4 1_555 1_555
C1 H1 1_555 1_555
C2 C7 1_555 1_555
C3 N1 1_555 1_555
C4 C28 1_555 1_555
C5 C3 1_555 1_555
C6 N1 1_555 1_555
C7 N3 1_555 1_555
C8 C2 1_555 1_555
H2 C8 1_555 1_555
C9 H3 1_555 1_555
C10 H4 1_555 1_555
C11 O3 1_555 1_555
C12 C9 1_555 1_555
C13 H5 1_555 1_555
C14 C11 1_555 1_555
C15 C21 1_555 1_555
C16 C9 1_555 1_555
C17 C3 1_555 1_555
H6 C17 1_555 1_555
C18 H7 1_555 1_555
C19 C10 1_555 1_555
H8 C19 1_555 1_555
C20 C7 1_555 1_555
H9 C20 1_555 1_555
C21 C1 1_555 1_555
C22 C16 1_555 1_555
H10 C22 1_555 1_555
C23 C17 1_555 1_555
H11 C23 1_555 1_555
C24 C14 1_555 1_555
H12 C24 1_555 1_555
C25 N2 1_555 1_555
H13 C25 1_555 1_555
H14 C25 1_555 1_555
C26 C5 1_555 1_555
H15 C26 1_555 1_555
C27 C6 1_555 1_555
H16 C27 1_555 1_555
H17 C27 1_555 1_555
H18 C27 1_555 1_555
C28 H19 1_555 1_555
H20 C28 1_555 1_555
H21 C28 1_555 1_555
C29 C8 1_555 1_555
H22 C29 1_555 1_555
C30 C20 1_555 1_555
H23 C30 1_555 1_555
C31 C23 1_555 1_555
H24 C31 1_555 1_555
C32 N3 1_555 1_555
H25 C32 1_555 1_555
H26 C32 1_555 1_555
N4 C2 1_555 1_555
O1A C15A 1_555 1_555
O2A C15A 1_555 1_555
C1A C18 1_555 1_555
H1A C1A 1_555 1_555
C15A C21A 1_555 1_555
C18A C1 1_555 1_555
H7A C18A 1_555 1_555
C21A C1A 1_555 1_555
O3A C11A 1_555 1_555
O4A C11A 1_555 1_555
C11A C14A 1_555 1_555
C13A C24 1_555 1_555
H5A C13A 1_555 1_555
C14A C13A 1_555 1_555
C24A C13 1_555 1_555
H12A C24A 1_555 1_555
Co1A O3A 1_555 1_555
N1A Co1A 1_555 1_555
N2A C5A 1_555 1_555
N3A C4A 1_555 1_555
C2A C7A 1_555 1_555
C3A N1A 1_555 1_555
C4A C28A 1_555 1_555
C5A C3A 1_555 1_555
C6A N1A 1_555 1_555
C7A N3A 1_555 1_555
C8A C2A 1_555 1_555
H2A C8A 1_555 1_555
C9A H3A 1_555 1_555
C10A H4A 1_555 1_555
C12A C9A 1_555 1_555
C16A C9A 1_555 1_555
C17A C3A 1_555 1_555
H6A C17A 1_555 1_555
C19A C10A 1_555 1_555
H8A C19A 1_555 1_555
C20A C7A 1_555 1_555
H9A C20A 1_555 1_555
C22A C16A 1_555 1_555
H10A C22A 1_555 1_555
C23A C17A 1_555 1_555
H11A C23A 1_555 1_555
C25A N2A 1_555 1_555
H13A C25A 1_555 1_555
H14A C25A 1_555 1_555
C26A C5A 1_555 1_555
H15A C26A 1_555 1_555
C27A C6A 1_555 1_555
H16A C27A 1_555 1_555
H17A C27A 1_555 1_555
H18A C27A 1_555 1_555
C28A H19A 1_555 1_555
H20A C28A 1_555 1_555
H21A C28A 1_555 1_555
C29A C8A 1_555 1_555
H22A C29A 1_555 1_555
C30A C20A 1_555 1_555
H23A C30A 1_555 1_555
C31A C23A 1_555 1_555
H24A C31A 1_555 1_555
C32A N3A 1_555 1_555
H25A C32A 1_555 1_555
H26A C32A 1_555 1_555
N4A C2A 1_555 1_555
Co1_2 N4 1_555 1_555
Co1A_2 N4A 1_555 1_555
Co1A_3 O1A 1_555 1_555
O1A_2 Co1A 1_555 1_555
N4_2 Co1 1_555 1_555
N4A_2 Co1A 1_555 1_555
N2 C6 1_555 1_555
C4 N4 1_555 1_555
C10 C12 1_555 1_555
C12 C25 1_555 1_555
C13 C14 1_555 1_555
C16 C32 1_555 1_555
C18 C21 1_555 1_555
C19 C22 1_555 1_555
C26 C31 1_555 1_555
C29 C30 1_555 1_555
C18A C21A 1_555 1_555
C14A C24A 1_555 1_555
N2A C6A 1_555 1_555
C4A N4A 1_555 1_555
C10A C12A 1_555 1_555
C12A C25A 1_555 1_555
C16A C32A 1_555 1_555
C19A C22A 1_555 1_555
C26A C31A 1_555 1_555
C29A C30A 1_555 1_555

#END
