
#######################################################################
#
#                 Cambridge Crystallographic Data Centre
#                                CCDC 
#
#######################################################################
#
# If this CIF has been generated from an entry in the Cambridge 
# Structural Database, then it will include bibliographic, chemical, 
# crystal, experimental, refinement or atomic coordinate data resulting 
# from the CCDC's data processing and validation procedures.
#
#######################################################################

data_XUBTUL
_symmetry_cell_setting           triclinic
_symmetry_space_group_name_H-M   'P -1'
_symmetry_Int_Tables_number      2
_space_group_name_Hall           '-P 1'
loop_
_symmetry_equiv_pos_site_id
_symmetry_equiv_pos_as_xyz
1 x,y,z
2 -x,-y,-z
_cell_length_a                   9.8031(3)
_cell_length_b                   10.9567(3)
_cell_length_c                   12.8755(3)
_cell_angle_alpha                102.464(2)
_cell_angle_beta                 92.716(2)
_cell_angle_gamma                100.108(3)
_cell_volume                     1324.16
loop_
_atom_site_label
_atom_site_type_symbol
_atom_site_fract_x
_atom_site_fract_y
_atom_site_fract_z
Br1 Br 0.79962(4) -0.05585(3) 0.91814(3)
Br2 Br 0.34305(4) 0.18882(3) 0.89240(3)
Co1 Co 0.79393(5) 0.23384(4) 0.71895(3)
Br3 Br 0.72417(4) 0.62632(3) 0.70703(3)
Br4 Br 0.50131(3) 0.79175(3) 0.63312(2)
O1 O 0.7180(2) 0.2027(2) 0.85386(17)
O2 O 0.6645(2) 0.3019(2) 0.63857(17)
O3 O 0.8135(2) 0.3606(2) 0.52280(17)
N1 N 0.9645(3) 0.3738(3) 0.7718(2)
C1 C 0.5937(3) 0.5536(3) 0.5870(2)
C2 C 0.7027(4) 0.3587(3) 0.5652(2)
C3 C 0.5577(3) 0.0532(3) 0.9185(2)
C4 C 0.8230(3) 0.9790(3) 0.5681(2)
C5 C 0.8775(4) 0.7721(3) 0.4871(3)
H1 H 0.9316 0.7101 0.4853
C6 C 1.2593(4) 0.5354(3) 0.9588(2)
H2 H 1.3340 0.6014 0.9606
C7 C 1.2421(4) 0.4747(3) 1.0420(3)
H3 H 1.3059 0.5008 1.1020
C8 C 1.0253(3) 0.4608(3) 0.7233(2)
H4 H 0.9915 0.4698 0.6572
C9 C 0.9850(4) 1.0499(3) 0.6969(3)
H5 H 1.0408 1.1023 0.7557
C10 C 0.6259(3) -0.0249(3) 0.9649(2)
C11 C 1.2347(3) 0.6396(3) 0.7489(3)
H6 H 1.2138 0.6364 0.6739
H7 H 1.3300 0.6279 0.7586
C12 C 0.9052(3) 0.8867(3) 0.5642(2)
C13 C 0.4985(3) 0.6235(3) 0.5579(2)
C14 C 1.0477(3) 0.3929(3) 0.8673(2)
C15 C 0.5977(3) 0.4306(3) 0.5303(2)
C16 C 1.1301(4) 0.3743(3) 1.0374(3)
H8 H 1.1221 0.3352 1.0947
C17 C 1.0313(3) 0.3312(3) 0.9517(2)
H9 H 0.9574 0.2645 0.9499
C18 C 1.1598(3) 0.4933(3) 0.8726(2)
C19 C 0.6177(4) 0.1073(3) 0.8267(3)
C20 C 0.4319(3) 0.0785(3) 0.9540(2)
C21 C 0.7103(4) 0.9620(3) 0.4928(2)
H10 H 0.6557 1.0236 0.4946
C22 C 0.6831(4) 0.8497(3) 0.4153(3)
H11 H 0.6092 0.8357 0.3635
C23 C 0.7645(4) 0.7567(4) 0.4134(3)
H12 H 0.7420 0.6817 0.3608
O4 O 0.5685(2) 0.0570(2) 0.73469(17)
N2 N 1.1409(3) 0.5351(3) 0.7790(2)
N3 N 1.0087(3) 0.9347(3) 0.6482(2)
C24 C 1.0975(4) 0.8228(3) 0.7780(2)
H13 H 1.0157 0.7554 0.7627
H14 H 1.0792 0.8897 0.8355
C25 C 1.2217(3) 0.7701(3) 0.8148(2)
H15 H 1.3064 0.8301 0.8124
H16 H 1.2144 0.7646 0.8885
C26 C 1.1226(4) 0.8758(3) 0.6790(3)
H17 H 1.2083 0.9386 0.6926
H18 H 1.1339 0.8073 0.6201
N4 N 0.8756(3) 1.0816(3) 0.6537(2)
Br1A Br 0.20038(4) 0.05585(3) 1.08186(3)
Br2A Br 0.65695(4) -0.18882(3) 1.10760(3)
O1A O 0.2820(2) -0.2027(2) 1.14614(17)
C3A C 0.4423(3) -0.0532(3) 1.0815(2)
C10A C 0.3741(3) 0.0249(3) 1.0351(2)
C19A C 0.3823(4) -0.1073(3) 1.1733(3)
C20A C 0.5681(3) -0.0785(3) 1.0460(2)
O4A O 0.4315(2) -0.0570(2) 1.26531(17)
Br3A Br 0.27583(4) 0.37368(3) 0.29297(3)
Br4A Br 0.49869(3) 0.20825(3) 0.36688(2)
O2A O 0.3355(2) 0.6981(2) 0.36143(17)
O3A O 0.1865(2) 0.6394(2) 0.47720(17)
C1A C 0.4063(3) 0.4464(3) 0.4130(2)
C2A C 0.2973(4) 0.6413(3) 0.4348(2)
C13A C 0.5015(3) 0.3765(3) 0.4421(2)
C15A C 0.4023(3) 0.5694(3) 0.4697(2)
Co1A Co 0.20607(5) -0.23384(4) 1.28105(3)
N1A N 0.0355(3) -0.3738(3) 1.2282(2)
C4A C 0.1770(3) -0.9790(3) 1.4319(2)
C5A C 0.1225(4) -0.7721(3) 1.5129(3)
H1A H 0.0684 -0.7101 1.5147
C6A C -0.2593(4) -0.5354(3) 1.0412(2)
H2A H -0.3340 -0.6014 1.0394
C7A C -0.2421(4) -0.4747(3) 0.9580(3)
H3A H -0.3059 -0.5008 0.8980
C8A C -0.0253(3) -0.4608(3) 1.2767(2)
H4A H 0.0085 -0.4698 1.3428
C9A C 0.0150(4) -1.0499(3) 1.3031(3)
H5A H -0.0408 -1.1023 1.2443
C11A C -0.2347(3) -0.6396(3) 1.2511(3)
H6A H -0.2138 -0.6364 1.3261
H7A H -0.3300 -0.6279 1.2414
C12A C 0.0948(3) -0.8867(3) 1.4358(2)
C14A C -0.0477(3) -0.3929(3) 1.1327(2)
C16A C -0.1301(4) -0.3743(3) 0.9626(3)
H8A H -0.1221 -0.3352 0.9053
C17A C -0.0313(3) -0.3312(3) 1.0483(2)
H9A H 0.0426 -0.2645 1.0501
C18A C -0.1598(3) -0.4933(3) 1.1274(2)
C21A C 0.2897(4) -0.9620(3) 1.5072(2)
H10A H 0.3443 -1.0236 1.5054
C22A C 0.3169(4) -0.8497(3) 1.5847(3)
H11A H 0.3908 -0.8357 1.6365
C23A C 0.2355(4) -0.7567(4) 1.5866(3)
H12A H 0.2580 -0.6817 1.6392
N2A N -0.1409(3) -0.5351(3) 1.2210(2)
N3A N -0.0087(3) -0.9347(3) 1.3518(2)
C24A C -0.0975(4) -0.8228(3) 1.2220(2)
H13A H -0.0157 -0.7554 1.2373
H14A H -0.0792 -0.8897 1.1645
C25A C -0.2217(3) -0.7701(3) 1.1852(2)
H15A H -0.3064 -0.8301 1.1876
H16A H -0.2144 -0.7646 1.1115
C26A C -0.1226(4) -0.8758(3) 1.3210(3)
H17A H -0.2083 -0.9386 1.3074
H18A H -0.1339 -0.8073 1.3799
N4A N 0.1244(3) -1.0816(3) 1.3463(2)
Co1_2 Co 0.79393(5) 1.23384(4) 0.71895(3)
Co1A_2 Co 0.20607(5) -1.23384(4) 1.28105(3)
Co1A_3 Co 0.20607(5) 0.76616(4) 0.28105(3)
O2A_2 O 0.3355(2) -0.3019(2) 1.36143(17)
N4_2 N 0.8756(3) 0.0816(3) 0.6537(2)
N4A_2 N 0.1244(3) -0.0816(3) 1.3463(2)
loop_
_geom_bond_atom_site_label_1
_geom_bond_atom_site_label_2
_geom_bond_site_symmetry_1
_geom_bond_site_symmetry_2
Br1 C10 1_555 1_555
Br2 C20 1_555 1_555
Co1 O1 1_555 1_555
Br3 C1 1_555 1_555
Br4 C13 1_555 1_555
O1 C19 1_555 1_555
O2 Co1 1_555 1_555
O3 C2 1_555 1_555
N1 Co1 1_555 1_555
C1 C13 1_555 1_555
C2 O2 1_555 1_555
C3 C10 1_555 1_555
C4 C12 1_555 1_555
C5 H1 1_555 1_555
C6 H2 1_555 1_555
C7 C6 1_555 1_555
H3 C7 1_555 1_555
C8 N1 1_555 1_555
H4 C8 1_555 1_555
C9 H5 1_555 1_555
C10 C20A 1_555 1_555
C11 H6 1_555 1_555
H7 C11 1_555 1_555
C12 C5 1_555 1_555
C13 C15A 1_555 1_555
C14 N1 1_555 1_555
C15 C1 1_555 1_555
C16 C7 1_555 1_555
H8 C16 1_555 1_555
C17 C14 1_555 1_555
H9 C17 1_555 1_555
C18 C6 1_555 1_555
C19 C3 1_555 1_555
C20 C3 1_555 1_555
C21 C4 1_555 1_555
H10 C21 1_555 1_555
C22 C21 1_555 1_555
H11 C22 1_555 1_555
C23 C5 1_555 1_555
H12 C23 1_555 1_555
O4 C19 1_555 1_555
N2 C8 1_555 1_555
N3 C9 1_555 1_555
C24 H13 1_555 1_555
H14 C24 1_555 1_555
C25 C11 1_555 1_555
H15 C25 1_555 1_555
H16 C25 1_555 1_555
C26 N3 1_555 1_555
H17 C26 1_555 1_555
H18 C26 1_555 1_555
N4 C4 1_555 1_555
Br1A C10A 1_555 1_555
Br2A C20A 1_555 1_555
O1A C19A 1_555 1_555
C3A C10A 1_555 1_555
C10A C20 1_555 1_555
C19A C3A 1_555 1_555
C20A C3A 1_555 1_555
O4A C19A 1_555 1_555
Br3A C1A 1_555 1_555
Br4A C13A 1_555 1_555
O2A C2A 1_555 1_555
O3A C2A 1_555 1_555
C1A C13A 1_555 1_555
C2A C15A 1_555 1_555
C13A C15 1_555 1_555
C15A C1A 1_555 1_555
Co1A O1A 1_555 1_555
N1A Co1A 1_555 1_555
C4A C12A 1_555 1_555
C5A H1A 1_555 1_555
C6A H2A 1_555 1_555
C7A C6A 1_555 1_555
H3A C7A 1_555 1_555
C8A N1A 1_555 1_555
H4A C8A 1_555 1_555
C9A H5A 1_555 1_555
C11A H6A 1_555 1_555
H7A C11A 1_555 1_555
C12A C5A 1_555 1_555
C14A N1A 1_555 1_555
C16A C7A 1_555 1_555
H8A C16A 1_555 1_555
C17A C14A 1_555 1_555
H9A C17A 1_555 1_555
C18A C6A 1_555 1_555
C21A C4A 1_555 1_555
H10A C21A 1_555 1_555
C22A C21A 1_555 1_555
H11A C22A 1_555 1_555
C23A C5A 1_555 1_555
H12A C23A 1_555 1_555
N2A C8A 1_555 1_555
N3A C9A 1_555 1_555
C24A H13A 1_555 1_555
H14A C24A 1_555 1_555
C25A C11A 1_555 1_555
H15A C25A 1_555 1_555
H16A C25A 1_555 1_555
C26A N3A 1_555 1_555
H17A C26A 1_555 1_555
H18A C26A 1_555 1_555
N4A C4A 1_555 1_555
Co1_2 N4 1_555 1_555
Co1A_2 N4A 1_555 1_555
Co1A_3 O2A 1_555 1_555
O2A_2 Co1A 1_555 1_555
N4_2 Co1 1_555 1_555
N4A_2 Co1A 1_555 1_555
C2 C15 1_555 1_555
C9 N4 1_555 1_555
C11 N2 1_555 1_555
C12 N3 1_555 1_555
C14 C18 1_555 1_555
C16 C17 1_555 1_555
C18 N2 1_555 1_555
C22 C23 1_555 1_555
C24 C25 1_555 1_555
C24 C26 1_555 1_555
C9A N4A 1_555 1_555
C11A N2A 1_555 1_555
C12A N3A 1_555 1_555
C14A C18A 1_555 1_555
C16A C17A 1_555 1_555
C18A N2A 1_555 1_555
C22A C23A 1_555 1_555
C24A C25A 1_555 1_555
C24A C26A 1_555 1_555

#END
