
#######################################################################
#
#                 Cambridge Crystallographic Data Centre
#                                CCDC 
#
#######################################################################
#
# If this CIF has been generated from an entry in the Cambridge 
# Structural Database, then it will include bibliographic, chemical, 
# crystal, experimental, refinement or atomic coordinate data resulting 
# from the CCDC's data processing and validation procedures.
#
#######################################################################

data_XUBTIZ
_symmetry_cell_setting           triclinic
_symmetry_space_group_name_H-M   'P -1'
_symmetry_Int_Tables_number      2
_space_group_name_Hall           '-P 1'
loop_
_symmetry_equiv_pos_site_id
_symmetry_equiv_pos_as_xyz
1 x,y,z
2 -x,-y,-z
_cell_length_a                   10.056(3)
_cell_length_b                   12.119(4)
_cell_length_c                   12.981(4)
_cell_angle_alpha                81.733(4)
_cell_angle_beta                 76.460(4)
_cell_angle_gamma                85.541(4)
_cell_volume                     1520.43
loop_
_atom_site_label
_atom_site_type_symbol
_atom_site_fract_x
_atom_site_fract_y
_atom_site_fract_z
Br1 Br 0.40323(9) 0.14629(7) 0.47685(7)
Br2 Br 0.27502(8) 0.39818(8) 0.39455(7)
Br3 Br 0.80093(9) 0.56793(8) 0.29956(7)
Br4 Br 0.92249(9) 0.32310(8) 0.40552(8)
Co1 Co 0.64374(11) 0.23375(9) 0.68796(8)
O1 O 0.7070(5) 0.1314(4) 0.5768(4)
C1 C 0.1386(8) 0.0894(7) 0.7562(6)
H1 H 0.2140 0.1314 0.7624
H2 H 0.1602 0.0669 0.6852
C2 C 0.6560(7) 0.2543(7) 0.4287(6)
N1 N 0.5124(6) 0.1307(6) 0.7944(5)
C3 C 0.5495(7) 0.4616(6) 0.3503(5)
O2 O 0.7539(7) 0.0716(5) 0.4176(5)
N2 N 0.0151(6) 0.1619(6) 0.7680(5)
O3 O 0.4843(6) 0.5943(5) 0.2152(5)
C4 C 0.7374(7) 0.3423(7) 0.3946(6)
N3 N 0.3641(6) -0.0033(5) 0.8500(5)
C5 C 0.3583(7) 0.0528(6) 0.9366(6)
C6 C 0.7094(8) 0.1417(7) 0.4783(7)
C7 C 0.6878(7) 0.4449(7) 0.3537(6)
C8 C 0.4512(7) 0.1365(7) 0.9024(6)
C9 C -0.0333(8) 0.2286(6) 0.8472(6)
C10 C 0.4581(7) 0.0473(7) 0.7684(6)
H3 H 0.4818 0.0250 0.7006
C11 C 0.4648(8) 0.3709(7) 0.3905(6)
C12 C 0.0154(8) 0.2488(7) 0.9339(6)
H4 H 0.0962 0.2135 0.9476
C13 C -0.2250(8) 0.3590(7) 0.8894(6)
H5 H -0.3031 0.3970 0.8732
C14 C 0.2981(7) 0.1092(7) 1.1100(6)
C15 C 0.4669(8) 0.2078(7) 0.9709(7)
H6 H 0.5285 0.2644 0.9476
C16 C 0.2163(8) 0.0956(8) 1.2245(6)
H7 H 0.1526 0.0378 1.2343
H8 H 0.1671 0.1646 1.2400
H9 H 0.2773 0.0758 1.2718
C17 C 0.2626(8) -0.0778(6) 0.8381(6)
H10 H 0.2505 -0.1384 0.8966
H11 H 0.2946 -0.1098 0.7718
C18 C 0.5160(8) 0.2691(6) 0.4265(6)
C19 C 0.2787(7) 0.0375(7) 1.0424(6)
H12 H 0.2162 -0.0185 1.0653
C20 C -0.1543(8) 0.2815(7) 0.8255(6)
C21 C 0.3912(9) 0.1954(7) 1.0745(7)
C22 C -0.0118(10) 0.3409(8) 1.0992(7)
H13 H -0.0652 0.2978 1.1607
H14 H -0.0236 0.4186 1.1082
H15 H 0.0832 0.3177 1.0914
C23 C -0.0734(8) 0.1724(7) 0.7043(6)
H16 H -0.0619 0.1355 0.6446
C24 C 0.1268(8) -0.0139(7) 0.8375(6)
H17 H 0.0635 -0.0628 0.8227
H18 H 0.0887 0.0076 0.9080
C25 C 0.4881(8) 0.5707(7) 0.3111(7)
C26 C -0.0590(8) 0.3227(7) 0.9994(7)
C27 C -0.1802(8) 0.3797(7) 0.9762(7)
C28 C 0.4096(10) 0.2747(8) 1.1511(7)
H19 H 0.4850 0.3211 1.1175
H20 H 0.4280 0.2321 1.2150
H21 H 0.3276 0.3207 1.1690
C29 C -0.2610(9) 0.4601(8) 1.0491(7)
H22 H -0.3396 0.4903 1.0228
H23 H -0.2043 0.5197 1.0509
H24 H -0.2903 0.4215 1.1199
N4 N -0.1809(7) 0.2425(5) 0.7365(5)
O4 O 0.4418(6) 0.6365(5) 0.3811(5)
Co1_2 Co -0.35626(11) 0.23375(9) 0.68796(8)
Co1A Co 0.35626(11) 0.76625(9) 0.31204(8)
N4_2 N 0.8191(7) 0.2425(5) 0.7365(5)
O4A O 0.5582(6) 0.3635(5) 0.6189(5)
O5 O 0.0000 0.0000 0.5000
loop_
_geom_bond_atom_site_label_1
_geom_bond_atom_site_label_2
_geom_bond_site_symmetry_1
_geom_bond_site_symmetry_2
Br1 C18 1_555 1_555
Br2 C11 1_555 1_555
Br3 C7 1_555 1_555
Br4 C4 1_555 1_555
Co1 O1 1_555 1_555
O1 C6 1_555 1_555
C1 H1 1_555 1_555
H2 C1 1_555 1_555
C2 C4 1_555 1_555
N1 Co1 1_555 1_555
C3 C7 1_555 1_555
O2 C6 1_555 1_555
N2 C1 1_555 1_555
O3 C25 1_555 1_555
C4 C7 1_555 1_555
N3 C5 1_555 1_555
C5 C8 1_555 1_555
C6 C2 1_555 1_555
C8 N1 1_555 1_555
C9 N2 1_555 1_555
C10 N1 1_555 1_555
H3 C10 1_555 1_555
C11 C3 1_555 1_555
C12 C9 1_555 1_555
H4 C12 1_555 1_555
C13 H5 1_555 1_555
C14 C16 1_555 1_555
C15 C8 1_555 1_555
H6 C15 1_555 1_555
C16 H7 1_555 1_555
H8 C16 1_555 1_555
H9 C16 1_555 1_555
C17 N3 1_555 1_555
H10 C17 1_555 1_555
H11 C17 1_555 1_555
C18 C2 1_555 1_555
C19 C5 1_555 1_555
H12 C19 1_555 1_555
C20 C9 1_555 1_555
C21 C14 1_555 1_555
C22 H13 1_555 1_555
H14 C22 1_555 1_555
H15 C22 1_555 1_555
C23 N2 1_555 1_555
H16 C23 1_555 1_555
C24 C1 1_555 1_555
H17 C24 1_555 1_555
H18 C24 1_555 1_555
C25 C3 1_555 1_555
C26 C12 1_555 1_555
C27 C13 1_555 1_555
C28 C21 1_555 1_555
H19 C28 1_555 1_555
H20 C28 1_555 1_555
H21 C28 1_555 1_555
C29 C27 1_555 1_555
H22 C29 1_555 1_555
H23 C29 1_555 1_555
H24 C29 1_555 1_555
N4 C20 1_555 1_555
O4 C25 1_555 1_555
Co1_2 N4 1_555 1_555
Co1A O4 1_555 1_555
N4_2 Co1 1_555 1_555
O4A Co1 1_555 1_555
N3 C10 1_555 1_555
C11 C18 1_555 1_555
C13 C20 1_555 1_555
C14 C19 1_555 1_555
C15 C21 1_555 1_555
C17 C24 1_555 1_555
C22 C26 1_555 1_555
C23 N4 1_555 1_555
C26 C27 1_555 1_555

#END
