
#######################################################################
#
#                 Cambridge Crystallographic Data Centre
#                                CCDC 
#
#######################################################################
#
# If this CIF has been generated from an entry in the Cambridge 
# Structural Database, then it will include bibliographic, chemical, 
# crystal, experimental, refinement or atomic coordinate data resulting 
# from the CCDC's data processing and validation procedures.
#
#######################################################################

data_XUBVAT
_symmetry_cell_setting           monoclinic
_symmetry_space_group_name_H-M   'C 2/c'
_symmetry_Int_Tables_number      15
_space_group_name_Hall           '-C 2yn'
loop_
_symmetry_equiv_pos_site_id
_symmetry_equiv_pos_as_xyz
1 x,y,z
2 -x,y,1/2-z
3 1/2+x,1/2+y,z
4 1/2-x,1/2+y,1/2-z
5 -x,-y,-z
6 x,-y,1/2+z
7 1/2-x,1/2-y,-z
8 1/2+x,1/2-y,1/2+z
_cell_length_a                   30.4891(15)
_cell_length_b                   12.5783(6)
_cell_length_c                   13.5372(7)
_cell_angle_alpha                90
_cell_angle_beta                 107.7520(10)
_cell_angle_gamma                90
_cell_volume                     4944.34
loop_
_atom_site_label
_atom_site_type_symbol
_atom_site_fract_x
_atom_site_fract_y
_atom_site_fract_z
O1 O 0.34018(9) 0.3880(2) -0.37391(18)
H1 H 0.3570 0.4391 -0.3393
H2 H 0.3324 0.4065 -0.4373
O2 O 0.39718(11) 0.22242(18) 0.52257(19)
H3 H 0.3857 0.2174 0.4571
H4 H 0.4023 0.1598 0.5469
Cu1 Cu 0.379900(7) 0.335197(18) 0.038053(18)
N1 N 0.42780(5) 0.22749(13) 0.07335(12)
N2 N 0.34177(5) 0.19956(14) -0.00379(13)
O3 O 0.33514(5) 0.55993(12) 0.46550(12)
O4 O 0.35140(6) 0.35953(15) 0.16478(13)
C1 C 0.31554(6) 0.33512(15) 0.29331(14)
C2 C 0.41658(6) 0.12443(15) 0.06110(14)
N3 N 0.43709(6) 0.42873(13) 0.07845(14)
C3 C 0.53419(7) -0.00495(15) 0.15333(15)
O5 O 0.36487(6) 0.54079(15) 0.33555(13)
C4 C 0.47187(6) 0.25773(15) 0.10638(14)
C5 C 0.33793(7) 0.51429(16) 0.38254(15)
C6 C 0.50705(7) 0.18402(15) 0.13136(16)
H5 H 0.5376 0.2065 0.1539
O6 O 0.39181(5) 0.28396(14) 0.31398(15)
C7 C 0.49674(6) 0.07533(15) 0.12271(14)
C8 C 0.35729(7) 0.32757(14) 0.25541(16)
C9 C 0.45005(7) 0.04619(15) 0.08567(15)
H6 H 0.4417 -0.0252 0.0777
C10 C 0.58026(8) 0.02562(18) 0.18559(19)
H7 H 0.5877 0.0974 0.1864
C11 C 0.30573(6) 0.42145(16) 0.34811(15)
C12 C 0.27257(7) 0.0988(2) -0.06326(19)
H8 H 0.2406 0.0973 -0.0904
C13 C 0.47735(6) 0.37424(16) 0.11041(16)
C14 C 0.51952(7) 0.42506(18) 0.1410(2)
H9 H 0.5467 0.3861 0.1628
C15 C 0.29753(8) 0.00576(18) -0.04208(18)
H10 H 0.2826 -0.0595 -0.0560
C16 C 0.28607(7) 0.24764(17) 0.27262(17)
H11 H 0.2929 0.1896 0.2374
C17 C 0.29600(7) 0.19455(18) -0.04323(17)
H12 H 0.2793 0.2575 -0.0578
C18 C 0.36599(7) 0.10811(16) 0.01822(15)
C19 C 0.26552(8) 0.4183(2) 0.37729(19)
H13 H 0.2582 0.4759 0.4125
C20 C 0.60553(9) -0.15454(19) 0.2159(2)
H14 H 0.6290 -0.2045 0.2371
C21 C 0.34496(7) 0.00983(17) 0.00009(18)
H15 H 0.3623 -0.0523 0.0158
C22 C 0.24685(8) 0.2455(2) 0.30339(19)
H16 H 0.2276 0.1864 0.2893
C23 C 0.23636(8) 0.3315(2) 0.3550(2)
H17 H 0.2097 0.3312 0.3748
C24 C 0.61534(8) -0.0488(2) 0.21660(19)
H18 H 0.6459 -0.0263 0.2381
C25 C 0.43879(8) 0.53468(17) 0.0772(2)
H19 H 0.4113 0.5724 0.0557
C26 C 0.52482(9) -0.11226(19) 0.1525(2)
H20 H 0.4944 -0.1355 0.1310
C27 C 0.47947(8) 0.59049(19) 0.1064(2)
H21 H 0.4794 0.6644 0.1045
C28 C 0.56023(10) -0.1859(2) 0.1833(3)
H22 H 0.5532 -0.2579 0.1819
C29 C 0.52059(8) 0.53497(19) 0.1387(2)
H23 H 0.5485 0.5711 0.1586
Cu1E Cu 0.379900(7) 0.664803(18) 0.538053(18)
O3E O 0.33514(5) 0.44007(12) -0.03450(12)
loop_
_geom_bond_atom_site_label_1
_geom_bond_atom_site_label_2
_geom_bond_site_symmetry_1
_geom_bond_site_symmetry_2
O1 H1 1_555 1_555
H2 O1 1_555 1_555
O2 H3 1_555 1_555
H4 O2 1_555 1_555
Cu1 N1 1_555 1_555
N1 C2 1_555 1_555
N2 Cu1 1_555 1_555
O3 C5 1_555 1_555
O4 Cu1 1_555 1_555
C1 C8 1_555 1_555
C2 C9 1_555 1_555
N3 Cu1 1_555 1_555
C3 C7 1_555 1_555
O5 C5 1_555 1_555
C4 N1 1_555 1_555
C5 C11 1_555 1_555
C6 C4 1_555 1_555
H5 C6 1_555 1_555
O6 C8 1_555 1_555
C7 C6 1_555 1_555
C8 O4 1_555 1_555
C9 C7 1_555 1_555
H6 C9 1_555 1_555
C10 C3 1_555 1_555
H7 C10 1_555 1_555
C11 C1 1_555 1_555
C12 H8 1_555 1_555
C13 N3 1_555 1_555
C14 C13 1_555 1_555
H9 C14 1_555 1_555
C15 C12 1_555 1_555
H10 C15 1_555 1_555
C16 C1 1_555 1_555
H11 C16 1_555 1_555
C17 N2 1_555 1_555
H12 C17 1_555 1_555
C18 N2 1_555 1_555
C19 C11 1_555 1_555
H13 C19 1_555 1_555
C20 H14 1_555 1_555
C21 C15 1_555 1_555
H15 C21 1_555 1_555
C22 C16 1_555 1_555
H16 C22 1_555 1_555
C23 C19 1_555 1_555
H17 C23 1_555 1_555
C24 C10 1_555 1_555
H18 C24 1_555 1_555
C25 N3 1_555 1_555
H19 C25 1_555 1_555
C26 C3 1_555 1_555
H20 C26 1_555 1_555
C27 C25 1_555 1_555
H21 C27 1_555 1_555
C28 C20 1_555 1_555
H22 C28 1_555 1_555
C29 C14 1_555 1_555
H23 C29 1_555 1_555
Cu1E O3 1_555 1_555
O3E Cu1 1_555 1_555
C2 C18 1_555 1_555
C4 C13 1_555 1_555
C12 C17 1_555 1_555
C18 C21 1_555 1_555
C20 C24 1_555 1_555
C22 C23 1_555 1_555
C26 C28 1_555 1_555
C27 C29 1_555 1_555

#END
