
#######################################################################
#
#                 Cambridge Crystallographic Data Centre
#                                CCDC 
#
#######################################################################
#
# If this CIF has been generated from an entry in the Cambridge 
# Structural Database, then it will include bibliographic, chemical, 
# crystal, experimental, refinement or atomic coordinate data resulting 
# from the CCDC's data processing and validation procedures.
#
#######################################################################

data_XUBWUO
_symmetry_cell_setting           triclinic
_symmetry_space_group_name_H-M   'P -1'
_symmetry_Int_Tables_number      2
_space_group_name_Hall           '-P 1'
loop_
_symmetry_equiv_pos_site_id
_symmetry_equiv_pos_as_xyz
1 x,y,z
2 -x,-y,-z
_cell_length_a                   14.2572(4)
_cell_length_b                   16.0012(4)
_cell_length_c                   19.0630(5)
_cell_angle_alpha                108.351(2)
_cell_angle_beta                 104.449(2)
_cell_angle_gamma                95.181(2)
_cell_volume                     3929.13
loop_
_atom_site_label
_atom_site_type_symbol
_atom_site_fract_x
_atom_site_fract_y
_atom_site_fract_z
C1 C 1.4829(2) 0.12319(17) 0.58703(15)
H1 H 1.4289 0.1517 0.5821
C2 C 1.4950(2) 0.07142(18) 0.63378(15)
H2 H 1.4493 0.0649 0.6598
C3 C 1.5755(2) 0.02979(17) 0.64129(15)
C4 C 1.64336(19) 0.03646(17) 0.60165(15)
H3 H 1.6971 0.0076 0.6066
C5 C 1.62900(19) 0.08719(17) 0.55448(15)
C6 C 1.55067(19) 0.13301(16) 0.54735(15)
C7 C 1.4618(2) 0.22340(17) 0.48662(15)
H4 H 1.4035 0.1773 0.4685
H5 H 1.4625 0.2461 0.4451
C8 C 1.45282(19) 0.29968(16) 0.55531(15)
C9 C 1.1914(2) 0.12681(18) 0.73510(15)
C10 C 1.14516(19) 0.06258(18) 0.75601(16)
H6 H 1.1113 0.0077 0.7190
C11 C 1.15045(19) 0.08164(18) 0.83279(17)
C12 C 1.19965(19) 0.16262(18) 0.88825(16)
H7 H 1.2034 0.1740 0.9399
C13 C 1.24376(19) 0.22735(17) 0.86603(15)
H8 H 1.2765 0.2826 0.9031
C14 C 1.23940(19) 0.21033(17) 0.78961(15)
C15 C 1.3068(2) 0.36150(16) 0.81102(15)
H9 H 1.3652 0.3706 0.8537
H10 H 1.2536 0.3797 0.8321
C16 C 1.32667(18) 0.41684(17) 0.76278(15)
C17 C 1.2223(2) 0.67072(18) 0.37830(16)
H11 H 1.2886 0.6959 0.4025
C18 C 1.1626(2) 0.71007(19) 0.33243(16)
H12 H 1.1886 0.7622 0.3269
C19 C 1.0656(2) 0.67141(19) 0.29572(15)
C20 C 1.0249(2) 0.59222(19) 0.30066(15)
H13 H 0.9596 0.5653 0.2737
C21 C 1.0840(2) 0.55439(17) 0.34678(15)
C22 C 1.1819(2) 0.59347(17) 0.38760(15)
C23 C 1.33114(19) 0.59299(18) 0.47762(15)
H14 H 1.3370 0.6571 0.5021
H15 H 1.3705 0.5831 0.4420
C24 C 1.3701(2) 0.55254(17) 0.53896(15)
C25 C 0.2251(2) 0.66082(17) -0.10937(15)
H16 H 0.2935 0.6720 -0.0975
C26 C 0.1698(2) 0.71275(17) -0.14356(15)
H17 H 0.2014 0.7595 -0.1532
C27 C 0.0689(2) 0.69510(17) -0.16301(15)
C28 C 0.0205(2) 0.62586(17) -0.14881(15)
H18 H -0.0480 0.6130 -0.1632
C29 C 0.07610(19) 0.57636(16) -0.11281(15)
C30 C 0.17851(19) 0.59251(17) -0.09301(14)
C31 C 0.33008(18) 0.56865(17) -0.02183(15)
H19 H 0.3458 0.6334 0.0020
H20 H 0.3630 0.5512 -0.0616
C32 C 0.36730(19) 0.52673(16) 0.03888(14)
C33 C 0.49223(19) 0.11458(17) 0.08858(15)
H21 H 0.4407 0.1461 0.0839
C34 C 0.4970(2) 0.05919(17) 0.13202(15)
H22 H 0.4489 0.0533 0.1562
C35 C 0.57379(19) 0.01294(16) 0.13903(15)
C36 C 0.64473(19) 0.01929(16) 0.10209(15)
H23 H 0.6961 -0.0124 0.1070
C37 C 0.63816(19) 0.07333(17) 0.05789(15)
C38 C 0.56365(19) 0.12383(16) 0.05175(15)
C39 C 0.48101(19) 0.21749(17) -0.00826(15)
H24 H 0.4229 0.1706 -0.0316
H25 H 0.4866 0.2444 -0.0464
C40 C 0.46523(19) 0.28876(16) 0.06076(14)
C41 C 0.2169(2) 0.23714(18) 0.38138(15)
H26 H 0.2393 0.2966 0.4138
C42 C 0.1742(2) 0.17594(19) 0.40723(16)
H27 H 0.1686 0.1942 0.4572
C43 C 0.14016(19) 0.08835(18) 0.35913(16)
C44 C 0.1478(2) 0.05900(18) 0.28444(16)
H28 H 0.1240 -0.0002 0.2519
C45 C 0.1922(2) 0.12076(17) 0.25993(15)
C46 C 0.22626(19) 0.21014(17) 0.30734(15)
C47 C 0.2914(2) 0.35826(16) 0.31986(15)
H29 H 0.3462 0.3715 0.3661
H30 H 0.2348 0.3776 0.3354
C48 C 0.31783(18) 0.40753(17) 0.26920(15)
C49 C 0.42424(19) 0.71323(17) 0.21905(15)
H31 H 0.4919 0.7327 0.2411
C50 C 0.37323(19) 0.75496(17) 0.17261(16)
H32 H 0.4062 0.8022 0.1643
C51 C 0.27255(19) 0.72621(17) 0.13830(15)
C52 C 0.2273(2) 0.65791(18) 0.15558(17)
H33 H 0.1595 0.6379 0.1351
C53 C 0.2827(2) 0.61976(18) 0.20295(16)
H34 H 0.2511 0.5741 0.2140
C54 C 0.21209(19) 0.76646(17) 0.08552(15)
H35 H 0.1647 0.7191 0.0427
H36 H 0.2549 0.7958 0.0645
C55 C 0.15718(19) 0.83464(17) 0.12697(15)
H37 H 0.1267 0.8099 0.1580
H38 H 0.2041 0.8884 0.1616
C56 C 0.07810(19) 0.85960(17) 0.07084(16)
H39 H 0.0563 0.9114 0.1004
H40 H 0.1083 0.8777 0.0363
C57 C -0.01126(18) 0.78860(17) 0.02240(15)
C58 C -0.07720(19) 0.80114(17) -0.03950(15)
H41 H -0.0630 0.8515 -0.0521
C59 C -0.16238(19) 0.74069(17) -0.08191(15)
H42 H -0.2047 0.7516 -0.1225
C60 C -0.12418(18) 0.65255(17) -0.00769(15)
H43 H -0.1397 0.6016 0.0037
C61 C -0.03775(19) 0.71099(17) 0.03681(15)
H44 H 0.0036 0.6987 0.0770
C62 C 0.5674(2) 0.27102(17) 0.28560(15)
H45 H 0.5005 0.2675 0.2807
C63 C 0.61610(19) 0.21058(17) 0.31123(15)
H46 H 0.5821 0.1685 0.3247
C64 C 0.71493(19) 0.21206(17) 0.31710(14)
C65 C 0.7625(2) 0.28036(18) 0.30040(16)
H47 H 0.8296 0.2860 0.3056
C66 C 0.7099(2) 0.33953(18) 0.27624(16)
H48 H 0.7430 0.3847 0.2656
C67 C 0.7676(2) 0.14177(17) 0.33774(16)
H49 H 0.7675 0.0956 0.2903
H50 H 0.7308 0.1141 0.3637
C68 C 0.8738(2) 0.17639(18) 0.38949(15)
H51 H 0.9114 0.2033 0.3636
H52 H 0.9029 0.1263 0.3974
C69 C 0.88095(19) 0.24559(18) 0.46817(15)
H53 H 0.8396 0.2888 0.4607
H54 H 0.8569 0.2158 0.4991
C70 C 0.98501(19) 0.29340(17) 0.51032(15)
C71 C 1.05135(19) 0.26196(17) 0.55859(15)
H55 H 1.0304 0.2112 0.5685
C72 C 1.14762(19) 0.30565(17) 0.59173(15)
H56 H 1.1903 0.2834 0.6239
C73 C 1.11868(19) 0.41050(18) 0.53304(16)
H57 H 1.1411 0.4613 0.5238
C74 C 1.0219(2) 0.37002(18) 0.49904(16)
H58 H 0.9801 0.3941 0.4679
Cl1 Cl 1.59371(5) -0.03410(5) 0.70118(4)
Cl2 Cl 1.71038(5) 0.09095(4) 0.50091(4)
Cl3 Cl 1.03479(5) 0.45570(5) 0.35469(4)
Cl4 Cl 0.98927(6) 0.72369(5) 0.24235(4)
Cl5 Cl 1.18841(6) 0.10129(5) 0.63919(4)
Cl6 Cl 1.09461(5) -0.00140(5) 0.85872(5)
Cl7 Cl 0.20680(6) 0.08544(4) 0.16806(4)
Cl8 Cl 0.08715(5) 0.01132(5) 0.39249(5)
Cl9 Cl 0.58302(5) -0.05617(4) 0.19431(4)
Cl10 Cl 0.72176(5) 0.07493(4) 0.00596(4)
Cl11 Cl 0.01631(5) 0.49333(4) -0.09053(4)
Cl12 Cl 0.00064(5) 0.75860(5) -0.20829(4)
Cu1 Cu 0.32461(2) 0.40873(2) 0.121827(17)
Cu2 Cu 0.54161(2) 0.41248(2) 0.219136(17)
Cu3 Cu 0.45560(2) 0.57388(2) 0.286774(17)
Cu4 Cu 1.32774(2) 0.43320(2) 0.621035(17)
N1 N 0.38014(15) 0.64568(13) 0.23374(12)
N2 N -0.18784(15) 0.66564(14) -0.06738(12)
N3 N 0.61350(16) 0.33468(14) 0.26744(12)
N4 N 1.18302(15) 0.37944(14) 0.57970(12)
O1 O 1.52821(13) 0.33241(11) 0.61386(10)
O2 O 1.37110(13) 0.32320(12) 0.54511(10)
O3 O 1.54647(13) 0.18305(12) 0.50108(10)
O4 O 1.32556(13) 0.49810(11) 0.78801(10)
O5 O 1.34437(13) 0.37501(11) 0.69989(10)
O6 O 1.28045(14) 0.26905(12) 0.76248(10)
O7 O 1.30733(13) 0.49996(12) 0.54989(10)
O8 O 1.45922(13) 0.57671(12) 0.57405(10)
O9 O 1.23052(13) 0.55409(12) 0.43592(10)
O10 O 0.53959(13) 0.32806(11) 0.11831(10)
O11 O 0.37896(13) 0.30101(12) 0.05205(11)
O12 O 0.56533(13) 0.17734(11) 0.00866(10)
O13 O 0.33357(13) 0.36125(11) 0.20722(10)
O14 O 0.32283(13) 0.49013(11) 0.29330(10)
O15 O 0.26921(14) 0.26442(11) 0.27717(10)
O16 O 0.30518(13) 0.47052(12) 0.04633(10)
O17 O 0.45559(13) 0.55241(12) 0.07607(10)
O18 O 0.22590(12) 0.54083(11) -0.05627(10)
O19 O 0.54032(12) 0.49595(11) 0.32069(10)
H59 H 0.5261 0.4667 0.3499
O20 O 0.45248(12) 0.48625(11) 0.18397(10)
H60 H 0.4758 0.5199 0.1584
Cu1A Cu -0.32461(2) 0.59127(2) -0.121827(17)
Cu2A Cu 1.45839(2) 0.58752(2) 0.780864(17)
Cu3A Cu 1.54440(2) 0.42612(2) 0.713226(17)
Cu4A Cu 0.67226(2) 0.56680(2) 0.378965(17)
N2A N 0.18784(15) 0.33436(14) 0.06738(12)
O1A O 0.47179(13) 0.66759(11) 0.38614(10)
O4A O 0.67444(13) 0.50190(11) 0.21199(10)
O19A O 1.45968(12) 0.50405(11) 0.67931(10)
loop_
_geom_bond_atom_site_label_1
_geom_bond_atom_site_label_2
_geom_bond_site_symmetry_1
_geom_bond_site_symmetry_2
C1 H1 1_555 1_555
C2 C1 1_555 1_555
H2 C2 1_555 1_555
C3 C2 1_555 1_555
C4 C3 1_555 1_555
H3 C4 1_555 1_555
C5 C4 1_555 1_555
C6 C1 1_555 1_555
C7 H4 1_555 1_555
H5 C7 1_555 1_555
C8 C7 1_555 1_555
C9 C10 1_555 1_555
C10 H6 1_555 1_555
C11 C10 1_555 1_555
C12 C11 1_555 1_555
H7 C12 1_555 1_555
C13 C12 1_555 1_555
H8 C13 1_555 1_555
C14 C9 1_555 1_555
C15 H9 1_555 1_555
H10 C15 1_555 1_555
C16 C15 1_555 1_555
C17 H11 1_555 1_555
C18 C17 1_555 1_555
H12 C18 1_555 1_555
C19 C18 1_555 1_555
C20 C19 1_555 1_555
H13 C20 1_555 1_555
C21 C20 1_555 1_555
C22 C17 1_555 1_555
C23 H14 1_555 1_555
H15 C23 1_555 1_555
C24 C23 1_555 1_555
C25 H16 1_555 1_555
C26 C25 1_555 1_555
H17 C26 1_555 1_555
C27 C26 1_555 1_555
C28 C27 1_555 1_555
H18 C28 1_555 1_555
C29 C28 1_555 1_555
C30 C25 1_555 1_555
C31 H19 1_555 1_555
H20 C31 1_555 1_555
C32 C31 1_555 1_555
C33 H21 1_555 1_555
C34 C33 1_555 1_555
H22 C34 1_555 1_555
C35 C34 1_555 1_555
C36 C35 1_555 1_555
H23 C36 1_555 1_555
C37 C36 1_555 1_555
C38 C33 1_555 1_555
C39 H24 1_555 1_555
H25 C39 1_555 1_555
C40 C39 1_555 1_555
C41 H26 1_555 1_555
C42 C41 1_555 1_555
H27 C42 1_555 1_555
C43 C42 1_555 1_555
C44 C43 1_555 1_555
H28 C44 1_555 1_555
C45 C44 1_555 1_555
C46 C41 1_555 1_555
C47 H29 1_555 1_555
H30 C47 1_555 1_555
C48 C47 1_555 1_555
C49 H31 1_555 1_555
C50 C49 1_555 1_555
H32 C50 1_555 1_555
C51 C50 1_555 1_555
C52 C51 1_555 1_555
H33 C52 1_555 1_555
C53 C52 1_555 1_555
H34 C53 1_555 1_555
C54 C51 1_555 1_555
H35 C54 1_555 1_555
H36 C54 1_555 1_555
C55 C54 1_555 1_555
H37 C55 1_555 1_555
H38 C55 1_555 1_555
C56 C55 1_555 1_555
H39 C56 1_555 1_555
H40 C56 1_555 1_555
C57 C56 1_555 1_555
C58 C57 1_555 1_555
H41 C58 1_555 1_555
C59 C58 1_555 1_555
H42 C59 1_555 1_555
C60 H43 1_555 1_555
C61 C57 1_555 1_555
H44 C61 1_555 1_555
C62 H45 1_555 1_555
C63 C62 1_555 1_555
H46 C63 1_555 1_555
C64 C63 1_555 1_555
C65 C64 1_555 1_555
H47 C65 1_555 1_555
C66 C65 1_555 1_555
H48 C66 1_555 1_555
C67 C64 1_555 1_555
H49 C67 1_555 1_555
H50 C67 1_555 1_555
C68 C67 1_555 1_555
H51 C68 1_555 1_555
H52 C68 1_555 1_555
C69 C68 1_555 1_555
H53 C69 1_555 1_555
H54 C69 1_555 1_555
C70 C69 1_555 1_555
C71 C70 1_555 1_555
H55 C71 1_555 1_555
C72 C71 1_555 1_555
H56 C72 1_555 1_555
C73 H57 1_555 1_555
C74 C70 1_555 1_555
H58 C74 1_555 1_555
Cl1 C3 1_555 1_555
Cl2 C5 1_555 1_555
Cl3 C21 1_555 1_555
Cl4 C19 1_555 1_555
Cl5 C9 1_555 1_555
Cl6 C11 1_555 1_555
Cl7 C45 1_555 1_555
Cl8 C43 1_555 1_555
Cl9 C35 1_555 1_555
Cl10 C37 1_555 1_555
Cl11 C29 1_555 1_555
Cl12 C27 1_555 1_555
Cu1 O11 1_555 1_555
Cu2 N3 1_555 1_555
Cu3 N1 1_555 1_555
Cu4 N4 1_555 1_555
N1 C49 1_555 1_555
N2 C59 1_555 1_555
N3 C62 1_555 1_555
N4 C72 1_555 1_555
O1 C8 1_555 1_555
O2 C8 1_555 1_555
O3 C6 1_555 1_555
O4 C16 1_555 1_555
O5 C16 1_555 1_555
O6 C14 1_555 1_555
O7 C24 1_555 1_555
O8 C24 1_555 1_555
O9 C22 1_555 1_555
O10 C40 1_555 1_555
O11 C40 1_555 1_555
O12 C38 1_555 1_555
O13 C48 1_555 1_555
O14 C48 1_555 1_555
O15 C46 1_555 1_555
O16 C32 1_555 1_555
O17 C32 1_555 1_555
O18 C30 1_555 1_555
O19 Cu2 1_555 1_555
H59 O19 1_555 1_555
O20 Cu1 1_555 1_555
H60 O20 1_555 1_555
Cu1A N2 1_555 1_555
Cu2A O4 1_555 1_555
Cu3A O1 1_555 1_555
Cu4A O19 1_555 1_555
N2A Cu1 1_555 1_555
O1A Cu3 1_555 1_555
O4A Cu2 1_555 1_555
O19A Cu4 1_555 1_555
C5 C6 1_555 1_555
C7 O3 1_555 1_555
C13 C14 1_555 1_555
C15 O6 1_555 1_555
C21 C22 1_555 1_555
C23 O9 1_555 1_555
C29 C30 1_555 1_555
C31 O18 1_555 1_555
C37 C38 1_555 1_555
C39 O12 1_555 1_555
C45 C46 1_555 1_555
C47 O15 1_555 1_555
C53 N1 1_555 1_555
C60 C61 1_555 1_555
C60 N2 1_555 1_555
C66 N3 1_555 1_555
C73 C74 1_555 1_555
C73 N4 1_555 1_555
Cu1 O13 1_555 1_555
Cu1 O16 1_555 1_555
Cu2 O10 1_555 1_555
Cu2 O20 1_555 1_555
Cu3 O14 1_555 1_555
Cu3 O19 1_555 1_555
Cu3 O20 1_555 1_555
Cu4 O2 1_555 1_555
Cu4 O5 1_555 1_555
Cu4 O7 1_555 1_555
Cu2A O19A 1_555 1_555
Cu3A O19A 1_555 1_555

#END
