
#######################################################################
#
#                 Cambridge Crystallographic Data Centre
#                                CCDC 
#
#######################################################################
#
# If this CIF has been generated from an entry in the Cambridge 
# Structural Database, then it will include bibliographic, chemical, 
# crystal, experimental, refinement or atomic coordinate data resulting 
# from the CCDC's data processing and validation procedures.
#
#######################################################################

data_XUBZEB
_symmetry_cell_setting           monoclinic
_symmetry_space_group_name_H-M   'C 2/c'
_symmetry_Int_Tables_number      15
_space_group_name_Hall           '-C 2yn'
loop_
_symmetry_equiv_pos_site_id
_symmetry_equiv_pos_as_xyz
1 x,y,z
2 -x,y,1/2-z
3 1/2+x,1/2+y,z
4 1/2-x,1/2+y,1/2-z
5 -x,-y,-z
6 x,-y,1/2+z
7 1/2-x,1/2-y,-z
8 1/2+x,1/2-y,1/2+z
_cell_length_a                   9.247
_cell_length_b                   15.775
_cell_length_c                   17.778
_cell_angle_alpha                90
_cell_angle_beta                 90.75
_cell_angle_gamma                90
_cell_volume                     2593.08
loop_
_atom_site_label
_atom_site_type_symbol
_atom_site_fract_x
_atom_site_fract_y
_atom_site_fract_z
Hg1 Hg 0.34085(2) 0.227414(18) 0.596077(14)
Cl1 Cl 0.13216(19) 0.20994(14) 0.67098(11)
Cl2 Cl 0.32819(16) 0.13064(11) 0.48247(9)
N1 N 0.5401(5) 0.3047(3) 0.5651(3)
N2 N 0.5508(5) 0.1752(3) 0.6712(3)
C1 C 0.5395(7) 0.3659(4) 0.5139(4)
H1 H 0.4534 0.3788 0.4889
C2 C 0.6632(7) 0.4113(5) 0.4966(4)
H2 H 0.6595 0.4554 0.4620
C3 C 0.7911(7) 0.3899(5) 0.5316(4)
H3 H 0.8758 0.4185 0.5199
C4 C 0.7933(7) 0.3259(5) 0.5839(4)
H4 H 0.8793 0.3107 0.6080
C5 C 0.6662(6) 0.2845(4) 0.6000(4)
C6 C 0.6656(7) 0.2153(4) 0.6554(4)
H5 H 0.7518 0.2005 0.6796
C7 C 0.5622(7) 0.1025(4) 0.7214(3)
H6 H 0.6553 0.1041 0.7483
C8 C 0.5526(9) 0.0216(4) 0.6734(4)
H7 H 0.4626 0.0218 0.6448
H8 H 0.6316 0.0209 0.6380
C9 C 0.5598(11) -0.0575(5) 0.7219(5)
H9 H 0.5518 -0.1074 0.6902
H10 H 0.6524 -0.0597 0.7481
N1A N 0.4599(5) 0.3047(3) 0.9349(3)
N2A N 0.4492(5) 0.1752(3) 0.8288(3)
C1A C 0.4605(7) 0.3659(4) 0.9861(4)
H1A H 0.5466 0.3788 1.0111
C2A C 0.3368(7) 0.4113(5) 1.0034(4)
H2A H 0.3405 0.4554 1.0380
C3A C 0.2089(7) 0.3899(5) 0.9684(4)
H3A H 0.1242 0.4185 0.9801
C4A C 0.2067(7) 0.3259(5) 0.9161(4)
H4A H 0.1207 0.3107 0.8920
C5A C 0.3338(6) 0.2845(4) 0.9000(4)
C6A C 0.3344(7) 0.2153(4) 0.8446(4)
H5A H 0.2482 0.2005 0.8204
C7A C 0.4378(7) 0.1025(4) 0.7786(3)
H6A H 0.3447 0.1041 0.7517
C8A C 0.4474(9) 0.0216(4) 0.8266(4)
H7A H 0.5374 0.0218 0.8552
H8A H 0.3684 0.0209 0.8620
C9A C 0.4402(11) -0.0575(5) 0.7781(5)
H9A H 0.4482 -0.1074 0.8098
H10A H 0.3476 -0.0597 0.7519
Hg1A Hg 0.65915(2) 0.227414(18) 0.903923(14)
Cl1A Cl 0.86784(19) 0.20994(14) 0.82902(11)
Cl2A Cl 0.67181(16) 0.13064(11) 1.01753(9)
Hg1F Hg 0.15915(2) 0.272586(18) 0.403923(14)
Hg1G Hg 0.84085(2) 0.272586(18) 1.096077(14)
Cl2F Cl 0.17181(16) 0.36936(11) 0.51753(9)
Cl2G Cl 0.82819(16) 0.36936(11) 0.98247(9)
Cl3 Cl 0.4708(10) 0.4640(5) 0.6754(3)
C10 C 0.5000 0.5199(13) 0.7500
H11 H 0.4193 0.5555 0.7621
Cl3A Cl 0.5292(10) 0.4640(5) 0.8246(3)
H11A H 0.5807 0.5555 0.7379
loop_
_geom_bond_atom_site_label_1
_geom_bond_atom_site_label_2
_geom_bond_site_symmetry_1
_geom_bond_site_symmetry_2
Hg1 Cl1 1_555 1_555
Cl2 Hg1 1_555 1_555
N1 Hg1 1_555 1_555
N2 Hg1 1_555 1_555
C1 N1 1_555 1_555
H1 C1 1_555 1_555
C2 C1 1_555 1_555
H2 C2 1_555 1_555
C3 C2 1_555 1_555
H3 C3 1_555 1_555
C4 C3 1_555 1_555
H4 C4 1_555 1_555
C5 N1 1_555 1_555
C6 N2 1_555 1_555
H5 C6 1_555 1_555
C7 N2 1_555 1_555
H6 C7 1_555 1_555
C8 C7 1_555 1_555
H7 C8 1_555 1_555
H8 C8 1_555 1_555
C9 C8 1_555 1_555
H9 C9 1_555 1_555
H10 C9 1_555 1_555
Cl3 C10 1_555 1_555
C10 H11 1_555 1_555
N1A C1A 1_555 1_555
N2A C6A 1_555 1_555
C1A H1A 1_555 1_555
C2A C1A 1_555 1_555
H2A C2A 1_555 1_555
C3A C2A 1_555 1_555
H3A C3A 1_555 1_555
C4A C3A 1_555 1_555
H4A C4A 1_555 1_555
C5A N1A 1_555 1_555
C6A C5A 1_555 1_555
H5A C6A 1_555 1_555
C7A C7 1_555 1_555
H6A C7A 1_555 1_555
C8A C7A 1_555 1_555
H7A C8A 1_555 1_555
H8A C8A 1_555 1_555
C9A C9 1_555 1_555
H9A C9A 1_555 1_555
H10A C9A 1_555 1_555
Hg1A N1A 1_555 1_555
Cl1A Hg1A 1_555 1_555
Cl2A Hg1A 1_555 1_555
Hg1F Cl2 1_555 1_555
Hg1G Cl2A 1_555 1_555
Cl2F Hg1 1_555 1_555
Cl2G Hg1A 1_555 1_555
Cl3A C10 1_555 1_555
H11A C10 1_555 1_555
C4 C5 1_555 1_555
C5 C6 1_555 1_555
N2A C7A 1_555 1_555
N2A Hg1A 1_555 1_555
C4A C5A 1_555 1_555
C8A C9A 1_555 1_555
Hg1F Cl2F 1_555 1_555
Hg1G Cl2G 1_555 1_555

#END
