
#######################################################################
#
#                 Cambridge Crystallographic Data Centre
#                                CCDC 
#
#######################################################################
#
# If this CIF has been generated from an entry in the Cambridge 
# Structural Database, then it will include bibliographic, chemical, 
# crystal, experimental, refinement or atomic coordinate data resulting 
# from the CCDC's data processing and validation procedures.
#
#######################################################################

data_XUCCEE
_symmetry_cell_setting           monoclinic
_symmetry_space_group_name_H-M   'C 2/c'
_symmetry_Int_Tables_number      15
_space_group_name_Hall           '-C 2yn'
loop_
_symmetry_equiv_pos_site_id
_symmetry_equiv_pos_as_xyz
1 x,y,z
2 -x,y,1/2-z
3 1/2+x,1/2+y,z
4 1/2-x,1/2+y,1/2-z
5 -x,-y,-z
6 x,-y,1/2+z
7 1/2-x,1/2-y,-z
8 1/2+x,1/2-y,1/2+z
_cell_length_a                   23.310(6)
_cell_length_b                   8.938(2)
_cell_length_c                   16.332(4)
_cell_angle_alpha                90
_cell_angle_beta                 108.377(4)
_cell_angle_gamma                90
_cell_volume                     3229.16
loop_
_atom_site_label
_atom_site_type_symbol
_atom_site_fract_x
_atom_site_fract_y
_atom_site_fract_z
Mn1 Mn 0.28521(2) 0.15795(6) 0.40059(3)
C1 C 0.4001(2) 0.1032(6) 0.3387(3)
H1 H 0.3847 0.1863 0.3046
C2 C 0.4513(2) 0.0348(7) 0.3305(4)
H2 H 0.4698 0.0717 0.2918
C3 C 0.4742(2) -0.0874(7) 0.3799(4)
H3 H 0.5080 -0.1369 0.3748
C4 C 0.4463(2) -0.1351(5) 0.4368(3)
H4 H 0.4619 -0.2164 0.4724
C5 C 0.39440(17) -0.0635(5) 0.4425(3)
C6 C 0.36166(19) -0.1118(4) 0.5016(3)
C7 C 0.3830(3) -0.2243(6) 0.5627(3)
H5 H 0.4187 -0.2747 0.5667
C8 C 0.3503(3) -0.2592(6) 0.6170(3)
H6 H 0.3639 -0.3344 0.6579
C9 C 0.2979(3) -0.1844(5) 0.6113(3)
H7 H 0.2755 -0.2070 0.6477
C10 C 0.2796(2) -0.0742(5) 0.5493(3)
H8 H 0.2444 -0.0219 0.5452
C11 C 0.17780(17) 0.0412(4) 0.2325(2)
C12 C 0.13670(18) 0.1596(4) 0.2478(2)
H9 H 0.0954 0.1358 0.2140
H10 H 0.1469 0.2547 0.2273
C13 C 0.14014(17) 0.1757(4) 0.3407(2)
N1 N 0.16201(15) -0.0573(4) 0.1697(2)
N2 N 0.21210(15) -0.1405(3) 0.1808(2)
N3 N 0.25637(15) -0.0926(4) 0.2475(2)
N4 N 0.23536(14) 0.0243(3) 0.28196(18)
N5 N 0.19128(13) 0.1939(3) 0.40577(19)
N6 N 0.17268(14) 0.2082(4) 0.4763(2)
N7 N 0.11415(16) 0.1960(5) 0.4534(2)
N8 N 0.09203(16) 0.1754(4) 0.3672(2)
N9 N 0.30965(15) -0.0388(3) 0.4951(2)
N10 N 0.37196(15) 0.0560(4) 0.3930(2)
Mn1F Mn 0.21479(2) 0.34205(6) 0.59941(3)
Mn1C Mn 0.21479(2) -0.34205(6) 0.09941(3)
Mn1E Mn 0.28521(2) 0.84205(6) 0.90059(3)
C1F C 0.0999(2) 0.3968(6) 0.6613(3)
H1F H 0.1153 0.3137 0.6954
C2F C 0.0487(2) 0.4652(7) 0.6695(4)
H2F H 0.0302 0.4283 0.7082
C3F C 0.0258(2) 0.5874(7) 0.6201(4)
H3F H -0.0080 0.6369 0.6252
C4F C 0.0537(2) 0.6351(5) 0.5632(3)
H4F H 0.0381 0.7164 0.5276
C5F C 0.10560(17) 0.5635(5) 0.5575(3)
C6F C 0.13834(19) 0.6118(4) 0.4984(3)
C7F C 0.1170(3) 0.7243(6) 0.4373(3)
H5F H 0.0813 0.7747 0.4333
C8F C 0.1497(3) 0.7592(6) 0.3830(3)
H6F H 0.1361 0.8344 0.3421
C9F C 0.2021(3) 0.6844(5) 0.3887(3)
H7F H 0.2245 0.7070 0.3523
C10F C 0.2204(2) 0.5742(5) 0.4507(3)
H8F H 0.2556 0.5219 0.4548
C11F C 0.32220(17) 0.4588(4) 0.7675(2)
C12F C 0.36330(18) 0.3404(4) 0.7522(2)
H9F H 0.4046 0.3642 0.7860
H10F H 0.3531 0.2453 0.7727
C13F C 0.35986(17) 0.3243(4) 0.6593(2)
N1F N 0.33799(15) 0.5573(4) 0.8303(2)
N2F N 0.28790(15) 0.6405(3) 0.8192(2)
N2C N 0.28790(15) 0.3595(3) 0.3192(2)
N2E N 0.21210(15) 0.1405(3) 0.6808(2)
N3F N 0.24363(15) 0.5926(4) 0.7525(2)
N4F N 0.26464(14) 0.4757(3) 0.71804(18)
N5F N 0.30872(13) 0.3061(3) 0.59423(19)
N6F N 0.32732(14) 0.2918(4) 0.5237(2)
N7F N 0.38585(16) 0.3040(5) 0.5466(2)
N8F N 0.40797(16) 0.3246(4) 0.6328(2)
N9F N 0.19035(15) 0.5388(3) 0.5049(2)
N10F N 0.12804(15) 0.4440(4) 0.6070(2)
O1 O 0.0000 -0.0691(17) 0.2500
H11 H -0.011(10) -0.110(9) 0.285(9)
H11A H 0.011(10) -0.110(9) 0.215(9)
O2 O 0.0279(2) -0.0818(6) 0.0736(5)
H12 H 0.0617(17) -0.041(9) 0.091(7)
H13 H 0.002(3) 0.004(7) 0.0659(13)
loop_
_geom_bond_atom_site_label_1
_geom_bond_atom_site_label_2
_geom_bond_site_symmetry_1
_geom_bond_site_symmetry_2
Mn1 N4 1_555 1_555
C1 H1 1_555 1_555
C2 C1 1_555 1_555
H2 C2 1_555 1_555
C3 C2 1_555 1_555
H3 C3 1_555 1_555
C4 C3 1_555 1_555
H4 C4 1_555 1_555
C5 C4 1_555 1_555
C6 C5 1_555 1_555
C7 C6 1_555 1_555
H5 C7 1_555 1_555
C8 C7 1_555 1_555
H6 C8 1_555 1_555
C9 C8 1_555 1_555
H7 C9 1_555 1_555
C10 C9 1_555 1_555
H8 C10 1_555 1_555
C11 C12 1_555 1_555
C12 H9 1_555 1_555
H10 C12 1_555 1_555
C13 C12 1_555 1_555
N1 C11 1_555 1_555
N2 N1 1_555 1_555
N3 N2 1_555 1_555
N4 C11 1_555 1_555
N5 Mn1 1_555 1_555
N6 N5 1_555 1_555
N7 N6 1_555 1_555
N8 C13 1_555 1_555
N9 Mn1 1_555 1_555
N10 Mn1 1_555 1_555
O1 H11 1_555 1_555
O2 H12 1_555 1_555
H13 O2 1_555 1_555
Mn1F N6 1_555 1_555
Mn1C N2 1_555 1_555
Mn1E N2F 1_555 1_555
C1F H1F 1_555 1_555
C2F C1F 1_555 1_555
H2F C2F 1_555 1_555
C3F C2F 1_555 1_555
H3F C3F 1_555 1_555
C4F C3F 1_555 1_555
H4F C4F 1_555 1_555
C5F C4F 1_555 1_555
C6F C5F 1_555 1_555
C7F C6F 1_555 1_555
H5F C7F 1_555 1_555
C8F C7F 1_555 1_555
H6F C8F 1_555 1_555
C9F C8F 1_555 1_555
H7F C9F 1_555 1_555
C10F C9F 1_555 1_555
H8F C10F 1_555 1_555
C11F C12F 1_555 1_555
C12F H9F 1_555 1_555
H10F C12F 1_555 1_555
C13F C12F 1_555 1_555
N1F C11F 1_555 1_555
N2F N1F 1_555 1_555
N2C Mn1 1_555 1_555
N2E Mn1F 1_555 1_555
N3F N2F 1_555 1_555
N4F Mn1F 1_555 1_555
N5F Mn1F 1_555 1_555
N6F Mn1 1_555 1_555
N7F N6F 1_555 1_555
N8F C13F 1_555 1_555
N9F Mn1F 1_555 1_555
N10F Mn1F 1_555 1_555
H11A O1 1_555 1_555
C1 N10 1_555 1_555
C5 N10 1_555 1_555
C6 N9 1_555 1_555
C10 N9 1_555 1_555
C13 N5 1_555 1_555
N3 N4 1_555 1_555
N7 N8 1_555 1_555
C1F N10F 1_555 1_555
C5F N10F 1_555 1_555
C6F N9F 1_555 1_555
C10F N9F 1_555 1_555
C11F N4F 1_555 1_555
C13F N5F 1_555 1_555
N3F N4F 1_555 1_555
N5F N6F 1_555 1_555
N7F N8F 1_555 1_555

#END
