
#######################################################################
#
#                 Cambridge Crystallographic Data Centre
#                                CCDC 
#
#######################################################################
#
# If this CIF has been generated from an entry in the Cambridge 
# Structural Database, then it will include bibliographic, chemical, 
# crystal, experimental, refinement or atomic coordinate data resulting 
# from the CCDC's data processing and validation procedures.
#
#######################################################################

data_XUCDEF
_symmetry_cell_setting           monoclinic
_symmetry_space_group_name_H-M   'C 2/c'
_symmetry_Int_Tables_number      15
_space_group_name_Hall           '-C 2yn'
loop_
_symmetry_equiv_pos_site_id
_symmetry_equiv_pos_as_xyz
1 x,y,z
2 -x,y,1/2-z
3 1/2+x,1/2+y,z
4 1/2-x,1/2+y,1/2-z
5 -x,-y,-z
6 x,-y,1/2+z
7 1/2-x,1/2-y,-z
8 1/2+x,1/2-y,1/2+z
_cell_length_a                   24.234(4)
_cell_length_b                   20.819(5)
_cell_length_c                   15.342(7)
_cell_angle_alpha                90
_cell_angle_beta                 128.293(3)
_cell_angle_gamma                90
_cell_volume                     6075.12
loop_
_atom_site_label
_atom_site_type_symbol
_atom_site_fract_x
_atom_site_fract_y
_atom_site_fract_z
Hg1 Hg 0.217903(7) 0.525457(10) 0.427102(12)
Cl1 Cl 0.19985(5) 0.63507(6) 0.35081(8)
Cl2 Cl 0.26497(4) 0.45458(6) 0.35804(8)
Cl3 Cl 0.27612(5) 0.52289(7) 0.62665(8)
Cl4 Cl 0.09457(4) 0.48121(5) 0.33767(7)
Dy1 Dy -0.381833(6) 0.256044(9) -0.117761(11)
O1 O -0.43927(10) 0.31492(14) -0.28419(17)
O2 O -0.55473(9) 0.33548(14) -0.39676(18)
O3 O -0.45743(9) 0.19788(14) -0.10163(17)
O4 O -0.57047(10) 0.17916(14) -0.24189(17)
O5 O -0.29483(9) 0.25019(14) -0.13892(17)
O6 O -0.18467(10) 0.23842(14) -0.07578(17)
C1 C -0.41797(16) 0.4008(3) -0.3989(3)
H1 H -0.3783 0.3886 -0.3287
C2 C -0.4123(2) 0.4372(3) -0.4694(4)
H2 H -0.3682 0.4503 -0.4455
C3 C -0.5322(2) 0.4378(3) -0.6069(3)
H3 H -0.5705 0.4504 -0.6780
C4 C -0.54187(19) 0.4034(2) -0.5412(3)
H4 H -0.5871 0.3934 -0.5669
C5 C -0.48451(15) 0.38361(19) -0.4370(3)
C6 C -0.49241(14) 0.3403(2) -0.3647(2)
C7 C -0.58160(15) 0.0932(2) -0.1158(3)
H5 H -0.6196 0.0965 -0.1909
C8 C -0.58642(18) 0.0562(2) -0.0456(3)
H6 H -0.6278 0.0345 -0.0730
C9 C -0.47169(19) 0.0799(3) 0.1027(3)
H7 H -0.4342 0.0745 0.1776
C10 C -0.46373(17) 0.1173(2) 0.0369(3)
H8 H -0.4209 0.1369 0.0669
C11 C -0.51978(14) 0.12523(19) -0.0730(2)
C12 C -0.51443(13) 0.17102(19) -0.1451(2)
C13 C -0.22819(16) 0.2057(2) -0.2848(3)
H9 H -0.1809 0.1997 -0.2253
C14 C -0.25384(18) 0.1927(2) -0.3935(3)
H10 H -0.2234 0.1791 -0.4076
C15 C -0.36657(18) 0.2223(3) -0.4629(3)
H11 H -0.4134 0.2283 -0.5243
C16 C -0.34433(17) 0.2367(2) -0.3586(3)
H12 H -0.3759 0.2525 -0.3485
C17 C -0.27435(14) 0.22754(19) -0.2679(2)
C18 C -0.24963(14) 0.24025(19) -0.1509(2)
N1 N -0.46757(18) 0.4529(2) -0.5675(3)
H13 H -0.4620 0.4743 -0.6095
N2 N -0.53179(16) 0.05206(19) 0.0600(2)
H14 H -0.5358 0.0299 0.1031
N3 N -0.32130(16) 0.1998(2) -0.4757(2)
H15 H -0.3366 0.1892 -0.5414
O9 O -0.31918(10) 0.35836(13) -0.05895(19)
H16 H -0.2781 0.3522 -0.0325
O10 O -0.32655(9) 0.14970(13) -0.03691(17)
H17 H -0.3156 0.1468 0.0254
Dy1A Dy -0.618167(6) 0.256044(9) -0.382239(11)
Dy1F Dy -0.118167(6) 0.243956(9) 0.117761(11)
O2A O -0.44527(9) 0.33548(14) -0.10324(18)
O4A O -0.42953(10) 0.17916(14) -0.25811(17)
O6F O -0.31533(10) 0.26158(14) 0.07578(17)
O7 O 0.07847(10) 0.02620(14) 0.3309(2)
H18 H 0.1100(2) 0.0005(3) 0.3516(15)
O8 O 0.22057(12) 0.39351(17) 0.6680(2)
H19 H 0.2516(2) 0.4173(4) 0.6805(9)
Hg2? Hg 0.014547(16) 0.20936(2) 0.72899(3)
Cl5? Cl 0.0000 0.32476(14) 0.7500
Cl6? Cl 0.03699(9) 0.23599(12) 0.59763(16)
Cl7? Cl -0.10565(6) 0.15035(9) 0.63109(12)
loop_
_geom_bond_atom_site_label_1
_geom_bond_atom_site_label_2
_geom_bond_site_symmetry_1
_geom_bond_site_symmetry_2
Hg1 Cl1 1_555 1_555
Dy1 O1 1_555 1_555
Cl2 Hg1 1_555 1_555
Cl3 Hg1 1_555 1_555
Cl4 Hg1 1_555 1_555
O1 C6 1_555 1_555
O2 C6 1_555 1_555
O3 Dy1 1_555 1_555
O4 C12 1_555 1_555
O5 Dy1 1_555 1_555
O6 C18 1_555 1_555
C1 H1 1_555 1_555
C2 C1 1_555 1_555
H2 C2 1_555 1_555
C3 H3 1_555 1_555
C4 C3 1_555 1_555
H4 C4 1_555 1_555
C5 C1 1_555 1_555
C6 C5 1_555 1_555
C7 H5 1_555 1_555
C8 C7 1_555 1_555
H6 C8 1_555 1_555
C9 H7 1_555 1_555
C10 C9 1_555 1_555
H8 C10 1_555 1_555
C11 C7 1_555 1_555
C12 O3 1_555 1_555
C13 H9 1_555 1_555
C14 C13 1_555 1_555
H10 C14 1_555 1_555
C15 H11 1_555 1_555
C16 C15 1_555 1_555
H12 C16 1_555 1_555
C17 C13 1_555 1_555
C18 O5 1_555 1_555
N1 C2 1_555 1_555
H13 N1 1_555 1_555
N2 C8 1_555 1_555
H14 N2 1_555 1_555
N3 C14 1_555 1_555
H15 N3 1_555 1_555
O7 H18 1_555 1_555
O8 H19 1_555 1_555
O9 Dy1 1_555 1_555
H16 O9 1_555 1_555
O10 Dy1 1_555 1_555
H17 O10 1_555 1_555
Dy1A O2 1_555 1_555
Dy1F O6 1_555 1_555
O2A Dy1 1_555 1_555
O4A Dy1 1_555 1_555
O6F Dy1 1_555 1_555
O4 Dy1A 1_555 1_555
C3 N1 1_555 1_555
C4 C5 1_555 1_555
C9 N2 1_555 1_555
C10 C11 1_555 1_555
C11 C12 1_555 1_555
C15 N3 1_555 1_555
C16 C17 1_555 1_555
C17 C18 1_555 1_555

#END
