
#######################################################################
#
#                 Cambridge Crystallographic Data Centre
#                                CCDC 
#
#######################################################################
#
# If this CIF has been generated from an entry in the Cambridge 
# Structural Database, then it will include bibliographic, chemical, 
# crystal, experimental, refinement or atomic coordinate data resulting 
# from the CCDC's data processing and validation procedures.
#
#######################################################################

data_XUCDOP
_symmetry_cell_setting           monoclinic
_symmetry_space_group_name_H-M   'C 2/c'
_symmetry_Int_Tables_number      15
_space_group_name_Hall           '-C 2yn'
loop_
_symmetry_equiv_pos_site_id
_symmetry_equiv_pos_as_xyz
1 x,y,z
2 -x,y,1/2-z
3 1/2+x,1/2+y,z
4 1/2-x,1/2+y,1/2-z
5 -x,-y,-z
6 x,-y,1/2+z
7 1/2-x,1/2-y,-z
8 1/2+x,1/2-y,1/2+z
_cell_length_a                   16.1032(17)
_cell_length_b                   12.5475(13)
_cell_length_c                   20.505(2)
_cell_angle_alpha                90
_cell_angle_beta                 100.315(2)
_cell_angle_gamma                90
_cell_volume                     4076.18
loop_
_atom_site_label
_atom_site_type_symbol
_atom_site_fract_x
_atom_site_fract_y
_atom_site_fract_z
Cd1 Cd -0.150390(11) 1.249305(16) -0.037005(9)
O1 O -0.02629(13) 1.27746(16) -0.08558(11)
O3 O -0.02820(13) 1.13148(17) -0.02667(12)
O5 O 0.31774(12) 0.92021(16) -0.07587(10)
O9 O 0.21146(13) 0.86841(16) -0.02839(10)
N1 N -0.07844(15) 1.3229(2) 0.05896(11)
N2 N 0.09862(17) 1.4528(2) 0.21332(13)
H5 H 0.099(2) 1.5228(15) 0.2108(18)
N3 N 0.26956(15) 1.3259(2) 0.37251(12)
C1 C -0.04696(19) 1.2646(2) 0.11197(15)
H6 H -0.0665 1.1951 0.1137
C2 C 0.01258(19) 1.3001(2) 0.16449(15)
H7 H 0.0329 1.2553 0.1999
C3 C 0.04159(17) 1.4048(2) 0.16325(14)
C4 C 0.00793(18) 1.4675(2) 0.10853(14)
H8 H 0.0249 1.5380 0.1060
C5 C -0.05048(18) 1.4242(2) 0.05847(14)
H9 H -0.0719 1.4670 0.0223
C6 C 0.24384(19) 1.4282(2) 0.37045(15)
H10 H 0.2648 1.4721 0.4061
C7 C 0.18840(19) 1.4709(2) 0.31851(15)
H11 H 0.1730 1.5423 0.3192
C8 C 0.15495(18) 1.4061(2) 0.26418(14)
C9 C 0.1835(2) 1.3016(3) 0.26511(15)
H12 H 0.1649 1.2563 0.2296
C10 C 0.2398(2) 1.2661(2) 0.31931(15)
H13 H 0.2584 1.1960 0.3190
C11 C 0.09865(18) 1.1726(2) -0.06655(15)
C12 C 0.13207(17) 1.0701(2) -0.05518(14)
H14 H 0.0997 1.0160 -0.0414
C13 C 0.21408(17) 1.0493(2) -0.06458(14)
C14 C 0.2637(2) 1.1315(3) -0.08253(18)
H15 H 0.3187 1.1177 -0.0882
C15 C 0.2311(2) 1.2338(3) -0.0919(2)
H16 H 0.2646 1.2889 -0.1031
C16 C 0.1483(2) 1.2540(3) -0.0847(2)
H17 H 0.1262 1.3223 -0.0920
C17 C 0.00909(17) 1.1946(2) -0.05921(14)
C18 C 0.24973(16) 0.9381(2) -0.05573(13)
Cd1B Cd 0.349610(11) 0.749305(16) -0.037005(9)
Cd1D Cd 0.150390(11) 0.750695(16) 0.037005(9)
Cd1G Cd 0.349610(11) 1.250695(16) 0.462995(9)
O5B O -0.18226(12) 1.42021(16) -0.07587(10)
O9D O -0.21146(13) 1.13159(16) 0.02839(10)
N3G N -0.23044(15) 1.1741(2) -0.12749(12)
O2 O 0.07217(18) 0.6810(2) 0.21994(13)
H1 H 0.060(3) 0.694(4) 0.1794(10)
H2 H 0.037(2) 0.684(4) 0.2436(17)
O4 O 0.0767(2) 1.0619(3) 0.09972(18)
H3 H 0.068(3) 0.9945(19) 0.084(2)
H4 H 0.042(3) 1.103(3) 0.070(2)
O6 O 0.1268(4) 0.8857(5) 0.2680(3)
O8 O -0.1001(8) 0.9501(11) -0.2354(6)
O7? O -0.0331(6) 0.9421(7) -0.2269(4)
loop_
_geom_bond_atom_site_label_1
_geom_bond_atom_site_label_2
_geom_bond_site_symmetry_1
_geom_bond_site_symmetry_2
Cd1 O1 1_555 1_555
O1 C17 1_555 1_555
O2 H1 1_555 1_555
H2 O2 1_555 1_555
O3 Cd1 1_555 1_555
O4 H3 1_555 1_555
H4 O4 1_555 1_555
O5 C18 1_555 1_555
O9 C18 1_555 1_555
N1 Cd1 1_555 1_555
N2 H5 1_555 1_555
N3 C6 1_555 1_555
C1 N1 1_555 1_555
H6 C1 1_555 1_555
C2 C1 1_555 1_555
H7 C2 1_555 1_555
C3 N2 1_555 1_555
C4 C3 1_555 1_555
H8 C4 1_555 1_555
C5 N1 1_555 1_555
H9 C5 1_555 1_555
C6 H10 1_555 1_555
C7 C6 1_555 1_555
H11 C7 1_555 1_555
C8 N2 1_555 1_555
C9 C8 1_555 1_555
H12 C9 1_555 1_555
C10 N3 1_555 1_555
H13 C10 1_555 1_555
C11 C12 1_555 1_555
C12 H14 1_555 1_555
C13 C12 1_555 1_555
C14 C13 1_555 1_555
H15 C14 1_555 1_555
C15 C14 1_555 1_555
H16 C15 1_555 1_555
C16 C11 1_555 1_555
H17 C16 1_555 1_555
C17 O3 1_555 1_555
C18 C13 1_555 1_555
Cd1B O5 1_555 1_555
Cd1D O9 1_555 1_555
Cd1G N3 1_555 1_555
O5B Cd1 1_555 1_555
O9D Cd1 1_555 1_555
N3G Cd1 1_555 1_555
C2 C3 1_555 1_555
C4 C5 1_555 1_555
C7 C8 1_555 1_555
C9 C10 1_555 1_555
C11 C17 1_555 1_555
C15 C16 1_555 1_555

#END
