
#######################################################################
#
#                 Cambridge Crystallographic Data Centre
#                                CCDC 
#
#######################################################################
#
# If this CIF has been generated from an entry in the Cambridge 
# Structural Database, then it will include bibliographic, chemical, 
# crystal, experimental, refinement or atomic coordinate data resulting 
# from the CCDC's data processing and validation procedures.
#
#######################################################################

data_XUCFOR
_symmetry_cell_setting           monoclinic
_symmetry_space_group_name_H-M   'P 21'
_symmetry_Int_Tables_number      4
_space_group_name_Hall           'P 2yb'
loop_
_symmetry_equiv_pos_site_id
_symmetry_equiv_pos_as_xyz
1 x,y,z
2 -x,1/2+y,-z
_cell_length_a                   9.345(4)
_cell_length_b                   6.829(3)
_cell_length_c                   18.234(9)
_cell_angle_alpha                90
_cell_angle_beta                 92.25(2)
_cell_angle_gamma                90
_cell_volume                     1162.74
loop_
_atom_site_label
_atom_site_type_symbol
_atom_site_fract_x
_atom_site_fract_y
_atom_site_fract_z
Cd1 Cd 0.62864(5) 0.12719(14) 0.08785(2)
N1 N 0.8282(6) 0.120(2) 0.1659(3)
N2 N 0.8379(6) 0.126(2) 0.0195(3)
O1 O 0.6204(16) 0.4474(17) 0.1079(9)
O2 O 0.6467(12) 0.781(2) 0.1057(8)
O3 O 0.5249(7) 0.5646(11) 0.0065(3)
O4 O 0.4441(7) 0.2086(10) 0.1624(4)
C1 C 0.8237(9) 0.131(3) 0.2392(4)
H1 H 0.7348 0.1358 0.2603
C2 C 0.9439(10) 0.136(3) 0.2843(5)
H2 H 0.9367 0.1503 0.3348
C3 C 1.0762(8) 0.120(3) 0.2539(5)
H3 H 1.1588 0.1083 0.2837
C4 C 1.0840(8) 0.123(4) 0.1787(4)
H4 H 1.1720 0.1138 0.1569
C5 C 0.9566(7) 0.138(2) 0.1355(4)
C6 C 0.9622(7) 0.121(3) 0.0547(4)
C7 C 1.1004(9) 0.116(3) 0.0173(5)
H5 H 1.0871 0.1671 -0.0315
H6 H 1.1336 -0.0173 0.0148
H7 H 1.1699 0.1932 0.0444
O5 O 0.8461(6) 0.120(2) -0.0564(3)
H8 H 0.7652 0.1269 -0.0754
S1 S 0.55150(17) 0.6278(9) 0.08371(9)
O6 O 0.4147(6) 0.634(2) 0.1191(3)
Cd1_2 Cd 0.62864(5) 1.12719(14) 0.08785(2)
Cd1A Cd 0.37136(5) 0.62719(14) -0.08785(2)
O2_2 O 0.6467(12) -0.219(2) 0.1057(8)
O3A O 0.4751(7) 0.0646(11) -0.0065(3)
Cd2 Cd 0.32899(5) 0.62758(16) 0.36791(2)
N3 N 0.1020(6) 0.629(2) 0.3156(3)
N4 N 0.1597(6) 0.636(2) 0.4614(3)
O7 O 0.3497(10) 0.2824(14) 0.3959(6)
O8 O 0.3398(10) -0.0483(12) 0.3584(7)
O9 O 0.5383(5) 0.631(2) 0.4316(3)
O10 O 0.4386(10) 0.5356(13) 0.2636(4)
C8 C 0.0726(9) 0.622(3) 0.2434(4)
H9 H 0.1488 0.6153 0.2121
C9 C -0.0636(9) 0.624(3) 0.2128(4)
H10 H -0.0803 0.6248 0.1622
C10 C -0.1745(10) 0.626(3) 0.2602(5)
H11 H -0.2687 0.6292 0.2418
C11 C -0.1468(8) 0.621(3) 0.3335(5)
H12 H -0.2228 0.6216 0.3649
C12 C -0.0067(8) 0.617(3) 0.3631(4)
C13 C 0.0264(6) 0.626(2) 0.4428(3)
C14 C -0.0909(8) 0.623(3) 0.4949(4)
H13 H -0.0549 0.6657 0.5424
H14 H -0.1281 0.4928 0.4985
H15 H -0.1658 0.7101 0.4778
O11 O 0.1832(6) 0.616(2) 0.5375(3)
H16 H 0.2614 0.5653 0.5461
S2 S 0.43356(17) 0.1267(8) 0.37098(9)
O12 O 0.5095(7) 0.135(3) 0.3055(3)
O13 O 0.5379(7) 0.0534(9) 0.4302(4)
Cd2_2 Cd 0.32899(5) -0.37242(16) 0.36791(2)
O8_2 O 0.3398(10) 0.9517(12) 0.3584(7)
loop_
_geom_bond_atom_site_label_1
_geom_bond_atom_site_label_2
_geom_bond_site_symmetry_1
_geom_bond_site_symmetry_2
Cd1 N1 1_555 1_555
N1 C1 1_555 1_555
N2 Cd1 1_555 1_555
O1 Cd1 1_555 1_555
O2 S1 1_555 1_555
O3 S1 1_555 1_555
O4 Cd1 1_555 1_555
C1 H1 1_555 1_555
C2 C1 1_555 1_555
H2 C2 1_555 1_555
C3 C2 1_555 1_555
H3 C3 1_555 1_555
C4 C3 1_555 1_555
H4 C4 1_555 1_555
C5 N1 1_555 1_555
C6 N2 1_555 1_555
C7 C6 1_555 1_555
H5 C7 1_555 1_555
H6 C7 1_555 1_555
H7 C7 1_555 1_555
O5 N2 1_555 1_555
H8 O5 1_555 1_555
S1 O1 1_555 1_555
O6 S1 1_555 1_555
Cd2 N3 1_555 1_555
N3 C8 1_555 1_555
N4 Cd2 1_555 1_555
O7 Cd2 1_555 1_555
O8 S2 1_555 1_555
O9 Cd2 1_555 1_555
O10 Cd2 1_555 1_555
C8 H9 1_555 1_555
C9 C8 1_555 1_555
H10 C9 1_555 1_555
C10 C9 1_555 1_555
H11 C10 1_555 1_555
C11 C10 1_555 1_555
H12 C11 1_555 1_555
C12 N3 1_555 1_555
C13 N4 1_555 1_555
C14 C13 1_555 1_555
H13 C14 1_555 1_555
H14 C14 1_555 1_555
H15 C14 1_555 1_555
O11 N4 1_555 1_555
H16 O11 1_555 1_555
S2 O7 1_555 1_555
O12 S2 1_555 1_555
O13 S2 1_555 1_555
Cd1_2 O2 1_555 1_555
Cd1A O3 1_555 1_555
O2_2 Cd1 1_555 1_555
O3A Cd1 1_555 1_555
Cd2_2 O8 1_555 1_555
O8_2 Cd2 1_555 1_555
C4 C5 1_555 1_555
C5 C6 1_555 1_555
C11 C12 1_555 1_555
C12 C13 1_555 1_555

#END
