
#######################################################################
#
#                 Cambridge Crystallographic Data Centre
#                                CCDC 
#
#######################################################################
#
# If this CIF has been generated from an entry in the Cambridge 
# Structural Database, then it will include bibliographic, chemical, 
# crystal, experimental, refinement or atomic coordinate data resulting 
# from the CCDC's data processing and validation procedures.
#
#######################################################################

data_XUCFOQ
_symmetry_cell_setting           triclinic
_symmetry_space_group_name_H-M   'P 1'
_symmetry_Int_Tables_number      1
_space_group_name_Hall           'P 1'
loop_
_symmetry_equiv_pos_site_id
_symmetry_equiv_pos_as_xyz
1 x,y,z
_cell_length_a                   7.9105(5)
_cell_length_b                   9.3453(6)
_cell_length_c                   13.0005(9)
_cell_angle_alpha                75.3380(10)
_cell_angle_beta                 75.0460(10)
_cell_angle_gamma                79.0050(10)
_cell_volume                     890.167
loop_
_atom_site_label
_atom_site_type_symbol
_atom_site_fract_x
_atom_site_fract_y
_atom_site_fract_z
Tb1 Tb 0.29071(3) 0.32640(3) 0.58175(2)
Tb2 Tb -0.80882(3) 1.22164(3) 1.16776(2)
Zn1 Zn 0.2409(6) 0.7742(6) 0.8738(5)
O1 O 0.0743(13) 0.3161(16) 0.4861(11)
H1 H 0.1105 0.2511 0.4505
O2 O 0.604(2) 0.2546(17) 0.5835(13)
H2 H 0.6456 0.1892 0.5488
O3 O 0.3530(18) 0.3740(13) 0.7400(12)
H3 H 0.2801 0.3411 0.7943
O4 O 0.0957(15) 0.1758(15) 0.7359(11)
H4 H 0.1388 0.0877 0.7444
O5 O -0.587(2) 1.2285(18) 1.2518(14)
H5 H -0.6309 1.2485 1.3118
O6 O -1.116(2) 1.2901(19) 1.1702(14)
H6 H -1.1380 1.2691 1.1178
O7 O -0.8742(19) 1.1841(15) 1.0062(10)
H7 H -0.8330 1.0993 0.9980
O8 O -0.6024(18) 1.3512(12) 1.0205(11)
H8 H -0.5881 1.4273 1.0358
O9 O 0.433(2) 0.3795(17) 0.4064(12)
O10 O 0.635(3) 0.5037(18) 0.2735(14)
O11 O 0.357(2) 1.0722(14) 0.5682(12)
O12 O 0.2081(16) 0.9071(14) 0.6979(11)
O13 O -0.7004(17) 0.9579(16) 0.9019(11)
O14 O -0.477(2) 1.1087(18) 0.8370(14)
O15 O 0.0444(19) 0.5039(15) 0.6361(13)
O16 O -0.2018(11) 0.4630(11) 0.5985(8)
O17 O 0.169(2) 0.5797(16) 0.8591(13)
O18 O -0.0374(19) 0.4412(17) 0.9087(13)
O19 O -0.568(2) 1.0445(18) 1.1193(13)
O20 O -0.3208(10) 1.1466(10) 1.0854(9)
O21 O 0.047(2) 1.1543(17) 1.3604(11)
O22 O -0.161(2) 1.0412(18) 1.4840(14)
O23 O 0.119(2) 0.4661(15) 1.1852(13)
O24 O 0.265(2) 0.6315(13) 1.0549(10)
N1 N 0.3860(18) 0.5863(15) 0.5152(13)
N2 N -0.490(2) 0.749(2) 0.8061(14)
N3 N -0.022(2) 0.803(2) 0.9495(17)
N4 N 0.095(2) 0.9653(18) 1.2304(10)
C1 C 0.533(3) 0.497(2) 0.354(2)
C2 C 0.477(3) 0.615(2) 0.4178(17)
C3 C 0.532(3) 0.7618(18) 0.3675(18)
H9 H 0.5993 0.7843 0.2969
C4 C 0.474(4) 0.867(2) 0.434(2)
H10 H 0.5001 0.9644 0.4053
C5 C 0.377(3) 0.832(2) 0.5433(17)
C6 C 0.338(3) 0.695(2) 0.5761(14)
H11 H 0.2722 0.6680 0.6469
C7 C 0.311(2) 0.9464(19) 0.6083(16)
C8 C -0.534(2) 0.991(2) 0.8455(15)
C9 C -0.426(2) 0.868(2) 0.7948(16)
C10 C -0.252(3) 0.892(2) 0.7384(18)
H12 H -0.2072 0.9808 0.7297
C11 C -0.154(3) 0.770(2) 0.6970(16)
H13 H -0.0358 0.7748 0.6634
C12 C -0.220(2) 0.648(2) 0.7028(15)
C13 C -0.398(3) 0.633(2) 0.765(2)
H14 H -0.4472 0.5461 0.7759
C14 C -0.118(3) 0.516(3) 0.654(2)
C15 C 0.028(3) 0.557(2) 0.9017(16)
C16 C -0.107(3) 0.676(2) 0.9586(16)
C17 C -0.272(3) 0.666(2) 1.0159(18)
H15 H -0.3199 0.5795 1.0224
C18 C -0.376(3) 0.776(2) 1.0662(18)
H16 H -0.4900 0.7663 1.1078
C19 C -0.296(2) 0.907(2) 1.0492(17)
C20 C -0.124(3) 0.906(3) 0.999(2)
H17 H -0.0719 0.9870 1.0001
C21 C -0.399(2) 1.031(2) 1.1013(15)
C22 C -0.036(3) 1.055(3) 1.395(2)
C23 C -0.005(3) 0.924(2) 1.337(2)
C24 C -0.050(3) 0.792(3) 1.378(2)
H18 H -0.1192 0.7748 1.4487
C25 C -0.002(3) 0.676(2) 1.3254(18)
H19 H -0.0346 0.5814 1.3572
C26 C 0.098(3) 0.7100(18) 1.2234(17)
C27 C 0.141(2) 0.8585(16) 1.1754(13)
H20 H 0.2026 0.8797 1.1033
C28 C 0.168(2) 0.5940(17) 1.1473(15)
O11_2 O 0.357(2) 0.0722(14) 0.5682(12)
O21_2 O -0.953(2) 1.1543(17) 1.3604(11)
O23_2 O -0.881(2) 1.4661(15) 1.1852(13)
N4_2 N -0.905(2) 0.9653(18) 1.2304(10)
O13_2 O 0.2996(17) 0.9579(16) 0.9019(11)
N2_2 N 0.510(2) 0.749(2) 0.8061(14)
Tb1_2 Tb 0.29071(3) 1.32640(3) 0.58175(2)
Zn1_2 Zn -0.7591(6) 0.7742(6) 0.8738(5)
Tb2_2 Tb 0.19118(3) 1.22164(3) 1.16776(2)
Tb2_3 Tb 0.19118(3) 0.22164(3) 1.16776(2)
O25 O -0.2347(17) 0.2761(17) 0.8415(10)
loop_
_geom_bond_atom_site_label_1
_geom_bond_atom_site_label_2
_geom_bond_site_symmetry_1
_geom_bond_site_symmetry_2
Tb1 O1 1_555 1_555
Tb2 O5 1_555 1_555
Zn1 O12 1_555 1_555
O1 H1 1_555 1_555
O2 Tb1 1_555 1_555
H2 O2 1_555 1_555
O3 Tb1 1_555 1_555
H3 O3 1_555 1_555
O4 Tb1 1_555 1_555
H4 O4 1_555 1_555
O5 H5 1_555 1_555
O6 Tb2 1_555 1_555
H6 O6 1_555 1_555
O7 Tb2 1_555 1_555
H7 O7 1_555 1_555
O8 Tb2 1_555 1_555
H8 O8 1_555 1_555
O9 Tb1 1_555 1_555
O10 C1 1_555 1_555
O11 C7 1_555 1_555
O12 C7 1_555 1_555
O13 C8 1_555 1_555
O14 C8 1_555 1_555
O15 Tb1 1_555 1_555
O16 C14 1_555 1_555
O17 Zn1 1_555 1_555
O18 C15 1_555 1_555
O19 Tb2 1_555 1_555
O20 C21 1_555 1_555
O21 C22 1_555 1_555
O22 C22 1_555 1_555
O23 C28 1_555 1_555
O24 Zn1 1_555 1_555
N1 Tb1 1_555 1_555
N2 C9 1_555 1_555
N3 Zn1 1_555 1_555
N4 C23 1_555 1_555
C1 O9 1_555 1_555
C2 N1 1_555 1_555
C3 C2 1_555 1_555
H9 C3 1_555 1_555
C4 C3 1_555 1_555
H10 C4 1_555 1_555
C5 C4 1_555 1_555
C6 N1 1_555 1_555
H11 C6 1_555 1_555
C7 C5 1_555 1_555
C8 C9 1_555 1_555
C9 C10 1_555 1_555
C10 H12 1_555 1_555
C11 C10 1_555 1_555
H13 C11 1_555 1_555
C12 C11 1_555 1_555
C13 N2 1_555 1_555
H14 C13 1_555 1_555
C14 O15 1_555 1_555
C15 O17 1_555 1_555
C16 N3 1_555 1_555
C17 C16 1_555 1_555
H15 C17 1_555 1_555
C18 C17 1_555 1_555
H16 C18 1_555 1_555
C19 C18 1_555 1_555
C20 N3 1_555 1_555
H17 C20 1_555 1_555
C21 O19 1_555 1_555
C22 C23 1_555 1_555
C23 C24 1_555 1_555
C24 H18 1_555 1_555
C25 C24 1_555 1_555
H19 C25 1_555 1_555
C26 C25 1_555 1_555
C27 N4 1_555 1_555
H20 C27 1_555 1_555
C28 O24 1_555 1_555
O11_2 Tb1 1_555 1_555
O21_2 Tb2 1_555 1_555
O23_2 Tb2 1_555 1_555
N4_2 Tb2 1_555 1_555
O13_2 Zn1 1_555 1_555
N2_2 Zn1 1_555 1_555
Tb1_2 O11 1_555 1_555
Zn1_2 O13 1_555 1_555
Tb2_2 O21 1_555 1_555
Tb2_3 O23 1_555 1_555
N2 Zn1_2 1_555 1_555
N4 Tb2_2 1_555 1_555
C1 C2 1_555 1_555
C5 C6 1_555 1_555
C12 C13 1_555 1_555
C12 C14 1_555 1_555
C15 C16 1_555 1_555
C19 C20 1_555 1_555
C19 C21 1_555 1_555
C26 C27 1_555 1_555
C26 C28 1_555 1_555

#END
