
#######################################################################
#
#                 Cambridge Crystallographic Data Centre
#                                CCDC 
#
#######################################################################
#
# If this CIF has been generated from an entry in the Cambridge 
# Structural Database, then it will include bibliographic, chemical, 
# crystal, experimental, refinement or atomic coordinate data resulting 
# from the CCDC's data processing and validation procedures.
#
#######################################################################

data_XUCGOS
_symmetry_cell_setting           monoclinic
_symmetry_space_group_name_H-M   'P 21/c'
_symmetry_Int_Tables_number      14
_space_group_name_Hall           '-P 2ybc'
loop_
_symmetry_equiv_pos_site_id
_symmetry_equiv_pos_as_xyz
1 x,y,z
2 -x,1/2+y,1/2-z
3 -x,-y,-z
4 x,1/2-y,1/2+z
_cell_length_a                   9.7355(8)
_cell_length_b                   9.2386(7)
_cell_length_c                   15.7272(13)
_cell_angle_alpha                90
_cell_angle_beta                 97.802(2)
_cell_angle_gamma                90
_cell_volume                     1401.45
loop_
_atom_site_label
_atom_site_type_symbol
_atom_site_fract_x
_atom_site_fract_y
_atom_site_fract_z
Cu1 Cu 0.22511(5) 0.45785(5) 0.40848(3)
Cu2 Cu 0.54997(5) 0.41123(5) 0.42467(3)
O1 O 0.3716(3) 0.4324(3) 0.50299(18)
H1 H 0.356(5) 0.370(5) 0.529(3)
N1 N 0.1968(3) 0.6517(4) 0.45443(19)
N2 N 0.2920(3) 0.7090(4) 0.5177(2)
N3 N 0.1384(3) 0.8733(3) 0.47682(19)
C1 C 0.1056(4) 0.7522(4) 0.4310(2)
H2 H 0.0284 0.7416 0.3885
C2 C 0.2537(4) 0.8414(4) 0.5307(2)
H3 H 0.2997 0.9050 0.5716
C3 C 0.0595(4) 1.0083(4) 0.4737(3)
H4 H 0.0231 1.0314 0.4141
H5 H 0.1201 1.0877 0.4968
O2 O 0.2556(3) 0.2722(3) 0.35961(18)
O3 O 0.4837(3) 0.2310(3) 0.36973(17)
O4 O -0.0620(3) -0.0231(3) 0.17667(17)
O5 O 0.0255(3) -0.2041(3) 0.10684(17)
O6 O 0.4285(3) -0.4526(3) 0.34517(16)
O7 O 0.6018(3) -0.2945(3) 0.34695(17)
C4 C 0.3585(4) 0.1953(4) 0.3521(2)
C5 C 0.3241(4) 0.0471(4) 0.3174(2)
C6 C 0.1976(4) 0.0268(4) 0.2668(2)
H6 H 0.1347 0.1042 0.2576
C7 C 0.1630(4) -0.1069(4) 0.2297(2)
C8 C 0.0334(4) -0.1167(4) 0.1658(2)
C9 C 0.2517(4) -0.2251(4) 0.2498(2)
H7 H 0.2272 -0.3169 0.2268
C10 C 0.3765(4) -0.2066(4) 0.3039(2)
C11 C 0.4769(4) -0.3263(4) 0.3324(2)
C12 C 0.4138(4) -0.0681(4) 0.3342(2)
H8 H 0.5013 -0.0532 0.3664
Cu1B Cu -0.22511(5) 1.54215(5) 0.59152(3)
Cu1A Cu -0.22511(5) -0.04215(5) 0.09152(3)
Cu1_2 Cu 0.22511(5) -0.54215(5) 0.40848(3)
Cu1A_2 Cu -0.22511(5) 0.95785(5) 0.09152(3)
Cu1B_2 Cu 0.77489(5) 0.54215(5) 0.59152(3)
Cu2B Cu 0.45003(5) 0.58877(5) 0.57533(3)
Cu2_2 Cu 0.54997(5) -0.58877(5) 0.42467(3)
Cu2_3 Cu -0.45003(5) 1.41123(5) 0.42467(3)
Cu2A Cu -0.54997(5) 0.91123(5) 0.07533(3)
Cu2A_2 Cu -0.54997(5) -0.08877(5) 0.07533(3)
O1B O 0.6284(3) 0.5676(3) 0.49701(18)
O1B_2 O -0.3716(3) 1.5676(3) 0.49701(18)
H1B H 0.644(5) 0.630(5) 0.471(3)
H1B_2 H -0.356(5) 1.630(5) 0.471(3)
N1B N -0.1968(3) 1.3483(4) 0.54557(19)
N2B N -0.2920(3) 1.2910(4) 0.4823(2)
N2B_2 N 0.7080(3) 0.2910(4) 0.4823(2)
N3B N -0.1384(3) 1.1267(3) 0.52318(19)
C1B C -0.1056(4) 1.2478(4) 0.5690(2)
H2B H -0.0284 1.2584 0.6115
C2B C -0.2537(4) 1.1586(4) 0.4693(2)
H3B H -0.2997 1.0950 0.4284
C3B C -0.0595(4) 0.9917(4) 0.5263(3)
H4B H -0.0231 0.9686 0.5859
H5B H -0.1201 0.9123 0.5032
O2A O -0.2556(3) 0.7722(3) 0.14039(18)
O2B O -0.2556(3) 1.7278(3) 0.64039(18)
O3A O -0.4837(3) 0.7310(3) 0.13027(17)
O3B O 0.5163(3) 0.7690(3) 0.63027(17)
O4A O 0.0620(3) 0.4769(3) 0.32333(17)
O4C O -0.0620(3) 1.5231(3) 0.67667(17)
O5A O -0.0255(3) 0.2959(3) 0.39316(17)
O6A O -0.4285(3) 0.0474(3) 0.15483(16)
O6_2 O 0.4285(3) 0.5474(3) 0.34517(16)
O6B O -0.4285(3) 1.4526(3) 0.65483(16)
O6B_2 O 0.5715(3) 0.4526(3) 0.65483(16)
O7A O -0.6018(3) 0.2055(3) 0.15305(17)
C4A C -0.3585(4) 0.6953(4) 0.1479(2)
C5A C -0.3241(4) 0.5471(4) 0.1826(2)
C6A C -0.1976(4) 0.5268(4) 0.2332(2)
H6A H -0.1347 0.6042 0.2424
C7A C -0.1630(4) 0.3931(4) 0.2703(2)
C8A C -0.0334(4) 0.3833(4) 0.3342(2)
C9A C -0.2517(4) 0.2749(4) 0.2502(2)
H7A H -0.2272 0.1831 0.2732
C10A C -0.3765(4) 0.2934(4) 0.1961(2)
C11A C -0.4769(4) 0.1737(4) 0.1676(2)
C12A C -0.4138(4) 0.4319(4) 0.1658(2)
H8A H -0.5013 0.4468 0.1336
O8 O -0.1822(4) -0.1019(4) 0.3349(2)
H9 H -0.246(6) -0.155(6) 0.333(3)
H10 H -0.163(6) -0.079(6) 0.292(3)
loop_
_geom_bond_atom_site_label_1
_geom_bond_atom_site_label_2
_geom_bond_site_symmetry_1
_geom_bond_site_symmetry_2
Cu1 O1 1_555 1_555
Cu2 O1 1_555 1_555
O1 H1 1_555 1_555
N1 Cu1 1_555 1_555
N2 N1 1_555 1_555
N3 C1 1_555 1_555
C1 N1 1_555 1_555
H2 C1 1_555 1_555
C2 N2 1_555 1_555
H3 C2 1_555 1_555
C3 N3 1_555 1_555
H4 C3 1_555 1_555
H5 C3 1_555 1_555
O2 Cu1 1_555 1_555
O3 Cu2 1_555 1_555
O4 C8 1_555 1_555
O5 C8 1_555 1_555
O6 C11 1_555 1_555
O7 C11 1_555 1_555
C4 O2 1_555 1_555
C5 C4 1_555 1_555
C6 C5 1_555 1_555
H6 C6 1_555 1_555
C7 C6 1_555 1_555
C8 C7 1_555 1_555
C9 C7 1_555 1_555
H7 C9 1_555 1_555
C10 C9 1_555 1_555
C11 C10 1_555 1_555
C12 C5 1_555 1_555
H8 C12 1_555 1_555
O8 H9 1_555 1_555
H10 O8 1_555 1_555
Cu1B O1B_2 1_555 1_555
Cu1A O4 1_555 1_555
Cu1_2 O6 1_555 1_555
Cu1A_2 O2A 1_555 1_555
Cu1B_2 O1B 1_555 1_555
Cu2B O1 1_555 1_555
Cu2_2 O6 1_555 1_555
Cu2_3 O1B_2 1_555 1_555
Cu2A O3A 1_555 1_555
Cu2A_2 O6A 1_555 1_555
O1B Cu2 1_555 1_555
O1B_2 H1B_2 1_555 1_555
H1B O1B 1_555 1_555
N1B Cu1B 1_555 1_555
N2B Cu2_3 1_555 1_555
N2B_2 Cu2 1_555 1_555
N3B C1B 1_555 1_555
C1B N1B 1_555 1_555
H2B C1B 1_555 1_555
C2B N2B 1_555 1_555
H3B C2B 1_555 1_555
C3B C3 1_555 1_555
H4B C3B 1_555 1_555
H5B C3B 1_555 1_555
O2A C4A 1_555 1_555
O2B Cu1B 1_555 1_555
O3A C4A 1_555 1_555
O3B Cu2B 1_555 1_555
O4A Cu1 1_555 1_555
O4C Cu1B 1_555 1_555
O5A C8A 1_555 1_555
O6A Cu1A 1_555 1_555
O6_2 Cu1 1_555 1_555
O6B Cu1B 1_555 1_555
O6B_2 Cu1B_2 1_555 1_555
O7A C11A 1_555 1_555
C4A C5A 1_555 1_555
C5A C6A 1_555 1_555
C6A H6A 1_555 1_555
C7A C6A 1_555 1_555
C8A O4A 1_555 1_555
C9A C7A 1_555 1_555
H7A C9A 1_555 1_555
C10A C9A 1_555 1_555
C11A O6A 1_555 1_555
C12A C5A 1_555 1_555
H8A C12A 1_555 1_555
Cu2 O6_2 1_555 1_555
N2 Cu2B 1_555 1_555
N3 C2 1_555 1_555
O3 C4 1_555 1_555
C10 C12 1_555 1_555
Cu2B O1B 1_555 1_555
Cu2B O6B_2 1_555 1_555
N1B N2B 1_555 1_555
N3B C2B 1_555 1_555
N3B C3B 1_555 1_555
C7A C8A 1_555 1_555
C10A C11A 1_555 1_555
C10A C12A 1_555 1_555

#END
