
#######################################################################
#
#                 Cambridge Crystallographic Data Centre
#                                CCDC 
#
#######################################################################
#
# If this CIF has been generated from an entry in the Cambridge 
# Structural Database, then it will include bibliographic, chemical, 
# crystal, experimental, refinement or atomic coordinate data resulting 
# from the CCDC's data processing and validation procedures.
#
#######################################################################

data_XUCGIM
_symmetry_cell_setting           triclinic
_symmetry_space_group_name_H-M   'P -1'
_symmetry_Int_Tables_number      2
_space_group_name_Hall           '-P 1'
loop_
_symmetry_equiv_pos_site_id
_symmetry_equiv_pos_as_xyz
1 x,y,z
2 -x,-y,-z
_cell_length_a                   7.0888(8)
_cell_length_b                   8.0590(9)
_cell_length_c                   12.0399(13)
_cell_angle_alpha                106.303(2)
_cell_angle_beta                 97.692(2)
_cell_angle_gamma                97.118(2)
_cell_volume                     644.728
loop_
_atom_site_label
_atom_site_type_symbol
_atom_site_fract_x
_atom_site_fract_y
_atom_site_fract_z
Cu1 Cu 0.0000 0.0000 0.0000
O1 O 0.0985(4) 0.2112(4) 0.1348(2)
O2 O -0.0156(4) 0.0126(4) 0.2141(2)
C1 C 0.0718(6) 0.1624(5) 0.2235(4)
C2 C 0.1453(6) 0.2942(5) 0.3425(4)
C3 C 0.1178(6) 0.2496(6) 0.4432(4)
H1 H 0.0552 0.1364 0.4362
C4 C 0.1809(6) 0.3694(5) 0.5535(4)
C5 C 0.1532(7) 0.3178(6) 0.6609(4)
O3 O 0.0499(6) 0.1615(4) 0.6355(3)
H2 H 0.037(8) 0.118(7) 0.701(5)
O4 O 0.2172(5) 0.4095(4) 0.7606(3)
C6 C 0.2671(6) 0.5384(6) 0.5652(4)
H3 H 0.3088 0.6204 0.6401
C7 C 0.2913(6) 0.5858(6) 0.4646(4)
C8 C 0.3804(6) 0.7692(6) 0.4791(4)
C9 C 0.2322(6) 0.4641(5) 0.3546(4)
H4 H 0.2511 0.4967 0.2873
O5 O 0.4231(5) 0.8013(4) 0.3860(3)
H5 H 0.490(7) 0.918(5) 0.399(4)
O6 O 0.4106(5) 0.8803(4) 0.5777(3)
N1 N -0.2387(5) 0.0980(4) -0.0294(3)
N2 N -0.3890(6) 0.0160(5) -0.1227(3)
C10 C -0.5119(7) 0.1232(6) -0.1159(4)
H6 H -0.6292 0.1014 -0.1684
N3 N -0.4501(5) 0.2714(5) -0.0233(3)
C11 C -0.2788(7) 0.2495(6) 0.0282(4)
H7 H -0.1998 0.3305 0.0952
C12 C -0.5493(7) 0.4215(5) 0.0149(4)
H8 H -0.5462 0.4518 0.1000
H9 H -0.6847 0.3906 -0.0244
Cu1_2 Cu -1.0000 1.0000 0.0000
O1A O -0.0985(4) -0.2112(4) -0.1348(2)
O2A O 0.0156(4) -0.0126(4) -0.2141(2)
C1A C -0.0718(6) -0.1624(5) -0.2235(4)
C2A C -0.1453(6) -0.2942(5) -0.3425(4)
C3A C -0.1178(6) -0.2496(6) -0.4432(4)
H1A H -0.0552 -0.1364 -0.4362
C4A C -0.1809(6) -0.3694(5) -0.5535(4)
C5A C -0.1532(7) -0.3178(6) -0.6609(4)
O3A O -0.0499(6) -0.1615(4) -0.6355(3)
H2A H -0.037(8) -0.118(7) -0.701(5)
O4A O -0.2172(5) -0.4095(4) -0.7606(3)
C6A C -0.2671(6) -0.5384(6) -0.5652(4)
H3A H -0.3088 -0.6204 -0.6401
C7A C -0.2913(6) -0.5858(6) -0.4646(4)
C8A C -0.3804(6) -0.7692(6) -0.4791(4)
C9A C -0.2322(6) -0.4641(5) -0.3546(4)
H4A H -0.2511 -0.4967 -0.2873
O5A O -0.4231(5) -0.8013(4) -0.3860(3)
H5A H -0.490(7) -0.918(5) -0.399(4)
O6A O -0.4106(5) -0.8803(4) -0.5777(3)
N1A N -0.7613(5) 0.9020(4) 0.0294(3)
N1A_2 N 0.2387(5) -0.0980(4) 0.0294(3)
N2A N -0.6110(6) 0.9840(5) 0.1227(3)
C10A C -0.4881(7) 0.8768(6) 0.1159(4)
H6A H -0.3708 0.8986 0.1684
N3A N -0.5499(5) 0.7286(5) 0.0233(3)
C11A C -0.7212(7) 0.7505(6) -0.0282(4)
H7A H -0.8002 0.6695 -0.0952
C12A C -0.4507(7) 0.5785(5) -0.0149(4)
H8A H -0.4538 0.5482 -0.1000
H9A H -0.3153 0.6094 0.0244
loop_
_geom_bond_atom_site_label_1
_geom_bond_atom_site_label_2
_geom_bond_site_symmetry_1
_geom_bond_site_symmetry_2
Cu1 O1 1_555 1_555
O1 C1 1_555 1_555
O2 Cu1 1_555 1_555
C1 O2 1_555 1_555
C2 C1 1_555 1_555
C3 C2 1_555 1_555
H1 C3 1_555 1_555
C4 C3 1_555 1_555
C5 C4 1_555 1_555
O3 C5 1_555 1_555
H2 O3 1_555 1_555
O4 C5 1_555 1_555
C6 C4 1_555 1_555
H3 C6 1_555 1_555
C7 C6 1_555 1_555
C8 C7 1_555 1_555
C9 C2 1_555 1_555
H4 C9 1_555 1_555
O5 C8 1_555 1_555
H5 O5 1_555 1_555
O6 C8 1_555 1_555
N1 Cu1 1_555 1_555
N2 N1 1_555 1_555
C10 N2 1_555 1_555
H6 C10 1_555 1_555
N3 C10 1_555 1_555
C11 N1 1_555 1_555
H7 C11 1_555 1_555
C12 N3 1_555 1_555
H8 C12 1_555 1_555
H9 C12 1_555 1_555
Cu1_2 N1A 1_555 1_555
O1A Cu1 1_555 1_555
O2A Cu1 1_555 1_555
C1A O1A 1_555 1_555
C2A C1A 1_555 1_555
C3A C2A 1_555 1_555
H1A C3A 1_555 1_555
C4A C3A 1_555 1_555
C5A C4A 1_555 1_555
O3A C5A 1_555 1_555
H2A O3A 1_555 1_555
O4A C5A 1_555 1_555
C6A C4A 1_555 1_555
H3A C6A 1_555 1_555
C7A C6A 1_555 1_555
C8A C7A 1_555 1_555
C9A C2A 1_555 1_555
H4A C9A 1_555 1_555
O5A C8A 1_555 1_555
H5A O5A 1_555 1_555
O6A C8A 1_555 1_555
N1A N2A 1_555 1_555
N1A_2 Cu1 1_555 1_555
N2A C10A 1_555 1_555
C10A H6A 1_555 1_555
N3A C10A 1_555 1_555
C11A N1A 1_555 1_555
H7A C11A 1_555 1_555
C12A C12 1_555 1_555
H8A C12A 1_555 1_555
H9A C12A 1_555 1_555
C7 C9 1_555 1_555
N3 C11 1_555 1_555
O2A C1A 1_555 1_555
C7A C9A 1_555 1_555
N3A C11A 1_555 1_555
N3A C12A 1_555 1_555

#END
