
#######################################################################
#
#                 Cambridge Crystallographic Data Centre
#                                CCDC 
#
#######################################################################
#
# If this CIF has been generated from an entry in the Cambridge 
# Structural Database, then it will include bibliographic, chemical, 
# crystal, experimental, refinement or atomic coordinate data resulting 
# from the CCDC's data processing and validation procedures.
#
#######################################################################

data_XUCHUZ
_symmetry_cell_setting           tetragonal
_symmetry_space_group_name_H-M   'P 4/n c c'
_symmetry_Int_Tables_number      130
_space_group_name_Hall           '-P 4a 2ac'
loop_
_symmetry_equiv_pos_site_id
_symmetry_equiv_pos_as_xyz
1 x,y,z
2 1/2-x,1/2-y,z
3 1/2-y,x,z
4 y,1/2-x,z
5 -x,1/2+y,1/2-z
6 1/2+x,-y,1/2-z
7 1/2+y,1/2+x,1/2-z
8 -y,-x,1/2-z
9 -x,-y,-z
10 1/2+x,1/2+y,-z
11 1/2+y,-x,-z
12 -y,1/2+x,-z
13 x,1/2-y,1/2+z
14 1/2-x,y,1/2+z
15 1/2-y,1/2-x,1/2+z
16 y,x,1/2+z
_cell_length_a                   14.751(2)
_cell_length_b                   14.751(2)
_cell_length_c                   17.063(3)
_cell_angle_alpha                90
_cell_angle_beta                 90
_cell_angle_gamma                90
_cell_volume                     3712.77
loop_
_atom_site_label
_atom_site_type_symbol
_atom_site_fract_x
_atom_site_fract_y
_atom_site_fract_z
Fe1 Fe 0.2500 0.2500 0.24287(6)
Mn1 Mn 0.04730(4) 0.54730(4) 0.2500
O1 O 0.09314(18) 0.62188(19) 0.16931(16)
N1 N -0.0383(2) 0.4885(2) 0.1760(2)
C1 C -0.0236(3) 0.5979(3) 0.0722(2)
C2 C 0.0537(3) 0.6435(3) 0.1019(2)
C3 C 0.0913(3) 0.7133(3) 0.0561(2)
H1 H 0.1438 0.7442 0.0741
C4 C 0.0529(3) 0.7376(3) -0.0148(3)
H2 H 0.0804 0.7841 -0.0452
C5 C -0.0245(3) 0.6959(3) -0.0424(3)
H3 H -0.0514 0.7151 -0.0902
C6 C -0.0619(3) 0.6264(3) 0.0001(3)
H4 H -0.1145 0.5967 -0.0192
C7 C -0.0623(3) 0.5201(3) 0.1088(2)
H5 H -0.1092 0.4893 0.0815
C8 C -0.0796(4) 0.4043(3) 0.2065(3)
H6 H -0.0383 0.3522 0.1986
H7 H -0.1375 0.3916 0.1794
N2 N 0.1508(2) 0.4331(2) 0.2277(2)
C9 C 0.1884(3) 0.3655(3) 0.2328(2)
C10 C 0.2500 0.2500 0.1299(5)
N3 N 0.2500 0.2500 0.0638(4)
N4 N 0.2500 0.2500 0.3402(4)
O2 O 0.2500 0.2500 0.4051(6)
Mn1A Mn 0.45270(4) -0.04730(4) 0.2500
Mn1B Mn -0.04730(4) 0.04730(4) 0.2500
Mn1C Mn 0.54730(4) 0.45270(4) 0.2500
O1F O 0.12188(19) 0.59314(18) 0.33069(16)
O1A O 0.40686(18) -0.12188(19) 0.16931(16)
O1G O 0.37812(19) -0.09314(18) 0.33069(16)
N1F N -0.0115(2) 0.4617(2) 0.3240(2)
N1A N 0.5383(2) 0.0115(2) 0.1760(2)
N1G N 0.5115(2) 0.0383(2) 0.3240(2)
C1F C 0.0979(3) 0.4764(3) 0.4278(2)
C1A C 0.5236(3) -0.0979(3) 0.0722(2)
C1G C 0.4021(3) 0.0236(3) 0.4278(2)
C2F C 0.1435(3) 0.5537(3) 0.3981(2)
C2A C 0.4463(3) -0.1435(3) 0.1019(2)
C2G C 0.3565(3) -0.0537(3) 0.3981(2)
C3F C 0.2133(3) 0.5913(3) 0.4439(2)
C3A C 0.4087(3) -0.2133(3) 0.0561(2)
C3G C 0.2867(3) -0.0913(3) 0.4439(2)
H1F H 0.2442 0.6438 0.4259
H1A H 0.3562 -0.2442 0.0741
H1G H 0.2558 -0.1438 0.4259
C4F C 0.2376(3) 0.5529(3) 0.5148(3)
C4A C 0.4471(3) -0.2376(3) -0.0148(3)
C4G C 0.2624(3) -0.0529(3) 0.5148(3)
H2F H 0.2841 0.5804 0.5452
H2A H 0.4196 -0.2841 -0.0452
H2G H 0.2159 -0.0804 0.5452
C5F C 0.1959(3) 0.4755(3) 0.5424(3)
C5A C 0.5245(3) -0.1959(3) -0.0424(3)
C5G C 0.3041(3) 0.0245(3) 0.5424(3)
H3F H 0.2151 0.4486 0.5902
H3A H 0.5514 -0.2151 -0.0902
H3G H 0.2849 0.0514 0.5902
C6F C 0.1264(3) 0.4381(3) 0.4999(3)
C6A C 0.5619(3) -0.1264(3) 0.0001(3)
C6G C 0.3736(3) 0.0619(3) 0.4999(3)
H4F H 0.0967 0.3855 0.5192
H4A H 0.6145 -0.0967 -0.0192
H4G H 0.4033 0.1145 0.5192
C7F C 0.0201(3) 0.4377(3) 0.3912(2)
C7A C 0.5623(3) -0.0201(3) 0.1088(2)
C7G C 0.4799(3) 0.0623(3) 0.3912(2)
H5F H -0.0107 0.3908 0.4185
H5A H 0.6092 0.0107 0.0815
H5G H 0.5107 0.1092 0.4185
C8F C -0.0957(3) 0.4204(4) 0.2935(3)
C8A C 0.5796(4) 0.0957(3) 0.2065(3)
C8G C 0.5957(3) 0.0796(4) 0.2935(3)
H6F H -0.1478 0.4617 0.3014
H6A H 0.5383 0.1478 0.1986
H6G H 0.6478 0.0383 0.3014
H7F H -0.1084 0.3625 0.3206
H7A H 0.6375 0.1084 0.1794
H7G H 0.6084 0.1375 0.3206
N2A N 0.3492(2) 0.0669(2) 0.2277(2)
N2B N 0.0669(2) 0.1508(2) 0.2277(2)
N2C N 0.4331(2) 0.3492(2) 0.2277(2)
N2F N -0.0669(2) 0.6508(2) 0.2723(2)
N2G N 0.5669(2) -0.1508(2) 0.2723(2)
C9A C 0.3116(3) 0.1345(3) 0.2328(2)
C9B C 0.1345(3) 0.1884(3) 0.2328(2)
C9C C 0.3655(3) 0.3116(3) 0.2328(2)
O3 O 0.2500 0.7500 0.2500
O4? O 0.2500 0.7500 0.1932(13)
loop_
_geom_bond_atom_site_label_1
_geom_bond_atom_site_label_2
_geom_bond_site_symmetry_1
_geom_bond_site_symmetry_2
Fe1 C9 1_555 1_555
Mn1 O1 1_555 1_555
O1 C2 1_555 1_555
N1 Mn1 1_555 1_555
C1 C2 1_555 1_555
C2 C3 1_555 1_555
C3 H1 1_555 1_555
C4 C3 1_555 1_555
H2 C4 1_555 1_555
C5 C4 1_555 1_555
H3 C5 1_555 1_555
C6 C1 1_555 1_555
H4 C6 1_555 1_555
C7 N1 1_555 1_555
H5 C7 1_555 1_555
C8 N1 1_555 1_555
H6 C8 1_555 1_555
H7 C8 1_555 1_555
N2 Mn1 1_555 1_555
C9 N2 1_555 1_555
C10 Fe1 1_555 1_555
N3 C10 1_555 1_555
N4 Fe1 1_555 1_555
O2 N4 1_555 1_555
Mn1A O1A 1_555 1_555
Mn1B N2B 1_555 1_555
Mn1C N2C 1_555 1_555
O1F Mn1 1_555 1_555
O1A C2A 1_555 1_555
O1G Mn1A 1_555 1_555
N1F Mn1 1_555 1_555
N1A Mn1A 1_555 1_555
N1G Mn1A 1_555 1_555
C1F C2F 1_555 1_555
C1A C2A 1_555 1_555
C1G C2G 1_555 1_555
C2F O1F 1_555 1_555
C2A C3A 1_555 1_555
C2G O1G 1_555 1_555
C3F C2F 1_555 1_555
C3A H1A 1_555 1_555
C3G C2G 1_555 1_555
H1F C3F 1_555 1_555
H1G C3G 1_555 1_555
C4F C3F 1_555 1_555
C4A C3A 1_555 1_555
C4G C3G 1_555 1_555
H2F C4F 1_555 1_555
H2A C4A 1_555 1_555
H2G C4G 1_555 1_555
C5F C4F 1_555 1_555
C5A C4A 1_555 1_555
C5G C4G 1_555 1_555
H3F C5F 1_555 1_555
H3A C5A 1_555 1_555
H3G C5G 1_555 1_555
C6F C1F 1_555 1_555
C6A C1A 1_555 1_555
C6G C1G 1_555 1_555
H4F C6F 1_555 1_555
H4A C6A 1_555 1_555
H4G C6G 1_555 1_555
C7F N1F 1_555 1_555
C7A N1A 1_555 1_555
C7G N1G 1_555 1_555
H5F C7F 1_555 1_555
H5A C7A 1_555 1_555
H5G C7G 1_555 1_555
C8F C8 1_555 1_555
C8A N1A 1_555 1_555
C8G N1G 1_555 1_555
H6F C8F 1_555 1_555
H6A C8A 1_555 1_555
H6G C8G 1_555 1_555
H7F C8F 1_555 1_555
H7A C8A 1_555 1_555
H7G C8G 1_555 1_555
N2A Mn1A 1_555 1_555
N2B C9B 1_555 1_555
N2C C9C 1_555 1_555
N2F Mn1 1_555 1_555
N2G Mn1A 1_555 1_555
C9A Fe1 1_555 1_555
C9B Fe1 1_555 1_555
C9C Fe1 1_555 1_555
C1 C7 1_555 1_555
C5 C6 1_555 1_555
N1F C8F 1_555 1_555
C1F C7F 1_555 1_555
C1A C7A 1_555 1_555
C1G C7G 1_555 1_555
C5F C6F 1_555 1_555
C5A C6A 1_555 1_555
C5G C6G 1_555 1_555
C8A C8G 1_555 1_555
N2A C9A 1_555 1_555

#END
