
#######################################################################
#
#                 Cambridge Crystallographic Data Centre
#                                CCDC 
#
#######################################################################
#
# If this CIF has been generated from an entry in the Cambridge 
# Structural Database, then it will include bibliographic, chemical, 
# crystal, experimental, refinement or atomic coordinate data resulting 
# from the CCDC's data processing and validation procedures.
#
#######################################################################

data_XUCHUZ01
_symmetry_cell_setting           tetragonal
_symmetry_space_group_name_H-M   'P 4/n c c'
_symmetry_Int_Tables_number      130
_space_group_name_Hall           '-P 4a 2ac'
loop_
_symmetry_equiv_pos_site_id
_symmetry_equiv_pos_as_xyz
1 x,y,z
2 1/2-x,1/2-y,z
3 1/2-y,x,z
4 y,1/2-x,z
5 -x,1/2+y,1/2-z
6 1/2+x,-y,1/2-z
7 1/2+y,1/2+x,1/2-z
8 -y,-x,1/2-z
9 -x,-y,-z
10 1/2+x,1/2+y,-z
11 1/2+y,-x,-z
12 -y,1/2+x,-z
13 x,1/2-y,1/2+z
14 1/2-x,y,1/2+z
15 1/2-y,1/2-x,1/2+z
16 y,x,1/2+z
_cell_length_a                   14.767(2)
_cell_length_b                   14.767(2)
_cell_length_c                   17.024(3)
_cell_angle_alpha                90
_cell_angle_beta                 90
_cell_angle_gamma                90
_cell_volume                     3712.33
loop_
_atom_site_label
_atom_site_type_symbol
_atom_site_fract_x
_atom_site_fract_y
_atom_site_fract_z
Mn1 Mn 0.54683(4) 0.04683(4) 0.2500
Fe1 Fe 0.2500 0.2500 0.25641(6)
O1 O 0.2500 0.2500 0.0939(6)
O2 O 0.6208(2) 0.09303(18) 0.33113(16)
N1 N 0.2500 0.2500 0.4360(5)
N2 N 0.4326(2) 0.1500(3) 0.2719(2)
N3 N 0.2500 0.2500 0.1591(4)
N4 N 0.4877(2) -0.0384(2) 0.3243(2)
C1 C 0.2500 0.2500 0.3696(5)
C2 C 0.3652(3) 0.1882(3) 0.2665(2)
C3 C 0.6429(3) 0.0532(3) 0.3984(2)
C4 C 0.7123(3) 0.0912(3) 0.4443(3)
H1 H 0.7420 0.1430 0.4269
C5 C 0.7370(3) 0.0522(3) 0.5152(3)
H2 H 0.7826 0.0790 0.5448
C6 C 0.6956(3) -0.0253(3) 0.5431(3)
H3 H 0.7143 -0.0516 0.5900
C7 C 0.6261(3) -0.0626(3) 0.5002(3)
H4 H 0.5973 -0.1144 0.5188
C8 C 0.5976(3) -0.0240(3) 0.4283(2)
C9 C 0.5196(3) -0.0626(3) 0.3915(3)
H5 H 0.4895 -0.1086 0.4182
C10 C 0.4037(3) -0.0795(4) 0.2939(3)
H6 H 0.3528 -0.0388 0.3013
H7 H 0.3909 -0.1360 0.3208
Mn1A Mn -0.04683(4) 0.45317(4) 0.2500
Mn1B Mn 0.45317(4) 0.54683(4) 0.2500
Mn1C Mn 0.04683(4) -0.04683(4) 0.2500
O2F O 0.59303(18) 0.1208(2) 0.16887(16)
O2A O -0.1208(2) 0.40697(18) 0.33113(16)
O2G O -0.09303(18) 0.3792(2) 0.16887(16)
N2A N 0.0674(2) 0.3500(3) 0.2719(2)
N2B N 0.3500(3) 0.4326(2) 0.2719(2)
N2C N 0.1500(3) 0.0674(2) 0.2719(2)
N2F N 0.6500(3) -0.0674(2) 0.2281(2)
N2G N -0.1500(3) 0.5674(2) 0.2281(2)
N4F N 0.4616(2) -0.0123(2) 0.1757(2)
N4A N 0.0123(2) 0.5384(2) 0.3243(2)
N4G N 0.0384(2) 0.5123(2) 0.1757(2)
C2A C 0.1348(3) 0.3118(3) 0.2665(2)
C2B C 0.3118(3) 0.3652(3) 0.2665(2)
C2C C 0.1882(3) 0.1348(3) 0.2665(2)
C3F C 0.5532(3) 0.1429(3) 0.1016(2)
C3A C -0.1429(3) 0.4468(3) 0.3984(2)
C3G C -0.0532(3) 0.3571(3) 0.1016(2)
C4F C 0.5912(3) 0.2123(3) 0.0557(3)
C4A C -0.2123(3) 0.4088(3) 0.4443(3)
C4G C -0.0912(3) 0.2877(3) 0.0557(3)
H1F H 0.6430 0.2420 0.0731
H1A H -0.2420 0.3570 0.4269
H1G H -0.1430 0.2580 0.0731
C5F C 0.5522(3) 0.2370(3) -0.0152(3)
C5A C -0.2370(3) 0.4478(3) 0.5152(3)
C5G C -0.0522(3) 0.2630(3) -0.0152(3)
H2F H 0.5790 0.2826 -0.0448
H2A H -0.2826 0.4210 0.5448
H2G H -0.0790 0.2174 -0.0448
C6F C 0.4747(3) 0.1956(3) -0.0431(3)
C6A C -0.1956(3) 0.5253(3) 0.5431(3)
C6G C 0.0253(3) 0.3044(3) -0.0431(3)
H3F H 0.4484 0.2143 -0.0900
H3A H -0.2143 0.5516 0.5900
H3G H 0.0516 0.2857 -0.0900
C7F C 0.4374(3) 0.1261(3) -0.0002(3)
C7A C -0.1261(3) 0.5626(3) 0.5002(3)
C7G C 0.0626(3) 0.3739(3) -0.0002(3)
H4F H 0.3856 0.0973 -0.0188
H4A H -0.0973 0.6144 0.5188
H4G H 0.1144 0.4027 -0.0188
C8F C 0.4760(3) 0.0976(3) 0.0717(2)
C8A C -0.0976(3) 0.5240(3) 0.4283(2)
C8G C 0.0240(3) 0.4024(3) 0.0717(2)
C9F C 0.4374(3) 0.0196(3) 0.1085(3)
C9A C -0.0196(3) 0.5626(3) 0.3915(3)
C9G C 0.0626(3) 0.4804(3) 0.1085(3)
H5F H 0.3914 -0.0105 0.0818
H5A H 0.0105 0.6086 0.4182
H5G H 0.1086 0.5105 0.0818
C10F C 0.4205(4) -0.0963(3) 0.2061(3)
C10A C 0.0963(3) 0.5795(4) 0.2939(3)
C10G C 0.0795(4) 0.5963(3) 0.2061(3)
H6F H 0.4612 -0.1472 0.1987
H6A H 0.1472 0.5388 0.3013
H6G H 0.0388 0.6472 0.1987
H7F H 0.3640 -0.1091 0.1792
H7A H 0.1091 0.6360 0.3208
H7G H 0.1360 0.6091 0.1792
O3 O 0.7500 0.2500 0.2500
O4? O 0.7500 0.2500 0.3084(14)
loop_
_geom_bond_atom_site_label_1
_geom_bond_atom_site_label_2
_geom_bond_site_symmetry_1
_geom_bond_site_symmetry_2
Mn1 O2 1_555 1_555
Fe1 N3 1_555 1_555
O1 N3 1_555 1_555
O2 C3 1_555 1_555
N1 C1 1_555 1_555
N2 Mn1 1_555 1_555
N4 Mn1 1_555 1_555
C1 Fe1 1_555 1_555
C2 Fe1 1_555 1_555
C3 C4 1_555 1_555
C4 H1 1_555 1_555
C5 C4 1_555 1_555
H2 C5 1_555 1_555
C6 C5 1_555 1_555
H3 C6 1_555 1_555
C7 C6 1_555 1_555
H4 C7 1_555 1_555
C8 C3 1_555 1_555
C9 N4 1_555 1_555
H5 C9 1_555 1_555
C10 N4 1_555 1_555
H6 C10 1_555 1_555
H7 C10 1_555 1_555
Mn1A O2A 1_555 1_555
Mn1B N2B 1_555 1_555
Mn1C N2C 1_555 1_555
O2F Mn1 1_555 1_555
O2A C3A 1_555 1_555
O2G Mn1A 1_555 1_555
N2A Mn1A 1_555 1_555
N2B C2B 1_555 1_555
N2C C2C 1_555 1_555
N2F Mn1 1_555 1_555
N2G Mn1A 1_555 1_555
N4F Mn1 1_555 1_555
N4A Mn1A 1_555 1_555
N4G Mn1A 1_555 1_555
C2A Fe1 1_555 1_555
C2B Fe1 1_555 1_555
C2C Fe1 1_555 1_555
C3F O2F 1_555 1_555
C3A C4A 1_555 1_555
C3G O2G 1_555 1_555
C4F C3F 1_555 1_555
C4A H1A 1_555 1_555
C4G C3G 1_555 1_555
H1F C4F 1_555 1_555
H1G C4G 1_555 1_555
C5F C4F 1_555 1_555
C5A C4A 1_555 1_555
C5G C4G 1_555 1_555
H2F C5F 1_555 1_555
H2A C5A 1_555 1_555
H2G C5G 1_555 1_555
C6F C5F 1_555 1_555
C6A C5A 1_555 1_555
C6G C5G 1_555 1_555
H3F C6F 1_555 1_555
H3A C6A 1_555 1_555
H3G C6G 1_555 1_555
C7F C6F 1_555 1_555
C7A C6A 1_555 1_555
C7G C6G 1_555 1_555
H4F C7F 1_555 1_555
H4A C7A 1_555 1_555
H4G C7G 1_555 1_555
C8F C3F 1_555 1_555
C8A C3A 1_555 1_555
C8G C3G 1_555 1_555
C9F N4F 1_555 1_555
C9A N4A 1_555 1_555
C9G N4G 1_555 1_555
H5F C9F 1_555 1_555
H5A C9A 1_555 1_555
H5G C9G 1_555 1_555
C10F C10 1_555 1_555
C10A N4A 1_555 1_555
C10G N4G 1_555 1_555
H6F C10F 1_555 1_555
H6A C10A 1_555 1_555
H6G C10G 1_555 1_555
H7F C10F 1_555 1_555
H7A C10A 1_555 1_555
H7G C10G 1_555 1_555
N2 C2 1_555 1_555
C7 C8 1_555 1_555
C8 C9 1_555 1_555
N2A C2A 1_555 1_555
N4F C10F 1_555 1_555
C7F C8F 1_555 1_555
C7A C8A 1_555 1_555
C7G C8G 1_555 1_555
C8F C9F 1_555 1_555
C8A C9A 1_555 1_555
C8G C9G 1_555 1_555
C10A C10G 1_555 1_555

#END
