
#######################################################################
#
#                 Cambridge Crystallographic Data Centre
#                                CCDC 
#
#######################################################################
#
# If this CIF has been generated from an entry in the Cambridge 
# Structural Database, then it will include bibliographic, chemical, 
# crystal, experimental, refinement or atomic coordinate data resulting 
# from the CCDC's data processing and validation procedures.
#
#######################################################################

data_XUCHOS
_symmetry_cell_setting           monoclinic
_symmetry_space_group_name_H-M   'P 21/c'
_symmetry_Int_Tables_number      14
_space_group_name_Hall           '-P 2ybc'
loop_
_symmetry_equiv_pos_site_id
_symmetry_equiv_pos_as_xyz
1 x,y,z
2 x,1/2-y,1/2+z
3 -x,-y,-z
4 -x,1/2+y,1/2-z
_cell_length_a                   7.7478(5)
_cell_length_b                   15.0584(10)
_cell_length_c                   6.3570(5)
_cell_angle_alpha                90
_cell_angle_beta                 108.288(3)
_cell_angle_gamma                90
_cell_volume                     704.207
loop_
_atom_site_label
_atom_site_type_symbol
_atom_site_fract_x
_atom_site_fract_y
_atom_site_fract_z
Ni1 Ni 0.22442(3) -0.082856(17) 0.25026(4)
O1 O 0.38239(19) -0.19578(10) 0.2233(3)
O2 O 0.4828(2) -0.06079(9) 0.2159(2)
O3 O 0.8139(2) -0.45269(10) 0.2170(2)
O4 O 1.10600(19) -0.42247(9) 0.4011(3)
O5 O 0.3436(2) -0.08741(11) 0.5950(3)
H1 H 0.282(6) -0.094(3) 0.656(7)
H2 H 0.403(6) -0.036(3) 0.655(7)
N1 N 1.0060(2) -0.15339(11) 0.2813(3)
C1 C 0.8354(3) -0.12371(13) 0.2472(3)
H3 H 0.8134 -0.0630 0.2324
C2 C 0.6909(3) -0.18059(13) 0.2335(3)
C3 C 0.7204(3) -0.27161(13) 0.2422(3)
H4 H 0.6240 -0.3110 0.2214
C4 C 0.8969(3) -0.30286(13) 0.2826(3)
C5 C 1.0355(3) -0.24143(13) 0.3066(3)
H5 H 1.1543 -0.2621 0.3417
C6 C 0.5081(3) -0.14404(13) 0.2205(3)
C7 C 0.9427(3) -0.40039(13) 0.3026(3)
O3C O 0.1861(2) 0.04731(10) 0.2830(2)
O4A O 0.10600(19) -0.07753(9) -0.0989(3)
N1_2 N 0.0060(2) -0.15339(11) 0.2813(3)
Ni1C Ni 0.77558(3) -0.582856(17) 0.24974(4)
Ni1A Ni 1.22442(3) -0.417144(17) 0.75026(4)
Ni1_2 Ni 1.22442(3) -0.082856(17) 0.25026(4)
loop_
_geom_bond_atom_site_label_1
_geom_bond_atom_site_label_2
_geom_bond_site_symmetry_1
_geom_bond_site_symmetry_2
Ni1 O1 1_555 1_555
O1 C6 1_555 1_555
O2 Ni1 1_555 1_555
O3 C7 1_555 1_555
O4 C7 1_555 1_555
O5 Ni1 1_555 1_555
H1 O5 1_555 1_555
H2 O5 1_555 1_555
N1 C1 1_555 1_555
C1 H3 1_555 1_555
C2 C1 1_555 1_555
C3 C2 1_555 1_555
H4 C3 1_555 1_555
C4 C3 1_555 1_555
C5 N1 1_555 1_555
H5 C5 1_555 1_555
C6 O2 1_555 1_555
C7 C4 1_555 1_555
O3C Ni1 1_555 1_555
O4A Ni1 1_555 1_555
N1_2 Ni1 1_555 1_555
Ni1C O3 1_555 1_555
Ni1A O4 1_555 1_555
Ni1_2 N1 1_555 1_555
C2 C6 1_555 1_555
C4 C5 1_555 1_555

#END
