
#######################################################################
#
#                 Cambridge Crystallographic Data Centre
#                                CCDC 
#
#######################################################################
#
# If this CIF has been generated from an entry in the Cambridge 
# Structural Database, then it will include bibliographic, chemical, 
# crystal, experimental, refinement or atomic coordinate data resulting 
# from the CCDC's data processing and validation procedures.
#
#######################################################################

data_XUCNAL
_symmetry_cell_setting           triclinic
_symmetry_space_group_name_H-M   'P -1'
_symmetry_Int_Tables_number      2
_space_group_name_Hall           '-P 1'
loop_
_symmetry_equiv_pos_site_id
_symmetry_equiv_pos_as_xyz
1 x,y,z
2 -x,-y,-z
_cell_length_a                   9.6270(10)
_cell_length_b                   13.467(2)
_cell_length_c                   15.770(3)
_cell_angle_alpha                105.204(10)
_cell_angle_beta                 95.138(10)
_cell_angle_gamma                96.763(10)
_cell_volume                     1943.7
loop_
_atom_site_label
_atom_site_type_symbol
_atom_site_fract_x
_atom_site_fract_y
_atom_site_fract_z
Au1 Au 0.80269(2) 0.182469(18) 0.371711(16)
Ag1 Ag 0.60670(5) 0.02720(4) 0.40996(3)
Ag2 Ag 0.89683(5) -0.00348(4) 0.39943(4)
Ag3 Ag 0.91042(7) 0.39816(5) 0.46373(5)
C1 C 0.7391(7) 0.2147(5) 0.4961(5)
C2 C 0.8362(9) 0.2138(5) 0.5707(5)
C3 C 0.8010(10) 0.2441(6) 0.6572(6)
C4 C 0.6749(9) 0.2748(7) 0.6700(7)
C5 C 0.5750(10) 0.2769(7) 0.6034(7)
C6 C 0.6111(9) 0.2456(6) 0.5137(6)
F1 F 0.9612(6) 0.1893(4) 0.5606(3)
F2 F 0.8946(8) 0.2441(5) 0.7248(4)
F3 F 0.6430(9) 0.3070(5) 0.7541(4)
F4 F 0.4529(7) 0.3078(5) 0.6161(6)
F5 F 0.5210(6) 0.2523(4) 0.4482(4)
P1 P 0.79282(18) 0.21845(13) 0.18082(11)
C7 C 0.8856(7) 0.1598(5) 0.2513(4)
H1 H 0.9844 0.1897 0.2619
H2 H 0.8788 0.0859 0.223
C8 C 0.8017(7) 0.3556(6) 0.2330(5)
C9 C 0.7193(8) 0.3892(6) 0.2999(5)
H3 H 0.6549 0.3414 0.3149
C10 C 0.7336(9) 0.4945(6) 0.3446(6)
H4 H 0.6789 0.5171 0.3896
C11 C 0.8285(10) 0.5654(8) 0.3223(7)
H5 H 0.8387 0.6356 0.3527
C12 C 0.9087(12) 0.5321(7) 0.2547(8)
H6 H 0.972 0.5801 0.2393
C13 C 0.8952(9) 0.4271(6) 0.2094(6)
H7 H 0.9486 0.405 0.1636
C14 C 0.8617(7) 0.2041(5) 0.0756(5)
C15 C 0.7945(8) 0.2405(6) 0.0099(5)
H8 H 0.7171 0.2751 0.0209
C16 C 0.8440(9) 0.2248(7) -0.0717(5)
H9 H 0.7995 0.2489 -0.1155
C17 C 0.9586(8) 0.1737(7) -0.0884(5)
H10 H 0.9917 0.1636 -0.1432
C18 C 1.0243(8) 0.1376(7) -0.0232(5)
H11 H 1.1011 0.1024 -0.0348
C19 C 0.9771(8) 0.1532(6) 0.0595(5)
H12 H 1.0227 0.1297 0.1034
C20 C 0.6110(7) 0.1598(5) 0.1545(5)
C21 C 0.5043(8) 0.2136(7) 0.1330(5)
H13 H 0.5246 0.2843 0.1377
C22 C 0.3686(9) 0.1628(8) 0.1046(6)
H14 H 0.2974 0.1997 0.0919
C23 C 0.3378(8) 0.0578(7) 0.0951(6)
H15 H 0.2463 0.0237 0.0755
C24 C 0.4424(9) 0.0036(7) 0.1145(7)
H16 H 0.4208 -0.0671 0.1092
C25 C 0.5790(9) 0.0523(7) 0.1417(7)
H17 H 0.65 0.0139 0.1516
O1 O 0.6294(5) -0.0309(4) 0.5394(3)
O2 O 0.8628(5) -0.0300(4) 0.5402(3)
C26 C 0.7491(7) -0.0375(5) 0.5717(5)
C27 C 0.7604(8) -0.0600(9) 0.6625(6)
F6 F 0.8647(8) -0.0073(7) 0.7155(4)
F7 F 0.7948(8) -0.1573(7) 0.6535(6)
F8 F 0.6403(7) -0.0727(8) 0.6927(4)
O3 O 0.5796(5) -0.1085(4) 0.2866(4)
O4 O 0.8073(6) -0.1103(5) 0.2672(4)
C28 C 0.6761(8) -0.1392(6) 0.2475(5)
C29 C 0.6375(9) -0.2270(7) 0.1608(6)
F9 F 0.5032(6) -0.2439(5) 0.1303(4)
F10 F 0.6684(11) -0.3139(6) 0.1708(6)
F11 F 0.7015(9) -0.2035(8) 0.0974(4)
O5 O 0.7906(7) 0.4688(5) 0.5686(5)
O6 O 0.9168(6) 0.6274(4) 0.6161(4)
C30 C 0.8191(8) 0.5585(6) 0.6149(5)
C31 C 0.7190(10) 0.5899(7) 0.6849(7)
F12 F 0.6795(12) 0.5169(5) 0.7195(6)
F13 F 0.6103(10) 0.6175(12) 0.6522(8)
F14 F 0.7765(9) 0.6710(5) 0.7513(6)
Ag1A Ag 0.39330(5) -0.02720(4) 0.59004(3)
Ag2A Ag 1.10317(5) 0.00348(4) 0.60057(4)
Ag3A Ag 1.08958(7) 0.60184(5) 0.53627(5)
O1A O 0.3706(5) 0.0309(4) 0.4606(3)
O2A O 1.1372(5) 0.0300(4) 0.4598(3)
O6A O 1.0832(6) 0.3726(4) 0.3839(4)
loop_
_geom_bond_atom_site_label_1
_geom_bond_atom_site_label_2
_geom_bond_site_symmetry_1
_geom_bond_site_symmetry_2
Au1 Ag1 1_555 1_555
Ag1 Ag2 1_555 1_555
Ag2 Au1 1_555 1_555
Ag3 Au1 1_555 1_555
C1 Au1 1_555 1_555
C2 C1 1_555 1_555
C3 C2 1_555 1_555
C4 C3 1_555 1_555
C5 C4 1_555 1_555
C6 C1 1_555 1_555
F1 C2 1_555 1_555
F2 C3 1_555 1_555
F3 C4 1_555 1_555
F4 C5 1_555 1_555
F5 C6 1_555 1_555
P1 C7 1_555 1_555
C7 Au1 1_555 1_555
H1 C7 1_555 1_555
H2 C7 1_555 1_555
C8 P1 1_555 1_555
C9 C8 1_555 1_555
H3 C9 1_555 1_555
C10 C9 1_555 1_555
H4 C10 1_555 1_555
C11 C10 1_555 1_555
H5 C11 1_555 1_555
C12 C11 1_555 1_555
H6 C12 1_555 1_555
C13 C8 1_555 1_555
H7 C13 1_555 1_555
C14 P1 1_555 1_555
C15 C14 1_555 1_555
H8 C15 1_555 1_555
C16 C15 1_555 1_555
H9 C16 1_555 1_555
C17 C16 1_555 1_555
H10 C17 1_555 1_555
C18 C17 1_555 1_555
H11 C18 1_555 1_555
C19 C14 1_555 1_555
H12 C19 1_555 1_555
C20 P1 1_555 1_555
C21 C20 1_555 1_555
H13 C21 1_555 1_555
C22 C21 1_555 1_555
H14 C22 1_555 1_555
C23 C22 1_555 1_555
H15 C23 1_555 1_555
C24 C23 1_555 1_555
H16 C24 1_555 1_555
C25 C20 1_555 1_555
H17 C25 1_555 1_555
O1 Ag1 1_555 1_555
O2 Ag2 1_555 1_555
C26 O1 1_555 1_555
C27 C26 1_555 1_555
F6 C27 1_555 1_555
F7 C27 1_555 1_555
F8 C27 1_555 1_555
O3 Ag1 1_555 1_555
O4 Ag2 1_555 1_555
C28 O3 1_555 1_555
C29 C28 1_555 1_555
F9 C29 1_555 1_555
F10 C29 1_555 1_555
F11 C29 1_555 1_555
O5 Ag3 1_555 1_555
O6 C30 1_555 1_555
C30 O5 1_555 1_555
C31 C30 1_555 1_555
F12 C31 1_555 1_555
F13 C31 1_555 1_555
F14 C31 1_555 1_555
Ag1A O1 1_555 1_555
Ag2A O2 1_555 1_555
Ag3A Ag3 1_555 1_555
O1A Ag1 1_555 1_555
O2A Ag2 1_555 1_555
O6A Ag3 1_555 1_555
C5 C6 1_555 1_555
C12 C13 1_555 1_555
C18 C19 1_555 1_555
C24 C25 1_555 1_555
O2 C26 1_555 1_555
O4 C28 1_555 1_555
O6 Ag3A 1_555 1_555
Ag1A O1A 1_555 1_555
Ag2A O2A 1_555 1_555

#END
