
#######################################################################
#
#                 Cambridge Crystallographic Data Centre
#                                CCDC 
#
#######################################################################
#
# If this CIF has been generated from an entry in the Cambridge 
# Structural Database, then it will include bibliographic, chemical, 
# crystal, experimental, refinement or atomic coordinate data resulting 
# from the CCDC's data processing and validation procedures.
#
#######################################################################

data_XUCNOZ
_symmetry_cell_setting           monoclinic
_symmetry_space_group_name_H-M   'C 2/c'
_symmetry_Int_Tables_number      15
_space_group_name_Hall           '-C 2yn'
loop_
_symmetry_equiv_pos_site_id
_symmetry_equiv_pos_as_xyz
1 x,y,z
2 -x,y,1/2-z
3 1/2+x,1/2+y,z
4 1/2-x,1/2+y,1/2-z
5 -x,-y,-z
6 x,-y,1/2+z
7 1/2-x,1/2-y,-z
8 1/2+x,1/2-y,1/2+z
_cell_length_a                   21.982(4)
_cell_length_b                   15.977(3)
_cell_length_c                   25.818(5)
_cell_angle_alpha                90
_cell_angle_beta                 109.50(3)
_cell_angle_gamma                90
_cell_volume                     8547.35
loop_
_atom_site_label
_atom_site_type_symbol
_atom_site_fract_x
_atom_site_fract_y
_atom_site_fract_z
C1 C 0.6247(4) 0.8942(4) 0.8488(3)
H1 H 0.6467 0.8414 0.8491
H2 H 0.5799 0.8884 0.8258
C2 C 0.6299(4) 0.9201(4) 0.9072(3)
H3 H 0.5974 0.8926 0.9191
H4 H 0.6724 0.9082 0.9333
C3 C 0.6176(3) 1.0143(4) 0.8998(3)
H5 H 0.5721 1.0259 0.8819
H6 H 0.6325 1.0431 0.9349
C4 C 0.6296(3) 1.1164(4) 0.8325(2)
H7 H 0.5834 1.1101 0.8151
H8 H 0.6485 1.1241 0.8038
C5 C 0.6574(3) 0.9650(4) 0.8282(3)
H9 H 0.6335 0.9773 0.7895
C6 C 0.7266(3) 0.9418(4) 0.8355(3)
C7 C 0.7182(3) 1.4769(4) 0.7871(3)
C8 C 0.7483(4) 1.5336(4) 0.8361(2)
H10 H 0.7233 1.5854 0.8326
C9 C 0.8190(4) 1.5533(5) 0.8424(3)
H11 H 0.8287 1.5356 0.8100
H12 H 0.8274 1.6129 0.8476
C10 C 0.8600(4) 1.5043(5) 0.8932(3)
H13 H 0.9009 1.5321 0.9114
H14 H 0.8682 1.4477 0.8837
C11 C 0.8164(3) 1.5050(4) 0.9294(3)
H15 H 0.8290 1.4619 0.9575
H16 H 0.8173 1.5590 0.9468
C12 C 0.6968(3) 1.5113(4) 0.9076(3)
H17 H 0.6569 1.5120 0.8766
H18 H 0.7040 1.5672 0.9232
C13 C 0.4430(3) 1.3204(4) 0.9237(3)
C14 C 0.4627(3) 1.2767(4) 0.9799(3)
H19 H 0.4550 1.3147 1.0068
C15 C 0.4241(3) 1.1932(4) 0.9780(3)
H20 H 0.3918 1.2002 0.9957
H21 H 0.4031 1.1747 0.9405
C16 C 0.4760(3) 1.1321(4) 1.0095(3)
H22 H 0.4841 1.1361 1.0487
H23 H 0.4640 1.0750 0.9977
C17 C 0.5342(3) 1.1591(4) 0.9954(3)
H24 H 0.5311 1.1406 0.9589
H25 H 0.5735 1.1369 1.0217
C18 C 0.5669(3) 1.2823(4) 1.0560(3)
H26 H 0.5539 1.2479 1.0814
H27 H 0.5551 1.3398 1.0603
Cd1 Cd 0.84432(2) 0.89488(3) 0.81691(2)
N1 N 0.6563(3) 1.0402(3) 0.8639(2)
N2 N 0.5328(3) 1.2539(3) 0.9985(2)
N3 N 0.7517(3) 1.4874(3) 0.8883(2)
O1 O 0.5866(2) 1.2270(3) 0.89286(18)
O2 O 0.7038(2) 1.1823(2) 0.92771(17)
O3 O 0.6617(2) 1.2793(3) 0.84410(18)
O4 O 0.7739(2) 0.9801(2) 0.86876(17)
O5 O 0.7350(2) 0.8833(3) 0.80533(18)
O6 O 0.8419(3) 0.7562(4) 0.7843(3)
O7 O 0.9037(2) 1.0127(3) 0.8707(2)
O8 O 0.7147(2) 1.3984(2) 0.79356(18)
O9 O 0.6976(2) 1.5108(3) 0.74060(17)
O10 O 0.7269(2) 1.3593(2) 0.95158(16)
O11 O 0.6174(2) 1.4203(3) 0.94656(18)
O12 O 0.7199(2) 1.4790(2) 1.01509(17)
O13 O 0.3827(2) 1.3314(3) 0.9011(2)
O14 O 0.4856(2) 1.3425(3) 0.90462(18)
O15 O 0.6817(2) 1.3567(3) 1.10301(17)
O16 O 0.6791(2) 1.1988(3) 1.10809(18)
O17 O 0.6632(2) 1.2697(3) 1.01550(16)
P1 P 0.64610(8) 1.20848(10) 0.87695(7)
P2 P 0.68941(8) 1.43767(10) 0.95913(7)
P3 P 0.65408(8) 1.27507(10) 1.07221(7)
Zn1 Zn 0.57960(4) 1.30709(4) 0.94746(3)
Zn2 Zn 0.75186(4) 1.07420(4) 0.91295(3)
Zn3 Zn 0.73694(4) 1.35571(4) 0.87179(3)
Zn4 Zn 0.7500 1.2500 1.0000
O18 O 0.9347(4) 0.8993(5) 0.7904(3)
C1F C 0.8753(4) 1.6058(4) 1.1512(3)
H1F H 0.8533 1.6586 1.1509
H2F H 0.9201 1.6116 1.1742
C2F C 0.8701(4) 1.5799(4) 1.0928(3)
H3F H 0.9026 1.6074 1.0809
H4F H 0.8276 1.5918 1.0667
C3F C 0.8824(3) 1.4857(4) 1.1002(3)
H5F H 0.9279 1.4741 1.1181
H6F H 0.8675 1.4569 1.0651
C4F C 0.8704(3) 1.3836(4) 1.1675(2)
H7F H 0.9166 1.3899 1.1849
H8F H 0.8515 1.3759 1.1962
C5F C 0.8426(3) 1.5350(4) 1.1718(3)
H9F H 0.8665 1.5227 1.2105
C6F C 0.7734(3) 1.5582(4) 1.1645(3)
C7F C 0.7818(3) 1.0231(4) 1.2129(3)
C8F C 0.7517(4) 0.9664(4) 1.1639(2)
H10F H 0.7767 0.9146 1.1674
C9F C 0.6810(4) 0.9467(5) 1.1576(3)
H11F H 0.6713 0.9644 1.1900
H12F H 0.6726 0.8871 1.1524
C10F C 0.6400(4) 0.9957(5) 1.1068(3)
H13F H 0.5991 0.9679 1.0886
H14F H 0.6318 1.0523 1.1163
C11F C 0.6836(3) 0.9950(4) 1.0706(3)
H15F H 0.6710 1.0381 1.0425
H16F H 0.6827 0.9410 1.0532
C12F C 0.8032(3) 0.9887(4) 1.0924(3)
H17F H 0.8431 0.9880 1.1234
H18F H 0.7960 0.9328 1.0768
C13F C 1.0570(3) 1.1796(4) 1.0763(3)
C14F C 1.0373(3) 1.2233(4) 1.0201(3)
H19F H 1.0450 1.1853 0.9932
C15F C 1.0759(3) 1.3068(4) 1.0220(3)
H20F H 1.1082 1.2998 1.0043
H21F H 1.0969 1.3253 1.0595
C16F C 1.0240(3) 1.3679(4) 0.9905(3)
H22F H 1.0159 1.3639 0.9513
H23F H 1.0360 1.4250 1.0023
C17F C 0.9658(3) 1.3409(4) 1.0046(3)
H24F H 0.9689 1.3594 1.0411
H25F H 0.9265 1.3631 0.9783
C18F C 0.9331(3) 1.2177(4) 0.9440(3)
H26F H 0.9461 1.2521 0.9186
H27F H 0.9449 1.1602 0.9397
Cd1F Cd 0.65568(2) 1.60512(3) 1.18309(2)
Cd1C Cd 0.65568(2) 1.39488(3) 0.68309(2)
Cd1B Cd 0.34432(2) 1.39488(3) 0.81691(2)
Cd1E Cd 0.84432(2) 1.10512(3) 1.31691(2)
Cd1D Cd 1.15568(2) 1.10512(3) 1.18309(2)
N1F N 0.8437(3) 1.4598(3) 1.1361(2)
N2F N 0.9672(3) 1.2461(3) 1.0015(2)
N3F N 0.7483(3) 1.0126(3) 1.1117(2)
O1F O 0.9134(2) 1.2730(3) 1.10714(18)
O2F O 0.7962(2) 1.3177(2) 1.07229(17)
O3F O 0.8383(2) 1.2207(3) 1.15590(18)
O4F O 0.7261(2) 1.5199(2) 1.13124(17)
O5F O 0.7650(2) 1.6167(3) 1.19467(18)
O6F O 0.6581(3) 1.7438(4) 1.2157(3)
O7F O 0.5963(2) 1.4873(3) 1.1293(2)
O8F O 0.7853(2) 1.1016(2) 1.20644(18)
O9F O 0.8024(2) 0.9892(3) 1.25940(17)
O9C O 0.8024(2) 1.0108(3) 0.75940(17)
O9E O 0.6976(2) 1.4892(3) 1.24060(17)
O10F O 0.7731(2) 1.1407(2) 1.04842(16)
O11F O 0.8826(2) 1.0797(3) 1.05344(18)
O12F O 0.7801(2) 1.0210(2) 0.98491(17)
O13F O 1.1173(2) 1.1686(3) 1.0989(2)
O13B O 0.8827(2) 0.8314(3) 0.9011(2)
O13D O 0.6173(2) 1.6686(3) 1.0989(2)
O14F O 1.0144(2) 1.1575(3) 1.09538(18)
O15F O 0.8183(2) 1.1433(3) 0.89699(17)
O16F O 0.8209(2) 1.3012(3) 0.89191(18)
O17F O 0.8368(2) 1.2303(3) 0.98450(16)
P1F P 0.85390(8) 1.29152(10) 1.12305(7)
P2F P 0.81059(8) 1.06233(10) 1.04087(7)
P3F P 0.84592(8) 1.22493(10) 0.92779(7)
Zn1F Zn 0.92040(4) 1.19291(4) 1.05254(3)
Zn2F Zn 0.74814(4) 1.42580(4) 1.08705(3)
Zn3F Zn 0.76306(4) 1.14429(4) 1.12821(3)
O18F O 0.5653(4) 1.6007(5) 1.2096(3)
loop_
_geom_bond_atom_site_label_1
_geom_bond_atom_site_label_2
_geom_bond_site_symmetry_1
_geom_bond_site_symmetry_2
C1 H1 1_555 1_555
H2 C1 1_555 1_555
C2 C1 1_555 1_555
H3 C2 1_555 1_555
H4 C2 1_555 1_555
C3 C2 1_555 1_555
H5 C3 1_555 1_555
H6 C3 1_555 1_555
C4 H7 1_555 1_555
H8 C4 1_555 1_555
C5 C1 1_555 1_555
H9 C5 1_555 1_555
C6 C5 1_555 1_555
C7 C8 1_555 1_555
C8 H10 1_555 1_555
C9 C8 1_555 1_555
H11 C9 1_555 1_555
H12 C9 1_555 1_555
C10 C9 1_555 1_555
H13 C10 1_555 1_555
H14 C10 1_555 1_555
C11 C10 1_555 1_555
H15 C11 1_555 1_555
H16 C11 1_555 1_555
C12 H17 1_555 1_555
H18 C12 1_555 1_555
C13 C14 1_555 1_555
C14 H19 1_555 1_555
C15 C14 1_555 1_555
H20 C15 1_555 1_555
H21 C15 1_555 1_555
C16 C15 1_555 1_555
H22 C16 1_555 1_555
H23 C16 1_555 1_555
C17 C16 1_555 1_555
H24 C17 1_555 1_555
H25 C17 1_555 1_555
C18 H26 1_555 1_555
H27 C18 1_555 1_555
Cd1 O5 1_555 1_555
N1 C3 1_555 1_555
N2 C14 1_555 1_555
N3 C8 1_555 1_555
O1 P1 1_555 1_555
O2 P1 1_555 1_555
O3 P1 1_555 1_555
O4 C6 1_555 1_555
O5 C6 1_555 1_555
O6 Cd1 1_555 1_555
O7 Cd1 1_555 1_555
O8 C7 1_555 1_555
O9 C7 1_555 1_555
O10 P2 1_555 1_555
O11 P2 1_555 1_555
O12 P2 1_555 1_555
O13 C13 1_555 1_555
O14 C13 1_555 1_555
O15 P3 1_555 1_555
O16 P3 1_555 1_555
O17 P3 1_555 1_555
P1 C4 1_555 1_555
P2 C12 1_555 1_555
P3 C18 1_555 1_555
Zn1 N2 1_555 1_555
Zn2 N1 1_555 1_555
Zn3 N3 1_555 1_555
Zn4 O2 1_555 1_555
O18 Cd1 1_555 1_555
C1F H1F 1_555 1_555
H2F C1F 1_555 1_555
C2F C1F 1_555 1_555
H3F C2F 1_555 1_555
H4F C2F 1_555 1_555
C3F C2F 1_555 1_555
H5F C3F 1_555 1_555
H6F C3F 1_555 1_555
C4F H7F 1_555 1_555
H8F C4F 1_555 1_555
C5F C1F 1_555 1_555
H9F C5F 1_555 1_555
C6F C5F 1_555 1_555
C7F C8F 1_555 1_555
C8F H10F 1_555 1_555
C9F C8F 1_555 1_555
H11F C9F 1_555 1_555
H12F C9F 1_555 1_555
C10F C9F 1_555 1_555
H13F C10F 1_555 1_555
H14F C10F 1_555 1_555
C11F C10F 1_555 1_555
H15F C11F 1_555 1_555
H16F C11F 1_555 1_555
C12F H17F 1_555 1_555
H18F C12F 1_555 1_555
C13F C14F 1_555 1_555
C14F H19F 1_555 1_555
C15F C14F 1_555 1_555
H20F C15F 1_555 1_555
H21F C15F 1_555 1_555
C16F C15F 1_555 1_555
H22F C16F 1_555 1_555
H23F C16F 1_555 1_555
C17F C16F 1_555 1_555
H24F C17F 1_555 1_555
H25F C17F 1_555 1_555
C18F H26F 1_555 1_555
H27F C18F 1_555 1_555
Cd1F O5F 1_555 1_555
Cd1C O9 1_555 1_555
Cd1B O13 1_555 1_555
Cd1E O9F 1_555 1_555
Cd1D O13F 1_555 1_555
N1F C3F 1_555 1_555
N2F C14F 1_555 1_555
N3F C8F 1_555 1_555
O1F P1F 1_555 1_555
O2F Zn4 1_555 1_555
O3F P1F 1_555 1_555
O4F C6F 1_555 1_555
O5F C6F 1_555 1_555
O6F Cd1F 1_555 1_555
O7F Cd1F 1_555 1_555
O8F C7F 1_555 1_555
O9F C7F 1_555 1_555
O9C Cd1 1_555 1_555
O9E Cd1F 1_555 1_555
O10F Zn4 1_555 1_555
O11F P2F 1_555 1_555
O12F Zn2 1_555 1_555
O13F C13F 1_555 1_555
O13B Cd1 1_555 1_555
O13D Cd1F 1_555 1_555
O14F C13F 1_555 1_555
O15F Zn2 1_555 1_555
O16F Zn3 1_555 1_555
O17F Zn4 1_555 1_555
P1F C4F 1_555 1_555
P2F C12F 1_555 1_555
P3F C18F 1_555 1_555
Zn1F N2F 1_555 1_555
Zn2F O12 1_555 1_555
Zn3F O16 1_555 1_555
O18F Cd1F 1_555 1_555
C4 N1 1_555 1_555
C5 N1 1_555 1_555
C11 N3 1_555 1_555
C12 N3 1_555 1_555
C17 N2 1_555 1_555
C18 N2 1_555 1_555
O1 Zn1 1_555 1_555
O2 Zn2 1_555 1_555
O3 Zn3 1_555 1_555
O4 Zn2 1_555 1_555
O8 Zn3 1_555 1_555
O10 Zn3 1_555 1_555
O10 Zn4 1_555 1_555
O11 Zn1 1_555 1_555
O14 Zn1 1_555 1_555
O15 Zn2F 1_555 1_555
O17 Zn1 1_555 1_555
O17 Zn4 1_555 1_555
C4F N1F 1_555 1_555
C5F N1F 1_555 1_555
C11F N3F 1_555 1_555
C12F N3F 1_555 1_555
C17F N2F 1_555 1_555
C18F N2F 1_555 1_555
N1F Zn2F 1_555 1_555
N3F Zn3F 1_555 1_555
O1F Zn1F 1_555 1_555
O2F P1F 1_555 1_555
O2F Zn2F 1_555 1_555
O3F Zn3F 1_555 1_555
O4F Zn2F 1_555 1_555
O8F Zn3F 1_555 1_555
O10F P2F 1_555 1_555
O10F Zn3F 1_555 1_555
O11F Zn1F 1_555 1_555
O12F P2F 1_555 1_555
O14F Zn1F 1_555 1_555
O15F P3F 1_555 1_555
O16F P3F 1_555 1_555
O17F P3F 1_555 1_555
O17F Zn1F 1_555 1_555

#END
