
#######################################################################
#
#                 Cambridge Crystallographic Data Centre
#                                CCDC 
#
#######################################################################
#
# If this CIF has been generated from an entry in the Cambridge 
# Structural Database, then it will include bibliographic, chemical, 
# crystal, experimental, refinement or atomic coordinate data resulting 
# from the CCDC's data processing and validation procedures.
#
#######################################################################

data_XUCROE
_symmetry_cell_setting           monoclinic
_symmetry_space_group_name_H-M   'P 21/n'
_symmetry_Int_Tables_number      14
_space_group_name_Hall           '-P 2yn'
loop_
_symmetry_equiv_pos_site_id
_symmetry_equiv_pos_as_xyz
1 x,y,z
2 1/2-x,1/2+y,1/2-z
3 -x,-y,-z
4 1/2+x,1/2-y,1/2+z
_cell_length_a                   7.872(1)
_cell_length_b                   13.008(1)
_cell_length_c                   12.883(1)
_cell_angle_alpha                90
_cell_angle_beta                 94.138(7)
_cell_angle_gamma                90
_cell_volume                     1315.77
loop_
_atom_site_label
_atom_site_type_symbol
_atom_site_fract_x
_atom_site_fract_y
_atom_site_fract_z
Y1 Y 0.40323(5) -0.16462(3) -0.16285(3)
N1 N 0.2702(4) -0.0260(3) -0.2986(3)
C1 C 0.2242(5) 0.0722(3) -0.2844(3)
H1 H 0.2196 0.0947 -0.2162
N2 N 0.1844(4) 0.1403(3) -0.3599(3)
C2 C 0.1889(5) 0.1068(3) -0.4582(3)
C3 C 0.2356(5) 0.0067(3) -0.4807(3)
H2 H 0.2389 -0.0161 -0.5489
C4 C 0.2770(5) -0.0573(3) -0.3971(3)
C5 C 0.3364(5) -0.1671(3) -0.4108(3)
O1 O 0.3567(4) -0.2214(2) -0.3290(2)
O2 O 0.3633(4) -0.1963(2) -0.4998(2)
C6 C 0.1399(5) 0.1852(3) -0.5426(3)
O3 O 0.1206(4) 0.2754(2) -0.5099(2)
O4 O 0.1229(4) 0.1561(2) -0.6341(2)
O5 O 0.3112(3) -0.0187(2) -0.0767(2)
C7 C 0.4099(5) 0.0231(3) -0.0080(3)
O6 O 0.3747(4) 0.0952(2) 0.0503(2)
O7 O 0.6080(4) -0.0683(2) -0.2630(2)
O8 O 0.6427(4) -0.2722(2) -0.1700(2)
O9 O 0.0996(4) -0.1766(2) -0.1713(2)
H3 H 0.6944 -0.0972 -0.2874
H4 H 0.6497 -0.0134 -0.2347
H5 H 0.7196 -0.2773 -0.1197
H6 H 0.6665 -0.3217 -0.2106
H7 H 0.0192 -0.1722 -0.2197
H8 H 0.0527 -0.1572 -0.1169
O5B O 0.6888(3) 0.0187(2) 0.0767(2)
C7B C 0.5901(5) -0.0231(3) 0.0080(3)
O6B O 0.6253(4) -0.0952(2) -0.0503(2)
Y1B Y 0.59677(5) 0.16462(3) 0.16285(3)
N1B N 0.7298(4) 0.0260(3) 0.2986(3)
C1B C 0.7758(5) -0.0722(3) 0.2844(3)
H1B H 0.7804 -0.0947 0.2162
N2B N 0.8156(4) -0.1403(3) 0.3599(3)
C2B C 0.8111(5) -0.1068(3) 0.4582(3)
C3B C 0.7644(5) -0.0067(3) 0.4807(3)
H2B H 0.7611 0.0161 0.5489
C4B C 0.7230(5) 0.0573(3) 0.3971(3)
C5B C 0.6636(5) 0.1671(3) 0.4108(3)
O1B O 0.6433(4) 0.2214(2) 0.3290(2)
O2B O 0.6367(4) 0.1963(2) 0.4998(2)
C6B C 0.8601(5) -0.1852(3) 0.5426(3)
O3B O 0.8794(4) -0.2754(2) 0.5099(2)
O4B O 0.8771(4) -0.1561(2) 0.6341(2)
O7B O 0.3920(4) 0.0683(2) 0.2630(2)
O8B O 0.3573(4) 0.2722(2) 0.1700(2)
O9B O 0.9004(4) 0.1766(2) 0.1713(2)
H3B H 0.3056 0.0972 0.2874
H4B H 0.3503 0.0134 0.2347
H5B H 0.2804 0.2773 0.1197
H6B H 0.3335 0.3217 0.2106
H7B H 0.9808 0.1722 0.2197
H8B H 0.9473 0.1572 0.1169
Y1A Y 0.09677(5) 0.33538(3) -0.33715(3)
Y1C Y 0.90323(5) -0.33538(3) 0.33715(3)
N2A N 0.3156(4) -0.3597(3) -0.1401(3)
N2C N 0.6844(4) 0.3597(3) 0.1401(3)
O3A O 0.3794(4) -0.2246(2) 0.0099(2)
O3C O 0.6206(4) 0.2246(2) -0.0099(2)
O10 O 0.0105(4) 0.1073(2) -0.0184(2)
O11 O 0.2462(4) -0.1087(2) 0.1718(2)
loop_
_geom_bond_atom_site_label_1
_geom_bond_atom_site_label_2
_geom_bond_site_symmetry_1
_geom_bond_site_symmetry_2
Y1 N1 1_555 1_555
N1 C1 1_555 1_555
C1 H1 1_555 1_555
N2 C1 1_555 1_555
C2 N2 1_555 1_555
C3 C2 1_555 1_555
H2 C3 1_555 1_555
C4 N1 1_555 1_555
C5 C4 1_555 1_555
O1 Y1 1_555 1_555
O2 C5 1_555 1_555
C6 C2 1_555 1_555
O3 C6 1_555 1_555
O4 C6 1_555 1_555
O5 Y1 1_555 1_555
C7 O5 1_555 1_555
O6 C7 1_555 1_555
O7 Y1 1_555 1_555
O8 Y1 1_555 1_555
O9 Y1 1_555 1_555
H3 O7 1_555 1_555
H4 O7 1_555 1_555
H5 O8 1_555 1_555
H6 O8 1_555 1_555
H7 O9 1_555 1_555
H8 O9 1_555 1_555
O5B C7B 1_555 1_555
C7B C7 1_555 1_555
O6B Y1 1_555 1_555
Y1B O6 1_555 1_555
N1B Y1B 1_555 1_555
C1B N1B 1_555 1_555
H1B C1B 1_555 1_555
N2B C1B 1_555 1_555
C2B N2B 1_555 1_555
C3B C2B 1_555 1_555
H2B C3B 1_555 1_555
C4B N1B 1_555 1_555
C5B C4B 1_555 1_555
O1B Y1B 1_555 1_555
O2B C5B 1_555 1_555
C6B C2B 1_555 1_555
O3B C6B 1_555 1_555
O4B C6B 1_555 1_555
O7B Y1B 1_555 1_555
O8B Y1B 1_555 1_555
O9B Y1B 1_555 1_555
H3B O7B 1_555 1_555
H4B O7B 1_555 1_555
H5B O8B 1_555 1_555
H6B O8B 1_555 1_555
H7B O9B 1_555 1_555
H8B O9B 1_555 1_555
Y1A N2 1_555 1_555
Y1C N2B 1_555 1_555
N2A Y1 1_555 1_555
N2C Y1B 1_555 1_555
O3A Y1 1_555 1_555
O3C Y1B 1_555 1_555
C3 C4 1_555 1_555
C5 O1 1_555 1_555
O3 Y1A 1_555 1_555
O5B Y1B 1_555 1_555
C7B O6B 1_555 1_555
C3B C4B 1_555 1_555
C5B O1B 1_555 1_555
O3B Y1C 1_555 1_555

#END
