
#######################################################################
#
#                 Cambridge Crystallographic Data Centre
#                                CCDC 
#
#######################################################################
#
# If this CIF has been generated from an entry in the Cambridge 
# Structural Database, then it will include bibliographic, chemical, 
# crystal, experimental, refinement or atomic coordinate data resulting 
# from the CCDC's data processing and validation procedures.
#
#######################################################################

data_XUCTUL
_symmetry_cell_setting           monoclinic
_symmetry_space_group_name_H-M   'C 2/c'
_symmetry_Int_Tables_number      15
_space_group_name_Hall           '-C 2yn'
loop_
_symmetry_equiv_pos_site_id
_symmetry_equiv_pos_as_xyz
1 x,y,z
2 -x,y,1/2-z
3 1/2+x,1/2+y,z
4 1/2-x,1/2+y,1/2-z
5 -x,-y,-z
6 x,-y,1/2+z
7 1/2-x,1/2-y,-z
8 1/2+x,1/2-y,1/2+z
_cell_length_a                   20.274(4)
_cell_length_b                   16.621(3)
_cell_length_c                   9.5179(19)
_cell_angle_alpha                90
_cell_angle_beta                 94.83(3)
_cell_angle_gamma                90
_cell_volume                     3195.9
loop_
_atom_site_label
_atom_site_type_symbol
_atom_site_fract_x
_atom_site_fract_y
_atom_site_fract_z
Ni1 Ni 0.2500 0.2500 0.5000
Fe1 Fe 0.11351(2) 0.14541(2) 0.94655(5)
O1 O 0.24623(10) 0.18674(12) 0.6908(2)
N1 N 0.28036(12) 0.14403(13) 0.4070(3)
N2 N 0.30756(15) 0.05210(17) 0.2489(3)
N3 N 0.33769(13) 0.03555(14) 0.3783(3)
S1 S 0.13897(4) 0.19308(5) 0.52469(9)
C1 C 0.03953(18) 0.2301(2) 0.9437(4)
H1 H 0.0011 0.2336 0.8742
C2 C 0.04248(19) 0.1869(2) 1.0714(4)
H2 H 0.0066 0.1550 1.1059
C3 C 0.1061(2) 0.1971(3) 1.1405(4)
H3 H 0.1221 0.1739 1.2317
C4 C 0.14289(19) 0.2467(2) 1.0551(5)
H4 H 0.1887 0.2645 1.0771
C5 C 0.10147(19) 0.2668(2) 0.9328(4)
H5 H 0.1135 0.3010 0.8552
C6 C 0.09594(18) 0.07390(18) 0.7731(4)
H6 H 0.0601 0.0809 0.6982
C7 C 0.0928(2) 0.02755(19) 0.8964(4)
H7 H 0.0542 -0.0028 0.9224
C8 C 0.1552(2) 0.03299(19) 0.9779(4)
H8 H 0.1666 0.0073 1.0694
C9 C 0.19675(18) 0.08321(17) 0.9056(4)
H9 H 0.2423 0.0981 0.9375
C10 C 0.16069(16) 0.10939(16) 0.7765(3)
C11 C 0.18671(15) 0.16367(16) 0.6720(3)
C12 C 0.27357(17) 0.11739(19) 0.2730(4)
H10 H 0.2468 0.1432 0.2027
C13 C 0.32068(17) 0.09027(19) 0.4700(4)
H11 H 0.3351 0.0907 0.5654
C14 C 0.38062(18) -0.0339(2) 0.4021(4)
H12 H 0.3560 -0.0821 0.3739
H13 H 0.3940 -0.0382 0.5021
C15 C 0.44230(16) -0.02951(17) 0.3213(4)
C16 C 0.47103(19) -0.10049(19) 0.2850(5)
C17 C 0.47166(16) 0.04103(17) 0.2859(4)
H14 H 0.4532 0.0898 0.3105
H15 H 0.4639 -0.1452 0.3353
Ni1A Ni 0.7500 0.2500 0.0000
Fe1F Fe 0.38649(2) 0.35459(2) 0.05345(5)
O1F O 0.25377(10) 0.31326(12) 0.3092(2)
N1A N 0.71964(12) 0.14403(13) 0.0930(3)
N1F N 0.21964(12) 0.35597(13) 0.5930(3)
N2A N 0.69244(15) 0.05210(17) 0.2511(3)
N3A N 0.66231(13) 0.03555(14) 0.1217(3)
S1F S 0.36103(4) 0.30692(5) 0.47531(9)
C1F C 0.46047(18) 0.2699(2) 0.0563(4)
H1F H 0.4989 0.2664 0.1258
C2F C 0.45752(19) 0.3131(2) -0.0714(4)
H2F H 0.4934 0.3450 -0.1059
C3F C 0.3939(2) 0.3029(3) -0.1405(4)
H3F H 0.3779 0.3261 -0.2317
C4F C 0.35711(19) 0.2533(2) -0.0551(5)
H4F H 0.3113 0.2355 -0.0771
C5F C 0.39853(19) 0.2332(2) 0.0672(4)
H5F H 0.3865 0.1990 0.1448
C6F C 0.40406(18) 0.42610(18) 0.2269(4)
H6F H 0.4399 0.4191 0.3018
C7F C 0.4072(2) 0.47245(19) 0.1036(4)
H7F H 0.4458 0.5028 0.0776
C8F C 0.3448(2) 0.46701(19) 0.0221(4)
H8F H 0.3334 0.4927 -0.0694
C9F C 0.30325(18) 0.41679(17) 0.0944(4)
H9F H 0.2577 0.4019 0.0625
C10F C 0.33931(16) 0.39061(16) 0.2235(3)
C11F C 0.31329(15) 0.33633(16) 0.3280(3)
C12A C 0.72643(17) 0.11739(19) 0.2270(4)
H10A H 0.7532 0.1432 0.2973
C13A C 0.67932(17) 0.09027(19) 0.0300(4)
H11A H 0.6649 0.0907 -0.0654
C14A C 0.61938(18) -0.0339(2) 0.0979(4)
H12A H 0.6440 -0.0821 0.1261
H13A H 0.6060 -0.0382 -0.0021
C15A C 0.55770(16) -0.02951(17) 0.1787(4)
C16A C 0.52897(19) -0.10049(19) 0.2150(5)
C17A C 0.52834(16) 0.04103(17) 0.2141(4)
H14A H 0.5468 0.0898 0.1895
H15A H 0.5361 -0.1452 0.1647
loop_
_geom_bond_atom_site_label_1
_geom_bond_atom_site_label_2
_geom_bond_site_symmetry_1
_geom_bond_site_symmetry_2
Ni1 O1 1_555 1_555
Fe1 C1 1_555 1_555
O1 C11 1_555 1_555
N1 Ni1 1_555 1_555
N2 N3 1_555 1_555
N3 C13 1_555 1_555
S1 Ni1 1_555 1_555
C1 H1 1_555 1_555
C2 Fe1 1_555 1_555
H2 C2 1_555 1_555
C3 Fe1 1_555 1_555
H3 C3 1_555 1_555
C4 Fe1 1_555 1_555
H4 C4 1_555 1_555
C5 Fe1 1_555 1_555
H5 C5 1_555 1_555
C6 Fe1 1_555 1_555
H6 C6 1_555 1_555
C7 Fe1 1_555 1_555
H7 C7 1_555 1_555
C8 Fe1 1_555 1_555
H8 C8 1_555 1_555
C9 Fe1 1_555 1_555
H9 C9 1_555 1_555
C10 Fe1 1_555 1_555
C11 S1 1_555 1_555
C12 N1 1_555 1_555
H10 C12 1_555 1_555
C13 N1 1_555 1_555
H11 C13 1_555 1_555
C14 N3 1_555 1_555
H12 C14 1_555 1_555
H13 C14 1_555 1_555
C15 C14 1_555 1_555
C16 C15 1_555 1_555
C17 C15 1_555 1_555
H14 C17 1_555 1_555
H15 C16 1_555 1_555
Ni1A N1A 1_555 1_555
Fe1F C1F 1_555 1_555
O1F Ni1 1_555 1_555
N1A C12A 1_555 1_555
N1F Ni1 1_555 1_555
N2A N3A 1_555 1_555
N3A C13A 1_555 1_555
S1F Ni1 1_555 1_555
C1F H1F 1_555 1_555
C2F Fe1F 1_555 1_555
H2F C2F 1_555 1_555
C3F Fe1F 1_555 1_555
H3F C3F 1_555 1_555
C4F Fe1F 1_555 1_555
H4F C4F 1_555 1_555
C5F Fe1F 1_555 1_555
H5F C5F 1_555 1_555
C6F Fe1F 1_555 1_555
H6F C6F 1_555 1_555
C7F Fe1F 1_555 1_555
H7F C7F 1_555 1_555
C8F Fe1F 1_555 1_555
H8F C8F 1_555 1_555
C9F Fe1F 1_555 1_555
H9F C9F 1_555 1_555
C10F Fe1F 1_555 1_555
C11F O1F 1_555 1_555
C12A N2A 1_555 1_555
H10A C12A 1_555 1_555
C13A N1A 1_555 1_555
H11A C13A 1_555 1_555
C14A N3A 1_555 1_555
H12A C14A 1_555 1_555
H13A C14A 1_555 1_555
C15A C14A 1_555 1_555
C16A C16 1_555 1_555
C17A C17 1_555 1_555
H14A C17A 1_555 1_555
H15A C16A 1_555 1_555
N2 C12 1_555 1_555
C1 C2 1_555 1_555
C1 C5 1_555 1_555
C2 C3 1_555 1_555
C3 C4 1_555 1_555
C4 C5 1_555 1_555
C6 C7 1_555 1_555
C6 C10 1_555 1_555
C7 C8 1_555 1_555
C8 C9 1_555 1_555
C9 C10 1_555 1_555
C10 C11 1_555 1_555
S1F C11F 1_555 1_555
C1F C2F 1_555 1_555
C1F C5F 1_555 1_555
C2F C3F 1_555 1_555
C3F C4F 1_555 1_555
C4F C5F 1_555 1_555
C6F C7F 1_555 1_555
C6F C10F 1_555 1_555
C7F C8F 1_555 1_555
C8F C9F 1_555 1_555
C9F C10F 1_555 1_555
C10F C11F 1_555 1_555
C15A C16A 1_555 1_555
C15A C17A 1_555 1_555

#END
