
#######################################################################
#
#                 Cambridge Crystallographic Data Centre
#                                CCDC 
#
#######################################################################
#
# If this CIF has been generated from an entry in the Cambridge 
# Structural Database, then it will include bibliographic, chemical, 
# crystal, experimental, refinement or atomic coordinate data resulting 
# from the CCDC's data processing and validation procedures.
#
#######################################################################

data_XUCVAT
_symmetry_cell_setting           monoclinic
_symmetry_space_group_name_H-M   'C 2/c'
_symmetry_Int_Tables_number      15
_space_group_name_Hall           '-C 2yn'
loop_
_symmetry_equiv_pos_site_id
_symmetry_equiv_pos_as_xyz
1 x,y,z
2 -x,y,1/2-z
3 1/2+x,1/2+y,z
4 1/2-x,1/2+y,1/2-z
5 -x,-y,-z
6 x,-y,1/2+z
7 1/2-x,1/2-y,-z
8 1/2+x,1/2-y,1/2+z
_cell_length_a                   20.291(4)
_cell_length_b                   16.646(3)
_cell_length_c                   9.5287(19)
_cell_angle_alpha                90
_cell_angle_beta                 95.00(3)
_cell_angle_gamma                90
_cell_volume                     3206.2
loop_
_atom_site_label
_atom_site_type_symbol
_atom_site_fract_x
_atom_site_fract_y
_atom_site_fract_z
Co1 Co 0.2500 0.2500 0.5000
Fe1 Fe 0.11362(2) 0.14448(2) 0.94701(5)
S1 S 0.13790(5) 0.19302(6) 0.52809(10)
O1 O 0.24595(11) 0.18523(12) 0.6919(2)
N1 N 0.21967(13) 0.35847(13) 0.5960(3)
N2 N 0.19129(15) 0.44845(16) 0.7549(3)
N3 N 0.16251(13) 0.46628(14) 0.6255(3)
C1 C 0.1016(2) 0.26562(19) 0.9335(4)
H1 H 0.1137 0.2997 0.8559
C2 C 0.03941(19) 0.2289(2) 0.9436(4)
H2 H 0.0009 0.2325 0.8743
C3 C 0.0431(2) 0.1854(2) 1.0715(4)
H3 H 0.0075 0.1532 1.1063
C4 C 0.1067(2) 0.1958(2) 1.1397(4)
H4 H 0.1228 0.1722 1.2305
C5 C 0.1434(2) 0.2454(2) 1.0562(4)
H5 H 0.1892 0.2632 1.0786
C6 C 0.09544(18) 0.07385(18) 0.7731(4)
H6 H 0.0597 0.0811 0.6982
C7 C 0.0928(2) 0.02676(19) 0.8961(4)
H7 H 0.0542 -0.0035 0.9221
C8 C 0.1548(2) 0.03236(19) 0.9774(4)
H8 H 0.1662 0.0066 1.0688
C9 C 0.19655(18) 0.08228(17) 0.9057(3)
H9 H 0.2422 0.0967 0.9376
C10 C 0.16043(16) 0.10826(16) 0.7771(3)
C11 C 0.18620(17) 0.16231(16) 0.6734(3)
C12 C 0.22526(17) 0.38343(19) 0.7307(4)
H10 H 0.2512 0.3568 0.8013
C13 C 0.18016(17) 0.41304(18) 0.5338(3)
H11 H 0.1666 0.4138 0.4380
C14 C 0.11985(18) 0.53639(19) 0.6014(4)
H12 H 0.1448 0.5843 0.6300
H13 H 0.1066 0.5409 0.5014
C15 C 0.05823(16) 0.53248(17) 0.6812(4)
C16 C 0.02879(19) 0.60294(18) 0.7159(5)
C17 C 0.02845(17) 0.46103(17) 0.7150(4)
H14 H 0.0469 0.4125 0.6902
H15 H 0.0519 0.6510 0.6949
Co1A Co -0.2500 0.2500 1.0000
Fe1F Fe 0.38638(2) 0.35552(2) 0.05299(5)
S1F S 0.36210(5) 0.30698(6) 0.47191(10)
O1F O 0.25405(11) 0.31477(12) 0.3081(2)
N1A N -0.21967(13) 0.35847(13) 0.9040(3)
N1F N 0.28033(13) 0.14153(13) 0.4040(3)
N2A N -0.19129(15) 0.44845(16) 0.7451(3)
N3A N -0.16251(13) 0.46628(14) 0.8745(3)
C1F C 0.3984(2) 0.23438(19) 0.0665(4)
H1F H 0.3863 0.2003 0.1441
C2F C 0.46059(19) 0.2711(2) 0.0564(4)
H2F H 0.4991 0.2675 0.1257
C3F C 0.4569(2) 0.3146(2) -0.0715(4)
H3F H 0.4925 0.3468 -0.1063
C4F C 0.3933(2) 0.3042(2) -0.1397(4)
H4F H 0.3772 0.3278 -0.2305
C5F C 0.3566(2) 0.2546(2) -0.0562(4)
H5F H 0.3108 0.2368 -0.0786
C6F C 0.40456(18) 0.42615(18) 0.2269(4)
H6F H 0.4403 0.4189 0.3018
C7F C 0.4072(2) 0.47324(19) 0.1039(4)
H7F H 0.4458 0.5035 0.0779
C8F C 0.3452(2) 0.46764(19) 0.0226(4)
H8F H 0.3338 0.4934 -0.0688
C9F C 0.30345(18) 0.41772(17) 0.0943(3)
H9F H 0.2578 0.4033 0.0624
C10F C 0.33957(16) 0.39174(16) 0.2229(3)
C11F C 0.31380(17) 0.33769(16) 0.3266(3)
C12A C -0.22526(17) 0.38343(19) 0.7693(4)
H10A H -0.2512 0.3568 0.6987
C13A C -0.18016(17) 0.41304(18) 0.9662(3)
H11A H -0.1666 0.4138 1.0620
C14A C -0.11985(18) 0.53639(19) 0.8986(4)
H12A H -0.1448 0.5843 0.8700
H13A H -0.1066 0.5409 0.9986
C15A C -0.05823(16) 0.53248(17) 0.8188(4)
C16A C -0.02879(19) 0.60294(18) 0.7841(5)
C17A C -0.02845(17) 0.46103(17) 0.7850(4)
H14A H -0.0469 0.4125 0.8098
H15A H -0.0519 0.6510 0.8051
loop_
_geom_bond_atom_site_label_1
_geom_bond_atom_site_label_2
_geom_bond_site_symmetry_1
_geom_bond_site_symmetry_2
Co1 S1 1_555 1_555
Fe1 C1 1_555 1_555
S1 C11 1_555 1_555
O1 Co1 1_555 1_555
N1 Co1 1_555 1_555
N2 N3 1_555 1_555
N3 C13 1_555 1_555
C1 H1 1_555 1_555
C2 Fe1 1_555 1_555
H2 C2 1_555 1_555
C3 Fe1 1_555 1_555
H3 C3 1_555 1_555
C4 Fe1 1_555 1_555
H4 C4 1_555 1_555
C5 Fe1 1_555 1_555
H5 C5 1_555 1_555
C6 Fe1 1_555 1_555
H6 C6 1_555 1_555
C7 Fe1 1_555 1_555
H7 C7 1_555 1_555
C8 Fe1 1_555 1_555
H8 C8 1_555 1_555
C9 Fe1 1_555 1_555
H9 C9 1_555 1_555
C10 Fe1 1_555 1_555
C11 O1 1_555 1_555
C12 N1 1_555 1_555
H10 C12 1_555 1_555
C13 N1 1_555 1_555
H11 C13 1_555 1_555
C14 N3 1_555 1_555
H12 C14 1_555 1_555
H13 C14 1_555 1_555
C15 C14 1_555 1_555
C16 C15 1_555 1_555
C17 C15 1_555 1_555
H14 C17 1_555 1_555
H15 C16 1_555 1_555
Co1A N1A 1_555 1_555
Fe1F C1F 1_555 1_555
S1F Co1 1_555 1_555
O1F Co1 1_555 1_555
N1A C12A 1_555 1_555
N1F Co1 1_555 1_555
N2A N3A 1_555 1_555
N3A C13A 1_555 1_555
C1F H1F 1_555 1_555
C2F Fe1F 1_555 1_555
H2F C2F 1_555 1_555
C3F Fe1F 1_555 1_555
H3F C3F 1_555 1_555
C4F Fe1F 1_555 1_555
H4F C4F 1_555 1_555
C5F Fe1F 1_555 1_555
H5F C5F 1_555 1_555
C6F Fe1F 1_555 1_555
H6F C6F 1_555 1_555
C7F Fe1F 1_555 1_555
H7F C7F 1_555 1_555
C8F Fe1F 1_555 1_555
H8F C8F 1_555 1_555
C9F Fe1F 1_555 1_555
H9F C9F 1_555 1_555
C10F Fe1F 1_555 1_555
C11F S1F 1_555 1_555
C12A N2A 1_555 1_555
H10A C12A 1_555 1_555
C13A N1A 1_555 1_555
H11A C13A 1_555 1_555
C14A N3A 1_555 1_555
H12A C14A 1_555 1_555
H13A C14A 1_555 1_555
C15A C14A 1_555 1_555
C16A C16 1_555 1_555
C17A C17 1_555 1_555
H14A C17A 1_555 1_555
H15A C16A 1_555 1_555
N2 C12 1_555 1_555
C1 C2 1_555 1_555
C1 C5 1_555 1_555
C2 C3 1_555 1_555
C3 C4 1_555 1_555
C4 C5 1_555 1_555
C6 C7 1_555 1_555
C6 C10 1_555 1_555
C7 C8 1_555 1_555
C8 C9 1_555 1_555
C9 C10 1_555 1_555
C10 C11 1_555 1_555
O1F C11F 1_555 1_555
C1F C2F 1_555 1_555
C1F C5F 1_555 1_555
C2F C3F 1_555 1_555
C3F C4F 1_555 1_555
C4F C5F 1_555 1_555
C6F C7F 1_555 1_555
C6F C10F 1_555 1_555
C7F C8F 1_555 1_555
C8F C9F 1_555 1_555
C9F C10F 1_555 1_555
C10F C11F 1_555 1_555
C15A C16A 1_555 1_555
C15A C17A 1_555 1_555

#END
