
#######################################################################
#
#                 Cambridge Crystallographic Data Centre
#                                CCDC 
#
#######################################################################
#
# If this CIF has been generated from an entry in the Cambridge 
# Structural Database, then it will include bibliographic, chemical, 
# crystal, experimental, refinement or atomic coordinate data resulting 
# from the CCDC's data processing and validation procedures.
#
#######################################################################

data_XUCXID
_symmetry_cell_setting           monoclinic
_symmetry_space_group_name_H-M   'P 21/n'
_symmetry_Int_Tables_number      14
_space_group_name_Hall           '-P 2yn'
loop_
_symmetry_equiv_pos_site_id
_symmetry_equiv_pos_as_xyz
1 x,y,z
2 1/2-x,1/2+y,1/2-z
3 -x,-y,-z
4 1/2+x,1/2-y,1/2+z
_cell_length_a                   13.7143(8)
_cell_length_b                   10.8566(7)
_cell_length_c                   13.9639(9)
_cell_angle_alpha                90
_cell_angle_beta                 116.297(1)
_cell_angle_gamma                90
_cell_volume                     1863.93
loop_
_atom_site_label
_atom_site_type_symbol
_atom_site_fract_x
_atom_site_fract_y
_atom_site_fract_z
Gd1 Gd 0.113526(19) 0.26690(2) 0.12084(2)
O1 O 0.0352(3) 0.4270(3) 0.1729(3)
O2 O -0.0129(3) 0.6080(3) 0.2074(3)
O3 O 0.2385(3) 0.6113(3) 0.3171(3)
O4 O 0.2856(4) 0.6962(4) 0.4724(3)
O5 O -0.0751(3) 0.3347(3) 0.3063(3)
O6 O 0.1072(3) 0.1758(3) 0.2794(3)
O7 O -0.0419(3) 0.1653(4) 0.1311(3)
O8 O 0.0223(3) -0.0959(3) 0.2292(3)
O9 O -0.0580(4) -0.2151(3) 0.3006(4)
H1 H -0.0352 -0.2696 0.2751
O10 O 0.2651(3) 0.3779(3) 0.2476(3)
H2 H 0.3322 0.3815 0.2625
H3 H 0.2519 0.4381 0.2790
O11 O 0.1356(3) 0.4427(3) 0.0237(3)
H4 H 0.1630 0.5104 0.0545
H5 H 0.0942 0.4557 -0.0420
O12 O -0.0308(3) 0.2696(4) -0.0544(3)
H6 H -0.0948 0.2842 -0.0621
H7 H -0.0183 0.2711 -0.1088
O13 O 0.0532(6) 0.0434(7) 0.0385(7)
H8 H 0.0727 0.0322 -0.0108
H9 H 0.0833 -0.0102 0.0872
C1 C 0.0301(4) 0.5045(4) 0.2362(4)
C2 C 0.0747(4) 0.4701(4) 0.3538(4)
C3 C 0.0199(4) 0.3838(4) 0.3857(4)
C4 C 0.0582(4) 0.3519(4) 0.4928(4)
H12 H 0.0210 0.2941 0.5132
C5 C 0.1505(4) 0.4057(5) 0.5679(4)
H13 H 0.1762 0.3839 0.6394
C6 C 0.2056(4) 0.4918(4) 0.5383(4)
H14 H 0.2686 0.5277 0.5898
C7 C 0.1674(4) 0.5252(4) 0.4319(4)
C8 C 0.2342(4) 0.6156(5) 0.4047(4)
C9 C -0.0991(4) 0.2139(4) 0.3253(4)
C10 C -0.1673(4) 0.1941(5) 0.3716(4)
H15 H -0.1976 0.2603 0.3910
C11 C -0.1904(5) 0.0757(5) 0.3890(5)
H16 H -0.2358 0.0616 0.4214
C12 C -0.1468(4) -0.0218(5) 0.3588(4)
H17 H -0.1625 -0.1018 0.3715
C13 C -0.0794(4) -0.0024(4) 0.3095(4)
C14 C -0.0563(4) 0.1178(4) 0.2908(4)
C15 C 0.0080(4) 0.1520(4) 0.2296(4)
C16 C -0.0333(4) -0.1088(5) 0.2757(4)
Gd1A Gd 0.386474(19) 0.76690(2) 0.37916(2)
O3A O 0.2615(3) 0.1113(3) 0.1829(3)
O4A O 0.2144(4) 0.1962(4) 0.0276(3)
O14 O 0.7789(3) 0.3196(4) 0.9740(3)
H10 H 0.7158 0.2936 0.9321
H11 H 0.8047 0.2617 1.0194
loop_
_geom_bond_atom_site_label_1
_geom_bond_atom_site_label_2
_geom_bond_site_symmetry_1
_geom_bond_site_symmetry_2
Gd1 O1 1_555 1_555
O1 C1 1_555 1_555
O2 C1 1_555 1_555
O3 C8 1_555 1_555
O4 C8 1_555 1_555
O5 C3 1_555 1_555
O6 Gd1 1_555 1_555
O7 Gd1 1_555 1_555
O8 C16 1_555 1_555
O9 H1 1_555 1_555
O10 Gd1 1_555 1_555
H2 O10 1_555 1_555
H3 O10 1_555 1_555
O11 Gd1 1_555 1_555
H4 O11 1_555 1_555
H5 O11 1_555 1_555
O12 Gd1 1_555 1_555
H6 O12 1_555 1_555
H7 O12 1_555 1_555
O13 Gd1 1_555 1_555
H8 O13 1_555 1_555
H9 O13 1_555 1_555
O14 H10 1_555 1_555
H11 O14 1_555 1_555
C1 C2 1_555 1_555
C2 C3 1_555 1_555
C3 C4 1_555 1_555
C4 H12 1_555 1_555
C5 C4 1_555 1_555
H13 C5 1_555 1_555
C6 C5 1_555 1_555
H14 C6 1_555 1_555
C7 C2 1_555 1_555
C8 C7 1_555 1_555
C9 O5 1_555 1_555
C10 C9 1_555 1_555
H15 C10 1_555 1_555
C11 C10 1_555 1_555
H16 C11 1_555 1_555
C12 C11 1_555 1_555
H17 C12 1_555 1_555
C13 C12 1_555 1_555
C14 C9 1_555 1_555
C15 O6 1_555 1_555
C16 O9 1_555 1_555
Gd1A O3 1_555 1_555
O3A Gd1 1_555 1_555
O4A Gd1 1_555 1_555
O4 Gd1A 1_555 1_555
O7 C15 1_555 1_555
C6 C7 1_555 1_555
C13 C14 1_555 1_555
C13 C16 1_555 1_555
C14 C15 1_555 1_555

#END
