
#######################################################################
#
#                 Cambridge Crystallographic Data Centre
#                                CCDC 
#
#######################################################################
#
# If this CIF has been generated from an entry in the Cambridge 
# Structural Database, then it will include bibliographic, chemical, 
# crystal, experimental, refinement or atomic coordinate data resulting 
# from the CCDC's data processing and validation procedures.
#
#######################################################################

data_XUCXAV
_symmetry_cell_setting           monoclinic
_symmetry_space_group_name_H-M   'P 21/c'
_symmetry_Int_Tables_number      14
_space_group_name_Hall           '-P 2ybc'
loop_
_symmetry_equiv_pos_site_id
_symmetry_equiv_pos_as_xyz
1 x,y,z
2 -x,1/2+y,1/2-z
3 -x,-y,-z
4 x,1/2-y,1/2+z
_cell_length_a                   11.5127(5)
_cell_length_b                   8.3083(3)
_cell_length_c                   20.5942(8)
_cell_angle_alpha                90
_cell_angle_beta                 90.056(1)
_cell_angle_gamma                90
_cell_volume                     1969.85
loop_
_atom_site_label
_atom_site_type_symbol
_atom_site_fract_x
_atom_site_fract_y
_atom_site_fract_z
Ba1 Ba 0.529410(12) -0.02075(2) 0.382560(7)
C1 C 0.19925(19) 0.3376(3) 0.44976(12)
C2 C 0.2047(2) 0.4227(3) 0.50810(12)
C3 C 0.1574(2) 0.5768(3) 0.51301(13)
H1 H 0.1613 0.6327 0.5521
C4 C 0.1046(2) 0.6463(3) 0.45950(14)
H2 H 0.0751 0.7503 0.4623
C5 C 0.0955(2) 0.5613(4) 0.40188(14)
H3 H 0.0585 0.6073 0.3663
C6 C 0.1418(2) 0.4078(3) 0.39726(11)
C7 C 0.0735(2) 0.3670(3) 0.28862(12)
C8 C 0.1343(2) 0.4058(3) 0.23300(12)
C9 C 0.0708(2) 0.4408(3) 0.17643(12)
C10 C -0.0501(2) 0.4397(4) 0.17777(13)
H4 H -0.0918 0.4634 0.1403
C11 C -0.1082(2) 0.4034(4) 0.23454(14)
H5 H -0.1889 0.4045 0.2353
C12 C -0.0469(2) 0.3654(4) 0.29038(13)
H6 H -0.0859 0.3392 0.3285
C13 C 0.2569(2) 0.1743(3) 0.44030(11)
C14 C 0.2652(2) 0.3494(3) 0.56459(12)
C15 C 0.2657(2) 0.4060(3) 0.23511(12)
C16 C 0.1334(2) 0.4827(3) 0.11537(14)
O1 O 0.34971(16) 0.1754(2) 0.40895(10)
O2 O 0.20977(16) 0.0502(2) 0.46308(9)
O3 O 0.34644(16) 0.2569(3) 0.55787(9)
O4 O 0.22288(18) 0.3910(3) 0.62116(9)
H7 H 0.2586 0.3443 0.6500
O5 O 0.31919(15) 0.2928(3) 0.20621(9)
O6 O 0.3146(2) 0.5164(3) 0.26469(14)
O7 O 0.07606(18) 0.4480(3) 0.06240(10)
H8 H 0.1183 0.4612 0.0308
O8 O 0.22982(17) 0.5422(3) 0.11551(10)
O9 O 0.13773(16) 0.3140(2) 0.34180(8)
O10 O 0.4448(3) 0.0233(3) 0.25609(14)
H9 H 0.5015 0.0317 0.2299
O11 O 0.6091(3) 0.2856(4) 0.33859(19)
H10 H 0.6825 0.2773 0.3410
O12 O 0.40173(17) -0.1316(3) 0.49766(10)
H11 H 0.4241 -0.2271 0.5056
O13 O 0.3990(4) -0.2922(5) 0.36308(18)
H13 H 0.398(4) 0.103(5) 0.260(3)
H14 H 0.331(2) -0.136(8) 0.490(3)
H16 H 0.336(4) -0.242(8) 0.350(3)
H17 H 0.413(6) -0.372(6) 0.389(3)
H18 H 0.552(4) 0.334(7) 0.319(3)
Ba1B Ba 0.470590(12) 0.02075(2) 0.617440(7)
Ba1A Ba 0.470590(12) 0.47925(2) 0.117440(7)
O3B O 0.65356(16) -0.2569(3) 0.44213(9)
O5A O 0.68081(15) -0.2072(3) 0.29379(9)
O8A O 0.77018(17) 0.0422(3) 0.38449(10)
O12B O 0.59827(17) 0.1316(3) 0.50234(10)
H11B H 0.5759 0.2271 0.4944
H14B H 0.669(2) 0.136(8) 0.510(3)
O14 O 0.4861(4) 0.4478(5) 0.4382(2)
H12 H 0.5561 0.4361 0.4505
H15 H 0.422(3) 0.397(7) 0.436(3)
loop_
_geom_bond_atom_site_label_1
_geom_bond_atom_site_label_2
_geom_bond_site_symmetry_1
_geom_bond_site_symmetry_2
Ba1 O1 1_555 1_555
C1 C2 1_555 1_555
C2 C3 1_555 1_555
C3 H1 1_555 1_555
C4 C3 1_555 1_555
H2 C4 1_555 1_555
C5 C4 1_555 1_555
H3 C5 1_555 1_555
C6 C1 1_555 1_555
C7 C8 1_555 1_555
C8 C9 1_555 1_555
C9 C10 1_555 1_555
C10 H4 1_555 1_555
C11 C10 1_555 1_555
H5 C11 1_555 1_555
C12 C7 1_555 1_555
H6 C12 1_555 1_555
C13 C1 1_555 1_555
C14 C2 1_555 1_555
C15 C8 1_555 1_555
C16 C9 1_555 1_555
O1 C13 1_555 1_555
O2 C13 1_555 1_555
O3 C14 1_555 1_555
O4 C14 1_555 1_555
H7 O4 1_555 1_555
O5 C15 1_555 1_555
O6 C15 1_555 1_555
O7 C16 1_555 1_555
H8 O7 1_555 1_555
O8 C16 1_555 1_555
O9 C6 1_555 1_555
O10 Ba1 1_555 1_555
H9 O10 1_555 1_555
O11 Ba1 1_555 1_555
H10 O11 1_555 1_555
O12 Ba1 1_555 1_555
H11 O12 1_555 1_555
O13 Ba1 1_555 1_555
O14 H12 1_555 1_555
H13 O10 1_555 1_555
H14 O12 1_555 1_555
H15 O14 1_555 1_555
H16 O13 1_555 1_555
H17 O13 1_555 1_555
H18 O11 1_555 1_555
Ba1B O3 1_555 1_555
Ba1A O5 1_555 1_555
O3B Ba1 1_555 1_555
O5A Ba1 1_555 1_555
O8A Ba1 1_555 1_555
O12B Ba1 1_555 1_555
H11B O12B 1_555 1_555
H14B O12B 1_555 1_555
C5 C6 1_555 1_555
C7 O9 1_555 1_555
C11 C12 1_555 1_555
O8 Ba1A 1_555 1_555
O12 Ba1B 1_555 1_555
Ba1B O12B 1_555 1_555

#END
