
#######################################################################
#
#                 Cambridge Crystallographic Data Centre
#                                CCDC 
#
#######################################################################
#
# If this CIF has been generated from an entry in the Cambridge 
# Structural Database, then it will include bibliographic, chemical, 
# crystal, experimental, refinement or atomic coordinate data resulting 
# from the CCDC's data processing and validation procedures.
#
#######################################################################

data_XUDHAG
_symmetry_cell_setting           triclinic
_symmetry_space_group_name_H-M   'P -1'
_symmetry_Int_Tables_number      2
_space_group_name_Hall           '-P 1'
loop_
_symmetry_equiv_pos_site_id
_symmetry_equiv_pos_as_xyz
1 x,y,z
2 -x,-y,-z
_cell_length_a                   7.7806(16)
_cell_length_b                   9.0670(18)
_cell_length_c                   11.171(2)
_cell_angle_alpha                102.56(3)
_cell_angle_beta                 95.18(3)
_cell_angle_gamma                110.26(3)
_cell_volume                     709.73
loop_
_atom_site_label
_atom_site_type_symbol
_atom_site_fract_x
_atom_site_fract_y
_atom_site_fract_z
Hg1 Hg 0.44474(4) 1.06857(3) 0.70526(3)
C1 C 0.3744(10) 0.7155(8) 0.7565(8)
H1 H 0.5020 0.7569 0.7866
C2 C 0.0994(10) 0.7000(9) 0.6896(8)
N1 N 0.2810(8) 0.8066(7) 0.7343(7)
C3 C -0.0561(9) 0.7296(8) 0.6484(8)
H2 H -0.0499 0.8346 0.6512
C4 C -0.0799(11) 0.4072(9) 0.6394(9)
H3 H -0.0877 0.3017 0.6365
C5 C 0.3268(10) 0.4235(9) 0.7419(8)
H4 H 0.4609 0.4618 0.7475
H5 H 0.2709 0.3341 0.6670
N2 N 0.2649(8) 0.5559(7) 0.7309(7)
C6 C 0.0881(10) 0.5404(8) 0.6866(8)
C7 C -0.2330(10) 0.4363(9) 0.5973(8)
H6 H -0.3462 0.3494 0.5648
C8 C -0.2212(11) 0.5950(9) 0.6026(9)
H7 H -0.3278 0.6110 0.5744
Br1 Br 0.28125(10) 1.05512(9) 0.49942(8)
Br2 Br 0.73417(10) 1.13993(9) 0.85770(9)
N3 N 0.2899(8) 0.2153(7) 0.8504(7)
C9 C 0.2769(10) 0.3612(8) 0.8535(8)
C10 C 0.1808(11) 0.3771(9) 1.0512(8)
H8 H 0.1450 0.4314 1.1190
C11 C 0.2454(11) 0.1505(9) 0.9449(8)
H9 H 0.2528 0.0497 0.9426
C12 C 0.2258(11) 0.4460(9) 0.9557(9)
H10 H 0.2227 0.5483 0.9583
C13 C 0.1885(12) 0.2270(9) 1.0469(9)
H11 H 0.1564 0.1776 1.1108
Hg1_2 Hg 0.44474(4) 0.06857(3) 0.70526(3)
N3_2 N 0.2899(8) 1.2153(7) 0.8504(7)
loop_
_geom_bond_atom_site_label_1
_geom_bond_atom_site_label_2
_geom_bond_site_symmetry_1
_geom_bond_site_symmetry_2
Hg1 N1 1_555 1_555
C1 H1 1_555 1_555
C2 N1 1_555 1_555
N1 C1 1_555 1_555
C3 C2 1_555 1_555
H2 C3 1_555 1_555
C4 H3 1_555 1_555
C5 H4 1_555 1_555
H5 C5 1_555 1_555
N2 C1 1_555 1_555
C6 C2 1_555 1_555
C7 C4 1_555 1_555
H6 C7 1_555 1_555
C8 C3 1_555 1_555
H7 C8 1_555 1_555
Br1 Hg1 1_555 1_555
Br2 Hg1 1_555 1_555
N3 C9 1_555 1_555
C9 C5 1_555 1_555
C10 H8 1_555 1_555
C11 N3 1_555 1_555
H9 C11 1_555 1_555
C12 C9 1_555 1_555
H10 C12 1_555 1_555
C13 C10 1_555 1_555
H11 C13 1_555 1_555
Hg1_2 N3 1_555 1_555
N3_2 Hg1 1_555 1_555
C4 C6 1_555 1_555
C5 N2 1_555 1_555
N2 C6 1_555 1_555
C7 C8 1_555 1_555
C10 C12 1_555 1_555
C11 C13 1_555 1_555

#END
