
#######################################################################
#
#                 Cambridge Crystallographic Data Centre
#                                CCDC 
#
#######################################################################
#
# If this CIF has been generated from an entry in the Cambridge 
# Structural Database, then it will include bibliographic, chemical, 
# crystal, experimental, refinement or atomic coordinate data resulting 
# from the CCDC's data processing and validation procedures.
#
#######################################################################

data_XUDHEK
_symmetry_cell_setting           monoclinic
_symmetry_space_group_name_H-M   'P 21/n'
_symmetry_Int_Tables_number      14
_space_group_name_Hall           '-P 2yn'
loop_
_symmetry_equiv_pos_site_id
_symmetry_equiv_pos_as_xyz
1 x,y,z
2 1/2-x,1/2+y,1/2-z
3 -x,-y,-z
4 1/2+x,1/2-y,1/2+z
_cell_length_a                   8.7846(3)
_cell_length_b                   23.0212(8)
_cell_length_c                   9.6635(3)
_cell_angle_alpha                90
_cell_angle_beta                 116.039(2)
_cell_angle_gamma                90
_cell_volume                     1755.9
loop_
_atom_site_label
_atom_site_type_symbol
_atom_site_fract_x
_atom_site_fract_y
_atom_site_fract_z
Zn1 Zn 0.77804(3) 0.149818(11) 0.18749(3)
Cl1 Cl 0.77263(9) 0.24289(2) 0.12617(7)
Cl2 Cl 0.95000(9) 0.08934(3) 0.14010(7)
C1 C 0.8459(3) 0.15051(9) 0.6498(2)
N1 N 0.8290(2) 0.13875(8) 0.40993(19)
N2 N 1.5338(2) 0.12122(8) 1.06016(19)
C2 C 1.2037(3) 0.08378(9) 0.8725(2)
C3 C 0.7823(3) 0.17436(10) 0.5023(2)
C4 C 1.4311(3) 0.15038(10) 0.9341(3)
H1 H 1.4716 0.1842 0.9094
N3 N 0.9300(2) 0.10024(8) 0.64395(19)
C5 C 1.2698(3) 0.13309(10) 0.8395(3)
H2 H 1.2043 0.1548 0.7524
C6 C 0.6901(3) 0.22561(11) 0.4681(3)
H3 H 0.6467 0.2419 0.3702
C7 C 1.3083(3) 0.05341(10) 1.0038(3)
H4 H 1.2693 0.0200 1.0319
C8 C 1.0272(3) 0.06197(10) 0.7737(3)
H5 H 1.0344 0.0238 0.7344
H6 H 0.9674 0.0579 0.8369
C9 C 0.9165(3) 0.09608(10) 0.4998(2)
H7 H 0.9643 0.0661 0.4674
C10 C 1.4696(3) 0.07303(10) 1.0920(3)
H8 H 1.5384 0.0517 1.1788
C11 C 0.8183(3) 0.17622(12) 0.7671(3)
H9 H 0.8591 0.1598 0.8647
C12 C 0.6654(4) 0.25141(12) 0.5850(3)
H10 H 0.6054 0.2861 0.5659
C13 C 0.7285(4) 0.22668(12) 0.7318(3)
H11 H 0.7084 0.2453 0.8077
Zn1_2 Zn 1.77804(3) 0.149818(11) 1.18749(3)
N2_2 N 0.5338(2) 0.12122(8) 0.06016(19)
C14 C 0.3416(5) 0.06034(16) 0.5265(4)
N4 N 0.3035(5) 0.02088(15) 0.5717(4)
C15 C 0.3813(5) 0.11252(17) 0.4670(5)
H12 H 0.2785 0.1300 0.3932
H13 H 0.4527 0.1031 0.4182
H14 H 0.4393 0.1392 0.5500
loop_
_geom_bond_atom_site_label_1
_geom_bond_atom_site_label_2
_geom_bond_site_symmetry_1
_geom_bond_site_symmetry_2
Zn1 Cl1 1_555 1_555
Cl2 Zn1 1_555 1_555
C1 C3 1_555 1_555
N1 Zn1 1_555 1_555
N2 C4 1_555 1_555
C2 C5 1_555 1_555
C3 N1 1_555 1_555
C4 H1 1_555 1_555
N3 C1 1_555 1_555
C5 C4 1_555 1_555
H2 C5 1_555 1_555
C6 C3 1_555 1_555
H3 C6 1_555 1_555
C7 C2 1_555 1_555
H4 C7 1_555 1_555
C8 C2 1_555 1_555
H5 C8 1_555 1_555
H6 C8 1_555 1_555
C9 N1 1_555 1_555
H7 C9 1_555 1_555
C10 N2 1_555 1_555
H8 C10 1_555 1_555
C11 C1 1_555 1_555
H9 C11 1_555 1_555
C12 C6 1_555 1_555
H10 C12 1_555 1_555
C13 C11 1_555 1_555
H11 C13 1_555 1_555
C14 N4 1_555 1_555
C15 C14 1_555 1_555
H12 C15 1_555 1_555
H13 C15 1_555 1_555
H14 C15 1_555 1_555
Zn1_2 N2 1_555 1_555
N2_2 Zn1 1_555 1_555
N3 C8 1_555 1_555
N3 C9 1_555 1_555
C7 C10 1_555 1_555
C12 C13 1_555 1_555

#END
