
#######################################################################
#
#                 Cambridge Crystallographic Data Centre
#                                CCDC 
#
#######################################################################
#
# If this CIF has been generated from an entry in the Cambridge 
# Structural Database, then it will include bibliographic, chemical, 
# crystal, experimental, refinement or atomic coordinate data resulting 
# from the CCDC's data processing and validation procedures.
#
#######################################################################

data_XUDJIQ
_symmetry_cell_setting           triclinic
_symmetry_space_group_name_H-M   'P -1'
_symmetry_Int_Tables_number      2
_space_group_name_Hall           '-P 1'
loop_
_symmetry_equiv_pos_site_id
_symmetry_equiv_pos_as_xyz
1 x,y,z
2 -x,-y,-z
_cell_length_a                   9.4053(7)
_cell_length_b                   9.5155(7)
_cell_length_c                   11.1950(9)
_cell_angle_alpha                64.919(1)
_cell_angle_beta                 77.580(1)
_cell_angle_gamma                81.597(1)
_cell_volume                     884.489
loop_
_atom_site_label
_atom_site_type_symbol
_atom_site_fract_x
_atom_site_fract_y
_atom_site_fract_z
Cu1 Cu -0.06338(4) 0.49153(5) 0.34289(4)
Ni1 Ni 0.51070(5) 0.36352(5) 0.24998(4)
N1 N 0.1037(3) 0.5769(4) 0.2165(3)
N2 N 0.0755(3) 0.3222(3) 0.4343(3)
N3 N -0.1668(3) 0.6896(4) 0.2241(3)
H1 H -0.2210 0.6666 0.1783
H2 H -0.2266 0.7334 0.2750
O1 O 0.3296(3) 0.2739(3) 0.4007(3)
O2 O 0.3486(3) 0.5164(3) 0.1633(2)
O3 O -0.2249(3) 0.4196(3) 0.4824(3)
O4 O -0.3488(3) 0.2666(3) 0.6715(3)
O5 O 0.1402(3) -0.3620(3) 0.7872(3)
O6 O 0.3251(3) -0.2112(3) 0.6656(3)
O7 O 0.5481(3) 0.5039(3) 0.3340(3)
H3 H 0.6031 0.4750 0.3925
H4 H 0.4847 0.5713 0.3476
O8 O 0.4850(4) 0.2004(4) 0.1825(4)
H5 H 0.5318 0.1125 0.2113
H6 H 0.4879 0.2287 0.0991
O9 O 0.6494(3) 0.4970(3) 0.0788(3)
H7 H 0.6467 0.4760 0.0128
H8 H 0.7310 0.4604 0.1043
C1 C 0.2122(4) 0.3493(4) 0.3711(3)
C2 C 0.2240(4) 0.4943(4) 0.2384(4)
C3 C 0.0825(4) 0.7150(5) 0.0964(4)
H9 H 0.0770 0.6860 0.0243
H10 H 0.1633 0.7811 0.0680
C4 C -0.0571(5) 0.7989(5) 0.1301(5)
H11 H -0.0380 0.8658 0.1697
H12 H -0.0953 0.8640 0.0487
C5 C -0.2339(4) 0.2922(4) 0.5882(3)
C6 C -0.1124(4) 0.1676(4) 0.6126(3)
C7 C -0.1530(4) 0.0229(4) 0.7141(4)
H13 H -0.2480 0.0142 0.7613
C8 C -0.0578(4) -0.1057(4) 0.7461(4)
H14 H -0.0882 -0.2003 0.8130
C9 C 0.0860(4) -0.0928(4) 0.6768(3)
C10 C 0.1295(4) 0.0488(4) 0.5772(3)
H15 H 0.2253 0.0561 0.5322
C11 C 0.0332(4) 0.1815(4) 0.5422(3)
C12 C 0.1916(4) -0.2332(4) 0.7119(4)
Cu1A Cu 0.06338(4) -0.49153(5) 0.65711(4)
Ni1A Ni 0.48930(5) -0.36352(5) 0.75002(4)
O5A O -0.1402(3) 0.3620(3) 0.2128(3)
O6A O 0.6749(3) 0.2112(3) 0.3344(3)
O10 O 0.4201(4) 0.1123(5) 0.6700(4)
H16 H 0.4370 0.1614 0.5854
H17 H 0.3489 0.0563 0.6896
O11 O 0.4763(8) 0.1848(7) 0.9447(5)
H18 H 0.5635 0.1284 0.9774
H19 H 0.4049 0.1446 0.9652
loop_
_geom_bond_atom_site_label_1
_geom_bond_atom_site_label_2
_geom_bond_site_symmetry_1
_geom_bond_site_symmetry_2
Cu1 N1 1_555 1_555
Ni1 O1 1_555 1_555
N1 C2 1_555 1_555
N2 Cu1 1_555 1_555
N3 Cu1 1_555 1_555
H1 N3 1_555 1_555
H2 N3 1_555 1_555
O1 C1 1_555 1_555
O2 Ni1 1_555 1_555
O3 Cu1 1_555 1_555
O4 C5 1_555 1_555
O5 C12 1_555 1_555
O6 C12 1_555 1_555
O7 Ni1 1_555 1_555
H3 O7 1_555 1_555
H4 O7 1_555 1_555
O8 Ni1 1_555 1_555
H5 O8 1_555 1_555
H6 O8 1_555 1_555
O9 Ni1 1_555 1_555
H7 O9 1_555 1_555
H8 O9 1_555 1_555
C1 N2 1_555 1_555
C2 O2 1_555 1_555
C3 N1 1_555 1_555
H9 C3 1_555 1_555
H10 C3 1_555 1_555
C4 N3 1_555 1_555
H11 C4 1_555 1_555
H12 C4 1_555 1_555
C5 O3 1_555 1_555
C6 C5 1_555 1_555
C7 C6 1_555 1_555
H13 C7 1_555 1_555
C8 C7 1_555 1_555
H14 C8 1_555 1_555
C9 C8 1_555 1_555
C10 C9 1_555 1_555
H15 C10 1_555 1_555
C11 N2 1_555 1_555
C12 C9 1_555 1_555
O10 H16 1_555 1_555
H17 O10 1_555 1_555
O11 H18 1_555 1_555
H19 O11 1_555 1_555
Cu1A O5 1_555 1_555
Ni1A O6 1_555 1_555
O5A Cu1 1_555 1_555
O6A Ni1 1_555 1_555
C1 C2 1_555 1_555
C3 C4 1_555 1_555
C6 C11 1_555 1_555
C10 C11 1_555 1_555

#END
