
#######################################################################
#
#                 Cambridge Crystallographic Data Centre
#                                CCDC 
#
#######################################################################
#
# If this CIF has been generated from an entry in the Cambridge 
# Structural Database, then it will include bibliographic, chemical, 
# crystal, experimental, refinement or atomic coordinate data resulting 
# from the CCDC's data processing and validation procedures.
#
#######################################################################

data_XUDJEN
_symmetry_cell_setting           orthorhombic
_symmetry_space_group_name_H-M   'P c c n'
_symmetry_Int_Tables_number      56
_space_group_name_Hall           '-P 2ab 2ac'
loop_
_symmetry_equiv_pos_site_id
_symmetry_equiv_pos_as_xyz
1 x,y,z
2 1/2-x,1/2-y,z
3 -x,1/2+y,1/2-z
4 1/2+x,-y,1/2-z
5 -x,-y,-z
6 1/2+x,1/2+y,-z
7 x,1/2-y,1/2+z
8 1/2-x,y,1/2+z
_cell_length_a                   8.4752(13)
_cell_length_b                   19.322(3)
_cell_length_c                   21.873(3)
_cell_angle_alpha                90
_cell_angle_beta                 90
_cell_angle_gamma                90
_cell_volume                     3581.87
loop_
_atom_site_label
_atom_site_type_symbol
_atom_site_fract_x
_atom_site_fract_y
_atom_site_fract_z
Ag1 Ag 0.7500 0.2500 0.471332(7)
Ag2 Ag 1.2500 0.2500 0.673540(7)
N1 N 0.94129(15) 0.31673(6) 0.51801(6)
N2 N 1.05625(15) 0.42281(6) 0.55336(6)
N3 N 1.09511(15) 0.31689(6) 0.60896(6)
N4 N 0.90618(17) 0.41957(7) 0.46616(6)
H1 H 0.9223 0.4643 0.4615
H2 H 0.8485 0.3968 0.4394
N5 N 1.20429(17) 0.41961(7) 0.64114(6)
H3 H 1.2220 0.4643 0.6372
H4 H 1.2448 0.3968 0.6722
C1 C 0.96903(18) 0.38647(7) 0.51355(7)
C2 C 1.11670(17) 0.38676(7) 0.60033(7)
C3 C 1.00828(17) 0.28582(7) 0.56615(6)
C4 C 0.98282(18) 0.20992(7) 0.57151(6)
C5 C 1.0139(2) 0.16746(8) 0.52115(7)
H5 H 1.0556 0.1868 0.4846
C6 C 0.9833(2) 0.09678(8) 0.52477(7)
H6 H 1.0057 0.0677 0.4908
C7 C 0.9204(2) 0.06859(8) 0.57774(8)
H7 H 0.8975 0.0205 0.5797
C8 C 0.8909(2) 0.11057(8) 0.62791(8)
H8 H 0.8486 0.0910 0.6642
C9 C 0.92293(19) 0.18141(8) 0.62526(7)
H9 H 0.9041 0.2100 0.6599
S1 S 0.90402(4) 0.121824(18) 0.352972(17)
O1 O 0.81829(19) 0.17486(7) 0.38512(6)
O2 O 1.06997(17) 0.12093(10) 0.36343(7)
O3 O 0.8254(2) 0.05623(8) 0.35493(7)
C10 C 0.8814(2) 0.14731(9) 0.27322(7)
F1 F 0.94327(16) 0.10064(6) 0.23580(5)
F2 F 0.72902(15) 0.15402(9) 0.25921(6)
F3 F 0.95090(19) 0.20717(6) 0.26114(5)
O4 O 1.32660(15) 0.34078(6) 0.74612(5)
C11 C 1.37248(18) 0.36360(8) 0.79512(7)
C12 C 1.3965(2) 0.43996(9) 0.80361(9)
H10 H 1.3776 0.4638 0.7648
H11 H 1.5049 0.4487 0.8171
H12 H 1.3225 0.4572 0.8345
C13 C 1.4100(2) 0.31781(9) 0.84804(8)
H13 H 1.3757 0.2705 0.8390
H14 H 1.3550 0.3347 0.8845
H15 H 1.5241 0.3182 0.8554
N1A N 0.55871(15) 0.18327(6) 0.51801(6)
N2A N 0.44375(15) 0.07719(6) 0.55336(6)
N3A N 0.40489(15) 0.18311(6) 0.60896(6)
N4A N 0.59382(17) 0.08043(7) 0.46616(6)
H1A H 0.5777 0.0357 0.4615
H2A H 0.6515 0.1032 0.4394
N5A N 0.29571(17) 0.08039(7) 0.64114(6)
H3A H 0.2780 0.0357 0.6372
H4A H 0.2552 0.1032 0.6722
C1A C 0.53097(18) 0.11353(7) 0.51355(7)
C2A C 0.38330(17) 0.11324(7) 0.60033(7)
C3A C 0.49172(17) 0.21418(7) 0.56615(6)
C4A C 0.51718(18) 0.29008(7) 0.57151(6)
C5A C 0.4861(2) 0.33254(8) 0.52115(7)
H5A H 0.4444 0.3132 0.4846
C6A C 0.5167(2) 0.40322(8) 0.52477(7)
H6A H 0.4943 0.4323 0.4908
C7A C 0.5796(2) 0.43141(8) 0.57774(8)
H7A H 0.6025 0.4795 0.5797
C8A C 0.6091(2) 0.38943(8) 0.62791(8)
H8A H 0.6514 0.4090 0.6642
C9A C 0.57707(19) 0.31859(8) 0.62526(7)
H9A H 0.5959 0.2900 0.6599
S1A S 0.59598(4) 0.378176(18) 0.352972(17)
O1A O 0.68171(19) 0.32514(7) 0.38512(6)
O2A O 0.43003(17) 0.37907(10) 0.36343(7)
O3A O 0.6746(2) 0.44377(8) 0.35493(7)
C10A C 0.6186(2) 0.35269(9) 0.27322(7)
F1A F 0.55673(16) 0.39936(6) 0.23580(5)
F2A F 0.77098(15) 0.34598(9) 0.25921(6)
F3A F 0.54910(19) 0.29283(6) 0.26114(5)
O4A O 1.17340(15) 0.15922(6) 0.74612(5)
C11A C 1.12752(18) 0.13640(8) 0.79512(7)
C12A C 1.1035(2) 0.06004(9) 0.80361(9)
H10A H 1.1224 0.0362 0.7648
H11A H 0.9951 0.0513 0.8171
H12A H 1.1775 0.0428 0.8345
C13A C 1.0900(2) 0.18219(9) 0.84804(8)
H13A H 1.1243 0.2295 0.8390
H14A H 1.1450 0.1653 0.8845
H15A H 0.9759 0.1818 0.8554
Ag2_2 Ag 0.2500 0.2500 0.673540(7)
N3A_2 N 1.40489(15) 0.18311(6) 0.60896(6)
loop_
_geom_bond_atom_site_label_1
_geom_bond_atom_site_label_2
_geom_bond_site_symmetry_1
_geom_bond_site_symmetry_2
Ag1 N1 1_555 1_555
Ag2 N3 1_555 1_555
N1 C1 1_555 1_555
N2 C1 1_555 1_555
N3 C2 1_555 1_555
N4 H1 1_555 1_555
H2 N4 1_555 1_555
N5 H3 1_555 1_555
H4 N5 1_555 1_555
C1 N4 1_555 1_555
C2 N2 1_555 1_555
C3 N1 1_555 1_555
C4 C3 1_555 1_555
C5 C4 1_555 1_555
H5 C5 1_555 1_555
C6 C5 1_555 1_555
H6 C6 1_555 1_555
C7 C6 1_555 1_555
H7 C7 1_555 1_555
C8 C7 1_555 1_555
H8 C8 1_555 1_555
C9 C4 1_555 1_555
H9 C9 1_555 1_555
S1 O1 1_555 1_555
O1 Ag1 1_555 1_555
O2 S1 1_555 1_555
O3 S1 1_555 1_555
C10 S1 1_555 1_555
F1 C10 1_555 1_555
F2 C10 1_555 1_555
F3 C10 1_555 1_555
O4 Ag2 1_555 1_555
C11 O4 1_555 1_555
C12 C11 1_555 1_555
H10 C12 1_555 1_555
H11 C12 1_555 1_555
H12 C12 1_555 1_555
C13 C11 1_555 1_555
H13 C13 1_555 1_555
H14 C13 1_555 1_555
H15 C13 1_555 1_555
N1A Ag1 1_555 1_555
N2A C1A 1_555 1_555
N3A C2A 1_555 1_555
N4A H1A 1_555 1_555
H2A N4A 1_555 1_555
N5A H3A 1_555 1_555
H4A N5A 1_555 1_555
C1A N1A 1_555 1_555
C2A N2A 1_555 1_555
C3A N1A 1_555 1_555
C4A C3A 1_555 1_555
C5A C4A 1_555 1_555
H5A C5A 1_555 1_555
C6A C5A 1_555 1_555
H6A C6A 1_555 1_555
C7A C6A 1_555 1_555
H7A C7A 1_555 1_555
C8A C7A 1_555 1_555
H8A C8A 1_555 1_555
C9A C4A 1_555 1_555
H9A C9A 1_555 1_555
S1A O1A 1_555 1_555
O1A Ag1 1_555 1_555
O2A S1A 1_555 1_555
O3A S1A 1_555 1_555
C10A S1A 1_555 1_555
F1A C10A 1_555 1_555
F2A C10A 1_555 1_555
F3A C10A 1_555 1_555
O4A Ag2 1_555 1_555
C11A O4A 1_555 1_555
C12A C11A 1_555 1_555
H10A C12A 1_555 1_555
H11A C12A 1_555 1_555
H12A C12A 1_555 1_555
C13A C11A 1_555 1_555
H13A C13A 1_555 1_555
H14A C13A 1_555 1_555
H15A C13A 1_555 1_555
Ag2_2 N3A 1_555 1_555
N3A_2 Ag2 1_555 1_555
N3 C3 1_555 1_555
N5 C2 1_555 1_555
C8 C9 1_555 1_555
N3A C3A 1_555 1_555
N4A C1A 1_555 1_555
N5A C2A 1_555 1_555
C8A C9A 1_555 1_555

#END
