
#######################################################################
#
#                 Cambridge Crystallographic Data Centre
#                                CCDC 
#
#######################################################################
#
# If this CIF has been generated from an entry in the Cambridge 
# Structural Database, then it will include bibliographic, chemical, 
# crystal, experimental, refinement or atomic coordinate data resulting 
# from the CCDC's data processing and validation procedures.
#
#######################################################################

data_XUDJOX
_symmetry_cell_setting           monoclinic
_symmetry_space_group_name_H-M   'C 2'
_symmetry_Int_Tables_number      5
_space_group_name_Hall           'C 2y'
loop_
_symmetry_equiv_pos_site_id
_symmetry_equiv_pos_as_xyz
1 x,y,z
2 -x,y,-z
3 1/2+x,1/2+y,z
4 1/2-x,1/2+y,-z
_cell_length_a                   20.371(4)
_cell_length_b                   11.507(2)
_cell_length_c                   6.7750(12)
_cell_angle_alpha                90
_cell_angle_beta                 106.505(3)
_cell_angle_gamma                90
_cell_volume                     1522.68
loop_
_atom_site_label
_atom_site_type_symbol
_atom_site_fract_x
_atom_site_fract_y
_atom_site_fract_z
Ag1 Ag 0.237484(7) 0.660121(11) 0.37424(2)
Ag2 Ag 0.5000 0.500131(15) 1.0000
N1 N 0.30927(8) 0.51815(14) 0.5118(2)
N2 N 0.31831(8) 0.32479(14) 0.6438(2)
N3 N 0.39530(8) 0.47267(14) 0.8187(2)
N4 N 0.24797(10) 0.36826(16) 0.3212(3)
H1 H 0.2352 0.2950 0.3058
H2 H 0.2309 0.4185 0.2219
N5 N 0.39178(9) 0.29360(15) 0.9669(3)
H3 H 0.3756 0.2225 0.9640
H4 H 0.4240 0.3179 1.0752
C1 C 0.29288(9) 0.40296(16) 0.4939(3)
C2 C 0.36775(9) 0.36368(16) 0.8087(3)
C3 C 0.36275(9) 0.54636(16) 0.6711(3)
C4 C 0.38628(9) 0.66799(17) 0.6823(3)
C5 C 0.38955(10) 0.72612(17) 0.5029(3)
H5 H 0.3777 0.6865 0.3746
C6 C 0.41001(11) 0.84128(18) 0.5133(3)
H6 H 0.4127 0.8796 0.3917
C7 C 0.42683(10) 0.90226(17) 0.7001(3)
C8 C 0.42234(10) 0.84373(17) 0.8764(3)
H7 H 0.4322 0.8845 1.0034
C9 C 0.40377(10) 0.72715(17) 0.8705(3)
H8 H 0.4030 0.6880 0.9933
C10 C 0.44981(13) 1.02670(18) 0.7104(4)
H9 H 0.4358 1.0670 0.8194
H10 H 0.4288 1.0647 0.5781
H11 H 0.4998 1.0296 0.7407
Cl1 Cl 0.21272(2) 0.56847(4) -0.11753(7)
O1 O 0.17084(8) 0.56263(13) 0.0272(2)
O2 O 0.26934(9) 0.64529(18) -0.0343(3)
O3 O 0.17173(10) 0.61404(18) -0.3095(3)
O4 O 0.23599(10) 0.45343(16) -0.1406(3)
Ag1A Ag 0.762516(7) 0.660121(11) 1.62576(2)
N1A N 0.69073(8) 0.51815(14) 1.4882(2)
N2A N 0.68169(8) 0.32479(14) 1.3562(2)
N3A N 0.60470(8) 0.47267(14) 1.1813(2)
N4A N 0.75203(10) 0.36826(16) 1.6788(3)
H1A H 0.7648 0.2950 1.6942
H2A H 0.7691 0.4185 1.7781
N5A N 0.60822(9) 0.29360(15) 1.0331(3)
H3A H 0.6244 0.2225 1.0360
H4A H 0.5760 0.3179 0.9248
C1A C 0.70712(9) 0.40296(16) 1.5061(3)
C2A C 0.63225(9) 0.36368(16) 1.1913(3)
C3A C 0.63725(9) 0.54636(16) 1.3289(3)
C4A C 0.61372(9) 0.66799(17) 1.3177(3)
C5A C 0.61045(10) 0.72612(17) 1.4971(3)
H5A H 0.6223 0.6865 1.6254
C6A C 0.58999(11) 0.84128(18) 1.4867(3)
H6A H 0.5873 0.8796 1.6083
C7A C 0.57317(10) 0.90226(17) 1.2999(3)
C8A C 0.57766(10) 0.84373(17) 1.1236(3)
H7A H 0.5678 0.8845 0.9966
C9A C 0.59623(10) 0.72715(17) 1.1295(3)
H8A H 0.5970 0.6880 1.0067
C10A C 0.55019(13) 1.02670(18) 1.2896(4)
H9A H 0.5642 1.0670 1.1806
H10A H 0.5712 1.0647 1.4219
H11A H 0.5002 1.0296 1.2593
Cl1A Cl 0.78728(2) 0.56847(4) 2.11753(7)
O1A O 0.82916(8) 0.56263(13) 1.9728(2)
O2A O 0.73066(9) 0.64529(18) 2.0343(3)
O3A O 0.82827(10) 0.61404(18) 2.3095(3)
O4A O 0.76401(10) 0.45343(16) 2.1406(3)
Ag1B Ag 0.737484(7) 0.160121(11) 1.37424(2)
Ag1C Ag 0.262516(7) 0.160121(11) 0.62576(2)
N2B N 0.81831(8) 0.82479(14) 1.6438(2)
N2C N 0.18169(8) 0.82479(14) 0.3562(2)
Cl2 Cl 0.5000 0.37464(6) 0.5000
O5 O 0.48497(9) 0.30279(15) 0.6575(3)
O6 O 0.44178(11) 0.4457(2) 0.4032(3)
O5A O 0.51503(9) 0.30279(15) 0.3425(3)
O6A O 0.55822(11) 0.4457(2) 0.5968(3)
loop_
_geom_bond_atom_site_label_1
_geom_bond_atom_site_label_2
_geom_bond_site_symmetry_1
_geom_bond_site_symmetry_2
Ag1 N1 1_555 1_555
Ag2 N3 1_555 1_555
N1 C1 1_555 1_555
N2 C1 1_555 1_555
N3 C2 1_555 1_555
N4 H1 1_555 1_555
H2 N4 1_555 1_555
N5 H3 1_555 1_555
H4 N5 1_555 1_555
C1 N4 1_555 1_555
C2 N2 1_555 1_555
C3 N1 1_555 1_555
C4 C3 1_555 1_555
C5 C4 1_555 1_555
H5 C5 1_555 1_555
C6 C5 1_555 1_555
H6 C6 1_555 1_555
C7 C6 1_555 1_555
C8 C7 1_555 1_555
H7 C8 1_555 1_555
C9 C4 1_555 1_555
H8 C9 1_555 1_555
C10 C7 1_555 1_555
H9 C10 1_555 1_555
H10 C10 1_555 1_555
H11 C10 1_555 1_555
Cl1 O1 1_555 1_555
O1 Ag1 1_555 1_555
O2 Cl1 1_555 1_555
O3 Cl1 1_555 1_555
O4 Cl1 1_555 1_555
Cl2 O5 1_555 1_555
O6 Cl2 1_555 1_555
Ag1A N1A 1_555 1_555
N1A C1A 1_555 1_555
N2A C1A 1_555 1_555
N3A Ag2 1_555 1_555
N4A H1A 1_555 1_555
H2A N4A 1_555 1_555
N5A H3A 1_555 1_555
H4A N5A 1_555 1_555
C1A N4A 1_555 1_555
C2A N2A 1_555 1_555
C3A N1A 1_555 1_555
C4A C3A 1_555 1_555
C5A C4A 1_555 1_555
H5A C5A 1_555 1_555
C6A C5A 1_555 1_555
H6A C6A 1_555 1_555
C7A C6A 1_555 1_555
C8A C7A 1_555 1_555
H7A C8A 1_555 1_555
C9A C4A 1_555 1_555
H8A C9A 1_555 1_555
C10A C7A 1_555 1_555
H9A C10A 1_555 1_555
H10A C10A 1_555 1_555
H11A C10A 1_555 1_555
Cl1A O1A 1_555 1_555
O1A Ag1A 1_555 1_555
O2A Cl1A 1_555 1_555
O3A Cl1A 1_555 1_555
O4A Cl1A 1_555 1_555
Ag1B N2A 1_555 1_555
Ag1C N2 1_555 1_555
N2B Ag1A 1_555 1_555
N2C Ag1 1_555 1_555
O5A Cl2 1_555 1_555
O6A Cl2 1_555 1_555
N3 C3 1_555 1_555
N5 C2 1_555 1_555
C8 C9 1_555 1_555
N3A C2A 1_555 1_555
N3A C3A 1_555 1_555
N5A C2A 1_555 1_555
C8A C9A 1_555 1_555

#END
