
#######################################################################
#
#                 Cambridge Crystallographic Data Centre
#                                CCDC 
#
#######################################################################
#
# If this CIF has been generated from an entry in the Cambridge 
# Structural Database, then it will include bibliographic, chemical, 
# crystal, experimental, refinement or atomic coordinate data resulting 
# from the CCDC's data processing and validation procedures.
#
#######################################################################

data_XUDJUC
_symmetry_cell_setting           triclinic
_symmetry_space_group_name_H-M   'P -1'
_symmetry_Int_Tables_number      2
_space_group_name_Hall           '-P 1'
loop_
_symmetry_equiv_pos_site_id
_symmetry_equiv_pos_as_xyz
1 x,y,z
2 -x,-y,-z
_cell_length_a                   9.4492(9)
_cell_length_b                   9.5169(9)
_cell_length_c                   11.1262(10)
_cell_angle_alpha                65.207(1)
_cell_angle_beta                 77.539(1)
_cell_angle_gamma                81.742(1)
_cell_volume                     885.332
loop_
_atom_site_label
_atom_site_type_symbol
_atom_site_fract_x
_atom_site_fract_y
_atom_site_fract_z
Cu1 Cu 0.43649(5) 0.99088(6) 0.84391(5)
Co1 Co 1.01353(5) 0.85426(6) 0.75569(5)
N1 N 0.5721(3) 0.8211(4) 0.9362(3)
N2 N 0.6052(4) 1.0743(4) 0.7184(4)
N3 N 0.3349(4) 1.1870(4) 0.7214(4)
H1 H 0.2854 1.1631 0.6725
H2 H 0.2715 1.2299 0.7713
O1 O 0.8249(3) 0.7697(3) 0.9054(3)
O2 O 0.8482(3) 1.0082(3) 0.6653(3)
O3 O 0.2757(3) 0.9201(3) 0.9847(3)
O4 O 0.1470(3) 0.7667(3) 1.1727(3)
O5 O 0.8173(3) 0.2896(3) 1.1604(3)
O6 O 0.6354(3) 0.1373(3) 1.2896(3)
O7 O 1.1496(3) 0.9958(4) 0.5779(3)
H3 H 1.1752 1.0149 0.4948
H4 H 1.2262 0.9851 0.6103
O8 O 1.0460(3) 0.9978(4) 0.8443(3)
H5 H 1.0622 1.0748 0.7692
H6 H 1.1230 0.9746 0.8782
O9 O 0.9986(4) 0.6836(4) 0.6887(4)
H7 H 1.0096 0.6887 0.6091
H8 H 1.0417 0.5996 0.7349
C1 C 0.3839(4) 0.6669(5) 1.1147(4)
C2 C 0.3419(4) 0.5229(5) 1.2165(4)
H9 H 0.2471 0.5143 1.2633
C3 C 0.4373(4) 0.3943(5) 1.2485(4)
H10 H 0.4071 0.3002 1.3160
C4 C 0.5790(4) 0.4062(5) 1.1792(4)
C5 C 0.6239(4) 0.5476(5) 1.0792(4)
H11 H 0.7195 0.5543 1.0344
C6 C 0.5288(4) 0.6805(4) 1.0441(4)
C7 C 0.7089(4) 0.8460(5) 0.8743(4)
C8 C 0.7239(4) 0.9891(5) 0.7408(4)
C9 C 0.5850(5) 1.2100(5) 0.5954(5)
H12 H 0.5765 1.1783 0.5251
H13 H 0.6668 1.2749 0.5642
C10 C 0.4455(5) 1.2978(5) 0.6312(5)
H14 H 0.4655 1.3599 0.6753
H15 H 0.4091 1.3670 0.5499
C11 C 0.2642(4) 0.7920(5) 1.0894(4)
C12 C 0.6854(4) 0.2666(5) 1.2117(4)
Cu1A Cu 0.56351(5) 0.00912(6) 1.15609(5)
Co1A Co 0.98647(5) 0.14574(6) 1.24431(5)
O5A O 1.1827(3) 0.7104(3) 0.8396(3)
O6A O 0.3646(3) 0.8627(3) 0.7104(3)
O10 O 0.9085(3) 0.6258(4) 0.1678(3)
H16 H 0.8952 0.6531 0.0877
H17 H 0.9949 0.5865 0.1723
O11 O 0.9742(6) 0.6906(7) 0.4495(6)
H18 H 1.0269 0.7311 0.3726
H19 H 0.9088 0.6439 0.4416
loop_
_geom_bond_atom_site_label_1
_geom_bond_atom_site_label_2
_geom_bond_site_symmetry_1
_geom_bond_site_symmetry_2
Cu1 N1 1_555 1_555
Co1 O1 1_555 1_555
N1 C6 1_555 1_555
N2 Cu1 1_555 1_555
N3 Cu1 1_555 1_555
H1 N3 1_555 1_555
H2 N3 1_555 1_555
O1 C7 1_555 1_555
O2 Co1 1_555 1_555
O3 Cu1 1_555 1_555
O4 C11 1_555 1_555
O5 C12 1_555 1_555
O6 C12 1_555 1_555
O7 Co1 1_555 1_555
H3 O7 1_555 1_555
H4 O7 1_555 1_555
O8 Co1 1_555 1_555
H5 O8 1_555 1_555
H6 O8 1_555 1_555
O9 Co1 1_555 1_555
H7 O9 1_555 1_555
H8 O9 1_555 1_555
C1 C2 1_555 1_555
C2 H9 1_555 1_555
C3 C2 1_555 1_555
H10 C3 1_555 1_555
C4 C3 1_555 1_555
C5 C4 1_555 1_555
H11 C5 1_555 1_555
C6 C1 1_555 1_555
C7 N1 1_555 1_555
C8 N2 1_555 1_555
C9 N2 1_555 1_555
H12 C9 1_555 1_555
H13 C9 1_555 1_555
C10 N3 1_555 1_555
H14 C10 1_555 1_555
H15 C10 1_555 1_555
C11 O3 1_555 1_555
C12 C4 1_555 1_555
O10 H16 1_555 1_555
H17 O10 1_555 1_555
O11 H18 1_555 1_555
H19 O11 1_555 1_555
Cu1A O6 1_555 1_555
Co1A O5 1_555 1_555
O5A Co1 1_555 1_555
O6A Cu1 1_555 1_555
O2 C8 1_555 1_555
C1 C11 1_555 1_555
C5 C6 1_555 1_555
C7 C8 1_555 1_555
C9 C10 1_555 1_555

#END
