
#######################################################################
#
#                 Cambridge Crystallographic Data Centre
#                                CCDC 
#
#######################################################################
#
# If this CIF has been generated from an entry in the Cambridge 
# Structural Database, then it will include bibliographic, chemical, 
# crystal, experimental, refinement or atomic coordinate data resulting 
# from the CCDC's data processing and validation procedures.
#
#######################################################################

data_XUDKAJ
_symmetry_cell_setting           triclinic
_symmetry_space_group_name_H-M   'P -1'
_symmetry_Int_Tables_number      2
_space_group_name_Hall           '-P 1'
loop_
_symmetry_equiv_pos_site_id
_symmetry_equiv_pos_as_xyz
1 x,y,z
2 -x,-y,-z
_cell_length_a                   9.4621(9)
_cell_length_b                   9.5085(9)
_cell_length_c                   11.1077(10)
_cell_angle_alpha                65.262(1)
_cell_angle_beta                 77.636(1)
_cell_angle_gamma                81.867(1)
_cell_volume                     885.085
loop_
_atom_site_label
_atom_site_type_symbol
_atom_site_fract_x
_atom_site_fract_y
_atom_site_fract_z
Cu1 Cu 0.43609(5) 0.99119(6) 0.84368(5)
Mn1 Mn 1.01305(6) 0.85559(7) 0.75424(6)
N1 N 0.5724(3) 0.8213(4) 0.9371(3)
N2 N 0.6041(4) 1.0748(4) 0.7174(4)
N3 N 0.3348(4) 1.1869(4) 0.7213(4)
H1 H 0.2849 1.1627 0.6727
H2 H 0.2720 1.2300 0.7712
O1 O 0.8245(3) 0.7713(3) 0.9051(3)
O2 O 0.8468(3) 1.0078(4) 0.6644(3)
O3 O 0.2748(3) 0.9205(3) 0.9847(3)
O4 O 0.1479(3) 0.7663(3) 1.1730(3)
O5 O 0.6346(3) 0.1378(3) 1.2893(3)
O6 O 0.8169(3) 0.2900(4) 1.1619(3)
O7 O 0.9984(5) 0.6832(4) 0.6882(4)
H3 H 0.9139 0.6494 0.7175
H4 H 1.0470 0.6312 0.6452
O8 O 1.1519(3) 0.9937(4) 0.5803(3)
H5 H 1.1878 1.0132 0.4983
H6 H 1.2066 1.0297 0.6108
O9 O 1.0464(3) 0.9975(4) 0.8430(3)
H7 H 1.1163 0.9982 0.8797
H8 H 0.9740 1.0473 0.8700
C1 C 0.7085(4) 0.8466(5) 0.8743(4)
C2 C 0.7227(4) 0.9897(5) 0.7406(4)
C3 C 0.5832(5) 1.2092(6) 0.5954(4)
H9 H 0.5740 1.1770 0.5255
H10 H 0.6652 1.2739 0.5635
C4 C 0.4455(5) 1.2982(5) 0.6299(5)
H11 H 0.4659 1.3610 0.6734
H12 H 0.4091 1.3667 0.5482
C5 C 0.2634(4) 0.7920(5) 1.0903(4)
C6 C 0.3830(4) 0.6665(5) 1.1159(4)
C7 C 0.5290(4) 0.6815(5) 1.0443(4)
C8 C 0.6232(4) 0.5478(5) 1.0797(4)
H13 H 0.7187 0.5544 1.0349
C9 C 0.5790(4) 0.4073(5) 1.1784(4)
C10 C 0.6844(4) 0.2670(5) 1.2118(4)
C11 C 0.4367(4) 0.3941(5) 1.2490(4)
H14 H 0.4067 0.2998 1.3166
C12 C 0.3420(4) 0.5230(5) 1.2168(4)
H15 H 0.2474 0.5143 1.2637
Cu1A Cu 0.56391(5) 0.00881(6) 1.15632(5)
Mn1A Mn 0.98695(6) 0.14441(7) 1.24576(6)
O5A O 0.3654(3) 0.8622(3) 0.7107(3)
O6A O 1.1831(3) 0.7100(4) 0.8381(3)
O10 O 0.9725(8) 0.6933(8) 0.4458(5)
H16 H 1.0414 0.7300 0.3805
H17 H 0.9147 0.6558 0.4195
O11 O 0.0908(4) 0.3762(4) 0.8322(4)
H18 H 0.1008 0.3466 0.9136
H19 H 0.0090 0.3491 0.8323
loop_
_geom_bond_atom_site_label_1
_geom_bond_atom_site_label_2
_geom_bond_site_symmetry_1
_geom_bond_site_symmetry_2
Cu1 N1 1_555 1_555
Mn1 O1 1_555 1_555
N1 C1 1_555 1_555
N2 Cu1 1_555 1_555
N3 Cu1 1_555 1_555
H1 N3 1_555 1_555
H2 N3 1_555 1_555
O1 C1 1_555 1_555
O2 Mn1 1_555 1_555
O3 Cu1 1_555 1_555
O4 C5 1_555 1_555
O5 C10 1_555 1_555
O6 C10 1_555 1_555
O7 Mn1 1_555 1_555
H3 O7 1_555 1_555
H4 O7 1_555 1_555
O8 Mn1 1_555 1_555
H5 O8 1_555 1_555
H6 O8 1_555 1_555
O9 Mn1 1_555 1_555
H7 O9 1_555 1_555
H8 O9 1_555 1_555
C1 C2 1_555 1_555
C2 N2 1_555 1_555
C3 N2 1_555 1_555
H9 C3 1_555 1_555
H10 C3 1_555 1_555
C4 N3 1_555 1_555
H11 C4 1_555 1_555
H12 C4 1_555 1_555
C5 O3 1_555 1_555
C6 C5 1_555 1_555
C7 N1 1_555 1_555
C8 C7 1_555 1_555
H13 C8 1_555 1_555
C9 C8 1_555 1_555
C10 C9 1_555 1_555
C11 C9 1_555 1_555
H14 C11 1_555 1_555
C12 C6 1_555 1_555
H15 C12 1_555 1_555
O10 H16 1_555 1_555
H17 O10 1_555 1_555
O11 H18 1_555 1_555
H19 O11 1_555 1_555
Cu1A O5 1_555 1_555
Mn1A O6 1_555 1_555
O5A Cu1 1_555 1_555
O6A Mn1 1_555 1_555
O2 C2 1_555 1_555
C3 C4 1_555 1_555
C6 C7 1_555 1_555
C11 C12 1_555 1_555

#END
