
#######################################################################
#
#                 Cambridge Crystallographic Data Centre
#                                CCDC 
#
#######################################################################
#
# If this CIF has been generated from an entry in the Cambridge 
# Structural Database, then it will include bibliographic, chemical, 
# crystal, experimental, refinement or atomic coordinate data resulting 
# from the CCDC's data processing and validation procedures.
#
#######################################################################

data_XUDMAL
_symmetry_cell_setting           triclinic
_symmetry_space_group_name_H-M   'P -1'
_symmetry_Int_Tables_number      2
_space_group_name_Hall           '-P 1'
loop_
_symmetry_equiv_pos_site_id
_symmetry_equiv_pos_as_xyz
1 x,y,z
2 -x,-y,-z
_cell_length_a                   10.8228(19)
_cell_length_b                   12.053(2)
_cell_length_c                   16.622(3)
_cell_angle_alpha                83.067(7)
_cell_angle_beta                 82.897(7)
_cell_angle_gamma                79.111(7)
_cell_volume                     2102.34
loop_
_atom_site_label
_atom_site_type_symbol
_atom_site_fract_x
_atom_site_fract_y
_atom_site_fract_z
Sn1 Sn 0.77280(7) 0.79758(7) 0.21695(5)
Sn2 Sn 1.27113(7) 0.78304(7) 0.27195(5)
S1 S 1.0576(3) 0.9365(3) 0.1858(2)
S2 S 0.6020(3) 0.7816(3) 0.3638(2)
N1 N 1.0974(8) 0.8458(8) 0.0379(6)
N2 N 0.9323(8) 0.7637(9) 0.0408(6)
N3 N 0.9221(8) 0.8203(8) 0.1093(6)
N4 N 1.2241(8) 0.8593(8) 0.0160(6)
N5 N 0.5853(7) 0.5557(8) 0.3866(5)
N6 N 0.4054(9) 0.5517(9) 0.3418(7)
N7 N 0.4260(8) 0.6612(9) 0.3353(6)
N8 N 0.7093(8) 0.5127(8) 0.4055(6)
C1 C 0.7146(14) 0.9742(13) 0.2273(9)
H1 H 0.7617 0.9970 0.2658
H2 H 0.6260 0.9895 0.2456
H3 H 0.7299 1.0158 0.1751
C2 C 0.9093(12) 0.6849(13) 0.2807(9)
H4 H 0.9904 0.6806 0.2493
H5 H 0.8864 0.6109 0.2896
H6 H 0.9134 0.7119 0.3321
C3 C 0.6621(12) 0.7177(14) 0.1524(10)
H7 H 0.5744 0.7500 0.1633
H8 H 0.6747 0.6378 0.1696
H9 H 0.6874 0.7293 0.0950
C4 C 1.0242(10) 0.8677(10) 0.1107(7)
C5 C 1.0414(10) 0.7784(10) -0.0021(7)
C6 C 1.0891(12) 0.7233(12) -0.0735(8)
C7 C 1.1673(17) 0.7668(16) -0.1350(9)
H10 H 1.1902 0.8368 -0.1324
C8 C 1.2140(17) 0.7041(16) -0.2035(11)
H11 H 1.2655 0.7351 -0.2460
C9 C 1.1869(18) 0.608(2) -0.2078(13)
H12 H 1.2209 0.5690 -0.2529
C10 C 1.108(3) 0.5568(19) -0.1479(14)
H13 H 1.0908 0.4848 -0.1509
C11 C 1.056(2) 0.6213(15) -0.0819(12)
H14 H 0.9979 0.5931 -0.0428
C12 C 1.2466(10) 0.9555(12) 0.0250(7)
H15 H 1.1807 1.0129 0.0407
C13 C 1.3749(10) 0.9766(10) 0.0109(7)
C14 C 1.4766(11) 0.8966(11) -0.0145(9)
H16 H 1.4628 0.8263 -0.0254
C15 C 1.3985(11) 1.0808(12) 0.0242(9)
H17 H 1.3314 1.1371 0.0399
C16 C 1.3551(13) 0.9274(11) 0.2483(11)
H18 H 1.3661 0.9535 0.2988
H19 H 1.3019 0.9860 0.2177
H20 H 1.4360 0.9092 0.2174
C17 C 1.2812(14) 0.6718(13) 0.1833(9)
H21 H 1.3206 0.7026 0.1327
H22 H 1.1974 0.6622 0.1759
H23 H 1.3301 0.5997 0.2004
C18 C 1.1433(13) 0.7781(13) 0.3803(8)
H24 H 1.0615 0.8198 0.3691
H25 H 1.1742 0.8116 0.4217
H26 H 1.1367 0.7007 0.3990
C19 C 0.5366(9) 0.6661(10) 0.3618(6)
C20 C 0.5054(10) 0.4864(12) 0.3715(7)
C21 C 0.5201(11) 0.3645(10) 0.3861(7)
C22 C 0.4483(14) 0.3129(15) 0.3474(10)
H27 H 0.3886 0.3548 0.3146
C23 C 0.467(2) 0.1871(17) 0.3585(15)
H28 H 0.4225 0.1500 0.3292
C24 C 0.5480(18) 0.1236(17) 0.4104(12)
H29 H 0.5617 0.0447 0.4173
C25 C 0.6084(18) 0.1891(14) 0.4525(12)
H30 H 0.6581 0.1519 0.4928
C26 C 0.5987(14) 0.2970(12) 0.4385(9)
H31 H 0.6483 0.3323 0.4656
C27 C 0.7454(10) 0.5601(11) 0.4594(7)
H32 H 0.6894 0.6158 0.4860
C28 C 0.8774(9) 0.5273(10) 0.4806(7)
C29 C 0.9677(11) 0.4481(11) 0.4395(7)
H33 H 0.9436 0.4133 0.3985
C30 C 0.9127(10) 0.5787(10) 0.5423(7)
H34 H 0.8542 0.6309 0.5706
Sn1A Sn 1.22720(7) 0.20242(7) 0.78305(5)
Sn1A_2 Sn 2.22720(7) 1.20242(7) -0.21695(5)
Sn2A Sn 1.72887(7) 1.21696(7) -0.27195(5)
Sn2_2 Sn 0.27113(7) 0.78304(7) 0.27195(5)
Sn2A_2 Sn 1.72887(7) 0.21696(7) 0.72805(5)
S1A S 1.9424(3) 1.0635(3) -0.1858(2)
S2A S 1.3980(3) 0.2184(3) 0.6362(2)
N1A N 1.9026(8) 1.1542(8) -0.0379(6)
N2A N 2.0677(8) 1.2363(9) -0.0408(6)
N3A N 2.0779(8) 1.1797(8) -0.1093(6)
N3A_2 N 1.0779(8) 0.1797(8) 0.8907(6)
N4A N 1.7759(8) 1.1407(8) -0.0160(6)
N5A N 1.4147(7) 0.4443(8) 0.6134(5)
N6A N 1.5946(9) 0.4483(9) 0.6582(7)
N7A N 1.5740(8) 0.3388(9) 0.6647(6)
N7_2 N 1.4260(8) 0.6612(9) 0.3353(6)
N7A_2 N 1.5740(8) 1.3388(9) -0.3353(6)
N8A N 1.2907(8) 0.4873(8) 0.5945(6)
C1A C 1.2854(14) 0.0258(13) 0.7727(9)
H1A H 1.2383 0.0030 0.7342
H2A H 1.3740 0.0105 0.7544
H3A H 1.2701 -0.0158 0.8249
C2A C 1.0907(12) 0.3151(13) 0.7193(9)
H4A H 1.0096 0.3194 0.7507
H5A H 1.1136 0.3891 0.7104
H6A H 1.0866 0.2881 0.6679
C3A C 1.3379(12) 0.2823(14) 0.8476(10)
H7A H 1.4256 0.2500 0.8367
H8A H 1.3253 0.3622 0.8304
H9A H 1.3126 0.2707 0.9050
C4A C 1.9758(10) 1.1323(10) -0.1107(7)
C5A C 1.9586(10) 1.2216(10) 0.0021(7)
C6A C 1.9109(12) 1.2767(12) 0.0735(8)
C7A C 1.8327(17) 1.2332(16) 0.1350(9)
H10A H 1.8098 1.1632 0.1324
C8A C 1.7860(17) 1.2959(16) 0.2035(11)
H11A H 1.7345 1.2649 0.2460
C9A C 1.8131(18) 1.392(2) 0.2078(13)
H12A H 1.7791 1.4310 0.2529
C10A C 1.892(3) 1.4432(19) 0.1479(14)
H13A H 1.9092 1.5152 0.1509
C11A C 1.944(2) 1.3787(15) 0.0819(12)
H14A H 2.0021 1.4069 0.0428
C12A C 1.7534(10) 1.0445(12) -0.0250(7)
H15A H 1.8193 0.9871 -0.0407
C13A C 1.6251(10) 1.0234(10) -0.0109(7)
C14A C 1.5234(11) 1.1034(11) 0.0145(9)
H16A H 1.5372 1.1737 0.0254
C15A C 1.6015(11) 0.9192(12) -0.0242(9)
H17A H 1.6686 0.8629 -0.0399
C16A C 1.6449(13) 1.0726(11) -0.2483(11)
H18A H 1.6339 1.0465 -0.2988
H19A H 1.6981 1.0140 -0.2177
H20A H 1.5640 1.0908 -0.2174
C17A C 1.7188(14) 1.3282(13) -0.1833(9)
H21A H 1.6794 1.2974 -0.1327
H22A H 1.8026 1.3378 -0.1759
H23A H 1.6699 1.4003 -0.2004
C18A C 1.8567(13) 1.2219(13) -0.3803(8)
H24A H 1.9385 1.1802 -0.3691
H25A H 1.8258 1.1884 -0.4217
H26A H 1.8633 1.2993 -0.3990
C19A C 1.4634(9) 0.3339(10) 0.6382(6)
C20A C 1.4946(10) 0.5136(12) 0.6285(7)
C21A C 1.4799(11) 0.6355(10) 0.6139(7)
C22A C 1.5517(14) 0.6871(15) 0.6526(10)
H27A H 1.6114 0.6452 0.6854
C23A C 1.533(2) 0.8129(17) 0.6415(15)
H28A H 1.5775 0.8500 0.6708
C24A C 1.4520(18) 0.8764(17) 0.5896(12)
H29A H 1.4383 0.9553 0.5827
C25A C 1.3916(18) 0.8109(14) 0.5475(12)
H30A H 1.3419 0.8481 0.5072
C26A C 1.4013(14) 0.7030(12) 0.5615(9)
H31A H 1.3517 0.6677 0.5344
C27A C 1.2546(10) 0.4399(11) 0.5406(7)
H32A H 1.3106 0.3842 0.5140
C28A C 1.1226(9) 0.4727(10) 0.5194(7)
C29A C 1.0323(11) 0.5519(11) 0.5605(7)
H33A H 1.0564 0.5867 0.6015
C30A C 1.0873(10) 0.4213(10) 0.4577(7)
H34A H 1.1458 0.3691 0.4294
loop_
_geom_bond_atom_site_label_1
_geom_bond_atom_site_label_2
_geom_bond_site_symmetry_1
_geom_bond_site_symmetry_2
Sn1 S2 1_555 1_555
Sn2 S1 1_555 1_555
S1 C4 1_555 1_555
S2 C19 1_555 1_555
N1 N4 1_555 1_555
N2 N3 1_555 1_555
N3 Sn1 1_555 1_555
N4 C12 1_555 1_555
N5 N8 1_555 1_555
N6 N7 1_555 1_555
N7 C19 1_555 1_555
N8 C27 1_555 1_555
C1 Sn1 1_555 1_555
H1 C1 1_555 1_555
H2 C1 1_555 1_555
H3 C1 1_555 1_555
C2 Sn1 1_555 1_555
H4 C2 1_555 1_555
H5 C2 1_555 1_555
H6 C2 1_555 1_555
C3 Sn1 1_555 1_555
H7 C3 1_555 1_555
H8 C3 1_555 1_555
H9 C3 1_555 1_555
C4 N1 1_555 1_555
C5 N1 1_555 1_555
C6 C5 1_555 1_555
C7 C6 1_555 1_555
H10 C7 1_555 1_555
C8 C7 1_555 1_555
H11 C8 1_555 1_555
C9 C8 1_555 1_555
H12 C9 1_555 1_555
C10 C9 1_555 1_555
H13 C10 1_555 1_555
C11 C6 1_555 1_555
H14 C11 1_555 1_555
C12 H15 1_555 1_555
C13 C12 1_555 1_555
C14 C13 1_555 1_555
H16 C14 1_555 1_555
C15 C13 1_555 1_555
H17 C15 1_555 1_555
C16 Sn2 1_555 1_555
H18 C16 1_555 1_555
H19 C16 1_555 1_555
H20 C16 1_555 1_555
C17 Sn2 1_555 1_555
H21 C17 1_555 1_555
H22 C17 1_555 1_555
H23 C17 1_555 1_555
C18 Sn2 1_555 1_555
H24 C18 1_555 1_555
H25 C18 1_555 1_555
H26 C18 1_555 1_555
C19 N5 1_555 1_555
C20 N5 1_555 1_555
C21 C20 1_555 1_555
C22 C21 1_555 1_555
H27 C22 1_555 1_555
C23 C22 1_555 1_555
H28 C23 1_555 1_555
C24 C23 1_555 1_555
H29 C24 1_555 1_555
C25 C24 1_555 1_555
H30 C25 1_555 1_555
C26 C21 1_555 1_555
H31 C26 1_555 1_555
C27 H32 1_555 1_555
C28 C27 1_555 1_555
C29 C28 1_555 1_555
H33 C29 1_555 1_555
C30 C28 1_555 1_555
H34 C30 1_555 1_555
Sn1A S2A 1_555 1_555
Sn1A_2 N3A 1_555 1_555
Sn2A S1A 1_555 1_555
Sn2_2 N7 1_555 1_555
Sn2A_2 N7A 1_555 1_555
S1A C4A 1_555 1_555
S2A C19A 1_555 1_555
N1A N4A 1_555 1_555
N2A N3A 1_555 1_555
N3A C4A 1_555 1_555
N3A_2 Sn1A 1_555 1_555
N4A C12A 1_555 1_555
N5A N8A 1_555 1_555
N6A N7A 1_555 1_555
N7A C19A 1_555 1_555
N7_2 Sn2 1_555 1_555
N7A_2 Sn2A 1_555 1_555
N8A C27A 1_555 1_555
C1A Sn1A 1_555 1_555
H1A C1A 1_555 1_555
H2A C1A 1_555 1_555
H3A C1A 1_555 1_555
C2A Sn1A 1_555 1_555
H4A C2A 1_555 1_555
H5A C2A 1_555 1_555
H6A C2A 1_555 1_555
C3A Sn1A 1_555 1_555
H7A C3A 1_555 1_555
H8A C3A 1_555 1_555
H9A C3A 1_555 1_555
C4A N1A 1_555 1_555
C5A N1A 1_555 1_555
C6A C5A 1_555 1_555
C7A C6A 1_555 1_555
H10A C7A 1_555 1_555
C8A C7A 1_555 1_555
H11A C8A 1_555 1_555
C9A C8A 1_555 1_555
H12A C9A 1_555 1_555
C10A C9A 1_555 1_555
H13A C10A 1_555 1_555
C11A C6A 1_555 1_555
H14A C11A 1_555 1_555
C12A H15A 1_555 1_555
C13A C12A 1_555 1_555
C14A C15 1_555 1_555
H16A C14A 1_555 1_555
C15A C14 1_555 1_555
H17A C15A 1_555 1_555
C16A Sn2A 1_555 1_555
H18A C16A 1_555 1_555
H19A C16A 1_555 1_555
H20A C16A 1_555 1_555
C17A Sn2A 1_555 1_555
H21A C17A 1_555 1_555
H22A C17A 1_555 1_555
H23A C17A 1_555 1_555
C18A Sn2A 1_555 1_555
H24A C18A 1_555 1_555
H25A C18A 1_555 1_555
H26A C18A 1_555 1_555
C19A N5A 1_555 1_555
C20A N5A 1_555 1_555
C21A C20A 1_555 1_555
C22A C21A 1_555 1_555
H27A C22A 1_555 1_555
C23A C22A 1_555 1_555
H28A C23A 1_555 1_555
C24A C23A 1_555 1_555
H29A C24A 1_555 1_555
C25A C24A 1_555 1_555
H30A C25A 1_555 1_555
C26A C21A 1_555 1_555
H31A C26A 1_555 1_555
C27A H32A 1_555 1_555
C28A C27A 1_555 1_555
C29A C30 1_555 1_555
H33A C29A 1_555 1_555
C30A C29 1_555 1_555
H34A C30A 1_555 1_555
N2 C5 1_555 1_555
N3 C4 1_555 1_555
N6 C20 1_555 1_555
C10 C11 1_555 1_555
C25 C26 1_555 1_555
N2A C5A 1_555 1_555
N6A C20A 1_555 1_555
C10A C11A 1_555 1_555
C13A C14A 1_555 1_555
C13A C15A 1_555 1_555
C25A C26A 1_555 1_555
C28A C29A 1_555 1_555
C28A C30A 1_555 1_555

#END
