
#######################################################################
#
#                 Cambridge Crystallographic Data Centre
#                                CCDC 
#
#######################################################################
#
# If this CIF has been generated from an entry in the Cambridge 
# Structural Database, then it will include bibliographic, chemical, 
# crystal, experimental, refinement or atomic coordinate data resulting 
# from the CCDC's data processing and validation procedures.
#
#######################################################################

data_XUDNER
_symmetry_cell_setting           orthorhombic
_symmetry_space_group_name_H-M   'I 2 2 2'
_symmetry_Int_Tables_number      23
_space_group_name_Hall           'I 2 2'
loop_
_symmetry_equiv_pos_site_id
_symmetry_equiv_pos_as_xyz
1 x,y,z
2 x,-y,-z
3 -x,y,-z
4 -x,-y,z
5 1/2+x,1/2+y,1/2+z
6 1/2+x,1/2-y,1/2-z
7 1/2-x,1/2+y,1/2-z
8 1/2-x,1/2-y,1/2+z
_cell_length_a                   9.0511(11)
_cell_length_b                   17.789(3)
_cell_length_c                   24.112(3)
_cell_angle_alpha                90
_cell_angle_beta                 90
_cell_angle_gamma                90
_cell_volume                     3882.27
loop_
_atom_site_label
_atom_site_type_symbol
_atom_site_fract_x
_atom_site_fract_y
_atom_site_fract_z
C1 C 0.7487(8) 0.4233(6) 0.1754(4)
H1 H 0.8107 0.4442 0.2020
C2 C 0.212(2) 0.2866(10) 0.2597(11)
C3 C 0.8109(9) 0.3805(7) 0.1324(4)
H2 H 0.9128 0.3750 0.1297
C4 C 0.7184(10) 0.3464(5) 0.0939(3)
C5 C 0.5736(10) 0.3597(5) 0.0975(3)
H3 H 0.5093 0.3401 0.0711
C6 C 0.5200(9) 0.4024(4) 0.1406(3)
H4 H 0.4183 0.4090 0.1429
C7 C 0.7883(11) 0.3031(6) 0.0486(4)
H5 H 0.8905 0.2984 0.0468
C8 C 0.7111(10) 0.1975(6) -0.0607(3)
H6 H 0.6092 0.2001 -0.0562
C9 C 0.7699(10) 0.1485(5) -0.1046(4)
C10 C 0.9313(10) 0.1428(6) -0.1108(4)
H7 H 0.9950 0.1668 -0.0863
C11 C 0.9836(12) 0.1011(5) -0.1538(3)
H8 H 1.0854 0.0966 -0.1579
C12 C 0.7494(8) 0.0706(5) -0.1828(4)
H9 H 0.6864 0.0436 -0.2059
C13 C 0.6879(10) 0.1140(6) -0.1418(4)
H10 H 0.5858 0.1191 -0.1402
N1 N 0.6034(7) 0.4348(3) 0.1793(2)
N2 N 0.7091(9) 0.2733(5) 0.0133(3)
N3 N 0.7929(11) 0.2368(7) -0.0284(4)
N4 N 0.8944(7) 0.0651(3) -0.1914(2)
O1 O 0.3163(5) 0.4216(3) 0.2445(2)
O2 O 0.0510(7) 0.4106(5) 0.2484(5)
O3 O 0.1578(17) 0.3771(10) 0.1676(6)
F1 F 0.184(3) 0.2976(13) 0.3167(9)
F2 F 0.3183(18) 0.2603(7) 0.2744(6)
F3 F 0.0963(15) 0.2455(6) 0.2615(7)
S1 S 0.1782(2) 0.38601(15) 0.2342(2)
Zn1 Zn 0.5000 0.5000 0.24402(3)
C1C C 0.2513(8) 0.5767(6) 0.1754(4)
H1C H 0.1893 0.5558 0.2020
C2C C 0.788(2) 0.7134(10) 0.2597(11)
C3C C 0.1891(9) 0.6195(7) 0.1324(4)
H2C H 0.0872 0.6250 0.1297
C4C C 0.2816(10) 0.6536(5) 0.0939(3)
C5C C 0.4264(10) 0.6403(5) 0.0975(3)
H3C H 0.4907 0.6599 0.0711
C6C C 0.4800(9) 0.5976(4) 0.1406(3)
H4C H 0.5817 0.5910 0.1429
C7C C 0.2117(11) 0.6969(6) 0.0486(4)
H5C H 0.1095 0.7016 0.0468
C8C C 0.2889(10) 0.8025(6) -0.0607(3)
H6C H 0.3908 0.7999 -0.0562
C9C C 0.2301(10) 0.8515(5) -0.1046(4)
C10C C 0.0687(10) 0.8572(6) -0.1108(4)
H7C H 0.0050 0.8332 -0.0863
C11C C 0.0164(12) 0.8989(5) -0.1538(3)
H8C H -0.0854 0.9034 -0.1579
C12C C 0.2506(8) 0.9294(5) -0.1828(4)
H9C H 0.3136 0.9564 -0.2059
C13C C 0.3121(10) 0.8860(6) -0.1418(4)
H10C H 0.4142 0.8809 -0.1402
N1C N 0.3966(7) 0.5652(3) 0.1793(2)
N2C N 0.2909(9) 0.7267(5) 0.0133(3)
N3C N 0.2071(11) 0.7632(7) -0.0284(4)
N4C N 0.1056(7) 0.9349(3) -0.1914(2)
O1C O 0.6837(5) 0.5784(3) 0.2445(2)
O2C O 0.9490(7) 0.5894(5) 0.2484(5)
O3C O 0.8422(17) 0.6229(10) 0.1676(6)
F1C F 0.816(3) 0.7024(13) 0.3167(9)
F2C F 0.6817(18) 0.7397(7) 0.2744(6)
F3C F 0.9037(15) 0.7545(6) 0.2615(7)
S1C S 0.8218(2) 0.61399(15) 0.2342(2)
N4D N 0.3944(7) 0.5651(3) 0.3086(2)
N4G N 0.6056(7) 0.4349(3) 0.3086(2)
Zn1D Zn 0.0000 1.0000 -0.25598(3)
Zn1D_2 Zn 1.0000 0.0000 -0.25598(3)
loop_
_geom_bond_atom_site_label_1
_geom_bond_atom_site_label_2
_geom_bond_site_symmetry_1
_geom_bond_site_symmetry_2
C1 H1 1_555 1_555
C2 F1 1_555 1_555
C3 C1 1_555 1_555
H2 C3 1_555 1_555
C4 C3 1_555 1_555
C5 C4 1_555 1_555
H3 C5 1_555 1_555
C6 C5 1_555 1_555
H4 C6 1_555 1_555
C7 C4 1_555 1_555
H5 C7 1_555 1_555
C8 H6 1_555 1_555
C9 C8 1_555 1_555
C10 C9 1_555 1_555
H7 C10 1_555 1_555
C11 C10 1_555 1_555
H8 C11 1_555 1_555
C12 H9 1_555 1_555
C13 C9 1_555 1_555
H10 C13 1_555 1_555
N1 C1 1_555 1_555
N2 C7 1_555 1_555
N3 C8 1_555 1_555
N4 C11 1_555 1_555
O1 S1 1_555 1_555
O2 S1 1_555 1_555
O3 S1 1_555 1_555
F2 C2 1_555 1_555
F3 C2 1_555 1_555
S1 C2 1_555 1_555
Zn1 N1 1_555 1_555
C1C H1C 1_555 1_555
C2C F1C 1_555 1_555
C3C C1C 1_555 1_555
H2C C3C 1_555 1_555
C4C C3C 1_555 1_555
C5C C4C 1_555 1_555
H3C C5C 1_555 1_555
C6C C5C 1_555 1_555
H4C C6C 1_555 1_555
C7C C4C 1_555 1_555
H5C C7C 1_555 1_555
C8C H6C 1_555 1_555
C9C C8C 1_555 1_555
C10C C9C 1_555 1_555
H7C C10C 1_555 1_555
C11C C10C 1_555 1_555
H8C C11C 1_555 1_555
C12C H9C 1_555 1_555
C13C C9C 1_555 1_555
H10C C13C 1_555 1_555
N1C Zn1 1_555 1_555
N2C C7C 1_555 1_555
N3C C8C 1_555 1_555
N4C C11C 1_555 1_555
O1C Zn1 1_555 1_555
O2C S1C 1_555 1_555
O3C S1C 1_555 1_555
F2C C2C 1_555 1_555
F3C C2C 1_555 1_555
S1C C2C 1_555 1_555
N4D Zn1 1_555 1_555
N4G Zn1 1_555 1_555
Zn1D N4C 1_555 1_555
Zn1D_2 N4 1_555 1_555
C6 N1 1_555 1_555
C12 C13 1_555 1_555
C12 N4 1_555 1_555
N2 N3 1_555 1_555
O1 Zn1 1_555 1_555
C1C N1C 1_555 1_555
C6C N1C 1_555 1_555
C12C C13C 1_555 1_555
C12C N4C 1_555 1_555
N2C N3C 1_555 1_555
O1C S1C 1_555 1_555

#END
