
#######################################################################
#
#                 Cambridge Crystallographic Data Centre
#                                CCDC 
#
#######################################################################
#
# If this CIF has been generated from an entry in the Cambridge 
# Structural Database, then it will include bibliographic, chemical, 
# crystal, experimental, refinement or atomic coordinate data resulting 
# from the CCDC's data processing and validation procedures.
#
#######################################################################

data_XUDNAN
_symmetry_cell_setting           triclinic
_symmetry_space_group_name_H-M   'P -1'
_symmetry_Int_Tables_number      2
_space_group_name_Hall           '-P 1'
loop_
_symmetry_equiv_pos_site_id
_symmetry_equiv_pos_as_xyz
1 x,y,z
2 -x,-y,-z
_cell_length_a                   13.0022(3)
_cell_length_b                   13.3793(3)
_cell_length_c                   25.8929(4)
_cell_angle_alpha                84.060(2)
_cell_angle_beta                 88.104(2)
_cell_angle_gamma                66.361(2)
_cell_volume                     4104.05
loop_
_atom_site_label
_atom_site_type_symbol
_atom_site_fract_x
_atom_site_fract_y
_atom_site_fract_z
Tb1 Tb 0.62516(2) 1.30672(2) 0.505823(10)
Tb2 Tb 0.84212(2) 0.62555(2) 1.042990(10)
C1 C 0.8094(5) 0.7119(5) 0.1381(2)
C2 C 0.7915(5) 0.7590(5) 0.1892(2)
C3 C 0.8012(5) 0.8584(5) 0.1933(2)
H1 H 0.8234 0.8938 0.1651
C4 C 0.7610(5) 0.7040(5) 0.2320(2)
H2 H 0.7583 0.6364 0.2289
C5 C 0.7348(5) 0.7495(5) 0.2791(2)
H3 H 0.7127 0.7142 0.3073
C6 C 0.7423(5) 0.8490(5) 0.2827(2)
C7 C 0.7772(5) 0.9024(5) 0.2404(2)
C8 C 0.7807(5) 1.0088(5) 0.2551(2)
C9 C 0.7056(7) 1.1091(5) 0.2197(2)
H4 H 0.7321 1.1019 0.1847
H5 H 0.7079 1.1741 0.2312
H6 H 0.6297 1.1143 0.2210
C10 C 0.9021(6) 1.0005(6) 0.2537(3)
H7 H 0.9484 0.9371 0.2757
H8 H 0.9043 1.0651 0.2658
H9 H 0.9294 0.9940 0.2187
C11 C 0.7376(5) 1.0108(5) 0.3107(2)
C12 C 0.7158(5) 0.9183(5) 0.3258(2)
C13 C 0.6739(5) 0.9028(5) 0.3751(2)
H10 H 0.6580 0.8416 0.3848
C14 C 0.6565(5) 0.9827(5) 0.4093(2)
H11 H 0.6281 0.9748 0.4422
C15 C 0.7221(5) 1.0885(5) 0.3450(2)
H12 H 0.7385 1.1494 0.3353
C16 C 0.6813(5) 1.0735(5) 0.3946(2)
C17 C 0.6669(5) 1.1543(5) 0.4331(2)
C18 C 0.5761(6) 1.2008(5) 0.6224(2)
C19 C 0.6384(5) 1.1383(5) 0.6715(2)
C20 C 0.5791(5) 1.1304(5) 0.7163(2)
H13 H 0.5011 1.1643 0.7163
C21 C 0.7555(5) 1.0869(5) 0.6715(2)
H14 H 0.7942 1.0919 0.6411
C22 C 0.8150(5) 1.0285(5) 0.7160(2)
H15 H 0.8930 0.9949 0.7159
C23 C 0.7550(5) 1.0214(5) 0.7611(2)
C24 C 0.6376(5) 1.0712(5) 0.7610(2)
C25 C 0.5898(5) 1.0469(5) 0.8131(2)
C26 C 0.5155(6) 0.9848(6) 0.8066(3)
H16 H 0.5579 0.9187 0.7908
H17 H 0.4520 1.0300 0.7849
H18 H 0.4899 0.9666 0.8400
C27 C 0.5259(6) 1.1514(6) 0.8392(3)
H19 H 0.4987 1.1329 0.8722
H20 H 0.4636 1.1996 0.8176
H21 H 0.5750 1.1873 0.8444
C28 C 0.6967(5) 0.9747(5) 0.8428(2)
C29 C 0.7930(5) 0.9639(5) 0.8133(2)
C30 C 0.9001(5) 0.9021(6) 0.8338(2)
H22 H 0.9636 0.8967 0.8147
C31 C 0.7083(5) 0.9199(5) 0.8920(2)
H23 H 0.6449 0.9266 0.9114
C32 C 0.9100(5) 0.8490(6) 0.8834(2)
H24 H 0.9811 0.8086 0.8978
C33 C 0.8150(5) 0.8547(5) 0.9124(2)
C34 C 0.8254(5) 0.7877(5) 0.9631(2)
C35 C 0.8783(5) 0.5026(5) 0.9287(2)
C36 C 0.8091(5) 0.5194(5) 0.8805(2)
C37 C 0.8421(5) 0.4402(5) 0.8451(2)
H25 H 0.9053 0.3753 0.8516
C38 C 0.7155(6) 0.6154(5) 0.8707(3)
H26 H 0.6934 0.6665 0.8950
C39 C 0.6534(7) 0.6373(6) 0.8252(3)
H27 H 0.5913 0.7031 0.8185
C40 C 0.6858(5) 0.5591(5) 0.7898(2)
C41 C 0.7786(5) 0.4602(5) 0.7997(2)
C42 C 0.7936(6) 0.3864(6) 0.7569(3)
C43 C 0.9090(8) 0.3419(9) 0.7340(4)
H28 H 0.9223 0.4039 0.7185
H29 H 0.9139 0.2941 0.7080
H30 H 0.9642 0.3029 0.7607
C44 C 0.7643(12) 0.2875(7) 0.7781(4)
H31 H 0.8134 0.2467 0.8067
H32 H 0.7738 0.2407 0.7510
H33 H 0.6879 0.3141 0.7895
C45 C 0.7031(5) 0.4622(5) 0.7182(2)
C46 C 0.6399(5) 0.5611(5) 0.7386(2)
C47 C 0.5495(6) 0.6418(5) 0.7104(3)
H34 H 0.5057 0.7069 0.7242
C48 C 0.5268(6) 0.6224(5) 0.6614(2)
H35 H 0.4677 0.6760 0.6420
C49 C 0.6781(6) 0.4439(5) 0.6692(2)
H36 H 0.7201 0.3779 0.6557
C50 C 0.5902(5) 0.5247(5) 0.6406(2)
C51 C 0.5615(5) 0.5050(5) 0.5878(2)
O1 O 0.8195(4) 0.7687(4) 0.09730(16)
O2 O 0.8123(4) 0.6170(4) 0.13571(16)
O3 O 0.7179(4) 1.2173(4) 0.42703(17)
O4 O 0.6039(4) 1.1562(4) 0.47214(16)
O5 O 0.6327(4) 1.1927(4) 0.58138(16)
O6 O 0.4718(4) 1.2563(4) 0.62540(16)
O7 O 0.9227(4) 0.7244(4) 0.98093(16)
O8 O 0.7385(4) 0.7912(4) 0.98691(16)
O9 O 0.8367(5) 0.5631(4) 0.96345(17)
O10 O 0.9758(4) 0.4288(4) 0.93004(18)
O11 O 0.4887(4) 0.5835(4) 0.56091(16)
O12 O 0.6117(4) 0.4118(4) 0.57347(17)
O13 O 0.4278(4) 1.3494(3) 0.53101(16)
H37 H 0.4152 1.3408 0.5632
H38 H 0.3755 1.3437 0.5144
O14 O 0.7136(4) 1.4286(4) 0.47265(17)
H39 H 0.6817 1.4950 0.4600
H40 H 0.7840 1.4119 0.4729
O15 O 0.8939(4) 0.4325(4) 1.06478(18)
H41 H 0.9637 0.3926 1.0635
H42 H 0.8726 0.4244 1.0957
C52 C 0.9056(8) 1.1757(8) 0.5099(4)
H43 H 0.9037 1.1835 0.4738
C53 C 1.0164(10) 1.1107(10) 0.5869(4)
H44 H 0.9441 1.1558 0.5996
H45 H 1.0718 1.1346 0.5979
H46 H 1.0356 1.0357 0.6003
C54 C 1.1061(11) 1.0869(13) 0.5026(6)
H47 H 1.0869 1.1096 0.4666
H48 H 1.1408 1.0084 0.5079
H49 H 1.1575 1.1167 0.5129
N1 N 1.0091(6) 1.1217(7) 0.5318(3)
O16 O 0.8172(4) 1.2144(4) 0.5302(2)
C55 C 0.6116(12) 0.5976(11) 1.0853(5)
H50 H 0.6219 0.6111 1.1188
C56 C 0.4600(12) 0.6058(8) 1.0405(4)
H51 H 0.4502 0.6812 1.0354
H52 H 0.3901 0.6018 1.0509
H53 H 0.4843 0.5726 1.0087
C57 C 0.4804(13) 0.5271(13) 1.1211(6)
H54 H 0.5268 0.5003 1.1517
H55 H 0.4549 0.4727 1.1125
H56 H 0.4169 0.5930 1.1273
N2 N 0.5430(11) 0.5491(12) 1.0799(5)
O17 O 0.6623(5) 0.6265(6) 1.0515(2)
Tb1_2 Tb 0.62516(2) 0.30672(2) 0.505823(10)
Tb1A Tb 0.37484(2) 0.69328(2) 0.494177(10)
Tb2_2 Tb 0.84212(2) 0.62555(2) 0.042990(10)
Tb2A Tb 1.15788(2) 0.37445(2) 0.957010(10)
O1_2 O 0.8195(4) 0.7687(4) 1.09730(16)
O2_2 O 0.8123(4) 0.6170(4) 1.13571(16)
O10A O 1.0242(4) 0.5712(4) 1.06996(18)
O11A O 0.5113(4) 1.4165(4) 0.43909(16)
O12_2 O 0.6117(4) 1.4118(4) 0.57347(17)
N3 N 0.3458(6) 0.1512(6) 0.4094(3)
O18 O 0.3158(6) 0.2548(7) 0.4765(3)
C58 C 0.3696(10) 0.1366(10) 0.3552(4)
H57 H 0.3613 0.2054 0.3366
H58 H 0.3182 0.1109 0.3413
H59 H 0.4451 0.0839 0.3517
C59 C 0.3385(10) 0.2312(10) 0.4335(5)
H60 H 0.3547 0.2838 0.4126
C60 C 0.348(2) 0.0551(13) 0.4342(6)
H61 H 0.3799 0.0440 0.4683
H62 H 0.3911 -0.0061 0.4152
H63 H 0.2720 0.0613 0.4370
O19 O -0.0575(7) 0.3852(7) 0.4813(3)
N4 N 0.0066(8) 0.3926(8) 0.5604(4)
C61 C 0.0211(9) 0.3677(9) 0.5117(4)
H64 H 0.0941 0.3354 0.4996
C62 C -0.1069(14) 0.4444(15) 0.5740(7)
H65 H -0.1255 0.5209 0.5763
H66 H -0.1200 0.4114 0.6069
H67 H -0.1530 0.4365 0.5478
C63 C 0.0972(9) 0.3800(9) 0.5904(5)
H68 H 0.1634 0.3580 0.5695
H69 H 0.1065 0.3246 0.6187
H70 H 0.0854 0.4479 0.6039
N5 N 0.3281(8) 0.5228(7) 0.7119(3)
C64 C 0.2908(9) 0.5352(8) 0.6585(4)
H71 H 0.2222 0.5992 0.6528
H72 H 0.2785 0.4716 0.6518
H73 H 0.3475 0.5425 0.6356
C65 C 0.4306(9) 0.4258(9) 0.7284(4)
H74 H 0.4942 0.4453 0.7262
H75 H 0.4417 0.3694 0.7061
H76 H 0.4227 0.3992 0.7636
O20 O 0.3190(12) 0.5866(11) 0.7892(4)
C66 C 0.2752(16) 0.5999(13) 0.7428(5)
H77 H 0.2103 0.6605 0.7322
O21 O 0.7939(7) 0.3214(7) 0.1250(3)
H78 H 0.7489 0.3051 0.1080
H79 H 0.8075 0.2819 0.1539
O22 O 0.0410(10) 0.2851(13) 0.3937(5)
H80 H 0.0755 0.2943 0.4189
H81 H 0.0104 0.3465 0.3757
O23 O 0.9345(9) 0.1623(9) 0.3761(7)
H82 H 0.8656 0.1940 0.3838
H83 H 0.9634 0.2092 0.3758
C67 C 0.0230(13) 0.8727(17) 0.0713(10)
H84 H -0.0273 0.8617 0.0502
C68 C 0.1635(14) 0.7406(11) 0.0228(5)
H85 H 0.1200 0.6974 0.0300
H86 H 0.2416 0.6951 0.0289
H87 H 0.1523 0.7712 -0.0128
C69 C 0.2178(19) 0.856(2) 0.0708(7)
H88 H 0.2294 0.8403 0.1077
H89 H 0.1977 0.9330 0.0615
H90 H 0.2856 0.8146 0.0535
N6 N 0.1280(8) 0.8284(8) 0.0564(4)
O24 O -0.019(3) 0.924(3) 0.1062(12)
N7 N 0.9593(9) 0.6404(13) 0.7604(4)
C70 C 1.0059(11) 0.6162(10) 0.8088(6)
H91 H 1.0643 0.6424 0.8106
H92 H 1.0376 0.5376 0.8141
H93 H 0.9514 0.6454 0.8351
O25 O 0.9679(14) 0.5536(11) 0.6851(5)
C71 C 0.9973(17) 0.5489(13) 0.7312(7)
H94 H 1.0468 0.4818 0.7470
C72 C 0.8959(19) 0.7333(17) 0.7408(8)
H95 H 0.8560 0.7811 0.7665
H96 H 0.8433 0.7289 0.7169
H97 H 0.9453 0.7616 0.7223
C73 C 0.425(3) 0.789(2) 0.9316(19)
H98 H 0.5010 0.7499 0.9266
C74 C 0.2963(15) 0.9832(15) 0.9343(8)
H99 H 0.3113 1.0066 0.8996
H100 H 0.2888 1.0385 0.9568
H101 H 0.2279 0.9719 0.9344
C75 C 0.444(2) 0.924(2) 0.9823(12)
H102 H 0.4254 0.9103 1.0177
H103 H 0.4273 1.0007 0.9745
H104 H 0.5228 0.8824 0.9772
N8 N 0.3887(14) 0.8804(10) 0.9529(4)
O26 O 0.357(2) 0.754(2) 0.9183(11)
loop_
_geom_bond_atom_site_label_1
_geom_bond_atom_site_label_2
_geom_bond_site_symmetry_1
_geom_bond_site_symmetry_2
Tb1 O3 1_555 1_555
Tb2 O7 1_555 1_555
C1 C2 1_555 1_555
C2 C3 1_555 1_555
C3 H1 1_555 1_555
C4 C2 1_555 1_555
H2 C4 1_555 1_555
C5 C4 1_555 1_555
H3 C5 1_555 1_555
C6 C5 1_555 1_555
C7 C3 1_555 1_555
C8 C7 1_555 1_555
C9 C8 1_555 1_555
H4 C9 1_555 1_555
H5 C9 1_555 1_555
H6 C9 1_555 1_555
C10 C8 1_555 1_555
H7 C10 1_555 1_555
H8 C10 1_555 1_555
H9 C10 1_555 1_555
C11 C8 1_555 1_555
C12 C6 1_555 1_555
C13 C12 1_555 1_555
H10 C13 1_555 1_555
C14 C13 1_555 1_555
H11 C14 1_555 1_555
C15 C11 1_555 1_555
H12 C15 1_555 1_555
C16 C14 1_555 1_555
C17 C16 1_555 1_555
C18 C19 1_555 1_555
C19 C20 1_555 1_555
C20 H13 1_555 1_555
C21 C19 1_555 1_555
H14 C21 1_555 1_555
C22 C21 1_555 1_555
H15 C22 1_555 1_555
C23 C22 1_555 1_555
C24 C20 1_555 1_555
C25 C24 1_555 1_555
C26 C25 1_555 1_555
H16 C26 1_555 1_555
H17 C26 1_555 1_555
H18 C26 1_555 1_555
C27 C25 1_555 1_555
H19 C27 1_555 1_555
H20 C27 1_555 1_555
H21 C27 1_555 1_555
C28 C25 1_555 1_555
C29 C23 1_555 1_555
C30 C29 1_555 1_555
H22 C30 1_555 1_555
C31 C28 1_555 1_555
H23 C31 1_555 1_555
C32 C30 1_555 1_555
H24 C32 1_555 1_555
C33 C31 1_555 1_555
C34 C33 1_555 1_555
C35 C36 1_555 1_555
C36 C37 1_555 1_555
C37 H25 1_555 1_555
C38 C36 1_555 1_555
H26 C38 1_555 1_555
C39 C38 1_555 1_555
H27 C39 1_555 1_555
C40 C39 1_555 1_555
C41 C37 1_555 1_555
C42 C41 1_555 1_555
C43 C42 1_555 1_555
H28 C43 1_555 1_555
H29 C43 1_555 1_555
H30 C43 1_555 1_555
C44 C42 1_555 1_555
H31 C44 1_555 1_555
H32 C44 1_555 1_555
H33 C44 1_555 1_555
C45 C42 1_555 1_555
C46 C40 1_555 1_555
C47 C46 1_555 1_555
H34 C47 1_555 1_555
C48 C47 1_555 1_555
H35 C48 1_555 1_555
C49 C45 1_555 1_555
H36 C49 1_555 1_555
C50 C48 1_555 1_555
C51 C50 1_555 1_555
O1 C1 1_555 1_555
O2 C1 1_555 1_555
O3 C17 1_555 1_555
O4 Tb1 1_555 1_555
O5 Tb1 1_555 1_555
O6 C18 1_555 1_555
O7 C34 1_555 1_555
O8 Tb2 1_555 1_555
O9 Tb2 1_555 1_555
O10 C35 1_555 1_555
O11 C51 1_555 1_555
O12 C51 1_555 1_555
O13 Tb1 1_555 1_555
H37 O13 1_555 1_555
H38 O13 1_555 1_555
O14 Tb1 1_555 1_555
H39 O14 1_555 1_555
H40 O14 1_555 1_555
O15 Tb2 1_555 1_555
H41 O15 1_555 1_555
H42 O15 1_555 1_555
C52 H43 1_555 1_555
C53 H44 1_555 1_555
H45 C53 1_555 1_555
H46 C53 1_555 1_555
C54 H47 1_555 1_555
H48 C54 1_555 1_555
H49 C54 1_555 1_555
N1 C52 1_555 1_555
O16 Tb1 1_555 1_555
C55 H50 1_555 1_555
C56 H51 1_555 1_555
H52 C56 1_555 1_555
H53 C56 1_555 1_555
C57 H54 1_555 1_555
H55 C57 1_555 1_555
H56 C57 1_555 1_555
N2 C55 1_555 1_555
O17 Tb2 1_555 1_555
N3 C58 1_555 1_555
O18 C59 1_555 1_555
C58 H57 1_555 1_555
H58 C58 1_555 1_555
H59 C58 1_555 1_555
C59 N3 1_555 1_555
H60 C59 1_555 1_555
C60 N3 1_555 1_555
H61 C60 1_555 1_555
H62 C60 1_555 1_555
H63 C60 1_555 1_555
O19 C61 1_555 1_555
N4 C61 1_555 1_555
C61 H64 1_555 1_555
C62 N4 1_555 1_555
H65 C62 1_555 1_555
H66 C62 1_555 1_555
H67 C62 1_555 1_555
C63 N4 1_555 1_555
H68 C63 1_555 1_555
H69 C63 1_555 1_555
H70 C63 1_555 1_555
N5 C64 1_555 1_555
C64 H71 1_555 1_555
H72 C64 1_555 1_555
H73 C64 1_555 1_555
C65 N5 1_555 1_555
H74 C65 1_555 1_555
H75 C65 1_555 1_555
H76 C65 1_555 1_555
O20 C66 1_555 1_555
C66 N5 1_555 1_555
H77 C66 1_555 1_555
O21 H78 1_555 1_555
H79 O21 1_555 1_555
O22 H80 1_555 1_555
H81 O22 1_555 1_555
O23 H82 1_555 1_555
H83 O23 1_555 1_555
C67 H84 1_555 1_555
C68 H85 1_555 1_555
H86 C68 1_555 1_555
H87 C68 1_555 1_555
C69 H88 1_555 1_555
H89 C69 1_555 1_555
H90 C69 1_555 1_555
N6 C67 1_555 1_555
O24 C67 1_555 1_555
N7 C70 1_555 1_555
C70 H91 1_555 1_555
H92 C70 1_555 1_555
H93 C70 1_555 1_555
O25 C71 1_555 1_555
C71 N7 1_555 1_555
H94 C71 1_555 1_555
C72 N7 1_555 1_555
H95 C72 1_555 1_555
H96 C72 1_555 1_555
H97 C72 1_555 1_555
C73 H98 1_555 1_555
C74 H99 1_555 1_555
H100 C74 1_555 1_555
H101 C74 1_555 1_555
C75 H102 1_555 1_555
H103 C75 1_555 1_555
H104 C75 1_555 1_555
N8 C73 1_555 1_555
O26 C73 1_555 1_555
Tb1_2 O12 1_555 1_555
Tb1A O11 1_555 1_555
Tb2_2 O1 1_555 1_555
Tb2A O10 1_555 1_555
O1_2 Tb2 1_555 1_555
O2_2 Tb2 1_555 1_555
O10A Tb2 1_555 1_555
O11A Tb1 1_555 1_555
O12_2 Tb1 1_555 1_555
C6 C7 1_555 1_555
C11 C12 1_555 1_555
C15 C16 1_555 1_555
C17 O4 1_555 1_555
C18 O5 1_555 1_555
C23 C24 1_555 1_555
C28 C29 1_555 1_555
C32 C33 1_555 1_555
C34 O8 1_555 1_555
C35 O9 1_555 1_555
C40 C41 1_555 1_555
C45 C46 1_555 1_555
C49 C50 1_555 1_555
O2 Tb2_2 1_555 1_555
C52 O16 1_555 1_555
C53 N1 1_555 1_555
C54 N1 1_555 1_555
C55 O17 1_555 1_555
C56 N2 1_555 1_555
C57 N2 1_555 1_555
C68 N6 1_555 1_555
C69 N6 1_555 1_555
C74 N8 1_555 1_555
C75 N8 1_555 1_555

#END
