
#######################################################################
#
#                 Cambridge Crystallographic Data Centre
#                                CCDC 
#
#######################################################################
#
# If this CIF has been generated from an entry in the Cambridge 
# Structural Database, then it will include bibliographic, chemical, 
# crystal, experimental, refinement or atomic coordinate data resulting 
# from the CCDC's data processing and validation procedures.
#
#######################################################################

data_XUDSEU
_symmetry_cell_setting           monoclinic
_symmetry_space_group_name_H-M   'C 2/c'
_symmetry_Int_Tables_number      15
_space_group_name_Hall           '-C 2yn'
loop_
_symmetry_equiv_pos_site_id
_symmetry_equiv_pos_as_xyz
1 x,y,z
2 x,-y,1/2+z
3 1/2+x,1/2+y,z
4 1/2+x,1/2-y,1/2+z
5 -x,-y,-z
6 -x,y,1/2-z
7 1/2-x,1/2-y,-z
8 1/2-x,1/2+y,1/2-z
_cell_length_a                   18.5048(3)
_cell_length_b                   6.53513(10)
_cell_length_c                   7.31801(10)
_cell_angle_alpha                90
_cell_angle_beta                 99.6767(11)
_cell_angle_gamma                90
_cell_volume                     872.385
loop_
_atom_site_label
_atom_site_type_symbol
_atom_site_fract_x
_atom_site_fract_y
_atom_site_fract_z
C1 C 0.07140(7) 0.0041(9) 0.0997(4)
C2 C 0.0362(3) 0.1868(4) 0.0382(5)
C3 C 0.0352(3) -0.1827(5) 0.0614(5)
H1 H 0.0611(5) 0.3157(7) 0.0646(9)
H2 H 0.0595(5) -0.3087(8) 0.1038(9)
C4 C 0.1487(2) 0.0083(7) 0.1986(8)
O1 O 0.1869(2) 0.1629(6) 0.1973(5)
O2 O 0.1714(2) -0.1568(5) 0.2754(5)
Mg1 Mg 0.25000 0.25000 0.00000
O3 O 0.19849(17) 0.5365(4) -0.0230(5)
H3 H 0.18709 0.54683 0.10907
H4 H 0.24861 0.5982 -0.0057
C3D C -0.0352(3) 0.1827(5) -0.0614(5)
C1D C -0.07140(7) -0.0041(9) -0.0997(4)
C2D C -0.0362(3) -0.1868(4) -0.0382(5)
H1D H -0.0611(5) -0.3157(7) -0.0646(9)
C4D C -0.1487(2) -0.0083(7) -0.1986(8)
O1D O -0.1869(2) -0.1629(6) -0.1973(5)
O2D O -0.1714(2) 0.1568(5) -0.2754(5)
H2D H -0.0595(5) 0.3087(8) -0.1038(9)
O3F O 0.30151(17) -0.0365(4) 0.0230(5)
H3F H 0.31291 -0.04683 -0.10907
H4F H 0.25139 -0.0982 0.0057
Mg1A Mg 0.25000 -0.25000 0.50000
O1F O 0.3131(2) 0.3371(6) -0.1973(5)
O2A O 0.1714(2) 0.1568(5) -0.2246(5)
O2G O 0.3286(2) 0.3432(5) 0.2246(5)
Mg1B Mg -0.25000 -0.25000 0.00000
Mg1C Mg -0.25000 0.25000 -0.50000
loop_
_geom_bond_atom_site_label_1
_geom_bond_atom_site_label_2
_geom_bond_site_symmetry_1
_geom_bond_site_symmetry_2
C1 C2 1_555 1_555
C2 H1 1_555 1_555
C3 C1 1_555 1_555
H2 C3 1_555 1_555
C4 C1 1_555 1_555
O1 C4 1_555 1_555
O2 C4 1_555 1_555
Mg1 O1 1_555 1_555
O3 Mg1 1_555 1_555
H3 O3 1_555 1_555
H4 O3 1_555 1_555
C3D C2 1_555 1_555
C1D C3D 1_555 1_555
C2D C3 1_555 1_555
H1D C2D 1_555 1_555
C4D C1D 1_555 1_555
O1D C4D 1_555 1_555
O2D C4D 1_555 1_555
H2D C3D 1_555 1_555
O3F Mg1 1_555 1_555
H3F O3F 1_555 1_555
H4F O3F 1_555 1_555
Mg1A O2 1_555 1_555
O1F Mg1 1_555 1_555
O2A Mg1 1_555 1_555
O2G Mg1 1_555 1_555
Mg1B O1D 1_555 1_555
Mg1C O2D 1_555 1_555
C1D C2D 1_555 1_555

#END
