
#######################################################################
#
#                 Cambridge Crystallographic Data Centre
#                                CCDC 
#
#######################################################################
#
# If this CIF has been generated from an entry in the Cambridge 
# Structural Database, then it will include bibliographic, chemical, 
# crystal, experimental, refinement or atomic coordinate data resulting 
# from the CCDC's data processing and validation procedures.
#
#######################################################################

data_XUDVUP
_symmetry_cell_setting           monoclinic
_symmetry_space_group_name_H-M   'P 21/c'
_symmetry_Int_Tables_number      14
_space_group_name_Hall           '-P 2ybc'
loop_
_symmetry_equiv_pos_site_id
_symmetry_equiv_pos_as_xyz
1 x,y,z
2 -x,1/2+y,1/2-z
3 -x,-y,-z
4 x,1/2-y,1/2+z
_cell_length_a                   9.9557(5)
_cell_length_b                   10.1208(4)
_cell_length_c                   24.9537(11)
_cell_angle_alpha                90
_cell_angle_beta                 98.571(2)
_cell_angle_gamma                90
_cell_volume                     2486.25
loop_
_atom_site_label
_atom_site_type_symbol
_atom_site_fract_x
_atom_site_fract_y
_atom_site_fract_z
Cu1 Cu 0.97720(4) 0.41799(3) 0.619952(13)
Cu2 Cu 0.83626(4) 0.48187(4) 0.490644(14)
O1 O 0.9616(3) 0.4476(2) 0.69603(9)
O2 O 0.7999(3) 0.2959(4) 0.69145(11)
O3 O 0.9442(3) 0.7446(2) 0.86063(9)
O4 O 0.9640(5) 0.6419(3) 0.93954(10)
O5 O 0.8416(3) 0.1715(2) 0.94405(9)
O6 O 0.8356(3) 0.0516(2) 0.86842(9)
O7 O 0.9797(3) 0.4044(2) 0.54242(9)
H1 H 0.982(4) 0.3221(19) 0.5384(16)
N1 N 0.6755(3) 0.5595(3) 0.44336(11)
N2 N 0.5582(4) 0.4924(4) 0.42508(18)
N3 N 0.5637(3) 0.6685(4) 0.37603(12)
N4 N 0.8035(3) 0.8935(3) 0.05020(11)
N5 N 0.8565(3) 0.9244(3) 0.10241(10)
N6 N 0.7392(3) 0.7441(3) 0.10374(11)
C1 C 0.5666(4) 0.7195(5) 0.27883(15)
C2 C 0.4897(5) 0.7660(6) 0.23200(19)
H2 H 0.4152 0.8200 0.2341
C3 C 0.5237(5) 0.7321(6) 0.18187(18)
H3 H 0.4714 0.7635 0.1505
C4 C 0.6348(4) 0.6518(4) 0.17805(15)
C5 C 0.7092(5) 0.6048(5) 0.22494(16)
H4 H 0.7832 0.5499 0.2230
C6 C 0.6752(5) 0.6382(5) 0.27504(16)
H5 H 0.7265 0.6053 0.3064
C7 C 0.5307(5) 0.7661(5) 0.33264(17)
H6 H 0.5795 0.8473 0.3430
H7 H 0.4343 0.7854 0.3284
C8 C 0.6769(5) 0.6243(4) 0.12374(16)
H8 H 0.7417 0.5521 0.1269
H9 H 0.5982 0.5984 0.0982
C9 C 0.6755(4) 0.6633(4) 0.41322(15)
H10 H 0.7442 0.7264 0.4169
C10 C 0.4936(5) 0.5596(5) 0.3849(2)
H11 H 0.4105 0.5356 0.3651
C11 C 0.7329(5) 0.7858(4) 0.05218(14)
H12 H 0.6848 0.7436 0.0222
C12 C 0.8170(4) 0.8332(3) 0.13356(13)
H13 H 0.8395 0.8305 0.1711
C13 C 0.8845(3) 0.3863(3) 0.77705(12)
C14 C 0.9128(4) 0.5058(3) 0.80389(12)
H14 H 0.9294 0.5808 0.7844
C15 C 0.9164(4) 0.5138(3) 0.85999(12)
C16 C 0.8918(4) 0.4017(3) 0.88903(12)
H15 H 0.8937 0.4068 0.9263
C17 C 0.8645(3) 0.2816(3) 0.86252(12)
C18 C 0.8592(4) 0.2746(3) 0.80655(12)
H16 H 0.8386 0.1948 0.7887
C19 C 0.8802(4) 0.3743(3) 0.71667(12)
C20 C 0.9454(4) 0.6419(3) 0.88935(13)
C21 C 0.8449(3) 0.1576(3) 0.89333(12)
Cu1A Cu 1.02280(4) -0.08201(3) 0.880048(13)
Cu1A_2 Cu 1.02280(4) 0.91799(3) 0.880048(13)
Cu1C Cu 0.97720(4) 1.08201(3) 0.119952(13)
Cu2B Cu 1.16374(4) 0.51813(4) 0.509356(14)
Cu2C Cu 0.83626(4) 0.01813(4) 0.990644(14)
Cu2C_2 Cu 0.83626(4) 1.01813(4) -0.009356(14)
O3A O 1.0558(3) 0.2446(2) 0.63937(9)
O5C O 0.8416(3) 0.3285(2) 0.44405(9)
O6A O 1.1644(3) 0.5516(2) 0.63158(9)
O7B O 1.0203(3) 0.5956(2) 0.45758(9)
N4C N 0.8035(3) 0.6065(3) 0.55020(11)
N5C N 0.8565(3) 0.5756(3) 0.60241(10)
O8 O 0.8041(7) 0.5168(7) 1.0140(3)
O9 O 0.7358(7) 0.2068(8) 0.5875(2)
O10 O 0.5789(9) 0.2198(11) 0.4839(4)
O11 O 0.5702(19) 0.931(2) 0.4556(7)
loop_
_geom_bond_atom_site_label_1
_geom_bond_atom_site_label_2
_geom_bond_site_symmetry_1
_geom_bond_site_symmetry_2
Cu1 O1 1_555 1_555
Cu2 O7 1_555 1_555
O1 C19 1_555 1_555
O2 C19 1_555 1_555
O3 C20 1_555 1_555
O4 C20 1_555 1_555
O5 C21 1_555 1_555
O6 C21 1_555 1_555
O7 Cu1 1_555 1_555
H1 O7 1_555 1_555
N1 Cu2 1_555 1_555
N2 N1 1_555 1_555
N3 C7 1_555 1_555
N4 N5 1_555 1_555
N5 C12 1_555 1_555
N6 C8 1_555 1_555
C1 C2 1_555 1_555
C2 H2 1_555 1_555
C3 C2 1_555 1_555
H3 C3 1_555 1_555
C4 C3 1_555 1_555
C5 C4 1_555 1_555
H4 C5 1_555 1_555
C6 C1 1_555 1_555
H5 C6 1_555 1_555
C7 C1 1_555 1_555
H6 C7 1_555 1_555
H7 C7 1_555 1_555
C8 C4 1_555 1_555
H8 C8 1_555 1_555
H9 C8 1_555 1_555
C9 N1 1_555 1_555
H10 C9 1_555 1_555
C10 N2 1_555 1_555
H11 C10 1_555 1_555
C11 N4 1_555 1_555
H12 C11 1_555 1_555
C12 N6 1_555 1_555
H13 C12 1_555 1_555
C13 C14 1_555 1_555
C14 H14 1_555 1_555
C15 C14 1_555 1_555
C16 C15 1_555 1_555
H15 C16 1_555 1_555
C17 C16 1_555 1_555
C18 C13 1_555 1_555
H16 C18 1_555 1_555
C19 C13 1_555 1_555
C20 C15 1_555 1_555
C21 C17 1_555 1_555
Cu1A O6 1_555 1_555
Cu1A_2 O3 1_555 1_555
Cu1C N5 1_555 1_555
Cu2B O7 1_555 1_555
Cu2C O5 1_555 1_555
Cu2C_2 N4 1_555 1_555
O3A Cu1 1_555 1_555
O5C Cu2 1_555 1_555
O6A Cu1 1_555 1_555
O7B Cu2 1_555 1_555
N4C Cu2 1_555 1_555
N5C Cu1 1_555 1_555
N3 C9 1_555 1_555
N3 C10 1_555 1_555
N6 C11 1_555 1_555
C5 C6 1_555 1_555
C17 C18 1_555 1_555
Cu2B O7B 1_555 1_555
N4C N5C 1_555 1_555

#END
