
#######################################################################
#
#                 Cambridge Crystallographic Data Centre
#                                CCDC 
#
#######################################################################
#
# If this CIF has been generated from an entry in the Cambridge 
# Structural Database, then it will include bibliographic, chemical, 
# crystal, experimental, refinement or atomic coordinate data resulting 
# from the CCDC's data processing and validation procedures.
#
#######################################################################

data_XUDVOJ
_symmetry_cell_setting           monoclinic
_symmetry_space_group_name_H-M   'C 2/c'
_symmetry_Int_Tables_number      15
_space_group_name_Hall           '-C 2yn'
loop_
_symmetry_equiv_pos_site_id
_symmetry_equiv_pos_as_xyz
1 x,y,z
2 -x,y,1/2-z
3 1/2+x,1/2+y,z
4 1/2-x,1/2+y,1/2-z
5 -x,-y,-z
6 x,-y,1/2+z
7 1/2-x,1/2-y,-z
8 1/2+x,1/2-y,1/2+z
_cell_length_a                   20.8072(13)
_cell_length_b                   14.8108(11)
_cell_length_c                   15.2372(10)
_cell_angle_alpha                90
_cell_angle_beta                 117.232(4)
_cell_angle_gamma                90
_cell_volume                     4175.2
loop_
_atom_site_label
_atom_site_type_symbol
_atom_site_fract_x
_atom_site_fract_y
_atom_site_fract_z
N1 N 1.18971(18) 0.1069(3) 1.3406(2)
C1 C 1.2155(2) 0.0269(3) 1.3909(3)
H1 H 1.2597 0.0204 1.4495
C2 C 1.1694(3) -0.0397(4) 1.3455(3)
H2 H 1.1747 -0.1013 1.3649
C3 C 1.1277(2) 0.0864(3) 1.2649(3)
H3 H 1.0977 0.1287 1.2167
N2 N 1.11193(18) -0.0018(3) 1.2643(3)
C4 C 0.5661(2) 0.1773(3) 0.7501(3)
H4 H 0.6117 0.1775 0.7499
O1 O 0.69041(15) 0.1923(2) 0.9345(2)
Cd1 Cd 0.762672(15) 0.26803(2) 0.87852(2)
N3 N 0.81850(18) 0.1285(3) 0.9164(2)
N4 N 0.99958(17) -0.0002(2) 1.1251(2)
C5 C 0.8803(2) 0.1002(3) 0.9881(3)
H5 H 0.9151 0.1387 1.0363
C6 C 0.9466(2) -0.0453(3) 1.0521(3)
C7 C 0.7849(3) 0.0525(4) 0.8643(3)
H6 H 0.7389 0.0516 0.8078
C8 C 1.0542(2) -0.0507(3) 1.1877(3)
C9 C 0.8255(2) -0.0196(4) 0.9037(3)
H7 H 0.8142 -0.0801 0.8810
C10 C 1.0027(3) -0.1859(4) 1.1052(4)
H8 H 1.0043 -0.2495 1.0984
C11 C 0.9442(3) -0.1371(3) 1.0374(4)
H9 H 0.9047 -0.1654 0.9839
C12 C 1.0587(3) -0.1424(3) 1.1825(4)
H10 H 1.0988 -0.1750 1.2303
N5 N 0.88814(18) 0.0101(3) 0.9849(3)
O2 O 0.62585(15) 0.1741(3) 1.0127(2)
C13 C 0.6306(2) 0.1808(3) 0.9339(3)
C14 C 0.56296(19) 0.1772(3) 0.8379(3)
C15 C 0.4967(2) 0.1772(3) 0.8382(3)
H11 H 0.4943 0.1770 0.8990
O3 O 0.6983(2) 0.2308(3) 0.6994(2)
O4 O 0.80382(18) 0.2951(3) 0.7607(2)
C16 C 0.7507(3) 0.2607(3) 0.6904(3)
C17 C 0.7497(2) 0.2554(3) 0.5906(3)
C18 C 0.8019(2) 0.3000(3) 0.5752(3)
H12 H 0.8379 0.3343 0.6270
C19 C 0.6979(2) 0.2050(3) 0.5152(3)
H13 H 0.6621 0.1737 0.5255
C4A C 0.4339(2) 0.1773(3) 0.7499(3)
H4A H 0.3883 0.1775 0.7501
O1A O 0.30959(15) 0.1923(2) 0.5655(2)
O2A O 0.37415(15) 0.1741(3) 0.4873(2)
C13A C 0.3694(2) 0.1808(3) 0.5661(3)
C14A C 0.43704(19) 0.1772(3) 0.6621(3)
C15A C 0.5033(2) 0.1772(3) 0.6618(3)
H11A H 0.5057 0.1770 0.6010
O3F O 0.8017(2) 0.2692(3) 0.3006(2)
O4F O 0.69618(18) 0.2049(3) 0.2393(2)
C16F C 0.7493(3) 0.2393(3) 0.3096(3)
C17F C 0.7503(2) 0.2446(3) 0.4094(3)
C18F C 0.6981(2) 0.2000(3) 0.4248(3)
H12F H 0.6621 0.1657 0.3730
C19F C 0.8021(2) 0.2950(3) 0.4848(3)
H13F H 0.8379 0.3263 0.4745
N1A N -0.18971(18) 0.1069(3) 0.1594(2)
C1A C -0.2155(2) 0.0269(3) 0.1091(3)
H1A H -0.2597 0.0204 0.0505
C2A C -0.1694(3) -0.0397(4) 0.1545(3)
H2A H -0.1747 -0.1013 0.1351
C3A C -0.1277(2) 0.0864(3) 0.2351(3)
H3A H -0.0977 0.1287 0.2833
N2A N -0.11193(18) -0.0018(3) 0.2357(3)
Cd1A Cd 0.237328(15) 0.26803(2) 0.62148(2)
N3A N 0.18150(18) 0.1285(3) 0.5836(2)
N4A N 0.00042(17) -0.0002(2) 0.3749(2)
C5A C 0.1197(2) 0.1002(3) 0.5119(3)
H5A H 0.0849 0.1387 0.4637
C6A C 0.0534(2) -0.0453(3) 0.4479(3)
C7A C 0.2151(3) 0.0525(4) 0.6357(3)
H6A H 0.2611 0.0516 0.6922
C8A C -0.0542(2) -0.0507(3) 0.3123(3)
C9A C 0.1745(2) -0.0196(4) 0.5963(3)
H7A H 0.1858 -0.0801 0.6190
C10A C -0.0027(3) -0.1859(4) 0.3948(4)
H8A H -0.0043 -0.2495 0.4016
C11A C 0.0558(3) -0.1371(3) 0.4626(4)
H9A H 0.0953 -0.1654 0.5161
C12A C -0.0587(3) -0.1424(3) 0.3175(4)
H10A H -0.0988 -0.1750 0.2697
N5A N 0.11186(18) 0.0101(3) 0.5151(3)
N1F N 0.31029(18) 0.3931(3) 0.6594(2)
N1G N 0.68971(18) 0.3931(3) 0.8406(2)
O1F O 0.80959(15) 0.3077(2) 1.0655(2)
O1G O 0.19041(15) 0.3077(2) 0.4345(2)
Cd1F Cd -0.262672(15) 0.23197(2) 0.12148(2)
Cd1F_2 Cd 0.737328(15) 0.23197(2) 0.12148(2)
Cd1F_3 Cd 0.737328(15) 0.23197(2) 1.12148(2)
Cd1G Cd 0.262672(15) 0.23197(2) 0.37852(2)
Cd1G_2 Cd 1.262672(15) 0.23197(2) 1.37852(2)
O2F O 0.87415(15) 0.3259(3) 0.9873(2)
O2G O 0.12585(15) 0.3259(3) 0.5127(2)
O3A O 0.3017(2) 0.2308(3) 0.8006(2)
O4A O 0.19618(18) 0.2951(3) 0.7393(2)
loop_
_geom_bond_atom_site_label_1
_geom_bond_atom_site_label_2
_geom_bond_site_symmetry_1
_geom_bond_site_symmetry_2
N1 C1 1_555 1_555
C1 H1 1_555 1_555
C2 C1 1_555 1_555
H2 C2 1_555 1_555
C3 N1 1_555 1_555
H3 C3 1_555 1_555
N2 C2 1_555 1_555
C4 H4 1_555 1_555
O1 Cd1 1_555 1_555
Cd1 N3 1_555 1_555
N3 C5 1_555 1_555
N4 C6 1_555 1_555
C5 H5 1_555 1_555
C6 C11 1_555 1_555
C7 N3 1_555 1_555
H6 C7 1_555 1_555
C8 N2 1_555 1_555
C9 C7 1_555 1_555
H7 C9 1_555 1_555
C10 H8 1_555 1_555
C11 C10 1_555 1_555
H9 C11 1_555 1_555
C12 C8 1_555 1_555
H10 C12 1_555 1_555
N5 C5 1_555 1_555
O2 C13 1_555 1_555
C13 O1 1_555 1_555
C14 C4 1_555 1_555
C15 C14 1_555 1_555
H11 C15 1_555 1_555
O3 Cd1 1_555 1_555
O4 Cd1 1_555 1_555
C16 O3 1_555 1_555
C17 C16 1_555 1_555
C18 C17 1_555 1_555
H12 C18 1_555 1_555
C19 C17 1_555 1_555
H13 C19 1_555 1_555
C4A C15 1_555 1_555
H4A C4A 1_555 1_555
O1A C13A 1_555 1_555
O2A C13A 1_555 1_555
C13A C14A 1_555 1_555
C14A C4A 1_555 1_555
C15A C4 1_555 1_555
H11A C15A 1_555 1_555
O3F C16F 1_555 1_555
O4F C16F 1_555 1_555
C16F C17F 1_555 1_555
C17F C18F 1_555 1_555
C18F C19 1_555 1_555
H12F C18F 1_555 1_555
C19F C18 1_555 1_555
H13F C19F 1_555 1_555
N1A C1A 1_555 1_555
C1A H1A 1_555 1_555
C2A C1A 1_555 1_555
H2A C2A 1_555 1_555
C3A N1A 1_555 1_555
H3A C3A 1_555 1_555
N2A C2A 1_555 1_555
Cd1A O1A 1_555 1_555
N3A Cd1A 1_555 1_555
N4A C6A 1_555 1_555
C5A N3A 1_555 1_555
H5A C5A 1_555 1_555
C6A C11A 1_555 1_555
C7A N3A 1_555 1_555
H6A C7A 1_555 1_555
C8A N2A 1_555 1_555
C9A C7A 1_555 1_555
H7A C9A 1_555 1_555
C10A H8A 1_555 1_555
C11A C10A 1_555 1_555
H9A C11A 1_555 1_555
C12A C8A 1_555 1_555
H10A C12A 1_555 1_555
N5A C5A 1_555 1_555
N1F Cd1A 1_555 1_555
N1G Cd1 1_555 1_555
O1F Cd1 1_555 1_555
O1G Cd1A 1_555 1_555
Cd1F N1A 1_555 1_555
Cd1F_2 O3F 1_555 1_555
Cd1F_3 O1 1_555 1_555
Cd1G O1A 1_555 1_555
Cd1G_2 N1 1_555 1_555
O2F Cd1 1_555 1_555
O2G Cd1A 1_555 1_555
O3A Cd1A 1_555 1_555
O4A Cd1A 1_555 1_555
C3 N2 1_555 1_555
N4 C8 1_555 1_555
C6 N5 1_555 1_555
C9 N5 1_555 1_555
C10 C12 1_555 1_555
O2 Cd1F_3 1_555 1_555
C13 C14 1_555 1_555
O4 C16 1_555 1_555
O2A Cd1G 1_555 1_555
C14A C15A 1_555 1_555
O4F Cd1F_2 1_555 1_555
C17F C19F 1_555 1_555
C3A N2A 1_555 1_555
N4A C8A 1_555 1_555
C6A N5A 1_555 1_555
C9A N5A 1_555 1_555
C10A C12A 1_555 1_555
O1F Cd1F_3 1_555 1_555
O1G Cd1G 1_555 1_555

#END
