
#######################################################################
#
#                 Cambridge Crystallographic Data Centre
#                                CCDC 
#
#######################################################################
#
# If this CIF has been generated from an entry in the Cambridge 
# Structural Database, then it will include bibliographic, chemical, 
# crystal, experimental, refinement or atomic coordinate data resulting 
# from the CCDC's data processing and validation procedures.
#
#######################################################################

data_XUDVEZ
_symmetry_cell_setting           monoclinic
_symmetry_space_group_name_H-M   'C 2/c'
_symmetry_Int_Tables_number      15
_space_group_name_Hall           '-C 2yn'
loop_
_symmetry_equiv_pos_site_id
_symmetry_equiv_pos_as_xyz
1 x,y,z
2 -x,y,1/2-z
3 1/2+x,1/2+y,z
4 1/2-x,1/2+y,1/2-z
5 -x,-y,-z
6 x,-y,1/2+z
7 1/2-x,1/2-y,-z
8 1/2+x,1/2-y,1/2+z
_cell_length_a                   7.8227(15)
_cell_length_b                   21.907(4)
_cell_length_c                   20.870(4)
_cell_angle_alpha                90
_cell_angle_beta                 92.153(13)
_cell_angle_gamma                90
_cell_volume                     3574.01
loop_
_atom_site_label
_atom_site_type_symbol
_atom_site_fract_x
_atom_site_fract_y
_atom_site_fract_z
C1 C 0.4157(5) 0.20257(15) 1.07700(17)
H1 H 0.3894 0.2425 1.0620
C2 C 0.4764(4) 0.10714(15) 1.07756(15)
H2 H 0.5012 0.0667 1.0643
C3 C 0.4246(5) 0.18592(16) 1.13878(17)
H3 H 0.4075 0.2113 1.1748
C4 C 0.4842(4) 0.08756(14) 1.19591(15)
C5 C 0.4836(5) 0.02480(15) 1.19288(16)
H4 H 0.4724 0.0041 1.1530
C6 C 0.5000 -0.0070(2) 1.2500
H5 H 0.5000 -0.0504 1.2500
C7 C 0.2743(4) 0.14700(13) 0.84670(16)
C8 C 0.1323(4) 0.14734(12) 0.79687(15)
C9 C -0.0374(4) 0.14839(14) 0.81407(15)
H6 H -0.0639 0.1499 0.8581
C10 C 0.1684(4) 0.14723(14) 0.73261(15)
H7 H 0.2840 0.1464 0.7202
C11 C 0.7077(4) 0.06864(13) 0.95150(14)
C12 C 0.8587(3) 0.03160(13) 0.97458(15)
C13 C 0.8360(4) -0.01863(14) 1.01286(15)
H8 H 0.7237 -0.0315 1.0222
C14 C 1.0238(4) 0.05062(14) 0.96217(16)
H9 H 1.0407 0.0857 0.9364
C15 C 0.5777(5) 0.29649(16) 0.95735(18)
H10 H 0.6013 0.2950 1.0023
C16 C 0.5190(4) 0.26850(14) 0.86052(16)
H11 H 0.4934 0.2442 0.8237
C17 C 0.5778(6) 0.34717(17) 0.92144(18)
H12 H 0.5996 0.3876 0.9362
C18 C 0.5198(5) 0.36691(15) 0.80410(16)
C19 C 0.5208(6) 0.42945(16) 0.80744(19)
H13 H 0.5350 0.4503 0.8472
C20 C 0.5000 0.4606(2) 0.7500
H14 H 0.5000 0.5040 0.7500
Co1 Co 0.49021(4) 0.155940(17) 0.939628(18)
N1 N 0.4504(3) 0.15328(11) 1.03809(12)
N2 N 0.4637(3) 0.12442(12) 1.13965(12)
N3 N 0.5000 0.11935(16) 1.2500
N4 N 0.5385(3) 0.24690(12) 0.91920(13)
N5 N 0.5402(4) 0.32973(12) 0.85934(13)
N6 N 0.5000 0.33511(16) 0.7500
O1 O 0.7323(2) 0.12499(9) 0.94081(11)
O2 O 0.5625(2) 0.04551(10) 0.94809(11)
O3 O 0.2402(3) 0.15690(10) 0.90488(10)
O4 O 0.4250(3) 0.13838(11) 0.83127(12)
C1A C 0.5843(5) 0.20257(15) 1.42300(17)
H1A H 0.6106 0.2425 1.4380
C2A C 0.5236(4) 0.10714(15) 1.42244(15)
H2A H 0.4988 0.0667 1.4357
C3A C 0.5754(5) 0.18592(16) 1.36122(17)
H3A H 0.5925 0.2113 1.3252
C4A C 0.5158(4) 0.08756(14) 1.30409(15)
C5A C 0.5164(5) 0.02480(15) 1.30712(16)
H4A H 0.5276 0.0041 1.3470
N1A N 0.5496(3) 0.15328(11) 1.46191(12)
N2A N 0.5363(3) 0.12442(12) 1.36035(12)
C7A C -0.2743(4) 0.14700(13) 0.65330(16)
C8A C -0.1323(4) 0.14734(12) 0.70313(15)
C9A C 0.0374(4) 0.14839(14) 0.68593(15)
H6A H 0.0639 0.1499 0.6419
C10A C -0.1684(4) 0.14723(14) 0.76739(15)
H7A H -0.2840 0.1464 0.7798
O3A O -0.2402(3) 0.15690(10) 0.59512(10)
O4A O -0.4250(3) 0.13838(11) 0.66873(12)
C11D C 1.2923(4) -0.06864(13) 1.04850(14)
C12D C 1.1413(3) -0.03160(13) 1.02542(15)
C13D C 1.1640(4) 0.01863(14) 0.98714(15)
H8D H 1.2763 0.0315 0.9778
C14D C 0.9762(4) -0.05062(14) 1.03783(16)
H9D H 0.9593 -0.0857 1.0636
O1D O 1.2677(2) -0.12499(9) 1.05919(11)
O2D O 1.4375(2) -0.04551(10) 1.05191(11)
C15A C 0.4223(5) 0.29649(16) 0.54265(18)
H10A H 0.3987 0.2950 0.4977
C16A C 0.4810(4) 0.26850(14) 0.63948(16)
H11A H 0.5066 0.2442 0.6763
C17A C 0.4222(6) 0.34717(17) 0.57856(18)
H12A H 0.4004 0.3876 0.5638
C18A C 0.4802(5) 0.36691(15) 0.69590(16)
C19A C 0.4792(6) 0.42945(16) 0.69256(19)
H13A H 0.4650 0.4503 0.6528
N4A N 0.4615(3) 0.24690(12) 0.58080(13)
N5A N 0.4598(4) 0.32973(12) 0.64066(13)
Co1A Co -0.49021(4) 0.155940(17) 0.560372(18)
Co1A_2 Co 0.50979(4) 0.155940(17) 0.560372(18)
Co1A_3 Co 0.50979(4) 0.155940(17) 1.560372(18)
Co1D Co 1.50979(4) -0.155940(17) 1.060372(18)
N1A_2 N -0.4504(3) 0.15328(11) 0.46191(12)
N4A_2 N -0.5385(3) 0.24690(12) 0.58080(13)
O1A O -0.7323(2) 0.12499(9) 0.55919(11)
loop_
_geom_bond_atom_site_label_1
_geom_bond_atom_site_label_2
_geom_bond_site_symmetry_1
_geom_bond_site_symmetry_2
C1 H1 1_555 1_555
C2 H2 1_555 1_555
C3 C1 1_555 1_555
H3 C3 1_555 1_555
C4 C5 1_555 1_555
C5 H4 1_555 1_555
C6 C5 1_555 1_555
H5 C6 1_555 1_555
C7 C8 1_555 1_555
C8 C9 1_555 1_555
C9 H6 1_555 1_555
C10 C8 1_555 1_555
H7 C10 1_555 1_555
C11 C12 1_555 1_555
C12 C13 1_555 1_555
C13 H8 1_555 1_555
C14 C12 1_555 1_555
H9 C14 1_555 1_555
C15 H10 1_555 1_555
C16 H11 1_555 1_555
C17 C15 1_555 1_555
H12 C17 1_555 1_555
C18 C19 1_555 1_555
C19 H13 1_555 1_555
C20 C19 1_555 1_555
H14 C20 1_555 1_555
Co1 N1 1_555 1_555
N1 C1 1_555 1_555
N2 C2 1_555 1_555
N3 C4 1_555 1_555
N4 C15 1_555 1_555
N5 C16 1_555 1_555
N6 C18 1_555 1_555
O1 C11 1_555 1_555
O2 C11 1_555 1_555
O3 C7 1_555 1_555
O4 C7 1_555 1_555
C1A H1A 1_555 1_555
C2A H2A 1_555 1_555
C3A C1A 1_555 1_555
H3A C3A 1_555 1_555
C4A N3 1_555 1_555
C5A C6 1_555 1_555
H4A C5A 1_555 1_555
N1A C1A 1_555 1_555
N2A C2A 1_555 1_555
C7A C8A 1_555 1_555
C8A C9A 1_555 1_555
C9A C10 1_555 1_555
H6A C9A 1_555 1_555
C10A C9 1_555 1_555
H7A C10A 1_555 1_555
O3A C7A 1_555 1_555
O4A C7A 1_555 1_555
C11D C12D 1_555 1_555
C12D C13D 1_555 1_555
C13D C14 1_555 1_555
H8D C13D 1_555 1_555
C14D C13 1_555 1_555
H9D C14D 1_555 1_555
O1D C11D 1_555 1_555
O2D C11D 1_555 1_555
C15A H10A 1_555 1_555
C16A H11A 1_555 1_555
C17A C15A 1_555 1_555
H12A C17A 1_555 1_555
C18A N6 1_555 1_555
C19A C20 1_555 1_555
H13A C19A 1_555 1_555
N4A C15A 1_555 1_555
N5A C16A 1_555 1_555
Co1A O3A 1_555 1_555
Co1A_2 N4A 1_555 1_555
Co1A_3 N1A 1_555 1_555
Co1D O1D 1_555 1_555
N1A_2 Co1A 1_555 1_555
N4A_2 Co1A 1_555 1_555
O1A Co1A 1_555 1_555
C2 N1 1_555 1_555
C3 N2 1_555 1_555
C4 N2 1_555 1_555
C16 N4 1_555 1_555
C17 N5 1_555 1_555
C18 N5 1_555 1_555
Co1 N4 1_555 1_555
Co1 O1 1_555 1_555
Co1 O3 1_555 1_555
Co1 O4 1_555 1_555
C2A N1A 1_555 1_555
C3A N2A 1_555 1_555
C4A C5A 1_555 1_555
C4A N2A 1_555 1_555
C8A C10A 1_555 1_555
O4A Co1A 1_555 1_555
C12D C14D 1_555 1_555
C16A N4A 1_555 1_555
C17A N5A 1_555 1_555
C18A C19A 1_555 1_555
C18A N5A 1_555 1_555

#END
