
#######################################################################
#
#                 Cambridge Crystallographic Data Centre
#                                CCDC 
#
#######################################################################
#
# If this CIF has been generated from an entry in the Cambridge 
# Structural Database, then it will include bibliographic, chemical, 
# crystal, experimental, refinement or atomic coordinate data resulting 
# from the CCDC's data processing and validation procedures.
#
#######################################################################

data_XUDVID
_symmetry_cell_setting           monoclinic
_symmetry_space_group_name_H-M   'C 2/c'
_symmetry_Int_Tables_number      15
_space_group_name_Hall           '-C 2yn'
loop_
_symmetry_equiv_pos_site_id
_symmetry_equiv_pos_as_xyz
1 x,y,z
2 -x,y,1/2-z
3 1/2+x,1/2+y,z
4 1/2-x,1/2+y,1/2-z
5 -x,-y,-z
6 x,-y,1/2+z
7 1/2-x,1/2-y,-z
8 1/2+x,1/2-y,1/2+z
_cell_length_a                   7.9513(13)
_cell_length_b                   21.906(4)
_cell_length_c                   21.340(3)
_cell_angle_alpha                90
_cell_angle_beta                 90.00
_cell_angle_gamma                90
_cell_volume                     3717.03
loop_
_atom_site_label
_atom_site_type_symbol
_atom_site_fract_x
_atom_site_fract_y
_atom_site_fract_z
C1 C 0.3654(8) 0.4684(3) 0.0247(3)
C2 C 0.2206(9) 0.4310(4) 0.0493(3)
O1 O 0.0757(6) 0.4528(2) 0.0513(2)
Cd1 Cd -0.01838(7) 0.34450(2) 0.06161(2)
O2 O -0.2831(6) 0.3392(2) 0.0990(2)
O3 O -0.0893(7) 0.3580(3) 0.1714(2)
C3 C -0.2410(9) 0.3484(3) 0.1562(3)
C4 C -0.3757(9) 0.3475(3) 0.2052(3)
C5 C -0.3312(9) 0.3478(3) 0.2674(3)
H1 H -0.2161 0.3486 0.2793
C6 C -0.5441(9) 0.3468(3) 0.1875(3)
H2 H -0.5734 0.3456 0.1444
N1 N -0.0556(8) 0.3494(3) -0.0446(3)
N2 N -0.0377(9) 0.3794(3) -0.1431(2)
C7 C -0.0626(13) 0.3175(4) -0.1440(3)
H3 H -0.0728 0.2922 -0.1799
C8 C -0.0359(10) 0.3965(3) -0.0820(3)
H4 H -0.0221 0.4373 -0.0679
C9 C -0.0697(12) 0.2996(4) -0.0836(3)
H5 H -0.0826 0.2586 -0.0700
C10 C 0.6634(10) 0.4832(3) 0.0164(4)
H6 H 0.7749 0.4723 0.0277
C11 C 0.5293(9) 0.4516(3) 0.0402(3)
H7 H 0.5481 0.4180 0.0675
N3 N 0.0000 0.3849(4) -0.2500
C12 C -0.0172(11) 0.4165(3) -0.1970(3)
C13 C -0.0175(11) 0.4806(3) -0.1941(3)
H8 H -0.0291 0.5019 -0.1556
C14 C 0.0000 0.5106(5) -0.2500
H9 H 0.0000 0.5540 -0.2500
O4 O 0.2511(6) 0.3755(2) 0.0609(2)
N4 N 0.0000 0.1570(4) 0.2500
C15 C 0.0174(12) 0.1260(3) 0.1969(3)
N5 N 0.0336(10) 0.1619(3) 0.1432(3)
C16 C 0.0000 0.0320(5) 0.2500
H10 H 0.0000 -0.0114 0.2500
C17 C 0.0174(15) 0.0626(4) 0.1946(4)
H11 H 0.0290 0.0414 0.1560
C18 C 0.0626(14) 0.1928(4) 0.0474(4)
H12 H 0.0777 0.1930 0.0032
N6 N 0.0360(9) 0.2438(3) 0.0833(3)
C19 C 0.0201(11) 0.2235(3) 0.1409(3)
H13 H 0.0014 0.2487 0.1764
C20 C 0.0641(17) 0.1433(4) 0.0830(4)
H14 H 0.0828 0.1026 0.0693
C1D C 0.6346(8) 0.5316(3) -0.0247(3)
C2D C 0.7794(9) 0.5690(4) -0.0493(3)
O1D O 0.9243(6) 0.5472(2) -0.0513(2)
C10D C 0.3366(10) 0.5168(3) -0.0164(4)
H6D H 0.2251 0.5277 -0.0277
C11D C 0.4707(9) 0.5484(3) -0.0402(3)
H7D H 0.4519 0.5820 -0.0675
O4D O 0.7489(6) 0.6245(2) -0.0609(2)
O2A O -0.7169(6) 0.3392(2) 0.4010(2)
O3A O -0.9107(7) 0.3580(3) 0.3286(2)
C3A C -0.7590(9) 0.3484(3) 0.3438(3)
C4A C -0.6243(9) 0.3475(3) 0.2948(3)
C5A C -0.6688(9) 0.3478(3) 0.2326(3)
H1A H -0.7839 0.3486 0.2207
C6A C -0.4559(9) 0.3468(3) 0.3125(3)
H2A H -0.4266 0.3456 0.3556
N1A N 0.0556(8) 0.3494(3) -0.4554(3)
N2A N 0.0377(9) 0.3794(3) -0.3569(2)
C7A C 0.0626(13) 0.3175(4) -0.3560(3)
H3A H 0.0728 0.2922 -0.3201
C8A C 0.0359(10) 0.3965(3) -0.4180(3)
H4A H 0.0221 0.4373 -0.4321
C9A C 0.0697(12) 0.2996(4) -0.4164(3)
H5A H 0.0826 0.2586 -0.4300
C12A C 0.0172(11) 0.4165(3) -0.3030(3)
C13A C 0.0175(11) 0.4806(3) -0.3059(3)
H8A H 0.0291 0.5019 -0.3444
C15A C -0.0174(12) 0.1260(3) 0.3031(3)
N5A N -0.0336(10) 0.1619(3) 0.3568(3)
C17A C -0.0174(15) 0.0626(4) 0.3054(4)
H11A H -0.0290 0.0414 0.3440
C18A C -0.0626(14) 0.1928(4) 0.4526(4)
H12A H -0.0777 0.1930 0.4968
N6A N -0.0360(9) 0.2438(3) 0.4167(3)
C19A C -0.0201(11) 0.2235(3) 0.3591(3)
H13A H -0.0014 0.2487 0.3236
C20A C -0.0641(17) 0.1433(4) 0.4170(4)
H14A H -0.0828 0.1026 0.4307
Cd1A Cd -0.98162(7) 0.34450(2) 0.43839(2)
O1A O -1.0757(6) 0.4528(2) 0.4487(2)
Cd1A_2 Cd 0.01838(7) 0.34450(2) -0.56161(2)
Cd1A_3 Cd 0.01838(7) 0.34450(2) 0.43839(2)
Cd1D Cd 1.01838(7) 0.65550(2) -0.06161(2)
N1A_2 N -0.9444(8) 0.3494(3) 0.5446(3)
O4A O -1.2511(6) 0.3755(2) 0.4391(2)
N6A_2 N -1.0360(9) 0.2438(3) 0.4167(3)
loop_
_geom_bond_atom_site_label_1
_geom_bond_atom_site_label_2
_geom_bond_site_symmetry_1
_geom_bond_site_symmetry_2
C1 C2 1_555 1_555
C2 O1 1_555 1_555
O1 Cd1 1_555 1_555
Cd1 O2 1_555 1_555
O2 C3 1_555 1_555
O3 Cd1 1_555 1_555
C3 O3 1_555 1_555
C4 C3 1_555 1_555
C5 C4 1_555 1_555
H1 C5 1_555 1_555
C6 C4 1_555 1_555
H2 C6 1_555 1_555
N1 Cd1 1_555 1_555
N2 C7 1_555 1_555
C7 H3 1_555 1_555
C8 N1 1_555 1_555
H4 C8 1_555 1_555
C9 N1 1_555 1_555
H5 C9 1_555 1_555
C10 H6 1_555 1_555
C11 C1 1_555 1_555
H7 C11 1_555 1_555
N3 C12 1_555 1_555
C12 N2 1_555 1_555
C13 C12 1_555 1_555
H8 C13 1_555 1_555
C14 C13 1_555 1_555
H9 C14 1_555 1_555
O4 C2 1_555 1_555
N4 C15 1_555 1_555
C15 N5 1_555 1_555
N5 C19 1_555 1_555
C16 H10 1_555 1_555
C17 C15 1_555 1_555
H11 C17 1_555 1_555
C18 H12 1_555 1_555
N6 Cd1 1_555 1_555
C19 N6 1_555 1_555
H13 C19 1_555 1_555
C20 N5 1_555 1_555
H14 C20 1_555 1_555
C1D C10 1_555 1_555
C2D C1D 1_555 1_555
O1D C2D 1_555 1_555
C10D C1 1_555 1_555
H6D C10D 1_555 1_555
C11D C1D 1_555 1_555
H7D C11D 1_555 1_555
O4D C2D 1_555 1_555
O2A C3A 1_555 1_555
O3A C3A 1_555 1_555
C3A C4A 1_555 1_555
C4A C5A 1_555 1_555
C5A C6 1_555 1_555
H1A C5A 1_555 1_555
C6A C5 1_555 1_555
H2A C6A 1_555 1_555
N1A C8A 1_555 1_555
N2A C7A 1_555 1_555
C7A H3A 1_555 1_555
C8A N2A 1_555 1_555
H4A C8A 1_555 1_555
C9A N1A 1_555 1_555
H5A C9A 1_555 1_555
C12A N3 1_555 1_555
C13A C14 1_555 1_555
H8A C13A 1_555 1_555
C15A N4 1_555 1_555
N5A C15A 1_555 1_555
C17A C16 1_555 1_555
H11A C17A 1_555 1_555
C18A H12A 1_555 1_555
N6A C18A 1_555 1_555
C19A N5A 1_555 1_555
H13A C19A 1_555 1_555
C20A N5A 1_555 1_555
H14A C20A 1_555 1_555
Cd1A O2A 1_555 1_555
O1A Cd1A 1_555 1_555
Cd1A_2 N1A 1_555 1_555
Cd1A_3 N6A 1_555 1_555
Cd1D O1D 1_555 1_555
N1A_2 Cd1A 1_555 1_555
O4A Cd1A 1_555 1_555
N6A_2 Cd1A 1_555 1_555
Cd1 O4 1_555 1_555
N2 C8 1_555 1_555
C7 C9 1_555 1_555
C10 C11 1_555 1_555
C16 C17 1_555 1_555
C18 N6 1_555 1_555
C18 C20 1_555 1_555
C10D C11D 1_555 1_555
O4D Cd1D 1_555 1_555
O3A Cd1A 1_555 1_555
C4A C6A 1_555 1_555
N2A C12A 1_555 1_555
C7A C9A 1_555 1_555
C12A C13A 1_555 1_555
C15A C17A 1_555 1_555
C18A C20A 1_555 1_555
N6A C19A 1_555 1_555

#END
