
#######################################################################
#
#                 Cambridge Crystallographic Data Centre
#                                CCDC 
#
#######################################################################
#
# If this CIF has been generated from an entry in the Cambridge 
# Structural Database, then it will include bibliographic, chemical, 
# crystal, experimental, refinement or atomic coordinate data resulting 
# from the CCDC's data processing and validation procedures.
#
#######################################################################

data_XUDWOK
_symmetry_cell_setting           triclinic
_symmetry_space_group_name_H-M   'P -1'
_symmetry_Int_Tables_number      2
_space_group_name_Hall           '-P 1'
loop_
_symmetry_equiv_pos_site_id
_symmetry_equiv_pos_as_xyz
1 x,y,z
2 -x,-y,-z
_cell_length_a                   10.9333(11)
_cell_length_b                   12.8978(13)
_cell_length_c                   16.1341(16)
_cell_angle_alpha                76.430(3)
_cell_angle_beta                 73.128(3)
_cell_angle_gamma                68.130(2)
_cell_volume                     1999.92
loop_
_atom_site_label
_atom_site_type_symbol
_atom_site_fract_x
_atom_site_fract_y
_atom_site_fract_z
Cd1 Cd 0.43474(3) 0.11885(2) 0.242355(19)
Cd2 Cd 0.43550(3) 0.20982(3) 0.78168(2)
O1 O 0.3131(4) 0.0195(3) 0.3641(2)
O2 O 0.3825(4) 0.1439(4) 0.3893(2)
O3 O 0.2633(5) 0.2266(3) 0.7235(3)
O4 O 0.3881(3) 0.0532(3) 0.7517(2)
O5 O 0.4113(6) 0.3829(4) 0.7976(3)
O6 O 0.3161(5) 0.2982(3) 0.9149(3)
O7 O 0.4246(4) 0.8158(3) 0.9043(3)
O8 O 0.4659(4) 0.7469(3) 0.7848(2)
O9 O 0.6140(5) 0.1954(4) 0.6650(3)
H1 H 0.555(3) 0.236(5) 0.6318(14)
H2 H 0.618(5) 0.125(2) 0.667(3)
N1 N 0.2262(5) 0.2642(4) 0.2356(3)
N2 N 0.1038(6) 0.2486(6) 0.2589(5)
N3 N 0.0749(6) 0.4151(4) 0.2828(3)
N4 N 0.3808(4) 0.0382(3) 0.1476(3)
N5 N 0.4339(4) -0.0726(3) 0.1320(3)
N6 N 0.3127(3) 0.0250(3) 0.0374(2)
C1 C 0.0056(8) 0.5127(5) 0.4115(4)
C2 C -0.1098(11) 0.5173(11) 0.4713(6)
H3 H -0.1880 0.5287 0.4534
C3 C 0.1141(11) 0.4946(11) 0.4410(6)
H4 H 0.1961 0.4897 0.4010
C4 C 0.0112(10) 0.5257(6) 0.3145(4)
H5 H -0.0797 0.5598 0.3045
H6 H 0.0627 0.5754 0.2820
C5 C 0.2039(7) 0.3643(5) 0.2517(4)
H7 H 0.2711 0.3963 0.2425
C6 C 0.0124(7) 0.3418(7) 0.2889(5)
H8 H -0.0796 0.3535 0.3106
C7 C 0.1175(4) 0.0268(4) -0.0138(3)
C8 C 0.0445(4) 0.0600(4) -0.0778(3)
H9 H 0.0744 0.1004 -0.1307
C9 C 0.0723(4) -0.0342(4) 0.0646(3)
H10 H 0.1205 -0.0577 0.1084
C10 C 0.2455(4) 0.0571(4) -0.0354(3)
H11 H 0.3080 0.0203 -0.0845
H12 H 0.2234 0.1380 -0.0535
C11 C 0.3084(5) 0.0945(4) 0.0899(3)
H13 H 0.2607 0.1715 0.0855
C12 C 0.3933(4) -0.0774(4) 0.0648(3)
H14 H 0.4168 -0.1421 0.0397
C13 C 0.2410(4) 0.0650(4) 0.5109(3)
C14 C 0.3062(4) 0.0976(4) 0.5688(3)
H15 H 0.3086 0.1738 0.5477
H16 H 0.3985 0.0471 0.5657
C15 C 0.0954(5) 0.1470(4) 0.5161(3)
H17 H 0.0968 0.2235 0.4950
H18 H 0.0529 0.1280 0.4792
C16 C 0.2349(5) -0.0546(4) 0.5450(3)
H19 H 0.1938 -0.0752 0.5083
H20 H 0.3259 -0.1076 0.5425
C17 C 0.2244(4) 0.0903(3) 0.6650(3)
C18 C 0.0145(5) 0.1393(5) 0.6104(3)
H21 H -0.0783 0.1911 0.6131
C19 C 0.1524(6) -0.0608(5) 0.6393(3)
H22 H 0.1497 -0.1378 0.6604
C20 C 0.0798(5) 0.1726(4) 0.6677(3)
H23 H 0.0269 0.1704 0.7275
H24 H 0.0820 0.2489 0.6465
C21 C 0.2217(5) -0.0301(4) 0.6969(3)
H25 H 0.1725 -0.0363 0.7574
H26 H 0.3133 -0.0821 0.6935
C22 C 0.0119(6) 0.0192(6) 0.6440(4)
H27 H -0.0397 0.0148 0.7040
H28 H -0.0317 -0.0014 0.6089
C23 C 0.3178(5) 0.0759(4) 0.4162(3)
C24 C 0.2947(4) 0.1257(4) 0.7169(3)
C25 C 0.2878(5) 0.4922(4) 0.9156(3)
C26 C 0.3799(4) 0.5648(3) 0.8723(3)
H29 H 0.3868 0.5800 0.8096
H30 H 0.4699 0.5242 0.8826
C27 C 0.1480(6) 0.5593(5) 0.8960(6)
H31 H 0.1559 0.5759 0.8332
H32 H 0.0882 0.5145 0.9206
C28 C 0.2740(7) 0.4691(5) 1.0134(4)
H33 H 0.3619 0.4270 1.0268
H34 H 0.2148 0.4241 1.0403
C29 C 0.3218(4) 0.6770(3) 0.9100(3)
C30 C 0.0884(6) 0.6696(5) 0.9354(6)
H35 H -0.0014 0.7107 0.9231
C31 C 0.2147(9) 0.5826(5) 1.0504(4)
H36 H 0.2066 0.5674 1.1138
C32 C 0.1819(5) 0.7409(4) 0.8903(4)
H37 H 0.1890 0.7547 0.8276
H38 H 0.1446 0.8131 0.9118
C33 C 0.3087(6) 0.6532(4) 1.0086(3)
H39 H 0.2723 0.7237 1.0325
H40 H 0.3971 0.6126 1.0216
C34 C 0.0758(7) 0.6476(6) 1.0315(6)
H41 H 0.0152 0.6041 1.0591
H42 H 0.0387 0.7184 1.0551
C35 C 0.3418(5) 0.3841(4) 0.8750(4)
C36 C 0.4109(5) 0.7506(4) 0.8647(3)
N1A N -0.2262(5) 0.7358(4) 0.7644(3)
N2A N -0.1038(6) 0.7514(6) 0.7411(5)
N3A N -0.0749(6) 0.5849(4) 0.7172(3)
C1A C -0.0056(8) 0.4873(5) 0.5885(4)
C2A C 0.1098(11) 0.4827(11) 0.5287(6)
H3A H 0.1880 0.4713 0.5466
C3A C -0.1141(11) 0.5054(11) 0.5590(6)
H4A H -0.1961 0.5103 0.5990
C4A C -0.0112(10) 0.4743(6) 0.6855(4)
H5A H 0.0797 0.4402 0.6955
H6A H -0.0627 0.4246 0.7180
C5A C -0.2039(7) 0.6357(5) 0.7483(4)
H7A H -0.2711 0.6037 0.7575
C6A C -0.0124(7) 0.6582(7) 0.7111(5)
H8A H 0.0796 0.6465 0.6894
N4A N -0.3808(4) -0.0382(3) -0.1476(3)
N5A N -0.4339(4) 0.0726(3) -0.1320(3)
N6A N -0.3127(3) -0.0250(3) -0.0374(2)
C7A C -0.1175(4) -0.0268(4) 0.0138(3)
C8A C -0.0445(4) -0.0600(4) 0.0778(3)
H9A H -0.0744 -0.1004 0.1307
C9A C -0.0723(4) 0.0342(4) -0.0646(3)
H10A H -0.1205 0.0577 -0.1084
C10A C -0.2455(4) -0.0571(4) 0.0354(3)
H11A H -0.3080 -0.0203 0.0845
H12A H -0.2234 -0.1380 0.0535
C11A C -0.3084(5) -0.0945(4) -0.0899(3)
H13A H -0.2607 -0.1715 -0.0855
C12A C -0.3933(4) 0.0774(4) -0.0648(3)
H14A H -0.4168 0.1421 -0.0397
Cd1A Cd -0.43474(3) -0.11885(2) -0.242355(19)
Cd2A Cd -0.43550(3) -0.20982(3) -0.78168(2)
O1A O -0.3131(4) -0.0195(3) -0.3641(2)
O2A O -0.3825(4) -0.1439(4) -0.3893(2)
O3A O -0.2633(5) -0.2266(3) -0.7235(3)
O4A O -0.3881(3) -0.0532(3) -0.7517(2)
O5A O -0.4113(6) -0.3829(4) -0.7976(3)
O6A O -0.3161(5) -0.2982(3) -0.9149(3)
O7A O -0.4246(4) -0.8158(3) -0.9043(3)
O8A O -0.4659(4) -0.7469(3) -0.7848(2)
O9A O -0.6140(5) -0.1954(4) -0.6650(3)
H1A H -0.555(3) -0.236(5) -0.6318(14)
H2A H -0.618(5) -0.125(2) -0.667(3)
C13A C -0.2410(4) -0.0650(4) -0.5109(3)
C14A C -0.3062(4) -0.0976(4) -0.5688(3)
H15A H -0.3086 -0.1738 -0.5477
H16A H -0.3985 -0.0471 -0.5657
C15A C -0.0954(5) -0.1470(4) -0.5161(3)
H17A H -0.0968 -0.2235 -0.4950
H18A H -0.0529 -0.1280 -0.4792
C16A C -0.2349(5) 0.0546(4) -0.5450(3)
H19A H -0.1938 0.0752 -0.5083
H20A H -0.3259 0.1076 -0.5425
C17A C -0.2244(4) -0.0903(3) -0.6650(3)
C18A C -0.0145(5) -0.1393(5) -0.6104(3)
H21A H 0.0783 -0.1911 -0.6131
C19A C -0.1524(6) 0.0608(5) -0.6393(3)
H22A H -0.1497 0.1378 -0.6604
C20A C -0.0798(5) -0.1726(4) -0.6677(3)
H23A H -0.0269 -0.1704 -0.7275
H24A H -0.0820 -0.2489 -0.6465
C21A C -0.2217(5) 0.0301(4) -0.6969(3)
H25A H -0.1725 0.0363 -0.7574
H26A H -0.3133 0.0821 -0.6935
C22A C -0.0119(6) -0.0192(6) -0.6440(4)
H27A H 0.0397 -0.0148 -0.7040
H28A H 0.0317 0.0014 -0.6089
C23A C -0.3178(5) -0.0759(4) -0.4162(3)
C24A C -0.2947(4) -0.1257(4) -0.7169(3)
C25A C -0.2878(5) -0.4922(4) -0.9156(3)
C26A C -0.3799(4) -0.5648(3) -0.8723(3)
H29A H -0.3868 -0.5800 -0.8096
H30A H -0.4699 -0.5242 -0.8826
C27A C -0.1480(6) -0.5593(5) -0.8960(6)
H31A H -0.1559 -0.5759 -0.8332
H32A H -0.0882 -0.5145 -0.9206
C28A C -0.2740(7) -0.4691(5) -1.0134(4)
H33A H -0.3619 -0.4270 -1.0268
H34A H -0.2148 -0.4241 -1.0403
C29A C -0.3218(4) -0.6770(3) -0.9100(3)
C30A C -0.0884(6) -0.6696(5) -0.9354(6)
H35A H 0.0014 -0.7107 -0.9231
C31A C -0.2147(9) -0.5826(5) -1.0504(4)
H36A H -0.2066 -0.5674 -1.1138
C32A C -0.1819(5) -0.7409(4) -0.8903(4)
H37A H -0.1890 -0.7547 -0.8276
H38A H -0.1446 -0.8131 -0.9118
C33A C -0.3087(6) -0.6532(4) -1.0086(3)
H39A H -0.2723 -0.7237 -1.0325
H40A H -0.3971 -0.6126 -1.0216
C34A C -0.0758(7) -0.6476(6) -1.0315(6)
H41A H -0.0152 -0.6041 -1.0591
H42A H -0.0387 -0.7184 -1.0551
C35A C -0.3418(5) -0.3841(4) -0.8750(4)
C36A C -0.4109(5) -0.7506(4) -0.8647(3)
Cd1_2 Cd -0.56526(3) -0.88115(2) -0.757645(19)
Cd1_3 Cd -0.56526(3) 0.11885(2) -0.757645(19)
Cd1A_2 Cd -0.43474(3) 0.88115(2) 0.757645(19)
Cd1A_3 Cd 0.56526(3) -0.11885(2) 0.757645(19)
Cd1A_4 Cd 0.56526(3) 0.88115(2) 0.757645(19)
Cd2_2 Cd -0.56450(3) 0.20982(3) -0.21832(2)
Cd2A_2 Cd 0.56450(3) -0.20982(3) 0.21832(2)
O4_2 O -0.6119(3) 0.0532(3) -0.2483(2)
O4A_2 O 0.6119(3) -0.0532(3) 0.2483(2)
O7_2 O -0.5754(4) -0.1842(3) -0.0957(3)
O7A_2 O 0.5754(4) 0.1842(3) 0.0957(3)
O8_2 O -0.5341(4) -0.2531(3) -0.2152(2)
O8A_2 O 0.5341(4) 0.2531(3) 0.2152(2)
N1A_2 N -0.2262(5) -0.2642(4) -0.2356(3)
N5_2 N -0.5661(4) -0.0726(3) -0.8680(3)
N5A_2 N 0.5661(4) 0.0726(3) 0.8680(3)
O10 O 0.4750(10) 0.3208(7) 0.3794(5)
O11 O 0.3258(19) 0.5435(16) 0.6422(10)
O12 O 0.471(2) -0.3583(13) 0.4703(11)
loop_
_geom_bond_atom_site_label_1
_geom_bond_atom_site_label_2
_geom_bond_site_symmetry_1
_geom_bond_site_symmetry_2
Cd1 O1 1_555 1_555
Cd2 O3 1_555 1_555
O1 C23 1_555 1_555
O2 Cd1 1_555 1_555
O3 C24 1_555 1_555
O4 Cd2 1_555 1_555
O5 Cd2 1_555 1_555
O6 Cd2 1_555 1_555
O7 C36 1_555 1_555
O8 C36 1_555 1_555
O9 Cd2 1_555 1_555
H1 O9 1_555 1_555
H2 O9 1_555 1_555
N1 Cd1 1_555 1_555
N2 N1 1_555 1_555
N3 C4 1_555 1_555
N4 Cd1 1_555 1_555
N5 N4 1_555 1_555
N6 C10 1_555 1_555
C1 C2 1_555 1_555
C2 H3 1_555 1_555
C3 C1 1_555 1_555
H4 C3 1_555 1_555
C4 C1 1_555 1_555
H5 C4 1_555 1_555
H6 C4 1_555 1_555
C5 N1 1_555 1_555
H7 C5 1_555 1_555
C6 N2 1_555 1_555
H8 C6 1_555 1_555
C7 C8 1_555 1_555
C8 H9 1_555 1_555
C9 C7 1_555 1_555
H10 C9 1_555 1_555
C10 C7 1_555 1_555
H11 C10 1_555 1_555
H12 C10 1_555 1_555
C11 N4 1_555 1_555
H13 C11 1_555 1_555
C12 N5 1_555 1_555
H14 C12 1_555 1_555
C13 C14 1_555 1_555
C14 H15 1_555 1_555
H16 C14 1_555 1_555
C15 C13 1_555 1_555
H17 C15 1_555 1_555
H18 C15 1_555 1_555
C16 C13 1_555 1_555
H19 C16 1_555 1_555
H20 C16 1_555 1_555
C17 C14 1_555 1_555
C18 C15 1_555 1_555
H21 C18 1_555 1_555
C19 C16 1_555 1_555
H22 C19 1_555 1_555
C20 C17 1_555 1_555
H23 C20 1_555 1_555
H24 C20 1_555 1_555
C21 C17 1_555 1_555
H25 C21 1_555 1_555
H26 C21 1_555 1_555
C22 C18 1_555 1_555
H27 C22 1_555 1_555
H28 C22 1_555 1_555
C23 O2 1_555 1_555
C24 O4 1_555 1_555
C25 C26 1_555 1_555
C26 H29 1_555 1_555
H30 C26 1_555 1_555
C27 C25 1_555 1_555
H31 C27 1_555 1_555
H32 C27 1_555 1_555
C28 C25 1_555 1_555
H33 C28 1_555 1_555
H34 C28 1_555 1_555
C29 C26 1_555 1_555
C30 C27 1_555 1_555
H35 C30 1_555 1_555
C31 C28 1_555 1_555
H36 C31 1_555 1_555
C32 C29 1_555 1_555
H37 C32 1_555 1_555
H38 C32 1_555 1_555
C33 C29 1_555 1_555
H39 C33 1_555 1_555
H40 C33 1_555 1_555
C34 C30 1_555 1_555
H41 C34 1_555 1_555
H42 C34 1_555 1_555
C35 O5 1_555 1_555
C36 C29 1_555 1_555
N1A N2A 1_555 1_555
N2A C6A 1_555 1_555
N3A C4A 1_555 1_555
C1A C2A 1_555 1_555
C2A C3 1_555 1_555
H3A C2A 1_555 1_555
C3A C2 1_555 1_555
H4A C3A 1_555 1_555
C4A C1A 1_555 1_555
H5A C4A 1_555 1_555
H6A C4A 1_555 1_555
C5A N1A 1_555 1_555
H7A C5A 1_555 1_555
C6A N3A 1_555 1_555
H8A C6A 1_555 1_555
N4A N5A 1_555 1_555
N5A C12A 1_555 1_555
N6A C10A 1_555 1_555
C7A C8A 1_555 1_555
C8A C9 1_555 1_555
H9A C8A 1_555 1_555
C9A C8 1_555 1_555
H10A C9A 1_555 1_555
C10A C7A 1_555 1_555
H11A C10A 1_555 1_555
H12A C10A 1_555 1_555
C11A N4A 1_555 1_555
H13A C11A 1_555 1_555
C12A N6A 1_555 1_555
H14A C12A 1_555 1_555
Cd1A N4A 1_555 1_555
Cd2A O3A 1_555 1_555
O1A Cd1A 1_555 1_555
O2A Cd1A 1_555 1_555
O3A C24A 1_555 1_555
O4A Cd2A 1_555 1_555
O5A Cd2A 1_555 1_555
O6A Cd2A 1_555 1_555
O7A C36A 1_555 1_555
O8A C36A 1_555 1_555
O9A Cd2A 1_555 1_555
H1A O9A 1_555 1_555
H2A O9A 1_555 1_555
C13A C14A 1_555 1_555
C14A H15A 1_555 1_555
H16A C14A 1_555 1_555
C15A C13A 1_555 1_555
H17A C15A 1_555 1_555
H18A C15A 1_555 1_555
C16A C13A 1_555 1_555
H19A C16A 1_555 1_555
H20A C16A 1_555 1_555
C17A C14A 1_555 1_555
C18A C15A 1_555 1_555
H21A C18A 1_555 1_555
C19A C16A 1_555 1_555
H22A C19A 1_555 1_555
C20A C17A 1_555 1_555
H23A C20A 1_555 1_555
H24A C20A 1_555 1_555
C21A C17A 1_555 1_555
H25A C21A 1_555 1_555
H26A C21A 1_555 1_555
C22A C18A 1_555 1_555
H27A C22A 1_555 1_555
H28A C22A 1_555 1_555
C23A O1A 1_555 1_555
C24A O4A 1_555 1_555
C25A C26A 1_555 1_555
C26A H29A 1_555 1_555
H30A C26A 1_555 1_555
C27A C25A 1_555 1_555
H31A C27A 1_555 1_555
H32A C27A 1_555 1_555
C28A C25A 1_555 1_555
H33A C28A 1_555 1_555
H34A C28A 1_555 1_555
C29A C26A 1_555 1_555
C30A C27A 1_555 1_555
H35A C30A 1_555 1_555
C31A C28A 1_555 1_555
H36A C31A 1_555 1_555
C32A C29A 1_555 1_555
H37A C32A 1_555 1_555
H38A C32A 1_555 1_555
C33A C29A 1_555 1_555
H39A C33A 1_555 1_555
H40A C33A 1_555 1_555
C34A C30A 1_555 1_555
H41A C34A 1_555 1_555
H42A C34A 1_555 1_555
C35A O5A 1_555 1_555
C36A C29A 1_555 1_555
Cd1_2 O7A 1_555 1_555
Cd1_3 O4A 1_555 1_555
Cd1A_2 N1A 1_555 1_555
Cd1A_3 O4 1_555 1_555
Cd1A_4 O7 1_555 1_555
Cd2_2 N5A 1_555 1_555
Cd2A_2 N5 1_555 1_555
O4_2 Cd1A 1_555 1_555
O4A_2 Cd1 1_555 1_555
O7_2 Cd1A 1_555 1_555
O7A_2 Cd1 1_555 1_555
O8_2 Cd1A 1_555 1_555
O8A_2 Cd1 1_555 1_555
N1A_2 Cd1A 1_555 1_555
N5_2 Cd2A 1_555 1_555
N5A_2 Cd2 1_555 1_555
O6 C35 1_555 1_555
O8 Cd1A_4 1_555 1_555
N3 C5 1_555 1_555
N3 C6 1_555 1_555
N6 C11 1_555 1_555
N6 C12 1_555 1_555
C13 C23 1_555 1_555
C17 C24 1_555 1_555
C18 C20 1_555 1_555
C19 C21 1_555 1_555
C19 C22 1_555 1_555
C25 C35 1_555 1_555
C30 C32 1_555 1_555
C31 C33 1_555 1_555
C31 C34 1_555 1_555
N3A C5A 1_555 1_555
C1A C3A 1_555 1_555
N6A C11A 1_555 1_555
C7A C9A 1_555 1_555
O2A C23A 1_555 1_555
O6A C35A 1_555 1_555
O8A Cd1_2 1_555 1_555
C13A C23A 1_555 1_555
C17A C24A 1_555 1_555
C18A C20A 1_555 1_555
C19A C21A 1_555 1_555
C19A C22A 1_555 1_555
C25A C35A 1_555 1_555
C30A C32A 1_555 1_555
C31A C33A 1_555 1_555
C31A C34A 1_555 1_555
Cd2_2 O4_2 1_555 1_555
Cd2A_2 O4A_2 1_555 1_555

#END
