
#######################################################################
#
#                 Cambridge Crystallographic Data Centre
#                                CCDC 
#
#######################################################################
#
# If this CIF has been generated from an entry in the Cambridge 
# Structural Database, then it will include bibliographic, chemical, 
# crystal, experimental, refinement or atomic coordinate data resulting 
# from the CCDC's data processing and validation procedures.
#
#######################################################################

data_XUDYEB
_symmetry_cell_setting           monoclinic
_symmetry_space_group_name_H-M   'P 21/c'
_symmetry_Int_Tables_number      14
_space_group_name_Hall           '-P 2ybc'
loop_
_symmetry_equiv_pos_site_id
_symmetry_equiv_pos_as_xyz
1 x,y,z
2 -x,1/2+y,1/2-z
3 -x,-y,-z
4 x,1/2-y,1/2+z
_cell_length_a                   7.5597(6)
_cell_length_b                   16.3583(13)
_cell_length_c                   13.0734(10)
_cell_angle_alpha                90
_cell_angle_beta                 92.652(1)
_cell_angle_gamma                90
_cell_volume                     1614.98
loop_
_atom_site_label
_atom_site_type_symbol
_atom_site_fract_x
_atom_site_fract_y
_atom_site_fract_z
Mn1 Mn -0.12449(4) 0.44206(2) -0.16090(3)
Mn2 Mn 0.11520(4) 0.55083(2) -0.33852(3)
Mn3 Mn 0.38408(4) 0.252400(19) -0.41015(3)
O1 O -0.2476(3) 0.44008(12) -0.02036(14)
H1 H -0.3174 0.4059 0.0057
H2 H -0.2308 0.4754 0.0267
O2 O 0.0355(2) 0.42791(9) -0.30655(12)
O3 O 0.1700(2) 0.34044(10) -0.40693(12)
O4 O -0.3625(2) 0.44799(11) -0.25668(14)
H3 H -0.3856 0.4194 -0.3100
H4 H -0.4550 0.4764 -0.2489
O5 O 0.1549(2) 0.42478(11) -0.08533(13)
H5 H 0.1535 0.3970 -0.0305
H6 H 0.2268 0.3996 -0.1223
O6 O 0.1752(2) 0.15865(10) -0.40768(12)
O7 O -0.1306(2) 0.55498(10) -0.42884(13)
H7 H -0.1453 0.5901 -0.4764
H8 H -0.1935 0.5144 -0.4488
O8 O 0.0466(2) 0.06702(9) -0.30965(12)
O9 O 0.4349(2) 0.64971(10) -0.11813(12)
O10 O 0.3456(2) 0.55506(9) -0.23205(13)
O11 O 0.2945(2) 0.56745(10) -0.45819(12)
O12 O 0.4396(2) 0.64188(10) -0.56883(12)
N1 N -0.0896(2) 0.31260(11) -0.18941(15)
N2 N -0.1325(3) 0.24688(10) -0.13661(17)
N3 N -0.0742(2) 0.18101(11) -0.18541(14)
N4 N 0.5765(3) 0.74449(11) -0.25917(15)
N5 N 0.6289(2) 0.78385(13) -0.34200(14)
N6 N 0.5748(3) 0.74149(11) -0.42507(15)
C1 C 0.0738(3) 0.35593(13) -0.33451(17)
C2 C -0.0009(3) 0.28932(13) -0.27240(17)
C3 C 0.0082(3) 0.20495(13) -0.26975(17)
C4 C 0.0830(3) 0.13986(14) -0.33445(17)
C5 C 0.4174(3) 0.62267(14) -0.20863(17)
C6 C 0.4887(3) 0.67573(14) -0.28990(17)
C7 C 0.4862(3) 0.67414(14) -0.39574(17)
C8 C 0.4001(3) 0.62356(14) -0.47910(18)
Mn1A Mn 0.12449(4) -0.05794(2) -0.33910(3)
Mn2A Mn -0.11520(4) 0.05083(2) -0.16148(3)
Mn3A Mn 0.61592(4) 0.752400(19) -0.08985(3)
Mn3B Mn 0.61592(4) 0.747600(19) -0.58985(3)
O8A O -0.0466(2) 0.56702(9) -0.19035(12)
O9A O 0.5651(2) 0.14971(10) -0.38187(12)
O12B O 0.5604(2) 0.35812(10) -0.43117(12)
N3A N 0.0742(2) 0.68101(11) -0.31459(14)
N4A N 0.4235(3) 0.24449(11) -0.24083(15)
N6B N 0.4252(3) 0.25851(11) -0.57493(15)
loop_
_geom_bond_atom_site_label_1
_geom_bond_atom_site_label_2
_geom_bond_site_symmetry_1
_geom_bond_site_symmetry_2
Mn1 O1 1_555 1_555
Mn2 O2 1_555 1_555
Mn3 O3 1_555 1_555
O1 H1 1_555 1_555
H2 O1 1_555 1_555
O2 Mn1 1_555 1_555
O3 C1 1_555 1_555
O4 Mn1 1_555 1_555
H3 O4 1_555 1_555
H4 O4 1_555 1_555
O5 Mn1 1_555 1_555
H5 O5 1_555 1_555
H6 O5 1_555 1_555
O6 Mn3 1_555 1_555
O7 Mn2 1_555 1_555
H7 O7 1_555 1_555
H8 O7 1_555 1_555
O8 C4 1_555 1_555
O9 C5 1_555 1_555
O10 Mn2 1_555 1_555
O11 Mn2 1_555 1_555
O12 C8 1_555 1_555
N1 Mn1 1_555 1_555
N2 N1 1_555 1_555
N3 N2 1_555 1_555
N4 N5 1_555 1_555
N5 N6 1_555 1_555
N6 C7 1_555 1_555
C1 O2 1_555 1_555
C2 N1 1_555 1_555
C3 N3 1_555 1_555
C4 O6 1_555 1_555
C5 O10 1_555 1_555
C6 N4 1_555 1_555
C7 C6 1_555 1_555
C8 O11 1_555 1_555
Mn1A O8 1_555 1_555
Mn2A O8 1_555 1_555
Mn3A O9 1_555 1_555
Mn3B O12 1_555 1_555
O8A Mn1 1_555 1_555
O9A Mn3 1_555 1_555
O12B Mn3 1_555 1_555
N3A Mn2 1_555 1_555
N4A Mn3 1_555 1_555
N6B Mn3 1_555 1_555
Mn2 O8A 1_555 1_555
N3 Mn2A 1_555 1_555
N4 Mn3A 1_555 1_555
N6 Mn3B 1_555 1_555
C1 C2 1_555 1_555
C2 C3 1_555 1_555
C3 C4 1_555 1_555
C5 C6 1_555 1_555
C7 C8 1_555 1_555

#END
