
#######################################################################
#
#                 Cambridge Crystallographic Data Centre
#                                CCDC 
#
#######################################################################
#
# If this CIF has been generated from an entry in the Cambridge 
# Structural Database, then it will include bibliographic, chemical, 
# crystal, experimental, refinement or atomic coordinate data resulting 
# from the CCDC's data processing and validation procedures.
#
#######################################################################

data_XUDYIG
_symmetry_cell_setting           monoclinic
_symmetry_space_group_name_H-M   'P 21/m'
_symmetry_Int_Tables_number      11
_space_group_name_Hall           '-P 2yb'
loop_
_symmetry_equiv_pos_site_id
_symmetry_equiv_pos_as_xyz
1 x,y,z
2 -x,1/2+y,-z
3 -x,-y,-z
4 x,1/2-y,z
_cell_length_a                   11.8912(12)
_cell_length_b                   16.6705(17)
_cell_length_c                   15.5096(16)
_cell_angle_alpha                90
_cell_angle_beta                 99.690(2)
_cell_angle_gamma                90
_cell_volume                     3030.64
loop_
_atom_site_label
_atom_site_type_symbol
_atom_site_fract_x
_atom_site_fract_y
_atom_site_fract_z
W1 W 1.03182(5) 0.2500 0.55053(4)
W2 W 0.78455(3) 0.14874(2) 0.54459(3)
W3 W 0.56717(3) 0.14954(2) 0.34493(3)
W4 W 0.61351(5) 0.2500 0.16720(4)
W5 W 0.83746(3) 0.03722(2) 0.34974(3)
W6 W 0.88413(3) 0.13872(2) 0.17244(3)
W7 W 1.08148(3) 0.13897(2) 0.35457(3)
Cu1 Cu 1.0000 0.0000 0.0000
Si1 Si 0.8295(3) 0.2500 0.3542(2)
O1 O 1.1493(8) 0.2500 0.6276(7)
O2 O 1.0689(5) 0.3266(4) 0.4693(4)
O3 O 0.8483(7) 0.2500 0.4621(6)
O4 O 0.9415(6) 0.1699(4) 0.5964(4)
O5 O 0.7506(6) 0.0861(4) 0.6236(5)
O6 O 0.7477(8) 0.2500 0.5933(6)
O7 O 0.8380(5) 0.0775(4) 0.4646(4)
O8 O 0.6499(6) 0.1546(4) 0.4642(5)
O9 O 0.4597(5) 0.0847(4) 0.3550(5)
O10 O 0.6942(7) 0.2500 0.3168(6)
O11 O 0.4957(8) 0.2500 0.3651(6)
O12 O 0.6844(6) 0.0781(4) 0.3255(4)
O13 O 0.5325(5) 0.1709(4) 0.2219(4)
O14 O 0.5363(8) 0.2500 0.0647(7)
O15 O 0.7278(6) 0.3285(4) 0.1578(4)
O16 O 0.8150(6) -0.0626(4) 0.3603(5)
O17 O 0.8863(5) 0.1705(3) 0.3192(4)
O18 O 1.0004(6) 0.0420(4) 0.3689(4)
O19 O 0.8415(5) 0.0428(4) 0.2253(5)
O20 O 0.8917(6) 0.1058(4) 0.0693(5)
O21 O 0.9164(8) 0.2500 0.1616(6)
O22 O 1.0387(6) 0.1225(4) 0.2296(5)
O23 O 1.2194(6) 0.1056(4) 0.3696(5)
O24 O 1.1036(8) 0.2500 0.3320(6)
N1 N 1.0255(7) 0.0761(5) -0.0946(6)
N2 N 0.8565(7) -0.0225(5) -0.0838(6)
N3 N 0.7582(8) -0.0026(5) -0.2152(6)
H1 H 0.7393 0.0156 -0.2675
N4 N 0.9800(7) 0.1066(5) -0.2332(6)
H2 H 0.9422 0.1092 -0.2855
C1 C 1.1085(11) 0.1248(7) -0.1180(8)
H3 H 1.1734 0.1427 -0.0811
C2 C 1.0796(11) 0.1424(7) -0.2044(8)
H4 H 1.1215 0.1735 -0.2374
C3 C 0.9488(8) 0.0659(6) -0.1661(7)
C4 C 0.8539(9) 0.0156(6) -0.1596(7)
C5 C 0.6964(11) -0.0545(8) -0.1746(8)
H5 H 0.6263 -0.0772 -0.1974
C6 C 0.7584(9) -0.0664(7) -0.0937(8)
H6 H 0.7370 -0.0997 -0.0512
O17C O 0.8863(5) 0.3295(3) 0.3192(4)
W2B W 1.21545(3) -0.14874(2) -0.54459(3)
W3B W 1.43283(3) -0.14954(2) -0.34493(3)
W5B W 1.16254(3) -0.03722(2) -0.34974(3)
W6B W 1.11587(3) -0.13872(2) -0.17244(3)
W7B W 0.91852(3) -0.13897(2) -0.35457(3)
O4B O 1.0585(6) -0.1699(4) -0.5964(4)
O5B O 1.2494(6) -0.0861(4) -0.6236(5)
O7B O 1.1620(5) -0.0775(4) -0.4646(4)
O8B O 1.3501(6) -0.1546(4) -0.4642(5)
O9B O 1.5403(5) -0.0847(4) -0.3550(5)
O12B O 1.3156(6) -0.0781(4) -0.3255(4)
O13B O 1.4675(5) -0.1709(4) -0.2219(4)
O16B O 1.1850(6) 0.0626(4) -0.3603(5)
O18B O 0.9996(6) -0.0420(4) -0.3689(4)
O19B O 1.1585(5) -0.0428(4) -0.2253(5)
O20B O 1.1083(6) -0.1058(4) -0.0693(5)
O22B O 0.9613(6) -0.1225(4) -0.2296(5)
O23B O 0.7806(6) -0.1056(4) -0.3696(5)
N1B N 0.9745(7) -0.0761(5) 0.0946(6)
N2B N 1.1435(7) 0.0225(5) 0.0838(6)
N3B N 1.2418(8) 0.0026(5) 0.2152(6)
H1B H 1.2607 -0.0156 0.2675
N4B N 1.0200(7) -0.1066(5) 0.2332(6)
H2B H 1.0578 -0.1092 0.2855
C1B C 0.8915(11) -0.1248(7) 0.1180(8)
H3B H 0.8266 -0.1427 0.0811
C2B C 0.9204(11) -0.1424(7) 0.2044(8)
H4B H 0.8785 -0.1735 0.2374
C3B C 1.0512(8) -0.0659(6) 0.1661(7)
C4B C 1.1461(9) -0.0156(6) 0.1596(7)
C5B C 1.3036(11) 0.0545(8) 0.1746(8)
H5B H 1.3737 0.0772 0.1974
C6B C 1.2416(9) 0.0664(7) 0.0937(8)
H6B H 1.2630 0.0997 0.0512
O2C O 1.0689(5) 0.1734(4) 0.4693(4)
O15C O 0.7278(6) 0.1715(4) 0.1578(4)
W1A W 0.96818(5) -0.2500 -0.55053(4)
W2C W 0.78455(3) 0.35126(2) 0.54459(3)
W3C W 0.56717(3) 0.35046(2) 0.34493(3)
W4A W 1.38649(5) -0.2500 -0.16720(4)
W5C W 0.83746(3) 0.46278(2) 0.34974(3)
W6C W 0.88413(3) 0.36128(2) 0.17244(3)
W7C W 1.08148(3) 0.36103(2) 0.35457(3)
O2A O 0.9311(5) -0.1734(4) -0.4693(4)
O3A O 1.1517(7) -0.2500 -0.4621(6)
O4C O 0.9415(6) 0.3301(4) 0.5964(4)
O6A O 1.2523(8) -0.2500 -0.5933(6)
O10A O 1.3058(7) -0.2500 -0.3168(6)
O11A O 1.5043(8) -0.2500 -0.3651(6)
O13C O 0.5325(5) 0.3291(4) 0.2219(4)
O15A O 1.2722(6) -0.1715(4) -0.1578(4)
O17B O 1.1137(5) -0.1705(3) -0.3192(4)
O21A O 1.0836(8) -0.2500 -0.1616(6)
O24A O 0.8964(8) -0.2500 -0.3320(6)
Cu2 Cu 0.50664(16) 0.2500 0.75818(12)
O25 O 0.6982(10) 0.2500 0.7662(8)
N5 N 0.4655(8) 0.3285(5) 0.6596(6)
N6 N 0.3864(8) 0.3482(6) 0.5224(7)
H7 H 0.3516 0.3390 0.4702
N7 N 0.5067(8) 0.1603(5) 0.8493(6)
C7 C 0.4615(10) 0.4098(7) 0.6435(8)
H8 H 0.4856 0.4497 0.6843
C8 C 0.4168(10) 0.4221(7) 0.5580(10)
H9 H 0.4083 0.4712 0.5291
C9 C 0.4206(9) 0.2937(6) 0.5838(7)
C10 C 0.4154(11) 0.1096(8) 0.8437(9)
H10 H 0.3544 0.1171 0.7983
C11 C 0.4095(9) 0.0487(8) 0.9014(8)
H11 H 0.3442 0.0171 0.8958
C12 C 0.5002(10) 0.0334(6) 0.9685(8)
C13 C 0.5939(11) 0.0838(7) 0.9716(8)
H12 H 0.6566 0.0767 1.0156
C14 C 0.5963(11) 0.1433(6) 0.9121(7)
H13 H 0.6626 0.1735 0.9148
N5C N 0.4655(8) 0.1715(5) 0.6596(6)
N6C N 0.3864(8) 0.1518(6) 0.5224(7)
H7C H 0.3516 0.1610 0.4702
C7C C 0.4615(10) 0.0902(7) 0.6435(8)
H8C H 0.4856 0.0503 0.6843
C8C C 0.4168(10) 0.0779(7) 0.5580(10)
H9C H 0.4083 0.0288 0.5291
C9C C 0.4206(9) 0.2063(6) 0.5838(7)
N7B N 0.4933(8) -0.1603(5) 1.1507(6)
C10B C 0.5846(11) -0.1096(8) 1.1563(9)
H10B H 0.6456 -0.1171 1.2017
C11B C 0.5905(9) -0.0487(8) 1.0986(8)
H11B H 0.6558 -0.0171 1.1042
C12B C 0.4998(10) -0.0334(6) 1.0315(8)
C13B C 0.4061(11) -0.0838(7) 1.0284(8)
H12B H 0.3434 -0.0767 0.9844
C14B C 0.4037(11) -0.1433(6) 1.0879(7)
H13B H 0.3374 -0.1735 1.0852
Cu2A Cu 0.49336(16) -0.2500 1.24182(12)
N7C N 0.5067(8) 0.3397(5) 0.8493(6)
O26 O 0.1398(12) 0.7500 0.0698(10)
O27 O 0.2975(11) 0.2500 -0.0030(11)
O28 O 0.1796(19) 0.2500 0.1340(17)
loop_
_geom_bond_atom_site_label_1
_geom_bond_atom_site_label_2
_geom_bond_site_symmetry_1
_geom_bond_site_symmetry_2
W1 O1 1_555 1_555
W2 O3 1_555 1_555
W3 O8 1_555 1_555
W4 O10 1_555 1_555
W5 O7 1_555 1_555
W6 O17 1_555 1_555
W7 O17 1_555 1_555
Cu1 O20 1_555 1_555
Si1 O3 1_555 1_555
O2 W1 1_555 1_555
O3 W1 1_555 1_555
O4 W1 1_555 1_555
O5 W2 1_555 1_555
O6 W2 1_555 1_555
O7 W2 1_555 1_555
O8 W2 1_555 1_555
O9 W3 1_555 1_555
O10 W3 1_555 1_555
O11 W3 1_555 1_555
O12 W3 1_555 1_555
O13 W3 1_555 1_555
O14 W4 1_555 1_555
O15 W4 1_555 1_555
O16 W5 1_555 1_555
O17 W5 1_555 1_555
O18 W5 1_555 1_555
O19 W5 1_555 1_555
O20 W6 1_555 1_555
O21 W6 1_555 1_555
O22 W6 1_555 1_555
O23 W7 1_555 1_555
O24 W7 1_555 1_555
N1 Cu1 1_555 1_555
N2 Cu1 1_555 1_555
N3 H1 1_555 1_555
N4 H2 1_555 1_555
C1 N1 1_555 1_555
H3 C1 1_555 1_555
C2 N4 1_555 1_555
H4 C2 1_555 1_555
C3 N1 1_555 1_555
C4 N2 1_555 1_555
C5 N3 1_555 1_555
H5 C5 1_555 1_555
C6 N2 1_555 1_555
H6 C6 1_555 1_555
Cu2 O25 1_555 1_555
N5 Cu2 1_555 1_555
N6 H7 1_555 1_555
N7 Cu2 1_555 1_555
C7 N5 1_555 1_555
H8 C7 1_555 1_555
C8 N6 1_555 1_555
H9 C8 1_555 1_555
C9 N5 1_555 1_555
C10 N7 1_555 1_555
H10 C10 1_555 1_555
C11 C10 1_555 1_555
H11 C11 1_555 1_555
C12 C11 1_555 1_555
C13 C12 1_555 1_555
H12 C13 1_555 1_555
C14 N7 1_555 1_555
H13 C14 1_555 1_555
O17C Si1 1_555 1_555
W2B O4B 1_555 1_555
W3B O8B 1_555 1_555
W5B O7B 1_555 1_555
W6B O19B 1_555 1_555
W7B O18B 1_555 1_555
O4B W1A 1_555 1_555
O5B W2B 1_555 1_555
O7B W2B 1_555 1_555
O8B W2B 1_555 1_555
O9B W3B 1_555 1_555
O12B W3B 1_555 1_555
O13B W3B 1_555 1_555
O16B W5B 1_555 1_555
O18B W5B 1_555 1_555
O19B W5B 1_555 1_555
O20B Cu1 1_555 1_555
O22B W6B 1_555 1_555
O23B W7B 1_555 1_555
N1B Cu1 1_555 1_555
N2B Cu1 1_555 1_555
N3B H1B 1_555 1_555
N4B H2B 1_555 1_555
C1B N1B 1_555 1_555
H3B C1B 1_555 1_555
C2B N4B 1_555 1_555
H4B C2B 1_555 1_555
C3B N1B 1_555 1_555
C4B N2B 1_555 1_555
C5B N3B 1_555 1_555
H5B C5B 1_555 1_555
C6B N2B 1_555 1_555
H6B C6B 1_555 1_555
O2C W1 1_555 1_555
O15C W4 1_555 1_555
W1A O2A 1_555 1_555
W2C O3 1_555 1_555
W3C O10 1_555 1_555
W4A O13B 1_555 1_555
W5C O17C 1_555 1_555
W6C O15 1_555 1_555
W7C O2 1_555 1_555
O2A W7B 1_555 1_555
O3A W2B 1_555 1_555
O4C W1 1_555 1_555
O6A W2B 1_555 1_555
O10A W3B 1_555 1_555
O11A W3B 1_555 1_555
O13C W4 1_555 1_555
O15A W6B 1_555 1_555
O17B W5B 1_555 1_555
O21A W6B 1_555 1_555
O24A W7B 1_555 1_555
N5C Cu2 1_555 1_555
N6C H7C 1_555 1_555
C7C N5C 1_555 1_555
H8C C7C 1_555 1_555
C8C N6C 1_555 1_555
H9C C8C 1_555 1_555
C9C C9 1_555 1_555
N7B C10B 1_555 1_555
C10B H10B 1_555 1_555
C11B C10B 1_555 1_555
H11B C11B 1_555 1_555
C12B C12 1_555 1_555
C13B C12B 1_555 1_555
H12B C13B 1_555 1_555
C14B N7B 1_555 1_555
H13B C14B 1_555 1_555
Cu2A N7B 1_555 1_555
N7C Cu2 1_555 1_555
W2 O4 1_555 1_555
W4 O13 1_555 1_555
W5 O12 1_555 1_555
W6 O19 1_555 1_555
W6 O15C 1_555 1_555
W7 O18 1_555 1_555
W7 O22 1_555 1_555
W7 O2C 1_555 1_555
Si1 O10 1_555 1_555
Si1 O17 1_555 1_555
O6 W2C 1_555 1_555
O11 W3C 1_555 1_555
O21 W6C 1_555 1_555
O24 W7C 1_555 1_555
N3 C4 1_555 1_555
N4 C3 1_555 1_555
C1 C2 1_555 1_555
C3 C4 1_555 1_555
C5 C6 1_555 1_555
N6 C9 1_555 1_555
C7 C8 1_555 1_555
C13 C14 1_555 1_555
O17C W6C 1_555 1_555
O17C W7C 1_555 1_555
W5B O12B 1_555 1_555
W6B O20B 1_555 1_555
W6B O17B 1_555 1_555
W7B O22B 1_555 1_555
W7B O17B 1_555 1_555
N3B C4B 1_555 1_555
N4B C3B 1_555 1_555
C1B C2B 1_555 1_555
C3B C4B 1_555 1_555
C5B C6B 1_555 1_555
W1A O3A 1_555 1_555
W2C O4C 1_555 1_555
W3C O13C 1_555 1_555
W4A O10A 1_555 1_555
W4A O15A 1_555 1_555
N5C C9C 1_555 1_555
N6C C9C 1_555 1_555
C7C C8C 1_555 1_555
C11B C12B 1_555 1_555
C13B C14B 1_555 1_555

#END
