
#######################################################################
#
#                 Cambridge Crystallographic Data Centre
#                                CCDC 
#
#######################################################################
#
# If this CIF has been generated from an entry in the Cambridge 
# Structural Database, then it will include bibliographic, chemical, 
# crystal, experimental, refinement or atomic coordinate data resulting 
# from the CCDC's data processing and validation procedures.
#
#######################################################################

data_XUDYOM
_symmetry_cell_setting           orthorhombic
_symmetry_space_group_name_H-M   'P b c a'
_symmetry_Int_Tables_number      61
_space_group_name_Hall           '-P 2ac 2ab'
loop_
_symmetry_equiv_pos_site_id
_symmetry_equiv_pos_as_xyz
1 x,y,z
2 1/2-x,-y,1/2+z
3 1/2+x,1/2-y,-z
4 -x,1/2+y,1/2-z
5 -x,-y,-z
6 1/2+x,y,1/2-z
7 1/2-x,1/2+y,z
8 x,1/2-y,1/2+z
_cell_length_a                   9.3366(14)
_cell_length_b                   21.917(3)
_cell_length_c                   24.057(4)
_cell_angle_alpha                90
_cell_angle_beta                 90
_cell_angle_gamma                90
_cell_volume                     4922.79
loop_
_atom_site_label
_atom_site_type_symbol
_atom_site_fract_x
_atom_site_fract_y
_atom_site_fract_z
In1 In 0.15952(7) 0.10985(3) 0.02502(2)
In2 In -0.17554(7) 0.26398(3) 0.17820(2)
O1 O -0.0343(6) 0.1125(2) 0.0767(2)
O2 O 0.1756(7) 0.1959(2) 0.0798(2)
O3 O 0.0374(6) 0.2546(2) 0.1335(2)
O4 O -0.1624(6) 0.1693(2) 0.1348(2)
O5 O -0.1452(6) -0.0112(2) -0.0443(2)
O6 O -0.0078(6) 0.0707(2) -0.0331(2)
O7 O -0.0653(7) 0.2096(2) 0.2426(2)
O8 O -0.0167(6) 0.3284(2) 0.2237(2)
O9 O 0.1844(6) 0.3240(2) 0.2743(2)
O10 O 0.1402(7) 0.2045(2) 0.2909(2)
O11 O -0.3364(6) 0.2653(2) 0.1078(2)
O12 O -0.1443(6) 0.3522(2) 0.1284(2)
O13 O -0.2055(6) 0.4008(2) 0.0505(2)
O14 O -0.3962(7) 0.3115(2) 0.0280(2)
N1 N 0.3681(8) 0.0983(3) 0.0644(3)
N2 N 0.5827(10) 0.1152(3) 0.0999(3)
C1 C -0.0554(11) 0.1589(4) 0.1058(3)
C2 C 0.0652(11) 0.2070(4) 0.1060(4)
C3 C -0.0428(11) 0.0171(4) -0.0218(3)
C4 C 0.0474(12) 0.2316(4) 0.2632(3)
C5 C 0.0732(11) 0.3010(4) 0.2519(3)
C6 C -0.3258(10) 0.3074(4) 0.0723(4)
C7 C -0.2155(10) 0.3581(4) 0.0847(4)
C8 C 0.4510(11) 0.0466(4) 0.0584(4)
H1 H 0.4213 0.0101 0.0424
C9 C 0.4541(12) 0.1379(4) 0.0896(4)
H2 H 0.4269 0.1774 0.0990
C10 C 0.5826(12) 0.0576(4) 0.0796(4)
H3 H 0.6593 0.0305 0.0802
O6D O 0.0078(6) -0.0707(2) 0.0331(2)
C3D C 0.0428(11) -0.0171(4) 0.0218(3)
O5D O 0.1452(6) 0.0112(2) 0.0443(2)
In1D In -0.15952(7) -0.10985(3) -0.02502(2)
In2D In 0.17554(7) -0.26398(3) -0.17820(2)
O1D O 0.0343(6) -0.1125(2) -0.0767(2)
O2D O -0.1756(7) -0.1959(2) -0.0798(2)
O3D O -0.0374(6) -0.2546(2) -0.1335(2)
O4D O 0.1624(6) -0.1693(2) -0.1348(2)
O7D O 0.0653(7) -0.2096(2) -0.2426(2)
O8D O 0.0167(6) -0.3284(2) -0.2237(2)
O9D O -0.1844(6) -0.3240(2) -0.2743(2)
O10D O -0.1402(7) -0.2045(2) -0.2909(2)
O11D O 0.3364(6) -0.2653(2) -0.1078(2)
O12D O 0.1443(6) -0.3522(2) -0.1284(2)
O13D O 0.2055(6) -0.4008(2) -0.0505(2)
O14D O 0.3962(7) -0.3115(2) -0.0280(2)
N1D N -0.3681(8) -0.0983(3) -0.0644(3)
N2D N -0.5827(10) -0.1152(3) -0.0999(3)
C1D C 0.0554(11) -0.1589(4) -0.1058(3)
C2D C -0.0652(11) -0.2070(4) -0.1060(4)
C4D C -0.0474(12) -0.2316(4) -0.2632(3)
C5D C -0.0732(11) -0.3010(4) -0.2519(3)
C6D C 0.3258(10) -0.3074(4) -0.0723(4)
C7D C 0.2155(10) -0.3581(4) -0.0847(4)
C8D C -0.4510(11) -0.0466(4) -0.0584(4)
H1D H -0.4213 -0.0101 -0.0424
C9D C -0.4541(12) -0.1379(4) -0.0896(4)
H2D H -0.4269 -0.1774 -0.0990
C10D C -0.5826(12) -0.0576(4) -0.0796(4)
H3D H -0.6593 -0.0305 -0.0802
In1B In -0.34048(7) 0.39015(3) -0.02502(2)
In1F In 0.34048(7) -0.39015(3) 0.02502(2)
In2A In -0.32446(7) -0.26398(3) -0.32180(2)
In2E In 0.32446(7) 0.26398(3) 0.32180(2)
O9A O 0.3156(6) -0.3240(2) -0.2257(2)
O9E O -0.3156(6) 0.3240(2) 0.2257(2)
O10A O 0.3598(7) -0.2045(2) -0.2091(2)
O10E O -0.3598(7) 0.2045(2) 0.2091(2)
O13B O 0.2945(6) 0.0992(2) -0.0505(2)
O13F O -0.2945(6) -0.0992(2) 0.0505(2)
O14B O 0.1038(7) 0.1885(2) -0.0280(2)
O14F O -0.1038(7) -0.1885(2) 0.0280(2)
O15 O 0.1836(14) 0.4764(4) 0.1724(4)
N3 N 0.137(3) 0.5130(6) 0.2624(7)
C11 C 0.154(2) 0.4704(6) 0.2208(7)
H4 H 0.1417 0.4302 0.2321
C12 C 0.089(4) 0.4942(9) 0.3212(7)
H5 H 0.0421 0.4553 0.3196
H6 H 0.0246 0.5242 0.3357
H7 H 0.1718 0.4913 0.3449
C13 C 0.233(7) 0.5724(8) 0.2383(15)
H8 H 0.3287 0.5594 0.2306
H9 H 0.2341 0.6042 0.2657
H10 H 0.1893 0.5875 0.2048
O16 O 0.384(2) 0.2464(11) -0.0075(10)
N4 N 0.1829(9) 0.3707(3) 0.1172(3)
H11 H 0.1795 0.4097 0.1290
H12 H 0.1101 0.3505 0.1334
C14 C 0.1629(11) 0.3694(5) 0.0552(4)
H13 H 0.2414 0.3901 0.0376
H14 H 0.0748 0.3894 0.0457
H15 H 0.1597 0.3278 0.0427
C15 C 0.3203(11) 0.3431(5) 0.1352(4)
H16 H 0.3249 0.3016 0.1225
H17 H 0.3263 0.3440 0.1750
H18 H 0.3985 0.3658 0.1196
loop_
_geom_bond_atom_site_label_1
_geom_bond_atom_site_label_2
_geom_bond_site_symmetry_1
_geom_bond_site_symmetry_2
In1 O1 1_555 1_555
In2 O3 1_555 1_555
O1 C1 1_555 1_555
O2 In1 1_555 1_555
O3 C2 1_555 1_555
O4 In2 1_555 1_555
O5 C3 1_555 1_555
O6 In1 1_555 1_555
O7 In2 1_555 1_555
O8 In2 1_555 1_555
O9 C5 1_555 1_555
O10 C4 1_555 1_555
O11 In2 1_555 1_555
O12 In2 1_555 1_555
O13 C7 1_555 1_555
O14 C6 1_555 1_555
N1 In1 1_555 1_555
N2 C9 1_555 1_555
C1 O4 1_555 1_555
C2 O2 1_555 1_555
C3 O6 1_555 1_555
C4 O7 1_555 1_555
C5 O8 1_555 1_555
C6 O11 1_555 1_555
C7 O12 1_555 1_555
C8 N1 1_555 1_555
H1 C8 1_555 1_555
C9 N1 1_555 1_555
H2 C9 1_555 1_555
C10 N2 1_555 1_555
H3 C10 1_555 1_555
O15 C11 1_555 1_555
N3 C11 1_555 1_555
C11 H4 1_555 1_555
C12 N3 1_555 1_555
H5 C12 1_555 1_555
H6 C12 1_555 1_555
H7 C12 1_555 1_555
C13 N3 1_555 1_555
H8 C13 1_555 1_555
H9 C13 1_555 1_555
H10 C13 1_555 1_555
N4 H11 1_555 1_555
H12 N4 1_555 1_555
C14 N4 1_555 1_555
H13 C14 1_555 1_555
H14 C14 1_555 1_555
H15 C14 1_555 1_555
C15 N4 1_555 1_555
H16 C15 1_555 1_555
H17 C15 1_555 1_555
H18 C15 1_555 1_555
O6D C3D 1_555 1_555
C3D C3 1_555 1_555
O5D In1 1_555 1_555
In1D O5 1_555 1_555
In2D O3D 1_555 1_555
O1D In1D 1_555 1_555
O2D In1D 1_555 1_555
O3D C2D 1_555 1_555
O4D In2D 1_555 1_555
O7D In2D 1_555 1_555
O8D In2D 1_555 1_555
O9D C5D 1_555 1_555
O10D C4D 1_555 1_555
O11D In2D 1_555 1_555
O12D In2D 1_555 1_555
O13D C7D 1_555 1_555
O14D C6D 1_555 1_555
N1D In1D 1_555 1_555
N2D C9D 1_555 1_555
C1D O1D 1_555 1_555
C2D O2D 1_555 1_555
C4D O7D 1_555 1_555
C5D O8D 1_555 1_555
C6D O11D 1_555 1_555
C7D O12D 1_555 1_555
C8D N1D 1_555 1_555
H1D C8D 1_555 1_555
C9D N1D 1_555 1_555
H2D C9D 1_555 1_555
C10D N2D 1_555 1_555
H3D C10D 1_555 1_555
In1B O13 1_555 1_555
In1F O13D 1_555 1_555
In2A O9D 1_555 1_555
In2E O9 1_555 1_555
O9A In2D 1_555 1_555
O9E In2 1_555 1_555
O10A In2D 1_555 1_555
O10E In2 1_555 1_555
O13B In1 1_555 1_555
O13F In1D 1_555 1_555
O14B In1 1_555 1_555
O14F In1D 1_555 1_555
O10 In2E 1_555 1_555
O14 In1B 1_555 1_555
C1 C2 1_555 1_555
C4 C5 1_555 1_555
C6 C7 1_555 1_555
C8 C10 1_555 1_555
O6D In1D 1_555 1_555
C3D O5D 1_555 1_555
O4D C1D 1_555 1_555
O10D In2A 1_555 1_555
O14D In1F 1_555 1_555
C1D C2D 1_555 1_555
C4D C5D 1_555 1_555
C6D C7D 1_555 1_555
C8D C10D 1_555 1_555

#END
