
#######################################################################
#
#                 Cambridge Crystallographic Data Centre
#                                CCDC 
#
#######################################################################
#
# If this CIF has been generated from an entry in the Cambridge 
# Structural Database, then it will include bibliographic, chemical, 
# crystal, experimental, refinement or atomic coordinate data resulting 
# from the CCDC's data processing and validation procedures.
#
#######################################################################

data_XUDYEC
_symmetry_cell_setting           monoclinic
_symmetry_space_group_name_H-M   'C 2/c'
_symmetry_Int_Tables_number      15
_space_group_name_Hall           '-C 2yn'
loop_
_symmetry_equiv_pos_site_id
_symmetry_equiv_pos_as_xyz
1 x,y,z
2 -x,y,1/2-z
3 1/2+x,1/2+y,z
4 1/2-x,1/2+y,1/2-z
5 -x,-y,-z
6 x,-y,1/2+z
7 1/2-x,1/2-y,-z
8 1/2+x,1/2-y,1/2+z
_cell_length_a                   36.417(17)
_cell_length_b                   9.831(5)
_cell_length_c                   10.995(5)
_cell_angle_alpha                90
_cell_angle_beta                 106.189(8)
_cell_angle_gamma                90
_cell_volume                     3780.29
loop_
_atom_site_label
_atom_site_type_symbol
_atom_site_fract_x
_atom_site_fract_y
_atom_site_fract_z
Cd1 Cd 0.210247(11) 0.66823(4) 0.36660(4)
O1 O 0.15334(14) 0.6973(6) 0.2034(5)
C1 C 0.0206(2) 0.5151(9) 0.0356(8)
C2 C 0.13757(19) 0.5943(8) 0.2350(7)
C3 C 0.0975(2) 0.5622(9) 0.1638(7)
C4 C 0.0415(2) 0.6119(10) -0.0051(8)
H1 H 0.0299 0.6625 -0.0770
C5 C 0.0789(2) 0.6360(10) 0.0570(8)
H2 H 0.0921 0.7032 0.0272
C6 C 0.0771(3) 0.4667(14) 0.2054(10)
H3 H 0.0886 0.4169 0.2780
O2 O 0.1782(2) 0.8139(6) 0.4790(7)
N1 N 0.23620(14) 0.5683(5) 0.5555(4)
C7 C 0.0394(2) 0.4429(14) 0.1407(10)
H4 H 0.0263 0.3748 0.1697
N2 N 0.1581(2) 0.8754(8) 0.6448(7)
C8 C 0.1748(3) 0.7923(11) 0.5835(10)
H5 H 0.1848 0.7114 0.6231
C9 C 0.22233(18) 0.4654(6) 0.6052(6)
O3 O 0.15402(15) 0.5229(7) 0.3235(6)
N3 N 0.23355(16) 0.4656(5) 0.7322(5)
N4 N 0.25814(16) 0.6412(5) 0.6570(5)
C10 C 0.25539(19) 0.5790(6) 0.7581(6)
H6 H 0.2672 0.6091 0.8398
N5 N 0.2000(2) 0.3652(6) 0.5361(6)
H7 H 0.1942 0.3670 0.4547
H8 H 0.1917 0.3004 0.5739
C11 C 0.1412(5) 1.0020(13) 0.5914(15)
H9 H 0.1558 1.0397 0.5389
H10 H 0.1412 1.0646 0.6583
H11 H 0.1154 0.9863 0.5412
C12 C 0.1576(6) 0.851(2) 0.7775(15)
H12 H 0.1610 0.7555 0.7962
H13 H 0.1335 0.8799 0.7881
H14 H 0.1779 0.9011 0.8340
O1D O -0.15334(14) 0.3027(6) -0.2034(5)
C1D C -0.0206(2) 0.4849(9) -0.0356(8)
C2D C -0.13757(19) 0.4057(8) -0.2350(7)
C3D C -0.0975(2) 0.4378(9) -0.1638(7)
C4D C -0.0415(2) 0.3881(10) 0.0051(8)
H1D H -0.0299 0.3375 0.0770
C5D C -0.0789(2) 0.3640(10) -0.0570(8)
H2D H -0.0921 0.2968 -0.0272
C6D C -0.0771(3) 0.5333(14) -0.2054(10)
H3D H -0.0886 0.5831 -0.2780
C7D C -0.0394(2) 0.5571(14) -0.1407(10)
H4D H -0.0263 0.6252 -0.1697
O3D O -0.15402(15) 0.4771(7) -0.3235(6)
Cd1D Cd -0.210247(11) 0.33177(4) -0.36660(4)
O2D O -0.1782(2) 0.1861(6) -0.4790(7)
N1D N -0.23620(14) 0.4317(5) -0.5555(4)
N2D N -0.1581(2) 0.1246(8) -0.6448(7)
C8D C -0.1748(3) 0.2077(11) -0.5835(10)
H5D H -0.1848 0.2886 -0.6231
C9D C -0.22233(18) 0.5346(6) -0.6052(6)
N3D N -0.23355(16) 0.5344(5) -0.7322(5)
N4D N -0.25814(16) 0.3588(5) -0.6570(5)
C10D C -0.25539(19) 0.4210(6) -0.7581(6)
H6D H -0.2672 0.3909 -0.8398
N5D N -0.2000(2) 0.6348(6) -0.5361(6)
H7D H -0.1942 0.6330 -0.4547
H8D H -0.1917 0.6996 -0.5739
C11D C -0.1412(5) -0.0020(13) -0.5914(15)
H9D H -0.1558 -0.0397 -0.5389
H10D H -0.1412 -0.0646 -0.6583
H11D H -0.1154 0.0137 -0.5412
C12D C -0.1576(6) 0.149(2) -0.7775(15)
H12D H -0.1610 0.2445 -0.7962
H13D H -0.1335 0.1201 -0.7881
H14D H -0.1779 0.0989 -0.8340
Cd1A Cd -0.210247(11) 0.66823(4) -0.86660(4)
Cd1B Cd -0.289753(11) 0.16823(4) -0.63340(4)
Cd1E Cd 0.210247(11) 0.33177(4) 0.86660(4)
Cd1F Cd 0.289753(11) 0.83177(4) 0.63340(4)
N3A N -0.23355(16) 0.4656(5) -0.2322(5)
N3E N 0.23355(16) 0.5344(5) 0.2322(5)
N4B N -0.24186(16) 0.1412(5) -0.3430(5)
N4F N 0.24186(16) 0.8588(5) 0.3430(5)
loop_
_geom_bond_atom_site_label_1
_geom_bond_atom_site_label_2
_geom_bond_site_symmetry_1
_geom_bond_site_symmetry_2
Cd1 O1 1_555 1_555
O1 C2 1_555 1_555
C1 C4 1_555 1_555
C2 C3 1_555 1_555
C3 C5 1_555 1_555
C4 H1 1_555 1_555
C5 C4 1_555 1_555
H2 C5 1_555 1_555
C6 C3 1_555 1_555
H3 C6 1_555 1_555
O2 Cd1 1_555 1_555
N1 Cd1 1_555 1_555
C7 C1 1_555 1_555
H4 C7 1_555 1_555
N2 C8 1_555 1_555
C8 O2 1_555 1_555
H5 C8 1_555 1_555
C9 N1 1_555 1_555
O3 Cd1 1_555 1_555
N3 C9 1_555 1_555
N4 N1 1_555 1_555
C10 N3 1_555 1_555
H6 C10 1_555 1_555
N5 C9 1_555 1_555
H7 N5 1_555 1_555
H8 N5 1_555 1_555
C11 N2 1_555 1_555
H9 C11 1_555 1_555
H10 C11 1_555 1_555
H11 C11 1_555 1_555
C12 N2 1_555 1_555
H12 C12 1_555 1_555
H13 C12 1_555 1_555
H14 C12 1_555 1_555
O1D C2D 1_555 1_555
C1D C1 1_555 1_555
C2D C3D 1_555 1_555
C3D C5D 1_555 1_555
C4D C1D 1_555 1_555
H1D C4D 1_555 1_555
C5D C4D 1_555 1_555
H2D C5D 1_555 1_555
C6D C3D 1_555 1_555
H3D C6D 1_555 1_555
C7D C1D 1_555 1_555
H4D C7D 1_555 1_555
O3D C2D 1_555 1_555
Cd1D O1D 1_555 1_555
O2D Cd1D 1_555 1_555
N1D Cd1D 1_555 1_555
N2D C8D 1_555 1_555
C8D O2D 1_555 1_555
H5D C8D 1_555 1_555
C9D N1D 1_555 1_555
N3D C9D 1_555 1_555
N4D N1D 1_555 1_555
C10D N3D 1_555 1_555
H6D C10D 1_555 1_555
N5D C9D 1_555 1_555
H7D N5D 1_555 1_555
H8D N5D 1_555 1_555
C11D N2D 1_555 1_555
H9D C11D 1_555 1_555
H10D C11D 1_555 1_555
H11D C11D 1_555 1_555
C12D N2D 1_555 1_555
H12D C12D 1_555 1_555
H13D C12D 1_555 1_555
H14D C12D 1_555 1_555
Cd1A N3D 1_555 1_555
Cd1B N4D 1_555 1_555
Cd1E N3 1_555 1_555
Cd1F N4 1_555 1_555
N3A Cd1D 1_555 1_555
N3E Cd1 1_555 1_555
N4B Cd1D 1_555 1_555
N4F Cd1 1_555 1_555
C2 O3 1_555 1_555
C6 C7 1_555 1_555
N4 C10 1_555 1_555
C6D C7D 1_555 1_555
O3D Cd1D 1_555 1_555
N4D C10D 1_555 1_555

#END
