
#######################################################################
#
#                 Cambridge Crystallographic Data Centre
#                                CCDC 
#
#######################################################################
#
# If this CIF has been generated from an entry in the Cambridge 
# Structural Database, then it will include bibliographic, chemical, 
# crystal, experimental, refinement or atomic coordinate data resulting 
# from the CCDC's data processing and validation procedures.
#
#######################################################################

data_XUDZUT
_symmetry_cell_setting           monoclinic
_symmetry_space_group_name_H-M   'P 21/c'
_symmetry_Int_Tables_number      14
_space_group_name_Hall           '-P 2ybc'
loop_
_symmetry_equiv_pos_site_id
_symmetry_equiv_pos_as_xyz
1 x,y,z
2 -x,1/2+y,1/2-z
3 -x,-y,-z
4 x,1/2-y,1/2+z
_cell_length_a                   11.253(5)
_cell_length_b                   11.076(5)
_cell_length_c                   20.202(5)
_cell_angle_alpha                90
_cell_angle_beta                 118.049(15)
_cell_angle_gamma                90
_cell_volume                     2222.2
loop_
_atom_site_label
_atom_site_type_symbol
_atom_site_fract_x
_atom_site_fract_y
_atom_site_fract_z
C1 C 0.4045(4) 0.3259(3) 0.40211(18)
C2 C 0.4621(4) 0.3246(3) 0.35339(19)
H1 H 0.5399 0.2799 0.3662
C3 C 0.4050(4) 0.3884(3) 0.2871(2)
H2 H 0.4465 0.3872 0.2567
C4 C 0.2866(4) 0.4549(4) 0.2642(2)
H3 H 0.2484 0.4963 0.2188
C5 C 0.2282(4) 0.4575(3) 0.3103(2)
H4 H 0.1492 0.5012 0.2958
C6 C 0.2852(4) 0.3957(3) 0.37916(19)
C7 C 0.2190(4) 0.4052(3) 0.42393(19)
H5 H 0.1398 0.4498 0.4049
C8 C 0.1976(4) 0.3727(3) 0.5375(2)
H6 H 0.1984 0.2966 0.5616
H7 H 0.1044 0.3967 0.5072
C9 C 0.2708(4) 0.4680(3) 0.59725(19)
H8 H 0.2647 0.5449 0.5729
H9 H 0.3653 0.4465 0.6249
C10 C 0.2144(4) 0.4825(3) 0.65254(18)
H10 H 0.2570 0.5514 0.6847
H11 H 0.1186 0.4986 0.6248
C11 C 0.2372(4) 0.3715(3) 0.7008(2)
H12 H 0.1869 0.3043 0.6692
H13 H 0.3320 0.3504 0.7247
C12 C 0.1000(4) 0.3328(3) 0.76280(19)
H14 H 0.0524 0.2762 0.7257
C13 C 0.0619(3) 0.3492(3) 0.82015(19)
C14 C -0.0461(4) 0.2795(3) 0.8175(2)
H15 H -0.0920 0.2268 0.7777
C15 C -0.0835(4) 0.2887(3) 0.8724(2)
H16 H -0.1561 0.2443 0.8693
C16 C -0.0119(4) 0.3654(3) 0.9332(2)
H17 H -0.0354 0.3694 0.9715
C17 C 0.1322(3) 0.4308(3) 0.88129(18)
C18 C 0.5910(4) 0.4926(4) 0.8946(2)
H18 H 0.6588 0.4313 0.9079
H19 H 0.6275 0.5691 0.8909
H20 H 0.5154 0.4729 0.8472
C19 C 0.0926(4) 0.4348(3) 0.9376(2)
H21 H 0.1379 0.4855 0.9787
Dy1 Dy 0.396390(15) 0.631420(14) 0.951704(8)
N1 N 0.2610(3) 0.3564(3) 0.48928(16)
H22 H 0.334(3) 0.309(3) 0.505(2)
N2 N 0.1955(3) 0.3906(3) 0.75848(16)
H23 H 0.239(4) 0.444(3) 0.7952(15)
N3 N 0.1727(3) 0.7780(3) 0.94223(17)
N4 N 0.4115(3) 0.7318(3) 0.82070(15)
O1 O 0.2274(2) 0.4996(2) 0.88279(13)
O2 O 0.4588(2) 0.2664(2) 0.46584(12)
O3 O 0.2399(2) 0.7090(2) 0.99771(13)
O4 O 0.2118(3) 0.7840(3) 0.89330(15)
O5 O 0.0749(3) 0.8357(3) 0.93655(16)
O6 O 0.3304(2) 0.6477(2) 0.81411(13)
O7 O 0.4849(3) 0.7685(2) 0.88705(13)
O8 O 0.4191(3) 0.7735(3) 0.76703(13)
O9 O 0.5487(2) 0.4991(2) 0.95053(12)
Dy1A Dy 0.603610(15) 0.131420(14) 0.548296(8)
Dy1B Dy 0.603610(15) 0.368580(14) 1.048296(8)
O2A O 0.5412(2) 0.7664(2) 1.03416(12)
O9B O 0.4513(2) 0.5009(2) 1.04947(12)
loop_
_geom_bond_atom_site_label_1
_geom_bond_atom_site_label_2
_geom_bond_site_symmetry_1
_geom_bond_site_symmetry_2
C1 C2 1_555 1_555
C2 H1 1_555 1_555
C3 C2 1_555 1_555
H2 C3 1_555 1_555
C4 C3 1_555 1_555
H3 C4 1_555 1_555
C5 C4 1_555 1_555
H4 C5 1_555 1_555
C6 C1 1_555 1_555
C7 C6 1_555 1_555
H5 C7 1_555 1_555
C8 H6 1_555 1_555
H7 C8 1_555 1_555
C9 C8 1_555 1_555
H8 C9 1_555 1_555
H9 C9 1_555 1_555
C10 C9 1_555 1_555
H10 C10 1_555 1_555
H11 C10 1_555 1_555
C11 C10 1_555 1_555
H12 C11 1_555 1_555
H13 C11 1_555 1_555
C12 H14 1_555 1_555
C13 C12 1_555 1_555
C14 C13 1_555 1_555
H15 C14 1_555 1_555
C15 C14 1_555 1_555
H16 C15 1_555 1_555
C16 C15 1_555 1_555
H17 C16 1_555 1_555
C17 C13 1_555 1_555
C18 H18 1_555 1_555
H19 C18 1_555 1_555
H20 C18 1_555 1_555
C19 C16 1_555 1_555
H21 C19 1_555 1_555
Dy1 O1 1_555 1_555
N1 C7 1_555 1_555
H22 N1 1_555 1_555
N2 C11 1_555 1_555
H23 N2 1_555 1_555
N3 O3 1_555 1_555
N4 O6 1_555 1_555
O1 C17 1_555 1_555
O2 C1 1_555 1_555
O3 Dy1 1_555 1_555
O4 Dy1 1_555 1_555
O5 N3 1_555 1_555
O6 Dy1 1_555 1_555
O7 Dy1 1_555 1_555
O8 N4 1_555 1_555
O9 C18 1_555 1_555
Dy1A O2 1_555 1_555
Dy1B O9 1_555 1_555
O2A Dy1 1_555 1_555
O9B Dy1 1_555 1_555
C5 C6 1_555 1_555
C8 N1 1_555 1_555
C12 N2 1_555 1_555
C17 C19 1_555 1_555
Dy1 O9 1_555 1_555
N3 O4 1_555 1_555
N4 O7 1_555 1_555
Dy1B O9B 1_555 1_555

#END
