
#######################################################################
#
#                 Cambridge Crystallographic Data Centre
#                                CCDC 
#
#######################################################################
#
# If this CIF has been generated from an entry in the Cambridge 
# Structural Database, then it will include bibliographic, chemical, 
# crystal, experimental, refinement or atomic coordinate data resulting 
# from the CCDC's data processing and validation procedures.
#
#######################################################################

data_XUFDAF
_symmetry_cell_setting           monoclinic
_symmetry_space_group_name_H-M   'P 21/n'
_symmetry_Int_Tables_number      14
_space_group_name_Hall           '-P 2yn'
loop_
_symmetry_equiv_pos_site_id
_symmetry_equiv_pos_as_xyz
1 x,y,z
2 1/2-x,1/2+y,1/2-z
3 -x,-y,-z
4 1/2+x,1/2-y,1/2+z
_cell_length_a                   12.3877(5)
_cell_length_b                   7.9778(3)
_cell_length_c                   17.5325(7)
_cell_angle_alpha                90
_cell_angle_beta                 103.989(2)
_cell_angle_gamma                90
_cell_volume                     1681.29
loop_
_atom_site_label
_atom_site_type_symbol
_atom_site_fract_x
_atom_site_fract_y
_atom_site_fract_z
Zn1 Zn 0.25259(4) 0.24820(6) -0.00502(3)
Br1 Br 0.21943(5) 0.07894(7) 0.09596(3)
Br2 Br 0.35358(4) 0.49934(5) 0.02091(3)
Si1 Si 0.01907(10) 0.69482(14) -0.24498(6)
N1 N 0.1029(3) 0.3316(4) -0.07370(19)
N2 N 0.1653(3) 0.6039(4) -0.43000(19)
C1 C 0.1027(4) 0.4504(5) -0.1279(2)
H1 H 0.1720 0.4834 -0.1372
C2 C 0.0052(4) 0.2854(5) -0.0609(3)
H2 H 0.0042 0.2006 -0.0230
C3 C -0.0931(4) 0.3547(6) -0.0998(3)
H3 H -0.1611 0.3200 -0.0887
C4 C -0.0921(4) 0.4772(5) -0.1561(3)
H4 H -0.1601 0.5258 -0.1842
C5 C 0.0065(4) 0.5285(5) -0.1714(2)
C6 C -0.1076(4) 0.8276(5) -0.2787(3)
H5 H -0.1363 0.8200 -0.3364
H6 H -0.1669 0.7929 -0.2530
C7 C -0.0676(5) 1.0048(6) -0.2542(3)
H7 H -0.1090 1.0860 -0.2932
H8 H -0.0831 1.0311 -0.2027
C8 C 0.0550(5) 1.0223(6) -0.2482(4)
H9 H 0.0832 1.1269 -0.2200
H10 H 0.0688 1.0278 -0.3015
C9 C 0.1156(4) 0.8697(5) -0.2035(3)
H11 H 0.1241 0.8810 -0.1461
H12 H 0.1897 0.8536 -0.2143
C10 C 0.0652(3) 0.5879(5) -0.3275(2)
C11 C 0.0369(4) 0.4238(5) -0.3504(2)
H13 H -0.0081 0.3606 -0.3241
C12 C 0.0737(4) 0.3525(5) -0.4107(3)
H14 H 0.0548 0.2399 -0.4259
C13 C 0.1374(4) 0.4441(5) -0.4487(2)
H15 H 0.1630 0.3928 -0.4900
C14 C 0.1284(3) 0.6706(5) -0.3710(2)
H16 H 0.1471 0.7842 -0.3579
Zn1A Zn 0.24741(4) 0.74820(6) -0.49498(3)
N2A N 0.3347(3) 0.1039(4) -0.07000(19)
loop_
_geom_bond_atom_site_label_1
_geom_bond_atom_site_label_2
_geom_bond_site_symmetry_1
_geom_bond_site_symmetry_2
Zn1 Br1 1_555 1_555
Br2 Zn1 1_555 1_555
Si1 C5 1_555 1_555
N1 Zn1 1_555 1_555
N2 C13 1_555 1_555
C1 N1 1_555 1_555
H1 C1 1_555 1_555
C2 N1 1_555 1_555
H2 C2 1_555 1_555
C3 C2 1_555 1_555
H3 C3 1_555 1_555
C4 C3 1_555 1_555
H4 C4 1_555 1_555
C5 C1 1_555 1_555
C6 Si1 1_555 1_555
H5 C6 1_555 1_555
H6 C6 1_555 1_555
C7 C6 1_555 1_555
H7 C7 1_555 1_555
H8 C7 1_555 1_555
C8 C7 1_555 1_555
H9 C8 1_555 1_555
H10 C8 1_555 1_555
C9 Si1 1_555 1_555
H11 C9 1_555 1_555
H12 C9 1_555 1_555
C10 Si1 1_555 1_555
C11 C10 1_555 1_555
H13 C11 1_555 1_555
C12 C11 1_555 1_555
H14 C12 1_555 1_555
C13 C12 1_555 1_555
H15 C13 1_555 1_555
C14 N2 1_555 1_555
H16 C14 1_555 1_555
Zn1A N2 1_555 1_555
N2A Zn1 1_555 1_555
C4 C5 1_555 1_555
C8 C9 1_555 1_555
C10 C14 1_555 1_555

#END
