
#######################################################################
#
#                 Cambridge Crystallographic Data Centre
#                                CCDC 
#
#######################################################################
#
# If this CIF has been generated from an entry in the Cambridge 
# Structural Database, then it will include bibliographic, chemical, 
# crystal, experimental, refinement or atomic coordinate data resulting 
# from the CCDC's data processing and validation procedures.
#
#######################################################################

data_XUFDIN
_symmetry_cell_setting           monoclinic
_symmetry_space_group_name_H-M   'P 21/n'
_symmetry_Int_Tables_number      14
_space_group_name_Hall           '-P 2yn'
loop_
_symmetry_equiv_pos_site_id
_symmetry_equiv_pos_as_xyz
1 x,y,z
2 1/2-x,1/2+y,1/2-z
3 -x,-y,-z
4 1/2+x,1/2-y,1/2+z
_cell_length_a                   12.6956(4)
_cell_length_b                   8.1560(2)
_cell_length_c                   17.4487(5)
_cell_angle_alpha                90
_cell_angle_beta                 105.101(2)
_cell_angle_gamma                90
_cell_volume                     1744.34
loop_
_atom_site_label
_atom_site_type_symbol
_atom_site_fract_x
_atom_site_fract_y
_atom_site_fract_z
Hg1 Hg 0.76468(2) 0.25541(3) 0.013404(14)
Br1 Br 0.85889(6) 0.52236(8) 0.01493(4)
Br2 Br 0.71958(7) 0.03726(10) 0.09734(5)
Si1 Si 0.98300(13) 0.2065(2) -0.25877(9)
N1 N 0.8503(4) 0.1031(6) -0.0719(3)
N2 N 0.9073(4) -0.1504(6) -0.4302(3)
C1 C 0.8841(4) 0.1744(7) -0.1294(3)
H1 H 0.8681 0.2876 -0.1390
C2 C 0.8739(5) -0.0556(7) -0.0577(3)
H2 H 0.8499 -0.1091 -0.0169
C3 C 0.9310(5) -0.1433(7) -0.0996(4)
H3 H 0.9475 -0.2556 -0.0876
C4 C 0.9645(5) -0.0681(7) -0.1593(4)
H4 H 1.0042 -0.1285 -0.1891
C5 C 0.9408(4) 0.0966(7) -0.1765(3)
C6 C 0.8830(5) 0.3706(8) -0.3024(4)
H5 H 0.8625 0.3660 -0.3611
H6 H 0.8163 0.3620 -0.2834
C7 C 0.9443(9) 0.5214(11) -0.2731(11)
H7 H 0.9236 0.6049 -0.3156
H8 H 0.9185 0.5618 -0.2277
C8 C 1.0582(7) 0.5155(8) -0.2489(5)
H9 H 1.0841 0.5895 -0.2028
H10 H 1.0876 0.5570 -0.2925
C9 C 1.1034(5) 0.3441(7) -0.2260(4)
H11 H 1.1351 0.3358 -0.1679
H12 H 1.1602 0.3162 -0.2534
C10 C 0.9050(5) -0.0332(7) -0.3773(3)
H13 H 0.8362 -0.0020 -0.3700
C11 C 1.0031(5) -0.1935(8) -0.4425(4)
H14 H 1.0049 -0.2753 -0.4809
C12 C 1.0984(5) -0.1230(8) -0.4012(4)
H15 H 1.1658 -0.1560 -0.4105
C13 C 1.0962(5) -0.0028(8) -0.3455(4)
H16 H 1.1623 0.0466 -0.3164
C14 C 0.9978(5) 0.0458(7) -0.3321(3)
Hg1A Hg 0.73532(2) -0.24459(3) -0.513404(14)
N2A N 0.5927(4) 0.3496(6) -0.0698(3)
loop_
_geom_bond_atom_site_label_1
_geom_bond_atom_site_label_2
_geom_bond_site_symmetry_1
_geom_bond_site_symmetry_2
Hg1 Br1 1_555 1_555
Br2 Hg1 1_555 1_555
Si1 C5 1_555 1_555
N1 Hg1 1_555 1_555
N2 C10 1_555 1_555
C1 N1 1_555 1_555
H1 C1 1_555 1_555
C2 N1 1_555 1_555
H2 C2 1_555 1_555
C3 C2 1_555 1_555
H3 C3 1_555 1_555
C4 C3 1_555 1_555
H4 C4 1_555 1_555
C5 C1 1_555 1_555
C6 Si1 1_555 1_555
H5 C6 1_555 1_555
H6 C6 1_555 1_555
C7 C6 1_555 1_555
H7 C7 1_555 1_555
H8 C7 1_555 1_555
C8 C7 1_555 1_555
H9 C8 1_555 1_555
H10 C8 1_555 1_555
C9 Si1 1_555 1_555
H11 C9 1_555 1_555
H12 C9 1_555 1_555
C10 H13 1_555 1_555
C11 N2 1_555 1_555
H14 C11 1_555 1_555
C12 C11 1_555 1_555
H15 C12 1_555 1_555
C13 C12 1_555 1_555
H16 C13 1_555 1_555
C14 Si1 1_555 1_555
Hg1A N2 1_555 1_555
N2A Hg1 1_555 1_555
C4 C5 1_555 1_555
C8 C9 1_555 1_555
C10 C14 1_555 1_555
C13 C14 1_555 1_555

#END
