
#######################################################################
#
#                 Cambridge Crystallographic Data Centre
#                                CCDC 
#
#######################################################################
#
# If this CIF has been generated from an entry in the Cambridge 
# Structural Database, then it will include bibliographic, chemical, 
# crystal, experimental, refinement or atomic coordinate data resulting 
# from the CCDC's data processing and validation procedures.
#
#######################################################################

data_XUFDEJ
_symmetry_cell_setting           monoclinic
_symmetry_space_group_name_H-M   'P 21/n'
_symmetry_Int_Tables_number      14
_space_group_name_Hall           '-P 2yn'
loop_
_symmetry_equiv_pos_site_id
_symmetry_equiv_pos_as_xyz
1 x,y,z
2 1/2-x,1/2+y,1/2-z
3 -x,-y,-z
4 1/2+x,1/2-y,1/2+z
_cell_length_a                   12.5515(3)
_cell_length_b                   8.0518(2)
_cell_length_c                   17.0144(4)
_cell_angle_alpha                90
_cell_angle_beta                 104.8440(10)
_cell_angle_gamma                90
_cell_volume                     1662.13
loop_
_atom_site_label
_atom_site_type_symbol
_atom_site_fract_x
_atom_site_fract_y
_atom_site_fract_z
Hg1 Hg 0.231102(16) 1.24672(2) -0.524111(10)
Cl1 Cl 0.14120(11) 0.99192(16) -0.51592(8)
Cl2 Cl 0.27192(14) 1.45631(18) -0.60722(9)
Si1 Si 0.48237(10) 0.80558(18) -0.25774(7)
N1 N 0.4047(3) 1.1563(5) -0.4386(2)
N2 N 0.3490(3) 0.9076(5) -0.0648(2)
C1 C 0.4040(4) 1.0397(6) -0.3830(3)
H1 H 0.3346 1.0043 -0.3765
C2 C 0.5022(5) 1.2038(7) -0.4484(3)
H2 H 0.5043 1.2862 -0.4880
C3 C 0.5986(4) 1.1389(7) -0.4041(3)
H3 H 0.6667 1.1746 -0.4131
C4 C 0.5968(4) 1.0207(6) -0.3458(3)
H4 H 0.6641 0.9764 -0.3137
C5 C 0.4983(4) 0.9665(6) -0.3340(2)
C6 C 0.6041(4) 0.6660(6) -0.2225(3)
H5 H 0.6631 0.6948 -0.2492
H6 H 0.6340 0.6731 -0.1628
C7 C 0.5582(5) 0.4938(7) -0.2477(4)
H7 H 0.5865 0.4555 -0.2939
H8 H 0.5861 0.4163 -0.2019
C8 C 0.4412(8) 0.4849(10) -0.2709(10)
H9 H 0.4161 0.4486 -0.2230
H10 H 0.4195 0.3974 -0.3129
C9 C 0.3811(4) 0.6378(6) -0.3028(3)
H11 H 0.3126 0.6485 -0.2846
H12 H 0.3626 0.6405 -0.3629
C10 C 0.4394(4) 0.9163(6) -0.1736(2)
C11 C 0.3835(4) 0.8346(6) -0.1246(3)
H13 H 0.3688 0.7196 -0.1339
C12 C 0.3711(4) 1.0680(6) -0.0500(3)
H14 H 0.3476 1.1202 -0.0073
C13 C 0.4272(4) 1.1611(6) -0.0949(3)
H15 H 0.4420 1.2754 -0.0831
C14 C 0.4611(4) 1.0857(6) -0.1565(3)
H16 H 0.4995 1.1483 -0.1879
Hg1A Hg 0.268898(16) 0.74672(2) 0.024111(10)
N2A N 0.1510(3) 1.4076(5) -0.4352(2)
loop_
_geom_bond_atom_site_label_1
_geom_bond_atom_site_label_2
_geom_bond_site_symmetry_1
_geom_bond_site_symmetry_2
Hg1 Cl1 1_555 1_555
Cl2 Hg1 1_555 1_555
Si1 C5 1_555 1_555
N1 Hg1 1_555 1_555
N2 C11 1_555 1_555
C1 N1 1_555 1_555
H1 C1 1_555 1_555
C2 N1 1_555 1_555
H2 C2 1_555 1_555
C3 C2 1_555 1_555
H3 C3 1_555 1_555
C4 C3 1_555 1_555
H4 C4 1_555 1_555
C5 C1 1_555 1_555
C6 Si1 1_555 1_555
H5 C6 1_555 1_555
H6 C6 1_555 1_555
C7 C6 1_555 1_555
H7 C7 1_555 1_555
H8 C7 1_555 1_555
C8 C7 1_555 1_555
H9 C8 1_555 1_555
H10 C8 1_555 1_555
C9 Si1 1_555 1_555
H11 C9 1_555 1_555
H12 C9 1_555 1_555
C10 Si1 1_555 1_555
C11 C10 1_555 1_555
H13 C11 1_555 1_555
C12 N2 1_555 1_555
H14 C12 1_555 1_555
C13 C12 1_555 1_555
H15 C13 1_555 1_555
C14 C10 1_555 1_555
H16 C14 1_555 1_555
Hg1A N2 1_555 1_555
N2A Hg1 1_555 1_555
C4 C5 1_555 1_555
C8 C9 1_555 1_555
C13 C14 1_555 1_555

#END
