
#######################################################################
#
#                 Cambridge Crystallographic Data Centre
#                                CCDC 
#
#######################################################################
#
# If this CIF has been generated from an entry in the Cambridge 
# Structural Database, then it will include bibliographic, chemical, 
# crystal, experimental, refinement or atomic coordinate data resulting 
# from the CCDC's data processing and validation procedures.
#
#######################################################################

data_XUFFUA
_symmetry_cell_setting           orthorhombic
_symmetry_space_group_name_H-M   'P 21 2 21'
_symmetry_Int_Tables_number      18
_space_group_name_Hall           'P 2ac 2ac'
loop_
_symmetry_equiv_pos_site_id
_symmetry_equiv_pos_as_xyz
1 x,y,z
2 1/2-x,-y,1/2+z
3 1/2+x,-y,1/2-z
4 -x,y,-z
_cell_length_a                   7.2358(7)
_cell_length_b                   11.4070(11)
_cell_length_c                   17.5587(18)
_cell_angle_alpha                90
_cell_angle_beta                 90
_cell_angle_gamma                90
_cell_volume                     1449.27
loop_
_atom_site_label
_atom_site_type_symbol
_atom_site_fract_x
_atom_site_fract_y
_atom_site_fract_z
Co1 Co 0.0000 1.02706(4) 0.5000
N1 N 0.0000 0.8398(2) 0.5000
N2 N 0.0000 0.2168(2) 0.5000
O1 O -0.1160(3) 1.0253(2) 0.60894(11)
O2 O 0.2648(3) 1.0357(2) 0.54689(15)
C1 C 0.0569(5) 0.7781(2) 0.56053(16)
H2 H 0.0954 0.8186 0.6037
C2 C 0.0611(4) 0.6575(2) 0.56191(15)
H3 H 0.1055 0.6188 0.6048
C3 C 0.0000 0.5932(3) 0.5000
C4 C 0.0000 0.4631(3) 0.5000
C5 C 0.0490(4) 0.3988(2) 0.56398(14)
H4 H 0.0823 0.4373 0.6086
C6 C 0.0485(4) 0.2784(2) 0.56158(15)
H5 H 0.0838 0.2376 0.6051
H10 H 0.333(4) 1.091(2) 0.5323(19)
H11 H -0.065(4) 1.049(3) 0.6495(12)
H12 H -0.219(3) 0.994(3) 0.6186(18)
H13 H 0.322(4) 0.996(3) 0.5797(19)
Co1_2 Co 0.0000 0.02706(4) 0.5000
N2_2 N 0.0000 1.2168(2) 0.5000
O1C O 0.1160(3) 1.0253(2) 0.39106(11)
O2C O -0.2648(3) 1.0357(2) 0.45311(15)
C1C C -0.0569(5) 0.7781(2) 0.43947(16)
H2C H -0.0954 0.8186 0.3963
C2C C -0.0611(4) 0.6575(2) 0.43809(15)
H3C H -0.1055 0.6188 0.3952
C5C C -0.0490(4) 0.3988(2) 0.43602(14)
H4C H -0.0823 0.4373 0.3914
C6C C -0.0485(4) 0.2784(2) 0.43842(15)
H5C H -0.0838 0.2376 0.3949
H10C H -0.333(4) 1.091(2) 0.4677(19)
H11C H 0.065(4) 1.049(3) 0.3505(12)
H12C H 0.219(3) 0.994(3) 0.3814(18)
H13C H -0.322(4) 0.996(3) 0.4203(19)
S1 S 0.47003(10) 0.85406(6) 0.69956(4)
O3 O 0.5437(4) 0.91347(19) 0.63390(12)
O4 O 0.5773(3) 0.8723(2) 0.76784(12)
O5 O 0.2774(3) 0.8830(2) 0.71137(17)
O6 O 0.5248(4) 0.34843(17) 0.63292(12)
H1 H 0.4798 0.3087 0.6671
C7 C 0.4811(4) 0.7025(2) 0.67897(14)
C8 C 0.4069(4) 0.6224(3) 0.73025(15)
H6 H 0.3491 0.6488 0.7743
C9 C 0.4191(4) 0.5033(3) 0.71573(16)
H7 H 0.3692 0.4498 0.7500
C10 C 0.5057(4) 0.4641(2) 0.65012(15)
C11 C 0.5756(4) 0.5450(3) 0.59844(18)
H8 H 0.6307 0.5189 0.5537
C12 C 0.5642(4) 0.6629(3) 0.61269(16)
H9 H 0.6122 0.7163 0.5779
O7 O 0.4439(4) 0.2036(3) 0.7392(2)
H14 H 0.348(3) 0.162(3) 0.736(3)
H15 H 0.539(3) 0.161(3) 0.745(3)
O8 O 0.5000 0.2138(3) 0.5000
H16 H 0.525(6) 0.255(3) 0.5389(14)
H16C H 0.475(6) 0.255(3) 0.4611(14)
loop_
_geom_bond_atom_site_label_1
_geom_bond_atom_site_label_2
_geom_bond_site_symmetry_1
_geom_bond_site_symmetry_2
Co1 N1 1_555 1_555
S1 O3 1_555 1_555
N1 C1 1_555 1_555
N2 C6 1_555 1_555
O1 Co1 1_555 1_555
O2 Co1 1_555 1_555
O4 S1 1_555 1_555
O5 S1 1_555 1_555
O6 H1 1_555 1_555
O7 H14 1_555 1_555
O8 H16 1_555 1_555
C1 H2 1_555 1_555
C2 C1 1_555 1_555
H3 C2 1_555 1_555
C3 C2 1_555 1_555
C4 C3 1_555 1_555
C5 C4 1_555 1_555
H4 C5 1_555 1_555
C6 C5 1_555 1_555
H5 C6 1_555 1_555
C7 S1 1_555 1_555
C8 C7 1_555 1_555
H6 C8 1_555 1_555
C9 C8 1_555 1_555
H7 C9 1_555 1_555
C10 O6 1_555 1_555
C11 C10 1_555 1_555
H8 C11 1_555 1_555
C12 C7 1_555 1_555
H9 C12 1_555 1_555
H10 O2 1_555 1_555
H11 O1 1_555 1_555
H12 O1 1_555 1_555
H13 O2 1_555 1_555
H15 O7 1_555 1_555
Co1_2 N2 1_555 1_555
N2_2 Co1 1_555 1_555
O1C Co1 1_555 1_555
O2C Co1 1_555 1_555
C1C N1 1_555 1_555
H2C C1C 1_555 1_555
C2C C3 1_555 1_555
H3C C2C 1_555 1_555
C5C C4 1_555 1_555
H4C C5C 1_555 1_555
C6C N2 1_555 1_555
H5C C6C 1_555 1_555
H10C O2C 1_555 1_555
H11C O1C 1_555 1_555
H12C O1C 1_555 1_555
H13C O2C 1_555 1_555
H16C O8 1_555 1_555
C9 C10 1_555 1_555
C11 C12 1_555 1_555
C1C C2C 1_555 1_555
C5C C6C 1_555 1_555

#END
