
#######################################################################
#
#                 Cambridge Crystallographic Data Centre
#                                CCDC 
#
#######################################################################
#
# If this CIF has been generated from an entry in the Cambridge 
# Structural Database, then it will include bibliographic, chemical, 
# crystal, experimental, refinement or atomic coordinate data resulting 
# from the CCDC's data processing and validation procedures.
#
#######################################################################

data_XUFGOV
_symmetry_cell_setting           monoclinic
_symmetry_space_group_name_H-M   'P 2/n'
_symmetry_Int_Tables_number      13
_space_group_name_Hall           '-P 2yac'
loop_
_symmetry_equiv_pos_site_id
_symmetry_equiv_pos_as_xyz
1 x,y,z
2 1/2-x,y,1/2-z
3 -x,-y,-z
4 1/2+x,-y,1/2+z
_cell_length_a                   22.9516(8)
_cell_length_b                   11.6940(4)
_cell_length_c                   27.8299(10)
_cell_angle_alpha                90
_cell_angle_beta                 94.3950(10)
_cell_angle_gamma                90
_cell_volume                     7447.47
loop_
_atom_site_label
_atom_site_type_symbol
_atom_site_fract_x
_atom_site_fract_y
_atom_site_fract_z
Cd1 Cd 0.2500 0.12608(3) 0.2500
Cd2 Cd 0.347980(14) 0.12166(3) 0.150010(12)
N1 N 0.2500 -0.0700(4) 0.2500
N2 N 0.2500 -0.6765(4) 0.2500
N3 N 0.34471(17) -0.0781(3) 0.15258(14)
N4 N 0.34906(17) -0.6812(3) 0.14390(15)
N5 N 0.40937(19) 0.0902(4) 0.08931(15)
O1 O 0.35017(16) 0.1289(3) 0.23900(16)
O2 O 0.43297(16) 0.1272(3) 0.20687(13)
O3 O 0.25686(18) 0.1235(3) 0.33264(13)
O4 O 0.23593(16) 0.1213(3) 0.40711(12)
C1 C 0.2797(2) -0.1299(4) 0.28458(18)
H3 H 0.3008 -0.0900 0.3090
C2 C 0.2807(2) -0.2477(4) 0.28612(17)
H4 H 0.3019 -0.2849 0.3113
C3 C 0.2500 -0.3115(6) 0.2500
C4 C 0.2957(2) -0.6169(4) 0.2683(2)
H5 H 0.3281 -0.6569 0.2815
C5 C 0.2978(2) -0.4989(4) 0.2688(2)
H6 H 0.3309 -0.4606 0.2816
C6 C 0.2500 -0.4401(5) 0.2500
C7 C 0.3751(2) -0.1403(4) 0.18601(19)
H7 H 0.3950 -0.1027 0.2117
C8 C 0.3782(2) -0.2582(4) 0.18400(19)
H8 H 0.3998 -0.2982 0.2082
C9 C 0.3492(2) -0.3170(4) 0.14599(17)
C10 C 0.3173(2) -0.2517(4) 0.11149(18)
H9 H 0.2968 -0.2871 0.0855
C11 C 0.3161(3) -0.1347(4) 0.1160(2)
H10 H 0.2945 -0.0927 0.0925
C12 C 0.3021(3) -0.6204(4) 0.1278(2)
H11 H 0.2686 -0.6599 0.1165
C13 C 0.3005(2) -0.5027(4) 0.1272(2)
H12 H 0.2668 -0.4641 0.1158
C14 C 0.3500(2) -0.4431(4) 0.14389(17)
C15 C 0.3991(2) -0.5050(4) 0.1593(2)
H13 H 0.4335 -0.4678 0.1699
C16 C 0.3964(2) -0.6221(4) 0.1588(2)
H14 H 0.4298 -0.6626 0.1695
C17 C 0.4643(3) 0.0628(6) 0.0996(2)
H15 H 0.4792 0.0678 0.1315
C18 C 0.5012(2) 0.0271(6) 0.0658(2)
H16 H 0.5399 0.0088 0.0751
C19 C 0.4811(2) 0.0188(4) 0.01916(18)
C20 C 0.4236(3) 0.0463(8) 0.0084(2)
H17 H 0.4074 0.0409 -0.0232
C21 C 0.3897(3) 0.0819(8) 0.0442(2)
H18 H 0.3509 0.1010 0.0359
C22 C 0.4050(2) 0.1304(4) 0.24363(19)
C23 C 0.4365(3) 0.1361(8) 0.2919(3)
H19 H 0.4087 0.1380 0.3161
H20 H 0.4600 0.2040 0.2943
H21 H 0.4611 0.0701 0.2968
C24 C 0.2731(2) 0.1200(4) 0.37685(17)
C25 C 0.3350(3) 0.1140(8) 0.3929(3)
H22 H 0.3578 0.1140 0.3653
H23 H 0.3426 0.0451 0.4111
H24 H 0.3455 0.1790 0.4128
Cd1_2 Cd 0.2500 -0.87392(3) 0.2500
Cd2A Cd 0.152020(14) 0.12166(3) 0.349990(12)
Cd2_2 Cd 0.347980(14) -0.87834(3) 0.150010(12)
Cd2B Cd 0.652020(14) -0.12166(3) -0.150010(12)
Cd2_3 Cd 0.347980(14) 1.12166(3) 0.150010(12)
N2_2 N 0.2500 0.3235(4) 0.2500
N3_2 N 0.34471(17) 0.9219(3) 0.15258(14)
N3A N 0.15529(17) -0.0781(3) 0.34742(14)
N4_2 N 0.34906(17) 0.3188(3) 0.14390(15)
N4A N 0.15094(17) 0.3188(3) 0.35610(15)
N5B N 0.59063(19) -0.0902(4) -0.08931(15)
N5A N 0.09063(19) 0.0902(4) 0.41069(15)
O1A O 0.14983(16) 0.1289(3) 0.26100(16)
O2A O 0.06703(16) 0.1272(3) 0.29313(13)
O3A O 0.24314(18) 0.1235(3) 0.16736(13)
O4A O 0.26407(16) 0.1213(3) 0.09289(12)
C1A C 0.2203(2) -0.1299(4) 0.21542(18)
H3A H 0.1992 -0.0900 0.1910
C2A C 0.2193(2) -0.2477(4) 0.21388(17)
H4A H 0.1981 -0.2849 0.1887
C4A C 0.2043(2) -0.6169(4) 0.2317(2)
H5A H 0.1719 -0.6569 0.2185
C5A C 0.2022(2) -0.4989(4) 0.2312(2)
H6A H 0.1691 -0.4606 0.2184
C7_2 C 0.3751(2) 0.8597(4) 0.18601(19)
H7_2 H 0.3950 0.8973 0.2117
C8_2 C 0.3782(2) 0.7418(4) 0.18400(19)
H8_2 H 0.3998 0.7018 0.2082
C9_2 C 0.3492(2) 0.6830(4) 0.14599(17)
C10_2 C 0.3173(2) 0.7483(4) 0.11149(18)
H9_2 H 0.2968 0.7129 0.0855
C11_2 C 0.3161(3) 0.8653(4) 0.1160(2)
H10_2 H 0.2945 0.9073 0.0925
C12_2 C 0.3021(3) 0.3796(4) 0.1278(2)
H11_2 H 0.2686 0.3401 0.1165
C13_2 C 0.3005(2) 0.4973(4) 0.1272(2)
H12_2 H 0.2668 0.5359 0.1158
C14_2 C 0.3500(2) 0.5569(4) 0.14389(17)
C15_2 C 0.3991(2) 0.4950(4) 0.1593(2)
H13_2 H 0.4335 0.5322 0.1699
C16_2 C 0.3964(2) 0.3779(4) 0.1588(2)
H14_2 H 0.4298 0.3374 0.1695
C17B C 0.5357(3) -0.0628(6) -0.0996(2)
H15B H 0.5208 -0.0678 -0.1315
C18B C 0.4988(2) -0.0271(6) -0.0658(2)
H16B H 0.4601 -0.0088 -0.0751
C19B C 0.5189(2) -0.0188(4) -0.01916(18)
C20B C 0.5764(3) -0.0463(8) -0.0084(2)
H17B H 0.5926 -0.0409 0.0232
C21B C 0.6103(3) -0.0819(8) -0.0442(2)
H18B H 0.6491 -0.1010 -0.0359
C22A C 0.0950(2) 0.1304(4) 0.25637(19)
C23A C 0.0635(3) 0.1361(8) 0.2081(3)
H19A H 0.0913 0.1380 0.1839
H20A H 0.0400 0.2040 0.2057
H21A H 0.0389 0.0701 0.2032
C24A C 0.2269(2) 0.1200(4) 0.12315(17)
C25A C 0.1650(3) 0.1140(8) 0.1071(3)
H22A H 0.1422 0.1140 0.1347
H23A H 0.1574 0.0451 0.0889
H24A H 0.1545 0.1790 0.0872
Cd3 Cd 0.2500 0.14103(3) 0.7500
Cd4 Cd 0.149508(16) 0.12882(3) 0.849554(12)
N6 N 0.2500 -0.0549(4) 0.7500
N7 N 0.2500 -0.6615(4) 0.7500
N8 N 0.1470(2) 0.3266(4) 0.85456(17)
N9 N 0.15434(17) 0.9292(3) 0.84611(14)
N10 N 0.0901(2) 0.0971(4) 0.91113(16)
O5 O 0.25032(17) 0.1373(3) 0.83245(12)
O6 O 0.23404(16) 0.1324(3) 0.90803(12)
O7 O 0.14877(18) 0.1401(3) 0.7520(2)
O8 O 0.07163(19) 0.1297(3) 0.79098(15)
C26 C 0.2139(3) -0.1143(4) 0.7203(2)
H25 H 0.1880 -0.0743 0.6991
C27 C 0.2124(2) -0.2316(4) 0.7189(2)
H26 H 0.1862 -0.2686 0.6970
C28 C 0.2500 -0.2957(5) 0.7500
C29 C 0.2886(3) -0.6021(5) 0.7756(3)
H27 H 0.3170 -0.6416 0.7946
C30 C 0.2905(3) -0.4837(4) 0.7766(3)
H28 H 0.3197 -0.4462 0.7955
C31 C 0.2500 -0.4234(4) 0.7500
C32 C 0.1084(4) 0.3859(5) 0.8315(5)
H29 H 0.0783 0.3475 0.8139
C33 C 0.1078(4) 0.5035(5) 0.8306(4)
H30 H 0.0774 0.5403 0.8128
C34 C 0.1479(2) 0.5653(4) 0.85371(17)
C35 C 0.1882(5) 0.5034(6) 0.8787(3)
H31 H 0.2186 0.5402 0.8967
C36 C 0.1859(5) 0.3861(6) 0.8786(4)
H32 H 0.2147 0.3471 0.8973
C37 C 0.1493(2) 0.6894(4) 0.85179(16)
C38 C 0.1130(3) 0.7511(5) 0.8197(2)
H33 H 0.0859 0.7132 0.7989
C39 C 0.1166(3) 0.8689(4) 0.8182(2)
H34 H 0.0911 0.9079 0.7965
C40 C 0.1889(3) 0.7531(5) 0.8802(2)
H35 H 0.2152 0.7165 0.9022
C41 C 0.1900(3) 0.8701(5) 0.8764(2)
H36 H 0.2174 0.9101 0.8962
C42 C 0.0330(3) 0.0926(7) 0.9036(2)
H37 H 0.0161 0.1164 0.8738
C43 C -0.0032(3) 0.0547(7) 0.9373(2)
H38 H -0.0434 0.0524 0.9297
C44 C 0.0187(2) 0.0207(5) 0.98127(18)
C45 C 0.0788(3) 0.0217(7) 0.9893(2)
H39 H 0.0965 -0.0038 1.0185
C46 C 0.1123(3) 0.0606(7) 0.9539(2)
H40 H 0.1527 0.0616 0.9602
C47 C 0.2698(2) 0.1356(4) 0.87614(19)
C48 C 0.3336(3) 0.1359(7) 0.8891(3)
H41 H 0.3540 0.1385 0.8603
H42 H 0.3443 0.0677 0.9068
H43 H 0.3438 0.2016 0.9086
C49 C 0.0959(2) 0.1356(5) 0.7525(2)
C50 C 0.0593(4) 0.1356(9) 0.7061(3)
H44 H 0.0187 0.1316 0.7123
H45 H 0.0691 0.0707 0.6872
H46 H 0.0662 0.2045 0.6887
Cd3_2 Cd 0.2500 -0.85897(3) 0.7500
Cd4A Cd 0.350492(16) 0.12882(3) 0.650446(12)
Cd4_2 Cd 0.149508(16) 1.12882(3) 0.849554(12)
Cd4B Cd -0.149508(16) -0.12882(3) 1.150446(12)
Cd4_3 Cd 0.149508(16) -0.87118(3) 0.849554(12)
N7_2 N 0.2500 0.3385(4) 0.7500
N8_2 N 0.1470(2) -0.6734(4) 0.85456(17)
N8A N 0.3530(2) 0.3266(4) 0.64544(17)
N9_2 N 0.15434(17) -0.0708(3) 0.84611(14)
N9A N 0.34566(17) -0.0708(3) 0.65389(14)
N10B N -0.0901(2) -0.0971(4) 1.08887(16)
N10A N 0.4099(2) 0.0971(4) 0.58887(16)
O5A O 0.24968(17) 0.1373(3) 0.66755(12)
O6A O 0.26596(16) 0.1324(3) 0.59197(12)
O7A O 0.35123(18) 0.1401(3) 0.7480(2)
O8A O 0.42837(19) 0.1297(3) 0.70902(15)
C26A C 0.2861(3) -0.1143(4) 0.7797(2)
H25A H 0.3120 -0.0743 0.8009
C27A C 0.2876(2) -0.2316(4) 0.7811(2)
H26A H 0.3138 -0.2686 0.8030
C29A C 0.2114(3) -0.6021(5) 0.7244(3)
H27A H 0.1830 -0.6416 0.7054
C30A C 0.2095(3) -0.4837(4) 0.7234(3)
H28A H 0.1803 -0.4462 0.7045
C32_2 C 0.1084(4) -0.6141(5) 0.8315(5)
H29_2 H 0.0783 -0.6525 0.8139
C33_2 C 0.1078(4) -0.4965(5) 0.8306(4)
H30_2 H 0.0774 -0.4597 0.8128
C34_2 C 0.1479(2) -0.4347(4) 0.85371(17)
C35_2 C 0.1882(5) -0.4966(6) 0.8787(3)
H31_2 H 0.2186 -0.4598 0.8967
C36_2 C 0.1859(5) -0.6139(6) 0.8786(4)
H32_2 H 0.2147 -0.6529 0.8973
C37_2 C 0.1493(2) -0.3106(4) 0.85179(16)
C38_2 C 0.1130(3) -0.2489(5) 0.8197(2)
H33_2 H 0.0859 -0.2868 0.7989
C39_2 C 0.1166(3) -0.1311(4) 0.8182(2)
H34_2 H 0.0911 -0.0921 0.7965
C40_2 C 0.1889(3) -0.2469(5) 0.8802(2)
H35_2 H 0.2152 -0.2835 0.9022
C41_2 C 0.1900(3) -0.1299(5) 0.8764(2)
H36_2 H 0.2174 -0.0899 0.8962
C42B C -0.0330(3) -0.0926(7) 1.0964(2)
H37B H -0.0161 -0.1164 1.1262
C43B C 0.0032(3) -0.0547(7) 1.0627(2)
H38B H 0.0434 -0.0524 1.0703
C44B C -0.0187(2) -0.0207(5) 1.01873(18)
C45B C -0.0788(3) -0.0217(7) 1.0107(2)
H39B H -0.0965 0.0038 0.9815
C46B C -0.1123(3) -0.0606(7) 1.0461(2)
H40B H -0.1527 -0.0616 1.0398
C47A C 0.2302(2) 0.1356(4) 0.62386(19)
C48A C 0.1664(3) 0.1359(7) 0.6109(3)
H41A H 0.1460 0.1385 0.6397
H42A H 0.1557 0.0677 0.5932
H43A H 0.1562 0.2016 0.5914
C49A C 0.4041(2) 0.1356(5) 0.7475(2)
C50A C 0.4407(4) 0.1356(9) 0.7939(3)
H44A H 0.4813 0.1316 0.7877
H45A H 0.4309 0.0707 0.8128
H46A H 0.4338 0.2045 0.8113
S1 S 0.13435(7) 0.74922(16) 0.58925(6)
O9 O -0.0684(2) 0.6467(5) 0.45339(18)
H1 H -0.0963 0.6252 0.4678
O10 O 0.1536(3) 0.6466(5) 0.6140(2)
O11 O 0.1127(2) 0.8324(5) 0.6222(2)
O12 O 0.1781(2) 0.7937(6) 0.56115(19)
C51 C 0.0747(2) 0.7110(5) 0.5480(2)
C52 C 0.0246(3) 0.6690(6) 0.5651(2)
H47 H 0.0228 0.6572 0.5980
C53 C -0.0230(3) 0.6443(5) 0.5338(2)
H48 H -0.0567 0.6149 0.5457
C54 C -0.0212(3) 0.6629(6) 0.4855(2)
C55 C 0.0290(3) 0.7017(7) 0.4679(2)
H49 H 0.0307 0.7118 0.4349
C56 C 0.0780(3) 0.7264(6) 0.4994(2)
H50 H 0.1123 0.7528 0.4876
S2 S 0.34990(10) 0.6932(3) 0.43120(9)
O13 O 0.5666(2) 0.6720(6) 0.5571(2)
H2 H 0.5945 0.6519 0.5424
O14 O 0.3091(4) 0.6079(7) 0.4537(3)
O15 O 0.3294(4) 0.8056(7) 0.4344(4)
O16 O 0.3611(5) 0.6486(9) 0.3845(3)
C57 C 0.4157(3) 0.6825(6) 0.4677(3)
C58 C 0.4666(3) 0.6491(6) 0.4492(3)
H51 H 0.4669 0.6305 0.4167
C59 C 0.5171(3) 0.6431(6) 0.4786(3)
H52 H 0.5516 0.6189 0.4662
C60 C 0.5171(3) 0.6727(6) 0.5266(3)
C61 C 0.4658(4) 0.7053(8) 0.5454(3)
H53 H 0.4652 0.7233 0.5779
C62 C 0.4150(3) 0.7107(7) 0.5147(3)
H54 H 0.3802 0.7340 0.5267
O17 O 0.24946(17) 0.2208(4) 1.00152(12)
H56 H 0.247(3) 0.180(3) 0.9763(8)
H58 H 0.251(3) 0.177(3) 1.0259(9)
O18 O 0.2520(3) -0.0697(7) 0.50099(19)
H70 H 0.227(3) -0.105(8) 0.483(3)
O19 O 0.4016(3) 0.4450(6) 0.8593(2)
H71 H 0.419(4) 0.424(8) 0.8860(18)
O20 O 0.5480(3) 0.2195(7) 0.2041(2)
H66 H 0.517(2) 0.179(7) 0.198(3)
H68 H 0.572(3) 0.202(8) 0.184(3)
O21 O -0.1657(3) 0.6055(7) 0.4966(3)
H57 H -0.168(4) 0.611(10) 0.4661(6)
H61 H -0.195(3) 0.640(8) 0.507(3)
O22 O 0.5936(3) 0.5578(7) 0.6444(3)
H62 H 0.564(3) 0.586(9) 0.657(4)
O23 O 0.6621(3) 0.6162(8) 0.5166(5)
H59 H 0.681(3) 0.619(10) 0.4916(17)
H60 H 0.686(3) 0.612(10) 0.5413(17)
O24 O -0.0379(4) 0.4567(9) 0.2850(3)
H69 H -0.035(5) 0.489(9) 0.3125(19)
O25 O 0.0389(4) -0.4354(10) 0.2228(3)
H63 H 0.011(4) -0.391(9) 0.216(7)
H64 H 0.030(6) -0.501(5) 0.212(5)
O26 O 0.2723(5) 0.5930(8) 0.9888(5)
H65 H 0.240(3) 0.617(9) 0.997(4)
H67 H 0.282(4) 0.633(8) 0.965(3)
O27 O -0.0544(5) 0.1974(11) 0.7983(5)
H55 H -0.036(6) 0.260(7) 0.800(6)
O28? O 0.3395(9) 0.6050(13) 0.3964(6)
O29? O 0.3668(8) 0.7852(13) 0.3974(6)
O30? O 0.3121(7) 0.7685(15) 0.4556(6)
loop_
_geom_bond_atom_site_label_1
_geom_bond_atom_site_label_2
_geom_bond_site_symmetry_1
_geom_bond_site_symmetry_2
Cd1 N1 1_555 1_555
Cd2 N3 1_555 1_555
Cd3 N6 1_555 1_555
Cd4 N8 1_555 1_555
S1 O10 1_555 1_555
S2 O14 1_555 1_555
N1 C1 1_555 1_555
N2 C4 1_555 1_555
N3 C7 1_555 1_555
N4 C12 1_555 1_555
N5 Cd2 1_555 1_555
N6 C26 1_555 1_555
N7 C29 1_555 1_555
N8 C32 1_555 1_555
N9 C39 1_555 1_555
N10 Cd4 1_555 1_555
O1 Cd1 1_555 1_555
O2 Cd2 1_555 1_555
O3 Cd1 1_555 1_555
O4 C24 1_555 1_555
O5 Cd3 1_555 1_555
O6 Cd4 1_555 1_555
O7 Cd3 1_555 1_555
O8 Cd4 1_555 1_555
O9 H1 1_555 1_555
O11 S1 1_555 1_555
O12 S1 1_555 1_555
O13 H2 1_555 1_555
O15 S2 1_555 1_555
O16 S2 1_555 1_555
O17 H56 1_555 1_555
O18 H70 1_555 1_555
O19 H71 1_555 1_555
O20 H66 1_555 1_555
O21 H57 1_555 1_555
O22 H62 1_555 1_555
O23 H59 1_555 1_555
O24 H69 1_555 1_555
O25 H63 1_555 1_555
O26 H65 1_555 1_555
O27 H55 1_555 1_555
C1 H3 1_555 1_555
C2 C1 1_555 1_555
H4 C2 1_555 1_555
C3 C2 1_555 1_555
C4 H5 1_555 1_555
C5 C4 1_555 1_555
H6 C5 1_555 1_555
C6 C3 1_555 1_555
C7 H7 1_555 1_555
C8 C7 1_555 1_555
H8 C8 1_555 1_555
C9 C8 1_555 1_555
C10 C9 1_555 1_555
H9 C10 1_555 1_555
C11 N3 1_555 1_555
H10 C11 1_555 1_555
C12 H11 1_555 1_555
C13 C12 1_555 1_555
H12 C13 1_555 1_555
C14 C9 1_555 1_555
C15 C14 1_555 1_555
H13 C15 1_555 1_555
C16 N4 1_555 1_555
H14 C16 1_555 1_555
C17 N5 1_555 1_555
H15 C17 1_555 1_555
C18 C17 1_555 1_555
H16 C18 1_555 1_555
C19 C18 1_555 1_555
C20 C19 1_555 1_555
H17 C20 1_555 1_555
C21 N5 1_555 1_555
H18 C21 1_555 1_555
C22 O1 1_555 1_555
C23 C22 1_555 1_555
H19 C23 1_555 1_555
H20 C23 1_555 1_555
H21 C23 1_555 1_555
C24 O3 1_555 1_555
C25 C24 1_555 1_555
H22 C25 1_555 1_555
H23 C25 1_555 1_555
H24 C25 1_555 1_555
C26 H25 1_555 1_555
C27 C26 1_555 1_555
H26 C27 1_555 1_555
C28 C27 1_555 1_555
C29 H27 1_555 1_555
C30 C29 1_555 1_555
H28 C30 1_555 1_555
C31 C28 1_555 1_555
C32 H29 1_555 1_555
C33 C32 1_555 1_555
H30 C33 1_555 1_555
C34 C33 1_555 1_555
C35 C34 1_555 1_555
H31 C35 1_555 1_555
C36 N8 1_555 1_555
H32 C36 1_555 1_555
C37 C34 1_555 1_555
C38 C37 1_555 1_555
H33 C38 1_555 1_555
C39 C38 1_555 1_555
H34 C39 1_555 1_555
C40 C37 1_555 1_555
H35 C40 1_555 1_555
C41 N9 1_555 1_555
H36 C41 1_555 1_555
C42 N10 1_555 1_555
H37 C42 1_555 1_555
C43 C42 1_555 1_555
H38 C43 1_555 1_555
C44 C43 1_555 1_555
C45 C44 1_555 1_555
H39 C45 1_555 1_555
C46 N10 1_555 1_555
H40 C46 1_555 1_555
C47 O5 1_555 1_555
C48 C47 1_555 1_555
H41 C48 1_555 1_555
H42 C48 1_555 1_555
H43 C48 1_555 1_555
C49 O7 1_555 1_555
C50 C49 1_555 1_555
H44 C50 1_555 1_555
H45 C50 1_555 1_555
H46 C50 1_555 1_555
C51 S1 1_555 1_555
C52 C51 1_555 1_555
H47 C52 1_555 1_555
C53 C52 1_555 1_555
H48 C53 1_555 1_555
C54 O9 1_555 1_555
C55 C54 1_555 1_555
H49 C55 1_555 1_555
C56 C51 1_555 1_555
H50 C56 1_555 1_555
C57 S2 1_555 1_555
C58 C57 1_555 1_555
H51 C58 1_555 1_555
C59 C58 1_555 1_555
H52 C59 1_555 1_555
C60 O13 1_555 1_555
C61 C60 1_555 1_555
H53 C61 1_555 1_555
C62 C57 1_555 1_555
H54 C62 1_555 1_555
H58 O17 1_555 1_555
H60 O23 1_555 1_555
H61 O21 1_555 1_555
H64 O25 1_555 1_555
H67 O26 1_555 1_555
H68 O20 1_555 1_555
Cd1_2 N2 1_555 1_555
Cd2A O3 1_555 1_555
Cd2_2 N4 1_555 1_555
Cd2B N5B 1_555 1_555
Cd2_3 N3_2 1_555 1_555
Cd3_2 N7 1_555 1_555
Cd4A N8A 1_555 1_555
Cd4_2 N9 1_555 1_555
Cd4B N10B 1_555 1_555
Cd4_3 N8_2 1_555 1_555
N2_2 Cd1 1_555 1_555
N3_2 C7_2 1_555 1_555
N3A Cd2A 1_555 1_555
N4_2 Cd2 1_555 1_555
N4A Cd2A 1_555 1_555
N5B C17B 1_555 1_555
N5A Cd2A 1_555 1_555
N7_2 Cd3 1_555 1_555
N8_2 C32_2 1_555 1_555
N9_2 Cd4 1_555 1_555
N9A Cd4A 1_555 1_555
N10B C42B 1_555 1_555
N10A Cd4A 1_555 1_555
O1A Cd1 1_555 1_555
O2A Cd2A 1_555 1_555
O3A Cd1 1_555 1_555
O4A Cd2 1_555 1_555
O5A Cd3 1_555 1_555
O6A Cd4A 1_555 1_555
O7A Cd3 1_555 1_555
O8A Cd4A 1_555 1_555
C1A N1 1_555 1_555
H3A C1A 1_555 1_555
C2A C3 1_555 1_555
H4A C2A 1_555 1_555
C4A N2 1_555 1_555
H5A C4A 1_555 1_555
C5A C6 1_555 1_555
H6A C5A 1_555 1_555
C7_2 H7_2 1_555 1_555
C8_2 C7_2 1_555 1_555
H8_2 C8_2 1_555 1_555
C9_2 C8_2 1_555 1_555
C10_2 C9_2 1_555 1_555
H9_2 C10_2 1_555 1_555
C11_2 N3_2 1_555 1_555
H10_2 C11_2 1_555 1_555
C12_2 N4_2 1_555 1_555
H11_2 C12_2 1_555 1_555
C13_2 C12_2 1_555 1_555
H12_2 C13_2 1_555 1_555
C14_2 C9_2 1_555 1_555
C15_2 C14_2 1_555 1_555
H13_2 C15_2 1_555 1_555
C16_2 N4_2 1_555 1_555
H14_2 C16_2 1_555 1_555
C17B H15B 1_555 1_555
C18B C17B 1_555 1_555
H16B C18B 1_555 1_555
C19B C19 1_555 1_555
C20B C19B 1_555 1_555
H17B C20B 1_555 1_555
C21B N5B 1_555 1_555
H18B C21B 1_555 1_555
C22A O1A 1_555 1_555
C23A C22A 1_555 1_555
H19A C23A 1_555 1_555
H20A C23A 1_555 1_555
H21A C23A 1_555 1_555
C24A O3A 1_555 1_555
C25A C24A 1_555 1_555
H22A C25A 1_555 1_555
H23A C25A 1_555 1_555
H24A C25A 1_555 1_555
C26A N6 1_555 1_555
H25A C26A 1_555 1_555
C27A C28 1_555 1_555
H26A C27A 1_555 1_555
C29A N7 1_555 1_555
H27A C29A 1_555 1_555
C30A C31 1_555 1_555
H28A C30A 1_555 1_555
C32_2 H29_2 1_555 1_555
C33_2 C32_2 1_555 1_555
H30_2 C33_2 1_555 1_555
C34_2 C33_2 1_555 1_555
C35_2 C34_2 1_555 1_555
H31_2 C35_2 1_555 1_555
C36_2 N8_2 1_555 1_555
H32_2 C36_2 1_555 1_555
C37_2 C34_2 1_555 1_555
C38_2 C37_2 1_555 1_555
H33_2 C38_2 1_555 1_555
C39_2 N9_2 1_555 1_555
H34_2 C39_2 1_555 1_555
C40_2 C37_2 1_555 1_555
H35_2 C40_2 1_555 1_555
C41_2 N9_2 1_555 1_555
H36_2 C41_2 1_555 1_555
C42B H37B 1_555 1_555
C43B C42B 1_555 1_555
H38B C43B 1_555 1_555
C44B C44 1_555 1_555
C45B C44B 1_555 1_555
H39B C45B 1_555 1_555
C46B N10B 1_555 1_555
H40B C46B 1_555 1_555
C47A O5A 1_555 1_555
C48A C47A 1_555 1_555
H41A C48A 1_555 1_555
H42A C48A 1_555 1_555
H43A C48A 1_555 1_555
C49A O7A 1_555 1_555
C50A C49A 1_555 1_555
H44A C50A 1_555 1_555
H45A C50A 1_555 1_555
H46A C50A 1_555 1_555
Cd2 O1 1_555 1_555
Cd2 O3A 1_555 1_555
Cd4 O5 1_555 1_555
Cd4 O7 1_555 1_555
O2 C22 1_555 1_555
O4 Cd2A 1_555 1_555
O6 C47 1_555 1_555
O8 C49 1_555 1_555
C5 C6 1_555 1_555
C10 C11 1_555 1_555
C13 C14 1_555 1_555
C15 C16 1_555 1_555
C20 C21 1_555 1_555
C30 C31 1_555 1_555
C35 C36 1_555 1_555
C40 C41 1_555 1_555
C45 C46 1_555 1_555
C53 C54 1_555 1_555
C55 C56 1_555 1_555
C59 C60 1_555 1_555
C61 C62 1_555 1_555
Cd2A O1A 1_555 1_555
Cd4A O5A 1_555 1_555
Cd4A O7A 1_555 1_555
O2A C22A 1_555 1_555
O4A C24A 1_555 1_555
O6A C47A 1_555 1_555
O8A C49A 1_555 1_555
C1A C2A 1_555 1_555
C4A C5A 1_555 1_555
C10_2 C11_2 1_555 1_555
C13_2 C14_2 1_555 1_555
C15_2 C16_2 1_555 1_555
C18B C19B 1_555 1_555
C20B C21B 1_555 1_555
C26A C27A 1_555 1_555
C29A C30A 1_555 1_555
C35_2 C36_2 1_555 1_555
C38_2 C39_2 1_555 1_555
C40_2 C41_2 1_555 1_555
C43B C44B 1_555 1_555
C45B C46B 1_555 1_555

#END
