
#######################################################################
#
#                 Cambridge Crystallographic Data Centre
#                                CCDC 
#
#######################################################################
#
# If this CIF has been generated from an entry in the Cambridge 
# Structural Database, then it will include bibliographic, chemical, 
# crystal, experimental, refinement or atomic coordinate data resulting 
# from the CCDC's data processing and validation procedures.
#
#######################################################################

data_XUFGUB01
_symmetry_cell_setting           monoclinic
_symmetry_space_group_name_H-M   'C 2/c'
_symmetry_Int_Tables_number      15
_space_group_name_Hall           '-C 2yn'
loop_
_symmetry_equiv_pos_site_id
_symmetry_equiv_pos_as_xyz
1 x,y,z
2 -x,y,1/2-z
3 1/2+x,1/2+y,z
4 1/2-x,1/2+y,1/2-z
5 -x,-y,-z
6 x,-y,1/2+z
7 1/2-x,1/2-y,-z
8 1/2+x,1/2-y,1/2+z
_cell_length_a                   20.329(12)
_cell_length_b                   11.645(7)
_cell_length_c                   21.606(12)
_cell_angle_alpha                90
_cell_angle_beta                 91.508(11)
_cell_angle_gamma                90
_cell_volume                     5113.04
loop_
_atom_site_label
_atom_site_type_symbol
_atom_site_fract_x
_atom_site_fract_y
_atom_site_fract_z
Cd1 Cd 0.0000 0.97259(3) 0.2500
O1 O 0.33204(18) 1.3116(4) 0.13070(17)
N1 N 0.0000 0.7784(4) 0.2500
C1 C 0.2103(2) 1.2461(3) 0.11942(18)
O2 O 0.2537(2) 1.3879(3) 0.20199(18)
N2 N 0.0000 0.1692(4) 0.2500
C2 C 0.2033(2) 1.2923(4) 0.06020(19)
H1 H 0.2331 1.3468 0.0467
S1 S 0.27583(6) 1.28932(11) 0.16939(5)
O3 O 0.28991(16) 1.1935(3) 0.20990(15)
C3 C 0.1527(2) 1.2574(4) 0.0219(2)
H2 H 0.1489 1.2870 -0.0180
O4 O 0.05769(19) 1.1491(4) 0.00228(18)
C4 C 0.1071(2) 1.1788(4) 0.04189(19)
O5 O 0.01480(18) 1.0286(4) 0.09103(19)
C5 C 0.11356(19) 1.1307(4) 0.10139(19)
O6 O 0.07784(14) 0.9950(3) 0.17430(14)
C6 C 0.16609(19) 1.1660(4) 0.13941(19)
H3 H 0.1713 1.1348 0.1789
O7 O 0.0798(2) 0.9793(3) 0.3291(2)
C7 C 0.0655(2) 1.0456(4) 0.1235(2)
C8 C 0.0000 0.5374(4) 0.2500
C9 C 0.05795(19) 0.6002(3) 0.24643(18)
H4 H 0.0981 0.5625 0.2441
C10 C 0.05577(19) 0.7193(3) 0.24635(19)
H5 H 0.0951 0.7597 0.2436
C11 C 0.0552(2) 0.2306(3) 0.2615(2)
H6 H 0.0941 0.1911 0.2703
C12 C 0.0571(2) 0.3482(3) 0.2608(2)
H7 H 0.0969 0.3861 0.2677
C13 C 0.0000 0.4111(4) 0.2500
H8 H 0.102(3) 0.928(5) 0.335(2)
H9 H 0.051(4) 0.970(7) 0.361(4)
H10 H 0.034(3) 1.114(5) 0.020(3)
Cd1_2 Cd 0.0000 -0.02741(3) 0.2500
O1A O -0.33204(18) 1.3116(4) 0.36930(17)
C1A C -0.2103(2) 1.2461(3) 0.38058(18)
O2A O -0.2537(2) 1.3879(3) 0.29801(18)
N2_2 N 0.0000 1.1692(4) 0.2500
C2A C -0.2033(2) 1.2923(4) 0.43980(19)
H1A H -0.2331 1.3468 0.4533
S1A S -0.27583(6) 1.28932(11) 0.33061(5)
O3A O -0.28991(16) 1.1935(3) 0.29010(15)
C3A C -0.1527(2) 1.2574(4) 0.4781(2)
H2A H -0.1489 1.2870 0.5180
O4A O -0.05769(19) 1.1491(4) 0.49772(18)
C4A C -0.1071(2) 1.1788(4) 0.45811(19)
O5A O -0.01480(18) 1.0286(4) 0.40897(19)
C5A C -0.11356(19) 1.1307(4) 0.39861(19)
O6A O -0.07784(14) 0.9950(3) 0.32570(14)
C6A C -0.16609(19) 1.1660(4) 0.36059(19)
H3A H -0.1713 1.1348 0.3211
O7A O -0.0798(2) 0.9793(3) 0.1709(2)
C7A C -0.0655(2) 1.0456(4) 0.3765(2)
C9A C -0.05795(19) 0.6002(3) 0.25357(18)
H4A H -0.0981 0.5625 0.2559
C10A C -0.05577(19) 0.7193(3) 0.25365(19)
H5A H -0.0951 0.7597 0.2564
C11A C -0.0552(2) 0.2306(3) 0.2385(2)
H6A H -0.0941 0.1911 0.2297
C12A C -0.0571(2) 0.3482(3) 0.2392(2)
H7A H -0.0969 0.3861 0.2323
H8A H -0.102(3) 0.928(5) 0.165(2)
H9A H -0.051(4) 0.970(7) 0.139(4)
H10A H -0.034(3) 1.114(5) 0.480(3)
Cd2 Cd 0.272628(14) 1.25632(3) 0.405046(15)
N3 N 0.17276(17) 1.3522(3) 0.40548(17)
N4 N -0.12650(16) 1.6623(3) 0.40565(18)
O8 O 0.2329(2) 1.1434(4) 0.32096(19)
O9 O 0.30234(17) 1.3780(3) 0.32506(16)
O10 O 0.32640(18) 1.3963(4) 0.46077(16)
O11 O 0.2636(2) 1.3975(4) 0.5423(2)
C14 C 0.1164(2) 1.3028(5) 0.4214(2)
H11 H 0.1170 1.2250 0.4311
C15 C 0.0578(2) 1.3605(4) 0.4244(2)
H12 H 0.0200 1.3220 0.4362
C16 C 0.05489(19) 1.4767(4) 0.40956(18)
C17 C 0.1133(2) 1.5280(4) 0.3930(2)
H13 H 0.1140 1.6055 0.3827
C18 C 0.1709(2) 1.4638(4) 0.3919(2)
H14 H 0.2097 1.5001 0.3812
C19 C -0.00775(19) 1.5408(4) 0.40864(18)
C20 C -0.0683(2) 1.4861(4) 0.4020(2)
H15 H -0.0700 1.4066 0.3983
C21 C -0.1251(2) 1.5485(4) 0.4009(3)
H16 H -0.1649 1.5095 0.3965
C22 C -0.0686(2) 1.7166(4) 0.4122(2)
H17 H -0.0686 1.7961 0.4163
C23 C -0.0088(2) 1.6597(4) 0.4133(2)
H18 H 0.0303 1.7008 0.4171
C24 C 0.3054(3) 1.4325(5) 0.5088(2)
H19 H 0.3253 1.5003 0.5223
H20 H 0.343(3) 1.425(6) 0.325(3)
H21 H 0.251(4) 1.147(8) 0.290(4)
H22 H 0.228(4) 1.068(8) 0.322(4)
H23 H 0.295(3) 1.389(6) 0.290(3)
Cd2B Cd 0.772628(14) 0.75632(3) 0.405046(15)
Cd2B_2 Cd -0.227372(14) 1.75632(3) 0.405046(15)
Cd2F Cd 0.227372(14) 1.24368(3) 0.594954(15)
N3B N 0.67276(17) 0.8522(3) 0.40548(17)
N4B N 0.37350(16) 1.1623(3) 0.40565(18)
N4_2 N 0.87350(16) 0.6623(3) 0.40565(18)
O8B O 0.7329(2) 0.6434(4) 0.32096(19)
O9B O 0.80234(17) 0.8780(3) 0.32506(16)
O10F O 0.17360(18) 1.1037(4) 0.53923(16)
O10B O 0.82640(18) 0.8963(4) 0.46077(16)
O11F O 0.2364(2) 1.1025(4) 0.4577(2)
O11D O 0.7364(2) 0.6025(4) 0.4577(2)
C14B C 0.6164(2) 0.8028(5) 0.4214(2)
H11B H 0.6170 0.7250 0.4311
C15B C 0.5578(2) 0.8605(4) 0.4244(2)
H12B H 0.5200 0.8220 0.4362
C16B C 0.55489(19) 0.9767(4) 0.40956(18)
C17B C 0.6133(2) 1.0280(4) 0.3930(2)
H13B H 0.6140 1.1055 0.3827
C18B C 0.6709(2) 0.9638(4) 0.3919(2)
H14B H 0.7097 1.0001 0.3812
C19B C 0.49225(19) 1.0408(4) 0.40864(18)
C20B C 0.4317(2) 0.9861(4) 0.4020(2)
H15B H 0.4300 0.9066 0.3983
C21B C 0.3749(2) 1.0485(4) 0.4009(3)
H16B H 0.3351 1.0095 0.3965
C22B C 0.4314(2) 1.2166(4) 0.4122(2)
H17B H 0.4314 1.2961 0.4163
C23B C 0.4912(2) 1.1597(4) 0.4133(2)
H18B H 0.5303 1.2008 0.4171
C24F C 0.1946(3) 1.0675(5) 0.4912(2)
H19F H 0.1747 0.9997 0.4777
H20B H 0.843(3) 0.925(6) 0.325(3)
H21B H 0.751(4) 0.647(8) 0.290(4)
H22B H 0.728(4) 0.568(8) 0.322(4)
H23B H 0.795(3) 0.889(6) 0.290(3)
loop_
_geom_bond_atom_site_label_1
_geom_bond_atom_site_label_2
_geom_bond_site_symmetry_1
_geom_bond_site_symmetry_2
Cd1 N1 1_555 1_555
O1 S1 1_555 1_555
N1 C10 1_555 1_555
C1 C2 1_555 1_555
O2 S1 1_555 1_555
N2 C11 1_555 1_555
C2 H1 1_555 1_555
S1 C1 1_555 1_555
O3 S1 1_555 1_555
C3 C2 1_555 1_555
H2 C3 1_555 1_555
O4 C4 1_555 1_555
C4 C3 1_555 1_555
O5 C7 1_555 1_555
C5 C4 1_555 1_555
O6 Cd1 1_555 1_555
C6 C1 1_555 1_555
H3 C6 1_555 1_555
O7 Cd1 1_555 1_555
C7 C5 1_555 1_555
C8 C9 1_555 1_555
C9 H4 1_555 1_555
C10 C9 1_555 1_555
H5 C10 1_555 1_555
C11 H6 1_555 1_555
C12 C11 1_555 1_555
H7 C12 1_555 1_555
C13 C8 1_555 1_555
H8 O7 1_555 1_555
H9 O7 1_555 1_555
H10 O4 1_555 1_555
Cd2 N3 1_555 1_555
N3 C14 1_555 1_555
N4 C21 1_555 1_555
O8 Cd2 1_555 1_555
O9 Cd2 1_555 1_555
O10 Cd2 1_555 1_555
O11 C24 1_555 1_555
C14 H11 1_555 1_555
C15 C14 1_555 1_555
H12 C15 1_555 1_555
C16 C15 1_555 1_555
C17 C16 1_555 1_555
H13 C17 1_555 1_555
C18 N3 1_555 1_555
H14 C18 1_555 1_555
C19 C16 1_555 1_555
C20 C19 1_555 1_555
H15 C20 1_555 1_555
C21 C20 1_555 1_555
H16 C21 1_555 1_555
C22 N4 1_555 1_555
H17 C22 1_555 1_555
C23 C19 1_555 1_555
H18 C23 1_555 1_555
C24 O10 1_555 1_555
H19 C24 1_555 1_555
H20 O9 1_555 1_555
H21 O8 1_555 1_555
H22 O8 1_555 1_555
H23 O9 1_555 1_555
Cd1_2 N2 1_555 1_555
O1A S1A 1_555 1_555
C1A C2A 1_555 1_555
O2A S1A 1_555 1_555
N2_2 Cd1 1_555 1_555
C2A H1A 1_555 1_555
S1A C1A 1_555 1_555
O3A S1A 1_555 1_555
C3A C2A 1_555 1_555
H2A C3A 1_555 1_555
O4A C4A 1_555 1_555
C4A C3A 1_555 1_555
O5A C7A 1_555 1_555
C5A C4A 1_555 1_555
O6A Cd1 1_555 1_555
C6A C1A 1_555 1_555
H3A C6A 1_555 1_555
O7A Cd1 1_555 1_555
C7A C5A 1_555 1_555
C9A C8 1_555 1_555
H4A C9A 1_555 1_555
C10A N1 1_555 1_555
H5A C10A 1_555 1_555
C11A N2 1_555 1_555
H6A C11A 1_555 1_555
C12A C13 1_555 1_555
H7A C12A 1_555 1_555
H8A O7A 1_555 1_555
H9A O7A 1_555 1_555
H10A O4A 1_555 1_555
Cd2B N3B 1_555 1_555
Cd2B_2 N4 1_555 1_555
Cd2F O11 1_555 1_555
N3B C14B 1_555 1_555
N4B Cd2 1_555 1_555
N4_2 Cd2B 1_555 1_555
O8B Cd2B 1_555 1_555
O9B Cd2B 1_555 1_555
O10F Cd2F 1_555 1_555
O10B Cd2B 1_555 1_555
O11F Cd2 1_555 1_555
O11D Cd2B 1_555 1_555
C14B H11B 1_555 1_555
C15B C14B 1_555 1_555
H12B C15B 1_555 1_555
C16B C15B 1_555 1_555
C17B C16B 1_555 1_555
H13B C17B 1_555 1_555
C18B N3B 1_555 1_555
H14B C18B 1_555 1_555
C19B C16B 1_555 1_555
C20B C19B 1_555 1_555
H15B C20B 1_555 1_555
C21B N4B 1_555 1_555
H16B C21B 1_555 1_555
C22B N4B 1_555 1_555
H17B C22B 1_555 1_555
C23B C19B 1_555 1_555
H18B C23B 1_555 1_555
C24F O10F 1_555 1_555
H19F C24F 1_555 1_555
H20B O9B 1_555 1_555
H21B O8B 1_555 1_555
H22B O8B 1_555 1_555
H23B O9B 1_555 1_555
C5 C6 1_555 1_555
O6 C7 1_555 1_555
C12 C13 1_555 1_555
C17 C18 1_555 1_555
C22 C23 1_555 1_555
C5A C6A 1_555 1_555
O6A C7A 1_555 1_555
C9A C10A 1_555 1_555
C11A C12A 1_555 1_555
O11F C24F 1_555 1_555
C17B C18B 1_555 1_555
C20B C21B 1_555 1_555
C22B C23B 1_555 1_555

#END
