
#######################################################################
#
#                 Cambridge Crystallographic Data Centre
#                                CCDC 
#
#######################################################################
#
# If this CIF has been generated from an entry in the Cambridge 
# Structural Database, then it will include bibliographic, chemical, 
# crystal, experimental, refinement or atomic coordinate data resulting 
# from the CCDC's data processing and validation procedures.
#
#######################################################################

data_XUFGUB
_symmetry_cell_setting           monoclinic
_symmetry_space_group_name_H-M   'C 2/c'
_symmetry_Int_Tables_number      15
_space_group_name_Hall           '-C 2yn'
loop_
_symmetry_equiv_pos_site_id
_symmetry_equiv_pos_as_xyz
1 x,y,z
2 -x,y,1/2-z
3 1/2+x,1/2+y,z
4 1/2-x,1/2+y,1/2-z
5 -x,-y,-z
6 x,-y,1/2+z
7 1/2-x,1/2-y,-z
8 1/2+x,1/2-y,1/2+z
_cell_length_a                   20.3392(16)
_cell_length_b                   11.6485(9)
_cell_length_c                   21.6631(17)
_cell_angle_alpha                90
_cell_angle_beta                 91.6680(10)
_cell_angle_gamma                90
_cell_volume                     5130.27
loop_
_atom_site_label
_atom_site_type_symbol
_atom_site_fract_x
_atom_site_fract_y
_atom_site_fract_z
C1 C 0.49264(13) 0.5403(2) 0.90879(12)
H3 H 0.8367(11) 0.419(3) 0.8276(13)
H4 H 0.7885(14) 0.381(3) 0.7877(7)
H5 H 0.7336(17) 0.0714(10) 0.8260(14)
H6 H 0.7528(16) 0.156(2) 0.7871(10)
Cd2 Cd 0.773106(10) 0.255846(18) 0.904957(10)
O3 O 0.80266(11) 0.3773(2) 0.82474(9)
O5 O 0.82618(12) 0.3946(2) 0.96109(11)
N2 N 0.37392(11) 0.6620(2) 0.90578(12)
C5 C 0.55560(13) 0.4759(2) 0.90922(12)
N3 N 0.67325(12) 0.3516(2) 0.90566(12)
C8 C 0.67090(14) 0.4632(3) 0.89177(14)
H9 H 0.7096 0.4995 0.8809
O10 O 0.76288(13) 0.3976(3) 1.04184(14)
O11 O 0.73329(14) 0.1438(2) 0.82071(12)
C14 C 0.61405(13) 0.5275(2) 0.89272(13)
H13 H 0.6148 0.6049 0.8824
C15 C 0.43160(15) 0.7157(3) 0.91205(15)
H14 H 0.4316 0.7952 0.9157
C18 C 0.61711(15) 0.3020(3) 0.92151(16)
H17 H 0.6178 0.2242 0.9311
C19 C 0.80531(16) 0.4333(3) 1.00889(15)
H18 H 0.8252 0.5012 1.0222
C21 C 0.55812(14) 0.3597(3) 0.92439(15)
H20 H 0.5204 0.3215 0.9363
C22 C 0.43235(15) 0.4849(3) 0.90207(16)
H21 H 0.4307 0.4053 0.8986
C23 C 0.49141(14) 0.6591(3) 0.91343(14)
H22 H 0.5305 0.7003 0.9174
C24 C 0.37534(15) 0.5478(3) 0.90062(17)
H23 H 0.3356 0.5089 0.8958
C1F C 1.00736(13) -0.0403(2) 1.09121(12)
H3F H 0.6633(11) 0.081(3) 1.1724(13)
H4F H 0.7115(14) 0.119(3) 1.2123(7)
H5F H 0.7664(17) 0.4286(10) 1.1740(14)
H6F H 0.7472(16) 0.344(2) 1.2129(10)
Cd2F Cd 0.726894(10) 0.244154(18) 1.095043(10)
Cd2B Cd 0.273106(10) 0.755846(18) 0.904957(10)
Cd2D Cd 1.226894(10) -0.255846(18) 1.095043(10)
O3F O 0.69734(11) 0.1227(2) 1.17526(9)
O5F O 0.67382(12) 0.1054(2) 1.03891(11)
N2B N 0.87392(11) 0.1620(2) 0.90578(12)
N2D N 0.62608(11) 0.3380(2) 1.09422(12)
N2F N 1.12608(11) -0.1620(2) 1.09422(12)
C5F C 0.94440(13) 0.0241(2) 1.09078(12)
N3F N 0.82675(12) 0.1484(2) 1.09434(12)
C8F C 0.82910(14) 0.0368(3) 1.10823(14)
H9F H 0.7904 0.0005 1.1191
O10F O 0.73712(13) 0.1024(3) 0.95816(14)
O11F O 0.76671(14) 0.3562(2) 1.17929(12)
C14F C 0.88595(13) -0.0275(2) 1.10728(13)
H13F H 0.8852 -0.1049 1.1176
C15F C 1.06840(15) -0.2157(3) 1.08795(15)
H14F H 1.0684 -0.2952 1.0843
C18F C 0.88289(15) 0.1980(3) 1.07849(16)
H17F H 0.8822 0.2758 1.0689
C19F C 0.69469(16) 0.0667(3) 0.99111(15)
H18F H 0.6748 -0.0012 0.9778
C21F C 0.94188(14) 0.1403(3) 1.07561(15)
H20F H 0.9796 0.1785 1.0637
C22F C 1.06765(15) 0.0151(3) 1.09793(16)
H21F H 1.0693 0.0947 1.1014
C23F C 1.00859(14) -0.1591(3) 1.08657(14)
H22F H 0.9695 -0.2003 1.0826
C24F C 1.12466(15) -0.0478(3) 1.09938(17)
H23F H 1.1644 -0.0089 1.1042
C2 C 1.0000 0.0388(3) 0.7500
H1 H 0.9454(13) -0.524(3) 0.6410(11)
H2 H 0.8911(12) -0.573(2) 0.6655(14)
Cd1 Cd 1.0000 -0.52742(2) 0.7500
S1 S 0.72398(4) -0.21087(7) 0.83073(3)
O1 O 0.92210(9) -0.50530(17) 0.82577(10)
N1 N 1.0000 0.2781(2) 0.7500
O2 O 0.91987(11) -0.5210(2) 0.67103(12)
O4 O 0.70998(11) -0.3068(2) 0.79032(11)
O6 O 0.66778(12) -0.1885(3) 0.86966(12)
C3 C 0.93468(14) -0.4546(2) 0.87639(15)
O7 O 0.98564(12) -0.4712(2) 0.90901(13)
C4 C 0.94410(13) 0.2189(2) 0.75365(13)
H7 H 0.9048 0.2593 0.7565
O8 O 0.74589(14) -0.1119(2) 0.79786(12)
O9 O 0.94284(12) -0.3509(2) 0.99738(11)
H8 H 0.9668 -0.3976 0.9808
C6 C 0.78939(14) -0.2544(2) 0.88073(13)
C7 C 0.89335(14) -0.3213(2) 0.95791(13)
C9 C 1.0000 -0.0893(3) 0.7500
C10 C 0.94479(15) -0.2700(2) 0.73846(15)
H10 H 0.9061 -0.3100 0.7297
C11 C 0.94189(13) 0.1007(2) 0.75343(13)
H11 H 0.9018 0.0627 0.7556
C12 C 0.88658(13) -0.3687(2) 0.89873(13)
C13 C 0.83394(13) -0.3342(2) 0.86057(13)
H12 H 0.8288 -0.3653 0.8212
C16 C 0.79631(15) -0.2080(3) 0.93945(13)
H15 H 0.7664 -0.1537 0.9528
C17 C 0.84756(16) -0.2424(3) 0.97798(14)
H16 H 0.8515 -0.2126 1.0177
N4 N 1.0000 -0.3299(3) 0.7500
C20 C 0.94270(14) -0.1518(2) 0.73890(14)
H19 H 0.9030 -0.1139 0.7318
H1A H 1.0546(13) -0.524(3) 0.8590(11)
H2A H 1.1089(12) -0.573(2) 0.8345(14)
Cd1_2 Cd 1.0000 0.47258(2) 0.7500
S1A S 1.27602(4) -0.21087(7) 0.66927(3)
O1A O 1.07790(9) -0.50530(17) 0.67423(10)
N1_2 N 1.0000 -0.7219(2) 0.7500
O2A O 1.08013(11) -0.5210(2) 0.82897(12)
O4A O 1.29002(11) -0.3068(2) 0.70968(11)
O6A O 1.33222(12) -0.1885(3) 0.63034(12)
C3A C 1.06532(14) -0.4546(2) 0.62361(15)
O7A O 1.01436(12) -0.4712(2) 0.59099(13)
C4A C 1.05590(13) 0.2189(2) 0.74635(13)
H7A H 1.0952 0.2593 0.7435
O8A O 1.25411(14) -0.1119(2) 0.70214(12)
O9A O 1.05716(12) -0.3509(2) 0.50262(11)
H8A H 1.0332 -0.3976 0.5192
C6A C 1.21061(14) -0.2544(2) 0.61927(13)
C7A C 1.10665(14) -0.3213(2) 0.54209(13)
C10A C 1.05521(15) -0.2700(2) 0.76154(15)
H10A H 1.0939 -0.3100 0.7703
C11A C 1.05811(13) 0.1007(2) 0.74657(13)
H11A H 1.0982 0.0627 0.7444
C12A C 1.11342(13) -0.3687(2) 0.60127(13)
C13A C 1.16606(13) -0.3342(2) 0.63943(13)
H12A H 1.1712 -0.3653 0.6788
C16A C 1.20369(15) -0.2080(3) 0.56055(13)
H15A H 1.2336 -0.1537 0.5472
C17A C 1.15244(16) -0.2424(3) 0.52202(14)
H16A H 1.1485 -0.2126 0.4823
C20A C 1.05730(14) -0.1518(2) 0.76110(14)
H19A H 1.0970 -0.1139 0.7682
loop_
_geom_bond_atom_site_label_1
_geom_bond_atom_site_label_2
_geom_bond_site_symmetry_1
_geom_bond_site_symmetry_2
C1 C5 1_555 1_555
C2 C9 1_555 1_555
H1 O2 1_555 1_555
H2 O2 1_555 1_555
H3 O3 1_555 1_555
H4 O3 1_555 1_555
H5 O11 1_555 1_555
H6 O11 1_555 1_555
Cd1 O1 1_555 1_555
S1 O4 1_555 1_555
Cd2 O3 1_555 1_555
O1 C3 1_555 1_555
N1 C4 1_555 1_555
O2 Cd1 1_555 1_555
O5 Cd2 1_555 1_555
O6 S1 1_555 1_555
C3 O7 1_555 1_555
C4 H7 1_555 1_555
O8 S1 1_555 1_555
O9 H8 1_555 1_555
N2 C15 1_555 1_555
C5 C14 1_555 1_555
N3 Cd2 1_555 1_555
C6 S1 1_555 1_555
C7 O9 1_555 1_555
C8 N3 1_555 1_555
H9 C8 1_555 1_555
C9 C20 1_555 1_555
C10 H10 1_555 1_555
C11 C2 1_555 1_555
H11 C11 1_555 1_555
O10 C19 1_555 1_555
C12 C3 1_555 1_555
O11 Cd2 1_555 1_555
C13 C6 1_555 1_555
H12 C13 1_555 1_555
C14 C8 1_555 1_555
H13 C14 1_555 1_555
C15 H14 1_555 1_555
C16 C6 1_555 1_555
H15 C16 1_555 1_555
C17 C7 1_555 1_555
H16 C17 1_555 1_555
N4 Cd1 1_555 1_555
C18 N3 1_555 1_555
H17 C18 1_555 1_555
C19 O5 1_555 1_555
H18 C19 1_555 1_555
C20 C10 1_555 1_555
H19 C20 1_555 1_555
C21 C5 1_555 1_555
H20 C21 1_555 1_555
C22 C1 1_555 1_555
H21 C22 1_555 1_555
C23 C1 1_555 1_555
H22 C23 1_555 1_555
C24 N2 1_555 1_555
H23 C24 1_555 1_555
C1F C5F 1_555 1_555
H1A O2A 1_555 1_555
H2A O2A 1_555 1_555
H3F O3F 1_555 1_555
H4F O3F 1_555 1_555
H5F O11F 1_555 1_555
H6F O11F 1_555 1_555
Cd1_2 N1 1_555 1_555
S1A O4A 1_555 1_555
Cd2F O10 1_555 1_555
Cd2B N2 1_555 1_555
Cd2D N2F 1_555 1_555
O1A Cd1 1_555 1_555
N1_2 Cd1 1_555 1_555
O2A Cd1 1_555 1_555
O3F Cd2F 1_555 1_555
O5F Cd2F 1_555 1_555
O6A S1A 1_555 1_555
C3A O1A 1_555 1_555
O7A C3A 1_555 1_555
C4A N1 1_555 1_555
H7A C4A 1_555 1_555
O8A S1A 1_555 1_555
O9A H8A 1_555 1_555
N2B Cd2 1_555 1_555
N2D Cd2F 1_555 1_555
N2F C15F 1_555 1_555
C5F C14F 1_555 1_555
N3F Cd2F 1_555 1_555
C6A S1A 1_555 1_555
C7A O9A 1_555 1_555
C8F N3F 1_555 1_555
H9F C8F 1_555 1_555
C10A N4 1_555 1_555
H10A C10A 1_555 1_555
C11A C2 1_555 1_555
H11A C11A 1_555 1_555
O10F Cd2 1_555 1_555
C12A C3A 1_555 1_555
O11F Cd2F 1_555 1_555
C13A C6A 1_555 1_555
H12A C13A 1_555 1_555
C14F C8F 1_555 1_555
H13F C14F 1_555 1_555
C15F H14F 1_555 1_555
C16A C6A 1_555 1_555
H15A C16A 1_555 1_555
C17A C7A 1_555 1_555
H16A C17A 1_555 1_555
C18F N3F 1_555 1_555
H17F C18F 1_555 1_555
C19F O5F 1_555 1_555
H18F C19F 1_555 1_555
C20A C9 1_555 1_555
H19A C20A 1_555 1_555
C21F C5F 1_555 1_555
H20F C21F 1_555 1_555
C22F C1F 1_555 1_555
H21F C22F 1_555 1_555
C23F C1F 1_555 1_555
H22F C23F 1_555 1_555
C24F N2F 1_555 1_555
H23F C24F 1_555 1_555
C4 C11 1_555 1_555
C7 C12 1_555 1_555
C10 N4 1_555 1_555
C12 C13 1_555 1_555
C15 C23 1_555 1_555
C16 C17 1_555 1_555
C18 C21 1_555 1_555
C22 C24 1_555 1_555
C4A C11A 1_555 1_555
C7A C12A 1_555 1_555
C10A C20A 1_555 1_555
O10F C19F 1_555 1_555
C12A C13A 1_555 1_555
C15F C23F 1_555 1_555
C16A C17A 1_555 1_555
C18F C21F 1_555 1_555
C22F C24F 1_555 1_555

#END
