
#######################################################################
#
#                 Cambridge Crystallographic Data Centre
#                                CCDC 
#
#######################################################################
#
# If this CIF has been generated from an entry in the Cambridge 
# Structural Database, then it will include bibliographic, chemical, 
# crystal, experimental, refinement or atomic coordinate data resulting 
# from the CCDC's data processing and validation procedures.
#
#######################################################################

data_XUFGEL
_symmetry_cell_setting           monoclinic
_symmetry_space_group_name_H-M   'C 2/c'
_symmetry_Int_Tables_number      15
_space_group_name_Hall           '-C 2yn'
loop_
_symmetry_equiv_pos_site_id
_symmetry_equiv_pos_as_xyz
1 x,y,z
2 -x,y,1/2-z
3 1/2+x,1/2+y,z
4 1/2-x,1/2+y,1/2-z
5 -x,-y,-z
6 x,-y,1/2+z
7 1/2-x,1/2-y,-z
8 1/2+x,1/2-y,1/2+z
_cell_length_a                   20.2784(15)
_cell_length_b                   11.5613(8)
_cell_length_c                   21.6460(16)
_cell_angle_alpha                90
_cell_angle_beta                 90.9290(10)
_cell_angle_gamma                90
_cell_volume                     5074.12
loop_
_atom_site_label
_atom_site_type_symbol
_atom_site_fract_x
_atom_site_fract_y
_atom_site_fract_z
Mn1 Mn 0.5000 0.52920(4) 0.7500
S1 S 0.22600(4) 0.21059(6) 0.82906(3)
N1 N 0.5000 0.3341(2) 0.7500
N2 N 0.5000 -0.2789(2) 0.7500
O1 O 0.42512(8) 0.50834(15) 0.82314(9)
O2 O 0.48571(11) 0.4777(2) 0.90822(11)
O3 O 0.44169(11) 0.3563(2) 0.99631(10)
H1 H 0.4657 0.4036 0.9796
O4 O 0.20985(10) 0.30912(19) 0.79060(10)
O5 O 0.17018(12) 0.1825(3) 0.86832(11)
O6 O 0.24990(14) 0.1153(2) 0.79402(12)
O7 O 0.42364(10) 0.52764(18) 0.67642(10)
C1 C 0.43590(13) 0.4591(2) 0.87457(14)
C2 C 0.38709(12) 0.3730(2) 0.89721(12)
C3 C 0.39261(13) 0.3256(2) 0.95670(12)
C4 C 0.34674(14) 0.2457(3) 0.97673(13)
H2 H 0.3502 0.2159 1.0166
C5 C 0.29642(13) 0.2103(2) 0.93840(12)
H3 H 0.2662 0.1558 0.9520
C6 C 0.29040(12) 0.2560(2) 0.87918(11)
C7 C 0.33517(12) 0.3369(2) 0.85896(11)
H4 H 0.3306 0.3676 0.8194
C8 C 0.44504(13) 0.2738(2) 0.73789(14)
H5 H 0.4065 0.3144 0.7289
C9 C 0.44248(13) 0.1542(2) 0.73810(13)
H6 H 0.4028 0.1160 0.7304
C10 C 0.5000 0.0917(3) 0.7500
C11 C 0.5000 -0.0373(3) 0.7500
C12 C 0.44179(12) -0.09973(19) 0.75308(11)
H7 H 0.4016 -0.0614 0.7549
C13 C 0.44385(12) -0.2187(2) 0.75340(12)
H8 H 0.4044 -0.2592 0.7561
H19 H 0.3928(13) 0.574(3) 0.6678(16)
H23 H 0.4492(15) 0.524(3) 0.6458(12)
Mn1_2 Mn 0.5000 -0.47080(4) 0.7500
S1A S 0.77400(4) 0.21059(6) 0.67094(3)
N2_2 N 0.5000 0.7211(2) 0.7500
O1A O 0.57488(8) 0.50834(15) 0.67686(9)
O2A O 0.51429(11) 0.4777(2) 0.59178(11)
O3A O 0.55831(11) 0.3563(2) 0.50369(10)
H1A H 0.5343 0.4036 0.5204
O4A O 0.79015(10) 0.30912(19) 0.70940(10)
O5A O 0.82982(12) 0.1825(3) 0.63168(11)
O6A O 0.75010(14) 0.1153(2) 0.70598(12)
O7A O 0.57636(10) 0.52764(18) 0.82358(10)
C1A C 0.56410(13) 0.4591(2) 0.62543(14)
C2A C 0.61291(12) 0.3730(2) 0.60279(12)
C3A C 0.60739(13) 0.3256(2) 0.54330(12)
C4A C 0.65326(14) 0.2457(3) 0.52327(13)
H2A H 0.6498 0.2159 0.4834
C5A C 0.70358(13) 0.2103(2) 0.56160(12)
H3A H 0.7338 0.1558 0.5480
C6A C 0.70960(12) 0.2560(2) 0.62082(11)
C7A C 0.66483(12) 0.3369(2) 0.64104(11)
H4A H 0.6694 0.3676 0.6806
C8A C 0.55496(13) 0.2738(2) 0.76211(14)
H5A H 0.5935 0.3144 0.7711
C9A C 0.55752(13) 0.1542(2) 0.76190(13)
H6A H 0.5972 0.1160 0.7696
C12A C 0.55821(12) -0.09973(19) 0.74692(11)
H7A H 0.5984 -0.0614 0.7451
C13A C 0.55615(12) -0.2187(2) 0.74660(12)
H8A H 0.5956 -0.2592 0.7439
H19A H 0.6072(13) 0.574(3) 0.8322(16)
H23A H 0.5508(15) 0.524(3) 0.8542(12)
Mn2 Mn 0.725868(18) 0.74940(3) 0.598133(18)
N3 N 0.82448(10) 0.65286(19) 0.59554(11)
N4 N 1.12547(10) 0.33913(19) 0.59517(11)
O8 O 0.68170(10) 0.61869(19) 0.54109(9)
O9 O 0.73836(11) 0.60965(19) 0.45428(11)
O10 O 0.76105(13) 0.85822(18) 0.67747(10)
O11 O 0.69568(10) 0.63196(17) 0.67391(9)
C14 C 0.82662(13) 0.5396(2) 0.60865(13)
H9 H 0.7877 0.5029 0.6194
C15 C 0.88365(12) 0.4746(2) 0.60697(12)
H10 H 0.8826 0.3963 0.6167
C16 C 0.94257(12) 0.5268(2) 0.59066(11)
C17 C 0.94016(13) 0.6440(3) 0.57597(14)
H11 H 0.9781 0.6825 0.5639
C18 C 0.88112(14) 0.7024(3) 0.57956(15)
H12 H 0.8807 0.7810 0.5703
C19 C 1.00596(12) 0.4615(2) 0.59088(11)
C20 C 1.00751(13) 0.3419(2) 0.58590(13)
H13 H 0.9685 0.3002 0.5812
C21 C 1.06769(13) 0.2849(2) 0.58799(13)
H14 H 1.0678 0.2048 0.5842
C22 C 1.06608(13) 0.5177(2) 0.59853(14)
H15 H 1.0675 0.5978 0.6024
C23 C 1.12353(13) 0.4541(2) 0.60032(15)
H16 H 1.1632 0.4935 0.6054
C24 C 0.69935(14) 0.5736(2) 0.49267(13)
H17 H 0.6797(19) 0.503(2) 0.4817(18)
H18 H 0.7123(16) 0.627(3) 0.7102(8)
H20 H 0.768(2) 0.9301(11) 0.6729(16)
H21 H 0.6610(12) 0.591(3) 0.6725(16)
H22 H 0.744(2) 0.848(3) 0.7127(10)
Mn2B Mn 1.225868(18) 0.24940(3) 0.598133(18)
Mn2F Mn 0.774132(18) 0.75060(3) 0.401867(18)
Mn2D Mn 0.274132(18) 1.25060(3) 0.401867(18)
N3F N 0.67552(10) 0.84714(19) 0.40446(11)
N4B N 0.62547(10) 0.83913(19) 0.59517(11)
N4D N 0.87453(10) 0.66087(19) 0.40483(11)
N4F N 0.37453(10) 1.16087(19) 0.40483(11)
O8F O 0.81830(10) 0.88131(19) 0.45891(9)
O9F O 0.76164(11) 0.89035(19) 0.54572(11)
O10F O 0.73895(13) 0.64178(18) 0.32253(10)
O11F O 0.80432(10) 0.86804(17) 0.32609(9)
C14F C 0.67338(13) 0.9604(2) 0.39135(13)
H9F H 0.7123 0.9971 0.3806
C15F C 0.61635(12) 1.0254(2) 0.39303(12)
H10F H 0.6174 1.1037 0.3833
C16F C 0.55743(12) 0.9732(2) 0.40934(11)
C17F C 0.55984(13) 0.8560(3) 0.42403(14)
H11F H 0.5219 0.8175 0.4361
C18F C 0.61888(14) 0.7976(3) 0.42044(15)
H12F H 0.6193 0.7190 0.4297
C19F C 0.49404(12) 1.0385(2) 0.40912(11)
C20F C 0.49249(13) 1.1581(2) 0.41410(13)
H13F H 0.5315 1.1998 0.4188
C21F C 0.43231(13) 1.2151(2) 0.41201(13)
H14F H 0.4322 1.2952 0.4158
C22F C 0.43392(13) 0.9823(2) 0.40147(14)
H15F H 0.4325 0.9022 0.3976
C23F C 0.37647(13) 1.0459(2) 0.39968(15)
H16F H 0.3368 1.0065 0.3946
C24F C 0.80065(14) 0.9264(2) 0.50733(13)
H17F H 0.8203(19) 0.997(2) 0.5183(18)
H18F H 0.7877(16) 0.873(3) 0.2898(8)
H20F H 0.732(2) 0.5699(11) 0.3271(16)
H21F H 0.8390(12) 0.909(3) 0.3275(16)
H22F H 0.756(2) 0.652(3) 0.2873(10)
loop_
_geom_bond_atom_site_label_1
_geom_bond_atom_site_label_2
_geom_bond_site_symmetry_1
_geom_bond_site_symmetry_2
Mn1 N1 1_555 1_555
Mn2 N3 1_555 1_555
S1 O4 1_555 1_555
N1 C8 1_555 1_555
N2 C13 1_555 1_555
N3 C14 1_555 1_555
N4 C21 1_555 1_555
O1 Mn1 1_555 1_555
O2 C1 1_555 1_555
O3 H1 1_555 1_555
O5 S1 1_555 1_555
O6 S1 1_555 1_555
O7 Mn1 1_555 1_555
O8 Mn2 1_555 1_555
O9 C24 1_555 1_555
O10 Mn2 1_555 1_555
O11 Mn2 1_555 1_555
C1 O1 1_555 1_555
C2 C1 1_555 1_555
C3 O3 1_555 1_555
C4 C3 1_555 1_555
H2 C4 1_555 1_555
C5 C4 1_555 1_555
H3 C5 1_555 1_555
C6 S1 1_555 1_555
C7 C2 1_555 1_555
H4 C7 1_555 1_555
C8 H5 1_555 1_555
C9 C8 1_555 1_555
H6 C9 1_555 1_555
C10 C9 1_555 1_555
C11 C10 1_555 1_555
C12 C11 1_555 1_555
H7 C12 1_555 1_555
C13 C12 1_555 1_555
H8 C13 1_555 1_555
C14 H9 1_555 1_555
C15 C14 1_555 1_555
H10 C15 1_555 1_555
C16 C15 1_555 1_555
C17 C16 1_555 1_555
H11 C17 1_555 1_555
C18 N3 1_555 1_555
H12 C18 1_555 1_555
C19 C16 1_555 1_555
C20 C19 1_555 1_555
H13 C20 1_555 1_555
C21 C20 1_555 1_555
H14 C21 1_555 1_555
C22 C19 1_555 1_555
H15 C22 1_555 1_555
C23 N4 1_555 1_555
H16 C23 1_555 1_555
C24 O8 1_555 1_555
H17 C24 1_555 1_555
H18 O11 1_555 1_555
H19 O7 1_555 1_555
H20 O10 1_555 1_555
H21 O11 1_555 1_555
H22 O10 1_555 1_555
H23 O7 1_555 1_555
Mn1_2 N2 1_555 1_555
Mn2B N4 1_555 1_555
Mn2F O9 1_555 1_555
Mn2D N4F 1_555 1_555
S1A O4A 1_555 1_555
N2_2 Mn1 1_555 1_555
N3F Mn2F 1_555 1_555
N4B Mn2 1_555 1_555
N4D Mn2F 1_555 1_555
N4F C21F 1_555 1_555
O1A Mn1 1_555 1_555
O2A C1A 1_555 1_555
O3A H1A 1_555 1_555
O5A S1A 1_555 1_555
O6A S1A 1_555 1_555
O7A Mn1 1_555 1_555
O8F Mn2F 1_555 1_555
O9F Mn2 1_555 1_555
O10F Mn2F 1_555 1_555
O11F Mn2F 1_555 1_555
C1A O1A 1_555 1_555
C2A C1A 1_555 1_555
C3A O3A 1_555 1_555
C4A C3A 1_555 1_555
H2A C4A 1_555 1_555
C5A C4A 1_555 1_555
H3A C5A 1_555 1_555
C6A S1A 1_555 1_555
C7A C2A 1_555 1_555
H4A C7A 1_555 1_555
C8A N1 1_555 1_555
H5A C8A 1_555 1_555
C9A C10 1_555 1_555
H6A C9A 1_555 1_555
C12A C11 1_555 1_555
H7A C12A 1_555 1_555
C13A N2 1_555 1_555
H8A C13A 1_555 1_555
C14F N3F 1_555 1_555
H9F C14F 1_555 1_555
C15F C14F 1_555 1_555
H10F C15F 1_555 1_555
C16F C15F 1_555 1_555
C17F C16F 1_555 1_555
H11F C17F 1_555 1_555
C18F N3F 1_555 1_555
H12F C18F 1_555 1_555
C19F C16F 1_555 1_555
C20F C19F 1_555 1_555
H13F C20F 1_555 1_555
C21F C20F 1_555 1_555
H14F C21F 1_555 1_555
C22F C19F 1_555 1_555
H15F C22F 1_555 1_555
C23F N4F 1_555 1_555
H16F C23F 1_555 1_555
C24F O8F 1_555 1_555
H17F C24F 1_555 1_555
H18F O11F 1_555 1_555
H19A O7A 1_555 1_555
H20F O10F 1_555 1_555
H21F O11F 1_555 1_555
H22F O10F 1_555 1_555
H23A O7A 1_555 1_555
C2 C3 1_555 1_555
C5 C6 1_555 1_555
C6 C7 1_555 1_555
C17 C18 1_555 1_555
C22 C23 1_555 1_555
O9F C24F 1_555 1_555
C2A C3A 1_555 1_555
C5A C6A 1_555 1_555
C6A C7A 1_555 1_555
C8A C9A 1_555 1_555
C12A C13A 1_555 1_555
C17F C18F 1_555 1_555
C22F C23F 1_555 1_555

#END
