
#######################################################################
#
#                 Cambridge Crystallographic Data Centre
#                                CCDC 
#
#######################################################################
#
# If this CIF has been generated from an entry in the Cambridge 
# Structural Database, then it will include bibliographic, chemical, 
# crystal, experimental, refinement or atomic coordinate data resulting 
# from the CCDC's data processing and validation procedures.
#
#######################################################################

data_XUFLIV
_symmetry_cell_setting           triclinic
_symmetry_space_group_name_H-M   'P -1'
_symmetry_Int_Tables_number      2
_space_group_name_Hall           '-P 1'
loop_
_symmetry_equiv_pos_site_id
_symmetry_equiv_pos_as_xyz
1 x,y,z
2 -x,-y,-z
_cell_length_a                   11.418(2)
_cell_length_b                   16.938(3)
_cell_length_c                   20.679(4)
_cell_angle_alpha                97.553(3)
_cell_angle_beta                 94.078(3)
_cell_angle_gamma                106.831(3)
_cell_volume                     3769.55
loop_
_atom_site_label
_atom_site_type_symbol
_atom_site_fract_x
_atom_site_fract_y
_atom_site_fract_z
Mn1 Mn 1.29422(11) 0.57124(7) 0.24771(5)
Mn2 Mn 1.14959(15) 0.32974(6) 0.05411(5)
Mn3 Mn 1.0000 0.0000 0.0000
Mn4 Mn 1.06012(11) -0.02140(7) 0.25024(5)
Mn5 Mn 1.0000 0.0000 0.5000
Mn6 Mn 0.60724(10) -0.25957(6) 0.44623(5)
N1 N 1.1579(10) 0.4102(6) 0.3028(4)
N2 N 1.5335(9) 0.5161(7) 0.2358(4)
N3 N 1.4288(6) 0.6620(4) 0.3871(3)
N4 N 1.4101(9) 0.7306(5) 0.1839(4)
N5 N 1.0703(11) 0.6376(8) 0.2672(5)
N6 N 1.1900(8) 0.4606(4) 0.1106(4)
N7 N 1.3008(12) 0.3036(6) 0.1154(5)
N8 N 1.3111(15) 0.3686(7) 0.0039(6)
N9 N 1.1119(17) 0.3822(5) -0.0418(5)
N10 N 0.9415(11) 0.3176(7) 0.0314(6)
H1 H 0.9097 0.2669 0.0055
N11 N 1.0699(10) 0.2942(5) 0.1485(4)
H2 H 1.0821 0.3425 0.1768
N12 N 1.1025(8) 0.1932(4) 0.0063(3)
N13 N 0.7601(9) 0.0270(6) 0.0447(4)
N14 N 1.0982(6) 0.0168(4) 0.1489(3)
N15 N 0.8954(9) -0.1236(5) 0.1918(3)
N16 N 0.8964(7) 0.0211(4) 0.2467(3)
N17 N 1.1067(9) 0.1131(5) 0.3054(3)
N18 N 1.2610(9) 0.0193(7) 0.2853(5)
H3 H 1.2953 0.0501 0.2547
N19 N 1.1204(11) -0.1403(6) 0.2239(4)
H4 H 1.0972 -0.1684 0.2577
N20 N 1.0222(6) -0.0565(4) 0.3515(3)
N21 N 0.7891(9) 0.0669(6) 0.4499(5)
N22 N 0.7874(6) -0.1679(4) 0.4965(3)
N23 N 0.6897(7) -0.3699(5) 0.4485(4)
N24 N 0.5597(6) -0.3232(4) 0.5346(3)
N25 N 0.4961(6) -0.1955(4) 0.5093(3)
N26 N 0.5906(8) -0.1476(5) 0.3985(4)
H5 H 0.6584 -0.1060 0.4185
N27 N 0.6915(10) -0.2732(6) 0.3500(5)
H6 H 0.6280 -0.3126 0.3242
C1 C 1.2076(9) 0.4703(6) 0.2843(4)
C2 C 1.4470(10) 0.5343(6) 0.2402(4)
C3 C 1.3730(8) 0.6287(5) 0.3374(4)
C4 C 1.3694(9) 0.6717(5) 0.2074(4)
C5 C 1.1502(11) 0.6106(6) 0.2586(5)
C6 C 1.2280(9) 0.5063(5) 0.1595(4)
C7 C 1.5138(19) 0.3192(12) 0.1337(10)
H7 H 1.5426 0.3629 0.1710
H8 H 1.5784 0.3215 0.1060
H9 H 1.4904 0.2660 0.1484
C8 C 1.4050(19) 0.3307(8) 0.0959(8)
C9 C 1.417(2) 0.3568(9) 0.0300(9)
C10 C 1.5150(18) 0.3773(10) -0.0063(10)
H10 H 1.5895 0.3711 0.0096
C11 C 1.507(2) 0.4068(10) -0.0658(10)
H11 H 1.5759 0.4183 -0.0888
C12 C 1.400(2) 0.4195(10) -0.0913(9)
H12 H 1.3937 0.4412 -0.1299
C13 C 1.306(2) 0.3970(7) -0.0544(8)
C14 C 1.190(3) 0.4075(9) -0.0786(9)
C15 C 1.1756(17) 0.4457(7) -0.1399(5)
H13 H 1.1000 0.4134 -0.1662
H14 H 1.2436 0.4459 -0.1647
H15 H 1.1740 0.5020 -0.1276
C16 C 0.987(2) 0.3865(9) -0.0579(8)
H16 H 0.9483 0.3443 -0.0958
H17 H 0.9937 0.4404 -0.0711
C17 C 0.9001(17) 0.3752(8) -0.0059(8)
H18 H 0.9085 0.4279 0.0217
H19 H 0.8151 0.3507 -0.0252
C18 C 0.8840(13) 0.3060(8) 0.0928(8)
H20 H 0.7962 0.2790 0.0818
H21 H 0.8952 0.3604 0.1185
C19 C 0.9363(15) 0.2550(8) 0.1336(6)
H22 H 0.8985 0.2516 0.1741
H23 H 0.9192 0.1987 0.1100
C20 C 1.1398(13) 0.2447(6) 0.1792(5)
H24 H 1.1170 0.1887 0.1543
H25 H 1.1191 0.2404 0.2235
C21 C 1.2743(14) 0.2850(7) 0.1809(6)
H26 H 1.3004 0.3361 0.2125
H27 H 1.3190 0.2478 0.1940
C22 C 1.0667(8) 0.1230(4) 0.0030(3)
C23 C 0.8455(9) 0.0164(5) 0.0284(4)
C24 C 1.0649(7) 0.0116(4) 0.0951(3)
C25 C 1.0383(12) 0.2232(6) 0.3647(5)
H28 H 1.0070 0.2093 0.4050
H29 H 0.9949 0.2573 0.3462
H30 H 1.1245 0.2534 0.3734
C26 C 1.0200(12) 0.1433(6) 0.3164(4)
C27 C 0.9008(11) 0.0971(6) 0.2785(4)
C28 C 0.7989(13) 0.1250(8) 0.2751(5)
H31 H 0.8010 0.1763 0.2983
C29 C 0.6943(13) 0.0751(10) 0.2365(7)
H32 H 0.6256 0.0940 0.2333
C30 C 0.6871(12) -0.0014(9) 0.2024(6)
H33 H 0.6155 -0.0340 0.1762
C31 C 0.7912(10) -0.0292(7) 0.2083(4)
C32 C 0.7997(12) -0.1102(7) 0.1763(5)
C33 C 0.6907(10) -0.1633(8) 0.1276(5)
H34 H 0.6960 -0.1430 0.0864
H35 H 0.6155 -0.1603 0.1443
H36 H 0.6916 -0.2203 0.1214
C34 C 0.9114(13) -0.2030(6) 0.1663(5)
H37 H 0.8720 -0.2448 0.1922
H38 H 0.8726 -0.2209 0.1213
C35 C 1.0409(16) -0.1959(8) 0.1682(7)
H39 H 1.0698 -0.1768 0.1283
H40 H 1.0498 -0.2512 0.1680
C36 C 1.2518(17) -0.1215(10) 0.2331(9)
H41 H 1.2827 -0.1146 0.1911
H42 H 1.2715 -0.1691 0.2471
C37 C 1.3171(13) -0.0472(11) 0.2806(6)
H43 H 1.3238 -0.0636 0.3236
H44 H 1.4000 -0.0255 0.2691
C38 C 1.2874(13) 0.0786(10) 0.3433(7)
H45 H 1.3759 0.0995 0.3553
H46 H 1.2508 0.0517 0.3787
C39 C 1.2377(11) 0.1518(7) 0.3343(5)
H47 H 1.2428 0.1867 0.3762
H48 H 1.2842 0.1858 0.3050
C40 C 1.0145(7) -0.0378(4) 0.4063(3)
C41 C 0.8691(9) 0.0452(5) 0.4699(4)
C42 C 0.8687(7) -0.1069(5) 0.4992(3)
C43 C 0.3652(10) -0.1924(8) 0.6002(6)
H49 H 0.4057 -0.1724 0.6441
H50 H 0.2906 -0.2367 0.6009
H51 H 0.3458 -0.1475 0.5824
C44 C 0.4494(8) -0.2249(6) 0.5580(4)
C45 C 0.4883(8) -0.2966(5) 0.5752(4)
C46 C 0.4571(9) -0.3324(7) 0.6303(5)
H52 H 0.4083 -0.3127 0.6586
C47 C 0.4995(11) -0.3976(7) 0.6425(6)
H53 H 0.4792 -0.4228 0.6792
C48 C 0.5728(11) -0.4261(6) 0.5999(6)
H54 H 0.6007 -0.4708 0.6075
C49 C 0.6033(8) -0.3869(6) 0.5464(4)
C50 C 0.6792(9) -0.4087(6) 0.4968(6)
C51 C 0.7395(11) -0.4765(7) 0.5030(7)
H55 H 0.7806 -0.4847 0.4649
H56 H 0.6777 -0.5276 0.5064
H57 H 0.7983 -0.4601 0.5415
C52 C 0.7593(11) -0.3853(8) 0.3934(6)
H58 H 0.7138 -0.4375 0.3656
H59 H 0.8379 -0.3903 0.4103
C53 C 0.7808(12) -0.3167(9) 0.3540(6)
H60 H 0.8593 -0.2760 0.3716
H61 H 0.7890 -0.3396 0.3096
C54 C 0.7033(11) -0.2030(8) 0.3164(5)
H62 H 0.6920 -0.2227 0.2695
H63 H 0.7864 -0.1653 0.3275
C55 C 0.6145(12) -0.1551(7) 0.3316(5)
H64 H 0.6470 -0.0995 0.3206
H65 H 0.5374 -0.1825 0.3039
C56 C 0.4922(12) -0.1167(7) 0.4185(5)
H66 H 0.4165 -0.1490 0.3913
H67 H 0.5097 -0.0591 0.4115
C57 C 0.4743(10) -0.1208(6) 0.4880(5)
H68 H 0.5301 -0.0713 0.5152
H69 H 0.3908 -0.1213 0.4944
Mn1A Mn 0.70578(11) -0.57124(7) -0.24771(5)
Mn2A Mn 0.85041(15) -0.32974(6) -0.05411(5)
Mn4A Mn 0.93988(11) 0.02140(7) -0.25024(5)
N1A N 0.8421(10) -0.4102(6) -0.3028(4)
N2A N 0.4665(9) -0.5161(7) -0.2358(4)
N3A N 0.5712(6) -0.6620(4) -0.3871(3)
N4A N 0.5899(9) -0.7306(5) -0.1839(4)
N5A N 0.9297(11) -0.6376(8) -0.2672(5)
N6A N 0.8100(8) -0.4606(4) -0.1106(4)
N7A N 0.6992(12) -0.3036(6) -0.1154(5)
N8A N 0.6889(15) -0.3686(7) -0.0039(6)
N9A N 0.8881(17) -0.3822(5) 0.0418(5)
N10A N 1.0585(11) -0.3176(7) -0.0314(6)
H1A H 1.0903 -0.2669 -0.0055
N11A N 0.9301(10) -0.2942(5) -0.1485(4)
H2A H 0.9179 -0.3425 -0.1768
N12A N 0.8975(8) -0.1932(4) -0.0063(3)
N13A N 1.2399(9) -0.0270(6) -0.0447(4)
N14A N 0.9018(6) -0.0168(4) -0.1489(3)
N15A N 1.1046(9) 0.1236(5) -0.1918(3)
N16A N 1.1036(7) -0.0211(4) -0.2467(3)
N17A N 0.8933(9) -0.1131(5) -0.3054(3)
N18A N 0.7390(9) -0.0193(7) -0.2853(5)
H3A H 0.7047 -0.0501 -0.2547
N19A N 0.8796(11) 0.1403(6) -0.2239(4)
H4A H 0.9028 0.1684 -0.2577
N20A N 0.9778(6) 0.0565(4) -0.3515(3)
C1A C 0.7924(9) -0.4703(6) -0.2843(4)
C2A C 0.5530(10) -0.5343(6) -0.2402(4)
C3A C 0.6270(8) -0.6287(5) -0.3374(4)
C4A C 0.6306(9) -0.6717(5) -0.2074(4)
C5A C 0.8498(11) -0.6106(6) -0.2586(5)
C6A C 0.7720(9) -0.5063(5) -0.1595(4)
C7A C 0.4862(19) -0.3192(12) -0.1337(10)
H7A H 0.4574 -0.3629 -0.1710
H8A H 0.4216 -0.3215 -0.1060
H9A H 0.5096 -0.2660 -0.1484
C8A C 0.5950(19) -0.3307(8) -0.0959(8)
C9A C 0.583(2) -0.3568(9) -0.0300(9)
C10A C 0.4850(18) -0.3773(10) 0.0063(10)
H10A H 0.4105 -0.3711 -0.0096
C11A C 0.493(2) -0.4068(10) 0.0658(10)
H11A H 0.4241 -0.4183 0.0888
C12A C 0.600(2) -0.4195(10) 0.0913(9)
H12A H 0.6063 -0.4412 0.1299
C13A C 0.694(2) -0.3970(7) 0.0544(8)
C14A C 0.810(3) -0.4075(9) 0.0786(9)
C15A C 0.8244(17) -0.4457(7) 0.1399(5)
H13A H 0.9000 -0.4134 0.1662
H14A H 0.7564 -0.4459 0.1647
H15A H 0.8260 -0.5020 0.1276
C16A C 1.013(2) -0.3865(9) 0.0579(8)
H16A H 1.0517 -0.3443 0.0958
H17A H 1.0063 -0.4404 0.0711
C17A C 1.0999(17) -0.3752(8) 0.0059(8)
H18A H 1.0915 -0.4279 -0.0217
H19A H 1.1849 -0.3507 0.0252
C18A C 1.1160(13) -0.3060(8) -0.0928(8)
H20A H 1.2038 -0.2790 -0.0818
H21A H 1.1048 -0.3604 -0.1185
C19A C 1.0637(15) -0.2550(8) -0.1336(6)
H22A H 1.1015 -0.2516 -0.1741
H23A H 1.0808 -0.1987 -0.1100
C20A C 0.8602(13) -0.2447(6) -0.1792(5)
H24A H 0.8830 -0.1887 -0.1543
H25A H 0.8809 -0.2404 -0.2235
C21A C 0.7257(14) -0.2850(7) -0.1809(6)
H26A H 0.6996 -0.3361 -0.2125
H27A H 0.6810 -0.2478 -0.1940
C22A C 0.9333(8) -0.1230(4) -0.0030(3)
C23A C 1.1545(9) -0.0164(5) -0.0284(4)
C24A C 0.9351(7) -0.0116(4) -0.0951(3)
C25A C 0.9617(12) -0.2232(6) -0.3647(5)
H28A H 0.9930 -0.2093 -0.4050
H29A H 1.0051 -0.2573 -0.3462
H30A H 0.8755 -0.2534 -0.3734
C26A C 0.9800(12) -0.1433(6) -0.3164(4)
C27A C 1.0992(11) -0.0971(6) -0.2785(4)
C28A C 1.2011(13) -0.1250(8) -0.2751(5)
H31A H 1.1990 -0.1763 -0.2983
C29A C 1.3057(13) -0.0751(10) -0.2365(7)
H32A H 1.3744 -0.0940 -0.2333
C30A C 1.3129(12) 0.0014(9) -0.2024(6)
H33A H 1.3845 0.0340 -0.1762
C31A C 1.2088(10) 0.0292(7) -0.2083(4)
C32A C 1.2003(12) 0.1102(7) -0.1763(5)
C33A C 1.3093(10) 0.1633(8) -0.1276(5)
H34A H 1.3040 0.1430 -0.0864
H35A H 1.3845 0.1603 -0.1443
H36A H 1.3084 0.2203 -0.1214
C34A C 1.0886(13) 0.2030(6) -0.1663(5)
H37A H 1.1280 0.2448 -0.1922
H38A H 1.1274 0.2209 -0.1213
C35A C 0.9591(16) 0.1959(8) -0.1682(7)
H39A H 0.9302 0.1768 -0.1283
H40A H 0.9502 0.2512 -0.1680
C36A C 0.7482(17) 0.1215(10) -0.2331(9)
H41A H 0.7173 0.1146 -0.1911
H42A H 0.7285 0.1691 -0.2471
C37A C 0.6829(13) 0.0472(11) -0.2806(6)
H43A H 0.6762 0.0636 -0.3236
H44A H 0.6000 0.0255 -0.2691
C38A C 0.7126(13) -0.0786(10) -0.3433(7)
H45A H 0.6241 -0.0995 -0.3553
H46A H 0.7492 -0.0517 -0.3787
C39A C 0.7623(11) -0.1518(7) -0.3343(5)
H47A H 0.7572 -0.1867 -0.3762
H48A H 0.7158 -0.1858 -0.3050
C40A C 0.9855(7) 0.0378(4) -0.4063(3)
Mn6A Mn 1.39276(10) 0.25957(6) 0.55377(5)
N22A N 1.2126(6) 0.1679(4) 0.5035(3)
N23A N 1.3103(7) 0.3699(5) 0.5515(4)
N24A N 1.4403(6) 0.3232(4) 0.4654(3)
N25A N 1.5039(6) 0.1955(4) 0.4907(3)
N26A N 1.4094(8) 0.1476(5) 0.6015(4)
H5A H 1.3416 0.1060 0.5815
N27A N 1.3085(10) 0.2732(6) 0.6500(5)
H6A H 1.3720 0.3126 0.6758
C42A C 1.1313(7) 0.1069(5) 0.5008(3)
C43A C 1.6348(10) 0.1924(8) 0.3998(6)
H49A H 1.5943 0.1724 0.3559
H50A H 1.7094 0.2367 0.3991
H51A H 1.6542 0.1475 0.4176
C44A C 1.5506(8) 0.2249(6) 0.4420(4)
C45A C 1.5117(8) 0.2966(5) 0.4248(4)
C46A C 1.5429(9) 0.3324(7) 0.3697(5)
H52A H 1.5917 0.3127 0.3414
C47A C 1.5005(11) 0.3976(7) 0.3575(6)
H53A H 1.5208 0.4228 0.3208
C48A C 1.4272(11) 0.4261(6) 0.4001(6)
H54A H 1.3993 0.4708 0.3925
C49A C 1.3967(8) 0.3869(6) 0.4536(4)
C50A C 1.3208(9) 0.4087(6) 0.5032(6)
C51A C 1.2605(11) 0.4765(7) 0.4970(7)
H55A H 1.2194 0.4847 0.5351
H56A H 1.3223 0.5276 0.4936
H57A H 1.2017 0.4601 0.4585
C52A C 1.2407(11) 0.3853(8) 0.6066(6)
H58A H 1.2862 0.4375 0.6344
H59A H 1.1621 0.3903 0.5897
C53A C 1.2192(12) 0.3167(9) 0.6460(6)
H60A H 1.1407 0.2760 0.6284
H61A H 1.2110 0.3396 0.6904
C54A C 1.2967(11) 0.2030(8) 0.6836(5)
H62A H 1.3080 0.2227 0.7305
H63A H 1.2136 0.1653 0.6725
C55A C 1.3855(12) 0.1551(7) 0.6684(5)
H64A H 1.3530 0.0995 0.6794
H65A H 1.4626 0.1825 0.6961
C56A C 1.5078(12) 0.1167(7) 0.5815(5)
H66A H 1.5835 0.1490 0.6087
H67A H 1.4903 0.0591 0.5885
C57A C 1.5257(10) 0.1208(6) 0.5120(5)
H68A H 1.4699 0.0713 0.4848
H69A H 1.6092 0.1213 0.5056
N21A N 1.2109(9) -0.0669(6) 0.5501(5)
C41A C 1.1309(9) -0.0452(5) 0.5301(4)
Mn5_2 Mn 1.0000 0.0000 -0.5000
Mn6_2 Mn 1.60724(10) 0.74043(6) 0.44623(5)
Mn6A_2 Mn 0.39276(10) -0.74043(6) -0.44623(5)
N3_2 N 0.4288(6) -0.3380(4) 0.3871(3)
N3A_2 N 1.5712(6) 0.3380(4) 0.6129(3)
C40A_2 C 0.9855(7) 0.0378(4) 0.5937(3)
loop_
_geom_bond_atom_site_label_1
_geom_bond_atom_site_label_2
_geom_bond_site_symmetry_1
_geom_bond_site_symmetry_2
Mn1 C1 1_555 1_555
Mn2 N6 1_555 1_555
Mn3 C22 1_555 1_555
Mn4 N14 1_555 1_555
Mn5 C40 1_555 1_555
Mn6 N22 1_555 1_555
N1 C1 1_555 1_555
N2 C2 1_555 1_555
N3 C3 1_555 1_555
N4 C4 1_555 1_555
N5 C5 1_555 1_555
N6 C6 1_555 1_555
N7 Mn2 1_555 1_555
N8 Mn2 1_555 1_555
N9 Mn2 1_555 1_555
N10 Mn2 1_555 1_555
H1 N10 1_555 1_555
N11 Mn2 1_555 1_555
H2 N11 1_555 1_555
N12 Mn2 1_555 1_555
N13 C23 1_555 1_555
N14 C24 1_555 1_555
N15 Mn4 1_555 1_555
N16 Mn4 1_555 1_555
N17 Mn4 1_555 1_555
N18 Mn4 1_555 1_555
H3 N18 1_555 1_555
N19 Mn4 1_555 1_555
H4 N19 1_555 1_555
N20 Mn4 1_555 1_555
N21 C41 1_555 1_555
N22 C42 1_555 1_555
N23 Mn6 1_555 1_555
N24 Mn6 1_555 1_555
N25 Mn6 1_555 1_555
N26 Mn6 1_555 1_555
H5 N26 1_555 1_555
N27 Mn6 1_555 1_555
H6 N27 1_555 1_555
C2 Mn1 1_555 1_555
C3 Mn1 1_555 1_555
C4 Mn1 1_555 1_555
C5 Mn1 1_555 1_555
C6 Mn1 1_555 1_555
C7 H7 1_555 1_555
H8 C7 1_555 1_555
H9 C7 1_555 1_555
C8 N7 1_555 1_555
C9 N8 1_555 1_555
C10 C9 1_555 1_555
H10 C10 1_555 1_555
C11 C10 1_555 1_555
H11 C11 1_555 1_555
C12 C11 1_555 1_555
H12 C12 1_555 1_555
C13 N8 1_555 1_555
C14 N9 1_555 1_555
C15 C14 1_555 1_555
H13 C15 1_555 1_555
H14 C15 1_555 1_555
H15 C15 1_555 1_555
C16 N9 1_555 1_555
H16 C16 1_555 1_555
H17 C16 1_555 1_555
C17 N10 1_555 1_555
H18 C17 1_555 1_555
H19 C17 1_555 1_555
C18 N10 1_555 1_555
H20 C18 1_555 1_555
H21 C18 1_555 1_555
C19 N11 1_555 1_555
H22 C19 1_555 1_555
H23 C19 1_555 1_555
C20 N11 1_555 1_555
H24 C20 1_555 1_555
H25 C20 1_555 1_555
C21 N7 1_555 1_555
H26 C21 1_555 1_555
H27 C21 1_555 1_555
C22 N12 1_555 1_555
C23 Mn3 1_555 1_555
C24 Mn3 1_555 1_555
C25 H28 1_555 1_555
H29 C25 1_555 1_555
H30 C25 1_555 1_555
C26 N17 1_555 1_555
C27 N16 1_555 1_555
C28 C27 1_555 1_555
H31 C28 1_555 1_555
C29 C28 1_555 1_555
H32 C29 1_555 1_555
C30 C29 1_555 1_555
H33 C30 1_555 1_555
C31 N16 1_555 1_555
C32 N15 1_555 1_555
C33 C32 1_555 1_555
H34 C33 1_555 1_555
H35 C33 1_555 1_555
H36 C33 1_555 1_555
C34 N15 1_555 1_555
H37 C34 1_555 1_555
H38 C34 1_555 1_555
C35 N19 1_555 1_555
H39 C35 1_555 1_555
H40 C35 1_555 1_555
C36 N19 1_555 1_555
H41 C36 1_555 1_555
H42 C36 1_555 1_555
C37 N18 1_555 1_555
H43 C37 1_555 1_555
H44 C37 1_555 1_555
C38 N18 1_555 1_555
H45 C38 1_555 1_555
H46 C38 1_555 1_555
C39 N17 1_555 1_555
H47 C39 1_555 1_555
H48 C39 1_555 1_555
C40 N20 1_555 1_555
C41 Mn5 1_555 1_555
C42 Mn5 1_555 1_555
C43 H49 1_555 1_555
H50 C43 1_555 1_555
H51 C43 1_555 1_555
C44 N25 1_555 1_555
C45 N24 1_555 1_555
C46 C45 1_555 1_555
H52 C46 1_555 1_555
C47 C46 1_555 1_555
H53 C47 1_555 1_555
C48 C47 1_555 1_555
H54 C48 1_555 1_555
C49 N24 1_555 1_555
C50 N23 1_555 1_555
C51 C50 1_555 1_555
H55 C51 1_555 1_555
H56 C51 1_555 1_555
H57 C51 1_555 1_555
C52 N23 1_555 1_555
H58 C52 1_555 1_555
H59 C52 1_555 1_555
C53 N27 1_555 1_555
H60 C53 1_555 1_555
H61 C53 1_555 1_555
C54 N27 1_555 1_555
H62 C54 1_555 1_555
H63 C54 1_555 1_555
C55 N26 1_555 1_555
H64 C55 1_555 1_555
H65 C55 1_555 1_555
C56 N26 1_555 1_555
H66 C56 1_555 1_555
H67 C56 1_555 1_555
C57 N25 1_555 1_555
H68 C57 1_555 1_555
H69 C57 1_555 1_555
Mn1A C1A 1_555 1_555
Mn2A N6A 1_555 1_555
Mn4A N14A 1_555 1_555
N1A C1A 1_555 1_555
N2A C2A 1_555 1_555
N3A C3A 1_555 1_555
N4A C4A 1_555 1_555
N5A C5A 1_555 1_555
N6A C6A 1_555 1_555
N7A Mn2A 1_555 1_555
N8A Mn2A 1_555 1_555
N9A Mn2A 1_555 1_555
N10A Mn2A 1_555 1_555
H1A N10A 1_555 1_555
N11A Mn2A 1_555 1_555
H2A N11A 1_555 1_555
N12A Mn2A 1_555 1_555
N13A C23A 1_555 1_555
N14A C24A 1_555 1_555
N15A Mn4A 1_555 1_555
N16A Mn4A 1_555 1_555
N17A Mn4A 1_555 1_555
N18A Mn4A 1_555 1_555
H3A N18A 1_555 1_555
N19A Mn4A 1_555 1_555
H4A N19A 1_555 1_555
N20A Mn4A 1_555 1_555
C2A Mn1A 1_555 1_555
C3A Mn1A 1_555 1_555
C4A Mn1A 1_555 1_555
C5A Mn1A 1_555 1_555
C6A Mn1A 1_555 1_555
C7A H7A 1_555 1_555
H8A C7A 1_555 1_555
H9A C7A 1_555 1_555
C8A N7A 1_555 1_555
C9A N8A 1_555 1_555
C10A C9A 1_555 1_555
H10A C10A 1_555 1_555
C11A C10A 1_555 1_555
H11A C11A 1_555 1_555
C12A C11A 1_555 1_555
H12A C12A 1_555 1_555
C13A N8A 1_555 1_555
C14A N9A 1_555 1_555
C15A C14A 1_555 1_555
H13A C15A 1_555 1_555
H14A C15A 1_555 1_555
H15A C15A 1_555 1_555
C16A N9A 1_555 1_555
H16A C16A 1_555 1_555
H17A C16A 1_555 1_555
C17A N10A 1_555 1_555
H18A C17A 1_555 1_555
H19A C17A 1_555 1_555
C18A N10A 1_555 1_555
H20A C18A 1_555 1_555
H21A C18A 1_555 1_555
C19A N11A 1_555 1_555
H22A C19A 1_555 1_555
H23A C19A 1_555 1_555
C20A N11A 1_555 1_555
H24A C20A 1_555 1_555
H25A C20A 1_555 1_555
C21A N7A 1_555 1_555
H26A C21A 1_555 1_555
H27A C21A 1_555 1_555
C22A Mn3 1_555 1_555
C23A Mn3 1_555 1_555
C24A Mn3 1_555 1_555
C25A H28A 1_555 1_555
H29A C25A 1_555 1_555
H30A C25A 1_555 1_555
C26A N17A 1_555 1_555
C27A N16A 1_555 1_555
C28A C27A 1_555 1_555
H31A C28A 1_555 1_555
C29A C28A 1_555 1_555
H32A C29A 1_555 1_555
C30A C29A 1_555 1_555
H33A C30A 1_555 1_555
C31A N16A 1_555 1_555
C32A N15A 1_555 1_555
C33A C32A 1_555 1_555
H34A C33A 1_555 1_555
H35A C33A 1_555 1_555
H36A C33A 1_555 1_555
C34A N15A 1_555 1_555
H37A C34A 1_555 1_555
H38A C34A 1_555 1_555
C35A N19A 1_555 1_555
H39A C35A 1_555 1_555
H40A C35A 1_555 1_555
C36A N19A 1_555 1_555
H41A C36A 1_555 1_555
H42A C36A 1_555 1_555
C37A N18A 1_555 1_555
H43A C37A 1_555 1_555
H44A C37A 1_555 1_555
C38A N18A 1_555 1_555
H45A C38A 1_555 1_555
H46A C38A 1_555 1_555
C39A N17A 1_555 1_555
H47A C39A 1_555 1_555
H48A C39A 1_555 1_555
C40A N20A 1_555 1_555
Mn6A N22A 1_555 1_555
N22A C42A 1_555 1_555
N23A Mn6A 1_555 1_555
N24A Mn6A 1_555 1_555
N25A Mn6A 1_555 1_555
N26A Mn6A 1_555 1_555
H5A N26A 1_555 1_555
N27A Mn6A 1_555 1_555
H6A N27A 1_555 1_555
C42A Mn5 1_555 1_555
C43A H49A 1_555 1_555
H50A C43A 1_555 1_555
H51A C43A 1_555 1_555
C44A N25A 1_555 1_555
C45A N24A 1_555 1_555
C46A C45A 1_555 1_555
H52A C46A 1_555 1_555
C47A C46A 1_555 1_555
H53A C47A 1_555 1_555
C48A C47A 1_555 1_555
H54A C48A 1_555 1_555
C49A N24A 1_555 1_555
C50A N23A 1_555 1_555
C51A C50A 1_555 1_555
H55A C51A 1_555 1_555
H56A C51A 1_555 1_555
H57A C51A 1_555 1_555
C52A N23A 1_555 1_555
H58A C52A 1_555 1_555
H59A C52A 1_555 1_555
C53A N27A 1_555 1_555
H60A C53A 1_555 1_555
H61A C53A 1_555 1_555
C54A N27A 1_555 1_555
H62A C54A 1_555 1_555
H63A C54A 1_555 1_555
C55A N26A 1_555 1_555
H64A C55A 1_555 1_555
H65A C55A 1_555 1_555
C56A N26A 1_555 1_555
H66A C56A 1_555 1_555
H67A C56A 1_555 1_555
C57A N25A 1_555 1_555
H68A C57A 1_555 1_555
H69A C57A 1_555 1_555
N21A C41A 1_555 1_555
C41A Mn5 1_555 1_555
Mn5_2 C40A 1_555 1_555
Mn6_2 N3 1_555 1_555
Mn6A_2 N3A 1_555 1_555
N3_2 Mn6 1_555 1_555
N3A_2 Mn6A 1_555 1_555
C40A_2 Mn5 1_555 1_555
C7 C8 1_555 1_555
C8 C9 1_555 1_555
C12 C13 1_555 1_555
C13 C14 1_555 1_555
C16 C17 1_555 1_555
C18 C19 1_555 1_555
C20 C21 1_555 1_555
C25 C26 1_555 1_555
C26 C27 1_555 1_555
C30 C31 1_555 1_555
C31 C32 1_555 1_555
C34 C35 1_555 1_555
C36 C37 1_555 1_555
C38 C39 1_555 1_555
C43 C44 1_555 1_555
C44 C45 1_555 1_555
C48 C49 1_555 1_555
C49 C50 1_555 1_555
C52 C53 1_555 1_555
C54 C55 1_555 1_555
C56 C57 1_555 1_555
N12A C22A 1_555 1_555
C7A C8A 1_555 1_555
C8A C9A 1_555 1_555
C12A C13A 1_555 1_555
C13A C14A 1_555 1_555
C16A C17A 1_555 1_555
C18A C19A 1_555 1_555
C20A C21A 1_555 1_555
C25A C26A 1_555 1_555
C26A C27A 1_555 1_555
C30A C31A 1_555 1_555
C31A C32A 1_555 1_555
C34A C35A 1_555 1_555
C36A C37A 1_555 1_555
C38A C39A 1_555 1_555
C43A C44A 1_555 1_555
C44A C45A 1_555 1_555
C48A C49A 1_555 1_555
C49A C50A 1_555 1_555
C52A C53A 1_555 1_555
C54A C55A 1_555 1_555
C56A C57A 1_555 1_555

#END
