
#######################################################################
#
#                 Cambridge Crystallographic Data Centre
#                                CCDC 
#
#######################################################################
#
# If this CIF has been generated from an entry in the Cambridge 
# Structural Database, then it will include bibliographic, chemical, 
# crystal, experimental, refinement or atomic coordinate data resulting 
# from the CCDC's data processing and validation procedures.
#
#######################################################################

data_XUFPEV01
_symmetry_cell_setting           monoclinic
_symmetry_space_group_name_H-M   'P 21'
_symmetry_Int_Tables_number      4
_space_group_name_Hall           'P 2yb'
loop_
_symmetry_equiv_pos_site_id
_symmetry_equiv_pos_as_xyz
1 x,y,z
2 -x,1/2+y,-z
_cell_length_a                   13.815(3)
_cell_length_b                   13.729(3)
_cell_length_c                   14.644(3)
_cell_angle_alpha                90
_cell_angle_beta                 112.334(3)
_cell_angle_gamma                90
_cell_volume                     2569.12
loop_
_atom_site_label
_atom_site_type_symbol
_atom_site_fract_x
_atom_site_fract_y
_atom_site_fract_z
Co1 Co 0.95952(3) 0.13099(3) 0.31009(3)
Co2 Co 1.46683(3) 0.73494(3) 0.73912(3)
O1 O 0.84848(19) 0.06615(18) 0.18621(16)
O2 O 0.70984(18) 0.0093(2) -0.27626(16)
O3 O 0.93564(18) 0.00348(18) -0.58442(17)
O4 O 0.99986(19) 0.09035(19) 0.17456(17)
O5 O 0.89211(19) 0.15781(17) -0.59021(17)
O6 O 1.3943(2) 0.82286(18) 0.62467(17)
O7 O 1.4973(2) 0.88793(18) -0.1177(2)
N1 N 1.6244(2) 0.7201(2) 0.81497(18)
O8 O 1.50657(19) 0.7305(2) 0.59058(16)
N2 N 1.2689(2) 0.09583(19) 0.5169(2)
N3 N 1.8747(2) 0.4189(2) 1.2123(2)
C1 C 1.3175(3) 0.2896(2) 0.7545(3)
N4 N 1.3297(2) 0.45988(18) 0.70689(19)
C2 C 0.7969(3) 0.1303(3) -0.4534(2)
H1 H 0.7914 0.1910 -0.4830
N5 N 1.78607(19) 0.7382(2) 0.91871(18)
N6 N 1.4118(2) 0.59621(19) 0.70458(19)
O9 O 1.4009(2) 0.75412(18) -0.16372(17)
C3 C 1.4338(3) 0.7910(3) 0.5645(2)
C4 C 1.3825(2) 0.8486(2) -0.0371(2)
N7 N 1.9395(2) 0.2720(2) 1.2524(2)
C5 C 0.8477(2) 0.0552(2) -0.4801(2)
C6 C 0.7496(2) 0.0262(2) -0.0190(2)
H2 H 0.7100 0.0179 0.0195
N8 N 1.1160(2) 0.1242(2) 0.39813(18)
C7 C 0.8543(2) 0.0527(2) 0.0260(2)
C8 C 1.2484(3) 0.9030(2) 0.3260(2)
H3 H 1.1865 0.9385 0.3031
C9 C 1.2942(3) 0.8766(2) 0.4245(2)
H4 H 1.2619 0.8934 0.4676
C10 C 1.3561(2) 0.1358(2) 0.6950(2)
C11 C 1.4312(2) 0.8306(2) -0.1112(2)
C12 C 0.8551(3) -0.0348(3) -0.4356(2)
H5 H 0.8902 -0.0853 -0.4521
C13 C 0.7037(2) 0.0121(3) -0.1190(2)
H6 H 0.6341 -0.0071 -0.1479
C14 C 0.9048(3) 0.0701(2) 0.1350(2)
C15 C 1.8913(2) 0.7288(3) 1.0994(2)
C16 C 0.8953(2) 0.0724(2) -0.5556(2)
C17 C 1.3525(2) 0.5502(2) 0.7430(2)
H7 H 1.3293 0.5771 0.7894
C18 C 1.3782(3) 0.4476(3) 0.6410(3)
H8 H 1.3770 0.3920 0.6044
C19 C 1.3461(3) 0.0648(3) 0.6125(3)
H9 H 1.4137 0.0579 0.6073
H10 H 1.3261 0.0015 0.6290
C20 C 0.7610(3) 0.0259(3) -0.3409(2)
C21 C 1.3085(3) 0.7857(2) -0.0284(2)
H11 H 1.2884 0.7313 -0.0691
C22 C 1.2648(3) 0.3875(2) 0.7315(3)
H12 H 1.1983 0.3812 0.6763
H13 H 1.2509 0.4101 0.7881
C23 C 1.2959(3) 0.8758(2) 0.2620(2)
C24 C 1.6876(3) 0.6568(3) 0.7898(2)
H14 H 1.6648 0.6137 0.7369
C25 C 1.3877(3) 0.8253(2) 0.4593(2)
C26 C 0.7621(3) 0.0268(2) -0.1771(2)
C27 C 0.8657(3) 0.0546(3) -0.1346(2)
H15 H 0.9044 0.0653 -0.1736
C28 C 0.9112(3) 0.0665(2) -0.0333(2)
H16 H 0.9813 0.0841 -0.0043
C29 C 1.2936(3) 0.8836(3) 0.0992(2)
C30 C 1.3675(3) 0.9479(3) 0.0922(2)
H17 H 1.3868 1.0024 0.1328
C31 C 1.3048(2) 0.2243(2) 0.6778(2)
H18 H 1.2610 0.2408 0.6138
C32 C 1.9303(3) 0.6460(4) 1.2822(3)
C33 C 1.4335(3) 0.7986(3) 0.3941(2)
H19 H 1.4957 0.7634 0.4169
C34 C 1.3818(3) 0.2635(3) 0.8495(3)
H20 H 1.3913 0.3061 0.9015
C35 C 1.6861(3) 0.7670(2) 0.8930(2)
H21 H 1.6638 0.8141 0.9263
C36 C 0.8103(3) -0.0502(3) -0.3664(3)
H22 H 0.8137 -0.1112 -0.3377
C37 C 1.1930(3) 0.1718(3) 0.3778(3)
H23 H 1.1818 0.2101 0.3223
C38 C 1.2867(3) 0.1550(3) 0.4498(3)
H24 H 1.3510 0.1788 0.4532
C39 C 1.8760(3) 0.7762(3) 1.0021(3)
H25 H 1.8668 0.8457 1.0075
H26 H 1.9388 0.7668 0.9884
C40 C 0.7542(3) 0.1158(3) -0.3829(2)
H27 H 0.7213 0.1667 -0.3643
C41 C 1.4120(3) 0.9300(2) 0.0240(2)
H28 H 1.4621 0.9726 0.0189
C42 C 1.8443(2) 0.6416(3) 1.1074(2)
H29 H 1.7994 0.6108 1.0505
C43 C 1.4196(3) 0.1111(3) 0.7912(3)
H30 H 1.4542 0.0515 0.8042
C44 C 1.3879(3) 0.8237(3) 0.2950(2)
H31 H 1.4192 0.8056 0.2514
C45 C 1.9760(3) 0.3113(3) 1.1851(3)
H32 H 2.0210 0.2802 1.1606
C46 C 1.4273(3) 0.5314(2) 0.6398(2)
H33 H 1.4659 0.5438 0.6011
C47 C 1.1655(3) 0.0799(2) 0.4834(2)
H34 H 1.1327 0.0423 0.5161
C48 C 1.9370(3) 0.4009(3) 1.1601(3)
H35 H 1.9496 0.4429 1.1160
C49 C 1.8096(3) 0.5054(3) 1.2058(3)
H36 H 1.7915 0.5078 1.2637
H37 H 1.7451 0.4994 1.1483
C50 C 1.2640(3) 0.8029(3) 0.0405(2)
H38 H 1.2146 0.7601 0.0467
C51 C 1.9764(3) 0.7328(4) 1.2750(3)
H39 H 2.0205 0.7640 1.3320
C52 C 1.7876(3) 0.6667(3) 0.8536(3)
H40 H 1.8456 0.6324 0.8535
C53 C 1.9579(3) 0.7739(3) 1.1846(3)
H41 H 1.9903 0.8322 1.1805
C54 C 1.8790(3) 0.3391(3) 1.2658(3)
H42 H 1.8430 0.3321 1.3077
C55 C 1.4315(3) 0.1749(3) 0.8673(3)
H43 H 1.4737 0.1577 0.9316
C56 C 1.8630(3) 0.5995(2) 1.1988(3)
O10 O 1.2440(2) 0.9034(2) 0.16452(16)
H44 H 1.935(2) 0.617(3) 1.344(2)
Co1_2 Co 0.95952(3) 0.13099(3) -0.68991(3)
Co1_3 Co 1.95952(3) 0.13099(3) 1.31009(3)
Co2_2 Co 1.46683(3) 0.73494(3) -0.26088(3)
O3_2 O 0.93564(18) 0.00348(18) 0.41558(17)
O5_2 O 0.89211(19) 0.15781(17) 0.40979(17)
O9_2 O 1.4009(2) 0.75412(18) 0.83628(17)
N7_2 N 0.9395(2) 0.2720(2) 0.2524(2)
O11 O 1.0903(3) -0.1409(3) -0.4922(3)
H45 H 1.1206 -0.1957 -0.4758
H46 H 1.0362 -0.1473 -0.5448
loop_
_geom_bond_atom_site_label_1
_geom_bond_atom_site_label_2
_geom_bond_site_symmetry_1
_geom_bond_site_symmetry_2
Co1 O1 1_555 1_555
Co2 O6 1_555 1_555
O1 C14 1_555 1_555
O2 C20 1_555 1_555
O3 C16 1_555 1_555
O4 Co1 1_555 1_555
O5 C16 1_555 1_555
O6 C3 1_555 1_555
O7 C11 1_555 1_555
N1 Co2 1_555 1_555
O8 Co2 1_555 1_555
N2 C19 1_555 1_555
N3 C48 1_555 1_555
C1 C22 1_555 1_555
N4 C17 1_555 1_555
C2 H1 1_555 1_555
N5 C35 1_555 1_555
N6 Co2 1_555 1_555
O9 C11 1_555 1_555
C3 O8 1_555 1_555
C4 C11 1_555 1_555
N7 C45 1_555 1_555
C5 C2 1_555 1_555
C6 H2 1_555 1_555
N8 Co1 1_555 1_555
C7 C6 1_555 1_555
C8 H3 1_555 1_555
C9 C8 1_555 1_555
H4 C9 1_555 1_555
C10 C19 1_555 1_555
C12 C5 1_555 1_555
H5 C12 1_555 1_555
C13 C6 1_555 1_555
H6 C13 1_555 1_555
C14 O4 1_555 1_555
C15 C39 1_555 1_555
C16 C5 1_555 1_555
C17 N6 1_555 1_555
H7 C17 1_555 1_555
C18 N4 1_555 1_555
H8 C18 1_555 1_555
C19 H9 1_555 1_555
H10 C19 1_555 1_555
C20 C36 1_555 1_555
C21 C4 1_555 1_555
H11 C21 1_555 1_555
C22 N4 1_555 1_555
H12 C22 1_555 1_555
H13 C22 1_555 1_555
C23 C8 1_555 1_555
C24 N1 1_555 1_555
H14 C24 1_555 1_555
C25 C3 1_555 1_555
C26 O2 1_555 1_555
C27 C26 1_555 1_555
H15 C27 1_555 1_555
C28 C7 1_555 1_555
H16 C28 1_555 1_555
C29 C30 1_555 1_555
C30 H17 1_555 1_555
C31 C1 1_555 1_555
H18 C31 1_555 1_555
C32 C51 1_555 1_555
C33 C25 1_555 1_555
H19 C33 1_555 1_555
C34 C1 1_555 1_555
H20 C34 1_555 1_555
C35 N1 1_555 1_555
H21 C35 1_555 1_555
C36 C12 1_555 1_555
H22 C36 1_555 1_555
C37 N8 1_555 1_555
H23 C37 1_555 1_555
C38 N2 1_555 1_555
H24 C38 1_555 1_555
C39 N5 1_555 1_555
H25 C39 1_555 1_555
H26 C39 1_555 1_555
C40 C2 1_555 1_555
H27 C40 1_555 1_555
C41 C4 1_555 1_555
H28 C41 1_555 1_555
C42 C15 1_555 1_555
H29 C42 1_555 1_555
C43 C10 1_555 1_555
H30 C43 1_555 1_555
C44 C23 1_555 1_555
H31 C44 1_555 1_555
C45 H32 1_555 1_555
C46 N6 1_555 1_555
H33 C46 1_555 1_555
C47 N2 1_555 1_555
H34 C47 1_555 1_555
C48 C45 1_555 1_555
H35 C48 1_555 1_555
C49 N3 1_555 1_555
H36 C49 1_555 1_555
H37 C49 1_555 1_555
C50 C21 1_555 1_555
H38 C50 1_555 1_555
C51 H39 1_555 1_555
C52 N5 1_555 1_555
H40 C52 1_555 1_555
C53 C15 1_555 1_555
H41 C53 1_555 1_555
C54 N3 1_555 1_555
H42 C54 1_555 1_555
C55 C34 1_555 1_555
H43 C55 1_555 1_555
C56 C32 1_555 1_555
O10 C23 1_555 1_555
H44 C32 1_555 1_555
O11 H45 1_555 1_555
H46 O11 1_555 1_555
Co1_2 O3 1_555 1_555
Co1_3 N7 1_555 1_555
Co2_2 O9 1_555 1_555
O3_2 Co1 1_555 1_555
O5_2 Co1 1_555 1_555
O9_2 Co2 1_555 1_555
N7_2 Co1 1_555 1_555
O5 Co1_2 1_555 1_555
N7 C54 1_555 1_555
N8 C47 1_555 1_555
C7 C14 1_555 1_555
C9 C25 1_555 1_555
C10 C31 1_555 1_555
C13 C26 1_555 1_555
C18 C46 1_555 1_555
C20 C40 1_555 1_555
C24 C52 1_555 1_555
C27 C28 1_555 1_555
C29 C50 1_555 1_555
C29 O10 1_555 1_555
C30 C41 1_555 1_555
C33 C44 1_555 1_555
C37 C38 1_555 1_555
C42 C56 1_555 1_555
C43 C55 1_555 1_555
C49 C56 1_555 1_555
C51 C53 1_555 1_555

#END
