
#######################################################################
#
#                 Cambridge Crystallographic Data Centre
#                                CCDC 
#
#######################################################################
#
# If this CIF has been generated from an entry in the Cambridge 
# Structural Database, then it will include bibliographic, chemical, 
# crystal, experimental, refinement or atomic coordinate data resulting 
# from the CCDC's data processing and validation procedures.
#
#######################################################################

data_XUFPEV
_symmetry_cell_setting           monoclinic
_symmetry_space_group_name_H-M   'P 21'
_symmetry_Int_Tables_number      4
_space_group_name_Hall           'P 2yb'
loop_
_symmetry_equiv_pos_site_id
_symmetry_equiv_pos_as_xyz
1 x,y,z
2 -x,1/2+y,-z
_cell_length_a                   13.7911(6)
_cell_length_b                   13.7197(6)
_cell_length_c                   14.6474(7)
_cell_angle_alpha                90
_cell_angle_beta                 112.3920(10)
_cell_angle_gamma                90
_cell_volume                     2562.46
loop_
_atom_site_label
_atom_site_type_symbol
_atom_site_fract_x
_atom_site_fract_y
_atom_site_fract_z
Co1 Co 0.53322(3) 0.23605(3) 0.76070(3)
Co2 Co 1.04028(3) 0.83997(3) 1.18999(3)
O1 O 0.59937(17) 0.21642(16) 0.66361(16)
O2 O 0.50299(18) 0.08301(16) 0.61788(18)
O3 O 0.60605(19) 0.14808(16) -0.12468(15)
O4 O 0.49339(17) 0.2402(2) -0.09087(15)
O5 O 0.75646(18) 0.06739(18) 0.33546(15)
O6 O 1.10782(17) 0.81276(15) 1.09000(15)
O7 O 1.06361(16) 0.96739(16) 1.08405(15)
O8 O 0.99999(17) 0.88024(18) 0.32550(15)
O9 O 1.15150(16) 0.90429(16) 0.31386(15)
O10 O 1.29044(16) 0.96156(19) 0.77673(15)
N1 N 0.58845(18) 0.37454(17) 0.79579(16)
N2 N 0.67005(19) 0.51109(17) 0.79323(18)
N3 N 0.73062(19) 0.87501(17) 0.98264(19)
N4 N 0.88366(18) 0.8463(2) 1.10184(17)
N5 N 0.37574(18) 0.25057(18) 0.68483(16)
N6 N 0.21350(18) 0.2321(2) 0.58051(17)
N7 N 0.1251(2) 0.55188(19) 0.28748(19)
N8 N 0.0600(2) 0.69908(18) 0.24763(19)
C1 C 0.5687(2) 0.1400(2) 0.6112(2)
C2 C 0.6179(2) 0.1224(2) 0.53709(19)
C3 C 0.6917(2) 0.1850(2) 0.5282(2)
H1 H 0.7119 0.2395 0.5689
C4 C 0.7366(2) 0.1682(2) 0.4594(2)
H2 H 0.7860 0.2110 0.4531
C5 C 0.7065(2) 0.0871(2) 0.4010(2)
C6 C 0.6328(3) 0.0228(2) 0.4080(2)
H3 H 0.6133 -0.0318 0.3675
C7 C 0.5884(2) 0.0411(2) 0.4762(2)
H4 H 0.5383 -0.0014 0.4815
C8 C 0.7042(2) 0.0948(2) 0.2382(2)
C9 C 0.6122(2) 0.1471(2) 0.2047(2)
H5 H 0.5807 0.1654 0.2480
C10 C 0.5670(2) 0.1721(2) 0.1061(2)
H6 H 0.5047 0.2075 0.0834
C11 C 0.6130(2) 0.1454(2) 0.0403(2)
C12 C 0.7062(2) 0.0937(2) 0.0760(2)
H7 H 0.7384 0.0763 0.0330
C13 C 0.7522(2) 0.0675(2) 0.1741(2)
H8 H 0.8144 0.0320 0.1970
C14 C 0.5661(3) 0.1803(2) -0.0644(2)
C15 C 1.1046(2) 0.8985(2) 1.0560(2)
C16 C 1.1522(2) 0.9158(2) 0.98034(19)
C17 C 1.2029(2) 0.8411(3) 0.9536(2)
H9 H 1.2083 0.7803 0.9832
C18 C 1.2459(2) 0.8556(3) 0.8833(2)
H10 H 1.2789 0.8046 0.8647
C19 C 1.2392(2) 0.9454(2) 0.8416(2)
C20 C 1.1897(3) 1.0212(2) 0.8673(2)
H11 H 1.1864 1.0824 0.8389
C21 C 1.1450(3) 1.0057(2) 0.9357(2)
H12 H 1.1095 1.0562 0.9519
C22 C 1.2382(2) 0.9443(2) 0.6778(2)
C23 C 1.2960(2) 0.9590(2) 0.6193(2)
H13 H 1.3656 0.9789 0.6481
C24 C 1.2508(2) 0.9441(2) 0.5193(2)
H14 H 1.2909 0.9517 0.4811
C25 C 1.1455(2) 0.9178(2) 0.4740(2)
C26 C 1.0889(2) 0.9045(2) 0.5340(2)
H15 H 1.0185 0.8871 0.5052
C27 C 1.1344(2) 0.9162(2) 0.6347(2)
H16 H 1.0956 0.9053 0.6736
C28 C 1.0947(2) 0.9004(2) 0.3650(2)
C29 C 0.6441(2) 0.8353(2) 0.8046(2)
C30 C 0.6948(2) 0.7462(2) 0.8220(2)
H17 H 0.7381 0.7293 0.8862
C31 C 0.6824(2) 0.6814(2) 0.7454(2)
C32 C 0.6185(3) 0.7072(2) 0.6506(2)
H18 H 0.6090 0.6644 0.5986
C33 C 0.5686(3) 0.7961(3) 0.6324(3)
H19 H 0.5264 0.8132 0.5680
C34 C 0.5803(2) 0.8597(3) 0.7083(3)
H20 H 0.5455 0.9193 0.6953
C35 C 0.6536(3) 0.9058(2) 0.8875(3)
H21 H 0.6732 0.9695 0.8713
H22 H 0.5857 0.9121 0.8925
C36 C 0.8345(2) 0.8908(2) 1.0168(2)
H23 H 0.8677 0.9285 0.9845
C37 C 0.7131(3) 0.8161(2) 1.0498(2)
H24 H 0.6486 0.7922 1.0461
C38 C 0.8066(3) 0.7992(2) 1.1223(2)
H25 H 0.8175 0.7612 1.1780
C39 C 0.7357(2) 0.5834(2) 0.7687(3)
H26 H 0.7498 0.5607 0.7123
H27 H 0.8023 0.5899 0.8240
C40 C 0.6475(2) 0.4208(2) 0.7568(2)
H28 H 0.6704 0.3940 0.7102
C41 C 0.5722(2) 0.4393(2) 0.8600(2)
H29 H 0.5330 0.4270 0.8983
C42 C 0.6218(3) 0.5234(2) 0.8588(2)
H30 H 0.6232 0.5792 0.8954
C43 C 0.1088(2) 0.2420(3) 0.3997(2)
C44 C 0.1553(2) 0.3294(2) 0.3924(2)
H31 H 0.1995 0.3605 0.4495
C45 C 0.1369(2) 0.3714(2) 0.3008(2)
C46 C 0.0708(3) 0.3257(3) 0.2167(3)
H32 H 0.0576 0.3531 0.1550
C47 C 0.0235(3) 0.2377(4) 0.2242(3)
H33 H -0.0208 0.2066 0.1672
C48 C 0.0417(3) 0.1966(3) 0.3146(3)
H34 H 0.0091 0.1384 0.3187
C49 C 0.1235(3) 0.1949(3) 0.4976(2)
H35 H 0.0606 0.2052 0.5111
H36 H 0.1319 0.1251 0.4923
C50 C 0.3136(2) 0.2039(2) 0.6067(2)
H37 H 0.3360 0.1569 0.5734
C51 C 0.3127(2) 0.3139(2) 0.7100(2)
H38 H 0.3356 0.3572 0.7628
C52 C 0.2125(2) 0.3035(2) 0.6461(2)
H39 H 0.1545 0.3378 0.6463
C53 C 0.1900(3) 0.4651(3) 0.2933(3)
H40 H 0.2551 0.4710 0.3505
H41 H 0.2073 0.4627 0.2351
C54 C 0.1207(3) 0.6318(2) 0.2337(2)
H42 H 0.1563 0.6388 0.1914
C55 C 0.0632(3) 0.5700(3) 0.3395(2)
H43 H 0.0508 0.5280 0.3838
C56 C 0.0239(3) 0.6591(2) 0.3148(3)
H44 H -0.0213 0.6898 0.3394
Co1_2 Co 0.53322(3) 0.23605(3) -0.23930(3)
Co2_2 Co 0.04028(3) 0.83997(3) 0.18999(3)
Co2_3 Co 1.04028(3) 0.83997(3) 0.18999(3)
O3_2 O 0.60605(19) 0.14808(16) 0.87532(15)
O4_2 O 0.49339(17) 0.2402(2) 0.90913(15)
O8_2 O 0.99999(17) 0.88024(18) 1.32550(15)
O9_2 O 1.15150(16) 0.90429(16) 1.31386(15)
N8_2 N 1.0600(2) 0.69908(18) 1.24763(19)
O11 O 0.9105(3) 0.1130(2) 0.9935(2)
loop_
_geom_bond_atom_site_label_1
_geom_bond_atom_site_label_2
_geom_bond_site_symmetry_1
_geom_bond_site_symmetry_2
Co1 O1 1_555 1_555
Co2 O6 1_555 1_555
O1 C1 1_555 1_555
O2 C1 1_555 1_555
O3 C14 1_555 1_555
O4 C14 1_555 1_555
O5 C5 1_555 1_555
O6 C15 1_555 1_555
O7 Co2 1_555 1_555
O8 C28 1_555 1_555
O9 C28 1_555 1_555
O10 C19 1_555 1_555
N1 Co1 1_555 1_555
N2 C39 1_555 1_555
N3 C35 1_555 1_555
N4 Co2 1_555 1_555
N5 Co1 1_555 1_555
N6 C49 1_555 1_555
N7 C53 1_555 1_555
N8 C54 1_555 1_555
C1 C2 1_555 1_555
C2 C3 1_555 1_555
C3 H1 1_555 1_555
C4 C3 1_555 1_555
H2 C4 1_555 1_555
C5 C4 1_555 1_555
C6 C5 1_555 1_555
H3 C6 1_555 1_555
C7 C2 1_555 1_555
H4 C7 1_555 1_555
C8 O5 1_555 1_555
C9 C8 1_555 1_555
H5 C9 1_555 1_555
C10 C9 1_555 1_555
H6 C10 1_555 1_555
C11 C10 1_555 1_555
C12 C11 1_555 1_555
H7 C12 1_555 1_555
C13 C8 1_555 1_555
H8 C13 1_555 1_555
C14 C11 1_555 1_555
C15 O7 1_555 1_555
C16 C15 1_555 1_555
C17 C16 1_555 1_555
H9 C17 1_555 1_555
C18 C17 1_555 1_555
H10 C18 1_555 1_555
C19 C18 1_555 1_555
C20 C19 1_555 1_555
H11 C20 1_555 1_555
C21 C16 1_555 1_555
H12 C21 1_555 1_555
C22 O10 1_555 1_555
C23 C22 1_555 1_555
H13 C23 1_555 1_555
C24 C23 1_555 1_555
H14 C24 1_555 1_555
C25 C24 1_555 1_555
C26 C25 1_555 1_555
H15 C26 1_555 1_555
C27 C22 1_555 1_555
H16 C27 1_555 1_555
C28 C25 1_555 1_555
C29 C30 1_555 1_555
C30 H17 1_555 1_555
C31 C30 1_555 1_555
C32 C31 1_555 1_555
H18 C32 1_555 1_555
C33 C32 1_555 1_555
H19 C33 1_555 1_555
C34 C29 1_555 1_555
H20 C34 1_555 1_555
C35 C29 1_555 1_555
H21 C35 1_555 1_555
H22 C35 1_555 1_555
C36 N3 1_555 1_555
H23 C36 1_555 1_555
C37 N3 1_555 1_555
H24 C37 1_555 1_555
C38 N4 1_555 1_555
H25 C38 1_555 1_555
C39 C31 1_555 1_555
H26 C39 1_555 1_555
H27 C39 1_555 1_555
C40 N1 1_555 1_555
H28 C40 1_555 1_555
C41 N1 1_555 1_555
H29 C41 1_555 1_555
C42 N2 1_555 1_555
H30 C42 1_555 1_555
C43 C44 1_555 1_555
C44 H31 1_555 1_555
C45 C44 1_555 1_555
C46 C45 1_555 1_555
H32 C46 1_555 1_555
C47 C46 1_555 1_555
H33 C47 1_555 1_555
C48 C43 1_555 1_555
H34 C48 1_555 1_555
C49 C43 1_555 1_555
H35 C49 1_555 1_555
H36 C49 1_555 1_555
C50 N5 1_555 1_555
H37 C50 1_555 1_555
C51 N5 1_555 1_555
H38 C51 1_555 1_555
C52 N6 1_555 1_555
H39 C52 1_555 1_555
C53 C45 1_555 1_555
H40 C53 1_555 1_555
H41 C53 1_555 1_555
C54 N7 1_555 1_555
H42 C54 1_555 1_555
C55 N7 1_555 1_555
H43 C55 1_555 1_555
C56 N8 1_555 1_555
H44 C56 1_555 1_555
Co1_2 O3 1_555 1_555
Co2_2 N8 1_555 1_555
Co2_3 O8 1_555 1_555
O3_2 Co1 1_555 1_555
O4_2 Co1 1_555 1_555
O8_2 Co2 1_555 1_555
O9_2 Co2 1_555 1_555
N8_2 Co2 1_555 1_555
O4 Co1_2 1_555 1_555
O9 Co2_3 1_555 1_555
N2 C40 1_555 1_555
N4 C36 1_555 1_555
N6 C50 1_555 1_555
C6 C7 1_555 1_555
C12 C13 1_555 1_555
C20 C21 1_555 1_555
C26 C27 1_555 1_555
C33 C34 1_555 1_555
C37 C38 1_555 1_555
C41 C42 1_555 1_555
C47 C48 1_555 1_555
C51 C52 1_555 1_555
C55 C56 1_555 1_555

#END
