
#######################################################################
#
#                 Cambridge Crystallographic Data Centre
#                                CCDC 
#
#######################################################################
#
# If this CIF has been generated from an entry in the Cambridge 
# Structural Database, then it will include bibliographic, chemical, 
# crystal, experimental, refinement or atomic coordinate data resulting 
# from the CCDC's data processing and validation procedures.
#
#######################################################################

data_XUFQOG
_symmetry_cell_setting           triclinic
_symmetry_space_group_name_H-M   'P -1'
_symmetry_Int_Tables_number      2
_space_group_name_Hall           '-P 1'
loop_
_symmetry_equiv_pos_site_id
_symmetry_equiv_pos_as_xyz
1 x,y,z
2 -x,-y,-z
_cell_length_a                   9.4116(19)
_cell_length_b                   10.196(2)
_cell_length_c                   13.755(3)
_cell_angle_alpha                93.08(3)
_cell_angle_beta                 92.76(3)
_cell_angle_gamma                96.74(3)
_cell_volume                     1306.95
loop_
_atom_site_label
_atom_site_type_symbol
_atom_site_fract_x
_atom_site_fract_y
_atom_site_fract_z
Sm1 Sm 0.88606(4) 0.44574(4) 0.11606(3)
C1 C 0.6773(9) 0.7068(11) 0.1698(6)
H1 H 0.6439 0.6803 0.1062
C2 C 0.6121(9) 0.8056(10) 0.2170(6)
H2 H 0.5399 0.8446 0.1852
C3 C 0.6560(9) 0.8442(10) 0.3112(6)
H3 H 0.6111 0.9071 0.3458
C4 C 0.7694(8) 0.7881(9) 0.3550(5)
C5 C 0.8286(8) 0.8264(8) 0.4521(6)
C6 C 0.9513(8) 0.7769(8) 0.4875(5)
C7 C 1.0186(8) 0.6791(8) 0.4351(6)
C8 C 1.1392(9) 0.6236(10) 0.4705(6)
H4 H 1.1830 0.6516 0.5313
C9 C 1.1904(10) 0.5286(12) 0.4144(7)
H5 H 1.2706 0.4912 0.4364
C10 C 1.1223(10) 0.4862(10) 0.3228(6)
H6 H 1.1575 0.4188 0.2864
C11 C 0.9554(8) 0.6330(8) 0.3414(5)
C12 C 0.8322(7) 0.6901(8) 0.3014(5)
C13 C 0.8818(8) 0.9206(9) 0.5939(6)
C14 C 0.8792(8) 1.0050(8) 0.6839(6)
C15 C 0.7847(9) 1.0992(9) 0.6887(6)
H7 H 0.7210 1.1068 0.6361
C16 C 0.7851(10) 1.1826(9) 0.7723(6)
H8 H 0.7224 1.2466 0.7751
C17 C 0.8776(9) 1.1705(8) 0.8504(5)
C18 C 0.9701(9) 1.0750(10) 0.8479(6)
H9 H 1.0313 1.0657 0.9015
C19 C 0.9704(9) 0.9932(10) 0.7644(6)
H10 H 1.0330 0.9291 0.7621
C20 C 0.8832(8) 1.2661(8) 0.9395(5)
C21 C 1.6022(8) 0.2638(8) 0.2176(6)
C22 C 1.4702(9) 0.2028(10) 0.2380(7)
H11 H 1.4621 0.1353 0.2810
C23 C 1.3484(8) 0.2438(9) 0.1931(7)
H12 H 1.2579 0.2046 0.2067
C24 C 1.3620(7) 0.3414(8) 0.1292(5)
C25 C 1.4987(8) 0.3950(9) 0.1114(6)
H13 H 1.5089 0.4599 0.0665
C26 C 1.7397(8) 0.2313(9) 0.2654(6)
C27 C 1.2337(7) 0.3934(8) 0.0790(5)
N1 N 0.7838(7) 0.6464(7) 0.2077(5)
N2 N 1.0112(7) 0.5380(7) 0.2865(5)
N3 N 0.7867(7) 0.9156(8) 0.5194(5)
N4 N 0.9825(7) 0.8386(7) 0.5785(5)
H14 H 1.0529 0.8273 0.6181
N5 N 1.6181(6) 0.3599(7) 0.1545(5)
O1 O 0.8177(7) 1.2355(7) 1.0122(5)
O2 O 0.9548(5) 1.3783(5) 0.9371(4)
O3 O 1.7342(6) 0.1578(7) 0.3343(5)
O4 O 1.8557(5) 0.2865(6) 0.2328(4)
O5 O 1.2575(5) 0.4617(6) 0.0078(4)
O6 O 1.1163(5) 0.3629(6) 0.1160(4)
Sm1_2 Sm 0.88606(4) 1.44574(4) 1.11606(3)
Sm1_3 Sm 1.88606(4) 0.44574(4) 0.11606(3)
Sm1A Sm 1.11394(4) 0.55426(4) -0.11606(3)
Sm1A_2 Sm 1.11394(4) 1.55426(4) 0.88394(3)
N5_2 N 0.6181(6) 0.3599(7) 0.1545(5)
O1_2 O 0.8177(7) 0.2355(7) 0.0122(5)
O2_2 O 0.9548(5) 0.3783(5) -0.0629(4)
O2A O 1.0452(5) 0.6217(5) 0.0629(4)
O4_2 O 0.8557(5) 0.2865(6) 0.2328(4)
O5A O 0.7425(5) 0.5383(6) -0.0078(4)
loop_
_geom_bond_atom_site_label_1
_geom_bond_atom_site_label_2
_geom_bond_site_symmetry_1
_geom_bond_site_symmetry_2
Sm1 N1 1_555 1_555
C1 H1 1_555 1_555
C2 C1 1_555 1_555
H2 C2 1_555 1_555
C3 C2 1_555 1_555
H3 C3 1_555 1_555
C4 C3 1_555 1_555
C5 C4 1_555 1_555
C6 C5 1_555 1_555
C7 C6 1_555 1_555
C8 C7 1_555 1_555
H4 C8 1_555 1_555
C9 C8 1_555 1_555
H5 C9 1_555 1_555
C10 C9 1_555 1_555
H6 C10 1_555 1_555
C11 C7 1_555 1_555
C12 C4 1_555 1_555
C13 C14 1_555 1_555
C14 C15 1_555 1_555
C15 H7 1_555 1_555
C16 C15 1_555 1_555
H8 C16 1_555 1_555
C17 C16 1_555 1_555
C18 C17 1_555 1_555
H9 C18 1_555 1_555
C19 C14 1_555 1_555
H10 C19 1_555 1_555
C20 C17 1_555 1_555
C21 C22 1_555 1_555
C22 H11 1_555 1_555
C23 C22 1_555 1_555
H12 C23 1_555 1_555
C24 C23 1_555 1_555
C25 C24 1_555 1_555
H13 C25 1_555 1_555
C26 C21 1_555 1_555
C27 C24 1_555 1_555
N1 C1 1_555 1_555
N2 Sm1 1_555 1_555
N3 C5 1_555 1_555
N4 C6 1_555 1_555
H14 N4 1_555 1_555
N5 C21 1_555 1_555
O1 C20 1_555 1_555
O2 C20 1_555 1_555
O3 C26 1_555 1_555
O4 C26 1_555 1_555
O5 C27 1_555 1_555
O6 Sm1 1_555 1_555
Sm1_2 O1 1_555 1_555
Sm1_3 N5 1_555 1_555
Sm1A O5 1_555 1_555
Sm1A_2 O2 1_555 1_555
N5_2 Sm1 1_555 1_555
O1_2 Sm1 1_555 1_555
O2_2 Sm1 1_555 1_555
O2A Sm1 1_555 1_555
O4_2 Sm1 1_555 1_555
O5A Sm1 1_555 1_555
C10 N2 1_555 1_555
C11 C12 1_555 1_555
C11 N2 1_555 1_555
C12 N1 1_555 1_555
C13 N3 1_555 1_555
C13 N4 1_555 1_555
C18 C19 1_555 1_555
C25 N5 1_555 1_555
C27 O6 1_555 1_555
O2 Sm1_2 1_555 1_555
O4 Sm1_3 1_555 1_555
Sm1A O2_2 1_555 1_555
Sm1A O2A 1_555 1_555

#END
