
#######################################################################
#
#                 Cambridge Crystallographic Data Centre
#                                CCDC 
#
#######################################################################
#
# If this CIF has been generated from an entry in the Cambridge 
# Structural Database, then it will include bibliographic, chemical, 
# crystal, experimental, refinement or atomic coordinate data resulting 
# from the CCDC's data processing and validation procedures.
#
#######################################################################

data_XUFQUM
_symmetry_cell_setting           triclinic
_symmetry_space_group_name_H-M   'P -1'
_symmetry_Int_Tables_number      2
_space_group_name_Hall           '-P 1'
loop_
_symmetry_equiv_pos_site_id
_symmetry_equiv_pos_as_xyz
1 x,y,z
2 -x,-y,-z
_cell_length_a                   9.4608(19)
_cell_length_b                   10.309(2)
_cell_length_c                   13.364(3)
_cell_angle_alpha                89.37(3)
_cell_angle_beta                 86.72(3)
_cell_angle_gamma                87.26(3)
_cell_volume                     1299.74
loop_
_atom_site_label
_atom_site_type_symbol
_atom_site_fract_x
_atom_site_fract_y
_atom_site_fract_z
La1 La 0.61809(3) 0.45056(2) 0.869861(19)
O1 O 0.5550(3) 1.3804(3) 0.0600(2)
O2 O 0.6569(5) 1.2296(4) -0.0377(3)
O3 O 0.6734(3) 0.3023(3) 0.7321(2)
O4 O 0.7982(4) 0.1560(4) 0.6414(3)
O5 O 1.2350(3) 0.4317(3) 1.0096(2)
O6 O 1.3829(3) 0.3526(3) 0.8858(2)
N1 N 0.4892(4) 0.5383(4) 0.7022(3)
N2 N 0.7288(4) 0.6485(4) 0.7577(3)
N3 N 0.5003(4) 0.8420(4) 0.4146(3)
H1 H 0.4257 0.8304 0.3826
N4 N 0.7049(4) 0.9225(4) 0.4533(3)
N5 N 0.8950(4) 0.3602(4) 0.8341(3)
C1 C 0.3720(5) 0.4855(5) 0.6766(4)
H2 H 0.3368 0.4184 0.7163
C2 C 0.2979(6) 0.5248(6) 0.5932(4)
H3 H 0.2156 0.4848 0.5785
C3 C 0.3479(6) 0.6226(6) 0.5336(4)
H4 H 0.2991 0.6517 0.4786
C4 C 0.4735(5) 0.6783(4) 0.5568(3)
C5 C 0.5383(5) 0.7789(5) 0.5004(3)
C6 C 0.6638(5) 0.8307(4) 0.5228(3)
C7 C 0.7340(5) 0.7896(5) 0.6121(4)
C8 C 0.8543(6) 0.8456(6) 0.6434(4)
H5 H 0.8977 0.9098 0.6050
C9 C 0.9077(6) 0.8043(7) 0.7320(5)
H6 H 0.9861 0.8424 0.7560
C10 C 0.8434(6) 0.7051(6) 0.7854(4)
H7 H 0.8829 0.6763 0.8443
C11 C 0.6717(5) 0.6912(4) 0.6712(3)
C12 C 0.5415(5) 0.6349(4) 0.6433(3)
C13 C 0.6024(5) 0.9269(4) 0.3900(3)
C14 C 0.5995(5) 1.0116(4) 0.3014(3)
C15 C 0.5070(6) 0.9959(5) 0.2263(4)
H8 H 0.4418 0.9312 0.2325
C16 C 0.5106(5) 1.0756(5) 0.1422(4)
H9 H 0.4495 1.0627 0.0915
C17 C 0.6041(5) 1.1737(4) 0.1334(3)
C18 C 0.6959(6) 1.1900(5) 0.2080(4)
H10 H 0.7587 1.2567 0.2026
C19 C 0.6960(6) 1.1087(5) 0.2908(4)
H11 H 0.7609 1.1191 0.3395
C20 C 0.6056(4) 1.2658(4) 0.0455(3)
C21 C 0.9157(5) 0.2674(4) 0.7649(3)
C22 C 1.0459(5) 0.2032(5) 0.7446(4)
H12 H 1.0572 0.1397 0.6955
C23 C 1.1588(5) 0.2360(5) 0.7992(4)
H13 H 1.2473 0.1942 0.7871
C24 C 1.1398(4) 0.3306(4) 0.8714(3)
C25 C 1.0055(5) 0.3882(5) 0.8860(4)
H14 H 0.9912 0.4509 0.9356
C26 C 0.7878(5) 0.2381(5) 0.7072(4)
C27 C 1.2626(4) 0.3755(4) 0.9278(3)
La1_2 La 0.61809(3) 1.45056(2) -0.130139(19)
La1_3 La 1.61809(3) 0.45056(2) 0.869861(19)
La1A La 0.38191(3) 1.54944(2) 0.130139(19)
La1A_2 La 1.38191(3) 0.54944(2) 1.130139(19)
O1_2 O 0.5550(3) 0.3804(3) 1.0600(2)
O1A O 0.4450(3) 0.6196(3) 0.9400(2)
O2_2 O 0.6569(5) 0.2296(4) 0.9623(3)
O5A O 0.7650(3) 0.5683(3) 0.9904(2)
O6_2 O 0.3829(3) 0.3526(3) 0.8858(2)
loop_
_geom_bond_atom_site_label_1
_geom_bond_atom_site_label_2
_geom_bond_site_symmetry_1
_geom_bond_site_symmetry_2
La1 O3 1_555 1_555
O1 C20 1_555 1_555
O2 C20 1_555 1_555
O3 C26 1_555 1_555
O4 C26 1_555 1_555
O5 C27 1_555 1_555
O6 C27 1_555 1_555
N1 La1 1_555 1_555
N2 La1 1_555 1_555
N3 H1 1_555 1_555
N4 C6 1_555 1_555
N5 La1 1_555 1_555
C1 N1 1_555 1_555
H2 C1 1_555 1_555
C2 C1 1_555 1_555
H3 C2 1_555 1_555
C3 C2 1_555 1_555
H4 C3 1_555 1_555
C4 C3 1_555 1_555
C5 N3 1_555 1_555
C6 C5 1_555 1_555
C7 C6 1_555 1_555
C8 C7 1_555 1_555
H5 C8 1_555 1_555
C9 C8 1_555 1_555
H6 C9 1_555 1_555
C10 N2 1_555 1_555
H7 C10 1_555 1_555
C11 N2 1_555 1_555
C12 N1 1_555 1_555
C13 N3 1_555 1_555
C14 C13 1_555 1_555
C15 C14 1_555 1_555
H8 C15 1_555 1_555
C16 C15 1_555 1_555
H9 C16 1_555 1_555
C17 C16 1_555 1_555
C18 C17 1_555 1_555
H10 C18 1_555 1_555
C19 C14 1_555 1_555
H11 C19 1_555 1_555
C20 C17 1_555 1_555
C21 N5 1_555 1_555
C22 C21 1_555 1_555
H12 C22 1_555 1_555
C23 C22 1_555 1_555
H13 C23 1_555 1_555
C24 C23 1_555 1_555
C25 N5 1_555 1_555
H14 C25 1_555 1_555
C26 C21 1_555 1_555
C27 C24 1_555 1_555
La1_2 O1 1_555 1_555
La1_3 O6 1_555 1_555
La1A O1 1_555 1_555
La1A_2 O5 1_555 1_555
O1_2 La1 1_555 1_555
O1A La1 1_555 1_555
O2_2 La1 1_555 1_555
O5A La1 1_555 1_555
O6_2 La1 1_555 1_555
O2 La1_2 1_555 1_555
N4 C13 1_555 1_555
C4 C5 1_555 1_555
C4 C12 1_555 1_555
C7 C11 1_555 1_555
C9 C10 1_555 1_555
C11 C12 1_555 1_555
C18 C19 1_555 1_555
C24 C25 1_555 1_555

#END
