
#######################################################################
#
#                 Cambridge Crystallographic Data Centre
#                                CCDC 
#
#######################################################################
#
# If this CIF has been generated from an entry in the Cambridge 
# Structural Database, then it will include bibliographic, chemical, 
# crystal, experimental, refinement or atomic coordinate data resulting 
# from the CCDC's data processing and validation procedures.
#
#######################################################################

data_XUFQIA
_symmetry_cell_setting           triclinic
_symmetry_space_group_name_H-M   'P -1'
_symmetry_Int_Tables_number      2
_space_group_name_Hall           '-P 1'
loop_
_symmetry_equiv_pos_site_id
_symmetry_equiv_pos_as_xyz
1 x,y,z
2 -x,-y,-z
_cell_length_a                   9.3535(19)
_cell_length_b                   10.415(2)
_cell_length_c                   13.264(3)
_cell_angle_alpha                88.99(3)
_cell_angle_beta                 86.53(3)
_cell_angle_gamma                87.04(3)
_cell_volume                     1287.91
loop_
_atom_site_label
_atom_site_type_symbol
_atom_site_fract_x
_atom_site_fract_y
_atom_site_fract_z
Nd1 Nd 0.61828(10) -0.04714(8) 0.87051(6)
C1 C 0.513(2) 0.5801(16) 0.1404(13)
H1 H 0.4487 0.5713 0.0902
O1 O 0.2392(12) -0.0625(12) 1.0089(8)
C2 C -0.0867(18) -0.2293(17) 0.7674(12)
C3 C 0.842(2) 0.206(2) 0.7919(15)
H2 H 0.8789 0.1798 0.8531
O2 O 0.3898(13) -0.1444(11) 0.8863(8)
O3 O 0.5489(15) 0.8846(13) 0.0594(8)
O4 O -0.3343(12) -0.1902(12) 0.7360(9)
C4 C 0.6712(18) 0.1929(16) 0.6766(13)
N1 N -0.1093(15) -0.1333(13) 0.8339(11)
C5 C 0.2662(18) -0.1236(16) 0.9276(12)
N2 N 0.4914(14) 0.0386(13) 0.7027(9)
N3 N 0.7282(16) 0.1464(14) 0.7640(10)
C6 C 0.543(2) 0.2763(18) 0.5017(13)
N4 N 0.7067(17) 0.4227(15) 0.4548(10)
C7 C 0.600(2) 0.5179(17) 0.3001(13)
C8 C 0.1399(18) -0.1648(17) 0.8722(13)
C9 C 0.701(2) 0.6083(17) 0.2930(14)
H3 H 0.7668 0.6158 0.3423
C10 C 0.606(2) 0.6764(16) 0.1319(13)
C11 C 0.510(2) 0.4948(18) 0.2221(13)
H4 H 0.4517 0.4253 0.2251
C12 C 0.475(2) 0.1834(18) 0.5577(13)
N5 N 0.5038(18) 0.3399(17) 0.4162(11)
H5 H 0.4279 0.3270 0.3851
C13 C 0.0422(19) -0.2991(18) 0.7503(14)
H6 H 0.0498 -0.3678 0.7061
C14 C 0.731(2) 0.2936(18) 0.6162(13)
C15 C 0.5422(19) 0.1335(17) 0.6470(13)
C16 C 0.0068(19) -0.1019(17) 0.8840(14)
H7 H -0.0046 -0.0340 0.9288
C17 C 0.701(2) 0.6891(18) 0.2079(14)
H8 H 0.7657 0.7537 0.2017
C18 C 0.6030(19) 0.4272(15) 0.3871(12)
C19 C 0.1590(19) -0.2645(17) 0.8003(13)
H9 H 0.2486 -0.3057 0.7872
C20 C 0.666(2) 0.3344(18) 0.5259(13)
C21 C 0.372(2) -0.0139(17) 0.6772(13)
H10 H 0.3334 -0.0763 0.7202
C22 C 0.302(2) 0.0186(19) 0.5908(14)
H11 H 0.2277 -0.0292 0.5704
C23 C 0.851(2) 0.352(2) 0.6473(14)
H12 H 0.8905 0.4198 0.6113
C24 C 0.346(2) 0.1251(19) 0.5359(14)
H13 H 0.2914 0.1587 0.4844
C25 C 0.910(2) 0.300(2) 0.7390(15)
H14 H 0.9937 0.3319 0.7615
O5 O -0.2077(15) -0.3431(14) 0.6464(10)
C26 C -0.216(2) -0.2578(19) 0.7135(13)
O6 O 0.6611(17) 0.7396(13) -0.0396(10)
C27 C 0.6112(19) 0.776(2) 0.0451(14)
Nd1_2 Nd -0.38172(10) -0.04714(8) 0.87051(6)
Nd1_3 Nd 0.61828(10) 0.95286(8) -0.12949(6)
Nd1A Nd 0.38172(10) 0.04714(8) 1.12949(6)
Nd1A_2 Nd 0.38172(10) 1.04714(8) 0.12949(6)
O1A O 0.7608(12) 0.0625(12) 0.9911(8)
O3_2 O 0.5489(15) -0.1154(13) 1.0594(8)
O3A O 0.4511(15) 0.1154(13) 0.9406(8)
O4_2 O 0.6657(12) -0.1902(12) 0.7360(9)
N1_2 N 0.8907(15) -0.1333(13) 0.8339(11)
O6_2 O 0.6611(17) -0.2604(13) 0.9604(10)
loop_
_geom_bond_atom_site_label_1
_geom_bond_atom_site_label_2
_geom_bond_site_symmetry_1
_geom_bond_site_symmetry_2
Nd1 O2 1_555 1_555
C1 H1 1_555 1_555
O1 C5 1_555 1_555
C2 N1 1_555 1_555
C3 H2 1_555 1_555
O2 C5 1_555 1_555
O3 C27 1_555 1_555
O4 C26 1_555 1_555
C4 N3 1_555 1_555
N1 C16 1_555 1_555
C5 C8 1_555 1_555
N2 Nd1 1_555 1_555
N3 Nd1 1_555 1_555
C6 C12 1_555 1_555
N4 C18 1_555 1_555
C7 C9 1_555 1_555
C8 C16 1_555 1_555
C9 H3 1_555 1_555
C10 C1 1_555 1_555
C11 C1 1_555 1_555
H4 C11 1_555 1_555
C12 C15 1_555 1_555
N5 C6 1_555 1_555
H5 N5 1_555 1_555
C13 C2 1_555 1_555
H6 C13 1_555 1_555
C14 C4 1_555 1_555
C15 C4 1_555 1_555
C16 H7 1_555 1_555
C17 C9 1_555 1_555
H8 C17 1_555 1_555
C18 C7 1_555 1_555
C19 C8 1_555 1_555
H9 C19 1_555 1_555
C20 C6 1_555 1_555
C21 N2 1_555 1_555
H10 C21 1_555 1_555
C22 C21 1_555 1_555
H11 C22 1_555 1_555
C23 C14 1_555 1_555
H12 C23 1_555 1_555
C24 C12 1_555 1_555
H13 C24 1_555 1_555
C25 C3 1_555 1_555
H14 C25 1_555 1_555
O5 C26 1_555 1_555
C26 C2 1_555 1_555
O6 C27 1_555 1_555
C27 C10 1_555 1_555
Nd1_2 O4 1_555 1_555
Nd1_3 O3 1_555 1_555
Nd1A O1 1_555 1_555
Nd1A_2 O3 1_555 1_555
O1A Nd1 1_555 1_555
O3_2 Nd1 1_555 1_555
O3A Nd1 1_555 1_555
O4_2 Nd1 1_555 1_555
N1_2 Nd1 1_555 1_555
O6_2 Nd1 1_555 1_555
C3 N3 1_555 1_555
N1 Nd1_2 1_555 1_555
N2 C15 1_555 1_555
N4 C20 1_555 1_555
C7 C11 1_555 1_555
C10 C17 1_555 1_555
N5 C18 1_555 1_555
C13 C19 1_555 1_555
C14 C20 1_555 1_555
C22 C24 1_555 1_555
C23 C25 1_555 1_555
O6 Nd1_3 1_555 1_555
Nd1A O3_2 1_555 1_555
Nd1A O3A 1_555 1_555

#END
