
#######################################################################
#
#                 Cambridge Crystallographic Data Centre
#                                CCDC 
#
#######################################################################
#
# If this CIF has been generated from an entry in the Cambridge 
# Structural Database, then it will include bibliographic, chemical, 
# crystal, experimental, refinement or atomic coordinate data resulting 
# from the CCDC's data processing and validation procedures.
#
#######################################################################

data_XUFTIB
_symmetry_cell_setting           monoclinic
_symmetry_space_group_name_H-M   'P 21/c'
_symmetry_Int_Tables_number      14
_space_group_name_Hall           '-P 2ybc'
loop_
_symmetry_equiv_pos_site_id
_symmetry_equiv_pos_as_xyz
1 x,y,z
2 x,1/2-y,1/2+z
3 -x,-y,-z
4 -x,1/2+y,1/2-z
_cell_length_a                   11.423(4)
_cell_length_b                   18.521(7)
_cell_length_c                   11.133(4)
_cell_angle_alpha                90
_cell_angle_beta                 112.304(6)
_cell_angle_gamma                90
_cell_volume                     2179.14
loop_
_atom_site_label
_atom_site_type_symbol
_atom_site_fract_x
_atom_site_fract_y
_atom_site_fract_z
C1 C 0.1909(2) 0.01723(14) 0.4978(2)
C2 C 0.7582(3) 0.08324(15) 0.8146(3)
C3 C 0.0862(2) -0.00909(15) 0.3976(3)
H1 H 0.0422 -0.0488 0.4100
C4 C 0.8748(3) 0.09717(18) 0.9236(3)
H2 H 0.8619 0.1355 0.9754
H3 H 0.9392 0.1110 0.8924
H4 H 0.9008 0.0543 0.9754
C5 C 0.0478(3) 0.02479(15) 0.2780(3)
H5 H -0.0233 0.0085 0.2092
C7 C 0.1158(3) 0.08277(15) 0.2617(2)
H6 H 0.0920 0.1058 0.1817
C9 C 0.2201(2) 0.10611(13) 0.3662(2)
C10 C 0.2952(2) 0.17181(14) 0.3601(2)
H10 H 0.2686 0.1878 0.2707
H11 H 0.2785 0.2105 0.4101
C11 C 0.4630(2) 0.11043(13) 0.3191(2)
H12 H 0.4404 0.1355 0.2369
H13 H 0.4140 0.0662 0.3038
C12 C 0.6026(2) 0.09208(14) 0.3709(2)
H14 H 0.6489 0.1323 0.3546
H15 H 0.6323 0.0852 0.4641
C13 C 0.2341(2) -0.01218(14) 0.6344(2)
H16 H 0.1889 -0.0566 0.6339
H17 H 0.2136 0.0223 0.6891
C14 C 0.5058(2) 0.22257(13) 0.4456(2)
H18 H 0.5945 0.2102 0.4895
H19 H 0.4803 0.2501 0.5057
C15 C 0.4911(3) 0.26815(15) 0.3320(3)
C16 C 0.4189(2) -0.03021(14) 0.8309(2)
H20 H 0.5100 -0.0364 0.8637
H21 H 0.4016 0.0152 0.8642
C17 C 0.3631(3) -0.08985(16) 0.8808(3)
N1 N 0.25669(19) 0.07345(11) 0.48187(19)
N2 N 0.6670(2) 0.07247(15) 0.7300(3)
N3 N 0.43175(19) 0.15633(11) 0.41148(19)
N5 N 0.37078(19) -0.02642(11) 0.68922(19)
N6 N 0.4764(3) 0.29970(14) 0.2404(3)
N7 N 0.3185(3) -0.13625(16) 0.9143(3)
Ag1 Ag 0.458683(19) 0.092083(11) 0.624928(18)
N5B N 0.62922(19) 0.02642(11) 0.31078(19)
C13B C 0.7659(2) 0.01218(14) 0.3656(2)
C1B C 0.8091(2) -0.01723(14) 0.5022(2)
C3B C 0.9138(2) 0.00909(15) 0.6024(3)
H1B H 0.9578 0.0488 0.5900
C5B C 0.9522(3) -0.02479(15) 0.7220(3)
H5B H 1.0233 -0.0085 0.7908
C7B C 0.8842(3) -0.08277(15) 0.7383(2)
H6B H 0.9080 -0.1058 0.8183
C9B C 0.7799(2) -0.10611(13) 0.6338(2)
C10B C 0.7048(2) -0.17181(14) 0.6399(2)
H10B H 0.7314 -0.1878 0.7293
H11B H 0.7215 -0.2105 0.5899
N3B N 0.56825(19) -0.15633(11) 0.58852(19)
C11B C 0.5370(2) -0.11043(13) 0.6809(2)
H12B H 0.5596 -0.1355 0.7631
H13B H 0.5860 -0.0662 0.6962
C12B C 0.3974(2) -0.09208(14) 0.6291(2)
H14B H 0.3511 -0.1323 0.6454
H15B H 0.3677 -0.0852 0.5359
C14B C 0.4942(2) -0.22257(13) 0.5544(2)
H18B H 0.4055 -0.2102 0.5105
H19B H 0.5197 -0.2501 0.4943
C15B C 0.5089(3) -0.26815(15) 0.6680(3)
N6B N 0.5236(3) -0.29970(14) 0.7596(3)
N1B N 0.74331(19) -0.07345(11) 0.51813(19)
H16B H 0.8111 0.0566 0.3661
H17B H 0.7864 -0.0223 0.3109
C16B C 0.5811(2) 0.03021(14) 0.1691(2)
H20B H 0.4900 0.0364 0.1363
H21B H 0.5984 -0.0152 0.1358
C17B C 0.6369(3) 0.08985(16) 0.1192(3)
N7B N 0.6815(3) 0.13625(16) 0.0857(3)
Ag1B Ag 0.541317(19) -0.092083(11) 0.375072(18)
C2B C 0.2418(3) -0.08324(15) 0.1854(3)
C4B C 0.1252(3) -0.09717(18) 0.0764(3)
H2B H 0.1381 -0.1355 0.0246
H3B H 0.0608 -0.1110 0.1076
H4B H 0.0992 -0.0543 0.0246
N2B N 0.3330(2) -0.07247(15) 0.2700(3)
Ag1A Ag 0.458683(19) 0.407917(11) 0.124928(18)
N6A N 0.4764(3) 0.20030(14) 0.7404(3)
Ag1C Ag 0.541317(19) -0.407917(11) 0.875072(18)
N6C N 0.5236(3) -0.20030(14) 0.2596(3)
C6 C 0.1130(4) 0.7732(2) 0.3656(5)
C8 C 0.0765(5) 0.7402(2) 0.2371(4)
H7 H 0.0646 0.6892 0.2435
H8 H 0.1419 0.7482 0.2042
H9 H -0.0010 0.7615 0.1791
N4 N 0.1402(4) 0.7978(2) 0.4637(5)
O1 O 0.1840(2) 0.17418(13) 1.0112(2)
O2 O 0.1413(2) 0.12064(14) 0.8100(2)
O3 O 0.2151(3) 0.05026(13) 0.9969(3)
O4 O 0.3504(2) 0.13207(13) 0.9583(2)
Cl1 Cl 0.22285(6) 0.11954(4) 0.94402(6)
loop_
_geom_bond_atom_site_label_1
_geom_bond_atom_site_label_2
_geom_bond_site_symmetry_1
_geom_bond_site_symmetry_2
C1 C3 1_555 1_555
C2 C4 1_555 1_555
C3 H1 1_555 1_555
C4 H2 1_555 1_555
H3 C4 1_555 1_555
H4 C4 1_555 1_555
C5 C3 1_555 1_555
H5 C5 1_555 1_555
C6 C8 1_555 1_555
C7 C5 1_555 1_555
H6 C7 1_555 1_555
C8 H7 1_555 1_555
H8 C8 1_555 1_555
H9 C8 1_555 1_555
C9 C7 1_555 1_555
C10 C9 1_555 1_555
H10 C10 1_555 1_555
H11 C10 1_555 1_555
C11 H12 1_555 1_555
H13 C11 1_555 1_555
C12 C11 1_555 1_555
H14 C12 1_555 1_555
H15 C12 1_555 1_555
C13 C1 1_555 1_555
H16 C13 1_555 1_555
H17 C13 1_555 1_555
C14 H18 1_555 1_555
H19 C14 1_555 1_555
C15 C14 1_555 1_555
C16 H20 1_555 1_555
H21 C16 1_555 1_555
C17 C16 1_555 1_555
N1 C1 1_555 1_555
N2 C2 1_555 1_555
N3 C10 1_555 1_555
N4 C6 1_555 1_555
N5 C13 1_555 1_555
N6 C15 1_555 1_555
N7 C17 1_555 1_555
O1 Cl1 1_555 1_555
O2 Cl1 1_555 1_555
O3 Cl1 1_555 1_555
O4 Cl1 1_555 1_555
Ag1 N1 1_555 1_555
N5B C12 1_555 1_555
C13B N5B 1_555 1_555
C1B C13B 1_555 1_555
C3B C1B 1_555 1_555
H1B C3B 1_555 1_555
C5B C3B 1_555 1_555
H5B C5B 1_555 1_555
C7B C5B 1_555 1_555
H6B C7B 1_555 1_555
C9B C7B 1_555 1_555
C10B C9B 1_555 1_555
H10B C10B 1_555 1_555
H11B C10B 1_555 1_555
N3B C10B 1_555 1_555
C11B N3B 1_555 1_555
H12B C11B 1_555 1_555
H13B C11B 1_555 1_555
C12B N5 1_555 1_555
H14B C12B 1_555 1_555
H15B C12B 1_555 1_555
C14B N3B 1_555 1_555
H18B C14B 1_555 1_555
H19B C14B 1_555 1_555
C15B C14B 1_555 1_555
N6B C15B 1_555 1_555
N1B C1B 1_555 1_555
H16B C13B 1_555 1_555
H17B C13B 1_555 1_555
C16B N5B 1_555 1_555
H20B C16B 1_555 1_555
H21B C16B 1_555 1_555
C17B C16B 1_555 1_555
N7B C17B 1_555 1_555
Ag1B N5B 1_555 1_555
C2B C4B 1_555 1_555
C4B H2B 1_555 1_555
H3B C4B 1_555 1_555
H4B C4B 1_555 1_555
N2B Ag1B 1_555 1_555
Ag1A N6 1_555 1_555
N6A Ag1 1_555 1_555
Ag1C N6B 1_555 1_555
N6C Ag1B 1_555 1_555
C9 N1 1_555 1_555
C11 N3 1_555 1_555
C14 N3 1_555 1_555
C16 N5 1_555 1_555
N2 Ag1 1_555 1_555
N3 Ag1 1_555 1_555
N5 Ag1 1_555 1_555
C9B N1B 1_555 1_555
N3B Ag1B 1_555 1_555
C11B C12B 1_555 1_555
N1B Ag1B 1_555 1_555
C2B N2B 1_555 1_555

#END
