
#######################################################################
#
#                 Cambridge Crystallographic Data Centre
#                                CCDC 
#
#######################################################################
#
# If this CIF has been generated from an entry in the Cambridge 
# Structural Database, then it will include bibliographic, chemical, 
# crystal, experimental, refinement or atomic coordinate data resulting 
# from the CCDC's data processing and validation procedures.
#
#######################################################################

data_XUFTUN
_symmetry_cell_setting           monoclinic
_symmetry_space_group_name_H-M   'C 2/m'
_symmetry_Int_Tables_number      12
_space_group_name_Hall           '-C 2y'
loop_
_symmetry_equiv_pos_site_id
_symmetry_equiv_pos_as_xyz
1 x,y,z
2 1/2+x,1/2+y,z
3 x,-y,z
4 1/2+x,1/2-y,z
5 -x,-y,-z
6 1/2-x,1/2-y,-z
7 -x,y,-z
8 1/2-x,1/2+y,-z
_cell_length_a                   10.644(4)
_cell_length_b                   10.254(4)
_cell_length_c                   8.363(3)
_cell_angle_alpha                90
_cell_angle_beta                 90.96(2)
_cell_angle_gamma                90
_cell_volume                     912.64
loop_
_atom_site_label
_atom_site_type_symbol
_atom_site_fract_x
_atom_site_fract_y
_atom_site_fract_z
Cl1 Cl 0.17371(14) 0.0000 0.7072(2)
O3 O 0.0997(8) 0.0000 0.8415(13)
O4 O 0.2983(9) 0.0000 0.7610(17)
O5 O 0.1602(15) 0.1084(8) 0.6141(13)
O6 O 0.254(3) 0.102(3) 0.706(3)
O7 O 0.095(3) 0.0000 0.574(2)
O5B O 0.1602(15) -0.1084(8) 0.6141(13)
O6B O 0.254(3) -0.102(3) 0.706(3)
Cu1 Cu 0.28656(7) 0.0000 0.15070(9)
O1 O 0.4066(3) 0.1304(3) 0.0595(4)
O2 O 0.1658(4) -0.1427(5) 0.1993(7)
H1 H 0.078(3) -0.130(8) 0.223(12)
H2 H 0.167(7) -0.232(4) 0.159(11)
N1 N 0.4105(5) 0.0000 0.3767(7)
C1 C 0.4557(4) 0.1100(4) 0.4388(6)
H3 H 0.4268 0.1893 0.3987
C2 C 0.5000 0.0754(5) 0.0000
O1F O 0.5934(3) 0.1304(3) -0.0595(4)
C2B C 0.5000 -0.0754(5) 0.0000
O1B O 0.4066(3) -0.1304(3) 0.0595(4)
O1D O 0.5934(3) -0.1304(3) -0.0595(4)
C1F C 0.5443(4) 0.1100(4) 0.5612(6)
N1F N 0.5895(5) 0.0000 0.6233(7)
C1D C 0.5443(4) -0.1100(4) 0.5612(6)
C1B C 0.4557(4) -0.1100(4) 0.4388(6)
H3B H 0.4268 -0.1893 0.3987
H3D H 0.5732 -0.1893 0.6013
H3F H 0.5732 0.1893 0.6013
O2B O 0.1658(4) 0.1427(5) 0.1993(7)
H1B H 0.078(3) 0.130(8) 0.223(12)
H2B H 0.167(7) 0.232(4) 0.159(11)
Cu1F Cu 0.71344(7) 0.0000 -0.15070(9)
O2F O 0.8342(4) -0.1427(5) -0.1993(7)
H1F H 0.922(3) -0.130(8) -0.223(12)
H2F H 0.833(7) -0.232(4) -0.159(11)
O2D O 0.8342(4) 0.1427(5) -0.1993(7)
H1D H 0.922(3) 0.130(8) -0.223(12)
H2D H 0.833(7) 0.232(4) -0.159(11)
Cu1D Cu 0.71344(7) 0.0000 0.84930(9)
N1D N 0.5895(5) 0.0000 -0.3767(7)
loop_
_geom_bond_atom_site_label_1
_geom_bond_atom_site_label_2
_geom_bond_site_symmetry_1
_geom_bond_site_symmetry_2
Cu1 O1 1_555 1_555
O1 C2 1_555 1_555
O2 Cu1 1_555 1_555
H1 O2 1_555 1_555
H2 O2 1_555 1_555
N1 Cu1 1_555 1_555
C1 N1 1_555 1_555
H3 C1 1_555 1_555
C2 O1F 1_555 1_555
Cl1 O3 1_555 1_555
O4 Cl1 1_555 1_555
O5 Cl1 1_555 1_555
O6 Cl1 1_555 1_555
O7 Cl1 1_555 1_555
O1F Cu1F 1_555 1_555
C2B C2 1_555 1_555
O1B Cu1 1_555 1_555
O1D C2B 1_555 1_555
C1F C1 1_555 1_555
N1F C1F 1_555 1_555
C1D N1F 1_555 1_555
C1B N1 1_555 1_555
H3B C1B 1_555 1_555
H3D C1D 1_555 1_555
H3F C1F 1_555 1_555
O5B Cl1 1_555 1_555
O6B Cl1 1_555 1_555
O2B Cu1 1_555 1_555
H1B O2B 1_555 1_555
H2B O2B 1_555 1_555
Cu1F O1D 1_555 1_555
O2F Cu1F 1_555 1_555
H1F O2F 1_555 1_555
H2F O2F 1_555 1_555
O2D Cu1F 1_555 1_555
H1D O2D 1_555 1_555
H2D O2D 1_555 1_555
Cu1D N1F 1_555 1_555
N1D Cu1F 1_555 1_555
O4 O6 1_555 1_555
O4 O6B 1_555 1_555
O5 O7 1_555 1_555
O5 O6 1_555 1_555
O7 O5B 1_555 1_555
C2B O1B 1_555 1_555
C1D C1B 1_555 1_555
O5B O6B 1_555 1_555

#END
