
#######################################################################
#
#                 Cambridge Crystallographic Data Centre
#                                CCDC 
#
#######################################################################
#
# If this CIF has been generated from an entry in the Cambridge 
# Structural Database, then it will include bibliographic, chemical, 
# crystal, experimental, refinement or atomic coordinate data resulting 
# from the CCDC's data processing and validation procedures.
#
#######################################################################

data_XUFTOH
_symmetry_cell_setting           triclinic
_symmetry_space_group_name_H-M   'P -1'
_symmetry_Int_Tables_number      2
_space_group_name_Hall           '-P 1'
loop_
_symmetry_equiv_pos_site_id
_symmetry_equiv_pos_as_xyz
1 x,y,z
2 -x,-y,-z
_cell_length_a                   6.081(3)
_cell_length_b                   13.402(4)
_cell_length_c                   16.185(5)
_cell_angle_alpha                65.85(3)
_cell_angle_beta                 91.23(3)
_cell_angle_gamma                82.25(3)
_cell_volume                     1188.31
loop_
_atom_site_label
_atom_site_type_symbol
_atom_site_fract_x
_atom_site_fract_y
_atom_site_fract_z
Cu1 Cu 0.14818(11) 0.27985(6) 0.24859(5)
Cu2 Cu -0.16362(11) 0.52884(6) 0.22336(5)
O1 O 0.5386(6) 0.2616(3) 0.2631(3)
O2 O 0.2044(6) 0.4280(3) 0.2413(3)
O3 O 0.4548(7) 0.5401(3) 0.2249(3)
O4 O 0.7868(6) 0.3752(3) 0.2454(3)
O5 O -0.1732(7) 0.5721(4) 0.0919(3)
O6 O 0.1486(7) 0.3354(3) 0.1162(3)
N1 N 0.1567(9) 0.2108(4) 0.3845(4)
H1 H 0.2650 0.2330 0.4085
H2 H 0.0257 0.2310 0.4025
N2 N 0.1003(8) 0.1277(4) 0.2566(4)
N3 N -0.1286(9) 0.6873(4) 0.2073(4)
N4 N -0.1183(10) 0.4897(5) 0.3571(4)
H3 H -0.2312 0.4563 0.3855
H4 H 0.0093 0.4419 0.3805
C1 C 0.2007(12) 0.0895(6) 0.4147(5)
H5 H 0.1643 0.0526 0.4770
H6 H 0.3567 0.0652 0.4115
C2 C 0.0566(13) 0.0630(6) 0.3522(5)
H7 H 0.0883 -0.0155 0.3668
H8 H -0.0991 0.0810 0.3603
C3 C 0.4012(9) 0.4500(5) 0.2374(4)
C4 C 0.5923(10) 0.3521(5) 0.2496(4)
C5 C -0.0021(15) 0.6677(7) 0.2943(6)
H9 H -0.0036 0.7373 0.2996
H10 H 0.1515 0.6363 0.2948
C6 C -0.1084(16) 0.5893(7) 0.3728(5)
H11 H -0.0208 0.5705 0.4294
H12 H -0.2571 0.6233 0.3763
C7 C -0.0738(9) 0.5295(5) 0.0442(4)
C8 C 0.0640(10) 0.4264(5) 0.0548(4)
C9 C -0.0805(11) 0.1299(6) 0.1919(5)
H13 H -0.0754 0.1887 0.1323
H14 H -0.2254 0.1411 0.2134
C10 C -0.0361(14) 0.0177(6) 0.1885(6)
H15 H -0.1094 -0.0356 0.2354
H16 H -0.0891 0.0227 0.1298
C11 C 0.2141(13) -0.0155(6) 0.2045(6)
H17 H 0.2773 -0.0149 0.1498
H18 H 0.2540 -0.0891 0.2530
C12 C 0.2973(11) 0.0715(6) 0.2309(5)
H19 H 0.4104 0.0364 0.2816
H20 H 0.3608 0.1246 0.1801
C13 C 0.0002(13) 0.7496(6) 0.1309(6)
H21 H 0.1054 0.6991 0.1165
H22 H 0.0814 0.7979 0.1464
C14 C -0.1727(17) 0.8171(7) 0.0506(6)
H23 H -0.1586 0.7898 0.0036
H24 H -0.1558 0.8947 0.0248
C15 C -0.3989(15) 0.8012(9) 0.0914(7)
H25 H -0.4997 0.8710 0.0690
H26 H -0.4671 0.7488 0.0762
C16 C -0.3459(13) 0.7584(7) 0.1898(7)
H27 H -0.4579 0.7160 0.2226
H28 H -0.3372 0.8184 0.2079
C7A C 0.0738(9) 0.4705(5) -0.0442(4)
O5A O 0.1732(7) 0.4279(4) -0.0919(3)
C8A C -0.0640(10) 0.5736(5) -0.0548(4)
O6A O -0.1486(7) 0.6646(3) -0.1162(3)
O1_2 O -0.4614(6) 0.2616(3) 0.2631(3)
O2_2 O -0.7956(6) 0.4280(3) 0.2413(3)
O3_2 O -0.5452(7) 0.5401(3) 0.2249(3)
O4_2 O -0.2132(6) 0.3752(3) 0.2454(3)
C3_2 C -0.5988(9) 0.4500(5) 0.2374(4)
C4_2 C -0.4077(10) 0.3521(5) 0.2496(4)
Cu1_2 Cu -0.85182(11) 0.27985(6) 0.24859(5)
Cu2_2 Cu -1.16362(11) 0.52884(6) 0.22336(5)
N1_2 N -0.8433(9) 0.2108(4) 0.3845(4)
H1_2 H -0.7350 0.2330 0.4085
H2_2 H -0.9743 0.2310 0.4025
N2_2 N -0.8997(8) 0.1277(4) 0.2566(4)
C1_2 C -0.7993(12) 0.0895(6) 0.4147(5)
H5_2 H -0.8357 0.0526 0.4770
H6_2 H -0.6433 0.0652 0.4115
C2_2 C -0.9434(13) 0.0630(6) 0.3522(5)
H7_2 H -0.9117 -0.0155 0.3668
H8_2 H -1.0991 0.0810 0.3603
C9_2 C -1.0805(11) 0.1299(6) 0.1919(5)
H13_2 H -1.0754 0.1887 0.1323
H14_2 H -1.2254 0.1411 0.2134
C10_2 C -1.0361(14) 0.0177(6) 0.1885(6)
H15_2 H -1.1094 -0.0356 0.2354
H16_2 H -1.0891 0.0227 0.1298
C11_2 C -0.7859(13) -0.0155(6) 0.2045(6)
H17_2 H -0.7227 -0.0149 0.1498
H18_2 H -0.7460 -0.0891 0.2530
C12_2 C -0.7027(11) 0.0715(6) 0.2309(5)
H19_2 H -0.5896 0.0364 0.2816
H20_2 H -0.6392 0.1246 0.1801
N3_2 N -1.1286(9) 0.6873(4) 0.2073(4)
N4_2 N -1.1183(10) 0.4897(5) 0.3571(4)
H3_2 H -1.2312 0.4563 0.3855
H4_2 H -0.9907 0.4419 0.3805
C5_2 C -1.0021(15) 0.6677(7) 0.2943(6)
H9_2 H -1.0036 0.7373 0.2996
H10_2 H -0.8485 0.6363 0.2948
C6_2 C -1.1084(16) 0.5893(7) 0.3728(5)
H11_2 H -1.0208 0.5705 0.4294
H12_2 H -1.2571 0.6233 0.3763
C13_2 C -0.9998(13) 0.7496(6) 0.1309(6)
H21_2 H -0.8946 0.6991 0.1165
H22_2 H -0.9186 0.7979 0.1464
C14_2 C -1.1727(17) 0.8171(7) 0.0506(6)
H23_2 H -1.1586 0.7898 0.0036
H24_2 H -1.1558 0.8947 0.0248
C15_2 C -1.3989(15) 0.8012(9) 0.0914(7)
H25_2 H -1.4997 0.8710 0.0690
H26_2 H -1.4671 0.7488 0.0762
C16_2 C -1.3459(13) 0.7584(7) 0.1898(7)
H27_2 H -1.4579 0.7160 0.2226
H28_2 H -1.3372 0.8184 0.2079
Cu2_3 Cu 0.83638(11) 0.52884(6) 0.22336(5)
Cu1_3 Cu 1.14818(11) 0.27985(6) 0.24859(5)
Cu2A Cu 0.16362(11) 0.47116(6) -0.22336(5)
Cu1A Cu -0.14818(11) 0.72015(6) -0.24859(5)
O4_3 O -1.2132(6) 0.3752(3) 0.2454(3)
O6_2 O -0.8514(7) 0.3354(3) 0.1162(3)
O3_3 O -1.5452(7) 0.5401(3) 0.2249(3)
O5_2 O -1.1732(7) 0.5721(4) 0.0919(3)
O7 O 0.600(5) 0.341(3) 0.027(2)
Cl1 Cl 0.5972(3) 0.25957(17) 0.52386(13)
O8 O 0.4601(12) 0.3491(5) 0.4536(5)
O9 O 0.797(2) 0.2336(13) 0.4987(10)
O10 O 0.479(2) 0.1704(9) 0.5557(11)
O11 O 0.624(2) 0.2906(13) 0.5961(8)
O12? O 0.651(3) 0.1809(15) 0.4847(14)
O13? O 0.494(3) 0.2115(18) 0.5997(11)
O14? O 0.799(3) 0.2876(16) 0.5399(15)
loop_
_geom_bond_atom_site_label_1
_geom_bond_atom_site_label_2
_geom_bond_site_symmetry_1
_geom_bond_site_symmetry_2
Cu1 O1 1_555 1_555
Cu2 O2 1_555 1_555
O1 C4 1_555 1_555
O2 Cu1 1_555 1_555
O3 C3 1_555 1_555
O4 C4 1_555 1_555
O5 Cu2 1_555 1_555
O6 Cu1 1_555 1_555
N1 Cu1 1_555 1_555
H1 N1 1_555 1_555
H2 N1 1_555 1_555
N2 Cu1 1_555 1_555
N3 Cu2 1_555 1_555
N4 Cu2 1_555 1_555
H3 N4 1_555 1_555
H4 N4 1_555 1_555
C1 N1 1_555 1_555
H5 C1 1_555 1_555
H6 C1 1_555 1_555
C2 N2 1_555 1_555
H7 C2 1_555 1_555
H8 C2 1_555 1_555
C3 O2 1_555 1_555
C4 C3 1_555 1_555
C5 N3 1_555 1_555
H9 C5 1_555 1_555
H10 C5 1_555 1_555
C6 N4 1_555 1_555
H11 C6 1_555 1_555
H12 C6 1_555 1_555
C7 O5 1_555 1_555
C8 O6 1_555 1_555
C9 N2 1_555 1_555
H13 C9 1_555 1_555
H14 C9 1_555 1_555
C10 C9 1_555 1_555
H15 C10 1_555 1_555
H16 C10 1_555 1_555
C11 C10 1_555 1_555
H17 C11 1_555 1_555
H18 C11 1_555 1_555
C12 N2 1_555 1_555
H19 C12 1_555 1_555
H20 C12 1_555 1_555
C13 N3 1_555 1_555
H21 C13 1_555 1_555
H22 C13 1_555 1_555
C14 C13 1_555 1_555
H23 C14 1_555 1_555
H24 C14 1_555 1_555
C15 C14 1_555 1_555
H25 C15 1_555 1_555
H26 C15 1_555 1_555
C16 N3 1_555 1_555
H27 C16 1_555 1_555
H28 C16 1_555 1_555
Cl1 O8 1_555 1_555
O9 Cl1 1_555 1_555
O10 Cl1 1_555 1_555
O11 Cl1 1_555 1_555
C7A C8 1_555 1_555
O5A C7A 1_555 1_555
C8A C7 1_555 1_555
O6A C8A 1_555 1_555
O1_2 C4_2 1_555 1_555
O2_2 C3_2 1_555 1_555
O3_2 Cu2 1_555 1_555
O4_2 Cu1 1_555 1_555
C3_2 O3_2 1_555 1_555
C4_2 O4_2 1_555 1_555
Cu1_2 O1_2 1_555 1_555
Cu2_2 O2_2 1_555 1_555
N1_2 Cu1_2 1_555 1_555
H1_2 N1_2 1_555 1_555
H2_2 N1_2 1_555 1_555
N2_2 Cu1_2 1_555 1_555
C1_2 N1_2 1_555 1_555
H5_2 C1_2 1_555 1_555
H6_2 C1_2 1_555 1_555
C2_2 N2_2 1_555 1_555
H7_2 C2_2 1_555 1_555
H8_2 C2_2 1_555 1_555
C9_2 N2_2 1_555 1_555
H13_2 C9_2 1_555 1_555
H14_2 C9_2 1_555 1_555
C10_2 C9_2 1_555 1_555
H15_2 C10_2 1_555 1_555
H16_2 C10_2 1_555 1_555
C11_2 C10_2 1_555 1_555
H17_2 C11_2 1_555 1_555
H18_2 C11_2 1_555 1_555
C12_2 N2_2 1_555 1_555
H19_2 C12_2 1_555 1_555
H20_2 C12_2 1_555 1_555
N3_2 Cu2_2 1_555 1_555
N4_2 Cu2_2 1_555 1_555
H3_2 N4_2 1_555 1_555
H4_2 N4_2 1_555 1_555
C5_2 N3_2 1_555 1_555
H9_2 C5_2 1_555 1_555
H10_2 C5_2 1_555 1_555
C6_2 N4_2 1_555 1_555
H11_2 C6_2 1_555 1_555
H12_2 C6_2 1_555 1_555
C13_2 N3_2 1_555 1_555
H21_2 C13_2 1_555 1_555
H22_2 C13_2 1_555 1_555
C14_2 C13_2 1_555 1_555
H23_2 C14_2 1_555 1_555
H24_2 C14_2 1_555 1_555
C15_2 C14_2 1_555 1_555
H25_2 C15_2 1_555 1_555
H26_2 C15_2 1_555 1_555
C16_2 N3_2 1_555 1_555
H27_2 C16_2 1_555 1_555
H28_2 C16_2 1_555 1_555
Cu2_3 O3 1_555 1_555
Cu1_3 O4 1_555 1_555
Cu2A O5A 1_555 1_555
Cu1A O6A 1_555 1_555
O4_3 Cu1_2 1_555 1_555
O6_2 Cu1_2 1_555 1_555
O3_3 Cu2_2 1_555 1_555
O5_2 Cu2_2 1_555 1_555
Cu2 O4_2 1_555 1_555
O4 Cu2_3 1_555 1_555
C1 C2 1_555 1_555
C5 C6 1_555 1_555
C7 C8 1_555 1_555
C11 C12 1_555 1_555
C15 C16 1_555 1_555
C7A C8A 1_555 1_555
O2_2 Cu1_2 1_555 1_555
C3_2 C4_2 1_555 1_555
Cu2_2 O4_3 1_555 1_555
C1_2 C2_2 1_555 1_555
C11_2 C12_2 1_555 1_555
C5_2 C6_2 1_555 1_555
C15_2 C16_2 1_555 1_555

#END
