
#######################################################################
#
#                 Cambridge Crystallographic Data Centre
#                                CCDC 
#
#######################################################################
#
# If this CIF has been generated from an entry in the Cambridge 
# Structural Database, then it will include bibliographic, chemical, 
# crystal, experimental, refinement or atomic coordinate data resulting 
# from the CCDC's data processing and validation procedures.
#
#######################################################################

data_XUFTID
_symmetry_cell_setting           monoclinic
_symmetry_space_group_name_H-M   'P 21/c'
_symmetry_Int_Tables_number      14
_space_group_name_Hall           '-P 2ybc'
loop_
_symmetry_equiv_pos_site_id
_symmetry_equiv_pos_as_xyz
1 x,y,z
2 -x,1/2+y,1/2-z
3 -x,-y,-z
4 x,1/2-y,1/2+z
_cell_length_a                   20.6746(7)
_cell_length_b                   18.6770(3)
_cell_length_c                   40.0092(14)
_cell_angle_alpha                90
_cell_angle_beta                 132.674(6)
_cell_angle_gamma                90
_cell_volume                     11358.5
loop_
_atom_site_label
_atom_site_type_symbol
_atom_site_fract_x
_atom_site_fract_y
_atom_site_fract_z
Cu1 Cu 0.06288(4) 0.26009(4) 0.54790(2)
Cu2 Cu 0.27223(5) -0.03396(4) 0.84925(2)
Cu3 Cu 0.42225(5) 0.25280(4) 0.72017(2)
Cl1 Cl 0.09734(9) 0.14269(7) 0.57279(5)
Cl2 Cl 0.09425(8) 0.38137(6) 0.56515(4)
Cl3 Cl 0.28226(10) 0.29801(10) 0.66764(7)
Cl4 Cl 0.21590(8) -0.07176(8) 0.88040(4)
Cl5 Cl -0.07338(8) 0.25621(7) 0.46395(4)
Cl6 Cl 0.54969(9) 0.23361(10) 0.79593(5)
Cl7 Cl 0.31254(13) 0.06196(12) 0.82965(5)
Cl8 Cl 0.30511(11) -0.13592(11) 0.82389(5)
Cl9 Cl 0.44155(10) 0.18169(9) 0.67496(5)
N1 N 0.2221(3) 0.5709(2) 0.53242(14)
N2 N 0.1955(2) 0.1996(2) 0.54732(12)
H1 H 0.2081 0.1677 0.5664
N3 N -0.0026(3) -0.0591(2) 0.56998(13)
N4 N 0.3647(3) 0.5273(2) 0.63230(15)
H2 H 0.3241 0.4899 0.6248
H3 H 0.3846 0.5167 0.6168
C1 C 0.5951(5) 0.1522(3) 0.6063(3)
H4 H 0.5405 0.1365 0.5770
H5 H 0.6374 0.1136 0.6187
N5 N 0.5796(3) 0.1646(3) 0.63679(18)
C2 C 0.0055(4) -0.0061(3) 0.7304(2)
H6 H -0.0509 0.0124 0.7131
C3 C 0.2307(3) 0.2020(2) 0.52885(15)
N6 N 0.3433(3) 0.1097(2) 0.69851(13)
H7 H 0.3466 0.1044 0.6783
N7 N 0.0509(3) 0.3234(2) 0.68900(16)
H8 H 0.1034 0.3268 0.6937
H9 H 0.0429 0.2735 0.6922
C4 C 0.5497(4) 0.4197(3) 0.71215(16)
H10 H 0.5926 0.4396 0.7134
N8 N 0.0118(3) 0.3130(2) 0.59736(14)
H11 H 0.0503 0.3464 0.6089
N9 N 0.1381(3) 0.2534(2) 0.53220(13)
N10 N 0.0032(3) -0.0823(2) 0.64617(14)
H12 H 0.0642 -0.0956 0.6640
H13 H -0.0026 -0.0316 0.6392
C5 C 0.2740(3) -0.0094(2) 0.68388(16)
H14 H 0.2677 -0.0416 0.7006
H15 H 0.3153 -0.0307 0.6828
N11 N -0.0071(3) 0.2649(2) 0.56659(14)
C6 C 0.1935(3) 0.2603(3) 0.49991(15)
H16 H 0.2039 0.2757 0.4818
N12 N 0.6110(3) 0.2675(3) 0.70439(16)
H17 H 0.6397 0.3042 0.7012
H18 H 0.5511 0.2625 0.6754
N13 N 0.3509(3) 0.56092(19) 0.52273(12)
H19 H 0.3304 0.5141 0.5226
H20 H 0.3932 0.5776 0.5539
C7 C 0.5341(4) 0.1010(3) 0.6342(2)
H21 H 0.5360 0.1029 0.6591
H22 H 0.5659 0.0586 0.6384
N14 N 0.4340(3) 0.4043(2) 0.70326(14)
H23 H 0.3865 0.4132 0.6975
N15 N 0.1483(3) -0.0258(2) 0.78837(15)
N16 N 0.3096(3) 0.2142(2) 0.78799(15)
H24 H 0.2513 0.2183 0.7579
H25 H 0.3121 0.1699 0.8015
N17 N 0.1193(3) -0.0652(3) 0.75234(14)
H26 H 0.1518 -0.0936 0.7522
C8 C -0.0914(4) 0.2460(3) 0.5822(2)
H27 H -0.1336 0.2267 0.5817
C9 C 0.6289(5) 0.2170(4) 0.5991(3)
H28 H 0.6876 0.2287 0.6275
H29 H 0.6330 0.2052 0.5770
C10 C 0.4400(4) 0.0936(3) 0.5906(2)
H30 H 0.4378 0.0901 0.5656
H31 H 0.4162 0.0496 0.5914
N18 N 0.6038(3) 0.4614(2) 0.58886(14)
C11 C 0.1560(4) -0.0702(3) 0.61081(18)
H32 H 0.1594 -0.1077 0.6287
H33 H 0.1945 -0.0833 0.6059
N19 N 0.5501(3) 0.5183(2) 0.57149(13)
H34 H 0.5649 0.5599 0.5840
C12 C 0.1502(5) 0.3548(3) 0.7704(2)
H35 H 0.1523 0.3809 0.7921
H36 H 0.1949 0.3750 0.7715
N20 N 0.1868(3) -0.0008(2) 0.63658(13)
H37 H 0.1916 0.0350 0.6208
H38 H 0.1439 0.0158 0.6377
N21 N 0.4740(3) 0.3406(2) 0.71705(13)
N22 N 0.3838(3) 0.1550(2) 0.58182(15)
H39 H 0.3832 0.1575 0.6058
H40 H 0.4081 0.1994 0.5819
N23 N -0.0817(3) 0.0917(2) 0.54484(14)
H41 H -0.1146 0.0777 0.5530
H42 H -0.0198 0.0931 0.5723
C13 C -0.0371(4) 0.3020(3) 0.60764(18)
C14 C 0.4769(4) 0.4530(3) 0.69935(17)
C15 C 0.3770(4) 0.2122(3) 0.78417(18)
H43 H 0.3791 0.2585 0.7739
H44 H 0.4345 0.2028 0.8138
C16 C 0.3096(3) 0.0605(2) 0.70827(15)
N24 N 0.3706(3) 0.1674(2) 0.72486(13)
C17 C 0.2257(4) 0.5903(4) 0.5689(2)
H45 H 0.1943 0.5541 0.5706
H46 H 0.1946 0.6352 0.5609
C18 C 0.6655(4) 0.1742(3) 0.6837(2)
H47 H 0.6995 0.2094 0.6833
H48 H 0.6975 0.1293 0.6940
C19 C -0.0899(4) -0.0379(3) 0.52596(16)
H49 H -0.1339 -0.0462 0.5277
H50 H -0.1039 -0.0688 0.5023
C20 C 0.3169(5) 0.5982(3) 0.6155(2)
H51 H 0.3501 0.6326 0.6140
H52 H 0.3125 0.6161 0.6366
C21 C 0.2919(3) 0.1459(3) 0.53700(17)
H53 H 0.2704 0.0990 0.5359
H54 H 0.2923 0.1481 0.5129
C22 C 0.4684(3) 0.5009(3) 0.53119(16)
C23 C -0.0126(4) -0.1298(3) 0.58279(18)
H55 H 0.0448 -0.1519 0.6050
H56 H -0.0485 -0.1603 0.5561
N25 N 0.5710(3) 0.2808(3) 0.58297(18)
H57 H 0.5778 0.3002 0.6077
H58 H 0.5100 0.2670 0.5586
C24 C 0.5460(3) 0.3490(3) 0.72298(15)
N26 N 0.1728(4) 0.2793(3) 0.78498(17)
C25 C 0.2670(4) 0.2726(3) 0.8264(2)
H59 H 0.2766 0.2275 0.8412
H60 H 0.2832 0.3109 0.8473
C26 C -0.0546(4) -0.1246(3) 0.60245(18)
H61 H -0.1116 -0.1016 0.5806
H62 H -0.0636 -0.1724 0.6082
C27 C -0.0259(5) 0.3476(3) 0.6423(2)
H63 H -0.0177 0.3972 0.6387
H64 H -0.0786 0.3448 0.6375
N27 N 0.1413(3) 0.4224(2) 0.50224(15)
H65 H 0.1718 0.4279 0.4918
H66 H 0.1852 0.4159 0.5349
C28 C -0.0710(3) 0.2234(3) 0.55701(17)
C29 C 0.0333(3) -0.0545(3) 0.71671(17)
C30 C -0.0964(4) 0.0384(3) 0.51243(17)
H67 H -0.0533 0.0465 0.5100
H68 H -0.1542 0.0463 0.4826
C31 C 0.1220(5) 0.1596(4) 0.7916(3)
H69 H 0.1045 0.1433 0.7634
H70 H 0.1820 0.1440 0.8166
C32 C 0.6093(3) 0.2901(3) 0.73944(17)
H71 H 0.5933 0.2495 0.7477
H72 H 0.6677 0.3057 0.7665
C33 C -0.1108(3) 0.1635(3) 0.52337(17)
H73 H -0.1744 0.1664 0.5028
H74 H -0.0953 0.1695 0.5055
C34 C 0.3255(4) 0.2759(3) 0.8165(2)
H75 H 0.3147 0.3203 0.8008
H76 H 0.3866 0.2757 0.8449
C35 C 0.3552(3) 0.1553(2) 0.75139(14)
C36 C 0.0790(4) 0.0100(3) 0.7755(2)
C37 C 0.1378(3) 0.2907(3) 0.50362(15)
C38 C 0.3959(3) 0.5543(3) 0.50465(16)
H77 H 0.3531 0.5399 0.4730
H78 H 0.4195 0.6005 0.5064
N28 N 0.0656(5) 0.1306(4) 0.7962(3)
H79 H 0.0050 0.1358 0.7678
H80 H 0.0728 0.1566 0.8195
C39 C 0.0635(5) 0.3668(3) 0.7246(2)
H81 H 0.0573 0.4172 0.7170
H82 H 0.0179 0.3545 0.7245
C40 C 0.0624(4) -0.0645(3) 0.56535(17)
H83 H 0.0574 -0.0226 0.5494
H84 H 0.0490 -0.1062 0.5472
C41 C 0.4418(4) 0.5271(3) 0.68233(18)
H85 H 0.4245 0.5465 0.6977
H86 H 0.4877 0.5574 0.6893
C42 C 0.2752(3) 0.6111(3) 0.49519(18)
H87 H 0.2255 0.5884 0.4669
H88 H 0.2909 0.6535 0.4880
C43 C 0.2508(4) 0.6319(3) 0.5219(2)
H89 H 0.3012 0.6543 0.5501
H90 H 0.2038 0.6670 0.5046
C44 C 0.3163(3) 0.0883(2) 0.74243(16)
H91 H 0.2990 0.0672 0.7564
C45 C 0.4717(4) 0.4303(3) 0.52334(17)
H92 H 0.4262 0.4028 0.4986
C46 C 0.0889(3) 0.4896(3) 0.4911(2)
H93 H 0.0298 0.4838 0.4617
H94 H 0.0844 0.4958 0.5135
C47 C 0.5956(4) 0.3365(3) 0.5662(2)
H95 H 0.6591 0.3408 0.5877
H96 H 0.5758 0.3209 0.5374
C48 C -0.0209(4) -0.0953(4) 0.67319(18)
H97 H -0.0150 -0.1460 0.6799
H98 H -0.0823 -0.0826 0.6549
C49 C 0.5570(4) 0.4083(3) 0.55988(17)
C50 C 0.0840(3) 0.3573(3) 0.48061(15)
H99 H 0.0538 0.3559 0.4487
H100 H 0.0400 0.3597 0.4827
C51 C 0.1296(4) 0.5559(3) 0.4903(2)
H101 H 0.1270 0.5516 0.4653
H102 H 0.0939 0.5968 0.4841
C52 C 0.6589(4) 0.1975(3) 0.7167(2)
H103 H 0.7177 0.2022 0.7465
H104 H 0.6286 0.1608 0.7188
C53 C 0.0850(5) 0.0557(4) 0.8083(3)
H105 H 0.0445 0.0371 0.8108
H106 H 0.1439 0.0516 0.8381
C54 C 0.1160(6) 0.2465(5) 0.7915(3)
H107 H 0.0555 0.2616 0.7672
H108 H 0.1353 0.2625 0.8202
Cu2A Cu 0.72777(5) 0.46604(4) 0.65075(2)
N18A N 0.3962(3) -0.0386(2) 0.91114(14)
Cl10 Cl 0.07846(8) 0.07465(6) 0.65686(4)
Cl11 Cl 0.43773(8) 0.32294(7) 0.59933(5)
Cl12 Cl 0.18055(11) -0.15592(12) 0.70461(6)
Cl13 Cl 0.28124(8) 0.04373(7) 0.60304(4)
Cl14 Cl 0.51330(13) 0.15964(13) 0.89694(8)
Cl15 Cl -0.1525(3) 0.0423(3) 0.59120(16)
Cl16 Cl -0.3224(3) 0.2067(2) 0.52362(16)
O1 O 0.28797(18) 0.38410(18) 0.59398(9)
H109 H 0.2666 0.3587 0.6022
H110 H 0.3229 0.3589 0.5946
O2 O 0.2883(3) 0.41492(18) 0.50668(12)
H111 H 0.3296 0.3943 0.5295
H112 H 0.2845 0.4144 0.4843
O3 O 0.0072(3) 0.1808(2) 0.68818(15)
H113 H 0.0315 0.1490 0.6845
H114 H -0.0472 0.1714 0.6712
O4 O 0.1542(7) 0.3973(4) 0.6775(3)
O5 O 0.1693(3) 0.2281(2) 0.69179(13)
H115 H 0.189(5) 0.234(4) 0.680(3)
H116 H 0.165(4) 0.1846(12) 0.6872(8)
O6 O 0.2622(3) 0.4744(3) 0.64998(17)
H117 H 0.2273 0.4390 0.6367
H118 H 0.2383 0.5084 0.6523
O7 O 0.4664(3) 0.4880(2) 0.61239(15)
H119 H 0.4721 0.4437 0.6102
H120 H 0.5054 0.5115 0.6156
Cl17 Cl 0.2965(2) -0.0527(2) 0.52016(18)
O8 O 0.2857(6) -0.0001(11) 0.4554(4)
O9 O 0.4408(6) 0.2014(5) 0.9438(2)
O10 O 0.3480(12) -0.0879(9) 0.6045(5)
H121 H 0.3178(14) -0.0483(11) 0.5944(5)
H122 H 0.3629(13) -0.0953(9) 0.6279(6)
O11 O -0.0634(8) 0.5385(3) 0.6036(3)
Cl22 Cl 0.2558(5) 0.2611(5) 0.4230(2)
O15 O 0.3811(7) 0.4125(5) 0.7719(3)
O16 O 0.5898(9) 0.4026(11) 0.8242(4)
O17 O 0.1056(9) -0.2488(7) 0.7380(6)
O18 O 0.2439(11) 0.6062(9) 0.6815(4)
O19 O 0.6244(10) 0.2945(6) 0.9260(6)
O20 O -0.1248(8) 0.2911(6) 0.6875(5)
O21 O -0.1262(6) 0.1542(6) 0.7054(5)
O22 O -0.1821(6) 0.1503(8) 0.6307(4)
O23 O 0.5795(11) 0.0651(7) 0.7464(5)
O24 O 0.0527(13) 0.581(2) 0.6509(7)
O25 O 0.7208(11) 0.3044(14) 0.9082(6)
O26 O -0.1812(17) 0.2769(9) 0.3580(5)
O28 O -0.1224(9) 0.0660(14) 0.7724(5)
O29 O 0.279(2) 0.4968(12) 0.7630(8)
Cl18? Cl 0.2946(3) -0.0758(4) 0.4663(2)
Cl19? Cl 0.0975(7) 0.2956(4) 0.3747(3)
Cl20? Cl 0.3878(5) 0.2283(6) 0.5023(2)
Cl21? Cl 0.3337(5) 0.2680(5) 0.4417(2)
Cl23? Cl 0.2828(6) 0.3735(4) 0.4140(2)
Cl24? Cl 0.2618(6) 0.3431(6) 0.4320(3)
O12? O 0.2448(8) 0.1432(11) 0.4080(6)
O13? O 0.2196(8) 0.2051(6) 0.4122(4)
O14? O 0.1877(10) 0.3909(7) 0.4174(4)
O27? O -0.2367(11) 0.2456(11) 0.3643(5)
loop_
_geom_bond_atom_site_label_1
_geom_bond_atom_site_label_2
_geom_bond_site_symmetry_1
_geom_bond_site_symmetry_2
Cu1 Cl1 1_555 1_555
Cu2 Cl4 1_555 1_555
Cu3 Cl3 1_555 1_555
Cl2 Cu1 1_555 1_555
Cl5 Cu1 1_555 1_555
Cl6 Cu3 1_555 1_555
Cl7 Cu2 1_555 1_555
Cl8 Cu2 1_555 1_555
Cl9 Cu3 1_555 1_555
N1 C17 1_555 1_555
N2 H1 1_555 1_555
N3 C19 1_555 1_555
N4 H2 1_555 1_555
H3 N4 1_555 1_555
C1 H4 1_555 1_555
H5 C1 1_555 1_555
N5 C1 1_555 1_555
C2 H6 1_555 1_555
C3 N2 1_555 1_555
N6 H7 1_555 1_555
N7 H8 1_555 1_555
H9 N7 1_555 1_555
C4 H10 1_555 1_555
N8 H11 1_555 1_555
N9 Cu1 1_555 1_555
N10 H12 1_555 1_555
H13 N10 1_555 1_555
C5 H14 1_555 1_555
H15 C5 1_555 1_555
N11 Cu1 1_555 1_555
C6 C3 1_555 1_555
H16 C6 1_555 1_555
N12 H17 1_555 1_555
H18 N12 1_555 1_555
N13 H19 1_555 1_555
H20 N13 1_555 1_555
C7 N5 1_555 1_555
H21 C7 1_555 1_555
H22 C7 1_555 1_555
N14 H23 1_555 1_555
N15 Cu2 1_555 1_555
N16 H24 1_555 1_555
H25 N16 1_555 1_555
N17 N15 1_555 1_555
H26 N17 1_555 1_555
C8 H27 1_555 1_555
C9 C1 1_555 1_555
H28 C9 1_555 1_555
H29 C9 1_555 1_555
C10 C7 1_555 1_555
H30 C10 1_555 1_555
H31 C10 1_555 1_555
N18 N19 1_555 1_555
C11 H32 1_555 1_555
H33 C11 1_555 1_555
N19 H34 1_555 1_555
C12 H35 1_555 1_555
H36 C12 1_555 1_555
N20 C5 1_555 1_555
H37 N20 1_555 1_555
H38 N20 1_555 1_555
N21 Cu3 1_555 1_555
N22 C10 1_555 1_555
H39 N22 1_555 1_555
H40 N22 1_555 1_555
N23 H41 1_555 1_555
H42 N23 1_555 1_555
C13 N8 1_555 1_555
C14 C4 1_555 1_555
C15 N16 1_555 1_555
H43 C15 1_555 1_555
H44 C15 1_555 1_555
C16 N6 1_555 1_555
N24 Cu3 1_555 1_555
C17 H45 1_555 1_555
H46 C17 1_555 1_555
C18 N5 1_555 1_555
H47 C18 1_555 1_555
H48 C18 1_555 1_555
C19 H49 1_555 1_555
H50 C19 1_555 1_555
C20 N4 1_555 1_555
H51 C20 1_555 1_555
H52 C20 1_555 1_555
C21 C3 1_555 1_555
H53 C21 1_555 1_555
H54 C21 1_555 1_555
C22 N19 1_555 1_555
C23 N3 1_555 1_555
H55 C23 1_555 1_555
H56 C23 1_555 1_555
N25 C9 1_555 1_555
H57 N25 1_555 1_555
H58 N25 1_555 1_555
C24 C4 1_555 1_555
N26 C12 1_555 1_555
C25 N26 1_555 1_555
H59 C25 1_555 1_555
H60 C25 1_555 1_555
C26 N10 1_555 1_555
H61 C26 1_555 1_555
H62 C26 1_555 1_555
C27 N7 1_555 1_555
H63 C27 1_555 1_555
H64 C27 1_555 1_555
N27 H65 1_555 1_555
H66 N27 1_555 1_555
C28 N11 1_555 1_555
C29 C2 1_555 1_555
C30 N23 1_555 1_555
H67 C30 1_555 1_555
H68 C30 1_555 1_555
C31 H69 1_555 1_555
H70 C31 1_555 1_555
C32 N12 1_555 1_555
H71 C32 1_555 1_555
H72 C32 1_555 1_555
C33 N23 1_555 1_555
H73 C33 1_555 1_555
H74 C33 1_555 1_555
C34 N16 1_555 1_555
H75 C34 1_555 1_555
H76 C34 1_555 1_555
C35 C15 1_555 1_555
C36 C2 1_555 1_555
C37 N9 1_555 1_555
C38 N13 1_555 1_555
H77 C38 1_555 1_555
H78 C38 1_555 1_555
N28 C31 1_555 1_555
H79 N28 1_555 1_555
H80 N28 1_555 1_555
C39 N7 1_555 1_555
H81 C39 1_555 1_555
H82 C39 1_555 1_555
C40 N3 1_555 1_555
H83 C40 1_555 1_555
H84 C40 1_555 1_555
C41 N4 1_555 1_555
H85 C41 1_555 1_555
H86 C41 1_555 1_555
C42 N13 1_555 1_555
H87 C42 1_555 1_555
H88 C42 1_555 1_555
C43 N1 1_555 1_555
H89 C43 1_555 1_555
H90 C43 1_555 1_555
C44 C16 1_555 1_555
H91 C44 1_555 1_555
C45 C22 1_555 1_555
H92 C45 1_555 1_555
C46 N27 1_555 1_555
H93 C46 1_555 1_555
H94 C46 1_555 1_555
C47 N25 1_555 1_555
H95 C47 1_555 1_555
H96 C47 1_555 1_555
C48 N10 1_555 1_555
H97 C48 1_555 1_555
H98 C48 1_555 1_555
C49 N18 1_555 1_555
C50 N27 1_555 1_555
H99 C50 1_555 1_555
H100 C50 1_555 1_555
C51 N1 1_555 1_555
H101 C51 1_555 1_555
H102 C51 1_555 1_555
C52 N12 1_555 1_555
H103 C52 1_555 1_555
H104 C52 1_555 1_555
C53 C36 1_555 1_555
H105 C53 1_555 1_555
H106 C53 1_555 1_555
C54 N26 1_555 1_555
H107 C54 1_555 1_555
H108 C54 1_555 1_555
O1 H109 1_555 1_555
H110 O1 1_555 1_555
O2 H111 1_555 1_555
H112 O2 1_555 1_555
O3 H113 1_555 1_555
H114 O3 1_555 1_555
O5 H115 1_555 1_555
H116 O5 1_555 1_555
O6 H117 1_555 1_555
H118 O6 1_555 1_555
O7 H119 1_555 1_555
H120 O7 1_555 1_555
O10 H121 1_555 1_555
H122 O10 1_555 1_555
Cu2A N18 1_555 1_555
N18A Cu2 1_555 1_555
N2 N9 1_555 1_555
N6 N24 1_555 1_555
N8 N11 1_555 1_555
C5 C16 1_555 1_555
C6 C37 1_555 1_555
N14 N21 1_555 1_555
N14 C14 1_555 1_555
N15 C36 1_555 1_555
N17 C29 1_555 1_555
C8 C13 1_555 1_555
C8 C28 1_555 1_555
C11 N20 1_555 1_555
C11 C40 1_555 1_555
C12 C39 1_555 1_555
N21 C24 1_555 1_555
N22 C21 1_555 1_555
C13 C27 1_555 1_555
C14 C41 1_555 1_555
N24 C35 1_555 1_555
C17 C20 1_555 1_555
C18 C52 1_555 1_555
C19 C30 1_555 1_555
C22 C38 1_555 1_555
C23 C26 1_555 1_555
C24 C32 1_555 1_555
C25 C34 1_555 1_555
C28 C33 1_555 1_555
C29 C48 1_555 1_555
C31 C54 1_555 1_555
C35 C44 1_555 1_555
C37 C50 1_555 1_555
N28 C53 1_555 1_555
C42 C43 1_555 1_555
C45 C49 1_555 1_555
C46 C51 1_555 1_555
C47 C49 1_555 1_555

#END
