
#######################################################################
#
#                 Cambridge Crystallographic Data Centre
#                                CCDC 
#
#######################################################################
#
# If this CIF has been generated from an entry in the Cambridge 
# Structural Database, then it will include bibliographic, chemical, 
# crystal, experimental, refinement or atomic coordinate data resulting 
# from the CCDC's data processing and validation procedures.
#
#######################################################################

data_XUFWOM
_symmetry_cell_setting           monoclinic
_symmetry_space_group_name_H-M   'C 2/c'
_symmetry_Int_Tables_number      15
_space_group_name_Hall           '-C 2yn'
loop_
_symmetry_equiv_pos_site_id
_symmetry_equiv_pos_as_xyz
1 x,y,z
2 -x,y,1/2-z
3 1/2+x,1/2+y,z
4 1/2-x,1/2+y,1/2-z
5 -x,-y,-z
6 x,-y,1/2+z
7 1/2-x,1/2-y,-z
8 1/2+x,1/2-y,1/2+z
_cell_length_a                   38.027(4)
_cell_length_b                   19.030(2)
_cell_length_c                   19.7515(19)
_cell_angle_alpha                90
_cell_angle_beta                 104.123(2)
_cell_angle_gamma                90
_cell_volume                     13861.2
loop_
_atom_site_label
_atom_site_type_symbol
_atom_site_fract_x
_atom_site_fract_y
_atom_site_fract_z
Zn1 Zn -0.09884(2) 0.38890(4) 0.08891(4)
Zn2 Zn -0.10697(2) 0.10900(4) 0.20344(4)
Zn3 Zn -0.18900(2) 0.41066(4) 0.05121(5)
Zn4 Zn 0.0000 0.08954(11) 0.2500
C1 C -0.0696(2) 0.0567(5) 0.1040(5)
C2 C -0.0717(2) 0.0319(5) 0.0324(4)
C3 C -0.0436(2) -0.0085(5) 0.0220(5)
H1 H -0.0244 -0.0189 0.0598
C4 C -0.0432(2) -0.0340(5) -0.0432(5)
H2 H -0.0236 -0.0605 -0.0490
C5 C -0.0719(2) -0.0203(5) -0.1002(4)
C6 C -0.10123(18) 0.0205(4) -0.0895(4)
H3 H -0.1208 0.0295 -0.1271
C7 C -0.10149(18) 0.0470(4) -0.0251(4)
C8 C -0.0722(2) -0.0469(5) -0.1716(4)
C9 C -0.13297(18) 0.0900(4) -0.0185(4)
C10 C -0.12742(18) 0.1588(4) 0.0079(4)
H4 H -0.1040 0.1766 0.0219
C11 C -0.15678(17) 0.2004(4) 0.0133(3)
C12 C -0.19168(18) 0.1718(4) -0.0052(3)
H5 H -0.2113 0.1986 0.0001
C13 C -0.19746(17) 0.1049(4) -0.0312(4)
C14 C -0.16736(18) 0.0640(4) -0.0388(4)
H6 H -0.1712 0.0192 -0.0579
C15 C -0.15159(18) 0.2741(4) 0.0413(3)
C16 C -0.2344(2) 0.0733(4) -0.0480(4)
C17 C -0.06392(19) 0.2243(4) 0.2480(4)
C18 C -0.05611(18) 0.2955(4) 0.2813(4)
C19 C -0.02045(19) 0.3156(4) 0.3104(4)
H7 H -0.0015 0.2845 0.3107
C20 C -0.01309(17) 0.3830(4) 0.3394(4)
C21 C -0.04248(19) 0.4284(4) 0.3388(4)
H8 H -0.0378 0.4738 0.3562
C22 C -0.07786(17) 0.4072(4) 0.3131(4)
C23 C -0.08504(17) 0.3408(4) 0.2827(4)
H9 H -0.1088 0.3268 0.2635
C24 C 0.02464(19) 0.4060(4) 0.3689(4)
C25 C -0.10905(18) 0.4539(4) 0.3166(4)
C26 C -0.10989(19) 0.4829(4) 0.3796(4)
H10 H -0.0904 0.4756 0.4179
C27 C -0.1390(2) 0.5229(4) 0.3880(4)
C28 C -0.1681(2) 0.5338(6) 0.3314(5)
H11 H -0.1876 0.5609 0.3363
C29 C -0.1679(2) 0.5041(6) 0.2670(5)
H12 H -0.1875 0.5111 0.2289
C30 C -0.13868(19) 0.4640(5) 0.2597(4)
C31 C -0.1396(2) 0.5521(5) 0.4600(5)
C32 C -0.1397(2) 0.4363(4) 0.1875(4)
C33 C -0.2362(4) 0.2338(9) 0.1341(9)
H13 H -0.2196 0.2727 0.1404
H14 H -0.2522 0.2392 0.1646
H15 H -0.2501 0.2325 0.0865
C34 C -0.2353(3) 0.0988(8) 0.1452(6)
H16 H -0.2181 0.0612 0.1579
H17 H -0.2491 0.0922 0.0980
H18 H -0.2513 0.0989 0.1759
C35 C -0.1803(2) 0.1694(5) 0.1669(5)
H19 H -0.1686 0.2126 0.1701
N1 N -0.2155(2) 0.1676(6) 0.1510(4)
O1 O -0.10012(14) 0.0589(3) 0.1232(3)
O2 O -0.04032(16) 0.0708(5) 0.1415(4)
O3 O -0.10217(14) -0.0502(3) -0.2145(3)
O4 O -0.04337(18) -0.0653(5) -0.1830(4)
O5 O -0.17915(13) 0.3066(3) 0.0461(3)
O6 O -0.11969(12) 0.2978(3) 0.0569(3)
O7 O -0.25945(12) 0.1099(3) -0.0345(3)
O8 O -0.23908(15) 0.0129(3) -0.0744(4)
O9 O -0.09685(12) 0.2062(3) 0.2279(3)
O10 O -0.03855(15) 0.1889(3) 0.2401(4)
O11 O 0.03122(16) 0.4692(4) 0.3800(5)
O12 O 0.04920(12) 0.3591(3) 0.3793(3)
O13 O -0.16959(15) 0.4136(4) 0.1534(3)
O14 O -0.11234(14) 0.4406(3) 0.1653(3)
O15 O -0.16986(14) 0.5747(4) 0.4655(3)
O16 O -0.11035(13) 0.5511(3) 0.5053(3)
O17 O -0.16165(13) 0.1140(3) 0.1780(3)
O18 O 0.0000 -0.0392(7) 0.2500
O19 O -0.19597(18) 0.5213(3) 0.0531(6)
Zn1A Zn 0.09884(2) 0.38890(4) 0.41109(4)
Zn2A Zn 0.10697(2) 0.10900(4) 0.29656(4)
Zn3A Zn 0.18900(2) 0.41066(4) 0.44879(5)
C1A C 0.0696(2) 0.0567(5) 0.3960(5)
C2A C 0.0717(2) 0.0319(5) 0.4676(4)
C3A C 0.0436(2) -0.0085(5) 0.4780(5)
H1A H 0.0244 -0.0189 0.4402
C4A C 0.0432(2) -0.0340(5) 0.5432(5)
H2A H 0.0236 -0.0605 0.5490
C5A C 0.0719(2) -0.0203(5) 0.6002(4)
C6A C 0.10123(18) 0.0205(4) 0.5895(4)
H3A H 0.1208 0.0295 0.6271
C7A C 0.10149(18) 0.0470(4) 0.5251(4)
C8A C 0.0722(2) -0.0469(5) 0.6716(4)
C9A C 0.13297(18) 0.0900(4) 0.5185(4)
C10A C 0.12742(18) 0.1588(4) 0.4921(4)
H4A H 0.1040 0.1766 0.4781
C11A C 0.15678(17) 0.2004(4) 0.4867(3)
C12A C 0.19168(18) 0.1718(4) 0.5052(3)
H5A H 0.2113 0.1986 0.4999
C13A C 0.19746(17) 0.1049(4) 0.5312(4)
C14A C 0.16736(18) 0.0640(4) 0.5388(4)
H6A H 0.1712 0.0192 0.5579
C15A C 0.15159(18) 0.2741(4) 0.4587(3)
C16A C 0.2344(2) 0.0733(4) 0.5480(4)
C17A C 0.06392(19) 0.2243(4) 0.2520(4)
C18A C 0.05611(18) 0.2955(4) 0.2187(4)
C19A C 0.02045(19) 0.3156(4) 0.1896(4)
H7A H 0.0015 0.2845 0.1893
C20A C 0.01309(17) 0.3830(4) 0.1606(4)
C21A C 0.04248(19) 0.4284(4) 0.1612(4)
H8A H 0.0378 0.4738 0.1438
C22A C 0.07786(17) 0.4072(4) 0.1869(4)
C23A C 0.08504(17) 0.3408(4) 0.2173(4)
H9A H 0.1088 0.3268 0.2365
C24A C -0.02464(19) 0.4060(4) 0.1311(4)
C25A C 0.10905(18) 0.4539(4) 0.1834(4)
C26A C 0.10989(19) 0.4829(4) 0.1204(4)
H10A H 0.0904 0.4756 0.0821
C27A C 0.1390(2) 0.5229(4) 0.1120(4)
C28A C 0.1681(2) 0.5338(6) 0.1686(5)
H11A H 0.1876 0.5609 0.1637
C29A C 0.1679(2) 0.5041(6) 0.2330(5)
H12A H 0.1875 0.5111 0.2711
C30A C 0.13868(19) 0.4640(5) 0.2403(4)
C31A C 0.1396(2) 0.5521(5) 0.0400(5)
C32A C 0.1397(2) 0.4363(4) 0.3125(4)
C33A C 0.2362(4) 0.2338(9) 0.3659(9)
H13A H 0.2196 0.2727 0.3596
H14A H 0.2522 0.2392 0.3354
H15A H 0.2501 0.2325 0.4135
C34A C 0.2353(3) 0.0988(8) 0.3548(6)
H16A H 0.2181 0.0612 0.3421
H17A H 0.2491 0.0922 0.4020
H18A H 0.2513 0.0989 0.3241
C35A C 0.1803(2) 0.1694(5) 0.3331(5)
H19A H 0.1686 0.2126 0.3299
N1A N 0.2155(2) 0.1676(6) 0.3490(4)
O1A O 0.10012(14) 0.0589(3) 0.3768(3)
O2A O 0.04032(16) 0.0708(5) 0.3585(4)
O3A O 0.10217(14) -0.0502(3) 0.7145(3)
O4A O 0.04337(18) -0.0653(5) 0.6830(4)
O5A O 0.17915(13) 0.3066(3) 0.4539(3)
O6A O 0.11969(12) 0.2978(3) 0.4431(3)
O7A O 0.25945(12) 0.1099(3) 0.5345(3)
O8A O 0.23908(15) 0.0129(3) 0.5744(4)
O9A O 0.09685(12) 0.2062(3) 0.2721(3)
O10A O 0.03855(15) 0.1889(3) 0.2599(4)
O11A O -0.03122(16) 0.4692(4) 0.1200(5)
O12A O -0.04920(12) 0.3591(3) 0.1207(3)
O13A O 0.16959(15) 0.4136(4) 0.3466(3)
O14A O 0.11234(14) 0.4406(3) 0.3347(3)
O15A O 0.16986(14) 0.5747(4) 0.0345(3)
O16A O 0.11035(13) 0.5511(3) -0.0053(3)
O17A O 0.16165(13) 0.1140(3) 0.3220(3)
O19A O 0.19597(18) 0.5213(3) 0.4469(6)
Zn1D Zn 0.09884(2) 0.61110(4) -0.08891(4)
Zn1E Zn -0.09884(2) 0.61110(4) 0.58891(4)
Zn2D Zn 0.10697(2) -0.10900(4) 0.79656(4)
Zn2E Zn -0.10697(2) -0.10900(4) -0.29656(4)
Zn3D Zn 0.18900(2) 0.58934(4) -0.05121(5)
Zn3E Zn -0.18900(2) 0.58934(4) 0.55121(5)
Zn3F Zn -0.31100(2) 0.08934(4) -0.05121(5)
Zn3G Zn 0.31100(2) 0.08934(4) 0.55121(5)
Zn4D Zn 0.0000 -0.08954(11) -0.2500
Zn4D_2 Zn 0.0000 -0.08954(11) 0.7500
O3D O 0.10217(14) 0.0502(3) 0.2145(3)
O3E O -0.10217(14) 0.0502(3) 0.2855(3)
O4D O 0.04337(18) 0.0653(5) 0.1830(4)
O4E O -0.04337(18) 0.0653(5) 0.3170(4)
O7F O -0.24055(12) 0.3901(3) 0.0345(3)
O7G O 0.24055(12) 0.3901(3) 0.4655(3)
O15D O 0.16986(14) 0.4253(4) 0.5345(3)
O15E O -0.16986(14) 0.4253(4) -0.0345(3)
O16D O 0.11035(13) 0.4489(3) 0.4947(3)
O16E O -0.11035(13) 0.4489(3) 0.0053(3)
O20 O 0.0794(7) 0.5939(7) 0.3747(13)
O21 O -0.1747(7) 0.0517(18) -0.273(2)
O22 O -0.2081(6) 0.4069(8) 0.4020(14)
O23 O -0.2336(16) 0.4020(17) 0.236(3)
O24 O -0.2128(11) -0.0755(17) -0.1748(12)
O25 O -0.2002(12) 0.338(2) 0.3200(17)
O26 O 0.0000 0.5000 0.5000
O27 O -0.2758(6) 0.1837(10) 0.2824(11)
O28 O -0.3475(8) 0.2376(14) 0.1818(14)
O29 O -0.1443(8) 0.215(3) 0.3880(15)
loop_
_geom_bond_atom_site_label_1
_geom_bond_atom_site_label_2
_geom_bond_site_symmetry_1
_geom_bond_site_symmetry_2
Zn1 O6 1_555 1_555
Zn2 O1 1_555 1_555
Zn3 O5 1_555 1_555
Zn4 O2 1_555 1_555
C1 C2 1_555 1_555
C2 C3 1_555 1_555
C3 H1 1_555 1_555
C4 C3 1_555 1_555
H2 C4 1_555 1_555
C5 C4 1_555 1_555
C6 C5 1_555 1_555
H3 C6 1_555 1_555
C7 C2 1_555 1_555
C8 C5 1_555 1_555
C9 C7 1_555 1_555
C10 C9 1_555 1_555
H4 C10 1_555 1_555
C11 C10 1_555 1_555
C12 C11 1_555 1_555
H5 C12 1_555 1_555
C13 C12 1_555 1_555
C14 C9 1_555 1_555
H6 C14 1_555 1_555
C15 C11 1_555 1_555
C16 C13 1_555 1_555
C17 C18 1_555 1_555
C18 C19 1_555 1_555
C19 H7 1_555 1_555
C20 C19 1_555 1_555
C21 C20 1_555 1_555
H8 C21 1_555 1_555
C22 C21 1_555 1_555
C23 C18 1_555 1_555
H9 C23 1_555 1_555
C24 C20 1_555 1_555
C25 C22 1_555 1_555
C26 C25 1_555 1_555
H10 C26 1_555 1_555
C27 C26 1_555 1_555
C28 C27 1_555 1_555
H11 C28 1_555 1_555
C29 C28 1_555 1_555
H12 C29 1_555 1_555
C30 C25 1_555 1_555
C31 C27 1_555 1_555
C32 C30 1_555 1_555
C33 H13 1_555 1_555
H14 C33 1_555 1_555
H15 C33 1_555 1_555
C34 H16 1_555 1_555
H17 C34 1_555 1_555
H18 C34 1_555 1_555
C35 H19 1_555 1_555
N1 C33 1_555 1_555
O1 C1 1_555 1_555
O2 C1 1_555 1_555
O3 C8 1_555 1_555
O4 C8 1_555 1_555
O5 C15 1_555 1_555
O6 C15 1_555 1_555
O7 C16 1_555 1_555
O8 C16 1_555 1_555
O9 Zn2 1_555 1_555
O10 Zn4 1_555 1_555
O11 C24 1_555 1_555
O12 C24 1_555 1_555
O13 Zn3 1_555 1_555
O14 Zn1 1_555 1_555
O15 C31 1_555 1_555
O16 C31 1_555 1_555
O17 Zn2 1_555 1_555
O18 Zn4 1_555 1_555
O19 Zn3 1_555 1_555
Zn1A O12 1_555 1_555
Zn2A O1A 1_555 1_555
Zn3A O5A 1_555 1_555
C1A C2A 1_555 1_555
C2A C3A 1_555 1_555
C3A H1A 1_555 1_555
C4A C3A 1_555 1_555
H2A C4A 1_555 1_555
C5A C4A 1_555 1_555
C6A C5A 1_555 1_555
H3A C6A 1_555 1_555
C7A C2A 1_555 1_555
C8A C5A 1_555 1_555
C9A C7A 1_555 1_555
C10A C9A 1_555 1_555
H4A C10A 1_555 1_555
C11A C10A 1_555 1_555
C12A C11A 1_555 1_555
H5A C12A 1_555 1_555
C13A C12A 1_555 1_555
C14A C9A 1_555 1_555
H6A C14A 1_555 1_555
C15A C11A 1_555 1_555
C16A C13A 1_555 1_555
C17A C18A 1_555 1_555
C18A C19A 1_555 1_555
C19A H7A 1_555 1_555
C20A C19A 1_555 1_555
C21A C20A 1_555 1_555
H8A C21A 1_555 1_555
C22A C21A 1_555 1_555
C23A C18A 1_555 1_555
H9A C23A 1_555 1_555
C24A C20A 1_555 1_555
C25A C22A 1_555 1_555
C26A C25A 1_555 1_555
H10A C26A 1_555 1_555
C27A C26A 1_555 1_555
C28A C27A 1_555 1_555
H11A C28A 1_555 1_555
C29A C28A 1_555 1_555
H12A C29A 1_555 1_555
C30A C25A 1_555 1_555
C31A C27A 1_555 1_555
C32A C30A 1_555 1_555
C33A H13A 1_555 1_555
H14A C33A 1_555 1_555
H15A C33A 1_555 1_555
C34A H16A 1_555 1_555
H17A C34A 1_555 1_555
H18A C34A 1_555 1_555
C35A H19A 1_555 1_555
N1A C33A 1_555 1_555
O1A C1A 1_555 1_555
O2A Zn4 1_555 1_555
O3A C8A 1_555 1_555
O4A C8A 1_555 1_555
O5A C15A 1_555 1_555
O6A Zn1A 1_555 1_555
O7A C16A 1_555 1_555
O8A C16A 1_555 1_555
O9A Zn2A 1_555 1_555
O10A Zn4 1_555 1_555
O11A C24A 1_555 1_555
O12A Zn1 1_555 1_555
O13A Zn3A 1_555 1_555
O14A Zn1A 1_555 1_555
O15A C31A 1_555 1_555
O16A C31A 1_555 1_555
O17A Zn2A 1_555 1_555
O19A Zn3A 1_555 1_555
Zn1D O16A 1_555 1_555
Zn1E O16 1_555 1_555
Zn2D O3A 1_555 1_555
Zn2E O3 1_555 1_555
Zn3D O15A 1_555 1_555
Zn3E O15 1_555 1_555
Zn3F O7 1_555 1_555
Zn3G O7A 1_555 1_555
Zn4D O4 1_555 1_555
Zn4D_2 O4A 1_555 1_555
O3D Zn2A 1_555 1_555
O3E Zn2 1_555 1_555
O4D Zn4 1_555 1_555
O4E Zn4 1_555 1_555
O7F Zn3 1_555 1_555
O7G Zn3A 1_555 1_555
O15D Zn3A 1_555 1_555
O15E Zn3 1_555 1_555
O16D Zn1A 1_555 1_555
O16E Zn1 1_555 1_555
C6 C7 1_555 1_555
C13 C14 1_555 1_555
C17 O9 1_555 1_555
C17 O10 1_555 1_555
C22 C23 1_555 1_555
C29 C30 1_555 1_555
C32 O13 1_555 1_555
C32 O14 1_555 1_555
C34 N1 1_555 1_555
C35 N1 1_555 1_555
C35 O17 1_555 1_555
C1A O2A 1_555 1_555
C6A C7A 1_555 1_555
C13A C14A 1_555 1_555
C15A O6A 1_555 1_555
C17A O9A 1_555 1_555
C17A O10A 1_555 1_555
C22A C23A 1_555 1_555
C24A O12A 1_555 1_555
C29A C30A 1_555 1_555
C32A O13A 1_555 1_555
C32A O14A 1_555 1_555
C34A N1A 1_555 1_555
C35A N1A 1_555 1_555
C35A O17A 1_555 1_555

#END
