
#######################################################################
#
#                 Cambridge Crystallographic Data Centre
#                                CCDC 
#
#######################################################################
#
# If this CIF has been generated from an entry in the Cambridge 
# Structural Database, then it will include bibliographic, chemical, 
# crystal, experimental, refinement or atomic coordinate data resulting 
# from the CCDC's data processing and validation procedures.
#
#######################################################################

data_XUFXED
_symmetry_cell_setting           triclinic
_symmetry_space_group_name_H-M   'P -1'
_symmetry_Int_Tables_number      2
_space_group_name_Hall           '-P 1'
loop_
_symmetry_equiv_pos_site_id
_symmetry_equiv_pos_as_xyz
1 x,y,z
2 -x,-y,-z
_cell_length_a                   18.861(5)
_cell_length_b                   22.039(5)
_cell_length_c                   29.586(5)
_cell_angle_alpha                90.024(5)
_cell_angle_beta                 90.018(5)
_cell_angle_gamma                90.002(5)
_cell_volume                     12298.2
loop_
_atom_site_label
_atom_site_type_symbol
_atom_site_fract_x
_atom_site_fract_y
_atom_site_fract_z
Mo1 Mo -0.13587(10) 0.23720(9) 0.12606(7)
Mo2 Mo -1.13573(10) 0.73717(9) 0.37403(7)
Mo3 Mo -0.36405(10) 0.73752(9) 0.12592(7)
Mo4 Mo -1.36412(10) 0.23717(9) 0.37403(7)
Mo5 Mo -0.04608(10) 0.14411(9) 0.05542(7)
Mo6 Mo -1.45363(10) 0.14411(9) 0.44475(7)
Mo7 Mo -0.45370(10) 0.64407(9) 0.05529(7)
Mo8 Mo -1.04612(11) 0.64404(9) 0.44466(7)
Mo9 Mo -0.47423(10) 0.84746(9) 0.16345(7)
Mo10 Mo -1.47432(10) 0.34753(9) 0.33646(7)
Mo11 Mo -0.02557(10) 0.34739(9) 0.16351(7)
Mo12 Mo -1.02573(10) 0.84743(9) 0.33656(7)
Mo13 Mo -0.85830(10) 0.67456(9) 0.41958(7)
Mo14 Mo 0.14283(10) 0.31286(9) 0.13103(7)
Mo15 Mo -0.64152(10) 0.67466(9) 0.08030(7)
Mo16 Mo -1.64181(10) 0.17474(9) 0.41964(7)
Mo17 Mo -0.64275(10) 0.81271(9) 0.13091(7)
Mo18 Mo -0.85714(10) 0.81262(9) 0.36899(7)
Mo19 Mo -1.64275(10) 0.31279(9) 0.36884(7)
Mo20 Mo 0.14173(10) 0.17461(9) 0.08044(7)
P1 P -1.5269(3) 0.1960(3) 0.3372(2)
P2 P -1.5066(3) 0.2878(3) 0.4426(2)
P3 P -0.5067(3) 0.7876(3) 0.0573(2)
P4 P -0.9938(3) 0.7879(3) 0.4427(2)
P5 P -0.5274(3) 0.6959(3) 0.1627(2)
P6 P 0.0064(3) 0.2876(3) 0.0573(2)
P7 P -0.9728(3) 0.6956(3) 0.3375(2)
P8 P 0.0276(3) 0.1954(3) 0.1626(2)
O1 O -0.9514(6) 0.7626(6) 0.3301(4)
O2 O -0.504(2) 0.5708(19) 0.2930(15)
O3 O -0.5491(6) 0.7637(6) 0.1686(4)
O4 O -0.1287(7) 0.1912(6) 0.0695(4)
O5 O -1.1300(7) 0.6931(6) 0.4293(5)
O6 O -0.8078(7) 0.6132(7) 0.4076(5)
O7 O -1.0079(8) 0.8659(7) 0.2807(5)
O8 O 0.0492(7) 0.2631(6) 0.1692(5)
O9 O -0.0346(7) 0.1891(6) 0.1289(4)
O10 O -1.2994(7) 0.2875(6) 0.3921(4)
O11 O -1.2017(7) 0.7873(6) 0.3916(4)
O12 O -1.4803(6) 0.2366(6) 0.4728(4)
O13 O -0.4657(7) 0.6900(6) 0.1292(5)
O14 O -1.0492(7) 0.8022(6) 0.4063(5)
O15 O -0.4522(7) 0.8029(6) 0.0948(5)
O16 O -0.0201(7) 0.2368(6) 0.0271(5)
O17 O -1.5626(7) 0.3676(6) 0.3652(5)
O18 O -1.4656(7) 0.1888(6) 0.3706(5)
O19 O -1.0355(7) 0.6892(6) 0.3711(5)
O20 O -0.2981(7) 0.7860(6) 0.1073(5)
O21 O -1.0658(7) 0.5798(6) 0.4144(5)
O22 O -0.9209(6) 0.7691(6) 0.4218(4)
O23 O -1.5787(6) 0.2682(6) 0.4217(4)
O24 O -1.5493(7) 0.2603(6) 0.3305(4)
O25 O -1.3715(7) 0.1924(6) 0.4294(5)
O26 O 0.0901(7) 0.1573(6) 0.1467(5)
O27 O -0.8213(7) 0.8225(6) 0.3160(5)
O28 O -1.4509(7) 0.3046(6) 0.4057(5)
O29 O -1.3214(7) 0.1853(6) 0.3410(5)
O30 O -1.2247(7) 1.0711(7) 0.1837(5)
O31 O -0.3205(7) 0.6853(6) 0.1588(5)
O32 O -1.6936(7) 0.3575(6) 0.4024(5)
O33 O -1.2721(7) 0.5725(7) 0.1839(5)
H1 H -1.2844 0.5325 0.1737
H2 H -1.3114 0.5994 0.1791
O34 O -0.4802(7) 0.7361(6) 0.0278(5)
O35 O -1.3251(7) 0.2887(6) 0.4895(5)
H3 H -1.3198 0.2904 0.5217
H4 H -1.3448 0.2502 0.4810
O36 O -1.1776(7) 0.6846(6) 0.3426(5)
O37 O -1.1743(7) 0.7875(6) 0.4912(5)
H5 H -1.1808 0.7891 0.5234
H6 H -1.1547 0.7489 0.4829
O38 O 0.1956(8) 0.3568(7) 0.0980(5)
O39 O -1.2253(7) 0.5714(7) 0.3153(5)
H7 H -1.2573 0.5983 0.3307
H8 H -1.1776 0.5858 0.3189
O40 O -0.0762(7) 0.4088(7) 0.1456(5)
O41 O -1.2755(7) 1.0720(7) 0.3155(5)
O42 O 0.1915(8) 0.1129(7) 0.0924(5)
O43 O -0.2010(7) 0.2868(7) 0.1081(5)
O44 O -0.3784(10) 0.5633(9) 0.2683(7)
O45 O -0.3709(6) 0.6923(6) 0.0702(4)
O46 O -0.3268(6) 0.7879(6) 0.0098(5)
H9 H -0.3215 0.7902 -0.0224
H10 H -0.3460 0.7491 0.0179
O47 O -1.6925(7) 0.1121(7) 0.4071(5)
O48 O -0.0481(7) 0.3032(6) 0.0940(5)
O49 O -1.3779(10) 0.0620(8) 0.2316(6)
O50 O -0.4049(7) 0.7846(6) 0.1734(4)
O51 O -0.5618(7) 0.8673(7) 0.1333(5)
O52 O -0.9386(7) 0.8692(6) 0.3662(5)
O53 O -0.6792(7) 0.8223(7) 0.1841(5)
O54 O -1.0764(7) 0.9072(7) 0.3549(5)
O55 O -0.5558(7) 0.6414(6) 0.0585(5)
O56 O -0.9114(7) 0.6571(6) 0.3540(5)
O57 O -0.8072(7) 0.8577(6) 0.4020(5)
O58 O -1.4242(7) 0.4075(6) 0.3544(5)
O59 O -1.0186(7) 0.7367(6) 0.4728(5)
O60 O -0.0644(7) 0.0789(7) 0.0843(5)
O61 O -1.4337(7) 0.0789(6) 0.4150(5)
O62 O 0.1793(7) 0.3237(6) 0.1842(5)
O63 O -0.6947(8) 0.8573(7) 0.0980(5)
O64 O 0.0623(7) 0.3665(7) 0.1333(5)
O65 O -0.1732(7) 0.2880(6) 0.0085(5)
O66 O -0.6921(7) 0.6122(7) 0.0928(5)
O67 O -0.8250(7) 0.6984(7) 0.4697(5)
O68 O -1.5890(7) 0.1567(6) 0.3531(5)
O69 O -1.6758(7) 0.1984(6) 0.4704(5)
O70 O -0.5785(7) 0.7689(7) 0.0787(5)
O71 O -1.6792(7) 0.3230(6) 0.3160(5)
O72 O 0.1868(7) 0.2361(6) 0.1172(5)
O73 O -0.1797(7) 0.1844(7) 0.1583(5)
O74 O 0.0789(7) 0.2689(6) 0.0789(5)
O75 O -0.3242(7) 0.3010(6) -0.0294(5)
O76 O -1.0810(17) 0.9702(15) 0.5303(11)
O77 O -0.9935(13) 0.9226(12) 0.5572(10)
O78 O -0.5149(14) 0.9247(13) -0.0588(10)
O79 O -1.5549(7) 0.1409(7) 0.4414(5)
O80 O 0.0555(7) 0.1402(6) 0.0589(5)
O81 O -0.0649(7) 0.1222(7) 0.0015(5)
O82 O -0.0091(7) 0.3671(7) 0.2176(5)
O83 O -0.4346(8) 0.5781(7) 0.0852(5)
O84 O -0.9449(7) 0.6406(6) 0.4411(5)
O85 O -1.1210(9) 0.5631(8) 0.2339(6)
O86 O -0.4924(8) 0.8668(7) 0.2183(5)
O87 O -0.5880(7) 0.6576(7) 0.1471(5)
O88 O -0.6867(7) 0.7363(6) 0.1169(4)
O89 O -1.4939(8) 0.3668(7) 0.2818(5)
O90 O -0.4240(7) 0.9084(7) 0.1449(5)
O91 O -1.4053(7) 0.2855(6) 0.3267(5)
O92 O -1.0956(7) 0.7860(6) 0.3266(5)
O93 O -1.0629(8) 0.6236(7) 0.4985(5)
O94 O -0.0938(7) 0.2851(6) 0.1737(5)
O95 O -0.8145(7) 0.7350(6) 0.3811(5)
O96 O 0.1757(7) 0.1982(6) 0.0294(5)
O97 O -1.6855(7) 0.2369(6) 0.3814(5)
O98 O -0.4371(7) 0.6229(7) 0.0015(5)
O99 O -1.5147(13) 0.4258(11) 0.5574(9)
O100 O 0.0158(14) 0.4275(12) -0.0564(9)
O101 O -1.4370(8) 0.1229(7) 0.4995(5)
O102 O -1.4184(17) 0.4703(15) 0.5291(11)
O103 O -0.0836(17) 0.4713(16) -0.0289(11)
O104 O -1.5048(16) 0.0765(15) 0.2102(11)
O105 O -0.4154(19) 0.9730(17) -0.0306(12)
O106 O -0.1181(9) 0.0637(8) 0.2663(6)
O107 O 0.004(2) 0.090(3) 0.2899(15)
O108 O -1.0007(19) 0.5708(19) 0.2116(13)
Cu1 Cu -1.26968(13) 0.79780(12) 0.46086(9)
Cu2 Cu -1.23038(13) 0.29813(12) 0.46087(9)
Cu3 Cu -0.26964(14) 0.29795(12) 0.03921(9)
Cu4 Cu -0.23041(14) 0.79790(12) 0.03930(9)
Cu5 Cu -1.25002(15) 1.06930(14) 0.24987(11)
Cu6 Cu -1.25009(16) 0.56915(14) 0.24998(11)
Cu7 Cu -0.74999(14) 0.32675(12) 0.25007(10)
Cu8 Cu -0.74989(15) 0.82655(13) 0.25013(10)
N1 N -1.2176(9) 0.2074(8) 0.4609(6)
N2 N -1.2556(8) -0.1129(7) 0.4596(6)
N3 N -1.2433(8) 0.3881(7) 0.4585(5)
N4 N -1.2828(8) 0.7082(8) 0.4589(6)
N5 N -1.2531(9) 0.4803(8) 0.2499(6)
N6 N -1.2503(10) 0.1557(8) 0.2503(6)
N7 N -1.2490(10) 0.6583(8) 0.2498(6)
N8 N -1.2502(10) 0.9806(8) 0.2494(7)
N9 N -0.7505(9) 0.4164(8) 0.2490(6)
N10 N -0.7509(9) 0.7369(8) 0.2498(7)
N11 N -0.7479(9) 1.2351(7) 0.2501(6)
N12 N -0.7498(9) 0.9182(8) 0.2499(6)
N13 N -0.2175(8) 0.7070(8) 0.0399(6)
N14 N -0.2547(8) 0.3886(7) 0.0411(5)
N15 N -0.2478(9) -0.1102(8) 0.0408(6)
N16 N -0.2846(9) 0.2059(8) 0.0393(6)
N17 N -0.6661(9) 0.3276(8) 0.2105(6)
N18 N -0.3593(8) 0.3093(7) 0.0737(6)
N19 N -0.8341(9) 0.3292(8) 0.2907(6)
N20 N -1.1427(8) 0.3109(7) 0.4261(6)
N21 N -0.8331(9) 0.8280(8) 0.2085(6)
N22 N -1.1405(9) 0.8096(8) 0.0750(6)
N23 N -1.6649(10) 0.8278(9) 0.2910(7)
N24 N -1.3586(8) 0.8093(7) 0.4260(6)
C1 C -0.7473(14) 1.1397(14) 0.2100(11)
H11 H -0.7479 1.1188 0.1827
C2 C -1.6103(13) 0.8483(12) 0.3619(10)
H12 H -1.6146 0.8597 0.3920
C3 C -0.7470(14) 0.7066(13) 0.2869(10)
H13 H -0.7435 0.7287 0.3136
C4 C -1.0348(17) 0.8880(15) 0.4884(12)
H14 H -1.0676 0.8610 0.5036
H15 H -1.0576 0.9013 0.4607
C5 C -1.2852(15) 0.8841(14) 0.2188(10)
H16 H -1.3105 0.8635 0.1967
C6 C -1.2860(13) 0.9483(13) 0.2180(10)
H17 H -1.3115 0.9685 0.1957
C7 C -1.4803(12) 0.8216(11) 0.3744(8)
C8 C -1.3024(14) 0.6922(13) 0.2638(9)
H18 H -1.3417 0.6710 0.2742
C9 C -0.8329(12) 0.3519(10) 0.3329(8)
H19 H -0.7906 0.3681 0.3438
C10 C -1.2163(12) 0.3849(11) 0.2169(9)
H20 H -1.1956 0.3642 0.1929
C11 C -0.7002(12) 0.9487(11) 0.2293(8)
H21 H -0.6663 0.9270 0.2132
C12 C -1.3546(13) 0.8288(11) 0.3859(9)
H22 H -1.3102 0.8385 0.3743
C13 C -0.0332(18) 0.1066(11) 0.2164(12)
H23 H -0.0004 0.0801 0.2007
H24 H -0.0766 0.1079 0.1989
C14 C -0.0323(17) 0.3902(16) 0.0146(12)
H25 H -0.0354 0.4170 0.0405
H26 H -0.0746 0.3651 0.0144
C15 C -0.9533(11) 0.8238(10) 0.1535(7)
C16 C -0.7495(13) 0.6414(12) 0.2084(10)
H27 H -0.7477 0.6215 0.1807
C17 C -1.2155(13) 0.9495(12) 0.2817(9)
H28 H -1.1908 0.9713 0.3036
C18 C -1.4656(16) 0.3934(15) 0.4845(11)
H29 H -1.4623 0.4225 0.4600
H30 H -1.4228 0.3689 0.4841
C19 C -1.2495(13) 0.2869(11) 0.2491(8)
C20 C 0.0271(12) 0.3526(11) 0.0199(8)
H31 H 0.0659 0.3759 0.0327
H32 H 0.0421 0.3376 -0.0095
C21 C -1.2325(10) 0.0144(9) 0.4592(7)
C22 C -1.1944(13) 0.2565(12) 0.2661(8)
H33 H -1.1550 0.2765 0.2778
C23 C -0.4613(19) 0.8908(16) 0.0138(12)
H34 H -0.4216 0.8638 0.0083
H35 H -0.4505 0.9146 0.0405
C24 C -0.2957(11) 0.1132(11) 0.0781(8)
H36 H -0.3084 0.0925 0.1043
C25 C -0.7988(13) 0.4470(11) 0.2280(9)
H37 H -0.8312 0.4260 0.2102
C26 C -1.2837(12) 0.3857(11) 0.2833(8)
H38 H -1.3081 0.3651 0.3059
C27 C -1.0170(12) 0.3035(10) 0.4198(8)
H39 H -0.9742 0.2953 0.4341
C28 C -1.3079(13) 0.7531(12) 0.2652(8)
H40 H -1.3483 0.7727 0.2757
C29 C -0.436(3) 0.578(2) 0.2550(15)
C30 C -1.4845(13) 0.8005(11) 0.4206(8)
H41 H -1.5274 0.7896 0.4338
C31 C -0.5426(13) 0.3002(11) 0.1965(9)
H42 H -0.5015 0.2811 0.2064
C32 C -0.0499(12) 0.0782(18) 0.2623(12)
C33 C -1.470(2) 0.4284(16) 0.5306(13)
C34 C -0.6974(17) 0.5092(15) 0.2706(11)
H43 H -0.6587 0.5288 0.2835
C35 C -1.2145(13) 0.8835(12) 0.2843(9)
H44 H -1.1916 0.8633 0.3077
C36 C -1.2149(13) 0.4484(12) 0.2179(9)
H45 H -1.1880 0.4695 0.1967
C37 C -1.0509(12) 0.579(2) 0.2406(14)
C38 C -0.2006(11) 0.6773(10) 0.0753(8)
H46 H -0.1834 0.6988 0.1001
C39 C -1.469(2) 0.111(2) 0.2880(17)
H47 H -1.5039 0.0851 0.3024
H48 H -1.4290 0.1144 0.3085
C40 C -0.8039(12) 1.0117(11) 0.2727(8)
H49 H -0.8376 1.0316 0.2902
C41 C -1.2856(14) 0.4478(13) 0.2840(10)
H50 H -1.3088 0.4680 0.3073
C42 C -1.2352(11) 0.1748(11) 0.4975(8)
H51 H -1.2454 0.1957 0.5240
C43 C -0.2273(11) 0.5806(10) 0.0405(8)
C44 C -0.7004(13) 0.4443(12) 0.2713(9)
H52 H -0.6670 0.4221 0.2874
C45 C -0.8020(13) 0.9501(11) 0.2678(8)
H53 H -0.8412 0.9285 0.2781
C46 C -1.5427(13) 0.8003(11) 0.3022(9)
H54 H -1.5020 0.7810 0.2919
C47 C -0.7489(14) 0.6089(13) 0.2493(10)
C48 C -0.7503(13) 1.2045(13) 0.2883(10)
H55 H -0.7498 1.2264 0.3151
C49 C -1.2976(13) 0.4149(11) 0.4393(8)
H56 H -1.3321 0.3895 0.4270
C50 C -0.9567(12) 0.3025(10) 0.3044(8)
H57 H -0.9989 0.2863 0.2935
C51 C -0.7477(12) 0.6409(12) 0.2906(9)
H58 H -0.7472 0.6212 0.3184
C52 C -1.1942(14) 0.7552(13) 0.2326(9)
H59 H -1.1556 0.7762 0.2209
C53 C -1.2666(10) 0.6760(10) 0.4984(7)
H60 H -1.2580 0.6966 0.5252
C54 C -1.2492(13) 0.7840(11) 0.2499(8)
C55 C -1.1965(14) 0.6900(13) 0.2324(9)
H61 H -1.1589 0.6691 0.2193
C56 C -0.9762(12) 0.8551(10) 0.4768(8)
H62 H -0.9522 0.8426 0.5043
H63 H -0.9440 0.8812 0.4602
C57 C -0.3003(12) 0.4253(10) 0.0214(8)
H64 H -0.3393 0.4081 0.0069
C58 C -1.2488(11) 0.3523(10) 0.2521(8)
C59 C -0.8906(12) 0.3520(11) 0.3604(9)
H65 H -0.8876 0.3707 0.3886
C60 C -1.1443(12) 0.8298(10) 0.1173(8)
H66 H -1.1882 0.8385 0.1300
C61 C -0.6660(12) 0.3521(10) 0.1690(8)
H67 H -0.7072 0.3721 0.1601
C62 C -0.2380(11) 0.6133(10) 0.0001(8)
H68 H -0.2455 0.5931 -0.0271
C63 C -1.2021(11) 0.1764(11) 0.4250(8)
H69 H -1.1883 0.1974 0.3992
C64 C -1.6682(12) 0.8530(11) 0.3320(8)
H70 H -1.7089 0.8737 0.3408
C65 C -1.2265(11) 0.0805(10) 0.4595(8)
C66 C -0.0017(12) 0.1700(10) 0.2172(8)
H71 H 0.0383 0.1705 0.2379
H72 H -0.0369 0.1981 0.2286
C67 C -1.3087(14) 0.2541(12) 0.2343(9)
H73 H -1.3493 0.2738 0.2242
C68 C -1.2922(13) -0.0127(12) 0.4813(9)
H74 H -1.3240 0.0120 0.4968
C69 C -0.2066(11) 0.6132(10) 0.0788(8)
H75 H -0.1970 0.5934 0.1059
C70 C -0.8046(14) 0.5105(13) 0.2308(9)
H76 H -0.8438 0.5306 0.2191
C71 C -1.0789(12) 0.8012(11) 0.0558(9)
H77 H -1.0771 0.7945 0.0247
C72 C -0.2372(10) 0.6755(10) 0.0017(8)
H78 H -0.2504 0.6972 -0.0239
C73 C -1.4987(10) 0.1688(9) 0.2824(6)
H79 H -1.5390 0.1668 0.2621
H80 H -1.4640 0.1963 0.2696
C74 C -0.6037(12) 0.3038(11) 0.2233(9)
H81 H -0.6007 0.2885 0.2525
C75 C -0.2081(12) -0.0129(11) 0.0214(8)
H82 H -0.1743 0.0118 0.0078
C76 C -0.7449(13) 1.2075(13) 0.2094(10)
H83 H -0.7416 1.2293 0.1826
C77 C -0.2636(11) 0.1132(11) 0.0013(8)
H84 H -0.2551 0.0928 -0.0257
C78 C -0.2657(11) 0.0141(10) 0.0426(8)
C79 C -1.0164(12) 0.8018(10) 0.0801(8)
H85 H -0.9740 0.7898 0.0668
C80 C -1.0186(11) 0.3222(10) 0.3745(8)
C81 C -1.0182(11) 0.8210(9) 0.1253(7)
C82 C -0.2663(10) 0.1749(10) 0.0028(7)
H86 H -0.2546 0.1964 -0.0232
C83 C -0.8896(11) 0.8496(10) 0.1397(8)
H87 H -0.8858 0.8655 0.1107
C84 C -0.8336(12) 0.8521(10) 0.1674(8)
H88 H -0.7929 0.8717 0.1572
C85 C -0.7528(12) 0.7051(11) 0.2108(9)
H89 H -0.7565 0.7266 0.1839
C86 C -0.2360(11) 0.5148(10) 0.0426(7)
C87 C -1.2627(10) 0.5138(9) 0.4585(7)
C88 C -0.2738(11) 0.0826(10) 0.0403(8)
C89 C -0.9558(13) 0.8004(11) 0.1978(9)
H90 H -0.9969 0.7830 0.2093
C90 C -1.0817(12) 0.2972(11) 0.4432(9)
H91 H -1.0805 0.2824 0.4726
C91 C -1.2745(10) 0.5795(9) 0.4593(7)
C92 C -0.5238(13) 0.8547(12) 0.0226(9)
H92 H -0.5440 0.8418 -0.0060
H93 H -0.5587 0.8798 0.0378
C93 C -1.5253(11) 0.3552(10) 0.4772(8)
H94 H -1.5621 0.3787 0.4625
H95 H -1.5435 0.3421 0.5062
C94 C -0.2983(11) 0.1752(11) 0.0761(8)
H96 H -0.3103 0.1965 0.1021
C95 C -0.1988(12) -0.0767(11) 0.0194(8)
H97 H -0.1609 -0.0944 0.0042
C96 C -1.1989(14) 0.1922(12) 0.2653(9)
H98 H -1.1596 0.1722 0.2772
C97 C -0.6947(14) 1.0119(13) 0.2300(9)
H99 H -0.6556 1.0323 0.2184
C98 C -0.8966(12) 0.3041(11) 0.2772(9)
H100 H -0.8993 0.2873 0.2484
C99 C -1.2500(11) 0.8516(10) 0.2495(8)
C100 C -1.3034(13) -0.0735(11) 0.4800(8)
H101 H -1.3443 -0.0892 0.4932
C101 C -0.4980(11) 0.6694(10) 0.2181(7)
H102 H -0.4615 0.6959 0.2299
H103 H -0.5375 0.6690 0.2391
C102 C -1.2086(12) 0.4866(11) 0.4798(8)
H104 H -1.1754 0.5099 0.4953
C103 C -1.3044(13) 0.1886(11) 0.2352(8)
H105 H -1.3434 0.1674 0.2242
C104 C -1.1998(12) -0.0868(11) 0.4368(8)
H106 H -1.1677 -0.1114 0.4215
C105 C -0.3545(12) 0.3296(10) 0.1156(8)
H107 H -0.3100 0.3399 0.1268
C106 C -1.4161(13) 0.8368(12) 0.3575(10)
H108 H -1.4118 0.8519 0.3283
C107 C -1.2053(10) 0.1120(10) 0.4231(7)
H109 H -1.1927 0.0918 0.3967
C108 C -1.1438(11) 0.3305(9) 0.3834(7)
H110 H -1.1871 0.3409 0.3705
C109 C -1.0832(12) 0.3359(10) 0.3578(8)
H111 H -1.0868 0.3494 0.3281
C110 C -0.9528(11) 0.3253(10) 0.3477(8)
C111 C -0.7485(15) 1.1088(14) 0.2482(11)
C112 C -1.2634(10) 0.6123(10) 0.4972(8)
H112 H -1.2533 0.5917 0.5239
C113 C -0.6106(12) 0.3508(11) 0.1379(9)
H113 H -0.6155 0.3647 0.1084
C114 C -0.2937(12) 0.4888(11) 0.0208(8)
H114 H -0.3272 0.5128 0.0062
C115 C -1.4208(12) 0.7975(10) 0.4443(8)
H115 H -1.4221 0.7866 0.4746
C116 C -1.2022(12) 0.4258(11) 0.4789(8)
H116 H -1.1641 0.4093 0.4947
C117 C -0.4841(13) 0.3018(11) 0.0812(9)
H117 H -0.5270 0.2897 0.0686
C118 C -0.7514(12) 1.0417(10) 0.2493(8)
C119 C -1.1907(11) -0.0238(10) 0.4364(7)
H118 H -1.1537 -0.0077 0.4194
C120 C -1.3094(12) 0.4765(10) 0.4354(8)
H119 H -1.3466 0.4920 0.4183
C121 C -1.3000(10) 0.6757(10) 0.4226(8)
H120 H -1.3157 0.6958 0.3968
C122 C -0.1910(12) 0.4768(10) 0.0632(8)
H121 H -0.1516 0.4931 0.0777
C123 C -1.5465(12) 0.8261(10) 0.3450(8)
C124 C -0.7535(13) 1.1402(13) 0.2912(10)
H122 H -0.7585 1.1198 0.3185
C125 C -0.3014(12) -0.0875(11) 0.0630(8)
H123 H -0.3330 -0.1133 0.0775
C126 C -0.4221(12) 0.2990(11) 0.0547(9)
H124 H -0.4250 0.2901 0.0240
C127 C -0.2003(12) 0.4131(11) 0.0642(8)
H125 H -0.1693 0.3887 0.0805
C128 C -1.2954(10) 0.6138(9) 0.4217(7)
H126 H -1.3067 0.5936 0.3950
C129 C -1.0818(11) 0.8381(10) 0.1427(8)
H127 H -1.0841 0.8553 0.1714
C130 C -1.2392(11) 0.1137(10) 0.4985(8)
H128 H -1.2503 0.0938 0.5254
C131 C -1.6016(11) 0.8049(10) 0.2763(8)
H129 H -1.5989 0.7916 0.2465
C132 C -1.0034(11) 0.6706(10) 0.2834(7)
H130 H -1.0387 0.6989 0.2723
H131 H -0.9640 0.6707 0.2623
C133 C -0.3115(12) -0.0257(11) 0.0651(8)
H132 H -0.3492 -0.0101 0.0817
C134 C -0.8940(11) 0.8045(10) 0.2236(8)
H133 H -0.8953 0.7900 0.2530
C135 C -0.7500(13) 0.5425(11) 0.2517(8)
C136 C -0.5477(11) 0.3272(10) 0.1542(8)
C137 C -0.4830(10) 0.3216(9) 0.1249(7)
C138 C -0.4136(11) 0.3364(10) 0.1440(8)
H134 H -0.4088 0.3498 0.1737
C139 C -0.032(2) 0.4287(18) -0.0282(14)
C140 C -0.469(2) 0.6055(12) 0.2119(16)
H135 H -0.5054 0.5784 0.2017
C141 C -1.024(4) 0.9435(17) 0.5183(13)
C142 C -0.4689(19) 0.9334(17) -0.0263(11)
C143 C -1.442(2) 0.0766(19) 0.2422(15)
C144 C -1.034(2) 0.611(2) 0.2851(13)
H136 H -1.0771 0.6130 0.3026
H137 H -1.0012 0.5848 0.3018
Mo15A Mo -0.35848(10) 0.32534(9) -0.08030(7)
O44_2 O -1.3784(10) 0.5633(9) 0.2683(7)
O49_2 O -1.3779(10) 1.0620(8) 0.2316(6)
O62_2 O -0.8207(7) 0.3237(6) 0.1842(5)
O67A O -1.1750(7) 0.3016(7) 0.5303(5)
O69A O -1.3242(7) 0.8016(6) 0.5296(5)
O71_2 O -0.6792(7) 0.3230(6) 0.3160(5)
O75A O -0.6758(7) 0.6990(6) 0.0294(5)
O96A O -0.1757(7) 0.8018(6) -0.0294(5)
O106_2 O -1.1181(9) 1.0637(8) 0.2663(6)
Cu1_2 Cu -1.26968(13) -0.20220(12) 0.46086(9)
Cu1A Cu -1.73032(13) 0.20220(12) 0.53914(9)
Cu2A Cu -0.76962(13) 0.70187(12) 0.53913(9)
Cu4_2 Cu -1.23041(14) 0.79790(12) 0.03930(9)
Cu4_3 Cu -0.23041(14) -0.20210(12) 0.03930(9)
Cu4A Cu 0.23041(14) 0.20210(12) -0.03930(9)
Cu5_2 Cu -1.25002(15) 0.06930(14) 0.24987(11)
Cu5_3 Cu -0.25002(15) 0.06930(14) 0.24987(11)
Cu6_2 Cu -0.25009(16) 0.56915(14) 0.24998(11)
Cu7_2 Cu -1.74999(14) 0.32675(12) 0.25007(10)
Cu7_3 Cu -0.74999(14) 1.32675(12) 0.25007(10)
Cu7_4 Cu 0.25001(14) 0.32675(12) 0.25007(10)
Cu8_2 Cu -1.74989(15) 0.82655(13) 0.25013(10)
N2_2 N -1.2556(8) 0.8871(7) 0.4596(6)
N6_2 N -1.2503(10) 1.1557(8) 0.2503(6)
N11_2 N -0.7479(9) 0.2351(7) 0.2501(6)
N15_2 N -0.2478(9) 0.8898(8) 0.0408(6)
N22_2 N -0.1405(9) 0.8096(8) 0.0750(6)
N23_2 N -0.6649(10) 0.8278(9) 0.2910(7)
O109 O -1.7399(15) -0.0082(14) 0.3919(11)
O110 O -1.5862(17) 0.5193(16) 0.1563(12)
O111 O 0.2378(18) -0.0078(16) 0.1082(12)
O112 O -0.7414(16) 0.4962(15) 0.1080(11)
O113 O -1.1038(13) 1.0180(12) 0.6076(9)
O114 O -0.9116(14) 1.0191(12) 0.1535(9)
O115 O -0.5854(15) 1.0168(14) 0.3456(10)
O116 O -0.9115(16) 0.5181(14) 0.3448(11)
O117 O -0.1035(13) 0.5168(12) -0.1100(9)
O118 O -0.7545(15) 0.4950(14) 0.3892(10)
O119 O -0.4812(13) 0.9613(12) 0.2894(9)
O120 O -0.6058(11) 0.9825(10) 0.1097(8)
O121 O -0.3334(11) 0.7787(10) -0.0826(8)
O122 O -1.0178(12) 0.9614(11) 0.2123(8)
O123 O -1.4803(12) 0.4604(11) 0.2116(9)
O124 O -1.1653(9) 0.7772(9) 0.5820(7)
O125 O -1.1309(10) 0.4983(9) 0.3482(7)
O126 O -0.4391(10) 1.0313(9) 0.1381(7)
O127 O -1.0572(10) 1.0315(10) 0.3613(7)
O128 O -1.0585(10) 0.5305(9) 0.1379(7)
O129 O -1.1302(9) 0.9959(8) 0.1486(6)
O130 O -1.3732(9) 0.4963(8) 0.1505(6)
O131 O -1.3698(9) 0.9956(8) 0.3500(6)
O132 O -0.0220(11) 0.4588(10) 0.2881(8)
O133 O -0.1668(10) 0.2764(9) -0.0804(7)
O134 O -0.4559(19) 0.5261(17) -0.0661(13)
O135 O -1.6083(13) 0.4820(12) 0.3916(9)
O136 O -1.5600(11) 0.4694(10) 0.6389(8)
O137 O -1.3341(10) 0.2778(9) 0.5820(7)
O138 O -0.994(3) 0.653(3) 0.194(2)
O139 O -1.493(3) 0.165(3) 0.191(2)
O140 O -1.042(3) 0.527(2) 0.5634(18)
O141 O -1.548(4) 0.636(4) 0.324(3)
O142 O -0.537(3) 0.974(2) 0.4375(17)
loop_
_geom_bond_atom_site_label_1
_geom_bond_atom_site_label_2
_geom_bond_site_symmetry_1
_geom_bond_site_symmetry_2
Mo1 O4 1_555 1_555
Mo2 O5 1_555 1_555
Mo3 O13 1_555 1_555
Mo4 O10 1_555 1_555
Mo5 O4 1_555 1_555
Mo6 O12 1_555 1_555
Mo7 O13 1_555 1_555
Mo8 O5 1_555 1_555
Mo9 O3 1_555 1_555
Mo10 O17 1_555 1_555
Mo11 O8 1_555 1_555
Mo12 O1 1_555 1_555
Mo13 O6 1_555 1_555
Mo14 O8 1_555 1_555
Mo15 O55 1_555 1_555
Mo16 O23 1_555 1_555
Mo17 O3 1_555 1_555
Mo18 O1 1_555 1_555
Mo19 O17 1_555 1_555
Mo20 O26 1_555 1_555
P1 O18 1_555 1_555
P2 O12 1_555 1_555
P3 O15 1_555 1_555
P4 O14 1_555 1_555
P5 O3 1_555 1_555
P6 O16 1_555 1_555
P7 O1 1_555 1_555
P8 O8 1_555 1_555
O2 C29 1_555 1_555
O7 Mo12 1_555 1_555
O9 Mo1 1_555 1_555
O10 Cu2 1_555 1_555
O11 Mo2 1_555 1_555
O13 P5 1_555 1_555
O14 Mo2 1_555 1_555
O15 Mo3 1_555 1_555
O16 Mo5 1_555 1_555
O18 Mo4 1_555 1_555
O19 Mo2 1_555 1_555
O20 Mo3 1_555 1_555
O21 Mo8 1_555 1_555
O22 Mo13 1_555 1_555
O23 Mo19 1_555 1_555
O24 Mo10 1_555 1_555
O25 Mo4 1_555 1_555
O26 P8 1_555 1_555
O27 Mo18 1_555 1_555
O28 Mo4 1_555 1_555
O29 Mo4 1_555 1_555
O30 Cu5 1_555 1_555
O31 Mo3 1_555 1_555
O32 Mo19 1_555 1_555
O33 H1 1_555 1_555
H2 O33 1_555 1_555
O34 Mo7 1_555 1_555
O35 H3 1_555 1_555
H4 O35 1_555 1_555
O36 Mo2 1_555 1_555
O37 H5 1_555 1_555
H6 O37 1_555 1_555
O38 Mo14 1_555 1_555
O39 H7 1_555 1_555
H8 O39 1_555 1_555
O40 Mo11 1_555 1_555
O41 Cu5 1_555 1_555
O42 Mo20 1_555 1_555
O43 Mo1 1_555 1_555
O44 C29 1_555 1_555
O45 Mo3 1_555 1_555
O46 H9 1_555 1_555
H10 O46 1_555 1_555
O47 Mo16 1_555 1_555
O48 Mo1 1_555 1_555
O49 C143 1_555 1_555
O50 Mo3 1_555 1_555
O51 Mo9 1_555 1_555
O52 Mo12 1_555 1_555
O53 Mo17 1_555 1_555
O54 Mo12 1_555 1_555
O55 Mo7 1_555 1_555
O56 Mo13 1_555 1_555
O57 Mo18 1_555 1_555
O58 Mo10 1_555 1_555
O59 Mo8 1_555 1_555
O60 Mo5 1_555 1_555
O61 Mo6 1_555 1_555
O62 Mo14 1_555 1_555
O63 Mo17 1_555 1_555
O64 Mo11 1_555 1_555
O65 Cu3 1_555 1_555
O66 Mo15 1_555 1_555
O67 Mo13 1_555 1_555
O68 Mo16 1_555 1_555
O69 Mo16 1_555 1_555
O70 Mo15 1_555 1_555
O71 Mo19 1_555 1_555
O72 Mo14 1_555 1_555
O73 Mo1 1_555 1_555
O74 Mo14 1_555 1_555
O75 Cu3 1_555 1_555
O76 C141 1_555 1_555
O77 C141 1_555 1_555
O78 C142 1_555 1_555
O79 Mo6 1_555 1_555
O80 Mo5 1_555 1_555
O81 Mo5 1_555 1_555
O82 Mo11 1_555 1_555
O83 Mo7 1_555 1_555
O84 Mo8 1_555 1_555
O85 Cu6 1_555 1_555
O86 Mo9 1_555 1_555
O87 Mo15 1_555 1_555
O88 Mo15 1_555 1_555
O89 Mo10 1_555 1_555
O90 Mo9 1_555 1_555
O91 Mo4 1_555 1_555
O92 Mo2 1_555 1_555
O93 Mo8 1_555 1_555
O94 Mo1 1_555 1_555
O95 Mo13 1_555 1_555
O96 Mo20 1_555 1_555
O97 Mo16 1_555 1_555
O98 Mo7 1_555 1_555
O99 C33 1_555 1_555
O100 C139 1_555 1_555
O101 Mo6 1_555 1_555
O102 C33 1_555 1_555
O103 C139 1_555 1_555
O104 C143 1_555 1_555
O105 C142 1_555 1_555
O106 C32 1_555 1_555
O107 C32 1_555 1_555
O108 C37 1_555 1_555
Cu1 O11 1_555 1_555
Cu2 O35 1_555 1_555
Cu3 O43 1_555 1_555
Cu4 O20 1_555 1_555
Cu5 N8 1_555 1_555
Cu6 O33 1_555 1_555
Cu7 N9 1_555 1_555
Cu8 O27 1_555 1_555
N1 Cu2 1_555 1_555
N2 C100 1_555 1_555
N3 Cu2 1_555 1_555
N4 Cu1 1_555 1_555
N5 Cu6 1_555 1_555
N6 C96 1_555 1_555
N7 Cu6 1_555 1_555
N8 C6 1_555 1_555
N9 C25 1_555 1_555
N10 Cu8 1_555 1_555
N11 C48 1_555 1_555
N12 Cu8 1_555 1_555
N13 Cu4 1_555 1_555
N14 Cu3 1_555 1_555
N15 C95 1_555 1_555
N16 Cu3 1_555 1_555
N17 Cu7 1_555 1_555
N18 Cu3 1_555 1_555
N19 Cu7 1_555 1_555
N20 Cu2 1_555 1_555
N21 Cu8 1_555 1_555
N22 C60 1_555 1_555
N23 C64 1_555 1_555
N24 Cu1 1_555 1_555
C1 H11 1_555 1_555
C2 H12 1_555 1_555
C3 N10 1_555 1_555
H13 C3 1_555 1_555
C4 H14 1_555 1_555
H15 C4 1_555 1_555
C5 H16 1_555 1_555
C6 C5 1_555 1_555
H17 C6 1_555 1_555
C7 C30 1_555 1_555
C8 N7 1_555 1_555
H18 C8 1_555 1_555
C9 N19 1_555 1_555
H19 C9 1_555 1_555
C10 H20 1_555 1_555
C11 N12 1_555 1_555
H21 C11 1_555 1_555
C12 N24 1_555 1_555
H22 C12 1_555 1_555
C13 H23 1_555 1_555
H24 C13 1_555 1_555
C14 H25 1_555 1_555
H26 C14 1_555 1_555
C15 C81 1_555 1_555
C16 H27 1_555 1_555
C17 N8 1_555 1_555
H28 C17 1_555 1_555
C18 H29 1_555 1_555
H30 C18 1_555 1_555
C19 C22 1_555 1_555
C20 P6 1_555 1_555
H31 C20 1_555 1_555
H32 C20 1_555 1_555
C21 C65 1_555 1_555
C22 H33 1_555 1_555
C23 H34 1_555 1_555
H35 C23 1_555 1_555
C24 H36 1_555 1_555
C25 H37 1_555 1_555
C26 H38 1_555 1_555
C27 H39 1_555 1_555
C28 C8 1_555 1_555
H40 C28 1_555 1_555
C29 C140 1_555 1_555
C30 H41 1_555 1_555
C31 H42 1_555 1_555
C32 C13 1_555 1_555
C33 C18 1_555 1_555
C34 H43 1_555 1_555
C35 C17 1_555 1_555
H44 C35 1_555 1_555
C36 N5 1_555 1_555
H45 C36 1_555 1_555
C37 O85 1_555 1_555
C38 N13 1_555 1_555
H46 C38 1_555 1_555
C39 H47 1_555 1_555
H48 C39 1_555 1_555
C40 H49 1_555 1_555
C41 N5 1_555 1_555
H50 C41 1_555 1_555
C42 N1 1_555 1_555
H51 C42 1_555 1_555
C43 C62 1_555 1_555
C44 N9 1_555 1_555
H52 C44 1_555 1_555
C45 N12 1_555 1_555
H53 C45 1_555 1_555
C46 H54 1_555 1_555
C47 C16 1_555 1_555
C48 H55 1_555 1_555
C49 N3 1_555 1_555
H56 C49 1_555 1_555
C50 H57 1_555 1_555
C51 C3 1_555 1_555
H58 C51 1_555 1_555
C52 H59 1_555 1_555
C53 N4 1_555 1_555
H60 C53 1_555 1_555
C54 C28 1_555 1_555
C55 N7 1_555 1_555
H61 C55 1_555 1_555
C56 P4 1_555 1_555
H62 C56 1_555 1_555
H63 C56 1_555 1_555
C57 N14 1_555 1_555
H64 C57 1_555 1_555
C58 C10 1_555 1_555
C59 C9 1_555 1_555
H65 C59 1_555 1_555
C60 H66 1_555 1_555
C61 N17 1_555 1_555
H67 C61 1_555 1_555
C62 H68 1_555 1_555
C63 N1 1_555 1_555
H69 C63 1_555 1_555
C64 C2 1_555 1_555
H70 C64 1_555 1_555
C65 C107 1_555 1_555
C66 P8 1_555 1_555
H71 C66 1_555 1_555
H72 C66 1_555 1_555
C67 C19 1_555 1_555
H73 C67 1_555 1_555
C68 C21 1_555 1_555
H74 C68 1_555 1_555
C69 C38 1_555 1_555
H75 C69 1_555 1_555
C70 C25 1_555 1_555
H76 C70 1_555 1_555
C71 N22 1_555 1_555
H77 C71 1_555 1_555
C72 N13 1_555 1_555
H78 C72 1_555 1_555
C73 P1 1_555 1_555
H79 C73 1_555 1_555
H80 C73 1_555 1_555
C74 N17 1_555 1_555
H81 C74 1_555 1_555
C75 H82 1_555 1_555
C76 N11 1_555 1_555
H83 C76 1_555 1_555
C77 H84 1_555 1_555
C78 C75 1_555 1_555
C79 C71 1_555 1_555
H85 C79 1_555 1_555
C80 C27 1_555 1_555
C81 C79 1_555 1_555
C82 N16 1_555 1_555
H86 C82 1_555 1_555
C83 C15 1_555 1_555
H87 C83 1_555 1_555
C84 N21 1_555 1_555
H88 C84 1_555 1_555
C85 N10 1_555 1_555
H89 C85 1_555 1_555
C86 C43 1_555 1_555
C87 C91 1_555 1_555
C88 C24 1_555 1_555
C89 C15 1_555 1_555
H90 C89 1_555 1_555
C90 N20 1_555 1_555
H91 C90 1_555 1_555
C91 C112 1_555 1_555
C92 P3 1_555 1_555
H92 C92 1_555 1_555
H93 C92 1_555 1_555
C93 P2 1_555 1_555
H94 C93 1_555 1_555
H95 C93 1_555 1_555
C94 N16 1_555 1_555
H96 C94 1_555 1_555
C95 C75 1_555 1_555
H97 C95 1_555 1_555
C96 C22 1_555 1_555
H98 C96 1_555 1_555
C97 C11 1_555 1_555
H99 C97 1_555 1_555
C98 N19 1_555 1_555
H100 C98 1_555 1_555
C99 C5 1_555 1_555
C100 C68 1_555 1_555
H101 C100 1_555 1_555
C101 P5 1_555 1_555
H102 C101 1_555 1_555
H103 C101 1_555 1_555
C102 C87 1_555 1_555
H104 C102 1_555 1_555
C103 N6 1_555 1_555
H105 C103 1_555 1_555
C104 N2 1_555 1_555
H106 C104 1_555 1_555
C105 N18 1_555 1_555
H107 C105 1_555 1_555
C106 C7 1_555 1_555
H108 C106 1_555 1_555
C107 C63 1_555 1_555
H109 C107 1_555 1_555
C108 N20 1_555 1_555
H110 C108 1_555 1_555
C109 C80 1_555 1_555
H111 C109 1_555 1_555
C110 C50 1_555 1_555
C111 C1 1_555 1_555
C112 C53 1_555 1_555
H112 C112 1_555 1_555
C113 C61 1_555 1_555
H113 C113 1_555 1_555
C114 C57 1_555 1_555
H114 C114 1_555 1_555
C115 N24 1_555 1_555
H115 C115 1_555 1_555
C116 N3 1_555 1_555
H116 C116 1_555 1_555
C117 H117 1_555 1_555
C118 C40 1_555 1_555
C119 C21 1_555 1_555
H118 C119 1_555 1_555
C120 C49 1_555 1_555
H119 C120 1_555 1_555
C121 N4 1_555 1_555
H120 C121 1_555 1_555
C122 C86 1_555 1_555
H121 C122 1_555 1_555
C123 C2 1_555 1_555
C124 C48 1_555 1_555
H122 C124 1_555 1_555
C125 N15 1_555 1_555
H123 C125 1_555 1_555
C126 N18 1_555 1_555
H124 C126 1_555 1_555
C127 N14 1_555 1_555
H125 C127 1_555 1_555
C128 C91 1_555 1_555
H126 C128 1_555 1_555
C129 C60 1_555 1_555
H127 C129 1_555 1_555
C130 C42 1_555 1_555
H128 C130 1_555 1_555
C131 N23 1_555 1_555
H129 C131 1_555 1_555
C132 P7 1_555 1_555
H130 C132 1_555 1_555
H131 C132 1_555 1_555
C133 C78 1_555 1_555
H132 C133 1_555 1_555
C134 N21 1_555 1_555
H133 C134 1_555 1_555
C135 C34 1_555 1_555
C136 C31 1_555 1_555
C137 C117 1_555 1_555
C138 C105 1_555 1_555
H134 C138 1_555 1_555
C139 C14 1_555 1_555
C140 C101 1_555 1_555
H135 C140 1_555 1_555
C141 C4 1_555 1_555
C142 C23 1_555 1_555
C143 C39 1_555 1_555
C144 C37 1_555 1_555
H136 C144 1_555 1_555
H137 C144 1_555 1_555
Mo15A O75 1_555 1_555
O44_2 Cu6 1_555 1_555
O49_2 Cu5 1_555 1_555
O62_2 Cu7 1_555 1_555
O67A Cu2 1_555 1_555
O69A Cu1 1_555 1_555
O71_2 Cu7 1_555 1_555
O75A Mo15 1_555 1_555
O96A Cu4 1_555 1_555
O106_2 Cu5 1_555 1_555
Cu1_2 N2 1_555 1_555
Cu1A O69 1_555 1_555
Cu2A O67 1_555 1_555
Cu4_2 N22 1_555 1_555
Cu4_3 N15 1_555 1_555
Cu4A O96 1_555 1_555
Cu5_2 O49 1_555 1_555
Cu5_3 O106 1_555 1_555
Cu6_2 O44 1_555 1_555
Cu7_2 O71 1_555 1_555
Cu7_3 N11 1_555 1_555
Cu7_4 O62 1_555 1_555
Cu8_2 N23 1_555 1_555
N2_2 Cu1 1_555 1_555
N6_2 Cu5 1_555 1_555
N11_2 Cu7 1_555 1_555
N15_2 Cu4 1_555 1_555
N22_2 Cu4 1_555 1_555
N23_2 Cu8 1_555 1_555
Mo5 O9 1_555 1_555
Mo6 O18 1_555 1_555
Mo6 O25 1_555 1_555
Mo7 O45 1_555 1_555
Mo8 O19 1_555 1_555
Mo9 O15 1_555 1_555
Mo9 O50 1_555 1_555
Mo10 O28 1_555 1_555
Mo10 O91 1_555 1_555
Mo11 O48 1_555 1_555
Mo11 O94 1_555 1_555
Mo12 O14 1_555 1_555
Mo12 O92 1_555 1_555
Mo13 O84 1_555 1_555
Mo14 O64 1_555 1_555
Mo16 O79 1_555 1_555
Mo17 O51 1_555 1_555
Mo17 O70 1_555 1_555
Mo17 O88 1_555 1_555
Mo18 O22 1_555 1_555
Mo18 O52 1_555 1_555
Mo18 O95 1_555 1_555
Mo19 O24 1_555 1_555
Mo19 O97 1_555 1_555
Mo20 O72 1_555 1_555
Mo20 O74 1_555 1_555
Mo20 O80 1_555 1_555
P1 O24 1_555 1_555
P1 O68 1_555 1_555
P2 O23 1_555 1_555
P2 O28 1_555 1_555
P3 O34 1_555 1_555
P3 O70 1_555 1_555
P4 O22 1_555 1_555
P4 O59 1_555 1_555
P5 O87 1_555 1_555
P6 O48 1_555 1_555
P6 O74 1_555 1_555
P7 O19 1_555 1_555
P7 O56 1_555 1_555
P8 O9 1_555 1_555
O37 Cu1 1_555 1_555
O39 Cu6 1_555 1_555
O46 Cu4 1_555 1_555
O53 Cu8 1_555 1_555
N6 Cu5_2 1_555 1_555
C1 C76 1_555 1_555
C4 C56 1_555 1_555
C7 C123 1_555 1_555
C10 C36 1_555 1_555
C12 C106 1_555 1_555
C13 C66 1_555 1_555
C14 C20 1_555 1_555
C16 C85 1_555 1_555
C18 C93 1_555 1_555
C19 C58 1_555 1_555
C23 C92 1_555 1_555
C24 C94 1_555 1_555
C26 C41 1_555 1_555
C26 C58 1_555 1_555
C27 C90 1_555 1_555
C30 C115 1_555 1_555
C31 C74 1_555 1_555
C34 C44 1_555 1_555
C35 C99 1_555 1_555
C39 C73 1_555 1_555
C40 C45 1_555 1_555
C43 C69 1_555 1_555
C46 C123 1_555 1_555
C46 C131 1_555 1_555
C47 C51 1_555 1_555
C47 C135 1_555 1_555
C50 C98 1_555 1_555
C52 C54 1_555 1_555
C52 C55 1_555 1_555
C54 C99 1_555 1_555
C59 C110 1_555 1_555
C62 C72 1_555 1_555
C65 C130 1_555 1_555
C67 C103 1_555 1_555
C70 C135 1_555 1_555
C77 C82 1_555 1_555
C77 C88 1_555 1_555
C78 C88 1_555 1_555
C80 C110 1_555 1_555
C81 C129 1_555 1_555
C83 C84 1_555 1_555
C86 C114 1_555 1_555
C87 C120 1_555 1_555
C89 C134 1_555 1_555
C97 C118 1_555 1_555
C102 C116 1_555 1_555
C104 C119 1_555 1_555
C108 C109 1_555 1_555
C111 C118 1_555 1_555
C111 C124 1_555 1_555
C113 C136 1_555 1_555
C117 C126 1_555 1_555
C121 C128 1_555 1_555
C122 C127 1_555 1_555
C125 C133 1_555 1_555
C132 C144 1_555 1_555
C136 C137 1_555 1_555
C137 C138 1_555 1_555

#END
