
#######################################################################
#
#                 Cambridge Crystallographic Data Centre
#                                CCDC 
#
#######################################################################
#
# If this CIF has been generated from an entry in the Cambridge 
# Structural Database, then it will include bibliographic, chemical, 
# crystal, experimental, refinement or atomic coordinate data resulting 
# from the CCDC's data processing and validation procedures.
#
#######################################################################

data_XUFXAZ
_symmetry_cell_setting           monoclinic
_symmetry_space_group_name_H-M   'P 21/c'
_symmetry_Int_Tables_number      14
_space_group_name_Hall           '-P 2ybc'
loop_
_symmetry_equiv_pos_site_id
_symmetry_equiv_pos_as_xyz
1 x,y,z
2 -x,1/2+y,1/2-z
3 -x,-y,-z
4 x,1/2-y,1/2+z
_cell_length_a                   20.8801(7)
_cell_length_b                   14.0911(4)
_cell_length_c                   21.2194(7)
_cell_angle_alpha                90
_cell_angle_beta                 103.637(2)
_cell_angle_gamma                90
_cell_volume                     6067.24
loop_
_atom_site_label
_atom_site_type_symbol
_atom_site_fract_x
_atom_site_fract_y
_atom_site_fract_z
Ba1 Ba 0.422587(17) 0.67050(2) 0.259217(17)
Ba2 Ba 0.468742(19) 0.41780(3) 0.164180(18)
N1 N 0.0225(3) 1.0255(4) -0.2963(3)
N2 N -0.2235(3) 1.0397(5) -0.3528(3)
N3 N 0.2164(5) 1.0402(9) -0.3984(6)
N4 N -0.0998(2) 0.2257(4) 0.1165(2)
N5 N -0.2902(3) 0.1899(5) 0.2201(3)
N6 N -0.0503(3) 0.2666(5) -0.1018(3)
O1 O 0.4280(2) 0.8694(3) 0.2394(2)
O2 O 0.3474(2) 0.7975(3) 0.1681(2)
O3 O 0.3598(2) 1.3023(3) 0.1585(3)
O4 O 0.4518(2) 1.2179(3) 0.1837(2)
O5 O 0.1771(2) 1.0622(3) 0.1095(2)
O6 O 0.3974(3) 0.5356(3) 0.3514(3)
O7 O 0.4424(2) 0.4718(3) 0.2775(2)
O8 O 0.4442(3) 0.0401(3) 0.3772(3)
O9 O 0.5021(2) 0.1194(3) 0.3212(2)
O10 O 0.3614(2) 0.5564(4) 0.1391(3)
H1 H 0.3586 0.5872 0.1041
H2 H 0.3244 0.5325 0.1402
O11 O 0.4356(2) 0.7860(3) 0.3716(2)
H3 H 0.4018 0.8155 0.3770
H4 H 0.4716 0.7927 0.4000
O12 O 0.4273(4) 0.4050(6) 0.0307(3)
H5 H 0.4391 0.3634 0.0067
H6 H 0.4005 0.4502 0.0177
O13 O 0.26033(19) 0.2555(3) 0.39926(19)
C1 C 0.3420(3) 0.9661(4) 0.1773(3)
C2 C 0.3794(3) 1.0495(4) 0.1853(3)
H7 H 0.4245 1.0472 0.2036
C3 C 0.3490(3) 1.1358(4) 0.1657(3)
C4 C 0.2813(3) 1.1394(4) 0.1407(3)
H8 H 0.2604 1.1972 0.1290
C5 C 0.2454(3) 1.0569(5) 0.1333(3)
C6 C 0.2743(3) 0.9706(4) 0.1500(3)
H9 H 0.2492 0.9155 0.1432
C7 C 0.3758(3) 0.8712(4) 0.1972(3)
C8 C 0.3905(3) 1.2256(5) 0.1708(3)
C9 C -0.0190(3) 1.0260(5) -0.2562(3)
C10 C 0.0044(3) 1.0239(5) -0.1887(3)
H10 H -0.0255 1.0223 -0.1625
C11 C 0.0711(3) 1.0242(5) -0.1604(3)
C12 C 0.1121(3) 1.0268(5) -0.2029(3)
H11 H 0.1575 1.0287 -0.1866
C13 C 0.0871(3) 1.0265(5) -0.2686(3)
C14 C 0.0979(3) 1.0280(5) -0.0898(3)
C15 C 0.0606(3) 1.0565(5) -0.0473(3)
H12 H 0.0161 1.0691 -0.0633
C16 C 0.0878(3) 1.0666(5) 0.0183(3)
H13 H 0.0614 1.0859 0.0456
C17 C 0.1538(3) 1.0483(4) 0.0438(3)
C18 C 0.1919(3) 1.0198(5) 0.0026(3)
H14 H 0.2365 1.0073 0.0189
C19 C 0.1645(4) 1.0095(5) -0.0626(4)
H15 H 0.1911 0.9896 -0.0895
C20 C -0.0901(3) 1.0289(4) -0.2886(3)
C21 C -0.1384(4) 1.0413(7) -0.2565(4)
H16 H -0.1281 1.0464 -0.2116
C22 C -0.2048(4) 1.0465(7) -0.2922(5)
H17 H -0.2370 1.0557 -0.2690
C23 C -0.1771(4) 1.0317(7) -0.3826(4)
H18 H -0.1895 1.0313 -0.4277
C24 C -0.1122(4) 1.0238(7) -0.3553(4)
H19 H -0.0824 1.0149 -0.3811
C25 C 0.1315(4) 1.0312(5) -0.3154(4)
C26 C 0.1119(4) 1.0010(7) -0.3776(4)
H20 H 0.0695 0.9775 -0.3935
C27 C 0.1559(6) 1.0057(10) -0.4171(6)
H21 H 0.1421 0.9833 -0.4593
C28 C 0.2343(5) 1.0703(8) -0.3414(6)
H22 H 0.2760 1.0973 -0.3288
C29 C 0.1958(4) 1.0661(6) -0.2949(5)
H23 H 0.2125 1.0858 -0.2524
C30 C 0.3938(3) 0.3681(4) 0.3397(3)
C31 C 0.4319(3) 0.2896(4) 0.3348(3)
H24 H 0.4694 0.2964 0.3187
C32 C 0.4146(3) 0.2000(4) 0.3539(3)
C33 C 0.3566(3) 0.1896(4) 0.3746(3)
H25 H 0.3438 0.1301 0.3861
C34 C 0.3184(3) 0.2672(4) 0.3777(3)
C35 C 0.3363(3) 0.3570(5) 0.3618(3)
H26 H 0.3104 0.4093 0.3658
C36 C 0.4126(3) 0.4655(4) 0.3219(3)
C37 C 0.4561(3) 0.1139(5) 0.3500(3)
C38 C -0.0989(3) 0.2156(4) 0.1802(3)
C39 C -0.0407(3) 0.2136(4) 0.2279(3)
H27 H -0.0421 0.2050 0.2710
C40 C 0.0200(3) 0.2245(4) 0.2118(3)
C41 C 0.0176(3) 0.2357(5) 0.1464(3)
H28 H 0.0566 0.2420 0.1328
C42 C -0.0423(3) 0.2376(5) 0.1009(3)
C43 C 0.0826(3) 0.2257(4) 0.2606(3)
C44 C 0.0864(3) 0.2445(5) 0.3263(3)
H29 H 0.0474 0.2518 0.3397
C45 C 0.1448(3) 0.2526(5) 0.3714(3)
H30 H 0.1455 0.2655 0.4145
C46 C 0.2028(3) 0.2414(4) 0.3518(3)
C47 C 0.2018(3) 0.2166(5) 0.2892(3)
H31 H 0.2412 0.2054 0.2772
C48 C 0.1427(3) 0.2083(5) 0.2441(3)
H32 H 0.1427 0.1907 0.2019
C49 C -0.1650(3) 0.2057(5) 0.1945(3)
C50 C -0.1739(3) 0.1995(5) 0.2567(3)
H33 H -0.1377 0.2001 0.2919
C51 C -0.2367(4) 0.1925(6) 0.2667(4)
H34 H -0.2412 0.1895 0.3092
C52 C -0.2817(3) 0.1918(5) 0.1603(4)
H35 H -0.3187 0.1863 0.1261
C53 C -0.2213(3) 0.2013(5) 0.1456(3)
H36 H -0.2186 0.2048 0.1026
C54 C -0.0459(3) 0.2495(5) 0.0310(3)
C55 C -0.0951(4) 0.2079(6) -0.0144(3)
H37 H -0.1277 0.1726 -0.0019
C56 C -0.0958(4) 0.2193(6) -0.0799(4)
H38 H -0.1304 0.1921 -0.1103
C57 C -0.0032(4) 0.3061(6) -0.0575(4)
H39 H 0.0288 0.3408 -0.0713
C58 C 0.0015(4) 0.2992(5) 0.0077(3)
H40 H 0.0365 0.3279 0.0367
Ba1A Ba -0.422587(17) 0.17050(2) 0.240783(17)
Ba1A_2 Ba 0.577413(17) 0.17050(2) 0.240783(17)
Ba1A_3 Ba 0.577413(17) 1.17050(2) 0.240783(17)
Ba2_2 Ba 0.468742(19) 1.41780(3) 0.164180(18)
Ba2A Ba 0.531258(19) -0.08220(3) 0.335820(18)
Ba2A_2 Ba 0.531258(19) 0.91780(3) 0.335820(18)
N5A N 0.2902(3) 0.6899(5) 0.2799(3)
O1A O 0.5720(2) 0.3694(3) 0.2606(2)
O3_2 O 0.3598(2) 0.3023(3) 0.1585(3)
O4_2 O 0.4518(2) 0.2179(3) 0.1837(2)
O4A O 0.5482(2) 0.7179(3) 0.3163(2)
O8A O 0.5558(3) 0.5401(3) 0.1228(3)
O9A O 0.4979(2) 0.6194(3) 0.1788(2)
O11A O 0.5644(2) 0.2860(3) 0.1284(2)
O14 O 0.3548(2) -0.0789(3) 0.4088(2)
H41 H 0.3154 -0.0686 0.3876
H42 H 0.3797 -0.0378 0.3975
O15 O 0.3000(5) 0.8100(6) 0.0330(4)
H43 H 0.3013 0.8622 0.0534
H44 H 0.2808 0.8212 -0.0062
O16 O 0.3766(5) -0.1527(6) 0.5325(4)
H45 H 0.3765 -0.2013 0.5087
H46 H 0.3986 -0.1080 0.5207
O17 O 0.2884(5) 1.1161(9) -0.4915(4)
H47 H 0.3230 1.1453 -0.4951
H48 H 0.3003 1.0877 -0.4553
O18 O 0.3675(6) 0.5397(7) 0.4766(4)
H49 H 0.3997 0.5726 0.4707
H50 H 0.3768 0.4858 0.4945
O19 O 0.4845(7) 0.7252(10) 0.4994(5)
H51 H 0.5031 0.6987 0.5350
H52 H 0.5082 0.7091 0.4736
loop_
_geom_bond_atom_site_label_1
_geom_bond_atom_site_label_2
_geom_bond_site_symmetry_1
_geom_bond_site_symmetry_2
Ba1 O1 1_555 1_555
Ba2 O7 1_555 1_555
N1 C9 1_555 1_555
N2 C22 1_555 1_555
N3 C27 1_555 1_555
N4 C38 1_555 1_555
N5 C51 1_555 1_555
N6 C56 1_555 1_555
O1 C7 1_555 1_555
O2 Ba1 1_555 1_555
O3 C8 1_555 1_555
O4 C8 1_555 1_555
O5 C5 1_555 1_555
O6 Ba1 1_555 1_555
O7 Ba1 1_555 1_555
O8 C37 1_555 1_555
O9 C37 1_555 1_555
O10 Ba1 1_555 1_555
H1 O10 1_555 1_555
H2 O10 1_555 1_555
O11 Ba1 1_555 1_555
H3 O11 1_555 1_555
H4 O11 1_555 1_555
O12 Ba2 1_555 1_555
H5 O12 1_555 1_555
H6 O12 1_555 1_555
O13 C34 1_555 1_555
C1 C2 1_555 1_555
C2 H7 1_555 1_555
C3 C2 1_555 1_555
C4 C3 1_555 1_555
H8 C4 1_555 1_555
C5 C4 1_555 1_555
C6 C1 1_555 1_555
H9 C6 1_555 1_555
C7 O2 1_555 1_555
C8 C3 1_555 1_555
C9 C10 1_555 1_555
C10 H10 1_555 1_555
C11 C10 1_555 1_555
C12 C11 1_555 1_555
H11 C12 1_555 1_555
C13 N1 1_555 1_555
C14 C11 1_555 1_555
C15 C14 1_555 1_555
H12 C15 1_555 1_555
C16 C15 1_555 1_555
H13 C16 1_555 1_555
C17 O5 1_555 1_555
C18 C17 1_555 1_555
H14 C18 1_555 1_555
C19 C14 1_555 1_555
H15 C19 1_555 1_555
C20 C9 1_555 1_555
C21 C20 1_555 1_555
H16 C21 1_555 1_555
C22 C21 1_555 1_555
H17 C22 1_555 1_555
C23 N2 1_555 1_555
H18 C23 1_555 1_555
C24 C20 1_555 1_555
H19 C24 1_555 1_555
C25 C13 1_555 1_555
C26 C25 1_555 1_555
H20 C26 1_555 1_555
C27 C26 1_555 1_555
H21 C27 1_555 1_555
C28 N3 1_555 1_555
H22 C28 1_555 1_555
C29 C25 1_555 1_555
H23 C29 1_555 1_555
C30 C31 1_555 1_555
C31 H24 1_555 1_555
C32 C31 1_555 1_555
C33 C32 1_555 1_555
H25 C33 1_555 1_555
C34 C33 1_555 1_555
C35 C30 1_555 1_555
H26 C35 1_555 1_555
C36 O6 1_555 1_555
C37 C32 1_555 1_555
C38 C39 1_555 1_555
C39 H27 1_555 1_555
C40 C39 1_555 1_555
C41 C40 1_555 1_555
H28 C41 1_555 1_555
C42 N4 1_555 1_555
C43 C40 1_555 1_555
C44 C43 1_555 1_555
H29 C44 1_555 1_555
C45 C44 1_555 1_555
H30 C45 1_555 1_555
C46 O13 1_555 1_555
C47 C46 1_555 1_555
H31 C47 1_555 1_555
C48 C43 1_555 1_555
H32 C48 1_555 1_555
C49 C38 1_555 1_555
C50 C49 1_555 1_555
H33 C50 1_555 1_555
C51 C50 1_555 1_555
H34 C51 1_555 1_555
C52 N5 1_555 1_555
H35 C52 1_555 1_555
C53 C49 1_555 1_555
H36 C53 1_555 1_555
C54 C42 1_555 1_555
C55 C54 1_555 1_555
H37 C55 1_555 1_555
C56 C55 1_555 1_555
H38 C56 1_555 1_555
C57 N6 1_555 1_555
H39 C57 1_555 1_555
C58 C54 1_555 1_555
H40 C58 1_555 1_555
O14 H41 1_555 1_555
H42 O14 1_555 1_555
O15 H43 1_555 1_555
H44 O15 1_555 1_555
O16 H45 1_555 1_555
H46 O16 1_555 1_555
O17 H47 1_555 1_555
H48 O17 1_555 1_555
O18 H49 1_555 1_555
H50 O18 1_555 1_555
O19 H51 1_555 1_555
H52 O19 1_555 1_555
Ba1A N5 1_555 1_555
Ba1A_2 O9 1_555 1_555
Ba1A_3 O4 1_555 1_555
Ba2_2 O3 1_555 1_555
Ba2A O8 1_555 1_555
Ba2A_2 O1 1_555 1_555
N5A Ba1 1_555 1_555
O1A Ba2 1_555 1_555
O3_2 Ba2 1_555 1_555
O4_2 Ba2 1_555 1_555
O4A Ba1 1_555 1_555
O8A Ba2 1_555 1_555
O9A Ba1 1_555 1_555
O11A Ba2 1_555 1_555
Ba2 O10 1_555 1_555
Ba2 O9A 1_555 1_555
O4 Ba2_2 1_555 1_555
O7 C36 1_555 1_555
O9 Ba2A 1_555 1_555
O11 Ba2A_2 1_555 1_555
C1 C7 1_555 1_555
C5 C6 1_555 1_555
C12 C13 1_555 1_555
C16 C17 1_555 1_555
C18 C19 1_555 1_555
C23 C24 1_555 1_555
C28 C29 1_555 1_555
C30 C36 1_555 1_555
C34 C35 1_555 1_555
C41 C42 1_555 1_555
C45 C46 1_555 1_555
C47 C48 1_555 1_555
C52 C53 1_555 1_555
C57 C58 1_555 1_555
Ba1A_2 O1A 1_555 1_555
Ba1A_2 O4_2 1_555 1_555
Ba1A_2 O11A 1_555 1_555
Ba2A_2 O4A 1_555 1_555

#END
