
#######################################################################
#
#                 Cambridge Crystallographic Data Centre
#                                CCDC 
#
#######################################################################
#
# If this CIF has been generated from an entry in the Cambridge 
# Structural Database, then it will include bibliographic, chemical, 
# crystal, experimental, refinement or atomic coordinate data resulting 
# from the CCDC's data processing and validation procedures.
#
#######################################################################

data_XUFYIH
_symmetry_cell_setting           monoclinic
_symmetry_space_group_name_H-M   'P 21/c'
_symmetry_Int_Tables_number      14
_space_group_name_Hall           '-P 2ybc'
loop_
_symmetry_equiv_pos_site_id
_symmetry_equiv_pos_as_xyz
1 x,y,z
2 -x,1/2+y,1/2-z
3 -x,-y,-z
4 x,1/2-y,1/2+z
_cell_length_a                   6.9114(3)
_cell_length_b                   27.6244(13)
_cell_length_c                   14.1378(7)
_cell_angle_alpha                90
_cell_angle_beta                 93.4095(8)
_cell_angle_gamma                90
_cell_volume                     2694.46
loop_
_atom_site_label
_atom_site_type_symbol
_atom_site_fract_x
_atom_site_fract_y
_atom_site_fract_z
Sn1 Sn 0.25860(2) 0.20518 0.26981(1)
Sn2 Sn 0.13106(2) 0.13153 0.58768(1)
O1 O 0.1734(2) 0.12844(5) 0.42539(10)
O2 O 0.3139(2) 0.12660(5) 0.28876(10)
O3 O 1.0066(2) 0.00767(6) 0.18393(12)
O4 O 0.2121(2) 0.28781(5) 0.24020(10)
O5 O 0.0855(2) 0.36155(5) 0.24128(10)
O6 O -0.6088(2) 0.41027(6) 0.49100(11)
C1 C 0.2740(3) 0.10722(7) 0.36693(14)
C2 C 0.3473(4) 0.05606(8) 0.38676(16)
C3 C 0.5208(3) 0.04143(8) 0.33294(15)
C4 C 0.6834(3) 0.07147(8) 0.33229(16)
C5 C 0.8407(3) 0.05915(8) 0.28145(16)
C6 C 0.8412(3) 0.01613(8) 0.23051(15)
C7 C 0.6826(3) -0.01461(8) 0.23043(16)
C8 C 0.5230(3) -0.00118(8) 0.28146(16)
C9 C 1.0136(4) -0.03584(9) 0.1290(2)
C10 C 0.1258(3) 0.32132(7) 0.28142(14)
C11 C 0.0732(3) 0.31500(9) 0.38378(15)
C12 C -0.1035(3) 0.34229(8) 0.41229(14)
C13 C -0.2722(3) 0.34393(8) 0.35322(15)
C14 C -0.4362(3) 0.36751(8) 0.38083(16)
C15 C -0.4363(3) 0.38955(8) 0.46969(15)
C16 C -0.2698(3) 0.38895(8) 0.52904(15)
C17 C -0.1043(3) 0.36537(8) 0.49969(15)
C18 C -0.6107(4) 0.43630(10) 0.57851(17)
C19 C 0.4012(4) 0.20399(9) 0.14068(18)
C20 C -0.0479(4) 0.19841(10) 0.25967(19)
C21 C 0.4340(4) 0.22313(9) 0.39314(16)
C22 C -0.0436(4) 0.19276(9) 0.55055(17)
C23 C -0.0154(4) 0.06380(9) 0.58241(18)
C24 C 0.4382(4) 0.13419(10) 0.60936(18)
H1 H 0.381(3) 0.0513(8) 0.4522(16)
H2 H 0.243(4) 0.0353(10) 0.3725(19)
H3 H 0.690(4) 0.1024(9) 0.3655(17)
H4 H 0.951(4) 0.0795(9) 0.2790(18)
H5 H 0.677(4) -0.0437(10) 0.1966(19)
H6 H 0.412(4) -0.0197(9) 0.2786(18)
H7 H 0.995(4) -0.0656(11) 0.170(2)
H8 H 1.140(4) -0.0365(10) 0.1023(19)
H9 H 0.920(4) -0.0351(10) 0.078(2)
H10 H 0.046(4) 0.2865(9) 0.4000(17)
H11 H 0.181(4) 0.3238(9) 0.4208(18)
H12 H -0.272(4) 0.3272(9) 0.2916(19)
H13 H -0.552(5) 0.3696(11) 0.340(2)
H14 H -0.267(4) 0.4032(9) 0.5929(19)
H15 H 0.013(4) 0.3636(9) 0.5436(19)
H16 H -0.577(4) 0.4127(11) 0.631(2)
H17 H -0.751(4) 0.4467(10) 0.584(2)
H18 H -0.523(4) 0.4640(9) 0.5793(17)
H19 H 0.418(6) 0.2344(16) 0.118(3)
H20 H 0.340(6) 0.1852(15) 0.096(3)
H21 H 0.519(7) 0.1915(16) 0.153(3)
H22 H -0.113(6) 0.2004(15) 0.318(3)
H23 H -0.082(7) 0.170(2) 0.239(4)
H24 H -0.097(6) 0.2178(15) 0.224(3)
H25 H 0.532(4) 0.1978(10) 0.403(2)
H26 H 0.375(3) 0.2229(8) 0.4477(16)
H27 H 0.498(4) 0.2539(10) 0.384(2)
H28 H -0.110(4) 0.1866(11) 0.494(2)
H29 H 0.040(4) 0.2201(11) 0.541(2)
H30 H -0.125(4) 0.1993(10) 0.600(2)
H31 H -0.091(5) 0.0600(11) 0.633(2)
H32 H 0.072(5) 0.0362(11) 0.587(2)
H33 H -0.082(5) 0.0627(12) 0.527(3)
H34 H 0.481(6) 0.1162(14) 0.657(3)
H35 H 0.465(7) 0.1655(18) 0.627(3)
H36 H 0.497(6) 0.1284(13) 0.562(3)
Sn2C Sn 0.13106(2) 0.36847 0.08768(1)
O5C O 0.0855(2) 0.13845(5) 0.74128(10)
loop_
_geom_bond_atom_site_label_1
_geom_bond_atom_site_label_2
_geom_bond_site_symmetry_1
_geom_bond_site_symmetry_2
Sn1 O2 1_555 1_555
Sn2 O1 1_555 1_555
O1 C1 1_555 1_555
O2 C1 1_555 1_555
O3 C6 1_555 1_555
O4 Sn1 1_555 1_555
O5 C10 1_555 1_555
O6 C15 1_555 1_555
C1 C2 1_555 1_555
C2 C3 1_555 1_555
C3 C4 1_555 1_555
C4 C5 1_555 1_555
C5 C6 1_555 1_555
C6 C7 1_555 1_555
C7 C8 1_555 1_555
C8 C3 1_555 1_555
C9 O3 1_555 1_555
C10 O4 1_555 1_555
C11 C10 1_555 1_555
C12 C11 1_555 1_555
C13 C12 1_555 1_555
C14 C13 1_555 1_555
C15 C14 1_555 1_555
C16 C15 1_555 1_555
C17 C12 1_555 1_555
C18 O6 1_555 1_555
C19 Sn1 1_555 1_555
C20 Sn1 1_555 1_555
C21 Sn1 1_555 1_555
C22 Sn2 1_555 1_555
C23 Sn2 1_555 1_555
C24 Sn2 1_555 1_555
H1 C2 1_555 1_555
H2 C2 1_555 1_555
H3 C4 1_555 1_555
H4 C5 1_555 1_555
H5 C7 1_555 1_555
H6 C8 1_555 1_555
H7 C9 1_555 1_555
H8 C9 1_555 1_555
H9 C9 1_555 1_555
H10 C11 1_555 1_555
H11 C11 1_555 1_555
H12 C13 1_555 1_555
H13 C14 1_555 1_555
H14 C16 1_555 1_555
H15 C17 1_555 1_555
H16 C18 1_555 1_555
H17 C18 1_555 1_555
H18 C18 1_555 1_555
H19 C19 1_555 1_555
H20 C19 1_555 1_555
H21 C19 1_555 1_555
H22 C20 1_555 1_555
H23 C20 1_555 1_555
H24 C20 1_555 1_555
H25 C21 1_555 1_555
H26 C21 1_555 1_555
H27 C21 1_555 1_555
H28 C22 1_555 1_555
H29 C22 1_555 1_555
H30 C22 1_555 1_555
H31 C23 1_555 1_555
H32 C23 1_555 1_555
H33 C23 1_555 1_555
H34 C24 1_555 1_555
H35 C24 1_555 1_555
H36 C24 1_555 1_555
Sn2C O5 1_555 1_555
O5C Sn2 1_555 1_555
C16 C17 1_555 1_555

#END
