
#######################################################################
#
#                 Cambridge Crystallographic Data Centre
#                                CCDC 
#
#######################################################################
#
# If this CIF has been generated from an entry in the Cambridge 
# Structural Database, then it will include bibliographic, chemical, 
# crystal, experimental, refinement or atomic coordinate data resulting 
# from the CCDC's data processing and validation procedures.
#
#######################################################################

data_XUFYOO
_symmetry_cell_setting           monoclinic
_symmetry_space_group_name_H-M   'P 2/c'
_symmetry_Int_Tables_number      13
_space_group_name_Hall           '-P 2yc'
loop_
_symmetry_equiv_pos_site_id
_symmetry_equiv_pos_as_xyz
1 x,y,z
2 -x,y,1/2-z
3 -x,-y,-z
4 x,-y,1/2+z
_cell_length_a                   13.284(2)
_cell_length_b                   9.3951(9)
_cell_length_c                   17.834(2)
_cell_angle_alpha                90
_cell_angle_beta                 125.634(9)
_cell_angle_gamma                90
_cell_volume                     1809
loop_
_atom_site_label
_atom_site_type_symbol
_atom_site_fract_x
_atom_site_fract_y
_atom_site_fract_z
Cd1 Cd 0.0000 0.41428(4) -0.2500
Cd2 Cd 0.5000 1.09884(4) 0.2500
C1 C 0.0583(3) 0.6869(4) -0.0415(3)
C2 C 0.1647(3) 0.7696(4) 0.0102(3)
H1 H 0.2266 0.7617 0.0011
C3 C 0.1784(3) 0.8635(4) 0.0751(3)
C4 C 0.0878(4) 0.8744(5) 0.0907(3)
H2 H 0.0964 0.9393 0.1334
C5 C -0.0157(4) 0.7872(4) 0.0416(3)
C6 C -0.0314(4) 0.6949(5) -0.0248(3)
H3 H -0.1019 0.6383 -0.0582
C7 C -0.1031(4) 0.8851(4) 0.1153(3)
H4 H -0.1203 0.9790 0.0877
H5 H -0.0212 0.8864 0.1732
C8 C -0.1979(3) 0.8467(4) 0.1318(3)
C9 C -0.3069(4) 0.9234(5) 0.0919(3)
H6 H -0.3234 0.9995 0.0529
C10 C -0.3904(4) 0.8858(5) 0.1105(3)
H7 H -0.4637 0.9365 0.0846
C11 C -0.3638(4) 0.7723(5) 0.1678(3)
H8 H -0.4191 0.7446 0.1810
C12 C -0.2550(3) 0.7007(4) 0.2050(3)
H9 H -0.2374 0.6242 0.2440
C13 C 0.0401(4) 0.5885(4) -0.1145(3)
C14 C 0.2931(3) 0.9533(4) 0.1320(3)
C15 C 0.3957(4) 1.2821(5) 0.3434(3)
H10 H 0.3237 1.2323 0.3007
C16 C 0.3942(4) 1.3729(5) 0.4027(4)
H11 H 0.3223 1.3824 0.3998
C17 C 0.4988(3) 1.4512(4) 0.4672(3)
C18 C 0.6032(4) 1.4293(5) 0.4678(3)
H12 H 0.6758 1.4791 0.5091
C19 C 0.5986(4) 1.3336(5) 0.4072(3)
H13 H 0.6701 1.3183 0.4103
O1 O -0.0580(3) 0.5184(4) -0.1619(2)
O2 O 0.1219(3) 0.5826(3) -0.1289(2)
O3 O 0.3820(3) 0.9304(3) 0.1276(3)
O4 O 0.2965(2) 1.0473(3) 0.1837(2)
O5 O -0.1077(3) 0.7833(4) 0.0557(3)
N1 N -0.1718(3) 0.7361(3) 0.1877(2)
N2 N 0.4958(3) 1.2618(4) 0.3440(2)
C15B C 0.6043(4) 1.7179(5) 0.6566(3)
H10B H 0.6763 1.7677 0.6993
C16B C 0.6058(4) 1.6271(5) 0.5973(4)
H11B H 0.6777 1.6176 0.6002
C17B C 0.5012(3) 1.5488(4) 0.5328(3)
C18B C 0.3968(4) 1.5707(5) 0.5322(3)
H12B H 0.3242 1.5209 0.4909
C19B C 0.4014(4) 1.6664(5) 0.5928(3)
H13B H 0.3299 1.6817 0.5897
N2B N 0.5042(3) 1.7382(4) 0.6560(2)
C1A C -0.0583(3) 0.6869(4) -0.4585(3)
C2A C -0.1647(3) 0.7696(4) -0.5102(3)
H1A H -0.2266 0.7617 -0.5011
C3A C -0.1784(3) 0.8635(4) -0.5751(3)
C4A C -0.0878(4) 0.8744(5) -0.5907(3)
H2A H -0.0964 0.9393 -0.6334
C5A C 0.0157(4) 0.7872(4) -0.5416(3)
C6A C 0.0314(4) 0.6949(5) -0.4752(3)
H3A H 0.1019 0.6383 -0.4418
C7A C 0.1031(4) 0.8851(4) -0.6153(3)
H4A H 0.1203 0.9790 -0.5877
H5A H 0.0212 0.8864 -0.6732
C8A C 0.1979(3) 0.8467(4) -0.6318(3)
C9A C 0.3069(4) 0.9234(5) -0.5919(3)
H6A H 0.3234 0.9995 -0.5529
C10A C 0.3904(4) 0.8858(5) -0.6105(3)
H7A H 0.4637 0.9365 -0.5846
C11A C 0.3638(4) 0.7723(5) -0.6678(3)
H8A H 0.4191 0.7446 -0.6810
C12A C 0.2550(3) 0.7007(4) -0.7050(3)
H9A H 0.2374 0.6242 -0.7440
C13A C -0.0401(4) 0.5885(4) -0.3855(3)
C14A C -0.2931(3) 0.9533(4) -0.6320(3)
O1A O 0.0580(3) 0.5184(4) -0.3381(2)
O2A O -0.1219(3) 0.5826(3) -0.3711(2)
O3A O -0.3820(3) 0.9304(3) -0.6276(3)
O4A O -0.2965(2) 1.0473(3) -0.6837(2)
O5A O 0.1077(3) 0.7833(4) -0.5557(3)
N1A N 0.1718(3) 0.7361(3) -0.6877(2)
Cd1B Cd 0.0000 0.58572(4) -0.7500
Cd1B_2 Cd 0.0000 0.58572(4) 0.2500
Cd2_2 Cd -0.5000 1.09884(4) -0.7500
Cd2B Cd 0.5000 1.90116(4) 0.7500
O3A_2 O 0.6180(3) 0.9304(3) 0.3724(3)
O4A_2 O 0.7035(2) 1.0473(3) 0.3163(2)
N1B N 0.1718(3) 0.2639(3) -0.1877(2)
N1C N -0.1718(3) 0.2639(3) -0.3123(2)
N2A N 0.5042(3) 1.2618(4) 0.1560(2)
loop_
_geom_bond_atom_site_label_1
_geom_bond_atom_site_label_2
_geom_bond_site_symmetry_1
_geom_bond_site_symmetry_2
Cd1 O1 1_555 1_555
Cd2 O3 1_555 1_555
C1 C2 1_555 1_555
C2 H1 1_555 1_555
C3 C2 1_555 1_555
C4 C3 1_555 1_555
H2 C4 1_555 1_555
C5 C4 1_555 1_555
C6 C1 1_555 1_555
H3 C6 1_555 1_555
C7 H4 1_555 1_555
H5 C7 1_555 1_555
C8 C7 1_555 1_555
C9 C8 1_555 1_555
H6 C9 1_555 1_555
C10 C9 1_555 1_555
H7 C10 1_555 1_555
C11 C10 1_555 1_555
H8 C11 1_555 1_555
C12 C11 1_555 1_555
H9 C12 1_555 1_555
C13 C1 1_555 1_555
C14 C3 1_555 1_555
C15 H10 1_555 1_555
C16 C15 1_555 1_555
H11 C16 1_555 1_555
C17 C16 1_555 1_555
C18 C17 1_555 1_555
H12 C18 1_555 1_555
C19 C18 1_555 1_555
H13 C19 1_555 1_555
O1 C13 1_555 1_555
O2 Cd1 1_555 1_555
O3 C14 1_555 1_555
O4 Cd2 1_555 1_555
O5 C5 1_555 1_555
N1 C8 1_555 1_555
N2 Cd2 1_555 1_555
C15B H10B 1_555 1_555
C16B C15B 1_555 1_555
H11B C16B 1_555 1_555
C17B C17 1_555 1_555
C18B C17B 1_555 1_555
H12B C18B 1_555 1_555
C19B C18B 1_555 1_555
H13B C19B 1_555 1_555
N2B C15B 1_555 1_555
C1A C2A 1_555 1_555
C2A H1A 1_555 1_555
C3A C2A 1_555 1_555
C4A C3A 1_555 1_555
H2A C4A 1_555 1_555
C5A C4A 1_555 1_555
C6A C1A 1_555 1_555
H3A C6A 1_555 1_555
C7A H4A 1_555 1_555
H5A C7A 1_555 1_555
C8A C7A 1_555 1_555
C9A C8A 1_555 1_555
H6A C9A 1_555 1_555
C10A C9A 1_555 1_555
H7A C10A 1_555 1_555
C11A C10A 1_555 1_555
H8A C11A 1_555 1_555
C12A C11A 1_555 1_555
H9A C12A 1_555 1_555
C13A C1A 1_555 1_555
C14A C3A 1_555 1_555
O1A Cd1 1_555 1_555
O2A Cd1 1_555 1_555
O3A C14A 1_555 1_555
O4A C14A 1_555 1_555
O5A C5A 1_555 1_555
N1A C8A 1_555 1_555
Cd1B N1A 1_555 1_555
Cd1B_2 N1 1_555 1_555
Cd2_2 O3A 1_555 1_555
Cd2B N2B 1_555 1_555
O3A_2 Cd2 1_555 1_555
O4A_2 Cd2 1_555 1_555
N1B Cd1 1_555 1_555
N1C Cd1 1_555 1_555
N2A Cd2 1_555 1_555
C5 C6 1_555 1_555
C7 O5 1_555 1_555
C12 N1 1_555 1_555
C13 O2 1_555 1_555
C14 O4 1_555 1_555
C15 N2 1_555 1_555
C19 N2 1_555 1_555
C16B C17B 1_555 1_555
C19B N2B 1_555 1_555
C5A C6A 1_555 1_555
C7A O5A 1_555 1_555
C12A N1A 1_555 1_555
C13A O1A 1_555 1_555
C13A O2A 1_555 1_555
O4A Cd2_2 1_555 1_555

#END
