
#######################################################################
#
#                 Cambridge Crystallographic Data Centre
#                                CCDC 
#
#######################################################################
#
# If this CIF has been generated from an entry in the Cambridge 
# Structural Database, then it will include bibliographic, chemical, 
# crystal, experimental, refinement or atomic coordinate data resulting 
# from the CCDC's data processing and validation procedures.
#
#######################################################################

data_XUFYON
_symmetry_cell_setting           monoclinic
_symmetry_space_group_name_H-M   'P 21/c'
_symmetry_Int_Tables_number      14
_space_group_name_Hall           '-P 2ybc'
loop_
_symmetry_equiv_pos_site_id
_symmetry_equiv_pos_as_xyz
1 x,y,z
2 -x,1/2+y,1/2-z
3 -x,-y,-z
4 x,1/2-y,1/2+z
_cell_length_a                   13.016(2)
_cell_length_b                   16.865(3)
_cell_length_c                   10.3679(16)
_cell_angle_alpha                90
_cell_angle_beta                 106.213(2)
_cell_angle_gamma                90
_cell_volume                     2185.4
loop_
_atom_site_label
_atom_site_type_symbol
_atom_site_fract_x
_atom_site_fract_y
_atom_site_fract_z
Sn1 Sn 0.52973(2) 0.21423(1) 0.32601(2)
O1 O 0.5445(2) 0.11853(13) 0.4713(2)
O2 O 0.5255(2) 0.19474(13) 0.6379(3)
O3 O 0.9983(2) -0.05262(17) 0.6947(3)
C1 C 0.5490(3) 0.12976(19) 0.5951(4)
C2 C 0.5830(3) 0.0581(2) 0.6869(4)
C3 C 0.6914(3) 0.02591(19) 0.6876(4)
C4 C 0.7069(3) -0.0182(2) 0.5803(4)
C5 C 0.8069(3) -0.0460(2) 0.5788(4)
C6 C 0.8955(3) -0.0296(2) 0.6865(4)
C7 C 0.8817(4) 0.0135(2) 0.7954(4)
C8 C 0.7814(3) 0.0407(2) 0.7948(4)
C9 C 1.0153(4) -0.0983(3) 0.5873(6)
C10 C 0.6802(3) 0.2694(2) 0.4229(4)
C11 C 0.7588(3) 0.2242(2) 0.5373(4)
C12 C 0.8664(3) 0.2654(2) 0.5868(4)
C13 C 0.9446(4) 0.2214(3) 0.7005(5)
C14 C 0.5349(3) 0.1246(2) 0.1815(4)
C15 C 0.6440(3) 0.0839(2) 0.2118(4)
C16 C 0.6473(3) 0.0147(2) 0.1178(4)
C17 C 0.7559(4) -0.0240(3) 0.1451(5)
C18 C 0.3823(3) 0.2675(2) 0.3355(4)
C19 C 0.2923(3) 0.2718(2) 0.2047(4)
C20 C 0.2487(4) 0.1916(2) 0.1490(5)
C21 C 0.1539(4) 0.1979(3) 0.0253(5)
H1 H 0.579(3) 0.072(2) 0.777(4)
H2 H 0.526(4) 0.023(2) 0.659(4)
H3 H 0.646(3) -0.029(2) 0.507(4)
H4 H 0.814(3) -0.075(2) 0.499(4)
H5 H 0.942(3) 0.021(2) 0.869(4)
H6 H 0.776(3) 0.071(2) 0.867(4)
H7 H 0.978(3) -0.143(3) 0.581(4)
H8 H 1.095(4) -0.109(3) 0.605(5)
H9 H 0.993(4) -0.073(3) 0.501(5)
H10 H 0.708(3) 0.2795(19) 0.352(4)
H11 H 0.669(3) 0.315(3) 0.456(4)
H12 H 0.729(3) 0.2203(19) 0.607(4)
H13 H 0.775(3) 0.179(2) 0.509(4)
H14 H 0.898(3) 0.2731(19) 0.512(4)
H15 H 0.855(3) 0.316(2) 0.618(4)
H16 H 0.914(3) 0.215(2) 0.773(4)
H17 H 1.012(4) 0.248(3) 0.739(5)
H18 H 0.960(4) 0.175(3) 0.674(4)
H19 H 0.488(3) 0.087(2) 0.188(3)
H20 H 0.517(3) 0.147(2) 0.091(4)
H21 H 0.703(3) 0.121(2) 0.213(4)
H22 H 0.661(3) 0.064(2) 0.303(4)
H23 H 0.589(3) -0.021(2) 0.121(4)
H24 H 0.624(3) 0.035(2) 0.030(4)
H25 H 0.810(4) 0.012(3) 0.134(4)
H26 H 0.754(3) -0.066(2) 0.083(4)
H27 H 0.781(4) -0.043(3) 0.235(5)
H28 H 0.363(3) 0.238(2) 0.400(4)
H29 H 0.399(3) 0.319(2) 0.366(4)
H30 H 0.230(4) 0.310(3) 0.220(4)
H31 H 0.314(3) 0.297(2) 0.137(4)
H32 H 0.231(4) 0.163(3) 0.216(5)
H33 H 0.303(3) 0.165(2) 0.127(4)
H34 H 0.100(3) 0.225(2) 0.041(4)
H35 H 0.125(4) 0.146(3) -0.008(5)
H36 H 0.171(4) 0.225(3) -0.046(5)
Sn1C Sn 0.52973(2) 0.28577(1) 0.82601(2)
O2C O 0.5255(2) 0.30526(13) 0.1379(3)
loop_
_geom_bond_atom_site_label_1
_geom_bond_atom_site_label_2
_geom_bond_site_symmetry_1
_geom_bond_site_symmetry_2
Sn1 O1 1_555 1_555
O1 C1 1_555 1_555
O2 C1 1_555 1_555
O3 C6 1_555 1_555
C1 C2 1_555 1_555
C2 C3 1_555 1_555
C3 C4 1_555 1_555
C4 C5 1_555 1_555
C5 C6 1_555 1_555
C6 C7 1_555 1_555
C7 C8 1_555 1_555
C8 C3 1_555 1_555
C9 O3 1_555 1_555
C10 Sn1 1_555 1_555
C11 C10 1_555 1_555
C12 C11 1_555 1_555
C13 C12 1_555 1_555
C14 Sn1 1_555 1_555
C15 C14 1_555 1_555
C16 C15 1_555 1_555
C17 C16 1_555 1_555
C18 Sn1 1_555 1_555
C19 C18 1_555 1_555
C20 C19 1_555 1_555
C21 C20 1_555 1_555
H1 C2 1_555 1_555
H2 C2 1_555 1_555
H3 C4 1_555 1_555
H4 C5 1_555 1_555
H5 C7 1_555 1_555
H6 C8 1_555 1_555
H7 C9 1_555 1_555
H8 C9 1_555 1_555
H9 C9 1_555 1_555
H10 C10 1_555 1_555
H11 C10 1_555 1_555
H12 C11 1_555 1_555
H13 C11 1_555 1_555
H14 C12 1_555 1_555
H15 C12 1_555 1_555
H16 C13 1_555 1_555
H17 C13 1_555 1_555
H18 C13 1_555 1_555
H19 C14 1_555 1_555
H20 C14 1_555 1_555
H21 C15 1_555 1_555
H22 C15 1_555 1_555
H23 C16 1_555 1_555
H24 C16 1_555 1_555
H25 C17 1_555 1_555
H26 C17 1_555 1_555
H27 C17 1_555 1_555
H28 C18 1_555 1_555
H29 C18 1_555 1_555
H30 C19 1_555 1_555
H31 C19 1_555 1_555
H32 C20 1_555 1_555
H33 C20 1_555 1_555
H34 C21 1_555 1_555
H35 C21 1_555 1_555
H36 C21 1_555 1_555
Sn1C O2 1_555 1_555
O2C Sn1 1_555 1_555

#END
