
#######################################################################
#
#                 Cambridge Crystallographic Data Centre
#                                CCDC 
#
#######################################################################
#
# If this CIF has been generated from an entry in the Cambridge 
# Structural Database, then it will include bibliographic, chemical, 
# crystal, experimental, refinement or atomic coordinate data resulting 
# from the CCDC's data processing and validation procedures.
#
#######################################################################

data_XUFZOO
_symmetry_cell_setting           orthorhombic
_symmetry_space_group_name_H-M   'P 21 21 21'
_symmetry_Int_Tables_number      19
_space_group_name_Hall           'P 2ac 2ab'
loop_
_symmetry_equiv_pos_site_id
_symmetry_equiv_pos_as_xyz
1 x,y,z
2 1/2-x,-y,1/2+z
3 -x,1/2+y,1/2-z
4 1/2+x,1/2-y,-z
_cell_length_a                   9.6636(19)
_cell_length_b                   11.316(2)
_cell_length_c                   15.812(3)
_cell_angle_alpha                90
_cell_angle_beta                 90
_cell_angle_gamma                90
_cell_volume                     1729.09
loop_
_atom_site_label
_atom_site_type_symbol
_atom_site_fract_x
_atom_site_fract_y
_atom_site_fract_z
Zn1 Zn 0.75097(5) 0.59207(3) 0.52279(2)
C1 C 0.3336(6) 0.6518(5) 0.2928(4)
H1 H 0.3450 0.7339 0.3065
H2 H 0.2410 0.6275 0.3065
H3 H 0.3497 0.6402 0.2334
C2 C 0.4338(5) 0.5803(4) 0.3420(3)
H4 H 0.543(6) 0.699(5) 0.406(4)
C3 C 0.4579(5) 0.4606(5) 0.3447(4)
H5 H 0.416(6) 0.397(5) 0.296(4)
C4 C 0.5633(5) 0.4439(4) 0.4037(3)
H6 H 0.518(5) 0.669(4) 0.639(3)
C5 C 0.6310(7) 0.3315(5) 0.4323(5)
H7 H 0.7003 0.3493 0.4739
H8 H 0.6734 0.2932 0.3848
H9 H 0.5626 0.2802 0.4566
C6 C 0.4510(7) 0.6545(7) 0.8080(4)
H10 H 0.4090 0.7167 0.7756
H11 H 0.4976 0.6878 0.8560
H12 H 0.3808 0.6006 0.8269
C7 C 0.5529(5) 0.5900(5) 0.7542(3)
C8 C 0.6374(6) 0.4961(5) 0.7715(3)
H13 H 0.632(6) 0.448(6) 0.826(4)
C9 C 0.7105(4) 0.4736(4) 0.6975(3)
C10 C 0.8183(6) 0.3831(5) 0.6811(5)
H14 H 0.907(7) 0.413(5) 0.677(4)
H15 H 0.815(7) 0.317(7) 0.727(5)
H16 H 0.820(6) 0.360(6) 0.625(4)
C11 C 0.7946(4) 0.8088(4) 0.4548(3)
C12 C 0.7778(4) 0.9398(4) 0.4382(3)
H17 H 0.768(5) 0.942(4) 0.372(3)
H18 H 0.868(5) 0.981(5) 0.457(3)
C13 C 0.6600(5) 0.9969(4) 0.4874(4)
H19 H 0.659(5) 1.074(5) 0.486(4)
H20 H 0.672(5) 0.983(5) 0.547(3)
C14 C 0.5164(4) 0.9537(3) 0.4635(3)
O1 O 0.7271(3) 0.7639(2) 0.51564(17)
O2 O 0.8746(3) 0.7502(3) 0.4094(2)
O3 O 0.4170(3) 1.0003(3) 0.5040(2)
O4 O 0.5005(3) 0.8766(3) 0.4082(2)
N1 N 0.6016(3) 0.5471(3) 0.4360(2)
N2 N 0.5218(4) 0.6289(3) 0.3981(2)
N3 N 0.6705(3) 0.5499(3) 0.6367(2)
N4 N 0.5750(4) 0.6205(3) 0.6736(2)
Zn1C Zn 0.25097(5) 0.90793(3) 0.47721(2)
O3C O 0.9170(3) 0.4997(3) 0.4960(2)
loop_
_geom_bond_atom_site_label_1
_geom_bond_atom_site_label_2
_geom_bond_site_symmetry_1
_geom_bond_site_symmetry_2
Zn1 O1 1_555 1_555
C1 H1 1_555 1_555
H2 C1 1_555 1_555
H3 C1 1_555 1_555
C2 C1 1_555 1_555
H4 N2 1_555 1_555
C3 C2 1_555 1_555
H5 C3 1_555 1_555
C4 C3 1_555 1_555
H6 N4 1_555 1_555
C5 C4 1_555 1_555
H7 C5 1_555 1_555
H8 C5 1_555 1_555
H9 C5 1_555 1_555
C6 H10 1_555 1_555
H11 C6 1_555 1_555
H12 C6 1_555 1_555
C7 C6 1_555 1_555
C8 C7 1_555 1_555
H13 C8 1_555 1_555
C9 C8 1_555 1_555
C10 C9 1_555 1_555
H14 C10 1_555 1_555
H15 C10 1_555 1_555
H16 C10 1_555 1_555
C11 C12 1_555 1_555
C12 H17 1_555 1_555
H18 C12 1_555 1_555
C13 C12 1_555 1_555
H19 C13 1_555 1_555
H20 C13 1_555 1_555
C14 C13 1_555 1_555
O1 C11 1_555 1_555
O2 C11 1_555 1_555
O3 C14 1_555 1_555
O4 C14 1_555 1_555
N1 Zn1 1_555 1_555
N2 C2 1_555 1_555
N3 Zn1 1_555 1_555
N4 C7 1_555 1_555
Zn1C O3 1_555 1_555
O3C Zn1 1_555 1_555
C4 N1 1_555 1_555
C9 N3 1_555 1_555
N1 N2 1_555 1_555
N3 N4 1_555 1_555

#END
