
#######################################################################
#
#                 Cambridge Crystallographic Data Centre
#                                CCDC 
#
#######################################################################
#
# If this CIF has been generated from an entry in the Cambridge 
# Structural Database, then it will include bibliographic, chemical, 
# crystal, experimental, refinement or atomic coordinate data resulting 
# from the CCDC's data processing and validation procedures.
#
#######################################################################

data_XUFZIJ
_symmetry_cell_setting           monoclinic
_symmetry_space_group_name_H-M   'C 2/c'
_symmetry_Int_Tables_number      15
_space_group_name_Hall           '-C 2yn'
loop_
_symmetry_equiv_pos_site_id
_symmetry_equiv_pos_as_xyz
1 x,y,z
2 -x,y,1/2-z
3 1/2+x,1/2+y,z
4 1/2-x,1/2+y,1/2-z
5 -x,-y,-z
6 x,-y,1/2+z
7 1/2-x,1/2-y,-z
8 1/2+x,1/2-y,1/2+z
_cell_length_a                   22.784(12)
_cell_length_b                   18.282(11)
_cell_length_c                   13.071(8)
_cell_angle_alpha                90
_cell_angle_beta                 94.292(7)
_cell_angle_gamma                90
_cell_volume                     5429.29
loop_
_atom_site_label
_atom_site_type_symbol
_atom_site_fract_x
_atom_site_fract_y
_atom_site_fract_z
Zn1 Zn 0.257683(14) 0.198699(18) 0.83384(3)
O1 O 0.28108(11) 0.30538(12) 0.85973(19)
C1 C 0.47978(10) 0.55911(14) 0.87472(17)
O2 O 0.29197(10) 0.16027(12) 0.98043(18)
O3 O 0.56708(10) 0.39982(13) 0.88485(18)
C2 C 0.52854(11) 0.44556(15) 0.87888(17)
C3 C 0.43469(10) 0.50032(14) 0.86632(17)
C4 C 0.53528(11) 0.52657(15) 0.87992(17)
C5 C 0.46299(11) 0.43281(14) 0.86833(17)
O4 O 0.68224(10) 0.65813(15) 0.8774(2)
C6 C 0.58069(12) 0.64399(17) 0.88519(19)
C7 C 0.33486(16) 0.30284(17) 0.8436(2)
C8 C 0.58607(11) 0.56855(17) 0.88403(18)
H1 H 0.6229 0.5465 0.8860
C9 C 0.43230(12) 0.36758(16) 0.86112(19)
H2 H 0.4517 0.3228 0.8621
C10 C 0.37048(12) 0.37164(15) 0.85215(19)
C11 C 0.37426(11) 0.50442(15) 0.8575(2)
H3 H 0.3550 0.5493 0.8554
C12 C 0.63473(14) 0.6913(2) 0.8862(2)
N1 N 0.28792(13) 0.11282(16) 0.7464(2)
C13 C 0.34260(12) 0.43844(17) 0.8517(2)
H4 H 0.3017 0.4399 0.8476
C14 C 0.47425(12) 0.63397(15) 0.8771(2)
H5 H 0.4373 0.6559 0.8749
O5 O 0.35858(14) 0.24461(14) 0.8204(3)
N2 N 0.21567(14) 0.22196(18) 0.6803(2)
C15 C 0.52502(13) 0.67606(17) 0.8829(2)
H6 H 0.5219 0.7267 0.8852
O6 O 0.63005(13) 0.75901(15) 0.8962(3)
C16 C 0.26456(17) 0.1112(2) 0.6467(3)
C17 C 0.1507(3) 0.2788(4) 0.5496(5)
H7 H 0.1251 0.3170 0.5311
C18 C 0.22546(17) 0.1688(2) 0.6130(3)
C19 C 0.3252(2) 0.0623(2) 0.7790(4)
H8 H 0.3413 0.0641 0.8464
C20 C 0.1799(2) 0.2763(3) 0.6498(4)
H9 H 0.1736 0.3140 0.6955
C21 C 0.2774(2) 0.0556(3) 0.5784(4)
C22 C 0.3420(3) 0.0039(3) 0.7136(6)
H10 H 0.3693 -0.0312 0.7370
C23 C 0.3162(3) 0.0020(3) 0.6151(5)
H11 H 0.3252 -0.0364 0.5722
C24 C 0.1602(3) 0.2263(4) 0.4826(4)
H12 H 0.1414 0.2277 0.4170
C25 C 0.1990(2) 0.1684(3) 0.5110(3)
C26 C 0.2113(3) 0.1086(4) 0.4452(4)
H13 H 0.1926 0.1063 0.3795
C27 C 0.2482(3) 0.0576(4) 0.4762(5)
H14 H 0.2562 0.0205 0.4304
H15 H 0.3156(19) 0.194(2) 1.000(4)
H16 H 0.2624(17) 0.160(3) 1.014(4)
Zn1B Zn 0.757683(14) 0.698699(18) 0.83384(3)
O4B O 0.18224(10) 0.15813(15) 0.8774(2)
O7 O 0.5547(7) 0.8698(6) 0.832(2)
O8 O 0.4473(5) 0.2443(6) 0.6788(10)
loop_
_geom_bond_atom_site_label_1
_geom_bond_atom_site_label_2
_geom_bond_site_symmetry_1
_geom_bond_site_symmetry_2
Zn1 O1 1_555 1_555
O1 C7 1_555 1_555
C1 C3 1_555 1_555
O2 Zn1 1_555 1_555
O3 C2 1_555 1_555
C2 C4 1_555 1_555
C3 C5 1_555 1_555
C4 C1 1_555 1_555
C5 C2 1_555 1_555
O4 C12 1_555 1_555
C6 C8 1_555 1_555
C7 C10 1_555 1_555
C8 C4 1_555 1_555
H1 C8 1_555 1_555
C9 C5 1_555 1_555
H2 C9 1_555 1_555
C10 C9 1_555 1_555
C11 C3 1_555 1_555
H3 C11 1_555 1_555
C12 C6 1_555 1_555
N1 Zn1 1_555 1_555
C13 C10 1_555 1_555
H4 C13 1_555 1_555
C14 C1 1_555 1_555
H5 C14 1_555 1_555
O5 Zn1 1_555 1_555
N2 Zn1 1_555 1_555
C15 C6 1_555 1_555
H6 C15 1_555 1_555
O6 C12 1_555 1_555
C16 N1 1_555 1_555
C17 H7 1_555 1_555
C18 N2 1_555 1_555
C19 N1 1_555 1_555
H8 C19 1_555 1_555
C20 N2 1_555 1_555
H9 C20 1_555 1_555
C21 C16 1_555 1_555
C22 C19 1_555 1_555
H10 C22 1_555 1_555
C23 C21 1_555 1_555
H11 C23 1_555 1_555
C24 C17 1_555 1_555
H12 C24 1_555 1_555
C25 C18 1_555 1_555
C26 C25 1_555 1_555
H13 C26 1_555 1_555
C27 C21 1_555 1_555
H14 C27 1_555 1_555
H15 O2 1_555 1_555
H16 O2 1_555 1_555
Zn1B O4 1_555 1_555
O4B Zn1 1_555 1_555
C7 O5 1_555 1_555
C11 C13 1_555 1_555
C14 C15 1_555 1_555
C16 C18 1_555 1_555
C17 C20 1_555 1_555
C22 C23 1_555 1_555
C24 C25 1_555 1_555
C26 C27 1_555 1_555

#END
