
#######################################################################
#
#                 Cambridge Crystallographic Data Centre
#                                CCDC 
#
#######################################################################
#
# If this CIF has been generated from an entry in the Cambridge 
# Structural Database, then it will include bibliographic, chemical, 
# crystal, experimental, refinement or atomic coordinate data resulting 
# from the CCDC's data processing and validation procedures.
#
#######################################################################

data_XUGBUX
_symmetry_cell_setting           monoclinic
_symmetry_space_group_name_H-M   'P 21/c'
_symmetry_Int_Tables_number      14
_space_group_name_Hall           '-P 2ybc'
loop_
_symmetry_equiv_pos_site_id
_symmetry_equiv_pos_as_xyz
1 x,y,z
2 -x,1/2+y,1/2-z
3 -x,-y,-z
4 x,1/2-y,1/2+z
_cell_length_a                   16.236(13)
_cell_length_b                   6.731(5)
_cell_length_c                   14.460(11)
_cell_angle_alpha                90
_cell_angle_beta                 101.940(11)
_cell_angle_gamma                90
_cell_volume                     1546.06
loop_
_atom_site_label
_atom_site_type_symbol
_atom_site_fract_x
_atom_site_fract_y
_atom_site_fract_z
Sm1 Sm 0.319793(18) 0.36159(4) 0.20630(2)
O1 O 0.4648(3) 0.2606(7) 0.1923(3)
O2 O 0.5928(4) 0.1448(6) 0.2494(4)
O3 O 0.6757(3) 0.0235(7) 0.4359(3)
O4 O 0.6679(3) 0.1636(7) 0.5716(3)
O5 O 0.1756(3) 0.2517(8) 0.1620(4)
O6 O 0.0851(4) 0.2764(10) 0.0252(4)
O7 O -0.0674(4) 0.2286(10) -0.0373(4)
H1 H -0.0166 0.2660 -0.0190
O8 O -0.1782(4) 0.1395(8) 0.0178(5)
O9 O 0.2230(4) 0.6678(8) 0.1812(5)
H2 H 0.2203 0.7182 0.1267
H3 H 0.1768 0.6468 0.1984
O10 O 0.3100(4) 0.1076(7) 0.0769(4)
H4 H 0.3406 0.1281 0.0367
H5 H 0.2576 0.0934 0.0561
O11 O 0.3139(3) 0.0279(7) 0.2632(3)
H6 H 0.2938 -0.0554 0.2206
H7 H 0.3259 -0.0135 0.3198
O12 O 0.2650(3) 0.4446(10) 0.3444(4)
H8 H 0.2330 0.3674 0.3672
H9 H 0.2787 0.5558 0.3716
N1 N 0.4305(3) 0.2951(8) 0.3655(4)
N2 N 0.4277(4) 0.3098(9) 0.4549(4)
N3 N 0.5021(4) 0.2525(8) 0.5040(4)
H10 H 0.5155 0.2492 0.5647
N4 N 0.0481(5) 0.1302(9) 0.2479(5)
H11 H 0.0968 0.1271 0.2850
N5 N -0.0235(5) 0.0934(12) 0.2760(5)
N6 N -0.0843(4) 0.1074(10) 0.1995(6)
C1 C 0.5232(4) 0.2075(9) 0.2594(4)
C2 C 0.5074(4) 0.2277(9) 0.3568(4)
C3 C 0.5544(4) 0.1994(9) 0.4457(4)
C4 C 0.6397(5) 0.1240(9) 0.4870(5)
C5 C 0.1050(4) 0.2358(11) 0.1128(5)
C6 C 0.0361(5) 0.1722(10) 0.1562(6)
C7 C -0.0501(5) 0.1547(10) 0.1268(6)
C8 C -0.1035(5) 0.1745(11) 0.0314(6)
Sm1A Sm 0.680207(18) -0.13841(4) 0.29370(2)
O2A O 0.4072(4) 0.6448(6) 0.2506(4)
O3A O 0.3243(3) 0.5235(7) 0.0641(3)
O13 O 0.1781(4) 0.0990(10) 0.3990(4)
H12 H 0.2044 -0.0107 0.4071
H13 H 0.1520 0.1346 0.4415
loop_
_geom_bond_atom_site_label_1
_geom_bond_atom_site_label_2
_geom_bond_site_symmetry_1
_geom_bond_site_symmetry_2
Sm1 O1 1_555 1_555
O1 C1 1_555 1_555
O2 C1 1_555 1_555
O3 C4 1_555 1_555
O4 C4 1_555 1_555
O5 Sm1 1_555 1_555
O6 C5 1_555 1_555
O7 H1 1_555 1_555
O8 C8 1_555 1_555
O9 Sm1 1_555 1_555
H2 O9 1_555 1_555
H3 O9 1_555 1_555
O10 Sm1 1_555 1_555
H4 O10 1_555 1_555
H5 O10 1_555 1_555
O11 Sm1 1_555 1_555
H6 O11 1_555 1_555
H7 O11 1_555 1_555
O12 Sm1 1_555 1_555
H8 O12 1_555 1_555
H9 O12 1_555 1_555
N1 Sm1 1_555 1_555
N2 N1 1_555 1_555
N3 N2 1_555 1_555
H10 N3 1_555 1_555
N4 H11 1_555 1_555
N5 N4 1_555 1_555
N6 N5 1_555 1_555
C1 C2 1_555 1_555
C2 N1 1_555 1_555
C3 N3 1_555 1_555
C4 C3 1_555 1_555
C5 O5 1_555 1_555
C6 N4 1_555 1_555
C7 N6 1_555 1_555
C8 O7 1_555 1_555
O13 H12 1_555 1_555
H13 O13 1_555 1_555
Sm1A O2 1_555 1_555
O2A Sm1 1_555 1_555
O3A Sm1 1_555 1_555
O3 Sm1A 1_555 1_555
C2 C3 1_555 1_555
C5 C6 1_555 1_555
C6 C7 1_555 1_555
C7 C8 1_555 1_555

#END
