
#######################################################################
#
#                 Cambridge Crystallographic Data Centre
#                                CCDC 
#
#######################################################################
#
# If this CIF has been generated from an entry in the Cambridge 
# Structural Database, then it will include bibliographic, chemical, 
# crystal, experimental, refinement or atomic coordinate data resulting 
# from the CCDC's data processing and validation procedures.
#
#######################################################################

data_XUGBIL
_symmetry_cell_setting           orthorhombic
_symmetry_space_group_name_H-M   'P 21 21 21'
_symmetry_Int_Tables_number      19
_space_group_name_Hall           'P 2ac 2ab'
loop_
_symmetry_equiv_pos_site_id
_symmetry_equiv_pos_as_xyz
1 x,y,z
2 1/2-x,-y,1/2+z
3 1/2+x,1/2-y,-z
4 -x,1/2+y,1/2-z
_cell_length_a                   11.573(2)
_cell_length_b                   13.672(3)
_cell_length_c                   27.478(5)
_cell_angle_alpha                90
_cell_angle_beta                 90
_cell_angle_gamma                90
_cell_volume                     4347.74
loop_
_atom_site_label
_atom_site_type_symbol
_atom_site_fract_x
_atom_site_fract_y
_atom_site_fract_z
Mn1 Mn -0.11517(8) 0.87688(6) 0.38872(3)
Mn2 Mn 0.09430(8) 0.57862(6) 0.40479(3)
O1 O 0.1129(4) 0.7124(3) 0.43937(16)
O2 O 0.0624(3) 0.8394(3) 0.39142(15)
O3 O -0.1235(4) 0.9784(3) 0.44794(13)
O4 O -0.0713(4) 1.0491(3) 0.37952(13)
N1 N -0.1538(4) 0.8655(3) 0.30927(16)
N2 N -0.3143(4) 0.8849(4) 0.38060(17)
N3 N -0.4557(4) 0.8600(4) 0.18798(17)
N4 N -0.6220(4) 0.8598(3) 0.26230(17)
N5 N 0.1335(4) 0.6017(3) 0.32599(16)
N6 N 0.2902(4) 0.5870(3) 0.39807(14)
N7 N 0.4402(4) 0.6146(3) 0.20684(16)
N8 N 0.6027(4) 0.6062(3) 0.28199(16)
C1 C -0.0749(5) 0.8629(4) 0.2748(2)
H1 H 0.0025 0.8602 0.2838
C2 C -0.1028(6) 0.8640(4) 0.2253(2)
H2 H -0.0447 0.8632 0.2019
C3 C -0.2155(5) 0.8660(4) 0.2118(2)
H3 H -0.2350 0.8686 0.1790
C4 C -0.3016(5) 0.8644(4) 0.2468(2)
C5 C -0.4238(5) 0.8628(4) 0.2353(2)
C6 C -0.5669(6) 0.8582(4) 0.1785(2)
C7 C -0.6044(6) 0.8520(5) 0.1261(2)
H4 H -0.6035 0.9170 0.1120
H5 H -0.5494 0.8122 0.1083
C8 C -0.7194(8) 0.8102(7) 0.1205(3)
H6 H -0.7434 0.8192 0.0870
H7 H -0.7141 0.7403 0.1262
C9 C -0.8085(8) 0.8490(8) 0.1516(3)
H8 H -0.8755 0.8066 0.1493
H9 H -0.8311 0.9126 0.1391
C10 C -0.7783(5) 0.8604(5) 0.2043(3)
H10 H -0.8144 0.8078 0.2224
H11 H -0.8108 0.9214 0.2160
C11 C -0.6498(5) 0.8600(4) 0.2152(2)
C12 C -0.5069(5) 0.8609(4) 0.2725(2)
C13 C -0.4711(5) 0.8649(4) 0.3232(2)
C14 C -0.5482(5) 0.8627(4) 0.3620(2)
H12 H -0.6268 0.8542 0.3562
C15 C -0.5083(5) 0.8732(5) 0.4086(2)
H13 H -0.5591 0.8709 0.4348
C16 C -0.3910(6) 0.8875(5) 0.4162(2)
H14 H -0.3652 0.8994 0.4477
C17 C -0.3534(5) 0.8724(4) 0.33423(19)
C18 C -0.2660(5) 0.8674(4) 0.29605(19)
C19 C 0.0551(5) 0.6063(4) 0.2907(2)
H15 H -0.0227 0.6081 0.2991
C20 C 0.0855(5) 0.6084(5) 0.2416(2)
H16 H 0.0281 0.6097 0.2179
C21 C 0.1979(5) 0.6086(4) 0.2281(2)
H17 H 0.2185 0.6094 0.1954
C22 C 0.2834(5) 0.6074(4) 0.26472(18)
C23 C 0.4061(5) 0.6104(3) 0.25400(18)
C24 C 0.5519(5) 0.6151(4) 0.1979(2)
C25 C 0.5903(6) 0.6213(5) 0.14552(19)
H18 H 0.5662 0.5622 0.1289
H19 H 0.5509 0.6759 0.1302
C26 C 0.7156(7) 0.6337(7) 0.1387(3)
H20 H 0.7352 0.6131 0.1059
H21 H 0.7337 0.7028 0.1412
C27 C 0.7874(7) 0.5813(7) 0.1722(3)
H22 H 0.8675 0.5976 0.1658
H23 H 0.7780 0.5117 0.1665
C28 C 0.7610(5) 0.6029(5) 0.2249(2)
H24 H 0.7948 0.5521 0.2450
H25 H 0.7969 0.6645 0.2338
C29 C 0.6342(5) 0.6089(4) 0.2354(2)
C30 C 0.4873(5) 0.6077(4) 0.29187(18)
C31 C 0.4488(5) 0.6039(4) 0.34211(19)
C32 C 0.5261(5) 0.6047(4) 0.3814(2)
H26 H 0.6052 0.6104 0.3762
C33 C 0.4828(5) 0.5969(4) 0.4274(2)
H27 H 0.5322 0.5990 0.4540
C34 C 0.3654(5) 0.5859(4) 0.43421(19)
H28 H 0.3380 0.5774 0.4657
C35 C 0.3313(5) 0.5966(4) 0.35253(19)
C36 C 0.2470(5) 0.6019(4) 0.31288(18)
C37 C 0.2922(5) 0.8914(4) 0.53445(19)
C38 C 0.2360(4) 0.8304(4) 0.50155(19)
H29 H 0.2391 0.7629 0.5057
C39 C 0.1751(5) 0.8698(4) 0.4625(2)
C40 C 0.1714(5) 0.9696(4) 0.4565(2)
H30 H 0.1320 0.9962 0.4302
C41 C 0.2255(5) 1.0300(4) 0.4892(2)
H31 H 0.2213 1.0975 0.4852
C42 C 0.2865(5) 0.9914(4) 0.5282(2)
H32 H 0.3234 1.0328 0.5501
C43 C 0.1120(5) 0.8018(5) 0.4281(2)
C44 C -0.0687(5) 1.1467(4) 0.45168(19)
C45 C -0.0088(5) 1.2247(4) 0.43201(19)
H33 H 0.0188 1.2206 0.4003
C46 C 0.0106(5) 1.3085(4) 0.45871(19)
C47 C -0.0288(6) 1.3151(4) 0.5062(2)
H34 H -0.0131 1.3705 0.5247
C48 C -0.1119(6) 1.1551(4) 0.4990(2)
H35 H -0.1544 1.1041 0.5124
C49 C -0.0921(7) 1.2385(4) 0.5260(2)
H36 H -0.1211 1.2434 0.5575
C50 C -0.0903(5) 1.0531(4) 0.4242(2)
O5 O 0.0832(4) 1.4731(3) 0.46294(15)
O6 O 0.0840(4) 1.4014(3) 0.39164(14)
C51 C 0.0660(5) 1.3993(5) 0.4364(2)
O7 O 0.4137(3) 0.9015(3) 0.60394(14)
O8 O 0.3410(4) 0.7574(3) 0.58228(19)
C52 C 0.3548(5) 0.8461(5) 0.5774(2)
Mn1B Mn 0.38483(8) 0.62312(6) 0.61128(3)
Mn2_2 Mn 0.09430(8) 1.57862(6) 0.40479(3)
Mn2B Mn 0.59430(8) 0.92138(6) 0.59521(3)
O5_2 O 0.0832(4) 0.4731(3) 0.46294(15)
O6_2 O 0.0840(4) 0.4014(3) 0.39164(14)
O7B O -0.0863(3) 0.5985(3) 0.39606(14)
O8B O -0.1590(4) 0.7426(3) 0.41772(19)
loop_
_geom_bond_atom_site_label_1
_geom_bond_atom_site_label_2
_geom_bond_site_symmetry_1
_geom_bond_site_symmetry_2
Mn1 O2 1_555 1_555
Mn2 O1 1_555 1_555
O1 C43 1_555 1_555
O2 C43 1_555 1_555
O3 Mn1 1_555 1_555
O4 Mn1 1_555 1_555
N1 Mn1 1_555 1_555
N2 Mn1 1_555 1_555
N3 C5 1_555 1_555
N4 C11 1_555 1_555
N5 Mn2 1_555 1_555
N6 Mn2 1_555 1_555
N7 C23 1_555 1_555
N8 C29 1_555 1_555
C1 N1 1_555 1_555
H1 C1 1_555 1_555
C2 C1 1_555 1_555
H2 C2 1_555 1_555
C3 C2 1_555 1_555
H3 C3 1_555 1_555
C4 C3 1_555 1_555
C5 C4 1_555 1_555
C6 N3 1_555 1_555
C7 C6 1_555 1_555
H4 C7 1_555 1_555
H5 C7 1_555 1_555
C8 C7 1_555 1_555
H6 C8 1_555 1_555
H7 C8 1_555 1_555
C9 C8 1_555 1_555
H8 C9 1_555 1_555
H9 C9 1_555 1_555
C10 C9 1_555 1_555
H10 C10 1_555 1_555
H11 C10 1_555 1_555
C11 C6 1_555 1_555
C12 N4 1_555 1_555
C13 C12 1_555 1_555
C14 C13 1_555 1_555
H12 C14 1_555 1_555
C15 C14 1_555 1_555
H13 C15 1_555 1_555
C16 N2 1_555 1_555
H14 C16 1_555 1_555
C17 N2 1_555 1_555
C18 N1 1_555 1_555
C19 N5 1_555 1_555
H15 C19 1_555 1_555
C20 C19 1_555 1_555
H16 C20 1_555 1_555
C21 C20 1_555 1_555
H17 C21 1_555 1_555
C22 C21 1_555 1_555
C23 C22 1_555 1_555
C24 N7 1_555 1_555
C25 C24 1_555 1_555
H18 C25 1_555 1_555
H19 C25 1_555 1_555
C26 C25 1_555 1_555
H20 C26 1_555 1_555
H21 C26 1_555 1_555
C27 C26 1_555 1_555
H22 C27 1_555 1_555
H23 C27 1_555 1_555
C28 C27 1_555 1_555
H24 C28 1_555 1_555
H25 C28 1_555 1_555
C29 C24 1_555 1_555
C30 N8 1_555 1_555
C31 C30 1_555 1_555
C32 C31 1_555 1_555
H26 C32 1_555 1_555
C33 C32 1_555 1_555
H27 C33 1_555 1_555
C34 N6 1_555 1_555
H28 C34 1_555 1_555
C35 N6 1_555 1_555
C36 N5 1_555 1_555
C37 C38 1_555 1_555
C38 H29 1_555 1_555
C39 C38 1_555 1_555
C40 C39 1_555 1_555
H30 C40 1_555 1_555
C41 C40 1_555 1_555
H31 C41 1_555 1_555
C42 C37 1_555 1_555
H32 C42 1_555 1_555
C43 C39 1_555 1_555
C44 C45 1_555 1_555
C45 H33 1_555 1_555
C46 C45 1_555 1_555
C47 C46 1_555 1_555
H34 C47 1_555 1_555
C48 C44 1_555 1_555
H35 C48 1_555 1_555
C49 C47 1_555 1_555
H36 C49 1_555 1_555
C50 O3 1_555 1_555
O5 C51 1_555 1_555
O6 C51 1_555 1_555
C51 C46 1_555 1_555
O7 C52 1_555 1_555
O8 C52 1_555 1_555
C52 C37 1_555 1_555
Mn1B O8 1_555 1_555
Mn2_2 O5 1_555 1_555
Mn2B O7 1_555 1_555
O5_2 Mn2 1_555 1_555
O6_2 Mn2 1_555 1_555
O7B Mn2 1_555 1_555
O8B Mn1 1_555 1_555
O4 C50 1_555 1_555
C4 C18 1_555 1_555
C5 C12 1_555 1_555
C10 C11 1_555 1_555
C13 C17 1_555 1_555
C15 C16 1_555 1_555
C17 C18 1_555 1_555
C22 C36 1_555 1_555
C23 C30 1_555 1_555
C28 C29 1_555 1_555
C31 C35 1_555 1_555
C33 C34 1_555 1_555
C35 C36 1_555 1_555
C41 C42 1_555 1_555
C44 C50 1_555 1_555
C48 C49 1_555 1_555
O6 Mn2_2 1_555 1_555

#END
