
#######################################################################
#
#                 Cambridge Crystallographic Data Centre
#                                CCDC 
#
#######################################################################
#
# If this CIF has been generated from an entry in the Cambridge 
# Structural Database, then it will include bibliographic, chemical, 
# crystal, experimental, refinement or atomic coordinate data resulting 
# from the CCDC's data processing and validation procedures.
#
#######################################################################

data_XUGBIM
_symmetry_cell_setting           monoclinic
_symmetry_space_group_name_H-M   'C 2/c'
_symmetry_Int_Tables_number      15
_space_group_name_Hall           '-C 2yn'
loop_
_symmetry_equiv_pos_site_id
_symmetry_equiv_pos_as_xyz
1 x,y,z
2 -x,y,1/2-z
3 1/2+x,1/2+y,z
4 1/2-x,1/2+y,1/2-z
5 -x,-y,-z
6 x,-y,1/2+z
7 1/2-x,1/2-y,-z
8 1/2+x,1/2-y,1/2+z
_cell_length_a                   16.292(3)
_cell_length_b                   18.5883(15)
_cell_length_c                   9.6052(13)
_cell_angle_alpha                90
_cell_angle_beta                 122.755(6)
_cell_angle_gamma                90
_cell_volume                     2446.31
loop_
_atom_site_label
_atom_site_type_symbol
_atom_site_fract_x
_atom_site_fract_y
_atom_site_fract_z
La1 La -1.5000 0.063809(12) -1.7500
O1 O -1.41650(12) 0.03992(12) -2.0723(2)
O2 O -1.37136(14) 0.05982(12) -1.8112(3)
C1 C -1.24882(18) 0.06430(14) -1.8733(4)
C2 C -1.35397(19) 0.05404(15) -1.9240(3)
C3 C -1.1247(2) 0.05581(16) -1.9374(4)
H1 H -1.1079 0.0457 -2.0138
C4 C -1.05162(18) 0.07655(14) -1.7768(3)
C5 C -1.22195(19) 0.04990(16) -1.9859(3)
H2 H -1.2691 0.0363 -2.0937
C6 C -1.08091(17) 0.09405(17) -1.6677(3)
H3 H -1.0347 0.1104 -1.5617
O3 O -1.61885(16) 0.10657(15) -2.0306(3)
C7 C -1.17730(18) 0.08741(17) -1.7152(3)
H4 H -1.1946 0.0986 -1.6400
O4 O -1.4420(2) 0.19366(18) -1.7732(5)
C8 C -1.7826(3) 0.2312(2) -2.3432(5)
H5 H -1.7353 0.2456 -2.3680
H6 H -1.8038 0.2726 -2.3112
H7 H -1.8375 0.2096 -2.4394
C9 C -1.6524(3) 0.1547(2) -2.1387(5)
C10 C -1.5891(2) 0.1837(2) -2.2050(5)
H8 H -1.5262 0.1610 -2.1459
H9 H -1.5812 0.2348 -2.1887
H10 H -1.6212 0.1731 -2.3209
N1 N -1.7381(2) 0.17863(18) -2.2061(4)
C11 C -1.7962(3) 0.1478(3) -2.1438(5)
H11 H -1.7568 0.1142 -2.0567
H12 H -1.8523 0.1236 -2.2324
H13 H -1.8170 0.1857 -2.1019
N2 N -1.5000 0.2276(3) -1.7500
O5 O -1.5000 0.2938(3) -1.7500
O1A O -0.58350(12) 0.03992(12) -1.4277(2)
O2A O -0.62864(14) 0.05982(12) -1.6888(3)
C1A C -0.75118(18) 0.06430(14) -1.6267(4)
C2A C -0.64603(19) 0.05404(15) -1.5760(3)
C3A C -0.8753(2) 0.05581(16) -1.5626(4)
H1A H -0.8921 0.0457 -1.4862
C4A C -0.94838(18) 0.07655(14) -1.7232(3)
C5A C -0.77805(19) 0.04990(16) -1.5141(3)
H2A H -0.7309 0.0363 -1.4063
C6A C -0.91909(17) 0.09405(17) -1.8323(3)
H3A H -0.9653 0.1104 -1.9383
C7A C -0.82270(18) 0.08741(17) -1.7848(3)
H4A H -0.8054 0.0986 -1.8600
O4A O -1.5580(2) 0.19366(18) -1.7268(5)
O3A O -1.38115(16) 0.10657(15) -1.4694(3)
C8A C -1.2174(3) 0.2312(2) -1.1568(5)
H5A H -1.2647 0.2456 -1.1320
H6A H -1.1962 0.2726 -1.1888
H7A H -1.1625 0.2096 -1.0606
C9A C -1.3476(3) 0.1547(2) -1.3613(5)
C10A C -1.4109(2) 0.1837(2) -1.2950(5)
H8A H -1.4738 0.1610 -1.3541
H9A H -1.4188 0.2348 -1.3113
H10A H -1.3788 0.1731 -1.1791
N1A N -1.2619(2) 0.17863(18) -1.2939(4)
C11A C -1.2038(3) 0.1478(3) -1.3562(5)
H11A H -1.2432 0.1142 -1.4433
H12A H -1.1477 0.1236 -1.2676
H13A H -1.1830 0.1857 -1.3981
La1_2 La -0.5000 0.063809(12) -1.7500
La1D La -1.5000 -0.063809(12) -2.2500
La1D_2 La -0.5000 -0.063809(12) -1.2500
O1D O -1.58350(12) -0.03992(12) -1.9277(2)
O1E O -1.41650(12) -0.03992(12) -1.5723(2)
O2A_2 O -1.62864(14) 0.05982(12) -1.6888(3)
loop_
_geom_bond_atom_site_label_1
_geom_bond_atom_site_label_2
_geom_bond_site_symmetry_1
_geom_bond_site_symmetry_2
La1 O2 1_555 1_555
O1 C2 1_555 1_555
O2 C2 1_555 1_555
C1 C2 1_555 1_555
C3 H1 1_555 1_555
C4 C3 1_555 1_555
C5 C1 1_555 1_555
H2 C5 1_555 1_555
C6 C4 1_555 1_555
H3 C6 1_555 1_555
O3 La1 1_555 1_555
C7 C1 1_555 1_555
H4 C7 1_555 1_555
O4 La1 1_555 1_555
C8 H5 1_555 1_555
H6 C8 1_555 1_555
H7 C8 1_555 1_555
C9 O3 1_555 1_555
C10 C9 1_555 1_555
H8 C10 1_555 1_555
H9 C10 1_555 1_555
H10 C10 1_555 1_555
N1 C8 1_555 1_555
C11 N1 1_555 1_555
H11 C11 1_555 1_555
H12 C11 1_555 1_555
H13 C11 1_555 1_555
N2 O4 1_555 1_555
O5 N2 1_555 1_555
O1A C2A 1_555 1_555
O2A C2A 1_555 1_555
C1A C2A 1_555 1_555
C3A H1A 1_555 1_555
C4A C4 1_555 1_555
C5A C1A 1_555 1_555
H2A C5A 1_555 1_555
C6A C4A 1_555 1_555
H3A C6A 1_555 1_555
C7A C1A 1_555 1_555
H4A C7A 1_555 1_555
O4A La1 1_555 1_555
O3A La1 1_555 1_555
C8A H5A 1_555 1_555
H6A C8A 1_555 1_555
H7A C8A 1_555 1_555
C9A O3A 1_555 1_555
C10A C9A 1_555 1_555
H8A C10A 1_555 1_555
H9A C10A 1_555 1_555
H10A C10A 1_555 1_555
N1A C8A 1_555 1_555
C11A N1A 1_555 1_555
H11A C11A 1_555 1_555
H12A C11A 1_555 1_555
H13A C11A 1_555 1_555
La1_2 O2A 1_555 1_555
La1D O1 1_555 1_555
La1D_2 O1A 1_555 1_555
O1D La1 1_555 1_555
O1E La1 1_555 1_555
O2A_2 La1 1_555 1_555
C3 C5 1_555 1_555
C6 C7 1_555 1_555
C9 N1 1_555 1_555
N2 O4A 1_555 1_555
C3A C4A 1_555 1_555
C3A C5A 1_555 1_555
C6A C7A 1_555 1_555
C9A N1A 1_555 1_555

#END
