
#######################################################################
#
#                 Cambridge Crystallographic Data Centre
#                                CCDC 
#
#######################################################################
#
# If this CIF has been generated from an entry in the Cambridge 
# Structural Database, then it will include bibliographic, chemical, 
# crystal, experimental, refinement or atomic coordinate data resulting 
# from the CCDC's data processing and validation procedures.
#
#######################################################################

data_XUGBEH
_symmetry_cell_setting           monoclinic
_symmetry_space_group_name_H-M   'C 2/c'
_symmetry_Int_Tables_number      15
_space_group_name_Hall           '-C 2yn'
loop_
_symmetry_equiv_pos_site_id
_symmetry_equiv_pos_as_xyz
1 x,y,z
2 -x,y,1/2-z
3 1/2+x,1/2+y,z
4 1/2-x,1/2+y,1/2-z
5 -x,-y,-z
6 x,-y,1/2+z
7 1/2-x,1/2-y,-z
8 1/2+x,1/2-y,1/2+z
_cell_length_a                   15.8642(14)
_cell_length_b                   14.8788(13)
_cell_length_c                   18.7243(16)
_cell_angle_alpha                90
_cell_angle_beta                 108.8420(10)
_cell_angle_gamma                90
_cell_volume                     4182.85
loop_
_atom_site_label
_atom_site_type_symbol
_atom_site_fract_x
_atom_site_fract_y
_atom_site_fract_z
Cd1 Cd 0.07653(2) 0.351865(17) 0.182301(14)
O1 O 0.0809(2) 0.4396(2) 0.07872(16)
O2 O 0.1782(2) 0.3337(2) 0.11732(16)
O3 O 0.0648(2) 0.6031(2) -0.16180(16)
O4 O 0.1542(2) 0.55919(18) -0.22405(15)
N1 N 0.1255(2) 0.2178(2) 0.25205(16)
N2 N -0.0031(2) 0.2245(2) 0.11523(16)
N3 N 0.1174(2) -0.1041(2) 0.24672(19)
N4 N -0.0143(2) -0.0988(2) 0.10420(19)
C1 C 0.1876(3) 0.2144(3) 0.3198(2)
H1 H 0.2103 0.2683 0.3434
C2 C 0.2198(3) 0.1354(3) 0.3564(3)
H2 H 0.2628 0.1363 0.4039
C3 C 0.1883(3) 0.0558(3) 0.3224(2)
H3 H 0.2103 0.0018 0.3462
C4 C 0.1229(2) 0.0558(2) 0.2518(2)
C5 C 0.0858(3) -0.0265(3) 0.2125(2)
C6 C 0.0849(3) -0.1803(3) 0.2094(3)
C7 C 0.1216(3) -0.2654(3) 0.2439(3)
H4 H 0.1856 -0.2637 0.2543
H5 H 0.1112 -0.2699 0.2920
C8 C 0.0883(4) -0.3460(3) 0.2019(4)
H6 H 0.1388 -0.3848 0.2059
H7 H 0.0512 -0.3766 0.2265
C9 C 0.0386(4) -0.3377(3) 0.1244(4)
H8 H 0.0803 -0.3426 0.0964
H9 H -0.0005 -0.3896 0.1109
C10 C -0.0140(3) -0.2613(3) 0.0974(3)
H10 H -0.0733 -0.2727 0.0997
H11 H -0.0194 -0.2531 0.0447
C11 C 0.0183(3) -0.1774(3) 0.1372(3)
C12 C 0.0205(3) -0.0235(3) 0.1419(2)
C13 C -0.0114(2) 0.0633(2) 0.1071(2)
C14 C -0.0784(3) 0.0708(3) 0.0371(2)
H12 H -0.1033 0.0196 0.0100
C15 C -0.1067(3) 0.1541(3) 0.0090(2)
H13 H -0.1519 0.1601 -0.0370
C16 C -0.0681(3) 0.2292(3) 0.0492(2)
H14 H -0.0881 0.2855 0.0294
C17 C 0.0241(2) 0.1430(2) 0.1442(2)
C18 C 0.0937(2) 0.1389(2) 0.2184(2)
C19 C 0.1448(3) 0.3959(2) 0.07312(19)
C20 C 0.1819(2) 0.4160(2) 0.01030(18)
C21 C 0.1417(2) 0.4793(2) -0.04478(19)
H15 H 0.0946 0.5136 -0.0405
C22 C 0.1717(2) 0.4917(2) -0.10674(18)
C23 C 0.2425(2) 0.4397(2) -0.1116(2)
H16 H 0.2624 0.4465 -0.1529
C24 C 0.2835(3) 0.3785(3) -0.0563(2)
H17 H 0.3314 0.3448 -0.0599
C25 C 0.2534(3) 0.3672(2) 0.0043(2)
H18 H 0.2817 0.3261 0.0418
C26 C 0.1259(3) 0.5555(2) -0.1684(2)
Cd1D Cd -0.07653(2) 0.648135(17) -0.182301(14)
Cd1E Cd 0.07653(2) 0.648135(17) -0.317699(14)
O3D O -0.0648(2) 0.3969(2) 0.16180(16)
O4E O 0.1542(2) 0.44081(18) 0.27595(15)
loop_
_geom_bond_atom_site_label_1
_geom_bond_atom_site_label_2
_geom_bond_site_symmetry_1
_geom_bond_site_symmetry_2
Cd1 O1 1_555 1_555
O1 C19 1_555 1_555
O2 Cd1 1_555 1_555
O3 C26 1_555 1_555
O4 C26 1_555 1_555
N1 Cd1 1_555 1_555
N2 Cd1 1_555 1_555
N3 C5 1_555 1_555
N4 C11 1_555 1_555
C1 N1 1_555 1_555
H1 C1 1_555 1_555
C2 C1 1_555 1_555
H2 C2 1_555 1_555
C3 C2 1_555 1_555
H3 C3 1_555 1_555
C4 C3 1_555 1_555
C5 C4 1_555 1_555
C6 N3 1_555 1_555
C7 C6 1_555 1_555
H4 C7 1_555 1_555
H5 C7 1_555 1_555
C8 C7 1_555 1_555
H6 C8 1_555 1_555
H7 C8 1_555 1_555
C9 C8 1_555 1_555
H8 C9 1_555 1_555
H9 C9 1_555 1_555
C10 C9 1_555 1_555
H10 C10 1_555 1_555
H11 C10 1_555 1_555
C11 C6 1_555 1_555
C12 N4 1_555 1_555
C13 C12 1_555 1_555
C14 C13 1_555 1_555
H12 C14 1_555 1_555
C15 C14 1_555 1_555
H13 C15 1_555 1_555
C16 N2 1_555 1_555
H14 C16 1_555 1_555
C17 N2 1_555 1_555
C18 N1 1_555 1_555
C19 O2 1_555 1_555
C20 C19 1_555 1_555
C21 C20 1_555 1_555
H15 C21 1_555 1_555
C22 C21 1_555 1_555
C23 C22 1_555 1_555
H16 C23 1_555 1_555
C24 C23 1_555 1_555
H17 C24 1_555 1_555
C25 C20 1_555 1_555
H18 C25 1_555 1_555
C26 C22 1_555 1_555
Cd1D O3 1_555 1_555
Cd1E O4 1_555 1_555
O3D Cd1 1_555 1_555
O4E Cd1 1_555 1_555
C4 C18 1_555 1_555
C5 C12 1_555 1_555
C10 C11 1_555 1_555
C13 C17 1_555 1_555
C15 C16 1_555 1_555
C17 C18 1_555 1_555
C24 C25 1_555 1_555

#END
