
#######################################################################
#
#                 Cambridge Crystallographic Data Centre
#                                CCDC 
#
#######################################################################
#
# If this CIF has been generated from an entry in the Cambridge 
# Structural Database, then it will include bibliographic, chemical, 
# crystal, experimental, refinement or atomic coordinate data resulting 
# from the CCDC's data processing and validation procedures.
#
#######################################################################

data_XUGBOR
_symmetry_cell_setting           monoclinic
_symmetry_space_group_name_H-M   'C 2/c'
_symmetry_Int_Tables_number      15
_space_group_name_Hall           '-C 2yn'
loop_
_symmetry_equiv_pos_site_id
_symmetry_equiv_pos_as_xyz
1 x,y,z
2 -x,y,1/2-z
3 1/2+x,1/2+y,z
4 1/2-x,1/2+y,1/2-z
5 -x,-y,-z
6 x,-y,1/2+z
7 1/2-x,1/2-y,-z
8 1/2+x,1/2-y,1/2+z
_cell_length_a                   33.795(6)
_cell_length_b                   9.8120(16)
_cell_length_c                   28.232(5)
_cell_angle_alpha                90
_cell_angle_beta                 110.894(2)
_cell_angle_gamma                90
_cell_volume                     8746.03
loop_
_atom_site_label
_atom_site_type_symbol
_atom_site_fract_x
_atom_site_fract_y
_atom_site_fract_z
Zn1 Zn 0.134825(15) 0.65428(5) 0.262484(19)
Zn2 Zn 0.136960(16) 0.53997(5) 0.632530(19)
O2 O 0.16699(11) 0.5432(3) 0.58493(11)
O3 O 0.10748(11) 0.5923(4) 0.52185(12)
O4 O 0.18260(9) 0.4045(3) 0.19639(11)
O5 O 0.14397(9) 0.4483(3) 0.24411(12)
O6 O 0.35321(9) 0.1674(3) 0.34509(11)
O7 O 0.32084(9) 0.2142(3) 0.26324(12)
O8 O 0.11355(11) 0.5439(4) 0.34264(12)
O9 O 0.16733(10) 0.6613(3) 0.33554(11)
N1 N 0.06974(11) 0.6286(3) 0.22553(13)
N2 N 0.10977(11) 0.8671(4) 0.24938(14)
N3 N -0.06440(11) 0.8578(4) 0.15422(14)
N4 N -0.02257(13) 1.1091(4) 0.17575(16)
N5 N 0.10972(11) 0.7464(4) 0.62850(14)
N6 N 0.07184(11) 0.5053(4) 0.60394(13)
N7 N -0.02437(13) 0.9782(4) 0.55076(15)
N8 N -0.06237(12) 0.7239(4) 0.51990(15)
C1 C 0.05084(14) 0.5084(5) 0.21505(18)
H3 H 0.0673 0.4299 0.2236
C2 C 0.00748(14) 0.4958(5) 0.19188(18)
H4 H -0.0048 0.4098 0.1852
C3 C -0.01739(14) 0.6096(5) 0.17875(18)
H5 H -0.0466 0.6022 0.1631
C4 C 0.00197(13) 0.7366(4) 0.18937(16)
C5 C -0.02213(14) 0.8646(5) 0.17655(17)
C6 C -0.08563(15) 0.9738(5) 0.14270(19)
C7 C -0.13261(15) 0.9651(5) 0.1176(2)
H6 H -0.1433 0.9017 0.1365
H7 H -0.1391 0.9277 0.0839
C8 C -0.15599(17) 1.0991(6) 0.1131(2)
H8 H -0.1833 1.0919 0.0858
H9 H -0.1612 1.1152 0.1443
C9 C -0.13262(17) 1.2178(6) 0.1031(2)
H10 H -0.1484 1.3002 0.1035
H11 H -0.1315 1.2085 0.0694
C10 C -0.08794(17) 1.2341(5) 0.1406(2)
H12 H -0.0727 1.2964 0.1266
H13 H -0.0890 1.2747 0.1714
C11 C -0.06388(16) 1.1021(5) 0.15369(19)
C12 C -0.00124(15) 0.9898(5) 0.18825(17)
C13 C 0.04446(15) 0.9938(4) 0.21325(17)
C14 C 0.06810(16) 1.1146(5) 0.2266(2)
H14 H 0.0544 1.1984 0.2200
C15 C 0.11065(16) 1.1096(5) 0.2490(2)
H15 H 0.1263 1.1897 0.2569
C16 C 0.13082(16) 0.9848(5) 0.25996(19)
H16 H 0.1602 0.9829 0.2753
C17 C 0.06738(14) 0.8728(4) 0.22547(16)
C18 C 0.04542(12) 0.7425(4) 0.21301(15)
C19 C 0.12931(17) 0.8638(5) 0.6428(2)
H17 H 0.1584 0.8635 0.6602
C20 C 0.10809(17) 0.9891(5) 0.6328(2)
H18 H 0.1229 1.0700 0.6438
C21 C 0.06546(17) 0.9911(5) 0.6069(2)
H19 H 0.0510 1.0737 0.5998
C22 C 0.04356(15) 0.8688(5) 0.59088(18)
C23 C -0.00145(15) 0.8612(4) 0.56259(17)
C24 C -0.06498(17) 0.9673(5) 0.52343(19)
C25 C -0.09054(17) 1.0977(6) 0.5126(2)
H20 H -0.0767 1.1632 0.4979
H21 H -0.0905 1.1351 0.5444
C26 C -0.1354(2) 1.0811(6) 0.4777(2)
H22 H -0.1368 1.1092 0.4442
H23 H -0.1524 1.1451 0.4884
C27 C -0.1555(2) 0.9493(6) 0.4727(3)
H24 H -0.1664 0.9402 0.4999
H25 H -0.1796 0.9491 0.4411
C28 C -0.12973(16) 0.8256(6) 0.4731(2)
H26 H -0.1420 0.7483 0.4844
H27 H -0.1312 0.8070 0.4388
C29 C -0.08427(16) 0.8387(5) 0.5067(2)
C30 C -0.02102(14) 0.7339(5) 0.54835(17)
C31 C 0.00349(14) 0.6092(4) 0.56351(16)
C32 C -0.01496(14) 0.4800(5) 0.55265(17)
H28 H -0.0440 0.4709 0.5356
C33 C 0.01027(14) 0.3671(5) 0.56744(18)
H29 H -0.0013 0.2801 0.5607
C34 C 0.05357(14) 0.3848(5) 0.59279(17)
H30 H 0.0705 0.3076 0.6024
C35 C 0.04678(14) 0.6170(4) 0.58979(16)
C36 C 0.06717(14) 0.7477(4) 0.60318(16)
C37 C 0.17059(15) 0.5701(4) 0.50291(17)
C38 C 0.14970(15) 0.5809(4) 0.45098(16)
H31 H 0.1203 0.5815 0.4378
C39 C 0.17203(15) 0.5909(5) 0.41827(16)
C40 C 0.21560(16) 0.5912(6) 0.43777(19)
H32 H 0.2309 0.6009 0.4163
C41 C 0.23661(17) 0.5771(7) 0.4894(2)
H33 H 0.2661 0.5757 0.5024
C42 C 0.21459(16) 0.5650(6) 0.52189(19)
H34 H 0.2291 0.5534 0.5565
C43 C 0.14566(16) 0.5675(4) 0.53835(17)
C44 C 0.17730(13) 0.4056(4) 0.23838(17)
C45 C 0.21268(13) 0.3513(4) 0.28281(16)
C46 C 0.24962(13) 0.3091(4) 0.27636(16)
H35 H 0.2523 0.3185 0.2449
C47 C 0.20902(14) 0.3403(4) 0.32965(17)
H36 H 0.1847 0.3716 0.3343
C48 C 0.24175(14) 0.2821(5) 0.37034(17)
H37 H 0.2390 0.2723 0.4018
C49 C 0.32164(13) 0.2081(4) 0.30797(17)
C50 C 0.28254(12) 0.2531(4) 0.31626(15)
C51 C 0.27816(14) 0.2395(5) 0.36319(16)
H38 H 0.3000 0.2012 0.3901
C52 C 0.14832(16) 0.5991(5) 0.36143(17)
Zn1C Zn 0.365175(15) 0.15428(5) 0.237516(19)
Zn2E Zn 0.136960(16) 0.46003(5) 0.132530(19)
Zn2F Zn 0.363040(16) -0.03997(5) 0.367470(19)
O4E O 0.18260(9) 0.5955(3) 0.69639(11)
O6F O 0.14679(9) 0.3326(3) 0.65491(11)
O7C O 0.17916(9) 0.7142(3) 0.23676(12)
O1 O 0.2287(2) 0.1027(9) -0.1552(3)
H1 H 0.2386 0.0363 -0.1351
H2 H 0.2072 0.0739 -0.1795
O10 O 0.2698(5) 0.334(2) -0.1535(10)
H39 H 0.2593 0.3949 -0.1761
H40 H 0.2825 0.2765 -0.1654
loop_
_geom_bond_atom_site_label_1
_geom_bond_atom_site_label_2
_geom_bond_site_symmetry_1
_geom_bond_site_symmetry_2
Zn1 O5 1_555 1_555
Zn2 O2 1_555 1_555
O1 H1 1_555 1_555
H2 O1 1_555 1_555
O2 C43 1_555 1_555
O3 C43 1_555 1_555
O4 C44 1_555 1_555
O5 C44 1_555 1_555
O6 C49 1_555 1_555
O7 C49 1_555 1_555
O8 C52 1_555 1_555
O9 Zn1 1_555 1_555
N1 Zn1 1_555 1_555
N2 Zn1 1_555 1_555
N3 C5 1_555 1_555
N4 C11 1_555 1_555
N5 Zn2 1_555 1_555
N6 Zn2 1_555 1_555
N7 C23 1_555 1_555
N8 C29 1_555 1_555
C1 N1 1_555 1_555
H3 C1 1_555 1_555
C2 C1 1_555 1_555
H4 C2 1_555 1_555
C3 C2 1_555 1_555
H5 C3 1_555 1_555
C4 C3 1_555 1_555
C5 C4 1_555 1_555
C6 N3 1_555 1_555
C7 C6 1_555 1_555
H6 C7 1_555 1_555
H7 C7 1_555 1_555
C8 C7 1_555 1_555
H8 C8 1_555 1_555
H9 C8 1_555 1_555
C9 C8 1_555 1_555
H10 C9 1_555 1_555
H11 C9 1_555 1_555
C10 C9 1_555 1_555
H12 C10 1_555 1_555
H13 C10 1_555 1_555
C11 C6 1_555 1_555
C12 N4 1_555 1_555
C13 C12 1_555 1_555
C14 C13 1_555 1_555
H14 C14 1_555 1_555
C15 C14 1_555 1_555
H15 C15 1_555 1_555
C16 N2 1_555 1_555
H16 C16 1_555 1_555
C17 N2 1_555 1_555
C18 N1 1_555 1_555
C19 N5 1_555 1_555
H17 C19 1_555 1_555
C20 C19 1_555 1_555
H18 C20 1_555 1_555
C21 C20 1_555 1_555
H19 C21 1_555 1_555
C22 C21 1_555 1_555
C23 C22 1_555 1_555
C24 N7 1_555 1_555
C25 C24 1_555 1_555
H20 C25 1_555 1_555
H21 C25 1_555 1_555
C26 C25 1_555 1_555
H22 C26 1_555 1_555
H23 C26 1_555 1_555
C27 C26 1_555 1_555
H24 C27 1_555 1_555
H25 C27 1_555 1_555
C28 C27 1_555 1_555
H26 C28 1_555 1_555
H27 C28 1_555 1_555
C29 C24 1_555 1_555
C30 N8 1_555 1_555
C31 C30 1_555 1_555
C32 C31 1_555 1_555
H28 C32 1_555 1_555
C33 C32 1_555 1_555
H29 C33 1_555 1_555
C34 N6 1_555 1_555
H30 C34 1_555 1_555
C35 N6 1_555 1_555
C36 N5 1_555 1_555
C37 C38 1_555 1_555
C38 H31 1_555 1_555
C39 C38 1_555 1_555
C40 C39 1_555 1_555
H32 C40 1_555 1_555
C41 C40 1_555 1_555
H33 C41 1_555 1_555
C42 C37 1_555 1_555
H34 C42 1_555 1_555
C43 C37 1_555 1_555
C44 C45 1_555 1_555
C45 C46 1_555 1_555
C46 H35 1_555 1_555
C47 C45 1_555 1_555
H36 C47 1_555 1_555
C48 C47 1_555 1_555
H37 C48 1_555 1_555
C49 C50 1_555 1_555
C50 C46 1_555 1_555
C51 C48 1_555 1_555
H38 C51 1_555 1_555
C52 O9 1_555 1_555
O10 H39 1_555 1_555
H40 O10 1_555 1_555
Zn1C O7 1_555 1_555
Zn2E O4 1_555 1_555
Zn2F O6 1_555 1_555
O4E Zn2 1_555 1_555
O6F Zn2 1_555 1_555
O7C Zn1 1_555 1_555
C4 C18 1_555 1_555
C5 C12 1_555 1_555
C10 C11 1_555 1_555
C13 C17 1_555 1_555
C15 C16 1_555 1_555
C17 C18 1_555 1_555
C22 C36 1_555 1_555
C23 C30 1_555 1_555
C28 C29 1_555 1_555
C31 C35 1_555 1_555
C33 C34 1_555 1_555
C35 C36 1_555 1_555
C39 C52 1_555 1_555
C41 C42 1_555 1_555
C50 C51 1_555 1_555

#END
