
#######################################################################
#
#                 Cambridge Crystallographic Data Centre
#                                CCDC 
#
#######################################################################
#
# If this CIF has been generated from an entry in the Cambridge 
# Structural Database, then it will include bibliographic, chemical, 
# crystal, experimental, refinement or atomic coordinate data resulting 
# from the CCDC's data processing and validation procedures.
#
#######################################################################

data_XUGCEI
_symmetry_cell_setting           monoclinic
_symmetry_space_group_name_H-M   'C 2/c'
_symmetry_Int_Tables_number      15
_space_group_name_Hall           '-C 2yn'
loop_
_symmetry_equiv_pos_site_id
_symmetry_equiv_pos_as_xyz
1 x,y,z
2 -x,y,1/2-z
3 1/2+x,1/2+y,z
4 1/2-x,1/2+y,1/2-z
5 -x,-y,-z
6 x,-y,1/2+z
7 1/2-x,1/2-y,-z
8 1/2+x,1/2-y,1/2+z
_cell_length_a                   34.764(4)
_cell_length_b                   6.8231(8)
_cell_length_c                   14.1355(17)
_cell_angle_alpha                90
_cell_angle_beta                 98.131(2)
_cell_angle_gamma                90
_cell_volume                     3319.21
loop_
_atom_site_label
_atom_site_type_symbol
_atom_site_fract_x
_atom_site_fract_y
_atom_site_fract_z
Dy1 Dy 0.331693(6) 0.14202(3) 0.775740(16)
O1 O 0.26830(10) 0.0256(5) 0.7080(2)
O2 O 0.20910(10) -0.0881(5) 0.7146(3)
O3 O 0.17192(11) -0.2124(6) 0.8715(3)
O4 O 0.18192(12) -0.1354(5) 1.0261(3)
O5 O 0.36102(11) -0.1077(6) 0.8770(3)
O6 O 0.35831(13) 0.3385(6) 0.9015(3)
O7 O 0.39632(12) 0.1912(8) 0.7522(3)
O8 O 0.34113(14) -0.1236(6) 0.6710(3)
N1 N 0.28543(11) 0.0617(6) 0.8959(3)
N2 N 0.28796(12) 0.0727(7) 0.9893(3)
N3 N 0.25443(13) 0.0080(6) 1.0118(3)
C1 C 0.24116(14) -0.0285(7) 0.7533(4)
C2 C 0.24988(14) -0.0093(7) 0.8599(4)
C3 C 0.22971(13) -0.0463(7) 0.9337(3)
C4 C 0.19097(15) -0.1379(7) 0.9443(4)
H3 H 0.2537(18) -0.016(10) 1.0739(14)
H4 H 0.3848(5) -0.132(7) 0.876(4)
H5 H 0.3500(12) -0.162(7) 0.920(3)
H7 H 0.3438(14) 0.421(9) 0.925(5)
H8 H 0.3825(5) 0.344(9) 0.923(5)
H9 H 0.4051(16) 0.172(10) 0.699(2)
H10 H 0.4134(13) 0.214(13) 0.801(3)
H11 H 0.3639(8) -0.172(9) 0.679(4)
H12 H 0.3290(16) -0.123(10) 0.6145(19)
Dy1C Dy 0.168307(6) -0.35798(3) 0.724260(16)
O2C O 0.29090(10) 0.4119(5) 0.7854(3)
O3C O 0.32808(11) 0.2876(6) 0.6285(3)
O9 O 0.47332(13) 0.2076(9) 0.6541(3)
O10 O 0.41509(13) 0.1814(9) 0.5728(3)
O11 O 0.54086(11) 0.2537(7) 0.6156(3)
O12 O 0.57182(12) 0.3103(7) 0.4920(3)
N4 N 0.44220(13) 0.2319(8) 0.4011(3)
N5 N 0.46523(14) 0.2615(8) 0.3362(3)
N6 N 0.50245(13) 0.2830(8) 0.3675(3)
C5 C 0.44975(17) 0.2022(10) 0.5737(4)
C6 C 0.46622(15) 0.2304(9) 0.4834(4)
C7 C 0.50422(15) 0.2634(8) 0.4630(4)
C8 C 0.54191(16) 0.2765(9) 0.5270(4)
H6 H 0.4583(19) 0.302(9) 0.2760(18)
H13 H 0.4972(6) 0.228(11) 0.651(5)
O13 O 0.09394(13) 0.1398(6) 0.8172(3)
H1 H 0.0802 0.1576 0.8615
H2 H 0.0884 0.2098 0.7650
loop_
_geom_bond_atom_site_label_1
_geom_bond_atom_site_label_2
_geom_bond_site_symmetry_1
_geom_bond_site_symmetry_2
Dy1 O1 1_555 1_555
O1 C1 1_555 1_555
O2 C1 1_555 1_555
O3 C4 1_555 1_555
O4 C4 1_555 1_555
O5 Dy1 1_555 1_555
O6 Dy1 1_555 1_555
O7 Dy1 1_555 1_555
O8 Dy1 1_555 1_555
O9 C5 1_555 1_555
O10 C5 1_555 1_555
O11 C8 1_555 1_555
O12 C8 1_555 1_555
N1 Dy1 1_555 1_555
N2 N1 1_555 1_555
N3 N2 1_555 1_555
N4 N5 1_555 1_555
N5 N6 1_555 1_555
N6 C7 1_555 1_555
C1 C2 1_555 1_555
C2 N1 1_555 1_555
C3 N3 1_555 1_555
C4 C3 1_555 1_555
C5 C6 1_555 1_555
C6 N4 1_555 1_555
C7 C6 1_555 1_555
C8 C7 1_555 1_555
O13 H1 1_555 1_555
H2 O13 1_555 1_555
H3 N3 1_555 1_555
H4 O5 1_555 1_555
H5 O5 1_555 1_555
H6 N5 1_555 1_555
H7 O6 1_555 1_555
H8 O6 1_555 1_555
H9 O7 1_555 1_555
H10 O7 1_555 1_555
H11 O8 1_555 1_555
H12 O8 1_555 1_555
H13 O9 1_555 1_555
Dy1C O2 1_555 1_555
O2C Dy1 1_555 1_555
O3C Dy1 1_555 1_555
O3 Dy1C 1_555 1_555
C2 C3 1_555 1_555

#END
