
#######################################################################
#
#                 Cambridge Crystallographic Data Centre
#                                CCDC 
#
#######################################################################
#
# If this CIF has been generated from an entry in the Cambridge 
# Structural Database, then it will include bibliographic, chemical, 
# crystal, experimental, refinement or atomic coordinate data resulting 
# from the CCDC's data processing and validation procedures.
#
#######################################################################

data_XUGCAF
_symmetry_cell_setting           monoclinic
_symmetry_space_group_name_H-M   'C 2/c'
_symmetry_Int_Tables_number      15
_space_group_name_Hall           '-C 2yn'
loop_
_symmetry_equiv_pos_site_id
_symmetry_equiv_pos_as_xyz
1 x,y,z
2 -x,y,1/2-z
3 1/2+x,1/2+y,z
4 1/2-x,1/2+y,1/2-z
5 -x,-y,-z
6 x,-y,1/2+z
7 1/2-x,1/2-y,-z
8 1/2+x,1/2-y,1/2+z
_cell_length_a                   15.969(3)
_cell_length_b                   18.726(3)
_cell_length_c                   9.484(2)
_cell_angle_alpha                90
_cell_angle_beta                 122.437(8)
_cell_angle_gamma                90
_cell_volume                     2393.58
loop_
_atom_site_label
_atom_site_type_symbol
_atom_site_fract_x
_atom_site_fract_y
_atom_site_fract_z
Eu1 Eu 0.0000 0.435486(13) 0.7500
O1 O 0.07895(13) 0.53515(12) 0.9203(2)
O2 O 0.12162(13) 0.55683(11) 1.1824(2)
O3 O -0.05785(18) 0.31242(18) 0.7766(3)
O4 O -0.1190(2) 0.39370(17) 0.4794(3)
C1 C 0.2471(2) 0.56348(16) 1.1235(3)
C2 C 0.3172(2) 0.58722(17) 1.2798(3)
H1 H 0.2983 0.5983 1.3544
C3 C 0.4153(2) 0.59525(18) 1.3298(3)
H2 H 0.4610 0.6129 1.4358
C4 C 0.44690(19) 0.57685(15) 1.2211(4)
C5 C 0.3743(2) 0.55553(17) 1.0607(3)
H3 H 0.3923 0.5458 0.9842
C6 C 0.2769(2) 0.54848(17) 1.0117(3)
H4 H 0.2302 0.5336 0.9035
C7 C 0.1413(2) 0.55072(17) 1.0702(3)
N1 N -0.2370(3) 0.32274(19) 0.2964(4)
C8 C -0.0854(3) 0.3205(2) 0.3040(4)
H5 H -0.0223 0.3440 0.3674
H6 H -0.1158 0.3316 0.1877
H7 H -0.0761 0.2698 0.3197
C9 C -0.3007(2) 0.3522(3) 0.3580(4)
H8 H -0.2620 0.3845 0.4491
H9 H -0.3236 0.3135 0.3952
H10 H -0.3567 0.3770 0.2686
C10 C -0.1533(3) 0.3464(2) 0.3640(5)
N2 N 0.0000 0.2814(3) 0.7500
O5 O 0.0000 0.2122(3) 0.7500
C11 C -0.2792(3) 0.2704(2) 0.1610(4)
H11 H -0.2292 0.2554 0.1403
H12 H -0.3335 0.2916 0.0616
H13 H -0.3025 0.2298 0.1921
O1A O 0.92105(13) 0.53515(12) 1.5797(2)
O2A O 0.87838(13) 0.55683(11) 1.3176(2)
C1A C 0.7529(2) 0.56348(16) 1.3765(3)
C2A C 0.6828(2) 0.58722(17) 1.2202(3)
H1A H 0.7017 0.5983 1.1456
C3A C 0.5847(2) 0.59525(18) 1.1702(3)
H2A H 0.5390 0.6129 1.0642
C4A C 0.55310(19) 0.57685(15) 1.2789(4)
C5A C 0.6257(2) 0.55553(17) 1.4393(3)
H3A H 0.6077 0.5458 1.5158
C6A C 0.7231(2) 0.54848(17) 1.4883(3)
H4A H 0.7698 0.5336 1.5965
C7A C 0.8587(2) 0.55072(17) 1.4298(3)
O3A O 0.05785(18) 0.31242(18) 0.7234(3)
O4A O 0.1190(2) 0.39370(17) 1.0206(3)
N1A N 0.2370(3) 0.32274(19) 1.2036(4)
C8A C 0.0854(3) 0.3205(2) 1.1960(4)
H5A H 0.0223 0.3440 1.1326
H6A H 0.1158 0.3316 1.3123
H7A H 0.0761 0.2698 1.1803
C9A C 0.3007(2) 0.3522(3) 1.1420(4)
H8A H 0.2620 0.3845 1.0509
H9A H 0.3236 0.3135 1.1048
H10A H 0.3567 0.3770 1.2314
C10A C 0.1533(3) 0.3464(2) 1.1360(5)
C11A C 0.2792(3) 0.2704(2) 1.3390(4)
H11A H 0.2292 0.2554 1.3597
H12A H 0.3335 0.2916 1.4384
H13A H 0.3025 0.2298 1.3079
Eu1_2 Eu 1.0000 0.435486(13) 1.7500
Eu1D Eu 0.0000 0.564514(13) 1.2500
Eu1D_2 Eu 1.0000 0.564514(13) 1.2500
O1A_2 O -0.07895(13) 0.53515(12) 0.5797(2)
O2D O -0.12162(13) 0.44317(11) 0.8176(2)
O2E O 0.12162(13) 0.44317(11) 0.6824(2)
loop_
_geom_bond_atom_site_label_1
_geom_bond_atom_site_label_2
_geom_bond_site_symmetry_1
_geom_bond_site_symmetry_2
Eu1 O1 1_555 1_555
O1 C7 1_555 1_555
O2 C7 1_555 1_555
O3 Eu1 1_555 1_555
O4 Eu1 1_555 1_555
C1 C2 1_555 1_555
C2 H1 1_555 1_555
C3 C2 1_555 1_555
H2 C3 1_555 1_555
C4 C3 1_555 1_555
C5 C4 1_555 1_555
H3 C5 1_555 1_555
C6 C1 1_555 1_555
H4 C6 1_555 1_555
C7 C1 1_555 1_555
N1 C9 1_555 1_555
C8 H5 1_555 1_555
H6 C8 1_555 1_555
H7 C8 1_555 1_555
C9 H8 1_555 1_555
H9 C9 1_555 1_555
H10 C9 1_555 1_555
C10 O4 1_555 1_555
N2 O3 1_555 1_555
O5 N2 1_555 1_555
C11 N1 1_555 1_555
H11 C11 1_555 1_555
H12 C11 1_555 1_555
H13 C11 1_555 1_555
O1A C7A 1_555 1_555
O2A C7A 1_555 1_555
C1A C2A 1_555 1_555
C2A H1A 1_555 1_555
C3A C2A 1_555 1_555
H2A C3A 1_555 1_555
C4A C4 1_555 1_555
C5A C4A 1_555 1_555
H3A C5A 1_555 1_555
C6A C1A 1_555 1_555
H4A C6A 1_555 1_555
C7A C1A 1_555 1_555
O3A Eu1 1_555 1_555
O4A Eu1 1_555 1_555
N1A C9A 1_555 1_555
C8A H5A 1_555 1_555
H6A C8A 1_555 1_555
H7A C8A 1_555 1_555
C9A H8A 1_555 1_555
H9A C9A 1_555 1_555
H10A C9A 1_555 1_555
C10A O4A 1_555 1_555
C11A N1A 1_555 1_555
H11A C11A 1_555 1_555
H12A C11A 1_555 1_555
H13A C11A 1_555 1_555
Eu1_2 O1A 1_555 1_555
Eu1D O2 1_555 1_555
Eu1D_2 O2A 1_555 1_555
O1A_2 Eu1 1_555 1_555
O2D Eu1 1_555 1_555
O2E Eu1 1_555 1_555
C5 C6 1_555 1_555
N1 C10 1_555 1_555
C8 C10 1_555 1_555
N2 O3A 1_555 1_555
C3A C4A 1_555 1_555
C5A C6A 1_555 1_555
N1A C10A 1_555 1_555
C8A C10A 1_555 1_555

#END
