
#######################################################################
#
#                 Cambridge Crystallographic Data Centre
#                                CCDC 
#
#######################################################################
#
# If this CIF has been generated from an entry in the Cambridge 
# Structural Database, then it will include bibliographic, chemical, 
# crystal, experimental, refinement or atomic coordinate data resulting 
# from the CCDC's data processing and validation procedures.
#
#######################################################################

data_XUGCAE
_symmetry_cell_setting           monoclinic
_symmetry_space_group_name_H-M   'P 21/c'
_symmetry_Int_Tables_number      14
_space_group_name_Hall           '-P 2ybc'
loop_
_symmetry_equiv_pos_site_id
_symmetry_equiv_pos_as_xyz
1 x,y,z
2 -x,1/2+y,1/2-z
3 -x,-y,-z
4 x,1/2-y,1/2+z
_cell_length_a                   16.318(2)
_cell_length_b                   6.7709(8)
_cell_length_c                   14.5338(18)
_cell_angle_alpha                90
_cell_angle_beta                 101.982(2)
_cell_angle_gamma                90
_cell_volume                     1570.82
loop_
_atom_site_label
_atom_site_type_symbol
_atom_site_fract_x
_atom_site_fract_y
_atom_site_fract_z
Eu1 Eu 0.320102(12) 0.36172(3) 0.206984(17)
O1 O 0.3229(2) 0.5209(5) 0.0654(3)
O2 O 0.3308(2) 0.6613(5) -0.0715(3)
O3 O 0.4072(2) 0.6455(5) 0.2517(3)
O4 O 0.53529(19) 0.7609(5) 0.3075(3)
O5 O 0.1758(2) 0.2527(6) 0.1628(3)
O6 O 0.0861(2) 0.2752(7) 0.0255(3)
O7 O -0.0678(3) 0.2278(7) -0.0373(3)
H1 H -0.0191 0.2601 -0.0164
O8 O -0.1787(3) 0.1390(6) 0.0169(4)
O9 O 0.2236(3) 0.6676(6) 0.1829(4)
H2 H 0.1856 0.6555 0.2146
H3 H 0.2091 0.7137 0.1275
O10 O 0.2652(2) 0.4420(8) 0.3450(3)
H4 H 0.2328 0.5406 0.3440
H5 H 0.2784 0.3720 0.3945
O11 O 0.3142(2) 0.0291(5) 0.2644(3)
H6 H 0.2710 -0.0104 0.2831
H7 H 0.3554 -0.0487 0.2659
O12 O 0.3102(2) 0.1084(5) 0.0780(3)
H8 H 0.2750 0.1236 0.0264
H9 H 0.3420 0.0078 0.0861
N1 N 0.4966(3) 0.7521(6) -0.0037(3)
H10 H 0.4948 0.7744 -0.0650
N2 N 0.5720(3) 0.8091(7) 0.0454(3)
N3 N 0.5698(2) 0.7961(6) 0.1344(3)
N4 N 0.0487(3) 0.1324(6) 0.2486(4)
H11 H 0.0961 0.1131 0.2921
N5 N -0.0238(3) 0.0947(8) 0.2760(4)
N6 N -0.0841(3) 0.1105(7) 0.2017(5)
C1 C 0.3587(3) 0.6216(6) 0.0130(4)
C2 C 0.4448(3) 0.7000(7) 0.0547(4)
C3 C 0.4926(3) 0.7278(7) 0.1433(3)
C4 C 0.4764(3) 0.7084(7) 0.2405(4)
C5 C 0.1048(3) 0.2377(8) 0.1115(4)
C6 C 0.0359(3) 0.1736(7) 0.1572(4)
C7 C -0.0504(3) 0.1561(7) 0.1255(5)
C8 C -0.1030(3) 0.1753(8) 0.0319(5)
Eu1A Eu 0.679898(12) 0.86172(3) 0.293016(17)
O4A O 0.46471(19) 0.2609(5) 0.1925(3)
N3A N 0.4302(2) 0.2961(6) 0.3656(3)
O13 O 0.1782(3) 0.1038(7) 0.4000(3)
H12 H 0.1623 0.1207 0.4512
H13 H 0.2124 0.0116 0.3968
loop_
_geom_bond_atom_site_label_1
_geom_bond_atom_site_label_2
_geom_bond_site_symmetry_1
_geom_bond_site_symmetry_2
Eu1 O1 1_555 1_555
O1 C1 1_555 1_555
O2 C1 1_555 1_555
O3 Eu1 1_555 1_555
O4 C4 1_555 1_555
O5 Eu1 1_555 1_555
O6 C5 1_555 1_555
O7 H1 1_555 1_555
O8 C8 1_555 1_555
O9 Eu1 1_555 1_555
H2 O9 1_555 1_555
H3 O9 1_555 1_555
O10 Eu1 1_555 1_555
H4 O10 1_555 1_555
H5 O10 1_555 1_555
O11 Eu1 1_555 1_555
H6 O11 1_555 1_555
H7 O11 1_555 1_555
O12 Eu1 1_555 1_555
H8 O12 1_555 1_555
H9 O12 1_555 1_555
N1 H10 1_555 1_555
N2 N1 1_555 1_555
N3 N2 1_555 1_555
N4 H11 1_555 1_555
N5 N4 1_555 1_555
N6 N5 1_555 1_555
C1 C2 1_555 1_555
C2 N1 1_555 1_555
C3 N3 1_555 1_555
C4 O3 1_555 1_555
C5 O5 1_555 1_555
C6 N4 1_555 1_555
C7 N6 1_555 1_555
C8 O7 1_555 1_555
O13 H12 1_555 1_555
H13 O13 1_555 1_555
Eu1A O4 1_555 1_555
O4A Eu1 1_555 1_555
N3A Eu1 1_555 1_555
N3 Eu1A 1_555 1_555
C2 C3 1_555 1_555
C3 C4 1_555 1_555
C5 C6 1_555 1_555
C6 C7 1_555 1_555
C7 C8 1_555 1_555

#END
