
#######################################################################
#
#                 Cambridge Crystallographic Data Centre
#                                CCDC 
#
#######################################################################
#
# If this CIF has been generated from an entry in the Cambridge 
# Structural Database, then it will include bibliographic, chemical, 
# crystal, experimental, refinement or atomic coordinate data resulting 
# from the CCDC's data processing and validation procedures.
#
#######################################################################

data_XUGDOU
_symmetry_cell_setting           monoclinic
_symmetry_space_group_name_H-M   'P 21/c'
_symmetry_Int_Tables_number      14
_space_group_name_Hall           '-P 2ybc'
loop_
_symmetry_equiv_pos_site_id
_symmetry_equiv_pos_as_xyz
1 x,y,z
2 -x,1/2+y,1/2-z
3 -x,-y,-z
4 x,1/2-y,1/2+z
_cell_length_a                   16.538(7)
_cell_length_b                   9.904(4)
_cell_length_c                   21.902(9)
_cell_angle_alpha                90
_cell_angle_beta                 109.804(5)
_cell_angle_gamma                90
_cell_volume                     3375.21
loop_
_atom_site_label
_atom_site_type_symbol
_atom_site_fract_x
_atom_site_fract_y
_atom_site_fract_z
N1 N 0.3686(11) 0.0386(17) 0.0849(6)
N2 N 0.4039(12) 0.1697(16) 0.1018(8)
N3 N 0.4095(13) 0.1958(17) 0.1669(8)
C1 C 0.3776(13) 0.081(2) 0.1902(6)
N4 N 0.3524(11) -0.0163(15) 0.1395(8)
C2 C 0.2435(14) 0.274(2) 0.4254(10)
C3 C 0.3161(15) 0.179(2) 0.4533(12)
H1 H 0.3217 0.1616 0.4982
H2 H 0.3015 0.0935 0.4302
C4 C 0.4008(15) 0.223(2) 0.4514(11)
C5 C 0.2935(16) 0.004(3) 0.2579(11)
C6 C 0.3883(17) 0.007(3) 0.2593(12)
H3 H 0.4114 -0.0839 0.2610
H4 H 0.4248 0.0584 0.2959
C7 C 0.0213(12) -0.2915(19) 0.3491(9)
C8 C 0.0338(12) -0.297(2) 0.4207(9)
H5 H 0.0385 -0.2058 0.4377
H6 H 0.0871 -0.3437 0.4433
C9 C -0.0399(12) -0.3688(18) 0.4335(8)
C10 C -0.1152(13) 0.0591(19) 0.4265(9)
C11 C -0.1700(13) -0.0010(18) 0.4607(9)
H7 H -0.1373 -0.0687 0.4911
H8 H -0.2188 -0.0456 0.4294
C12 C -0.2025(11) 0.1050(19) 0.4973(8)
Cd1 Cd 0.10173(9) 0.02975(13) 0.35320(6)
Cd2 Cd 0.36425(9) 0.53919(15) 0.48661(6)
Cd3 Cd -0.02903(9) 0.38936(13) 0.33565(6)
Cd4 Cd -0.24119(10) 0.32973(18) 0.37995(7)
N5 N 0.1606(11) 0.2375(18) 0.3946(8)
N6 N 0.1197(11) 0.3533(16) 0.3801(8)
N7 N 0.1702(11) 0.4551(19) 0.4003(8)
N8 N 0.2496(11) 0.4089(18) 0.4300(8)
N9 N 0.4373(12) 0.3422(19) 0.4717(9)
N10 N 0.5173(11) 0.3312(19) 0.4655(9)
N11 N 0.5250(14) 0.205(2) 0.4434(10)
N12 N 0.4532(13) 0.146(2) 0.4345(10)
N13 N 0.1887(11) -0.0035(18) 0.2898(8)
N14 N 0.1736(11) -0.0789(18) 0.2393(8)
N15 N 0.2388(12) -0.076(2) 0.2184(8)
N16 N 0.2677(13) 0.049(2) 0.3052(9)
N17 N -0.0151(10) 0.0806(15) 0.3873(7)
N18 N -0.0622(10) 0.1869(16) 0.3712(8)
N19 N -0.1261(10) 0.1780(15) 0.3954(7)
N20 N -0.0446(10) -0.0021(15) 0.4222(7)
N21 N -0.1948(10) 0.0903(16) 0.5593(7)
N22 N -0.2337(10) 0.2051(16) 0.5731(7)
N23 N -0.2649(10) 0.2743(16) 0.5205(7)
N24 N -0.2472(10) 0.2146(15) 0.4708(7)
N25 N -0.0125(10) -0.3438(15) 0.2497(7)
N26 N -0.0071(10) -0.3910(16) 0.3078(7)
N27 N 0.0130(10) -0.2188(15) 0.2559(7)
N28 N 0.0349(10) -0.1815(15) 0.3182(7)
N29 N -0.0817(11) -0.3128(17) 0.4689(8)
N30 N -0.1452(12) -0.4057(18) 0.4653(8)
N31 N -0.1358(11) -0.5108(16) 0.4312(8)
N32 N -0.0700(10) -0.4918(15) 0.4107(7)
O1 O 0.3760(12) 0.6171(19) 0.3884(8)
H9 H 0.3955 0.6973 0.3928
H10 H 0.3271 0.6162 0.3586
O2 O -0.3332(15) 0.165(3) 0.3154(11)
H11 H -0.3063 0.1202 0.2953
H12 H -0.3755 0.2039 0.2874
N1C N 0.3686(11) 0.4614(17) 0.5849(6)
N4A N -0.3524(11) 0.4837(15) 0.3605(8)
Cd1A Cd -0.10173(9) -0.47025(13) 0.14680(6)
Cd1B Cd -0.10173(9) -0.02975(13) 0.64680(6)
Cd2B Cd -0.36425(9) 0.46081(15) 0.51339(6)
Cd2B_2 Cd 0.63575(9) 0.46081(15) 0.51339(6)
Cd2C Cd 0.36425(9) -0.03919(15) -0.01339(6)
Cd3_2 Cd -0.02903(9) -0.61064(13) 0.33565(6)
Cd3A Cd 0.02903(9) -0.11064(13) 0.16435(6)
Cd4_2 Cd -0.24119(10) -0.67027(18) 0.37995(7)
Cd4A Cd 0.24119(10) -0.17027(18) 0.12005(7)
N10B N 0.4827(11) 0.6688(19) 0.5345(9)
N14A N -0.1736(11) 0.4211(18) 0.2607(8)
N15A N -0.2388(12) 0.424(2) 0.2816(8)
N21B N 0.1948(10) -0.0903(16) 0.4407(7)
N23B N 0.2649(10) 0.7257(16) 0.4795(7)
N25A N 0.0125(10) 0.1562(15) 0.2503(7)
N26_2 N -0.0071(10) 0.6090(16) 0.3078(7)
N27A N -0.0130(10) 0.2812(15) 0.2441(7)
N31_2 N -0.1358(11) 0.4892(16) 0.4312(8)
N32_2 N -0.0700(10) 0.5082(15) 0.4107(7)
O3 O 0.5539(17) 0.366(2) 0.1079(14)
H13 H 0.5059 0.3770 0.1134
H14 H 0.5674 0.4403 0.0945
O4 O 0.391(2) 0.497(3) 0.1121(17)
H15 H 0.4164 0.5503 0.0942
H16 H 0.3709 0.5429 0.1363
O5 O 0.2271(16) 0.604(3) 0.2820(11)
H17 H 0.1921 0.6650 0.2839
H18 H 0.2030 0.5268 0.2783
loop_
_geom_bond_atom_site_label_1
_geom_bond_atom_site_label_2
_geom_bond_site_symmetry_1
_geom_bond_site_symmetry_2
N1 N2 1_555 1_555
N2 N3 1_555 1_555
N3 C1 1_555 1_555
C1 N4 1_555 1_555
N4 N1 1_555 1_555
C2 C3 1_555 1_555
C3 H1 1_555 1_555
H2 C3 1_555 1_555
C4 C3 1_555 1_555
C5 C6 1_555 1_555
C6 C1 1_555 1_555
H3 C6 1_555 1_555
H4 C6 1_555 1_555
C7 C8 1_555 1_555
C8 H5 1_555 1_555
H6 C8 1_555 1_555
C9 C8 1_555 1_555
C10 C11 1_555 1_555
C11 H7 1_555 1_555
H8 C11 1_555 1_555
C12 C11 1_555 1_555
Cd1 N5 1_555 1_555
Cd2 N8 1_555 1_555
Cd3 N6 1_555 1_555
Cd4 N19 1_555 1_555
N5 C2 1_555 1_555
N6 N5 1_555 1_555
N7 N6 1_555 1_555
N8 C2 1_555 1_555
N9 C4 1_555 1_555
N10 N9 1_555 1_555
N11 N10 1_555 1_555
N12 C4 1_555 1_555
N13 Cd1 1_555 1_555
N14 N13 1_555 1_555
N15 C5 1_555 1_555
N16 C5 1_555 1_555
N17 Cd1 1_555 1_555
N18 Cd3 1_555 1_555
N19 C10 1_555 1_555
N20 C10 1_555 1_555
N21 C12 1_555 1_555
N22 N21 1_555 1_555
N23 N22 1_555 1_555
N24 C12 1_555 1_555
N25 N26 1_555 1_555
N26 C7 1_555 1_555
N27 N25 1_555 1_555
N28 C7 1_555 1_555
N29 C9 1_555 1_555
N30 N29 1_555 1_555
N31 N30 1_555 1_555
N32 C9 1_555 1_555
O1 Cd2 1_555 1_555
H9 O1 1_555 1_555
H10 O1 1_555 1_555
O2 Cd4 1_555 1_555
H11 O2 1_555 1_555
H12 O2 1_555 1_555
O3 H13 1_555 1_555
H14 O3 1_555 1_555
O4 H15 1_555 1_555
H16 O4 1_555 1_555
O5 H17 1_555 1_555
H18 O5 1_555 1_555
N1C Cd2 1_555 1_555
N4A Cd4 1_555 1_555
Cd1A N25 1_555 1_555
Cd1B N21 1_555 1_555
Cd2B N23 1_555 1_555
Cd2B_2 N10 1_555 1_555
Cd2C N1 1_555 1_555
Cd3_2 N26 1_555 1_555
Cd3A N14 1_555 1_555
Cd4_2 N31 1_555 1_555
Cd4A N4 1_555 1_555
N10B Cd2 1_555 1_555
N14A Cd3 1_555 1_555
N15A Cd4 1_555 1_555
N21B Cd1 1_555 1_555
N23B Cd2 1_555 1_555
N25A Cd1 1_555 1_555
N26_2 Cd3 1_555 1_555
N27A Cd3 1_555 1_555
N31_2 Cd4 1_555 1_555
N32_2 Cd3 1_555 1_555
Cd1 N28 1_555 1_555
Cd2 N9 1_555 1_555
Cd4 N24 1_555 1_555
N7 N8 1_555 1_555
N11 N12 1_555 1_555
N13 N16 1_555 1_555
N14 N15 1_555 1_555
N15 Cd4A 1_555 1_555
N17 N18 1_555 1_555
N17 N20 1_555 1_555
N18 N19 1_555 1_555
N23 N24 1_555 1_555
N27 N28 1_555 1_555
N27 Cd3A 1_555 1_555
N31 N32 1_555 1_555
N32 Cd3_2 1_555 1_555
N14A N15A 1_555 1_555
N25A N27A 1_555 1_555
N31_2 N32_2 1_555 1_555

#END
