
#######################################################################
#
#                 Cambridge Crystallographic Data Centre
#                                CCDC 
#
#######################################################################
#
# If this CIF has been generated from an entry in the Cambridge 
# Structural Database, then it will include bibliographic, chemical, 
# crystal, experimental, refinement or atomic coordinate data resulting 
# from the CCDC's data processing and validation procedures.
#
#######################################################################

data_XUGDAF
_symmetry_cell_setting           triclinic
_symmetry_space_group_name_H-M   'P -1'
_symmetry_Int_Tables_number      2
_space_group_name_Hall           '-P 1'
loop_
_symmetry_equiv_pos_site_id
_symmetry_equiv_pos_as_xyz
1 x,y,z
2 -x,-y,-z
_cell_length_a                   6.43560(10)
_cell_length_b                   8.4148(2)
_cell_length_c                   9.8218(2)
_cell_angle_alpha                66.1020(10)
_cell_angle_beta                 79.576(2)
_cell_angle_gamma                81.150(2)
_cell_volume                     476.344
loop_
_atom_site_label
_atom_site_type_symbol
_atom_site_fract_x
_atom_site_fract_y
_atom_site_fract_z
Zn1 Zn 0.21136(3) 0.21798(3) 0.79009(2)
O1 O 0.2658(2) 0.22912(16) 0.57349(14)
O2 O 0.3177(2) 0.41266(17) 0.33322(14)
O3 O 0.1240(2) 0.80039(18) 0.17917(14)
O4 O 0.46819(19) 0.78616(18) 0.17993(14)
O5 O 0.1339(2) 0.2386(2) 0.99883(15)
H1 H 0.021(2) 0.194(3) 1.043(2)
H2 H 0.229(3) 0.226(3) 1.051(2)
O6 O 0.2492(2) -0.05336(17) 0.87628(15)
H3 H 0.369(2) -0.081(3) 0.836(2)
H4 H 0.236(3) -0.085(3) 0.9698(11)
N1 N 0.1979(2) 0.49411(19) 0.66493(16)
N2 N 0.2181(2) 0.8371(2) 0.46315(18)
C1 C 0.2776(3) 0.3786(2) 0.46934(19)
C2 C 0.2392(2) 0.5329(2) 0.51694(19)
C3 C 0.1665(3) 0.6248(3) 0.7125(2)
H8 H 0.1360 0.6007 0.8148
C4 C 0.1788(3) 0.7958(3) 0.6108(2)
H9 H 0.1590 0.8845 0.6467
C5 C 0.2466(3) 0.7052(2) 0.41549(19)
C6 C 0.2847(3) 0.7634(2) 0.24620(19)
Zn1A Zn -0.21136(3) 0.78202(3) 0.20991(2)
Zn1A_2 Zn 0.78864(3) 0.78202(3) 0.20991(2)
Zn1_2 Zn -0.78864(3) 0.21798(3) 0.79009(2)
O1A O -0.2658(2) 0.77088(16) 0.42651(14)
O2A O -0.3177(2) 0.58734(17) 0.66678(14)
O3A O -0.1240(2) 0.19961(18) 0.82083(14)
O4A O -0.46819(19) 0.21384(18) 0.82007(14)
O4A_2 O 0.53181(19) 0.21384(18) 0.82007(14)
O4_2 O -0.53181(19) 0.78616(18) 0.17993(14)
O5A O -0.1339(2) 0.7614(2) 0.00117(15)
H1A H -0.021(2) 0.806(3) -0.043(2)
H2A H -0.229(3) 0.774(3) -0.051(2)
O6A O -0.2492(2) 1.05336(17) 0.12372(15)
H3A H -0.369(2) 1.081(3) 0.164(2)
H4A H -0.236(3) 1.085(3) 0.0302(11)
N1A N -0.1979(2) 0.50589(19) 0.33507(16)
N2A N -0.2181(2) 0.1629(2) 0.53685(18)
C1A C -0.2776(3) 0.6214(2) 0.53066(19)
C2A C -0.2392(2) 0.4671(2) 0.48306(19)
C3A C -0.1665(3) 0.3752(3) 0.2875(2)
H8A H -0.1360 0.3993 0.1852
C4A C -0.1788(3) 0.2042(3) 0.3892(2)
H9A H -0.1590 0.1155 0.3533
C5A C -0.2466(3) 0.2948(2) 0.58451(19)
C6A C -0.2847(3) 0.2366(2) 0.75380(19)
O7 O 0.3644(2) 0.15289(18) 0.23509(16)
H5 H 0.351(4) 0.2386(19) 0.260(3)
H6 H 0.326(4) 0.0588(17) 0.301(2)
O8 O 0.5000 0.5000 1.0000
H7 H 0.370(10) 0.53(4) 1.02(3)
H7A H 0.630(10) 0.47(4) 0.98(3)
loop_
_geom_bond_atom_site_label_1
_geom_bond_atom_site_label_2
_geom_bond_site_symmetry_1
_geom_bond_site_symmetry_2
Zn1 O1 1_555 1_555
O1 C1 1_555 1_555
O2 C1 1_555 1_555
O3 C6 1_555 1_555
O4 C6 1_555 1_555
O5 Zn1 1_555 1_555
H1 O5 1_555 1_555
H2 O5 1_555 1_555
O6 Zn1 1_555 1_555
H3 O6 1_555 1_555
H4 O6 1_555 1_555
O7 H5 1_555 1_555
H6 O7 1_555 1_555
O8 H7 1_555 1_555
N1 Zn1 1_555 1_555
N2 C4 1_555 1_555
C1 C2 1_555 1_555
C2 N1 1_555 1_555
C3 N1 1_555 1_555
H8 C3 1_555 1_555
C4 C3 1_555 1_555
H9 C4 1_555 1_555
C5 N2 1_555 1_555
C6 C5 1_555 1_555
Zn1A O3 1_555 1_555
Zn1A_2 O4 1_555 1_555
Zn1_2 O4A 1_555 1_555
O1A Zn1A 1_555 1_555
O2A C1A 1_555 1_555
O3A Zn1 1_555 1_555
O4A C6A 1_555 1_555
O4A_2 Zn1 1_555 1_555
O4_2 Zn1A 1_555 1_555
O5A Zn1A 1_555 1_555
H1A O5A 1_555 1_555
H2A O5A 1_555 1_555
O6A Zn1A 1_555 1_555
H3A O6A 1_555 1_555
H4A O6A 1_555 1_555
H7A O8 1_555 1_555
N1A Zn1A 1_555 1_555
N2A C4A 1_555 1_555
C1A O1A 1_555 1_555
C2A N1A 1_555 1_555
C3A N1A 1_555 1_555
H8A C3A 1_555 1_555
C4A C3A 1_555 1_555
H9A C4A 1_555 1_555
C5A N2A 1_555 1_555
C6A O3A 1_555 1_555
C2 C5 1_555 1_555
C1A C2A 1_555 1_555
C2A C5A 1_555 1_555
C5A C6A 1_555 1_555

#END
