
#######################################################################
#
#                 Cambridge Crystallographic Data Centre
#                                CCDC 
#
#######################################################################
#
# If this CIF has been generated from an entry in the Cambridge 
# Structural Database, then it will include bibliographic, chemical, 
# crystal, experimental, refinement or atomic coordinate data resulting 
# from the CCDC's data processing and validation procedures.
#
#######################################################################

data_XUGDUA
_symmetry_cell_setting           monoclinic
_symmetry_space_group_name_H-M   'P 21/n'
_symmetry_Int_Tables_number      14
_space_group_name_Hall           '-P 2yn'
loop_
_symmetry_equiv_pos_site_id
_symmetry_equiv_pos_as_xyz
1 x,y,z
2 1/2-x,1/2+y,1/2-z
3 -x,-y,-z
4 1/2+x,1/2-y,1/2+z
_cell_length_a                   11.1784(7)
_cell_length_b                   10.0778(7)
_cell_length_c                   12.7696(12)
_cell_angle_alpha                90
_cell_angle_beta                 90.8540(10)
_cell_angle_gamma                90
_cell_volume                     1438.38
loop_
_atom_site_label
_atom_site_type_symbol
_atom_site_fract_x
_atom_site_fract_y
_atom_site_fract_z
C1 C 0.3354(3) 0.3131(3) 1.1595(2)
C2 C 0.3646(3) 0.2234(3) 1.2493(2)
H1 H 0.4342 0.2587 1.2861
H2 H 0.2984 0.2252 1.2975
C3 C 0.3893(2) 0.0827(3) 1.2216(2)
C4 C 0.2077(2) 0.1866(2) 0.7020(2)
C5 C 0.1971(2) 0.2519(3) 0.5962(2)
H3 H 0.1418 0.2021 0.5521
H4 H 0.1656 0.3410 0.6041
C6 C 0.3171(2) 0.2580(2) 0.54519(19)
Cd1 Cd 0.177024(18) 0.082579(18) 1.040242(15)
Cd2 Cd 0.125650(17) 0.436616(17) 0.885523(15)
N1 N 0.2622(2) 0.2839(2) 1.07973(19)
N2 N 0.2584(2) 0.3952(2) 1.02128(19)
N3 N 0.3256(3) 0.4872(2) 1.0646(2)
N4 N 0.3759(3) 0.4366(2) 1.1529(2)
N5 N 0.3335(2) 0.0116(2) 1.14733(19)
N6 N 0.3795(2) -0.1132(2) 1.1549(2)
N7 N 0.4583(2) -0.1161(2) 1.2303(2)
N8 N 0.4674(2) 0.0073(2) 1.27470(19)
N9 N 0.1803(2) 0.2373(2) 0.79558(18)
N10 N 0.2090(2) 0.1392(2) 0.86434(18)
N11 N 0.2509(2) 0.0368(2) 0.81538(19)
N12 N 0.2500(2) 0.0637(2) 0.7132(2)
N13 N 0.36953(19) 0.3669(2) 0.50704(18)
N14 N 0.47639(19) 0.3282(2) 0.47196(17)
N15 N 0.48745(19) 0.1997(2) 0.48780(18)
N16 N 0.38936(19) 0.1530(2) 0.53340(17)
O1 O 0.05837(19) 0.1082(2) 1.18586(16)
H5 H 0.0750 0.0600 1.2354
H6 H 0.0459 0.1844 1.2061
Cd1A Cd 0.322976(18) 0.582579(18) 0.459758(15)
Cd1C Cd 0.677024(18) 0.417421(18) 0.540242(15)
Cd2A Cd 0.374350(17) -0.063384(17) 0.614477(15)
Cd2C Cd 0.625650(17) 0.063384(17) 0.385523(15)
Cd2C_2 Cd 0.625650(17) 0.063384(17) 1.385523(15)
N8C N -0.0326(2) 0.4927(2) 0.77470(19)
N12A N 0.2500(2) 0.5637(2) 0.7868(2)
N13A N 0.13047(19) -0.1331(2) 0.99296(18)
N14C N -0.02361(19) 0.1718(2) 0.97196(17)
N15C N -0.01255(19) 0.3003(2) 0.98780(18)
N16A N 0.11064(19) 0.6530(2) 0.96660(17)
loop_
_geom_bond_atom_site_label_1
_geom_bond_atom_site_label_2
_geom_bond_site_symmetry_1
_geom_bond_site_symmetry_2
C1 C2 1_555 1_555
C2 H1 1_555 1_555
H2 C2 1_555 1_555
C3 C2 1_555 1_555
C4 C5 1_555 1_555
C5 H3 1_555 1_555
H4 C5 1_555 1_555
C6 C5 1_555 1_555
Cd1 N1 1_555 1_555
Cd2 N2 1_555 1_555
N1 C1 1_555 1_555
N2 N1 1_555 1_555
N3 N2 1_555 1_555
N4 C1 1_555 1_555
N5 C3 1_555 1_555
N6 N5 1_555 1_555
N7 N6 1_555 1_555
N8 C3 1_555 1_555
N9 C4 1_555 1_555
N10 Cd1 1_555 1_555
N11 N10 1_555 1_555
N12 C4 1_555 1_555
N13 C6 1_555 1_555
N14 N13 1_555 1_555
N15 N14 1_555 1_555
N16 C6 1_555 1_555
O1 Cd1 1_555 1_555
H5 O1 1_555 1_555
H6 O1 1_555 1_555
Cd1A N13 1_555 1_555
Cd1C N14 1_555 1_555
Cd2A N12 1_555 1_555
Cd2C N15 1_555 1_555
Cd2C_2 N8 1_555 1_555
N8C Cd2 1_555 1_555
N12A Cd2 1_555 1_555
N13A Cd1 1_555 1_555
N14C Cd1 1_555 1_555
N15C Cd2 1_555 1_555
N16A Cd2 1_555 1_555
Cd1 N5 1_555 1_555
Cd2 N9 1_555 1_555
N3 N4 1_555 1_555
N7 N8 1_555 1_555
N9 N10 1_555 1_555
N11 N12 1_555 1_555
N15 N16 1_555 1_555
N16 Cd2A 1_555 1_555
N14C N15C 1_555 1_555

#END
