
#######################################################################
#
#                 Cambridge Crystallographic Data Centre
#                                CCDC 
#
#######################################################################
#
# If this CIF has been generated from an entry in the Cambridge 
# Structural Database, then it will include bibliographic, chemical, 
# crystal, experimental, refinement or atomic coordinate data resulting 
# from the CCDC's data processing and validation procedures.
#
#######################################################################

data_XUGFEK
_symmetry_cell_setting           monoclinic
_symmetry_space_group_name_H-M   'C 2/c'
_symmetry_Int_Tables_number      15
_space_group_name_Hall           '-C 2yn'
loop_
_symmetry_equiv_pos_site_id
_symmetry_equiv_pos_as_xyz
1 x,y,z
2 1/2+x,1/2+y,z
3 x,-y,1/2+z
4 1/2+x,1/2-y,1/2+z
5 -x,-y,-z
6 1/2-x,1/2-y,-z
7 -x,y,1/2-z
8 1/2-x,1/2+y,1/2-z
_cell_length_a                   29.3948(11)
_cell_length_b                   14.4396(7)
_cell_length_c                   10.7455(6)
_cell_angle_alpha                90
_cell_angle_beta                 108.826(4)
_cell_angle_gamma                90
_cell_volume                     4316.92
loop_
_atom_site_label
_atom_site_type_symbol
_atom_site_fract_x
_atom_site_fract_y
_atom_site_fract_z
Cu1 Cu 0.29926(6) -0.43748(10) 0.12524(17)
Cu2 Cu 0.2500 -0.2500 0.0000
S1 S 0.26938(10) 0.00136(19) -0.2953(3)
O1 O 0.2756(3) -0.3190(5) 0.1557(8)
H1 H 0.2767 -0.2978 0.2384
O2 O 0.2613(3) 0.0649(5) -0.4050(7)
O3 O 0.2668(3) -0.0955(5) -0.3261(8)
O4 O 0.3494(3) -0.3748(6) 0.0693(11)
O5 O 0.3138(3) -0.2465(6) -0.0304(9)
N1 N 0.3258(4) -0.5590(6) 0.0851(10)
N2 N 0.2656(4) -0.5230(6) 0.2118(9)
C1 C 0.3568(6) -0.5713(10) 0.0206(18)
H2 H 0.3699 -0.5191 -0.0056
C2 C 0.3704(6) -0.6543(12) -0.009(2)
H3 H 0.3918 -0.6590 -0.0564
C3 C 0.3532(7) -0.7305(12) 0.029(2)
H4 H 0.3640 -0.7885 0.0140
C4 C 0.3198(6) -0.7228(9) 0.0913(16)
H5 H 0.3068 -0.7756 0.1161
C5 C 0.3052(4) -0.6356(8) 0.1171(11)
C6 C 0.2666(5) -0.6192(9) 0.1776(14)
H6 H 0.2357 -0.6367 0.1159
H7 H 0.2725 -0.6571 0.2557
C7 C 0.3295(4) 0.0272(8) -0.1920(11)
C8 C 0.3554(4) 0.0943(9) -0.2249(11)
H8 H 0.3423 0.1281 -0.3019
C9 C 0.4025(4) 0.1127(8) -0.1412(12)
C10 C 0.4306(5) 0.1841(11) -0.1698(16)
H9 H 0.4176 0.2202 -0.2446
C11 C 0.4762(6) 0.2009(15) -0.090(2)
H10 H 0.4951 0.2453 -0.1120
C12 C 0.4942(6) 0.1503(14) 0.027(2)
H11 H 0.5244 0.1647 0.0851
C13 C 0.4685(5) 0.0809(12) 0.0563(18)
H12 H 0.4819 0.0456 0.1317
C14 C 0.4215(5) 0.0619(9) -0.0269(14)
C15 C 0.3936(5) -0.0080(12) 0.0025(16)
H13 H 0.4068 -0.0437 0.0776
C16 C 0.3470(5) -0.0255(9) -0.0770(14)
H14 H 0.3282 -0.0703 -0.0550
C17 C 0.3477(4) -0.3023(9) 0.0070(14)
C18 C 0.3898(5) -0.2798(12) -0.0361(19)
H15 H 0.4187 -0.2819 0.0384
H16 H 0.3859 -0.2189 -0.0738
H17 H 0.3920 -0.3242 -0.1005
O1E O 0.2244(3) -0.1810(5) -0.1557(8)
Cu1E Cu 0.20074(6) -0.06252(10) -0.12524(17)
O2B O 0.2613(3) -0.0649(5) 0.0950(7)
Cu1G Cu 0.20074(6) 0.06252(10) -0.62524(17)
O2G O 0.2387(3) -0.4351(5) -0.0950(7)
N2E N 0.2344(4) 0.0230(6) -0.2118(9)
O4E O 0.1506(3) -0.1252(6) -0.0693(11)
C17E C 0.1523(4) -0.1977(9) -0.0070(14)
O5E O 0.1862(3) -0.2535(6) 0.0304(9)
S1E S 0.23062(10) -0.50136(19) 0.2953(3)
C18E C 0.1102(5) -0.2202(12) 0.0361(19)
H15E H 0.0813 -0.2181 -0.0384
H16E H 0.1141 -0.2811 0.0738
H17E H 0.1080 -0.1758 0.1005
N1E N 0.1742(4) 0.0590(6) -0.0851(10)
C1E C 0.1432(6) 0.0713(10) -0.0206(18)
H2E H 0.1301 0.0191 0.0056
C2E C 0.1296(6) 0.1543(12) 0.009(2)
H3E H 0.1082 0.1590 0.0564
C3E C 0.1468(7) 0.2305(12) -0.029(2)
H4E H 0.1360 0.2885 -0.0140
C4E C 0.1802(6) 0.2228(9) -0.0913(16)
H5E H 0.1932 0.2756 -0.1161
C5E C 0.1948(4) 0.1356(8) -0.1171(11)
C6E C 0.2334(5) 0.1192(9) -0.1776(14)
H6E H 0.2643 0.1367 -0.1159
H7E H 0.2275 0.1571 -0.2557
H1E H 0.2233 -0.2022 -0.2384
O2E O 0.2387(3) -0.5649(5) 0.4050(7)
O3E O 0.2332(3) -0.4045(5) 0.3261(8)
C7E C 0.1705(4) -0.5272(8) 0.1920(11)
Cu1B Cu 0.29926(6) -0.56252(10) 0.62524(17)
C8E C 0.1446(4) -0.5943(9) 0.2249(11)
C16E C 0.1530(5) -0.4745(9) 0.0770(14)
H8E H 0.1577 -0.6281 0.3019
C9E C 0.0975(4) -0.6127(8) 0.1412(12)
C15E C 0.1064(5) -0.4920(12) -0.0025(16)
H14E H 0.1718 -0.4297 0.0550
C10E C 0.0694(5) -0.6841(11) 0.1698(16)
C14E C 0.0785(5) -0.5619(9) 0.0269(14)
H13E H 0.0932 -0.4563 -0.0776
H9E H 0.0824 -0.7202 0.2446
C11E C 0.0238(6) -0.7009(15) 0.090(2)
C13E C 0.0315(5) -0.5809(12) -0.0563(18)
H10E H 0.0049 -0.7453 0.1120
C12E C 0.0058(6) -0.6503(14) -0.027(2)
H12E H 0.0181 -0.5456 -0.1317
H11E H -0.0244 -0.6647 -0.0851
loop_
_geom_bond_atom_site_label_1
_geom_bond_atom_site_label_2
_geom_bond_site_symmetry_1
_geom_bond_site_symmetry_2
Cu1 O1 1_555 1_555
Cu2 O1 1_555 1_555
S1 O2 1_555 1_555
O1 H1 1_555 1_555
O2 Cu1G 1_555 1_555
O3 S1 1_555 1_555
O4 Cu1 1_555 1_555
O5 Cu2 1_555 1_555
N1 Cu1 1_555 1_555
N2 Cu1 1_555 1_555
C1 N1 1_555 1_555
H2 C1 1_555 1_555
C2 C1 1_555 1_555
H3 C2 1_555 1_555
C3 C2 1_555 1_555
H4 C3 1_555 1_555
C4 C3 1_555 1_555
H5 C4 1_555 1_555
C5 N1 1_555 1_555
C6 N2 1_555 1_555
H6 C6 1_555 1_555
H7 C6 1_555 1_555
C7 S1 1_555 1_555
C8 C7 1_555 1_555
H8 C8 1_555 1_555
C9 C8 1_555 1_555
C10 C9 1_555 1_555
H9 C10 1_555 1_555
C11 C10 1_555 1_555
H10 C11 1_555 1_555
C12 C11 1_555 1_555
H11 C12 1_555 1_555
C13 C12 1_555 1_555
H12 C13 1_555 1_555
C14 C9 1_555 1_555
C15 C14 1_555 1_555
H13 C15 1_555 1_555
C16 C7 1_555 1_555
H14 C16 1_555 1_555
C17 O4 1_555 1_555
C18 C17 1_555 1_555
H15 C18 1_555 1_555
H16 C18 1_555 1_555
H17 C18 1_555 1_555
O1E Cu2 1_555 1_555
Cu1E O1E 1_555 1_555
O2B Cu1E 1_555 1_555
O2G Cu1 1_555 1_555
N2E S1 1_555 1_555
O4E Cu1E 1_555 1_555
C17E O4E 1_555 1_555
O5E Cu2 1_555 1_555
S1E N2 1_555 1_555
C18E C17E 1_555 1_555
H15E C18E 1_555 1_555
H16E C18E 1_555 1_555
H17E C18E 1_555 1_555
N1E Cu1E 1_555 1_555
C1E N1E 1_555 1_555
H2E C1E 1_555 1_555
C2E C1E 1_555 1_555
H3E C2E 1_555 1_555
C3E C2E 1_555 1_555
H4E C3E 1_555 1_555
C4E C3E 1_555 1_555
H5E C4E 1_555 1_555
C5E N1E 1_555 1_555
C6E N2E 1_555 1_555
H6E C6E 1_555 1_555
H7E C6E 1_555 1_555
H1E O1E 1_555 1_555
O2E S1E 1_555 1_555
O3E S1E 1_555 1_555
C7E S1E 1_555 1_555
Cu1B O2E 1_555 1_555
C8E C7E 1_555 1_555
C16E C7E 1_555 1_555
H8E C8E 1_555 1_555
C9E C8E 1_555 1_555
C15E C16E 1_555 1_555
H14E C16E 1_555 1_555
C10E C9E 1_555 1_555
C14E C9E 1_555 1_555
H13E C15E 1_555 1_555
H9E C10E 1_555 1_555
C11E C10E 1_555 1_555
C13E C14E 1_555 1_555
H10E C11E 1_555 1_555
C12E C11E 1_555 1_555
H12E C13E 1_555 1_555
H11E C12E 1_555 1_555
O5 C17 1_555 1_555
C4 C5 1_555 1_555
C5 C6 1_555 1_555
C13 C14 1_555 1_555
C15 C16 1_555 1_555
Cu1E N2E 1_555 1_555
C17E O5E 1_555 1_555
C4E C5E 1_555 1_555
C5E C6E 1_555 1_555
C15E C14E 1_555 1_555
C13E C12E 1_555 1_555

#END
