
#######################################################################
#
#                 Cambridge Crystallographic Data Centre
#                                CCDC 
#
#######################################################################
#
# If this CIF has been generated from an entry in the Cambridge 
# Structural Database, then it will include bibliographic, chemical, 
# crystal, experimental, refinement or atomic coordinate data resulting 
# from the CCDC's data processing and validation procedures.
#
#######################################################################

data_XUGFUA
_symmetry_cell_setting           monoclinic
_symmetry_space_group_name_H-M   'P 21/n'
_symmetry_Int_Tables_number      14
_space_group_name_Hall           '-P 2yn'
loop_
_symmetry_equiv_pos_site_id
_symmetry_equiv_pos_as_xyz
1 x,y,z
2 1/2+x,1/2-y,1/2+z
3 -x,-y,-z
4 1/2-x,1/2+y,1/2-z
_cell_length_a                   8.7476(4)
_cell_length_b                   15.3691(6)
_cell_length_c                   11.0972(4)
_cell_angle_alpha                90
_cell_angle_beta                 97.7590(10)
_cell_angle_gamma                90
_cell_volume                     1478.28
loop_
_atom_site_label
_atom_site_type_symbol
_atom_site_fract_x
_atom_site_fract_y
_atom_site_fract_z
Co1 Co 0.55941(2) 0.150246(11) 0.167454(16)
Co2 Co 0.673730(18) -0.001189(10) 0.000140(14)
N1 N 0.86268(12) 0.08735(7) -0.01545(10)
N2 N 1.13270(12) 0.08583(7) -0.02143(10)
C1 C 0.99873(13) 0.04785(8) -0.00981(11)
C2 C 1.12935(16) 0.17165(9) -0.04411(13)
H1 H 1.2207 0.2005 -0.0528
C3 C 0.99267(17) 0.21793(9) -0.05472(14)
H2 H 0.9902 0.2772 -0.0719
C4 C 0.85970(16) 0.17313(9) -0.03887(13)
H3 H 0.7665 0.2029 -0.0445
O1 O 0.70037(11) 0.02326(6) 0.18706(8)
O2 O 0.68609(15) -0.11419(6) 0.24870(10)
O3 O 0.93933(14) 0.23631(7) 0.64647(10)
O4 O 1.03370(19) 0.21724(9) 0.47397(13)
O5 O 0.55660(12) -0.10716(6) 0.70015(9)
O6 O 0.66246(15) 0.00226(7) 0.81350(9)
C5 C 0.74740(15) -0.00324(7) 0.39855(11)
C6 C 0.84010(15) 0.07040(8) 0.41948(11)
H4 H 0.8866 0.0938 0.3562
C7 C 0.86411(15) 0.10940(8) 0.53350(12)
C8 C 0.79623(16) 0.07264(8) 0.62814(11)
H5 H 0.8092 0.0991 0.7042
C9 C 0.70917(15) -0.00327(8) 0.61023(11)
C10 C 0.68487(14) -0.04152(8) 0.49490(11)
H6 H 0.6272 -0.0923 0.4825
C11 C 0.70920(14) -0.03591(8) 0.27018(11)
C12 C 0.95342(17) 0.19299(9) 0.55149(13)
C13 C 0.63804(14) -0.03912(8) 0.71580(11)
O7 O 0.50202(10) 0.09200(6) 0.00670(8)
H7 H 0.482(3) 0.1219(15) -0.048(2)
O8 O 0.75843(14) 0.21665(7) 0.20882(13)
H8 H 0.763(3) 0.2649(13) 0.210(2)
H9 H 0.836(2) 0.1999(16) 0.223(2)
C1B C 1.00127(13) -0.04785(8) 0.00981(11)
N1B N 1.13732(12) -0.08735(7) 0.01545(10)
C4B C 1.14030(16) -0.17313(9) 0.03887(13)
C3B C 1.00733(17) -0.21793(9) 0.05472(14)
C2B C 0.87065(16) -0.17165(9) 0.04411(13)
N2B N 0.86730(12) -0.08583(7) 0.02143(10)
H1B H 0.7793 -0.2005 0.0528
H2B H 1.0098 -0.2772 0.0719
H3B H 1.2335 -0.2029 0.0445
O1A O 0.20037(11) 0.47674(6) -0.31294(8)
O2A O 0.18609(15) 0.61419(6) -0.25130(10)
O3A O 0.43933(14) 0.26369(7) 0.14647(10)
O4A O 0.53370(19) 0.28276(9) -0.02603(13)
O5A O 0.05660(12) 0.60716(6) 0.20015(9)
O6A O 0.16246(15) 0.49774(7) 0.31350(9)
C5A C 0.24740(15) 0.50324(7) -0.10145(11)
C6A C 0.34010(15) 0.42960(8) -0.08052(11)
H4A H 0.3866 0.4062 -0.1438
C7A C 0.36411(15) 0.39060(8) 0.03350(12)
C8A C 0.29623(16) 0.42736(8) 0.12814(11)
H5A H 0.3092 0.4009 0.2042
C9A C 0.20917(15) 0.50327(8) 0.11023(11)
C10A C 0.18487(14) 0.54152(8) -0.00510(11)
H6A H 0.1272 0.5923 -0.0175
C11A C 0.20920(14) 0.53591(8) -0.22982(11)
C12A C 0.45342(17) 0.30701(9) 0.05149(13)
C13A C 0.13804(14) 0.53912(8) 0.21580(11)
Co1A Co 0.05941(2) 0.349754(11) -0.332546(16)
Co2A Co 0.173730(18) 0.501189(10) -0.499860(14)
O7B O 0.49798(10) -0.09200(6) -0.00670(8)
H7B H 0.518(3) -0.1219(15) 0.048(2)
O8A O 0.25843(14) 0.28335(7) -0.29118(13)
H8A H 0.263(3) 0.2351(13) -0.290(2)
H9A H 0.336(2) 0.3001(16) -0.277(2)
O5B O 0.44340(12) 0.10716(6) 0.29985(9)
O6_2 O 0.66246(15) 0.00226(7) -0.18650(9)
Co2B Co 1.326270(18) 0.001189(10) -0.000140(14)
Co1A_2 Co 1.05941(2) 0.349754(11) 0.667454(16)
Co1B Co 0.44059(2) -0.150246(11) 0.832546(16)
Co2_2 Co 0.673730(18) -0.001189(10) 1.000140(14)
Co2B_2 Co 0.326270(18) 0.001189(10) -0.000140(14)
Co1C Co -0.05941(2) 0.650246(11) 0.332546(16)
Co2A_2 Co 0.173730(18) 0.501189(10) 0.500140(14)
O3_2 O -0.06067(14) 0.23631(7) -0.35353(10)
O5C O -0.05660(12) 0.39284(6) -0.20015(9)
O7A O 0.00202(10) 0.40800(6) -0.49330(8)
N1A N 0.36268(12) 0.41265(7) -0.51545(10)
N2C N 0.36730(12) 0.58583(7) -0.47857(10)
O6A_2 O 0.16246(15) 0.49774(7) -0.68650(9)
O7C O -0.00202(10) 0.59200(6) -0.50670(8)
Co1B_2 Co 0.44059(2) -0.150246(11) -0.167454(16)
H7A H -0.018(3) 0.3781(15) -0.548(2)
H7C H 0.018(3) 0.6219(15) -0.452(2)
O9 O 1.0777(2) 0.18299(14) 0.24162(15)
H10 H 1.0801 0.1901 0.3213
H11 H 1.1684 0.2112 0.2177
loop_
_geom_bond_atom_site_label_1
_geom_bond_atom_site_label_2
_geom_bond_site_symmetry_1
_geom_bond_site_symmetry_2
Co1 O1 1_555 1_555
Co2 N1 1_555 1_555
N1 C1 1_555 1_555
N2 C1 1_555 1_555
C1 C1B 1_555 1_555
C2 N2 1_555 1_555
H1 C2 1_555 1_555
C3 C2 1_555 1_555
H2 C3 1_555 1_555
C4 N1 1_555 1_555
H3 C4 1_555 1_555
O1 Co2 1_555 1_555
O2 C11 1_555 1_555
O3 C12 1_555 1_555
O4 C12 1_555 1_555
O5 C13 1_555 1_555
O6 C13 1_555 1_555
C5 C6 1_555 1_555
C6 H4 1_555 1_555
C7 C6 1_555 1_555
C8 C7 1_555 1_555
H5 C8 1_555 1_555
C9 C8 1_555 1_555
C10 C5 1_555 1_555
H6 C10 1_555 1_555
C11 O1 1_555 1_555
C12 C7 1_555 1_555
C13 C9 1_555 1_555
O7 Co1 1_555 1_555
H7 O7 1_555 1_555
O8 Co1 1_555 1_555
H8 O8 1_555 1_555
H9 O8 1_555 1_555
O9 H10 1_555 1_555
H11 O9 1_555 1_555
C1B N1B 1_555 1_555
N1B C4B 1_555 1_555
C4B C3B 1_555 1_555
C3B C2B 1_555 1_555
C2B N2B 1_555 1_555
N2B Co2 1_555 1_555
H1B C2B 1_555 1_555
H2B C3B 1_555 1_555
H3B C4B 1_555 1_555
O1A C11A 1_555 1_555
O2A C11A 1_555 1_555
O3A Co1 1_555 1_555
O4A C12A 1_555 1_555
O5A C13A 1_555 1_555
O6A C13A 1_555 1_555
C5A C6A 1_555 1_555
C6A H4A 1_555 1_555
C7A C6A 1_555 1_555
C8A C7A 1_555 1_555
H5A C8A 1_555 1_555
C9A C8A 1_555 1_555
C10A C5A 1_555 1_555
H6A C10A 1_555 1_555
C11A C5A 1_555 1_555
C12A O3A 1_555 1_555
C13A C9A 1_555 1_555
Co1A O1A 1_555 1_555
Co2A O1A 1_555 1_555
O7B Co2 1_555 1_555
H7B O7B 1_555 1_555
O8A Co1A 1_555 1_555
H8A O8A 1_555 1_555
H9A O8A 1_555 1_555
O5B Co1 1_555 1_555
O6_2 Co2 1_555 1_555
Co2B N2 1_555 1_555
Co1A_2 O3 1_555 1_555
Co1B O5 1_555 1_555
Co2_2 O6 1_555 1_555
Co2B_2 O7 1_555 1_555
Co1C O5A 1_555 1_555
Co2A_2 O6A 1_555 1_555
O3_2 Co1A 1_555 1_555
O5C Co1A 1_555 1_555
O7A Co1A 1_555 1_555
N1A Co2A 1_555 1_555
N2C Co2A 1_555 1_555
O6A_2 Co2A 1_555 1_555
O7C Co2A 1_555 1_555
Co1B_2 O7B 1_555 1_555
H7A O7A 1_555 1_555
H7C O7C 1_555 1_555
Co2 O7 1_555 1_555
C3 C4 1_555 1_555
C5 C11 1_555 1_555
C9 C10 1_555 1_555
C1B N2B 1_555 1_555
N1B Co2B 1_555 1_555
C7A C12A 1_555 1_555
C9A C10A 1_555 1_555
Co2A O7A 1_555 1_555
O7B Co2B_2 1_555 1_555

#END
