
#######################################################################
#
#                 Cambridge Crystallographic Data Centre
#                                CCDC 
#
#######################################################################
#
# If this CIF has been generated from an entry in the Cambridge 
# Structural Database, then it will include bibliographic, chemical, 
# crystal, experimental, refinement or atomic coordinate data resulting 
# from the CCDC's data processing and validation procedures.
#
#######################################################################

data_XUGGUD
_symmetry_cell_setting           triclinic
_symmetry_space_group_name_H-M   'P -1'
_symmetry_Int_Tables_number      2
_space_group_name_Hall           '-P 1'
loop_
_symmetry_equiv_pos_site_id
_symmetry_equiv_pos_as_xyz
1 x,y,z
2 -x,-y,-z
_cell_length_a                   11.940(6)
_cell_length_b                   13.228(7)
_cell_length_c                   13.859(7)
_cell_angle_alpha                100.730(6)
_cell_angle_beta                 96.691(7)
_cell_angle_gamma                115.292(6)
_cell_volume                     1896.54
loop_
_atom_site_label
_atom_site_type_symbol
_atom_site_fract_x
_atom_site_fract_y
_atom_site_fract_z
Ni1 Ni 0.0000 0.0000 0.5000
O1 O 0.2432(5) 0.0834(5) 0.3793(4)
O2 O 0.1930(4) 0.0577(4) 0.5257(3)
O3 O 0.3418(5) 0.2306(4) 0.7084(4)
H1 H 0.2898 0.2230 0.7439
O4 O 0.3211(5) 0.0606(5) 0.7359(4)
O5 O -0.0099(4) -0.0386(4) 0.3432(3)
H2 H -0.0439 -0.1091 0.3198
H3 H 0.0669 -0.0079 0.3426
N1 N 0.0218(5) 0.1602(4) 0.4893(4)
C1 C 0.4066(6) 0.1214(5) 0.5173(5)
C2 C 0.4469(6) 0.1430(5) 0.6203(5)
C3 C 0.5701(7) 0.1697(5) 0.6614(6)
H4 H 0.5947 0.1826 0.7306
C4 C 0.6579(7) 0.1778(6) 0.6031(6)
C5 C 0.6181(7) 0.1566(6) 0.5022(6)
H5 H 0.6756 0.1614 0.4612
C6 C 0.4939(7) 0.1279(6) 0.4584(6)
H6 H 0.4694 0.1130 0.3890
C7 C 0.2698(7) 0.0848(5) 0.4698(5)
C8 C 0.3604(7) 0.1362(7) 0.6917(5)
C9 C 0.7939(7) 0.2087(7) 0.6509(7)
H7 H 0.8181 0.1549 0.6145
H8 H 0.7993 0.2050 0.7197
H9 H 0.8498 0.2858 0.6486
C10 C -0.0537(7) 0.1691(6) 0.4168(5)
H10 H -0.1138 0.1016 0.3698
C11 C -0.0480(7) 0.2727(6) 0.4074(5)
H11 H -0.1039 0.2745 0.3559
C12 C 0.0423(7) 0.3748(5) 0.4759(5)
C13 C 0.1207(7) 0.3667(6) 0.5502(6)
H12 H 0.1814 0.4333 0.5979
C14 C 0.1099(6) 0.2587(6) 0.5549(5)
H13 H 0.1657 0.2549 0.6052
C15 C 0.0468(7) 0.4901(6) 0.4715(6)
H14 H 0.0252 0.4903 0.4019
H15 H 0.1319 0.5521 0.5012
N1A N -0.0218(5) 0.8398(4) 0.5107(4)
C10A C 0.0537(7) 0.8309(6) 0.5832(5)
H10A H 0.1138 0.8984 0.6302
C11A C 0.0480(7) 0.7273(6) 0.5926(5)
H11A H 0.1039 0.7255 0.6441
C12A C -0.0423(7) 0.6252(5) 0.5241(5)
C13A C -0.1207(7) 0.6333(6) 0.4498(6)
H12A H -0.1814 0.5667 0.4021
C14A C -0.1099(6) 0.7413(6) 0.4451(5)
H13A H -0.1657 0.7451 0.3948
C15A C -0.0468(7) 0.5099(6) 0.5285(6)
H14A H -0.0252 0.5097 0.5981
H15A H -0.1319 0.4479 0.4988
O1A O -0.2432(5) -0.0834(5) 0.6207(4)
O2A O -0.1930(4) -0.0577(4) 0.4743(3)
O3A O -0.3418(5) -0.2306(4) 0.2916(4)
H1A H -0.2898 -0.2230 0.2561
O4A O -0.3211(5) -0.0606(5) 0.2641(4)
O5A O 0.0099(4) 0.0386(4) 0.6568(3)
H2A H 0.0439 0.1091 0.6802
H3A H -0.0669 0.0079 0.6574
C1A C -0.4066(6) -0.1214(5) 0.4827(5)
C2A C -0.4469(6) -0.1430(5) 0.3797(5)
C3A C -0.5701(7) -0.1697(5) 0.3386(6)
H4A H -0.5947 -0.1826 0.2694
C4A C -0.6579(7) -0.1778(6) 0.3969(6)
C5A C -0.6181(7) -0.1566(6) 0.4978(6)
H5A H -0.6756 -0.1614 0.5388
C6A C -0.4939(7) -0.1279(6) 0.5416(6)
H6A H -0.4694 -0.1130 0.6110
C7A C -0.2698(7) -0.0848(5) 0.5302(5)
C8A C -0.3604(7) -0.1362(7) 0.3083(5)
C9A C -0.7939(7) -0.2087(7) 0.3491(7)
H7A H -0.8181 -0.1549 0.3855
H8A H -0.7993 -0.2050 0.2803
H9A H -0.8498 -0.2858 0.3514
Ni1_2 Ni 0.0000 1.0000 0.5000
N1A_2 N -0.0218(5) -0.1602(4) 0.5107(4)
Ni2 Ni 0.12852(7) 0.41900(6) 0.06278(6)
O6 O 0.1715(5) 0.2406(4) -0.1862(4)
O7 O 0.2101(4) 0.3421(3) -0.0290(3)
O8 O 0.0196(4) 0.4094(3) -0.0665(3)
O9 O -0.0244(4) 0.5226(4) -0.1487(3)
N2 N 0.2793(5) 0.5842(4) 0.0691(4)
N3 N 0.9868(5) 1.2457(4) 0.0493(4)
N4 N 0.2278(5) 0.4232(4) 0.1994(4)
C16 C 0.2296(6) 0.4402(5) -0.1614(5)
C17 C 0.1620(6) 0.5031(5) -0.1645(5)
C18 C 0.2095(8) 0.6011(6) -0.2008(5)
H16 H 0.1616 0.6406 -0.2060
C19 C 0.3235(8) 0.6422(7) -0.2294(6)
C20 C 0.3889(7) 0.5767(7) -0.2282(5)
H17 H 0.4654 0.6007 -0.2488
C21 C 0.3410(7) 0.4770(6) -0.1968(5)
H18 H 0.3842 0.4327 -0.1992
C22 C 0.1984(6) 0.3337(6) -0.1234(6)
C23 C 0.0426(6) 0.4758(5) -0.1246(5)
C24 C 0.3804(10) 0.7522(9) -0.2611(8)
H19 H 0.3570 0.7353 -0.3330
H20 H 0.4712 0.7881 -0.2398
H21 H 0.3496 0.8038 -0.2307
C25 C 0.3939(6) 0.5932(5) 0.0653(5)
H22 H 0.4082 0.5308 0.0720
C26 C 0.4927(6) 0.6894(5) 0.0520(5)
H23 H 0.5704 0.6901 0.0487
C27 C 0.4761(6) 0.7849(5) 0.0435(5)
C28 C 0.3592(6) 0.7774(5) 0.0511(5)
H24 H 0.3446 0.8406 0.0485
C29 C 0.2630(6) 0.6776(5) 0.0623(5)
H25 H 0.1843 0.6748 0.0654
C30 C 0.5804(7) 0.8948(6) 0.0313(6)
H26 H 0.5485 0.9122 -0.0278
H27 H 0.5974 0.9576 0.0890
C31 C 0.7049(7) 0.8951(6) 0.0209(6)
H28 H 0.6943 0.8452 -0.0440
H29 H 0.7320 0.8654 0.0730
C32 C 0.9392(6) 1.1663(5) -0.0390(5)
H30 H 0.9681 1.1881 -0.0950
C33 C 0.8487(7) 1.0528(6) -0.0516(6)
H31 H 0.8176 1.0007 -0.1150
C34 C 0.8050(6) 1.0176(5) 0.0300(6)
C35 C 0.8551(7) 1.1002(6) 0.1209(5)
H32 H 0.8292 1.0809 0.1785
C36 C 0.9435(6) 1.2113(6) 0.1266(5)
H33 H 0.9746 1.2654 0.1890
C37 C 0.2415(7) 0.3352(6) 0.2213(6)
H34 H 0.2088 0.2662 0.1711
C38 C 0.3026(8) 0.3411(7) 0.3160(6)
H35 H 0.3074 0.2761 0.3282
C39 C 0.3558(7) 0.4431(7) 0.3916(6)
C40 C 0.3403(7) 0.5342(6) 0.3679(5)
H36 H 0.3738 0.6048 0.4162
C41 C 0.2754(6) 0.5217(6) 0.2730(5)
H37 H 0.2645 0.5839 0.2601
C42 C 0.4297(7) 0.4586(8) 0.4929(6)
H38 H 0.4203 0.3839 0.5000
H39 H 0.3958 0.4888 0.5449
N4A N 0.7722(5) 0.5768(4) 0.8006(4)
C37A C 0.7585(7) 0.6648(6) 0.7787(6)
H34A H 0.7912 0.7338 0.8289
C38A C 0.6974(8) 0.6589(7) 0.6840(6)
H35A H 0.6926 0.7239 0.6718
C39A C 0.6442(7) 0.5569(7) 0.6084(6)
C40A C 0.6597(7) 0.4658(6) 0.6321(5)
H36A H 0.6262 0.3952 0.5838
C41A C 0.7246(6) 0.4783(6) 0.7270(5)
H37A H 0.7355 0.4161 0.7399
C42A C 0.5703(7) 0.5414(8) 0.5071(6)
H38A H 0.5797 0.6161 0.5000
H39A H 0.6042 0.5112 0.4551
Ni2A Ni -0.12852(7) 0.58100(6) -0.06278(6)
O6A O -0.1715(5) 0.7594(4) 0.1862(4)
O7A O -0.2101(4) 0.6579(3) 0.0290(3)
O8A O -0.0196(4) 0.5906(3) 0.0665(3)
O9A O 0.0244(4) 0.4774(4) 0.1487(3)
N2A N -0.2793(5) 0.4158(4) -0.0691(4)
N3A N -0.9868(5) -0.2457(4) -0.0493(4)
C16A C -0.2296(6) 0.5598(5) 0.1614(5)
C17A C -0.1620(6) 0.4969(5) 0.1645(5)
C18A C -0.2095(8) 0.3989(6) 0.2008(5)
H16A H -0.1616 0.3594 0.2060
C19A C -0.3235(8) 0.3578(7) 0.2294(6)
C20A C -0.3889(7) 0.4233(7) 0.2282(5)
H17A H -0.4654 0.3993 0.2488
C21A C -0.3410(7) 0.5230(6) 0.1968(5)
H18A H -0.3842 0.5673 0.1992
C22A C -0.1984(6) 0.6663(6) 0.1234(6)
C23A C -0.0426(6) 0.5242(5) 0.1246(5)
C24A C -0.3804(10) 0.2478(9) 0.2611(8)
H19A H -0.3570 0.2647 0.3330
H20A H -0.4712 0.2119 0.2398
H21A H -0.3496 0.1962 0.2307
C25A C -0.3939(6) 0.4068(5) -0.0653(5)
H22A H -0.4082 0.4692 -0.0720
C26A C -0.4927(6) 0.3106(5) -0.0520(5)
H23A H -0.5704 0.3099 -0.0487
C27A C -0.4761(6) 0.2151(5) -0.0435(5)
C28A C -0.3592(6) 0.2226(5) -0.0511(5)
H24A H -0.3446 0.1594 -0.0485
C29A C -0.2630(6) 0.3224(5) -0.0623(5)
H25A H -0.1843 0.3252 -0.0654
C30A C -0.5804(7) 0.1052(6) -0.0313(6)
H26A H -0.5485 0.0878 0.0278
H27A H -0.5974 0.0424 -0.0890
C31A C -0.7049(7) 0.1049(6) -0.0209(6)
H28A H -0.6943 0.1548 0.0440
H29A H -0.7320 0.1346 -0.0730
C32A C -0.9392(6) -0.1663(5) 0.0390(5)
H30A H -0.9681 -0.1881 0.0950
C33A C -0.8487(7) -0.0528(6) 0.0516(6)
H31A H -0.8176 -0.0007 0.1150
C34A C -0.8050(6) -0.0176(5) -0.0300(6)
C35A C -0.8551(7) -0.1002(6) -0.1209(5)
H32A H -0.8292 -0.0809 -0.1785
C36A C -0.9435(6) -0.2113(6) -0.1266(5)
H33A H -0.9746 -0.2654 -0.1890
Ni2_2 Ni 1.12852(7) 1.41900(6) 0.06278(6)
Ni2A_2 Ni -1.12852(7) -0.41900(6) -0.06278(6)
Ni2A_3 Ni 0.87148(7) 0.58100(6) 0.93722(6)
N3_2 N -0.0132(5) 0.2457(4) 0.0493(4)
N3A_2 N 0.0132(5) 0.7543(4) -0.0493(4)
N4A_2 N -0.2278(5) 0.5768(4) -0.1994(4)
loop_
_geom_bond_atom_site_label_1
_geom_bond_atom_site_label_2
_geom_bond_site_symmetry_1
_geom_bond_site_symmetry_2
Ni1 O2 1_555 1_555
O1 C7 1_555 1_555
O2 C7 1_555 1_555
O3 H1 1_555 1_555
O4 C8 1_555 1_555
O5 Ni1 1_555 1_555
H2 O5 1_555 1_555
H3 O5 1_555 1_555
N1 Ni1 1_555 1_555
C1 C2 1_555 1_555
C2 C3 1_555 1_555
C3 H4 1_555 1_555
C4 C3 1_555 1_555
C5 C4 1_555 1_555
H5 C5 1_555 1_555
C6 C1 1_555 1_555
H6 C6 1_555 1_555
C7 C1 1_555 1_555
C8 O3 1_555 1_555
C9 C4 1_555 1_555
H7 C9 1_555 1_555
H8 C9 1_555 1_555
H9 C9 1_555 1_555
C10 N1 1_555 1_555
H10 C10 1_555 1_555
C11 C10 1_555 1_555
H11 C11 1_555 1_555
C12 C11 1_555 1_555
C13 C12 1_555 1_555
H12 C13 1_555 1_555
C14 N1 1_555 1_555
H13 C14 1_555 1_555
C15 C12 1_555 1_555
H14 C15 1_555 1_555
H15 C15 1_555 1_555
Ni2 O7 1_555 1_555
O6 C22 1_555 1_555
O7 C22 1_555 1_555
O8 Ni2 1_555 1_555
O9 C23 1_555 1_555
N2 Ni2 1_555 1_555
N3 C32 1_555 1_555
N4 Ni2 1_555 1_555
C16 C17 1_555 1_555
C17 C18 1_555 1_555
C18 H16 1_555 1_555
C19 C18 1_555 1_555
C20 C19 1_555 1_555
H17 C20 1_555 1_555
C21 C16 1_555 1_555
H18 C21 1_555 1_555
C22 C16 1_555 1_555
C23 O8 1_555 1_555
C24 C19 1_555 1_555
H19 C24 1_555 1_555
H20 C24 1_555 1_555
H21 C24 1_555 1_555
C25 N2 1_555 1_555
H22 C25 1_555 1_555
C26 C25 1_555 1_555
H23 C26 1_555 1_555
C27 C26 1_555 1_555
C28 C27 1_555 1_555
H24 C28 1_555 1_555
C29 N2 1_555 1_555
H25 C29 1_555 1_555
C30 C27 1_555 1_555
H26 C30 1_555 1_555
H27 C30 1_555 1_555
C31 C30 1_555 1_555
H28 C31 1_555 1_555
H29 C31 1_555 1_555
C32 H30 1_555 1_555
C33 C32 1_555 1_555
H31 C33 1_555 1_555
C34 C31 1_555 1_555
C35 C34 1_555 1_555
H32 C35 1_555 1_555
C36 N3 1_555 1_555
H33 C36 1_555 1_555
C37 N4 1_555 1_555
H34 C37 1_555 1_555
C38 C37 1_555 1_555
H35 C38 1_555 1_555
C39 C38 1_555 1_555
C40 C39 1_555 1_555
H36 C40 1_555 1_555
C41 N4 1_555 1_555
H37 C41 1_555 1_555
C42 C39 1_555 1_555
H38 C42 1_555 1_555
H39 C42 1_555 1_555
N1A C10A 1_555 1_555
C10A H10A 1_555 1_555
C11A C10A 1_555 1_555
H11A C11A 1_555 1_555
C12A C11A 1_555 1_555
C13A C12A 1_555 1_555
H12A C13A 1_555 1_555
C14A N1A 1_555 1_555
H13A C14A 1_555 1_555
C15A C15 1_555 1_555
H14A C15A 1_555 1_555
H15A C15A 1_555 1_555
O1A C7A 1_555 1_555
O2A Ni1 1_555 1_555
O3A H1A 1_555 1_555
O4A C8A 1_555 1_555
O5A Ni1 1_555 1_555
H2A O5A 1_555 1_555
H3A O5A 1_555 1_555
C1A C2A 1_555 1_555
C2A C3A 1_555 1_555
C3A H4A 1_555 1_555
C4A C3A 1_555 1_555
C5A C4A 1_555 1_555
H5A C5A 1_555 1_555
C6A C1A 1_555 1_555
H6A C6A 1_555 1_555
C7A O2A 1_555 1_555
C8A O3A 1_555 1_555
C9A C4A 1_555 1_555
H7A C9A 1_555 1_555
H8A C9A 1_555 1_555
H9A C9A 1_555 1_555
Ni1_2 N1A 1_555 1_555
N1A_2 Ni1 1_555 1_555
N4A C37A 1_555 1_555
C37A H34A 1_555 1_555
C38A C37A 1_555 1_555
H35A C38A 1_555 1_555
C39A C38A 1_555 1_555
C40A C39A 1_555 1_555
H36A C40A 1_555 1_555
C41A N4A 1_555 1_555
H37A C41A 1_555 1_555
C42A C42 1_555 1_555
H38A C42A 1_555 1_555
H39A C42A 1_555 1_555
Ni2A O9 1_555 1_555
O6A C22A 1_555 1_555
O7A Ni2A 1_555 1_555
O8A Ni2A 1_555 1_555
O9A Ni2 1_555 1_555
N2A Ni2A 1_555 1_555
N3A C32A 1_555 1_555
C16A C17A 1_555 1_555
C17A C18A 1_555 1_555
C18A H16A 1_555 1_555
C19A C18A 1_555 1_555
C20A C19A 1_555 1_555
H17A C20A 1_555 1_555
C21A C16A 1_555 1_555
H18A C21A 1_555 1_555
C22A O7A 1_555 1_555
C23A O8A 1_555 1_555
C24A C19A 1_555 1_555
H19A C24A 1_555 1_555
H20A C24A 1_555 1_555
H21A C24A 1_555 1_555
C25A N2A 1_555 1_555
H22A C25A 1_555 1_555
C26A C25A 1_555 1_555
H23A C26A 1_555 1_555
C27A C26A 1_555 1_555
C28A C27A 1_555 1_555
H24A C28A 1_555 1_555
C29A N2A 1_555 1_555
H25A C29A 1_555 1_555
C30A C27A 1_555 1_555
H26A C30A 1_555 1_555
H27A C30A 1_555 1_555
C31A C30A 1_555 1_555
H28A C31A 1_555 1_555
H29A C31A 1_555 1_555
C32A H30A 1_555 1_555
C33A C32A 1_555 1_555
H31A C33A 1_555 1_555
C34A C31A 1_555 1_555
C35A C34A 1_555 1_555
H32A C35A 1_555 1_555
C36A N3A 1_555 1_555
H33A C36A 1_555 1_555
Ni2_2 N3 1_555 1_555
Ni2A_2 N3A 1_555 1_555
Ni2A_3 N4A 1_555 1_555
N3_2 Ni2 1_555 1_555
N3A_2 Ni2A 1_555 1_555
N4A_2 Ni2A 1_555 1_555
C2 C8 1_555 1_555
C5 C6 1_555 1_555
C13 C14 1_555 1_555
C17 C23 1_555 1_555
C20 C21 1_555 1_555
C28 C29 1_555 1_555
C33 C34 1_555 1_555
C35 C36 1_555 1_555
C40 C41 1_555 1_555
C12A C15A 1_555 1_555
C13A C14A 1_555 1_555
C1A C7A 1_555 1_555
C2A C8A 1_555 1_555
C5A C6A 1_555 1_555
C39A C42A 1_555 1_555
C40A C41A 1_555 1_555
O9A C23A 1_555 1_555
C16A C22A 1_555 1_555
C17A C23A 1_555 1_555
C20A C21A 1_555 1_555
C28A C29A 1_555 1_555
C33A C34A 1_555 1_555
C35A C36A 1_555 1_555

#END
