
#######################################################################
#
#                 Cambridge Crystallographic Data Centre
#                                CCDC 
#
#######################################################################
#
# If this CIF has been generated from an entry in the Cambridge 
# Structural Database, then it will include bibliographic, chemical, 
# crystal, experimental, refinement or atomic coordinate data resulting 
# from the CCDC's data processing and validation procedures.
#
#######################################################################

data_XUGJOZ
_symmetry_cell_setting           triclinic
_symmetry_space_group_name_H-M   'P -1'
_symmetry_Int_Tables_number      2
_space_group_name_Hall           '-P 1'
loop_
_symmetry_equiv_pos_site_id
_symmetry_equiv_pos_as_xyz
1 x,y,z
2 -x,-y,-z
_cell_length_a                   10.0390(8)
_cell_length_b                   12.9026(3)
_cell_length_c                   15.1946(8)
_cell_angle_alpha                93.240(3)
_cell_angle_beta                 108.573(6)
_cell_angle_gamma                98.218(4)
_cell_volume                     1835.53
loop_
_atom_site_label
_atom_site_type_symbol
_atom_site_fract_x
_atom_site_fract_y
_atom_site_fract_z
Ag1 Ag 0.12372(12) 0.43531(8) 0.44504(8)
P1 P 0.3001(4) 0.4965(3) 0.3821(2)
O1 O -0.1753(15) 0.4076(11) 0.2782(9)
O2 O -0.2908(11) 0.5291(9) 0.3053(7)
O3 O -0.0971(12) 0.5037(11) 0.4102(7)
N1 N -0.1870(12) 0.4786(9) 0.3318(8)
N2 N 0.0443(13) 0.2724(8) 0.4740(8)
C1 C 0.1137(18) 0.2369(11) 0.5555(11)
H1 H 0.1755 0.2862 0.6057
C2 C 0.0974(17) 0.1325(10) 0.5676(9)
H2 H 0.1474 0.1107 0.6259
C3 C 0.0091(14) 0.0578(10) 0.4960(9)
C4 C -0.0642(17) 0.0961(10) 0.4126(10)
H3 H -0.1276 0.0488 0.3613
C5 C -0.0438(16) 0.2010(11) 0.4058(11)
H4 H -0.0954 0.2252 0.3491
C6 C 0.4795(14) 0.4744(11) 0.4501(9)
H5 H 0.4808 0.3978 0.4503
H6 H 0.5494 0.5048 0.4211
C7 C 0.2598(15) 0.4287(10) 0.2657(9)
C8 C 0.3623(19) 0.4032(14) 0.2295(11)
H7 H 0.4603 0.4248 0.2647
C9 C 0.324(2) 0.3464(16) 0.1424(12)
H8 H 0.3951 0.3223 0.1218
C10 C 0.183(2) 0.3245(13) 0.0851(12)
H9 H 0.1574 0.2932 0.0226
C11 C 0.080(2) 0.3490(14) 0.1206(12)
H10 H -0.0175 0.3311 0.0837
C12 C 0.1193(17) 0.4008(12) 0.2122(11)
H11 H 0.0474 0.4163 0.2366
C13 C 0.3299(16) 0.6388(10) 0.3737(9)
C14 C 0.4347(16) 0.6866(12) 0.3424(11)
H12 H 0.4910 0.6447 0.3209
C15 C 0.4598(18) 0.7938(13) 0.3415(11)
H13 H 0.5340 0.8266 0.3211
C16 C 0.3735(19) 0.8535(13) 0.3715(12)
H14 H 0.3889 0.9279 0.3712
C17 C 0.2663(19) 0.8058(12) 0.4015(12)
H15 H 0.2082 0.8465 0.4223
C18 C 0.2456(16) 0.6991(11) 0.4006(10)
H16 H 0.1700 0.6655 0.4194
Ag1A Ag 0.87628(12) 0.56469(8) 0.55496(8)
Ag1A_2 Ag -0.12372(12) 0.56469(8) 0.55496(8)
Ag1A_3 Ag -0.12372(12) -0.43531(8) 0.55496(8)
Ag1_2 Ag 0.12372(12) -0.56469(8) 0.44504(8)
P1A P 0.6999(4) 0.5035(3) 0.6179(2)
P1A_2 P -0.3001(4) -0.4965(3) 0.6179(2)
O1_2 O -0.1753(15) -0.5924(11) 0.2782(9)
O2_2 O -0.2908(11) -0.4709(9) 0.3053(7)
O3A O 0.0971(12) 0.4963(11) 0.5898(7)
O3_2 O -0.0971(12) -0.4963(11) 0.4102(7)
O3A_2 O 0.0971(12) -0.5037(11) 0.5898(7)
N1_2 N -0.1870(12) -0.5214(9) 0.3318(8)
N2A N -0.0443(13) -0.2724(8) 0.5260(8)
C1A C -0.1137(18) -0.2369(11) 0.4445(11)
H1A H -0.1755 -0.2862 0.3943
C2A C -0.0974(17) -0.1325(10) 0.4324(9)
H2A H -0.1474 -0.1107 0.3741
C3A C -0.0091(14) -0.0578(10) 0.5040(9)
C4A C 0.0642(17) -0.0961(10) 0.5874(10)
H3A H 0.1276 -0.0488 0.6387
C5A C 0.0438(16) -0.2010(11) 0.5942(11)
H4A H 0.0954 -0.2252 0.6509
C6A C 0.5205(14) 0.5256(11) 0.5499(9)
H5A H 0.5192 0.6022 0.5497
H6A H 0.4506 0.4952 0.5789
C7A C 0.7402(15) 0.5713(10) 0.7343(9)
C8A C 0.6377(19) 0.5968(14) 0.7705(11)
H7A H 0.5397 0.5752 0.7353
C9A C 0.676(2) 0.6536(16) 0.8576(12)
H8A H 0.6049 0.6777 0.8782
C10A C 0.817(2) 0.6755(13) 0.9149(12)
H9A H 0.8426 0.7068 0.9774
C11A C 0.920(2) 0.6510(14) 0.8794(12)
H10A H 1.0175 0.6689 0.9163
C12A C 0.8807(17) 0.5992(12) 0.7878(11)
H11A H 0.9526 0.5837 0.7634
C13A C 0.6701(16) 0.3612(10) 0.6263(9)
C14A C 0.5653(16) 0.3134(12) 0.6576(11)
H12A H 0.5090 0.3553 0.6791
C15A C 0.5402(18) 0.2062(13) 0.6585(11)
H13A H 0.4660 0.1734 0.6789
C16A C 0.6265(19) 0.1465(13) 0.6285(12)
H14A H 0.6111 0.0721 0.6288
C17A C 0.7337(19) 0.1942(12) 0.5985(12)
H15A H 0.7918 0.1535 0.5777
C18A C 0.7544(16) 0.3009(11) 0.5994(10)
H16A H 0.8300 0.3345 0.5806
Ag2 Ag 0.66030(11) 0.08620(8) -0.03218(7)
P2 P 0.8127(3) 0.0354(3) -0.1115(2)
O4 O 0.1926(11) -0.0775(9) -0.1759(7)
O5 O 0.3982(10) 0.0021(9) -0.0868(7)
O6 O 0.3107(11) 0.0503(8) -0.2233(6)
N3 N 0.2993(12) -0.0078(9) -0.1633(7)
N4 N 0.5938(11) 0.2460(8) -0.0121(8)
C19 C 0.4652(15) 0.3782(11) -0.0812(10)
H17 H 0.3965 0.3977 -0.1340
C20 C 0.5223(12) 0.4479(9) -0.0025(9)
C21 C 0.6179(15) 0.4110(11) 0.0712(10)
H18 H 0.6622 0.4550 0.1284
C22 C 0.6496(15) 0.3126(11) 0.0631(10)
H19 H 0.7166 0.2910 0.1156
C23 C 0.9527(13) -0.0330(10) -0.0452(9)
H20 H 0.9088 -0.1006 -0.0304
H21 H 1.0118 -0.0491 -0.0837
C24 C 0.7214(13) -0.0532(10) -0.2189(9)
C25 C 0.5765(17) -0.0799(13) -0.2468(11)
H22 H 0.5271 -0.0558 -0.2079
C26 C 0.4994(18) -0.1411(13) -0.3302(13)
H23 H 0.3987 -0.1594 -0.3475
C27 C 0.5692(18) -0.1752(11) -0.3877(12)
H24 H 0.5171 -0.2142 -0.4466
C28 C 0.7148(19) -0.1522(13) -0.3590(12)
H25 H 0.7643 -0.1792 -0.3966
C29 C 0.7900(17) -0.0911(12) -0.2771(11)
H26 H 0.8909 -0.0742 -0.2595
C30 C 0.9091(14) 0.1490(10) -0.1443(9)
C31 C 1.0267(14) 0.1439(11) -0.1737(9)
H27 H 1.0598 0.0791 -0.1780
C32 C 1.0950(16) 0.2355(12) -0.1969(10)
H28 H 1.1745 0.2324 -0.2174
C33 C 1.0493(16) 0.3286(13) -0.1904(11)
H29 H 1.0952 0.3897 -0.2081
C34 C 0.9355(16) 0.3351(12) -0.1581(10)
H30 H 0.9055 0.4009 -0.1519
C35 C 0.8665(15) 0.2466(11) -0.1352(10)
H31 H 0.7890 0.2515 -0.1129
C36 C 0.5043(15) 0.2801(11) -0.0863(11)
H32 H 0.4669 0.2359 -0.1438
Ag2A Ag 1.33970(11) -0.08620(8) 0.03218(7)
Ag2A_2 Ag 0.33970(11) -0.08620(8) 0.03218(7)
Ag2A_3 Ag 0.33970(11) 0.91380(8) 0.03218(7)
Ag2_2 Ag 0.66030(11) 1.08620(8) -0.03218(7)
P2A P 1.1873(3) -0.0354(3) 0.1115(2)
P2A_2 P 0.1873(3) 0.9646(3) 0.1115(2)
O4_2 O 0.1926(11) 0.9225(9) -0.1759(7)
O5A O 0.6018(10) -0.0021(9) 0.0868(7)
O5_2 O 0.3982(10) 1.0021(9) -0.0868(7)
O5A_2 O 0.6018(10) 0.9979(9) 0.0868(7)
O6_2 O 0.3107(11) 1.0503(8) -0.2233(6)
N3_2 N 0.2993(12) 0.9922(9) -0.1633(7)
N4A N 0.4062(11) 0.7540(8) 0.0121(8)
C19A C 0.5348(15) 0.6218(11) 0.0812(10)
H17A H 0.6035 0.6023 0.1340
C20A C 0.4777(12) 0.5521(9) 0.0025(9)
C21A C 0.3821(15) 0.5890(11) -0.0712(10)
H18A H 0.3378 0.5450 -0.1284
C22A C 0.3504(15) 0.6874(11) -0.0631(10)
H19A H 0.2834 0.7090 -0.1156
C23A C 1.0473(13) 0.0330(10) 0.0452(9)
H20A H 1.0912 0.1006 0.0304
H21A H 0.9882 0.0491 0.0837
C24A C 1.2786(13) 0.0532(10) 0.2189(9)
C25A C 1.4235(17) 0.0799(13) 0.2468(11)
H22A H 1.4729 0.0558 0.2079
C26A C 1.5006(18) 0.1411(13) 0.3302(13)
H23A H 1.6013 0.1594 0.3475
C27A C 1.4308(18) 0.1752(11) 0.3877(12)
H24A H 1.4829 0.2142 0.4466
C28A C 1.2852(19) 0.1522(13) 0.3590(12)
H25A H 1.2357 0.1792 0.3966
C29A C 1.2100(17) 0.0911(12) 0.2771(11)
H26A H 1.1091 0.0742 0.2595
C30A C 1.0909(14) -0.1490(10) 0.1443(9)
C31A C 0.9733(14) -0.1439(11) 0.1737(9)
H27A H 0.9402 -0.0791 0.1780
C32A C 0.9050(16) -0.2355(12) 0.1969(10)
H28A H 0.8255 -0.2324 0.2174
C33A C 0.9507(16) -0.3286(13) 0.1904(11)
H29A H 0.9048 -0.3897 0.2081
C34A C 1.0645(16) -0.3351(12) 0.1581(10)
H30A H 1.0945 -0.4009 0.1519
C35A C 1.1335(15) -0.2466(11) 0.1352(10)
H31A H 1.2110 -0.2515 0.1129
C36A C 0.4957(15) 0.7199(11) 0.0863(11)
H32A H 0.5331 0.7641 0.1438
loop_
_geom_bond_atom_site_label_1
_geom_bond_atom_site_label_2
_geom_bond_site_symmetry_1
_geom_bond_site_symmetry_2
Ag1 P1 1_555 1_555
Ag2 P2 1_555 1_555
P1 C6 1_555 1_555
P2 C23 1_555 1_555
O1 N1 1_555 1_555
O2 N1 1_555 1_555
O3 Ag1 1_555 1_555
O4 N3 1_555 1_555
O5 Ag2 1_555 1_555
O6 N3 1_555 1_555
N1 O3 1_555 1_555
N2 Ag1 1_555 1_555
N3 O5 1_555 1_555
N4 Ag2 1_555 1_555
C1 N2 1_555 1_555
H1 C1 1_555 1_555
C2 C1 1_555 1_555
H2 C2 1_555 1_555
C3 C2 1_555 1_555
C4 C3 1_555 1_555
H3 C4 1_555 1_555
C5 N2 1_555 1_555
H4 C5 1_555 1_555
C6 H5 1_555 1_555
H6 C6 1_555 1_555
C7 P1 1_555 1_555
C8 C7 1_555 1_555
H7 C8 1_555 1_555
C9 C8 1_555 1_555
H8 C9 1_555 1_555
C10 C9 1_555 1_555
H9 C10 1_555 1_555
C11 C10 1_555 1_555
H10 C11 1_555 1_555
C12 C7 1_555 1_555
H11 C12 1_555 1_555
C13 P1 1_555 1_555
C14 C13 1_555 1_555
H12 C14 1_555 1_555
C15 C14 1_555 1_555
H13 C15 1_555 1_555
C16 C15 1_555 1_555
H14 C16 1_555 1_555
C17 C16 1_555 1_555
H15 C17 1_555 1_555
C18 C13 1_555 1_555
H16 C18 1_555 1_555
C19 H17 1_555 1_555
C20 C19 1_555 1_555
C21 C20 1_555 1_555
H18 C21 1_555 1_555
C22 N4 1_555 1_555
H19 C22 1_555 1_555
C23 H20 1_555 1_555
H21 C23 1_555 1_555
C24 P2 1_555 1_555
C25 C24 1_555 1_555
H22 C25 1_555 1_555
C26 C25 1_555 1_555
H23 C26 1_555 1_555
C27 C26 1_555 1_555
H24 C27 1_555 1_555
C28 C27 1_555 1_555
H25 C28 1_555 1_555
C29 C24 1_555 1_555
H26 C29 1_555 1_555
C30 P2 1_555 1_555
C31 C30 1_555 1_555
H27 C31 1_555 1_555
C32 C31 1_555 1_555
H28 C32 1_555 1_555
C33 C32 1_555 1_555
H29 C33 1_555 1_555
C34 C33 1_555 1_555
H30 C34 1_555 1_555
C35 C30 1_555 1_555
H31 C35 1_555 1_555
C36 N4 1_555 1_555
H32 C36 1_555 1_555
Ag1A P1A 1_555 1_555
Ag1A_2 O3 1_555 1_555
Ag1A_3 P1A_2 1_555 1_555
Ag1_2 O3_2 1_555 1_555
Ag2A P2A 1_555 1_555
Ag2A_2 O5 1_555 1_555
Ag2A_3 P2A_2 1_555 1_555
Ag2_2 O5_2 1_555 1_555
P1A C6A 1_555 1_555
P2A C23A 1_555 1_555
O1_2 N1_2 1_555 1_555
O2_2 N1_2 1_555 1_555
O3A Ag1 1_555 1_555
O3_2 Ag1A_3 1_555 1_555
O3A_2 Ag1A_3 1_555 1_555
O4_2 N3_2 1_555 1_555
O5A Ag2 1_555 1_555
O5_2 Ag2A_3 1_555 1_555
O5A_2 Ag2A_3 1_555 1_555
O6_2 N3_2 1_555 1_555
N1_2 O3_2 1_555 1_555
N2A Ag1A_3 1_555 1_555
N3_2 O5_2 1_555 1_555
N4A Ag2A_3 1_555 1_555
C1A N2A 1_555 1_555
H1A C1A 1_555 1_555
C2A C1A 1_555 1_555
H2A C2A 1_555 1_555
C3A C3 1_555 1_555
C4A C3A 1_555 1_555
H3A C4A 1_555 1_555
C5A N2A 1_555 1_555
H4A C5A 1_555 1_555
C6A C6 1_555 1_555
H5A C6A 1_555 1_555
H6A C6A 1_555 1_555
C7A P1A 1_555 1_555
C8A C7A 1_555 1_555
H7A C8A 1_555 1_555
C9A C8A 1_555 1_555
H8A C9A 1_555 1_555
C10A C9A 1_555 1_555
H9A C10A 1_555 1_555
C11A C10A 1_555 1_555
H10A C11A 1_555 1_555
C12A C7A 1_555 1_555
H11A C12A 1_555 1_555
C13A P1A 1_555 1_555
C14A C13A 1_555 1_555
H12A C14A 1_555 1_555
C15A C14A 1_555 1_555
H13A C15A 1_555 1_555
C16A C15A 1_555 1_555
H14A C16A 1_555 1_555
C17A C16A 1_555 1_555
H15A C17A 1_555 1_555
C18A C13A 1_555 1_555
H16A C18A 1_555 1_555
C19A H17A 1_555 1_555
C20A C20 1_555 1_555
C21A C20A 1_555 1_555
H18A C21A 1_555 1_555
C22A N4A 1_555 1_555
H19A C22A 1_555 1_555
C23A C23 1_555 1_555
H20A C23A 1_555 1_555
H21A C23A 1_555 1_555
C24A P2A 1_555 1_555
C25A C24A 1_555 1_555
H22A C25A 1_555 1_555
C26A C25A 1_555 1_555
H23A C26A 1_555 1_555
C27A C26A 1_555 1_555
H24A C27A 1_555 1_555
C28A C27A 1_555 1_555
H25A C28A 1_555 1_555
C29A C24A 1_555 1_555
H26A C29A 1_555 1_555
C30A P2A 1_555 1_555
C31A C30A 1_555 1_555
H27A C31A 1_555 1_555
C32A C31A 1_555 1_555
H28A C32A 1_555 1_555
C33A C32A 1_555 1_555
H29A C33A 1_555 1_555
C34A C33A 1_555 1_555
H30A C34A 1_555 1_555
C35A C30A 1_555 1_555
H31A C35A 1_555 1_555
C36A N4A 1_555 1_555
H32A C36A 1_555 1_555
C4 C5 1_555 1_555
C11 C12 1_555 1_555
C17 C18 1_555 1_555
C19 C36 1_555 1_555
C21 C22 1_555 1_555
C28 C29 1_555 1_555
C34 C35 1_555 1_555
Ag1A_2 O3A 1_555 1_555
Ag1_2 O3A_2 1_555 1_555
Ag2A_2 O5A 1_555 1_555
Ag2_2 O5A_2 1_555 1_555
C2A C3A 1_555 1_555
C4A C5A 1_555 1_555
C11A C12A 1_555 1_555
C17A C18A 1_555 1_555
C19A C20A 1_555 1_555
C19A C36A 1_555 1_555
C21A C22A 1_555 1_555
C28A C29A 1_555 1_555
C34A C35A 1_555 1_555

#END
