
#######################################################################
#
#                 Cambridge Crystallographic Data Centre
#                                CCDC 
#
#######################################################################
#
# If this CIF has been generated from an entry in the Cambridge 
# Structural Database, then it will include bibliographic, chemical, 
# crystal, experimental, refinement or atomic coordinate data resulting 
# from the CCDC's data processing and validation procedures.
#
#######################################################################

data_XUGJEO
_symmetry_cell_setting           triclinic
_symmetry_space_group_name_H-M   'P -1'
_symmetry_Int_Tables_number      2
_space_group_name_Hall           '-P 1'
loop_
_symmetry_equiv_pos_site_id
_symmetry_equiv_pos_as_xyz
1 x,y,z
2 -x,-y,-z
_cell_length_a                   8.7065(10)
_cell_length_b                   9.5300(10)
_cell_length_c                   10.3274(10)
_cell_angle_alpha                73.350(18)
_cell_angle_beta                 86.90(2)
_cell_angle_gamma                80.50(2)
_cell_volume                     809.688
loop_
_atom_site_label
_atom_site_type_symbol
_atom_site_fract_x
_atom_site_fract_y
_atom_site_fract_z
O17 O 0.3415(5) 0.0331(5) 0.0822(4)
H3 H 0.335(8) -0.011(8) 0.017(6)
H4 H 0.434(4) 0.036(9) 0.113(8)
N1 N 0.8063(6) 0.1429(5) 0.6535(5)
H5 H 0.7122(14) 0.165(6) 0.653(6)
H6 H 0.838(7) 0.122(6) 0.584(3)
H7 H 0.832(7) 0.069(4) 0.719(4)
H8 H 0.848(7) 0.211(4) 0.663(6)
N2 N 0.2714(6) 0.2981(5) 0.8528(5)
H9 H 0.354(3) 0.310(6) 0.814(5)
H10 H 0.242(6) 0.363(4) 0.890(5)
H11 H 0.204(4) 0.298(6) 0.799(4)
H12 H 0.282(7) 0.217(3) 0.911(4)
Nd1 Nd 0.79962(2) 0.19266(2) 0.18191(2)
Nd2 Nd 0.64809(2) -0.40249(2) 0.58892(2)
O1 O 0.8250(4) 0.0227(4) 0.4160(3)
O2 O 0.7367(4) -0.1635(4) 0.5708(3)
O3 O 0.5393(4) -0.1857(4) 0.3918(3)
O4 O 0.6009(4) 0.0206(4) 0.2452(3)
O5 O 0.7661(4) 0.4527(4) 0.0353(3)
O6 O 0.7245(4) 0.5912(4) -0.1790(3)
O7 O 0.5933(4) 0.3742(4) -0.2280(3)
O8 O 0.6246(4) 0.2438(4) -0.0120(3)
O9 O 0.9601(4) 0.1911(4) -0.0298(3)
O10 O 1.0875(4) 0.0567(4) -0.1577(3)
O11 O 0.8607(4) -0.3544(4) 0.4153(3)
O12 O 1.1054(4) -0.4217(4) 0.3562(3)
O13 O 0.8315(4) 0.3448(4) 0.3398(4)
O14 O 0.5933(4) 0.3108(4) 0.3056(3)
O15 O 0.6258(4) 0.4349(4) 0.4493(3)
O16 O 1.0775(4) 0.1795(5) 0.2237(4)
C1 C 0.7368(5) -0.0726(5) 0.4557(4)
C2 C 0.6147(5) -0.0796(5) 0.3547(4)
C3 C 0.7181(5) 0.4774(5) -0.0829(4)
C4 C 0.6391(5) 0.3542(5) -0.1105(4)
C5 C 1.0137(5) 0.0720(5) -0.0540(4)
C6 C 0.9897(5) -0.4352(5) 0.4340(4)
C7 C 0.6892(5) 0.3645(5) 0.3651(4)
H1 H 1.129(7) 0.175(8) 0.297(4)
H2 H 1.127(8) 0.148(13) 0.156(6)
C5A C 0.9863(5) -0.0720(5) 0.0540(4)
O9A O 1.0399(4) -0.1911(4) 0.0298(3)
O10A O 0.9125(4) -0.0567(4) 0.1577(3)
C6A C 1.0103(5) -0.5648(5) 0.5660(4)
O11A O 1.1393(4) -0.6456(4) 0.5847(3)
O12A O 0.8946(4) -0.5783(4) 0.6438(3)
Nd1A Nd 1.20038(2) -0.19266(2) -0.18191(2)
Nd2_2 Nd 0.64809(2) 0.59751(2) -0.41108(2)
O5_2 O 0.7661(4) -0.5473(4) 1.0353(3)
O6_2 O 0.7245(4) -0.4088(4) 0.8210(3)
O7_2 O 0.5933(4) -0.6258(4) 0.7720(3)
O8_2 O 0.6246(4) -0.7562(4) 0.9880(3)
C3_2 C 0.7181(5) -0.5226(5) 0.9171(4)
C4_2 C 0.6391(5) -0.6458(5) 0.8895(4)
O13A O 0.1685(4) -0.3448(4) 0.6602(4)
O14A O 0.4067(4) -0.3108(4) 0.6944(3)
O15A O 0.3742(4) -0.4349(4) 0.5507(3)
C7A C 0.3108(5) -0.3645(5) 0.6349(4)
O1A O 1.1750(4) -0.0227(4) -0.4160(3)
O2A O 1.2633(4) 0.1635(4) -0.5708(3)
O3A O 1.4607(4) 0.1857(4) -0.3918(3)
O4A O 1.3991(4) -0.0206(4) -0.2452(3)
C1A C 1.2632(5) 0.0726(5) -0.4557(4)
C2A C 1.3853(5) 0.0796(5) -0.3547(4)
O16A O 0.9225(4) -0.1795(5) -0.2237(4)
H1A H 0.871(7) -0.175(8) -0.297(4)
H2A H 0.873(8) -0.148(13) -0.156(6)
O15_2 O 0.6258(4) -0.5651(4) 0.4493(3)
Nd2A Nd 1.35191(2) -0.59751(2) 0.41108(2)
Nd2A_2 Nd 0.35191(2) 0.40249(2) 0.41108(2)
Nd2_3 Nd 0.64809(2) 0.59751(2) 0.58892(2)
O5A O 1.2339(4) -0.4527(4) -0.0353(3)
O8A O 1.3754(4) -0.2438(4) 0.0120(3)
O13A_2 O 1.1685(4) -0.3448(4) -0.3398(4)
O14A_2 O 1.4067(4) -0.3108(4) -0.3056(3)
O2_2 O 0.7367(4) 0.8365(4) -0.4292(3)
O3_2 O 0.5393(4) 0.8143(4) -0.6082(3)
O11_2 O 0.8607(4) 0.6456(4) -0.5847(3)
O12A_2 O 0.8946(4) 0.4217(4) -0.3562(3)
O14A_3 O 0.4067(4) 0.6892(4) -0.3056(3)
O15_3 O 0.6258(4) 0.4349(4) -0.5507(3)
O15A_2 O 0.3742(4) 0.5651(4) -0.4493(3)
Nd1_2 Nd 0.79962(2) -0.80734(2) 1.18191(2)
Nd1A_2 Nd 0.20038(2) -0.19266(2) 0.81809(2)
Nd2A_3 Nd 0.35191(2) -0.59751(2) 0.41108(2)
Nd2A_4 Nd 1.35191(2) 0.40249(2) -0.58892(2)
loop_
_geom_bond_atom_site_label_1
_geom_bond_atom_site_label_2
_geom_bond_site_symmetry_1
_geom_bond_site_symmetry_2
Nd1 O1 1_555 1_555
Nd2 O2 1_555 1_555
O1 C1 1_555 1_555
O2 C1 1_555 1_555
O3 Nd2 1_555 1_555
O4 Nd1 1_555 1_555
O5 Nd1 1_555 1_555
O6 C3 1_555 1_555
O7 C4 1_555 1_555
O8 Nd1 1_555 1_555
O9 Nd1 1_555 1_555
O10 C5 1_555 1_555
O11 Nd2 1_555 1_555
O12 C6 1_555 1_555
O13 Nd1 1_555 1_555
O14 Nd1 1_555 1_555
O15 C7 1_555 1_555
O16 Nd1 1_555 1_555
O17 H3 1_555 1_555
C1 C2 1_555 1_555
C2 O3 1_555 1_555
C3 O5 1_555 1_555
C4 O8 1_555 1_555
C5 O9 1_555 1_555
C6 O11 1_555 1_555
C7 O13 1_555 1_555
N1 H5 1_555 1_555
N2 H9 1_555 1_555
H1 O16 1_555 1_555
H2 O16 1_555 1_555
H4 O17 1_555 1_555
H6 N1 1_555 1_555
H7 N1 1_555 1_555
H8 N1 1_555 1_555
H10 N2 1_555 1_555
H11 N2 1_555 1_555
H12 N2 1_555 1_555
C5A C5 1_555 1_555
O9A C5A 1_555 1_555
O10A Nd1 1_555 1_555
C6A C6 1_555 1_555
O11A C6A 1_555 1_555
O12A Nd2 1_555 1_555
Nd1A O10 1_555 1_555
Nd2_2 O6 1_555 1_555
O5_2 C3_2 1_555 1_555
O6_2 Nd2 1_555 1_555
O7_2 Nd2 1_555 1_555
O8_2 C4_2 1_555 1_555
C3_2 O6_2 1_555 1_555
C4_2 O7_2 1_555 1_555
O13A C7A 1_555 1_555
O14A Nd2 1_555 1_555
O15A Nd2 1_555 1_555
C7A O14A 1_555 1_555
O1A Nd1A 1_555 1_555
O2A C1A 1_555 1_555
O3A C2A 1_555 1_555
O4A Nd1A 1_555 1_555
C1A O1A 1_555 1_555
C2A O4A 1_555 1_555
O16A Nd1A 1_555 1_555
H1A O16A 1_555 1_555
H2A O16A 1_555 1_555
O15_2 Nd2 1_555 1_555
Nd2A O12 1_555 1_555
Nd2A_2 O14 1_555 1_555
Nd2_3 O15 1_555 1_555
O5A Nd1A 1_555 1_555
O8A Nd1A 1_555 1_555
O13A_2 Nd1A 1_555 1_555
O14A_2 Nd1A 1_555 1_555
O2_2 Nd2_2 1_555 1_555
O3_2 Nd2_2 1_555 1_555
O11_2 Nd2_2 1_555 1_555
O12A_2 Nd2_2 1_555 1_555
O14A_3 Nd2_2 1_555 1_555
O15_3 Nd2_2 1_555 1_555
O15A_2 Nd2_2 1_555 1_555
Nd1_2 O5_2 1_555 1_555
Nd1A_2 O13A 1_555 1_555
Nd2A_3 O15A 1_555 1_555
Nd2A_4 O2A 1_555 1_555
O4 C2 1_555 1_555
O7 Nd2_2 1_555 1_555
O14 C7 1_555 1_555
O15 Nd2A_2 1_555 1_555
C3 C4 1_555 1_555
C5A O10A 1_555 1_555
O9A Nd1A 1_555 1_555
C6A O12A 1_555 1_555
O11A Nd2A 1_555 1_555
O8_2 Nd1_2 1_555 1_555
C3_2 C4_2 1_555 1_555
O14A Nd1A_2 1_555 1_555
O15A C7A 1_555 1_555
O3A Nd2A_4 1_555 1_555
C1A C2A 1_555 1_555
O15_2 Nd2A_3 1_555 1_555

#END
