
#######################################################################
#
#                 Cambridge Crystallographic Data Centre
#                                CCDC 
#
#######################################################################
#
# If this CIF has been generated from an entry in the Cambridge 
# Structural Database, then it will include bibliographic, chemical, 
# crystal, experimental, refinement or atomic coordinate data resulting 
# from the CCDC's data processing and validation procedures.
#
#######################################################################

data_XUGJAM
_symmetry_cell_setting           monoclinic
_symmetry_space_group_name_H-M   'C 2/c'
_symmetry_Int_Tables_number      15
_space_group_name_Hall           '-C 2yn'
loop_
_symmetry_equiv_pos_site_id
_symmetry_equiv_pos_as_xyz
1 x,y,z
2 -x,y,1/2-z
3 1/2+x,1/2+y,z
4 1/2-x,1/2+y,1/2-z
5 -x,-y,-z
6 x,-y,1/2+z
7 1/2-x,1/2-y,-z
8 1/2+x,1/2-y,1/2+z
_cell_length_a                   19.550(4)
_cell_length_b                   15.097(3)
_cell_length_c                   17.258(3)
_cell_angle_alpha                90
_cell_angle_beta                 114.80(3)
_cell_angle_gamma                90
_cell_volume                     4623.89
loop_
_atom_site_label
_atom_site_type_symbol
_atom_site_fract_x
_atom_site_fract_y
_atom_site_fract_z
In1 In 0.34434(2) 0.09428(3) 0.45689(2)
O1 O 0.2500(2) 0.1611(3) 0.3686(3)
O2 O 0.1917(3) 0.0315(4) 0.3356(3)
O3 O -0.1224(2) 0.2735(3) 0.0389(3)
O4 O -0.0474(2) 0.3883(3) 0.0671(3)
O5 O 0.3919(3) 0.0605(4) 0.3683(4)
O6 O 0.4083(3) 0.2040(4) 0.3877(4)
N1 N 0.3541(3) -0.0521(3) 0.4889(3)
N2 N 0.2780(3) 0.0684(4) 0.5374(3)
C1 C 0.1263(3) 0.1620(4) 0.2614(4)
C2 C 0.0628(3) 0.1170(4) 0.2036(4)
H1 H 0.0613 0.0555 0.2044
C3 C 0.0021(3) 0.1637(4) 0.1452(4)
H2 H -0.0399 0.1337 0.1066
C4 C 0.0043(3) 0.2558(4) 0.1446(3)
C5 C 0.0685(4) 0.3005(4) 0.2014(4)
H3 H 0.0705 0.3620 0.2001
C6 C 0.1279(3) 0.2542(4) 0.2584(4)
H4 H 0.1703 0.2844 0.2960
C7 C 0.1928(4) 0.1123(5) 0.3266(4)
C8 C -0.0593(3) 0.3078(4) 0.0805(4)
C9 C 0.4594(4) 0.1337(4) 0.3000(4)
C10 C 0.4798(4) 0.2125(5) 0.2750(4)
H5 H 0.4664 0.2660 0.2916
C11 C 0.4797(6) 0.0553(5) 0.2738(7)
H6 H 0.4654 0.0017 0.2890
C12 C 0.4182(4) 0.1333(6) 0.3559(4)
C13 C 0.3930(4) -0.1105(4) 0.4652(4)
H7 H 0.4168 -0.0918 0.4313
C14 C 0.3988(4) -0.2002(4) 0.4907(5)
H8 H 0.4246 -0.2400 0.4715
C15 C 0.3670(4) -0.2295(5) 0.5429(5)
H9 H 0.3717 -0.2883 0.5604
C16 C 0.3270(4) -0.1685(4) 0.5694(4)
C17 C 0.3212(3) -0.0812(4) 0.5398(4)
C18 C 0.2929(4) -0.1909(5) 0.6258(5)
H10 H 0.2978 -0.2484 0.6469
C19 C 0.2542(4) -0.1315(5) 0.6490(5)
H11 H 0.2322 -0.1488 0.6851
C20 C 0.2458(4) -0.0410(5) 0.6191(5)
C21 C 0.2067(4) 0.0252(5) 0.6407(5)
H12 H 0.1844 0.0122 0.6776
C22 C 0.2010(4) 0.1084(5) 0.6084(5)
H13 H 0.1728 0.1513 0.6206
C23 C 0.2379(3) 0.1288(5) 0.5570(4)
H14 H 0.2346 0.1860 0.5357
C24 C 0.2809(3) -0.0158(4) 0.5659(4)
O5A O 0.6081(3) 0.0605(4) 0.1317(4)
O6A O 0.5917(3) 0.2040(4) 0.1123(4)
C9A C 0.5406(4) 0.1337(4) 0.2000(4)
C10A C 0.5202(4) 0.2125(5) 0.2250(4)
H5A H 0.5336 0.2660 0.2084
C11A C 0.5203(6) 0.0553(5) 0.2262(7)
H6A H 0.5346 0.0017 0.2110
C12A C 0.5818(4) 0.1333(6) 0.1441(4)
In1A In 0.65566(2) 0.09428(3) 0.04311(2)
O1A O 0.7500(2) 0.1611(3) 0.1314(3)
O2A O 0.8083(3) 0.0315(4) 0.1644(3)
O3A O 1.1224(2) 0.2735(3) 0.4611(3)
O4A O 1.0474(2) 0.3883(3) 0.4329(3)
N1A N 0.6459(3) -0.0521(3) 0.0111(3)
N2A N 0.7220(3) 0.0684(4) -0.0374(3)
C1A C 0.8737(3) 0.1620(4) 0.2386(4)
C2A C 0.9372(3) 0.1170(4) 0.2964(4)
H1A H 0.9387 0.0555 0.2956
C3A C 0.9979(3) 0.1637(4) 0.3548(4)
H2A H 1.0399 0.1337 0.3934
C4A C 0.9957(3) 0.2558(4) 0.3554(3)
C5A C 0.9315(4) 0.3005(4) 0.2986(4)
H3A H 0.9295 0.3620 0.2999
C6A C 0.8721(3) 0.2542(4) 0.2416(4)
H4A H 0.8297 0.2844 0.2040
C7A C 0.8072(4) 0.1123(5) 0.1734(4)
C8A C 1.0593(3) 0.3078(4) 0.4195(4)
C13A C 0.6070(4) -0.1105(4) 0.0348(4)
H7A H 0.5832 -0.0918 0.0687
C14A C 0.6012(4) -0.2002(4) 0.0093(5)
H8A H 0.5754 -0.2400 0.0285
C15A C 0.6330(4) -0.2295(5) -0.0429(5)
H9A H 0.6283 -0.2883 -0.0604
C16A C 0.6730(4) -0.1685(4) -0.0694(4)
C17A C 0.6788(3) -0.0812(4) -0.0398(4)
C18A C 0.7071(4) -0.1909(5) -0.1258(5)
H10A H 0.7022 -0.2484 -0.1469
C19A C 0.7458(4) -0.1315(5) -0.1490(5)
H11A H 0.7678 -0.1488 -0.1851
C20A C 0.7542(4) -0.0410(5) -0.1191(5)
C21A C 0.7933(4) 0.0252(5) -0.1407(5)
H12A H 0.8156 0.0122 -0.1776
C22A C 0.7990(4) 0.1084(5) -0.1084(5)
H13A H 0.8272 0.1513 -0.1206
C23A C 0.7621(3) 0.1288(5) -0.0570(4)
H14A H 0.7654 0.1860 -0.0357
C24A C 0.7191(3) -0.0158(4) -0.0659(4)
In1F In 1.15566(2) 0.40572(3) 0.54311(2)
In1G In -0.15566(2) 0.40572(3) -0.04311(2)
O3F O 0.6224(2) 0.2265(3) -0.0389(3)
O3G O 0.3776(2) 0.2265(3) 0.5389(3)
O4F O 0.5474(2) 0.1117(3) -0.0671(3)
O4G O 0.4526(2) 0.1117(3) 0.5671(3)
O7 O 0.5064(10) 0.4182(13) 0.4502(13)
H15 H 0.4672 0.4488 0.4407
H16 H 0.5199 0.3915 0.4977
O8 O 0.0659(5) -0.0744(4) 0.3312(6)
H17 H 0.0816 -0.0979 0.3804
H18 H 0.0289 -0.0405 0.3235
loop_
_geom_bond_atom_site_label_1
_geom_bond_atom_site_label_2
_geom_bond_site_symmetry_1
_geom_bond_site_symmetry_2
In1 O1 1_555 1_555
O1 C7 1_555 1_555
O2 C7 1_555 1_555
O3 C8 1_555 1_555
O4 C8 1_555 1_555
O5 In1 1_555 1_555
O6 In1 1_555 1_555
N1 In1 1_555 1_555
N2 In1 1_555 1_555
C1 C2 1_555 1_555
C2 H1 1_555 1_555
C3 C2 1_555 1_555
H2 C3 1_555 1_555
C4 C3 1_555 1_555
C5 C4 1_555 1_555
H3 C5 1_555 1_555
C6 C1 1_555 1_555
H4 C6 1_555 1_555
C7 C1 1_555 1_555
C8 C4 1_555 1_555
C9 C10 1_555 1_555
C10 H5 1_555 1_555
C11 C9 1_555 1_555
H6 C11 1_555 1_555
C12 O5 1_555 1_555
C13 N1 1_555 1_555
H7 C13 1_555 1_555
C14 C13 1_555 1_555
H8 C14 1_555 1_555
C15 C14 1_555 1_555
H9 C15 1_555 1_555
C16 C15 1_555 1_555
C17 N1 1_555 1_555
C18 C16 1_555 1_555
H10 C18 1_555 1_555
C19 C18 1_555 1_555
H11 C19 1_555 1_555
C20 C19 1_555 1_555
C21 C20 1_555 1_555
H12 C21 1_555 1_555
C22 C21 1_555 1_555
H13 C22 1_555 1_555
C23 N2 1_555 1_555
H14 C23 1_555 1_555
C24 N2 1_555 1_555
O7 H15 1_555 1_555
H16 O7 1_555 1_555
O8 H17 1_555 1_555
H18 O8 1_555 1_555
O5A C12A 1_555 1_555
O6A C12A 1_555 1_555
C9A C10A 1_555 1_555
C10A C10 1_555 1_555
H5A C10A 1_555 1_555
C11A C11 1_555 1_555
H6A C11A 1_555 1_555
C12A C9A 1_555 1_555
In1A O5A 1_555 1_555
O1A In1A 1_555 1_555
O2A C7A 1_555 1_555
O3A C8A 1_555 1_555
O4A C8A 1_555 1_555
N1A In1A 1_555 1_555
N2A In1A 1_555 1_555
C1A C2A 1_555 1_555
C2A H1A 1_555 1_555
C3A C2A 1_555 1_555
H2A C3A 1_555 1_555
C4A C3A 1_555 1_555
C5A C4A 1_555 1_555
H3A C5A 1_555 1_555
C6A C1A 1_555 1_555
H4A C6A 1_555 1_555
C7A O1A 1_555 1_555
C8A C4A 1_555 1_555
C13A N1A 1_555 1_555
H7A C13A 1_555 1_555
C14A C13A 1_555 1_555
H8A C14A 1_555 1_555
C15A C14A 1_555 1_555
H9A C15A 1_555 1_555
C16A C15A 1_555 1_555
C17A N1A 1_555 1_555
C18A C16A 1_555 1_555
H10A C18A 1_555 1_555
C19A C18A 1_555 1_555
H11A C19A 1_555 1_555
C20A C19A 1_555 1_555
C21A C20A 1_555 1_555
H12A C21A 1_555 1_555
C22A C21A 1_555 1_555
H13A C22A 1_555 1_555
C23A N2A 1_555 1_555
H14A C23A 1_555 1_555
C24A N2A 1_555 1_555
In1F O3A 1_555 1_555
In1G O3 1_555 1_555
O3F In1A 1_555 1_555
O3G In1 1_555 1_555
O4F In1A 1_555 1_555
O4G In1 1_555 1_555
O4 In1G 1_555 1_555
O6 C12 1_555 1_555
C5 C6 1_555 1_555
C9 C12 1_555 1_555
C16 C17 1_555 1_555
C17 C24 1_555 1_555
C20 C24 1_555 1_555
C22 C23 1_555 1_555
O6A In1A 1_555 1_555
C9A C11A 1_555 1_555
O4A In1F 1_555 1_555
C1A C7A 1_555 1_555
C5A C6A 1_555 1_555
C16A C17A 1_555 1_555
C17A C24A 1_555 1_555
C20A C24A 1_555 1_555
C22A C23A 1_555 1_555

#END
