
#######################################################################
#
#                 Cambridge Crystallographic Data Centre
#                                CCDC 
#
#######################################################################
#
# If this CIF has been generated from an entry in the Cambridge 
# Structural Database, then it will include bibliographic, chemical, 
# crystal, experimental, refinement or atomic coordinate data resulting 
# from the CCDC's data processing and validation procedures.
#
#######################################################################

data_XUGJEQ
_symmetry_cell_setting           monoclinic
_symmetry_space_group_name_H-M   'P 21/n'
_symmetry_Int_Tables_number      14
_space_group_name_Hall           '-P 2yn'
loop_
_symmetry_equiv_pos_site_id
_symmetry_equiv_pos_as_xyz
1 x,y,z
2 1/2-x,1/2+y,1/2-z
3 -x,-y,-z
4 1/2+x,1/2-y,1/2+z
_cell_length_a                   8.8585(7)
_cell_length_b                   15.4548(12)
_cell_length_c                   13.3204(11)
_cell_angle_alpha                90
_cell_angle_beta                 94.052(2)
_cell_angle_gamma                90
_cell_volume                     1819.09
loop_
_atom_site_label
_atom_site_type_symbol
_atom_site_fract_x
_atom_site_fract_y
_atom_site_fract_z
In1 In 1.86082(2) 0.178843(12) 0.649385(14)
Cl1 Cl 2.06491(9) 0.10448(6) 0.57615(7)
O1 O 1.8225(3) 0.05299(14) 0.74805(15)
O2 O 1.9430(3) 0.16789(13) 0.80740(16)
O3 O 1.8491(3) 0.28025(13) 0.51903(16)
O4 O 1.9652(3) 0.31099(13) 0.66382(16)
N1 N 1.6370(3) 0.23010(15) 0.69479(17)
N2 N 1.6770(3) 0.12470(14) 0.54005(16)
C1 C 1.9507(3) 0.04329(18) 0.9125(2)
C2 C 2.0339(4) 0.0862(2) 0.9886(2)
H1 H 2.0570 0.1444 0.9812
C3 C 1.9170(4) -0.0432(2) 0.9242(2)
H2 H 1.8611 -0.0726 0.8732
C4 C 1.9013(4) 0.0898(2) 0.8174(2)
C5 C 1.9657(4) 0.41846(19) 0.5354(2)
C6 C 1.9226(5) 0.4417(2) 0.4376(3)
H3 H 1.8707 0.4025 0.3948
C7 C 2.0429(5) 0.4766(2) 0.5967(2)
H4 H 2.0730 0.4610 0.6625
C8 C 1.9250(4) 0.33199(19) 0.5742(2)
C9 C 1.5126(3) 0.21037(19) 0.6353(2)
C10 C 1.3714(4) 0.2389(3) 0.6597(3)
H5 H 1.2859 0.2263 0.6176
C11 C 1.3581(5) 0.2856(3) 0.7461(3)
H6 H 1.2635 0.3039 0.7636
C12 C 1.4861(5) 0.3054(3) 0.8069(3)
H7 H 1.4800 0.3373 0.8657
C13 C 1.6226(4) 0.2763(2) 0.7778(2)
H8 H 1.7095 0.2896 0.8181
C14 C 1.5368(3) 0.15648(17) 0.5454(2)
C15 C 1.4225(4) 0.1366(2) 0.4731(2)
H9 H 1.3257 0.1589 0.4776
C16 C 1.4537(4) 0.0831(2) 0.3937(2)
H10 H 1.3785 0.0697 0.3439
C17 C 1.5967(4) 0.0504(2) 0.3896(2)
H11 H 1.6197 0.0135 0.3377
C18 C 1.7055(4) 0.07299(18) 0.4635(2)
H12 H 1.8030 0.0514 0.4601
O1B O 2.1775(3) -0.05299(14) 1.25195(15)
O2B O 2.0570(3) -0.16789(13) 1.19260(16)
C1B C 2.0493(3) -0.04329(18) 1.0875(2)
C2B C 1.9661(4) -0.0862(2) 1.0114(2)
H1B H 1.9430 -0.1444 1.0188
C3B C 2.0830(4) 0.0432(2) 1.0758(2)
H2B H 2.1389 0.0726 1.1268
C4B C 2.0987(4) -0.0898(2) 1.1826(2)
O3B O 2.1509(3) 0.71975(13) 0.48097(16)
O4B O 2.0348(3) 0.68901(13) 0.33618(16)
C5B C 2.0343(4) 0.58154(19) 0.4646(2)
C6B C 2.0774(5) 0.5583(2) 0.5624(3)
H3B H 2.1293 0.5975 0.6052
C7B C 1.9571(5) 0.5234(2) 0.4033(2)
H4B H 1.9270 0.5390 0.3375
C8B C 2.0750(4) 0.66801(19) 0.4258(2)
In1B In 2.13918(2) -0.178843(12) 1.350615(14)
Cl1B Cl 1.93509(9) -0.10448(6) 1.42385(7)
N1B N 2.3630(3) -0.23010(15) 1.30521(17)
N2B N 2.3230(3) -0.12470(14) 1.45995(16)
C9B C 2.4874(3) -0.21037(19) 1.3647(2)
C10B C 2.6286(4) -0.2389(3) 1.3403(3)
H5B H 2.7141 -0.2263 1.3824
C11B C 2.6419(5) -0.2856(3) 1.2539(3)
H6B H 2.7365 -0.3039 1.2364
C12B C 2.5139(5) -0.3054(3) 1.1931(3)
H7B H 2.5200 -0.3373 1.1343
C13B C 2.3774(4) -0.2763(2) 1.2222(2)
H8B H 2.2905 -0.2896 1.1819
C14B C 2.4632(3) -0.15648(17) 1.4546(2)
C15B C 2.5775(4) -0.1366(2) 1.5269(2)
H9B H 2.6743 -0.1589 1.5224
C16B C 2.5463(4) -0.0831(2) 1.6063(2)
H10B H 2.6215 -0.0697 1.6561
C17B C 2.4033(4) -0.0504(2) 1.6104(2)
H11B H 2.3803 -0.0135 1.6623
C18B C 2.2945(4) -0.07299(18) 1.5365(2)
H12B H 2.1970 -0.0514 1.5399
In1B_2 In 2.13918(2) 0.821157(12) 0.350615(14)
O3B_2 O 2.1509(3) -0.28025(13) 1.48097(16)
O4B_2 O 2.0348(3) -0.31099(13) 1.33618(16)
loop_
_geom_bond_atom_site_label_1
_geom_bond_atom_site_label_2
_geom_bond_site_symmetry_1
_geom_bond_site_symmetry_2
In1 Cl1 1_555 1_555
O1 In1 1_555 1_555
O2 In1 1_555 1_555
O3 In1 1_555 1_555
O4 In1 1_555 1_555
N1 In1 1_555 1_555
N2 In1 1_555 1_555
C1 C2 1_555 1_555
C2 H1 1_555 1_555
C3 C1 1_555 1_555
H2 C3 1_555 1_555
C4 O1 1_555 1_555
C5 C6 1_555 1_555
C6 H3 1_555 1_555
C7 C5 1_555 1_555
H4 C7 1_555 1_555
C8 O3 1_555 1_555
C9 N1 1_555 1_555
C10 C9 1_555 1_555
H5 C10 1_555 1_555
C11 C10 1_555 1_555
H6 C11 1_555 1_555
C12 C11 1_555 1_555
H7 C12 1_555 1_555
C13 N1 1_555 1_555
H8 C13 1_555 1_555
C14 N2 1_555 1_555
C15 C14 1_555 1_555
H9 C15 1_555 1_555
C16 C15 1_555 1_555
H10 C16 1_555 1_555
C17 C16 1_555 1_555
H11 C17 1_555 1_555
C18 N2 1_555 1_555
H12 C18 1_555 1_555
O1B C4B 1_555 1_555
O2B C4B 1_555 1_555
C1B C2B 1_555 1_555
C2B C3 1_555 1_555
H1B C2B 1_555 1_555
C3B C2 1_555 1_555
H2B C3B 1_555 1_555
C4B C1B 1_555 1_555
O3B C8B 1_555 1_555
O4B C8B 1_555 1_555
C5B C6B 1_555 1_555
C6B C7 1_555 1_555
H3B C6B 1_555 1_555
C7B C6 1_555 1_555
H4B C7B 1_555 1_555
C8B C5B 1_555 1_555
In1B O1B 1_555 1_555
Cl1B In1B 1_555 1_555
N1B In1B 1_555 1_555
N2B In1B 1_555 1_555
C9B N1B 1_555 1_555
C10B C9B 1_555 1_555
H5B C10B 1_555 1_555
C11B C10B 1_555 1_555
H6B C11B 1_555 1_555
C12B C11B 1_555 1_555
H7B C12B 1_555 1_555
C13B N1B 1_555 1_555
H8B C13B 1_555 1_555
C14B N2B 1_555 1_555
C15B C14B 1_555 1_555
H9B C15B 1_555 1_555
C16B C15B 1_555 1_555
H10B C16B 1_555 1_555
C17B C16B 1_555 1_555
H11B C17B 1_555 1_555
C18B N2B 1_555 1_555
H12B C18B 1_555 1_555
In1B_2 O3B 1_555 1_555
O3B_2 In1B 1_555 1_555
O4B_2 In1B 1_555 1_555
O2 C4 1_555 1_555
O4 C8 1_555 1_555
C1 C4 1_555 1_555
C5 C8 1_555 1_555
C9 C14 1_555 1_555
C12 C13 1_555 1_555
C17 C18 1_555 1_555
O2B In1B 1_555 1_555
C1B C3B 1_555 1_555
O4B In1B_2 1_555 1_555
C5B C7B 1_555 1_555
C9B C14B 1_555 1_555
C12B C13B 1_555 1_555
C17B C18B 1_555 1_555

#END
