
#######################################################################
#
#                 Cambridge Crystallographic Data Centre
#                                CCDC 
#
#######################################################################
#
# If this CIF has been generated from an entry in the Cambridge 
# Structural Database, then it will include bibliographic, chemical, 
# crystal, experimental, refinement or atomic coordinate data resulting 
# from the CCDC's data processing and validation procedures.
#
#######################################################################

data_XUGKER
_symmetry_cell_setting           monoclinic
_symmetry_space_group_name_H-M   'P 21/c'
_symmetry_Int_Tables_number      14
_space_group_name_Hall           '-P 2ybc'
loop_
_symmetry_equiv_pos_site_id
_symmetry_equiv_pos_as_xyz
1 x,y,z
2 -x,1/2+y,1/2-z
3 -x,-y,-z
4 x,1/2-y,1/2+z
_cell_length_a                   7.7919(12)
_cell_length_b                   22.067(3)
_cell_length_c                   20.892(3)
_cell_angle_alpha                90
_cell_angle_beta                 90.669(2)
_cell_angle_gamma                90
_cell_volume                     3592.01
loop_
_atom_site_label
_atom_site_type_symbol
_atom_site_fract_x
_atom_site_fract_y
_atom_site_fract_z
Ag1 Ag 0.65085(7) -0.04445(2) 0.30781(3)
Ag2 Ag 0.42542(9) -0.11324(3) 0.22007(4)
Ag3 Ag 0.63398(8) -0.18249(3) 0.40223(3)
Ag4 Ag 0.95490(9) -0.19151(3) 0.25647(4)
Ag5 Ag 1.42503(9) -0.23980(4) 0.30026(4)
Br1 Br 0.37709(8) -0.10953(3) 0.35842(3)
Br2 Br 0.56478(9) -0.00529(3) 0.19204(4)
Br3 Br 0.90062(8) -0.11611(3) 0.35562(3)
Br4 Br 0.63326(9) -0.21088(3) 0.20362(4)
Br5 Br 1.13278(9) -0.29273(3) 0.27841(3)
Br6 Br 0.14004(9) -0.14192(3) 0.16215(3)
Br7 Br 0.60734(9) -0.29856(3) 0.39510(4)
N1 N 0.7175(7) 0.0455(2) 0.3643(3)
N2 N 0.8085(6) 0.3180(2) 0.5360(2)
N3 N 1.0860(5) 0.46234(19) 0.6884(2)
N4 N 1.3223(7) 0.3502(2) 0.9914(2)
C1 C 0.7750(9) 0.0457(3) 0.4241(4)
H1 H 0.8067 0.0086 0.4418
C2 C 0.7918(8) 0.0962(3) 0.4623(3)
H2 H 0.8316 0.0933 0.5044
C3 C 0.7461(7) 0.1525(3) 0.4352(3)
C4 C 0.6917(8) 0.1529(3) 0.3719(3)
H3 H 0.6638 0.1893 0.3519
C5 C 0.6788(8) 0.0990(3) 0.3387(3)
H4 H 0.6413 0.1002 0.2963
C6 C 0.8952(8) 0.2683(3) 0.5559(3)
H5 H 0.9713 0.2709 0.5904
C7 C 0.8708(8) 0.2143(3) 0.5250(3)
H6 H 0.9291 0.1801 0.5395
C8 C 0.7604(7) 0.2095(2) 0.4724(3)
C9 C 0.6704(7) 0.2613(3) 0.4550(3)
H7 H 0.5925 0.2600 0.4209
C10 C 0.6957(8) 0.3144(3) 0.4877(3)
H8 H 0.6329 0.3486 0.4760
C11 C 0.8492(8) 0.3768(3) 0.5663(3)
H9 H 0.8643 0.3711 0.6120
H10 H 0.7542 0.4045 0.5595
C12 C 1.0116(7) 0.4038(3) 0.5386(3)
C13 C 1.0866(8) 0.3805(3) 0.4839(3)
H11 H 1.0384 0.3465 0.4645
C14 C 1.2302(8) 0.4064(3) 0.4575(3)
H12 H 1.2777 0.3902 0.4206
C15 C 1.3028(9) 0.4563(3) 0.4864(3)
H13 H 1.3994 0.4742 0.4688
C16 C 1.2333(8) 0.4797(3) 0.5409(3)
H14 H 1.2844 0.5132 0.5604
C17 C 1.0886(7) 0.4545(2) 0.5675(3)
C18 C 1.0120(8) 0.4840(3) 0.6261(3)
H15 H 1.0287 0.5275 0.6232
H16 H 0.8893 0.4765 0.6258
C19 C 1.1676(8) 0.4093(3) 0.6938(3)
H17 H 1.1904 0.3869 0.6572
C20 C 1.2182(8) 0.3875(2) 0.7521(3)
H18 H 1.2734 0.3502 0.7550
C21 C 1.1874(7) 0.4209(2) 0.8075(3)
C22 C 1.1113(8) 0.4775(3) 0.7996(3)
H19 H 1.0958 0.5023 0.8350
C23 C 1.0593(7) 0.4969(2) 0.7406(3)
H20 H 1.0049 0.5342 0.7364
C24 C 1.2531(8) 0.3149(3) 0.9455(3)
H21 H 1.2353 0.2741 0.9546
C25 C 1.2072(8) 0.3361(3) 0.8858(3)
H22 H 1.1606 0.3099 0.8554
C26 C 1.2312(7) 0.3973(3) 0.8711(3)
C27 C 1.3013(8) 0.4340(3) 0.9194(3)
H23 H 1.3188 0.4751 0.9124
C28 C 1.3436(8) 0.4083(3) 0.9770(3)
H24 H 1.3907 0.4334 1.0084
Ag3A Ag 1.36602(8) 0.31751(3) 1.09777(3)
Ag4_2 Ag -0.04510(9) -0.19151(3) 0.25647(4)
Ag5_2 Ag 0.42503(9) -0.23980(4) 0.30026(4)
Br1_2 Br 1.37709(8) -0.10953(3) 0.35842(3)
Br4_2 Br 1.63326(9) -0.21088(3) 0.20362(4)
Br6_2 Br 1.14004(9) -0.14192(3) 0.16215(3)
Br7_2 Br 1.60734(9) -0.29856(3) 0.39510(4)
N4A N 0.6777(7) -0.1498(2) 0.5086(2)
loop_
_geom_bond_atom_site_label_1
_geom_bond_atom_site_label_2
_geom_bond_site_symmetry_1
_geom_bond_site_symmetry_2
Ag1 Br1 1_555 1_555
Ag2 Br1 1_555 1_555
Ag3 Br1 1_555 1_555
Ag4 Br3 1_555 1_555
Ag5 Br5 1_555 1_555
Br1 Ag5_2 1_555 1_555
Br2 Ag1 1_555 1_555
Br3 Ag1 1_555 1_555
Br4 Ag2 1_555 1_555
Br5 Ag4 1_555 1_555
Br6 Ag2 1_555 1_555
Br7 Ag3 1_555 1_555
N1 Ag1 1_555 1_555
N2 C6 1_555 1_555
N3 C18 1_555 1_555
N4 C24 1_555 1_555
C1 N1 1_555 1_555
H1 C1 1_555 1_555
C2 C1 1_555 1_555
H2 C2 1_555 1_555
C3 C2 1_555 1_555
C4 C3 1_555 1_555
H3 C4 1_555 1_555
C5 N1 1_555 1_555
H4 C5 1_555 1_555
C6 H5 1_555 1_555
C7 C6 1_555 1_555
H6 C7 1_555 1_555
C8 C3 1_555 1_555
C9 C8 1_555 1_555
H7 C9 1_555 1_555
C10 N2 1_555 1_555
H8 C10 1_555 1_555
C11 N2 1_555 1_555
H9 C11 1_555 1_555
H10 C11 1_555 1_555
C12 C11 1_555 1_555
C13 C12 1_555 1_555
H11 C13 1_555 1_555
C14 C13 1_555 1_555
H12 C14 1_555 1_555
C15 C14 1_555 1_555
H13 C15 1_555 1_555
C16 C15 1_555 1_555
H14 C16 1_555 1_555
C17 C12 1_555 1_555
C18 C17 1_555 1_555
H15 C18 1_555 1_555
H16 C18 1_555 1_555
C19 N3 1_555 1_555
H17 C19 1_555 1_555
C20 C19 1_555 1_555
H18 C20 1_555 1_555
C21 C20 1_555 1_555
C22 C21 1_555 1_555
H19 C22 1_555 1_555
C23 N3 1_555 1_555
H20 C23 1_555 1_555
C24 H21 1_555 1_555
C25 C24 1_555 1_555
H22 C25 1_555 1_555
C26 C21 1_555 1_555
C27 C26 1_555 1_555
H23 C27 1_555 1_555
C28 N4 1_555 1_555
H24 C28 1_555 1_555
Ag3A N4 1_555 1_555
Ag4_2 Br6 1_555 1_555
Ag5_2 Br4 1_555 1_555
Br1_2 Ag5 1_555 1_555
Br4_2 Ag5 1_555 1_555
Br6_2 Ag4 1_555 1_555
Br7_2 Ag5 1_555 1_555
N4A Ag3 1_555 1_555
Ag2 Br2 1_555 1_555
Ag3 Br3 1_555 1_555
Ag4 Br4 1_555 1_555
Br7 Ag5_2 1_555 1_555
C4 C5 1_555 1_555
C7 C8 1_555 1_555
C9 C10 1_555 1_555
C16 C17 1_555 1_555
C22 C23 1_555 1_555
C25 C26 1_555 1_555
C27 C28 1_555 1_555

#END
