
#######################################################################
#
#                 Cambridge Crystallographic Data Centre
#                                CCDC 
#
#######################################################################
#
# If this CIF has been generated from an entry in the Cambridge 
# Structural Database, then it will include bibliographic, chemical, 
# crystal, experimental, refinement or atomic coordinate data resulting 
# from the CCDC's data processing and validation procedures.
#
#######################################################################

data_XUGKUG
_symmetry_cell_setting           monoclinic
_symmetry_space_group_name_H-M   'P 21/c'
_symmetry_Int_Tables_number      14
_space_group_name_Hall           '-P 2ybc'
loop_
_symmetry_equiv_pos_site_id
_symmetry_equiv_pos_as_xyz
1 x,y,z
2 -x,1/2+y,1/2-z
3 -x,-y,-z
4 x,1/2-y,1/2+z
_cell_length_a                   13.8473(3)
_cell_length_b                   24.4389(5)
_cell_length_c                   15.1853(3)
_cell_angle_alpha                90
_cell_angle_beta                 102.8780(10)
_cell_angle_gamma                90
_cell_volume                     5009.64
loop_
_atom_site_label
_atom_site_type_symbol
_atom_site_fract_x
_atom_site_fract_y
_atom_site_fract_z
N1 N 0.5806(4) 0.2607(3) 0.4293(5)
C1 C 0.6498(6) 0.2971(3) 0.4772(5)
H1 H 0.6297 0.3314 0.4928
C2 C 0.7492(5) 0.2824(4) 0.5017(5)
H2 H 0.7955 0.3068 0.5337
C3 C 0.7793(4) 0.2312(4) 0.4783(6)
H3 H 0.8457 0.2213 0.4947
C4 C 0.7100(6) 0.1947(3) 0.4304(6)
H4 H 0.7302 0.1605 0.4148
C5 C 0.6107(5) 0.2095(3) 0.4059(5)
H5 H 0.5644 0.185 0.3739
C6 C 0.4259(5) 0.3514(3) 0.5871(4)
C7 C 0.5185(5) 0.3427(3) 0.6435(5)
H6 H 0.5417 0.3073 0.6565
C8 C 0.5765(4) 0.3871(4) 0.6803(5)
H7 H 0.6384 0.3813 0.718
C9 C 0.5418(6) 0.4401(3) 0.6607(5)
H8 H 0.5806 0.4697 0.6854
C10 C 0.4492(7) 0.4487(2) 0.6044(6)
H9 H 0.4261 0.4842 0.5913
C11 C 0.3912(5) 0.4044(3) 0.5676(5)
H10 H 0.3293 0.4101 0.5299
C12 C 0.3592(5) 0.1469(2) 0.3585(4)
C13 C 0.4184(5) 0.1042(3) 0.3407(4)
H11 H 0.4509 0.1071 0.2935
C14 C 0.4289(6) 0.0571(2) 0.3933(5)
H12 H 0.4685 0.0285 0.3814
C15 C 0.3803(6) 0.0527(2) 0.4638(5)
H13 H 0.3873 0.0212 0.499
C16 C 0.3211(6) 0.0954(3) 0.4816(4)
H14 H 0.2886 0.0925 0.5288
C17 C 0.3106(5) 0.1425(2) 0.4290(5)
H15 H 0.271 0.1711 0.4409
C18 C -0.0499(5) 0.2526(3) 0.3264(5)
C19 C -0.1060(7) 0.2101(3) 0.2800(6)
H16 H -0.0773 0.176 0.2765
C20 C -0.2050(7) 0.2186(5) 0.2389(6)
H17 H -0.2426 0.1902 0.2079
C21 C -0.2479(5) 0.2696(6) 0.2442(6)
H18 H -0.3142 0.2753 0.2167
C22 C -0.1918(7) 0.3121(4) 0.2905(6)
H19 H -0.2205 0.3462 0.294
C23 C -0.0928(7) 0.3035(3) 0.3316(5)
H20 H -0.0552 0.3319 0.3626
C24 C 0.0622(7) 0.3883(3) 0.6649(5)
C25 C -0.0247(6) 0.4119(4) 0.6783(6)
H21 H -0.0857 0.3972 0.6501
C26 C -0.0204(9) 0.4575(4) 0.7338(7)
H22 H -0.0785 0.4733 0.7428
C27 C 0.0708(11) 0.4795(3) 0.7759(6)
H23 H 0.0737 0.5099 0.8131
C28 C 0.1577(8) 0.4559(4) 0.7625(7)
H24 H 0.2188 0.4705 0.7907
C29 C 0.1534(6) 0.4103(4) 0.7070(6)
H25 H 0.2116 0.3945 0.698
C30 C 0.1688(6) 0.4730(2) 0.4418(5)
C31 C 0.1205(6) 0.4851(3) 0.5104(6)
H26 H 0.071 0.462 0.5213
C32 C 0.1461(7) 0.5317(4) 0.5629(5)
H27 H 0.1138 0.5398 0.6088
C33 C 0.2200(7) 0.5662(3) 0.5467(5)
H28 H 0.2372 0.5974 0.5818
C34 C 0.2683(6) 0.5541(3) 0.4780(6)
H29 H 0.3177 0.5772 0.4672
C35 C 0.2427(6) 0.5075(3) 0.4256(5)
H30 H 0.275 0.4994 0.3796
C36 C 0.5038(5) 0.3793(3) 0.2458(4)
C37 C 0.5760(5) 0.4176(2) 0.2391(5)
H31 H 0.5925 0.445 0.2824
C38 C 0.6234(5) 0.4151(3) 0.1676(6)
H32 H 0.6717 0.4407 0.1631
C39 C 0.5987(6) 0.3742(4) 0.1029(5)
H33 H 0.6304 0.3724 0.055
C40 C 0.5265(6) 0.3359(3) 0.1096(4)
H34 H 0.5099 0.3085 0.0663
C41 C 0.4790(5) 0.3384(3) 0.1811(5)
H35 H 0.4307 0.3128 0.1856
C42 C 0.0557(5) 0.3639(3) 0.0903(5)
C43 C 0.0422(6) 0.3977(4) 0.0148(5)
H36 H 0.0931 0.4022 -0.0154
C44 C -0.0475(7) 0.4246(3) -0.0154(5)
H37 H -0.0565 0.4472 -0.0659
C45 C -0.1236(5) 0.4178(3) 0.0297(7)
H38 H -0.1836 0.4359 0.0095
C46 C -0.1101(5) 0.3841(4) 0.1052(6)
H39 H -0.1611 0.3795 0.1354
C47 C -0.0205(6) 0.3571(3) 0.1354(4)
H40 H -0.0114 0.3345 0.1859
Cl1 Cl 0.2544(2) 0.49332(11) 0.17231(18)
Se1 Se 0.34995(8) 0.28929(4) 0.54007(7)
Se2 Se 0.34710(8) 0.20763(4) 0.27685(6)
Se3 Se 0.09027(8) 0.23750(4) 0.37657(7)
Se4 Se 0.05106(8) 0.32029(4) 0.59685(7)
Se5 Se 0.12816(8) 0.41091(4) 0.36731(7)
Se6 Se 0.43990(8) 0.38798(4) 0.34671(7)
Se7 Se 0.18503(8) 0.32986(4) 0.13285(7)
Hg1 Hg 0.40563(3) 0.287183(16) 0.38512(3)
Hg2 Hg 0.16538(3) 0.326485(18) 0.47755(3)
Hg3 Hg 0.25331(3) 0.404982(17) 0.25687(3)
Hg4 Hg 0.15528(3) 0.243771(17) 0.22833(3)
Se4C Se 0.05106(8) 0.17971(4) 0.09685(7)
Hg4C Hg 0.15528(3) 0.256229(17) 0.72833(3)
loop_
_geom_bond_atom_site_label_1
_geom_bond_atom_site_label_2
_geom_bond_site_symmetry_1
_geom_bond_site_symmetry_2
N1 C1 1_555 1_555
C1 H1 1_555 1_555
C2 C1 1_555 1_555
H2 C2 1_555 1_555
C3 C2 1_555 1_555
H3 C3 1_555 1_555
C4 C3 1_555 1_555
H4 C4 1_555 1_555
C5 N1 1_555 1_555
H5 C5 1_555 1_555
C6 C7 1_555 1_555
C7 H6 1_555 1_555
C8 C7 1_555 1_555
H7 C8 1_555 1_555
C9 C8 1_555 1_555
H8 C9 1_555 1_555
C10 C9 1_555 1_555
H9 C10 1_555 1_555
C11 C6 1_555 1_555
H10 C11 1_555 1_555
C12 C13 1_555 1_555
C13 H11 1_555 1_555
C14 C13 1_555 1_555
H12 C14 1_555 1_555
C15 C14 1_555 1_555
H13 C15 1_555 1_555
C16 C15 1_555 1_555
H14 C16 1_555 1_555
C17 C12 1_555 1_555
H15 C17 1_555 1_555
C18 C19 1_555 1_555
C19 H16 1_555 1_555
C20 C19 1_555 1_555
H17 C20 1_555 1_555
C21 C20 1_555 1_555
H18 C21 1_555 1_555
C22 C21 1_555 1_555
H19 C22 1_555 1_555
C23 C18 1_555 1_555
H20 C23 1_555 1_555
C24 C25 1_555 1_555
C25 H21 1_555 1_555
C26 C25 1_555 1_555
H22 C26 1_555 1_555
C27 C26 1_555 1_555
H23 C27 1_555 1_555
C28 C27 1_555 1_555
H24 C28 1_555 1_555
C29 C24 1_555 1_555
H25 C29 1_555 1_555
C30 C31 1_555 1_555
C31 H26 1_555 1_555
C32 C31 1_555 1_555
H27 C32 1_555 1_555
C33 C32 1_555 1_555
H28 C33 1_555 1_555
C34 C33 1_555 1_555
H29 C34 1_555 1_555
C35 C30 1_555 1_555
H30 C35 1_555 1_555
C36 C37 1_555 1_555
C37 H31 1_555 1_555
C38 C37 1_555 1_555
H32 C38 1_555 1_555
C39 C38 1_555 1_555
H33 C39 1_555 1_555
C40 C39 1_555 1_555
H34 C40 1_555 1_555
C41 C36 1_555 1_555
H35 C41 1_555 1_555
C42 C43 1_555 1_555
C43 H36 1_555 1_555
C44 C43 1_555 1_555
H37 C44 1_555 1_555
C45 C44 1_555 1_555
H38 C45 1_555 1_555
C46 C45 1_555 1_555
H39 C46 1_555 1_555
C47 C42 1_555 1_555
H40 C47 1_555 1_555
Cl1 Hg3 1_555 1_555
Se1 C6 1_555 1_555
Se2 C12 1_555 1_555
Se3 C18 1_555 1_555
Se4 C24 1_555 1_555
Se5 C30 1_555 1_555
Se6 C36 1_555 1_555
Se7 C42 1_555 1_555
Hg1 N1 1_555 1_555
Hg2 Se1 1_555 1_555
Hg3 Se5 1_555 1_555
Hg4 Se2 1_555 1_555
Se4C Hg4 1_555 1_555
Hg4C Se4 1_555 1_555
C4 C5 1_555 1_555
C10 C11 1_555 1_555
C16 C17 1_555 1_555
C22 C23 1_555 1_555
C28 C29 1_555 1_555
C34 C35 1_555 1_555
C40 C41 1_555 1_555
C46 C47 1_555 1_555
Se1 Hg1 1_555 1_555
Se2 Hg1 1_555 1_555
Se3 Hg2 1_555 1_555
Se3 Hg4 1_555 1_555
Se4 Hg2 1_555 1_555
Se5 Hg2 1_555 1_555
Se6 Hg1 1_555 1_555
Se6 Hg3 1_555 1_555
Se7 Hg3 1_555 1_555
Se7 Hg4 1_555 1_555

#END
