
#######################################################################
#
#                 Cambridge Crystallographic Data Centre
#                                CCDC 
#
#######################################################################
#
# If this CIF has been generated from an entry in the Cambridge 
# Structural Database, then it will include bibliographic, chemical, 
# crystal, experimental, refinement or atomic coordinate data resulting 
# from the CCDC's data processing and validation procedures.
#
#######################################################################

data_XUGLUH
_symmetry_cell_setting           monoclinic
_symmetry_space_group_name_H-M   'C 2/c'
_symmetry_Int_Tables_number      15
_space_group_name_Hall           '-C 2yn'
loop_
_symmetry_equiv_pos_site_id
_symmetry_equiv_pos_as_xyz
1 x,y,z
2 -x,y,1/2-z
3 1/2+x,1/2+y,z
4 1/2-x,1/2+y,1/2-z
5 -x,-y,-z
6 x,-y,1/2+z
7 1/2-x,1/2-y,-z
8 1/2+x,1/2-y,1/2+z
_cell_length_a                   29.512(6)
_cell_length_b                   18.174(4)
_cell_length_c                   20.500(4)
_cell_angle_alpha                90
_cell_angle_beta                 113.97(3)
_cell_angle_gamma                90
_cell_volume                     10047
loop_
_atom_site_label
_atom_site_type_symbol
_atom_site_fract_x
_atom_site_fract_y
_atom_site_fract_z
Cd1 Cd 0.906097(11) 0.794466(18) -0.002903(16)
Fe1 Fe 1.04717(3) 0.58070(5) -0.08870(5)
Fe2 Fe 0.83267(3) 0.88692(4) -0.37806(3)
O1 O 0.98828(11) 0.76450(17) 0.03830(17)
O2 O 0.95967(13) 0.7242(2) 0.1147(2)
O3 O 1.09464(15) 0.7519(2) 0.0208(2)
O4 O 0.86138(15) 0.7965(2) -0.13064(17)
O5 O 0.87438(13) 0.68951(19) -0.07649(18)
O6 O 0.76135(15) 0.8439(2) -0.2610(2)
N1 N 0.84751(13) 0.80704(19) 0.04175(18)
N2 N 0.80462(14) 0.7923(2) 0.10986(19)
N3 N 0.91962(13) 0.9735(2) 0.43243(19)
N4 N 0.91568(12) 1.08106(19) 0.48453(18)
C1 C 0.99264(17) 0.7273(3) 0.0930(3)
C2 C 1.04107(18) 0.6847(3) 0.1310(3)
C3 C 1.0530(2) 0.6561(3) 0.1997(3)
H1 H 1.0305 0.6611 0.2206
C4 C 1.0985(3) 0.6200(4) 0.2376(4)
H2 H 1.1055 0.6001 0.2825
C5 C 1.1324(3) 0.6146(4) 0.2075(4)
H3 H 1.1631 0.5933 0.2334
C6 C 1.1213(2) 0.6405(3) 0.1394(3)
H4 H 1.1442 0.6349 0.1192
C7 C 1.07522(18) 0.6756(2) 0.0999(3)
C8 C 1.0674(2) 0.7032(3) 0.0258(3)
C9 C 1.0294(2) 0.6657(3) -0.0374(3)
C10 C 1.00036(19) 0.6017(3) -0.0386(3)
H5 H 0.9999 0.5758 0.0031
C11 C 0.9723(2) 0.5828(5) -0.1120(4)
H6 H 0.9493 0.5413 -0.1294
C12 C 0.9831(3) 0.6351(5) -0.1547(5)
H7 H 0.9693 0.6348 -0.2070
C13 C 1.0184(3) 0.6857(4) -0.1106(4)
H8 H 1.0325 0.7273 -0.1265
C14 C 1.1215(3) 0.5621(5) -0.0414(6)
H9 H 1.1456 0.5901 -0.0016
C15 C 1.1081(4) 0.5761(5) -0.1135(7)
H10 H 1.1206 0.6164 -0.1334
C16 C 1.0740(3) 0.5249(5) -0.1518(4)
H11 H 1.0580 0.5223 -0.2040
C17 C 1.0665(3) 0.4756(4) -0.1054(5)
H12 H 1.0443 0.4329 -0.1193
C18 C 1.0949(3) 0.4983(5) -0.0357(5)
H13 H 1.0975 0.4740 0.0084
C19 C 0.85753(17) 0.7276(3) -0.1324(3)
C20 C 0.82994(16) 0.6895(3) -0.2038(2)
C21 C 0.80313(17) 0.7315(3) -0.2659(2)
C22 C 0.7769(2) 0.6941(3) -0.3310(3)
H14 H 0.7586 0.7207 -0.3720
C23 C 0.7783(2) 0.6175(3) -0.3338(3)
H15 H 0.7619 0.5932 -0.3770
C24 C 0.8039(2) 0.5780(3) -0.2727(3)
H16 H 0.8041 0.5269 -0.2747
C25 C 0.8296(2) 0.6136(3) -0.2075(3)
H17 H 0.8464 0.5861 -0.1665
C26 C 0.7973(2) 0.8161(3) -0.2670(3)
C27 C 0.8364(2) 0.8587(3) -0.2780(2)
C28 C 0.8369(2) 0.9379(3) -0.2865(3)
H18 H 0.8129 0.9729 -0.2826
C29 C 0.8796(2) 0.9559(4) -0.3006(3)
H19 H 0.8893 1.0056 -0.3087
C30 C 0.9047(2) 0.8899(4) -0.3023(3)
H20 H 0.9347 0.8861 -0.3116
C31 C 0.87878(19) 0.8300(3) -0.2880(3)
H21 H 0.8878 0.7779 -0.2864
C32 C 0.7745(2) 0.9322(3) -0.4630(3)
H22 H 0.7537 0.9732 -0.4604
C33 C 0.8185(2) 0.9385(3) -0.4735(3)
H23 H 0.8336 0.9846 -0.4795
C34 C 0.8375(2) 0.8672(4) -0.4737(3)
H24 H 0.8676 0.8548 -0.4805
C35 C 0.8042(2) 0.8167(3) -0.4629(3)
H25 H 0.8076 0.7630 -0.4607
C36 C 0.7654(2) 0.8566(3) -0.4563(3)
H26 H 0.7372 0.8360 -0.4488
C37 C 0.84706(17) 0.7795(2) 0.1014(2)
H27 H 0.8736 0.7537 0.1346
C38 C 0.80061(16) 0.8412(2) 0.0073(2)
C39 C 0.77883(18) 0.8776(3) -0.0594(2)
H28 H 0.7958 0.8833 -0.0886
C40 C 0.7312(2) 0.9043(3) -0.0793(3)
H29 H 0.7163 0.9296 -0.1222
C41 C 0.7046(2) 0.8944(3) -0.0367(3)
H30 H 0.6723 0.9122 -0.0527
C42 C 0.72501(19) 0.8589(3) 0.0283(3)
H31 H 0.7073 0.8529 0.0564
C43 C 0.77366(17) 0.8324(3) 0.0504(3)
C44 C 0.7931(2) 0.7671(3) 0.1702(3)
H32 H 0.8137 0.7248 0.1923
H33 H 0.7588 0.7512 0.1516
C45 C 0.8010(2) 0.8254(4) 0.2274(3)
H34 H 0.7840 0.8701 0.2043
H35 H 0.7859 0.8085 0.2586
C46 C 0.85270(19) 0.8432(3) 0.2706(3)
H36 H 0.8666 0.8684 0.2412
H37 H 0.8712 0.7979 0.2876
C47 C 0.85913(19) 0.8938(3) 0.3373(2)
H38 H 0.8371 0.9358 0.3212
H39 H 0.8501 0.8660 0.3707
C48 C 0.91132(18) 0.9199(3) 0.3740(3)
H40 H 0.9326 0.8777 0.3934
H41 H 0.9211 0.9426 0.3388
C49 C 0.90257(16) 1.0439(3) 0.4233(2)
H42 H 0.8837 1.0642 0.3788
C50 C 0.94678(15) 0.9632(2) 0.5053(2)
C51 C 0.97452(16) 0.9030(3) 0.5451(3)
H43 H 0.9760 0.8585 0.5237
C52 C 0.99939(18) 0.9140(3) 0.6180(3)
H44 H 1.0192 0.8764 0.6460
C53 C 0.99548(18) 0.9807(3) 0.6512(3)
H45 H 1.0118 0.9850 0.7005
C54 C 0.96784(17) 1.0399(3) 0.6117(2)
H46 H 0.9655 1.0835 0.6339
C55 C 0.94362(15) 1.0314(2) 0.5372(2)
Cd1E Cd 0.906097(11) 1.205534(18) -0.502903(16)
Cd1E_2 Cd 0.906097(11) 1.205534(18) 0.497097(16)
Fe1E Fe 1.04717(3) 1.41930(5) -0.58870(5)
Fe2E Fe 0.83267(3) 1.11308(4) -0.87806(3)
O1E O 0.98828(11) 1.23550(17) -0.46170(17)
O2E O 0.95967(13) 1.2758(2) -0.3853(2)
O3E O 1.09464(15) 1.2481(2) -0.4792(2)
O4E O 0.86138(15) 1.2035(2) -0.63064(17)
O5E O 0.87438(13) 1.31049(19) -0.57649(18)
O6E O 0.76135(15) 1.1561(2) -0.7610(2)
N1E N 0.84751(13) 1.19296(19) -0.45825(18)
N2E N 0.80462(14) 1.2077(2) -0.39014(19)
N3E N 0.91962(13) 1.0265(2) -0.06757(19)
N4E N 0.91568(12) 0.91894(19) -0.01547(18)
N4_2 N 0.91568(12) 1.08106(19) -0.51547(18)
C1E C 0.99264(17) 1.2727(3) -0.4070(3)
C2E C 1.04107(18) 1.3153(3) -0.3690(3)
C3E C 1.0530(2) 1.3439(3) -0.3003(3)
H1E H 1.0305 1.3389 -0.2794
C4E C 1.0985(3) 1.3800(4) -0.2624(4)
H2E H 1.1055 1.3999 -0.2175
C5E C 1.1324(3) 1.3854(4) -0.2925(4)
H3E H 1.1631 1.4067 -0.2666
C6E C 1.1213(2) 1.3595(3) -0.3606(3)
H4E H 1.1442 1.3651 -0.3808
C7E C 1.07522(18) 1.3244(2) -0.4001(3)
C8E C 1.0674(2) 1.2968(3) -0.4742(3)
C9E C 1.0294(2) 1.3343(3) -0.5374(3)
C10E C 1.00036(19) 1.3983(3) -0.5386(3)
H5E H 0.9999 1.4242 -0.4969
C11E C 0.9723(2) 1.4172(5) -0.6120(4)
H6E H 0.9493 1.4587 -0.6294
C12E C 0.9831(3) 1.3649(5) -0.6547(5)
H7E H 0.9693 1.3652 -0.7070
C13E C 1.0184(3) 1.3143(4) -0.6106(4)
H8E H 1.0325 1.2727 -0.6265
C14E C 1.1215(3) 1.4379(5) -0.5414(6)
H9E H 1.1456 1.4099 -0.5016
C15E C 1.1081(4) 1.4239(5) -0.6135(7)
H10E H 1.1206 1.3836 -0.6334
C16E C 1.0740(3) 1.4751(5) -0.6518(4)
H11E H 1.0580 1.4777 -0.7040
C17E C 1.0665(3) 1.5244(4) -0.6054(5)
H12E H 1.0443 1.5671 -0.6193
C18E C 1.0949(3) 1.5017(5) -0.5357(5)
H13E H 1.0975 1.5260 -0.4916
C19E C 0.85753(17) 1.2724(3) -0.6324(3)
C20E C 0.82994(16) 1.3105(3) -0.7038(2)
C21E C 0.80313(17) 1.2685(3) -0.7659(2)
C22E C 0.7769(2) 1.3059(3) -0.8310(3)
H14E H 0.7586 1.2793 -0.8720
C23E C 0.7783(2) 1.3825(3) -0.8338(3)
H15E H 0.7619 1.4068 -0.8770
C24E C 0.8039(2) 1.4220(3) -0.7727(3)
H16E H 0.8041 1.4731 -0.7747
C25E C 0.8296(2) 1.3864(3) -0.7075(3)
H17E H 0.8464 1.4139 -0.6665
C26E C 0.7973(2) 1.1839(3) -0.7670(3)
C27E C 0.8364(2) 1.1413(3) -0.7780(2)
C28E C 0.8369(2) 1.0621(3) -0.7865(3)
H18E H 0.8129 1.0271 -0.7826
C29E C 0.8796(2) 1.0441(4) -0.8006(3)
H19E H 0.8893 0.9944 -0.8087
C30E C 0.9047(2) 1.1101(4) -0.8023(3)
H20E H 0.9347 1.1139 -0.8116
C31E C 0.87878(19) 1.1700(3) -0.7880(3)
H21E H 0.8878 1.2221 -0.7864
C32E C 0.7745(2) 1.0678(3) -0.9630(3)
H22E H 0.7537 1.0268 -0.9604
C33E C 0.8185(2) 1.0615(3) -0.9735(3)
H23E H 0.8336 1.0154 -0.9795
C34E C 0.8375(2) 1.1328(4) -0.9737(3)
H24E H 0.8676 1.1452 -0.9805
C35E C 0.8042(2) 1.1833(3) -0.9629(3)
H25E H 0.8076 1.2370 -0.9607
C36E C 0.7654(2) 1.1434(3) -0.9563(3)
H26E H 0.7372 1.1640 -0.9488
C37E C 0.84706(17) 1.2205(2) -0.3986(2)
H27E H 0.8736 1.2463 -0.3654
C38E C 0.80061(16) 1.1588(2) -0.4927(2)
C39E C 0.77883(18) 1.1224(3) -0.5594(2)
H28E H 0.7958 1.1167 -0.5886
C40E C 0.7312(2) 1.0957(3) -0.5793(3)
H29E H 0.7163 1.0704 -0.6222
C41E C 0.7046(2) 1.1056(3) -0.5367(3)
H30E H 0.6723 1.0878 -0.5527
C42E C 0.72501(19) 1.1411(3) -0.4717(3)
H31E H 0.7073 1.1471 -0.4436
C43E C 0.77366(17) 1.1676(3) -0.4496(3)
C44E C 0.7931(2) 1.2329(3) -0.3298(3)
H32E H 0.8137 1.2752 -0.3077
H33E H 0.7588 1.2488 -0.3484
C45E C 0.8010(2) 1.1746(4) -0.2726(3)
H34E H 0.7840 1.1299 -0.2957
H35E H 0.7859 1.1915 -0.2414
C46E C 0.85270(19) 1.1568(3) -0.2294(3)
H36E H 0.8666 1.1316 -0.2588
H37E H 0.8712 1.2021 -0.2124
C47E C 0.85913(19) 1.1062(3) -0.1627(2)
H38E H 0.8371 1.0642 -0.1788
H39E H 0.8501 1.1340 -0.1293
C48E C 0.91132(18) 1.0801(3) -0.1260(3)
H40E H 0.9326 1.1223 -0.1066
H41E H 0.9211 1.0574 -0.1612
C49E C 0.90257(16) 0.9561(3) -0.0767(2)
H42E H 0.8837 0.9358 -0.1212
C50E C 0.94678(15) 1.0368(2) 0.0053(2)
C51E C 0.97452(16) 1.0970(3) 0.0451(3)
H43E H 0.9760 1.1415 0.0237
C52E C 0.99939(18) 1.0860(3) 0.1180(3)
H44E H 1.0192 1.1236 0.1460
C53E C 0.99548(18) 1.0193(3) 0.1512(3)
H45E H 1.0118 1.0150 0.2005
C54E C 0.96784(17) 0.9601(3) 0.1117(2)
H46E H 0.9655 0.9165 0.1339
C55E C 0.94362(15) 0.9686(2) 0.0372(2)
O7 O 0.0000 0.1750(5) 0.7500
H47 H 0.0112 0.2009 0.7877
H47A H -0.0112 0.2009 0.7123
loop_
_geom_bond_atom_site_label_1
_geom_bond_atom_site_label_2
_geom_bond_site_symmetry_1
_geom_bond_site_symmetry_2
Cd1 O1 1_555 1_555
Fe1 C9 1_555 1_555
Fe2 C27 1_555 1_555
O1 C1 1_555 1_555
O2 Cd1 1_555 1_555
O3 C8 1_555 1_555
O4 Cd1 1_555 1_555
O5 Cd1 1_555 1_555
O6 C26 1_555 1_555
N1 Cd1 1_555 1_555
N2 C37 1_555 1_555
N3 C48 1_555 1_555
N4 C49 1_555 1_555
C1 O2 1_555 1_555
C2 C1 1_555 1_555
C3 C2 1_555 1_555
H1 C3 1_555 1_555
C4 C3 1_555 1_555
H2 C4 1_555 1_555
C5 C4 1_555 1_555
H3 C5 1_555 1_555
C6 C5 1_555 1_555
H4 C6 1_555 1_555
C7 C2 1_555 1_555
C8 C7 1_555 1_555
C9 C8 1_555 1_555
C10 Fe1 1_555 1_555
H5 C10 1_555 1_555
C11 Fe1 1_555 1_555
H6 C11 1_555 1_555
C12 Fe1 1_555 1_555
H7 C12 1_555 1_555
C13 Fe1 1_555 1_555
H8 C13 1_555 1_555
C14 Fe1 1_555 1_555
H9 C14 1_555 1_555
C15 Fe1 1_555 1_555
H10 C15 1_555 1_555
C16 Fe1 1_555 1_555
H11 C16 1_555 1_555
C17 Fe1 1_555 1_555
H12 C17 1_555 1_555
C18 Fe1 1_555 1_555
H13 C18 1_555 1_555
C19 O4 1_555 1_555
C20 C19 1_555 1_555
C21 C20 1_555 1_555
C22 C21 1_555 1_555
H14 C22 1_555 1_555
C23 C22 1_555 1_555
H15 C23 1_555 1_555
C24 C23 1_555 1_555
H16 C24 1_555 1_555
C25 C20 1_555 1_555
H17 C25 1_555 1_555
C26 C21 1_555 1_555
C27 C26 1_555 1_555
C28 Fe2 1_555 1_555
H18 C28 1_555 1_555
C29 Fe2 1_555 1_555
H19 C29 1_555 1_555
C30 Fe2 1_555 1_555
H20 C30 1_555 1_555
C31 Fe2 1_555 1_555
H21 C31 1_555 1_555
C32 Fe2 1_555 1_555
H22 C32 1_555 1_555
C33 Fe2 1_555 1_555
H23 C33 1_555 1_555
C34 Fe2 1_555 1_555
H24 C34 1_555 1_555
C35 Fe2 1_555 1_555
H25 C35 1_555 1_555
C36 Fe2 1_555 1_555
H26 C36 1_555 1_555
C37 N1 1_555 1_555
H27 C37 1_555 1_555
C38 N1 1_555 1_555
C39 C38 1_555 1_555
H28 C39 1_555 1_555
C40 C39 1_555 1_555
H29 C40 1_555 1_555
C41 C40 1_555 1_555
H30 C41 1_555 1_555
C42 C41 1_555 1_555
H31 C42 1_555 1_555
C43 N2 1_555 1_555
C44 N2 1_555 1_555
H32 C44 1_555 1_555
H33 C44 1_555 1_555
C45 C44 1_555 1_555
H34 C45 1_555 1_555
H35 C45 1_555 1_555
C46 C45 1_555 1_555
H36 C46 1_555 1_555
H37 C46 1_555 1_555
C47 C46 1_555 1_555
H38 C47 1_555 1_555
H39 C47 1_555 1_555
C48 C47 1_555 1_555
H40 C48 1_555 1_555
H41 C48 1_555 1_555
C49 N3 1_555 1_555
H42 C49 1_555 1_555
C50 N3 1_555 1_555
C51 C50 1_555 1_555
H43 C51 1_555 1_555
C52 C51 1_555 1_555
H44 C52 1_555 1_555
C53 C52 1_555 1_555
H45 C53 1_555 1_555
C54 C53 1_555 1_555
H46 C54 1_555 1_555
C55 N4 1_555 1_555
O7 H47 1_555 1_555
Cd1E O1E 1_555 1_555
Cd1E_2 N4 1_555 1_555
Fe1E C9E 1_555 1_555
Fe2E C27E 1_555 1_555
O1E C1E 1_555 1_555
O2E Cd1E 1_555 1_555
O3E C8E 1_555 1_555
O4E Cd1E 1_555 1_555
O5E Cd1E 1_555 1_555
O6E C26E 1_555 1_555
N1E Cd1E 1_555 1_555
N2E C37E 1_555 1_555
N3E C48E 1_555 1_555
N4E Cd1 1_555 1_555
N4_2 Cd1E 1_555 1_555
C1E O2E 1_555 1_555
C2E C1E 1_555 1_555
C3E C2E 1_555 1_555
H1E C3E 1_555 1_555
C4E C3E 1_555 1_555
H2E C4E 1_555 1_555
C5E C4E 1_555 1_555
H3E C5E 1_555 1_555
C6E C5E 1_555 1_555
H4E C6E 1_555 1_555
C7E C2E 1_555 1_555
C8E C7E 1_555 1_555
C9E C8E 1_555 1_555
C10E Fe1E 1_555 1_555
H5E C10E 1_555 1_555
C11E Fe1E 1_555 1_555
H6E C11E 1_555 1_555
C12E Fe1E 1_555 1_555
H7E C12E 1_555 1_555
C13E Fe1E 1_555 1_555
H8E C13E 1_555 1_555
C14E Fe1E 1_555 1_555
H9E C14E 1_555 1_555
C15E Fe1E 1_555 1_555
H10E C15E 1_555 1_555
C16E Fe1E 1_555 1_555
H11E C16E 1_555 1_555
C17E Fe1E 1_555 1_555
H12E C17E 1_555 1_555
C18E Fe1E 1_555 1_555
H13E C18E 1_555 1_555
C19E O4E 1_555 1_555
C20E C19E 1_555 1_555
C21E C20E 1_555 1_555
C22E C21E 1_555 1_555
H14E C22E 1_555 1_555
C23E C22E 1_555 1_555
H15E C23E 1_555 1_555
C24E C23E 1_555 1_555
H16E C24E 1_555 1_555
C25E C20E 1_555 1_555
H17E C25E 1_555 1_555
C26E C21E 1_555 1_555
C27E C26E 1_555 1_555
C28E Fe2E 1_555 1_555
H18E C28E 1_555 1_555
C29E Fe2E 1_555 1_555
H19E C29E 1_555 1_555
C30E Fe2E 1_555 1_555
H20E C30E 1_555 1_555
C31E Fe2E 1_555 1_555
H21E C31E 1_555 1_555
C32E Fe2E 1_555 1_555
H22E C32E 1_555 1_555
C33E Fe2E 1_555 1_555
H23E C33E 1_555 1_555
C34E Fe2E 1_555 1_555
H24E C34E 1_555 1_555
C35E Fe2E 1_555 1_555
H25E C35E 1_555 1_555
C36E Fe2E 1_555 1_555
H26E C36E 1_555 1_555
C37E N1E 1_555 1_555
H27E C37E 1_555 1_555
C38E N1E 1_555 1_555
C39E C38E 1_555 1_555
H28E C39E 1_555 1_555
C40E C39E 1_555 1_555
H29E C40E 1_555 1_555
C41E C40E 1_555 1_555
H30E C41E 1_555 1_555
C42E C41E 1_555 1_555
H31E C42E 1_555 1_555
C43E N2E 1_555 1_555
C44E N2E 1_555 1_555
H32E C44E 1_555 1_555
H33E C44E 1_555 1_555
C45E C44E 1_555 1_555
H34E C45E 1_555 1_555
H35E C45E 1_555 1_555
C46E C45E 1_555 1_555
H36E C46E 1_555 1_555
H37E C46E 1_555 1_555
C47E C46E 1_555 1_555
H38E C47E 1_555 1_555
H39E C47E 1_555 1_555
C48E C47E 1_555 1_555
H40E C48E 1_555 1_555
H41E C48E 1_555 1_555
C49E N3E 1_555 1_555
H42E C49E 1_555 1_555
C50E N3E 1_555 1_555
C51E C50E 1_555 1_555
H43E C51E 1_555 1_555
C52E C51E 1_555 1_555
H44E C52E 1_555 1_555
C53E C52E 1_555 1_555
H45E C53E 1_555 1_555
C54E C53E 1_555 1_555
H46E C54E 1_555 1_555
C55E N4E 1_555 1_555
H47A O7 1_555 1_555
O5 C19 1_555 1_555
C6 C7 1_555 1_555
C9 C10 1_555 1_555
C9 C13 1_555 1_555
C10 C11 1_555 1_555
C11 C12 1_555 1_555
C12 C13 1_555 1_555
C14 C15 1_555 1_555
C14 C18 1_555 1_555
C15 C16 1_555 1_555
C16 C17 1_555 1_555
C17 C18 1_555 1_555
C24 C25 1_555 1_555
C27 C28 1_555 1_555
C27 C31 1_555 1_555
C28 C29 1_555 1_555
C29 C30 1_555 1_555
C30 C31 1_555 1_555
C32 C33 1_555 1_555
C32 C36 1_555 1_555
C33 C34 1_555 1_555
C34 C35 1_555 1_555
C35 C36 1_555 1_555
C38 C43 1_555 1_555
C42 C43 1_555 1_555
C50 C55 1_555 1_555
C54 C55 1_555 1_555
O5E C19E 1_555 1_555
N4E C49E 1_555 1_555
C6E C7E 1_555 1_555
C9E C10E 1_555 1_555
C9E C13E 1_555 1_555
C10E C11E 1_555 1_555
C11E C12E 1_555 1_555
C12E C13E 1_555 1_555
C14E C15E 1_555 1_555
C14E C18E 1_555 1_555
C15E C16E 1_555 1_555
C16E C17E 1_555 1_555
C17E C18E 1_555 1_555
C24E C25E 1_555 1_555
C27E C28E 1_555 1_555
C27E C31E 1_555 1_555
C28E C29E 1_555 1_555
C29E C30E 1_555 1_555
C30E C31E 1_555 1_555
C32E C33E 1_555 1_555
C32E C36E 1_555 1_555
C33E C34E 1_555 1_555
C34E C35E 1_555 1_555
C35E C36E 1_555 1_555
C38E C43E 1_555 1_555
C42E C43E 1_555 1_555
C50E C55E 1_555 1_555
C54E C55E 1_555 1_555

#END
