
#######################################################################
#
#                 Cambridge Crystallographic Data Centre
#                                CCDC 
#
#######################################################################
#
# If this CIF has been generated from an entry in the Cambridge 
# Structural Database, then it will include bibliographic, chemical, 
# crystal, experimental, refinement or atomic coordinate data resulting 
# from the CCDC's data processing and validation procedures.
#
#######################################################################

data_XUGMAP
_symmetry_cell_setting           triclinic
_symmetry_space_group_name_H-M   'P -1'
_symmetry_Int_Tables_number      2
_space_group_name_Hall           '-P 1'
loop_
_symmetry_equiv_pos_site_id
_symmetry_equiv_pos_as_xyz
1 x,y,z
2 -x,-y,-z
_cell_length_a                   10.2578(5)
_cell_length_b                   15.3684(8)
_cell_length_c                   17.5572(9)
_cell_angle_alpha                73.2300(10)
_cell_angle_beta                 73.6760(10)
_cell_angle_gamma                82.6740(10)
_cell_volume                     2540.03
loop_
_atom_site_label
_atom_site_type_symbol
_atom_site_fract_x
_atom_site_fract_y
_atom_site_fract_z
Cu1 Cu 0.0000 0.5000 0.5000
S1 S -0.31247(9) 0.26379(6) 0.73478(6)
O1 O 0.0110(2) 0.37695(14) 0.57587(12)
C1 C -0.0937(3) 0.6206(2) 0.6058(2)
H1 H -0.1515 0.6426 0.5713
N1 N -0.0012(3) 0.55456(18) 0.59035(15)
Cu2 Cu -0.5000 0.0000 1.0000
S2 S 0.08626(8) -0.89267(6) 0.36768(6)
O2 O -0.2080(2) 0.41657(16) 0.58908(14)
N2 N -0.3450(3) 1.03768(19) 1.29164(17)
C2 C -0.1076(3) 0.6577(2) 0.6701(2)
H2 H -0.1746 0.7030 0.6792
Cu3 Cu -0.38581(4) -0.90908(3) 0.39024(3)
O3 O -0.3367(2) 0.03958(14) 0.91229(12)
C3 C -0.0216(3) 0.6272(2) 0.72115(19)
N3 N -0.0433(3) 0.66309(19) 0.78928(17)
H3 H -0.1260 0.6793 0.8102
O4 O -0.4973(2) 0.14041(16) 0.87420(15)
N4 N -0.2171(3) 0.8937(2) 1.11182(17)
H4 H -0.2800 0.8690 1.1028
C4 C 0.0779(4) 0.5601(2) 0.7051(2)
H5 H 0.1399 0.5395 0.7370
N5 N -0.5287(3) -0.09227(17) 0.94290(16)
O5 O -0.1947(2) -0.90818(18) 0.37708(16)
C5 C 0.0826(3) 0.5246(2) 0.6403(2)
H6 H 0.1468 0.4778 0.6308
O6 O -0.1984(3) -1.06079(19) 0.41381(17)
N6 N -0.4233(3) -0.81369(18) 0.45430(16)
C6 C 0.0517(4) 0.6752(2) 0.8262(2)
N7 N -0.5630(3) -0.29701(18) 0.83573(17)
H7 H -0.6410 -0.3025 0.8287
O7 O 0.3558(2) -0.81929(17) 0.34902(16)
C7 C -0.0027(3) 0.7203(2) 0.8947(2)
N8 N -0.4752(3) -0.62538(18) 0.59414(16)
H8 H -0.4078 -0.5910 0.5800
O8 O 0.4333(2) -0.94914(16) 0.42371(14)
C8 C 0.0343(3) 0.6829(2) 0.9711(2)
O9 O 0.1726(3) 0.6544(2) 0.80300(17)
C9 C 0.1050(4) 0.5974(3) 0.9899(2)
H9 H 0.1274 0.5624 0.9523
O10 O 0.0095(3) 0.9160(2) 1.07188(18)
C10 C 0.1406(5) 0.5656(3) 1.0631(3)
H10 H 0.1872 0.5093 1.0747
O11 O -0.3454(2) -0.35555(16) 0.82271(15)
C11 C 0.1074(5) 0.6171(3) 1.1203(3)
H11 H 0.1329 0.5950 1.1695
O12 O -0.6874(3) -0.64996(19) 0.68127(17)
C12 C 0.0388(4) 0.6986(3) 1.1050(2)
H12 H 0.0167 0.7316 1.1442
C13 C 0.0000(3) 0.7347(2) 1.02961(19)
C14 C -0.0700(3) 0.8211(2) 1.0113(2)
C15 C -0.1093(3) 0.8534(2) 0.9393(2)
H13 H -0.1590 0.9086 0.9292
C16 C -0.0738(3) 0.8023(2) 0.8807(2)
H14 H -0.0993 0.8249 0.8315
C17 C -0.0884(4) 0.8821(2) 1.0673(2)
C18 C -0.2571(3) 0.9432(2) 1.1720(2)
C19 C -0.3665(3) 0.9159(2) 1.2379(2)
H15 H -0.4122 0.8650 1.2435
C20 C -0.4074(4) 0.9650(2) 1.2955(2)
H16 H -0.4825 0.9466 1.3394
C21 C -0.2389(4) 1.0632(3) 1.2273(2)
H17 H -0.1947 1.1142 1.2231
C22 C -0.1912(4) 1.0183(2) 1.1667(2)
H18 H -0.1162 1.0381 1.1232
C23 C -0.6389(4) -0.1420(2) 0.9694(2)
H19 H -0.7095 -0.1298 1.0122
C24 C -0.6524(4) -0.2102(3) 0.9362(2)
H20 H -0.7297 -0.2440 0.9573
C25 C -0.5500(3) -0.2282(2) 0.8711(2)
C26 C -0.4374(4) -0.1768(2) 0.8431(2)
H21 H -0.3664 -0.1867 0.7995
C27 C -0.4309(4) -0.1105(2) 0.8803(2)
H22 H -0.3539 -0.0765 0.8607
C28 C -0.4575(4) -0.3552(2) 0.81206(19)
C29 C -0.4928(3) -0.4217(2) 0.77321(19)
C30 C -0.5471(3) -0.5053(2) 0.82453(19)
C31 C -0.5670(4) -0.5282(2) 0.9112(2)
H23 H -0.5459 -0.4869 0.9351
C32 C -0.6163(4) -0.6091(3) 0.9596(2)
H24 H -0.6287 -0.6229 1.0162
C33 C -0.6488(4) -0.6722(3) 0.9244(2)
H25 H -0.6822 -0.7278 0.9579
C34 C -0.6315(4) -0.6524(2) 0.8418(2)
H26 H -0.6544 -0.6946 0.8197
C35 C -0.5796(3) -0.5690(2) 0.7886(2)
C36 C -0.5512(3) -0.5467(2) 0.7005(2)
C37 C -0.4967(4) -0.4660(2) 0.6535(2)
H27 H -0.4773 -0.4530 0.5965
C38 C -0.4692(4) -0.4019(2) 0.6895(2)
H28 H -0.4350 -0.3463 0.6565
C39 C -0.5807(4) -0.6123(2) 0.6594(2)
C40 C -0.4650(3) -0.6882(2) 0.5482(2)
C41 C -0.5697(4) -0.7409(2) 0.5539(2)
H29 H -0.6555 -0.7349 0.5887
C42 C -0.5433(3) -0.8025(2) 0.5065(2)
H30 H -0.6134 -0.8382 0.5113
C43 C -0.3251(4) -0.7598(2) 0.4471(2)
H31 H -0.2416 -0.7649 0.4098
C44 C -0.3419(3) -0.6976(2) 0.4920(2)
H32 H -0.2707 -0.6617 0.4848
C45 C -0.1141(4) 0.3628(2) 0.60988(18)
C46 C -0.1473(3) 0.2784(2) 0.67788(19)
C47 C -0.0636(4) 0.2075(2) 0.7054(2)
H33 H 0.0298 0.2038 0.6826
C48 C -0.1344(4) 0.1401(2) 0.7724(2)
H34 H -0.0928 0.0867 0.7981
C49 C -0.2695(3) 0.1617(2) 0.79526(19)
C50 C -0.3769(4) 0.1113(2) 0.86414(19)
C51 C -0.1400(3) -0.9898(3) 0.3952(2)
C52 C 0.0057(3) -0.9925(2) 0.3932(2)
C53 C 0.0861(4) -1.0659(2) 0.4169(2)
H35 H 0.0598 -1.1255 0.4316
C54 C 0.2143(3) -1.0425(2) 0.4168(2)
H36 H 0.2819 -1.0849 0.4320
C55 C 0.2289(3) -0.9503(2) 0.3919(2)
C56 C 0.3472(3) -0.8997(2) 0.3865(2)
S1A S -0.68753(9) -0.26379(6) 1.26522(6)
O1A O -1.0110(2) -0.37695(14) 1.42413(12)
S2A S -1.08626(8) 0.89267(6) 1.63232(6)
O2A O -0.7920(2) -0.41657(16) 1.41092(14)
Cu3A Cu -0.61419(4) 0.90908(3) 1.60976(3)
O3A O -0.6633(2) -0.03958(14) 1.08771(12)
O4A O -0.5027(2) -0.14041(16) 1.12580(15)
N5A N -0.4713(3) 0.09227(17) 1.05710(16)
O5A O -0.8053(2) 0.90818(18) 1.62292(16)
O6A O -0.8016(3) 1.06079(19) 1.58619(17)
N6A N -0.5767(3) 0.81369(18) 1.54570(16)
N7A N -0.4370(3) 0.29701(18) 1.16427(17)
H7A H -0.3590 0.3025 1.1713
O7A O -1.3558(2) 0.81929(17) 1.65098(16)
N8A N -0.5248(3) 0.62538(18) 1.40586(16)
H8A H -0.5922 0.5910 1.4200
O8A O -1.4333(2) 0.94914(16) 1.57629(14)
O11A O -0.6546(2) 0.35555(16) 1.17729(15)
O12A O -0.3126(3) 0.64996(19) 1.31873(17)
C23A C -0.3611(4) 0.1420(2) 1.0306(2)
H19A H -0.2905 0.1298 0.9878
C24A C -0.3476(4) 0.2102(3) 1.0638(2)
H20A H -0.2703 0.2440 1.0427
C25A C -0.4500(3) 0.2282(2) 1.1289(2)
C26A C -0.5626(4) 0.1768(2) 1.1569(2)
H21A H -0.6336 0.1867 1.2005
C27A C -0.5691(4) 0.1105(2) 1.1197(2)
H22A H -0.6461 0.0765 1.1393
C28A C -0.5425(4) 0.3552(2) 1.18794(19)
C29A C -0.5072(3) 0.4217(2) 1.22679(19)
C30A C -0.4529(3) 0.5053(2) 1.17547(19)
C31A C -0.4330(4) 0.5282(2) 1.0888(2)
H23A H -0.4541 0.4869 1.0649
C32A C -0.3837(4) 0.6091(3) 1.0404(2)
H24A H -0.3713 0.6229 0.9838
C33A C -0.3512(4) 0.6722(3) 1.0756(2)
H25A H -0.3178 0.7278 1.0421
C34A C -0.3685(4) 0.6524(2) 1.1582(2)
H26A H -0.3456 0.6946 1.1803
C35A C -0.4204(3) 0.5690(2) 1.2114(2)
C36A C -0.4488(3) 0.5467(2) 1.2995(2)
C37A C -0.5033(4) 0.4660(2) 1.3465(2)
H27A H -0.5227 0.4530 1.4035
C38A C -0.5308(4) 0.4019(2) 1.3105(2)
H28A H -0.5650 0.3463 1.3435
C39A C -0.4193(4) 0.6123(2) 1.3406(2)
C40A C -0.5350(3) 0.6882(2) 1.4518(2)
C41A C -0.4303(4) 0.7409(2) 1.4461(2)
H29A H -0.3445 0.7349 1.4113
C42A C -0.4567(3) 0.8025(2) 1.4935(2)
H30A H -0.3866 0.8382 1.4887
C43A C -0.6749(4) 0.7598(2) 1.5529(2)
H31A H -0.7584 0.7649 1.5902
C44A C -0.6581(3) 0.6976(2) 1.5080(2)
H32A H -0.7293 0.6617 1.5152
C45A C -0.8859(4) -0.3628(2) 1.39012(18)
C46A C -0.8527(3) -0.2784(2) 1.32212(19)
C47A C -0.9364(4) -0.2075(2) 1.2946(2)
H33A H -1.0298 -0.2038 1.3174
C48A C -0.8656(4) -0.1401(2) 1.2276(2)
H34A H -0.9072 -0.0867 1.2019
C49A C -0.7305(3) -0.1617(2) 1.20474(19)
C50A C -0.6231(4) -0.1113(2) 1.13586(19)
C51A C -0.8600(3) 0.9898(3) 1.6048(2)
C52A C -1.0057(3) 0.9925(2) 1.6068(2)
C53A C -1.0861(4) 1.0659(2) 1.5831(2)
H35A H -1.0598 1.1255 1.5684
C54A C -1.2143(3) 1.0425(2) 1.5832(2)
H36A H -1.2819 1.0849 1.5680
C55A C -1.2289(3) 0.9503(2) 1.6081(2)
C56A C -1.3472(3) 0.8997(2) 1.6135(2)
C1A C 0.0937(3) 0.3794(2) 0.3942(2)
H1A H 0.1515 0.3574 0.4287
N1A N 0.0012(3) 0.44544(18) 0.40965(15)
N2A N 0.3450(3) -0.03768(19) -0.29164(17)
C2A C 0.1076(3) 0.3423(2) 0.3299(2)
H2A H 0.1746 0.2970 0.3208
C3A C 0.0216(3) 0.3728(2) 0.27885(19)
N3A N 0.0433(3) 0.33691(19) 0.21072(17)
H3A H 0.1260 0.3207 0.1898
N4A N 0.2171(3) 0.1063(2) -0.11182(17)
H4A H 0.2800 0.1310 -0.1028
C4A C -0.0779(4) 0.4399(2) 0.2949(2)
H5A H -0.1399 0.4605 0.2630
C5A C -0.0826(3) 0.4754(2) 0.3597(2)
H6A H -0.1468 0.5222 0.3692
C6A C -0.0517(4) 0.3248(2) 0.1738(2)
C7A C 0.0027(3) 0.2797(2) 0.1053(2)
C8A C -0.0343(3) 0.3171(2) 0.0289(2)
O9A O -0.1726(3) 0.3456(2) 0.19700(17)
C9A C -0.1050(4) 0.4026(3) 0.0101(2)
H9A H -0.1274 0.4376 0.0477
O10A O -0.0095(3) 0.0840(2) -0.07188(18)
C10A C -0.1406(5) 0.4344(3) -0.0631(3)
H10A H -0.1872 0.4907 -0.0747
C11A C -0.1074(5) 0.3829(3) -0.1203(3)
H11A H -0.1329 0.4050 -0.1695
C12A C -0.0388(4) 0.3014(3) -0.1050(2)
H12A H -0.0167 0.2684 -0.1442
C13A C 0.0000(3) 0.2653(2) -0.02961(19)
C14A C 0.0700(3) 0.1789(2) -0.0113(2)
C15A C 0.1093(3) 0.1466(2) 0.0607(2)
H13A H 0.1590 0.0914 0.0708
C16A C 0.0738(3) 0.1977(2) 0.1193(2)
H14A H 0.0993 0.1751 0.1685
C17A C 0.0884(4) 0.1179(2) -0.0673(2)
C18A C 0.2571(3) 0.0568(2) -0.1720(2)
C19A C 0.3665(3) 0.0841(2) -0.2379(2)
H15A H 0.4122 0.1350 -0.2435
C20A C 0.4074(4) 0.0350(2) -0.2955(2)
H16A H 0.4825 0.0534 -0.3394
C21A C 0.2389(4) -0.0632(3) -0.2273(2)
H17A H 0.1947 -0.1142 -0.2231
C22A C 0.1912(4) -0.0183(2) -0.1667(2)
H18A H 0.1162 -0.0381 -0.1232
Cu1_2 Cu -1.0000 -0.5000 1.5000
O1A_2 O -0.0110(2) 0.62305(14) 0.42413(12)
O2A_2 O 0.2080(2) 0.58343(16) 0.41092(14)
N2_2 N -0.3450(3) -0.96232(19) 0.29164(17)
N2A_2 N -0.6550(3) 0.96232(19) 1.70836(17)
Cu3_2 Cu -0.38581(4) 1.09092(3) 1.39024(3)
Cu3_3 Cu 0.61419(4) -0.90908(3) 0.39024(3)
Cu3A_2 Cu -1.61419(4) 0.90908(3) 1.60976(3)
Cu3A_3 Cu 0.38581(4) -0.09092(3) -0.39024(3)
O8_2 O -0.5667(2) -0.94914(16) 0.42371(14)
O8A_2 O -0.4333(2) 0.94914(16) 1.57629(14)
loop_
_geom_bond_atom_site_label_1
_geom_bond_atom_site_label_2
_geom_bond_site_symmetry_1
_geom_bond_site_symmetry_2
Cu1 O1 1_555 1_555
S1 C46 1_555 1_555
O1 C45 1_555 1_555
C1 H1 1_555 1_555
N1 Cu1 1_555 1_555
Cu2 O3 1_555 1_555
S2 C52 1_555 1_555
O2 Cu1 1_555 1_555
N2 C20 1_555 1_555
C2 C1 1_555 1_555
H2 C2 1_555 1_555
Cu3 O5 1_555 1_555
O3 C50 1_555 1_555
C3 C2 1_555 1_555
N3 C3 1_555 1_555
H3 N3 1_555 1_555
O4 Cu2 1_555 1_555
N4 H4 1_555 1_555
C4 C3 1_555 1_555
H5 C4 1_555 1_555
N5 Cu2 1_555 1_555
O5 C51 1_555 1_555
C5 N1 1_555 1_555
H6 C5 1_555 1_555
O6 C51 1_555 1_555
N6 Cu3 1_555 1_555
C6 N3 1_555 1_555
N7 H7 1_555 1_555
O7 C56 1_555 1_555
C7 C6 1_555 1_555
N8 H8 1_555 1_555
O8 C56 1_555 1_555
C8 C7 1_555 1_555
O9 C6 1_555 1_555
C9 C8 1_555 1_555
H9 C9 1_555 1_555
O10 C17 1_555 1_555
C10 C9 1_555 1_555
H10 C10 1_555 1_555
O11 C28 1_555 1_555
C11 C10 1_555 1_555
H11 C11 1_555 1_555
O12 C39 1_555 1_555
C12 C11 1_555 1_555
H12 C12 1_555 1_555
C13 C8 1_555 1_555
C14 C13 1_555 1_555
C15 C14 1_555 1_555
H13 C15 1_555 1_555
C16 C7 1_555 1_555
H14 C16 1_555 1_555
C17 N4 1_555 1_555
C18 N4 1_555 1_555
C19 C18 1_555 1_555
H15 C19 1_555 1_555
C20 C19 1_555 1_555
H16 C20 1_555 1_555
C21 N2 1_555 1_555
H17 C21 1_555 1_555
C22 C18 1_555 1_555
H18 C22 1_555 1_555
C23 N5 1_555 1_555
H19 C23 1_555 1_555
C24 C23 1_555 1_555
H20 C24 1_555 1_555
C25 N7 1_555 1_555
C26 C25 1_555 1_555
H21 C26 1_555 1_555
C27 N5 1_555 1_555
H22 C27 1_555 1_555
C28 N7 1_555 1_555
C29 C28 1_555 1_555
C30 C29 1_555 1_555
C31 C30 1_555 1_555
H23 C31 1_555 1_555
C32 C31 1_555 1_555
H24 C32 1_555 1_555
C33 C32 1_555 1_555
H25 C33 1_555 1_555
C34 C33 1_555 1_555
H26 C34 1_555 1_555
C35 C30 1_555 1_555
C36 C35 1_555 1_555
C37 C36 1_555 1_555
H27 C37 1_555 1_555
C38 C29 1_555 1_555
H28 C38 1_555 1_555
C39 N8 1_555 1_555
C40 N8 1_555 1_555
C41 C40 1_555 1_555
H29 C41 1_555 1_555
C42 N6 1_555 1_555
H30 C42 1_555 1_555
C43 N6 1_555 1_555
H31 C43 1_555 1_555
C44 C40 1_555 1_555
H32 C44 1_555 1_555
C45 O2 1_555 1_555
C46 C45 1_555 1_555
C47 C46 1_555 1_555
H33 C47 1_555 1_555
C48 C47 1_555 1_555
H34 C48 1_555 1_555
C49 S1 1_555 1_555
C50 O4 1_555 1_555
C51 C52 1_555 1_555
C52 C53 1_555 1_555
C53 H35 1_555 1_555
C54 C53 1_555 1_555
H36 C54 1_555 1_555
C55 S2 1_555 1_555
C56 C55 1_555 1_555
S1A C46A 1_555 1_555
O1A C45A 1_555 1_555
S2A C52A 1_555 1_555
O2A C45A 1_555 1_555
Cu3A O5A 1_555 1_555
O3A Cu2 1_555 1_555
O4A Cu2 1_555 1_555
N5A Cu2 1_555 1_555
O5A C51A 1_555 1_555
O6A C51A 1_555 1_555
N6A Cu3A 1_555 1_555
N7A H7A 1_555 1_555
O7A C56A 1_555 1_555
N8A H8A 1_555 1_555
O8A C56A 1_555 1_555
O11A C28A 1_555 1_555
O12A C39A 1_555 1_555
C23A N5A 1_555 1_555
H19A C23A 1_555 1_555
C24A C23A 1_555 1_555
H20A C24A 1_555 1_555
C25A N7A 1_555 1_555
C26A C25A 1_555 1_555
H21A C26A 1_555 1_555
C27A N5A 1_555 1_555
H22A C27A 1_555 1_555
C28A N7A 1_555 1_555
C29A C28A 1_555 1_555
C30A C29A 1_555 1_555
C31A C30A 1_555 1_555
H23A C31A 1_555 1_555
C32A C31A 1_555 1_555
H24A C32A 1_555 1_555
C33A C32A 1_555 1_555
H25A C33A 1_555 1_555
C34A C33A 1_555 1_555
H26A C34A 1_555 1_555
C35A C30A 1_555 1_555
C36A C35A 1_555 1_555
C37A C36A 1_555 1_555
H27A C37A 1_555 1_555
C38A C29A 1_555 1_555
H28A C38A 1_555 1_555
C39A N8A 1_555 1_555
C40A N8A 1_555 1_555
C41A C40A 1_555 1_555
H29A C41A 1_555 1_555
C42A N6A 1_555 1_555
H30A C42A 1_555 1_555
C43A N6A 1_555 1_555
H31A C43A 1_555 1_555
C44A C40A 1_555 1_555
H32A C44A 1_555 1_555
C45A C46A 1_555 1_555
C46A C47A 1_555 1_555
C47A H33A 1_555 1_555
C48A C47A 1_555 1_555
H34A C48A 1_555 1_555
C49A S1A 1_555 1_555
C50A O3A 1_555 1_555
C51A C52A 1_555 1_555
C52A C53A 1_555 1_555
C53A H35A 1_555 1_555
C54A C53A 1_555 1_555
H36A C54A 1_555 1_555
C55A S2A 1_555 1_555
C56A C55A 1_555 1_555
C1A H1A 1_555 1_555
N1A Cu1 1_555 1_555
N2A C20A 1_555 1_555
C2A C1A 1_555 1_555
H2A C2A 1_555 1_555
C3A C2A 1_555 1_555
N3A C3A 1_555 1_555
H3A N3A 1_555 1_555
N4A H4A 1_555 1_555
C4A C3A 1_555 1_555
H5A C4A 1_555 1_555
C5A N1A 1_555 1_555
H6A C5A 1_555 1_555
C6A N3A 1_555 1_555
C7A C6A 1_555 1_555
C8A C7A 1_555 1_555
O9A C6A 1_555 1_555
C9A C8A 1_555 1_555
H9A C9A 1_555 1_555
O10A C17A 1_555 1_555
C10A C9A 1_555 1_555
H10A C10A 1_555 1_555
C11A C10A 1_555 1_555
H11A C11A 1_555 1_555
C12A C11A 1_555 1_555
H12A C12A 1_555 1_555
C13A C8A 1_555 1_555
C14A C13A 1_555 1_555
C15A C14A 1_555 1_555
H13A C15A 1_555 1_555
C16A C7A 1_555 1_555
H14A C16A 1_555 1_555
C17A N4A 1_555 1_555
C18A N4A 1_555 1_555
C19A C18A 1_555 1_555
H15A C19A 1_555 1_555
C20A C19A 1_555 1_555
H16A C20A 1_555 1_555
C21A N2A 1_555 1_555
H17A C21A 1_555 1_555
C22A C18A 1_555 1_555
H18A C22A 1_555 1_555
Cu1_2 O1A 1_555 1_555
O1A_2 Cu1 1_555 1_555
O2A_2 Cu1 1_555 1_555
N2_2 Cu3 1_555 1_555
N2A_2 Cu3A 1_555 1_555
Cu3_2 N2 1_555 1_555
Cu3_3 O8 1_555 1_555
Cu3A_2 O8A 1_555 1_555
Cu3A_3 N2A 1_555 1_555
O8_2 Cu3 1_555 1_555
O8A_2 Cu3A 1_555 1_555
C1 N1 1_555 1_555
C4 C5 1_555 1_555
C12 C13 1_555 1_555
C14 C17 1_555 1_555
C15 C16 1_555 1_555
C21 C22 1_555 1_555
C24 C25 1_555 1_555
C26 C27 1_555 1_555
C34 C35 1_555 1_555
C36 C39 1_555 1_555
C37 C38 1_555 1_555
C41 C42 1_555 1_555
C43 C44 1_555 1_555
C48 C49 1_555 1_555
C49 C50 1_555 1_555
C54 C55 1_555 1_555
O2A Cu1_2 1_555 1_555
O4A C50A 1_555 1_555
C24A C25A 1_555 1_555
C26A C27A 1_555 1_555
C34A C35A 1_555 1_555
C36A C39A 1_555 1_555
C37A C38A 1_555 1_555
C41A C42A 1_555 1_555
C43A C44A 1_555 1_555
C48A C49A 1_555 1_555
C49A C50A 1_555 1_555
C54A C55A 1_555 1_555
C1A N1A 1_555 1_555
C4A C5A 1_555 1_555
C12A C13A 1_555 1_555
C14A C17A 1_555 1_555
C15A C16A 1_555 1_555
C21A C22A 1_555 1_555

#END
