
#######################################################################
#
#                 Cambridge Crystallographic Data Centre
#                                CCDC 
#
#######################################################################
#
# If this CIF has been generated from an entry in the Cambridge 
# Structural Database, then it will include bibliographic, chemical, 
# crystal, experimental, refinement or atomic coordinate data resulting 
# from the CCDC's data processing and validation procedures.
#
#######################################################################

data_XUGMIW
_symmetry_cell_setting           monoclinic
_symmetry_space_group_name_H-M   'C 2/c'
_symmetry_Int_Tables_number      15
_space_group_name_Hall           '-C 2yn'
loop_
_symmetry_equiv_pos_site_id
_symmetry_equiv_pos_as_xyz
1 x,y,z
2 -x,y,1/2-z
3 1/2+x,1/2+y,z
4 1/2-x,1/2+y,1/2-z
5 -x,-y,-z
6 x,-y,1/2+z
7 1/2-x,1/2-y,-z
8 1/2+x,1/2-y,1/2+z
_cell_length_a                   15.7742(12)
_cell_length_b                   12.1109(9)
_cell_length_c                   27.302(2)
_cell_angle_alpha                90
_cell_angle_beta                 101.2720(10)
_cell_angle_gamma                90
_cell_volume                     5115.16
loop_
_atom_site_label
_atom_site_type_symbol
_atom_site_fract_x
_atom_site_fract_y
_atom_site_fract_z
Zn1 Zn 0.0000 0.24577(3) 0.2500
Zn2 Zn 0.349135(19) 0.00708(2) 0.559852(11)
O1 O 0.05086(13) 0.16239(14) 0.30908(7)
O2 O -0.05443(13) 0.03719(19) 0.29098(9)
O3 O 0.10042(17) -0.36156(17) 0.33019(9)
O4 O 0.10228(13) -0.37008(15) 0.41178(8)
O5 O 0.27979(13) -0.05842(15) 0.49935(7)
O6 O 0.24384(14) 0.11172(16) 0.47412(8)
N1 N 0.26442(14) 0.92659(17) 0.09637(8)
N2 N 0.16580(14) 0.81559(18) 0.11446(8)
N3 N 0.19139(15) 0.4666(2) 0.22985(9)
N4 N 0.09494(15) 0.33888(17) 0.23317(8)
N5 N 0.44332(15) 0.11077(17) 0.55164(9)
N6 N 0.51677(16) 0.25944(19) 0.54195(11)
C1 C 0.07299(17) -0.0107(2) 0.34848(10)
C2 C 0.06562(16) -0.1245(2) 0.34194(10)
H1 H 0.0292 -0.1531 0.3139
C3 C 0.11236(16) -0.1955(2) 0.37708(10)
C4 C 0.16671(17) -0.1522(2) 0.41887(10)
H2 H 0.1960 -0.1995 0.4432
C5 C 0.17770(17) -0.0381(2) 0.42461(10)
C6 C 0.13034(17) 0.0312(2) 0.38869(10)
H3 H 0.1376 0.1072 0.3919
C7 C 0.01725(19) 0.0667(2) 0.31280(10)
C8 C 0.10465(17) -0.3199(2) 0.37115(11)
C9 C 0.23809(17) 0.0103(2) 0.46877(10)
C10 C 0.2248(2) 0.9762(2) 0.13114(11)
H4 H 0.2383 1.0458 0.1449
C11 C 0.1640(2) 0.9093(2) 0.14226(11)
H5 H 0.1275 0.9236 0.1645
C12 C 0.22653(18) 0.8295(2) 0.08744(10)
H6 H 0.2405 0.7777 0.0652
C13 C 0.11402(19) 0.7153(2) 0.11545(12)
H7 H 0.0533 0.7333 0.1049
H8 H 0.1291 0.6621 0.0920
C14 C 0.1284(2) 0.6642(3) 0.16686(14)
H9 H 0.0946 0.5969 0.1653
H10 H 0.1073 0.7147 0.1893
C15 C 0.2209(2) 0.6377(3) 0.18783(14)
H11 H 0.2438 0.5945 0.1634
H12 H 0.2533 0.7061 0.1930
C16 C 0.2351(2) 0.5747(3) 0.23647(13)
H13 H 0.2129 0.6173 0.2613
H14 H 0.2966 0.5638 0.2485
C17 C 0.12319(18) 0.4373(2) 0.24873(10)
H15 H 0.0986 0.4810 0.2702
C18 C 0.1486(2) 0.3045(3) 0.20232(13)
H16 H 0.1443 0.2376 0.1853
C19 C 0.2083(2) 0.3825(3) 0.20065(15)
H17 H 0.2528 0.3794 0.1828
C20 C 0.5266(2) 0.0852(3) 0.5522(2)
H18 H 0.5495 0.0143 0.5557
C21 C 0.5716(2) 0.1767(3) 0.5470(2)
H19 H 0.6305 0.1809 0.5471
C22 C 0.4397(2) 0.2166(2) 0.54303(15)
H20 H 0.3889 0.2575 0.5382
C23 C 0.5404(3) 0.3778(3) 0.54062(19)
H21 H 0.5353 0.4115 0.5721
H22 H 0.6005 0.3830 0.5375
C24 C 0.4882(2) 0.4395(2) 0.50052(15)
H23 H 0.4281 0.4336 0.5035
H24 H 0.4938 0.4062 0.4690
Zn2A Zn -0.349135(19) 0.00708(2) -0.059852(11)
Zn2F Zn 0.150865(19) -0.50708(2) 0.440148(11)
Zn2E Zn 0.349135(19) 0.99292(2) 0.059852(11)
Zn2D Zn 0.650865(19) 0.99292(2) 0.440148(11)
Zn2D_2 Zn -0.349135(19) 0.99292(2) 0.440148(11)
Zn2G Zn -0.150865(19) -0.50708(2) 0.059852(11)
O1A O -0.05086(13) 0.16239(14) 0.19092(7)
O2A O 0.05443(13) 0.03719(19) 0.20902(9)
O3A O -0.10042(17) -0.36156(17) 0.16981(9)
O4A O -0.10228(13) -0.37008(15) 0.08822(8)
O4F O 0.39772(13) -0.12992(15) 0.58822(8)
O4G O -0.39772(13) -0.12992(15) -0.08822(8)
O5A O -0.27979(13) -0.05842(15) 0.00065(7)
O6A O -0.24384(14) 0.11172(16) 0.02588(8)
N1A N -0.26442(14) 0.92659(17) 0.40363(8)
N1E N 0.26442(14) 0.07341(17) 0.59637(8)
N1D N -0.26442(14) 0.07341(17) -0.09637(8)
N2A N -0.16580(14) 0.81559(18) 0.38554(8)
N3A N -0.19139(15) 0.4666(2) 0.27015(9)
N4A N -0.09494(15) 0.33888(17) 0.26683(8)
N5D N 0.55668(15) 0.88923(17) 0.44836(9)
N5A N -0.44332(15) 0.11077(17) -0.05164(9)
N6D N 0.48323(16) 0.74056(19) 0.45805(11)
C1A C -0.07299(17) -0.0107(2) 0.15152(10)
C2A C -0.06562(16) -0.1245(2) 0.15806(10)
H1A H -0.0292 -0.1531 0.1861
C3A C -0.11236(16) -0.1955(2) 0.12292(10)
C4A C -0.16671(17) -0.1522(2) 0.08113(10)
H2A H -0.1960 -0.1995 0.0568
C5A C -0.17770(17) -0.0381(2) 0.07539(10)
C6A C -0.13034(17) 0.0312(2) 0.11131(10)
H3A H -0.1376 0.1072 0.1081
C7A C -0.01725(19) 0.0667(2) 0.18720(10)
C8A C -0.10465(17) -0.3199(2) 0.12885(11)
C9A C -0.23809(17) 0.0103(2) 0.03123(10)
C10A C -0.2248(2) 0.9762(2) 0.36886(11)
H4A H -0.2383 1.0458 0.3551
C11A C -0.1640(2) 0.9093(2) 0.35774(11)
H5A H -0.1275 0.9236 0.3355
C12A C -0.22653(18) 0.8295(2) 0.41256(10)
H6A H -0.2405 0.7777 0.4348
C13A C -0.11402(19) 0.7153(2) 0.38455(12)
H7A H -0.0533 0.7333 0.3951
H8A H -0.1291 0.6621 0.4080
C14A C -0.1284(2) 0.6642(3) 0.33314(14)
H9A H -0.0946 0.5969 0.3347
H10A H -0.1073 0.7147 0.3107
C15A C -0.2209(2) 0.6377(3) 0.31217(14)
H11A H -0.2438 0.5945 0.3366
H12A H -0.2533 0.7061 0.3070
C16A C -0.2351(2) 0.5747(3) 0.26353(13)
H13A H -0.2129 0.6173 0.2387
H14A H -0.2966 0.5638 0.2515
C17A C -0.12319(18) 0.4373(2) 0.25127(10)
H15A H -0.0986 0.4810 0.2298
C18A C -0.1486(2) 0.3045(3) 0.29768(13)
H16A H -0.1443 0.2376 0.3147
C19A C -0.2083(2) 0.3825(3) 0.29935(15)
H17A H -0.2528 0.3794 0.3172
C20D C 0.4734(2) 0.9148(3) 0.4478(2)
H18D H 0.4505 0.9857 0.4443
C21D C 0.4284(2) 0.8233(3) 0.4530(2)
H19D H 0.3695 0.8191 0.4529
C22D C 0.5603(2) 0.7834(2) 0.45697(15)
H20D H 0.6111 0.7425 0.4618
C23D C 0.4596(3) 0.6222(3) 0.45938(19)
H21D H 0.4647 0.5885 0.4279
H22D H 0.3995 0.6170 0.4625
C24D C 0.5118(2) 0.5605(2) 0.49948(15)
H23D H 0.5719 0.5664 0.4965
H24D H 0.5062 0.5938 0.5310
loop_
_geom_bond_atom_site_label_1
_geom_bond_atom_site_label_2
_geom_bond_site_symmetry_1
_geom_bond_site_symmetry_2
Zn1 O1 1_555 1_555
Zn2 O5 1_555 1_555
O1 C7 1_555 1_555
O2 C7 1_555 1_555
O3 C8 1_555 1_555
O4 C8 1_555 1_555
O5 C9 1_555 1_555
O6 C9 1_555 1_555
N1 C10 1_555 1_555
N2 C11 1_555 1_555
N3 C16 1_555 1_555
N4 Zn1 1_555 1_555
N5 Zn2 1_555 1_555
N6 C21 1_555 1_555
C1 C2 1_555 1_555
C2 H1 1_555 1_555
C3 C2 1_555 1_555
C4 C3 1_555 1_555
H2 C4 1_555 1_555
C5 C4 1_555 1_555
C6 C1 1_555 1_555
H3 C6 1_555 1_555
C7 C1 1_555 1_555
C8 C3 1_555 1_555
C9 C5 1_555 1_555
C10 H4 1_555 1_555
C11 C10 1_555 1_555
H5 C11 1_555 1_555
C12 N1 1_555 1_555
H6 C12 1_555 1_555
C13 N2 1_555 1_555
H7 C13 1_555 1_555
H8 C13 1_555 1_555
C14 C13 1_555 1_555
H9 C14 1_555 1_555
H10 C14 1_555 1_555
C15 C14 1_555 1_555
H11 C15 1_555 1_555
H12 C15 1_555 1_555
C16 C15 1_555 1_555
H13 C16 1_555 1_555
H14 C16 1_555 1_555
C17 N3 1_555 1_555
H15 C17 1_555 1_555
C18 N4 1_555 1_555
H16 C18 1_555 1_555
C19 N3 1_555 1_555
H17 C19 1_555 1_555
C20 N5 1_555 1_555
H18 C20 1_555 1_555
C21 C20 1_555 1_555
H19 C21 1_555 1_555
C22 N5 1_555 1_555
H20 C22 1_555 1_555
C23 N6 1_555 1_555
H21 C23 1_555 1_555
H22 C23 1_555 1_555
C24 C23 1_555 1_555
H23 C24 1_555 1_555
H24 C24 1_555 1_555
Zn2A O4G 1_555 1_555
Zn2F O4 1_555 1_555
Zn2E N1 1_555 1_555
Zn2D N5D 1_555 1_555
Zn2D_2 N1A 1_555 1_555
Zn2G O4A 1_555 1_555
O1A Zn1 1_555 1_555
O2A C7A 1_555 1_555
O3A C8A 1_555 1_555
O4A C8A 1_555 1_555
O4F Zn2 1_555 1_555
O5A Zn2A 1_555 1_555
O6A C9A 1_555 1_555
N1A C10A 1_555 1_555
N1E Zn2 1_555 1_555
N1D Zn2A 1_555 1_555
N2A C11A 1_555 1_555
N3A C16A 1_555 1_555
N4A Zn1 1_555 1_555
N5D C20D 1_555 1_555
N5A Zn2A 1_555 1_555
N6D C21D 1_555 1_555
C1A C2A 1_555 1_555
C2A H1A 1_555 1_555
C3A C2A 1_555 1_555
C4A C3A 1_555 1_555
H2A C4A 1_555 1_555
C5A C4A 1_555 1_555
C6A C1A 1_555 1_555
H3A C6A 1_555 1_555
C7A O1A 1_555 1_555
C8A C3A 1_555 1_555
C9A O5A 1_555 1_555
C10A H4A 1_555 1_555
C11A C10A 1_555 1_555
H5A C11A 1_555 1_555
C12A N1A 1_555 1_555
H6A C12A 1_555 1_555
C13A N2A 1_555 1_555
H7A C13A 1_555 1_555
H8A C13A 1_555 1_555
C14A C13A 1_555 1_555
H9A C14A 1_555 1_555
H10A C14A 1_555 1_555
C15A C14A 1_555 1_555
H11A C15A 1_555 1_555
H12A C15A 1_555 1_555
C16A C15A 1_555 1_555
H13A C16A 1_555 1_555
H14A C16A 1_555 1_555
C17A N3A 1_555 1_555
H15A C17A 1_555 1_555
C18A N4A 1_555 1_555
H16A C18A 1_555 1_555
C19A N3A 1_555 1_555
H17A C19A 1_555 1_555
C20D H18D 1_555 1_555
C21D C20D 1_555 1_555
H19D C21D 1_555 1_555
C22D N5D 1_555 1_555
H20D C22D 1_555 1_555
C23D N6D 1_555 1_555
H21D C23D 1_555 1_555
H22D C23D 1_555 1_555
C24D C24 1_555 1_555
H23D C24D 1_555 1_555
H24D C24D 1_555 1_555
N2 C12 1_555 1_555
N4 C17 1_555 1_555
N6 C22 1_555 1_555
C5 C6 1_555 1_555
C18 C19 1_555 1_555
N2A C12A 1_555 1_555
N4A C17A 1_555 1_555
N6D C22D 1_555 1_555
C1A C7A 1_555 1_555
C5A C6A 1_555 1_555
C5A C9A 1_555 1_555
C18A C19A 1_555 1_555
C23D C24D 1_555 1_555

#END
