
#######################################################################
#
#                 Cambridge Crystallographic Data Centre
#                                CCDC 
#
#######################################################################
#
# If this CIF has been generated from an entry in the Cambridge 
# Structural Database, then it will include bibliographic, chemical, 
# crystal, experimental, refinement or atomic coordinate data resulting 
# from the CCDC's data processing and validation procedures.
#
#######################################################################

data_XUGMOD
_symmetry_cell_setting           orthorhombic
_symmetry_space_group_name_H-M   'P 21 21 2'
_symmetry_Int_Tables_number      18
_space_group_name_Hall           'P 2 2ab'
loop_
_symmetry_equiv_pos_site_id
_symmetry_equiv_pos_as_xyz
1 x,y,z
2 -x,-y,z
3 1/2+x,1/2-y,-z
4 1/2-x,1/2+y,-z
_cell_length_a                   10.041(2)
_cell_length_b                   16.353(3)
_cell_length_c                   5.9975(12)
_cell_angle_alpha                90
_cell_angle_beta                 90
_cell_angle_gamma                90
_cell_volume                     984.792
loop_
_atom_site_label
_atom_site_type_symbol
_atom_site_fract_x
_atom_site_fract_y
_atom_site_fract_z
Ag1 Ag 0.0000 0.0000 -0.12313(12)
C1 C 0.2183(6) 0.0861(4) -0.0148(11)
C2 C 0.3318(5) 0.1187(3) 0.1220(10)
C3 C 0.4050(7) 0.1857(4) 0.0438(12)
H1 H 0.3849 0.2087 -0.0977
C4 C 0.5077(7) 0.2188(4) 0.1729(11)
H2 H 0.5565 0.2646 0.1193
C5 C 0.5383(6) 0.1852(4) 0.3785(11)
C6 C 0.4665(7) 0.1175(5) 0.4568(13)
H3 H 0.4890 0.0934 0.5959
C7 C 0.3628(7) 0.0857(4) 0.3314(11)
H4 H 0.3124 0.0411 0.3877
C8 C 0.6468(6) 0.2240(4) 0.5204(12)
H5 H 0.6784 0.2747 0.4476
H6 H 0.6096 0.2388 0.6679
C9 C 0.8507(6) 0.1574(4) 0.3822(10)
H7 H 0.8528 0.1831 0.2401
C10 C 0.9342(6) 0.1035(4) 0.4650(12)
H8 H 1.0077 0.0821 0.3842
C11 C 0.7924(6) 0.1223(5) 0.7255(12)
H9 H 0.7439 0.1195 0.8613
N1 N 0.7597(5) 0.1677(3) 0.5508(9)
N2 N 0.9044(5) 0.0811(3) 0.6806(9)
O1 O 0.1382(5) 0.0374(3) 0.0862(8)
O2 O 0.2063(5) 0.1070(4) -0.2112(9)
C1A C -0.2183(6) -0.0861(4) -0.0148(11)
C2A C -0.3318(5) -0.1187(3) 0.1220(10)
C3A C -0.4050(7) -0.1857(4) 0.0438(12)
H1A H -0.3849 -0.2087 -0.0977
C4A C -0.5077(7) -0.2188(4) 0.1729(11)
H2A H -0.5565 -0.2646 0.1193
C5A C -0.5383(6) -0.1852(4) 0.3785(11)
C6A C -0.4665(7) -0.1175(5) 0.4568(13)
H3A H -0.4890 -0.0934 0.5959
C7A C -0.3628(7) -0.0857(4) 0.3314(11)
H4A H -0.3124 -0.0411 0.3877
C8A C -0.6468(6) -0.2240(4) 0.5204(12)
H5A H -0.6784 -0.2747 0.4476
H6A H -0.6096 -0.2388 0.6679
C9A C -0.8507(6) -0.1574(4) 0.3822(10)
H7A H -0.8528 -0.1831 0.2401
C10A C -0.9342(6) -0.1035(4) 0.4650(12)
H8A H -1.0077 -0.0821 0.3842
C11A C -0.7924(6) -0.1223(5) 0.7255(12)
H9A H -0.7439 -0.1195 0.8613
N1A N -0.7597(5) -0.1677(3) 0.5508(9)
N2A N -0.9044(5) -0.0811(3) 0.6806(9)
O1A O -0.1382(5) -0.0374(3) 0.0862(8)
O2A O -0.2063(5) -0.1070(4) -0.2112(9)
Ag1_2 Ag -1.0000 0.0000 0.87687(12)
Ag1_3 Ag 1.0000 0.0000 0.87687(12)
N2_2 N -0.0956(5) 0.0811(3) -0.3194(9)
N2A_2 N 0.0956(5) -0.0811(3) -0.3194(9)
loop_
_geom_bond_atom_site_label_1
_geom_bond_atom_site_label_2
_geom_bond_site_symmetry_1
_geom_bond_site_symmetry_2
Ag1 O1 1_555 1_555
C1 C2 1_555 1_555
C2 C3 1_555 1_555
C3 H1 1_555 1_555
C4 C3 1_555 1_555
H2 C4 1_555 1_555
C5 C4 1_555 1_555
C6 C5 1_555 1_555
H3 C6 1_555 1_555
C7 C2 1_555 1_555
H4 C7 1_555 1_555
C8 C5 1_555 1_555
H5 C8 1_555 1_555
H6 C8 1_555 1_555
C9 H7 1_555 1_555
C10 C9 1_555 1_555
H8 C10 1_555 1_555
C11 H9 1_555 1_555
N1 C8 1_555 1_555
N2 C10 1_555 1_555
O1 C1 1_555 1_555
O2 C1 1_555 1_555
C1A C2A 1_555 1_555
C2A C3A 1_555 1_555
C3A H1A 1_555 1_555
C4A C3A 1_555 1_555
H2A C4A 1_555 1_555
C5A C4A 1_555 1_555
C6A C5A 1_555 1_555
H3A C6A 1_555 1_555
C7A C2A 1_555 1_555
H4A C7A 1_555 1_555
C8A C5A 1_555 1_555
H5A C8A 1_555 1_555
H6A C8A 1_555 1_555
C9A H7A 1_555 1_555
C10A C9A 1_555 1_555
H8A C10A 1_555 1_555
C11A H9A 1_555 1_555
N1A C8A 1_555 1_555
N2A C10A 1_555 1_555
O1A Ag1 1_555 1_555
O2A C1A 1_555 1_555
Ag1_2 N2A 1_555 1_555
Ag1_3 N2 1_555 1_555
N2_2 Ag1 1_555 1_555
N2A_2 Ag1 1_555 1_555
C6 C7 1_555 1_555
C9 N1 1_555 1_555
C11 N1 1_555 1_555
C11 N2 1_555 1_555
C1A O1A 1_555 1_555
C6A C7A 1_555 1_555
C9A N1A 1_555 1_555
C11A N1A 1_555 1_555
C11A N2A 1_555 1_555

#END
