
#######################################################################
#
#                 Cambridge Crystallographic Data Centre
#                                CCDC 
#
#######################################################################
#
# If this CIF has been generated from an entry in the Cambridge 
# Structural Database, then it will include bibliographic, chemical, 
# crystal, experimental, refinement or atomic coordinate data resulting 
# from the CCDC's data processing and validation procedures.
#
#######################################################################

data_XUGMET
_symmetry_cell_setting           monoclinic
_symmetry_space_group_name_H-M   'P 21/c'
_symmetry_Int_Tables_number      14
_space_group_name_Hall           '-P 2ybc'
loop_
_symmetry_equiv_pos_site_id
_symmetry_equiv_pos_as_xyz
1 x,y,z
2 -x,1/2+y,1/2-z
3 -x,-y,-z
4 x,1/2-y,1/2+z
_cell_length_a                   9.723(3)
_cell_length_b                   14.061(4)
_cell_length_c                   7.1516(18)
_cell_angle_alpha                90
_cell_angle_beta                 97.92(3)
_cell_angle_gamma                90
_cell_volume                     968.406
loop_
_atom_site_label
_atom_site_type_symbol
_atom_site_fract_x
_atom_site_fract_y
_atom_site_fract_z
Mn1 Mn 0.00000 0.00000 0.00000
S1 S -0.443(6) 0.137(4) 0.156(8)
C1 C -0.296(9) 0.084(4) 0.123(16)
N1 N -0.195(10) 0.049(6) 0.099(18)
O1 O 0.130(9) 0.497(6) -0.207(14)
C2 C 0.202(12) 0.438(5) -0.11(3)
O2 O 0.319(9) 0.454(6) -0.021(14)
C3 C 0.138(4) 0.340(2) -0.093(3)
C4 C 0.007(3) 0.317(3) -0.053(2)
C5 C -0.029(5) 0.223(3) -0.037(3)
N2 N 0.062(6) 0.153(3) -0.060(5)
C6 C 0.189(6) 0.174(3) -0.098(5)
C7 C 0.229(4) 0.267(3) -0.115(5)
H1 H -0.058945 0.36663 -0.036816
H2 H -0.119593 0.206905 -0.0094
H3 H 0.253381 0.123382 -0.113998
H4 H 0.320549 0.281532 -0.143293
S1B S 0.443(6) -0.137(4) -0.156(8)
C1B C 0.296(9) -0.084(4) -0.123(16)
N1B N 0.195(10) -0.049(6) -0.099(18)
O1B O -0.130(9) -0.497(6) 0.207(14)
C2B C -0.202(12) -0.438(5) 0.11(3)
O2B O -0.319(9) -0.454(6) 0.021(14)
C3B C -0.138(4) -0.340(2) 0.093(3)
C4B C -0.007(3) -0.317(3) 0.053(2)
C5B C 0.029(5) -0.223(3) 0.037(3)
N2B N -0.062(6) -0.153(3) 0.060(5)
C6B C -0.189(6) -0.174(3) 0.098(5)
C7B C -0.229(4) -0.267(3) 0.115(5)
H1B H 0.058945 -0.36663 0.036816
H2B H 0.119593 -0.206905 0.0094
H3B H -0.253381 -0.123382 0.113998
H4B H -0.320549 -0.281532 0.143293
Mn1A Mn 0.00000 -0.50000 0.50000
Mn1A_2 Mn 0.00000 0.50000 -0.50000
O1A O -0.130(9) -0.003(6) -0.293(14)
O1C O 0.130(9) 0.003(6) 0.293(14)
N3 N 0.434(13) 0.614(6) -0.163(13)
loop_
_geom_bond_atom_site_label_1
_geom_bond_atom_site_label_2
_geom_bond_site_symmetry_1
_geom_bond_site_symmetry_2
Mn1 N1 1_555 1_555
S1 C1 1_555 1_555
C1 N1 1_555 1_555
O1 C2 1_555 1_555
C2 O2 1_555 1_555
C3 C2 1_555 1_555
C4 C3 1_555 1_555
C5 C4 1_555 1_555
N2 Mn1 1_555 1_555
C6 N2 1_555 1_555
C7 C3 1_555 1_555
H1 C4 1_555 1_555
H2 C5 1_555 1_555
H3 C6 1_555 1_555
H4 C7 1_555 1_555
S1B C1B 1_555 1_555
C1B N1B 1_555 1_555
N1B Mn1 1_555 1_555
O1B C2B 1_555 1_555
C2B O2B 1_555 1_555
C3B C2B 1_555 1_555
C4B C3B 1_555 1_555
C5B C4B 1_555 1_555
N2B Mn1 1_555 1_555
C6B N2B 1_555 1_555
C7B C3B 1_555 1_555
H1B C4B 1_555 1_555
H2B C5B 1_555 1_555
H3B C6B 1_555 1_555
H4B C7B 1_555 1_555
Mn1A O1B 1_555 1_555
Mn1A_2 O1 1_555 1_555
O1A Mn1 1_555 1_555
O1C Mn1 1_555 1_555
C5 N2 1_555 1_555
C6 C7 1_555 1_555
C5B N2B 1_555 1_555
C6B C7B 1_555 1_555

#END
