
#######################################################################
#
#                 Cambridge Crystallographic Data Centre
#                                CCDC 
#
#######################################################################
#
# If this CIF has been generated from an entry in the Cambridge 
# Structural Database, then it will include bibliographic, chemical, 
# crystal, experimental, refinement or atomic coordinate data resulting 
# from the CCDC's data processing and validation procedures.
#
#######################################################################

data_XUGMOC
_symmetry_cell_setting           monoclinic
_symmetry_space_group_name_H-M   'C 2/c'
_symmetry_Int_Tables_number      15
_space_group_name_Hall           '-C 2yn'
loop_
_symmetry_equiv_pos_site_id
_symmetry_equiv_pos_as_xyz
1 x,y,z
2 -x,y,1/2-z
3 1/2+x,1/2+y,z
4 1/2-x,1/2+y,1/2-z
5 -x,-y,-z
6 x,-y,1/2+z
7 1/2-x,1/2-y,-z
8 1/2+x,1/2-y,1/2+z
_cell_length_a                   39.019(2)
_cell_length_b                   8.9007(5)
_cell_length_c                   18.7332(11)
_cell_angle_alpha                90
_cell_angle_beta                 111.2760(10)
_cell_angle_gamma                90
_cell_volume                     6062.55
loop_
_atom_site_label
_atom_site_type_symbol
_atom_site_fract_x
_atom_site_fract_y
_atom_site_fract_z
Zn1 Zn 0.667209(7) 0.25103(3) 0.252234(15)
Zn2 Zn 0.5000 0.40175(5) -0.2500
O1 O 0.64717(5) 0.2187(2) 0.14165(9)
O2 O 0.68775(5) 0.0425(2) 0.14224(9)
O3 O 0.65970(6) -0.2501(2) -0.10628(11)
O4 O 0.64042(4) -0.1024(2) -0.20840(9)
O5 O 0.53845(5) 0.2569(2) -0.19458(10)
O6 O 0.56147(5) 0.4213(2) -0.10056(11)
N1 N 0.65525(6) 0.4695(2) 0.24849(11)
N2 N 0.63698(6) 0.6927(2) 0.20093(13)
N3 N 0.46528(6) 0.7032(3) -0.12181(13)
N4 N 0.47450(5) 0.5391(3) -0.20058(12)
N5 N 0.71986(5) 0.1962(2) 0.30820(12)
N6 N 0.76435(6) 0.0427(3) 0.37075(13)
C1 C 0.64783(8) 0.7042(3) 0.27850(17)
H1 H 0.6478 0.7907 0.3063
C2 C 0.65866(8) 0.5663(3) 0.30713(16)
H2 H 0.6671 0.5410 0.3588
C3 C 0.64196(7) 0.5501(3) 0.18516(15)
H3 H 0.6367 0.5123 0.1361
C4 C 0.62406(7) 0.8168(3) 0.14599(18)
H4 H 0.6386 0.8186 0.1136
H5 H 0.6283 0.9108 0.1742
C5 C 0.58391(7) 0.8081(3) 0.09550(16)
C6 C 0.57357(8) 0.8467(3) 0.01913(16)
H6 H 0.5915 0.8737 -0.0004
C7 C 0.53733(8) 0.8458(3) -0.02839(16)
H7 H 0.5309 0.8739 -0.0794
C8 C 0.51010(7) 0.8035(3) -0.00134(16)
C9 C 0.52017(8) 0.7677(3) 0.07453(17)
H8 H 0.5022 0.7411 0.0938
C10 C 0.55680(8) 0.7705(3) 0.12328(17)
H9 H 0.5631 0.7469 0.1748
C11 C 0.47037(8) 0.7955(4) -0.05425(18)
H10 H 0.4558 0.7541 -0.0266
H11 H 0.4615 0.8963 -0.0705
C12 C 0.43563(8) 0.7093(4) -0.18875(19)
H12 H 0.4153 0.7717 -0.1994
C13 C 0.44142(8) 0.6087(4) -0.23609(18)
H13 H 0.4254 0.5889 -0.2857
C14 C 0.48793(7) 0.5996(3) -0.13215(15)
H14 H 0.5105 0.5737 -0.0952
C15 C 0.59325(6) 0.1909(3) -0.09238(13)
C16 C 0.61300(6) 0.2075(3) -0.01444(13)
H15 H 0.6067 0.2837 0.0126
C17 C 0.64194(6) 0.1118(3) 0.02359(13)
C18 C 0.65178(6) 0.0013(3) -0.01761(13)
H16 H 0.6714 -0.0621 0.0074
C19 C 0.63260(6) -0.0157(3) -0.09583(13)
C20 C 0.60289(6) 0.0781(3) -0.13238(13)
H17 H 0.5893 0.0648 -0.1843
C21 C 0.56248(7) 0.2994(3) -0.13085(14)
C22 C 0.66135(6) 0.1233(3) 0.10923(13)
C23 C 0.64493(6) -0.1333(3) -0.13875(14)
C24 C 0.75147(8) 0.2742(4) 0.3375(2)
H18 H 0.7539 0.3770 0.3319
C25 C 0.77896(9) 0.1804(4) 0.3761(2)
H19 H 0.8035 0.2062 0.4018
C26 C 0.72898(7) 0.0574(3) 0.32859(17)
H20 H 0.7125 -0.0225 0.3150
C27 C 0.78299(8) -0.0989(4) 0.40349(18)
H21 H 0.8086 -0.0781 0.4337
H22 H 0.7823 -0.1659 0.3622
C28 C 0.76557(7) -0.1760(4) 0.45315(17)
C29 C 0.75889(9) -0.1018(4) 0.51134(19)
H23 H 0.7650 -0.0007 0.5200
C30 C 0.75671(9) -0.3255(4) 0.44311(19)
H24 H 0.7613 -0.3787 0.4048
Zn1A Zn 0.332791(7) 0.25103(3) -0.752234(15)
Zn1E Zn 0.667209(7) -0.25103(3) -0.247766(15)
Zn1F Zn 0.832791(7) -0.75103(3) 0.747766(15)
Zn1D Zn 0.332791(7) -0.25103(3) -0.252234(15)
O1A O 0.35283(5) 0.2187(2) -0.64165(9)
O2A O 0.31225(5) 0.0425(2) -0.64224(9)
O3A O 0.34030(6) -0.2501(2) -0.39372(11)
O4A O 0.35958(4) -0.1024(2) -0.29160(9)
O4E O 0.64042(4) 0.1024(2) 0.29160(9)
O4D O 0.35958(4) 0.1024(2) -0.79160(9)
O5A O 0.46155(5) 0.2569(2) -0.30542(10)
O6A O 0.43853(5) 0.4213(2) -0.39944(11)
N1A N 0.34475(6) 0.4695(2) -0.74849(11)
N2A N 0.36302(6) 0.6927(2) -0.70093(13)
N3A N 0.53472(6) 0.7032(3) -0.37819(13)
N4A N 0.52550(5) 0.5391(3) -0.29942(12)
N5F N 0.78014(5) -0.6962(2) 0.69180(12)
N5A N 0.28014(5) 0.1962(2) -0.80820(12)
N6F N 0.73565(6) -0.5427(3) 0.62925(13)
C1A C 0.35217(8) 0.7042(3) -0.77850(17)
H1A H 0.3522 0.7907 -0.8063
C2A C 0.34134(8) 0.5663(3) -0.80713(16)
H2A H 0.3329 0.5410 -0.8588
C3A C 0.35804(7) 0.5501(3) -0.68516(15)
H3A H 0.3633 0.5123 -0.6361
C4A C 0.37594(7) 0.8168(3) -0.64599(18)
H4A H 0.3614 0.8186 -0.6136
H5A H 0.3717 0.9108 -0.6742
C5A C 0.41609(7) 0.8081(3) -0.59550(16)
C6A C 0.42643(8) 0.8467(3) -0.51913(16)
H6A H 0.4085 0.8737 -0.4996
C7A C 0.46267(8) 0.8458(3) -0.47161(16)
H7A H 0.4691 0.8739 -0.4206
C8A C 0.48990(7) 0.8035(3) -0.49866(16)
C9A C 0.47983(8) 0.7677(3) -0.57453(17)
H8A H 0.4978 0.7411 -0.5938
C10A C 0.44320(8) 0.7705(3) -0.62328(17)
H9A H 0.4369 0.7469 -0.6748
C11A C 0.52963(8) 0.7955(4) -0.44575(18)
H10A H 0.5442 0.7541 -0.4734
H11A H 0.5385 0.8963 -0.4295
C12A C 0.56437(8) 0.7093(4) -0.31125(19)
H12A H 0.5847 0.7717 -0.3006
C13A C 0.55858(8) 0.6087(4) -0.26391(18)
H13A H 0.5746 0.5889 -0.2143
C14A C 0.51207(7) 0.5996(3) -0.36785(15)
H14A H 0.4895 0.5737 -0.4048
C15A C 0.40675(6) 0.1909(3) -0.40762(13)
C16A C 0.38700(6) 0.2075(3) -0.48556(13)
H15A H 0.3933 0.2837 -0.5126
C17A C 0.35806(6) 0.1118(3) -0.52359(13)
C18A C 0.34822(6) 0.0013(3) -0.48239(13)
H16A H 0.3286 -0.0621 -0.5074
C19A C 0.36740(6) -0.0157(3) -0.40417(13)
C20A C 0.39711(6) 0.0781(3) -0.36762(13)
H17A H 0.4107 0.0648 -0.3157
C21A C 0.43752(7) 0.2994(3) -0.36915(14)
C22A C 0.33865(6) 0.1233(3) -0.60923(13)
C23A C 0.35507(6) -0.1333(3) -0.36125(14)
C24F C 0.74853(8) -0.7742(4) 0.6625(2)
H18F H 0.7461 -0.8770 0.6681
C25F C 0.72104(9) -0.6804(4) 0.6239(2)
H19F H 0.6965 -0.7062 0.5982
C26F C 0.77102(7) -0.5574(3) 0.67141(17)
H20F H 0.7875 -0.4775 0.6850
C27F C 0.71701(8) -0.4011(4) 0.59651(18)
H21F H 0.6914 -0.4219 0.5663
H22F H 0.7177 -0.3341 0.6378
C28F C 0.73443(7) -0.3240(4) 0.54685(17)
C29F C 0.74111(9) -0.3982(4) 0.48866(19)
H23F H 0.7350 -0.4993 0.4800
C30F C 0.74329(9) -0.1745(4) 0.55689(19)
H24F H 0.7387 -0.1213 0.5952
O7 O 0.36666(6) 0.5802(3) 0.50700(12)
H25 H 0.3581 0.6300 0.5355
H26 H 0.3881 0.5440 0.5289
O8 O 0.5000 0.9524(9) 0.7500
H27 H 0.4937 0.9851 0.7861
H27A H 0.5063 0.9851 0.7139
loop_
_geom_bond_atom_site_label_1
_geom_bond_atom_site_label_2
_geom_bond_site_symmetry_1
_geom_bond_site_symmetry_2
Zn1 O1 1_555 1_555
Zn2 O5 1_555 1_555
O1 C22 1_555 1_555
O2 C22 1_555 1_555
O3 C23 1_555 1_555
O4 C23 1_555 1_555
O5 C21 1_555 1_555
O6 C21 1_555 1_555
N1 Zn1 1_555 1_555
N2 C1 1_555 1_555
N3 C11 1_555 1_555
N4 Zn2 1_555 1_555
N5 Zn1 1_555 1_555
N6 C25 1_555 1_555
C1 H1 1_555 1_555
C2 N1 1_555 1_555
H2 C2 1_555 1_555
C3 N1 1_555 1_555
H3 C3 1_555 1_555
C4 N2 1_555 1_555
H4 C4 1_555 1_555
H5 C4 1_555 1_555
C5 C4 1_555 1_555
C6 C5 1_555 1_555
H6 C6 1_555 1_555
C7 C6 1_555 1_555
H7 C7 1_555 1_555
C8 C7 1_555 1_555
C9 C8 1_555 1_555
H8 C9 1_555 1_555
C10 C5 1_555 1_555
H9 C10 1_555 1_555
C11 C8 1_555 1_555
H10 C11 1_555 1_555
H11 C11 1_555 1_555
C12 N3 1_555 1_555
H12 C12 1_555 1_555
C13 N4 1_555 1_555
H13 C13 1_555 1_555
C14 N3 1_555 1_555
H14 C14 1_555 1_555
C15 C16 1_555 1_555
C16 H15 1_555 1_555
C17 C16 1_555 1_555
C18 C17 1_555 1_555
H16 C18 1_555 1_555
C19 C18 1_555 1_555
C20 C15 1_555 1_555
H17 C20 1_555 1_555
C21 C15 1_555 1_555
C22 C17 1_555 1_555
C23 C19 1_555 1_555
C24 N5 1_555 1_555
H18 C24 1_555 1_555
C25 C24 1_555 1_555
H19 C25 1_555 1_555
C26 N5 1_555 1_555
H20 C26 1_555 1_555
C27 N6 1_555 1_555
H21 C27 1_555 1_555
H22 C27 1_555 1_555
C28 C27 1_555 1_555
C29 C28 1_555 1_555
H23 C29 1_555 1_555
C30 C28 1_555 1_555
H24 C30 1_555 1_555
O7 H25 1_555 1_555
H26 O7 1_555 1_555
O8 H27 1_555 1_555
Zn1A O1A 1_555 1_555
Zn1E O4 1_555 1_555
Zn1F N5F 1_555 1_555
Zn1D O4A 1_555 1_555
O1A C22A 1_555 1_555
O2A C22A 1_555 1_555
O3A C23A 1_555 1_555
O4A C23A 1_555 1_555
O4E Zn1 1_555 1_555
O4D Zn1A 1_555 1_555
O5A Zn2 1_555 1_555
O6A C21A 1_555 1_555
N1A Zn1A 1_555 1_555
N2A C1A 1_555 1_555
N3A C11A 1_555 1_555
N4A Zn2 1_555 1_555
N5F C24F 1_555 1_555
N5A Zn1A 1_555 1_555
N6F C25F 1_555 1_555
C1A H1A 1_555 1_555
C2A N1A 1_555 1_555
H2A C2A 1_555 1_555
C3A N1A 1_555 1_555
H3A C3A 1_555 1_555
C4A N2A 1_555 1_555
H4A C4A 1_555 1_555
H5A C4A 1_555 1_555
C5A C4A 1_555 1_555
C6A C5A 1_555 1_555
H6A C6A 1_555 1_555
C7A C6A 1_555 1_555
H7A C7A 1_555 1_555
C8A C7A 1_555 1_555
C9A C8A 1_555 1_555
H8A C9A 1_555 1_555
C10A C5A 1_555 1_555
H9A C10A 1_555 1_555
C11A C8A 1_555 1_555
H10A C11A 1_555 1_555
H11A C11A 1_555 1_555
C12A N3A 1_555 1_555
H12A C12A 1_555 1_555
C13A N4A 1_555 1_555
H13A C13A 1_555 1_555
C14A N3A 1_555 1_555
H14A C14A 1_555 1_555
C15A C16A 1_555 1_555
C16A H15A 1_555 1_555
C17A C16A 1_555 1_555
C18A C17A 1_555 1_555
H16A C18A 1_555 1_555
C19A C18A 1_555 1_555
C20A C15A 1_555 1_555
H17A C20A 1_555 1_555
C21A O5A 1_555 1_555
C22A C17A 1_555 1_555
C23A C19A 1_555 1_555
C24F H18F 1_555 1_555
C25F C24F 1_555 1_555
H19F C25F 1_555 1_555
C26F N5F 1_555 1_555
H20F C26F 1_555 1_555
C27F N6F 1_555 1_555
H21F C27F 1_555 1_555
H22F C27F 1_555 1_555
C28F C27F 1_555 1_555
C29F C30 1_555 1_555
H23F C29F 1_555 1_555
C30F C29 1_555 1_555
H24F C30F 1_555 1_555
H27A O8 1_555 1_555
N2 C3 1_555 1_555
N4 C14 1_555 1_555
N6 C26 1_555 1_555
C1 C2 1_555 1_555
C9 C10 1_555 1_555
C12 C13 1_555 1_555
C19 C20 1_555 1_555
N2A C3A 1_555 1_555
N4A C14A 1_555 1_555
N6F C26F 1_555 1_555
C1A C2A 1_555 1_555
C9A C10A 1_555 1_555
C12A C13A 1_555 1_555
C15A C21A 1_555 1_555
C19A C20A 1_555 1_555
C28F C29F 1_555 1_555
C28F C30F 1_555 1_555

#END
