
#######################################################################
#
#                 Cambridge Crystallographic Data Centre
#                                CCDC 
#
#######################################################################
#
# If this CIF has been generated from an entry in the Cambridge 
# Structural Database, then it will include bibliographic, chemical, 
# crystal, experimental, refinement or atomic coordinate data resulting 
# from the CCDC's data processing and validation procedures.
#
#######################################################################

data_XUGNIY
_symmetry_cell_setting           tetragonal
_symmetry_space_group_name_H-M   'I 41'
_symmetry_Int_Tables_number      80
_space_group_name_Hall           'I 4bw'
loop_
_symmetry_equiv_pos_site_id
_symmetry_equiv_pos_as_xyz
1 x,y,z
2 -y,1/2+x,1/4+z
3 -x,-y,z
4 y,1/2-x,1/4+z
5 1/2+x,1/2+y,1/2+z
6 1/2-y,x,3/4+z
7 1/2-x,1/2-y,1/2+z
8 1/2+y,-x,3/4+z
_cell_length_a                   9.8003(4)
_cell_length_b                   9.8003(4)
_cell_length_c                   31.2769(19)
_cell_angle_alpha                90
_cell_angle_beta                 90
_cell_angle_gamma                90
_cell_volume                     3004.02
loop_
_atom_site_label
_atom_site_type_symbol
_atom_site_fract_x
_atom_site_fract_y
_atom_site_fract_z
Cu1 Cu 0.40584(4) 0.09406(4) 0.03306(2)
O1 O 0.1556(3) -0.0167(3) 0.23247(9)
N1 N 0.2527(4) 0.2472(4) 0.0327(3)
O2 O 0.0249(3) -0.1996(3) 0.24615(9)
O3 O 0.3444(3) -0.0172(3) 0.08373(9)
O4 O 0.4746(3) -0.1992(3) 0.06988(9)
C1 C 0.2497(4) -0.1446(4) 0.15795(15)
H1 H 0.2494 -0.0498 0.1579
C2 C 0.1854(4) -0.2154(4) 0.19033(14)
C3 C 0.3145(4) -0.2154(4) 0.12550(14)
C4 C 0.3158(5) -0.3568(5) 0.12608(16)
H2 H 0.3621 -0.4037 0.1047
C5 C 0.1830(5) -0.3561(5) 0.18961(16)
H3 H 0.1358 -0.4028 0.2108
C6 C 0.3818(4) -0.1366(5) 0.09034(14)
C7 C 0.2496(9) -0.5847(5) 0.1577(3)
H4 H 0.2618 -0.6172 0.1290
H5 H 0.1642 -0.6172 0.1687
H6 H 0.3227 -0.6175 0.1753
C8 C 0.2499(6) -0.4295(4) 0.1578(2)
C9 C 0.0541(5) 0.4461(5) 0.0330(2)
C10 C 0.1285(4) 0.2211(5) 0.04581(17)
H7 H 0.1093 0.1333 0.0554
C11 C 0.2792(5) 0.3714(5) 0.02017(18)
H8 H 0.3670 0.3912 0.0107
C12 C 0.0246(5) 0.3156(5) 0.0463(2)
H9 H -0.0626 0.2920 0.0553
C13 C 0.1846(5) 0.4742(5) 0.0202(2)
H10 H 0.2087 0.5618 0.0117
C14 C 0.1170(4) -0.1373(5) 0.22594(14)
N1B N -0.2527(4) 0.7528(4) 0.0327(3)
C9B C -0.0541(5) 0.5539(5) 0.0330(2)
C10B C -0.1285(4) 0.7789(5) 0.04581(17)
H7B H -0.1093 0.8667 0.0554
C11B C -0.2792(5) 0.6286(5) 0.02017(18)
H8B H -0.3670 0.6088 0.0107
C12B C -0.0246(5) 0.6844(5) 0.0463(2)
H9B H 0.0626 0.7080 0.0553
C13B C -0.1846(5) 0.5258(5) 0.0202(2)
H10B H -0.2087 0.4382 0.0117
Cu1B Cu -0.40584(4) 0.90594(4) 0.03306(2)
O1B O -0.1556(3) 1.0167(3) 0.23247(9)
O2B O -0.0249(3) 1.1996(3) 0.24615(9)
O3B O -0.3444(3) 1.0172(3) 0.08373(9)
O4B O -0.4746(3) 1.1992(3) 0.06988(9)
C1B C -0.2497(4) 1.1446(4) 0.15795(15)
H1B H -0.2494 1.0498 0.1579
C2B C -0.1854(4) 1.2154(4) 0.19033(14)
C3B C -0.3145(4) 1.2154(4) 0.12550(14)
C4B C -0.3158(5) 1.3568(5) 0.12608(16)
H2B H -0.3621 1.4037 0.1047
C5B C -0.1830(5) 1.3561(5) 0.18961(16)
H3B H -0.1358 1.4028 0.2108
C6B C -0.3818(4) 1.1366(5) 0.09034(14)
C7B C -0.2496(9) 1.5847(5) 0.1577(3)
H4B H -0.2618 1.6172 0.1290
H5B H -0.1642 1.6172 0.1687
H6B H -0.3227 1.6175 0.1753
C8B C -0.2499(6) 1.4295(4) 0.1578(2)
C14B C -0.1170(4) 1.1373(5) 0.22594(14)
Cu1_2 Cu -0.59416(4) 1.09406(4) 0.03306(2)
Cu1A Cu -0.09406(4) -0.09416(4) 0.28306(2)
Cu1A_2 Cu -0.09406(4) 0.90584(4) 0.28306(2)
Cu1B_2 Cu 0.59416(4) -0.09406(4) 0.03306(2)
Cu1C Cu 0.09406(4) 0.09416(4) 0.28306(2)
Cu1C_2 Cu 0.09406(4) 1.09416(4) 0.28306(2)
O1E O 0.5167(3) 0.1556(3) -0.01753(9)
O1G O -0.5167(3) 0.8444(3) -0.01753(9)
O2E O -0.3004(3) 1.0249(3) -0.00385(9)
O2G O 0.3004(3) -0.0249(3) -0.00385(9)
O4_2 O -0.5254(3) 0.8008(3) 0.06988(9)
O4B_2 O 0.5254(3) 0.1992(3) 0.06988(9)
loop_
_geom_bond_atom_site_label_1
_geom_bond_atom_site_label_2
_geom_bond_site_symmetry_1
_geom_bond_site_symmetry_2
Cu1 N1 1_555 1_555
O1 C14 1_555 1_555
N1 C10 1_555 1_555
O2 C14 1_555 1_555
O3 Cu1 1_555 1_555
O4 C6 1_555 1_555
C1 H1 1_555 1_555
C2 C1 1_555 1_555
C3 C1 1_555 1_555
C4 C3 1_555 1_555
H2 C4 1_555 1_555
C5 C2 1_555 1_555
H3 C5 1_555 1_555
C6 O3 1_555 1_555
C7 H4 1_555 1_555
H5 C7 1_555 1_555
H6 C7 1_555 1_555
C8 C4 1_555 1_555
C9 C12 1_555 1_555
C10 H7 1_555 1_555
C11 N1 1_555 1_555
H8 C11 1_555 1_555
C12 C10 1_555 1_555
H9 C12 1_555 1_555
C13 C9 1_555 1_555
H10 C13 1_555 1_555
C14 C2 1_555 1_555
N1B C10B 1_555 1_555
C9B C9 1_555 1_555
C10B H7B 1_555 1_555
C11B N1B 1_555 1_555
H8B C11B 1_555 1_555
C12B C9B 1_555 1_555
H9B C12B 1_555 1_555
C13B C9B 1_555 1_555
H10B C13B 1_555 1_555
Cu1B N1B 1_555 1_555
O1B C14B 1_555 1_555
O2B C14B 1_555 1_555
O3B Cu1B 1_555 1_555
O4B C6B 1_555 1_555
C1B H1B 1_555 1_555
C2B C1B 1_555 1_555
C3B C1B 1_555 1_555
C4B C3B 1_555 1_555
H2B C4B 1_555 1_555
C5B C2B 1_555 1_555
H3B C5B 1_555 1_555
C6B O3B 1_555 1_555
C7B H4B 1_555 1_555
H5B C7B 1_555 1_555
H6B C7B 1_555 1_555
C8B C4B 1_555 1_555
C14B C2B 1_555 1_555
Cu1_2 Cu1B 1_555 1_555
Cu1A O2 1_555 1_555
Cu1A_2 O1B 1_555 1_555
Cu1B_2 Cu1 1_555 1_555
Cu1C O1 1_555 1_555
Cu1C_2 O2B 1_555 1_555
O1E Cu1 1_555 1_555
O1G Cu1B 1_555 1_555
O2E Cu1B 1_555 1_555
O2G Cu1 1_555 1_555
O4_2 Cu1B 1_555 1_555
O4B_2 Cu1 1_555 1_555
O4 Cu1B_2 1_555 1_555
C3 C6 1_555 1_555
C5 C8 1_555 1_555
C7 C8 1_555 1_555
C11 C13 1_555 1_555
C10B C12B 1_555 1_555
C11B C13B 1_555 1_555
O4B Cu1_2 1_555 1_555
C3B C6B 1_555 1_555
C5B C8B 1_555 1_555
C7B C8B 1_555 1_555
Cu1A Cu1C 1_555 1_555
Cu1A_2 Cu1C_2 1_555 1_555

#END
