
#######################################################################
#
#                 Cambridge Crystallographic Data Centre
#                                CCDC 
#
#######################################################################
#
# If this CIF has been generated from an entry in the Cambridge 
# Structural Database, then it will include bibliographic, chemical, 
# crystal, experimental, refinement or atomic coordinate data resulting 
# from the CCDC's data processing and validation procedures.
#
#######################################################################

data_XUGPIA
_symmetry_cell_setting           monoclinic
_symmetry_space_group_name_H-M   'P 21/c'
_symmetry_Int_Tables_number      14
_space_group_name_Hall           '-P 2ybc'
loop_
_symmetry_equiv_pos_site_id
_symmetry_equiv_pos_as_xyz
1 x,y,z
2 -x,1/2+y,1/2-z
3 -x,-y,-z
4 x,1/2-y,1/2+z
_cell_length_a                   14.087(3)
_cell_length_b                   32.749(6)
_cell_length_c                   23.659(4)
_cell_angle_alpha                90
_cell_angle_beta                 106.771(3)
_cell_angle_gamma                90
_cell_volume                     10450.5
loop_
_atom_site_label
_atom_site_type_symbol
_atom_site_fract_x
_atom_site_fract_y
_atom_site_fract_z
Cu1 Cu 1.21882(4) 0.747025(16) 0.25097(2)
Cu2 Cu 0.72074(4) 0.750038(16) 0.24905(3)
Fe1 Fe 0.93798(5) 0.641232(18) 0.21459(3)
Fe2 Fe 1.02971(5) 0.825628(18) 0.36553(3)
Fe3 Fe 0.41455(5) 0.671042(19) 0.13740(3)
Fe4 Fe 0.49604(5) 0.855098(19) 0.28656(3)
B1 B 0.9790(5) 0.57144(17) 0.3073(2)
B2 B 1.0505(4) 0.91960(16) 0.3782(2)
B3 B 0.3852(4) 0.57753(16) 0.1234(2)
B4 B 0.4469(5) 0.92707(17) 0.1982(3)
C1 C 1.2519(4) 0.66276(14) 0.2992(2)
H1 H 1.2315 0.6558 0.2595
C2 C 1.2732(4) 0.63230(16) 0.3402(2)
H2 H 1.2657 0.6051 0.3287
C3 C 1.3064(5) 0.64280(17) 0.3997(2)
C4 C 1.3140(5) 0.68388(18) 0.4155(2)
H3 H 1.3355 0.6917 0.4549
C5 C 1.2893(4) 0.71226(16) 0.3717(2)
H4 H 1.2935 0.7397 0.3821
C6 C 1.3306(7) 0.6108(2) 0.4436(3)
C7 C 1.1565(4) 0.78206(16) 0.1305(2)
H5 H 1.1521 0.7546 0.1199
C8 C 1.1391(4) 0.81088(17) 0.0866(2)
H6 H 1.1237 0.8032 0.0472
C9 C 1.1452(4) 0.85164(16) 0.1027(2)
C10 C 1.1666(4) 0.86208(15) 0.1620(2)
H7 H 1.1699 0.8893 0.1738
C11 C 1.1830(4) 0.83085(14) 0.2030(2)
H8 H 1.1969 0.8376 0.2427
C12 C 1.1330(5) 0.88375(19) 0.0594(2)
C13 C 1.0975(3) 0.79156(13) 0.32421(19)
C14 C 1.0314(4) 0.68017(14) 0.2018(2)
C15 C 0.8842(4) 0.63560(14) 0.1306(2)
C16 C 0.8520(3) 0.68635(14) 0.2122(2)
C17 C 1.1100(4) 0.53907(15) 0.2594(3)
H9 H 1.1307 0.5165 0.2836
C18 C 1.1457(4) 0.55050(17) 0.2141(3)
H10 H 1.1948 0.5375 0.2016
C19 C 1.0942(4) 0.58544(15) 0.1907(2)
H11 H 1.1030 0.6001 0.1589
C20 C 0.7869(4) 0.55398(17) 0.2749(3)
H12 H 0.7869 0.5329 0.3013
C21 C 0.7053(5) 0.56934(19) 0.2340(3)
H13 H 0.6398 0.5611 0.2270
C22 C 0.7408(4) 0.59961(17) 0.2054(3)
H14 H 0.7019 0.6156 0.1749
C23 C 1.0477(4) 0.62598(16) 0.3920(2)
H15 H 1.0672 0.6090 0.4248
C24 C 1.0552(4) 0.66789(16) 0.3931(2)
H16 H 1.0807 0.6845 0.4258
C25 C 1.0175(4) 0.67959(14) 0.3361(2)
H17 H 1.0116 0.7066 0.3232
C26 C 0.9790(7) 0.4761(2) 0.3788(3)
H18 H 0.9877 0.4479 0.3810
C27 C 0.9500(7) 0.4988(2) 0.4189(3)
H19 H 0.9295 0.4895 0.4506
C28 C 0.9575(6) 0.5382(2) 0.4022(3)
H20 H 0.9432 0.5614 0.4211
C29 C 1.2388(4) 0.91065(15) 0.4379(2)
H21 H 1.2559 0.9380 0.4456
C30 C 1.3018(4) 0.87813(16) 0.4552(2)
H22 H 1.3686 0.8787 0.4763
C31 C 1.2436(3) 0.84404(15) 0.4341(2)
H23 H 1.2659 0.8172 0.4391
C32 C 0.9012(4) 0.92058(15) 0.4275(2)
H24 H 0.8926 0.9485 0.4307
C33 C 0.8470(4) 0.89109(15) 0.4444(2)
H25 H 0.7962 0.8947 0.4618
C34 C 0.8840(4) 0.85443(15) 0.4300(2)
H26 H 0.8612 0.8286 0.4361
C35 C 0.9882(4) 0.92722(16) 0.2610(2)
H27 H 0.9902 0.9554 0.2564
C36 C 0.9555(4) 0.89921(17) 0.2159(2)
H28 H 0.9307 0.9046 0.1757
C37 C 0.9674(4) 0.86164(15) 0.2428(2)
H29 H 0.9523 0.8368 0.2233
C38 C 1.0523(4) 0.78551(14) 0.4283(2)
C39 C 0.9114(3) 0.79667(13) 0.32343(19)
C40 C 1.1016(5) 1.02532(16) 0.4283(3)
H30 H 1.1113 1.0474 0.4541
C41 C 1.1214(5) 1.02378(16) 0.3745(3)
H31 H 1.1466 1.0455 0.3579
C42 C 1.1002(4) 0.98772(14) 0.3496(2)
H32 H 1.1073 0.9794 0.3134
C43 C 0.7930(7) 0.7162(2) 0.3896(3)
H33 H 0.8026 0.7441 0.3957
C44 C 0.8254(8) 0.6905(3) 0.4379(4)
H34 H 0.8575 0.7008 0.4752
C45 C 0.8083(6) 0.6489(2) 0.4290(4)
C46 C 0.7627(6) 0.6356(2) 0.3746(4)
H35 H 0.7492 0.6080 0.3673
C47 C 0.7359(6) 0.6639(2) 0.3295(3)
H36 H 0.7057 0.6541 0.2917
C48 C 0.8408(9) 0.6206(3) 0.4763(5)
C49 C 0.6588(5) 0.7854(2) 0.1118(3)
H37 H 0.6491 0.7577 0.1038
C50 C 0.6361(6) 0.8123(3) 0.0649(3)
H38 H 0.6108 0.8032 0.0262
C51 C 0.6527(5) 0.8538(2) 0.0779(4)
C52 C 0.6884(5) 0.8665(2) 0.1348(3)
H39 H 0.6994 0.8940 0.1441
C53 C 0.7076(5) 0.83681(17) 0.1782(3)
H40 H 0.7318 0.8452 0.2173
C54 C 0.6302(8) 0.8831(3) 0.0296(4)
C55 C 0.5318(3) 0.70059(14) 0.1787(2)
C56 C 0.5874(3) 0.81205(14) 0.2870(2)
C57 C 0.3937(4) 0.71175(15) 0.0760(2)
C58 C 0.3453(3) 0.70434(14) 0.1789(2)
C59 C 0.1923(4) 0.58881(16) 0.0682(2)
H41 H 0.1702 0.5620 0.0616
C60 C 0.1343(4) 0.62247(16) 0.0522(2)
H42 H 0.0666 0.6234 0.0333
C61 C 0.1987(4) 0.65528(15) 0.0705(2)
H43 H 0.1805 0.6826 0.0654
C62 C 0.5203(4) 0.57511(15) 0.0657(2)
H44 H 0.5198 0.5472 0.0582
C63 C 0.5782(4) 0.60344(16) 0.0486(2)
H45 H 0.6239 0.5987 0.0278
C64 C 0.5543(4) 0.64077(15) 0.0690(2)
H46 H 0.5818 0.6658 0.0638
C65 C 0.4310(4) 0.56982(18) 0.2404(2)
H47 H 0.4215 0.5420 0.2443
C66 C 0.4595(5) 0.5972(2) 0.2855(2)
H48 H 0.4733 0.5916 0.3257
C67 C 0.4637(4) 0.63445(18) 0.2600(2)
H49 H 0.4815 0.6589 0.2804
C68 C 0.3467(6) 0.47746(19) 0.0629(4)
H50 H 0.3182 0.4589 0.0332
C69 C 0.4251(6) 0.46851(19) 0.1112(4)
H51 H 0.4576 0.4436 0.1201
C70 C 0.4458(5) 0.50355(18) 0.1435(3)
H52 H 0.4965 0.5074 0.1783
C71 C 0.5501(4) 0.85796(15) 0.3708(2)
C72 C 0.4073(4) 0.81350(14) 0.2981(2)
C73 C 0.6352(4) 0.95164(16) 0.2345(3)
H53 H 0.6327 0.9745 0.2107
C74 C 0.7184(5) 0.93653(18) 0.2747(3)
H54 H 0.7826 0.9468 0.2836
C75 C 0.6863(4) 0.90275(16) 0.2993(2)
H55 H 0.7268 0.8862 0.3283
C76 C 0.3084(5) 0.95199(17) 0.2468(3)
H56 H 0.2838 0.9746 0.2234
C77 C 0.2745(5) 0.93807(18) 0.2919(3)
H57 H 0.2234 0.9489 0.3049
C78 C 0.3326(4) 0.90456(17) 0.3139(3)
H58 H 0.3270 0.8886 0.3453
C79 C 0.4006(4) 0.87476(17) 0.1093(2)
H59 H 0.3855 0.8927 0.0775
C80 C 0.3987(4) 0.83262(17) 0.1057(2)
H60 H 0.3816 0.8168 0.0716
C81 C 0.4274(4) 0.81906(15) 0.1630(2)
H61 H 0.4337 0.7918 0.1744
C82 C 0.4771(6) 0.9673(3) 0.1106(4)
H62 H 0.5144 0.9478 0.0977
C83 C 0.4534(5) 1.0052(2) 0.0877(3)
H63 H 0.4730 1.0167 0.0569
C84 C 0.3961(5) 1.02349(18) 0.1178(3)
H64 H 0.3698 1.0497 0.1115
N1 N 1.2591(3) 0.70245(12) 0.31409(17)
N2 N 1.3488(8) 0.5856(2) 0.4782(3)
N3 N 1.1797(3) 0.79153(12) 0.18796(17)
N4 N 1.1268(6) 0.90957(17) 0.0265(2)
N5 N 1.1368(3) 0.77287(11) 0.29658(17)
N6 N 1.0862(3) 0.70491(13) 0.19572(19)
N7 N 0.8482(4) 0.63250(16) 0.0807(2)
N8 N 0.8025(3) 0.71332(12) 0.21617(18)
N9 N 1.0301(3) 0.59486(11) 0.22052(17)
N10 N 1.0400(3) 0.56572(11) 0.26341(17)
N11 N 0.8386(3) 0.60290(11) 0.22748(17)
N12 N 0.8677(3) 0.57460(11) 0.27060(17)
N13 N 0.9899(3) 0.64731(11) 0.30078(17)
N14 N 1.0083(3) 0.61365(11) 0.33678(17)
N15 N 0.9905(4) 0.53789(12) 0.35187(19)
N16 N 0.9934(5) 0.49893(16) 0.3362(3)
N17 N 1.0637(4) 0.76230(14) 0.4658(2)
N18 N 0.8422(3) 0.77975(12) 0.29601(18)
N19 N 1.1517(3) 0.85542(11) 0.40602(16)
N20 N 1.1485(3) 0.89675(11) 0.40809(16)
N21 N 0.9576(3) 0.86183(11) 0.40604(16)
N22 N 0.9694(3) 0.90298(11) 0.40538(16)
N23 N 1.0036(3) 0.86598(11) 0.30111(16)
N24 N 1.0166(3) 0.90698(11) 0.31264(16)
N25 N 1.0656(3) 0.96514(12) 0.38771(18)
N26 N 1.0649(5) 0.98789(16) 0.4359(2)
N27 N 0.7496(4) 0.70349(15) 0.3357(2)
N28 N 0.8679(10) 0.5981(3) 0.5154(6)
N29 N 0.6937(3) 0.79711(14) 0.1676(2)
N30 N 0.6106(9) 0.9065(3) -0.0074(5)
N31 N 0.6001(3) 0.71843(12) 0.20507(18)
N32 N 0.6391(3) 0.78619(12) 0.28272(18)
N33 N 0.3821(4) 0.73540(15) 0.0386(2)
N34 N 0.3032(3) 0.72190(12) 0.20636(17)
N35 N 0.2900(3) 0.64184(11) 0.09626(16)
N36 N 0.2865(3) 0.60005(11) 0.09497(16)
N37 N 0.4852(3) 0.63513(11) 0.09733(16)
N38 N 0.4638(3) 0.59434(11) 0.09532(17)
N39 N 0.4384(3) 0.63022(12) 0.20146(16)
N40 N 0.4190(3) 0.58990(12) 0.18964(17)
N41 N 0.3775(3) 0.53194(13) 0.11469(19)
N42 N 0.3164(4) 0.51566(15) 0.0637(2)
N43 N 0.5867(4) 0.85899(16) 0.4206(2)
N44 N 0.3539(3) 0.78851(13) 0.30400(19)
N45 N 0.5897(3) 0.89734(12) 0.27575(17)
N46 N 0.5571(3) 0.92752(12) 0.23532(18)
N47 N 0.3984(3) 0.89835(12) 0.28351(18)
N48 N 0.3831(3) 0.92792(12) 0.24161(19)
N49 N 0.4449(3) 0.85108(12) 0.20025(17)
N50 N 0.4278(3) 0.88527(12) 0.16621(17)
N51 N 0.4358(7) 0.96286(17) 0.1562(3)
N52 N 0.3843(7) 0.9962(2) 0.1591(4)
Cu1_2 Cu 0.21882(4) 0.747025(16) 0.25097(2)
N34_2 N 1.3032(3) 0.72190(12) 0.20636(17)
N44_2 N 1.3539(3) 0.78851(13) 0.30400(19)
C88 C 0.9055(7) 0.7842(4) 0.0971(4)
C89 C 0.9052(10) 0.7427(3) 0.0725(5)
H68 H 0.9473 0.7421 0.0470
H69 H 0.8388 0.7355 0.0504
H70 H 0.9292 0.7236 0.1041
N55 N 0.9112(7) 0.8156(4) 0.1152(4)
C90 C 0.5423(8) 0.7122(3) 0.4015(5)
C91 C 0.5427(11) 0.7540(4) 0.4276(6)
H71 H 0.4955 0.7549 0.4498
H72 H 0.5251 0.7738 0.3964
H73 H 0.6076 0.7599 0.4531
N56 N 0.5358(8) 0.6783(3) 0.3903(5)
O1 O 0.7179(4) 0.80830(18) 0.5060(3)
C85? C 0.3280(7) 0.9629(3) 0.1102(5)
H65? H 0.2918 0.9406 0.0912
C86? C 0.3102(6) 1.0028(2) 0.0937(4)
H66? H 0.2651 1.0130 0.0597
C87? C 0.3770(6) 1.0258(2) 0.1407(4)
H67? H 0.3738 1.0537 0.1474
N53? N 0.3998(7) 0.96144(16) 0.1542(3)
N54? N 0.4445(8) 0.9996(2) 0.1729(5)
loop_
_geom_bond_atom_site_label_1
_geom_bond_atom_site_label_2
_geom_bond_site_symmetry_1
_geom_bond_site_symmetry_2
Cu1 N1 1_555 1_555
Cu2 N8 1_555 1_555
Fe1 C14 1_555 1_555
Fe2 C13 1_555 1_555
Fe3 C55 1_555 1_555
Fe4 C56 1_555 1_555
B1 N10 1_555 1_555
B2 N20 1_555 1_555
B3 N36 1_555 1_555
B4 N46 1_555 1_555
C1 H1 1_555 1_555
C2 C1 1_555 1_555
H2 C2 1_555 1_555
C3 C2 1_555 1_555
C4 C3 1_555 1_555
H3 C4 1_555 1_555
C5 C4 1_555 1_555
H4 C5 1_555 1_555
C6 C3 1_555 1_555
C7 H5 1_555 1_555
C8 C7 1_555 1_555
H6 C8 1_555 1_555
C9 C8 1_555 1_555
C10 C9 1_555 1_555
H7 C10 1_555 1_555
C11 C10 1_555 1_555
H8 C11 1_555 1_555
C12 C9 1_555 1_555
C13 N5 1_555 1_555
C14 N6 1_555 1_555
C15 Fe1 1_555 1_555
C16 Fe1 1_555 1_555
C17 H9 1_555 1_555
C18 C17 1_555 1_555
H10 C18 1_555 1_555
C19 C18 1_555 1_555
H11 C19 1_555 1_555
C20 H12 1_555 1_555
C21 C20 1_555 1_555
H13 C21 1_555 1_555
C22 C21 1_555 1_555
H14 C22 1_555 1_555
C23 H15 1_555 1_555
C24 C23 1_555 1_555
H16 C24 1_555 1_555
C25 C24 1_555 1_555
H17 C25 1_555 1_555
C26 H18 1_555 1_555
C27 C26 1_555 1_555
H19 C27 1_555 1_555
C28 C27 1_555 1_555
H20 C28 1_555 1_555
C29 H21 1_555 1_555
C30 C29 1_555 1_555
H22 C30 1_555 1_555
C31 C30 1_555 1_555
H23 C31 1_555 1_555
C32 H24 1_555 1_555
C33 C32 1_555 1_555
H25 C33 1_555 1_555
C34 C33 1_555 1_555
H26 C34 1_555 1_555
C35 H27 1_555 1_555
C36 C35 1_555 1_555
H28 C36 1_555 1_555
C37 C36 1_555 1_555
H29 C37 1_555 1_555
C38 Fe2 1_555 1_555
C39 Fe2 1_555 1_555
C40 H30 1_555 1_555
C41 C40 1_555 1_555
H31 C41 1_555 1_555
C42 C41 1_555 1_555
H32 C42 1_555 1_555
C43 H33 1_555 1_555
C44 C43 1_555 1_555
H34 C44 1_555 1_555
C45 C44 1_555 1_555
C46 C45 1_555 1_555
H35 C46 1_555 1_555
C47 C46 1_555 1_555
H36 C47 1_555 1_555
C48 C45 1_555 1_555
C49 H37 1_555 1_555
C50 C49 1_555 1_555
H38 C50 1_555 1_555
C51 C50 1_555 1_555
C52 C51 1_555 1_555
H39 C52 1_555 1_555
C53 C52 1_555 1_555
H40 C53 1_555 1_555
C54 C51 1_555 1_555
C55 N31 1_555 1_555
C56 N32 1_555 1_555
C57 Fe3 1_555 1_555
C58 Fe3 1_555 1_555
C59 H41 1_555 1_555
C60 C59 1_555 1_555
H42 C60 1_555 1_555
C61 C60 1_555 1_555
H43 C61 1_555 1_555
C62 H44 1_555 1_555
C63 C62 1_555 1_555
H45 C63 1_555 1_555
C64 C63 1_555 1_555
H46 C64 1_555 1_555
C65 H47 1_555 1_555
C66 C65 1_555 1_555
H48 C66 1_555 1_555
C67 C66 1_555 1_555
H49 C67 1_555 1_555
C68 H50 1_555 1_555
C69 C68 1_555 1_555
H51 C69 1_555 1_555
C70 C69 1_555 1_555
H52 C70 1_555 1_555
C71 Fe4 1_555 1_555
C72 Fe4 1_555 1_555
C73 H53 1_555 1_555
C74 C73 1_555 1_555
H54 C74 1_555 1_555
C75 C74 1_555 1_555
H55 C75 1_555 1_555
C76 H56 1_555 1_555
C77 C76 1_555 1_555
H57 C77 1_555 1_555
C78 C77 1_555 1_555
H58 C78 1_555 1_555
C79 H59 1_555 1_555
C80 C79 1_555 1_555
H60 C80 1_555 1_555
C81 C80 1_555 1_555
H61 C81 1_555 1_555
C82 H62 1_555 1_555
C83 C82 1_555 1_555
H63 C83 1_555 1_555
C84 C83 1_555 1_555
H64 C84 1_555 1_555
N1 C1 1_555 1_555
N2 C6 1_555 1_555
N3 Cu1 1_555 1_555
N4 C12 1_555 1_555
N5 Cu1 1_555 1_555
N6 Cu1 1_555 1_555
N7 C15 1_555 1_555
N8 C16 1_555 1_555
N9 Fe1 1_555 1_555
N10 C17 1_555 1_555
N11 Fe1 1_555 1_555
N12 B1 1_555 1_555
N13 Fe1 1_555 1_555
N14 B1 1_555 1_555
N15 B1 1_555 1_555
N16 C26 1_555 1_555
N17 C38 1_555 1_555
N18 Cu2 1_555 1_555
N19 Fe2 1_555 1_555
N20 C29 1_555 1_555
N21 Fe2 1_555 1_555
N22 B2 1_555 1_555
N23 Fe2 1_555 1_555
N24 B2 1_555 1_555
N25 B2 1_555 1_555
N26 C40 1_555 1_555
N27 Cu2 1_555 1_555
N28 C48 1_555 1_555
N29 Cu2 1_555 1_555
N30 C54 1_555 1_555
N31 Cu2 1_555 1_555
N32 Cu2 1_555 1_555
N33 C57 1_555 1_555
N34 C58 1_555 1_555
N35 Fe3 1_555 1_555
N36 C59 1_555 1_555
N37 Fe3 1_555 1_555
N38 B3 1_555 1_555
N39 Fe3 1_555 1_555
N40 B3 1_555 1_555
N41 B3 1_555 1_555
N42 C68 1_555 1_555
N43 C71 1_555 1_555
N44 C72 1_555 1_555
N45 Fe4 1_555 1_555
N46 C73 1_555 1_555
N47 Fe4 1_555 1_555
N48 B4 1_555 1_555
N49 Fe4 1_555 1_555
N50 B4 1_555 1_555
N51 B4 1_555 1_555
N52 C84 1_555 1_555
C88 C89 1_555 1_555
C89 H68 1_555 1_555
H69 C89 1_555 1_555
H70 C89 1_555 1_555
N55 C88 1_555 1_555
C90 C91 1_555 1_555
C91 H71 1_555 1_555
H72 C91 1_555 1_555
H73 C91 1_555 1_555
N56 C90 1_555 1_555
Cu1_2 N34 1_555 1_555
N34_2 Cu1 1_555 1_555
N44_2 Cu1 1_555 1_555
C5 N1 1_555 1_555
C7 N3 1_555 1_555
C11 N3 1_555 1_555
C19 N9 1_555 1_555
C20 N12 1_555 1_555
C22 N11 1_555 1_555
C23 N14 1_555 1_555
C25 N13 1_555 1_555
C28 N15 1_555 1_555
C31 N19 1_555 1_555
C32 N22 1_555 1_555
C34 N21 1_555 1_555
C35 N24 1_555 1_555
C37 N23 1_555 1_555
C39 N18 1_555 1_555
C42 N25 1_555 1_555
C43 N27 1_555 1_555
C47 N27 1_555 1_555
C49 N29 1_555 1_555
C53 N29 1_555 1_555
C61 N35 1_555 1_555
C62 N38 1_555 1_555
C64 N37 1_555 1_555
C65 N40 1_555 1_555
C67 N39 1_555 1_555
C70 N41 1_555 1_555
C75 N45 1_555 1_555
C76 N48 1_555 1_555
C78 N47 1_555 1_555
C79 N50 1_555 1_555
C81 N49 1_555 1_555
C82 N51 1_555 1_555
N9 N10 1_555 1_555
N11 N12 1_555 1_555
N13 N14 1_555 1_555
N15 N16 1_555 1_555
N19 N20 1_555 1_555
N21 N22 1_555 1_555
N23 N24 1_555 1_555
N25 N26 1_555 1_555
N35 N36 1_555 1_555
N37 N38 1_555 1_555
N39 N40 1_555 1_555
N41 N42 1_555 1_555
N44 Cu1_2 1_555 1_555
N45 N46 1_555 1_555
N47 N48 1_555 1_555
N49 N50 1_555 1_555
N51 N52 1_555 1_555

#END
