
#######################################################################
#
#                 Cambridge Crystallographic Data Centre
#                                CCDC 
#
#######################################################################
#
# If this CIF has been generated from an entry in the Cambridge 
# Structural Database, then it will include bibliographic, chemical, 
# crystal, experimental, refinement or atomic coordinate data resulting 
# from the CCDC's data processing and validation procedures.
#
#######################################################################

data_XUGPEW
_symmetry_cell_setting           triclinic
_symmetry_space_group_name_H-M   'P -1'
_symmetry_Int_Tables_number      2
_space_group_name_Hall           '-P 1'
loop_
_symmetry_equiv_pos_site_id
_symmetry_equiv_pos_as_xyz
1 x,y,z
2 -x,-y,-z
_cell_length_a                   14.6052(6)
_cell_length_b                   15.7448(6)
_cell_length_c                   27.0289(11)
_cell_angle_alpha                97.977(3)
_cell_angle_beta                 90.034(3)
_cell_angle_gamma                111.860(2)
_cell_volume                     5703.48
loop_
_atom_site_label
_atom_site_type_symbol
_atom_site_fract_x
_atom_site_fract_y
_atom_site_fract_z
Fe1 Fe 0.39783(4) 0.73035(4) 0.630466(17)
Fe2 Fe 0.77195(4) 1.05767(3) 0.881323(17)
Fe3 Fe 0.68709(4) 0.47596(3) 0.648716(17)
Fe4 Fe 1.05924(3) 0.78518(3) 0.842470(17)
Cu1 Cu 0.5000 0.5000 0.5000
Cu2 Cu 0.71847(3) 0.77959(3) 0.750405(16)
Cu3 Cu 1.0000 1.0000 1.0000
B1 B 0.2669(4) 0.8415(4) 0.6157(2)
B2 B 0.7901(4) 1.2564(3) 0.87175(18)
B3 B 0.6509(4) 0.2938(3) 0.68999(19)
B4 B 1.1749(3) 0.6548(3) 0.82282(18)
N1 N 0.3613(2) 0.4197(2) 0.52106(11)
N2 N 0.4809(3) 0.6343(2) 0.54590(12)
N3 N 0.5617(2) 0.4873(2) 0.56131(11)
N4 N 0.3380(3) 0.5563(3) 0.68074(13)
N5 N 0.2661(2) 0.6834(2) 0.59354(11)
N6 N 0.2185(2) 0.7416(3) 0.59044(12)
N7 N 0.3472(2) 0.7960(2) 0.68358(11)
N8 N 0.2900(3) 0.8425(2) 0.67114(12)
N9 N 0.5963(3) 0.7975(2) 0.69120(12)
N10 N 0.6105(2) 0.7134(2) 0.79411(10)
N11 N 0.8283(2) 0.8437(2) 0.70644(11)
N12 N 0.6970(2) 0.6596(2) 0.70778(11)
N13 N 0.7434(2) 0.8981(2) 0.79566(11)
N14 N 0.6117(3) 0.9217(3) 0.93534(15)
N15 N 0.6698(2) 1.0935(2) 0.85118(11)
N16 N 0.6889(2) 1.1845(2) 0.85063(12)
N17 N 0.4342(2) 0.8402(2) 0.59558(11)
N18 N 0.3700(3) 0.8834(2) 0.59226(12)
N19 N 0.7942(2) 1.16039(19) 0.93665(10)
N20 N 0.8013(2) 1.2449(2) 0.92613(11)
N21 N 0.8712(2) 1.1437(2) 0.84431(10)
N22 N 0.8691(2) 1.2296(2) 0.84286(11)
N23 N 0.9198(2) 1.0132(2) 0.94217(11)
N24 N 1.1250(2) 1.0927(2) 0.97672(11)
N25 N 0.8712(3) 0.5913(3) 0.59887(16)
N26 N 0.6847(2) 0.3588(2) 0.61005(11)
N27 N 0.6687(3) 0.2844(2) 0.63360(12)
N28 N 0.7643(2) 0.4601(2) 0.70349(11)
N29 N 0.7402(3) 0.3743(2) 0.71691(12)
N30 N 0.5679(2) 0.4036(2) 0.68027(11)
N31 N 0.5625(3) 0.3239(2) 0.69652(12)
N32 N 0.8472(2) 0.7529(2) 0.80688(13)
N33 N 1.0243(2) 0.8762(2) 0.94471(11)
N34 N 1.1219(3) 0.9735(3) 0.80610(13)
N35 N 1.0787(2) 0.7247(2) 0.77680(10)
N36 N 1.1329(2) 0.6701(2) 0.77447(11)
N37 N 1.1998(2) 0.8143(2) 0.86374(10)
N38 N 1.2401(2) 0.7499(2) 0.85191(12)
N39 N 1.0272(2) 0.6640(2) 0.86662(10)
N40 N 1.0869(2) 0.6153(2) 0.85510(11)
C1 C 0.2864(4) 0.3683(3) 0.48703(17)
H1 H 0.2988 0.3682 0.4533
C2 C 0.1953(4) 0.3175(4) 0.49933(19)
H2 H 0.1462 0.2859 0.4741
C3 C 0.1730(4) 0.3114(3) 0.54888(19)
C4 C 0.2478(4) 0.3647(3) 0.58360(17)
H3 H 0.2370 0.3651 0.6175
C5 C 0.3400(3) 0.4180(3) 0.56853(15)
H4 H 0.3889 0.4543 0.5930
C6 C 0.0707(4) 0.2474(4) 0.5602(2)
H5 H 0.0229 0.2247 0.5338
C7 C 0.0448(4) 0.2223(4) 0.6017(2)
H6 H 0.0925 0.2474 0.6280
C8 C -0.0539(4) 0.1568(4) 0.6139(3)
C9 C -0.1289(5) 0.1093(4) 0.5762(3)
H7 H -0.1188 0.1187 0.5431
C10 C -0.2193(5) 0.0474(5) 0.5897(3)
H8 H -0.2705 0.0160 0.5655
C11 C -0.2316(5) 0.0335(5) 0.6376(3)
H9 H -0.2905 -0.0095 0.6464
C12 C -0.1586(5) 0.0818(4) 0.6732(3)
H10 H -0.1690 0.0729 0.7064
C13 C -0.0697(5) 0.1436(4) 0.6615(3)
H11 H -0.0206 0.1762 0.6865
C14 C 0.4496(3) 0.6692(3) 0.57758(14)
C15 C 0.6075(3) 0.4862(2) 0.59561(13)
C16 C 0.3614(3) 0.6214(3) 0.66221(13)
C17 C 0.2096(4) 0.6017(4) 0.56955(17)
H12 H 0.2247 0.5489 0.5657
C18 C 0.1230(4) 0.6076(5) 0.5509(2)
H13 H 0.0702 0.5603 0.5325
C19 C 0.1321(4) 0.6952(5) 0.56503(19)
H14 H 0.0855 0.7198 0.5582
C20 C 0.3595(3) 0.8117(3) 0.73338(14)
H15 H 0.3957 0.7883 0.7521
C21 C 0.3105(4) 0.8677(3) 0.75308(17)
H16 H 0.3075 0.8889 0.7867
C22 C 0.2680(4) 0.8853(3) 0.71318(18)
H17 H 0.2296 0.9212 0.7147
C23 C 0.5143(3) 0.8878(3) 0.57429(14)
H18 H 0.5704 0.8733 0.5711
C24 C 0.5031(4) 0.9621(3) 0.55735(17)
H19 H 0.5486 1.0064 0.5409
C25 C 0.4114(4) 0.9568(3) 0.56977(15)
H20 H 0.3824 0.9981 0.5635
C26 C 0.5233(3) 0.7725(3) 0.66758(13)
C27 C 0.5253(3) 0.6476(3) 0.77361(14)
H21 H 0.5161 0.6355 0.7389
C28 C 0.4516(3) 0.5976(3) 0.80125(14)
H22 H 0.3945 0.5524 0.7851
C29 C 0.4614(3) 0.6139(3) 0.85339(13)
C30 C 0.5479(3) 0.6858(3) 0.87400(14)
H23 H 0.5567 0.7030 0.9085
C31 C 0.6200(3) 0.7316(3) 0.84410(13)
H24 H 0.6780 0.7773 0.8592
C32 C 0.3874(3) 0.5638(3) 0.88566(14)
H25 H 0.3949 0.5892 0.9193
C33 C 0.3109(3) 0.4861(3) 0.87237(15)
H26 H 0.3036 0.4600 0.8389
C34 C 0.2363(3) 0.4369(3) 0.90534(15)
C35 C 0.1705(3) 0.3491(3) 0.88864(18)
H27 H 0.1738 0.3208 0.8565
C36 C 0.0982(3) 0.3015(3) 0.9196(2)
H28 H 0.0545 0.2416 0.9079
C37 C 0.0913(4) 0.3410(4) 0.9657(2)
H29 H 0.0430 0.3093 0.9861
C38 C 0.1565(4) 0.4292(4) 0.9825(2)
H30 H 0.1520 0.4573 1.0145
C39 C 0.2278(4) 0.4763(3) 0.95310(17)
H31 H 0.2713 0.5359 0.9654
C40 C 0.9155(3) 0.9028(3) 0.72583(14)
H32 H 0.9265 0.9148 0.7604
C41 C 0.9911(3) 0.9475(3) 0.69660(16)
H33 H 1.0516 0.9882 0.7118
C42 C 0.9774(3) 0.9323(3) 0.64501(15)
C43 C 0.8865(3) 0.8703(3) 0.62554(16)
H34 H 0.8739 0.8566 0.5910
C44 C 0.8145(3) 0.8284(3) 0.65619(15)
H35 H 0.7534 0.7875 0.6418
C45 C 1.0521(3) 0.9791(3) 0.61089(18)
H36 H 1.0348 0.9633 0.5768
C46 C 1.1397(3) 1.0402(3) 0.62416(17)
H37 H 1.1562 1.0542 0.6584
C47 C 1.2171(3) 1.0908(3) 0.59170(17)
C48 C 1.3071(4) 1.1482(3) 0.61405(19)
H38 H 1.3178 1.1528 0.6484
C49 C 1.3824(4) 1.1993(3) 0.58697(19)
H39 H 1.4428 1.2372 0.6033
C50 C 1.3698(4) 1.1952(3) 0.53714(19)
H40 H 1.4210 1.2297 0.5191
C51 C 1.2807(4) 1.1395(4) 0.5138(2)
H41 H 1.2710 1.1362 0.4794
C52 C 1.2029(4) 1.0869(4) 0.5411(2)
H42 H 1.1422 1.0496 0.5248
C53 C 0.6909(3) 0.5910(3) 0.68474(13)
C54 C 0.7537(3) 0.9573(2) 0.82755(13)
C55 C 0.6723(3) 0.9723(3) 0.91523(14)
C56 C 0.5768(3) 1.0475(4) 0.83459(18)
H43 H 0.5448 0.9835 0.8307
C57 C 0.5337(4) 1.1085(4) 0.8237(3)
H44 H 0.4691 1.0942 0.8119
C58 C 0.6064(4) 1.1928(4) 0.8341(2)
H45 H 0.6003 1.2483 0.8303
C59 C 0.8058(3) 1.1676(3) 0.98618(13)
H46 H 0.8041 1.1198 1.0033
C60 C 0.8210(3) 1.2571(3) 1.00834(15)
H47 H 0.8319 1.2808 1.0422
C61 C 0.8162(3) 1.3028(3) 0.96956(15)
H48 H 0.8224 1.3642 0.9727
C62 C 0.9436(3) 1.1371(3) 0.81610(14)
H49 H 0.9616 1.0859 0.8106
C63 C 0.9879(4) 1.2186(4) 0.79627(17)
H50 H 1.0396 1.2319 0.7749
C64 C 0.9407(3) 1.2750(3) 0.81430(15)
H51 H 0.9555 1.3351 0.8079
C65 C 0.8660(3) 1.0259(2) 0.91586(12)
C66 C 1.1905(3) 1.1621(3) 1.0086(2)
H52 H 1.1796 1.1680 1.0426
C67 C 1.2743(4) 1.2250(4) 0.9911(3)
H53 H 1.3189 1.2719 1.0139
C68 C 1.2938(4) 1.2202(4) 0.9411(3)
C69 C 1.2273(4) 1.1480(4) 0.9107(2)
H54 H 1.2380 1.1394 0.8768
C70 C 1.1448(3) 1.0872(3) 0.92849(17)
H55 H 1.1003 1.0398 0.9059
C71 C 1.3793(5) 1.2844(5) 0.9167(4)
C72 C 1.4366(5) 1.3408(5) 0.9189(3)
C73 C 1.5192(4) 1.4041(4) 0.8955(3)
C74 C 1.5924(5) 1.4704(5) 0.9275(3)
H56 H 1.5878 1.4715 0.9619
C75 C 1.6720(5) 1.5348(5) 0.9093(3)
H57 H 1.7206 1.5797 0.9312
C76 C 1.6795(4) 1.5327(4) 0.8583(2)
H58 H 1.7336 1.5758 0.8458
C77 C 1.6083(4) 1.4680(4) 0.8267(2)
H59 H 1.6136 1.4661 0.7923
C78 C 1.5280(4) 1.4048(4) 0.8453(2)
H60 H 1.4785 1.3615 0.8231
C79 C 0.8030(3) 0.5481(3) 0.61726(14)
C80 C 0.6917(4) 0.3320(3) 0.56211(16)
H61 H 0.7028 0.3695 0.5373
C81 C 0.6801(5) 0.2398(4) 0.5545(2)
H62 H 0.6820 0.2040 0.5244
C82 C 0.6653(5) 0.2127(4) 0.6002(2)
H63 H 0.6546 0.1536 0.6071
C83 C 0.8366(3) 0.5188(3) 0.73611(14)
H64 H 0.8674 0.5821 0.7356
C84 C 0.8586(4) 0.4715(4) 0.77061(16)
H65 H 0.9057 0.4956 0.7972
C85 C 0.7962(4) 0.3817(4) 0.75724(17)
H66 H 0.7934 0.3329 0.7738
C86 C 0.4834(3) 0.4156(3) 0.69178(15)
H67 H 0.4673 0.4646 0.6846
C87 C 0.4247(4) 0.3452(4) 0.71553(19)
H68 H 0.3630 0.3377 0.7277
C88 C 0.4753(4) 0.2883(4) 0.71773(19)
H69 H 0.4533 0.2338 0.7316
C89 C 0.9243(3) 0.7630(2) 0.82125(13)
C90 C 1.0366(3) 0.8410(2) 0.90648(13)
C91 C 1.0961(3) 0.9030(3) 0.81968(13)
C92 C 1.0476(3) 0.7227(3) 0.73020(13)
H70 H 1.0088 0.7541 0.7213
C93 C 1.0813(3) 0.6670(3) 0.69683(15)
H71 H 1.0702 0.6540 0.6622
C94 C 1.1345(3) 0.6353(3) 0.72628(16)
H72 H 1.1667 0.5960 0.7147
C95 C 1.2701(3) 0.8892(3) 0.88937(13)
H73 H 1.2622 0.9439 0.9020
C96 C 1.3566(3) 0.8727(3) 0.89419(16)
H74 H 1.4165 0.9128 0.9103
C97 C 1.3344(3) 0.7847(3) 0.87018(16)
H75 H 1.3777 0.7536 0.8670
C98 C 0.9609(3) 0.6172(3) 0.89590(13)
H76 H 0.9114 0.6351 0.9097
C99 C 0.9756(4) 0.5376(3) 0.90313(16)
H77 H 0.9384 0.4926 0.9218
C100 C 1.0559(3) 0.5395(3) 0.87720(15)
H78 H 1.0844 0.4954 0.8752
H79 H 0.631(2) 0.210(2) 0.7056(11)
H80 H 1.213(3) 0.609(3) 0.8174(14)
H81 H 0.799(3) 1.326(3) 0.8679(13)
H82 H 0.224(3) 0.882(2) 0.6099(13)
Fe1A Fe 0.60217(4) 0.26965(4) 0.369534(17)
Fe2A Fe 0.22805(4) -0.05767(3) 0.118677(17)
Fe3A Fe 0.31291(4) 0.52404(3) 0.351284(17)
Fe4A Fe -0.05924(3) 0.21482(3) 0.157530(17)
Cu2A Cu 0.28153(3) 0.22041(3) 0.249595(16)
B1A B 0.7331(4) 0.1585(4) 0.3843(2)
B2A B 0.2099(4) -0.2564(3) 0.12825(18)
B3A B 0.3491(4) 0.7062(3) 0.31001(19)
B4A B -0.1749(3) 0.3452(3) 0.17718(18)
N1A N 0.6387(2) 0.5803(2) 0.47894(11)
N2A N 0.5191(3) 0.3657(2) 0.45410(12)
N3A N 0.4383(2) 0.5127(2) 0.43869(11)
N4A N 0.6620(3) 0.4437(3) 0.31926(13)
N5A N 0.7339(2) 0.3166(2) 0.40646(11)
N6A N 0.7815(2) 0.2584(3) 0.40956(12)
N7A N 0.6528(2) 0.2040(2) 0.31642(11)
N8A N 0.7100(3) 0.1575(2) 0.32886(12)
N9A N 0.4037(3) 0.2025(2) 0.30880(12)
N10A N 0.3895(2) 0.2866(2) 0.20589(10)
N11A N 0.1717(2) 0.1563(2) 0.29356(11)
N12A N 0.3030(2) 0.3404(2) 0.29222(11)
N13A N 0.2566(2) 0.1019(2) 0.20434(11)
N14A N 0.3883(3) 0.0783(3) 0.06466(15)
N15A N 0.3302(2) -0.0935(2) 0.14882(11)
N16A N 0.3111(2) -0.1845(2) 0.14937(12)
N17A N 0.5658(2) 0.1598(2) 0.40442(11)
N18A N 0.6300(3) 0.1166(2) 0.40774(12)
N19A N 0.2058(2) -0.16039(19) 0.06335(10)
N20A N 0.1987(2) -0.2449(2) 0.07387(11)
N21A N 0.1288(2) -0.1437(2) 0.15569(10)
N22A N 0.1309(2) -0.2296(2) 0.15714(11)
N23A N 0.0802(2) -0.0132(2) 0.05783(11)
N25A N 0.1288(3) 0.4087(3) 0.40113(16)
N26A N 0.3153(2) 0.6412(2) 0.38995(11)
N27A N 0.3313(3) 0.7156(2) 0.36640(12)
N28A N 0.2357(2) 0.5399(2) 0.29651(11)
N29A N 0.2598(3) 0.6257(2) 0.28309(12)
N30A N 0.4321(2) 0.5964(2) 0.31973(11)
N31A N 0.4375(3) 0.6761(2) 0.30348(12)
N32A N 0.1528(2) 0.2471(2) 0.19312(13)
N33A N -0.0243(2) 0.1238(2) 0.05529(11)
N34A N -0.1219(3) 0.0265(3) 0.19390(13)
N35A N -0.0787(2) 0.2753(2) 0.22320(10)
N36A N -0.1329(2) 0.3299(2) 0.22553(11)
N37A N -0.1998(2) 0.1857(2) 0.13626(10)
N38A N -0.2401(2) 0.2501(2) 0.14809(12)
N39A N -0.0272(2) 0.3360(2) 0.13338(10)
N40A N -0.0869(2) 0.3847(2) 0.14490(11)
C1A C 0.7136(4) 0.6317(3) 0.51297(17)
H1A H 0.7012 0.6318 0.5467
C2A C 0.8047(4) 0.6825(4) 0.50067(19)
H2A H 0.8538 0.7141 0.5259
C3A C 0.8270(4) 0.6886(3) 0.45112(19)
C4A C 0.7522(4) 0.6353(3) 0.41640(17)
H3A H 0.7630 0.6349 0.3825
C5A C 0.6600(3) 0.5820(3) 0.43147(15)
H4A H 0.6111 0.5457 0.4070
C6A C 0.9293(4) 0.7526(4) 0.4398(2)
H5A H 0.9771 0.7753 0.4662
C7A C 0.9552(4) 0.7777(4) 0.3983(2)
H6A H 0.9075 0.7526 0.3720
C8A C 1.0539(4) 0.8432(4) 0.3861(3)
C9A C 1.1289(5) 0.8907(4) 0.4238(3)
H7A H 1.1188 0.8813 0.4569
C10A C 1.2193(5) 0.9526(5) 0.4103(3)
H8A H 1.2705 0.9840 0.4345
C11A C 1.2316(5) 0.9665(5) 0.3624(3)
H9A H 1.2905 1.0095 0.3536
C12A C 1.1586(5) 0.9182(4) 0.3268(3)
H10A H 1.1690 0.9271 0.2936
C13A C 1.0697(5) 0.8564(4) 0.3385(3)
H11A H 1.0206 0.8238 0.3135
C14A C 0.5504(3) 0.3308(3) 0.42242(14)
C15A C 0.3925(3) 0.5138(2) 0.40439(13)
C16A C 0.6386(3) 0.3786(3) 0.33779(13)
C17A C 0.7904(4) 0.3983(4) 0.43045(17)
H12A H 0.7753 0.4511 0.4343
C18A C 0.8770(4) 0.3924(5) 0.4491(2)
H13A H 0.9298 0.4397 0.4675
C19A C 0.8679(4) 0.3048(5) 0.43497(19)
H14A H 0.9145 0.2802 0.4418
C20A C 0.6405(3) 0.1883(3) 0.26662(14)
H15A H 0.6043 0.2117 0.2479
C21A C 0.6895(4) 0.1323(3) 0.24692(17)
H16A H 0.6925 0.1111 0.2133
C22A C 0.7320(4) 0.1147(3) 0.28682(18)
H17A H 0.7704 0.0788 0.2853
C23A C 0.4857(3) 0.1122(3) 0.42571(14)
H18A H 0.4296 0.1267 0.4289
C24A C 0.4969(4) 0.0379(3) 0.44265(17)
H19A H 0.4514 -0.0064 0.4591
C25A C 0.5886(4) 0.0432(3) 0.43023(15)
H20A H 0.6176 0.0019 0.4365
C26A C 0.4767(3) 0.2275(3) 0.33242(13)
C27A C 0.4747(3) 0.3524(3) 0.22639(14)
H21A H 0.4839 0.3645 0.2611
C28A C 0.5484(3) 0.4024(3) 0.19875(14)
H22A H 0.6055 0.4476 0.2149
C29A C 0.5386(3) 0.3861(3) 0.14661(13)
C30A C 0.4521(3) 0.3142(3) 0.12600(14)
H23A H 0.4433 0.2970 0.0915
C31A C 0.3800(3) 0.2684(3) 0.15590(13)
H24A H 0.3220 0.2227 0.1408
C32A C 0.6126(3) 0.4362(3) 0.11434(14)
H25A H 0.6051 0.4108 0.0807
C33A C 0.6891(3) 0.5139(3) 0.12763(15)
H26A H 0.6964 0.5400 0.1611
C34A C 0.7637(3) 0.5631(3) 0.09466(15)
C35A C 0.8295(3) 0.6509(3) 0.11136(18)
H27A H 0.8262 0.6792 0.1435
C36A C 0.9018(3) 0.6985(3) 0.0804(2)
H28A H 0.9455 0.7584 0.0921
C37A C 0.9087(4) 0.6590(4) 0.0343(2)
H29A H 0.9570 0.6907 0.0139
C38A C 0.8435(4) 0.5708(4) 0.0175(2)
H30A H 0.8480 0.5427 -0.0145
C39A C 0.7722(4) 0.5237(3) 0.04690(17)
H31A H 0.7287 0.4641 0.0346
C40A C 0.0845(3) 0.0972(3) 0.27417(14)
H32A H 0.0735 0.0852 0.2396
C41A C 0.0089(3) 0.0525(3) 0.30340(16)
H33A H -0.0516 0.0118 0.2882
C42A C 0.0226(3) 0.0677(3) 0.35499(15)
C43A C 0.1135(3) 0.1297(3) 0.37446(16)
H34A H 0.1261 0.1434 0.4090
C44A C 0.1855(3) 0.1716(3) 0.34381(15)
H35A H 0.2466 0.2125 0.3582
C45A C -0.0521(3) 0.0209(3) 0.38911(18)
H36A H -0.0348 0.0367 0.4232
C46A C -0.1397(3) -0.0402(3) 0.37584(17)
H37A H -0.1562 -0.0542 0.3416
C47A C -0.2171(3) -0.0908(3) 0.40830(17)
C48A C -0.3071(4) -0.1482(3) 0.38595(19)
H38A H -0.3178 -0.1528 0.3516
C49A C -0.3824(4) -0.1993(3) 0.41303(19)
H39A H -0.4428 -0.2372 0.3967
C50A C -0.3698(4) -0.1952(3) 0.46286(19)
H40A H -0.4210 -0.2297 0.4809
C51A C -0.2807(4) -0.1395(4) 0.4862(2)
H41A H -0.2710 -0.1362 0.5206
C52A C -0.2029(4) -0.0869(4) 0.4589(2)
H42A H -0.1422 -0.0496 0.4752
C53A C 0.3091(3) 0.4090(3) 0.31526(13)
C54A C 0.2463(3) 0.0427(2) 0.17245(13)
C55A C 0.3277(3) 0.0277(3) 0.08477(14)
C56A C 0.4232(3) -0.0475(4) 0.16541(18)
H43A H 0.4552 0.0165 0.1693
C57A C 0.4663(4) -0.1085(4) 0.1763(3)
H44A H 0.5309 -0.0942 0.1881
C58A C 0.3936(4) -0.1928(4) 0.1659(2)
H45A H 0.3997 -0.2483 0.1697
C59A C 0.1942(3) -0.1676(3) 0.01382(13)
H46A H 0.1959 -0.1198 -0.0033
C60A C 0.1790(3) -0.2571(3) -0.00834(15)
H47A H 0.1681 -0.2808 -0.0422
C61A C 0.1838(3) -0.3028(3) 0.03044(15)
H48A H 0.1776 -0.3642 0.0273
C62A C 0.0564(3) -0.1371(3) 0.18390(14)
H49A H 0.0384 -0.0859 0.1894
C63A C 0.0121(4) -0.2186(4) 0.20373(17)
H50A H -0.0396 -0.2319 0.2251
C64A C 0.0593(3) -0.2750(3) 0.18570(15)
H51A H 0.0445 -0.3351 0.1921
C65A C 0.1340(3) -0.0259(2) 0.08414(12)
C79A C 0.1970(3) 0.4519(3) 0.38274(14)
C80A C 0.3083(4) 0.6680(3) 0.43789(16)
H61A H 0.2972 0.6305 0.4627
C81A C 0.3199(5) 0.7602(4) 0.4455(2)
H62A H 0.3180 0.7960 0.4756
C82A C 0.3347(5) 0.7873(4) 0.3998(2)
H63A H 0.3454 0.8464 0.3929
C83A C 0.1634(3) 0.4812(3) 0.26389(14)
H64A H 0.1326 0.4179 0.2644
C84A C 0.1414(4) 0.5285(4) 0.22939(16)
H65A H 0.0943 0.5044 0.2028
C85A C 0.2038(4) 0.6183(4) 0.24276(17)
H66A H 0.2066 0.6671 0.2262
C86A C 0.5166(3) 0.5844(3) 0.30822(15)
H67A H 0.5327 0.5354 0.3154
C87A C 0.5753(4) 0.6548(4) 0.28447(19)
H68A H 0.6370 0.6623 0.2723
C88A C 0.5247(4) 0.7117(4) 0.28227(19)
H69A H 0.5467 0.7662 0.2684
C89A C 0.0757(3) 0.2370(2) 0.17875(13)
C90A C -0.0366(3) 0.1590(2) 0.09352(13)
C91A C -0.0961(3) 0.0970(3) 0.18032(13)
C92A C -0.0476(3) 0.2773(3) 0.26980(13)
H70A H -0.0088 0.2459 0.2787
C93A C -0.0813(3) 0.3330(3) 0.30317(15)
H71A H -0.0702 0.3460 0.3378
C94A C -0.1345(3) 0.3647(3) 0.27372(16)
H72A H -0.1667 0.4040 0.2853
C95A C -0.2701(3) 0.1108(3) 0.11063(13)
H73A H -0.2622 0.0561 0.0980
C96A C -0.3566(3) 0.1273(3) 0.10581(16)
H74A H -0.4165 0.0872 0.0897
C97A C -0.3344(3) 0.2153(3) 0.12982(16)
H75A H -0.3777 0.2464 0.1330
C98A C 0.0391(3) 0.3828(3) 0.10410(13)
H76A H 0.0886 0.3649 0.0903
C99A C 0.0244(4) 0.4624(3) 0.09687(16)
H77A H 0.0616 0.5074 0.0782
C100A C -0.0559(3) 0.4605(3) 0.12280(15)
H78A H -0.0844 0.5046 0.1248
H79A H 0.369(2) 0.790(2) 0.2944(11)
H80A H -0.213(3) 0.391(3) 0.1826(14)
H81A H 0.201(3) -0.326(3) 0.1321(13)
H82A H 0.776(3) 0.118(2) 0.3901(13)
N24A N 0.8750(2) 0.9073(2) 1.02328(11)
C66A C 0.8095(3) 0.8379(3) 0.9914(2)
H52A H 0.8204 0.8320 0.9574
C67A C 0.7257(4) 0.7750(4) 1.0089(3)
H53A H 0.6811 0.7281 0.9861
C68A C 0.7062(4) 0.7798(4) 1.0589(3)
C69A C 0.7727(4) 0.8520(4) 1.0893(2)
H54A H 0.7620 0.8606 1.1232
C70A C 0.8552(3) 0.9128(3) 1.07151(17)
H55A H 0.8997 0.9602 1.0941
C71A C 0.6207(5) 0.7156(5) 1.0833(4)
C72A C 0.5634(5) 0.6592(5) 1.0811(3)
C73A C 0.4808(4) 0.5959(4) 1.1045(3)
C74A C 0.4076(5) 0.5296(5) 1.0725(3)
H56A H 0.4122 0.5285 1.0381
C75A C 0.3280(5) 0.4652(5) 1.0907(3)
H57A H 0.2794 0.4203 1.0688
C76A C 0.3205(4) 0.4673(4) 1.1417(2)
H58A H 0.2664 0.4242 1.1542
C77A C 0.3917(4) 0.5320(4) 1.1733(2)
H59A H 0.3864 0.5339 1.2077
C78A C 0.4720(4) 0.5952(4) 1.1547(2)
H60A H 0.5215 0.6385 1.1769
Cu3_2 Cu 0.0000 0.0000 0.0000
N23A_2 N 1.0802(2) 0.9868(2) 1.05783(11)
N33A_2 N 0.9757(2) 1.1238(2) 1.05529(11)
N41 N 0.4196(5) 0.7100(4) -0.0047(2)
C101 C 0.4447(4) 0.7832(5) 0.0126(2)
C102 C 0.4793(5) 0.8784(4) 0.0350(2)
H83 H 0.5500 0.9052 0.0343
H84 H 0.4606 0.8825 0.0690
H85 H 0.4506 0.9112 0.0166
N42 N -0.0570(6) 0.4025(6) 0.6250(4)
C103 C 0.0338(5) 0.3904(5) 0.7066(3)
H86 H 0.0180 0.3264 0.7094
H87 H 0.0123 0.4196 0.7353
H88 H 0.1039 0.4207 0.7048
C104 C -0.0051(5) 0.3956(5) 0.6714(4)
O1 O 0.2282(3) 0.4067(3) 0.73523(17)
O2 O 0.2703(5) 0.1239(4) 0.7662(3)
O3 O 0.1721(6) 0.2153(6) 0.7237(4)
N43 N 0.4183(9) 0.0740(8) 0.7060(4)
C105 C 0.4853(9) 0.0470(8) 0.7041(4)
C106 C 0.5690(9) 0.0196(8) 0.7078(4)
H89 H 0.6243 0.0709 0.7245
H90 H 0.5859 0.0009 0.6749
H91 H 0.5522 -0.0312 0.7266
loop_
_geom_bond_atom_site_label_1
_geom_bond_atom_site_label_2
_geom_bond_site_symmetry_1
_geom_bond_site_symmetry_2
Fe1 N5 1_555 1_555
Fe2 N15 1_555 1_555
Fe3 N26 1_555 1_555
Fe4 N35 1_555 1_555
Cu1 N1 1_555 1_555
Cu2 N9 1_555 1_555
Cu3 N23 1_555 1_555
B1 N6 1_555 1_555
B2 N16 1_555 1_555
B3 N27 1_555 1_555
B4 N36 1_555 1_555
N1 C1 1_555 1_555
N2 Cu1 1_555 1_555
N3 Cu1 1_555 1_555
N4 C16 1_555 1_555
N5 N6 1_555 1_555
N6 C19 1_555 1_555
N7 Fe1 1_555 1_555
N8 B1 1_555 1_555
N9 C26 1_555 1_555
N10 Cu2 1_555 1_555
N11 Cu2 1_555 1_555
N12 Cu2 1_555 1_555
N13 Cu2 1_555 1_555
N14 C55 1_555 1_555
N15 N16 1_555 1_555
N16 C58 1_555 1_555
N17 Fe1 1_555 1_555
N18 B1 1_555 1_555
N19 Fe2 1_555 1_555
N20 B2 1_555 1_555
N21 Fe2 1_555 1_555
N22 B2 1_555 1_555
N23 C65 1_555 1_555
N24 Cu3 1_555 1_555
N25 C79 1_555 1_555
N26 N27 1_555 1_555
N27 C82 1_555 1_555
N28 Fe3 1_555 1_555
N29 B3 1_555 1_555
N30 Fe3 1_555 1_555
N31 B3 1_555 1_555
N32 Cu2 1_555 1_555
N33 Cu3 1_555 1_555
N34 C91 1_555 1_555
N35 N36 1_555 1_555
N36 C94 1_555 1_555
N37 Fe4 1_555 1_555
N38 B4 1_555 1_555
N39 Fe4 1_555 1_555
N40 B4 1_555 1_555
C1 H1 1_555 1_555
C2 C1 1_555 1_555
H2 C2 1_555 1_555
C3 C2 1_555 1_555
C4 C3 1_555 1_555
H3 C4 1_555 1_555
C5 N1 1_555 1_555
H4 C5 1_555 1_555
C6 C3 1_555 1_555
H5 C6 1_555 1_555
C7 C6 1_555 1_555
H6 C7 1_555 1_555
C8 C7 1_555 1_555
C9 C8 1_555 1_555
H7 C9 1_555 1_555
C10 C9 1_555 1_555
H8 C10 1_555 1_555
C11 C10 1_555 1_555
H9 C11 1_555 1_555
C12 C11 1_555 1_555
H10 C12 1_555 1_555
C13 C8 1_555 1_555
H11 C13 1_555 1_555
C14 Fe1 1_555 1_555
C15 Fe3 1_555 1_555
C16 Fe1 1_555 1_555
C17 N5 1_555 1_555
H12 C17 1_555 1_555
C18 C17 1_555 1_555
H13 C18 1_555 1_555
C19 C18 1_555 1_555
H14 C19 1_555 1_555
C20 N7 1_555 1_555
H15 C20 1_555 1_555
C21 C20 1_555 1_555
H16 C21 1_555 1_555
C22 N8 1_555 1_555
H17 C22 1_555 1_555
C23 N17 1_555 1_555
H18 C23 1_555 1_555
C24 C23 1_555 1_555
H19 C24 1_555 1_555
C25 N18 1_555 1_555
H20 C25 1_555 1_555
C26 Fe1 1_555 1_555
C27 N10 1_555 1_555
H21 C27 1_555 1_555
C28 C27 1_555 1_555
H22 C28 1_555 1_555
C29 C28 1_555 1_555
C30 C29 1_555 1_555
H23 C30 1_555 1_555
C31 N10 1_555 1_555
H24 C31 1_555 1_555
C32 C29 1_555 1_555
H25 C32 1_555 1_555
C33 C32 1_555 1_555
H26 C33 1_555 1_555
C34 C33 1_555 1_555
C35 C34 1_555 1_555
H27 C35 1_555 1_555
C36 C35 1_555 1_555
H28 C36 1_555 1_555
C37 C36 1_555 1_555
H29 C37 1_555 1_555
C38 C37 1_555 1_555
H30 C38 1_555 1_555
C39 C34 1_555 1_555
H31 C39 1_555 1_555
C40 N11 1_555 1_555
H32 C40 1_555 1_555
C41 C40 1_555 1_555
H33 C41 1_555 1_555
C42 C41 1_555 1_555
C43 C42 1_555 1_555
H34 C43 1_555 1_555
C44 N11 1_555 1_555
H35 C44 1_555 1_555
C45 C42 1_555 1_555
H36 C45 1_555 1_555
C46 C45 1_555 1_555
H37 C46 1_555 1_555
C47 C46 1_555 1_555
C48 C47 1_555 1_555
H38 C48 1_555 1_555
C49 C48 1_555 1_555
H39 C49 1_555 1_555
C50 C49 1_555 1_555
H40 C50 1_555 1_555
C51 C50 1_555 1_555
H41 C51 1_555 1_555
C52 C47 1_555 1_555
H42 C52 1_555 1_555
C53 Fe3 1_555 1_555
C54 Fe2 1_555 1_555
C55 Fe2 1_555 1_555
C56 N15 1_555 1_555
H43 C56 1_555 1_555
C57 C56 1_555 1_555
H44 C57 1_555 1_555
C58 C57 1_555 1_555
H45 C58 1_555 1_555
C59 N19 1_555 1_555
H46 C59 1_555 1_555
C60 C59 1_555 1_555
H47 C60 1_555 1_555
C61 N20 1_555 1_555
H48 C61 1_555 1_555
C62 N21 1_555 1_555
H49 C62 1_555 1_555
C63 C62 1_555 1_555
H50 C63 1_555 1_555
C64 N22 1_555 1_555
H51 C64 1_555 1_555
C65 Fe2 1_555 1_555
C66 N24 1_555 1_555
H52 C66 1_555 1_555
C67 C66 1_555 1_555
H53 C67 1_555 1_555
C68 C67 1_555 1_555
C69 C68 1_555 1_555
H54 C69 1_555 1_555
C70 N24 1_555 1_555
H55 C70 1_555 1_555
C71 C68 1_555 1_555
C72 C71 1_555 1_555
C73 C72 1_555 1_555
C74 C73 1_555 1_555
H56 C74 1_555 1_555
C75 C74 1_555 1_555
H57 C75 1_555 1_555
C76 C75 1_555 1_555
H58 C76 1_555 1_555
C77 C76 1_555 1_555
H59 C77 1_555 1_555
C78 C73 1_555 1_555
H60 C78 1_555 1_555
C79 Fe3 1_555 1_555
C80 N26 1_555 1_555
H61 C80 1_555 1_555
C81 C80 1_555 1_555
H62 C81 1_555 1_555
C82 C81 1_555 1_555
H63 C82 1_555 1_555
C83 N28 1_555 1_555
H64 C83 1_555 1_555
C84 C83 1_555 1_555
H65 C84 1_555 1_555
C85 N29 1_555 1_555
H66 C85 1_555 1_555
C86 N30 1_555 1_555
H67 C86 1_555 1_555
C87 C86 1_555 1_555
H68 C87 1_555 1_555
C88 N31 1_555 1_555
H69 C88 1_555 1_555
C89 Fe4 1_555 1_555
C90 Fe4 1_555 1_555
C91 Fe4 1_555 1_555
C92 N35 1_555 1_555
H70 C92 1_555 1_555
C93 C92 1_555 1_555
H71 C93 1_555 1_555
C94 C93 1_555 1_555
H72 C94 1_555 1_555
C95 N37 1_555 1_555
H73 C95 1_555 1_555
C96 C95 1_555 1_555
H74 C96 1_555 1_555
C97 N38 1_555 1_555
H75 C97 1_555 1_555
C98 N39 1_555 1_555
H76 C98 1_555 1_555
C99 C98 1_555 1_555
H77 C99 1_555 1_555
C100 N40 1_555 1_555
H78 C100 1_555 1_555
H79 B3 1_555 1_555
H80 B4 1_555 1_555
H81 B2 1_555 1_555
H82 B1 1_555 1_555
N41 C101 1_555 1_555
C101 C102 1_555 1_555
C102 H83 1_555 1_555
H84 C102 1_555 1_555
H85 C102 1_555 1_555
N42 C104 1_555 1_555
C103 H86 1_555 1_555
H87 C103 1_555 1_555
H88 C103 1_555 1_555
C104 C103 1_555 1_555
N43 C105 1_555 1_555
C105 C106 1_555 1_555
C106 H89 1_555 1_555
H90 C106 1_555 1_555
H91 C106 1_555 1_555
Fe1A N5A 1_555 1_555
Fe2A N15A 1_555 1_555
Fe3A N26A 1_555 1_555
Fe4A N35A 1_555 1_555
Cu2A N9A 1_555 1_555
B1A N6A 1_555 1_555
B2A N16A 1_555 1_555
B3A N27A 1_555 1_555
B4A N36A 1_555 1_555
N1A Cu1 1_555 1_555
N2A Cu1 1_555 1_555
N3A Cu1 1_555 1_555
N4A C16A 1_555 1_555
N5A N6A 1_555 1_555
N6A C19A 1_555 1_555
N7A Fe1A 1_555 1_555
N8A B1A 1_555 1_555
N9A C26A 1_555 1_555
N10A Cu2A 1_555 1_555
N11A Cu2A 1_555 1_555
N12A Cu2A 1_555 1_555
N13A Cu2A 1_555 1_555
N14A C55A 1_555 1_555
N15A N16A 1_555 1_555
N16A C58A 1_555 1_555
N17A Fe1A 1_555 1_555
N18A B1A 1_555 1_555
N19A Fe2A 1_555 1_555
N20A B2A 1_555 1_555
N21A Fe2A 1_555 1_555
N22A B2A 1_555 1_555
N23A C65A 1_555 1_555
N25A C79A 1_555 1_555
N26A N27A 1_555 1_555
N27A C82A 1_555 1_555
N28A Fe3A 1_555 1_555
N29A B3A 1_555 1_555
N30A Fe3A 1_555 1_555
N31A B3A 1_555 1_555
N32A Cu2A 1_555 1_555
N33A C90A 1_555 1_555
N34A C91A 1_555 1_555
N35A N36A 1_555 1_555
N36A C94A 1_555 1_555
N37A Fe4A 1_555 1_555
N38A B4A 1_555 1_555
N39A Fe4A 1_555 1_555
N40A B4A 1_555 1_555
C1A N1A 1_555 1_555
H1A C1A 1_555 1_555
C2A C1A 1_555 1_555
H2A C2A 1_555 1_555
C3A C2A 1_555 1_555
C4A C3A 1_555 1_555
H3A C4A 1_555 1_555
C5A N1A 1_555 1_555
H4A C5A 1_555 1_555
C6A C3A 1_555 1_555
H5A C6A 1_555 1_555
C7A C6A 1_555 1_555
H6A C7A 1_555 1_555
C8A C7A 1_555 1_555
C9A C8A 1_555 1_555
H7A C9A 1_555 1_555
C10A C9A 1_555 1_555
H8A C10A 1_555 1_555
C11A C10A 1_555 1_555
H9A C11A 1_555 1_555
C12A C11A 1_555 1_555
H10A C12A 1_555 1_555
C13A C8A 1_555 1_555
H11A C13A 1_555 1_555
C14A Fe1A 1_555 1_555
C15A Fe3A 1_555 1_555
C16A Fe1A 1_555 1_555
C17A N5A 1_555 1_555
H12A C17A 1_555 1_555
C18A C17A 1_555 1_555
H13A C18A 1_555 1_555
C19A C18A 1_555 1_555
H14A C19A 1_555 1_555
C20A N7A 1_555 1_555
H15A C20A 1_555 1_555
C21A C20A 1_555 1_555
H16A C21A 1_555 1_555
C22A N8A 1_555 1_555
H17A C22A 1_555 1_555
C23A N17A 1_555 1_555
H18A C23A 1_555 1_555
C24A C23A 1_555 1_555
H19A C24A 1_555 1_555
C25A N18A 1_555 1_555
H20A C25A 1_555 1_555
C26A Fe1A 1_555 1_555
C27A N10A 1_555 1_555
H21A C27A 1_555 1_555
C28A C27A 1_555 1_555
H22A C28A 1_555 1_555
C29A C28A 1_555 1_555
C30A C29A 1_555 1_555
H23A C30A 1_555 1_555
C31A N10A 1_555 1_555
H24A C31A 1_555 1_555
C32A C29A 1_555 1_555
H25A C32A 1_555 1_555
C33A C32A 1_555 1_555
H26A C33A 1_555 1_555
C34A C33A 1_555 1_555
C35A C34A 1_555 1_555
H27A C35A 1_555 1_555
C36A C35A 1_555 1_555
H28A C36A 1_555 1_555
C37A C36A 1_555 1_555
H29A C37A 1_555 1_555
C38A C37A 1_555 1_555
H30A C38A 1_555 1_555
C39A C34A 1_555 1_555
H31A C39A 1_555 1_555
C40A N11A 1_555 1_555
H32A C40A 1_555 1_555
C41A C40A 1_555 1_555
H33A C41A 1_555 1_555
C42A C41A 1_555 1_555
C43A C42A 1_555 1_555
H34A C43A 1_555 1_555
C44A N11A 1_555 1_555
H35A C44A 1_555 1_555
C45A C42A 1_555 1_555
H36A C45A 1_555 1_555
C46A C45A 1_555 1_555
H37A C46A 1_555 1_555
C47A C46A 1_555 1_555
C48A C47A 1_555 1_555
H38A C48A 1_555 1_555
C49A C48A 1_555 1_555
H39A C49A 1_555 1_555
C50A C49A 1_555 1_555
H40A C50A 1_555 1_555
C51A C50A 1_555 1_555
H41A C51A 1_555 1_555
C52A C47A 1_555 1_555
H42A C52A 1_555 1_555
C53A Fe3A 1_555 1_555
C54A Fe2A 1_555 1_555
C55A Fe2A 1_555 1_555
C56A N15A 1_555 1_555
H43A C56A 1_555 1_555
C57A C56A 1_555 1_555
H44A C57A 1_555 1_555
C58A C57A 1_555 1_555
H45A C58A 1_555 1_555
C59A N19A 1_555 1_555
H46A C59A 1_555 1_555
C60A C59A 1_555 1_555
H47A C60A 1_555 1_555
C61A N20A 1_555 1_555
H48A C61A 1_555 1_555
C62A N21A 1_555 1_555
H49A C62A 1_555 1_555
C63A C62A 1_555 1_555
H50A C63A 1_555 1_555
C64A N22A 1_555 1_555
H51A C64A 1_555 1_555
C65A Fe2A 1_555 1_555
C79A Fe3A 1_555 1_555
C80A N26A 1_555 1_555
H61A C80A 1_555 1_555
C81A C80A 1_555 1_555
H62A C81A 1_555 1_555
C82A C81A 1_555 1_555
H63A C82A 1_555 1_555
C83A N28A 1_555 1_555
H64A C83A 1_555 1_555
C84A C83A 1_555 1_555
H65A C84A 1_555 1_555
C85A N29A 1_555 1_555
H66A C85A 1_555 1_555
C86A N30A 1_555 1_555
H67A C86A 1_555 1_555
C87A C86A 1_555 1_555
H68A C87A 1_555 1_555
C88A N31A 1_555 1_555
H69A C88A 1_555 1_555
C89A Fe4A 1_555 1_555
C90A Fe4A 1_555 1_555
C91A Fe4A 1_555 1_555
C92A N35A 1_555 1_555
H70A C92A 1_555 1_555
C93A C92A 1_555 1_555
H71A C93A 1_555 1_555
C94A C93A 1_555 1_555
H72A C94A 1_555 1_555
C95A N37A 1_555 1_555
H73A C95A 1_555 1_555
C96A C95A 1_555 1_555
H74A C96A 1_555 1_555
C97A N38A 1_555 1_555
H75A C97A 1_555 1_555
C98A N39A 1_555 1_555
H76A C98A 1_555 1_555
C99A C98A 1_555 1_555
H77A C99A 1_555 1_555
C100A N40A 1_555 1_555
H78A C100A 1_555 1_555
H79A B3A 1_555 1_555
H80A B4A 1_555 1_555
H81A B2A 1_555 1_555
H82A B1A 1_555 1_555
N24A Cu3 1_555 1_555
C66A N24A 1_555 1_555
H52A C66A 1_555 1_555
C67A C66A 1_555 1_555
H53A C67A 1_555 1_555
C68A C67A 1_555 1_555
C69A C68A 1_555 1_555
H54A C69A 1_555 1_555
C70A N24A 1_555 1_555
H55A C70A 1_555 1_555
C71A C68A 1_555 1_555
C72A C71A 1_555 1_555
C73A C72A 1_555 1_555
C74A C73A 1_555 1_555
H56A C74A 1_555 1_555
C75A C74A 1_555 1_555
H57A C75A 1_555 1_555
C76A C75A 1_555 1_555
H58A C76A 1_555 1_555
C77A C76A 1_555 1_555
H59A C77A 1_555 1_555
C78A C73A 1_555 1_555
H60A C78A 1_555 1_555
Cu3_2 N23A 1_555 1_555
N23A_2 Cu3 1_555 1_555
N33A_2 Cu3 1_555 1_555
N2 C14 1_555 1_555
N3 C15 1_555 1_555
N7 N8 1_555 1_555
N12 C53 1_555 1_555
N13 C54 1_555 1_555
N17 N18 1_555 1_555
N19 N20 1_555 1_555
N21 N22 1_555 1_555
N28 N29 1_555 1_555
N30 N31 1_555 1_555
N32 C89 1_555 1_555
N33 C90 1_555 1_555
N37 N38 1_555 1_555
N39 N40 1_555 1_555
C4 C5 1_555 1_555
C12 C13 1_555 1_555
C21 C22 1_555 1_555
C24 C25 1_555 1_555
C30 C31 1_555 1_555
C38 C39 1_555 1_555
C43 C44 1_555 1_555
C51 C52 1_555 1_555
C60 C61 1_555 1_555
C63 C64 1_555 1_555
C69 C70 1_555 1_555
C77 C78 1_555 1_555
C84 C85 1_555 1_555
C87 C88 1_555 1_555
C96 C97 1_555 1_555
C99 C100 1_555 1_555
N2A C14A 1_555 1_555
N3A C15A 1_555 1_555
N7A N8A 1_555 1_555
N12A C53A 1_555 1_555
N13A C54A 1_555 1_555
N17A N18A 1_555 1_555
N19A N20A 1_555 1_555
N21A N22A 1_555 1_555
N28A N29A 1_555 1_555
N30A N31A 1_555 1_555
N32A C89A 1_555 1_555
N33A Cu3_2 1_555 1_555
N37A N38A 1_555 1_555
N39A N40A 1_555 1_555
C4A C5A 1_555 1_555
C12A C13A 1_555 1_555
C21A C22A 1_555 1_555
C24A C25A 1_555 1_555
C30A C31A 1_555 1_555
C38A C39A 1_555 1_555
C43A C44A 1_555 1_555
C51A C52A 1_555 1_555
C60A C61A 1_555 1_555
C63A C64A 1_555 1_555
C84A C85A 1_555 1_555
C87A C88A 1_555 1_555
C96A C97A 1_555 1_555
C99A C100A 1_555 1_555
C69A C70A 1_555 1_555
C77A C78A 1_555 1_555

#END
