
#######################################################################
#
#                 Cambridge Crystallographic Data Centre
#                                CCDC 
#
#######################################################################
#
# If this CIF has been generated from an entry in the Cambridge 
# Structural Database, then it will include bibliographic, chemical, 
# crystal, experimental, refinement or atomic coordinate data resulting 
# from the CCDC's data processing and validation procedures.
#
#######################################################################

data_XUGQIB
_symmetry_cell_setting           monoclinic
_symmetry_space_group_name_H-M   'C 2/c'
_symmetry_Int_Tables_number      15
_space_group_name_Hall           '-C 2yn'
loop_
_symmetry_equiv_pos_site_id
_symmetry_equiv_pos_as_xyz
1 x,y,z
2 -x,y,1/2-z
3 1/2+x,1/2+y,z
4 1/2-x,1/2+y,1/2-z
5 -x,-y,-z
6 x,-y,1/2+z
7 1/2-x,1/2-y,-z
8 1/2+x,1/2-y,1/2+z
_cell_length_a                   24.802(5)
_cell_length_b                   6.7932(14)
_cell_length_c                   8.0715(16)
_cell_angle_alpha                90
_cell_angle_beta                 108.42(3)
_cell_angle_gamma                90
_cell_volume                     1290.25
loop_
_atom_site_label
_atom_site_type_symbol
_atom_site_fract_x
_atom_site_fract_y
_atom_site_fract_z
Mg1 Mg 0.2500 0.2500 0.5000
N1 N 0.5000 0.5968(3) 1.2500
H1 H 0.5000 0.7234 1.2500
O1 O 0.31101(5) 0.1982(2) 0.73747(17)
O2 O 0.42633(7) 0.6007(2) 0.9996(2)
N2 N 0.45995(6) 0.3033(2) 1.1227(2)
O3 O 0.5000 0.0181(3) 1.2500
C1 C 0.5000 0.1969(4) 1.2500
O4 O 0.27340(6) -0.0023(2) 0.8872(2)
O5 O 0.19307(6) 0.0827(3) 0.5760(2)
C2 C 0.45934(8) 0.5059(3) 1.1161(3)
C3 C 0.31258(8) 0.1045(3) 0.8726(2)
C4 C 0.41692(8) 0.1941(3) 0.9821(3)
H2 H 0.4347 0.0781 0.9521
H3 H 0.4044 0.2769 0.8791
C5 C 0.36541(8) 0.1311(3) 1.0321(3)
H4 H 0.3577 0.2294 1.1087
H5 H 0.3738 0.0080 1.0960
O1A O 0.68899(5) 0.1982(2) 1.76253(17)
O2A O 0.57367(7) 0.6007(2) 1.5004(2)
N2A N 0.54005(6) 0.3033(2) 1.3773(2)
C2A C 0.54066(8) 0.5059(3) 1.3839(3)
C3A C 0.68742(8) 0.1045(3) 1.6274(2)
C4A C 0.58308(8) 0.1941(3) 1.5179(3)
H2A H 0.5653 0.0781 1.5479
H3A H 0.5956 0.2769 1.6209
C5A C 0.63459(8) 0.1311(3) 1.4679(3)
H4A H 0.6423 0.2294 1.3913
H5A H 0.6262 0.0080 1.4040
O4A O 0.72660(6) -0.0023(2) 1.6128(2)
O5F O 0.30693(6) 0.4173(3) 0.4240(2)
Mg1A Mg 0.7500 0.2500 2.0000
Mg1B Mg 0.7500 -0.2500 1.5000
Mg1C Mg 0.2500 -0.2500 1.0000
O1F O 0.18899(5) 0.3018(2) 0.26253(17)
O4C O 0.22660(6) 0.4977(2) 0.6128(2)
O4E O 0.27340(6) 0.0023(2) 0.3872(2)
loop_
_geom_bond_atom_site_label_1
_geom_bond_atom_site_label_2
_geom_bond_site_symmetry_1
_geom_bond_site_symmetry_2
Mg1 O1 1_555 1_555
N1 H1 1_555 1_555
O1 C3 1_555 1_555
O2 C2 1_555 1_555
N2 C1 1_555 1_555
O3 C1 1_555 1_555
C1 N2A 1_555 1_555
O4 C3 1_555 1_555
O5 Mg1 1_555 1_555
C2 N1 1_555 1_555
C3 C5 1_555 1_555
C4 N2 1_555 1_555
H2 C4 1_555 1_555
H3 C4 1_555 1_555
C5 C4 1_555 1_555
H4 C5 1_555 1_555
H5 C5 1_555 1_555
O1A C3A 1_555 1_555
O2A C2A 1_555 1_555
N2A C2A 1_555 1_555
C2A N1 1_555 1_555
C3A C5A 1_555 1_555
C4A N2A 1_555 1_555
H2A C4A 1_555 1_555
H3A C4A 1_555 1_555
C5A C4A 1_555 1_555
H4A C5A 1_555 1_555
H5A C5A 1_555 1_555
O4A C3A 1_555 1_555
O5F Mg1 1_555 1_555
Mg1A O1A 1_555 1_555
Mg1B O4A 1_555 1_555
Mg1C O4 1_555 1_555
O1F Mg1 1_555 1_555
O4C Mg1 1_555 1_555
O4E Mg1 1_555 1_555
N2 C2 1_555 1_555

#END
