
#######################################################################
#
#                 Cambridge Crystallographic Data Centre
#                                CCDC 
#
#######################################################################
#
# If this CIF has been generated from an entry in the Cambridge 
# Structural Database, then it will include bibliographic, chemical, 
# crystal, experimental, refinement or atomic coordinate data resulting 
# from the CCDC's data processing and validation procedures.
#
#######################################################################

data_XUGRAU
_symmetry_cell_setting           orthorhombic
_symmetry_space_group_name_H-M   'F d d 2'
_symmetry_Int_Tables_number      43
_space_group_name_Hall           'F 2 -2d'
loop_
_symmetry_equiv_pos_site_id
_symmetry_equiv_pos_as_xyz
1 x,y,z
2 -x,-y,z
3 1/4+x,1/4-y,1/4+z
4 1/4-x,1/4+y,1/4+z
5 x,1/2+y,1/2+z
6 -x,1/2-y,1/2+z
7 1/4+x,3/4-y,3/4+z
8 1/4-x,3/4+y,3/4+z
9 1/2+x,y,1/2+z
10 1/2-x,-y,1/2+z
11 3/4+x,1/4-y,3/4+z
12 3/4-x,1/4+y,3/4+z
13 1/2+x,1/2+y,z
14 1/2-x,1/2-y,z
15 3/4+x,3/4-y,1/4+z
16 3/4-x,3/4+y,1/4+z
_cell_length_a                   10.8228(9)
_cell_length_b                   45.149(4)
_cell_length_c                   8.9852(7)
_cell_angle_alpha                90
_cell_angle_beta                 90
_cell_angle_gamma                90
_cell_volume                     4390.52
loop_
_atom_site_label
_atom_site_type_symbol
_atom_site_fract_x
_atom_site_fract_y
_atom_site_fract_z
Ba1 Ba 0.2500 0.2500 0.84106(8)
Ba2 Ba 0.59562(5) 0.306834(9) 0.90386(5)
Cl1 Cl 0.2500 0.2500 0.4962(4)
O1 O 0.6304(6) 0.36702(12) 0.9123(8)
N1 N 0.5427(6) 0.34500(13) 0.6470(9)
C1 C 0.5639(7) 0.37499(16) 0.6710(10)
C2 C 0.6193(8) 0.38499(17) 0.8118(10)
O2 O 0.4313(5) 0.27026(14) 1.0633(8)
N2 N 0.4689(6) 0.37055(14) 0.4553(8)
H1 H 0.4332 0.3742 0.3718
C3 C 0.5174(8) 0.39111(17) 0.5500(9)
C4 C 0.4867(7) 0.34329(18) 0.5151(11)
C5 C 0.5084(7) 0.42358(16) 0.5178(10)
O3 O 0.4370(6) 0.43133(13) 0.4203(9)
O4 O 0.5714(8) 0.44108(13) 0.5910(10)
C6 C 0.4470(7) 0.31542(17) 0.4416(11)
H2 H 0.5154 0.3077 0.3837
H3 H 0.4269 0.3009 0.5175
O5 O 0.3429(5) 0.31911(14) 0.3464(8)
H4 H 0.3238 0.3374 0.3435
O6 O 0.6485(7) 0.41230(14) 0.8245(8)
O7 O 0.3620(6) 0.22668(13) 1.1172(9)
O8 O 0.5037(6) 0.24601(18) 1.2541(8)
N3 N 0.4335(6) 0.24810(14) 1.1456(9)
Ba2M Ba -0.09562(5) 0.193166(9) 0.90386(5)
O1M O -0.1304(6) 0.13298(12) 0.9123(8)
N1M N -0.0427(6) 0.15500(13) 0.6470(9)
C1M C -0.0639(7) 0.12501(16) 0.6710(10)
C2M C -0.1193(8) 0.11501(17) 0.8118(10)
O2M O 0.0687(5) 0.22974(14) 1.0633(8)
N2M N 0.0311(6) 0.12945(14) 0.4553(8)
H1M H 0.0668 0.1258 0.3718
C3M C -0.0174(8) 0.10889(17) 0.5500(9)
C4M C 0.0133(7) 0.15671(18) 0.5151(11)
C5M C -0.0084(7) 0.07642(16) 0.5178(10)
O3M O 0.0630(6) 0.06867(13) 0.4203(9)
O4M O -0.0714(8) 0.05892(13) 0.5910(10)
C6M C 0.0530(7) 0.18458(17) 0.4416(11)
H2M H -0.0154 0.1923 0.3837
H3M H 0.0731 0.1991 0.5175
O5M O 0.1571(5) 0.18089(14) 0.3464(8)
H4M H 0.1762 0.1626 0.3435
O6M O -0.1485(7) 0.08770(14) 0.8245(8)
O7M O 0.1380(6) 0.27332(13) 1.1172(9)
O8M O -0.0037(6) 0.25399(18) 1.2541(8)
N3M N 0.0665(6) 0.25190(14) 1.1456(9)
Ba1E Ba -0.2500 0.2500 1.34106(8)
Ba1E_2 Ba 0.7500 0.2500 1.34106(8)
Ba1F Ba 0.5000 0.5000 0.59106(8)
Ba1G Ba 0.0000 0.0000 0.59106(8)
Ba2E Ba 0.40438(5) 0.193166(9) 0.40386(5)
Ba2E_2 Ba 0.40438(5) 0.193166(9) 1.40386(5)
Ba2F Ba 0.84562(5) 0.443166(9) 0.65386(5)
Ba2G Ba -0.34562(5) 0.056834(9) 0.65386(5)
Ba2H Ba 0.09562(5) 0.306834(9) 0.40386(5)
Ba2H_2 Ba 0.09562(5) 0.306834(9) 1.40386(5)
Ba2N Ba 0.34562(5) 0.443166(9) 0.15386(5)
Ba2O Ba 0.15438(5) 0.056834(9) 0.15386(5)
Cl1E Cl -0.2500 0.2500 0.9962(4)
Cl1E_2 Cl 0.7500 0.2500 0.9962(4)
O3F O 0.6870(6) 0.31867(13) 1.1703(9)
O3G O -0.1870(6) 0.18133(13) 1.1703(9)
O4N O 0.3214(8) 0.30892(13) 0.8410(10)
O4O O 0.1786(8) 0.19108(13) 0.8410(10)
O5E O -0.3429(5) 0.18089(14) 0.8464(8)
O5H O 0.8429(5) 0.31911(14) 0.8464(8)
O6N O 0.3985(7) 0.33770(14) 1.0745(8)
O6O O 0.1015(7) 0.16230(14) 1.0745(8)
O7E O 0.6380(6) 0.27332(13) 0.6172(9)
O7H O -0.1380(6) 0.22668(13) 0.6172(9)
O8E O 0.4963(6) 0.25399(18) 0.7541(8)
O8H O 0.0037(6) 0.24601(18) 0.7541(8)
loop_
_geom_bond_atom_site_label_1
_geom_bond_atom_site_label_2
_geom_bond_site_symmetry_1
_geom_bond_site_symmetry_2
Ba1 Cl1 1_555 1_555
Ba2 O1 1_555 1_555
Cl1 Ba2E 1_555 1_555
O1 C2 1_555 1_555
N1 Ba2 1_555 1_555
C1 N1 1_555 1_555
C2 C1 1_555 1_555
O2 Ba1 1_555 1_555
N2 H1 1_555 1_555
C3 C1 1_555 1_555
C4 N1 1_555 1_555
C5 C3 1_555 1_555
O3 C5 1_555 1_555
O4 C5 1_555 1_555
C6 C4 1_555 1_555
H2 C6 1_555 1_555
H3 C6 1_555 1_555
O5 C6 1_555 1_555
H4 O5 1_555 1_555
O6 C2 1_555 1_555
O7 Ba1 1_555 1_555
O8 N3 1_555 1_555
N3 O2 1_555 1_555
Ba2M O1M 1_555 1_555
O1M C2M 1_555 1_555
N1M Ba2M 1_555 1_555
C1M N1M 1_555 1_555
C2M C1M 1_555 1_555
O2M Ba1 1_555 1_555
N2M H1M 1_555 1_555
C3M C1M 1_555 1_555
C4M N1M 1_555 1_555
C5M C3M 1_555 1_555
O3M C5M 1_555 1_555
O4M C5M 1_555 1_555
C6M C4M 1_555 1_555
H2M C6M 1_555 1_555
H3M C6M 1_555 1_555
O5M C6M 1_555 1_555
H4M O5M 1_555 1_555
O6M C2M 1_555 1_555
O7M Ba1 1_555 1_555
O8M N3M 1_555 1_555
N3M O2M 1_555 1_555
Ba1E O8M 1_555 1_555
Ba1E_2 O8 1_555 1_555
Ba1F O4 1_555 1_555
Ba1G O4M 1_555 1_555
Ba2E O5M 1_555 1_555
Ba2E_2 O7 1_555 1_555
Ba2F O4 1_555 1_555
Ba2G O4M 1_555 1_555
Ba2H Cl1 1_555 1_555
Ba2H_2 O7M 1_555 1_555
Ba2N O3 1_555 1_555
Ba2O O3M 1_555 1_555
Cl1E Ba2M 1_555 1_555
Cl1E_2 Ba2 1_555 1_555
O3F Ba2 1_555 1_555
O3G Ba2M 1_555 1_555
O4N Ba1 1_555 1_555
O4O Ba1 1_555 1_555
O5E Ba2M 1_555 1_555
O5H Ba2 1_555 1_555
O6N Ba2 1_555 1_555
O6O Ba2M 1_555 1_555
O7E Ba2 1_555 1_555
O7H Ba2M 1_555 1_555
O8E Ba1 1_555 1_555
O8H Ba1 1_555 1_555
Ba2 O2 1_555 1_555
Ba2 O4N 1_555 1_555
Ba2 O8E 1_555 1_555
N2 C3 1_555 1_555
N2 C4 1_555 1_555
O5 Ba2H 1_555 1_555
O6 Ba2F 1_555 1_555
O7 N3 1_555 1_555
O8 Ba2E_2 1_555 1_555
Ba2M O2M 1_555 1_555
Ba2M O4O 1_555 1_555
Ba2M O8H 1_555 1_555
N2M C3M 1_555 1_555
N2M C4M 1_555 1_555
O6M Ba2G 1_555 1_555
O7M N3M 1_555 1_555
O8M Ba2H_2 1_555 1_555
Ba1E Cl1E 1_555 1_555
Ba1E_2 Cl1E_2 1_555 1_555

#END
