
#######################################################################
#
#                 Cambridge Crystallographic Data Centre
#                                CCDC 
#
#######################################################################
#
# If this CIF has been generated from an entry in the Cambridge 
# Structural Database, then it will include bibliographic, chemical, 
# crystal, experimental, refinement or atomic coordinate data resulting 
# from the CCDC's data processing and validation procedures.
#
#######################################################################

data_XUGROI
_symmetry_cell_setting           monoclinic
_symmetry_space_group_name_H-M   'C 2/c'
_symmetry_Int_Tables_number      15
_space_group_name_Hall           '-C 2yn'
loop_
_symmetry_equiv_pos_site_id
_symmetry_equiv_pos_as_xyz
1 x,y,z
2 -x,y,1/2-z
3 1/2+x,1/2+y,z
4 1/2-x,1/2+y,1/2-z
5 -x,-y,-z
6 x,-y,1/2+z
7 1/2-x,1/2-y,-z
8 1/2+x,1/2-y,1/2+z
_cell_length_a                   17.714(7)
_cell_length_b                   12.567(5)
_cell_length_c                   25.643(9)
_cell_angle_alpha                90
_cell_angle_beta                 93.440(6)
_cell_angle_gamma                90
_cell_volume                     5698.15
loop_
_atom_site_label
_atom_site_type_symbol
_atom_site_fract_x
_atom_site_fract_y
_atom_site_fract_z
Cu1 Cu 0.82189(9) 0.22490(15) 0.50327(6)
O1 O 0.8354(5) 0.3451(7) 0.5514(3)
O2 O 0.7059(5) 0.3904(7) 0.5462(3)
O3 O 0.8286(4) 0.6773(7) 0.9428(3)
O4 O 0.7004(5) 0.6328(7) 0.9383(3)
O5 O 0.9447(6) 0.1910(8) 0.5074(5)
C1 C 0.9342(7) 0.5377(13) 0.7180(5)
C2 C 0.9328(8) 0.5388(12) 0.7744(5)
C3 C 1.0012(9) 0.5380(13) 0.6949(5)
H1 H 1.0023 0.5376 0.6586
C4 C 0.8634(10) 0.5504(14) 0.6821(5)
C5 C 0.8520(9) 0.4742(13) 0.6389(5)
H2 H 0.8882 0.4226 0.6332
C6 C 0.7869(9) 0.4806(14) 0.6073(5)
C7 C 0.7363(9) 0.5676(18) 0.6144(6)
H3 H 0.6945 0.5745 0.5910
C8 C 0.7457(10) 0.6393(16) 0.6526(7)
H4 H 0.711(5) 0.691(7) 0.645(3)
C9 C 0.8084(9) 0.6307(15) 0.6888(6)
H5 H 0.8137 0.6773 0.7169
C10 C 0.8545(8) 0.5282(13) 0.8011(5)
C11 C 0.8473(8) 0.5752(13) 0.8445(6)
H6 H 0.8872 0.6163 0.8587
C12 C 0.7800(9) 0.5670(14) 0.8723(6)
C13 C 0.7230(9) 0.4984(14) 0.8523(5)
H7 H 0.6777 0.4923 0.8685
C14 C 0.7352(9) 0.4422(14) 0.8096(6)
H8 H 0.6981 0.3947 0.7972
C15 C 0.8017(9) 0.4514(14) 0.7823(7)
H9 H 0.8102 0.4091 0.7535
C16 C 0.7729(10) 0.3976(15) 0.5648(5)
C17 C 0.7685(9) 0.6313(12) 0.9245(5)
O1A O 1.1646(5) 0.3451(7) 0.9486(3)
O2A O 1.2941(5) 0.3904(7) 0.9538(3)
O3A O 1.1714(4) 0.6773(7) 0.5572(3)
O4A O 1.2996(5) 0.6328(7) 0.5617(3)
C1A C 1.0658(7) 0.5377(13) 0.7820(5)
C2A C 1.0672(8) 0.5388(12) 0.7256(5)
C3A C 0.9988(9) 0.5380(13) 0.8051(5)
H1A H 0.9977 0.5376 0.8414
C4A C 1.1366(10) 0.5504(14) 0.8179(5)
C5A C 1.1480(9) 0.4742(13) 0.8611(5)
H2A H 1.1118 0.4226 0.8668
C6A C 1.2131(9) 0.4806(14) 0.8927(5)
C7A C 1.2637(9) 0.5676(18) 0.8856(6)
H3A H 1.3055 0.5745 0.9090
C8A C 1.2543(10) 0.6393(16) 0.8474(7)
H4A H 1.289(5) 0.691(7) 0.855(3)
C9A C 1.1916(9) 0.6307(15) 0.8112(6)
H5A H 1.1863 0.6773 0.7831
C10A C 1.1455(8) 0.5282(13) 0.6989(5)
C11A C 1.1527(8) 0.5752(13) 0.6555(6)
H6A H 1.1128 0.6163 0.6413
C12A C 1.2200(9) 0.5670(14) 0.6277(6)
C13A C 1.2770(9) 0.4984(14) 0.6477(5)
H7A H 1.3223 0.4923 0.6315
C14A C 1.2648(9) 0.4422(14) 0.6904(6)
H8A H 1.3019 0.3947 0.7028
C15A C 1.1983(9) 0.4514(14) 0.7177(7)
H9A H 1.1898 0.4091 0.7465
C16A C 1.2271(10) 0.3976(15) 0.9352(5)
C17A C 1.2315(9) 0.6313(12) 0.5755(5)
Cu1A Cu 1.17811(9) 0.22490(15) 0.99673(6)
O5A O 1.0553(6) 0.1910(8) 0.9926(5)
Cu1B Cu 1.32189(9) 0.72490(15) 0.50327(6)
Cu1C Cu 0.67811(9) 0.72490(15) 0.99673(6)
Cu1D Cu 1.17811(9) 0.77510(15) 0.49673(6)
Cu1E Cu 0.82189(9) 0.77510(15) 1.00327(6)
Cu1F Cu 0.67811(9) 0.27510(15) 0.49673(6)
Cu1G Cu 1.32189(9) 0.27510(15) 1.00327(6)
O2F O 0.7941(5) 0.1096(7) 0.4538(3)
O2G O 1.2059(5) 0.1096(7) 1.0462(3)
O3D O 1.1714(4) 0.3227(7) 1.0572(3)
O3E O 0.8286(4) 0.3227(7) 0.4428(3)
O4B O 1.2004(5) 0.1328(7) 0.9383(3)
O4C O 0.7996(5) 0.1328(7) 0.5617(3)
loop_
_geom_bond_atom_site_label_1
_geom_bond_atom_site_label_2
_geom_bond_site_symmetry_1
_geom_bond_site_symmetry_2
Cu1 O1 1_555 1_555
O1 C16 1_555 1_555
O2 C16 1_555 1_555
O3 C17 1_555 1_555
O4 C17 1_555 1_555
O5 Cu1 1_555 1_555
C1 C2 1_555 1_555
C2 C10 1_555 1_555
C3 C1 1_555 1_555
H1 C3 1_555 1_555
C4 C1 1_555 1_555
C5 C4 1_555 1_555
H2 C5 1_555 1_555
C6 C5 1_555 1_555
C7 C6 1_555 1_555
H3 C7 1_555 1_555
C8 C7 1_555 1_555
H4 C8 1_555 1_555
C9 C4 1_555 1_555
H5 C9 1_555 1_555
C10 C11 1_555 1_555
C11 H6 1_555 1_555
C12 C11 1_555 1_555
C13 C12 1_555 1_555
H7 C13 1_555 1_555
C14 C13 1_555 1_555
H8 C14 1_555 1_555
C15 C10 1_555 1_555
H9 C15 1_555 1_555
C16 C6 1_555 1_555
C17 C12 1_555 1_555
O1A C16A 1_555 1_555
O2A C16A 1_555 1_555
O3A C17A 1_555 1_555
O4A C17A 1_555 1_555
C1A C2A 1_555 1_555
C2A C3 1_555 1_555
C3A C2 1_555 1_555
H1A C3A 1_555 1_555
C4A C1A 1_555 1_555
C5A C4A 1_555 1_555
H2A C5A 1_555 1_555
C6A C5A 1_555 1_555
C7A C6A 1_555 1_555
H3A C7A 1_555 1_555
C8A C7A 1_555 1_555
H4A C8A 1_555 1_555
C9A C4A 1_555 1_555
H5A C9A 1_555 1_555
C10A C2A 1_555 1_555
C11A C10A 1_555 1_555
H6A C11A 1_555 1_555
C12A C11A 1_555 1_555
C13A C12A 1_555 1_555
H7A C13A 1_555 1_555
C14A C13A 1_555 1_555
H8A C14A 1_555 1_555
C15A C10A 1_555 1_555
H9A C15A 1_555 1_555
C16A C6A 1_555 1_555
C17A C12A 1_555 1_555
Cu1A O1A 1_555 1_555
O5A Cu1A 1_555 1_555
Cu1B O4A 1_555 1_555
Cu1C O4 1_555 1_555
Cu1D O3A 1_555 1_555
Cu1E O3 1_555 1_555
Cu1F Cu1 1_555 1_555
Cu1G O2A 1_555 1_555
O2F Cu1 1_555 1_555
O2G Cu1A 1_555 1_555
O3D Cu1A 1_555 1_555
O3E Cu1 1_555 1_555
O4B Cu1A 1_555 1_555
O4C Cu1 1_555 1_555
O2 Cu1F 1_555 1_555
C8 C9 1_555 1_555
C14 C15 1_555 1_555
C1A C3A 1_555 1_555
C8A C9A 1_555 1_555
C14A C15A 1_555 1_555
Cu1A Cu1G 1_555 1_555
Cu1B Cu1D 1_555 1_555
Cu1C Cu1E 1_555 1_555

#END
