
#######################################################################
#
#                 Cambridge Crystallographic Data Centre
#                                CCDC 
#
#######################################################################
#
# If this CIF has been generated from an entry in the Cambridge 
# Structural Database, then it will include bibliographic, chemical, 
# crystal, experimental, refinement or atomic coordinate data resulting 
# from the CCDC's data processing and validation procedures.
#
#######################################################################

data_XUGREY
_symmetry_cell_setting           monoclinic
_symmetry_space_group_name_H-M   'P 21/c'
_symmetry_Int_Tables_number      14
_space_group_name_Hall           '-P 2ybc'
loop_
_symmetry_equiv_pos_site_id
_symmetry_equiv_pos_as_xyz
1 x,y,z
2 -x,1/2+y,1/2-z
3 -x,-y,-z
4 x,1/2-y,1/2+z
_cell_length_a                   6.7621(12)
_cell_length_b                   16.079(3)
_cell_length_c                   6.9986(13)
_cell_angle_alpha                90
_cell_angle_beta                 96.627(2)
_cell_angle_gamma                90
_cell_volume                     755.858
loop_
_atom_site_label
_atom_site_type_symbol
_atom_site_fract_x
_atom_site_fract_y
_atom_site_fract_z
Pb1 Pb 0.24152(6) 0.41546(2) 0.03505(7)
N1 N 0.5073(13) 0.3293(5) 0.2478(12)
O1 O 0.1659(13) 0.2671(5) 0.0566(12)
C1 C 0.4669(16) 0.2441(6) 0.2462(16)
C2 C 0.2727(16) 0.2144(7) 0.1573(16)
O2 O 0.2209(12) 0.1417(5) 0.1799(12)
C3 C 0.6911(17) 0.1128(7) 0.3620(16)
C4 C 0.6350(16) 0.2027(6) 0.3272(15)
N2 N 0.7765(15) 0.2642(5) 0.3756(14)
H1 H 0.8967 0.2564 0.4274
C5 C 0.6929(17) 0.3372(7) 0.3275(15)
C6 C 0.801(2) 0.4176(7) 0.369(2)
H2 H 0.7391 0.4600 0.2839
H3 H 0.7857 0.4342 0.5002
O3 O 0.8690(15) 0.0972(5) 0.3985(18)
O4 O 0.5524(13) 0.0601(5) 0.3632(15)
O5 O 1.0126(15) 0.4139(5) 0.3477(18)
H4 H 1.0769 0.4094 0.4539
Pb1_2 Pb 1.24152(6) 0.41546(2) 0.03505(7)
Pb1A Pb 0.75848(6) -0.08454(2) 0.46495(7)
Pb1C Pb 0.24152(6) 0.08454(2) 0.53505(7)
Pb1C_2 Pb 1.24152(6) 0.08454(2) 0.53505(7)
O2C O 0.2209(12) 0.3583(5) -0.3201(12)
O3C O -0.1310(15) 0.4028(5) -0.1015(18)
O4A O 0.4476(13) 0.5601(5) 0.1368(15)
O4C O 0.5524(13) 0.4399(5) -0.1368(15)
O5_2 O 0.0126(15) 0.4139(5) 0.3477(18)
loop_
_geom_bond_atom_site_label_1
_geom_bond_atom_site_label_2
_geom_bond_site_symmetry_1
_geom_bond_site_symmetry_2
Pb1 N1 1_555 1_555
N1 C1 1_555 1_555
O1 Pb1 1_555 1_555
C1 C2 1_555 1_555
C2 O1 1_555 1_555
O2 C2 1_555 1_555
C3 C4 1_555 1_555
C4 C1 1_555 1_555
N2 C4 1_555 1_555
H1 N2 1_555 1_555
C5 N1 1_555 1_555
C6 C5 1_555 1_555
H2 C6 1_555 1_555
H3 C6 1_555 1_555
O3 C3 1_555 1_555
O4 C3 1_555 1_555
O5 C6 1_555 1_555
H4 O5 1_555 1_555
Pb1_2 O5 1_555 1_555
Pb1A O4 1_555 1_555
Pb1C O2 1_555 1_555
Pb1C_2 O3 1_555 1_555
O2C Pb1 1_555 1_555
O3C Pb1 1_555 1_555
O4A Pb1 1_555 1_555
O4C Pb1 1_555 1_555
O5_2 Pb1 1_555 1_555
N2 C5 1_555 1_555
O4 Pb1C 1_555 1_555

#END
