
#######################################################################
#
#                 Cambridge Crystallographic Data Centre
#                                CCDC 
#
#######################################################################
#
# If this CIF has been generated from an entry in the Cambridge 
# Structural Database, then it will include bibliographic, chemical, 
# crystal, experimental, refinement or atomic coordinate data resulting 
# from the CCDC's data processing and validation procedures.
#
#######################################################################

data_XUGSID
_symmetry_cell_setting           monoclinic
_symmetry_space_group_name_H-M   'C 2/c'
_symmetry_Int_Tables_number      15
_space_group_name_Hall           '-C 2yn'
loop_
_symmetry_equiv_pos_site_id
_symmetry_equiv_pos_as_xyz
1 x,y,z
2 -x,y,1/2-z
3 1/2+x,1/2+y,z
4 1/2-x,1/2+y,1/2-z
5 -x,-y,-z
6 x,-y,1/2+z
7 1/2-x,1/2-y,-z
8 1/2+x,1/2-y,1/2+z
_cell_length_a                   13.427(3)
_cell_length_b                   18.684(4)
_cell_length_c                   16.764(3)
_cell_angle_alpha                90
_cell_angle_beta                 112.11(3)
_cell_angle_gamma                90
_cell_volume                     3896.32
loop_
_atom_site_label
_atom_site_type_symbol
_atom_site_fract_x
_atom_site_fract_y
_atom_site_fract_z
Co1 Co -0.5000 0.0000 -0.5000
Co2 Co -1.0000 0.07186(3) -0.7500
O1 O -0.59131(16) 0.09306(12) -0.50164(15)
O2 O -0.74046(17) 0.05405(12) -0.48620(15)
O3 O -0.85361(16) 0.11150(11) -0.66814(13)
O4 O -0.99168(17) 0.16174(12) -0.65262(14)
O5 O -0.61203(19) -0.06234(14) -0.47152(18)
H1 H -0.6735 -0.0430 -0.4948
H2 H -0.6301 -0.1056 -0.4690
N1 N -0.4104(2) 0.01192(16) -0.36729(18)
N2 N -0.2939(2) -0.01167(17) -0.23700(19)
N3 N -0.0327(2) 0.00101(14) -0.16877(16)
N4 N -0.0969(2) 0.05206(15) -0.07778(17)
H3 H -0.1377 0.0599 -0.0496
C1 C -0.6813(2) 0.10167(17) -0.49729(18)
C2 C -0.8928(2) 0.15530(17) -0.63104(18)
C3 C -0.8183(2) 0.20262(16) -0.56154(18)
C4 C -0.7189(2) 0.17879(16) -0.50216(18)
C5 C -0.6522(2) 0.22665(16) -0.44288(19)
H4 H -0.5855 0.2109 -0.4048
C6 C -0.3365(3) -0.0311(2) -0.3182(2)
H5 H -0.3156 -0.0722 -0.3389
C7 C -0.3913(5) 0.0751(4) -0.3212(4)
H6 H -0.4233 0.1189 -0.3425
C8 C -0.3186(6) 0.0642(4) -0.2416(5)
H7 H -0.2902 0.0981 -0.1983
C9 C -0.2065(3) -0.04626(19) -0.1677(2)
H8 H -0.1888 -0.0912 -0.1882
H9 H -0.2292 -0.0567 -0.1204
C10 C -0.1100(2) 0.00024(16) -0.13665(19)
C11 C 0.0346(3) 0.05774(18) -0.1278(2)
C12 C 0.1250(3) 0.0851(2) -0.1372(2)
H10 H 0.1522 0.0642 -0.1752
C13 C 0.1735(3) 0.1435(2) -0.0894(3)
H11 H 0.2347 0.1623 -0.0950
C14 C 0.1338(4) 0.1758(2) -0.0326(3)
H12 H 0.1687 0.2157 -0.0014
C15 C 0.0436(3) 0.1496(2) -0.0216(3)
H13 H 0.0173 0.1705 0.0169
C16 C -0.0056(3) 0.09076(19) -0.0709(2)
O1F O -0.90869(16) 0.40694(12) -0.49836(15)
O2F O -0.75954(17) 0.44595(12) -0.51380(15)
O3F O -0.64639(16) 0.38850(11) -0.33186(13)
O4F O -0.50832(17) 0.33826(12) -0.34738(14)
C1F C -0.8187(2) 0.39833(17) -0.50271(18)
C2F C -0.6072(2) 0.34470(17) -0.36896(18)
C3F C -0.6817(2) 0.29738(16) -0.43846(18)
C4F C -0.7811(2) 0.32121(16) -0.49784(18)
C5F C -0.8478(2) 0.27335(16) -0.55712(19)
H4F H -0.9145 0.2891 -0.5952
N1D N -0.5896(2) -0.01192(16) -0.63271(18)
N2D N -0.7061(2) 0.01167(17) -0.76300(19)
N3D N -0.9673(2) -0.00101(14) -0.83123(16)
N4D N -0.9031(2) -0.05206(15) -0.92222(17)
H3D H -0.8623 -0.0599 -0.9504
C6D C -0.6635(3) 0.0311(2) -0.6818(2)
H5D H -0.6844 0.0722 -0.6611
C7D C -0.6087(5) -0.0751(4) -0.6788(4)
H6D H -0.5767 -0.1189 -0.6575
C8D C -0.6814(6) -0.0642(4) -0.7584(5)
H7D H -0.7098 -0.0981 -0.8017
C9D C -0.7935(3) 0.04626(19) -0.8323(2)
H8D H -0.8112 0.0912 -0.8118
H9D H -0.7708 0.0567 -0.8796
C10D C -0.8900(2) -0.00024(16) -0.86335(19)
C11D C -1.0346(3) -0.05774(18) -0.8722(2)
C12D C -1.1250(3) -0.0851(2) -0.8628(2)
H10D H -1.1522 -0.0642 -0.8248
C13D C -1.1735(3) -0.1435(2) -0.9106(3)
H11D H -1.2347 -0.1623 -0.9050
C14D C -1.1338(4) -0.1758(2) -0.9674(3)
H12D H -1.1687 -0.2157 -0.9986
C15D C -1.0436(3) -0.1496(2) -0.9784(3)
H13D H -1.0173 -0.1705 -1.0169
C16D C -0.9944(3) -0.09076(19) -0.9291(2)
O5D O -0.38797(19) 0.06234(14) -0.52848(18)
H1D H -0.3265 0.0430 -0.5052
H2D H -0.3699 0.1056 -0.5310
Co1B Co -1.0000 0.5000 -0.5000
Co2D Co 0.0000 -0.07186(3) -0.2500
Co2F Co -0.5000 0.42814(3) -0.2500
O1D O -0.40869(16) -0.09306(12) -0.49836(15)
O3A O -1.14639(16) 0.11150(11) -0.83186(13)
O4A O -1.00832(17) 0.16174(12) -0.84738(14)
N3E N -1.0327(2) -0.00101(14) -0.66877(16)
O6 O -0.0780(9) 0.3423(5) -0.3378(6)
H16 H -0.0384 0.3792 -0.3307
H17 H -0.0833 0.3228 -0.2938
O7 O -0.3036(9) 0.2587(6) -0.3009(9)
C17? C -0.4489(7) 0.0401(6) -0.3056(6)
H14? H -0.5101 0.0684 -0.3187
C18? C -0.3823(8) 0.0225(6) -0.2253(6)
H15? H -0.3928 0.0304 -0.1743
loop_
_geom_bond_atom_site_label_1
_geom_bond_atom_site_label_2
_geom_bond_site_symmetry_1
_geom_bond_site_symmetry_2
Co1 O1 1_555 1_555
Co2 O3 1_555 1_555
O1 C1 1_555 1_555
O2 C1 1_555 1_555
O3 C2 1_555 1_555
O4 Co2 1_555 1_555
O5 Co1 1_555 1_555
H1 O5 1_555 1_555
H2 O5 1_555 1_555
N1 Co1 1_555 1_555
N2 C6 1_555 1_555
N3 C10 1_555 1_555
N4 H3 1_555 1_555
C1 C4 1_555 1_555
C2 O4 1_555 1_555
C3 C2 1_555 1_555
C4 C3 1_555 1_555
C5 C4 1_555 1_555
H4 C5 1_555 1_555
C6 N1 1_555 1_555
H5 C6 1_555 1_555
C7 N1 1_555 1_555
H6 C7 1_555 1_555
C8 N2 1_555 1_555
H7 C8 1_555 1_555
C9 N2 1_555 1_555
H8 C9 1_555 1_555
H9 C9 1_555 1_555
C10 N4 1_555 1_555
C11 N3 1_555 1_555
C12 C11 1_555 1_555
H10 C12 1_555 1_555
C13 C12 1_555 1_555
H11 C13 1_555 1_555
C14 C13 1_555 1_555
H12 C14 1_555 1_555
C15 C14 1_555 1_555
H13 C15 1_555 1_555
C16 N4 1_555 1_555
O6 H16 1_555 1_555
H17 O6 1_555 1_555
O1F C1F 1_555 1_555
O2F C1F 1_555 1_555
O3F C2F 1_555 1_555
O4F C2F 1_555 1_555
C1F C4F 1_555 1_555
C2F C3F 1_555 1_555
C3F C5 1_555 1_555
C4F C3F 1_555 1_555
C5F C3 1_555 1_555
H4F C5F 1_555 1_555
N1D Co1 1_555 1_555
N2D C6D 1_555 1_555
N3D Co2 1_555 1_555
N4D H3D 1_555 1_555
C6D N1D 1_555 1_555
H5D C6D 1_555 1_555
C7D N1D 1_555 1_555
H6D C7D 1_555 1_555
C8D N2D 1_555 1_555
H7D C8D 1_555 1_555
C9D N2D 1_555 1_555
H8D C9D 1_555 1_555
H9D C9D 1_555 1_555
C10D N3D 1_555 1_555
C11D N3D 1_555 1_555
C12D C11D 1_555 1_555
H10D C12D 1_555 1_555
C13D C12D 1_555 1_555
H11D C13D 1_555 1_555
C14D C13D 1_555 1_555
H12D C14D 1_555 1_555
C15D C14D 1_555 1_555
H13D C15D 1_555 1_555
C16D N4D 1_555 1_555
O5D Co1 1_555 1_555
H1D O5D 1_555 1_555
H2D O5D 1_555 1_555
Co1B O1F 1_555 1_555
Co2D N3 1_555 1_555
Co2F O3F 1_555 1_555
O1D Co1 1_555 1_555
O3A Co2 1_555 1_555
O4A Co2 1_555 1_555
N3E Co2 1_555 1_555
C7 C8 1_555 1_555
C9 C10 1_555 1_555
C11 C16 1_555 1_555
C15 C16 1_555 1_555
O4F Co2F 1_555 1_555
C4F C5F 1_555 1_555
N4D C10D 1_555 1_555
C7D C8D 1_555 1_555
C9D C10D 1_555 1_555
C11D C16D 1_555 1_555
C15D C16D 1_555 1_555

#END
