
#######################################################################
#
#                 Cambridge Crystallographic Data Centre
#                                CCDC 
#
#######################################################################
#
# If this CIF has been generated from an entry in the Cambridge 
# Structural Database, then it will include bibliographic, chemical, 
# crystal, experimental, refinement or atomic coordinate data resulting 
# from the CCDC's data processing and validation procedures.
#
#######################################################################

data_XUGSUN
_symmetry_cell_setting           triclinic
_symmetry_space_group_name_H-M   'P -1'
_symmetry_Int_Tables_number      2
_space_group_name_Hall           '-P 1'
loop_
_symmetry_equiv_pos_site_id
_symmetry_equiv_pos_as_xyz
1 x,y,z
2 -x,-y,-z
_cell_length_a                   16.4200(10)
_cell_length_b                   19.817(2)
_cell_length_c                   20.439(2)
_cell_angle_alpha                70.322(4)
_cell_angle_beta                 68.554(5)
_cell_angle_gamma                76.193(5)
_cell_volume                     5777.89
loop_
_atom_site_label
_atom_site_type_symbol
_atom_site_fract_x
_atom_site_fract_y
_atom_site_fract_z
Ni1 Ni 0.23187(8) -0.07926(8) 0.32191(9)
N1 N 0.1825(8) -0.1099(7) 0.1916(7)
N2 N 0.2797(6) -0.0463(6) 0.2114(7)
H1 H 0.3264 -0.0794 0.1972
N3 N 0.2981(6) -0.0035(6) 0.3190(7)
H2 H 0.2584 0.0368 0.3236
N4 N 0.1783(6) -0.1106(6) 0.4335(6)
H3 H 0.1320 -0.0764 0.4455
N5 N 0.1648(6) -0.1530(6) 0.3213(6)
H4 H 0.2034 -0.1937 0.3158
C1 C 0.3543(9) -0.1348(12) 0.0324(12)
H5 H 0.3989 -0.1388 0.0518
C2 C 0.2060(11) -0.1461(13) 0.0505(11)
H6 H 0.1505 -0.1584 0.0806
C3 C 0.2660(10) -0.1502(8) 0.0831(9)
C4 C 0.2418(10) -0.1693(9) 0.1656(7)
H7 H 0.2134 -0.2128 0.1878
H8 H 0.2948 -0.1784 0.1795
C5 C 0.2162(9) -0.0419(10) 0.1738(7)
H9 H 0.1668 -0.0054 0.1866
H10 H 0.2447 -0.0262 0.1214
C6 C 0.3145(10) 0.0233(9) 0.1910(10)
H11 H 0.2664 0.0628 0.1939
H12 H 0.3548 0.0331 0.1414
C7 C 0.3630(8) 0.0154(8) 0.2455(9)
H13 H 0.4130 -0.0224 0.2408
H14 H 0.3842 0.0604 0.2366
C8 C 0.3411(9) -0.0216(8) 0.3771(12)
H15 H 0.3647 0.0203 0.3736
H16 H 0.3896 -0.0603 0.3700
C9 C 0.2735(10) -0.0454(11) 0.4531(10)
H17 H 0.3002 -0.0479 0.4893
H18 H 0.2234 -0.0077 0.4569
C10 C 0.2406(9) -0.1131(10) 0.4730(8)
H19 H 0.2104 -0.1267 0.5252
H20 H 0.2901 -0.1502 0.4626
C11 C 0.1404(9) -0.1795(9) 0.4537(8)
H21 H 0.0971 -0.1873 0.5020
H22 H 0.1867 -0.2204 0.4538
C12 C 0.0971(7) -0.1714(9) 0.3963(8)
H23 H 0.0755 -0.2161 0.4049
H24 H 0.0473 -0.1333 0.3995
C13 C 0.1235(7) -0.1308(8) 0.2653(8)
H25 H 0.0781 -0.0904 0.2736
H26 H 0.0946 -0.1703 0.2697
Ni2 Ni -0.26883(8) 0.42156(8) 0.32491(10)
N6 N -0.1289(8) 0.5211(8) 0.1850(10)
N7 N -0.1574(6) 0.4603(6) 0.3166(7)
H27 H -0.1098 0.4260 0.3087
N8 N 0.2935(7) 0.6017(7) -0.4348(6)
H28 H 0.3352 0.5658 -0.4497
N9 N 0.3800(6) 0.6159(6) -0.3379(7)
H29 H 0.4260 0.5812 -0.3490
N10 N 0.2441(8) 0.5532(8) -0.2135(8)
H30 H 0.2024 0.5885 -0.1974
C14 C -0.006(2) 0.5514(18) 0.023(2)
H31 H -0.0117 0.5931 0.0367
C15 C 0.0214(17) 0.5586(19) -0.051(2)
H32 H 0.0386 0.6024 -0.0834
C16 C -0.0236(19) 0.492(2) 0.077(2)
C17 C -0.0484(11) 0.4700(12) 0.1553(12)
H33 H -0.0001 0.5282 -0.1708
H34 H 0.0623 0.5792 -0.1741
C18 C -0.1400(8) 0.5269(9) 0.2576(11)
H35 H 0.0870 0.4581 -0.2559
H36 H 0.1885 0.4355 -0.2689
C19 C 0.1746(9) 0.5293(9) -0.3847(11)
H37 H 0.2173 0.4865 -0.3894
H38 H 0.1207 0.5219 -0.3890
C20 C 0.2096(10) 0.5928(10) -0.4437(9)
H39 H 0.2218 0.5854 -0.4911
H40 H 0.1669 0.6357 -0.4401
C21 C 0.3310(10) 0.6707(10) -0.4777(10)
H41 H 0.2874 0.7107 -0.4649
H42 H 0.3433 0.6766 -0.5294
C22 C 0.4105(8) 0.6734(10) -0.4652(11)
H43 H 0.4504 0.6298 -0.4719
H44 H 0.4382 0.7139 -0.5026
C23 C 0.4010(9) 0.6808(9) -0.3913(11)
H45 H 0.3548 0.7199 -0.3800
H46 H 0.4558 0.6920 -0.3922
C24 C 0.3728(8) 0.6217(9) -0.2670(12)
H47 H 0.4313 0.6206 -0.2651
H48 H 0.3389 0.6677 -0.2606
C25 C 0.3295(10) 0.5618(13) -0.2067(10)
H49 H 0.3694 0.5170 -0.2071
H50 H 0.3175 0.5713 -0.1602
C26 C 0.2078(12) 0.4826(12) -0.1722(11)
H51 H 0.1954 0.4752 -0.1203
H52 H 0.2525 0.4436 -0.1863
Ni3 Ni 0.26457(8) 0.07650(8) -0.31448(9)
N11 N 0.3541(7) -0.0153(6) -0.1841(7)
N12 N 0.3755(5) 0.0031(6) -0.3129(5)
H53 H 0.3606 -0.0408 -0.3058
N13 N 0.3146(6) 0.1030(6) -0.4256(6)
H54 H 0.3400 0.1440 -0.4407
N14 N 0.1547(6) 0.1538(6) -0.3155(6)
H55 H 0.1713 0.1976 -0.3247
N15 N 0.2158(5) 0.0549(5) -0.2031(6)
H56 H 0.1912 0.0132 -0.1858
C27 C 0.3729(11) -0.1154(14) -0.0405(10)
H57 H 0.4289 -0.1044 -0.0707
C28 C 0.2215(11) -0.1243(12) -0.0266(9)
H58 H 0.1762 -0.1186 -0.0459
C29 C 0.3057(11) -0.1118(8) -0.0718(11)
C30 C 0.3331(11) -0.0877(10) -0.1521(8)
H59 H 0.2861 -0.0920 -0.1680
H60 H 0.3845 -0.1202 -0.1707
C31 C 0.4116(7) -0.0045(8) -0.2539(8)
H61 H 0.4378 0.0388 -0.2656
H62 H 0.4588 -0.0447 -0.2544
C32 C 0.4402(7) 0.0238(9) -0.3908(8)
H63 H 0.4859 -0.0164 -0.3995
H64 H 0.4680 0.0649 -0.3978
C33 C 0.3865(8) 0.0427(8) -0.4417(7)
H65 H 0.3609 0.0007 -0.4355
H66 H 0.4240 0.0573 -0.4919
C34 C 0.2553(10) 0.1147(10) -0.4637(8)
H67 H 0.2861 0.1265 -0.5159
H68 H 0.2287 0.0712 -0.4501
C35 C 0.1796(10) 0.1802(10) -0.4449(11)
H69 H 0.1481 0.1965 -0.4805
H70 H 0.2073 0.2203 -0.4491
C36 C 0.1131(8) 0.1592(8) -0.3676(10)
H71 H 0.0943 0.1132 -0.3588
H72 H 0.0615 0.1955 -0.3632
C37 C 0.0930(8) 0.1350(9) -0.2394(10)
H73 H 0.0637 0.0948 -0.2322
H74 H 0.0483 0.1759 -0.2316
C38 C 0.1417(8) 0.1154(10) -0.1870(9)
H75 H 0.1660 0.1571 -0.1906
H76 H 0.1023 0.0997 -0.1376
C39 C 0.2866(8) 0.0431(8) -0.1677(7)
H77 H 0.2595 0.0328 -0.1151
H78 H 0.3132 0.0871 -0.1845
O1 O 0.6598(4) -0.1538(4) 0.3174(5)
O2 O 0.7323(6) -0.2601(6) 0.3559(9)
O3 O 0.3485(4) -0.1545(4) 0.3244(5)
O4 O 0.3197(5) -0.2543(5) 0.3136(6)
O5 O 0.6611(4) -0.4726(4) 0.3254(5)
O6 O 0.5212(5) -0.4788(5) 0.3459(6)
O7 O 0.1123(4) -0.0021(5) 0.3196(5)
O8 O 0.1431(7) 0.0916(6) 0.3335(11)
O9 O -0.1979(4) 0.3182(4) 0.3188(6)
O10 O -0.0644(6) 0.3178(5) 0.3162(7)
O11 O -0.1884(5) 0.0019(5) 0.3102(5)
O12 O -0.2810(5) 0.1047(5) 0.3027(7)
C40 C 0.6704(6) -0.2198(8) 0.3306(7)
C41 C 0.3680(7) -0.2200(6) 0.3218(8)
C42 C 0.5819(5) -0.4464(6) 0.3367(7)
C43 C 0.6041(6) -0.2579(6) 0.3315(6)
C44 C 0.5197(6) -0.2219(6) 0.3274(6)
H79 H 0.5056 -0.1731 0.3256
C45 C 0.4596(6) -0.2569(6) 0.3260(6)
C46 C 0.4798(5) -0.3282(6) 0.3282(6)
H80 H 0.4375 -0.3512 0.3266
C47 C 0.5587(6) -0.3676(6) 0.3324(7)
C48 C -0.3760(7) 0.6702(6) 0.3342(7)
H81 H -0.3212 0.6455 0.3372
C49 C 0.0907(7) 0.0609(8) 0.3275(8)
C50 C -0.1232(7) 0.2869(6) 0.3183(8)
C51 C -0.2103(7) 0.0655(6) 0.3097(7)
C52 C -0.1016(6) 0.2100(5) 0.3176(7)
C53 C -0.1592(6) 0.1744(6) 0.3140(6)
H82 H -0.2144 0.1991 0.3122
C54 C -0.1407(5) 0.1034(6) 0.3128(6)
C55 C -0.0593(6) 0.0660(6) 0.3173(7)
H83 H -0.0451 0.0182 0.3153
C56 C 0.0013(6) 0.0987(6) 0.3249(7)
C57 C -0.0193(4) 0.1720(4) 0.3205(4)
H84 H 0.0233 0.1964 0.3195
O3A O 0.6515(4) 0.1545(4) -0.3244(5)
Ni1A Ni 0.76813(8) 0.07926(8) -0.32191(9)
N2A N 0.7203(6) 0.0463(6) -0.2114(7)
H1A H 0.6736 0.0794 -0.1972
C5A C 0.7838(9) 0.0419(10) -0.1738(7)
N1A N 0.8175(8) 0.1099(7) -0.1916(7)
C4A C 0.7582(10) 0.1693(9) -0.1656(7)
C3A C 0.7340(10) 0.1502(8) -0.0831(9)
C1A C 0.6457(9) 0.1348(12) -0.0324(12)
H5A H 0.6011 0.1388 -0.0518
C27A C 0.6271(11) 0.1154(14) 0.0405(10)
H57A H 0.5711 0.1044 0.0707
C29A C 0.6943(11) 0.1118(8) 0.0718(11)
C28A C 0.7785(11) 0.1243(12) 0.0266(9)
C2A C 0.7940(11) 0.1461(13) -0.0505(11)
H6A H 0.8495 0.1584 -0.0806
H58A H 0.8238 0.1186 0.0459
C30A C 0.6669(11) 0.0877(10) 0.1521(8)
N11A N 0.6459(7) 0.0153(6) 0.1841(7)
C31A C 0.5884(7) 0.0045(8) 0.2539(8)
N12A N 0.6245(5) -0.0031(6) 0.3129(5)
Ni3A Ni 0.73543(8) -0.07650(8) 0.31448(9)
N13A N 0.6854(6) -0.1030(6) 0.4256(6)
H54A H 0.6600 -0.1440 0.4407
C33A C 0.6135(8) -0.0427(8) 0.4417(7)
C32A C 0.5598(7) -0.0238(9) 0.3908(8)
H53A H 0.6394 0.0408 0.3058
H63A H 0.5141 0.0164 0.3995
H64A H 0.5320 -0.0649 0.3978
H65A H 0.6391 -0.0007 0.4355
H66A H 0.5760 -0.0573 0.4919
C34A C 0.7447(10) -0.1147(10) 0.4637(8)
H67A H 0.7139 -0.1265 0.5159
H68A H 0.7713 -0.0712 0.4501
C35A C 0.8204(10) -0.1802(10) 0.4449(11)
H69A H 0.8519 -0.1965 0.4805
H70A H 0.7927 -0.2203 0.4491
C36A C 0.8869(8) -0.1592(8) 0.3676(10)
N14A N 0.8453(6) -0.1538(6) 0.3155(6)
N15A N 0.7842(5) -0.0549(5) 0.2031(6)
H56A H 0.8088 -0.0132 0.1858
C38A C 0.8583(8) -0.1154(10) 0.1870(9)
C37A C 0.9070(8) -0.1350(9) 0.2394(10)
H55A H 0.8287 -0.1976 0.3247
H73A H 0.9363 -0.0948 0.2322
H74A H 0.9517 -0.1759 0.2316
H75A H 0.8340 -0.1571 0.1906
H76A H 0.8977 -0.0997 0.1376
C39A C 0.7134(8) -0.0431(8) 0.1677(7)
H77A H 0.7405 -0.0328 0.1151
H78A H 0.6868 -0.0871 0.1845
O1A O 0.3402(4) 0.1538(4) -0.3174(5)
O11A O 0.1884(5) -0.0019(5) -0.3102(5)
Ni3A_2 Ni -0.26457(8) -0.07650(8) 0.31448(9)
Ni2_2 Ni 0.73117(8) -0.57844(8) 0.32491(10)
C16A C 0.0236(19) 0.508(2) -0.077(2)
C14A C 0.006(2) 0.4486(18) -0.023(2)
H31A H 0.0117 0.4069 -0.0367
C15A C -0.0214(17) 0.4414(19) 0.051(2)
H32A H -0.0386 0.3976 0.0834
C17A C 0.0484(11) 0.5300(12) -0.1553(12)
N6A N 0.1289(8) 0.4789(8) -0.1850(10)
C18A C 0.1400(8) 0.4731(9) -0.2576(11)
N7A N 0.1574(6) 0.5397(6) -0.3166(7)
Ni2A Ni 0.26883(8) 0.57844(8) -0.32491(10)
H27A H 0.1098 0.5740 -0.3087
O5A O 0.3389(4) 0.4726(4) -0.3254(5)
O9A O 0.1979(4) 0.6818(4) -0.3188(6)
H33A H 0.0001 0.4718 0.1708
H34A H -0.0623 0.4208 0.1741
C26A C -0.2078(12) 0.5174(12) 0.1722(11)
N10A N -0.2441(8) 0.4468(8) 0.2135(8)
N8A N -0.2935(7) 0.3983(7) 0.4348(6)
H28A H -0.3352 0.4342 0.4497
C20A C -0.2096(10) 0.4072(10) 0.4437(9)
C19A C -0.1746(9) 0.4707(9) 0.3847(11)
H37A H -0.2173 0.5135 0.3894
H38A H -0.1207 0.4781 0.3890
H39A H -0.2218 0.4146 0.4911
H40A H -0.1669 0.3643 0.4401
C21A C -0.3310(10) 0.3293(10) 0.4777(10)
H41A H -0.2874 0.2893 0.4649
H42A H -0.3433 0.3234 0.5294
C22A C -0.4105(8) 0.3266(10) 0.4652(11)
H43A H -0.4504 0.3702 0.4719
H44A H -0.4382 0.2861 0.5026
C23A C -0.4010(9) 0.3192(9) 0.3913(11)
N9A N -0.3800(6) 0.3841(6) 0.3379(7)
O5_2 O -0.3389(4) 0.5274(4) 0.3254(5)
C42_2 C -0.4181(5) 0.5536(6) 0.3367(7)
O6_2 O -0.4788(5) 0.5212(5) 0.3459(6)
C47_2 C -0.4413(6) 0.6324(6) 0.3324(7)
C46_2 C -0.5202(5) 0.6718(6) 0.3282(6)
C45_2 C -0.5404(6) 0.7431(6) 0.3260(6)
C41_2 C -0.6320(7) 0.7800(6) 0.3218(8)
C44_2 C -0.4803(6) 0.7781(6) 0.3274(6)
H80_2 H -0.5625 0.6488 0.3266
C43_2 C -0.3959(6) 0.7421(6) 0.3315(6)
C40_2 C -0.3296(6) 0.7802(8) 0.3306(7)
H29A H -0.4260 0.4188 0.3490
C24A C -0.3728(8) 0.3783(9) 0.2670(12)
H47A H -0.4313 0.3794 0.2651
H48A H -0.3389 0.3323 0.2606
C25A C -0.3295(10) 0.4382(13) 0.2067(10)
H30A H -0.2024 0.4115 0.1974
H49A H -0.3694 0.4830 0.2071
H50A H -0.3175 0.4287 0.1602
H45A H -0.3548 0.2801 0.3800
H46A H -0.4558 0.3080 0.3922
H51A H -0.1954 0.5248 0.1203
H52A H -0.2525 0.5564 0.1863
H35A H -0.0870 0.5419 0.2559
H36A H -0.1885 0.5645 0.2689
C48_2 C 0.6240(7) -0.3298(6) 0.3342(7)
O11_2 O 0.8116(5) 0.0019(5) 0.3102(5)
H71A H 0.9057 -0.1132 0.3588
H72A H 0.9385 -0.1955 0.3632
H61A H 0.5622 -0.0388 0.2656
H62A H 0.5412 0.0447 0.2544
H59A H 0.7139 0.0920 0.1680
H60A H 0.6155 0.1202 0.1707
H7A H 0.7866 0.2128 -0.1878
H8A H 0.7052 0.1784 -0.1795
C13A C 0.8765(7) 0.1308(8) -0.2653(8)
H9A H 0.8332 0.0054 -0.1866
H10A H 0.7553 0.0262 -0.1214
C6A C 0.6855(10) -0.0233(9) -0.1910(10)
N3A N 0.7019(6) 0.0035(6) -0.3190(7)
N4A N 0.8217(6) 0.1106(6) -0.4335(6)
N5A N 0.8352(6) 0.1530(6) -0.3213(6)
O7A O 0.8877(4) 0.0021(5) -0.3196(5)
H4A H 0.7966 0.1937 -0.3158
C12A C 0.9029(7) 0.1714(9) -0.3963(8)
H25A H 0.9219 0.0904 -0.2736
H26A H 0.9054 0.1703 -0.2697
O3_2 O -0.6515(4) 0.8455(4) 0.3244(5)
O4_2 O -0.6803(5) 0.7457(5) 0.3136(6)
H79_2 H -0.4944 0.8269 0.3256
O1_2 O -0.3402(4) 0.8462(4) 0.3174(5)
O2_2 O -0.2677(6) 0.7399(6) 0.3559(9)
H81_2 H 0.6788 -0.3545 0.3372
C51_2 C 0.7897(7) 0.0655(6) 0.3097(7)
H11A H 0.7336 -0.0628 -0.1939
H12A H 0.6452 -0.0331 -0.1414
C7A C 0.6370(8) -0.0154(8) -0.2455(9)
H2A H 0.7416 -0.0368 -0.3236
C8A C 0.6589(9) 0.0216(8) -0.3771(12)
H3A H 0.8680 0.0764 -0.4455
C10A C 0.7594(9) 0.1131(10) -0.4730(8)
C11A C 0.8596(9) 0.1795(9) -0.4537(8)
H23A H 0.9245 0.2161 -0.4049
H24A H 0.9527 0.1333 -0.3995
Ni1_2 Ni -0.76813(8) 0.92074(8) 0.32191(9)
Ni3A_3 Ni -0.26457(8) 0.92350(8) 0.31448(9)
O12_2 O 0.7190(5) 0.1047(5) 0.3027(7)
C54_2 C 0.8593(5) 0.1034(6) 0.3128(6)
H13A H 0.5870 0.0224 -0.2408
H14A H 0.6158 -0.0604 -0.2366
H15A H 0.6353 -0.0203 -0.3736
H16A H 0.6104 0.0603 -0.3700
C9A C 0.7265(10) 0.0454(11) -0.4531(10)
H19A H 0.7896 0.1267 -0.5252
H20A H 0.7099 0.1502 -0.4626
H21A H 0.9029 0.1873 -0.5020
H22A H 0.8133 0.2204 -0.4538
C53_2 C 0.8408(6) 0.1744(6) 0.3140(6)
C55_2 C 0.9407(6) 0.0660(6) 0.3173(7)
H17A H 0.6998 0.0479 -0.4893
H18A H 0.7766 0.0077 -0.4569
C52_2 C 0.8984(6) 0.2100(5) 0.3176(7)
H82_2 H 0.7856 0.1991 0.3122
H83_2 H 0.9549 0.0182 0.3153
C56_2 C 1.0013(6) 0.0987(6) 0.3249(7)
C50_2 C 0.8768(7) 0.2869(6) 0.3183(8)
C57_2 C 0.9807(4) 0.1720(4) 0.3205(4)
C49_2 C 1.0907(7) 0.0609(8) 0.3275(8)
O9_2 O 0.8021(4) 0.3182(4) 0.3188(6)
O10_2 O 0.9356(6) 0.3178(5) 0.3162(7)
H84_2 H 1.0233 0.1964 0.3195
O7_2 O 1.1123(4) -0.0021(5) 0.3196(5)
O8_2 O 1.1431(7) 0.0916(6) 0.3335(11)
Ni2_3 Ni 0.73117(8) 0.42156(8) 0.32491(10)
Ni1_3 Ni 1.23187(8) -0.07926(8) 0.32191(9)
O13 O 0.4192(4) -0.5092(4) 0.4917(4)
O14 O -0.0008(4) -0.9411(4) 0.1252(4)
O15 O 0.5392(4) -0.1207(4) 0.1377(4)
O16 O 0.0192(4) -0.7062(4) 0.4159(4)
O17 O 0.6778(4) -0.3686(4) 0.4933(4)
O18 O 0.5378(4) -0.8256(4) 0.3536(4)
O19 O 0.2578(4) -0.3803(4) 0.3469(4)
O20 O 0.7378(4) -0.7653(4) 0.1685(4)
O21 O 0.3984(4) -0.7612(4) 0.4567(4)
O22 O 0.8587(4) -0.6822(4) 0.1384(4)
O23 O 0.4187(4) -0.4663(4) 0.2501(4)
O24 O 0.2387(4) -0.5788(4) 0.3195(4)
O25 O 0.0187(4) -0.3620(4) 0.4782(4)
O26 O 0.9187(4) -0.3050(4) 0.2233(4)
O27 O 0.1782(4) -0.8016(4) 0.3688(4)
loop_
_geom_bond_atom_site_label_1
_geom_bond_atom_site_label_2
_geom_bond_site_symmetry_1
_geom_bond_site_symmetry_2
Ni1 N2 1_555 1_555
N1 C4 1_555 1_555
N2 H1 1_555 1_555
N3 Ni1 1_555 1_555
H2 N3 1_555 1_555
N4 Ni1 1_555 1_555
H3 N4 1_555 1_555
N5 Ni1 1_555 1_555
H4 N5 1_555 1_555
C1 H5 1_555 1_555
C2 H6 1_555 1_555
C3 C1 1_555 1_555
C4 C3 1_555 1_555
H7 C4 1_555 1_555
H8 C4 1_555 1_555
C5 N1 1_555 1_555
H9 C5 1_555 1_555
H10 C5 1_555 1_555
C6 N2 1_555 1_555
H11 C6 1_555 1_555
H12 C6 1_555 1_555
C7 N3 1_555 1_555
H13 C7 1_555 1_555
H14 C7 1_555 1_555
C8 N3 1_555 1_555
H15 C8 1_555 1_555
H16 C8 1_555 1_555
C9 C8 1_555 1_555
H17 C9 1_555 1_555
H18 C9 1_555 1_555
C10 N4 1_555 1_555
H19 C10 1_555 1_555
H20 C10 1_555 1_555
C11 N4 1_555 1_555
H21 C11 1_555 1_555
H22 C11 1_555 1_555
C12 N5 1_555 1_555
H23 C12 1_555 1_555
H24 C12 1_555 1_555
C13 N1 1_555 1_555
H25 C13 1_555 1_555
H26 C13 1_555 1_555
Ni2 N7 1_555 1_555
N6 C17 1_555 1_555
N7 H27 1_555 1_555
N8 H28 1_555 1_555
N9 H29 1_555 1_555
N10 H30 1_555 1_555
C14 H31 1_555 1_555
C15 C14 1_555 1_555
H32 C15 1_555 1_555
C16 C14 1_555 1_555
C17 C16 1_555 1_555
H33 C17A 1_555 1_555
H34 C17A 1_555 1_555
C18 N6 1_555 1_555
H35 C18A 1_555 1_555
H36 C18A 1_555 1_555
C19 H37 1_555 1_555
H38 C19 1_555 1_555
C20 N8 1_555 1_555
H39 C20 1_555 1_555
H40 C20 1_555 1_555
C21 N8 1_555 1_555
H41 C21 1_555 1_555
H42 C21 1_555 1_555
C22 C21 1_555 1_555
H43 C22 1_555 1_555
H44 C22 1_555 1_555
C23 N9 1_555 1_555
H45 C23 1_555 1_555
H46 C23 1_555 1_555
C24 N9 1_555 1_555
H47 C24 1_555 1_555
H48 C24 1_555 1_555
C25 N10 1_555 1_555
H49 C25 1_555 1_555
H50 C25 1_555 1_555
C26 N10 1_555 1_555
H51 C26 1_555 1_555
H52 C26 1_555 1_555
Ni3 N12 1_555 1_555
N11 C30 1_555 1_555
N12 H53 1_555 1_555
N13 Ni3 1_555 1_555
H54 N13 1_555 1_555
N14 Ni3 1_555 1_555
H55 N14 1_555 1_555
N15 Ni3 1_555 1_555
H56 N15 1_555 1_555
C27 C1 1_555 1_555
H57 C27 1_555 1_555
C28 C2 1_555 1_555
H58 C28 1_555 1_555
C29 C27 1_555 1_555
C30 C29 1_555 1_555
H59 C30 1_555 1_555
H60 C30 1_555 1_555
C31 N11 1_555 1_555
H61 C31 1_555 1_555
H62 C31 1_555 1_555
C32 N12 1_555 1_555
H63 C32 1_555 1_555
H64 C32 1_555 1_555
C33 N13 1_555 1_555
H65 C33 1_555 1_555
H66 C33 1_555 1_555
C34 N13 1_555 1_555
H67 C34 1_555 1_555
H68 C34 1_555 1_555
C35 C34 1_555 1_555
H69 C35 1_555 1_555
H70 C35 1_555 1_555
C36 N14 1_555 1_555
H71 C36 1_555 1_555
H72 C36 1_555 1_555
C37 N14 1_555 1_555
H73 C37 1_555 1_555
H74 C37 1_555 1_555
C38 N15 1_555 1_555
H75 C38 1_555 1_555
H76 C38 1_555 1_555
C39 N11 1_555 1_555
H77 C39 1_555 1_555
H78 C39 1_555 1_555
O1 C40 1_555 1_555
O2 C40 1_555 1_555
O3 Ni1 1_555 1_555
O4 C41 1_555 1_555
O5 C42 1_555 1_555
O6 C42 1_555 1_555
O7 Ni1 1_555 1_555
O8 C49 1_555 1_555
O9 Ni2 1_555 1_555
O10 C50 1_555 1_555
O11 C51 1_555 1_555
O12 C51 1_555 1_555
C40 C43 1_555 1_555
C41 O3 1_555 1_555
C42 C47 1_555 1_555
C43 C44 1_555 1_555
C44 H79 1_555 1_555
C45 C41 1_555 1_555
C46 C45 1_555 1_555
H80 C46 1_555 1_555
C47 C46 1_555 1_555
C48 H81 1_555 1_555
C49 O7 1_555 1_555
C50 O9 1_555 1_555
C51 C54 1_555 1_555
C52 C50 1_555 1_555
C53 C52 1_555 1_555
H82 C53 1_555 1_555
C54 C53 1_555 1_555
C55 C54 1_555 1_555
H83 C55 1_555 1_555
C56 C49 1_555 1_555
C57 C52 1_555 1_555
H84 C57 1_555 1_555
O3A Ni1A 1_555 1_555
Ni1A N2A 1_555 1_555
N2A H1A 1_555 1_555
C5A N2A 1_555 1_555
N1A C5A 1_555 1_555
C4A N1A 1_555 1_555
C3A C4A 1_555 1_555
C1A C3A 1_555 1_555
H5A C1A 1_555 1_555
C27A C1A 1_555 1_555
H57A C27A 1_555 1_555
C29A C27A 1_555 1_555
C28A C29A 1_555 1_555
C2A C3A 1_555 1_555
H6A C2A 1_555 1_555
H58A C28A 1_555 1_555
C30A C29A 1_555 1_555
N11A C30A 1_555 1_555
C31A N11A 1_555 1_555
N12A C31A 1_555 1_555
Ni3A O1 1_555 1_555
N13A Ni3A 1_555 1_555
H54A N13A 1_555 1_555
C33A N13A 1_555 1_555
C32A N12A 1_555 1_555
H53A N12A 1_555 1_555
H63A C32A 1_555 1_555
H64A C32A 1_555 1_555
H65A C33A 1_555 1_555
H66A C33A 1_555 1_555
C34A N13A 1_555 1_555
H67A C34A 1_555 1_555
H68A C34A 1_555 1_555
C35A C34A 1_555 1_555
H69A C35A 1_555 1_555
H70A C35A 1_555 1_555
C36A C35A 1_555 1_555
N14A Ni3A 1_555 1_555
N15A Ni3A 1_555 1_555
H56A N15A 1_555 1_555
C38A N15A 1_555 1_555
C37A N14A 1_555 1_555
H55A N14A 1_555 1_555
H73A C37A 1_555 1_555
H74A C37A 1_555 1_555
H75A C38A 1_555 1_555
H76A C38A 1_555 1_555
C39A N11A 1_555 1_555
H77A C39A 1_555 1_555
H78A C39A 1_555 1_555
O1A Ni3 1_555 1_555
O11A Ni3 1_555 1_555
Ni3A_2 O11 1_555 1_555
Ni2_2 O5 1_555 1_555
C16A C15 1_555 1_555
C14A C16A 1_555 1_555
H31A C14A 1_555 1_555
C15A C16 1_555 1_555
H32A C15A 1_555 1_555
C17A C16A 1_555 1_555
N6A C26 1_555 1_555
C18A N6A 1_555 1_555
N7A C19 1_555 1_555
Ni2A N8 1_555 1_555
H27A N7A 1_555 1_555
O5A Ni2A 1_555 1_555
O9A Ni2A 1_555 1_555
H33A C17 1_555 1_555
H34A C17 1_555 1_555
C26A N6 1_555 1_555
N10A Ni2 1_555 1_555
N8A Ni2 1_555 1_555
H28A N8A 1_555 1_555
C20A N8A 1_555 1_555
C19A N7 1_555 1_555
H37A C19A 1_555 1_555
H38A C19A 1_555 1_555
H39A C20A 1_555 1_555
H40A C20A 1_555 1_555
C21A N8A 1_555 1_555
H41A C21A 1_555 1_555
H42A C21A 1_555 1_555
C22A C21A 1_555 1_555
H43A C22A 1_555 1_555
H44A C22A 1_555 1_555
C23A C22A 1_555 1_555
N9A Ni2 1_555 1_555
O5_2 Ni2 1_555 1_555
C42_2 O5_2 1_555 1_555
O6_2 C42_2 1_555 1_555
C47_2 C48 1_555 1_555
C46_2 C47_2 1_555 1_555
C45_2 C46_2 1_555 1_555
C41_2 C45_2 1_555 1_555
C44_2 C45_2 1_555 1_555
H80_2 C46_2 1_555 1_555
C43_2 C48 1_555 1_555
C40_2 C43_2 1_555 1_555
H29A N9A 1_555 1_555
C24A N9A 1_555 1_555
H47A C24A 1_555 1_555
H48A C24A 1_555 1_555
C25A N10A 1_555 1_555
H30A N10A 1_555 1_555
H49A C25A 1_555 1_555
H50A C25A 1_555 1_555
H45A C23A 1_555 1_555
H46A C23A 1_555 1_555
H51A C26A 1_555 1_555
H52A C26A 1_555 1_555
H35A C18 1_555 1_555
H36A C18 1_555 1_555
C48_2 C43 1_555 1_555
O11_2 Ni3A 1_555 1_555
H71A C36A 1_555 1_555
H72A C36A 1_555 1_555
H61A C31A 1_555 1_555
H62A C31A 1_555 1_555
H59A C30A 1_555 1_555
H60A C30A 1_555 1_555
H7A C4A 1_555 1_555
H8A C4A 1_555 1_555
C13A N1A 1_555 1_555
H9A C5A 1_555 1_555
H10A C5A 1_555 1_555
C6A N2A 1_555 1_555
N3A Ni1A 1_555 1_555
N4A Ni1A 1_555 1_555
N5A Ni1A 1_555 1_555
O7A Ni1A 1_555 1_555
H4A N5A 1_555 1_555
C12A N5A 1_555 1_555
H25A C13A 1_555 1_555
H26A C13A 1_555 1_555
O3_2 C41_2 1_555 1_555
O4_2 C41_2 1_555 1_555
H79_2 C44_2 1_555 1_555
O1_2 C40_2 1_555 1_555
O2_2 C40_2 1_555 1_555
H81_2 C48_2 1_555 1_555
C51_2 O11_2 1_555 1_555
H11A C6A 1_555 1_555
H12A C6A 1_555 1_555
C7A C6A 1_555 1_555
H2A N3A 1_555 1_555
C8A N3A 1_555 1_555
H3A N4A 1_555 1_555
C10A N4A 1_555 1_555
C11A N4A 1_555 1_555
H23A C12A 1_555 1_555
H24A C12A 1_555 1_555
Ni1_2 O3_2 1_555 1_555
Ni3A_3 O1_2 1_555 1_555
O12_2 C51_2 1_555 1_555
C54_2 C51_2 1_555 1_555
H13A C7A 1_555 1_555
H14A C7A 1_555 1_555
H15A C8A 1_555 1_555
H16A C8A 1_555 1_555
C9A C8A 1_555 1_555
H19A C10A 1_555 1_555
H20A C10A 1_555 1_555
H21A C11A 1_555 1_555
H22A C11A 1_555 1_555
C53_2 C54_2 1_555 1_555
C55_2 C54_2 1_555 1_555
H17A C9A 1_555 1_555
H18A C9A 1_555 1_555
C52_2 C53_2 1_555 1_555
H82_2 C53_2 1_555 1_555
H83_2 C55_2 1_555 1_555
C56_2 C55_2 1_555 1_555
C50_2 C52_2 1_555 1_555
C57_2 C52_2 1_555 1_555
C49_2 C56_2 1_555 1_555
O9_2 C50_2 1_555 1_555
O10_2 C50_2 1_555 1_555
H84_2 C57_2 1_555 1_555
O7_2 C49_2 1_555 1_555
O8_2 C49_2 1_555 1_555
Ni2_3 O9_2 1_555 1_555
Ni1_3 O7_2 1_555 1_555
N2 C5 1_555 1_555
N5 C13 1_555 1_555
C2 C3 1_555 1_555
C6 C7 1_555 1_555
C9 C10 1_555 1_555
C11 C12 1_555 1_555
N7 C18 1_555 1_555
N9 Ni2A 1_555 1_555
N10 Ni2A 1_555 1_555
C19 C20 1_555 1_555
C22 C23 1_555 1_555
C24 C25 1_555 1_555
N12 C31 1_555 1_555
N15 C39 1_555 1_555
C28 C29 1_555 1_555
C32 C33 1_555 1_555
C35 C36 1_555 1_555
C37 C38 1_555 1_555
C44 C45 1_555 1_555
C47 C48_2 1_555 1_555
C55 C56 1_555 1_555
C56 C57 1_555 1_555
C28A C2A 1_555 1_555
N12A Ni3A 1_555 1_555
C33A C32A 1_555 1_555
C36A N14A 1_555 1_555
N15A C39A 1_555 1_555
C38A C37A 1_555 1_555
C14A C15A 1_555 1_555
C17A N6A 1_555 1_555
C18A N7A 1_555 1_555
N7A Ni2A 1_555 1_555
C26A N10A 1_555 1_555
C20A C19A 1_555 1_555
C23A N9A 1_555 1_555
C42_2 C47_2 1_555 1_555
C44_2 C43_2 1_555 1_555
C24A C25A 1_555 1_555
C13A N5A 1_555 1_555
N3A C7A 1_555 1_555
C12A C11A 1_555 1_555
C10A C9A 1_555 1_555
C56_2 C57_2 1_555 1_555

#END
