
#######################################################################
#
#                 Cambridge Crystallographic Data Centre
#                                CCDC 
#
#######################################################################
#
# If this CIF has been generated from an entry in the Cambridge 
# Structural Database, then it will include bibliographic, chemical, 
# crystal, experimental, refinement or atomic coordinate data resulting 
# from the CCDC's data processing and validation procedures.
#
#######################################################################

data_XUGSOH
_symmetry_cell_setting           triclinic
_symmetry_space_group_name_H-M   'P -1'
_symmetry_Int_Tables_number      2
_space_group_name_Hall           '-P 1'
loop_
_symmetry_equiv_pos_site_id
_symmetry_equiv_pos_as_xyz
1 x,y,z
2 -x,-y,-z
_cell_length_a                   16.505
_cell_length_b                   19.9450(10)
_cell_length_c                   20.6640(10)
_cell_angle_alpha                73.0030(10)
_cell_angle_beta                 68.2400(10)
_cell_angle_gamma                76.073(3)
_cell_volume                     5974.34
loop_
_atom_site_label
_atom_site_type_symbol
_atom_site_fract_x
_atom_site_fract_y
_atom_site_fract_z
Ni1 Ni 0.23566(4) -0.08475(4) 0.32260(4)
N1 N 0.1918(4) -0.1113(3) 0.1890(4)
N2 N 0.2888(3) -0.0523(3) 0.2128(3)
H1 H 0.3361 -0.0850 0.1974
N3 N 0.3002(3) -0.0113(3) 0.3269(4)
H2 H 0.2592 0.0278 0.3341
N4 N 0.1806(3) -0.1175(3) 0.4305(3)
H3 H 0.1324 -0.0849 0.4443
N5 N 0.1697(3) -0.1562(2) 0.3159(3)
H4 H 0.2097 -0.1957 0.3079
C1 C 0.3555(6) -0.1322(6) 0.0259(6)
H5 H 0.4011 -0.1363 0.0436
C2 C 0.2111(6) -0.1383(6) 0.0433(6)
H6 H 0.1547 -0.1472 0.0730
C3 C 0.2727(5) -0.1448(4) 0.0734(5)
C4 C 0.2524(5) -0.1657(4) 0.1528(4)
H7 H 0.2267 -0.2092 0.1712
H8 H 0.3070 -0.1752 0.1637
C5 C 0.2259(5) -0.0463(4) 0.1743(4)
H9 H 0.1769 -0.0093 0.1879
H10 H 0.2555 -0.0321 0.1233
C6 C 0.3222(5) 0.0163(4) 0.1993(5)
H11 H 0.3655 0.0258 0.1520
H12 H 0.2738 0.0554 0.2021
C7 C 0.3628(5) 0.0088(4) 0.2549(6)
H13 H 0.4148 -0.0270 0.2484
H14 H 0.3811 0.0534 0.2495
C8 C 0.3388(5) -0.0307(4) 0.3858(5)
H15 H 0.3622 0.0095 0.3857
H16 H 0.3873 -0.0694 0.3777
C9 C 0.2709(7) -0.0528(5) 0.4575(6)
H17 H 0.2208 -0.0152 0.4624
H18 H 0.2960 -0.0559 0.4942
C10 C 0.2368(5) -0.1217(5) 0.4732(4)
H19 H 0.2864 -0.1591 0.4632
H20 H 0.2031 -0.1340 0.5236
C11 C 0.1477(5) -0.1841(4) 0.4424(4)
H21 H 0.1050 -0.1944 0.4899
H22 H 0.1962 -0.2231 0.4387
C12 C 0.1058(4) -0.1761(4) 0.3878(4)
H23 H 0.0868 -0.2203 0.3930
H24 H 0.0544 -0.1397 0.3943
C13 C 0.1322(4) -0.1325(3) 0.2564(4)
H25 H 0.1061 -0.1710 0.2559
H26 H 0.0851 -0.0932 0.2662
Ni2 Ni -0.26468(4) 0.41578(4) 0.33170(4)
N6 N -0.1287(4) 0.5074(3) 0.1896(4)
N7 N -0.1544(3) 0.4557(3) 0.3166(3)
H27 H -0.1078 0.4207 0.3069
N8 N 0.2866(3) 0.5982(3) -0.4390(3)
H28 H 0.3269 0.5611 -0.4537
N9 N 0.3761(3) 0.6222(3) -0.3463(3)
H29 H 0.4214 0.5859 -0.3546
N10 N 0.2432(4) 0.5687(3) -0.2239(3)
H30 H 0.2013 0.6044 -0.2077
C14 C -0.0292(8) 0.5496(7) 0.0363(8)
H31 H -0.0498 0.5862 0.0604
C15 C -0.0017(9) 0.5659(7) -0.0363(8)
H32 H -0.0038 0.6135 -0.0597
C16 C -0.0277(5) 0.4815(6) 0.0749(6)
C17 C -0.0509(5) 0.4618(5) 0.1550(5)
H33 H 0.0616 0.5870 -0.1724
H34 H 0.0013 0.5347 -0.1678
C18 C -0.1354(4) 0.5182(4) 0.2558(5)
H35 H 0.1817 0.4424 -0.2668
H36 H 0.0805 0.4685 -0.2513
C19 C 0.1631(5) 0.5314(4) -0.3860(5)
H37 H 0.2005 0.4866 -0.3925
H38 H 0.1056 0.5293 -0.3872
C20 C 0.2032(5) 0.5915(4) -0.4446(5)
H39 H 0.1627 0.6354 -0.4406
H40 H 0.2136 0.5824 -0.4909
C21 C 0.3224(4) 0.6648(4) -0.4855(4)
H41 H 0.2796 0.7055 -0.4726
H42 H 0.3316 0.6662 -0.5350
C22 C 0.4057(5) 0.6692(5) -0.4783(5)
H43 H 0.4452 0.6253 -0.4851
H44 H 0.4322 0.7071 -0.5166
C23 C 0.4003(4) 0.6824(4) -0.4075(5)
H45 H 0.3570 0.7239 -0.3980
H46 H 0.4570 0.6925 -0.4119
C24 C 0.3673(5) 0.6345(4) -0.2769(5)
H47 H 0.4249 0.6366 -0.2758
H48 H 0.3303 0.6795 -0.2707
C25 C 0.3268(5) 0.5755(5) -0.2168(5)
H49 H 0.3154 0.5861 -0.1710
H50 H 0.3671 0.5313 -0.2192
C26 C 0.2105(5) 0.5000(4) -0.1819(4)
H51 H 0.2009 0.4958 -0.1317
H52 H 0.2557 0.4613 -0.1972
Ni3 Ni 0.25990(4) 0.07920(4) -0.31163(5)
N11 N 0.3497(4) -0.0114(3) -0.1856(4)
N12 N 0.3728(3) 0.0065(3) -0.3135(3)
H53 H 0.3586 -0.0368 -0.3073
N13 N 0.3112(3) 0.1015(3) -0.4204(3)
H54 H 0.3354 0.1419 -0.4338
N14 N 0.1476(3) 0.1536(3) -0.3088(3)
H55 H 0.1636 0.1964 -0.3157
N15 N 0.2095(3) 0.0577(3) -0.2008(3)
H56 H 0.1836 0.0180 -0.1857
C27 C 0.3718(6) -0.1133(6) -0.0477(5)
H57 H 0.4283 -0.1056 -0.0779
C28 C 0.2277(7) -0.1187(5) -0.0306(6)
H58 H 0.1823 -0.1144 -0.0487
C29 C 0.3087(6) -0.1060(4) -0.0764(5)
C30 C 0.3269(5) -0.0843(4) -0.1555(4)
H59 H 0.2752 -0.0866 -0.1660
H60 H 0.3753 -0.1173 -0.1782
C31 C 0.4101(4) 0.0012(3) -0.2565(4)
H61 H 0.4326 0.0449 -0.2656
H62 H 0.4597 -0.0369 -0.2596
C32 C 0.4330(4) 0.0248(4) -0.3872(4)
H63 H 0.4606 0.0647 -0.3923
H64 H 0.4791 -0.0151 -0.3967
C33 C 0.3851(4) 0.0435(4) -0.4403(4)
H65 H 0.3624 0.0025 -0.4393
H66 H 0.4247 0.0593 -0.4882
C34 C 0.2454(5) 0.1151(4) -0.4592(4)
H67 H 0.2755 0.1263 -0.5104
H68 H 0.2195 0.0725 -0.4475
C35 C 0.1727(6) 0.1761(4) -0.4387(5)
H69 H 0.1999 0.2167 -0.4454
H70 H 0.1387 0.1890 -0.4713
C36 C 0.1089(5) 0.1605(4) -0.3615(5)
H71 H 0.0863 0.1170 -0.3530
H72 H 0.0592 0.1985 -0.3565
C37 C 0.0870(4) 0.1376(4) -0.2349(5)
H73 H 0.0426 0.1786 -0.2256
H74 H 0.0573 0.0984 -0.2283
C38 C 0.1398(5) 0.1179(4) -0.1823(4)
H75 H 0.1010 0.1046 -0.1336
H76 H 0.1660 0.1581 -0.1862
C39 C 0.2773(5) 0.0450(4) -0.1659(4)
H77 H 0.2491 0.0334 -0.1144
H78 H 0.3014 0.0885 -0.1779
O1 O 0.6661(2) -0.1559(2) 0.3114(2)
O2 O 0.7392(3) -0.2597(3) 0.3484(4)
O3 O 0.3550(2) -0.1595(2) 0.3220(2)
O4 O 0.3316(3) -0.2540(2) 0.3012(3)
O5 O 0.6652(2) -0.47790(18) 0.3318(2)
O6 O 0.5244(3) -0.4817(2) 0.3487(3)
C40 C 0.6760(4) -0.2224(3) 0.3304(4)
C41 C 0.3773(3) -0.2214(3) 0.3136(3)
C42 C 0.5865(4) -0.4491(3) 0.3388(4)
C43 C 0.6086(3) -0.2600(3) 0.3275(3)
C44 C 0.5262(3) -0.2243(3) 0.3217(3)
H79 H 0.5128 -0.1755 0.3180
C45 C 0.4660(3) -0.2599(3) 0.3213(3)
C46 C 0.4859(3) -0.3328(3) 0.3265(3)
H80 H 0.4446 -0.3568 0.3258
C47 C 0.5655(3) -0.3700(3) 0.3327(3)
C48 C -0.3734(3) 0.6674(3) 0.3334(3)
H81 H -0.3194 0.6429 0.3379
O7 O 0.1145(2) -0.0081(2) 0.3229(2)
O8 O 0.1415(4) 0.0868(3) 0.3387(5)
O9 O -0.1962(2) 0.31058(19) 0.3299(2)
O10 O -0.0571(3) 0.3124(2) 0.3150(3)
O11 O -0.1873(2) -0.0026(2) 0.3123(2)
O12 O -0.2754(3) 0.0996(2) 0.3037(3)
C49 C 0.0926(4) 0.0539(3) 0.3300(4)
C50 C -0.1184(4) 0.2817(3) 0.3235(4)
C51 C -0.2060(4) 0.0617(3) 0.3124(4)
C52 C 0.0048(3) 0.0935(3) 0.3260(4)
C53 C -0.0163(3) 0.1659(3) 0.3266(3)
H82 H 0.0248 0.1891 0.3289
C54 C -0.0975(3) 0.2029(3) 0.3239(3)
C55 C -0.1586(3) 0.1686(3) 0.3203(3)
H83 H -0.2135 0.1938 0.3190
C56 C -0.1396(3) 0.0967(3) 0.3187(3)
C57 C -0.0566(3) 0.0594(3) 0.3212(3)
H84 H -0.0425 0.0117 0.3197
O3A O 0.6450(2) 0.1595(2) -0.3220(2)
Ni1A Ni 0.76434(4) 0.08475(4) -0.32260(4)
N2A N 0.7112(3) 0.0523(3) -0.2128(3)
H1A H 0.6639 0.0850 -0.1974
C5A C 0.7741(5) 0.0463(4) -0.1743(4)
N1A N 0.8082(4) 0.1113(3) -0.1890(4)
C4A C 0.7476(5) 0.1657(4) -0.1528(4)
C3A C 0.7273(5) 0.1448(4) -0.0734(5)
C1A C 0.6445(6) 0.1322(6) -0.0259(6)
H5A H 0.5989 0.1363 -0.0436
C27A C 0.6282(6) 0.1133(6) 0.0477(5)
H57A H 0.5717 0.1056 0.0779
C29A C 0.6913(6) 0.1060(4) 0.0764(5)
C28A C 0.7723(7) 0.1187(5) 0.0306(6)
C2A C 0.7889(6) 0.1383(6) -0.0433(6)
H6A H 0.8453 0.1472 -0.0730
H58A H 0.8177 0.1144 0.0487
C30A C 0.6731(5) 0.0843(4) 0.1555(4)
N11A N 0.6503(4) 0.0114(3) 0.1856(4)
C31A C 0.5899(4) -0.0012(3) 0.2565(4)
N12A N 0.6272(3) -0.0065(3) 0.3135(3)
Ni3A Ni 0.74010(4) -0.07920(4) 0.31163(5)
N13A N 0.6888(3) -0.1015(3) 0.4204(3)
H54A H 0.6646 -0.1419 0.4338
C33A C 0.6149(4) -0.0435(4) 0.4403(4)
C32A C 0.5670(4) -0.0248(4) 0.3872(4)
H53A H 0.6414 0.0368 0.3073
H63A H 0.5394 -0.0647 0.3923
H64A H 0.5209 0.0151 0.3967
H65A H 0.6376 -0.0025 0.4393
H66A H 0.5753 -0.0593 0.4882
C34A C 0.7546(5) -0.1151(4) 0.4592(4)
H67A H 0.7245 -0.1263 0.5104
H68A H 0.7805 -0.0725 0.4475
C35A C 0.8273(6) -0.1761(4) 0.4387(5)
H69A H 0.8001 -0.2167 0.4454
H70A H 0.8613 -0.1890 0.4713
C36A C 0.8911(5) -0.1605(4) 0.3615(5)
N14A N 0.8524(3) -0.1536(3) 0.3088(3)
N15A N 0.7905(3) -0.0577(3) 0.2008(3)
H56A H 0.8164 -0.0180 0.1857
C38A C 0.8602(5) -0.1179(4) 0.1823(4)
C37A C 0.9130(4) -0.1376(4) 0.2349(5)
H55A H 0.8364 -0.1964 0.3157
H73A H 0.9574 -0.1786 0.2256
H74A H 0.9427 -0.0984 0.2283
H75A H 0.8990 -0.1046 0.1336
H76A H 0.8340 -0.1581 0.1862
C39A C 0.7227(5) -0.0450(4) 0.1659(4)
H77A H 0.7509 -0.0334 0.1144
H78A H 0.6986 -0.0885 0.1779
O1A O 0.3339(2) 0.1559(2) -0.3114(2)
Ni2_2 Ni 0.73532(4) -0.58422(4) 0.33170(4)
C16A C 0.0277(5) 0.5185(6) -0.0749(6)
C14A C 0.0292(8) 0.4504(7) -0.0363(8)
H31A H 0.0498 0.4138 -0.0604
C15A C 0.0017(9) 0.4341(7) 0.0363(8)
H32A H 0.0038 0.3865 0.0597
C17A C 0.0509(5) 0.5382(5) -0.1550(5)
N6A N 0.1287(4) 0.4926(3) -0.1896(4)
C18A C 0.1354(4) 0.4818(4) -0.2558(5)
N7A N 0.1544(3) 0.5443(3) -0.3166(3)
Ni2A Ni 0.26468(4) 0.58422(4) -0.33170(4)
H27A H 0.1078 0.5793 -0.3069
O5A O 0.3348(2) 0.47790(18) -0.3318(2)
O9A O 0.1962(2) 0.68942(19) -0.3299(2)
H33A H -0.0616 0.4130 0.1724
H34A H -0.0013 0.4653 0.1678
C26A C -0.2105(5) 0.5000(4) 0.1819(4)
N10A N -0.2432(4) 0.4313(3) 0.2239(3)
N8A N -0.2866(3) 0.4018(3) 0.4390(3)
H28A H -0.3269 0.4389 0.4537
C20A C -0.2032(5) 0.4085(4) 0.4446(5)
C19A C -0.1631(5) 0.4686(4) 0.3860(5)
H37A H -0.2005 0.5134 0.3925
H38A H -0.1056 0.4707 0.3872
H39A H -0.1627 0.3646 0.4406
H40A H -0.2136 0.4176 0.4909
C21A C -0.3224(4) 0.3352(4) 0.4855(4)
H41A H -0.2796 0.2945 0.4726
H42A H -0.3316 0.3338 0.5350
C22A C -0.4057(5) 0.3308(5) 0.4783(5)
H43A H -0.4452 0.3747 0.4851
H44A H -0.4322 0.2929 0.5166
C23A C -0.4003(4) 0.3176(4) 0.4075(5)
N9A N -0.3761(3) 0.3778(3) 0.3463(3)
O5_2 O -0.3348(2) 0.52210(18) 0.3318(2)
C42_2 C -0.4135(4) 0.5509(3) 0.3388(4)
O6_2 O -0.4756(3) 0.5183(2) 0.3487(3)
C47_2 C -0.4345(3) 0.6300(3) 0.3327(3)
C46_2 C -0.5141(3) 0.6672(3) 0.3265(3)
C45_2 C -0.5340(3) 0.7401(3) 0.3213(3)
C41_2 C -0.6227(3) 0.7786(3) 0.3136(3)
C44_2 C -0.4738(3) 0.7757(3) 0.3217(3)
H80_2 H -0.5554 0.6432 0.3258
C43_2 C -0.3914(3) 0.7400(3) 0.3275(3)
C40_2 C -0.3240(4) 0.7776(3) 0.3304(4)
H29A H -0.4214 0.4141 0.3546
C24A C -0.3673(5) 0.3655(4) 0.2769(5)
H47A H -0.4249 0.3634 0.2758
H48A H -0.3303 0.3205 0.2707
C25A C -0.3268(5) 0.4245(5) 0.2168(5)
H30A H -0.2013 0.3956 0.2077
H49A H -0.3154 0.4139 0.1710
H50A H -0.3671 0.4687 0.2192
H45A H -0.3570 0.2761 0.3980
H46A H -0.4570 0.3075 0.4119
H51A H -0.2009 0.5042 0.1317
H52A H -0.2557 0.5387 0.1972
H35A H -0.1817 0.5576 0.2668
H36A H -0.0805 0.5315 0.2513
O11A O 0.1873(2) 0.0026(2) -0.3123(2)
Ni3A_2 Ni -0.25990(4) -0.07920(4) 0.31163(5)
C48_2 C 0.6266(3) -0.3326(3) 0.3334(3)
O11_2 O 0.8127(2) -0.0026(2) 0.3123(2)
H71A H 0.9137 -0.1170 0.3530
H72A H 0.9408 -0.1985 0.3565
H61A H 0.5674 -0.0449 0.2656
H62A H 0.5403 0.0369 0.2596
H59A H 0.7248 0.0866 0.1660
H60A H 0.6247 0.1173 0.1782
H7A H 0.7733 0.2092 -0.1712
H8A H 0.6930 0.1752 -0.1637
C13A C 0.8678(4) 0.1325(3) -0.2564(4)
H9A H 0.8231 0.0093 -0.1879
H10A H 0.7445 0.0321 -0.1233
C6A C 0.6778(5) -0.0163(4) -0.1993(5)
N3A N 0.6998(3) 0.0113(3) -0.3269(4)
N4A N 0.8194(3) 0.1175(3) -0.4305(3)
N5A N 0.8303(3) 0.1562(2) -0.3159(3)
O7A O 0.8855(2) 0.0081(2) -0.3229(2)
H4A H 0.7903 0.1957 -0.3079
C12A C 0.8942(4) 0.1761(4) -0.3878(4)
H25A H 0.8939 0.1710 -0.2559
H26A H 0.9149 0.0932 -0.2662
O3_2 O -0.6450(2) 0.8405(2) 0.3220(2)
O4_2 O -0.6684(3) 0.7460(2) 0.3012(3)
H79_2 H -0.4872 0.8245 0.3180
O1_2 O -0.3339(2) 0.8441(2) 0.3114(2)
O2_2 O -0.2608(3) 0.7403(3) 0.3484(4)
H81_2 H 0.6806 -0.3571 0.3379
C51_2 C 0.7940(4) 0.0617(3) 0.3124(4)
H11A H 0.6345 -0.0258 -0.1520
H12A H 0.7262 -0.0554 -0.2021
C7A C 0.6372(5) -0.0088(4) -0.2549(6)
H2A H 0.7408 -0.0278 -0.3341
C8A C 0.6612(5) 0.0307(4) -0.3858(5)
H3A H 0.8676 0.0849 -0.4443
C10A C 0.7632(5) 0.1217(5) -0.4732(4)
C11A C 0.8523(5) 0.1841(4) -0.4424(4)
H23A H 0.9132 0.2203 -0.3930
H24A H 0.9456 0.1397 -0.3943
Ni1_2 Ni -0.76434(4) 0.91525(4) 0.32260(4)
Ni3A_3 Ni -0.25990(4) 0.92080(4) 0.31163(5)
O12_2 O 0.7246(3) 0.0996(2) 0.3037(3)
C56_2 C 0.8604(3) 0.0967(3) 0.3187(3)
H13A H 0.5852 0.0270 -0.2484
H14A H 0.6189 -0.0534 -0.2495
H15A H 0.6378 -0.0095 -0.3857
H16A H 0.6127 0.0694 -0.3777
C9A C 0.7291(7) 0.0528(5) -0.4575(6)
H19A H 0.7136 0.1591 -0.4632
H20A H 0.7969 0.1340 -0.5236
H21A H 0.8950 0.1944 -0.4899
H22A H 0.8038 0.2231 -0.4387
C55_2 C 0.8414(3) 0.1686(3) 0.3203(3)
C57_2 C 0.9434(3) 0.0594(3) 0.3212(3)
H17A H 0.7792 0.0152 -0.4624
H18A H 0.7040 0.0559 -0.4942
C54_2 C 0.9025(3) 0.2029(3) 0.3239(3)
H83_2 H 0.7865 0.1938 0.3190
C52_2 C 1.0048(3) 0.0935(3) 0.3260(4)
H84_2 H 0.9575 0.0117 0.3197
C50_2 C 0.8816(4) 0.2817(3) 0.3235(4)
C53_2 C 0.9837(3) 0.1659(3) 0.3266(3)
C49_2 C 1.0926(4) 0.0539(3) 0.3300(4)
O9_2 O 0.8038(2) 0.31058(19) 0.3299(2)
O10_2 O 0.9429(3) 0.3124(2) 0.3150(3)
H82_2 H 1.0248 0.1891 0.3289
O7_2 O 1.1145(2) -0.0081(2) 0.3229(2)
O8_2 O 1.1415(4) 0.0868(3) 0.3387(5)
Ni2_3 Ni 0.73532(4) 0.41578(4) 0.33170(4)
Ni1_3 Ni 1.23566(4) -0.08475(4) 0.32260(4)
N16 N 0.1042(11) -0.9545(9) 0.0551(7)
C58 C 0.0944(12) -0.8968(9) 0.0857(8)
H85 H 0.1429 -0.8760 0.0781
C59 C 0.0145(12) -0.8732(8) 0.1257(8)
H86 H 0.0055 -0.8365 0.1480
C60 C -0.0519(9) -0.9036(7) 0.1324(6)
H87 H -0.1079 -0.8836 0.1570
C61 C -0.0482(9) -0.9578(7) 0.1089(6)
H88 H -0.0983 -0.9776 0.1189
C62 C 0.0295(12) -0.9837(9) 0.0704(8)
H89 H 0.0346 -1.0229 0.0527
N17 N 0.5297(17) -0.1772(17) 0.1170(18)
C63 C 0.584(3) -0.184(3) 0.054(3)
H90 H 0.5925 -0.2262 0.0406
C64 C 0.6264(18) -0.132(2) 0.0081(19)
H91 H 0.6633 -0.1372 -0.0374
C65 C 0.6147(15) -0.0730(15) 0.0294(16)
H92 H 0.6482 -0.0374 0.0000
C66 C 0.5578(15) -0.0635(15) 0.0904(15)
H93 H 0.5455 -0.0202 0.1031
C67 C 0.5181(10) -0.1173(12) 0.1336(10)
H94 H 0.4795 -0.1119 0.1785
N18 N 0.8307(18) -0.2898(14) 0.148(2)
C68 C 0.900(3) -0.3041(11) 0.1771(14)
H95 H 0.8852 -0.3208 0.2264
C69 C 0.984(2) -0.2962(13) 0.142(2)
H96 H 1.0261 -0.3071 0.1655
C70 C 1.0053(19) -0.2716(14) 0.071(2)
H97 H 1.0630 -0.2643 0.0444
C71 C 0.946(3) -0.2573(12) 0.0381(14)
H98 H 0.9648 -0.2417 -0.0114
C72 C 0.862(3) -0.2641(15) 0.071(2)
H99 H 0.8233 -0.2522 0.0454
O13 O 0.8676(7) -0.6981(6) 0.1487(6)
O14 O 0.3974(8) -0.5144(5) 0.4786(6)
O15 O 0.5580(8) -0.8479(9) 0.3907(15)
O16 O 0.0300(6) -0.7127(7) 0.4203(6)
O17 O 0.7365(8) -0.7732(5) 0.1827(6)
O18 O 0.3314(8) -0.6427(6) 0.5078(6)
O19 O 0.4166(10) -0.7799(8) 0.4755(11)
O20 O 0.9740(10) -0.0447(11) 0.4868(7)
O21 O 0.260(2) -0.3635(11) 0.325(2)
O22 O 0.0759(15) -0.7146(11) 0.1686(15)
O23 O 0.5458(15) -0.7359(15) 0.1938(17)
O24 O 0.4090(19) -0.4860(10) 0.2808(16)
O25 O 0.0209(15) -0.3627(14) 0.4761(13)
O26 O 0.891(2) -0.339(2) 0.352(2)
O27 O 0.808(2) -0.667(2) 0.0375(19)
O28 O 0.453(2) -0.794(2) 0.193(2)
O29 O 0.450(2) -0.834(2) 0.284(2)
O30 O 0.1122(15) -0.8530(13) 0.4365(14)
O31 O 0.192(2) -0.8057(18) 0.159(2)
O32? O 0.1735(15) -0.8192(12) 0.3786(13)
O33? O 0.221(2) -0.789(2) 0.210(2)
loop_
_geom_bond_atom_site_label_1
_geom_bond_atom_site_label_2
_geom_bond_site_symmetry_1
_geom_bond_site_symmetry_2
Ni1 N2 1_555 1_555
N1 C4 1_555 1_555
N2 H1 1_555 1_555
N3 Ni1 1_555 1_555
H2 N3 1_555 1_555
N4 Ni1 1_555 1_555
H3 N4 1_555 1_555
N5 Ni1 1_555 1_555
H4 N5 1_555 1_555
C1 H5 1_555 1_555
C2 H6 1_555 1_555
C3 C1 1_555 1_555
C4 C3 1_555 1_555
H7 C4 1_555 1_555
H8 C4 1_555 1_555
C5 N1 1_555 1_555
H9 C5 1_555 1_555
H10 C5 1_555 1_555
C6 N2 1_555 1_555
H11 C6 1_555 1_555
H12 C6 1_555 1_555
C7 N3 1_555 1_555
H13 C7 1_555 1_555
H14 C7 1_555 1_555
C8 N3 1_555 1_555
H15 C8 1_555 1_555
H16 C8 1_555 1_555
C9 C8 1_555 1_555
H17 C9 1_555 1_555
H18 C9 1_555 1_555
C10 N4 1_555 1_555
H19 C10 1_555 1_555
H20 C10 1_555 1_555
C11 N4 1_555 1_555
H21 C11 1_555 1_555
H22 C11 1_555 1_555
C12 N5 1_555 1_555
H23 C12 1_555 1_555
H24 C12 1_555 1_555
C13 N1 1_555 1_555
H25 C13 1_555 1_555
H26 C13 1_555 1_555
Ni2 N7 1_555 1_555
N6 C17 1_555 1_555
N7 H27 1_555 1_555
N8 H28 1_555 1_555
N9 H29 1_555 1_555
N10 H30 1_555 1_555
C14 H31 1_555 1_555
C15 C14 1_555 1_555
H32 C15 1_555 1_555
C16 C14 1_555 1_555
C17 C16 1_555 1_555
H33 C17A 1_555 1_555
H34 C17A 1_555 1_555
C18 N6 1_555 1_555
H35 C18A 1_555 1_555
H36 C18A 1_555 1_555
C19 H37 1_555 1_555
H38 C19 1_555 1_555
C20 N8 1_555 1_555
H39 C20 1_555 1_555
H40 C20 1_555 1_555
C21 N8 1_555 1_555
H41 C21 1_555 1_555
H42 C21 1_555 1_555
C22 C21 1_555 1_555
H43 C22 1_555 1_555
H44 C22 1_555 1_555
C23 N9 1_555 1_555
H45 C23 1_555 1_555
H46 C23 1_555 1_555
C24 N9 1_555 1_555
H47 C24 1_555 1_555
H48 C24 1_555 1_555
C25 N10 1_555 1_555
H49 C25 1_555 1_555
H50 C25 1_555 1_555
C26 N10 1_555 1_555
H51 C26 1_555 1_555
H52 C26 1_555 1_555
Ni3 N12 1_555 1_555
N11 C30 1_555 1_555
N12 H53 1_555 1_555
N13 Ni3 1_555 1_555
H54 N13 1_555 1_555
N14 Ni3 1_555 1_555
H55 N14 1_555 1_555
N15 Ni3 1_555 1_555
H56 N15 1_555 1_555
C27 C1 1_555 1_555
H57 C27 1_555 1_555
C28 C2 1_555 1_555
H58 C28 1_555 1_555
C29 C27 1_555 1_555
C30 C29 1_555 1_555
H59 C30 1_555 1_555
H60 C30 1_555 1_555
C31 N11 1_555 1_555
H61 C31 1_555 1_555
H62 C31 1_555 1_555
C32 N12 1_555 1_555
H63 C32 1_555 1_555
H64 C32 1_555 1_555
C33 N13 1_555 1_555
H65 C33 1_555 1_555
H66 C33 1_555 1_555
C34 N13 1_555 1_555
H67 C34 1_555 1_555
H68 C34 1_555 1_555
C35 C34 1_555 1_555
H69 C35 1_555 1_555
H70 C35 1_555 1_555
C36 N14 1_555 1_555
H71 C36 1_555 1_555
H72 C36 1_555 1_555
C37 N14 1_555 1_555
H73 C37 1_555 1_555
H74 C37 1_555 1_555
C38 N15 1_555 1_555
H75 C38 1_555 1_555
H76 C38 1_555 1_555
C39 N11 1_555 1_555
H77 C39 1_555 1_555
H78 C39 1_555 1_555
O1 C40 1_555 1_555
O2 C40 1_555 1_555
O3 Ni1 1_555 1_555
O4 C41 1_555 1_555
O5 C42 1_555 1_555
O6 C42 1_555 1_555
C40 C43 1_555 1_555
C41 O3 1_555 1_555
C42 C47 1_555 1_555
C43 C44 1_555 1_555
C44 H79 1_555 1_555
C45 C41 1_555 1_555
C46 C45 1_555 1_555
H80 C46 1_555 1_555
C47 C46 1_555 1_555
C48 H81 1_555 1_555
O7 Ni1 1_555 1_555
O8 C49 1_555 1_555
O9 Ni2 1_555 1_555
O10 C50 1_555 1_555
O11 C51 1_555 1_555
O12 C51 1_555 1_555
C49 O7 1_555 1_555
C50 O9 1_555 1_555
C51 C56 1_555 1_555
C52 C49 1_555 1_555
C53 C52 1_555 1_555
H82 C53 1_555 1_555
C54 C50 1_555 1_555
C55 C54 1_555 1_555
H83 C55 1_555 1_555
C56 C55 1_555 1_555
C57 C52 1_555 1_555
H84 C57 1_555 1_555
N16 C58 1_555 1_555
C58 H85 1_555 1_555
C59 C58 1_555 1_555
H86 C59 1_555 1_555
C60 C59 1_555 1_555
H87 C60 1_555 1_555
C61 C60 1_555 1_555
H88 C61 1_555 1_555
C62 N16 1_555 1_555
H89 C62 1_555 1_555
N17 C63 1_555 1_555
C63 H90 1_555 1_555
C64 C63 1_555 1_555
H91 C64 1_555 1_555
C65 C64 1_555 1_555
H92 C65 1_555 1_555
C66 C65 1_555 1_555
H93 C66 1_555 1_555
C67 N17 1_555 1_555
H94 C67 1_555 1_555
N18 C68 1_555 1_555
C68 H95 1_555 1_555
C69 C68 1_555 1_555
H96 C69 1_555 1_555
C70 C69 1_555 1_555
H97 C70 1_555 1_555
C71 C70 1_555 1_555
H98 C71 1_555 1_555
C72 N18 1_555 1_555
H99 C72 1_555 1_555
O3A Ni1A 1_555 1_555
Ni1A N2A 1_555 1_555
N2A H1A 1_555 1_555
C5A N2A 1_555 1_555
N1A C5A 1_555 1_555
C4A N1A 1_555 1_555
C3A C4A 1_555 1_555
C1A C3A 1_555 1_555
H5A C1A 1_555 1_555
C27A C1A 1_555 1_555
H57A C27A 1_555 1_555
C29A C27A 1_555 1_555
C28A C29A 1_555 1_555
C2A C3A 1_555 1_555
H6A C2A 1_555 1_555
H58A C28A 1_555 1_555
C30A C29A 1_555 1_555
N11A C30A 1_555 1_555
C31A N11A 1_555 1_555
N12A C31A 1_555 1_555
Ni3A O1 1_555 1_555
N13A Ni3A 1_555 1_555
H54A N13A 1_555 1_555
C33A N13A 1_555 1_555
C32A N12A 1_555 1_555
H53A N12A 1_555 1_555
H63A C32A 1_555 1_555
H64A C32A 1_555 1_555
H65A C33A 1_555 1_555
H66A C33A 1_555 1_555
C34A N13A 1_555 1_555
H67A C34A 1_555 1_555
H68A C34A 1_555 1_555
C35A C34A 1_555 1_555
H69A C35A 1_555 1_555
H70A C35A 1_555 1_555
C36A C35A 1_555 1_555
N14A Ni3A 1_555 1_555
N15A Ni3A 1_555 1_555
H56A N15A 1_555 1_555
C38A N15A 1_555 1_555
C37A N14A 1_555 1_555
H55A N14A 1_555 1_555
H73A C37A 1_555 1_555
H74A C37A 1_555 1_555
H75A C38A 1_555 1_555
H76A C38A 1_555 1_555
C39A N11A 1_555 1_555
H77A C39A 1_555 1_555
H78A C39A 1_555 1_555
O1A Ni3 1_555 1_555
Ni2_2 O5 1_555 1_555
C16A C15 1_555 1_555
C14A C16A 1_555 1_555
H31A C14A 1_555 1_555
C15A C16 1_555 1_555
H32A C15A 1_555 1_555
C17A C16A 1_555 1_555
N6A C26 1_555 1_555
C18A N6A 1_555 1_555
N7A C19 1_555 1_555
Ni2A N8 1_555 1_555
H27A N7A 1_555 1_555
O5A Ni2A 1_555 1_555
O9A Ni2A 1_555 1_555
H33A C17 1_555 1_555
H34A C17 1_555 1_555
C26A N6 1_555 1_555
N10A Ni2 1_555 1_555
N8A Ni2 1_555 1_555
H28A N8A 1_555 1_555
C20A N8A 1_555 1_555
C19A N7 1_555 1_555
H37A C19A 1_555 1_555
H38A C19A 1_555 1_555
H39A C20A 1_555 1_555
H40A C20A 1_555 1_555
C21A N8A 1_555 1_555
H41A C21A 1_555 1_555
H42A C21A 1_555 1_555
C22A C21A 1_555 1_555
H43A C22A 1_555 1_555
H44A C22A 1_555 1_555
C23A C22A 1_555 1_555
N9A Ni2 1_555 1_555
O5_2 Ni2 1_555 1_555
C42_2 O5_2 1_555 1_555
O6_2 C42_2 1_555 1_555
C47_2 C48 1_555 1_555
C46_2 C47_2 1_555 1_555
C45_2 C46_2 1_555 1_555
C41_2 C45_2 1_555 1_555
C44_2 C45_2 1_555 1_555
H80_2 C46_2 1_555 1_555
C43_2 C48 1_555 1_555
C40_2 C43_2 1_555 1_555
H29A N9A 1_555 1_555
C24A N9A 1_555 1_555
H47A C24A 1_555 1_555
H48A C24A 1_555 1_555
C25A N10A 1_555 1_555
H30A N10A 1_555 1_555
H49A C25A 1_555 1_555
H50A C25A 1_555 1_555
H45A C23A 1_555 1_555
H46A C23A 1_555 1_555
H51A C26A 1_555 1_555
H52A C26A 1_555 1_555
H35A C18 1_555 1_555
H36A C18 1_555 1_555
O11A Ni3 1_555 1_555
Ni3A_2 O11 1_555 1_555
C48_2 C43 1_555 1_555
O11_2 Ni3A 1_555 1_555
H71A C36A 1_555 1_555
H72A C36A 1_555 1_555
H61A C31A 1_555 1_555
H62A C31A 1_555 1_555
H59A C30A 1_555 1_555
H60A C30A 1_555 1_555
H7A C4A 1_555 1_555
H8A C4A 1_555 1_555
C13A N1A 1_555 1_555
H9A C5A 1_555 1_555
H10A C5A 1_555 1_555
C6A N2A 1_555 1_555
N3A Ni1A 1_555 1_555
N4A Ni1A 1_555 1_555
N5A Ni1A 1_555 1_555
O7A Ni1A 1_555 1_555
H4A N5A 1_555 1_555
C12A N5A 1_555 1_555
H25A C13A 1_555 1_555
H26A C13A 1_555 1_555
O3_2 C41_2 1_555 1_555
O4_2 C41_2 1_555 1_555
H79_2 C44_2 1_555 1_555
O1_2 C40_2 1_555 1_555
O2_2 C40_2 1_555 1_555
H81_2 C48_2 1_555 1_555
C51_2 O11_2 1_555 1_555
H11A C6A 1_555 1_555
H12A C6A 1_555 1_555
C7A C6A 1_555 1_555
H2A N3A 1_555 1_555
C8A N3A 1_555 1_555
H3A N4A 1_555 1_555
C10A N4A 1_555 1_555
C11A N4A 1_555 1_555
H23A C12A 1_555 1_555
H24A C12A 1_555 1_555
Ni1_2 O3_2 1_555 1_555
Ni3A_3 O1_2 1_555 1_555
O12_2 C51_2 1_555 1_555
C56_2 C51_2 1_555 1_555
H13A C7A 1_555 1_555
H14A C7A 1_555 1_555
H15A C8A 1_555 1_555
H16A C8A 1_555 1_555
C9A C8A 1_555 1_555
H19A C10A 1_555 1_555
H20A C10A 1_555 1_555
H21A C11A 1_555 1_555
H22A C11A 1_555 1_555
C55_2 C56_2 1_555 1_555
C57_2 C56_2 1_555 1_555
H17A C9A 1_555 1_555
H18A C9A 1_555 1_555
C54_2 C55_2 1_555 1_555
H83_2 C55_2 1_555 1_555
C52_2 C57_2 1_555 1_555
H84_2 C57_2 1_555 1_555
C50_2 C54_2 1_555 1_555
C53_2 C54_2 1_555 1_555
C49_2 C52_2 1_555 1_555
O9_2 C50_2 1_555 1_555
O10_2 C50_2 1_555 1_555
H82_2 C53_2 1_555 1_555
O7_2 C49_2 1_555 1_555
O8_2 C49_2 1_555 1_555
Ni2_3 O9_2 1_555 1_555
Ni1_3 O7_2 1_555 1_555
N2 C5 1_555 1_555
N5 C13 1_555 1_555
C2 C3 1_555 1_555
C6 C7 1_555 1_555
C9 C10 1_555 1_555
C11 C12 1_555 1_555
N7 C18 1_555 1_555
N9 Ni2A 1_555 1_555
N10 Ni2A 1_555 1_555
C19 C20 1_555 1_555
C22 C23 1_555 1_555
C24 C25 1_555 1_555
N12 C31 1_555 1_555
N15 C39 1_555 1_555
C28 C29 1_555 1_555
C32 C33 1_555 1_555
C35 C36 1_555 1_555
C37 C38 1_555 1_555
C44 C45 1_555 1_555
C47 C48_2 1_555 1_555
C53 C54 1_555 1_555
C56 C57 1_555 1_555
C61 C62 1_555 1_555
C66 C67 1_555 1_555
C71 C72 1_555 1_555
C28A C2A 1_555 1_555
N12A Ni3A 1_555 1_555
C33A C32A 1_555 1_555
C36A N14A 1_555 1_555
N15A C39A 1_555 1_555
C38A C37A 1_555 1_555
C14A C15A 1_555 1_555
C17A N6A 1_555 1_555
C18A N7A 1_555 1_555
N7A Ni2A 1_555 1_555
C26A N10A 1_555 1_555
C20A C19A 1_555 1_555
C23A N9A 1_555 1_555
C42_2 C47_2 1_555 1_555
C44_2 C43_2 1_555 1_555
C24A C25A 1_555 1_555
C13A N5A 1_555 1_555
N3A C7A 1_555 1_555
C12A C11A 1_555 1_555
C10A C9A 1_555 1_555
C52_2 C53_2 1_555 1_555

#END
