
#######################################################################
#
#                 Cambridge Crystallographic Data Centre
#                                CCDC 
#
#######################################################################
#
# If this CIF has been generated from an entry in the Cambridge 
# Structural Database, then it will include bibliographic, chemical, 
# crystal, experimental, refinement or atomic coordinate data resulting 
# from the CCDC's data processing and validation procedures.
#
#######################################################################

data_XUGTIC
_symmetry_cell_setting           triclinic
_symmetry_space_group_name_H-M   'P -1'
_symmetry_Int_Tables_number      2
_space_group_name_Hall           '-P 1'
loop_
_symmetry_equiv_pos_site_id
_symmetry_equiv_pos_as_xyz
1 x,y,z
2 -x,-y,-z
_cell_length_a                   16.460(5)
_cell_length_b                   19.849(5)
_cell_length_c                   20.419(5)
_cell_angle_alpha                70.498(5)
_cell_angle_beta                 71.084(5)
_cell_angle_gamma                76.297(5)
_cell_volume                     5886.6
loop_
_atom_site_label
_atom_site_type_symbol
_atom_site_fract_x
_atom_site_fract_y
_atom_site_fract_z
Ni1 Ni 0.22345(14) -0.07958(13) 0.31834(16)
N1 N 0.1733(14) -0.1120(12) 0.1855(13)
N2 N 0.2660(11) -0.0502(9) 0.2091(10)
H1 H 0.3119 -0.0838 0.1968
N3 N 0.2963(10) -0.0045(7) 0.3117(13)
H2 H 0.2571 0.0362 0.3137
N4 N 0.1752(10) -0.1122(9) 0.4295(9)
H3 H 0.1296 -0.0785 0.4421
N5 N 0.1599(9) -0.1526(8) 0.3160(10)
H4 H 0.1988 -0.1933 0.3127
C1 C 0.345(2) -0.1428(15) 0.046(2)
H5 H 0.3854 -0.1503 0.0722
C2 C 0.2048(17) -0.1397(12) 0.0429(18)
H6 H 0.1466 -0.1436 0.0663
C3 C 0.263(3) -0.1501(12) 0.0794(19)
C4 C 0.2337(14) -0.1678(11) 0.1596(16)
H7 H 0.2074 -0.2116 0.1785
H8 H 0.2841 -0.1771 0.1779
C5 C 0.2050(13) -0.0457(14) 0.1698(11)
H9 H 0.1561 -0.0091 0.1809
H10 H 0.2329 -0.0301 0.1185
C6 C 0.3007(15) 0.0188(14) 0.1895(12)
H11 H 0.2528 0.0579 0.1933
H12 H 0.3358 0.0292 0.1398
C7 C 0.3553(15) 0.0147(13) 0.2384(14)
H13 H 0.4059 -0.0219 0.2331
H14 H 0.3743 0.0609 0.2277
C8 C 0.3273(15) -0.0249(11) 0.3831(19)
H15 H 0.3774 -0.0622 0.3790
H16 H 0.3475 0.0173 0.3829
C9 C 0.2656(17) -0.0508(19) 0.4565(14)
H17 H 0.2937 -0.0544 0.4928
H18 H 0.2149 -0.0142 0.4612
C10 C 0.2353(16) -0.1218(15) 0.4731(15)
H19 H 0.2845 -0.1580 0.4618
H20 H 0.2060 -0.1380 0.5240
C11 C 0.1407(13) -0.1774(13) 0.4419(12)
H21 H 0.0997 -0.1878 0.4892
H22 H 0.1876 -0.2176 0.4414
C12 C 0.0957(12) -0.1705(10) 0.3852(16)
H23 H 0.0759 -0.2155 0.3931
H24 H 0.0461 -0.1326 0.3871
C13 C 0.1198(14) -0.1305(13) 0.2532(18)
H25 H 0.0920 -0.1702 0.2570
H26 H 0.0745 -0.0899 0.2587
Ni2 Ni -0.27443(15) 0.42206(12) 0.32073(16)
N6 N -0.1374(16) 0.5170(11) 0.1792(14)
N7 N -0.1670(9) 0.4629(10) 0.3102(14)
H27 H -0.1212 0.4276 0.3028
N8 N 0.2977(12) 0.6038(10) -0.4329(10)
H28 H 0.3392 0.5682 -0.4471
N9 N 0.3833(11) 0.6132(12) -0.3321(14)
H29 H 0.4278 0.5771 -0.3399
N10 N 0.2544(12) 0.5550(10) -0.2128(10)
H30 H 0.2156 0.5919 -0.1986
C14 C -0.042(2) 0.553(4) 0.042(3)
H31 H -0.0668 0.5865 0.0684
C15 C -0.018(2) 0.5736(19) -0.029(4)
H32 H -0.0291 0.6224 -0.0529
C16 C -0.029(3) 0.480(4) 0.075(3)
C17 C -0.0634(16) 0.4699(12) 0.1554(17)
H33 H 0.0766 0.5791 -0.1777
H34 H 0.0174 0.5258 -0.1731
C18 C -0.1492(14) 0.5273(12) 0.245(2)
H35 H 0.1972 0.4341 -0.2513
H36 H 0.0977 0.4561 -0.2437
C19 C 0.1786(15) 0.5311(16) -0.3835(18)
H37 H 0.2172 0.4870 -0.3890
H38 H 0.1228 0.5274 -0.3876
C20 C 0.2151(16) 0.5942(15) -0.4442(13)
H39 H 0.1733 0.6378 -0.4440
H40 H 0.2274 0.5846 -0.4903
C21 C 0.331(2) 0.6700(12) -0.4732(13)
H41 H 0.3489 0.6732 -0.5242
H42 H 0.2860 0.7103 -0.4656
C22 C 0.4110(15) 0.6738(15) -0.449(2)
H43 H 0.4390 0.7129 -0.4857
H44 H 0.4505 0.6298 -0.4533
C23 C 0.412(2) 0.6821(19) -0.384(2)
H45 H 0.4696 0.6864 -0.3846
H46 H 0.3717 0.7238 -0.3731
C24 C 0.3814(17) 0.6265(12) -0.267(2)
H47 H 0.4394 0.6268 -0.2655
H48 H 0.3462 0.6723 -0.2628
C25 C 0.340(2) 0.562(2) -0.2064(17)
H49 H 0.3317 0.5682 -0.1597
H50 H 0.3790 0.5170 -0.2091
C26 C 0.2188(19) 0.4898(17) -0.1704(13)
H51 H 0.2614 0.4494 -0.1818
H52 H 0.2104 0.4855 -0.1200
Ni3 Ni 0.27525(15) 0.07650(13) -0.31517(16)
N11 N 0.3715(13) -0.0225(11) -0.1825(13)
N12 N 0.3859(9) 0.0033(7) -0.3165(10)
H53 H 0.3708 -0.0401 -0.3101
N13 N 0.3187(10) 0.1034(8) -0.4256(8)
H54 H 0.3416 0.1450 -0.4395
N14 N 0.1616(11) 0.1514(8) -0.3118(14)
H55 H 0.1771 0.1948 -0.3185
N15 N 0.2352(10) 0.0532(7) -0.2054(9)
H56 H 0.2108 0.0121 -0.1899
C27 C 0.3684(18) -0.1243(13) -0.025(2)
H57 H 0.4265 -0.1190 -0.0472
C28 C 0.2342(19) -0.1232(11) -0.030(2)
H58 H 0.1936 -0.1191 -0.0540
C29 C 0.317(2) -0.1116(12) -0.0726(17)
C30 C 0.3431(15) -0.0943(14) -0.1501(17)
H59 H 0.3903 -0.1305 -0.1651
H60 H 0.2949 -0.0951 -0.1672
C31 C 0.4235(14) -0.0057(11) -0.2544(17)
H61 H 0.4452 0.0389 -0.2634
H62 H 0.4734 -0.0432 -0.2572
C32 C 0.4426(13) 0.0232(12) -0.3892(15)
H63 H 0.4719 0.0625 -0.3943
H64 H 0.4866 -0.0177 -0.3970
C33 C 0.3939(14) 0.0457(11) -0.4444(13)
H65 H 0.4316 0.0648 -0.4918
H66 H 0.3724 0.0046 -0.4452
C34 C 0.2509(16) 0.1186(12) -0.4635(13)
H67 H 0.2771 0.1333 -0.5151
H68 H 0.2269 0.0746 -0.4522
C35 C 0.1768(15) 0.1780(12) -0.4429(14)
H69 H 0.1407 0.1909 -0.4758
H70 H 0.2023 0.2204 -0.4510
C36 C 0.1208(12) 0.1612(10) -0.3695(14)
H71 H 0.0722 0.1998 -0.3663
H72 H 0.0977 0.1173 -0.3604
C37 C 0.1063(14) 0.1290(12) -0.2339(17)
H73 H 0.0789 0.0879 -0.2264
H74 H 0.0611 0.1685 -0.2238
C38 C 0.1648(14) 0.1095(10) -0.1840(12)
H75 H 0.1321 0.0916 -0.1343
H76 H 0.1884 0.1516 -0.1884
C39 C 0.3052(12) 0.0369(11) -0.1685(11)
H77 H 0.2788 0.0263 -0.1169
H78 H 0.3326 0.0798 -0.1832
O1 O 0.6494(6) -0.1542(7) 0.3167(7)
O2 O 0.7219(9) -0.2585(8) 0.3568(10)
O3 O 0.3405(7) -0.1564(7) 0.3206(7)
O4 O 0.3095(9) -0.2575(8) 0.3204(9)
O5 O 0.6566(8) -0.4706(6) 0.3175(7)
O6 O 0.5150(9) -0.4815(8) 0.3455(10)
O7 O 0.1041(7) -0.0026(7) 0.3134(7)
O8 O 0.1347(9) 0.0925(8) 0.3280(10)
O9 O -0.2048(8) 0.3168(6) 0.3161(7)
O10 O -0.0745(9) 0.3139(7) 0.3236(9)
O11 O -0.2005(7) 0.0029(7) 0.3087(7)
O12 O -0.2965(8) 0.1037(7) 0.3117(9)
C40 C 0.6589(14) -0.2222(13) 0.3343(12)
C41 C 0.3595(13) -0.2214(12) 0.3223(10)
C42 C 0.5732(17) -0.4480(12) 0.3350(12)
C43 C 0.5927(11) -0.2583(11) 0.3317(10)
C44 C 0.5120(11) -0.2230(9) 0.3270(8)
H79 H 0.4995 -0.1738 0.3231
C45 C 0.4479(12) -0.2582(10) 0.3280(9)
C46 C 0.4699(11) -0.3287(11) 0.3288(9)
H80 H 0.4291 -0.3529 0.3268
C47 C 0.5560(13) -0.3676(10) 0.3328(11)
C48 C -0.3838(12) 0.6701(11) 0.3342(9)
H81 H -0.3283 0.6471 0.3368
C49 C 0.0846(13) 0.0608(12) 0.3197(11)
C50 C -0.1335(16) 0.2850(11) 0.3200(11)
C51 C -0.2252(16) 0.0694(11) 0.3109(11)
C52 C -0.0077(12) 0.0984(10) 0.3218(10)
C53 C -0.0301(13) 0.1702(10) 0.3219(10)
H82 H 0.0116 0.1933 0.3240
C54 C -0.1111(12) 0.2093(11) 0.3191(9)
C55 C -0.1685(12) 0.1744(10) 0.3167(10)
H83 H -0.2236 0.1996 0.3155
C56 C -0.1528(12) 0.1010(10) 0.3159(9)
C57 C -0.0692(12) 0.0637(10) 0.3179(10)
H84 H -0.0551 0.0159 0.3165
O3A O 0.6595(7) 0.1564(7) -0.3206(7)
Ni1A Ni 0.77655(14) 0.07958(13) -0.31834(16)
N2A N 0.7340(11) 0.0502(9) -0.2091(10)
H1A H 0.6881 0.0838 -0.1968
C5A C 0.7950(13) 0.0457(14) -0.1698(11)
N1A N 0.8267(14) 0.1120(12) -0.1855(13)
C4A C 0.7663(14) 0.1678(11) -0.1596(16)
C3A C 0.737(3) 0.1501(12) -0.0794(19)
C1A C 0.655(2) 0.1428(15) -0.046(2)
H5A H 0.6146 0.1503 -0.0722
C27A C 0.6316(18) 0.1243(13) 0.025(2)
H57A H 0.5735 0.1190 0.0472
C29A C 0.683(2) 0.1116(12) 0.0726(17)
C28A C 0.7658(19) 0.1232(11) 0.030(2)
C2A C 0.7952(17) 0.1397(12) -0.0429(18)
H6A H 0.8534 0.1436 -0.0663
H58A H 0.8064 0.1191 0.0540
C30A C 0.6569(15) 0.0943(14) 0.1501(17)
N11A N 0.6285(13) 0.0225(11) 0.1825(13)
C31A C 0.5765(14) 0.0057(11) 0.2544(17)
N12A N 0.6141(9) -0.0033(7) 0.3165(10)
Ni3A Ni 0.72475(15) -0.07650(13) 0.31517(16)
N13A N 0.6813(10) -0.1034(8) 0.4256(8)
H54A H 0.6584 -0.1450 0.4395
C33A C 0.6061(14) -0.0457(11) 0.4444(13)
C32A C 0.5574(13) -0.0232(12) 0.3892(15)
H53A H 0.6292 0.0401 0.3101
H63A H 0.5281 -0.0625 0.3943
H64A H 0.5134 0.0177 0.3970
H65A H 0.5684 -0.0648 0.4918
H66A H 0.6276 -0.0046 0.4452
C34A C 0.7491(16) -0.1186(12) 0.4635(13)
H67A H 0.7229 -0.1333 0.5151
H68A H 0.7731 -0.0746 0.4522
C35A C 0.8232(15) -0.1780(12) 0.4429(14)
H69A H 0.8593 -0.1909 0.4758
H70A H 0.7977 -0.2204 0.4510
C36A C 0.8792(12) -0.1612(10) 0.3695(14)
N14A N 0.8384(11) -0.1514(8) 0.3118(14)
N15A N 0.7648(10) -0.0532(7) 0.2054(9)
H56A H 0.7892 -0.0121 0.1899
C38A C 0.8352(14) -0.1095(10) 0.1840(12)
C37A C 0.8937(14) -0.1290(12) 0.2339(17)
H55A H 0.8229 -0.1948 0.3185
H73A H 0.9211 -0.0879 0.2264
H74A H 0.9389 -0.1685 0.2238
H75A H 0.8679 -0.0916 0.1343
H76A H 0.8116 -0.1516 0.1884
C39A C 0.6948(12) -0.0369(11) 0.1685(11)
H77A H 0.7212 -0.0263 0.1169
H78A H 0.6674 -0.0798 0.1832
O1A O 0.3506(6) 0.1542(7) -0.3167(7)
Ni2_2 Ni 0.72557(15) -0.57794(12) 0.32073(16)
C16A C 0.029(3) 0.520(4) -0.075(3)
C14A C 0.042(2) 0.447(4) -0.042(3)
H31A H 0.0668 0.4135 -0.0684
C15A C 0.018(2) 0.4264(19) 0.029(4)
H32A H 0.0291 0.3776 0.0529
C17A C 0.0634(16) 0.5301(12) -0.1554(17)
N6A N 0.1374(16) 0.4830(11) -0.1792(14)
C18A C 0.1492(14) 0.4727(12) -0.245(2)
N7A N 0.1670(9) 0.5371(10) -0.3102(14)
Ni2A Ni 0.27443(15) 0.57794(12) -0.32073(16)
H27A H 0.1212 0.5724 -0.3028
O5A O 0.3434(8) 0.4706(6) -0.3175(7)
O9A O 0.2048(8) 0.6832(6) -0.3161(7)
H33A H -0.0766 0.4209 0.1777
H34A H -0.0174 0.4742 0.1731
C26A C -0.2188(19) 0.5102(17) 0.1704(13)
N10A N -0.2544(12) 0.4450(10) 0.2128(10)
N8A N -0.2977(12) 0.3962(10) 0.4329(10)
H28A H -0.3392 0.4318 0.4471
C20A C -0.2151(16) 0.4058(15) 0.4442(13)
C19A C -0.1786(15) 0.4689(16) 0.3835(18)
H37A H -0.2172 0.5130 0.3890
H38A H -0.1228 0.4726 0.3876
H39A H -0.1733 0.3622 0.4440
H40A H -0.2274 0.4154 0.4903
C21A C -0.331(2) 0.3300(12) 0.4732(13)
H41A H -0.3489 0.3268 0.5242
H42A H -0.2860 0.2897 0.4656
C22A C -0.4110(15) 0.3262(15) 0.449(2)
H43A H -0.4390 0.2871 0.4857
H44A H -0.4505 0.3702 0.4533
C23A C -0.412(2) 0.3179(19) 0.384(2)
N9A N -0.3833(11) 0.3868(12) 0.3321(14)
O5_2 O -0.3434(8) 0.5294(6) 0.3175(7)
C42_2 C -0.4268(17) 0.5520(12) 0.3350(12)
O6_2 O -0.4850(9) 0.5185(8) 0.3455(10)
C47_2 C -0.4440(13) 0.6324(10) 0.3328(11)
C46_2 C -0.5301(11) 0.6713(11) 0.3288(9)
C45_2 C -0.5521(12) 0.7418(10) 0.3280(9)
C41_2 C -0.6405(13) 0.7786(12) 0.3223(10)
C44_2 C -0.4880(11) 0.7770(9) 0.3270(8)
H80_2 H -0.5709 0.6471 0.3268
C43_2 C -0.4073(11) 0.7417(11) 0.3317(10)
C40_2 C -0.3411(14) 0.7778(13) 0.3343(12)
H29A H -0.4278 0.4229 0.3399
C24A C -0.3814(17) 0.3735(12) 0.267(2)
H47A H -0.4394 0.3732 0.2655
H48A H -0.3462 0.3277 0.2628
C25A C -0.340(2) 0.438(2) 0.2064(17)
H30A H -0.2156 0.4081 0.1986
H49A H -0.3317 0.4318 0.1597
H50A H -0.3790 0.4830 0.2091
H45A H -0.4696 0.3136 0.3846
H46A H -0.3717 0.2762 0.3731
H51A H -0.2614 0.5506 0.1818
H52A H -0.2104 0.5145 0.1200
H35A H -0.1972 0.5659 0.2513
H36A H -0.0977 0.5439 0.2437
O11A O 0.2005(7) -0.0029(7) -0.3087(7)
Ni3A_2 Ni -0.27525(15) -0.07650(13) 0.31517(16)
C48_2 C 0.6162(12) -0.3299(11) 0.3342(9)
O11_2 O 0.7995(7) 0.0029(7) 0.3087(7)
H71A H 0.9278 -0.1998 0.3663
H72A H 0.9023 -0.1173 0.3604
H61A H 0.5548 -0.0389 0.2634
H62A H 0.5266 0.0432 0.2572
H59A H 0.6097 0.1305 0.1651
H60A H 0.7051 0.0951 0.1672
H7A H 0.7926 0.2116 -0.1785
H8A H 0.7159 0.1771 -0.1779
C13A C 0.8802(14) 0.1305(13) -0.2532(18)
H9A H 0.8439 0.0091 -0.1809
H10A H 0.7671 0.0301 -0.1185
C6A C 0.6993(15) -0.0188(14) -0.1895(12)
N3A N 0.7037(10) 0.0045(7) -0.3117(13)
N4A N 0.8248(10) 0.1122(9) -0.4295(9)
N5A N 0.8401(9) 0.1526(8) -0.3160(10)
O7A O 0.8959(7) 0.0026(7) -0.3134(7)
H4A H 0.8012 0.1933 -0.3127
C12A C 0.9043(12) 0.1705(10) -0.3852(16)
H25A H 0.9080 0.1702 -0.2570
H26A H 0.9255 0.0899 -0.2587
O3_2 O -0.6595(7) 0.8436(7) 0.3206(7)
O4_2 O -0.6905(9) 0.7425(8) 0.3204(9)
H79_2 H -0.5005 0.8262 0.3231
O1_2 O -0.3506(6) 0.8458(7) 0.3167(7)
O2_2 O -0.2781(9) 0.7415(8) 0.3568(10)
H81_2 H 0.6717 -0.3529 0.3368
C51_2 C 0.7748(16) 0.0694(11) 0.3109(11)
H11A H 0.7472 -0.0579 -0.1933
H12A H 0.6642 -0.0292 -0.1398
C7A C 0.6447(15) -0.0147(13) -0.2384(14)
H2A H 0.7429 -0.0362 -0.3137
C8A C 0.6727(15) 0.0249(11) -0.3831(19)
H3A H 0.8704 0.0785 -0.4421
C10A C 0.7647(16) 0.1218(15) -0.4731(15)
C11A C 0.8593(13) 0.1774(13) -0.4419(12)
H23A H 0.9241 0.2155 -0.3931
H24A H 0.9539 0.1326 -0.3871
Ni1_2 Ni -0.77655(14) 0.92042(13) 0.31834(16)
Ni3A_3 Ni -0.27525(15) 0.92350(13) 0.31517(16)
O12_2 O 0.7035(8) 0.1037(7) 0.3117(9)
C56_2 C 0.8472(12) 0.1010(10) 0.3159(9)
H13A H 0.5941 0.0219 -0.2331
H14A H 0.6257 -0.0609 -0.2277
H15A H 0.6226 0.0622 -0.3790
H16A H 0.6525 -0.0173 -0.3829
C9A C 0.7344(17) 0.0508(19) -0.4565(14)
H19A H 0.7155 0.1580 -0.4618
H20A H 0.7940 0.1380 -0.5240
H21A H 0.9003 0.1878 -0.4892
H22A H 0.8124 0.2176 -0.4414
C55_2 C 0.8315(12) 0.1744(10) 0.3167(10)
C57_2 C 0.9308(12) 0.0637(10) 0.3179(10)
H17A H 0.7063 0.0544 -0.4928
H18A H 0.7851 0.0142 -0.4612
C54_2 C 0.8889(12) 0.2093(11) 0.3191(9)
H83_2 H 0.7764 0.1996 0.3155
C52_2 C 0.9923(12) 0.0984(10) 0.3218(10)
H84_2 H 0.9449 0.0159 0.3165
C50_2 C 0.8665(16) 0.2850(11) 0.3200(11)
C53_2 C 0.9699(13) 0.1702(10) 0.3219(10)
C49_2 C 1.0846(13) 0.0608(12) 0.3197(11)
O9_2 O 0.7952(8) 0.3168(6) 0.3161(7)
O10_2 O 0.9255(9) 0.3139(7) 0.3236(9)
H82_2 H 1.0116 0.1933 0.3240
O7_2 O 1.1041(7) -0.0026(7) 0.3134(7)
O8_2 O 1.1347(9) 0.0925(8) 0.3280(10)
Ni2_3 Ni 0.72557(15) 0.42206(12) 0.32073(16)
Ni1_3 Ni 1.22345(14) -0.07958(13) 0.31834(16)
C58 C 0.0200(15) -0.9779(14) 0.0951(17)
H85 H 0.0279 -1.0280 0.1077
C59 C -0.0307(14) -0.9417(17) 0.1411(13)
H86 H -0.0588 -0.9673 0.1871
C60 C -0.0428(17) -0.8708(18) 0.124(2)
H87 H -0.0791 -0.8486 0.1591
C61 C -0.007(3) -0.8297(19) 0.061(2)
H88 H -0.0151 -0.7795 0.0488
C62 C 0.043(3) -0.869(2) 0.018(2)
H89 H 0.0710 -0.8427 -0.0275
C63 C 0.0585(18) -0.939(2) 0.0310(17)
H90 H 0.0953 -0.9612 -0.0039
C64 C 0.6902(19) -0.706(2) 0.083(2)
H91 H 0.6436 -0.7300 0.0940
C65 C 0.744(2) -0.7284(14) 0.1242(15)
H92 H 0.7360 -0.7689 0.1636
C66 C 0.810(2) -0.6940(19) 0.1097(17)
H93 H 0.8480 -0.7108 0.1391
C67 C 0.8240(19) -0.6363(19) 0.054(2)
H94 H 0.8702 -0.6115 0.0435
C68 C 0.768(3) -0.6158(17) 0.0150(17)
H95 H 0.7760 -0.5748 -0.0240
C69 C 0.701(2) -0.649(2) 0.026(2)
H96 H 0.6645 -0.6325 -0.0036
C70 C 0.5372(18) -0.0666(16) 0.096(2)
H97 H 0.5141 -0.0219 0.1044
C71 C 0.5899(19) -0.0716(19) 0.0334(18)
H98 H 0.6046 -0.0298 -0.0028
C72 C 0.6223(19) -0.135(3) 0.021(2)
H99 H 0.6598 -0.1355 -0.0238
C73 C 0.605(2) -0.196(2) 0.069(3)
H100 H 0.6275 -0.2411 0.0603
C74 C 0.553(2) -0.1871(17) 0.130(2)
H101 H 0.5387 -0.2288 0.1664
C75 C 0.5181(14) -0.126(2) 0.1453(15)
H102 H 0.4807 -0.1255 0.1904
C76 C 0.361(4) -0.8168(18) 0.316(3)
H103 H 0.3305 -0.8418 0.3613
C77 C 0.437(5) -0.799(3) 0.307(3)
H104 H 0.4604 -0.8115 0.3463
C78 C 0.481(3) -0.764(3) 0.243(5)
H105 H 0.5347 -0.7529 0.2385
C79 C 0.454(5) -0.745(2) 0.184(3)
H106 H 0.4847 -0.7197 0.1391
C80 C 0.378(5) -0.765(3) 0.198(3)
H107 H 0.3561 -0.7534 0.1580
C81 C 0.329(3) -0.799(3) 0.260(4)
H108 H 0.2753 -0.8092 0.2643
C82 C 0.790(5) -0.316(5) -0.066(4)
H109 H 0.7728 -0.2968 -0.0271
C83 C 0.759(3) -0.372(5) -0.064(3)
H110 H 0.7187 -0.3929 -0.0220
C84 C 0.780(4) -0.402(3) -0.118(5)
H111 H 0.7552 -0.4414 -0.1119
C85 C 0.836(5) -0.376(4) -0.180(4)
H112 H 0.8526 -0.3948 -0.2190
C86 C 0.865(2) -0.320(4) -0.178(3)
H113 H 0.9047 -0.3000 -0.2203
C87 C 0.846(4) -0.288(3) -0.127(5)
H114 H 0.8717 -0.2479 -0.1331
C88 C 0.9326(19) -0.3245(11) 0.2692(17)
H115 H 0.8822 -0.3284 0.3070
C89 C 0.929(2) -0.3080(11) 0.202(2)
H116 H 0.8748 -0.3005 0.1930
C90 C 0.998(3) -0.3017(12) 0.1458(17)
H117 H 0.9918 -0.2901 0.0995
C91 C 1.076(2) -0.3118(13) 0.155(2)
H118 H 1.1265 -0.3078 0.1178
C92 C 1.076(2) -0.3281(13) 0.224(2)
H119 H 1.1296 -0.3355 0.2325
C93 C 1.008(2) -0.3351(11) 0.2816(17)
H120 H 1.0145 -0.3468 0.3279
C94 C 0.510(3) -0.466(3) 0.066(3)
H121 H 0.5366 -0.4989 0.0393
C95 C 0.451(3) -0.484(2) 0.128(3)
H122 H 0.4358 -0.5304 0.1439
C96 C 0.413(3) -0.439(3) 0.168(2)
H123 H 0.3714 -0.4553 0.2108
C97 C 0.430(3) -0.373(3) 0.148(3)
H124 H 0.4035 -0.3401 0.1750
C98 C 0.491(3) -0.360(2) 0.086(3)
H125 H 0.5070 -0.3138 0.0709
C99 C 0.532(2) -0.401(3) 0.043(2)
H126 H 0.5730 -0.3851 -0.0001
O13 O 0.0286(13) -0.7157(13) 0.4191(12)
O14 O 0.033(2) -0.3627(15) 0.4775(18)
O15 O 0.565(2) -0.8512(15) 0.432(2)
O16 O 0.6961(19) -0.3732(13) 0.4786(14)
O17 O 0.408(2) -0.7602(16) 0.4583(19)
O18 O 0.227(2) -0.3671(17) 0.352(2)
O19 O 0.4063(19) -0.5057(12) 0.4875(14)
O20 O 0.0879(18) -0.872(2) 0.453(2)
O21 O 0.790(7) -0.408(6) 0.688(6)
O22 O 1.0000 -1.0000 0.5000
loop_
_geom_bond_atom_site_label_1
_geom_bond_atom_site_label_2
_geom_bond_site_symmetry_1
_geom_bond_site_symmetry_2
Ni1 N2 1_555 1_555
N1 C4 1_555 1_555
N2 H1 1_555 1_555
N3 Ni1 1_555 1_555
H2 N3 1_555 1_555
N4 Ni1 1_555 1_555
H3 N4 1_555 1_555
N5 Ni1 1_555 1_555
H4 N5 1_555 1_555
C1 H5 1_555 1_555
C2 H6 1_555 1_555
C3 C1 1_555 1_555
C4 C3 1_555 1_555
H7 C4 1_555 1_555
H8 C4 1_555 1_555
C5 N1 1_555 1_555
H9 C5 1_555 1_555
H10 C5 1_555 1_555
C6 N2 1_555 1_555
H11 C6 1_555 1_555
H12 C6 1_555 1_555
C7 N3 1_555 1_555
H13 C7 1_555 1_555
H14 C7 1_555 1_555
C8 N3 1_555 1_555
H15 C8 1_555 1_555
H16 C8 1_555 1_555
C9 C8 1_555 1_555
H17 C9 1_555 1_555
H18 C9 1_555 1_555
C10 N4 1_555 1_555
H19 C10 1_555 1_555
H20 C10 1_555 1_555
C11 N4 1_555 1_555
H21 C11 1_555 1_555
H22 C11 1_555 1_555
C12 N5 1_555 1_555
H23 C12 1_555 1_555
H24 C12 1_555 1_555
C13 N1 1_555 1_555
H25 C13 1_555 1_555
H26 C13 1_555 1_555
Ni2 N7 1_555 1_555
N6 C17 1_555 1_555
N7 H27 1_555 1_555
N8 H28 1_555 1_555
N9 H29 1_555 1_555
N10 H30 1_555 1_555
C14 H31 1_555 1_555
C15 C14 1_555 1_555
H32 C15 1_555 1_555
C16 C14 1_555 1_555
C17 C16 1_555 1_555
H33 C17A 1_555 1_555
H34 C17A 1_555 1_555
C18 N6 1_555 1_555
H35 C18A 1_555 1_555
H36 C18A 1_555 1_555
C19 H37 1_555 1_555
H38 C19 1_555 1_555
C20 N8 1_555 1_555
H39 C20 1_555 1_555
H40 C20 1_555 1_555
C21 N8 1_555 1_555
H41 C21 1_555 1_555
H42 C21 1_555 1_555
C22 C21 1_555 1_555
H43 C22 1_555 1_555
H44 C22 1_555 1_555
C23 N9 1_555 1_555
H45 C23 1_555 1_555
H46 C23 1_555 1_555
C24 N9 1_555 1_555
H47 C24 1_555 1_555
H48 C24 1_555 1_555
C25 N10 1_555 1_555
H49 C25 1_555 1_555
H50 C25 1_555 1_555
C26 N10 1_555 1_555
H51 C26 1_555 1_555
H52 C26 1_555 1_555
Ni3 N12 1_555 1_555
N11 C30 1_555 1_555
N12 H53 1_555 1_555
N13 Ni3 1_555 1_555
H54 N13 1_555 1_555
N14 Ni3 1_555 1_555
H55 N14 1_555 1_555
N15 Ni3 1_555 1_555
H56 N15 1_555 1_555
C27 C1 1_555 1_555
H57 C27 1_555 1_555
C28 C2 1_555 1_555
H58 C28 1_555 1_555
C29 C27 1_555 1_555
C30 C29 1_555 1_555
H59 C30 1_555 1_555
H60 C30 1_555 1_555
C31 N11 1_555 1_555
H61 C31 1_555 1_555
H62 C31 1_555 1_555
C32 N12 1_555 1_555
H63 C32 1_555 1_555
H64 C32 1_555 1_555
C33 N13 1_555 1_555
H65 C33 1_555 1_555
H66 C33 1_555 1_555
C34 N13 1_555 1_555
H67 C34 1_555 1_555
H68 C34 1_555 1_555
C35 C34 1_555 1_555
H69 C35 1_555 1_555
H70 C35 1_555 1_555
C36 N14 1_555 1_555
H71 C36 1_555 1_555
H72 C36 1_555 1_555
C37 N14 1_555 1_555
H73 C37 1_555 1_555
H74 C37 1_555 1_555
C38 N15 1_555 1_555
H75 C38 1_555 1_555
H76 C38 1_555 1_555
C39 N11 1_555 1_555
H77 C39 1_555 1_555
H78 C39 1_555 1_555
O1 C40 1_555 1_555
O2 C40 1_555 1_555
O3 Ni1 1_555 1_555
O4 C41 1_555 1_555
O5 C42 1_555 1_555
O6 C42 1_555 1_555
O7 Ni1 1_555 1_555
O8 C49 1_555 1_555
O9 Ni2 1_555 1_555
O10 C50 1_555 1_555
O11 C51 1_555 1_555
O12 C51 1_555 1_555
C40 C43 1_555 1_555
C41 O3 1_555 1_555
C42 C47 1_555 1_555
C43 C44 1_555 1_555
C44 H79 1_555 1_555
C45 C41 1_555 1_555
C46 C45 1_555 1_555
H80 C46 1_555 1_555
C47 C46 1_555 1_555
C48 H81 1_555 1_555
C49 O7 1_555 1_555
C50 O9 1_555 1_555
C51 C56 1_555 1_555
C52 C49 1_555 1_555
C53 C52 1_555 1_555
H82 C53 1_555 1_555
C54 C50 1_555 1_555
C55 C54 1_555 1_555
H83 C55 1_555 1_555
C56 C55 1_555 1_555
C57 C52 1_555 1_555
H84 C57 1_555 1_555
C58 H85 1_555 1_555
C59 C58 1_555 1_555
H86 C59 1_555 1_555
C60 C59 1_555 1_555
H87 C60 1_555 1_555
C61 C60 1_555 1_555
H88 C61 1_555 1_555
C62 C61 1_555 1_555
H89 C62 1_555 1_555
C63 C58 1_555 1_555
H90 C63 1_555 1_555
C64 H91 1_555 1_555
C65 C64 1_555 1_555
H92 C65 1_555 1_555
C66 C65 1_555 1_555
H93 C66 1_555 1_555
C67 C66 1_555 1_555
H94 C67 1_555 1_555
C68 C67 1_555 1_555
H95 C68 1_555 1_555
C69 C64 1_555 1_555
H96 C69 1_555 1_555
C70 H97 1_555 1_555
C71 C70 1_555 1_555
H98 C71 1_555 1_555
C72 C71 1_555 1_555
H99 C72 1_555 1_555
C73 C72 1_555 1_555
H100 C73 1_555 1_555
C74 C73 1_555 1_555
H101 C74 1_555 1_555
C75 C70 1_555 1_555
H102 C75 1_555 1_555
C76 H103 1_555 1_555
C77 C76 1_555 1_555
H104 C77 1_555 1_555
C78 C77 1_555 1_555
H105 C78 1_555 1_555
C79 C78 1_555 1_555
H106 C79 1_555 1_555
C80 C79 1_555 1_555
H107 C80 1_555 1_555
C81 C76 1_555 1_555
H108 C81 1_555 1_555
C82 H109 1_555 1_555
C83 C82 1_555 1_555
H110 C83 1_555 1_555
C84 C83 1_555 1_555
H111 C84 1_555 1_555
C85 C84 1_555 1_555
H112 C85 1_555 1_555
C86 C85 1_555 1_555
H113 C86 1_555 1_555
C87 C82 1_555 1_555
H114 C87 1_555 1_555
C88 H115 1_555 1_555
C89 C88 1_555 1_555
H116 C89 1_555 1_555
C90 C89 1_555 1_555
H117 C90 1_555 1_555
C91 C90 1_555 1_555
H118 C91 1_555 1_555
C92 C91 1_555 1_555
H119 C92 1_555 1_555
C93 C88 1_555 1_555
H120 C93 1_555 1_555
C94 H121 1_555 1_555
C95 C94 1_555 1_555
H122 C95 1_555 1_555
C96 C95 1_555 1_555
H123 C96 1_555 1_555
C97 C96 1_555 1_555
H124 C97 1_555 1_555
C98 C97 1_555 1_555
H125 C98 1_555 1_555
C99 C94 1_555 1_555
H126 C99 1_555 1_555
O3A Ni1A 1_555 1_555
Ni1A N2A 1_555 1_555
N2A H1A 1_555 1_555
C5A N2A 1_555 1_555
N1A C5A 1_555 1_555
C4A N1A 1_555 1_555
C3A C4A 1_555 1_555
C1A C3A 1_555 1_555
H5A C1A 1_555 1_555
C27A C1A 1_555 1_555
H57A C27A 1_555 1_555
C29A C27A 1_555 1_555
C28A C29A 1_555 1_555
C2A C3A 1_555 1_555
H6A C2A 1_555 1_555
H58A C28A 1_555 1_555
C30A C29A 1_555 1_555
N11A C30A 1_555 1_555
C31A N11A 1_555 1_555
N12A C31A 1_555 1_555
Ni3A O1 1_555 1_555
N13A Ni3A 1_555 1_555
H54A N13A 1_555 1_555
C33A N13A 1_555 1_555
C32A N12A 1_555 1_555
H53A N12A 1_555 1_555
H63A C32A 1_555 1_555
H64A C32A 1_555 1_555
H65A C33A 1_555 1_555
H66A C33A 1_555 1_555
C34A N13A 1_555 1_555
H67A C34A 1_555 1_555
H68A C34A 1_555 1_555
C35A C34A 1_555 1_555
H69A C35A 1_555 1_555
H70A C35A 1_555 1_555
C36A C35A 1_555 1_555
N14A Ni3A 1_555 1_555
N15A Ni3A 1_555 1_555
H56A N15A 1_555 1_555
C38A N15A 1_555 1_555
C37A N14A 1_555 1_555
H55A N14A 1_555 1_555
H73A C37A 1_555 1_555
H74A C37A 1_555 1_555
H75A C38A 1_555 1_555
H76A C38A 1_555 1_555
C39A N11A 1_555 1_555
H77A C39A 1_555 1_555
H78A C39A 1_555 1_555
O1A Ni3 1_555 1_555
Ni2_2 O5 1_555 1_555
C16A C15 1_555 1_555
C14A C16A 1_555 1_555
H31A C14A 1_555 1_555
C15A C16 1_555 1_555
H32A C15A 1_555 1_555
C17A C16A 1_555 1_555
N6A C26 1_555 1_555
C18A N6A 1_555 1_555
N7A C19 1_555 1_555
Ni2A N8 1_555 1_555
H27A N7A 1_555 1_555
O5A Ni2A 1_555 1_555
O9A Ni2A 1_555 1_555
H33A C17 1_555 1_555
H34A C17 1_555 1_555
C26A N6 1_555 1_555
N10A Ni2 1_555 1_555
N8A Ni2 1_555 1_555
H28A N8A 1_555 1_555
C20A N8A 1_555 1_555
C19A N7 1_555 1_555
H37A C19A 1_555 1_555
H38A C19A 1_555 1_555
H39A C20A 1_555 1_555
H40A C20A 1_555 1_555
C21A N8A 1_555 1_555
H41A C21A 1_555 1_555
H42A C21A 1_555 1_555
C22A C21A 1_555 1_555
H43A C22A 1_555 1_555
H44A C22A 1_555 1_555
C23A C22A 1_555 1_555
N9A Ni2 1_555 1_555
O5_2 Ni2 1_555 1_555
C42_2 O5_2 1_555 1_555
O6_2 C42_2 1_555 1_555
C47_2 C48 1_555 1_555
C46_2 C47_2 1_555 1_555
C45_2 C46_2 1_555 1_555
C41_2 C45_2 1_555 1_555
C44_2 C45_2 1_555 1_555
H80_2 C46_2 1_555 1_555
C43_2 C48 1_555 1_555
C40_2 C43_2 1_555 1_555
H29A N9A 1_555 1_555
C24A N9A 1_555 1_555
H47A C24A 1_555 1_555
H48A C24A 1_555 1_555
C25A N10A 1_555 1_555
H30A N10A 1_555 1_555
H49A C25A 1_555 1_555
H50A C25A 1_555 1_555
H45A C23A 1_555 1_555
H46A C23A 1_555 1_555
H51A C26A 1_555 1_555
H52A C26A 1_555 1_555
H35A C18 1_555 1_555
H36A C18 1_555 1_555
O11A Ni3 1_555 1_555
Ni3A_2 O11 1_555 1_555
C48_2 C43 1_555 1_555
O11_2 Ni3A 1_555 1_555
H71A C36A 1_555 1_555
H72A C36A 1_555 1_555
H61A C31A 1_555 1_555
H62A C31A 1_555 1_555
H59A C30A 1_555 1_555
H60A C30A 1_555 1_555
H7A C4A 1_555 1_555
H8A C4A 1_555 1_555
C13A N1A 1_555 1_555
H9A C5A 1_555 1_555
H10A C5A 1_555 1_555
C6A N2A 1_555 1_555
N3A Ni1A 1_555 1_555
N4A Ni1A 1_555 1_555
N5A Ni1A 1_555 1_555
O7A Ni1A 1_555 1_555
H4A N5A 1_555 1_555
C12A N5A 1_555 1_555
H25A C13A 1_555 1_555
H26A C13A 1_555 1_555
O3_2 C41_2 1_555 1_555
O4_2 C41_2 1_555 1_555
H79_2 C44_2 1_555 1_555
O1_2 C40_2 1_555 1_555
O2_2 C40_2 1_555 1_555
H81_2 C48_2 1_555 1_555
C51_2 O11_2 1_555 1_555
H11A C6A 1_555 1_555
H12A C6A 1_555 1_555
C7A C6A 1_555 1_555
H2A N3A 1_555 1_555
C8A N3A 1_555 1_555
H3A N4A 1_555 1_555
C10A N4A 1_555 1_555
C11A N4A 1_555 1_555
H23A C12A 1_555 1_555
H24A C12A 1_555 1_555
Ni1_2 O3_2 1_555 1_555
Ni3A_3 O1_2 1_555 1_555
O12_2 C51_2 1_555 1_555
C56_2 C51_2 1_555 1_555
H13A C7A 1_555 1_555
H14A C7A 1_555 1_555
H15A C8A 1_555 1_555
H16A C8A 1_555 1_555
C9A C8A 1_555 1_555
H19A C10A 1_555 1_555
H20A C10A 1_555 1_555
H21A C11A 1_555 1_555
H22A C11A 1_555 1_555
C55_2 C56_2 1_555 1_555
C57_2 C56_2 1_555 1_555
H17A C9A 1_555 1_555
H18A C9A 1_555 1_555
C54_2 C55_2 1_555 1_555
H83_2 C55_2 1_555 1_555
C52_2 C57_2 1_555 1_555
H84_2 C57_2 1_555 1_555
C50_2 C54_2 1_555 1_555
C53_2 C54_2 1_555 1_555
C49_2 C52_2 1_555 1_555
O9_2 C50_2 1_555 1_555
O10_2 C50_2 1_555 1_555
H82_2 C53_2 1_555 1_555
O7_2 C49_2 1_555 1_555
O8_2 C49_2 1_555 1_555
Ni2_3 O9_2 1_555 1_555
Ni1_3 O7_2 1_555 1_555
N2 C5 1_555 1_555
N5 C13 1_555 1_555
C2 C3 1_555 1_555
C6 C7 1_555 1_555
C9 C10 1_555 1_555
C11 C12 1_555 1_555
N7 C18 1_555 1_555
N9 Ni2A 1_555 1_555
N10 Ni2A 1_555 1_555
C19 C20 1_555 1_555
C22 C23 1_555 1_555
C24 C25 1_555 1_555
N12 C31 1_555 1_555
N15 C39 1_555 1_555
C28 C29 1_555 1_555
C32 C33 1_555 1_555
C35 C36 1_555 1_555
C37 C38 1_555 1_555
C44 C45 1_555 1_555
C47 C48_2 1_555 1_555
C53 C54 1_555 1_555
C56 C57 1_555 1_555
C62 C63 1_555 1_555
C68 C69 1_555 1_555
C74 C75 1_555 1_555
C80 C81 1_555 1_555
C86 C87 1_555 1_555
C92 C93 1_555 1_555
C98 C99 1_555 1_555
C28A C2A 1_555 1_555
N12A Ni3A 1_555 1_555
C33A C32A 1_555 1_555
C36A N14A 1_555 1_555
N15A C39A 1_555 1_555
C38A C37A 1_555 1_555
C14A C15A 1_555 1_555
C17A N6A 1_555 1_555
C18A N7A 1_555 1_555
N7A Ni2A 1_555 1_555
C26A N10A 1_555 1_555
C20A C19A 1_555 1_555
C23A N9A 1_555 1_555
C42_2 C47_2 1_555 1_555
C44_2 C43_2 1_555 1_555
C24A C25A 1_555 1_555
C13A N5A 1_555 1_555
N3A C7A 1_555 1_555
C12A C11A 1_555 1_555
C10A C9A 1_555 1_555
C52_2 C53_2 1_555 1_555

#END
