
#######################################################################
#
#                 Cambridge Crystallographic Data Centre
#                                CCDC 
#
#######################################################################
#
# If this CIF has been generated from an entry in the Cambridge 
# Structural Database, then it will include bibliographic, chemical, 
# crystal, experimental, refinement or atomic coordinate data resulting 
# from the CCDC's data processing and validation procedures.
#
#######################################################################

data_XUGTAU
_symmetry_cell_setting           triclinic
_symmetry_space_group_name_H-M   'P 1'
_symmetry_Int_Tables_number      1
_space_group_name_Hall           'P 1'
loop_
_symmetry_equiv_pos_site_id
_symmetry_equiv_pos_as_xyz
1 x,y,z
_cell_length_a                   12.382(2)
_cell_length_b                   16.375(3)
_cell_length_c                   19.952(4)
_cell_angle_alpha                74.505(7)
_cell_angle_beta                 89.255(9)
_cell_angle_gamma                84.184(5)
_cell_volume                     3877.85
loop_
_atom_site_label
_atom_site_type_symbol
_atom_site_fract_x
_atom_site_fract_y
_atom_site_fract_z
Ni1 Ni 0.7999(7) -0.5930(3) 0.1491(3)
N1 N 0.634(4) -0.4203(18) 0.0639(16)
N2 N 0.821(3) -0.4787(12) 0.0765(11)
H1 H 0.8233 -0.4907 0.0345
N3 N 0.967(2) -0.605(2) 0.166(2)
H2 H 0.9756 -0.5893 0.2057
N4 N 0.769(5) -0.7046(18) 0.2231(18)
H3 H 0.7754 -0.6939 0.2653
N5 N 0.6341(19) -0.575(2) 0.1277(17)
H4 H 0.6255 -0.6014 0.0935
C1 C 0.600(4) -0.426(2) -0.002(2)
H5 H 0.5287 -0.4464 0.0020
H6 H 0.6501 -0.4672 -0.0170
C2 C 0.739(5) -0.414(3) 0.071(3)
H7 H 0.7461 -0.3928 0.1112
H8 H 0.7571 -0.3686 0.0309
C3 C 0.938(3) -0.4649(18) 0.0924(16)
H9 H 0.9358 -0.4390 0.1308
H10 H 0.9634 -0.4237 0.0522
C4 C 1.025(4) -0.543(3) 0.111(2)
H11 H 1.0426 -0.5645 0.0706
H12 H 1.0914 -0.5290 0.1290
C5 C 1.016(4) -0.705(2) 0.1831(18)
H13 H 1.0184 -0.7222 0.1401
H14 H 1.0901 -0.7100 0.2001
C6 C 0.951(4) -0.768(2) 0.2378(19)
H15 H 0.9565 -0.7532 0.2813
H16 H 0.9900 -0.8243 0.2446
C7 C 0.826(4) -0.780(2) 0.2283(19)
H17 H 0.8153 -0.7983 0.1867
H18 H 0.8017 -0.8224 0.2680
C8 C 0.666(5) -0.711(3) 0.214(2)
H19 H 0.6401 -0.7461 0.2576
H20 H 0.6601 -0.7419 0.1796
C9 C 0.592(4) -0.636(2) 0.1945(18)
H21 H 0.5860 -0.6081 0.2317
H22 H 0.5205 -0.6508 0.1856
C10 C 0.584(8) -0.485(4) 0.098(4)
H23 H 0.5249 -0.4889 0.0682
H24 H 0.5505 -0.4682 0.1375
Ni2 Ni 0.7474(6) -1.0903(3) 0.1489(3)
N6 N 0.520(4) -0.976(2) 0.184(2)
N7 N 0.719(3) -1.019(2) 0.2204(15)
H25 H 0.6981 -1.0574 0.2590
N8 N 0.9073(16) -1.091(3) 0.174(2)
H26 H 0.9293 -1.0448 0.1427
N9 N 0.759(3) -1.1601(18) 0.0753(13)
H27 H 0.7648 -1.1203 0.0341
N10 N 0.5879(17) -1.0828(18) 0.1206(15)
H28 H 0.5647 -1.1241 0.1565
C11 C 0.416(3) -0.9202(16) 0.1886(15)
H29 H 0.4025 -0.9194 0.2365
H30 H 0.3545 -0.9420 0.1717
C12 C 0.609(3) -0.9507(16) 0.1982(15)
H31 H 0.5952 -0.9237 0.2356
H32 H 0.6271 -0.9066 0.1576
C13 C 0.831(4) -0.993(3) 0.245(3)
H33 H 0.8521 -0.9423 0.2125
H34 H 0.8234 -0.9833 0.2907
C14 C 0.915(4) -1.071(2) 0.247(2)
H35 H 0.8987 -1.1195 0.2842
H36 H 0.9874 -1.0572 0.2546
C15 C 0.977(6) -1.164(4) 0.160(3)
H37 H 1.0516 -1.1531 0.1640
H38 H 0.9655 -1.2140 0.1974
C16 C 0.971(3) -1.191(2) 0.0956(18)
H39 H 1.0230 -1.2396 0.0982
H40 H 0.9898 -1.1448 0.0568
C17 C 0.855(3) -1.214(2) 0.0815(18)
H41 H 0.8605 -1.2319 0.0389
H42 H 0.8432 -1.2645 0.1184
C18 C 0.665(4) -1.196(2) 0.0673(18)
H43 H 0.6559 -1.2469 0.1046
H44 H 0.6608 -1.2087 0.0225
C19 C 0.592(4) -1.122(2) 0.072(2)
H45 H 0.6025 -1.0786 0.0295
H46 H 0.5198 -1.1383 0.0691
C20 C 0.496(4) -1.005(3) 0.121(2)
H47 H 0.4997 -0.9582 0.0795
H48 H 0.4237 -1.0236 0.1237
Ni3 Ni 0.7492(7) -0.5838(4) -0.3510(3)
N11 N 0.679(4) -0.404(3) -0.2988(18)
N12 N 0.836(3) -0.5055(19) -0.3102(15)
H49 H 0.8569 -0.4701 -0.3507
N13 N 0.9026(18) -0.649(2) -0.3382(17)
H50 H 0.8979 -0.6893 -0.2970
N14 N 0.666(3) -0.668(2) -0.3873(17)
H51 H 0.6456 -0.7022 -0.3460
N15 N 0.601(2) -0.508(2) -0.369(2)
H52 H 0.6065 -0.4684 -0.4097
C21 C 0.631(4) -0.321(2) -0.317(2)
H53 H 0.6890 -0.2866 -0.3139
H54 H 0.5826 -0.3174 -0.2792
C22 C 0.799(4) -0.451(2) -0.2803(19)
H55 H 0.8491 -0.4075 -0.2887
H56 H 0.8021 -0.4785 -0.2308
C23 C 0.934(6) -0.540(3) -0.283(3)
H57 H 0.9286 -0.5694 -0.2347
H58 H 0.9822 -0.4952 -0.2871
C24 C 0.980(5) -0.602(3) -0.325(3)
H59 H 1.0087 -0.5700 -0.3684
H60 H 1.0395 -0.6395 -0.2985
C25 C 0.937(4) -0.700(3) -0.385(2)
H61 H 1.0006 -0.7389 -0.3667
H62 H 0.9556 -0.6634 -0.4301
C26 C 0.839(4) -0.751(3) -0.394(3)
H63 H 0.8339 -0.7880 -0.3472
H64 H 0.8705 -0.7877 -0.4211
C27 C 0.716(5) -0.734(3) -0.419(3)
H65 H 0.7116 -0.7141 -0.4698
H66 H 0.6805 -0.7860 -0.4045
C28 C 0.551(4) -0.630(2) -0.420(2)
H67 H 0.5042 -0.6750 -0.4156
H68 H 0.5575 -0.6010 -0.4685
C29 C 0.501(4) -0.564(2) -0.379(2)
H69 H 0.4743 -0.5944 -0.3337
H70 H 0.4410 -0.5273 -0.4049
C30 C 0.628(5) -0.465(3) -0.309(3)
H71 H 0.5559 -0.4516 -0.2921
H72 H 0.6595 -0.5133 -0.2727
C31 C 0.550(4) -0.084(2) -0.1885(19)
H73 H 0.6161 -0.0558 -0.1970
H74 H 0.5352 -0.1006 -0.2303
Ni4 Ni 0.2541(6) 0.0953(4) -0.1532(3)
N16 N 0.466(3) -0.0193(18) -0.1852(15)
N17 N 0.4143(16) 0.0983(15) -0.1374(14)
H75 H 0.4462 0.1329 -0.1741
N18 N 0.203(4) 0.162(2) -0.0809(17)
H76 H 0.1863 0.1224 -0.0413
N19 N 0.098(3) 0.0940(17) -0.1769(14)
H77 H 0.0717 0.0505 -0.1444
N20 N 0.293(3) 0.0272(17) -0.2244(13)
H78 H 0.3183 0.0625 -0.2634
C32 C 0.466(3) 0.0077(15) -0.1196(15)
H79 H 0.5391 0.0041 -0.1021
H80 H 0.4239 -0.0285 -0.0844
C33 C 0.429(4) 0.123(3) -0.067(2)
H81 H 0.4335 0.0740 -0.0262
H82 H 0.4910 0.1552 -0.0669
C34 C 0.318(4) 0.179(3) -0.074(3)
H83 H 0.3166 0.2019 -0.0334
H84 H 0.3271 0.2272 -0.1133
C35 C 0.113(4) 0.233(3) -0.094(2)
H85 H 0.0988 0.2561 -0.0547
H86 H 0.1239 0.2783 -0.1357
C36 C 0.032(5) 0.181(3) -0.1041(16)
H87 H -0.0384 0.2045 -0.0918
H88 H 0.0472 0.1243 -0.0727
C37 C 0.024(3) 0.1723(18) -0.1799(14)
H89 H -0.0494 0.1658 -0.1920
H90 H 0.0492 0.2214 -0.2131
C38 C 0.101(5) 0.072(3) -0.242(2)
C39 C 0.185(3) 0.008(2) -0.2389(18)
H91 H 0.1871 -0.0068 -0.2829
H92 H 0.1684 -0.0421 -0.2032
C40 C 0.365(4) -0.045(2) -0.2039(19)
H93 H 0.3759 -0.0722 -0.2417
H94 H 0.3366 -0.0858 -0.1644
Ni5 Ni 0.1968(7) -0.3996(4) -0.1503(3)
N21 N 0.346(4) -0.571(2) -0.0702(18)
N22 N 0.361(3) -0.4212(15) -0.1319(14)
H95 H 0.3731 -0.4058 -0.0924
N23 N 0.226(3) -0.2882(15) -0.2230(13)
H96 H 0.2303 -0.3014 -0.2645
N24 N 0.036(3) -0.376(2) -0.1735(18)
H97 H 0.0218 -0.3904 -0.2133
N25 N 0.151(4) -0.5008(16) -0.0816(16)
H98 H 0.1465 -0.4895 -0.0394
C41 C 0.380(4) -0.572(2) 0.0097(17)
H99 H 0.4493 -0.5495 0.0097
H100 H 0.3258 -0.5372 0.0279
C42 C 0.418(3) -0.5101(15) -0.1221(14)
H101 H 0.4904 -0.5139 -0.1030
H102 H 0.4232 -0.5248 -0.1661
C43 C 0.415(5) -0.365(3) -0.187(2)
H103 H 0.4237 -0.3884 -0.2266
H104 H 0.4862 -0.3576 -0.1709
C44 C 0.339(3) -0.2777(19) -0.2056(17)
H105 H 0.3384 -0.2530 -0.1665
H106 H 0.3696 -0.2385 -0.2449
C45 C 0.122(4) -0.217(2) -0.230(2)
H107 H 0.1178 -0.2012 -0.1870
H108 H 0.1392 -0.1676 -0.2660
C46 C 0.007(4) -0.233(2) -0.247(2)
H109 H -0.0428 -0.1808 -0.2570
H110 H 0.0042 -0.2601 -0.2841
C47 C -0.012(6) -0.290(3) -0.179(3)
H111 H 0.0197 -0.2693 -0.1427
H112 H -0.0892 -0.2901 -0.1707
C48 C -0.006(4) -0.444(2) -0.108(2)
H113 H 0.0088 -0.4271 -0.0667
H114 H -0.0843 -0.4425 -0.1126
C49 C 0.039(5) -0.529(3) -0.099(3)
H115 H 0.0397 -0.5476 -0.1413
H116 H 0.0091 -0.5692 -0.0608
C50 C 0.238(3) -0.5865(18) -0.0746(16)
H117 H 0.2217 -0.6302 -0.0334
H118 H 0.2296 -0.6084 -0.1146
C51 C 0.427(4) -0.184(3) -0.577(2)
H119 H 0.4875 -0.1689 -0.6080
H120 H 0.3759 -0.1335 -0.5825
Ni6 Ni 0.2668(7) -0.4047(4) -0.6534(3)
N26 N 0.374(4) -0.252(3) -0.594(2)
N27 N 0.424(2) -0.376(2) -0.6402(17)
H121 H 0.4323 -0.3400 -0.6829
N28 N 0.348(3) -0.510(2) -0.676(3)
H122 H 0.3432 -0.5519 -0.6360
N29 N 0.107(2) -0.422(3) -0.668(2)
H123 H 0.0986 -0.4666 -0.6298
N30 N 0.196(4) -0.3003(18) -0.624(2)
H124 H 0.1888 -0.2561 -0.6629
C52 C 0.425(6) -0.309(4) -0.593(3)
H125 H 0.4212 -0.3438 -0.5456
H126 H 0.4976 -0.2913 -0.5982
C53 C 0.489(5) -0.445(3) -0.648(3)
H127 H 0.5077 -0.4788 -0.6005
H128 H 0.5558 -0.4227 -0.6671
C54 C 0.466(3) -0.509(2) -0.6867(17)
H129 H 0.4835 -0.4890 -0.7356
H130 H 0.5055 -0.5640 -0.6667
C55 C 0.284(4) -0.542(2) -0.7341(18)
H131 H 0.3340 -0.5465 -0.7711
H132 H 0.2642 -0.5990 -0.7124
C56 C 0.179(8) -0.485(9) -0.768(8)
H133 H 0.2025 -0.4309 -0.7932
H134 H 0.1529 -0.5111 -0.8018
C57 C 0.086(5) -0.466(3) -0.727(2)
H135 H 0.0548 -0.5191 -0.7063
H136 H 0.0317 -0.4295 -0.7592
C58 C 0.037(8) -0.359(4) -0.650(4)
H137 H -0.0258 -0.3828 -0.6265
H138 H 0.0116 -0.3155 -0.6924
C59 C 0.098(5) -0.318(3) -0.604(3)
H139 H 0.0552 -0.2663 -0.6010
H140 H 0.1025 -0.3569 -0.5574
C60 C 0.243(4) -0.271(2) -0.5737(18)
H141 H 0.2419 -0.3127 -0.5290
H142 H 0.2025 -0.2186 -0.5699
C61 C 0.597(4) -0.337(3) -0.056(2)
C62 C 0.651(4) -0.293(3) -0.116(2)
H143 H 0.6977 -0.3318 -0.1322
C63 C 0.655(4) -0.220(2) -0.153(2)
H144 H 0.7022 -0.2041 -0.1898
C64 C 0.580(4) -0.168(2) -0.132(2)
C65 C 0.499(5) -0.193(3) -0.088(2)
H145 H 0.4360 -0.1575 -0.0891
C66 C 0.513(4) -0.284(3) -0.037(2)
H146 H 0.4703 -0.3010 0.0020
C67 C 0.570(5) -0.275(2) -0.381(2)
C68 C 0.452(5) -0.268(3) -0.382(3)
H147 H 0.4057 -0.2783 -0.3445
C69 C 0.428(7) -0.246(4) -0.445(3)
H148 H 0.3557 -0.2548 -0.4477
C70 C 0.461(7) -0.213(3) -0.513(3)
C71 C 0.559(5) -0.225(2) -0.501(2)
H149 H 0.6023 -0.2109 -0.5405
C72 C 0.616(5) -0.257(3) -0.439(3)
H150 H 0.6916 -0.2646 -0.4395
C73 C 0.388(4) -0.664(2) 0.0558(18)
C74 C 0.476(4) -0.723(2) 0.0488(19)
H151 H 0.5297 -0.7039 0.0167
C75 C 0.486(4) -0.796(2) 0.082(2)
H152 H 0.5353 -0.8331 0.0664
C76 C 0.429(4) -0.830(2) 0.1434(18)
C77 C 0.342(6) -0.767(4) 0.147(3)
H153 H 0.2945 -0.7827 0.1836
C78 C 0.318(4) -0.682(2) 0.0994(17)
H154 H 0.2569 -0.6451 0.1023
O1 O 0.807(3) -0.6685(16) 0.0733(14)
O2 O 0.803(3) -0.5728(17) -0.0319(14)
O3 O 0.753(3) -0.9660(15) 0.0722(12)
O4 O 0.749(3) -0.9943(17) -0.0323(14)
O5 O 0.742(3) -0.644(2) -0.2416(18)
O6 O 0.631(4) -0.752(2) -0.2362(19)
C79 C 0.802(2) -0.6478(16) 0.0081(14)
C80 C 0.748(3) -0.954(2) 0.002(2)
C81 C 0.718(4) -0.704(4) -0.216(3)
C82 C 0.7788(15) -0.701(2) -0.034(2)
C83 C 0.7760(18) -0.791(2) 0.0036(19)
H155 H 0.7889 -0.8080 0.0514
C84 C 0.757(2) -0.846(3) -0.027(2)
C85 C 0.739(2) -0.830(3) -0.090(3)
H156 H 0.7241 -0.8703 -0.1131
C86 C 0.743(2) -0.726(2) -0.1277(17)
C87 C 0.7617(19) -0.676(2) -0.0981(19)
H157 H 0.7635 -0.6186 -0.1217
O7 O 0.797(3) -0.5169(15) 0.2211(14)
O8 O 0.845(3) -0.6102(19) 0.3208(16)
O9 O 0.756(2) -0.2078(15) 0.2259(12)
O10 O 0.689(2) -0.1809(13) 0.3219(11)
O11 O 0.785(2) -0.5285(14) 0.5472(11)
O12 O 0.847(3) -0.4054(15) 0.5368(12)
C88 C 0.796(3) -0.539(2) 0.287(2)
C89 C 0.707(3) -0.228(2) 0.285(2)
C90 C 0.812(3) -0.459(2) 0.5123(18)
C91 C 0.7846(18) -0.472(2) 0.3305(17)
C92 C 0.7502(17) -0.379(2) 0.2852(18)
H158 H 0.7380 -0.3649 0.2374
C93 C 0.7400(17) -0.3196(19) 0.3235(15)
C94 C 0.7597(17) -0.344(2) 0.3958(19)
H159 H 0.7519 -0.3022 0.4192
C95 C 0.7933(19) -0.436(2) 0.439(2)
C96 C 0.804(2) -0.497(2) 0.4028(18)
H160 H 0.8244 -0.5541 0.4256
O13 O 0.274(2) 0.2195(15) -0.2250(12)
O14 O 0.319(4) 0.189(2) -0.324(2)
O15 O 0.227(2) 0.5273(12) -0.2259(11)
O16 O 0.219(3) 0.6231(15) -0.3261(12)
O17 O 0.266(2) 0.5311(14) -0.5438(12)
O18 O 0.252(4) 0.399(2) -0.5406(17)
C97 C 0.268(3) 0.247(2) -0.2913(19)
C98 C 0.217(3) 0.542(2) -0.292(2)
C99 C 0.262(3) 0.455(2) -0.5140(16)
C100 C 0.2578(18) 0.337(3) -0.329(2)
C101 C 0.2424(17) 0.401(2) -0.2992(18)
H161 H 0.2386 0.3835 -0.2509
C102 C 0.2325(18) 0.477(2) -0.3238(16)
C103 C 0.2395(17) 0.492(2) -0.3954(16)
H162 H 0.2330 0.5487 -0.4211
C104 C 0.2546(17) 0.4345(19) -0.4311(14)
C105 C 0.2631(18) 0.359(2) -0.3965(18)
H163 H 0.2737 0.3160 -0.4196
O19 O 0.234(3) -0.0213(17) -0.0799(15)
O20 O 0.220(3) 0.0089(17) 0.0201(14)
O21 O 0.194(3) -0.3308(16) -0.0776(15)
O22 O 0.186(2) -0.4242(15) 0.0240(12)
O23 O 0.284(2) -0.3485(14) 0.2412(11)
O24 O 0.276(3) -0.2145(18) 0.2394(15)
C106 C 0.232(2) -0.0511(19) -0.0167(16)
C107 C 0.210(3) -0.356(4) 0.004(3)
C108 C 0.296(3) -0.271(2) 0.2074(14)
C109 C 0.2388(16) -0.135(2) 0.0235(17)
C110 C 0.2198(19) -0.200(2) -0.0105(18)
H164 H 0.2036 -0.1826 -0.0579
C111 C 0.224(2) -0.278(2) 0.0205(17)
C112 C 0.2480(19) -0.306(2) 0.0910(18)
H165 H 0.2515 -0.3638 0.1147
C113 C 0.2683(17) -0.240(2) 0.1277(14)
C114 C 0.2636(17) -0.163(2) 0.0957(17)
H166 H 0.2764 -0.1231 0.1197
O9_2 O 0.756(2) -1.2078(15) 0.2259(12)
O11_2 O 0.785(2) -0.5285(14) -0.4528(11)
O15_2 O 0.227(2) -0.4727(12) -0.2259(11)
O17_2 O 0.266(2) -0.4689(14) -0.5438(12)
O23_2 O 0.284(2) -0.3485(14) -0.7588(11)
Ni2_2 Ni 0.7474(6) -0.0903(3) 0.1489(3)
Ni3_2 Ni 0.7492(7) -0.5838(4) 0.6490(3)
Ni5_2 Ni 0.1968(7) 0.6004(4) -0.1503(3)
Ni6_2 Ni 0.2668(7) 0.5953(4) -0.6534(3)
Ni6_3 Ni 0.2668(7) -0.4047(4) 0.3466(3)
O25 O 0.086(4) 0.035(2) 0.1237(18)
O26 O 0.906(4) -0.730(2) 0.4155(19)
O27 O 0.195(3) 0.133(2) -0.4182(17)
O28 O 0.150(5) 0.266(3) -0.535(2)
loop_
_geom_bond_atom_site_label_1
_geom_bond_atom_site_label_2
_geom_bond_site_symmetry_1
_geom_bond_site_symmetry_2
Ni1 N2 1_555 1_555
N1 C1 1_555 1_555
N2 H1 1_555 1_555
N3 Ni1 1_555 1_555
H2 N3 1_555 1_555
N4 Ni1 1_555 1_555
H3 N4 1_555 1_555
N5 Ni1 1_555 1_555
H4 N5 1_555 1_555
C1 H5 1_555 1_555
H6 C1 1_555 1_555
C2 N1 1_555 1_555
H7 C2 1_555 1_555
H8 C2 1_555 1_555
C3 N2 1_555 1_555
H9 C3 1_555 1_555
H10 C3 1_555 1_555
C4 N3 1_555 1_555
H11 C4 1_555 1_555
H12 C4 1_555 1_555
C5 N3 1_555 1_555
H13 C5 1_555 1_555
H14 C5 1_555 1_555
C6 C5 1_555 1_555
H15 C6 1_555 1_555
H16 C6 1_555 1_555
C7 N4 1_555 1_555
H17 C7 1_555 1_555
H18 C7 1_555 1_555
C8 N4 1_555 1_555
H19 C8 1_555 1_555
H20 C8 1_555 1_555
C9 N5 1_555 1_555
H21 C9 1_555 1_555
H22 C9 1_555 1_555
C10 N1 1_555 1_555
H23 C10 1_555 1_555
H24 C10 1_555 1_555
Ni2 N7 1_555 1_555
N6 C11 1_555 1_555
N7 H25 1_555 1_555
N8 Ni2 1_555 1_555
H26 N8 1_555 1_555
N9 Ni2 1_555 1_555
H27 N9 1_555 1_555
N10 Ni2 1_555 1_555
H28 N10 1_555 1_555
C11 H29 1_555 1_555
H30 C11 1_555 1_555
C12 N6 1_555 1_555
H31 C12 1_555 1_555
H32 C12 1_555 1_555
C13 N7 1_555 1_555
H33 C13 1_555 1_555
H34 C13 1_555 1_555
C14 N8 1_555 1_555
H35 C14 1_555 1_555
H36 C14 1_555 1_555
C15 N8 1_555 1_555
H37 C15 1_555 1_555
H38 C15 1_555 1_555
C16 C15 1_555 1_555
H39 C16 1_555 1_555
H40 C16 1_555 1_555
C17 N9 1_555 1_555
H41 C17 1_555 1_555
H42 C17 1_555 1_555
C18 N9 1_555 1_555
H43 C18 1_555 1_555
H44 C18 1_555 1_555
C19 N10 1_555 1_555
H45 C19 1_555 1_555
H46 C19 1_555 1_555
C20 N6 1_555 1_555
H47 C20 1_555 1_555
H48 C20 1_555 1_555
Ni3 N12 1_555 1_555
N11 C21 1_555 1_555
N12 H49 1_555 1_555
N13 Ni3 1_555 1_555
H50 N13 1_555 1_555
N14 Ni3 1_555 1_555
H51 N14 1_555 1_555
N15 Ni3 1_555 1_555
H52 N15 1_555 1_555
C21 H53 1_555 1_555
H54 C21 1_555 1_555
C22 N11 1_555 1_555
H55 C22 1_555 1_555
H56 C22 1_555 1_555
C23 N12 1_555 1_555
H57 C23 1_555 1_555
H58 C23 1_555 1_555
C24 N13 1_555 1_555
H59 C24 1_555 1_555
H60 C24 1_555 1_555
C25 N13 1_555 1_555
H61 C25 1_555 1_555
H62 C25 1_555 1_555
C26 C25 1_555 1_555
H63 C26 1_555 1_555
H64 C26 1_555 1_555
C27 N14 1_555 1_555
H65 C27 1_555 1_555
H66 C27 1_555 1_555
C28 N14 1_555 1_555
H67 C28 1_555 1_555
H68 C28 1_555 1_555
C29 N15 1_555 1_555
H69 C29 1_555 1_555
H70 C29 1_555 1_555
C30 N11 1_555 1_555
H71 C30 1_555 1_555
H72 C30 1_555 1_555
C31 H73 1_555 1_555
H74 C31 1_555 1_555
Ni4 N17 1_555 1_555
N16 C31 1_555 1_555
N17 H75 1_555 1_555
N18 Ni4 1_555 1_555
H76 N18 1_555 1_555
N19 Ni4 1_555 1_555
H77 N19 1_555 1_555
N20 Ni4 1_555 1_555
H78 N20 1_555 1_555
C32 N16 1_555 1_555
H79 C32 1_555 1_555
H80 C32 1_555 1_555
C33 N17 1_555 1_555
H81 C33 1_555 1_555
H82 C33 1_555 1_555
C34 N18 1_555 1_555
H83 C34 1_555 1_555
H84 C34 1_555 1_555
C35 N18 1_555 1_555
H85 C35 1_555 1_555
H86 C35 1_555 1_555
C36 C35 1_555 1_555
H87 C36 1_555 1_555
H88 C36 1_555 1_555
C37 N19 1_555 1_555
H89 C37 1_555 1_555
H90 C37 1_555 1_555
C38 N19 1_555 1_555
C39 N20 1_555 1_555
H91 C39 1_555 1_555
H92 C39 1_555 1_555
C40 N16 1_555 1_555
H93 C40 1_555 1_555
H94 C40 1_555 1_555
Ni5 N22 1_555 1_555
N21 C41 1_555 1_555
N22 H95 1_555 1_555
N23 Ni5 1_555 1_555
H96 N23 1_555 1_555
N24 Ni5 1_555 1_555
H97 N24 1_555 1_555
N25 Ni5 1_555 1_555
H98 N25 1_555 1_555
C41 H99 1_555 1_555
H100 C41 1_555 1_555
C42 N21 1_555 1_555
H101 C42 1_555 1_555
H102 C42 1_555 1_555
C43 N22 1_555 1_555
H103 C43 1_555 1_555
H104 C43 1_555 1_555
C44 N23 1_555 1_555
H105 C44 1_555 1_555
H106 C44 1_555 1_555
C45 N23 1_555 1_555
H107 C45 1_555 1_555
H108 C45 1_555 1_555
C46 C45 1_555 1_555
H109 C46 1_555 1_555
H110 C46 1_555 1_555
C47 N24 1_555 1_555
H111 C47 1_555 1_555
H112 C47 1_555 1_555
C48 N24 1_555 1_555
H113 C48 1_555 1_555
H114 C48 1_555 1_555
C49 N25 1_555 1_555
H115 C49 1_555 1_555
H116 C49 1_555 1_555
C50 N21 1_555 1_555
H117 C50 1_555 1_555
H118 C50 1_555 1_555
C51 H119 1_555 1_555
H120 C51 1_555 1_555
Ni6 N27 1_555 1_555
N26 C51 1_555 1_555
N27 H121 1_555 1_555
N28 Ni6 1_555 1_555
H122 N28 1_555 1_555
N29 Ni6 1_555 1_555
H123 N29 1_555 1_555
N30 Ni6 1_555 1_555
H124 N30 1_555 1_555
C52 N26 1_555 1_555
H125 C52 1_555 1_555
H126 C52 1_555 1_555
C53 N27 1_555 1_555
H127 C53 1_555 1_555
H128 C53 1_555 1_555
C54 N28 1_555 1_555
H129 C54 1_555 1_555
H130 C54 1_555 1_555
C55 N28 1_555 1_555
H131 C55 1_555 1_555
H132 C55 1_555 1_555
C56 C55 1_555 1_555
H133 C56 1_555 1_555
H134 C56 1_555 1_555
C57 N29 1_555 1_555
H135 C57 1_555 1_555
H136 C57 1_555 1_555
C58 N29 1_555 1_555
H137 C58 1_555 1_555
H138 C58 1_555 1_555
C59 N30 1_555 1_555
H139 C59 1_555 1_555
H140 C59 1_555 1_555
C60 N26 1_555 1_555
H141 C60 1_555 1_555
H142 C60 1_555 1_555
C61 C1 1_555 1_555
C62 C61 1_555 1_555
H143 C62 1_555 1_555
C63 C62 1_555 1_555
H144 C63 1_555 1_555
C64 C31 1_555 1_555
C65 C64 1_555 1_555
H145 C65 1_555 1_555
C66 C61 1_555 1_555
H146 C66 1_555 1_555
C67 C21 1_555 1_555
C68 C67 1_555 1_555
H147 C68 1_555 1_555
C69 C68 1_555 1_555
H148 C69 1_555 1_555
C70 C51 1_555 1_555
C71 C70 1_555 1_555
H149 C71 1_555 1_555
C72 C67 1_555 1_555
H150 C72 1_555 1_555
C73 C41 1_555 1_555
C74 C73 1_555 1_555
H151 C74 1_555 1_555
C75 C74 1_555 1_555
H152 C75 1_555 1_555
C76 C11 1_555 1_555
C77 C76 1_555 1_555
H153 C77 1_555 1_555
C78 C73 1_555 1_555
H154 C78 1_555 1_555
O1 Ni1 1_555 1_555
O2 C79 1_555 1_555
O3 Ni2 1_555 1_555
O4 C80 1_555 1_555
O5 Ni3 1_555 1_555
O6 C81 1_555 1_555
C79 O1 1_555 1_555
C80 O3 1_555 1_555
C81 O5 1_555 1_555
C82 C79 1_555 1_555
C83 C82 1_555 1_555
H155 C83 1_555 1_555
C84 C80 1_555 1_555
C85 C84 1_555 1_555
H156 C85 1_555 1_555
C86 C81 1_555 1_555
C87 C82 1_555 1_555
H157 C87 1_555 1_555
O7 Ni1 1_555 1_555
O8 C88 1_555 1_555
O9 C89 1_555 1_555
O10 C89 1_555 1_555
O11 C90 1_555 1_555
O12 C90 1_555 1_555
C88 O7 1_555 1_555
C89 C93 1_555 1_555
C90 C95 1_555 1_555
C91 C88 1_555 1_555
C92 C91 1_555 1_555
H158 C92 1_555 1_555
C93 C92 1_555 1_555
C94 C93 1_555 1_555
H159 C94 1_555 1_555
C95 C94 1_555 1_555
C96 C91 1_555 1_555
H160 C96 1_555 1_555
O13 Ni4 1_555 1_555
O14 C97 1_555 1_555
O15 C98 1_555 1_555
O16 C98 1_555 1_555
O17 C99 1_555 1_555
O18 C99 1_555 1_555
C97 O13 1_555 1_555
C98 C102 1_555 1_555
C99 C104 1_555 1_555
C100 C97 1_555 1_555
C101 C100 1_555 1_555
H161 C101 1_555 1_555
C102 C101 1_555 1_555
C103 C102 1_555 1_555
H162 C103 1_555 1_555
C104 C103 1_555 1_555
C105 C100 1_555 1_555
H163 C105 1_555 1_555
O19 Ni4 1_555 1_555
O20 C106 1_555 1_555
O21 Ni5 1_555 1_555
O22 C107 1_555 1_555
O23 C108 1_555 1_555
O24 C108 1_555 1_555
C106 O19 1_555 1_555
C107 O21 1_555 1_555
C108 C113 1_555 1_555
C109 C106 1_555 1_555
C110 C109 1_555 1_555
H164 C110 1_555 1_555
C111 C107 1_555 1_555
C112 C111 1_555 1_555
H165 C112 1_555 1_555
C113 C112 1_555 1_555
C114 C109 1_555 1_555
H166 C114 1_555 1_555
O9_2 Ni2 1_555 1_555
O11_2 Ni3 1_555 1_555
O15_2 Ni5 1_555 1_555
O17_2 Ni6 1_555 1_555
O23_2 Ni6 1_555 1_555
Ni2_2 O9 1_555 1_555
Ni3_2 O11 1_555 1_555
Ni5_2 O15 1_555 1_555
Ni6_2 O17 1_555 1_555
Ni6_3 O23 1_555 1_555
N2 C2 1_555 1_555
N5 C10 1_555 1_555
C3 C4 1_555 1_555
C6 C7 1_555 1_555
C8 C9 1_555 1_555
N7 C12 1_555 1_555
N10 C20 1_555 1_555
C13 C14 1_555 1_555
C16 C17 1_555 1_555
C18 C19 1_555 1_555
N12 C22 1_555 1_555
N15 C30 1_555 1_555
C23 C24 1_555 1_555
C26 C27 1_555 1_555
C28 C29 1_555 1_555
N17 C32 1_555 1_555
N20 C40 1_555 1_555
C33 C34 1_555 1_555
C36 C37 1_555 1_555
C38 C39 1_555 1_555
N22 C42 1_555 1_555
N25 C50 1_555 1_555
C43 C44 1_555 1_555
C46 C47 1_555 1_555
C48 C49 1_555 1_555
N27 C52 1_555 1_555
N30 C60 1_555 1_555
C53 C54 1_555 1_555
C56 C57 1_555 1_555
C58 C59 1_555 1_555
C63 C64 1_555 1_555
C65 C66 1_555 1_555
C69 C70 1_555 1_555
C71 C72 1_555 1_555
C75 C76 1_555 1_555
C77 C78 1_555 1_555
C83 C84 1_555 1_555
C85 C86 1_555 1_555
C86 C87 1_555 1_555
C95 C96 1_555 1_555
C104 C105 1_555 1_555
C110 C111 1_555 1_555
C113 C114 1_555 1_555

#END
