
#######################################################################
#
#                 Cambridge Crystallographic Data Centre
#                                CCDC 
#
#######################################################################
#
# If this CIF has been generated from an entry in the Cambridge 
# Structural Database, then it will include bibliographic, chemical, 
# crystal, experimental, refinement or atomic coordinate data resulting 
# from the CCDC's data processing and validation procedures.
#
#######################################################################

data_XUGTEY
_symmetry_cell_setting           triclinic
_symmetry_space_group_name_H-M   'P -1'
_symmetry_Int_Tables_number      2
_space_group_name_Hall           '-P 1'
loop_
_symmetry_equiv_pos_site_id
_symmetry_equiv_pos_as_xyz
1 x,y,z
2 -x,-y,-z
_cell_length_a                   16.467
_cell_length_b                   20.1340(10)
_cell_length_c                   20.7200(10)
_cell_angle_alpha                72.5320(10)
_cell_angle_beta                 67.9390(10)
_cell_angle_gamma                75.042(2)
_cell_volume                     5990.41
loop_
_atom_site_label
_atom_site_type_symbol
_atom_site_fract_x
_atom_site_fract_y
_atom_site_fract_z
Ni1 Ni 0.23721(7) -0.07738(7) 0.32528(9)
N1 N 0.1958(7) -0.1087(5) 0.1934(6)
N2 N 0.2918(6) -0.0466(5) 0.2151(6)
H1 H 0.3410 -0.0789 0.2010
N3 N 0.3012(8) -0.0040(5) 0.3262(8)
H2 H 0.2589 0.0351 0.3318
N4 N 0.1811(6) -0.1071(6) 0.4341(5)
H3 H 0.1324 -0.0741 0.4472
N5 N 0.1706(5) -0.1500(4) 0.3230(5)
H4 H 0.2109 -0.1902 0.3180
C1 C 0.3613(10) -0.1360(8) 0.0300(11)
H5 H 0.4092 -0.1396 0.0450
C2 C 0.2147(10) -0.1423(8) 0.0559(9)
H6 H 0.1584 -0.1499 0.0872
C3 C 0.2775(9) -0.1482(6) 0.0838(9)
C4 C 0.2586(8) -0.1637(7) 0.1609(8)
H7 H 0.2353 -0.2077 0.1824
H8 H 0.3136 -0.1700 0.1707
C5 C 0.2282(9) -0.0457(8) 0.1758(8)
H9 H 0.1782 -0.0081 0.1862
H10 H 0.2591 -0.0345 0.1247
C6 C 0.3208(8) 0.0186(7) 0.2015(8)
H11 H 0.2702 0.0565 0.2052
H12 H 0.3621 0.0286 0.1532
C7 C 0.3639(9) 0.0155(7) 0.2523(13)
H13 H 0.3799 0.0610 0.2447
H14 H 0.4177 -0.0194 0.2458
C8 C 0.3314(14) -0.0256(8) 0.3947(15)
H15 H 0.3813 -0.0640 0.3886
H16 H 0.3528 0.0142 0.3965
C9 C 0.2633(15) -0.0479(14) 0.4651(11)
H17 H 0.2874 -0.0534 0.5029
H18 H 0.2118 -0.0109 0.4708
C10 C 0.2368(10) -0.1100(9) 0.4727(10)
H19 H 0.2062 -0.1273 0.5230
H20 H 0.2895 -0.1444 0.4586
C11 C 0.1488(7) -0.1742(7) 0.4475(7)
H21 H 0.1066 -0.1840 0.4953
H22 H 0.1982 -0.2130 0.4435
C12 C 0.1047(7) -0.1663(6) 0.3925(7)
H23 H 0.0847 -0.2099 0.3989
H24 H 0.0538 -0.1287 0.3974
C13 C 0.1369(8) -0.1293(6) 0.2609(8)
H25 H 0.1135 -0.1689 0.2611
H26 H 0.0875 -0.0908 0.2689
Ni2 Ni -0.26186(7) 0.42479(6) 0.33010(8)
N6 N -0.1249(7) 0.5122(6) 0.1896(8)
N7 N -0.1477(5) 0.4587(5) 0.3147(7)
H27 H -0.1021 0.4224 0.3049
N8 N 0.2815(6) 0.5938(5) -0.4380(6)
H28 H 0.3208 0.5563 -0.4534
N9 N 0.3794(5) 0.6068(5) -0.3477(7)
H29 H 0.4241 0.5702 -0.3582
N10 N 0.2436(6) 0.5532(5) -0.2226(5)
H30 H 0.2067 0.5904 -0.2049
C14 C -0.011(2) 0.559(2) 0.0461(16)
H31 H -0.0151 0.5895 0.0736
C15 C 0.004(2) 0.5664(13) -0.020(3)
H32 H 0.0042 0.6138 -0.0431
C16 C -0.0187(10) 0.4719(16) 0.0658(12)
C17 C -0.0430(9) 0.4661(8) 0.1447(14)
H33 H -0.0089 0.5267 -0.1517
H34 H 0.0498 0.5827 -0.1677
C18 C -0.1283(8) 0.5193(8) 0.2539(12)
H35 H 0.1731 0.4403 -0.2658
H36 H 0.0716 0.4698 -0.2483
C19 C 0.1562(9) 0.5303(8) -0.3864(11)
H37 H 0.0982 0.5296 -0.3877
H38 H 0.1937 0.4856 -0.3938
C20 C 0.1964(10) 0.5901(9) -0.4439(9)
H39 H 0.1561 0.6342 -0.4389
H40 H 0.2062 0.5825 -0.4905
C21 C 0.3204(9) 0.6578(7) -0.4838(8)
H41 H 0.3288 0.6605 -0.5333
H42 H 0.2793 0.6995 -0.4705
C22 C 0.4080(8) 0.6572(8) -0.4764(9)
H43 H 0.4458 0.6125 -0.4836
H44 H 0.4364 0.6943 -0.5140
C23 C 0.4014(7) 0.6677(6) -0.4028(10)
H45 H 0.3565 0.7081 -0.3913
H46 H 0.4578 0.6771 -0.4059
C24 C 0.3708(8) 0.6156(8) -0.2762(10)
H47 H 0.4282 0.6188 -0.2753
H48 H 0.3301 0.6585 -0.2663
C25 C 0.3351(9) 0.5505(9) -0.2195(9)
H49 H 0.3311 0.5529 -0.1723
H50 H 0.3739 0.5072 -0.2305
C26 C 0.2078(8) 0.4889(7) -0.1783(7)
H51 H 0.2511 0.4478 -0.1906
H52 H 0.1961 0.4869 -0.1283
Ni3 Ni 0.25194(7) 0.06843(6) -0.30076(8)
N11 N 0.3478(7) -0.0204(5) -0.1779(6)
N12 N 0.3661(4) -0.0051(4) -0.3030(5)
H53 H 0.3517 -0.0481 -0.2959
N13 N 0.3012(5) 0.0906(5) -0.4103(5)
H54 H 0.3267 0.1299 -0.4236
N14 N 0.1396(5) 0.1427(4) -0.2964(5)
H55 H 0.1548 0.1850 -0.3021
N15 N 0.2033(5) 0.0469(4) -0.1894(5)
H56 H 0.1792 0.0067 -0.1737
C27 C 0.3753(10) -0.1196(9) -0.0416(9)
H57 H 0.4311 -0.1112 -0.0732
C28 C 0.2275(10) -0.1259(8) -0.0156(9)
H58 H 0.1797 -0.1214 -0.0311
C29 C 0.3114(10) -0.1155(6) -0.0669(8)
C30 C 0.3239(8) -0.0951(6) -0.1441(7)
H59 H 0.3709 -0.1287 -0.1678
H60 H 0.2696 -0.0967 -0.1515
C31 C 0.4047(7) -0.0103(5) -0.2478(7)
H61 H 0.4285 0.0326 -0.2588
H62 H 0.4542 -0.0491 -0.2508
C32 C 0.4284(6) 0.0120(6) -0.3787(6)
H63 H 0.4570 0.0510 -0.3850
H64 H 0.4740 -0.0285 -0.3884
C33 C 0.3758(6) 0.0317(6) -0.4302(6)
H65 H 0.3522 -0.0088 -0.4276
H66 H 0.4141 0.0466 -0.4788
C34 C 0.2349(8) 0.1080(7) -0.4468(7)
H67 H 0.2641 0.1218 -0.4980
H68 H 0.2098 0.0662 -0.4376
C35 C 0.1612(9) 0.1663(7) -0.4236(9)
H69 H 0.1270 0.1807 -0.4562
H70 H 0.1878 0.2063 -0.4292
C36 C 0.0991(7) 0.1513(6) -0.3501(8)
H71 H 0.0765 0.1085 -0.3421
H72 H 0.0491 0.1897 -0.3449
C37 C 0.0773(7) 0.1242(7) -0.2212(8)
H73 H 0.0301 0.1637 -0.2111
H74 H 0.0507 0.0840 -0.2152
C38 C 0.1302(6) 0.1065(7) -0.1712(6)
H75 H 0.0922 0.0933 -0.1222
H76 H 0.1546 0.1473 -0.1759
C39 C 0.2728(8) 0.0353(6) -0.1577(7)
H77 H 0.2954 0.0792 -0.1710
H78 H 0.2463 0.0241 -0.1061
O1 O 0.6722(4) -0.1436(4) 0.3052(4)
O2 O 0.7581(5) -0.2483(4) 0.3266(6)
O3 O 0.3556(4) -0.1513(4) 0.3279(4)
O4 O 0.3327(5) -0.2480(4) 0.3140(6)
O5 O 0.6731(4) -0.4684(4) 0.3349(4)
O6 O 0.5311(5) -0.4710(4) 0.3625(7)
O7 O 0.1173(4) -0.0005(4) 0.3211(4)
O8 O 0.1414(6) 0.0931(5) 0.3396(8)
O9 O -0.1974(4) 0.3193(3) 0.3218(4)
O10 O -0.0590(5) 0.3160(4) 0.3178(6)
O11 O -0.1797(4) 0.0046(4) 0.3023(4)
O12 O -0.2652(4) 0.1103(4) 0.2831(5)
C40 C 0.6897(7) -0.2119(7) 0.3153(7)
C41 C 0.3795(6) -0.2132(6) 0.3212(6)
C42 C 0.5923(7) -0.4384(7) 0.3448(8)
C43 C 0.6189(5) -0.2507(5) 0.3210(5)
C44 C 0.5313(5) -0.2124(5) 0.3210(5)
H79 H 0.5169 -0.1640 0.3178
C45 C 0.4694(5) -0.2515(6) 0.3258(6)
C46 C 0.4906(6) -0.3234(6) 0.3328(6)
H80 H 0.4483 -0.3482 0.3357
C47 C 0.5726(6) -0.3593(5) 0.3354(6)
C48 C -0.3640(6) 0.6786(5) 0.3276(6)
H81 H -0.3074 0.6545 0.3269
C49 C 0.0944(7) 0.0588(7) 0.3290(7)
C50 C -0.1212(7) 0.2875(5) 0.3211(6)
C51 C -0.1992(6) 0.0697(6) 0.2976(5)
C52 C 0.0018(6) 0.1001(5) 0.3246(6)
C53 C -0.0172(6) 0.1711(5) 0.3254(6)
H82 H 0.0236 0.1928 0.3293
C54 C -0.1001(6) 0.2096(5) 0.3201(6)
C55 C -0.1584(5) 0.1759(5) 0.3111(5)
H83 H -0.2125 0.2014 0.3065
C56 C -0.1363(5) 0.1042(5) 0.3090(5)
C57 C -0.0563(5) 0.0678(5) 0.3164(6)
H84 H -0.0412 0.0201 0.3159
O3A O 0.6444(4) 0.1513(4) -0.3279(4)
Ni1A Ni 0.76279(7) 0.07738(7) -0.32528(9)
N2A N 0.7082(6) 0.0466(5) -0.2151(6)
H1A H 0.6590 0.0789 -0.2010
C5A C 0.7718(9) 0.0457(8) -0.1758(8)
N1A N 0.8042(7) 0.1087(5) -0.1934(6)
C4A C 0.7414(8) 0.1637(7) -0.1609(8)
C3A C 0.7225(9) 0.1482(6) -0.0838(9)
C1A C 0.6387(10) 0.1360(8) -0.0300(11)
H5A H 0.5908 0.1396 -0.0450
C27A C 0.6247(10) 0.1196(9) 0.0416(9)
H57A H 0.5689 0.1112 0.0732
C29A C 0.6886(10) 0.1155(6) 0.0669(8)
C28A C 0.7725(10) 0.1259(8) 0.0156(9)
C2A C 0.7853(10) 0.1423(8) -0.0559(9)
H6A H 0.8416 0.1499 -0.0872
H58A H 0.8203 0.1214 0.0311
C30A C 0.6761(8) 0.0951(6) 0.1441(7)
N11A N 0.6522(7) 0.0204(5) 0.1779(6)
C31A C 0.5953(7) 0.0103(5) 0.2478(7)
N12A N 0.6339(4) 0.0051(4) 0.3030(5)
Ni3A Ni 0.74806(7) -0.06843(6) 0.30076(8)
N13A N 0.6988(5) -0.0906(5) 0.4103(5)
H54A H 0.6733 -0.1299 0.4236
C33A C 0.6242(6) -0.0317(6) 0.4302(6)
C32A C 0.5716(6) -0.0120(6) 0.3787(6)
H53A H 0.6483 0.0481 0.2959
H63A H 0.5430 -0.0510 0.3850
H64A H 0.5260 0.0285 0.3884
H65A H 0.6478 0.0088 0.4276
H66A H 0.5859 -0.0466 0.4788
C34A C 0.7651(8) -0.1080(7) 0.4468(7)
H67A H 0.7359 -0.1218 0.4980
H68A H 0.7902 -0.0662 0.4376
C35A C 0.8388(9) -0.1663(7) 0.4236(9)
H69A H 0.8730 -0.1807 0.4562
H70A H 0.8122 -0.2063 0.4292
C36A C 0.9009(7) -0.1513(6) 0.3501(8)
N14A N 0.8604(5) -0.1427(4) 0.2964(5)
N15A N 0.7967(5) -0.0469(4) 0.1894(5)
H56A H 0.8208 -0.0067 0.1737
C38A C 0.8698(6) -0.1065(7) 0.1712(6)
C37A C 0.9227(7) -0.1242(7) 0.2212(8)
H55A H 0.8452 -0.1850 0.3021
H73A H 0.9699 -0.1637 0.2111
H74A H 0.9493 -0.0840 0.2152
H75A H 0.9078 -0.0933 0.1222
H76A H 0.8454 -0.1473 0.1759
C39A C 0.7272(8) -0.0353(6) 0.1577(7)
H77A H 0.7046 -0.0792 0.1710
H78A H 0.7537 -0.0241 0.1061
O1A O 0.3278(4) 0.1436(4) -0.3052(4)
Ni2_2 Ni 0.73814(7) -0.57521(6) 0.33010(8)
C16A C 0.0187(10) 0.5281(16) -0.0658(12)
C14A C 0.011(2) 0.441(2) -0.0461(16)
H31A H 0.0151 0.4105 -0.0736
C15A C -0.004(2) 0.4336(13) 0.020(3)
H32A H -0.0042 0.3862 0.0431
C17A C 0.0430(9) 0.5339(8) -0.1447(14)
N6A N 0.1249(7) 0.4878(6) -0.1896(8)
C18A C 0.1283(8) 0.4807(8) -0.2539(12)
N7A N 0.1477(5) 0.5413(5) -0.3147(7)
Ni2A Ni 0.26186(7) 0.57521(6) -0.33010(8)
H27A H 0.1021 0.5776 -0.3049
O5A O 0.3269(4) 0.4684(4) -0.3349(4)
O9A O 0.1974(4) 0.6807(3) -0.3218(4)
H33A H 0.0089 0.4733 0.1517
H34A H -0.0498 0.4173 0.1677
C26A C -0.2078(8) 0.5111(7) 0.1783(7)
N10A N -0.2436(6) 0.4468(5) 0.2226(5)
N8A N -0.2815(6) 0.4062(5) 0.4380(6)
H28A H -0.3208 0.4437 0.4534
C20A C -0.1964(10) 0.4099(9) 0.4439(9)
C19A C -0.1562(9) 0.4697(8) 0.3864(11)
H37A H -0.0982 0.4704 0.3877
H38A H -0.1937 0.5144 0.3938
H39A H -0.1561 0.3658 0.4389
H40A H -0.2062 0.4175 0.4905
C21A C -0.3204(9) 0.3422(7) 0.4838(8)
H41A H -0.3288 0.3395 0.5333
H42A H -0.2793 0.3005 0.4705
C22A C -0.4080(8) 0.3428(8) 0.4764(9)
H43A H -0.4458 0.3875 0.4836
H44A H -0.4364 0.3057 0.5140
C23A C -0.4014(7) 0.3323(6) 0.4028(10)
N9A N -0.3794(5) 0.3932(5) 0.3477(7)
O5_2 O -0.3269(4) 0.5316(4) 0.3349(4)
C42_2 C -0.4077(7) 0.5616(7) 0.3448(8)
O6_2 O -0.4689(5) 0.5290(4) 0.3625(7)
C47_2 C -0.4274(6) 0.6407(5) 0.3354(6)
C46_2 C -0.5094(6) 0.6766(6) 0.3328(6)
C45_2 C -0.5306(5) 0.7485(6) 0.3258(6)
C41_2 C -0.6205(6) 0.7868(6) 0.3212(6)
C44_2 C -0.4687(5) 0.7876(5) 0.3210(5)
H80_2 H -0.5517 0.6518 0.3357
C43_2 C -0.3811(5) 0.7493(5) 0.3210(5)
C40_2 C -0.3103(7) 0.7881(7) 0.3153(7)
H29A H -0.4241 0.4298 0.3582
C24A C -0.3708(8) 0.3844(8) 0.2762(10)
H47A H -0.4282 0.3812 0.2753
H48A H -0.3301 0.3415 0.2663
C25A C -0.3351(9) 0.4495(9) 0.2195(9)
H30A H -0.2067 0.4096 0.2049
H49A H -0.3311 0.4471 0.1723
H50A H -0.3739 0.4928 0.2305
H45A H -0.3565 0.2919 0.3913
H46A H -0.4578 0.3229 0.4059
H51A H -0.2511 0.5522 0.1906
H52A H -0.1961 0.5131 0.1283
H35A H -0.1731 0.5597 0.2658
H36A H -0.0716 0.5302 0.2483
O11A O 0.1797(4) -0.0046(4) -0.3023(4)
Ni3A_2 Ni -0.25194(7) -0.06843(6) 0.30076(8)
C48_2 C 0.6360(6) -0.3214(5) 0.3276(6)
O11_2 O 0.8203(4) 0.0046(4) 0.3023(4)
H71A H 0.9235 -0.1085 0.3421
H72A H 0.9509 -0.1897 0.3449
H61A H 0.5715 -0.0326 0.2588
H62A H 0.5458 0.0491 0.2508
H59A H 0.6291 0.1287 0.1678
H60A H 0.7304 0.0967 0.1515
H7A H 0.7647 0.2077 -0.1824
H8A H 0.6864 0.1700 -0.1707
C13A C 0.8631(8) 0.1293(6) -0.2609(8)
H9A H 0.8218 0.0081 -0.1862
H10A H 0.7409 0.0345 -0.1247
C6A C 0.6792(8) -0.0186(7) -0.2015(8)
N3A N 0.6988(8) 0.0040(5) -0.3262(8)
N4A N 0.8189(6) 0.1071(6) -0.4341(5)
N5A N 0.8294(5) 0.1500(4) -0.3230(5)
O7A O 0.8827(4) 0.0005(4) -0.3211(4)
H4A H 0.7891 0.1902 -0.3180
C12A C 0.8953(7) 0.1663(6) -0.3925(7)
H25A H 0.8865 0.1689 -0.2611
H26A H 0.9125 0.0908 -0.2689
O3_2 O -0.6444(4) 0.8487(4) 0.3279(4)
O4_2 O -0.6673(5) 0.7520(4) 0.3140(6)
H79_2 H -0.4831 0.8360 0.3178
O1_2 O -0.3278(4) 0.8564(4) 0.3052(4)
O2_2 O -0.2419(5) 0.7517(4) 0.3266(6)
H81_2 H 0.6926 -0.3455 0.3269
C51_2 C 0.8008(6) 0.0697(6) 0.2976(5)
H11A H 0.7298 -0.0565 -0.2052
H12A H 0.6379 -0.0286 -0.1532
C7A C 0.6361(9) -0.0155(7) -0.2523(13)
H2A H 0.7411 -0.0351 -0.3318
C8A C 0.6686(14) 0.0256(8) -0.3947(15)
H3A H 0.8676 0.0741 -0.4472
C10A C 0.7632(10) 0.1100(9) -0.4727(10)
C11A C 0.8512(7) 0.1742(7) -0.4475(7)
H23A H 0.9153 0.2099 -0.3989
H24A H 0.9462 0.1287 -0.3974
Ni1_2 Ni -0.76279(7) 0.92262(7) 0.32528(9)
Ni3A_3 Ni -0.25194(7) 0.93157(6) 0.30076(8)
O12_2 O 0.7348(4) 0.1103(4) 0.2831(5)
C56_2 C 0.8637(5) 0.1042(5) 0.3090(5)
H13A H 0.6201 -0.0610 -0.2447
H14A H 0.5823 0.0194 -0.2458
H15A H 0.6187 0.0640 -0.3886
H16A H 0.6472 -0.0142 -0.3965
C9A C 0.7367(15) 0.0479(14) -0.4651(11)
H19A H 0.7938 0.1273 -0.5230
H20A H 0.7105 0.1444 -0.4586
H21A H 0.8934 0.1840 -0.4953
H22A H 0.8018 0.2130 -0.4435
C55_2 C 0.8416(5) 0.1759(5) 0.3111(5)
C57_2 C 0.9437(5) 0.0678(5) 0.3164(6)
H17A H 0.7126 0.0534 -0.5029
H18A H 0.7882 0.0109 -0.4708
C54_2 C 0.8999(6) 0.2096(5) 0.3201(6)
H83_2 H 0.7875 0.2014 0.3065
C52_2 C 1.0018(6) 0.1001(5) 0.3246(6)
H84_2 H 0.9588 0.0201 0.3159
C50_2 C 0.8788(7) 0.2875(5) 0.3211(6)
C53_2 C 0.9828(6) 0.1711(5) 0.3254(6)
C49_2 C 1.0944(7) 0.0588(7) 0.3290(7)
O9_2 O 0.8026(4) 0.3193(3) 0.3218(4)
O10_2 O 0.9410(5) 0.3160(4) 0.3178(6)
H82_2 H 1.0236 0.1928 0.3293
O7_2 O 1.1173(4) -0.0005(4) 0.3211(4)
O8_2 O 1.1414(6) 0.0931(5) 0.3396(8)
Ni2_3 Ni 0.73814(7) 0.42479(6) 0.33010(8)
Ni1_3 Ni 1.23721(7) -0.07738(7) 0.32528(9)
N16 N 0.9504(7) -0.9426(7) 0.0945(7)
C58 C 1.0345(9) -0.9678(8) 0.0657(9)
H85 H 1.0432 -1.0072 0.0478
C59 C 1.1079(9) -0.9484(8) 0.0575(8)
H86 H 1.1637 -0.9683 0.0314
C60 C 1.0941(10) -0.8942(9) 0.0924(9)
H87 H 1.1421 -0.8797 0.0945
C61 C 1.0098(9) -0.8634(8) 0.1228(8)
H88 H 0.9990 -0.8253 0.1431
C62 C 0.9432(8) -0.8890(7) 0.1227(7)
H89 H 0.8860 -0.8675 0.1445
N17 N 0.4216(11) -0.7866(9) 0.4972(10)
C63 C 0.4131(12) -0.7752(8) 0.4331(12)
H90 H 0.3564 -0.7524 0.4329
C64 C 0.4630(14) -0.7873(10) 0.3703(11)
H91 H 0.4455 -0.7747 0.3298
C65 C 0.5480(11) -0.8228(9) 0.3739(9)
H92 H 0.5908 -0.8355 0.3331
C66 C 0.5685(11) -0.8382(10) 0.4319(10)
H93 H 0.6259 -0.8593 0.4319
C67 C 0.5059(13) -0.8234(10) 0.4920(10)
H94 H 0.5208 -0.8394 0.5338
N18 N 0.5293(13) -0.1709(11) 0.1415(9)
C68 C 0.5086(12) -0.1013(12) 0.1223(9)
H95 H 0.4501 -0.0870 0.1485
C69 C 0.5427(13) -0.0464(10) 0.0789(11)
H96 H 0.5161 0.0006 0.0769
C70 C 0.6265(14) -0.0713(12) 0.0361(11)
H97 H 0.6555 -0.0435 -0.0073
C71 C 0.6624(13) -0.1353(13) 0.0597(13)
H98 H 0.7239 -0.1467 0.0414
C72 C 0.6179(16) -0.1869(12) 0.1088(14)
H99 H 0.6479 -0.2326 0.1197
N19 N 0.946(2) -0.3003(12) 0.1833(13)
C73 C 0.8770(15) -0.2947(9) 0.1628(13)
H100 H 0.8291 -0.3072 0.2031
C74 C 0.8521(17) -0.2781(13) 0.1067(18)
H101 H 0.7971 -0.2796 0.1046
C75 C 0.928(2) -0.2572(18) 0.0493(14)
H102 H 0.9221 -0.2346 0.0047
C76 C 1.0063(19) -0.2687(16) 0.0571(15)
H103 H 1.0578 -0.2736 0.0184
C77 C 1.0111(18) -0.2733(18) 0.1233(19)
H104 H 1.0576 -0.2583 0.1273
N20 N 0.754(3) -0.6232(16) 0.0460(16)
C78 C 0.8058(18) -0.6511(15) 0.0876(16)
H106 H 0.8509 -0.6248 0.0739
C79 C 0.8121(16) -0.7034(17) 0.1407(17)
H107 H 0.8541 -0.7129 0.1636
C80 C 0.7436(15) -0.7446(11) 0.1589(11)
H108 H 0.7447 -0.7885 0.1906
C81 C 0.679(2) -0.719(2) 0.130(2)
H109 H 0.6256 -0.7363 0.1519
C82 C 0.692(3) -0.668(2) 0.067(2)
H110 H 0.6589 -0.6626 0.0379
N21 N 0.232(3) -0.552(2) 0.414(2)
C83 C 0.300(3) -0.5225(19) 0.4075(17)
H111 H 0.3095 -0.4859 0.3668
C84 C 0.3556(19) -0.5294(15) 0.4412(18)
H112 H 0.3942 -0.4992 0.4336
C85 C 0.3431(16) -0.5943(14) 0.4921(14)
H113 H 0.3900 -0.6181 0.5092
C86 C 0.273(2) -0.6236(14) 0.5171(14)
H114 H 0.2639 -0.6605 0.5575
C87 C 0.212(2) -0.597(2) 0.481(2)
H115 H 0.1558 -0.6106 0.5015
N22 N 0.117(2) -0.726(2) 0.127(3)
C88 C 0.184(4) -0.712(3) 0.067(3)
H116 H 0.1620 -0.6845 0.0304
C89 C 0.270(4) -0.725(4) 0.042(3)
H117 H 0.3063 -0.7053 -0.0038
C90 C 0.298(2) -0.774(2) 0.098(3)
H118 H 0.3551 -0.7996 0.0873
C91 C 0.245(4) -0.784(3) 0.164(3)
H119 H 0.2678 -0.8050 0.2016
C92 C 0.155(3) -0.763(3) 0.179(2)
H120 H 0.1184 -0.7737 0.2259
N23 N 0.127(2) -0.572(4) 0.274(2)
C93 C 0.171(3) -0.5962(19) 0.214(3)
H121 H 0.1718 -0.6447 0.2250
C94 C 0.211(2) -0.574(3) 0.147(3)
H122 H 0.2351 -0.6017 0.1129
C95 C 0.214(4) -0.501(3) 0.133(2)
H123 H 0.2448 -0.4775 0.0878
C96 C 0.173(4) -0.4662(19) 0.184(4)
H124 H 0.1735 -0.4181 0.1746
C97 C 0.128(3) -0.500(3) 0.252(3)
H125 H 0.0964 -0.4727 0.2852
N24 N 0.478(4) -0.344(2) 0.164(4)
C98 C 0.453(2) -0.402(4) 0.212(2)
H126 H 0.4182 -0.3919 0.2557
C99 C 0.462(3) -0.469(3) 0.216(3)
H127 H 0.4460 -0.5042 0.2579
C100 C 0.502(5) -0.479(3) 0.145(4)
H128 H 0.5019 -0.5214 0.1354
C101 C 0.541(4) -0.429(4) 0.092(3)
H129 H 0.5643 -0.4343 0.0454
C102 C 0.545(3) -0.369(3) 0.109(3)
H130 H 0.5928 -0.3455 0.0827
N25 N 0.065(3) -0.3584(17) 0.4259(16)
C103 C 0.145(3) -0.345(2) 0.378(3)
H131 H 0.1840 -0.3488 0.4020
C104 C 0.184(3) -0.329(3) 0.310(3)
H132 H 0.2439 -0.3283 0.2863
C105 C 0.115(4) -0.312(2) 0.2773(18)
H133 H 0.1224 -0.2821 0.2322
C106 C 0.042(4) -0.340(3) 0.312(3)
H134 H 0.0066 -0.3433 0.2875
C107 C 0.019(2) -0.363(2) 0.384(3)
H135 H -0.0321 -0.3831 0.4073
O13 O 0.0289(12) -0.7130(10) 0.4194(12)
O14 O 0.122(2) -0.8472(17) 0.433(2)
O15 O 0.424(2) -0.781(2) 0.196(2)
H105? H 0.7576 -0.5851 0.0129
loop_
_geom_bond_atom_site_label_1
_geom_bond_atom_site_label_2
_geom_bond_site_symmetry_1
_geom_bond_site_symmetry_2
Ni1 N2 1_555 1_555
N1 C4 1_555 1_555
N2 H1 1_555 1_555
N3 Ni1 1_555 1_555
H2 N3 1_555 1_555
N4 Ni1 1_555 1_555
H3 N4 1_555 1_555
N5 Ni1 1_555 1_555
H4 N5 1_555 1_555
C1 H5 1_555 1_555
C2 H6 1_555 1_555
C3 C1 1_555 1_555
C4 C3 1_555 1_555
H7 C4 1_555 1_555
H8 C4 1_555 1_555
C5 N1 1_555 1_555
H9 C5 1_555 1_555
H10 C5 1_555 1_555
C6 N2 1_555 1_555
H11 C6 1_555 1_555
H12 C6 1_555 1_555
C7 N3 1_555 1_555
H13 C7 1_555 1_555
H14 C7 1_555 1_555
C8 N3 1_555 1_555
H15 C8 1_555 1_555
H16 C8 1_555 1_555
C9 C8 1_555 1_555
H17 C9 1_555 1_555
H18 C9 1_555 1_555
C10 N4 1_555 1_555
H19 C10 1_555 1_555
H20 C10 1_555 1_555
C11 N4 1_555 1_555
H21 C11 1_555 1_555
H22 C11 1_555 1_555
C12 N5 1_555 1_555
H23 C12 1_555 1_555
H24 C12 1_555 1_555
C13 N1 1_555 1_555
H25 C13 1_555 1_555
H26 C13 1_555 1_555
Ni2 N7 1_555 1_555
N6 C17 1_555 1_555
N7 H27 1_555 1_555
N8 H28 1_555 1_555
N9 H29 1_555 1_555
N10 H30 1_555 1_555
C14 H31 1_555 1_555
C15 C14 1_555 1_555
H32 C15 1_555 1_555
C16 C14 1_555 1_555
C17 C16 1_555 1_555
H33 C17A 1_555 1_555
H34 C17A 1_555 1_555
C18 N6 1_555 1_555
H35 C18A 1_555 1_555
H36 C18A 1_555 1_555
C19 H37 1_555 1_555
H38 C19 1_555 1_555
C20 N8 1_555 1_555
H39 C20 1_555 1_555
H40 C20 1_555 1_555
C21 N8 1_555 1_555
H41 C21 1_555 1_555
H42 C21 1_555 1_555
C22 C21 1_555 1_555
H43 C22 1_555 1_555
H44 C22 1_555 1_555
C23 N9 1_555 1_555
H45 C23 1_555 1_555
H46 C23 1_555 1_555
C24 N9 1_555 1_555
H47 C24 1_555 1_555
H48 C24 1_555 1_555
C25 N10 1_555 1_555
H49 C25 1_555 1_555
H50 C25 1_555 1_555
C26 N10 1_555 1_555
H51 C26 1_555 1_555
H52 C26 1_555 1_555
Ni3 N12 1_555 1_555
N11 C30 1_555 1_555
N12 H53 1_555 1_555
N13 Ni3 1_555 1_555
H54 N13 1_555 1_555
N14 Ni3 1_555 1_555
H55 N14 1_555 1_555
N15 Ni3 1_555 1_555
H56 N15 1_555 1_555
C27 C1 1_555 1_555
H57 C27 1_555 1_555
C28 C2 1_555 1_555
H58 C28 1_555 1_555
C29 C27 1_555 1_555
C30 C29 1_555 1_555
H59 C30 1_555 1_555
H60 C30 1_555 1_555
C31 N11 1_555 1_555
H61 C31 1_555 1_555
H62 C31 1_555 1_555
C32 N12 1_555 1_555
H63 C32 1_555 1_555
H64 C32 1_555 1_555
C33 N13 1_555 1_555
H65 C33 1_555 1_555
H66 C33 1_555 1_555
C34 N13 1_555 1_555
H67 C34 1_555 1_555
H68 C34 1_555 1_555
C35 C34 1_555 1_555
H69 C35 1_555 1_555
H70 C35 1_555 1_555
C36 N14 1_555 1_555
H71 C36 1_555 1_555
H72 C36 1_555 1_555
C37 N14 1_555 1_555
H73 C37 1_555 1_555
H74 C37 1_555 1_555
C38 N15 1_555 1_555
H75 C38 1_555 1_555
H76 C38 1_555 1_555
C39 N11 1_555 1_555
H77 C39 1_555 1_555
H78 C39 1_555 1_555
O1 C40 1_555 1_555
O2 C40 1_555 1_555
O3 Ni1 1_555 1_555
O4 C41 1_555 1_555
O5 C42 1_555 1_555
O6 C42 1_555 1_555
O7 Ni1 1_555 1_555
O8 C49 1_555 1_555
O9 Ni2 1_555 1_555
O10 C50 1_555 1_555
O11 C51 1_555 1_555
O12 C51 1_555 1_555
C40 C43 1_555 1_555
C41 O3 1_555 1_555
C42 C47 1_555 1_555
C43 C44 1_555 1_555
C44 H79 1_555 1_555
C45 C41 1_555 1_555
C46 C45 1_555 1_555
H80 C46 1_555 1_555
C47 C46 1_555 1_555
C48 H81 1_555 1_555
C49 O7 1_555 1_555
C50 O9 1_555 1_555
C51 C56 1_555 1_555
C52 C49 1_555 1_555
C53 C52 1_555 1_555
H82 C53 1_555 1_555
C54 C50 1_555 1_555
C55 C54 1_555 1_555
H83 C55 1_555 1_555
C56 C55 1_555 1_555
C57 C52 1_555 1_555
H84 C57 1_555 1_555
N16 C58 1_555 1_555
C58 H85 1_555 1_555
C59 C58 1_555 1_555
H86 C59 1_555 1_555
C60 C59 1_555 1_555
H87 C60 1_555 1_555
C61 C60 1_555 1_555
H88 C61 1_555 1_555
C62 N16 1_555 1_555
H89 C62 1_555 1_555
N17 C63 1_555 1_555
C63 H90 1_555 1_555
C64 C63 1_555 1_555
H91 C64 1_555 1_555
C65 C64 1_555 1_555
H92 C65 1_555 1_555
C66 C65 1_555 1_555
H93 C66 1_555 1_555
C67 N17 1_555 1_555
H94 C67 1_555 1_555
N18 C68 1_555 1_555
C68 H95 1_555 1_555
C69 C68 1_555 1_555
H96 C69 1_555 1_555
C70 C69 1_555 1_555
H97 C70 1_555 1_555
C71 C70 1_555 1_555
H98 C71 1_555 1_555
C72 N18 1_555 1_555
H99 C72 1_555 1_555
N19 C73 1_555 1_555
C73 H100 1_555 1_555
C74 C73 1_555 1_555
H101 C74 1_555 1_555
C75 C74 1_555 1_555
H102 C75 1_555 1_555
C76 C75 1_555 1_555
H103 C76 1_555 1_555
C77 N19 1_555 1_555
H104 C77 1_555 1_555
N20 C78 1_555 1_555
C78 H106 1_555 1_555
C79 C78 1_555 1_555
H107 C79 1_555 1_555
C80 C79 1_555 1_555
H108 C80 1_555 1_555
C81 C80 1_555 1_555
H109 C81 1_555 1_555
C82 N20 1_555 1_555
H110 C82 1_555 1_555
N21 C83 1_555 1_555
C83 H111 1_555 1_555
C84 C83 1_555 1_555
H112 C84 1_555 1_555
C85 C84 1_555 1_555
H113 C85 1_555 1_555
C86 C85 1_555 1_555
H114 C86 1_555 1_555
C87 N21 1_555 1_555
H115 C87 1_555 1_555
N22 C88 1_555 1_555
C88 H116 1_555 1_555
C89 C88 1_555 1_555
H117 C89 1_555 1_555
C90 C89 1_555 1_555
H118 C90 1_555 1_555
C91 C90 1_555 1_555
H119 C91 1_555 1_555
C92 N22 1_555 1_555
H120 C92 1_555 1_555
N23 C93 1_555 1_555
C93 H121 1_555 1_555
C94 C93 1_555 1_555
H122 C94 1_555 1_555
C95 C94 1_555 1_555
H123 C95 1_555 1_555
C96 C95 1_555 1_555
H124 C96 1_555 1_555
C97 N23 1_555 1_555
H125 C97 1_555 1_555
N24 C98 1_555 1_555
C98 H126 1_555 1_555
C99 C98 1_555 1_555
H127 C99 1_555 1_555
C100 C99 1_555 1_555
H128 C100 1_555 1_555
C101 C100 1_555 1_555
H129 C101 1_555 1_555
C102 N24 1_555 1_555
H130 C102 1_555 1_555
N25 C103 1_555 1_555
C103 H131 1_555 1_555
C104 C103 1_555 1_555
H132 C104 1_555 1_555
C105 C104 1_555 1_555
H133 C105 1_555 1_555
C106 C105 1_555 1_555
H134 C106 1_555 1_555
C107 N25 1_555 1_555
H135 C107 1_555 1_555
O3A Ni1A 1_555 1_555
Ni1A N2A 1_555 1_555
N2A H1A 1_555 1_555
C5A N2A 1_555 1_555
N1A C5A 1_555 1_555
C4A N1A 1_555 1_555
C3A C4A 1_555 1_555
C1A C3A 1_555 1_555
H5A C1A 1_555 1_555
C27A C1A 1_555 1_555
H57A C27A 1_555 1_555
C29A C27A 1_555 1_555
C28A C29A 1_555 1_555
C2A C3A 1_555 1_555
H6A C2A 1_555 1_555
H58A C28A 1_555 1_555
C30A C29A 1_555 1_555
N11A C30A 1_555 1_555
C31A N11A 1_555 1_555
N12A C31A 1_555 1_555
Ni3A O1 1_555 1_555
N13A Ni3A 1_555 1_555
H54A N13A 1_555 1_555
C33A N13A 1_555 1_555
C32A N12A 1_555 1_555
H53A N12A 1_555 1_555
H63A C32A 1_555 1_555
H64A C32A 1_555 1_555
H65A C33A 1_555 1_555
H66A C33A 1_555 1_555
C34A N13A 1_555 1_555
H67A C34A 1_555 1_555
H68A C34A 1_555 1_555
C35A C34A 1_555 1_555
H69A C35A 1_555 1_555
H70A C35A 1_555 1_555
C36A C35A 1_555 1_555
N14A Ni3A 1_555 1_555
N15A Ni3A 1_555 1_555
H56A N15A 1_555 1_555
C38A N15A 1_555 1_555
C37A N14A 1_555 1_555
H55A N14A 1_555 1_555
H73A C37A 1_555 1_555
H74A C37A 1_555 1_555
H75A C38A 1_555 1_555
H76A C38A 1_555 1_555
C39A N11A 1_555 1_555
H77A C39A 1_555 1_555
H78A C39A 1_555 1_555
O1A Ni3 1_555 1_555
Ni2_2 O5 1_555 1_555
C16A C15 1_555 1_555
C14A C16A 1_555 1_555
H31A C14A 1_555 1_555
C15A C16 1_555 1_555
H32A C15A 1_555 1_555
C17A C16A 1_555 1_555
N6A C26 1_555 1_555
C18A N6A 1_555 1_555
N7A C19 1_555 1_555
Ni2A N8 1_555 1_555
H27A N7A 1_555 1_555
O5A Ni2A 1_555 1_555
O9A Ni2A 1_555 1_555
H33A C17 1_555 1_555
H34A C17 1_555 1_555
C26A N6 1_555 1_555
N10A Ni2 1_555 1_555
N8A Ni2 1_555 1_555
H28A N8A 1_555 1_555
C20A N8A 1_555 1_555
C19A N7 1_555 1_555
H37A C19A 1_555 1_555
H38A C19A 1_555 1_555
H39A C20A 1_555 1_555
H40A C20A 1_555 1_555
C21A N8A 1_555 1_555
H41A C21A 1_555 1_555
H42A C21A 1_555 1_555
C22A C21A 1_555 1_555
H43A C22A 1_555 1_555
H44A C22A 1_555 1_555
C23A C22A 1_555 1_555
N9A Ni2 1_555 1_555
O5_2 Ni2 1_555 1_555
C42_2 O5_2 1_555 1_555
O6_2 C42_2 1_555 1_555
C47_2 C48 1_555 1_555
C46_2 C47_2 1_555 1_555
C45_2 C46_2 1_555 1_555
C41_2 C45_2 1_555 1_555
C44_2 C45_2 1_555 1_555
H80_2 C46_2 1_555 1_555
C43_2 C48 1_555 1_555
C40_2 C43_2 1_555 1_555
H29A N9A 1_555 1_555
C24A N9A 1_555 1_555
H47A C24A 1_555 1_555
H48A C24A 1_555 1_555
C25A N10A 1_555 1_555
H30A N10A 1_555 1_555
H49A C25A 1_555 1_555
H50A C25A 1_555 1_555
H45A C23A 1_555 1_555
H46A C23A 1_555 1_555
H51A C26A 1_555 1_555
H52A C26A 1_555 1_555
H35A C18 1_555 1_555
H36A C18 1_555 1_555
O11A Ni3 1_555 1_555
Ni3A_2 O11 1_555 1_555
C48_2 C43 1_555 1_555
O11_2 Ni3A 1_555 1_555
H71A C36A 1_555 1_555
H72A C36A 1_555 1_555
H61A C31A 1_555 1_555
H62A C31A 1_555 1_555
H59A C30A 1_555 1_555
H60A C30A 1_555 1_555
H7A C4A 1_555 1_555
H8A C4A 1_555 1_555
C13A N1A 1_555 1_555
H9A C5A 1_555 1_555
H10A C5A 1_555 1_555
C6A N2A 1_555 1_555
N3A Ni1A 1_555 1_555
N4A Ni1A 1_555 1_555
N5A Ni1A 1_555 1_555
O7A Ni1A 1_555 1_555
H4A N5A 1_555 1_555
C12A N5A 1_555 1_555
H25A C13A 1_555 1_555
H26A C13A 1_555 1_555
O3_2 C41_2 1_555 1_555
O4_2 C41_2 1_555 1_555
H79_2 C44_2 1_555 1_555
O1_2 C40_2 1_555 1_555
O2_2 C40_2 1_555 1_555
H81_2 C48_2 1_555 1_555
C51_2 O11_2 1_555 1_555
H11A C6A 1_555 1_555
H12A C6A 1_555 1_555
C7A C6A 1_555 1_555
H2A N3A 1_555 1_555
C8A N3A 1_555 1_555
H3A N4A 1_555 1_555
C10A N4A 1_555 1_555
C11A N4A 1_555 1_555
H23A C12A 1_555 1_555
H24A C12A 1_555 1_555
Ni1_2 O3_2 1_555 1_555
Ni3A_3 O1_2 1_555 1_555
O12_2 C51_2 1_555 1_555
C56_2 C51_2 1_555 1_555
H13A C7A 1_555 1_555
H14A C7A 1_555 1_555
H15A C8A 1_555 1_555
H16A C8A 1_555 1_555
C9A C8A 1_555 1_555
H19A C10A 1_555 1_555
H20A C10A 1_555 1_555
H21A C11A 1_555 1_555
H22A C11A 1_555 1_555
C55_2 C56_2 1_555 1_555
C57_2 C56_2 1_555 1_555
H17A C9A 1_555 1_555
H18A C9A 1_555 1_555
C54_2 C55_2 1_555 1_555
H83_2 C55_2 1_555 1_555
C52_2 C57_2 1_555 1_555
H84_2 C57_2 1_555 1_555
C50_2 C54_2 1_555 1_555
C53_2 C54_2 1_555 1_555
C49_2 C52_2 1_555 1_555
O9_2 C50_2 1_555 1_555
O10_2 C50_2 1_555 1_555
H82_2 C53_2 1_555 1_555
O7_2 C49_2 1_555 1_555
O8_2 C49_2 1_555 1_555
Ni2_3 O9_2 1_555 1_555
Ni1_3 O7_2 1_555 1_555
N2 C5 1_555 1_555
N5 C13 1_555 1_555
C2 C3 1_555 1_555
C6 C7 1_555 1_555
C9 C10 1_555 1_555
C11 C12 1_555 1_555
N7 C18 1_555 1_555
N9 Ni2A 1_555 1_555
N10 Ni2A 1_555 1_555
C19 C20 1_555 1_555
C22 C23 1_555 1_555
C24 C25 1_555 1_555
N12 C31 1_555 1_555
N15 C39 1_555 1_555
C28 C29 1_555 1_555
C32 C33 1_555 1_555
C35 C36 1_555 1_555
C37 C38 1_555 1_555
C44 C45 1_555 1_555
C47 C48_2 1_555 1_555
C53 C54 1_555 1_555
C56 C57 1_555 1_555
C61 C62 1_555 1_555
C66 C67 1_555 1_555
C71 C72 1_555 1_555
C76 C77 1_555 1_555
C81 C82 1_555 1_555
C86 C87 1_555 1_555
C91 C92 1_555 1_555
C96 C97 1_555 1_555
C101 C102 1_555 1_555
C106 C107 1_555 1_555
C28A C2A 1_555 1_555
N12A Ni3A 1_555 1_555
C33A C32A 1_555 1_555
C36A N14A 1_555 1_555
N15A C39A 1_555 1_555
C38A C37A 1_555 1_555
C14A C15A 1_555 1_555
C17A N6A 1_555 1_555
C18A N7A 1_555 1_555
N7A Ni2A 1_555 1_555
C26A N10A 1_555 1_555
C20A C19A 1_555 1_555
C23A N9A 1_555 1_555
C42_2 C47_2 1_555 1_555
C44_2 C43_2 1_555 1_555
C24A C25A 1_555 1_555
C13A N5A 1_555 1_555
N3A C7A 1_555 1_555
C12A C11A 1_555 1_555
C10A C9A 1_555 1_555
C52_2 C53_2 1_555 1_555

#END
