
#######################################################################
#
#                 Cambridge Crystallographic Data Centre
#                                CCDC 
#
#######################################################################
#
# If this CIF has been generated from an entry in the Cambridge 
# Structural Database, then it will include bibliographic, chemical, 
# crystal, experimental, refinement or atomic coordinate data resulting 
# from the CCDC's data processing and validation procedures.
#
#######################################################################

data_XUGVEB
_symmetry_cell_setting           tetragonal
_symmetry_space_group_name_H-M   'I 41/a'
_symmetry_Int_Tables_number      88
_space_group_name_Hall           '-I 4ad'
loop_
_symmetry_equiv_pos_site_id
_symmetry_equiv_pos_as_xyz
1 x,y,z
2 -x,1/2-y,z
3 3/4-y,1/4+x,1/4+z
4 1/4+y,1/4-x,1/4+z
5 1/2+x,1/2+y,1/2+z
6 1/2-x,-y,1/2+z
7 1/4-y,3/4+x,3/4+z
8 3/4+y,3/4-x,3/4+z
9 -x,-y,-z
10 x,1/2+y,-z
11 1/4+y,3/4-x,3/4-z
12 3/4-y,3/4+x,3/4-z
13 1/2-x,1/2-y,1/2-z
14 1/2+x,y,1/2-z
15 3/4+y,1/4-x,1/4-z
16 1/4-y,1/4+x,1/4-z
_cell_length_a                   22.719(2)
_cell_length_b                   22.719(2)
_cell_length_c                   10.710(2)
_cell_angle_alpha                90
_cell_angle_beta                 90
_cell_angle_gamma                90
_cell_volume                     5528
loop_
_atom_site_label
_atom_site_type_symbol
_atom_site_fract_x
_atom_site_fract_y
_atom_site_fract_z
O2 O 0.3120(7) 0.0091(7) 0.1912(14)
H1 H 0.3411 0.0120 0.2540
H2 H 0.3384 0.0290 0.1354
C12 C 0.3713(6) 0.2988(6) 0.8640(15)
H11 H 0.3323 0.2874 0.8751
C13 C 0.4184(3) 0.2558(3) 0.8704(7)
C14 C 0.3728(6) 0.1992(6) 0.8756(13)
H13 H 0.3321 0.1987 0.8833
C15 C 0.4779(4) 0.2748(5) 0.8735(11)
N3 N 0.3885(5) 0.3613(5) 0.8569(12)
C12K C 0.4512(6) 0.1213(6) 0.8860(15)
C12A C 0.6287(6) 0.2012(6) 0.8640(15)
C12J C 0.5488(6) 0.3787(6) 0.8860(15)
H11K H 0.4626 0.0823 0.8749
H11A H 0.6677 0.2126 0.8751
H11J H 0.5374 0.4177 0.8749
C13K C 0.4942(3) 0.1684(3) 0.8796(7)
C13A C 0.5816(3) 0.2442(3) 0.8704(7)
C13J C 0.5058(3) 0.3316(3) 0.8796(7)
C14K C 0.5508(6) 0.1228(6) 0.8744(13)
C14A C 0.6272(6) 0.3008(6) 0.8756(13)
C14J C 0.4492(6) 0.3772(6) 0.8744(13)
H13K H 0.5513 0.0821 0.8667
H13A H 0.6679 0.3013 0.8833
H13J H 0.4487 0.4179 0.8667
C15K C 0.4752(5) 0.2279(4) 0.8765(11)
C15A C 0.5221(4) 0.2252(5) 0.8735(11)
C15J C 0.5248(5) 0.2721(4) 0.8765(11)
N3K N 0.3887(5) 0.1385(5) 0.8931(12)
N3A N 0.6115(5) 0.1387(5) 0.8569(12)
N3J N 0.6113(5) 0.3615(5) 0.8931(12)
Co1 Co 0.5000 0.5000 0.5000
O1 O 0.44382(16) 0.51098(13) 0.6454(3)
O3 O 0.4392(3) 0.5375(2) 0.8436(4)
N1 N 0.5605(2) 0.51544(15) 0.6458(4)
N2 N 0.50181(18) 0.40547(15) 0.5317(3)
C1 C 0.6196(3) 0.5165(2) 0.6471(7)
H3 H 0.6388 0.5102 0.5716
C2 C 0.6532(4) 0.5259(3) 0.7470(8)
H4 H 0.6940 0.5273 0.7409
C3 C 0.6255(6) 0.5334(4) 0.8576(10)
H5 H 0.6477 0.5379 0.9299
C4 C 0.5630(5) 0.5346(3) 0.8651(6)
H6 H 0.5435 0.5414 0.9402
C5 C 0.5326(3) 0.5252(2) 0.7547(6)
C6 C 0.4665(4) 0.5248(2) 0.7478(6)
C7 C 0.5501(2) 0.37371(19) 0.5102(4)
H7 H 0.5846 0.3936 0.4900
C8 C 0.5519(2) 0.31355(18) 0.5159(4)
H8 H 0.5869 0.2936 0.5007
C9 C 0.49999(18) 0.28201(17) 0.5451(4)
C10 C 0.4502(2) 0.31594(17) 0.5681(4)
H9 H 0.4147 0.2977 0.5876
C11 C 0.4530(2) 0.37567(19) 0.5624(4)
H10 H 0.4191 0.3969 0.5813
Co1A Co 0.5000 0.0000 0.5000
Co1A_2 Co 0.5000 1.0000 0.5000
O1H O 0.55618(16) 0.48902(13) 0.3546(3)
O1A O 0.55618(16) -0.01098(13) 0.6454(3)
O1I O 0.44382(16) 0.01098(13) 0.3546(3)
O3H O 0.5608(3) 0.4625(2) 0.1564(4)
O3A O 0.5608(3) -0.0375(2) 0.8436(4)
O3I O 0.4392(3) 0.0375(2) 0.1564(4)
N1H N 0.4395(2) 0.48456(15) 0.3542(4)
N1A N 0.4395(2) -0.01544(15) 0.6458(4)
N1I N 0.5605(2) 0.01544(15) 0.3542(4)
N2A N 0.49819(18) 0.09453(15) 0.5317(3)
N2H N 0.49819(18) 0.59453(15) 0.4683(3)
N2I N 0.50181(18) 0.90547(15) 0.4683(3)
N2I_2 N 0.50181(18) -0.09453(15) 0.4683(3)
C1H C 0.3804(3) 0.4835(2) 0.3529(7)
C1A C 0.3804(3) -0.0165(2) 0.6471(7)
C1I C 0.6196(3) 0.0165(2) 0.3529(7)
H3H H 0.3612 0.4898 0.4284
H3A H 0.3612 -0.0102 0.5716
H3I H 0.6388 0.0102 0.4284
C2H C 0.3468(4) 0.4741(3) 0.2530(8)
C2A C 0.3468(4) -0.0259(3) 0.7470(8)
C2I C 0.6532(4) 0.0259(3) 0.2530(8)
H4H H 0.3060 0.4727 0.2591
H4A H 0.3060 -0.0273 0.7409
H4I H 0.6940 0.0273 0.2591
C3H C 0.3745(6) 0.4666(4) 0.1424(10)
C3A C 0.3745(6) -0.0334(4) 0.8576(10)
C3I C 0.6255(6) 0.0334(4) 0.1424(10)
H5H H 0.3523 0.4621 0.0701
H5A H 0.3523 -0.0379 0.9299
H5I H 0.6477 0.0379 0.0701
C4H C 0.4370(5) 0.4654(3) 0.1349(6)
C4A C 0.4370(5) -0.0346(3) 0.8651(6)
C4I C 0.5630(5) 0.0346(3) 0.1349(6)
H6H H 0.4565 0.4586 0.0598
H6A H 0.4565 -0.0414 0.9402
H6I H 0.5435 0.0414 0.0598
C5H C 0.4674(3) 0.4748(2) 0.2453(6)
C5A C 0.4674(3) -0.0252(2) 0.7547(6)
C5I C 0.5326(3) 0.0252(2) 0.2453(6)
C6H C 0.5335(4) 0.4752(2) 0.2522(6)
C6A C 0.5335(4) -0.0248(2) 0.7478(6)
C6I C 0.4665(4) 0.0248(2) 0.2522(6)
C7A C 0.4499(2) 0.12629(19) 0.5102(4)
C7H C 0.4499(2) 0.62629(19) 0.4898(4)
C7I C 0.5501(2) 0.87371(19) 0.4898(4)
H7A H 0.4154 0.1064 0.4900
H7H H 0.4154 0.6064 0.5100
H7I H 0.5846 0.8936 0.5100
C8A C 0.4481(2) 0.18645(18) 0.5159(4)
C8H C 0.4481(2) 0.68645(18) 0.4841(4)
C8I C 0.5519(2) 0.81355(18) 0.4841(4)
H8A H 0.4131 0.2064 0.5007
H8H H 0.4131 0.7064 0.4993
H8I H 0.5869 0.7936 0.4993
C9A C 0.50001(18) 0.21799(17) 0.5451(4)
C9H C 0.50001(18) 0.71799(17) 0.4549(4)
C9I C 0.49999(18) 0.78201(17) 0.4549(4)
C10A C 0.5498(2) 0.18406(17) 0.5681(4)
C10H C 0.5498(2) 0.68406(17) 0.4319(4)
C10I C 0.4502(2) 0.81594(17) 0.4319(4)
H9A H 0.5853 0.2023 0.5876
H9H H 0.5853 0.7023 0.4124
H9I H 0.4147 0.7977 0.4124
C11A C 0.5470(2) 0.12433(19) 0.5624(4)
C11H C 0.5470(2) 0.62433(19) 0.4376(4)
C11I C 0.4530(2) 0.87567(19) 0.4376(4)
H10A H 0.5809 0.1031 0.5813
H10H H 0.5809 0.6031 0.4187
H10I H 0.4191 0.8969 0.4187
H12? H 0.4659 0.3405 0.8795
loop_
_geom_bond_atom_site_label_1
_geom_bond_atom_site_label_2
_geom_bond_site_symmetry_1
_geom_bond_site_symmetry_2
Co1 O1 1_555 1_555
O1 C6 1_555 1_555
O2 H1 1_555 1_555
H2 O2 1_555 1_555
O3 C6 1_555 1_555
N1 Co1 1_555 1_555
N2 Co1 1_555 1_555
C1 N1 1_555 1_555
H3 C1 1_555 1_555
C2 C1 1_555 1_555
H4 C2 1_555 1_555
C3 C2 1_555 1_555
H5 C3 1_555 1_555
C4 C3 1_555 1_555
H6 C4 1_555 1_555
C5 N1 1_555 1_555
C6 C5 1_555 1_555
C7 N2 1_555 1_555
H7 C7 1_555 1_555
C8 C7 1_555 1_555
H8 C8 1_555 1_555
C9 C8 1_555 1_555
C10 C9 1_555 1_555
H9 C10 1_555 1_555
C11 N2 1_555 1_555
H10 C11 1_555 1_555
C12 H11 1_555 1_555
C13 C12 1_555 1_555
C14 C13 1_555 1_555
H13 C14 1_555 1_555
C15 C13 1_555 1_555
N3 C12 1_555 1_555
Co1A O1A 1_555 1_555
Co1A_2 N2I 1_555 1_555
O1H Co1 1_555 1_555
O1A C6A 1_555 1_555
O1I Co1A 1_555 1_555
O3H C6H 1_555 1_555
O3A C6A 1_555 1_555
O3I C6I 1_555 1_555
N1H Co1 1_555 1_555
N1A Co1A 1_555 1_555
N1I Co1A 1_555 1_555
N2A Co1A 1_555 1_555
N2H Co1 1_555 1_555
N2I C7I 1_555 1_555
N2I_2 Co1A 1_555 1_555
C1H N1H 1_555 1_555
C1A N1A 1_555 1_555
C1I N1I 1_555 1_555
H3H C1H 1_555 1_555
H3A C1A 1_555 1_555
H3I C1I 1_555 1_555
C2H C1H 1_555 1_555
C2A C1A 1_555 1_555
C2I C1I 1_555 1_555
H4H C2H 1_555 1_555
H4A C2A 1_555 1_555
H4I C2I 1_555 1_555
C3H C2H 1_555 1_555
C3A C2A 1_555 1_555
C3I C2I 1_555 1_555
H5H C3H 1_555 1_555
H5A C3A 1_555 1_555
H5I C3I 1_555 1_555
C4H C3H 1_555 1_555
C4A C3A 1_555 1_555
C4I C3I 1_555 1_555
H6H C4H 1_555 1_555
H6A C4A 1_555 1_555
H6I C4I 1_555 1_555
C5H N1H 1_555 1_555
C5A N1A 1_555 1_555
C5I N1I 1_555 1_555
C6H O1H 1_555 1_555
C6A C5A 1_555 1_555
C6I O1I 1_555 1_555
C7A N2A 1_555 1_555
C7H N2H 1_555 1_555
C7I H7I 1_555 1_555
H7A C7A 1_555 1_555
H7H C7H 1_555 1_555
C8A C7A 1_555 1_555
C8H C7H 1_555 1_555
C8I C7I 1_555 1_555
H8A C8A 1_555 1_555
H8H C8H 1_555 1_555
H8I C8I 1_555 1_555
C9A C9 1_555 1_555
C9H C8H 1_555 1_555
C9I C8I 1_555 1_555
C10A C9A 1_555 1_555
C10H C9H 1_555 1_555
C10I C9I 1_555 1_555
H9A C10A 1_555 1_555
H9H C10H 1_555 1_555
H9I C10I 1_555 1_555
C11A N2A 1_555 1_555
C11H N2H 1_555 1_555
C11I N2I 1_555 1_555
H10A C11A 1_555 1_555
H10H C11H 1_555 1_555
H10I C11I 1_555 1_555
C12K H11K 1_555 1_555
C12A H11A 1_555 1_555
C12J H11J 1_555 1_555
C13K C12K 1_555 1_555
C13A C12A 1_555 1_555
C13J C15 1_555 1_555
C14K C13K 1_555 1_555
C14A C13A 1_555 1_555
C14J N3 1_555 1_555
H13K C14K 1_555 1_555
H13A C14A 1_555 1_555
H13J C14J 1_555 1_555
C15K C13 1_555 1_555
C15A C15 1_555 1_555
C15J C15 1_555 1_555
N3K C14 1_555 1_555
N3A C12A 1_555 1_555
N3J C12J 1_555 1_555
C4 C5 1_555 1_555
C10 C11 1_555 1_555
C15 C15K 1_555 1_555
C4H C5H 1_555 1_555
C4A C5A 1_555 1_555
C4I C5I 1_555 1_555
C5H C6H 1_555 1_555
C5I C6I 1_555 1_555
C8A C9A 1_555 1_555
C9H C9I 1_555 1_555
C10A C11A 1_555 1_555
C10H C11H 1_555 1_555
C10I C11I 1_555 1_555
C12K N3K 1_555 1_555
C12J C13J 1_555 1_555
C13K C15K 1_555 1_555
C13K C15A 1_555 1_555
C13A C15A 1_555 1_555
C13A C15J 1_555 1_555
C13J C14J 1_555 1_555
C13J C15J 1_555 1_555
C14K N3A 1_555 1_555
C14A N3J 1_555 1_555
C15K C15A 1_555 1_555
C15K C15J 1_555 1_555
C15A C15J 1_555 1_555

#END
