
#######################################################################
#
#                 Cambridge Crystallographic Data Centre
#                                CCDC 
#
#######################################################################
#
# If this CIF has been generated from an entry in the Cambridge 
# Structural Database, then it will include bibliographic, chemical, 
# crystal, experimental, refinement or atomic coordinate data resulting 
# from the CCDC's data processing and validation procedures.
#
#######################################################################

data_XUGVAY
_symmetry_cell_setting           triclinic
_symmetry_space_group_name_H-M   'P -1'
_symmetry_Int_Tables_number      2
_space_group_name_Hall           '-P 1'
loop_
_symmetry_equiv_pos_site_id
_symmetry_equiv_pos_as_xyz
1 x,y,z
2 -x,-y,-z
_cell_length_a                   11.9683(6)
_cell_length_b                   14.8773(7)
_cell_length_c                   15.6374(7)
_cell_angle_alpha                62.789(2)
_cell_angle_beta                 69.177(2)
_cell_angle_gamma                78.289(2)
_cell_volume                     2311.71
loop_
_atom_site_label
_atom_site_type_symbol
_atom_site_fract_x
_atom_site_fract_y
_atom_site_fract_z
Dy1 Dy 0.49943(2) 0.893058(14) 0.129587(15)
Dy2 Dy 0.396098(19) 0.617833(15) 0.339232(15)
O1 O 0.5021(4) 0.8456(3) 0.2881(3)
O2 O 0.4848(3) 0.6887(3) 0.4069(3)
O3 O 0.4317(3) 0.4905(2) 0.6374(3)
O4 O 0.5720(3) 0.5688(3) 0.6326(3)
O5 O 0.3296(3) 0.7926(2) 0.2316(3)
O6 O 0.2407(3) 0.7341(3) 0.3941(3)
O7 O 0.3665(3) 0.9960(3) 0.0394(3)
O8 O 0.2933(4) 1.0841(3) -0.0861(3)
O9 O 0.5160(5) 0.8319(3) 0.0168(3)
O10 O 0.5086(4) 0.9507(2) -0.1354(3)
O11 O 0.5655(3) 0.7138(2) 0.1907(3)
O12 O 0.4796(3) 0.6094(3) 0.1728(3)
O13 O 0.2213(4) 0.5918(3) 0.3233(3)
O14 O 0.3048(4) 0.5226(3) 0.5113(3)
C1 C 0.5816(5) 0.8072(4) 0.4170(4)
C2 C 0.6860(6) 0.8609(4) 0.3555(5)
H1 H 0.7162 0.8701 0.2885
C3 C 0.7449(7) 0.9002(5) 0.3907(6)
H2 H 0.8148 0.9344 0.3490
C4 C 0.6978(7) 0.8878(5) 0.4896(6)
H3 H 0.7366 0.9141 0.5147
C5 C 0.5939(6) 0.8370(4) 0.5521(5)
H4 H 0.5627 0.8309 0.6180
C6 C 0.5356(5) 0.7949(3) 0.5170(4)
C7 C 0.4133(5) 0.7574(4) 0.5800(4)
C8 C 0.3800(5) 0.6566(4) 0.6293(3)
C9 C 0.2621(6) 0.6349(5) 0.6813(5)
H5 H 0.2401 0.5682 0.7119
C10 C 0.1745(6) 0.7112(6) 0.6890(6)
H6 H 0.0952 0.6952 0.7255
C11 C 0.2064(6) 0.8099(5) 0.6423(5)
H7 H 0.1489 0.8613 0.6469
C12 C 0.3223(6) 0.8319(4) 0.5897(5)
H8 H 0.3427 0.8991 0.5585
C13 C 0.5186(4) 0.7763(4) 0.3680(4)
C14 C 0.4690(5) 0.5696(3) 0.6308(4)
C15 C 0.1983(5) 0.9071(4) 0.2959(4)
C16 C 0.2019(7) 0.9447(5) 0.3606(5)
H9 H 0.2315 0.9035 0.4145
C17 C 0.1616(9) 1.0439(6) 0.3462(7)
H10 H 0.1660 1.0696 0.3890
C18 C 0.1153(8) 1.1027(5) 0.2676(6)
H11 H 0.0891 1.1693 0.2566
C19 C 0.1071(6) 1.0639(5) 0.2043(5)
H12 H 0.0745 1.1047 0.1521
C20 C 0.1470(5) 0.9647(4) 0.2180(4)
C21 C 0.1202(5) 0.9222(4) 0.1590(4)
C22 C 0.1749(5) 0.9514(4) 0.0555(4)
C23 C 0.1344(6) 0.9222(5) 0.0007(5)
H13 H 0.1709 0.9442 -0.0685
C24 C 0.0390(6) 0.8599(5) 0.0488(6)
H14 H 0.0117 0.8389 0.0123
C25 C -0.0152(6) 0.8289(5) 0.1508(6)
H15 H -0.0797 0.7874 0.1833
C26 C 0.0254(5) 0.8591(4) 0.2050(5)
H16 H -0.0116 0.8367 0.2741
C27 C 0.2556(5) 0.8037(4) 0.3108(4)
C28 C 0.2829(5) 1.0164(4) 0.0002(4)
C29 C 0.4984(6) 0.7771(4) -0.0964(4)
C30 C 0.4151(6) 0.7939(4) -0.1461(4)
H17 H 0.3741 0.8566 -0.1662
C31 C 0.3920(7) 0.7191(5) -0.1665(5)
H18 H 0.3335 0.7300 -0.1971
C32 C 0.4586(8) 0.6269(5) -0.1399(5)
H19 H 0.4455 0.5761 -0.1537
C33 C 0.5430(6) 0.6116(4) -0.0934(4)
H20 H 0.5864 0.5499 -0.0766
C34 C 0.5668(6) 0.6852(4) -0.0702(4)
C35 C 0.6720(5) 0.6636(4) -0.0312(4)
C36 C 0.6740(5) 0.6600(4) 0.0592(4)
C37 C 0.7814(6) 0.6456(5) 0.0786(5)
H21 H 0.7831 0.6480 0.1366
C38 C 0.8880(7) 0.6276(6) 0.0118(6)
H22 H 0.9597 0.6158 0.0267
C39 C 0.8871(6) 0.6272(6) -0.0745(6)
H23 H 0.9576 0.6139 -0.1181
C40 C 0.7810(7) 0.6467(5) -0.0972(5)
H24 H 0.7815 0.6488 -0.1576
C41 C 0.5114(5) 0.8602(4) -0.0709(4)
C42 C 0.5647(5) 0.6631(3) 0.1426(4)
C43 C 0.1833(5) 0.5892(4) 0.2585(4)
C44 C 0.0563(6) 0.5796(5) 0.1834(5)
H25 H -0.0039 0.6302 0.1593
H26 H 0.0341 0.5137 0.1983
C45 C 0.1777(6) 0.6038(5) 0.1078(5)
H27 H 0.2045 0.5572 0.0761
H28 H 0.1779 0.6724 0.0561
N1 N 0.0702(5) 0.5807(4) 0.2709(4)
H29 H 0.0122 0.5765 0.3243
N2 N 0.2515(5) 0.5921(5) 0.1681(4)
H30 H 0.3284 0.5876 0.1488
Dy1A Dy 0.50057(2) 1.106942(14) -0.129587(15)
Dy2A Dy 0.603902(19) 0.382167(15) 0.660768(15)
O3A O 0.5683(3) 0.5095(2) 0.3626(3)
O4A O 0.4280(3) 0.4312(3) 0.3674(3)
O7A O 0.6335(3) 1.0040(3) -0.0394(3)
O8A O 0.7067(4) 0.9159(3) 0.0861(3)
O10A O 0.4914(4) 1.0493(2) 0.1354(3)
O15 O 0.1259(4) 0.4012(4) 0.5700(4)
C46 C 0.1084(5) 0.3696(4) 0.5152(5)
C47 C 0.0089(8) 0.3144(7) 0.4459(6)
H31 H -0.0405 0.3589 0.4038
H32 H -0.0154 0.2455 0.4757
C48 C 0.1405(7) 0.3227(5) 0.3865(5)
H33 H 0.1761 0.2581 0.3861
H34 H 0.1520 0.3729 0.3174
N3 N 0.0019(5) 0.3458(5) 0.5224(5)
H35 H -0.0635 0.3490 0.5678
N4 N 0.1913(5) 0.3530(4) 0.4391(4)
H36 H 0.2666 0.3597 0.4236
loop_
_geom_bond_atom_site_label_1
_geom_bond_atom_site_label_2
_geom_bond_site_symmetry_1
_geom_bond_site_symmetry_2
Dy1 O1 1_555 1_555
Dy2 O2 1_555 1_555
O1 C13 1_555 1_555
O2 C13 1_555 1_555
O3 C14 1_555 1_555
O4 C14 1_555 1_555
O5 Dy1 1_555 1_555
O6 Dy2 1_555 1_555
O7 Dy1 1_555 1_555
O8 C28 1_555 1_555
O9 Dy1 1_555 1_555
O10 C41 1_555 1_555
O11 Dy1 1_555 1_555
O12 Dy2 1_555 1_555
O13 Dy2 1_555 1_555
O14 Dy2 1_555 1_555
C1 C2 1_555 1_555
C2 H1 1_555 1_555
C3 C2 1_555 1_555
H2 C3 1_555 1_555
C4 C3 1_555 1_555
H3 C4 1_555 1_555
C5 C4 1_555 1_555
H4 C5 1_555 1_555
C6 C1 1_555 1_555
C7 C6 1_555 1_555
C8 C7 1_555 1_555
C9 C8 1_555 1_555
H5 C9 1_555 1_555
C10 C9 1_555 1_555
H6 C10 1_555 1_555
C11 C10 1_555 1_555
H7 C11 1_555 1_555
C12 C7 1_555 1_555
H8 C12 1_555 1_555
C13 C1 1_555 1_555
C14 C8 1_555 1_555
C15 C16 1_555 1_555
C16 H9 1_555 1_555
C17 C16 1_555 1_555
H10 C17 1_555 1_555
C18 C17 1_555 1_555
H11 C18 1_555 1_555
C19 C18 1_555 1_555
H12 C19 1_555 1_555
C20 C15 1_555 1_555
C21 C20 1_555 1_555
C22 C21 1_555 1_555
C23 C22 1_555 1_555
H13 C23 1_555 1_555
C24 C23 1_555 1_555
H14 C24 1_555 1_555
C25 C24 1_555 1_555
H15 C25 1_555 1_555
C26 C21 1_555 1_555
H16 C26 1_555 1_555
C27 O5 1_555 1_555
C28 O7 1_555 1_555
C29 C30 1_555 1_555
C30 H17 1_555 1_555
C31 C30 1_555 1_555
H18 C31 1_555 1_555
C32 C31 1_555 1_555
H19 C32 1_555 1_555
C33 C32 1_555 1_555
H20 C33 1_555 1_555
C34 C29 1_555 1_555
C35 C34 1_555 1_555
C36 C35 1_555 1_555
C37 C36 1_555 1_555
H21 C37 1_555 1_555
C38 C37 1_555 1_555
H22 C38 1_555 1_555
C39 C38 1_555 1_555
H23 C39 1_555 1_555
C40 C35 1_555 1_555
H24 C40 1_555 1_555
C41 O9 1_555 1_555
C42 O11 1_555 1_555
C43 O13 1_555 1_555
C44 H25 1_555 1_555
H26 C44 1_555 1_555
C45 C44 1_555 1_555
H27 C45 1_555 1_555
H28 C45 1_555 1_555
N1 C43 1_555 1_555
H29 N1 1_555 1_555
N2 C43 1_555 1_555
H30 N2 1_555 1_555
O15 C46 1_555 1_555
C46 N3 1_555 1_555
C47 H31 1_555 1_555
H32 C47 1_555 1_555
C48 C47 1_555 1_555
H33 C48 1_555 1_555
H34 C48 1_555 1_555
N3 C47 1_555 1_555
H35 N3 1_555 1_555
N4 C46 1_555 1_555
H36 N4 1_555 1_555
Dy1A O7 1_555 1_555
Dy2A O3 1_555 1_555
O3A Dy2 1_555 1_555
O4A Dy2 1_555 1_555
O7A Dy1 1_555 1_555
O8A Dy1 1_555 1_555
O10A Dy1 1_555 1_555
Dy2 O5 1_555 1_555
Dy2 O11 1_555 1_555
O4 Dy2A 1_555 1_555
O6 C27 1_555 1_555
O8 Dy1A 1_555 1_555
O10 Dy1A 1_555 1_555
O12 C42 1_555 1_555
C5 C6 1_555 1_555
C11 C12 1_555 1_555
C15 C27 1_555 1_555
C19 C20 1_555 1_555
C22 C28 1_555 1_555
C25 C26 1_555 1_555
C29 C41 1_555 1_555
C33 C34 1_555 1_555
C36 C42 1_555 1_555
C39 C40 1_555 1_555
C44 N1 1_555 1_555
C45 N2 1_555 1_555
C48 N4 1_555 1_555
Dy1A O7A 1_555 1_555

#END
