
#######################################################################
#
#                 Cambridge Crystallographic Data Centre
#                                CCDC 
#
#######################################################################
#
# If this CIF has been generated from an entry in the Cambridge 
# Structural Database, then it will include bibliographic, chemical, 
# crystal, experimental, refinement or atomic coordinate data resulting 
# from the CCDC's data processing and validation procedures.
#
#######################################################################

data_XUGXED
_symmetry_cell_setting           triclinic
_symmetry_space_group_name_H-M   'P -1'
_symmetry_Int_Tables_number      2
_space_group_name_Hall           '-P 1'
loop_
_symmetry_equiv_pos_site_id
_symmetry_equiv_pos_as_xyz
1 x,y,z
2 -x,-y,-z
_cell_length_a                   10.266(2)
_cell_length_b                   11.573(2)
_cell_length_c                   12.651(3)
_cell_angle_alpha                89.95(3)
_cell_angle_beta                 74.64(3)
_cell_angle_gamma                68.54(3)
_cell_volume                     1341.13
loop_
_atom_site_label
_atom_site_type_symbol
_atom_site_fract_x
_atom_site_fract_y
_atom_site_fract_z
Cd1 Cd 0.17191(2) 0.404521(19) 0.050336(18)
O1 O 0.3600(2) 0.2554(2) 0.1165(2)
O2 O 0.4156(2) 0.4121(2) 0.0530(2)
O3 O 0.9203(2) 0.4011(2) 0.0148(2)
O4 O 1.0750(2) 0.2458(2) 0.0728(2)
N1 N 0.0390(3) 0.4927(3) 0.2195(3)
N2 N -0.0835(4) 0.6117(4) 0.3747(3)
H1 H -0.1250 0.6777 0.4211
N3 N 0.2818(3) 0.3332(2) -0.1266(2)
N4 N 0.4028(3) 0.1972(3) -0.2706(3)
H2 H 0.4438 0.1266 -0.3108
C1 C 0.0082(5) 0.4196(4) 0.3030(3)
H3 H 0.0375 0.3332 0.2941
C2 C -0.0696(6) 0.4925(5) 0.3976(4)
H4 H -0.1068 0.4676 0.4651
C3 C -0.0196(4) 0.6063(4) 0.2652(4)
H5 H -0.0182 0.6754 0.2280
C4 C 0.3205(4) 0.3931(3) -0.2161(3)
H6 H 0.2979 0.4786 -0.2151
C5 C 0.3963(4) 0.3090(4) -0.3059(3)
H7 H 0.4356 0.3246 -0.3770
C6 C 0.3356(4) 0.2146(3) -0.1634(3)
H8 H 0.3276 0.1511 -0.1202
C7 C 0.4491(3) 0.3083(3) 0.0896(2)
C8 C 0.6024(3) 0.2415(3) 0.0976(2)
C9 C 0.6474(3) 0.1204(3) 0.1257(3)
H9 H 0.5813 0.0808 0.1416
C10 C 0.7885(4) 0.0572(3) 0.1304(3)
H10 H 0.8172 -0.0244 0.1487
C11 C 0.8874(3) 0.1161(3) 0.1076(3)
H11 H 0.9822 0.0741 0.1116
C12 C 0.8458(3) 0.2363(3) 0.0792(2)
C13 C 0.7028(3) 0.2997(3) 0.0742(2)
H12 H 0.6744 0.3810 0.0552
C14 C 0.9531(3) 0.2989(3) 0.0534(2)
Cd1_2 Cd 1.17191(2) 0.404521(19) 0.050336(18)
Cd1A Cd 0.82809(2) 0.595479(19) -0.050336(18)
O3_2 O -0.0797(2) 0.4011(2) 0.0148(2)
O3A O 0.0797(2) 0.5989(2) -0.0148(2)
O4_2 O 0.0750(2) 0.2458(2) 0.0728(2)
Cd2 Cd 0.16179(2) 0.03264(2) 0.375803(19)
O5 O 0.2130(2) 0.2072(2) 0.4392(2)
O6 O 0.3959(2) 0.0294(2) 0.3704(2)
O7 O 0.9407(2) 0.1628(2) 0.3762(2)
O8 O 0.8756(2) 0.0090(2) 0.44203(19)
N5 N 0.2336(3) -0.1625(3) 0.2960(2)
N6 N 0.3499(3) -0.3266(3) 0.1741(2)
H13 H 0.4037 -0.3722 0.1132
C15 C 0.2098(4) -0.2636(4) 0.3407(3)
H14 H 0.1530 -0.2625 0.4117
C16 C 0.2817(4) -0.3649(3) 0.2655(3)
H15 H 0.2838 -0.4452 0.2747
C17 C 0.3189(4) -0.2053(3) 0.1952(3)
H16 H 0.3531 -0.1569 0.1450
C18 C 0.3472(3) 0.1437(3) 0.4062(2)
C19 C 0.4544(3) 0.2038(3) 0.4055(2)
C20 C 0.4133(3) 0.3306(3) 0.3943(3)
H17 H 0.3192 0.3774 0.3911
C21 C 0.5119(4) 0.3866(3) 0.3878(3)
H18 H 0.4844 0.4716 0.3806
C22 C 0.6524(4) 0.3168(3) 0.3920(3)
H19 H 0.7190 0.3551 0.3861
C23 C 0.6944(3) 0.1910(3) 0.4049(3)
C24 C 0.5949(3) 0.1343(3) 0.4115(2)
H20 H 0.6221 0.0497 0.4200
C25 C 0.8469(3) 0.1154(3) 0.4091(3)
O9 O 0.2372(3) 0.0852(2) 0.1922(2)
H21 H 0.2722 0.1404 0.1717
H22 H 0.2638 0.0317 0.1370
Cd2_2 Cd 1.16179(2) 0.03264(2) 0.375803(19)
Cd2A Cd 0.83821(2) -0.03264(2) 0.624197(19)
O7_2 O -0.0593(2) 0.1628(2) 0.3762(2)
O8A O 0.1244(2) -0.0090(2) 0.55797(19)
loop_
_geom_bond_atom_site_label_1
_geom_bond_atom_site_label_2
_geom_bond_site_symmetry_1
_geom_bond_site_symmetry_2
Cd1 O1 1_555 1_555
O1 C7 1_555 1_555
O2 Cd1 1_555 1_555
O3 C14 1_555 1_555
O4 C14 1_555 1_555
N1 Cd1 1_555 1_555
N2 H1 1_555 1_555
N3 Cd1 1_555 1_555
N4 H2 1_555 1_555
C1 N1 1_555 1_555
H3 C1 1_555 1_555
C2 N2 1_555 1_555
H4 C2 1_555 1_555
C3 N1 1_555 1_555
H5 C3 1_555 1_555
C4 N3 1_555 1_555
H6 C4 1_555 1_555
C5 N4 1_555 1_555
H7 C5 1_555 1_555
C6 N3 1_555 1_555
H8 C6 1_555 1_555
C7 O2 1_555 1_555
C8 C7 1_555 1_555
C9 C8 1_555 1_555
H9 C9 1_555 1_555
C10 C9 1_555 1_555
H10 C10 1_555 1_555
C11 C10 1_555 1_555
H11 C11 1_555 1_555
C12 C11 1_555 1_555
C13 C8 1_555 1_555
H12 C13 1_555 1_555
C14 C12 1_555 1_555
Cd2 O5 1_555 1_555
O5 C18 1_555 1_555
O6 Cd2 1_555 1_555
O7 C25 1_555 1_555
O8 C25 1_555 1_555
N5 Cd2 1_555 1_555
N6 H13 1_555 1_555
C15 N5 1_555 1_555
H14 C15 1_555 1_555
C16 N6 1_555 1_555
H15 C16 1_555 1_555
C17 N5 1_555 1_555
H16 C17 1_555 1_555
C18 O6 1_555 1_555
C19 C18 1_555 1_555
C20 C19 1_555 1_555
H17 C20 1_555 1_555
C21 C20 1_555 1_555
H18 C21 1_555 1_555
C22 C21 1_555 1_555
H19 C22 1_555 1_555
C23 C22 1_555 1_555
C24 C19 1_555 1_555
H20 C24 1_555 1_555
C25 C23 1_555 1_555
O9 Cd2 1_555 1_555
H21 O9 1_555 1_555
H22 O9 1_555 1_555
Cd1_2 O3 1_555 1_555
Cd1A O3 1_555 1_555
O3_2 Cd1 1_555 1_555
O3A Cd1 1_555 1_555
O4_2 Cd1 1_555 1_555
Cd2_2 O7 1_555 1_555
Cd2A O8 1_555 1_555
O7_2 Cd2 1_555 1_555
O8A Cd2 1_555 1_555
O4 Cd1_2 1_555 1_555
N2 C3 1_555 1_555
N4 C6 1_555 1_555
C1 C2 1_555 1_555
C4 C5 1_555 1_555
C12 C13 1_555 1_555
N6 C17 1_555 1_555
C15 C16 1_555 1_555
C23 C24 1_555 1_555

#END
