
#######################################################################
#
#                 Cambridge Crystallographic Data Centre
#                                CCDC 
#
#######################################################################
#
# If this CIF has been generated from an entry in the Cambridge 
# Structural Database, then it will include bibliographic, chemical, 
# crystal, experimental, refinement or atomic coordinate data resulting 
# from the CCDC's data processing and validation procedures.
#
#######################################################################

data_XUGXUT
_symmetry_cell_setting           monoclinic
_symmetry_space_group_name_H-M   'P 21/c'
_symmetry_Int_Tables_number      14
_space_group_name_Hall           '-P 2ybc'
loop_
_symmetry_equiv_pos_site_id
_symmetry_equiv_pos_as_xyz
1 x,y,z
2 -x,1/2+y,1/2-z
3 -x,-y,-z
4 x,1/2-y,1/2+z
_cell_length_a                   17.7942(2)
_cell_length_b                   10.1369(2)
_cell_length_c                   19.8671(3)
_cell_angle_alpha                90
_cell_angle_beta                 104.3230(10)
_cell_angle_gamma                90
_cell_volume                     3472.2
loop_
_atom_site_label
_atom_site_type_symbol
_atom_site_fract_x
_atom_site_fract_y
_atom_site_fract_z
Cu1 Cu 0.33550(2) 0.40302(4) 0.70401(2)
Cu2 Cu 0.16419(2) 0.73480(4) 0.53690(2)
S1 S 0.43680(4) 0.33154(7) 0.57776(4)
S2 S 0.06761(4) -0.23719(7) 0.18485(4)
O1 O 0.23171(12) 0.40617(18) 0.64048(11)
O2 O 0.34220(12) 0.58778(19) 0.67510(11)
O3 O 0.15818(12) 0.5464(2) 0.56483(12)
O4 O 0.26723(12) 0.7320(2) 0.60362(12)
O5 O 0.38949(13) 0.3033(2) 0.62687(11)
O6 O 0.43904(15) 0.4704(2) 0.56224(12)
O7 O 0.51258(13) 0.2693(2) 0.59949(12)
O8 O 0.04418(19) -0.3339(3) 0.22814(15)
O9 O 0.11130(14) -0.2969(2) 0.14026(13)
O10 O 0.00527(15) -0.1546(3) 0.14609(16)
O11 O 0.21514(15) 0.6657(3) 0.44687(15)
H1 H 0.1928 0.6139 0.4139
H2 H 0.2622 0.6819 0.4470
N1 N 0.32300(14) 0.2272(2) 0.74272(12)
N2 N 0.43182(14) 0.4029(2) 0.77834(12)
N3 N 0.06352(15) 0.7460(2) 0.46742(14)
N4 N 0.16437(15) 0.9272(2) 0.52038(13)
C1 C 0.26349(18) 0.1455(3) 0.72123(17)
H7 H 0.2207 0.1744 0.6873
C2 C 0.26270(19) 0.0193(3) 0.74729(18)
H8 H 0.2199 -0.0353 0.7318
C3 C 0.3268(2) -0.0240(3) 0.79688(18)
H9 H 0.3281 -0.1091 0.8146
C4 C 0.38952(19) 0.0611(3) 0.82007(17)
H10 H 0.4330 0.0339 0.8537
C5 C 0.38575(17) 0.1864(3) 0.79214(15)
C6 C 0.44706(17) 0.2871(3) 0.81296(15)
C7 C 0.51506(18) 0.2678(3) 0.86367(17)
H11 H 0.5249 0.1876 0.8869
C8 C 0.56838(19) 0.3704(3) 0.87930(17)
H12 H 0.6144 0.3596 0.9133
C9 C 0.55260(18) 0.4881(3) 0.84412(17)
H13 H 0.5879 0.5575 0.8536
C10 C 0.48323(18) 0.5015(3) 0.79427(16)
H14 H 0.4720 0.5815 0.7711
C11 C 0.01951(18) 0.6437(3) 0.43881(17)
H15 H 0.0302 0.5608 0.4590
C12 C -0.04091(18) 0.6566(3) 0.38078(18)
H16 H -0.0715 0.5844 0.3627
C13 C -0.05519(19) 0.7798(4) 0.34976(19)
H17 H -0.0935 0.7902 0.3088
C14 C -0.01207(19) 0.8868(3) 0.38026(18)
H18 H -0.0226 0.9709 0.3615
C15 C 0.04729(17) 0.8668(3) 0.43935(16)
C16 C 0.10035(17) 0.9722(3) 0.47469(16)
C17 C 0.0874(2) 1.1066(3) 0.46317(18)
H19 H 0.0424 1.1364 0.4324
C18 C 0.1421(2) 1.1948(3) 0.49794(19)
H20 H 0.1343 1.2850 0.4910
C19 C 0.2088(2) 1.1483(3) 0.54336(17)
H21 H 0.2471 1.2063 0.5665
C20 C 0.21731(19) 1.0142(3) 0.55346(18)
H22 H 0.2617 0.9828 0.5846
C21 C 0.38587(18) 0.2507(3) 0.50039(16)
C22 C 0.40367(18) 0.1208(3) 0.48933(17)
H23 H 0.4474 0.0813 0.5177
C23 C 0.35596(19) 0.0496(3) 0.43569(16)
H24 H 0.3676 -0.0381 0.4287
C24 C 0.29063(17) 0.1082(3) 0.39203(15)
C25 C 0.23625(17) 0.0278(3) 0.33779(15)
C26 C 0.26308(18) -0.0835(3) 0.30956(15)
H25 H 0.3155 -0.1050 0.3224
C27 C 0.21109(18) -0.1628(3) 0.26190(16)
H26 H 0.2291 -0.2372 0.2434
C28 C 0.13300(17) -0.1310(3) 0.24215(15)
C29 C 0.10610(18) -0.0194(3) 0.26939(16)
H27 H 0.0537 0.0022 0.2565
C30 C 0.15813(18) 0.0598(3) 0.31601(15)
H28 H 0.1402 0.1359 0.3330
C31 C 0.27568(18) 0.2415(3) 0.40207(16)
H29 H 0.2339 0.2830 0.3722
C32 C 0.32278(18) 0.3124(3) 0.45634(16)
H30 H 0.3121 0.4005 0.4631
C33 C 0.21824(17) 0.5151(3) 0.60978(16)
C34 C 0.28152(17) 0.6214(3) 0.63130(16)
Cu2C Cu 0.16419(2) -0.23480(4) 0.03690(2)
O9C O 0.11130(14) 0.7969(2) 0.64026(13)
O12 O 0.37266(14) 0.6739(3) 0.46905(14)
H3 H 0.4032 0.6898 0.4433
H4 H 0.3854 0.6085 0.4963
O13 O -0.12579(16) -0.0007(3) 0.16156(17)
H5 H -0.0930 -0.0539 0.1509
H6 H -0.1119 0.0151 0.2057
loop_
_geom_bond_atom_site_label_1
_geom_bond_atom_site_label_2
_geom_bond_site_symmetry_1
_geom_bond_site_symmetry_2
Cu1 O1 1_555 1_555
Cu2 O3 1_555 1_555
S1 O5 1_555 1_555
S2 O8 1_555 1_555
O1 C33 1_555 1_555
O2 Cu1 1_555 1_555
O3 C33 1_555 1_555
O4 Cu2 1_555 1_555
O5 Cu1 1_555 1_555
O6 S1 1_555 1_555
O7 S1 1_555 1_555
O9 S2 1_555 1_555
O10 S2 1_555 1_555
O11 Cu2 1_555 1_555
H1 O11 1_555 1_555
H2 O11 1_555 1_555
O12 H3 1_555 1_555
H4 O12 1_555 1_555
O13 H5 1_555 1_555
H6 O13 1_555 1_555
N1 Cu1 1_555 1_555
N2 Cu1 1_555 1_555
N3 Cu2 1_555 1_555
N4 Cu2 1_555 1_555
C1 N1 1_555 1_555
H7 C1 1_555 1_555
C2 C1 1_555 1_555
H8 C2 1_555 1_555
C3 C2 1_555 1_555
H9 C3 1_555 1_555
C4 C3 1_555 1_555
H10 C4 1_555 1_555
C5 N1 1_555 1_555
C6 N2 1_555 1_555
C7 C6 1_555 1_555
H11 C7 1_555 1_555
C8 C7 1_555 1_555
H12 C8 1_555 1_555
C9 C8 1_555 1_555
H13 C9 1_555 1_555
C10 N2 1_555 1_555
H14 C10 1_555 1_555
C11 N3 1_555 1_555
H15 C11 1_555 1_555
C12 C11 1_555 1_555
H16 C12 1_555 1_555
C13 C12 1_555 1_555
H17 C13 1_555 1_555
C14 C13 1_555 1_555
H18 C14 1_555 1_555
C15 N3 1_555 1_555
C16 N4 1_555 1_555
C17 C16 1_555 1_555
H19 C17 1_555 1_555
C18 C17 1_555 1_555
H20 C18 1_555 1_555
C19 C18 1_555 1_555
H21 C19 1_555 1_555
C20 N4 1_555 1_555
H22 C20 1_555 1_555
C21 S1 1_555 1_555
C22 C21 1_555 1_555
H23 C22 1_555 1_555
C23 C22 1_555 1_555
H24 C23 1_555 1_555
C24 C23 1_555 1_555
C25 C24 1_555 1_555
C26 C25 1_555 1_555
H25 C26 1_555 1_555
C27 C26 1_555 1_555
H26 C27 1_555 1_555
C28 S2 1_555 1_555
C29 C28 1_555 1_555
H27 C29 1_555 1_555
C30 C25 1_555 1_555
H28 C30 1_555 1_555
C31 C24 1_555 1_555
H29 C31 1_555 1_555
C32 C21 1_555 1_555
H30 C32 1_555 1_555
C33 C34 1_555 1_555
C34 O2 1_555 1_555
Cu2C O9 1_555 1_555
O9C Cu2 1_555 1_555
O4 C34 1_555 1_555
C4 C5 1_555 1_555
C5 C6 1_555 1_555
C9 C10 1_555 1_555
C14 C15 1_555 1_555
C15 C16 1_555 1_555
C19 C20 1_555 1_555
C27 C28 1_555 1_555
C29 C30 1_555 1_555
C31 C32 1_555 1_555

#END
