
#######################################################################
#
#                 Cambridge Crystallographic Data Centre
#                                CCDC 
#
#######################################################################
#
# If this CIF has been generated from an entry in the Cambridge 
# Structural Database, then it will include bibliographic, chemical, 
# crystal, experimental, refinement or atomic coordinate data resulting 
# from the CCDC's data processing and validation procedures.
#
#######################################################################

data_XUHFOX
_symmetry_cell_setting           triclinic
_symmetry_space_group_name_H-M   'P -1'
_symmetry_Int_Tables_number      2
_space_group_name_Hall           '-P 1'
loop_
_symmetry_equiv_pos_site_id
_symmetry_equiv_pos_as_xyz
1 x,y,z
2 -x,-y,-z
_cell_length_a                   8.9752(5)
_cell_length_b                   9.9239(6)
_cell_length_c                   13.9273(8)
_cell_angle_alpha                90.562(5)
_cell_angle_beta                 106.518(6)
_cell_angle_gamma                116.502(6)
_cell_volume                     1050.73
loop_
_atom_site_label
_atom_site_type_symbol
_atom_site_fract_x
_atom_site_fract_y
_atom_site_fract_z
Zn1 Zn 0.73977(5) 0.08854(4) 0.92221(3)
C1 C 1.6963(6) 0.5778(6) 0.6981(3)
H1 H 1.7789 0.6763 0.7307
C2 C 1.5213(6) 0.5454(5) 0.6593(3)
H2 H 1.4886 0.6209 0.6654
C3 C 1.3972(5) 0.4004(5) 0.6117(3)
C4 C 1.4533(6) 0.2935(5) 0.6025(3)
H3 H 1.3736 0.1946 0.5692
C5 C 1.6300(6) 0.3363(6) 0.6437(4)
H4 H 1.6665 0.2632 0.6380
C6 C 1.2072(5) 0.3542(4) 0.5674(3)
C7 C 0.9435(5) 0.2549(4) 0.4736(3)
C8 C 0.7835(5) 0.1661(4) 0.3864(3)
C9 C 0.6211(5) 0.1478(5) 0.3876(3)
H5 H 0.6111 0.1893 0.4441
C10 C 0.4754(5) 0.0671(5) 0.3037(3)
H6 H 0.3681 0.0573 0.3051
C11 C 0.6340(5) 0.0196(5) 0.2206(3)
H7 H 0.6394 -0.0244 0.1632
C12 C 0.7876(5) 0.0991(5) 0.3008(3)
H8 H 0.8931 0.1073 0.2971
C13 C 1.1563(5) 0.4601(4) 0.7151(3)
H9 H 1.1063 0.5286 0.7166
H10 H 1.2828 0.5178 0.7463
C14 C 1.0399(5) 0.1366(5) 0.8293(3)
H11 H 1.0459 0.0486 0.8472
C15 C 0.9663(5) 0.3101(4) 0.8167(2)
H12 H 0.9151 0.3722 0.8214
C16 C 0.6482(5) -0.2006(4) 0.9411(3)
C17 C 0.3037(5) -0.3283(4) 0.9840(3)
C18 C 0.4123(4) -0.4118(4) 0.9950(2)
C19 C 0.5659(4) -0.3570(4) 0.9682(2)
C20 C 0.6503(4) -0.4474(4) 0.9736(2)
H13 H 0.7519 -0.4115 0.9554
N1 N 1.7519(5) 0.4766(5) 0.6914(3)
N2 N 1.1040(4) 0.2658(4) 0.4794(2)
N3 N 1.1144(4) 0.3963(3) 0.6112(2)
N4 N 0.9431(4) 0.3298(4) 0.5508(2)
N5 N 0.4785(4) 0.0029(4) 0.2214(2)
N6 N 1.0847(4) 0.3368(3) 0.7710(2)
N7 N 1.1344(5) 0.2252(4) 0.7783(2)
N8 N 0.9312(4) 0.1819(3) 0.8547(2)
O1 O 0.6024(3) -0.1072(3) 0.96794(18)
O2 O 0.7584(4) -0.1671(3) 0.8959(2)
O3 O 0.3164(3) -0.2596(3) 1.06487(17)
O4 O 0.2054(3) -0.3409(3) 0.89744(18)
O5 O 0.9252(3) 0.1578(3) 1.07445(17)
H14 H 1.0289 0.1763 1.0796
H15 H 0.9128 0.2329 1.0926
C16A C 0.3518(5) -0.7994(4) 1.0589(3)
C17A C 0.6963(5) -0.6717(4) 1.0160(3)
C18A C 0.5877(4) -0.5882(4) 1.0050(2)
C19A C 0.4341(4) -0.6430(4) 1.0318(2)
C20A C 0.3497(4) -0.5526(4) 1.0264(2)
H13A H 0.2481 -0.5885 1.0446
O1A O 0.3976(3) -0.8928(3) 1.03206(18)
O2A O 0.2416(4) -0.8329(3) 1.1041(2)
O3A O 0.6836(3) -0.7404(3) 0.93513(17)
O4A O 0.7946(3) -0.6591(3) 1.10256(18)
Zn1A Zn 0.26023(5) -1.08854(4) 1.07779(3)
C1A C -0.6963(6) -1.5778(6) 1.3019(3)
H1A H -0.7789 -1.6763 1.2693
C2A C -0.5213(6) -1.5454(5) 1.3407(3)
H2A H -0.4886 -1.6209 1.3346
C3A C -0.3972(5) -1.4004(5) 1.3883(3)
C4A C -0.4533(6) -1.2935(5) 1.3975(3)
H3A H -0.3736 -1.1946 1.4308
C5A C -0.6300(6) -1.3363(6) 1.3563(4)
H4A H -0.6665 -1.2632 1.3620
C6A C -0.2072(5) -1.3542(4) 1.4326(3)
C7A C 0.0565(5) -1.2549(4) 1.5264(3)
C8A C 0.2165(5) -1.1661(4) 1.6136(3)
C9A C 0.3789(5) -1.1478(5) 1.6124(3)
H5A H 0.3889 -1.1893 1.5559
C10A C 0.5246(5) -1.0671(5) 1.6963(3)
H6A H 0.6319 -1.0573 1.6949
C11A C 0.3660(5) -1.0196(5) 1.7794(3)
H7A H 0.3606 -0.9756 1.8368
C12A C 0.2124(5) -1.0991(5) 1.6992(3)
H8A H 0.1069 -1.1073 1.7029
C13A C -0.1563(5) -1.4601(4) 1.2849(3)
H9A H -0.1063 -1.5286 1.2834
H10A H -0.2828 -1.5178 1.2537
C14A C -0.0399(5) -1.1366(5) 1.1707(3)
H11A H -0.0459 -1.0486 1.1528
C15A C 0.0337(5) -1.3101(4) 1.1833(2)
H12A H 0.0849 -1.3722 1.1786
N1A N -0.7519(5) -1.4766(5) 1.3086(3)
N2A N -0.1040(4) -1.2658(4) 1.5206(2)
N3A N -0.1144(4) -1.3963(3) 1.3888(2)
N4A N 0.0569(4) -1.3298(4) 1.4492(2)
N5A N 0.5215(4) -1.0029(4) 1.7786(2)
N6A N -0.0847(4) -1.3368(3) 1.2290(2)
N7A N -0.1344(5) -1.2252(4) 1.2217(2)
N8A N 0.0688(4) -1.1819(3) 1.1453(2)
O5A O 0.0748(3) -1.1578(3) 0.92555(17)
H14A H -0.0289 -1.1763 0.9204
H15A H 0.0872 -1.2329 0.9074
Zn1_2 Zn 0.73977(5) -0.91146(4) 0.92221(3)
Zn1_3 Zn 0.73977(5) -0.91146(4) 1.92221(3)
Zn1A_2 Zn 0.26023(5) -0.08854(4) 0.07779(3)
Zn1A_3 Zn 0.26023(5) -0.08854(4) 1.07779(3)
N5_2 N 0.4785(4) -0.9971(4) 1.2214(2)
N5A_2 N 0.5215(4) -0.0029(4) 0.7786(2)
O3_2 O 0.3164(3) -1.2596(3) 1.06487(17)
O3A_2 O 0.6836(3) 0.2596(3) 0.93513(17)
O6 O 1.168(2) 0.0426(17) 0.3985(11)
H16 H 1.1213 0.0878 0.4192
H17 H 1.0821 -0.0479 0.3666
loop_
_geom_bond_atom_site_label_1
_geom_bond_atom_site_label_2
_geom_bond_site_symmetry_1
_geom_bond_site_symmetry_2
Zn1 N8 1_555 1_555
C1 H1 1_555 1_555
C2 C1 1_555 1_555
H2 C2 1_555 1_555
C3 C2 1_555 1_555
C4 C3 1_555 1_555
H3 C4 1_555 1_555
C5 C4 1_555 1_555
H4 C5 1_555 1_555
C6 C3 1_555 1_555
C7 C8 1_555 1_555
C8 C9 1_555 1_555
C9 H5 1_555 1_555
C10 C9 1_555 1_555
H6 C10 1_555 1_555
C11 H7 1_555 1_555
C12 C8 1_555 1_555
H8 C12 1_555 1_555
C13 H9 1_555 1_555
H10 C13 1_555 1_555
C14 H11 1_555 1_555
C15 H12 1_555 1_555
C16 C19 1_555 1_555
C17 C18 1_555 1_555
C18 C19 1_555 1_555
C19 C20 1_555 1_555
C20 H13 1_555 1_555
N1 C1 1_555 1_555
N2 C6 1_555 1_555
N3 C6 1_555 1_555
N4 C7 1_555 1_555
N5 C10 1_555 1_555
N6 C13 1_555 1_555
N7 C14 1_555 1_555
N8 C14 1_555 1_555
O1 Zn1 1_555 1_555
O2 C16 1_555 1_555
O3 C17 1_555 1_555
O4 C17 1_555 1_555
O5 Zn1 1_555 1_555
H14 O5 1_555 1_555
H15 O5 1_555 1_555
O6 H16 1_555 1_555
H17 O6 1_555 1_555
C16A C19A 1_555 1_555
C17A C18A 1_555 1_555
C18A C20 1_555 1_555
C19A C18A 1_555 1_555
C20A C18 1_555 1_555
H13A C20A 1_555 1_555
O1A C16A 1_555 1_555
O2A C16A 1_555 1_555
O3A C17A 1_555 1_555
O4A C17A 1_555 1_555
Zn1A O1A 1_555 1_555
C1A H1A 1_555 1_555
C2A C1A 1_555 1_555
H2A C2A 1_555 1_555
C3A C2A 1_555 1_555
C4A C3A 1_555 1_555
H3A C4A 1_555 1_555
C5A C4A 1_555 1_555
H4A C5A 1_555 1_555
C6A C3A 1_555 1_555
C7A C8A 1_555 1_555
C8A C9A 1_555 1_555
C9A H5A 1_555 1_555
C10A C9A 1_555 1_555
H6A C10A 1_555 1_555
C11A H7A 1_555 1_555
C12A C8A 1_555 1_555
H8A C12A 1_555 1_555
C13A H9A 1_555 1_555
H10A C13A 1_555 1_555
C14A H11A 1_555 1_555
C15A H12A 1_555 1_555
N1A C1A 1_555 1_555
N2A C6A 1_555 1_555
N3A C6A 1_555 1_555
N4A C7A 1_555 1_555
N5A C10A 1_555 1_555
N6A C13A 1_555 1_555
N7A C14A 1_555 1_555
N8A Zn1A 1_555 1_555
O5A Zn1A 1_555 1_555
H14A O5A 1_555 1_555
H15A O5A 1_555 1_555
Zn1_2 O3A 1_555 1_555
Zn1_3 N5A 1_555 1_555
Zn1A_2 N5 1_555 1_555
Zn1A_3 O3 1_555 1_555
N5_2 Zn1A 1_555 1_555
N5A_2 Zn1 1_555 1_555
O3_2 Zn1A 1_555 1_555
O3A_2 Zn1 1_555 1_555
C5 N1 1_555 1_555
C7 N2 1_555 1_555
C11 C12 1_555 1_555
C11 N5 1_555 1_555
C13 N3 1_555 1_555
C15 N6 1_555 1_555
C15 N8 1_555 1_555
C16 O1 1_555 1_555
N3 N4 1_555 1_555
N6 N7 1_555 1_555
C19A C20A 1_555 1_555
C5A N1A 1_555 1_555
C7A N2A 1_555 1_555
C11A C12A 1_555 1_555
C11A N5A 1_555 1_555
C13A N3A 1_555 1_555
C14A N8A 1_555 1_555
C15A N6A 1_555 1_555
C15A N8A 1_555 1_555
N3A N4A 1_555 1_555
N6A N7A 1_555 1_555

#END
