
#######################################################################
#
#                 Cambridge Crystallographic Data Centre
#                                CCDC 
#
#######################################################################
#
# If this CIF has been generated from an entry in the Cambridge 
# Structural Database, then it will include bibliographic, chemical, 
# crystal, experimental, refinement or atomic coordinate data resulting 
# from the CCDC's data processing and validation procedures.
#
#######################################################################

data_XUHFIR
_symmetry_cell_setting           triclinic
_symmetry_space_group_name_H-M   'P -1'
_symmetry_Int_Tables_number      2
_space_group_name_Hall           '-P 1'
loop_
_symmetry_equiv_pos_site_id
_symmetry_equiv_pos_as_xyz
1 x,y,z
2 -x,-y,-z
_cell_length_a                   9.0735(4)
_cell_length_b                   12.4295(6)
_cell_length_c                   13.0434(5)
_cell_angle_alpha                79.504(4)
_cell_angle_beta                 83.976(3)
_cell_angle_gamma                78.084(4)
_cell_volume                     1411.77
loop_
_atom_site_label
_atom_site_type_symbol
_atom_site_fract_x
_atom_site_fract_y
_atom_site_fract_z
Ag1 Ag -0.59938(5) 0.35282(5) -0.51536(3)
Ag2 Ag 0.35844(3) 0.14835(3) -0.23654(3)
Ag3 Ag -1.07778(3) 0.51947(3) -0.87036(3)
C1 C -0.0866(5) -0.1702(4) -0.4565(4)
H1 H -0.0241 -0.2380 -0.4645
C2 C -0.1659(5) -0.1103(4) -0.5396(4)
H2 H -0.1564 -0.1380 -0.6020
C3 C -0.2590(4) -0.0099(3) -0.5304(3)
C4 C -0.2703(5) 0.0266(4) -0.4348(4)
H3 H -0.3325 0.0939 -0.4249
C5 C -0.1891(5) -0.0376(4) -0.3554(4)
H4 H -0.1991 -0.0124 -0.2917
C6 C -0.3361(4) 0.0603(3) -0.6209(3)
C7 C -0.4796(4) 0.3194(3) -0.7633(3)
H5 H -0.4290 0.3613 -0.7269
H6 H -0.4437 0.3310 -0.8365
C8 C -0.7386(4) 0.4010(3) -0.8273(3)
H7 H -0.7155 0.4021 -0.8986
C9 C -0.8507(4) 0.4196(4) -0.6814(4)
H8 H -0.9277 0.4373 -0.6307
C10 C -0.4197(4) 0.1139(3) -0.7701(3)
C11 C -0.4644(4) 0.1226(3) -0.8771(3)
C12 C -0.6109(4) 0.1641(3) -0.9015(3)
H9 H -0.6848 0.1841 -0.8497
C13 C -0.6477(4) 0.1758(3) -1.0024(3)
H10 H -0.7470 0.2061 -1.0180
C14 C -0.4050(4) 0.1038(3) -1.0540(3)
H11 H -0.3339 0.0821 -1.1068
C15 C -0.3574(4) 0.0909(3) -0.9563(3)
H12 H -0.2570 0.0620 -0.9427
C16 C -0.4338(4) 0.3392(4) -0.3496(3)
C17 C -0.3630(4) 0.3366(3) -0.2497(3)
C18 C -0.2109(4) 0.2895(3) -0.2471(3)
H13 H -0.1600 0.2641 -0.3063
C19 C -0.1323(4) 0.2791(3) -0.1596(3)
C20 C 0.0298(4) 0.2184(3) -0.1639(3)
C21 C -0.6056(4) 0.4255(3) -0.1586(4)
C22 C -0.4396(4) 0.3748(3) -0.1605(3)
C23 C -0.3605(4) 0.3653(3) -0.0731(3)
H14 H -0.4111 0.3919 -0.0143
C24 C -0.2078(4) 0.3174(3) -0.0701(3)
C25 C -0.1268(4) 0.3102(3) 0.0257(3)
N1 N -0.0958(4) -0.1346(3) -0.3642(3)
N2 N -0.3562(3) 0.0220(3) -0.7093(3)
N3 N -0.3852(4) 0.1691(3) -0.6236(3)
N4 N -0.4394(3) 0.2016(3) -0.7206(3)
N5 N -0.6405(3) 0.3618(3) -0.7544(2)
N6 N -0.7114(4) 0.3747(3) -0.6591(3)
N7 N -0.8722(3) 0.4377(3) -0.7845(3)
N8 N -0.5478(3) 0.1458(3) -1.0796(3)
O1 O -0.5028(3) 0.2637(3) -0.3570(2)
O2 O -0.4117(4) 0.4131(3) -0.4245(3)
O3 O 0.1166(3) 0.2588(3) -0.2340(3)
O4 O 0.0659(3) 0.1311(2) -0.1014(3)
O5 O -0.6762(3) 0.4372(3) -0.0727(3)
O6 O -0.6646(3) 0.4530(3) -0.2432(3)
O7 O -0.1939(3) 0.2775(2) 0.1124(2)
O8 O 0.0007(3) 0.3362(3) 0.0166(2)
O9 O -0.8793(4) 0.3915(3) -0.4295(3)
H15 H -0.8810 0.3501 -0.3700
H16 H -0.8570 0.4524 -0.4212
Ag4 Ag 0.04030(4) -0.22247(3) -0.23586(3)
Ag2_2 Ag -0.64156(3) 0.14835(3) -1.23654(3)
Ag2_3 Ag -0.64156(3) 0.14835(3) -0.23654(3)
Ag2A Ag -0.35844(3) -0.14835(3) -0.76346(3)
Ag3A Ag -0.92222(3) 0.48053(3) -0.12964(3)
Ag3A_2 Ag 0.07778(3) 0.48053(3) -0.12964(3)
N2A N 0.3562(3) -0.0220(3) -0.2907(3)
N8_2 N 0.4522(3) 0.1458(3) -0.0796(3)
O1_2 O 0.4972(3) 0.2637(3) -0.3570(2)
O5A O -1.3238(3) 0.5628(3) -0.9273(3)
O6A O -1.3354(3) 0.5470(3) -0.7568(3)
O7A O 0.1939(3) -0.2775(2) -0.1124(2)
O8A O -1.0007(3) 0.6638(3) -1.0166(2)
Ag4A Ag -0.04030(4) 0.22247(3) 0.23586(3)
O10 O -2.0660(3) 0.9508(3) -1.1222(3)
H17 H -2.0680 0.9183 -1.0587
H18 H -2.0212 1.0063 -1.1342
O11 O -1.1966(4) 0.3962(4) -0.6027(4)
H19 H -1.2374 0.4429 -0.6526
H20 H -1.2578 0.3992 -0.5487
loop_
_geom_bond_atom_site_label_1
_geom_bond_atom_site_label_2
_geom_bond_site_symmetry_1
_geom_bond_site_symmetry_2
Ag1 N6 1_555 1_555
Ag2 O3 1_555 1_555
Ag3 N7 1_555 1_555
C1 H1 1_555 1_555
C2 C1 1_555 1_555
H2 C2 1_555 1_555
C3 C2 1_555 1_555
C4 C3 1_555 1_555
H3 C4 1_555 1_555
C5 C4 1_555 1_555
H4 C5 1_555 1_555
C6 C3 1_555 1_555
C7 H5 1_555 1_555
H6 C7 1_555 1_555
C8 H7 1_555 1_555
C9 H8 1_555 1_555
C10 C11 1_555 1_555
C11 C12 1_555 1_555
C12 H9 1_555 1_555
C13 C12 1_555 1_555
H10 C13 1_555 1_555
C14 H11 1_555 1_555
C15 C11 1_555 1_555
H12 C15 1_555 1_555
C16 C17 1_555 1_555
C17 C18 1_555 1_555
C18 H13 1_555 1_555
C19 C18 1_555 1_555
C20 C19 1_555 1_555
C21 C22 1_555 1_555
C22 C17 1_555 1_555
C23 C22 1_555 1_555
H14 C23 1_555 1_555
C24 C19 1_555 1_555
C25 C24 1_555 1_555
N1 C1 1_555 1_555
N2 C6 1_555 1_555
N3 C6 1_555 1_555
N4 C7 1_555 1_555
N5 C7 1_555 1_555
N6 C9 1_555 1_555
N7 C8 1_555 1_555
N8 C13 1_555 1_555
O1 Ag1 1_555 1_555
O2 Ag1 1_555 1_555
O3 C20 1_555 1_555
O4 C20 1_555 1_555
O5 C21 1_555 1_555
O6 C21 1_555 1_555
O7 C25 1_555 1_555
O8 C25 1_555 1_555
O9 Ag1 1_555 1_555
H15 O9 1_555 1_555
H16 O9 1_555 1_555
Ag4 N1 1_555 1_555
O10 H17 1_555 1_555
H18 O10 1_555 1_555
O11 H19 1_555 1_555
H20 O11 1_555 1_555
Ag2_2 N8 1_555 1_555
Ag2_3 O1 1_555 1_555
Ag2A N2 1_555 1_555
Ag3A O5 1_555 1_555
Ag3A_2 O8 1_555 1_555
N2A Ag2 1_555 1_555
N8_2 Ag2 1_555 1_555
O1_2 Ag2 1_555 1_555
O5A Ag3 1_555 1_555
O6A Ag3 1_555 1_555
O7A Ag4 1_555 1_555
O8A Ag3 1_555 1_555
Ag4A O7 1_555 1_555
C5 N1 1_555 1_555
C8 N5 1_555 1_555
C9 N7 1_555 1_555
C10 N2 1_555 1_555
C10 N4 1_555 1_555
C14 C15 1_555 1_555
C14 N8 1_555 1_555
C16 O1 1_555 1_555
C16 O2 1_555 1_555
C23 C24 1_555 1_555
N3 N4 1_555 1_555
N5 N6 1_555 1_555
O6 Ag3A 1_555 1_555

#END
