
#######################################################################
#
#                 Cambridge Crystallographic Data Centre
#                                CCDC 
#
#######################################################################
#
# If this CIF has been generated from an entry in the Cambridge 
# Structural Database, then it will include bibliographic, chemical, 
# crystal, experimental, refinement or atomic coordinate data resulting 
# from the CCDC's data processing and validation procedures.
#
#######################################################################

data_XUHHAK
_symmetry_cell_setting           monoclinic
_symmetry_space_group_name_H-M   'C 2/c'
_symmetry_Int_Tables_number      15
_space_group_name_Hall           '-C 2yn'
loop_
_symmetry_equiv_pos_site_id
_symmetry_equiv_pos_as_xyz
1 x,y,z
2 -x,y,1/2-z
3 1/2+x,1/2+y,z
4 1/2-x,1/2+y,1/2-z
5 -x,-y,-z
6 x,-y,1/2+z
7 1/2-x,1/2-y,-z
8 1/2+x,1/2-y,1/2+z
_cell_length_a                   21.446(2)
_cell_length_b                   6.8218(6)
_cell_length_c                   15.4964(16)
_cell_angle_alpha                90
_cell_angle_beta                 123.120(3)
_cell_angle_gamma                90
_cell_volume                     1898.78
loop_
_atom_site_label
_atom_site_type_symbol
_atom_site_fract_x
_atom_site_fract_y
_atom_site_fract_z
Hg1 Hg 0.0000 0.69829(3) 0.2500
S1 S 0.02882(11) 0.8263(3) 0.41496(17)
N1 N 0.0875(2) 0.4352(5) 0.3034(3)
N2 N 0.2266(4) -0.1664(6) 0.4823(5)
N3 N -0.1057(5) 0.7503(11) 0.3979(6)
C1 C 0.1114(3) 0.3545(8) 0.3948(4)
H1 H 0.0985 0.4144 0.4368
C2 C 0.1544(3) 0.1865(6) 0.4304(5)
H2 H 0.1698 0.1355 0.4947
C3 C 0.1743(2) 0.0948(6) 0.3684(4)
C4 C 0.1486(4) 0.1781(7) 0.2722(5)
H3 H 0.1600 0.1207 0.2281
C5 C 0.1063(4) 0.3458(8) 0.2436(5)
H4 H 0.0897 0.3999 0.1794
C6 C 0.2211(3) -0.0836(7) 0.4048(4)
C7 C 0.2597(4) -0.1474(10) 0.3529(5)
H5 H 0.2924 -0.2550 0.3902
H6 H 0.2882 -0.0401 0.3516
H7 H 0.2234 -0.1878 0.2836
C8 C -0.0508(4) 0.7777(9) 0.4037(5)
Hg1F Hg 0.5000 -1.19829(3) 0.7500
S1A S -0.02882(11) 0.8263(3) 0.08504(17)
N1F N 0.4125(2) -0.9352(5) 0.6966(3)
N1A N -0.0875(2) 0.4352(5) 0.1966(3)
N2F N 0.2734(4) -0.3336(6) 0.5177(5)
N3A N 0.1057(5) 0.7503(11) 0.1021(6)
C1F C 0.3886(3) -0.8545(8) 0.6052(4)
H1F H 0.4015 -0.9144 0.5632
C2F C 0.3456(3) -0.6865(6) 0.5696(5)
H2F H 0.3302 -0.6355 0.5053
C3F C 0.3257(2) -0.5948(6) 0.6316(4)
C4F C 0.3514(4) -0.6781(7) 0.7278(5)
H3F H 0.3400 -0.6207 0.7719
C5F C 0.3937(4) -0.8458(8) 0.7564(5)
H4F H 0.4103 -0.8999 0.8206
C6F C 0.2789(3) -0.4164(7) 0.5952(4)
C7F C 0.2403(4) -0.3526(10) 0.6471(5)
H5F H 0.2076 -0.2450 0.6098
H6F H 0.2118 -0.4599 0.6484
H7F H 0.2766 -0.3122 0.7164
C8A C 0.0508(4) 0.7777(9) 0.0963(5)
loop_
_geom_bond_atom_site_label_1
_geom_bond_atom_site_label_2
_geom_bond_site_symmetry_1
_geom_bond_site_symmetry_2
Hg1 S1 1_555 1_555
S1 C8 1_555 1_555
N1 Hg1 1_555 1_555
N2 C6 1_555 1_555
N3 C8 1_555 1_555
C1 N1 1_555 1_555
H1 C1 1_555 1_555
C2 C1 1_555 1_555
H2 C2 1_555 1_555
C3 C2 1_555 1_555
C4 C3 1_555 1_555
H3 C4 1_555 1_555
C5 N1 1_555 1_555
H4 C5 1_555 1_555
C6 C3 1_555 1_555
C7 C6 1_555 1_555
H5 C7 1_555 1_555
H6 C7 1_555 1_555
H7 C7 1_555 1_555
Hg1F N1F 1_555 1_555
S1A Hg1 1_555 1_555
N1F C1F 1_555 1_555
N1A Hg1 1_555 1_555
N2F N2 1_555 1_555
N3A C8A 1_555 1_555
C1F H1F 1_555 1_555
C2F C1F 1_555 1_555
H2F C2F 1_555 1_555
C3F C2F 1_555 1_555
C4F C3F 1_555 1_555
H3F C4F 1_555 1_555
C5F N1F 1_555 1_555
H4F C5F 1_555 1_555
C6F N2F 1_555 1_555
C7F C6F 1_555 1_555
H5F C7F 1_555 1_555
H6F C7F 1_555 1_555
H7F C7F 1_555 1_555
C8A S1A 1_555 1_555
C4 C5 1_555 1_555
C3F C6F 1_555 1_555
C4F C5F 1_555 1_555

#END
