
#######################################################################
#
#                 Cambridge Crystallographic Data Centre
#                                CCDC 
#
#######################################################################
#
# If this CIF has been generated from an entry in the Cambridge 
# Structural Database, then it will include bibliographic, chemical, 
# crystal, experimental, refinement or atomic coordinate data resulting 
# from the CCDC's data processing and validation procedures.
#
#######################################################################

data_XUHJER
_symmetry_cell_setting           monoclinic
_symmetry_space_group_name_H-M   'P 21/c'
_symmetry_Int_Tables_number      14
_space_group_name_Hall           '-P 2ybc'
loop_
_symmetry_equiv_pos_site_id
_symmetry_equiv_pos_as_xyz
1 x,y,z
2 -x,1/2+y,1/2-z
3 -x,-y,-z
4 x,1/2-y,1/2+z
_cell_length_a                   14.9350(12)
_cell_length_b                   17.1323(15)
_cell_length_c                   14.4178(11)
_cell_angle_alpha                90
_cell_angle_beta                 112.9940(10)
_cell_angle_gamma                90
_cell_volume                     3395.98
loop_
_atom_site_label
_atom_site_type_symbol
_atom_site_fract_x
_atom_site_fract_y
_atom_site_fract_z
Cu1 Cu 0.22612(4) 0.42519(3) 0.27737(4)
Cu2 Cu 0.32083(4) 0.41959(3) 0.73316(4)
N1 N 0.2794(3) 0.42108(18) 0.4262(3)
N2 N 0.3089(3) 0.40919(18) 0.5904(3)
N3 N 0.2351(3) 0.30969(19) 0.2650(3)
N4 N 0.2667(3) 0.18583(19) 0.2393(3)
N5 N 0.2101(3) 0.5427(2) 0.2703(3)
N6 N 0.1711(3) 0.4385(2) 0.1239(3)
N7 N 0.3503(3) 0.5356(2) 0.7378(3)
N8 N 0.3500(3) 0.4407(2) 0.8829(3)
O1 O 0.4081(2) 0.42013(18) 0.3292(3)
O2 O 0.5344(2) 0.39680(19) 0.4748(3)
H1 H 0.5426 0.3905 0.5340
O3 O 0.4794(2) 0.37892(19) 0.7506(3)
O4 O 0.5653(2) 0.37877(17) 0.6542(3)
O5 O 0.0673(2) 0.37562(18) 0.2677(3)
O6 O -0.0092(2) 0.26082(18) 0.2343(3)
O7 O 0.1483(2) 0.05698(17) 0.1950(3)
O8 O 0.0231(2) 0.12545(17) 0.1993(3)
H2 H 0.0124 0.1708 0.2100
C1 C 0.4417(4) 0.4090(2) 0.4208(4)
C2 C 0.3778(3) 0.4090(2) 0.4779(4)
C3 C 0.3960(3) 0.4013(2) 0.5784(3)
C4 C 0.4855(3) 0.3856(2) 0.6679(4)
C5 C 0.2416(3) 0.4207(2) 0.4978(3)
H3 H 0.1759 0.4276 0.4839
C6 C 0.0658(4) 0.3041(3) 0.2505(4)
C7 C 0.1536(3) 0.2659(2) 0.2480(3)
C8 C 0.1120(4) 0.1190(3) 0.2068(4)
C9 C 0.1726(3) 0.1899(2) 0.2317(3)
C10 C 0.3008(3) 0.2587(2) 0.2592(3)
H4 H 0.3639 0.2727 0.2682
C11 C 0.2252(3) 0.5924(2) 0.3437(4)
H5 H 0.2451 0.5737 0.4093
C12 C 0.2124(4) 0.6735(3) 0.3268(5)
H6 H 0.2224 0.7071 0.3806
C13 C 0.1856(4) 0.7026(3) 0.2324(5)
H7 H 0.1777 0.7561 0.2210
C14 C 0.1698(3) 0.6504(3) 0.1515(5)
C15 C 0.1820(3) 0.5706(3) 0.1747(4)
C16 C 0.1593(3) 0.5149(3) 0.0959(4)
C17 C 0.1255(4) 0.5383(3) -0.0068(5)
C18 C 0.0971(4) 0.4798(4) -0.0800(5)
H8 H 0.0727 0.4929 -0.1480
C19 C 0.1053(4) 0.4035(4) -0.0514(4)
H9 H 0.0858 0.3641 -0.0997
C20 C 0.1434(4) 0.3847(3) 0.0518(4)
H10 H 0.1495 0.3324 0.0703
C21 C 0.1396(4) 0.6734(4) 0.0480(6)
H11 H 0.1344 0.7263 0.0321
C22 C 0.1185(4) 0.6209(4) -0.0265(5)
H12 H 0.0989 0.6384 -0.0926
C23 C 0.3535(4) 0.5810(3) 0.6649(4)
H13 H 0.3439 0.5586 0.6030
C24 C 0.3709(4) 0.6618(3) 0.6771(5)
H14 H 0.3734 0.6917 0.6244
C25 C 0.3838(4) 0.6958(3) 0.7663(4)
H15 H 0.3940 0.7493 0.7746
C26 C 0.3819(3) 0.6501(3) 0.8462(4)
C27 C 0.3643(3) 0.5695(2) 0.8278(4)
C28 C 0.3646(3) 0.5187(3) 0.9057(4)
C29 C 0.3806(3) 0.5485(3) 1.0019(4)
C30 C 0.3844(4) 0.4950(3) 1.0770(4)
H16 H 0.3950 0.5124 1.1416
C31 C 0.3723(4) 0.4181(3) 1.0547(4)
H17 H 0.3757 0.3820 1.1042
C32 C 0.3545(3) 0.3930(3) 0.9559(4)
H18 H 0.3456 0.3399 0.9416
C33 C 0.3957(4) 0.6788(3) 0.9432(4)
H19 H 0.4055 0.7320 0.9555
C34 C 0.3952(4) 0.6321(3) 1.0178(4)
H20 H 0.4043 0.6535 1.0801
Cu2C Cu 0.32083(4) 0.08041(3) 0.23316(4)
N4C N 0.2667(3) 0.31417(19) 0.7393(3)
O7C O 0.1483(2) 0.44302(17) 0.6950(3)
O9 O 0.1093(4) 0.6013(2) 0.6873(4)
H21 H 0.1215 0.5527 0.6898
H22 H 0.0590 0.6080 0.7004
O10 O 0.8642(4) 0.3762(3) 0.4935(4)
H23 H 0.8810 0.3837 0.4443
H24 H 0.9148 0.3769 0.5478
loop_
_geom_bond_atom_site_label_1
_geom_bond_atom_site_label_2
_geom_bond_site_symmetry_1
_geom_bond_site_symmetry_2
Cu1 N1 1_555 1_555
Cu2 N2 1_555 1_555
N1 C2 1_555 1_555
N2 C3 1_555 1_555
N3 Cu1 1_555 1_555
N4 C9 1_555 1_555
N5 Cu1 1_555 1_555
N6 Cu1 1_555 1_555
N7 Cu2 1_555 1_555
N8 Cu2 1_555 1_555
O1 Cu1 1_555 1_555
O2 H1 1_555 1_555
O3 Cu2 1_555 1_555
O4 C4 1_555 1_555
O5 Cu1 1_555 1_555
O6 C6 1_555 1_555
O7 C8 1_555 1_555
O8 H2 1_555 1_555
C1 O1 1_555 1_555
C2 C1 1_555 1_555
C3 C2 1_555 1_555
C4 O3 1_555 1_555
C5 N1 1_555 1_555
H3 C5 1_555 1_555
C6 O5 1_555 1_555
C7 N3 1_555 1_555
C8 O8 1_555 1_555
C9 C7 1_555 1_555
C10 N3 1_555 1_555
H4 C10 1_555 1_555
C11 N5 1_555 1_555
H5 C11 1_555 1_555
C12 C11 1_555 1_555
H6 C12 1_555 1_555
C13 C12 1_555 1_555
H7 C13 1_555 1_555
C14 C13 1_555 1_555
C15 N5 1_555 1_555
C16 N6 1_555 1_555
C17 C16 1_555 1_555
C18 C17 1_555 1_555
H8 C18 1_555 1_555
C19 C18 1_555 1_555
H9 C19 1_555 1_555
C20 N6 1_555 1_555
H10 C20 1_555 1_555
C21 C14 1_555 1_555
H11 C21 1_555 1_555
C22 C17 1_555 1_555
H12 C22 1_555 1_555
C23 N7 1_555 1_555
H13 C23 1_555 1_555
C24 C23 1_555 1_555
H14 C24 1_555 1_555
C25 C24 1_555 1_555
H15 C25 1_555 1_555
C26 C25 1_555 1_555
C27 N7 1_555 1_555
C28 N8 1_555 1_555
C29 C28 1_555 1_555
C30 C29 1_555 1_555
H16 C30 1_555 1_555
C31 C30 1_555 1_555
H17 C31 1_555 1_555
C32 N8 1_555 1_555
H18 C32 1_555 1_555
C33 C26 1_555 1_555
H19 C33 1_555 1_555
C34 C29 1_555 1_555
H20 C34 1_555 1_555
O9 H21 1_555 1_555
H22 O9 1_555 1_555
O10 H23 1_555 1_555
H24 O10 1_555 1_555
Cu2C N4 1_555 1_555
N4C Cu2 1_555 1_555
O7C Cu2 1_555 1_555
N2 C5 1_555 1_555
N4 C10 1_555 1_555
O2 C1 1_555 1_555
O7 Cu2C 1_555 1_555
C3 C4 1_555 1_555
C6 C7 1_555 1_555
C8 C9 1_555 1_555
C14 C15 1_555 1_555
C15 C16 1_555 1_555
C19 C20 1_555 1_555
C21 C22 1_555 1_555
C26 C27 1_555 1_555
C27 C28 1_555 1_555
C31 C32 1_555 1_555
C33 C34 1_555 1_555

#END
