
#######################################################################
#
#                 Cambridge Crystallographic Data Centre
#                                CCDC 
#
#######################################################################
#
# If this CIF has been generated from an entry in the Cambridge 
# Structural Database, then it will include bibliographic, chemical, 
# crystal, experimental, refinement or atomic coordinate data resulting 
# from the CCDC's data processing and validation procedures.
#
#######################################################################

data_XUHRUN
_symmetry_cell_setting           monoclinic
_symmetry_space_group_name_H-M   'P 21/c'
_symmetry_Int_Tables_number      14
_space_group_name_Hall           '-P 2ybc'
loop_
_symmetry_equiv_pos_site_id
_symmetry_equiv_pos_as_xyz
1 x,y,z
2 x,1/2-y,1/2+z
3 -x,-y,-z
4 -x,1/2+y,1/2-z
_cell_length_a                   36.553(7)
_cell_length_b                   10.248(2)
_cell_length_c                   26.224(5)
_cell_angle_alpha                90.00
_cell_angle_beta                 110.85(3)
_cell_angle_gamma                90.00
_cell_volume                     9180.1
loop_
_atom_site_label
_atom_site_type_symbol
_atom_site_fract_x
_atom_site_fract_y
_atom_site_fract_z
Mo1 Mo -0.004564(12) 0.26606(4) 0.567850(18)
Mo2 Mo 0.023985(12) 0.15607(4) 0.672719(18)
S1 S 0.01438(5) 0.05066(13) 0.59057(6)
S2 S -0.01479(4) 0.34019(12) 0.64545(5)
S3 S -0.06493(5) 0.36315(17) 0.51109(7)
S4 S -0.04805(5) 0.19674(16) 0.48035(6)
S5 S 0.00147(5) 0.1222(2) 0.74725(7)
S6 S 0.01445(5) -0.04519(16) 0.71243(8)
O1 O 0.03293(13) 0.3495(5) 0.5619(2)
O2 O 0.07119(11) 0.2002(4) 0.69986(18)
Mo3 Mo 0.227582(12) 0.82815(4) 0.447505(17)
Mo4 Mo 0.216465(12) 0.79212(4) 0.547870(18)
S7 S 0.23190(4) 0.98478(11) 0.51293(6)
S8 S 0.23157(4) 0.63459(11) 0.49506(6)
S9 S 0.27762(5) 0.75084(15) 0.41730(7)
S10 S 0.27004(5) 0.95247(15) 0.41381(7)
S11 S 0.24899(5) 0.66736(14) 0.62895(6)
S12 S 0.24790(4) 0.86938(14) 0.63911(6)
O3 O 0.18274(12) 0.8325(4) 0.39910(17)
O4 O 0.16783(11) 0.7893(4) 0.53385(17)
Mo5 Mo 0.276125(13) 0.21798(4) 0.224869(19)
Mo6 Mo 0.285469(12) 0.27041(4) 0.334181(18)
S13 S 0.29174(5) 0.41666(13) 0.26996(6)
S14 S 0.24730(5) 0.10931(13) 0.27826(6)
S15 S 0.22628(6) 0.14402(18) 0.14381(7)
S16 S 0.24808(6) 0.32752(15) 0.13974(6)
S17 S 0.24532(5) 0.26214(19) 0.38923(7)
S18 S 0.27073(6) 0.44126(16) 0.38615(7)
O5 O 0.31805(14) 0.1422(5) 0.2293(2)
O6 O 0.32978(13) 0.2098(4) 0.37062(18)
Mo7 Mo 0.514858(12) 0.31079(4) 0.331069(17)
Mo8 Mo 0.498953(13) 0.28558(4) 0.428339(18)
S19 S 0.50663(4) 0.47786(11) 0.38571(6)
S20 S 0.48432(4) 0.13814(11) 0.35636(5)
S21 S 0.48358(6) 0.25283(14) 0.23718(6)
S22 S 0.49503(5) 0.45016(13) 0.25306(6)
S23 S 0.44553(7) 0.2050(2) 0.45132(11)
S24 S 0.46069(6) 0.39761(19) 0.47261(8)
O7 O 0.56334(11) 0.2812(4) 0.34935(18)
O8 O 0.54196(14) 0.2419(5) 0.47498(19)
Mn1 Mn 0.11345(2) 0.24071(7) 0.38782(3)
Mn2 Mn 0.14126(2) -0.24348(7) 0.17902(3)
N1 N 0.11156(12) 0.1953(4) 0.47584(19)
N2 N 0.05847(17) 0.3448(6) 0.3916(2)
H1 H 0.0631 0.4312 0.3954
H2 H 0.0385 0.3319 0.3599
N3 N 0.08347(15) 0.0431(5) 0.3800(2)
H3 H 0.0576 0.0527 0.3726
H4 H 0.0871 -0.0049 0.3535
N4 N 0.16923(17) 0.3310(7) 0.4462(2)
H5 H 0.1899 0.2829 0.4462
H6 H 0.1720 0.4117 0.4346
N5 N 0.10818(13) 0.4034(4) 0.32520(19)
H7 H 0.0902 0.3766 0.2935
H8 H 0.0979 0.4731 0.3361
N6 N 0.15051(14) 0.1198(4) 0.34778(19)
H9 H 0.1730 0.1621 0.3524
H10 H 0.1565 0.0417 0.3644
N7 N 0.12185(11) -0.0423(4) 0.20769(17)
N8 N 0.07634(13) -0.2705(5) 0.1595(2)
H11 H 0.0661 -0.3199 0.1294
H12 H 0.0721 -0.3108 0.1874
N9 N 0.14325(13) -0.1016(4) 0.11346(17)
H13 H 0.1683 -0.0895 0.1164
H14 H 0.1303 -0.1362 0.0804
N10 N 0.16078(12) 0.5864(4) 0.24421(17)
N11 N 0.20471(12) 0.8003(4) 0.2252(2)
H15 H 0.2177 0.7979 0.2019
H16 H 0.2067 0.8819 0.2387
N12 N 0.14545(16) 0.5827(4) 0.12823(19)
H17 H 0.1250 0.5825 0.0965
H18 H 0.1676 0.5877 0.1207
C1 C 0.08292(19) 0.2845(7) 0.4863(3)
H37 H 0.0949 0.3693 0.4975
H38 H 0.0756 0.2499 0.5158
C2 C 0.04712(17) 0.2993(6) 0.4361(3)
H39 H 0.0338 0.2161 0.4266
H40 H 0.0293 0.3613 0.4429
C3 C 0.0990(2) 0.0595(6) 0.4791(3)
H41 H 0.1148 0.0224 0.5140
H42 H 0.0719 0.0590 0.4766
C4 C 0.1031(2) -0.0202(6) 0.4353(3)
H43 H 0.0914 -0.1051 0.4355
H44 H 0.1306 -0.0330 0.4416
C5 C 0.15138(18) 0.2193(6) 0.5160(2)
H45 H 0.1679 0.1448 0.5168
H46 H 0.1500 0.2292 0.5521
C6 C 0.16897(19) 0.3387(7) 0.5020(2)
H47 H 0.1541 0.4146 0.5052
H48 H 0.1956 0.3488 0.5275
C7 C 0.12904(19) 0.1004(6) 0.2897(2)
H49 H 0.1330 0.1756 0.2699
H50 H 0.1013 0.0949 0.2836
C8 C 0.14146(14) -0.0228(5) 0.2670(2)
H51 H 0.1695 -0.0192 0.2752
H52 H 0.1362 -0.0980 0.2858
C9 C 0.07875(15) -0.0480(6) 0.1936(3)
H53 H 0.0735 -0.0700 0.2263
H54 H 0.0681 0.0383 0.1822
C10 C 0.05790(18) -0.1416(7) 0.1505(3)
H55 H 0.0311 -0.1500 0.1491
H56 H 0.0572 -0.1081 0.1156
C11 C 0.13388(17) 0.0594(5) 0.1765(2)
H57 H 0.1617 0.0755 0.1942
H58 H 0.1202 0.1398 0.1778
C12 C 0.12583(16) 0.0247(5) 0.1178(2)
H59 H 0.0978 0.0211 0.0984
H60 H 0.1365 0.0917 0.1011
C13 C 0.19382(16) 0.6439(6) 0.2897(3)
H61 H 0.2068 0.5755 0.3154
H62 H 0.1836 0.7070 0.3089
C14 C 0.22333(17) 0.7102(7) 0.2700(3)
H63 H 0.2420 0.7576 0.3001
H64 H 0.2376 0.6445 0.2580
C15 C 0.1731(2) 0.4781(6) 0.2170(3)
H65 H 0.1740 0.3980 0.2371
H66 H 0.1993 0.4954 0.2172
C16 C 0.1455(2) 0.4607(6) 0.1586(3)
H67 H 0.1540 0.3881 0.1418
H68 H 0.1193 0.4423 0.1579
C17 C 0.12999(14) 0.5467(4) 0.26481(19)
H69 H 0.1088 0.5079 0.2348
H70 H 0.1197 0.6247 0.2758
C18 C 0.14155(16) 0.4513(5) 0.3124(2)
H71 H 0.1549 0.3775 0.3037
H72 H 0.1598 0.4939 0.3444
N10_2 N 0.16078(12) -0.4136(4) 0.24421(17)
N11_2 N 0.20471(12) -0.1997(4) 0.2252(2)
N12_2 N 0.14545(16) -0.4173(4) 0.12823(19)
Mn2_2 Mn 0.14126(2) 0.75652(7) 0.17902(3)
H15_2 H 0.2177 -0.2021 0.2019
H16_2 H 0.2067 -0.1181 0.2387
H17_2 H 0.1250 -0.4175 0.0965
H18_2 H 0.1676 -0.4123 0.1207
Mn3 Mn 0.39441(2) 0.76307(7) 0.78370(3)
Mn4 Mn 0.36332(2) 1.24082(7) 0.54504(3)
N13 N 0.38656(12) 0.6869(4) 0.86262(17)
N14 N 0.32861(14) 0.7278(6) 0.7580(2)
H19 H 0.3159 0.8039 0.7472
H20 H 0.3210 0.6730 0.7294
N15 N 0.39532(19) 0.9469(5) 0.8340(2)
H21 H 0.4201 0.9661 0.8554
H22 H 0.3855 1.0151 0.8117
N16 N 0.45635(12) 0.7133(5) 0.83842(19)
H23 H 0.4648 0.6436 0.8248
H24 H 0.4723 0.7809 0.8392
N17 N 0.39898(14) 0.5751(4) 0.73365(18)
H25 H 0.4224 0.5769 0.7297
H26 H 0.3988 0.5047 0.7541
N18 N 0.39622(14) 0.8948(4) 0.71548(19)
H27 H 0.4102 0.9664 0.7304
H28 H 0.4091 0.8530 0.6968
N19 N 0.37592(11) 1.0491(4) 0.59898(17)
N20 N 0.42868(12) 1.2489(4) 0.5868(2)
H29 H 0.4398 1.2894 0.5656
H30 H 0.4351 1.2920 0.6187
N21 N 0.36193(16) 1.0805(4) 0.48444(19)
H31 H 0.3383 1.0801 0.4576
H32 H 0.3799 1.0983 0.4692
N22 N 0.35046(12) 0.4301(4) 0.58982(17)
N23 N 0.29957(12) 0.2253(4) 0.5260(2)
H33 H 0.2877 0.2078 0.4903
H34 H 0.2947 0.1586 0.5450
N24 N 0.36612(14) 0.4026(4) 0.48927(19)
H35 H 0.3842 0.3847 0.4743
H36 H 0.3428 0.4125 0.4623
C19 C 0.35182(17) 0.6033(6) 0.8434(3)
H73 H 0.3448 0.5770 0.8743
H74 H 0.3578 0.5251 0.8271
C20 C 0.31753(17) 0.6727(7) 0.8021(3)
H75 H 0.2961 0.6117 0.7868
H76 H 0.3086 0.7421 0.8200
C21 C 0.38191(18) 0.7950(6) 0.8968(2)
H77 H 0.4061 0.8051 0.9278
H78 H 0.3614 0.7726 0.9107
C22 C 0.3719(2) 0.9224(7) 0.8672(3)
H79 H 0.3445 0.9222 0.8441
H80 H 0.3760 0.9924 0.8935
C23 C 0.42216(16) 0.6119(5) 0.8924(2)
H81 H 0.4213 0.5287 0.8744
H82 H 0.4230 0.5947 0.9292
C24 C 0.45822(15) 0.6838(6) 0.8950(2)
H83 H 0.4811 0.6312 0.9136
H84 H 0.4602 0.7644 0.9152
C25 C 0.35801(16) 0.9371(6) 0.6765(3)
H85 H 0.3411 0.9556 0.6968
H86 H 0.3466 0.8643 0.6524
C26 C 0.35752(17) 1.0561(5) 0.6409(2)
H87 H 0.3304 1.0805 0.6225
H88 H 0.3699 1.1274 0.6653
C27 C 0.41884(14) 1.0380(5) 0.6244(2)
H89 H 0.4259 0.9465 0.6255
H90 H 0.4267 1.0686 0.6617
C28 C 0.44153(14) 1.1125(5) 0.5960(2)
H91 H 0.4692 1.1096 0.6180
H92 H 0.4380 1.0713 0.5613
C29 C 0.35881(17) 0.9433(5) 0.5602(2)
H93 H 0.3305 0.9471 0.5491
H94 H 0.3673 0.8603 0.5783
C30 C 0.3699(2) 0.9491(6) 0.5097(2)
H95 H 0.3974 0.9288 0.5196
H96 H 0.3550 0.8844 0.4836
C31 C 0.31077(15) 0.4046(6) 0.5918(2)
H97 H 0.2998 0.4859 0.5988
H98 H 0.3132 0.3455 0.6218
C32 C 0.28325(16) 0.3460(6) 0.5394(2)
H99 H 0.2583 0.3272 0.5432
H100 H 0.2787 0.4084 0.5100
C33 C 0.34946(19) 0.5419(5) 0.5536(2)
H101 H 0.3568 0.6207 0.5753
H102 H 0.3230 0.5531 0.5279
C34 C 0.37675(18) 0.5228(5) 0.5225(3)
H103 H 0.3750 0.5973 0.4990
H104 H 0.4035 0.5163 0.5479
C35 C 0.37891(14) 0.4499(4) 0.6452(2)
H105 H 0.4040 0.4715 0.6424
H106 H 0.3821 0.3678 0.6647
C36 C 0.36892(15) 0.5551(5) 0.6793(2)
H107 H 0.3648 0.6369 0.6594
H108 H 0.3445 0.5319 0.6837
N22_2 N 0.35046(12) 1.4301(4) 0.58982(17)
N23_2 N 0.29957(12) 1.2253(4) 0.5260(2)
N24_2 N 0.36612(14) 1.4026(4) 0.48927(19)
Mn4_2 Mn 0.36332(2) 0.24082(7) 0.54504(3)
H33_2 H 0.2877 1.2078 0.4903
H34_2 H 0.2947 1.1586 0.5450
H35_2 H 0.3842 1.3847 0.4743
H36_2 H 0.3428 1.4125 0.4623
O9 O 0.12583(15) 0.6257(5) 0.4202(2)
O10 O 0.09221(15) -0.2108(5) 0.3242(2)
O11 O 0.3946(2) 0.3004(9) 0.2680(5)
loop_
_geom_bond_atom_site_label_1
_geom_bond_atom_site_label_2
_geom_bond_site_symmetry_1
_geom_bond_site_symmetry_2
Mo1 Mo2 1_555 1_555
Mo2 S1 1_555 1_555
Mo3 Mo4 1_555 1_555
Mo4 S7 1_555 1_555
Mo5 Mo6 1_555 1_555
Mo6 S13 1_555 1_555
Mo7 Mo8 1_555 1_555
Mo8 S19 1_555 1_555
Mn1 N1 1_555 1_555
Mn2 N7 1_555 1_555
Mn3 N13 1_555 1_555
Mn4 N19 1_555 1_555
S1 Mo1 1_555 1_555
S2 Mo1 1_555 1_555
S3 Mo1 1_555 1_555
S4 Mo1 1_555 1_555
S5 Mo2 1_555 1_555
S6 Mo2 1_555 1_555
S7 Mo3 1_555 1_555
S8 Mo3 1_555 1_555
S9 Mo3 1_555 1_555
S10 Mo3 1_555 1_555
S11 Mo4 1_555 1_555
S12 Mo4 1_555 1_555
S13 Mo5 1_555 1_555
S14 Mo5 1_555 1_555
S15 Mo5 1_555 1_555
S16 Mo5 1_555 1_555
S17 Mo6 1_555 1_555
S18 Mo6 1_555 1_555
S19 Mo7 1_555 1_555
S20 Mo7 1_555 1_555
S21 Mo7 1_555 1_555
S22 Mo7 1_555 1_555
S23 Mo8 1_555 1_555
S24 Mo8 1_555 1_555
O1 Mo1 1_555 1_555
O2 Mo2 1_555 1_555
O3 Mo3 1_555 1_555
O4 Mo4 1_555 1_555
O5 Mo5 1_555 1_555
O6 Mo6 1_555 1_555
O7 Mo7 1_555 1_555
O8 Mo8 1_555 1_555
N1 C1 1_555 1_555
N2 Mn1 1_555 1_555
H1 N2 1_555 1_555
H2 N2 1_555 1_555
N3 Mn1 1_555 1_555
H3 N3 1_555 1_555
H4 N3 1_555 1_555
N4 Mn1 1_555 1_555
H5 N4 1_555 1_555
H6 N4 1_555 1_555
N5 Mn1 1_555 1_555
H7 N5 1_555 1_555
H8 N5 1_555 1_555
N6 Mn1 1_555 1_555
H9 N6 1_555 1_555
H10 N6 1_555 1_555
N7 C8 1_555 1_555
N8 Mn2 1_555 1_555
H11 N8 1_555 1_555
H12 N8 1_555 1_555
N9 Mn2 1_555 1_555
H13 N9 1_555 1_555
H14 N9 1_555 1_555
N10 C13 1_555 1_555
N11 H15 1_555 1_555
H16 N11 1_555 1_555
N12 H17 1_555 1_555
H18 N12 1_555 1_555
N13 C19 1_555 1_555
N14 Mn3 1_555 1_555
H19 N14 1_555 1_555
H20 N14 1_555 1_555
N15 Mn3 1_555 1_555
H21 N15 1_555 1_555
H22 N15 1_555 1_555
N16 Mn3 1_555 1_555
H23 N16 1_555 1_555
H24 N16 1_555 1_555
N17 Mn3 1_555 1_555
H25 N17 1_555 1_555
H26 N17 1_555 1_555
N18 Mn3 1_555 1_555
H27 N18 1_555 1_555
H28 N18 1_555 1_555
N19 C26 1_555 1_555
N20 Mn4 1_555 1_555
H29 N20 1_555 1_555
H30 N20 1_555 1_555
N21 Mn4 1_555 1_555
H31 N21 1_555 1_555
H32 N21 1_555 1_555
N22 C31 1_555 1_555
N23 H33 1_555 1_555
H34 N23 1_555 1_555
N24 H35 1_555 1_555
H36 N24 1_555 1_555
C1 H37 1_555 1_555
H38 C1 1_555 1_555
C2 N2 1_555 1_555
H39 C2 1_555 1_555
H40 C2 1_555 1_555
C3 N1 1_555 1_555
H41 C3 1_555 1_555
H42 C3 1_555 1_555
C4 N3 1_555 1_555
H43 C4 1_555 1_555
H44 C4 1_555 1_555
C5 N1 1_555 1_555
H45 C5 1_555 1_555
H46 C5 1_555 1_555
C6 N4 1_555 1_555
H47 C6 1_555 1_555
H48 C6 1_555 1_555
C7 N6 1_555 1_555
H49 C7 1_555 1_555
H50 C7 1_555 1_555
C8 C7 1_555 1_555
H51 C8 1_555 1_555
H52 C8 1_555 1_555
C9 N7 1_555 1_555
H53 C9 1_555 1_555
H54 C9 1_555 1_555
C10 N8 1_555 1_555
H55 C10 1_555 1_555
H56 C10 1_555 1_555
C11 N7 1_555 1_555
H57 C11 1_555 1_555
H58 C11 1_555 1_555
C12 N9 1_555 1_555
H59 C12 1_555 1_555
H60 C12 1_555 1_555
C13 H61 1_555 1_555
H62 C13 1_555 1_555
C14 N11 1_555 1_555
H63 C14 1_555 1_555
H64 C14 1_555 1_555
C15 N10 1_555 1_555
H65 C15 1_555 1_555
H66 C15 1_555 1_555
C16 N12 1_555 1_555
H67 C16 1_555 1_555
H68 C16 1_555 1_555
C17 N10 1_555 1_555
H69 C17 1_555 1_555
H70 C17 1_555 1_555
C18 N5 1_555 1_555
H71 C18 1_555 1_555
H72 C18 1_555 1_555
C19 H73 1_555 1_555
H74 C19 1_555 1_555
C20 N14 1_555 1_555
H75 C20 1_555 1_555
H76 C20 1_555 1_555
C21 N13 1_555 1_555
H77 C21 1_555 1_555
H78 C21 1_555 1_555
C22 N15 1_555 1_555
H79 C22 1_555 1_555
H80 C22 1_555 1_555
C23 N13 1_555 1_555
H81 C23 1_555 1_555
H82 C23 1_555 1_555
C24 N16 1_555 1_555
H83 C24 1_555 1_555
H84 C24 1_555 1_555
C25 N18 1_555 1_555
H85 C25 1_555 1_555
H86 C25 1_555 1_555
C26 C25 1_555 1_555
H87 C26 1_555 1_555
H88 C26 1_555 1_555
C27 N19 1_555 1_555
H89 C27 1_555 1_555
H90 C27 1_555 1_555
C28 N20 1_555 1_555
H91 C28 1_555 1_555
H92 C28 1_555 1_555
C29 N19 1_555 1_555
H93 C29 1_555 1_555
H94 C29 1_555 1_555
C30 N21 1_555 1_555
H95 C30 1_555 1_555
H96 C30 1_555 1_555
C31 H97 1_555 1_555
H98 C31 1_555 1_555
C32 N23 1_555 1_555
H99 C32 1_555 1_555
H100 C32 1_555 1_555
C33 N22 1_555 1_555
H101 C33 1_555 1_555
H102 C33 1_555 1_555
C34 N24 1_555 1_555
H103 C34 1_555 1_555
H104 C34 1_555 1_555
C35 N22 1_555 1_555
H105 C35 1_555 1_555
H106 C35 1_555 1_555
C36 N17 1_555 1_555
H107 C36 1_555 1_555
H108 C36 1_555 1_555
N10_2 Mn2 1_555 1_555
N11_2 Mn2 1_555 1_555
N12_2 Mn2 1_555 1_555
N22_2 Mn4 1_555 1_555
N23_2 Mn4 1_555 1_555
N24_2 Mn4 1_555 1_555
Mn2_2 N10 1_555 1_555
Mn4_2 N22 1_555 1_555
H15_2 N11_2 1_555 1_555
H16_2 N11_2 1_555 1_555
H17_2 N12_2 1_555 1_555
H18_2 N12_2 1_555 1_555
H33_2 N23_2 1_555 1_555
H34_2 N23_2 1_555 1_555
H35_2 N24_2 1_555 1_555
H36_2 N24_2 1_555 1_555
Mo2 S2 1_555 1_555
Mo4 S8 1_555 1_555
Mo6 S14 1_555 1_555
Mo8 S20 1_555 1_555
S3 S4 1_555 1_555
S5 S6 1_555 1_555
S9 S10 1_555 1_555
S11 S12 1_555 1_555
S15 S16 1_555 1_555
S17 S18 1_555 1_555
S21 S22 1_555 1_555
S23 S24 1_555 1_555
N11 Mn2_2 1_555 1_555
N12 Mn2_2 1_555 1_555
N23 Mn4_2 1_555 1_555
N24 Mn4_2 1_555 1_555
C1 C2 1_555 1_555
C3 C4 1_555 1_555
C5 C6 1_555 1_555
C9 C10 1_555 1_555
C11 C12 1_555 1_555
C13 C14 1_555 1_555
C15 C16 1_555 1_555
C17 C18 1_555 1_555
C19 C20 1_555 1_555
C21 C22 1_555 1_555
C23 C24 1_555 1_555
C27 C28 1_555 1_555
C29 C30 1_555 1_555
C31 C32 1_555 1_555
C33 C34 1_555 1_555
C35 C36 1_555 1_555

#END
