
#######################################################################
#
#                 Cambridge Crystallographic Data Centre
#                                CCDC 
#
#######################################################################
#
# If this CIF has been generated from an entry in the Cambridge 
# Structural Database, then it will include bibliographic, chemical, 
# crystal, experimental, refinement or atomic coordinate data resulting 
# from the CCDC's data processing and validation procedures.
#
#######################################################################

data_XUHTOL
_symmetry_cell_setting           monoclinic
_symmetry_space_group_name_H-M   'P 21/a'
_symmetry_Int_Tables_number      14
_space_group_name_Hall           '-P 2yab'
loop_
_symmetry_equiv_pos_site_id
_symmetry_equiv_pos_as_xyz
1 x,y,z
2 1/2-x,1/2+y,-z
3 -x,-y,-z
4 1/2+x,1/2-y,z
_cell_length_a                   8.6012(11)
_cell_length_b                   14.6516(14)
_cell_length_c                   10.2809(13)
_cell_angle_alpha                90
_cell_angle_beta                 99.325(10)
_cell_angle_gamma                90
_cell_volume                     1278.49
loop_
_atom_site_label
_atom_site_type_symbol
_atom_site_fract_x
_atom_site_fract_y
_atom_site_fract_z
C1 C 0.7239(10) 0.9836(5) 0.1718(6)
H1 H 0.6289 1.0216 0.1598
C2 C 0.8057(11) 1.0312(7) 0.0820(6)
H2 H 0.8953 0.9930 0.0726
H3 H 0.7363 1.0290 -0.0023
C3 C 0.8632(15) 1.1186(7) 0.0927(8)
H4 H 0.7736 1.1591 0.0704
H5 H 0.9278 1.1261 0.0244
C4 C 0.6492(13) 0.8990(8) 0.1430(7)
H6 H 0.5908 0.9063 0.0547
H7 H 0.7344 0.8572 0.1346
C5 C 0.5485(13) 0.8490(7) 0.2098(8)
H8 H 0.5604 0.7852 0.1883
H9 H 0.4415 0.8662 0.1730
Cu1 Cu 0.91613(8) 1.09648(5) 0.38389(6)
Cu2 Cu 0.68022(9) 0.95809(5) 0.44923(6)
N1 N 0.9548(6) 1.1529(4) 0.2147(4)
N2 N 0.5740(6) 0.9400(4) 0.6036(5)
N3 N 0.5629(7) 0.8554(4) 0.3516(5)
N4 N 0.6247(6) 0.8995(4) 0.7010(5)
N5 N 0.6686(8) 0.8609(5) 0.7970(6)
N6 N 0.8513(5) 1.0392(4) 0.5475(4)
N7 N 0.8450(6) 1.0822(4) 0.6447(4)
N8 N 0.8394(8) 1.1240(5) 0.7368(6)
N9 N 1.2068(10) 1.2881(6) 0.3990(9)
N10 N 1.0763(7) 1.1781(5) 0.4931(5)
N11 N 1.1385(6) 1.2306(4) 0.4464(6)
O1 O 0.7746(5) 1.0029(3) 0.3058(3)
Cu1C Cu 1.41613(8) 1.40352(5) 0.38389(6)
Cu2B Cu 0.31978(9) 1.04191(5) 0.55077(6)
N2B N 0.4260(6) 1.0600(4) 0.3964(5)
N9C N 0.7068(10) 1.2119(6) 0.3990(9)
loop_
_geom_bond_atom_site_label_1
_geom_bond_atom_site_label_2
_geom_bond_site_symmetry_1
_geom_bond_site_symmetry_2
C1 H1 1_555 1_555
C2 C1 1_555 1_555
H2 C2 1_555 1_555
H3 C2 1_555 1_555
C3 C2 1_555 1_555
H4 C3 1_555 1_555
H5 C3 1_555 1_555
C4 C1 1_555 1_555
H6 C4 1_555 1_555
H7 C4 1_555 1_555
C5 C4 1_555 1_555
H8 C5 1_555 1_555
H9 C5 1_555 1_555
Cu1 N1 1_555 1_555
Cu2 N2 1_555 1_555
N1 C3 1_555 1_555
N2 N4 1_555 1_555
N3 C5 1_555 1_555
N4 N5 1_555 1_555
N6 Cu1 1_555 1_555
N7 N6 1_555 1_555
N8 N7 1_555 1_555
N9 N11 1_555 1_555
N10 Cu1 1_555 1_555
N11 N10 1_555 1_555
O1 C1 1_555 1_555
Cu1C N9 1_555 1_555
Cu2B N2 1_555 1_555
N2B Cu2 1_555 1_555
N9C Cu1 1_555 1_555
Cu1 O1 1_555 1_555
Cu2 N3 1_555 1_555
Cu2 N6 1_555 1_555
Cu2 O1 1_555 1_555
Cu2B N2B 1_555 1_555

#END
