
#######################################################################
#
#                 Cambridge Crystallographic Data Centre
#                                CCDC 
#
#######################################################################
#
# If this CIF has been generated from an entry in the Cambridge 
# Structural Database, then it will include bibliographic, chemical, 
# crystal, experimental, refinement or atomic coordinate data resulting 
# from the CCDC's data processing and validation procedures.
#
#######################################################################

data_XUHVON
_symmetry_cell_setting           monoclinic
_symmetry_space_group_name_H-M   'P 21/c'
_symmetry_Int_Tables_number      14
_space_group_name_Hall           '-P 2ybc'
loop_
_symmetry_equiv_pos_site_id
_symmetry_equiv_pos_as_xyz
1 x,y,z
2 -x,1/2+y,1/2-z
3 -x,-y,-z
4 x,1/2-y,1/2+z
_cell_length_a                   15.9293(4)
_cell_length_b                   10.9222(2)
_cell_length_c                   15.8803(4)
_cell_angle_alpha                90
_cell_angle_beta                 115.246(3)
_cell_angle_gamma                90
_cell_volume                     2499
loop_
_atom_site_label
_atom_site_type_symbol
_atom_site_fract_x
_atom_site_fract_y
_atom_site_fract_z
Zn1 Zn 0.295772(17) 0.41718(2) 0.288470(16)
O1 O 0.27302(17) 0.5316(2) 0.36995(15)
O2 O 0.16233(14) 0.6686(2) 0.32703(13)
O3 O 0.18030(13) 0.9500(2) 0.59125(14)
O4 O 0.32167(14) 0.9967(2) 0.69629(13)
O5 O 0.59150(13) 0.7699(2) 0.72239(13)
O6 O 0.58244(12) 0.63516(18) 0.61594(11)
N1 N 0.19506(14) 0.29317(18) 0.23822(12)
N2 N 0.14321(16) 0.2589(2) 0.28000(14)
N3 N 0.08273(16) 0.1755(2) 0.22665(15)
N4 N 0.17076(15) 0.23315(19) 0.15724(13)
C1 C 0.23907(18) 0.6295(2) 0.37944(16)
C2 C 0.29666(16) 0.7011(2) 0.46640(15)
C3 C 0.25566(16) 0.7871(2) 0.50152(15)
H1 H 0.1920 0.8007 0.4714
C4 C 0.30943(16) 0.8532(2) 0.58179(15)
C5 C 0.40403(16) 0.8327(2) 0.62561(15)
H2 H 0.4403 0.8785 0.6779
C6 C 0.44583(16) 0.7450(2) 0.59282(15)
C7 C 0.39170(16) 0.6796(2) 0.51263(15)
H3 H 0.4192 0.6213 0.4898
C8 C 0.26476(18) 0.9396(2) 0.62486(17)
C9 C 0.54697(17) 0.7165(2) 0.64738(16)
C10 C 0.10102(17) 0.1622(2) 0.15229(16)
C11 C 0.04975(17) 0.0777(2) 0.07440(16)
C12 C -0.03890(19) 0.0404(3) 0.05783(18)
H4 H -0.0657 0.0672 0.0963
C13 C -0.08791(19) -0.0372(3) -0.01629(19)
H5 H -0.1474 -0.0621 -0.0268
N1B N -0.19506(14) -0.29317(18) -0.23822(12)
N2B N -0.14321(16) -0.2589(2) -0.28000(14)
N3B N -0.08273(16) -0.1755(2) -0.22665(15)
N4B N -0.17076(15) -0.23315(19) -0.15724(13)
C10B C -0.10102(17) -0.1622(2) -0.15229(16)
C11B C -0.04975(17) -0.0777(2) -0.07440(16)
C12B C 0.03890(19) -0.0404(3) -0.05783(18)
H4B H 0.0657 -0.0672 -0.0963
C13B C 0.08791(19) 0.0372(3) 0.01629(19)
H5B H 0.1474 0.0621 0.0268
Zn1B Zn -0.295772(17) -0.41718(2) -0.288470(16)
O1B O -0.27302(17) -0.5316(2) -0.36995(15)
O2B O -0.16233(14) -0.6686(2) -0.32703(13)
O3B O -0.18030(13) -0.9500(2) -0.59125(14)
O4B O -0.32167(14) -0.9967(2) -0.69629(13)
O5B O -0.59150(13) -0.7699(2) -0.72239(13)
O6B O -0.58244(12) -0.63516(18) -0.61594(11)
C1B C -0.23907(18) -0.6295(2) -0.37944(16)
C2B C -0.29666(16) -0.7011(2) -0.46640(15)
C3B C -0.25566(16) -0.7871(2) -0.50152(15)
H1B H -0.1920 -0.8007 -0.4714
C4B C -0.30943(16) -0.8532(2) -0.58179(15)
C5B C -0.40403(16) -0.8327(2) -0.62561(15)
H2B H -0.4403 -0.8785 -0.6779
C6B C -0.44583(16) -0.7450(2) -0.59282(15)
C7B C -0.39170(16) -0.6796(2) -0.51263(15)
H3B H -0.4192 -0.6213 -0.4898
C8B C -0.26476(18) -0.9396(2) -0.62486(17)
C9B C -0.54697(17) -0.7165(2) -0.64738(16)
Zn1_2 Zn -0.704228(17) -0.58282(2) -0.711530(16)
Zn1A Zn -0.295772(17) -1.08282(2) -0.788470(16)
Zn1B_2 Zn 0.704228(17) 0.58282(2) 0.711530(16)
Zn1C Zn 0.295772(17) 1.08282(2) 0.788470(16)
O4A O -0.32167(14) -0.5033(2) -0.19629(13)
O4C O 0.32167(14) 0.5033(2) 0.19629(13)
O6_2 O -0.41756(12) -0.36484(18) -0.38406(11)
O6B_2 O 0.41756(12) 0.36484(18) 0.38406(11)
N5 N 0.04145(19) 0.5836(3) 0.15861(17)
H6 H 0.0914 0.5604 0.1499
H7 H 0.0617 0.6051 0.2188
C14 C 0.0029(3) 0.6913(4) 0.1027(3)
H8 H 0.0522 0.7416 0.1025
H9 H -0.0324 0.7368 0.1283
H10 H -0.0369 0.6672 0.0401
C15 C -0.0172(3) 0.4804(4) 0.1427(3)
H11 H 0.0174 0.4137 0.1813
H12 H -0.0409 0.4567 0.0784
H13 H -0.0680 0.5006 0.1575
N6 N 0.6396(3) 0.7629(3) 0.9074(2)
H14 H 0.5922 0.7107 0.8961
H15 H 0.6562 0.7562 0.8601
C16 C 0.6065(4) 0.8888(4) 0.9085(3)
H16 H 0.5538 0.9051 0.8507
H17 H 0.6552 0.9457 0.9165
H18 H 0.5890 0.8973 0.9590
C17 C 0.7159(3) 0.7265(4) 0.9911(3)
H19 H 0.7336 0.6444 0.9846
H20 H 0.6982 0.7300 1.0418
H21 H 0.7673 0.7807 1.0035
O7 O 0.4994(4) 0.8807(5) 0.4030(4)
N7 N 0.3486(3) 0.9188(3) 0.3199(3)
C18 C 0.4275(9) 0.8636(11) 0.3276(7)
H22 H 0.4290 0.8154 0.2800
C19 C 0.3370(10) 1.0040(8) 0.3732(7)
H23 H 0.3917 1.0089 0.4310
H24 H 0.2846 0.9833 0.3853
H25 H 0.3263 1.0816 0.3420
C20 C 0.2668(9) 0.8967(11) 0.2277(7)
H26 H 0.2752 0.8209 0.2018
H27 H 0.2620 0.9625 0.1858
H28 H 0.2110 0.8928 0.2368
C21? C 0.4257(10) 0.9419(11) 0.4031(9)
H29? H 0.4265 0.9914 0.4510
C22? C 0.3426(15) 0.8415(17) 0.2582(12)
H30? H 0.3796 0.7710 0.2874
H31? H 0.3647 0.8776 0.2163
H32? H 0.2790 0.8171 0.2241
C23? C 0.2611(10) 0.9773(12) 0.3156(10)
H33? H 0.2769 1.0387 0.3631
H34? H 0.2229 0.9160 0.3252
H35? H 0.2278 1.0145 0.2556
loop_
_geom_bond_atom_site_label_1
_geom_bond_atom_site_label_2
_geom_bond_site_symmetry_1
_geom_bond_site_symmetry_2
Zn1 O1 1_555 1_555
O1 C1 1_555 1_555
O2 C1 1_555 1_555
O3 C8 1_555 1_555
O4 C8 1_555 1_555
O5 C9 1_555 1_555
O6 C9 1_555 1_555
N1 Zn1 1_555 1_555
N2 N1 1_555 1_555
N3 N2 1_555 1_555
N4 N1 1_555 1_555
C1 C2 1_555 1_555
C2 C3 1_555 1_555
C3 H1 1_555 1_555
C4 C3 1_555 1_555
C5 C4 1_555 1_555
H2 C5 1_555 1_555
C6 C5 1_555 1_555
C7 C2 1_555 1_555
H3 C7 1_555 1_555
C8 C4 1_555 1_555
C9 C6 1_555 1_555
C10 N3 1_555 1_555
C11 C10 1_555 1_555
C12 C11 1_555 1_555
H4 C12 1_555 1_555
C13 C12 1_555 1_555
H5 C13 1_555 1_555
N5 H6 1_555 1_555
H7 N5 1_555 1_555
C14 N5 1_555 1_555
H8 C14 1_555 1_555
H9 C14 1_555 1_555
H10 C14 1_555 1_555
C15 N5 1_555 1_555
H11 C15 1_555 1_555
H12 C15 1_555 1_555
H13 C15 1_555 1_555
N6 H14 1_555 1_555
H15 N6 1_555 1_555
C16 N6 1_555 1_555
H16 C16 1_555 1_555
H17 C16 1_555 1_555
H18 C16 1_555 1_555
C17 N6 1_555 1_555
H19 C17 1_555 1_555
H20 C17 1_555 1_555
H21 C17 1_555 1_555
O7 C18 1_555 1_555
N7 C18 1_555 1_555
C18 H22 1_555 1_555
C19 N7 1_555 1_555
H23 C19 1_555 1_555
H24 C19 1_555 1_555
H25 C19 1_555 1_555
C20 N7 1_555 1_555
H26 C20 1_555 1_555
H27 C20 1_555 1_555
H28 C20 1_555 1_555
N1B N2B 1_555 1_555
N2B N3B 1_555 1_555
N3B C10B 1_555 1_555
N4B N1B 1_555 1_555
C10B N4B 1_555 1_555
C11B C13 1_555 1_555
C12B C11B 1_555 1_555
H4B C12B 1_555 1_555
C13B C11 1_555 1_555
H5B C13B 1_555 1_555
Zn1B N1B 1_555 1_555
O1B Zn1B 1_555 1_555
O2B C1B 1_555 1_555
O3B C8B 1_555 1_555
O4B C8B 1_555 1_555
O5B C9B 1_555 1_555
O6B C9B 1_555 1_555
C1B O1B 1_555 1_555
C2B C1B 1_555 1_555
C3B C2B 1_555 1_555
H1B C3B 1_555 1_555
C4B C3B 1_555 1_555
C5B C4B 1_555 1_555
H2B C5B 1_555 1_555
C6B C5B 1_555 1_555
C7B C2B 1_555 1_555
H3B C7B 1_555 1_555
C8B C4B 1_555 1_555
C9B C6B 1_555 1_555
Zn1_2 O6B 1_555 1_555
Zn1A O4B 1_555 1_555
Zn1B_2 O6 1_555 1_555
Zn1C O4 1_555 1_555
O4A Zn1B 1_555 1_555
O4C Zn1 1_555 1_555
O6_2 Zn1B 1_555 1_555
O6B_2 Zn1 1_555 1_555
N4 C10 1_555 1_555
C6 C7 1_555 1_555
C10B C11B 1_555 1_555
C12B C13B 1_555 1_555
C6B C7B 1_555 1_555

#END
