
#######################################################################
#
#                 Cambridge Crystallographic Data Centre
#                                CCDC 
#
#######################################################################
#
# If this CIF has been generated from an entry in the Cambridge 
# Structural Database, then it will include bibliographic, chemical, 
# crystal, experimental, refinement or atomic coordinate data resulting 
# from the CCDC's data processing and validation procedures.
#
#######################################################################

data_XUHWII
_symmetry_cell_setting           monoclinic
_symmetry_space_group_name_H-M   'P 21/n'
_symmetry_Int_Tables_number      14
_space_group_name_Hall           '-P 2yn'
loop_
_symmetry_equiv_pos_site_id
_symmetry_equiv_pos_as_xyz
1 x,y,z
2 1/2-x,1/2+y,1/2-z
3 -x,-y,-z
4 1/2+x,1/2-y,1/2+z
_cell_length_a                   10.1951(4)
_cell_length_b                   14.4957(4)
_cell_length_c                   16.4604(5)
_cell_angle_alpha                90
_cell_angle_beta                 90.854(3)
_cell_angle_gamma                90
_cell_volume                     2432.33
loop_
_atom_site_label
_atom_site_type_symbol
_atom_site_fract_x
_atom_site_fract_y
_atom_site_fract_z
Mn1 Mn 0.75402(3) 0.58827(2) 0.508056(19)
N1 N 0.93646(17) 0.58747(12) 0.44523(11)
C1 C 0.4582(2) 0.56374(13) 0.58188(12)
S1 S 0.30704(5) 0.54186(4) 0.60673(4)
N2 N 0.56565(18) 0.57993(12) 0.56448(11)
C2 C 1.0389(2) 0.57034(12) 0.41966(12)
S2 S 1.18388(5) 0.54559(4) 0.38404(4)
N3 N 0.83312(17) 0.69615(12) 0.59493(11)
C3 C 0.7498(2) 0.75024(16) 0.63486(15)
H1 H 0.6596 0.7336 0.6346
C4 C 0.7871(2) 0.82922(16) 0.67671(15)
H2 H 0.7237 0.8654 0.7039
C5 C 0.9165(2) 0.85444(15) 0.67846(13)
C6 C 1.0048(2) 0.79660(16) 0.64134(14)
H3 H 1.0960 0.8101 0.6437
C7 C 0.9600(2) 0.71862(16) 0.60053(14)
H4 H 1.0223 0.6795 0.5755
C8 C 0.9599(3) 0.94421(16) 0.71761(16)
H5 H 1.0564 0.9431 0.7255
H6 H 0.9199 0.9493 0.7719
C9 C 0.9222(2) 1.02883(15) 0.66735(14)
C10 C 0.8816(3) 1.02362(18) 0.58667(16)
H7 H 0.8770 0.9652 0.5606
C11 C 0.8475(3) 1.1024(2) 0.54344(18)
H8 H 0.8191 1.0977 0.4884
C12 C 0.8550(3) 1.18730(18) 0.58027(18)
H9 H 0.8323 1.2414 0.5508
C13 C 0.8952(3) 1.19339(18) 0.65931(18)
H10 H 0.9010 1.2521 0.6848
C14 C 0.9278(3) 1.11497(18) 0.70261(16)
H11 H 0.9546 1.1205 0.7579
N4 N 0.67434(17) 0.70281(12) 0.42642(11)
C15 C 0.5495(2) 0.70506(16) 0.40026(13)
H12 H 0.4931 0.6558 0.4148
C16 C 0.4986(2) 0.77571(17) 0.35304(14)
H13 H 0.4090 0.7743 0.3364
C17 C 0.5776(3) 0.84839(15) 0.32999(14)
C18 C 0.7072(3) 0.84579(16) 0.35639(16)
H14 H 0.7657 0.8940 0.3422
C19 C 0.7511(2) 0.77283(15) 0.40347(16)
H15 H 0.8406 0.7723 0.4205
C20 C 0.5268(3) 0.92763(17) 0.27810(16)
H16 H 0.5710 0.9261 0.2249
H17 H 0.4317 0.9190 0.2679
C21 C 0.5491(2) 1.02079(16) 0.31664(14)
C22 C 0.6166(3) 1.0892(2) 0.27670(16)
H18 H 0.6496 1.0777 0.2240
C23 C 0.6367(3) 1.1750(2) 0.3130(2)
H19 H 0.6815 1.2221 0.2844
C24 C 0.5929(3) 1.19170(18) 0.38867(19)
H20 H 0.6096 1.2495 0.4140
C25 C 0.5243(4) 1.1248(2) 0.42875(18)
H21 H 0.4921 1.1370 0.4815
C26 C 0.5015(3) 1.04025(18) 0.39359(15)
H22 H 0.4530 0.9948 0.4219
Mn1B Mn 0.24598(3) 0.41173(2) 0.491944(19)
Mn1B_2 Mn 1.24598(3) 0.41173(2) 0.491944(19)
S1B S 0.69296(5) 0.45814(4) 0.39327(4)
S2B S 0.81612(5) 0.45441(4) 0.61596(4)
loop_
_geom_bond_atom_site_label_1
_geom_bond_atom_site_label_2
_geom_bond_site_symmetry_1
_geom_bond_site_symmetry_2
Mn1 N1 1_555 1_555
N1 C2 1_555 1_555
C1 S1 1_555 1_555
S1 Mn1B 1_555 1_555
N2 Mn1 1_555 1_555
C2 S2 1_555 1_555
S2 Mn1B_2 1_555 1_555
N3 Mn1 1_555 1_555
C3 N3 1_555 1_555
H1 C3 1_555 1_555
C4 C3 1_555 1_555
H2 C4 1_555 1_555
C5 C4 1_555 1_555
C6 C5 1_555 1_555
H3 C6 1_555 1_555
C7 N3 1_555 1_555
H4 C7 1_555 1_555
C8 C5 1_555 1_555
H5 C8 1_555 1_555
H6 C8 1_555 1_555
C9 C8 1_555 1_555
C10 C9 1_555 1_555
H7 C10 1_555 1_555
C11 C10 1_555 1_555
H8 C11 1_555 1_555
C12 C11 1_555 1_555
H9 C12 1_555 1_555
C13 C12 1_555 1_555
H10 C13 1_555 1_555
C14 C9 1_555 1_555
H11 C14 1_555 1_555
N4 Mn1 1_555 1_555
C15 N4 1_555 1_555
H12 C15 1_555 1_555
C16 C15 1_555 1_555
H13 C16 1_555 1_555
C17 C16 1_555 1_555
C18 C17 1_555 1_555
H14 C18 1_555 1_555
C19 N4 1_555 1_555
H15 C19 1_555 1_555
C20 C17 1_555 1_555
H16 C20 1_555 1_555
H17 C20 1_555 1_555
C21 C20 1_555 1_555
C22 C21 1_555 1_555
H18 C22 1_555 1_555
C23 C22 1_555 1_555
H19 C23 1_555 1_555
C24 C23 1_555 1_555
H20 C24 1_555 1_555
C25 C24 1_555 1_555
H21 C25 1_555 1_555
C26 C21 1_555 1_555
H22 C26 1_555 1_555
S1B Mn1 1_555 1_555
S2B Mn1 1_555 1_555
C1 N2 1_555 1_555
C6 C7 1_555 1_555
C13 C14 1_555 1_555
C18 C19 1_555 1_555
C25 C26 1_555 1_555

#END
