
#######################################################################
#
#                 Cambridge Crystallographic Data Centre
#                                CCDC 
#
#######################################################################
#
# If this CIF has been generated from an entry in the Cambridge 
# Structural Database, then it will include bibliographic, chemical, 
# crystal, experimental, refinement or atomic coordinate data resulting 
# from the CCDC's data processing and validation procedures.
#
#######################################################################

data_XUHXOP
_symmetry_cell_setting           monoclinic
_symmetry_space_group_name_H-M   'C 2/c'
_symmetry_Int_Tables_number      15
_space_group_name_Hall           '-C 2yn'
loop_
_symmetry_equiv_pos_site_id
_symmetry_equiv_pos_as_xyz
1 x,y,z
2 -x,y,1/2-z
3 1/2+x,1/2+y,z
4 1/2-x,1/2+y,1/2-z
5 -x,-y,-z
6 x,-y,1/2+z
7 1/2-x,1/2-y,-z
8 1/2+x,1/2-y,1/2+z
_cell_length_a                   43.211(9)
_cell_length_b                   17.597(4)
_cell_length_c                   33.718(7)
_cell_angle_alpha                90
_cell_angle_beta                 129.74(3)
_cell_angle_gamma                90
_cell_volume                     19714.9
loop_
_atom_site_label
_atom_site_type_symbol
_atom_site_fract_x
_atom_site_fract_y
_atom_site_fract_z
Mn1 Mn 1.0000 0.95218(4) 0.2500
Mn2 Mn 1.0000 0.79296(4) 0.2500
Mn3 Mn 0.981430(14) 0.89964(3) 0.321550(17)
Mn4 Mn 0.909305(14) 0.84560(3) 0.181224(18)
O1 O 1.02909(6) 0.87277(12) 0.24924(8)
O2 O 0.90319(7) 0.94138(13) 0.13631(8)
O3 O 0.96599(6) 0.95640(12) 0.16558(8)
O4 O 1.03669(6) 1.03312(12) 0.26388(8)
O5 O 1.05019(7) 1.00698(13) 0.21138(9)
O6 O 0.88327(7) 0.89138(14) 0.21226(9)
O7 O 0.92526(7) 0.85549(13) 0.29550(8)
O8 O 0.91313(7) 0.73908(13) 0.21910(9)
O9 O 0.97841(7) 0.71267(13) 0.26567(8)
O10 O 1.02310(7) 0.80957(13) 0.36794(8)
O11 O 1.05315(7) 0.78800(12) 0.33416(8)
N1 N 0.93062(10) 1.17249(17) 0.09371(12)
N2 N 1.15659(12) 1.1360(2) 0.30300(16)
N3 N 0.82975(10) 0.8376(2) 0.29792(13)
N4 N 0.92444(10) 0.62560(19) 0.34074(13)
N5 N 1.11004(10) 0.68815(19) 0.50104(12)
N6 N 0.84816(9) 0.80605(18) 0.10966(11)
N7 N 0.99233(8) 0.94276(16) 0.39277(10)
C1 C 0.89563(19) 1.2409(3) 0.1206(2)
H1 H 0.9060 1.2109 0.1494
C2 C 0.8704(2) 1.2996(4) 0.1082(3)
H2 H 0.8631 1.3090 0.1284
C3 C 0.8553(2) 1.3462(4) 0.0656(3)
H3 H 0.8386 1.3867 0.0583
C4 C 0.86474(18) 1.3328(3) 0.0348(2)
H4 H 0.8547 1.3642 0.0067
C5 C 0.90059(14) 1.2613(2) -0.02228(17)
H5 H 0.8837 1.3009 -0.0437
C6 C 0.92159(16) 1.2210(3) -0.03305(18)
H6 H 0.9190 1.2338 -0.0618
C7 C 0.94631(16) 1.1619(3) -0.0021(2)
H7 H 0.9604 1.1360 -0.0102
C8 C 0.95091(14) 1.1397(2) 0.04091(18)
H8 H 0.9673 1.0990 0.0612
C9 C 0.90552(14) 1.2268(2) 0.08941(18)
C10 C 0.88954(14) 1.2717(2) 0.04547(18)
C11 C 0.90498(12) 1.2419(2) 0.02159(16)
C12 C 0.93003(12) 1.1808(2) 0.05249(15)
C13 C 0.94614(12) 1.1061(2) 0.12730(14)
H9 H 0.9510 1.1189 0.1589
H10 H 0.9715 1.0907 0.1363
C14 C 0.91607(11) 1.0403(2) 0.10032(13)
H11 H 0.8898 1.0580 0.0874
H12 H 0.9138 1.0236 0.0711
C15 C 0.92881(10) 0.97409(18) 0.13629(12)
C16 C 1.13351(18) 1.2701(3) 0.2792(2)
H13 H 1.1069 1.2584 0.2514
C17 C 1.1466(2) 1.3471(3) 0.2937(3)
H14 H 1.1283 1.3866 0.2758
C18 C 1.1864(2) 1.3630(3) 0.3343(3)
H15 H 1.1947 1.4132 0.3438
C19 C 1.2134(2) 1.3065(3) 0.3604(3)
H16 H 1.2404 1.3182 0.3865
C20 C 1.26022(17) 1.1368(4) 0.4147(3)
H17 H 1.2805 1.1729 0.4339
C21 C 1.26808(18) 1.0612(4) 0.4282(3)
H18 H 1.2939 1.0467 0.4569
C22 C 1.23828(19) 1.0058(4) 0.3999(3)
H19 H 1.2444 0.9553 0.4104
C23 C 1.19981(17) 1.0251(3) 0.3566(2)
H20 H 1.1799 0.9885 0.3371
C24 C 1.16187(15) 1.2141(3) 0.3079(2)
C25 C 1.20149(16) 1.2308(3) 0.3489(2)
C26 C 1.22118(16) 1.1586(3) 0.3716(2)
C27 C 1.19221(15) 1.1008(3) 0.3433(2)
C28 C 1.11808(14) 1.0968(3) 0.26532(19)
H21 H 1.1232 1.0466 0.2588
H22 H 1.1023 1.1248 0.2331
C29 C 1.09435(12) 1.0894(2) 0.28366(16)
H23 H 1.0861 1.1396 0.2856
H24 H 1.1116 1.0680 0.3181
C30 C 1.05737(10) 1.03983(19) 0.24895(13)
C31 C 1.17742(16) 0.7461(3) 0.5583(2)
H25 H 1.1697 0.7934 0.5422
C32 C 1.21777(18) 0.7302(4) 0.6016(3)
H26 H 1.2374 0.7674 0.6143
C33 C 1.22872(19) 0.6581(4) 0.6261(3)
H27 H 1.2552 0.6499 0.6555
C34 C 1.20158(18) 0.6006(4) 0.6078(2)
H28 H 1.2095 0.5537 0.6242
C35 C 1.11904(18) 0.4901(3) 0.5335(2)
H29 H 1.1395 0.4580 0.5588
C36 C 1.08037(19) 0.4626(3) 0.4952(3)
H30 H 1.0752 0.4109 0.4939
C37 C 1.04961(17) 0.5107(3) 0.4592(2)
H31 H 1.0237 0.4914 0.4353
C38 C 1.05644(14) 0.5872(3) 0.45775(19)
H32 H 1.0357 0.6192 0.4328
C39 C 1.15014(13) 0.6878(3) 0.54104(16)
C40 C 1.16125(15) 0.6134(3) 0.56354(16)
C41 C 1.12630(14) 0.5669(3) 0.53282(17)
C42 C 1.09493(13) 0.6143(2) 0.49452(15)
C43 C 1.08666(12) 0.7490(2) 0.46409(13)
H33 H 1.0992 0.7975 0.4803
H34 H 1.0598 0.7492 0.4533
C44 C 1.08403(12) 0.7387(3) 0.41706(14)
H35 H 1.1096 0.7534 0.4264
H36 H 1.0799 0.6852 0.4081
C45 C 1.05093(10) 0.78369(18) 0.36996(12)
C46 C 0.97188(14) 0.7231(2) 0.40657(18)
H37 H 0.9676 0.7589 0.3832
C47 C 0.99873(15) 0.7367(3) 0.45991(19)
H38 H 1.0126 0.7826 0.4721
C48 C 1.00515(15) 0.6834(3) 0.49505(19)
H39 H 1.0239 0.6933 0.5302
C49 C 0.98401(14) 0.6164(2) 0.47810(17)
H40 H 0.9876 0.5818 0.5016
C50 C 0.92287(13) 0.4683(2) 0.40688(17)
H41 H 0.9347 0.4566 0.4408
C51 C 0.89663(15) 0.4189(3) 0.36797(19)
H42 H 0.8910 0.3728 0.3756
C52 C 0.87823(15) 0.4369(3) 0.3170(2)
H43 H 0.8602 0.4024 0.2912
C53 C 0.88576(13) 0.5037(3) 0.30337(18)
H44 H 0.8736 0.5146 0.2692
C54 C 0.95204(12) 0.6536(2) 0.39039(15)
C55 C 0.95714(12) 0.6002(2) 0.42546(15)
C56 C 0.93168(11) 0.5367(2) 0.39493(15)
C57 C 0.91253(12) 0.5542(2) 0.34315(16)
C58 C 0.91411(13) 0.6629(3) 0.29497(16)
H45 H 0.9126 0.7173 0.2980
H46 H 0.8878 0.6456 0.2648
C59 C 0.94432(12) 0.6468(2) 0.28771(16)
H47 H 0.9389 0.5969 0.2722
H48 H 0.9710 0.6453 0.3213
C60 C 0.94432(10) 0.70445(19) 0.25425(13)
C61 C 0.84863(13) 0.7070(3) 0.33725(16)
H49 H 0.8718 0.7028 0.3410
C62 C 0.83671(14) 0.6491(3) 0.35243(17)
H50 H 0.8520 0.6049 0.3664
C63 C 0.80197(14) 0.6555(3) 0.34722(18)
H51 H 0.7949 0.6161 0.3584
C64 C 0.77813(13) 0.7197(3) 0.32561(17)
H52 H 0.7550 0.7235 0.3221
C65 C 0.73668(14) 0.8901(3) 0.2681(2)
H53 H 0.7193 0.8689 0.2724
C66 C 0.72859(16) 0.9598(3) 0.2452(2)
H54 H 0.7054 0.9856 0.2336
C67 C 0.75465(17) 0.9929(3) 0.2389(2)
H55 H 0.7486 1.0404 0.2234
C68 C 0.78906(14) 0.9560(3) 0.25540(19)
H56 H 0.8065 0.9780 0.2513
C69 C 0.82469(12) 0.7723(2) 0.31610(15)
C70 C 0.78887(12) 0.7785(2) 0.30922(16)
C71 C 0.77156(12) 0.8513(2) 0.28498(16)
C72 C 0.79721(12) 0.8858(2) 0.27810(16)
C73 C 0.86424(11) 0.8568(3) 0.30159(15)
H57 H 0.8866 0.8238 0.3267
H58 H 0.8723 0.9087 0.3136
C74 C 0.85494(10) 0.8486(2) 0.24972(14)
H59 H 0.8465 0.7968 0.2375
H60 H 0.8328 0.8820 0.2248
C75 C 0.89076(10) 0.86735(19) 0.25294(12)
C76 C 1.02519(10) 0.92861(19) 0.44097(12)
H61 H 1.0464 0.9031 0.4462
C77 C 1.02949(10) 0.94993(19) 0.48391(12)
H62 H 1.0531 0.9387 0.5168
C78 C 0.99847(9) 0.98814(18) 0.47754(12)
C79 C 0.96442(11) 1.0043(2) 0.42709(13)
H63 H 0.9430 1.0309 0.4207
C80 C 0.96261(11) 0.9807(2) 0.38669(13)
H64 H 0.9395 0.9918 0.3533
C81 C 0.82655(15) 0.8451(4) 0.06669(18)
H65 H 0.8376 0.8897 0.0656
C82 C 0.78839(16) 0.8247(4) 0.02281(19)
H66 H 0.7750 0.8543 -0.0068
C83 C 0.77067(12) 0.7617(3) 0.02314(18)
C84 C 0.79299(16) 0.7205(4) 0.0675(2)
H67 H 0.7825 0.6759 0.0696
C85 C 0.83090(15) 0.7442(3) 0.1092(2)
H68 H 0.8452 0.7146 0.1390
N6F N 0.65184(9) 0.69395(18) -0.10966(11)
C81F C 0.67345(15) 0.6549(4) -0.06669(18)
H65F H 0.6624 0.6103 -0.0656
C82F C 0.71161(16) 0.6753(4) -0.02281(19)
H66F H 0.7250 0.6457 0.0068
C83F C 0.72933(12) 0.7383(3) -0.02314(18)
C84F C 0.70701(16) 0.7795(4) -0.0675(2)
H67F H 0.7175 0.8241 -0.0696
C85F C 0.66910(15) 0.7558(3) -0.1092(2)
H68F H 0.6548 0.7854 -0.1390
N7D N 1.00767(8) 1.05724(16) 0.60723(10)
C76D C 0.97481(10) 1.07139(19) 0.55903(12)
H61D H 0.9536 1.0969 0.5538
C77D C 0.97051(10) 1.05007(19) 0.51609(12)
H62D H 0.9469 1.0613 0.4832
C78D C 1.00153(9) 1.01186(18) 0.52246(12)
C79D C 1.03558(11) 0.9957(2) 0.57291(13)
H63D H 1.0570 0.9691 0.5793
C80D C 1.03739(11) 1.0193(2) 0.61331(13)
H64D H 1.0605 1.0082 0.6467
Mn3A Mn 1.018570(14) 0.89964(3) 0.178450(17)
Mn4A Mn 1.090695(14) 0.84560(3) 0.318776(18)
O1A O 0.97091(6) 0.87277(12) 0.25076(8)
O2A O 1.09681(7) 0.94138(13) 0.36369(8)
O3A O 1.03401(6) 0.95640(12) 0.33442(8)
O4A O 0.96331(6) 1.03312(12) 0.23612(8)
O5A O 0.94981(7) 1.00698(13) 0.28862(9)
O6A O 1.11673(7) 0.89138(14) 0.28774(9)
O7A O 1.07474(7) 0.85549(13) 0.20450(8)
O8A O 1.08687(7) 0.73908(13) 0.28090(9)
O9A O 1.02159(7) 0.71267(13) 0.23433(8)
O10A O 0.97690(7) 0.80957(13) 0.13206(8)
O11A O 0.94685(7) 0.78800(12) 0.16584(8)
N1A N 1.06938(10) 1.17249(17) 0.40629(12)
N2A N 0.84341(12) 1.1360(2) 0.19700(16)
N3A N 1.17025(10) 0.8376(2) 0.20208(13)
N4A N 1.07556(10) 0.62560(19) 0.15926(13)
N5A N 0.88996(10) 0.68815(19) -0.00104(12)
C1A C 1.10437(19) 1.2409(3) 0.3794(2)
H1A H 1.0940 1.2109 0.3506
C2A C 1.1296(2) 1.2996(4) 0.3918(3)
H2A H 1.1369 1.3090 0.3716
C3A C 1.1447(2) 1.3462(4) 0.4344(3)
H3A H 1.1614 1.3867 0.4417
C4A C 1.13526(18) 1.3328(3) 0.4652(2)
H4A H 1.1453 1.3642 0.4933
C5A C 1.09941(14) 1.2613(2) 0.52228(17)
H5A H 1.1163 1.3009 0.5437
C6A C 1.07841(16) 1.2210(3) 0.53305(18)
H6A H 1.0810 1.2338 0.5618
C7A C 1.05369(16) 1.1619(3) 0.5021(2)
H7A H 1.0396 1.1360 0.5102
C8A C 1.04909(14) 1.1397(2) 0.45909(18)
H8A H 1.0327 1.0990 0.4388
C9A C 1.09448(14) 1.2268(2) 0.41059(18)
C10A C 1.11046(14) 1.2717(2) 0.45453(18)
C11A C 1.09502(12) 1.2419(2) 0.47841(16)
C12A C 1.06997(12) 1.1808(2) 0.44751(15)
C13A C 1.05386(12) 1.1061(2) 0.37270(14)
H9A H 1.0490 1.1189 0.3411
H10A H 1.0285 1.0907 0.3637
C14A C 1.08393(11) 1.0403(2) 0.39968(13)
H11A H 1.1102 1.0580 0.4126
H12A H 1.0862 1.0236 0.4289
C15A C 1.07119(10) 0.97409(18) 0.36371(12)
C16A C 0.86649(18) 1.2701(3) 0.2208(2)
H13A H 0.8931 1.2584 0.2486
C17A C 0.8534(2) 1.3471(3) 0.2063(3)
H14A H 0.8717 1.3866 0.2242
C18A C 0.8136(2) 1.3630(3) 0.1657(3)
H15A H 0.8053 1.4132 0.1562
C19A C 0.7866(2) 1.3065(3) 0.1396(3)
H16A H 0.7596 1.3182 0.1135
C20A C 0.73978(17) 1.1368(4) 0.0853(3)
H17A H 0.7195 1.1729 0.0661
C21A C 0.73192(18) 1.0612(4) 0.0718(3)
H18A H 0.7061 1.0467 0.0431
C22A C 0.76172(19) 1.0058(4) 0.1001(3)
H19A H 0.7556 0.9553 0.0896
C23A C 0.80019(17) 1.0251(3) 0.1434(2)
H20A H 0.8201 0.9885 0.1629
C24A C 0.83813(15) 1.2141(3) 0.1921(2)
C25A C 0.79851(16) 1.2308(3) 0.1511(2)
C26A C 0.77882(16) 1.1586(3) 0.1284(2)
C27A C 0.80779(15) 1.1008(3) 0.1567(2)
C28A C 0.88192(14) 1.0968(3) 0.23468(19)
H21A H 0.8768 1.0466 0.2412
H22A H 0.8977 1.1248 0.2669
C29A C 0.90565(12) 1.0894(2) 0.21634(16)
H23A H 0.9139 1.1396 0.2144
H24A H 0.8884 1.0680 0.1819
C30A C 0.94263(10) 1.03983(19) 0.25105(13)
C31A C 0.82258(16) 0.7461(3) -0.0583(2)
H25A H 0.8303 0.7934 -0.0422
C32A C 0.78223(18) 0.7302(4) -0.1016(3)
H26A H 0.7626 0.7674 -0.1143
C33A C 0.77128(19) 0.6581(4) -0.1261(3)
H27A H 0.7448 0.6499 -0.1555
C34A C 0.79842(18) 0.6006(4) -0.1078(2)
H28A H 0.7905 0.5537 -0.1242
C35A C 0.88096(18) 0.4901(3) -0.0335(2)
H29A H 0.8605 0.4580 -0.0588
C36A C 0.91963(19) 0.4626(3) 0.0048(3)
H30A H 0.9248 0.4109 0.0061
C37A C 0.95039(17) 0.5107(3) 0.0408(2)
H31A H 0.9763 0.4914 0.0647
C38A C 0.94356(14) 0.5872(3) 0.04225(19)
H32A H 0.9643 0.6192 0.0672
C39A C 0.84986(13) 0.6878(3) -0.04104(16)
C40A C 0.83875(15) 0.6134(3) -0.06354(16)
C41A C 0.87370(14) 0.5669(3) -0.03282(17)
C42A C 0.90507(13) 0.6143(2) 0.00548(15)
C43A C 0.91334(12) 0.7490(2) 0.03591(13)
H33A H 0.9008 0.7975 0.0197
H34A H 0.9402 0.7492 0.0467
C44A C 0.91597(12) 0.7387(3) 0.08294(14)
H35A H 0.8904 0.7534 0.0736
H36A H 0.9201 0.6852 0.0919
C45A C 0.94907(10) 0.78369(18) 0.13004(12)
C46A C 1.02812(14) 0.7231(2) 0.09343(18)
H37A H 1.0324 0.7589 0.1168
C47A C 1.00127(15) 0.7367(3) 0.04009(19)
H38A H 0.9874 0.7826 0.0279
C48A C 0.99485(15) 0.6834(3) 0.00495(19)
H39A H 0.9761 0.6933 -0.0302
C49A C 1.01599(14) 0.6164(2) 0.02190(17)
H40A H 1.0124 0.5818 -0.0016
C50A C 1.07713(13) 0.4683(2) 0.09312(17)
H41A H 1.0653 0.4566 0.0592
C51A C 1.10337(15) 0.4189(3) 0.13203(19)
H42A H 1.1090 0.3728 0.1244
C52A C 1.12177(15) 0.4369(3) 0.1830(2)
H43A H 1.1398 0.4024 0.2088
C53A C 1.11424(13) 0.5037(3) 0.19663(18)
H44A H 1.1264 0.5146 0.2308
C54A C 1.04796(12) 0.6536(2) 0.10961(15)
C55A C 1.04286(12) 0.6002(2) 0.07454(15)
C56A C 1.06832(11) 0.5367(2) 0.10507(15)
C57A C 1.08747(12) 0.5542(2) 0.15685(16)
C58A C 1.08589(13) 0.6629(3) 0.20503(16)
H45A H 1.0874 0.7173 0.2020
H46A H 1.1122 0.6456 0.2352
C59A C 1.05568(12) 0.6468(2) 0.21229(16)
H47A H 1.0611 0.5969 0.2278
H48A H 1.0290 0.6453 0.1787
C60A C 1.05568(10) 0.70445(19) 0.24575(13)
C61A C 1.15137(13) 0.7070(3) 0.16275(16)
H49A H 1.1282 0.7028 0.1590
C62A C 1.16329(14) 0.6491(3) 0.14757(17)
H50A H 1.1480 0.6049 0.1336
C63A C 1.19803(14) 0.6555(3) 0.15278(18)
H51A H 1.2051 0.6161 0.1416
C64A C 1.22187(13) 0.7197(3) 0.17439(17)
H52A H 1.2450 0.7235 0.1779
C65A C 1.26332(14) 0.8901(3) 0.2319(2)
H53A H 1.2807 0.8689 0.2276
C66A C 1.27141(16) 0.9598(3) 0.2548(2)
H54A H 1.2946 0.9856 0.2664
C67A C 1.24535(17) 0.9929(3) 0.2611(2)
H55A H 1.2514 1.0404 0.2766
C68A C 1.21094(14) 0.9560(3) 0.24460(19)
H56A H 1.1935 0.9780 0.2487
C69A C 1.17531(12) 0.7723(2) 0.18390(15)
C70A C 1.21113(12) 0.7785(2) 0.19078(16)
C71A C 1.22844(12) 0.8513(2) 0.21502(16)
C72A C 1.20279(12) 0.8858(2) 0.22190(16)
C73A C 1.13576(11) 0.8568(3) 0.19841(15)
H57A H 1.1134 0.8238 0.1733
H58A H 1.1277 0.9087 0.1864
C74A C 1.14506(10) 0.8486(2) 0.25028(14)
H59A H 1.1535 0.7968 0.2625
H60A H 1.1672 0.8820 0.2752
C75A C 1.10924(10) 0.86735(19) 0.24706(12)
Mn3D Mn 1.018570(14) 1.10036(3) 0.678450(17)
Mn4F Mn 0.590695(14) 0.65440(3) -0.181224(18)
N6A N 1.15184(9) 0.80605(18) 0.39034(11)
N7A N 1.00767(8) 0.94276(16) 0.10723(10)
loop_
_geom_bond_atom_site_label_1
_geom_bond_atom_site_label_2
_geom_bond_site_symmetry_1
_geom_bond_site_symmetry_2
Mn1 Mn2 1_555 1_555
Mn2 O1 1_555 1_555
Mn3 Mn1 1_555 1_555
Mn4 O2 1_555 1_555
O1 Mn1 1_555 1_555
O2 C15 1_555 1_555
O3 Mn1 1_555 1_555
O4 Mn1 1_555 1_555
O5 C30 1_555 1_555
O6 Mn4 1_555 1_555
O7 Mn3 1_555 1_555
O8 Mn4 1_555 1_555
O9 Mn2 1_555 1_555
O10 Mn3 1_555 1_555
O11 Mn2 1_555 1_555
N1 C9 1_555 1_555
N2 C24 1_555 1_555
N3 C69 1_555 1_555
N4 C54 1_555 1_555
N5 C39 1_555 1_555
N6 Mn4 1_555 1_555
N7 Mn3 1_555 1_555
C1 H1 1_555 1_555
C2 C1 1_555 1_555
H2 C2 1_555 1_555
C3 C2 1_555 1_555
H3 C3 1_555 1_555
C4 C3 1_555 1_555
H4 C4 1_555 1_555
C5 H5 1_555 1_555
C6 C5 1_555 1_555
H6 C6 1_555 1_555
C7 C6 1_555 1_555
H7 C7 1_555 1_555
C8 C7 1_555 1_555
H8 C8 1_555 1_555
C9 C1 1_555 1_555
C10 C4 1_555 1_555
C11 C5 1_555 1_555
C12 N1 1_555 1_555
C13 N1 1_555 1_555
H9 C13 1_555 1_555
H10 C13 1_555 1_555
C14 C13 1_555 1_555
H11 C14 1_555 1_555
H12 C14 1_555 1_555
C15 O3 1_555 1_555
C16 H13 1_555 1_555
C17 C16 1_555 1_555
H14 C17 1_555 1_555
C18 C17 1_555 1_555
H15 C18 1_555 1_555
C19 C18 1_555 1_555
H16 C19 1_555 1_555
C20 H17 1_555 1_555
C21 C20 1_555 1_555
H18 C21 1_555 1_555
C22 C21 1_555 1_555
H19 C22 1_555 1_555
C23 C22 1_555 1_555
H20 C23 1_555 1_555
C24 C16 1_555 1_555
C25 C19 1_555 1_555
C26 C20 1_555 1_555
C27 N2 1_555 1_555
C28 N2 1_555 1_555
H21 C28 1_555 1_555
H22 C28 1_555 1_555
C29 C28 1_555 1_555
H23 C29 1_555 1_555
H24 C29 1_555 1_555
C30 O4 1_555 1_555
C31 H25 1_555 1_555
C32 C31 1_555 1_555
H26 C32 1_555 1_555
C33 C32 1_555 1_555
H27 C33 1_555 1_555
C34 C33 1_555 1_555
H28 C34 1_555 1_555
C35 H29 1_555 1_555
C36 C35 1_555 1_555
H30 C36 1_555 1_555
C37 C36 1_555 1_555
H31 C37 1_555 1_555
C38 C37 1_555 1_555
H32 C38 1_555 1_555
C39 C31 1_555 1_555
C40 C34 1_555 1_555
C41 C35 1_555 1_555
C42 N5 1_555 1_555
C43 N5 1_555 1_555
H33 C43 1_555 1_555
H34 C43 1_555 1_555
C44 C43 1_555 1_555
H35 C44 1_555 1_555
H36 C44 1_555 1_555
C45 O10 1_555 1_555
C46 H37 1_555 1_555
C47 C46 1_555 1_555
H38 C47 1_555 1_555
C48 C47 1_555 1_555
H39 C48 1_555 1_555
C49 C48 1_555 1_555
H40 C49 1_555 1_555
C50 H41 1_555 1_555
C51 C50 1_555 1_555
H42 C51 1_555 1_555
C52 C51 1_555 1_555
H43 C52 1_555 1_555
C53 C52 1_555 1_555
H44 C53 1_555 1_555
C54 C46 1_555 1_555
C55 C49 1_555 1_555
C56 C50 1_555 1_555
C57 N4 1_555 1_555
C58 N4 1_555 1_555
H45 C58 1_555 1_555
H46 C58 1_555 1_555
C59 C58 1_555 1_555
H47 C59 1_555 1_555
H48 C59 1_555 1_555
C60 O8 1_555 1_555
C61 H49 1_555 1_555
C62 C61 1_555 1_555
H50 C62 1_555 1_555
C63 C62 1_555 1_555
H51 C63 1_555 1_555
C64 C63 1_555 1_555
H52 C64 1_555 1_555
C65 H53 1_555 1_555
C66 C65 1_555 1_555
H54 C66 1_555 1_555
C67 C66 1_555 1_555
H55 C67 1_555 1_555
C68 C67 1_555 1_555
H56 C68 1_555 1_555
C69 C61 1_555 1_555
C70 C64 1_555 1_555
C71 C65 1_555 1_555
C72 N3 1_555 1_555
C73 N3 1_555 1_555
H57 C73 1_555 1_555
H58 C73 1_555 1_555
C74 C73 1_555 1_555
H59 C74 1_555 1_555
H60 C74 1_555 1_555
C75 O6 1_555 1_555
C76 N7 1_555 1_555
H61 C76 1_555 1_555
C77 C76 1_555 1_555
H62 C77 1_555 1_555
C78 C77 1_555 1_555
C79 C78 1_555 1_555
H63 C79 1_555 1_555
C80 N7 1_555 1_555
H64 C80 1_555 1_555
C81 N6 1_555 1_555
H65 C81 1_555 1_555
C82 C81 1_555 1_555
H66 C82 1_555 1_555
C83 C82 1_555 1_555
C84 C83 1_555 1_555
H67 C84 1_555 1_555
C85 N6 1_555 1_555
H68 C85 1_555 1_555
N6F C81F 1_555 1_555
C81F H65F 1_555 1_555
C82F C81F 1_555 1_555
H66F C82F 1_555 1_555
C83F C83 1_555 1_555
C84F C83F 1_555 1_555
H67F C84F 1_555 1_555
C85F N6F 1_555 1_555
H68F C85F 1_555 1_555
N7D C76D 1_555 1_555
C76D H61D 1_555 1_555
C77D C76D 1_555 1_555
H62D C77D 1_555 1_555
C78D C78 1_555 1_555
C79D C78D 1_555 1_555
H63D C79D 1_555 1_555
C80D N7D 1_555 1_555
H64D C80D 1_555 1_555
Mn3A Mn1 1_555 1_555
Mn4A O1 1_555 1_555
O1A Mn1 1_555 1_555
O2A Mn4A 1_555 1_555
O3A Mn1 1_555 1_555
O4A Mn1 1_555 1_555
O5A Mn3 1_555 1_555
O6A Mn4A 1_555 1_555
O7A Mn3A 1_555 1_555
O8A Mn4A 1_555 1_555
O9A Mn2 1_555 1_555
O10A Mn3A 1_555 1_555
O11A Mn2 1_555 1_555
N1A C9A 1_555 1_555
N2A C24A 1_555 1_555
N3A C69A 1_555 1_555
N4A C54A 1_555 1_555
N5A C39A 1_555 1_555
C1A H1A 1_555 1_555
C2A C1A 1_555 1_555
H2A C2A 1_555 1_555
C3A C2A 1_555 1_555
H3A C3A 1_555 1_555
C4A C3A 1_555 1_555
H4A C4A 1_555 1_555
C5A H5A 1_555 1_555
C6A C5A 1_555 1_555
H6A C6A 1_555 1_555
C7A C6A 1_555 1_555
H7A C7A 1_555 1_555
C8A C7A 1_555 1_555
H8A C8A 1_555 1_555
C9A C1A 1_555 1_555
C10A C4A 1_555 1_555
C11A C5A 1_555 1_555
C12A N1A 1_555 1_555
C13A N1A 1_555 1_555
H9A C13A 1_555 1_555
H10A C13A 1_555 1_555
C14A C13A 1_555 1_555
H11A C14A 1_555 1_555
H12A C14A 1_555 1_555
C15A O2A 1_555 1_555
C16A H13A 1_555 1_555
C17A C16A 1_555 1_555
H14A C17A 1_555 1_555
C18A C17A 1_555 1_555
H15A C18A 1_555 1_555
C19A C18A 1_555 1_555
H16A C19A 1_555 1_555
C20A H17A 1_555 1_555
C21A C20A 1_555 1_555
H18A C21A 1_555 1_555
C22A C21A 1_555 1_555
H19A C22A 1_555 1_555
C23A C22A 1_555 1_555
H20A C23A 1_555 1_555
C24A C16A 1_555 1_555
C25A C19A 1_555 1_555
C26A C20A 1_555 1_555
C27A N2A 1_555 1_555
C28A N2A 1_555 1_555
H21A C28A 1_555 1_555
H22A C28A 1_555 1_555
C29A C28A 1_555 1_555
H23A C29A 1_555 1_555
H24A C29A 1_555 1_555
C30A O4A 1_555 1_555
C31A H25A 1_555 1_555
C32A C31A 1_555 1_555
H26A C32A 1_555 1_555
C33A C32A 1_555 1_555
H27A C33A 1_555 1_555
C34A C33A 1_555 1_555
H28A C34A 1_555 1_555
C35A H29A 1_555 1_555
C36A C35A 1_555 1_555
H30A C36A 1_555 1_555
C37A C36A 1_555 1_555
H31A C37A 1_555 1_555
C38A C37A 1_555 1_555
H32A C38A 1_555 1_555
C39A C31A 1_555 1_555
C40A C34A 1_555 1_555
C41A C35A 1_555 1_555
C42A N5A 1_555 1_555
C43A N5A 1_555 1_555
H33A C43A 1_555 1_555
H34A C43A 1_555 1_555
C44A C43A 1_555 1_555
H35A C44A 1_555 1_555
H36A C44A 1_555 1_555
C45A O10A 1_555 1_555
C46A H37A 1_555 1_555
C47A C46A 1_555 1_555
H38A C47A 1_555 1_555
C48A C47A 1_555 1_555
H39A C48A 1_555 1_555
C49A C48A 1_555 1_555
H40A C49A 1_555 1_555
C50A H41A 1_555 1_555
C51A C50A 1_555 1_555
H42A C51A 1_555 1_555
C52A C51A 1_555 1_555
H43A C52A 1_555 1_555
C53A C52A 1_555 1_555
H44A C53A 1_555 1_555
C54A C46A 1_555 1_555
C55A C49A 1_555 1_555
C56A C50A 1_555 1_555
C57A N4A 1_555 1_555
C58A N4A 1_555 1_555
H45A C58A 1_555 1_555
H46A C58A 1_555 1_555
C59A C58A 1_555 1_555
H47A C59A 1_555 1_555
H48A C59A 1_555 1_555
C60A O8A 1_555 1_555
C61A H49A 1_555 1_555
C62A C61A 1_555 1_555
H50A C62A 1_555 1_555
C63A C62A 1_555 1_555
H51A C63A 1_555 1_555
C64A C63A 1_555 1_555
H52A C64A 1_555 1_555
C65A H53A 1_555 1_555
C66A C65A 1_555 1_555
H54A C66A 1_555 1_555
C67A C66A 1_555 1_555
H55A C67A 1_555 1_555
C68A C67A 1_555 1_555
H56A C68A 1_555 1_555
C69A C61A 1_555 1_555
C70A C64A 1_555 1_555
C71A C65A 1_555 1_555
C72A N3A 1_555 1_555
C73A N3A 1_555 1_555
H57A C73A 1_555 1_555
H58A C73A 1_555 1_555
C74A C73A 1_555 1_555
H59A C74A 1_555 1_555
H60A C74A 1_555 1_555
C75A O6A 1_555 1_555
Mn3D N7D 1_555 1_555
Mn4F N6F 1_555 1_555
N6A Mn4A 1_555 1_555
N7A Mn3A 1_555 1_555
Mn2 O1A 1_555 1_555
Mn3 O1A 1_555 1_555
Mn3 O3A 1_555 1_555
Mn4 O1A 1_555 1_555
Mn4 O11A 1_555 1_555
O1 Mn3A 1_555 1_555
O3 Mn3A 1_555 1_555
O5 Mn3A 1_555 1_555
O7 C75 1_555 1_555
O9 C60 1_555 1_555
O11 C45 1_555 1_555
O11 Mn4A 1_555 1_555
C8 C12 1_555 1_555
C9 C10 1_555 1_555
C10 C11 1_555 1_555
C11 C12 1_555 1_555
C14 C15 1_555 1_555
C23 C27 1_555 1_555
C24 C25 1_555 1_555
C25 C26 1_555 1_555
C26 C27 1_555 1_555
C29 C30 1_555 1_555
C38 C42 1_555 1_555
C39 C40 1_555 1_555
C40 C41 1_555 1_555
C41 C42 1_555 1_555
C44 C45 1_555 1_555
C53 C57 1_555 1_555
C54 C55 1_555 1_555
C55 C56 1_555 1_555
C56 C57 1_555 1_555
C59 C60 1_555 1_555
C68 C72 1_555 1_555
C69 C70 1_555 1_555
C70 C71 1_555 1_555
C71 C72 1_555 1_555
C74 C75 1_555 1_555
C79 C80 1_555 1_555
C84 C85 1_555 1_555
C82F C83F 1_555 1_555
C84F C85F 1_555 1_555
C77D C78D 1_555 1_555
C79D C80D 1_555 1_555
O3A C15A 1_555 1_555
O5A C30A 1_555 1_555
O7A C75A 1_555 1_555
O9A C60A 1_555 1_555
O11A C45A 1_555 1_555
C8A C12A 1_555 1_555
C9A C10A 1_555 1_555
C10A C11A 1_555 1_555
C11A C12A 1_555 1_555
C14A C15A 1_555 1_555
C23A C27A 1_555 1_555
C24A C25A 1_555 1_555
C25A C26A 1_555 1_555
C26A C27A 1_555 1_555
C29A C30A 1_555 1_555
C38A C42A 1_555 1_555
C39A C40A 1_555 1_555
C40A C41A 1_555 1_555
C41A C42A 1_555 1_555
C44A C45A 1_555 1_555
C53A C57A 1_555 1_555
C54A C55A 1_555 1_555
C55A C56A 1_555 1_555
C56A C57A 1_555 1_555
C59A C60A 1_555 1_555
C68A C72A 1_555 1_555
C69A C70A 1_555 1_555
C70A C71A 1_555 1_555
C71A C72A 1_555 1_555
C74A C75A 1_555 1_555

#END
