
#######################################################################
#
#                 Cambridge Crystallographic Data Centre
#                                CCDC 
#
#######################################################################
#
# If this CIF has been generated from an entry in the Cambridge 
# Structural Database, then it will include bibliographic, chemical, 
# crystal, experimental, refinement or atomic coordinate data resulting 
# from the CCDC's data processing and validation procedures.
#
#######################################################################

data_XUHZEG
_symmetry_cell_setting           monoclinic
_symmetry_space_group_name_H-M   'P 21/c'
_symmetry_Int_Tables_number      14
_space_group_name_Hall           '-P 2ybc'
loop_
_symmetry_equiv_pos_site_id
_symmetry_equiv_pos_as_xyz
1 x,y,z
2 -x,1/2+y,1/2-z
3 -x,-y,-z
4 x,1/2-y,1/2+z
_cell_length_a                   28.380(3)
_cell_length_b                   13.5975(16)
_cell_length_c                   6.2489(7)
_cell_angle_alpha                90
_cell_angle_beta                 90.406(2)
_cell_angle_gamma                90
_cell_volume                     2411.37
loop_
_atom_site_label
_atom_site_type_symbol
_atom_site_fract_x
_atom_site_fract_y
_atom_site_fract_z
C1 C 0.10974(16) 0.3599(3) 0.7244(7)
C2 C 0.16021(16) 0.3700(3) 0.6642(7)
C3 C 0.17355(16) 0.4187(3) 0.4767(7)
H1 H 0.1501 0.4474 0.3872
C4 C 0.22046(16) 0.4256(3) 0.4205(7)
H2 H 0.2291 0.4587 0.2928
C5 C 0.25510(17) 0.3839(3) 0.5512(7)
C6 C 0.24180(16) 0.3384(3) 0.7427(7)
H3 H 0.2653 0.3128 0.8360
C7 C 0.19482(16) 0.3304(3) 0.7977(7)
H4 H 0.1862 0.2980 0.9263
C8 C 0.31730(18) 0.3759(3) 0.3101(8)
H5 H 0.2939 0.3647 0.2033
C9 C 0.36555(17) 0.3797(3) 0.2434(8)
C10 C 0.37848(19) 0.3515(4) 0.0359(8)
H6 H 0.3547 0.3308 -0.0620
C11 C 0.42459(19) 0.3531(4) -0.0295(8)
H7 H 0.4326 0.3330 -0.1702
C12 C 0.45962(19) 0.3848(4) 0.1137(9)
C13 C 0.44739(19) 0.4132(4) 0.3185(8)
H8 H 0.4711 0.4355 0.4150
C14 C 0.40142(18) 0.4096(4) 0.3838(7)
H9 H 0.3938 0.4277 0.5263
C15 C -0.02892(16) 0.1362(3) 1.1831(7)
C16 C -0.07890(15) 0.1289(3) 1.2529(7)
C17 C -0.11442(16) 0.1683(3) 1.1246(7)
H10 H -0.1067 0.1991 0.9929
C18 C -0.16087(16) 0.1629(3) 1.1882(7)
H11 H -0.1849 0.1884 1.0972
C19 C -0.17313(16) 0.1207(3) 1.3842(7)
C20 C -0.13723(15) 0.0808(3) 1.5138(7)
H12 H -0.1448 0.0512 1.6469
C21 C -0.09093(15) 0.0846(3) 1.4470(7)
H13 H -0.0669 0.0567 1.5344
C22 C -0.23522(16) 0.1242(3) 1.6271(7)
H14 H -0.2124 0.1326 1.7374
C23 C -0.28450(16) 0.1191(3) 1.6832(7)
C24 C -0.31901(17) 0.0953(4) 1.5303(8)
H15 H -0.3096 0.0805 1.3883
C25 C -0.36609(18) 0.0926(4) 1.5797(8)
H16 H -0.3888 0.0753 1.4739
C26 C -0.38002(17) 0.1157(4) 1.7873(8)
C27 C -0.34683(19) 0.1401(4) 1.9422(8)
H17 H -0.3565 0.1561 2.0832
C28 C -0.29926(17) 0.1412(3) 1.8905(7)
H18 H -0.2765 0.1572 1.9973
N1 N 0.30356(14) 0.3865(3) 0.5038(6)
N2 N -0.22158(14) 0.1177(3) 1.4333(6)
O1 O 0.09703(11) 0.2998(2) 0.8600(5)
O2 O 0.08100(10) 0.4200(2) 0.6254(5)
O3 O 0.50513(14) 0.3871(4) 0.0516(7)
H19 H 0.5087 0.3501 -0.0546
O4 O -0.01720(11) 0.1986(2) 1.0473(4)
O5 O 0.00005(11) 0.0748(2) 1.2715(5)
H20 H 0.0266 0.0799 1.2138
O6 O -0.42662(13) 0.1110(4) 1.8409(7)
H21 H -0.4433 0.1150 1.7296
Tl1 Tl 0.036721(6) 0.143342(12) 0.70172(2)
O1C O 0.09703(11) 0.2002(2) 0.3600(5)
O2C O 0.08100(10) 0.0800(2) 1.1254(5)
O4C O -0.01720(11) 0.3014(2) 0.5473(4)
O5_2 O 0.00005(11) 0.0748(2) 0.2715(5)
O5B O -0.00005(11) -0.0748(2) 0.7285(5)
H20_2 H 0.0266 0.0799 0.2138
H20B H -0.0266 -0.0799 0.7862
Tl1C Tl 0.036721(6) 0.356658(12) 1.20172(2)
Tl1C_2 Tl 0.036721(6) 0.356658(12) 0.20172(2)
Tl1_2 Tl 0.036721(6) 0.143342(12) 1.70172(2)
Tl1B Tl -0.036721(6) -0.143342(12) 1.29828(2)
O7 O -0.4622(2) 0.3218(5) 1.6930(10)
H22 H -0.449(3) 0.268(3) 1.692(15)
H23 H -0.449(3) 0.345(6) 1.580(9)
loop_
_geom_bond_atom_site_label_1
_geom_bond_atom_site_label_2
_geom_bond_site_symmetry_1
_geom_bond_site_symmetry_2
C1 C2 1_555 1_555
C2 C3 1_555 1_555
C3 H1 1_555 1_555
C4 C3 1_555 1_555
H2 C4 1_555 1_555
C5 C4 1_555 1_555
C6 C5 1_555 1_555
H3 C6 1_555 1_555
C7 C2 1_555 1_555
H4 C7 1_555 1_555
C8 H5 1_555 1_555
C9 C8 1_555 1_555
C10 C9 1_555 1_555
H6 C10 1_555 1_555
C11 C10 1_555 1_555
H7 C11 1_555 1_555
C12 C11 1_555 1_555
C13 C12 1_555 1_555
H8 C13 1_555 1_555
C14 C9 1_555 1_555
H9 C14 1_555 1_555
C15 C16 1_555 1_555
C16 C17 1_555 1_555
C17 H10 1_555 1_555
C18 C17 1_555 1_555
H11 C18 1_555 1_555
C19 C18 1_555 1_555
C20 C19 1_555 1_555
H12 C20 1_555 1_555
C21 C16 1_555 1_555
H13 C21 1_555 1_555
C22 H14 1_555 1_555
C23 C22 1_555 1_555
C24 C23 1_555 1_555
H15 C24 1_555 1_555
C25 C24 1_555 1_555
H16 C25 1_555 1_555
C26 C25 1_555 1_555
C27 C26 1_555 1_555
H17 C27 1_555 1_555
C28 C23 1_555 1_555
H18 C28 1_555 1_555
N1 C5 1_555 1_555
N2 C19 1_555 1_555
O1 C1 1_555 1_555
O2 C1 1_555 1_555
O3 C12 1_555 1_555
H19 O3 1_555 1_555
O4 C15 1_555 1_555
O5 C15 1_555 1_555
H20 O5 1_555 1_555
O6 C26 1_555 1_555
H21 O6 1_555 1_555
O7 H22 1_555 1_555
H23 O7 1_555 1_555
Tl1 O1 1_555 1_555
O1C Tl1 1_555 1_555
O2C Tl1 1_555 1_555
O4C Tl1 1_555 1_555
O5_2 Tl1 1_555 1_555
O5B Tl1 1_555 1_555
H20_2 O5_2 1_555 1_555
H20B O5B 1_555 1_555
Tl1C O1 1_555 1_555
Tl1C_2 O2 1_555 1_555
Tl1_2 O5 1_555 1_555
Tl1B O5 1_555 1_555
C6 C7 1_555 1_555
C8 N1 1_555 1_555
C13 C14 1_555 1_555
C20 C21 1_555 1_555
C22 N2 1_555 1_555
C27 C28 1_555 1_555
O4 Tl1 1_555 1_555
O4 Tl1C 1_555 1_555
O1C Tl1C_2 1_555 1_555
O4C Tl1C_2 1_555 1_555

#END
