
#######################################################################
#
#                 Cambridge Crystallographic Data Centre
#                                CCDC 
#
#######################################################################
#
# If this CIF has been generated from an entry in the Cambridge 
# Structural Database, then it will include bibliographic, chemical, 
# crystal, experimental, refinement or atomic coordinate data resulting 
# from the CCDC's data processing and validation procedures.
#
#######################################################################

data_XUJBAG
_symmetry_cell_setting           monoclinic
_symmetry_space_group_name_H-M   'P 21/c'
_symmetry_Int_Tables_number      14
_space_group_name_Hall           '-P 2ybc'
loop_
_symmetry_equiv_pos_site_id
_symmetry_equiv_pos_as_xyz
1 x,y,z
2 -x,1/2+y,1/2-z
3 -x,-y,-z
4 x,1/2-y,1/2+z
_cell_length_a                   7.9455(18)
_cell_length_b                   19.045(4)
_cell_length_c                   9.434(2)
_cell_angle_alpha                90
_cell_angle_beta                 98.022(4)
_cell_angle_gamma                90
_cell_volume                     1413.6
loop_
_atom_site_label
_atom_site_type_symbol
_atom_site_fract_x
_atom_site_fract_y
_atom_site_fract_z
Cu1 Cu 0.02272(8) 0.57930(3) 0.04009(8)
C1 C 0.2049(8) 0.6865(4) 0.2131(9)
H1 H 0.0960 0.6946 0.2350
C2 C 0.3759(8) 0.6278(3) 0.0882(7)
H2 H 0.3905 0.5944 0.0192
C3 C 0.3312(9) 0.7274(4) 0.2776(9)
H3 H 0.3102 0.7614 0.3436
C4 C 0.5181(7) 0.6658(3) 0.1490(7)
H4 H 0.6262 0.6565 0.1263
C5 C 0.4898(8) 0.7175(3) 0.2440(7)
C6 C 0.6323(9) 0.7627(4) 0.3136(8)
H5 H 0.6104 0.7888 0.3923
C7 C 0.7842(9) 0.7696(3) 0.2763(8)
H6 H 0.8156 0.7432 0.2013
C8 C 0.9074(7) 0.8207(3) 0.3563(9)
C9 C -0.1393(9) 0.5184(5) 0.2931(9)
C10 C -0.2541(11) 0.4418(5) 0.4574(11)
H7 H -0.2286 0.4067 0.3905
H8 H -0.3739 0.4416 0.4628
H9 H -0.1925 0.4318 0.5501
C11 C -0.2316(13) 0.5711(6) 0.4961(10)
H10 H -0.1928 0.6127 0.4529
H11 H -0.1695 0.5654 0.5903
H12 H -0.3506 0.5756 0.5028
N1 N 0.2230(6) 0.6365(2) 0.1224(5)
N2 N 0.1470(6) 0.4878(2) 0.0638(6)
N3 N 0.2855(6) 0.4731(2) 0.1197(6)
N4 N 0.4178(7) 0.4581(3) 0.1743(7)
N5 N -0.2044(7) 0.5109(4) 0.4097(7)
O1 O 0.8838(5) 0.8402(2) 0.4768(5)
O2 O 1.0245(6) 0.8408(3) 0.2915(6)
O3 O -0.0921(6) 0.5741(2) 0.2450(5)
H13 H -0.093(9) 0.477(4) 0.240(8)
Cu1B Cu -0.02272(8) 0.42070(3) -0.04009(8)
Cu1C Cu 1.02272(8) 0.92070(3) 0.54009(8)
N2B N -0.1470(6) 0.5122(2) -0.0638(6)
O1C O -0.1162(5) 0.6598(2) -0.0232(5)
O2C O 0.0245(6) 0.6592(3) -0.2085(6)
loop_
_geom_bond_atom_site_label_1
_geom_bond_atom_site_label_2
_geom_bond_site_symmetry_1
_geom_bond_site_symmetry_2
Cu1 N1 1_555 1_555
C1 H1 1_555 1_555
C2 H2 1_555 1_555
C3 C1 1_555 1_555
H3 C3 1_555 1_555
C4 C2 1_555 1_555
H4 C4 1_555 1_555
C5 C3 1_555 1_555
C6 C5 1_555 1_555
H5 C6 1_555 1_555
C7 C6 1_555 1_555
H6 C7 1_555 1_555
C8 C7 1_555 1_555
C9 N5 1_555 1_555
C10 H7 1_555 1_555
H8 C10 1_555 1_555
H9 C10 1_555 1_555
C11 H10 1_555 1_555
H11 C11 1_555 1_555
H12 C11 1_555 1_555
N1 C1 1_555 1_555
N2 Cu1 1_555 1_555
N3 N2 1_555 1_555
N4 N3 1_555 1_555
N5 C10 1_555 1_555
O1 C8 1_555 1_555
O2 C8 1_555 1_555
O3 Cu1 1_555 1_555
H13 C9 1_555 1_555
Cu1B N2 1_555 1_555
Cu1C O1 1_555 1_555
N2B Cu1 1_555 1_555
O1C Cu1 1_555 1_555
O2C Cu1 1_555 1_555
C2 N1 1_555 1_555
C4 C5 1_555 1_555
C9 O3 1_555 1_555
C11 N5 1_555 1_555
O2 Cu1C 1_555 1_555
Cu1B N2B 1_555 1_555

#END
