
#######################################################################
#
#                 Cambridge Crystallographic Data Centre
#                                CCDC 
#
#######################################################################
#
# If this CIF has been generated from an entry in the Cambridge 
# Structural Database, then it will include bibliographic, chemical, 
# crystal, experimental, refinement or atomic coordinate data resulting 
# from the CCDC's data processing and validation procedures.
#
#######################################################################

data_XUJCUA
_symmetry_cell_setting           triclinic
_symmetry_space_group_name_H-M   'P -1'
_symmetry_Int_Tables_number      2
_space_group_name_Hall           '-P 1'
loop_
_symmetry_equiv_pos_site_id
_symmetry_equiv_pos_as_xyz
1 x,y,z
2 -x,-y,-z
_cell_length_a                   12.0727(13)
_cell_length_b                   13.0312(14)
_cell_length_c                   13.1699(14)
_cell_angle_alpha                90.269(2)
_cell_angle_beta                 104.349(2)
_cell_angle_gamma                108.637(2)
_cell_volume                     1894.06
loop_
_atom_site_label
_atom_site_type_symbol
_atom_site_fract_x
_atom_site_fract_y
_atom_site_fract_z
Cu1 Cu 0.1016(1) 0.0834(1) 0.0185(1)
Br1 Br -0.0363(1) 0.0359(1) -0.1588(1)
O1 O 0.8472(4) 0.4202(4) -0.2755(3)
O2 O 0.8308(3) 0.3738(3) -0.1149(3)
O3 O 0.6776(3) 0.1808(3) -0.0495(3)
O4 O 0.7204(4) 0.1598(4) 0.1214(3)
N1 N 0.8838(3) 0.7636(3) -0.0735(3)
N2 N 0.7282(3) 0.9109(3) -0.0149(3)
C1 C 0.8583(4) 0.5549(4) -0.1463(4)
C2 C 0.8743(5) 0.6392(5) -0.2102(4)
C3 C 0.8870(5) 0.7405(4) -0.1714(4)
C4 C 0.8668(5) 0.6823(4) -0.0135(4)
C5 C 0.8540(5) 0.5779(4) -0.0456(4)
C6 C 0.8436(5) 0.4437(4) -0.1883(4)
C7 C 0.8207(5) 0.2630(4) -0.1426(5)
C8 C 0.8029(5) 0.2018(5) -0.0507(5)
C9 C 0.6495(5) 0.1605(4) 0.0409(4)
C10 C 0.5170(4) 0.1355(4) 0.0287(4)
C11 C 0.4334(5) 0.1276(5) -0.0671(4)
C12 C 0.6859(4) 0.8943(5) 0.0711(4)
C13 C 0.6481(4) 0.9064(4) -0.1064(4)
C14 C 0.4741(5) 0.1156(5) 0.1155(4)
H1 H 0.8762 0.6268 -0.2792
H2 H 0.8986 0.7965 -0.2153
H3 H 0.8632 0.6965 0.0546
H4 H 0.8426 0.5235 0.0000
H5 H 0.8938 0.2612 -0.1596
H6 H 0.7525 0.2314 -0.2033
H7 H 0.8188 0.1339 -0.0568
H8 H 0.8574 0.2440 0.0136
H9 H 0.4587 0.1371 -0.1287
H10 H 0.7403 0.8980 0.1360
H11 H 0.6756 0.9185 -0.1668
H12 H 0.5267 0.1167 0.1807
C12A C 0.3141(4) 0.1057(5) -0.0711(4)
C11A C 0.5666(5) 0.8724(5) 0.0671(4)
C14A C 0.5259(5) 0.8844(5) -0.1155(4)
C13A C 0.3519(4) 0.0936(4) 0.1064(4)
C10A C 0.4830(4) 0.8645(4) -0.0287(4)
H12A H 0.4733 0.8833 -0.1807
H9A H 0.5413 0.8629 0.1287
N2A N 0.2718(3) 0.0891(3) 0.0149(3)
H10A H 0.2597 0.1020 -0.1360
H11A H 0.3244 0.0815 0.1668
C9A C 0.3505(5) 0.8395(4) -0.0409(4)
Cu1A Cu 0.8984(1) 0.9166(1) -0.0185(1)
O3A O 0.3224(3) 0.8192(3) 0.0495(3)
O4A O 0.2796(4) 0.8402(4) -0.1214(3)
Cu1A_2 Cu -0.1016(1) -0.0834(1) -0.0185(1)
Br1A Br 0.0363(1) -0.0359(1) 0.1588(1)
N1A N 0.1162(3) 0.2364(3) 0.0735(3)
N1_2 N -0.1162(3) -0.2364(3) -0.0735(3)
N2_2 N -0.2718(3) -0.0891(3) -0.0149(3)
C8A C 0.1971(5) 0.7982(5) 0.0507(5)
C7A C 0.1793(5) 0.7370(4) 0.1426(5)
H7A H 0.1812 0.8661 0.0568
H8A H 0.1426 0.7560 -0.0136
O2A O 0.1692(3) 0.6262(3) 0.1149(3)
H5A H 0.1062 0.7388 0.1596
H6A H 0.2475 0.7686 0.2033
C6A C 0.1564(5) 0.5563(4) 0.1883(4)
O1A O 0.1528(4) 0.5798(4) 0.2755(3)
C1A C 0.1417(4) 0.4451(4) 0.1463(4)
C2A C 0.1257(5) 0.3608(5) 0.2102(4)
C5A C 0.1460(5) 0.4221(4) 0.0456(4)
C3A C 0.1130(5) 0.2595(4) 0.1714(4)
H1A H 0.1238 0.3732 0.2792
C4A C 0.1332(5) 0.3177(4) 0.0135(4)
H4A H 0.1574 0.4765 0.0000
H2A H 0.1014 0.2035 0.2153
H3A H 0.1368 0.3035 -0.0546
Cu2 Cu 0.4145(1) 0.8992(1) -0.4853(1)
Br2 Br 0.4427(1) 0.9555(1) -0.6585(1)
O5 O 0.1652(4) 0.2029(5) -0.5893(3)
O6 O 0.1954(3) 0.1582(3) -0.4242(3)
O7 O 0.3959(3) 0.3677(3) -0.3827(3)
O8 O 0.5684(4) 0.4583(3) -0.2651(4)
N3 N -0.2426(3) 0.1110(3) -0.5170(3)
N4 N -0.4419(3) 0.2451(3) -0.5524(3)
C15 C -0.0011(4) 0.1474(4) -0.5146(4)
C16 C -0.0408(4) 0.1215(4) -0.4258(4)
C17 C -0.1604(4) 0.1064(5) -0.4300(4)
C18 C -0.2033(5) 0.1312(5) -0.6034(4)
C19 C -0.0867(5) 0.1492(5) -0.6066(4)
C20 C 0.1279(4) 0.1720(4) -0.5150(4)
C21 C 0.3219(4) 0.1744(4) -0.4149(5)
C22 C 0.4030(5) 0.2673(4) -0.3393(5)
C23 C 0.4839(5) 0.4582(4) -0.3348(4)
C24 C 0.4675(4) 0.5595(4) -0.3784(4)
C25 C 0.3732(4) 0.5614(4) -0.4638(4)
C26 C -0.3655(4) 0.3406(4) -0.5052(4)
C27 C -0.5344(5) 0.2476(4) -0.6320(4)
C28 C 0.5490(5) 0.6581(4) -0.3314(4)
H13 H 0.0122 0.1143 -0.3637
H14 H -0.1852 0.0920 -0.3686
H15 H -0.2593 0.1331 -0.6657
H16 H -0.0647 0.1625 -0.6694
H17 H 0.3376 0.1864 -0.4834
H18 H 0.3393 0.1091 -0.3926
H19 H 0.3795 0.2617 -0.2737
H20 H 0.4856 0.2669 -0.3248
H21 H 0.3163 0.4968 -0.4992
H22 H -0.3028 0.3408 -0.4475
H23 H -0.5918 0.1818 -0.6642
H24 H 0.6141 0.6608 -0.2748
C26A C 0.3655(4) 0.6594(4) -0.4948(4)
C25A C -0.3732(4) 0.4386(4) -0.5362(4)
C28A C -0.5490(5) 0.3419(4) -0.6686(4)
C27A C 0.5344(5) 0.7524(4) -0.3680(4)
C24A C -0.4675(4) 0.4405(4) -0.6216(4)
H24A H -0.6141 0.3392 -0.7252
H21A H -0.3163 0.5032 -0.5008
N4A N 0.4419(3) 0.7549(3) -0.4476(3)
H22A H 0.3028 0.6592 -0.5525
H23A H 0.5918 0.8182 -0.3358
C23A C -0.4839(5) 0.5418(4) -0.6652(4)
Cu2A Cu -0.4145(1) 0.1008(1) -0.5147(1)
Cu2A_2 Cu 0.5855(1) 1.1008(1) -0.5147(1)
Br2A Br 0.5573(1) 1.0445(1) -0.3415(1)
N3A N 0.2426(3) 0.8890(3) -0.4830(3)
O7A O -0.3959(3) 0.6323(3) -0.6173(3)
O8A O -0.5684(4) 0.5417(3) -0.7349(4)
C22A C -0.4030(5) 0.7327(4) -0.6607(5)
C17A C 0.1604(4) 0.8936(5) -0.5700(4)
C18A C 0.2033(5) 0.8688(5) -0.3966(4)
N3_2 N 0.7574(3) 1.1110(3) -0.5170(3)
N4_2 N 0.5581(3) 1.2451(3) -0.5524(3)
C21A C -0.3219(4) 0.8256(4) -0.5851(5)
H19A H -0.3795 0.7383 -0.7263
H20A H -0.4856 0.7331 -0.6752
C16A C 0.0408(4) 0.8785(4) -0.5742(4)
H14A H 0.1852 0.9080 -0.6314
C19A C 0.0867(5) 0.8508(5) -0.3934(4)
H15A H 0.2593 0.8669 -0.3343
C15A C 0.0011(4) 0.8526(4) -0.4854(4)
H16A H 0.0647 0.8375 -0.3306
H13A H -0.0122 0.8857 -0.6363
O6A O -0.1954(3) 0.8418(3) -0.5758(3)
H17A H -0.3376 0.8136 -0.5166
H18A H -0.3393 0.8909 -0.6074
C20A C -0.1279(4) 0.8280(4) -0.4850(4)
O5A O -0.1652(4) 0.7971(5) -0.4107(3)
O9 O 0.1695(18) 0.4730(19) -0.2433(16)
O10 O 0.1570(30) 0.5970(30) -0.2880(20)
O11 O 0.4700(20) 0.4070(20) 0.0460(20)
O12 O 0.3480(20) 0.4180(20) -0.1398(19)
O13? O 0.1790(40) 0.5480(50) -0.2470(40)
O14? O 0.1080(17) 0.3989(16) -0.3307(15)
O15? O 0.5230(30) 0.4140(20) -0.0140(20)
O16? O 0.4440(30) 0.4430(20) -0.0510(20)
loop_
_geom_bond_atom_site_label_1
_geom_bond_atom_site_label_2
_geom_bond_site_symmetry_1
_geom_bond_site_symmetry_2
Cu1 Br1 1_555 1_555
Br1 Cu1A_2 1_555 1_555
O1 C6 1_555 1_555
O2 C6 1_555 1_555
O3 C8 1_555 1_555
O4 C9 1_555 1_555
N1 C3 1_555 1_555
N2 C12 1_555 1_555
C1 C2 1_555 1_555
C2 C3 1_555 1_555
C3 H2 1_555 1_555
C4 N1 1_555 1_555
C5 C1 1_555 1_555
C6 C1 1_555 1_555
C7 O2 1_555 1_555
C8 C7 1_555 1_555
C9 O3 1_555 1_555
C10 C9 1_555 1_555
C11 C10 1_555 1_555
C12 H10 1_555 1_555
C13 N2 1_555 1_555
C14 C10 1_555 1_555
H1 C2 1_555 1_555
H3 C4 1_555 1_555
H4 C5 1_555 1_555
H5 C7 1_555 1_555
H6 C7 1_555 1_555
H7 C8 1_555 1_555
H8 C8 1_555 1_555
H9 C11 1_555 1_555
H11 C13 1_555 1_555
H12 C14 1_555 1_555
Cu2 Br2 1_555 1_555
Br2 Cu2A_2 1_555 1_555
O5 C20 1_555 1_555
O6 C20 1_555 1_555
O7 C22 1_555 1_555
O8 C23 1_555 1_555
N3 C17 1_555 1_555
N4 C26 1_555 1_555
C15 C16 1_555 1_555
C16 C17 1_555 1_555
C17 H14 1_555 1_555
C18 N3 1_555 1_555
C19 C15 1_555 1_555
C20 C15 1_555 1_555
C21 O6 1_555 1_555
C22 C21 1_555 1_555
C23 O7 1_555 1_555
C24 C23 1_555 1_555
C25 C24 1_555 1_555
C26 H22 1_555 1_555
C27 N4 1_555 1_555
C28 C24 1_555 1_555
H13 C16 1_555 1_555
H15 C18 1_555 1_555
H16 C19 1_555 1_555
H17 C21 1_555 1_555
H18 C21 1_555 1_555
H19 C22 1_555 1_555
H20 C22 1_555 1_555
H21 C25 1_555 1_555
H23 C27 1_555 1_555
H24 C28 1_555 1_555
C12A C11 1_555 1_555
C11A C12 1_555 1_555
C14A C13 1_555 1_555
C13A C14 1_555 1_555
C10A C11A 1_555 1_555
H12A C14A 1_555 1_555
H9A C11A 1_555 1_555
N2A Cu1 1_555 1_555
H10A C12A 1_555 1_555
H11A C13A 1_555 1_555
C9A C10A 1_555 1_555
Cu1A N1 1_555 1_555
O3A C9A 1_555 1_555
O4A C9A 1_555 1_555
Cu1A_2 Cu1 1_555 1_555
Br1A Cu1 1_555 1_555
N1A Cu1 1_555 1_555
N1_2 Cu1A_2 1_555 1_555
N2_2 Cu1A_2 1_555 1_555
C8A O3A 1_555 1_555
C7A C8A 1_555 1_555
H7A C8A 1_555 1_555
H8A C8A 1_555 1_555
O2A C7A 1_555 1_555
H5A C7A 1_555 1_555
H6A C7A 1_555 1_555
C6A O2A 1_555 1_555
O1A C6A 1_555 1_555
C1A C6A 1_555 1_555
C2A C1A 1_555 1_555
C5A C1A 1_555 1_555
C3A N1A 1_555 1_555
H1A C2A 1_555 1_555
C4A N1A 1_555 1_555
H4A C5A 1_555 1_555
H2A C3A 1_555 1_555
H3A C4A 1_555 1_555
C26A C25 1_555 1_555
C25A C26 1_555 1_555
C28A C27 1_555 1_555
C27A C28 1_555 1_555
C24A C25A 1_555 1_555
H24A C28A 1_555 1_555
H21A C25A 1_555 1_555
N4A Cu2 1_555 1_555
H22A C26A 1_555 1_555
H23A C27A 1_555 1_555
C23A C24A 1_555 1_555
Cu2A N3 1_555 1_555
Cu2A_2 Cu2 1_555 1_555
Br2A Cu2 1_555 1_555
N3A Cu2 1_555 1_555
O7A C23A 1_555 1_555
O8A C23A 1_555 1_555
C22A O7A 1_555 1_555
C17A N3A 1_555 1_555
C18A N3A 1_555 1_555
N3_2 Cu2A_2 1_555 1_555
N4_2 Cu2A_2 1_555 1_555
C21A C22A 1_555 1_555
H19A C22A 1_555 1_555
H20A C22A 1_555 1_555
C16A C17A 1_555 1_555
H14A C17A 1_555 1_555
C19A C18A 1_555 1_555
H15A C18A 1_555 1_555
C15A C16A 1_555 1_555
H16A C19A 1_555 1_555
H13A C16A 1_555 1_555
O6A C21A 1_555 1_555
H17A C21A 1_555 1_555
H18A C21A 1_555 1_555
C20A C15A 1_555 1_555
O5A C20A 1_555 1_555
N2 Cu1A 1_555 1_555
C4 C5 1_555 1_555
N4 Cu2A 1_555 1_555
C18 C19 1_555 1_555
C12A N2A 1_555 1_555
C14A C10A 1_555 1_555
C13A N2A 1_555 1_555
Cu1A_2 Br1A 1_555 1_555
C2A C3A 1_555 1_555
C5A C4A 1_555 1_555
C26A N4A 1_555 1_555
C28A C24A 1_555 1_555
C27A N4A 1_555 1_555
Cu2A_2 Br2A 1_555 1_555
C19A C15A 1_555 1_555
O6A C20A 1_555 1_555

#END
