
#######################################################################
#
#                 Cambridge Crystallographic Data Centre
#                                CCDC 
#
#######################################################################
#
# If this CIF has been generated from an entry in the Cambridge 
# Structural Database, then it will include bibliographic, chemical, 
# crystal, experimental, refinement or atomic coordinate data resulting 
# from the CCDC's data processing and validation procedures.
#
#######################################################################

data_XUJCOV
_symmetry_cell_setting           orthorhombic
_symmetry_space_group_name_H-M   'P 21 21 21'
_symmetry_Int_Tables_number      19
_space_group_name_Hall           'P 2ac 2ab'
loop_
_symmetry_equiv_pos_site_id
_symmetry_equiv_pos_as_xyz
1 x,y,z
2 1/2-x,-y,1/2+z
3 1/2+x,1/2-y,-z
4 -x,1/2+y,1/2-z
_cell_length_a                   7.307(5)
_cell_length_b                   13.416(5)
_cell_length_c                   16.515(5)
_cell_angle_alpha                90
_cell_angle_beta                 90
_cell_angle_gamma                90
_cell_volume                     1618.98
loop_
_atom_site_label
_atom_site_type_symbol
_atom_site_fract_x
_atom_site_fract_y
_atom_site_fract_z
C1 C 1.0324(6) 0.4421(4) 0.8808(3)
C2 C 0.8758(6) 0.4478(4) 0.9426(3)
H1 H 0.8670 0.5161 0.9634
C3 C 0.6904(7) 0.4183(3) 0.9028(3)
H2 H 0.6666 0.4603 0.8554
C4 C 0.5352(6) 0.4307(3) 0.9659(3)
C5 C 1.2036(8) 0.5148(4) 0.7696(3)
H3 H 1.1782 0.4673 0.7268
H4 H 1.3191 0.4976 0.7950
C6 C 1.2075(13) 0.6193(5) 0.7373(6)
H5 H 1.3066 0.6564 0.7622
H6 H 1.2269 0.6184 0.6792
C7 C 1.0389(13) 0.6643(7) 0.7554(7)
H7 H 0.9611 0.6634 0.7078
H8 H 1.0585 0.7332 0.7710
C8 C 0.9457(8) 0.6089(4) 0.8238(4)
H9 H 0.9510 0.6467 0.8739
H10 H 0.8188 0.5948 0.8109
C9 C 0.5226(8) 0.6162(4) 0.9426(4)
H11 H 0.5156 0.6131 0.8840
H12 H 0.6456 0.6352 0.9584
C10 C 0.3830(10) 0.6870(4) 0.9765(5)
H13 H 0.4338 0.7536 0.9812
H14 H 0.2758 0.6897 0.9420
C11 C 0.3353(10) 0.6470(4) 1.0572(4)
H15 H 0.2149 0.6694 1.0739
H16 H 0.4242 0.6675 1.0975
C12 C 0.3386(8) 0.5374(4) 1.0458(3)
H17 H 0.3787 0.5041 1.0948
H18 H 0.2181 0.5128 1.0313
N1 N 1.0531(6) 0.5166(3) 0.8300(3)
N2 N 0.4689(6) 0.5206(3) 0.9797(3)
Na1 Na 0.6957(3) 0.22638(14) 1.00433(12)
O1 O 1.1339(5) 0.3674(3) 0.8800(2)
O2 O 0.9139(5) 0.3816(3) 1.0083(2)
O3 O 0.7046(5) 0.3180(2) 0.8795(2)
O4 O 0.4783(5) 0.3569(2) 1.0022(2)
Na1B Na 1.1957(3) 0.27362(14) 0.99567(12)
Na1B_2 Na 0.1957(3) 0.27362(14) 0.99567(12)
O1B O 0.6339(5) 0.1326(3) 1.1200(2)
O2B O 0.4139(5) 0.1184(3) 0.9917(2)
O4B O 0.9783(5) 0.1431(2) 0.9978(2)
I1 I 0.83317(5) 0.55190(3) 0.15641(2)
O5 O 0.4136(6) 0.2816(4) 0.7803(3)
loop_
_geom_bond_atom_site_label_1
_geom_bond_atom_site_label_2
_geom_bond_site_symmetry_1
_geom_bond_site_symmetry_2
C1 C2 1_555 1_555
C2 H1 1_555 1_555
C3 C2 1_555 1_555
H2 C3 1_555 1_555
C4 C3 1_555 1_555
C5 H3 1_555 1_555
H4 C5 1_555 1_555
C6 C5 1_555 1_555
H5 C6 1_555 1_555
H6 C6 1_555 1_555
C7 C6 1_555 1_555
H7 C7 1_555 1_555
H8 C7 1_555 1_555
C8 C7 1_555 1_555
H9 C8 1_555 1_555
H10 C8 1_555 1_555
C9 H11 1_555 1_555
H12 C9 1_555 1_555
C10 C9 1_555 1_555
H13 C10 1_555 1_555
H14 C10 1_555 1_555
C11 C10 1_555 1_555
H15 C11 1_555 1_555
H16 C11 1_555 1_555
C12 C11 1_555 1_555
H17 C12 1_555 1_555
H18 C12 1_555 1_555
N1 C1 1_555 1_555
N2 C4 1_555 1_555
Na1 O2 1_555 1_555
O1 C1 1_555 1_555
O2 C2 1_555 1_555
O3 C3 1_555 1_555
O4 C4 1_555 1_555
Na1B O1 1_555 1_555
Na1B_2 O4 1_555 1_555
O1B Na1 1_555 1_555
O2B Na1 1_555 1_555
O4B Na1 1_555 1_555
C5 N1 1_555 1_555
C8 N1 1_555 1_555
C9 N2 1_555 1_555
C12 N2 1_555 1_555
Na1 O3 1_555 1_555
Na1 O4 1_555 1_555
O2 Na1B 1_555 1_555
Na1B O4B 1_555 1_555
Na1B_2 O2B 1_555 1_555

#END
