
#######################################################################
#
#                 Cambridge Crystallographic Data Centre
#                                CCDC 
#
#######################################################################
#
# If this CIF has been generated from an entry in the Cambridge 
# Structural Database, then it will include bibliographic, chemical, 
# crystal, experimental, refinement or atomic coordinate data resulting 
# from the CCDC's data processing and validation procedures.
#
#######################################################################

data_XUJDIR
_symmetry_cell_setting           monoclinic
_symmetry_space_group_name_H-M   'P 21/c'
_symmetry_Int_Tables_number      14
_space_group_name_Hall           '-P 2ybc'
loop_
_symmetry_equiv_pos_site_id
_symmetry_equiv_pos_as_xyz
1 x,y,z
2 -x,1/2+y,1/2-z
3 -x,-y,-z
4 x,1/2-y,1/2+z
_cell_length_a                   16.9255(9)
_cell_length_b                   11.4336(4)
_cell_length_c                   21.2979(10)
_cell_angle_alpha                90
_cell_angle_beta                 111.818(3)
_cell_angle_gamma                90
_cell_volume                     3826.33
loop_
_atom_site_label
_atom_site_type_symbol
_atom_site_fract_x
_atom_site_fract_y
_atom_site_fract_z
Tb1 Tb 0.992605(7) 0.573916(11) 0.582213(6)
O1 O 0.90551(13) 0.62349(19) 0.64511(9)
O2 O 1.02339(12) 0.5310(2) 0.70158(9)
O3 O 0.89717(12) 0.21479(17) 0.85922(9)
O4 O 1.02091(11) 0.28666(18) 0.92359(9)
O5 O 1.11470(12) 0.45520(17) 0.60877(9)
O6 O 1.13233(11) 0.39376(16) 0.51432(9)
O7 O 1.04233(11) 0.61018(16) 0.49502(9)
O8 O 1.09333(15) 0.6054(2) 0.41507(11)
C1 C 0.92228(17) 0.5553(2) 0.75628(12)
C2 C 0.94992(16) 0.4361(2) 0.79030(12)
H1 H 1.0127 0.4296 0.8074
H2 H 0.9256 0.3729 0.7569
C3 C 0.91843(16) 0.4222(2) 0.85041(12)
C4 C 0.95787(17) 0.5202(2) 0.90132(13)
H3 H 1.0207 0.5134 0.9189
H4 H 0.9390 0.5128 0.9399
C5 C 0.93106(18) 0.6401(2) 0.86749(13)
H5 H 0.9569 0.7032 0.9014
C6 C 0.96217(17) 0.6527(2) 0.80867(13)
H6 H 1.0250 0.6467 0.8259
H7 H 0.9456 0.7303 0.7871
C7 C 0.82475(16) 0.5655(2) 0.73078(13)
H8 H 0.8068 0.6423 0.7086
H9 H 0.7986 0.5036 0.6969
C8 C 0.79401(17) 0.5530(2) 0.78955(13)
H10 H 0.7306 0.5600 0.7723
C9 C 0.82115(16) 0.4338(2) 0.82304(13)
H11 H 0.7953 0.3711 0.7896
H12 H 0.8005 0.4247 0.8606
C10 C 0.83459(18) 0.6509(2) 0.84092(13)
H13 H 0.8172 0.7281 0.8190
H14 H 0.8146 0.6453 0.8790
C11 C 0.95236(17) 0.5698(2) 0.69730(13)
C12 C 0.94665(17) 0.3009(2) 0.88018(13)
C13 C 1.15419(17) 0.4074(2) 0.57687(13)
H15 H 1.2085 0.3769 0.6036
C14 C 1.08417(19) 0.6550(3) 0.46378(14)
H16 H 1.1098 0.7293 0.4777
Tb1A Tb 1.007395(7) 0.073916(11) 0.917787(6)
Tb1B Tb 1.007395(7) 0.426084(11) 0.417787(6)
O3A O 1.10283(12) 0.71479(17) 0.64078(9)
O4A O 0.97909(11) 0.78666(18) 0.57641(9)
O6B O 0.86767(11) 0.60624(16) 0.48568(9)
O7B O 0.95767(11) 0.38982(16) 0.50498(9)
O8B O 0.90667(15) 0.3946(2) 0.58493(11)
O9 O 0.76422(12) 1.13371(18) 0.53624(9)
O10 O 0.63223(12) 0.76968(18) 0.68085(9)
O11 O 0.65615(12) 0.97781(17) 0.37064(9)
O12 O 0.51784(12) 0.62819(17) 0.51422(9)
O13 O 0.45941(12) 1.02424(17) 0.25879(9)
O14 O 0.32945(12) 0.66553(18) 0.40928(9)
N1 N 0.78620(14) 1.06374(19) 0.64339(11)
N2 N 0.77328(14) 0.93665(19) 0.56175(11)
N3 N 0.71822(14) 0.7920(2) 0.61890(10)
N4 N 0.73190(15) 0.91804(19) 0.70117(11)
N5 N 0.70186(14) 0.8364(2) 0.45409(10)
N6 N 0.59846(14) 0.79108(19) 0.35688(10)
N7 N 0.54297(14) 0.6479(2) 0.41523(10)
N8 N 0.64474(14) 0.6980(2) 0.51202(10)
N9 N 0.45416(13) 0.82574(19) 0.27764(11)
N10 N 0.33806(14) 0.93207(19) 0.25884(12)
N11 N 0.28307(13) 0.7848(2) 0.31533(11)
N12 N 0.39987(14) 0.6789(2) 0.33554(11)
C15 C 0.77305(16) 1.0531(2) 0.57632(13)
C16 C 0.79926(16) 0.9529(2) 0.67838(13)
H17 H 0.8566 0.9483 0.7156
C17 C 0.79002(16) 0.8628(2) 0.62049(12)
H18 H 0.8427 0.8150 0.6304
C18 C 0.68768(17) 0.8215(2) 0.66814(13)
C19 C 0.77858(17) 0.8959(3) 0.49888(13)
H19 H 0.8274 0.8416 0.5096
H20 H 0.7900 0.9637 0.4746
C20 C 0.69562(17) 0.6824(2) 0.58282(12)
H21 H 0.7483 0.6397 0.5872
H22 H 0.6636 0.6339 0.6038
C21 C 0.65242(16) 0.8797(2) 0.39161(13)
C22 C 0.68394(16) 0.7152(2) 0.46297(12)
H23 H 0.7354 0.6647 0.4726
C23 C 0.61222(16) 0.6825(2) 0.39483(12)
H24 H 0.6298 0.6176 0.3713
C24 C 0.56367(17) 0.6549(2) 0.48376(13)
C25 C 0.54240(16) 0.8014(2) 0.28693(12)
H25 H 0.5445 0.7276 0.2632
H26 H 0.5634 0.8649 0.2656
C26 C 0.46544(17) 0.5949(2) 0.36973(13)
H27 H 0.4436 0.5404 0.3956
H28 H 0.4784 0.5486 0.3355
C27 C 0.42195(17) 0.9377(2) 0.26510(12)
C28 C 0.39034(16) 0.7382(2) 0.27279(12)
H29 H 0.3833 0.6815 0.2354
C29 C 0.30804(16) 0.8136(2) 0.25874(13)
H30 H 0.2625 0.7930 0.2144
C30 C 0.33639(16) 0.7072(2) 0.35871(13)
C31 C 0.28212(17) 1.0321(2) 0.24170(12)
H31 H 0.3067 1.0928 0.2212
H32 H 0.2266 1.0084 0.2074
C32 C 0.20544(17) 0.8245(2) 0.32283(14)
H33 H 0.1599 0.8304 0.2774
H34 H 0.1877 0.7651 0.3488
O9B O 0.23578(12) 0.86629(18) 0.46376(9)
O10B O 0.36777(12) 1.23032(18) 0.31915(9)
O11B O 0.34385(12) 1.02219(17) 0.62936(9)
O12B O 0.48216(12) 1.37181(17) 0.48578(9)
O13B O 0.54059(12) 0.97576(17) 0.74121(9)
O14B O 0.67055(12) 1.33447(18) 0.59072(9)
N1B N 0.21380(14) 0.93626(19) 0.35661(11)
N2B N 0.22672(14) 1.06335(19) 0.43825(11)
N3B N 0.28178(14) 1.2080(2) 0.38110(10)
N4B N 0.26810(15) 1.08196(19) 0.29883(11)
N5B N 0.29814(14) 1.1636(2) 0.54591(10)
N6B N 0.40154(14) 1.20892(19) 0.64312(10)
N7B N 0.45703(14) 1.3521(2) 0.58477(10)
N8B N 0.35526(14) 1.3020(2) 0.48798(10)
N9B N 0.54584(13) 1.17426(19) 0.72236(11)
N10B N 0.66194(14) 1.06793(19) 0.74116(12)
N11B N 0.71693(13) 1.2152(2) 0.68467(11)
N12B N 0.60013(14) 1.3211(2) 0.66446(11)
C15B C 0.22695(16) 0.9469(2) 0.42368(13)
C16B C 0.20074(16) 1.0471(2) 0.32162(13)
H17B H 0.1434 1.0517 0.2844
C17B C 0.20998(16) 1.1372(2) 0.37951(12)
H18B H 0.1573 1.1850 0.3696
C18B C 0.31232(17) 1.1785(2) 0.33186(13)
C19B C 0.22142(17) 1.1041(3) 0.50112(13)
H19B H 0.1726 1.1584 0.4904
H20B H 0.2100 1.0363 0.5254
C20B C 0.30438(17) 1.3176(2) 0.41718(12)
H21B H 0.2517 1.3603 0.4128
H22B H 0.3364 1.3661 0.3962
C21B C 0.34758(16) 1.1203(2) 0.60839(13)
C22B C 0.31606(16) 1.2848(2) 0.53703(12)
H23B H 0.2646 1.3353 0.5274
C23B C 0.38778(16) 1.3175(2) 0.60517(12)
H24B H 0.3702 1.3824 0.6287
C24B C 0.43633(17) 1.3451(2) 0.51624(13)
C25B C 0.45760(16) 1.1986(2) 0.71307(12)
H25B H 0.4555 1.2724 0.7368
H26B H 0.4366 1.1351 0.7344
C26B C 0.53456(17) 1.4051(2) 0.63027(13)
H27B H 0.5564 1.4596 0.6044
H28B H 0.5216 1.4514 0.6645
C27B C 0.57805(17) 1.0623(2) 0.73490(12)
C28B C 0.60966(16) 1.2618(2) 0.72721(12)
H29B H 0.6167 1.3185 0.7646
C29B C 0.69196(16) 1.1864(2) 0.74126(13)
H30B H 0.7375 1.2070 0.7856
C30B C 0.66361(16) 1.2928(2) 0.64129(13)
C31B C 0.71788(17) 0.9679(2) 0.75830(12)
H31B H 0.6933 0.9072 0.7788
H32B H 0.7734 0.9916 0.7926
C32B C 0.79456(17) 1.1755(2) 0.67717(14)
H33B H 0.8401 1.1696 0.7226
H34B H 0.8123 1.2349 0.6512
O15 O 1.2806(2) 0.5490(2) 0.50191(16)
H35 H 1.2290 0.5424 0.4732
H36 H 1.3014 0.5828 0.4697
O16 O 1.2555(3) 0.6535(7) 0.6067(3)
H37 H 1.2053 0.6724 0.6105
H38 H 1.2387 0.6200 0.5654
N13 N 0.40135(16) 0.7777(2) 0.53950(12)
H39 H 0.3419 0.7696 0.5206
H40 H 0.4087 0.7189 0.5149
C33 C 0.4444(2) 0.8836(3) 0.5273(2)
H41 H 0.4224 0.9531 0.5423
H42 H 0.4332 0.8903 0.4789
H43 H 0.5058 0.8774 0.5526
C34 C 0.4220(3) 0.7557(4) 0.61219(15)
H44 H 0.4819 0.7328 0.6336
H45 H 0.3858 0.6927 0.6176
H46 H 0.4120 0.8271 0.6337
loop_
_geom_bond_atom_site_label_1
_geom_bond_atom_site_label_2
_geom_bond_site_symmetry_1
_geom_bond_site_symmetry_2
Tb1 O1 1_555 1_555
O1 C11 1_555 1_555
O2 Tb1 1_555 1_555
O3 C12 1_555 1_555
O4 C12 1_555 1_555
O5 Tb1 1_555 1_555
O6 C13 1_555 1_555
O7 Tb1 1_555 1_555
O8 C14 1_555 1_555
C1 C2 1_555 1_555
C2 H1 1_555 1_555
H2 C2 1_555 1_555
C3 C2 1_555 1_555
C4 C3 1_555 1_555
H3 C4 1_555 1_555
H4 C4 1_555 1_555
C5 C4 1_555 1_555
H5 C5 1_555 1_555
C6 C1 1_555 1_555
H6 C6 1_555 1_555
H7 C6 1_555 1_555
C7 C1 1_555 1_555
H8 C7 1_555 1_555
H9 C7 1_555 1_555
C8 C7 1_555 1_555
H10 C8 1_555 1_555
C9 C3 1_555 1_555
H11 C9 1_555 1_555
H12 C9 1_555 1_555
C10 C5 1_555 1_555
H13 C10 1_555 1_555
H14 C10 1_555 1_555
C11 O2 1_555 1_555
C12 C3 1_555 1_555
C13 O5 1_555 1_555
H15 C13 1_555 1_555
C14 O7 1_555 1_555
H16 C14 1_555 1_555
O9 C15 1_555 1_555
O10 C18 1_555 1_555
O11 C21 1_555 1_555
O12 C24 1_555 1_555
O13 C27 1_555 1_555
O14 C30 1_555 1_555
N1 C15 1_555 1_555
N2 C15 1_555 1_555
N3 C17 1_555 1_555
N4 C16 1_555 1_555
N5 C19 1_555 1_555
N6 C21 1_555 1_555
N7 C23 1_555 1_555
N8 C20 1_555 1_555
N9 C25 1_555 1_555
N10 C27 1_555 1_555
N11 C29 1_555 1_555
N12 C26 1_555 1_555
C16 N1 1_555 1_555
H17 C16 1_555 1_555
C17 N2 1_555 1_555
H18 C17 1_555 1_555
C18 N3 1_555 1_555
C19 N2 1_555 1_555
H19 C19 1_555 1_555
H20 C19 1_555 1_555
C20 N3 1_555 1_555
H21 C20 1_555 1_555
H22 C20 1_555 1_555
C21 N5 1_555 1_555
C22 N5 1_555 1_555
H23 C22 1_555 1_555
C23 N6 1_555 1_555
H24 C23 1_555 1_555
C24 N7 1_555 1_555
C25 N6 1_555 1_555
H25 C25 1_555 1_555
H26 C25 1_555 1_555
C26 N7 1_555 1_555
H27 C26 1_555 1_555
H28 C26 1_555 1_555
C27 N9 1_555 1_555
C28 N9 1_555 1_555
H29 C28 1_555 1_555
C29 N10 1_555 1_555
H30 C29 1_555 1_555
C30 N11 1_555 1_555
C31 N10 1_555 1_555
H31 C31 1_555 1_555
H32 C31 1_555 1_555
C32 N11 1_555 1_555
H33 C32 1_555 1_555
H34 C32 1_555 1_555
O15 H35 1_555 1_555
H36 O15 1_555 1_555
O16 H37 1_555 1_555
H38 O16 1_555 1_555
N13 H39 1_555 1_555
H40 N13 1_555 1_555
C33 N13 1_555 1_555
H41 C33 1_555 1_555
H42 C33 1_555 1_555
H43 C33 1_555 1_555
C34 N13 1_555 1_555
H44 C34 1_555 1_555
H45 C34 1_555 1_555
H46 C34 1_555 1_555
Tb1A O3 1_555 1_555
Tb1B O6 1_555 1_555
O3A Tb1 1_555 1_555
O4A Tb1 1_555 1_555
O6B Tb1 1_555 1_555
O7B Tb1 1_555 1_555
O8B Tb1 1_555 1_555
O9B C15B 1_555 1_555
O10B C18B 1_555 1_555
O11B C21B 1_555 1_555
O12B C24B 1_555 1_555
O13B C27B 1_555 1_555
O14B C30B 1_555 1_555
N1B C32 1_555 1_555
N2B C15B 1_555 1_555
N3B C17B 1_555 1_555
N4B C31 1_555 1_555
N5B C19B 1_555 1_555
N6B C21B 1_555 1_555
N7B C23B 1_555 1_555
N8B C20B 1_555 1_555
N9B C25B 1_555 1_555
N10B C27B 1_555 1_555
N11B C29B 1_555 1_555
N12B C26B 1_555 1_555
C15B N1B 1_555 1_555
C16B N1B 1_555 1_555
H17B C16B 1_555 1_555
C17B N2B 1_555 1_555
H18B C17B 1_555 1_555
C18B N3B 1_555 1_555
C19B N2B 1_555 1_555
H19B C19B 1_555 1_555
H20B C19B 1_555 1_555
C20B N3B 1_555 1_555
H21B C20B 1_555 1_555
H22B C20B 1_555 1_555
C21B N5B 1_555 1_555
C22B N5B 1_555 1_555
H23B C22B 1_555 1_555
C23B N6B 1_555 1_555
H24B C23B 1_555 1_555
C24B N7B 1_555 1_555
C25B N6B 1_555 1_555
H25B C25B 1_555 1_555
H26B C25B 1_555 1_555
C26B N7B 1_555 1_555
H27B C26B 1_555 1_555
H28B C26B 1_555 1_555
C27B N9B 1_555 1_555
C28B N9B 1_555 1_555
H29B C28B 1_555 1_555
C29B N10B 1_555 1_555
H30B C29B 1_555 1_555
C30B N11B 1_555 1_555
C31B N4 1_555 1_555
H31B C31B 1_555 1_555
H32B C31B 1_555 1_555
C32B N1 1_555 1_555
H33B C32B 1_555 1_555
H34B C32B 1_555 1_555
O4 Tb1A 1_555 1_555
O7 Tb1B 1_555 1_555
O8 Tb1B 1_555 1_555
C1 C11 1_555 1_555
C5 C6 1_555 1_555
C8 C9 1_555 1_555
C8 C10 1_555 1_555
N4 C18 1_555 1_555
N8 C22 1_555 1_555
N8 C24 1_555 1_555
N12 C28 1_555 1_555
N12 C30 1_555 1_555
C16 C17 1_555 1_555
C22 C23 1_555 1_555
C28 C29 1_555 1_555
Tb1B O7B 1_555 1_555
N4B C16B 1_555 1_555
N4B C18B 1_555 1_555
N8B C22B 1_555 1_555
N8B C24B 1_555 1_555
N10B C31B 1_555 1_555
N11B C32B 1_555 1_555
N12B C28B 1_555 1_555
N12B C30B 1_555 1_555
C16B C17B 1_555 1_555
C22B C23B 1_555 1_555
C28B C29B 1_555 1_555

#END
