
#######################################################################
#
#                 Cambridge Crystallographic Data Centre
#                                CCDC 
#
#######################################################################
#
# If this CIF has been generated from an entry in the Cambridge 
# Structural Database, then it will include bibliographic, chemical, 
# crystal, experimental, refinement or atomic coordinate data resulting 
# from the CCDC's data processing and validation procedures.
#
#######################################################################

data_XUJDAH
_symmetry_cell_setting           triclinic
_symmetry_space_group_name_H-M   'P -1'
_symmetry_Int_Tables_number      2
_space_group_name_Hall           '-P 1'
loop_
_symmetry_equiv_pos_site_id
_symmetry_equiv_pos_as_xyz
1 x,y,z
2 -x,-y,-z
_cell_length_a                   12.1414(14)
_cell_length_b                   12.9598(16)
_cell_length_c                   13.3376(15)
_cell_angle_alpha                88.858(3)
_cell_angle_beta                 75.120(2)
_cell_angle_gamma                70.777(2)
_cell_volume                     1910.4
loop_
_atom_site_label
_atom_site_type_symbol
_atom_site_fract_x
_atom_site_fract_y
_atom_site_fract_z
Cu1 Cu 0.0856(1) 0.8978(1) 0.0140(1)
Br1 Br 0.0559(1) 0.9590(1) -0.1567(1)
O1 O 0.6644(5) 0.7932(6) 0.0866(5)
O2 O 0.6938(4) 0.8455(4) -0.0753(4)
O3 O 1.0686(5) 0.5502(5) -0.2306(5)
O4 O 0.8952(4) 0.6370(4) -0.1148(4)
N1 N 0.2593(5) 0.8837(4) 0.0155(5)
N2 N 0.9427(5) 0.2475(5) -0.0507(4)
C1 C 0.3396(6) 0.8924(6) -0.0712(6)
C2 C 0.4584(6) 0.8758(6) -0.0754(5)
C3 C 0.4970(6) 0.8485(6) 0.0134(5)
C4 C 0.4154(7) 0.8424(7) 0.1019(6)
C5 C 0.2980(7) 0.8608(7) 0.1006(6)
C6 C 0.6272(6) 0.8248(6) 0.0131(6)
C7 C 0.8183(6) 0.8317(6) -0.0808(7)
C8 C 1.0333(7) 0.2495(6) -0.1332(6)
C9 C 1.0478(6) 0.3478(6) -0.1681(6)
C10 C 0.9670(6) 0.4453(6) -0.1201(5)
C11 C 0.8774(6) 0.4424(6) -0.0345(5)
C12 C 0.8685(6) 0.3419(6) -0.0030(6)
C13 C 0.9838(7) 0.5482(6) -0.1624(6)
C14 C 0.9016(6) 0.7394(6) -0.1573(6)
H1 H 0.3138 0.9104 -0.1311
H2 H 0.5118 0.8829 -0.1369
H3 H 0.4387 0.8258 0.1631
H4 H 0.2427 0.8572 0.1623
H5 H 0.8324 0.8171 -0.0127
H6 H 0.8343 0.8987 -0.1012
H7 H 1.0877 0.1836 -0.1678
H8 H 1.1124 0.3468 -0.2240
H9 H 0.8231 0.5071 0.0023
H10 H 0.8067 0.3415 0.0549
H11 H 0.9837 0.7402 -0.1712
H12 H 0.8784 0.7471 -0.2221
Cu1A Cu -0.0856(1) 1.1022(1) -0.0140(1)
Br1A Br -0.0559(1) 1.0410(1) 0.1567(1)
N2A N 0.0573(5) 0.7525(5) 0.0507(4)
Cu1A_2 Cu 0.9144(1) 0.1022(1) -0.0140(1)
C8A C -0.0333(7) 0.7505(6) 0.1332(6)
C12A C 0.1315(6) 0.6581(6) 0.0030(6)
C9A C -0.0478(6) 0.6522(6) 0.1681(6)
H7A H -0.0877 0.8164 0.1678
C11A C 0.1226(6) 0.5576(6) 0.0345(5)
H10A H 0.1933 0.6585 -0.0549
C10A C 0.0330(6) 0.5547(6) 0.1201(5)
H8A H -0.1124 0.6532 0.2240
H9A H 0.1769 0.4929 -0.0023
C13A C 0.0162(7) 0.4518(6) 0.1624(6)
O3A O -0.0686(5) 0.4498(5) 0.2306(5)
O4A O 0.1048(4) 0.3630(4) 0.1148(4)
C14A C 0.0984(6) 0.2606(6) 0.1573(6)
C7A C 0.1817(6) 0.1683(6) 0.0808(7)
H11A H 0.0163 0.2598 0.1712
H12A H 0.1216 0.2529 0.2221
O2A O 0.3062(4) 0.1545(4) 0.0753(4)
H5A H 0.1676 0.1829 0.0127
H6A H 0.1657 0.1013 0.1012
C6A C 0.3728(6) 0.1752(6) -0.0131(6)
O1A O 0.3356(5) 0.2068(6) -0.0866(5)
C3A C 0.5030(6) 0.1515(6) -0.0134(5)
C2A C 0.5416(6) 0.1242(6) 0.0754(5)
C4A C 0.5846(7) 0.1576(7) -0.1019(6)
C1A C 0.6604(6) 0.1076(6) 0.0712(6)
H2A H 0.4882 0.1171 0.1369
C5A C 0.7020(7) 0.1392(7) -0.1006(6)
H3A H 0.5613 0.1742 -0.1631
N1A N 0.7407(5) 0.1163(4) -0.0155(5)
H1A H 0.6862 0.0896 0.1311
H4A H 0.7573 0.1428 -0.1623
N1A_2 N -0.2593(5) 1.1163(4) -0.0155(5)
N2_2 N -0.0573(5) 1.2475(5) -0.0507(4)
Cu2 Cu 0.6007(1) 0.9152(1) 0.4792(1)
Br2 Br 0.5336(1) 1.0411(1) 0.3431(1)
O5 O 0.6665(6) 0.4199(5) 0.2218(5)
O6 O 0.6722(4) 0.3712(4) 0.3833(4)
O7 O 0.7805(5) 0.1629(6) 0.6200(5)
O8 O 0.8296(4) 0.1759(4) 0.4490(5)
N3 N 0.6121(5) 0.7652(5) 0.4252(4)
N4 N 1.2290(5) 0.0940(5) 0.5182(5)
C15 C 0.6240(7) 0.6812(6) 0.4871(6)
C16 C 0.6376(7) 0.5763(6) 0.4544(6)
C17 C 0.6436(6) 0.5522(6) 0.3520(5)
C18 C 0.6320(7) 0.6393(7) 0.2873(6)
C19 C 0.6159(6) 0.7418(6) 0.3262(5)
C20 C 0.6634(6) 0.4437(7) 0.3107(7)
C21 C 0.6849(7) 0.2598(6) 0.3548(6)
C22 C 1.1898(7) 0.1059(6) 0.4328(6)
C23 C 1.0706(7) 0.1260(6) 0.4344(6)
C24 C 0.9856(6) 0.1365(5) 0.5291(6)
C25 C 1.0269(7) 0.1194(6) 0.6160(6)
C26 C 1.1472(7) 0.0990(6) 0.6078(6)
C27 C 0.8532(7) 0.1605(6) 0.5418(7)
C28 C 0.7034(7) 0.1957(7) 0.4460(7)
H13 H 0.6229 0.6945 0.5557
H14 H 0.6428 0.5217 0.5011
H15 H 0.6351 0.6276 0.2179
H16 H 0.6070 0.7984 0.2817
H17 H 0.7536 0.2298 0.2950
H18 H 0.6127 0.2577 0.3376
H19 H 1.2456 0.1004 0.3688
H20 H 1.0473 0.1324 0.3727
H21 H 0.9736 0.1215 0.6807
H22 H 1.1731 0.0880 0.6682
H23 H 0.6900 0.1267 0.4392
H24 H 0.6474 0.2363 0.5094
Cu2A Cu 0.3993(1) 1.0848(1) 0.5208(1)
Br2A Br 0.4664(1) 0.9589(1) 0.6569(1)
N4A N 0.7710(5) 0.9060(5) 0.4818(5)
Cu2A_2 Cu 1.3993(1) 0.0848(1) 0.5208(1)
C22A C 0.8102(7) 0.8941(6) 0.5672(6)
C26A C 0.8528(7) 0.9010(6) 0.3922(6)
C23A C 0.9294(7) 0.8740(6) 0.5656(6)
H19A H 0.7544 0.8996 0.6312
C25A C 0.9731(7) 0.8806(6) 0.3840(6)
H22A H 0.8269 0.9120 0.3318
C24A C 1.0144(6) 0.8635(5) 0.4709(6)
H20A H 0.9527 0.8676 0.6273
H21A H 1.0264 0.8785 0.3193
C27A C 1.1468(7) 0.8395(6) 0.4582(7)
O7A O 1.2195(5) 0.8371(6) 0.3800(5)
O8A O 1.1704(4) 0.8241(4) 0.5510(5)
C28A C 1.2966(7) 0.8043(7) 0.5540(7)
C21A C 1.3151(7) 0.7402(6) 0.6452(6)
H23A H 1.3100 0.8733 0.5608
H24A H 1.3526 0.7637 0.4906
O6A O 1.3278(4) 0.6288(4) 0.6167(4)
H17A H 1.2464 0.7702 0.7050
H18A H 1.3873 0.7423 0.6624
C20A C 1.3366(6) 0.5563(7) 0.6893(7)
O5A O 1.3335(6) 0.5801(5) 0.7782(5)
C17A C 1.3564(6) 0.4478(6) 0.6480(5)
C16A C 1.3624(7) 0.4237(6) 0.5456(6)
C18A C 1.3680(7) 0.3607(7) 0.7127(6)
C15A C 1.3760(7) 0.3188(6) 0.5129(6)
H14A H 1.3572 0.4783 0.4989
C19A C 1.3841(6) 0.2582(6) 0.6738(5)
H15A H 1.3649 0.3724 0.7821
N3A N 1.3879(5) 0.2348(5) 0.5748(4)
H13A H 1.3771 0.3055 0.4443
H16A H 1.3930 0.2016 0.7183
N3A_2 N 0.3879(5) 1.2348(5) 0.5748(4)
N4_2 N 0.2290(5) 1.0940(5) 0.5182(5)
O9 O 0.3626(15) 0.4693(14) 0.2913(13)
C29 C 0.3698(17) 0.3933(15) 0.2203(15)
C30 C 0.4110(18) 0.4309(16) 0.1290(15)
C31 C 0.3950(20) 0.5400(17) 0.1466(17)
C32 C 0.3327(18) 0.5672(15) 0.2479(16)
O10 O 0.9500(20) 0.5780(20) 0.5240(20)
H25 H 0.9795 0.5765 0.4341
H26 H 1.0149 0.5655 0.5451
loop_
_geom_bond_atom_site_label_1
_geom_bond_atom_site_label_2
_geom_bond_site_symmetry_1
_geom_bond_site_symmetry_2
Cu1 Br1 1_555 1_555
Cu2 Br2 1_555 1_555
Br1 Cu1A 1_555 1_555
Br2 Cu2A 1_555 1_555
O1 C6 1_555 1_555
O2 C6 1_555 1_555
O3 C13 1_555 1_555
O4 C13 1_555 1_555
O5 C20 1_555 1_555
O6 C20 1_555 1_555
O7 C27 1_555 1_555
O8 C27 1_555 1_555
N1 Cu1 1_555 1_555
N2 C8 1_555 1_555
N3 Cu2 1_555 1_555
N4 C22 1_555 1_555
C1 N1 1_555 1_555
C2 C1 1_555 1_555
C3 C2 1_555 1_555
C4 C3 1_555 1_555
C5 N1 1_555 1_555
C6 C3 1_555 1_555
C7 O2 1_555 1_555
C8 C9 1_555 1_555
C9 C10 1_555 1_555
C10 C11 1_555 1_555
C11 C12 1_555 1_555
C12 N2 1_555 1_555
C13 C10 1_555 1_555
C14 O4 1_555 1_555
C15 N3 1_555 1_555
C16 C15 1_555 1_555
C17 C16 1_555 1_555
C18 C17 1_555 1_555
C19 N3 1_555 1_555
C20 C17 1_555 1_555
C21 O6 1_555 1_555
C22 C23 1_555 1_555
C23 C24 1_555 1_555
C24 C25 1_555 1_555
C25 C26 1_555 1_555
C26 N4 1_555 1_555
C27 C24 1_555 1_555
C28 O8 1_555 1_555
O9 C29 1_555 1_555
C29 C30 1_555 1_555
C30 C31 1_555 1_555
C31 C32 1_555 1_555
C32 O9 1_555 1_555
O10 H25 1_555 1_555
H1 C1 1_555 1_555
H2 C2 1_555 1_555
H3 C4 1_555 1_555
H4 C5 1_555 1_555
H5 C7 1_555 1_555
H6 C7 1_555 1_555
H7 C8 1_555 1_555
H8 C9 1_555 1_555
H9 C11 1_555 1_555
H10 C12 1_555 1_555
H11 C14 1_555 1_555
H12 C14 1_555 1_555
H13 C15 1_555 1_555
H14 C16 1_555 1_555
H15 C18 1_555 1_555
H16 C19 1_555 1_555
H17 C21 1_555 1_555
H18 C21 1_555 1_555
H19 C22 1_555 1_555
H20 C23 1_555 1_555
H21 C25 1_555 1_555
H22 C26 1_555 1_555
H23 C28 1_555 1_555
H24 C28 1_555 1_555
H26 O10 1_555 1_555
Cu1A Cu1 1_555 1_555
Br1A Cu1 1_555 1_555
N2A Cu1 1_555 1_555
Cu2A Cu2 1_555 1_555
Br2A Cu2 1_555 1_555
N4A Cu2 1_555 1_555
Cu1A_2 N2 1_555 1_555
Cu2A_2 N4 1_555 1_555
C8A N2A 1_555 1_555
C12A N2A 1_555 1_555
C22A N4A 1_555 1_555
C26A N4A 1_555 1_555
C9A C8A 1_555 1_555
H7A C8A 1_555 1_555
C11A C12A 1_555 1_555
H10A C12A 1_555 1_555
C23A C22A 1_555 1_555
H19A C22A 1_555 1_555
C25A C26A 1_555 1_555
H22A C26A 1_555 1_555
C10A C9A 1_555 1_555
H8A C9A 1_555 1_555
H9A C11A 1_555 1_555
C24A C23A 1_555 1_555
H20A C23A 1_555 1_555
H21A C25A 1_555 1_555
C13A C10A 1_555 1_555
C27A C24A 1_555 1_555
O3A C13A 1_555 1_555
O4A C13A 1_555 1_555
O7A C27A 1_555 1_555
O8A C27A 1_555 1_555
C14A O4A 1_555 1_555
C28A O8A 1_555 1_555
C7A C14A 1_555 1_555
H11A C14A 1_555 1_555
H12A C14A 1_555 1_555
C21A C28A 1_555 1_555
H23A C28A 1_555 1_555
H24A C28A 1_555 1_555
O2A C7A 1_555 1_555
H5A C7A 1_555 1_555
H6A C7A 1_555 1_555
O6A C21A 1_555 1_555
H17A C21A 1_555 1_555
H18A C21A 1_555 1_555
C6A O2A 1_555 1_555
C20A O6A 1_555 1_555
O1A C6A 1_555 1_555
C3A C6A 1_555 1_555
O5A C20A 1_555 1_555
C17A C20A 1_555 1_555
C2A C3A 1_555 1_555
C4A C3A 1_555 1_555
C16A C17A 1_555 1_555
C18A C17A 1_555 1_555
C1A C2A 1_555 1_555
H2A C2A 1_555 1_555
C5A C4A 1_555 1_555
H3A C4A 1_555 1_555
C15A C16A 1_555 1_555
H14A C16A 1_555 1_555
C19A C18A 1_555 1_555
H15A C18A 1_555 1_555
N1A Cu1A_2 1_555 1_555
H1A C1A 1_555 1_555
H4A C5A 1_555 1_555
N3A Cu2A_2 1_555 1_555
H13A C15A 1_555 1_555
H16A C19A 1_555 1_555
N1A_2 Cu1A 1_555 1_555
N2_2 Cu1A 1_555 1_555
N3A_2 Cu2A 1_555 1_555
N4_2 Cu2A 1_555 1_555
C4 C5 1_555 1_555
C7 C14 1_555 1_555
C18 C19 1_555 1_555
C21 C28 1_555 1_555
Cu1A Br1A 1_555 1_555
Cu2A Br2A 1_555 1_555
C11A C10A 1_555 1_555
C25A C24A 1_555 1_555
C1A N1A 1_555 1_555
C5A N1A 1_555 1_555
C15A N3A 1_555 1_555
C19A N3A 1_555 1_555

#END
