
#######################################################################
#
#                 Cambridge Crystallographic Data Centre
#                                CCDC 
#
#######################################################################
#
# If this CIF has been generated from an entry in the Cambridge 
# Structural Database, then it will include bibliographic, chemical, 
# crystal, experimental, refinement or atomic coordinate data resulting 
# from the CCDC's data processing and validation procedures.
#
#######################################################################

data_XUJGEQ
_symmetry_cell_setting           monoclinic
_symmetry_space_group_name_H-M   'P 21/c'
_symmetry_Int_Tables_number      14
_space_group_name_Hall           '-P 2ybc'
loop_
_symmetry_equiv_pos_site_id
_symmetry_equiv_pos_as_xyz
1 x,y,z
2 -x,1/2+y,1/2-z
3 -x,-y,-z
4 x,1/2-y,1/2+z
_cell_length_a                   14.9247(10)
_cell_length_b                   8.6299(4)
_cell_length_c                   10.8503(8)
_cell_angle_alpha                90
_cell_angle_beta                 93.243(6)
_cell_angle_gamma                90
_cell_volume                     1395.27
loop_
_atom_site_label
_atom_site_type_symbol
_atom_site_fract_x
_atom_site_fract_y
_atom_site_fract_z
Gd1 Gd 0.457388(14) 0.56617(3) 0.65498(2)
O1 O 0.4352(3) 0.0458(4) 0.6778(4)
O2 O 0.4574(2) 0.2940(4) 0.7061(4)
O3 O 0.4226(3) 0.4344(4) 0.4710(3)
O4 O 0.3564(2) 0.6716(4) 0.8076(3)
O5 O 0.2990(2) 0.5322(5) 0.6534(4)
O6 O 0.1323(3) 0.4612(4) 0.6328(4)
H1 H 0.1858 0.4603 0.6128
O7 O 0.4149(3) 0.7890(4) 0.5438(3)
H2 H 0.3998 0.8583 0.5929
H3 H 0.3713 0.7682 0.4941
C1 C 0.4167(3) 0.1845(6) 0.6477(4)
C2 C 0.3462(3) 0.2138(6) 0.5485(5)
C3 C 0.3516(3) 0.3385(6) 0.4655(4)
C4 C 0.2797(3) 0.3647(6) 0.3792(5)
H4 H 0.2828 0.4465 0.3210
C5 C 0.2044(3) 0.2715(6) 0.3788(5)
H5 H 0.1552 0.2923 0.3218
C6 C 0.1992(3) 0.1491(6) 0.4593(5)
H6 H 0.1469 0.0861 0.4573
C7 C 0.2699(3) 0.1178(6) 0.5427(5)
H7 H 0.2671 0.0313 0.5965
C8 C 0.2872(3) 0.6152(6) 0.7487(5)
C9 C 0.1952(3) 0.6453(6) 0.7848(5)
C10 C 0.1233(4) 0.5643(5) 0.7249(5)
C11 C 0.0361(4) 0.5884(7) 0.7639(6)
H8 H -0.0131 0.5355 0.7237
C12 C 0.0215(4) 0.6878(7) 0.8597(5)
H9 H -0.0375 0.7016 0.8863
C13 C 0.0925(4) 0.7682(7) 0.9176(5)
H10 H 0.0818 0.8384 0.9826
C14 C 0.1784(3) 0.7463(6) 0.8811(5)
H11 H 0.2268 0.8007 0.9220
Gd1A Gd 0.542612(14) 0.06617(3) 0.84502(2)
Gd1B Gd 0.542612(14) 0.43383(3) 0.34502(2)
O1A O 0.5648(3) 0.5458(4) 0.8222(4)
O2A O 0.5426(2) 0.7940(4) 0.7939(4)
O3B O 0.5774(3) 0.5656(4) 0.5290(3)
loop_
_geom_bond_atom_site_label_1
_geom_bond_atom_site_label_2
_geom_bond_site_symmetry_1
_geom_bond_site_symmetry_2
Gd1 O2 1_555 1_555
O1 C1 1_555 1_555
O2 C1 1_555 1_555
O3 Gd1 1_555 1_555
O4 Gd1 1_555 1_555
O5 Gd1 1_555 1_555
O6 H1 1_555 1_555
O7 Gd1 1_555 1_555
H2 O7 1_555 1_555
H3 O7 1_555 1_555
C1 C2 1_555 1_555
C2 C3 1_555 1_555
C3 O3 1_555 1_555
C4 C3 1_555 1_555
H4 C4 1_555 1_555
C5 C4 1_555 1_555
H5 C5 1_555 1_555
C6 C5 1_555 1_555
H6 C6 1_555 1_555
C7 C2 1_555 1_555
H7 C7 1_555 1_555
C8 O4 1_555 1_555
C9 C8 1_555 1_555
C10 O6 1_555 1_555
C11 C10 1_555 1_555
H8 C11 1_555 1_555
C12 C11 1_555 1_555
H9 C12 1_555 1_555
C13 C12 1_555 1_555
H10 C13 1_555 1_555
C14 C9 1_555 1_555
H11 C14 1_555 1_555
Gd1A O1 1_555 1_555
Gd1B O3 1_555 1_555
O1A Gd1 1_555 1_555
O2A Gd1 1_555 1_555
O3B Gd1 1_555 1_555
O2 Gd1A 1_555 1_555
O5 C8 1_555 1_555
C6 C7 1_555 1_555
C9 C10 1_555 1_555
C13 C14 1_555 1_555
Gd1B O3B 1_555 1_555

#END
