
#######################################################################
#
#                 Cambridge Crystallographic Data Centre
#                                CCDC 
#
#######################################################################
#
# If this CIF has been generated from an entry in the Cambridge 
# Structural Database, then it will include bibliographic, chemical, 
# crystal, experimental, refinement or atomic coordinate data resulting 
# from the CCDC's data processing and validation procedures.
#
#######################################################################

data_XUJGIS
_symmetry_cell_setting           triclinic
_symmetry_space_group_name_H-M   'P -1'
_symmetry_Int_Tables_number      2
_space_group_name_Hall           '-P 1'
loop_
_symmetry_equiv_pos_site_id
_symmetry_equiv_pos_as_xyz
1 x,y,z
2 -x,-y,-z
_cell_length_a                   8.8565(7)
_cell_length_b                   8.9579(5)
_cell_length_c                   8.3705(6)
_cell_angle_alpha                105.728(4)
_cell_angle_beta                 105.318(3)
_cell_angle_gamma                114.369(4)
_cell_volume                     526.003
loop_
_atom_site_label
_atom_site_type_symbol
_atom_site_fract_x
_atom_site_fract_y
_atom_site_fract_z
Cu1 Cu 0.0000 0.0000 0.0000
Cu2 Cu 0.5000 0.5000 0.5000
N1 N 0.1533(32) -0.0131(35) -0.1424(31)
N2 N 0.2754(32) 0.0262(30) -0.3354(27)
C1 C 0.2406(38) -0.1072(35) -0.1520(36)
C2 C 0.3001(40) -0.0970(36) -0.2851(35)
C3 C 0.1749(45) 0.0692(38) -0.2558(38)
N3 N 0.6568(31) 0.5067(32) 0.3476(32)
N4 N 0.8976(24) 0.5776(30) 0.2872(37)
C4 C 0.5958(23) 0.4274(35) 0.1622(28)
C5 C 0.7442(40) 0.4644(41) 0.1250(23)
C6 C 0.8431(30) 0.5907(31) 0.4255(19)
C7 C 0.2847(24) 0.1315(13) 0.3089(25)
O1 O 0.1562(20) -0.0318(12) 0.1825(18)
O2 O 0.2927(20) 0.2719(13) 0.2867(20)
O3 O 0.4190(20) 0.1516(18) 0.4417(19)
N1A N -0.1533(32) 0.0131(35) 0.1424(31)
N2A N -0.2754(32) -0.0262(30) 0.3354(27)
C1A C -0.2406(38) 0.1072(35) 0.1520(36)
C2A C -0.3001(40) 0.0970(36) 0.2851(35)
C3A C -0.1749(45) -0.0692(38) 0.2558(38)
C7A C -0.2847(24) -0.1315(13) -0.3089(25)
O1A O -0.1562(20) 0.0318(12) -0.1825(18)
O2A O -0.2927(20) -0.2719(13) -0.2867(20)
O3A O -0.4190(20) -0.1516(18) -0.4417(19)
N3A N 0.3432(31) 0.4933(32) 0.6524(32)
N4A N 0.1024(24) 0.4224(30) 0.7128(37)
C4A C 0.4042(23) 0.5726(35) 0.8378(28)
C5A C 0.2558(40) 0.5356(41) 0.8750(23)
C6A C 0.1569(30) 0.4093(31) 0.5745(19)
O2A_2 O 0.7073(20) 0.7281(13) 0.7133(20)
Cu2_2 Cu -0.5000 -0.5000 -0.5000
O4 O 0.2209(29) 0.6985(21) 0.2322(32)
loop_
_geom_bond_atom_site_label_1
_geom_bond_atom_site_label_2
_geom_bond_site_symmetry_1
_geom_bond_site_symmetry_2
Cu1 N1 1_555 1_555
Cu2 N3 1_555 1_555
N1 C1 1_555 1_555
N2 C2 1_555 1_555
C1 C2 1_555 1_555
C3 N1 1_555 1_555
N3 C4 1_555 1_555
N4 C5 1_555 1_555
C4 C5 1_555 1_555
C6 N3 1_555 1_555
C7 O1 1_555 1_555
O1 Cu1 1_555 1_555
O2 Cu2 1_555 1_555
O3 C7 1_555 1_555
N1A Cu1 1_555 1_555
N2A C2A 1_555 1_555
C1A N1A 1_555 1_555
C2A C1A 1_555 1_555
C3A N1A 1_555 1_555
C7A O1A 1_555 1_555
O1A Cu1 1_555 1_555
O2A C7A 1_555 1_555
O3A C7A 1_555 1_555
N3A Cu2 1_555 1_555
N4A C5A 1_555 1_555
C4A N3A 1_555 1_555
C5A C4A 1_555 1_555
C6A N3A 1_555 1_555
O2A_2 Cu2 1_555 1_555
Cu2_2 O2A 1_555 1_555
N2 C3 1_555 1_555
N4 C6 1_555 1_555
C7 O2 1_555 1_555
N2A C3A 1_555 1_555
N4A C6A 1_555 1_555

#END
