
#######################################################################
#
#                 Cambridge Crystallographic Data Centre
#                                CCDC 
#
#######################################################################
#
# If this CIF has been generated from an entry in the Cambridge 
# Structural Database, then it will include bibliographic, chemical, 
# crystal, experimental, refinement or atomic coordinate data resulting 
# from the CCDC's data processing and validation procedures.
#
#######################################################################

data_XUJGAM
_symmetry_cell_setting           monoclinic
_symmetry_space_group_name_H-M   'P 21/c'
_symmetry_Int_Tables_number      14
_space_group_name_Hall           '-P 2ybc'
loop_
_symmetry_equiv_pos_site_id
_symmetry_equiv_pos_as_xyz
1 x,y,z
2 -x,1/2+y,1/2-z
3 -x,-y,-z
4 x,1/2-y,1/2+z
_cell_length_a                   14.9441(4)
_cell_length_b                   8.6185(2)
_cell_length_c                   10.8277(2)
_cell_angle_alpha                90
_cell_angle_beta                 93.079(2)
_cell_angle_gamma                90
_cell_volume                     1392.55
loop_
_atom_site_label
_atom_site_type_symbol
_atom_site_fract_x
_atom_site_fract_y
_atom_site_fract_z
Tb1 Tb 0.542787(8) 0.566428(13) 0.345701(10)
O1 O 0.56412(13) 0.0462(2) 0.32147(17)
O2 O 0.54275(12) 0.2963(2) 0.29386(17)
O3 O 0.57662(12) 0.4353(2) 0.52970(16)
O4 O 0.64343(12) 0.6707(2) 0.19228(16)
O5 O 0.70049(13) 0.5326(2) 0.34713(17)
O6 O 0.86722(13) 0.4607(2) 0.36781(18)
H1 H 0.8130(9) 0.455(4) 0.382(3)
O7 O 0.58423(14) 0.7884(2) 0.45526(17)
H2 H 0.579(2) 0.8762(19) 0.422(2)
H3 H 0.606(2) 0.799(3) 0.5276(13)
C1 C 0.58270(17) 0.1861(3) 0.3523(2)
C2 C 0.65288(17) 0.2139(3) 0.4515(2)
C3 C 0.64843(17) 0.3392(3) 0.5341(2)
C4 C 0.71974(18) 0.3642(3) 0.6200(2)
H4 H 0.7165 0.4464 0.6781
C5 C 0.79514(18) 0.2711(3) 0.6219(2)
H5 H 0.8438 0.2914 0.6797
C6 C 0.80023(18) 0.1478(3) 0.5396(2)
H6 H 0.8524 0.0848 0.5403
C7 C 0.72893(18) 0.1181(3) 0.4571(2)
H7 H 0.7312 0.0313 0.4032
C8 C 0.71268(18) 0.6162(3) 0.2516(2)
C9 C 0.80454(18) 0.6444(3) 0.2156(2)
C10 C 0.87685(19) 0.5639(3) 0.2747(2)
C11 C 0.96331(19) 0.5864(3) 0.2364(3)
H8 H 1.0121 0.5318 0.2759
C12 C 0.97827(19) 0.6878(4) 0.1412(3)
H9 H 1.0375 0.7031 0.1160
C13 C 0.9074(2) 0.7683(3) 0.0816(3)
H10 H 0.9183 0.8378 0.0160
C14 C 0.82145(19) 0.7460(3) 0.1187(2)
H11 H 0.7731 0.8004 0.0779
Tb1A Tb 0.457213(8) 0.066428(13) 0.154299(10)
Tb1B Tb 0.457213(8) 0.433572(13) 0.654299(10)
O1A O 0.43588(13) 0.5462(2) 0.17853(17)
O2A O 0.45725(12) 0.7963(2) 0.20614(17)
O3B O 0.42338(12) 0.5647(2) 0.47030(16)
loop_
_geom_bond_atom_site_label_1
_geom_bond_atom_site_label_2
_geom_bond_site_symmetry_1
_geom_bond_site_symmetry_2
Tb1 O2 1_555 1_555
O1 C1 1_555 1_555
O2 C1 1_555 1_555
O3 Tb1 1_555 1_555
O4 Tb1 1_555 1_555
O5 Tb1 1_555 1_555
O6 H1 1_555 1_555
O7 Tb1 1_555 1_555
H2 O7 1_555 1_555
H3 O7 1_555 1_555
C1 C2 1_555 1_555
C2 C3 1_555 1_555
C3 O3 1_555 1_555
C4 C3 1_555 1_555
H4 C4 1_555 1_555
C5 C4 1_555 1_555
H5 C5 1_555 1_555
C6 C5 1_555 1_555
H6 C6 1_555 1_555
C7 C2 1_555 1_555
H7 C7 1_555 1_555
C8 O4 1_555 1_555
C9 C8 1_555 1_555
C10 O6 1_555 1_555
C11 C10 1_555 1_555
H8 C11 1_555 1_555
C12 C11 1_555 1_555
H9 C12 1_555 1_555
C13 C12 1_555 1_555
H10 C13 1_555 1_555
C14 C9 1_555 1_555
H11 C14 1_555 1_555
Tb1A O1 1_555 1_555
Tb1B O3 1_555 1_555
O1A Tb1 1_555 1_555
O2A Tb1 1_555 1_555
O3B Tb1 1_555 1_555
O2 Tb1A 1_555 1_555
O5 C8 1_555 1_555
C6 C7 1_555 1_555
C9 C10 1_555 1_555
C13 C14 1_555 1_555
Tb1B O3B 1_555 1_555

#END
