
#######################################################################
#
#                 Cambridge Crystallographic Data Centre
#                                CCDC 
#
#######################################################################
#
# If this CIF has been generated from an entry in the Cambridge 
# Structural Database, then it will include bibliographic, chemical, 
# crystal, experimental, refinement or atomic coordinate data resulting 
# from the CCDC's data processing and validation procedures.
#
#######################################################################

data_XUJGIU
_symmetry_cell_setting           triclinic
_symmetry_space_group_name_H-M   'P -1'
_symmetry_Int_Tables_number      2
_space_group_name_Hall           '-P 1'
loop_
_symmetry_equiv_pos_site_id
_symmetry_equiv_pos_as_xyz
1 x,y,z
2 -x,-y,-z
_cell_length_a                   7.9053(16)
_cell_length_b                   11.664(2)
_cell_length_c                   12.404(3)
_cell_angle_alpha                98.25(3)
_cell_angle_beta                 95.54(3)
_cell_angle_gamma                103.08(3)
_cell_volume                     1092.62
loop_
_atom_site_label
_atom_site_type_symbol
_atom_site_fract_x
_atom_site_fract_y
_atom_site_fract_z
Zn1 Zn 0.50229(5) 0.71721(3) 0.39828(3)
N1 N 0.3194(3) 0.5548(2) 0.3635(2)
N2 N -0.2941(4) -0.0103(2) 0.2644(2)
C1 C 0.1295(4) 0.3983(3) 0.4310(3)
H1 H 0.0878 0.3677 0.4912
C2 C 0.2525(4) 0.5052(3) 0.4462(3)
H2 H 0.2917 0.5454 0.5177
C3 C 0.2586(4) 0.4953(2) 0.2616(2)
H3 H 0.3026 0.5278 0.2028
C4 C 0.1334(4) 0.3879(3) 0.2394(2)
H4 H 0.0937 0.3507 0.1670
C5 C 0.0672(4) 0.3358(2) 0.3249(2)
C6 C -0.0578(4) 0.2160(3) 0.3043(2)
C7 C -0.1757(4) 0.1761(3) 0.2081(3)
H5 H -0.1780 0.2245 0.1548
C8 C -0.2892(4) 0.0644(3) 0.1923(3)
H6 H -0.3669 0.0398 0.1274
C9 C -0.1788(5) 0.0284(3) 0.3566(3)
H7 H -0.1788 -0.0224 0.4080
C10 C -0.0611(4) 0.1377(3) 0.3798(3)
H8 H 0.0156 0.1595 0.4451
O1 O 0.6523(3) 0.9209(2) 0.57608(17)
O2 O 0.5143(3) 0.73020(19) 0.55656(16)
N3 N 0.4787(5) 0.6339(3) 0.9364(3)
H9 H 0.508(5) 0.628(3) 1.009(3)
H10 H 0.417(5) 0.553(3) 0.888(3)
C11 C 0.7626(5) 0.9269(3) 0.9193(3)
H11 H 0.8376 0.9918 0.9660
C12 C 0.6770(5) 0.8303(3) 0.9619(3)
H12 H 0.6942 0.8312 1.0372
C13 C 0.5654(5) 0.7314(3) 0.8938(3)
C14 C 0.5405(4) 0.7334(3) 0.7804(2)
H13 H 0.4659 0.6685 0.7335
C15 C 0.6254(4) 0.8304(3) 0.7374(2)
C16 C 0.7373(4) 0.9280(3) 0.8064(3)
H14 H 0.7947 0.9933 0.7778
C17 C 0.5966(4) 0.8303(3) 0.6149(2)
O3 O -0.3922(3) 0.6408(2) 0.18802(17)
O4 O -0.2627(3) 0.72370(17) 0.35795(16)
N4 N 0.3927(3) 0.8366(2) 0.3273(2)
H15 H 0.476(4) 0.867(3) 0.300(2)
H16 H 0.376(4) 0.891(3) 0.373(2)
C18 C 0.0971(4) 0.6774(3) 0.0725(3)
H17 H 0.1059 0.6475 0.0002
C19 C 0.2466(4) 0.7394(3) 0.1424(2)
H18 H 0.3549 0.7531 0.1168
C20 C 0.2339(4) 0.7812(2) 0.2515(2)
C21 C 0.0712(4) 0.7644(2) 0.2883(2)
H19 H 0.0631 0.7936 0.3609
C22 C -0.0800(4) 0.7039(3) 0.2170(2)
C23 C -0.0655(4) 0.6589(3) 0.1084(2)
H20 H -0.1650 0.6167 0.0605
C24 C -0.2587(4) 0.6874(3) 0.2554(3)
Zn1_2 Zn -0.49771(5) 0.71721(3) 0.39828(3)
O4_2 O 0.7373(3) 0.72370(17) 0.35795(16)
loop_
_geom_bond_atom_site_label_1
_geom_bond_atom_site_label_2
_geom_bond_site_symmetry_1
_geom_bond_site_symmetry_2
Zn1 N1 1_555 1_555
N1 C2 1_555 1_555
N2 C8 1_555 1_555
C1 H1 1_555 1_555
C2 C1 1_555 1_555
H2 C2 1_555 1_555
C3 N1 1_555 1_555
H3 C3 1_555 1_555
C4 C3 1_555 1_555
H4 C4 1_555 1_555
C5 C1 1_555 1_555
C6 C5 1_555 1_555
C7 C6 1_555 1_555
H5 C7 1_555 1_555
C8 C7 1_555 1_555
H6 C8 1_555 1_555
C9 N2 1_555 1_555
H7 C9 1_555 1_555
C10 C6 1_555 1_555
H8 C10 1_555 1_555
O1 C17 1_555 1_555
O2 Zn1 1_555 1_555
N3 H9 1_555 1_555
H10 N3 1_555 1_555
C11 H11 1_555 1_555
C12 C11 1_555 1_555
H12 C12 1_555 1_555
C13 N3 1_555 1_555
C14 C13 1_555 1_555
H13 C14 1_555 1_555
C15 C14 1_555 1_555
C16 C11 1_555 1_555
H14 C16 1_555 1_555
C17 O2 1_555 1_555
O3 C24 1_555 1_555
O4 C24 1_555 1_555
N4 Zn1 1_555 1_555
H15 N4 1_555 1_555
H16 N4 1_555 1_555
C18 H17 1_555 1_555
C19 C18 1_555 1_555
H18 C19 1_555 1_555
C20 N4 1_555 1_555
C21 C20 1_555 1_555
H19 C21 1_555 1_555
C22 C21 1_555 1_555
C23 C18 1_555 1_555
H20 C23 1_555 1_555
C24 C22 1_555 1_555
Zn1_2 O4 1_555 1_555
O4_2 Zn1 1_555 1_555
C4 C5 1_555 1_555
C9 C10 1_555 1_555
C12 C13 1_555 1_555
C15 C16 1_555 1_555
C15 C17 1_555 1_555
C19 C20 1_555 1_555
C22 C23 1_555 1_555

#END
