
#######################################################################
#
#                 Cambridge Crystallographic Data Centre
#                                CCDC 
#
#######################################################################
#
# If this CIF has been generated from an entry in the Cambridge 
# Structural Database, then it will include bibliographic, chemical, 
# crystal, experimental, refinement or atomic coordinate data resulting 
# from the CCDC's data processing and validation procedures.
#
#######################################################################

data_XUJKET
_symmetry_cell_setting           tetragonal
_symmetry_space_group_name_H-M   'P 42/n'
_symmetry_Int_Tables_number      86
_space_group_name_Hall           '-P 4bc'
loop_
_symmetry_equiv_pos_site_id
_symmetry_equiv_pos_as_xyz
1 x,y,z
2 -y,1/2+x,1/2+z
3 1/2-x,1/2-y,z
4 1/2+y,-x,1/2+z
5 -x,-y,-z
6 y,1/2-x,1/2-z
7 1/2+x,1/2+y,-z
8 1/2-y,x,1/2-z
_cell_length_a                   12.9747(8)
_cell_length_b                   12.9747(8)
_cell_length_c                   7.7329(9)
_cell_angle_alpha                90
_cell_angle_beta                 90
_cell_angle_gamma                90
_cell_volume                     1301.78
loop_
_atom_site_label
_atom_site_type_symbol
_atom_site_fract_x
_atom_site_fract_y
_atom_site_fract_z
Ag1 Ag 0.7500 0.2500 0.54635(5)
O1 O 0.9740(3) 0.0896(2) 0.0101(4)
N1 N 0.8753(3) 0.1729(3) 0.3956(4)
N2 N 0.8682(3) 0.1527(3) 0.2276(4)
N3 N 0.9584(3) 0.1137(3) 0.1779(4)
C1 C 0.9721(3) 0.1468(3) 0.4505(5)
C2 C 1.0178(4) 0.1534(3) 0.6132(5)
H1 H 0.9817 0.1775 0.7089
C3 C 1.1178(4) 0.1230(4) 0.6255(7)
H2 H 1.1506 0.1264 0.7323
C4 C 1.1738(4) 0.0860(4) 0.4804(6)
H3 H 1.2423 0.0667 0.4942
C5 C 1.1293(4) 0.0781(4) 0.3209(7)
H4 H 1.1654 0.0535 0.2256
C6 C 1.0267(3) 0.1089(3) 0.3093(5)
Ag1A Ag 0.7500 0.2500 0.04635(5)
O1B O 0.5260(3) 0.4104(2) 0.0101(4)
N1B N 0.6247(3) 0.3271(3) 0.3956(4)
N2B N 0.6318(3) 0.3473(3) 0.2276(4)
N2A N 0.8473(3) 0.3682(3) 0.7276(4)
N2C N 0.6527(3) 0.1318(3) 0.7276(4)
N3B N 0.5416(3) 0.3863(3) 0.1779(4)
C1B C 0.5279(3) 0.3532(3) 0.4505(5)
C2B C 0.4822(4) 0.3466(3) 0.6132(5)
H1B H 0.5183 0.3225 0.7089
C3B C 0.3822(4) 0.3770(4) 0.6255(7)
H2B H 0.3494 0.3736 0.7323
C4B C 0.3262(4) 0.4140(4) 0.4804(6)
H3B H 0.2577 0.4333 0.4942
C5B C 0.3707(4) 0.4219(4) 0.3209(7)
H4B H 0.3346 0.4465 0.2256
C6B C 0.4733(3) 0.3911(3) 0.3093(5)
loop_
_geom_bond_atom_site_label_1
_geom_bond_atom_site_label_2
_geom_bond_site_symmetry_1
_geom_bond_site_symmetry_2
Ag1 N1 1_555 1_555
O1 N3 1_555 1_555
N1 N2 1_555 1_555
N2 N3 1_555 1_555
N3 C6 1_555 1_555
C1 N1 1_555 1_555
C2 C1 1_555 1_555
H1 C2 1_555 1_555
C3 C2 1_555 1_555
H2 C3 1_555 1_555
C4 C3 1_555 1_555
H3 C4 1_555 1_555
C5 C4 1_555 1_555
H4 C5 1_555 1_555
C6 C1 1_555 1_555
Ag1A N2 1_555 1_555
O1B N3B 1_555 1_555
N1B Ag1 1_555 1_555
N2B Ag1A 1_555 1_555
N2A Ag1 1_555 1_555
N2C Ag1 1_555 1_555
N3B N2B 1_555 1_555
C1B N1B 1_555 1_555
C2B C1B 1_555 1_555
H1B C2B 1_555 1_555
C3B C2B 1_555 1_555
H2B C3B 1_555 1_555
C4B C3B 1_555 1_555
H3B C4B 1_555 1_555
C5B C4B 1_555 1_555
H4B C5B 1_555 1_555
C6B N3B 1_555 1_555
C5 C6 1_555 1_555
N1B N2B 1_555 1_555
C1B C6B 1_555 1_555
C5B C6B 1_555 1_555

#END
