
#######################################################################
#
#                 Cambridge Crystallographic Data Centre
#                                CCDC 
#
#######################################################################
#
# If this CIF has been generated from an entry in the Cambridge 
# Structural Database, then it will include bibliographic, chemical, 
# crystal, experimental, refinement or atomic coordinate data resulting 
# from the CCDC's data processing and validation procedures.
#
#######################################################################

data_XUJMAS
_symmetry_cell_setting           monoclinic
_symmetry_space_group_name_H-M   'P 21/n'
_symmetry_Int_Tables_number      14
_space_group_name_Hall           '-P 2yn'
loop_
_symmetry_equiv_pos_site_id
_symmetry_equiv_pos_as_xyz
1 x,y,z
2 1/2-x,1/2+y,1/2-z
3 -x,-y,-z
4 1/2+x,1/2-y,1/2+z
_cell_length_a                   8.986(2)
_cell_length_b                   10.319(2)
_cell_length_c                   16.464(4)
_cell_angle_alpha                90
_cell_angle_beta                 98.854(4)
_cell_angle_gamma                90
_cell_volume                     1508.46
loop_
_atom_site_label
_atom_site_type_symbol
_atom_site_fract_x
_atom_site_fract_y
_atom_site_fract_z
Cd1 Cd 0.5000 0.5000 0.5000
O1 O 0.4711(3) -0.0550(3) 0.26849(17)
N1 N 0.5429(2) 0.2863(2) 0.45999(13)
N2 N 0.1609(3) 0.1265(2) 0.30562(14)
N3 N 0.0726(3) 0.0622(2) 0.14089(13)
C1 C 0.6618(3) 0.2234(3) 0.50158(19)
H1 H 0.7195 0.2651 0.5457
C2 C 0.7018(4) 0.1000(3) 0.4818(2)
H2 H 0.7845 0.0594 0.5123
C3 C 0.6182(4) 0.0374(3) 0.4164(2)
H3 H 0.6439 -0.0457 0.4017
C4 C 0.4944(3) 0.1008(2) 0.37284(16)
C5 C 0.4615(3) 0.2252(2) 0.39665(15)
H4 H 0.3792 0.2679 0.3673
C6 C 0.4115(4) 0.0329(3) 0.29946(18)
C7 C 0.2551(3) 0.0707(2) 0.26133(15)
C8 C 0.2113(3) 0.0393(3) 0.17895(16)
H5 H 0.2808 0.0014 0.1499
C9 C -0.0229(3) 0.1164(3) 0.18524(18)
H6 H -0.1215 0.1330 0.1610
C10 C 0.0226(4) 0.1484(3) 0.26700(19)
H7 H -0.0468 0.1868 0.2960
O2 O 0.2532(2) 0.4590(2) 0.50538(14)
H8 H 0.2061 0.5071 0.5384
H9 H 0.2125 0.3802 0.5006
O1B O 0.5289(3) 1.0550(3) 0.73151(17)
N1B N 0.4571(2) 0.7137(2) 0.54001(13)
N2B N 0.8391(3) 0.8735(2) 0.69438(14)
N3B N 0.9274(3) 0.9378(2) 0.85911(13)
C1B C 0.3382(3) 0.7766(3) 0.49842(19)
H1B H 0.2805 0.7349 0.4543
C2B C 0.2982(4) 0.9000(3) 0.5182(2)
H2B H 0.2155 0.9406 0.4877
C3B C 0.3818(4) 0.9626(3) 0.5836(2)
H3B H 0.3561 1.0457 0.5983
C4B C 0.5056(3) 0.8992(2) 0.62716(16)
C5B C 0.5385(3) 0.7748(2) 0.60335(15)
H4B H 0.6208 0.7321 0.6327
C6B C 0.5885(4) 0.9671(3) 0.70054(18)
C7B C 0.7449(3) 0.9293(2) 0.73867(15)
C8B C 0.7887(3) 0.9607(3) 0.82105(16)
H5B H 0.7192 0.9986 0.8501
C9B C 1.0229(3) 0.8836(3) 0.81476(18)
H6B H 1.1215 0.8670 0.8390
C10B C 0.9774(4) 0.8516(3) 0.73300(19)
H7B H 1.0468 0.8132 0.7040
O2B O 0.7468(2) 0.5410(2) 0.49462(14)
H8B H 0.7939 0.4929 0.4616
H9B H 0.7875 0.6198 0.4994
Cd1A Cd 0.0000 0.0000 0.0000
Cd1A_2 Cd 1.0000 1.0000 1.0000
N3A N 0.4274(3) 0.5622(2) 0.35911(13)
N3C N 0.5726(3) 0.4378(2) 0.64089(13)
O3 O 0.1429(5) 0.2218(3) 0.4681(2)
H10 H 0.1479 0.1849 0.4197
H11 H 0.1076 0.1811 0.5087
O4 O 0.1483(4) 0.5973(3) 0.6228(2)
H12 H 0.2039 0.6332 0.6665
H13 H 0.0537 0.5713 0.6218
Cl1 Cl 0.03994(9) 0.19929(8) 0.66734(5)
O5 O 0.1687(6) 0.1985(7) 0.7229(4)
O6 O 0.0266(6) 0.3205(3) 0.6264(3)
O7 O -0.0888(4) 0.1831(3) 0.7042(2)
O8 O 0.0457(4) 0.1001(3) 0.60736(19)
loop_
_geom_bond_atom_site_label_1
_geom_bond_atom_site_label_2
_geom_bond_site_symmetry_1
_geom_bond_site_symmetry_2
Cd1 N1 1_555 1_555
O1 C6 1_555 1_555
N1 C1 1_555 1_555
N2 C7 1_555 1_555
N3 C8 1_555 1_555
C1 H1 1_555 1_555
C2 C1 1_555 1_555
H2 C2 1_555 1_555
C3 C2 1_555 1_555
H3 C3 1_555 1_555
C4 C3 1_555 1_555
C5 N1 1_555 1_555
H4 C5 1_555 1_555
C6 C4 1_555 1_555
C7 C6 1_555 1_555
C8 C7 1_555 1_555
H5 C8 1_555 1_555
C9 N3 1_555 1_555
H6 C9 1_555 1_555
C10 N2 1_555 1_555
H7 C10 1_555 1_555
O2 Cd1 1_555 1_555
H8 O2 1_555 1_555
H9 O2 1_555 1_555
O3 H10 1_555 1_555
H11 O3 1_555 1_555
O4 H12 1_555 1_555
H13 O4 1_555 1_555
Cl1 O5 1_555 1_555
O6 Cl1 1_555 1_555
O7 Cl1 1_555 1_555
O8 Cl1 1_555 1_555
O1B C6B 1_555 1_555
N1B Cd1 1_555 1_555
N2B C7B 1_555 1_555
N3B C8B 1_555 1_555
C1B N1B 1_555 1_555
H1B C1B 1_555 1_555
C2B C1B 1_555 1_555
H2B C2B 1_555 1_555
C3B C2B 1_555 1_555
H3B C3B 1_555 1_555
C4B C3B 1_555 1_555
C5B N1B 1_555 1_555
H4B C5B 1_555 1_555
C6B C4B 1_555 1_555
C7B C6B 1_555 1_555
C8B C7B 1_555 1_555
H5B C8B 1_555 1_555
C9B N3B 1_555 1_555
H6B C9B 1_555 1_555
C10B N2B 1_555 1_555
H7B C10B 1_555 1_555
O2B Cd1 1_555 1_555
H8B O2B 1_555 1_555
H9B O2B 1_555 1_555
Cd1A N3 1_555 1_555
Cd1A_2 N3B 1_555 1_555
N3A Cd1 1_555 1_555
N3C Cd1 1_555 1_555
C4 C5 1_555 1_555
C9 C10 1_555 1_555
C4B C5B 1_555 1_555
C9B C10B 1_555 1_555

#END
