
#######################################################################
#
#                 Cambridge Crystallographic Data Centre
#                                CCDC 
#
#######################################################################
#
# If this CIF has been generated from an entry in the Cambridge 
# Structural Database, then it will include bibliographic, chemical, 
# crystal, experimental, refinement or atomic coordinate data resulting 
# from the CCDC's data processing and validation procedures.
#
#######################################################################

data_XUJPEY
_symmetry_cell_setting           monoclinic
_symmetry_space_group_name_H-M   'P 21/c'
_symmetry_Int_Tables_number      14
_space_group_name_Hall           '-P 2ybc'
loop_
_symmetry_equiv_pos_site_id
_symmetry_equiv_pos_as_xyz
1 x,y,z
2 -x,1/2+y,1/2-z
3 -x,-y,-z
4 x,1/2-y,1/2+z
_cell_length_a                   10.7110(9)
_cell_length_b                   13.7963(12)
_cell_length_c                   18.7511(16)
_cell_angle_alpha                90
_cell_angle_beta                 98.158(2)
_cell_angle_gamma                90
_cell_volume                     2742.85
loop_
_atom_site_label
_atom_site_type_symbol
_atom_site_fract_x
_atom_site_fract_y
_atom_site_fract_z
Ni1 Ni 0.39800(3) 0.26770(2) 0.524110(17)
Ni2 Ni 0.5000 0.0000 0.0000
C1 C 0.4095(3) 0.1353(2) 0.33316(14)
C2 C 0.4163(3) 0.1461(2) 0.25982(15)
H1 H 0.3854 0.2037 0.2358
C3 C 0.4676(3) 0.0736(2) 0.22147(14)
C4 C 0.5185(3) -0.0091(2) 0.25747(15)
H2 H 0.5541 -0.0588 0.2317
C5 C 0.5170(3) -0.0185(2) 0.33119(16)
C6 C 0.4576(3) 0.0530(2) 0.36822(15)
H3 H 0.4508 0.0442 0.4178
C7 C 0.3558(3) 0.2173(2) 0.37298(14)
C8 C 0.4706(3) 0.0853(2) 0.14124(14)
C9 C 0.5837(3) -0.1001(2) 0.37268(15)
O1 O 0.31788(17) 0.19516(14) 0.43240(10)
O2 O 0.3545(2) 0.30043(16) 0.34731(11)
O3 O 0.47010(18) 0.17183(15) 0.11897(10)
O4 O 0.47321(18) 0.00972(14) 0.10483(10)
O5 O 0.6810(2) -0.13383(17) 0.34414(11)
O6 O 0.55058(17) -0.13233(14) 0.42758(10)
C10 C 0.2209(3) -0.2331(2) -0.02681(17)
C11 C 0.1055(2) -0.1881(2) -0.02929(17)
H4 H 0.1022 -0.1204 -0.0206
C12 C -0.0077(3) -0.2409(2) -0.04456(18)
C13 C -0.0023(3) -0.3403(2) -0.05842(17)
H5 H -0.0779 -0.3763 -0.0704
C14 C 0.1137(3) -0.3860(2) -0.05468(17)
C15 C 0.2245(3) -0.3331(2) -0.03881(17)
H6 H 0.3036 -0.3651 -0.0361
C16 C 0.3447(2) -0.1818(2) -0.00907(15)
C17 C -0.1309(2) -0.1929(2) -0.03925(16)
C18 C 0.1209(3) -0.4936(2) -0.06658(19)
O7 O 0.43681(17) -0.23516(14) 0.01428(10)
O8 O 0.34687(17) -0.09198(14) -0.01853(11)
O9 O -0.1319(2) -0.10984(18) -0.01226(17)
O10 O -0.23001(17) -0.24131(14) -0.06147(10)
O11 O 0.0382(2) -0.54061(18) -0.09863(16)
O12 O 0.2316(2) -0.52895(16) -0.03509(14)
O13 O 0.64169(17) -0.10297(13) 0.03023(10)
Ni1B Ni 0.60200(3) -0.26770(2) -0.524110(17)
Ni1C Ni 0.39800(3) 0.23230(2) 0.024110(17)
Ni1B_2 Ni 0.60200(3) -0.26770(2) 0.475890(17)
Ni1A Ni 0.60200(3) -0.23230(2) -0.024110(17)
Ni1A_2 Ni -0.39800(3) -0.23230(2) -0.024110(17)
Ni1_2 Ni 0.39800(3) 0.26770(2) -0.475890(17)
Ni1C_2 Ni 1.39800(3) 0.23230(2) 0.024110(17)
C1B C 0.5905(3) -0.1353(2) -0.33316(14)
C2B C 0.5837(3) -0.1461(2) -0.25982(15)
H1B H 0.6146 -0.2037 -0.2358
C3B C 0.5324(3) -0.0736(2) -0.22147(14)
C4B C 0.4815(3) 0.0091(2) -0.25747(15)
H2B H 0.4459 0.0588 -0.2317
C5B C 0.4830(3) 0.0185(2) -0.33119(16)
C6B C 0.5424(3) -0.0530(2) -0.36822(15)
H3B H 0.5492 -0.0442 -0.4178
C7B C 0.6442(3) -0.2173(2) -0.37298(14)
C8B C 0.5294(3) -0.0853(2) -0.14124(14)
C9B C 0.4163(3) 0.1001(2) -0.37268(15)
O1B O 0.68212(17) -0.19516(14) -0.43240(10)
O2B O 0.6455(2) -0.30043(16) -0.34731(11)
O3B O 0.52990(18) -0.17183(15) -0.11897(10)
O3C O 0.47010(18) 0.32817(15) 0.61897(10)
O3A O 0.52990(18) -0.32817(15) -0.61897(10)
O4B O 0.52679(18) -0.00972(14) -0.10483(10)
O5B O 0.3190(2) 0.13383(17) -0.34414(11)
O6B O 0.44942(17) 0.13233(14) -0.42758(10)
O6B_2 O 0.44942(17) 0.13233(14) 0.57242(10)
O6_2 O 0.55058(17) -0.13233(14) -0.57242(10)
C10B C 0.7791(3) 0.2331(2) 0.02681(17)
C11B C 0.8945(2) 0.1881(2) 0.02929(17)
H4B H 0.8978 0.1204 0.0206
C12B C 1.0077(3) 0.2409(2) 0.04456(18)
C13B C 1.0023(3) 0.3403(2) 0.05842(17)
H5B H 1.0779 0.3763 0.0704
C14B C 0.8863(3) 0.3860(2) 0.05468(17)
C15B C 0.7755(3) 0.3331(2) 0.03881(17)
H6B H 0.6964 0.3651 0.0361
C16B C 0.6553(2) 0.1818(2) 0.00907(15)
C17B C 1.1309(2) 0.1929(2) 0.03925(16)
C18B C 0.8791(3) 0.4936(2) 0.06658(19)
O7B O 0.56319(17) 0.23516(14) -0.01428(10)
O7A O 0.56319(17) 0.26484(14) 0.48572(10)
O7C O 0.43681(17) -0.26484(14) -0.48572(10)
O8B O 0.65313(17) 0.09198(14) 0.01853(11)
O9B O 1.1319(2) 0.10984(18) 0.01226(17)
O10B O 1.23001(17) 0.24131(14) 0.06147(10)
O10A O 0.23001(17) 0.25869(14) 0.56147(10)
O10C O 0.76999(17) -0.25869(14) -0.56147(10)
O11B O 0.9618(2) 0.54061(18) 0.09863(16)
O12B O 0.7684(2) 0.52895(16) 0.03509(14)
O13B O 0.35831(17) 0.10297(13) -0.03023(10)
O13A O 0.35831(17) 0.39703(13) 0.46977(10)
O13C O 0.64169(17) -0.39703(13) -0.46977(10)
N1 N 1.1944(4) 0.7519(4) 0.6475(3)
N2 N 1.0916(6) 0.6264(5) 0.6476(3)
C19 C 1.0774(7) 0.7359(5) 0.6447(3)
H7 H 1.0063 0.7776 0.6418
C20 C 1.2010(8) 0.6047(7) 0.6470(4)
H8 H 1.2282 0.5395 0.6439
C21 C 1.2519(6) 0.8504(6) 0.6450(4)
H9 H 1.1856 0.8997 0.6426
H10 H 1.2947 0.8555 0.6023
H11 H 1.3131 0.8605 0.6884
C22 C 0.9887(17) 0.5711(15) 0.6488(10)
H12 H 0.9941 0.5225 0.6105
H13 H 0.9179 0.6142 0.6297
C23 C 0.9407(10) 0.5168(11) 0.7049(9)
H14 H 0.9309 0.5606 0.7456
H15 H 1.0017 0.4655 0.7229
C24 C 0.8100(9) 0.4695(9) 0.6760(7)
H16 H 0.7793 0.4331 0.7149
H17 H 0.8199 0.4254 0.6362
H18 H 0.7492 0.5203 0.6589
C25 C 1.2748(9) 0.6744(7) 0.6509(5)
H19 H 1.3642 0.6741 0.6552
loop_
_geom_bond_atom_site_label_1
_geom_bond_atom_site_label_2
_geom_bond_site_symmetry_1
_geom_bond_site_symmetry_2
Ni1 O1 1_555 1_555
Ni2 O4 1_555 1_555
C1 C2 1_555 1_555
C2 H1 1_555 1_555
C3 C2 1_555 1_555
C4 C3 1_555 1_555
H2 C4 1_555 1_555
C5 C4 1_555 1_555
C6 C1 1_555 1_555
H3 C6 1_555 1_555
C7 C1 1_555 1_555
C8 C3 1_555 1_555
C9 C5 1_555 1_555
O1 C7 1_555 1_555
O2 C7 1_555 1_555
O3 C8 1_555 1_555
O4 C8 1_555 1_555
O5 C9 1_555 1_555
O6 C9 1_555 1_555
C10 C11 1_555 1_555
C11 H4 1_555 1_555
C12 C11 1_555 1_555
C13 C12 1_555 1_555
H5 C13 1_555 1_555
C14 C13 1_555 1_555
C15 C10 1_555 1_555
H6 C15 1_555 1_555
C16 C10 1_555 1_555
C17 C12 1_555 1_555
C18 C14 1_555 1_555
O7 C16 1_555 1_555
O8 Ni2 1_555 1_555
O9 C17 1_555 1_555
O10 C17 1_555 1_555
O11 C18 1_555 1_555
O12 C18 1_555 1_555
O13 Ni2 1_555 1_555
N1 C19 1_555 1_555
N2 C19 1_555 1_555
C19 H7 1_555 1_555
C20 N2 1_555 1_555
H8 C20 1_555 1_555
C21 N1 1_555 1_555
H9 C21 1_555 1_555
H10 C21 1_555 1_555
H11 C21 1_555 1_555
C22 N2 1_555 1_555
H12 C22 1_555 1_555
H13 C22 1_555 1_555
C23 C22 1_555 1_555
H14 C23 1_555 1_555
H15 C23 1_555 1_555
C24 C23 1_555 1_555
H16 C24 1_555 1_555
H17 C24 1_555 1_555
H18 C24 1_555 1_555
C25 N1 1_555 1_555
H19 C25 1_555 1_555
Ni1B O1B 1_555 1_555
Ni1C O3 1_555 1_555
Ni1B_2 O6 1_555 1_555
Ni1A O7 1_555 1_555
Ni1A_2 O10 1_555 1_555
Ni1_2 O6B 1_555 1_555
Ni1C_2 O10B 1_555 1_555
C1B C2B 1_555 1_555
C2B H1B 1_555 1_555
C3B C2B 1_555 1_555
C4B C3B 1_555 1_555
H2B C4B 1_555 1_555
C5B C4B 1_555 1_555
C6B C1B 1_555 1_555
H3B C6B 1_555 1_555
C7B C1B 1_555 1_555
C8B C3B 1_555 1_555
C9B C5B 1_555 1_555
O1B C7B 1_555 1_555
O2B C7B 1_555 1_555
O3B Ni1A 1_555 1_555
O3C Ni1 1_555 1_555
O3A Ni1B 1_555 1_555
O4B Ni2 1_555 1_555
O5B C9B 1_555 1_555
O6B C9B 1_555 1_555
O6B_2 Ni1 1_555 1_555
O6_2 Ni1B 1_555 1_555
C10B C11B 1_555 1_555
C11B H4B 1_555 1_555
C12B C11B 1_555 1_555
C13B C12B 1_555 1_555
H5B C13B 1_555 1_555
C14B C13B 1_555 1_555
C15B C10B 1_555 1_555
H6B C15B 1_555 1_555
C16B C10B 1_555 1_555
C17B C12B 1_555 1_555
C18B C14B 1_555 1_555
O7B Ni1C 1_555 1_555
O7A Ni1 1_555 1_555
O7C Ni1B 1_555 1_555
O8B Ni2 1_555 1_555
O9B C17B 1_555 1_555
O10B C17B 1_555 1_555
O10A Ni1 1_555 1_555
O10C Ni1B 1_555 1_555
O11B C18B 1_555 1_555
O12B C18B 1_555 1_555
O13B Ni2 1_555 1_555
O13A Ni1 1_555 1_555
O13C Ni1B 1_555 1_555
C5 C6 1_555 1_555
C14 C15 1_555 1_555
C16 O8 1_555 1_555
O13 Ni1A 1_555 1_555
C20 C25 1_555 1_555
Ni1C O13B 1_555 1_555
C5B C6B 1_555 1_555
C8B O3B 1_555 1_555
C8B O4B 1_555 1_555
C14B C15B 1_555 1_555
C16B O7B 1_555 1_555
C16B O8B 1_555 1_555

#END
