
#######################################################################
#
#                 Cambridge Crystallographic Data Centre
#                                CCDC 
#
#######################################################################
#
# If this CIF has been generated from an entry in the Cambridge 
# Structural Database, then it will include bibliographic, chemical, 
# crystal, experimental, refinement or atomic coordinate data resulting 
# from the CCDC's data processing and validation procedures.
#
#######################################################################

data_XUJPIC
_symmetry_cell_setting           monoclinic
_symmetry_space_group_name_H-M   'P 21/c'
_symmetry_Int_Tables_number      14
_space_group_name_Hall           '-P 2ybc'
loop_
_symmetry_equiv_pos_site_id
_symmetry_equiv_pos_as_xyz
1 x,y,z
2 -x,1/2+y,1/2-z
3 -x,-y,-z
4 x,1/2-y,1/2+z
_cell_length_a                   10.781(3)
_cell_length_b                   13.903(4)
_cell_length_c                   18.740(5)
_cell_angle_alpha                90
_cell_angle_beta                 98.170(5)
_cell_angle_gamma                90
_cell_volume                     2780.4
loop_
_atom_site_label
_atom_site_type_symbol
_atom_site_fract_x
_atom_site_fract_y
_atom_site_fract_z
Ni1 Ni 0.60570(2) -0.269210(18) 0.476250(13)
Ni2 Ni 0.5000 0.0000 0.0000
C1 C -0.00095(7) -0.24298(6) -0.03389(4)
C2 C 0.10848(7) -0.18947(6) -0.01840(5)
H1 H 0.1041 -0.1223 -0.0096
C3 C 0.22437(7) -0.23416(7) -0.01577(5)
C4 C 0.23083(7) -0.33237(7) -0.02862(5)
H2 H 0.3100 -0.3629 -0.0268
C5 C 0.12141(8) -0.38589(6) -0.04412(5)
C6 C 0.00552(8) -0.34119(6) -0.04675(4)
H3 H -0.0693 -0.3778 -0.0573
C7 C -0.12539(18) -0.19571(15) -0.02747(10)
C8 C 0.34700(18) -0.18159(14) -0.00478(10)
C9 C 0.1280(2) -0.49148(16) -0.05780(12)
O1 O -0.22311(13) -0.24152(10) -0.05638(7)
O2 O -0.12778(14) -0.11733(11) 0.00441(9)
O3 O 0.34780(13) -0.09207(10) -0.01505(8)
O4 O 0.44118(13) -0.23453(10) 0.01307(8)
O5 O 0.24047(14) -0.52809(11) -0.03226(9)
O6 O 0.04346(15) -0.53904(12) -0.08850(10)
C10 C 0.52629(10) -0.01840(11) 0.33146(8)
C11 C 0.52825(12) -0.00776(12) 0.25787(8)
H4 H 0.5672 -0.0552 0.2321
C12 C 0.47347(10) 0.07183(8) 0.22234(6)
C13 C 0.42044(15) 0.14309(10) 0.26037(7)
H5 H 0.3855 0.1989 0.2360
C14 C 0.41856(17) 0.13272(13) 0.33398(7)
C15 C 0.46971(17) 0.05110(14) 0.36957(6)
H6 H 0.4661 0.0428 0.4196
C16 C 0.59172(18) -0.10068(15) 0.37234(10)
C17 C 0.46920(18) 0.08395(14) 0.14100(10)
C18 C 0.36551(19) 0.21399(15) 0.37393(11)
O7 O 0.55485(13) -0.13484(10) 0.42596(7)
O8 O 0.69276(14) -0.13285(11) 0.34666(8)
O9 O 0.47995(14) 0.00897(10) 0.10542(7)
O10 O 0.45855(13) 0.16943(10) 0.11916(7)
O11 O 0.36570(15) 0.29690(11) 0.34911(8)
O12 O 0.32520(13) 0.19236(10) 0.43304(7)
O13 O 0.64038(12) -0.10296(9) 0.03208(7)
Ni1A Ni 1.39430(2) 0.230790(18) 0.023750(13)
Ni1C Ni 0.60570(2) -0.230790(18) -0.023750(13)
Ni1C_2 Ni -0.39430(2) -0.230790(18) -0.023750(13)
Ni1A_2 Ni 0.39430(2) 0.230790(18) 0.023750(13)
Ni1B Ni 0.39430(2) 0.269210(18) 0.523750(13)
Ni1B_2 Ni 0.39430(2) 0.269210(18) -0.476250(13)
Ni1_2 Ni 0.60570(2) -0.269210(18) -0.523750(13)
C1B C 1.00095(7) 0.24298(6) 0.03389(4)
C2B C 0.89152(7) 0.18947(6) 0.01840(5)
H1B H 0.8959 0.1223 0.0096
C3B C 0.77563(7) 0.23416(7) 0.01577(5)
C4B C 0.76917(7) 0.33237(7) 0.02862(5)
H2B H 0.6900 0.3629 0.0268
C5B C 0.87859(8) 0.38589(6) 0.04412(5)
C6B C 0.99448(8) 0.34119(6) 0.04675(4)
H3B H 1.0693 0.3778 0.0573
C7B C 1.12539(18) 0.19571(15) 0.02747(10)
C8B C 0.65300(18) 0.18159(14) 0.00478(10)
C9B C 0.8720(2) 0.49148(16) 0.05780(12)
O1B O 1.22311(13) 0.24152(10) 0.05638(7)
O1C O 0.77689(13) -0.25848(10) 0.44362(7)
O1A O 0.22311(13) 0.25848(10) -0.44362(7)
O2B O 1.12778(14) 0.11733(11) -0.00441(9)
O3B O 0.65220(13) 0.09207(10) 0.01505(8)
O4B O 0.55882(13) 0.23453(10) -0.01307(8)
O4C O 0.44118(13) -0.26547(10) 0.51307(8)
O4A O 0.55882(13) 0.26547(10) -0.51307(8)
O5B O 0.75953(14) 0.52809(11) 0.03226(9)
O6B O 0.95654(15) 0.53904(12) 0.08850(10)
C10B C 0.47371(10) 0.01840(11) -0.33146(8)
C11B C 0.47175(12) 0.00776(12) -0.25787(8)
H4B H 0.4328 0.0552 -0.2321
C12B C 0.52653(10) -0.07183(8) -0.22234(6)
C13B C 0.57956(15) -0.14309(10) -0.26037(7)
H5B H 0.6145 -0.1989 -0.2360
C14B C 0.58144(17) -0.13272(13) -0.33398(7)
C15B C 0.53029(17) -0.05110(14) -0.36957(6)
H6B H 0.5339 -0.0428 -0.4196
C16B C 0.40828(18) 0.10068(15) -0.37234(10)
C17B C 0.53080(18) -0.08395(14) -0.14100(10)
C18B C 0.63449(19) -0.21399(15) -0.37393(11)
O7B O 0.44515(13) 0.13484(10) -0.42596(7)
O8B O 0.30724(14) 0.13285(11) -0.34666(8)
O9B O 0.52005(14) -0.00897(10) -0.10542(7)
O10B O 0.54145(13) -0.16943(10) -0.11916(7)
O10A O 0.54145(13) -0.33057(10) 0.38084(7)
O10C O 0.45855(13) 0.33057(10) -0.38084(7)
O11B O 0.63430(15) -0.29690(11) -0.34911(8)
O12B O 0.67480(13) -0.19236(10) -0.43304(7)
O12B_2 O 0.67480(13) -0.19236(10) 0.56696(7)
O12_2 O 0.32520(13) 0.19236(10) -0.56696(7)
O13B O 0.35962(12) 0.10296(9) -0.03208(7)
O13C O 0.64038(12) -0.39704(9) 0.53208(7)
O13A O 0.35962(12) 0.39704(9) -0.53208(7)
N1 N -0.2635(4) -0.6921(3) -0.2777(2)
N2 N -0.1777(3) -0.5536(3) -0.26416(19)
C19 C -0.2308(4) -0.6218(3) -0.3124(2)
H7 H -0.2408 -0.6165 -0.3635
C20 C -0.2323(4) -0.6797(4) -0.2058(3)
H8 H -0.2449 -0.7228 -0.1681
C21 C -0.1797(4) -0.5925(4) -0.2002(2)
H9 H -0.1479 -0.5625 -0.1559
C22 C -0.3274(8) -0.7850(6) -0.2949(4)
H10 H -0.3486 -0.7915 -0.3473
H11 H -0.4043 -0.7874 -0.2726
H12 H -0.2718 -0.8378 -0.2761
C23 C -0.1381(5) -0.4543(4) -0.2866(3)
H13 H -0.1662 -0.4479 -0.3390
H14 H -0.1858 -0.4065 -0.2623
C24 C -0.0177(9) -0.4284(8) -0.2745(6)
H15 H -0.0012 -0.3973 -0.2266
H16 H -0.0029 -0.3797 -0.3109
C25 C 0.0779(16) -0.5111(11) -0.2768(10)
H17 H 0.0388 -0.5747 -0.2718
H18 H 0.1510 -0.5036 -0.2388
C26 C 0.1160(11) -0.4974(7) -0.3544(6)
H19 H 0.1782 -0.5460 -0.3625
H20 H 0.1517 -0.4331 -0.3582
H21 H 0.0416 -0.5045 -0.3907
loop_
_geom_bond_atom_site_label_1
_geom_bond_atom_site_label_2
_geom_bond_site_symmetry_1
_geom_bond_site_symmetry_2
Ni1 O7 1_555 1_555
Ni2 O3 1_555 1_555
C1 C2 1_555 1_555
C2 H1 1_555 1_555
C3 C2 1_555 1_555
C4 C3 1_555 1_555
H2 C4 1_555 1_555
C5 C4 1_555 1_555
C6 C1 1_555 1_555
H3 C6 1_555 1_555
C7 C1 1_555 1_555
C8 C3 1_555 1_555
C9 C5 1_555 1_555
O1 C7 1_555 1_555
O2 C7 1_555 1_555
O3 C8 1_555 1_555
O4 C8 1_555 1_555
O5 C9 1_555 1_555
O6 C9 1_555 1_555
C10 C11 1_555 1_555
C11 H4 1_555 1_555
C12 C11 1_555 1_555
C13 C12 1_555 1_555
H5 C13 1_555 1_555
C14 C13 1_555 1_555
C15 C10 1_555 1_555
H6 C15 1_555 1_555
C16 C10 1_555 1_555
C17 C12 1_555 1_555
C18 C14 1_555 1_555
O7 C16 1_555 1_555
O8 C16 1_555 1_555
O9 Ni2 1_555 1_555
O10 C17 1_555 1_555
O11 C18 1_555 1_555
O12 C18 1_555 1_555
O13 Ni2 1_555 1_555
N1 C19 1_555 1_555
N2 C19 1_555 1_555
C19 H7 1_555 1_555
C20 N1 1_555 1_555
H8 C20 1_555 1_555
C21 N2 1_555 1_555
H9 C21 1_555 1_555
C22 N1 1_555 1_555
H10 C22 1_555 1_555
H11 C22 1_555 1_555
H12 C22 1_555 1_555
C23 N2 1_555 1_555
H13 C23 1_555 1_555
H14 C23 1_555 1_555
C24 C23 1_555 1_555
H15 C24 1_555 1_555
H16 C24 1_555 1_555
C25 C24 1_555 1_555
H17 C25 1_555 1_555
H18 C25 1_555 1_555
C26 C25 1_555 1_555
H19 C26 1_555 1_555
H20 C26 1_555 1_555
H21 C26 1_555 1_555
Ni1A O1B 1_555 1_555
Ni1C O4 1_555 1_555
Ni1C_2 O1 1_555 1_555
Ni1A_2 O10 1_555 1_555
Ni1B O12 1_555 1_555
Ni1B_2 O1A 1_555 1_555
Ni1_2 O12B 1_555 1_555
C1B C2B 1_555 1_555
C2B H1B 1_555 1_555
C3B C2B 1_555 1_555
C4B C3B 1_555 1_555
H2B C4B 1_555 1_555
C5B C4B 1_555 1_555
C6B C1B 1_555 1_555
H3B C6B 1_555 1_555
C7B C1B 1_555 1_555
C8B C3B 1_555 1_555
C9B C5B 1_555 1_555
O1B C7B 1_555 1_555
O1C Ni1 1_555 1_555
O2B C7B 1_555 1_555
O3B Ni2 1_555 1_555
O4B Ni1A_2 1_555 1_555
O4C Ni1 1_555 1_555
O4A Ni1B_2 1_555 1_555
O5B C9B 1_555 1_555
O6B C9B 1_555 1_555
C10B C11B 1_555 1_555
C11B H4B 1_555 1_555
C12B C11B 1_555 1_555
C13B C12B 1_555 1_555
H5B C13B 1_555 1_555
C14B C13B 1_555 1_555
C15B C10B 1_555 1_555
H6B C15B 1_555 1_555
C16B C10B 1_555 1_555
C17B C12B 1_555 1_555
C18B C14B 1_555 1_555
O7B Ni1B_2 1_555 1_555
O8B C16B 1_555 1_555
O9B Ni2 1_555 1_555
O10B Ni1C 1_555 1_555
O10A Ni1 1_555 1_555
O10C Ni1B_2 1_555 1_555
O11B C18B 1_555 1_555
O12B C18B 1_555 1_555
O12B_2 Ni1 1_555 1_555
O12_2 Ni1B_2 1_555 1_555
O13B Ni2 1_555 1_555
O13C Ni1 1_555 1_555
O13A Ni1B_2 1_555 1_555
C5 C6 1_555 1_555
C14 C15 1_555 1_555
C17 O9 1_555 1_555
O13 Ni1C 1_555 1_555
C20 C21 1_555 1_555
Ni1A_2 O13B 1_555 1_555
C5B C6B 1_555 1_555
C8B O3B 1_555 1_555
C8B O4B 1_555 1_555
C14B C15B 1_555 1_555
C16B O7B 1_555 1_555
C17B O9B 1_555 1_555
C17B O10B 1_555 1_555

#END
