
#######################################################################
#
#                 Cambridge Crystallographic Data Centre
#                                CCDC 
#
#######################################################################
#
# If this CIF has been generated from an entry in the Cambridge 
# Structural Database, then it will include bibliographic, chemical, 
# crystal, experimental, refinement or atomic coordinate data resulting 
# from the CCDC's data processing and validation procedures.
#
#######################################################################

data_XUJQAV
_symmetry_cell_setting           orthorhombic
_symmetry_space_group_name_H-M   'P b c a'
_symmetry_Int_Tables_number      61
_space_group_name_Hall           '-P 2ac 2ab'
loop_
_symmetry_equiv_pos_site_id
_symmetry_equiv_pos_as_xyz
1 x,y,z
2 1/2-x,-y,1/2+z
3 -x,1/2+y,1/2-z
4 1/2+x,1/2-y,-z
5 -x,-y,-z
6 1/2+x,y,1/2-z
7 x,1/2-y,1/2+z
8 1/2-x,1/2+y,z
_cell_length_a                   14.1349(5)
_cell_length_b                   16.2961(5)
_cell_length_c                   16.5240(5)
_cell_angle_alpha                90
_cell_angle_beta                 90
_cell_angle_gamma                90
_cell_volume                     3806.2
loop_
_atom_site_label
_atom_site_type_symbol
_atom_site_fract_x
_atom_site_fract_y
_atom_site_fract_z
Ni1 Ni -0.027279(18) 0.672634(15) 0.113979(15)
Ni2 Ni 0.0000 0.5000 0.0000
C1 C 0.13894(14) 0.49671(11) 0.23520(11)
C2 C 0.11333(13) 0.41695(12) 0.25374(11)
H1 H 0.0700 0.3886 0.2198
C3 C 0.15028(14) 0.37775(12) 0.32145(11)
C4 C 0.22011(14) 0.41706(12) 0.36651(12)
H2 H 0.2458 0.3908 0.4129
C5 C 0.25244(13) 0.49409(12) 0.34428(11)
C6 C 0.20818(13) 0.53592(12) 0.28068(11)
H3 H 0.2254 0.5909 0.2687
C7 C 0.08987(13) 0.53910(12) 0.16545(11)
C8 C 0.11163(14) 0.29506(12) 0.34502(12)
C9 C 0.33821(13) 0.53209(12) 0.38431(11)
O1 O 0.08198(10) 0.61616(8) 0.16901(8)
O2 O 0.05962(10) 0.49238(8) 0.11133(8)
O3 O 0.05129(10) 0.26097(8) 0.29906(8)
O4 O 0.13573(10) 0.26241(9) 0.41087(8)
O5 O 0.36667(9) 0.49921(8) 0.44907(8)
O6 O 0.37515(10) 0.59115(9) 0.34715(8)
C10 C -0.07701(17) 0.30552(14) 0.10718(13)
H4 H -0.1461 0.3013 0.1100
H5 H -0.0485 0.2562 0.1307
H6 H -0.0561 0.3539 0.1375
C11 C -0.04700(15) 0.31344(13) 0.02050(12)
O7 O -0.06654(10) 0.25958(9) -0.03075(9)
O8 O 0.00589(10) 0.37319(9) -0.00105(8)
Ni1D Ni 0.027279(18) 0.327366(15) -0.113979(15)
Ni1B Ni 0.027279(18) 0.172634(15) 0.386021(15)
Ni1E Ni 0.472721(18) 0.672634(15) 0.386021(15)
Ni1F Ni -0.027279(18) 0.827366(15) -0.386021(15)
Ni1A Ni -0.472721(18) 0.327366(15) -0.386021(15)
Ni2A Ni 0.5000 0.5000 0.5000
Ni2A_2 Ni -0.5000 0.5000 -0.5000
C1D C -0.13894(14) 0.50329(11) -0.23520(11)
C2D C -0.11333(13) 0.58305(12) -0.25374(11)
H1D H -0.0700 0.6114 -0.2198
C3D C -0.15028(14) 0.62225(12) -0.32145(11)
C4D C -0.22011(14) 0.58294(12) -0.36651(12)
H2D H -0.2458 0.6092 -0.4129
C5D C -0.25244(13) 0.50591(12) -0.34428(11)
C6D C -0.20818(13) 0.46408(12) -0.28068(11)
H3D H -0.2254 0.4091 -0.2687
C7D C -0.08987(13) 0.46090(12) -0.16545(11)
C8D C -0.11163(14) 0.70494(12) -0.34502(12)
C9D C -0.33821(13) 0.46791(12) -0.38431(11)
O1D O -0.08198(10) 0.38384(8) -0.16901(8)
O2D O -0.05962(10) 0.50762(8) -0.11133(8)
O3D O -0.05129(10) 0.73903(8) -0.29906(8)
O3B O -0.05129(10) 0.76097(8) 0.20094(8)
O3F O 0.05129(10) 0.23903(8) -0.20094(8)
O4D O -0.13573(10) 0.73759(9) -0.41087(8)
O4B O -0.13573(10) 0.76241(9) 0.08913(8)
O4F O 0.13573(10) 0.23759(9) -0.08913(8)
O5D O -0.36667(9) 0.50079(8) -0.44907(8)
O5A O 0.13333(9) 0.50079(8) -0.05093(8)
O5E O -0.13333(9) 0.49921(8) 0.05093(8)
O6D O -0.37515(10) 0.40885(9) -0.34715(8)
O6E O -0.12485(10) 0.59115(9) 0.15285(8)
O6A O 0.12485(10) 0.40885(9) -0.15285(8)
C10D C 0.07701(17) 0.69448(14) -0.10718(13)
H4D H 0.1461 0.6987 -0.1100
H5D H 0.0485 0.7438 -0.1307
H6D H 0.0561 0.6461 -0.1375
C11D C 0.04700(15) 0.68656(13) -0.02050(12)
O7D O 0.06654(10) 0.74042(9) 0.03075(9)
O8D O -0.00589(10) 0.62681(9) 0.00105(8)
N1 N 0.21300(14) 0.62074(14) 0.60369(12)
N2 N 0.15894(15) 0.49926(13) 0.62603(12)
C12 C 0.22025(18) 0.54235(18) 0.58355(14)
H7 H 0.2629 0.5206 0.5446
C13 C 0.14386(17) 0.62855(16) 0.66206(15)
H8 H 0.1236 0.6778 0.6874
C14 C 0.11102(17) 0.55261(16) 0.67580(15)
H9 H 0.0630 0.5382 0.7134
C15 C 0.2727(2) 0.6868(2) 0.5734(2)
H10 H 0.3159 0.6651 0.5323
H11 H 0.3094 0.7100 0.6182
H12 H 0.2330 0.7296 0.5494
C16 C 0.1454(2) 0.40963(17) 0.62145(18)
H13 H 0.1268 0.3888 0.6754
H14 H 0.2060 0.3834 0.6064
C17 C 0.0716(2) 0.38639(19) 0.56125(19)
H15 H 0.0720 0.3260 0.5550
H16 H 0.0887 0.4105 0.5083
C18 C -0.0272(2) 0.41318(19) 0.5826(2)
H17 H -0.0710 0.3955 0.5401
H18 H -0.0291 0.4731 0.5874
H19 H -0.0458 0.3884 0.6342
loop_
_geom_bond_atom_site_label_1
_geom_bond_atom_site_label_2
_geom_bond_site_symmetry_1
_geom_bond_site_symmetry_2
Ni1 O1 1_555 1_555
Ni2 O2 1_555 1_555
C1 C2 1_555 1_555
C2 H1 1_555 1_555
C3 C2 1_555 1_555
C4 C3 1_555 1_555
H2 C4 1_555 1_555
C5 C4 1_555 1_555
C6 C1 1_555 1_555
H3 C6 1_555 1_555
C7 C1 1_555 1_555
C8 C3 1_555 1_555
C9 C5 1_555 1_555
O1 C7 1_555 1_555
O2 C7 1_555 1_555
O3 C8 1_555 1_555
O4 C8 1_555 1_555
O5 C9 1_555 1_555
O6 C9 1_555 1_555
C10 H4 1_555 1_555
H5 C10 1_555 1_555
H6 C10 1_555 1_555
C11 C10 1_555 1_555
O7 C11 1_555 1_555
O8 Ni2 1_555 1_555
N1 C12 1_555 1_555
N2 C12 1_555 1_555
C12 H7 1_555 1_555
C13 N1 1_555 1_555
H8 C13 1_555 1_555
C14 N2 1_555 1_555
H9 C14 1_555 1_555
C15 N1 1_555 1_555
H10 C15 1_555 1_555
H11 C15 1_555 1_555
H12 C15 1_555 1_555
C16 N2 1_555 1_555
H13 C16 1_555 1_555
H14 C16 1_555 1_555
C17 C16 1_555 1_555
H15 C17 1_555 1_555
H16 C17 1_555 1_555
C18 C17 1_555 1_555
H17 C18 1_555 1_555
H18 C18 1_555 1_555
H19 C18 1_555 1_555
Ni1D O7 1_555 1_555
Ni1B O3 1_555 1_555
Ni1E O6 1_555 1_555
Ni1F O3D 1_555 1_555
Ni1A O6D 1_555 1_555
Ni2A O5 1_555 1_555
Ni2A_2 O5D 1_555 1_555
C1D C2D 1_555 1_555
C2D H1D 1_555 1_555
C3D C2D 1_555 1_555
C4D C3D 1_555 1_555
H2D C4D 1_555 1_555
C5D C4D 1_555 1_555
C6D C1D 1_555 1_555
H3D C6D 1_555 1_555
C7D C1D 1_555 1_555
C8D C3D 1_555 1_555
C9D C5D 1_555 1_555
O1D Ni1D 1_555 1_555
O2D Ni2 1_555 1_555
O3D C8D 1_555 1_555
O3B Ni1 1_555 1_555
O3F Ni1D 1_555 1_555
O4D Ni1F 1_555 1_555
O4B Ni1 1_555 1_555
O4F Ni1D 1_555 1_555
O5D C9D 1_555 1_555
O5A Ni2 1_555 1_555
O5E Ni2 1_555 1_555
O6D C9D 1_555 1_555
O6E Ni1 1_555 1_555
O6A Ni1D 1_555 1_555
C10D H4D 1_555 1_555
H5D C10D 1_555 1_555
H6D C10D 1_555 1_555
C11D C10D 1_555 1_555
O7D Ni1 1_555 1_555
O8D Ni1 1_555 1_555
Ni2 O8D 1_555 1_555
C5 C6 1_555 1_555
O4 Ni1B 1_555 1_555
C11 O8 1_555 1_555
O8 Ni1D 1_555 1_555
C13 C14 1_555 1_555
C5D C6D 1_555 1_555
C7D O1D 1_555 1_555
C7D O2D 1_555 1_555
C8D O4D 1_555 1_555
C11D O7D 1_555 1_555
C11D O8D 1_555 1_555

#END
