
#######################################################################
#
#                 Cambridge Crystallographic Data Centre
#                                CCDC 
#
#######################################################################
#
# If this CIF has been generated from an entry in the Cambridge 
# Structural Database, then it will include bibliographic, chemical, 
# crystal, experimental, refinement or atomic coordinate data resulting 
# from the CCDC's data processing and validation procedures.
#
#######################################################################

data_XUJQUQ
_symmetry_cell_setting           triclinic
_symmetry_space_group_name_H-M   'P -1'
_symmetry_Int_Tables_number      2
_space_group_name_Hall           '-P 1'
loop_
_symmetry_equiv_pos_site_id
_symmetry_equiv_pos_as_xyz
1 x,y,z
2 -x,-y,-z
_cell_length_a                   9.4769(19)
_cell_length_b                   10.156(2)
_cell_length_c                   15.518(3)
_cell_angle_alpha                96.96(3)
_cell_angle_beta                 100.63(3)
_cell_angle_gamma                111.80(3)
_cell_volume                     1333.19
loop_
_atom_site_label
_atom_site_type_symbol
_atom_site_fract_x
_atom_site_fract_y
_atom_site_fract_z
Zn1 Zn 0.38998(5) 0.44476(5) 0.10877(3)
N1 N 0.5962(4) 0.5271(4) 0.2218(2)
N2 N 2.1833(4) 1.3250(3) 0.9999(2)
O1 O 0.4874(4) 0.3087(3) 0.0679(2)
O2 O 0.5362(4) 0.3710(3) -0.0590(2)
O3 O 1.2339(4) 0.2884(4) 0.1945(2)
O4 O 1.2561(3) 0.5075(3) 0.18622(19)
C1 C 0.7250(5) 0.6420(5) 0.2239(3)
H1 H 0.7235 0.6918 0.1766
C2 C 0.8606(5) 0.6920(5) 0.2917(3)
H2 H 0.9480 0.7740 0.2898
C3 C 0.8685(5) 0.6224(4) 0.3621(3)
C4 C 0.7352(5) 0.5018(6) 0.3591(3)
H3 H 0.7341 0.4494 0.4051
C5 C 0.6038(5) 0.4579(5) 0.2888(3)
H4 H 0.5154 0.3750 0.2883
C6 C 1.0110(5) 0.6758(5) 0.4378(3)
H5 H 0.9981 0.6393 0.4900
C7 C 1.1474(5) 0.7647(5) 0.4399(3)
H6 H 1.1623 0.7952 0.3863
C8 C 1.2884(5) 0.8270(4) 0.5187(3)
C9 C 1.4179(5) 0.7922(4) 0.5167(3)
C10 C 1.5480(5) 0.8495(5) 0.5902(3)
C11 C 1.5495(5) 0.9425(5) 0.6646(3)
C12 C 1.4202(5) 0.9803(5) 0.6669(3)
C13 C 1.2892(5) 0.9227(5) 0.5926(3)
C14 C 1.6936(6) 0.9943(6) 0.7436(3)
H7 H 1.7278 0.9253 0.7642
C15 C 1.7666(6) 1.1223(6) 0.7812(4)
H8 H 1.7290 1.1887 0.7597
C16 C 1.9113(5) 1.1839(6) 0.8590(3)
C17 C 1.9922(6) 1.1078(5) 0.8980(3)
H9 H 1.9562 1.0073 0.8774
C18 C 2.1280(5) 1.1818(5) 0.9681(3)
H10 H 2.1820 1.1292 0.9937
C19 C 2.1017(4) 1.3938(5) 0.9619(3)
H11 H 2.1377 1.4940 0.9838
C20 C 1.9693(5) 1.3291(5) 0.8932(3)
H12 H 1.9180 1.3849 0.8694
C21 C 1.4163(6) 0.6926(5) 0.4353(3)
H13 H 1.3266 0.6762 0.3870
H14 H 1.4092 0.6007 0.4503
H15 H 1.5121 0.7370 0.4163
C22 C 1.6901(6) 0.8146(7) 0.5887(3)
H16 H 1.7845 0.9035 0.6075
H17 H 1.6811 0.7680 0.5283
H18 H 1.6955 0.7500 0.6291
C23 C 1.4182(6) 1.0774(6) 0.7473(3)
H19 H 1.4871 1.0723 0.8003
H20 H 1.3122 1.0461 0.7549
H21 H 1.4541 1.1764 0.7386
C24 C 1.1542(6) 0.9678(6) 0.5923(3)
H22 H 1.0897 0.9154 0.6290
H23 H 1.0913 0.9458 0.5314
H24 H 1.1948 1.0711 0.6164
C25 C 0.5458(4) 0.3036(4) 0.0025(3)
C26 C 0.6248(5) 0.2003(5) -0.0039(3)
H25 H 0.5479 0.1078 -0.0420
H26 H 0.7086 0.2387 -0.0344
C27 C 0.6943(6) 0.1701(6) 0.0825(4)
H27 H 0.6180 0.1507 0.1192
H28 H 0.7141 0.0826 0.0693
C28 C 0.8424(6) 0.2907(5) 0.1345(3)
H29 H 0.8216 0.3771 0.1495
H30 H 0.9171 0.3125 0.0968
C29 C 0.9186(5) 0.2584(6) 0.2221(3)
H31 H 0.8495 0.2466 0.2630
H32 H 0.9318 0.1675 0.2083
C30 C 1.0769(5) 0.3803(5) 0.2672(3)
H33 H 1.0644 0.4721 0.2762
H34 H 1.1155 0.3640 0.3263
C31 C 1.1971(4) 0.3920(5) 0.2131(3)
Zn1_2 Zn 1.38998(5) 0.44476(5) 0.10877(3)
Zn1_3 Zn 2.38998(5) 1.44476(5) 1.10877(3)
Zn1A Zn 0.61002(5) 0.55524(5) -0.10877(3)
N2_2 N 0.1833(4) 0.3250(3) -0.0001(2)
O2A O 0.4638(4) 0.6290(3) 0.0590(2)
O3_2 O 0.2339(4) 0.2884(4) 0.1945(2)
O4_2 O 0.2561(3) 0.5075(3) 0.18622(19)
loop_
_geom_bond_atom_site_label_1
_geom_bond_atom_site_label_2
_geom_bond_site_symmetry_1
_geom_bond_site_symmetry_2
Zn1 N1 1_555 1_555
N1 C1 1_555 1_555
N2 C18 1_555 1_555
O1 Zn1 1_555 1_555
O2 C25 1_555 1_555
O3 C31 1_555 1_555
O4 C31 1_555 1_555
C1 H1 1_555 1_555
C2 C1 1_555 1_555
H2 C2 1_555 1_555
C3 C2 1_555 1_555
C4 C3 1_555 1_555
H3 C4 1_555 1_555
C5 N1 1_555 1_555
H4 C5 1_555 1_555
C6 C3 1_555 1_555
H5 C6 1_555 1_555
C7 C6 1_555 1_555
H6 C7 1_555 1_555
C8 C7 1_555 1_555
C9 C8 1_555 1_555
C10 C9 1_555 1_555
C11 C10 1_555 1_555
C12 C11 1_555 1_555
C13 C8 1_555 1_555
C14 C11 1_555 1_555
H7 C14 1_555 1_555
C15 C14 1_555 1_555
H8 C15 1_555 1_555
C16 C15 1_555 1_555
C17 C16 1_555 1_555
H9 C17 1_555 1_555
C18 C17 1_555 1_555
H10 C18 1_555 1_555
C19 N2 1_555 1_555
H11 C19 1_555 1_555
C20 C16 1_555 1_555
H12 C20 1_555 1_555
C21 C9 1_555 1_555
H13 C21 1_555 1_555
H14 C21 1_555 1_555
H15 C21 1_555 1_555
C22 C10 1_555 1_555
H16 C22 1_555 1_555
H17 C22 1_555 1_555
H18 C22 1_555 1_555
C23 C12 1_555 1_555
H19 C23 1_555 1_555
H20 C23 1_555 1_555
H21 C23 1_555 1_555
C24 C13 1_555 1_555
H22 C24 1_555 1_555
H23 C24 1_555 1_555
H24 C24 1_555 1_555
C25 O1 1_555 1_555
C26 C25 1_555 1_555
H25 C26 1_555 1_555
H26 C26 1_555 1_555
C27 C26 1_555 1_555
H27 C27 1_555 1_555
H28 C27 1_555 1_555
C28 C27 1_555 1_555
H29 C28 1_555 1_555
H30 C28 1_555 1_555
C29 C28 1_555 1_555
H31 C29 1_555 1_555
H32 C29 1_555 1_555
C30 C29 1_555 1_555
H33 C30 1_555 1_555
H34 C30 1_555 1_555
C31 C30 1_555 1_555
Zn1_2 O3 1_555 1_555
Zn1_3 N2 1_555 1_555
Zn1A O2 1_555 1_555
N2_2 Zn1 1_555 1_555
O2A Zn1 1_555 1_555
O3_2 Zn1 1_555 1_555
O4_2 Zn1 1_555 1_555
O4 Zn1_2 1_555 1_555
C4 C5 1_555 1_555
C12 C13 1_555 1_555
C19 C20 1_555 1_555

#END
