
#######################################################################
#
#                 Cambridge Crystallographic Data Centre
#                                CCDC 
#
#######################################################################
#
# If this CIF has been generated from an entry in the Cambridge 
# Structural Database, then it will include bibliographic, chemical, 
# crystal, experimental, refinement or atomic coordinate data resulting 
# from the CCDC's data processing and validation procedures.
#
#######################################################################

data_XUJROL
_symmetry_cell_setting           orthorhombic
_symmetry_space_group_name_H-M   'P n m a'
_symmetry_Int_Tables_number      62
_space_group_name_Hall           '-P 2ac 2n'
loop_
_symmetry_equiv_pos_site_id
_symmetry_equiv_pos_as_xyz
1 x,y,z
2 1/2-x,-y,1/2+z
3 -x,1/2+y,-z
4 1/2+x,1/2-y,1/2-z
5 -x,-y,-z
6 1/2+x,y,1/2-z
7 x,1/2-y,z
8 1/2-x,1/2+y,1/2+z
_cell_length_a                   23.9695(14)
_cell_length_b                   6.7843(5)
_cell_length_c                   9.2303(3)
_cell_angle_alpha                90
_cell_angle_beta                 90
_cell_angle_gamma                90
_cell_volume                     1501
loop_
_atom_site_label
_atom_site_type_symbol
_atom_site_fract_x
_atom_site_fract_y
_atom_site_fract_z
Tb1 Tb 0.53693(2) 0.2500 0.09144(5)
O1 O 0.6230(4) 0.3426(19) 0.2133(10)
O2 O 0.5517(3) 0.2500 0.3476(8)
O3 O 0.6013(2) 0.4090(10) 0.9251(6)
O4 O 0.4824(2) 0.4108(11) -0.1248(6)
O5 O 0.4423(3) 0.2500 0.1709(8)
H1 H 0.4310 0.1289 0.1454
C1 C 0.6431(4) 0.2500 0.4624(11)
C2 C 0.6100(4) 0.2500 0.6067(10)
H2 H 0.5860 0.3680 0.6120
C3 C 0.6517(4) 0.2500 0.7329(10)
C4 C 0.6886(3) 0.4341(12) 0.7241(8)
H3 H 0.6650 0.5537 0.7286
H4 H 0.7145 0.4369 0.8075
C5 C 0.7218(3) 0.4338(13) 0.5832(8)
H5 H 0.7457 0.5543 0.5789
C6 C 0.6806(3) 0.4352(17) 0.4556(10)
H6 H 0.7014 0.4370 0.3630
H7 H 0.6571 0.5553 0.4601
C7 C 0.7587(4) 0.2500 0.5741(11)
H8 H 0.7859 0.2500 0.6547
H9 H 0.7796 0.2500 0.4816
C8 C 0.6036(5) 0.2500 0.3359(14)
C9 C 0.6167(4) 0.2500 0.8690(11)
C10 C 0.4718(4) 0.2500 -0.1896(12)
C11 C 0.4503(5) 0.2500 -0.3413(14)
H10 H 0.4103 0.2500 -0.3431
H11 H 0.4640 0.3653 -0.3898
O1F O 0.6230(4) 0.1574(19) 0.2133(10)
O3F O 0.6013(2) 0.0910(10) 0.9251(6)
H2F H 0.5860 0.1320 0.6120
C4F C 0.6886(3) 0.0659(12) 0.7241(8)
H3F H 0.6650 -0.0537 0.7286
H4F H 0.7145 0.0631 0.8075
C5F C 0.7218(3) 0.0662(13) 0.5832(8)
H5F H 0.7457 -0.0543 0.5789
C6F C 0.6806(3) 0.0648(17) 0.4556(10)
H6F H 0.7014 0.0630 0.3630
H7F H 0.6571 -0.0553 0.4601
O4F O 0.4824(2) 0.0892(11) -0.1248(6)
H11F H 0.4640 0.1347 -0.3898
H1F H 0.4310 0.3711 0.1454
Tb1_2 Tb 0.53693(2) 0.2500 1.09144(5)
Tb1B Tb 0.46307(2) -0.2500 -0.09144(5)
Tb1B_2 Tb 0.46307(2) 0.7500 -0.09144(5)
O3_2 O 0.6013(2) 0.4090(10) -0.0749(6)
O3F_2 O 0.6013(2) 0.0910(10) -0.0749(6)
O4B O 0.5176(2) -0.0892(11) 0.1248(6)
O4D O 0.5176(2) 0.5892(11) 0.1248(6)
loop_
_geom_bond_atom_site_label_1
_geom_bond_atom_site_label_2
_geom_bond_site_symmetry_1
_geom_bond_site_symmetry_2
Tb1 O1 1_555 1_555
O1 C8 1_555 1_555
O2 Tb1 1_555 1_555
O3 C9 1_555 1_555
O4 Tb1 1_555 1_555
O5 Tb1 1_555 1_555
H1 O5 1_555 1_555
C1 C2 1_555 1_555
C2 H2 1_555 1_555
C3 C2 1_555 1_555
C4 C3 1_555 1_555
H3 C4 1_555 1_555
H4 C4 1_555 1_555
C5 C4 1_555 1_555
H5 C5 1_555 1_555
C6 C1 1_555 1_555
H6 C6 1_555 1_555
H7 C6 1_555 1_555
C7 C5 1_555 1_555
H8 C7 1_555 1_555
H9 C7 1_555 1_555
C8 O2 1_555 1_555
C9 C3 1_555 1_555
C10 O4 1_555 1_555
C11 C10 1_555 1_555
H10 C11 1_555 1_555
H11 C11 1_555 1_555
O1F Tb1 1_555 1_555
O3F C9 1_555 1_555
H2F C2 1_555 1_555
C4F C3 1_555 1_555
H3F C4F 1_555 1_555
H4F C4F 1_555 1_555
C5F C7 1_555 1_555
H5F C5F 1_555 1_555
C6F C1 1_555 1_555
H6F C6F 1_555 1_555
H7F C6F 1_555 1_555
O4F Tb1 1_555 1_555
H11F C11 1_555 1_555
H1F O5 1_555 1_555
Tb1_2 O3 1_555 1_555
Tb1B O4F 1_555 1_555
Tb1B_2 O4 1_555 1_555
O3_2 Tb1 1_555 1_555
O3F_2 Tb1 1_555 1_555
O4B Tb1 1_555 1_555
O4D Tb1 1_555 1_555
O1 O1F 1_555 1_555
C1 C8 1_555 1_555
C5 C6 1_555 1_555
C8 O1F 1_555 1_555
C10 O4F 1_555 1_555
O3F Tb1_2 1_555 1_555
C4F C5F 1_555 1_555
C5F C6F 1_555 1_555
Tb1B O4B 1_555 1_555
Tb1B_2 O4D 1_555 1_555

#END
