
#######################################################################
#
#                 Cambridge Crystallographic Data Centre
#                                CCDC 
#
#######################################################################
#
# If this CIF has been generated from an entry in the Cambridge 
# Structural Database, then it will include bibliographic, chemical, 
# crystal, experimental, refinement or atomic coordinate data resulting 
# from the CCDC's data processing and validation procedures.
#
#######################################################################

data_XUJREB
_symmetry_cell_setting           monoclinic
_symmetry_space_group_name_H-M   'P 2/c'
_symmetry_Int_Tables_number      13
_space_group_name_Hall           '-P 2yc'
loop_
_symmetry_equiv_pos_site_id
_symmetry_equiv_pos_as_xyz
1 x,y,z
2 -x,y,1/2-z
3 -x,-y,-z
4 x,-y,1/2+z
_cell_length_a                   10.864(2)
_cell_length_b                   6.6354(13)
_cell_length_c                   18.608(4)
_cell_angle_alpha                90
_cell_angle_beta                 92.60(3)
_cell_angle_gamma                90
_cell_volume                     1340.01
loop_
_atom_site_label
_atom_site_type_symbol
_atom_site_fract_x
_atom_site_fract_y
_atom_site_fract_z
Zn1 Zn 1.0000 0.56115(5) 0.7500
N1 N 0.8571(2) 0.3654(3) 0.72188(11)
O1 O 0.9899(2) 0.7504(3) 0.83061(9)
O2 O 0.9350(2) 0.4709(3) 0.88480(11)
C1 C 0.8442(3) 0.1918(4) 0.75869(14)
H1 H 0.8868 0.1776 0.8035
C2 C 0.7717(3) 0.0350(4) 0.73357(14)
H2 H 0.7660 -0.0836 0.7609
C3 C 0.7063(2) 0.0521(4) 0.66727(15)
C4 C 0.7161(3) 0.2356(4) 0.63091(16)
H3 H 0.6709 0.2569 0.5873
C5 C 0.7916(3) 0.3843(4) 0.65887(15)
H4 H 0.7981 0.5052 0.6329
C6 C 0.6397(3) -0.1248(4) 0.63748(16)
H5 H 0.6295 -0.2351 0.6684
C7 C 0.5932(3) -0.1410(4) 0.57101(15)
H6 H 0.5926 -0.0228 0.5431
C8 C 0.5416(2) -0.3251(4) 0.53506(14)
C9 C 0.4539(2) -0.4476(4) 0.56762(15)
C10 C 0.5863(2) -0.3748(4) 0.46752(15)
C11 C 0.3984(3) -0.3895(5) 0.63782(18)
H7 H 0.4352 -0.4704 0.6765
H8 H 0.3102 -0.4129 0.6344
H9 H 0.4143 -0.2480 0.6475
C12 C 0.6785(3) -0.2384(5) 0.43238(19)
H10 H 0.7585 -0.3035 0.4335
H11 H 0.6847 -0.1118 0.4584
H12 H 0.6512 -0.2128 0.3829
C13 C 0.9972(3) 0.9488(4) 0.96529(14)
H13 H 1.0205 1.0216 0.9248
C14 C 0.9615(3) 0.7610(4) 0.95590(14)
H14 H 0.9353 0.6898 0.9961
C15 C 0.9601(3) 0.6552(4) 0.88625(13)
N1B N 0.1429(2) -1.3654(3) 0.27812(11)
C1B C 0.1558(3) -1.1918(4) 0.24131(14)
H1B H 0.1132 -1.1776 0.1965
C2B C 0.2283(3) -1.0350(4) 0.26643(14)
H2B H 0.2340 -0.9164 0.2391
C3B C 0.2937(2) -1.0521(4) 0.33273(15)
C4B C 0.2839(3) -1.2356(4) 0.36909(16)
H3B H 0.3291 -1.2569 0.4127
C5B C 0.2084(3) -1.3843(4) 0.34113(15)
H4B H 0.2019 -1.5052 0.3671
C6B C 0.3603(3) -0.8752(4) 0.36252(16)
H5B H 0.3705 -0.7649 0.3316
C7B C 0.4068(3) -0.8590(4) 0.42899(15)
H6B H 0.4074 -0.9772 0.4569
C8B C 0.4584(2) -0.6749(4) 0.46494(14)
C9B C 0.5461(2) -0.5524(4) 0.43238(15)
C10B C 0.4137(2) -0.6252(4) 0.53248(15)
C11B C 0.6016(3) -0.6105(5) 0.36218(18)
H7B H 0.5648 -0.5296 0.3235
H8B H 0.6898 -0.5871 0.3656
H9B H 0.5857 -0.7520 0.3525
C12B C 0.3215(3) -0.7616(5) 0.56762(19)
H10B H 0.2415 -0.6965 0.5665
H11B H 0.3153 -0.8882 0.5416
H12B H 0.3488 -0.7872 0.6171
O1B O 1.0101(2) 1.2496(3) 1.16939(9)
O2B O 1.0650(2) 1.5291(3) 1.11520(11)
C13B C 1.0028(3) 1.0512(4) 1.03471(14)
H13B H 0.9795 0.9784 1.0752
C14B C 1.0385(3) 1.2390(4) 1.04410(14)
H14B H 1.0647 1.3102 1.0039
C15B C 1.0399(3) 1.3448(4) 1.11375(13)
Zn1B Zn 0.0000 -1.56115(5) 0.2500
Zn1B_2 Zn 1.0000 1.43885(5) 1.2500
N1A N 1.1429(2) 0.3654(3) 0.77812(11)
O1A O 1.0101(2) 0.7504(3) 0.66939(9)
loop_
_geom_bond_atom_site_label_1
_geom_bond_atom_site_label_2
_geom_bond_site_symmetry_1
_geom_bond_site_symmetry_2
Zn1 N1 1_555 1_555
N1 C1 1_555 1_555
O1 Zn1 1_555 1_555
O2 C15 1_555 1_555
C1 H1 1_555 1_555
C2 C1 1_555 1_555
H2 C2 1_555 1_555
C3 C2 1_555 1_555
C4 C3 1_555 1_555
H3 C4 1_555 1_555
C5 N1 1_555 1_555
H4 C5 1_555 1_555
C6 C3 1_555 1_555
H5 C6 1_555 1_555
C7 C6 1_555 1_555
H6 C7 1_555 1_555
C8 C7 1_555 1_555
C9 C8 1_555 1_555
C10 C8 1_555 1_555
C11 C9 1_555 1_555
H7 C11 1_555 1_555
H8 C11 1_555 1_555
H9 C11 1_555 1_555
C12 C10 1_555 1_555
H10 C12 1_555 1_555
H11 C12 1_555 1_555
H12 C12 1_555 1_555
C13 H13 1_555 1_555
C14 C13 1_555 1_555
H14 C14 1_555 1_555
C15 O1 1_555 1_555
N1B C1B 1_555 1_555
C1B H1B 1_555 1_555
C2B C1B 1_555 1_555
H2B C2B 1_555 1_555
C3B C2B 1_555 1_555
C4B C3B 1_555 1_555
H3B C4B 1_555 1_555
C5B N1B 1_555 1_555
H4B C5B 1_555 1_555
C6B C3B 1_555 1_555
H5B C6B 1_555 1_555
C7B C6B 1_555 1_555
H6B C7B 1_555 1_555
C8B C7B 1_555 1_555
C9B C10 1_555 1_555
C10B C9 1_555 1_555
C11B C9B 1_555 1_555
H7B C11B 1_555 1_555
H8B C11B 1_555 1_555
H9B C11B 1_555 1_555
C12B C10B 1_555 1_555
H10B C12B 1_555 1_555
H11B C12B 1_555 1_555
H12B C12B 1_555 1_555
O1B C15B 1_555 1_555
O2B C15B 1_555 1_555
C13B C13 1_555 1_555
H13B C13B 1_555 1_555
C14B C13B 1_555 1_555
H14B C14B 1_555 1_555
C15B C14B 1_555 1_555
Zn1B N1B 1_555 1_555
Zn1B_2 O1B 1_555 1_555
N1A Zn1 1_555 1_555
O1A Zn1 1_555 1_555
C4 C5 1_555 1_555
C14 C15 1_555 1_555
C4B C5B 1_555 1_555
C8B C9B 1_555 1_555
C8B C10B 1_555 1_555

#END
