
#######################################################################
#
#                 Cambridge Crystallographic Data Centre
#                                CCDC 
#
#######################################################################
#
# If this CIF has been generated from an entry in the Cambridge 
# Structural Database, then it will include bibliographic, chemical, 
# crystal, experimental, refinement or atomic coordinate data resulting 
# from the CCDC's data processing and validation procedures.
#
#######################################################################

data_XUJRIE
_symmetry_cell_setting           monoclinic
_symmetry_space_group_name_H-M   'P 21'
_symmetry_Int_Tables_number      4
_space_group_name_Hall           'P 2yb'
loop_
_symmetry_equiv_pos_site_id
_symmetry_equiv_pos_as_xyz
1 x,y,z
2 -x,1/2+y,-z
_cell_length_a                   13.7004(3)
_cell_length_b                   7.6677(2)
_cell_length_c                   25.5552(6)
_cell_angle_alpha                90
_cell_angle_beta                 99.4209(9)
_cell_angle_gamma                90
_cell_volume                     2648.38
loop_
_atom_site_label
_atom_site_type_symbol
_atom_site_fract_x
_atom_site_fract_y
_atom_site_fract_z
Cd1 Cd 0.82438(4) 0.40842(9) 0.40278(2)
Br1 Br 0.62401(8) 0.76161(17) 0.64839(4)
Br2 Br 1.27099(7) 0.76899(18) 0.28689(4)
N1 N 0.8252(5) 0.2913(10) 0.4848(2)
N2 N 0.9788(5) 0.2983(10) 0.4045(2)
O1 O 0.6521(4) 0.9082(10) 0.4487(2)
O2 O 0.7505(4) 0.6287(9) 0.4378(2)
O3 O 0.8886(4) 0.6397(9) 0.3668(2)
O4 O 0.9029(4) 0.9091(9) 0.3080(2)
O5 O 0.7041(5) 0.3870(10) 0.3310(2)
O6 O 0.7435(4) 0.1279(9) 0.3622(2)
C1 C 0.5874(8) 1.0526(15) 0.4522(4)
H1 H 0.5813 1.1217 0.4195
H2 H 0.6145 1.1256 0.4826
H3 H 0.5220 1.0093 0.4568
C2 C 0.6689(6) 0.8002(13) 0.4922(3)
C3 C 0.6395(6) 0.8350(14) 0.5406(3)
H4 H 0.6050 0.9392 0.5461
C4 C 0.6621(6) 0.7121(15) 0.5810(3)
C5 C 0.7085(6) 0.5582(14) 0.5743(3)
H5 H 0.7209 0.4764 0.6025
C6 C 0.7380(6) 0.5217(13) 0.5251(3)
C7 C 0.7205(6) 0.6427(13) 0.4837(3)
C8 C 0.7874(6) 0.3581(13) 0.5232(3)
H6 H 0.7932 0.2894 0.5544
C9 C 0.8721(6) 0.1170(13) 0.4923(3)
H7 H 0.8350 0.0352 0.4664
H8 H 0.8667 0.0744 0.5283
C10 C 0.9777(7) 0.1142(12) 0.4859(3)
H9 H 1.0082 0.0059 0.5022
H10 H 1.0117 0.2138 0.5057
C11 C 0.9967(7) 0.1235(12) 0.4276(3)
H11 H 1.0661 0.0895 0.4265
H12 H 0.9531 0.0388 0.4058
C12 C 1.0519(6) 0.3709(12) 0.3868(3)
H13 H 1.1120 0.3068 0.3917
C13 C 1.0537(6) 0.5398(12) 0.3602(3)
C14 C 1.1431(6) 0.5787(13) 0.3431(3)
H14 H 1.1981 0.5027 0.3518
C15 C 1.1515(6) 0.7254(14) 0.3139(3)
C16 C 1.0728(6) 0.8419(14) 0.3007(3)
H15 H 1.0794 0.9425 0.2799
C17 C 0.9864(6) 0.8072(14) 0.3184(3)
C18 C 0.9732(6) 0.6552(12) 0.3506(3)
C19 C 0.9065(7) 1.0567(14) 0.2728(3)
H16 H 0.8428 1.1180 0.2679
H17 H 0.9198 1.0153 0.2384
H18 H 0.9592 1.1366 0.2883
Na1 Na 0.7571(2) 0.8291(5) 0.36925(12)
O13 O 0.6236(4) 0.7083(10) 0.3125(2)
H37 H 0.6419 0.6072 0.3059
C39 C 0.6162(6) 0.1526(14) 0.2862(3)
H39 H 0.6232 0.2077 0.2524
H40 H 0.5504 0.1778 0.2946
H41 H 0.6245 0.0262 0.2835
C40 C 0.6937(6) 0.2231(13) 0.3294(3)
C43 C 0.5274(7) 0.701(2) 0.3269(5)
H45 H 0.4814 0.6454 0.2983
H46 H 0.5046 0.8194 0.3327
H47 H 0.5301 0.6328 0.3596
O6_2 O 0.7435(4) 1.1279(9) 0.3622(2)
Na1_2 Na 0.7571(2) -0.1709(5) 0.36925(12)
Cd2 Cd 0.86003(4) 0.83425(8) 0.08785(2)
Br3 Br 1.37433(7) 1.19243(19) 0.21331(4)
Br4 Br 0.53086(8) 1.1941(2) -0.16499(4)
N3 N 1.0154(5) 0.7183(10) 0.0915(2)
N4 N 0.8215(5) 0.7238(10) 0.0046(3)
O7 O 0.9927(4) 1.3368(9) 0.1818(2)
O8 O 0.9450(4) 1.0595(9) 0.1279(2)
O9 O 0.7734(4) 1.0623(9) 0.0500(2)
O10 O 0.6677(4) 1.3432(9) 0.0359(2)
O11 O 0.7770(5) 0.8147(9) 0.1577(2)
O12 O 0.8053(5) 0.5573(9) 0.1290(2)
C20 C 1.0147(7) 1.4876(14) 0.2145(4)
H19 H 0.9538 1.5536 0.2155
H20 H 1.0622 1.5613 0.2000
H21 H 1.0433 1.4512 0.2506
C21 C 1.0694(6) 1.2310(13) 0.1763(3)
C22 C 1.1675(6) 1.2642(14) 0.1960(3)
H22 H 1.1861 1.3683 0.2152
C23 C 1.2382(6) 1.1446(15) 0.1874(3)
C24 C 1.2137(6) 0.9922(15) 0.1614(3)
H23 H 1.2641 0.9110 0.1571
C25 C 1.1141(6) 0.9534(12) 0.1408(3)
C26 C 1.0385(6) 1.0748(13) 0.1472(3)
C27 C 1.0975(7) 0.7859(12) 0.1141(3)
H24 H 1.1550 0.7173 0.1133
C28 C 1.0209(7) 0.5487(13) 0.0667(4)
H25 H 0.9880 0.4615 0.0864
H26 H 1.0914 0.5147 0.0697
C29 C 0.9730(7) 0.5430(14) 0.0078(4)
H27 H 0.9986 0.6424 -0.0107
H28 H 0.9944 0.4346 -0.0081
C30 C 0.8627(7) 0.5499(12) -0.0026(3)
H29 H 0.8392 0.5109 -0.0395
H30 H 0.8368 0.4669 0.0214
C31 C 0.7661(6) 0.7914(13) -0.0352(3)
H31 H 0.7576 0.7244 -0.0669
C32 C 0.7146(6) 0.9562(13) -0.0385(3)
C33 C 0.6578(6) 0.9966(14) -0.0882(3)
H32 H 0.6565 0.9162 -0.1166
C34 C 0.6059(6) 1.1439(14) -0.0966(3)
C35 C 0.6061(6) 1.2690(14) -0.0561(3)
H33 H 0.5694 1.3742 -0.0623
C36 C 0.6620(6) 1.2330(13) -0.0067(3)
C37 C 0.7187(6) 1.0775(13) 0.0032(3)
C38 C 0.6022(7) 1.4893(15) 0.0315(4)
H34 H 0.6135 1.5561 0.0647
H35 H 0.5336 1.4481 0.0248
H36 H 0.6145 1.5639 0.0022
Na2 Na 0.8164(2) 1.2592(5) 0.11964(12)
O14 O 0.7007(5) 1.1381(9) 0.1664(2)
H38 H 0.7177 1.0342 0.1732
C41 C 0.7372(7) 0.5777(16) 0.2097(4)
H42 H 0.7419 0.4502 0.2092
H43 H 0.6680 0.6122 0.2085
H44 H 0.7770 0.6226 0.2423
C42 C 0.7758(6) 0.6527(13) 0.1617(3)
C44 C 0.6019(8) 1.1427(18) 0.1414(4)
H48 H 0.5600 1.0882 0.1644
H49 H 0.5951 1.0791 0.1078
H50 H 0.5814 1.2642 0.1346
O12_2 O 0.8053(5) 1.5573(9) 0.1290(2)
Na2_2 Na 0.8164(2) 0.2592(5) 0.11964(12)
loop_
_geom_bond_atom_site_label_1
_geom_bond_atom_site_label_2
_geom_bond_site_symmetry_1
_geom_bond_site_symmetry_2
Cd1 N1 1_555 1_555
Br1 C4 1_555 1_555
Br2 C15 1_555 1_555
N1 C8 1_555 1_555
N2 Cd1 1_555 1_555
O1 C1 1_555 1_555
O2 Cd1 1_555 1_555
O3 Cd1 1_555 1_555
O4 C17 1_555 1_555
O5 Cd1 1_555 1_555
O6 Cd1 1_555 1_555
C1 H1 1_555 1_555
H2 C1 1_555 1_555
H3 C1 1_555 1_555
C2 O1 1_555 1_555
C3 C2 1_555 1_555
H4 C3 1_555 1_555
C4 C3 1_555 1_555
C5 C4 1_555 1_555
H5 C5 1_555 1_555
C6 C5 1_555 1_555
C7 O2 1_555 1_555
C8 C6 1_555 1_555
H6 C8 1_555 1_555
C9 N1 1_555 1_555
H7 C9 1_555 1_555
H8 C9 1_555 1_555
C10 C9 1_555 1_555
H9 C10 1_555 1_555
H10 C10 1_555 1_555
C11 N2 1_555 1_555
H11 C11 1_555 1_555
H12 C11 1_555 1_555
C12 N2 1_555 1_555
H13 C12 1_555 1_555
C13 C12 1_555 1_555
C14 C13 1_555 1_555
H14 C14 1_555 1_555
C15 C14 1_555 1_555
C16 C15 1_555 1_555
H15 C16 1_555 1_555
C17 C16 1_555 1_555
C18 O3 1_555 1_555
C19 O4 1_555 1_555
H16 C19 1_555 1_555
H17 C19 1_555 1_555
H18 C19 1_555 1_555
Cd2 N3 1_555 1_555
Br3 C23 1_555 1_555
Br4 C34 1_555 1_555
N3 C27 1_555 1_555
N4 Cd2 1_555 1_555
O7 C20 1_555 1_555
O8 Cd2 1_555 1_555
O9 Cd2 1_555 1_555
O10 C36 1_555 1_555
O11 Cd2 1_555 1_555
O12 Cd2 1_555 1_555
C20 H19 1_555 1_555
H20 C20 1_555 1_555
H21 C20 1_555 1_555
C21 O7 1_555 1_555
C22 C21 1_555 1_555
H22 C22 1_555 1_555
C23 C22 1_555 1_555
C24 C23 1_555 1_555
H23 C24 1_555 1_555
C25 C24 1_555 1_555
C26 O8 1_555 1_555
C27 C25 1_555 1_555
H24 C27 1_555 1_555
C28 N3 1_555 1_555
H25 C28 1_555 1_555
H26 C28 1_555 1_555
C29 C28 1_555 1_555
H27 C29 1_555 1_555
H28 C29 1_555 1_555
C30 N4 1_555 1_555
H29 C30 1_555 1_555
H30 C30 1_555 1_555
C31 N4 1_555 1_555
H31 C31 1_555 1_555
C32 C31 1_555 1_555
C33 C32 1_555 1_555
H32 C33 1_555 1_555
C34 C33 1_555 1_555
C35 C34 1_555 1_555
H33 C35 1_555 1_555
C36 C35 1_555 1_555
C37 O9 1_555 1_555
C38 O10 1_555 1_555
H34 C38 1_555 1_555
H35 C38 1_555 1_555
H36 C38 1_555 1_555
Na1 O1 1_555 1_555
Na2 O7 1_555 1_555
O13 Na1 1_555 1_555
H37 O13 1_555 1_555
O14 Na2 1_555 1_555
H38 O14 1_555 1_555
C39 H39 1_555 1_555
H40 C39 1_555 1_555
H41 C39 1_555 1_555
C40 O5 1_555 1_555
C41 H42 1_555 1_555
H43 C41 1_555 1_555
H44 C41 1_555 1_555
C42 O11 1_555 1_555
C43 O13 1_555 1_555
H45 C43 1_555 1_555
H46 C43 1_555 1_555
H47 C43 1_555 1_555
C44 O14 1_555 1_555
H48 C44 1_555 1_555
H49 C44 1_555 1_555
H50 C44 1_555 1_555
O6_2 Na1 1_555 1_555
O12_2 Na2 1_555 1_555
Na1_2 O6 1_555 1_555
Na2_2 O12 1_555 1_555
O2 Na1 1_555 1_555
O3 Na1 1_555 1_555
O4 Na1 1_555 1_555
O6 C40 1_555 1_555
C2 C7 1_555 1_555
C6 C7 1_555 1_555
C10 C11 1_555 1_555
C13 C18 1_555 1_555
C17 C18 1_555 1_555
O8 Na2 1_555 1_555
O9 Na2 1_555 1_555
O10 Na2 1_555 1_555
O12 C42 1_555 1_555
C21 C26 1_555 1_555
C25 C26 1_555 1_555
C29 C30 1_555 1_555
C32 C37 1_555 1_555
C36 C37 1_555 1_555
C39 C40 1_555 1_555
C41 C42 1_555 1_555

#END
