
#######################################################################
#
#                 Cambridge Crystallographic Data Centre
#                                CCDC 
#
#######################################################################
#
# If this CIF has been generated from an entry in the Cambridge 
# Structural Database, then it will include bibliographic, chemical, 
# crystal, experimental, refinement or atomic coordinate data resulting 
# from the CCDC's data processing and validation procedures.
#
#######################################################################

data_XUJSAY
_symmetry_cell_setting           orthorhombic
_symmetry_space_group_name_H-M   'P b a m'
_symmetry_Int_Tables_number      55
_space_group_name_Hall           '-P 2 2ab'
loop_
_symmetry_equiv_pos_site_id
_symmetry_equiv_pos_as_xyz
1 x,y,z
2 -x,-y,z
3 1/2-x,1/2+y,-z
4 1/2+x,1/2-y,-z
5 -x,-y,-z
6 x,y,-z
7 1/2+x,1/2-y,z
8 1/2-x,1/2+y,z
_cell_length_a                   15.2830(2)
_cell_length_b                   24.9021(6)
_cell_length_c                   10.6168(3)
_cell_angle_alpha                90
_cell_angle_beta                 90
_cell_angle_gamma                90
_cell_volume                     4040.53
loop_
_atom_site_label
_atom_site_type_symbol
_atom_site_fract_x
_atom_site_fract_y
_atom_site_fract_z
Tb1 Tb 0.663578(11) 0.639710(7) 0.5000
O1 O 0.64453(13) 0.72684(8) 0.60347(19)
O2 O 0.30426(13) 0.84160(8) 0.39620(19)
O3 O 0.63612(13) 0.61959(8) 0.28668(18)
O4 O 0.41379(15) 0.62681(9) 0.2906(2)
O5 O 0.27598(15) 0.50488(9) 0.2888(2)
O6 O 0.5068(2) 0.66111(14) 0.5000
H1 H 0.4728 0.6507 0.5651
O7 O 0.7537(2) 0.55665(13) 0.5000
H2 H 0.7442 0.5348 0.5738
O8 O 0.5745(2) 0.55894(14) 0.5000
H3 H 0.5213 0.5622 0.5000
H4 H 0.5864 0.5244 0.5000
N1 N 0.72873(15) 0.62403(10) 0.1151(2)
N2 N 0.60933(15) 0.67462(9) 0.1155(2)
N3 N 0.45101(15) 0.67747(10) 0.1152(2)
N4 N 0.32584(16) 0.63241(10) 0.1145(3)
N5 N 0.23320(16) 0.55360(9) 0.1151(2)
N6 N 0.20930(17) 0.46587(9) 0.1156(2)
C1 C 0.5895(2) 0.80626(15) 0.5000
C2 C 0.4886(2) 0.79854(15) 0.5000
H5 H 0.4707 0.7780 0.5757
C3 C 0.4439(3) 0.85435(15) 0.5000
C4 C 0.47240(18) 0.88547(12) 0.6185(3)
H6 H 0.4430 0.9209 0.6204
H7 H 0.4549 0.8653 0.6948
C5 C 0.57203(19) 0.89338(12) 0.6180(3)
H8 H 0.5900 0.9136 0.6951
C6 C 0.61630(19) 0.83784(11) 0.6175(3)
H9 H 0.6807 0.8423 0.6188
H10 H 0.5990 0.8177 0.6939
C7 C 0.6003(3) 0.92451(18) 0.5000
H11 H 0.5730 0.9606 0.5000
H12 H 0.6647 0.9292 0.5000
C8 C 0.6298(2) 0.75041(16) 0.5000
C9 C 0.3453(2) 0.84526(17) 0.5000
C10 C 0.65653(17) 0.63788(10) 0.1816(3)
C11 C 0.7368(2) 0.65512(16) 0.0000
H13 H 0.7912 0.6775 0.0000
C12 C 0.6535(2) 0.69037(16) 0.0000
H14 H 0.6683 0.7295 0.0000
C13 C 0.53120(17) 0.70062(11) 0.1634(3)
H15 H 0.5310 0.6981 0.2564
H16 H 0.5330 0.7392 0.1406
C14 C 0.39838(19) 0.64392(11) 0.1844(3)
C15 C 0.4090(2) 0.69517(15) 0.0000
H17 H 0.3991 0.7349 0.0000
C16 C 0.3217(3) 0.66380(16) 0.0000
H18 H 0.2702 0.6886 0.0000
C17 C 0.25009(17) 0.60630(11) 0.1674(3)
H19 H 0.1982 0.6293 0.1530
H20 H 0.2583 0.6029 0.2595
C18 C 0.24360(18) 0.50755(11) 0.1837(3)
C19 C 0.1842(3) 0.54523(16) 0.0000
H21 H 0.1282 0.5660 0.0000
C20 C 0.1671(2) 0.48362(16) 0.0000
H22 H 0.1031 0.4752 0.0000
C21 C 0.20348(19) 0.41128(11) 0.1625(3)
H23 H 0.2068 0.4120 0.2556
H24 H 0.1457 0.3963 0.1391
O1E O 0.64453(13) 0.72684(8) 0.39653(19)
O2E O 0.30426(13) 0.84160(8) 0.60380(19)
H5E H 0.4707 0.7780 0.4243
C4E C 0.47240(18) 0.88547(12) 0.3815(3)
H6E H 0.4430 0.9209 0.3796
H7E H 0.4549 0.8653 0.3052
C5E C 0.57203(19) 0.89338(12) 0.3820(3)
H8E H 0.5900 0.9136 0.3049
C6E C 0.61630(19) 0.83784(11) 0.3825(3)
H9E H 0.6807 0.8423 0.3812
H10E H 0.5990 0.8177 0.3061
O3A O 0.36388(13) 0.38041(8) 0.28668(18)
O4A O 0.58621(15) 0.37319(9) 0.2906(2)
O5A O 0.72402(15) 0.49512(9) 0.2888(2)
N1A N 0.27127(15) 0.37597(10) 0.1151(2)
N2A N 0.39067(15) 0.32538(9) 0.1155(2)
N3A N 0.54899(15) 0.32253(10) 0.1152(2)
N4A N 0.67416(16) 0.36759(10) 0.1145(3)
N5A N 0.76680(16) 0.44640(9) 0.1151(2)
N6A N 0.79070(17) 0.53413(9) 0.1156(2)
C10A C 0.34347(17) 0.36212(10) 0.1816(3)
C11A C 0.2632(2) 0.34488(16) 0.0000
H13A H 0.2088 0.3225 0.0000
C12A C 0.3465(2) 0.30963(16) 0.0000
H14A H 0.3317 0.2705 0.0000
C13A C 0.46880(17) 0.29938(11) 0.1634(3)
H15A H 0.4690 0.3019 0.2564
H16A H 0.4670 0.2608 0.1406
C14A C 0.60162(19) 0.35608(11) 0.1844(3)
C15A C 0.5910(2) 0.30483(15) 0.0000
H17A H 0.6009 0.2651 0.0000
C16A C 0.6783(3) 0.33620(16) 0.0000
H18A H 0.7298 0.3114 0.0000
C17A C 0.74991(17) 0.39370(11) 0.1674(3)
H19A H 0.8018 0.3707 0.1530
H20A H 0.7417 0.3971 0.2595
C18A C 0.75640(18) 0.49245(11) 0.1837(3)
C19A C 0.8158(3) 0.45477(16) 0.0000
H21A H 0.8718 0.4340 0.0000
C20A C 0.8329(2) 0.51638(16) 0.0000
H22A H 0.8969 0.5248 0.0000
C21A C 0.79652(19) 0.58872(11) 0.1625(3)
H23A H 0.7932 0.5880 0.2556
H24A H 0.8543 0.6037 0.1391
O3D O 0.36388(13) 0.38041(8) -0.28668(18)
O4D O 0.58621(15) 0.37319(9) -0.2906(2)
O5D O 0.72402(15) 0.49512(9) -0.2888(2)
N1D N 0.27127(15) 0.37597(10) -0.1151(2)
N2D N 0.39067(15) 0.32538(9) -0.1155(2)
N3D N 0.54899(15) 0.32253(10) -0.1152(2)
N4D N 0.67416(16) 0.36759(10) -0.1145(3)
N5D N 0.76680(16) 0.44640(9) -0.1151(2)
N6D N 0.79070(17) 0.53413(9) -0.1156(2)
C10D C 0.34347(17) 0.36212(10) -0.1816(3)
C13D C 0.46880(17) 0.29938(11) -0.1634(3)
H15D H 0.4690 0.3019 -0.2564
H16D H 0.4670 0.2608 -0.1406
C14D C 0.60162(19) 0.35608(11) -0.1844(3)
C17D C 0.74991(17) 0.39370(11) -0.1674(3)
H19D H 0.8018 0.3707 -0.1530
H20D H 0.7417 0.3971 -0.2595
C18D C 0.75640(18) 0.49245(11) -0.1837(3)
C21D C 0.79652(19) 0.58872(11) -0.1625(3)
H23D H 0.7932 0.5880 -0.2556
H24D H 0.8543 0.6037 -0.1391
O3E O 0.63612(13) 0.61959(8) -0.28668(18)
O4E O 0.41379(15) 0.62681(9) -0.2906(2)
O5E O 0.27598(15) 0.50488(9) -0.2888(2)
N1E N 0.72873(15) 0.62403(10) -0.1151(2)
N2E N 0.60933(15) 0.67462(9) -0.1155(2)
N3E N 0.45101(15) 0.67747(10) -0.1152(2)
N4E N 0.32584(16) 0.63241(10) -0.1145(3)
N5E N 0.23320(16) 0.55360(9) -0.1151(2)
N6E N 0.20930(17) 0.46587(9) -0.1156(2)
C10E C 0.65653(17) 0.63788(10) -0.1816(3)
C13E C 0.53120(17) 0.70062(11) -0.1634(3)
H15E H 0.5310 0.6981 -0.2564
H16E H 0.5330 0.7392 -0.1406
C14E C 0.39838(19) 0.64392(11) -0.1844(3)
C17E C 0.25009(17) 0.60630(11) -0.1674(3)
H19E H 0.1982 0.6293 -0.1530
H20E H 0.2583 0.6029 -0.2595
C18E C 0.24360(18) 0.50755(11) -0.1837(3)
C21E C 0.20348(19) 0.41128(11) -0.1625(3)
H23E H 0.2068 0.4120 -0.2556
H24E H 0.1457 0.3963 -0.1391
H1E H 0.4728 0.6507 0.4349
H2E H 0.7442 0.5348 0.4262
Tb1A Tb 0.336422(11) 0.360290(7) 0.5000
O1A O 0.35547(13) 0.27316(8) 0.60347(19)
O2A O 0.69574(13) 0.15840(8) 0.39620(19)
O6A O 0.4932(2) 0.33889(14) 0.5000
H1A H 0.5272 0.3493 0.5651
O7A O 0.2463(2) 0.44335(13) 0.5000
H2A H 0.2558 0.4652 0.5738
O8A O 0.4255(2) 0.44106(14) 0.5000
H3A H 0.4787 0.4378 0.5000
H4A H 0.4136 0.4756 0.5000
C1A C 0.4105(2) 0.19374(15) 0.5000
C2A C 0.5114(2) 0.20146(15) 0.5000
H5A H 0.5293 0.2220 0.5757
C3A C 0.5561(3) 0.14565(15) 0.5000
C4A C 0.52760(18) 0.11453(12) 0.6185(3)
H6A H 0.5570 0.0791 0.6204
H7A H 0.5451 0.1347 0.6948
C5A C 0.42797(19) 0.10662(12) 0.6180(3)
H8A H 0.4100 0.0864 0.6951
C6A C 0.38370(19) 0.16216(11) 0.6175(3)
H9A H 0.3193 0.1577 0.6188
H10A H 0.4010 0.1823 0.6939
C7A C 0.3997(3) 0.07549(18) 0.5000
H11A H 0.4270 0.0394 0.5000
H12A H 0.3353 0.0708 0.5000
C8A C 0.3702(2) 0.24959(16) 0.5000
C9A C 0.6547(2) 0.15474(17) 0.5000
O1D O 0.35547(13) 0.27316(8) 0.39653(19)
O2D O 0.69574(13) 0.15840(8) 0.60380(19)
H5D H 0.5293 0.2220 0.4243
C4D C 0.52760(18) 0.11453(12) 0.3815(3)
H6D H 0.5570 0.0791 0.3796
H7D H 0.5451 0.1347 0.3052
C5D C 0.42797(19) 0.10662(12) 0.3820(3)
H8D H 0.4100 0.0864 0.3049
C6D C 0.38370(19) 0.16216(11) 0.3825(3)
H9D H 0.3193 0.1577 0.3812
H10D H 0.4010 0.1823 0.3061
H1D H 0.5272 0.3493 0.4349
H2D H 0.2558 0.4652 0.4262
Tb1_2 Tb 0.663578(11) 0.639710(7) -0.5000
Tb1A_2 Tb 0.336422(11) 0.360290(7) -0.5000
Tb1B Tb 0.836422(11) 0.139710(7) 0.5000
Tb1C Tb 0.163578(11) 0.860290(7) 0.5000
O2B O 0.19574(13) 0.34160(8) 0.60380(19)
O2C O 0.80426(13) 0.65840(8) 0.60380(19)
O2F O 0.80426(13) 0.65840(8) 0.39620(19)
O2G O 0.19574(13) 0.34160(8) 0.39620(19)
O3D_2 O 0.36388(13) 0.38041(8) 0.71332(18)
O3E_2 O 0.63612(13) 0.61959(8) 0.71332(18)
O9 O 0.0844(2) 0.67466(16) 0.0000
O10 O -0.0022(3) 0.60571(18) 0.0000
O11 O -0.0497(4) 0.6791(2) 0.0000
N7 N 0.0112(3) 0.65333(18) 0.0000
O12 O 0.78167(18) 0.74675(10) 0.7887(2)
H25 H 0.7327 0.7426 0.7332
H26 H 0.8170 0.7232 0.7429
O13 O 0.3887(6) 0.5506(3) 0.5000
H27 H 0.3697 0.5687 0.4435
H27E H 0.3697 0.5687 0.5565
loop_
_geom_bond_atom_site_label_1
_geom_bond_atom_site_label_2
_geom_bond_site_symmetry_1
_geom_bond_site_symmetry_2
Tb1 O1 1_555 1_555
O1 C8 1_555 1_555
O2 C9 1_555 1_555
O3 Tb1 1_555 1_555
O4 C14 1_555 1_555
O5 C18 1_555 1_555
O6 Tb1 1_555 1_555
H1 O6 1_555 1_555
O7 Tb1 1_555 1_555
H2 O7 1_555 1_555
O8 Tb1 1_555 1_555
H3 O8 1_555 1_555
H4 O8 1_555 1_555
N1 C10 1_555 1_555
N2 C10 1_555 1_555
N3 C13 1_555 1_555
N4 C14 1_555 1_555
N5 C17 1_555 1_555
N6 C18 1_555 1_555
C1 C2 1_555 1_555
C2 H5 1_555 1_555
C3 C2 1_555 1_555
C4 C3 1_555 1_555
H6 C4 1_555 1_555
H7 C4 1_555 1_555
C5 C4 1_555 1_555
H8 C5 1_555 1_555
C6 C1 1_555 1_555
H9 C6 1_555 1_555
H10 C6 1_555 1_555
C7 C5 1_555 1_555
H11 C7 1_555 1_555
H12 C7 1_555 1_555
C8 C1 1_555 1_555
C9 C3 1_555 1_555
C10 O3 1_555 1_555
C11 N1 1_555 1_555
H13 C11 1_555 1_555
C12 N2 1_555 1_555
H14 C12 1_555 1_555
C13 N2 1_555 1_555
H15 C13 1_555 1_555
H16 C13 1_555 1_555
C14 N3 1_555 1_555
C15 N3 1_555 1_555
H17 C15 1_555 1_555
C16 N4 1_555 1_555
H18 C16 1_555 1_555
C17 N4 1_555 1_555
H19 C17 1_555 1_555
H20 C17 1_555 1_555
C18 N5 1_555 1_555
C19 N5 1_555 1_555
H21 C19 1_555 1_555
C20 N6 1_555 1_555
H22 C20 1_555 1_555
C21 N6 1_555 1_555
H23 C21 1_555 1_555
H24 C21 1_555 1_555
O9 N7 1_555 1_555
O10 N7 1_555 1_555
O11 N7 1_555 1_555
O12 H25 1_555 1_555
H26 O12 1_555 1_555
O13 H27 1_555 1_555
O1E Tb1 1_555 1_555
O2E C9 1_555 1_555
H5E C2 1_555 1_555
C4E C3 1_555 1_555
H6E C4E 1_555 1_555
H7E C4E 1_555 1_555
C5E C7 1_555 1_555
H8E C5E 1_555 1_555
C6E C1 1_555 1_555
H9E C6E 1_555 1_555
H10E C6E 1_555 1_555
O3A C10A 1_555 1_555
O4A C14A 1_555 1_555
O5A C18A 1_555 1_555
N1A C21 1_555 1_555
N2A C10A 1_555 1_555
N3A C13A 1_555 1_555
N4A C14A 1_555 1_555
N5A C17A 1_555 1_555
N6A C18A 1_555 1_555
C10A N1A 1_555 1_555
C11A N1A 1_555 1_555
H13A C11A 1_555 1_555
C12A N2A 1_555 1_555
H14A C12A 1_555 1_555
C13A N2A 1_555 1_555
H15A C13A 1_555 1_555
H16A C13A 1_555 1_555
C14A N3A 1_555 1_555
C15A N3A 1_555 1_555
H17A C15A 1_555 1_555
C16A N4A 1_555 1_555
H18A C16A 1_555 1_555
C17A N4A 1_555 1_555
H19A C17A 1_555 1_555
H20A C17A 1_555 1_555
C18A N5A 1_555 1_555
C19A N5A 1_555 1_555
H21A C19A 1_555 1_555
C20A N6A 1_555 1_555
H22A C20A 1_555 1_555
C21A N1 1_555 1_555
H23A C21A 1_555 1_555
H24A C21A 1_555 1_555
O3D C10D 1_555 1_555
O4D C14D 1_555 1_555
O5D C18D 1_555 1_555
N1D C11A 1_555 1_555
N2D C12A 1_555 1_555
N3D C15A 1_555 1_555
N4D C16A 1_555 1_555
N5D C19A 1_555 1_555
N6D C20A 1_555 1_555
C10D N1D 1_555 1_555
C13D N2D 1_555 1_555
H15D C13D 1_555 1_555
H16D C13D 1_555 1_555
C14D N3D 1_555 1_555
C17D N4D 1_555 1_555
H19D C17D 1_555 1_555
H20D C17D 1_555 1_555
C18D N5D 1_555 1_555
C21D N6D 1_555 1_555
H23D C21D 1_555 1_555
H24D C21D 1_555 1_555
O3E C10E 1_555 1_555
O4E C14E 1_555 1_555
O5E C18E 1_555 1_555
N1E C11 1_555 1_555
N2E C12 1_555 1_555
N3E C15 1_555 1_555
N4E C16 1_555 1_555
N5E C19 1_555 1_555
N6E C20 1_555 1_555
C10E N1E 1_555 1_555
C13E N2E 1_555 1_555
H15E C13E 1_555 1_555
H16E C13E 1_555 1_555
C14E N3E 1_555 1_555
C17E N4E 1_555 1_555
H19E C17E 1_555 1_555
H20E C17E 1_555 1_555
C18E N5E 1_555 1_555
C21E N1D 1_555 1_555
H23E C21E 1_555 1_555
H24E C21E 1_555 1_555
H1E O6 1_555 1_555
H2E O7 1_555 1_555
Tb1A O3A 1_555 1_555
O1A Tb1A 1_555 1_555
O2A C9A 1_555 1_555
O6A Tb1A 1_555 1_555
H1A O6A 1_555 1_555
O7A Tb1A 1_555 1_555
H2A O7A 1_555 1_555
O8A Tb1A 1_555 1_555
H3A O8A 1_555 1_555
H4A O8A 1_555 1_555
C1A C2A 1_555 1_555
C2A H5A 1_555 1_555
C3A C2A 1_555 1_555
C4A C3A 1_555 1_555
H6A C4A 1_555 1_555
H7A C4A 1_555 1_555
C5A C4A 1_555 1_555
H8A C5A 1_555 1_555
C6A C1A 1_555 1_555
H9A C6A 1_555 1_555
H10A C6A 1_555 1_555
C7A C5A 1_555 1_555
H11A C7A 1_555 1_555
H12A C7A 1_555 1_555
C8A O1A 1_555 1_555
C9A C3A 1_555 1_555
O1D Tb1A 1_555 1_555
O2D C9A 1_555 1_555
H5D C2A 1_555 1_555
C4D C3A 1_555 1_555
H6D C4D 1_555 1_555
H7D C4D 1_555 1_555
C5D C7A 1_555 1_555
H8D C5D 1_555 1_555
C6D C1A 1_555 1_555
H9D C6D 1_555 1_555
H10D C6D 1_555 1_555
H1D O6A 1_555 1_555
H2D O7A 1_555 1_555
Tb1_2 O3E 1_555 1_555
Tb1A_2 O3D 1_555 1_555
Tb1B O2A 1_555 1_555
Tb1C O2 1_555 1_555
O2B Tb1A 1_555 1_555
O2C Tb1 1_555 1_555
O2F Tb1 1_555 1_555
O2G Tb1A 1_555 1_555
O3D_2 Tb1A 1_555 1_555
O3E_2 Tb1 1_555 1_555
H27E O13 1_555 1_555
C5 C6 1_555 1_555
C8 O1E 1_555 1_555
C11 C12 1_555 1_555
C15 C16 1_555 1_555
C19 C20 1_555 1_555
O2E Tb1C 1_555 1_555
C4E C5E 1_555 1_555
C5E C6E 1_555 1_555
N6A C21A 1_555 1_555
C11A C12A 1_555 1_555
C15A C16A 1_555 1_555
C19A C20A 1_555 1_555
N2D C10D 1_555 1_555
N3D C13D 1_555 1_555
N4D C14D 1_555 1_555
N5D C17D 1_555 1_555
N6D C18D 1_555 1_555
C21D N1E 1_555 1_555
N2E C10E 1_555 1_555
N3E C13E 1_555 1_555
N4E C14E 1_555 1_555
N5E C17E 1_555 1_555
N6E C18E 1_555 1_555
N6E C21E 1_555 1_555
C1A C8A 1_555 1_555
C5A C6A 1_555 1_555
C8A O1D 1_555 1_555
O2D Tb1B 1_555 1_555
C4D C5D 1_555 1_555
C5D C6D 1_555 1_555

#END
