
#######################################################################
#
#                 Cambridge Crystallographic Data Centre
#                                CCDC 
#
#######################################################################
#
# If this CIF has been generated from an entry in the Cambridge 
# Structural Database, then it will include bibliographic, chemical, 
# crystal, experimental, refinement or atomic coordinate data resulting 
# from the CCDC's data processing and validation procedures.
#
#######################################################################

data_XUJXUX
_symmetry_cell_setting           monoclinic
_symmetry_space_group_name_H-M   'C 2/c'
_symmetry_Int_Tables_number      15
_space_group_name_Hall           '-C 2yn'
loop_
_symmetry_equiv_pos_site_id
_symmetry_equiv_pos_as_xyz
1 x,y,z
2 -x,y,1/2-z
3 1/2+x,1/2+y,z
4 1/2-x,1/2+y,1/2-z
5 -x,-y,-z
6 x,-y,1/2+z
7 1/2-x,1/2-y,-z
8 1/2+x,1/2-y,1/2+z
_cell_length_a                   14.898(3)
_cell_length_b                   9.4850(18)
_cell_length_c                   19.653(4)
_cell_angle_alpha                90
_cell_angle_beta                 101.891(2)
_cell_angle_gamma                90
_cell_volume                     2717.52
loop_
_atom_site_label
_atom_site_type_symbol
_atom_site_fract_x
_atom_site_fract_y
_atom_site_fract_z
Mn1 Mn 0.91562(2) 1.07035(3) 0.925413(16)
O1 O 0.69234(11) 0.45438(16) 0.89917(8)
O2 O 0.81898(12) 0.48011(17) 0.97996(9)
O3 O 0.92594(12) 0.66806(17) 1.02721(9)
O4 O 0.94833(10) 0.89339(16) 1.00533(8)
O5 O 0.59849(12) 0.66622(17) 0.74079(8)
O6 O 0.61401(11) 0.74875(16) 0.63855(8)
O7 O 0.99585(11) 0.98270(18) 0.85290(8)
H1 H 1.0501 1.0029 0.8664
O8 O 0.85935(14) 1.19623(18) 0.99652(10)
H2 H 0.8317 1.1455 1.0191
N1 N 0.70639(12) 0.73211(18) 0.85416(9)
N2 N 0.80397(11) 0.90131(17) 0.89505(9)
C1 C 0.68222(15) 1.1050(2) 0.80848(12)
C2 C 0.67871(14) 0.9615(2) 0.79290(11)
C3 C 0.62673(14) 0.9156(2) 0.72825(11)
C4 C 0.58079(16) 1.0169(2) 0.68302(12)
C5 C 0.58372(16) 1.1582(3) 0.69977(12)
C6 C 0.63526(16) 1.2026(2) 0.76251(13)
C7 C 0.73069(13) 0.8667(2) 0.84641(10)
C8 C 0.82588(13) 0.7810(2) 0.93410(10)
C9 C 0.76536(13) 0.6744(2) 0.90853(10)
C10 C 0.75695(14) 0.5267(2) 0.92897(11)
C11 C 0.90504(14) 0.7797(2) 0.99276(10)
C12 C 0.61351(13) 0.7650(2) 0.70175(11)
H3 H 0.5448(18) 0.983(3) 0.6411(15)
H4 H 0.7199(16) 1.137(2) 0.8539(12)
H5 H 0.6360(17) 1.298(3) 0.7741(13)
H6 H 0.5506(16) 1.226(3) 0.6680(12)
H7 H 0.6653(14) 0.695(3) 0.8222(10)
H8 H 0.825(2) 1.265(3) 0.990(3)
H9 H 0.9824(18) 1.044(3) 0.8218(13)
H10 H 0.856(2) 0.543(3) 1.0009(19)
Mn1C Mn 0.58438(2) 0.57035(3) 0.574587(16)
Mn1D Mn 1.08438(2) 0.92965(3) 1.074587(16)
O4D O 1.05167(10) 1.10661(16) 0.99467(8)
O6C O 0.88599(11) 1.24875(16) 0.86145(8)
loop_
_geom_bond_atom_site_label_1
_geom_bond_atom_site_label_2
_geom_bond_site_symmetry_1
_geom_bond_site_symmetry_2
Mn1 O4 1_555 1_555
O1 C10 1_555 1_555
O2 C10 1_555 1_555
O3 C11 1_555 1_555
O4 C11 1_555 1_555
O5 C12 1_555 1_555
O6 C12 1_555 1_555
O7 Mn1 1_555 1_555
H1 O7 1_555 1_555
O8 Mn1 1_555 1_555
H2 O8 1_555 1_555
N1 C7 1_555 1_555
N2 Mn1 1_555 1_555
C1 C2 1_555 1_555
C2 C3 1_555 1_555
C3 C4 1_555 1_555
C4 C5 1_555 1_555
C5 C6 1_555 1_555
C6 C1 1_555 1_555
C7 N2 1_555 1_555
C8 N2 1_555 1_555
C9 N1 1_555 1_555
C10 C9 1_555 1_555
C11 C8 1_555 1_555
C12 C3 1_555 1_555
H3 C4 1_555 1_555
H4 C1 1_555 1_555
H5 C6 1_555 1_555
H6 C5 1_555 1_555
H7 N1 1_555 1_555
H8 O8 1_555 1_555
H9 O7 1_555 1_555
H10 O2 1_555 1_555
Mn1C O6 1_555 1_555
Mn1D O4 1_555 1_555
O4D Mn1 1_555 1_555
O6C Mn1 1_555 1_555
C2 C7 1_555 1_555
C8 C9 1_555 1_555
Mn1D O4D 1_555 1_555

#END
