
#######################################################################
#
#                 Cambridge Crystallographic Data Centre
#                                CCDC 
#
#######################################################################
#
# If this CIF has been generated from an entry in the Cambridge 
# Structural Database, then it will include bibliographic, chemical, 
# crystal, experimental, refinement or atomic coordinate data resulting 
# from the CCDC's data processing and validation procedures.
#
#######################################################################

data_XUJYUY
_symmetry_cell_setting           triclinic
_symmetry_space_group_name_H-M   'P -1'
_symmetry_Int_Tables_number      2
_space_group_name_Hall           '-P 1'
loop_
_symmetry_equiv_pos_site_id
_symmetry_equiv_pos_as_xyz
1 x,y,z
2 -x,-y,-z
_cell_length_a                   7.4081(14)
_cell_length_b                   8.5320(16)
_cell_length_c                   11.775(2)
_cell_angle_alpha                105.503(3)
_cell_angle_beta                 95.860(3)
_cell_angle_gamma                101.940(3)
_cell_volume                     691.807
loop_
_atom_site_label
_atom_site_type_symbol
_atom_site_fract_x
_atom_site_fract_y
_atom_site_fract_z
Ag1 Ag 0.793640(18) 0.511580(18) 0.175200(14)
N1 N 0.4660(2) 0.51002(19) 0.13746(13)
N2 N 0.0902(2) 0.50201(19) 0.14602(13)
N3 N 0.6699(2) 0.4087(2) 0.33081(14)
C1 C 0.5420(5) 0.2474(4) 0.4918(2)
H1 H 0.4996 0.1927 0.5461
C2 C 0.3939(3) 0.6377(2) 0.12689(17)
H2 H 0.4714 0.7314 0.1160
C3 C 0.2080(3) 0.6346(2) 0.13169(16)
H3 H 0.1635 0.7264 0.1248
C4 C 0.1606(2) 0.3718(2) 0.15349(16)
H4 H 0.0822 0.2765 0.1616
C5 C 0.3481(2) 0.3762(2) 0.14941(14)
C6 C 0.4303(2) 0.2309(2) 0.16547(16)
C7 C 0.5212(3) 0.2771(2) 0.29659(16)
C8 C 0.4520(4) 0.1925(3) 0.3740(2)
H5 H 0.3482 0.1016 0.3479
C9 C 0.6923(4) 0.3811(4) 0.5275(2)
H6 H 0.7538 0.4190 0.6063
C10 C 0.7520(4) 0.4592(3) 0.4461(2)
H7 H 0.8542 0.5516 0.4715
O1 O 0.29054(19) 0.08287(16) 0.13970(13)
H8 H 0.2558 0.0453 0.0672
O2 O 0.56387(18) 0.21498(16) 0.08950(11)
H9 H 0.6291 0.1557 0.1076
C11 C 0.8509(2) 0.9251(2) 0.16195(18)
C12 C 0.8939(3) 0.9838(3) 0.2987(2)
F1 F 0.7398(3) 0.9439(3) 0.34308(18)
F2 F 1.0186(3) 0.9135(2) 0.34207(15)
F3 F 0.9622(3) 1.1482(2) 0.34454(15)
O3 O 0.8540(2) 0.77949(18) 0.11517(14)
O4 O 0.8134(2) 1.02996(18) 0.11260(15)
Ag1_2 Ag -0.206360(18) 0.511580(18) 0.175200(14)
N2_2 N 1.0902(2) 0.50201(19) 0.14602(13)
loop_
_geom_bond_atom_site_label_1
_geom_bond_atom_site_label_2
_geom_bond_site_symmetry_1
_geom_bond_site_symmetry_2
Ag1 N1 1_555 1_555
N1 C2 1_555 1_555
N2 C3 1_555 1_555
N3 Ag1 1_555 1_555
C1 H1 1_555 1_555
C2 H2 1_555 1_555
C3 C2 1_555 1_555
H3 C3 1_555 1_555
C4 N2 1_555 1_555
H4 C4 1_555 1_555
C5 N1 1_555 1_555
C6 C5 1_555 1_555
C7 N3 1_555 1_555
C8 C1 1_555 1_555
H5 C8 1_555 1_555
C9 C1 1_555 1_555
H6 C9 1_555 1_555
C10 N3 1_555 1_555
H7 C10 1_555 1_555
O1 C6 1_555 1_555
H8 O1 1_555 1_555
O2 Ag1 1_555 1_555
H9 O2 1_555 1_555
C11 C12 1_555 1_555
C12 F1 1_555 1_555
F2 C12 1_555 1_555
F3 C12 1_555 1_555
O3 Ag1 1_555 1_555
O4 C11 1_555 1_555
Ag1_2 N2 1_555 1_555
N2_2 Ag1 1_555 1_555
C4 C5 1_555 1_555
C6 C7 1_555 1_555
C6 O2 1_555 1_555
C7 C8 1_555 1_555
C9 C10 1_555 1_555
C11 O3 1_555 1_555

#END
