
#######################################################################
#
#                 Cambridge Crystallographic Data Centre
#                                CCDC 
#
#######################################################################
#
# If this CIF has been generated from an entry in the Cambridge 
# Structural Database, then it will include bibliographic, chemical, 
# crystal, experimental, refinement or atomic coordinate data resulting 
# from the CCDC's data processing and validation procedures.
#
#######################################################################

data_XUJYOS
_symmetry_cell_setting           orthorhombic
_symmetry_space_group_name_H-M   'P b c a'
_symmetry_Int_Tables_number      61
_space_group_name_Hall           '-P 2ac 2ab'
loop_
_symmetry_equiv_pos_site_id
_symmetry_equiv_pos_as_xyz
1 x,y,z
2 1/2-x,-y,1/2+z
3 -x,1/2+y,1/2-z
4 1/2+x,1/2-y,-z
5 -x,-y,-z
6 1/2+x,y,1/2-z
7 x,1/2-y,1/2+z
8 1/2-x,1/2+y,z
_cell_length_a                   11.828(6)
_cell_length_b                   8.255(4)
_cell_length_c                   22.787(11)
_cell_angle_alpha                90
_cell_angle_beta                 90
_cell_angle_gamma                90
_cell_volume                     2224.93
loop_
_atom_site_label
_atom_site_type_symbol
_atom_site_fract_x
_atom_site_fract_y
_atom_site_fract_z
Ag1 Ag 0.60378(2) 0.40611(3) 0.409104(11)
O1 O 0.41890(19) 0.2140(3) 0.41670(11)
N1 N 0.1417(2) 0.3453(4) 0.38524(13)
N2 N 0.0999(2) 0.1494(4) 0.48312(12)
N3 N 0.4671(2) 0.4465(3) 0.33497(11)
C1 C 0.0401(3) 0.3331(5) 0.40954(15)
H1 H -0.0194 0.3917 0.3934
C2 C 0.0191(3) 0.2366(4) 0.45797(14)
H2 H -0.0537 0.2328 0.4733
C3 C 0.2025(3) 0.1586(4) 0.45865(13)
H3 H 0.2615 0.0983 0.4745
C4 C 0.2230(2) 0.2557(4) 0.41026(12)
C5 C 0.3417(2) 0.2728(4) 0.38835(13)
C6 C 0.3680(2) 0.3652(4) 0.33342(13)
C7 C 0.3008(3) 0.3605(4) 0.28371(14)
H4 H 0.2332 0.3029 0.2838
C8 C 0.3352(3) 0.4421(5) 0.23392(15)
H5 H 0.2924 0.4375 0.1997
C9 C 0.4332(3) 0.5298(5) 0.23570(15)
H6 H 0.4565 0.5894 0.2033
C10 C 0.4973(3) 0.5282(4) 0.28691(15)
H7 H 0.5644 0.5869 0.2877
N4 N 0.7208(3) 0.1700(4) 0.40121(14)
O2 O 0.7965(3) 0.1628(4) 0.36618(14)
O3 O 0.7161(3) 0.0648(4) 0.43752(18)
Ag1C Ag 0.10378(2) 0.09389(3) 0.590896(11)
Ag1G Ag 0.89622(2) -0.09389(3) 0.409104(11)
N2C N 0.5999(2) 0.3506(4) 0.51688(12)
O2G O 0.7035(3) 0.6628(4) 0.36618(14)
O3G O 0.7839(3) 0.5648(4) 0.43752(18)
loop_
_geom_bond_atom_site_label_1
_geom_bond_atom_site_label_2
_geom_bond_site_symmetry_1
_geom_bond_site_symmetry_2
Ag1 O1 1_555 1_555
O1 C5 1_555 1_555
N1 C1 1_555 1_555
N2 C2 1_555 1_555
N3 Ag1 1_555 1_555
C1 H1 1_555 1_555
C2 C1 1_555 1_555
H2 C2 1_555 1_555
C3 N2 1_555 1_555
H3 C3 1_555 1_555
C4 N1 1_555 1_555
C5 C4 1_555 1_555
C6 N3 1_555 1_555
C7 C6 1_555 1_555
H4 C7 1_555 1_555
C8 C7 1_555 1_555
H5 C8 1_555 1_555
C9 C8 1_555 1_555
H6 C9 1_555 1_555
C10 N3 1_555 1_555
H7 C10 1_555 1_555
N4 Ag1 1_555 1_555
O2 N4 1_555 1_555
O3 N4 1_555 1_555
Ag1C N2 1_555 1_555
Ag1G O2 1_555 1_555
N2C Ag1 1_555 1_555
O2G Ag1 1_555 1_555
O3G Ag1 1_555 1_555
C3 C4 1_555 1_555
C5 C6 1_555 1_555
C9 C10 1_555 1_555
O3 Ag1G 1_555 1_555

#END
