
#######################################################################
#
#                 Cambridge Crystallographic Data Centre
#                                CCDC 
#
#######################################################################
#
# If this CIF has been generated from an entry in the Cambridge 
# Structural Database, then it will include bibliographic, chemical, 
# crystal, experimental, refinement or atomic coordinate data resulting 
# from the CCDC's data processing and validation procedures.
#
#######################################################################

data_XUJYAE
_symmetry_cell_setting           monoclinic
_symmetry_space_group_name_H-M   'P 21/n'
_symmetry_Int_Tables_number      14
_space_group_name_Hall           '-P 2yn'
loop_
_symmetry_equiv_pos_site_id
_symmetry_equiv_pos_as_xyz
1 x,y,z
2 1/2-x,1/2+y,1/2-z
3 -x,-y,-z
4 1/2+x,1/2-y,1/2+z
_cell_length_a                   14.8968(15)
_cell_length_b                   20.741(2)
_cell_length_c                   19.1274(18)
_cell_angle_alpha                90
_cell_angle_beta                 94.4017(14)
_cell_angle_gamma                90
_cell_volume                     5892.45
loop_
_atom_site_label
_atom_site_type_symbol
_atom_site_fract_x
_atom_site_fract_y
_atom_site_fract_z
Mn1 Mn 0.52142(3) 0.15211(2) 0.18460(2)
Mn2 Mn 1.00136(3) 0.17848(2) -0.21455(2)
Mn3 Mn 0.75323(2) 0.35181(2) -0.00693(2)
C1 C 0.92530(14) 0.28726(10) -0.03770(10)
O1 O 0.88340(11) 0.34850(7) 0.05606(8)
N1 N 0.67398(11) 0.27795(8) 0.04604(8)
O2 O 0.62044(11) 0.35209(7) -0.06633(8)
O3 O 0.42323(11) 0.16236(8) 0.07771(9)
N2 N 0.92838(12) 0.23559(8) -0.13949(9)
O4 O 0.63147(12) 0.31246(8) 0.24452(9)
N3 N 0.84086(11) 0.29216(8) -0.07065(8)
C2 C 0.97872(15) 0.25241(10) -0.07962(11)
O5 O 1.02522(12) 0.31458(9) 0.05942(8)
O6 O 0.39874(11) 0.22731(9) -0.01465(9)
C3 C 0.58894(14) 0.27293(10) 0.01399(10)
O7 O 0.59748(12) 0.21118(8) 0.26545(8)
C4 C 0.67331(14) 0.23797(10) 0.10143(11)
N4 N 0.59401(12) 0.20819(8) 0.10700(9)
O8 O 0.88909(12) 0.33698(8) -0.27795(9)
C5 C 0.84618(14) 0.26045(10) -0.13162(11)
O9 O 1.10054(11) 0.19123(8) -0.11137(9)
O10 O 0.48339(12) 0.30902(9) -0.07592(9)
O11 O 1.11796(12) 0.24665(9) -0.01117(9)
C6 C 0.54076(14) 0.23030(10) 0.05078(11)
C7 C 0.87043(17) 0.27809(12) -0.27900(11)
C8 C 0.78147(15) 0.25749(10) -0.25563(11)
C9 C 0.76980(15) 0.25079(11) -0.18408(11)
C10 C 0.73997(16) 0.23338(10) 0.22423(12)
C11 C 0.75119(15) 0.22742(10) 0.15259(12)
N5 N 0.97778(13) 0.09849(9) -0.29466(10)
N6 N 0.53595(14) 0.07824(9) 0.27243(11)
C12 C 0.65040(17) 0.25370(12) 0.24666(11)
C13 C 0.44876(16) 0.20485(11) 0.03859(12)
C14 C 0.94570(17) 0.31866(10) 0.03073(11)
C15 C 0.94418(16) -0.01432(11) -0.31462(13)
C16 C 0.56261(16) 0.31384(11) -0.04716(11)
C17 C 0.68657(17) 0.23224(12) -0.16331(13)
H1 H 0.6782 0.2280 -0.1158
C18 C 0.70978(18) 0.24505(12) -0.30434(13)
H2 H 0.7170 0.2495 -0.3520
N7 N 0.77389(14) 0.44428(10) -0.06810(12)
C19 C 0.81228(19) 0.22071(12) 0.27264(13)
H3 H 0.8051 0.2246 0.3203
N8 N 0.56531(19) 0.05668(11) 0.13894(12)
N9 N 0.72796(14) 0.43453(10) 0.06622(12)
C20 C 1.07185(16) 0.22826(11) -0.06777(12)
C21 C 0.94086(19) 0.03421(12) -0.19829(13)
C22 C 0.95523(16) 0.03980(11) -0.27094(12)
C23 C 0.9187(2) -0.07441(12) -0.28518(16)
H4 H 0.9127 -0.1108 -0.3136
C24 C 0.98842(19) 0.10429(13) -0.36186(13)
H5 H 1.0037 0.1446 -0.3787
C25 C 0.5229(2) 0.09008(14) 0.33903(14)
H6 H 0.5105 0.1322 0.3519
C26 C 0.89356(19) 0.20262(13) 0.25079(16)
H7 H 0.9411 0.1935 0.2837
C27 C 0.83479(16) 0.20998(12) 0.13084(14)
H8 H 0.8429 0.2065 0.0833
C28 C 0.62787(19) 0.22607(14) -0.28236(15)
H9 H 0.5802 0.2173 -0.3153
C29 C 0.55828(18) -0.03418(12) 0.30346(15)
C30 C 0.55469(17) 0.01696(11) 0.25435(13)
C31 C 0.5711(2) 0.00584(12) 0.18348(15)
C32 C 0.75938(17) 0.49928(12) -0.03271(18)
C33 C 0.9035(2) -0.07902(12) -0.21801(16)
H10 H 0.8858 -0.1185 -0.2006
C34 C 0.9134(2) -0.02520(13) -0.17172(15)
C35 C 0.9781(2) 0.05380(14) -0.40906(14)
H11 H 0.9852 0.0606 -0.4564
C36 C 0.61616(18) 0.22003(14) -0.21235(16)
H12 H 0.5605 0.2076 -0.1979
C37 C 0.5790(2) -0.09670(14) 0.28033(18)
H13 H 0.5811 -0.1308 0.3119
C38 C 0.73672(17) 0.49435(12) 0.03834(18)
N10 N 0.95187(19) 0.08800(11) -0.15796(11)
C39 C 0.71038(19) 0.42954(15) 0.13275(16)
H14 H 0.7050 0.3885 0.1516
C40 C 0.5268(2) 0.04276(15) 0.39032(16)
H15 H 0.5184 0.0533 0.4366
C41 C 0.6110(3) -0.06507(17) 0.0940(2)
H16 H 0.6278 -0.1055 0.0786
C42 C 0.5923(2) -0.05695(14) 0.16276(17)
C43 C 0.90586(18) 0.19774(13) 0.17984(17)
H17 H 0.9618 0.1863 0.1653
C44 C 0.6995(2) 0.4827(2) 0.1761(2)
H18 H 0.6880 0.4774 0.2228
C45 C 0.7924(2) 0.44780(16) -0.13498(16)
H19 H 0.8017 0.4098 -0.1592
C46 C 0.5430(2) -0.01890(15) 0.37225(16)
H20 H 0.5440 -0.0512 0.4060
C47 C 0.9360(3) 0.08390(17) -0.09102(16)
H21 H 0.9431 0.1206 -0.0633
C48 C 0.9576(2) -0.00563(14) -0.38566(14)
H22 H 0.9524 -0.0403 -0.4165
C49 C 0.5956(2) -0.10747(13) 0.21390(19)
H23 H 0.6098 -0.1491 0.2003
C50 C 0.8974(3) -0.02738(17) -0.10030(18)
H24 H 0.8789 -0.0656 -0.0804
C51 C 0.5834(3) 0.04677(17) 0.07393(18)
H25 H 0.5818 0.0817 0.0433
C52 C 0.7663(2) 0.56053(15) -0.0646(3)
C53 C 0.7985(3) 0.5066(2) -0.1701(2)
H26 H 0.8104 0.5078 -0.2171
C54 C 0.7246(2) 0.55066(16) 0.0778(2)
O12 O 0.92420(12) 0.23572(9) -0.29816(9)
C55 C 0.7064(3) 0.5430(2) 0.1473(3)
H27 H 0.6987 0.5792 0.1749
C56 C 0.7864(3) 0.5622(2) -0.1339(3)
H28 H 0.7919 0.6018 -0.1562
C57 C 0.7326(3) 0.61236(18) 0.0437(3)
H29 H 0.7236 0.6501 0.0685
C58 C 0.7526(3) 0.61577(19) -0.0227(3)
H30 H 0.7580 0.6563 -0.0428
C59 C 0.6054(4) -0.0145(2) 0.0483(2)
H31 H 0.6158 -0.0203 0.0014
C60 C 0.9091(4) 0.0269(2) -0.06031(19)
H32 H 0.8991 0.0258 -0.0129
Mn1C Mn 1.02142(3) 0.34789(2) -0.31540(2)
Mn2C Mn 0.50136(3) 0.32152(2) 0.28545(2)
O4C O 1.13147(12) 0.18754(8) -0.25548(9)
O8C O 0.38909(12) 0.16302(8) 0.22205(9)
O13 O 0.23469(18) 0.13688(16) 0.0372(2)
H33 H 0.2891 0.1494 0.0427
H34 H 0.2055 0.1615 0.0081
loop_
_geom_bond_atom_site_label_1
_geom_bond_atom_site_label_2
_geom_bond_site_symmetry_1
_geom_bond_site_symmetry_2
Mn1 O3 1_555 1_555
Mn2 N2 1_555 1_555
Mn3 O1 1_555 1_555
C1 N3 1_555 1_555
O1 C14 1_555 1_555
N1 Mn3 1_555 1_555
O2 Mn3 1_555 1_555
O3 C13 1_555 1_555
N2 C2 1_555 1_555
O4 C12 1_555 1_555
N3 Mn3 1_555 1_555
C2 C1 1_555 1_555
O5 C14 1_555 1_555
O6 C13 1_555 1_555
C3 N1 1_555 1_555
O7 Mn1 1_555 1_555
C4 N1 1_555 1_555
N4 Mn1 1_555 1_555
O8 C7 1_555 1_555
C5 N2 1_555 1_555
O9 Mn2 1_555 1_555
O10 C16 1_555 1_555
O11 C20 1_555 1_555
C6 C3 1_555 1_555
C7 C8 1_555 1_555
C8 C9 1_555 1_555
C9 C5 1_555 1_555
C10 C11 1_555 1_555
C11 C4 1_555 1_555
N5 Mn2 1_555 1_555
N6 Mn1 1_555 1_555
C12 O7 1_555 1_555
C13 C6 1_555 1_555
C14 C1 1_555 1_555
C15 C22 1_555 1_555
C16 O2 1_555 1_555
C17 C9 1_555 1_555
H1 C17 1_555 1_555
C18 C8 1_555 1_555
H2 C18 1_555 1_555
N7 Mn3 1_555 1_555
C19 C10 1_555 1_555
H3 C19 1_555 1_555
N8 Mn1 1_555 1_555
N9 Mn3 1_555 1_555
C20 C2 1_555 1_555
C21 C22 1_555 1_555
C22 N5 1_555 1_555
C23 C15 1_555 1_555
H4 C23 1_555 1_555
C24 N5 1_555 1_555
H5 C24 1_555 1_555
C25 N6 1_555 1_555
H6 C25 1_555 1_555
C26 C19 1_555 1_555
H7 C26 1_555 1_555
C27 C11 1_555 1_555
H8 C27 1_555 1_555
C28 C18 1_555 1_555
H9 C28 1_555 1_555
C29 C30 1_555 1_555
C30 N6 1_555 1_555
C31 N8 1_555 1_555
C32 N7 1_555 1_555
C33 C23 1_555 1_555
H10 C33 1_555 1_555
C34 C21 1_555 1_555
C35 C24 1_555 1_555
H11 C35 1_555 1_555
C36 C17 1_555 1_555
H12 C36 1_555 1_555
C37 C29 1_555 1_555
H13 C37 1_555 1_555
C38 N9 1_555 1_555
N10 Mn2 1_555 1_555
C39 N9 1_555 1_555
H14 C39 1_555 1_555
C40 C25 1_555 1_555
H15 C40 1_555 1_555
C41 H16 1_555 1_555
C42 C31 1_555 1_555
C43 C26 1_555 1_555
H17 C43 1_555 1_555
C44 C39 1_555 1_555
H18 C44 1_555 1_555
C45 N7 1_555 1_555
H19 C45 1_555 1_555
C46 C29 1_555 1_555
H20 C46 1_555 1_555
C47 N10 1_555 1_555
H21 C47 1_555 1_555
C48 C15 1_555 1_555
H22 C48 1_555 1_555
C49 C37 1_555 1_555
H23 C49 1_555 1_555
C50 C34 1_555 1_555
H24 C50 1_555 1_555
C51 N8 1_555 1_555
H25 C51 1_555 1_555
C52 C32 1_555 1_555
C53 C45 1_555 1_555
H26 C53 1_555 1_555
C54 C38 1_555 1_555
O12 Mn2 1_555 1_555
C55 C44 1_555 1_555
H27 C55 1_555 1_555
C56 C52 1_555 1_555
H28 C56 1_555 1_555
C57 C54 1_555 1_555
H29 C57 1_555 1_555
C58 C52 1_555 1_555
H30 C58 1_555 1_555
C59 C41 1_555 1_555
H31 C59 1_555 1_555
C60 C47 1_555 1_555
H32 C60 1_555 1_555
O13 H33 1_555 1_555
H34 O13 1_555 1_555
Mn1C O8 1_555 1_555
Mn2C O4 1_555 1_555
O4C Mn2 1_555 1_555
O8C Mn1 1_555 1_555
N3 C5 1_555 1_555
C3 C16 1_555 1_555
C4 N4 1_555 1_555
N4 C6 1_555 1_555
O9 C20 1_555 1_555
C7 O12 1_555 1_555
C10 C12 1_555 1_555
C21 N10 1_555 1_555
C27 C43 1_555 1_555
C28 C36 1_555 1_555
C30 C31 1_555 1_555
C32 C38 1_555 1_555
C33 C34 1_555 1_555
C35 C48 1_555 1_555
C40 C46 1_555 1_555
C41 C42 1_555 1_555
C42 C49 1_555 1_555
C50 C60 1_555 1_555
C51 C59 1_555 1_555
C53 C56 1_555 1_555
C54 C55 1_555 1_555
C57 C58 1_555 1_555

#END
