
#######################################################################
#
#                 Cambridge Crystallographic Data Centre
#                                CCDC 
#
#######################################################################
#
# If this CIF has been generated from an entry in the Cambridge 
# Structural Database, then it will include bibliographic, chemical, 
# crystal, experimental, refinement or atomic coordinate data resulting 
# from the CCDC's data processing and validation procedures.
#
#######################################################################

data_XUJZOR
_symmetry_cell_setting           monoclinic
_symmetry_space_group_name_H-M   'P 21/n'
_symmetry_Int_Tables_number      14
_space_group_name_Hall           '-P 2yn'
loop_
_symmetry_equiv_pos_site_id
_symmetry_equiv_pos_as_xyz
1 x,y,z
2 1/2+x,1/2-y,1/2+z
3 -x,-y,-z
4 1/2-x,1/2+y,1/2-z
_cell_length_a                   10.7192(2)
_cell_length_b                   31.0886(6)
_cell_length_c                   16.4690(3)
_cell_angle_alpha                90
_cell_angle_beta                 104.3310(10)
_cell_angle_gamma                90
_cell_volume                     5317.43
loop_
_atom_site_label
_atom_site_type_symbol
_atom_site_fract_x
_atom_site_fract_y
_atom_site_fract_z
Mo1 Mo 0.23349(6) 0.060683(18) 0.17222(3)
Mo2 Mo 0.13859(6) 0.174392(18) 0.14694(4)
Mo3 Mo 0.07404(7) 0.203631(19) 0.32715(4)
Mo4 Mo 0.18894(6) 0.12723(2) 0.47242(4)
Mo5 Mo 0.28789(6) 0.041898(19) 0.37788(4)
Ni1 Ni 0.0000 0.0000 0.0000
Ni2 Ni -0.11064(11) 0.27638(3) -0.44675(6)
Ni3 Ni -0.21585(9) 0.06760(3) 0.35646(6)
P1 P 0.01388(17) 0.09775(6) 0.26933(11)
P2 P 0.35344(17) 0.14433(5) 0.32223(10)
O1 O 0.1546(4) 0.02912(13) 0.0878(3)
O2 O 0.3892(5) 0.05855(15) 0.1637(3)
O3 O 0.1865(4) 0.11683(13) 0.1291(3)
O4 O 0.2403(4) 0.02227(13) 0.2628(3)
O5 O 0.3168(4) 0.09629(13) 0.2985(3)
O6 O 0.0376(4) 0.06898(13) 0.1990(3)
O7 O -0.0150(5) 0.17500(16) 0.0844(3)
O8 O -0.2777(5) 0.29683(14) -0.4123(3)
O9 O 0.1268(5) 0.21735(14) 0.2271(3)
O10 O 0.0499(4) 0.14493(13) 0.2485(3)
O11 O 0.3316(4) 0.16906(14) 0.2408(3)
O12 O 0.1535(5) 0.24462(16) 0.3883(3)
O13 O -0.0809(5) 0.22157(18) 0.2991(4)
O14 O 0.2630(4) 0.16225(14) 0.3740(3)
O15 O 0.0507(5) 0.16442(15) 0.4129(3)
O16 O 0.2756(5) 0.16065(17) 0.5479(3)
O17 O 0.0990(5) 0.09795(16) 0.5259(3)
O18 O 0.3168(5) 0.08633(15) 0.4628(3)
O19 O 0.1046(4) 0.08372(14) 0.3537(3)
O20 O 0.2011(5) 0.00505(16) 0.4191(3)
O21 O 0.4406(5) 0.02246(16) 0.4033(3)
O22 O -0.1245(4) 0.09604(15) 0.2752(3)
O23 O 0.4919(4) 0.14703(15) 0.3715(3)
O24 O -0.1178(4) 0.03396(14) 0.0623(3)
O25 O -0.0008(5) 0.31198(17) -0.3498(3)
O26 O 0.0627(7) 0.2612(2) -0.4727(4)
O27 O -0.2388(12) 0.2400(2) -0.5376(4)
O28 O -0.3872(5) 0.09407(16) 0.2877(3)
O29 O -0.0572(5) 0.03718(16) 0.4350(3)
O30 O -0.1792(5) 0.12506(17) 0.4265(3)
O31 O -0.3107(5) 0.04525(17) 0.4438(3)
N1 N -0.0043(5) 0.04962(16) -0.0833(3)
N2 N -0.1338(6) 0.32756(19) -0.5284(4)
N3 N -0.0915(7) 0.22455(18) -0.3675(4)
N4 N -0.2460(6) 0.5121(2) -0.7874(4)
C1 C -0.0282(7) 0.0431(2) -0.1662(4)
H2 H -0.0364 0.0150 -0.1860
C2 C -0.0412(7) 0.0757(2) -0.2228(4)
H3 H -0.0587 0.0694 -0.2797
C3 C -0.0286(7) 0.1180(2) -0.1969(4)
C4 C -0.0002(7) 0.1247(2) -0.1107(4)
H4 H 0.0118 0.1525 -0.0894
C5 C 0.0101(7) 0.0905(2) -0.0572(4)
H5 H 0.0279 0.0959 0.0001
C6 C -0.1359(9) 0.3676(2) -0.4985(5)
H6 H -0.1235 0.3713 -0.4410
C7 C -0.1552(9) 0.4030(2) -0.5483(5)
H7 H -0.1548 0.4301 -0.5240
C8 C -0.1756(7) 0.3999(2) -0.6348(5)
C9 C -0.1769(9) 0.3585(2) -0.6658(5)
H8 H -0.1927 0.3541 -0.7233
C10 C -0.1552(9) 0.3242(2) -0.6130(5)
H9 H -0.1550 0.2969 -0.6361
C11 C -0.0536(10) 0.1857(2) -0.3889(5)
H10 H -0.0419 0.1823 -0.4427
C12 C -0.0313(9) 0.1511(3) -0.3361(5)
H11 H -0.0055 0.1250 -0.3540
C13 C -0.0475(7) 0.1553(2) -0.2559(4)
C14 C -0.0856(8) 0.1949(2) -0.2335(4)
H12 H -0.0981 0.1991 -0.1802
C15 C -0.1052(8) 0.2281(2) -0.2894(4)
H13 H -0.1293 0.2547 -0.2722
C16 C -0.2528(9) 0.4727(3) -0.8224(5)
H14 H -0.2736 0.4703 -0.8805
C17 C -0.2297(8) 0.4354(3) -0.7744(5)
H15 H -0.2346 0.4087 -0.8002
C18 C -0.1995(7) 0.4385(2) -0.6890(5)
C19 C -0.1909(9) 0.4794(2) -0.6545(5)
H16 H -0.1678 0.4828 -0.5966
C20 C -0.2160(9) 0.5145(3) -0.7048(5)
H17 H -0.2119 0.5415 -0.6799
O1B O -0.1546(4) -0.02912(13) -0.0878(3)
O24B O 0.1178(4) -0.03396(14) -0.0623(3)
N1B N 0.0043(5) -0.04962(16) 0.0833(3)
N3B N 0.0915(7) -0.22455(18) 0.3675(4)
C1B C 0.0282(7) -0.0431(2) 0.1662(4)
H2B H 0.0364 -0.0150 0.1860
C2B C 0.0412(7) -0.0757(2) 0.2228(4)
H3B H 0.0587 -0.0694 0.2797
C3B C 0.0286(7) -0.1180(2) 0.1969(4)
C4B C 0.0002(7) -0.1247(2) 0.1107(4)
H4B H -0.0118 -0.1525 0.0894
C5B C -0.0101(7) -0.0905(2) 0.0572(4)
H5B H -0.0279 -0.0959 -0.0001
C11B C 0.0536(10) -0.1857(2) 0.3889(5)
H10B H 0.0419 -0.1823 0.4427
C12B C 0.0313(9) -0.1511(3) 0.3361(5)
H11B H 0.0055 -0.1250 0.3540
C13B C 0.0475(7) -0.1553(2) 0.2559(4)
C14B C 0.0856(8) -0.1949(2) 0.2335(4)
H12B H 0.0981 -0.1991 0.1802
C15B C 0.1052(8) -0.2281(2) 0.2894(4)
H13B H 0.1293 -0.2547 0.2722
Mo1B Mo -0.23349(6) -0.060683(18) -0.17222(3)
Ni2B Ni 0.11064(11) -0.27638(3) 0.44675(6)
O2B O -0.3892(5) -0.05855(15) -0.1637(3)
O3B O -0.1865(4) -0.11683(13) -0.1291(3)
O4B O -0.2403(4) -0.02227(13) -0.2628(3)
P2B P -0.35344(17) -0.14433(5) -0.32223(10)
O5B O -0.3168(4) -0.09629(13) -0.2985(3)
O11B O -0.3316(4) -0.16906(14) -0.2408(3)
O14B O -0.2630(4) -0.16225(14) -0.3740(3)
O23B O -0.4919(4) -0.14703(15) -0.3715(3)
P1B P -0.01388(17) -0.09775(6) -0.26933(11)
O6B O -0.0376(4) -0.06898(13) -0.1990(3)
O10B O -0.0499(4) -0.14493(13) -0.2485(3)
O19B O -0.1046(4) -0.08372(14) -0.3537(3)
O22B O 0.1245(4) -0.09604(15) -0.2752(3)
O8B O 0.2777(5) -0.29683(14) 0.4123(3)
O25B O 0.0008(5) -0.31198(17) 0.3498(3)
O26B O -0.0627(7) -0.2612(2) 0.4727(4)
O27B O 0.2388(12) -0.2400(2) 0.5376(4)
N2B N 0.1338(6) -0.32756(19) 0.5284(4)
N4B N 0.2460(6) -0.5121(2) 0.7874(4)
C6B C 0.1359(9) -0.3676(2) 0.4985(5)
H6B H 0.1235 -0.3713 0.4410
C7B C 0.1552(9) -0.4030(2) 0.5483(5)
H7B H 0.1548 -0.4301 0.5240
C8B C 0.1756(7) -0.3999(2) 0.6348(5)
C9B C 0.1769(9) -0.3585(2) 0.6658(5)
H8B H 0.1927 -0.3541 0.7233
C10B C 0.1552(9) -0.3242(2) 0.6130(5)
H9B H 0.1550 -0.2969 0.6361
C16B C 0.2528(9) -0.4727(3) 0.8224(5)
H14B H 0.2736 -0.4703 0.8805
C17B C 0.2297(8) -0.4354(3) 0.7744(5)
H15B H 0.2346 -0.4087 0.8002
C18B C 0.1995(7) -0.4385(2) 0.6890(5)
C19B C 0.1909(9) -0.4794(2) 0.6545(5)
H16B H 0.1678 -0.4828 0.5966
C20B C 0.2160(9) -0.5145(3) 0.7048(5)
H17B H 0.2119 -0.5415 0.6799
Mo2B Mo -0.13859(6) -0.174392(18) -0.14694(4)
Mo3B Mo -0.07404(7) -0.203631(19) -0.32715(4)
Mo4B Mo -0.18894(6) -0.12723(2) -0.47242(4)
Mo5B Mo -0.28789(6) -0.041898(19) -0.37788(4)
Ni3B Ni 0.21585(9) -0.06760(3) -0.35646(6)
O7B O 0.0150(5) -0.17500(16) -0.0844(3)
O9B O -0.1268(5) -0.21735(14) -0.2271(3)
O12B O -0.1535(5) -0.24462(16) -0.3883(3)
O13B O 0.0809(5) -0.22157(18) -0.2991(4)
O15B O -0.0507(5) -0.16442(15) -0.4129(3)
O16B O -0.2756(5) -0.16065(17) -0.5479(3)
O17B O -0.0990(5) -0.09795(16) -0.5259(3)
O18B O -0.3168(5) -0.08633(15) -0.4628(3)
O20B O -0.2011(5) -0.00505(16) -0.4191(3)
O21B O -0.4406(5) -0.02246(16) -0.4033(3)
O28B O 0.3872(5) -0.09407(16) -0.2877(3)
O29B O 0.0572(5) -0.03718(16) -0.4350(3)
O30B O 0.1792(5) -0.12506(17) -0.4265(3)
O31B O 0.3107(5) -0.04525(17) -0.4438(3)
O8A O 0.2223(5) 0.20317(14) 0.0877(3)
N4C N -0.2540(6) 0.0121(2) 0.2874(4)
Mo2A Mo -0.36141(6) 0.325608(18) -0.35306(4)
Ni3C Ni -0.28415(9) 0.56760(3) -0.85646(6)
Mo2C Mo 0.36141(6) -0.325608(18) 0.35306(4)
Ni3A Ni 0.28415(9) -0.56760(3) 0.85646(6)
O8C O -0.2223(5) -0.20317(14) -0.0877(3)
N4A N 0.2540(6) -0.0121(2) -0.2874(4)
O32 O 0.7337(7) 0.1531(2) 0.1573(4)
O33 O -0.0621(8) 0.2425(2) -0.0372(5)
O34 O 0.1900(11) 0.3067(3) -0.1687(7)
O35 O 0.7654(11) 0.2659(4) 0.1483(7)
N5 N 0.5605(7) 0.1522(3) 0.5397(5)
N6 N 0.6845(8) 0.0824(3) 0.9581(5)
H1 H 0.7031 0.0733 1.0090
C21 C 0.5768(9) 0.1114(4) 0.5578(6)
H18 H 0.5714 0.0917 0.5146
C22 C 0.6023(9) 0.0964(3) 0.6407(5)
H19 H 0.6160 0.0673 0.6526
C23 C 0.6068(7) 0.1258(3) 0.7041(5)
C24 C 0.5897(9) 0.1686(3) 0.6822(5)
H20 H 0.5955 0.1895 0.7234
C25 C 0.5639(10) 0.1805(3) 0.5987(6)
H21 H 0.5486 0.2093 0.5843
C26 C 0.6865(9) 0.1242(3) 0.9410(6)
H22 H 0.7072 0.1437 0.9852
C27 C 0.6590(8) 0.1398(3) 0.8596(5)
H23 H 0.6599 0.1692 0.8495
C28 C 0.6305(7) 0.1111(3) 0.7939(5)
C29 C 0.6261(8) 0.0680(3) 0.8126(5)
H24 H 0.6051 0.0478 0.7699
C30 C 0.6531(9) 0.0553(3) 0.8946(6)
H25 H 0.6491 0.0262 0.9062
loop_
_geom_bond_atom_site_label_1
_geom_bond_atom_site_label_2
_geom_bond_site_symmetry_1
_geom_bond_site_symmetry_2
Mo1 O1 1_555 1_555
Mo2 Mo3 1_555 1_555
Mo3 O9 1_555 1_555
Mo4 O14 1_555 1_555
Mo5 O4 1_555 1_555
Ni1 O1 1_555 1_555
Ni2 O8 1_555 1_555
Ni3 O22 1_555 1_555
P1 O6 1_555 1_555
P2 O5 1_555 1_555
O2 Mo1 1_555 1_555
O3 Mo1 1_555 1_555
O4 Mo1 1_555 1_555
O5 Mo1 1_555 1_555
O6 Mo1 1_555 1_555
O7 Mo2 1_555 1_555
O8 Mo2A 1_555 1_555
O9 Mo2 1_555 1_555
O10 Mo2 1_555 1_555
O11 Mo2 1_555 1_555
O12 Mo3 1_555 1_555
O13 Mo3 1_555 1_555
O14 Mo3 1_555 1_555
O15 Mo3 1_555 1_555
O16 Mo4 1_555 1_555
O17 Mo4 1_555 1_555
O18 Mo4 1_555 1_555
O19 Mo4 1_555 1_555
O20 Mo5 1_555 1_555
O21 Mo5 1_555 1_555
O22 P1 1_555 1_555
O23 P2 1_555 1_555
O24 Ni1 1_555 1_555
O25 Ni2 1_555 1_555
O26 Ni2 1_555 1_555
O27 Ni2 1_555 1_555
O28 Ni3 1_555 1_555
O29 Ni3 1_555 1_555
O30 Ni3 1_555 1_555
O31 Ni3 1_555 1_555
N1 Ni1 1_555 1_555
N2 Ni2 1_555 1_555
N3 Ni2 1_555 1_555
N4 C16 1_555 1_555
N5 C21 1_555 1_555
N6 H1 1_555 1_555
C1 N1 1_555 1_555
H2 C1 1_555 1_555
C2 C1 1_555 1_555
H3 C2 1_555 1_555
C3 C2 1_555 1_555
C4 C3 1_555 1_555
H4 C4 1_555 1_555
C5 N1 1_555 1_555
H5 C5 1_555 1_555
C6 N2 1_555 1_555
H6 C6 1_555 1_555
C7 C6 1_555 1_555
H7 C7 1_555 1_555
C8 C7 1_555 1_555
C9 C8 1_555 1_555
H8 C9 1_555 1_555
C10 N2 1_555 1_555
H9 C10 1_555 1_555
C11 N3 1_555 1_555
H10 C11 1_555 1_555
C12 C11 1_555 1_555
H11 C12 1_555 1_555
C13 C3 1_555 1_555
C14 C13 1_555 1_555
H12 C14 1_555 1_555
C15 N3 1_555 1_555
H13 C15 1_555 1_555
C16 H14 1_555 1_555
C17 C16 1_555 1_555
H15 C17 1_555 1_555
C18 C8 1_555 1_555
C19 C18 1_555 1_555
H16 C19 1_555 1_555
C20 N4 1_555 1_555
H17 C20 1_555 1_555
C21 H18 1_555 1_555
C22 C21 1_555 1_555
H19 C22 1_555 1_555
C23 C22 1_555 1_555
C24 C23 1_555 1_555
H20 C24 1_555 1_555
C25 N5 1_555 1_555
H21 C25 1_555 1_555
C26 N6 1_555 1_555
H22 C26 1_555 1_555
C27 C26 1_555 1_555
H23 C27 1_555 1_555
C28 C23 1_555 1_555
C29 C28 1_555 1_555
H24 C29 1_555 1_555
C30 N6 1_555 1_555
H25 C30 1_555 1_555
O1B Ni1 1_555 1_555
O24B Ni1 1_555 1_555
N1B Ni1 1_555 1_555
N3B C11B 1_555 1_555
C1B N1B 1_555 1_555
H2B C1B 1_555 1_555
C2B C1B 1_555 1_555
H3B C2B 1_555 1_555
C3B C2B 1_555 1_555
C4B C3B 1_555 1_555
H4B C4B 1_555 1_555
C5B N1B 1_555 1_555
H5B C5B 1_555 1_555
C11B H10B 1_555 1_555
C12B C11B 1_555 1_555
H11B C12B 1_555 1_555
C13B C3B 1_555 1_555
C14B C13B 1_555 1_555
H12B C14B 1_555 1_555
C15B N3B 1_555 1_555
H13B C15B 1_555 1_555
Mo1B O1B 1_555 1_555
Ni2B N3B 1_555 1_555
O2B Mo1B 1_555 1_555
O3B Mo1B 1_555 1_555
O4B Mo1B 1_555 1_555
P2B O5B 1_555 1_555
O5B Mo1B 1_555 1_555
O11B P2B 1_555 1_555
O14B P2B 1_555 1_555
O23B P2B 1_555 1_555
P1B O6B 1_555 1_555
O6B Mo1B 1_555 1_555
O10B P1B 1_555 1_555
O19B P1B 1_555 1_555
O22B P1B 1_555 1_555
O8B Ni2B 1_555 1_555
O25B Ni2B 1_555 1_555
O26B Ni2B 1_555 1_555
O27B Ni2B 1_555 1_555
N2B Ni2B 1_555 1_555
N4B C16B 1_555 1_555
C6B N2B 1_555 1_555
H6B C6B 1_555 1_555
C7B C6B 1_555 1_555
H7B C7B 1_555 1_555
C8B C7B 1_555 1_555
C9B C8B 1_555 1_555
H8B C9B 1_555 1_555
C10B N2B 1_555 1_555
H9B C10B 1_555 1_555
C16B H14B 1_555 1_555
C17B C16B 1_555 1_555
H15B C17B 1_555 1_555
C18B C8B 1_555 1_555
C19B C18B 1_555 1_555
H16B C19B 1_555 1_555
C20B N4B 1_555 1_555
H17B C20B 1_555 1_555
Mo2B O3B 1_555 1_555
Mo3B O14B 1_555 1_555
Mo4B O14B 1_555 1_555
Mo5B O4B 1_555 1_555
Ni3B O22B 1_555 1_555
O7B Mo2B 1_555 1_555
O9B Mo2B 1_555 1_555
O12B Mo3B 1_555 1_555
O13B Mo3B 1_555 1_555
O15B Mo3B 1_555 1_555
O16B Mo4B 1_555 1_555
O17B Mo4B 1_555 1_555
O18B Mo4B 1_555 1_555
O20B Mo5B 1_555 1_555
O21B Mo5B 1_555 1_555
O28B Ni3B 1_555 1_555
O29B Ni3B 1_555 1_555
O30B Ni3B 1_555 1_555
O31B Ni3B 1_555 1_555
O8A Mo2 1_555 1_555
N4C Ni3 1_555 1_555
Ni3C N4 1_555 1_555
Mo2C O8B 1_555 1_555
Ni3A N4B 1_555 1_555
O8C Mo2B 1_555 1_555
N4A Ni3B 1_555 1_555
Mo2 O3 1_555 1_555
Mo3 O10 1_555 1_555
Mo4 O15 1_555 1_555
Mo5 O5 1_555 1_555
Mo5 O19 1_555 1_555
Mo5 O18 1_555 1_555
P1 O10 1_555 1_555
P1 O19 1_555 1_555
P2 O11 1_555 1_555
P2 O14 1_555 1_555
C4 C5 1_555 1_555
C9 C10 1_555 1_555
C12 C13 1_555 1_555
C14 C15 1_555 1_555
C17 C18 1_555 1_555
C19 C20 1_555 1_555
C24 C25 1_555 1_555
C27 C28 1_555 1_555
C29 C30 1_555 1_555
C4B C5B 1_555 1_555
C12B C13B 1_555 1_555
C14B C15B 1_555 1_555
O5B Mo5B 1_555 1_555
O11B Mo2B 1_555 1_555
O10B Mo2B 1_555 1_555
O10B Mo3B 1_555 1_555
O19B Mo4B 1_555 1_555
O19B Mo5B 1_555 1_555
C9B C10B 1_555 1_555
C17B C18B 1_555 1_555
C19B C20B 1_555 1_555
Mo2B Mo3B 1_555 1_555
Mo3B O9B 1_555 1_555
Mo4B O15B 1_555 1_555
Mo5B O18B 1_555 1_555

#END
