
#######################################################################
#
#                 Cambridge Crystallographic Data Centre
#                                CCDC 
#
#######################################################################
#
# If this CIF has been generated from an entry in the Cambridge 
# Structural Database, then it will include bibliographic, chemical, 
# crystal, experimental, refinement or atomic coordinate data resulting 
# from the CCDC's data processing and validation procedures.
#
#######################################################################

data_XUKHUI
_symmetry_cell_setting           monoclinic
_symmetry_space_group_name_H-M   'C 2/c'
_symmetry_Int_Tables_number      15
_space_group_name_Hall           '-C 2yn'
loop_
_symmetry_equiv_pos_site_id
_symmetry_equiv_pos_as_xyz
1 x,y,z
2 -x,y,1/2-z
3 1/2+x,1/2+y,z
4 1/2-x,1/2+y,1/2-z
5 -x,-y,-z
6 x,-y,1/2+z
7 1/2-x,1/2-y,-z
8 1/2+x,1/2-y,1/2+z
_cell_length_a                   21.751(5)
_cell_length_b                   9.389(2)
_cell_length_c                   17.030(4)
_cell_angle_alpha                90
_cell_angle_beta                 109.965(3)
_cell_angle_gamma                90
_cell_volume                     3268.85
loop_
_atom_site_label
_atom_site_type_symbol
_atom_site_fract_x
_atom_site_fract_y
_atom_site_fract_z
C1 C 0.41209(10) 0.8686(2) 0.26501(13)
C2 C 0.36919(9) 0.97173(19) 0.28918(12)
C3 C 0.38994(10) 1.0261(2) 0.36985(12)
H1 H 0.4288 0.9948 0.4093
C4 C 0.35158(10) 1.1282(2) 0.39087(13)
C5 C 0.29297(11) 1.1709(2) 0.33289(14)
H2 H 0.2675 1.2378 0.3481
C6 C 0.27081(10) 1.1155(2) 0.25120(13)
C7 C 0.31041(10) 1.0166(2) 0.22969(13)
H3 H 0.2976 0.9805 0.1756
C8 C 0.18688(11) 1.1182(3) 0.10846(15)
H4 H 0.1408 1.1425 0.0858
H5 H 0.1902 1.0155 0.1051
C9 C 0.22102(11) 1.1853(3) 0.05366(14)
C10 C 0.23769(13) 1.1056(3) -0.00465(15)
H6 H 0.2297 1.0081 -0.0084
C11 C 0.23389(13) 1.3312(3) 0.05744(16)
H7 H 0.2232 1.3870 0.0960
C12 C 0.39128(16) 0.4624(4) 0.2017(2)
H8 H 0.4141 0.5156 0.2512
H9 H 0.3796 0.3706 0.2171
H10 H 0.3524 0.5127 0.1697
C13 C 0.43463(12) 0.4439(3) 0.15037(16)
C14 C 0.48410(19) 0.3051(5) 0.0697(3)
H11 H 0.4863 0.3960 0.0450
H12 H 0.4650 0.2365 0.0264
H13 H 0.5274 0.2749 0.1027
C15 C 0.4169(2) 0.1856(4) 0.1406(3)
H14 H 0.4506 0.1325 0.1814
H15 H 0.4004 0.1315 0.0899
H16 H 0.3819 0.2045 0.1616
C16 C 0.37481(12) 1.1933(3) 0.47691(14)
N1 N 0.21148(10) 1.1590(2) 0.19580(13)
H17 H 0.1876 1.2136 0.2140
N2 N 0.44310(11) 0.3171(2) 0.12423(16)
O1 O 0.39527(9) 0.83706(19) 0.18933(11)
O2 O 0.45952(10) 0.8179(3) 0.32008(12)
O3 O 0.42954(9) 1.1476(2) 0.52605(10)
O4 O 0.34285(13) 1.2852(3) 0.49675(14)
O5 O 0.46238(9) 0.54868(17) 0.13442(13)
Zn1 Zn 0.448557(11) 0.75236(2) 0.130746(14)
C1F C 0.08791(10) 1.6314(2) -0.26501(13)
C2F C 0.13081(9) 1.52827(19) -0.28918(12)
C3F C 0.11006(10) 1.4739(2) -0.36985(12)
H1F H 0.0712 1.5052 -0.4093
C4F C 0.14842(10) 1.3718(2) -0.39087(13)
C5F C 0.20703(11) 1.3291(2) -0.33289(14)
H2F H 0.2325 1.2622 -0.3481
C6F C 0.22919(10) 1.3845(2) -0.25120(13)
C7F C 0.18959(10) 1.4834(2) -0.22969(13)
H3F H 0.2024 1.5195 -0.1756
C8F C 0.31312(11) 1.3818(3) -0.10846(15)
H4F H 0.3592 1.3575 -0.0858
H5F H 0.3098 1.4845 -0.1051
C9F C 0.27898(11) 1.3147(3) -0.05366(14)
C10F C 0.26231(13) 1.3944(3) 0.00465(15)
H6F H 0.2703 1.4919 0.0084
C11F C 0.26611(13) 1.1688(3) -0.05744(16)
H7F H 0.2768 1.1130 -0.0960
N1F N 0.28852(10) 1.3410(2) -0.19580(13)
H17F H 0.3124 1.2864 -0.2140
O1F O 0.10473(9) 1.66294(19) -0.18933(11)
C16F C 0.12519(12) 1.3067(3) -0.47691(14)
O3F O 0.07046(9) 1.3524(2) -0.52605(10)
O4F O 0.15715(13) 1.2148(3) -0.49675(14)
O2F O 0.04048(10) 1.6821(3) -0.32008(12)
C12A C 0.60872(16) 0.4624(4) 0.2983(2)
H8A H 0.5859 0.5156 0.2488
H9A H 0.6204 0.3706 0.2829
H10A H 0.6476 0.5127 0.3303
C13A C 0.56537(12) 0.4439(3) 0.34963(16)
C14A C 0.51590(19) 0.3051(5) 0.4303(3)
H11A H 0.5137 0.3960 0.4550
H12A H 0.5350 0.2365 0.4736
H13A H 0.4726 0.2749 0.3973
C15A C 0.5831(2) 0.1856(4) 0.3594(3)
H14A H 0.5494 0.1325 0.3186
H15A H 0.5996 0.1315 0.4101
H16A H 0.6181 0.2045 0.3384
N2A N 0.55690(11) 0.3171(2) 0.37577(16)
O5A O 0.53762(9) 0.54868(17) 0.36558(13)
Zn1A Zn 0.551443(11) 0.75236(2) 0.369254(14)
O1A O 0.60473(9) 0.83706(19) 0.31067(11)
O2A O 0.54048(10) 0.8179(3) 0.17992(12)
O3D O 0.57046(9) 0.8524(2) 0.47395(10)
O3E O 0.42954(9) 0.8524(2) 0.02605(10)
Zn1C Zn 0.051443(11) 1.25236(2) -0.630746(14)
Zn1E Zn 0.448557(11) 1.24764(2) 0.630746(14)
Zn1F Zn 0.051443(11) 1.74764(2) -0.130746(14)
Zn1G Zn -0.051443(11) 1.74764(2) -0.369254(14)
loop_
_geom_bond_atom_site_label_1
_geom_bond_atom_site_label_2
_geom_bond_site_symmetry_1
_geom_bond_site_symmetry_2
C1 C2 1_555 1_555
C2 C3 1_555 1_555
C3 H1 1_555 1_555
C4 C3 1_555 1_555
C5 C4 1_555 1_555
H2 C5 1_555 1_555
C6 C5 1_555 1_555
C7 C2 1_555 1_555
H3 C7 1_555 1_555
C8 H4 1_555 1_555
H5 C8 1_555 1_555
C9 C8 1_555 1_555
C10 C9 1_555 1_555
H6 C10 1_555 1_555
C11 C9 1_555 1_555
H7 C11 1_555 1_555
C12 H8 1_555 1_555
H9 C12 1_555 1_555
H10 C12 1_555 1_555
C13 C12 1_555 1_555
C14 H11 1_555 1_555
H12 C14 1_555 1_555
H13 C14 1_555 1_555
C15 H14 1_555 1_555
H15 C15 1_555 1_555
H16 C15 1_555 1_555
C16 C4 1_555 1_555
N1 C6 1_555 1_555
H17 N1 1_555 1_555
N2 C13 1_555 1_555
O1 C1 1_555 1_555
O2 C1 1_555 1_555
O3 C16 1_555 1_555
O4 C16 1_555 1_555
O5 C13 1_555 1_555
Zn1 O1 1_555 1_555
C1F C2F 1_555 1_555
C2F C3F 1_555 1_555
C3F H1F 1_555 1_555
C4F C3F 1_555 1_555
C5F C4F 1_555 1_555
H2F C5F 1_555 1_555
C6F C5F 1_555 1_555
C7F C2F 1_555 1_555
H3F C7F 1_555 1_555
C8F H4F 1_555 1_555
H5F C8F 1_555 1_555
C9F C8F 1_555 1_555
C10F C11 1_555 1_555
H6F C10F 1_555 1_555
C11F C10 1_555 1_555
H7F C11F 1_555 1_555
N1F C6F 1_555 1_555
H17F N1F 1_555 1_555
O1F C1F 1_555 1_555
C16F C4F 1_555 1_555
O3F C16F 1_555 1_555
O4F C16F 1_555 1_555
O2F C1F 1_555 1_555
C12A H8A 1_555 1_555
H9A C12A 1_555 1_555
H10A C12A 1_555 1_555
C13A C12A 1_555 1_555
C14A H11A 1_555 1_555
H12A C14A 1_555 1_555
H13A C14A 1_555 1_555
C15A H14A 1_555 1_555
H15A C15A 1_555 1_555
H16A C15A 1_555 1_555
N2A C13A 1_555 1_555
O5A C13A 1_555 1_555
Zn1A O2 1_555 1_555
O1A Zn1A 1_555 1_555
O2A Zn1 1_555 1_555
O3D Zn1A 1_555 1_555
O3E Zn1 1_555 1_555
Zn1C O3F 1_555 1_555
Zn1E O3 1_555 1_555
Zn1F O1F 1_555 1_555
Zn1G O2F 1_555 1_555
C6 C7 1_555 1_555
C8 N1 1_555 1_555
C14 N2 1_555 1_555
C15 N2 1_555 1_555
O5 Zn1 1_555 1_555
C6F C7F 1_555 1_555
C8F N1F 1_555 1_555
C9F C10F 1_555 1_555
C9F C11F 1_555 1_555
C14A N2A 1_555 1_555
C15A N2A 1_555 1_555
O5A Zn1A 1_555 1_555

#END
