
#######################################################################
#
#                 Cambridge Crystallographic Data Centre
#                                CCDC 
#
#######################################################################
#
# If this CIF has been generated from an entry in the Cambridge 
# Structural Database, then it will include bibliographic, chemical, 
# crystal, experimental, refinement or atomic coordinate data resulting 
# from the CCDC's data processing and validation procedures.
#
#######################################################################

data_XUKHAO
_symmetry_cell_setting           monoclinic
_symmetry_space_group_name_H-M   'C 2/c'
_symmetry_Int_Tables_number      15
_space_group_name_Hall           '-C 2yn'
loop_
_symmetry_equiv_pos_site_id
_symmetry_equiv_pos_as_xyz
1 x,y,z
2 -x,y,1/2-z
3 1/2+x,1/2+y,z
4 1/2-x,1/2+y,1/2-z
5 -x,-y,-z
6 x,-y,1/2+z
7 1/2-x,1/2-y,-z
8 1/2+x,1/2-y,1/2+z
_cell_length_a                   21.6630(12)
_cell_length_b                   11.8778(7)
_cell_length_c                   17.8832(10)
_cell_angle_alpha                90
_cell_angle_beta                 95.5150(10)
_cell_angle_gamma                90
_cell_volume                     4580.2
loop_
_atom_site_label
_atom_site_type_symbol
_atom_site_fract_x
_atom_site_fract_y
_atom_site_fract_z
Cd1 Cd 0.416605(9) 0.970077(16) 0.009523(11)
O1 O 0.40337(10) 0.40655(18) -0.09923(12)
O2 O 0.24175(11) 1.1141(2) -0.22609(13)
O3 O 0.58715(9) 0.82615(16) -0.08441(11)
O4 O 0.52044(9) 0.88027(15) -0.00501(10)
O5 O 0.36187(12) 0.1838(2) -0.42549(13)
O6 O 0.43543(13) 0.0777(2) -0.36852(13)
N1 N 0.16838(11) 1.2344(2) -0.18913(14)
H1 H 0.1493(14) 1.259(3) -0.1517(14)
N2 N 0.10588(11) 1.3866(2) -0.39487(13)
N3 N 0.31653(11) 1.0468(2) -0.01484(13)
C1 C 0.43777(14) 0.5043(2) -0.09126(17)
C2 C 0.42806(13) 0.5693(2) -0.02945(16)
H2 H 0.3984 0.5471 0.0035
C3 C 0.46182(13) 0.6665(2) -0.01615(15)
H3 H 0.4554 0.7110 0.0266
C4 C 0.50507(12) 0.7008(2) -0.06394(15)
C5 C 0.51452(14) 0.6333(2) -0.12519(16)
H4 H 0.5447 0.6547 -0.1576
C6 C 0.48095(15) 0.5358(3) -0.13994(18)
H5 H 0.4872 0.4911 -0.1826
C7 C 0.40091(14) 0.3483(3) -0.16697(17)
C8 C 0.36703(17) 0.3888(3) -0.2301(2)
H6 H 0.3462 0.4590 -0.2287
C9 C 0.42996(17) 0.2461(3) -0.16705(19)
H7 H 0.4519 0.2175 -0.1226
C10 C 0.42669(18) 0.1854(3) -0.23318(19)
H8 H 0.4471 0.1147 -0.2339
C11 C 0.39465(15) 0.2247(3) -0.29782(17)
C12 C 0.36353(16) 0.3258(3) -0.29607(19)
H9 H 0.3397 0.3524 -0.3399
C13 C 0.21506(14) 1.1573(3) -0.17608(17)
C14 C 0.14846(13) 1.2818(2) -0.25960(16)
C15 C 0.09791(13) 1.3549(2) -0.26414(16)
H10 H 0.0774 1.3709 -0.2207
C16 C 0.17707(15) 1.2618(3) -0.32481(17)
H11 H 0.2114 1.2120 -0.3246
C17 C 0.15422(14) 1.3162(3) -0.38972(17)
H12 H 0.1742 1.3027 -0.4339
C18 C 0.07785(13) 1.4038(2) -0.33201(16)
H13 H 0.0426 1.4518 -0.3345
C19 C 0.23360(13) 1.1263(2) -0.09631(16)
C20 C 0.19815(14) 1.1375(3) -0.03655(18)
H14 H 0.1576 1.1685 -0.0437
C21 C 0.22281(14) 1.1027(3) 0.03377(18)
H15 H 0.1994 1.1097 0.0758
C22 C 0.29278(13) 1.0803(2) -0.08210(16)
H16 H 0.3174 1.0727 -0.1230
C23 C 0.28156(14) 1.0580(3) 0.04235(17)
H17 H 0.2980 1.0340 0.0909
C24 C 0.54033(12) 0.8080(2) -0.05078(15)
C25 C 0.39710(18) 0.1574(3) -0.36892(18)
Cd1C Cd 0.083395(9) 1.470077(16) -0.509523(11)
Cd1D Cd 0.583395(9) 1.029923(16) -0.009523(11)
Cd1E Cd 0.416605(9) 0.029923(16) -0.490477(11)
O3D O 0.41285(9) 1.17385(16) 0.08441(11)
O4D O 0.47956(9) 1.11973(15) 0.00501(10)
O5E O 0.36187(12) 0.8162(2) 0.07451(13)
O6E O 0.43543(13) 0.9223(2) 0.13148(13)
N2C N 0.39412(11) 0.8866(2) -0.10513(13)
O7 O 0.2749(6) 0.3362(12) -0.4838(9)
loop_
_geom_bond_atom_site_label_1
_geom_bond_atom_site_label_2
_geom_bond_site_symmetry_1
_geom_bond_site_symmetry_2
Cd1 O4 1_555 1_555
O1 C1 1_555 1_555
O2 C13 1_555 1_555
O3 C24 1_555 1_555
O4 C24 1_555 1_555
O5 C25 1_555 1_555
O6 C25 1_555 1_555
N1 H1 1_555 1_555
N2 C17 1_555 1_555
N3 Cd1 1_555 1_555
C1 C2 1_555 1_555
C2 H2 1_555 1_555
C3 C2 1_555 1_555
H3 C3 1_555 1_555
C4 C3 1_555 1_555
C5 C4 1_555 1_555
H4 C5 1_555 1_555
C6 C1 1_555 1_555
H5 C6 1_555 1_555
C7 O1 1_555 1_555
C8 C7 1_555 1_555
H6 C8 1_555 1_555
C9 C7 1_555 1_555
H7 C9 1_555 1_555
C10 C9 1_555 1_555
H8 C10 1_555 1_555
C11 C10 1_555 1_555
C12 C8 1_555 1_555
H9 C12 1_555 1_555
C13 N1 1_555 1_555
C14 N1 1_555 1_555
C15 C14 1_555 1_555
H10 C15 1_555 1_555
C16 C14 1_555 1_555
H11 C16 1_555 1_555
C17 C16 1_555 1_555
H12 C17 1_555 1_555
C18 N2 1_555 1_555
H13 C18 1_555 1_555
C19 C13 1_555 1_555
C20 C19 1_555 1_555
H14 C20 1_555 1_555
C21 C20 1_555 1_555
H15 C21 1_555 1_555
C22 N3 1_555 1_555
H16 C22 1_555 1_555
C23 N3 1_555 1_555
H17 C23 1_555 1_555
C24 C4 1_555 1_555
C25 C11 1_555 1_555
Cd1C N2 1_555 1_555
Cd1D O3 1_555 1_555
Cd1E O5 1_555 1_555
O3D Cd1 1_555 1_555
O4D Cd1 1_555 1_555
O5E Cd1 1_555 1_555
O6E Cd1 1_555 1_555
N2C Cd1 1_555 1_555
O4 Cd1D 1_555 1_555
O6 Cd1E 1_555 1_555
C5 C6 1_555 1_555
C11 C12 1_555 1_555
C15 C18 1_555 1_555
C19 C22 1_555 1_555
C21 C23 1_555 1_555
Cd1D O4D 1_555 1_555

#END
