
#######################################################################
#
#                 Cambridge Crystallographic Data Centre
#                                CCDC 
#
#######################################################################
#
# If this CIF has been generated from an entry in the Cambridge 
# Structural Database, then it will include bibliographic, chemical, 
# crystal, experimental, refinement or atomic coordinate data resulting 
# from the CCDC's data processing and validation procedures.
#
#######################################################################

data_XUKJAQ
_symmetry_cell_setting           orthorhombic
_symmetry_space_group_name_H-M   'P b c n'
_symmetry_Int_Tables_number      60
_space_group_name_Hall           '-P 2n 2ab'
loop_
_symmetry_equiv_pos_site_id
_symmetry_equiv_pos_as_xyz
1 x,y,z
2 1/2-x,1/2-y,1/2+z
3 -x,y,1/2-z
4 1/2+x,1/2-y,-z
5 -x,-y,-z
6 1/2+x,1/2+y,1/2-z
7 x,-y,1/2+z
8 1/2-x,1/2+y,z
_cell_length_a                   15.290(5)
_cell_length_b                   8.223(3)
_cell_length_c                   15.654(6)
_cell_angle_alpha                90
_cell_angle_beta                 90
_cell_angle_gamma                90
_cell_volume                     1968.17
loop_
_atom_site_label
_atom_site_type_symbol
_atom_site_fract_x
_atom_site_fract_y
_atom_site_fract_z
Pb1 Pb 0.22283(2) 0.13742(5) 0.18335(3)
Cl1 Cl 0.18444(19) -0.1172(3) 0.0617(2)
N1 N -0.0636(5) 0.7217(10) 0.1036(5)
O1 O 0.1345(5) 0.4267(10) 0.1998(5)
O2 O 0.0855(5) 0.2235(10) 0.1204(6)
O3 O -0.1298(10) 1.1002(14) 0.1923(8)
O4 O -0.1619(10) 0.8490(12) 0.2270(9)
C1 C 0.0807(8) 0.3624(11) 0.1493(9)
C2 C 0.0022(6) 0.4632(11) 0.1236(6)
C3 C 0.0037(7) 0.6298(12) 0.1313(7)
H1 H 0.0519 0.6800 0.1560
C4 C -0.1343(8) 0.6469(11) 0.0677(8)
H2 H -0.1806 0.7101 0.0482
C5 C -0.1387(8) 0.4842(15) 0.0597(7)
H3 H -0.1881 0.4362 0.0360
C6 C -0.0690(8) 0.3875(12) 0.0869(8)
H4 H -0.0706 0.2751 0.0804
C7 C -0.0629(8) 0.8933(13) 0.1117(8)
H5 H -0.0820 0.9417 0.0583
H6 H -0.0037 0.9296 0.1227
C8 C -0.1221(8) 0.9508(17) 0.1833(6)
Pb1B Pb -0.22283(2) 1.13742(5) 0.31665(3)
Pb1E Pb -0.27717(2) 0.63742(5) 0.31665(3)
Pb1G Pb 0.27717(2) -0.36258(5) 0.18335(3)
Pb1G_2 Pb 0.27717(2) 0.63742(5) 0.18335(3)
Cl1G Cl 0.31556(19) 0.3828(3) 0.0617(2)
O1G O 0.3655(5) -0.0733(10) 0.1998(5)
O3B O 0.1298(10) 0.1002(14) 0.3077(8)
O4B O 0.1619(10) -0.1510(12) 0.2730(9)
O4E O 0.3381(10) 0.3490(12) 0.2730(9)
loop_
_geom_bond_atom_site_label_1
_geom_bond_atom_site_label_2
_geom_bond_site_symmetry_1
_geom_bond_site_symmetry_2
Pb1 Cl1 1_555 1_555
Cl1 Pb1G 1_555 1_555
N1 C3 1_555 1_555
O1 Pb1 1_555 1_555
O2 Pb1 1_555 1_555
O3 C8 1_555 1_555
O4 C8 1_555 1_555
C1 O1 1_555 1_555
C2 C1 1_555 1_555
C3 C2 1_555 1_555
H1 C3 1_555 1_555
C4 N1 1_555 1_555
H2 C4 1_555 1_555
C5 C4 1_555 1_555
H3 C5 1_555 1_555
C6 C2 1_555 1_555
H4 C6 1_555 1_555
C7 N1 1_555 1_555
H5 C7 1_555 1_555
H6 C7 1_555 1_555
C8 C7 1_555 1_555
Pb1B O3 1_555 1_555
Pb1E O4 1_555 1_555
Pb1G O1G 1_555 1_555
Pb1G_2 O1 1_555 1_555
Cl1G Pb1 1_555 1_555
O1G Pb1 1_555 1_555
O3B Pb1 1_555 1_555
O4B Pb1 1_555 1_555
O4E Pb1 1_555 1_555
O2 C1 1_555 1_555
O4 Pb1B 1_555 1_555
C5 C6 1_555 1_555
Pb1G O4B 1_555 1_555
Pb1G_2 Cl1G 1_555 1_555
Pb1G_2 O4E 1_555 1_555

#END
