
#######################################################################
#
#                 Cambridge Crystallographic Data Centre
#                                CCDC 
#
#######################################################################
#
# If this CIF has been generated from an entry in the Cambridge 
# Structural Database, then it will include bibliographic, chemical, 
# crystal, experimental, refinement or atomic coordinate data resulting 
# from the CCDC's data processing and validation procedures.
#
#######################################################################

data_XUKJUK
_symmetry_cell_setting           monoclinic
_symmetry_space_group_name_H-M   'C 2/c'
_symmetry_Int_Tables_number      15
_space_group_name_Hall           '-C 2yn'
loop_
_symmetry_equiv_pos_site_id
_symmetry_equiv_pos_as_xyz
1 x,y,z
2 -x,y,1/2-z
3 1/2+x,1/2+y,z
4 1/2-x,1/2+y,1/2-z
5 -x,-y,-z
6 x,-y,1/2+z
7 1/2-x,1/2-y,-z
8 1/2+x,1/2-y,1/2+z
_cell_length_a                   10.7467(7)
_cell_length_b                   8.8429(5)
_cell_length_c                   23.529(2)
_cell_angle_alpha                90
_cell_angle_beta                 99.0800(10)
_cell_angle_gamma                90
_cell_volume                     2207.99
loop_
_atom_site_label
_atom_site_type_symbol
_atom_site_fract_x
_atom_site_fract_y
_atom_site_fract_z
Pb1 Pb 0.0000 0.44383(6) 0.2500
Pb2 Pb 0.0000 -0.04695(5) 0.2500
O1 O 0.0319(8) 0.1790(8) 0.1908(3)
O2 O -0.0250(9) -0.0178(9) 0.1359(4)
O3 O 0.2575(7) 0.4938(11) 0.2321(4)
O4 O 0.1110(7) 0.6675(8) 0.2203(4)
N1 N 0.1299(8) 0.4192(9) -0.0563(4)
N2 N 0.2138(9) 0.5375(11) -0.0544(4)
N3 N 0.1301(9) 0.4880(11) -0.1457(4)
C1 C 0.2217(9) 0.6227(12) 0.2209(4)
H1 H 0.2807 0.6926 0.2123
C2 C 0.2091(11) 0.5701(13) -0.1086(6)
H2 H 0.2582 0.6465 -0.1208
C3 C 0.0828(11) 0.3911(14) -0.1111(5)
H3 H 0.0252 0.3149 -0.1235
C4 C 0.1036(9) 0.3461(11) -0.0053(4)
C5 C 0.1623(10) 0.3880(11) 0.0482(4)
H4 H 0.2222 0.4647 0.0518
C6 C 0.1341(10) 0.3188(11) 0.0965(5)
H5 H 0.1745 0.3486 0.1326
C7 C 0.0431(10) 0.2015(10) 0.0916(4)
C8 C -0.0134(11) 0.1607(13) 0.0375(5)
H6 H -0.0716 0.0821 0.0336
C9 C 0.0131(11) 0.2328(13) -0.0119(5)
H7 H -0.0285 0.2058 -0.0482
C10 C 0.0144(10) 0.1164(12) 0.1425(5)
O1A O -0.0319(8) 0.1790(8) 0.3092(3)
O2A O 0.0250(9) -0.0178(9) 0.3641(4)
O3A O -0.2575(7) 0.4938(11) 0.2679(4)
O4A O -0.1110(7) 0.6675(8) 0.2797(4)
N1A N -0.1299(8) 0.4192(9) 0.5563(4)
N2A N -0.2138(9) 0.5375(11) 0.5544(4)
N3A N -0.1301(9) 0.4880(11) 0.6457(4)
C1A C -0.2217(9) 0.6227(12) 0.2791(4)
H1A H -0.2807 0.6926 0.2877
C2A C -0.2091(11) 0.5701(13) 0.6086(6)
H2A H -0.2582 0.6465 0.6208
C3A C -0.0828(11) 0.3911(14) 0.6111(5)
H3A H -0.0252 0.3149 0.6235
C4A C -0.1036(9) 0.3461(11) 0.5053(4)
C5A C -0.1623(10) 0.3880(11) 0.4518(4)
H4A H -0.2222 0.4647 0.4482
C6A C -0.1341(10) 0.3188(11) 0.4035(5)
H5A H -0.1745 0.3486 0.3674
C7A C -0.0431(10) 0.2015(10) 0.4084(4)
C8A C 0.0134(11) 0.1607(13) 0.4625(5)
H6A H 0.0716 0.0821 0.4664
C9A C -0.0131(11) 0.2328(13) 0.5119(5)
H7A H 0.0285 0.2058 0.5482
C10A C -0.0144(10) 0.1164(12) 0.3575(5)
Pb1D Pb 0.0000 0.55617(6) -0.2500
Pb1D_2 Pb 0.0000 0.55617(6) 0.7500
Pb2_2 Pb 0.0000 0.95305(5) 0.2500
Pb2B Pb -0.5000 0.45305(5) 0.2500
Pb2B_2 Pb 0.5000 0.45305(5) 0.2500
O3B O -0.2425(7) -0.0062(11) 0.2321(4)
O3C O 0.2425(7) -0.0062(11) 0.2679(4)
O4_2 O 0.1110(7) -0.3325(8) 0.2203(4)
O4A_2 O -0.1110(7) -0.3325(8) 0.2797(4)
N3D N -0.1301(9) 0.5120(11) 0.1457(4)
N3E N 0.1301(9) 0.5120(11) 0.3543(4)
loop_
_geom_bond_atom_site_label_1
_geom_bond_atom_site_label_2
_geom_bond_site_symmetry_1
_geom_bond_site_symmetry_2
Pb1 O1 1_555 1_555
Pb2 O1 1_555 1_555
O1 C10 1_555 1_555
O2 Pb2 1_555 1_555
O3 Pb1 1_555 1_555
O4 Pb1 1_555 1_555
N1 N2 1_555 1_555
N2 C2 1_555 1_555
N3 C2 1_555 1_555
C1 O3 1_555 1_555
H1 C1 1_555 1_555
C2 H2 1_555 1_555
C3 N1 1_555 1_555
H3 C3 1_555 1_555
C4 N1 1_555 1_555
C5 C4 1_555 1_555
H4 C5 1_555 1_555
C6 C5 1_555 1_555
H5 C6 1_555 1_555
C7 C6 1_555 1_555
C8 C7 1_555 1_555
H6 C8 1_555 1_555
C9 C4 1_555 1_555
H7 C9 1_555 1_555
C10 O2 1_555 1_555
O1A Pb1 1_555 1_555
O2A Pb2 1_555 1_555
O3A Pb1 1_555 1_555
O4A Pb1 1_555 1_555
N1A N2A 1_555 1_555
N2A C2A 1_555 1_555
N3A C2A 1_555 1_555
C1A O3A 1_555 1_555
H1A C1A 1_555 1_555
C2A H2A 1_555 1_555
C3A N1A 1_555 1_555
H3A C3A 1_555 1_555
C4A N1A 1_555 1_555
C5A C4A 1_555 1_555
H4A C5A 1_555 1_555
C6A C5A 1_555 1_555
H5A C6A 1_555 1_555
C7A C6A 1_555 1_555
C8A C7A 1_555 1_555
H6A C8A 1_555 1_555
C9A C4A 1_555 1_555
H7A C9A 1_555 1_555
C10A O1A 1_555 1_555
Pb1D N3 1_555 1_555
Pb1D_2 N3A 1_555 1_555
Pb2_2 O4 1_555 1_555
Pb2B O3A 1_555 1_555
Pb2B_2 O3 1_555 1_555
O3B Pb2 1_555 1_555
O3C Pb2 1_555 1_555
O4_2 Pb2 1_555 1_555
O4A_2 Pb2 1_555 1_555
N3D Pb1 1_555 1_555
N3E Pb1 1_555 1_555
Pb2 O1A 1_555 1_555
O4 C1 1_555 1_555
N3 C3 1_555 1_555
C7 C10 1_555 1_555
C8 C9 1_555 1_555
O2A C10A 1_555 1_555
O4A C1A 1_555 1_555
O4A Pb2_2 1_555 1_555
N3A C3A 1_555 1_555
C7A C10A 1_555 1_555
C8A C9A 1_555 1_555

#END
