
#######################################################################
#
#                 Cambridge Crystallographic Data Centre
#                                CCDC 
#
#######################################################################
#
# If this CIF has been generated from an entry in the Cambridge 
# Structural Database, then it will include bibliographic, chemical, 
# crystal, experimental, refinement or atomic coordinate data resulting 
# from the CCDC's data processing and validation procedures.
#
#######################################################################

data_XUKJEU
_symmetry_cell_setting           monoclinic
_symmetry_space_group_name_H-M   'C 2/c'
_symmetry_Int_Tables_number      15
_space_group_name_Hall           '-C 2yn'
loop_
_symmetry_equiv_pos_site_id
_symmetry_equiv_pos_as_xyz
1 x,y,z
2 -x,y,1/2-z
3 1/2+x,1/2+y,z
4 1/2-x,1/2+y,1/2-z
5 -x,-y,-z
6 x,-y,1/2+z
7 1/2-x,1/2-y,-z
8 1/2+x,1/2-y,1/2+z
_cell_length_a                   23.9434(15)
_cell_length_b                   10.6644(7)
_cell_length_c                   15.9543(10)
_cell_angle_alpha                90
_cell_angle_beta                 109.9040(10)
_cell_angle_gamma                90
_cell_volume                     3830.45
loop_
_atom_site_label
_atom_site_type_symbol
_atom_site_fract_x
_atom_site_fract_y
_atom_site_fract_z
Pb1 Pb 0.0000 0.68961(2) 0.2500
Pb2 Pb 0.158059(9) 0.688915(17) 0.431423(13)
Cl1 Cl -0.08898(7) 0.52183(13) 0.24639(9)
O1 O 0.04973(18) 0.6228(4) 0.4194(2)
O2 O -0.01996(17) 0.7614(4) 0.4186(2)
O3 O -0.1457(2) 0.9731(4) 0.6910(4)
O4 O -0.0844(2) 1.1265(4) 0.6848(3)
O5 O 0.16502(19) 0.4524(3) 0.5065(3)
O6 O 0.18383(18) 0.6227(3) 0.5916(3)
O7 O 0.22509(18) -0.1268(3) 0.5211(3)
O8 O 0.13264(18) -0.1255(3) 0.5209(3)
O9 O 0.2048(2) 0.7911(4) 0.3170(3)
H1 H 0.2362 0.8202 0.3552
H2 H 0.2080 0.7234 0.2909
N1 N 0.0043(2) 0.7506(4) 0.5960(3)
N2 N 0.2050(2) 0.2940(3) 0.6416(3)
C1 C 0.0193(3) 0.6875(4) 0.4554(4)
C2 C 0.0377(3) 0.6646(5) 0.5564(4)
H3 H 0.0296 0.5783 0.5674
H4 H 0.0800 0.6791 0.5842
C3 C -0.0404(3) 0.7081(5) 0.6204(4)
H5 H -0.0487 0.6227 0.6179
C4 C -0.0742(2) 0.7911(5) 0.6491(4)
H6 H -0.1049 0.7615 0.6670
C5 C -0.0626(3) 0.9178(5) 0.6514(3)
C6 C -0.0152(3) 0.9599(5) 0.6268(4)
H7 H -0.0059 1.0448 0.6287
C7 C 0.0177(3) 0.8728(5) 0.5996(4)
H8 H 0.0496 0.8994 0.5834
C8 C -0.1014(3) 1.0132(5) 0.6783(4)
C9 C 0.1828(2) 0.5052(5) 0.5798(4)
C10 C 0.2088(3) 0.4275(4) 0.6641(4)
H9 H 0.2500 0.4507 0.6940
H10 H 0.1871 0.4441 0.7044
C11 C 0.2515(3) 0.2352(5) 0.6305(4)
H11 H 0.2878 0.2761 0.6443
C12 C 0.2454(3) 0.1143(5) 0.5989(4)
H12 H 0.2776 0.0739 0.5908
C13 C 0.1923(2) 0.0529(4) 0.5790(3)
C14 C 0.1453(3) 0.1144(5) 0.5929(4)
H13 H 0.1089 0.0743 0.5806
C15 C 0.1529(3) 0.2355(5) 0.6250(4)
H14 H 0.1216 0.2768 0.6351
C16 C 0.1822(3) -0.0773(4) 0.5376(3)
Pb2A Pb -0.158059(9) 0.688915(17) 0.068577(13)
Cl1A Cl 0.08898(7) 0.52183(13) 0.25361(9)
O1A O -0.04973(18) 0.6228(4) 0.0806(2)
O2A O 0.01996(17) 0.7614(4) 0.0814(2)
O3A O 0.1457(2) 0.9731(4) -0.1910(4)
O4A O 0.0844(2) 1.1265(4) -0.1848(3)
O5A O -0.16502(19) 0.4524(3) -0.0065(3)
O6A O -0.18383(18) 0.6227(3) -0.0916(3)
O7A O -0.22509(18) -0.1268(3) -0.0211(3)
O8A O -0.13264(18) -0.1255(3) -0.0209(3)
O9A O -0.2048(2) 0.7911(4) 0.1830(3)
H1A H -0.2362 0.8202 0.1448
H2A H -0.2080 0.7234 0.2091
N1A N -0.0043(2) 0.7506(4) -0.0960(3)
N2A N -0.2050(2) 0.2940(3) -0.1416(3)
C1A C -0.0193(3) 0.6875(4) 0.0446(4)
C2A C -0.0377(3) 0.6646(5) -0.0564(4)
H3A H -0.0296 0.5783 -0.0674
H4A H -0.0800 0.6791 -0.0842
C3A C 0.0404(3) 0.7081(5) -0.1204(4)
H5A H 0.0487 0.6227 -0.1179
C4A C 0.0742(2) 0.7911(5) -0.1491(4)
H6A H 0.1049 0.7615 -0.1670
C5A C 0.0626(3) 0.9178(5) -0.1514(3)
C6A C 0.0152(3) 0.9599(5) -0.1268(4)
H7A H 0.0059 1.0448 -0.1287
C7A C -0.0177(3) 0.8728(5) -0.0996(4)
H8A H -0.0496 0.8994 -0.0834
C8A C 0.1014(3) 1.0132(5) -0.1783(4)
C9A C -0.1828(2) 0.5052(5) -0.0798(4)
C10A C -0.2088(3) 0.4275(4) -0.1641(4)
H9A H -0.2500 0.4507 -0.1940
H10A H -0.1871 0.4441 -0.2044
C11A C -0.2515(3) 0.2352(5) -0.1305(4)
H11A H -0.2878 0.2761 -0.1443
C12A C -0.2454(3) 0.1143(5) -0.0989(4)
H12A H -0.2776 0.0739 -0.0908
C13A C -0.1923(2) 0.0529(4) -0.0790(3)
C14A C -0.1453(3) 0.1144(5) -0.0929(4)
H13A H -0.1089 0.0743 -0.0806
C15A C -0.1529(3) 0.2355(5) -0.1250(4)
H14A H -0.1216 0.2768 -0.1351
C16A C -0.1822(3) -0.0773(4) -0.0376(3)
Pb1D Pb 0.0000 1.31039(2) -0.2500
Pb1D_2 Pb 0.0000 1.31039(2) 0.7500
Pb2_2 Pb 0.158059(9) -0.311085(17) 0.431423(13)
Pb2A_2 Pb -0.158059(9) -0.311085(17) 0.068577(13)
Pb2D Pb -0.158059(9) 1.311085(17) 0.568577(13)
Pb2E Pb 0.158059(9) 1.311085(17) -0.068577(13)
Pb2F Pb 0.341941(9) -0.188915(17) 0.568577(13)
Pb2G Pb -0.341941(9) -0.188915(17) -0.068577(13)
O4D O 0.0844(2) 0.8735(4) 0.3152(3)
O4E O -0.0844(2) 0.8735(4) 0.1848(3)
O7_2 O 0.22509(18) 0.8732(3) 0.5211(3)
O7A_2 O -0.22509(18) 0.8732(3) -0.0211(3)
O7F O 0.27491(18) 0.6268(3) 0.4789(3)
O7G O -0.27491(18) 0.6268(3) 0.0211(3)
O8_2 O 0.13264(18) 0.8745(3) 0.5209(3)
O8A_2 O -0.13264(18) 0.8745(3) -0.0209(3)
loop_
_geom_bond_atom_site_label_1
_geom_bond_atom_site_label_2
_geom_bond_site_symmetry_1
_geom_bond_site_symmetry_2
Pb1 Cl1 1_555 1_555
Pb2 O1 1_555 1_555
O1 Pb1 1_555 1_555
O2 C1 1_555 1_555
O3 C8 1_555 1_555
O4 C8 1_555 1_555
O5 Pb2 1_555 1_555
O6 Pb2 1_555 1_555
O7 C16 1_555 1_555
O8 C16 1_555 1_555
O9 Pb2 1_555 1_555
H1 O9 1_555 1_555
H2 O9 1_555 1_555
N1 C2 1_555 1_555
N2 C10 1_555 1_555
C1 O1 1_555 1_555
C2 C1 1_555 1_555
H3 C2 1_555 1_555
H4 C2 1_555 1_555
C3 N1 1_555 1_555
H5 C3 1_555 1_555
C4 C3 1_555 1_555
H6 C4 1_555 1_555
C5 C4 1_555 1_555
C6 C5 1_555 1_555
H7 C6 1_555 1_555
C7 N1 1_555 1_555
H8 C7 1_555 1_555
C8 C5 1_555 1_555
C9 O5 1_555 1_555
C10 C9 1_555 1_555
H9 C10 1_555 1_555
H10 C10 1_555 1_555
C11 N2 1_555 1_555
H11 C11 1_555 1_555
C12 C11 1_555 1_555
H12 C12 1_555 1_555
C13 C12 1_555 1_555
C14 C13 1_555 1_555
H13 C14 1_555 1_555
C15 N2 1_555 1_555
H14 C15 1_555 1_555
C16 C13 1_555 1_555
Pb2A O1A 1_555 1_555
Cl1A Pb1 1_555 1_555
O1A Pb1 1_555 1_555
O2A C1A 1_555 1_555
O3A C8A 1_555 1_555
O4A C8A 1_555 1_555
O5A Pb2A 1_555 1_555
O6A Pb2A 1_555 1_555
O7A C16A 1_555 1_555
O8A C16A 1_555 1_555
O9A Pb2A 1_555 1_555
H1A O9A 1_555 1_555
H2A O9A 1_555 1_555
N1A C2A 1_555 1_555
N2A C10A 1_555 1_555
C1A O1A 1_555 1_555
C2A C1A 1_555 1_555
H3A C2A 1_555 1_555
H4A C2A 1_555 1_555
C3A N1A 1_555 1_555
H5A C3A 1_555 1_555
C4A C3A 1_555 1_555
H6A C4A 1_555 1_555
C5A C4A 1_555 1_555
C6A C5A 1_555 1_555
H7A C6A 1_555 1_555
C7A N1A 1_555 1_555
H8A C7A 1_555 1_555
C8A C5A 1_555 1_555
C9A O5A 1_555 1_555
C10A C9A 1_555 1_555
H9A C10A 1_555 1_555
H10A C10A 1_555 1_555
C11A N2A 1_555 1_555
H11A C11A 1_555 1_555
C12A C11A 1_555 1_555
H12A C12A 1_555 1_555
C13A C12A 1_555 1_555
C14A C13A 1_555 1_555
H13A C14A 1_555 1_555
C15A N2A 1_555 1_555
H14A C15A 1_555 1_555
C16A C13A 1_555 1_555
Pb1D O4A 1_555 1_555
Pb1D_2 O4 1_555 1_555
Pb2_2 O7 1_555 1_555
Pb2A_2 O7A 1_555 1_555
Pb2D O4 1_555 1_555
Pb2E O4A 1_555 1_555
Pb2F O7 1_555 1_555
Pb2G O7A 1_555 1_555
O4D Pb1 1_555 1_555
O4E Pb1 1_555 1_555
O7_2 Pb2 1_555 1_555
O7A_2 Pb2A 1_555 1_555
O7F Pb2 1_555 1_555
O7G Pb2A 1_555 1_555
O8_2 Pb2 1_555 1_555
O8A_2 Pb2A 1_555 1_555
Pb2 O4D 1_555 1_555
O6 C9 1_555 1_555
O8 Pb2_2 1_555 1_555
C6 C7 1_555 1_555
C14 C15 1_555 1_555
Pb2A O4E 1_555 1_555
O6A C9A 1_555 1_555
O8A Pb2A_2 1_555 1_555
C6A C7A 1_555 1_555
C14A C15A 1_555 1_555

#END
