
#######################################################################
#
#                 Cambridge Crystallographic Data Centre
#                                CCDC 
#
#######################################################################
#
# If this CIF has been generated from an entry in the Cambridge 
# Structural Database, then it will include bibliographic, chemical, 
# crystal, experimental, refinement or atomic coordinate data resulting 
# from the CCDC's data processing and validation procedures.
#
#######################################################################

data_XUKKIZ
_symmetry_cell_setting           orthorhombic
_symmetry_space_group_name_H-M   'P b c a'
_symmetry_Int_Tables_number      61
_space_group_name_Hall           '-P 2ac 2ab'
loop_
_symmetry_equiv_pos_site_id
_symmetry_equiv_pos_as_xyz
1 x,y,z
2 1/2-x,-y,1/2+z
3 -x,1/2+y,1/2-z
4 1/2+x,1/2-y,-z
5 -x,-y,-z
6 1/2+x,y,1/2-z
7 x,1/2-y,1/2+z
8 1/2-x,1/2+y,z
_cell_length_a                   13.613(3)
_cell_length_b                   18.406(3)
_cell_length_c                   19.063(4)
_cell_angle_alpha                90
_cell_angle_beta                 90
_cell_angle_gamma                90
_cell_volume                     4776.44
loop_
_atom_site_label
_atom_site_type_symbol
_atom_site_fract_x
_atom_site_fract_y
_atom_site_fract_z
Sm1 Sm 0.840805(11) 0.011499(13) 0.503149(9)
O1 O 0.95788(19) 0.44039(13) 0.92456(12)
O2 O 0.93208(16) 0.09289(13) 0.57765(13)
O3 O 1.11649(18) 0.43273(14) 0.89961(12)
O4 O 0.75752(19) 0.12470(16) 0.47508(16)
O5 O 1.09168(17) 0.09641(13) 0.55174(13)
O6 O 0.72065(18) 0.03172(16) 0.59528(13)
C1 C 1.0168(2) 0.11834(16) 0.58339(16)
C2 C 1.0292(2) 0.41558(17) 0.88922(15)
C3 C 0.9746(2) 0.25374(17) 0.73105(19)
O7 O 0.7435(3) -0.0123(2) 0.3868(2)
C4 C 1.0786(2) 0.34735(16) 0.78256(16)
H1 H 1.1375 0.3730 0.7834
C5 C 0.9178(2) 0.3232(2) 0.83170(17)
H2 H 0.8691 0.3348 0.8640
C6 C 0.9606(2) 0.19819(19) 0.68201(17)
H3 H 0.9018 0.1725 0.6821
C7 C 1.1210(2) 0.22056(19) 0.63365(16)
H4 H 1.1707 0.2080 0.6025
O8 O 0.6963(2) -0.0736(2) 0.4755(2)
C8 C 1.06243(19) 0.29462(17) 0.73035(14)
C9 C 0.9025(2) 0.2697(2) 0.78391(18)
H5 H 0.8446 0.2430 0.7854
C10 C 0.7114(5) 0.1762(4) 0.5078(2)
C11 C 1.00786(19) 0.36124(16) 0.83229(16)
C12 C 1.0322(2) 0.18066(18) 0.63348(15)
N1 N 0.6237(4) 0.1778(4) 0.5148(3)
C13 C 0.6708(3) 0.0062(3) 0.6444(3)
N2 N 0.6458(4) 0.0413(3) 0.6975(2)
C14 C 1.1348(2) 0.27709(18) 0.67868(16)
H6 H 1.1920 0.3046 0.6758
C15 C 0.5839(5) 0.0200(4) 0.7568(3)
H7 H 0.5605 -0.0287 0.7498
H8 H 0.5290 0.0525 0.7603
H9 H 0.6216 0.0221 0.7994
C16 C 0.5631(5) 0.2302(4) 0.5517(4)
H10 H 0.6040 0.2678 0.5708
H11 H 0.5285 0.2063 0.5890
H12 H 0.5167 0.2512 0.5196
C17 C 0.6868(6) 0.1180(4) 0.7040(5)
H13 H 0.7275 0.1284 0.6641
H14 H 0.7251 0.1217 0.7461
H15 H 0.6335 0.1521 0.7058
C18 C 0.7687(5) 0.2382(3) 0.5377(4)
H16 H 0.7247 0.2713 0.5606
H17 H 0.8027 0.2630 0.5007
H18 H 0.8155 0.2200 0.5711
C19 C 0.5681(4) 0.1124(5) 0.4813(4)
H19 H 0.6144 0.0810 0.4583
H20 H 0.5215 0.1301 0.4476
H21 H 0.5343 0.0858 0.5173
N3 N 0.6909(3) -0.0632(3) 0.4119(2)
O9 O 0.6390(4) -0.0968(4) 0.3725(3)
C20 C 0.6426(5) -0.0733(4) 0.6444(5)
H22 H 0.6653 -0.0957 0.6019
H23 H 0.5725 -0.0777 0.6474
H24 H 0.6722 -0.0971 0.6840
Sm1B Sm 1.159195(11) 0.511499(13) 0.996851(9)
Sm1D Sm 1.159195(11) -0.011499(13) 0.496851(9)
Sm1F Sm 0.840805(11) 0.488501(13) 1.003149(9)
O1F O 0.95788(19) 0.05961(13) 0.42456(12)
O3B O 0.88351(18) -0.06727(14) 0.60039(12)
O5D O 0.90832(17) -0.09641(13) 0.44826(13)
loop_
_geom_bond_atom_site_label_1
_geom_bond_atom_site_label_2
_geom_bond_site_symmetry_1
_geom_bond_site_symmetry_2
Sm1 O2 1_555 1_555
O1 C2 1_555 1_555
O2 C1 1_555 1_555
O3 C2 1_555 1_555
O4 Sm1 1_555 1_555
O5 C1 1_555 1_555
O6 Sm1 1_555 1_555
C1 C12 1_555 1_555
C2 C11 1_555 1_555
C3 C6 1_555 1_555
O7 Sm1 1_555 1_555
C4 H1 1_555 1_555
C5 H2 1_555 1_555
C6 H3 1_555 1_555
C7 H4 1_555 1_555
O8 Sm1 1_555 1_555
C8 C3 1_555 1_555
C9 C3 1_555 1_555
H5 C9 1_555 1_555
C10 O4 1_555 1_555
C11 C4 1_555 1_555
C12 C6 1_555 1_555
N1 C10 1_555 1_555
C13 O6 1_555 1_555
N2 C13 1_555 1_555
C14 C7 1_555 1_555
H6 C14 1_555 1_555
C15 N2 1_555 1_555
H7 C15 1_555 1_555
H8 C15 1_555 1_555
H9 C15 1_555 1_555
C16 N1 1_555 1_555
H10 C16 1_555 1_555
H11 C16 1_555 1_555
H12 C16 1_555 1_555
C17 N2 1_555 1_555
H13 C17 1_555 1_555
H14 C17 1_555 1_555
H15 C17 1_555 1_555
C18 C10 1_555 1_555
H16 C18 1_555 1_555
H17 C18 1_555 1_555
H18 C18 1_555 1_555
C19 N1 1_555 1_555
H19 C19 1_555 1_555
H20 C19 1_555 1_555
H21 C19 1_555 1_555
N3 O7 1_555 1_555
O9 N3 1_555 1_555
C20 C13 1_555 1_555
H22 C20 1_555 1_555
H23 C20 1_555 1_555
H24 C20 1_555 1_555
Sm1B O3 1_555 1_555
Sm1D O5 1_555 1_555
Sm1F O1 1_555 1_555
O1F Sm1 1_555 1_555
O3B Sm1 1_555 1_555
O5D Sm1 1_555 1_555
C4 C8 1_555 1_555
C5 C9 1_555 1_555
C5 C11 1_555 1_555
C7 C12 1_555 1_555
O8 N3 1_555 1_555
C8 C14 1_555 1_555

#END
