
#######################################################################
#
#                 Cambridge Crystallographic Data Centre
#                                CCDC 
#
#######################################################################
#
# If this CIF has been generated from an entry in the Cambridge 
# Structural Database, then it will include bibliographic, chemical, 
# crystal, experimental, refinement or atomic coordinate data resulting 
# from the CCDC's data processing and validation procedures.
#
#######################################################################

data_XUKKAR
_symmetry_cell_setting           orthorhombic
_symmetry_space_group_name_H-M   'P b c a'
_symmetry_Int_Tables_number      61
_space_group_name_Hall           '-P 2ac 2ab'
loop_
_symmetry_equiv_pos_site_id
_symmetry_equiv_pos_as_xyz
1 x,y,z
2 1/2-x,-y,1/2+z
3 1/2+x,1/2-y,-z
4 -x,1/2+y,1/2-z
5 -x,-y,-z
6 1/2+x,y,1/2-z
7 1/2-x,1/2+y,z
8 x,1/2-y,1/2+z
_cell_length_a                   13.235(4)
_cell_length_b                   18.457(6)
_cell_length_c                   19.088(6)
_cell_angle_alpha                90
_cell_angle_beta                 90
_cell_angle_gamma                90
_cell_volume                     4662.79
loop_
_atom_site_label
_atom_site_type_symbol
_atom_site_fract_x
_atom_site_fract_y
_atom_site_fract_z
La1 La -0.161279(13) -0.484954(9) -0.001740(7)
O1 O -0.02480(14) -0.05482(10) -0.42478(10)
O2 O -0.06526(13) -0.40184(10) -0.07787(10)
O3 O -0.29073(14) -0.45771(11) -0.09216(10)
O4 O 0.13635(14) -0.06519(11) -0.39547(10)
C1 C 0.07148(17) -0.19907(13) -0.22574(12)
C2 C 0.02318(19) -0.37719(14) -0.08383(13)
O5 O -0.23624(15) -0.36516(11) 0.02798(11)
O6 O 0.10004(14) -0.40106(10) -0.05242(10)
C3 C 0.08885(17) -0.14558(13) -0.27724(13)
H1 H 0.1487 -0.1192 -0.2763
C4 C 0.14457(17) -0.21687(14) -0.17411(13)
H2 H 0.2031 -0.1893 -0.1702
C5 C -0.3408(2) -0.48392(16) -0.14134(19)
O7 O -0.2628(2) -0.50433(15) 0.11627(14)
C6 C 0.01856(18) -0.13177(13) -0.32893(13)
C7 C 0.12957(18) -0.27430(14) -0.13016(13)
H3 H 0.1797 -0.2870 -0.0983
O8 O -0.31770(17) -0.56731(15) 0.02948(14)
C8 C 0.03946(18) -0.31451(14) -0.13241(12)
C9 C -0.01951(18) -0.23974(14) -0.22889(15)
C10 C -0.03443(19) -0.29635(15) -0.18062(14)
H4 H -0.0949 -0.3220 -0.1811
C11 C 0.04524(19) -0.07991(13) -0.38672(13)
N1 N -0.3196(2) -0.55447(18) 0.09434(17)
N2 N -0.3532(2) -0.44837(15) -0.20017(15)
C12 C -0.4360(3) -0.3738(3) 0.0163(2)
H5 H -0.3919 -0.4049 0.0425
H6 H -0.4704 -0.4017 -0.0189
H7 H -0.4847 -0.3524 0.0473
C13 C -0.4164(3) -0.4735(2) -0.2585(2)
H8 H -0.4438 -0.5203 -0.2475
H9 H -0.3761 -0.4769 -0.3002
H10 H -0.4706 -0.4398 -0.2660
C14 C -0.07353(19) -0.16970(15) -0.32977(14)
H11 H -0.1222 -0.1586 -0.3633
C15 C -0.2199(3) -0.25442(19) -0.0397(2)
H12 H -0.1495 -0.2597 -0.0285
H13 H -0.2444 -0.2094 -0.0212
H14 H -0.2283 -0.2548 -0.0897
N3 N -0.3758(3) -0.3159(2) -0.01787(18)
C16 C -0.2778(4) -0.3154(3) -0.00840(18)
C17 C -0.09202(18) -0.22321(15) -0.28125(14)
H15 H -0.1525 -0.2488 -0.2828
O9 O -0.3749(3) -0.5888(2) 0.13354(18)
C18 C -0.4296(3) -0.2632(2) -0.05973(19)
H16 H -0.3826 -0.2288 -0.0786
H17 H -0.4782 -0.2385 -0.0310
H18 H -0.4638 -0.2874 -0.0974
C19 C -0.3040(3) -0.3777(2) -0.2093(2)
H19 H -0.2635 -0.3671 -0.1689
H20 H -0.3546 -0.3409 -0.2149
H21 H -0.2618 -0.3790 -0.2502
C20 C -0.3898(4) -0.5573(2) -0.1360(2)
H22 H -0.3763 -0.5777 -0.0906
H23 H -0.3629 -0.5886 -0.1715
H24 H -0.4615 -0.5525 -0.1423
La1C La 0.161279(13) 0.015046(9) -0.498260(7)
La1D La 0.161279(13) -0.515046(9) 0.001740(7)
La1G La -0.161279(13) -0.015046(9) -0.501740(7)
O1G O -0.02480(14) -0.44518(10) 0.07522(10)
O4C O -0.13635(14) -0.56519(11) -0.10453(10)
O6D O -0.10004(14) -0.59894(10) 0.05242(10)
loop_
_geom_bond_atom_site_label_1
_geom_bond_atom_site_label_2
_geom_bond_site_symmetry_1
_geom_bond_site_symmetry_2
La1 O2 1_555 1_555
O1 C11 1_555 1_555
O2 C2 1_555 1_555
O3 La1 1_555 1_555
O4 C11 1_555 1_555
C1 C3 1_555 1_555
C2 O6 1_555 1_555
O5 La1 1_555 1_555
O6 La1D 1_555 1_555
C3 H1 1_555 1_555
C4 C1 1_555 1_555
H2 C4 1_555 1_555
C5 O3 1_555 1_555
O7 La1 1_555 1_555
C6 C3 1_555 1_555
C7 C4 1_555 1_555
H3 C7 1_555 1_555
O8 La1 1_555 1_555
C8 C2 1_555 1_555
C9 C1 1_555 1_555
C10 C8 1_555 1_555
H4 C10 1_555 1_555
C11 C6 1_555 1_555
N1 O7 1_555 1_555
N2 C5 1_555 1_555
C12 H5 1_555 1_555
H6 C12 1_555 1_555
H7 C12 1_555 1_555
C13 N2 1_555 1_555
H8 C13 1_555 1_555
H9 C13 1_555 1_555
H10 C13 1_555 1_555
C14 C6 1_555 1_555
H11 C14 1_555 1_555
C15 H12 1_555 1_555
H13 C15 1_555 1_555
H14 C15 1_555 1_555
N3 C12 1_555 1_555
C16 O5 1_555 1_555
C17 C9 1_555 1_555
H15 C17 1_555 1_555
O9 N1 1_555 1_555
C18 N3 1_555 1_555
H16 C18 1_555 1_555
H17 C18 1_555 1_555
H18 C18 1_555 1_555
C19 N2 1_555 1_555
H19 C19 1_555 1_555
H20 C19 1_555 1_555
H21 C19 1_555 1_555
C20 C5 1_555 1_555
H22 C20 1_555 1_555
H23 C20 1_555 1_555
H24 C20 1_555 1_555
La1C O4 1_555 1_555
La1G O1 1_555 1_555
O1G La1 1_555 1_555
O4C La1 1_555 1_555
O6D La1 1_555 1_555
C7 C8 1_555 1_555
O8 N1 1_555 1_555
C9 C10 1_555 1_555
C14 C17 1_555 1_555
C15 C16 1_555 1_555
N3 C16 1_555 1_555

#END
