
#######################################################################
#
#                 Cambridge Crystallographic Data Centre
#                                CCDC 
#
#######################################################################
#
# If this CIF has been generated from an entry in the Cambridge 
# Structural Database, then it will include bibliographic, chemical, 
# crystal, experimental, refinement or atomic coordinate data resulting 
# from the CCDC's data processing and validation procedures.
#
#######################################################################

data_XUKKET
_symmetry_cell_setting           tetragonal
_symmetry_space_group_name_H-M   'I 41/a m d'
_symmetry_Int_Tables_number      141
_space_group_name_Hall           '-I 4bd 2'
loop_
_symmetry_equiv_pos_site_id
_symmetry_equiv_pos_as_xyz
1 x,y,z
2 1/4+y,3/4+x,1/4-z
3 1/4+y,1/4-x,3/4+z
4 1/4-y,3/4+x,1/4+z
5 1/2+x,1/2+y,1/2+z
6 3/4+y,1/4+x,3/4-z
7 3/4+y,3/4-x,1/4+z
8 3/4-y,1/4+x,3/4+z
9 x,1/2+y,-z
10 -x,y,z
11 x,1/2-y,z
12 3/4+y,3/4+x,1/4+z
13 1/2+x,y,1/2-z
14 1/2-x,1/2+y,1/2+z
15 1/2+x,-y,1/2+z
16 1/4+y,1/4+x,3/4+z
17 -x,-y,-z
18 3/4-y,1/4-x,3/4+z
19 3/4-y,3/4+x,1/4-z
20 3/4+y,1/4-x,3/4-z
21 1/2-x,1/2-y,1/2-z
22 1/4-y,3/4-x,1/4+z
23 1/4-y,1/4+x,3/4-z
24 1/4+y,3/4-x,1/4-z
25 -x,1/2-y,z
26 x,-y,-z
27 -x,1/2+y,-z
28 1/4-y,1/4-x,3/4-z
29 1/2-x,-y,1/2+z
30 1/2+x,1/2-y,1/2-z
31 1/2-x,y,1/2-z
32 3/4-y,3/4-x,1/4-z
_cell_length_a                   7.2103(10)
_cell_length_b                   7.2103(10)
_cell_length_c                   10.338(2)
_cell_angle_alpha                90
_cell_angle_beta                 90
_cell_angle_gamma                90
_cell_volume                     537.456
loop_
_atom_site_label
_atom_site_type_symbol
_atom_site_fract_x
_atom_site_fract_y
_atom_site_fract_z
Sr1 Sr 1.0000 0.2500 0.3750
C1 C 1.0000 0.2500 -0.0673(3)
C2 C 1.0000 0.2500 0.0742(3)
O1 O 1.1524(2) 0.2500 0.1311(2)
C1E C 1.0000 0.2500 -0.1827(3)
C2E C 1.0000 0.2500 -0.3242(3)
O1E O 1.0000 0.4024(2) -0.3811(2)
O1S O 1.0000 0.0976(2) -0.3811(2)
O1I O 0.8476(2) 0.2500 0.1311(2)
O1C O 1.0000 -0.0976(2) 0.3811(2)
O1E_2 O 1.0000 0.4024(2) 0.6189(2)
O1F O 1.0000 0.5976(2) 0.3811(2)
O1L O 0.6524(2) 0.2500 0.3689(2)
O1S_2 O 1.0000 0.0976(2) 0.6189(2)
O1T O 1.3476(2) 0.2500 0.3689(2)
Sr1B Sr 1.5000 0.2500 0.1250
Sr1_2 Sr 1.0000 0.2500 -0.6250
Sr1C Sr 1.0000 0.7500 -0.3750
Sr1C_2 Sr 1.0000 -0.2500 -0.3750
Sr1B_2 Sr 0.5000 0.2500 0.1250
loop_
_geom_bond_atom_site_label_1
_geom_bond_atom_site_label_2
_geom_bond_site_symmetry_1
_geom_bond_site_symmetry_2
Sr1 O1 1_555 1_555
C1 C2 1_555 1_555
C2 O1 1_555 1_555
O1 Sr1B 1_555 1_555
C1E C1 1_555 1_555
C2E C1E 1_555 1_555
O1E C2E 1_555 1_555
O1S C2E 1_555 1_555
O1I Sr1 1_555 1_555
O1C Sr1 1_555 1_555
O1E_2 Sr1 1_555 1_555
O1F Sr1 1_555 1_555
O1L Sr1 1_555 1_555
O1S_2 Sr1 1_555 1_555
O1T Sr1 1_555 1_555
Sr1B O1T 1_555 1_555
Sr1_2 O1E 1_555 1_555
Sr1C O1E 1_555 1_555
Sr1C_2 O1S 1_555 1_555
Sr1B_2 O1I 1_555 1_555
C2 O1I 1_555 1_555
O1S Sr1_2 1_555 1_555
O1L Sr1B_2 1_555 1_555

#END
