
#######################################################################
#
#                 Cambridge Crystallographic Data Centre
#                                CCDC 
#
#######################################################################
#
# If this CIF has been generated from an entry in the Cambridge 
# Structural Database, then it will include bibliographic, chemical, 
# crystal, experimental, refinement or atomic coordinate data resulting 
# from the CCDC's data processing and validation procedures.
#
#######################################################################

data_XUKKUL
_symmetry_cell_setting           orthorhombic
_symmetry_space_group_name_H-M   'P b c a'
_symmetry_Int_Tables_number      61
_space_group_name_Hall           '-P 2ac 2ab'
loop_
_symmetry_equiv_pos_site_id
_symmetry_equiv_pos_as_xyz
1 x,y,z
2 1/2-x,-y,1/2+z
3 -x,1/2+y,1/2-z
4 1/2+x,1/2-y,-z
5 -x,-y,-z
6 1/2+x,y,1/2-z
7 x,1/2-y,1/2+z
8 1/2-x,1/2+y,z
_cell_length_a                   13.604(2)
_cell_length_b                   18.227(3)
_cell_length_c                   19.039(3)
_cell_angle_alpha                90
_cell_angle_beta                 90
_cell_angle_gamma                90
_cell_volume                     4720.91
loop_
_atom_site_label
_atom_site_type_symbol
_atom_site_fract_x
_atom_site_fract_y
_atom_site_fract_z
Gd1 Gd 0.158610(11) 0.009066(16) 0.496419(9)
O1 O 0.08803(16) -0.09450(13) 0.55121(13)
C1 C 0.0132(2) -0.11572(17) 0.58381(16)
O2 O -0.04863(17) -0.43865(14) 0.92597(13)
C2 C 0.0231(2) -0.41336(18) 0.89279(15)
C3 C 0.05725(19) -0.29193(16) 0.73221(15)
C4 C 0.1290(2) -0.27611(19) 0.68016(16)
H1 H 0.1858 -0.3044 0.6776
O3 O 0.27483(19) 0.02622(17) 0.40450(14)
C5 C 0.00294(19) -0.35876(17) 0.83534(16)
O4 O 0.2459(2) 0.11785(17) 0.52300(16)
C6 C 0.1156(2) -0.21982(18) 0.63381(16)
H2 H 0.1647 -0.2086 0.6015
C7 C 0.07260(19) -0.34501(17) 0.78511(16)
H3 H 0.1313 -0.3712 0.7858
O5 O 0.11108(16) -0.43011(13) 0.90373(12)
O6 O 0.2513(3) -0.0141(2) 0.6115(2)
O7 O -0.07139(17) -0.09000(14) 0.57729(13)
C8 C -0.0438(2) -0.19427(18) 0.68348(17)
H4 H -0.1021 -0.1675 0.6836
C9 C -0.0872(2) -0.3194(2) 0.83495(17)
H5 H -0.1357 -0.3302 0.8678
C10 C -0.0305(2) -0.24985(16) 0.73313(17)
O8 O 0.2980(2) -0.0766(2) 0.5230(2)
C11 C -0.1022(2) -0.2653(2) 0.78598(17)
H6 H -0.1602 -0.2383 0.7872
C12 C 0.4347(5) 0.1036(5) 0.5200(4)
H7 H 0.3872 0.0715 0.5411
H8 H 0.4798 0.1204 0.5553
H9 H 0.4702 0.0775 0.4843
N1 N 0.3812(5) 0.1705(5) 0.4866(3)
N2 N 0.3028(3) -0.0649(3) 0.5878(2)
O9 O 0.3560(3) -0.1008(4) 0.6256(3)
C13 C 0.4177(6) 0.0133(4) 0.2452(4)
H10 H 0.4323 -0.0379 0.2513
H11 H 0.4778 0.0408 0.2442
H12 H 0.3828 0.0202 0.2019
N3 N 0.3564(3) 0.0389(2) 0.3042(2)
C14 C 0.0274(2) -0.17826(18) 0.63444(16)
C15 C 0.3238(3) -0.0007(2) 0.3558(3)
C16 C 0.3465(4) -0.0828(4) 0.3549(4)
H13 H 0.3183 -0.1056 0.3956
H14 H 0.4164 -0.0899 0.3552
H15 H 0.3191 -0.1044 0.3133
C17 C 0.2959(5) 0.1690(6) 0.4924(3)
C18 C 0.2387(5) 0.2360(3) 0.4620(4)
H16 H 0.2842 0.2694 0.4405
H17 H 0.2045 0.2605 0.4993
H18 H 0.1923 0.2193 0.4276
C19 C 0.4457(5) 0.2254(4) 0.4539(4)
H19 H 0.4065 0.2644 0.4347
H20 H 0.4830 0.2028 0.4171
H21 H 0.4896 0.2450 0.4886
C20 C 0.3242(5) 0.1169(5) 0.3005(4)
H22 H 0.2838 0.1281 0.3405
H23 H 0.2872 0.1246 0.2582
H24 H 0.3808 0.1483 0.3006
Gd1B Gd -0.158610(11) -0.490934(16) 1.003581(9)
Gd1D Gd -0.158610(11) -0.009066(16) 0.503581(9)
Gd1F Gd 0.158610(11) -0.509066(16) 0.996419(9)
O2B O 0.04863(17) 0.06135(14) 0.57403(13)
O5F O 0.11108(16) -0.06989(13) 0.40373(12)
O7D O 0.07139(17) 0.09000(14) 0.42271(13)
loop_
_geom_bond_atom_site_label_1
_geom_bond_atom_site_label_2
_geom_bond_site_symmetry_1
_geom_bond_site_symmetry_2
Gd1 O1 1_555 1_555
O1 C1 1_555 1_555
C1 O7 1_555 1_555
O2 C2 1_555 1_555
C2 C5 1_555 1_555
C3 C4 1_555 1_555
C4 H1 1_555 1_555
O3 Gd1 1_555 1_555
C5 C7 1_555 1_555
O4 Gd1 1_555 1_555
C6 C4 1_555 1_555
H2 C6 1_555 1_555
C7 C3 1_555 1_555
H3 C7 1_555 1_555
O5 C2 1_555 1_555
O6 Gd1 1_555 1_555
O7 Gd1D 1_555 1_555
C8 H4 1_555 1_555
C9 C5 1_555 1_555
H5 C9 1_555 1_555
C10 C3 1_555 1_555
O8 Gd1 1_555 1_555
C11 C9 1_555 1_555
H6 C11 1_555 1_555
C12 H7 1_555 1_555
H8 C12 1_555 1_555
H9 C12 1_555 1_555
N1 C12 1_555 1_555
N2 O6 1_555 1_555
O9 N2 1_555 1_555
C13 H10 1_555 1_555
H11 C13 1_555 1_555
H12 C13 1_555 1_555
N3 C13 1_555 1_555
C14 C1 1_555 1_555
C15 O3 1_555 1_555
C16 C15 1_555 1_555
H13 C16 1_555 1_555
H14 C16 1_555 1_555
H15 C16 1_555 1_555
C17 O4 1_555 1_555
C18 C17 1_555 1_555
H16 C18 1_555 1_555
H17 C18 1_555 1_555
H18 C18 1_555 1_555
C19 N1 1_555 1_555
H19 C19 1_555 1_555
H20 C19 1_555 1_555
H21 C19 1_555 1_555
C20 N3 1_555 1_555
H22 C20 1_555 1_555
H23 C20 1_555 1_555
H24 C20 1_555 1_555
Gd1B O2 1_555 1_555
Gd1F O5 1_555 1_555
O2B Gd1 1_555 1_555
O5F Gd1 1_555 1_555
O7D Gd1 1_555 1_555
C6 C14 1_555 1_555
C8 C10 1_555 1_555
C8 C14 1_555 1_555
C10 C11 1_555 1_555
O8 N2 1_555 1_555
N1 C17 1_555 1_555
N3 C15 1_555 1_555

#END
