
#######################################################################
#
#                 Cambridge Crystallographic Data Centre
#                                CCDC 
#
#######################################################################
#
# If this CIF has been generated from an entry in the Cambridge 
# Structural Database, then it will include bibliographic, chemical, 
# crystal, experimental, refinement or atomic coordinate data resulting 
# from the CCDC's data processing and validation procedures.
#
#######################################################################

data_XUKKOF
_symmetry_cell_setting           orthorhombic
_symmetry_space_group_name_H-M   'P b c a'
_symmetry_Int_Tables_number      61
_space_group_name_Hall           '-P 2ac 2ab'
loop_
_symmetry_equiv_pos_site_id
_symmetry_equiv_pos_as_xyz
1 x,y,z
2 1/2-x,-y,1/2+z
3 1/2+x,1/2-y,-z
4 -x,1/2+y,1/2-z
5 -x,-y,-z
6 1/2+x,y,1/2-z
7 1/2-x,1/2+y,z
8 x,1/2-y,1/2+z
_cell_length_a                   13.315(3)
_cell_length_b                   17.990(4)
_cell_length_c                   19.224(5)
_cell_angle_alpha                90
_cell_angle_beta                 90
_cell_angle_gamma                90
_cell_volume                     4604.86
loop_
_atom_site_label
_atom_site_type_symbol
_atom_site_fract_x
_atom_site_fract_y
_atom_site_fract_z
Eu1 Eu -0.661572(11) -0.990508(15) 0.002676(7)
O1 O -0.58991(13) -1.09779(10) -0.04947(10)
O2 O -0.75226(18) -1.01332(13) -0.11261(14)
O3 O -0.45522(13) -1.44051(11) -0.42646(10)
C1 C -0.50491(16) -1.36015(14) -0.33508(14)
C2 C -0.63032(17) -1.28082(15) -0.17811(13)
H1 H -0.6875 -1.3103 -0.1751
O4 O -0.61821(13) -1.42955(11) -0.40345(10)
C3 C -0.41311(18) -1.31951(15) -0.33511(13)
H2 H -0.3646 -1.3288 -0.3688
O5 O -0.78262(14) -0.97097(12) 0.09325(10)
C4 C -0.45443(17) -1.19617(15) -0.18199(13)
H3 H -0.3951 -1.1689 -0.1817
C5 C -0.51370(18) -1.11814(15) -0.08271(14)
C6 C -0.61640(17) -1.22415(14) -0.13207(13)
H4 H -0.6661 -1.2134 -0.0996
O6 O -0.80563(14) -1.07636(13) -0.02515(12)
O7 O -0.42681(13) -1.09089(11) -0.07699(10)
O8 O -0.74625(14) -0.87750(12) -0.02418(12)
C7 C -0.55792(16) -1.29517(14) -0.23075(13)
C8 C -0.7472(2) -0.75978(17) 0.0414(2)
H5 H -0.7966 -0.7278 0.0622
H6 H -0.7103 -0.7326 0.0068
H7 H -0.7018 -0.7772 0.0767
C9 C -0.82815(19) -0.99909(16) 0.14418(19)
N1 N -0.8574(2) -0.95659(15) 0.19618(14)
C10 C -0.52714(17) -1.18155(15) -0.13316(13)
C11 C -0.46845(18) -1.25221(14) -0.23280(15)
C12 C -0.9387(2) -0.9006(2) -0.0229(2)
H8 H -0.8868 -0.9322 -0.0410
H9 H -0.9820 -0.8851 -0.0601
H10 H -0.9771 -0.9274 0.0111
C13 C -0.57520(16) -1.34808(14) -0.28361(13)
H11 H -0.6347 -1.3751 -0.2837
C14 C -0.52750(19) -1.41395(15) -0.39243(14)
N2 N -0.80818(18) -1.06438(16) -0.09025(14)
C15 C -0.9181(3) -0.9834(2) 0.2548(2)
H12 H -0.9298 -1.0358 0.2497
H13 H -0.9813 -0.9576 0.2554
H14 H -0.8831 -0.9743 0.2976
C16 C -0.39681(16) -1.26658(15) -0.28517(13)
H15 H -0.3373 -1.2395 -0.2858
C17 C -0.8342(3) -0.8778(2) 0.1973(2)
H16 H -0.7950 -0.8652 0.1570
H17 H -0.7967 -0.8663 0.2385
H18 H -0.8955 -0.8497 0.1970
N3 N -0.8909(3) -0.8317(3) 0.01134(17)
C18 C -0.9582(3) -0.7767(2) 0.0442(2)
H19 H -0.9190 -0.7370 0.0635
H20 H -0.9960 -0.8003 0.0805
H21 H -1.0035 -0.7571 0.0099
C19 C -0.8491(2) -1.0808(2) 0.1465(2)
H22 H -0.8230 -1.1039 0.1053
H23 H -0.9203 -1.0888 0.1490
H24 H -0.8175 -1.1020 0.1867
O9 O -0.8618(2) -1.1005(2) -0.12880(16)
C20 C -0.7986(4) -0.8251(4) 0.00795(17)
Eu1C Eu -0.338428(11) -1.490508(15) -0.502676(7)
Eu1D Eu -0.338428(11) -1.009492(15) -0.002676(7)
Eu1G Eu -0.661572(11) -1.509492(15) -0.497324(7)
O3C O -0.54478(13) -0.94051(11) -0.07354(10)
O4G O -0.61821(13) -1.07045(11) 0.09655(10)
O7D O -0.57319(13) -0.90911(11) 0.07699(10)
loop_
_geom_bond_atom_site_label_1
_geom_bond_atom_site_label_2
_geom_bond_site_symmetry_1
_geom_bond_site_symmetry_2
Eu1 O1 1_555 1_555
O1 C5 1_555 1_555
O2 Eu1 1_555 1_555
O3 C14 1_555 1_555
C1 C3 1_555 1_555
C2 H1 1_555 1_555
O4 C14 1_555 1_555
C3 H2 1_555 1_555
O5 Eu1 1_555 1_555
C4 H3 1_555 1_555
C5 O7 1_555 1_555
C6 C2 1_555 1_555
H4 C6 1_555 1_555
O6 Eu1 1_555 1_555
O7 Eu1D 1_555 1_555
O8 Eu1 1_555 1_555
C7 C2 1_555 1_555
C8 H5 1_555 1_555
H6 C8 1_555 1_555
H7 C8 1_555 1_555
C9 O5 1_555 1_555
N1 C9 1_555 1_555
C10 C4 1_555 1_555
C11 C4 1_555 1_555
C12 H8 1_555 1_555
H9 C12 1_555 1_555
H10 C12 1_555 1_555
C13 C1 1_555 1_555
H11 C13 1_555 1_555
C14 C1 1_555 1_555
N2 O2 1_555 1_555
C15 N1 1_555 1_555
H12 C15 1_555 1_555
H13 C15 1_555 1_555
H14 C15 1_555 1_555
C16 C3 1_555 1_555
H15 C16 1_555 1_555
C17 N1 1_555 1_555
H16 C17 1_555 1_555
H17 C17 1_555 1_555
H18 C17 1_555 1_555
N3 C12 1_555 1_555
C18 N3 1_555 1_555
H19 C18 1_555 1_555
H20 C18 1_555 1_555
H21 C18 1_555 1_555
C19 C9 1_555 1_555
H22 C19 1_555 1_555
H23 C19 1_555 1_555
H24 C19 1_555 1_555
O9 N2 1_555 1_555
C20 O8 1_555 1_555
Eu1C O3 1_555 1_555
Eu1G O4 1_555 1_555
O3C Eu1 1_555 1_555
O4G Eu1 1_555 1_555
O7D Eu1 1_555 1_555
C5 C10 1_555 1_555
C6 C10 1_555 1_555
O6 N2 1_555 1_555
C7 C11 1_555 1_555
C7 C13 1_555 1_555
C8 C20 1_555 1_555
C11 C16 1_555 1_555
N3 C20 1_555 1_555

#END
