
#######################################################################
#
#                 Cambridge Crystallographic Data Centre
#                                CCDC 
#
#######################################################################
#
# If this CIF has been generated from an entry in the Cambridge 
# Structural Database, then it will include bibliographic, chemical, 
# crystal, experimental, refinement or atomic coordinate data resulting 
# from the CCDC's data processing and validation procedures.
#
#######################################################################

data_XUKLAS
_symmetry_cell_setting           triclinic
_symmetry_space_group_name_H-M   'P -1'
_symmetry_Int_Tables_number      2
_space_group_name_Hall           '-P 1'
loop_
_symmetry_equiv_pos_site_id
_symmetry_equiv_pos_as_xyz
1 x,y,z
2 -x,-y,-z
_cell_length_a                   7.3284(8)
_cell_length_b                   16.1379(17)
_cell_length_c                   16.3532(19)
_cell_angle_alpha                111.241(7)
_cell_angle_beta                 92.752(8)
_cell_angle_gamma                98.743(7)
_cell_volume                     1770.49
loop_
_atom_site_label
_atom_site_type_symbol
_atom_site_fract_x
_atom_site_fract_y
_atom_site_fract_z
Zn1 Zn 0.86526(4) 0.45031(2) 0.27160(2)
O1 O 0.7085(3) 0.3319(2) 0.31971(19)
O2 O 0.5905(3) 0.41047(16) 0.25439(17)
O3 O -0.0854(3) 0.35170(15) 0.15726(14)
O4 O 0.9395(3) 0.55225(15) 0.23108(16)
O5 O 0.8422(4) 0.61347(18) 0.36043(19)
O6 O -0.1887(3) 0.20510(15) 0.09298(16)
O7 O 1.3022(4) 0.8664(2) 0.1257(2)
O8 O 1.1943(5) 0.7230(2) 0.0692(2)
C1 C 0.5741(4) 0.3484(2) 0.2846(2)
C2 C 0.3821(4) 0.2940(2) 0.2741(2)
C3 C 0.2433(4) 0.3039(2) 0.2199(2)
H1 H 0.2703 0.3453 0.1927
C4 C 0.0653(4) 0.2541(2) 0.2049(2)
C5 C 0.0319(4) 0.1915(2) 0.2460(2)
C6 C -0.1527(5) 0.1302(2) 0.2334(3)
H2 H -0.1448 0.0924 0.2668
H3 H -0.1842 0.0930 0.1719
H4 H -0.2467 0.1660 0.2533
C7 C 0.3335(4) 0.2338(2) 0.3168(2)
C8 C 0.4600(5) 0.2209(3) 0.3849(3)
H5 H 0.3959 0.1762 0.4044
H6 H 0.4963 0.2771 0.4343
H7 H 0.5686 0.2012 0.3593
C9 C 1.0947(4) 0.4282(2) 0.4174(2)
H8 H 0.9878 0.3900 0.4194
C10 C 1.2501(4) 0.4386(2) 0.4729(2)
H9 H 1.2465 0.4083 0.5118
C11 C 1.4149(4) 0.49496(19) 0.47116(19)
C12 C 1.4070(4) 0.5382(2) 0.4126(2)
H10 H 1.5118 0.5768 0.4091
C13 C 1.2465(4) 0.5249(2) 0.3594(2)
H11 H 1.2460 0.5550 0.3205
C14 C 0.9228(4) 0.6208(2) 0.2985(2)
C15 C 1.0128(5) 0.7118(2) 0.3000(2)
C16 C 1.0535(6) 0.7899(3) 0.3763(3)
C17 C 1.0304(9) 0.7928(3) 0.4684(3)
H12 H 1.0659 0.8539 0.5099
H13 H 1.1078 0.7556 0.4823
H14 H 0.9029 0.7706 0.4717
C18 C 1.1713(6) 0.8755(3) 0.2959(3)
C19 C 1.2437(9) 0.9706(3) 0.3009(4)
H15 H 1.2460 1.0126 0.3603
H16 H 1.1638 0.9854 0.2619
H17 H 1.3671 0.9740 0.2836
C20 C 1.1501(5) 0.7984(2) 0.2172(2)
C21 C 1.0666(4) 0.7175(2) 0.2220(2)
H18 H 1.0461 0.6654 0.1711
C22 C 1.2201(5) 0.7979(3) 0.1331(3)
C23 C -0.0791(4) 0.2714(2) 0.1486(2)
N1 N 1.0893(3) 0.47003(17) 0.36066(17)
N2 N 0.1623(4) 0.18389(18) 0.30134(19)
N3 N 1.1294(5) 0.8698(2) 0.3723(3)
Zn2 Zn -0.35008(5) 0.24052(3) 0.01440(3)
O9 O -0.4980(3) 0.33976(18) 0.03682(18)
C24 C -0.5955(5) 0.0974(2) 0.0557(3)
H19 H -0.4884 0.0993 0.0897
C25 C -0.7521(5) 0.0371(3) 0.0531(3)
H20 H -0.7493 -0.0005 0.0846
C26 C -0.9144(4) 0.0326(2) 0.0031(2)
C27 C -0.9071(5) 0.0917(2) -0.0405(3)
H21 H -1.0129 0.0924 -0.0739
C28 C -0.7452(5) 0.1494(3) -0.0349(3)
H22 H -0.7445 0.1880 -0.0656
C29 C -0.4644(5) 0.4212(3) 0.0798(3)
H23 H -0.3454 0.4467 0.1088
C30 C -0.7735(7) 0.4397(4) 0.0430(4)
H24 H -0.7854 0.3763 0.0087
H25 H -0.7984 0.4709 0.0048
H26 H -0.8606 0.4485 0.0860
C31 C -0.5377(9) 0.5706(3) 0.1441(4)
H27 H -0.4103 0.5843 0.1690
H28 H -0.6164 0.5838 0.1907
H29 H -0.5544 0.6067 0.1098
N4 N -0.5890(3) 0.15311(18) 0.0121(2)
N5 N -0.5862(5) 0.4749(2) 0.0875(2)
C9A C 1.9053(4) 0.5718(2) 0.5826(2)
H8A H 2.0122 0.6100 0.5806
C10A C 1.7499(4) 0.5614(2) 0.5271(2)
H9A H 1.7535 0.5917 0.4882
C11A C 1.5851(4) 0.50504(19) 0.52884(19)
C12A C 1.5930(4) 0.4618(2) 0.5874(2)
H10A H 1.4882 0.4232 0.5909
C13A C 1.7535(4) 0.4751(2) 0.6406(2)
H11A H 1.7540 0.4450 0.6795
N1A N 1.9107(3) 0.52997(17) 0.63934(17)
C24A C -1.4045(5) -0.0974(2) -0.0557(3)
H19A H -1.5116 -0.0993 -0.0897
C25A C -1.2479(5) -0.0371(3) -0.0531(3)
H20A H -1.2507 0.0005 -0.0846
C26A C -1.0856(4) -0.0326(2) -0.0031(2)
C27A C -1.0929(5) -0.0917(2) 0.0405(3)
H21A H -0.9871 -0.0924 0.0739
C28A C -1.2548(5) -0.1494(3) 0.0349(3)
H22A H -1.2555 -0.1880 0.0656
N4A N -1.4110(3) -0.15311(18) -0.0121(2)
Zn1A Zn -2.86526(4) -0.45031(2) -0.27160(2)
O1A O -2.7085(3) -0.3319(2) -0.31971(19)
O2A O -2.5905(3) -0.41047(16) -0.25439(17)
O3A O -1.9146(3) -0.35170(15) -0.15726(14)
O4A O -2.9395(3) -0.55225(15) -0.23108(16)
O5A O -2.8422(4) -0.61347(18) -0.36043(19)
O6A O -1.8113(3) -0.20510(15) -0.09298(16)
O7A O -3.3022(4) -0.8664(2) -0.1257(2)
O8A O -3.1943(5) -0.7230(2) -0.0692(2)
C1A C -2.5741(4) -0.3484(2) -0.2846(2)
C2A C -2.3821(4) -0.2940(2) -0.2741(2)
C3A C -2.2433(4) -0.3039(2) -0.2199(2)
H1A H -2.2703 -0.3453 -0.1927
C4A C -2.0653(4) -0.2541(2) -0.2049(2)
C5A C -2.0319(4) -0.1915(2) -0.2460(2)
C6A C -1.8473(5) -0.1302(2) -0.2334(3)
H2A H -1.8552 -0.0924 -0.2668
H3A H -1.8158 -0.0930 -0.1719
H4A H -1.7533 -0.1660 -0.2533
C7A C -2.3335(4) -0.2338(2) -0.3168(2)
C8A C -2.4600(5) -0.2209(3) -0.3849(3)
H5A H -2.3959 -0.1762 -0.4044
H6A H -2.4963 -0.2771 -0.4343
H7A H -2.5686 -0.2012 -0.3593
C14A C -2.9228(4) -0.6208(2) -0.2985(2)
C15A C -3.0128(5) -0.7118(2) -0.3000(2)
C16A C -3.0535(6) -0.7899(3) -0.3763(3)
C17A C -3.0304(9) -0.7928(3) -0.4684(3)
H12A H -3.0659 -0.8539 -0.5099
H13A H -3.1078 -0.7556 -0.4823
H14A H -2.9029 -0.7706 -0.4717
C18A C -3.1713(6) -0.8755(3) -0.2959(3)
C19A C -3.2437(9) -0.9706(3) -0.3009(4)
H15A H -3.2460 -1.0126 -0.3603
H16A H -3.1638 -0.9854 -0.2619
H17A H -3.3671 -0.9740 -0.2836
C20A C -3.1501(5) -0.7984(2) -0.2172(2)
C21A C -3.0666(4) -0.7175(2) -0.2220(2)
H18A H -3.0461 -0.6654 -0.1711
C22A C -3.2201(5) -0.7979(3) -0.1331(3)
C23A C -1.9209(4) -0.2714(2) -0.1486(2)
N2A N -2.1623(4) -0.18389(18) -0.30134(19)
N3A N -3.1294(5) -0.8698(2) -0.3723(3)
Zn2A Zn -1.64992(5) -0.24052(3) -0.01440(3)
O9A O -1.5020(3) -0.33976(18) -0.03682(18)
C29A C -1.5356(5) -0.4212(3) -0.0798(3)
H23A H -1.6546 -0.4467 -0.1088
C30A C -1.2265(7) -0.4397(4) -0.0430(4)
H24A H -1.2146 -0.3763 -0.0087
H25A H -1.2016 -0.4709 -0.0048
H26A H -1.1394 -0.4485 -0.0860
C31A C -1.4623(9) -0.5706(3) -0.1441(4)
H27A H -1.5897 -0.5843 -0.1690
H28A H -1.3836 -0.5838 -0.1907
H29A H -1.4456 -0.6067 -0.1098
N5A N -1.4138(5) -0.4749(2) -0.0875(2)
Zn1_2 Zn -0.13474(4) 0.45031(2) 0.27160(2)
Zn1A_2 Zn -1.86526(4) -0.45031(2) -0.27160(2)
Zn1A_3 Zn 2.13474(4) 0.54969(2) 0.72840(2)
O3_2 O 0.9146(3) 0.35170(15) 0.15726(14)
O3A_2 O -2.9146(3) -0.35170(15) -0.15726(14)
O7_2 O -1.6978(4) -0.1336(2) 0.1257(2)
O7A_2 O -0.3022(4) 0.1336(2) -0.1257(2)
O8_2 O -1.8057(5) -0.2770(2) 0.0692(2)
O8A_2 O -0.1943(5) 0.2770(2) -0.0692(2)
N1A_2 N -3.0893(3) -0.47003(17) -0.36066(17)
Zn2_2 Zn -3.35008(5) -0.75948(3) 0.01440(3)
Zn2A_2 Zn 1.35008(5) 0.75948(3) -0.01440(3)
O10 O 0.6385(10) 0.7785(6) 0.2046(6)
C32 C 0.6739(14) 0.8522(7) 0.2684(7)
H30 H 0.7311 0.9020 0.2574
C33 C 0.7081(14) 0.9540(6) 0.4110(7)
H31 H 0.7627 0.9914 0.3811
H32 H 0.8006 0.9512 0.4531
H33 H 0.6083 0.9791 0.4410
C34 C 0.5332(12) 0.7771(8) 0.3648(6)
H34 H 0.4974 0.7279 0.3090
H35 H 0.4245 0.7909 0.3938
H36 H 0.6157 0.7603 0.4011
N6 N 0.6387(8) 0.8661(4) 0.3489(4)
loop_
_geom_bond_atom_site_label_1
_geom_bond_atom_site_label_2
_geom_bond_site_symmetry_1
_geom_bond_site_symmetry_2
Zn1 O1 1_555 1_555
O1 C1 1_555 1_555
O2 Zn1 1_555 1_555
O3 C23 1_555 1_555
O4 Zn1 1_555 1_555
O5 Zn1 1_555 1_555
O6 C23 1_555 1_555
O7 C22 1_555 1_555
O8 C22 1_555 1_555
C1 O2 1_555 1_555
C2 C1 1_555 1_555
C3 C2 1_555 1_555
H1 C3 1_555 1_555
C4 C3 1_555 1_555
C5 C4 1_555 1_555
C6 C5 1_555 1_555
H2 C6 1_555 1_555
H3 C6 1_555 1_555
H4 C6 1_555 1_555
C7 C2 1_555 1_555
C8 C7 1_555 1_555
H5 C8 1_555 1_555
H6 C8 1_555 1_555
H7 C8 1_555 1_555
C9 H8 1_555 1_555
C10 C9 1_555 1_555
H9 C10 1_555 1_555
C11 C10 1_555 1_555
C12 C11 1_555 1_555
H10 C12 1_555 1_555
C13 C12 1_555 1_555
H11 C13 1_555 1_555
C14 O4 1_555 1_555
C15 C14 1_555 1_555
C16 C15 1_555 1_555
C17 C16 1_555 1_555
H12 C17 1_555 1_555
H13 C17 1_555 1_555
H14 C17 1_555 1_555
C18 C19 1_555 1_555
C19 H15 1_555 1_555
H16 C19 1_555 1_555
H17 C19 1_555 1_555
C20 C18 1_555 1_555
C21 C15 1_555 1_555
H18 C21 1_555 1_555
C22 C20 1_555 1_555
C23 C4 1_555 1_555
N1 Zn1 1_555 1_555
N2 C5 1_555 1_555
N3 C16 1_555 1_555
Zn2 O6 1_555 1_555
O9 Zn2 1_555 1_555
C24 H19 1_555 1_555
C25 C24 1_555 1_555
H20 C25 1_555 1_555
C26 C25 1_555 1_555
C27 C26 1_555 1_555
H21 C27 1_555 1_555
C28 C27 1_555 1_555
H22 C28 1_555 1_555
C29 O9 1_555 1_555
H23 C29 1_555 1_555
C30 H24 1_555 1_555
H25 C30 1_555 1_555
H26 C30 1_555 1_555
C31 H27 1_555 1_555
H28 C31 1_555 1_555
H29 C31 1_555 1_555
N4 Zn2 1_555 1_555
N5 C29 1_555 1_555
O10 C32 1_555 1_555
C32 H30 1_555 1_555
C33 H31 1_555 1_555
H32 C33 1_555 1_555
H33 C33 1_555 1_555
C34 H34 1_555 1_555
H35 C34 1_555 1_555
H36 C34 1_555 1_555
N6 C32 1_555 1_555
C9A H8A 1_555 1_555
C10A C9A 1_555 1_555
H9A C10A 1_555 1_555
C11A C11 1_555 1_555
C12A C11A 1_555 1_555
H10A C12A 1_555 1_555
C13A C12A 1_555 1_555
H11A C13A 1_555 1_555
N1A C9A 1_555 1_555
C24A H19A 1_555 1_555
C25A C24A 1_555 1_555
H20A C25A 1_555 1_555
C26A C26 1_555 1_555
C27A C26A 1_555 1_555
H21A C27A 1_555 1_555
C28A C27A 1_555 1_555
H22A C28A 1_555 1_555
N4A C24A 1_555 1_555
Zn1A O1A 1_555 1_555
O1A C1A 1_555 1_555
O2A Zn1A 1_555 1_555
O3A C23A 1_555 1_555
O4A Zn1A 1_555 1_555
O5A Zn1A 1_555 1_555
O6A C23A 1_555 1_555
O7A C22A 1_555 1_555
O8A C22A 1_555 1_555
C1A O2A 1_555 1_555
C2A C1A 1_555 1_555
C3A C2A 1_555 1_555
H1A C3A 1_555 1_555
C4A C3A 1_555 1_555
C5A C4A 1_555 1_555
C6A C5A 1_555 1_555
H2A C6A 1_555 1_555
H3A C6A 1_555 1_555
H4A C6A 1_555 1_555
C7A C2A 1_555 1_555
C8A C7A 1_555 1_555
H5A C8A 1_555 1_555
H6A C8A 1_555 1_555
H7A C8A 1_555 1_555
C14A O4A 1_555 1_555
C15A C14A 1_555 1_555
C16A C15A 1_555 1_555
C17A C16A 1_555 1_555
H12A C17A 1_555 1_555
H13A C17A 1_555 1_555
H14A C17A 1_555 1_555
C18A C19A 1_555 1_555
C19A H15A 1_555 1_555
H16A C19A 1_555 1_555
H17A C19A 1_555 1_555
C20A C18A 1_555 1_555
C21A C15A 1_555 1_555
H18A C21A 1_555 1_555
C22A C20A 1_555 1_555
C23A C4A 1_555 1_555
N2A C5A 1_555 1_555
N3A C16A 1_555 1_555
Zn2A N4A 1_555 1_555
O9A Zn2A 1_555 1_555
C29A O9A 1_555 1_555
H23A C29A 1_555 1_555
C30A H24A 1_555 1_555
H25A C30A 1_555 1_555
H26A C30A 1_555 1_555
C31A H27A 1_555 1_555
H28A C31A 1_555 1_555
H29A C31A 1_555 1_555
N5A C29A 1_555 1_555
Zn1_2 O3 1_555 1_555
Zn1A_2 O3A 1_555 1_555
Zn1A_3 N1A 1_555 1_555
O3_2 Zn1 1_555 1_555
O3A_2 Zn1A 1_555 1_555
O7_2 Zn2A 1_555 1_555
O7A_2 Zn2 1_555 1_555
O8_2 Zn2A 1_555 1_555
O8A_2 Zn2 1_555 1_555
N1A_2 Zn1A 1_555 1_555
Zn2_2 O7A 1_555 1_555
Zn2A_2 O7 1_555 1_555
O5 C14 1_555 1_555
O8 Zn2A_2 1_555 1_555
C7 N2 1_555 1_555
C9 N1 1_555 1_555
C13 N1 1_555 1_555
C18 N3 1_555 1_555
C20 C21 1_555 1_555
C24 N4 1_555 1_555
C28 N4 1_555 1_555
C30 N5 1_555 1_555
C31 N5 1_555 1_555
C33 N6 1_555 1_555
C34 N6 1_555 1_555
C10A C11A 1_555 1_555
C13A N1A 1_555 1_555
C25A C26A 1_555 1_555
C28A N4A 1_555 1_555
O5A C14A 1_555 1_555
O6A Zn2A 1_555 1_555
O8A Zn2_2 1_555 1_555
C7A N2A 1_555 1_555
C18A N3A 1_555 1_555
C20A C21A 1_555 1_555
C30A N5A 1_555 1_555
C31A N5A 1_555 1_555

#END
