
#######################################################################
#
#                 Cambridge Crystallographic Data Centre
#                                CCDC 
#
#######################################################################
#
# If this CIF has been generated from an entry in the Cambridge 
# Structural Database, then it will include bibliographic, chemical, 
# crystal, experimental, refinement or atomic coordinate data resulting 
# from the CCDC's data processing and validation procedures.
#
#######################################################################

data_XUKLIA
_symmetry_cell_setting           monoclinic
_symmetry_space_group_name_H-M   'C 2/c'
_symmetry_Int_Tables_number      15
_space_group_name_Hall           '-C 2yn'
loop_
_symmetry_equiv_pos_site_id
_symmetry_equiv_pos_as_xyz
1 x,y,z
2 -x,y,1/2-z
3 1/2+x,1/2+y,z
4 1/2-x,1/2+y,1/2-z
5 -x,-y,-z
6 x,-y,1/2+z
7 1/2-x,1/2-y,-z
8 1/2+x,1/2-y,1/2+z
_cell_length_a                   37.590(3)
_cell_length_b                   13.6440(11)
_cell_length_c                   22.9201(19)
_cell_angle_alpha                90
_cell_angle_beta                 119.635(2)
_cell_angle_gamma                90
_cell_volume                     10217.6
loop_
_atom_site_label
_atom_site_type_symbol
_atom_site_fract_x
_atom_site_fract_y
_atom_site_fract_z
Zn1 Zn 0.702996(16) 0.52182(4) 0.35365(3)
N1 N 0.74624(10) 0.4096(3) 0.38586(17)
N2 N 0.67528(10) 0.4624(3) 0.25732(16)
N3 N 0.64945(10) 0.5994(3) 0.32579(17)
N4 N 0.72007(10) 0.5462(3) 0.45350(16)
N5 N 0.76838(12) 0.1351(3) 0.17546(18)
N6 N 0.62713(18) 0.8635(4) 0.5417(2)
O1 O 0.89656(11) 0.2365(3) 0.79833(19)
H1 H 0.9165 0.2231 0.8347
O2 O 0.94158(13) 0.3422(4) 0.7965(2)
O3 O 0.45309(12) 0.6828(3) -0.07998(18)
O4 O 0.49888(13) 0.7778(4) -0.0851(2)
H2 H 0.4789 0.7929 -0.1210
C1 C 0.75299(14) 0.3467(3) 0.3449(2)
C2 C 0.78900(14) 0.2874(3) 0.3862(3)
H3 H 0.8005 0.2407 0.3709
C3 C 0.80253(15) 0.3127(4) 0.4507(3)
H4 H 0.8249 0.2860 0.4882
C4 C 0.77569(14) 0.3891(3) 0.4510(2)
C5 C 0.77916(14) 0.4329(3) 0.5086(2)
C6 C 0.75312(14) 0.5057(3) 0.5094(2)
C7 C 0.75555(15) 0.5475(4) 0.5690(2)
H5 H 0.7749 0.5323 0.6130
C8 C 0.72448(15) 0.6135(4) 0.5493(2)
H6 H 0.7187 0.6517 0.5773
C9 C 0.70221(14) 0.6128(3) 0.4770(2)
C10 C 0.66598(14) 0.6668(3) 0.4366(2)
C11 C 0.64160(14) 0.6612(3) 0.3661(2)
C12 C 0.60617(14) 0.7202(3) 0.3249(2)
H7 H 0.5947 0.7673 0.3400
C13 C 0.59271(15) 0.6947(4) 0.2604(3)
H8 H 0.5703 0.7214 0.2228
C14 C 0.61940(14) 0.6186(3) 0.2600(2)
C15 C 0.61625(14) 0.5737(3) 0.2021(2)
C16 C 0.64207(14) 0.4989(3) 0.2014(2)
C17 C 0.63748(15) 0.4513(3) 0.1423(2)
H9 H 0.6170 0.4634 0.0984
C18 C 0.66743(15) 0.3873(3) 0.1612(2)
H10 H 0.6720 0.3458 0.1334
C19 C 0.69205(14) 0.3937(3) 0.2340(2)
C20 C 0.72824(14) 0.3405(3) 0.2741(2)
C21 C 0.9062(2) 0.3021(5) 0.7696(3)
C22 C 0.87422(16) 0.3343(4) 0.7025(3)
C23 C 0.88126(17) 0.4116(4) 0.6703(3)
H11 H 0.9066 0.4428 0.6910
C24 C 0.85095(16) 0.4432(4) 0.6073(3)
H12 H 0.8563 0.4946 0.5861
C25 C 0.81304(14) 0.3987(4) 0.5762(2)
C26 C 0.80683(15) 0.3208(4) 0.6083(3)
H13 H 0.7818 0.2884 0.5876
C27 C 0.83743(16) 0.2898(4) 0.6712(3)
H14 H 0.8324 0.2375 0.6920
C28 C 0.4883(2) 0.7132(5) -0.0553(3)
C29 C 0.52154(17) 0.6793(4) 0.0110(3)
C30 C 0.56097(18) 0.7113(5) 0.0374(3)
H15 H 0.5676 0.7563 0.0139
C31 C 0.59131(16) 0.6767(4) 0.0996(3)
H16 H 0.6180 0.6992 0.1170
C32 C 0.58252(15) 0.6100(4) 0.1356(2)
C33 C 0.54290(17) 0.5796(4) 0.1088(3)
H17 H 0.5360 0.5354 0.1325
C34 C 0.51254(16) 0.6139(4) 0.0465(3)
H18 H 0.4858 0.5917 0.0290
C35 C 0.6589(2) 0.8829(4) 0.5353(3)
H19 H 0.6728 0.9410 0.5540
C36 C 0.67353(17) 0.8229(4) 0.5025(3)
H20 H 0.6969 0.8402 0.5007
C37 C 0.65265(16) 0.7369(4) 0.4726(2)
C38 C 0.61860(16) 0.7155(4) 0.4788(3)
H21 H 0.6035 0.6589 0.4599
C39 C 0.60752(18) 0.7805(5) 0.5139(3)
H22 H 0.5848 0.7647 0.5181
C40 C 0.78378(14) 0.2262(4) 0.1908(2)
H23 H 0.8035 0.2446 0.1797
C41 C 0.77173(15) 0.2945(3) 0.2227(2)
H24 H 0.7835 0.3566 0.2329
C42 C 0.74197(14) 0.2688(4) 0.2390(2)
C43 C 0.72584(14) 0.1751(4) 0.2226(2)
H25 H 0.7056 0.1552 0.2320
C44 C 0.74036(15) 0.1110(4) 0.1918(2)
H26 H 0.7297 0.0478 0.1822
Zn1C Zn 0.797004(16) 0.02182(4) 0.14635(3)
N5C N 0.73162(12) 0.6351(3) 0.32454(18)
O5 O 0.66337(18) 0.9841(4) 0.1776(3)
O6 O 0.60110(16) 1.0242(4) 0.1116(3)
H27 H 0.6115 1.0539 0.0927
C45 C 0.6287(3) 0.9759(6) 0.1610(5)
C46 C 0.6122(2) 0.9176(5) 0.1978(4)
H28 H 0.5981 0.8609 0.1718
H29 H 0.5935 0.9573 0.2047
H30 H 0.6344 0.8972 0.2404
loop_
_geom_bond_atom_site_label_1
_geom_bond_atom_site_label_2
_geom_bond_site_symmetry_1
_geom_bond_site_symmetry_2
Zn1 N1 1_555 1_555
N1 C1 1_555 1_555
N2 Zn1 1_555 1_555
N3 Zn1 1_555 1_555
N4 Zn1 1_555 1_555
N5 C40 1_555 1_555
N6 C35 1_555 1_555
O1 H1 1_555 1_555
O2 C21 1_555 1_555
O3 C28 1_555 1_555
O4 H2 1_555 1_555
C1 C2 1_555 1_555
C2 H3 1_555 1_555
C3 C2 1_555 1_555
H4 C3 1_555 1_555
C4 N1 1_555 1_555
C5 C4 1_555 1_555
C6 N4 1_555 1_555
C7 C6 1_555 1_555
H5 C7 1_555 1_555
C8 C7 1_555 1_555
H6 C8 1_555 1_555
C9 N4 1_555 1_555
C10 C9 1_555 1_555
C11 N3 1_555 1_555
C12 C11 1_555 1_555
H7 C12 1_555 1_555
C13 C12 1_555 1_555
H8 C13 1_555 1_555
C14 N3 1_555 1_555
C15 C14 1_555 1_555
C16 N2 1_555 1_555
C17 C16 1_555 1_555
H9 C17 1_555 1_555
C18 C17 1_555 1_555
H10 C18 1_555 1_555
C19 N2 1_555 1_555
C20 C1 1_555 1_555
C21 O1 1_555 1_555
C22 C21 1_555 1_555
C23 C22 1_555 1_555
H11 C23 1_555 1_555
C24 C23 1_555 1_555
H12 C24 1_555 1_555
C25 C5 1_555 1_555
C26 C25 1_555 1_555
H13 C26 1_555 1_555
C27 C22 1_555 1_555
H14 C27 1_555 1_555
C28 O4 1_555 1_555
C29 C28 1_555 1_555
C30 C29 1_555 1_555
H15 C30 1_555 1_555
C31 C30 1_555 1_555
H16 C31 1_555 1_555
C32 C15 1_555 1_555
C33 C32 1_555 1_555
H17 C33 1_555 1_555
C34 C29 1_555 1_555
H18 C34 1_555 1_555
C35 H19 1_555 1_555
C36 C35 1_555 1_555
H20 C36 1_555 1_555
C37 C10 1_555 1_555
C38 C37 1_555 1_555
H21 C38 1_555 1_555
C39 N6 1_555 1_555
H22 C39 1_555 1_555
C40 H23 1_555 1_555
C41 C40 1_555 1_555
H24 C41 1_555 1_555
C42 C20 1_555 1_555
C43 C42 1_555 1_555
H25 C43 1_555 1_555
C44 N5 1_555 1_555
H26 C44 1_555 1_555
O5 C45 1_555 1_555
O6 H27 1_555 1_555
C45 O6 1_555 1_555
C46 C45 1_555 1_555
H28 C46 1_555 1_555
H29 C46 1_555 1_555
H30 C46 1_555 1_555
Zn1C N5 1_555 1_555
N5C Zn1 1_555 1_555
C3 C4 1_555 1_555
C5 C6 1_555 1_555
C8 C9 1_555 1_555
C10 C11 1_555 1_555
C13 C14 1_555 1_555
C15 C16 1_555 1_555
C18 C19 1_555 1_555
C19 C20 1_555 1_555
C24 C25 1_555 1_555
C26 C27 1_555 1_555
C31 C32 1_555 1_555
C33 C34 1_555 1_555
C36 C37 1_555 1_555
C38 C39 1_555 1_555
C41 C42 1_555 1_555
C43 C44 1_555 1_555

#END
