
#######################################################################
#
#                 Cambridge Crystallographic Data Centre
#                                CCDC 
#
#######################################################################
#
# If this CIF has been generated from an entry in the Cambridge 
# Structural Database, then it will include bibliographic, chemical, 
# crystal, experimental, refinement or atomic coordinate data resulting 
# from the CCDC's data processing and validation procedures.
#
#######################################################################

data_XUKNIC
_symmetry_cell_setting           orthorhombic
_symmetry_space_group_name_H-M   'P n a 21'
_symmetry_Int_Tables_number      33
_space_group_name_Hall           'P 2c -2n'
loop_
_symmetry_equiv_pos_site_id
_symmetry_equiv_pos_as_xyz
1 x,y,z
2 -x,-y,1/2+z
3 1/2-x,1/2+y,1/2+z
4 1/2+x,1/2-y,z
_cell_length_a                   21.169(3)
_cell_length_b                   11.2196(4)
_cell_length_c                   23.5169(13)
_cell_angle_alpha                90
_cell_angle_beta                 90
_cell_angle_gamma                90
_cell_volume                     5585.45
loop_
_atom_site_label
_atom_site_type_symbol
_atom_site_fract_x
_atom_site_fract_y
_atom_site_fract_z
Zn1 Zn -0.59829(7) -0.27063(10) -0.14142(5)
Zn2 Zn -0.60081(8) 0.00592(10) -0.14283(5)
Zn3 Zn -0.66041(8) -0.12431(9) -0.03784(5)
Zn4 Zn -0.51315(8) -0.16854(11) -0.05055(6)
O1 O -0.5884(4) -0.1333(5) -0.0930(3)
O2 O -0.5210(9) 0.0733(11) -0.1725(6)
H1 H -0.4861 0.0689 -0.1509
H2 H -0.5193 0.1077 -0.2070
O3 O -0.5156(6) -0.3271(8) -0.1671(4)
O4 O -0.4577(7) -0.0396(10) -0.0209(5)
H3 H -0.4519 0.0274 -0.0413
H4 H -0.4386 -0.0480 0.0131
O5 O -0.4547(5) -0.2594(8) -0.0959(3)
O6 O -0.7490(10) -0.1370(12) 0.0269(4)
H5 H -0.7817 -0.0865 0.0232
H6 H -0.7491 -0.1922 0.0546
O7 O -0.2306(5) -0.3799(8) -0.0981(3)
O8 O -0.1949(5) -0.5087(7) -0.1617(4)
O9 O -0.6004(4) -0.0847(9) -0.2263(3)
O10 O -0.6494(4) -0.2557(7) -0.2090(4)
O11 O -0.8253(5) 0.1884(6) -0.5320(4)
O12 O -0.8736(6) 0.0882(7) -0.6005(3)
O13 O -0.8917(6) -0.3495(7) -0.5919(4)
O14 O -0.8387(5) -0.4456(5) -0.5229(3)
O15 O -0.3960(6) -0.8549(8) -0.4648(3)
O16 O -0.4684(6) -0.7190(9) -0.4849(4)
C1 C -0.4652(8) -0.3205(9) -0.1428(5)
C2 C -0.4074(7) -0.3779(10) -0.1711(5)
C3 C -0.3483(6) -0.3785(8) -0.1453(5)
H7 H -0.3413 -0.3351 -0.1122
C4 C -0.2985(8) -0.4462(10) -0.1701(5)
C5 C -0.3108(8) -0.4936(11) -0.2239(5)
H8 H -0.2776 -0.5282 -0.2439
C6 C -0.3698(8) -0.4920(11) -0.2489(5)
C7 C -0.4164(7) -0.4312(10) -0.2238(5)
H9 H -0.4553 -0.4246 -0.2418
C8 C -0.2390(8) -0.4467(10) -0.1405(5)
C9 C -0.3811(8) -0.5557(11) -0.3035(5)
C10 C -0.3478(8) -0.6654(18) -0.3141(6)
H10 H -0.3190 -0.6951 -0.2878
C11 C -0.3601(10) -0.7291(15) -0.3671(6)
H11 H -0.3363 -0.7959 -0.3764
C12 C -0.4087(9) -0.6892(12) -0.4047(5)
C13 C -0.4257(11) -0.5174(15) -0.3423(7)
H12 H -0.4462 -0.4452 -0.3362
C14 C -0.6380(10) -0.1601(12) -0.2395(5)
C15 C -0.6734(8) -0.1496(10) -0.2919(4)
C16 C -0.6665(9) -0.0581(12) -0.3285(6)
H13 H -0.6360 -0.0006 -0.3209
C17 C -0.7476(9) -0.1308(10) -0.3918(5)
C18 C -0.7547(10) -0.2171(13) -0.3531(6)
H14 H -0.7853 -0.2740 -0.3615
C19 C -0.7242(11) -0.2327(12) -0.3045(5)
H15 H -0.7347 -0.2939 -0.2797
C20 C -0.7814(8) -0.1304(7) -0.4478(5)
C21 C -0.7944(7) -0.0259(9) -0.4741(4)
H16 H -0.7782 0.0448 -0.4595
C22 C -0.8338(8) -0.0230(8) -0.5256(5)
C23 C -0.8483(7) -0.1326(9) -0.5464(5)
H17 H -0.8680 -0.1336 -0.5818
C24 C -0.8074(8) -0.2374(9) -0.4724(4)
H18 H -0.8031 -0.3087 -0.4527
C25 C -0.8379(6) -0.2383(7) -0.5229(5)
C26 C -0.8440(5) 0.0965(8) -0.5497(5)
C27 C -0.8527(7) -0.3531(8) -0.5452(5)
C28 C -0.7035(9) -0.0462(11) -0.3778(5)
H19 H -0.6980 0.0199 -0.4012
C29 C -0.4409(9) -0.5844(15) -0.3906(6)
H20 H -0.4734 -0.5584 -0.4140
C30 C -0.4263(9) -0.7595(13) -0.4549(5)
Zn1B Zn -0.90171(7) 0.22937(10) -0.64142(5)
Zn2B Zn -0.89919(8) -0.49408(10) -0.64283(5)
Zn2C Zn -0.10081(8) -0.50592(10) -0.14283(5)
Zn3A Zn -0.33959(8) -0.87569(9) -0.53784(5)
Zn3B Zn -0.83959(8) -0.62431(9) -0.53784(5)
Zn3B_2 Zn -0.83959(8) 0.37569(9) -0.53784(5)
Zn3C Zn -0.16041(8) -0.37569(9) -0.03784(5)
Zn4A Zn -0.48685(8) -0.83146(11) -0.55055(6)
O7C O -0.7306(5) -0.1201(8) -0.0981(3)
O8C O -0.6949(5) 0.0087(7) -0.1617(4)
O11B O -0.6747(5) -0.3116(6) -0.0320(4)
O12B O -0.6264(6) -0.4118(7) -0.1005(3)
O13B O -0.6083(6) 0.1505(7) -0.0919(4)
O14B O -0.6613(5) 0.0544(5) -0.0229(3)
O15A O -0.6040(6) -0.1451(8) 0.0352(3)
O16A O -0.5316(6) -0.2810(9) 0.0151(4)
loop_
_geom_bond_atom_site_label_1
_geom_bond_atom_site_label_2
_geom_bond_site_symmetry_1
_geom_bond_site_symmetry_2
Zn1 O1 1_555 1_555
Zn2 O1 1_555 1_555
Zn3 O1 1_555 1_555
Zn4 O1 1_555 1_555
O2 Zn2 1_555 1_555
H1 O2 1_555 1_555
H2 O2 1_555 1_555
O3 Zn1 1_555 1_555
O4 Zn4 1_555 1_555
H3 O4 1_555 1_555
H4 O4 1_555 1_555
O5 Zn4 1_555 1_555
O6 Zn3 1_555 1_555
H5 O6 1_555 1_555
H6 O6 1_555 1_555
O7 C8 1_555 1_555
O8 C8 1_555 1_555
O9 Zn2 1_555 1_555
O10 Zn1 1_555 1_555
O11 C26 1_555 1_555
O12 C26 1_555 1_555
O13 C27 1_555 1_555
O14 C27 1_555 1_555
O15 C30 1_555 1_555
O16 C30 1_555 1_555
C1 O3 1_555 1_555
C2 C1 1_555 1_555
C3 C2 1_555 1_555
H7 C3 1_555 1_555
C4 C3 1_555 1_555
C5 C4 1_555 1_555
H8 C5 1_555 1_555
C6 C5 1_555 1_555
C7 C2 1_555 1_555
H9 C7 1_555 1_555
C8 C4 1_555 1_555
C9 C6 1_555 1_555
C10 C9 1_555 1_555
H10 C10 1_555 1_555
C11 C10 1_555 1_555
H11 C11 1_555 1_555
C12 C11 1_555 1_555
C13 C9 1_555 1_555
H12 C13 1_555 1_555
C14 O9 1_555 1_555
C15 C14 1_555 1_555
C16 C15 1_555 1_555
H13 C16 1_555 1_555
C17 C18 1_555 1_555
C18 H14 1_555 1_555
C19 C15 1_555 1_555
H15 C19 1_555 1_555
C20 C17 1_555 1_555
C21 C20 1_555 1_555
H16 C21 1_555 1_555
C22 C21 1_555 1_555
C23 C22 1_555 1_555
H17 C23 1_555 1_555
C24 C20 1_555 1_555
H18 C24 1_555 1_555
C25 C23 1_555 1_555
C26 C22 1_555 1_555
C27 C25 1_555 1_555
C28 C16 1_555 1_555
H19 C28 1_555 1_555
C29 C12 1_555 1_555
H20 C29 1_555 1_555
C30 C12 1_555 1_555
Zn1B O12 1_555 1_555
Zn2B O13 1_555 1_555
Zn2C O8 1_555 1_555
Zn3A O15 1_555 1_555
Zn3B O14 1_555 1_555
Zn3B_2 O11 1_555 1_555
Zn3C O7 1_555 1_555
Zn4A O16 1_555 1_555
O7C Zn3 1_555 1_555
O8C Zn2 1_555 1_555
O11B Zn3 1_555 1_555
O12B Zn1 1_555 1_555
O13B Zn2 1_555 1_555
O14B Zn3 1_555 1_555
O15A Zn3 1_555 1_555
O16A Zn4 1_555 1_555
O5 C1 1_555 1_555
O10 C14 1_555 1_555
C6 C7 1_555 1_555
C13 C29 1_555 1_555
C17 C28 1_555 1_555
C18 C19 1_555 1_555
C24 C25 1_555 1_555

#END
