
#######################################################################
#
#                 Cambridge Crystallographic Data Centre
#                                CCDC 
#
#######################################################################
#
# If this CIF has been generated from an entry in the Cambridge 
# Structural Database, then it will include bibliographic, chemical, 
# crystal, experimental, refinement or atomic coordinate data resulting 
# from the CCDC's data processing and validation procedures.
#
#######################################################################

data_XUKSEC
_symmetry_cell_setting           monoclinic
_symmetry_space_group_name_H-M   'P 21/n'
_symmetry_Int_Tables_number      14
_space_group_name_Hall           '-P 2yn'
loop_
_symmetry_equiv_pos_site_id
_symmetry_equiv_pos_as_xyz
1 x,y,z
2 1/2-x,1/2+y,1/2-z
3 -x,-y,-z
4 1/2+x,1/2-y,1/2+z
_cell_length_a                   17.399(5)
_cell_length_b                   11.180(3)
_cell_length_c                   23.300(7)
_cell_angle_alpha                90
_cell_angle_beta                 109.054(4)
_cell_angle_gamma                90
_cell_volume                     4284.01
loop_
_atom_site_label
_atom_site_type_symbol
_atom_site_fract_x
_atom_site_fract_y
_atom_site_fract_z
Cr1 Cr 0.26325(5) -0.23657(7) 0.07746(4)
Cu1 Cu 0.51925(5) -0.24735(8) -0.01000(4)
Cu2 Cu 0.16664(5) -0.64829(7) 0.14310(4)
S1 S 0.40868(12) -0.10227(19) 0.27294(9)
S2 S 0.1257(2) 0.0105(3) -0.08515(13)
O1 O 0.3735(3) -0.1713(4) 0.0841(2)
O2 O 0.3019(3) -0.3290(5) -0.0017(2)
O3 O 0.3127(2) -0.3859(4) 0.1245(2)
O4 O 0.1613(2) -0.3214(4) 0.0741(2)
N1 N 0.4852(3) -0.1672(5) 0.0516(2)
N2 N 0.6020(3) -0.1330(5) -0.0078(3)
N3 N 0.5710(3) -0.3672(5) -0.0451(3)
N4 N 0.4170(3) -0.3301(5) -0.0333(3)
N5 N 0.2713(3) -0.5595(5) 0.1620(2)
N6 N 0.1186(3) -0.5017(4) 0.1034(2)
N7 N 0.0749(4) -0.7406(5) 0.0869(3)
N8 N 0.2174(3) -0.7932(5) 0.1839(3)
N9 N 0.2806(4) -0.1478(6) 0.1681(3)
N10 N 0.2051(4) -0.1140(6) 0.0189(3)
C1 C 0.4119(4) -0.2045(6) 0.0507(3)
C2 C 0.3695(4) -0.2946(6) 0.0001(3)
C3 C 0.3893(4) -0.4144(7) -0.0804(3)
C4 C 0.3071(5) -0.4404(9) -0.1091(4)
H1 H 0.2680 -0.3977 -0.0983
C5 C 0.2823(7) -0.5294(12) -0.1536(5)
H2 H 0.2273 -0.5438 -0.1733
C6 C 0.3405(8) -0.5953(14) -0.1678(6)
H3 H 0.3249 -0.6582 -0.1953
C7 C 0.4204(6) -0.5690(8) -0.1418(4)
H4 H 0.4586 -0.6128 -0.1530
C8 C 0.4473(5) -0.4784(7) -0.0987(3)
C9 C 0.5354(5) -0.4567(7) -0.0771(4)
H5 H 0.5681 -0.5127 -0.0875
C10 C 0.6612(4) -0.3636(7) -0.0254(4)
H6 H 0.6810 -0.4341 -0.0404
H7 H 0.6827 -0.3652 0.0186
C11 C 0.6921(4) -0.2529(6) -0.0483(4)
H8 H 0.7457 -0.2341 -0.0203
H9 H 0.6984 -0.2716 -0.0871
C12 C 0.6403(5) -0.1444(7) -0.0558(4)
H10 H 0.6733 -0.0741 -0.0550
H11 H 0.5981 -0.1474 -0.0951
C13 C 0.6262(4) -0.0487(7) 0.0319(3)
H12 H 0.6661 0.0023 0.0273
C14 C 0.5977(4) -0.0251(7) 0.0829(3)
C15 C 0.6418(5) 0.0644(8) 0.1232(4)
H13 H 0.6838 0.1036 0.1144
C16 C 0.6247(6) 0.0956(10) 0.1752(5)
H14 H 0.6537 0.1557 0.2008
C17 C 0.5627(6) 0.0344(10) 0.1879(4)
H15 H 0.5516 0.0510 0.2235
C18 C 0.5167(5) -0.0516(8) 0.1481(4)
H16 H 0.4751 -0.0907 0.1573
C19 C 0.5322(4) -0.0802(7) 0.0942(3)
C20 C 0.2610(4) -0.4584(6) 0.1311(3)
C21 C 0.1725(4) -0.4217(6) 0.0996(3)
C22 C 0.0335(4) -0.4774(6) 0.0855(3)
C23 C 0.0029(4) -0.3638(7) 0.0863(3)
H17 H 0.0380 -0.2986 0.0949
C24 C -0.0798(5) -0.3461(8) 0.0742(4)
H18 H -0.0995 -0.2692 0.0755
C25 C -0.1329(5) -0.4408(9) 0.0605(4)
H19 H -0.1882 -0.4290 0.0534
C26 C -0.1034(4) -0.5519(9) 0.0574(3)
H20 H -0.1398 -0.6154 0.0467
C27 C -0.0200(4) -0.5759(7) 0.0696(3)
C28 C 0.0051(5) -0.6981(7) 0.0640(3)
H21 H -0.0349 -0.7501 0.0410
C29 C 0.0926(6) -0.8666(7) 0.0734(4)
H22 H 0.0440 -0.8992 0.0438
H23 H 0.1347 -0.8647 0.0546
C30 C 0.1184(6) -0.9485(8) 0.1252(5)
H24 H 0.1542 -1.0082 0.1174
H25 H 0.0709 -0.9898 0.1283
C31 C 0.1616(5) -0.8903(7) 0.1852(4)
H26 H 0.1210 -0.8590 0.2016
H27 H 0.1920 -0.9513 0.2131
C32 C 0.2916(5) -0.8045(6) 0.2142(3)
H28 H 0.3065 -0.8773 0.2341
C33 C 0.3576(4) -0.7174(7) 0.2224(3)
C34 C 0.4349(5) -0.7567(7) 0.2581(4)
H29 H 0.4404 -0.8343 0.2733
C35 C 0.5029(5) -0.6859(9) 0.2717(4)
H30 H 0.5537 -0.7152 0.2946
C36 C 0.4937(5) -0.5717(8) 0.2507(4)
H31 H 0.5385 -0.5209 0.2612
C37 C 0.4189(4) -0.5290(7) 0.2138(3)
H32 H 0.4154 -0.4512 0.1991
C38 C 0.3489(4) -0.5993(6) 0.1983(3)
C39 C 0.3322(5) -0.1292(6) 0.2104(3)
C40 C 0.1718(4) -0.0621(6) -0.0251(4)
Cu2A Cu 0.33336(5) -0.14829(7) 0.35690(4)
S1A S 0.09132(12) -0.60227(19) 0.22706(9)
O5 O 0.6553(14) -0.298(3) 0.3162(11)
O6? O 0.5868(18) -0.258(2) 0.2830(16)
loop_
_geom_bond_atom_site_label_1
_geom_bond_atom_site_label_2
_geom_bond_site_symmetry_1
_geom_bond_site_symmetry_2
Cr1 O1 1_555 1_555
Cu1 N1 1_555 1_555
Cu2 N5 1_555 1_555
S1 C39 1_555 1_555
S2 C40 1_555 1_555
O1 C1 1_555 1_555
O2 Cr1 1_555 1_555
O3 Cr1 1_555 1_555
O4 Cr1 1_555 1_555
N1 C1 1_555 1_555
N2 Cu1 1_555 1_555
N3 Cu1 1_555 1_555
N4 Cu1 1_555 1_555
N5 C20 1_555 1_555
N6 Cu2 1_555 1_555
N7 Cu2 1_555 1_555
N8 Cu2 1_555 1_555
N9 Cr1 1_555 1_555
N10 Cr1 1_555 1_555
C1 C2 1_555 1_555
C2 O2 1_555 1_555
C3 N4 1_555 1_555
C4 C3 1_555 1_555
H1 C4 1_555 1_555
C5 C4 1_555 1_555
H2 C5 1_555 1_555
C6 C5 1_555 1_555
H3 C6 1_555 1_555
C7 C6 1_555 1_555
H4 C7 1_555 1_555
C8 C3 1_555 1_555
C9 N3 1_555 1_555
H5 C9 1_555 1_555
C10 N3 1_555 1_555
H6 C10 1_555 1_555
H7 C10 1_555 1_555
C11 C10 1_555 1_555
H8 C11 1_555 1_555
H9 C11 1_555 1_555
C12 N2 1_555 1_555
H10 C12 1_555 1_555
H11 C12 1_555 1_555
C13 N2 1_555 1_555
H12 C13 1_555 1_555
C14 C13 1_555 1_555
C15 C14 1_555 1_555
H13 C15 1_555 1_555
C16 C15 1_555 1_555
H14 C16 1_555 1_555
C17 C16 1_555 1_555
H15 C17 1_555 1_555
C18 C17 1_555 1_555
H16 C18 1_555 1_555
C19 N1 1_555 1_555
C20 O3 1_555 1_555
C21 O4 1_555 1_555
C22 N6 1_555 1_555
C23 C22 1_555 1_555
H17 C23 1_555 1_555
C24 C23 1_555 1_555
H18 C24 1_555 1_555
C25 C24 1_555 1_555
H19 C25 1_555 1_555
C26 C25 1_555 1_555
H20 C26 1_555 1_555
C27 C22 1_555 1_555
C28 N7 1_555 1_555
H21 C28 1_555 1_555
C29 N7 1_555 1_555
H22 C29 1_555 1_555
H23 C29 1_555 1_555
C30 C29 1_555 1_555
H24 C30 1_555 1_555
H25 C30 1_555 1_555
C31 N8 1_555 1_555
H26 C31 1_555 1_555
H27 C31 1_555 1_555
C32 N8 1_555 1_555
H28 C32 1_555 1_555
C33 C32 1_555 1_555
C34 C33 1_555 1_555
H29 C34 1_555 1_555
C35 C34 1_555 1_555
H30 C35 1_555 1_555
C36 C35 1_555 1_555
H31 C36 1_555 1_555
C37 C36 1_555 1_555
H32 C37 1_555 1_555
C38 N5 1_555 1_555
C39 N9 1_555 1_555
C40 N10 1_555 1_555
Cu2A S1 1_555 1_555
S1A Cu2 1_555 1_555
N4 C2 1_555 1_555
N6 C21 1_555 1_555
C7 C8 1_555 1_555
C8 C9 1_555 1_555
C11 C12 1_555 1_555
C14 C19 1_555 1_555
C18 C19 1_555 1_555
C20 C21 1_555 1_555
C26 C27 1_555 1_555
C27 C28 1_555 1_555
C30 C31 1_555 1_555
C33 C38 1_555 1_555
C37 C38 1_555 1_555

#END
