
#######################################################################
#
#                 Cambridge Crystallographic Data Centre
#                                CCDC 
#
#######################################################################
#
# If this CIF has been generated from an entry in the Cambridge 
# Structural Database, then it will include bibliographic, chemical, 
# crystal, experimental, refinement or atomic coordinate data resulting 
# from the CCDC's data processing and validation procedures.
#
#######################################################################

data_XUKTIH
_symmetry_cell_setting           triclinic
_symmetry_space_group_name_H-M   'P -1'
_symmetry_Int_Tables_number      2
_space_group_name_Hall           '-P 1'
loop_
_symmetry_equiv_pos_site_id
_symmetry_equiv_pos_as_xyz
1 x,y,z
2 -x,-y,-z
_cell_length_a                   10.8090(7)
_cell_length_b                   10.9374(7)
_cell_length_c                   10.9522(7)
_cell_angle_alpha                116.892(2)
_cell_angle_beta                 107.461(2)
_cell_angle_gamma                101.406(2)
_cell_volume                     1013.41
loop_
_atom_site_label
_atom_site_type_symbol
_atom_site_fract_x
_atom_site_fract_y
_atom_site_fract_z
Ag1 Ag 0.5000 0.5000 0.0000
Ag2 Ag 1.0000 0.5000 0.0000
N1 N 0.2437(5) 0.2300(5) -0.0983(5)
N2 N 0.4142(4) 0.2993(5) 0.1098(5)
N3 N 1.1565(4) 0.4253(5) 0.2214(5)
N4 N 1.2927(5) 0.6306(5) 0.2749(5)
C1 C 0.1564(6) 0.2269(7) -0.2316(7)
H1 H 0.1138 0.2999 -0.2001
H2 H 0.0818 0.1271 -0.3073
H3 H 0.2150 0.2515 -0.2768
C2 C 0.3752(5) 0.3346(6) 0.0060(6)
C3 C 0.2035(5) 0.1314(6) -0.0594(6)
H4 H 0.1164 0.0480 -0.1152
C4 C 0.3104(6) 0.1745(6) 0.0725(6)
H5 H 0.3137 0.1285 0.1285
C5 C 0.5494(5) 0.3842(6) 0.2478(6)
H6 H 0.5426 0.3558 0.3203
H7 H 0.5681 0.4917 0.2976
C6 C 0.6729(5) 0.3589(6) 0.2158(6)
C7 C 0.6567(5) 0.2334(6) 0.0861(6)
H8 H 0.5649 0.1598 0.0118
C8 C 0.7724(6) 0.2141(6) 0.0635(6)
H9 H 0.7593 0.1299 -0.0281
C9 C 0.9081(5) 0.3177(6) 0.1747(6)
C10 C 0.9244(6) 0.4429(6) 0.3021(6)
H10 H 1.0165 0.5155 0.3769
C11 C 0.8086(6) 0.4651(6) 0.3236(6)
H11 H 0.8218 0.5530 0.4121
C12 C 1.0319(6) 0.2874(6) 0.1489(6)
H12 H 1.0585 0.2278 0.1906
H13 H 1.0028 0.2275 0.0376
C13 C 1.1623(5) 0.5216(6) 0.1770(6)
C14 C 1.2803(6) 0.4737(6) 0.3455(6)
H14 H 1.3010 0.4245 0.3969
C15 C 1.3654(6) 0.6024(6) 0.3798(6)
H15 H 1.4581 0.6630 0.4608
C16 C 1.3515(6) 0.7604(6) 0.2724(7)
H16 H 1.3164 0.7333 0.1663
H17 H 1.4546 0.7963 0.3194
H18 H 1.3232 0.8391 0.3297
Ag2_2 Ag 0.0000 0.5000 0.0000
N1A N 0.7563(5) 0.7700(5) 0.0983(5)
N2A N 0.5858(4) 0.7007(5) -0.1098(5)
N3A N -0.1565(4) 0.5747(5) -0.2214(5)
N4A N -0.2927(5) 0.3694(5) -0.2749(5)
C1A C 0.8436(6) 0.7731(7) 0.2316(7)
H1A H 0.8862 0.7001 0.2001
H2A H 0.9182 0.8729 0.3073
H3A H 0.7850 0.7485 0.2768
C2A C 0.6248(5) 0.6654(6) -0.0060(6)
C3A C 0.7965(5) 0.8686(6) 0.0594(6)
H4A H 0.8836 0.9520 0.1152
C4A C 0.6896(6) 0.8255(6) -0.0725(6)
H5A H 0.6863 0.8715 -0.1285
C5A C 0.4506(5) 0.6158(6) -0.2478(6)
H6A H 0.4574 0.6442 -0.3203
H7A H 0.4319 0.5083 -0.2976
C6A C 0.3271(5) 0.6411(6) -0.2158(6)
C7A C 0.3433(5) 0.7666(6) -0.0861(6)
H8A H 0.4351 0.8402 -0.0118
C8A C 0.2276(6) 0.7859(6) -0.0635(6)
H9A H 0.2407 0.8701 0.0281
C9A C 0.0919(5) 0.6823(6) -0.1747(6)
C10A C 0.0756(6) 0.5571(6) -0.3021(6)
H10A H -0.0165 0.4845 -0.3769
C11A C 0.1914(6) 0.5349(6) -0.3236(6)
H11A H 0.1782 0.4470 -0.4121
C12A C -0.0319(6) 0.7126(6) -0.1489(6)
H12A H -0.0585 0.7722 -0.1906
H13A H -0.0028 0.7725 -0.0376
C13A C -0.1623(5) 0.4784(6) -0.1770(6)
C13A_2 C 0.8377(5) 0.4784(6) -0.1770(6)
C14A C -0.2803(6) 0.5263(6) -0.3455(6)
H14A H -0.3010 0.5755 -0.3969
C15A C -0.3654(6) 0.3976(6) -0.3798(6)
H15A H -0.4581 0.3370 -0.4608
C16A C -0.3515(6) 0.2396(6) -0.2724(7)
H16A H -0.3164 0.2667 -0.1663
H17A H -0.4546 0.2037 -0.3194
H18A H -0.3232 0.1609 -0.3297
F1 F 0.7715(6) 0.9592(6) 0.5479(6)
F2 F 0.9192(4) 0.8526(4) 0.6040(4)
F3 F 0.8485(4) 0.9849(5) 0.7742(5)
F4 F 0.6967(4) 0.7642(4) 0.5650(6)
B1 B 0.8071(7) 0.8937(7) 0.6224(8)
N5 N 0.5204(6) 0.0577(6) 0.2783(6)
C17 C 0.6395(7) 0.0975(6) 0.3328(7)
C18 C 0.7930(6) 0.1528(7) 0.4073(8)
H19 H 0.8321 0.2010 0.3629
H20 H 0.8216 0.0693 0.3920
H21 H 0.8285 0.2251 0.5170
loop_
_geom_bond_atom_site_label_1
_geom_bond_atom_site_label_2
_geom_bond_site_symmetry_1
_geom_bond_site_symmetry_2
Ag1 C2 1_555 1_555
Ag2 C13 1_555 1_555
F1 B1 1_555 1_555
F2 B1 1_555 1_555
F3 B1 1_555 1_555
F4 B1 1_555 1_555
N1 C1 1_555 1_555
N2 C2 1_555 1_555
N3 C12 1_555 1_555
N4 C13 1_555 1_555
N5 C17 1_555 1_555
C1 H1 1_555 1_555
H2 C1 1_555 1_555
H3 C1 1_555 1_555
C2 N1 1_555 1_555
C3 N1 1_555 1_555
H4 C3 1_555 1_555
C4 N2 1_555 1_555
H5 C4 1_555 1_555
C5 N2 1_555 1_555
H6 C5 1_555 1_555
H7 C5 1_555 1_555
C6 C5 1_555 1_555
C7 C6 1_555 1_555
H8 C7 1_555 1_555
C8 C7 1_555 1_555
H9 C8 1_555 1_555
C9 C8 1_555 1_555
C10 C9 1_555 1_555
H10 C10 1_555 1_555
C11 C6 1_555 1_555
H11 C11 1_555 1_555
C12 C9 1_555 1_555
H12 C12 1_555 1_555
H13 C12 1_555 1_555
C13 N3 1_555 1_555
C14 N3 1_555 1_555
H14 C14 1_555 1_555
C15 N4 1_555 1_555
H15 C15 1_555 1_555
C16 N4 1_555 1_555
H16 C16 1_555 1_555
H17 C16 1_555 1_555
H18 C16 1_555 1_555
C17 C18 1_555 1_555
C18 H19 1_555 1_555
H20 C18 1_555 1_555
H21 C18 1_555 1_555
Ag2_2 C13A 1_555 1_555
N1A C1A 1_555 1_555
N2A C2A 1_555 1_555
N3A C12A 1_555 1_555
N4A C13A 1_555 1_555
C1A H1A 1_555 1_555
H2A C1A 1_555 1_555
H3A C1A 1_555 1_555
C2A Ag1 1_555 1_555
C3A N1A 1_555 1_555
H4A C3A 1_555 1_555
C4A N2A 1_555 1_555
H5A C4A 1_555 1_555
C5A N2A 1_555 1_555
H6A C5A 1_555 1_555
H7A C5A 1_555 1_555
C6A C5A 1_555 1_555
C7A C6A 1_555 1_555
H8A C7A 1_555 1_555
C8A C7A 1_555 1_555
H9A C8A 1_555 1_555
C9A C8A 1_555 1_555
C10A C9A 1_555 1_555
H10A C10A 1_555 1_555
C11A C6A 1_555 1_555
H11A C11A 1_555 1_555
C12A C9A 1_555 1_555
H12A C12A 1_555 1_555
H13A C12A 1_555 1_555
C13A N3A 1_555 1_555
C13A_2 Ag2 1_555 1_555
C14A N3A 1_555 1_555
H14A C14A 1_555 1_555
C15A N4A 1_555 1_555
H15A C15A 1_555 1_555
C16A N4A 1_555 1_555
H16A C16A 1_555 1_555
H17A C16A 1_555 1_555
H18A C16A 1_555 1_555
C3 C4 1_555 1_555
C10 C11 1_555 1_555
C14 C15 1_555 1_555
N1A C2A 1_555 1_555
C3A C4A 1_555 1_555
C10A C11A 1_555 1_555
C14A C15A 1_555 1_555

#END
