
#######################################################################
#
#                 Cambridge Crystallographic Data Centre
#                                CCDC 
#
#######################################################################
#
# If this CIF has been generated from an entry in the Cambridge 
# Structural Database, then it will include bibliographic, chemical, 
# crystal, experimental, refinement or atomic coordinate data resulting 
# from the CCDC's data processing and validation procedures.
#
#######################################################################

data_XUKWIL
_symmetry_cell_setting           triclinic
_symmetry_space_group_name_H-M   'P -1'
_symmetry_Int_Tables_number      2
_space_group_name_Hall           '-P 1'
loop_
_symmetry_equiv_pos_site_id
_symmetry_equiv_pos_as_xyz
1 x,y,z
2 -x,-y,-z
_cell_length_a                   6.7483(8)
_cell_length_b                   8.2141(9)
_cell_length_c                   8.2854(9)
_cell_angle_alpha                113.252(10)
_cell_angle_beta                 112.492(11)
_cell_angle_gamma                97.526(10)
_cell_volume                     367.728
loop_
_atom_site_label
_atom_site_type_symbol
_atom_site_fract_x
_atom_site_fract_y
_atom_site_fract_z
Ni1 Ni 0.5000 0.5000 0.5000
N1 N 0.6891(5) 0.5410(4) 0.3560(4)
H1 H 0.6493 0.6260 0.3188
H2 H 0.8363 0.5957 0.4500
N2 N 0.2521(5) 0.2543(4) 0.2321(4)
H3 H 0.1970 0.1763 0.2681
H4 H 0.1366 0.2888 0.1718
N3 N 0.6811(5) 0.3276(4) 0.5901(4)
N4 N 0.7964(5) 0.2364(4) 0.5087(4)
N5 N 0.7677(6) 0.1513(5) 0.7239(5)
N6 N 0.6649(6) 0.2779(5) 0.7198(5)
N7 N 0.9599(5) -0.0012(4) 0.5576(4)
C1 C 0.6782(2) 0.3842(4) 0.1804(4)
H5 H 0.7587 0.3070 0.2229
H6 H 0.7527 0.4345 0.1225
C2 C 0.4338(2) 0.2639(3) 0.0236(3)
H7 H 0.3490 0.3455 -0.0018
H8 H 0.4320 0.1826 -0.0998
C3 C 0.3129(5) 0.1430(4) 0.0795(5)
H9 H 0.1758 0.0482 -0.0393
H10 H 0.4107 0.0790 0.1301
C4 C 0.8455(6) 0.1304(5) 0.5947(5)
N3A N 1.3189(5) -0.3276(4) 0.4099(4)
N4A N 1.2036(5) -0.2364(4) 0.4913(4)
N5A N 1.2323(6) -0.1513(5) 0.2761(5)
N6A N 1.3351(6) -0.2779(5) 0.2802(5)
N7A N 1.0401(5) 0.0012(4) 0.4424(4)
C4A C 1.1545(6) -0.1304(5) 0.4053(5)
N1A N 0.3109(5) 0.4590(4) 0.6440(4)
H1A H 0.3507 0.3740 0.6812
H2A H 0.1637 0.4043 0.5500
N2A N 0.7479(5) 0.7457(4) 0.7679(4)
H3A H 0.8030 0.8237 0.7319
H4A H 0.8634 0.7112 0.8282
C1A C 0.3218(2) 0.6158(4) 0.8196(4)
H5A H 0.2413 0.6930 0.7771
H6A H 0.2473 0.5655 0.8775
C2A C 0.5662(2) 0.7361(3) 0.9764(3)
H7A H 0.6510 0.6545 1.0018
H8A H 0.5680 0.8174 1.0998
C3A C 0.6871(5) 0.8570(4) 0.9205(5)
H9A H 0.8242 0.9518 1.0393
H10A H 0.5893 0.9210 0.8699
Ni1_2 Ni 1.5000 -0.5000 0.5000
N3A_2 N 0.3189(5) 0.6724(4) 0.4099(4)
loop_
_geom_bond_atom_site_label_1
_geom_bond_atom_site_label_2
_geom_bond_site_symmetry_1
_geom_bond_site_symmetry_2
Ni1 N1 1_555 1_555
N1 H1 1_555 1_555
H2 N1 1_555 1_555
N2 Ni1 1_555 1_555
H3 N2 1_555 1_555
H4 N2 1_555 1_555
N3 Ni1 1_555 1_555
N4 N3 1_555 1_555
N5 N6 1_555 1_555
N6 N3 1_555 1_555
N7 C4 1_555 1_555
C1 N1 1_555 1_555
H5 C1 1_555 1_555
H6 C1 1_555 1_555
C2 C1 1_555 1_555
H7 C2 1_555 1_555
H8 C2 1_555 1_555
C3 N2 1_555 1_555
H9 C3 1_555 1_555
H10 C3 1_555 1_555
C4 N4 1_555 1_555
N3A N4A 1_555 1_555
N4A C4A 1_555 1_555
N5A N6A 1_555 1_555
N6A N3A 1_555 1_555
N7A N7 1_555 1_555
C4A N5A 1_555 1_555
N1A Ni1 1_555 1_555
H1A N1A 1_555 1_555
H2A N1A 1_555 1_555
N2A Ni1 1_555 1_555
H3A N2A 1_555 1_555
H4A N2A 1_555 1_555
C1A N1A 1_555 1_555
H5A C1A 1_555 1_555
H6A C1A 1_555 1_555
C2A C1A 1_555 1_555
H7A C2A 1_555 1_555
H8A C2A 1_555 1_555
C3A N2A 1_555 1_555
H9A C3A 1_555 1_555
H10A C3A 1_555 1_555
Ni1_2 N3A 1_555 1_555
N3A_2 Ni1 1_555 1_555
N5 C4 1_555 1_555
C2 C3 1_555 1_555
N7A C4A 1_555 1_555
C2A C3A 1_555 1_555

#END
