
#######################################################################
#
#                 Cambridge Crystallographic Data Centre
#                                CCDC 
#
#######################################################################
#
# If this CIF has been generated from an entry in the Cambridge 
# Structural Database, then it will include bibliographic, chemical, 
# crystal, experimental, refinement or atomic coordinate data resulting 
# from the CCDC's data processing and validation procedures.
#
#######################################################################

data_XUKXEH
_symmetry_cell_setting           monoclinic
_symmetry_space_group_name_H-M   'C 2/c'
_symmetry_Int_Tables_number      15
_space_group_name_Hall           '-C 2yn'
loop_
_symmetry_equiv_pos_site_id
_symmetry_equiv_pos_as_xyz
1 x,y,z
2 -x,y,1/2-z
3 1/2+x,1/2+y,z
4 1/2-x,1/2+y,1/2-z
5 -x,-y,-z
6 x,-y,1/2+z
7 1/2-x,1/2-y,-z
8 1/2+x,1/2-y,1/2+z
_cell_length_a                   22.346(14)
_cell_length_b                   15.649(10)
_cell_length_c                   13.588(9)
_cell_angle_alpha                90
_cell_angle_beta                 97.183(12)
_cell_angle_gamma                90
_cell_volume                     4714.33
loop_
_atom_site_label
_atom_site_type_symbol
_atom_site_fract_x
_atom_site_fract_y
_atom_site_fract_z
Cu1 Cu 0.49977(3) 0.04508(5) 0.15536(6)
Cu2 Cu 0.41204(3) 0.14754(5) 0.21016(7)
C1 C 0.5060(3) 0.2538(4) 0.1274(5)
C2 C 0.5044(3) 0.4005(4) 0.1215(5)
C3 C 0.4437(3) 0.4009(4) 0.1209(6)
H1 H 0.4215 0.4514 0.1153
C4 C 0.4164(3) 0.3226(4) 0.1291(6)
H2 H 0.3750 0.3210 0.1305
C5 C 0.5413(3) 0.4812(4) 0.1271(6)
C6 C 0.5147(4) 0.5604(5) 0.1273(7)
H3 H 0.4729 0.5649 0.1220
C7 C 0.5493(5) 0.6320(5) 0.1353(8)
H4 H 0.5299 0.6846 0.1336
C8 C 0.6336(5) 0.5555(7) 0.1426(11)
H5 H 0.6754 0.5531 0.1464
C9 C 0.6018(4) 0.4795(5) 0.1345(9)
H6 H 0.6221 0.4276 0.1342
C10 C 0.6054(3) -0.0526(4) 0.2529(5)
C11 C 0.6610(3) -0.1549(4) 0.1829(5)
C12 C 0.6190(3) -0.1583(4) 0.1016(6)
H7 H 0.6230 -0.1956 0.0496
C13 C 0.5704(3) -0.1042(4) 0.0994(5)
H8 H 0.5412 -0.1053 0.0443
C14 C 0.7169(3) -0.2075(4) 0.1937(5)
C15 C 0.7603(3) -0.1960(4) 0.2724(6)
H9 H 0.7547 -0.1563 0.3213
C16 C 0.8127(3) -0.2438(4) 0.2793(6)
H10 H 0.8420 -0.2348 0.3332
C17 C 0.7804(3) -0.3148(4) 0.1376(6)
H11 H 0.7865 -0.3567 0.0914
C18 C 0.7270(3) -0.2692(4) 0.1239(6)
H12 H 0.6984 -0.2795 0.0693
N1 N 0.4471(2) 0.2482(3) 0.1351(4)
N2 N 0.5363(2) 0.3277(3) 0.1216(5)
N3 N 0.6077(4) 0.6315(5) 0.1452(8)
N4 N 0.8231(2) -0.3024(3) 0.2120(5)
N5 N 0.6547(2) -0.1024(3) 0.2598(4)
N6 N 0.5634(2) -0.0498(3) 0.1736(4)
S1 S 0.54969(7) 0.16191(10) 0.12151(14)
S2 S 0.59829(6) 0.01208(10) 0.35544(13)
Cu1A Cu 0.50023(3) 0.04508(5) 0.34464(6)
Cu2B Cu 0.91204(3) -0.35246(5) 0.21016(7)
Cu2A Cu 0.58796(3) 0.14754(5) 0.28984(7)
N4B N 0.3231(2) 0.1976(3) 0.2120(5)
S1A S 0.45031(7) 0.16191(10) 0.37849(14)
S2A S 0.40171(6) 0.01208(10) 0.14456(13)
C19 C 0.2432(6) 0.0006(10) 0.4205(12)
C20 C 0.2904(6) 0.0609(7) 0.4167(13)
H13 H 0.3121 0.0677 0.4818
H14 H 0.2736 0.1148 0.3937
H15 H 0.3174 0.0408 0.3721
N7 N 0.2093(6) -0.0506(9) 0.4235(14)
C21 C 0.348(2) 0.292(2) 0.552(3)
H16 H 0.3129 0.2558 0.5471
H17 H 0.3571 0.3059 0.4871
H18 H 0.3390 0.3442 0.5858
O1 O 0.3948(14) 0.2525(12) 0.6040(16)
H19 H 0.3809 0.2000 0.6299
loop_
_geom_bond_atom_site_label_1
_geom_bond_atom_site_label_2
_geom_bond_site_symmetry_1
_geom_bond_site_symmetry_2
Cu1 N6 1_555 1_555
Cu2 N1 1_555 1_555
C1 N1 1_555 1_555
C2 C3 1_555 1_555
C3 H1 1_555 1_555
C4 C3 1_555 1_555
H2 C4 1_555 1_555
C5 C2 1_555 1_555
C6 C5 1_555 1_555
H3 C6 1_555 1_555
C7 C6 1_555 1_555
H4 C7 1_555 1_555
C8 H5 1_555 1_555
C9 C5 1_555 1_555
H6 C9 1_555 1_555
C10 N5 1_555 1_555
C11 C12 1_555 1_555
C12 H7 1_555 1_555
C13 C12 1_555 1_555
H8 C13 1_555 1_555
C14 C11 1_555 1_555
C15 C14 1_555 1_555
H9 C15 1_555 1_555
C16 C15 1_555 1_555
H10 C16 1_555 1_555
C17 H11 1_555 1_555
C18 C14 1_555 1_555
H12 C18 1_555 1_555
C19 C20 1_555 1_555
C20 H13 1_555 1_555
H14 C20 1_555 1_555
H15 C20 1_555 1_555
C21 H16 1_555 1_555
H17 C21 1_555 1_555
H18 C21 1_555 1_555
N1 C4 1_555 1_555
N2 C1 1_555 1_555
N3 C7 1_555 1_555
N4 C16 1_555 1_555
N5 C11 1_555 1_555
N6 C10 1_555 1_555
N7 C19 1_555 1_555
O1 C21 1_555 1_555
H19 O1 1_555 1_555
S1 Cu1 1_555 1_555
S2 C10 1_555 1_555
Cu1A S2 1_555 1_555
Cu2B N4 1_555 1_555
Cu2A S1 1_555 1_555
N4B Cu2 1_555 1_555
S1A Cu2 1_555 1_555
S2A Cu1 1_555 1_555
Cu2 S2A 1_555 1_555
C1 S1 1_555 1_555
C2 N2 1_555 1_555
C8 C9 1_555 1_555
C8 N3 1_555 1_555
C13 N6 1_555 1_555
C17 C18 1_555 1_555
C17 N4 1_555 1_555
S2 Cu2A 1_555 1_555
Cu1A S1A 1_555 1_555

#END
