
#######################################################################
#
#                 Cambridge Crystallographic Data Centre
#                                CCDC 
#
#######################################################################
#
# If this CIF has been generated from an entry in the Cambridge 
# Structural Database, then it will include bibliographic, chemical, 
# crystal, experimental, refinement or atomic coordinate data resulting 
# from the CCDC's data processing and validation procedures.
#
#######################################################################

data_XUKXIL
_symmetry_cell_setting           monoclinic
_symmetry_space_group_name_H-M   'C 2/c'
_symmetry_Int_Tables_number      15
_space_group_name_Hall           '-C 2yn'
loop_
_symmetry_equiv_pos_site_id
_symmetry_equiv_pos_as_xyz
1 x,y,z
2 -x,y,1/2-z
3 1/2+x,1/2+y,z
4 1/2-x,1/2+y,1/2-z
5 -x,-y,-z
6 x,-y,1/2+z
7 1/2-x,1/2-y,-z
8 1/2+x,1/2-y,1/2+z
_cell_length_a                   23.830(5)
_cell_length_b                   21.030(4)
_cell_length_c                   24.501(5)
_cell_angle_alpha                90
_cell_angle_beta                 110.38(3)
_cell_angle_gamma                90
_cell_volume                     11510
loop_
_atom_site_label
_atom_site_type_symbol
_atom_site_fract_x
_atom_site_fract_y
_atom_site_fract_z
N1 N -0.3251(3) 0.7323(3) 0.2107(3)
N2 N -0.1386(3) 0.6867(3) 0.2757(3)
N3 N 0.1766(3) 0.6693(4) 0.3850(3)
N4 N -1.1353(3) 0.8269(4) -0.0610(3)
N5 N -0.8201(3) 0.8198(3) 0.0248(3)
N6 N -0.6323(3) 0.8066(4) 0.0832(3)
Ag1 Ag -0.23339(3) 0.70312(3) 0.24118(3)
Ag2 Ag -0.72627(3) 0.81817(4) 0.04609(3)
Ag3 Ag 0.27081(3) 0.67049(4) 0.41599(3)
C1 C -0.3666(4) 0.7053(4) 0.2279(3)
H1 H -0.3541 0.6745 0.2581
C2 C -0.4265(3) 0.7195(4) 0.2046(3)
H2 H -0.4545 0.6979 0.2177
C3 C -0.4459(3) 0.7660(4) 0.1615(3)
C4 C -0.4035(4) 0.7950(4) 0.1442(4)
H3 H -0.4151 0.8271 0.1152
C5 C -0.3435(3) 0.7777(4) 0.1687(4)
H4 H -0.3148 0.7982 0.1558
C6 C -0.5504(4) 0.7665(5) 0.1614(4)
H5 H -0.5369 0.7464 0.1984
C7 C -0.5095(3) 0.7823(4) 0.1353(3)
C8 C -0.5330(4) 0.8143(4) 0.0814(4)
H6 H -0.5072 0.8284 0.0618
C9 C -0.5939(4) 0.8248(4) 0.0576(4)
H7 H -0.6092 0.8460 0.0211
C10 C -0.1117(4) 0.6306(4) 0.2805(5)
H8 H -0.1355 0.5935 0.2680
C11 C -0.0500(4) 0.6248(4) 0.3033(4)
H9 H -0.0324 0.5838 0.3056
C12 C -0.0135(4) 0.6770(4) 0.3226(4)
C13 C -0.0433(4) 0.7346(5) 0.3200(4)
H10 H -0.0210 0.7723 0.3342
C14 C -0.1040(4) 0.7373(5) 0.2974(5)
H11 H -0.1229 0.7772 0.2968
C15 C 0.1436(4) 0.6201(5) 0.3876(5)
H12 H 0.1638 0.5819 0.4039
C16 C 0.0830(4) 0.6194(5) 0.3690(6)
H13 H 0.0623 0.5821 0.3728
C17 C 0.0520(4) 0.6733(4) 0.3445(4)
C18 C 0.0849(4) 0.7257(5) 0.3400(5)
H14 H 0.0650 0.7639 0.3233
C19 C 0.1471(4) 0.7229(5) 0.3599(5)
H15 H 0.1692 0.7591 0.3558
C20 C -1.1054(4) 0.8625(4) -0.0872(4)
H16 H -1.1281 0.8895 -0.1181
C21 C -1.0446(3) 0.8627(4) -0.0724(4)
H17 H -1.0259 0.8882 -0.0932
C22 C -1.0104(3) 0.8248(4) -0.0262(3)
C23 C -1.0404(4) 0.7873(5) 0.0012(4)
H18 H -1.0185 0.7609 0.0330
C24 C -1.1023(4) 0.7884(6) -0.0177(4)
H19 H -1.1222 0.7611 0.0005
C25 C -0.8531(4) 0.8454(5) -0.0262(4)
H20 H -0.8340 0.8621 -0.0512
C26 C -0.9144(4) 0.8479(5) -0.0429(4)
H21 H -0.9368 0.8668 -0.0791
C27 C -0.9442(3) 0.8236(4) -0.0081(3)
C28 C -0.9087(4) 0.7970(4) 0.0439(4)
H22 H -0.9263 0.7793 0.0698
C29 C -0.8467(4) 0.7963(4) 0.0582(4)
H23 H -0.8229 0.7777 0.0942
C30 C -0.6098(4) 0.7792(6) 0.1349(4)
H24 H -0.6364 0.7679 0.1545
N7 N -0.1572(3) 0.5679(4) 0.6780(3)
N8 N -0.3479(3) 0.5331(4) 0.5817(3)
Ag4 Ag -0.25338(3) 0.55271(4) 0.63291(3)
C31 C -0.1195(4) 0.5546(5) 0.6507(4)
H25 H -0.1359 0.5434 0.6107
C32 C -0.0584(4) 0.5559(5) 0.6763(4)
H26 H -0.0338 0.5473 0.6539
C33 C -0.0331(3) 0.5698(4) 0.7343(3)
C34 C -0.0718(4) 0.5843(5) 0.7638(3)
H27 H -0.0564 0.5951 0.8040
C35 C -0.1326(4) 0.5829(5) 0.7347(4)
H28 H -0.1583 0.5931 0.7555
C36 C -0.3648(4) 0.5060(5) 0.5291(4)
H29 H -0.3346 0.4962 0.5133
C37 C -0.4223(4) 0.4915(5) 0.4966(4)
H30 H -0.4313 0.4703 0.4603
C38 C -0.4683(3) 0.5079(4) 0.5172(3)
C39 C -0.4516(4) 0.5360(5) 0.5720(4)
H31 H -0.4808 0.5472 0.5886
C40 C -0.3918(4) 0.5474(4) 0.6015(3)
H32 H -0.3810 0.5667 0.6388
P1 P -0.32946(9) 0.51901(10) 0.36637(9)
P2 P -0.18210(9) 0.47585(9) 0.35740(8)
Mo1 Mo -0.23047(3) 0.63241(3) 0.38186(3)
Mo2 Mo -0.19751(3) 0.51888(3) 0.48573(3)
Mo3 Mo -0.31484(3) 0.39700(3) 0.27953(3)
Mo4 Mo -0.28014(3) 0.54236(3) 0.24387(3)
Mo5 Mo -0.25704(3) 0.37854(3) 0.42655(3)
O1 O -0.2559(3) 0.6084(3) 0.3015(2)
O2 O -0.2901(2) 0.4851(3) 0.4212(2)
O3 O -0.1927(2) 0.5264(2) 0.3983(2)
O4 O -0.1920(2) 0.5051(2) 0.2991(2)
O5 O -0.2890(2) 0.4516(2) 0.2299(2)
O6 O -0.3215(2) 0.3753(3) 0.3539(2)
O7 O -0.2213(2) 0.6042(3) 0.4602(2)
O8 O -0.2262(3) 0.5166(3) 0.5407(2)
O9 O -0.1578(2) 0.6531(3) 0.3937(2)
O10 O -0.2484(3) 0.5659(3) 0.1942(2)
O11 O -0.3893(3) 0.3911(3) 0.2393(2)
O12 O -0.2638(3) 0.7046(3) 0.3790(3)
O13 O -0.1229(2) 0.5295(3) 0.5211(2)
O14 O -0.3533(3) 0.5634(3) 0.2102(2)
O15 O -0.2223(3) 0.3082(3) 0.4259(3)
O16 O -0.2956(3) 0.3647(3) 0.4724(3)
O17 O -0.1912(2) 0.4286(3) 0.4733(2)
O18 O -0.1145(3) 0.4554(3) 0.3830(3)
O19 O -0.3204(2) 0.5895(3) 0.3699(2)
O20 O -0.3961(2) 0.5049(3) 0.3601(3)
O21 O -0.3183(2) 0.4937(2) 0.3125(2)
O22 O -0.2212(2) 0.4169(2) 0.3538(2)
O23 O -0.2854(3) 0.3281(3) 0.2642(3)
N1G N 1.1749(3) 0.7677(3) 0.7107(3)
N2G N -1.6386(3) 0.8133(3) -0.2243(3)
N2G_2 N 1.3614(3) 0.8133(3) 0.7757(3)
N3G N -1.3234(3) 0.8307(4) -0.1150(3)
N4G N 0.3647(3) 0.6731(4) 0.4390(3)
N5G N 0.6799(3) 0.6802(3) 0.5248(3)
N6G N 0.8677(3) 0.6934(4) 0.5832(3)
Ag1G Ag 1.26661(3) 0.79688(3) 0.74118(3)
Ag1G_2 Ag -1.73339(3) 0.79688(3) -0.25882(3)
Ag2G Ag 0.77373(3) 0.68183(4) 0.54609(3)
Ag3G Ag -1.22919(3) 0.82951(4) -0.08401(3)
C1G C 1.1334(4) 0.7947(4) 0.7279(3)
H1G H 1.1459 0.8255 0.7581
C2G C 1.0735(3) 0.7805(4) 0.7046(3)
H2G H 1.0455 0.8021 0.7177
C3G C 1.0541(3) 0.7340(4) 0.6615(3)
C4G C 1.0965(4) 0.7050(4) 0.6442(4)
H3G H 1.0849 0.6729 0.6152
C5G C 1.1565(3) 0.7223(4) 0.6687(4)
H4G H 1.1852 0.7018 0.6558
C6G C 0.9496(4) 0.7335(5) 0.6614(4)
H5G H 0.9631 0.7536 0.6984
C7G C 0.9905(3) 0.7177(4) 0.6353(3)
C8G C 0.9670(4) 0.6857(4) 0.5814(4)
H6G H 0.9928 0.6716 0.5618
C9G C 0.9061(4) 0.6752(4) 0.5576(4)
H7G H 0.8908 0.6540 0.5211
C10G C -1.6117(4) 0.8694(4) -0.2195(5)
H8G H -1.6355 0.9065 -0.2320
C11G C -1.5500(4) 0.8752(4) -0.1967(4)
H9G H -1.5324 0.9162 -0.1944
C12G C -1.5135(4) 0.8230(4) -0.1774(4)
C13G C -1.5433(4) 0.7654(5) -0.1800(4)
H10G H -1.5210 0.7277 -0.1658
C14G C -1.6040(4) 0.7627(5) -0.2026(5)
H11G H -1.6229 0.7228 -0.2032
C15G C -1.3564(4) 0.8799(5) -0.1124(5)
H12G H -1.3362 0.9181 -0.0961
C16G C -1.4170(4) 0.8806(5) -0.1310(6)
H13G H -1.4377 0.9179 -0.1272
C17G C -1.4480(4) 0.8267(4) -0.1555(4)
C18G C -1.4151(4) 0.7743(5) -0.1600(5)
H14G H -1.4350 0.7361 -0.1767
C19G C -1.3529(4) 0.7771(5) -0.1401(5)
H15G H -1.3308 0.7409 -0.1442
C20G C 0.3946(4) 0.6375(4) 0.4128(4)
H16G H 0.3719 0.6105 0.3819
C21G C 0.4554(3) 0.6373(4) 0.4276(4)
H17G H 0.4741 0.6118 0.4068
C22G C 0.4896(3) 0.6752(4) 0.4738(3)
C23G C 0.4596(4) 0.7127(5) 0.5012(4)
H18G H 0.4815 0.7391 0.5330
C24G C 0.3977(4) 0.7116(6) 0.4823(4)
H19G H 0.3778 0.7389 0.5005
C25G C 0.6469(4) 0.6546(5) 0.4738(4)
H20G H 0.6660 0.6379 0.4488
C26G C 0.5856(4) 0.6521(5) 0.4571(4)
H21G H 0.5632 0.6332 0.4209
C27G C 0.5558(3) 0.6764(4) 0.4919(3)
C28G C 0.5913(4) 0.7030(4) 0.5439(4)
H22G H 0.5737 0.7207 0.5698
C29G C 0.6533(4) 0.7037(4) 0.5582(4)
H23G H 0.6771 0.7223 0.5942
C30G C 0.8902(4) 0.7208(6) 0.6349(4)
H24G H 0.8636 0.7321 0.6545
N7A N 0.1572(3) 0.5679(4) 0.8220(3)
N7D N -0.8428(3) 0.4321(4) 0.3220(3)
N8D N -0.6521(3) 0.4669(4) 0.4183(3)
Ag4A Ag 0.25338(3) 0.55271(4) 0.86709(3)
Ag4D Ag -0.74662(3) 0.44729(4) 0.36709(3)
Ag4G Ag 1.24662(3) 0.94729(4) 1.13291(3)
C31A C 0.1195(4) 0.5546(5) 0.8493(4)
H25A H 0.1359 0.5434 0.8893
C32A C 0.0584(4) 0.5559(5) 0.8237(4)
H26A H 0.0338 0.5473 0.8461
C33A C 0.0331(3) 0.5698(4) 0.7657(3)
C34A C 0.0718(4) 0.5843(5) 0.7362(3)
H27A H 0.0564 0.5951 0.6960
C35A C 0.1326(4) 0.5829(5) 0.7653(4)
H28A H 0.1583 0.5931 0.7445
C36D C -0.6352(4) 0.4940(5) 0.4709(4)
H29D H -0.6654 0.5038 0.4867
C37D C -0.5777(4) 0.5085(5) 0.5034(4)
H30D H -0.5687 0.5297 0.5397
C38D C -0.5317(3) 0.4921(4) 0.4828(3)
C39D C -0.5484(4) 0.4640(5) 0.4280(4)
H31D H -0.5192 0.4528 0.4114
C40D C -0.6082(4) 0.4526(4) 0.3985(3)
H32D H -0.6190 0.4333 0.3612
P1G P 1.17054(9) 0.98099(10) 0.86637(9)
P2G P 1.31790(9) 1.02415(9) 0.85740(8)
Mo1G Mo 1.26953(3) 0.86759(3) 0.88186(3)
Mo2G Mo 1.30249(3) 0.98112(3) 0.98573(3)
Mo3G Mo 1.18516(3) 1.10300(3) 0.77953(3)
Mo4G Mo 1.21986(3) 0.95764(3) 0.74387(3)
Mo5G Mo 1.24296(3) 1.12146(3) 0.92655(3)
O1G O 1.2441(3) 0.8916(3) 0.8015(2)
O2G O 1.2099(2) 1.0149(3) 0.9212(2)
O3G O 1.3073(2) 0.9736(2) 0.8983(2)
O4G O 1.3080(2) 0.9949(2) 0.7991(2)
O5G O 1.2110(2) 1.0484(2) 0.7299(2)
O6G O 1.1785(2) 1.1247(3) 0.8539(2)
O7G O 1.2787(2) 0.8958(3) 0.9602(2)
O8G O 1.2738(3) 0.9834(3) 1.0407(2)
O8D O -0.7738(3) 0.4834(3) 0.4593(2)
O9G O 1.3422(2) 0.8469(3) 0.8937(2)
O10G O 1.2516(3) 0.9341(3) 0.6942(2)
O11G O 1.1107(3) 1.1089(3) 0.7393(2)
O12G O 1.2362(3) 0.7954(3) 0.8790(3)
O13G O 1.3771(2) 0.9705(3) 1.0211(2)
O14G O 1.1467(3) 0.9366(3) 0.7102(2)
O15G O 1.2777(3) 1.1918(3) 0.9259(3)
O16G O 1.2044(3) 1.1353(3) 0.9724(3)
O17G O 1.3088(2) 1.0714(3) 0.9733(2)
O18G O 1.3855(3) 1.0446(3) 0.8830(3)
O19G O 1.1796(2) 0.9105(3) 0.8699(2)
O20G O 1.1039(2) 0.9951(3) 0.8601(3)
O21G O 1.1817(2) 1.0063(2) 0.8125(2)
O22G O 1.2788(2) 1.0831(2) 0.8538(2)
O23G O 1.2146(3) 1.1719(3) 0.7642(3)
O24 O -0.4239(4) 0.8880(4) 0.0202(3)
O25 O 0.9546(7) 0.5896(7) 0.4513(6)
O26 O 0.4315(7) 0.6139(7) 0.6217(7)
O27 O 0.5000 0.3609(15) 0.2500
O28 O 0.9540(10) 0.8779(11) 0.6988(10)
O29 O 0.5391(15) 0.5227(15) 0.2059(14)
loop_
_geom_bond_atom_site_label_1
_geom_bond_atom_site_label_2
_geom_bond_site_symmetry_1
_geom_bond_site_symmetry_2
N1 Ag1 1_555 1_555
N2 Ag1 1_555 1_555
N3 Ag3 1_555 1_555
N4 C20 1_555 1_555
N5 Ag2 1_555 1_555
N6 Ag2 1_555 1_555
Ag1 O1 1_555 1_555
Ag3 N4G 1_555 1_555
C1 N1 1_555 1_555
H1 C1 1_555 1_555
C2 C1 1_555 1_555
H2 C2 1_555 1_555
C3 C2 1_555 1_555
C4 C3 1_555 1_555
H3 C4 1_555 1_555
C5 N1 1_555 1_555
H4 C5 1_555 1_555
C6 H5 1_555 1_555
C7 C3 1_555 1_555
C8 C7 1_555 1_555
H6 C8 1_555 1_555
C9 N6 1_555 1_555
H7 C9 1_555 1_555
C10 N2 1_555 1_555
H8 C10 1_555 1_555
C11 C10 1_555 1_555
H9 C11 1_555 1_555
C12 C11 1_555 1_555
C13 C12 1_555 1_555
H10 C13 1_555 1_555
C14 N2 1_555 1_555
H11 C14 1_555 1_555
C15 N3 1_555 1_555
H12 C15 1_555 1_555
C16 C15 1_555 1_555
H13 C16 1_555 1_555
C17 C12 1_555 1_555
C18 C17 1_555 1_555
H14 C18 1_555 1_555
C19 N3 1_555 1_555
H15 C19 1_555 1_555
C20 H16 1_555 1_555
C21 C20 1_555 1_555
H17 C21 1_555 1_555
C22 C21 1_555 1_555
C23 C22 1_555 1_555
H18 C23 1_555 1_555
C24 N4 1_555 1_555
H19 C24 1_555 1_555
C25 N5 1_555 1_555
H20 C25 1_555 1_555
C26 C25 1_555 1_555
H21 C26 1_555 1_555
C27 C22 1_555 1_555
C28 C27 1_555 1_555
H22 C28 1_555 1_555
C29 N5 1_555 1_555
H23 C29 1_555 1_555
C30 N6 1_555 1_555
H24 C30 1_555 1_555
N7 Ag4 1_555 1_555
N8 Ag4 1_555 1_555
Ag4 O8 1_555 1_555
C31 N7 1_555 1_555
H25 C31 1_555 1_555
C32 C31 1_555 1_555
H26 C32 1_555 1_555
C33 C32 1_555 1_555
C34 C33 1_555 1_555
H27 C34 1_555 1_555
C35 N7 1_555 1_555
H28 C35 1_555 1_555
C36 N8 1_555 1_555
H29 C36 1_555 1_555
C37 C36 1_555 1_555
H30 C37 1_555 1_555
C38 C37 1_555 1_555
C39 C38 1_555 1_555
H31 C39 1_555 1_555
C40 N8 1_555 1_555
H32 C40 1_555 1_555
P1 O2 1_555 1_555
P2 O3 1_555 1_555
Mo1 O1 1_555 1_555
Mo2 O2 1_555 1_555
Mo3 O5 1_555 1_555
Mo4 O1 1_555 1_555
Mo5 O2 1_555 1_555
O3 Mo1 1_555 1_555
O4 P2 1_555 1_555
O5 Mo4 1_555 1_555
O6 Mo3 1_555 1_555
O7 Mo1 1_555 1_555
O8 Mo2 1_555 1_555
O9 Mo1 1_555 1_555
O10 Mo4 1_555 1_555
O11 Mo3 1_555 1_555
O12 Mo1 1_555 1_555
O13 Mo2 1_555 1_555
O14 Mo4 1_555 1_555
O15 Mo5 1_555 1_555
O16 Mo5 1_555 1_555
O17 Mo2 1_555 1_555
O18 P2 1_555 1_555
O19 P1 1_555 1_555
O20 P1 1_555 1_555
O21 P1 1_555 1_555
O22 P2 1_555 1_555
O23 Mo3 1_555 1_555
N1G Ag1G 1_555 1_555
N2G Ag1G_2 1_555 1_555
N2G_2 Ag1G 1_555 1_555
N3G Ag3G 1_555 1_555
N4G C20G 1_555 1_555
N5G Ag2G 1_555 1_555
N6G Ag2G 1_555 1_555
Ag1G O1G 1_555 1_555
Ag3G N4 1_555 1_555
C1G N1G 1_555 1_555
H1G C1G 1_555 1_555
C2G C1G 1_555 1_555
H2G C2G 1_555 1_555
C3G C2G 1_555 1_555
C4G C3G 1_555 1_555
H3G C4G 1_555 1_555
C5G N1G 1_555 1_555
H4G C5G 1_555 1_555
C6G H5G 1_555 1_555
C7G C3G 1_555 1_555
C8G C7G 1_555 1_555
H6G C8G 1_555 1_555
C9G N6G 1_555 1_555
H7G C9G 1_555 1_555
C10G N2G 1_555 1_555
H8G C10G 1_555 1_555
C11G C10G 1_555 1_555
H9G C11G 1_555 1_555
C12G C11G 1_555 1_555
C13G C12G 1_555 1_555
H10G C13G 1_555 1_555
C14G N2G 1_555 1_555
H11G C14G 1_555 1_555
C15G N3G 1_555 1_555
H12G C15G 1_555 1_555
C16G C15G 1_555 1_555
H13G C16G 1_555 1_555
C17G C12G 1_555 1_555
C18G C17G 1_555 1_555
H14G C18G 1_555 1_555
C19G N3G 1_555 1_555
H15G C19G 1_555 1_555
C20G H16G 1_555 1_555
C21G C20G 1_555 1_555
H17G C21G 1_555 1_555
C22G C21G 1_555 1_555
C23G C22G 1_555 1_555
H18G C23G 1_555 1_555
C24G N4G 1_555 1_555
H19G C24G 1_555 1_555
C25G N5G 1_555 1_555
H20G C25G 1_555 1_555
C26G C25G 1_555 1_555
H21G C26G 1_555 1_555
C27G C22G 1_555 1_555
C28G C27G 1_555 1_555
H22G C28G 1_555 1_555
C29G N5G 1_555 1_555
H23G C29G 1_555 1_555
C30G N6G 1_555 1_555
H24G C30G 1_555 1_555
N7A Ag4A 1_555 1_555
N7D Ag4D 1_555 1_555
N8D Ag4D 1_555 1_555
Ag4D O8D 1_555 1_555
Ag4G O8G 1_555 1_555
C31A N7A 1_555 1_555
H25A C31A 1_555 1_555
C32A C31A 1_555 1_555
H26A C32A 1_555 1_555
C33A C33 1_555 1_555
C34A C33A 1_555 1_555
H27A C34A 1_555 1_555
C35A N7A 1_555 1_555
H28A C35A 1_555 1_555
C36D N8D 1_555 1_555
H29D C36D 1_555 1_555
C37D C36D 1_555 1_555
H30D C37D 1_555 1_555
C38D C38 1_555 1_555
C39D C38D 1_555 1_555
H31D C39D 1_555 1_555
C40D N8D 1_555 1_555
H32D C40D 1_555 1_555
P1G O2G 1_555 1_555
P2G O3G 1_555 1_555
Mo1G O1G 1_555 1_555
Mo2G O2G 1_555 1_555
Mo3G O5G 1_555 1_555
Mo4G O1G 1_555 1_555
Mo5G O2G 1_555 1_555
O3G Mo1G 1_555 1_555
O4G P2G 1_555 1_555
O5G Mo4G 1_555 1_555
O6G Mo3G 1_555 1_555
O7G Mo1G 1_555 1_555
O8G Mo2G 1_555 1_555
O9G Mo1G 1_555 1_555
O10G Mo4G 1_555 1_555
O11G Mo3G 1_555 1_555
O12G Mo1G 1_555 1_555
O13G Mo2G 1_555 1_555
O14G Mo4G 1_555 1_555
O15G Mo5G 1_555 1_555
O16G Mo5G 1_555 1_555
O17G Mo2G 1_555 1_555
O18G P2G 1_555 1_555
O19G P1G 1_555 1_555
O20G P1G 1_555 1_555
O21G P1G 1_555 1_555
O22G P2G 1_555 1_555
O23G Mo3G 1_555 1_555
C4 C5 1_555 1_555
C6 C7 1_555 1_555
C6 C30 1_555 1_555
C8 C9 1_555 1_555
C13 C14 1_555 1_555
C16 C17 1_555 1_555
C18 C19 1_555 1_555
C23 C24 1_555 1_555
C26 C27 1_555 1_555
C28 C29 1_555 1_555
C34 C35 1_555 1_555
C39 C40 1_555 1_555
Mo1 O19 1_555 1_555
Mo2 O3 1_555 1_555
Mo2 O7 1_555 1_555
Mo3 O21 1_555 1_555
Mo3 O22 1_555 1_555
Mo4 O4 1_555 1_555
Mo4 O21 1_555 1_555
Mo5 O6 1_555 1_555
Mo5 O17 1_555 1_555
Mo5 O22 1_555 1_555
C4G C5G 1_555 1_555
C6G C7G 1_555 1_555
C6G C30G 1_555 1_555
C8G C9G 1_555 1_555
C13G C14G 1_555 1_555
C16G C17G 1_555 1_555
C18G C19G 1_555 1_555
C23G C24G 1_555 1_555
C26G C27G 1_555 1_555
C28G C29G 1_555 1_555
C32A C33A 1_555 1_555
C34A C35A 1_555 1_555
C37D C38D 1_555 1_555
C39D C40D 1_555 1_555
Mo1G O19G 1_555 1_555
Mo2G O3G 1_555 1_555
Mo2G O7G 1_555 1_555
Mo3G O21G 1_555 1_555
Mo3G O22G 1_555 1_555
Mo4G O4G 1_555 1_555
Mo4G O21G 1_555 1_555
Mo5G O6G 1_555 1_555
Mo5G O17G 1_555 1_555
Mo5G O22G 1_555 1_555

#END
