
#######################################################################
#
#                 Cambridge Crystallographic Data Centre
#                                CCDC 
#
#######################################################################
#
# If this CIF has been generated from an entry in the Cambridge 
# Structural Database, then it will include bibliographic, chemical, 
# crystal, experimental, refinement or atomic coordinate data resulting 
# from the CCDC's data processing and validation procedures.
#
#######################################################################

data_XUKXOR
_symmetry_cell_setting           triclinic
_symmetry_space_group_name_H-M   'P -1'
_symmetry_Int_Tables_number      2
_space_group_name_Hall           '-P 1'
loop_
_symmetry_equiv_pos_site_id
_symmetry_equiv_pos_as_xyz
1 x,y,z
2 -x,-y,-z
_cell_length_a                   4.9113(10)
_cell_length_b                   11.550(2)
_cell_length_c                   12.756(3)
_cell_angle_alpha                85.23(3)
_cell_angle_beta                 85.84(3)
_cell_angle_gamma                83.10(3)
_cell_volume                     714.43
loop_
_atom_site_label
_atom_site_type_symbol
_atom_site_fract_x
_atom_site_fract_y
_atom_site_fract_z
La1 La -0.47528(6) 0.17402(2) -0.30842(2)
N1 N -0.1997(8) -0.2842(3) -0.1071(3)
N2 N 0.3017(8) 0.6099(3) -0.2702(3)
C1 C 0.0799(10) 0.0017(4) -0.1774(4)
C2 C 0.0338(10) -0.1121(4) -0.1164(4)
C3 C 0.1897(10) -0.1600(4) -0.0333(4)
H1 H 0.3169 -0.1178 -0.0076
H2 H -0.0692 -0.4031 0.0036
H3 H -0.2637 -0.1433 -0.2050
H4 H -0.2472 0.5829 -0.4484
H5 H 0.3068 0.7650 -0.3465
H6 H 0.2438 0.4482 -0.2226
C4 C 0.1540(9) -0.2709(4) 0.0108(4)
C5 C -0.0428(10) -0.3290(4) -0.0273(4)
C6 C -0.1580(10) -0.1759(4) -0.1502(4)
C7 C 0.3232(10) -0.3327(4) 0.0966(4)
C8 C -0.1197(10) 0.3790(4) -0.3341(4)
C9 C -0.0138(9) 0.4955(4) -0.3374(4)
C10 C -0.1033(9) 0.5882(4) -0.4063(4)
C11 C 0.0249(9) 0.6892(4) -0.4117(4)
C12 C 0.2226(9) 0.6967(4) -0.3429(4)
C13 C 0.1864(10) 0.5104(4) -0.2702(4)
C14 C -0.0557(10) 0.7896(4) -0.4918(4)
O1 O -0.0896(7) 0.0397(3) -0.2455(3)
O2 O 0.2873(7) 0.0494(3) -0.1626(3)
O3 O 0.3290(7) -0.4400(3) 0.1090(3)
O4 O 0.4608(7) -0.2708(3) 0.1463(3)
O5 O 0.0258(7) 0.2900(3) -0.2957(3)
O6 O -0.3470(7) 0.3740(3) -0.3719(3)
O7 O -0.2973(7) 0.7989(3) -0.5194(3)
O8 O 0.1233(7) 0.8564(3) -0.5274(3)
O9 O -0.5681(8) -0.0298(3) -0.3776(3)
Cu1 Cu -0.43240(13) -0.37539(5) -0.17131(5)
La1_2 La 0.52472(6) 0.17402(2) -0.30842(2)
La1A La 0.47528(6) -0.17402(2) 0.30842(2)
La1A_2 La -0.52472(6) 0.82598(2) -0.69158(2)
La1A_3 La 0.47528(6) 0.82598(2) -0.69158(2)
N2_2 N -0.6983(8) -0.3901(3) -0.2702(3)
O2_2 O -0.7127(7) 0.0494(3) -0.1626(3)
O3A O -0.3290(7) -0.5600(3) -0.1090(3)
O4A O -0.4608(7) 0.2708(3) -0.1463(3)
O5_2 O -0.9742(7) 0.2900(3) -0.2957(3)
O7A O -0.7027(7) 0.2011(3) -0.4806(3)
O8A O -0.1233(7) 0.1436(3) -0.4726(3)
Cu1_2 Cu 0.56760(13) 0.62461(5) -0.17131(5)
Cu1A Cu 0.43240(13) -0.62461(5) 0.17131(5)
loop_
_geom_bond_atom_site_label_1
_geom_bond_atom_site_label_2
_geom_bond_site_symmetry_1
_geom_bond_site_symmetry_2
La1 O1 1_555 1_555
N1 C5 1_555 1_555
N2 C12 1_555 1_555
C1 C2 1_555 1_555
C2 C3 1_555 1_555
C3 H1 1_555 1_555
H2 C5 1_555 1_555
H3 C6 1_555 1_555
H4 C10 1_555 1_555
H5 C12 1_555 1_555
H6 C13 1_555 1_555
C4 C3 1_555 1_555
C5 C4 1_555 1_555
C6 N1 1_555 1_555
C7 C4 1_555 1_555
C8 C9 1_555 1_555
C9 C10 1_555 1_555
C10 C11 1_555 1_555
C11 C12 1_555 1_555
C13 N2 1_555 1_555
C14 C11 1_555 1_555
O1 C1 1_555 1_555
O2 C1 1_555 1_555
O3 C7 1_555 1_555
O4 C7 1_555 1_555
O5 La1 1_555 1_555
O6 La1 1_555 1_555
O7 C14 1_555 1_555
O8 C14 1_555 1_555
O9 La1 1_555 1_555
Cu1 N1 1_555 1_555
La1_2 O2 1_555 1_555
La1A O4 1_555 1_555
La1A_2 O7 1_555 1_555
La1A_3 O8 1_555 1_555
N2_2 Cu1 1_555 1_555
O2_2 La1 1_555 1_555
O3A Cu1 1_555 1_555
O4A La1 1_555 1_555
O5_2 La1 1_555 1_555
O7A La1 1_555 1_555
O8A La1 1_555 1_555
Cu1_2 N2 1_555 1_555
Cu1A O3 1_555 1_555
C2 C6 1_555 1_555
C8 O5 1_555 1_555
C8 O6 1_555 1_555
C9 C13 1_555 1_555
O5 La1_2 1_555 1_555

#END
