
#######################################################################
#
#                 Cambridge Crystallographic Data Centre
#                                CCDC 
#
#######################################################################
#
# If this CIF has been generated from an entry in the Cambridge 
# Structural Database, then it will include bibliographic, chemical, 
# crystal, experimental, refinement or atomic coordinate data resulting 
# from the CCDC's data processing and validation procedures.
#
#######################################################################

data_XUKXAD
_symmetry_cell_setting           monoclinic
_symmetry_space_group_name_H-M   'P 2/c'
_symmetry_Int_Tables_number      13
_space_group_name_Hall           '-P 2yc'
loop_
_symmetry_equiv_pos_site_id
_symmetry_equiv_pos_as_xyz
1 x,y,z
2 -x,y,1/2-z
3 -x,-y,-z
4 x,-y,1/2+z
_cell_length_a                   14.59(3)
_cell_length_b                   6.127(8)
_cell_length_c                   17.55(3)
_cell_angle_alpha                90
_cell_angle_beta                 114.17(12)
_cell_angle_gamma                90
_cell_volume                     1431.31
loop_
_atom_site_label
_atom_site_type_symbol
_atom_site_fract_x
_atom_site_fract_y
_atom_site_fract_z
Na1 Na 0.0000 0.6416(2) 0.2500
C1 C 0.24626(16) 0.6769(3) 0.19770(13)
C2 C 0.17326(19) 0.8261(4) 0.14955(14)
H1 H 0.1073 0.8064 0.1430
C3 C 0.1958(2) 1.0007(4) 0.11166(16)
H2 H 0.1461 1.0984 0.0799
C4 C 0.2942(2) 1.0287(5) 0.12159(17)
H3 H 0.3104 1.1468 0.0962
C5 C 0.3681(2) 0.8857(4) 0.16821(17)
H4 H 0.4335 0.9076 0.1735
C6 C 0.34669(17) 0.7065(4) 0.20815(15)
C7 C 0.21225(16) 0.4944(3) 0.23564(14)
C8 C 0.33199(17) 0.0570(4) 0.36559(15)
H5 H 0.3979 0.0906 0.3749
C9 C 0.31123(16) -0.1331(4) 0.40531(13)
C10 C 0.21339(15) -0.1993(3) 0.38722(13)
C11 C 0.19598(16) -0.3856(4) 0.42554(13)
C12 C 0.27531(18) -0.4990(4) 0.48330(14)
H6 H 0.2635 -0.6206 0.5097
C13 C 0.37289(19) -0.4319(4) 0.50205(16)
H7 H 0.4266 -0.5084 0.5412
C14 C 0.39051(17) -0.2537(4) 0.46325(15)
H8 H 0.4563 -0.2120 0.4755
C15 C 0.0739(2) -0.6265(5) 0.43748(18)
H9 H 0.1069 -0.7516 0.4274
H10 H 0.0026 -0.6504 0.4136
H11 H 0.0970 -0.6039 0.4966
N1 N 0.28497(13) 0.3547(3) 0.28241(12)
N2 N 0.26045(13) 0.1780(3) 0.31805(11)
O1 O 0.41904(12) 0.5721(3) 0.25467(12)
O2 O 0.12457(11) 0.4706(3) 0.22586(11)
O3 O 0.13115(10) -0.0918(2) 0.33102(9)
O4 O 0.09629(11) -0.4385(3) 0.40023(10)
H12 H 0.348(2) 0.381(4) 0.2852(16)
H13 H 0.5000 0.564(7) 0.2500
Na1_2 Na 0.0000 -0.3584(2) 0.2500
Na1_3 Na 1.0000 -0.3584(2) 0.2500
Na1_4 Na 1.0000 0.6416(2) 0.2500
C1A C 0.75374(16) 0.6769(3) 0.30230(13)
C2A C 0.82674(19) 0.8261(4) 0.35045(14)
H1A H 0.8927 0.8064 0.3570
C3A C 0.8042(2) 1.0007(4) 0.38834(16)
H2A H 0.8539 1.0984 0.4201
C4A C 0.7058(2) 1.0287(5) 0.37841(17)
H3A H 0.6896 1.1468 0.4038
C5A C 0.6319(2) 0.8857(4) 0.33179(17)
H4A H 0.5665 0.9076 0.3265
C6A C 0.65331(17) 0.7065(4) 0.29185(15)
C7A C 0.78775(16) 0.4944(3) 0.26436(14)
C8A C 0.66801(17) 0.0570(4) 0.13441(15)
H5A H 0.6021 0.0906 0.1251
C9A C 0.68877(16) -0.1331(4) 0.09469(13)
C10A C 0.78661(15) -0.1993(3) 0.11278(13)
C11A C 0.80402(16) -0.3856(4) 0.07446(13)
C12A C 0.72469(18) -0.4990(4) 0.01670(14)
H6A H 0.7365 -0.6206 -0.0097
C13A C 0.62711(19) -0.4319(4) -0.00205(16)
H7A H 0.5734 -0.5084 -0.0412
C14A C 0.60949(17) -0.2537(4) 0.03675(15)
H8A H 0.5437 -0.2120 0.0245
C15A C 0.9261(2) -0.6265(5) 0.06252(18)
H9A H 0.8931 -0.7516 0.0726
H10A H 0.9974 -0.6504 0.0864
H11A H 0.9030 -0.6039 0.0034
N1A N 0.71503(13) 0.3547(3) 0.21759(12)
N2A N 0.73955(13) 0.1780(3) 0.18195(11)
O1A O 0.58096(12) 0.5721(3) 0.24533(12)
O2A O 0.87543(11) 0.4706(3) 0.27414(11)
O2A_2 O -0.12457(11) 0.4706(3) 0.27414(11)
O3A O 0.86885(10) -0.0918(2) 0.16898(9)
O3_2 O 0.13115(10) 0.9082(2) 0.33102(9)
O3A_2 O -0.13115(10) 0.9082(2) 0.16898(9)
O4A O 0.90371(11) -0.4385(3) 0.09977(10)
O4A_2 O -0.09629(11) 0.5615(3) 0.09977(10)
O4_2 O 0.09629(11) 0.5615(3) 0.40023(10)
H12A H 0.652(2) 0.381(4) 0.2148(16)
loop_
_geom_bond_atom_site_label_1
_geom_bond_atom_site_label_2
_geom_bond_site_symmetry_1
_geom_bond_site_symmetry_2
Na1 O2 1_555 1_555
C1 C2 1_555 1_555
C2 H1 1_555 1_555
C3 C2 1_555 1_555
H2 C3 1_555 1_555
C4 C3 1_555 1_555
H3 C4 1_555 1_555
C5 C4 1_555 1_555
H4 C5 1_555 1_555
C6 C1 1_555 1_555
C7 C1 1_555 1_555
C8 H5 1_555 1_555
C9 C8 1_555 1_555
C10 C9 1_555 1_555
C11 C10 1_555 1_555
C12 C11 1_555 1_555
H6 C12 1_555 1_555
C13 C12 1_555 1_555
H7 C13 1_555 1_555
C14 C9 1_555 1_555
H8 C14 1_555 1_555
C15 H9 1_555 1_555
H10 C15 1_555 1_555
H11 C15 1_555 1_555
N1 C7 1_555 1_555
N2 C8 1_555 1_555
O1 C6 1_555 1_555
O2 C7 1_555 1_555
O3 C10 1_555 1_555
O4 C11 1_555 1_555
H12 N1 1_555 1_555
H13 O1 1_555 1_555
Na1_2 O3 1_555 1_555
Na1_3 O3A 1_555 1_555
Na1_4 O2A 1_555 1_555
C1A C2A 1_555 1_555
C2A H1A 1_555 1_555
C3A C2A 1_555 1_555
H2A C3A 1_555 1_555
C4A C3A 1_555 1_555
H3A C4A 1_555 1_555
C5A C4A 1_555 1_555
H4A C5A 1_555 1_555
C6A C1A 1_555 1_555
C7A C1A 1_555 1_555
C8A H5A 1_555 1_555
C9A C8A 1_555 1_555
C10A C9A 1_555 1_555
C11A C10A 1_555 1_555
C12A C11A 1_555 1_555
H6A C12A 1_555 1_555
C13A C12A 1_555 1_555
H7A C13A 1_555 1_555
C14A C9A 1_555 1_555
H8A C14A 1_555 1_555
C15A H9A 1_555 1_555
H10A C15A 1_555 1_555
H11A C15A 1_555 1_555
N1A C7A 1_555 1_555
N2A C8A 1_555 1_555
O1A H13 1_555 1_555
O2A C7A 1_555 1_555
O2A_2 Na1 1_555 1_555
O3A C10A 1_555 1_555
O3_2 Na1 1_555 1_555
O3A_2 Na1 1_555 1_555
O4A Na1_3 1_555 1_555
O4A_2 Na1 1_555 1_555
O4_2 Na1 1_555 1_555
H12A N1A 1_555 1_555
C5 C6 1_555 1_555
C13 C14 1_555 1_555
C15 O4 1_555 1_555
N1 N2 1_555 1_555
O4 Na1_2 1_555 1_555
C5A C6A 1_555 1_555
C6A O1A 1_555 1_555
C11A O4A 1_555 1_555
C13A C14A 1_555 1_555
C15A O4A 1_555 1_555
N1A N2A 1_555 1_555

#END
