
#######################################################################
#
#                 Cambridge Crystallographic Data Centre
#                                CCDC 
#
#######################################################################
#
# If this CIF has been generated from an entry in the Cambridge 
# Structural Database, then it will include bibliographic, chemical, 
# crystal, experimental, refinement or atomic coordinate data resulting 
# from the CCDC's data processing and validation procedures.
#
#######################################################################

data_XUKYOS
_symmetry_cell_setting           orthorhombic
_symmetry_space_group_name_H-M   'P n a 21'
_symmetry_Int_Tables_number      33
_space_group_name_Hall           'P 2c -2n'
loop_
_symmetry_equiv_pos_site_id
_symmetry_equiv_pos_as_xyz
1 x,y,z
2 -x,-y,1/2+z
3 1/2+x,1/2-y,z
4 1/2-x,1/2+y,1/2+z
_cell_length_a                   6.6718(4)
_cell_length_b                   14.1511(8)
_cell_length_c                   15.4806(8)
_cell_angle_alpha                90
_cell_angle_beta                 90
_cell_angle_gamma                90
_cell_volume                     1461.57
loop_
_atom_site_label
_atom_site_type_symbol
_atom_site_fract_x
_atom_site_fract_y
_atom_site_fract_z
O1 O 1.4216(3) 0.50641(10) 0.61393(10)
K1 K 1.04526(8) 0.45143(3) 0.83299(3)
O2 O 0.9781(2) 0.64968(10) 0.79575(9)
O3 O 0.9524(2) 0.76848(8) 0.70504(9)
H1 H 0.9351 0.7761 0.6531
O4 O 0.8875(2) 0.78932(9) 0.54775(9)
O5 O 0.8723(3) 0.70384(9) 0.42809(10)
O6 O 1.3520(3) 0.54285(9) 0.47826(9)
H2 H 1.3736 0.5970 0.4947
O7 O 1.2256(3) 0.34586(9) 0.69595(10)
O8 O 1.2672(3) 0.19427(8) 0.66583(9)
H3 H 1.2290 0.1871 0.7157
O9 O 1.4326(2) 0.50310(11) 0.79841(10)
H4 H 1.4771 0.5498 0.8271
H5 H 1.4457 0.5184 0.7456
O10 O 0.6795(2) 0.34984(9) 0.81643(8)
H6 H 0.5817 0.3882 0.8195
H7 H 0.6450 0.3026 0.8469
N1 N 0.9098(2) 0.51935(10) 0.66736(10)
N2 N 0.8850(3) 0.48087(10) 0.59115(11)
H8 H 0.8773 0.4206 0.5848
N3 N 0.8723(2) 0.53893(10) 0.52464(9)
N4 N 1.4297(2) 0.35981(10) 0.43036(11)
N5 N 1.4208(3) 0.26660(10) 0.43057(11)
H9 H 1.4462 0.2338 0.3851
N6 N 1.3705(2) 0.22663(10) 0.50447(10)
C1 C 0.9151(3) 0.61176(12) 0.65014(11)
C2 C 0.8915(3) 0.62424(11) 0.56087(11)
C3 C 0.9505(3) 0.67914(12) 0.72252(13)
C4 C 0.8835(3) 0.71128(12) 0.50641(13)
C5 C 1.3820(3) 0.38318(12) 0.51175(11)
C6 C 1.3439(3) 0.29988(12) 0.55797(12)
C7 C 1.3868(3) 0.48379(12) 0.54142(12)
C8 C 1.2745(3) 0.28371(12) 0.64803(11)
K1A K 0.95474(8) 0.54857(3) 0.33299(3)
O5A O 1.1277(3) 0.29616(9) 0.92809(10)
N3A N 1.1277(2) 0.46107(10) 1.02464(9)
loop_
_geom_bond_atom_site_label_1
_geom_bond_atom_site_label_2
_geom_bond_site_symmetry_1
_geom_bond_site_symmetry_2
O1 C7 1_555 1_555
K1 O2 1_555 1_555
O2 C3 1_555 1_555
O3 H1 1_555 1_555
O4 C4 1_555 1_555
O5 C4 1_555 1_555
O6 H2 1_555 1_555
O7 K1 1_555 1_555
O8 H3 1_555 1_555
O9 K1 1_555 1_555
H4 O9 1_555 1_555
H5 O9 1_555 1_555
O10 K1 1_555 1_555
H6 O10 1_555 1_555
H7 O10 1_555 1_555
N1 K1 1_555 1_555
N2 N1 1_555 1_555
H8 N2 1_555 1_555
N3 N2 1_555 1_555
N4 N5 1_555 1_555
N5 H9 1_555 1_555
N6 N5 1_555 1_555
C1 N1 1_555 1_555
C2 N3 1_555 1_555
C3 O3 1_555 1_555
C4 C2 1_555 1_555
C5 N4 1_555 1_555
C6 N6 1_555 1_555
C7 O6 1_555 1_555
C8 O7 1_555 1_555
K1A O5 1_555 1_555
O5A K1 1_555 1_555
N3A K1 1_555 1_555
O8 C8 1_555 1_555
N3 K1A 1_555 1_555
C1 C2 1_555 1_555
C1 C3 1_555 1_555
C5 C6 1_555 1_555
C5 C7 1_555 1_555
C6 C8 1_555 1_555

#END
