
#######################################################################
#
#                 Cambridge Crystallographic Data Centre
#                                CCDC 
#
#######################################################################
#
# If this CIF has been generated from an entry in the Cambridge 
# Structural Database, then it will include bibliographic, chemical, 
# crystal, experimental, refinement or atomic coordinate data resulting 
# from the CCDC's data processing and validation procedures.
#
#######################################################################

data_XUKYAE
_symmetry_cell_setting           triclinic
_symmetry_space_group_name_H-M   'P -1'
_symmetry_Int_Tables_number      2
_space_group_name_Hall           '-P 1'
loop_
_symmetry_equiv_pos_site_id
_symmetry_equiv_pos_as_xyz
1 x,y,z
2 -x,-y,-z
_cell_length_a                   7.742(2)
_cell_length_b                   10.879(3)
_cell_length_c                   11.202(3)
_cell_angle_alpha                62.941(6)
_cell_angle_beta                 89.016(11)
_cell_angle_gamma                75.403(9)
_cell_volume                     807.877
loop_
_atom_site_label
_atom_site_type_symbol
_atom_site_fract_x
_atom_site_fract_y
_atom_site_fract_z
Cu1 Cu -0.65242(5) -0.00741(4) 0.27660(4)
Cu2 Cu -0.5000 0.5000 -0.5000
Cu3 Cu 0.02593(5) 0.30949(4) 0.07267(3)
Cl1 Cl -0.82815(10) 0.21305(8) 0.28570(7)
Cl2 Cl -0.43095(12) -0.21647(9) 0.39492(10)
Cl3 Cl -0.78623(11) 0.04784(8) 0.06214(7)
Cl4 Cl -0.26436(10) 0.42119(8) -0.59378(7)
Cl5 Cl 0.22666(9) 0.43112(7) -0.02856(7)
O1 O -0.8319(3) -0.1029(2) 0.3724(2)
N1 N -0.4611(3) 0.0966(2) 0.2121(2)
N2 N -0.3342(3) 0.4339(3) -0.3301(2)
N3 N -0.1101(3) 0.3590(2) -0.1050(2)
N4 N -0.1835(3) 0.2244(2) 0.1424(2)
C1 C -0.2932(4) 0.2301(3) 0.0478(3)
C2 C -0.4311(4) 0.1632(3) 0.0832(3)
H1 H -0.5044 0.1648 0.0150
C3 C -0.3574(4) 0.0983(3) 0.3049(3)
H2 H -0.3807 0.0553 0.3965
C4 C -0.2172(4) 0.1607(3) 0.2717(3)
H3 H -0.1443 0.1587 0.3403
C5 C -0.2596(4) 0.3141(3) -0.0923(3)
C6 C -0.3726(4) 0.3526(3) -0.2049(3)
H4 H -0.4787 0.3216 -0.1942
C7 C -0.1848(4) 0.4753(3) -0.3413(3)
H5 H -0.1541 0.5310 -0.4285
C8 C -0.0728(4) 0.4387(3) -0.2280(3)
H6 H 0.0321 0.4713 -0.2387
H7 H -0.7792 -0.1892 0.4248
H8 H -0.9104 -0.1004 0.3163
Cu1A Cu -0.34758(5) 1.00741(4) -1.27660(4)
Cu1_2 Cu 0.34758(5) -0.00741(4) 0.27660(4)
Cu3A Cu -1.02593(5) 0.69051(4) -1.07267(3)
Cu3_2 Cu -0.97407(5) 0.30949(4) 0.07267(3)
Cl1_2 Cl 0.17185(10) 0.21305(8) 0.28570(7)
Cl1A Cl -0.17185(10) 0.78695(8) -1.28570(7)
Cl1A_2 Cl -1.17185(10) 0.78695(8) -1.28570(7)
Cl2A Cl -0.56905(12) 1.21647(9) -1.39492(10)
Cl3A Cl -0.21377(11) 0.95216(8) -1.06214(7)
Cl4A Cl -0.73564(10) 0.57881(8) -0.40622(7)
Cl5A Cl -1.22666(9) 0.56888(7) -0.97144(7)
O1A O -0.1681(3) 1.1029(2) -1.3724(2)
N1A N -0.5389(3) 0.9034(2) -1.2121(2)
N2A N -0.6658(3) 0.5661(3) -0.6699(2)
N3A N -0.8899(3) 0.6410(2) -0.8950(2)
N4A N -0.8165(3) 0.7756(2) -1.1424(2)
C1A C -0.7068(4) 0.7699(3) -1.0478(3)
C2A C -0.5689(4) 0.8368(3) -1.0832(3)
H1A H -0.4956 0.8352 -1.0150
C3A C -0.6426(4) 0.9017(3) -1.3049(3)
H2A H -0.6193 0.9447 -1.3965
C4A C -0.7828(4) 0.8393(3) -1.2717(3)
H3A H -0.8557 0.8413 -1.3403
C5A C -0.7404(4) 0.6859(3) -0.9077(3)
C6A C -0.6274(4) 0.6474(3) -0.7951(3)
H4A H -0.5213 0.6784 -0.8058
C7A C -0.8152(4) 0.5247(3) -0.6587(3)
H5A H -0.8459 0.4690 -0.5715
C8A C -0.9272(4) 0.5613(3) -0.7720(3)
H6A H -1.0321 0.5287 -0.7613
H7A H -0.2208 1.1892 -1.4248
H8A H -0.0896 1.1004 -1.3163
O2 O -0.0772(4) -0.1467(3) 0.2461(3)
H9 H -0.1196 -0.1042 0.1661
H10 H -0.1575 -0.1783 0.2909
loop_
_geom_bond_atom_site_label_1
_geom_bond_atom_site_label_2
_geom_bond_site_symmetry_1
_geom_bond_site_symmetry_2
Cu1 Cl1 1_555 1_555
Cu2 Cl4 1_555 1_555
Cu3 Cl5 1_555 1_555
Cl1 Cu3_2 1_555 1_555
Cl2 Cu1 1_555 1_555
Cl3 Cu1 1_555 1_555
O1 Cu1 1_555 1_555
O2 H9 1_555 1_555
N1 Cu1 1_555 1_555
N2 Cu2 1_555 1_555
N3 Cu3 1_555 1_555
N4 Cu3 1_555 1_555
C1 N4 1_555 1_555
C2 N1 1_555 1_555
H1 C2 1_555 1_555
C3 N1 1_555 1_555
H2 C3 1_555 1_555
C4 N4 1_555 1_555
H3 C4 1_555 1_555
C5 N3 1_555 1_555
C6 N2 1_555 1_555
H4 C6 1_555 1_555
C7 N2 1_555 1_555
H5 C7 1_555 1_555
C8 N3 1_555 1_555
H6 C8 1_555 1_555
H7 O1 1_555 1_555
H8 O1 1_555 1_555
H10 O2 1_555 1_555
Cu1A Cl1A 1_555 1_555
Cu1_2 Cl1_2 1_555 1_555
Cu3A Cl1A_2 1_555 1_555
Cl1_2 Cu3 1_555 1_555
Cl2A Cu1A 1_555 1_555
Cl3A Cu1A 1_555 1_555
Cl4A Cu2 1_555 1_555
Cl5A Cu3A 1_555 1_555
O1A Cu1A 1_555 1_555
N1A Cu1A 1_555 1_555
N2A Cu2 1_555 1_555
N3A Cu3A 1_555 1_555
N4A Cu3A 1_555 1_555
C1A N4A 1_555 1_555
C2A N1A 1_555 1_555
H1A C2A 1_555 1_555
C3A N1A 1_555 1_555
H2A C3A 1_555 1_555
C4A N4A 1_555 1_555
H3A C4A 1_555 1_555
C5A N3A 1_555 1_555
C6A N2A 1_555 1_555
H4A C6A 1_555 1_555
C7A N2A 1_555 1_555
H5A C7A 1_555 1_555
C8A N3A 1_555 1_555
H6A C8A 1_555 1_555
H7A O1A 1_555 1_555
H8A O1A 1_555 1_555
C1 C2 1_555 1_555
C1 C5 1_555 1_555
C3 C4 1_555 1_555
C5 C6 1_555 1_555
C7 C8 1_555 1_555
C1A C2A 1_555 1_555
C1A C5A 1_555 1_555
C3A C4A 1_555 1_555
C5A C6A 1_555 1_555
C7A C8A 1_555 1_555

#END
