
#######################################################################
#
#                 Cambridge Crystallographic Data Centre
#                                CCDC 
#
#######################################################################
#
# If this CIF has been generated from an entry in the Cambridge 
# Structural Database, then it will include bibliographic, chemical, 
# crystal, experimental, refinement or atomic coordinate data resulting 
# from the CCDC's data processing and validation procedures.
#
#######################################################################

data_XUKYUY
_symmetry_cell_setting           triclinic
_symmetry_space_group_name_H-M   'P -1'
_symmetry_Int_Tables_number      2
_space_group_name_Hall           '-P 1'
loop_
_symmetry_equiv_pos_site_id
_symmetry_equiv_pos_as_xyz
1 x,y,z
2 -x,-y,-z
_cell_length_a                   9.1702(18)
_cell_length_b                   9.5403(19)
_cell_length_c                   10.462(2)
_cell_angle_alpha                82.23(3)
_cell_angle_beta                 80.54(3)
_cell_angle_gamma                78.10(2)
_cell_volume                     878.554
loop_
_atom_site_label
_atom_site_type_symbol
_atom_site_fract_x
_atom_site_fract_y
_atom_site_fract_z
Mn1 Mn 0.56553(9) 0.79362(8) 0.61261(7)
O1 O 0.4299(5) 0.6265(4) 0.6193(4)
O2 O 0.2206(5) 0.5763(4) 0.5773(5)
O3 O 0.0158(5) 0.7016(5) 0.4432(6)
H1 H 0.0799 0.6666 0.4905
O4 O -0.0433(6) 0.9000(6) 0.3154(6)
O5 O 0.7014(5) 0.7101(4) 0.4398(4)
H2 H 0.7928 0.7200 0.4278
H3 H 0.7056 0.6212 0.4342
N1 N 0.3701(5) 0.8989(4) 0.5028(4)
N2 N 0.3194(5) 1.0200(5) 0.4304(4)
N3 N 0.1956(5) 1.0100(5) 0.3839(4)
N4 N 0.4469(5) 0.8665(5) 0.8056(4)
N5 N 0.6904(6) 0.6525(5) 0.7669(4)
C1 C 0.2770(6) 0.8077(5) 0.5026(5)
C2 C 0.1665(6) 0.8791(6) 0.4262(5)
C3 C 0.3110(7) 0.6602(6) 0.5708(6)
C4 C 0.0380(7) 0.8293(8) 0.3904(7)
C5 C 0.3320(8) 0.9746(8) 0.8227(6)
H6 H 0.2998 1.0321 0.7497
C6 C 0.2566(9) 1.0064(10) 0.9462(8)
H7 H 0.1747 1.0821 0.9546
C7 C 0.3054(10) 0.9241(11) 1.0543(8)
H8 H 0.2568 0.9435 1.1370
C8 C 0.4288(9) 0.8109(9) 1.0394(6)
C9 C 0.4885(12) 0.7183(11) 1.1454(7)
H9 H 0.4439 0.7335 1.2301
C10 C 0.6039(13) 0.6128(11) 1.1273(7)
H10 H 0.6373 0.5550 1.1997
C11 C 0.6818(10) 0.5824(8) 0.9985(6)
C12 C 0.8046(11) 0.4728(9) 0.9715(9)
H11 H 0.8429 0.4105 1.0395
C13 C 0.8680(10) 0.4561(9) 0.8494(9)
H12 H 0.9513 0.3836 0.8323
C14 C 0.8087(9) 0.5485(7) 0.7465(8)
H13 H 0.8541 0.5361 0.6614
C15 C 0.6249(7) 0.6712(6) 0.8907(6)
C16 C 0.4976(7) 0.7851(7) 0.9121(5)
Mn1A Mn 0.43447(9) 1.20638(8) 0.38739(7)
N2A N 0.6806(5) 0.9800(5) 0.5696(4)
O6 O 0.9840(8) 0.1989(7) 0.1866(7)
H4 H 1.0321 0.1961 0.2501
H5 H 0.9581 0.1172 0.1952
loop_
_geom_bond_atom_site_label_1
_geom_bond_atom_site_label_2
_geom_bond_site_symmetry_1
_geom_bond_site_symmetry_2
Mn1 O1 1_555 1_555
O1 C3 1_555 1_555
O2 C3 1_555 1_555
O3 H1 1_555 1_555
O4 C4 1_555 1_555
O5 Mn1 1_555 1_555
H2 O5 1_555 1_555
H3 O5 1_555 1_555
O6 H4 1_555 1_555
H5 O6 1_555 1_555
N1 Mn1 1_555 1_555
N2 N1 1_555 1_555
N3 N2 1_555 1_555
N4 Mn1 1_555 1_555
N5 Mn1 1_555 1_555
C1 N1 1_555 1_555
C2 N3 1_555 1_555
C3 C1 1_555 1_555
C4 O3 1_555 1_555
C5 N4 1_555 1_555
H6 C5 1_555 1_555
C6 C5 1_555 1_555
H7 C6 1_555 1_555
C7 C6 1_555 1_555
H8 C7 1_555 1_555
C8 C7 1_555 1_555
C9 C8 1_555 1_555
H9 C9 1_555 1_555
C10 C9 1_555 1_555
H10 C10 1_555 1_555
C11 C10 1_555 1_555
C12 C11 1_555 1_555
H11 C12 1_555 1_555
C13 C12 1_555 1_555
H12 C13 1_555 1_555
C14 N5 1_555 1_555
H13 C14 1_555 1_555
C15 N5 1_555 1_555
C16 N4 1_555 1_555
Mn1A N2 1_555 1_555
N2A Mn1 1_555 1_555
C1 C2 1_555 1_555
C2 C4 1_555 1_555
C8 C16 1_555 1_555
C11 C15 1_555 1_555
C13 C14 1_555 1_555
C15 C16 1_555 1_555

#END
