
#######################################################################
#
#                 Cambridge Crystallographic Data Centre
#                                CCDC 
#
#######################################################################
#
# If this CIF has been generated from an entry in the Cambridge 
# Structural Database, then it will include bibliographic, chemical, 
# crystal, experimental, refinement or atomic coordinate data resulting 
# from the CCDC's data processing and validation procedures.
#
#######################################################################

data_XUKZIN
_symmetry_cell_setting           orthorhombic
_symmetry_space_group_name_H-M   'P n n a'
_symmetry_Int_Tables_number      52
_space_group_name_Hall           '-P 2a 2bc'
loop_
_symmetry_equiv_pos_site_id
_symmetry_equiv_pos_as_xyz
1 x,y,z
2 1/2-x,-y,z
3 1/2-x,1/2+y,1/2-z
4 x,1/2-y,1/2-z
5 -x,-y,-z
6 1/2+x,y,-z
7 1/2+x,1/2-y,1/2+z
8 -x,1/2+y,1/2+z
_cell_length_a                   8.8348(7)
_cell_length_b                   16.4800(13)
_cell_length_c                   22.9332(19)
_cell_angle_alpha                90
_cell_angle_beta                 90
_cell_angle_gamma                90
_cell_volume                     3339.02
loop_
_atom_site_label
_atom_site_type_symbol
_atom_site_fract_x
_atom_site_fract_y
_atom_site_fract_z
N1 N 0.2849(4) 0.2500 0.7500
H1 H 0.229(2) 0.2021(10) 0.7451(10)
H2 H 0.343(2) 0.2611(14) 0.7167(7)
H1C H 0.229(2) 0.2979(10) 0.7549(10)
H2C H 0.343(2) 0.2389(14) 0.7833(7)
Pr1 Pr 0.7500 0.0000 0.479581(6)
O1 O 0.61962(17) 0.05155(10) 0.39096(6)
O2 O 0.40060(18) 0.04216(10) 0.43697(6)
O3 O 0.63959(18) 0.10415(11) 0.28917(7)
H3 H 0.6697 0.0860 0.3204
O4 O 0.5133(2) 0.16256(12) 0.19655(7)
O5 O 0.62423(18) 0.12415(9) 0.50652(8)
O6 O 0.41189(17) 0.11802(9) 0.55907(7)
O7 O 0.3606(2) 0.23484(10) 0.62890(8)
H4 H 0.3514 0.1893 0.6149
O8 O 0.4082(2) 0.38535(12) 0.66033(9)
C1 C 0.4761(2) 0.06022(13) 0.39306(9)
C2 C 0.4013(2) 0.09270(13) 0.33968(9)
C3 C 0.4864(2) 0.11232(13) 0.29089(9)
C4 C 0.4154(3) 0.14240(14) 0.24051(10)
C5 C 0.2603(3) 0.15011(17) 0.23922(12)
H5 H 0.2123 0.1688 0.2057
C6 C 0.1754(3) 0.12985(17) 0.28836(12)
H6 H 0.0707 0.1352 0.2873
C7 C 0.2436(2) 0.10228(16) 0.33798(11)
H7 H 0.1855 0.0899 0.3706
C8 C 0.4506(4) 0.18652(19) 0.14150(11)
H8 H 0.3940 0.1422 0.1253
H9 H 0.5309 0.2011 0.1154
H10 H 0.3848 0.2323 0.1470
C9 C 0.5245(2) 0.15576(13) 0.53723(9)
C10 C 0.5398(2) 0.24398(13) 0.55027(9)
C11 C 0.4602(3) 0.27840(14) 0.59641(10)
C12 C 0.4832(3) 0.36009(16) 0.61118(12)
C13 C 0.5778(4) 0.40696(17) 0.57733(14)
H11 H 0.5905 0.4617 0.5860
C14 C 0.6540(4) 0.37310(18) 0.53054(14)
H12 H 0.7164 0.4054 0.5076
C15 C 0.6383(3) 0.29237(16) 0.51773(11)
H13 H 0.6934 0.2697 0.4873
C16 C 0.4354(4) 0.4665(2) 0.67916(17)
H14 H 0.5420 0.4743 0.6850
H15 H 0.3827 0.4761 0.7151
H16 H 0.3998 0.5037 0.6500
Pr1D Pr 0.2500 0.0000 0.520419(6)
Pr1D_2 Pr 1.2500 0.0000 0.520419(6)
O1A O 0.88038(17) -0.05155(10) 0.39096(6)
O2A O 1.09940(18) -0.04216(10) 0.43697(6)
O2D O 0.59940(18) -0.04216(10) 0.56303(6)
O2E O 0.90060(18) 0.04216(10) 0.56303(6)
O3A O 0.86041(18) -0.10415(11) 0.28917(7)
H3A H 0.8303 -0.0860 0.3204
O4A O 0.9867(2) -0.16256(12) 0.19655(7)
O5A O 0.87577(18) -0.12415(9) 0.50652(8)
O6A O 1.08811(17) -0.11802(9) 0.55907(7)
O6D O 0.58811(17) -0.11802(9) 0.44093(7)
O6E O 0.91189(17) 0.11802(9) 0.44093(7)
O7A O 1.1394(2) -0.23484(10) 0.62890(8)
H4A H 1.1486 -0.1893 0.6149
O8A O 1.0918(2) -0.38535(12) 0.66033(9)
C1A C 1.0239(2) -0.06022(13) 0.39306(9)
C2A C 1.0987(2) -0.09270(13) 0.33968(9)
C3A C 1.0136(2) -0.11232(13) 0.29089(9)
C4A C 1.0846(3) -0.14240(14) 0.24051(10)
C5A C 1.2397(3) -0.15011(17) 0.23922(12)
H5A H 1.2877 -0.1688 0.2057
C6A C 1.3246(3) -0.12985(17) 0.28836(12)
H6A H 1.4293 -0.1352 0.2873
C7A C 1.2564(2) -0.10228(16) 0.33798(11)
H7A H 1.3145 -0.0899 0.3706
C8A C 1.0494(4) -0.18652(19) 0.14150(11)
H8A H 1.1060 -0.1422 0.1253
H9A H 0.9691 -0.2011 0.1154
H10A H 1.1152 -0.2323 0.1470
C9A C 0.9755(2) -0.15576(13) 0.53723(9)
C10A C 0.9602(2) -0.24398(13) 0.55027(9)
C11A C 1.0398(3) -0.27840(14) 0.59641(10)
C12A C 1.0168(3) -0.36009(16) 0.61118(12)
C13A C 0.9222(4) -0.40696(17) 0.57733(14)
H11A H 0.9095 -0.4617 0.5860
C14A C 0.8460(4) -0.37310(18) 0.53054(14)
H12A H 0.7836 -0.4054 0.5076
C15A C 0.8617(3) -0.29237(16) 0.51773(11)
H13A H 0.8066 -0.2697 0.4873
C16A C 1.0646(4) -0.4665(2) 0.67916(17)
H14A H 0.9580 -0.4743 0.6850
H15A H 1.1173 -0.4761 0.7151
H16A H 1.1002 -0.5037 0.6500
loop_
_geom_bond_atom_site_label_1
_geom_bond_atom_site_label_2
_geom_bond_site_symmetry_1
_geom_bond_site_symmetry_2
N1 H1 1_555 1_555
H2 N1 1_555 1_555
Pr1 O1 1_555 1_555
O1 C1 1_555 1_555
O2 C1 1_555 1_555
O3 H3 1_555 1_555
O4 C4 1_555 1_555
O5 Pr1 1_555 1_555
O6 C9 1_555 1_555
O7 H4 1_555 1_555
O8 C12 1_555 1_555
C1 C2 1_555 1_555
C2 C3 1_555 1_555
C3 O3 1_555 1_555
C4 C3 1_555 1_555
C5 C4 1_555 1_555
H5 C5 1_555 1_555
C6 C5 1_555 1_555
H6 C6 1_555 1_555
C7 C2 1_555 1_555
H7 C7 1_555 1_555
C8 O4 1_555 1_555
H8 C8 1_555 1_555
H9 C8 1_555 1_555
H10 C8 1_555 1_555
C9 O5 1_555 1_555
C10 C9 1_555 1_555
C11 O7 1_555 1_555
C12 C11 1_555 1_555
C13 C12 1_555 1_555
H11 C13 1_555 1_555
C14 C13 1_555 1_555
H12 C14 1_555 1_555
C15 C10 1_555 1_555
H13 C15 1_555 1_555
C16 O8 1_555 1_555
H14 C16 1_555 1_555
H15 C16 1_555 1_555
H16 C16 1_555 1_555
H1C N1 1_555 1_555
H2C N1 1_555 1_555
Pr1D O2 1_555 1_555
Pr1D_2 O2A 1_555 1_555
O1A Pr1 1_555 1_555
O2A C1A 1_555 1_555
O2D Pr1 1_555 1_555
O2E Pr1 1_555 1_555
O3A H3A 1_555 1_555
O4A C4A 1_555 1_555
O5A Pr1 1_555 1_555
O6A Pr1D_2 1_555 1_555
O6D Pr1 1_555 1_555
O6E Pr1 1_555 1_555
O7A H4A 1_555 1_555
O8A C12A 1_555 1_555
C1A O1A 1_555 1_555
C2A C1A 1_555 1_555
C3A O3A 1_555 1_555
C4A C3A 1_555 1_555
C5A C4A 1_555 1_555
H5A C5A 1_555 1_555
C6A C5A 1_555 1_555
H6A C6A 1_555 1_555
C7A C2A 1_555 1_555
H7A C7A 1_555 1_555
C8A O4A 1_555 1_555
H8A C8A 1_555 1_555
H9A C8A 1_555 1_555
H10A C8A 1_555 1_555
C9A O5A 1_555 1_555
C10A C9A 1_555 1_555
C11A O7A 1_555 1_555
C12A C11A 1_555 1_555
C13A C12A 1_555 1_555
H11A C13A 1_555 1_555
C14A C13A 1_555 1_555
H12A C14A 1_555 1_555
C15A C10A 1_555 1_555
H13A C15A 1_555 1_555
C16A O8A 1_555 1_555
H14A C16A 1_555 1_555
H15A C16A 1_555 1_555
H16A C16A 1_555 1_555
O6 Pr1D 1_555 1_555
C6 C7 1_555 1_555
C10 C11 1_555 1_555
C14 C15 1_555 1_555
O6A C9A 1_555 1_555
C2A C3A 1_555 1_555
C6A C7A 1_555 1_555
C10A C11A 1_555 1_555
C14A C15A 1_555 1_555

#END
