
#######################################################################
#
#                 Cambridge Crystallographic Data Centre
#                                CCDC 
#
#######################################################################
#
# If this CIF has been generated from an entry in the Cambridge 
# Structural Database, then it will include bibliographic, chemical, 
# crystal, experimental, refinement or atomic coordinate data resulting 
# from the CCDC's data processing and validation procedures.
#
#######################################################################

data_XUKZOT
_symmetry_cell_setting           orthorhombic
_symmetry_space_group_name_H-M   'P n n a'
_symmetry_Int_Tables_number      52
_space_group_name_Hall           '-P 2a 2bc'
loop_
_symmetry_equiv_pos_site_id
_symmetry_equiv_pos_as_xyz
1 x,y,z
2 1/2-x,-y,z
3 1/2-x,1/2+y,1/2-z
4 x,1/2-y,1/2-z
5 -x,-y,-z
6 1/2+x,y,-z
7 1/2+x,1/2-y,1/2+z
8 -x,1/2+y,1/2+z
_cell_length_a                   8.8317(11)
_cell_length_b                   16.465(2)
_cell_length_c                   22.912(3)
_cell_angle_alpha                90
_cell_angle_beta                 90
_cell_angle_gamma                90
_cell_volume                     3331.72
loop_
_atom_site_label
_atom_site_type_symbol
_atom_site_fract_x
_atom_site_fract_y
_atom_site_fract_z
N1 N 0.2848(4) 0.2500 0.7500
H1 H 0.229(2) 0.2015(10) 0.7456(10)
H2 H 0.347(2) 0.2583(13) 0.7174(7)
H1C H 0.229(2) 0.2985(10) 0.7544(10)
H2C H 0.347(2) 0.2417(13) 0.7826(7)
Nd1 Nd 0.7500 0.0000 0.479679(6)
O1 O 0.61978(16) 0.05114(10) 0.39163(6)
O2 O 0.39934(17) 0.04212(10) 0.43742(6)
O3 O 0.64046(17) 0.10368(10) 0.28983(6)
H3 H 0.6701 0.0860 0.3213
O4 O 0.5147(2) 0.16188(12) 0.19676(6)
O5 O 0.62408(17) 0.12342(9) 0.50646(7)
O6 O 0.41091(16) 0.11715(9) 0.55862(6)
O7 O 0.3597(2) 0.23408(10) 0.62877(7)
H4 H 0.3488 0.1890 0.6142
O8 O 0.4080(2) 0.38466(11) 0.66051(9)
C1 C 0.4757(2) 0.06026(13) 0.39359(8)
C2 C 0.4014(2) 0.09259(12) 0.34016(9)
C3 C 0.4869(2) 0.11216(13) 0.29123(8)
C4 C 0.4163(3) 0.14207(14) 0.24084(9)
C5 C 0.2609(3) 0.15003(18) 0.23933(12)
H5 H 0.2134 0.1686 0.2057
C6 C 0.1755(3) 0.13015(16) 0.28835(11)
H6 H 0.0707 0.1357 0.2873
C7 C 0.2439(2) 0.10244(16) 0.33818(11)
H7 H 0.1856 0.0901 0.3708
C8 C 0.4523(4) 0.18585(19) 0.14179(11)
H8 H 0.3959 0.1415 0.1254
H9 H 0.5327 0.2006 0.1157
H10 H 0.3863 0.2315 0.1473
C9 C 0.5237(2) 0.15504(13) 0.53703(9)
C10 C 0.5395(2) 0.24345(13) 0.55024(9)
C11 C 0.4592(3) 0.27785(14) 0.59634(9)
C12 C 0.4830(3) 0.35932(15) 0.61130(11)
C13 C 0.5776(3) 0.40636(16) 0.57745(14)
H11 H 0.5900 0.4612 0.5861
C14 C 0.6544(4) 0.37250(18) 0.53066(14)
H12 H 0.7172 0.4048 0.5078
C15 C 0.6383(3) 0.29176(16) 0.51782(10)
H13 H 0.6935 0.2690 0.4873
C16 C 0.4353(4) 0.4658(2) 0.67948(16)
H14 H 0.5418 0.4733 0.6859
H15 H 0.3814 0.4756 0.7152
H16 H 0.4011 0.5032 0.6501
Nd1D Nd 0.2500 0.0000 0.520321(6)
Nd1D_2 Nd 1.2500 0.0000 0.520321(6)
O1A O 0.88022(16) -0.05114(10) 0.39163(6)
O2A O 1.10066(17) -0.04212(10) 0.43742(6)
O2D O 0.60066(17) -0.04212(10) 0.56258(6)
O2E O 0.89934(17) 0.04212(10) 0.56258(6)
O3A O 0.85954(17) -0.10368(10) 0.28983(6)
H3A H 0.8299 -0.0860 0.3213
O4A O 0.9853(2) -0.16188(12) 0.19676(6)
O5A O 0.87592(17) -0.12342(9) 0.50646(7)
O6A O 1.08909(16) -0.11715(9) 0.55862(6)
O6D O 0.58909(16) -0.11715(9) 0.44138(6)
O6E O 0.91091(16) 0.11715(9) 0.44138(6)
O7A O 1.1403(2) -0.23408(10) 0.62877(7)
H4A H 1.1512 -0.1890 0.6142
O8A O 1.0920(2) -0.38466(11) 0.66051(9)
C1A C 1.0243(2) -0.06026(13) 0.39359(8)
C2A C 1.0986(2) -0.09259(12) 0.34016(9)
C3A C 1.0131(2) -0.11216(13) 0.29123(8)
C4A C 1.0837(3) -0.14207(14) 0.24084(9)
C5A C 1.2391(3) -0.15003(18) 0.23933(12)
H5A H 1.2866 -0.1686 0.2057
C6A C 1.3245(3) -0.13015(16) 0.28835(11)
H6A H 1.4293 -0.1357 0.2873
C7A C 1.2561(2) -0.10244(16) 0.33818(11)
H7A H 1.3144 -0.0901 0.3708
C8A C 1.0477(4) -0.18585(19) 0.14179(11)
H8A H 1.1041 -0.1415 0.1254
H9A H 0.9673 -0.2006 0.1157
H10A H 1.1137 -0.2315 0.1473
C9A C 0.9763(2) -0.15504(13) 0.53703(9)
C10A C 0.9605(2) -0.24345(13) 0.55024(9)
C11A C 1.0408(3) -0.27785(14) 0.59634(9)
C12A C 1.0170(3) -0.35932(15) 0.61130(11)
C13A C 0.9224(3) -0.40636(16) 0.57745(14)
H11A H 0.9100 -0.4612 0.5861
C14A C 0.8456(4) -0.37250(18) 0.53066(14)
H12A H 0.7828 -0.4048 0.5078
C15A C 0.8617(3) -0.29176(16) 0.51782(10)
H13A H 0.8065 -0.2690 0.4873
C16A C 1.0647(4) -0.4658(2) 0.67948(16)
H14A H 0.9582 -0.4733 0.6859
H15A H 1.1186 -0.4756 0.7152
H16A H 1.0989 -0.5032 0.6501
loop_
_geom_bond_atom_site_label_1
_geom_bond_atom_site_label_2
_geom_bond_site_symmetry_1
_geom_bond_site_symmetry_2
N1 H1 1_555 1_555
H2 N1 1_555 1_555
Nd1 O1 1_555 1_555
O1 C1 1_555 1_555
O2 C1 1_555 1_555
O3 H3 1_555 1_555
O4 C4 1_555 1_555
O5 Nd1 1_555 1_555
O6 C9 1_555 1_555
O7 H4 1_555 1_555
O8 C12 1_555 1_555
C1 C2 1_555 1_555
C2 C3 1_555 1_555
C3 O3 1_555 1_555
C4 C3 1_555 1_555
C5 C4 1_555 1_555
H5 C5 1_555 1_555
C6 C5 1_555 1_555
H6 C6 1_555 1_555
C7 C2 1_555 1_555
H7 C7 1_555 1_555
C8 O4 1_555 1_555
H8 C8 1_555 1_555
H9 C8 1_555 1_555
H10 C8 1_555 1_555
C9 O5 1_555 1_555
C10 C9 1_555 1_555
C11 O7 1_555 1_555
C12 C11 1_555 1_555
C13 C12 1_555 1_555
H11 C13 1_555 1_555
C14 C13 1_555 1_555
H12 C14 1_555 1_555
C15 C10 1_555 1_555
H13 C15 1_555 1_555
C16 O8 1_555 1_555
H14 C16 1_555 1_555
H15 C16 1_555 1_555
H16 C16 1_555 1_555
H1C N1 1_555 1_555
H2C N1 1_555 1_555
Nd1D O2 1_555 1_555
Nd1D_2 O2A 1_555 1_555
O1A Nd1 1_555 1_555
O2A C1A 1_555 1_555
O2D Nd1 1_555 1_555
O2E Nd1 1_555 1_555
O3A H3A 1_555 1_555
O4A C4A 1_555 1_555
O5A Nd1 1_555 1_555
O6A Nd1D_2 1_555 1_555
O6D Nd1 1_555 1_555
O6E Nd1 1_555 1_555
O7A H4A 1_555 1_555
O8A C12A 1_555 1_555
C1A O1A 1_555 1_555
C2A C1A 1_555 1_555
C3A O3A 1_555 1_555
C4A C3A 1_555 1_555
C5A C4A 1_555 1_555
H5A C5A 1_555 1_555
C6A C5A 1_555 1_555
H6A C6A 1_555 1_555
C7A C2A 1_555 1_555
H7A C7A 1_555 1_555
C8A O4A 1_555 1_555
H8A C8A 1_555 1_555
H9A C8A 1_555 1_555
H10A C8A 1_555 1_555
C9A O5A 1_555 1_555
C10A C9A 1_555 1_555
C11A O7A 1_555 1_555
C12A C11A 1_555 1_555
C13A C12A 1_555 1_555
H11A C13A 1_555 1_555
C14A C13A 1_555 1_555
H12A C14A 1_555 1_555
C15A C10A 1_555 1_555
H13A C15A 1_555 1_555
C16A O8A 1_555 1_555
H14A C16A 1_555 1_555
H15A C16A 1_555 1_555
H16A C16A 1_555 1_555
O6 Nd1D 1_555 1_555
C6 C7 1_555 1_555
C10 C11 1_555 1_555
C14 C15 1_555 1_555
O6A C9A 1_555 1_555
C2A C3A 1_555 1_555
C6A C7A 1_555 1_555
C10A C11A 1_555 1_555
C14A C15A 1_555 1_555

#END
