
#######################################################################
#
#                 Cambridge Crystallographic Data Centre
#                                CCDC 
#
#######################################################################
#
# If this CIF has been generated from an entry in the Cambridge 
# Structural Database, then it will include bibliographic, chemical, 
# crystal, experimental, refinement or atomic coordinate data resulting 
# from the CCDC's data processing and validation procedures.
#
#######################################################################

data_XUKZAF
_symmetry_cell_setting           orthorhombic
_symmetry_space_group_name_H-M   'P n n a'
_symmetry_Int_Tables_number      52
_space_group_name_Hall           '-P 2a 2bc'
loop_
_symmetry_equiv_pos_site_id
_symmetry_equiv_pos_as_xyz
1 x,y,z
2 1/2-x,-y,z
3 1/2-x,1/2+y,1/2-z
4 x,1/2-y,1/2-z
5 -x,-y,-z
6 1/2+x,y,-z
7 1/2+x,1/2-y,1/2+z
8 -x,1/2+y,1/2+z
_cell_length_a                   8.7945(4)
_cell_length_b                   16.4014(7)
_cell_length_c                   22.8534(10)
_cell_angle_alpha                90
_cell_angle_beta                 90
_cell_angle_gamma                90
_cell_volume                     3296.42
loop_
_atom_site_label
_atom_site_type_symbol
_atom_site_fract_x
_atom_site_fract_y
_atom_site_fract_z
N1 N 0.2861(3) 0.2500 0.7500
H1 H 0.349(2) 0.2571(13) 0.7172(7)
H2 H 0.228(2) 0.2024(10) 0.7450(10)
H1C H 0.349(2) 0.2429(13) 0.7828(7)
H2C H 0.228(2) 0.2976(10) 0.7550(10)
Gd1 Gd 0.7500 0.0000 0.480047(5)
O1 O 0.61934(15) 0.04989(9) 0.39415(6)
O2 O 0.39610(16) 0.04229(9) 0.43873(6)
O3 O 0.64399(16) 0.10202(10) 0.29161(6)
H3 H 0.6731 0.0851 0.3235
O4 O 0.5202(2) 0.16029(11) 0.19753(6)
O5 O 0.62491(17) 0.12052(9) 0.50659(7)
O6 O 0.40828(16) 0.11476(8) 0.55745(6)
O7 O 0.35728(19) 0.23198(10) 0.62828(7)
H4 H 0.3478 0.1864 0.6140
O8 O 0.4077(2) 0.38272(11) 0.66070(8)
C1 C 0.4751(2) 0.05947(12) 0.39538(8)
C2 C 0.4025(2) 0.09225(12) 0.34132(9)
C3 C 0.4903(2) 0.11093(12) 0.29251(8)
C4 C 0.4207(3) 0.14105(13) 0.24151(9)
C5 C 0.2651(3) 0.14976(16) 0.23950(11)
H5 H 0.2185 0.1685 0.2055
C6 C 0.1776(3) 0.13054(16) 0.28838(11)
H6 H 0.0726 0.1365 0.2868
C7 C 0.2446(2) 0.10290(15) 0.33877(10)
H7 H 0.1851 0.0912 0.3713
C8 C 0.4593(4) 0.18412(19) 0.14220(10)
H8 H 0.4008 0.1401 0.1262
H9 H 0.5410 0.1974 0.1160
H10 H 0.3952 0.2310 0.1472
C9 C 0.5232(2) 0.15240(12) 0.53648(9)
C10 C 0.5394(2) 0.24110(12) 0.55006(9)
C11 C 0.4586(2) 0.27557(13) 0.59631(9)
C12 C 0.4832(3) 0.35732(14) 0.61145(11)
C13 C 0.5793(3) 0.40426(15) 0.57789(13)
H11 H 0.5924 0.4592 0.5868
C14 C 0.6569(4) 0.37029(16) 0.53092(13)
H12 H 0.7208 0.4026 0.5083
C15 C 0.6398(3) 0.28943(15) 0.51779(10)
H13 H 0.6952 0.2665 0.4873
C16 C 0.4350(4) 0.46411(18) 0.67976(15)
H14 H 0.5420 0.4718 0.6860
H15 H 0.3814 0.4738 0.7157
H16 H 0.4000 0.5016 0.6505
Gd1D Gd 0.2500 0.0000 0.519953(5)
Gd1D_2 Gd 1.2500 0.0000 0.519953(5)
O1A O 0.88066(15) -0.04989(9) 0.39415(6)
O1E O 1.11934(15) 0.04989(9) 0.60585(6)
O2D O 0.60390(16) -0.04229(9) 0.56127(6)
O2E O 0.89610(16) 0.04229(9) 0.56127(6)
O3E O 1.14399(16) 0.10202(10) 0.70839(6)
H3E H 1.1731 0.0851 0.6765
O4E O 1.0202(2) 0.16029(11) 0.80247(6)
O5A O 0.87509(17) -0.12052(9) 0.50659(7)
O6A O 1.09172(16) -0.11476(8) 0.55745(6)
O6E O 0.90828(16) 0.11476(8) 0.44255(6)
O6D O 0.59172(16) -0.11476(8) 0.44255(6)
O7A O 1.14272(19) -0.23198(10) 0.62828(7)
H4A H 1.1522 -0.1864 0.6140
O8A O 1.0923(2) -0.38272(11) 0.66070(8)
C1E C 0.9751(2) 0.05947(12) 0.60462(8)
C2E C 0.9025(2) 0.09225(12) 0.65868(9)
C3E C 0.9903(2) 0.11093(12) 0.70749(8)
C4E C 0.9207(3) 0.14105(13) 0.75849(9)
C5E C 0.7651(3) 0.14976(16) 0.76050(11)
H5E H 0.7185 0.1685 0.7945
C6E C 0.6776(3) 0.13054(16) 0.71162(11)
H6E H 0.5726 0.1365 0.7132
C7E C 0.7446(2) 0.10290(15) 0.66123(10)
H7E H 0.6851 0.0912 0.6287
C8E C 0.9593(4) 0.18412(19) 0.85780(10)
H8E H 0.9008 0.1401 0.8738
H9E H 1.0410 0.1974 0.8840
H10E H 0.8952 0.2310 0.8528
C9A C 0.9768(2) -0.15240(12) 0.53648(9)
C10A C 0.9606(2) -0.24110(12) 0.55006(9)
C11A C 1.0414(2) -0.27557(13) 0.59631(9)
C12A C 1.0168(3) -0.35732(14) 0.61145(11)
C13A C 0.9207(3) -0.40426(15) 0.57789(13)
H11A H 0.9076 -0.4592 0.5868
C14A C 0.8431(4) -0.37029(16) 0.53092(13)
H12A H 0.7792 -0.4026 0.5083
C15A C 0.8602(3) -0.28943(15) 0.51779(10)
H13A H 0.8048 -0.2665 0.4873
C16A C 1.0650(4) -0.46411(18) 0.67976(15)
H14A H 0.9580 -0.4718 0.6860
H15A H 1.1186 -0.4738 0.7157
H16A H 1.1000 -0.5016 0.6505
loop_
_geom_bond_atom_site_label_1
_geom_bond_atom_site_label_2
_geom_bond_site_symmetry_1
_geom_bond_site_symmetry_2
N1 H1 1_555 1_555
H2 N1 1_555 1_555
Gd1 O1 1_555 1_555
O1 C1 1_555 1_555
O2 C1 1_555 1_555
O3 H3 1_555 1_555
O4 C4 1_555 1_555
O5 Gd1 1_555 1_555
O6 C9 1_555 1_555
O7 H4 1_555 1_555
O8 C12 1_555 1_555
C1 C2 1_555 1_555
C2 C3 1_555 1_555
C3 O3 1_555 1_555
C4 C3 1_555 1_555
C5 C4 1_555 1_555
H5 C5 1_555 1_555
C6 C5 1_555 1_555
H6 C6 1_555 1_555
C7 C2 1_555 1_555
H7 C7 1_555 1_555
C8 O4 1_555 1_555
H8 C8 1_555 1_555
H9 C8 1_555 1_555
H10 C8 1_555 1_555
C9 O5 1_555 1_555
C10 C9 1_555 1_555
C11 O7 1_555 1_555
C12 C11 1_555 1_555
C13 C12 1_555 1_555
H11 C13 1_555 1_555
C14 C13 1_555 1_555
H12 C14 1_555 1_555
C15 C10 1_555 1_555
H13 C15 1_555 1_555
C16 O8 1_555 1_555
H14 C16 1_555 1_555
H15 C16 1_555 1_555
H16 C16 1_555 1_555
H1C N1 1_555 1_555
H2C N1 1_555 1_555
Gd1D O2 1_555 1_555
Gd1D_2 O1E 1_555 1_555
O1A Gd1 1_555 1_555
O1E C1E 1_555 1_555
O2D Gd1 1_555 1_555
O2E Gd1 1_555 1_555
O3E H3E 1_555 1_555
O4E C4E 1_555 1_555
O5A Gd1 1_555 1_555
O6A Gd1D_2 1_555 1_555
O6E Gd1 1_555 1_555
O6D Gd1 1_555 1_555
O7A H4A 1_555 1_555
O8A C12A 1_555 1_555
C1E O2E 1_555 1_555
C2E C1E 1_555 1_555
C3E O3E 1_555 1_555
C4E C3E 1_555 1_555
C5E C4E 1_555 1_555
H5E C5E 1_555 1_555
C6E C5E 1_555 1_555
H6E C6E 1_555 1_555
C7E C2E 1_555 1_555
H7E C7E 1_555 1_555
C8E O4E 1_555 1_555
H8E C8E 1_555 1_555
H9E C8E 1_555 1_555
H10E C8E 1_555 1_555
C9A O5A 1_555 1_555
C10A C9A 1_555 1_555
C11A O7A 1_555 1_555
C12A C11A 1_555 1_555
C13A C12A 1_555 1_555
H11A C13A 1_555 1_555
C14A C13A 1_555 1_555
H12A C14A 1_555 1_555
C15A C10A 1_555 1_555
H13A C15A 1_555 1_555
C16A O8A 1_555 1_555
H14A C16A 1_555 1_555
H15A C16A 1_555 1_555
H16A C16A 1_555 1_555
O6 Gd1D 1_555 1_555
C6 C7 1_555 1_555
C10 C11 1_555 1_555
C14 C15 1_555 1_555
O6A C9A 1_555 1_555
C2E C3E 1_555 1_555
C6E C7E 1_555 1_555
C10A C11A 1_555 1_555
C14A C15A 1_555 1_555

#END
