
#######################################################################
#
#                 Cambridge Crystallographic Data Centre
#                                CCDC 
#
#######################################################################
#
# If this CIF has been generated from an entry in the Cambridge 
# Structural Database, then it will include bibliographic, chemical, 
# crystal, experimental, refinement or atomic coordinate data resulting 
# from the CCDC's data processing and validation procedures.
#
#######################################################################

data_XUKZUZ
_symmetry_cell_setting           monoclinic
_symmetry_space_group_name_H-M   'C 2'
_symmetry_Int_Tables_number      5
_space_group_name_Hall           'C 2y'
loop_
_symmetry_equiv_pos_site_id
_symmetry_equiv_pos_as_xyz
1 x,y,z
2 -x,y,-z
3 1/2+x,1/2+y,z
4 1/2-x,1/2+y,-z
_cell_length_a                   14.692(5)
_cell_length_b                   5.9948(18)
_cell_length_c                   16.724(6)
_cell_angle_alpha                90
_cell_angle_beta                 97.393(7)
_cell_angle_gamma                90
_cell_volume                     1460.73
loop_
_atom_site_label
_atom_site_type_symbol
_atom_site_fract_x
_atom_site_fract_y
_atom_site_fract_z
Zn1 Zn 0.0000 -0.02038(5) 0.0000
Zn2 Zn 0.5000 0.04220(6) 0.5000
S1 S -0.14165(5) -0.47879(13) 0.17676(4)
S2 S 0.50602(5) -0.49547(13) 0.29599(4)
N1 N 0.14292(11) 0.4749(4) 0.13137(11)
N2 N 0.20166(13) 0.4536(4) 0.07503(12)
N3 N 0.09198(13) 0.1924(3) 0.05813(12)
N4 N 0.27909(15) 0.3635(4) 0.37812(13)
N5 N 0.28198(16) 0.4943(5) 0.44493(14)
N6 N 0.39157(14) 0.2332(4) 0.46105(12)
N7 N -0.05972(15) -0.1938(4) 0.07605(14)
N8 N 0.50873(17) -0.1498(4) 0.40624(14)
C1 C 0.16822(17) 0.2813(4) 0.03259(15)
H1 H 0.1949 0.2240 -0.0120
C2 C 0.07871(16) 0.3196(4) 0.12054(14)
H2 H 0.0303 0.3016 0.1526
C3 C 0.3500(2) 0.4065(5) 0.49290(17)
H3 H 0.3686 0.4605 0.5459
C4 C 0.34419(18) 0.2119(5) 0.38800(16)
H4 H 0.3557 0.1038 0.3490
C5 C 0.15608(18) 0.6533(4) 0.19193(16)
H5 H 0.0982 0.6752 0.2155
H6 H 0.1702 0.7943 0.1652
C6 C 0.23307(17) 0.6023(5) 0.25923(15)
H7 H 0.2905 0.5738 0.2357
H8 H 0.2433 0.7334 0.2953
C7 C 0.21101(18) 0.4035(5) 0.30736(17)
H9 H 0.1501 0.4255 0.3254
H10 H 0.2073 0.2699 0.2723
C8 C -0.09518(17) -0.3092(4) 0.11817(16)
C9 C 0.50632(17) -0.2941(4) 0.36030(15)
Zn2_2 Zn -0.5000 0.04220(6) -0.5000
S1A S 0.14165(5) -0.47879(13) -0.17676(4)
S2A S 0.49398(5) -0.49547(13) 0.70401(4)
N1A N -0.14292(11) 0.4749(4) -0.13137(11)
N2A N -0.20166(13) 0.4536(4) -0.07503(12)
N3A N -0.09198(13) 0.1924(3) -0.05813(12)
N4A N -0.27909(15) 0.3635(4) -0.37812(13)
N5A N -0.28198(16) 0.4943(5) -0.44493(14)
N6A N -0.39157(14) 0.2332(4) -0.46105(12)
N6A_2 N 0.60843(14) 0.2332(4) 0.53895(12)
N7A N 0.05972(15) -0.1938(4) -0.07605(14)
N8A N 0.49127(17) -0.1498(4) 0.59376(14)
C1A C -0.16822(17) 0.2813(4) -0.03259(15)
H1A H -0.1949 0.2240 0.0120
C2A C -0.07871(16) 0.3196(4) -0.12054(14)
H2A H -0.0303 0.3016 -0.1526
C3A C -0.3500(2) 0.4065(5) -0.49290(17)
H3A H -0.3686 0.4605 -0.5459
C4A C -0.34419(18) 0.2119(5) -0.38800(16)
H4A H -0.3557 0.1038 -0.3490
C5A C -0.15608(18) 0.6533(4) -0.19193(16)
H5A H -0.0982 0.6752 -0.2155
H6A H -0.1702 0.7943 -0.1652
C6A C -0.23307(17) 0.6023(5) -0.25923(15)
H7A H -0.2905 0.5738 -0.2357
H8A H -0.2433 0.7334 -0.2953
C7A C -0.21101(18) 0.4035(5) -0.30736(17)
H9A H -0.1501 0.4255 -0.3254
H10A H -0.2073 0.2699 -0.2723
C8A C 0.09518(17) -0.3092(4) -0.11817(16)
C9A C 0.49368(17) -0.2941(4) 0.63970(15)
loop_
_geom_bond_atom_site_label_1
_geom_bond_atom_site_label_2
_geom_bond_site_symmetry_1
_geom_bond_site_symmetry_2
Zn1 N3 1_555 1_555
Zn2 N6 1_555 1_555
S1 C8 1_555 1_555
S2 C9 1_555 1_555
N1 N2 1_555 1_555
N2 C1 1_555 1_555
N3 C1 1_555 1_555
N4 N5 1_555 1_555
N5 C3 1_555 1_555
N6 C3 1_555 1_555
N7 Zn1 1_555 1_555
N8 Zn2 1_555 1_555
C1 H1 1_555 1_555
C2 N1 1_555 1_555
H2 C2 1_555 1_555
C3 H3 1_555 1_555
C4 N4 1_555 1_555
H4 C4 1_555 1_555
C5 N1 1_555 1_555
H5 C5 1_555 1_555
H6 C5 1_555 1_555
C6 C5 1_555 1_555
H7 C6 1_555 1_555
H8 C6 1_555 1_555
C7 N4 1_555 1_555
H9 C7 1_555 1_555
H10 C7 1_555 1_555
C8 N7 1_555 1_555
C9 N8 1_555 1_555
Zn2_2 N6A 1_555 1_555
S1A C8A 1_555 1_555
S2A C9A 1_555 1_555
N1A N2A 1_555 1_555
N2A C1A 1_555 1_555
N3A Zn1 1_555 1_555
N4A N5A 1_555 1_555
N5A C3A 1_555 1_555
N6A C3A 1_555 1_555
N6A_2 Zn2 1_555 1_555
N7A Zn1 1_555 1_555
N8A Zn2 1_555 1_555
C1A N3A 1_555 1_555
H1A C1A 1_555 1_555
C2A N1A 1_555 1_555
H2A C2A 1_555 1_555
C3A H3A 1_555 1_555
C4A N4A 1_555 1_555
H4A C4A 1_555 1_555
C5A N1A 1_555 1_555
H5A C5A 1_555 1_555
H6A C5A 1_555 1_555
C6A C5A 1_555 1_555
H7A C6A 1_555 1_555
H8A C6A 1_555 1_555
C7A N4A 1_555 1_555
H9A C7A 1_555 1_555
H10A C7A 1_555 1_555
C8A N7A 1_555 1_555
C9A N8A 1_555 1_555
N3 C2 1_555 1_555
N6 C4 1_555 1_555
C6 C7 1_555 1_555
N3A C2A 1_555 1_555
N6A C4A 1_555 1_555
C6A C7A 1_555 1_555

#END
