
#######################################################################
#
#                 Cambridge Crystallographic Data Centre
#                                CCDC 
#
#######################################################################
#
# If this CIF has been generated from an entry in the Cambridge 
# Structural Database, then it will include bibliographic, chemical, 
# crystal, experimental, refinement or atomic coordinate data resulting 
# from the CCDC's data processing and validation procedures.
#
#######################################################################

data_XUKZEJ
_symmetry_cell_setting           orthorhombic
_symmetry_space_group_name_H-M   'C c c 2'
_symmetry_Int_Tables_number      37
_space_group_name_Hall           'C 2 -2c'
loop_
_symmetry_equiv_pos_site_id
_symmetry_equiv_pos_as_xyz
1 x,y,z
2 -x,-y,z
3 x,-y,1/2+z
4 -x,y,1/2+z
5 1/2+x,1/2+y,z
6 1/2-x,1/2-y,z
7 1/2+x,1/2-y,1/2+z
8 1/2-x,1/2+y,1/2+z
_cell_length_a                   16.5354(14)
_cell_length_b                   20.3456(17)
_cell_length_c                   9.6500(8)
_cell_angle_alpha                90
_cell_angle_beta                 90
_cell_angle_gamma                90
_cell_volume                     3246.48
loop_
_atom_site_label
_atom_site_type_symbol
_atom_site_fract_x
_atom_site_fract_y
_atom_site_fract_z
Ho1 Ho 1.0000 0.0000 0.52224(10)
O1 O 0.88654(13) -0.05342(10) 0.6287(2)
O2 O 0.85783(18) 0.00776(11) 0.4477(3)
O3 O 0.77838(14) -0.12009(11) 0.7527(3)
H1 H 0.8233 -0.1038 0.7422
O4 O 0.62754(14) -0.14877(12) 0.7892(3)
O5 O 0.94590(13) 0.09035(10) 0.6417(2)
O6 O 0.98827(14) 0.07877(14) 0.8584(3)
O7 O 0.88405(17) 0.19964(11) 0.5612(2)
H2 H 0.9028 0.1626 0.5510
O8 O 0.82093(18) 0.31173(11) 0.6246(3)
C1 C 0.83576(18) -0.02950(14) 0.5441(4)
C2 C 0.7486(2) -0.04726(14) 0.5602(3)
C3 C 0.72518(19) -0.09050(15) 0.6660(3)
C4 C 0.6425(2) -0.10460(16) 0.6841(4)
C5 C 0.5856(2) -0.07591(19) 0.5996(4)
H5 H 0.5310 -0.0847 0.6128
C6 C 0.6102(2) -0.03367(18) 0.4943(4)
H6 H 0.5717 -0.0145 0.4368
C7 C 0.6900(2) -0.02016(18) 0.4744(4)
H7 H 0.7055 0.0076 0.4025
C8 C 0.5451(3) -0.1645(2) 0.8184(5)
H8 H 0.5155 -0.1249 0.8363
H9 H 0.5425 -0.1926 0.8982
H10 H 0.5218 -0.1867 0.7402
C9 C 0.95204(16) 0.11003(12) 0.7666(4)
C10 C 0.91418(19) 0.17443(14) 0.8012(3)
C11 C 0.88291(19) 0.21495(14) 0.6976(3)
C12 C 0.84796(19) 0.27609(14) 0.7346(3)
C13 C 0.8425(2) 0.29424(17) 0.8701(3)
H11 H 0.8187 0.3341 0.8937
C14 C 0.8729(2) 0.25268(16) 0.9747(4)
H12 H 0.8689 0.2650 1.0672
C15 C 0.9085(2) 0.19387(16) 0.9400(3)
H13 H 0.9290 0.1668 1.0093
C16 C 0.7913(3) 0.37678(16) 0.6492(5)
H14 H 0.7497 0.3754 0.7184
H15 H 0.7696 0.3944 0.5648
H16 H 0.8348 0.4042 0.6808
Ho1B Ho 1.0000 0.0000 1.02224(10)
O1A O 1.11346(13) 0.05342(10) 0.6287(2)
O2A O 1.14217(18) -0.00776(11) 0.4477(3)
O3A O 1.22162(14) 0.12009(11) 0.7527(3)
H1A H 1.1767 0.1038 0.7422
O4A O 1.37246(14) 0.14877(12) 0.7892(3)
O5A O 1.05410(13) -0.09035(10) 0.6417(2)
O6A O 1.01173(14) -0.07877(14) 0.8584(3)
O6B O 0.98827(14) -0.07877(14) 0.3584(3)
O6C O 1.01173(14) 0.07877(14) 0.3584(3)
O7A O 1.11595(17) -0.19964(11) 0.5612(2)
H2A H 1.0972 -0.1626 0.5510
O8A O 1.17907(18) -0.31173(11) 0.6246(3)
C1A C 1.16424(18) 0.02950(14) 0.5441(4)
C2A C 1.2514(2) 0.04726(14) 0.5602(3)
C3A C 1.27482(19) 0.09050(15) 0.6660(3)
C4A C 1.3575(2) 0.10460(16) 0.6841(4)
C5A C 1.4144(2) 0.07591(19) 0.5996(4)
H5A H 1.4690 0.0847 0.6128
C6A C 1.3898(2) 0.03367(18) 0.4943(4)
H6A H 1.4283 0.0145 0.4368
C7A C 1.3100(2) 0.02016(18) 0.4744(4)
H7A H 1.2945 -0.0076 0.4025
C8A C 1.4549(3) 0.1645(2) 0.8184(5)
H8A H 1.4845 0.1249 0.8363
H9A H 1.4575 0.1926 0.8982
H10A H 1.4782 0.1867 0.7402
C9A C 1.04796(16) -0.11003(12) 0.7666(4)
C10A C 1.08582(19) -0.17443(14) 0.8012(3)
C11A C 1.11709(19) -0.21495(14) 0.6976(3)
C12A C 1.15204(19) -0.27609(14) 0.7346(3)
C13A C 1.1575(2) -0.29424(17) 0.8701(3)
H11A H 1.1813 -0.3341 0.8937
C14A C 1.1271(2) -0.25268(16) 0.9747(4)
H12A H 1.1311 -0.2650 1.0672
C15A C 1.0915(2) -0.19387(16) 0.9400(3)
H13A H 1.0710 -0.1668 1.0093
C16A C 1.2087(3) -0.37678(16) 0.6492(5)
H14A H 1.2503 -0.3754 0.7184
H15A H 1.2304 -0.3944 0.5648
H16A H 1.1652 -0.4042 0.6808
N1 N 0.7500 0.2500 0.3839(4)
H3 H 0.7045(10) 0.2518(16) 0.425(3)
H4 H 0.7497(18) 0.2171(11) 0.330(3)
H3E H 0.7955(10) 0.2482(16) 0.425(3)
H4E H 0.7503(18) 0.2829(11) 0.330(3)
loop_
_geom_bond_atom_site_label_1
_geom_bond_atom_site_label_2
_geom_bond_site_symmetry_1
_geom_bond_site_symmetry_2
Ho1 O1 1_555 1_555
O1 C1 1_555 1_555
O2 Ho1 1_555 1_555
O3 H1 1_555 1_555
O4 C4 1_555 1_555
O5 Ho1 1_555 1_555
O6 C9 1_555 1_555
O7 H2 1_555 1_555
O8 C12 1_555 1_555
N1 H3 1_555 1_555
H4 N1 1_555 1_555
C1 O2 1_555 1_555
C2 C1 1_555 1_555
C3 O3 1_555 1_555
C4 C3 1_555 1_555
C5 C4 1_555 1_555
H5 C5 1_555 1_555
C6 C5 1_555 1_555
H6 C6 1_555 1_555
C7 C2 1_555 1_555
H7 C7 1_555 1_555
C8 O4 1_555 1_555
H8 C8 1_555 1_555
H9 C8 1_555 1_555
H10 C8 1_555 1_555
C9 O5 1_555 1_555
C10 C9 1_555 1_555
C11 O7 1_555 1_555
C12 C11 1_555 1_555
C13 C12 1_555 1_555
H11 C13 1_555 1_555
C14 C13 1_555 1_555
H12 C14 1_555 1_555
C15 C10 1_555 1_555
H13 C15 1_555 1_555
C16 O8 1_555 1_555
H14 C16 1_555 1_555
H15 C16 1_555 1_555
H16 C16 1_555 1_555
Ho1B O6 1_555 1_555
O1A Ho1 1_555 1_555
O2A Ho1 1_555 1_555
O3A H1A 1_555 1_555
O4A C4A 1_555 1_555
O5A Ho1 1_555 1_555
O6A Ho1B 1_555 1_555
O6B Ho1 1_555 1_555
O6C Ho1 1_555 1_555
O7A H2A 1_555 1_555
O8A C12A 1_555 1_555
H3E N1 1_555 1_555
H4E N1 1_555 1_555
C1A O1A 1_555 1_555
C2A C1A 1_555 1_555
C3A O3A 1_555 1_555
C4A C3A 1_555 1_555
C5A C4A 1_555 1_555
H5A C5A 1_555 1_555
C6A C5A 1_555 1_555
H6A C6A 1_555 1_555
C7A C2A 1_555 1_555
H7A C7A 1_555 1_555
C8A O4A 1_555 1_555
H8A C8A 1_555 1_555
H9A C8A 1_555 1_555
H10A C8A 1_555 1_555
C9A O5A 1_555 1_555
C10A C9A 1_555 1_555
C11A O7A 1_555 1_555
C12A C11A 1_555 1_555
C13A C12A 1_555 1_555
H11A C13A 1_555 1_555
C14A C13A 1_555 1_555
H12A C14A 1_555 1_555
C15A C10A 1_555 1_555
H13A C15A 1_555 1_555
C16A O8A 1_555 1_555
H14A C16A 1_555 1_555
H15A C16A 1_555 1_555
H16A C16A 1_555 1_555
C2 C3 1_555 1_555
C6 C7 1_555 1_555
C10 C11 1_555 1_555
C14 C15 1_555 1_555
O2A C1A 1_555 1_555
O6A C9A 1_555 1_555
C2A C3A 1_555 1_555
C6A C7A 1_555 1_555
C10A C11A 1_555 1_555
C14A C15A 1_555 1_555

#END
