
#######################################################################
#
#                 Cambridge Crystallographic Data Centre
#                                CCDC 
#
#######################################################################
#
# If this CIF has been generated from an entry in the Cambridge 
# Structural Database, then it will include bibliographic, chemical, 
# crystal, experimental, refinement or atomic coordinate data resulting 
# from the CCDC's data processing and validation procedures.
#
#######################################################################

data_XULBAI
_symmetry_cell_setting           triclinic
_symmetry_space_group_name_H-M   'P -1'
_symmetry_Int_Tables_number      2
_space_group_name_Hall           '-P 1'
loop_
_symmetry_equiv_pos_site_id
_symmetry_equiv_pos_as_xyz
1 x,y,z
2 -x,-y,-z
_cell_length_a                   7.9251(2)
_cell_length_b                   8.4584(2)
_cell_length_c                   10.6767(3)
_cell_angle_alpha                111.635(8)
_cell_angle_beta                 93.542(8)
_cell_angle_gamma                114.857(9)
_cell_volume                     583.372
loop_
_atom_site_label
_atom_site_type_symbol
_atom_site_fract_x
_atom_site_fract_y
_atom_site_fract_z
Zn1 Zn 0.5000 0.5000 0.5000
N1 N 0.24136(19) 0.41874(18) 0.82791(14)
N2 N 0.0979(2) 0.2558(2) 0.72062(15)
N3 N 0.33333(19) 0.41970(19) 0.64040(14)
N4 N 0.43406(19) 0.92871(19) 1.30431(14)
N5 N 0.6272(2) 1.0206(2) 1.36247(16)
N6 N 0.5114(2) 1.23231(19) 1.41664(14)
N7 N 1.0489(2) 0.7393(2) 0.83296(17)
N8 N 0.7682(2) 0.6330(2) 0.65198(15)
N9 N 1.2524(2) 1.0682(2) 1.02110(18)
C1 C 0.1602(2) 0.2637(2) 0.61116(18)
H1 H 0.0898 0.1681 0.5188
C2 C 0.3788(2) 0.5144(2) 0.77819(17)
H2 H 0.4926 0.6328 0.8332
C3 C 0.6654(2) 1.2019(3) 1.42838(19)
H3 H 0.7913 1.3039 1.4803
C4 C 0.3685(2) 1.0558(2) 1.33631(17)
H4 H 0.2386 1.0250 1.3062
C5 C 0.2290(2) 0.4617(2) 0.97196(17)
H5 H 0.2729 0.3868 1.0049
H6 H 0.0933 0.4208 0.9754
C6 C 0.3510(2) 0.6759(2) 1.06798(17)
H7 H 0.4879 0.7153 1.0690
H8 H 0.3121 0.7514 1.0322
C7 C 0.3285(2) 0.7206(2) 1.21520(17)
H9 H 0.1904 0.6719 1.2134
H10 H 0.3773 0.6535 1.2539
C8 C 0.9019(2) 0.6939(2) 0.74009(17)
C9 C 1.1519(2) 0.9184(3) 0.93029(19)
Zn1_2 Zn 0.5000 1.5000 1.5000
N1A N 0.75864(19) 1.58126(18) 1.17209(14)
N2A N 0.9021(2) 1.7442(2) 1.27938(15)
N3A N 0.66667(19) 1.58030(19) 1.35960(14)
N3A_2 N 0.66667(19) 0.58030(19) 0.35960(14)
N4A N 0.56594(19) 1.07129(19) 0.69569(14)
N5A N 0.3728(2) 0.9794(2) 0.63753(16)
N6A N 0.4886(2) 0.76769(19) 0.58336(14)
N6_2 N 0.5114(2) 0.23231(19) 0.41664(14)
N7A N -0.0489(2) 0.2607(2) 0.16704(17)
N8A N 0.2318(2) 0.3670(2) 0.34802(15)
N9A N -0.2524(2) -0.0682(2) -0.02110(18)
C1A C 0.8398(2) 1.7363(2) 1.38884(18)
H1A H 0.9102 1.8319 1.4812
C2A C 0.6212(2) 1.4856(2) 1.22181(17)
H2A H 0.5074 1.3672 1.1668
C3A C 0.3346(2) 0.7981(3) 0.57162(19)
H3A H 0.2087 0.6961 0.5197
C4A C 0.6315(2) 0.9442(2) 0.66369(17)
H4A H 0.7614 0.9750 0.6938
C5A C 0.7710(2) 1.5383(2) 1.02804(17)
H5A H 0.7271 1.6132 0.9951
H6A H 0.9067 1.5792 1.0246
C6A C 0.6490(2) 1.3241(2) 0.93202(17)
H7A H 0.5121 1.2847 0.9310
H8A H 0.6879 1.2486 0.9678
C7A C 0.6715(2) 1.2794(2) 0.78480(17)
H9A H 0.8096 1.3281 0.7866
H10A H 0.6227 1.3465 0.7461
C8A C 0.0981(2) 0.3061(2) 0.25991(17)
C9A C -0.1519(2) 0.0816(3) 0.06971(19)
loop_
_geom_bond_atom_site_label_1
_geom_bond_atom_site_label_2
_geom_bond_site_symmetry_1
_geom_bond_site_symmetry_2
Zn1 N3 1_555 1_555
N1 N2 1_555 1_555
N2 C1 1_555 1_555
N3 C1 1_555 1_555
N4 N5 1_555 1_555
N5 C3 1_555 1_555
N6 C3 1_555 1_555
N7 C8 1_555 1_555
N8 Zn1 1_555 1_555
N9 C9 1_555 1_555
C1 H1 1_555 1_555
C2 N1 1_555 1_555
H2 C2 1_555 1_555
C3 H3 1_555 1_555
C4 N4 1_555 1_555
H4 C4 1_555 1_555
C5 N1 1_555 1_555
H5 C5 1_555 1_555
H6 C5 1_555 1_555
C6 C5 1_555 1_555
H7 C6 1_555 1_555
H8 C6 1_555 1_555
C7 N4 1_555 1_555
H9 C7 1_555 1_555
H10 C7 1_555 1_555
C8 N8 1_555 1_555
C9 N7 1_555 1_555
Zn1_2 N6 1_555 1_555
N1A N2A 1_555 1_555
N2A C1A 1_555 1_555
N3A Zn1_2 1_555 1_555
N3A_2 Zn1 1_555 1_555
N4A N5A 1_555 1_555
N5A C3A 1_555 1_555
N6A Zn1 1_555 1_555
N6_2 Zn1 1_555 1_555
N7A C8A 1_555 1_555
N8A Zn1 1_555 1_555
N9A C9A 1_555 1_555
C1A N3A 1_555 1_555
H1A C1A 1_555 1_555
C2A N1A 1_555 1_555
H2A C2A 1_555 1_555
C3A N6A 1_555 1_555
H3A C3A 1_555 1_555
C4A N4A 1_555 1_555
H4A C4A 1_555 1_555
C5A N1A 1_555 1_555
H5A C5A 1_555 1_555
H6A C5A 1_555 1_555
C6A C5A 1_555 1_555
H7A C6A 1_555 1_555
H8A C6A 1_555 1_555
C7A N4A 1_555 1_555
H9A C7A 1_555 1_555
H10A C7A 1_555 1_555
C8A N8A 1_555 1_555
C9A N7A 1_555 1_555
N3 C2 1_555 1_555
N6 C4 1_555 1_555
C6 C7 1_555 1_555
N3A C2A 1_555 1_555
N6A C4A 1_555 1_555
C6A C7A 1_555 1_555

#END
