
#######################################################################
#
#                 Cambridge Crystallographic Data Centre
#                                CCDC 
#
#######################################################################
#
# If this CIF has been generated from an entry in the Cambridge 
# Structural Database, then it will include bibliographic, chemical, 
# crystal, experimental, refinement or atomic coordinate data resulting 
# from the CCDC's data processing and validation procedures.
#
#######################################################################

data_XULBAI01
_symmetry_cell_setting           triclinic
_symmetry_space_group_name_H-M   'P -1'
_symmetry_Int_Tables_number      2
_space_group_name_Hall           '-P 1'
loop_
_symmetry_equiv_pos_site_id
_symmetry_equiv_pos_as_xyz
1 x,y,z
2 -x,-y,-z
_cell_length_a                   8.0126(8)
_cell_length_b                   8.5067(8)
_cell_length_c                   10.7118(15)
_cell_angle_alpha                111.758(2)
_cell_angle_beta                 93.648(2)
_cell_angle_gamma                115.0670(10)
_cell_volume                     592.731
loop_
_atom_site_label
_atom_site_type_symbol
_atom_site_fract_x
_atom_site_fract_y
_atom_site_fract_z
Zn1 Zn 1.0000 1.0000 0.5000
N1 N 0.93396(19) 0.43008(18) 0.30341(14)
N2 N 1.1251(2) 0.5232(2) 0.36181(17)
N3 N 1.01016(19) 0.73238(18) 0.41665(14)
N4 N 0.74242(18) -0.07877(18) -0.17316(13)
N5 N 0.5995(2) -0.2416(2) -0.28021(15)
N6 N 0.83332(19) -0.07989(18) -0.36020(13)
N7 N 0.7349(2) 0.8670(2) 0.34677(15)
N8 N 0.4547(2) 0.7604(2) 0.16861(18)
N9 N 0.2480(2) 0.4331(3) -0.01849(19)
C1 C 1.1627(3) 0.7034(3) 0.4283(2)
H1 H 1.2849 0.8037 0.4796
C2 C 0.8690(2) 0.5560(2) 0.33638(17)
H2 H 0.7426 0.5249 0.3073
C3 C 0.8291(3) 0.2223(2) 0.21373(17)
H3 H 0.6951 0.1738 0.2122
H4 H 0.8773 0.1572 0.2511
C4 C 0.8498(3) 0.1778(2) 0.06651(17)
H5 H 0.8099 0.2501 0.0316
H6 H 0.9829 0.2185 0.0674
C5 C 0.7309(2) -0.0354(2) -0.02921(17)
H7 H 0.7749 -0.1070 0.0033
H8 H 0.5988 -0.0773 -0.0263
C6 C 0.6617(3) -0.2342(2) -0.38925(18)
H9 H 0.5930 -0.3280 -0.4797
C7 C 0.8784(2) 0.0151(2) -0.22297(16)
H10 H 0.9893 0.1309 -0.1691
C8 C 0.6013(2) 0.8060(2) 0.26017(17)
C9 C 0.3495(2) 0.5818(3) 0.07155(19)
Zn1_2 Zn 1.0000 0.0000 -0.5000
N1A N 1.06604(19) 0.56992(18) -0.30341(14)
N2A N 0.8749(2) 0.4768(2) -0.36181(17)
N3A N 0.98984(19) 1.26762(18) 0.58335(14)
N3A_2 N 0.98984(19) 0.26762(18) -0.41665(14)
N4A N 1.25758(18) 1.07877(18) 0.17316(13)
N5A N 1.4005(2) 1.2416(2) 0.28021(15)
N6_2 N 0.83332(19) 0.92011(18) 0.63980(13)
N6A N 1.16668(19) 1.07989(18) 0.36020(13)
N7A N 1.2651(2) 1.1330(2) 0.65323(15)
N8A N 1.5453(2) 1.2396(2) 0.83139(18)
N9A N 1.7520(2) 1.5669(3) 1.01849(19)
C1A C 0.8373(3) 0.2966(3) -0.4283(2)
H1A H 0.7151 0.1963 -0.4796
C2A C 1.1310(2) 0.4440(2) -0.33638(17)
H2A H 1.2574 0.4751 -0.3073
C3A C 1.1709(3) 0.7777(2) -0.21373(17)
H3A H 1.3049 0.8262 -0.2122
H4A H 1.1227 0.8428 -0.2511
C4A C 1.1502(3) 0.8222(2) -0.06651(17)
H5A H 1.1901 0.7499 -0.0316
H6A H 1.0171 0.7815 -0.0674
C5A C 1.2691(2) 1.0354(2) 0.02921(17)
H7A H 1.2251 1.1070 -0.0033
H8A H 1.4012 1.0773 0.0263
C6A C 1.3383(3) 1.2342(2) 0.38925(18)
H9A H 1.4070 1.3280 0.4797
C7A C 1.1216(2) 0.9849(2) 0.22297(16)
H10A H 1.0107 0.8691 0.1691
C8A C 1.3987(2) 1.1940(2) 0.73983(17)
C9A C 1.6505(2) 1.4182(3) 0.92845(19)
loop_
_geom_bond_atom_site_label_1
_geom_bond_atom_site_label_2
_geom_bond_site_symmetry_1
_geom_bond_site_symmetry_2
Zn1 N3 1_555 1_555
N1 N2 1_555 1_555
N2 C1 1_555 1_555
N3 C1 1_555 1_555
N4 N5 1_555 1_555
N5 C6 1_555 1_555
N6 C6 1_555 1_555
N7 Zn1 1_555 1_555
N8 C8 1_555 1_555
N9 C9 1_555 1_555
C1 H1 1_555 1_555
C2 N1 1_555 1_555
H2 C2 1_555 1_555
C3 N1 1_555 1_555
H3 C3 1_555 1_555
H4 C3 1_555 1_555
C4 C3 1_555 1_555
H5 C4 1_555 1_555
H6 C4 1_555 1_555
C5 N4 1_555 1_555
H7 C5 1_555 1_555
H8 C5 1_555 1_555
C6 H9 1_555 1_555
C7 N4 1_555 1_555
H10 C7 1_555 1_555
C8 N7 1_555 1_555
C9 N8 1_555 1_555
Zn1_2 N6 1_555 1_555
N1A N2A 1_555 1_555
N2A C1A 1_555 1_555
N3A Zn1 1_555 1_555
N3A_2 Zn1_2 1_555 1_555
N4A N5A 1_555 1_555
N5A C6A 1_555 1_555
N6_2 Zn1 1_555 1_555
N6A Zn1 1_555 1_555
N7A Zn1 1_555 1_555
N8A C8A 1_555 1_555
N9A C9A 1_555 1_555
C1A N3A_2 1_555 1_555
H1A C1A 1_555 1_555
C2A N1A 1_555 1_555
H2A C2A 1_555 1_555
C3A N1A 1_555 1_555
H3A C3A 1_555 1_555
H4A C3A 1_555 1_555
C4A C3A 1_555 1_555
H5A C4A 1_555 1_555
H6A C4A 1_555 1_555
C5A N4A 1_555 1_555
H7A C5A 1_555 1_555
H8A C5A 1_555 1_555
C6A N6A 1_555 1_555
H9A C6A 1_555 1_555
C7A N4A 1_555 1_555
H10A C7A 1_555 1_555
C8A N7A 1_555 1_555
C9A N8A 1_555 1_555
N3 C2 1_555 1_555
N6 C7 1_555 1_555
C4 C5 1_555 1_555
N3A_2 C2A 1_555 1_555
N6A C7A 1_555 1_555
C4A C5A 1_555 1_555

#END
