
#######################################################################
#
#                 Cambridge Crystallographic Data Centre
#                                CCDC 
#
#######################################################################
#
# If this CIF has been generated from an entry in the Cambridge 
# Structural Database, then it will include bibliographic, chemical, 
# crystal, experimental, refinement or atomic coordinate data resulting 
# from the CCDC's data processing and validation procedures.
#
#######################################################################

data_XULDIT
_symmetry_cell_setting           triclinic
_symmetry_space_group_name_H-M   'P -1'
_symmetry_Int_Tables_number      2
_space_group_name_Hall           '-P 1'
loop_
_symmetry_equiv_pos_site_id
_symmetry_equiv_pos_as_xyz
1 x,y,z
2 -x,-y,-z
_cell_length_a                   10.570(2)
_cell_length_b                   10.659(2)
_cell_length_c                   13.810(3)
_cell_angle_alpha                104.32(3)
_cell_angle_beta                 103.67(3)
_cell_angle_gamma                109.51(3)
_cell_volume                     1331.55
loop_
_atom_site_label
_atom_site_type_symbol
_atom_site_fract_x
_atom_site_fract_y
_atom_site_fract_z
Co1 Co -0.76010(5) 0.47571(6) -0.37607(4)
Co2 Co 0.66874(5) 1.40542(6) 1.07939(4)
O1 O 1.1130(3) 1.4193(4) 0.7037(3)
O2 O 1.1160(3) 1.5137(3) 0.8652(2)
O3 O 0.6482(3) 1.3515(4) 0.9255(2)
O4 O 0.4514(3) 1.2891(4) 0.7900(2)
O5 O 0.6840(3) 1.6113(3) 1.0919(2)
O6 O 0.6136(3) 1.1791(3) 0.46865(19)
O7 O 0.0637(3) 0.8311(3) -0.0538(2)
O8 O -0.0919(3) 0.6314(3) -0.4527(2)
O9 O -0.3242(3) 0.5091(3) -0.50444(19)
O10 O -0.4606(3) 0.6562(3) -0.0777(2)
O11 O -0.5801(3) 0.5873(4) -0.2468(2)
O12 O -0.7998(3) 0.6652(3) -0.3670(2)
O13 O -0.7283(4) 0.2852(4) -0.3866(3)
N1 N 0.6652(5) 1.2128(4) 1.0913(4)
C1 C 1.0520(4) 1.4401(4) 0.7690(3)
C2 C 0.8919(4) 1.3692(4) 0.7291(3)
C3 C 0.8209(4) 1.3011(4) 0.6196(3)
H1 H 0.8732 1.2958 0.5744
C4 C 0.6725(4) 1.2412(4) 0.5775(3)
C5 C 0.5942(4) 1.2472(4) 0.6455(3)
H2 H 0.4946 1.2076 0.6178
C6 C 0.6666(4) 1.3133(4) 0.7556(2)
C7 C 0.8143(4) 1.3745(4) 0.7973(3)
H3 H 0.8616 1.4191 0.8706
C8 C 0.5809(4) 1.3181(4) 0.8285(3)
C9 C 0.6569(7) 1.1152(9) 1.1072(6)
C10 C 0.6704(10) 0.9869(8) 1.1387(7)
H4 H 0.7181 0.9457 1.0981
H5 H 0.5765 0.9163 1.1239
H6 H 0.7247 1.0205 1.2134
C11 C 0.4623(4) 1.1345(4) 0.4204(3)
H7 H 0.4374 1.2148 0.4394
H8 H 0.4097 1.0623 0.4446
C12 C 0.4259(4) 1.0749(4) 0.3015(3)
H9 H 0.4654 1.0055 0.2853
H10 H 0.4705 1.1513 0.2778
C13 C 0.2654(4) 1.0045(4) 0.2402(3)
H11 H 0.2256 1.0742 0.2542
H12 H 0.2199 0.9289 0.2643
C14 C 0.2344(4) 0.9429(4) 0.1203(3)
H13 H 0.2794 1.0192 0.0966
H14 H 0.2764 0.8751 0.1070
C15 C 0.0753(4) 0.8693(4) 0.0560(3)
H15 H 0.0301 0.7851 0.0718
H16 H 0.0295 0.9330 0.0724
C16 C -0.0719(4) 0.7133(4) -0.2347(3)
H17 H 0.0137 0.7334 -0.2479
C17 C -0.2016(4) 0.6394(4) -0.3187(3)
C18 C -0.3300(4) 0.6120(4) -0.2992(3)
H18 H -0.4169 0.5633 -0.3558
C19 C -0.3281(3) 0.6576(4) -0.1953(2)
C20 C -0.1969(4) 0.7299(4) -0.1100(3)
H19 H -0.1951 0.7590 -0.0402
C21 C -0.0701(4) 0.7575(4) -0.1303(3)
C22 C -0.2056(4) 0.5904(4) -0.4311(3)
C23 C -0.4637(4) 0.6314(4) -0.1727(3)
Co1_2 Co 1.23990(5) 1.47571(6) 0.62393(4)
Co1A Co -0.23990(5) 0.52429(6) -0.62393(4)
Co2A Co -0.66874(5) 0.59458(6) -0.07939(4)
Co2A_2 Co 1.33126(5) 1.59458(6) 0.92061(4)
O1_2 O -0.8870(3) 0.4193(4) -0.2963(3)
O2A O 0.8840(3) 1.4863(3) 1.1348(2)
O8A O -0.9081(3) 0.3686(3) -0.5473(2)
O9A O -0.6758(3) 0.4909(3) -0.49556(19)
O10A O 0.4606(3) 1.3438(3) 1.0777(2)
loop_
_geom_bond_atom_site_label_1
_geom_bond_atom_site_label_2
_geom_bond_site_symmetry_1
_geom_bond_site_symmetry_2
Co1 O11 1_555 1_555
Co2 O3 1_555 1_555
O1 C1 1_555 1_555
O2 C1 1_555 1_555
O3 C8 1_555 1_555
O4 C8 1_555 1_555
O5 Co2 1_555 1_555
O6 C4 1_555 1_555
O7 C15 1_555 1_555
O8 C22 1_555 1_555
O9 C22 1_555 1_555
O10 C23 1_555 1_555
O11 C23 1_555 1_555
O12 Co1 1_555 1_555
O13 Co1 1_555 1_555
N1 Co2 1_555 1_555
C1 C2 1_555 1_555
C2 C3 1_555 1_555
C3 H1 1_555 1_555
C4 C3 1_555 1_555
C5 C4 1_555 1_555
H2 C5 1_555 1_555
C6 C5 1_555 1_555
C7 C2 1_555 1_555
H3 C7 1_555 1_555
C8 C6 1_555 1_555
C9 N1 1_555 1_555
C10 C9 1_555 1_555
H4 C10 1_555 1_555
H5 C10 1_555 1_555
H6 C10 1_555 1_555
C11 O6 1_555 1_555
H7 C11 1_555 1_555
H8 C11 1_555 1_555
C12 C11 1_555 1_555
H9 C12 1_555 1_555
H10 C12 1_555 1_555
C13 C12 1_555 1_555
H11 C13 1_555 1_555
H12 C13 1_555 1_555
C14 C13 1_555 1_555
H13 C14 1_555 1_555
H14 C14 1_555 1_555
C15 C14 1_555 1_555
H15 C15 1_555 1_555
H16 C15 1_555 1_555
C16 H17 1_555 1_555
C17 C16 1_555 1_555
C18 C17 1_555 1_555
H18 C18 1_555 1_555
C19 C18 1_555 1_555
C20 C19 1_555 1_555
H19 C20 1_555 1_555
C21 O7 1_555 1_555
C22 C17 1_555 1_555
C23 C19 1_555 1_555
Co1_2 O1 1_555 1_555
Co1A O8 1_555 1_555
Co2A O10 1_555 1_555
Co2A_2 O2 1_555 1_555
O1_2 Co1 1_555 1_555
O2A Co2 1_555 1_555
O8A Co1 1_555 1_555
O9A Co1 1_555 1_555
O10A Co2 1_555 1_555
O9 Co1A 1_555 1_555
C6 C7 1_555 1_555
C16 C21 1_555 1_555
C20 C21 1_555 1_555

#END
