
#######################################################################
#
#                 Cambridge Crystallographic Data Centre
#                                CCDC 
#
#######################################################################
#
# If this CIF has been generated from an entry in the Cambridge 
# Structural Database, then it will include bibliographic, chemical, 
# crystal, experimental, refinement or atomic coordinate data resulting 
# from the CCDC's data processing and validation procedures.
#
#######################################################################

data_XULDOZ
_symmetry_cell_setting           orthorhombic
_symmetry_space_group_name_H-M   'F d d 2'
_symmetry_Int_Tables_number      43
_space_group_name_Hall           'F 2 -2d'
loop_
_symmetry_equiv_pos_site_id
_symmetry_equiv_pos_as_xyz
1 x,y,z
2 -x,-y,z
3 1/4+x,1/4-y,1/4+z
4 1/4-x,1/4+y,1/4+z
5 x,1/2+y,1/2+z
6 -x,1/2-y,1/2+z
7 1/4+x,3/4-y,3/4+z
8 1/4-x,3/4+y,3/4+z
9 1/2+x,y,1/2+z
10 1/2-x,-y,1/2+z
11 3/4+x,1/4-y,3/4+z
12 3/4-x,1/4+y,3/4+z
13 1/2+x,1/2+y,z
14 1/2-x,1/2-y,z
15 3/4+x,3/4-y,1/4+z
16 3/4-x,3/4+y,1/4+z
_cell_length_a                   23.362(5)
_cell_length_b                   22.491(5)
_cell_length_c                   22.738(5)
_cell_angle_alpha                90
_cell_angle_beta                 90
_cell_angle_gamma                90
_cell_volume                     11947.3
loop_
_atom_site_label
_atom_site_type_symbol
_atom_site_fract_x
_atom_site_fract_y
_atom_site_fract_z
Co1 Co 0.5000 0.5000 0.19978(6)
Co2 Co 0.51148(5) 0.61571(6) 0.11014(4)
Co3 Co 0.52874(5) 0.64602(6) 0.24645(5)
O1 O 0.4865(3) 0.6170(3) 1.0067(3)
O2 O 0.5491(3) 0.5592(3) 1.0490(3)
O3 O 0.6894(3) 0.4560(3) 0.9398(3)
O4 O 0.6746(2) 0.4267(3) 0.8478(2)
O5 O 0.5222(4) 0.5798(4) 0.7873(4)
O6 O 0.4509(4) 0.5763(4) 0.5233(4)
O7 O 0.3031(3) 0.4221(4) 0.4741(2)
O8 O 0.3051(3) 0.4177(3) 0.3764(2)
O9 O 0.4998(3) 0.5968(3) 0.3118(3)
O10 O 0.4457(3) 0.5327(3) 0.2641(2)
O11 O 0.5523(3) 0.4608(3) 0.1252(3)
O12 O 0.5422(2) 0.5773(3) 0.1856(2)
O13 O 0.5254(3) 0.7184(4) 0.3087(3)
H1 H 0.5270 0.7477 0.2852
H2 H 0.4915 0.7105 0.3197
O14 O 0.6140(3) 0.6354(3) 0.2819(3)
C1 C 0.5230(5) 0.5806(5) 1.0040(5)
C2 C 0.5466(4) 0.5594(5) 0.9440(4)
C3 C 0.5255(6) 0.5742(7) 0.8957(4)
H3 H 0.4924 0.5972 0.8964
C4 C 0.5477(6) 0.5588(6) 0.8407(6)
C5 C 0.5880(4) 0.5201(5) 0.8381(4)
H4 H 0.5995 0.5043 0.8022
C6 C 0.6136(4) 0.5025(4) 0.8893(3)
C7 C 0.5917(4) 0.5209(4) 0.9440(4)
H5 H 0.6075 0.5073 0.9790
C8 C 0.6636(3) 0.4571(4) 0.8931(4)
C9 C 0.5537(6) 0.5850(6) 0.7350(6)
H6 H 0.5599 0.5463 0.7173
H7 H 0.5905 0.6036 0.7423
C10 C 0.5158(6) 0.6250(6) 0.6946(5)
H8 H 0.4759 0.6219 0.7061
H9 H 0.5274 0.6663 0.6980
C11 C 0.5237(6) 0.6031(6) 0.6302(5)
H10 H 0.5628 0.6100 0.6175
H11 H 0.5160 0.5608 0.6278
C12 C 0.4817(6) 0.6378(6) 0.5901(5)
H12 H 0.4427 0.6315 0.6037
H13 H 0.4899 0.6800 0.5923
C13 C 0.4873(6) 0.6165(6) 0.5261(6)
H14 H 0.4788 0.6483 0.4986
H15 H 0.5254 0.6013 0.5182
C14 C 0.4321(5) 0.5511(6) 0.4727(5)
C15 C 0.4548(4) 0.5667(5) 0.4190(3)
H16 H 0.4843 0.5944 0.4169
C16 C 0.4341(3) 0.5412(4) 0.3689(3)
C17 C 0.3907(4) 0.4998(4) 0.3687(3)
H17 H 0.3771 0.4845 0.3334
C18 C 0.3673(4) 0.4810(4) 0.4220(3)
C19 C 0.3893(4) 0.5086(4) 0.4744(4)
H18 H 0.3742 0.4975 0.5106
C20 C 0.3246(4) 0.4390(4) 0.4249(4)
C21 C 0.4621(4) 0.5577(4) 0.3093(4)
Co2A Co 0.48852(5) 0.38429(6) 0.11014(4)
Co3A Co 0.47126(5) 0.35398(6) 0.24645(5)
O1A O 0.5135(3) 0.3830(3) 1.0067(3)
O2A O 0.4509(3) 0.4408(3) 1.0490(3)
O3A O 0.3106(3) 0.5440(3) 0.9398(3)
O4A O 0.3254(2) 0.5733(3) 0.8478(2)
O5A O 0.4778(4) 0.4202(4) 0.7873(4)
O6A O 0.5491(4) 0.4237(4) 0.5233(4)
O7A O 0.6969(3) 0.5779(4) 0.4741(2)
O8A O 0.6949(3) 0.5823(3) 0.3764(2)
O9A O 0.5002(3) 0.4032(3) 0.3118(3)
O10A O 0.5543(3) 0.4673(3) 0.2641(2)
O11A O 0.4477(3) 0.5392(3) 0.1252(3)
O12A O 0.4578(2) 0.4227(3) 0.1856(2)
O13A O 0.4746(3) 0.2816(4) 0.3087(3)
H1A H 0.4730 0.2523 0.2852
H2A H 0.5085 0.2895 0.3197
O14A O 0.3860(3) 0.3646(3) 0.2819(3)
C1A C 0.4770(5) 0.4194(5) 1.0040(5)
C2A C 0.4534(4) 0.4406(5) 0.9440(4)
C3A C 0.4745(6) 0.4258(7) 0.8957(4)
H3A H 0.5076 0.4028 0.8964
C4A C 0.4523(6) 0.4412(6) 0.8407(6)
C5A C 0.4120(4) 0.4799(5) 0.8381(4)
H4A H 0.4005 0.4957 0.8022
C6A C 0.3864(4) 0.4975(4) 0.8893(3)
C7A C 0.4083(4) 0.4791(4) 0.9440(4)
H5A H 0.3925 0.4927 0.9790
C8A C 0.3364(3) 0.5429(4) 0.8931(4)
C9A C 0.4463(6) 0.4150(6) 0.7350(6)
H6A H 0.4401 0.4537 0.7173
H7A H 0.4095 0.3964 0.7423
C10A C 0.4842(6) 0.3750(6) 0.6946(5)
H8A H 0.5241 0.3781 0.7061
H9A H 0.4726 0.3337 0.6980
C11A C 0.4763(6) 0.3969(6) 0.6302(5)
H10A H 0.4372 0.3900 0.6175
H11A H 0.4840 0.4392 0.6278
C12A C 0.5183(6) 0.3622(6) 0.5901(5)
H12A H 0.5573 0.3685 0.6037
H13A H 0.5101 0.3200 0.5923
C13A C 0.5127(6) 0.3835(6) 0.5261(6)
H14A H 0.5212 0.3517 0.4986
H15A H 0.4746 0.3987 0.5182
C14A C 0.5679(5) 0.4489(6) 0.4727(5)
C15A C 0.5452(4) 0.4333(5) 0.4190(3)
H16A H 0.5157 0.4056 0.4169
C16A C 0.5659(3) 0.4588(4) 0.3689(3)
C17A C 0.6093(4) 0.5002(4) 0.3687(3)
H17A H 0.6229 0.5155 0.3334
C18A C 0.6327(4) 0.5190(4) 0.4220(3)
C19A C 0.6107(4) 0.4914(4) 0.4744(4)
H18A H 0.6258 0.5025 0.5106
C20A C 0.6754(4) 0.5610(4) 0.4249(4)
C21A C 0.5379(4) 0.4423(4) 0.3093(4)
Co2_2 Co 0.51148(5) 0.61571(6) 1.11014(4)
Co2A_2 Co 0.48852(5) 0.38429(6) 1.11014(4)
Co2B Co 0.76148(5) 0.63429(6) 0.36014(4)
Co2G Co 0.73852(5) 0.36571(6) 0.86014(4)
Co2J Co 0.26148(5) 0.63429(6) 0.86014(4)
Co2O Co 0.23852(5) 0.36571(6) 0.36014(4)
Co3B Co 0.77874(5) 0.60398(6) 0.49645(5)
Co3G Co 0.72126(5) 0.39602(6) 0.99645(5)
Co3J Co 0.27874(5) 0.60398(6) 0.99645(5)
Co3O Co 0.22126(5) 0.39602(6) 0.49645(5)
O1_2 O 0.4865(3) 0.6170(3) 0.0067(3)
O1A_2 O 0.5135(3) 0.3830(3) 0.0067(3)
O2_2 O 0.5491(3) 0.5592(3) 0.0490(3)
O2A_2 O 0.4509(3) 0.4408(3) 0.0490(3)
O3C O 0.5606(3) 0.7060(3) 0.1898(3)
O3N O 0.4394(3) 0.2940(3) 0.1898(3)
O4C O 0.5754(2) 0.6767(3) 0.0978(2)
O4N O 0.4246(2) 0.3233(3) 0.0978(2)
O7F O 0.5531(3) 0.3279(4) 0.2241(2)
O7K O 0.4469(3) 0.6721(4) 0.2241(2)
O8F O 0.5551(3) 0.3323(3) 0.1264(2)
O8K O 0.4449(3) 0.6677(3) 0.1264(2)
O15 O 0.6598(5) 0.4334(6) 0.1745(6)
H19 H 0.6321 0.4095 0.1799
H20 H 0.6500 0.4696 0.1710
loop_
_geom_bond_atom_site_label_1
_geom_bond_atom_site_label_2
_geom_bond_site_symmetry_1
_geom_bond_site_symmetry_2
Co1 O10 1_555 1_555
Co2 O12 1_555 1_555
Co3 O9 1_555 1_555
O1 C1 1_555 1_555
O2 C1 1_555 1_555
O3 C8 1_555 1_555
O4 C8 1_555 1_555
O5 C4 1_555 1_555
O6 C13 1_555 1_555
O7 C20 1_555 1_555
O8 C20 1_555 1_555
O9 C21 1_555 1_555
O10 C21 1_555 1_555
O11 Co1 1_555 1_555
O12 Co1 1_555 1_555
O13 Co3 1_555 1_555
H1 O13 1_555 1_555
H2 O13 1_555 1_555
O14 Co3 1_555 1_555
C1 C2 1_555 1_555
C2 C3 1_555 1_555
C3 H3 1_555 1_555
C4 C3 1_555 1_555
C5 C4 1_555 1_555
H4 C5 1_555 1_555
C6 C5 1_555 1_555
C7 C2 1_555 1_555
H5 C7 1_555 1_555
C8 C6 1_555 1_555
C9 O5 1_555 1_555
H6 C9 1_555 1_555
H7 C9 1_555 1_555
C10 C9 1_555 1_555
H8 C10 1_555 1_555
H9 C10 1_555 1_555
C11 C10 1_555 1_555
H10 C11 1_555 1_555
H11 C11 1_555 1_555
C12 C11 1_555 1_555
H12 C12 1_555 1_555
H13 C12 1_555 1_555
C13 C12 1_555 1_555
H14 C13 1_555 1_555
H15 C13 1_555 1_555
C14 O6 1_555 1_555
C15 C14 1_555 1_555
H16 C15 1_555 1_555
C16 C15 1_555 1_555
C17 C16 1_555 1_555
H17 C17 1_555 1_555
C18 C17 1_555 1_555
C19 C14 1_555 1_555
H18 C19 1_555 1_555
C20 C18 1_555 1_555
C21 C16 1_555 1_555
O15 H19 1_555 1_555
H20 O15 1_555 1_555
Co2A O11 1_555 1_555
Co3A O9A 1_555 1_555
O1A C1A 1_555 1_555
O2A C1A 1_555 1_555
O3A C8A 1_555 1_555
O4A C8A 1_555 1_555
O5A C4A 1_555 1_555
O6A C13A 1_555 1_555
O7A C20A 1_555 1_555
O8A C20A 1_555 1_555
O9A C21A 1_555 1_555
O10A Co1 1_555 1_555
O11A Co1 1_555 1_555
O12A Co1 1_555 1_555
O13A Co3A 1_555 1_555
H1A O13A 1_555 1_555
H2A O13A 1_555 1_555
O14A Co3A 1_555 1_555
C1A C2A 1_555 1_555
C2A C3A 1_555 1_555
C3A H3A 1_555 1_555
C4A C3A 1_555 1_555
C5A C4A 1_555 1_555
H4A C5A 1_555 1_555
C6A C5A 1_555 1_555
C7A C2A 1_555 1_555
H5A C7A 1_555 1_555
C8A C6A 1_555 1_555
C9A O5A 1_555 1_555
H6A C9A 1_555 1_555
H7A C9A 1_555 1_555
C10A C9A 1_555 1_555
H8A C10A 1_555 1_555
H9A C10A 1_555 1_555
C11A C10A 1_555 1_555
H10A C11A 1_555 1_555
H11A C11A 1_555 1_555
C12A C11A 1_555 1_555
H12A C12A 1_555 1_555
H13A C12A 1_555 1_555
C13A C12A 1_555 1_555
H14A C13A 1_555 1_555
H15A C13A 1_555 1_555
C14A O6A 1_555 1_555
C15A C14A 1_555 1_555
H16A C15A 1_555 1_555
C16A C15A 1_555 1_555
C17A C16A 1_555 1_555
H17A C17A 1_555 1_555
C18A C17A 1_555 1_555
C19A C14A 1_555 1_555
H18A C19A 1_555 1_555
C20A C18A 1_555 1_555
C21A O10A 1_555 1_555
Co2_2 O1 1_555 1_555
Co2A_2 O1A 1_555 1_555
Co2B O8A 1_555 1_555
Co2G O4 1_555 1_555
Co2J O4A 1_555 1_555
Co2O O8 1_555 1_555
Co3B O7A 1_555 1_555
Co3G O3 1_555 1_555
Co3J O3A 1_555 1_555
Co3O O7 1_555 1_555
O1_2 Co2 1_555 1_555
O1A_2 Co2A 1_555 1_555
O2_2 Co2 1_555 1_555
O2A_2 Co2A 1_555 1_555
O3C Co3 1_555 1_555
O3N Co3A 1_555 1_555
O4C Co2 1_555 1_555
O4N Co2A 1_555 1_555
O7F Co3A 1_555 1_555
O7K Co3 1_555 1_555
O8F Co2A 1_555 1_555
O8K Co2 1_555 1_555
Co2 O11A 1_555 1_555
Co3 O12 1_555 1_555
O2 Co2_2 1_555 1_555
C6 C7 1_555 1_555
C18 C19 1_555 1_555
Co2A O12A 1_555 1_555
Co3A O12A 1_555 1_555
O2A Co2A_2 1_555 1_555
C6A C7A 1_555 1_555
C16A C21A 1_555 1_555
C18A C19A 1_555 1_555

#END
