
#######################################################################
#
#                 Cambridge Crystallographic Data Centre
#                                CCDC 
#
#######################################################################
#
# If this CIF has been generated from an entry in the Cambridge 
# Structural Database, then it will include bibliographic, chemical, 
# crystal, experimental, refinement or atomic coordinate data resulting 
# from the CCDC's data processing and validation procedures.
#
#######################################################################

data_XULFEQ
_symmetry_cell_setting           triclinic
_symmetry_space_group_name_H-M   'P -1'
_symmetry_Int_Tables_number      2
_space_group_name_Hall           '-P 1'
loop_
_symmetry_equiv_pos_site_id
_symmetry_equiv_pos_as_xyz
1 x,y,z
2 -x,-y,-z
_cell_length_a                   8.623(4)
_cell_length_b                   9.466(4)
_cell_length_c                   11.371(5)
_cell_angle_alpha                80.005(6)
_cell_angle_beta                 79.760(6)
_cell_angle_gamma                69.169(5)
_cell_volume                     847.507
loop_
_atom_site_label
_atom_site_type_symbol
_atom_site_fract_x
_atom_site_fract_y
_atom_site_fract_z
Zn1 Zn 0.89140(5) 0.34932(4) 0.65509(3)
Zn2 Zn 0.56275(5) 0.22564(4) 1.00250(3)
O1 O 0.7539(3) 0.2485(3) 0.7756(2)
O2 O 0.5492(4) 0.1596(3) 0.8459(2)
O3 O 0.2570(3) 0.4911(3) 0.4478(2)
O4 O 0.3348(4) 0.3610(3) 0.2918(2)
O5 O 0.9537(3) -0.2042(3) 0.4546(2)
O6 O 0.8571(3) -0.0835(3) 0.2836(2)
O7 O 1.2866(3) 0.7085(3) 0.9204(2)
N1 N 1.4551(4) 0.4640(3) 0.9752(2)
O8 O 0.7187(4) 0.0005(3) 1.0490(3)
H1 H 0.820(2) -0.008(6) 1.013(3)
H2 H 0.739(5) -0.009(6) 1.1235(13)
O9 O 0.3877(4) 0.1777(4) 1.1310(2)
H3 H 0.367(6) 0.227(4) 1.194(3)
N2 N 1.0164(3) 0.4259(3) 0.7497(3)
C1 C 0.6319(4) 0.1690(4) 0.6357(3)
C2 C 0.5009(4) 0.2747(4) 0.5778(3)
H4 H 0.4244 0.3547 0.6170
C3 C 0.4848(4) 0.2604(4) 0.4615(3)
C4 C 0.6001(4) 0.1396(4) 0.4040(3)
H5 H 0.5900 0.1304 0.3258
C5 C 0.7303(4) 0.0323(4) 0.4619(3)
C6 C 0.7462(4) 0.0475(4) 0.5789(3)
H6 H 0.8326 -0.0231 0.6185
C7 C 0.6489(4) 0.1933(4) 0.7597(3)
C8 C 0.3490(4) 0.3774(4) 0.3945(3)
C9 C 0.8536(4) -0.0932(4) 0.3946(3)
C10 C 1.0650(5) 0.5458(4) 0.7031(3)
H7 H 1.0280 0.6011 0.6315
C11 C 1.1681(5) 0.5899(4) 0.7579(3)
H8 H 1.2008 0.6730 0.7230
C12 C 1.2223(4) 0.5094(4) 0.8653(3)
C13 C 1.1677(4) 0.3884(4) 0.9159(3)
H9 H 1.1994 0.3337 0.9890
C14 C 1.0649(4) 0.3508(4) 0.8552(3)
H10 H 1.0279 0.2698 0.8891
C15 C 1.3286(4) 0.5629(4) 0.9258(3)
H13 H 0.389(7) 0.084(7) 1.152(5)
Zn1A Zn 0.10860(5) 0.65068(4) 0.34491(3)
Zn1A_2 Zn 1.10860(5) -0.34932(4) 0.34491(3)
Zn1A_3 Zn 2.10860(5) 0.65068(4) 1.34491(3)
Zn1_2 Zn -0.10860(5) 1.34932(4) 0.65509(3)
Zn2A Zn 0.43725(5) 0.77436(4) -0.00250(3)
Zn2A_2 Zn 1.43725(5) 0.77436(4) 0.99750(3)
Zn2_2 Zn 1.56275(5) 0.22564(4) 1.00250(3)
O1A O 0.2461(3) 0.7515(3) 0.2244(2)
O2A O 0.4508(4) 0.8404(3) 0.1541(2)
O3A O 0.7430(3) 0.5089(3) 0.5522(2)
O4A O 0.6652(4) 0.6390(3) 0.7082(2)
O5A O 0.0463(3) 1.2042(3) 0.5454(2)
O5A_2 O 1.0463(3) 0.2042(3) 0.5454(2)
O5_2 O -0.0463(3) 0.7958(3) 0.4546(2)
O6A O 0.1429(3) 1.0835(3) 0.7164(2)
O7A O 1.7134(3) 0.2915(3) 1.0796(2)
O7A_2 O 0.7134(3) 0.2915(3) 1.0796(2)
O7_2 O 0.2866(3) 0.7085(3) -0.0796(2)
N1A N 1.5449(4) 0.5360(3) 1.0248(2)
N1_2 N 0.4551(4) 0.4640(3) 0.9752(2)
N1A_2 N 0.5449(4) 0.5360(3) 0.0248(2)
O8A O 0.2813(4) 0.9995(3) -0.0490(3)
H1A H 0.180(2) 1.008(6) -0.013(3)
H2A H 0.261(5) 1.009(6) -0.1235(13)
O9A O 0.6123(4) 0.8223(4) -0.1310(2)
H3A H 0.633(6) 0.773(4) -0.194(3)
N2A N 1.9836(3) 0.5741(3) 1.2503(3)
N2A_2 N -0.0164(3) 0.5741(3) 0.2503(3)
C1A C 0.3681(4) 0.8310(4) 0.3643(3)
C2A C 0.4991(4) 0.7253(4) 0.4222(3)
H4A H 0.5756 0.6453 0.3830
C3A C 0.5152(4) 0.7396(4) 0.5385(3)
C4A C 0.3999(4) 0.8604(4) 0.5960(3)
H5A H 0.4100 0.8696 0.6742
C5A C 0.2697(4) 0.9677(4) 0.5381(3)
C6A C 0.2538(4) 0.9525(4) 0.4211(3)
H6A H 0.1674 1.0231 0.3815
C7A C 0.3511(4) 0.8067(4) 0.2403(3)
C8A C 0.6510(4) 0.6226(4) 0.6055(3)
C9A C 0.1464(4) 1.0932(4) 0.6054(3)
C10A C 1.9350(5) 0.4542(4) 1.2969(3)
H7A H 1.9720 0.3989 1.3685
C11A C 1.8319(5) 0.4101(4) 1.2421(3)
H8A H 1.7992 0.3270 1.2770
C12A C 1.7777(4) 0.4906(4) 1.1347(3)
C13A C 1.8323(4) 0.6116(4) 1.0841(3)
H9A H 1.8006 0.6663 1.0110
C14A C 1.9351(4) 0.6492(4) 1.1448(3)
H10A H 1.9721 0.7302 1.1109
C15A C 1.6714(4) 0.4371(4) 1.0742(3)
H13A H 0.611(7) 0.916(7) -0.152(5)
O10 O -0.0332(4) 0.9087(4) 0.8737(3)
H11 H 0.057(4) 0.852(5) 0.907(5)
H12 H 0.002(6) 0.985(4) 0.841(5)
loop_
_geom_bond_atom_site_label_1
_geom_bond_atom_site_label_2
_geom_bond_site_symmetry_1
_geom_bond_site_symmetry_2
Zn1 O1 1_555 1_555
Zn2 O2 1_555 1_555
O1 C7 1_555 1_555
O2 C7 1_555 1_555
O3 C8 1_555 1_555
O4 C8 1_555 1_555
O5 C9 1_555 1_555
O6 C9 1_555 1_555
O7 C15 1_555 1_555
N1 C15 1_555 1_555
O8 Zn2 1_555 1_555
H1 O8 1_555 1_555
H2 O8 1_555 1_555
O9 Zn2 1_555 1_555
H3 O9 1_555 1_555
N2 Zn1 1_555 1_555
C1 C2 1_555 1_555
C2 H4 1_555 1_555
C3 C2 1_555 1_555
C4 C3 1_555 1_555
H5 C4 1_555 1_555
C5 C4 1_555 1_555
C6 C1 1_555 1_555
H6 C6 1_555 1_555
C7 C1 1_555 1_555
C8 C3 1_555 1_555
C9 C5 1_555 1_555
C10 N2 1_555 1_555
H7 C10 1_555 1_555
C11 C10 1_555 1_555
H8 C11 1_555 1_555
C12 C11 1_555 1_555
C13 C12 1_555 1_555
H9 C13 1_555 1_555
C14 N2 1_555 1_555
H10 C14 1_555 1_555
C15 C12 1_555 1_555
O10 H11 1_555 1_555
H12 O10 1_555 1_555
H13 O9 1_555 1_555
Zn1A O3 1_555 1_555
Zn1A_2 O5 1_555 1_555
Zn1A_3 N2A 1_555 1_555
Zn1_2 O5A 1_555 1_555
Zn2A O2A 1_555 1_555
Zn2A_2 O7 1_555 1_555
Zn2_2 N1 1_555 1_555
O1A Zn1A 1_555 1_555
O2A C7A 1_555 1_555
O3A Zn1 1_555 1_555
O4A C8A 1_555 1_555
O5A C9A 1_555 1_555
O5A_2 Zn1 1_555 1_555
O5_2 Zn1A 1_555 1_555
O6A C9A 1_555 1_555
O7A Zn2_2 1_555 1_555
O7A_2 Zn2 1_555 1_555
O7_2 Zn2A 1_555 1_555
N1A N1 1_555 1_555
N1_2 Zn2 1_555 1_555
N1A_2 Zn2A 1_555 1_555
O8A Zn2A 1_555 1_555
H1A O8A 1_555 1_555
H2A O8A 1_555 1_555
O9A Zn2A 1_555 1_555
H3A O9A 1_555 1_555
N2A C10A 1_555 1_555
N2A_2 Zn1A 1_555 1_555
C1A C2A 1_555 1_555
C2A H4A 1_555 1_555
C3A C2A 1_555 1_555
C4A C3A 1_555 1_555
H5A C4A 1_555 1_555
C5A C4A 1_555 1_555
C6A C1A 1_555 1_555
H6A C6A 1_555 1_555
C7A O1A 1_555 1_555
C8A O3A 1_555 1_555
C9A C5A 1_555 1_555
C10A H7A 1_555 1_555
C11A C10A 1_555 1_555
H8A C11A 1_555 1_555
C12A C11A 1_555 1_555
C13A C12A 1_555 1_555
H9A C13A 1_555 1_555
C14A N2A 1_555 1_555
H10A C14A 1_555 1_555
C15A O7A 1_555 1_555
H13A O9A 1_555 1_555
C5 C6 1_555 1_555
C13 C14 1_555 1_555
Zn2A_2 N1A 1_555 1_555
N1A C15A 1_555 1_555
C1A C7A 1_555 1_555
C3A C8A 1_555 1_555
C5A C6A 1_555 1_555
C12A C15A 1_555 1_555
C13A C14A 1_555 1_555

#END
