
#######################################################################
#
#                 Cambridge Crystallographic Data Centre
#                                CCDC 
#
#######################################################################
#
# If this CIF has been generated from an entry in the Cambridge 
# Structural Database, then it will include bibliographic, chemical, 
# crystal, experimental, refinement or atomic coordinate data resulting 
# from the CCDC's data processing and validation procedures.
#
#######################################################################

data_XULGIU
_symmetry_cell_setting           monoclinic
_symmetry_space_group_name_H-M   'P 21/c'
_symmetry_Int_Tables_number      14
_space_group_name_Hall           '-P 2ybc'
loop_
_symmetry_equiv_pos_site_id
_symmetry_equiv_pos_as_xyz
1 x,y,z
2 -x,1/2+y,1/2-z
3 -x,-y,-z
4 x,1/2-y,1/2+z
_cell_length_a                   10.130(6)
_cell_length_b                   9.754(3)
_cell_length_c                   12.511(4)
_cell_angle_alpha                90
_cell_angle_beta                 94.22(4)
_cell_angle_gamma                90
_cell_volume                     1232.84
loop_
_atom_site_label
_atom_site_type_symbol
_atom_site_fract_x
_atom_site_fract_y
_atom_site_fract_z
Sn1 Sn 0.4884(2) 0.14547(2) 0.10944(1)
Sn2 Sn 0.87119(2) 0.31428(2) 0.49330(1)
F1 F 0.4472(2) 0.3529(2) 0.1030(1)
F2 F 0.8886(2) 0.1080(2) 0.5090(1)
O1 O 0.8469(2) 0.2796(2) 0.3123(1)
O2 O 0.0834(2) 0.2074(3) -0.0622(2)
O3 O 0.2767(2) 0.1269(2) 0.1740(1)
O4 O 0.5103(2) 0.1910(2) 0.2879(1)
O5 O 0.7107(2) 0.2545(2) 0.1665(1)
O6 O 0.6423(2) 0.2343(2) 0.4344(1)
O7 O 0.3002(2) 0.1740(2) -0.0366(1)
O8 O 0.0614(2) 0.1755(2) 0.1500(2)
C1 C 0.1867(2) 0.1828(3) -0.0042(2)
C2 C 0.7354(2) 0.2547(2) 0.2653(2)
C3 C 0.1730(2) 0.1604(3) 0.1174(2)
C4 C 0.6199(2) 0.2237(3) 0.3356(2)
O2C O 1.0834(2) 0.2926(3) 0.4378(2)
O8C O 1.0614(2) 0.3245(2) 0.6500(2)
Sn2C Sn -0.12881(2) 0.18572(2) -0.00670(1)
O9 O 0.2928(2) 0.4459(2) 0.2574(2)
H3 H 0.357 0.414 0.208
H5 H 0.306 0.393 0.314
N1 N 0.6679(2) 0.5315(2) 0.0900(2)
H6 H 0.608 0.473 0.094
H7 H 0.626 0.592 0.047
H8 H 0.731 0.475 0.066
H9 H 0.711 0.586 0.150
N2 N 1.0255(3) 0.4797(3) 0.2009(2)
H1 H 1.113 0.464 0.215
H2 H 0.976 0.396 0.226
H4 H 1.005 0.558 0.227
H10 H 0.998 0.489 0.123
loop_
_geom_bond_atom_site_label_1
_geom_bond_atom_site_label_2
_geom_bond_site_symmetry_1
_geom_bond_site_symmetry_2
Sn1 F1 1_555 1_555
Sn2 F2 1_555 1_555
O1 Sn2 1_555 1_555
O2 C1 1_555 1_555
O3 Sn1 1_555 1_555
O4 Sn1 1_555 1_555
O5 Sn1 1_555 1_555
O6 Sn2 1_555 1_555
O7 Sn1 1_555 1_555
O8 C3 1_555 1_555
C1 O7 1_555 1_555
C2 O1 1_555 1_555
C3 O3 1_555 1_555
C4 O4 1_555 1_555
O9 H3 1_555 1_555
N1 H6 1_555 1_555
N2 H1 1_555 1_555
H2 N2 1_555 1_555
H4 N2 1_555 1_555
H5 O9 1_555 1_555
H7 N1 1_555 1_555
H8 N1 1_555 1_555
H9 N1 1_555 1_555
H10 N2 1_555 1_555
O2C Sn2 1_555 1_555
O8C Sn2 1_555 1_555
Sn2C O2 1_555 1_555
O5 C2 1_555 1_555
O6 C4 1_555 1_555
O8 Sn2C 1_555 1_555
C1 C3 1_555 1_555
C2 C4 1_555 1_555

#END
