
#######################################################################
#
#                 Cambridge Crystallographic Data Centre
#                                CCDC 
#
#######################################################################
#
# If this CIF has been generated from an entry in the Cambridge 
# Structural Database, then it will include bibliographic, chemical, 
# crystal, experimental, refinement or atomic coordinate data resulting 
# from the CCDC's data processing and validation procedures.
#
#######################################################################

data_XULGAN
_symmetry_cell_setting           monoclinic
_symmetry_space_group_name_H-M   'I 2'
_symmetry_Int_Tables_number      5
_space_group_name_Hall           'I 2y'
loop_
_symmetry_equiv_pos_site_id
_symmetry_equiv_pos_as_xyz
1 x,y,z
2 -x,y,-z
3 1/2+x,1/2+y,1/2+z
4 1/2-x,1/2+y,1/2-z
_cell_length_a                   12.5604(9)
_cell_length_b                   6.9287(5)
_cell_length_c                   35.989(3)
_cell_angle_alpha                90
_cell_angle_beta                 92.265(9)
_cell_angle_gamma                90
_cell_volume                     3129.58
loop_
_atom_site_label
_atom_site_type_symbol
_atom_site_fract_x
_atom_site_fract_y
_atom_site_fract_z
Cu1 Cu -0.13670(8) 0.23033(17) 0.20450(3)
N1 N -0.0242(6) 0.3424(11) 0.1722(2)
C1 C 0.0715(7) 0.3953(14) 0.1833(3)
H1 H 0.0937 0.3712 0.2078
C2 C 0.1447(7) 0.4893(17) 0.1592(3)
H2 H 0.2110 0.5341 0.1678
C3 C 0.1091(7) 0.5084(16) 0.1221(3)
H3 H 0.1544 0.5607 0.1049
C4 C 0.0076(7) 0.4509(14) 0.1105(3)
H4 H -0.0175 0.4704 0.0861
C5 C -0.0560(7) 0.3627(13) 0.1366(3)
C6 C -0.1690(6) 0.3120(13) 0.1281(2)
C7 C -0.2215(7) 0.3262(17) 0.0921(3)
H5 H -0.1863 0.3768 0.0721
C8 C -0.3274(7) 0.2620(14) 0.0878(2)
H6 H -0.3636 0.2670 0.0648
C9 C -0.3749(7) 0.1929(15) 0.1180(2)
H7 H -0.4455 0.1536 0.1153
C10 C -0.3258(8) 0.1772(12) 0.1521(3)
H8 H -0.3613 0.1273 0.1722
N2 N -0.2214(5) 0.2379(15) 0.15603(17)
O1 O -0.2550(4) 0.1504(9) 0.23222(16)
O2 O -0.3059(4) 0.0828(9) 0.29050(15)
C21 C -0.2402(6) 0.1117(13) 0.2671(2)
C22 C -0.1210(7) 0.1018(15) 0.2791(2)
H17 H -0.0960 -0.0303 0.2751
N5 N -0.0598(5) 0.2367(14) 0.25394(17)
H18 H 0.0077 0.1958 0.2520
H19 H -0.0588 0.3574 0.2632
C23 C -0.0976(6) 0.1546(14) 0.3202(2)
H20 H -0.1055 0.2930 0.3232
H21 H -0.1499 0.0922 0.3353
C24 C 0.0135(6) 0.0956(15) 0.3344(2)
H22 H 0.0661 0.1613 0.3199
H23 H 0.0224 -0.0421 0.3308
C25 C 0.0334(9) 0.1438(17) 0.3754(3)
O3 O -0.0372(5) 0.2101(13) 0.39465(16)
O4 O 0.1289(6) 0.0831(13) 0.3893(2)
H24 H 0.1383 0.1236 0.4106
O5 O -0.0613(8) -0.0950(13) 0.1920(2)
H25 H -0.012(7) -0.064(13) 0.208(3)
H26 H -0.067(9) -0.215(3) 0.188(3)
Cu1C Cu -0.36330(8) -0.26967(17) 0.29550(3)
O2C O -0.1941(4) 0.5828(9) 0.20950(15)
Cu2 Cu 0.0000 0.0076(3) 0.0000
N3 N 0.0949(6) 0.0444(11) 0.0451(2)
C11 C 0.1903(7) 0.1154(17) 0.0455(3)
H9 H 0.2165 0.1634 0.0236
C12 C 0.2545(7) 0.1221(15) 0.0777(3)
H10 H 0.3250 0.1627 0.0773
C13 C 0.2084(10) 0.0647(17) 0.1112(3)
H11 H 0.2459 0.0806 0.1338
C14 C 0.1121(8) -0.0115(17) 0.1103(3)
H12 H 0.0849 -0.0691 0.1313
C15 C 0.0529(7) -0.0030(15) 0.0773(2)
C16 C -0.0628(7) -0.0770(13) 0.0727(2)
C17 C -0.1245(7) -0.1364(13) 0.1021(2)
H13 H -0.0959 -0.1355 0.1264
C18 C -0.2300(8) -0.1977(15) 0.0948(3)
H14 H -0.2735 -0.2312 0.1141
C19 C -0.2667(7) -0.2066(13) 0.0590(3)
H15 H -0.3340 -0.2559 0.0530
C20 C -0.2028(8) -0.1417(13) 0.0321(3)
H16 H -0.2302 -0.1461 0.0077
N4 N -0.1031(7) -0.0715(12) 0.03758(19)
N3A N -0.0949(6) 0.0444(11) -0.0451(2)
C11A C -0.1903(7) 0.1154(17) -0.0455(3)
H9A H -0.2165 0.1634 -0.0236
C12A C -0.2545(7) 0.1221(15) -0.0777(3)
H10A H -0.3250 0.1627 -0.0773
C13A C -0.2084(10) 0.0647(17) -0.1112(3)
H11A H -0.2459 0.0806 -0.1338
C14A C -0.1121(8) -0.0115(17) -0.1103(3)
H12A H -0.0849 -0.0691 -0.1313
C15A C -0.0529(7) -0.0030(15) -0.0773(2)
C16A C 0.0628(7) -0.0770(13) -0.0727(2)
C17A C 0.1245(7) -0.1364(13) -0.1021(2)
H13A H 0.0959 -0.1355 -0.1264
C18A C 0.2300(8) -0.1977(15) -0.0948(3)
H14A H 0.2735 -0.2312 -0.1141
C19A C 0.2667(7) -0.2066(13) -0.0590(3)
H15A H 0.3340 -0.2559 -0.0530
C20A C 0.2028(8) -0.1417(13) -0.0321(3)
H16A H 0.2302 -0.1461 -0.0077
N4A N 0.1031(7) -0.0715(12) -0.03758(19)
B1 B 0.0000 0.480(2) 0.0000
F1 F -0.0706(4) 0.3690(8) 0.01827(14)
F2 F 0.0553(5) 0.6073(10) 0.02472(15)
F1A F 0.0706(4) 0.3690(8) -0.01827(14)
F2A F -0.0553(5) 0.6073(10) -0.02472(15)
B2 B 0.3938(11) 0.089(2) 0.2040(4)
F3 F 0.3464(4) -0.0813(10) 0.21662(18)
F4 F 0.3115(4) 0.2282(11) 0.20381(15)
F5 F 0.4791(5) 0.1345(9) 0.22701(18)
F6 F 0.4245(5) 0.0553(10) 0.16791(16)
O6 O 0.1261(6) -0.0083(16) 0.2358(2)
B3 B 0.5000 0.154(8) 0.0000
F7 F 0.5044(11) 0.040(2) 0.0306(4)
F8 F 0.5908(7) 0.2616(17) 0.0003(3)
F7A F 0.4956(11) 0.040(2) -0.0306(4)
F8A F 0.4092(7) 0.2616(17) -0.0003(3)
O7 O 0.3660(9) 0.6774(19) 0.0409(3)
loop_
_geom_bond_atom_site_label_1
_geom_bond_atom_site_label_2
_geom_bond_site_symmetry_1
_geom_bond_site_symmetry_2
Cu1 N1 1_555 1_555
Cu2 N3 1_555 1_555
N1 C1 1_555 1_555
C1 H1 1_555 1_555
C2 C1 1_555 1_555
H2 C2 1_555 1_555
C3 C2 1_555 1_555
H3 C3 1_555 1_555
C4 C3 1_555 1_555
H4 C4 1_555 1_555
C5 N1 1_555 1_555
C6 C5 1_555 1_555
C7 C6 1_555 1_555
H5 C7 1_555 1_555
C8 C7 1_555 1_555
H6 C8 1_555 1_555
C9 C8 1_555 1_555
H7 C9 1_555 1_555
C10 C9 1_555 1_555
H8 C10 1_555 1_555
N2 Cu1 1_555 1_555
N3 C11 1_555 1_555
C11 H9 1_555 1_555
C12 C11 1_555 1_555
H10 C12 1_555 1_555
C13 C12 1_555 1_555
H11 C13 1_555 1_555
C14 C13 1_555 1_555
H12 C14 1_555 1_555
C15 N3 1_555 1_555
C16 C15 1_555 1_555
C17 C16 1_555 1_555
H13 C17 1_555 1_555
C18 C17 1_555 1_555
H14 C18 1_555 1_555
C19 C18 1_555 1_555
H15 C19 1_555 1_555
C20 C19 1_555 1_555
H16 C20 1_555 1_555
N4 Cu2 1_555 1_555
O1 Cu1 1_555 1_555
O2 C21 1_555 1_555
C21 O1 1_555 1_555
C22 C21 1_555 1_555
H17 C22 1_555 1_555
N5 Cu1 1_555 1_555
H18 N5 1_555 1_555
H19 N5 1_555 1_555
C23 C22 1_555 1_555
H20 C23 1_555 1_555
H21 C23 1_555 1_555
C24 C23 1_555 1_555
H22 C24 1_555 1_555
H23 C24 1_555 1_555
C25 C24 1_555 1_555
O3 C25 1_555 1_555
O4 C25 1_555 1_555
H24 O4 1_555 1_555
B1 F1 1_555 1_555
F2 B1 1_555 1_555
B2 F3 1_555 1_555
F4 B2 1_555 1_555
F5 B2 1_555 1_555
F6 B2 1_555 1_555
O5 Cu1 1_555 1_555
H25 O5 1_555 1_555
H26 O5 1_555 1_555
B3 F7 1_555 1_555
F8 B3 1_555 1_555
Cu1C O2 1_555 1_555
N3A Cu2 1_555 1_555
C11A N3A 1_555 1_555
H9A C11A 1_555 1_555
C12A C11A 1_555 1_555
H10A C12A 1_555 1_555
C13A C12A 1_555 1_555
H11A C13A 1_555 1_555
C14A C13A 1_555 1_555
H12A C14A 1_555 1_555
C15A N3A 1_555 1_555
C16A C15A 1_555 1_555
C17A C16A 1_555 1_555
H13A C17A 1_555 1_555
C18A C17A 1_555 1_555
H14A C18A 1_555 1_555
C19A C18A 1_555 1_555
H15A C19A 1_555 1_555
C20A C19A 1_555 1_555
H16A C20A 1_555 1_555
N4A Cu2 1_555 1_555
O2C Cu1 1_555 1_555
F1A B1 1_555 1_555
F2A B1 1_555 1_555
F7A B3 1_555 1_555
F8A B3 1_555 1_555
C4 C5 1_555 1_555
C6 N2 1_555 1_555
C10 N2 1_555 1_555
C14 C15 1_555 1_555
C16 N4 1_555 1_555
C20 N4 1_555 1_555
C22 N5 1_555 1_555
C14A C15A 1_555 1_555
C16A N4A 1_555 1_555
C20A N4A 1_555 1_555

#END
