
#######################################################################
#
#                 Cambridge Crystallographic Data Centre
#                                CCDC 
#
#######################################################################
#
# If this CIF has been generated from an entry in the Cambridge 
# Structural Database, then it will include bibliographic, chemical, 
# crystal, experimental, refinement or atomic coordinate data resulting 
# from the CCDC's data processing and validation procedures.
#
#######################################################################

data_XULGUI
_symmetry_cell_setting           triclinic
_symmetry_space_group_name_H-M   'P -1'
_symmetry_Int_Tables_number      2
_space_group_name_Hall           '-P 1'
loop_
_symmetry_equiv_pos_site_id
_symmetry_equiv_pos_as_xyz
1 x,y,z
2 -x,-y,-z
_cell_length_a                   10.8237(11)
_cell_length_b                   12.1862(13)
_cell_length_c                   12.2493(12)
_cell_angle_alpha                94.301(3)
_cell_angle_beta                 106.530(4)
_cell_angle_gamma                101.281(3)
_cell_volume                     1504.24
loop_
_atom_site_label
_atom_site_type_symbol
_atom_site_fract_x
_atom_site_fract_y
_atom_site_fract_z
Dy1 Dy 0.08325(3) 0.30978(2) 0.49819(2)
C1 C 0.3515(8) 0.5339(6) 0.5651(6)
H1 H 0.2873 0.5682 0.5230
C2 C 0.4807(8) 0.5967(6) 0.6082(7)
H2 H 0.5010 0.6713 0.5952
C3 C 0.5778(8) 0.5499(7) 0.6691(7)
H3 H 0.6649 0.5912 0.6971
C4 C 0.5436(7) 0.4375(6) 0.6891(6)
C5 C 0.4106(6) 0.3789(5) 0.6437(5)
C6 C 0.3722(7) 0.2638(6) 0.6635(5)
C7 C 0.2086(8) 0.1065(5) 0.6436(6)
H4 H 0.1200 0.0692 0.6151
C8 C 0.2978(8) 0.0505(7) 0.7064(7)
H5 H 0.2687 -0.0225 0.7206
C9 C 0.4266(8) 0.1017(7) 0.7468(7)
H6 H 0.4874 0.0636 0.7876
C10 C 0.4698(7) 0.2134(7) 0.7274(6)
C11 C 0.6030(8) 0.2732(9) 0.7679(8)
H7 H 0.6675 0.2375 0.8067
C12 C 0.6381(8) 0.3810(8) 0.7514(8)
H8 H 0.7263 0.4195 0.7813
C13 C 0.0877(8) 0.1811(6) 0.3058(6)
C14 C 0.0757(7) 0.1232(5) 0.1910(5)
C15 C 0.1790(7) 0.1453(6) 0.1445(6)
H9 H 0.2563 0.1982 0.1845
C16 C -0.0364(8) 0.0478(6) 0.1326(6)
H10 H -0.1052 0.0332 0.1646
C17 C -0.0521(7) -0.0108(6) 0.0217(6)
C18 C -0.1677(8) -0.0898(7) -0.0402(6)
H11 H -0.2379 -0.1048 -0.0098
C19 C 0.0097(6) 0.4947(5) 0.6760(5)
C20 C 0.0062(6) 0.4786(5) 0.7977(5)
C21 C 0.0162(7) 0.3741(6) 0.8356(5)
H12 H 0.0236 0.3150 0.7870
C22 C -0.0062(7) 0.5644(6) 0.8650(5)
H13 H -0.0156 0.6319 0.8365
C23 C -0.0051(7) 0.5531(5) 0.9816(5)
C24 C -0.0150(8) 0.6399(6) 1.0540(6)
H14 H -0.0209 0.7092 1.0283
C25 C -0.1498(6) 0.1944(5) 0.5297(5)
C26 C -0.2702(6) 0.1174(6) 0.5352(5)
C27 C -0.3915(7) 0.1169(6) 0.4628(6)
H15 H -0.3983 0.1699 0.4118
C28 C -0.5060(6) 0.0406(5) 0.4616(6)
C29 C -0.2606(7) 0.0398(7) 0.6129(7)
H16 H -0.1782 0.0396 0.6632
C30 C -0.3681(8) -0.0351(7) 0.6171(8)
H17 H -0.3593 -0.0838 0.6723
N1 N 0.2436(5) 0.2115(4) 0.6221(4)
N2 N 0.3150(5) 0.4277(4) 0.5809(4)
O1 O 0.0689(5) 0.4347(4) 0.6348(3)
O2 O -0.0388(4) 0.1824(4) 0.5868(4)
O3 O -0.1574(4) 0.2686(4) 0.4614(4)
O4 O -0.0079(6) 0.1615(5) 0.3464(4)
O5 O 0.1921(5) 0.2517(4) 0.3629(4)
O6 O -0.0456(5) 0.5661(4) 0.6279(3)
C13A C -0.0877(8) -0.1811(6) -0.3058(6)
C14A C -0.0757(7) -0.1232(5) -0.1910(5)
C15A C -0.1790(7) -0.1453(6) -0.1445(6)
H9A H -0.2563 -0.1982 -0.1845
C16A C 0.0364(8) -0.0478(6) -0.1326(6)
H10A H 0.1052 -0.0332 -0.1646
C17A C 0.0521(7) 0.0108(6) -0.0217(6)
C18A C 0.1677(8) 0.0898(7) 0.0402(6)
H11A H 0.2379 0.1048 0.0098
O4A O 0.0079(6) -0.1615(5) -0.3464(4)
O5A O -0.1921(5) -0.2517(4) -0.3629(4)
C19A C -0.0097(6) 0.5053(5) 1.3240(5)
C20A C -0.0062(6) 0.5214(5) 1.2023(5)
C21A C -0.0162(7) 0.6259(6) 1.1644(5)
H12A H -0.0236 0.6850 1.2130
C22A C 0.0062(7) 0.4356(6) 1.1350(5)
H13A H 0.0156 0.3681 1.1635
C23A C 0.0051(7) 0.4469(5) 1.0184(5)
C24A C 0.0150(8) 0.3601(6) 0.9460(6)
H14A H 0.0209 0.2908 0.9717
O1A O -0.0689(5) 0.5653(4) 1.3652(3)
O6A O 0.0456(5) 0.4339(4) 1.3721(3)
C25A C -0.8502(6) -0.1944(5) 0.4703(5)
C26A C -0.7298(6) -0.1174(6) 0.4648(5)
C27A C -0.6085(7) -0.1169(6) 0.5372(6)
H15A H -0.6017 -0.1699 0.5882
C28A C -0.4940(6) -0.0406(5) 0.5384(6)
C29A C -0.7394(7) -0.0398(7) 0.3871(7)
H16A H -0.8218 -0.0396 0.3368
C30A C -0.6319(8) 0.0351(7) 0.3829(8)
H17A H -0.6407 0.0838 0.3277
O2A O -0.9612(4) -0.1824(4) 0.4132(4)
O3A O -0.8426(4) -0.2686(4) 0.5386(4)
Dy1A Dy -1.08325(3) -0.30978(2) 0.50181(2)
C1A C -1.3515(8) -0.5339(6) 0.4349(6)
H1A H -1.2873 -0.5682 0.4770
C2A C -1.4807(8) -0.5967(6) 0.3918(7)
H2A H -1.5010 -0.6713 0.4048
C3A C -1.5778(8) -0.5499(7) 0.3309(7)
H3A H -1.6649 -0.5912 0.3029
C4A C -1.5436(7) -0.4375(6) 0.3109(6)
C5A C -1.4106(6) -0.3789(5) 0.3563(5)
C6A C -1.3722(7) -0.2638(6) 0.3365(5)
C7A C -1.2086(8) -0.1065(5) 0.3564(6)
H4A H -1.1200 -0.0692 0.3849
C8A C -1.2978(8) -0.0505(7) 0.2936(7)
H5A H -1.2687 0.0225 0.2794
C9A C -1.4266(8) -0.1017(7) 0.2532(7)
H6A H -1.4874 -0.0636 0.2124
C10A C -1.4698(7) -0.2134(7) 0.2726(6)
C11A C -1.6030(8) -0.2732(9) 0.2321(8)
H7A H -1.6675 -0.2375 0.1933
C12A C -1.6381(8) -0.3810(8) 0.2486(8)
H8A H -1.7263 -0.4195 0.2187
N1A N -1.2436(5) -0.2115(4) 0.3779(4)
N2A N -1.3150(5) -0.4277(4) 0.4191(4)
Dy1_2 Dy 0.08325(3) 0.30978(2) 1.49819(2)
Dy1A_2 Dy -0.08325(3) -0.30978(2) -0.49819(2)
Dy1A_3 Dy -0.08325(3) 0.69022(2) 0.50181(2)
Dy1A_4 Dy -0.08325(3) 0.69022(2) 1.50181(2)
O1A_2 O -1.0689(5) -0.4347(4) 0.3652(3)
O4A_2 O -0.9921(6) -0.1615(5) 0.6536(4)
O5A_2 O -1.1921(5) -0.2517(4) 0.6371(4)
O6_2 O -1.0456(5) -0.4339(4) 0.6279(3)
O6A_2 O 0.0456(5) 0.4339(4) 0.3721(3)
C31 C 0.6333(9) 0.2661(7) 0.1760(7)
C32 C 0.5723(7) 0.3404(6) 0.1011(6)
C33 C 0.4520(8) 0.2925(6) 0.0138(7)
H18 H 0.4160 0.2154 0.0056
C34 C 0.6254(7) 0.4535(6) 0.1146(5)
H19 H 0.7053 0.4846 0.1713
C35 C 0.5601(6) 0.5239(6) 0.0434(6)
C36 C 0.6125(8) 0.6429(6) 0.0588(6)
H20 H 0.6897 0.6762 0.1178
O7 O 0.5828(8) 0.1702(5) 0.1790(7)
O8 O 0.7481(6) 0.3168(5) 0.2493(5)
H21 H 0.7791 0.2696 0.2906
C31A C 0.3667(9) 0.7339(7) -0.1760(7)
C32A C 0.4277(7) 0.6596(6) -0.1011(6)
C33A C 0.5480(8) 0.7075(6) -0.0138(7)
H18A H 0.5840 0.7846 -0.0056
C34A C 0.3746(7) 0.5465(6) -0.1146(5)
H19A H 0.2947 0.5154 -0.1713
C35A C 0.4399(6) 0.4761(6) -0.0434(6)
C36A C 0.3875(8) 0.3571(6) -0.0588(6)
H20A H 0.3103 0.3238 -0.1178
O7A O 0.4172(8) 0.8298(5) -0.1790(7)
O8A O 0.2519(6) 0.6832(5) -0.2493(5)
H21A H 0.2209 0.7304 -0.2906
loop_
_geom_bond_atom_site_label_1
_geom_bond_atom_site_label_2
_geom_bond_site_symmetry_1
_geom_bond_site_symmetry_2
Dy1 N1 1_555 1_555
C1 H1 1_555 1_555
C2 C1 1_555 1_555
H2 C2 1_555 1_555
C3 C2 1_555 1_555
H3 C3 1_555 1_555
C4 C3 1_555 1_555
C5 C4 1_555 1_555
C6 C5 1_555 1_555
C7 H4 1_555 1_555
C8 C7 1_555 1_555
H5 C8 1_555 1_555
C9 C8 1_555 1_555
H6 C9 1_555 1_555
C10 C6 1_555 1_555
C11 C10 1_555 1_555
H7 C11 1_555 1_555
C12 C4 1_555 1_555
H8 C12 1_555 1_555
C13 C14 1_555 1_555
C14 C15 1_555 1_555
C15 H9 1_555 1_555
C16 C14 1_555 1_555
H10 C16 1_555 1_555
C17 C16 1_555 1_555
C18 C17 1_555 1_555
H11 C18 1_555 1_555
C19 C20 1_555 1_555
C20 C21 1_555 1_555
C21 H12 1_555 1_555
C22 C20 1_555 1_555
H13 C22 1_555 1_555
C23 C22 1_555 1_555
C24 C23 1_555 1_555
H14 C24 1_555 1_555
C25 C26 1_555 1_555
C26 C27 1_555 1_555
C27 H15 1_555 1_555
C28 C27 1_555 1_555
C29 C26 1_555 1_555
H16 C29 1_555 1_555
C30 C29 1_555 1_555
H17 C30 1_555 1_555
N1 C6 1_555 1_555
N2 Dy1 1_555 1_555
O1 Dy1 1_555 1_555
O2 Dy1 1_555 1_555
O3 Dy1 1_555 1_555
O4 Dy1 1_555 1_555
O5 Dy1 1_555 1_555
O6 C19 1_555 1_555
C31 C32 1_555 1_555
C32 C33 1_555 1_555
C33 H18 1_555 1_555
C34 C32 1_555 1_555
H19 C34 1_555 1_555
C35 C34 1_555 1_555
C36 C35 1_555 1_555
H20 C36 1_555 1_555
O7 C31 1_555 1_555
O8 C31 1_555 1_555
H21 O8 1_555 1_555
C13A C14A 1_555 1_555
C14A C15A 1_555 1_555
C15A C18 1_555 1_555
H9A C15A 1_555 1_555
C16A C14A 1_555 1_555
H10A C16A 1_555 1_555
C17A C17 1_555 1_555
C18A C15 1_555 1_555
H11A C18A 1_555 1_555
O4A C13A 1_555 1_555
O5A C13A 1_555 1_555
C19A C20A 1_555 1_555
C20A C21A 1_555 1_555
C21A C24 1_555 1_555
H12A C21A 1_555 1_555
C22A C20A 1_555 1_555
H13A C22A 1_555 1_555
C23A C23 1_555 1_555
C24A C21 1_555 1_555
H14A C24A 1_555 1_555
O1A C19A 1_555 1_555
O6A C19A 1_555 1_555
C25A C26A 1_555 1_555
C26A C27A 1_555 1_555
C27A H15A 1_555 1_555
C28A C28 1_555 1_555
C29A C26A 1_555 1_555
H16A C29A 1_555 1_555
C30A C28 1_555 1_555
H17A C30A 1_555 1_555
O2A C25A 1_555 1_555
O3A C25A 1_555 1_555
Dy1A O2A 1_555 1_555
C1A H1A 1_555 1_555
C2A C1A 1_555 1_555
H2A C2A 1_555 1_555
C3A C2A 1_555 1_555
H3A C3A 1_555 1_555
C4A C3A 1_555 1_555
C5A C4A 1_555 1_555
C6A C5A 1_555 1_555
C7A H4A 1_555 1_555
C8A C7A 1_555 1_555
H5A C8A 1_555 1_555
C9A C8A 1_555 1_555
H6A C9A 1_555 1_555
C10A C6A 1_555 1_555
C11A C10A 1_555 1_555
H7A C11A 1_555 1_555
C12A C4A 1_555 1_555
H8A C12A 1_555 1_555
N1A Dy1A 1_555 1_555
N2A Dy1A 1_555 1_555
Dy1_2 O6A 1_555 1_555
Dy1A_2 O4A 1_555 1_555
Dy1A_3 O6 1_555 1_555
Dy1A_4 O1A 1_555 1_555
O1A_2 Dy1A 1_555 1_555
O4A_2 Dy1A 1_555 1_555
O5A_2 Dy1A 1_555 1_555
O6_2 Dy1A 1_555 1_555
O6A_2 Dy1 1_555 1_555
C31A C32A 1_555 1_555
C32A C33A 1_555 1_555
C33A C36 1_555 1_555
H18A C33A 1_555 1_555
C34A C32A 1_555 1_555
H19A C34A 1_555 1_555
C35A C35 1_555 1_555
C36A C33 1_555 1_555
H20A C36A 1_555 1_555
O7A C31A 1_555 1_555
O8A C31A 1_555 1_555
H21A O8A 1_555 1_555
C1 N2 1_555 1_555
C5 N2 1_555 1_555
C7 N1 1_555 1_555
C9 C10 1_555 1_555
C11 C12 1_555 1_555
C13 O4 1_555 1_555
C13 O5 1_555 1_555
C19 O1 1_555 1_555
C25 O2 1_555 1_555
C25 O3 1_555 1_555
C30 C28A 1_555 1_555
C16A C17A 1_555 1_555
C17A C18A 1_555 1_555
O5A Dy1A_2 1_555 1_555
C22A C23A 1_555 1_555
C23A C24A 1_555 1_555
C27A C28A 1_555 1_555
C29A C30A 1_555 1_555
O3A Dy1A 1_555 1_555
C1A N2A 1_555 1_555
C5A N2A 1_555 1_555
C6A N1A 1_555 1_555
C7A N1A 1_555 1_555
C9A C10A 1_555 1_555
C11A C12A 1_555 1_555
C34A C35A 1_555 1_555
C35A C36A 1_555 1_555

#END
