
#######################################################################
#
#                 Cambridge Crystallographic Data Centre
#                                CCDC 
#
#######################################################################
#
# If this CIF has been generated from an entry in the Cambridge 
# Structural Database, then it will include bibliographic, chemical, 
# crystal, experimental, refinement or atomic coordinate data resulting 
# from the CCDC's data processing and validation procedures.
#
#######################################################################

data_XULHOC
_symmetry_cell_setting           monoclinic
_symmetry_space_group_name_H-M   'I a'
_symmetry_Int_Tables_number      9
_space_group_name_Hall           'I -2ya'
loop_
_symmetry_equiv_pos_site_id
_symmetry_equiv_pos_as_xyz
1 x,y,z
2 1/2+x,-y,z
3 1/2+x,1/2+y,1/2+z
4 x,1/2-y,1/2+z
_cell_length_a                   8.570(3)
_cell_length_b                   11.545(4)
_cell_length_c                   10.911(4)
_cell_angle_alpha                90
_cell_angle_beta                 110.34(3)
_cell_angle_gamma                90
_cell_volume                     1012.23
loop_
_atom_site_label
_atom_site_type_symbol
_atom_site_fract_x
_atom_site_fract_y
_atom_site_fract_z
Mn1 Mn 0.92808(4) 0.17614(3) 0.05779(4)
N1 N 0.8359(3) 0.0031(2) 0.0634(3)
N2 N 0.7180(3) -0.0536(2) 0.0119(2)
N3 N 0.6044(3) -0.1140(2) -0.0394(2)
N4 N 0.7646(3) 0.2333(2) -0.1311(3)
N5 N 0.7739(3) 0.2380(2) -0.2347(2)
N6 N 0.7742(3) 0.2417(2) -0.3420(3)
O1 O 1.0891(2) 0.3402(2) 0.1126(2)
N7 N 1.1413(2) 0.1425(2) 0.2445(2)
C1 C 1.1701(3) 0.0419(2) 0.3074(3)
H1 H 1.0924 -0.0173 0.2771
C2 C 1.3100(3) 0.0211(2) 0.4156(3)
H2 H 1.3256 -0.0503 0.4576
C3 C 1.4263(3) 0.1083(2) 0.4603(3)
H3 H 1.5219 0.0965 0.5328
C4 C 1.3982(3) 0.2138(2) 0.3952(3)
H4 H 1.4742 0.2741 0.4235
C5 C 1.2556(3) 0.2273(2) 0.2881(3)
C6 C 1.2150(3) 0.3354(2) 0.2083(3)
C7 C 1.3337(4) 0.4347(2) 0.2461(3)
H5 H 1.4411 0.4100 0.2472
H6 H 1.3424 0.4617 0.3315
H7 H 1.2939 0.4964 0.1840
Mn1A Mn 0.42808(4) -0.17614(3) 0.05779(4)
Mn1C Mn 0.92808(4) 0.32386(3) -0.44221(4)
N3A N 1.1044(3) 0.1140(2) -0.0394(2)
N6C N 0.7742(3) 0.2583(2) 0.1580(3)
loop_
_geom_bond_atom_site_label_1
_geom_bond_atom_site_label_2
_geom_bond_site_symmetry_1
_geom_bond_site_symmetry_2
Mn1 N1 1_555 1_555
N1 N2 1_555 1_555
N2 N3 1_555 1_555
N3 Mn1A 1_555 1_555
N4 Mn1 1_555 1_555
N5 N4 1_555 1_555
N6 N5 1_555 1_555
O1 Mn1 1_555 1_555
N7 Mn1 1_555 1_555
C1 N7 1_555 1_555
H1 C1 1_555 1_555
C2 C1 1_555 1_555
H2 C2 1_555 1_555
C3 C2 1_555 1_555
H3 C3 1_555 1_555
C4 C3 1_555 1_555
H4 C4 1_555 1_555
C5 N7 1_555 1_555
C6 O1 1_555 1_555
C7 C6 1_555 1_555
H5 C7 1_555 1_555
H6 C7 1_555 1_555
H7 C7 1_555 1_555
Mn1C N6 1_555 1_555
N3A Mn1 1_555 1_555
N6C Mn1 1_555 1_555
C4 C5 1_555 1_555
C5 C6 1_555 1_555

#END
