
#######################################################################
#
#                 Cambridge Crystallographic Data Centre
#                                CCDC 
#
#######################################################################
#
# If this CIF has been generated from an entry in the Cambridge 
# Structural Database, then it will include bibliographic, chemical, 
# crystal, experimental, refinement or atomic coordinate data resulting 
# from the CCDC's data processing and validation procedures.
#
#######################################################################

data_XULJOF
_symmetry_cell_setting           monoclinic
_symmetry_space_group_name_H-M   'P 21/c'
_symmetry_Int_Tables_number      14
_space_group_name_Hall           '-P 2ybc'
loop_
_symmetry_equiv_pos_site_id
_symmetry_equiv_pos_as_xyz
1 x,y,z
2 -x,1/2+y,1/2-z
3 -x,-y,-z
4 x,1/2-y,1/2+z
_cell_length_a                   10.3283(11)
_cell_length_b                   7.9868(8)
_cell_length_c                   13.0760(14)
_cell_angle_alpha                90
_cell_angle_beta                 96.419(2)
_cell_angle_gamma                90
_cell_volume                     1071.88
loop_
_atom_site_label
_atom_site_type_symbol
_atom_site_fract_x
_atom_site_fract_y
_atom_site_fract_z
Ba1 Ba -0.00361(2) 0.20711(3) 0.69482(2)
O1 O 0.2105(3) -0.4097(4) 0.6917(3)
O2 O 0.1678(3) -0.0830(4) 0.6825(3)
O3 O 0.6026(3) -0.0297(4) 0.6022(3)
O4 O 0.6113(4) -0.3626(5) 0.5935(4)
O5 O 0.2660(4) 0.2124(5) 0.6490(5)
O6 O 0.4673(4) 0.2379(4) 0.6424(4)
O7 O -0.0517(3) 0.5240(4) 0.6225(2)
O8 O -0.0324(4) 0.7141(4) 0.5006(3)
O9 O -0.1222(3) -0.0942(4) 0.6412(2)
H1 H -0.2018 -0.1018 0.6364
H2 H -0.1064 -0.1457 0.5898
O10 O -0.2582(4) 0.2730(5) 0.5886(4)
H3 H -0.3231 0.2206 0.6007
H4 H -0.2776 0.3726 0.5862
N1 N 0.4071(3) -0.3879(4) 0.6348(3)
H5 H 0.4119 -0.4950 0.6295
N2 N 0.3712(4) 0.1478(5) 0.6435(3)
C1 C 0.2940(4) -0.3217(5) 0.6640(3)
C2 C 0.2754(4) -0.1295(5) 0.6620(3)
C3 C 0.3832(4) -0.0309(5) 0.6406(3)
C4 C 0.5038(4) -0.1026(5) 0.6192(3)
C5 C 0.5130(4) -0.2959(6) 0.6135(4)
C6 C -0.0251(4) 0.5680(5) 0.5350(3)
O7B O 0.0517(3) 0.4760(4) 0.3775(2)
O8B O 0.0324(4) 0.2859(4) 0.4994(3)
C6B C 0.0251(4) 0.4320(5) 0.4650(3)
Ba1B Ba 0.00361(2) 0.79289(3) 0.30518(2)
O1B O -0.2105(3) 1.4097(4) 0.3083(3)
O2B O -0.1678(3) 1.0830(4) 0.3175(3)
O3B O -0.6026(3) 1.0297(4) 0.3978(3)
O4B O -0.6113(4) 1.3626(5) 0.4065(4)
O5B O -0.2660(4) 0.7876(5) 0.3510(5)
O6B O -0.4673(4) 0.7621(4) 0.3576(4)
O9B O 0.1222(3) 1.0942(4) 0.3588(2)
H1B H 0.2018 1.1018 0.3636
H2B H 0.1064 1.1457 0.4102
O10B O 0.2582(4) 0.7270(5) 0.4114(4)
H3B H 0.3231 0.7794 0.3993
H4B H 0.2776 0.6274 0.4138
N1B N -0.4071(3) 1.3879(4) 0.3652(3)
H5B H -0.4119 1.4950 0.3705
N2B N -0.3712(4) 0.8522(5) 0.3565(3)
C1B C -0.2940(4) 1.3217(5) 0.3360(3)
C2B C -0.2754(4) 1.1295(5) 0.3380(3)
C3B C -0.3832(4) 1.0309(5) 0.3594(3)
C4B C -0.5038(4) 1.1026(5) 0.3808(3)
C5B C -0.5130(4) 1.2959(6) 0.3865(4)
Ba1A Ba 0.00361(2) -0.29289(3) 0.80518(2)
Ba1A_2 Ba 0.00361(2) 0.70711(3) 0.80518(2)
Ba1C Ba -0.00361(2) 0.29289(3) 0.19482(2)
Ba1C_2 Ba -0.00361(2) 1.29289(3) 0.19482(2)
O1A O -0.2105(3) 0.0903(4) 0.8083(3)
O1C O 0.2105(3) 0.9097(4) 0.1917(3)
O2A O -0.1678(3) 0.4170(4) 0.8175(3)
O2C O 0.1678(3) 0.5830(4) 0.1825(3)
O7A O 0.0517(3) 0.0240(4) 0.8775(2)
O7C O -0.0517(3) 0.9760(4) 0.1225(2)
O9A O 0.1222(3) 0.4058(4) 0.8588(2)
O9C O -0.1222(3) 0.5942(4) 0.1412(2)
loop_
_geom_bond_atom_site_label_1
_geom_bond_atom_site_label_2
_geom_bond_site_symmetry_1
_geom_bond_site_symmetry_2
Ba1 O2 1_555 1_555
O1 C1 1_555 1_555
O2 C2 1_555 1_555
O3 C4 1_555 1_555
O4 C5 1_555 1_555
O5 Ba1 1_555 1_555
O6 N2 1_555 1_555
O7 Ba1 1_555 1_555
O8 C6 1_555 1_555
O9 Ba1 1_555 1_555
H1 O9 1_555 1_555
H2 O9 1_555 1_555
O10 Ba1 1_555 1_555
H3 O10 1_555 1_555
H4 O10 1_555 1_555
N1 H5 1_555 1_555
N2 O5 1_555 1_555
C1 N1 1_555 1_555
C2 C1 1_555 1_555
C3 N2 1_555 1_555
C4 C3 1_555 1_555
C5 N1 1_555 1_555
C6 O7 1_555 1_555
O7B C6B 1_555 1_555
O8B Ba1 1_555 1_555
C6B C6 1_555 1_555
Ba1B O8 1_555 1_555
O1B C1B 1_555 1_555
O2B Ba1B 1_555 1_555
O3B C4B 1_555 1_555
O4B C5B 1_555 1_555
O5B Ba1B 1_555 1_555
O6B N2B 1_555 1_555
O9B Ba1B 1_555 1_555
H1B O9B 1_555 1_555
H2B O9B 1_555 1_555
O10B Ba1B 1_555 1_555
H3B O10B 1_555 1_555
H4B O10B 1_555 1_555
N1B H5B 1_555 1_555
N2B O5B 1_555 1_555
C1B N1B 1_555 1_555
C2B O2B 1_555 1_555
C3B N2B 1_555 1_555
C4B C3B 1_555 1_555
C5B N1B 1_555 1_555
Ba1A O1 1_555 1_555
Ba1A_2 O7 1_555 1_555
Ba1C O7B 1_555 1_555
Ba1C_2 O1B 1_555 1_555
O1A Ba1 1_555 1_555
O1C Ba1B 1_555 1_555
O2A Ba1 1_555 1_555
O2C Ba1B 1_555 1_555
O7A Ba1 1_555 1_555
O7C Ba1B 1_555 1_555
O9A Ba1 1_555 1_555
O9C Ba1B 1_555 1_555
O2 Ba1A 1_555 1_555
O9 Ba1A 1_555 1_555
C2 C3 1_555 1_555
C4 C5 1_555 1_555
O7B Ba1B 1_555 1_555
O8B C6B 1_555 1_555
O2B Ba1C_2 1_555 1_555
O9B Ba1C_2 1_555 1_555
C1B C2B 1_555 1_555
C2B C3B 1_555 1_555
C4B C5B 1_555 1_555
Ba1A O7A 1_555 1_555
Ba1A_2 O2A 1_555 1_555
Ba1A_2 O9A 1_555 1_555
Ba1C O2C 1_555 1_555
Ba1C O9C 1_555 1_555
Ba1C_2 O7C 1_555 1_555

#END
