
#######################################################################
#
#                 Cambridge Crystallographic Data Centre
#                                CCDC 
#
#######################################################################
#
# If this CIF has been generated from an entry in the Cambridge 
# Structural Database, then it will include bibliographic, chemical, 
# crystal, experimental, refinement or atomic coordinate data resulting 
# from the CCDC's data processing and validation procedures.
#
#######################################################################

data_XULNOJ
_symmetry_cell_setting           triclinic
_symmetry_space_group_name_H-M   'P -1'
_symmetry_Int_Tables_number      2
_space_group_name_Hall           '-P 1'
loop_
_symmetry_equiv_pos_site_id
_symmetry_equiv_pos_as_xyz
1 x,y,z
2 -x,-y,-z
_cell_length_a                   9.6148(9)
_cell_length_b                   12.7838(10)
_cell_length_c                   14.0244(8)
_cell_angle_alpha                103.997(6)
_cell_angle_beta                 104.463(7)
_cell_angle_gamma                110.714(8)
_cell_volume                     1453.8
loop_
_atom_site_label
_atom_site_type_symbol
_atom_site_fract_x
_atom_site_fract_y
_atom_site_fract_z
Mn1 Mn 0.21964(6) 0.64590(4) 0.46156(4)
O1 O 0.1637(3) 0.6756(2) 0.60137(17)
O2 O 1.5462(3) 1.3468(2) 1.43369(17)
O3 O 0.0306(3) 0.6492(2) 0.99230(17)
O4 O -0.6795(3) 0.6519(2) 1.33469(17)
O5 O -0.0607(3) 0.5405(2) 0.59993(17)
C1 C -0.5086(4) 0.6043(3) 1.2530(2)
O6 O 1.5616(3) 1.1793(2) 1.43548(18)
C2 C -0.1371(4) 0.5705(3) 0.9382(3)
H1 H -0.1524 0.4956 0.8892
H2 H -0.1890 0.6075 0.8983
O7 O 0.5320(3) 0.8664(2) 0.99217(17)
O8 O -0.6234(3) 0.5031(2) 1.35421(16)
C3 C 0.0543(4) 0.6297(3) 0.8199(2)
H3 H -0.0531 0.5759 0.7832
O9 O 0.8753(3) 0.9527(2) 1.07439(18)
C4 C -0.2084(4) 0.5468(3) 1.0189(3)
H4 H -0.3087 0.4743 0.9855
H5 H -0.1361 0.5355 1.0731
O10 O -0.2353(3) 0.6466(2) 1.06548(18)
C5 C 1.3238(4) 1.1593(3) 1.3132(2)
C6 C 0.0814(4) 0.6229(3) 0.6462(2)
C7 C 1.0214(4) 1.0251(3) 1.1530(3)
C8 C 0.1539(4) 0.6661(3) 0.7660(2)
C9 C 0.1182(4) 0.6752(3) 0.9297(2)
C10 C 0.3770(4) 0.7872(3) 0.9292(2)
C11 C 0.2787(4) 0.7525(3) 0.9845(2)
H6 H 0.3206 0.7811 1.0580
C12 C 1.1038(4) 0.9676(3) 1.1971(3)
H7 H 1.0579 0.8842 1.1734
C13 C -0.6090(4) 0.5859(3) 1.3187(2)
C14 C 0.3154(4) 0.7449(3) 0.8188(2)
H8 H 0.3807 0.7688 0.7816
C15 C 1.2533(4) 1.0342(3) 1.2756(3)
H9 H 1.3081 0.9951 1.3041
C16 C 0.6372(4) 0.9185(3) 0.9423(3)
H10 H 0.5908 0.9549 0.8985
H11 H 0.6550 0.8573 0.8979
C17 C -0.4427(4) 0.5254(3) 1.2289(3)
H12 H -0.4608 0.4637 1.2552
C18 C 1.2404(4) 1.2158(3) 1.2685(3)
H13 H 1.2860 1.2992 1.2925
C19 C 1.4849(4) 1.2313(3) 1.3986(2)
C20 C 0.7917(4) 1.0117(3) 1.0282(3)
H14 H 0.8561 1.0628 0.9993
H15 H 0.7710 1.0616 1.0816
C21 C -0.4783(4) 0.6971(3) 1.2137(2)
H16 H -0.5213 0.7509 1.2291
O11 O 0.0649(3) 0.7096(3) 0.3813(2)
H17 H 0.1067 0.7450 0.3437
H18 H 0.0507 0.7595 0.4266
C22 C 1.0908(4) 1.1497(3) 1.1888(3)
H19 H 1.0368 1.1887 1.1592
C23 C -0.3860(4) 0.7106(3) 1.1523(3)
H20 H -0.3659 0.7734 1.1274
C24 C -0.3513(4) 0.5360(3) 1.1670(3)
H21 H -0.3088 0.4819 1.1513
C25 C -0.3233(4) 0.6295(3) 1.1282(2)
Mn2 Mn 1.5000 1.5000 1.5000
O12 O 1.7279(3) 1.6145(2) 1.49754(19)
H22 H 1.8026 1.6047 1.5358
H23 H 1.7453 1.6876 1.5215
Mn1A Mn -0.21964(6) 0.35410(4) 0.53844(4)
O1A O -0.1637(3) 0.3244(2) 0.39863(17)
O2A O -1.5462(3) -0.3468(2) -0.43369(17)
O3A O -0.0306(3) 0.3508(2) 0.00770(17)
O4A O 0.6795(3) 0.3481(2) -0.33469(17)
O5A O 0.0607(3) 0.4595(2) 0.40007(17)
C1A C 0.5086(4) 0.3957(3) -0.2530(2)
O6A O -1.5616(3) -0.1793(2) -0.43548(18)
C2A C 0.1371(4) 0.4295(3) 0.0618(3)
H1A H 0.1524 0.5044 0.1108
H2A H 0.1890 0.3925 0.1017
O7A O -0.5320(3) 0.1336(2) 0.00783(17)
O8A O 0.6234(3) 0.4969(2) -0.35421(16)
C3A C -0.0543(4) 0.3703(3) 0.1801(2)
H3A H 0.0531 0.4241 0.2168
O9A O -0.8753(3) 0.0473(2) -0.07439(18)
C4A C 0.2084(4) 0.4532(3) -0.0189(3)
H4A H 0.3087 0.5257 0.0145
H5A H 0.1361 0.4645 -0.0731
O10A O 0.2353(3) 0.3534(2) -0.06548(18)
C5A C -1.3238(4) -0.1593(3) -0.3132(2)
C6A C -0.0814(4) 0.3771(3) 0.3538(2)
C7A C -1.0214(4) -0.0251(3) -0.1530(3)
C8A C -0.1539(4) 0.3339(3) 0.2340(2)
C9A C -0.1182(4) 0.3248(3) 0.0703(2)
C10A C -0.3770(4) 0.2128(3) 0.0708(2)
C11A C -0.2787(4) 0.2475(3) 0.0155(2)
H6A H -0.3206 0.2189 -0.0580
C12A C -1.1038(4) 0.0324(3) -0.1971(3)
H7A H -1.0579 0.1158 -0.1734
C13A C 0.6090(4) 0.4141(3) -0.3187(2)
C14A C -0.3154(4) 0.2551(3) 0.1812(2)
H8A H -0.3807 0.2312 0.2184
C15A C -1.2533(4) -0.0342(3) -0.2756(3)
H9A H -1.3081 0.0049 -0.3041
C16A C -0.6372(4) 0.0815(3) 0.0577(3)
H10A H -0.5908 0.0451 0.1015
H11A H -0.6550 0.1427 0.1021
C17A C 0.4427(4) 0.4746(3) -0.2289(3)
H12A H 0.4608 0.5363 -0.2552
C18A C -1.2404(4) -0.2158(3) -0.2685(3)
H13A H -1.2860 -0.2992 -0.2925
C19A C -1.4849(4) -0.2313(3) -0.3986(2)
C20A C -0.7917(4) -0.0117(3) -0.0282(3)
H14A H -0.8561 -0.0628 0.0007
H15A H -0.7710 -0.0616 -0.0816
C21A C 0.4783(4) 0.3029(3) -0.2137(2)
H16A H 0.5213 0.2491 -0.2291
O11A O -0.0649(3) 0.2904(3) 0.6187(2)
H17A H -0.1067 0.2550 0.6563
H18A H -0.0507 0.2405 0.5734
C22A C -1.0908(4) -0.1497(3) -0.1888(3)
H19A H -1.0368 -0.1887 -0.1592
C23A C 0.3860(4) 0.2894(3) -0.1523(3)
H20A H 0.3659 0.2266 -0.1274
C24A C 0.3513(4) 0.4640(3) -0.1670(3)
H21A H 0.3088 0.5181 -0.1513
C25A C 0.3233(4) 0.3705(3) -0.1282(2)
O12A O 1.2721(3) 1.3855(2) 1.50246(19)
H22A H 1.1974 1.3953 1.4642
H23A H 1.2547 1.3124 1.4785
Mn1_2 Mn -1.78036(6) -0.35410(4) -0.53844(4)
Mn1_3 Mn -0.78036(6) 0.64590(4) 1.46156(4)
Mn1A_2 Mn 0.78036(6) 0.35410(4) -0.46156(4)
Mn1A_3 Mn 1.78036(6) 1.35410(4) 1.53844(4)
O2_2 O -0.4538(3) 0.3468(2) 0.43369(17)
O2A_2 O 0.4538(3) 0.6532(2) 0.56631(17)
O2A_3 O 1.4538(3) 1.6532(2) 1.56631(17)
O4_2 O 0.3205(3) 0.6519(2) 0.33469(17)
O4A_2 O -0.3205(3) 0.3481(2) 0.66531(17)
O6_2 O -0.4384(3) 0.1793(2) 0.43548(18)
O6A_2 O 0.4384(3) 0.8207(2) 0.56452(18)
O8_2 O 1.3766(3) 1.5031(2) 1.35421(16)
O8A_2 O 1.6234(3) 1.4969(2) 1.64579(16)
Mn2_2 Mn -1.5000 -0.5000 -0.5000
Mn2_3 Mn -0.5000 0.5000 1.5000
Mn2_4 Mn 0.5000 0.5000 -0.5000
O13 O 0.1282(3) 0.1929(2) 0.5667(2)
N1 N 0.2053(4) 0.0516(3) 0.6011(2)
C26 C 0.1260(5) 0.1160(4) 0.6099(3)
H24 H 0.0634 0.1046 0.6508
C27 C 0.3061(6) 0.0614(5) 0.5397(4)
H25 H 0.2970 0.1153 0.5040
H26 H 0.2730 -0.0164 0.4884
H27 H 0.4153 0.0917 0.5856
C28 C 0.2012(6) -0.0306(4) 0.6582(4)
H28 H 0.3061 -0.0036 0.7091
H29 H 0.1671 -0.1098 0.6090
H30 H 0.1276 -0.0324 0.6938
O14 O 0.1714(4) 0.7498(3) 0.2231(2)
H31 H 0.236(6) 0.713(5) 0.241(3)
H32 H 0.125(7) 0.718(6) 0.1513(16)
loop_
_geom_bond_atom_site_label_1
_geom_bond_atom_site_label_2
_geom_bond_site_symmetry_1
_geom_bond_site_symmetry_2
Mn1 O1 1_555 1_555
O1 C6 1_555 1_555
O2 C19 1_555 1_555
O3 C2 1_555 1_555
O4 C13 1_555 1_555
O5 C6 1_555 1_555
C1 C13 1_555 1_555
O6 C19 1_555 1_555
C2 H1 1_555 1_555
H2 C2 1_555 1_555
O7 C10 1_555 1_555
O8 C13 1_555 1_555
C3 H3 1_555 1_555
O9 C7 1_555 1_555
C4 C2 1_555 1_555
H4 C4 1_555 1_555
H5 C4 1_555 1_555
O10 C4 1_555 1_555
C5 C15 1_555 1_555
C6 C8 1_555 1_555
C7 C12 1_555 1_555
C8 C3 1_555 1_555
C9 O3 1_555 1_555
C10 C11 1_555 1_555
C11 C9 1_555 1_555
H6 C11 1_555 1_555
C12 H7 1_555 1_555
C14 C8 1_555 1_555
H8 C14 1_555 1_555
C15 C12 1_555 1_555
H9 C15 1_555 1_555
C16 O7 1_555 1_555
H10 C16 1_555 1_555
H11 C16 1_555 1_555
C17 C1 1_555 1_555
H12 C17 1_555 1_555
C18 C5 1_555 1_555
H13 C18 1_555 1_555
C19 C5 1_555 1_555
C20 O9 1_555 1_555
H14 C20 1_555 1_555
H15 C20 1_555 1_555
C21 C1 1_555 1_555
H16 C21 1_555 1_555
O11 Mn1 1_555 1_555
H17 O11 1_555 1_555
H18 O11 1_555 1_555
C22 C7 1_555 1_555
H19 C22 1_555 1_555
C23 C21 1_555 1_555
H20 C23 1_555 1_555
C24 C17 1_555 1_555
H21 C24 1_555 1_555
C25 O10 1_555 1_555
Mn2 O2 1_555 1_555
O12 Mn2 1_555 1_555
H22 O12 1_555 1_555
H23 O12 1_555 1_555
O13 C26 1_555 1_555
N1 C26 1_555 1_555
C26 H24 1_555 1_555
C27 N1 1_555 1_555
H25 C27 1_555 1_555
H26 C27 1_555 1_555
H27 C27 1_555 1_555
C28 N1 1_555 1_555
H28 C28 1_555 1_555
H29 C28 1_555 1_555
H30 C28 1_555 1_555
O14 H31 1_555 1_555
H32 O14 1_555 1_555
Mn1A O5 1_555 1_555
O1A Mn1A 1_555 1_555
O2A C19A 1_555 1_555
O3A C2A 1_555 1_555
O4A C13A 1_555 1_555
O5A Mn1 1_555 1_555
C1A C13A 1_555 1_555
O6A C19A 1_555 1_555
C2A H1A 1_555 1_555
H2A C2A 1_555 1_555
O7A C10A 1_555 1_555
O8A C13A 1_555 1_555
C3A H3A 1_555 1_555
O9A C7A 1_555 1_555
C4A C2A 1_555 1_555
H4A C4A 1_555 1_555
H5A C4A 1_555 1_555
O10A C4A 1_555 1_555
C5A C15A 1_555 1_555
C6A O1A 1_555 1_555
C7A C12A 1_555 1_555
C8A C3A 1_555 1_555
C9A O3A 1_555 1_555
C10A C11A 1_555 1_555
C11A C9A 1_555 1_555
H6A C11A 1_555 1_555
C12A H7A 1_555 1_555
C14A C8A 1_555 1_555
H8A C14A 1_555 1_555
C15A C12A 1_555 1_555
H9A C15A 1_555 1_555
C16A O7A 1_555 1_555
H10A C16A 1_555 1_555
H11A C16A 1_555 1_555
C17A C1A 1_555 1_555
H12A C17A 1_555 1_555
C18A C5A 1_555 1_555
H13A C18A 1_555 1_555
C19A C5A 1_555 1_555
C20A O9A 1_555 1_555
H14A C20A 1_555 1_555
H15A C20A 1_555 1_555
C21A C1A 1_555 1_555
H16A C21A 1_555 1_555
O11A Mn1A 1_555 1_555
H17A O11A 1_555 1_555
H18A O11A 1_555 1_555
C22A C7A 1_555 1_555
H19A C22A 1_555 1_555
C23A C21A 1_555 1_555
H20A C23A 1_555 1_555
C24A C17A 1_555 1_555
H21A C24A 1_555 1_555
C25A O10A 1_555 1_555
O12A Mn2 1_555 1_555
H22A O12A 1_555 1_555
H23A O12A 1_555 1_555
Mn1_2 O2A 1_555 1_555
Mn1_3 O4 1_555 1_555
Mn1A_2 O4A 1_555 1_555
Mn1A_3 O2 1_555 1_555
O2_2 Mn1A 1_555 1_555
O2A_2 Mn1 1_555 1_555
O2A_3 Mn2 1_555 1_555
O4_2 Mn1 1_555 1_555
O4A_2 Mn1A 1_555 1_555
O6_2 Mn1A 1_555 1_555
O6A_2 Mn1 1_555 1_555
O8_2 Mn2 1_555 1_555
O8A_2 Mn2 1_555 1_555
Mn2_2 O2A 1_555 1_555
Mn2_3 O8 1_555 1_555
Mn2_4 O8A 1_555 1_555
O6 Mn1A_3 1_555 1_555
C3 C9 1_555 1_555
C10 C14 1_555 1_555
C16 C20 1_555 1_555
C18 C22 1_555 1_555
C23 C25 1_555 1_555
C24 C25 1_555 1_555
O5A C6A 1_555 1_555
O6A Mn1_2 1_555 1_555
C3A C9A 1_555 1_555
C6A C8A 1_555 1_555
C10A C14A 1_555 1_555
C16A C20A 1_555 1_555
C18A C22A 1_555 1_555
C23A C25A 1_555 1_555
C24A C25A 1_555 1_555

#END
