
#######################################################################
#
#                 Cambridge Crystallographic Data Centre
#                                CCDC 
#
#######################################################################
#
# If this CIF has been generated from an entry in the Cambridge 
# Structural Database, then it will include bibliographic, chemical, 
# crystal, experimental, refinement or atomic coordinate data resulting 
# from the CCDC's data processing and validation procedures.
#
#######################################################################

data_XULPEZ
_symmetry_cell_setting           orthorhombic
_symmetry_space_group_name_H-M   'P b c a'
_symmetry_Int_Tables_number      61
_space_group_name_Hall           '-P 2ac 2ab'
loop_
_symmetry_equiv_pos_site_id
_symmetry_equiv_pos_as_xyz
1 x,y,z
2 1/2-x,-y,1/2+z
3 1/2+x,1/2-y,-z
4 -x,1/2+y,1/2-z
5 -x,-y,-z
6 1/2+x,y,1/2-z
7 1/2-x,1/2+y,z
8 x,1/2-y,1/2+z
_cell_length_a                   17.330(2)
_cell_length_b                   8.6400(10)
_cell_length_c                   19.933(6)
_cell_angle_alpha                90
_cell_angle_beta                 90
_cell_angle_gamma                90
_cell_volume                     2984.59
loop_
_atom_site_label
_atom_site_type_symbol
_atom_site_fract_x
_atom_site_fract_y
_atom_site_fract_z
Ag1 Ag 0.83334(3) 0.03854(6) 0.58569(2)
S1 S 0.76192(9) -0.2034(2) 0.32467(8)
N1 N 0.8507(3) 0.0302(6) 0.4778(2)
N2 N 0.8544(3) -0.4867(6) 0.1905(2)
C1 C 0.8095(3) -0.0638(7) 0.4390(3)
H1 H 0.7693 -0.1197 0.4582
C2 C 0.8240(3) -0.0820(7) 0.3709(3)
C3 C 0.8838(4) 0.0001(8) 0.3427(3)
H2 H 0.8943 -0.0080 0.2971
C4 C 0.9277(4) 0.0941(9) 0.3829(3)
H3 H 0.9694 0.1479 0.3651
C5 C 0.9096(4) 0.1082(8) 0.4498(3)
H4 H 0.9390 0.1738 0.4765
C6 C 0.8123(3) -0.3798(8) 0.2220(3)
H5 H 0.7704 -0.3361 0.1997
C7 C 0.8286(3) -0.3317(7) 0.2867(3)
C8 C 0.8922(4) -0.3933(8) 0.3186(3)
H6 H 0.9051 -0.3620 0.3618
C9 C 0.9361(4) -0.5016(9) 0.2856(3)
H7 H 0.9797 -0.5438 0.3058
C10 C 0.9145(4) -0.5464(8) 0.2223(3)
H8 H 0.9433 -0.6223 0.2007
N2G N 0.8544(3) -0.0133(6) 0.6905(2)
Ag1G Ag 0.83334(3) -0.53854(6) 0.08569(2)
S2 S 0.62530(8) -0.08228(19) 0.60665(7)
O1 O 0.5613(3) -0.1831(6) 0.5968(2)
O2 O 0.6268(3) -0.0025(8) 0.6690(3)
O3 O 0.6983(3) -0.1441(6) 0.5859(2)
F1 F 0.6058(4) 0.0119(8) 0.4847(2)
F2 F 0.6676(3) 0.1684(7) 0.5463(4)
F3 F 0.5453(3) 0.1441(7) 0.5574(3)
C11 C 0.6099(4) 0.0696(8) 0.5460(4)
loop_
_geom_bond_atom_site_label_1
_geom_bond_atom_site_label_2
_geom_bond_site_symmetry_1
_geom_bond_site_symmetry_2
Ag1 N1 1_555 1_555
S1 C2 1_555 1_555
S2 O1 1_555 1_555
N1 C1 1_555 1_555
N2 C6 1_555 1_555
O2 S2 1_555 1_555
O3 S2 1_555 1_555
F1 C11 1_555 1_555
F2 C11 1_555 1_555
F3 C11 1_555 1_555
C1 H1 1_555 1_555
C2 C1 1_555 1_555
C3 C2 1_555 1_555
H2 C3 1_555 1_555
C4 C3 1_555 1_555
H3 C4 1_555 1_555
C5 N1 1_555 1_555
H4 C5 1_555 1_555
C6 H5 1_555 1_555
C7 S1 1_555 1_555
C8 C7 1_555 1_555
H6 C8 1_555 1_555
C9 C8 1_555 1_555
H7 C9 1_555 1_555
C10 N2 1_555 1_555
H8 C10 1_555 1_555
C11 S2 1_555 1_555
N2G Ag1 1_555 1_555
Ag1G N2 1_555 1_555
C4 C5 1_555 1_555
C6 C7 1_555 1_555
C9 C10 1_555 1_555

#END
