
#######################################################################
#
#                 Cambridge Crystallographic Data Centre
#                                CCDC 
#
#######################################################################
#
# If this CIF has been generated from an entry in the Cambridge 
# Structural Database, then it will include bibliographic, chemical, 
# crystal, experimental, refinement or atomic coordinate data resulting 
# from the CCDC's data processing and validation procedures.
#
#######################################################################

data_XULQEA01
_symmetry_cell_setting           triclinic
_symmetry_space_group_name_H-M   'P -1'
_symmetry_Int_Tables_number      2
_space_group_name_Hall           '-P 1'
loop_
_symmetry_equiv_pos_site_id
_symmetry_equiv_pos_as_xyz
1 x,y,z
2 -x,-y,-z
_cell_length_a                   11.3645(13)
_cell_length_b                   12.1930(8)
_cell_length_c                   14.271(2)
_cell_angle_alpha                95.031(11)
_cell_angle_beta                 103.576(12)
_cell_angle_gamma                101.060(8)
_cell_volume                     1868.19
loop_
_atom_site_label
_atom_site_type_symbol
_atom_site_fract_x
_atom_site_fract_y
_atom_site_fract_z
Tb1 Tb 0.70661(2) 0.636002(17) 0.110715(14)
Tb2 Tb 0.894792(18) 0.834064(16) 0.365471(14)
O1 O 0.8460(3) 0.6249(3) 0.2571(3)
O2 O 0.9024(4) 0.6491(3) 0.4163(3)
O3 O 0.7953(3) -0.1621(3) 0.1958(2)
O4 O 0.7414(4) -0.1935(3) 0.0360(3)
O5 O 0.5978(3) 0.6388(3) 0.2292(3)
O6 O 0.6930(3) 0.7545(3) 0.3665(3)
O7 O 0.0637(3) 0.1370(3) 0.4706(2)
O8 O 0.0139(3) 0.0037(3) 0.3433(2)
O9 O 0.6435(4) 0.4446(3) 0.1027(3)
O10 O 0.5060(3) 0.3755(3) -0.0393(2)
O11 O 1.0878(3) 0.8062(3) 0.3570(3)
O12 O 1.1037(4) 0.7866(6) 0.2047(3)
O13 O 0.6743(4) 0.5702(4) -0.0611(3)
O14 O 0.9048(4) 0.6427(5) 0.0857(3)
O15 O 0.7903(3) 0.9855(3) 0.3942(3)
N1 N 0.8416(4) 0.2306(3) 0.3474(3)
N2 N 0.8726(5) 0.2285(3) 0.1017(3)
N3 N 0.3283(4) 0.5139(4) 0.4446(3)
N4 N 0.2686(5) 0.3162(4) 0.2280(3)
N5 N 0.4996(5) 0.0356(4) 0.1254(3)
N6 N 1.5413(4) 0.9544(4) 0.3902(3)
C1 C 0.8493(5) 0.2737(4) 0.2645(3)
C2 C 0.8604(5) 0.3875(4) 0.2573(4)
C3 C 0.8630(4) 0.4613(4) 0.3383(3)
C4 C 0.8580(5) 0.4178(4) 0.4245(4)
C5 C 0.8467(5) 0.3029(4) 0.4250(4)
C6 C 0.8715(4) 0.5848(4) 0.3371(3)
C7 C 0.8447(5) 0.1894(4) 0.1800(3)
C8 C 0.8141(5) 0.0743(4) 0.1850(4)
C9 C 0.8150(5) -0.0027(4) 0.1085(3)
C10 C 0.8413(7) 0.0371(5) 0.0260(4)
C11 C 0.8706(8) 0.1529(5) 0.0266(4)
C12 C 0.7834(5) -0.1260(4) 0.1136(3)
C13 C 0.3443(5) 0.4673(4) 0.3618(4)
C14 C 0.4340(5) 0.5189(4) 0.3187(4)
C15 C 0.5111(4) 0.6217(4) 0.3621(3)
C16 C 0.4944(6) 0.6697(5) 0.4481(4)
C17 C 0.4031(6) 0.6145(5) 0.4857(5)
C18 C 0.6088(5) 0.6761(4) 0.3163(4)
C19 C 0.2671(5) 0.3526(4) 0.3191(4)
C20 C 0.2020(5) 0.2862(4) 0.3726(4)
C21 C 0.1401(4) 0.1771(4) 0.3331(3)
C22 C 0.1448(5) 0.1378(5) 0.2400(4)
C23 C 0.2076(6) 0.2104(5) 0.1898(4)
C24 C 0.0675(4) 0.0997(4) 0.3874(3)
C25 C 0.5080(5) 0.0520(4) 0.0347(4)
C26 C 0.5311(5) 0.1576(4) 0.0071(4)
C27 C 0.5472(5) 0.2512(4) 0.0751(4)
C28 C 0.5416(6) 0.2360(4) 0.1686(4)
C29 C 0.5156(7) 0.1275(5) 0.1900(4)
C30 C 0.5668(5) 0.3652(4) 0.0448(4)
C31 C 1.4687(4) 0.9673(4) 0.4506(4)
C32 C 1.3416(5) 0.9220(5) 0.4215(4)
C33 C 1.2867(5) 0.8636(4) 0.3284(4)
C34 C 1.3620(5) 0.8515(5) 0.2665(4)
C35 C 1.4883(5) 0.8972(4) 0.3013(4)
C36 C 1.1490(5) 0.8143(5) 0.2944(4)
H1 H 0.869(5) 0.407(4) 0.198(4)
H2 H 0.859(6) 0.473(5) 0.492(5)
H3 H 0.850(5) 0.271(4) 0.489(4)
H4 H 0.794(5) 0.054(5) 0.233(4)
H5 H 0.845(6) -0.008(5) -0.021(5)
H6 H 0.887(7) 0.179(7) -0.025(6)
H7 H 0.437(5) 0.487(5) 0.268(4)
H8 H 0.533(5) 0.711(5) 0.467(4)
H9 H 0.392(5) 0.640(5) 0.537(4)
H10 H 0.195(4) 0.311(4) 0.428(4)
H11 H 0.110(6) 0.065(6) 0.213(5)
H12 H 0.215(6) 0.190(6) 0.124(5)
H13 H 0.530(5) 0.167(5) -0.056(4)
H14 H 0.548(6) 0.301(5) 0.218(5)
H15 H 0.505(5) 0.114(5) 0.247(4)
H16 H 1.288(6) 0.938(6) 0.453(5)
H17 H 1.338(5) 0.814(5) 0.208(4)
H18 H 1.543(6) 0.886(5) 0.258(5)
H19 H 0.629(7) 0.513(7) -0.078(6)
H20 H 0.691(6) 0.593(5) -0.109(5)
H21 H 0.971(7) 0.677(6) 0.123(5)
H22 H 0.824(6) 1.051(6) 0.395(4)
H23 H 0.705(5) 0.973(4) 0.406(4)
Tb1_2 Tb 0.70661(2) 1.636002(17) 0.110715(14)
Tb1_3 Tb 0.70661(2) -0.363998(17) 0.110715(14)
Tb1A Tb 0.29339(2) 0.363998(17) -0.110715(14)
Tb1A_2 Tb 0.29339(2) -0.636002(17) -0.110715(14)
Tb1A_3 Tb 0.29339(2) 0.363998(17) 0.889285(14)
Tb2_2 Tb 0.894792(18) 1.834064(16) 0.365471(14)
Tb2_3 Tb 0.894792(18) -0.165936(16) 0.365471(14)
Tb2A Tb 0.105208(18) 0.165936(16) 0.634529(14)
Tb2_4 Tb -0.105208(18) -0.165936(16) 0.365471(14)
Tb2A_2 Tb 2.105208(18) 1.165936(16) 0.634529(14)
Tb2A_3 Tb 1.105208(18) 1.165936(16) 0.634529(14)
O1_2 O 0.8460(3) 1.6249(3) 0.2571(3)
O2_2 O 0.9024(4) 1.6491(3) 0.4163(3)
O3_2 O 0.7953(3) 0.8379(3) 0.1958(2)
O3_3 O 0.7953(3) 1.8379(3) 0.1958(2)
O4_2 O 0.7414(4) 0.8065(3) 0.0360(3)
O4_3 O 0.7414(4) 1.8065(3) 0.0360(3)
O5A O 0.4022(3) 0.3612(3) 0.7708(3)
O5_2 O 0.5978(3) 1.6388(3) 0.2292(3)
O6A O 0.3070(3) 0.2455(3) 0.6335(3)
O6_2 O 0.6930(3) 1.7545(3) 0.3665(3)
O7A O 0.9363(3) 0.8630(3) 0.5294(2)
O7A_2 O 0.9363(3) 1.8630(3) 0.5294(2)
O8A O 0.9861(3) 0.9963(3) 0.6567(2)
O8_2 O 1.0139(3) 1.0037(3) 0.3433(2)
O8_3 O 1.0139(3) 2.0037(3) 0.3433(2)
O9A O 0.3565(4) -0.4446(3) -0.1027(3)
O9_2 O 0.6435(4) 1.4446(3) 0.1027(3)
O10A O 0.4940(3) -0.3755(3) 0.0393(2)
O10A_2 O 0.4940(3) 0.6245(3) 0.0393(2)
O10A_3 O 0.4940(3) 1.6245(3) 0.0393(2)
O11A O 1.9122(3) 1.1938(3) 0.6430(3)
O11_2 O 1.0878(3) 1.8062(3) 0.3570(3)
O12A O 1.8963(4) 1.2134(6) 0.7953(3)
O13_2 O 0.6743(4) 1.5702(4) -0.0611(3)
O14_2 O 0.9048(4) 1.6427(5) 0.0857(3)
O15_2 O 0.7903(3) 1.9855(3) 0.3942(3)
N1_2 N 0.8416(4) 1.2306(3) 0.3474(3)
N2_2 N 0.8726(5) 1.2285(3) 0.1017(3)
N3A N 0.6717(4) 0.4861(4) 0.5554(3)
N4A N 0.7314(5) 0.6838(4) 0.7720(3)
N5A N 0.5004(5) -0.0356(4) -0.1254(3)
N6A N 1.4587(4) 1.0456(4) 0.6098(3)
C1_2 C 0.8493(5) 1.2737(4) 0.2645(3)
C2_2 C 0.8604(5) 1.3875(4) 0.2573(4)
C3_2 C 0.8630(4) 1.4613(4) 0.3383(3)
C4_2 C 0.8580(5) 1.4178(4) 0.4245(4)
C5_2 C 0.8467(5) 1.3029(4) 0.4250(4)
C6_2 C 0.8715(4) 1.5848(4) 0.3371(3)
C7_2 C 0.8447(5) 1.1894(4) 0.1800(3)
C8_2 C 0.8141(5) 1.0743(4) 0.1850(4)
C9_2 C 0.8150(5) 0.9973(4) 0.1085(3)
C10_2 C 0.8413(7) 1.0371(5) 0.0260(4)
C11_2 C 0.8706(8) 1.1529(5) 0.0266(4)
C12_2 C 0.7834(5) 0.8740(4) 0.1136(3)
C13A C 0.6557(5) 0.5327(4) 0.6382(4)
C14A C 0.5660(5) 0.4811(4) 0.6813(4)
C15A C 0.4889(4) 0.3783(4) 0.6379(3)
C16A C 0.5056(6) 0.3303(5) 0.5519(4)
C17A C 0.5969(6) 0.3855(5) 0.5143(5)
C18A C 0.3912(5) 0.3239(4) 0.6837(4)
C19A C 0.7329(5) 0.6474(4) 0.6809(4)
C20A C 0.7980(5) 0.7138(4) 0.6274(4)
C21A C 0.8599(4) 0.8229(4) 0.6669(3)
C22A C 0.8552(5) 0.8622(5) 0.7600(4)
C23A C 0.7924(6) 0.7896(5) 0.8102(4)
C24A C 0.9325(4) 0.9003(4) 0.6126(3)
C25A C 0.4920(5) -0.0520(4) -0.0347(4)
C26A C 0.4689(5) -0.1576(4) -0.0071(4)
C27A C 0.4528(5) -0.2512(4) -0.0751(4)
C28A C 0.4584(6) -0.2360(4) -0.1686(4)
C29A C 0.4844(7) -0.1275(5) -0.1900(4)
C30A C 0.4332(5) -0.3652(4) -0.0448(4)
C31A C 1.5313(4) 1.0327(4) 0.5494(4)
C32A C 1.6584(5) 1.0780(5) 0.5785(4)
C33A C 1.7133(5) 1.1364(4) 0.6716(4)
C34A C 1.6380(5) 1.1485(5) 0.7335(4)
C35A C 1.5117(5) 1.1028(4) 0.6987(4)
C36A C 1.8510(5) 1.1857(5) 0.7056(4)
H1_2 H 0.869(5) 1.407(4) 0.198(4)
H2_2 H 0.859(6) 1.473(5) 0.492(5)
H3_2 H 0.850(5) 1.271(4) 0.489(4)
H4_2 H 0.794(5) 1.054(5) 0.233(4)
H5_2 H 0.845(6) 0.992(5) -0.021(5)
H6_2 H 0.887(7) 1.179(7) -0.025(6)
H7A H 0.563(5) 0.513(5) 0.732(4)
H8A H 0.467(5) 0.289(5) 0.533(4)
H9A H 0.608(5) 0.360(5) 0.463(4)
H10A H 0.805(4) 0.689(4) 0.572(4)
H11A H 0.890(6) 0.935(6) 0.787(5)
H12A H 0.785(6) 0.810(6) 0.876(5)
H13A H 0.470(5) -0.167(5) 0.056(4)
H14A H 0.452(6) -0.301(5) -0.218(5)
H15A H 0.495(5) -0.114(5) -0.247(4)
H16A H 1.712(6) 1.062(6) 0.547(5)
H17A H 1.662(5) 1.186(5) 0.792(4)
H18A H 1.457(6) 1.114(5) 0.742(5)
H19_2 H 0.629(7) 1.513(7) -0.078(6)
H20_2 H 0.691(6) 1.593(5) -0.109(5)
H21_2 H 0.971(7) 1.677(6) 0.123(5)
H22_2 H 0.824(6) 2.051(6) 0.395(4)
H23_2 H 0.705(5) 1.973(4) 0.406(4)
O16 O 0.9632(7) 0.5787(5) 0.9236(5)
H24 H 1.013(8) 0.613(7) 0.891(7)
loop_
_geom_bond_atom_site_label_1
_geom_bond_atom_site_label_2
_geom_bond_site_symmetry_1
_geom_bond_site_symmetry_2
Tb1 O1 1_555 1_555
Tb2 O1 1_555 1_555
O1 C6 1_555 1_555
O2 Tb2 1_555 1_555
O3 C12 1_555 1_555
O4 C12 1_555 1_555
O5 Tb1 1_555 1_555
O6 Tb2 1_555 1_555
O7 C24 1_555 1_555
O8 C24 1_555 1_555
O9 Tb1 1_555 1_555
O10 C30 1_555 1_555
O11 Tb2 1_555 1_555
O12 C36 1_555 1_555
O13 Tb1 1_555 1_555
O14 Tb1 1_555 1_555
O15 Tb2 1_555 1_555
O16 H24 1_555 1_555
N1 C1 1_555 1_555
N2 C7 1_555 1_555
N3 C13 1_555 1_555
N4 C19 1_555 1_555
N5 C25 1_555 1_555
N6 C31 1_555 1_555
C1 C2 1_555 1_555
C2 C3 1_555 1_555
C3 C4 1_555 1_555
C4 C5 1_555 1_555
C5 N1 1_555 1_555
C6 O2 1_555 1_555
C7 C1 1_555 1_555
C8 C7 1_555 1_555
C9 C8 1_555 1_555
C10 C9 1_555 1_555
C11 N2 1_555 1_555
C12 C9 1_555 1_555
C13 C14 1_555 1_555
C14 C15 1_555 1_555
C15 C16 1_555 1_555
C16 C17 1_555 1_555
C17 N3 1_555 1_555
C18 O5 1_555 1_555
C19 C13 1_555 1_555
C20 C19 1_555 1_555
C21 C20 1_555 1_555
C22 C21 1_555 1_555
C23 N4 1_555 1_555
C24 C21 1_555 1_555
C25 C26 1_555 1_555
C26 C27 1_555 1_555
C27 C28 1_555 1_555
C28 C29 1_555 1_555
C29 N5 1_555 1_555
C30 O9 1_555 1_555
C31 C32 1_555 1_555
C32 C33 1_555 1_555
C33 C34 1_555 1_555
C34 C35 1_555 1_555
C35 N6 1_555 1_555
C36 O11 1_555 1_555
H1 C2 1_555 1_555
H2 C4 1_555 1_555
H3 C5 1_555 1_555
H4 C8 1_555 1_555
H5 C10 1_555 1_555
H6 C11 1_555 1_555
H7 C14 1_555 1_555
H8 C16 1_555 1_555
H9 C17 1_555 1_555
H10 C20 1_555 1_555
H11 C22 1_555 1_555
H12 C23 1_555 1_555
H13 C26 1_555 1_555
H14 C28 1_555 1_555
H15 C29 1_555 1_555
H16 C32 1_555 1_555
H17 C34 1_555 1_555
H18 C35 1_555 1_555
H19 O13 1_555 1_555
H20 O13 1_555 1_555
H21 O14 1_555 1_555
H22 O15 1_555 1_555
H23 O15 1_555 1_555
Tb1_2 O1_2 1_555 1_555
Tb1_3 O3 1_555 1_555
Tb1A O10 1_555 1_555
Tb1A_2 O9A 1_555 1_555
Tb1A_3 O5A 1_555 1_555
Tb2_2 O1_2 1_555 1_555
Tb2_3 O3 1_555 1_555
Tb2A O7 1_555 1_555
Tb2_4 O8 1_555 1_555
Tb2A_2 O11A 1_555 1_555
Tb2A_3 O8A 1_555 1_555
O1_2 C6_2 1_555 1_555
O2_2 Tb2_2 1_555 1_555
O3_2 Tb1 1_555 1_555
O3_3 Tb1_2 1_555 1_555
O4_2 Tb1 1_555 1_555
O4_3 Tb1_2 1_555 1_555
O5A C18A 1_555 1_555
O5_2 Tb1_2 1_555 1_555
O6A Tb2A 1_555 1_555
O6_2 Tb2_2 1_555 1_555
O7A Tb2 1_555 1_555
O7A_2 Tb2_2 1_555 1_555
O8A C24A 1_555 1_555
O8_2 Tb2 1_555 1_555
O8_3 Tb2_2 1_555 1_555
O9A C30A 1_555 1_555
O9_2 Tb1_2 1_555 1_555
O10A Tb1_3 1_555 1_555
O10A_2 Tb1 1_555 1_555
O10A_3 Tb1_2 1_555 1_555
O11A C36A 1_555 1_555
O11_2 Tb2_2 1_555 1_555
O12A C36A 1_555 1_555
O13_2 Tb1_2 1_555 1_555
O14_2 Tb1_2 1_555 1_555
O15_2 Tb2_2 1_555 1_555
N1_2 C1_2 1_555 1_555
N2_2 C7_2 1_555 1_555
N3A C13A 1_555 1_555
N4A C19A 1_555 1_555
N5A C25A 1_555 1_555
N6A C31A 1_555 1_555
C1_2 C2_2 1_555 1_555
C2_2 C3_2 1_555 1_555
C3_2 C4_2 1_555 1_555
C4_2 C5_2 1_555 1_555
C5_2 N1_2 1_555 1_555
C6_2 O2_2 1_555 1_555
C7_2 C1_2 1_555 1_555
C8_2 C7_2 1_555 1_555
C9_2 C8_2 1_555 1_555
C10_2 C9_2 1_555 1_555
C11_2 N2_2 1_555 1_555
C12_2 O3_2 1_555 1_555
C13A C14A 1_555 1_555
C14A C15A 1_555 1_555
C15A C16A 1_555 1_555
C16A C17A 1_555 1_555
C17A N3A 1_555 1_555
C18A O6A 1_555 1_555
C19A C13A 1_555 1_555
C20A C19A 1_555 1_555
C21A C20A 1_555 1_555
C22A C21A 1_555 1_555
C23A N4A 1_555 1_555
C24A O7A 1_555 1_555
C25A C25 1_555 1_555
C26A C25A 1_555 1_555
C27A C26A 1_555 1_555
C28A C27A 1_555 1_555
C29A N5A 1_555 1_555
C30A O10A 1_555 1_555
C31A C31 1_555 1_555
C32A C31A 1_555 1_555
C33A C32A 1_555 1_555
C34A C33A 1_555 1_555
C35A N6A 1_555 1_555
C36A C33A 1_555 1_555
H1_2 C2_2 1_555 1_555
H2_2 C4_2 1_555 1_555
H3_2 C5_2 1_555 1_555
H4_2 C8_2 1_555 1_555
H5_2 C10_2 1_555 1_555
H6_2 C11_2 1_555 1_555
H7A C14A 1_555 1_555
H8A C16A 1_555 1_555
H9A C17A 1_555 1_555
H10A C20A 1_555 1_555
H11A C22A 1_555 1_555
H12A C23A 1_555 1_555
H13A C26A 1_555 1_555
H14A C28A 1_555 1_555
H15A C29A 1_555 1_555
H16A C32A 1_555 1_555
H17A C34A 1_555 1_555
H18A C35A 1_555 1_555
H19_2 O13_2 1_555 1_555
H20_2 O13_2 1_555 1_555
H21_2 O14_2 1_555 1_555
H22_2 O15_2 1_555 1_555
H23_2 O15_2 1_555 1_555
Tb2 O3_2 1_555 1_555
O4 Tb1_3 1_555 1_555
O6 C18 1_555 1_555
C3 C6 1_555 1_555
C10 C11 1_555 1_555
C15 C18 1_555 1_555
C22 C23 1_555 1_555
C27 C30 1_555 1_555
C33 C36 1_555 1_555
Tb2_2 O3_3 1_555 1_555
O4_2 C12_2 1_555 1_555
C3_2 C6_2 1_555 1_555
C9_2 C12_2 1_555 1_555
C10_2 C11_2 1_555 1_555
C15A C18A 1_555 1_555
C21A C24A 1_555 1_555
C22A C23A 1_555 1_555
C27A C30A 1_555 1_555
C28A C29A 1_555 1_555
C34A C35A 1_555 1_555

#END
