
#######################################################################
#
#                 Cambridge Crystallographic Data Centre
#                                CCDC 
#
#######################################################################
#
# If this CIF has been generated from an entry in the Cambridge 
# Structural Database, then it will include bibliographic, chemical, 
# crystal, experimental, refinement or atomic coordinate data resulting 
# from the CCDC's data processing and validation procedures.
#
#######################################################################

data_XULQAW
_symmetry_cell_setting           monoclinic
_symmetry_space_group_name_H-M   'P 21/n'
_symmetry_Int_Tables_number      14
_space_group_name_Hall           '-P 2yn'
loop_
_symmetry_equiv_pos_site_id
_symmetry_equiv_pos_as_xyz
1 x,y,z
2 1/2+x,1/2-y,1/2+z
3 -x,-y,-z
4 1/2-x,1/2+y,1/2-z
_cell_length_a                   17.1005(11)
_cell_length_b                   15.245(3)
_cell_length_c                   24.969(4)
_cell_angle_alpha                90
_cell_angle_beta                 106.093(9)
_cell_angle_gamma                90
_cell_volume                     6254.26
loop_
_atom_site_label
_atom_site_type_symbol
_atom_site_fract_x
_atom_site_fract_y
_atom_site_fract_z
O30 O 0.1016(8) 0.7034(8) 0.2443(6)
O31 O 0.9299(7) 0.6052(8) 0.2488(5)
O1 O 0.8561(3) 0.7955(3) 0.2977(2)
O2 O 0.9873(3) 0.8203(3) 0.3146(2)
O3 O 1.1101(3) 0.7687(3) 0.69116(18)
O4 O 0.9804(3) 0.7287(3) 0.67280(19)
O5 O 0.8751(3) 0.9768(3) 0.32013(19)
O6 O 0.7437(3) 0.9379(3) 0.2973(2)
O7 O 0.9439(3) 1.0113(4) 0.6945(2)
O8 O 0.8095(3) 1.0264(4) 0.6723(2)
O9 O 0.8006(3) 0.9470(3) 0.1940(2)
O10 O 0.6713(3) 0.9072(3) 0.17180(19)
O11 O 0.5737(3) 1.0520(3) -0.1998(2)
O12 O 0.7035(3) 1.0075(3) -0.18043(19)
O13 O 0.7557(3) 0.6867(3) -0.1984(2)
O14 O 0.8858(3) 0.7294(3) -0.17462(18)
O15 O 0.9123(3) 0.8057(3) 0.1932(2)
O16 O 0.7830(3) 0.7635(3) 0.1717(2)
O17 O 0.5556(3) 0.7379(3) 0.30758(18)
O18 O 0.6878(3) 0.7688(3) 0.32606(19)
O19 O 0.6802(3) 0.6575(3) 0.68195(19)
O20 O 0.8107(3) 0.6889(3) 0.69970(19)
O21 O 0.9879(3) 0.9745(4) 0.1791(2)
O22 O 1.1186(3) 1.0122(3) 0.19977(19)
O23 O 0.6285(3) 1.0474(3) 0.6966(2)
O24 O 0.4991(3) 1.0840(3) 0.67460(19)
O25 O 0.7576(4) 0.6459(4) 0.2585(3)
O26 O 0.9091(3) 0.8403(3) 0.7397(2)
O27 O 0.7358(4) 0.8951(4) 0.7313(3)
O28 O 0.9133(3) 1.0876(3) 0.2445(2)
O29 O 0.5842(2) 0.8905(3) 0.24756(18)
C1 C 0.9282(4) 0.7907(4) 0.3293(3)
C2 C 0.9423(4) 0.7578(4) 0.3871(3)
C3 C 0.8810(4) 0.7118(4) 0.4044(3)
H1 H 0.8337 0.6940 0.3782
C4 C 0.8919(4) 0.6941(4) 0.4591(3)
H2 H 0.8523 0.6621 0.4697
C5 C 0.9615(4) 0.7228(4) 0.5005(3)
C6 C 0.9699(4) 0.7149(4) 0.5583(3)
H3 H 0.9297 0.6864 0.5703
C7 C 1.0362(4) 0.7485(4) 0.5968(3)
C8 C 1.1010(4) 0.7883(4) 0.5795(3)
H4 H 1.1473 0.8087 0.6057
C9 C 1.0939(4) 0.7959(4) 0.5237(3)
H5 H 1.1357 0.8221 0.5122
C10 C 1.0247(4) 0.7649(4) 0.4833(3)
C11 C 1.0136(4) 0.7805(4) 0.4258(3)
H6 H 1.0551 0.8065 0.4141
C12 C 1.0428(4) 0.7480(4) 0.6576(3)
C13 C 0.8075(4) 0.9654(4) 0.3309(3)
C14 C 0.8043(4) 0.9854(4) 0.3890(3)
C15 C 0.8708(4) 0.9628(4) 0.4327(3)
H7 H 0.9166 0.9389 0.4250
C16 C 0.8708(4) 0.9750(4) 0.4884(3)
C17 C 0.9385(4) 0.9503(4) 0.5330(3)
H8 H 0.9829 0.9234 0.5251
C18 C 0.9402(4) 0.9650(4) 0.5867(3)
H9 H 0.9860 0.9502 0.6153
C19 C 0.8711(4) 1.0033(4) 0.5991(3)
C20 C 0.8043(4) 1.0275(4) 0.5574(3)
H10 H 0.7601 1.0532 0.5661
C21 C 0.8021(4) 1.0135(4) 0.5010(3)
C22 C 0.7345(4) 1.0365(4) 0.4545(3)
H11 H 0.6887 1.0620 0.4613
C23 C 0.7352(4) 1.0222(4) 0.4009(3)
H12 H 0.6898 1.0367 0.3719
C24 C 0.8753(4) 1.0155(4) 0.6597(3)
C25 C 0.7308(4) 0.9431(4) 0.1595(3)
C26 C 0.7189(4) 0.9767(4) 0.1015(3)
C27 C 0.6480(4) 0.9584(4) 0.0605(3)
H13 H 0.6040 0.9335 0.0700
C28 C 0.6422(4) 0.9773(4) 0.0042(3)
C29 C 0.5714(4) 0.9588(4) -0.0403(3)
H14 H 0.5254 0.9364 -0.0321
C30 C 0.5693(4) 0.9729(4) -0.0944(3)
H15 H 0.5222 0.9609 -0.1227
C31 C 0.6391(4) 1.0060(4) -0.1078(3)
C32 C 0.7072(4) 1.0270(4) -0.0659(3)
H16 H 0.7526 1.0491 -0.0749
C33 C 0.7099(4) 1.0159(4) -0.0095(3)
C34 C 0.7784(4) 1.0390(4) 0.0338(3)
H17 H 0.8213 1.0676 0.0252
C35 C 0.7841(4) 1.0208(4) 0.0884(3)
H18 H 0.8301 1.0371 0.1164
C36 C 0.6381(4) 1.0221(4) -0.1671(3)
C37 C 0.8188(4) 0.7159(4) -0.1637(3)
C38 C 0.8122(4) 0.7333(4) -0.1064(3)
C39 C 0.8753(4) 0.7129(4) -0.0605(3)
H19 H 0.9234 0.6910 -0.0657
C40 C 0.8690(4) 0.7244(4) -0.0057(3)
C41 C 0.9334(4) 0.7039(4) 0.0428(3)
H20 H 0.9808 0.6785 0.0385
C42 C 0.9277(4) 0.7204(5) 0.0945(3)
H21 H 0.9718 0.7093 0.1252
C43 C 0.8541(4) 0.7550(4) 0.1026(3)
C44 C 0.7899(4) 0.7734(4) 0.0569(3)
H22 H 0.7417 0.7951 0.0621
C45 C 0.7958(4) 0.7600(4) 0.0021(3)
C46 C 0.7318(4) 0.7817(4) -0.0458(3)
H23 H 0.6839 0.8054 -0.0414
C47 C 0.7394(4) 0.7684(5) -0.0984(3)
H24 H 0.6964 0.7826 -0.1292
C48 C 0.8496(4) 0.7751(4) 0.1608(3)
C49 C 0.6241(4) 0.7543(4) 0.3411(3)
C50 C 0.6301(4) 0.7523(4) 0.4016(3)
C51 C 0.6987(4) 0.7805(4) 0.4413(3)
H25 H 0.7408 0.8065 0.4301
C52 C 0.7057(4) 0.7704(4) 0.4985(3)
C53 C 0.7776(4) 0.7940(4) 0.5409(3)
H26 H 0.8188 0.8241 0.5311
C54 C 0.7871(4) 0.7735(4) 0.5948(3)
H27 H 0.8353 0.7878 0.6215
C55 C 0.7233(4) 0.7298(4) 0.6112(3)
C56 C 0.6513(4) 0.7119(4) 0.5720(3)
H28 H 0.6088 0.6868 0.5832
C57 C 0.6400(4) 0.7306(4) 0.5150(3)
C58 C 0.5696(4) 0.7062(4) 0.4736(3)
H29 H 0.5257 0.6828 0.4840
C59 C 0.5640(4) 0.7160(4) 0.4188(3)
H30 H 0.5168 0.6990 0.3921
C60 C 0.7381(4) 0.6927(4) 0.6674(3)
C61 C 1.0513(4) 0.9955(4) 0.1655(3)
C62 C 1.0437(4) 1.0024(4) 0.1052(3)
C63 C 1.1061(4) 1.0462(4) 0.0879(3)
H31 H 1.1516 1.0679 0.1143
C64 C 1.0988(4) 1.0564(4) 0.0323(3)
H32 H 1.1390 1.0861 0.0211
C65 C 1.0309(4) 1.0222(4) -0.0083(3)
C66 C 0.9774(4) 0.9681(4) 0.0662(3)
H33 H 0.9376 0.9382 0.0778
C67 C 0.5586(4) 1.0494(4) 0.6624(3)
C68 C 0.5471(4) 1.0179(4) 0.6044(3)
C69 C 0.4767(4) 1.0394(4) 0.5646(3)
C70 C 0.4679(4) 1.0212(4) 0.5076(3)
C71 C 0.3962(4) 1.0451(4) 0.4654(3)
C72 C 0.6117(4) 0.9738(4) 0.5895(3)
Tb1 Tb 0.722597(19) 0.80589(2) 0.244699(12)
Tb2 Tb 0.934375(19) 0.93132(2) 0.249715(12)
Tb3 Tb 0.76161(2) 1.05418(2) 0.748650(13)
Tb4 Tb 0.946080(18) 0.683420(19) 0.752560(12)
Tb1A Tb 1.222597(19) 0.69411(2) 0.744699(12)
Tb2B Tb 1.065625(19) 1.06868(2) 0.750285(12)
Tb4C Tb 0.553920(18) 1.183420(19) -0.252560(12)
Tb3_2 Tb 0.76161(2) 1.05418(2) -0.251350(13)
Tb3C Tb 0.73839(2) 0.55418(2) -0.248650(13)
Tb4_2 Tb 0.946080(18) 0.683420(19) -0.247440(12)
Tb4A Tb 0.446080(18) 0.816580(19) 0.252560(12)
Tb3C_2 Tb 0.73839(2) 0.55418(2) 0.751350(13)
Tb3B Tb 1.23839(2) 0.94582(2) 0.251350(13)
Tb4C_2 Tb 0.553920(18) 1.183420(19) 0.747440(12)
C65B C 0.9691(4) 0.9778(4) 0.0083(3)
C66B C 1.0226(4) 1.0319(4) -0.0662(3)
C70B C 0.5321(4) 0.9788(4) 0.4924(3)
C72B C 0.3883(4) 1.0262(4) 0.4105(3)
C71B C 0.6038(4) 0.9549(4) 0.5346(3)
O3A O 0.6101(3) 0.7313(3) 0.19116(18)
O7B O 1.0561(3) 0.9887(4) 0.3055(2)
O12_2 O 0.7035(3) 1.0075(3) 0.81957(19)
O13C O 0.7443(3) 1.1867(3) 0.6984(2)
O19C O 0.8198(3) 1.1575(3) 0.81805(19)
O20C O 0.6893(3) 1.1889(3) 0.80030(19)
O22B O 0.8814(3) 0.9878(3) 0.80023(19)
O11C O 0.9263(3) 0.5520(3) 0.6998(2)
O14_2 O 0.8858(3) 0.7294(3) 0.82538(18)
O17A O 1.0556(3) 0.7621(3) 0.80758(18)
O23C O 0.8715(3) 0.5474(3) 0.8034(2)
O24C O 1.0009(3) 0.5840(3) 0.82540(19)
O29A O 1.0842(2) 0.6095(3) 0.74756(18)
loop_
_geom_bond_atom_site_label_1
_geom_bond_atom_site_label_2
_geom_bond_site_symmetry_1
_geom_bond_site_symmetry_2
O1 C1 1_555 1_555
O2 C1 1_555 1_555
O3 C12 1_555 1_555
O4 C12 1_555 1_555
O5 C13 1_555 1_555
O6 C13 1_555 1_555
O7 C24 1_555 1_555
O8 C24 1_555 1_555
O9 C25 1_555 1_555
O10 C25 1_555 1_555
O11 C36 1_555 1_555
O12 C36 1_555 1_555
O13 C37 1_555 1_555
O14 C37 1_555 1_555
O15 C48 1_555 1_555
O16 C48 1_555 1_555
O17 C49 1_555 1_555
O18 C49 1_555 1_555
O19 C60 1_555 1_555
O20 C60 1_555 1_555
O21 C61 1_555 1_555
O22 C61 1_555 1_555
O23 C67 1_555 1_555
O24 C67 1_555 1_555
O25 Tb1 1_555 1_555
O26 Tb4 1_555 1_555
O27 Tb3 1_555 1_555
O28 Tb2 1_555 1_555
O29 Tb1 1_555 1_555
C1 C2 1_555 1_555
C2 C3 1_555 1_555
C3 H1 1_555 1_555
C4 C3 1_555 1_555
H2 C4 1_555 1_555
C5 C4 1_555 1_555
C6 C5 1_555 1_555
H3 C6 1_555 1_555
C7 C6 1_555 1_555
C8 C7 1_555 1_555
H4 C8 1_555 1_555
C9 C8 1_555 1_555
H5 C9 1_555 1_555
C10 C5 1_555 1_555
C11 C2 1_555 1_555
H6 C11 1_555 1_555
C12 C7 1_555 1_555
C13 C14 1_555 1_555
C14 C15 1_555 1_555
C15 H7 1_555 1_555
C16 C15 1_555 1_555
C17 C16 1_555 1_555
H8 C17 1_555 1_555
C18 C17 1_555 1_555
H9 C18 1_555 1_555
C19 C18 1_555 1_555
C20 C19 1_555 1_555
H10 C20 1_555 1_555
C21 C16 1_555 1_555
C22 C21 1_555 1_555
H11 C22 1_555 1_555
C23 C14 1_555 1_555
H12 C23 1_555 1_555
C24 C19 1_555 1_555
C25 C26 1_555 1_555
C26 C27 1_555 1_555
C27 H13 1_555 1_555
C28 C27 1_555 1_555
C29 C28 1_555 1_555
H14 C29 1_555 1_555
C30 C29 1_555 1_555
H15 C30 1_555 1_555
C31 C30 1_555 1_555
C32 C31 1_555 1_555
H16 C32 1_555 1_555
C33 C28 1_555 1_555
C34 C33 1_555 1_555
H17 C34 1_555 1_555
C35 C26 1_555 1_555
H18 C35 1_555 1_555
C36 C31 1_555 1_555
C37 C38 1_555 1_555
C38 C39 1_555 1_555
C39 H19 1_555 1_555
C40 C39 1_555 1_555
C41 C40 1_555 1_555
H20 C41 1_555 1_555
C42 C41 1_555 1_555
H21 C42 1_555 1_555
C43 C42 1_555 1_555
C44 C43 1_555 1_555
H22 C44 1_555 1_555
C45 C40 1_555 1_555
C46 C45 1_555 1_555
H23 C46 1_555 1_555
C47 C38 1_555 1_555
H24 C47 1_555 1_555
C48 C43 1_555 1_555
C49 C50 1_555 1_555
C50 C51 1_555 1_555
C51 H25 1_555 1_555
C52 C51 1_555 1_555
C53 C52 1_555 1_555
H26 C53 1_555 1_555
C54 C53 1_555 1_555
H27 C54 1_555 1_555
C55 C54 1_555 1_555
C56 C55 1_555 1_555
H28 C56 1_555 1_555
C57 C52 1_555 1_555
C58 C57 1_555 1_555
H29 C58 1_555 1_555
C59 C50 1_555 1_555
H30 C59 1_555 1_555
C60 C55 1_555 1_555
C61 C62 1_555 1_555
C62 C63 1_555 1_555
C63 H31 1_555 1_555
C64 C63 1_555 1_555
H32 C64 1_555 1_555
C65 C64 1_555 1_555
C66 C62 1_555 1_555
H33 C66 1_555 1_555
C67 C68 1_555 1_555
C68 C69 1_555 1_555
C69 C70 1_555 1_555
C70 C71 1_555 1_555
C71 C72B 1_555 1_555
C72 C68 1_555 1_555
Tb1 O1 1_555 1_555
Tb2 O1 1_555 1_555
Tb3 O8 1_555 1_555
Tb4 O4 1_555 1_555
Tb1A O3 1_555 1_555
Tb2B O7 1_555 1_555
Tb4C O11 1_555 1_555
Tb3_2 O12 1_555 1_555
Tb3C O13 1_555 1_555
Tb4_2 O14 1_555 1_555
Tb4A O17 1_555 1_555
Tb3C_2 O19 1_555 1_555
Tb3B O22 1_555 1_555
Tb4C_2 O23 1_555 1_555
C65B C65 1_555 1_555
C66B C65 1_555 1_555
C70B C70 1_555 1_555
C71B C72 1_555 1_555
O3A Tb1 1_555 1_555
O7B Tb2 1_555 1_555
O12_2 Tb3 1_555 1_555
O13C Tb3 1_555 1_555
O19C Tb3 1_555 1_555
O20C Tb3 1_555 1_555
O22B Tb3 1_555 1_555
O11C Tb4 1_555 1_555
O14_2 Tb4 1_555 1_555
O17A Tb4 1_555 1_555
O23C Tb4 1_555 1_555
O24C Tb4 1_555 1_555
O29A Tb4 1_555 1_555
O2 Tb2 1_555 1_555
O5 Tb2 1_555 1_555
O6 Tb1 1_555 1_555
O9 Tb2 1_555 1_555
O10 Tb1 1_555 1_555
O15 Tb2 1_555 1_555
O16 Tb1 1_555 1_555
O18 Tb1 1_555 1_555
O20 Tb3C_2 1_555 1_555
O20 Tb4 1_555 1_555
O21 Tb2 1_555 1_555
O23 Tb3 1_555 1_555
O24 Tb4C_2 1_555 1_555
O29 Tb4A 1_555 1_555
C9 C10 1_555 1_555
C10 C11 1_555 1_555
C20 C21 1_555 1_555
C22 C23 1_555 1_555
C32 C33 1_555 1_555
C34 C35 1_555 1_555
C44 C45 1_555 1_555
C46 C47 1_555 1_555
C56 C57 1_555 1_555
C58 C59 1_555 1_555
C66 C65B 1_555 1_555
Tb1A O29A 1_555 1_555
Tb3C_2 O23C 1_555 1_555
Tb4C_2 O20C 1_555 1_555
C70B C71B 1_555 1_555

#END
