
#######################################################################
#
#                 Cambridge Crystallographic Data Centre
#                                CCDC 
#
#######################################################################
#
# If this CIF has been generated from an entry in the Cambridge 
# Structural Database, then it will include bibliographic, chemical, 
# crystal, experimental, refinement or atomic coordinate data resulting 
# from the CCDC's data processing and validation procedures.
#
#######################################################################

data_XULRON
_symmetry_cell_setting           triclinic
_symmetry_space_group_name_H-M   'P -1'
_symmetry_Int_Tables_number      2
_space_group_name_Hall           '-P 1'
loop_
_symmetry_equiv_pos_site_id
_symmetry_equiv_pos_as_xyz
1 x,y,z
2 -x,-y,-z
_cell_length_a                   9.578(3)
_cell_length_b                   11.517(4)
_cell_length_c                   13.244(5)
_cell_angle_alpha                76.705(12)
_cell_angle_beta                 88.391(13)
_cell_angle_gamma                69.043(11)
_cell_volume                     1325.38
loop_
_atom_site_label
_atom_site_type_symbol
_atom_site_fract_x
_atom_site_fract_y
_atom_site_fract_z
Zn1 Zn 1.28966(16) -0.25167(13) 0.80176(13)
Zn2 Zn 1.81430(15) -0.32249(13) 0.96733(13)
Zn3 Zn 1.50665(16) 0.01797(13) 0.82485(12)
P1 P 1.1018(4) -0.4282(3) 0.8399(3)
H1 H 1.0514 -0.4994 0.7872
P2 P 1.6047(4) -0.2422(3) 0.7611(3)
H2 H 1.7127 -0.2848 0.6841
P3 P 1.2622(4) 0.0444(3) 0.9866(3)
H3 H 1.1695 -0.0120 0.9642
O1 O 1.1901(12) -0.5415(10) 0.9217(10)
O2 O 0.9827(10) -0.3286(8) 0.8816(8)
O3 O 1.2043(9) -0.3696(8) 0.7749(7)
O4 O 1.4754(9) -0.2779(8) 0.7313(7)
O5 O 1.5681(12) -0.1002(8) 0.7361(8)
O6 O 1.6574(11) -0.3047(10) 0.8684(9)
O7 O 1.3444(10) -0.0093(9) 0.9001(8)
O8 O 1.3373(11) -0.0221(9) 1.0913(8)
O9 O 1.2190(12) 0.1870(9) 0.9634(9)
N1 N 1.1346(11) -0.0718(8) 0.7358(9)
N2 N 0.6960(11) 0.2853(9) 1.0399(9)
N3 N 0.5517(12) 0.8198(9) 0.2929(9)
N4 N 0.8020(13) 0.3840(9) 0.5466(9)
N5 N 0.6393(11) 0.4944(9) 0.6472(8)
H4 H 0.5429 0.5481 0.6564
C1 C 1.1727(15) 0.0227(13) 0.6772(12)
H5 H 1.2711 0.0028 0.6581
C2 C 1.0775(15) 0.1449(11) 0.6442(12)
H6 H 1.1094 0.2058 0.6017
C3 C 0.9967(15) -0.0402(12) 0.7618(11)
H7 H 0.9676 -0.1046 0.8015
C4 C 0.8907(13) 0.0807(11) 0.7353(11)
H8 H 0.7941 0.0966 0.7576
C5 C 0.9288(14) 0.1788(11) 0.6752(11)
C6 C 0.8274(13) 0.2466(11) 0.9931(11)
H9 H 0.9148 0.1989 1.0348
C7 C 0.8370(14) 0.2744(11) 0.8880(11)
H10 H 0.9299 0.2450 0.8603
C8 C 0.5742(14) 0.3542(11) 0.9737(11)
H11 H 0.4821 0.3824 1.0028
C9 C 0.5749(14) 0.3857(11) 0.8683(11)
H12 H 0.4863 0.4332 0.8279
C10 C 0.7111(14) 0.3455(11) 0.8215(10)
C11 C 0.4909(16) 0.8250(12) 0.3851(13)
H13 H 0.4196 0.9023 0.3917
C12 C 0.5272(17) 0.7241(14) 0.4694(11)
H14 H 0.4792 0.7322 0.5309
C13 C 0.6566(16) 0.7084(13) 0.2834(11)
H15 H 0.7022 0.7023 0.2209
C14 C 0.6972(17) 0.6004(12) 0.3689(11)
H16 H 0.7659 0.5225 0.3610
C15 C 0.6368(15) 0.6093(10) 0.4622(10)
C16 C 0.8210(14) 0.3118(11) 0.6465(11)
C17 C 0.7228(12) 0.3759(10) 0.7106(11)
C18 C 0.6905(17) 0.4942(12) 0.5493(11)
Zn1A Zn 0.71034(16) 0.25167(13) 1.19824(13)
Zn2_2 Zn 0.81430(15) -0.32249(13) 0.96733(13)
Zn2A Zn 1.18570(15) -0.67751(13) 1.03267(13)
Zn2A_2 Zn 1.18570(15) 0.32249(13) 1.03267(13)
Zn3A Zn 0.49335(16) 0.98203(13) 0.17515(12)
Zn3A_2 Zn 1.49335(16) -0.01797(13) 1.17515(12)
O1A O 1.8099(12) -0.4585(10) 1.0783(10)
O2_2 O 1.9827(10) -0.3286(8) 0.8816(8)
O8A O 1.6627(11) 0.0221(9) 0.9087(8)
O9A O 1.7810(12) -0.1870(9) 1.0366(9)
N2A N 1.3040(11) -0.2853(9) 0.9601(9)
N3A N 1.4483(12) 0.1802(9) 0.7071(9)
loop_
_geom_bond_atom_site_label_1
_geom_bond_atom_site_label_2
_geom_bond_site_symmetry_1
_geom_bond_site_symmetry_2
Zn1 O3 1_555 1_555
Zn2 O6 1_555 1_555
Zn3 O5 1_555 1_555
P1 H1 1_555 1_555
P2 H2 1_555 1_555
P3 H3 1_555 1_555
O1 P1 1_555 1_555
O2 P1 1_555 1_555
O3 P1 1_555 1_555
O4 Zn1 1_555 1_555
O5 P2 1_555 1_555
O6 P2 1_555 1_555
O7 Zn3 1_555 1_555
O8 P3 1_555 1_555
O9 P3 1_555 1_555
N1 Zn1 1_555 1_555
N2 C6 1_555 1_555
N3 C11 1_555 1_555
N4 C16 1_555 1_555
N5 H4 1_555 1_555
C1 N1 1_555 1_555
H5 C1 1_555 1_555
C2 C1 1_555 1_555
H6 C2 1_555 1_555
C3 N1 1_555 1_555
H7 C3 1_555 1_555
C4 C3 1_555 1_555
H8 C4 1_555 1_555
C5 C2 1_555 1_555
C6 H9 1_555 1_555
C7 C6 1_555 1_555
H10 C7 1_555 1_555
C8 N2 1_555 1_555
H11 C8 1_555 1_555
C9 C8 1_555 1_555
H12 C9 1_555 1_555
C10 C7 1_555 1_555
C11 H13 1_555 1_555
C12 C11 1_555 1_555
H14 C12 1_555 1_555
C13 N3 1_555 1_555
H15 C13 1_555 1_555
C14 C13 1_555 1_555
H16 C14 1_555 1_555
C15 C12 1_555 1_555
C16 C5 1_555 1_555
C17 N5 1_555 1_555
C18 N4 1_555 1_555
Zn1A N2 1_555 1_555
Zn2_2 O2 1_555 1_555
Zn2A O1 1_555 1_555
Zn2A_2 O9 1_555 1_555
Zn3A N3 1_555 1_555
Zn3A_2 O8 1_555 1_555
O1A Zn2 1_555 1_555
O2_2 Zn2 1_555 1_555
O8A Zn3 1_555 1_555
O9A Zn2 1_555 1_555
N2A Zn1 1_555 1_555
N3A Zn3 1_555 1_555
P2 O4 1_555 1_555
P3 O7 1_555 1_555
N5 C18 1_555 1_555
C4 C5 1_555 1_555
C9 C10 1_555 1_555
C10 C17 1_555 1_555
C14 C15 1_555 1_555
C15 C18 1_555 1_555
C16 C17 1_555 1_555

#END
