
#######################################################################
#
#                 Cambridge Crystallographic Data Centre
#                                CCDC 
#
#######################################################################
#
# If this CIF has been generated from an entry in the Cambridge 
# Structural Database, then it will include bibliographic, chemical, 
# crystal, experimental, refinement or atomic coordinate data resulting 
# from the CCDC's data processing and validation procedures.
#
#######################################################################

data_XULSII
_symmetry_cell_setting           monoclinic
_symmetry_space_group_name_H-M   'P 21/c'
_symmetry_Int_Tables_number      14
_space_group_name_Hall           '-P 2ybc'
loop_
_symmetry_equiv_pos_site_id
_symmetry_equiv_pos_as_xyz
1 x,y,z
2 -x,1/2+y,1/2-z
3 -x,-y,-z
4 x,1/2-y,1/2+z
_cell_length_a                   22.0438(4)
_cell_length_b                   3.83430(10)
_cell_length_c                   15.0141(3)
_cell_angle_alpha                90
_cell_angle_beta                 92.4270(10)
_cell_angle_gamma                90
_cell_volume                     1267.89
loop_
_atom_site_label
_atom_site_type_symbol
_atom_site_fract_x
_atom_site_fract_y
_atom_site_fract_z
Cl1 Cl 0.49516(2) 0.10717(11) 0.35718(3)
N1 N 0.86367(6) 1.0318(4) 0.43087(8)
N2 N 0.91834(6) 1.1473(4) 0.46047(8)
N3 N 0.92611(6) 1.0749(4) 0.54572(8)
N4 N 0.87680(6) 0.9091(4) 0.57424(8)
N5 N 0.74923(7) 0.5087(5) 0.65661(10)
C1 C 0.83943(7) 0.8871(4) 0.50194(9)
C2 C 0.77918(7) 0.7259(4) 0.50140(9)
C3 C 0.76111(7) 0.6066(5) 0.58710(10)
C4 C 0.74473(7) 0.6828(4) 0.42591(10)
H1 H 0.7629 0.7579 0.3729
C5 C 0.68365(7) 0.5378(4) 0.41324(10)
C6 C 0.66615(7) 0.4117(4) 0.32820(10)
H2 H 0.6941 0.4214 0.2818
C7 C 0.60884(7) 0.2734(4) 0.31088(10)
H3 H 0.5977 0.1835 0.2535
C8 C 0.56795(7) 0.2681(4) 0.37836(11)
C9 C 0.58373(7) 0.3933(5) 0.46302(10)
H4 H 0.5553 0.3870 0.5088
C10 C 0.64131(7) 0.5273(4) 0.47993(10)
H5 H 0.6523 0.6135 0.5377
Na1 Na 0.92711(3) 0.78850(17) 0.72191(4)
O1 O 0.99226(5) 0.9704(3) 0.84267(6)
H6 H 1.0146 0.8147 0.8659
H7 H 0.9717 1.0768 0.8799
O2 O 0.86926(5) 0.2859(3) 0.75583(7)
H8 H 0.8664 0.3340 0.8101
H9 H 0.8326 0.2395 0.7434
Na1_2 Na 0.92711(3) -0.21150(17) 0.72191(4)
Na1A Na 1.07289(3) 1.28850(17) 0.77809(4)
O1A O 1.00774(5) 0.4704(3) 0.65733(6)
O2_2 O 0.86926(5) 1.2859(3) 0.75583(7)
loop_
_geom_bond_atom_site_label_1
_geom_bond_atom_site_label_2
_geom_bond_site_symmetry_1
_geom_bond_site_symmetry_2
Cl1 C8 1_555 1_555
N1 N2 1_555 1_555
N2 N3 1_555 1_555
N3 N4 1_555 1_555
N4 C1 1_555 1_555
N5 C3 1_555 1_555
C1 N1 1_555 1_555
C2 C1 1_555 1_555
C3 C2 1_555 1_555
C4 C2 1_555 1_555
H1 C4 1_555 1_555
C5 C4 1_555 1_555
C6 C5 1_555 1_555
H2 C6 1_555 1_555
C7 C6 1_555 1_555
H3 C7 1_555 1_555
C8 C7 1_555 1_555
C9 C8 1_555 1_555
H4 C9 1_555 1_555
C10 C5 1_555 1_555
H5 C10 1_555 1_555
Na1 N4 1_555 1_555
O1 Na1 1_555 1_555
H6 O1 1_555 1_555
H7 O1 1_555 1_555
O2 Na1 1_555 1_555
H8 O2 1_555 1_555
H9 O2 1_555 1_555
Na1_2 O2 1_555 1_555
Na1A O1 1_555 1_555
O1A Na1 1_555 1_555
O2_2 Na1 1_555 1_555
C9 C10 1_555 1_555

#END
