
#######################################################################
#
#                 Cambridge Crystallographic Data Centre
#                                CCDC 
#
#######################################################################
#
# If this CIF has been generated from an entry in the Cambridge 
# Structural Database, then it will include bibliographic, chemical, 
# crystal, experimental, refinement or atomic coordinate data resulting 
# from the CCDC's data processing and validation procedures.
#
#######################################################################

data_XULSAA
_symmetry_cell_setting           monoclinic
_symmetry_space_group_name_H-M   'P 2/c'
_symmetry_Int_Tables_number      13
_space_group_name_Hall           '-P 2yc'
loop_
_symmetry_equiv_pos_site_id
_symmetry_equiv_pos_as_xyz
1 x,y,z
2 -x,y,1/2-z
3 -x,-y,-z
4 x,-y,1/2+z
_cell_length_a                   10.366(3)
_cell_length_b                   8.774(3)
_cell_length_c                   27.071(7)
_cell_angle_alpha                90
_cell_angle_beta                 101.480(10)
_cell_angle_gamma                90
_cell_volume                     2412.89
loop_
_atom_site_label
_atom_site_type_symbol
_atom_site_fract_x
_atom_site_fract_y
_atom_site_fract_z
Cd1 Cd 0.13470(2) -0.64177(2) -0.120948(8)
Cd2 Cd 0.0000 -0.63992(3) -0.2500
O1 O -0.0825(3) -0.7998(4) -0.20075(13)
O2 O 0.0280(3) -0.8637(3) -0.12597(11)
O3 O -0.0232(3) -1.4593(3) -0.19379(11)
O4 O -0.0374(3) -1.4894(3) -0.11496(10)
O5 O 0.2014(2) -0.6516(3) -0.19613(9)
O6 O 0.3426(2) -0.7911(3) -0.14465(9)
O7 O 0.1793(3) -0.7005(3) -0.03492(9)
H1 H 0.2403 -0.7263 -0.0113
N1 N 0.2861(3) -0.4416(3) -0.10222(10)
N2 N 0.6552(3) -0.0846(3) -0.01933(9)
N3 N 0.5460(3) 0.0642(3) -0.08077(10)
H2 H 0.4870 0.0927 -0.1061
C1 C 0.3996(4) -0.4602(4) -0.07008(14)
H3 H 0.4206 -0.5572 -0.0571
C2 C 0.4881(4) -0.3445(4) -0.05478(15)
H4 H 0.5660 -0.3638 -0.0319
C3 C 0.4601(3) -0.1983(4) -0.07386(11)
C4 C 0.3441(4) -0.1799(4) -0.10875(14)
H5 H 0.3219 -0.0850 -0.1233
C5 C 0.2612(4) -0.3032(4) -0.12193(14)
H6 H 0.1842 -0.2886 -0.1458
C6 C 0.5528(3) -0.0740(3) -0.05707(11)
C7 C 0.7182(3) 0.0558(4) -0.01779(11)
C8 C 0.8309(4) 0.1081(4) 0.01465(12)
H7 H 0.8763 0.0470 0.0404
C9 C 0.8729(4) 0.2547(4) 0.00711(14)
H8 H 0.9467 0.2932 0.0287
C10 C 0.8070(4) 0.3458(4) -0.03219(15)
H9 H 0.8392 0.4428 -0.0366
C11 C 0.6947(4) 0.2953(4) -0.06482(14)
H10 H 0.6506 0.3560 -0.0910
C12 C 0.6514(3) 0.1492(3) -0.05641(12)
C13 C -0.1496(3) -1.0227(3) -0.16560(12)
H11 H -0.2398 -0.9834 -0.1703
C14 C -0.1261(3) -1.1182(3) -0.11790(12)
H12 H -0.1354 -1.0553 -0.0898
H13 H -0.0376 -1.1567 -0.1118
C15 C -0.2225(3) -1.2510(4) -0.12229(13)
H14 H -0.3105 -1.2120 -0.1260
H15 H -0.2039 -1.3101 -0.0919
C16 C -0.2128(3) -1.3525(3) -0.16716(13)
H16 H -0.2842 -1.4274 -0.1705
C17 C -0.2353(4) -1.2593(4) -0.21560(14)
H17 H -0.3246 -1.2236 -0.2233
H18 H -0.2217 -1.3233 -0.2429
C18 C -0.1429(4) -1.1228(4) -0.21160(13)
H19 H -0.0542 -1.1589 -0.2085
H20 H -0.1640 -1.0624 -0.2417
C19 C -0.0595(3) -0.8861(4) -0.16403(14)
C20 C -0.0837(3) -1.4405(3) -0.15805(13)
C21 C 0.3046(3) -0.7338(4) -0.18682(12)
C22 C 0.3805(3) -0.7461(4) -0.22900(12)
H21 H 0.3158 -0.7480 -0.2608
C23 C 0.4634(4) -0.8859(4) -0.22785(16)
H22 H 0.5292 -0.8853 -0.1974
H23 H 0.4088 -0.9746 -0.2286
C24 C 0.4610(4) -0.6021(4) -0.22902(17)
H24 H 0.5196 -0.5936 -0.1969
H25 H 0.4033 -0.5154 -0.2340
H26 H 0.107(5) -0.752(10) -0.040(3)
O5A O 0.7986(2) -0.6516(3) -0.30387(9)
O6A O 0.6574(2) -0.7911(3) -0.35535(9)
C21A C 0.6954(3) -0.7338(4) -0.31318(12)
C22A C 0.6195(3) -0.7461(4) -0.27100(12)
H21A H 0.6842 -0.7480 -0.2392
C23A C 0.5366(4) -0.8859(4) -0.27215(16)
H22A H 0.4708 -0.8853 -0.3026
H23A H 0.5912 -0.9746 -0.2714
C24A C 0.5390(4) -0.6021(4) -0.27098(17)
H24A H 0.4804 -0.5936 -0.3031
H25A H 0.5967 -0.5154 -0.2660
Cd1A Cd -0.13470(2) -0.64177(2) -0.379052(8)
O1A O 0.0825(3) -0.7998(4) -0.29925(13)
O2A O -0.0280(3) -0.8637(3) -0.37403(11)
O3A O 0.0232(3) -1.4593(3) -0.30621(11)
O4A O 0.0374(3) -1.4894(3) -0.38504(10)
O7A O -0.1793(3) -0.7005(3) -0.46508(9)
H1A H -0.2403 -0.7263 -0.4887
N1A N -0.2861(3) -0.4416(3) -0.39778(10)
N2A N -0.6552(3) -0.0846(3) -0.48067(9)
N3A N -0.5460(3) 0.0642(3) -0.41923(10)
H2A H -0.4870 0.0927 -0.3939
C1A C -0.3996(4) -0.4602(4) -0.42992(14)
H3A H -0.4206 -0.5572 -0.4429
C2A C -0.4881(4) -0.3445(4) -0.44522(15)
H4A H -0.5660 -0.3638 -0.4681
C3A C -0.4601(3) -0.1983(4) -0.42614(11)
C4A C -0.3441(4) -0.1799(4) -0.39125(14)
H5A H -0.3219 -0.0850 -0.3767
C5A C -0.2612(4) -0.3032(4) -0.37807(14)
H6A H -0.1842 -0.2886 -0.3542
C6A C -0.5528(3) -0.0740(3) -0.44293(11)
C7A C -0.7182(3) 0.0558(4) -0.48221(11)
C8A C -0.8309(4) 0.1081(4) -0.51465(12)
H7A H -0.8763 0.0470 -0.5404
C9A C -0.8729(4) 0.2547(4) -0.50711(14)
H8A H -0.9467 0.2932 -0.5287
C10A C -0.8070(4) 0.3458(4) -0.46781(15)
H9A H -0.8392 0.4428 -0.4634
C11A C -0.6947(4) 0.2953(4) -0.43518(14)
H10A H -0.6506 0.3560 -0.4090
C12A C -0.6514(3) 0.1492(3) -0.44359(12)
C13A C 0.1496(3) -1.0227(3) -0.33440(12)
H11A H 0.2398 -0.9834 -0.3297
C14A C 0.1261(3) -1.1182(3) -0.38210(12)
H12A H 0.1354 -1.0553 -0.4102
H13A H 0.0376 -1.1567 -0.3882
C15A C 0.2225(3) -1.2510(4) -0.37771(13)
H14A H 0.3105 -1.2120 -0.3740
H15A H 0.2039 -1.3101 -0.4081
C16A C 0.2128(3) -1.3525(3) -0.33284(13)
H16A H 0.2842 -1.4274 -0.3295
C17A C 0.2353(4) -1.2593(4) -0.28440(14)
H17A H 0.3246 -1.2236 -0.2767
H18A H 0.2217 -1.3233 -0.2571
C18A C 0.1429(4) -1.1228(4) -0.28840(13)
H19A H 0.0542 -1.1589 -0.2915
H20A H 0.1640 -1.0624 -0.2583
C19A C 0.0595(3) -0.8861(4) -0.33597(14)
C20A C 0.0837(3) -1.4405(3) -0.34195(13)
H26A H -0.107(5) -0.752(10) -0.460(3)
Cd1_2 Cd 0.13470(2) -1.64177(2) -0.120948(8)
Cd1A_2 Cd -0.13470(2) -1.64177(2) -0.379052(8)
Cd1A_3 Cd 0.86530(2) -0.64177(2) -0.379052(8)
Cd2_2 Cd 0.0000 -1.63992(3) -0.2500
Cd2_3 Cd 1.0000 -0.63992(3) -0.2500
O3_2 O -0.0232(3) -0.4593(3) -0.19379(11)
O3A_2 O 0.0232(3) -0.4593(3) -0.30621(11)
O4_2 O -0.0374(3) -0.4894(3) -0.11496(10)
O4A_2 O 0.0374(3) -0.4894(3) -0.38504(10)
O5A_2 O -0.2014(2) -0.6516(3) -0.30387(9)
O6A_2 O -0.3426(2) -0.7911(3) -0.35535(9)
loop_
_geom_bond_atom_site_label_1
_geom_bond_atom_site_label_2
_geom_bond_site_symmetry_1
_geom_bond_site_symmetry_2
Cd1 O2 1_555 1_555
Cd2 O1 1_555 1_555
O1 C19 1_555 1_555
O2 C19 1_555 1_555
O3 C20 1_555 1_555
O4 C20 1_555 1_555
O5 Cd1 1_555 1_555
O6 Cd1 1_555 1_555
O7 Cd1 1_555 1_555
H1 O7 1_555 1_555
N1 Cd1 1_555 1_555
N2 C6 1_555 1_555
N3 H2 1_555 1_555
C1 N1 1_555 1_555
H3 C1 1_555 1_555
C2 C1 1_555 1_555
H4 C2 1_555 1_555
C3 C2 1_555 1_555
C4 C3 1_555 1_555
H5 C4 1_555 1_555
C5 N1 1_555 1_555
H6 C5 1_555 1_555
C6 N3 1_555 1_555
C7 N2 1_555 1_555
C8 C7 1_555 1_555
H7 C8 1_555 1_555
C9 C8 1_555 1_555
H8 C9 1_555 1_555
C10 C9 1_555 1_555
H9 C10 1_555 1_555
C11 C10 1_555 1_555
H10 C11 1_555 1_555
C12 N3 1_555 1_555
C13 H11 1_555 1_555
C14 C13 1_555 1_555
H12 C14 1_555 1_555
H13 C14 1_555 1_555
C15 C14 1_555 1_555
H14 C15 1_555 1_555
H15 C15 1_555 1_555
C16 C15 1_555 1_555
H16 C16 1_555 1_555
C17 C16 1_555 1_555
H17 C17 1_555 1_555
H18 C17 1_555 1_555
C18 C13 1_555 1_555
H19 C18 1_555 1_555
H20 C18 1_555 1_555
C19 C13 1_555 1_555
C20 C16 1_555 1_555
C21 O5 1_555 1_555
C22 C21 1_555 1_555
H21 C22 1_555 1_555
C23 C22 1_555 1_555
H22 C23 1_555 1_555
H23 C23 1_555 1_555
C24 C22 1_555 1_555
H24 C24 1_555 1_555
H25 C24 1_555 1_555
H26 O7 1_555 1_555
O5A C21A 1_555 1_555
O6A C21A 1_555 1_555
C21A C22A 1_555 1_555
C22A H21A 1_555 1_555
C23A C23 1_555 1_555
H22A C23A 1_555 1_555
H23A C23A 1_555 1_555
C24A C24 1_555 1_555
H24A C24A 1_555 1_555
H25A C24A 1_555 1_555
Cd1A O2A 1_555 1_555
O1A Cd2 1_555 1_555
O2A C19A 1_555 1_555
O3A C20A 1_555 1_555
O4A C20A 1_555 1_555
O7A Cd1A 1_555 1_555
H1A O7A 1_555 1_555
N1A Cd1A 1_555 1_555
N2A C6A 1_555 1_555
N3A H2A 1_555 1_555
C1A N1A 1_555 1_555
H3A C1A 1_555 1_555
C2A C1A 1_555 1_555
H4A C2A 1_555 1_555
C3A C2A 1_555 1_555
C4A C3A 1_555 1_555
H5A C4A 1_555 1_555
C5A N1A 1_555 1_555
H6A C5A 1_555 1_555
C6A N3A 1_555 1_555
C7A N2A 1_555 1_555
C8A C7A 1_555 1_555
H7A C8A 1_555 1_555
C9A C8A 1_555 1_555
H8A C9A 1_555 1_555
C10A C9A 1_555 1_555
H9A C10A 1_555 1_555
C11A C10A 1_555 1_555
H10A C11A 1_555 1_555
C12A N3A 1_555 1_555
C13A H11A 1_555 1_555
C14A C13A 1_555 1_555
H12A C14A 1_555 1_555
H13A C14A 1_555 1_555
C15A C14A 1_555 1_555
H14A C15A 1_555 1_555
H15A C15A 1_555 1_555
C16A C15A 1_555 1_555
H16A C16A 1_555 1_555
C17A C16A 1_555 1_555
H17A C17A 1_555 1_555
H18A C17A 1_555 1_555
C18A C13A 1_555 1_555
H19A C18A 1_555 1_555
H20A C18A 1_555 1_555
C19A O1A 1_555 1_555
C20A C16A 1_555 1_555
H26A O7A 1_555 1_555
Cd1_2 O3 1_555 1_555
Cd1A_2 O3A 1_555 1_555
Cd1A_3 O5A 1_555 1_555
Cd2_2 O3 1_555 1_555
Cd2_3 O5A 1_555 1_555
O3_2 Cd1 1_555 1_555
O3A_2 Cd2 1_555 1_555
O4_2 Cd1 1_555 1_555
O4A_2 Cd1A 1_555 1_555
O5A_2 Cd2 1_555 1_555
O6A_2 Cd1A 1_555 1_555
Cd2 O5 1_555 1_555
Cd2 O3_2 1_555 1_555
O4 Cd1_2 1_555 1_555
O6 C21 1_555 1_555
C3 C6 1_555 1_555
C4 C5 1_555 1_555
C7 C12 1_555 1_555
C11 C12 1_555 1_555
C17 C18 1_555 1_555
O6A Cd1A_3 1_555 1_555
C22A C23A 1_555 1_555
C22A C24A 1_555 1_555
Cd1A O3A_2 1_555 1_555
Cd1A O5A_2 1_555 1_555
O3A Cd2_2 1_555 1_555
O4A Cd1A_2 1_555 1_555
C3A C6A 1_555 1_555
C4A C5A 1_555 1_555
C7A C12A 1_555 1_555
C11A C12A 1_555 1_555
C13A C19A 1_555 1_555
C17A C18A 1_555 1_555

#END
