
#######################################################################
#
#                 Cambridge Crystallographic Data Centre
#                                CCDC 
#
#######################################################################
#
# If this CIF has been generated from an entry in the Cambridge 
# Structural Database, then it will include bibliographic, chemical, 
# crystal, experimental, refinement or atomic coordinate data resulting 
# from the CCDC's data processing and validation procedures.
#
#######################################################################

data_XULSED
_symmetry_cell_setting           monoclinic
_symmetry_space_group_name_H-M   'C 2/c'
_symmetry_Int_Tables_number      15
_space_group_name_Hall           '-C 2yn'
loop_
_symmetry_equiv_pos_site_id
_symmetry_equiv_pos_as_xyz
1 x,y,z
2 -x,y,1/2-z
3 1/2+x,1/2+y,z
4 1/2-x,1/2+y,1/2-z
5 -x,-y,-z
6 x,-y,1/2+z
7 1/2-x,1/2-y,-z
8 1/2+x,1/2-y,1/2+z
_cell_length_a                   16.1570(18)
_cell_length_b                   11.5994(13)
_cell_length_c                   19.921(2)
_cell_angle_alpha                90
_cell_angle_beta                 102.762(2)
_cell_angle_gamma                90
_cell_volume                     3641.19
loop_
_atom_site_label
_atom_site_type_symbol
_atom_site_fract_x
_atom_site_fract_y
_atom_site_fract_z
Cu1 Cu 0.16904(3) 0.24772(5) 0.06190(2)
O1 O 0.07451(16) 0.1558(2) 0.08498(13)
N1 N 0.25558(19) 0.1765(3) 0.14027(16)
N2 N 0.5844(2) 0.1780(3) 0.48322(16)
N3 N 0.4168(2) 0.0307(3) 0.31368(18)
H1 H 0.419(3) -0.0443(17) 0.315(2)
O2 O 0.07046(17) 0.2959(2) 0.15999(15)
O3 O -0.17737(18) -0.0985(2) 0.00579(15)
C1 C 0.3658(2) 0.0810(3) 0.25680(19)
C2 C 0.4705(2) 0.0841(3) 0.36891(19)
C3 C 0.3026(2) 0.0151(3) 0.2141(2)
H2 H 0.2961 -0.0624 0.2238
O4 O -0.26773(17) -0.1086(2) 0.07592(14)
C4 C 0.5371(3) 0.0197(4) 0.4074(2)
H3 H 0.5448 -0.0565 0.3956
C5 C -0.1652(2) 0.0363(3) 0.0971(2)
C6 C -0.0862(2) 0.0770(3) 0.09066(19)
H4 H -0.0594 0.0435 0.0588
C7 C 0.3735(3) 0.1948(4) 0.2370(2)
H5 H 0.4162 0.2415 0.2619
C8 C 0.2500(2) 0.0652(3) 0.1577(2)
H6 H 0.2085 0.0197 0.1303
C9 C 0.4615(3) 0.1965(4) 0.3909(2)
H7 H 0.4172 0.2426 0.3677
C10 C -0.0472(2) 0.1676(3) 0.13186(19)
C11 C -0.2059(2) -0.0651(3) 0.0546(2)
C12 C 0.0392(2) 0.2110(3) 0.12608(19)
C13 C 0.5916(3) 0.0687(4) 0.4629(2)
H8 H 0.6357 0.0240 0.4877
C14 C 0.3176(2) 0.2377(4) 0.1805(2)
H9 H 0.3232 0.3147 0.1693
C15 C 0.5189(2) 0.2388(4) 0.4473(2)
H10 H 0.5118 0.3140 0.4612
C16 C -0.0890(3) 0.2182(4) 0.1779(2)
H11 H -0.0637 0.2796 0.2049
C17 C -0.2055(3) 0.0874(4) 0.1443(2)
H12 H -0.2580 0.0602 0.1491
C18 C -0.1673(3) 0.1796(4) 0.1847(2)
H13 H -0.1945 0.2145 0.2159
Cu1D Cu -0.16904(3) -0.24772(5) -0.06190(2)
Cu1G Cu 0.66904(3) 0.25228(5) 0.56190(2)
Cu1B Cu -0.33096(3) -0.25228(5) 0.06190(2)
Cu1G_2 Cu -0.33096(3) 0.25228(5) -0.43810(2)
Cu1F Cu 0.33096(3) 0.25228(5) -0.06190(2)
O1D O -0.07451(16) -0.1558(2) -0.08498(13)
N1G N -0.24442(19) 0.3235(3) -0.35973(16)
N1D N -0.25558(19) -0.1765(3) -0.14027(16)
N2G N 0.0844(2) 0.3220(3) -0.01678(16)
N2C N -0.0844(2) -0.3220(3) 0.01678(16)
N3G N -0.0832(2) 0.4693(3) -0.18632(18)
H1G H -0.081(3) 0.5443(17) -0.185(2)
O2D O -0.07046(17) -0.2959(2) -0.15999(15)
O3D O 0.17737(18) 0.0985(2) -0.00579(15)
C1G C -0.1342(2) 0.4190(3) -0.24320(19)
C2G C -0.0295(2) 0.4159(3) -0.13109(19)
C3G C -0.1974(2) 0.4849(3) -0.2859(2)
H2G H -0.2039 0.5624 -0.2762
O4D O 0.26773(17) 0.1086(2) -0.07592(14)
O4B O 0.23227(17) 0.3914(2) 0.07592(14)
O4F O -0.23227(17) -0.3914(2) -0.07592(14)
C4G C 0.0371(3) 0.4803(4) -0.0926(2)
H3G H 0.0448 0.5565 -0.1044
C5D C 0.1652(2) -0.0363(3) -0.0971(2)
C6D C 0.0862(2) -0.0770(3) -0.09066(19)
H4D H 0.0594 -0.0435 -0.0588
C7G C -0.1265(3) 0.3052(4) -0.2630(2)
H5G H -0.0838 0.2585 -0.2381
C8G C -0.2500(2) 0.4348(3) -0.3423(2)
H6G H -0.2915 0.4803 -0.3697
C9G C -0.0385(3) 0.3035(4) -0.1091(2)
H7G H -0.0828 0.2574 -0.1323
C10D C 0.0472(2) -0.1676(3) -0.13186(19)
C11D C 0.2059(2) 0.0651(3) -0.0546(2)
C12D C -0.0392(2) -0.2110(3) -0.12608(19)
C13G C 0.0916(3) 0.4313(4) -0.0371(2)
H8G H 0.1357 0.4760 -0.0123
C14G C -0.1824(2) 0.2623(4) -0.3195(2)
H9G H -0.1768 0.1853 -0.3307
C15G C 0.0189(2) 0.2612(4) -0.0527(2)
H10G H 0.0118 0.1860 -0.0388
C16D C 0.0890(3) -0.2182(4) -0.1779(2)
H11D H 0.0637 -0.2796 -0.2049
C17D C 0.2055(3) -0.0874(4) -0.1443(2)
H12D H 0.2580 -0.0602 -0.1491
C18D C 0.1673(3) -0.1796(4) -0.1847(2)
H13D H 0.1945 -0.2145 -0.2159
O5 O 0.5000 0.4384(11) 0.2500
loop_
_geom_bond_atom_site_label_1
_geom_bond_atom_site_label_2
_geom_bond_site_symmetry_1
_geom_bond_site_symmetry_2
Cu1 O1 1_555 1_555
O1 C12 1_555 1_555
N1 Cu1 1_555 1_555
N2 C13 1_555 1_555
N3 H1 1_555 1_555
O2 C12 1_555 1_555
O3 C11 1_555 1_555
C1 N3 1_555 1_555
C2 N3 1_555 1_555
C3 C1 1_555 1_555
H2 C3 1_555 1_555
O4 C11 1_555 1_555
C4 C2 1_555 1_555
H3 C4 1_555 1_555
C5 C6 1_555 1_555
C6 H4 1_555 1_555
C7 C1 1_555 1_555
H5 C7 1_555 1_555
C8 N1 1_555 1_555
H6 C8 1_555 1_555
C9 C2 1_555 1_555
H7 C9 1_555 1_555
C10 C6 1_555 1_555
C11 C5 1_555 1_555
C12 C10 1_555 1_555
C13 C4 1_555 1_555
H8 C13 1_555 1_555
C14 N1 1_555 1_555
H9 C14 1_555 1_555
C15 N2 1_555 1_555
H10 C15 1_555 1_555
C16 C10 1_555 1_555
H11 C16 1_555 1_555
C17 C5 1_555 1_555
H12 C17 1_555 1_555
C18 C16 1_555 1_555
H13 C18 1_555 1_555
Cu1D O3 1_555 1_555
Cu1G N2 1_555 1_555
Cu1B O4 1_555 1_555
Cu1G_2 N1G 1_555 1_555
Cu1F O4D 1_555 1_555
O1D Cu1D 1_555 1_555
N1G C8G 1_555 1_555
N1D Cu1D 1_555 1_555
N2G Cu1 1_555 1_555
N2C Cu1D 1_555 1_555
N3G H1G 1_555 1_555
O2D C12D 1_555 1_555
O3D Cu1 1_555 1_555
C1G N3G 1_555 1_555
C2G N3G 1_555 1_555
C3G C1G 1_555 1_555
H2G C3G 1_555 1_555
O4D C11D 1_555 1_555
O4B Cu1 1_555 1_555
O4F Cu1D 1_555 1_555
C4G C2G 1_555 1_555
H3G C4G 1_555 1_555
C5D C6D 1_555 1_555
C6D H4D 1_555 1_555
C7G C1G 1_555 1_555
H5G C7G 1_555 1_555
C8G C3G 1_555 1_555
H6G C8G 1_555 1_555
C9G C2G 1_555 1_555
H7G C9G 1_555 1_555
C10D C6D 1_555 1_555
C11D O3D 1_555 1_555
C12D O1D 1_555 1_555
C13G N2G 1_555 1_555
H8G C13G 1_555 1_555
C14G N1G 1_555 1_555
H9G C14G 1_555 1_555
C15G N2G 1_555 1_555
H10G C15G 1_555 1_555
C16D C10D 1_555 1_555
H11D C16D 1_555 1_555
C17D C5D 1_555 1_555
H12D C17D 1_555 1_555
C18D C16D 1_555 1_555
H13D C18D 1_555 1_555
C3 C8 1_555 1_555
C7 C14 1_555 1_555
C9 C15 1_555 1_555
C17 C18 1_555 1_555
C4G C13G 1_555 1_555
C5D C11D 1_555 1_555
C7G C14G 1_555 1_555
C9G C15G 1_555 1_555
C10D C12D 1_555 1_555
C17D C18D 1_555 1_555

#END
