
#######################################################################
#
#                 Cambridge Crystallographic Data Centre
#                                CCDC 
#
#######################################################################
#
# If this CIF has been generated from an entry in the Cambridge 
# Structural Database, then it will include bibliographic, chemical, 
# crystal, experimental, refinement or atomic coordinate data resulting 
# from the CCDC's data processing and validation procedures.
#
#######################################################################

data_XULTOO
_symmetry_cell_setting           monoclinic
_symmetry_space_group_name_H-M   'C 2/c'
_symmetry_Int_Tables_number      15
_space_group_name_Hall           '-C 2yn'
loop_
_symmetry_equiv_pos_site_id
_symmetry_equiv_pos_as_xyz
1 x,y,z
2 -x,y,1/2-z
3 1/2+x,1/2+y,z
4 1/2-x,1/2+y,1/2-z
5 -x,-y,-z
6 x,-y,1/2+z
7 1/2-x,1/2-y,-z
8 1/2+x,1/2-y,1/2+z
_cell_length_a                   37.134(7)
_cell_length_b                   7.192(3)
_cell_length_c                   16.303(3)
_cell_angle_alpha                90
_cell_angle_beta                 93.99(2)
_cell_angle_gamma                90
_cell_volume                     4343.45
loop_
_atom_site_label
_atom_site_type_symbol
_atom_site_fract_x
_atom_site_fract_y
_atom_site_fract_z
Zn1 Zn 0.0000 0.33696(7) 0.2500
O1 O 0.03579(5) 0.5009(3) 0.21083(14)
C1 C 0.06105(8) 0.4211(5) 0.1723(2)
O2 O 0.06141(6) 0.2549(3) 0.15566(17)
C2 C 0.09026(8) 0.5498(4) 0.1465(2)
C3 C 0.11798(8) 0.4816(4) 0.1024(2)
H1 H 0.1186 0.3557 0.0895
C4 C 0.14466(8) 0.5971(5) 0.0772(2)
H2 H 0.1629 0.5494 0.0469
C5 C 0.14440(8) 0.7856(4) 0.0972(2)
C6 C 0.11718(7) 0.8550(5) 0.1422(2)
H3 H 0.1169 0.9804 0.1560
C7 C 0.09025(8) 0.7369(4) 0.1667(2)
H4 H 0.0720 0.7842 0.1970
C8 C 0.17245(9) 0.9060(4) 0.0691(2)
C9 C 0.19501(8) 1.0049(5) 0.0455(2)
C10 C 0.22302(8) 1.1258(4) 0.0205(2)
C11 C 0.22851(8) 1.2944(4) 0.0619(2)
H5 H 0.2138 1.3239 0.1039
C12 C 0.24485(8) 1.0799(4) -0.0430(2)
C13 C 0.23835(9) 0.9092(4) -0.0950(2)
H6 H 0.2300 0.8104 -0.0615
H7 H 0.2607 0.8704 -0.1159
C14 C 0.21083(10) 0.9432(5) -0.1662(3)
H8 H 0.1877 0.9613 -0.1447
H9 H 0.2170 1.0565 -0.1930
C15 C 0.20750(12) 0.7915(6) -0.2294(3)
H10 H 0.1893 0.8269 -0.2712
H11 H 0.2300 0.7824 -0.2549
C16 C 0.19821(13) 0.6037(6) -0.1980(3)
H12 H 0.2166 0.5652 -0.1572
H13 H 0.1978 0.5160 -0.2424
C17 C 0.16174(15) 0.6019(7) -0.1604(4)
C18 C 0.15096(16) 0.4117(8) -0.1404(4)
O3 O -0.02365(4) 0.1759(3) 0.16510(13)
C19 C -0.01327(8) 0.0225(4) 0.1385(2)
H14 H 0.0082 -0.0270 0.1617
N1 N -0.03082(7) -0.0708(3) 0.08067(18)
C20 C -0.01756(9) -0.2525(4) 0.0530(3)
H15 H 0.0043 -0.2752 0.0784
H16 H -0.0150 -0.2478 -0.0015
C21 C -0.04257(10) -0.4077(4) 0.0707(3)
H17 H -0.0328 -0.5230 0.0525
H18 H -0.0657 -0.3862 0.0421
H19 H -0.0453 -0.4137 0.1287
C22 C -0.06421(9) 0.0058(4) 0.0405(2)
H20 H -0.0702 -0.0622 -0.0092
H21 H -0.0601 0.1329 0.0258
C23 C -0.09527(9) -0.0025(5) 0.0936(3)
H22 H -0.1163 0.0496 0.0645
H23 H -0.0896 0.0671 0.1430
H24 H -0.0999 -0.1297 0.1073
Zn1F Zn 0.5000 2.16304(7) -0.2500
O1F O 0.46421(5) 1.9991(3) -0.21083(14)
O1A O -0.03579(5) 0.5009(3) 0.28917(14)
C1F C 0.43895(8) 2.0789(5) -0.1723(2)
O2F O 0.43859(6) 2.2451(3) -0.15566(17)
C2F C 0.40974(8) 1.9502(4) -0.1465(2)
C3F C 0.38202(8) 2.0184(4) -0.1024(2)
H1F H 0.3814 2.1443 -0.0895
C4F C 0.35534(8) 1.9029(5) -0.0772(2)
H2F H 0.3371 1.9506 -0.0469
C5F C 0.35560(8) 1.7144(4) -0.0972(2)
C6F C 0.38282(7) 1.6450(5) -0.1422(2)
H3F H 0.3831 1.5196 -0.1560
C7F C 0.40975(8) 1.7631(4) -0.1667(2)
H4F H 0.4280 1.7158 -0.1970
C8F C 0.32755(9) 1.5940(4) -0.0691(2)
C9F C 0.30499(8) 1.4951(5) -0.0455(2)
C10F C 0.27698(8) 1.3742(4) -0.0205(2)
C11F C 0.27149(8) 1.2056(4) -0.0619(2)
H5F H 0.2862 1.1761 -0.1039
C12F C 0.25515(8) 1.4201(4) 0.0430(2)
C13F C 0.26165(9) 1.5908(4) 0.0950(2)
H6F H 0.2700 1.6896 0.0615
H7F H 0.2393 1.6296 0.1159
C14F C 0.28917(10) 1.5568(5) 0.1662(3)
H8F H 0.3123 1.5387 0.1447
H9F H 0.2830 1.4435 0.1930
C15F C 0.29250(12) 1.7085(6) 0.2294(3)
H10F H 0.3107 1.6731 0.2712
H11F H 0.2700 1.7176 0.2549
C16F C 0.30179(13) 1.8963(6) 0.1980(3)
H12F H 0.2834 1.9348 0.1572
H13F H 0.3022 1.9840 0.2424
C17F C 0.33826(15) 1.8981(7) 0.1604(4)
C18F C 0.34904(16) 2.0883(8) 0.1404(4)
O3A O 0.02365(4) 0.1759(3) 0.33490(13)
C19A C 0.01327(8) 0.0225(4) 0.3615(2)
H14A H -0.0082 -0.0270 0.3383
N1A N 0.03082(7) -0.0708(3) 0.41933(18)
C20A C 0.01756(9) -0.2525(4) 0.4470(3)
H15A H -0.0043 -0.2752 0.4216
H16A H 0.0150 -0.2478 0.5015
C21A C 0.04257(10) -0.4077(4) 0.4293(3)
H17A H 0.0328 -0.5230 0.4475
H18A H 0.0657 -0.3862 0.4579
H19A H 0.0453 -0.4137 0.3713
C22A C 0.06421(9) 0.0058(4) 0.4595(2)
H20A H 0.0702 -0.0622 0.5092
H21A H 0.0601 0.1329 0.4742
C23A C 0.09527(9) -0.0025(5) 0.4064(3)
H22A H 0.1163 0.0496 0.4355
H23A H 0.0896 0.0671 0.3570
H24A H 0.0999 -0.1297 0.3927
loop_
_geom_bond_atom_site_label_1
_geom_bond_atom_site_label_2
_geom_bond_site_symmetry_1
_geom_bond_site_symmetry_2
Zn1 O1 1_555 1_555
O1 C1 1_555 1_555
C1 O2 1_555 1_555
C2 C1 1_555 1_555
C3 C2 1_555 1_555
H1 C3 1_555 1_555
C4 C3 1_555 1_555
H2 C4 1_555 1_555
C5 C4 1_555 1_555
C6 C5 1_555 1_555
H3 C6 1_555 1_555
C7 C2 1_555 1_555
H4 C7 1_555 1_555
C8 C5 1_555 1_555
C9 C8 1_555 1_555
C10 C9 1_555 1_555
C11 C10 1_555 1_555
H5 C11 1_555 1_555
C12 C10 1_555 1_555
C13 C12 1_555 1_555
H6 C13 1_555 1_555
H7 C13 1_555 1_555
C14 C13 1_555 1_555
H8 C14 1_555 1_555
H9 C14 1_555 1_555
C15 C14 1_555 1_555
H10 C15 1_555 1_555
H11 C15 1_555 1_555
C16 C15 1_555 1_555
H12 C16 1_555 1_555
H13 C16 1_555 1_555
C17 C16 1_555 1_555
C18 C17 1_555 1_555
O3 Zn1 1_555 1_555
C19 O3 1_555 1_555
H14 C19 1_555 1_555
N1 C19 1_555 1_555
C20 N1 1_555 1_555
H15 C20 1_555 1_555
H16 C20 1_555 1_555
C21 C20 1_555 1_555
H17 C21 1_555 1_555
H18 C21 1_555 1_555
H19 C21 1_555 1_555
C22 N1 1_555 1_555
H20 C22 1_555 1_555
H21 C22 1_555 1_555
C23 C22 1_555 1_555
H22 C23 1_555 1_555
H23 C23 1_555 1_555
H24 C23 1_555 1_555
Zn1F O1F 1_555 1_555
O1F C1F 1_555 1_555
O1A Zn1 1_555 1_555
C1F O2F 1_555 1_555
C2F C1F 1_555 1_555
C3F C2F 1_555 1_555
H1F C3F 1_555 1_555
C4F C3F 1_555 1_555
H2F C4F 1_555 1_555
C5F C4F 1_555 1_555
C6F C5F 1_555 1_555
H3F C6F 1_555 1_555
C7F C2F 1_555 1_555
H4F C7F 1_555 1_555
C8F C5F 1_555 1_555
C9F C8F 1_555 1_555
C10F C9F 1_555 1_555
C11F C12 1_555 1_555
H5F C11F 1_555 1_555
C12F C11 1_555 1_555
C13F C12F 1_555 1_555
H6F C13F 1_555 1_555
H7F C13F 1_555 1_555
C14F C13F 1_555 1_555
H8F C14F 1_555 1_555
H9F C14F 1_555 1_555
C15F C14F 1_555 1_555
H10F C15F 1_555 1_555
H11F C15F 1_555 1_555
C16F C15F 1_555 1_555
H12F C16F 1_555 1_555
H13F C16F 1_555 1_555
C17F C16F 1_555 1_555
C18F C17F 1_555 1_555
O3A Zn1 1_555 1_555
C19A O3A 1_555 1_555
H14A C19A 1_555 1_555
N1A C19A 1_555 1_555
C20A N1A 1_555 1_555
H15A C20A 1_555 1_555
H16A C20A 1_555 1_555
C21A C20A 1_555 1_555
H17A C21A 1_555 1_555
H18A C21A 1_555 1_555
H19A C21A 1_555 1_555
C22A N1A 1_555 1_555
H20A C22A 1_555 1_555
H21A C22A 1_555 1_555
C23A C22A 1_555 1_555
H22A C23A 1_555 1_555
H23A C23A 1_555 1_555
H24A C23A 1_555 1_555
C6 C7 1_555 1_555
C6F C7F 1_555 1_555
C10F C11F 1_555 1_555
C10F C12F 1_555 1_555

#END
