
#######################################################################
#
#                 Cambridge Crystallographic Data Centre
#                                CCDC 
#
#######################################################################
#
# If this CIF has been generated from an entry in the Cambridge 
# Structural Database, then it will include bibliographic, chemical, 
# crystal, experimental, refinement or atomic coordinate data resulting 
# from the CCDC's data processing and validation procedures.
#
#######################################################################

data_XULVAD
_symmetry_cell_setting           triclinic
_symmetry_space_group_name_H-M   'P -1'
_symmetry_Int_Tables_number      2
_space_group_name_Hall           '-P 1'
loop_
_symmetry_equiv_pos_site_id
_symmetry_equiv_pos_as_xyz
1 x,y,z
2 -x,-y,-z
_cell_length_a                   8.9036(16)
_cell_length_b                   11.1229(19)
_cell_length_c                   13.851(2)
_cell_angle_alpha                106.103(3)
_cell_angle_beta                 90.944(3)
_cell_angle_gamma                109.830(3)
_cell_volume                     1230.44
loop_
_atom_site_label
_atom_site_type_symbol
_atom_site_fract_x
_atom_site_fract_y
_atom_site_fract_z
Gd1 Gd 0.77723(4) 0.24736(3) 0.23730(3)
Mn1 Mn 0.71086(12) -0.40944(10) 0.02670(8)
Mn2 Mn 0.5000 0.0000 0.5000
C1 C 0.4629(7) -0.2966(6) -0.0558(5)
C2 C 0.6024(8) -0.1617(6) -0.0341(5)
C3 C 0.8206(8) -0.0263(6) -0.0875(5)
H1 H 0.8892 -0.0111 -0.1363
C4 C 0.7003(8) 0.2859(6) 0.4894(5)
C5 C 0.7679(8) 0.4355(6) 0.5372(5)
C6 C 0.8452(8) 0.0742(6) 0.0043(5)
C7 C 0.9843(8) 0.2078(6) 0.0349(5)
C8 C 0.6223(7) -0.0585(6) 0.0544(5)
C9 C 0.5114(8) -0.0645(6) 0.1359(5)
C10 C 0.7422(8) 0.6382(6) 0.5510(5)
H2 H 0.6899 0.6889 0.5317
C11 C 0.8755(7) 0.7026(6) 0.6244(5)
C12 C 0.9502(8) 0.8528(6) 0.6744(5)
C13 C 0.9044(8) 0.5008(6) 0.6088(5)
C14 C 1.0111(8) 0.4349(6) 0.6416(5)
N1 N 0.6985(6) -0.1455(5) -0.1065(4)
N2 N 0.7451(6) 0.0593(5) 0.0737(4)
N3 N 0.6865(7) 0.5042(5) 0.5069(4)
N4 N 0.9546(6) 0.6323(5) 0.6519(4)
O1 O 0.4849(5) -0.3872(4) -0.0262(3)
O2 O 0.3395(5) -0.3075(4) -0.1062(3)
O3 O 1.0882(5) 0.2278(4) -0.0243(3)
O4 O 0.9816(5) 0.2882(4) 0.1193(3)
O5 O 0.5483(5) 0.0435(4) 0.2101(3)
O6 O 0.3926(7) -0.1649(5) 0.1222(4)
O7 O 0.7388(6) 0.2378(4) 0.4044(3)
O8 O 0.6081(6) 0.2211(4) 0.5390(4)
O9 O 0.8831(6) 0.9257(5) 0.6548(4)
O10 O 1.0810(6) 0.8924(4) 0.7316(3)
O11 O 1.1284(6) 0.5130(4) 0.7075(4)
O12 O 0.9767(6) 0.3137(4) 0.5983(4)
O13 O 0.6732(9) -0.3038(8) 0.1725(5)
H3 H 0.701(15) -0.371(7) 0.180(8)
H4 H 0.717(13) -0.240(7) 0.228(5)
O14 O 0.7341(9) -0.4873(7) -0.1302(5)
H5 H 0.796(10) -0.432(9) -0.158(6)
H6 H 0.652(9) -0.537(9) -0.176(6)
O15 O 0.9001(9) -0.4553(7) 0.0885(7)
H7 H 0.861(15) -0.495(9) 0.133(6)
H8 H 0.887(16) -0.517(8) 0.032(4)
O16 O 0.3063(7) 0.0242(6) 0.5850(5)
H9 H 0.257(9) 0.074(6) 0.614(7)
H10 H 0.265(10) -0.053(4) 0.592(6)
O17 O 0.6268(6) 0.0051(5) 0.6369(4)
H11 H 0.681(7) -0.041(6) 0.649(6)
H12 H 0.690(7) 0.074(5) 0.625(6)
O18 O 0.5376(6) 0.3110(6) 0.2932(4)
H13 H 0.457(7) 0.278(7) 0.248(4)
H14 H 0.533(9) 0.382(5) 0.333(5)
Gd1A Gd 0.22277(4) -1.24736(3) -0.23730(3)
Mn1A Mn 0.28914(12) -0.59056(10) -0.02670(8)
C1A C 0.5371(7) -0.7034(6) 0.0558(5)
C2A C 0.3976(8) -0.8383(6) 0.0341(5)
C3A C 0.1794(8) -0.9737(6) 0.0875(5)
H1A H 0.1108 -0.9889 0.1363
C4A C 0.2997(8) -1.2859(6) -0.4894(5)
C5A C 0.2321(8) -1.4355(6) -0.5372(5)
C6A C 0.1548(8) -1.0742(6) -0.0043(5)
C7A C 0.0157(8) -1.2078(6) -0.0349(5)
C8A C 0.3777(7) -0.9415(6) -0.0544(5)
C9A C 0.4886(8) -0.9355(6) -0.1359(5)
C10A C 0.2578(8) -1.6382(6) -0.5510(5)
H2A H 0.3101 -1.6889 -0.5317
C11A C 0.1245(7) -1.7026(6) -0.6244(5)
C12A C 0.0498(8) -1.8528(6) -0.6744(5)
C13A C 0.0956(8) -1.5008(6) -0.6088(5)
C14A C -0.0111(8) -1.4349(6) -0.6416(5)
N1A N 0.3015(6) -0.8545(5) 0.1065(4)
N2A N 0.2549(6) -1.0593(5) -0.0737(4)
N3A N 0.3135(7) -1.5042(5) -0.5069(4)
N4A N 0.0454(6) -1.6323(5) -0.6519(4)
O1A O 0.5151(5) -0.6128(4) 0.0262(3)
O2A O 0.6605(5) -0.6925(4) 0.1062(3)
O3A O -0.0882(5) -1.2278(4) 0.0243(3)
O4A O 0.0184(5) -1.2882(4) -0.1193(3)
O5A O 0.4517(5) -1.0435(4) -0.2101(3)
O6A O 0.6074(7) -0.8351(5) -0.1222(4)
O7A O 0.2612(6) -1.2378(4) -0.4044(3)
O8A O 0.3919(6) -1.2211(4) -0.5390(4)
O9A O 0.1169(6) -1.9257(5) -0.6548(4)
O10A O -0.0810(6) -1.8924(4) -0.7316(3)
O11A O -0.1284(6) -1.5130(4) -0.7075(4)
O12A O 0.0233(6) -1.3137(4) -0.5983(4)
O13A O 0.3268(9) -0.6962(8) -0.1725(5)
H3A H 0.299(15) -0.629(7) -0.180(8)
H4A H 0.283(13) -0.760(7) -0.228(5)
O14A O 0.2659(9) -0.5127(7) 0.1302(5)
H5A H 0.204(10) -0.568(9) 0.158(6)
H6A H 0.348(9) -0.463(9) 0.176(6)
O15A O 0.0999(9) -0.5447(7) -0.0885(7)
H7A H 0.139(15) -0.505(9) -0.133(6)
H8A H 0.113(16) -0.483(8) -0.032(4)
O18A O 0.4624(6) -1.3110(6) -0.2932(4)
H13A H 0.543(7) -1.278(7) -0.248(4)
H14A H 0.467(9) -1.382(5) -0.333(5)
O16A O 0.6937(7) -0.0242(6) 0.4150(5)
H9A H 0.743(9) -0.074(6) 0.386(7)
H10A H 0.735(10) 0.053(4) 0.408(6)
O17A O 0.3732(6) -0.0051(5) 0.3631(4)
H11A H 0.319(7) 0.041(6) 0.351(6)
H12A H 0.310(7) -0.074(5) 0.375(6)
Gd1_2 Gd -0.22277(4) -1.75264(3) -0.76270(3)
Gd1_3 Gd 0.77723(4) -0.75264(3) 0.23730(3)
Gd1A_2 Gd 0.22277(4) -0.24736(3) -0.23730(3)
Gd1A_3 Gd 1.22277(4) 0.75264(3) 0.76270(3)
Mn1_2 Mn -0.28914(12) -1.40944(10) 0.02670(8)
Mn1A_2 Mn 1.28914(12) 0.40944(10) -0.02670(8)
Mn2_2 Mn 0.5000 -1.0000 -0.5000
N4_2 N -0.0454(6) -1.3677(5) -0.3481(4)
N4A_2 N 1.0454(6) 0.3677(5) 0.3481(4)
O2_2 O 0.3395(5) -1.3075(4) -0.1062(3)
O2A_2 O 0.6605(5) 0.3075(4) 0.1062(3)
O3_2 O 0.0882(5) -0.7722(4) -0.0243(3)
O3A_2 O 0.9118(5) -0.2278(4) 0.0243(3)
O8A_2 O 0.3919(6) -0.2211(4) 0.4610(4)
O10_2 O 0.0810(6) -1.1076(4) -0.2684(3)
O10A_2 O 0.9190(6) 0.1076(4) 0.2684(3)
O11_2 O 0.1284(6) -1.4870(4) -0.2925(4)
O11A_2 O 0.8716(6) 0.4870(4) 0.2925(4)
O19 O 0.8798(6) 0.8318(6) 0.3363(5)
H15 H 0.962(6) 0.889(7) 0.322(6)
H16 H 0.914(8) 0.790(7) 0.369(6)
O20 O 0.1694(13) 0.7173(11) 0.2195(8)
O21 O 0.3851(19) 0.7033(12) 0.2564(10)
O22 O 0.494(2) 0.5769(17) 0.3074(12)
loop_
_geom_bond_atom_site_label_1
_geom_bond_atom_site_label_2
_geom_bond_site_symmetry_1
_geom_bond_site_symmetry_2
Gd1 N2 1_555 1_555
Mn1 O1 1_555 1_555
Mn2 O8 1_555 1_555
C1 C2 1_555 1_555
C2 C8 1_555 1_555
C3 H1 1_555 1_555
C4 C5 1_555 1_555
C5 C13 1_555 1_555
C6 C3 1_555 1_555
C7 C6 1_555 1_555
C8 C9 1_555 1_555
C9 O5 1_555 1_555
C10 H2 1_555 1_555
C11 C10 1_555 1_555
C12 C11 1_555 1_555
C13 C14 1_555 1_555
C14 O11 1_555 1_555
N1 C2 1_555 1_555
N2 C6 1_555 1_555
N3 C5 1_555 1_555
N4 C11 1_555 1_555
O1 C1 1_555 1_555
O2 C1 1_555 1_555
O3 C7 1_555 1_555
O4 Gd1 1_555 1_555
O5 Gd1 1_555 1_555
O6 C9 1_555 1_555
O7 Gd1 1_555 1_555
O8 C4 1_555 1_555
O9 C12 1_555 1_555
O10 C12 1_555 1_555
O11 Gd1A_3 1_555 1_555
O12 C14 1_555 1_555
O13 Mn1 1_555 1_555
H3 O13 1_555 1_555
H4 O13 1_555 1_555
O14 Mn1 1_555 1_555
H5 O14 1_555 1_555
H6 O14 1_555 1_555
O15 Mn1 1_555 1_555
H7 O15 1_555 1_555
H8 O15 1_555 1_555
O16 Mn2 1_555 1_555
H9 O16 1_555 1_555
H10 O16 1_555 1_555
O17 Mn2 1_555 1_555
H11 O17 1_555 1_555
H12 O17 1_555 1_555
O18 Gd1 1_555 1_555
H13 O18 1_555 1_555
H14 O18 1_555 1_555
O19 H15 1_555 1_555
H16 O19 1_555 1_555
Gd1A N2A 1_555 1_555
Mn1A O1 1_555 1_555
C1A C2A 1_555 1_555
C2A C8A 1_555 1_555
C3A H1A 1_555 1_555
C4A C5A 1_555 1_555
C5A C13A 1_555 1_555
C6A C3A 1_555 1_555
C7A C6A 1_555 1_555
C8A C9A 1_555 1_555
C9A O5A 1_555 1_555
C10A H2A 1_555 1_555
C11A C10A 1_555 1_555
C12A C11A 1_555 1_555
C13A C14A 1_555 1_555
C14A O11A 1_555 1_555
N1A C2A 1_555 1_555
N2A C6A 1_555 1_555
N3A C5A 1_555 1_555
N4A C11A 1_555 1_555
O1A Mn1 1_555 1_555
O2A C1A 1_555 1_555
O3A C7A 1_555 1_555
O4A Gd1A 1_555 1_555
O5A Gd1A 1_555 1_555
O6A C9A 1_555 1_555
O7A Gd1A 1_555 1_555
O8A C4A 1_555 1_555
O9A C12A 1_555 1_555
O10A C12A 1_555 1_555
O11A Gd1_2 1_555 1_555
O12A C14A 1_555 1_555
O13A Mn1A 1_555 1_555
H3A O13A 1_555 1_555
H4A O13A 1_555 1_555
O14A Mn1A 1_555 1_555
H5A O14A 1_555 1_555
H6A O14A 1_555 1_555
O15A Mn1A 1_555 1_555
H7A O15A 1_555 1_555
H8A O15A 1_555 1_555
O18A Gd1A 1_555 1_555
H13A O18A 1_555 1_555
H14A O18A 1_555 1_555
O16A Mn2 1_555 1_555
H9A O16A 1_555 1_555
H10A O16A 1_555 1_555
O17A Mn2 1_555 1_555
H11A O17A 1_555 1_555
H12A O17A 1_555 1_555
Gd1_2 N4A 1_555 1_555
Gd1_3 O2A 1_555 1_555
Gd1A_2 O2 1_555 1_555
Gd1A_3 N4 1_555 1_555
Mn1_2 O3A 1_555 1_555
Mn1A_2 O3 1_555 1_555
Mn2_2 O8A 1_555 1_555
N4_2 Gd1A 1_555 1_555
N4A_2 Gd1 1_555 1_555
O2_2 Gd1A 1_555 1_555
O2A_2 Gd1 1_555 1_555
O3_2 Mn1A 1_555 1_555
O3A_2 Mn1 1_555 1_555
O8A_2 Mn2 1_555 1_555
O10_2 Gd1A 1_555 1_555
O10A_2 Gd1 1_555 1_555
O11_2 Gd1A 1_555 1_555
O11A_2 Gd1 1_555 1_555
C3 N1 1_555 1_555
C4 O7 1_555 1_555
C7 O4 1_555 1_555
C8 N2 1_555 1_555
C10 N3 1_555 1_555
C13 N4 1_555 1_555
O10 Gd1A_3 1_555 1_555
Mn1A O1A 1_555 1_555
C1A O1A 1_555 1_555
C3A N1A 1_555 1_555
C4A O7A 1_555 1_555
C7A O4A 1_555 1_555
C8A N2A 1_555 1_555
C10A N3A 1_555 1_555
C13A N4A 1_555 1_555
O10A Gd1_2 1_555 1_555

#END
