
#######################################################################
#
#                 Cambridge Crystallographic Data Centre
#                                CCDC 
#
#######################################################################
#
# If this CIF has been generated from an entry in the Cambridge 
# Structural Database, then it will include bibliographic, chemical, 
# crystal, experimental, refinement or atomic coordinate data resulting 
# from the CCDC's data processing and validation procedures.
#
#######################################################################

data_XULXAD
_symmetry_cell_setting           monoclinic
_symmetry_space_group_name_H-M   'C 2/c'
_symmetry_Int_Tables_number      15
_space_group_name_Hall           '-C 2yn'
loop_
_symmetry_equiv_pos_site_id
_symmetry_equiv_pos_as_xyz
1 x,y,z
2 1/2+x,1/2+y,z
3 -x,y,1/2-z
4 1/2-x,1/2+y,1/2-z
5 -x,-y,-z
6 1/2-x,1/2-y,-z
7 x,-y,1/2+z
8 1/2+x,1/2-y,1/2+z
_cell_length_a                   16.988(2)
_cell_length_b                   17.020(2)
_cell_length_c                   15.528(2)
_cell_angle_alpha                90
_cell_angle_beta                 119.534(7)
_cell_angle_gamma                90
_cell_volume                     3906.32
loop_
_atom_site_label
_atom_site_type_symbol
_atom_site_fract_x
_atom_site_fract_y
_atom_site_fract_z
Ag1 Ag 0.08872(2) -0.02134(2) 0.10185(2)
Br1 Br 0.01402(3) -0.12097(2) -0.04858(3)
P1 P 0.24450(6) 0.02111(6) 0.18719(7)
N1 N -0.0200(2) -0.0852(2) 0.3137(2)
N2 N 0.0000 0.0289(3) 0.2500
H1 H 0.0125 0.0542 0.2103
H2 H -0.0125 0.0542 0.2897
C1 C -0.0175(3) -0.1630(3) 0.3137(3)
H3 H -0.0282 -0.1904 0.3588
C2 C 0.0000 -0.2044(4) 0.2500
H4 H 0.0000 -0.2591 0.2500
C3 C 0.0000 -0.0485(3) 0.2500
C4 C 0.2697(2) 0.0889(2) 0.2888(3)
C5 C 0.2340(3) 0.0704(3) 0.3499(3)
H5 H 0.1972 0.0264 0.3362
C6 C 0.2528(3) 0.1168(3) 0.4309(3)
H6 H 0.2288 0.1038 0.4714
C7 C 0.3067(3) 0.1817(3) 0.4516(3)
H7 H 0.3191 0.2130 0.5059
C8 C 0.3419(3) 0.2001(3) 0.3927(3)
H8 H 0.3794 0.2437 0.4078
C9 C 0.3229(3) 0.1551(2) 0.3102(3)
H9 H 0.3461 0.1695 0.2693
C10 C 0.3289(2) -0.0556(2) 0.2476(3)
C11 C 0.3094(3) -0.1309(2) 0.2112(3)
H10 H 0.2531 -0.1421 0.1569
C12 C 0.3721(3) -0.1900(3) 0.2541(4)
H11 H 0.3580 -0.2407 0.2286
C13 C 0.4557(3) -0.1746(3) 0.3349(4)
H12 H 0.4980 -0.2147 0.3632
C14 C 0.4760(3) -0.1012(3) 0.3727(3)
H13 H 0.5322 -0.0907 0.4275
C15 C 0.4128(3) -0.0414(3) 0.3295(3)
H14 H 0.4270 0.0090 0.3560
C16 C 0.2795(3) 0.0713(2) 0.1079(3)
C17 C 0.2144(3) 0.1117(3) 0.0266(3)
H15 H 0.1550 0.1132 0.0144
C18 C 0.2371(4) 0.1497(4) -0.0362(4)
H16 H 0.1929 0.1774 -0.0899
C19 C 0.3228(4) 0.1477(3) -0.0214(4)
H17 H 0.3369 0.1732 -0.0650
C20 C 0.3872(3) 0.1083(3) 0.0573(4)
H18 H 0.4462 0.1070 0.0685
C21 C 0.3655(3) 0.0700(3) 0.1213(3)
H19 H 0.4104 0.0426 0.1748
C1B C 0.0175(3) -0.1630(3) 0.1863(3)
N1B N 0.0200(2) -0.0852(2) 0.1863(2)
Ag1B Ag -0.08872(2) -0.02134(2) 0.39815(2)
Ag1D Ag -0.08872(2) 0.02134(2) -0.10185(2)
Br1D Br -0.01402(3) 0.12097(2) 0.04858(3)
P1D P -0.24450(6) -0.02111(6) -0.18719(7)
C4D C -0.2697(2) -0.0889(2) -0.2888(3)
C5D C -0.2340(3) -0.0704(3) -0.3499(3)
H5D H -0.1972 -0.0264 -0.3362
C6D C -0.2528(3) -0.1168(3) -0.4309(3)
H6D H -0.2288 -0.1038 -0.4714
C7D C -0.3067(3) -0.1817(3) -0.4516(3)
H7D H -0.3191 -0.2130 -0.5059
C8D C -0.3419(3) -0.2001(3) -0.3927(3)
H8D H -0.3794 -0.2437 -0.4078
C9D C -0.3229(3) -0.1551(2) -0.3102(3)
H9D H -0.3461 -0.1695 -0.2693
C10D C -0.3289(2) 0.0556(2) -0.2476(3)
C11D C -0.3094(3) 0.1309(2) -0.2112(3)
H10D H -0.2531 0.1421 -0.1569
C12D C -0.3721(3) 0.1900(3) -0.2541(4)
H11D H -0.3580 0.2407 -0.2286
C13D C -0.4557(3) 0.1746(3) -0.3349(4)
H12D H -0.4980 0.2147 -0.3632
C14D C -0.4760(3) 0.1012(3) -0.3727(3)
H13D H -0.5322 0.0907 -0.4275
C15D C -0.4128(3) 0.0414(3) -0.3295(3)
H14D H -0.4270 -0.0090 -0.3560
C16D C -0.2795(3) -0.0713(2) -0.1079(3)
C17D C -0.2144(3) -0.1117(3) -0.0266(3)
H15D H -0.1550 -0.1132 -0.0144
C18D C -0.2371(4) -0.1497(4) 0.0362(4)
H16D H -0.1929 -0.1774 0.0899
C19D C -0.3228(4) -0.1477(3) 0.0214(4)
H17D H -0.3369 -0.1732 0.0650
C20D C -0.3872(3) -0.1083(3) -0.0573(4)
H18D H -0.4462 -0.1070 -0.0685
C21D C -0.3655(3) -0.0700(3) -0.1213(3)
H19D H -0.4104 -0.0426 -0.1748
N1F N -0.0200(2) 0.0852(2) -0.1863(2)
H3B H 0.0282 -0.1904 0.1412
loop_
_geom_bond_atom_site_label_1
_geom_bond_atom_site_label_2
_geom_bond_site_symmetry_1
_geom_bond_site_symmetry_2
Ag1 Br1 1_555 1_555
Br1 Ag1D 1_555 1_555
P1 Ag1 1_555 1_555
N1 C1 1_555 1_555
N2 H1 1_555 1_555
H2 N2 1_555 1_555
C1 H3 1_555 1_555
C2 C1 1_555 1_555
H4 C2 1_555 1_555
C3 N1 1_555 1_555
C4 P1 1_555 1_555
C5 C4 1_555 1_555
H5 C5 1_555 1_555
C6 C5 1_555 1_555
H6 C6 1_555 1_555
C7 C6 1_555 1_555
H7 C7 1_555 1_555
C8 C7 1_555 1_555
H8 C8 1_555 1_555
C9 C4 1_555 1_555
H9 C9 1_555 1_555
C10 P1 1_555 1_555
C11 C10 1_555 1_555
H10 C11 1_555 1_555
C12 C11 1_555 1_555
H11 C12 1_555 1_555
C13 C12 1_555 1_555
H12 C13 1_555 1_555
C14 C13 1_555 1_555
H13 C14 1_555 1_555
C15 C10 1_555 1_555
H14 C15 1_555 1_555
C16 P1 1_555 1_555
C17 C16 1_555 1_555
H15 C17 1_555 1_555
C18 C17 1_555 1_555
H16 C18 1_555 1_555
C19 C18 1_555 1_555
H17 C19 1_555 1_555
C20 C19 1_555 1_555
H18 C20 1_555 1_555
C21 C16 1_555 1_555
H19 C21 1_555 1_555
C1B C2 1_555 1_555
N1B Ag1 1_555 1_555
Ag1B N1 1_555 1_555
Ag1D Br1D 1_555 1_555
Br1D Ag1 1_555 1_555
P1D Ag1D 1_555 1_555
C4D P1D 1_555 1_555
C5D C4D 1_555 1_555
H5D C5D 1_555 1_555
C6D C5D 1_555 1_555
H6D C6D 1_555 1_555
C7D C6D 1_555 1_555
H7D C7D 1_555 1_555
C8D C7D 1_555 1_555
H8D C8D 1_555 1_555
C9D C4D 1_555 1_555
H9D C9D 1_555 1_555
C10D P1D 1_555 1_555
C11D C10D 1_555 1_555
H10D C11D 1_555 1_555
C12D C11D 1_555 1_555
H11D C12D 1_555 1_555
C13D C12D 1_555 1_555
H12D C13D 1_555 1_555
C14D C13D 1_555 1_555
H13D C14D 1_555 1_555
C15D C10D 1_555 1_555
H14D C15D 1_555 1_555
C16D P1D 1_555 1_555
C17D C16D 1_555 1_555
H15D C17D 1_555 1_555
C18D C17D 1_555 1_555
H16D C18D 1_555 1_555
C19D C18D 1_555 1_555
H17D C19D 1_555 1_555
C20D C19D 1_555 1_555
H18D C20D 1_555 1_555
C21D C16D 1_555 1_555
H19D C21D 1_555 1_555
N1F Ag1D 1_555 1_555
H3B C1B 1_555 1_555
N2 C3 1_555 1_555
C3 N1B 1_555 1_555
C8 C9 1_555 1_555
C14 C15 1_555 1_555
C20 C21 1_555 1_555
C1B N1B 1_555 1_555
C8D C9D 1_555 1_555
C14D C15D 1_555 1_555
C20D C21D 1_555 1_555

#END
