
#######################################################################
#
#                 Cambridge Crystallographic Data Centre
#                                CCDC 
#
#######################################################################
#
# If this CIF has been generated from an entry in the Cambridge 
# Structural Database, then it will include bibliographic, chemical, 
# crystal, experimental, refinement or atomic coordinate data resulting 
# from the CCDC's data processing and validation procedures.
#
#######################################################################

data_XULZUA
_symmetry_cell_setting           monoclinic
_symmetry_space_group_name_H-M   'P 21/c'
_symmetry_Int_Tables_number      14
_space_group_name_Hall           '-P 2ybc'
loop_
_symmetry_equiv_pos_site_id
_symmetry_equiv_pos_as_xyz
1 x,y,z
2 -x,1/2+y,1/2-z
3 -x,-y,-z
4 x,1/2-y,1/2+z
_cell_length_a                   9.5695(13)
_cell_length_b                   28.354(4)
_cell_length_c                   12.4233(17)
_cell_angle_alpha                90
_cell_angle_beta                 91.021(2)
_cell_angle_gamma                90
_cell_volume                     3370.32
loop_
_atom_site_label
_atom_site_type_symbol
_atom_site_fract_x
_atom_site_fract_y
_atom_site_fract_z
Cu1 Cu 0.38184(7) 0.68005(2) 0.53178(5)
O1 O 0.3846(5) 0.75428(16) 0.5318(4)
Cu2 Cu -0.11810(7) 0.75577(2) 0.77737(5)
O2 O -0.0743(4) 0.71591(15) 0.9062(3)
O3 O -0.3481(4) 0.72004(16) 0.7739(3)
O4 O -0.1618(4) 0.79393(15) 0.6455(3)
O5 O 0.1235(4) 0.78759(16) 0.7821(4)
O6 O 0.1905(4) 0.69031(14) 0.9281(3)
N1 N 0.2494(5) 0.66938(17) 0.8427(4)
C1 C 0.2830(6) 0.6232(2) 0.8323(5)
N2 N 0.2810(5) 0.69465(17) 0.7561(4)
C2 C 0.3414(6) 0.6205(2) 0.7310(5)
N3 N 0.3395(5) 0.66472(17) 0.6863(4)
C3 C 0.3906(7) 0.5775(2) 0.6924(5)
H1 H 0.4301 0.5749 0.6230
C4 C 0.3794(8) 0.5391(2) 0.7592(6)
H2 H 0.4141 0.5095 0.7355
C5 C 0.3192(8) 0.5418(3) 0.8602(6)
H3 H 0.3132 0.5142 0.9030
C6 C 0.2676(7) 0.5841(2) 0.8997(5)
H4 H 0.2248 0.5863 0.9679
O7 O 0.1816(4) 0.67523(14) 0.4840(3)
N4 N 0.0840(5) 0.67604(16) 0.5610(4)
C7 C 0.0285(6) 0.6374(2) 0.6099(5)
N5 N 0.0401(5) 0.71591(17) 0.6029(4)
C8 C -0.0556(6) 0.6565(2) 0.6884(5)
N6 N -0.0471(5) 0.70439(17) 0.6824(4)
C9 C -0.1298(6) 0.6261(2) 0.7588(5)
H5 H -0.1875 0.6381 0.8139
C10 C -0.1136(7) 0.5788(2) 0.7427(6)
H6 H -0.1622 0.5577 0.7880
C11 C -0.0284(7) 0.5599(2) 0.6622(6)
H7 H -0.0201 0.5267 0.6556
C12 C 0.0433(6) 0.5886(2) 0.5925(5)
H8 H 0.0990 0.5763 0.5366
O8 O 0.5678(4) 0.68490(14) 0.1333(3)
N7 N 0.5038(5) 0.66602(17) 0.2176(4)
C13 C 0.4451(6) 0.6218(2) 0.2240(4)
N8 N 0.4868(5) 0.69053(17) 0.3075(4)
C14 C 0.3919(6) 0.6202(2) 0.3283(5)
N9 N 0.4198(5) 0.66251(17) 0.3784(4)
C15 C 0.3223(6) 0.5790(2) 0.3635(5)
H9 H 0.2850 0.5770 0.4337
C16 C 0.3110(7) 0.5424(2) 0.2931(6)
H10 H 0.2658 0.5143 0.3153
C17 C 0.3649(7) 0.5449(2) 0.1872(6)
H11 H 0.3524 0.5188 0.1402
C18 C 0.4335(6) 0.5835(2) 0.1516(5)
H12 H 0.4719 0.5847 0.0816
O9 O 0.5815(4) 0.67386(14) 0.5808(3)
N10 N 0.6773(5) 0.67074(17) 0.5021(4)
C19 C 0.7242(6) 0.6294(2) 0.4571(4)
N11 N 0.7284(5) 0.70883(17) 0.4551(4)
C20 C 0.8118(6) 0.6455(2) 0.3750(5)
N12 N 0.8100(5) 0.69385(17) 0.3762(4)
C21 C 0.8812(7) 0.6118(2) 0.3091(5)
H13 H 0.9434 0.6211 0.2542
C22 C 0.8528(8) 0.5652(2) 0.3297(6)
H14 H 0.8940 0.5418 0.2856
C23 C 0.7645(7) 0.5505(2) 0.4141(6)
H15 H 0.7505 0.5177 0.4253
C24 C 0.6994(6) 0.5818(2) 0.4791(5)
H16 H 0.6409 0.5720 0.5359
H23 H -0.119(6) 0.6876(13) 0.908(6)
H24 H -0.385(5) 0.7136(19) 0.708(2)
H25 H -0.109(5) 0.8183(14) 0.628(5)
H26 H 0.327(5) 0.7729(18) 0.493(4)
H27 H 0.165(7) 0.7614(15) 0.762(6)
H28 H 0.452(7) 0.775(3) 0.545(8)
H29 H -0.392(8) 0.7471(16) 0.784(7)
H30 H -0.251(3) 0.804(2) 0.647(5)
H31 H 0.013(3) 0.706(3) 0.914(7)
H32 H 0.140(15) 0.810(4) 0.832(8)
Cu2C Cu 0.88190(7) 0.74423(2) 0.27737(5)
N12C N -0.1900(5) 0.80615(17) 0.8762(4)
O10 O 0.5918(6) 0.64554(19) -0.0730(4)
H33 H 0.621(9) 0.669(2) -0.115(6)
H34 H 0.579(8) 0.664(2) -0.016(4)
C25 C 0.8163(15) 0.5745(5) 0.0261(9)
H17 H 0.7780 0.5810 0.0981
H18 H 0.8484 0.6048 -0.0040
C26 C 0.949(2) 0.5403(7) 0.0405(18)
H19 H 0.9200 0.5109 0.0750
H20 H 1.0203 0.5559 0.0854
H21 H 0.9875 0.5332 -0.0303
O12 O 0.7156(9) 0.5581(3) -0.0356(6)
H22 H 0.6500 0.5778 -0.0385
O11 O 1.0721(5) 0.65203(18) 0.1107(4)
H35 H 1.106(5) 0.6599(18) 0.048(3)
H36 H 1.096(14) 0.628(3) 0.154(9)
loop_
_geom_bond_atom_site_label_1
_geom_bond_atom_site_label_2
_geom_bond_site_symmetry_1
_geom_bond_site_symmetry_2
Cu1 O1 1_555 1_555
O1 H26 1_555 1_555
Cu2 O2 1_555 1_555
O2 H23 1_555 1_555
O3 Cu2 1_555 1_555
O4 Cu2 1_555 1_555
O5 Cu2 1_555 1_555
O6 N1 1_555 1_555
N1 C1 1_555 1_555
C1 C2 1_555 1_555
N2 N1 1_555 1_555
C2 N3 1_555 1_555
N3 Cu1 1_555 1_555
C3 C2 1_555 1_555
H1 C3 1_555 1_555
C4 C3 1_555 1_555
H2 C4 1_555 1_555
C5 C4 1_555 1_555
H3 C5 1_555 1_555
C6 C1 1_555 1_555
H4 C6 1_555 1_555
O7 Cu1 1_555 1_555
N4 O7 1_555 1_555
C7 N4 1_555 1_555
N5 N4 1_555 1_555
C8 C7 1_555 1_555
N6 Cu2 1_555 1_555
C9 C8 1_555 1_555
H5 C9 1_555 1_555
C10 C9 1_555 1_555
H6 C10 1_555 1_555
C11 C10 1_555 1_555
H7 C11 1_555 1_555
C12 C7 1_555 1_555
H8 C12 1_555 1_555
O8 N7 1_555 1_555
N7 C13 1_555 1_555
C13 C14 1_555 1_555
N8 N7 1_555 1_555
C14 N9 1_555 1_555
N9 Cu1 1_555 1_555
C15 C14 1_555 1_555
H9 C15 1_555 1_555
C16 C15 1_555 1_555
H10 C16 1_555 1_555
C17 C16 1_555 1_555
H11 C17 1_555 1_555
C18 C13 1_555 1_555
H12 C18 1_555 1_555
O9 Cu1 1_555 1_555
N10 O9 1_555 1_555
C19 N10 1_555 1_555
N11 N10 1_555 1_555
C20 C19 1_555 1_555
N12 N11 1_555 1_555
C21 C20 1_555 1_555
H13 C21 1_555 1_555
C22 C21 1_555 1_555
H14 C22 1_555 1_555
C23 C22 1_555 1_555
H15 C23 1_555 1_555
C24 C19 1_555 1_555
H16 C24 1_555 1_555
O10 H33 1_555 1_555
C25 H17 1_555 1_555
H18 C25 1_555 1_555
O11 H35 1_555 1_555
C26 C25 1_555 1_555
H19 C26 1_555 1_555
H20 C26 1_555 1_555
H21 C26 1_555 1_555
O12 C25 1_555 1_555
H22 O12 1_555 1_555
H24 O3 1_555 1_555
H25 O4 1_555 1_555
H27 O5 1_555 1_555
H28 O1 1_555 1_555
H29 O3 1_555 1_555
H30 O4 1_555 1_555
H31 O2 1_555 1_555
H32 O5 1_555 1_555
H34 O10 1_555 1_555
H36 O11 1_555 1_555
Cu2C N12 1_555 1_555
N12C Cu2 1_555 1_555
N2 N3 1_555 1_555
C5 C6 1_555 1_555
N5 N6 1_555 1_555
C8 N6 1_555 1_555
C11 C12 1_555 1_555
N8 N9 1_555 1_555
C17 C18 1_555 1_555
C20 N12 1_555 1_555
C23 C24 1_555 1_555

#END
