
#######################################################################
#
#                 Cambridge Crystallographic Data Centre
#                                CCDC 
#
#######################################################################
#
# If this CIF has been generated from an entry in the Cambridge 
# Structural Database, then it will include bibliographic, chemical, 
# crystal, experimental, refinement or atomic coordinate data resulting 
# from the CCDC's data processing and validation procedures.
#
#######################################################################

data_XUMFIW
_symmetry_cell_setting           triclinic
_symmetry_space_group_name_H-M   'P -1'
_symmetry_Int_Tables_number      2
_space_group_name_Hall           '-P 1'
loop_
_symmetry_equiv_pos_site_id
_symmetry_equiv_pos_as_xyz
1 x,y,z
2 -x,-y,-z
_cell_length_a                   10.9158(10)
_cell_length_b                   13.3254(14)
_cell_length_c                   13.5340(17)
_cell_angle_alpha                118.197(12)
_cell_angle_beta                 103.028(9)
_cell_angle_gamma                98.458(8)
_cell_volume                     1614.93
loop_
_atom_site_label
_atom_site_type_symbol
_atom_site_fract_x
_atom_site_fract_y
_atom_site_fract_z
Zn1 Zn 0.01022(7) 0.95572(6) 0.27437(6)
Zn2 Zn 0.36520(7) 1.25154(7) 0.68214(6)
C1 C 0.2573(7) 1.1403(6) 0.4245(6)
C2 C 0.3960(7) 1.1833(7) 0.4310(7)
H1 H 0.3920 1.1786 0.3566
H2 H 0.4420 1.1280 0.4360
C3 C 0.4786(8) 1.3081(8) 0.5320(7)
C4 C -0.2319(7) 0.9526(6) 0.3006(6)
C5 C -0.3500(7) 0.9973(6) 0.3172(7)
H3 H -0.3317 1.0485 0.4020
H4 H -0.3566 1.0469 0.2831
C6 C -0.4832(8) 0.9074(8) 0.2658(8)
C7 C 0.1865(6) 0.8169(5) 0.3210(6)
H5 H 0.2414 0.8328 0.2834
C8 C 0.2000(6) 0.7519(6) 0.3722(6)
H6 H 0.2654 0.7151 0.3767
C9 C 0.0287(6) 0.8142(5) 0.3924(5)
H7 H -0.0450 0.8279 0.4141
C10 C 0.1648(7) 0.1554(6) -0.0178(6)
H8 H 0.2418 0.1617 -0.0358
C11 C 0.1579(8) 0.1838(7) 0.0891(6)
H9 H 0.2286 0.2136 0.1585
C12 C -0.0409(7) 0.1194(5) -0.0366(5)
H10 H -0.1322 0.0968 -0.0687
C13 C 0.0727(8) 0.6927(5) 0.4825(6)
H11 H -0.0015 0.7111 0.5080
H12 H 0.1489 0.7239 0.5530
C14 C 0.0430(7) 0.5577(5) 0.4053(5)
C15 C 0.1389(7) 0.5039(6) 0.4202(6)
H13 H 0.2200 0.5494 0.4803
C16 C 0.1143(8) 0.3823(6) 0.3458(6)
H14 H 0.1801 0.3473 0.3553
C17 C -0.0065(7) 0.3125(5) 0.2577(5)
C18 C -0.1033(7) 0.3657(6) 0.2468(6)
H15 H -0.1859 0.3197 0.1893
C19 C -0.0785(8) 0.4882(6) 0.3212(6)
H16 H -0.1452 0.5230 0.3136
C20 C -0.0308(8) 0.1805(5) 0.1719(6)
H17 H 0.0077 0.1458 0.2155
H18 H -0.1248 0.1409 0.1357
C21 C 0.4059(7) 1.5173(6) 0.8471(7)
H19 H 0.4439 1.5399 0.8030
C22 C 0.3926(7) 1.5932(6) 0.9513(7)
H20 H 0.4196 1.6760 0.9920
C23 C 0.3107(7) 1.4104(6) 0.9020(6)
H21 H 0.2701 1.3455 0.9043
C24 C 0.2850(6) 1.5623(7) 1.0880(6)
H22 H 0.3235 1.6475 1.1431
H23 H 0.3123 1.5224 1.1296
C25 C 0.1362(6) 1.5317(5) 1.0450(5)
C26 C 0.0611(7) 1.4469(7) 1.0537(7)
H24 H 0.1015 1.4103 1.0900
C27 C 0.0742(8) 1.5849(6) 0.9910(7)
H25 H 0.1244 1.6430 0.9847
N1 N 0.0772(5) 0.8561(4) 0.3335(4)
N2 N 0.0985(5) 0.7504(4) 0.4165(4)
N3 N 0.0393(5) 0.1152(4) -0.0969(4)
N4 N 0.0268(6) 0.1607(4) 0.0777(4)
N5 N 0.3551(5) 1.4021(5) 0.8159(5)
N6 N 0.3319(5) 1.5238(5) 0.9847(5)
O1 O 0.1724(4) 1.0803(4) 0.3218(4)
O2 O 0.2309(4) 1.1600(4) 0.5169(4)
O3 O 0.4794(5) 1.3420(5) 0.6340(5)
O4 O 0.5510(6) 1.3679(6) 0.5094(6)
O5 O -0.1323(4) 1.0255(4) 0.3128(4)
O6 O -0.2348(4) 0.8501(4) 0.2745(4)
O7 O -0.4946(5) 0.8264(5) 0.2873(5)
O8 O -0.5806(6) 0.9181(6) 0.2087(6)
C21A C -0.4059(7) 1.4827(6) 1.1529(7)
H19A H -0.4439 1.4601 1.1970
C22A C -0.3926(7) 1.4068(6) 1.0487(7)
H20A H -0.4196 1.3240 1.0080
C23A C -0.3107(7) 1.5896(6) 1.0980(6)
H21A H -0.2701 1.6545 1.0957
C24A C -0.2850(6) 1.4377(7) 0.9120(6)
H22A H -0.3235 1.3525 0.8569
H23A H -0.3123 1.4776 0.8704
C25A C -0.1362(6) 1.4683(5) 0.9550(5)
C26A C -0.0611(7) 1.5531(7) 0.9463(7)
H24A H -0.1015 1.5897 0.9100
C27A C -0.0742(8) 1.4151(6) 1.0090(7)
H25A H -0.1244 1.3570 1.0153
N5A N -0.3551(5) 1.5979(5) 1.1841(5)
N6A N -0.3319(5) 1.4762(5) 1.0153(5)
Zn1A Zn -0.01022(7) 0.04428(6) -0.27437(6)
Zn2A Zn -0.36520(7) -0.25154(7) -0.68214(6)
C1A C -0.2573(7) -0.1403(6) -0.4245(6)
C2A C -0.3960(7) -0.1833(7) -0.4310(7)
H1A H -0.3920 -0.1786 -0.3566
H2A H -0.4420 -0.1280 -0.4360
C3A C -0.4786(8) -0.3081(8) -0.5320(7)
C4A C 0.2319(7) 0.0474(6) -0.3006(6)
C5A C 0.3500(7) 0.0027(6) -0.3172(7)
H3A H 0.3317 -0.0485 -0.4020
H4A H 0.3566 -0.0469 -0.2831
C6A C 0.4832(8) 0.0926(8) -0.2658(8)
C7A C -0.1865(6) 0.1831(5) -0.3210(6)
H5A H -0.2414 0.1672 -0.2834
C8A C -0.2000(6) 0.2481(6) -0.3722(6)
H6A H -0.2654 0.2849 -0.3767
C9A C -0.0287(6) 0.1858(5) -0.3924(5)
H7A H 0.0450 0.1721 -0.4141
C10A C -0.1648(7) 0.8446(6) 0.0178(6)
H8A H -0.2418 0.8383 0.0358
C11A C -0.1579(8) 0.8162(7) -0.0891(6)
H9A H -0.2286 0.7864 -0.1585
C12A C 0.0409(7) 0.8806(5) 0.0366(5)
H10A H 0.1322 0.9032 0.0687
C13A C -0.0727(8) 0.3073(5) -0.4825(6)
H11A H 0.0015 0.2889 -0.5080
H12A H -0.1489 0.2761 -0.5530
C14A C -0.0430(7) 0.4423(5) -0.4053(5)
C15A C -0.1389(7) 0.4961(6) -0.4202(6)
H13A H -0.2200 0.4506 -0.4803
C16A C -0.1143(8) 0.6177(6) -0.3458(6)
H14A H -0.1801 0.6527 -0.3553
C17A C 0.0065(7) 0.6875(5) -0.2577(5)
C18A C 0.1033(7) 0.6343(6) -0.2468(6)
H15A H 0.1859 0.6803 -0.1893
C19A C 0.0785(8) 0.5118(6) -0.3212(6)
H16A H 0.1452 0.4770 -0.3136
C20A C 0.0308(8) 0.8195(5) -0.1719(6)
H17A H -0.0077 0.8542 -0.2155
H18A H 0.1248 0.8591 -0.1357
N1A N -0.0772(5) 0.1439(4) -0.3335(4)
N2A N -0.0985(5) 0.2496(4) -0.4165(4)
N3A N -0.0393(5) 0.8848(4) 0.0969(4)
N4A N -0.0268(6) 0.8393(4) -0.0777(4)
O1A O -0.1724(4) -0.0803(4) -0.3218(4)
O2A O -0.2309(4) -0.1600(4) -0.5169(4)
O3A O -0.4794(5) -0.3420(5) -0.6340(5)
O4A O -0.5510(6) -0.3679(6) -0.5094(6)
O5A O 0.1323(4) -0.0255(4) -0.3128(4)
O6A O 0.2348(4) 0.1499(4) -0.2745(4)
O7A O 0.4946(5) 0.1736(5) -0.2873(5)
O8A O 0.5806(6) 0.0819(6) -0.2087(6)
Zn2_2 Zn 0.36520(7) 0.25154(7) -0.31786(6)
Zn2A_2 Zn -0.36520(7) 0.74846(7) 0.31786(6)
Zn2A_3 Zn -0.36520(7) 1.74846(7) 1.31786(6)
N5A_2 N -0.3551(5) -0.4021(5) -0.8159(5)
O6_2 O -0.2348(4) -0.1499(4) -0.7255(4)
O6A_2 O 0.2348(4) 1.1499(4) 0.7255(4)
O7_2 O -0.4946(5) -0.1736(5) -0.7127(5)
O7A_2 O 0.4946(5) 1.1736(5) 0.7127(5)
O9 O 0.4560(9) 1.3779(7) 0.3109(6)
H26 H 0.4147 1.4273 0.3109
H27 H 0.5378 1.4135 0.3474
O10 O -0.6479(8) 0.9404(8) 0.0162(8)
H28 H -0.6733 0.8755 0.0136
H29 H -0.6732 0.9710 0.0762
O11 O -0.5133(10) 1.1828(9) 0.1022(11)
H30 H -0.5686 1.1293 0.1003
H31 H -0.4507 1.1667 0.0757
loop_
_geom_bond_atom_site_label_1
_geom_bond_atom_site_label_2
_geom_bond_site_symmetry_1
_geom_bond_site_symmetry_2
Zn1 N1 1_555 1_555
Zn2 N5 1_555 1_555
C1 C2 1_555 1_555
C2 H1 1_555 1_555
H2 C2 1_555 1_555
C3 C2 1_555 1_555
C4 C5 1_555 1_555
C5 H3 1_555 1_555
H4 C5 1_555 1_555
C6 C5 1_555 1_555
C7 H5 1_555 1_555
C8 C7 1_555 1_555
H6 C8 1_555 1_555
C9 H7 1_555 1_555
C10 H8 1_555 1_555
C11 C10 1_555 1_555
H9 C11 1_555 1_555
C12 H10 1_555 1_555
C13 H11 1_555 1_555
H12 C13 1_555 1_555
C14 C13 1_555 1_555
C15 C14 1_555 1_555
H13 C15 1_555 1_555
C16 C15 1_555 1_555
H14 C16 1_555 1_555
C17 C16 1_555 1_555
C18 C17 1_555 1_555
H15 C18 1_555 1_555
C19 C14 1_555 1_555
H16 C19 1_555 1_555
C20 C17 1_555 1_555
H17 C20 1_555 1_555
H18 C20 1_555 1_555
C21 H19 1_555 1_555
C22 C21 1_555 1_555
H20 C22 1_555 1_555
C23 H21 1_555 1_555
C24 H22 1_555 1_555
H23 C24 1_555 1_555
C25 C24 1_555 1_555
C26 C25 1_555 1_555
H24 C26 1_555 1_555
C27 C25 1_555 1_555
H25 C27 1_555 1_555
N1 C7 1_555 1_555
N2 C8 1_555 1_555
N3 C10 1_555 1_555
N4 C11 1_555 1_555
N5 C21 1_555 1_555
N6 C22 1_555 1_555
O1 Zn1 1_555 1_555
O2 Zn2 1_555 1_555
O3 Zn2 1_555 1_555
O4 C3 1_555 1_555
O5 Zn1 1_555 1_555
O6 C4 1_555 1_555
O7 C6 1_555 1_555
O8 C6 1_555 1_555
O9 H26 1_555 1_555
H27 O9 1_555 1_555
O10 H28 1_555 1_555
H29 O10 1_555 1_555
O11 H30 1_555 1_555
H31 O11 1_555 1_555
C21A H19A 1_555 1_555
C22A C21A 1_555 1_555
H20A C22A 1_555 1_555
C23A H21A 1_555 1_555
C24A H22A 1_555 1_555
H23A C24A 1_555 1_555
C25A C24A 1_555 1_555
C26A C27 1_555 1_555
H24A C26A 1_555 1_555
C27A C26 1_555 1_555
H25A C27A 1_555 1_555
N5A C21A 1_555 1_555
N6A C22A 1_555 1_555
Zn1A N3 1_555 1_555
Zn2A O2A 1_555 1_555
C1A C2A 1_555 1_555
C2A H1A 1_555 1_555
H2A C2A 1_555 1_555
C3A C2A 1_555 1_555
C4A C5A 1_555 1_555
C5A H3A 1_555 1_555
H4A C5A 1_555 1_555
C6A C5A 1_555 1_555
C7A H5A 1_555 1_555
C8A C7A 1_555 1_555
H6A C8A 1_555 1_555
C9A H7A 1_555 1_555
C10A H8A 1_555 1_555
C11A C10A 1_555 1_555
H9A C11A 1_555 1_555
C12A H10A 1_555 1_555
C13A H11A 1_555 1_555
H12A C13A 1_555 1_555
C14A C13A 1_555 1_555
C15A C14A 1_555 1_555
H13A C15A 1_555 1_555
C16A C15A 1_555 1_555
H14A C16A 1_555 1_555
C17A C16A 1_555 1_555
C18A C17A 1_555 1_555
H15A C18A 1_555 1_555
C19A C14A 1_555 1_555
H16A C19A 1_555 1_555
C20A C17A 1_555 1_555
H17A C20A 1_555 1_555
H18A C20A 1_555 1_555
N1A Zn1A 1_555 1_555
N2A C8A 1_555 1_555
N3A Zn1 1_555 1_555
N4A C11A 1_555 1_555
O1A Zn1A 1_555 1_555
O2A C1A 1_555 1_555
O3A Zn2A 1_555 1_555
O4A C3A 1_555 1_555
O5A Zn1A 1_555 1_555
O6A C4A 1_555 1_555
O7A C6A 1_555 1_555
O8A C6A 1_555 1_555
Zn2_2 O6A 1_555 1_555
Zn2A_2 O6 1_555 1_555
Zn2A_3 N5A 1_555 1_555
N5A_2 Zn2A 1_555 1_555
O6_2 Zn2A 1_555 1_555
O6A_2 Zn2 1_555 1_555
O7_2 Zn2A 1_555 1_555
O7A_2 Zn2 1_555 1_555
C1 O1 1_555 1_555
C1 O2 1_555 1_555
C3 O3 1_555 1_555
C4 O5 1_555 1_555
C9 N1 1_555 1_555
C9 N2 1_555 1_555
C12 N3 1_555 1_555
C12 N4 1_555 1_555
C13 N2 1_555 1_555
C18 C19 1_555 1_555
C20 N4 1_555 1_555
C23 N5 1_555 1_555
C23 N6 1_555 1_555
C24 N6 1_555 1_555
O7 Zn2A_2 1_555 1_555
C23A N5A 1_555 1_555
C23A N6A 1_555 1_555
C24A N6A 1_555 1_555
C25A C26A 1_555 1_555
C25A C27A 1_555 1_555
C1A O1A 1_555 1_555
C3A O3A 1_555 1_555
C4A O5A 1_555 1_555
C7A N1A 1_555 1_555
C9A N1A 1_555 1_555
C9A N2A 1_555 1_555
C10A N3A 1_555 1_555
C12A N3A 1_555 1_555
C12A N4A 1_555 1_555
C13A N2A 1_555 1_555
C18A C19A 1_555 1_555
C20A N4A 1_555 1_555
O7A Zn2_2 1_555 1_555

#END
