
#######################################################################
#
#                 Cambridge Crystallographic Data Centre
#                                CCDC 
#
#######################################################################
#
# If this CIF has been generated from an entry in the Cambridge 
# Structural Database, then it will include bibliographic, chemical, 
# crystal, experimental, refinement or atomic coordinate data resulting 
# from the CCDC's data processing and validation procedures.
#
#######################################################################

data_XUMFOC
_symmetry_cell_setting           monoclinic
_symmetry_space_group_name_H-M   'P 21/n'
_symmetry_Int_Tables_number      14
_space_group_name_Hall           '-P 2yn'
loop_
_symmetry_equiv_pos_site_id
_symmetry_equiv_pos_as_xyz
1 x,y,z
2 1/2-x,1/2+y,1/2-z
3 -x,-y,-z
4 1/2+x,1/2-y,1/2+z
_cell_length_a                   7.9583(13)
_cell_length_b                   15.7360(16)
_cell_length_c                   20.212(2)
_cell_angle_alpha                90
_cell_angle_beta                 94.999(12)
_cell_angle_gamma                90
_cell_volume                     2521.56
loop_
_atom_site_label
_atom_site_type_symbol
_atom_site_fract_x
_atom_site_fract_y
_atom_site_fract_z
Zn1 Zn -0.13860(9) 0.67257(4) 0.73243(3)
C1 C -0.2045(8) 0.7122(4) 0.5863(3)
H1 H -0.1105 0.6818 0.5754
C2 C -0.3141(9) 0.7513(4) 0.5425(3)
H2 H -0.3103 0.7538 0.4967
C3 C -0.3883(8) 0.7687(4) 0.6422(3)
H3 H -0.4484 0.7861 0.6772
C4 C -0.5806(9) 0.8350(4) 0.5531(4)
H4 H -0.6534 0.8432 0.5886
H5 H -0.6428 0.8023 0.5184
C5 C -0.5368(7) 0.9207(4) 0.5255(3)
C6 C -0.4703(8) 0.9841(5) 0.5658(3)
H6 H -0.4497 0.9739 0.6111
C7 C -0.5670(8) 0.9376(4) 0.4589(3)
H7 H -0.6130 0.8957 0.4303
C8 C -0.2775(9) 0.4982(4) 0.7627(3)
H8 H -0.1990 0.4690 0.7400
C9 C -0.4018(8) 0.4623(4) 0.7936(3)
H9 H -0.4252 0.4045 0.7964
C10 C -0.4123(8) 0.5985(4) 0.8054(3)
H10 H -0.4463 0.6520 0.8184
C11 C -0.6283(7) 0.5192(5) 0.8627(3)
H11 H -0.6971 0.4704 0.8488
H12 H -0.6985 0.5695 0.8576
C12 C -0.5631(7) 0.5092(4) 0.9345(3)
C13 C -0.5589(8) 0.5772(5) 0.9759(3)
H13 H -0.5995 0.6295 0.9602
C14 C -0.5057(8) 0.4309(4) 0.9586(3)
H14 H -0.5106 0.3838 0.9307
C15 C 0.1236(17) 0.5979(7) 0.6859(5)
C16 C 0.2956(10) 0.5716(7) 0.6622(4)
H15 H 0.3671 0.6216 0.6636
H16 H 0.3476 0.5314 0.6940
C17 C 0.2959(17) 0.5352(8) 0.5982(5)
H17 H 0.2213 0.4864 0.5960
H18 H 0.4088 0.5146 0.5929
C18 C 0.2444(17) 0.5918(10) 0.5419(5)
H19 H 0.1224 0.5958 0.5386
H20 H 0.2881 0.6480 0.5530
C19 C 0.290(2) 0.5721(10) 0.4826(5)
H21 H 0.2484 0.5152 0.4722
H22 H 0.4120 0.5692 0.4860
C20 C 0.2367(19) 0.6269(11) 0.4249(5)
H23 H 0.1464 0.5980 0.3985
H24 H 0.1897 0.6787 0.4416
C21 C 0.3552(18) 0.6491(7) 0.3839(6)
H25 H 0.3995 0.5969 0.3667
H26 H 0.4470 0.6757 0.4111
C22 C 0.312(2) 0.7058(6) 0.3264(5)
O1 O 0.0985(14) 0.6586(8) 0.7070(5)
O2 O 0.0162(13) 0.5440(8) 0.6722(6)
O3 O 0.4277(10) 0.7515(4) 0.3069(3)
O4 O 0.1720(11) 0.7080(4) 0.2984(4)
N1 N -0.2503(6) 0.7234(3) 0.6490(2)
N2 N -0.4317(6) 0.7866(3) 0.5786(3)
N3 N -0.2839(6) 0.5847(3) 0.7698(2)
N4 N -0.4866(6) 0.5267(3) 0.8201(2)
C1B C -0.7955(8) 1.2878(4) 0.4137(3)
H1B H -0.8895 1.3182 0.4246
C2B C -0.6859(9) 1.2487(4) 0.4575(3)
H2B H -0.6897 1.2462 0.5033
C3B C -0.6117(8) 1.2313(4) 0.3578(3)
H3B H -0.5516 1.2139 0.3228
C4B C -0.4194(9) 1.1650(4) 0.4469(4)
H4B H -0.3466 1.1568 0.4114
H5B H -0.3572 1.1977 0.4816
C5B C -0.4632(7) 1.0793(4) 0.4745(3)
C6B C -0.5297(8) 1.0159(5) 0.4342(3)
H6B H -0.5503 1.0261 0.3889
C7B C -0.4330(8) 1.0624(4) 0.5411(3)
H7B H -0.3870 1.1043 0.5697
N1B N -0.7497(6) 1.2766(3) 0.3510(2)
N2B N -0.5683(6) 1.2134(3) 0.4214(3)
C8B C -0.7225(9) 0.5018(4) 1.2373(3)
H8B H -0.8010 0.5310 1.2600
C9B C -0.5982(8) 0.5377(4) 1.2064(3)
H9B H -0.5748 0.5955 1.2036
C10B C -0.5877(8) 0.4015(4) 1.1946(3)
H10B H -0.5537 0.3480 1.1816
C11B C -0.3717(7) 0.4808(5) 1.1373(3)
H11B H -0.3029 0.5296 1.1512
H12B H -0.3015 0.4305 1.1424
C12B C -0.4369(7) 0.4908(4) 1.0655(3)
C13B C -0.4411(8) 0.4228(5) 1.0241(3)
H13B H -0.4005 0.3705 1.0398
C14B C -0.4943(8) 0.5691(4) 1.0414(3)
H14B H -0.4894 0.6162 1.0693
N3B N -0.7161(6) 0.4153(3) 1.2302(2)
N4B N -0.5134(6) 0.4733(3) 1.1799(2)
Zn1B Zn -0.86140(9) 0.32743(4) 1.26757(3)
C15B C -1.1236(17) 0.4021(7) 1.3141(5)
C16B C -1.2956(10) 0.4284(7) 1.3378(4)
H15B H -1.3671 0.3784 1.3364
H16B H -1.3476 0.4686 1.3060
C17B C -1.2959(17) 0.4648(8) 1.4018(5)
H17B H -1.2213 0.5136 1.4040
H18B H -1.4088 0.4854 1.4071
C18B C -1.2444(17) 0.4082(10) 1.4581(5)
H19B H -1.1224 0.4042 1.4614
H20B H -1.2881 0.3520 1.4470
C19B C -1.290(2) 0.4279(10) 1.5174(5)
H21B H -1.2484 0.4848 1.5278
H22B H -1.4120 0.4308 1.5140
C20B C -1.2367(19) 0.3731(11) 1.5751(5)
H23B H -1.1464 0.4020 1.6015
H24B H -1.1897 0.3213 1.5584
C21B C -1.3552(18) 0.3509(7) 1.6161(6)
H25B H -1.3995 0.4031 1.6333
H26B H -1.4470 0.3243 1.5889
C22B C -1.312(2) 0.2942(6) 1.6736(5)
O1B O -1.0985(14) 0.3414(8) 1.2930(5)
O2B O -1.0162(13) 0.4560(8) 1.3278(6)
O3B O -1.4277(10) 0.2485(4) 1.6931(3)
O4B O -1.1720(11) 0.2920(4) 1.7016(4)
Zn1A Zn -1.36140(9) 0.17257(4) 1.76757(3)
Zn1B_2 Zn -0.86140(9) 1.32743(4) 0.26757(3)
Zn1C Zn 0.36140(9) 0.82743(4) 0.23243(3)
O3A O -0.9277(10) 0.2515(4) 1.1931(3)
O3C O -0.0723(10) 0.7485(4) 0.8069(3)
N1B_2 N -0.7497(6) 0.2766(3) 1.3510(2)
O5 O 0.2327(12) 0.8236(5) 0.6979(5)
O6 O 0.2562(11) 0.7425(4) 0.8755(3)
O7 O -0.1052(11) 0.6272(6) 0.3063(7)
loop_
_geom_bond_atom_site_label_1
_geom_bond_atom_site_label_2
_geom_bond_site_symmetry_1
_geom_bond_site_symmetry_2
Zn1 O1 1_555 1_555
C1 H1 1_555 1_555
C2 C1 1_555 1_555
H2 C2 1_555 1_555
C3 H3 1_555 1_555
C4 H4 1_555 1_555
H5 C4 1_555 1_555
C5 C4 1_555 1_555
C6 C5 1_555 1_555
H6 C6 1_555 1_555
C7 C5 1_555 1_555
H7 C7 1_555 1_555
C8 H8 1_555 1_555
C9 C8 1_555 1_555
H9 C9 1_555 1_555
C10 H10 1_555 1_555
C11 H11 1_555 1_555
H12 C11 1_555 1_555
C12 C11 1_555 1_555
C13 C12 1_555 1_555
H13 C13 1_555 1_555
C14 C12 1_555 1_555
H14 C14 1_555 1_555
C15 C16 1_555 1_555
C16 H15 1_555 1_555
H16 C16 1_555 1_555
C17 C16 1_555 1_555
H17 C17 1_555 1_555
H18 C17 1_555 1_555
C18 C17 1_555 1_555
H19 C18 1_555 1_555
H20 C18 1_555 1_555
C19 C18 1_555 1_555
H21 C19 1_555 1_555
H22 C19 1_555 1_555
C20 C19 1_555 1_555
H23 C20 1_555 1_555
H24 C20 1_555 1_555
C21 C20 1_555 1_555
H25 C21 1_555 1_555
H26 C21 1_555 1_555
C22 C21 1_555 1_555
O1 C15 1_555 1_555
O2 C15 1_555 1_555
O3 C22 1_555 1_555
O4 C22 1_555 1_555
N1 Zn1 1_555 1_555
N2 C2 1_555 1_555
N3 Zn1 1_555 1_555
N4 C9 1_555 1_555
C1B H1B 1_555 1_555
C2B C1B 1_555 1_555
H2B C2B 1_555 1_555
C3B H3B 1_555 1_555
C4B H4B 1_555 1_555
H5B C4B 1_555 1_555
C5B C4B 1_555 1_555
C6B C7 1_555 1_555
H6B C6B 1_555 1_555
C7B C6 1_555 1_555
H7B C7B 1_555 1_555
N1B C1B 1_555 1_555
N2B C2B 1_555 1_555
C8B H8B 1_555 1_555
C9B C8B 1_555 1_555
H9B C9B 1_555 1_555
C10B H10B 1_555 1_555
C11B H11B 1_555 1_555
H12B C11B 1_555 1_555
C12B C11B 1_555 1_555
C13B C14 1_555 1_555
H13B C13B 1_555 1_555
C14B C13 1_555 1_555
H14B C14B 1_555 1_555
N3B C8B 1_555 1_555
N4B C9B 1_555 1_555
Zn1B N3B 1_555 1_555
C15B C16B 1_555 1_555
C16B H15B 1_555 1_555
H16B C16B 1_555 1_555
C17B C16B 1_555 1_555
H17B C17B 1_555 1_555
H18B C17B 1_555 1_555
C18B C17B 1_555 1_555
H19B C18B 1_555 1_555
H20B C18B 1_555 1_555
C19B C18B 1_555 1_555
H21B C19B 1_555 1_555
H22B C19B 1_555 1_555
C20B C19B 1_555 1_555
H23B C20B 1_555 1_555
H24B C20B 1_555 1_555
C21B C20B 1_555 1_555
H25B C21B 1_555 1_555
H26B C21B 1_555 1_555
C22B C21B 1_555 1_555
O1B Zn1B 1_555 1_555
O2B C15B 1_555 1_555
O3B C22B 1_555 1_555
O4B C22B 1_555 1_555
Zn1A O3B 1_555 1_555
Zn1B_2 N1B 1_555 1_555
Zn1C O3 1_555 1_555
O3A Zn1B 1_555 1_555
O3C Zn1 1_555 1_555
N1B_2 Zn1B 1_555 1_555
C1 N1 1_555 1_555
C3 N1 1_555 1_555
C3 N2 1_555 1_555
C4 N2 1_555 1_555
C8 N3 1_555 1_555
C10 N3 1_555 1_555
C10 N4 1_555 1_555
C11 N4 1_555 1_555
C3B N1B 1_555 1_555
C3B N2B 1_555 1_555
C4B N2B 1_555 1_555
C5B C6B 1_555 1_555
C5B C7B 1_555 1_555
C10B N3B 1_555 1_555
C10B N4B 1_555 1_555
C11B N4B 1_555 1_555
C12B C13B 1_555 1_555
C12B C14B 1_555 1_555
C15B O1B 1_555 1_555

#END
