
#######################################################################
#
#                 Cambridge Crystallographic Data Centre
#                                CCDC 
#
#######################################################################
#
# If this CIF has been generated from an entry in the Cambridge 
# Structural Database, then it will include bibliographic, chemical, 
# crystal, experimental, refinement or atomic coordinate data resulting 
# from the CCDC's data processing and validation procedures.
#
#######################################################################

data_XUMFAN
_symmetry_cell_setting           monoclinic
_symmetry_space_group_name_H-M   'P 21/c'
_symmetry_Int_Tables_number      14
_space_group_name_Hall           '-P 2ybc'
loop_
_symmetry_equiv_pos_site_id
_symmetry_equiv_pos_as_xyz
1 x,y,z
2 -x,1/2+y,1/2-z
3 -x,-y,-z
4 x,1/2-y,1/2+z
_cell_length_a                   12.4552(10)
_cell_length_b                   22.3421(16)
_cell_length_c                   11.4363(9)
_cell_angle_alpha                90
_cell_angle_beta                 111.832(2)
_cell_angle_gamma                90
_cell_volume                     2954.19
loop_
_atom_site_label
_atom_site_type_symbol
_atom_site_fract_x
_atom_site_fract_y
_atom_site_fract_z
Cu1 Cu -0.5000 -0.5000 0.0000
Cu2 Cu -0.04339(4) -0.15314(2) 0.54135(5)
S1 S -0.56771(9) -0.22360(4) 0.15945(10)
S2 S -0.47979(9) -0.60535(5) 0.54749(10)
S3 S -0.17391(8) -0.48141(4) 0.11519(9)
Cl1 Cl 0.0487(2) -0.21802(16) 0.4134(3)
O1 O -0.0338(3) -0.08180(14) 0.4369(3)
H1 H 0.034(2) -0.069(3) 0.455(6)
H2 H -0.083(6) -0.217(3) 0.702(4)
O2 O -0.0651(3) -0.22650(14) 0.6412(3)
H3 H -0.078(4) -0.0550(19) 0.444(6)
H4 H -0.095(6) -0.2575(18) 0.602(6)
O3 O -0.2989(2) -0.48045(14) 0.0835(3)
O4 O -0.1264(2) -0.42059(13) 0.1469(3)
O5 O -0.1491(3) -0.50348(14) 0.0053(3)
O6 O -0.1178(3) -0.52153(15) 0.2228(3)
N1 N -0.5265(3) -0.41694(14) 0.0572(3)
N2 N -0.2057(3) -0.16755(15) 0.4184(3)
N3 N -0.4867(3) -0.53110(14) 0.1741(3)
N4 N -0.1120(3) -0.63846(15) 0.8219(3)
C1 C -0.4423(4) -0.39055(18) 0.1540(4)
H5 H -0.3748 -0.4131 0.1987
C2 C -0.4486(3) -0.33251(18) 0.1918(4)
H6 H -0.3875 -0.3159 0.2615
C3 C -0.5467(3) -0.29862(17) 0.1256(4)
C4 C -0.6364(3) -0.32618(19) 0.0295(4)
H7 H -0.7059 -0.3050 -0.0147
C5 C -0.6233(3) -0.38469(18) -0.0011(4)
H8 H -0.6857 -0.4032 -0.0665
C6 C -0.2274(4) -0.18300(18) 0.2979(4)
H9 H -0.1656 -0.1818 0.2683
C7 C -0.3354(3) -0.20043(18) 0.2156(4)
H10 H -0.3479 -0.2108 0.1310
C8 C -0.4253(3) -0.20246(17) 0.2595(4)
C9 C -0.4045(4) -0.18529(19) 0.3820(4)
H11 H -0.4651 -0.1855 0.4136
C10 C -0.2942(4) -0.1679(2) 0.4577(4)
H12 H -0.2805 -0.1556 0.5415
C11 C -0.5812(3) -0.53378(18) 0.2043(4)
H13 H -0.6528 -0.5202 0.1444
C12 C -0.5790(3) -0.55533(17) 0.3183(4)
H14 H -0.6478 -0.5567 0.3358
C13 C -0.4740(3) -0.57522(17) 0.4078(4)
C14 C -0.3763(4) -0.57256(19) 0.3774(4)
H15 H -0.3037 -0.5862 0.4353
C15 C -0.3859(3) -0.54986(19) 0.2619(4)
H16 H -0.3179 -0.5473 0.2431
C16 C -0.1432(4) -0.58429(19) 0.7704(4)
H17 H -0.0880 -0.5528 0.7955
C17 C -0.2522(4) -0.57206(19) 0.6822(4)
H18 H -0.2714 -0.5330 0.6480
C18 C -0.3326(3) -0.61771(19) 0.6451(4)
C19 C -0.2998(4) -0.6743(2) 0.6932(4)
H19 H -0.3522 -0.7070 0.6660
C20 C -0.1897(4) -0.68294(19) 0.7816(4)
H20 H -0.1680 -0.7219 0.8154
Cu2A Cu -0.95661(4) -0.65314(2) -0.04135(5)
Cu2C Cu -0.04339(4) -0.34686(2) 0.04135(5)
Cu2A_2 Cu 0.04339(4) -0.65314(2) 0.95865(5)
Cu2B Cu -0.95661(4) -0.84686(2) -0.54135(5)
Cu2C_2 Cu -1.04339(4) -0.34686(2) -0.95865(5)
S1B S -0.43229(9) -0.77640(4) -0.15945(10)
S2B S -0.52021(9) -0.39465(5) -0.54749(10)
S3B S -0.82609(8) -0.51859(4) -0.11519(9)
Cl1A Cl -0.0487(2) -0.71802(16) 1.0866(3)
O1A O 0.0338(3) -0.58180(14) 1.0631(3)
H1A H -0.034(2) -0.569(3) 1.045(6)
H2A H 0.083(6) -0.717(3) 0.798(4)
O2A O 0.0651(3) -0.72650(14) 0.8588(3)
H3A H 0.078(4) -0.5550(19) 1.056(6)
H4A H 0.095(6) -0.7575(18) 0.898(6)
O3B O -0.7011(2) -0.51955(14) -0.0835(3)
O4B O -0.8736(2) -0.57941(13) -0.1469(3)
O4C O -0.1264(2) -0.07941(13) 0.6469(3)
O4B_2 O 0.1264(2) -0.57941(13) 0.8531(3)
O5B O -0.8509(3) -0.49652(14) -0.0053(3)
O6B O -0.8822(3) -0.47847(15) -0.2228(3)
N1B N -0.4735(3) -0.58306(14) -0.0572(3)
N2B N -0.7943(3) -0.83245(15) -0.4184(3)
N2A N 0.2057(3) -0.66755(15) 1.0816(3)
N3B N -0.5133(3) -0.46890(14) -0.1741(3)
N4B N -0.8880(3) -0.36154(15) -0.8219(3)
N4A N 0.1120(3) -0.13846(15) 0.6781(3)
C1B C -0.5577(4) -0.60945(18) -0.1540(4)
H5B H -0.6252 -0.5869 -0.1987
C2B C -0.5514(3) -0.66749(18) -0.1918(4)
H6B H -0.6125 -0.6841 -0.2615
C3B C -0.4533(3) -0.70138(17) -0.1256(4)
C4B C -0.3636(3) -0.67382(19) -0.0295(4)
H7B H -0.2941 -0.6950 0.0147
C5B C -0.3767(3) -0.61531(18) 0.0011(4)
H8B H -0.3143 -0.5968 0.0665
C6B C -0.7726(4) -0.81700(18) -0.2979(4)
H9B H -0.8344 -0.8182 -0.2683
C7B C -0.6646(3) -0.79957(18) -0.2156(4)
H10B H -0.6521 -0.7892 -0.1310
C8B C -0.5747(3) -0.79754(17) -0.2595(4)
C9B C -0.5955(4) -0.81471(19) -0.3820(4)
H11B H -0.5349 -0.8145 -0.4136
C10B C -0.7058(4) -0.8321(2) -0.4577(4)
H12B H -0.7195 -0.8444 -0.5415
C11B C -0.4188(3) -0.46622(18) -0.2043(4)
H13B H -0.3472 -0.4798 -0.1444
C12B C -0.4210(3) -0.44467(17) -0.3183(4)
H14B H -0.3522 -0.4433 -0.3358
C13B C -0.5260(3) -0.42478(17) -0.4078(4)
C14B C -0.6237(4) -0.42744(19) -0.3774(4)
H15B H -0.6963 -0.4138 -0.4353
C15B C -0.6141(3) -0.45014(19) -0.2619(4)
H16B H -0.6821 -0.4527 -0.2431
C16B C -0.8568(4) -0.41571(19) -0.7704(4)
H17B H -0.9120 -0.4472 -0.7955
C17B C -0.7478(4) -0.42794(19) -0.6822(4)
H18B H -0.7286 -0.4670 -0.6480
C18B C -0.6674(3) -0.38229(19) -0.6451(4)
C19B C -0.7002(4) -0.3257(2) -0.6932(4)
H19B H -0.6478 -0.2930 -0.6660
C20B C -0.8103(4) -0.31706(19) -0.7816(4)
H20B H -0.8320 -0.2781 -0.8154
O7 O -0.1567(4) -0.0676(2) 0.1407(5)
O8 O -0.2021(3) -0.32145(17) 0.5054(4)
O9 O -0.1290(3) -0.66744(17) 0.4873(3)
O10 O -0.1293(5) -0.6443(2) 0.2365(5)
O11 O -0.1205(10) -0.5190(5) 0.4749(11)
O12 O -0.1538(12) -0.3338(5) 0.3077(11)
O13? O -0.1035(12) -0.3364(5) 0.3229(11)
O14? O -0.032(3) -0.4674(14) 0.472(3)
O15? O -0.0513(16) -0.4008(9) 0.3976(18)
loop_
_geom_bond_atom_site_label_1
_geom_bond_atom_site_label_2
_geom_bond_site_symmetry_1
_geom_bond_site_symmetry_2
Cu1 O3 1_555 1_555
Cu2 Cl1 1_555 1_555
S1 C3 1_555 1_555
S2 C13 1_555 1_555
S3 O3 1_555 1_555
O1 Cu2 1_555 1_555
H1 O1 1_555 1_555
H2 O2 1_555 1_555
O2 Cu2 1_555 1_555
H3 O1 1_555 1_555
H4 O2 1_555 1_555
O4 S3 1_555 1_555
O5 S3 1_555 1_555
O6 S3 1_555 1_555
N1 Cu1 1_555 1_555
N2 Cu2 1_555 1_555
N3 Cu1 1_555 1_555
N4 C16 1_555 1_555
C1 N1 1_555 1_555
H5 C1 1_555 1_555
C2 C1 1_555 1_555
H6 C2 1_555 1_555
C3 C2 1_555 1_555
C4 C3 1_555 1_555
H7 C4 1_555 1_555
C5 N1 1_555 1_555
H8 C5 1_555 1_555
C6 N2 1_555 1_555
H9 C6 1_555 1_555
C7 C6 1_555 1_555
H10 C7 1_555 1_555
C8 S1 1_555 1_555
C9 C8 1_555 1_555
H11 C9 1_555 1_555
C10 N2 1_555 1_555
H12 C10 1_555 1_555
C11 N3 1_555 1_555
H13 C11 1_555 1_555
C12 C11 1_555 1_555
H14 C12 1_555 1_555
C13 C12 1_555 1_555
C14 C13 1_555 1_555
H15 C14 1_555 1_555
C15 N3 1_555 1_555
H16 C15 1_555 1_555
C16 H17 1_555 1_555
C17 C16 1_555 1_555
H18 C17 1_555 1_555
C18 S2 1_555 1_555
C19 C18 1_555 1_555
H19 C19 1_555 1_555
C20 N4 1_555 1_555
H20 C20 1_555 1_555
Cu2A O4B 1_555 1_555
Cu2C O4 1_555 1_555
Cu2A_2 N4 1_555 1_555
Cu2B N2B 1_555 1_555
Cu2C_2 N4B 1_555 1_555
S1B C3B 1_555 1_555
S2B C13B 1_555 1_555
S3B O3B 1_555 1_555
Cl1A Cu2A_2 1_555 1_555
O1A Cu2A_2 1_555 1_555
H1A O1A 1_555 1_555
H2A O2A 1_555 1_555
O2A Cu2A_2 1_555 1_555
H3A O1A 1_555 1_555
H4A O2A 1_555 1_555
O3B Cu1 1_555 1_555
O4B S3B 1_555 1_555
O4C Cu2 1_555 1_555
O4B_2 Cu2A_2 1_555 1_555
O5B S3B 1_555 1_555
O6B S3B 1_555 1_555
N1B Cu1 1_555 1_555
N2B C6B 1_555 1_555
N2A Cu2A_2 1_555 1_555
N3B Cu1 1_555 1_555
N4B C16B 1_555 1_555
N4A Cu2 1_555 1_555
C1B N1B 1_555 1_555
H5B C1B 1_555 1_555
C2B C1B 1_555 1_555
H6B C2B 1_555 1_555
C3B C2B 1_555 1_555
C4B C3B 1_555 1_555
H7B C4B 1_555 1_555
C5B N1B 1_555 1_555
H8B C5B 1_555 1_555
C6B H9B 1_555 1_555
C7B C6B 1_555 1_555
H10B C7B 1_555 1_555
C8B S1B 1_555 1_555
C9B C8B 1_555 1_555
H11B C9B 1_555 1_555
C10B N2B 1_555 1_555
H12B C10B 1_555 1_555
C11B N3B 1_555 1_555
H13B C11B 1_555 1_555
C12B C11B 1_555 1_555
H14B C12B 1_555 1_555
C13B C12B 1_555 1_555
C14B C13B 1_555 1_555
H15B C14B 1_555 1_555
C15B N3B 1_555 1_555
H16B C15B 1_555 1_555
C16B H17B 1_555 1_555
C17B C16B 1_555 1_555
H18B C17B 1_555 1_555
C18B S2B 1_555 1_555
C19B C18B 1_555 1_555
H19B C19B 1_555 1_555
C20B N4B 1_555 1_555
H20B C20B 1_555 1_555
C4 C5 1_555 1_555
C7 C8 1_555 1_555
C9 C10 1_555 1_555
C14 C15 1_555 1_555
C17 C18 1_555 1_555
C19 C20 1_555 1_555
C4B C5B 1_555 1_555
C7B C8B 1_555 1_555
C9B C10B 1_555 1_555
C14B C15B 1_555 1_555
C17B C18B 1_555 1_555
C19B C20B 1_555 1_555

#END
