
#######################################################################
#
#                 Cambridge Crystallographic Data Centre
#                                CCDC 
#
#######################################################################
#
# If this CIF has been generated from an entry in the Cambridge 
# Structural Database, then it will include bibliographic, chemical, 
# crystal, experimental, refinement or atomic coordinate data resulting 
# from the CCDC's data processing and validation procedures.
#
#######################################################################

data_XUMFUI
_symmetry_cell_setting           triclinic
_symmetry_space_group_name_H-M   'P -1'
_symmetry_Int_Tables_number      2
_space_group_name_Hall           '-P 1'
loop_
_symmetry_equiv_pos_site_id
_symmetry_equiv_pos_as_xyz
1 x,y,z
2 -x,-y,-z
_cell_length_a                   6.8274(14)
_cell_length_b                   10.640(2)
_cell_length_c                   11.138(2)
_cell_angle_alpha                87.00(3)
_cell_angle_beta                 88.50(2)
_cell_angle_gamma                88.37(3)
_cell_volume                     807.421
loop_
_atom_site_label
_atom_site_type_symbol
_atom_site_fract_x
_atom_site_fract_y
_atom_site_fract_z
C1 C 0.210(2) 0.2292(15) 0.1202(13)
C2 C 0.091(3) 0.1117(16) 0.1469(15)
C3 C 0.174(2) -0.0039(14) 0.1182(14)
H1 H 0.2981 -0.0073 0.0781
C4 C 0.078(2) -0.1127(14) 0.1468(13)
C5 C 0.178(2) -0.2354(14) 0.1253(14)
C6 C -0.109(2) -0.1096(14) 0.2020(14)
H2 H -0.1790 -0.1843 0.2215
C7 C -0.187(2) 0.0084(14) 0.2265(14)
C8 C -0.088(2) 0.1197(15) 0.2032(14)
H3 H -0.1426 0.1983 0.2258
C9 C 0.294(2) 0.3833(15) 0.4296(15)
H4 H 0.3244 0.3110 0.3855
C10 C 0.320(2) 0.3773(15) 0.5493(14)
H5 H 0.3720 0.3024 0.5878
C11 C 0.272(2) 0.4790(15) 0.6158(14)
C12 C 0.289(2) 0.4707(15) 0.7512(14)
C13 C 0.202(2) 0.5890(16) 0.5582(14)
H6 H 0.1678 0.6612 0.6017
C14 C 0.185(2) 0.5898(14) 0.4342(14)
H7 H 0.1431 0.6660 0.3934
Cu1 Cu 0.1964(3) 0.49397(17) 0.19033(16)
Cu2 Cu 0.4919(3) 0.36461(16) -0.01979(16)
N1 N 0.2237(19) 0.4906(13) 0.3693(12)
N2 N -0.386(2) 0.0176(15) 0.2834(17)
O1 O 0.1834(18) 0.3142(10) 0.1968(10)
O2 O 0.3168(19) 0.2321(11) 0.0309(12)
O3 O 0.1128(16) -0.3303(9) 0.1828(10)
O4 O 0.3126(18) -0.2340(10) 0.0479(11)
O5 O -0.458(2) 0.1200(14) 0.3006(18)
O6 O -0.468(2) -0.0798(14) 0.3103(19)
O7 O 0.3128(16) 0.5015(9) 0.0294(9)
H8 H 0.1997 0.4930 0.0014
O8 O 0.1690(18) 0.5331(11) 0.8132(11)
O9 O 0.4230(18) 0.4018(13) 0.7923(10)
Cu1_2 Cu 0.1964(3) -0.50603(17) 0.19033(16)
Cu1A Cu -0.1964(3) 0.50603(17) 0.80967(16)
Cu2_2 Cu 0.4919(3) 0.36461(16) 0.98021(16)
Cu2A Cu 0.5081(3) -0.36461(16) 0.01979(16)
Cu2A_2 Cu 0.5081(3) 0.63539(16) 0.01979(16)
O3_2 O 0.1128(16) 0.6697(9) 0.1828(10)
O4A O 0.6874(18) 0.2340(10) -0.0479(11)
O7A O 0.6872(16) 0.4985(9) -0.0294(9)
O8A O -0.1690(18) 0.4669(11) 0.1868(11)
O9_2 O 0.4230(18) 0.4018(13) -0.2077(10)
O10 O 0.169(10) 0.949(13) 0.467(8)
H9 H 0.2479 0.9707 0.4095
H10 H 0.2239 0.9612 0.5323
loop_
_geom_bond_atom_site_label_1
_geom_bond_atom_site_label_2
_geom_bond_site_symmetry_1
_geom_bond_site_symmetry_2
C1 C2 1_555 1_555
C2 C3 1_555 1_555
C3 H1 1_555 1_555
C4 C3 1_555 1_555
C5 C4 1_555 1_555
C6 C4 1_555 1_555
H2 C6 1_555 1_555
C7 C6 1_555 1_555
C8 C2 1_555 1_555
H3 C8 1_555 1_555
C9 H4 1_555 1_555
C10 C9 1_555 1_555
H5 C10 1_555 1_555
C11 C10 1_555 1_555
C12 C11 1_555 1_555
C13 C11 1_555 1_555
H6 C13 1_555 1_555
C14 C13 1_555 1_555
H7 C14 1_555 1_555
Cu1 N1 1_555 1_555
Cu2 O2 1_555 1_555
N1 C9 1_555 1_555
N2 C7 1_555 1_555
O1 C1 1_555 1_555
O2 C1 1_555 1_555
O3 C5 1_555 1_555
O4 C5 1_555 1_555
O5 N2 1_555 1_555
O6 N2 1_555 1_555
O7 Cu1 1_555 1_555
H8 O7 1_555 1_555
O8 C12 1_555 1_555
O9 C12 1_555 1_555
O10 H9 1_555 1_555
H10 O10 1_555 1_555
Cu1_2 O3 1_555 1_555
Cu1A O8 1_555 1_555
Cu2_2 O9 1_555 1_555
Cu2A O4 1_555 1_555
Cu2A_2 O7 1_555 1_555
O3_2 Cu1 1_555 1_555
O4A Cu2 1_555 1_555
O7A Cu2 1_555 1_555
O8A Cu1 1_555 1_555
O9_2 Cu2 1_555 1_555
C7 C8 1_555 1_555
C14 N1 1_555 1_555
Cu1 O1 1_555 1_555
Cu2 O7 1_555 1_555
Cu2A_2 O7A 1_555 1_555

#END
