
#######################################################################
#
#                 Cambridge Crystallographic Data Centre
#                                CCDC 
#
#######################################################################
#
# If this CIF has been generated from an entry in the Cambridge 
# Structural Database, then it will include bibliographic, chemical, 
# crystal, experimental, refinement or atomic coordinate data resulting 
# from the CCDC's data processing and validation procedures.
#
#######################################################################

data_XUMFOB
_symmetry_cell_setting           monoclinic
_symmetry_space_group_name_H-M   'P 21/c'
_symmetry_Int_Tables_number      14
_space_group_name_Hall           '-P 2ybc'
loop_
_symmetry_equiv_pos_site_id
_symmetry_equiv_pos_as_xyz
1 x,y,z
2 -x,1/2+y,1/2-z
3 -x,-y,-z
4 x,1/2-y,1/2+z
_cell_length_a                   11.1770(3)
_cell_length_b                   17.4295(3)
_cell_length_c                   11.3690(2)
_cell_angle_alpha                90
_cell_angle_beta                 98.1130(10)
_cell_angle_gamma                90
_cell_volume                     2192.62
loop_
_atom_site_label
_atom_site_type_symbol
_atom_site_fract_x
_atom_site_fract_y
_atom_site_fract_z
Eu1 Eu 0.101759(15) 0.181371(9) 0.773965(14)
Na1 Na 0.07893(16) 0.37843(9) 0.61411(15)
N1 N 0.3256(3) 0.15608(18) 0.7885(3)
O1 O 0.3302(3) 0.14932(18) 0.4799(2)
O2 O 0.1813(2) 0.16826(15) 0.5882(2)
O3 O 0.3782(3) 0.1711(2) 1.1003(2)
O4 O 0.2089(2) 0.16619(16) 0.9715(2)
C1 C 0.2918(3) 0.1566(2) 0.5765(3)
C2 C 0.3784(3) 0.1535(2) 0.6904(3)
C3 C 0.5025(4) 0.1529(3) 0.6938(4)
H1 H 0.5375 0.1495 0.6245
C4 C 0.5736(4) 0.1575(4) 0.8046(4)
H2 H 0.6574 0.1578 0.8102
C5 C 0.5188(4) 0.1617(3) 0.9060(4)
H3 H 0.5649 0.1659 0.9805
C6 C 0.3939(4) 0.1594(2) 0.8946(3)
C7 C 0.3224(3) 0.1654(2) 0.9980(3)
N2 N -0.0653(3) 0.11822(16) 0.6343(3)
O5 O -0.0341(2) 0.26587(14) 0.6479(2)
O6 O -0.2011(3) 0.28974(17) 0.5215(3)
O7 O 0.1067(3) 0.04254(16) 0.7670(3)
O8 O 0.0180(3) -0.07039(15) 0.7228(3)
C8 C -0.1281(3) 0.2459(2) 0.5793(3)
C9 C -0.1468(3) 0.1601(2) 0.5660(3)
C10 C -0.2357(4) 0.1273(2) 0.4841(4)
H4 H -0.2919 0.1578 0.4373
C11 C -0.2392(5) 0.0484(3) 0.4734(4)
H5 H -0.2973 0.0248 0.4185
C12 C -0.1545(4) 0.0044(2) 0.5461(4)
H6 H -0.1558 -0.0488 0.5411
C13 C -0.0684(3) 0.0415(2) 0.6260(3)
C14 C 0.0255(4) 0.0002(2) 0.7106(3)
O9 O -0.0462(3) 0.12789(17) 0.9021(3)
H7 H -0.099 0.156 0.928
H8 H -0.092 0.089 0.884
O10 O 0.2182(3) 0.30555(15) 0.7565(2)
H9 H 0.234 0.329 0.822
H10 H 0.272 0.317 0.714
O11 O 0.0298(2) 0.28471(15) 0.8935(2)
H11 H 0.004 0.3243 0.855
H12 H 0.079 0.298 0.954
O13 O 0.1905(3) 0.4965(2) 0.6342(3)
H15 H 0.220 0.506 0.571
H16 H 0.256 0.488 0.680
Na1C Na 0.07893(16) 0.12157(9) 1.11411(15)
Na1A Na -0.07893(16) -0.12157(9) 0.88589(15)
O4C O 0.2089(2) 0.33381(16) 0.4715(2)
O8A O -0.0180(3) 0.42961(15) 0.7772(3)
O9C O -0.0462(3) 0.37211(17) 0.4021(3)
H7C H -0.099 0.344 0.428
H8C H -0.092 0.411 0.384
O12 O 0.2544(4) -0.0521(2) 0.9223(4)
H13 H 0.232 -0.0984 0.907
H14 H 0.208 -0.029 0.868
O14 O 0.5685(6) 0.4112(6) 0.7262(6)
H17 H 0.516 0.380 0.692
H18 H 0.615 0.425 0.677
O15 O 0.3817(5) 0.4790(3) 0.8196(5)
H19 H 0.381 0.444 0.871
H20 H 0.440 0.471 0.780
loop_
_geom_bond_atom_site_label_1
_geom_bond_atom_site_label_2
_geom_bond_site_symmetry_1
_geom_bond_site_symmetry_2
Eu1 N1 1_555 1_555
Na1 O5 1_555 1_555
N1 C2 1_555 1_555
O1 C1 1_555 1_555
O2 Eu1 1_555 1_555
O3 C7 1_555 1_555
O4 Eu1 1_555 1_555
C1 O2 1_555 1_555
C2 C1 1_555 1_555
C3 C2 1_555 1_555
H1 C3 1_555 1_555
C4 C3 1_555 1_555
H2 C4 1_555 1_555
C5 C4 1_555 1_555
H3 C5 1_555 1_555
C6 N1 1_555 1_555
C7 O4 1_555 1_555
N2 Eu1 1_555 1_555
O5 Eu1 1_555 1_555
O6 C8 1_555 1_555
O7 Eu1 1_555 1_555
O8 C14 1_555 1_555
C8 O5 1_555 1_555
C9 N2 1_555 1_555
C10 C9 1_555 1_555
H4 C10 1_555 1_555
C11 C10 1_555 1_555
H5 C11 1_555 1_555
C12 C11 1_555 1_555
H6 C12 1_555 1_555
C13 N2 1_555 1_555
C14 O7 1_555 1_555
O9 Eu1 1_555 1_555
H7 O9 1_555 1_555
H8 O9 1_555 1_555
O10 Eu1 1_555 1_555
H9 O10 1_555 1_555
H10 O10 1_555 1_555
O11 Eu1 1_555 1_555
H11 O11 1_555 1_555
H12 O11 1_555 1_555
O12 H13 1_555 1_555
H14 O12 1_555 1_555
O13 Na1 1_555 1_555
H15 O13 1_555 1_555
H16 O13 1_555 1_555
O14 H17 1_555 1_555
H18 O14 1_555 1_555
O15 H19 1_555 1_555
H20 O15 1_555 1_555
Na1C O4 1_555 1_555
Na1A O8 1_555 1_555
O4C Na1 1_555 1_555
O8A Na1 1_555 1_555
O9C Na1 1_555 1_555
H7C O9C 1_555 1_555
H8C O9C 1_555 1_555
Na1 O10 1_555 1_555
C5 C6 1_555 1_555
C6 C7 1_555 1_555
C8 C9 1_555 1_555
C12 C13 1_555 1_555
C13 C14 1_555 1_555
O9 Na1C 1_555 1_555

#END
