
#######################################################################
#
#                 Cambridge Crystallographic Data Centre
#                                CCDC 
#
#######################################################################
#
# If this CIF has been generated from an entry in the Cambridge 
# Structural Database, then it will include bibliographic, chemical, 
# crystal, experimental, refinement or atomic coordinate data resulting 
# from the CCDC's data processing and validation procedures.
#
#######################################################################

data_XUMFUH
_symmetry_cell_setting           monoclinic
_symmetry_space_group_name_H-M   'P 21/c'
_symmetry_Int_Tables_number      14
_space_group_name_Hall           '-P 2ybc'
loop_
_symmetry_equiv_pos_site_id
_symmetry_equiv_pos_as_xyz
1 x,y,z
2 -x,1/2+y,1/2-z
3 -x,-y,-z
4 x,1/2-y,1/2+z
_cell_length_a                   11.1770(7)
_cell_length_b                   17.4086(6)
_cell_length_c                   11.3659(8)
_cell_angle_alpha                90
_cell_angle_beta                 98.196(2)
_cell_angle_gamma                90
_cell_volume                     2188.94
loop_
_atom_site_label
_atom_site_type_symbol
_atom_site_fract_x
_atom_site_fract_y
_atom_site_fract_z
Gd1 Gd 0.10155(2) 0.181408(14) 0.77378(2)
Na1 Na 0.0784(3) 0.37876(15) 0.6143(2)
N1 N 0.3256(5) 0.1554(3) 0.7886(4)
O1 O 0.3293(4) 0.1490(3) 0.4802(4)
O2 O 0.1801(4) 0.1685(3) 0.5885(4)
O3 O 0.3775(4) 0.1712(3) 1.1007(4)
O4 O 0.2080(4) 0.1664(3) 0.9712(4)
C1 C 0.2909(6) 0.1560(3) 0.5765(5)
C2 C 0.3767(6) 0.1530(4) 0.6901(5)
C3 C 0.5021(6) 0.1521(5) 0.6946(6)
H1 H 0.5374 0.1484 0.6255
C4 C 0.5727(6) 0.1570(6) 0.8053(7)
H2 H 0.6566 0.1573 0.8115
C5 C 0.5172(6) 0.1614(6) 0.9061(7)
H3 H 0.5634 0.1655 0.9807
C6 C 0.3933(6) 0.1596(4) 0.8954(5)
C7 C 0.3218(5) 0.1656(3) 0.9986(5)
N2 N -0.0645(4) 0.1180(3) 0.6347(4)
O5 O -0.0335(4) 0.2661(2) 0.6485(4)
O6 O -0.2016(4) 0.2900(3) 0.5215(5)
O7 O 0.1068(4) 0.0429(3) 0.7675(4)
O8 O 0.0193(5) -0.0704(3) 0.7230(5)
C8 C -0.1272(5) 0.2459(3) 0.5792(5)
C9 C -0.1466(5) 0.1604(3) 0.5653(5)
C10 C -0.2355(6) 0.1272(4) 0.4837(6)
H4 H -0.2921 0.1575 0.4369
C11 C -0.2383(7) 0.0482(4) 0.4733(7)
H5 H -0.2962 0.0245 0.4183
C12 C -0.1539(7) 0.0044(4) 0.5456(6)
H6 H -0.1546 -0.0489 0.5401
C13 C -0.0687(5) 0.0415(4) 0.6259(5)
C14 C 0.0271(6) 0.0000(3) 0.7100(5)
O9 O -0.0464(5) 0.1278(3) 0.9002(5)
H7 H -0.103 0.153 0.925
H8 H -0.093 0.089 0.889
O10 O 0.2167(4) 0.3051(3) 0.7572(4)
H9 H 0.255 0.322 0.822
H10 H 0.272 0.310 0.713
O11 O 0.0290(4) 0.2838(3) 0.8930(4)
H11 H 0.009 0.323 0.851
H12 H 0.093 0.289 0.942
O13 O 0.1902(5) 0.4965(3) 0.6344(5)
H15 H 0.227 0.503 0.575
H16 H 0.254 0.492 0.684
Na1A Na -0.0784(3) -0.12124(15) 0.8857(2)
Na1C Na 0.0784(3) 0.12124(15) 1.1143(2)
O4C O 0.2080(4) 0.3336(3) 0.4712(4)
O8A O -0.0193(5) 0.4296(3) 0.7770(5)
O9C O -0.0464(5) 0.3722(3) 0.4002(5)
H7C H -0.103 0.347 0.425
H8C H -0.093 0.411 0.389
O12 O 0.2548(6) -0.0516(4) 0.9231(5)
H13 H 0.221 -0.096 0.916
H14 H 0.198 -0.031 0.875
O14 O 0.5691(9) 0.4105(8) 0.7266(8)
H17 H 0.513 0.382 0.691
H18 H 0.6154 0.4249 0.6772
O15 O 0.3824(8) 0.4784(5) 0.8202(7)
H19 H 0.383 0.450 0.882
H20 H 0.434 0.461 0.778
loop_
_geom_bond_atom_site_label_1
_geom_bond_atom_site_label_2
_geom_bond_site_symmetry_1
_geom_bond_site_symmetry_2
Gd1 N1 1_555 1_555
Na1 O5 1_555 1_555
N1 C2 1_555 1_555
O1 C1 1_555 1_555
O2 Gd1 1_555 1_555
O3 C7 1_555 1_555
O4 Gd1 1_555 1_555
C1 O2 1_555 1_555
C2 C1 1_555 1_555
C3 C2 1_555 1_555
H1 C3 1_555 1_555
C4 C3 1_555 1_555
H2 C4 1_555 1_555
C5 C4 1_555 1_555
H3 C5 1_555 1_555
C6 N1 1_555 1_555
C7 O4 1_555 1_555
N2 Gd1 1_555 1_555
O5 Gd1 1_555 1_555
O6 C8 1_555 1_555
O7 Gd1 1_555 1_555
O8 C14 1_555 1_555
C8 O5 1_555 1_555
C9 N2 1_555 1_555
C10 C9 1_555 1_555
H4 C10 1_555 1_555
C11 C10 1_555 1_555
H5 C11 1_555 1_555
C12 C11 1_555 1_555
H6 C12 1_555 1_555
C13 N2 1_555 1_555
C14 O7 1_555 1_555
O9 Gd1 1_555 1_555
H7 O9 1_555 1_555
H8 O9 1_555 1_555
O10 Gd1 1_555 1_555
H9 O10 1_555 1_555
H10 O10 1_555 1_555
O11 Gd1 1_555 1_555
H11 O11 1_555 1_555
H12 O11 1_555 1_555
O12 H13 1_555 1_555
H14 O12 1_555 1_555
O13 Na1 1_555 1_555
H15 O13 1_555 1_555
H16 O13 1_555 1_555
O14 H17 1_555 1_555
H18 O14 1_555 1_555
O15 H19 1_555 1_555
H20 O15 1_555 1_555
Na1A O8 1_555 1_555
Na1C O4 1_555 1_555
O4C Na1 1_555 1_555
O8A Na1 1_555 1_555
O9C Na1 1_555 1_555
H7C O9C 1_555 1_555
H8C O9C 1_555 1_555
Na1 O10 1_555 1_555
C5 C6 1_555 1_555
C6 C7 1_555 1_555
C8 C9 1_555 1_555
C12 C13 1_555 1_555
C13 C14 1_555 1_555
O9 Na1C 1_555 1_555

#END
