
#######################################################################
#
#                 Cambridge Crystallographic Data Centre
#                                CCDC 
#
#######################################################################
#
# If this CIF has been generated from an entry in the Cambridge 
# Structural Database, then it will include bibliographic, chemical, 
# crystal, experimental, refinement or atomic coordinate data resulting 
# from the CCDC's data processing and validation procedures.
#
#######################################################################

data_XUMGAO
_symmetry_cell_setting           monoclinic
_symmetry_space_group_name_H-M   'P 21/c'
_symmetry_Int_Tables_number      14
_space_group_name_Hall           '-P 2ybc'
loop_
_symmetry_equiv_pos_site_id
_symmetry_equiv_pos_as_xyz
1 x,y,z
2 -x,1/2+y,1/2-z
3 -x,-y,-z
4 x,1/2-y,1/2+z
_cell_length_a                   11.150(6)
_cell_length_b                   17.383(5)
_cell_length_c                   11.359(3)
_cell_angle_alpha                90
_cell_angle_beta                 98.25(4)
_cell_angle_gamma                90
_cell_volume                     2178.82
loop_
_atom_site_label
_atom_site_type_symbol
_atom_site_fract_x
_atom_site_fract_y
_atom_site_fract_z
Tb1 Tb 0.10080(2) 0.181488(13) 0.77345(2)
Na1 Na 0.0771(2) 0.37887(13) 0.6134(2)
N1 N 0.3236(4) 0.1555(3) 0.7886(4)
O1 O 0.3272(4) 0.1496(3) 0.4798(3)
O2 O 0.1783(4) 0.1692(2) 0.5879(3)
O3 O 0.3752(4) 0.1714(3) 1.1006(3)
O4 O 0.2059(3) 0.1672(2) 0.9706(3)
C1 C 0.2885(5) 0.1570(3) 0.5754(4)
C2 C 0.3767(5) 0.1530(3) 0.6904(5)
C3 C 0.5021(6) 0.1521(4) 0.6953(5)
H1 H 0.5378 0.1493 0.6263
C4 C 0.5715(6) 0.1555(5) 0.8055(6)
H2 H 0.6556 0.1542 0.8116
C5 C 0.5173(6) 0.1609(5) 0.9074(5)
H3 H 0.5641 0.1652 0.9818
C6 C 0.3916(5) 0.1598(3) 0.8963(4)
C7 C 0.3201(5) 0.1655(3) 0.9983(5)
N2 N -0.0641(4) 0.1182(2) 0.6350(4)
O5 O -0.0339(4) 0.2663(2) 0.6493(3)
O6 O -0.2013(4) 0.2903(2) 0.5217(4)
O7 O 0.1079(4) 0.0436(2) 0.7680(3)
O8 O 0.0202(4) -0.0701(2) 0.7231(4)
C8 C -0.1276(5) 0.2456(3) 0.5804(5)
C9 C -0.1462(5) 0.1607(3) 0.5662(5)
C10 C -0.2367(6) 0.1268(4) 0.4838(5)
H4 H -0.2936 0.1569 0.4367
C11 C -0.2389(6) 0.0484(4) 0.4747(6)
H5 H -0.2975 0.0246 0.4202
C12 C -0.1534(6) 0.0039(4) 0.5471(5)
H6 H -0.1544 -0.0495 0.5422
C13 C -0.0676(5) 0.0417(3) 0.6259(4)
C14 C 0.0273(5) 0.0007(3) 0.7119(4)
O9 O -0.0468(4) 0.1281(2) 0.8992(4)
H7 H -0.099 0.153 0.932
H8 H -0.082 0.086 0.878
O10 O 0.2149(4) 0.3047(2) 0.7561(3)
H9 H 0.253 0.317 0.823
H10 H 0.265 0.312 0.707
O11 O 0.0280(4) 0.2832(2) 0.8924(3)
H11 H 0.020 0.3264 0.857
H12 H 0.072 0.299 0.955
O13 O 0.1914(5) 0.4964(3) 0.6357(4)
H15 H 0.207 0.504 0.566
H16 H 0.256 0.490 0.684
Na1C Na 0.0771(2) 0.12113(13) 1.1134(2)
Na1A Na -0.0771(2) -0.12113(13) 0.8866(2)
O4C O 0.2059(3) 0.3328(2) 0.4706(3)
O8A O -0.0202(4) 0.4299(2) 0.7769(4)
O9C O -0.0468(4) 0.3719(2) 0.3992(4)
H7C H -0.099 0.347 0.432
H8C H -0.082 0.414 0.378
O12 O 0.2554(5) -0.0512(3) 0.9231(4)
H13 H 0.230 -0.0976 0.920
H14 H 0.215 -0.022 0.872
O14 O 0.5688(7) 0.4098(6) 0.7265(6)
H17 H 0.514 0.381 0.690
H18 H 0.6154 0.4249 0.6772
O15 O 0.3825(6) 0.4783(4) 0.8204(6)
H19 H 0.380 0.446 0.877
H20 H 0.448 0.471 0.791
loop_
_geom_bond_atom_site_label_1
_geom_bond_atom_site_label_2
_geom_bond_site_symmetry_1
_geom_bond_site_symmetry_2
Tb1 N1 1_555 1_555
Na1 O5 1_555 1_555
N1 C2 1_555 1_555
O1 C1 1_555 1_555
O2 Tb1 1_555 1_555
O3 C7 1_555 1_555
O4 Tb1 1_555 1_555
C1 O2 1_555 1_555
C2 C1 1_555 1_555
C3 C2 1_555 1_555
H1 C3 1_555 1_555
C4 C3 1_555 1_555
H2 C4 1_555 1_555
C5 C4 1_555 1_555
H3 C5 1_555 1_555
C6 N1 1_555 1_555
C7 O4 1_555 1_555
N2 Tb1 1_555 1_555
O5 Tb1 1_555 1_555
O6 C8 1_555 1_555
O7 Tb1 1_555 1_555
O8 C14 1_555 1_555
C8 O5 1_555 1_555
C9 N2 1_555 1_555
C10 C9 1_555 1_555
H4 C10 1_555 1_555
C11 C10 1_555 1_555
H5 C11 1_555 1_555
C12 C11 1_555 1_555
H6 C12 1_555 1_555
C13 N2 1_555 1_555
C14 O7 1_555 1_555
O9 Tb1 1_555 1_555
H7 O9 1_555 1_555
H8 O9 1_555 1_555
O10 Tb1 1_555 1_555
H9 O10 1_555 1_555
H10 O10 1_555 1_555
O11 Tb1 1_555 1_555
H11 O11 1_555 1_555
H12 O11 1_555 1_555
O12 H13 1_555 1_555
H14 O12 1_555 1_555
O13 Na1 1_555 1_555
H15 O13 1_555 1_555
H16 O13 1_555 1_555
O14 H17 1_555 1_555
H18 O14 1_555 1_555
O15 H19 1_555 1_555
H20 O15 1_555 1_555
Na1C O4 1_555 1_555
Na1A O8 1_555 1_555
O4C Na1 1_555 1_555
O8A Na1 1_555 1_555
O9C Na1 1_555 1_555
H7C O9C 1_555 1_555
H8C O9C 1_555 1_555
Na1 O10 1_555 1_555
C5 C6 1_555 1_555
C6 C7 1_555 1_555
C8 C9 1_555 1_555
C12 C13 1_555 1_555
C13 C14 1_555 1_555
O9 Na1C 1_555 1_555

#END
