
#######################################################################
#
#                 Cambridge Crystallographic Data Centre
#                                CCDC 
#
#######################################################################
#
# If this CIF has been generated from an entry in the Cambridge 
# Structural Database, then it will include bibliographic, chemical, 
# crystal, experimental, refinement or atomic coordinate data resulting 
# from the CCDC's data processing and validation procedures.
#
#######################################################################

data_XUMKUN
_symmetry_cell_setting           triclinic
_symmetry_space_group_name_H-M   'P -1'
_symmetry_Int_Tables_number      2
_space_group_name_Hall           '-P 1'
loop_
_symmetry_equiv_pos_site_id
_symmetry_equiv_pos_as_xyz
1 x,y,z
2 -x,-y,-z
_cell_length_a                   12.607(3)
_cell_length_b                   12.772(3)
_cell_length_c                   12.900(3)
_cell_angle_alpha                65.96(3)
_cell_angle_beta                 73.40(3)
_cell_angle_gamma                71.46(3)
_cell_volume                     1769.01
loop_
_atom_site_label
_atom_site_type_symbol
_atom_site_fract_x
_atom_site_fract_y
_atom_site_fract_z
Zn1 Zn 1.07337(5) 0.64564(6) 0.41045(6)
C1 C 0.9812(5) 1.0502(5) 0.0819(6)
H1 H 0.9687 1.0843 0.1370
C2 C 1.0179(4) 0.9294(5) 0.1108(5)
C3 C 1.0369(5) 0.8805(5) 0.0276(5)
H2 H 1.0624 0.7993 0.0462
C4 C 1.0346(5) 0.8505(6) 0.2303(6)
C5 C 1.4338(7) 0.4613(12) 0.5892(7)
H3 H 1.3910 0.4303 0.6615
C6 C 1.3817(6) 0.5359(7) 0.5140(6)
C7 C 1.4483(6) 0.5816(7) 0.4232(6)
H4 H 1.4178 0.6454 0.3634
C8 C 1.2536(6) 0.5767(7) 0.5245(7)
C9 C 0.8673(5) 0.6128(5) 0.5676(5)
C10 C 0.6742(7) 0.5848(8) 0.6725(7)
H5 H 0.7047 0.5046 0.7053
C11 C 0.5546(7) 0.6321(8) 0.6942(7)
H6 H 0.5067 0.5810 0.7378
C12 C 0.5106(7) 0.7451(8) 0.6544(7)
C13 C 0.5789(7) 0.8192(8) 0.5885(7)
H7 H 0.5475 0.8997 0.5599
C14 C 0.6951(7) 0.7778(8) 0.5624(7)
H8 H 0.7409 0.8307 0.5173
C15 C 0.7431(7) 0.6605(8) 0.6021(8)
C16 C 0.3831(10) 0.789(2) 0.6781(15)
O1 O 0.9088(5) 0.5058(4) 0.6079(4)
O2 O 1.0695(4) 0.7419(4) 0.2488(4)
O3 O 1.0112(5) 0.8939(5) 0.3072(5)
O4 O 1.2167(4) 0.6431(5) 0.4367(5)
O5 O 1.1942(5) 0.5404(9) 0.6134(6)
O6 O 0.3508(7) 0.8986(14) 0.6360(9)
H9 H 0.2812 0.9178 0.6509
O7 O 0.3248(8) 0.7112(14) 0.7408(15)
O8 O 0.9232(4) 0.6863(4) 0.4983(4)
C1A C 1.0188(5) 0.9498(5) -0.0819(6)
H1A H 1.0313 0.9157 -0.1370
C2A C 0.9821(4) 1.0706(5) -0.1108(5)
C3A C 0.9631(5) 1.1195(5) -0.0276(5)
H2A H 0.9376 1.2007 -0.0462
C4A C 0.9654(5) 1.1495(6) -0.2303(6)
O2A O 0.9305(4) 1.2581(4) -0.2488(4)
O3A O 0.9888(5) 1.1061(5) -0.3072(5)
C5A C 1.5662(7) 0.5387(12) 0.4108(7)
H3A H 1.6090 0.5697 0.3385
C6A C 1.6183(6) 0.4641(7) 0.4860(6)
C7A C 1.5517(6) 0.4184(7) 0.5768(6)
H4A H 1.5822 0.3546 0.6366
C8A C 1.7464(6) 0.4233(7) 0.4755(7)
O4A O 1.7833(4) 0.3569(5) 0.5633(5)
O5A O 1.8058(5) 0.4596(9) 0.3866(6)
Zn1A Zn 0.92663(5) 0.35436(6) 0.58955(6)
C9A C 1.1327(5) 0.3872(5) 0.4324(5)
C10A C 1.3258(7) 0.4152(8) 0.3275(7)
H5A H 1.2953 0.4954 0.2947
C11A C 1.4454(7) 0.3679(8) 0.3058(7)
H6A H 1.4933 0.4190 0.2622
C12A C 1.4894(7) 0.2549(8) 0.3456(7)
C13A C 1.4211(7) 0.1808(8) 0.4115(7)
H7A H 1.4525 0.1003 0.4401
C14A C 1.3049(7) 0.2222(8) 0.4376(7)
H8A H 1.2591 0.1693 0.4827
C15A C 1.2569(7) 0.3395(8) 0.3979(8)
C16A C 1.6169(10) 0.211(2) 0.3219(15)
O1A O 1.0912(5) 0.4942(4) 0.3921(4)
O6A O 1.6492(7) 0.1014(14) 0.3640(9)
H9A H 1.7188 0.0822 0.3491
O7A O 1.6752(8) 0.2888(14) 0.2592(15)
O8A O 1.0768(4) 0.3137(4) 0.5017(4)
Zn1A_2 Zn 0.92663(5) 1.35436(6) -0.41045(6)
Zn1A_3 Zn 1.92663(5) 0.35436(6) 0.58955(6)
O2A_2 O 0.9305(4) 0.2581(4) 0.7512(4)
O4A_2 O 0.7833(4) 0.3569(5) 0.5633(5)
P1 P 0.31560(12) 1.22924(15) 0.03264(16)
C17 C 0.2151(5) 1.3566(7) 0.0554(8)
C18 C 0.1323(6) 1.3481(9) 0.1533(9)
H10 H 0.1278 1.2754 0.2109
C19 C 0.0552(7) 1.4511(12) 0.1642(12)
H11 H -0.0011 1.4461 0.2298
C20 C 0.0603(8) 1.5573(12) 0.0823(17)
H12 H 0.0085 1.6243 0.0927
C21 C 0.1425(8) 1.5683(9) -0.0185(14)
H13 H 0.1449 1.6412 -0.0765
C22 C 0.2208(7) 1.4662(8) -0.0289(11)
H14 H 0.2781 1.4716 -0.0937
C23 C 0.2799(4) 1.1909(6) -0.0701(5)
C24 C 0.3007(5) 1.0737(6) -0.0584(6)
H15 H 0.3293 1.0147 0.0053
C25 C 0.2789(6) 1.0440(8) -0.1409(7)
H16 H 0.2919 0.9654 -0.1330
C26 C 0.2382(7) 1.1320(12) -0.2339(8)
H17 H 0.2247 1.1127 -0.2903
C27 C 0.2173(7) 1.2449(11) -0.2464(7)
H18 H 0.1887 1.3028 -0.3106
C28 C 0.2374(5) 1.2772(7) -0.1656(6)
H19 H 0.2226 1.3563 -0.1751
C29 C 0.3208(5) 1.1048(6) 0.1636(5)
C30 C 0.4182(6) 1.0559(7) 0.2111(6)
H20 H 0.4806 1.0899 0.1766
C31 C 0.4235(8) 0.9569(10) 0.3094(7)
H21 H 0.4907 0.9227 0.3387
C32 C 0.3313(9) 0.9080(10) 0.3645(7)
H22 H 0.3341 0.8436 0.4329
C33 C 0.2352(8) 0.9556(10) 0.3171(7)
H23 H 0.1730 0.9213 0.3524
C34 C 0.2287(6) 1.0533(8) 0.2183(7)
H24 H 0.1621 1.0851 0.1879
C35 C 0.4534(5) 1.2631(6) -0.0191(6)
C36 C 0.4838(6) 1.3199(8) 0.0356(9)
H25 H 0.4322 1.3444 0.0937
C37 C 0.5927(7) 1.3397(9) 0.0020(10)
H26 H 0.6150 1.3769 0.0383
C38 C 0.6674(6) 1.3042(7) -0.0847(9)
H27 H 0.7397 1.3192 -0.1079
C39 C 0.6379(5) 1.2484(7) -0.1365(7)
H28 H 0.6901 1.2236 -0.1941
C40 C 0.5299(5) 1.2274(6) -0.1045(6)
H29 H 0.5094 1.1891 -0.1409
O9 O 0.0176(14) 0.8124(17) 0.5929(13)
H30 H -0.0513 0.7971 0.5871
H31 H 0.0253 0.7701 0.5535
O10 O 0.1228(7) 0.9201(14) 0.6434(12)
H32 H 0.0832 0.8722 0.6551
H33 H 0.1772 0.8626 0.6675
loop_
_geom_bond_atom_site_label_1
_geom_bond_atom_site_label_2
_geom_bond_site_symmetry_1
_geom_bond_site_symmetry_2
Zn1 O2 1_555 1_555
C1 H1 1_555 1_555
C2 C1 1_555 1_555
C3 C2 1_555 1_555
H2 C3 1_555 1_555
C4 C2 1_555 1_555
C5 H3 1_555 1_555
C6 C5 1_555 1_555
C7 C6 1_555 1_555
H4 C7 1_555 1_555
C8 C6 1_555 1_555
C9 C15 1_555 1_555
C10 H5 1_555 1_555
C11 C10 1_555 1_555
H6 C11 1_555 1_555
C12 C11 1_555 1_555
C13 C12 1_555 1_555
H7 C13 1_555 1_555
C14 C13 1_555 1_555
H8 C14 1_555 1_555
C15 C10 1_555 1_555
C16 C12 1_555 1_555
O1 C9 1_555 1_555
O2 C4 1_555 1_555
O3 C4 1_555 1_555
O4 Zn1 1_555 1_555
O5 C8 1_555 1_555
O6 C16 1_555 1_555
H9 O6 1_555 1_555
O7 C16 1_555 1_555
O8 Zn1 1_555 1_555
P1 C17 1_555 1_555
C17 C18 1_555 1_555
C18 H10 1_555 1_555
C19 C18 1_555 1_555
H11 C19 1_555 1_555
C20 C19 1_555 1_555
H12 C20 1_555 1_555
C21 C20 1_555 1_555
H13 C21 1_555 1_555
C22 C17 1_555 1_555
H14 C22 1_555 1_555
C23 P1 1_555 1_555
C24 C23 1_555 1_555
H15 C24 1_555 1_555
C25 C24 1_555 1_555
H16 C25 1_555 1_555
C26 C25 1_555 1_555
H17 C26 1_555 1_555
C27 C26 1_555 1_555
H18 C27 1_555 1_555
C28 C23 1_555 1_555
H19 C28 1_555 1_555
C29 P1 1_555 1_555
C30 C29 1_555 1_555
H20 C30 1_555 1_555
C31 C30 1_555 1_555
H21 C31 1_555 1_555
C32 C31 1_555 1_555
H22 C32 1_555 1_555
C33 C32 1_555 1_555
H23 C33 1_555 1_555
C34 C29 1_555 1_555
H24 C34 1_555 1_555
C35 P1 1_555 1_555
C36 C35 1_555 1_555
H25 C36 1_555 1_555
C37 C36 1_555 1_555
H26 C37 1_555 1_555
C38 C37 1_555 1_555
H27 C38 1_555 1_555
C39 C38 1_555 1_555
H28 C39 1_555 1_555
C40 C35 1_555 1_555
H29 C40 1_555 1_555
O9 H30 1_555 1_555
H31 O9 1_555 1_555
O10 H32 1_555 1_555
H33 O10 1_555 1_555
C1A C3 1_555 1_555
H1A C1A 1_555 1_555
C2A C1A 1_555 1_555
C3A C1 1_555 1_555
H2A C3A 1_555 1_555
C4A C2A 1_555 1_555
O2A C4A 1_555 1_555
O3A C4A 1_555 1_555
C5A C7 1_555 1_555
H3A C5A 1_555 1_555
C6A C5A 1_555 1_555
C7A C5 1_555 1_555
H4A C7A 1_555 1_555
C8A C6A 1_555 1_555
O4A C8A 1_555 1_555
O5A C8A 1_555 1_555
Zn1A O1 1_555 1_555
C9A C15A 1_555 1_555
C10A H5A 1_555 1_555
C11A C10A 1_555 1_555
H6A C11A 1_555 1_555
C12A C11A 1_555 1_555
C13A C12A 1_555 1_555
H7A C13A 1_555 1_555
C14A C13A 1_555 1_555
H8A C14A 1_555 1_555
C15A C10A 1_555 1_555
C16A C12A 1_555 1_555
O1A Zn1 1_555 1_555
O6A C16A 1_555 1_555
H9A O6A 1_555 1_555
O7A C16A 1_555 1_555
O8A Zn1A 1_555 1_555
Zn1A_2 O2A 1_555 1_555
Zn1A_3 O4A 1_555 1_555
O2A_2 Zn1A 1_555 1_555
O4A_2 Zn1A 1_555 1_555
C8 O4 1_555 1_555
C9 O8 1_555 1_555
C14 C15 1_555 1_555
C21 C22 1_555 1_555
C27 C28 1_555 1_555
C33 C34 1_555 1_555
C39 C40 1_555 1_555
C2A C3A 1_555 1_555
C6A C7A 1_555 1_555
C9A O1A 1_555 1_555
C9A O8A 1_555 1_555
C14A C15A 1_555 1_555

#END
