
#######################################################################
#
#                 Cambridge Crystallographic Data Centre
#                                CCDC 
#
#######################################################################
#
# If this CIF has been generated from an entry in the Cambridge 
# Structural Database, then it will include bibliographic, chemical, 
# crystal, experimental, refinement or atomic coordinate data resulting 
# from the CCDC's data processing and validation procedures.
#
#######################################################################

data_XUMLOI
_symmetry_cell_setting           monoclinic
_symmetry_space_group_name_H-M   'P 21/c'
_symmetry_Int_Tables_number      14
_space_group_name_Hall           '-P 2ybc'
loop_
_symmetry_equiv_pos_site_id
_symmetry_equiv_pos_as_xyz
1 x,y,z
2 -x,1/2+y,1/2-z
3 -x,-y,-z
4 x,1/2-y,1/2+z
_cell_length_a                   9.1453(3)
_cell_length_b                   10.5328(4)
_cell_length_c                   17.8594(5)
_cell_angle_alpha                90
_cell_angle_beta                 94.518(3)
_cell_angle_gamma                90
_cell_volume                     1714.97
loop_
_atom_site_label
_atom_site_type_symbol
_atom_site_fract_x
_atom_site_fract_y
_atom_site_fract_z
Cd1 Cd 0.5000 0.5000 0.0000
O1 O 0.7304(4) 0.5225(4) 0.0700(2)
H1 H 0.7899 0.4669 0.0791
N1 N 0.6433(5) 0.8482(5) 0.1152(3)
N2 N 0.6060(6) 0.9521(5) 0.3897(3)
C1 C 0.6466(6) 0.7306(5) 0.0847(3)
N3 N 0.5249(5) 0.7041(5) 0.0426(2)
C2 C 0.6987(6) 0.9206(6) 0.2459(3)
C3 C 0.4350(6) 0.8103(6) 0.0461(3)
C4 C 0.5089(6) 0.9008(6) 0.0917(3)
C5 C 0.7164(7) 1.0198(6) 0.3662(3)
H2 H 0.7626 1.0782 0.3992
C6 C 0.7506(7) 0.9085(6) 0.1682(3)
H3 H 0.7728 0.9923 0.1498
H4 H 0.8404 0.8592 0.1710
C7 C 0.2939(7) 0.8325(7) 0.0144(4)
H5 H 0.2439 0.7727 -0.0163
C8 C 0.7768(7) 0.6439(6) 0.0962(4)
H6 H 0.8131 0.6407 0.1493
C9 C 0.5446(8) 0.8667(7) 0.3420(4)
H7 H 0.4697 0.8163 0.3581
C10 C 0.7660(7) 1.0078(7) 0.2955(3)
H8 H 0.8433 1.0575 0.2814
C11 C 0.2308(8) 0.9485(8) 0.0307(4)
H9 H 0.1358 0.9664 0.0110
C12 C 0.4467(8) 1.0189(6) 0.1072(4)
H10 H 0.4969 1.0798 0.1368
C13 C 0.5853(7) 0.8489(6) 0.2705(3)
H11 H 0.5373 0.7894 0.2389
C14 C 0.9037(9) 0.6858(9) 0.0450(5)
H12 H 0.9808 0.6237 0.0488
H13 H 0.9422 0.7667 0.0616
H14 H 0.8645 0.6922 -0.0064
C15 C 0.3066(9) 1.0384(7) 0.0756(4)
H15 H 0.2605 1.1149 0.0846
O1B O 0.2696(4) 0.4775(4) -0.0700(2)
H1B H 0.2101 0.5331 -0.0791
N1B N 0.3567(5) 0.1518(5) -0.1152(3)
N2B N 0.3940(6) 0.0479(5) -0.3897(3)
C1B C 0.3534(6) 0.2694(5) -0.0847(3)
N3B N 0.4751(5) 0.2959(5) -0.0426(2)
C2B C 0.3013(6) 0.0794(6) -0.2459(3)
C3B C 0.5650(6) 0.1897(6) -0.0461(3)
C4B C 0.4911(6) 0.0992(6) -0.0917(3)
C5B C 0.2836(7) -0.0198(6) -0.3662(3)
H2B H 0.2374 -0.0782 -0.3992
C6B C 0.2494(7) 0.0915(6) -0.1682(3)
H3B H 0.2272 0.0077 -0.1498
H4B H 0.1596 0.1408 -0.1710
C7B C 0.7061(7) 0.1675(7) -0.0144(4)
H5B H 0.7561 0.2273 0.0163
C8B C 0.2232(7) 0.3561(6) -0.0962(4)
H6B H 0.1869 0.3593 -0.1493
C9B C 0.4554(8) 0.1333(7) -0.3420(4)
H7B H 0.5303 0.1837 -0.3581
C10B C 0.2340(7) -0.0078(7) -0.2955(3)
H8B H 0.1567 -0.0575 -0.2814
C11B C 0.7692(8) 0.0515(8) -0.0307(4)
H9B H 0.8642 0.0336 -0.0110
C12B C 0.5533(8) -0.0189(6) -0.1072(4)
H10B H 0.5031 -0.0798 -0.1368
C13B C 0.4147(7) 0.1511(6) -0.2705(3)
H11B H 0.4627 0.2106 -0.2389
C14B C 0.0963(9) 0.3142(9) -0.0450(5)
H12B H 0.0192 0.3763 -0.0488
H13B H 0.0578 0.2333 -0.0616
H14B H 0.1355 0.3078 0.0064
C15B C 0.6934(9) -0.0384(7) -0.0756(4)
H15B H 0.7395 -0.1149 -0.0846
Cd1A Cd 0.5000 0.0000 -0.5000
Cd1A_2 Cd 0.5000 1.0000 0.5000
N2A N 0.3940(6) 0.4521(5) 0.1103(3)
N2C N 0.6060(6) 0.5479(5) -0.1103(3)
Cl1 Cl 0.0765(2) 0.7630(2) 0.32763(13)
O2 O 0.2272(6) 0.7297(5) 0.3296(3)
O3 O 0.0521(8) 0.8693(7) 0.3747(5)
O4 O 0.0077(11) 0.7613(11) 0.2587(5)
O5 O 0.0039(10) 0.6609(10) 0.3669(8)
loop_
_geom_bond_atom_site_label_1
_geom_bond_atom_site_label_2
_geom_bond_site_symmetry_1
_geom_bond_site_symmetry_2
Cd1 O1 1_555 1_555
O1 H1 1_555 1_555
N1 C1 1_555 1_555
N2 C5 1_555 1_555
C1 N3 1_555 1_555
N3 Cd1 1_555 1_555
C2 C6 1_555 1_555
C3 N3 1_555 1_555
C4 N1 1_555 1_555
C5 H2 1_555 1_555
C6 N1 1_555 1_555
H3 C6 1_555 1_555
H4 C6 1_555 1_555
C7 C3 1_555 1_555
H5 C7 1_555 1_555
C8 O1 1_555 1_555
H6 C8 1_555 1_555
C9 N2 1_555 1_555
H7 C9 1_555 1_555
C10 C2 1_555 1_555
H8 C10 1_555 1_555
C11 C7 1_555 1_555
H9 C11 1_555 1_555
C12 C4 1_555 1_555
H10 C12 1_555 1_555
C13 C2 1_555 1_555
H11 C13 1_555 1_555
C14 C8 1_555 1_555
H12 C14 1_555 1_555
H13 C14 1_555 1_555
H14 C14 1_555 1_555
C15 C11 1_555 1_555
H15 C15 1_555 1_555
Cl1 O2 1_555 1_555
O3 Cl1 1_555 1_555
O4 Cl1 1_555 1_555
O5 Cl1 1_555 1_555
O1B Cd1 1_555 1_555
H1B O1B 1_555 1_555
N1B C1B 1_555 1_555
N2B C5B 1_555 1_555
C1B N3B 1_555 1_555
N3B Cd1 1_555 1_555
C2B C6B 1_555 1_555
C3B N3B 1_555 1_555
C4B N1B 1_555 1_555
C5B H2B 1_555 1_555
C6B N1B 1_555 1_555
H3B C6B 1_555 1_555
H4B C6B 1_555 1_555
C7B C3B 1_555 1_555
H5B C7B 1_555 1_555
C8B O1B 1_555 1_555
H6B C8B 1_555 1_555
C9B N2B 1_555 1_555
H7B C9B 1_555 1_555
C10B C2B 1_555 1_555
H8B C10B 1_555 1_555
C11B C7B 1_555 1_555
H9B C11B 1_555 1_555
C12B C4B 1_555 1_555
H10B C12B 1_555 1_555
C13B C2B 1_555 1_555
H11B C13B 1_555 1_555
C14B C8B 1_555 1_555
H12B C14B 1_555 1_555
H13B C14B 1_555 1_555
H14B C14B 1_555 1_555
C15B C11B 1_555 1_555
H15B C15B 1_555 1_555
Cd1A N2B 1_555 1_555
Cd1A_2 N2 1_555 1_555
N2A Cd1 1_555 1_555
N2C Cd1 1_555 1_555
C1 C8 1_555 1_555
C3 C4 1_555 1_555
C5 C10 1_555 1_555
C9 C13 1_555 1_555
C12 C15 1_555 1_555
C1B C8B 1_555 1_555
C3B C4B 1_555 1_555
C5B C10B 1_555 1_555
C9B C13B 1_555 1_555
C12B C15B 1_555 1_555

#END
