
#######################################################################
#
#                 Cambridge Crystallographic Data Centre
#                                CCDC 
#
#######################################################################
#
# If this CIF has been generated from an entry in the Cambridge 
# Structural Database, then it will include bibliographic, chemical, 
# crystal, experimental, refinement or atomic coordinate data resulting 
# from the CCDC's data processing and validation procedures.
#
#######################################################################

data_XUMMOJ
_symmetry_cell_setting           tetragonal
_symmetry_space_group_name_H-M   'P 4/n'
_symmetry_Int_Tables_number      85
_space_group_name_Hall           '-P 4a'
loop_
_symmetry_equiv_pos_site_id
_symmetry_equiv_pos_as_xyz
1 x,y,z
2 1/2-y,x,z
3 1/2-x,1/2-y,z
4 y,1/2-x,z
5 -x,-y,-z
6 1/2+y,-x,-z
7 1/2+x,1/2+y,-z
8 -y,1/2+x,-z
_cell_length_a                   20.658(3)
_cell_length_b                   20.658(3)
_cell_length_c                   5.6117(9)
_cell_angle_alpha                90
_cell_angle_beta                 90
_cell_angle_gamma                90
_cell_volume                     2394.81
loop_
_atom_site_label
_atom_site_type_symbol
_atom_site_fract_x
_atom_site_fract_y
_atom_site_fract_z
Cu1 Cu 0.2500 0.2500 0.2102(4)
Br1 Br 0.2500 0.2500 0.7076(4)
N1 N 0.1536(4) 0.2258(4) 0.2043(15)
C1 C 0.1139(5) 0.2507(5) 0.0478(19)
H1 H 0.1300 0.2804 -0.0617
C2 C 0.0506(5) 0.2352(6) 0.039(2)
H2 H 0.0240 0.2538 -0.0761
C3 C 0.0249(5) 0.1910(6) 0.203(3)
H3 H -0.0185 0.1794 0.1986
C4 C 0.0662(5) 0.1654(5) 0.369(2)
C5 C 0.1307(5) 0.1832(5) 0.3638(19)
H4 H 0.1590 0.1651 0.4740
N2 N 0.0401(4) 0.1241(4) 0.5465(18)
H5 H -0.0010 0.1262 0.5698
C6 C 0.0736(5) 0.0815(5) 0.6832(19)
O1 O 0.1325(4) 0.0752(4) 0.6771(16)
C7 C 0.0350(5) 0.0399(5) 0.8468(18)
C8 C 0.0625(6) 0.0182(6) 1.047(2)
H6 H 0.1048 0.0302 1.0825
C9 C -0.0292(5) 0.0219(6) 0.797(2)
H7 H -0.0494 0.0368 0.6595
N1D N -0.1536(4) -0.2258(4) 1.7957(15)
C1D C -0.1139(5) -0.2507(5) 1.9522(19)
H1D H -0.1300 -0.2804 2.0617
C2D C -0.0506(5) -0.2352(6) 1.961(2)
H2D H -0.0240 -0.2538 2.0761
C3D C -0.0249(5) -0.1910(6) 1.797(3)
H3D H 0.0185 -0.1794 1.8014
C4D C -0.0662(5) -0.1654(5) 1.631(2)
C5D C -0.1307(5) -0.1832(5) 1.6362(19)
H4D H -0.1590 -0.1651 1.5260
N2D N -0.0401(4) -0.1241(4) 1.4535(18)
H5D H 0.0010 -0.1262 1.4302
C6D C -0.0736(5) -0.0815(5) 1.3168(19)
O1D O -0.1325(4) -0.0752(4) 1.3229(16)
C7D C -0.0350(5) -0.0399(5) 1.1532(18)
C8D C -0.0625(6) -0.0182(6) 0.953(2)
H6D H -0.1048 -0.0302 0.9175
C9D C 0.0292(5) -0.0219(6) 1.203(2)
H7D H 0.0494 -0.0368 1.3405
N1A N 0.2742(4) 0.1536(4) 0.2043(15)
C1A C 0.2493(5) 0.1139(5) 0.0478(19)
H1A H 0.2196 0.1300 -0.0617
C2A C 0.2648(6) 0.0506(5) 0.039(2)
H2A H 0.2462 0.0240 -0.0761
C3A C 0.3090(6) 0.0249(5) 0.203(3)
H3A H 0.3206 -0.0185 0.1986
C4A C 0.3346(5) 0.0662(5) 0.369(2)
C5A C 0.3168(5) 0.1307(5) 0.3638(19)
H4A H 0.3349 0.1590 0.4740
N2A N 0.3759(4) 0.0401(4) 0.5465(18)
H5A H 0.3738 -0.0010 0.5698
C6A C 0.4185(5) 0.0736(5) 0.6832(19)
O1A O 0.4248(4) 0.1325(4) 0.6771(16)
C7A C 0.4601(5) 0.0350(5) 0.8468(18)
C8A C 0.4818(6) 0.0625(6) 1.047(2)
H6A H 0.4698 0.1048 1.0825
C9A C 0.4781(6) -0.0292(5) 0.797(2)
H7A H 0.4632 -0.0494 0.6595
N1E N 0.7258(4) -0.1536(4) 1.7957(15)
C1E C 0.7507(5) -0.1139(5) 1.9522(19)
H1E H 0.7804 -0.1300 2.0617
C2E C 0.7352(6) -0.0506(5) 1.961(2)
H2E H 0.7538 -0.0240 2.0761
C3E C 0.6910(6) -0.0249(5) 1.797(3)
H3E H 0.6794 0.0185 1.8014
C4E C 0.6654(5) -0.0662(5) 1.631(2)
C5E C 0.6832(5) -0.1307(5) 1.6362(19)
H4E H 0.6651 -0.1590 1.5260
N2E N 0.6241(4) -0.0401(4) 1.4535(18)
H5E H 0.6262 0.0010 1.4302
C6E C 0.5815(5) -0.0736(5) 1.3168(19)
O1E O 0.5752(4) -0.1325(4) 1.3229(16)
C7E C 0.5399(5) -0.0350(5) 1.1532(18)
C8E C 0.5182(6) -0.0625(6) 0.953(2)
H6E H 0.5302 -0.1048 0.9175
C9E C 0.5219(6) 0.0292(5) 1.203(2)
H7E H 0.5368 0.0494 1.3405
Cu1_2 Cu 0.2500 0.2500 1.2102(4)
Cu1D Cu -0.2500 -0.2500 1.7898(4)
Cu1D_2 Cu 0.7500 -0.2500 1.7898(4)
Br1_2 Br 0.2500 0.2500 -0.2924(4)
N1B N 0.3464(4) 0.2742(4) 0.2043(15)
N1C N 0.2258(4) 0.3464(4) 0.2043(15)
Br2 Br 0.8933(3) 0.1745(3) 0.7617(13)
O2 O 0.8391(11) 0.0976(11) 0.254(4)
O3? O 0.8392(6) 0.1464(6) 0.494(2)
loop_
_geom_bond_atom_site_label_1
_geom_bond_atom_site_label_2
_geom_bond_site_symmetry_1
_geom_bond_site_symmetry_2
Cu1 Br1 1_555 1_555
Br1 Cu1_2 1_555 1_555
N1 Cu1 1_555 1_555
C1 N1 1_555 1_555
H1 C1 1_555 1_555
C2 C1 1_555 1_555
H2 C2 1_555 1_555
C3 C2 1_555 1_555
H3 C3 1_555 1_555
C4 C3 1_555 1_555
C5 N1 1_555 1_555
H4 C5 1_555 1_555
N2 C4 1_555 1_555
H5 N2 1_555 1_555
C6 N2 1_555 1_555
O1 C6 1_555 1_555
C7 C6 1_555 1_555
C8 C7 1_555 1_555
H6 C8 1_555 1_555
C9 C7 1_555 1_555
H7 C9 1_555 1_555
N1D C1D 1_555 1_555
C1D H1D 1_555 1_555
C2D C1D 1_555 1_555
H2D C2D 1_555 1_555
C3D C2D 1_555 1_555
H3D C3D 1_555 1_555
C4D C3D 1_555 1_555
C5D N1D 1_555 1_555
H4D C5D 1_555 1_555
N2D C4D 1_555 1_555
H5D N2D 1_555 1_555
C6D N2D 1_555 1_555
O1D C6D 1_555 1_555
C7D C6D 1_555 1_555
C8D C9 1_555 1_555
H6D C8D 1_555 1_555
C9D C8 1_555 1_555
H7D C9D 1_555 1_555
N1A Cu1 1_555 1_555
C1A N1A 1_555 1_555
H1A C1A 1_555 1_555
C2A C1A 1_555 1_555
H2A C2A 1_555 1_555
C3A C2A 1_555 1_555
H3A C3A 1_555 1_555
C4A C3A 1_555 1_555
C5A N1A 1_555 1_555
H4A C5A 1_555 1_555
N2A C4A 1_555 1_555
H5A N2A 1_555 1_555
C6A N2A 1_555 1_555
O1A C6A 1_555 1_555
C7A C6A 1_555 1_555
C8A C7A 1_555 1_555
H6A C8A 1_555 1_555
C9A C7A 1_555 1_555
H7A C9A 1_555 1_555
N1E C1E 1_555 1_555
C1E H1E 1_555 1_555
C2E C1E 1_555 1_555
H2E C2E 1_555 1_555
C3E C2E 1_555 1_555
H3E C3E 1_555 1_555
C4E C3E 1_555 1_555
C5E N1E 1_555 1_555
H4E C5E 1_555 1_555
N2E C4E 1_555 1_555
H5E N2E 1_555 1_555
C6E N2E 1_555 1_555
O1E C6E 1_555 1_555
C7E C6E 1_555 1_555
C8E C9A 1_555 1_555
H6E C8E 1_555 1_555
C9E C8A 1_555 1_555
H7E C9E 1_555 1_555
Cu1D N1D 1_555 1_555
Cu1D_2 N1E 1_555 1_555
Br1_2 Cu1 1_555 1_555
N1B Cu1 1_555 1_555
N1C Cu1 1_555 1_555
C4 C5 1_555 1_555
C4D C5D 1_555 1_555
C7D C8D 1_555 1_555
C7D C9D 1_555 1_555
C4A C5A 1_555 1_555
C4E C5E 1_555 1_555
C7E C8E 1_555 1_555
C7E C9E 1_555 1_555

#END
