
#######################################################################
#
#                 Cambridge Crystallographic Data Centre
#                                CCDC 
#
#######################################################################
#
# If this CIF has been generated from an entry in the Cambridge 
# Structural Database, then it will include bibliographic, chemical, 
# crystal, experimental, refinement or atomic coordinate data resulting 
# from the CCDC's data processing and validation procedures.
#
#######################################################################

data_XUMNEA
_symmetry_cell_setting           monoclinic
_symmetry_space_group_name_H-M   'P 21/c'
_symmetry_Int_Tables_number      14
_space_group_name_Hall           '-P 2ybc'
loop_
_symmetry_equiv_pos_site_id
_symmetry_equiv_pos_as_xyz
1 x,y,z
2 -x,1/2+y,1/2-z
3 -x,-y,-z
4 x,1/2-y,1/2+z
_cell_length_a                   8.8305(6)
_cell_length_b                   19.9787(15)
_cell_length_c                   25.7425(19)
_cell_angle_alpha                90
_cell_angle_beta                 96.8210(10)
_cell_angle_gamma                90
_cell_volume                     4509.4
loop_
_atom_site_label
_atom_site_type_symbol
_atom_site_fract_x
_atom_site_fract_y
_atom_site_fract_z
C1 C 0.3872(5) 0.0131(2) 0.56744(14)
H1 H 0.3815 -0.0152 0.5386
C2 C 0.4333(5) -0.0137(2) 0.61618(14)
H2 H 0.4599 -0.0586 0.6193
C3 C 0.4401(4) 0.02574(19) 0.66004(13)
C4 C 0.4016(5) 0.0927(2) 0.65203(15)
H3 H 0.4043 0.1217 0.6804
C5 C 0.3602(6) 0.1156(2) 0.60279(16)
H4 H 0.3367 0.1608 0.5986
C6 C 0.4848(4) -0.00128(19) 0.71358(13)
C7 C 0.4560(4) -0.0674(2) 0.72500(14)
H5 H 0.4119 -0.0955 0.6986
C8 C 0.4916(4) -0.0925(2) 0.77469(14)
H6 H 0.4730 -0.1373 0.7814
C9 C 0.5551(4) -0.0513(2) 0.81477(13)
C10 C 0.5849(4) 0.0146(2) 0.80372(14)
H7 H 0.6291 0.0426 0.8301
C11 C 0.5495(4) 0.0392(2) 0.75368(14)
H8 H 0.5696 0.0838 0.7468
C12 C 0.4686(4) -0.1209(2) 0.88302(13)
C13 C 0.3181(5) -0.1019(2) 0.87699(16)
H9 H 0.2894 -0.0613 0.8610
C14 C 0.2095(5) -0.1429(2) 0.89461(16)
H10 H 0.1076 -0.1301 0.8896
C15 C 0.2490(4) -0.20297(19) 0.91963(14)
C16 C 0.3989(5) -0.2215(2) 0.92414(15)
H11 H 0.4274 -0.2623 0.9396
C17 C 0.5100(5) -0.1813(2) 0.90636(16)
H12 H 0.6114 -0.1950 0.9101
C18 C 0.1314(5) -0.2440(2) 0.94129(13)
C19 C 0.0060(5) -0.2143(2) 0.95954(14)
H13 H -0.0058 -0.1680 0.9580
C20 C -0.1008(4) -0.2532(2) 0.97990(13)
H14 H -0.1837 -0.2321 0.9920
C21 C 0.0297(5) -0.3483(2) 0.96547(15)
H15 H 0.0384 -0.3946 0.9673
C22 C 0.1421(5) -0.3125(2) 0.94469(15)
H16 H 0.2244 -0.3347 0.9331
C23 C 0.7002(4) -0.0542(2) 0.90348(13)
C24 C 0.6793(5) -0.0505(3) 0.95553(16)
H17 H 0.5853 -0.0619 0.9658
C25 C 0.7961(5) -0.0299(3) 0.99281(15)
H18 H 0.7788 -0.0288 1.0277
C26 C 0.9374(4) -0.01091(19) 0.97995(14)
C27 C 0.9540(4) -0.01321(18) 0.92698(13)
H19 H 1.0459 0.0004 0.9161
C28 C 0.8387(4) -0.03496(18) 0.88997(13)
H20 H 0.8557 -0.0366 0.8550
C29 C 0.5055(5) 0.1979(2) 0.45234(13)
C30 C 0.6331(4) 0.23572(19) 0.43348(13)
C31 C 0.6323(5) 0.3048(2) 0.43077(14)
H21 H 0.5529 0.3284 0.4430
C32 C 0.7466(5) 0.3395(2) 0.41032(15)
H22 H 0.7418 0.3860 0.4086
C33 C 0.8685(4) 0.30657(19) 0.39224(13)
C34 C 0.8751(5) 0.2367(2) 0.39714(15)
H23 H 0.9576 0.2133 0.3869
C35 C 0.7594(5) 0.2027(2) 0.41714(14)
H24 H 0.7652 0.1563 0.4199
C36 C 0.9864(5) 0.34299(19) 0.36746(14)
C37 C 1.1379(5) 0.3450(2) 0.38874(17)
H25 H 1.1686 0.3220 0.4196
C38 C 1.2432(5) 0.3804(2) 0.36486(19)
H26 H 1.3439 0.3824 0.3802
C39 C 1.2006(5) 0.4134(2) 0.31808(17)
H27 H 1.2733 0.4370 0.3022
C40 C 1.0516(5) 0.4117(2) 0.29479(15)
C41 C 0.9460(5) 0.37682(18) 0.32044(15)
H28 H 0.8446 0.3760 0.3057
C42 C 1.0060(4) 0.4450(2) 0.24377(14)
C43 C 1.0671(5) 0.5049(2) 0.23170(16)
H29 H 1.1411 0.5245 0.2556
C44 C 1.0223(5) 0.5372(2) 0.18482(17)
H30 H 1.0654 0.5783 0.1780
C45 C 0.9143(5) 0.5091(2) 0.14814(15)
C46 C 0.8551(5) 0.4479(2) 0.15920(15)
H31 H 0.7843 0.4274 0.1346
C47 C 0.8996(5) 0.4160(2) 0.20669(15)
H32 H 0.8573 0.3748 0.2136
C48 C 0.8572(5) 0.5464(2) 0.09901(15)
Cd1 Cd 0.27435(3) 0.120887(13) 0.479253(9)
N1 N 0.5825(3) -0.07782(17) 0.86631(11)
N2 N 0.3508(4) 0.07679(16) 0.55950(11)
N3 N -0.0913(4) -0.31943(16) 0.98317(11)
O1 O 0.3913(3) 0.22798(14) 0.46359(11)
O2 O 0.5173(4) 0.13634(15) 0.45681(12)
O3 O 0.7855(4) 0.51613(15) 0.06194(11)
O4 O 0.8789(4) 0.60749(16) 0.09820(12)
C1B C 1.6128(5) -0.0131(2) 1.43256(14)
H1B H 1.6185 0.0152 1.4614
C2B C 1.5667(5) 0.0137(2) 1.38382(14)
H2B H 1.5401 0.0586 1.3807
C3B C 1.5599(4) -0.02574(19) 1.33996(13)
C4B C 1.5984(5) -0.0927(2) 1.34797(15)
H3B H 1.5957 -0.1217 1.3196
C5B C 1.6398(6) -0.1156(2) 1.39721(16)
H4B H 1.6633 -0.1608 1.4014
C6B C 1.5152(4) 0.00128(19) 1.28642(13)
C7B C 1.5440(4) 0.0674(2) 1.27500(14)
H5B H 1.5881 0.0955 1.3014
C8B C 1.5084(4) 0.0925(2) 1.22531(14)
H6B H 1.5270 0.1373 1.2186
C9B C 1.4449(4) 0.0513(2) 1.18523(13)
C10B C 1.4151(4) -0.0146(2) 1.19628(14)
H7B H 1.3709 -0.0426 1.1699
C11B C 1.4505(4) -0.0392(2) 1.24632(14)
H8B H 1.4304 -0.0838 1.2532
C12B C 1.5314(4) 0.1209(2) 1.11698(13)
C13B C 1.6819(5) 0.1019(2) 1.12301(16)
H9B H 1.7106 0.0613 1.1390
C14B C 1.7905(5) 0.1429(2) 1.10539(16)
H10B H 1.8924 0.1301 1.1104
C15B C 1.7510(4) 0.20297(19) 1.08037(14)
C16B C 1.6011(5) 0.2215(2) 1.07586(15)
H11B H 1.5726 0.2623 1.0604
C17B C 1.4900(5) 0.1813(2) 1.09364(16)
H12B H 1.3886 0.1950 1.0899
C18B C 1.8686(5) 0.2440(2) 1.05871(13)
C19B C 1.9940(5) 0.2143(2) 1.04046(14)
H13B H 2.0058 0.1680 1.0420
C20B C 2.1008(4) 0.2532(2) 1.02010(13)
H14B H 2.1837 0.2321 1.0080
C21B C 1.9703(5) 0.3483(2) 1.03453(15)
H15B H 1.9616 0.3946 1.0327
C22B C 1.8579(5) 0.3125(2) 1.05531(15)
H16B H 1.7756 0.3347 1.0669
C23B C 1.2998(4) 0.0542(2) 1.09652(13)
C24B C 1.3207(5) 0.0505(3) 1.04447(16)
H17B H 1.4147 0.0619 1.0342
C25B C 1.2039(5) 0.0299(3) 1.00719(15)
H18B H 1.2212 0.0288 0.9723
C26B C 1.0626(4) 0.01091(19) 1.02005(14)
C27B C 1.0460(4) 0.01321(18) 1.07302(13)
H19B H 0.9541 -0.0004 1.0839
C28B C 1.1613(4) 0.03496(18) 1.11003(13)
H20B H 1.1443 0.0366 1.1450
N1B N 1.4175(3) 0.07782(17) 1.13369(11)
N2B N 1.6492(4) -0.07679(16) 1.44050(11)
N3B N 2.0913(4) 0.31943(16) 1.01683(11)
C29B C 1.4945(5) -0.1979(2) 1.54766(13)
C30B C 1.3669(4) -0.23572(19) 1.56652(13)
C31B C 1.3677(5) -0.3048(2) 1.56923(14)
H21B H 1.4471 -0.3284 1.5570
C32B C 1.2534(5) -0.3395(2) 1.58968(15)
H22B H 1.2582 -0.3860 1.5914
C33B C 1.1315(4) -0.30657(19) 1.60776(13)
C34B C 1.1249(5) -0.2367(2) 1.60286(15)
H23B H 1.0424 -0.2133 1.6131
C35B C 1.2406(5) -0.2027(2) 1.58286(14)
H24B H 1.2348 -0.1563 1.5801
C36B C 1.0136(5) -0.34299(19) 1.63254(14)
C37B C 0.8621(5) -0.3450(2) 1.61126(17)
H25B H 0.8314 -0.3220 1.5804
C38B C 0.7568(5) -0.3804(2) 1.63514(19)
H26B H 0.6561 -0.3824 1.6198
C39B C 0.7994(5) -0.4134(2) 1.68192(17)
H27B H 0.7267 -0.4370 1.6978
C40B C 0.9484(5) -0.4117(2) 1.70521(15)
C41B C 1.0540(5) -0.37682(18) 1.67956(15)
H28B H 1.1554 -0.3760 1.6943
C42B C 0.9940(4) -0.4450(2) 1.75623(14)
C43B C 0.9329(5) -0.5049(2) 1.76830(16)
H29B H 0.8589 -0.5245 1.7444
C44B C 0.9777(5) -0.5372(2) 1.81518(17)
H30B H 0.9346 -0.5783 1.8220
C45B C 1.0857(5) -0.5091(2) 1.85186(15)
C46B C 1.1449(5) -0.4479(2) 1.84080(15)
H31B H 1.2157 -0.4274 1.8654
C47B C 1.1004(5) -0.4160(2) 1.79331(15)
H32B H 1.1427 -0.3748 1.7864
C48B C 1.1428(5) -0.5464(2) 1.90099(15)
Cd1B Cd 1.72565(3) -0.120887(13) 1.520747(9)
O1B O 1.6087(3) -0.22798(14) 1.53641(11)
O2B O 1.4827(4) -0.13634(15) 1.54319(12)
O3B O 1.2145(4) -0.51613(15) 1.93806(11)
O4B O 1.1211(4) -0.60749(16) 1.90180(12)
Cd1A Cd -0.27435(3) -0.379113(13) 1.020747(9)
Cd1A_2 Cd 0.72565(3) 0.620887(13) 0.020747(9)
Cd1C Cd 1.27435(3) -0.620887(13) 1.979253(9)
Cd1C_2 Cd 2.27435(3) 0.379113(13) 0.979253(9)
N3A N 0.0913(4) 0.18057(16) 0.51683(11)
N3C N 1.9087(4) -0.18057(16) 1.48317(11)
O3A O 0.2145(4) 0.01613(15) 0.43806(11)
O3C O 1.7855(4) -0.01613(15) 1.56194(11)
O4A O 0.1211(4) 0.10749(16) 0.40180(12)
O4C O 1.8789(4) -0.10749(16) 1.59820(12)
C49 C 0.1344(12) 0.2601(7) 0.6876(5)
H33 H 0.1436 0.3001 0.6675
H34 H 0.0285 0.2488 0.6870
H35 H 0.1869 0.2241 0.6727
C50 C 0.115(2) 0.3079(7) 0.7763(7)
H36 H 0.1063 0.3542 0.7666
H37 H 0.1696 0.3041 0.8107
H38 H 0.0150 0.2890 0.7762
C51 C 0.3480(19) 0.2509(9) 0.7580(8)
N4 N 0.2124(18) 0.2698(4) 0.7421(4)
O5 O 0.3975(18) 0.2317(6) 0.7223(6)
C52 C 0.4110(12) 0.2630(5) 0.8100(5)
H39 H 0.5176 0.2520 0.8139
H40 H 0.3598 0.2358 0.8333
H41 H 0.3986 0.3094 0.8182
loop_
_geom_bond_atom_site_label_1
_geom_bond_atom_site_label_2
_geom_bond_site_symmetry_1
_geom_bond_site_symmetry_2
C1 H1 1_555 1_555
C2 C1 1_555 1_555
H2 C2 1_555 1_555
C3 C2 1_555 1_555
C4 C3 1_555 1_555
H3 C4 1_555 1_555
C5 C4 1_555 1_555
H4 C5 1_555 1_555
C6 C3 1_555 1_555
C7 C6 1_555 1_555
H5 C7 1_555 1_555
C8 C7 1_555 1_555
H6 C8 1_555 1_555
C9 C8 1_555 1_555
C10 C9 1_555 1_555
H7 C10 1_555 1_555
C11 C6 1_555 1_555
H8 C11 1_555 1_555
C12 C13 1_555 1_555
C13 H9 1_555 1_555
C14 C13 1_555 1_555
H10 C14 1_555 1_555
C15 C14 1_555 1_555
C16 C15 1_555 1_555
H11 C16 1_555 1_555
C17 C12 1_555 1_555
H12 C17 1_555 1_555
C18 C15 1_555 1_555
C19 C18 1_555 1_555
H13 C19 1_555 1_555
C20 C19 1_555 1_555
H14 C20 1_555 1_555
C21 H15 1_555 1_555
C22 C18 1_555 1_555
H16 C22 1_555 1_555
C23 C24 1_555 1_555
C24 H17 1_555 1_555
C25 C24 1_555 1_555
H18 C25 1_555 1_555
C26 C25 1_555 1_555
C27 C26 1_555 1_555
H19 C27 1_555 1_555
C28 C23 1_555 1_555
H20 C28 1_555 1_555
C29 C30 1_555 1_555
C30 C31 1_555 1_555
C31 H21 1_555 1_555
C32 C31 1_555 1_555
H22 C32 1_555 1_555
C33 C32 1_555 1_555
C34 C33 1_555 1_555
H23 C34 1_555 1_555
C35 C30 1_555 1_555
H24 C35 1_555 1_555
C36 C33 1_555 1_555
C37 C36 1_555 1_555
H25 C37 1_555 1_555
C38 C37 1_555 1_555
H26 C38 1_555 1_555
C39 C38 1_555 1_555
H27 C39 1_555 1_555
C40 C39 1_555 1_555
C41 C36 1_555 1_555
H28 C41 1_555 1_555
C42 C40 1_555 1_555
C43 C42 1_555 1_555
H29 C43 1_555 1_555
C44 C43 1_555 1_555
H30 C44 1_555 1_555
C45 C44 1_555 1_555
C46 C45 1_555 1_555
H31 C46 1_555 1_555
C47 C42 1_555 1_555
H32 C47 1_555 1_555
C48 C45 1_555 1_555
Cd1 N2 1_555 1_555
N1 C9 1_555 1_555
N2 C1 1_555 1_555
N3 C20 1_555 1_555
O1 C29 1_555 1_555
O2 C29 1_555 1_555
O3 C48 1_555 1_555
O4 C48 1_555 1_555
C49 H33 1_555 1_555
H34 C49 1_555 1_555
H35 C49 1_555 1_555
C50 H36 1_555 1_555
H37 C50 1_555 1_555
H38 C50 1_555 1_555
C51 N4 1_555 1_555
N4 C49 1_555 1_555
O5 C51 1_555 1_555
C52 C51 1_555 1_555
H39 C52 1_555 1_555
H40 C52 1_555 1_555
H41 C52 1_555 1_555
C1B H1B 1_555 1_555
C2B C1B 1_555 1_555
H2B C2B 1_555 1_555
C3B C2B 1_555 1_555
C4B C3B 1_555 1_555
H3B C4B 1_555 1_555
C5B C4B 1_555 1_555
H4B C5B 1_555 1_555
C6B C3B 1_555 1_555
C7B C6B 1_555 1_555
H5B C7B 1_555 1_555
C8B C7B 1_555 1_555
H6B C8B 1_555 1_555
C9B C8B 1_555 1_555
C10B C9B 1_555 1_555
H7B C10B 1_555 1_555
C11B C6B 1_555 1_555
H8B C11B 1_555 1_555
C12B C13B 1_555 1_555
C13B H9B 1_555 1_555
C14B C13B 1_555 1_555
H10B C14B 1_555 1_555
C15B C14B 1_555 1_555
C16B C15B 1_555 1_555
H11B C16B 1_555 1_555
C17B C12B 1_555 1_555
H12B C17B 1_555 1_555
C18B C15B 1_555 1_555
C19B C18B 1_555 1_555
H13B C19B 1_555 1_555
C20B C19B 1_555 1_555
H14B C20B 1_555 1_555
C21B H15B 1_555 1_555
C22B C18B 1_555 1_555
H16B C22B 1_555 1_555
C23B C24B 1_555 1_555
C24B H17B 1_555 1_555
C25B C24B 1_555 1_555
H18B C25B 1_555 1_555
C26B C26 1_555 1_555
C27B C26B 1_555 1_555
H19B C27B 1_555 1_555
C28B C23B 1_555 1_555
H20B C28B 1_555 1_555
N1B C9B 1_555 1_555
N2B C1B 1_555 1_555
N3B C20B 1_555 1_555
C29B C30B 1_555 1_555
C30B C31B 1_555 1_555
C31B H21B 1_555 1_555
C32B C31B 1_555 1_555
H22B C32B 1_555 1_555
C33B C32B 1_555 1_555
C34B C33B 1_555 1_555
H23B C34B 1_555 1_555
C35B C30B 1_555 1_555
H24B C35B 1_555 1_555
C36B C33B 1_555 1_555
C37B C36B 1_555 1_555
H25B C37B 1_555 1_555
C38B C37B 1_555 1_555
H26B C38B 1_555 1_555
C39B C38B 1_555 1_555
H27B C39B 1_555 1_555
C40B C39B 1_555 1_555
C41B C36B 1_555 1_555
H28B C41B 1_555 1_555
C42B C40B 1_555 1_555
C43B C42B 1_555 1_555
H29B C43B 1_555 1_555
C44B C43B 1_555 1_555
H30B C44B 1_555 1_555
C45B C44B 1_555 1_555
C46B C45B 1_555 1_555
H31B C46B 1_555 1_555
C47B C42B 1_555 1_555
H32B C47B 1_555 1_555
C48B C45B 1_555 1_555
Cd1B N2B 1_555 1_555
O1B C29B 1_555 1_555
O2B C29B 1_555 1_555
O3B C48B 1_555 1_555
O4B C48B 1_555 1_555
Cd1A N3 1_555 1_555
Cd1A_2 O3 1_555 1_555
Cd1C O3B 1_555 1_555
Cd1C_2 N3B 1_555 1_555
N3A Cd1 1_555 1_555
N3C Cd1B 1_555 1_555
O3A Cd1 1_555 1_555
O3C Cd1B 1_555 1_555
O4A Cd1 1_555 1_555
O4C Cd1B 1_555 1_555
C5 N2 1_555 1_555
C10 C11 1_555 1_555
C12 N1 1_555 1_555
C16 C17 1_555 1_555
C21 C22 1_555 1_555
C21 N3 1_555 1_555
C23 N1 1_555 1_555
C27 C28 1_555 1_555
C34 C35 1_555 1_555
C40 C41 1_555 1_555
C46 C47 1_555 1_555
Cd1 O1 1_555 1_555
Cd1 O2 1_555 1_555
O4 Cd1A_2 1_555 1_555
C50 N4 1_555 1_555
C5B N2B 1_555 1_555
C10B C11B 1_555 1_555
C12B N1B 1_555 1_555
C16B C17B 1_555 1_555
C21B C22B 1_555 1_555
C21B N3B 1_555 1_555
C23B N1B 1_555 1_555
C25B C26B 1_555 1_555
C27B C28B 1_555 1_555
C34B C35B 1_555 1_555
C40B C41B 1_555 1_555
C46B C47B 1_555 1_555
Cd1B O1B 1_555 1_555
Cd1B O2B 1_555 1_555
O4B Cd1C 1_555 1_555

#END
