
#######################################################################
#
#                 Cambridge Crystallographic Data Centre
#                                CCDC 
#
#######################################################################
#
# If this CIF has been generated from an entry in the Cambridge 
# Structural Database, then it will include bibliographic, chemical, 
# crystal, experimental, refinement or atomic coordinate data resulting 
# from the CCDC's data processing and validation procedures.
#
#######################################################################

data_XUMPIF
_symmetry_cell_setting           triclinic
_symmetry_space_group_name_H-M   'P -1'
_symmetry_Int_Tables_number      2
_space_group_name_Hall           '-P 1'
loop_
_symmetry_equiv_pos_site_id
_symmetry_equiv_pos_as_xyz
1 x,y,z
2 -x,-y,-z
_cell_length_a                   14.544(2)
_cell_length_b                   15.039(3)
_cell_length_c                   18.655(3)
_cell_angle_alpha                112.528(3)
_cell_angle_beta                 106.237(3)
_cell_angle_gamma                97.703(2)
_cell_volume                     3482.29
loop_
_atom_site_label
_atom_site_type_symbol
_atom_site_fract_x
_atom_site_fract_y
_atom_site_fract_z
Ge1 Ge 0.26814(8) 0.52416(8) 0.25328(7)
Ni1 Ni 0.24957(11) 0.81558(11) 0.34350(8)
Ni2 Ni 0.52204(10) 0.52228(10) 0.19323(8)
Ni3 Ni 0.28131(11) 0.41892(11) 0.42501(8)
Ni4 Ni 0.02401(10) 0.34006(11) 0.05121(8)
Mo1 Mo 0.50106(7) 0.53842(7) 0.39105(5)
Mo2 Mo 0.41845(7) 0.35578(7) 0.27884(6)
Mo3 Mo 0.36183(7) 0.69501(7) 0.47380(6)
Mo4 Mo 0.12280(7) 0.61849(7) 0.12624(6)
Mo5 Mo 0.26513(7) 0.46624(7) 0.04500(5)
Mo6 Mo 0.27965(7) 0.31684(7) 0.07906(6)
Mo7 Mo 0.36795(7) 0.70598(7) 0.18524(6)
Mo8 Mo 0.17143(7) 0.62468(7) 0.41703(6)
Mo9 Mo 0.03008(7) 0.58137(7) 0.21529(6)
Mo10 Mo 0.49080(7) 0.74289(7) 0.36281(6)
Mo11 Mo 0.17253(7) 0.25741(7) 0.19707(6)
Mo12 Mo 0.04696(7) 0.39348(8) 0.26825(6)
O1 O 0.3943(5) 0.4341(5) 0.3796(4)
O2 O 0.4952(5) 0.4747(5) 0.2774(4)
O3 O 0.1394(5) 0.6963(5) 0.2417(4)
O4 O 0.2566(5) 0.7281(5) 0.4069(4)
O5 O 0.1654(5) 0.3656(5) 0.0453(4)
O6 O 0.2529(5) 0.5646(5) 0.1737(4)
O7 O 0.0461(5) 0.4924(5) 0.1134(4)
O8 O 0.2768(5) 0.5651(6) 0.4484(4)
O9 O 0.1618(5) 0.5334(5) 0.2818(4)
O10 O 0.1722(5) 0.3575(5) 0.3060(4)
O11 O 0.2843(5) 0.4025(5) 0.2143(4)
O12 O 0.3751(5) 0.5989(5) 0.3452(4)
O13 O 0.4663(5) 0.6540(5) 0.2443(4)
O14 O 0.3770(5) 0.4409(5) 0.1125(4)
O15 O 0.0502(5) 0.6499(6) 0.3414(4)
H1 H -0.0064 0.6380 0.3524
O16 O 0.2423(5) 0.7242(5) 0.1474(4)
O17 O 0.0735(5) 0.3283(5) 0.1640(4)
O18 O 0.3652(5) 0.7620(5) 0.2998(4)
O19 O 0.2958(5) 0.2529(5) 0.2536(4)
O20 O 0.3954(5) 0.4785(5) 0.5492(4)
O21 O 0.5680(5) 0.6675(5) 0.3936(4)
O22 O 0.5769(6) 0.8453(6) 0.3826(5)
O23 O -0.0339(5) 0.3482(5) -0.0678(4)
O24 O 0.1861(5) 0.2192(5) 0.0961(4)
O25 O 0.5039(6) 0.3003(6) 0.3069(5)
O26 O 0.3918(5) 0.2854(5) 0.1533(4)
H2 H 0.3958 0.2213 0.1327
O27 O -0.0396(6) 0.3001(6) 0.2614(5)
O28 O 0.0782(5) 0.4889(5) 0.3752(4)
O29 O 0.0956(6) 0.1533(6) 0.1856(5)
O30 O -0.0738(6) 0.6141(6) 0.1823(5)
O31 O 0.1520(5) 0.5329(5) 0.0198(4)
H3 H 0.0985 0.5050 -0.0341
O32 O 0.4798(5) 0.6349(5) 0.4984(4)
H4 H 0.5005 0.6179 0.5423
O33 O 0.3565(5) 0.6030(5) 0.0860(4)
O34 O 0.2701(6) 0.4179(6) -0.0510(4)
O35 O 0.1492(6) 0.6832(6) 0.5044(4)
O36 O 0.4560(5) 0.7870(5) 0.4550(4)
O37 O 0.2844(6) 0.2365(6) -0.0103(4)
O38 O 0.4435(6) 0.8048(6) 0.1880(5)
O39 O -0.0339(5) 0.4558(6) 0.2180(4)
O40 O 0.3812(6) 0.7720(6) 0.5724(5)
N1 N 0.1749(8) 0.3948(7) 0.4746(6)
H5 H 0.1966 0.4384 0.5288
H6 H 0.1184 0.4051 0.4481
N2 N 0.2901(7) 0.2787(8) 0.4139(6)
H7 H 0.2909 0.2410 0.3633
H8 H 0.3465 0.2838 0.4526
N3 N -0.1222(7) 0.3092(8) 0.0456(6)
H9 H -0.1255 0.3434 0.0959
H10 H -0.1609 0.3263 0.0090
N4 N -0.0123(7) 0.1869(7) -0.0154(6)
H11 H -0.0156 0.1711 -0.0679
H12 H 0.0353 0.1633 0.0078
N5 N 0.2432(7) 0.9012(7) 0.2793(5)
H13 H 0.2516 0.8677 0.2310
H14 H 0.1830 0.9129 0.2673
N6 N 0.3660(8) 0.9418(7) 0.4369(6)
H15 H 0.3440 0.9814 0.4747
H16 H 0.4161 0.9230 0.4631
N7 N 0.6662(6) 0.6056(7) 0.2744(6)
H17 H 0.6644 0.6500 0.3225
H18 H 0.7014 0.5646 0.2858
N8 N 0.5593(6) 0.5880(7) 0.1214(6)
H19 H 0.5813 0.5469 0.0844
H20 H 0.5060 0.6014 0.0934
N9 N 0.5645(7) 0.3933(7) 0.1324(6)
N10 N 0.6070(8) -0.0964(8) -0.0801(7)
N11 N 0.1501(7) 0.8736(7) 0.3983(6)
C1 C 0.2032(13) 0.2318(12) 0.4252(11)
H21 H 0.1555 0.1847 0.3706
H22 H 0.2247 0.1936 0.4552
C2 C 0.1550(15) 0.2937(15) 0.4660(14)
H23 H 0.2016 0.3112 0.5218
C3 C 0.0669(12) 0.2531(13) 0.4794(12)
H24 H 0.0468 0.3072 0.5134
H25 H 0.0829 0.2116 0.5068
H26 H 0.0136 0.2140 0.4267
C4 C -0.1535(12) 0.2044(11) 0.0196(13)
H27 H -0.1544 0.1960 0.0684
H28 H -0.2221 0.1815 -0.0184
C5 C -0.1069(16) 0.1411(12) -0.0166(19)
H29 H -0.1436 0.1331 -0.0724
C6 C -0.1337(13) 0.0342(11) -0.0411(11)
H30 H -0.0949 0.0030 -0.0721
H31 H -0.2031 0.0059 -0.0750
H32 H -0.1210 0.0232 0.0077
C7 C 0.3992(12) 0.9943(11) 0.3919(9)
H33 H 0.4380 1.0620 0.4319
H34 H 0.4426 0.9608 0.3668
C8 C 0.3222(10) 0.9986(10) 0.3299(8)
H35 H 0.2890 1.0417 0.3620
C9 C 0.3470(12) 1.0516(11) 0.2813(11)
H36 H 0.2866 1.0513 0.2433
H37 H 0.3851 1.0181 0.2506
H38 H 0.3851 1.1194 0.3188
C10 C 0.6394(9) 0.6823(8) 0.1805(7)
H39 H 0.6693 0.7092 0.1501
H40 H 0.6117 0.7318 0.2122
C11 C 0.7156(8) 0.6594(9) 0.2375(8)
H41 H 0.7465 0.6144 0.2042
C12 C 0.7986(11) 0.7539(12) 0.3053(10)
H42 H 0.8464 0.7354 0.3402
H43 H 0.7700 0.7995 0.3385
H44 H 0.8308 0.7856 0.2795
C13 C 0.0713(10) 0.8924(10) 0.3567(8)
H45 H 0.0550 0.8716 0.2998
C14 C 0.0119(9) 0.9425(10) 0.3957(8)
H46 H -0.0433 0.9537 0.3643
C15 C 0.0335(8) 0.9753(9) 0.4794(7)
C16 C 0.1138(11) 0.9535(10) 0.5223(8)
H47 H 0.1289 0.9706 0.5785
C17 C 0.1731(11) 0.9050(11) 0.4807(8)
H48 H 0.2296 0.8945 0.5111
C18 C 0.6191(9) 0.3520(9) 0.1713(8)
H49 H 0.6501 0.3878 0.2288
C19 C 0.6346(10) 0.2592(10) 0.1339(9)
H50 H 0.6742 0.2341 0.1658
C20 C 0.5898(9) 0.2035(8) 0.0474(8)
C21 C 0.5352(10) 0.2491(9) 0.0051(7)
H51 H 0.5058 0.2168 -0.0527
C22 C 0.5246(10) 0.3420(9) 0.0486(7)
H52 H 0.4880 0.3709 0.0188
C23 C 0.5969(9) 0.1009(9) 0.0038(8)
C24 C 0.6414(9) 0.0518(9) 0.0452(9)
H53 H 0.6697 0.0834 0.1030
C25 C 0.6448(11) -0.0437(10) 0.0022(9)
H54 H 0.6760 -0.0744 0.0331
C26 C 0.5642(11) -0.0489(11) -0.1200(9)
H55 H 0.5354 -0.0831 -0.1777
C27 C 0.5586(11) 0.0477(11) -0.0827(9)
H56 H 0.5294 0.0776 -0.1152
Ge1A Ge -0.26814(8) 0.47584(8) -0.25328(7)
Ge1A_2 Ge -0.26814(8) 1.47584(8) 0.74672(7)
Ni1A Ni -0.24957(11) 1.18442(11) 0.65650(8)
Ni2A Ni -0.52204(10) 1.47772(10) 0.80677(8)
Ni2A_2 Ni 0.47796(10) 0.47772(10) 0.80677(8)
Ni3A Ni 0.71869(11) 0.58108(11) 0.57499(8)
Ni3A_2 Ni -0.28131(11) 1.58108(11) 0.57499(8)
Ni4A Ni -0.02401(10) 0.65994(11) -0.05121(8)
Ni4A_2 Ni -0.02401(10) 1.65994(11) 0.94879(8)
Mo1A Mo 0.49894(7) 0.46158(7) 0.60895(5)
Mo1A_2 Mo -0.50106(7) 1.46158(7) 0.60895(5)
Mo2A Mo -0.41845(7) 1.64422(7) 0.72116(6)
Mo2A_2 Mo 0.58155(7) 0.64422(7) 0.72116(6)
Mo3A Mo -0.36183(7) 1.30499(7) 0.52620(6)
Mo3A_2 Mo 0.63817(7) 0.30499(7) 0.52620(6)
Mo4A Mo -0.12280(7) 0.38151(7) -0.12624(6)
Mo4A_2 Mo -0.12280(7) 1.38151(7) 0.87376(6)
Mo5A Mo -0.26513(7) 0.53376(7) -0.04500(5)
Mo5A_2 Mo -0.26513(7) 1.53376(7) 0.95500(5)
Mo6A Mo -0.27965(7) 1.68316(7) 0.92094(6)
Mo6A_2 Mo -0.27965(7) 0.68316(7) -0.07906(6)
Mo7A Mo -0.36795(7) 0.29402(7) -0.18524(6)
Mo7A_2 Mo -0.36795(7) 1.29402(7) 0.81476(6)
Mo8A Mo -0.17143(7) 1.37532(7) 0.58297(6)
Mo9A Mo -0.03008(7) 1.41863(7) 0.78471(6)
Mo10A Mo -0.49080(7) 1.25711(7) 0.63719(6)
Mo11A Mo -0.17253(7) 1.74259(7) 0.80293(6)
Mo12A Mo -0.04696(7) 1.60652(8) 0.73175(6)
O1A O 0.6057(5) 0.5659(5) 0.6204(4)
O1A_2 O -0.3943(5) 1.5659(5) 0.6204(4)
O2A O 0.5048(5) 0.5253(5) 0.7226(4)
O2A_2 O -0.4952(5) 1.5253(5) 0.7226(4)
O3A O -0.1394(5) 1.3037(5) 0.7583(4)
O3A_2 O -0.1394(5) 0.3037(5) -0.2417(4)
O4A O -0.2566(5) 1.2719(5) 0.5931(4)
O5A O -0.1654(5) 0.6344(5) -0.0453(4)
O5A_2 O -0.1654(5) 1.6344(5) 0.9547(4)
O6A O -0.2529(5) 0.4354(5) -0.1737(4)
O7A O -0.0461(5) 1.5076(5) 0.8866(4)
O7A_2 O -0.0461(5) 0.5076(5) -0.1134(4)
O8A O -0.2768(5) 1.4349(6) 0.5516(4)
O8A_2 O 0.7232(5) 0.4349(6) 0.5516(4)
O9A O -0.1618(5) 1.4666(5) 0.7182(4)
O9A_2 O -0.1618(5) 0.4666(5) -0.2818(4)
O10A O -0.1722(5) 1.6425(5) 0.6940(4)
O10A_2 O 0.8278(5) 0.6425(5) 0.6940(4)
O11A O -0.2843(5) 1.5975(5) 0.7857(4)
O11A_2 O -0.2843(5) 0.5975(5) -0.2143(4)
O12A O -0.3751(5) 1.4011(5) 0.6548(4)
O12A_2 O 0.6249(5) 0.4011(5) 0.6548(4)
O12A_3 O -0.3751(5) 0.4011(5) -0.3452(4)
O13A O -0.4663(5) 1.3460(5) 0.7557(4)
O13A_2 O -0.4663(5) 0.3460(5) -0.2443(4)
O14A O -0.3770(5) 1.5591(5) 0.8875(4)
O14A_2 O -0.3770(5) 0.5591(5) -0.1125(4)
O15A O -0.0502(5) 1.3501(6) 0.6586(4)
H1A H 0.0064 1.3620 0.6476
O16A O -0.2423(5) 0.2758(5) -0.1474(4)
O17A O -0.0735(5) 1.6717(5) 0.8360(4)
O17A_2 O -0.0735(5) 0.6717(5) -0.1640(4)
O18A O -0.3652(5) 1.2380(5) 0.7002(4)
O18A_2 O -0.3652(5) 0.2380(5) -0.2998(4)
O19A O -0.2958(5) 1.7471(5) 0.7464(4)
O20A O 0.6046(5) 0.5215(5) 0.4508(4)
O21A O -0.5680(5) 1.3325(5) 0.6064(4)
O21A_2 O 0.4320(5) 0.3325(5) 0.6064(4)
O22A O -0.5769(6) 1.1547(6) 0.6174(5)
O23A O 0.0339(5) 0.6518(5) 0.0678(4)
O24A O -0.1861(5) 1.7808(5) 0.9039(4)
O25A O -0.5039(6) 1.6997(6) 0.6931(5)
O26A O -0.3918(5) 1.7146(5) 0.8467(4)
H2A H -0.3958 1.7787 0.8673
O27A O 0.0396(6) 1.6999(6) 0.7386(5)
O28A O -0.0782(5) 1.5111(5) 0.6248(4)
O29A O -0.0956(6) 1.8467(6) 0.8144(5)
O30A O 0.0738(6) 1.3859(6) 0.8177(5)
O31A O -0.1520(5) 0.4671(5) -0.0198(4)
H3A H -0.0985 0.4950 0.0341
O32A O 0.5202(5) 0.3651(5) 0.5016(4)
O32A_2 O -0.4798(5) 1.3651(5) 0.5016(4)
H4A H 0.4995 0.3821 0.4577
H4A_2 H -0.5005 1.3821 0.4577
O33A O -0.3565(5) 0.3970(5) -0.0860(4)
O34A O -0.2701(6) 0.5821(6) 0.0510(4)
O35A O -0.1492(6) 1.3168(6) 0.4956(4)
O36A O -0.4560(5) 1.2130(5) 0.5450(4)
O37A O -0.2844(6) 1.7635(6) 1.0103(4)
O38A O -0.4435(6) 0.1952(6) -0.1880(5)
O39A O 0.0339(5) 1.5442(6) 0.7820(4)
O40A O -0.3812(6) 1.2280(6) 0.4276(5)
N1A N 0.8251(8) 0.6052(7) 0.5254(6)
H5A H 0.8034 0.5616 0.4712
H6A H 0.8816 0.5949 0.5519
N2A N 0.7099(7) 0.7213(8) 0.5861(6)
H7A H 0.7091 0.7590 0.6367
H8A H 0.6535 0.7162 0.5474
N3A N 0.1222(7) 0.6908(8) -0.0456(6)
H9A H 0.1255 0.6566 -0.0959
H10A H 0.1609 0.6737 -0.0090
N4A N 0.0123(7) 0.8131(7) 0.0154(6)
H11A H 0.0156 0.8289 0.0679
H12A H -0.0353 0.8367 -0.0078
N5A N -0.2432(7) 1.0988(7) 0.7207(5)
H13A H -0.2516 1.1323 0.7690
H14A H -0.1830 1.0871 0.7327
N6A N -0.3660(8) 1.0582(7) 0.5631(6)
H15A H -0.3440 1.0186 0.5253
H16A H -0.4161 1.0770 0.5369
N7A N -0.6662(6) 1.3944(7) 0.7256(6)
H17A H -0.6644 1.3500 0.6775
H18A H -0.7014 1.4354 0.7142
N8A N -0.5593(6) 1.4120(7) 0.8786(6)
H19A H -0.5813 1.4531 0.9156
H20A H -0.5060 1.3986 0.9066
N9A N -0.5645(7) 1.6067(7) 0.8676(6)
N10A N -0.6070(8) 2.0964(8) 1.0801(7)
N11A N -0.1501(7) 1.1264(7) 0.6017(6)
C1A C 0.7968(13) 0.7682(12) 0.5748(11)
H21A H 0.8445 0.8153 0.6294
H22A H 0.7753 0.8064 0.5448
C2A C 0.8450(15) 0.7063(15) 0.5340(14)
H23A H 0.7984 0.6888 0.4782
C3A C 0.9331(12) 0.7469(13) 0.5206(12)
H24A H 0.9532 0.6928 0.4866
H25A H 0.9171 0.7884 0.4932
H26A H 0.9864 0.7860 0.5733
C4A C 0.1535(12) 0.7956(11) -0.0196(13)
H27A H 0.1544 0.8040 -0.0684
H28A H 0.2221 0.8185 0.0184
C5A C 0.1069(16) 0.8589(12) 0.0166(19)
H29A H 0.1436 0.8669 0.0724
C6A C 0.1337(13) 0.9658(11) 0.0411(11)
H30A H 0.0949 0.9970 0.0721
H31A H 0.2031 0.9941 0.0750
H32A H 0.1210 0.9768 -0.0077
C7A C -0.3992(12) 1.0057(11) 0.6081(9)
H33A H -0.4380 0.9380 0.5681
H34A H -0.4426 1.0392 0.6332
C8A C -0.3222(10) 1.0014(10) 0.6701(8)
H35A H -0.2890 0.9583 0.6380
C9A C -0.3470(12) 0.9484(11) 0.7187(11)
H36A H -0.2866 0.9487 0.7567
H37A H -0.3851 0.9819 0.7494
H38A H -0.3851 0.8806 0.6812
C10A C -0.6394(9) 1.3177(8) 0.8195(7)
H39A H -0.6693 1.2908 0.8499
H40A H -0.6117 1.2682 0.7878
C11A C -0.7156(8) 1.3406(9) 0.7625(8)
H41A H -0.7465 1.3856 0.7958
C12A C -0.7986(11) 1.2461(12) 0.6947(10)
H42A H -0.8464 1.2646 0.6598
H43A H -0.7700 1.2005 0.6615
H44A H -0.8308 1.2144 0.7205
C13A C -0.0713(10) 1.1076(10) 0.6433(8)
H45A H -0.0550 1.1284 0.7002
C14A C -0.0119(9) 1.0575(10) 0.6043(8)
H46A H 0.0433 1.0463 0.6357
C15A C -0.0335(8) 1.0247(9) 0.5206(7)
C16A C -0.1138(11) 1.0465(10) 0.4777(8)
H47A H -0.1289 1.0294 0.4215
C17A C -0.1731(11) 1.0950(11) 0.5193(8)
H48A H -0.2296 1.1055 0.4889
C18A C -0.6191(9) 1.6480(9) 0.8287(8)
H49A H -0.6501 1.6122 0.7712
C19A C -0.6346(10) 1.7408(10) 0.8661(9)
H50A H -0.6742 1.7659 0.8342
C20A C -0.5898(9) 1.7965(8) 0.9526(8)
C21A C -0.5352(10) 1.7509(9) 0.9949(7)
H51A H -0.5058 1.7832 1.0527
C22A C -0.5246(10) 1.6580(9) 0.9514(7)
H52A H -0.4880 1.6291 0.9812
C23A C -0.5969(9) 1.8991(9) 0.9962(8)
C24A C -0.6414(9) 1.9482(9) 0.9548(9)
H53A H -0.6697 1.9166 0.8970
C25A C -0.6448(11) 2.0437(10) 0.9978(9)
H54A H -0.6760 2.0744 0.9669
C26A C -0.5642(11) 2.0489(11) 1.1200(9)
H55A H -0.5354 2.0831 1.1777
C27A C -0.5586(11) 1.9523(11) 1.0827(9)
H56A H -0.5294 1.9224 1.1152
O41 O -0.1526(9) 0.5235(9) 0.3193(7)
O42 O 0.0596(11) -0.0242(11) 0.2125(9)
O43 O 0.2582(15) 0.6206(15) 0.6374(12)
O44 O 0.1009(17) 0.1981(18) -0.1537(14)
O45 O 0.345(2) -0.133(3) -0.272(2)
loop_
_geom_bond_atom_site_label_1
_geom_bond_atom_site_label_2
_geom_bond_site_symmetry_1
_geom_bond_site_symmetry_2
Ge1 O6 1_555 1_555
Ni1 O3 1_555 1_555
Ni2 O2 1_555 1_555
Ni3 O1 1_555 1_555
Ni4 O5 1_555 1_555
Mo1 O1 1_555 1_555
Mo2 O1 1_555 1_555
Mo3 O4 1_555 1_555
Mo4 O3 1_555 1_555
Mo5 O5 1_555 1_555
Mo6 O5 1_555 1_555
Mo7 O6 1_555 1_555
Mo8 O4 1_555 1_555
Mo9 O3 1_555 1_555
Mo10 O12 1_555 1_555
Mo11 O10 1_555 1_555
Mo12 O9 1_555 1_555
O2 Mo1 1_555 1_555
O4 Ni1 1_555 1_555
O6 Mo4 1_555 1_555
O7 Ni4 1_555 1_555
O8 Ni3 1_555 1_555
O9 Ge1 1_555 1_555
O10 Ni3 1_555 1_555
O11 Ge1 1_555 1_555
O12 Ge1 1_555 1_555
O13 Ni2 1_555 1_555
O14 Ni2 1_555 1_555
O15 Mo8 1_555 1_555
H1 O15 1_555 1_555
O16 Mo4 1_555 1_555
O17 Ni4 1_555 1_555
O18 Ni1 1_555 1_555
O19 Mo2 1_555 1_555
O20 Ni3 1_555 1_555
O21 Mo1 1_555 1_555
O22 Mo10 1_555 1_555
O23 Ni4 1_555 1_555
O24 Mo6 1_555 1_555
O25 Mo2 1_555 1_555
O26 Mo2 1_555 1_555
H2 O26 1_555 1_555
O27 Mo12 1_555 1_555
O28 Mo8 1_555 1_555
O29 Mo11 1_555 1_555
O30 Mo9 1_555 1_555
O31 Mo4 1_555 1_555
H3 O31 1_555 1_555
O32 Mo1 1_555 1_555
H4 O32 1_555 1_555
O33 Mo5 1_555 1_555
O34 Mo5 1_555 1_555
O35 Mo8 1_555 1_555
O36 Mo3 1_555 1_555
O37 Mo6 1_555 1_555
O38 Mo7 1_555 1_555
O39 Mo9 1_555 1_555
O40 Mo3 1_555 1_555
N1 Ni3 1_555 1_555
H5 N1 1_555 1_555
H6 N1 1_555 1_555
N2 Ni3 1_555 1_555
H7 N2 1_555 1_555
H8 N2 1_555 1_555
N3 Ni4 1_555 1_555
H9 N3 1_555 1_555
H10 N3 1_555 1_555
N4 Ni4 1_555 1_555
H11 N4 1_555 1_555
H12 N4 1_555 1_555
N5 Ni1 1_555 1_555
H13 N5 1_555 1_555
H14 N5 1_555 1_555
N6 Ni1 1_555 1_555
H15 N6 1_555 1_555
H16 N6 1_555 1_555
N7 Ni2 1_555 1_555
H17 N7 1_555 1_555
H18 N7 1_555 1_555
N8 Ni2 1_555 1_555
H19 N8 1_555 1_555
H20 N8 1_555 1_555
N9 Ni2 1_555 1_555
N10 C25 1_555 1_555
N11 Ni1 1_555 1_555
C1 N2 1_555 1_555
H21 C1 1_555 1_555
H22 C1 1_555 1_555
C2 N1 1_555 1_555
H23 C2 1_555 1_555
C3 C2 1_555 1_555
H24 C3 1_555 1_555
H25 C3 1_555 1_555
H26 C3 1_555 1_555
C4 N3 1_555 1_555
H27 C4 1_555 1_555
H28 C4 1_555 1_555
C5 N4 1_555 1_555
H29 C5 1_555 1_555
C6 C5 1_555 1_555
H30 C6 1_555 1_555
H31 C6 1_555 1_555
H32 C6 1_555 1_555
C7 N6 1_555 1_555
H33 C7 1_555 1_555
H34 C7 1_555 1_555
C8 N5 1_555 1_555
H35 C8 1_555 1_555
C9 C8 1_555 1_555
H36 C9 1_555 1_555
H37 C9 1_555 1_555
H38 C9 1_555 1_555
C10 N8 1_555 1_555
H39 C10 1_555 1_555
H40 C10 1_555 1_555
C11 N7 1_555 1_555
H41 C11 1_555 1_555
C12 C11 1_555 1_555
H42 C12 1_555 1_555
H43 C12 1_555 1_555
H44 C12 1_555 1_555
C13 N11 1_555 1_555
H45 C13 1_555 1_555
C14 C13 1_555 1_555
H46 C14 1_555 1_555
C15 C14 1_555 1_555
C16 C15 1_555 1_555
H47 C16 1_555 1_555
C17 N11 1_555 1_555
H48 C17 1_555 1_555
C18 N9 1_555 1_555
H49 C18 1_555 1_555
C19 C18 1_555 1_555
H50 C19 1_555 1_555
C20 C19 1_555 1_555
C21 C20 1_555 1_555
H51 C21 1_555 1_555
C22 N9 1_555 1_555
H52 C22 1_555 1_555
C23 C20 1_555 1_555
C24 C23 1_555 1_555
H53 C24 1_555 1_555
C25 C24 1_555 1_555
H54 C25 1_555 1_555
C26 N10 1_555 1_555
H55 C26 1_555 1_555
C27 C23 1_555 1_555
H56 C27 1_555 1_555
Ge1A O6A 1_555 1_555
Ge1A_2 O9A 1_555 1_555
Ni1A O3A 1_555 1_555
Ni2A O2A_2 1_555 1_555
Ni2A_2 O2A 1_555 1_555
Ni3A O1A 1_555 1_555
Ni3A_2 O1A_2 1_555 1_555
Ni4A O5A 1_555 1_555
Ni4A_2 O5A_2 1_555 1_555
Mo1A O20 1_555 1_555
Mo1A_2 O1A_2 1_555 1_555
Mo2A O1A_2 1_555 1_555
Mo2A_2 O1A 1_555 1_555
Mo3A O4A 1_555 1_555
Mo3A_2 O8A_2 1_555 1_555
Mo4A O23 1_555 1_555
Mo4A_2 O3A 1_555 1_555
Mo5A O5A 1_555 1_555
Mo5A_2 O5A_2 1_555 1_555
Mo6A O5A_2 1_555 1_555
Mo6A_2 O5A 1_555 1_555
Mo7A O6A 1_555 1_555
Mo7A_2 O13A 1_555 1_555
Mo8A O4A 1_555 1_555
Mo9A O3A 1_555 1_555
Mo10A O12A 1_555 1_555
Mo11A O10A 1_555 1_555
Mo12A O9A 1_555 1_555
O1A Mo1A 1_555 1_555
O2A Mo1A 1_555 1_555
O2A_2 Mo1A_2 1_555 1_555
O3A_2 Mo4A 1_555 1_555
O4A Ni1A 1_555 1_555
O6A Mo4A 1_555 1_555
O7A Ni4A_2 1_555 1_555
O7A_2 Ni4A 1_555 1_555
O8A Ni3A_2 1_555 1_555
O8A_2 Ni3A 1_555 1_555
O9A Mo8A 1_555 1_555
O9A_2 Ge1A 1_555 1_555
O10A Ni3A_2 1_555 1_555
O10A_2 Ni3A 1_555 1_555
O11A Ge1A_2 1_555 1_555
O11A_2 Ge1A 1_555 1_555
O12A Ge1A_2 1_555 1_555
O12A_2 Mo1A 1_555 1_555
O12A_3 Ge1A 1_555 1_555
O13A Ni2A 1_555 1_555
O13A_2 Mo7A 1_555 1_555
O14A Ni2A 1_555 1_555
O14A_2 Mo5A 1_555 1_555
O15A Mo8A 1_555 1_555
H1A O15A 1_555 1_555
O16A Mo4A 1_555 1_555
O17A Ni4A_2 1_555 1_555
O17A_2 Ni4A 1_555 1_555
O18A Ni1A 1_555 1_555
O18A_2 Mo7A 1_555 1_555
O19A Mo2A 1_555 1_555
O20A Mo1 1_555 1_555
O21A Mo1A_2 1_555 1_555
O21A_2 Mo1A 1_555 1_555
O22A Mo10A 1_555 1_555
O23A Mo4 1_555 1_555
O24A Mo6A 1_555 1_555
O25A Mo2A 1_555 1_555
O26A Mo2A 1_555 1_555
H2A O26A 1_555 1_555
O27A Mo12A 1_555 1_555
O28A Mo8A 1_555 1_555
O29A Mo11A 1_555 1_555
O30A Mo9A 1_555 1_555
O31A Mo4A 1_555 1_555
H3A O31A 1_555 1_555
O32A Mo1A 1_555 1_555
O32A_2 Mo1A_2 1_555 1_555
H4A O32A 1_555 1_555
H4A_2 O32A_2 1_555 1_555
O33A Mo5A 1_555 1_555
O34A Mo5A 1_555 1_555
O35A Mo8A 1_555 1_555
O36A Mo3A 1_555 1_555
O37A Mo6A 1_555 1_555
O38A Mo7A 1_555 1_555
O39A Mo9A 1_555 1_555
O40A Mo3A 1_555 1_555
N1A Ni3A 1_555 1_555
H5A N1A 1_555 1_555
H6A N1A 1_555 1_555
N2A Ni3A 1_555 1_555
H7A N2A 1_555 1_555
H8A N2A 1_555 1_555
N3A Ni4A 1_555 1_555
H9A N3A 1_555 1_555
H10A N3A 1_555 1_555
N4A Ni4A 1_555 1_555
H11A N4A 1_555 1_555
H12A N4A 1_555 1_555
N5A Ni1A 1_555 1_555
H13A N5A 1_555 1_555
H14A N5A 1_555 1_555
N6A Ni1A 1_555 1_555
H15A N6A 1_555 1_555
H16A N6A 1_555 1_555
N7A Ni2A 1_555 1_555
H17A N7A 1_555 1_555
H18A N7A 1_555 1_555
N8A Ni2A 1_555 1_555
H19A N8A 1_555 1_555
H20A N8A 1_555 1_555
N9A Ni2A 1_555 1_555
N10A C25A 1_555 1_555
N11A Ni1A 1_555 1_555
C1A N2A 1_555 1_555
H21A C1A 1_555 1_555
H22A C1A 1_555 1_555
C2A N1A 1_555 1_555
H23A C2A 1_555 1_555
C3A C2A 1_555 1_555
H24A C3A 1_555 1_555
H25A C3A 1_555 1_555
H26A C3A 1_555 1_555
C4A N3A 1_555 1_555
H27A C4A 1_555 1_555
H28A C4A 1_555 1_555
C5A N4A 1_555 1_555
H29A C5A 1_555 1_555
C6A C5A 1_555 1_555
H30A C6A 1_555 1_555
H31A C6A 1_555 1_555
H32A C6A 1_555 1_555
C7A N6A 1_555 1_555
H33A C7A 1_555 1_555
H34A C7A 1_555 1_555
C8A N5A 1_555 1_555
H35A C8A 1_555 1_555
C9A C8A 1_555 1_555
H36A C9A 1_555 1_555
H37A C9A 1_555 1_555
H38A C9A 1_555 1_555
C10A N8A 1_555 1_555
H39A C10A 1_555 1_555
H40A C10A 1_555 1_555
C11A N7A 1_555 1_555
H41A C11A 1_555 1_555
C12A C11A 1_555 1_555
H42A C12A 1_555 1_555
H43A C12A 1_555 1_555
H44A C12A 1_555 1_555
C13A N11A 1_555 1_555
H45A C13A 1_555 1_555
C14A C13A 1_555 1_555
H46A C14A 1_555 1_555
C15A C15 1_555 1_555
C16A C15A 1_555 1_555
H47A C16A 1_555 1_555
C17A N11A 1_555 1_555
H48A C17A 1_555 1_555
C18A N9A 1_555 1_555
H49A C18A 1_555 1_555
C19A C18A 1_555 1_555
H50A C19A 1_555 1_555
C20A C19A 1_555 1_555
C21A C20A 1_555 1_555
H51A C21A 1_555 1_555
C22A N9A 1_555 1_555
H52A C22A 1_555 1_555
C23A C20A 1_555 1_555
C24A C23A 1_555 1_555
H53A C24A 1_555 1_555
C25A C24A 1_555 1_555
H54A C25A 1_555 1_555
C26A N10A 1_555 1_555
H55A C26A 1_555 1_555
C27A C23A 1_555 1_555
H56A C27A 1_555 1_555
Mo1 O12 1_555 1_555
Mo2 O2 1_555 1_555
Mo2 O11 1_555 1_555
Mo3 O8 1_555 1_555
Mo3 O12 1_555 1_555
Mo3 O32 1_555 1_555
Mo4 O7 1_555 1_555
Mo5 O6 1_555 1_555
Mo5 O14 1_555 1_555
Mo5 O31 1_555 1_555
Mo6 O11 1_555 1_555
Mo6 O14 1_555 1_555
Mo6 O26 1_555 1_555
Mo7 O13 1_555 1_555
Mo7 O16 1_555 1_555
Mo7 O18 1_555 1_555
Mo7 O33 1_555 1_555
Mo8 O8 1_555 1_555
Mo8 O9 1_555 1_555
Mo9 O7 1_555 1_555
Mo9 O9 1_555 1_555
Mo9 O15 1_555 1_555
Mo10 O13 1_555 1_555
Mo10 O18 1_555 1_555
Mo10 O21 1_555 1_555
Mo10 O36 1_555 1_555
Mo11 O11 1_555 1_555
Mo11 O17 1_555 1_555
Mo11 O19 1_555 1_555
Mo11 O24 1_555 1_555
Mo12 O10 1_555 1_555
Mo12 O17 1_555 1_555
Mo12 O28 1_555 1_555
Mo12 O39 1_555 1_555
C1 C2 1_555 1_555
C4 C5 1_555 1_555
C7 C8 1_555 1_555
C10 C11 1_555 1_555
C16 C17 1_555 1_555
C21 C22 1_555 1_555
C26 C27 1_555 1_555
Ni3A O20A 1_555 1_555
Ni4A O23A 1_555 1_555
Mo1A_2 O12A 1_555 1_555
Mo2A O2A_2 1_555 1_555
Mo2A O11A 1_555 1_555
Mo2A_2 O2A 1_555 1_555
Mo3A O8A 1_555 1_555
Mo3A O12A 1_555 1_555
Mo3A O32A_2 1_555 1_555
Mo3A_2 O12A_2 1_555 1_555
Mo3A_2 O32A 1_555 1_555
Mo4A O7A_2 1_555 1_555
Mo4A_2 O7A 1_555 1_555
Mo5A O6A 1_555 1_555
Mo5A O31A 1_555 1_555
Mo5A_2 O14A 1_555 1_555
Mo6A O11A 1_555 1_555
Mo6A O14A 1_555 1_555
Mo6A O26A 1_555 1_555
Mo6A_2 O11A_2 1_555 1_555
Mo6A_2 O14A_2 1_555 1_555
Mo7A O16A 1_555 1_555
Mo7A O33A 1_555 1_555
Mo7A_2 O18A 1_555 1_555
Mo8A O8A 1_555 1_555
Mo9A O7A 1_555 1_555
Mo9A O9A 1_555 1_555
Mo9A O15A 1_555 1_555
Mo10A O13A 1_555 1_555
Mo10A O18A 1_555 1_555
Mo10A O21A 1_555 1_555
Mo10A O36A 1_555 1_555
Mo11A O11A 1_555 1_555
Mo11A O17A 1_555 1_555
Mo11A O19A 1_555 1_555
Mo11A O24A 1_555 1_555
Mo12A O10A 1_555 1_555
Mo12A O17A 1_555 1_555
Mo12A O28A 1_555 1_555
Mo12A O39A 1_555 1_555
C1A C2A 1_555 1_555
C4A C5A 1_555 1_555
C7A C8A 1_555 1_555
C10A C11A 1_555 1_555
C14A C15A 1_555 1_555
C16A C17A 1_555 1_555
C21A C22A 1_555 1_555
C26A C27A 1_555 1_555

#END
