
#######################################################################
#
#                 Cambridge Crystallographic Data Centre
#                                CCDC 
#
#######################################################################
#
# If this CIF has been generated from an entry in the Cambridge 
# Structural Database, then it will include bibliographic, chemical, 
# crystal, experimental, refinement or atomic coordinate data resulting 
# from the CCDC's data processing and validation procedures.
#
#######################################################################

data_XUMQON
_symmetry_cell_setting           monoclinic
_symmetry_space_group_name_H-M   'P 21/c'
_symmetry_Int_Tables_number      14
_space_group_name_Hall           '-P 2ybc'
loop_
_symmetry_equiv_pos_site_id
_symmetry_equiv_pos_as_xyz
1 x,y,z
2 -x,1/2+y,1/2-z
3 -x,-y,-z
4 x,1/2-y,1/2+z
_cell_length_a                   7.2162(3)
_cell_length_b                   16.0626(6)
_cell_length_c                   26.1991(10)
_cell_angle_alpha                90
_cell_angle_beta                 91.9750(10)
_cell_angle_gamma                90
_cell_volume                     3034.96
loop_
_atom_site_label
_atom_site_type_symbol
_atom_site_fract_x
_atom_site_fract_y
_atom_site_fract_z
Co1 Co 0.43370(4) 0.718369(18) 0.404860(11)
N1 N 0.4649(3) 0.77387(12) 0.56317(7)
N2 N 0.4848(3) 0.72983(12) 0.48381(7)
N3 N 0.3380(3) 1.04688(12) 0.63603(7)
N4 N 0.3985(3) 1.17630(12) 0.61301(7)
N5 N 0.3408(3) 0.80051(13) 0.74250(7)
N6 N 0.3520(3) 0.78081(12) 0.82587(7)
C1 C 0.4229(3) 0.82523(14) 0.60528(8)
C2 C 0.3978(3) 0.91082(14) 0.59862(9)
H1 H 0.4072 0.9351 0.5666
C3 C 0.3586(3) 0.95884(14) 0.64108(9)
C4 C 0.3394(3) 0.92336(15) 0.68897(9)
H2 H 0.3112 0.9560 0.7170
C5 C 0.3634(3) 0.83866(15) 0.69387(8)
C6 C 0.4067(3) 0.78859(14) 0.65290(9)
H3 H 0.4245 0.7316 0.6572
C7 C 0.4355(3) 0.79221(15) 0.51278(9)
H4 H 0.3869 0.8423 0.5005
C8 C 0.5480(3) 0.66821(15) 0.51666(9)
H5 H 0.5922 0.6166 0.5066
C9 C 0.5365(3) 0.69362(15) 0.56541(9)
H6 H 0.5698 0.6636 0.5946
C10 C 0.4291(3) 1.09736(15) 0.60371(9)
H7 H 0.5042 1.0782 0.5781
C11 C 0.2787(4) 1.17739(16) 0.65308(10)
H8 H 0.2304 1.2253 0.6675
C12 C 0.2418(4) 1.09901(16) 0.66821(10)
H9 H 0.1672 1.0831 0.6948
C13 C 0.3990(3) 0.83024(15) 0.78878(9)
H10 H 0.4643 0.8797 0.7936
C14 C 0.2597(4) 0.71552(17) 0.80254(10)
H11 H 0.2096 0.6704 0.8196
C15 C 0.2522(5) 0.72611(17) 0.75144(10)
H12 H 0.1983 0.6905 0.7272
C16 C 0.8518(3) 0.51873(14) 0.40160(9)
C17 C 0.9399(3) 0.47707(15) 0.36220(9)
C18 C 0.9987(3) 0.39521(14) 0.36941(9)
H13 H 1.0595 0.3685 0.3433
C19 C 0.9694(3) 0.35196(14) 0.41459(9)
C20 C 0.8838(4) 0.39440(15) 0.45361(9)
H14 H 0.8642 0.3675 0.4844
C21 C 0.8271(4) 0.47642(16) 0.44719(9)
H15 H 0.7714 0.5037 0.4740
C22 C 1.1274(3) 0.09386(15) 0.43027(10)
C23 C 1.1017(3) 0.12979(15) 0.38136(9)
C24 C 1.0518(3) 0.21392(14) 0.37829(9)
H16 H 1.0362 0.2378 0.3461
C25 C 1.0244(3) 0.26348(14) 0.42074(9)
C26 C 1.0532(4) 0.22716(15) 0.46861(9)
H17 H 1.0375 0.2589 0.4978
C27 C 1.1047(4) 0.14474(15) 0.47319(10)
H18 H 1.1249 0.1222 0.5056
C28 C 0.7923(3) 0.60933(14) 0.39888(9)
C29 C 0.9734(4) 0.51651(16) 0.31152(9)
C30 C 1.1781(4) 0.00477(16) 0.44287(11)
C31 C 1.1276(4) 0.08972(16) 0.33002(10)
O1 O 0.6217(2) 0.62198(10) 0.39215(7)
O2 O 0.1796(2) 0.78577(10) 0.41785(7)
H19 H 0.1982 0.8376 0.4140
H20 H 0.0957 0.7696 0.3966
O3 O 0.9135(3) 0.66279(12) 0.40608(9)
O4 O 0.2645(2) 0.61189(11) 0.42144(7)
H21 H 0.3291 0.5678 0.4196
H22 H 0.1739 0.6094 0.3998
O5 O 0.8472(3) 0.56985(13) 0.29708(7)
H23 H 0.8677 0.5862 0.2682
O6 O 1.1085(3) 0.49935(14) 0.28694(8)
O7 O 1.2575(3) -0.01254(12) 0.48324(8)
O8 O 1.1316(3) -0.05138(11) 0.40941(8)
H24 H 1.1339 -0.0312 0.3807
O9 O 1.1400(3) 0.00997(12) 0.32630(8)
O10 O 1.1336(3) 0.13483(12) 0.29170(7)
Co1B Co 0.56630(4) 1.281631(18) 0.595140(11)
Co1C Co 0.43370(4) 0.781631(18) 0.904860(11)
N4B N 0.6015(3) 0.82370(12) 0.38699(7)
N6C N 0.3520(3) 0.71919(12) 0.32587(7)
O11 O 0.4107(3) 0.47317(15) 0.36277(10)
H25 H 0.4853 0.4334 0.3575
H26 H 0.3463 0.4829 0.3356
loop_
_geom_bond_atom_site_label_1
_geom_bond_atom_site_label_2
_geom_bond_site_symmetry_1
_geom_bond_site_symmetry_2
Co1 N2 1_555 1_555
N1 C1 1_555 1_555
N2 C7 1_555 1_555
N3 C3 1_555 1_555
N4 C10 1_555 1_555
N5 C5 1_555 1_555
N6 C13 1_555 1_555
C1 C2 1_555 1_555
C2 H1 1_555 1_555
C3 C2 1_555 1_555
C4 C3 1_555 1_555
H2 C4 1_555 1_555
C5 C4 1_555 1_555
C6 C1 1_555 1_555
H3 C6 1_555 1_555
C7 N1 1_555 1_555
H4 C7 1_555 1_555
C8 N2 1_555 1_555
H5 C8 1_555 1_555
C9 N1 1_555 1_555
H6 C9 1_555 1_555
C10 N3 1_555 1_555
H7 C10 1_555 1_555
C11 N4 1_555 1_555
H8 C11 1_555 1_555
C12 N3 1_555 1_555
H9 C12 1_555 1_555
C13 N5 1_555 1_555
H10 C13 1_555 1_555
C14 N6 1_555 1_555
H11 C14 1_555 1_555
C15 N5 1_555 1_555
H12 C15 1_555 1_555
C16 C17 1_555 1_555
C17 C18 1_555 1_555
C18 H13 1_555 1_555
C19 C18 1_555 1_555
C20 C19 1_555 1_555
H14 C20 1_555 1_555
C21 C16 1_555 1_555
H15 C21 1_555 1_555
C22 C23 1_555 1_555
C23 C24 1_555 1_555
C24 H16 1_555 1_555
C25 C19 1_555 1_555
C26 C25 1_555 1_555
H17 C26 1_555 1_555
C27 C22 1_555 1_555
H18 C27 1_555 1_555
C28 C16 1_555 1_555
C29 C17 1_555 1_555
C30 C22 1_555 1_555
C31 C23 1_555 1_555
O1 Co1 1_555 1_555
O2 Co1 1_555 1_555
H19 O2 1_555 1_555
H20 O2 1_555 1_555
O3 C28 1_555 1_555
O4 Co1 1_555 1_555
H21 O4 1_555 1_555
H22 O4 1_555 1_555
O5 C29 1_555 1_555
H23 O5 1_555 1_555
O6 C29 1_555 1_555
O7 C30 1_555 1_555
O8 C30 1_555 1_555
H24 O8 1_555 1_555
O9 C31 1_555 1_555
O10 C31 1_555 1_555
O11 H25 1_555 1_555
H26 O11 1_555 1_555
Co1B N4 1_555 1_555
Co1C N6 1_555 1_555
N4B Co1 1_555 1_555
N6C Co1 1_555 1_555
C5 C6 1_555 1_555
C8 C9 1_555 1_555
C11 C12 1_555 1_555
C14 C15 1_555 1_555
C20 C21 1_555 1_555
C24 C25 1_555 1_555
C26 C27 1_555 1_555
C28 O1 1_555 1_555

#END
