
#######################################################################
#
#                 Cambridge Crystallographic Data Centre
#                                CCDC 
#
#######################################################################
#
# If this CIF has been generated from an entry in the Cambridge 
# Structural Database, then it will include bibliographic, chemical, 
# crystal, experimental, refinement or atomic coordinate data resulting 
# from the CCDC's data processing and validation procedures.
#
#######################################################################

data_XUMQEB
_symmetry_cell_setting           orthorhombic
_symmetry_space_group_name_H-M   'P b c n'
_symmetry_Int_Tables_number      60
_space_group_name_Hall           '-P 2n 2ab'
loop_
_symmetry_equiv_pos_site_id
_symmetry_equiv_pos_as_xyz
1 x,y,z
2 1/2-x,1/2-y,1/2+z
3 -x,y,1/2-z
4 1/2+x,1/2-y,-z
5 -x,-y,-z
6 1/2+x,1/2+y,1/2-z
7 x,-y,1/2+z
8 1/2-x,1/2+y,z
_cell_length_a                   8.7678(6)
_cell_length_b                   11.2927(7)
_cell_length_c                   11.1746(7)
_cell_angle_alpha                90
_cell_angle_beta                 90
_cell_angle_gamma                90
_cell_volume                     1106.42
loop_
_atom_site_label
_atom_site_type_symbol
_atom_site_fract_x
_atom_site_fract_y
_atom_site_fract_z
Sn1 Sn 0.0000 0.21422(4) 0.2500
Br1 Br 0.01686(7) 0.35769(6) 0.41992(7)
Br2 Br 0.28001(6) 0.17569(5) 0.22884(6)
O1 O 0.0198(4) 0.0611(3) 0.3911(4)
C1 C 0.1354(6) 0.0625(5) 0.4851(5)
H1 H 0.1912 0.1366 0.4824
H2 H 0.2072 -0.0017 0.4723
C2 C -0.0615(6) -0.0489(4) 0.3961(5)
H3 H -0.1384 -0.0507 0.3337
H4 H 0.0085 -0.1140 0.3826
C2D C 0.0615(6) 0.0489(4) 0.6039(5)
O1D O -0.0198(4) -0.0611(3) 0.6089(4)
C1D C -0.1354(6) -0.0625(5) 0.5149(5)
H1D H -0.1912 -0.1366 0.5176
H2D H -0.2072 0.0017 0.5277
H3D H 0.1384 0.0507 0.6663
H4D H -0.0085 0.1140 0.6174
Br1B Br -0.01686(7) 0.35769(6) 0.08008(7)
Br2B Br -0.28001(6) 0.17569(5) 0.27116(6)
O1B O -0.0198(4) 0.0611(3) 0.1089(4)
Sn1F Sn 0.0000 -0.21422(4) 0.7500
loop_
_geom_bond_atom_site_label_1
_geom_bond_atom_site_label_2
_geom_bond_site_symmetry_1
_geom_bond_site_symmetry_2
Sn1 Br1 1_555 1_555
Br2 Sn1 1_555 1_555
O1 Sn1 1_555 1_555
C1 O1 1_555 1_555
H1 C1 1_555 1_555
H2 C1 1_555 1_555
C2 O1 1_555 1_555
H3 C2 1_555 1_555
H4 C2 1_555 1_555
C2D C1 1_555 1_555
O1D C2D 1_555 1_555
C1D C2 1_555 1_555
H1D C1D 1_555 1_555
H2D C1D 1_555 1_555
H3D C2D 1_555 1_555
H4D C2D 1_555 1_555
Br1B Sn1 1_555 1_555
Br2B Sn1 1_555 1_555
O1B Sn1 1_555 1_555
Sn1F O1D 1_555 1_555
O1D C1D 1_555 1_555

#END
