
#######################################################################
#
#                 Cambridge Crystallographic Data Centre
#                                CCDC 
#
#######################################################################
#
# If this CIF has been generated from an entry in the Cambridge 
# Structural Database, then it will include bibliographic, chemical, 
# crystal, experimental, refinement or atomic coordinate data resulting 
# from the CCDC's data processing and validation procedures.
#
#######################################################################

data_XUMREE
_symmetry_cell_setting           monoclinic
_symmetry_space_group_name_H-M   'P 21/n'
_symmetry_Int_Tables_number      14
_space_group_name_Hall           '-P 2yn'
loop_
_symmetry_equiv_pos_site_id
_symmetry_equiv_pos_as_xyz
1 x,y,z
2 1/2-x,1/2+y,1/2-z
3 -x,-y,-z
4 1/2+x,1/2-y,1/2+z
_cell_length_a                   15.9719(13)
_cell_length_b                   12.9270(10)
_cell_length_c                   27.989(2)
_cell_angle_alpha                90
_cell_angle_beta                 94.8830(10)
_cell_angle_gamma                90
_cell_volume                     5757.88
loop_
_atom_site_label
_atom_site_type_symbol
_atom_site_fract_x
_atom_site_fract_y
_atom_site_fract_z
Cd1 Cd 0.36511(3) 0.33368(3) 0.593312(13)
N1 N 0.5000(3) 0.3959(4) 0.59182(16)
N2 N 0.3644(3) 0.2710(4) 0.66820(16)
O1 O 0.2256(3) 0.2837(3) 0.58307(14)
O2 O 0.3892(3) 0.1547(4) 0.56381(14)
O3 O 0.3755(3) 0.2853(3) 0.51402(13)
N3 N 0.3210(3) 0.5000(4) 0.58807(16)
C1 C 0.5231(4) 0.4759(4) 0.61823(19)
C2 C 0.5660(4) 0.3754(5) 0.5651(2)
C3 C 0.3554(4) 0.3184(5) 0.70909(19)
C4 C 0.3546(6) 0.1676(6) 0.6772(2)
H1 H 0.2063 0.2962 0.5544
H2 H 0.2220 0.2193 0.5886
C5 C 0.3885(4) 0.1928(5) 0.52171(19)
N4 N 0.6002(3) 0.5091(3) 0.60973(15)
H3 H 0.4901 0.5063 0.6402
H4 H 0.5676 0.3220 0.5429
C6 C 0.6285(4) 0.4441(5) 0.5756(2)
N5 N 0.3419(3) 0.2503(4) 0.74388(15)
H5 H 0.3581 0.3897 0.7133
H6 H 0.3563 0.1153 0.6544
C7 C 0.3423(5) 0.1529(6) 0.7230(2)
C8 C 0.4099(3) 0.1233(5) 0.48082(18)
C9 C 0.6412(3) 0.5958(4) 0.63296(17)
H7 H 0.6800 0.4469 0.5624
C10 C 0.3295(4) 0.2725(5) 0.79257(18)
H8 H 0.3354 0.0897 0.7381
C11 C 0.3965(3) 0.0162(5) 0.47581(18)
C12 C 0.4473(4) 0.1776(5) 0.44566(18)
C13 C 0.6297(3) 0.6115(4) 0.68103(17)
C14 C 0.6860(3) 0.6638(4) 0.60709(18)
C15 C 0.3597(3) 0.3641(4) 0.81325(18)
C16 C 0.2875(4) 0.2022(4) 0.81876(18)
C17 C 0.4239(4) -0.0300(5) 0.4353(2)
C18 C 0.3564(4) -0.0563(5) 0.5090(2)
H9 H 0.4558 0.2485 0.4491
C19 C 0.4723(3) 0.1273(5) 0.40529(19)
H10 H 0.6008 0.5635 0.6981
C20 C 0.6620(3) 0.6997(4) 0.70261(17)
C21 C 0.7187(3) 0.7513(4) 0.63015(17)
H11 H 0.6941 0.6511 0.5751
H12 H 0.3868 0.4127 0.7955
C22 C 0.3484(3) 0.3808(4) 0.86115(19)
C23 C 0.2752(3) 0.2233(4) 0.86616(18)
H13 H 0.2674 0.1409 0.8047
C24 C 0.4618(4) 0.0226(6) 0.4001(2)
H14 H 0.4163 -0.1009 0.4316
O4 O 0.3382(3) -0.1440(4) 0.49637(15)
O5 O 0.3422(3) -0.0258(4) 0.55205(14)
O6 O 0.5073(3) 0.1967(4) 0.37522(14)
N6 N 0.6499(3) 0.7196(3) 0.75170(15)
C25 C 0.7073(3) 0.7703(4) 0.67821(17)
N7 N 0.7633(3) 0.8261(3) 0.60479(14)
N8 N 0.3893(3) 0.4678(4) 0.88363(15)
C26 C 0.3058(3) 0.3129(4) 0.88825(18)
N9 N 0.2324(3) 0.1490(4) 0.89260(15)
H15 H 0.3578 0.0342 0.5560
C27 C 0.5325(4) 0.1776(5) 0.3304(2)
C28 C 0.6300(3) 0.6509(4) 0.78545(17)
C29 C 0.6579(5) 0.8137(5) 0.7741(2)
H16 H 0.7297 0.8293 0.6935
C30 C 0.7761(3) 0.9264(4) 0.61810(18)
C31 C 0.8033(4) 0.8112(5) 0.56307(18)
C32 C 0.4687(4) 0.4961(5) 0.8777(2)
C33 C 0.3602(4) 0.5386(5) 0.9154(2)
H17 H 0.2980 0.3268 0.9202
C34 C 0.2269(4) 0.0466(4) 0.88299(19)
C35 C 0.1856(4) 0.1674(5) 0.9310(2)
C36 C 0.5613(4) 0.2641(5) 0.3094(2)
C37 C 0.5199(7) 0.0875(7) 0.3025(3)
N10 N 0.6253(3) 0.6961(4) 0.82684(15)
H18 H 0.6209 0.5807 0.7799
C38 C 0.6437(6) 0.7977(5) 0.8196(2)
H19 H 0.6706 0.8764 0.7601
N11 N 0.8215(3) 0.9747(3) 0.58819(16)
H20 H 0.7554 0.9567 0.6448
C39 C 0.8377(4) 0.9023(5) 0.55372(19)
H21 H 0.8055 0.7505 0.5454
N12 N 0.4922(3) 0.5776(4) 0.90304(16)
H22 H 0.5032 0.4615 0.8578
C40 C 0.4242(4) 0.6044(5) 0.9268(2)
H23 H 0.3071 0.5404 0.9266
H24 H 0.2537 0.0137 0.8590
C41 C 0.1533(4) 0.0756(5) 0.9426(2)
H25 H 0.1779 0.2306 0.9458
C42 C 0.5898(3) 0.2638(4) 0.26358(19)
H26 H 0.5621 0.3260 0.3263
H27 H 0.4926 0.0302 0.3139
C43 C 0.5495(6) 0.0868(6) 0.2571(3)
Cd2 Cd 0.62573(2) 0.63839(3) 0.903282(12)
H28 H 0.6460 0.8486 0.8432
H29 H 0.8685 0.9153 0.5276
H30 H 0.4223 0.6600 0.9477
H31 H 0.1191 0.0646 0.9673
C44 C 0.5907(5) 0.1710(5) 0.2393(2)
C45 C 0.6138(4) 0.3699(6) 0.2474(3)
H32 H 0.5414 0.0280 0.2382
O7 O 0.7603(2) 0.7023(3) 0.91018(13)
O8 O 0.5953(3) 0.8163(4) 0.93277(13)
O9 O 0.6139(3) 0.6862(3) 0.98238(14)
C46 C 0.6293(5) 0.1478(6) 0.1927(2)
O10 O 0.6265(4) 0.3835(5) 0.2029(2)
O11 O 0.6211(4) 0.4411(4) 0.2771(2)
H33 H 0.7628 0.7549 0.8921
H34 H 0.7736 0.7197 0.9391
C47 C 0.5981(3) 0.7789(5) 0.97459(18)
O12 O 0.6492(4) 0.0583(5) 0.1848(2)
O13 O 0.6392(4) 0.2218(5) 0.16401(17)
H35 H 0.6308 0.3272 0.1899
C48 C 0.5776(3) 0.8457(4) 1.01615(17)
C49 C 0.5982(3) 0.9502(4) 1.02359(17)
C50 C 0.5358(3) 0.7932(4) 1.04942(18)
C51 C 0.5779(4) 0.9951(4) 1.06675(19)
C52 C 0.6417(4) 1.0219(5) 0.99122(19)
H36 H 0.5219 0.7240 1.0441
C53 C 0.5141(4) 0.8409(4) 1.09059(19)
C54 C 0.5370(4) 0.9415(4) 1.1001(2)
H37 H 0.5927 1.0637 1.0730
O14 O 0.6559(3) 0.9905(4) 0.94799(14)
O15 O 0.6638(3) 1.1078(4) 1.00414(14)
O16 O 0.4752(3) 0.7750(3) 1.12069(14)
H38 H 0.5251 0.9728 1.1286
H39 H 0.6355 0.9328 0.9432
C55 C 0.4387(4) 0.8085(4) 1.16086(18)
C56 C 0.4428(4) 0.7378(4) 1.19789(19)
C57 C 0.3927(4) 0.8975(5) 1.16428(19)
C58 C 0.4067(3) 0.7553(4) 1.24032(18)
H40 H 0.4711 0.6758 1.1942
H41 H 0.3844 0.9427 1.1385
C59 C 0.3589(4) 0.9180(5) 1.2070(2)
C60 C 0.3680(3) 0.8515(4) 1.24673(18)
C61 C 0.4102(4) 0.6602(5) 1.2721(2)
H42 H 0.3287 0.9790 1.2097
C62 C 0.3330(4) 0.8936(5) 1.2915(2)
O17 O 0.4382(4) 0.5800(4) 1.25761(19)
O18 O 0.3841(4) 0.6644(4) 1.31390(17)
O19 O 0.3425(3) 0.8390(4) 1.32972(15)
O20 O 0.3002(3) 0.9783(4) 1.29017(16)
H43 H 0.3698 0.7238 1.3195
N3A N 0.1790(3) 0.0000(4) 0.91193(16)
Cd2A Cd 0.87427(2) 1.13839(3) 0.596718(12)
Cd1A Cd 0.13489(3) -0.16632(3) 0.906688(13)
N11A N 0.6785(3) 0.4747(3) 0.91181(16)
loop_
_geom_bond_atom_site_label_1
_geom_bond_atom_site_label_2
_geom_bond_site_symmetry_1
_geom_bond_site_symmetry_2
Cd1 N1 1_555 1_555
N1 C1 1_555 1_555
N2 Cd1 1_555 1_555
O1 Cd1 1_555 1_555
O2 Cd1 1_555 1_555
O3 Cd1 1_555 1_555
N3 Cd1 1_555 1_555
C1 N4 1_555 1_555
C2 N1 1_555 1_555
C3 N2 1_555 1_555
C4 N2 1_555 1_555
H1 O1 1_555 1_555
H2 O1 1_555 1_555
C5 O2 1_555 1_555
N4 C6 1_555 1_555
H3 C1 1_555 1_555
H4 C2 1_555 1_555
C6 C2 1_555 1_555
N5 C3 1_555 1_555
H5 C3 1_555 1_555
H6 C4 1_555 1_555
C7 C4 1_555 1_555
C8 C5 1_555 1_555
C9 N4 1_555 1_555
H7 C6 1_555 1_555
C10 N5 1_555 1_555
H8 C7 1_555 1_555
C11 C8 1_555 1_555
C12 C8 1_555 1_555
C13 C9 1_555 1_555
C14 C9 1_555 1_555
C15 C10 1_555 1_555
C16 C10 1_555 1_555
C17 C11 1_555 1_555
C18 C11 1_555 1_555
H9 C12 1_555 1_555
C19 C12 1_555 1_555
H10 C13 1_555 1_555
C20 C13 1_555 1_555
C21 C14 1_555 1_555
H11 C14 1_555 1_555
H12 C15 1_555 1_555
C22 C15 1_555 1_555
C23 C16 1_555 1_555
H13 C16 1_555 1_555
C24 C17 1_555 1_555
H14 C17 1_555 1_555
O4 C18 1_555 1_555
O5 C18 1_555 1_555
O6 C19 1_555 1_555
N6 C20 1_555 1_555
C25 C20 1_555 1_555
N7 C21 1_555 1_555
N8 C22 1_555 1_555
C26 C22 1_555 1_555
N9 C23 1_555 1_555
H15 O5 1_555 1_555
C27 O6 1_555 1_555
C28 N6 1_555 1_555
C29 N6 1_555 1_555
H16 C25 1_555 1_555
C30 N7 1_555 1_555
C31 N7 1_555 1_555
C32 N8 1_555 1_555
C33 N8 1_555 1_555
H17 C26 1_555 1_555
C34 N9 1_555 1_555
C35 N9 1_555 1_555
C36 C27 1_555 1_555
C37 C27 1_555 1_555
N10 C28 1_555 1_555
H18 C28 1_555 1_555
C38 C29 1_555 1_555
H19 C29 1_555 1_555
N11 C30 1_555 1_555
H20 C30 1_555 1_555
C39 C31 1_555 1_555
H21 C31 1_555 1_555
N12 C32 1_555 1_555
H22 C32 1_555 1_555
C40 C33 1_555 1_555
H23 C33 1_555 1_555
H24 C34 1_555 1_555
C41 C35 1_555 1_555
H25 C35 1_555 1_555
C42 C36 1_555 1_555
H26 C36 1_555 1_555
H27 C37 1_555 1_555
C43 C37 1_555 1_555
Cd2 N10 1_555 1_555
H28 C38 1_555 1_555
H29 C39 1_555 1_555
H30 C40 1_555 1_555
H31 C41 1_555 1_555
C44 C42 1_555 1_555
C45 C42 1_555 1_555
H32 C43 1_555 1_555
O7 Cd2 1_555 1_555
O8 Cd2 1_555 1_555
O9 Cd2 1_555 1_555
C46 C44 1_555 1_555
O10 C45 1_555 1_555
O11 C45 1_555 1_555
H33 O7 1_555 1_555
H34 O7 1_555 1_555
C47 O8 1_555 1_555
O12 C46 1_555 1_555
O13 C46 1_555 1_555
H35 O10 1_555 1_555
C48 C47 1_555 1_555
C49 C48 1_555 1_555
C50 C48 1_555 1_555
C51 C49 1_555 1_555
C52 C49 1_555 1_555
H36 C50 1_555 1_555
C53 C50 1_555 1_555
C54 C51 1_555 1_555
H37 C51 1_555 1_555
O14 C52 1_555 1_555
O15 C52 1_555 1_555
O16 C53 1_555 1_555
H38 C54 1_555 1_555
H39 O14 1_555 1_555
C55 O16 1_555 1_555
C56 C55 1_555 1_555
C57 C55 1_555 1_555
C58 C56 1_555 1_555
H40 C56 1_555 1_555
H41 C57 1_555 1_555
C59 C57 1_555 1_555
C60 C58 1_555 1_555
C61 C58 1_555 1_555
H42 C59 1_555 1_555
C62 C60 1_555 1_555
O17 C61 1_555 1_555
O18 C61 1_555 1_555
O19 C62 1_555 1_555
O20 C62 1_555 1_555
H43 O18 1_555 1_555
N3A C34 1_555 1_555
Cd2A N11 1_555 1_555
Cd1A N3A 1_555 1_555
N11A Cd2 1_555 1_555
O3 C5 1_555 1_555
N5 C7 1_555 1_555
C19 C24 1_555 1_555
C21 C25 1_555 1_555
C23 C26 1_555 1_555
N10 C38 1_555 1_555
N11 C39 1_555 1_555
N12 C40 1_555 1_555
N12 Cd2 1_555 1_555
C41 N3A 1_555 1_555
C43 C44 1_555 1_555
O9 C47 1_555 1_555
C53 C54 1_555 1_555
C59 C60 1_555 1_555

#END
