
#######################################################################
#
#                 Cambridge Crystallographic Data Centre
#                                CCDC 
#
#######################################################################
#
# If this CIF has been generated from an entry in the Cambridge 
# Structural Database, then it will include bibliographic, chemical, 
# crystal, experimental, refinement or atomic coordinate data resulting 
# from the CCDC's data processing and validation procedures.
#
#######################################################################

data_XUMRII
_symmetry_cell_setting           triclinic
_symmetry_space_group_name_H-M   'P -1'
_symmetry_Int_Tables_number      2
_space_group_name_Hall           '-P 1'
loop_
_symmetry_equiv_pos_site_id
_symmetry_equiv_pos_as_xyz
1 x,y,z
2 -x,-y,-z
_cell_length_a                   7.3615(5)
_cell_length_b                   11.5150(8)
_cell_length_c                   17.6730(12)
_cell_angle_alpha                94.3420(10)
_cell_angle_beta                 101.2670(10)
_cell_angle_gamma                97.9440(10)
_cell_volume                     1446.97
loop_
_atom_site_label
_atom_site_type_symbol
_atom_site_fract_x
_atom_site_fract_y
_atom_site_fract_z
Co1 Co 0.65030(5) 0.83618(3) 0.46905(2)
Co2 Co 1.30677(5) 0.53871(4) 0.03670(2)
N1 N 0.7776(4) 0.5032(2) 0.41827(15)
N2 N 0.7085(4) 0.6719(2) 0.46192(16)
N3 N 1.1601(4) 0.4103(2) 0.23288(15)
N4 N 1.2887(4) 0.4855(3) 0.14152(16)
N5 N 0.8150(4) 0.0965(2) 0.33932(16)
N6 N 0.7387(4) -0.0672(2) 0.38996(16)
C1 C 0.8395(4) 0.4186(3) 0.36972(18)
C2 C 0.9574(5) 0.4572(3) 0.32144(18)
H1 H 0.9904 0.5390 0.3176
C3 C 1.0259(4) 0.3738(3) 0.27891(18)
C4 C 0.9803(5) 0.2548(3) 0.28419(19)
H2 H 1.0295 0.1986 0.2551
C5 C 0.8617(5) 0.2188(3) 0.33273(19)
C6 C 0.7881(4) 0.3000(3) 0.37552(19)
H3 H 0.7047 0.2747 0.4079
C7 C 0.7450(5) 0.6122(3) 0.40117(19)
H4 H 0.7479 0.6415 0.3525
C8 C 0.7169(5) 0.5978(3) 0.5200(2)
H5 H 0.6965 0.6175 0.5705
C9 C 0.7586(5) 0.4928(3) 0.49427(19)
H6 H 0.7721 0.4262 0.5223
C10 C 1.1360(5) 0.4731(3) 0.17150(19)
H7 H 1.0251 0.5042 0.1522
C11 C 1.4155(5) 0.4270(4) 0.1863(2)
H8 H 1.5382 0.4212 0.1787
C12 C 1.3381(5) 0.3795(3) 0.2428(2)
H9 H 1.3941 0.3344 0.2811
C13 C 0.7775(5) 0.0486(3) 0.4029(2)
H10 H 0.7787 0.0926 0.4508
C14 C 0.7534(5) -0.0950(3) 0.3144(2)
H11 H 0.7334 -0.1725 0.2886
C15 C 0.8006(5) 0.0048(3) 0.2827(2)
H12 H 0.8201 0.0106 0.2315
C16 C 0.2775(4) 0.8560(3) 0.32903(19)
C17 C 0.2998(4) 0.9764(3) 0.31856(19)
C18 C 0.3252(5) 1.0111(3) 0.24693(19)
H13 H 0.3440 1.0925 0.2399
C19 C 0.3232(5) 0.9279(3) 0.18603(19)
C20 C 0.3057(5) 0.8094(3) 0.1955(2)
H14 H 0.3092 0.7526 0.1541
C21 C 0.2828(5) 0.7754(3) 0.2671(2)
H15 H 0.2703 0.6939 0.2741
C22 C 0.1036(5) 1.2351(3) 0.02044(19)
C23 C 0.2863(5) 1.2215(3) 0.01473(19)
C24 C 0.3667(5) 1.1288(3) 0.04650(19)
H16 H 0.4896 1.1185 0.0414
C25 C 0.2665(5) 1.0519(3) 0.08562(18)
C26 C 0.0845(5) 1.0647(3) 0.0918(2)
H17 H 0.0164 1.0116 0.1186
C27 C 0.0038(5) 1.1545(3) 0.05885(19)
H18 H -0.1214 1.1621 0.0622
C28 C 0.2422(5) 0.8036(3) 0.4020(2)
C29 C 0.3081(4) 1.0739(3) 0.38162(18)
C30 C 0.0130(4) 1.3333(3) -0.01330(18)
C31 C 0.4085(5) 1.3056(3) -0.0222(2)
O1 O 0.3528(4) 0.9609(2) 0.11464(14)
O2 O 0.3787(3) 0.8065(2) 0.45894(13)
O3 O 0.0850(4) 0.7526(3) 0.40101(18)
O4 O 0.2566(4) 1.0428(2) 0.44291(13)
O5 O 0.3616(3) 1.1771(2) 0.37138(14)
O6 O -0.1595(3) 1.3276(2) -0.01700(14)
O7 O 0.1138(3) 1.4166(2) -0.03629(13)
O8 O 0.5086(4) 1.3930(2) 0.02322(17)
O9 O 0.4197(4) 1.2871(3) -0.09057(15)
Co1_2 Co 0.65030(5) -0.16382(3) 0.46905(2)
Co1A Co 0.34970(5) 1.16382(3) 0.53095(2)
Co2_2 Co 0.30677(5) 1.53871(4) 0.03670(2)
Co2A Co -0.30677(5) 1.46129(4) -0.03670(2)
Co2A_2 Co 0.69323(5) 1.46129(4) -0.03670(2)
N6_2 N 0.7387(4) 0.9328(2) 0.38996(16)
O4A O 0.7434(4) 0.9572(2) 0.55709(13)
O6A O 1.1595(3) 0.6724(2) 0.01700(14)
O7_2 O 1.1138(3) 0.4166(2) -0.03629(13)
O8_2 O 1.5086(4) 0.3930(2) 0.02322(17)
O8A O 1.4914(4) 0.6070(2) -0.02322(17)
O10 O 0.1775(4) 1.3436(3) -0.22108(17)
H19 H 0.2512 1.3265 -0.1816
H20 H 0.0671 1.3082 -0.2230
loop_
_geom_bond_atom_site_label_1
_geom_bond_atom_site_label_2
_geom_bond_site_symmetry_1
_geom_bond_site_symmetry_2
Co1 N2 1_555 1_555
Co2 N4 1_555 1_555
N1 C1 1_555 1_555
N2 C7 1_555 1_555
N3 C3 1_555 1_555
N4 C10 1_555 1_555
N5 C5 1_555 1_555
N6 C13 1_555 1_555
C1 C2 1_555 1_555
C2 H1 1_555 1_555
C3 C2 1_555 1_555
C4 C3 1_555 1_555
H2 C4 1_555 1_555
C5 C4 1_555 1_555
C6 C1 1_555 1_555
H3 C6 1_555 1_555
C7 N1 1_555 1_555
H4 C7 1_555 1_555
C8 N2 1_555 1_555
H5 C8 1_555 1_555
C9 N1 1_555 1_555
H6 C9 1_555 1_555
C10 N3 1_555 1_555
H7 C10 1_555 1_555
C11 N4 1_555 1_555
H8 C11 1_555 1_555
C12 N3 1_555 1_555
H9 C12 1_555 1_555
C13 N5 1_555 1_555
H10 C13 1_555 1_555
C14 N6 1_555 1_555
H11 C14 1_555 1_555
C15 N5 1_555 1_555
H12 C15 1_555 1_555
C16 C17 1_555 1_555
C17 C18 1_555 1_555
C18 H13 1_555 1_555
C19 C18 1_555 1_555
C20 C19 1_555 1_555
H14 C20 1_555 1_555
C21 C16 1_555 1_555
H15 C21 1_555 1_555
C22 C23 1_555 1_555
C23 C24 1_555 1_555
C24 H16 1_555 1_555
C25 C24 1_555 1_555
C26 C25 1_555 1_555
H17 C26 1_555 1_555
C27 C22 1_555 1_555
H18 C27 1_555 1_555
C28 C16 1_555 1_555
C29 C17 1_555 1_555
C30 C22 1_555 1_555
C31 C23 1_555 1_555
O1 C19 1_555 1_555
O2 Co1 1_555 1_555
O3 C28 1_555 1_555
O4 C29 1_555 1_555
O5 C29 1_555 1_555
O6 C30 1_555 1_555
O7 C30 1_555 1_555
O8 C31 1_555 1_555
O9 C31 1_555 1_555
O10 H19 1_555 1_555
H20 O10 1_555 1_555
Co1_2 N6 1_555 1_555
Co1A O4 1_555 1_555
Co2_2 O7 1_555 1_555
Co2A O6 1_555 1_555
Co2A_2 O8 1_555 1_555
N6_2 Co1 1_555 1_555
O4A Co1 1_555 1_555
O6A Co2 1_555 1_555
O7_2 Co2 1_555 1_555
O8_2 Co2 1_555 1_555
O8A Co2 1_555 1_555
C5 C6 1_555 1_555
C8 C9 1_555 1_555
C11 C12 1_555 1_555
C14 C15 1_555 1_555
C20 C21 1_555 1_555
C25 O1 1_555 1_555
C26 C27 1_555 1_555
C28 O2 1_555 1_555
O8 Co2_2 1_555 1_555

#END
