
#######################################################################
#
#                 Cambridge Crystallographic Data Centre
#                                CCDC 
#
#######################################################################
#
# If this CIF has been generated from an entry in the Cambridge 
# Structural Database, then it will include bibliographic, chemical, 
# crystal, experimental, refinement or atomic coordinate data resulting 
# from the CCDC's data processing and validation procedures.
#
#######################################################################

data_XUMRUU
_symmetry_cell_setting           orthorhombic
_symmetry_space_group_name_H-M   'P b c a'
_symmetry_Int_Tables_number      61
_space_group_name_Hall           '-P 2ac 2ab'
loop_
_symmetry_equiv_pos_site_id
_symmetry_equiv_pos_as_xyz
1 x,y,z
2 1/2-x,-y,1/2+z
3 -x,1/2+y,1/2-z
4 1/2+x,1/2-y,-z
5 -x,-y,-z
6 1/2+x,y,1/2-z
7 x,1/2-y,1/2+z
8 1/2-x,1/2+y,z
_cell_length_a                   10.7320(11)
_cell_length_b                   20.421(2)
_cell_length_c                   22.125(2)
_cell_angle_alpha                90
_cell_angle_beta                 90
_cell_angle_gamma                90
_cell_volume                     4848.87
loop_
_atom_site_label
_atom_site_type_symbol
_atom_site_fract_x
_atom_site_fract_y
_atom_site_fract_z
Cd1 Cd 0.56965(3) 0.138826(16) 0.624885(15)
S1 S 1.07557(12) 0.14029(7) 0.62865(7)
N1 N 0.6411(4) 0.0665(2) 0.44039(18)
N2 N 0.6011(4) 0.0823(2) 0.53662(18)
N3 N 0.8625(4) 0.01980(19) 0.25593(17)
N4 N 0.9328(4) -0.0509(2) 0.18924(18)
N5 N 0.5696(4) 0.2004(2) 0.26166(18)
N6 N 0.5368(4) 0.2833(2) 0.19957(18)
C1 C 0.6651(5) 0.0810(2) 0.3782(2)
C2 C 0.7505(5) 0.0447(2) 0.3473(2)
H1 H 0.7914 0.0101 0.3661
C3 C 0.7755(4) 0.0598(2) 0.2880(2)
C4 C 0.7152(5) 0.1102(2) 0.2587(2)
H2 H 0.7317 0.1192 0.2183
C5 C 0.6292(5) 0.1472(2) 0.2909(2)
C6 C 0.6021(5) 0.1327(2) 0.3498(2)
H3 H 0.5426 0.1568 0.3708
C7 C 0.6003(5) 0.1085(3) 0.4833(2)
H4 H 0.5747 0.1512 0.4755
C8 C 0.6416(7) 0.0190(3) 0.5284(3)
H5 H 0.6500 -0.0120 0.5589
C9 C 0.6668(7) 0.0090(3) 0.4702(3)
H6 H 0.6963 -0.0296 0.4530
C10 C 0.8389(5) -0.0138(3) 0.2042(2)
H7 H 0.7653 -0.0107 0.1822
C11 C 1.0199(5) -0.0418(3) 0.2335(2)
H8 H 1.0973 -0.0622 0.2350
C12 C 0.9766(5) 0.0010(3) 0.2744(2)
H9 H 1.0178 0.0151 0.3090
C13 C 0.6137(5) 0.2372(3) 0.2153(2)
H10 H 0.6904 0.2302 0.1968
C14 C 0.4359(5) 0.2769(3) 0.2382(3)
H11 H 0.3653 0.3033 0.2377
C15 C 0.4552(5) 0.2268(3) 0.2762(3)
H12 H 0.4017 0.2127 0.3066
C16 C 0.9578(4) 0.1798(3) 0.5914(2)
C17 C 1.0022(5) 0.2183(3) 0.5466(2)
H13 H 0.9516 0.2430 0.5212
C18 C 1.1338(5) 0.2172(3) 0.5427(2)
H14 H 1.1793 0.2412 0.5146
C19 C 1.1862(4) 0.1770(2) 0.5844(2)
C20 C 0.8253(5) 0.1684(3) 0.6075(3)
C21 C 1.3203(5) 0.1631(3) 0.5963(2)
O1 O 0.8002(4) 0.1200(3) 0.6396(2)
O2 O 0.7445(3) 0.20713(19) 0.58883(17)
O3 O 1.4021(3) 0.19542(19) 0.56850(18)
O4 O 1.3452(3) 0.11934(19) 0.63304(16)
Cd1_2 Cd 1.56965(3) 0.138826(16) 0.624885(15)
Cd1A Cd 0.93035(3) -0.138826(16) 0.124885(15)
Cd1F Cd 0.56965(3) 0.361174(16) 0.124885(15)
N4A N 0.5672(4) 0.0509(2) 0.68924(18)
N6F N 0.5368(4) 0.2167(2) 0.69957(18)
O3_2 O 0.4021(3) 0.19542(19) 0.56850(18)
O4_2 O 0.3452(3) 0.11934(19) 0.63304(16)
O5 O 0.8017(6) 0.3415(3) 0.6007(3)
H15 H 0.7850 0.3010 0.5971
H16 H 0.7437 0.3639 0.5847
O6 O 1.4125(9) 0.3289(4) 0.6000(5)
H17 H 1.4092 0.2888 0.5899
H18 H 1.4293 0.3319 0.6374
O7 O 0.6007(10) 0.4189(6) 0.5988(5)
H19 H 0.6249 0.4583 0.6027
H20 H 0.5653 0.4142 0.5647
loop_
_geom_bond_atom_site_label_1
_geom_bond_atom_site_label_2
_geom_bond_site_symmetry_1
_geom_bond_site_symmetry_2
Cd1 N2 1_555 1_555
S1 C16 1_555 1_555
N1 C1 1_555 1_555
N2 C7 1_555 1_555
N3 C3 1_555 1_555
N4 C10 1_555 1_555
N5 C5 1_555 1_555
N6 C13 1_555 1_555
C1 C2 1_555 1_555
C2 H1 1_555 1_555
C3 C2 1_555 1_555
C4 C3 1_555 1_555
H2 C4 1_555 1_555
C5 C4 1_555 1_555
C6 C1 1_555 1_555
H3 C6 1_555 1_555
C7 N1 1_555 1_555
H4 C7 1_555 1_555
C8 N2 1_555 1_555
H5 C8 1_555 1_555
C9 N1 1_555 1_555
H6 C9 1_555 1_555
C10 N3 1_555 1_555
H7 C10 1_555 1_555
C11 N4 1_555 1_555
H8 C11 1_555 1_555
C12 N3 1_555 1_555
H9 C12 1_555 1_555
C13 N5 1_555 1_555
H10 C13 1_555 1_555
C14 N6 1_555 1_555
H11 C14 1_555 1_555
C15 N5 1_555 1_555
H12 C15 1_555 1_555
C16 C17 1_555 1_555
C17 H13 1_555 1_555
C18 C17 1_555 1_555
H14 C18 1_555 1_555
C19 S1 1_555 1_555
C20 C16 1_555 1_555
C21 C19 1_555 1_555
O1 Cd1 1_555 1_555
O2 Cd1 1_555 1_555
O3 C21 1_555 1_555
O4 C21 1_555 1_555
O5 H15 1_555 1_555
H16 O5 1_555 1_555
O6 H17 1_555 1_555
H18 O6 1_555 1_555
O7 H19 1_555 1_555
H20 O7 1_555 1_555
Cd1_2 O3 1_555 1_555
Cd1A N4 1_555 1_555
Cd1F N6 1_555 1_555
N4A Cd1 1_555 1_555
N6F Cd1 1_555 1_555
O3_2 Cd1 1_555 1_555
O4_2 Cd1 1_555 1_555
C5 C6 1_555 1_555
C8 C9 1_555 1_555
C11 C12 1_555 1_555
C14 C15 1_555 1_555
C18 C19 1_555 1_555
C20 O1 1_555 1_555
C20 O2 1_555 1_555
O4 Cd1_2 1_555 1_555

#END
