
#######################################################################
#
#                 Cambridge Crystallographic Data Centre
#                                CCDC 
#
#######################################################################
#
# If this CIF has been generated from an entry in the Cambridge 
# Structural Database, then it will include bibliographic, chemical, 
# crystal, experimental, refinement or atomic coordinate data resulting 
# from the CCDC's data processing and validation procedures.
#
#######################################################################

data_XUMSEF
_symmetry_cell_setting           triclinic
_symmetry_space_group_name_H-M   'P -1'
_symmetry_Int_Tables_number      2
_space_group_name_Hall           '-P 1'
loop_
_symmetry_equiv_pos_site_id
_symmetry_equiv_pos_as_xyz
1 x,y,z
2 -x,-y,-z
_cell_length_a                   8.3626(12)
_cell_length_b                   12.3940(18)
_cell_length_c                   12.8469(18)
_cell_angle_alpha                61.598(2)
_cell_angle_beta                 86.515(2)
_cell_angle_gamma                89.950(2)
_cell_volume                     1168.49
loop_
_atom_site_label
_atom_site_type_symbol
_atom_site_fract_x
_atom_site_fract_y
_atom_site_fract_z
Pr1 Pr 0.03243(7) 0.23122(6) 0.12016(6)
Pr2 Pr 0.53239(7) 0.14989(6) 0.12027(6)
O1 O 0.0253(10) -0.0393(8) -0.1218(9)
O2 O 0.4727(9) 0.3405(8) 0.1205(9)
O3 O 0.2648(9) 0.2152(8) -0.0044(8)
O4 O 0.2781(10) -0.0049(8) -0.1059(9)
O5 O 0.4918(9) 0.2073(8) -0.0942(8)
O6 O 0.2351(10) 0.7114(8) 0.0043(8)
O7 O 0.2208(10) 0.3903(8) 0.1045(9)
O8 O 0.0096(9) 0.6143(8) 0.0948(8)
C1 C 0.1602(13) 0.6274(10) 0.0960(11)
C2 C 0.3419(13) 0.2226(11) -0.0974(11)
O9 O -0.4595(10) -0.0061(9) 0.6698(8)
O10 O -0.1277(10) 0.4003(8) 0.1314(9)
O11 O 0.3721(10) -0.0316(8) 0.1319(9)
O12 O -0.2540(10) -0.1132(9) 0.7570(8)
C3 C -0.1842(16) 0.1391(16) 0.3351(13)
C4 C -0.3188(15) -0.0299(15) 0.6640(12)
C5 C 0.3605(13) 0.4012(11) 0.1308(11)
O13 O -0.2469(10) 0.1476(9) 0.2424(8)
O14 O -0.0400(10) 0.1685(10) 0.3296(8)
C6 C 0.2430(15) 0.5465(11) 0.2049(11)
H1 H 0.2857 0.6039 0.2294
C7 C 0.3957(14) 0.4912(11) 0.1765(11)
H2 H 0.4591 0.5598 0.1127
C8 C 0.3616(18) 0.2675(17) -0.3081(14)
H3 H 0.4617 0.3047 -0.3072
H4 H 0.3114 0.3200 -0.3796
H5 H 0.3805 0.1896 -0.3049
C9 C -0.2518(18) 0.2173(17) 0.4984(18)
H6 H -0.3215 0.1953 0.5681
H7 H -0.2772 0.2972 0.4375
H8 H -0.1425 0.2182 0.5170
C10 C 0.2562(14) 0.2495(11) -0.2050(11)
H9 H 0.2133 0.3310 -0.2287
C11 C 0.5011(18) 0.4325(16) 0.2831(14)
H10 H 0.4554 0.3537 0.3400
H11 H 0.5065 0.4845 0.3192
H12 H 0.6071 0.4226 0.2563
C12 C 0.1372(19) 0.4590(13) 0.3112(13)
H13 H 0.1112 0.3877 0.3036
H14 H 0.1926 0.4349 0.3819
H15 H 0.0404 0.4987 0.3158
C13 C -0.276(2) 0.1161(17) 0.4513(14)
H16 H -0.3907 0.1079 0.4435
C14 C 0.1046(14) 0.1663(11) -0.1765(11)
H17 H 0.0419 0.1701 -0.1115
C15 C 0.1410(13) 0.0312(10) -0.1344(11)
C16 C -0.0019(18) 0.2130(13) -0.2822(14)
H18 H 0.0380 0.1849 -0.3366
H19 H -0.0003 0.3011 -0.3220
H20 H -0.1098 0.1820 -0.2541
C17 C -0.224(3) 0.0005(17) 0.5394(17)
H21 H -0.1089 0.0080 0.5468
C18 C -0.2500(18) -0.0966(14) 0.4970(14)
H22 H -0.3599 -0.1254 0.5147
H23 H -0.1816 -0.1643 0.5373
H24 H -0.2246 -0.0598 0.4130
Pr1A Pr -0.03243(7) -0.23122(6) -0.12016(6)
Pr1A_2 Pr -0.03243(7) -0.23122(6) 0.87984(6)
Pr1A_3 Pr -0.03243(7) 0.76878(6) -0.12016(6)
Pr2_2 Pr -0.46761(7) 0.14989(6) 0.12027(6)
Pr2A Pr -0.53239(7) -0.14989(6) 0.87973(6)
Pr2A_2 Pr 0.46761(7) -0.14989(6) -0.12027(6)
Pr2A_3 Pr 0.46761(7) 0.85011(6) -0.12027(6)
O1A O -0.0253(10) 0.0393(8) 0.1218(9)
O4A O 0.7219(10) 0.0049(8) 0.1059(9)
O6A O -0.2351(10) 0.2886(8) -0.0043(8)
O6A_2 O 0.7649(10) 0.2886(8) -0.0043(8)
O8A O -0.0096(9) 0.3857(8) -0.0948(8)
O9A O 0.4595(10) 0.0061(9) 0.3302(8)
O12A O 0.2540(10) 0.1132(9) 0.2430(8)
O13_2 O 0.7531(10) 0.1476(9) 0.2424(8)
loop_
_geom_bond_atom_site_label_1
_geom_bond_atom_site_label_2
_geom_bond_site_symmetry_1
_geom_bond_site_symmetry_2
Pr1 O3 1_555 1_555
Pr2 O2 1_555 1_555
O1 C15 1_555 1_555
O2 C5 1_555 1_555
O3 Pr2 1_555 1_555
O4 C15 1_555 1_555
O5 Pr2 1_555 1_555
O6 C1 1_555 1_555
O7 Pr1 1_555 1_555
O8 C1 1_555 1_555
C1 C6 1_555 1_555
C2 O3 1_555 1_555
O9 C4 1_555 1_555
O10 Pr1 1_555 1_555
O11 Pr2 1_555 1_555
O12 C4 1_555 1_555
C3 O13 1_555 1_555
C4 C17 1_555 1_555
C5 O7 1_555 1_555
O13 Pr1 1_555 1_555
O14 Pr1 1_555 1_555
C6 H1 1_555 1_555
C7 C5 1_555 1_555
H2 C7 1_555 1_555
C8 H3 1_555 1_555
H4 C8 1_555 1_555
H5 C8 1_555 1_555
C9 H6 1_555 1_555
H7 C9 1_555 1_555
H8 C9 1_555 1_555
C10 C2 1_555 1_555
H9 C10 1_555 1_555
C11 C7 1_555 1_555
H10 C11 1_555 1_555
H11 C11 1_555 1_555
H12 C11 1_555 1_555
C12 C6 1_555 1_555
H13 C12 1_555 1_555
H14 C12 1_555 1_555
H15 C12 1_555 1_555
C13 C3 1_555 1_555
H16 C13 1_555 1_555
C14 C10 1_555 1_555
H17 C14 1_555 1_555
C15 C14 1_555 1_555
C16 C14 1_555 1_555
H18 C16 1_555 1_555
H19 C16 1_555 1_555
H20 C16 1_555 1_555
C17 C13 1_555 1_555
H21 C17 1_555 1_555
C18 C17 1_555 1_555
H22 C18 1_555 1_555
H23 C18 1_555 1_555
H24 C18 1_555 1_555
Pr1A O1 1_555 1_555
Pr1A_2 O12 1_555 1_555
Pr1A_3 O6 1_555 1_555
Pr2_2 O13 1_555 1_555
Pr2A O9 1_555 1_555
Pr2A_2 O4 1_555 1_555
Pr2A_3 O6 1_555 1_555
O1A Pr1 1_555 1_555
O4A Pr2 1_555 1_555
O6A Pr1 1_555 1_555
O6A_2 Pr2 1_555 1_555
O8A Pr1 1_555 1_555
O9A Pr2 1_555 1_555
O12A Pr1 1_555 1_555
O13_2 Pr2 1_555 1_555
Pr2 O12A 1_555 1_555
O5 C2 1_555 1_555
O8 Pr1A_3 1_555 1_555
O12 Pr2A 1_555 1_555
C3 O14 1_555 1_555
C6 C7 1_555 1_555
C8 C10 1_555 1_555
C9 C13 1_555 1_555
Pr2_2 O6A 1_555 1_555

#END
