
#######################################################################
#
#                 Cambridge Crystallographic Data Centre
#                                CCDC 
#
#######################################################################
#
# If this CIF has been generated from an entry in the Cambridge 
# Structural Database, then it will include bibliographic, chemical, 
# crystal, experimental, refinement or atomic coordinate data resulting 
# from the CCDC's data processing and validation procedures.
#
#######################################################################

data_XUMSIJ
_symmetry_cell_setting           triclinic
_symmetry_space_group_name_H-M   'P -1'
_symmetry_Int_Tables_number      2
_space_group_name_Hall           '-P 1'
loop_
_symmetry_equiv_pos_site_id
_symmetry_equiv_pos_as_xyz
1 x,y,z
2 -x,-y,-z
_cell_length_a                   8.2220(16)
_cell_length_b                   12.342(3)
_cell_length_c                   12.768(3)
_cell_angle_alpha                117.50(3)
_cell_angle_beta                 93.64(3)
_cell_angle_gamma                90.02(3)
_cell_volume                     1146.29
loop_
_atom_site_label
_atom_site_type_symbol
_atom_site_fract_x
_atom_site_fract_y
_atom_site_fract_z
H1 H 0.401(14) 0.513(10) -0.062(9)
O1 O 0.0397(11) 0.4879(11) -0.1706(9)
O2 O 0.2463(11) 0.3820(9) -0.2573(8)
C1 C 0.1857(15) 0.4615(14) -0.1649(12)
C2 C 0.2768(17) 0.4977(15) -0.0430(13)
O3 O 0.7361(11) 1.2158(8) 0.4992(8)
O4 O 0.5052(9) 1.1176(8) 0.4111(8)
C3 C 0.6579(13) 1.1313(11) 0.4088(10)
C4 C 0.7438(14) 1.0522(11) 0.2983(10)
O5 O 0.7820(10) 0.4926(8) 0.6094(9)
O6 O 0.5207(10) 0.4578(8) 0.6254(10)
C5 C 0.6394(14) 0.5270(11) 0.6346(11)
C6 C 0.6021(13) 0.6619(11) 0.6743(11)
O7 O 0.7167(10) 0.8894(8) 0.3922(8)
Sm1 Sm 0.53173(6) 0.73308(5) 0.37844(5)
Sm2 Sm 1.03127(6) 0.65099(5) 0.37814(5)
O8 O 0.9789(11) 0.8405(9) 0.3784(10)
O9 O 0.7640(10) 0.7150(9) 0.4998(8)
O10 O 0.3718(11) 0.8994(9) 0.3680(9)
O11 O 0.2495(11) 0.6530(9) 0.2577(8)
O12 O 0.9940(9) 0.7011(8) 0.5880(8)
C7 C 0.8592(13) 0.8983(12) 0.3672(12)
C8 C 0.8417(12) 0.7178(10) 0.5899(10)
O13 O 0.4606(11) 0.6727(11) 0.1727(8)
C9 C 0.3122(15) 0.6462(16) 0.1667(12)
C10 C 0.8946(13) 0.9939(11) 0.3237(11)
H2 H 0.9602 1.0602 0.3882
O14 O 0.8696(12) 0.4744(9) 0.3661(10)
C11 C 0.255(2) 0.3990(16) 0.0022(14)
H3 H 0.2932 0.3221 -0.0545
H4 H 0.1413 0.3901 0.0117
H5 H 0.3160 0.4252 0.0769
C12 C 1.0023(18) 0.9380(15) 0.2180(14)
H6 H 0.9356 0.8879 0.1471
H7 H 1.0830 0.8890 0.2318
H8 H 1.0553 1.0023 0.2092
C13 C 0.2472(18) 0.7155(15) 0.0026(16)
H9 H 0.2103 0.7931 0.0592
H10 H 0.1869 0.6902 -0.0722
H11 H 0.3612 0.7226 -0.0064
C14 C 0.6320(17) 0.9637(15) 0.1946(12)
H12 H 0.5937 0.8998 0.2108
H13 H 0.6909 0.9287 0.1244
H14 H 0.5408 1.0064 0.1830
C15 C 0.2191(17) 0.6149(15) 0.0486(12)
H15 H 0.1024 0.6063 0.0557
H16 H 0.5368 0.6686 0.6093
C16 C 0.7570(13) 0.7464(11) 0.7008(10)
H17 H 0.7136 0.8277 0.7239
C17 C 0.8692(17) 0.7631(16) 0.8062(12)
H18 H 0.8553 0.6943 0.8211
H19 H 0.8433 0.8365 0.8745
H20 H 0.9803 0.7689 0.7898
C18 C 0.4966(18) 0.7080(15) 0.7787(14)
H21 H 0.5535 0.7007 0.8431
H22 H 0.3965 0.6602 0.7560
H23 H 0.4732 0.7921 0.8031
H24 H 0.89(2) 0.402(19) 0.377(16)
H25 H 0.767(13) 0.49(3) 0.39(2)
O1A O 0.9603(11) 0.5121(11) 0.1706(9)
O2A O 0.7537(11) 0.6180(9) 0.2573(8)
O3A O 0.2639(11) 0.7842(8) 0.5008(8)
O3A_2 O 1.2639(11) 0.7842(8) 0.5008(8)
O4A O 0.4948(9) 0.8824(8) 0.5889(8)
O5A O 1.2180(10) 0.5074(8) 0.3906(9)
O6A O 0.4793(10) 0.5422(8) 0.3746(10)
Sm1A Sm 0.46827(6) 0.26692(5) -0.37844(5)
Sm1A_2 Sm 0.46827(6) 0.26692(5) 0.62156(5)
Sm1A_3 Sm 0.46827(6) 1.26692(5) 0.62156(5)
Sm2_2 Sm 0.03127(6) 0.65099(5) 0.37814(5)
Sm2A Sm -0.03127(6) 0.34901(5) -0.37814(5)
Sm2A_2 Sm 0.96873(6) 0.34901(5) 0.62186(5)
Sm2A_3 Sm 0.96873(6) 1.34901(5) 0.62186(5)
O11_2 O 1.2495(11) 0.6530(9) 0.2577(8)
H26? H 0.6795 1.0729 0.4397
loop_
_geom_bond_atom_site_label_1
_geom_bond_atom_site_label_2
_geom_bond_site_symmetry_1
_geom_bond_site_symmetry_2
H1 C2 1_555 1_555
O1 C1 1_555 1_555
O2 C1 1_555 1_555
C1 C2 1_555 1_555
C2 C11 1_555 1_555
O3 C3 1_555 1_555
O4 C3 1_555 1_555
C3 C4 1_555 1_555
C4 C10 1_555 1_555
O5 C5 1_555 1_555
O6 C5 1_555 1_555
C5 C6 1_555 1_555
C6 H16 1_555 1_555
O7 Sm1 1_555 1_555
Sm1 O9 1_555 1_555
Sm2 O8 1_555 1_555
O8 C7 1_555 1_555
O9 Sm2 1_555 1_555
O10 Sm1 1_555 1_555
O11 Sm1 1_555 1_555
O12 Sm2 1_555 1_555
C7 O7 1_555 1_555
C8 O9 1_555 1_555
O13 Sm1 1_555 1_555
C9 O11 1_555 1_555
C10 C7 1_555 1_555
H2 C10 1_555 1_555
O14 Sm2 1_555 1_555
C11 H3 1_555 1_555
H4 C11 1_555 1_555
H5 C11 1_555 1_555
C12 C10 1_555 1_555
H6 C12 1_555 1_555
H7 C12 1_555 1_555
H8 C12 1_555 1_555
C13 H9 1_555 1_555
H10 C13 1_555 1_555
H11 C13 1_555 1_555
C14 C4 1_555 1_555
H12 C14 1_555 1_555
H13 C14 1_555 1_555
H14 C14 1_555 1_555
C15 C2 1_555 1_555
H15 C15 1_555 1_555
C16 C6 1_555 1_555
H17 C16 1_555 1_555
C17 C16 1_555 1_555
H18 C17 1_555 1_555
H19 C17 1_555 1_555
H20 C17 1_555 1_555
C18 C6 1_555 1_555
H21 C18 1_555 1_555
H22 C18 1_555 1_555
H23 C18 1_555 1_555
H24 O14 1_555 1_555
H25 O14 1_555 1_555
O1A Sm2 1_555 1_555
O2A Sm1 1_555 1_555
O3A Sm1 1_555 1_555
O3A_2 Sm2 1_555 1_555
O4A Sm1 1_555 1_555
O5A Sm2 1_555 1_555
O6A Sm1 1_555 1_555
Sm1A O2 1_555 1_555
Sm1A_2 O6 1_555 1_555
Sm1A_3 O3 1_555 1_555
Sm2_2 O11 1_555 1_555
Sm2A O1 1_555 1_555
Sm2A_2 O5 1_555 1_555
Sm2A_3 O3 1_555 1_555
O11_2 Sm2 1_555 1_555
O2 Sm2A 1_555 1_555
O4 Sm1A_3 1_555 1_555
Sm2 O2A 1_555 1_555
O12 C8 1_555 1_555
C8 C16 1_555 1_555
O13 C9 1_555 1_555
C9 C15 1_555 1_555
C13 C15 1_555 1_555
O3A Sm2_2 1_555 1_555

#END
