
#######################################################################
#
#                 Cambridge Crystallographic Data Centre
#                                CCDC 
#
#######################################################################
#
# If this CIF has been generated from an entry in the Cambridge 
# Structural Database, then it will include bibliographic, chemical, 
# crystal, experimental, refinement or atomic coordinate data resulting 
# from the CCDC's data processing and validation procedures.
#
#######################################################################

data_XUMTOP
_symmetry_cell_setting           triclinic
_symmetry_space_group_name_H-M   'P -1'
_symmetry_Int_Tables_number      2
_space_group_name_Hall           '-P 1'
loop_
_symmetry_equiv_pos_site_id
_symmetry_equiv_pos_as_xyz
1 x,y,z
2 -x,-y,-z
_cell_length_a                   10.0661(10)
_cell_length_b                   10.0754(10)
_cell_length_c                   10.6774(11)
_cell_angle_alpha                67.9280(10)
_cell_angle_beta                 81.6370(10)
_cell_angle_gamma                87.4400(10)
_cell_volume                     992.808
loop_
_atom_site_label
_atom_site_type_symbol
_atom_site_fract_x
_atom_site_fract_y
_atom_site_fract_z
Sb1 Sb 0.56148(5) 1.17691(5) -0.44818(5)
Mo1 Mo 0.81970(6) 0.81343(7) 0.00037(7)
Mo2 Mo 0.32643(6) 0.68707(7) -0.00048(6)
Mo3 Mo 0.78672(6) 1.15920(8) -0.24622(6)
Mo4 Mo 0.60704(7) 0.84208(7) -0.24699(6)
Mo5 Mo 0.28044(6) 1.03438(8) -0.24832(6)
Mo6 Mo 0.45899(7) 1.35544(7) -0.24801(6)
Cu1 Cu 0.0000 1.0000 -0.5000
P1 P 0.5000 1.0000 0.0000
O2 O 0.7388(8) 0.7786(7) -0.1377(8)
O3 O 0.4628(5) 0.9835(6) -0.3361(6)
O4 O 0.2467(6) 0.5471(7) 0.0008(9)
O5 O 0.3931(7) 1.2227(8) -0.3367(7)
O6 O 0.6305(6) 1.2837(8) -0.3347(6)
O7 O 0.8626(9) 0.9998(7) -0.1363(8)
O8 O 0.8221(8) 0.8931(10) 0.1368(9)
O9 O 0.7041(8) 0.6672(9) 0.1397(8)
O10 O 0.2522(6) 0.8482(8) -0.1382(7)
O11 O 0.1878(6) 1.0533(8) -0.3707(6)
O12 O 0.4431(7) 1.5138(6) -0.3704(6)
O13 O 0.4794(6) 0.7125(8) -0.1386(6)
O14 O 0.5568(7) 1.3934(10) -0.1372(7)
O15 O 0.7856(7) 1.2604(10) -0.1362(6)
O16 O 0.6554(6) 0.7815(6) -0.3725(5)
O17 O 0.6989(8) 1.0419(6) -0.3321(8)
O18 O 0.9112(6) 1.2408(7) -0.3694(5)
O19 O 0.9641(6) 0.7271(7) 0.0004(7)
O20 O 0.6207(8) 0.9732(9) -0.0921(9)
O21 O 0.4559(9) 0.9286(10) -0.0866(9)
O22 O 0.5735(9) 1.1428(11) -0.0867(10)
O23 O 0.4008(9) 1.1023(10) -0.0941(9)
N1 N 0.0327(8) 1.1935(9) -0.6166(9)
H1 H 0.0979 1.1952 -0.6845
H2 H 0.0654 1.2384 -0.5688
N2 N -0.0067(8) 1.5220(8) -0.7045(8)
H3 H -0.0082 1.4877 -0.6174
H4 H 0.0158 1.6100 -0.7511
C1 C -0.0797(9) 1.2782(9) -0.6790(9)
H5 H -0.1178 1.2294 -0.7286
H6 H -0.1488 1.2819 -0.6069
C2 C -0.0430(10) 1.4286(10) -0.7747(9)
H7 H -0.1182 1.4705 -0.8232
H8 H 0.0323 1.4259 -0.8416
Sb1A Sb 0.43852(5) 0.82309(5) 0.44818(5)
Mo1A Mo 0.18030(6) 1.18657(7) -0.00037(7)
Mo2A Mo 0.67357(6) 1.31293(7) 0.00048(6)
Mo3A Mo 0.21328(6) 0.84080(8) 0.24622(6)
Mo4A Mo 0.39296(7) 1.15792(7) 0.24699(6)
Mo5A Mo 0.71956(6) 0.96562(8) 0.24832(6)
Mo5A_2 Mo -0.28044(6) 0.96562(8) -0.75168(6)
Mo6A Mo 0.54101(7) 0.64456(7) 0.24801(6)
Cu1_2 Cu 1.0000 1.0000 0.5000
O2A O 0.2612(8) 1.2214(7) 0.1377(8)
O3A O 0.5372(5) 1.0165(6) 0.3361(6)
O4A O 0.7533(6) 1.4529(7) -0.0008(9)
O5A O 0.6069(7) 0.7773(8) 0.3367(7)
O6A O 0.3695(6) 0.7163(8) 0.3347(6)
O7A O 0.1374(9) 1.0002(7) 0.1363(8)
O8A O 0.1779(8) 1.1069(10) -0.1368(9)
O9A O 0.2959(8) 1.3328(9) -0.1397(8)
O10A O 0.7478(6) 1.1518(8) 0.1382(7)
O11A O -0.1878(6) 0.9467(8) -0.6293(6)
O11A_2 O 0.8122(6) 0.9467(8) 0.3707(6)
O12A O 0.5569(7) 0.4862(6) 0.3704(6)
O13A O 0.5206(6) 1.2875(8) 0.1386(6)
O14A O 0.4432(7) 0.6066(10) 0.1372(7)
O15A O 0.2144(7) 0.7396(10) 0.1362(6)
O16A O 0.3446(6) 1.2185(6) 0.3725(5)
O17A O 0.3011(8) 0.9581(6) 0.3321(8)
O18A O 0.0888(6) 0.7592(7) 0.3694(5)
O19A O 0.0359(6) 1.2729(7) -0.0004(7)
O20A O 0.3793(8) 1.0268(9) 0.0921(9)
O21A O 0.5441(9) 1.0714(10) 0.0866(9)
O22A O 0.4265(9) 0.8572(11) 0.0867(10)
O23A O 0.5992(9) 0.8977(10) 0.0941(9)
N1A N -0.0327(8) 0.8065(9) -0.3834(9)
H1A H -0.0979 0.8048 -0.3155
H2A H -0.0654 0.7616 -0.4312
N2A N 0.0067(8) 0.4780(8) -0.2955(8)
H3A H 0.0082 0.5123 -0.3826
H4A H -0.0158 0.3900 -0.2489
C1A C 0.0797(9) 0.7218(9) -0.3210(9)
H5A H 0.1178 0.7706 -0.2714
H6A H 0.1488 0.7181 -0.3931
C2A C 0.0430(10) 0.5714(10) -0.2253(9)
H7A H 0.1182 0.5295 -0.1768
H8A H -0.0323 0.5741 -0.1584
O1 O 0.1995(6) 0.4432(8) 0.4819(7)
loop_
_geom_bond_atom_site_label_1
_geom_bond_atom_site_label_2
_geom_bond_site_symmetry_1
_geom_bond_site_symmetry_2
Sb1 O3 1_555 1_555
Mo1 O2 1_555 1_555
Mo2 O4 1_555 1_555
Mo3 O6 1_555 1_555
Mo4 O2 1_555 1_555
Mo5 O3 1_555 1_555
Mo6 O5 1_555 1_555
Cu1 O11 1_555 1_555
P1 O20 1_555 1_555
O3 Mo4 1_555 1_555
O5 Sb1 1_555 1_555
O6 Sb1 1_555 1_555
O7 Mo1 1_555 1_555
O8 Mo1 1_555 1_555
O9 Mo1 1_555 1_555
O10 Mo2 1_555 1_555
O11 Mo5 1_555 1_555
O12 Mo6 1_555 1_555
O13 Mo2 1_555 1_555
O14 Mo6 1_555 1_555
O15 Mo3 1_555 1_555
O16 Mo4 1_555 1_555
O17 Sb1 1_555 1_555
O18 Mo3 1_555 1_555
O19 Mo1 1_555 1_555
O20 Mo3 1_555 1_555
O21 Mo4 1_555 1_555
O22 Mo3 1_555 1_555
O23 Mo5 1_555 1_555
N1 Cu1 1_555 1_555
H1 N1 1_555 1_555
H2 N1 1_555 1_555
N2 H3 1_555 1_555
H4 N2 1_555 1_555
C1 N1 1_555 1_555
H5 C1 1_555 1_555
H6 C1 1_555 1_555
C2 N2 1_555 1_555
H7 C2 1_555 1_555
H8 C2 1_555 1_555
Sb1A O3A 1_555 1_555
Mo1A O2A 1_555 1_555
Mo2A O14 1_555 1_555
Mo3A O6A 1_555 1_555
Mo4A O2A 1_555 1_555
Mo5A O8 1_555 1_555
Mo5A_2 O11A 1_555 1_555
Mo6A O9 1_555 1_555
Cu1_2 O11A_2 1_555 1_555
O3A Mo4A 1_555 1_555
O4A Mo2A 1_555 1_555
O5A Sb1A 1_555 1_555
O6A Sb1A 1_555 1_555
O7A Mo1A 1_555 1_555
O8A Mo5 1_555 1_555
O9A Mo6 1_555 1_555
O10A Mo2A 1_555 1_555
O11A Cu1 1_555 1_555
O11A_2 Mo5A 1_555 1_555
O12A Mo6A 1_555 1_555
O13A Mo2A 1_555 1_555
O14A Mo2 1_555 1_555
O15A Mo2 1_555 1_555
O16A Mo4A 1_555 1_555
O17A Sb1A 1_555 1_555
O18A Mo3A 1_555 1_555
O19A Mo1A 1_555 1_555
O20A P1 1_555 1_555
O21A P1 1_555 1_555
O22A P1 1_555 1_555
O23A P1 1_555 1_555
N1A Cu1 1_555 1_555
H1A N1A 1_555 1_555
H2A N1A 1_555 1_555
N2A H3A 1_555 1_555
H4A N2A 1_555 1_555
C1A N1A 1_555 1_555
H5A C1A 1_555 1_555
H6A C1A 1_555 1_555
C2A N2A 1_555 1_555
H7A C2A 1_555 1_555
H8A C2A 1_555 1_555
Mo3 O7 1_555 1_555
Mo3 O17 1_555 1_555
Mo4 O13 1_555 1_555
Mo4 O17 1_555 1_555
Mo4 O20 1_555 1_555
Mo5 O5 1_555 1_555
Mo5 O10 1_555 1_555
Mo6 O6 1_555 1_555
Mo6 O23 1_555 1_555
P1 O21 1_555 1_555
P1 O22 1_555 1_555
P1 O23 1_555 1_555
O15 Mo2A 1_555 1_555
O20 O21 1_555 1_555
O20 O22 1_555 1_555
O20 O23A 1_555 1_555
O21 O23 1_555 1_555
O21 O22A 1_555 1_555
O22 O23 1_555 1_555
O22 O21A 1_555 1_555
O23 O20A 1_555 1_555
C1 C2 1_555 1_555
Mo1A O8A 1_555 1_555
Mo1A O9A 1_555 1_555
Mo3A O7A 1_555 1_555
Mo3A O15A 1_555 1_555
Mo3A O17A 1_555 1_555
Mo3A O20A 1_555 1_555
Mo3A O22A 1_555 1_555
Mo4A O13A 1_555 1_555
Mo4A O17A 1_555 1_555
Mo4A O20A 1_555 1_555
Mo4A O21A 1_555 1_555
Mo5A O3A 1_555 1_555
Mo5A O5A 1_555 1_555
Mo5A O10A 1_555 1_555
Mo5A O23A 1_555 1_555
Mo6A O5A 1_555 1_555
Mo6A O6A 1_555 1_555
Mo6A O14A 1_555 1_555
Mo6A O23A 1_555 1_555
O20A O21A 1_555 1_555
O20A O22A 1_555 1_555
O21A O23A 1_555 1_555
O22A O23A 1_555 1_555
C1A C2A 1_555 1_555

#END
