
#######################################################################
#
#                 Cambridge Crystallographic Data Centre
#                                CCDC 
#
#######################################################################
#
# If this CIF has been generated from an entry in the Cambridge 
# Structural Database, then it will include bibliographic, chemical, 
# crystal, experimental, refinement or atomic coordinate data resulting 
# from the CCDC's data processing and validation procedures.
#
#######################################################################

data_XUMTUV
_symmetry_cell_setting           monoclinic
_symmetry_space_group_name_H-M   'C 2/c'
_symmetry_Int_Tables_number      15
_space_group_name_Hall           '-C 2yn'
loop_
_symmetry_equiv_pos_site_id
_symmetry_equiv_pos_as_xyz
1 x,y,z
2 -x,y,1/2-z
3 1/2+x,1/2+y,z
4 1/2-x,1/2+y,1/2-z
5 -x,-y,-z
6 x,-y,1/2+z
7 1/2-x,1/2-y,-z
8 1/2+x,1/2-y,1/2+z
_cell_length_a                   21.719(2)
_cell_length_b                   16.6492(18)
_cell_length_c                   16.1955(17)
_cell_angle_alpha                90
_cell_angle_beta                 120.052(2)
_cell_angle_gamma                90
_cell_volume                     5069.09
loop_
_atom_site_label
_atom_site_type_symbol
_atom_site_fract_x
_atom_site_fract_y
_atom_site_fract_z
Ho1 Ho 0.691312(14) 0.354124(17) -0.002042(19)
O1 O 0.7066(3) 0.4421(3) 0.1257(4)
O2 O 0.7246(4) 0.4954(3) 0.0154(4)
O3 O 0.8139(2) 0.3602(3) 0.0862(4)
O4 O 0.8738(3) 0.2463(3) 0.1106(3)
O5 O 0.5866(4) 0.3383(5) 0.0105(7)
O6 O 0.5972(4) 0.4278(4) -0.1248(5)
O7 O 0.7213(3) 0.6317(3) 0.3788(4)
O8 O 0.7780(3) 0.7478(3) 0.4012(4)
O9 O 0.8633(6) 0.8227(6) 0.1853(8)
O10 O 0.8354(4) 0.7527(4) 0.0611(5)
O11 O 0.9436(4) 0.6078(4) 0.2026(7)
C1 C 0.8701(3) 0.3191(4) 0.1247(5)
C2 C 0.7466(4) 0.5786(4) 0.1451(5)
C3 C 0.7393(3) 0.5942(4) 0.2239(5)
H1 H 0.7186 0.5557 0.2440
C4 C 0.7623(4) 0.6661(4) 0.2732(5)
C5 C 0.7942(4) 0.7226(5) 0.2443(5)
H2 H 0.8108 0.7708 0.2770
C6 C 0.8009(4) 0.7059(5) 0.1665(6)
C7 C 0.7775(4) 0.6351(4) 0.1152(6)
H3 H 0.7824 0.6261 0.0621
C8 C 0.7230(4) 0.5008(4) 0.0907(5)
C9 C 0.7533(4) 0.6832(4) 0.3579(5)
C10 C 1.0000 0.3224(6) 0.2500
H4 H 1.0000 0.2666 0.2500
C11 C 0.9379(4) 0.3632(4) 0.1904(5)
C12 C 0.9372(3) 0.4460(4) 0.1916(5)
H5 H 0.8954 0.4744 0.1540
C13 C 1.0000 0.4855(6) 0.2500
C14 C 0.5941(7) 0.4778(7) -0.1875(8)
H6 H 0.6104 0.5299 -0.1681
C15 C 0.5599(11) 0.5224(13) -0.3457(13)
H7 H 0.5185 0.5091 -0.4055
H8 H 0.6008 0.5236 -0.3536
H9 H 0.5535 0.5742 -0.3250
C16 C 0.5610(12) 0.3728(12) -0.313(2)
H10 H 0.5833 0.3689 -0.3509
H11 H 0.5113 0.3610 -0.3513
H12 H 0.5827 0.3352 -0.2610
C17 C 0.5619(6) 0.2774(8) 0.0296(8)
H13 H 0.5863 0.2296 0.0366
C18 C 0.4639(14) 0.3365(14) 0.026(2)
H14 H 0.4920 0.3846 0.0467
H15 H 0.4401 0.3297 0.0625
H16 H 0.4292 0.3405 -0.0402
C19 C 0.4908(13) 0.1953(16) 0.066(2)
H17 H 0.4477 0.1748 0.0130
H18 H 0.4847 0.2012 0.1203
H19 H 0.5290 0.1585 0.0808
N1 N 0.8366(4) 0.7643(5) 0.1343(7)
N2 N 0.5705(7) 0.4599(9) -0.2720(8)
N3 N 0.5072(7) 0.2719(9) 0.0411(10)
N4 N 1.0000 0.5741(6) 0.2500
Ho1A Ho 1.308688(14) 0.354124(17) 0.502042(19)
Ho1B Ho 1.191312(14) 0.854124(17) -0.002042(19)
Ho1C Ho 0.808688(14) 0.854124(17) 0.502042(19)
Ho1D Ho 1.308688(14) 0.645876(17) 0.002042(19)
Ho1E Ho 0.691312(14) 0.645876(17) 0.497958(19)
Ho1F Ho 0.808688(14) 0.145876(17) 0.002042(19)
Ho1G Ho 1.191312(14) 0.145876(17) 0.497958(19)
O1A O 1.2934(3) 0.4421(3) 0.3743(4)
O2A O 1.2754(4) 0.4954(3) 0.4846(4)
O3A O 1.1861(2) 0.3602(3) 0.4138(4)
O4A O 1.1262(3) 0.2463(3) 0.3894(3)
O4F O 0.6262(3) 0.2537(3) -0.1106(3)
O4G O 1.3738(3) 0.2537(3) 0.6106(3)
O5A O 1.4134(4) 0.3383(5) 0.4895(7)
O6A O 1.4028(4) 0.4278(4) 0.6248(5)
O7A O 1.2787(3) 0.6317(3) 0.1212(4)
O7D O 1.2787(3) 0.3683(3) 0.6212(4)
O7E O 0.7213(3) 0.3683(3) -0.1212(4)
O8A O 1.2220(3) 0.7478(3) 0.0988(4)
O8B O 1.2780(3) 0.2478(3) 0.4012(4)
O8C O 0.7220(3) 0.2478(3) 0.0988(4)
O9A O 1.1367(6) 0.8227(6) 0.3147(8)
O10A O 1.1646(4) 0.7527(4) 0.4389(5)
O11A O 1.0564(4) 0.6078(4) 0.2974(7)
C1A C 1.1299(3) 0.3191(4) 0.3753(5)
C2A C 1.2534(4) 0.5786(4) 0.3549(5)
C3A C 1.2607(3) 0.5942(4) 0.2761(5)
H1A H 1.2814 0.5557 0.2560
C4A C 1.2377(4) 0.6661(4) 0.2268(5)
C5A C 1.2058(4) 0.7226(5) 0.2557(5)
H2A H 1.1892 0.7708 0.2230
C6A C 1.1991(4) 0.7059(5) 0.3335(6)
C7A C 1.2225(4) 0.6351(4) 0.3848(6)
H3A H 1.2176 0.6261 0.4379
C8A C 1.2770(4) 0.5008(4) 0.4093(5)
C9A C 1.2467(4) 0.6832(4) 0.1421(5)
C11A C 1.0621(4) 0.3632(4) 0.3096(5)
C12A C 1.0628(3) 0.4460(4) 0.3084(5)
H5A H 1.1046 0.4744 0.3460
C14A C 1.4059(7) 0.4778(7) 0.6875(8)
H6A H 1.3896 0.5299 0.6681
C15A C 1.4401(11) 0.5224(13) 0.8457(13)
H7A H 1.4815 0.5091 0.9055
H8A H 1.3992 0.5236 0.8536
H9A H 1.4465 0.5742 0.8250
C16A C 1.4390(12) 0.3728(12) 0.813(2)
H10A H 1.4167 0.3689 0.8509
H11A H 1.4887 0.3610 0.8513
H12A H 1.4173 0.3352 0.7610
C17A C 1.4381(6) 0.2774(8) 0.4704(8)
H13A H 1.4137 0.2296 0.4634
C18A C 1.5361(14) 0.3365(14) 0.474(2)
H14A H 1.5080 0.3846 0.4533
H15A H 1.5599 0.3297 0.4375
H16A H 1.5708 0.3405 0.5402
C19A C 1.5092(13) 0.1953(16) 0.434(2)
H17A H 1.5523 0.1748 0.4870
H18A H 1.5153 0.2012 0.3797
H19A H 1.4710 0.1585 0.4192
N1A N 1.1634(4) 0.7643(5) 0.3657(7)
N2A N 1.4295(7) 0.4599(9) 0.7720(8)
N3A N 1.4928(7) 0.2719(9) 0.4589(10)
O12 O 0.9100(7) 0.5735(10) 0.4711(10)
C20 C 0.8607(10) 0.5224(12) 0.4540(10)
H20 H 0.8319 0.5282 0.4809
C21 C 0.8889(12) 0.4515(16) 0.3507(14)
H21 H 0.8644 0.4781 0.2899
H22 H 0.8925 0.3952 0.3411
H23 H 0.9357 0.4739 0.3879
C22 C 0.7948(10) 0.4085(10) 0.3761(13)
H24 H 0.7685 0.4280 0.4052
H25 H 0.8133 0.3561 0.4006
H26 H 0.7639 0.4056 0.3083
N5 N 0.8521(6) 0.4619(8) 0.3974(7)
loop_
_geom_bond_atom_site_label_1
_geom_bond_atom_site_label_2
_geom_bond_site_symmetry_1
_geom_bond_site_symmetry_2
Ho1 O1 1_555 1_555
O1 C8 1_555 1_555
O2 Ho1 1_555 1_555
O3 Ho1 1_555 1_555
O4 C1 1_555 1_555
O5 Ho1 1_555 1_555
O6 Ho1 1_555 1_555
O7 C9 1_555 1_555
O8 C9 1_555 1_555
O9 N1 1_555 1_555
O10 N1 1_555 1_555
O11 N4 1_555 1_555
C1 O3 1_555 1_555
C2 C3 1_555 1_555
C3 H1 1_555 1_555
C4 C3 1_555 1_555
C5 C4 1_555 1_555
H2 C5 1_555 1_555
C6 C5 1_555 1_555
C7 C2 1_555 1_555
H3 C7 1_555 1_555
C8 O2 1_555 1_555
C9 C4 1_555 1_555
C10 H4 1_555 1_555
C11 C1 1_555 1_555
C12 C11 1_555 1_555
H5 C12 1_555 1_555
C13 C12 1_555 1_555
C14 O6 1_555 1_555
H6 C14 1_555 1_555
C15 H7 1_555 1_555
H8 C15 1_555 1_555
H9 C15 1_555 1_555
C16 H10 1_555 1_555
H11 C16 1_555 1_555
H12 C16 1_555 1_555
C17 O5 1_555 1_555
H13 C17 1_555 1_555
C18 H14 1_555 1_555
H15 C18 1_555 1_555
H16 C18 1_555 1_555
C19 H17 1_555 1_555
H18 C19 1_555 1_555
H19 C19 1_555 1_555
N1 C6 1_555 1_555
N2 C14 1_555 1_555
N3 C17 1_555 1_555
N4 C13 1_555 1_555
O12 C20 1_555 1_555
C20 H20 1_555 1_555
C21 H21 1_555 1_555
H22 C21 1_555 1_555
H23 C21 1_555 1_555
C22 H24 1_555 1_555
H25 C22 1_555 1_555
H26 C22 1_555 1_555
N5 C20 1_555 1_555
Ho1A O1A 1_555 1_555
Ho1B O8A 1_555 1_555
Ho1C O8 1_555 1_555
Ho1D O7A 1_555 1_555
Ho1E O7 1_555 1_555
Ho1F O4 1_555 1_555
Ho1G O4A 1_555 1_555
O1A C8A 1_555 1_555
O2A Ho1A 1_555 1_555
O3A Ho1A 1_555 1_555
O4A C1A 1_555 1_555
O4F Ho1 1_555 1_555
O4G Ho1A 1_555 1_555
O5A Ho1A 1_555 1_555
O6A Ho1A 1_555 1_555
O7A C9A 1_555 1_555
O7D Ho1A 1_555 1_555
O7E Ho1 1_555 1_555
O8A C9A 1_555 1_555
O8B Ho1A 1_555 1_555
O8C Ho1 1_555 1_555
O9A N1A 1_555 1_555
O10A N1A 1_555 1_555
O11A N4 1_555 1_555
C1A O3A 1_555 1_555
C2A C3A 1_555 1_555
C3A H1A 1_555 1_555
C4A C3A 1_555 1_555
C5A C4A 1_555 1_555
H2A C5A 1_555 1_555
C6A C5A 1_555 1_555
C7A C2A 1_555 1_555
H3A C7A 1_555 1_555
C8A O2A 1_555 1_555
C9A C4A 1_555 1_555
C11A C10 1_555 1_555
C12A C13 1_555 1_555
H5A C12A 1_555 1_555
C14A O6A 1_555 1_555
H6A C14A 1_555 1_555
C15A H7A 1_555 1_555
H8A C15A 1_555 1_555
H9A C15A 1_555 1_555
C16A H10A 1_555 1_555
H11A C16A 1_555 1_555
H12A C16A 1_555 1_555
C17A O5A 1_555 1_555
H13A C17A 1_555 1_555
C18A H14A 1_555 1_555
H15A C18A 1_555 1_555
H16A C18A 1_555 1_555
C19A H17A 1_555 1_555
H18A C19A 1_555 1_555
H19A C19A 1_555 1_555
N1A C6A 1_555 1_555
N2A C14A 1_555 1_555
N3A C17A 1_555 1_555
C2 C8 1_555 1_555
C6 C7 1_555 1_555
C10 C11 1_555 1_555
C15 N2 1_555 1_555
C16 N2 1_555 1_555
C18 N3 1_555 1_555
C19 N3 1_555 1_555
C21 N5 1_555 1_555
C22 N5 1_555 1_555
C1A C11A 1_555 1_555
C2A C8A 1_555 1_555
C6A C7A 1_555 1_555
C11A C12A 1_555 1_555
C15A N2A 1_555 1_555
C16A N2A 1_555 1_555
C18A N3A 1_555 1_555
C19A N3A 1_555 1_555

#END
