
#######################################################################
#
#                 Cambridge Crystallographic Data Centre
#                                CCDC 
#
#######################################################################
#
# If this CIF has been generated from an entry in the Cambridge 
# Structural Database, then it will include bibliographic, chemical, 
# crystal, experimental, refinement or atomic coordinate data resulting 
# from the CCDC's data processing and validation procedures.
#
#######################################################################

data_XUMVEH
_symmetry_cell_setting           monoclinic
_symmetry_space_group_name_H-M   'C 2/c'
_symmetry_Int_Tables_number      15
_space_group_name_Hall           '-C 2yn'
loop_
_symmetry_equiv_pos_site_id
_symmetry_equiv_pos_as_xyz
1 x,y,z
2 -x,y,1/2-z
3 1/2+x,1/2+y,z
4 1/2-x,1/2+y,1/2-z
5 -x,-y,-z
6 x,-y,1/2+z
7 1/2-x,1/2-y,-z
8 1/2+x,1/2-y,1/2+z
_cell_length_a                   21.854(3)
_cell_length_b                   17.034(2)
_cell_length_c                   16.445(2)
_cell_angle_alpha                90
_cell_angle_beta                 119.559(2)
_cell_angle_gamma                90
_cell_volume                     5325.06
loop_
_atom_site_label
_atom_site_type_symbol
_atom_site_fract_x
_atom_site_fract_y
_atom_site_fract_z
Nd1 Nd 0.690041(11) 0.643695(13) 0.499353(15)
O1 O 0.72894(17) 0.50048(18) 0.5194(2)
O2 O 0.70316(17) 0.54799(18) 0.6232(2)
O3 O 0.72279(16) 0.37018(18) 0.8775(2)
O4 O 0.77696(16) 0.25450(19) 0.9005(2)
O5 O 0.8717(3) 0.1825(3) 0.6960(4)
O6 O 0.8370(2) 0.2438(2) 0.5668(3)
O7 O 0.87678(15) 0.75145(17) 0.6105(2)
O8 O 0.81599(14) 0.64100(18) 0.5891(2)
O9 O 1.05633(18) 0.3963(2) 0.7938(3)
O10 O 0.58595(17) 0.6679(2) 0.5204(3)
O11 O 0.59650(15) 0.5690(2) 0.3754(2)
N1 N 0.8408(2) 0.2354(3) 0.6421(4)
N2 N 1.0000 0.4308(3) 0.7500
N3 N 0.5053(2) 0.7402(3) 0.5355(4)
N4 N 0.5750(2) 0.5463(3) 0.2283(3)
C1 C 0.7493(2) 0.4174(3) 0.6471(3)
C2 C 0.7411(2) 0.4032(2) 0.7244(3)
H1 H 0.7192 0.4407 0.7424
C3 C 0.7646(2) 0.3343(3) 0.7750(3)
C4 C 0.7976(2) 0.2789(3) 0.7483(3)
H2 H 0.8144 0.2324 0.7817
C5 C 0.8052(2) 0.2941(3) 0.6709(3)
C6 C 0.7816(2) 0.3615(3) 0.6196(3)
H3 H 0.7870 0.3697 0.5676
C7 C 0.7256(2) 0.4938(3) 0.5928(3)
C8 C 0.7547(2) 0.3188(3) 0.8584(3)
C9 C 1.0000 0.6773(4) 0.7500
H4 H 1.0000 0.7319 0.7500
C10 C 0.9385(2) 0.6373(2) 0.6909(3)
C11 C 0.93826(19) 0.5554(2) 0.6916(3)
H5 H 0.8974 0.5274 0.6536
C12 C 1.0000 0.5171(3) 0.7500
C13 C 0.8714(2) 0.6804(3) 0.6250(3)
C14 C 0.5617(3) 0.7314(3) 0.5269(4)
H6 H 0.5851 0.7767 0.5257
C15 C 0.4835(4) 0.8156(4) 0.5507(7)
H7 H 0.5147 0.8553 0.5505
H8 H 0.4850 0.8158 0.6100
H9 H 0.4365 0.8262 0.5018
C16 C 0.4648(4) 0.6733(4) 0.5372(6)
H10 H 0.4799 0.6269 0.5189
H11 H 0.4158 0.6822 0.4946
H12 H 0.4720 0.6666 0.5993
C17 C 0.5907(3) 0.5243(3) 0.3121(4)
H13 H 0.5983 0.4711 0.3259
C18 C 0.5648(3) 0.4907(4) 0.1558(5)
H14 H 0.5776 0.4390 0.1822
H15 H 0.5937 0.5053 0.1294
H16 H 0.5163 0.4909 0.1077
C19 C 0.5645(3) 0.6284(3) 0.2012(4)
H17 H 0.5728 0.6601 0.2540
H18 H 0.5170 0.6361 0.1518
H19 H 0.5965 0.6434 0.1799
Nd1A Nd 1.309959(11) 0.643695(13) 1.000647(15)
Nd1B Nd 1.190041(11) 0.143695(13) 0.499353(15)
Nd1C Nd 0.809959(11) 0.143695(13) 1.000647(15)
Nd1D Nd 1.309959(11) 0.356305(13) 0.500647(15)
Nd1E Nd 0.690041(11) 0.356305(13) 0.999353(15)
Nd1F Nd 0.809959(11) 0.856305(13) 0.500647(15)
Nd1G Nd 1.190041(11) 0.856305(13) 0.999353(15)
O1A O 1.27106(17) 0.50048(18) 0.9806(2)
O2A O 1.29684(17) 0.54799(18) 0.8768(2)
O3A O 1.27721(16) 0.37018(18) 0.6225(2)
O3D O 1.27721(16) 0.62982(18) 1.1225(2)
O3E O 0.72279(16) 0.62982(18) 0.3775(2)
O4A O 1.22304(16) 0.25450(19) 0.5995(2)
O4B O 1.27696(16) 0.75450(19) 0.9005(2)
O4C O 0.72304(16) 0.75450(19) 0.5995(2)
O5A O 1.1283(3) 0.1825(3) 0.8040(4)
O6A O 1.1630(2) 0.2438(2) 0.9332(3)
O7A O 1.12322(15) 0.75145(17) 0.8895(2)
O7F O 0.62322(15) 0.74855(17) 0.3895(2)
O7G O 1.37678(15) 0.74855(17) 1.1105(2)
O8A O 1.18401(14) 0.64100(18) 0.9109(2)
O9A O 0.94367(18) 0.3963(2) 0.7062(3)
O10A O 1.41405(17) 0.6679(2) 0.9796(3)
O11A O 1.40350(15) 0.5690(2) 1.1246(2)
N1A N 1.1592(2) 0.2354(3) 0.8579(4)
N3A N 1.4947(2) 0.7402(3) 0.9645(4)
N4A N 1.4250(2) 0.5463(3) 1.2717(3)
C1A C 1.2507(2) 0.4174(3) 0.8529(3)
C2A C 1.2589(2) 0.4032(2) 0.7756(3)
H1A H 1.2808 0.4407 0.7576
C3A C 1.2354(2) 0.3343(3) 0.7250(3)
C4A C 1.2024(2) 0.2789(3) 0.7517(3)
H2A H 1.1856 0.2324 0.7183
C5A C 1.1948(2) 0.2941(3) 0.8291(3)
C6A C 1.2184(2) 0.3615(3) 0.8804(3)
H3A H 1.2130 0.3697 0.9324
C7A C 1.2744(2) 0.4938(3) 0.9072(3)
C8A C 1.2453(2) 0.3188(3) 0.6416(3)
C10A C 1.0615(2) 0.6373(2) 0.8091(3)
C11A C 1.06174(19) 0.5554(2) 0.8084(3)
H5A H 1.1026 0.5274 0.8464
C13A C 1.1286(2) 0.6804(3) 0.8750(3)
C14A C 1.4383(3) 0.7314(3) 0.9731(4)
H6A H 1.4149 0.7767 0.9743
C15A C 1.5165(4) 0.8156(4) 0.9493(7)
H7A H 1.4853 0.8553 0.9495
H8A H 1.5150 0.8158 0.8900
H9A H 1.5635 0.8262 0.9982
C16A C 1.5352(4) 0.6733(4) 0.9628(6)
H10A H 1.5201 0.6269 0.9811
H11A H 1.5842 0.6822 1.0054
H12A H 1.5280 0.6666 0.9007
C17A C 1.4093(3) 0.5243(3) 1.1879(4)
H13A H 1.4017 0.4711 1.1741
C18A C 1.4352(3) 0.4907(4) 1.3442(5)
H14A H 1.4224 0.4390 1.3178
H15A H 1.4063 0.5053 1.3706
H16A H 1.4837 0.4909 1.3923
C19A C 1.4355(3) 0.6284(3) 1.2988(4)
H17A H 1.4272 0.6601 1.2460
H18A H 1.4830 0.6361 1.3482
H19A H 1.4035 0.6434 1.3201
O12 O 0.5948(2) -0.0702(3) 0.5287(4)
N5 N 0.6552(3) 0.0376(3) 0.6065(4)
C20 C 0.6411(3) -0.0211(4) 0.5475(4)
H20 H 0.6680 -0.0256 0.5182
C21 C 0.7153(4) 0.0884(4) 0.6293(5)
H21 H 0.7450 0.0906 0.6959
H22 H 0.6989 0.1402 0.6056
H23 H 0.7414 0.0678 0.6013
C22 C 0.6173(4) 0.0466(5) 0.6566(6)
H24 H 0.5695 0.0300 0.6177
H25 H 0.6181 0.1007 0.6734
H26 H 0.6390 0.0150 0.7121
loop_
_geom_bond_atom_site_label_1
_geom_bond_atom_site_label_2
_geom_bond_site_symmetry_1
_geom_bond_site_symmetry_2
Nd1 O1 1_555 1_555
O1 C7 1_555 1_555
O2 Nd1 1_555 1_555
O3 C8 1_555 1_555
O4 C8 1_555 1_555
O5 N1 1_555 1_555
O6 N1 1_555 1_555
O7 C13 1_555 1_555
O8 Nd1 1_555 1_555
O9 N2 1_555 1_555
O10 Nd1 1_555 1_555
O11 Nd1 1_555 1_555
N1 C5 1_555 1_555
N2 C12 1_555 1_555
N3 C14 1_555 1_555
N4 C17 1_555 1_555
C1 C2 1_555 1_555
C2 H1 1_555 1_555
C3 C2 1_555 1_555
C4 C3 1_555 1_555
H2 C4 1_555 1_555
C5 C4 1_555 1_555
C6 C1 1_555 1_555
H3 C6 1_555 1_555
C7 O2 1_555 1_555
C8 C3 1_555 1_555
C9 H4 1_555 1_555
C10 C9 1_555 1_555
C11 C10 1_555 1_555
H5 C11 1_555 1_555
C12 C11 1_555 1_555
C13 O8 1_555 1_555
C14 O10 1_555 1_555
H6 C14 1_555 1_555
C15 N3 1_555 1_555
H7 C15 1_555 1_555
H8 C15 1_555 1_555
H9 C15 1_555 1_555
C16 N3 1_555 1_555
H10 C16 1_555 1_555
H11 C16 1_555 1_555
H12 C16 1_555 1_555
C17 O11 1_555 1_555
H13 C17 1_555 1_555
C18 N4 1_555 1_555
H14 C18 1_555 1_555
H15 C18 1_555 1_555
H16 C18 1_555 1_555
C19 N4 1_555 1_555
H17 C19 1_555 1_555
H18 C19 1_555 1_555
H19 C19 1_555 1_555
O12 C20 1_555 1_555
N5 C20 1_555 1_555
C20 H20 1_555 1_555
C21 N5 1_555 1_555
H21 C21 1_555 1_555
H22 C21 1_555 1_555
H23 C21 1_555 1_555
C22 N5 1_555 1_555
H24 C22 1_555 1_555
H25 C22 1_555 1_555
H26 C22 1_555 1_555
Nd1A O1A 1_555 1_555
Nd1B O4A 1_555 1_555
Nd1C O4 1_555 1_555
Nd1D O3A 1_555 1_555
Nd1E O3 1_555 1_555
Nd1F O7 1_555 1_555
Nd1G O7A 1_555 1_555
O1A C7A 1_555 1_555
O2A Nd1A 1_555 1_555
O3A C8A 1_555 1_555
O3D Nd1A 1_555 1_555
O3E Nd1 1_555 1_555
O4A C8A 1_555 1_555
O4B Nd1A 1_555 1_555
O4C Nd1 1_555 1_555
O5A N1A 1_555 1_555
O6A N1A 1_555 1_555
O7A C13A 1_555 1_555
O7F Nd1 1_555 1_555
O7G Nd1A 1_555 1_555
O8A Nd1A 1_555 1_555
O9A N2 1_555 1_555
O10A Nd1A 1_555 1_555
O11A Nd1A 1_555 1_555
N1A C5A 1_555 1_555
N3A C14A 1_555 1_555
N4A C17A 1_555 1_555
C1A C2A 1_555 1_555
C2A H1A 1_555 1_555
C3A C2A 1_555 1_555
C4A C3A 1_555 1_555
H2A C4A 1_555 1_555
C5A C4A 1_555 1_555
C6A C1A 1_555 1_555
H3A C6A 1_555 1_555
C7A O2A 1_555 1_555
C8A C3A 1_555 1_555
C10A C9 1_555 1_555
C11A C12 1_555 1_555
H5A C11A 1_555 1_555
C13A O8A 1_555 1_555
C14A O10A 1_555 1_555
H6A C14A 1_555 1_555
C15A N3A 1_555 1_555
H7A C15A 1_555 1_555
H8A C15A 1_555 1_555
H9A C15A 1_555 1_555
C16A N3A 1_555 1_555
H10A C16A 1_555 1_555
H11A C16A 1_555 1_555
H12A C16A 1_555 1_555
C17A O11A 1_555 1_555
H13A C17A 1_555 1_555
C18A N4A 1_555 1_555
H14A C18A 1_555 1_555
H15A C18A 1_555 1_555
H16A C18A 1_555 1_555
C19A N4A 1_555 1_555
H17A C19A 1_555 1_555
H18A C19A 1_555 1_555
H19A C19A 1_555 1_555
C1 C7 1_555 1_555
C5 C6 1_555 1_555
C10 C13 1_555 1_555
C1A C7A 1_555 1_555
C5A C6A 1_555 1_555
C10A C11A 1_555 1_555
C10A C13A 1_555 1_555

#END
