
#######################################################################
#
#                 Cambridge Crystallographic Data Centre
#                                CCDC 
#
#######################################################################
#
# If this CIF has been generated from an entry in the Cambridge 
# Structural Database, then it will include bibliographic, chemical, 
# crystal, experimental, refinement or atomic coordinate data resulting 
# from the CCDC's data processing and validation procedures.
#
#######################################################################

data_XUMVAD
_symmetry_cell_setting           monoclinic
_symmetry_space_group_name_H-M   'C 2/c'
_symmetry_Int_Tables_number      15
_space_group_name_Hall           '-C 2yn'
loop_
_symmetry_equiv_pos_site_id
_symmetry_equiv_pos_as_xyz
1 x,y,z
2 -x,y,1/2-z
3 1/2+x,1/2+y,z
4 1/2-x,1/2+y,1/2-z
5 -x,-y,-z
6 x,-y,1/2+z
7 1/2-x,1/2-y,-z
8 1/2+x,1/2-y,1/2+z
_cell_length_a                   21.746(3)
_cell_length_b                   16.682(2)
_cell_length_c                   16.2156(19)
_cell_angle_alpha                90
_cell_angle_beta                 120.009(2)
_cell_angle_gamma                90
_cell_volume                     5093.92
loop_
_atom_site_label
_atom_site_type_symbol
_atom_site_fract_x
_atom_site_fract_y
_atom_site_fract_z
N1 N 0.8520(6) 0.0380(7) 0.8972(7)
O1 O 0.9104(6) -0.0720(9) 0.9717(8)
C1 C 0.8618(8) -0.0220(10) 0.9548(9)
H1 H 0.8336 -0.0277 0.9827
C2 C 0.7943(9) 0.0882(9) 0.8750(11)
H2 H 0.7676 0.0670 0.9027
H3 H 0.7643 0.0912 0.8071
H4 H 0.8112 0.1408 0.9000
C3 C 0.8917(11) 0.0495(15) 0.8537(13)
H5 H 0.9164 0.0008 0.8569
H6 H 0.9255 0.0916 0.8857
H7 H 0.8610 0.0640 0.7883
Dy1 Dy 0.691182(12) 0.145806(15) 0.497776(17)
O2 O 0.7241(3) 0.0042(3) 0.5147(3)
O3 O 0.7058(3) 0.0567(3) 0.6250(3)
O4 O 0.7215(2) -0.1317(3) 0.8780(3)
O5 O 0.7786(3) -0.2479(3) 0.9009(3)
O6 O 0.8358(3) -0.2531(4) 0.5614(5)
O7 O 0.8637(6) -0.3223(5) 0.6861(7)
O8 O 0.8139(2) 0.1397(3) 0.5866(3)
O9 O 0.8745(2) 0.2532(3) 0.6112(3)
O10 O 0.5969(3) 0.0726(4) 0.3750(5)
O11 O 0.5864(4) 0.1617(5) 0.5111(6)
C4 C 0.7227(3) -0.0009(4) 0.5905(4)
C5 C 0.7471(3) -0.0788(4) 0.6452(4)
C6 C 0.7393(3) -0.0946(3) 0.7242(4)
H8 H 0.7186 -0.0564 0.7443
C7 C 0.7622(3) -0.1666(4) 0.7732(4)
C8 C 0.7943(3) -0.2228(4) 0.7443(5)
H9 H 0.8105 -0.2710 0.7768
C9 C 0.8018(4) -0.2061(4) 0.6667(5)
C10 C 0.7779(4) -0.1356(4) 0.6159(5)
H10 H 0.7825 -0.1267 0.5626
C11 C 0.7537(3) -0.1827(4) 0.8578(4)
C12 C 0.8700(3) 0.1805(4) 0.6242(4)
C13 C 1.0000 0.1773(5) 0.7500
H11 H 1.0000 0.2331 0.7500
C14 C 0.9376(3) 0.1364(3) 0.6899(4)
C15 C 0.9376(3) 0.0533(4) 0.6918(4)
H12 H 0.8960 0.0248 0.6543
C16 C 1.0000 0.0137(5) 0.7500
C17 C 0.5932(6) 0.0223(6) 0.3124(7)
H13 H 0.6081 -0.0302 0.3314
C18 C 0.5624(10) 0.1283(11) 0.1845(19)
H14 H 0.5762 0.1673 0.2343
H15 H 0.5137 0.1371 0.1366
H16 H 0.5921 0.1334 0.1567
C19 C 0.5598(10) -0.0232(12) 0.1566(13)
H17 H 0.5629 -0.0750 0.1844
H18 H 0.5958 -0.0188 0.1391
H19 H 0.5139 -0.0170 0.1010
C20 C 0.5613(5) 0.2223(8) 0.5292(7)
H20 H 0.5854 0.2699 0.5349
C21 C 0.4646(13) 0.1626(13) 0.529(2)
H21 H 0.4319 0.1548 0.4624
H22 H 0.4387 0.1713 0.5618
H23 H 0.4940 0.1160 0.5545
C22 C 0.4891(11) 0.3056(14) 0.566(2)
H24 H 0.5284 0.3419 0.5867
H25 H 0.4792 0.2980 0.6173
H26 H 0.4480 0.3275 0.5121
O12 O 1.0562(3) -0.1082(3) 0.7973(6)
N2 N 0.8367(4) -0.2643(4) 0.6348(6)
N3 N 1.0000 -0.0742(5) 0.7500
N4 N 0.5707(7) 0.0408(8) 0.2276(8)
N5 N 0.5070(5) 0.2290(8) 0.5412(9)
Dy1A Dy 1.308818(12) 0.145806(15) 1.002224(17)
Dy1B Dy 1.191182(12) -0.354194(15) 0.497776(17)
Dy1C Dy 0.808818(12) -0.354194(15) 1.002224(17)
Dy1D Dy 1.308818(12) -0.145806(15) 0.502224(17)
Dy1E Dy 0.691182(12) -0.145806(15) 0.997776(17)
Dy1F Dy 0.808818(12) 0.354194(15) 0.502224(17)
Dy1G Dy 1.191182(12) 0.354194(15) 0.997776(17)
O2A O 1.2759(3) 0.0042(3) 0.9853(3)
O3A O 1.2942(3) 0.0567(3) 0.8750(3)
O4A O 1.2785(2) -0.1317(3) 0.6220(3)
O4D O 1.2785(2) 0.1317(3) 1.1220(3)
O4E O 0.7215(2) 0.1317(3) 0.3780(3)
O5A O 1.2214(3) -0.2479(3) 0.5991(3)
O5B O 1.2786(3) 0.2521(3) 0.9009(3)
O5C O 0.7214(3) 0.2521(3) 0.5991(3)
O6A O 1.1642(3) -0.2531(4) 0.9386(5)
O7A O 1.1363(6) -0.3223(5) 0.8139(7)
O8A O 1.1861(2) 0.1397(3) 0.9134(3)
O9A O 1.1255(2) 0.2532(3) 0.8888(3)
O9F O 0.6255(2) 0.2468(3) 0.3888(3)
O9G O 1.3745(2) 0.2468(3) 1.1112(3)
O10A O 1.4031(3) 0.0726(4) 1.1250(5)
O11A O 1.4136(4) 0.1617(5) 0.9889(6)
C4A C 1.2773(3) -0.0009(4) 0.9095(4)
C5A C 1.2529(3) -0.0788(4) 0.8548(4)
C6A C 1.2607(3) -0.0946(3) 0.7758(4)
H8A H 1.2814 -0.0564 0.7557
C7A C 1.2378(3) -0.1666(4) 0.7268(4)
C8A C 1.2057(3) -0.2228(4) 0.7557(5)
H9A H 1.1895 -0.2710 0.7232
C9A C 1.1982(4) -0.2061(4) 0.8333(5)
C10A C 1.2221(4) -0.1356(4) 0.8841(5)
H10A H 1.2175 -0.1267 0.9374
C11A C 1.2463(3) -0.1827(4) 0.6422(4)
C12A C 1.1300(3) 0.1805(4) 0.8758(4)
C14A C 1.0624(3) 0.1364(3) 0.8101(4)
C15A C 1.0624(3) 0.0533(4) 0.8082(4)
H12A H 1.1040 0.0248 0.8457
C17A C 1.4068(6) 0.0223(6) 1.1876(7)
H13A H 1.3919 -0.0302 1.1686
C18A C 1.4376(10) 0.1283(11) 1.3155(19)
H14A H 1.4238 0.1673 1.2657
H15A H 1.4863 0.1371 1.3634
H16A H 1.4079 0.1334 1.3433
C19A C 1.4402(10) -0.0232(12) 1.3434(13)
H17A H 1.4371 -0.0750 1.3156
H18A H 1.4042 -0.0188 1.3609
H19A H 1.4861 -0.0170 1.3990
C20A C 1.4387(5) 0.2223(8) 0.9708(7)
H20A H 1.4146 0.2699 0.9651
C21A C 1.5354(13) 0.1626(13) 0.971(2)
H21A H 1.5681 0.1548 1.0376
H22A H 1.5613 0.1713 0.9382
H23A H 1.5060 0.1160 0.9455
C22A C 1.5109(11) 0.3056(14) 0.934(2)
H24A H 1.4716 0.3419 0.9133
H25A H 1.5208 0.2980 0.8827
H26A H 1.5520 0.3275 0.9879
O12A O 0.9438(3) -0.1082(3) 0.7027(6)
N2A N 1.1633(4) -0.2643(4) 0.8652(6)
N4A N 1.4293(7) 0.0408(8) 1.2724(8)
N5A N 1.4930(5) 0.2290(8) 0.9588(9)
loop_
_geom_bond_atom_site_label_1
_geom_bond_atom_site_label_2
_geom_bond_site_symmetry_1
_geom_bond_site_symmetry_2
N1 C1 1_555 1_555
O1 C1 1_555 1_555
C1 H1 1_555 1_555
C2 N1 1_555 1_555
H2 C2 1_555 1_555
H3 C2 1_555 1_555
H4 C2 1_555 1_555
C3 N1 1_555 1_555
H5 C3 1_555 1_555
H6 C3 1_555 1_555
H7 C3 1_555 1_555
Dy1 O2 1_555 1_555
O2 C4 1_555 1_555
O3 Dy1 1_555 1_555
O4 C11 1_555 1_555
O5 C11 1_555 1_555
O6 N2 1_555 1_555
O7 N2 1_555 1_555
O8 Dy1 1_555 1_555
O9 C12 1_555 1_555
O10 Dy1 1_555 1_555
O11 Dy1 1_555 1_555
C4 O3 1_555 1_555
C5 C4 1_555 1_555
C6 C5 1_555 1_555
H8 C6 1_555 1_555
C7 C6 1_555 1_555
C8 C7 1_555 1_555
H9 C8 1_555 1_555
C9 C8 1_555 1_555
C10 C5 1_555 1_555
H10 C10 1_555 1_555
C11 C7 1_555 1_555
C12 O8 1_555 1_555
C13 H11 1_555 1_555
C14 C12 1_555 1_555
C15 C14 1_555 1_555
H12 C15 1_555 1_555
C16 C15 1_555 1_555
C17 O10 1_555 1_555
H13 C17 1_555 1_555
C18 H14 1_555 1_555
H15 C18 1_555 1_555
H16 C18 1_555 1_555
C19 H17 1_555 1_555
H18 C19 1_555 1_555
H19 C19 1_555 1_555
C20 O11 1_555 1_555
H20 C20 1_555 1_555
C21 H21 1_555 1_555
H22 C21 1_555 1_555
H23 C21 1_555 1_555
C22 H24 1_555 1_555
H25 C22 1_555 1_555
H26 C22 1_555 1_555
O12 N3 1_555 1_555
N2 C9 1_555 1_555
N3 C16 1_555 1_555
N4 C17 1_555 1_555
N5 C20 1_555 1_555
Dy1A O2A 1_555 1_555
Dy1B O5A 1_555 1_555
Dy1C O5 1_555 1_555
Dy1D O4A 1_555 1_555
Dy1E O4 1_555 1_555
Dy1F O9 1_555 1_555
Dy1G O9A 1_555 1_555
O2A C4A 1_555 1_555
O3A Dy1A 1_555 1_555
O4A C11A 1_555 1_555
O4D Dy1A 1_555 1_555
O4E Dy1 1_555 1_555
O5A C11A 1_555 1_555
O5B Dy1A 1_555 1_555
O5C Dy1 1_555 1_555
O6A N2A 1_555 1_555
O7A N2A 1_555 1_555
O8A Dy1A 1_555 1_555
O9A C12A 1_555 1_555
O9F Dy1 1_555 1_555
O9G Dy1A 1_555 1_555
O10A Dy1A 1_555 1_555
O11A Dy1A 1_555 1_555
C4A O3A 1_555 1_555
C5A C4A 1_555 1_555
C6A C5A 1_555 1_555
H8A C6A 1_555 1_555
C7A C6A 1_555 1_555
C8A C7A 1_555 1_555
H9A C8A 1_555 1_555
C9A C8A 1_555 1_555
C10A C5A 1_555 1_555
H10A C10A 1_555 1_555
C11A C7A 1_555 1_555
C12A O8A 1_555 1_555
C14A C13 1_555 1_555
C15A C16 1_555 1_555
H12A C15A 1_555 1_555
C17A O10A 1_555 1_555
H13A C17A 1_555 1_555
C18A H14A 1_555 1_555
H15A C18A 1_555 1_555
H16A C18A 1_555 1_555
C19A H17A 1_555 1_555
H18A C19A 1_555 1_555
H19A C19A 1_555 1_555
C20A O11A 1_555 1_555
H20A C20A 1_555 1_555
C21A H21A 1_555 1_555
H22A C21A 1_555 1_555
H23A C21A 1_555 1_555
C22A H24A 1_555 1_555
H25A C22A 1_555 1_555
H26A C22A 1_555 1_555
O12A N3 1_555 1_555
N2A C9A 1_555 1_555
N4A C17A 1_555 1_555
N5A C20A 1_555 1_555
C9 C10 1_555 1_555
C13 C14 1_555 1_555
C18 N4 1_555 1_555
C19 N4 1_555 1_555
C21 N5 1_555 1_555
C22 N5 1_555 1_555
C9A C10A 1_555 1_555
C12A C14A 1_555 1_555
C14A C15A 1_555 1_555
C18A N4A 1_555 1_555
C19A N4A 1_555 1_555
C21A N5A 1_555 1_555
C22A N5A 1_555 1_555

#END
