
#######################################################################
#
#                 Cambridge Crystallographic Data Centre
#                                CCDC 
#
#######################################################################
#
# If this CIF has been generated from an entry in the Cambridge 
# Structural Database, then it will include bibliographic, chemical, 
# crystal, experimental, refinement or atomic coordinate data resulting 
# from the CCDC's data processing and validation procedures.
#
#######################################################################

data_XUMVAE
_symmetry_cell_setting           triclinic
_symmetry_space_group_name_H-M   'P -1'
_symmetry_Int_Tables_number      2
_space_group_name_Hall           '-P 1'
loop_
_symmetry_equiv_pos_site_id
_symmetry_equiv_pos_as_xyz
1 x,y,z
2 -x,-y,-z
_cell_length_a                   6.1351(6)
_cell_length_b                   6.3115(6)
_cell_length_c                   9.1906(9)
_cell_angle_alpha                95.537(2)
_cell_angle_beta                 96.302(2)
_cell_angle_gamma                116.231(2)
_cell_volume                     313.074
loop_
_atom_site_label
_atom_site_type_symbol
_atom_site_fract_x
_atom_site_fract_y
_atom_site_fract_z
Na1 Na 0.75845(10) 0.48378(10) 0.10361(6)
O1 O 0.46859(18) 0.13448(17) 0.19213(10)
O2 O 0.17883(18) 0.18909(18) 0.29253(11)
O3 O 1.13068(17) 0.33943(17) 0.54283(11)
H1 H 1.124(5) 0.275(5) 0.445(3)
O4 O 0.89429(18) 0.34696(17) 0.70404(10)
O5 O 0.9496(2) 0.23442(18) 0.02561(12)
H2 H 1.006(4) 0.202(4) 0.104(2)
H3 H 0.848(4) 0.106(4) -0.024(2)
O6 O 0.5001(2) 0.6812(2) 0.14023(11)
H4 H 0.398(5) 0.637(4) 0.194(3)
H5 H 0.536(4) 0.827(5) 0.149(2)
C1 C 0.3711(2) 0.1560(2) 0.30052(15)
C2 C 0.4739(2) 0.1421(2) 0.45583(14)
H6 H 0.5151 0.2924 0.5245
C3 C 0.6922(2) 0.0810(2) 0.47562(14)
H7 H 0.7338 0.0359 0.3790
C4 C 0.9144(2) 0.2667(2) 0.58221(14)
O1A O 0.53141(18) -0.13448(17) 0.80787(10)
O2A O 0.82117(18) -0.18909(18) 0.70747(11)
O3A O -0.13068(17) -0.33943(17) 0.45717(11)
H1A H -0.124(5) -0.275(5) 0.555(3)
O4A O 0.10571(18) -0.34696(17) 0.29596(10)
C1A C 0.6289(2) -0.1560(2) 0.69948(15)
C2A C 0.5261(2) -0.1421(2) 0.54417(14)
H6A H 0.4849 -0.2924 0.4755
C3A C 0.3078(2) -0.0810(2) 0.52438(14)
H7A H 0.2662 -0.0359 0.6210
C4A C 0.0856(2) -0.2667(2) 0.41779(14)
Na1A Na 0.24155(10) -0.48378(10) 0.89639(6)
O5A O 0.0504(2) -0.23442(18) 0.97439(12)
H2A H -0.006(4) -0.202(4) 0.896(2)
H3A H 0.152(4) -0.106(4) 1.024(2)
O6A O 0.4999(2) -0.6812(2) 0.85977(11)
H4A H 0.602(5) -0.637(4) 0.806(3)
H5A H 0.464(4) -0.827(5) 0.851(2)
Na1_2 Na -0.24155(10) -0.51622(10) 0.10361(6)
Na1_3 Na -0.24155(10) -0.51622(10) 1.10361(6)
Na1_4 Na 0.75845(10) -0.51622(10) 1.10361(6)
Na1A_2 Na 0.24155(10) 0.51622(10) -0.10361(6)
Na1A_3 Na 1.24155(10) 0.51622(10) -0.10361(6)
Na1A_4 Na 1.24155(10) 0.51622(10) 0.89639(6)
O4_2 O -0.10571(18) -0.65304(17) 0.70404(10)
O4A_2 O 1.10571(18) 0.65304(17) 0.29596(10)
O5_2 O -0.0504(2) -0.76558(18) 1.02561(12)
O5A_2 O 1.0504(2) 0.76558(18) -0.02561(12)
O6_2 O 0.5001(2) -0.3188(2) 1.14023(11)
O6A_2 O 0.4999(2) 0.3188(2) -0.14023(11)
loop_
_geom_bond_atom_site_label_1
_geom_bond_atom_site_label_2
_geom_bond_site_symmetry_1
_geom_bond_site_symmetry_2
Na1 O1 1_555 1_555
O1 C1 1_555 1_555
O2 C1 1_555 1_555
O3 H1 1_555 1_555
O4 C4 1_555 1_555
O5 Na1 1_555 1_555
H2 O5 1_555 1_555
H3 O5 1_555 1_555
O6 Na1 1_555 1_555
H4 O6 1_555 1_555
H5 O6 1_555 1_555
C1 C2 1_555 1_555
C2 H6 1_555 1_555
C3 C2 1_555 1_555
H7 C3 1_555 1_555
C4 O3 1_555 1_555
O1A C1A 1_555 1_555
O2A C1A 1_555 1_555
O3A H1A 1_555 1_555
O4A C4A 1_555 1_555
C1A C2A 1_555 1_555
C2A C3 1_555 1_555
H6A C2A 1_555 1_555
C3A C2 1_555 1_555
H7A C3A 1_555 1_555
C4A O3A 1_555 1_555
Na1A O1A 1_555 1_555
O5A Na1A 1_555 1_555
H2A O5A 1_555 1_555
H3A O5A 1_555 1_555
O6A Na1A 1_555 1_555
H4A O6A 1_555 1_555
H5A O6A 1_555 1_555
Na1_2 O4A 1_555 1_555
Na1_3 O5A 1_555 1_555
Na1_4 O6A 1_555 1_555
Na1A_2 O6 1_555 1_555
Na1A_3 O5 1_555 1_555
Na1A_4 O4 1_555 1_555
O4_2 Na1A 1_555 1_555
O4A_2 Na1 1_555 1_555
O5_2 Na1A 1_555 1_555
O5A_2 Na1 1_555 1_555
O6_2 Na1A 1_555 1_555
O6A_2 Na1 1_555 1_555
C3 C4 1_555 1_555
C2A C3A 1_555 1_555
C3A C4A 1_555 1_555
Na1_3 O5_2 1_555 1_555
Na1_4 O6_2 1_555 1_555
Na1A_2 O6A_2 1_555 1_555
Na1A_3 O5A_2 1_555 1_555

#END
