
#######################################################################
#
#                 Cambridge Crystallographic Data Centre
#                                CCDC 
#
#######################################################################
#
# If this CIF has been generated from an entry in the Cambridge 
# Structural Database, then it will include bibliographic, chemical, 
# crystal, experimental, refinement or atomic coordinate data resulting 
# from the CCDC's data processing and validation procedures.
#
#######################################################################

data_XUMVIM
_symmetry_cell_setting           monoclinic
_symmetry_space_group_name_H-M   'P 21/n'
_symmetry_Int_Tables_number      14
_space_group_name_Hall           '-P 2yn'
loop_
_symmetry_equiv_pos_site_id
_symmetry_equiv_pos_as_xyz
1 x,y,z
2 1/2-x,1/2+y,1/2-z
3 -x,-y,-z
4 1/2+x,1/2-y,1/2+z
_cell_length_a                   6.2679(5)
_cell_length_b                   15.3935(11)
_cell_length_c                   6.3897(5)
_cell_angle_alpha                90
_cell_angle_beta                 105.5000(10)
_cell_angle_gamma                90
_cell_volume                     594.088
loop_
_atom_site_label
_atom_site_type_symbol
_atom_site_fract_x
_atom_site_fract_y
_atom_site_fract_z
K1 K 0.95162(5) 0.29376(2) -0.04335(5)
O1 O 0.82588(18) 0.42230(7) 0.21870(17)
H1 H 0.791(3) 0.4674(8) 0.149(3)
O2 O 0.85147(18) 0.36203(7) 0.53910(17)
O3 O 0.65909(18) 0.64634(7) 0.73946(17)
O4 O 0.74104(18) 0.56198(7) 1.02877(17)
O5 O 0.9856(2) 0.21427(7) 0.34430(19)
H2 H 0.967(3) 0.2500(9) 0.434(2)
H3 H 0.906(3) 0.1749(9) 0.364(3)
C1 C 0.7868(2) 0.42144(9) 0.4097(2)
C2 C 0.6589(2) 0.49851(9) 0.4599(2)
H4 H 0.7380 0.5539 0.4479
C3 C 0.5914(2) 0.49575(9) 0.6758(2)
H5 H 0.6284 0.4391 0.7538
C4 C 0.6703(2) 0.57341(9) 0.8221(2)
O1B O 0.17412(18) 0.57770(7) 0.78130(17)
H1B H 0.209(3) 0.5326(8) 0.851(3)
O2B O 0.14853(18) 0.63797(7) 0.46090(17)
O3B O 0.34091(18) 0.35366(7) 0.26054(17)
O4B O 0.25896(18) 0.43802(7) -0.02877(17)
C1B C 0.2132(2) 0.57856(9) 0.5903(2)
C2B C 0.3411(2) 0.50149(9) 0.5401(2)
H4B H 0.2620 0.4461 0.5521
C3B C 0.4086(2) 0.50425(9) 0.3242(2)
H5B H 0.3716 0.5609 0.2462
C4B C 0.3297(2) 0.42659(9) 0.1779(2)
K1B K 0.04838(5) 0.70624(2) 0.04335(5)
O5B O 0.0144(2) 0.78573(7) -0.34430(19)
H2B H 0.033(3) 0.7500(9) -0.434(2)
H3B H 0.094(3) 0.8251(9) -0.364(3)
K1_2 K -0.04838(5) 0.29376(2) -0.04335(5)
K1_3 K 0.95162(5) 0.29376(2) 0.95665(5)
K1A K -0.45162(5) 0.79376(2) -0.45665(5)
K1A_2 K 0.54838(5) 0.79376(2) 0.54335(5)
K1B_2 K 0.04838(5) 0.70624(2) 1.04335(5)
K1B_3 K 1.04838(5) 0.70624(2) 1.04335(5)
K1C K 0.45162(5) 0.20624(2) 0.45665(5)
K1C_2 K 1.45162(5) 0.20624(2) 0.45665(5)
O1B_2 O 0.17412(18) 0.57770(7) -0.21870(17)
O2_2 O 0.85147(18) 0.36203(7) -0.46090(17)
O3_2 O -0.34091(18) 0.64634(7) -0.26054(17)
O3A O 0.84091(18) 0.14634(7) -0.23946(17)
O3B_2 O 1.34091(18) 0.35366(7) 0.26054(17)
O3C O 0.15909(18) 0.85366(7) 0.23946(17)
O4_2 O -0.25896(18) 0.56198(7) 0.02877(17)
O4B_2 O 1.25896(18) 0.43802(7) -0.02877(17)
O5A O 0.5144(2) 0.71427(7) 0.15570(19)
O5C O 0.4856(2) 0.28573(7) -0.15570(19)
loop_
_geom_bond_atom_site_label_1
_geom_bond_atom_site_label_2
_geom_bond_site_symmetry_1
_geom_bond_site_symmetry_2
K1 O1 1_555 1_555
O1 H1 1_555 1_555
O2 C1 1_555 1_555
O3 C4 1_555 1_555
O4 C4 1_555 1_555
O5 K1 1_555 1_555
H2 O5 1_555 1_555
H3 O5 1_555 1_555
C1 O1 1_555 1_555
C2 C1 1_555 1_555
H4 C2 1_555 1_555
C3 C2 1_555 1_555
H5 C3 1_555 1_555
C4 C3 1_555 1_555
O1B H1B 1_555 1_555
O2B C1B 1_555 1_555
O3B C4B 1_555 1_555
O4B C4B 1_555 1_555
C1B O1B 1_555 1_555
C2B C3 1_555 1_555
H4B C2B 1_555 1_555
C3B C2 1_555 1_555
H5B C3B 1_555 1_555
C4B C3B 1_555 1_555
K1B O2B 1_555 1_555
O5B K1B 1_555 1_555
H2B O5B 1_555 1_555
H3B O5B 1_555 1_555
K1_2 O3B 1_555 1_555
K1_3 O2 1_555 1_555
K1A O5B 1_555 1_555
K1A_2 O3 1_555 1_555
K1B_2 O1B 1_555 1_555
K1B_3 O3 1_555 1_555
K1C O3B 1_555 1_555
K1C_2 O5 1_555 1_555
O1B_2 K1B 1_555 1_555
O2_2 K1 1_555 1_555
O3_2 K1B 1_555 1_555
O3A K1 1_555 1_555
O3B_2 K1 1_555 1_555
O3C K1B 1_555 1_555
O4_2 K1B 1_555 1_555
O4B_2 K1 1_555 1_555
O5A K1B 1_555 1_555
O5C K1 1_555 1_555
O4 K1B_3 1_555 1_555
O4B K1_2 1_555 1_555
C1B C2B 1_555 1_555
C2B C3B 1_555 1_555
K1A O3_2 1_555 1_555
K1A_2 O3C 1_555 1_555
K1A_2 O5A 1_555 1_555
K1C_2 O3B_2 1_555 1_555

#END
