
#######################################################################
#
#                 Cambridge Crystallographic Data Centre
#                                CCDC 
#
#######################################################################
#
# If this CIF has been generated from an entry in the Cambridge 
# Structural Database, then it will include bibliographic, chemical, 
# crystal, experimental, refinement or atomic coordinate data resulting 
# from the CCDC's data processing and validation procedures.
#
#######################################################################

data_XUMVAE01
_symmetry_cell_setting           triclinic
_symmetry_space_group_name_H-M   'P -1'
_symmetry_Int_Tables_number      2
_space_group_name_Hall           '-P 1'
loop_
_symmetry_equiv_pos_site_id
_symmetry_equiv_pos_as_xyz
1 x,y,z
2 -x,-y,-z
_cell_length_a                   6.1285(4)
_cell_length_b                   7.7676(5)
_cell_length_c                   8.0964(6)
_cell_angle_alpha                115.7000(10)
_cell_angle_beta                 101.3160(10)
_cell_angle_gamma                103.0080(10)
_cell_volume                     318.867
loop_
_atom_site_label
_atom_site_type_symbol
_atom_site_fract_x
_atom_site_fract_y
_atom_site_fract_z
Na1 Na 0.47960(8) 0.73500(7) 0.66308(7)
O1 O 0.25644(15) 0.91549(13) 1.16618(12)
O2 O 0.19866(15) 0.84471(13) 0.85864(12)
H1 H 0.248(3) 0.9756(14) 0.913(2)
O3 O 0.30772(15) 0.22317(13) 1.03593(12)
O4 O 0.25886(16) 0.24737(13) 0.76736(13)
O5 O 0.75067(16) 0.62389(13) 0.50116(13)
H2 H 0.764(3) 0.662(2) 0.419(2)
H3 H 0.884(2) 0.686(2) 0.589(2)
O6 O 0.26217(16) 0.86215(14) 0.50567(13)
H4 H 0.264(3) 0.9748(18) 0.591(2)
H5 H 0.255(3) 0.871(3) 0.4050(18)
C1 C 0.1821(2) 0.79237(17) 0.99175(17)
C2 C 0.0598(2) 0.56843(17) 0.91327(16)
H6 H 0.0343 0.4844 0.7716
C3 C 0.1724(2) 0.48310(17) 1.03543(17)
H7 H 0.3053 0.5960 1.1547
C4 C 0.25149(19) 0.30467(17) 0.93404(17)
O1A O -0.25644(15) 0.08451(13) 0.83382(12)
O2A O -0.19866(15) 0.15529(13) 1.14136(12)
H1A H -0.248(3) 0.0244(14) 1.087(2)
O3A O -0.30772(15) 0.77683(13) 0.96407(12)
O4A O -0.25886(16) 0.75263(13) 1.23264(13)
C1A C -0.1821(2) 0.20763(17) 1.00825(17)
C2A C -0.0598(2) 0.43157(17) 1.08673(16)
H6A H -0.0343 0.5156 1.2284
C3A C -0.1724(2) 0.51690(17) 0.96457(17)
H7A H -0.3053 0.4040 0.8453
C4A C -0.25149(19) 0.69533(17) 1.06596(17)
Na1A Na -0.47960(8) 0.26500(7) 1.33692(7)
O5A O -0.75067(16) 0.37611(13) 1.49884(13)
H2A H -0.764(3) 0.338(2) 1.581(2)
H3A H -0.884(2) 0.314(2) 1.411(2)
O6A O -0.26217(16) 0.13785(14) 1.49433(13)
H4A H -0.264(3) 0.0252(18) 1.409(2)
H5A H -0.255(3) 0.129(3) 1.5950(18)
Na1_2 Na -0.52040(8) -0.26500(7) 0.66308(7)
Na1_3 Na -0.52040(8) 0.73500(7) 0.66308(7)
Na1_4 Na -0.52040(8) 0.73500(7) 1.66308(7)
Na1A_2 Na 0.52040(8) 0.26500(7) 0.33692(7)
Na1A_3 Na 0.52040(8) 0.26500(7) 1.33692(7)
Na1A_4 Na 0.52040(8) 1.26500(7) 1.33692(7)
O1_2 O -0.74356(15) -0.08451(13) 1.16618(12)
O1A_2 O 0.74356(15) 1.08451(13) 0.83382(12)
O3_2 O -0.69228(15) 0.22317(13) 1.03593(12)
O3A_2 O 0.69228(15) 0.77683(13) 0.96407(12)
O5_2 O -0.24933(16) 0.62389(13) 1.50116(13)
O5A_2 O 0.24933(16) 0.37611(13) 0.49884(13)
loop_
_geom_bond_atom_site_label_1
_geom_bond_atom_site_label_2
_geom_bond_site_symmetry_1
_geom_bond_site_symmetry_2
Na1 O2 1_555 1_555
O1 C1 1_555 1_555
O2 H1 1_555 1_555
O3 C4 1_555 1_555
O4 C4 1_555 1_555
O5 Na1 1_555 1_555
H2 O5 1_555 1_555
H3 O5 1_555 1_555
O6 Na1 1_555 1_555
H4 O6 1_555 1_555
H5 O6 1_555 1_555
C1 O2 1_555 1_555
C2 C1 1_555 1_555
H6 C2 1_555 1_555
C3 C2 1_555 1_555
H7 C3 1_555 1_555
C4 C3 1_555 1_555
O1A C1A 1_555 1_555
O2A H1A 1_555 1_555
O3A C4A 1_555 1_555
O4A C4A 1_555 1_555
C1A O2A 1_555 1_555
C2A C3 1_555 1_555
H6A C2A 1_555 1_555
C3A C2 1_555 1_555
H7A C3A 1_555 1_555
C4A C3A 1_555 1_555
Na1A O2A 1_555 1_555
O5A Na1A 1_555 1_555
H2A O5A 1_555 1_555
H3A O5A 1_555 1_555
O6A Na1A 1_555 1_555
H4A O6A 1_555 1_555
H5A O6A 1_555 1_555
Na1_2 O1A 1_555 1_555
Na1_3 O3A 1_555 1_555
Na1_4 O5A 1_555 1_555
Na1A_2 O5 1_555 1_555
Na1A_3 O3 1_555 1_555
Na1A_4 O1 1_555 1_555
O1_2 Na1A 1_555 1_555
O1A_2 Na1 1_555 1_555
O3_2 Na1A 1_555 1_555
O3A_2 Na1 1_555 1_555
O5_2 Na1A 1_555 1_555
O5A_2 Na1 1_555 1_555
C1A C2A 1_555 1_555
C2A C3A 1_555 1_555
Na1_4 O5_2 1_555 1_555
Na1A_2 O5A_2 1_555 1_555

#END
