
#######################################################################
#
#                 Cambridge Crystallographic Data Centre
#                                CCDC 
#
#######################################################################
#
# If this CIF has been generated from an entry in the Cambridge 
# Structural Database, then it will include bibliographic, chemical, 
# crystal, experimental, refinement or atomic coordinate data resulting 
# from the CCDC's data processing and validation procedures.
#
#######################################################################

data_XUMVOS
_symmetry_cell_setting           triclinic
_symmetry_space_group_name_H-M   'P -1'
_symmetry_Int_Tables_number      2
_space_group_name_Hall           '-P 1'
loop_
_symmetry_equiv_pos_site_id
_symmetry_equiv_pos_as_xyz
1 x,y,z
2 -x,-y,-z
_cell_length_a                   6.4190(5)
_cell_length_b                   7.9361(6)
_cell_length_c                   8.9110(7)
_cell_angle_alpha                103.7570(10)
_cell_angle_beta                 104.1370(10)
_cell_angle_gamma                106.9450(10)
_cell_volume                     397.036
loop_
_atom_site_label
_atom_site_type_symbol
_atom_site_fract_x
_atom_site_fract_y
_atom_site_fract_z
Ba1 Ba 0.151182(19) 0.270662(15) 0.427496(13)
O1 O 0.1647(3) 0.5782(2) 0.68498(19)
O2 O 0.1980(3) 0.3399(2) 0.76488(19)
O3 O 0.3830(3) 0.5793(2) 1.36247(19)
O4 O 0.3721(3) 0.8102(2) 1.26313(19)
C1 C 0.1631(4) 0.4895(3) 0.7873(3)
C2 C 0.1085(4) 0.5720(3) 0.9377(3)
H1 H 0.1797 0.7115 0.9773
C3 C 0.3188(4) 0.6393(3) 1.2469(2)
C4 C 0.1580(4) 0.4964(3) 1.0820(2)
H2 H 0.2078 0.3883 1.0529
O5 O 0.2177(3) -0.0411(2) 0.50826(19)
H3 H 0.261(5) -0.092(4) 0.435(3)
H4 H 0.344(4) 0.015(4) 0.582(3)
O6 O 0.3826(3) 0.1457(2) 0.2104(2)
H5 H 0.387(5) 0.043(3) 0.207(4)
H6 H 0.520(3) 0.209(4) 0.238(4)
O7 O -0.1544(3) -0.0255(2) 0.1468(2)
H7 H -0.217(7) -0.063(5) 0.044(2)
H8 H -0.181(7) -0.132(3) 0.155(4)
O1A O -0.1647(3) 0.4218(2) 1.31502(19)
O2A O -0.1980(3) 0.6601(2) 1.23512(19)
C1A C -0.1631(4) 0.5105(3) 1.2127(3)
C2A C -0.1085(4) 0.4280(3) 1.0623(3)
H1A H -0.1797 0.2885 1.0227
O3A O -0.3830(3) 0.4207(2) 0.63753(19)
O4A O -0.3721(3) 0.1898(2) 0.73687(19)
C3A C -0.3188(4) 0.3607(3) 0.7531(2)
C4A C -0.1580(4) 0.5036(3) 0.9180(2)
H2A H -0.2078 0.6117 0.9471
Ba1A Ba -0.151182(19) -0.270662(15) 0.572504(13)
O5A O -0.2177(3) 0.0411(2) 0.49174(19)
H3A H -0.261(5) 0.092(4) 0.565(3)
H4A H -0.344(4) -0.015(4) 0.418(3)
O6A O -0.3826(3) -0.1457(2) 0.7896(2)
H5A H -0.387(5) -0.043(3) 0.793(4)
H6A H -0.520(3) -0.209(4) 0.762(4)
O7A O 0.1544(3) 0.0255(2) 0.8532(2)
H7A H 0.217(7) 0.063(5) 0.956(2)
H8A H 0.181(7) 0.132(3) 0.845(4)
Ba1_2 Ba -0.848818(19) 0.270662(15) 0.427496(13)
Ba1_3 Ba 0.151182(19) 0.270662(15) 1.427496(13)
Ba1A_2 Ba -0.151182(19) 0.729338(15) 0.572504(13)
Ba1A_3 Ba -0.151182(19) 0.729338(15) 1.572504(13)
Ba1A_4 Ba 0.848818(19) 0.729338(15) 1.572504(13)
O1_2 O 0.1647(3) -0.4218(2) 0.68498(19)
O1A_2 O -0.1647(3) -0.5782(2) 0.31502(19)
O1A_3 O -0.1647(3) 0.4218(2) 0.31502(19)
O2A_2 O -0.1980(3) -0.3399(2) 0.23512(19)
O3_2 O -0.6170(3) -0.4207(2) 0.36247(19)
O3_3 O 0.3830(3) 0.5793(2) 0.36247(19)
O3A_2 O -0.3830(3) -0.5793(2) 0.63753(19)
O3A_3 O 0.6170(3) 0.4207(2) 0.63753(19)
loop_
_geom_bond_atom_site_label_1
_geom_bond_atom_site_label_2
_geom_bond_site_symmetry_1
_geom_bond_site_symmetry_2
Ba1 O1 1_555 1_555
O1 C1 1_555 1_555
O2 Ba1 1_555 1_555
O3 C3 1_555 1_555
O4 C3 1_555 1_555
C1 O2 1_555 1_555
C2 C1 1_555 1_555
H1 C2 1_555 1_555
C3 C4 1_555 1_555
C4 C2 1_555 1_555
H2 C4 1_555 1_555
O5 Ba1 1_555 1_555
H3 O5 1_555 1_555
H4 O5 1_555 1_555
O6 Ba1 1_555 1_555
H5 O6 1_555 1_555
H6 O6 1_555 1_555
O7 Ba1 1_555 1_555
H7 O7 1_555 1_555
H8 O7 1_555 1_555
O1A C1A 1_555 1_555
O2A C1A 1_555 1_555
C1A C2A 1_555 1_555
C2A C4 1_555 1_555
H1A C2A 1_555 1_555
O3A C3A 1_555 1_555
O4A C3A 1_555 1_555
C3A C4A 1_555 1_555
C4A C2 1_555 1_555
H2A C4A 1_555 1_555
Ba1A O5 1_555 1_555
O5A Ba1 1_555 1_555
H3A O5A 1_555 1_555
H4A O5A 1_555 1_555
O6A Ba1A 1_555 1_555
H5A O6A 1_555 1_555
H6A O6A 1_555 1_555
O7A Ba1A 1_555 1_555
H7A O7A 1_555 1_555
H8A O7A 1_555 1_555
Ba1_2 O3A 1_555 1_555
Ba1_3 O3 1_555 1_555
Ba1A_2 O1 1_555 1_555
Ba1A_3 O1A 1_555 1_555
Ba1A_4 O3 1_555 1_555
O1_2 Ba1A 1_555 1_555
O1A_2 Ba1A 1_555 1_555
O1A_3 Ba1 1_555 1_555
O2A_2 Ba1A 1_555 1_555
O3_2 Ba1A 1_555 1_555
O3_3 Ba1 1_555 1_555
O3A_2 Ba1A 1_555 1_555
O3A_3 Ba1 1_555 1_555
O1A Ba1_3 1_555 1_555
O2A Ba1A_3 1_555 1_555
C2A C4A 1_555 1_555
O3A Ba1A_2 1_555 1_555
Ba1A O5A 1_555 1_555
Ba1A_2 O1A_3 1_555 1_555

#END
