
#######################################################################
#
#                 Cambridge Crystallographic Data Centre
#                                CCDC 
#
#######################################################################
#
# If this CIF has been generated from an entry in the Cambridge 
# Structural Database, then it will include bibliographic, chemical, 
# crystal, experimental, refinement or atomic coordinate data resulting 
# from the CCDC's data processing and validation procedures.
#
#######################################################################

data_XUNBIS
_symmetry_cell_setting           orthorhombic
_symmetry_space_group_name_H-M   'P n m a'
_symmetry_Int_Tables_number      62
_space_group_name_Hall           '-P 2ac 2n'
loop_
_symmetry_equiv_pos_site_id
_symmetry_equiv_pos_as_xyz
1 x,y,z
2 1/2-x,-y,1/2+z
3 1/2+x,1/2-y,1/2-z
4 -x,1/2+y,-z
5 -x,-y,-z
6 1/2+x,y,1/2-z
7 1/2-x,1/2+y,1/2+z
8 x,1/2-y,z
_cell_length_a                   9.1065(3)
_cell_length_b                   8.6669(3)
_cell_length_c                   12.1998(5)
_cell_angle_alpha                90
_cell_angle_beta                 90
_cell_angle_gamma                90
_cell_volume                     962.871
loop_
_atom_site_label
_atom_site_type_symbol
_atom_site_fract_x
_atom_site_fract_y
_atom_site_fract_z
Cu1 Cu 0.8400(7) 0.750000 -0.1711(4)
N1 N 0.7512(7) 0.750000 -0.0152(4)
N2 N 0.6534(7) 0.750000 -0.2510(4)
C1 C 0.5743(7) 0.750000 0.1720(4)
C2 C 1.0363(7) 0.750000 -0.2172(4)
C3 C 0.7090(7) 0.616670 0.0307(4)
C4 C 0.6211(7) 0.613470 0.1230(4)
C5 C 0.7620(7) 0.472220 -0.0227(4)
C6 C 0.4789(7) 0.750000 0.2698(4)
H1 H 0.589400 0.517040 0.153720
H2 H 0.724570 0.384520 0.016390
H3 H 0.867430 0.470080 -0.021650
H4 H 0.728160 0.469050 -0.097180
H5 H 0.448010 0.845920 0.301690
Cu1B Cu 0.3400(7) 0.750000 -0.3289(4)
Cu1B_2 Cu 1.3400(7) 0.750000 -0.3289(4)
Cu1_2 Cu -0.1600(7) 0.750000 -0.1711(4)
Cu1_3 Cu 1.8400(7) 0.750000 -0.1711(4)
N1B N 0.2512(7) 0.750000 -0.4848(4)
N1B_2 N 1.2512(7) 0.750000 -0.4848(4)
N1_2 N 1.7512(7) 0.750000 -0.0152(4)
N2B N 1.1534(7) 0.750000 -0.2490(4)
N2B_2 N 0.1534(7) 0.750000 -0.2490(4)
N2_2 N 1.6534(7) 0.750000 -0.2510(4)
C1B C 1.0743(7) 0.750000 -0.6720(4)
C2B C 0.5363(7) 0.750000 -0.2828(4)
C2B_2 C 1.5363(7) 0.750000 -0.2828(4)
C2_2 C 0.0363(7) 0.750000 -0.2172(4)
C2_3 C 2.0363(7) 0.750000 -0.2172(4)
C3G C 0.7090(7) 0.883330 0.0307(4)
C3B C 1.2090(7) 0.883330 -0.5307(4)
C3E C 1.2090(7) 0.616670 -0.5307(4)
C4G C 0.6211(7) 0.886530 0.1230(4)
C4B C 1.1211(7) 0.886530 -0.6230(4)
C4E C 1.1211(7) 0.613470 -0.6230(4)
C5G C 0.7620(7) 1.027780 -0.0227(4)
C5B C 1.2620(7) 1.027780 -0.4773(4)
C5E C 1.2620(7) 0.472220 -0.4773(4)
C6B C 0.9789(7) 0.750000 -0.7698(4)
H1G H 0.589400 0.982960 0.153720
H1B H 1.089400 0.982960 -0.653720
H1E H 1.089400 0.517040 -0.653720
H2G H 0.724570 1.115480 0.016390
H2B H 1.224570 1.115480 -0.516390
H2E H 1.224570 0.384520 -0.516390
H3G H 0.867430 1.029920 -0.021650
H3B H 1.367430 1.029920 -0.478350
H3E H 1.367430 0.470080 -0.478350
H4G H 0.728160 1.030950 -0.097180
H4B H 1.228160 1.030950 -0.402820
H4E H 1.228160 0.469050 -0.402820
H5G H 0.448010 0.654080 0.301690
H5B H 0.948010 0.654080 -0.801690
H5E H 0.948010 0.845920 -0.801690
loop_
_geom_bond_atom_site_label_1
_geom_bond_atom_site_label_2
_geom_bond_site_symmetry_1
_geom_bond_site_symmetry_2
Cu1 N1 1_555 1_555
N1 C3 1_555 1_555
N2 Cu1 1_555 1_555
C1 C4 1_555 1_555
C2 Cu1 1_555 1_555
C3 C4 1_555 1_555
C4 H1 1_555 1_555
C5 C3 1_555 1_555
C6 C1 1_555 1_555
H2 C5 1_555 1_555
H3 C5 1_555 1_555
H4 C5 1_555 1_555
H5 C6 1_555 1_555
Cu1B N1B 1_555 1_555
Cu1B_2 N1B_2 1_555 1_555
Cu1_2 C2_2 1_555 1_555
Cu1_3 N1_2 1_555 1_555
N1B_2 C3B 1_555 1_555
N2B C2 1_555 1_555
N2B_2 Cu1B 1_555 1_555
N2_2 Cu1_3 1_555 1_555
C1B C4B 1_555 1_555
C2B N2 1_555 1_555
C2B_2 Cu1B_2 1_555 1_555
C2_2 N2B_2 1_555 1_555
C2_3 Cu1_3 1_555 1_555
C3G N1 1_555 1_555
C3B C4B 1_555 1_555
C3E N1B_2 1_555 1_555
C4G C1 1_555 1_555
C4B H1B 1_555 1_555
C4E C1B 1_555 1_555
C5G C3G 1_555 1_555
C5B C3B 1_555 1_555
C5E C3E 1_555 1_555
C6B C1B 1_555 1_555
H1G C4G 1_555 1_555
H1E C4E 1_555 1_555
H2G C5G 1_555 1_555
H2B C5B 1_555 1_555
H2E C5E 1_555 1_555
H3G C5G 1_555 1_555
H3B C5B 1_555 1_555
H3E C5E 1_555 1_555
H4G C5G 1_555 1_555
H4B C5B 1_555 1_555
H4E C5E 1_555 1_555
H5G C6 1_555 1_555
H5B C6B 1_555 1_555
H5E C6B 1_555 1_555
Cu1B C2B 1_555 1_555
Cu1B_2 N2B 1_555 1_555
N2_2 C2B_2 1_555 1_555
C3G C4G 1_555 1_555
C3E C4E 1_555 1_555

#END
