
#######################################################################
#
#                 Cambridge Crystallographic Data Centre
#                                CCDC 
#
#######################################################################
#
# If this CIF has been generated from an entry in the Cambridge 
# Structural Database, then it will include bibliographic, chemical, 
# crystal, experimental, refinement or atomic coordinate data resulting 
# from the CCDC's data processing and validation procedures.
#
#######################################################################

data_XUNCAM
_symmetry_cell_setting           hexagonal
_symmetry_space_group_name_H-M   'P 63/m'
_symmetry_Int_Tables_number      176
_space_group_name_Hall           '-P 6c'
loop_
_symmetry_equiv_pos_site_id
_symmetry_equiv_pos_as_xyz
1 x,y,z
2 -x,-y,1/2+z
3 -y,x-y,z
4 -x+y,-x,z
5 x-y,x,1/2+z
6 y,-x+y,1/2+z
7 -x,-y,-z
8 x,y,1/2-z
9 y,-x+y,-z
10 x-y,x,-z
11 -x+y,-x,1/2-z
12 -y,x-y,1/2-z
_cell_length_a                   5.20130(10)
_cell_length_b                   5.20130(10)
_cell_length_c                   22.4066(3)
_cell_angle_alpha                90
_cell_angle_beta                 90
_cell_angle_gamma                120
_cell_volume                     524.965
loop_
_atom_site_label
_atom_site_type_symbol
_atom_site_fract_x
_atom_site_fract_y
_atom_site_fract_z
Mn1 Mn 0.6667 0.3333 0.00457(2)
Mn2 Mn 0.0000 0.0000 0.2500
V1 V 0.0000 0.0000 0.07987(2)
K1 K 0.3333 0.6667 0.15776(3)
C1 C 0.6667 0.3333 0.2500
O1 O 0.0000 0.0000 0.15520(10)
O2 O 0.4434(4) 0.0681(4) 0.2500
O3 O 0.3098(3) -0.0106(3) 0.05494(5)
O2B O 0.9319(4) 0.3753(6) 0.2500
O2C O 0.6247(6) 0.5566(4) 0.2500
Mn1F Mn 0.3333 -0.3333 -0.00457(2)
V1F V 1.0000 0.0000 -0.07987(2)
K1F K 0.6667 -0.6667 -0.15776(3)
O1F O 1.0000 0.0000 -0.15520(10)
O3F O 0.6902(3) 0.0106(3) -0.05494(5)
O3H O -0.0106(3) -0.3204(4) -0.05494(5)
O3I O 0.3204(4) -0.6902(3) -0.05494(5)
O3B O 1.0106(3) 0.3204(4) 0.05494(5)
O3C O 0.6796(4) 0.6902(3) 0.05494(5)
Mn1_2 Mn -0.3333 -0.6667 0.00457(2)
Mn1_3 Mn 0.6667 -0.6667 0.00457(2)
Mn1F_2 Mn 0.3333 0.6667 -0.00457(2)
Mn1F_3 Mn 1.3333 0.6667 -0.00457(2)
Mn2_2 Mn 1.0000 0.0000 0.2500
Mn2_3 Mn 1.0000 1.0000 0.2500
Mn2A Mn 1.0000 0.0000 -0.2500
V1_2 V 1.0000 0.0000 0.07987(2)
V1_3 V 1.0000 1.0000 0.07987(2)
V1F_2 V 0.0000 -1.0000 -0.07987(2)
V1F_3 V 0.0000 0.0000 -0.07987(2)
K1_2 K -0.6667 -0.3333 0.15776(3)
K1_3 K 0.3333 -0.3333 0.15776(3)
K1_4 K 1.3333 0.6667 0.15776(3)
K1F_2 K -0.3333 -0.6667 -0.15776(3)
K1F_3 K 0.6667 0.3333 -0.15776(3)
K1F_4 K 1.6667 0.3333 -0.15776(3)
K1G K 0.3333 -0.3333 0.34224(3)
K1G_2 K 0.3333 0.6667 0.34224(3)
K1G_3 K 1.3333 0.6667 0.34224(3)
O1_2 O 0.0000 1.0000 0.15520(10)
O1_3 O 1.0000 1.0000 0.15520(10)
O1F_2 O 0.0000 -1.0000 -0.15520(10)
O1F_3 O 1.0000 -1.0000 -0.15520(10)
O1G O 0.0000 0.0000 0.34480(10)
O2_2 O 0.4434(4) 1.0681(4) 0.2500
O2A O 0.5566(4) -1.0681(4) -0.2500
O2B_2 O -0.0681(4) 0.3753(6) 0.2500
O2C_2 O -0.3753(6) -0.4434(4) 0.2500
O2D O 0.3753(6) -0.5566(4) -0.2500
O2E O 1.0681(4) -0.3753(6) -0.2500
O3_2 O 0.3098(3) 0.9894(3) 0.05494(5)
O3B_2 O 0.0106(3) -0.6796(4) 0.05494(5)
O3B_3 O 0.0106(3) 0.3204(4) 0.05494(5)
O3C_2 O -0.3204(4) -0.3098(3) 0.05494(5)
O3C_3 O 0.6796(4) -0.3098(3) 0.05494(5)
O3F_2 O 0.6902(3) -0.9894(3) -0.05494(5)
O3H_2 O 0.9894(3) -0.3204(4) -0.05494(5)
O3H_3 O 0.9894(3) 0.6796(4) -0.05494(5)
O3I_2 O 0.3204(4) 0.3098(3) -0.05494(5)
O3I_3 O 1.3204(4) 0.3098(3) -0.05494(5)
loop_
_geom_bond_atom_site_label_1
_geom_bond_atom_site_label_2
_geom_bond_site_symmetry_1
_geom_bond_site_symmetry_2
Mn1 O3 1_555 1_555
Mn2 O1 1_555 1_555
V1 O1 1_555 1_555
K1 O1 1_555 1_555
C1 O2 1_555 1_555
O1 K1_2 1_555 1_555
O2 Mn2 1_555 1_555
O3 V1 1_555 1_555
O2B C1 1_555 1_555
O2C K1 1_555 1_555
Mn1F Mn1 1_555 1_555
V1F O1F 1_555 1_555
K1F O1F 1_555 1_555
O1F Mn2A 1_555 1_555
O3F Mn1 1_555 1_555
O3H Mn1F 1_555 1_555
O3I Mn1F 1_555 1_555
O3B Mn1 1_555 1_555
O3C Mn1 1_555 1_555
Mn1_2 Mn1F 1_555 1_555
Mn1_3 Mn1F 1_555 1_555
Mn1F_2 Mn1 1_555 1_555
Mn1F_3 Mn1 1_555 1_555
Mn2_2 O2B 1_555 1_555
Mn2_3 O2C 1_555 1_555
Mn2A O2E 1_555 1_555
V1_2 O3B 1_555 1_555
V1_3 O3C 1_555 1_555
V1F_2 O3I 1_555 1_555
V1F_3 O3H 1_555 1_555
K1_2 O2C_2 1_555 1_555
K1_3 O1 1_555 1_555
K1_4 O2B 1_555 1_555
K1F_2 O3H 1_555 1_555
K1F_3 O1F 1_555 1_555
K1F_4 O1F 1_555 1_555
K1G O2 1_555 1_555
K1G_2 O2C 1_555 1_555
K1G_3 O2B 1_555 1_555
O1_2 K1 1_555 1_555
O1_3 K1 1_555 1_555
O1F_2 K1F 1_555 1_555
O1F_3 K1F 1_555 1_555
O1G Mn2 1_555 1_555
O2_2 K1 1_555 1_555
O2A K1F 1_555 1_555
O2B_2 Mn2 1_555 1_555
O2C_2 Mn2 1_555 1_555
O2D K1F 1_555 1_555
O2E K1F 1_555 1_555
O3_2 K1 1_555 1_555
O3B_2 Mn1F 1_555 1_555
O3B_3 V1 1_555 1_555
O3C_2 V1 1_555 1_555
O3C_3 Mn1F 1_555 1_555
O3F_2 K1F 1_555 1_555
O3H_2 V1F 1_555 1_555
O3H_3 Mn1 1_555 1_555
O3I_2 Mn1 1_555 1_555
O3I_3 V1F 1_555 1_555
K1 O3C 1_555 1_555
K1 O2B_2 1_555 1_555
K1 O3B_3 1_555 1_555
C1 O2C 1_555 1_555
O2 K1_3 1_555 1_555
O3 Mn1F 1_555 1_555
O3 K1_3 1_555 1_555
Mn1F O3F 1_555 1_555
V1F O3F 1_555 1_555
K1F O3I 1_555 1_555
K1F O3H_2 1_555 1_555
O3F K1F_3 1_555 1_555
O3H Mn1_2 1_555 1_555
O3I Mn1_3 1_555 1_555
O3B Mn1F_3 1_555 1_555
O3B K1_4 1_555 1_555
O3C Mn1F_2 1_555 1_555
Mn1_2 O3B_2 1_555 1_555
Mn1_2 O3C_2 1_555 1_555
Mn1_3 O3C_3 1_555 1_555
Mn1_3 O3F_2 1_555 1_555
Mn1_3 O3H_2 1_555 1_555
Mn1F_2 O3_2 1_555 1_555
Mn1F_2 O3B_3 1_555 1_555
Mn1F_2 O3I_2 1_555 1_555
Mn1F_3 O3H_3 1_555 1_555
Mn1F_3 O3I_3 1_555 1_555
Mn2_3 O1_3 1_555 1_555
V1_2 O3C_3 1_555 1_555
V1_3 O1_3 1_555 1_555
V1F_2 O1F_2 1_555 1_555
V1F_3 O3I_2 1_555 1_555
K1_2 O3C_2 1_555 1_555
K1_3 O3B_2 1_555 1_555
K1_3 O3C_3 1_555 1_555
K1_4 O1_3 1_555 1_555
K1F_2 O1F_2 1_555 1_555
K1F_3 O3H_3 1_555 1_555
K1F_3 O3I_2 1_555 1_555
K1F_4 O3I_3 1_555 1_555
K1G O1G 1_555 1_555
K1G_2 O1G 1_555 1_555
K1G_2 O2_2 1_555 1_555
K1G_2 O2B_2 1_555 1_555

#END
