
#######################################################################
#
#                 Cambridge Crystallographic Data Centre
#                                CCDC 
#
#######################################################################
#
# If this CIF has been generated from an entry in the Cambridge 
# Structural Database, then it will include bibliographic, chemical, 
# crystal, experimental, refinement or atomic coordinate data resulting 
# from the CCDC's data processing and validation procedures.
#
#######################################################################

data_XUNJUM
_symmetry_cell_setting           monoclinic
_symmetry_space_group_name_H-M   'C c'
_symmetry_Int_Tables_number      9
_space_group_name_Hall           'C -2yc'
loop_
_symmetry_equiv_pos_site_id
_symmetry_equiv_pos_as_xyz
1 x,y,z
2 x,-y,1/2+z
3 1/2+x,1/2+y,z
4 1/2+x,1/2-y,1/2+z
_cell_length_a                   7.7609(3)
_cell_length_b                   20.5827(9)
_cell_length_c                   7.0717(3)
_cell_angle_alpha                90
_cell_angle_beta                 93.411(3)
_cell_angle_gamma                90
_cell_volume                     1127.63
loop_
_atom_site_label
_atom_site_type_symbol
_atom_site_fract_x
_atom_site_fract_y
_atom_site_fract_z
Mn1 Mn 0.42377(7) 0.46971(2) 0.09299(7)
O1 O 0.5651(4) 0.47380(15) 0.4183(5)
O2 O 0.5924(5) 0.39859(18) 0.2103(5)
O3 O 1.2742(4) 0.41164(16) 0.9160(4)
O4 O 1.2272(4) 0.47325(18) 0.6655(6)
C1 C 0.7493(5) 0.3829(2) 0.5094(5)
C2 C 0.9061(6) 0.42483(15) 0.5703(6)
H1 H 0.9678 0.4366 0.4600
H2 H 0.8679 0.4645 0.6289
C3 C 1.0265(5) 0.3876(2) 0.7107(5)
C4 C 0.9296(5) 0.3692(2) 0.8846(5)
H3 H 0.8917 0.4083 0.9467
H4 H 1.0060 0.3456 0.9738
C5 C 0.7730(5) 0.3270(2) 0.8255(6)
H5 H 0.7112 0.3153 0.9375
C6 C 0.6528(4) 0.36495(19) 0.6859(5)
H6 H 0.6134 0.4041 0.7461
H7 H 0.5525 0.3387 0.6490
C7 C 0.8116(5) 0.32047(18) 0.4173(6)
H8 H 0.7132 0.2937 0.3776
H9 H 0.8732 0.3312 0.3061
C8 C 0.9303(7) 0.28297(18) 0.5576(7)
H10 H 0.9684 0.2428 0.4982
C9 C 1.0879(5) 0.32524(17) 0.6148(6)
H11 H 1.1490 0.3364 0.5035
H12 H 1.1662 0.3015 0.7015
C10 C 0.8340(6) 0.2664(2) 0.7315(7)
H13 H 0.7356 0.2392 0.6951
H14 H 0.9094 0.2422 0.8203
C11 C 0.6283(5) 0.4196(2) 0.3707(7)
C12 C 1.1879(6) 0.4276(3) 0.7706(7)
Mn1_2 Mn 1.42377(7) 0.46971(2) 1.09299(7)
Mn1A Mn 0.42377(7) 0.53029(2) 0.59299(7)
Mn1A_2 Mn 1.42377(7) 0.53029(2) 0.59299(7)
O1A O 0.5651(4) 0.52620(15) -0.0817(5)
O3_2 O 0.2742(4) 0.41164(16) -0.0840(4)
O4A O 0.2272(4) 0.52675(18) 0.1655(6)
loop_
_geom_bond_atom_site_label_1
_geom_bond_atom_site_label_2
_geom_bond_site_symmetry_1
_geom_bond_site_symmetry_2
Mn1 O2 1_555 1_555
O1 C11 1_555 1_555
O2 C11 1_555 1_555
O3 C12 1_555 1_555
O4 C12 1_555 1_555
C1 C2 1_555 1_555
C2 H1 1_555 1_555
H2 C2 1_555 1_555
C3 C2 1_555 1_555
C4 C3 1_555 1_555
H3 C4 1_555 1_555
H4 C4 1_555 1_555
C5 C4 1_555 1_555
H5 C5 1_555 1_555
C6 C1 1_555 1_555
H6 C6 1_555 1_555
H7 C6 1_555 1_555
C7 C1 1_555 1_555
H8 C7 1_555 1_555
H9 C7 1_555 1_555
C8 C7 1_555 1_555
H10 C8 1_555 1_555
C9 C3 1_555 1_555
H11 C9 1_555 1_555
H12 C9 1_555 1_555
C10 C5 1_555 1_555
H13 C10 1_555 1_555
H14 C10 1_555 1_555
C11 C1 1_555 1_555
C12 C3 1_555 1_555
Mn1_2 O3 1_555 1_555
Mn1A O1 1_555 1_555
Mn1A_2 O4 1_555 1_555
O1A Mn1 1_555 1_555
O3_2 Mn1 1_555 1_555
O4A Mn1 1_555 1_555
C5 C6 1_555 1_555
C8 C9 1_555 1_555
C8 C10 1_555 1_555

#END
