
#######################################################################
#
#                 Cambridge Crystallographic Data Centre
#                                CCDC 
#
#######################################################################
#
# If this CIF has been generated from an entry in the Cambridge 
# Structural Database, then it will include bibliographic, chemical, 
# crystal, experimental, refinement or atomic coordinate data resulting 
# from the CCDC's data processing and validation procedures.
#
#######################################################################

data_XUNKOH
_symmetry_cell_setting           orthorhombic
_symmetry_space_group_name_H-M   'P 21 21 21'
_symmetry_Int_Tables_number      19
_space_group_name_Hall           'P 2ac 2ab'
loop_
_symmetry_equiv_pos_site_id
_symmetry_equiv_pos_as_xyz
1 x,y,z
2 1/2-x,-y,1/2+z
3 -x,1/2+y,1/2-z
4 1/2+x,1/2-y,-z
_cell_length_a                   9.4679(19)
_cell_length_b                   16.487(3)
_cell_length_c                   17.475(4)
_cell_angle_alpha                90
_cell_angle_beta                 90
_cell_angle_gamma                90
_cell_volume                     2727.8
loop_
_atom_site_label
_atom_site_type_symbol
_atom_site_fract_x
_atom_site_fract_y
_atom_site_fract_z
Sn1 Sn 0.806873(14) 0.010329(8) 0.825155(8)
O1 O 0.79841(19) 0.07516(8) 0.39866(8)
O2 O 0.81965(17) 0.17353(9) 0.31107(8)
N1 N 0.91707(19) 0.11572(11) 0.74629(11)
N2 N 1.05049(18) 0.14848(11) 0.75894(10)
N3 N 0.9766(2) 0.18483(11) 0.64444(10)
C1 C 0.8759(2) 0.13880(12) 0.67798(13)
H1 H 0.7898 0.1254 0.6558
C2 C 1.0819(2) 0.18921(13) 0.69721(12)
H2 H 1.1657 0.2177 0.6902
C3 C 0.9730(2) 0.21527(13) 0.56796(12)
C4 C 1.0253(2) 0.29174(13) 0.55195(13)
H3 H 1.0632 0.3238 0.5907
C5 C 1.0202(3) 0.31975(13) 0.47745(14)
H4 H 1.0570 0.3706 0.4659
C6 C 0.9613(2) 0.27328(14) 0.41982(14)
H5 H 0.9571 0.2932 0.3701
C7 C 0.9080(2) 0.19616(13) 0.43682(13)
C8 C 0.9165(2) 0.16707(13) 0.51074(13)
H6 H 0.8842 0.1152 0.5221
C9 C 0.8384(2) 0.14600(13) 0.37514(13)
C10 C 0.9861(2) -0.06114(13) 0.79557(13)
C11 C 0.9765(2) -0.11872(14) 0.73702(14)
H7 H 0.8902 -0.1271 0.7129
C12 C 1.0929(3) -0.16336(15) 0.71442(15)
H8 H 1.0838 -0.2006 0.6748
C13 C 1.2229(2) -0.15355(14) 0.74991(16)
C14 C 1.2314(3) -0.09772(16) 0.80885(17)
H9 H 1.3170 -0.0910 0.8342
C15 C 1.1165(2) -0.05145(14) 0.83138(16)
H10 H 1.1264 -0.0137 0.8706
C16 C 1.3501(3) -0.20170(18) 0.7235(2)
H11 H 1.3306 -0.2586 0.7283
H12 H 1.4303 -0.1880 0.7545
H13 H 1.3700 -0.1890 0.6710
C17 C 0.8121(3) 0.09086(12) 0.92052(12)
C18 C 0.6988(3) 0.09263(13) 0.97140(12)
H14 H 0.6226 0.0580 0.9637
C19 C 0.6979(3) 0.14521(13) 1.03339(13)
H15 H 0.6204 0.1456 1.0660
C20 C 0.8100(3) 0.19718(13) 1.04780(13)
C21 C 0.9242(3) 0.19454(14) 0.99750(14)
H16 H 1.0017 0.2279 1.0062
C22 C 0.9243(3) 0.14298(14) 0.93454(13)
H17 H 1.0009 0.1434 0.9012
C23 C 0.8108(3) 0.25256(15) 1.11630(15)
H18 H 0.8470 0.2239 1.1599
H19 H 0.7162 0.2704 1.1268
H20 H 0.8695 0.2987 1.1059
C24 C 0.6333(2) 0.01917(13) 0.74838(12)
C25 C 0.5107(3) 0.05870(16) 0.77154(14)
H21 H 0.5085 0.0848 0.8187
C26 C 0.3921(3) 0.05977(18) 0.72529(16)
H22 H 0.3109 0.0858 0.7424
C27 C 0.3916(2) 0.02287(15) 0.65405(15)
C28 C 0.5143(3) -0.01479(15) 0.62984(15)
H23 H 0.5171 -0.0392 0.5819
C29 C 0.6338(2) -0.01661(13) 0.67643(14)
H24 H 0.7152 -0.0422 0.6590
C30 C 0.2603(3) 0.0225(2) 0.60450(19)
H25 H 0.1784 0.0151 0.6362
H26 H 0.2662 -0.0210 0.5681
H27 H 0.2529 0.0733 0.5778
Sn1A Sn 0.693127(14) -0.010329(8) 0.325155(8)
O1A O 0.70159(19) -0.07516(8) 0.89866(8)
loop_
_geom_bond_atom_site_label_1
_geom_bond_atom_site_label_2
_geom_bond_site_symmetry_1
_geom_bond_site_symmetry_2
Sn1 N1 1_555 1_555
O1 C9 1_555 1_555
O2 C9 1_555 1_555
N1 N2 1_555 1_555
N2 C2 1_555 1_555
N3 C1 1_555 1_555
C1 N1 1_555 1_555
H1 C1 1_555 1_555
C2 N3 1_555 1_555
H2 C2 1_555 1_555
C3 N3 1_555 1_555
C4 C3 1_555 1_555
H3 C4 1_555 1_555
C5 C4 1_555 1_555
H4 C5 1_555 1_555
C6 C5 1_555 1_555
H5 C6 1_555 1_555
C7 C6 1_555 1_555
C8 C3 1_555 1_555
H6 C8 1_555 1_555
C9 C7 1_555 1_555
C10 Sn1 1_555 1_555
C11 C10 1_555 1_555
H7 C11 1_555 1_555
C12 C11 1_555 1_555
H8 C12 1_555 1_555
C13 C12 1_555 1_555
C14 C13 1_555 1_555
H9 C14 1_555 1_555
C15 C10 1_555 1_555
H10 C15 1_555 1_555
C16 C13 1_555 1_555
H11 C16 1_555 1_555
H12 C16 1_555 1_555
H13 C16 1_555 1_555
C17 Sn1 1_555 1_555
C18 C17 1_555 1_555
H14 C18 1_555 1_555
C19 C18 1_555 1_555
H15 C19 1_555 1_555
C20 C19 1_555 1_555
C21 C20 1_555 1_555
H16 C21 1_555 1_555
C22 C17 1_555 1_555
H17 C22 1_555 1_555
C23 C20 1_555 1_555
H18 C23 1_555 1_555
H19 C23 1_555 1_555
H20 C23 1_555 1_555
C24 Sn1 1_555 1_555
C25 C24 1_555 1_555
H21 C25 1_555 1_555
C26 C25 1_555 1_555
H22 C26 1_555 1_555
C27 C26 1_555 1_555
C28 C27 1_555 1_555
H23 C28 1_555 1_555
C29 C24 1_555 1_555
H24 C29 1_555 1_555
C30 C27 1_555 1_555
H25 C30 1_555 1_555
H26 C30 1_555 1_555
H27 C30 1_555 1_555
Sn1A O1 1_555 1_555
O1A Sn1 1_555 1_555
C7 C8 1_555 1_555
C14 C15 1_555 1_555
C21 C22 1_555 1_555
C28 C29 1_555 1_555

#END
