
#######################################################################
#
#                 Cambridge Crystallographic Data Centre
#                                CCDC 
#
#######################################################################
#
# If this CIF has been generated from an entry in the Cambridge 
# Structural Database, then it will include bibliographic, chemical, 
# crystal, experimental, refinement or atomic coordinate data resulting 
# from the CCDC's data processing and validation procedures.
#
#######################################################################

data_XUNRIJ
_symmetry_cell_setting           monoclinic
_symmetry_space_group_name_H-M   'P 2/n'
_symmetry_Int_Tables_number      13
_space_group_name_Hall           '-P 2yac'
loop_
_symmetry_equiv_pos_site_id
_symmetry_equiv_pos_as_xyz
1 x,y,z
2 1/2-x,y,1/2-z
3 -x,-y,-z
4 1/2+x,-y,1/2+z
_cell_length_a                   6.3594(13)
_cell_length_b                   13.651(3)
_cell_length_c                   14.421(3)
_cell_angle_alpha                90
_cell_angle_beta                 101.31(3)
_cell_angle_gamma                90
_cell_volume                     1227.61
loop_
_atom_site_label
_atom_site_type_symbol
_atom_site_fract_x
_atom_site_fract_y
_atom_site_fract_z
Mn1 Mn -0.7500 0.03362(11) 0.7500
S1 S -0.4350(3) -0.34683(13) 0.79852(13)
S2 S -0.4386(3) -0.58510(13) 0.79645(13)
O1 O -0.5108(7) -0.0801(3) 0.7409(3)
O2 O -0.4866(8) -0.1492(3) 0.8845(3)
O3 O -0.5147(7) -0.8507(3) 0.7368(3)
O4 O -0.4831(7) -0.7876(3) 0.8821(3)
O5 O -0.6514(6) 0.0319(3) 0.9059(3)
C1 C -0.4529(10) -0.1467(5) 0.8023(5)
C2 C -0.3332(9) -0.2322(5) 0.7717(4)
C3 C -0.2500 -0.4162(6) 0.7500
C4 C -0.4529(9) -0.7852(5) 0.7998(5)
C5 C -0.3345(9) -0.7007(4) 0.7709(4)
C6 C -0.2500 -0.5145(7) 0.7500
S1A S -0.0650(3) -0.34683(13) 0.70148(13)
O1A O 0.0108(7) -0.0801(3) 0.7591(3)
O2A O -0.0134(8) -0.1492(3) 0.6155(3)
C1A C -0.0471(10) -0.1467(5) 0.6977(5)
C2A C -0.1668(9) -0.2322(5) 0.7283(4)
S2A S -0.0614(3) -0.58510(13) 0.70355(13)
O3A O 0.0147(7) -0.8507(3) 0.7632(3)
O4A O -0.0169(7) -0.7876(3) 0.6179(3)
C4A C -0.0471(9) -0.7852(5) 0.7002(5)
C5A C -0.1655(9) -0.7007(4) 0.7291(4)
O5A O -0.8486(6) 0.0319(3) 0.5941(3)
Mn1_2 Mn -0.7500 -0.96638(11) 0.7500
Mn1_3 Mn 0.2500 -0.96638(11) 0.7500
Mn1_4 Mn 0.2500 0.03362(11) 0.7500
O1A_2 O -0.9892(7) -0.0801(3) 0.7591(3)
O3_2 O -0.5147(7) 0.1493(3) 0.7368(3)
O3A_2 O -0.9853(7) 0.1493(3) 0.7632(3)
N1 N 0.0234(9) -0.2403(5) 0.9945(4)
C7 C -0.1231(11) -0.2864(6) 1.0355(5)
H1 H -0.2176 -0.2492 1.0626
C8 C -0.1358(10) -0.3876(5) 1.0380(5)
H2 H -0.2388 -0.4170 1.0666
C9 C 0.0038(10) -0.4466(5) 0.9983(5)
C10 C 0.1502(11) -0.3968(5) 0.9553(5)
H3 H 0.2442 -0.4321 0.9262
C11 C 0.1579(11) -0.2961(6) 0.9552(5)
H4 H 0.2597 -0.2652 0.9270
C12 C 0.0349(12) -0.1328(5) 0.9947(6)
H5 H -0.1076 -0.1061 0.9835
H6 H 0.1073 -0.1113 0.9459
H7 H 0.1124 -0.1106 1.0550
N1B N -0.0234(9) -0.7597(5) 1.0055(4)
C7B C 0.1231(11) -0.7136(6) 0.9645(5)
H1B H 0.2176 -0.7508 0.9374
C8B C 0.1358(10) -0.6124(5) 0.9620(5)
H2B H 0.2388 -0.5830 0.9334
C9B C -0.0038(10) -0.5534(5) 1.0017(5)
C10B C -0.1502(11) -0.6032(5) 1.0447(5)
H3B H -0.2442 -0.5679 1.0738
C11B C -0.1579(11) -0.7039(6) 1.0448(5)
H4B H -0.2597 -0.7348 1.0730
C12B C -0.0349(12) -0.8672(5) 1.0053(6)
H5B H 0.1076 -0.8939 1.0165
H6B H -0.1073 -0.8887 1.0541
H7B H -0.1124 -0.8894 0.9450
loop_
_geom_bond_atom_site_label_1
_geom_bond_atom_site_label_2
_geom_bond_site_symmetry_1
_geom_bond_site_symmetry_2
Mn1 O1 1_555 1_555
S1 C2 1_555 1_555
S2 C5 1_555 1_555
O1 C1 1_555 1_555
O2 C1 1_555 1_555
O3 C4 1_555 1_555
O4 C4 1_555 1_555
O5 Mn1 1_555 1_555
C1 C2 1_555 1_555
C2 C2A 1_555 1_555
C3 S1 1_555 1_555
C4 C5 1_555 1_555
C5 C5A 1_555 1_555
C6 S2 1_555 1_555
N1 C7 1_555 1_555
C7 H1 1_555 1_555
C8 C7 1_555 1_555
H2 C8 1_555 1_555
C9 C8 1_555 1_555
C10 C9 1_555 1_555
H3 C10 1_555 1_555
C11 N1 1_555 1_555
H4 C11 1_555 1_555
C12 N1 1_555 1_555
H5 C12 1_555 1_555
H6 C12 1_555 1_555
H7 C12 1_555 1_555
S1A C3 1_555 1_555
O1A C1A 1_555 1_555
O2A C1A 1_555 1_555
C1A C2A 1_555 1_555
C2A S1A 1_555 1_555
S2A C6 1_555 1_555
O3A C4A 1_555 1_555
O4A C4A 1_555 1_555
C4A C5A 1_555 1_555
C5A S2A 1_555 1_555
O5A Mn1 1_555 1_555
Mn1_2 O3 1_555 1_555
Mn1_3 O3A 1_555 1_555
Mn1_4 O1A 1_555 1_555
O1A_2 Mn1 1_555 1_555
O3_2 Mn1 1_555 1_555
O3A_2 Mn1 1_555 1_555
N1B C7B 1_555 1_555
C7B H1B 1_555 1_555
C8B C7B 1_555 1_555
H2B C8B 1_555 1_555
C9B C9 1_555 1_555
C10B C9B 1_555 1_555
H3B C10B 1_555 1_555
C11B N1B 1_555 1_555
H4B C11B 1_555 1_555
C12B N1B 1_555 1_555
H5B C12B 1_555 1_555
H6B C12B 1_555 1_555
H7B C12B 1_555 1_555
C3 C6 1_555 1_555
C10 C11 1_555 1_555
C8B C9B 1_555 1_555
C10B C11B 1_555 1_555

#END
