
#######################################################################
#
#                 Cambridge Crystallographic Data Centre
#                                CCDC 
#
#######################################################################
#
# If this CIF has been generated from an entry in the Cambridge 
# Structural Database, then it will include bibliographic, chemical, 
# crystal, experimental, refinement or atomic coordinate data resulting 
# from the CCDC's data processing and validation procedures.
#
#######################################################################

data_XUNREF
_symmetry_cell_setting           monoclinic
_symmetry_space_group_name_H-M   'C 2/c'
_symmetry_Int_Tables_number      15
_space_group_name_Hall           '-C 2yn'
loop_
_symmetry_equiv_pos_site_id
_symmetry_equiv_pos_as_xyz
1 x,y,z
2 -x,y,1/2-z
3 1/2+x,1/2+y,z
4 1/2-x,1/2+y,1/2-z
5 -x,-y,-z
6 x,-y,1/2+z
7 1/2-x,1/2-y,-z
8 1/2+x,1/2-y,1/2+z
_cell_length_a                   9.034(3)
_cell_length_b                   11.188(3)
_cell_length_c                   25.730(5)
_cell_angle_alpha                90
_cell_angle_beta                 93.30(3)
_cell_angle_gamma                90
_cell_volume                     2596.28
loop_
_atom_site_label
_atom_site_type_symbol
_atom_site_fract_x
_atom_site_fract_y
_atom_site_fract_z
Mn1 Mn 0.5000 0.26861(13) 0.2500
S1 S 0.81781(16) 0.18088(17) 0.07746(6)
S2 S 0.54813(17) 0.30711(16) 0.03623(6)
O1 O 0.8303(5) 0.1012(5) 0.17979(17)
O2 O 0.7080(4) 0.2523(4) 0.21461(15)
O3 O 0.4016(4) 0.2760(4) 0.17405(15)
O4 O 0.3207(5) 0.3465(5) 0.09715(17)
O5 O 0.5000 0.4658(6) 0.2500
O6 O 0.5000 0.0706(7) 0.2500
C1 C 0.6849(6) 0.2218(6) 0.1226(2)
C2 C 0.5604(7) 0.2735(6) 0.1036(2)
C3 C 0.7262(6) 0.2483(6) 0.0236(2)
C4 C 0.7428(7) 0.1871(6) 0.1770(2)
C5 C 0.4166(6) 0.3031(6) 0.1279(2)
H1 H 0.561(6) 0.021(5) 0.238(3)
H2 H 0.568(6) 0.506(6) 0.266(3)
S1F S 0.68219(16) 0.31912(17) -0.07746(6)
S2F S 0.95187(17) 0.19289(16) -0.03623(6)
O1F O 0.6697(5) 0.3988(5) -0.17979(17)
O2F O 0.7920(4) 0.2477(4) -0.21461(15)
O3F O 1.0984(4) 0.2240(4) -0.17405(15)
O4F O 1.1793(5) 0.1535(5) -0.09715(17)
C1F C 0.8151(6) 0.2782(6) -0.1226(2)
C2F C 0.9396(7) 0.2265(6) -0.1036(2)
C3F C 0.7738(6) 0.2517(6) -0.0236(2)
C4F C 0.7572(7) 0.3129(6) -0.1770(2)
C5F C 1.0834(6) 0.1969(6) -0.1279(2)
H2A H 0.432(6) 0.506(6) 0.234(3)
H1A H 0.439(6) 0.021(5) 0.262(3)
Mn1F Mn 1.0000 0.23139(13) -0.2500
O2A O 0.2920(4) 0.2523(4) 0.28539(15)
O3A O 0.5984(4) 0.2760(4) 0.32595(15)
O7 O 0.6190(5) -0.1317(4) 0.20385(18)
N1 N 0.2787(5) 0.0326(5) 0.10631(19)
C6 C 0.2282(7) 0.0729(6) 0.0589(2)
H3 H 0.1355 0.1090 0.0549
C7 C 0.3125(6) 0.0605(6) 0.0176(2)
H4 H 0.2765 0.0882 -0.0148
C8 C 0.4518(6) 0.0073(5) 0.0223(2)
C9 C 0.4980(7) -0.0349(6) 0.0725(2)
H5 H 0.5894 -0.0727 0.0776
C10 C 0.4119(7) -0.0212(6) 0.1132(3)
H6 H 0.4443 -0.0489 0.1460
C11 C 0.1851(7) 0.0470(7) 0.1513(2)
H7 H 0.2018 -0.0189 0.1748
H8 H 0.0826 0.0488 0.1393
H9 H 0.2103 0.1203 0.1690
N1D N 0.7213(5) -0.0326(5) -0.10631(19)
C6D C 0.7718(7) -0.0729(6) -0.0589(2)
H3D H 0.8645 -0.1090 -0.0549
C7D C 0.6875(6) -0.0605(6) -0.0176(2)
H4D H 0.7235 -0.0882 0.0148
C8D C 0.5482(6) -0.0073(5) -0.0223(2)
C9D C 0.5020(7) 0.0349(6) -0.0725(2)
H5D H 0.4106 0.0727 -0.0776
C10D C 0.5881(7) 0.0212(6) -0.1132(3)
H6D H 0.5557 0.0489 -0.1460
C11D C 0.8149(7) -0.0470(7) -0.1513(2)
H7D H 0.7982 0.0189 -0.1748
H8D H 0.9174 -0.0488 -0.1393
H9D H 0.7897 -0.1203 -0.1690
loop_
_geom_bond_atom_site_label_1
_geom_bond_atom_site_label_2
_geom_bond_site_symmetry_1
_geom_bond_site_symmetry_2
Mn1 O2 1_555 1_555
S1 C1 1_555 1_555
S2 C2 1_555 1_555
O1 C4 1_555 1_555
O2 C4 1_555 1_555
O3 Mn1 1_555 1_555
O4 C5 1_555 1_555
O5 Mn1 1_555 1_555
O6 Mn1 1_555 1_555
C1 C2 1_555 1_555
C2 C5 1_555 1_555
C3 S1 1_555 1_555
C4 C1 1_555 1_555
C5 O3 1_555 1_555
H1 O6 1_555 1_555
H2 O5 1_555 1_555
N1 C6 1_555 1_555
C6 H3 1_555 1_555
C7 C6 1_555 1_555
H4 C7 1_555 1_555
C8 C7 1_555 1_555
C9 C8 1_555 1_555
H5 C9 1_555 1_555
C10 N1 1_555 1_555
H6 C10 1_555 1_555
C11 N1 1_555 1_555
H7 C11 1_555 1_555
H8 C11 1_555 1_555
H9 C11 1_555 1_555
S1F C1F 1_555 1_555
S2F C2F 1_555 1_555
O1F C4F 1_555 1_555
O2F C4F 1_555 1_555
O3F C5F 1_555 1_555
O4F C5F 1_555 1_555
C1F C2F 1_555 1_555
C2F C5F 1_555 1_555
C3F C3 1_555 1_555
C4F C1F 1_555 1_555
H2A O5 1_555 1_555
H1A O6 1_555 1_555
Mn1F O2F 1_555 1_555
O2A Mn1 1_555 1_555
O3A Mn1 1_555 1_555
N1D C6D 1_555 1_555
C6D H3D 1_555 1_555
C7D C6D 1_555 1_555
H4D C7D 1_555 1_555
C8D C8 1_555 1_555
C9D C8D 1_555 1_555
H5D C9D 1_555 1_555
C10D N1D 1_555 1_555
H6D C10D 1_555 1_555
C11D N1D 1_555 1_555
H7D C11D 1_555 1_555
H8D C11D 1_555 1_555
H9D C11D 1_555 1_555
S2 C3 1_555 1_555
C9 C10 1_555 1_555
S1F C3F 1_555 1_555
S2F C3F 1_555 1_555
O3F Mn1F 1_555 1_555
C7D C8D 1_555 1_555
C9D C10D 1_555 1_555

#END
