
#######################################################################
#
#                 Cambridge Crystallographic Data Centre
#                                CCDC 
#
#######################################################################
#
# If this CIF has been generated from an entry in the Cambridge 
# Structural Database, then it will include bibliographic, chemical, 
# crystal, experimental, refinement or atomic coordinate data resulting 
# from the CCDC's data processing and validation procedures.
#
#######################################################################

data_XUNSEG
_symmetry_cell_setting           monoclinic
_symmetry_space_group_name_H-M   'P 21/n'
_symmetry_Int_Tables_number      14
_space_group_name_Hall           '-P 2yn'
loop_
_symmetry_equiv_pos_site_id
_symmetry_equiv_pos_as_xyz
1 x,y,z
2 1/2-x,1/2+y,1/2-z
3 -x,-y,-z
4 1/2+x,1/2-y,1/2+z
_cell_length_a                   5.3881(8)
_cell_length_b                   14.1175(19)
_cell_length_c                   11.4098(18)
_cell_angle_alpha                90
_cell_angle_beta                 101.187(15)
_cell_angle_gamma                90
_cell_volume                     851.413
loop_
_atom_site_label
_atom_site_type_symbol
_atom_site_fract_x
_atom_site_fract_y
_atom_site_fract_z
O2 O 0.8416(6) 0.4392(2) 0.9272(3)
O3 O 0.4404(6) 0.3953(3) 0.9136(3)
C4 C 0.6897(8) 0.3066(3) 0.8061(4)
C5 C 0.6536(8) 0.3867(3) 0.8902(4)
N1 N 0.7221(7) 0.1642(3) 0.6383(4)
C6 C 0.5502(10) 0.1609(4) 0.7083(5)
H7 H 0.4378 0.1084 0.7003
C7 C 0.8765(9) 0.3082(4) 0.7387(4)
H8 H 0.9995 0.3572 0.7494
C8 C 0.8825(9) 0.2371(3) 0.6550(4)
H9 H 1.0079 0.2406 0.6069
C9 C 0.5272(9) 0.2297(3) 0.7918(4)
H10 H 0.4008 0.2243 0.8389
Li1 Li 0.2052(15) 0.4366(6) 1.0035(7)
O2_2 O -0.1584(6) 0.4392(2) 0.9272(3)
O2B O 0.1584(6) 0.5608(2) 1.0728(3)
N1C N 0.2221(7) 0.3358(3) 1.1383(4)
Li1_2 Li 1.2052(15) 0.4366(6) 1.0035(7)
Li1B Li 0.7948(15) 0.5634(6) 0.9965(7)
Li1C Li 0.7052(15) 0.0634(6) 0.5035(7)
C1 C 0.4265(12) 0.4987(4) 0.6164(6)
C2 C 0.3753(12) 0.4149(5) 0.5313(6)
H1 H 0.3802 0.3555 0.5778
H2 H 0.2043 0.4211 0.4810
C3 C 0.5712(12) 0.4105(5) 0.4521(6)
H3 H 0.7406 0.3994 0.5019
H4 H 0.5319 0.3570 0.3954
H5 H 0.5973 0.4899 0.6681
O1 O 0.2510(16) 0.5026(7) 0.6886(8)
H6 H 0.1063 0.5106 0.6465
C1B C 0.5735(12) 0.5013(4) 0.3836(6)
C2B C 0.6247(12) 0.5851(5) 0.4687(6)
H1B H 0.6198 0.6445 0.4222
H2B H 0.7957 0.5789 0.5190
C3B C 0.4288(12) 0.5895(5) 0.5479(6)
H3B H 0.2594 0.6006 0.4981
H4B H 0.4681 0.6430 0.6046
H5B H 0.4027 0.5101 0.3319
O1B O 0.7490(16) 0.4974(7) 0.3114(8)
H6B H 0.8937 0.4894 0.3535
H11? H 0.2939 0.5019 0.6654
H12? H 0.5918 0.4900 0.6708
loop_
_geom_bond_atom_site_label_1
_geom_bond_atom_site_label_2
_geom_bond_site_symmetry_1
_geom_bond_site_symmetry_2
C1 C2 1_555 1_555
C2 H1 1_555 1_555
H2 C2 1_555 1_555
C3 C2 1_555 1_555
H3 C3 1_555 1_555
H4 C3 1_555 1_555
H5 C1 1_555 1_555
O1 C1 1_555 1_555
H6 O1 1_555 1_555
O2 C5 1_555 1_555
O3 C5 1_555 1_555
C4 C5 1_555 1_555
N1 C6 1_555 1_555
C6 H7 1_555 1_555
C7 C4 1_555 1_555
H8 C7 1_555 1_555
C8 N1 1_555 1_555
H9 C8 1_555 1_555
C9 C4 1_555 1_555
H10 C9 1_555 1_555
Li1 O3 1_555 1_555
C1B C3 1_555 1_555
C2B C1B 1_555 1_555
H1B C2B 1_555 1_555
H2B C2B 1_555 1_555
C3B C1 1_555 1_555
H3B C3B 1_555 1_555
H4B C3B 1_555 1_555
H5B C1B 1_555 1_555
O1B C1B 1_555 1_555
H6B O1B 1_555 1_555
O2_2 Li1 1_555 1_555
O2B Li1 1_555 1_555
N1C Li1 1_555 1_555
Li1_2 O2 1_555 1_555
Li1B O2 1_555 1_555
Li1C N1 1_555 1_555
C6 C9 1_555 1_555
C7 C8 1_555 1_555
C2B C3B 1_555 1_555

#END
