
#######################################################################
#
#                 Cambridge Crystallographic Data Centre
#                                CCDC 
#
#######################################################################
#
# If this CIF has been generated from an entry in the Cambridge 
# Structural Database, then it will include bibliographic, chemical, 
# crystal, experimental, refinement or atomic coordinate data resulting 
# from the CCDC's data processing and validation procedures.
#
#######################################################################

data_XUNSUW
_symmetry_cell_setting           monoclinic
_symmetry_space_group_name_H-M   'P 21/n'
_symmetry_Int_Tables_number      14
_space_group_name_Hall           '-P 2yn'
loop_
_symmetry_equiv_pos_site_id
_symmetry_equiv_pos_as_xyz
1 x,y,z
2 1/2-x,1/2+y,1/2-z
3 -x,-y,-z
4 1/2+x,1/2-y,1/2+z
_cell_length_a                   10.2402(5)
_cell_length_b                   9.5023(4)
_cell_length_c                   15.2912(6)
_cell_angle_alpha                90
_cell_angle_beta                 98.328(4)
_cell_angle_gamma                90
_cell_volume                     1472.23
loop_
_atom_site_label
_atom_site_type_symbol
_atom_site_fract_x
_atom_site_fract_y
_atom_site_fract_z
O1 O 0.8350(5) 0.0730(5) 0.5734(3)
O2 O 0.6732(5) -0.1226(5) 0.4843(3)
O3 O 1.0348(5) 0.1657(5) 0.5698(3)
O4 O 0.8053(5) 0.1065(5) 0.3744(3)
H1 H 0.7287 0.1626 0.3757
N1 N 0.8801(6) 0.4308(6) 0.8184(4)
C1 C 0.9280(6) 0.1579(7) 0.5994(4)
O5 O 0.4642(5) -0.1881(5) 0.4447(3)
N2 N 0.7072(7) -0.6366(7) 0.4156(5)
C2 C 0.9080(6) 0.2564(7) 0.6737(4)
C3 C 0.6293(7) -0.3613(7) 0.4442(4)
C4 C 0.7866(7) 0.3387(9) 0.7863(5)
H2 H 0.7094 0.3329 0.8139
C5 C 0.7961(7) 0.2518(8) 0.7155(5)
H3 H 0.7262 0.1888 0.6951
C6 C 1.0060(7) 0.3520(7) 0.7069(4)
H4 H 1.0848 0.3589 0.6812
C7 C 0.5401(8) -0.4596(8) 0.4019(4)
H5 H 0.4510 -0.4338 0.3823
C8 C 0.5845(7) -0.2121(7) 0.4586(5)
C9 C 0.7576(8) -0.4050(8) 0.4722(5)
H6 H 0.8211 -0.3419 0.5018
C10 C 0.7910(8) -0.5428(9) 0.4560(6)
H7 H 0.8793 -0.5718 0.4749
C11 C 0.9876(7) 0.4366(8) 0.7776(4)
H8 H 1.0547 0.5024 0.7984
C12 C 0.5831(8) -0.5943(8) 0.3890(5)
H9 H 0.5218 -0.6602 0.3599
Li1 Li 0.6491(11) 0.0320(12) 0.5649(7)
Li2 Li 0.8386(12) -0.0387(13) 0.4647(8)
C13 C 0.8812(12) 0.1375(12) 0.3080(7)
H10 H 0.8404 0.2151 0.2717
H11 H 0.8863 0.0542 0.2708
H12 H 0.9703 0.1648 0.3349
O3B O 0.9652(5) -0.1657(5) 0.4302(3)
N1A N 0.6199(6) -0.0692(6) 0.6816(4)
O5B O 0.5358(5) 0.1881(5) 0.5553(3)
Li1A Li 0.8509(11) 0.5320(12) 0.9351(7)
Li1B Li 0.3509(11) -0.0320(12) 0.4351(7)
Li2B Li 1.1614(12) 0.0387(13) 0.5353(8)
loop_
_geom_bond_atom_site_label_1
_geom_bond_atom_site_label_2
_geom_bond_site_symmetry_1
_geom_bond_site_symmetry_2
O1 C1 1_555 1_555
O2 C8 1_555 1_555
O3 C1 1_555 1_555
O4 H1 1_555 1_555
N1 C4 1_555 1_555
C1 C2 1_555 1_555
O5 C8 1_555 1_555
N2 C10 1_555 1_555
C2 C5 1_555 1_555
C3 C7 1_555 1_555
C4 H2 1_555 1_555
C5 C4 1_555 1_555
H3 C5 1_555 1_555
C6 C2 1_555 1_555
H4 C6 1_555 1_555
C7 H5 1_555 1_555
C8 C3 1_555 1_555
C9 C3 1_555 1_555
H6 C9 1_555 1_555
C10 C9 1_555 1_555
H7 C10 1_555 1_555
C11 N1 1_555 1_555
H8 C11 1_555 1_555
C12 N2 1_555 1_555
H9 C12 1_555 1_555
Li1 O1 1_555 1_555
Li2 O1 1_555 1_555
C13 O4 1_555 1_555
H10 C13 1_555 1_555
H11 C13 1_555 1_555
H12 C13 1_555 1_555
O3B Li2 1_555 1_555
N1A Li1 1_555 1_555
O5B Li1 1_555 1_555
Li1A N1 1_555 1_555
Li1B O5 1_555 1_555
Li2B O3 1_555 1_555
O2 Li1 1_555 1_555
O2 Li2 1_555 1_555
O4 Li2 1_555 1_555
C6 C11 1_555 1_555
C7 C12 1_555 1_555

#END
