
#######################################################################
#
#                 Cambridge Crystallographic Data Centre
#                                CCDC 
#
#######################################################################
#
# If this CIF has been generated from an entry in the Cambridge 
# Structural Database, then it will include bibliographic, chemical, 
# crystal, experimental, refinement or atomic coordinate data resulting 
# from the CCDC's data processing and validation procedures.
#
#######################################################################

data_XUNSAC
_symmetry_cell_setting           monoclinic
_symmetry_space_group_name_H-M   'P 21'
_symmetry_Int_Tables_number      4
_space_group_name_Hall           'P 2yb'
loop_
_symmetry_equiv_pos_site_id
_symmetry_equiv_pos_as_xyz
1 x,y,z
2 -x,1/2+y,-z
_cell_length_a                   10.80930(10)
_cell_length_b                   14.3476(2)
_cell_length_c                   10.82430(10)
_cell_angle_alpha                90
_cell_angle_beta                 103.5590(10)
_cell_angle_gamma                90
_cell_volume                     1631.93
loop_
_atom_site_label
_atom_site_type_symbol
_atom_site_fract_x
_atom_site_fract_y
_atom_site_fract_z
C1 C 1.6258(2) 0.09061(18) 1.0598(2)
H1 H 1.6890 0.0433 1.0735
C2 C 1.1329(2) 0.74734(18) 0.4211(2)
H2 H 1.0724 0.7965 0.4072
C3 C 1.1224(2) 0.67836(19) 0.5071(2)
H3 H 1.0549 0.6800 0.5496
Li1 Li 0.4696(3) 0.4826(3) 0.7443(3)
O1 O 0.96551(13) 0.37736(11) 0.84329(13)
C4 C 1.04375(19) 0.24561(17) 0.97073(18)
N1 N 0.73495(19) 0.75282(15) 0.38151(17)
N2 N 1.02517(18) 0.10256(15) 1.14140(17)
O2 O 0.78777(13) 0.47123(12) 0.66526(13)
C5 C 1.05868(19) 0.32398(16) 0.88080(18)
C6 C 0.71116(19) 0.60559(17) 0.54370(19)
C7 C 1.1157(2) 0.16487(18) 0.9766(2)
H4 H 1.1731 0.1572 0.9230
C8 C 1.1023(2) 0.09565(18) 1.0620(2)
H5 H 1.1509 0.0402 1.0640
C9 C 0.9610(2) 0.25298(18) 1.05092(19)
H6 H 0.9086 0.3065 1.0483
C10 C 0.6944(2) 0.52548(17) 0.62875(19)
O3 O 1.09235(15) 0.52098(14) 0.64832(15)
O4 O 1.66880(14) 0.33885(13) 0.87327(14)
C11 C 0.6577(2) 0.7589(2) 0.4623(2)
H7 H 0.6119 0.8151 0.4644
O5 O 1.29066(13) 0.47426(11) 0.65723(13)
O6 O 1.16300(14) 0.32892(13) 0.85167(14)
C12 C 1.1966(2) 0.52801(16) 0.61990(18)
C13 C 0.9562(2) 0.18083(19) 1.13482(19)
H8 H 0.9009 0.1872 1.1908
O7 O 1.45904(13) 0.36166(12) 0.82628(13)
C14 C 0.8002(2) 0.67363(19) 0.38230(19)
H9 H 0.8539 0.6678 0.3247
C15 C 0.7935(2) 0.59936(18) 0.4629(2)
H10 H 0.8443 0.5453 0.4627
N3 N 1.22483(18) 0.74822(15) 0.35595(16)
C16 C 0.6420(2) 0.68707(19) 0.5424(2)
H11 H 0.5843 0.6935 0.5960
O8 O 0.58918(14) 0.51864(14) 0.65581(16)
Li2 Li 1.2736(3) 0.3583(3) 0.7479(3)
C17 C 1.6366(2) 0.16353(18) 0.97885(19)
H12 H 1.7066 0.1664 0.9397
C18 C 1.2109(2) 0.60691(17) 0.53117(19)
Li3 Li 0.9720(3) 0.4895(3) 0.7392(3)
C19 C 1.3106(2) 0.67917(19) 0.3805(2)
H13 H 1.3764 0.6787 0.3357
N4 N 1.53102(18) 0.08346(15) 1.11969(18)
C20 C 1.55717(19) 0.31735(17) 0.87747(18)
C21 C 1.4410(2) 0.1495(2) 1.0952(2)
H14 H 1.3726 0.1453 1.1363
C22 C 1.5435(2) 0.23236(16) 0.95591(19)
C23 C 1.3089(2) 0.60828(17) 0.4673(2)
H15 H 1.3732 0.5617 0.4829
Li4 Li 0.7820(3) 0.3601(3) 0.7659(3)
C24 C 1.4420(2) 0.22374(18) 1.0136(2)
H16 H 1.3746 0.2679 0.9974
Li1_2 Li 1.4696(3) 0.4826(3) 0.7443(3)
Li1A Li 1.5304(3) -0.0174(3) 1.2557(3)
N1A N 1.26505(19) 0.25282(15) 0.61849(17)
N2A N 0.97483(18) 0.60256(15) 0.85860(17)
O4_2 O 0.66880(14) 0.33885(13) 0.87327(14)
O5_2 O 0.29066(13) 0.47426(11) 0.65723(13)
O7_2 O 0.45904(13) 0.36166(12) 0.82628(13)
N3A N 0.77517(18) 0.24822(15) 0.64405(16)
Li2A Li 0.7264(3) 0.8583(3) 0.2521(3)
Li3A Li 1.0280(3) -0.0105(3) 1.2608(3)
N4A N 0.46898(18) 0.58346(15) 0.88031(18)
Li4_2 Li 1.7820(3) 0.3601(3) 0.7659(3)
Li4A Li 1.2180(3) 0.8601(3) 0.2341(3)
O9 O 1.74099(17) 0.46161(17) 1.08950(17)
H17 H 1.7273 0.4254 1.0268
C25 C 1.6513(2) 0.4437(2) 1.1645(2)
H18 H 1.5673 0.4301 1.1075
H19 H 1.6424 0.5002 1.2142
C26 C 1.5968(3) 0.3460(3) 1.3363(3)
H20 H 1.6238 0.2919 1.3912
H21 H 1.5122 0.3343 1.2816
H22 H 1.5935 0.4012 1.3889
C27 C 1.6908(2) 0.3626(2) 1.2545(2)
H23 H 1.7759 0.3753 1.3099
H24 H 1.6973 0.3056 1.2048
O10 O 0.95961(18) 0.50732(19) 0.2791(2)
H25 H 0.8985 0.4913 0.2195
C28 C 1.1363(3) 0.4689(3) 0.1835(3)
H26 H 1.1589 0.5359 0.1888
H27 H 1.0805 0.4572 0.0984
C29 C 1.0647(3) 0.4463(2) 0.2834(3)
H28 H 1.0332 0.3814 0.2714
H29 H 1.1236 0.4506 0.3683
C30 C 1.2563(3) 0.4115(3) 0.1985(3)
H30 H 1.2968 0.4254 0.1286
H31 H 1.2348 0.3451 0.1972
H32 H 1.3150 0.4269 0.2796
loop_
_geom_bond_atom_site_label_1
_geom_bond_atom_site_label_2
_geom_bond_site_symmetry_1
_geom_bond_site_symmetry_2
C1 H1 1_555 1_555
C2 H2 1_555 1_555
C3 C2 1_555 1_555
H3 C3 1_555 1_555
Li1 O8 1_555 1_555
O1 C5 1_555 1_555
C4 C5 1_555 1_555
N1 C11 1_555 1_555
N2 C8 1_555 1_555
O2 C10 1_555 1_555
C5 O6 1_555 1_555
C6 C10 1_555 1_555
C7 C4 1_555 1_555
H4 C7 1_555 1_555
C8 C7 1_555 1_555
H5 C8 1_555 1_555
C9 C4 1_555 1_555
H6 C9 1_555 1_555
C10 O8 1_555 1_555
O3 C12 1_555 1_555
O4 C20 1_555 1_555
C11 H7 1_555 1_555
O5 C12 1_555 1_555
O6 Li2 1_555 1_555
C12 C18 1_555 1_555
C13 N2 1_555 1_555
H8 C13 1_555 1_555
O7 Li2 1_555 1_555
C14 N1 1_555 1_555
H9 C14 1_555 1_555
C15 C6 1_555 1_555
H10 C15 1_555 1_555
N3 C2 1_555 1_555
C16 C6 1_555 1_555
H11 C16 1_555 1_555
Li2 O5 1_555 1_555
C17 C1 1_555 1_555
H12 C17 1_555 1_555
C18 C3 1_555 1_555
Li3 O1 1_555 1_555
C19 N3 1_555 1_555
H13 C19 1_555 1_555
N4 C1 1_555 1_555
C20 O7 1_555 1_555
C21 N4 1_555 1_555
H14 C21 1_555 1_555
C22 C17 1_555 1_555
C23 C18 1_555 1_555
H15 C23 1_555 1_555
Li4 O1 1_555 1_555
C24 C21 1_555 1_555
H16 C24 1_555 1_555
O9 H17 1_555 1_555
C25 O9 1_555 1_555
H18 C25 1_555 1_555
H19 C25 1_555 1_555
C26 H20 1_555 1_555
H21 C26 1_555 1_555
H22 C26 1_555 1_555
C27 C25 1_555 1_555
H23 C27 1_555 1_555
H24 C27 1_555 1_555
O10 H25 1_555 1_555
C28 H26 1_555 1_555
H27 C28 1_555 1_555
C29 O10 1_555 1_555
H28 C29 1_555 1_555
H29 C29 1_555 1_555
C30 C28 1_555 1_555
H30 C30 1_555 1_555
H31 C30 1_555 1_555
H32 C30 1_555 1_555
Li1_2 O5 1_555 1_555
Li1A N4 1_555 1_555
N1A Li2 1_555 1_555
N2A Li3 1_555 1_555
O4_2 Li4 1_555 1_555
O5_2 Li1 1_555 1_555
O7_2 Li1 1_555 1_555
N3A Li4 1_555 1_555
Li2A N1 1_555 1_555
Li3A N2 1_555 1_555
N4A Li1 1_555 1_555
Li4_2 O4 1_555 1_555
Li4A N3 1_555 1_555
O2 Li3 1_555 1_555
O2 Li4 1_555 1_555
C9 C13 1_555 1_555
O3 Li3 1_555 1_555
C11 C16 1_555 1_555
O7 Li1_2 1_555 1_555
C14 C15 1_555 1_555
C19 C23 1_555 1_555
C20 C22 1_555 1_555
C22 C24 1_555 1_555
C26 C27 1_555 1_555
C28 C29 1_555 1_555

#END
