
#######################################################################
#
#                 Cambridge Crystallographic Data Centre
#                                CCDC 
#
#######################################################################
#
# If this CIF has been generated from an entry in the Cambridge 
# Structural Database, then it will include bibliographic, chemical, 
# crystal, experimental, refinement or atomic coordinate data resulting 
# from the CCDC's data processing and validation procedures.
#
#######################################################################

data_XUNTUX
_symmetry_cell_setting           monoclinic
_symmetry_space_group_name_H-M   'C c'
_symmetry_Int_Tables_number      9
_space_group_name_Hall           'C -2yc'
loop_
_symmetry_equiv_pos_site_id
_symmetry_equiv_pos_as_xyz
1 x,y,z
2 x,-y,1/2+z
3 1/2+x,1/2+y,z
4 1/2+x,1/2-y,1/2+z
_cell_length_a                   7.1563(8)
_cell_length_b                   18.8826(12)
_cell_length_c                   6.2227(6)
_cell_angle_alpha                90
_cell_angle_beta                 115.463(13)
_cell_angle_gamma                90
_cell_volume                     759.191
loop_
_atom_site_label
_atom_site_type_symbol
_atom_site_fract_x
_atom_site_fract_y
_atom_site_fract_z
H1 H 0.674(8) 0.932(3) 0.520(9)
H2 H 0.761(11) 0.999(3) 0.585(11)
O1 O 0.3279(4) 0.90627(11) 0.7114(4)
N1 N 0.2235(4) 0.66662(13) 0.9860(4)
O2 O 0.2910(4) 0.93150(11) 1.0422(4)
O3 O 0.6474(3) 0.97457(11) 0.5260(4)
C1 C 0.2671(5) 0.76193(16) 0.7560(5)
H3 H 0.2853 0.7766 0.6202
C2 C 0.2572(5) 0.81159(16) 0.9155(5)
C3 C 0.2256(5) 0.78754(15) 1.1077(5)
H4 H 0.2149 0.8201 1.2184
C4 C 0.2936(5) 0.88956(15) 0.8858(5)
C5 C 0.2500(5) 0.69058(16) 0.7979(6)
H5 H 0.2574 0.6570 0.6880
C6 C 0.2099(5) 0.71506(16) 1.1362(5)
H6 H 0.1886 0.6991 1.2687
Li1 Li 0.4723(9) 0.9906(3) 0.6968(10)
O2A O 0.2910(4) 1.06850(11) 0.5422(4)
O3A O 0.6474(3) 1.02543(11) 1.0260(4)
Li1A Li 0.4723(9) 1.0094(3) 0.1968(10)
Li1A_2 Li 0.4723(9) 1.0094(3) 1.1968(10)
H7 H 0.580(9) 0.557(3) 0.642(10)
H8 H 0.567(12) 0.555(4) 0.887(15)
O4 O 0.4956(4) 0.55496(13) 0.7184(5)
loop_
_geom_bond_atom_site_label_1
_geom_bond_atom_site_label_2
_geom_bond_site_symmetry_1
_geom_bond_site_symmetry_2
H1 O3 1_555 1_555
H2 O3 1_555 1_555
O1 C4 1_555 1_555
N1 C5 1_555 1_555
O2 C4 1_555 1_555
O3 Li1 1_555 1_555
C1 H3 1_555 1_555
C2 C1 1_555 1_555
C3 C2 1_555 1_555
H4 C3 1_555 1_555
C4 C2 1_555 1_555
C5 C1 1_555 1_555
H5 C5 1_555 1_555
C6 N1 1_555 1_555
H6 C6 1_555 1_555
Li1 O1 1_555 1_555
H7 O4 1_555 1_555
H8 O4 1_555 1_555
O2A Li1 1_555 1_555
O3A Li1 1_555 1_555
Li1A O3 1_555 1_555
Li1A_2 O2 1_555 1_555
C3 C6 1_555 1_555
O3A Li1A_2 1_555 1_555

#END
