
#######################################################################
#
#                 Cambridge Crystallographic Data Centre
#                                CCDC 
#
#######################################################################
#
# If this CIF has been generated from an entry in the Cambridge 
# Structural Database, then it will include bibliographic, chemical, 
# crystal, experimental, refinement or atomic coordinate data resulting 
# from the CCDC's data processing and validation procedures.
#
#######################################################################

data_XUNTIL
_symmetry_cell_setting           monoclinic
_symmetry_space_group_name_H-M   'P 21/c'
_symmetry_Int_Tables_number      14
_space_group_name_Hall           '-P 2ybc'
loop_
_symmetry_equiv_pos_site_id
_symmetry_equiv_pos_as_xyz
1 x,y,z
2 -x,1/2+y,1/2-z
3 -x,-y,-z
4 x,1/2-y,1/2+z
_cell_length_a                   5.2038(14)
_cell_length_b                   14.516(7)
_cell_length_c                   10.295(5)
_cell_angle_alpha                90
_cell_angle_beta                 96.14(4)
_cell_angle_gamma                90
_cell_volume                     773.206
loop_
_atom_site_label
_atom_site_type_symbol
_atom_site_fract_x
_atom_site_fract_y
_atom_site_fract_z
S1 S 0.1863(16) 0.9790(5) 0.8971(7)
C1 C 0.0000 1.0000 1.0000
S1B S -0.1863(16) 1.0210(5) 1.1029(7)
O1 O 0.387(2) 1.0463(7) 0.5941(11)
O2 O 0.004(2) 1.1153(7) 0.5839(12)
N1 N 0.564(3) 1.3280(9) 0.8709(15)
C2 C 0.679(4) 1.2476(10) 0.8695(15)
H1 H 0.8337 1.2377 0.9257
C3 C 0.341(4) 1.1880(10) 0.7086(16)
C4 C 0.225(4) 1.1113(10) 0.6244(18)
C5 C 0.231(3) 1.2701(10) 0.7101(19)
H2 H 0.0799 1.2814 0.6518
C6 C 0.579(3) 1.1756(10) 0.7868(16)
H3 H 0.6712 1.1193 0.7836
C7 C 0.327(4) 1.3415(12) 0.7944(19)
H4 H 0.2342 1.3975 0.7994
Li1 Li 0.685(6) 1.4343(17) 0.998(2)
O1A O 0.613(2) 1.5463(7) 0.9059(11)
O1C O 0.387(2) 1.4537(7) 1.0941(11)
O2C O 1.004(2) 1.3847(7) 1.0839(12)
Li1A Li 0.315(6) 0.9343(17) 0.502(2)
Li1C Li -0.315(6) 1.0657(17) 0.498(2)
Li1C_2 Li 0.685(6) 1.0657(17) 0.498(2)
loop_
_geom_bond_atom_site_label_1
_geom_bond_atom_site_label_2
_geom_bond_site_symmetry_1
_geom_bond_site_symmetry_2
S1 C1 1_555 1_555
C1 S1B 1_555 1_555
O1 C4 1_555 1_555
O2 C4 1_555 1_555
N1 C2 1_555 1_555
C2 H1 1_555 1_555
C3 C4 1_555 1_555
C5 C3 1_555 1_555
H2 C5 1_555 1_555
C6 C2 1_555 1_555
H3 C6 1_555 1_555
C7 N1 1_555 1_555
H4 C7 1_555 1_555
Li1 N1 1_555 1_555
O1A Li1 1_555 1_555
O1C Li1 1_555 1_555
O2C Li1 1_555 1_555
Li1A O1 1_555 1_555
Li1C O2 1_555 1_555
Li1C_2 O1 1_555 1_555
C3 C6 1_555 1_555
C5 C7 1_555 1_555

#END
