
#######################################################################
#
#                 Cambridge Crystallographic Data Centre
#                                CCDC 
#
#######################################################################
#
# If this CIF has been generated from an entry in the Cambridge 
# Structural Database, then it will include bibliographic, chemical, 
# crystal, experimental, refinement or atomic coordinate data resulting 
# from the CCDC's data processing and validation procedures.
#
#######################################################################

data_XUNTEH
_symmetry_cell_setting           orthorhombic
_symmetry_space_group_name_H-M   'P n a 21'
_symmetry_Int_Tables_number      33
_space_group_name_Hall           'P 2c -2n'
loop_
_symmetry_equiv_pos_site_id
_symmetry_equiv_pos_as_xyz
1 x,y,z
2 -x,-y,1/2+z
3 1/2+x,1/2-y,z
4 1/2-x,1/2+y,1/2+z
_cell_length_a                   10.680(2)
_cell_length_b                   13.732(2)
_cell_length_c                   4.9114(10)
_cell_angle_alpha                90
_cell_angle_beta                 90
_cell_angle_gamma                90
_cell_volume                     720.295
loop_
_atom_site_label
_atom_site_type_symbol
_atom_site_fract_x
_atom_site_fract_y
_atom_site_fract_z
O1 O 0.9057(2) 0.54267(16) 0.1981(6)
N1 N 0.6281(3) 0.83126(19) 0.0183(8)
O2 O 0.9159(3) 0.62866(18) 0.5840(7)
C1 C 0.8781(3) 0.6147(3) 0.3469(8)
C2 C 0.7097(3) 0.6682(2) 0.0188(10)
H1 H 0.7092 0.6048 -0.0584
C3 C 0.7898(3) 0.6903(2) 0.2283(9)
C4 C 0.7885(4) 0.7844(3) 0.3345(10)
H2 H 0.8427 0.8023 0.4794
C5 C 0.6294(3) 0.7396(2) -0.0790(9)
H3 H 0.5729 0.7231 -0.2209
C6 C 0.7059(4) 0.8511(2) 0.2230(11)
H4 H 0.7047 0.9150 0.2971
Li1 Li 0.9939(5) 0.4330(4) 0.3603(14)
O1A O 1.0943(2) 0.45733(16) 0.6981(6)
N1C N 0.8719(3) 0.33126(19) 0.5183(8)
O2A O 1.0841(3) 0.37134(18) 0.0840(7)
Li1A Li 1.0061(5) 0.5670(4) -0.1397(14)
Li1A_2 Li 1.0061(5) 0.5670(4) 0.8603(14)
Li1C Li 0.5061(5) 0.9330(4) -0.1397(14)
loop_
_geom_bond_atom_site_label_1
_geom_bond_atom_site_label_2
_geom_bond_site_symmetry_1
_geom_bond_site_symmetry_2
O1 C1 1_555 1_555
N1 C5 1_555 1_555
O2 C1 1_555 1_555
C1 C3 1_555 1_555
C2 H1 1_555 1_555
C3 C2 1_555 1_555
C4 C3 1_555 1_555
H2 C4 1_555 1_555
C5 C2 1_555 1_555
H3 C5 1_555 1_555
C6 N1 1_555 1_555
H4 C6 1_555 1_555
Li1 O1 1_555 1_555
O1A Li1 1_555 1_555
N1C Li1 1_555 1_555
O2A Li1 1_555 1_555
Li1A O1 1_555 1_555
Li1A_2 O2 1_555 1_555
Li1C N1 1_555 1_555
C4 C6 1_555 1_555
O1A Li1A_2 1_555 1_555

#END
