
#######################################################################
#
#                 Cambridge Crystallographic Data Centre
#                                CCDC 
#
#######################################################################
#
# If this CIF has been generated from an entry in the Cambridge 
# Structural Database, then it will include bibliographic, chemical, 
# crystal, experimental, refinement or atomic coordinate data resulting 
# from the CCDC's data processing and validation procedures.
#
#######################################################################

data_XUNVAF
_symmetry_cell_setting           cubic
_symmetry_space_group_name_H-M   'I a -3 d'
_symmetry_Int_Tables_number      230
_space_group_name_Hall           '-I 4bd 2c 3'
loop_
_symmetry_equiv_pos_site_id
_symmetry_equiv_pos_as_xyz
1 x,y,z
2 1/4-y,3/4+x,1/4+z
3 x,-y,1/2-z
4 z,x,y
5 1/2-x,-y,1/2+z
6 1/4-y,1/4-x,1/4-z
7 1/4+y,3/4+x,3/4-z
8 1/4+z,1/4-y,3/4+x
9 1/4-x,3/4+z,1/4+y
10 1/2-z,x,-y
11 z,-x,1/2-y
12 y,z,x
13 1/4+y,1/4-x,3/4+z
14 1/2-x,y,-z
15 1/2-z,-x,1/2+y
16 1/4-z,1/4-y,1/4-x
17 1/4-x,1/4-z,1/4-y
18 1/4+z,3/4+y,3/4-x
19 1/4+x,3/4+z,3/4-y
20 1/4-z,3/4+y,1/4+x
21 -y,1/2-z,x
22 y,-z,1/2-x
23 1/2-y,z,-x
24 1/4+x,1/4-z,3/4+y
25 1/2+x,1/2+y,1/2+z
26 3/4-y,1/4+x,3/4+z
27 1/2+x,1/2-y,-z
28 1/2+z,1/2+x,1/2+y
29 -x,1/2-y,z
30 3/4-y,3/4-x,3/4-z
31 3/4+y,1/4+x,1/4-z
32 3/4+z,3/4-y,1/4+x
33 3/4-x,1/4+z,3/4+y
34 -z,1/2+x,1/2-y
35 1/2+z,1/2-x,-y
36 1/2+y,1/2+z,1/2+x
37 3/4+y,3/4-x,1/4+z
38 -x,1/2+y,1/2-z
39 -z,1/2-x,y
40 3/4-z,3/4-y,3/4-x
41 3/4-x,3/4-z,3/4-y
42 3/4+z,1/4+y,1/4-x
43 3/4+x,1/4+z,1/4-y
44 3/4-z,1/4+y,3/4+x
45 1/2-y,-z,1/2+x
46 1/2+y,1/2-z,-x
47 -y,1/2+z,1/2-x
48 3/4+x,3/4-z,1/4+y
49 -x,-y,-z
50 3/4+y,1/4-x,3/4-z
51 -x,y,1/2+z
52 -z,-x,-y
53 1/2+x,y,1/2-z
54 3/4+y,3/4+x,3/4+z
55 3/4-y,1/4-x,1/4+z
56 3/4-z,3/4+y,1/4-x
57 3/4+x,1/4-z,3/4-y
58 1/2+z,-x,y
59 -z,x,1/2+y
60 -y,-z,-x
61 3/4-y,3/4+x,1/4-z
62 1/2+x,-y,z
63 1/2+z,x,1/2-y
64 3/4+z,3/4+y,3/4+x
65 3/4+x,3/4+z,3/4+y
66 3/4-z,1/4-y,1/4+x
67 3/4-x,1/4-z,1/4+y
68 3/4+z,1/4-y,3/4-x
69 y,1/2+z,-x
70 -y,z,1/2+x
71 1/2+y,-z,x
72 3/4-x,3/4+z,1/4-y
73 1/2-x,1/2-y,1/2-z
74 1/4+y,3/4-x,1/4-z
75 1/2-x,1/2+y,z
76 1/2-z,1/2-x,1/2-y
77 x,1/2+y,-z
78 1/4+y,1/4+x,1/4+z
79 1/4-y,3/4-x,3/4+z
80 1/4-z,1/4+y,3/4-x
81 1/4+x,3/4-z,1/4-y
82 z,1/2-x,1/2+y
83 1/2-z,1/2+x,y
84 1/2-y,1/2-z,1/2-x
85 1/4-y,1/4+x,3/4-z
86 x,1/2-y,1/2+z
87 z,1/2+x,-y
88 1/4+z,1/4+y,1/4+x
89 1/4+x,1/4+z,1/4+y
90 1/4-z,3/4-y,3/4+x
91 1/4-x,3/4-z,3/4+y
92 1/4+z,3/4-y,1/4-x
93 1/2+y,z,1/2-x
94 1/2-y,1/2+z,x
95 y,1/2-z,1/2+x
96 1/4-x,1/4+z,3/4-y
_cell_length_a                   37.0156(11)
_cell_length_b                   37.0156(11)
_cell_length_c                   37.0156(11)
_cell_angle_alpha                90
_cell_angle_beta                 90
_cell_angle_gamma                90
_cell_volume                     50717.1
loop_
_atom_site_label
_atom_site_type_symbol
_atom_site_fract_x
_atom_site_fract_y
_atom_site_fract_z
Zn1 Zn 0.5000 0.5000 0.5000
Zn2 Zn 0.44242(4) 0.44242(4) 0.44242(4)
O1 O 0.45304(13) 0.47463(14) 0.51731(12)
O2 O 0.42829(19) 0.4277(2) 0.48956(17)
O3 O 0.40894(17) 0.40894(17) 0.40894(17)
C1 C 0.44525(15) 0.38424(17) 0.59885(17)
C2 C 0.39052(15) 0.41914(19) 0.60424(18)
C3 C 0.45237(16) 0.40210(18) 0.56625(19)
C4 C 0.42963(16) 0.42819(17) 0.55421(18)
C5 C 0.47101(16) 0.35354(17) 0.61078(19)
H1 H 0.4661 0.3322 0.5968
H2 H 0.4673 0.3485 0.6359
H3 H 0.4956 0.3609 0.6069
C6 C 0.39819(16) 0.43650(18) 0.57231(16)
C7 C 0.4371(2) 0.4439(3) 0.5172(3)
C8 C 0.41436(16) 0.39326(18) 0.61829(17)
C9 C 0.35542(14) 0.43011(16) 0.62474(16)
H4 H 0.3475 0.4534 0.6166
H5 H 0.3602 0.4311 0.6502
H6 H 0.3369 0.4126 0.6201
C10 C 0.4366(2) 0.3750 0.6866(2)
C11 C 0.48692(17) 0.39122(19) 0.5444(2)
H7 H 0.5080 0.3960 0.5587
H8 H 0.4880 0.4050 0.5225
H9 H 0.4859 0.3659 0.5387
C12 C 0.4534(2) 0.4076(2) 0.6978(2)
C13 C 0.37255(16) 0.4652(2) 0.55689(18)
H10 H 0.3807 0.4723 0.5333
H11 H 0.3724 0.4859 0.5725
H12 H 0.3486 0.4554 0.5552
C14 C 0.4809(3) 0.4053(3) 0.7248(3)
C15 C 0.44171(19) 0.44261(19) 0.6828(2)
H13 H 0.4609 0.4528 0.6687
H14 H 0.4358 0.4587 0.7023
H15 H 0.4209 0.4391 0.6678
B1 B 0.4066(2) 0.3750 0.6566(2)
C16 C 0.4920(5) 0.3750 0.7420(5)
H16 H 0.5098 0.3750 0.7598
C17 C 0.4961(3) 0.4444(3) 0.7339(3)
H17 H 0.4773 0.4587 0.7446
H18 H 0.5043 0.4558 0.7121
H19 H 0.5159 0.4424 0.7506
O1EA O 0.26731(12) 0.27537(14) 0.70304(13)
O2EA O 0.23956(17) 0.3223(2) 0.67829(19)
C1EA C 0.34885(17) 0.36576(17) 0.69525(15)
C2EA C 0.35424(18) 0.33086(19) 0.64052(15)
C3EA C 0.31625(19) 0.34790(18) 0.70237(16)
C4EA C 0.30421(18) 0.32181(17) 0.67963(16)
C5EA C 0.36078(19) 0.39646(17) 0.72101(16)
H1EA H 0.3468 0.4178 0.7161
H2EA H 0.3859 0.4015 0.7173
H3EA H 0.3569 0.3891 0.7456
C6EA C 0.32231(16) 0.31350(18) 0.64819(16)
C7EA C 0.2672(3) 0.3061(3) 0.6871(2)
C8EA C 0.36829(17) 0.35674(18) 0.66436(16)
C9EA C 0.37474(16) 0.31989(16) 0.60542(14)
H4EA H 0.3666 0.2966 0.5975
H5EA H 0.4002 0.3189 0.6102
H6EA H 0.3701 0.3374 0.5869
C11EA C 0.2944(2) 0.35878(19) 0.73692(17)
H7EA H 0.3087 0.3540 0.7580
H8EA H 0.2725 0.3450 0.7380
H9EA H 0.2887 0.3841 0.7359
C12EA C 0.4478(2) 0.3424(2) 0.7034(2)
C13EA C 0.30689(18) 0.2848(2) 0.62255(16)
H10EA H 0.2833 0.2777 0.6307
H11EA H 0.3225 0.2641 0.6224
H12EA H 0.3052 0.2946 0.5986
C14EA C 0.4748(3) 0.3447(3) 0.7309(3)
C15EA C 0.4328(2) 0.30739(19) 0.69171(19)
H13EA H 0.4187 0.2972 0.7109
H14EA H 0.4523 0.2913 0.6858
H15EA H 0.4178 0.3109 0.6709
C17EA C 0.4839(3) 0.3056(3) 0.7461(3)
H17EA H 0.4946 0.2913 0.7273
H18EA H 0.4621 0.2942 0.7543
H19EA H 0.5006 0.3076 0.7659
Zn2VA Zn 0.55758(4) 0.55758(4) 0.55758(4)
O3VA O 0.59106(17) 0.59106(17) 0.59106(17)
O1YA O 0.48269(12) 0.54696(13) 0.52537(14)
O2YA O 0.51044(17) 0.57171(19) 0.5723(2)
C1YA C 0.40115(17) 0.55475(15) 0.61576(17)
C2YA C 0.39576(18) 0.60948(15) 0.58086(19)
C3YA C 0.43375(19) 0.54763(16) 0.59790(18)
C4YA C 0.44579(18) 0.57037(16) 0.57181(17)
C5YA C 0.38922(19) 0.52899(16) 0.64646(17)
H1YA H 0.4032 0.5339 0.6678
H2YA H 0.3641 0.5327 0.6515
H3YA H 0.3931 0.5044 0.6391
C6YA C 0.42769(16) 0.60181(16) 0.56350(18)
C7YA C 0.4828(3) 0.5629(2) 0.5561(3)
C8YA C 0.38171(17) 0.58564(16) 0.60674(18)
C9YA C 0.37526(16) 0.64458(14) 0.56989(16)
H4YA H 0.3834 0.6525 0.5466
H5YA H 0.3498 0.6398 0.5689
H6YA H 0.3799 0.6631 0.5874
C10YA C 0.3134(2) 0.5634(2) 0.6250
C11YA C 0.4556(2) 0.51308(17) 0.60878(19)
H7YA H 0.4413 0.4920 0.6040
H8YA H 0.4775 0.5120 0.5950
H9YA H 0.4613 0.5141 0.6341
C12YA C 0.3022(2) 0.5466(2) 0.5924(2)
C13YA C 0.44311(18) 0.62745(16) 0.5348(2)
H10YA H 0.4667 0.6193 0.5277
H11YA H 0.4275 0.6276 0.5141
H12YA H 0.4448 0.6514 0.5446
C14YA C 0.2752(3) 0.5191(3) 0.5947(3)
C15YA C 0.3172(2) 0.55829(19) 0.55739(19)
H13YA H 0.3313 0.5391 0.5472
H14YA H 0.2977 0.5642 0.5413
H15YA H 0.3322 0.5791 0.5609
B1YA B 0.3434(2) 0.5934(2) 0.6250
C16YA C 0.2580(5) 0.5080(5) 0.6250
H16YA H 0.2402 0.4902 0.6250
C17YA C 0.2661(3) 0.5039(3) 0.5556(3)
H17YA H 0.2554 0.5227 0.5413
H18YA H 0.2879 0.4957 0.5442
H19YA H 0.2494 0.4841 0.5576
O1NB O 0.29696(13) 0.73269(12) 0.72463(14)
O2NB O 0.32171(19) 0.76044(17) 0.6777(2)
C1NB C 0.30475(15) 0.65115(17) 0.63424(17)
C2NB C 0.35948(15) 0.64576(18) 0.66914(19)
C3NB C 0.29763(16) 0.68375(19) 0.65210(18)
C4NB C 0.32037(16) 0.69579(18) 0.67819(17)
C5NB C 0.27899(16) 0.63922(19) 0.60354(17)
H1NB H 0.2839 0.6532 0.5822
H2NB H 0.2827 0.6141 0.5985
H3NB H 0.2544 0.6431 0.6109
C6NB C 0.35181(16) 0.67769(16) 0.68650(18)
C7NB C 0.3129(2) 0.7328(3) 0.6939(3)
C8NB C 0.33564(16) 0.63171(17) 0.64326(18)
C9NB C 0.39458(14) 0.62526(16) 0.68011(16)
H4NB H 0.4025 0.6334 0.7034
H5NB H 0.3898 0.5998 0.6811
H6NB H 0.4131 0.6299 0.6626
C11NB C 0.26308(17) 0.7056(2) 0.64122(19)
H7NB H 0.2420 0.6913 0.6460
H8NB H 0.2620 0.7275 0.6550
H9NB H 0.2641 0.7113 0.6159
C12NB C 0.2966(2) 0.5522(2) 0.6576(2)
C13NB C 0.37745(16) 0.69311(18) 0.7152(2)
H10NB H 0.3693 0.7167 0.7223
H11NB H 0.3776 0.6775 0.7359
H12NB H 0.4014 0.6948 0.7054
C14NB C 0.2691(3) 0.5252(3) 0.6553(3)
C15NB C 0.30829(19) 0.5672(2) 0.69261(19)
H13NB H 0.2891 0.5813 0.7028
H14NB H 0.3142 0.5477 0.7087
H15NB H 0.3291 0.5822 0.6891
C17NB C 0.2539(3) 0.5161(3) 0.6944(3)
H17NB H 0.2727 0.5054 0.7087
H18NB H 0.2457 0.5379 0.7058
H19NB H 0.2341 0.4994 0.6924
O1GB O 0.52537(14) 0.48269(12) 0.54696(13)
O2GB O 0.5723(2) 0.51044(17) 0.57171(19)
C1GB C 0.61576(17) 0.40115(17) 0.55475(15)
C2GB C 0.58086(19) 0.39576(18) 0.60948(15)
C3GB C 0.59790(18) 0.43375(19) 0.54763(16)
C4GB C 0.57181(17) 0.44579(18) 0.57037(16)
C5GB C 0.64646(17) 0.38922(19) 0.52899(16)
H1GB H 0.6678 0.4032 0.5339
H2GB H 0.6515 0.3641 0.5327
H3GB H 0.6391 0.3931 0.5044
C6GB C 0.56350(18) 0.42769(16) 0.60181(16)
C7GB C 0.5561(3) 0.4828(3) 0.5629(2)
C8GB C 0.60674(18) 0.38171(17) 0.58564(16)
C9GB C 0.56989(16) 0.37526(16) 0.64458(14)
H4GB H 0.5466 0.3834 0.6525
H5GB H 0.5689 0.3498 0.6398
H6GB H 0.5874 0.3799 0.6631
C10GB C 0.6250 0.3134(2) 0.5634(2)
C11GB C 0.60878(19) 0.4556(2) 0.51308(17)
H7GB H 0.6040 0.4413 0.4920
H8GB H 0.5950 0.4775 0.5120
H9GB H 0.6341 0.4613 0.5141
C12GB C 0.5924(2) 0.3022(2) 0.5466(2)
C13GB C 0.5348(2) 0.44311(18) 0.62745(16)
H10GB H 0.5277 0.4667 0.6193
H11GB H 0.5141 0.4275 0.6276
H12GB H 0.5446 0.4448 0.6514
C14GB C 0.5947(3) 0.2752(3) 0.5191(3)
C15GB C 0.55739(19) 0.3172(2) 0.55829(19)
H13GB H 0.5472 0.3313 0.5391
H14GB H 0.5413 0.2977 0.5642
H15GB H 0.5609 0.3322 0.5791
B1GB B 0.6250 0.3434(2) 0.5934(2)
C16GB C 0.6250 0.2580(5) 0.5080(5)
H16GB H 0.6250 0.2402 0.4902
C17GB C 0.5556(3) 0.2661(3) 0.5039(3)
H17GB H 0.5413 0.2554 0.5227
H18GB H 0.5442 0.2879 0.4957
H19GB H 0.5576 0.2494 0.4841
O1UB O 0.72463(14) 0.29696(13) 0.73269(12)
O2UB O 0.6777(2) 0.32171(19) 0.76044(17)
C1UB C 0.63424(17) 0.30475(15) 0.65115(17)
C2UB C 0.66914(19) 0.35948(15) 0.64576(18)
C3UB C 0.65210(18) 0.29763(16) 0.68375(19)
C4UB C 0.67819(17) 0.32037(16) 0.69579(18)
C5UB C 0.60354(17) 0.27899(16) 0.63922(19)
H1UB H 0.5822 0.2839 0.6532
H2UB H 0.5985 0.2827 0.6141
H3UB H 0.6109 0.2544 0.6431
C6UB C 0.68650(18) 0.35181(16) 0.67769(16)
C7UB C 0.6939(3) 0.3129(2) 0.7328(3)
C8UB C 0.64326(18) 0.33564(16) 0.63171(17)
C9UB C 0.68011(16) 0.39458(14) 0.62526(16)
H4UB H 0.7034 0.4025 0.6334
H5UB H 0.6811 0.3898 0.5998
H6UB H 0.6626 0.4131 0.6299
C11UB C 0.64122(19) 0.26308(17) 0.7056(2)
H7UB H 0.6460 0.2420 0.6913
H8UB H 0.6550 0.2620 0.7275
H9UB H 0.6159 0.2641 0.7113
C12UB C 0.6576(2) 0.2966(2) 0.5522(2)
C13UB C 0.7152(2) 0.37745(16) 0.69311(18)
H10UB H 0.7223 0.3693 0.7167
H11UB H 0.7359 0.3776 0.6775
H12UB H 0.7054 0.4014 0.6948
C14UB C 0.6553(3) 0.2691(3) 0.5252(3)
C15UB C 0.69261(19) 0.30829(19) 0.5672(2)
H13UB H 0.7028 0.2891 0.5813
H14UB H 0.7087 0.3142 0.5477
H15UB H 0.6891 0.3291 0.5822
C17UB C 0.6944(3) 0.2539(3) 0.5161(3)
H17UB H 0.7087 0.2727 0.5054
H18UB H 0.7058 0.2457 0.5379
H19UB H 0.6924 0.2341 0.4994
Zn1A Zn 0.7500 0.2500 0.7500
Zn1DA Zn 0.2500 0.7500 0.7500
Zn1EA Zn 0.2500 0.2500 0.7500
Zn2EA Zn 0.19242(4) 0.30758(4) 0.69242(4)
Zn2BB Zn 0.30758(4) 0.80758(4) 0.69242(4)
Zn2UB Zn 0.69242(4) 0.30758(4) 0.80758(4)
O1C O 0.51731(12) 0.45304(13) 0.47463(14)
O1K O 0.47463(14) 0.51731(12) 0.45304(13)
O1VA O 0.54696(13) 0.52537(14) 0.48269(12)
O2C O 0.48956(17) 0.42829(19) 0.4277(2)
O2K O 0.4277(2) 0.48956(17) 0.42829(19)
O2VA O 0.57171(19) 0.5723(2) 0.51044(17)
loop_
_geom_bond_atom_site_label_1
_geom_bond_atom_site_label_2
_geom_bond_site_symmetry_1
_geom_bond_site_symmetry_2
Zn1 O1 1_555 1_555
Zn2 O2 1_555 1_555
O1 C7 1_555 1_555
O2 C7 1_555 1_555
O3 Zn2 1_555 1_555
C1 C3 1_555 1_555
C2 C6 1_555 1_555
C3 C4 1_555 1_555
C4 C6 1_555 1_555
C5 C1 1_555 1_555
H1 C5 1_555 1_555
H2 C5 1_555 1_555
H3 C5 1_555 1_555
C6 C13 1_555 1_555
C7 C4 1_555 1_555
C8 C1 1_555 1_555
C9 C2 1_555 1_555
H4 C9 1_555 1_555
H5 C9 1_555 1_555
H6 C9 1_555 1_555
C10 C12 1_555 1_555
C11 C3 1_555 1_555
H7 C11 1_555 1_555
H8 C11 1_555 1_555
H9 C11 1_555 1_555
C12 C14 1_555 1_555
C13 H10 1_555 1_555
H11 C13 1_555 1_555
H12 C13 1_555 1_555
C14 C16 1_555 1_555
C15 C12 1_555 1_555
H13 C15 1_555 1_555
H14 C15 1_555 1_555
H15 C15 1_555 1_555
B1 C8 1_555 1_555
C16 H16 1_555 1_555
C17 C14 1_555 1_555
H17 C17 1_555 1_555
H18 C17 1_555 1_555
H19 C17 1_555 1_555
O1EA C7EA 1_555 1_555
O2EA C7EA 1_555 1_555
C1EA C3EA 1_555 1_555
C2EA C6EA 1_555 1_555
C3EA C4EA 1_555 1_555
C4EA C6EA 1_555 1_555
C5EA C1EA 1_555 1_555
H1EA C5EA 1_555 1_555
H2EA C5EA 1_555 1_555
H3EA C5EA 1_555 1_555
C6EA C13EA 1_555 1_555
C7EA C4EA 1_555 1_555
C8EA B1 1_555 1_555
C9EA C2EA 1_555 1_555
H4EA C9EA 1_555 1_555
H5EA C9EA 1_555 1_555
H6EA C9EA 1_555 1_555
C11EA C3EA 1_555 1_555
H7EA C11EA 1_555 1_555
H8EA C11EA 1_555 1_555
H9EA C11EA 1_555 1_555
C12EA C10 1_555 1_555
C13EA H10EA 1_555 1_555
H11EA C13EA 1_555 1_555
H12EA C13EA 1_555 1_555
C14EA C16 1_555 1_555
C15EA C12EA 1_555 1_555
H13EA C15EA 1_555 1_555
H14EA C15EA 1_555 1_555
H15EA C15EA 1_555 1_555
C17EA C14EA 1_555 1_555
H17EA C17EA 1_555 1_555
H18EA C17EA 1_555 1_555
H19EA C17EA 1_555 1_555
Zn2VA O3VA 1_555 1_555
O1YA Zn1 1_555 1_555
O2YA Zn2VA 1_555 1_555
C1YA C3YA 1_555 1_555
C2YA C6YA 1_555 1_555
C3YA C4YA 1_555 1_555
C4YA C6YA 1_555 1_555
C5YA C1YA 1_555 1_555
H1YA C5YA 1_555 1_555
H2YA C5YA 1_555 1_555
H3YA C5YA 1_555 1_555
C6YA C13YA 1_555 1_555
C7YA O1YA 1_555 1_555
C8YA C1YA 1_555 1_555
C9YA C2YA 1_555 1_555
H4YA C9YA 1_555 1_555
H5YA C9YA 1_555 1_555
H6YA C9YA 1_555 1_555
C10YA C12YA 1_555 1_555
C11YA C3YA 1_555 1_555
H7YA C11YA 1_555 1_555
H8YA C11YA 1_555 1_555
H9YA C11YA 1_555 1_555
C12YA C14YA 1_555 1_555
C13YA H10YA 1_555 1_555
H11YA C13YA 1_555 1_555
H12YA C13YA 1_555 1_555
C14YA C16YA 1_555 1_555
C15YA C12YA 1_555 1_555
H13YA C15YA 1_555 1_555
H14YA C15YA 1_555 1_555
H15YA C15YA 1_555 1_555
B1YA C8YA 1_555 1_555
C16YA H16YA 1_555 1_555
C17YA C14YA 1_555 1_555
H17YA C17YA 1_555 1_555
H18YA C17YA 1_555 1_555
H19YA C17YA 1_555 1_555
O1NB C7NB 1_555 1_555
O2NB C7NB 1_555 1_555
C1NB C3NB 1_555 1_555
C2NB C6NB 1_555 1_555
C3NB C4NB 1_555 1_555
C4NB C6NB 1_555 1_555
C5NB C1NB 1_555 1_555
H1NB C5NB 1_555 1_555
H2NB C5NB 1_555 1_555
H3NB C5NB 1_555 1_555
C6NB C13NB 1_555 1_555
C7NB C4NB 1_555 1_555
C8NB B1YA 1_555 1_555
C9NB C2NB 1_555 1_555
H4NB C9NB 1_555 1_555
H5NB C9NB 1_555 1_555
H6NB C9NB 1_555 1_555
C11NB C3NB 1_555 1_555
H7NB C11NB 1_555 1_555
H8NB C11NB 1_555 1_555
H9NB C11NB 1_555 1_555
C12NB C10YA 1_555 1_555
C13NB H10NB 1_555 1_555
H11NB C13NB 1_555 1_555
H12NB C13NB 1_555 1_555
C14NB C16YA 1_555 1_555
C15NB C12NB 1_555 1_555
H13NB C15NB 1_555 1_555
H14NB C15NB 1_555 1_555
H15NB C15NB 1_555 1_555
C17NB C14NB 1_555 1_555
H17NB C17NB 1_555 1_555
H18NB C17NB 1_555 1_555
H19NB C17NB 1_555 1_555
O1GB Zn1 1_555 1_555
O2GB Zn2VA 1_555 1_555
C1GB C3GB 1_555 1_555
C2GB C6GB 1_555 1_555
C3GB C4GB 1_555 1_555
C4GB C6GB 1_555 1_555
C5GB C1GB 1_555 1_555
H1GB C5GB 1_555 1_555
H2GB C5GB 1_555 1_555
H3GB C5GB 1_555 1_555
C6GB C13GB 1_555 1_555
C7GB O1GB 1_555 1_555
C8GB C1GB 1_555 1_555
C9GB C2GB 1_555 1_555
H4GB C9GB 1_555 1_555
H5GB C9GB 1_555 1_555
H6GB C9GB 1_555 1_555
C10GB C12GB 1_555 1_555
C11GB C3GB 1_555 1_555
H7GB C11GB 1_555 1_555
H8GB C11GB 1_555 1_555
H9GB C11GB 1_555 1_555
C12GB C14GB 1_555 1_555
C13GB H10GB 1_555 1_555
H11GB C13GB 1_555 1_555
H12GB C13GB 1_555 1_555
C14GB C16GB 1_555 1_555
C15GB C12GB 1_555 1_555
H13GB C15GB 1_555 1_555
H14GB C15GB 1_555 1_555
H15GB C15GB 1_555 1_555
B1GB C8GB 1_555 1_555
C16GB H16GB 1_555 1_555
C17GB C14GB 1_555 1_555
H17GB C17GB 1_555 1_555
H18GB C17GB 1_555 1_555
H19GB C17GB 1_555 1_555
O1UB C7UB 1_555 1_555
O2UB C7UB 1_555 1_555
C1UB C3UB 1_555 1_555
C2UB C6UB 1_555 1_555
C3UB C4UB 1_555 1_555
C4UB C6UB 1_555 1_555
C5UB C1UB 1_555 1_555
H1UB C5UB 1_555 1_555
H2UB C5UB 1_555 1_555
H3UB C5UB 1_555 1_555
C6UB C13UB 1_555 1_555
C7UB C4UB 1_555 1_555
C8UB B1GB 1_555 1_555
C9UB C2UB 1_555 1_555
H4UB C9UB 1_555 1_555
H5UB C9UB 1_555 1_555
H6UB C9UB 1_555 1_555
C11UB C3UB 1_555 1_555
H7UB C11UB 1_555 1_555
H8UB C11UB 1_555 1_555
H9UB C11UB 1_555 1_555
C12UB C10GB 1_555 1_555
C13UB H10UB 1_555 1_555
H11UB C13UB 1_555 1_555
H12UB C13UB 1_555 1_555
C14UB C16GB 1_555 1_555
C15UB C12UB 1_555 1_555
H13UB C15UB 1_555 1_555
H14UB C15UB 1_555 1_555
H15UB C15UB 1_555 1_555
C17UB C14UB 1_555 1_555
H17UB C17UB 1_555 1_555
H18UB C17UB 1_555 1_555
H19UB C17UB 1_555 1_555
Zn1A O1UB 1_555 1_555
Zn1DA O1NB 1_555 1_555
Zn1EA O1EA 1_555 1_555
Zn2EA O2EA 1_555 1_555
Zn2BB O2NB 1_555 1_555
Zn2UB O2UB 1_555 1_555
O1C Zn1 1_555 1_555
O1K Zn1 1_555 1_555
O1VA Zn1 1_555 1_555
O2C Zn2 1_555 1_555
O2K Zn2 1_555 1_555
O2VA Zn2VA 1_555 1_555
C2 C8 1_555 1_555
C10 B1 1_555 1_555
C1EA C8EA 1_555 1_555
C2EA C8EA 1_555 1_555
C12EA C14EA 1_555 1_555
O2YA C7YA 1_555 1_555
C2YA C8YA 1_555 1_555
C4YA C7YA 1_555 1_555
C10YA B1YA 1_555 1_555
C1NB C8NB 1_555 1_555
C2NB C8NB 1_555 1_555
C12NB C14NB 1_555 1_555
O2GB C7GB 1_555 1_555
C2GB C8GB 1_555 1_555
C4GB C7GB 1_555 1_555
C10GB B1GB 1_555 1_555
C1UB C8UB 1_555 1_555
C2UB C8UB 1_555 1_555
C12UB C14UB 1_555 1_555

#END
