
#######################################################################
#
#                 Cambridge Crystallographic Data Centre
#                                CCDC 
#
#######################################################################
#
# If this CIF has been generated from an entry in the Cambridge 
# Structural Database, then it will include bibliographic, chemical, 
# crystal, experimental, refinement or atomic coordinate data resulting 
# from the CCDC's data processing and validation procedures.
#
#######################################################################

data_XUNXOU02
_symmetry_cell_setting           monoclinic
_symmetry_space_group_name_H-M   'P 21'
_symmetry_Int_Tables_number      4
_space_group_name_Hall           'P 2yb'
loop_
_symmetry_equiv_pos_site_id
_symmetry_equiv_pos_as_xyz
1 x,y,z
2 -x,1/2+y,-z
_cell_length_a                   10.4550(4)
_cell_length_b                   14.6532(8)
_cell_length_c                   18.1135(10)
_cell_angle_alpha                90
_cell_angle_beta                 94.095(2)
_cell_angle_gamma                90
_cell_volume                     2767.89
loop_
_atom_site_label
_atom_site_type_symbol
_atom_site_fract_x
_atom_site_fract_y
_atom_site_fract_z
Cr1 Cr 0.79829(13) 0.02612(11) 0.00750(9)
Na1 Na 0.7038(3) 0.3980(2) -0.00828(17)
C1 C 0.8066(8) 0.2111(7) 0.0325(5)
C2 C 0.7065(8) 0.1959(6) -0.0358(4)
O1 O 0.8659(5) 0.1401(4) 0.0564(3)
O2 O 0.6983(5) 0.1133(4) -0.0576(3)
O3 O 0.6507(6) 0.2629(5) -0.0640(4)
O4 O 0.8214(6) 0.2883(4) 0.0590(4)
C3 C 1.0312(8) -0.0531(6) 0.0500(5)
C4 C 1.0480(7) -0.0044(6) -0.0258(5)
O5 O 0.9183(6) -0.0504(4) 0.0713(3)
O6 O 0.9430(5) 0.0239(4) -0.0583(3)
O7 O 1.1557(5) 0.0038(4) -0.0489(3)
O8 O 1.1279(6) -0.0864(6) 0.0847(3)
C5 C 0.5584(8) -0.0136(6) 0.0481(5)
C6 C 0.5824(8) -0.0732(6) -0.0225(4)
O9 O 0.6556(5) 0.0240(5) 0.0760(3)
O10 O 0.6954(6) -0.0749(4) -0.0413(3)
O11 O 0.4879(6) -0.1145(5) -0.0531(3)
O12 O 0.4466(6) -0.0090(5) 0.0693(4)
Na1A Na 0.2962(3) -0.1020(2) 0.00828(17)
Na1A_2 Na 1.2962(3) -0.1020(2) 0.00828(17)
O7A O 0.8443(5) 0.5038(4) 0.0489(3)
O8A O 0.8721(6) 0.4136(6) -0.0847(3)
O11A O 0.5121(6) 0.3855(5) 0.0531(3)
O12A O 0.5534(6) 0.4910(5) -0.0693(4)
C7 C 0.6013(8) 0.2199(7) 0.1812(5)
H1 H 0.5816 0.2488 0.1323
H2 H 0.6727 0.1766 0.1760
C8 C 0.4859(9) 0.1666(7) 0.2005(5)
H3 H 0.4567 0.1280 0.1578
H4 H 0.4158 0.2097 0.2096
C9 C 0.6016(9) 0.1664(7) 0.3410(5)
C10 C 0.6583(8) 0.2449(7) 0.3272(5)
C11 C 0.7237(8) 0.2101(8) 0.4659(6)
C12 C 0.7805(8) 0.2098(8) 0.5344(6)
C13 C 0.9031(7) 0.2556(6) 0.6570(5)
C14 C 0.8477(8) 0.1742(7) 0.6716(6)
C15 C 0.9127(9) 0.2034(7) 0.8227(6)
H5 H 0.8421 0.2465 0.8308
H6 H 0.9380 0.1739 0.8707
C16 C 1.0242(8) 0.2556(7) 0.7978(5)
H7 H 1.0918 0.2115 0.7865
H8 H 1.0591 0.2940 0.8395
S1 S 0.6554(2) 0.30642(19) 0.24483(16)
S2 S 0.5151(2) 0.09427(18) 0.28147(15)
S3 S 0.6202(2) 0.1239(2) 0.43319(14)
S4 S 0.7451(2) 0.29977(19) 0.40342(15)
S5 S 0.8817(2) 0.2997(2) 0.56816(14)
S6 S 0.7566(2) 0.12217(19) 0.59909(14)
S7 S 0.8539(2) 0.11517(19) 0.75582(16)
S8 S 0.9923(2) 0.3279(2) 0.71838(15)
C17 C 0.0116(11) 0.1037(10) 0.2063(7)
H9 H -0.0185 0.1642 0.2223
H10 H 0.0187 0.1069 0.1522
C18 C -0.0910(13) 0.0343(11) 0.2207(6)
H11 H -0.0583 -0.0282 0.2133
H12 H -0.1672 0.0440 0.1859
C19 C 0.0139(8) 0.0618(8) 0.3667(5)
C20 C 0.1308(8) 0.0753(7) 0.3406(5)
C21 C 0.1651(7) 0.0725(8) 0.4846(4)
C22 C 0.2179(8) 0.0692(8) 0.5562(4)
C23 C 0.3745(8) 0.0679(7) 0.6720(5)
C24 C 0.2550(7) 0.0548(7) 0.6992(5)
C25 C 0.3579(8) 0.0795(9) 0.8383(5)
H13 H 0.3611 0.1468 0.8336
H14 H 0.3526 0.0651 0.8914
C26 C 0.4771(8) 0.0424(10) 0.8148(5)
H15 H 0.4718 -0.0250 0.8173
H16 H 0.5472 0.0618 0.8511
S9 S 0.1717(2) 0.0854(3) 0.25014(13)
S10 S -0.1343(2) 0.0480(2) 0.31553(12)
S11 S 0.0035(2) 0.0579(2) 0.46164(12)
S12 S 0.2586(2) 0.0860(2) 0.40902(13)
S13 S 0.3823(2) 0.0818(2) 0.57797(12)
S14 S 0.12673(19) 0.0557(2) 0.63043(12)
S15 S 0.21318(18) 0.03961(18) 0.78864(11)
S16 S 0.52130(19) 0.07291(19) 0.72403(12)
C29 C 0.1442(8) 0.3353(5) 0.1655(5)
H21 H 0.1494 0.3423 0.1115
H22 H 0.1416 0.2691 0.1764
C30 C 0.0201(7) 0.3781(6) 0.1869(4)
H23 H -0.0509 0.3577 0.1517
H24 H 0.0268 0.4453 0.1828
C31 C 0.1329(8) 0.3554(6) 0.3285(4)
C32 C 0.2487(8) 0.3686(7) 0.3049(5)
C33 C 0.2888(8) 0.3543(7) 0.4457(5)
C34 C 0.3400(8) 0.3555(7) 0.5179(5)
C35 C 0.4948(7) 0.3634(6) 0.6364(4)
C36 C 0.3766(9) 0.3490(8) 0.6590(5)
C37 C 0.4898(10) 0.3139(10) 0.7996(8)
H25 H 0.4801 0.3167 0.8535
H26 H 0.5162 0.2509 0.7879
C38 C 0.5964(11) 0.3786(11) 0.7815(6)
H27 H 0.6733 0.3641 0.8145
H28 H 0.5698 0.4415 0.7932
S17 S 0.28734(19) 0.38284(18) 0.21201(12)
S18 S -0.01782(19) 0.34877(18) 0.28051(13)
S19 S 0.1268(2) 0.3423(2) 0.42457(13)
S20 S 0.3794(2) 0.3706(2) 0.37009(12)
S21 S 0.5044(2) 0.3707(2) 0.54051(13)
S22 S 0.2505(2) 0.3384(2) 0.59193(13)
S23 S 0.3347(2) 0.3360(2) 0.75134(13)
S24 S 0.6412(2) 0.37658(19) 0.68734(13)
C41 C 0.3237(12) 0.1952(8) 0.0232(6)
H33 H 0.3697 0.2426 0.0527
H34 H 0.3851 0.1587 -0.0026
H35 H 0.2775 0.1557 0.0559
N1 N 0.2366(9) 0.2361(7) -0.0285(5)
O13 O 0.1235(7) 0.2333(6) -0.0158(5)
O14 O 0.2748(6) 0.2710(5) -0.0854(3)
C27? C 0.0309(13) 0.0583(17) 0.1975(10)
H17? H 0.0370 0.0829 0.1470
H18? H 0.0251 -0.0090 0.1932
C28? C -0.0897(18) 0.0925(16) 0.2264(9)
H19? H -0.1609 0.0791 0.1890
H20? H -0.0831 0.1597 0.2306
C39? C 0.4821(17) 0.362(2) 0.8001(15)
H29? H 0.4925 0.4289 0.8007
H30? H 0.4774 0.3416 0.8520
C40? C 0.599(2) 0.3209(19) 0.7712(11)
H31? H 0.5837 0.2552 0.7611
H32? H 0.6713 0.3261 0.8093
loop_
_geom_bond_atom_site_label_1
_geom_bond_atom_site_label_2
_geom_bond_site_symmetry_1
_geom_bond_site_symmetry_2
Cr1 O1 1_555 1_555
Na1 O3 1_555 1_555
C1 C2 1_555 1_555
C2 O2 1_555 1_555
O1 C1 1_555 1_555
O2 Cr1 1_555 1_555
O3 C2 1_555 1_555
O4 Na1 1_555 1_555
C3 C4 1_555 1_555
C4 O6 1_555 1_555
O5 Cr1 1_555 1_555
O6 Cr1 1_555 1_555
O7 C4 1_555 1_555
O8 C3 1_555 1_555
C5 C6 1_555 1_555
C6 O10 1_555 1_555
O9 Cr1 1_555 1_555
O10 Cr1 1_555 1_555
O11 C6 1_555 1_555
O12 C5 1_555 1_555
C7 H1 1_555 1_555
H2 C7 1_555 1_555
C8 C7 1_555 1_555
H3 C8 1_555 1_555
H4 C8 1_555 1_555
C9 C10 1_555 1_555
C10 S1 1_555 1_555
C11 C12 1_555 1_555
C12 S5 1_555 1_555
C13 C14 1_555 1_555
C14 S6 1_555 1_555
C15 H5 1_555 1_555
H6 C15 1_555 1_555
C16 C15 1_555 1_555
H7 C16 1_555 1_555
H8 C16 1_555 1_555
S1 C7 1_555 1_555
S2 C8 1_555 1_555
S3 C9 1_555 1_555
S4 C10 1_555 1_555
S5 C13 1_555 1_555
S6 C12 1_555 1_555
S7 C14 1_555 1_555
S8 C13 1_555 1_555
C17 H9 1_555 1_555
H10 C17 1_555 1_555
C18 C17 1_555 1_555
H11 C18 1_555 1_555
H12 C18 1_555 1_555
C19 C20 1_555 1_555
C20 S9 1_555 1_555
C21 C22 1_555 1_555
C22 S13 1_555 1_555
C23 C24 1_555 1_555
C24 S14 1_555 1_555
C25 H13 1_555 1_555
H14 C25 1_555 1_555
C26 C25 1_555 1_555
H15 C26 1_555 1_555
H16 C26 1_555 1_555
S9 C17 1_555 1_555
S10 C18 1_555 1_555
S11 C19 1_555 1_555
S12 C20 1_555 1_555
S13 C23 1_555 1_555
S14 C22 1_555 1_555
S15 C24 1_555 1_555
S16 C23 1_555 1_555
C29 H21 1_555 1_555
H22 C29 1_555 1_555
C30 C29 1_555 1_555
H23 C30 1_555 1_555
H24 C30 1_555 1_555
C31 C32 1_555 1_555
C32 S17 1_555 1_555
C33 C34 1_555 1_555
C34 S21 1_555 1_555
C35 C36 1_555 1_555
C36 S22 1_555 1_555
C37 H25 1_555 1_555
H26 C37 1_555 1_555
C38 C37 1_555 1_555
H27 C38 1_555 1_555
H28 C38 1_555 1_555
S17 C29 1_555 1_555
S18 C30 1_555 1_555
S19 C31 1_555 1_555
S20 C32 1_555 1_555
S21 C35 1_555 1_555
S22 C34 1_555 1_555
S23 C36 1_555 1_555
S24 C35 1_555 1_555
C41 H33 1_555 1_555
H34 C41 1_555 1_555
H35 C41 1_555 1_555
N1 C41 1_555 1_555
O13 N1 1_555 1_555
O14 N1 1_555 1_555
Na1A O11 1_555 1_555
Na1A_2 O7 1_555 1_555
O7A Na1 1_555 1_555
O8A Na1 1_555 1_555
O11A Na1 1_555 1_555
O12A Na1 1_555 1_555
C1 O4 1_555 1_555
C3 O5 1_555 1_555
O8 Na1A_2 1_555 1_555
C5 O9 1_555 1_555
O12 Na1A 1_555 1_555
C9 S2 1_555 1_555
C11 S3 1_555 1_555
C11 S4 1_555 1_555
C15 S7 1_555 1_555
C16 S8 1_555 1_555
C19 S10 1_555 1_555
C21 S11 1_555 1_555
C21 S12 1_555 1_555
C25 S15 1_555 1_555
C26 S16 1_555 1_555
C31 S18 1_555 1_555
C33 S19 1_555 1_555
C33 S20 1_555 1_555
C37 S23 1_555 1_555
C38 S24 1_555 1_555

#END
