
#######################################################################
#
#                 Cambridge Crystallographic Data Centre
#                                CCDC 
#
#######################################################################
#
# If this CIF has been generated from an entry in the Cambridge 
# Structural Database, then it will include bibliographic, chemical, 
# crystal, experimental, refinement or atomic coordinate data resulting 
# from the CCDC's data processing and validation procedures.
#
#######################################################################

data_XUPBAM
_symmetry_cell_setting           monoclinic
_symmetry_space_group_name_H-M   'P 21/c'
_symmetry_Int_Tables_number      14
_space_group_name_Hall           '-P 2ybc'
loop_
_symmetry_equiv_pos_site_id
_symmetry_equiv_pos_as_xyz
1 x,y,z
2 -x,1/2+y,1/2-z
3 -x,-y,-z
4 x,1/2-y,1/2+z
_cell_length_a                   8.077(2)
_cell_length_b                   10.766(3)
_cell_length_c                   18.439(6)
_cell_angle_alpha                90
_cell_angle_beta                 97.32(4)
_cell_angle_gamma                90
_cell_volume                     1590.33
loop_
_atom_site_label
_atom_site_type_symbol
_atom_site_fract_x
_atom_site_fract_y
_atom_site_fract_z
Cd1 Cd 0.711666(17) 0.308767(13) 0.178679(7)
O1 O 0.9725(2) 0.22009(17) 0.14840(12)
O2 O 0.7736(2) 0.09113(16) 0.16779(10)
O3 O 1.3727(2) -0.00818(16) 0.22633(10)
O4 O 1.1527(2) -0.13012(16) 0.21442(8)
O5 O 0.4721(2) 0.23159(17) 0.20958(10)
N1 N 0.7914(2) 0.48235(16) 0.11318(9)
N2 N 0.6063(2) 0.28640(16) 0.05404(10)
C1 C 0.8859(3) 0.5747(2) 0.14137(13)
C2 C 0.9479(3) 0.6672(2) 0.09922(16)
C3 C 0.9050(3) 0.6650(2) 0.02575(15)
C4 C 0.8030(2) 0.5694(2) -0.00672(11)
C5 C 0.7532(3) 0.5613(2) -0.08381(12)
C6 C 0.6595(3) 0.4665(3) -0.11276(12)
C7 C 0.6072(3) 0.3693(2) -0.06747(11)
C8 C 0.5127(3) 0.2669(3) -0.09579(13)
C9 C 0.4680(3) 0.1776(2) -0.04907(16)
C10 C 0.5170(3) 0.1909(2) 0.02544(15)
C11 C 0.7500(2) 0.47821(18) 0.03974(10)
C12 C 0.6516(2) 0.37494(19) 0.00835(10)
C13 C 0.9084(3) 0.1150(2) 0.14344(11)
C14 C 0.9875(3) 0.0156(2) 0.10177(11)
H1 H 0.9569 0.0295 0.0498
H2 H 0.9427 -0.0645 0.1136
C15 C 1.1771(3) 0.0111(2) 0.11799(11)
H3 H 1.2205 -0.0368 0.0801
H4 H 1.2205 0.0949 0.1161
C16 C 1.2402(2) -0.0451(2) 0.19146(11)
H5 H 0.949(4) 0.721(3) -0.0035(17)
H6 H 0.629(3) 0.462(3) -0.1627(15)
H7 H 1.016(4) 0.727(3) 0.1262(18)
H8 H 0.488(4) 0.138(3) 0.0582(16)
H9 H 0.912(3) 0.575(3) 0.1904(16)
H10 H 0.786(4) 0.620(3) -0.1144(18)
H11 H 0.408(4) 0.110(3) -0.0666(15)
H12 H 0.485(3) 0.256(3) -0.1487(16)
H13 H 0.449(3) 0.1563(9) 0.2145(16)
H14 H 0.395(3) 0.2752(18) 0.2225(18)
Cd1A Cd 1.288334(17) -0.191233(13) 0.321321(7)
O4A O 0.8473(2) 0.36988(16) 0.28558(8)
O6 O 0.2295(2) 0.3579(2) 0.26450(11)
H15 H 0.237(4) 0.4276(19) 0.285(2)
H16 H 0.133(2) 0.345(3) 0.2447(18)
loop_
_geom_bond_atom_site_label_1
_geom_bond_atom_site_label_2
_geom_bond_site_symmetry_1
_geom_bond_site_symmetry_2
Cd1 O1 1_555 1_555
O1 C13 1_555 1_555
O2 Cd1 1_555 1_555
O3 C16 1_555 1_555
O4 C16 1_555 1_555
O5 Cd1 1_555 1_555
N1 Cd1 1_555 1_555
N2 Cd1 1_555 1_555
C1 N1 1_555 1_555
C2 C1 1_555 1_555
C3 C2 1_555 1_555
C4 C3 1_555 1_555
C5 C4 1_555 1_555
C6 C5 1_555 1_555
C7 C6 1_555 1_555
C8 C7 1_555 1_555
C9 C8 1_555 1_555
C10 N2 1_555 1_555
C11 N1 1_555 1_555
C12 N2 1_555 1_555
C13 O2 1_555 1_555
C14 C13 1_555 1_555
H1 C14 1_555 1_555
H2 C14 1_555 1_555
C15 C14 1_555 1_555
H3 C15 1_555 1_555
H4 C15 1_555 1_555
C16 C15 1_555 1_555
H5 C3 1_555 1_555
H6 C6 1_555 1_555
H7 C2 1_555 1_555
H8 C10 1_555 1_555
H9 C1 1_555 1_555
H10 C5 1_555 1_555
H11 C9 1_555 1_555
H12 C8 1_555 1_555
H13 O5 1_555 1_555
H14 O5 1_555 1_555
O6 H15 1_555 1_555
H16 O6 1_555 1_555
Cd1A O4 1_555 1_555
O4A Cd1 1_555 1_555
C4 C11 1_555 1_555
C7 C12 1_555 1_555
C9 C10 1_555 1_555
C11 C12 1_555 1_555

#END
