
#######################################################################
#
#                 Cambridge Crystallographic Data Centre
#                                CCDC 
#
#######################################################################
#
# If this CIF has been generated from an entry in the Cambridge 
# Structural Database, then it will include bibliographic, chemical, 
# crystal, experimental, refinement or atomic coordinate data resulting 
# from the CCDC's data processing and validation procedures.
#
#######################################################################

data_XUPBUG
_symmetry_cell_setting           orthorhombic
_symmetry_space_group_name_H-M   'P b c n'
_symmetry_Int_Tables_number      60
_space_group_name_Hall           '-P 2n 2ab'
loop_
_symmetry_equiv_pos_site_id
_symmetry_equiv_pos_as_xyz
1 x,y,z
2 1/2-x,1/2-y,1/2+z
3 -x,y,1/2-z
4 1/2+x,1/2-y,-z
5 -x,-y,-z
6 1/2+x,1/2+y,1/2-z
7 x,-y,1/2+z
8 1/2-x,1/2+y,z
_cell_length_a                   15.605(3)
_cell_length_b                   13.958(3)
_cell_length_c                   21.282(4)
_cell_angle_alpha                90
_cell_angle_beta                 90
_cell_angle_gamma                90
_cell_volume                     4635.53
loop_
_atom_site_label
_atom_site_type_symbol
_atom_site_fract_x
_atom_site_fract_y
_atom_site_fract_z
Co1 Co 0.15605(3) 0.88157(3) 0.39332(2)
N1 N 0.1378(2) 0.9820(2) 0.32089(14)
O1 O 0.15808(19) 0.7732(2) 0.45674(14)
N2 N 0.1330(2) 0.7932(2) 0.31502(15)
O2 O 0.2918(2) 0.8711(2) 0.37170(16)
O3 O 0.0220(2) 0.8915(2) 0.41300(15)
C1 C 0.1421(3) 1.0778(3) 0.3265(2)
H1 H 0.1565 1.1032 0.3655
C2 C 0.1159(3) 0.8389(3) 0.26127(17)
C3 C 0.1174(3) 0.9443(3) 0.26431(17)
O4 O 0.2951(2) 0.7399(2) 0.46248(18)
C4 C 0.2007(3) 0.6682(3) 0.53782(18)
H2 H 0.1404 0.6488 0.5355
C5 C 0.2137(4) 0.7245(3) 0.5978(2)
H3 H 0.2702 0.7535 0.5976
H4 H 0.1716 0.7755 0.6002
C6 C 0.1003(3) 1.0027(3) 0.21370(19)
H5 H 0.0859 0.9765 0.1749
C7 C 0.2555(3) 0.5786(3) 0.53938(19)
H6 H 0.3142 0.5971 0.5502
C8 C 0.2204(3) 0.7322(3) 0.4812(2)
C9 C 0.1347(3) 0.6976(3) 0.3153(2)
H7 H 0.1476 0.6661 0.3526
C10 C 0.2050(3) 0.6605(3) 0.6533(2)
H8 H 0.1974 0.6886 0.6925
C11 C 0.2074(3) 0.5660(3) 0.6501(2)
H9 H 0.1998 0.5314 0.6870
C12 C 0.2214(3) 0.5119(3) 0.5909(2)
H10 H 0.1679 0.4833 0.5773
H11 H 0.2622 0.4606 0.5982
C13 C 0.1181(4) 0.6437(4) 0.2626(3)
H12 H 0.1197 0.5771 0.2642
C14 C 0.0966(3) 0.7879(4) 0.2070(2)
H13 H 0.0821 0.8201 0.1703
C15 C 0.1050(4) 1.1016(4) 0.2215(2)
H14 H 0.0933 1.1422 0.1879
C16 C 0.1269(4) 1.1390(3) 0.2790(3)
H15 H 0.1311 1.2049 0.2850
C17 C 0.0991(3) 0.6903(3) 0.2080(2)
H16 H 0.0879 0.6555 0.1716
C18 C 0.2574(3) 0.5257(3) 0.47715(18)
O5 O 0.1945(2) 0.5316(2) 0.44170(16)
O6 O 0.32196(19) 0.47739(19) 0.46542(13)
H17 H 0.310(3) 0.8282(18) 0.3959(18)
H18 H 0.016(3) 0.9477(11) 0.425(2)
H19 H 0.309(3) 0.9247(13) 0.385(2)
H20 H 0.013(4) 0.853(2) 0.4426(15)
Co1G Co 0.34395(3) 0.38157(3) 0.39332(2)
O6G O 0.17804(19) 0.97739(19) 0.46542(13)
O7 O -0.0585(2) 1.0622(3) 0.43741(15)
H21 H -0.055(3) 1.0092(18) 0.419(2)
H22 H -0.102(2) 1.062(3) 0.461(2)
O8 O 0.5193(5) 0.9340(6) 0.5519(4)
H23 H 0.506(4) 0.940(3) 0.5145(9)
H24 H 0.519(4) 0.986(2) 0.5709(17)
O9 O 0.4637(5) 0.7283(6) 0.4956(6)
H25 H 0.446(3) 0.761(3) 0.5265(13)
H26 H 0.436(3) 0.741(3) 0.4636(12)
loop_
_geom_bond_atom_site_label_1
_geom_bond_atom_site_label_2
_geom_bond_site_symmetry_1
_geom_bond_site_symmetry_2
Co1 N1 1_555 1_555
N1 C1 1_555 1_555
O1 Co1 1_555 1_555
N2 Co1 1_555 1_555
O2 Co1 1_555 1_555
O3 Co1 1_555 1_555
C1 H1 1_555 1_555
C2 N2 1_555 1_555
C3 N1 1_555 1_555
O4 C8 1_555 1_555
C4 H2 1_555 1_555
C5 C4 1_555 1_555
H3 C5 1_555 1_555
H4 C5 1_555 1_555
C6 C3 1_555 1_555
H5 C6 1_555 1_555
C7 C4 1_555 1_555
H6 C7 1_555 1_555
C8 O1 1_555 1_555
C9 N2 1_555 1_555
H7 C9 1_555 1_555
C10 C5 1_555 1_555
H8 C10 1_555 1_555
C11 C10 1_555 1_555
H9 C11 1_555 1_555
C12 C7 1_555 1_555
H10 C12 1_555 1_555
H11 C12 1_555 1_555
C13 C9 1_555 1_555
H12 C13 1_555 1_555
C14 C2 1_555 1_555
H13 C14 1_555 1_555
C15 C6 1_555 1_555
H14 C15 1_555 1_555
C16 C1 1_555 1_555
H15 C16 1_555 1_555
C17 C13 1_555 1_555
H16 C17 1_555 1_555
C18 C7 1_555 1_555
O5 C18 1_555 1_555
O6 C18 1_555 1_555
H17 O2 1_555 1_555
H18 O3 1_555 1_555
H19 O2 1_555 1_555
H20 O3 1_555 1_555
O7 H21 1_555 1_555
H22 O7 1_555 1_555
O8 H23 1_555 1_555
H24 O8 1_555 1_555
O9 H25 1_555 1_555
H26 O9 1_555 1_555
Co1G O6 1_555 1_555
O6G Co1 1_555 1_555
C2 C3 1_555 1_555
C4 C8 1_555 1_555
C11 C12 1_555 1_555
C14 C17 1_555 1_555
C15 C16 1_555 1_555

#END
