
#######################################################################
#
#                 Cambridge Crystallographic Data Centre
#                                CCDC 
#
#######################################################################
#
# If this CIF has been generated from an entry in the Cambridge 
# Structural Database, then it will include bibliographic, chemical, 
# crystal, experimental, refinement or atomic coordinate data resulting 
# from the CCDC's data processing and validation procedures.
#
#######################################################################

data_XUPBUF
_symmetry_cell_setting           orthorhombic
_symmetry_space_group_name_H-M   'F d d 2'
_symmetry_Int_Tables_number      43
_space_group_name_Hall           'F 2 -2d'
loop_
_symmetry_equiv_pos_site_id
_symmetry_equiv_pos_as_xyz
1 x,y,z
2 -x,-y,z
3 1/4+x,1/4-y,1/4+z
4 1/4-x,1/4+y,1/4+z
5 x,1/2+y,1/2+z
6 -x,1/2-y,1/2+z
7 1/4+x,3/4-y,3/4+z
8 1/4-x,3/4+y,3/4+z
9 1/2+x,y,1/2+z
10 1/2-x,-y,1/2+z
11 3/4+x,1/4-y,3/4+z
12 3/4-x,1/4+y,3/4+z
13 1/2+x,1/2+y,z
14 1/2-x,1/2-y,z
15 3/4+x,3/4-y,1/4+z
16 3/4-x,3/4+y,1/4+z
_cell_length_a                   17.693(2)
_cell_length_b                   23.712(4)
_cell_length_c                   9.7052(16)
_cell_angle_alpha                90
_cell_angle_beta                 90
_cell_angle_gamma                90
_cell_volume                     4071.68
loop_
_atom_site_label
_atom_site_type_symbol
_atom_site_fract_x
_atom_site_fract_y
_atom_site_fract_z
Tb1 Tb 0.095678(16) 0.315536(15) 0.64340(4)
O1 O 0.0136(3) 0.2543(2) 0.5264(6)
O2 O -0.0183(3) 0.2279(3) 0.3129(5)
O3 O -0.2323(3) 0.1160(2) 0.8735(6)
O4 O -0.1336(3) 0.1718(3) 0.9174(6)
O5 O 0.1285(3) 0.41421(19) 0.6437(10)
O6 O 0.1564(2) 0.22619(19) 0.6432(8)
O7 O 0.2649(3) 0.17755(19) 0.6576(8)
N1 N -0.1356(3) 0.1691(3) 0.4027(10)
C1 C -0.1932(5) 0.1379(4) 0.4477(9)
H1 H -0.226(4) 0.126(3) 0.388(10)
C2 C -0.2095(4) 0.1289(3) 0.5851(9)
H2 H -0.239(4) 0.095(4) 0.610(10)
C3 C -0.1665(4) 0.1574(3) 0.6840(8)
C4 C -0.1084(5) 0.1918(4) 0.6362(17)
H3 H -0.077(5) 0.222(3) 0.692(9)
C5 C -0.0956(3) 0.1976(3) 0.4988(8)
C6 C -0.0274(4) 0.2305(3) 0.4431(8)
C7 C -0.1791(4) 0.1479(3) 0.8363(9)
C8 C 0.2280(3) 0.2214(3) 0.6527(9)
C8M C 0.2720(3) 0.2786(3) 0.6527(9)
O6M O 0.3436(2) 0.27381(19) 0.6432(8)
O7M O 0.2351(3) 0.32245(19) 0.6576(8)
O1E O -0.0136(3) 0.2457(2) 1.0264(6)
O2E O 0.0183(3) 0.2721(3) 0.8129(5)
O3E O 0.2323(3) 0.3840(2) 1.3735(6)
O4E O 0.1336(3) 0.3282(3) 1.4174(6)
N1E N 0.1356(3) 0.3309(3) 0.9027(10)
C1E C 0.1932(5) 0.3621(4) 0.9477(9)
H1E H 0.226(4) 0.374(3) 0.888(10)
C2E C 0.2095(4) 0.3711(3) 1.0851(9)
H2E H 0.239(4) 0.405(4) 1.110(10)
C3E C 0.1665(4) 0.3426(3) 1.1840(8)
C4E C 0.1084(5) 0.3082(4) 1.1362(17)
H3E H 0.077(5) 0.278(3) 1.192(9)
C5E C 0.0956(3) 0.3024(3) 0.9988(8)
C6E C 0.0274(4) 0.2695(3) 0.9431(8)
C7E C 0.1791(4) 0.3521(3) 1.3363(9)
Tb1E Tb -0.095678(16) 0.184464(15) 1.14340(4)
O5E O -0.1285(3) 0.08579(19) 1.1437(10)
O3K O -0.0177(3) 0.3660(2) 0.6235(6)
O4E_2 O 0.1336(3) 0.3282(3) 0.4174(6)
Tb1E_2 Tb -0.095678(16) 0.184464(15) 0.14340(4)
Tb1O Tb -0.345678(16) 0.065536(15) 0.89340(4)
Tb1M Tb 0.404322(16) 0.184464(15) 0.64340(4)
Tb1F Tb 0.345678(16) 0.434464(15) 1.39340(4)
Tb1_2 Tb 0.095678(16) 0.315536(15) 1.64340(4)
O2_2 O -0.0183(3) 0.2279(3) 1.3129(5)
O3B O 0.0177(3) 0.1340(2) 1.1235(6)
O6E O -0.1564(2) 0.27381(19) 1.1432(8)
O7H O -0.2351(3) 0.17755(19) 1.1576(8)
N1_2 N -0.1356(3) 0.1691(3) 1.4027(10)
loop_
_geom_bond_atom_site_label_1
_geom_bond_atom_site_label_2
_geom_bond_site_symmetry_1
_geom_bond_site_symmetry_2
Tb1 O1 1_555 1_555
O1 C6 1_555 1_555
O2 C6 1_555 1_555
O3 C7 1_555 1_555
O4 C7 1_555 1_555
O5 Tb1 1_555 1_555
O6 Tb1 1_555 1_555
O7 C8 1_555 1_555
N1 C1 1_555 1_555
C1 H1 1_555 1_555
C2 C1 1_555 1_555
H2 C2 1_555 1_555
C3 C2 1_555 1_555
C4 C3 1_555 1_555
H3 C4 1_555 1_555
C5 N1 1_555 1_555
C6 C5 1_555 1_555
C7 C3 1_555 1_555
C8 O6 1_555 1_555
C8M C8 1_555 1_555
O6M C8M 1_555 1_555
O7M Tb1 1_555 1_555
O1E C6E 1_555 1_555
O2E Tb1 1_555 1_555
O3E C7E 1_555 1_555
O4E C7E 1_555 1_555
N1E Tb1 1_555 1_555
C1E N1E 1_555 1_555
H1E C1E 1_555 1_555
C2E C1E 1_555 1_555
H2E C2E 1_555 1_555
C3E C2E 1_555 1_555
C4E C3E 1_555 1_555
H3E C4E 1_555 1_555
C5E N1E 1_555 1_555
C6E O2E 1_555 1_555
C7E C3E 1_555 1_555
Tb1E O4 1_555 1_555
O5E Tb1E 1_555 1_555
O3K Tb1 1_555 1_555
O4E_2 Tb1 1_555 1_555
Tb1E_2 O2 1_555 1_555
Tb1O O3 1_555 1_555
Tb1M O7 1_555 1_555
Tb1F O3E 1_555 1_555
Tb1_2 O4E 1_555 1_555
O2_2 Tb1E 1_555 1_555
O3B Tb1E 1_555 1_555
O6E Tb1E 1_555 1_555
O7H Tb1E 1_555 1_555
N1_2 Tb1E 1_555 1_555
N1 Tb1E_2 1_555 1_555
C4 C5 1_555 1_555
C8M O7M 1_555 1_555
O6M Tb1M 1_555 1_555
O1E Tb1E 1_555 1_555
C4E C5E 1_555 1_555
C5E C6E 1_555 1_555

#END
