
#######################################################################
#
#                 Cambridge Crystallographic Data Centre
#                                CCDC 
#
#######################################################################
#
# If this CIF has been generated from an entry in the Cambridge 
# Structural Database, then it will include bibliographic, chemical, 
# crystal, experimental, refinement or atomic coordinate data resulting 
# from the CCDC's data processing and validation procedures.
#
#######################################################################

data_XUPBIU
_symmetry_cell_setting           triclinic
_symmetry_space_group_name_H-M   'P -1'
_symmetry_Int_Tables_number      2
_space_group_name_Hall           '-P 1'
loop_
_symmetry_equiv_pos_site_id
_symmetry_equiv_pos_as_xyz
1 x,y,z
2 -x,-y,-z
_cell_length_a                   6.4285(13)
_cell_length_b                   10.414(2)
_cell_length_c                   11.613(2)
_cell_angle_alpha                83.04(3)
_cell_angle_beta                 81.87(3)
_cell_angle_gamma                83.86(3)
_cell_volume                     760.765
loop_
_atom_site_label
_atom_site_type_symbol
_atom_site_fract_x
_atom_site_fract_y
_atom_site_fract_z
Cd1 Cd 0.22180(3) 0.008477(17) -0.147716(15)
O1 O 0.5919(4) -0.0811(3) -0.1579(2)
C1 C -0.0145(6) -0.3657(3) -0.5118(3)
N1 N 0.0935(5) -0.1605(3) -0.4574(2)
O2 O 0.3457(4) 0.1716(2) -0.0724(2)
N2 N 0.1965(4) -0.0837(3) -0.3097(2)
C2 C 0.0362(5) -0.1245(3) -0.3487(3)
H1 H -0.0982 -0.1282 -0.3072
O3 O 0.3993(5) 0.1991(3) -0.2620(3)
C3 C 0.4235(5) 0.2320(3) -0.1669(3)
C4 C 0.8778(6) 0.4223(4) -0.1134(5)
H2 H 1.0197 0.4056 -0.1531
H3 H 0.8874 0.4205 -0.0305
C5 C 0.3632(5) -0.0959(4) -0.3965(3)
H4 H 0.4993 -0.0756 -0.3924
C6 C 0.6086(9) 0.5773(4) -0.2028(5)
H5 H 0.5649 0.6622 -0.2301
C7 C -0.0413(6) -0.2177(3) -0.5265(3)
C8 C 0.1462(8) -0.4359(4) -0.4604(5)
H6 H 0.2449 -0.3934 -0.4318
C9 C 0.3004(6) -0.1422(4) -0.4894(3)
H7 H 0.3819 -0.1580 -0.5599
C10 C 0.7887(7) 0.5555(4) -0.1583(4)
H8 H 0.8642 0.6259 -0.1545
C11 C -0.1625(7) -0.4291(4) -0.5492(4)
H9 H -0.2754 -0.3819 -0.5814
C12 C 0.4712(7) 0.4724(4) -0.2117(5)
H10 H 0.3287 0.4974 -0.1767
H11 H 0.4667 0.4644 -0.2936
C13 C 0.7522(8) 0.3193(4) -0.1302(6)
H12 H 0.8158 0.3077 -0.2104
C14 C 0.5433(9) 0.3462(4) -0.1543(8)
H13 H 0.4790 0.3607 -0.0747
C15 C 0.8241(4) 0.1875(3) -0.0767(3)
O4 O 0.8834(5) 0.1026(4) -0.1434(4)
O5 O 0.8199(6) 0.1730(3) 0.0316(3)
H14 H 0.635(9) -0.008(3) -0.157(4)
H15 H 0.565(9) -0.116(4) -0.0895(18)
Cd1_2 Cd -0.77820(3) 0.008477(17) -0.147716(15)
Cd1_3 Cd 1.22180(3) 0.008477(17) -0.147716(15)
Cd1A Cd 0.77820(3) -0.008477(17) 0.147716(15)
Cd1A_2 Cd -0.22180(3) -1.008477(17) -0.852284(15)
Cd1A_3 Cd -0.22180(3) -0.008477(17) 0.147716(15)
O1_2 O -0.4081(4) -0.0811(3) -0.1579(2)
C1A C 0.0145(6) -0.6343(3) -0.4882(3)
N1A N -0.0935(5) -0.8395(3) -0.5426(2)
O2_2 O -0.6543(4) 0.1716(2) -0.0724(2)
N2A N -0.1965(4) -0.9163(3) -0.6903(2)
N2_2 N -0.8035(4) -0.0837(3) -0.3097(2)
C2A C -0.0362(5) -0.8755(3) -0.6513(3)
H1A H 0.0982 -0.8718 -0.6928
O3_2 O -0.6007(5) 0.1991(3) -0.2620(3)
C3_2 C -0.5765(5) 0.2320(3) -0.1669(3)
C4_2 C -0.1222(6) 0.4223(4) -0.1134(5)
H2_2 H 0.0197 0.4056 -0.1531
H3_2 H -0.1126 0.4205 -0.0305
C5A C -0.3632(5) -0.9041(4) -0.6035(3)
H4A H -0.4993 -0.9244 -0.6076
C6_2 C -0.3914(9) 0.5773(4) -0.2028(5)
H5_2 H -0.4351 0.6622 -0.2301
C7A C 0.0413(6) -0.7823(3) -0.4735(3)
C8A C -0.1462(8) -0.5641(4) -0.5396(5)
H6A H -0.2449 -0.6066 -0.5682
C9A C -0.3004(6) -0.8578(4) -0.5106(3)
H7A H -0.3819 -0.8420 -0.4401
C10_2 C -0.2113(7) 0.5555(4) -0.1583(4)
H8_2 H -0.1358 0.6259 -0.1545
C11A C 0.1625(7) -0.5709(4) -0.4508(4)
H9A H 0.2754 -0.6181 -0.4186
C12_2 C -0.5288(7) 0.4724(4) -0.2117(5)
H10_2 H -0.6713 0.4974 -0.1767
H11_2 H -0.5333 0.4644 -0.2936
C13_2 C -0.2478(8) 0.3193(4) -0.1302(6)
H12_2 H -0.1842 0.3077 -0.2104
C14_2 C -0.4567(9) 0.3462(4) -0.1543(8)
H13_2 H -0.5210 0.3607 -0.0747
C15_2 C -0.1759(4) 0.1875(3) -0.0767(3)
O4_2 O -0.1166(5) 0.1026(4) -0.1434(4)
O4_3 O -1.1166(5) 0.1026(4) -0.1434(4)
O5_2 O -0.1801(6) 0.1730(3) 0.0316(3)
O5A O 0.1801(6) -0.1730(3) -0.0316(3)
O5A_2 O -0.8199(6) -0.1730(3) -0.0316(3)
H14_2 H -0.365(9) -0.008(3) -0.157(4)
H15_2 H -0.435(9) -0.116(4) -0.0895(18)
loop_
_geom_bond_atom_site_label_1
_geom_bond_atom_site_label_2
_geom_bond_site_symmetry_1
_geom_bond_site_symmetry_2
Cd1 O1 1_555 1_555
O1 H14 1_555 1_555
C1 C7 1_555 1_555
N1 C2 1_555 1_555
O2 Cd1 1_555 1_555
N2 Cd1 1_555 1_555
C2 N2 1_555 1_555
H1 C2 1_555 1_555
O3 Cd1 1_555 1_555
C3 O2 1_555 1_555
C4 H2 1_555 1_555
H3 C4 1_555 1_555
C5 N2 1_555 1_555
H4 C5 1_555 1_555
C6 H5 1_555 1_555
C7 N1 1_555 1_555
C8 C1 1_555 1_555
H6 C8 1_555 1_555
C9 N1 1_555 1_555
H7 C9 1_555 1_555
C10 C4 1_555 1_555
H8 C10 1_555 1_555
C11 C1 1_555 1_555
H9 C11 1_555 1_555
C12 C6 1_555 1_555
H10 C12 1_555 1_555
H11 C12 1_555 1_555
C13 C4 1_555 1_555
H12 C13 1_555 1_555
C14 C3 1_555 1_555
H13 C14 1_555 1_555
C15 C13 1_555 1_555
O4 C15 1_555 1_555
O5 C15 1_555 1_555
H15 O1 1_555 1_555
Cd1_2 O1_2 1_555 1_555
Cd1_3 O4 1_555 1_555
Cd1A O5 1_555 1_555
Cd1A_2 N2A 1_555 1_555
Cd1A_3 O5_2 1_555 1_555
O1_2 H14_2 1_555 1_555
C1A C7A 1_555 1_555
N1A C2A 1_555 1_555
O2_2 Cd1_2 1_555 1_555
N2A C2A 1_555 1_555
N2_2 Cd1_2 1_555 1_555
C2A H1A 1_555 1_555
O3_2 Cd1_2 1_555 1_555
C3_2 O2_2 1_555 1_555
C4_2 H2_2 1_555 1_555
H3_2 C4_2 1_555 1_555
C5A N2A 1_555 1_555
H4A C5A 1_555 1_555
C6_2 H5_2 1_555 1_555
C7A N1A 1_555 1_555
C8A C11 1_555 1_555
H6A C8A 1_555 1_555
C9A N1A 1_555 1_555
H7A C9A 1_555 1_555
C10_2 C4_2 1_555 1_555
H8_2 C10_2 1_555 1_555
C11A C8 1_555 1_555
H9A C11A 1_555 1_555
C12_2 C6_2 1_555 1_555
H10_2 C12_2 1_555 1_555
H11_2 C12_2 1_555 1_555
C13_2 C4_2 1_555 1_555
H12_2 C13_2 1_555 1_555
C14_2 C3_2 1_555 1_555
H13_2 C14_2 1_555 1_555
C15_2 C13_2 1_555 1_555
O4_2 Cd1 1_555 1_555
O4_3 Cd1_2 1_555 1_555
O5_2 C15_2 1_555 1_555
O5A Cd1 1_555 1_555
O5A_2 Cd1_2 1_555 1_555
H15_2 O1_2 1_555 1_555
O3 C3 1_555 1_555
C5 C9 1_555 1_555
C6 C10 1_555 1_555
C12 C14 1_555 1_555
C13 C14 1_555 1_555
C1A C8A 1_555 1_555
C1A C11A 1_555 1_555
O3_2 C3_2 1_555 1_555
C5A C9A 1_555 1_555
C6_2 C10_2 1_555 1_555
C12_2 C14_2 1_555 1_555
C13_2 C14_2 1_555 1_555
C15_2 O4_2 1_555 1_555

#END
