
#######################################################################
#
#                 Cambridge Crystallographic Data Centre
#                                CCDC 
#
#######################################################################
#
# If this CIF has been generated from an entry in the Cambridge 
# Structural Database, then it will include bibliographic, chemical, 
# crystal, experimental, refinement or atomic coordinate data resulting 
# from the CCDC's data processing and validation procedures.
#
#######################################################################

data_XUPCIV
_symmetry_cell_setting           triclinic
_symmetry_space_group_name_H-M   'P -1'
_symmetry_Int_Tables_number      2
_space_group_name_Hall           '-P 1'
loop_
_symmetry_equiv_pos_site_id
_symmetry_equiv_pos_as_xyz
1 x,y,z
2 -x,-y,-z
_cell_length_a                   8.274(6)
_cell_length_b                   9.445(9)
_cell_length_c                   11.578(9)
_cell_angle_alpha                83.91(8)
_cell_angle_beta                 76.82(10)
_cell_angle_gamma                102.84(8)
_cell_volume                     847.142
loop_
_atom_site_label
_atom_site_type_symbol
_atom_site_fract_x
_atom_site_fract_y
_atom_site_fract_z
Mn1 Mn 0.5000 0.5000 0.5000
S1 S 0.32836(15) 0.23475(12) 1.15897(10)
S2 S 0.5441(3) 0.04756(19) 0.71853(17)
C1 C 0.3123(5) 0.5460(5) 0.7599(4)
H1 H 0.3706 0.4775 0.7802
C2 C 0.2258(6) 0.6754(6) 0.6185(4)
H2 H 0.2228 0.6978 0.5390
C3 C 0.1397(6) 0.7422(6) 0.7020(4)
H3 H 0.0795 0.8081 0.6796
C4 C 0.1432(5) 0.7105(5) 0.8195(4)
H4 H 0.0891 0.7578 0.8775
C5 C 0.2277(5) 0.6079(4) 0.8512(4)
C6 C 0.2373(5) 0.5664(4) 0.9763(3)
C7 C 0.2093(6) 0.6550(5) 1.0629(4)
H5 H 0.1817 0.7437 1.0456
C8 C 0.2239(6) 0.6069(5) 1.1749(4)
H6 H 0.2086 0.6662 1.2336
C9 C 0.2834(5) 0.4003(4) 1.1137(3)
C10 C 0.3326(5) 0.1469(5) 1.0279(4)
H7 H 0.3924 0.2203 0.9571
H8 H 0.3981 0.0740 1.0314
C11 C 0.1591(5) 0.0730(4) 1.0138(4)
C12 C 0.1155(5) 0.1028(5) 0.9070(4)
H9 H 0.1923 0.1723 0.8442
C13 C 0.0407(5) -0.0302(4) 1.1069(4)
H10 H 0.0678 -0.0503 1.1796
C14 C 0.5071(6) 0.2009(5) 0.6647(4)
N1 N 0.3145(5) 0.5795(4) 0.6446(3)
N2 N 0.2589(5) 0.4793(4) 1.2035(3)
N3 N 0.2740(4) 0.4373(3) 1.0026(3)
N4 N 0.4790(6) 0.3040(5) 0.6292(3)
O1 O 0.2812(4) 0.3851(4) 0.4417(3)
H11 H 0.2615 0.3982 0.3730
H12 H 0.1918 0.3138 0.4595
Mn1_2 Mn -0.5000 -0.5000 1.5000
S1A S -0.32836(15) -0.23475(12) 0.84103(10)
S2A S 0.4559(3) 0.95244(19) 0.28147(17)
C1A C -0.3123(5) -0.5460(5) 1.2401(4)
H1A H -0.3706 -0.4775 1.2198
C2A C -0.2258(6) -0.6754(6) 1.3815(4)
H2A H -0.2228 -0.6978 1.4610
C3A C -0.1397(6) -0.7422(6) 1.2980(4)
H3A H -0.0795 -0.8081 1.3204
C4A C -0.1432(5) -0.7105(5) 1.1805(4)
H4A H -0.0891 -0.7578 1.1225
C5A C -0.2277(5) -0.6079(4) 1.1488(4)
C6A C -0.2373(5) -0.5664(4) 1.0237(3)
C7A C -0.2093(6) -0.6550(5) 0.9371(4)
H5A H -0.1817 -0.7437 0.9544
C8A C -0.2239(6) -0.6069(5) 0.8251(4)
H6A H -0.2086 -0.6662 0.7664
C9A C -0.2834(5) -0.4003(4) 0.8863(3)
C10A C -0.3326(5) -0.1469(5) 0.9721(4)
H7A H -0.3924 -0.2203 1.0429
H8A H -0.3981 -0.0740 0.9686
C11A C -0.1591(5) -0.0730(4) 0.9862(4)
C12A C -0.1155(5) -0.1028(5) 1.0930(4)
H9A H -0.1923 -0.1723 1.1558
C13A C -0.0407(5) 0.0302(4) 0.8931(4)
H10A H -0.0678 0.0503 0.8204
C14A C 0.4929(6) 0.7991(5) 0.3353(4)
N1A N -0.3145(5) -0.5795(4) 1.3554(3)
N1A_2 N 0.6855(5) 0.4205(4) 0.3554(3)
N2A N -0.2589(5) -0.4793(4) 0.7965(3)
N3A N -0.2740(4) -0.4373(3) 0.9974(3)
N4A N 0.5210(6) 0.6960(5) 0.3708(3)
O1A O 0.7188(4) 0.6149(4) 0.5583(3)
H11A H 0.7385 0.6018 0.6270
H12A H 0.8082 0.6862 0.5405
O2 O 0.2021(11) 0.0699(9) 0.4992(7)
H13 H 0.2659 0.0408 0.4439
H14 H 0.1016 0.0750 0.4969
loop_
_geom_bond_atom_site_label_1
_geom_bond_atom_site_label_2
_geom_bond_site_symmetry_1
_geom_bond_site_symmetry_2
Mn1 N1 1_555 1_555
S1 C9 1_555 1_555
S2 C14 1_555 1_555
C1 H1 1_555 1_555
C2 H2 1_555 1_555
C3 C2 1_555 1_555
H3 C3 1_555 1_555
C4 C3 1_555 1_555
H4 C4 1_555 1_555
C5 C1 1_555 1_555
C6 C5 1_555 1_555
C7 C6 1_555 1_555
H5 C7 1_555 1_555
C8 C7 1_555 1_555
H6 C8 1_555 1_555
C9 N2 1_555 1_555
C10 S1 1_555 1_555
H7 C10 1_555 1_555
H8 C10 1_555 1_555
C11 C10 1_555 1_555
C12 C11 1_555 1_555
H9 C12 1_555 1_555
C13 C11 1_555 1_555
H10 C13 1_555 1_555
C14 N4 1_555 1_555
N1 C1 1_555 1_555
N2 C8 1_555 1_555
N3 C6 1_555 1_555
N4 Mn1 1_555 1_555
O1 Mn1 1_555 1_555
H11 O1 1_555 1_555
H12 O1 1_555 1_555
O2 H13 1_555 1_555
H14 O2 1_555 1_555
Mn1_2 N1A 1_555 1_555
S1A C9A 1_555 1_555
S2A C14A 1_555 1_555
C1A H1A 1_555 1_555
C2A H2A 1_555 1_555
C3A C2A 1_555 1_555
H3A C3A 1_555 1_555
C4A C3A 1_555 1_555
H4A C4A 1_555 1_555
C5A C1A 1_555 1_555
C6A C5A 1_555 1_555
C7A C6A 1_555 1_555
H5A C7A 1_555 1_555
C8A C7A 1_555 1_555
H6A C8A 1_555 1_555
C9A N2A 1_555 1_555
C10A S1A 1_555 1_555
H7A C10A 1_555 1_555
H8A C10A 1_555 1_555
C11A C10A 1_555 1_555
C12A C13 1_555 1_555
H9A C12A 1_555 1_555
C13A C12 1_555 1_555
H10A C13A 1_555 1_555
C14A N4A 1_555 1_555
N1A C1A 1_555 1_555
N1A_2 Mn1 1_555 1_555
N2A C8A 1_555 1_555
N3A C6A 1_555 1_555
N4A Mn1 1_555 1_555
O1A Mn1 1_555 1_555
H11A O1A 1_555 1_555
H12A O1A 1_555 1_555
C2 N1 1_555 1_555
C4 C5 1_555 1_555
C9 N3 1_555 1_555
C2A N1A 1_555 1_555
C4A C5A 1_555 1_555
C9A N3A 1_555 1_555
C11A C12A 1_555 1_555
C11A C13A 1_555 1_555

#END
