
#######################################################################
#
#                 Cambridge Crystallographic Data Centre
#                                CCDC 
#
#######################################################################
#
# If this CIF has been generated from an entry in the Cambridge 
# Structural Database, then it will include bibliographic, chemical, 
# crystal, experimental, refinement or atomic coordinate data resulting 
# from the CCDC's data processing and validation procedures.
#
#######################################################################

data_XUPGIA
_symmetry_cell_setting           hexagonal
_symmetry_space_group_name_H-M   'P 63/m'
_symmetry_Int_Tables_number      176
_space_group_name_Hall           '-P 6c'
loop_
_symmetry_equiv_pos_site_id
_symmetry_equiv_pos_as_xyz
1 x,y,z
2 -y,x-y,z
3 -x+y,-x,z
4 -x,-y,1/2+z
5 y,-x+y,1/2+z
6 x-y,x,1/2+z
7 -x,-y,-z
8 y,-x+y,-z
9 x-y,x,-z
10 x,y,1/2-z
11 -y,x-y,1/2-z
12 -x+y,-x,1/2-z
_cell_length_a                   40.9234(3)
_cell_length_b                   40.9234(3)
_cell_length_c                   17.3329(3)
_cell_angle_alpha                90
_cell_angle_beta                 90
_cell_angle_gamma                120
_cell_volume                     25138.8
loop_
_atom_site_label
_atom_site_type_symbol
_atom_site_fract_x
_atom_site_fract_y
_atom_site_fract_z
C1 C 0.9814(9) 0.4483(8) 0.6944(11)
C2 C 0.7709(3) 0.3965(2) 0.7500
C3 C 0.7497(2) 0.6345(3) 0.3124(3)
C4 C 0.9767(3) 0.4831(4) 0.5532(5)
C5 C 1.0116(3) 0.5384(3) 0.5021(7)
Zn1 Zn 0.897200(19) 0.57789(2) 0.7500
Zn2 Zn 0.972926(14) 0.600602(15) 0.84080(3)
Zn3 Zn 0.93066(2) 0.52346(2) 0.7500
O1 O 0.94314(9) 0.57556(9) 0.7500
O2 O 0.89227(10) 0.60125(11) 0.65778(18)
O3 O 0.87839(13) 0.49010(12) 0.7500
O4 O 0.64410(10) 0.62497(13) 0.18498(17)
O5 O 0.94742(10) 0.62013(10) 0.59874(17)
O6 O 0.85365(12) 0.52712(15) 0.7500
O7 O 0.95150(14) 0.51081(14) 0.6629(3)
O8 O 0.98599(11) 0.56742(14) 0.6083(3)
C6 C 0.6964(2) 0.6304(3) 0.2500
C7 C 0.91381(18) 0.61454(15) 0.6029(4)
C8 C 0.8513(2) 0.4959(2) 0.7500
C9 C 0.92474(17) 0.6422(2) 0.4696(4)
C10 C 0.6585(2) 0.62594(27) 0.2500
C11 C 0.8719(2) 0.6338(2) 0.3948(3)
C12 C 0.7412(2) 0.3995(2) 0.7500
C13 C 0.91038(19) 0.6470(2) 0.3998(3)
C14 C 0.82151(18) 0.6378(2) 0.3205(3)
C15 C 0.7026(2) 0.3647(3) 0.7500
C16 C 0.85400(19) 0.6356(2) 0.3197(3)
C17 C 0.8996(2) 0.62291(17) 0.5293(3)
C18 C 0.8613(2) 0.6109(2) 0.5266(3)
C19 C 0.8474(2) 0.6162(3) 0.4584(4)
C20 C 0.8036(3) 0.6361(4) 0.2500
C21 C 0.8140(2) 0.4629(3) 0.7500
C22 C 0.8078(2) 0.4285(3) 0.7500
C23 C 0.7681(3) 0.6374(3) 0.2500
C24 C 0.7835(3) 0.4648(3) 0.7500
C25 C 0.7458(3) 0.4325(3) 0.7500
C26 C 0.8695(3) 0.6323(3) 0.2500
C27 C 0.9887(2) 0.5179(3) 0.5525(6)
C28 C 0.9747(2) 0.5319(2) 0.6170(5)
C29 C 0.6702(3) 0.3696(2) 0.7500
C30 C 0.7141(2) 0.6312(3) 0.3142(3)
C31 C 0.9914(9) 0.4204(6) 0.6633(14)
N1 N 0.9807(8) 0.4686(6) 0.6275(15)
C1F C 1.0186(9) 0.5517(8) 0.3056(11)
C4F C 1.0233(3) 0.5169(4) 0.4468(5)
C5F C 0.9884(3) 0.4616(3) 0.4979(7)
O7F O 1.04850(14) 0.48919(14) 0.3371(3)
O8F O 1.01401(11) 0.43258(14) 0.3917(3)
C27F C 1.0113(2) 0.4821(3) 0.4475(6)
C28F C 1.0253(2) 0.4681(2) 0.3830(5)
C31F C 1.0086(9) 0.5796(6) 0.3367(14)
N1F N 1.0193(8) 0.5314(6) 0.3725(15)
C2A C 0.6035(2) 0.3744(4) 0.7500
O3A O 0.50990(12) 0.38829(18) 0.7500
O6A O 0.47288(15) 0.32653(19) 0.7500
C8A C 0.5041(2) 0.3554(3) 0.7500
C12A C 0.6005(2) 0.3417(3) 0.7500
C15A C 0.6353(3) 0.3379(4) 0.7500
C21A C 0.5371(3) 0.3511(4) 0.7500
C22A C 0.5715(3) 0.3793(4) 0.7500
C24A C 0.5352(3) 0.3187(4) 0.7500
C25A C 0.5675(3) 0.3133(4) 0.7500
C29A C 0.6304(2) 0.3006(4) 0.7500
C2B C 0.6256(4) 0.2291(3) 0.7500
O3B O 0.61171(18) 0.12161(13) 0.7500
O6B O 0.67347(19) 0.14635(12) 0.7500
C8B C 0.6446(3) 0.1487(2) 0.7500
C12B C 0.6583(3) 0.2588(2) 0.7500
C15B C 0.6621(4) 0.2974(2) 0.7500
C21B C 0.6489(4) 0.1860(2) 0.7500
C22B C 0.6207(4) 0.1922(2) 0.7500
C24B C 0.6813(4) 0.2165(3) 0.7500
C25B C 0.6867(4) 0.2542(3) 0.7500
C29B C 0.6994(4) 0.3298(3) 0.7500
C3I C 0.7497(2) 0.6345(3) 0.1876(3)
O2I O 0.89227(10) 0.60125(11) -0.15778(18)
O4I O 0.64410(10) 0.62497(13) 0.31502(17)
O5I O 0.94742(10) 0.62013(10) -0.09874(17)
C7I C 0.91381(18) 0.61454(15) -0.1029(4)
C9I C 0.92474(17) 0.6422(2) 0.0304(4)
C11I C 0.8719(2) 0.6338(2) 0.1052(3)
C13I C 0.91038(19) 0.6470(2) 0.1002(3)
C14I C 0.82151(18) 0.6378(2) 0.1795(3)
C16I C 0.85400(19) 0.6356(2) 0.1803(3)
C17I C 0.8996(2) 0.62291(17) -0.0293(3)
C18I C 0.8613(2) 0.6109(2) -0.0266(3)
C19I C 0.8474(2) 0.6162(3) 0.0416(4)
C30I C 0.7141(2) 0.6312(3) 0.1858(3)
C1A C 0.5517(8) 0.5331(12) 0.6944(11)
C3A C 0.3655(3) 0.1152(4) 0.3124(3)
C4A C 0.5169(4) 0.4936(5) 0.5532(5)
C5A C 0.4616(3) 0.4732(4) 0.5021(7)
Zn1A Zn 0.42211(2) 0.319310(28) 0.7500
Zn2A Zn 0.399398(15) 0.372324(21) 0.84080(3)
Zn3A Zn 0.47654(2) 0.40720(3) 0.7500
O1A O 0.42444(9) 0.36758(13) 0.7500
O2A O 0.39875(11) 0.29102(15) 0.65778(18)
O4A O 0.37503(13) 0.01913(16) 0.18498(17)
O5A O 0.37987(10) 0.32729(14) 0.59874(17)
O7A O 0.48919(14) 0.44069(20) 0.6629(3)
O8A O 0.43258(14) 0.41857(18) 0.6083(3)
C6A C 0.3696(3) 0.0660(4) 0.2500
C7A C 0.38546(15) 0.29927(23) 0.6029(4)
C9A C 0.3578(2) 0.28254(26) 0.4696(4)
C10A C 0.37406(27) 0.03256(34) 0.2500
C11A C 0.3662(2) 0.2381(3) 0.3948(3)
C13A C 0.3530(2) 0.26338(28) 0.3998(3)
C14A C 0.3622(2) 0.18371(27) 0.3205(3)
C16A C 0.3644(2) 0.21840(28) 0.3197(3)
C17A C 0.37709(17) 0.27669(26) 0.5293(3)
C18A C 0.3891(2) 0.2504(3) 0.5266(3)
C19A C 0.3838(3) 0.2312(4) 0.4584(4)
C20A C 0.3639(4) 0.1675(5) 0.2500
C23A C 0.3626(3) 0.1307(4) 0.2500
C26A C 0.3677(3) 0.2372(4) 0.2500
C27A C 0.4821(3) 0.4708(4) 0.5525(6)
C28A C 0.4681(2) 0.4428(3) 0.6170(5)
C30A C 0.3688(3) 0.0829(4) 0.3142(3)
C31A C 0.5796(6) 0.5710(11) 0.6633(14)
N1A N 0.5314(6) 0.5121(10) 0.6275(15)
C1G C 0.4483(8) 0.4669(12) 0.3056(11)
C4G C 0.4831(4) 0.5064(5) 0.4468(5)
C5G C 0.5384(3) 0.5268(4) 0.4979(7)
O7G O 0.51081(14) 0.55931(20) 0.3371(3)
O8G O 0.56742(14) 0.58143(18) 0.3917(3)
C27G C 0.5179(3) 0.5292(4) 0.4475(6)
C28G C 0.5319(2) 0.5572(3) 0.3830(5)
C31G C 0.4204(6) 0.4290(11) 0.3367(14)
N1G N 0.4686(6) 0.4879(10) 0.3725(15)
C3J C 0.3655(3) 0.1152(4) 0.1876(3)
O2J O 0.39875(11) 0.29102(15) -0.15778(18)
O4J O 0.37503(13) 0.01913(16) 0.31502(17)
O5J O 0.37987(10) 0.32729(14) -0.09874(17)
C7J C 0.38546(15) 0.29927(23) -0.1029(4)
C9J C 0.3578(2) 0.28254(26) 0.0304(4)
C11J C 0.3662(2) 0.2381(3) 0.1052(3)
C13J C 0.3530(2) 0.26338(28) 0.1002(3)
C14J C 0.3622(2) 0.18371(27) 0.1795(3)
C16J C 0.3644(2) 0.21840(28) 0.1803(3)
C17J C 0.37709(17) 0.27669(26) -0.0293(3)
C18J C 0.3891(2) 0.2504(3) -0.0266(3)
C19J C 0.3838(3) 0.2312(4) 0.0416(4)
C30J C 0.3688(3) 0.0829(4) 0.1858(3)
C1B C 0.4669(12) 0.0186(9) 0.6944(11)
C3B C 0.8848(4) 0.2503(2) 0.3124(3)
C4B C 0.5064(5) 0.0233(3) 0.5532(5)
C5B C 0.5268(4) -0.0116(3) 0.5021(7)
Zn1B Zn 0.680690(28) 0.102800(19) 0.7500
Zn2B Zn 0.627676(21) 0.027074(14) 0.84080(3)
Zn3B Zn 0.59280(3) 0.06934(2) 0.7500
O1B O 0.63242(13) 0.05686(9) 0.7500
O2B O 0.70898(15) 0.10773(10) 0.65778(18)
O4B O 0.98087(16) 0.35590(10) 0.18498(17)
O5B O 0.67271(14) 0.05258(10) 0.59874(17)
O7B O 0.55931(20) 0.04850(14) 0.6629(3)
O8B O 0.58143(18) 0.01401(11) 0.6083(3)
C6B C 0.9340(4) 0.3036(2) 0.2500
C7B C 0.70073(23) 0.08619(18) 0.6029(4)
C9B C 0.71746(26) 0.07526(17) 0.4696(4)
C10B C 0.96744(34) 0.3415(2) 0.2500
C11B C 0.7619(3) 0.1281(2) 0.3948(3)
C13B C 0.73662(28) 0.08962(19) 0.3998(3)
C14B C 0.81629(27) 0.17849(18) 0.3205(3)
C16B C 0.78160(28) 0.14600(19) 0.3197(3)
C17B C 0.72331(26) 0.1004(2) 0.5293(3)
C18B C 0.7496(3) 0.1387(2) 0.5266(3)
C19B C 0.7688(4) 0.1526(2) 0.4584(4)
C20B C 0.8325(5) 0.1964(3) 0.2500
C23B C 0.8693(4) 0.2319(3) 0.2500
C26B C 0.7628(4) 0.1305(3) 0.2500
C27B C 0.5292(4) 0.0113(2) 0.5525(6)
C28B C 0.5572(3) 0.0253(2) 0.6170(5)
C30B C 0.9171(4) 0.2859(2) 0.3142(3)
C31B C 0.4290(11) 0.0086(9) 0.6633(14)
N1B N 0.4879(10) 0.0193(8) 0.6275(15)
C1H C 0.5331(12) -0.0186(9) 0.3056(11)
C4H C 0.4936(5) -0.0233(3) 0.4468(5)
C5H C 0.4732(4) 0.0116(3) 0.4979(7)
O7H O 0.44069(20) -0.04850(14) 0.3371(3)
O8H O 0.41857(18) -0.01401(11) 0.3917(3)
C27H C 0.4708(4) -0.0113(2) 0.4475(6)
C28H C 0.4428(3) -0.0253(2) 0.3830(5)
C31H C 0.5710(11) -0.0086(9) 0.3367(14)
N1H N 0.5121(10) -0.0193(8) 0.3725(15)
C3K C 0.8848(4) 0.2503(2) 0.1876(3)
O2K O 0.70898(15) 0.10773(10) -0.15778(18)
O4K O 0.98087(16) 0.35590(10) 0.31502(17)
O5K O 0.67271(14) 0.05258(10) -0.09874(17)
C7K C 0.70073(23) 0.08619(18) -0.1029(4)
C9K C 0.71746(26) 0.07526(17) 0.0304(4)
C11K C 0.7619(3) 0.1281(2) 0.1052(3)
C13K C 0.73662(28) 0.08962(19) 0.1002(3)
C14K C 0.81629(27) 0.17849(18) 0.1795(3)
C16K C 0.78160(28) 0.14600(19) 0.1803(3)
C17K C 0.72331(26) 0.1004(2) -0.0293(3)
C18K C 0.7496(3) 0.1387(2) -0.0266(3)
C19K C 0.7688(4) 0.1526(2) 0.0416(4)
C30K C 0.9171(4) 0.2859(2) 0.1858(3)
Zn2G Zn 0.600602(15) 0.627676(21) 0.15920(3)
Zn2H Zn 0.372324(21) -0.027074(14) 0.15920(3)
Zn2I Zn 0.972926(14) 0.600602(15) 0.65920(3)
Zn1_2 Zn 0.897200(19) 0.57789(2) -0.2500
Zn1A_2 Zn 0.42211(2) 0.319310(28) -0.2500
Zn1B_2 Zn 0.680690(28) 0.102800(19) -0.2500
Zn2_2 Zn 0.972926(14) 0.600602(15) -0.15920(3)
Zn2A_2 Zn 0.399398(15) 0.372324(21) -0.15920(3)
Zn2B_2 Zn 0.627676(21) 0.027074(14) -0.15920(3)
Zn2C Zn 1.027074(14) 0.399398(15) 0.34080(3)
Zn2D Zn 0.600602(15) 0.627676(21) 0.34080(3)
Zn2E Zn 0.372324(21) -0.027074(14) 0.34080(3)
Zn2F Zn 1.027074(14) 0.399398(15) 0.15920(3)
Zn2J Zn 0.399398(15) 0.372324(21) 0.65920(3)
Zn2K Zn 0.627676(21) 0.027074(14) 0.65920(3)
Zn3C Zn 1.06934(2) 0.47654(2) 0.2500
Zn3D Zn 0.52346(2) 0.59280(3) 0.2500
Zn3E Zn 0.40720(3) -0.06934(2) 0.2500
O1D O 0.57556(9) 0.63242(13) 0.2500
O1E O 0.36758(13) -0.05686(9) 0.2500
O2I_2 O 0.89227(10) 0.60125(11) 0.84222(18)
O2J_2 O 0.39875(11) 0.29102(15) 0.84222(18)
O2K_2 O 0.70898(15) 0.10773(10) 0.84222(18)
O4E O 1.01913(16) 0.64410(10) 0.68498(17)
O4F O 0.35590(10) 0.37503(13) 0.81502(17)
O4G O 0.62497(13) -0.01913(16) 0.81502(17)
O4H O 1.01913(16) 0.64410(10) 0.81502(17)
O5D O 0.62013(10) 0.67271(14) 0.09874(17)
O5E O 0.32729(14) -0.05258(10) 0.09874(17)
O5I_2 O 0.94742(10) 0.62013(10) 0.90126(17)
O5J_2 O 0.37987(10) 0.32729(14) 0.90126(17)
O5K_2 O 0.67271(14) 0.05258(10) 0.90126(17)
O7I O 0.95150(14) 0.51081(14) 0.8371(3)
O7J O 0.48919(14) 0.44069(20) 0.8371(3)
O7K O 0.55931(20) 0.04850(14) 0.8371(3)
O8D O 0.56742(14) 0.58143(18) 0.1083(3)
O8E O 0.41857(18) -0.01401(11) 0.1083(3)
O8I O 0.98599(11) 0.56742(14) 0.8917(3)
O8J O 0.43258(14) 0.41857(18) 0.8917(3)
O8K O 0.58143(18) 0.01401(11) 0.8917(3)
loop_
_geom_bond_atom_site_label_1
_geom_bond_atom_site_label_2
_geom_bond_site_symmetry_1
_geom_bond_site_symmetry_2
C1 C31 1_555 1_555
C2 C12 1_555 1_555
C3 C23 1_555 1_555
C4 C27 1_555 1_555
C5 C27 1_555 1_555
Zn1 O1 1_555 1_555
Zn2 O1 1_555 1_555
Zn3 O1 1_555 1_555
O1 Zn2I 1_555 1_555
O2 Zn1 1_555 1_555
O3 Zn3 1_555 1_555
O4 C10 1_555 1_555
O5 C7 1_555 1_555
O6 Zn1 1_555 1_555
O7 Zn3 1_555 1_555
O8 C28 1_555 1_555
C6 C10 1_555 1_555
C7 O2 1_555 1_555
C8 O3 1_555 1_555
C9 C13 1_555 1_555
C10 O4I 1_555 1_555
C11 C13 1_555 1_555
C12 C15 1_555 1_555
C14 C16 1_555 1_555
C15 C29 1_555 1_555
C16 C11 1_555 1_555
C17 C7 1_555 1_555
C18 C17 1_555 1_555
C19 C11 1_555 1_555
C20 C14 1_555 1_555
C21 C8 1_555 1_555
C22 C2 1_555 1_555
C23 C20 1_555 1_555
C24 C21 1_555 1_555
C25 C12 1_555 1_555
C26 C16 1_555 1_555
C27 C28 1_555 1_555
C28 O7 1_555 1_555
C29 C15A 1_555 1_555
C30 C3 1_555 1_555
N1 C1 1_555 1_555
C1F C31F 1_555 1_555
C4F C5 1_555 1_555
C5F C4 1_555 1_555
O7F C28F 1_555 1_555
O8F C28F 1_555 1_555
C27F C4F 1_555 1_555
C28F C27F 1_555 1_555
N1F C1F 1_555 1_555
C2A C12A 1_555 1_555
O3A C8A 1_555 1_555
O6A C8A 1_555 1_555
C8A C21A 1_555 1_555
C12A C15A 1_555 1_555
C15A C29A 1_555 1_555
C21A C22A 1_555 1_555
C22A C2A 1_555 1_555
C24A C21A 1_555 1_555
C25A C12A 1_555 1_555
C29A C15B 1_555 1_555
C2B C12B 1_555 1_555
O3B C8B 1_555 1_555
O6B C8B 1_555 1_555
C8B C21B 1_555 1_555
C12B C15B 1_555 1_555
C15B C29B 1_555 1_555
C21B C22B 1_555 1_555
C22B C2B 1_555 1_555
C24B C21B 1_555 1_555
C25B C12B 1_555 1_555
C29B C15 1_555 1_555
C3I C23 1_555 1_555
O2I C7I 1_555 1_555
O4I Zn2D 1_555 1_555
O5I C7I 1_555 1_555
C7I C17I 1_555 1_555
C9I C13I 1_555 1_555
C11I C13I 1_555 1_555
C14I C20 1_555 1_555
C16I C26 1_555 1_555
C17I C9I 1_555 1_555
C18I C17I 1_555 1_555
C19I C11I 1_555 1_555
C30I C6 1_555 1_555
C1A C31A 1_555 1_555
C3A C23A 1_555 1_555
C4A C27A 1_555 1_555
C5A C27A 1_555 1_555
Zn1A O6A 1_555 1_555
Zn2A O1A 1_555 1_555
Zn3A O3A 1_555 1_555
O1A Zn1A 1_555 1_555
O2A Zn1A 1_555 1_555
O4A C10A 1_555 1_555
O5A C7A 1_555 1_555
O7A Zn3A 1_555 1_555
O8A C28A 1_555 1_555
C6A C10A 1_555 1_555
C7A O2A 1_555 1_555
C9A C13A 1_555 1_555
C10A O4J 1_555 1_555
C11A C13A 1_555 1_555
C14A C16A 1_555 1_555
C16A C11A 1_555 1_555
C17A C7A 1_555 1_555
C18A C17A 1_555 1_555
C19A C11A 1_555 1_555
C20A C14A 1_555 1_555
C23A C20A 1_555 1_555
C26A C16A 1_555 1_555
C27A C28A 1_555 1_555
C28A O7A 1_555 1_555
C30A C3A 1_555 1_555
N1A C1A 1_555 1_555
C1G C31G 1_555 1_555
C4G C5A 1_555 1_555
C5G C4A 1_555 1_555
O7G C28G 1_555 1_555
O8G C28G 1_555 1_555
C27G C4G 1_555 1_555
C28G C27G 1_555 1_555
N1G C1G 1_555 1_555
C3J C23A 1_555 1_555
O2J C7J 1_555 1_555
O4J Zn2E 1_555 1_555
O5J C7J 1_555 1_555
C7J C17J 1_555 1_555
C9J C13J 1_555 1_555
C11J C13J 1_555 1_555
C14J C20A 1_555 1_555
C16J C26A 1_555 1_555
C17J C9J 1_555 1_555
C18J C17J 1_555 1_555
C19J C11J 1_555 1_555
C30J C6A 1_555 1_555
C1B C31B 1_555 1_555
C3B C23B 1_555 1_555
C4B C27B 1_555 1_555
C5B C27B 1_555 1_555
Zn1B O6B 1_555 1_555
Zn2B O1B 1_555 1_555
Zn3B O3B 1_555 1_555
O1B Zn1B 1_555 1_555
O2B Zn1B 1_555 1_555
O4B C10B 1_555 1_555
O5B C7B 1_555 1_555
O7B Zn3B 1_555 1_555
O8B C28B 1_555 1_555
C6B C10B 1_555 1_555
C7B O2B 1_555 1_555
C9B C13B 1_555 1_555
C10B O4K 1_555 1_555
C11B C13B 1_555 1_555
C14B C16B 1_555 1_555
C16B C11B 1_555 1_555
C17B C7B 1_555 1_555
C18B C17B 1_555 1_555
C19B C11B 1_555 1_555
C20B C14B 1_555 1_555
C23B C20B 1_555 1_555
C26B C16B 1_555 1_555
C27B C28B 1_555 1_555
C28B O7B 1_555 1_555
C30B C3B 1_555 1_555
N1B C1B 1_555 1_555
C1H C31H 1_555 1_555
C4H C5B 1_555 1_555
C5H C4B 1_555 1_555
O7H C28H 1_555 1_555
O8H C28H 1_555 1_555
C27H C4H 1_555 1_555
C28H C27H 1_555 1_555
N1H C1H 1_555 1_555
C3K C23B 1_555 1_555
O2K C7K 1_555 1_555
O4K Zn2C 1_555 1_555
O5K C7K 1_555 1_555
C7K C17K 1_555 1_555
C9K C13K 1_555 1_555
C11K C13K 1_555 1_555
C14K C20B 1_555 1_555
C16K C26B 1_555 1_555
C17K C9K 1_555 1_555
C18K C17K 1_555 1_555
C19K C11K 1_555 1_555
C30K C6B 1_555 1_555
Zn2G O4 1_555 1_555
Zn2H O4A 1_555 1_555
Zn2I O5 1_555 1_555
Zn1_2 O2I 1_555 1_555
Zn1A_2 O2J 1_555 1_555
Zn1B_2 O2K 1_555 1_555
Zn2_2 O5I 1_555 1_555
Zn2A_2 O5J 1_555 1_555
Zn2B_2 O5K 1_555 1_555
Zn2C O8F 1_555 1_555
Zn2D O8G 1_555 1_555
Zn2E O8H 1_555 1_555
Zn2F O4B 1_555 1_555
Zn2J O1A 1_555 1_555
Zn2K O1B 1_555 1_555
Zn3C O7F 1_555 1_555
Zn3D O7G 1_555 1_555
Zn3E O7H 1_555 1_555
O1D Zn2G 1_555 1_555
O1E Zn2H 1_555 1_555
O2I_2 Zn1 1_555 1_555
O2J_2 Zn1A 1_555 1_555
O2K_2 Zn1B 1_555 1_555
O4E Zn2I 1_555 1_555
O4F Zn2A 1_555 1_555
O4G Zn2B 1_555 1_555
O4H Zn2 1_555 1_555
O5D Zn2G 1_555 1_555
O5E Zn2H 1_555 1_555
O5I_2 Zn2 1_555 1_555
O5J_2 Zn2A 1_555 1_555
O5K_2 Zn2B 1_555 1_555
O7I Zn3 1_555 1_555
O7J Zn3A 1_555 1_555
O7K Zn3B 1_555 1_555
O8D Zn2G 1_555 1_555
O8E Zn2H 1_555 1_555
O8I Zn2 1_555 1_555
O8J Zn2A 1_555 1_555
O8K Zn2B 1_555 1_555
C4 N1 1_555 1_555
O6 C8 1_555 1_555
O8 Zn2I 1_555 1_555
C6 C30 1_555 1_555
C9 C17 1_555 1_555
C18 C19 1_555 1_555
C21 C22 1_555 1_555
C24 C25 1_555 1_555
C4F N1F 1_555 1_555
C5F C27F 1_555 1_555
C24A C25A 1_555 1_555
C24B C25B 1_555 1_555
C3I C30I 1_555 1_555
C11I C16I 1_555 1_555
C14I C16I 1_555 1_555
C18I C19I 1_555 1_555
C4A N1A 1_555 1_555
Zn3A O1A 1_555 1_555
O5A Zn2J 1_555 1_555
O8A Zn2J 1_555 1_555
C6A C30A 1_555 1_555
C9A C17A 1_555 1_555
C18A C19A 1_555 1_555
C4G N1G 1_555 1_555
C5G C27G 1_555 1_555
C3J C30J 1_555 1_555
C11J C16J 1_555 1_555
C14J C16J 1_555 1_555
C18J C19J 1_555 1_555
C4B N1B 1_555 1_555
Zn3B O1B 1_555 1_555
O5B Zn2K 1_555 1_555
O8B Zn2K 1_555 1_555
C6B C30B 1_555 1_555
C9B C17B 1_555 1_555
C18B C19B 1_555 1_555
C4H N1H 1_555 1_555
C5H C27H 1_555 1_555
C3K C30K 1_555 1_555
C11K C16K 1_555 1_555
C14K C16K 1_555 1_555
C18K C19K 1_555 1_555
Zn2D O1D 1_555 1_555
Zn2E O1E 1_555 1_555
Zn3D O1D 1_555 1_555
Zn3E O1E 1_555 1_555

#END
