
#######################################################################
#
#                 Cambridge Crystallographic Data Centre
#                                CCDC 
#
#######################################################################
#
# If this CIF has been generated from an entry in the Cambridge 
# Structural Database, then it will include bibliographic, chemical, 
# crystal, experimental, refinement or atomic coordinate data resulting 
# from the CCDC's data processing and validation procedures.
#
#######################################################################

data_XUPPOP
_symmetry_cell_setting           triclinic
_symmetry_space_group_name_H-M   'P -1'
_symmetry_Int_Tables_number      2
_space_group_name_Hall           '-P 1'
loop_
_symmetry_equiv_pos_site_id
_symmetry_equiv_pos_as_xyz
1 x,y,z
2 -x,-y,-z
_cell_length_a                   7.950(3)
_cell_length_b                   9.073(3)
_cell_length_c                   27.881(10)
_cell_angle_alpha                89.300(5)
_cell_angle_beta                 84.163(5)
_cell_angle_gamma                67.577(4)
_cell_volume                     1848.6
loop_
_atom_site_label
_atom_site_type_symbol
_atom_site_fract_x
_atom_site_fract_y
_atom_site_fract_z
Zn1 Zn 0.91718(7) 0.24192(6) 0.49259(2)
Zn2 Zn 0.55962(7) 0.13915(6) 0.03992(2)
O1 O 0.1908(4) 0.9133(3) 0.48244(10)
O2 O 0.4491(4) 0.2943(3) -0.00677(10)
O3 O -0.2186(4) 0.9644(3) 0.01092(11)
O4 O -0.3578(4) 0.9430(3) -0.05226(10)
O5 O 0.1588(4) 1.1484(3) 0.51363(11)
O6 O 0.3279(4) 0.4854(4) 0.04939(11)
O7 O 0.7569(4) 0.4541(4) 0.51269(12)
N1 N 0.6388(5) 0.1607(4) 0.10416(12)
N2 N 0.8929(5) 0.2521(4) 0.42053(12)
O8 O 0.0658(5) 0.2547(4) -0.35677(12)
H1 H -0.0033 0.3166 -0.3745
N3 N 0.5659(5) 1.0291(5) 0.64458(14)
N4 N 0.1247(5) 0.4669(5) -0.15102(13)
N5 N 0.6147(5) 0.9563(5) 0.68215(13)
N6 N 0.0225(5) 0.5478(4) -0.18027(13)
C1 C 0.0708(6) 0.6727(5) -0.01324(15)
H2 H 0.0616 0.7166 0.0174
O9 O 0.6911(6) 1.3312(4) 0.82726(13)
H3 H 0.6905 1.2905 0.8537
C2 C -0.0575(6) 0.7518(5) -0.04480(15)
C3 C -0.0431(6) 0.6888(5) -0.09092(15)
H4 H -0.1287 0.7416 -0.1120
C4 C 0.3930(5) 0.9208(5) 0.53887(14)
C5 C 0.5505(6) 0.9311(5) 0.60659(15)
C6 C 0.1002(6) 0.5466(5) -0.10512(15)
C7 C 0.2124(5) 0.5287(5) -0.02727(15)
C8 C -0.2229(6) 0.8964(5) -0.02770(15)
C9 C 0.5056(5) 0.7601(5) 0.53138(15)
H5 H 0.4896 0.7020 0.5062
C10 C 0.4206(6) 1.0065(5) 0.57615(16)
H6 H 0.3510 1.1151 0.5805
C11 C 0.2388(5) 0.9974(5) 0.50933(15)
C12 C 0.3376(6) 0.4334(5) 0.00837(16)
C13 C 0.6602(6) 0.7723(5) 0.59943(15)
H7 H 0.7477 0.7224 0.6203
C14 C 0.2258(6) 0.4668(5) -0.07320(15)
H8 H 0.3203 0.3704 -0.0828
C15 C 0.9571(6) 0.1215(5) 0.39189(15)
H9 H 1.0349 0.0265 0.4038
C16 C 0.6402(6) 0.6868(5) 0.56105(15)
C17 C 0.6343(6) 1.0553(5) 0.71869(16)
C18 C 0.7660(6) 0.5156(5) 0.55195(16)
O10 O 0.8696(7) 0.4471(5) 0.58079(16)
C19 C 0.7547(6) 0.1649(6) 0.19557(15)
C20 C 0.5528(7) 0.2824(5) 0.13510(16)
H10 H 0.4527 0.3675 0.1258
C21 C 0.0419(6) 0.4674(5) -0.22525(16)
C22 C 0.9131(6) 0.1215(6) 0.34555(15)
H11 H 0.9628 0.0282 0.3266
C23 C 0.7811(7) 0.3891(6) 0.40278(16)
H12 H 0.7369 0.4818 0.4220
C24 C 0.8117(6) 0.1612(6) 0.24365(16)
H13 H 0.9122 0.0719 0.2505
C25 C 0.0546(7) 0.3305(6) -0.31429(16)
C26 C 0.7951(6) 0.2597(6) 0.32696(15)
C27 C 0.7883(7) 0.0431(6) 0.11789(17)
H14 H 0.8560 -0.0403 0.0961
C28 C 0.6049(7) 0.2884(6) 0.18016(16)
H15 H 0.5394 0.3760 0.2007
C29 C 0.8442(7) 0.0421(6) 0.16284(17)
H16 H 0.9453 -0.0440 0.1713
C30 C 0.1593(6) 0.3111(6) -0.23657(17)
H17 H 0.2354 0.2519 -0.2142
C31 C 0.6370(6) 1.0015(6) 0.76493(17)
H18 H 0.6286 0.9034 0.7709
C32 C 0.6523(7) 1.0925(6) 0.80311(17)
H19 H 0.6498 1.0576 0.8346
C33 C 0.6711(7) 1.2358(6) 0.79313(18)
C34 C 0.1637(7) 0.2438(6) -0.28048(17)
H20 H 0.2414 0.1384 -0.2876
C35 C 0.7310(7) 0.3945(6) 0.35685(17)
H21 H 0.6525 0.4906 0.3457
C36 C 0.7381(7) 0.2692(6) 0.27844(17)
H22 H 0.6401 0.3607 0.2716
C37 C -0.0658(7) 0.5541(6) -0.25899(17)
H23 H -0.1435 0.6595 -0.2518
C38 C 0.6536(7) 1.1991(6) 0.70934(17)
H24 H 0.6558 1.2348 0.6780
C39 C 0.6694(7) 1.2885(6) 0.74698(18)
H25 H 0.6791 1.3861 0.7409
C40 C -0.0606(7) 0.4868(6) -0.30363(17)
H26 H -0.1343 0.5466 -0.3264
Zn1_2 Zn -0.08282(7) 1.24192(6) 0.49259(2)
Zn1A Zn 0.08282(7) 0.75808(6) 0.50741(2)
Zn2_2 Zn -0.44038(7) 1.13915(6) 0.03992(2)
Zn2A Zn -0.55962(7) 0.86085(6) -0.03992(2)
O1A O 0.8092(4) 0.0867(3) 0.51756(10)
O3_2 O 0.7814(4) -0.0356(3) 0.01092(11)
O4A O 0.3578(4) 0.0570(3) 0.05226(10)
O5_2 O 1.1588(4) 0.1484(3) 0.51363(11)
O11 O 0.7497(5) 1.2160(4) 0.91258(13)
H27 H 0.731(7) 1.306(4) 0.9258(18)
H28 H 0.672(6) 1.186(6) 0.9287(18)
loop_
_geom_bond_atom_site_label_1
_geom_bond_atom_site_label_2
_geom_bond_site_symmetry_1
_geom_bond_site_symmetry_2
Zn1 O7 1_555 1_555
Zn2 O2 1_555 1_555
O1 C11 1_555 1_555
O2 C12 1_555 1_555
O3 C8 1_555 1_555
O4 C8 1_555 1_555
O5 C11 1_555 1_555
O6 C12 1_555 1_555
O7 C18 1_555 1_555
N1 Zn2 1_555 1_555
N2 Zn1 1_555 1_555
O8 H1 1_555 1_555
N3 N5 1_555 1_555
N4 N6 1_555 1_555
N5 C17 1_555 1_555
N6 C21 1_555 1_555
C1 H2 1_555 1_555
O9 H3 1_555 1_555
C2 C1 1_555 1_555
C3 C2 1_555 1_555
H4 C3 1_555 1_555
C4 C9 1_555 1_555
C5 N3 1_555 1_555
C6 N4 1_555 1_555
C7 C1 1_555 1_555
C8 C2 1_555 1_555
C9 H5 1_555 1_555
C10 C4 1_555 1_555
H6 C10 1_555 1_555
C11 C4 1_555 1_555
C12 C7 1_555 1_555
C13 C5 1_555 1_555
H7 C13 1_555 1_555
C14 C6 1_555 1_555
H8 C14 1_555 1_555
C15 N2 1_555 1_555
H9 C15 1_555 1_555
C16 C9 1_555 1_555
C17 C31 1_555 1_555
C18 C16 1_555 1_555
O10 C18 1_555 1_555
C19 C24 1_555 1_555
C20 N1 1_555 1_555
H10 C20 1_555 1_555
C21 C30 1_555 1_555
C22 C15 1_555 1_555
H11 C22 1_555 1_555
C23 N2 1_555 1_555
H12 C23 1_555 1_555
C24 H13 1_555 1_555
C25 O8 1_555 1_555
C26 C22 1_555 1_555
C27 N1 1_555 1_555
H14 C27 1_555 1_555
C28 C19 1_555 1_555
H15 C28 1_555 1_555
C29 C19 1_555 1_555
H16 C29 1_555 1_555
C30 H17 1_555 1_555
C31 H18 1_555 1_555
C32 C31 1_555 1_555
H19 C32 1_555 1_555
C33 O9 1_555 1_555
C34 C25 1_555 1_555
H20 C34 1_555 1_555
C35 C23 1_555 1_555
H21 C35 1_555 1_555
C36 C24 1_555 1_555
H22 C36 1_555 1_555
C37 C21 1_555 1_555
H23 C37 1_555 1_555
C38 C17 1_555 1_555
H24 C38 1_555 1_555
C39 C33 1_555 1_555
H25 C39 1_555 1_555
C40 C25 1_555 1_555
H26 C40 1_555 1_555
O11 H27 1_555 1_555
H28 O11 1_555 1_555
Zn1_2 O5 1_555 1_555
Zn1A O1 1_555 1_555
Zn2_2 O3 1_555 1_555
Zn2A O4 1_555 1_555
O1A Zn1 1_555 1_555
O3_2 Zn2 1_555 1_555
O4A Zn2 1_555 1_555
O5_2 Zn1 1_555 1_555
C3 C6 1_555 1_555
C5 C10 1_555 1_555
C7 C14 1_555 1_555
C13 C16 1_555 1_555
C20 C28 1_555 1_555
C26 C35 1_555 1_555
C26 C36 1_555 1_555
C27 C29 1_555 1_555
C30 C34 1_555 1_555
C32 C33 1_555 1_555
C37 C40 1_555 1_555
C38 C39 1_555 1_555

#END
