
#######################################################################
#
#                 Cambridge Crystallographic Data Centre
#                                CCDC 
#
#######################################################################
#
# If this CIF has been generated from an entry in the Cambridge 
# Structural Database, then it will include bibliographic, chemical, 
# crystal, experimental, refinement or atomic coordinate data resulting 
# from the CCDC's data processing and validation procedures.
#
#######################################################################

data_XUPSAC
_symmetry_cell_setting           monoclinic
_symmetry_space_group_name_H-M   'C 2/c'
_symmetry_Int_Tables_number      15
_space_group_name_Hall           '-C 2yn'
loop_
_symmetry_equiv_pos_site_id
_symmetry_equiv_pos_as_xyz
1 x,y,z
2 1/2+x,1/2+y,z
3 x,-y,1/2+z
4 1/2+x,1/2-y,1/2+z
5 -x,-y,-z
6 1/2-x,1/2-y,-z
7 -x,y,1/2-z
8 1/2-x,1/2+y,1/2-z
_cell_length_a                   20.137(3)
_cell_length_b                   8.0714(15)
_cell_length_c                   19.020(3)
_cell_angle_alpha                90
_cell_angle_beta                 117.04(3)
_cell_angle_gamma                90
_cell_volume                     2753.47
loop_
_atom_site_label
_atom_site_type_symbol
_atom_site_fract_x
_atom_site_fract_y
_atom_site_fract_z
Sn1 Sn 0.110551(10) 0.15170(2) 0.446773(10)
O1 O 0.09588(11) -0.0064(2) 0.35077(12)
O2 O 0.21856(11) 0.0216(2) 0.39523(12)
N1 N 0.00225(14) -0.2898(3) 0.08504(17)
N2 N 0.13054(16) -0.3552(3) 0.06645(16)
C1 C -0.00660(17) 0.1673(4) 0.40902(19)
C2 C -0.0479(2) 0.2967(4) 0.3723(2)
C3 C 0.16443(17) -0.0268(4) 0.53665(18)
C4 C 0.18052(18) -0.1791(4) 0.52283(19)
C5 C 0.15305(18) 0.3632(3) 0.4146(2)
C6 C 0.1233(2) 0.4197(5) 0.3420(2)
C7 C 0.15748(15) -0.0309(3) 0.34488(16)
C8 C 0.15023(16) -0.1237(3) 0.27413(17)
C9 C 0.08014(17) -0.1671(3) 0.21408(18)
C10 C 0.07267(15) -0.2460(3) 0.14600(16)
C11 C 0.13741(16) -0.2855(3) 0.13837(16)
C12 C 0.20719(15) -0.2441(4) 0.19860(16)
C13 C 0.21423(17) -0.1620(3) 0.26601(18)
H1 H -0.011(2) -0.270(5) 0.035(2)
H2 H -0.035(2) -0.248(5) 0.093(2)
H3 H 0.0952(19) -0.424(4) 0.0497(18)
H4 H 0.174(2) -0.406(4) 0.078(2)
H5 H -0.030(2) 0.068(5) 0.419(2)
H6 H -0.027(3) 0.396(6) 0.367(3)
H7 H -0.101(2) 0.305(4) 0.354(2)
H8 H 0.177(2) 0.007(4) 0.591(2)
H9 H 0.2009(18) -0.261(4) 0.563(2)
H10 H 0.170(2) -0.215(5) 0.475(2)
H11 H 0.192(3) 0.416(6) 0.453(3)
H12 H 0.082(3) 0.371(6) 0.306(3)
H13 H 0.141(3) 0.512(6) 0.330(3)
H14 H 0.039(2) -0.136(4) 0.217(2)
H15 H 0.2534(18) -0.261(4) 0.1918(18)
H16 H 0.263(2) -0.131(4) 0.306(2)
N2B N 0.13054(16) 0.3552(3) 0.56645(16)
Sn1B Sn 0.110551(10) -0.15170(2) -0.053227(10)
H3B H 0.0952(19) 0.424(4) 0.5497(18)
H4B H 0.174(2) 0.406(4) 0.578(2)
loop_
_geom_bond_atom_site_label_1
_geom_bond_atom_site_label_2
_geom_bond_site_symmetry_1
_geom_bond_site_symmetry_2
Sn1 O1 1_555 1_555
O1 C7 1_555 1_555
O2 C7 1_555 1_555
N1 C10 1_555 1_555
N2 C11 1_555 1_555
C1 Sn1 1_555 1_555
C2 C1 1_555 1_555
C3 Sn1 1_555 1_555
C4 C3 1_555 1_555
C5 Sn1 1_555 1_555
C6 C5 1_555 1_555
C7 C8 1_555 1_555
C8 C9 1_555 1_555
C9 C10 1_555 1_555
C10 C11 1_555 1_555
C11 C12 1_555 1_555
C12 C13 1_555 1_555
C13 C8 1_555 1_555
H1 N1 1_555 1_555
H2 N1 1_555 1_555
H3 N2 1_555 1_555
H4 N2 1_555 1_555
H5 C1 1_555 1_555
H6 C2 1_555 1_555
H7 C2 1_555 1_555
H8 C3 1_555 1_555
H9 C4 1_555 1_555
H10 C4 1_555 1_555
H11 C5 1_555 1_555
H12 C6 1_555 1_555
H13 C6 1_555 1_555
H14 C9 1_555 1_555
H15 C12 1_555 1_555
H16 C13 1_555 1_555
N2B Sn1 1_555 1_555
Sn1B N2 1_555 1_555
H3B N2B 1_555 1_555
H4B N2B 1_555 1_555

#END
