
#######################################################################
#
#                 Cambridge Crystallographic Data Centre
#                                CCDC 
#
#######################################################################
#
# If this CIF has been generated from an entry in the Cambridge 
# Structural Database, then it will include bibliographic, chemical, 
# crystal, experimental, refinement or atomic coordinate data resulting 
# from the CCDC's data processing and validation procedures.
#
#######################################################################

data_XUPSEG
_symmetry_cell_setting           monoclinic
_symmetry_space_group_name_H-M   'P 2/n'
_symmetry_Int_Tables_number      13
_space_group_name_Hall           '-P 2yac'
loop_
_symmetry_equiv_pos_site_id
_symmetry_equiv_pos_as_xyz
1 x,y,z
2 1/2+x,-y,1/2+z
3 -x,-y,-z
4 1/2-x,y,1/2-z
_cell_length_a                   8.1260(10)
_cell_length_b                   6.6430(10)
_cell_length_c                   15.556(3)
_cell_angle_alpha                90
_cell_angle_beta                 99.130(10)
_cell_angle_gamma                90
_cell_volume                     829.09
loop_
_atom_site_label
_atom_site_type_symbol
_atom_site_fract_x
_atom_site_fract_y
_atom_site_fract_z
Pb1 Pb 0.7500 0.50102(5) 0.7500
I1 I 1.03955(7) 0.60994(8) 0.83981(3)
N1 N 0.8148(7) 0.2244(8) 0.6542(3)
N2 N 1.0002(7) -0.4188(9) 0.5297(4)
C1 C 0.9404(9) 0.0989(12) 0.6793(4)
H1 H 1.0123 0.1274 0.7306
C2 C 0.9701(9) -0.0718(11) 0.6333(5)
H2 H 1.0592 -0.1561 0.6535
C3 C 0.8658(8) -0.1146(9) 0.5572(4)
C4 C 0.7369(9) 0.0189(10) 0.5302(5)
H3 H 0.6648 -0.0040 0.4784
C5 C 0.7157(9) 0.1853(10) 0.5801(5)
H4 H 0.6286 0.2734 0.5609
C6 C 0.8872(8) -0.2929(9) 0.5058(4)
H5 H 0.8152 -0.3140 0.4539
N2B N 0.9998(7) -0.5812(9) 0.4703(4)
C6B C 1.1128(8) -0.7071(9) 0.4942(4)
C3B C 1.1342(8) -0.8854(9) 0.4428(4)
C2B C 1.0299(9) -0.9282(11) 0.3667(5)
C1B C 1.0596(9) -1.0989(12) 0.3207(4)
N1B N 1.1852(7) -1.2244(8) 0.3458(3)
C5B C 1.2843(9) -1.1853(10) 0.4199(5)
C4B C 1.2631(9) -1.0189(10) 0.4698(5)
H3B H 1.3352 -0.9960 0.5216
H4B H 1.3714 -1.2734 0.4391
H1B H 0.9877 -1.1274 0.2694
H2B H 0.9408 -0.8439 0.3465
H5B H 1.1848 -0.6860 0.5461
I1C I 0.46045(7) 0.60994(8) 0.66019(3)
N1C N 0.6852(7) 0.2244(8) 0.8458(3)
Pb1A Pb 1.2500 -1.50102(5) 0.2500
loop_
_geom_bond_atom_site_label_1
_geom_bond_atom_site_label_2
_geom_bond_site_symmetry_1
_geom_bond_site_symmetry_2
Pb1 I1 1_555 1_555
N1 Pb1 1_555 1_555
N2 C6 1_555 1_555
C1 N1 1_555 1_555
H1 C1 1_555 1_555
C2 C1 1_555 1_555
H2 C2 1_555 1_555
C3 C2 1_555 1_555
C4 C3 1_555 1_555
H3 C4 1_555 1_555
C5 N1 1_555 1_555
H4 C5 1_555 1_555
C6 C3 1_555 1_555
H5 C6 1_555 1_555
N2B N2 1_555 1_555
C6B N2B 1_555 1_555
C3B C6B 1_555 1_555
C2B C3B 1_555 1_555
C1B C2B 1_555 1_555
N1B C1B 1_555 1_555
C5B N1B 1_555 1_555
C4B C3B 1_555 1_555
H3B C4B 1_555 1_555
H4B C5B 1_555 1_555
H1B C1B 1_555 1_555
H2B C2B 1_555 1_555
H5B C6B 1_555 1_555
I1C Pb1 1_555 1_555
N1C Pb1 1_555 1_555
Pb1A N1B 1_555 1_555
C4 C5 1_555 1_555
C5B C4B 1_555 1_555

#END
