
#######################################################################
#
#                 Cambridge Crystallographic Data Centre
#                                CCDC 
#
#######################################################################
#
# If this CIF has been generated from an entry in the Cambridge 
# Structural Database, then it will include bibliographic, chemical, 
# crystal, experimental, refinement or atomic coordinate data resulting 
# from the CCDC's data processing and validation procedures.
#
#######################################################################

data_XUPTOR
_symmetry_cell_setting           triclinic
_symmetry_space_group_name_H-M   'P -1'
_symmetry_Int_Tables_number      2
_space_group_name_Hall           '-P 1'
loop_
_symmetry_equiv_pos_site_id
_symmetry_equiv_pos_as_xyz
1 x,y,z
2 -x,-y,-z
_cell_length_a                   10.168(14)
_cell_length_b                   11.347(14)
_cell_length_c                   14.74(2)
_cell_angle_alpha                109.963(10)
_cell_angle_beta                 93.334(10)
_cell_angle_gamma                113.470(10)
_cell_volume                     1428.56
loop_
_atom_site_label
_atom_site_type_symbol
_atom_site_fract_x
_atom_site_fract_y
_atom_site_fract_z
Cu1 Cu 0.85992(7) 0.69001(6) 0.77256(4)
O1 O 0.6950(4) 0.5118(3) 0.7417(3)
H1 H 0.690(9) 0.500(8) 0.798(3)
Cu2 Cu 0.76081(7) 0.36847(6) 0.69834(4)
N1 N 1.0272(5) 0.8818(4) 0.8148(3)
C1 C 1.1636(6) 0.9081(6) 0.8024(5)
H2 H 1.1817 0.8342 0.7643
C2 C 1.2778(6) 1.0406(6) 0.8441(5)
H3 H 1.3719 1.0559 0.8346
C3 C 1.2517(7) 1.1521(6) 0.9010(5)
H4 H 1.3274 1.2429 0.9296
C4 C 1.1114(6) 1.1246(5) 0.9135(4)
H5 H 1.0916 1.1970 0.9520
C5 C 0.9980(6) 0.9881(5) 0.8687(3)
C6 C 0.8460(6) 0.9465(5) 0.8786(4)
C7 C 0.7905(6) 1.0395(5) 0.9244(4)
H6 H 0.8522 1.1352 0.9539
C8 C 0.6433(7) 0.9893(6) 0.9259(4)
H7 H 0.6054 1.0511 0.9567
C9 C 0.5530(7) 0.8488(6) 0.8820(5)
H8 H 0.4535 0.8135 0.8826
C10 C 0.6138(6) 0.7597(6) 0.8364(4)
H9 H 0.5537 0.6637 0.8070
N2 N 0.7566(5) 0.8083(4) 0.8334(3)
O2 O 0.9476(4) 0.5951(4) 0.6685(2)
C11 C 0.9182(6) 0.6099(6) 0.5890(4)
O3 O 0.8455(6) 0.6718(5) 0.5772(3)
C12 C 0.9718(6) 0.5431(6) 0.5019(4)
H10 H 0.9642 0.5647 0.4470
O4 O 0.9735(4) 0.6680(4) 0.8926(3)
O5 O 0.8972(4) 0.4347(4) 0.8223(3)
C13 C 0.9578(6) 0.5553(5) 0.8965(4)
C14 C 1.0108(6) 0.5570(5) 0.9930(4)
H11 H 1.0618 0.6431 1.0462
N3 N 0.8193(6) 0.2124(5) 0.6378(3)
C15 C 0.9108(8) 0.1849(7) 0.6866(5)
H12 H 0.9628 0.2476 0.7509
C16 C 0.9303(8) 0.0638(7) 0.6432(5)
H13 H 0.9931 0.0450 0.6782
C17 C 0.8539(9) -0.0264(7) 0.5475(6)
H14 H 0.8632 -0.1083 0.5169
C18 C 0.7637(8) 0.0058(6) 0.4974(5)
H15 H 0.7137 -0.0539 0.4322
C19 C 0.7462(6) 0.1268(5) 0.5430(4)
C20 C 0.6500(7) 0.1681(6) 0.4959(4)
C21 C 0.5691(8) 0.0968(7) 0.4009(5)
H16 H 0.5711 0.0148 0.3599
C22 C 0.4813(9) 0.1502(8) 0.3653(5)
H17 H 0.4292 0.1063 0.2997
C23 C 0.4751(8) 0.2639(8) 0.4276(5)
H18 H 0.4162 0.2984 0.4059
C24 C 0.5560(7) 0.3311(6) 0.5247(5)
H19 H 0.5511 0.4108 0.5671
N4 N 0.6422(5) 0.2830(5) 0.5589(3)
O6 O 0.5704(5) 0.2302(4) 0.7613(3)
H20 H 0.604(7) 0.271(7) 0.8285(17)
H21 H 0.488(5) 0.240(8) 0.758(5)
C12A C 1.0282(6) 0.4569(6) 0.4981(4)
C11A C 1.0818(6) 0.3901(6) 0.4110(4)
O2A O 1.0524(4) 0.4049(4) 0.3315(2)
O3A O 1.1545(6) 0.3282(5) 0.4228(3)
H10A H 1.0358 0.4353 0.5530
C14A C 0.9892(6) 0.4430(5) 1.0070(4)
C13A C 1.0422(6) 0.4447(5) 1.1035(4)
O4A O 1.0265(4) 0.3320(4) 1.1074(3)
O5A O 1.1028(4) 0.5653(4) 1.1777(3)
H11A H 0.9382 0.3569 0.9538
Cu1A Cu 1.14008(7) 0.30999(6) 0.22744(4)
Cu2A Cu 1.23919(7) 0.63153(6) 1.30166(4)
O1A O 1.3050(4) 0.4882(3) 0.2583(3)
H1A H 1.310(9) 0.500(8) 0.202(3)
N1A N 0.9728(5) 0.1182(4) 0.1852(3)
C1A C 0.8364(6) 0.0919(6) 0.1976(5)
H2A H 0.8183 0.1658 0.2357
C2A C 0.7222(6) -0.0406(6) 0.1559(5)
H3A H 0.6281 -0.0559 0.1654
C3A C 0.7483(7) -0.1521(6) 0.0990(5)
H4A H 0.6726 -0.2429 0.0704
C4A C 0.8886(6) -0.1246(5) 0.0865(4)
H5A H 0.9084 -0.1970 0.0480
C5A C 1.0020(6) 0.0119(5) 0.1313(3)
C6A C 1.1540(6) 0.0535(5) 0.1214(4)
C7A C 1.2095(6) -0.0395(5) 0.0756(4)
H6A H 1.1478 -0.1352 0.0461
C8A C 1.3567(7) 0.0107(6) 0.0741(4)
H7A H 1.3946 -0.0511 0.0433
C9A C 1.4470(7) 0.1512(6) 0.1180(5)
H8A H 1.5465 0.1865 0.1174
C10A C 1.3862(6) 0.2403(6) 0.1636(4)
H9A H 1.4463 0.3363 0.1930
N2A N 1.2434(5) 0.1917(4) 0.1666(3)
N3A N 1.1807(6) 0.7876(5) 1.3622(3)
C15A C 1.0892(8) 0.8151(7) 1.3134(5)
H12A H 1.0372 0.7524 1.2491
C16A C 1.0697(8) 0.9362(7) 1.3568(5)
H13A H 1.0069 0.9550 1.3218
C17A C 1.1461(9) 1.0264(7) 1.4525(6)
H14A H 1.1368 1.1083 1.4831
C18A C 1.2363(8) 0.9942(6) 1.5026(5)
H15A H 1.2863 1.0539 1.5678
C19A C 1.2538(6) 0.8732(5) 1.4570(4)
C20A C 1.3500(7) 0.8319(6) 1.5041(4)
C21A C 1.4309(8) 0.9032(7) 1.5991(5)
H16A H 1.4289 0.9852 1.6401
C22A C 1.5187(9) 0.8498(8) 1.6347(5)
H17A H 1.5708 0.8937 1.7003
C23A C 1.5249(8) 0.7361(8) 1.5724(5)
H18A H 1.5838 0.7016 1.5941
C24A C 1.4440(7) 0.6689(6) 1.4753(5)
H19A H 1.4489 0.5892 1.4329
N4A N 1.3578(5) 0.7170(5) 1.4411(3)
O6A O 1.4296(5) 0.7698(4) 1.2387(3)
H20A H 1.396(7) 0.729(7) 1.1715(17)
H21A H 1.512(5) 0.760(8) 1.242(5)
Cu1A_2 Cu 1.14008(7) 0.30999(6) 1.22744(4)
O4A_2 O 1.0265(4) 0.3320(4) 0.1074(3)
O1A_2 O 1.3050(4) 0.4882(3) 1.2583(3)
Cu2A_2 Cu 1.23919(7) 0.63153(6) 0.30166(4)
H1A_2 H 1.310(9) 0.500(8) 1.202(3)
O7 O 0.7839(5) 0.4083(5) 1.2439(4)
O8 O 0.3330(7) 0.2823(7) 0.7300(5)
H22 H 0.326(9) 0.342(9) 0.793(7)
H23 H 0.338(10) 0.319(10) 0.689(7)
O9 O 0.6836(8) 0.5719(8) 0.3840(4)
H24 H 0.761(7) 0.625(8) 0.439(4)
H25 H 0.704(9) 0.502(7) 0.349(5)
N5 N 0.6658(6) 0.4471(7) 1.0150(5)
O10 O 0.6324(6) 0.3177(6) 0.9743(4)
O11 O 0.7099(8) 0.5142(7) 1.1084(4)
O12 O 0.6574(7) 0.5086(6) 0.9625(4)
loop_
_geom_bond_atom_site_label_1
_geom_bond_atom_site_label_2
_geom_bond_site_symmetry_1
_geom_bond_site_symmetry_2
Cu1 O1 1_555 1_555
O1 H1 1_555 1_555
Cu2 O1 1_555 1_555
N1 Cu1 1_555 1_555
C1 N1 1_555 1_555
H2 C1 1_555 1_555
C2 C1 1_555 1_555
H3 C2 1_555 1_555
C3 C2 1_555 1_555
H4 C3 1_555 1_555
C4 C3 1_555 1_555
H5 C4 1_555 1_555
C5 N1 1_555 1_555
C6 C5 1_555 1_555
C7 C6 1_555 1_555
H6 C7 1_555 1_555
C8 C7 1_555 1_555
H7 C8 1_555 1_555
C9 C8 1_555 1_555
H8 C9 1_555 1_555
C10 C9 1_555 1_555
H9 C10 1_555 1_555
N2 Cu1 1_555 1_555
O2 Cu1 1_555 1_555
C11 O2 1_555 1_555
O3 C11 1_555 1_555
C12 C11 1_555 1_555
H10 C12 1_555 1_555
O4 Cu1 1_555 1_555
O5 Cu2 1_555 1_555
C13 O4 1_555 1_555
C14 C13 1_555 1_555
H11 C14 1_555 1_555
N3 Cu2 1_555 1_555
C15 N3 1_555 1_555
H12 C15 1_555 1_555
C16 C15 1_555 1_555
H13 C16 1_555 1_555
C17 C16 1_555 1_555
H14 C17 1_555 1_555
C18 C17 1_555 1_555
H15 C18 1_555 1_555
C19 N3 1_555 1_555
C20 C19 1_555 1_555
C21 C20 1_555 1_555
H16 C21 1_555 1_555
C22 C21 1_555 1_555
H17 C22 1_555 1_555
C23 C22 1_555 1_555
H18 C23 1_555 1_555
C24 C23 1_555 1_555
H19 C24 1_555 1_555
N4 Cu2 1_555 1_555
O6 Cu2 1_555 1_555
H20 O6 1_555 1_555
H21 O6 1_555 1_555
O8 H22 1_555 1_555
H23 O8 1_555 1_555
O9 H24 1_555 1_555
H25 O9 1_555 1_555
N5 O10 1_555 1_555
O11 N5 1_555 1_555
O12 N5 1_555 1_555
C12A C12 1_555 1_555
C11A C12A 1_555 1_555
O2A C11A 1_555 1_555
O3A C11A 1_555 1_555
H10A C12A 1_555 1_555
C14A C14 1_555 1_555
C13A C14A 1_555 1_555
O4A C13A 1_555 1_555
O5A C13A 1_555 1_555
H11A C14A 1_555 1_555
Cu1A O2A 1_555 1_555
Cu2A O5A 1_555 1_555
O1A Cu1A 1_555 1_555
H1A O1A 1_555 1_555
N1A Cu1A 1_555 1_555
C1A N1A 1_555 1_555
H2A C1A 1_555 1_555
C2A C1A 1_555 1_555
H3A C2A 1_555 1_555
C3A C2A 1_555 1_555
H4A C3A 1_555 1_555
C4A C3A 1_555 1_555
H5A C4A 1_555 1_555
C5A N1A 1_555 1_555
C6A C5A 1_555 1_555
C7A C6A 1_555 1_555
H6A C7A 1_555 1_555
C8A C7A 1_555 1_555
H7A C8A 1_555 1_555
C9A C8A 1_555 1_555
H8A C9A 1_555 1_555
C10A C9A 1_555 1_555
H9A C10A 1_555 1_555
N2A Cu1A 1_555 1_555
N3A Cu2A 1_555 1_555
C15A N3A 1_555 1_555
H12A C15A 1_555 1_555
C16A C15A 1_555 1_555
H13A C16A 1_555 1_555
C17A C16A 1_555 1_555
H14A C17A 1_555 1_555
C18A C17A 1_555 1_555
H15A C18A 1_555 1_555
C19A N3A 1_555 1_555
C20A C19A 1_555 1_555
C21A C20A 1_555 1_555
H16A C21A 1_555 1_555
C22A C21A 1_555 1_555
H17A C22A 1_555 1_555
C23A C22A 1_555 1_555
H18A C23A 1_555 1_555
C24A C23A 1_555 1_555
H19A C24A 1_555 1_555
N4A Cu2A 1_555 1_555
O6A Cu2A 1_555 1_555
H20A O6A 1_555 1_555
H21A O6A 1_555 1_555
Cu1A_2 O4A 1_555 1_555
O4A_2 Cu1A 1_555 1_555
O1A_2 Cu2A 1_555 1_555
Cu2A_2 O1A 1_555 1_555
H1A_2 O1A_2 1_555 1_555
C4 C5 1_555 1_555
C6 N2 1_555 1_555
C10 N2 1_555 1_555
O5 C13 1_555 1_555
C18 C19 1_555 1_555
C20 N4 1_555 1_555
C24 N4 1_555 1_555
C4A C5A 1_555 1_555
C6A N2A 1_555 1_555
C10A N2A 1_555 1_555
C18A C19A 1_555 1_555
C20A N4A 1_555 1_555
C24A N4A 1_555 1_555
Cu1A_2 O1A_2 1_555 1_555

#END
