
#######################################################################
#
#                 Cambridge Crystallographic Data Centre
#                                CCDC 
#
#######################################################################
#
# If this CIF has been generated from an entry in the Cambridge 
# Structural Database, then it will include bibliographic, chemical, 
# crystal, experimental, refinement or atomic coordinate data resulting 
# from the CCDC's data processing and validation procedures.
#
#######################################################################

data_XUPTUX
_symmetry_cell_setting           orthorhombic
_symmetry_space_group_name_H-M   'P b c a'
_symmetry_Int_Tables_number      61
_space_group_name_Hall           '-P 2ac 2ab'
loop_
_symmetry_equiv_pos_site_id
_symmetry_equiv_pos_as_xyz
1 x,y,z
2 x,1/2-y,1/2+z
3 1/2-x,1/2+y,z
4 1/2+x,y,1/2-z
5 -x,-y,-z
6 -x,1/2+y,1/2-z
7 1/2+x,1/2-y,-z
8 1/2-x,-y,1/2+z
_cell_length_a                   14.701(19)
_cell_length_b                   14.899(19)
_cell_length_c                   26.90(3)
_cell_angle_alpha                90
_cell_angle_beta                 90
_cell_angle_gamma                90
_cell_volume                     5891.91
loop_
_atom_site_label
_atom_site_type_symbol
_atom_site_fract_x
_atom_site_fract_y
_atom_site_fract_z
Cu1 Cu 0.25248(4) 0.32513(4) 0.49911(2)
N1 N 0.2980(3) 0.2312(3) 0.54813(16)
C1 C 0.3984(4) 0.2271(5) 0.5516(3)
H1 H 0.4235 0.2158 0.5193
H2 H 0.4157 0.1798 0.5739
H3 H 0.4211 0.2833 0.5639
C2 C 0.2617(5) 0.2512(6) 0.5978(2)
H4 H 0.2745 0.3126 0.6061
H5 H 0.2899 0.2124 0.6218
H6 H 0.1972 0.2416 0.5980
C3 C 0.2622(5) 0.1448(5) 0.5289(2)
H7 H 0.1989 0.1380 0.5383
H8 H 0.2964 0.0953 0.5430
C4 C 0.2706(5) 0.1436(4) 0.4735(2)
H9 H 0.3344 0.1449 0.4642
H10 H 0.2440 0.0889 0.4605
N2 N 0.2239(3) 0.2216(3) 0.45236(15)
C5 C 0.2588(5) 0.2399(5) 0.4018(2)
H11 H 0.3233 0.2495 0.4033
H12 H 0.2298 0.2925 0.3887
H13 H 0.2460 0.1896 0.3807
C6 C 0.1243(4) 0.2052(5) 0.4488(3)
H14 H 0.0963 0.2529 0.4303
H15 H 0.0987 0.2031 0.4816
H16 H 0.1136 0.1492 0.4323
O1 O 0.3234(2) 0.4248(3) 0.53166(14)
C7 C 0.3887(4) 0.4302(3) 0.50116(19)
O2 O 0.3936(3) 0.3838(3) 0.46324(15)
C8 C 0.4615(3) 0.4969(4) 0.51269(19)
H17 H 0.4523 0.5362 0.5391
O3 O 0.1694(2) 0.4122(3) 0.46655(14)
C9 C 0.1023(4) 0.4181(3) 0.49691(19)
O4 O 0.0949(3) 0.3706(3) 0.53423(15)
C10 C 0.0323(3) 0.4874(4) 0.48472(19)
H18 H 0.0347 0.5143 0.4535
C8D C 0.5385(3) 0.5031(4) 0.48731(19)
C7D C 0.6113(4) 0.5698(3) 0.49884(19)
O1D O 0.6766(2) 0.5752(3) 0.46834(14)
O2D O 0.6064(3) 0.6162(3) 0.53676(15)
H17D H 0.5477 0.4638 0.4609
C10D C -0.0323(3) 0.5126(4) 0.51528(19)
C9D C -0.1023(4) 0.5819(3) 0.50309(19)
O3D O -0.1694(2) 0.5878(3) 0.53345(14)
O4D O -0.0949(3) 0.6294(3) 0.46577(15)
H18D H -0.0347 0.4857 0.5465
Cu1D Cu 0.74752(4) 0.67487(4) 0.50089(2)
N1D N 0.7020(3) 0.7688(3) 0.45187(16)
C1D C 0.6016(4) 0.7729(5) 0.4484(3)
H1D H 0.5765 0.7842 0.4807
H2D H 0.5843 0.8202 0.4261
H3D H 0.5789 0.7167 0.4361
C2D C 0.7383(5) 0.7488(6) 0.4022(2)
H4D H 0.7255 0.6874 0.3939
H5D H 0.7101 0.7876 0.3782
H6D H 0.8028 0.7584 0.4020
C3D C 0.7378(5) 0.8552(5) 0.4711(2)
H7D H 0.8011 0.8620 0.4617
H8D H 0.7036 0.9047 0.4570
C4D C 0.7294(5) 0.8564(4) 0.5265(2)
H9D H 0.6656 0.8551 0.5358
H10D H 0.7560 0.9111 0.5395
N2D N 0.7761(3) 0.7784(3) 0.54764(15)
C5D C 0.7412(5) 0.7601(5) 0.5982(2)
H11D H 0.6767 0.7505 0.5967
H12D H 0.7702 0.7075 0.6113
H13D H 0.7540 0.8104 0.6193
C6D C 0.8757(4) 0.7948(5) 0.5512(3)
H14D H 0.9037 0.7471 0.5697
H15D H 0.9013 0.7969 0.5184
H16D H 0.8864 0.8508 0.5677
Cu1D_2 Cu -0.25248(4) 0.67487(4) 0.50089(2)
O3D_2 O 0.8306(2) 0.5878(3) 0.53345(14)
Cu2 Cu 0.42430(4) 0.43955(4) 0.74674(2)
N3 N 0.5262(3) 0.4029(3) 0.79404(15)
C11 C 0.5067(4) 0.4394(5) 0.84491(19)
H19 H 0.4520 0.4126 0.8576
H20 H 0.4991 0.5033 0.8430
H21 H 0.5565 0.4256 0.8667
C12 C 0.5374(4) 0.3032(4) 0.7976(2)
H22 H 0.4822 0.2769 0.8099
H23 H 0.5865 0.2895 0.8199
H24 H 0.5508 0.2793 0.7653
C13 C 0.6081(4) 0.4445(4) 0.7743(2)
H25 H 0.6615 0.4145 0.7874
H26 H 0.6106 0.5071 0.7841
C14 C 0.6072(4) 0.4374(4) 0.7174(2)
H27 H 0.6605 0.4667 0.7037
H28 H 0.6081 0.3748 0.7074
N4 N 0.5229(3) 0.4816(3) 0.69865(15)
C15 C 0.5023(4) 0.4501(5) 0.6480(2)
H29 H 0.4418 0.4682 0.6390
H30 H 0.5066 0.3858 0.6468
H31 H 0.5450 0.4758 0.6250
C16 C 0.5330(5) 0.5812(4) 0.6975(2)
H32 H 0.5496 0.6023 0.7300
H33 H 0.4764 0.6079 0.6877
H34 H 0.5795 0.5973 0.6741
O5 O 0.3290(2) 0.5163(3) 0.71486(13)
C17 C 0.3211(3) 0.5800(4) 0.74599(19)
O6 O 0.3670(3) 0.5845(3) 0.78473(15)
C18 C 0.2540(3) 0.6518(4) 0.73318(19)
H35 H 0.2207 0.6456 0.7040
C19 C 0.2394(3) 0.7233(4) 0.76089(19)
H36 H 0.2730 0.7296 0.7900
C20 C 0.1722(3) 0.7948(4) 0.74841(19)
O7 O 0.1688(2) 0.8615(2) 0.77834(14)
O8 O 0.1234(3) 0.7884(3) 0.71108(14)
O5B O 0.1710(2) 0.0163(3) 0.71486(13)
C17B C 0.1789(3) 0.0800(4) 0.74599(19)
O6B O 0.1330(3) 0.0845(3) 0.78473(15)
C18B C 0.2460(3) 0.1518(4) 0.73318(19)
H35B H 0.2793 0.1456 0.7040
C19B C 0.2606(3) 0.2233(4) 0.76089(19)
H36B H 0.2270 0.2296 0.7900
C20B C 0.3278(3) 0.2948(4) 0.74841(19)
O7B O 0.3312(2) 0.3615(2) 0.77834(14)
O8B O 0.3766(3) 0.2884(3) 0.71108(14)
Cu2B Cu 0.07570(4) -0.06045(4) 0.74674(2)
N3B N -0.0262(3) -0.0971(3) 0.79404(15)
C11B C -0.0067(4) -0.0606(5) 0.84491(19)
H19B H 0.0480 -0.0874 0.8576
H20B H 0.0009 0.0033 0.8430
H21B H -0.0565 -0.0744 0.8667
C12B C -0.0374(4) -0.1968(4) 0.7976(2)
H22B H 0.0178 -0.2231 0.8099
H23B H -0.0865 -0.2105 0.8199
H24B H -0.0508 -0.2207 0.7653
C13B C -0.1081(4) -0.0555(4) 0.7743(2)
H25B H -0.1615 -0.0855 0.7874
H26B H -0.1106 0.0071 0.7841
C14B C -0.1072(4) -0.0626(4) 0.7174(2)
H27B H -0.1605 -0.0333 0.7037
H28B H -0.1081 -0.1252 0.7074
N4B N -0.0229(3) -0.0184(3) 0.69865(15)
C15B C -0.0023(4) -0.0499(5) 0.6480(2)
H29B H 0.0582 -0.0318 0.6390
H30B H -0.0066 -0.1142 0.6468
H31B H -0.0450 -0.0242 0.6250
C16B C -0.0330(5) 0.0812(4) 0.6975(2)
H32B H -0.0496 0.1023 0.7300
H33B H 0.0236 0.1079 0.6877
H34B H -0.0795 0.0973 0.6741
Cu2B_2 Cu 0.07570(4) 0.93955(4) 0.74674(2)
O7_2 O 0.1688(2) -0.1385(2) 0.77834(14)
O9 O 0.4771(5) 0.7042(5) 0.8390(2)
O10 O 0.2390(5) 0.4892(5) 0.37449(19)
O11 O 0.0265(4) 0.2150(5) 0.58689(19)
O12 O 0.2366(6) 0.4989(9) 0.6227(3)
loop_
_geom_bond_atom_site_label_1
_geom_bond_atom_site_label_2
_geom_bond_site_symmetry_1
_geom_bond_site_symmetry_2
Cu1 N1 1_555 1_555
N1 C1 1_555 1_555
C1 H1 1_555 1_555
H2 C1 1_555 1_555
H3 C1 1_555 1_555
C2 N1 1_555 1_555
H4 C2 1_555 1_555
H5 C2 1_555 1_555
H6 C2 1_555 1_555
C3 N1 1_555 1_555
H7 C3 1_555 1_555
H8 C3 1_555 1_555
C4 C3 1_555 1_555
H9 C4 1_555 1_555
H10 C4 1_555 1_555
N2 Cu1 1_555 1_555
C5 N2 1_555 1_555
H11 C5 1_555 1_555
H12 C5 1_555 1_555
H13 C5 1_555 1_555
C6 N2 1_555 1_555
H14 C6 1_555 1_555
H15 C6 1_555 1_555
H16 C6 1_555 1_555
O1 Cu1 1_555 1_555
C7 O1 1_555 1_555
O2 C7 1_555 1_555
C8 C7 1_555 1_555
H17 C8 1_555 1_555
O3 Cu1 1_555 1_555
C9 O3 1_555 1_555
O4 C9 1_555 1_555
C10 C9 1_555 1_555
H18 C10 1_555 1_555
Cu2 N3 1_555 1_555
N3 C11 1_555 1_555
C11 H19 1_555 1_555
H20 C11 1_555 1_555
H21 C11 1_555 1_555
C12 N3 1_555 1_555
H22 C12 1_555 1_555
H23 C12 1_555 1_555
H24 C12 1_555 1_555
C13 N3 1_555 1_555
H25 C13 1_555 1_555
H26 C13 1_555 1_555
C14 C13 1_555 1_555
H27 C14 1_555 1_555
H28 C14 1_555 1_555
N4 Cu2 1_555 1_555
C15 N4 1_555 1_555
H29 C15 1_555 1_555
H30 C15 1_555 1_555
H31 C15 1_555 1_555
C16 N4 1_555 1_555
H32 C16 1_555 1_555
H33 C16 1_555 1_555
H34 C16 1_555 1_555
O5 Cu2 1_555 1_555
C17 O5 1_555 1_555
O6 C17 1_555 1_555
C18 C17 1_555 1_555
H35 C18 1_555 1_555
C19 C18 1_555 1_555
H36 C19 1_555 1_555
C20 C19 1_555 1_555
O7 C20 1_555 1_555
O8 C20 1_555 1_555
C8D C8 1_555 1_555
C7D C8D 1_555 1_555
O1D C7D 1_555 1_555
O2D C7D 1_555 1_555
H17D C8D 1_555 1_555
C10D C10 1_555 1_555
C9D C10D 1_555 1_555
O3D C9D 1_555 1_555
O4D C9D 1_555 1_555
H18D C10D 1_555 1_555
Cu1D O1D 1_555 1_555
N1D Cu1D 1_555 1_555
C1D N1D 1_555 1_555
H1D C1D 1_555 1_555
H2D C1D 1_555 1_555
H3D C1D 1_555 1_555
C2D N1D 1_555 1_555
H4D C2D 1_555 1_555
H5D C2D 1_555 1_555
H6D C2D 1_555 1_555
C3D N1D 1_555 1_555
H7D C3D 1_555 1_555
H8D C3D 1_555 1_555
C4D C3D 1_555 1_555
H9D C4D 1_555 1_555
H10D C4D 1_555 1_555
N2D Cu1D 1_555 1_555
C5D N2D 1_555 1_555
H11D C5D 1_555 1_555
H12D C5D 1_555 1_555
H13D C5D 1_555 1_555
C6D N2D 1_555 1_555
H14D C6D 1_555 1_555
H15D C6D 1_555 1_555
H16D C6D 1_555 1_555
O5B C17B 1_555 1_555
C17B O6B 1_555 1_555
C18B C17B 1_555 1_555
H35B C18B 1_555 1_555
C19B C18B 1_555 1_555
H36B C19B 1_555 1_555
C20B C19B 1_555 1_555
O7B Cu2 1_555 1_555
O8B C20B 1_555 1_555
Cu2B O5B 1_555 1_555
N3B Cu2B 1_555 1_555
C11B N3B 1_555 1_555
H19B C11B 1_555 1_555
H20B C11B 1_555 1_555
H21B C11B 1_555 1_555
C12B N3B 1_555 1_555
H22B C12B 1_555 1_555
H23B C12B 1_555 1_555
H24B C12B 1_555 1_555
C13B N3B 1_555 1_555
H25B C13B 1_555 1_555
H26B C13B 1_555 1_555
C14B C13B 1_555 1_555
H27B C14B 1_555 1_555
H28B C14B 1_555 1_555
N4B Cu2B 1_555 1_555
C15B N4B 1_555 1_555
H29B C15B 1_555 1_555
H30B C15B 1_555 1_555
H31B C15B 1_555 1_555
C16B N4B 1_555 1_555
H32B C16B 1_555 1_555
H33B C16B 1_555 1_555
H34B C16B 1_555 1_555
Cu2B_2 O7 1_555 1_555
Cu1D_2 O3D 1_555 1_555
O3D_2 Cu1D 1_555 1_555
O7_2 Cu2B 1_555 1_555
C4 N2 1_555 1_555
C14 N4 1_555 1_555
C4D N2D 1_555 1_555
C20B O7B 1_555 1_555
C14B N4B 1_555 1_555

#END
