
#######################################################################
#
#                 Cambridge Crystallographic Data Centre
#                                CCDC 
#
#######################################################################
#
# If this CIF has been generated from an entry in the Cambridge 
# Structural Database, then it will include bibliographic, chemical, 
# crystal, experimental, refinement or atomic coordinate data resulting 
# from the CCDC's data processing and validation procedures.
#
#######################################################################

data_XUPXEL01
_symmetry_cell_setting           orthorhombic
_symmetry_space_group_name_H-M   'P 21 21 21'
_symmetry_Int_Tables_number      19
_space_group_name_Hall           'P 2ac 2ab'
loop_
_symmetry_equiv_pos_site_id
_symmetry_equiv_pos_as_xyz
1 x,y,z
2 1/2-x,-y,1/2+z
3 -x,1/2+y,1/2-z
4 1/2+x,1/2-y,-z
_cell_length_a                   7.715(2)
_cell_length_b                   7.889(7)
_cell_length_c                   14.704(2)
_cell_angle_alpha                90
_cell_angle_beta                 90
_cell_angle_gamma                90
_cell_volume                     894.939
loop_
_atom_site_label
_atom_site_type_symbol
_atom_site_fract_x
_atom_site_fract_y
_atom_site_fract_z
Co1 Co 0.81298(4) 0.62733(4) 0.82270(2)
O1 O 0.5482(3) 0.6682(4) 0.81286(18)
O2 O 1.0782(3) 0.5751(4) 0.81904(19)
O3 O 0.8633(3) 0.8689(3) 0.87383(13)
O4 O 0.7608(3) 0.3727(3) 0.79147(11)
O5 O 0.6695(3) 0.2737(2) 1.18818(11)
O6 O 0.6401(3) 0.1398(2) 0.84755(12)
O7 O 0.8612(4) 0.7432(3) 1.04169(14)
N1 N 0.7829(3) 0.5198(3) 0.95262(14)
N2 N 0.7637(3) 0.5058(3) 1.11118(16)
C1 C 0.6830(4) 0.2647(3) 1.02651(17)
C2 C 0.7055(3) 0.2824(3) 0.85616(16)
C3 C 0.7037(3) 0.3436(3) 1.11360(16)
C4 C 0.7237(3) 0.3573(3) 0.95149(16)
C5 C 0.8040(4) 0.5951(3) 1.03369(17)
H1 H 0.649(4) 0.156(4) 1.024(2)
H2 H 0.770(4) 0.567(5) 1.165(3)
H3 H 0.875(5) 0.855(5) 0.928(3)
H4 H 0.492(5) 0.670(5) 0.767(3)
H5 H 0.502(5) 0.695(5) 0.849(2)
H6 H 1.125(6) 0.639(5) 0.797(3)
H7 H 1.094(7) 0.500(6) 0.815(3)
H8 H 0.782(6) 0.948(6) 0.874(3)
Co1A Co 0.68702(4) 0.37267(4) 1.32270(2)
O5A O 0.8305(3) 0.7263(2) 0.68818(11)
loop_
_geom_bond_atom_site_label_1
_geom_bond_atom_site_label_2
_geom_bond_site_symmetry_1
_geom_bond_site_symmetry_2
Co1 O1 1_555 1_555
O1 H4 1_555 1_555
O2 Co1 1_555 1_555
O3 Co1 1_555 1_555
O4 Co1 1_555 1_555
O5 C3 1_555 1_555
O6 C2 1_555 1_555
O7 C5 1_555 1_555
N1 Co1 1_555 1_555
N2 C3 1_555 1_555
C1 C3 1_555 1_555
C2 O4 1_555 1_555
C4 N1 1_555 1_555
C5 N1 1_555 1_555
H1 C1 1_555 1_555
H2 N2 1_555 1_555
H3 O3 1_555 1_555
H5 O1 1_555 1_555
H6 O2 1_555 1_555
H7 O2 1_555 1_555
H8 O3 1_555 1_555
Co1A O5 1_555 1_555
O5A Co1 1_555 1_555
N2 C5 1_555 1_555
C1 C4 1_555 1_555
C2 C4 1_555 1_555

#END
