
#######################################################################
#
#                 Cambridge Crystallographic Data Centre
#                                CCDC 
#
#######################################################################
#
# If this CIF has been generated from an entry in the Cambridge 
# Structural Database, then it will include bibliographic, chemical, 
# crystal, experimental, refinement or atomic coordinate data resulting 
# from the CCDC's data processing and validation procedures.
#
#######################################################################

data_XUPXEL
_symmetry_cell_setting           orthorhombic
_symmetry_space_group_name_H-M   'P 21 21 21'
_symmetry_Int_Tables_number      19
_space_group_name_Hall           'P 2ac 2ab'
loop_
_symmetry_equiv_pos_site_id
_symmetry_equiv_pos_as_xyz
1 x,y,z
2 1/2-x,-y,1/2+z
3 -x,1/2+y,1/2-z
4 1/2+x,1/2-y,-z
_cell_length_a                   7.7005(3)
_cell_length_b                   7.8725(3)
_cell_length_c                   14.69970(10)
_cell_angle_alpha                90
_cell_angle_beta                 90
_cell_angle_gamma                90
_cell_volume                     891.128
loop_
_atom_site_label
_atom_site_type_symbol
_atom_site_fract_x
_atom_site_fract_y
_atom_site_fract_z
Co1 Co 0.18688(12) 0.87251(12) 0.82276(6)
O1 O 0.2389(6) 1.1265(7) 0.7913(3)
O2 O 0.3597(7) 1.3609(6) 0.8474(3)
O3 O 0.3307(7) 1.2263(6) 1.1879(3)
O4 O 0.1402(8) 0.7558(7) 1.0413(4)
O5 O 0.1372(7) 0.6313(7) 0.8740(3)
O6 O -0.0796(6) 0.9260(6) 0.8183(4)
O7 O 0.4538(7) 0.8324(9) 0.8133(4)
N1 N 0.2368(8) 0.9929(8) 1.1109(4)
N2 N 0.2169(7) 0.9803(7) 0.9527(4)
C1 C 0.2933(9) 1.2171(8) 0.8572(4)
C2 C 0.2764(8) 1.1427(9) 0.9512(4)
C3 C 0.3165(11) 1.2373(9) 1.0265(4)
C4 C 0.2960(9) 1.1557(8) 1.1128(4)
C5 C 0.1968(11) 0.9037(9) 1.0338(5)
O3A O 0.1693(7) 0.7737(6) 0.6879(3)
Co1A Co 0.31312(12) 1.12749(12) 1.32276(6)
loop_
_geom_bond_atom_site_label_1
_geom_bond_atom_site_label_2
_geom_bond_site_symmetry_1
_geom_bond_site_symmetry_2
Co1 O1 1_555 1_555
O1 C1 1_555 1_555
O2 C1 1_555 1_555
O3 C4 1_555 1_555
O4 C5 1_555 1_555
O5 Co1 1_555 1_555
O6 Co1 1_555 1_555
O7 Co1 1_555 1_555
N1 C4 1_555 1_555
N2 Co1 1_555 1_555
C1 C2 1_555 1_555
C2 N2 1_555 1_555
C3 C2 1_555 1_555
C4 C3 1_555 1_555
C5 N1 1_555 1_555
O3A Co1 1_555 1_555
Co1A O3 1_555 1_555
N2 C5 1_555 1_555

#END
