
#######################################################################
#
#                 Cambridge Crystallographic Data Centre
#                                CCDC 
#
#######################################################################
#
# If this CIF has been generated from an entry in the Cambridge 
# Structural Database, then it will include bibliographic, chemical, 
# crystal, experimental, refinement or atomic coordinate data resulting 
# from the CCDC's data processing and validation procedures.
#
#######################################################################

data_XUQBIV01
_symmetry_cell_setting           triclinic
_symmetry_space_group_name_H-M   'P -1'
_symmetry_Int_Tables_number      2
_space_group_name_Hall           '-P 1'
loop_
_symmetry_equiv_pos_site_id
_symmetry_equiv_pos_as_xyz
1 x,y,z
2 -x,-y,-z
_cell_length_a                   9.1662(6)
_cell_length_b                   10.6266(7)
_cell_length_c                   11.3056(7)
_cell_angle_alpha                84.639(1)
_cell_angle_beta                 72.103(1)
_cell_angle_gamma                73.042(1)
_cell_volume                     1002.37
loop_
_atom_site_label
_atom_site_type_symbol
_atom_site_fract_x
_atom_site_fract_y
_atom_site_fract_z
Cu1 Cu 0.11205(4) -0.26711(3) 0.28062(3)
O1 O -0.0224(2) -0.2858(2) 0.18298(17)
O3 O -0.2167(3) -0.3474(2) 0.1510(2)
O5 O -0.0378(3) -0.3014(2) 0.43486(18)
O7 O -0.2336(3) -0.3783(2) 0.55076(19)
O9 O 0.2731(3) -0.4816(2) 0.23422(19)
H9 H 0.370(2) -0.496(4) 0.214(3)
H10 H 0.259(5) -0.527(3) 0.296(3)
N1 N 0.2241(3) -0.1729(2) 0.1349(2)
N2 N 0.2272(3) -0.2228(2) -0.6112(2)
C1 C -0.1302(3) -0.3468(3) 0.2160(3)
C2 C -0.1513(4) -0.4233(3) 0.3367(3)
H11 H -0.2546 -0.4406 0.3582
H12 H -0.0711 -0.5077 0.3215
C3 C -0.1415(3) -0.3631(3) 0.4487(3)
C4 C 0.1500(4) -0.0525(3) 0.1020(3)
H13 H 0.0472 -0.0120 0.1506
C5 C 0.2186(4) 0.0139(3) 0.0000(3)
H14 H 0.1626 0.0975 -0.0190
C6 C 0.3718(3) -0.0439(3) -0.0748(2)
C7 C 0.4491(3) -0.1666(3) -0.0388(3)
H15 H 0.5531 -0.2082 -0.0846
C8 C 0.3729(3) -0.2273(3) 0.0643(3)
H16 H 0.4274 -0.3102 0.0862
C9 C 0.4443(4) 0.0222(3) -0.1922(2)
H17 H 0.5587 -0.0176 -0.2196
H18 H 0.4256 0.1145 -0.1759
C10 C 0.3725(4) 0.0101(3) -0.2959(2)
H19 H 0.2575 0.0467 -0.2673
H20 H 0.4142 0.0602 -0.3680
C11 C 0.4119(4) -0.1318(3) -0.3322(3)
H21 H 0.3738 -0.1810 -0.2581
H22 H 0.5271 -0.1663 -0.3611
C12 C 0.3447(4) -0.1580(3) -0.4308(3)
C13 C 0.2586(4) -0.0620(3) -0.4936(3)
H23 H 0.2378 0.0264 -0.4758
C14 C 0.2034(4) -0.0974(3) -0.5831(3)
H24 H 0.1475 -0.0312 -0.6255
C15 C 0.3104(4) -0.3162(3) -0.5494(3)
H25 H 0.3276 -0.4040 -0.5669
C16 C 0.3707(4) -0.2875(3) -0.4620(3)
H26 H 0.4296 -0.3553 -0.4231
Cu1_2 Cu 0.11205(4) -0.26711(3) -0.71938(3)
N2_2 N 0.2272(3) -0.2228(2) 0.3888(2)
O2 O -0.1525(4) -0.3683(3) -0.1049(2)
H1 H -0.176(6) -0.365(5) -0.0294(19)
H2 H -0.195(6) -0.420(4) -0.119(5)
O4 O -0.0848(6) -0.1962(3) 0.6872(3)
H3 H -0.127(9) -0.235(7) 0.748(4)
H4 H -0.088(9) -0.236(7) 0.630(5)
O6 O 0.1291(3) -0.2827(3) -0.0881(3)
H5 H 0.134(7) -0.255(5) -0.161(3)
H6 H 0.075(6) -0.334(5) -0.082(5)
O8 O 0.5919(3) -0.5154(3) 0.1763(3)
H7 H 0.635(6) -0.458(4) 0.177(5)
H8 H 0.660(5) -0.585(3) 0.154(5)
loop_
_geom_bond_atom_site_label_1
_geom_bond_atom_site_label_2
_geom_bond_site_symmetry_1
_geom_bond_site_symmetry_2
Cu1 O1 1_555 1_555
O1 C1 1_555 1_555
O2 H1 1_555 1_555
H2 O2 1_555 1_555
O3 C1 1_555 1_555
O4 H3 1_555 1_555
H4 O4 1_555 1_555
O5 Cu1 1_555 1_555
O6 H5 1_555 1_555
H6 O6 1_555 1_555
O7 C3 1_555 1_555
O8 H7 1_555 1_555
H8 O8 1_555 1_555
O9 Cu1 1_555 1_555
H9 O9 1_555 1_555
H10 O9 1_555 1_555
N1 Cu1 1_555 1_555
N2 C14 1_555 1_555
C1 C2 1_555 1_555
C2 H11 1_555 1_555
H12 C2 1_555 1_555
C3 O5 1_555 1_555
C4 N1 1_555 1_555
H13 C4 1_555 1_555
C5 C4 1_555 1_555
H14 C5 1_555 1_555
C6 C5 1_555 1_555
C7 C6 1_555 1_555
H15 C7 1_555 1_555
C8 N1 1_555 1_555
H16 C8 1_555 1_555
C9 C6 1_555 1_555
H17 C9 1_555 1_555
H18 C9 1_555 1_555
C10 C9 1_555 1_555
H19 C10 1_555 1_555
H20 C10 1_555 1_555
C11 C10 1_555 1_555
H21 C11 1_555 1_555
H22 C11 1_555 1_555
C12 C11 1_555 1_555
C13 C12 1_555 1_555
H23 C13 1_555 1_555
C14 C13 1_555 1_555
H24 C14 1_555 1_555
C15 N2 1_555 1_555
H25 C15 1_555 1_555
C16 C12 1_555 1_555
H26 C16 1_555 1_555
Cu1_2 N2 1_555 1_555
N2_2 Cu1 1_555 1_555
C2 C3 1_555 1_555
C7 C8 1_555 1_555
C15 C16 1_555 1_555

#END
