
#######################################################################
#
#                 Cambridge Crystallographic Data Centre
#                                CCDC 
#
#######################################################################
#
# If this CIF has been generated from an entry in the Cambridge 
# Structural Database, then it will include bibliographic, chemical, 
# crystal, experimental, refinement or atomic coordinate data resulting 
# from the CCDC's data processing and validation procedures.
#
#######################################################################

data_XUQBIV
_symmetry_cell_setting           triclinic
_symmetry_space_group_name_H-M   'P -1'
_symmetry_Int_Tables_number      2
_space_group_name_Hall           '-P 1'
loop_
_symmetry_equiv_pos_site_id
_symmetry_equiv_pos_as_xyz
1 x,y,z
2 -x,-y,-z
_cell_length_a                   9.117(3)
_cell_length_b                   10.585(4)
_cell_length_c                   11.269(4)
_cell_angle_alpha                84.793(10)
_cell_angle_beta                 71.976(9)
_cell_angle_gamma                73.031(9)
_cell_volume                     989.107
loop_
_atom_site_label
_atom_site_type_symbol
_atom_site_fract_x
_atom_site_fract_y
_atom_site_fract_z
H1 H 0.251(3) -0.025(3) 1.296(3)
H2 H 0.356(4) 0.010(3) 1.213(3)
Cu1 Cu 0.11150(3) 0.23241(3) 1.28052(2)
N1 N 0.2264(2) 0.27682(19) 0.38907(17)
N2 N 0.2238(2) 0.32702(19) 1.13472(17)
C1 C 0.2035(3) 0.4020(2) 0.4169(2)
H3 H 0.1476 0.4684 0.3743
C2 C 0.2591(3) 0.4376(2) 0.5062(2)
H4 H 0.2388 0.5264 0.5237
C3 C 0.3446(3) 0.3414(2) 0.5695(2)
C4 C 0.3696(3) 0.2118(3) 0.5389(2)
H5 H 0.4282 0.1436 0.5782
C5 C 0.3085(3) 0.1831(3) 0.4511(2)
H6 H 0.3246 0.0950 0.4337
C6 C 0.4108(3) 0.3677(3) 0.6685(2)
H7 H 0.5266 0.3317 0.6402
H8 H 0.3706 0.3194 0.7430
C7 C 0.3732(3) 0.5101(2) 0.7043(2)
H9 H 0.2576 0.5479 0.7332
H10 H 0.4158 0.5595 0.6315
C8 C 0.4457(3) 0.5226(2) 0.8076(2)
H11 H 0.5608 0.4824 0.7799
H12 H 0.4269 0.6153 0.8241
C9 C 0.1495(3) 0.4479(2) 1.1028(2)
H13 H 0.0461 0.4887 1.1520
C10 C 0.2185(3) 0.5145(2) 1.0008(2)
H14 H 0.1623 0.5986 0.9824
C11 C 0.3723(3) 0.4566(2) 0.92512(19)
C12 C 0.4502(3) 0.3334(2) 0.9607(2)
H15 H 0.5550 0.2918 0.9147
C13 C 0.3738(3) 0.2719(2) 1.0639(2)
H16 H 0.4285 0.1886 1.0854
O1 O -0.0390(2) 0.19733(19) 1.43476(15)
O2 O -0.2362(2) 0.1208(2) 1.55124(16)
C14 C -0.1434(3) 0.1357(2) 1.4488(2)
C15 C -0.1536(3) 0.0764(3) 1.3362(2)
H17 H -0.2578 0.0596 1.3578
H18 H -0.0733 -0.0086 1.3205
C16 C -0.1319(3) 0.1531(2) 1.2151(2)
O3 O -0.02340(19) 0.21418(16) 1.18217(14)
O4 O -0.2182(2) 0.15238(18) 1.15020(17)
O5 O 0.2711(3) 0.01834(18) 1.23344(17)
Cu1_2 Cu 0.11150(3) 0.23241(3) 0.28052(2)
N1_2 N 0.2264(2) 0.27682(19) 1.38907(17)
H19 H 0.859(3) -0.244(3) 1.164(3)
H20 H 0.934(7) -0.231(6) 1.011(6)
O6 O 0.8711(3) -0.2165(3) 1.0882(3)
H21 H 0.167(3) -0.134(3) 1.033(3)
H22 H 0.192(5) -0.085(4) 1.119(4)
O7 O 0.1501(3) -0.1319(2) 1.1063(2)
H23 H 0.630(3) 0.043(3) 1.181(3)
H24 H 0.668(5) -0.089(4) 1.150(4)
O8 O 0.5911(2) -0.0159(2) 1.1751(2)
H25 H 0.121(5) -0.261(4) 1.239(4)
H26 H 0.080(5) -0.268(4) 1.372(4)
O9 O 0.0861(4) -0.3048(3) 1.3139(3)
loop_
_geom_bond_atom_site_label_1
_geom_bond_atom_site_label_2
_geom_bond_site_symmetry_1
_geom_bond_site_symmetry_2
H1 O5 1_555 1_555
H2 O5 1_555 1_555
Cu1 N2 1_555 1_555
N1 C1 1_555 1_555
N2 C9 1_555 1_555
C1 H3 1_555 1_555
C2 C1 1_555 1_555
H4 C2 1_555 1_555
C3 C2 1_555 1_555
C4 C3 1_555 1_555
H5 C4 1_555 1_555
C5 N1 1_555 1_555
H6 C5 1_555 1_555
C6 C3 1_555 1_555
H7 C6 1_555 1_555
H8 C6 1_555 1_555
C7 C6 1_555 1_555
H9 C7 1_555 1_555
H10 C7 1_555 1_555
C8 C7 1_555 1_555
H11 C8 1_555 1_555
H12 C8 1_555 1_555
C9 H13 1_555 1_555
C10 C9 1_555 1_555
H14 C10 1_555 1_555
C11 C8 1_555 1_555
C12 C11 1_555 1_555
H15 C12 1_555 1_555
C13 N2 1_555 1_555
H16 C13 1_555 1_555
O1 Cu1 1_555 1_555
O2 C14 1_555 1_555
C14 O1 1_555 1_555
C15 C14 1_555 1_555
H17 C15 1_555 1_555
H18 C15 1_555 1_555
C16 C15 1_555 1_555
O3 Cu1 1_555 1_555
O4 C16 1_555 1_555
O5 Cu1 1_555 1_555
H19 O6 1_555 1_555
H20 O6 1_555 1_555
H21 O7 1_555 1_555
H22 O7 1_555 1_555
H23 O8 1_555 1_555
H24 O8 1_555 1_555
H25 O9 1_555 1_555
H26 O9 1_555 1_555
Cu1_2 N1 1_555 1_555
N1_2 Cu1 1_555 1_555
C4 C5 1_555 1_555
C10 C11 1_555 1_555
C12 C13 1_555 1_555
C16 O3 1_555 1_555

#END
