
#######################################################################
#
#                 Cambridge Crystallographic Data Centre
#                                CCDC 
#
#######################################################################
#
# If this CIF has been generated from an entry in the Cambridge 
# Structural Database, then it will include bibliographic, chemical, 
# crystal, experimental, refinement or atomic coordinate data resulting 
# from the CCDC's data processing and validation procedures.
#
#######################################################################

data_XUQDOD
_symmetry_cell_setting           monoclinic
_symmetry_space_group_name_H-M   'P 21/c'
_symmetry_Int_Tables_number      14
_space_group_name_Hall           '-P 2ybc'
loop_
_symmetry_equiv_pos_site_id
_symmetry_equiv_pos_as_xyz
1 x,y,z
2 -x,1/2+y,1/2-z
3 -x,-y,-z
4 x,1/2-y,1/2+z
_cell_length_a                   10.997(3)
_cell_length_b                   8.959(2)
_cell_length_c                   13.000(3)
_cell_angle_alpha                90
_cell_angle_beta                 92.535(3)
_cell_angle_gamma                90
_cell_volume                     1279.53
loop_
_atom_site_label
_atom_site_type_symbol
_atom_site_fract_x
_atom_site_fract_y
_atom_site_fract_z
Cd1 Cd 0.132099(16) 1.140320(19) 0.333572(14)
N1 N 0.1397(2) 0.8942(2) 0.39705(18)
H1 H 0.1106 0.8928 0.4607
H2 H 0.0912 0.8359 0.3564
N2 N 0.33705(19) 1.0765(2) 0.35965(16)
N3 N 0.1300(3) 1.2695(3) 0.00353(18)
N4 N -0.1582(2) 0.8753(2) 0.22637(18)
S1 S 0.14819(10) 1.02641(9) 0.13700(6)
S2 S -0.11096(6) 1.14787(7) 0.32583(5)
C1 C 0.3595(2) 0.9294(3) 0.38211(18)
C2 C 0.2608(2) 0.8335(3) 0.40125(19)
C3 C 0.2829(3) 0.6865(3) 0.4221(2)
H3 H 0.2185 0.6230 0.4351
C4 C 0.4015(4) 0.6305(4) 0.4242(3)
H4 H 0.4143 0.5295 0.4372
C5 C 0.4981(3) 0.7195(4) 0.4078(2)
H5 H 0.5763 0.6798 0.4104
C6 C 0.4802(3) 0.8725(3) 0.3868(2)
C7 C 0.5758(3) 0.9731(5) 0.3704(2)
H6 H 0.6560 0.9398 0.3743
C8 C 0.5514(3) 1.1174(4) 0.3493(2)
H7 H 0.6142 1.1843 0.3382
C9 C 0.4302(3) 1.1654(4) 0.3441(2)
H8 H 0.4144 1.2652 0.3289
C10 C 0.1365(2) 1.1707(3) 0.0596(2)
C11 C -0.1361(2) 0.9866(3) 0.26721(19)
Cd1C Cd 0.132099(16) 1.359680(19) -0.166428(14)
Cd1A Cd -0.132099(16) 0.640320(19) 0.166428(14)
N3C N 0.1300(3) 1.2305(3) 0.50353(18)
N4A N 0.1582(2) 1.3753(2) 0.27363(18)
loop_
_geom_bond_atom_site_label_1
_geom_bond_atom_site_label_2
_geom_bond_site_symmetry_1
_geom_bond_site_symmetry_2
Cd1 N1 1_555 1_555
N1 H1 1_555 1_555
H2 N1 1_555 1_555
N2 Cd1 1_555 1_555
N3 C10 1_555 1_555
N4 C11 1_555 1_555
S1 Cd1 1_555 1_555
S2 Cd1 1_555 1_555
C1 N2 1_555 1_555
C2 N1 1_555 1_555
C3 C2 1_555 1_555
H3 C3 1_555 1_555
C4 C3 1_555 1_555
H4 C4 1_555 1_555
C5 C4 1_555 1_555
H5 C5 1_555 1_555
C6 C1 1_555 1_555
C7 C6 1_555 1_555
H6 C7 1_555 1_555
C8 C7 1_555 1_555
H7 C8 1_555 1_555
C9 N2 1_555 1_555
H8 C9 1_555 1_555
C10 S1 1_555 1_555
C11 S2 1_555 1_555
Cd1C N3 1_555 1_555
Cd1A N4 1_555 1_555
N3C Cd1 1_555 1_555
N4A Cd1 1_555 1_555
C1 C2 1_555 1_555
C5 C6 1_555 1_555
C8 C9 1_555 1_555

#END
