
#######################################################################
#
#                 Cambridge Crystallographic Data Centre
#                                CCDC 
#
#######################################################################
#
# If this CIF has been generated from an entry in the Cambridge 
# Structural Database, then it will include bibliographic, chemical, 
# crystal, experimental, refinement or atomic coordinate data resulting 
# from the CCDC's data processing and validation procedures.
#
#######################################################################

data_XUQDAP
_symmetry_cell_setting           triclinic
_symmetry_space_group_name_H-M   'P -1'
_symmetry_Int_Tables_number      2
_space_group_name_Hall           '-P 1'
loop_
_symmetry_equiv_pos_site_id
_symmetry_equiv_pos_as_xyz
1 x,y,z
2 -x,-y,-z
_cell_length_a                   7.3212(11)
_cell_length_b                   9.7057(15)
_cell_length_c                   10.5334(16)
_cell_angle_alpha                91.765(2)
_cell_angle_beta                 98.197(3)
_cell_angle_gamma                110.749(2)
_cell_volume                     690.102
loop_
_atom_site_label
_atom_site_type_symbol
_atom_site_fract_x
_atom_site_fract_y
_atom_site_fract_z
Cd1 Cd 0.74855(2) 1.038763(18) 1.422559(16)
Cl1 Cl 0.64969(10) 1.11394(8) 1.63710(7)
Cl2 Cl 0.85885(10) 0.82854(7) 1.52925(7)
N1 N 0.7552(3) 0.9388(2) 1.2232(2)
N2 N 0.8560(3) 0.8426(2) 1.0682(2)
N3 N 0.3702(3) 0.5589(2) 0.6671(2)
N4 N 0.2688(4) 0.7448(3) 0.6574(2)
O1 O 0.7214(3) 0.6132(2) 0.8512(2)
C1 C 0.8926(4) 0.8929(3) 1.1923(3)
H1 H 1.0026 0.8951 1.2499
C2 C 0.6233(4) 0.9180(3) 1.1124(3)
H2 H 0.5098 0.9414 1.1048
C3 C 0.6818(4) 0.8584(3) 1.0156(3)
H3 H 0.6176 0.8331 0.9307
C4 C 0.9759(5) 0.7795(4) 1.0036(3)
H4 H 1.0937 0.7872 1.0633
H5 H 1.0179 0.8360 0.9317
C5 C 0.8646(5) 0.6202(3) 0.9552(3)
H6 H 0.9550 0.5762 0.9290
H7 H 0.8028 0.5657 1.0230
C6 C 0.6007(5) 0.4668(3) 0.8006(3)
H8 H 0.5018 0.4231 0.8545
H9 H 0.6808 0.4061 0.7973
C7 C 0.5030(5) 0.4759(3) 0.6680(3)
H10 H 0.6042 0.5229 0.6166
H11 H 0.4279 0.3765 0.6283
C8 C 0.4196(4) 0.7031(3) 0.6564(3)
H12 H 0.5463 0.7667 0.6490
C9 C 0.1115(5) 0.6192(3) 0.6705(3)
H13 H -0.0168 0.6145 0.6741
C10 C 0.1738(5) 0.5042(3) 0.6773(3)
H14 H 0.0979 0.4066 0.6870
Cd1A Cd 0.25145(2) 0.961237(18) 1.577441(16)
Cd1A_2 Cd 1.25145(2) 0.961237(18) 1.577441(16)
Cd1A_3 Cd 0.25145(2) 0.961237(18) 0.577441(16)
Cl1A Cl 0.35031(10) 0.88606(8) 1.36290(7)
Cl2A Cl 1.14115(10) 1.17146(7) 1.47075(7)
N4A N 0.7312(4) 1.2552(3) 1.3426(2)
loop_
_geom_bond_atom_site_label_1
_geom_bond_atom_site_label_2
_geom_bond_site_symmetry_1
_geom_bond_site_symmetry_2
Cd1 Cl1 1_555 1_555
Cl1 Cd1A 1_555 1_555
Cl2 Cd1 1_555 1_555
N1 Cd1 1_555 1_555
N2 C1 1_555 1_555
N3 C7 1_555 1_555
N4 C8 1_555 1_555
O1 C5 1_555 1_555
C1 N1 1_555 1_555
H1 C1 1_555 1_555
C2 N1 1_555 1_555
H2 C2 1_555 1_555
C3 N2 1_555 1_555
H3 C3 1_555 1_555
C4 N2 1_555 1_555
H4 C4 1_555 1_555
H5 C4 1_555 1_555
C5 C4 1_555 1_555
H6 C5 1_555 1_555
H7 C5 1_555 1_555
C6 O1 1_555 1_555
H8 C6 1_555 1_555
H9 C6 1_555 1_555
C7 C6 1_555 1_555
H10 C7 1_555 1_555
H11 C7 1_555 1_555
C8 N3 1_555 1_555
H12 C8 1_555 1_555
C9 N4 1_555 1_555
H13 C9 1_555 1_555
C10 N3 1_555 1_555
H14 C10 1_555 1_555
Cd1A Cl1A 1_555 1_555
Cd1A_2 Cl2 1_555 1_555
Cd1A_3 N4 1_555 1_555
Cl1A Cd1 1_555 1_555
Cl2A Cd1 1_555 1_555
N4A Cd1 1_555 1_555
C2 C3 1_555 1_555
C9 C10 1_555 1_555
Cd1A_2 Cl2A 1_555 1_555

#END
