
#######################################################################
#
#                 Cambridge Crystallographic Data Centre
#                                CCDC 
#
#######################################################################
#
# If this CIF has been generated from an entry in the Cambridge 
# Structural Database, then it will include bibliographic, chemical, 
# crystal, experimental, refinement or atomic coordinate data resulting 
# from the CCDC's data processing and validation procedures.
#
#######################################################################

data_XUQHEX
_symmetry_cell_setting           orthorhombic
_symmetry_space_group_name_H-M   'P b c n'
_symmetry_Int_Tables_number      60
_space_group_name_Hall           '-P 2n 2ab'
loop_
_symmetry_equiv_pos_site_id
_symmetry_equiv_pos_as_xyz
1 x,y,z
2 1/2-x,1/2-y,1/2+z
3 -x,y,1/2-z
4 1/2+x,1/2-y,-z
5 -x,-y,-z
6 1/2+x,1/2+y,1/2-z
7 x,-y,1/2+z
8 1/2-x,1/2+y,z
_cell_length_a                   16.3859(3)
_cell_length_b                   19.0320(3)
_cell_length_c                   19.0368(3)
_cell_angle_alpha                90
_cell_angle_beta                 90
_cell_angle_gamma                90
_cell_volume                     5936.75
loop_
_atom_site_label
_atom_site_type_symbol
_atom_site_fract_x
_atom_site_fract_y
_atom_site_fract_z
Tb1 Tb 0.597762(12) 0.279996(13) 0.013540(11)
Cu1 Cu 0.72368(3) 0.17405(3) -0.09231(3)
O1 O 0.65251(18) 0.16448(17) -0.01040(14)
O2 O 0.55818(19) 0.18264(19) 0.09816(15)
O3 O 0.65797(18) 0.25953(17) -0.09777(15)
O4 O 0.55595(19) 0.36184(19) -0.08279(15)
O5 O 0.32996(18) 0.26288(19) 0.04503(17)
O6 O 0.46091(18) 0.29453(18) 0.04112(16)
O7 O 0.21782(18) 0.24857(18) -0.08778(16)
O8 O 0.22590(18) 0.15364(18) -0.02210(15)
O9 O 0.5889(2) 0.33566(19) 0.13297(16)
O10 O 0.5727(2) 0.41088(19) 0.04980(17)
O11 O 0.5704(2) 0.4454(2) 0.15867(18)
N1 N 0.7858(2) 0.0877(2) -0.0701(2)
N2 N 0.7555(2) 0.1815(3) -0.1912(2)
N3 N 0.4870(2) 0.2153(2) -0.07058(19)
N4 N 0.3566(2) 0.1546(2) -0.14398(19)
N5 N 0.5770(2) 0.3987(2) 0.1147(2)
C1 C 0.6602(3) 0.1174(3) 0.0413(2)
C2 C 0.6089(3) 0.1247(3) 0.1011(2)
C3 C 0.6119(3) 0.0767(3) 0.1553(2)
H1 H 0.5758 0.0817 0.1940
C4 C 0.6665(3) 0.0216(3) 0.1539(3)
H2 H 0.6684 -0.0111 0.1916
C5 C 0.7184(3) 0.0143(3) 0.0972(3)
H3 H 0.7562 -0.0235 0.0963
C6 C 0.7160(3) 0.0617(3) 0.0413(2)
C7 C 0.7749(3) 0.0508(3) -0.0143(2)
H4 H 0.8099 0.0114 -0.0088
C8 C 0.8541(3) 0.0615(3) -0.1146(3)
H5 H 0.8399 0.0140 -0.1319
H6 H 0.9034 0.0570 -0.0850
C9 C 0.8743(3) 0.1067(3) -0.1763(3)
H7 H 0.8982 0.1513 -0.1592
H8 H 0.9162 0.0826 -0.2051
C10 C 0.8028(3) 0.1231(3) -0.2217(3)
H9 H 0.8219 0.1363 -0.2693
H10 H 0.7677 0.0810 -0.2260
C11 C 0.7431(3) 0.2348(3) -0.2315(2)
H11 H 0.7691 0.2341 -0.2761
C12 C 0.6939(3) 0.2951(3) -0.2157(2)
C13 C 0.6861(3) 0.3469(3) -0.2681(3)
H12 H 0.7158 0.3421 -0.3107
C14 C 0.6370(3) 0.4032(3) -0.2587(3)
H13 H 0.6345 0.4387 -0.2937
C15 C 0.5901(3) 0.4095(3) -0.1982(3)
H14 H 0.5530 0.4476 -0.1934
C16 C 0.5975(3) 0.3606(3) -0.1452(2)
C17 C 0.6515(3) 0.3037(3) -0.1523(2)
C18 C 0.5138(3) 0.1970(3) 0.1622(2)
H15 H 0.4777 0.1574 0.1729
H16 H 0.4811 0.2397 0.1561
H17 H 0.5524 0.2038 0.2009
C19 C 0.4855(3) 0.4069(3) -0.0802(3)
H18 H 0.5030 0.4561 -0.0816
H19 H 0.4552 0.3982 -0.0367
H20 H 0.4502 0.3972 -0.1206
C20 C 0.4094(2) 0.2218(3) -0.0487(2)
C21 C 0.4988(3) 0.1783(3) -0.1299(2)
H21 H 0.5526 0.1722 -0.1475
C22 C 0.4336(3) 0.1487(3) -0.1658(2)
H22 H 0.4443 0.1232 -0.2078
C23 C 0.3446(3) 0.1916(3) -0.0845(2)
C24 C 0.3981(3) 0.2636(3) 0.0185(2)
C25 C 0.2569(3) 0.1981(3) -0.0619(2)
Tb1C Tb 0.097762(12) 0.220004(13) -0.013540(11)
Cu1C Cu 0.22368(3) 0.32595(3) 0.09231(3)
O5C O 0.82996(18) 0.23712(19) -0.04503(17)
O7C O 0.71782(18) 0.25143(18) 0.08778(16)
O8C O 0.72590(18) 0.34636(18) 0.02210(15)
O12 O 0.6099(3) 0.0468(3) -0.1852(2)
C26 C 0.5911(4) 0.0192(3) -0.1294(3)
H23 H 0.5513 0.0430 -0.1020
N6 N 0.6199(3) -0.0393(3) -0.1034(2)
C27 C 0.6813(4) -0.0795(4) -0.1392(3)
H24 H 0.6989 -0.0541 -0.1814
H25 H 0.6588 -0.1252 -0.1527
H26 H 0.7282 -0.0865 -0.1080
C28 C 0.5925(4) -0.0651(4) -0.0364(3)
H27 H 0.5622 -0.0281 -0.0118
H28 H 0.6397 -0.0792 -0.0081
H29 H 0.5567 -0.1058 -0.0435
loop_
_geom_bond_atom_site_label_1
_geom_bond_atom_site_label_2
_geom_bond_site_symmetry_1
_geom_bond_site_symmetry_2
Tb1 O1 1_555 1_555
Cu1 O1 1_555 1_555
O1 C1 1_555 1_555
O2 Tb1 1_555 1_555
O3 Tb1 1_555 1_555
O4 Tb1 1_555 1_555
O5 C24 1_555 1_555
O6 Tb1 1_555 1_555
O7 C25 1_555 1_555
O8 C25 1_555 1_555
O9 Tb1 1_555 1_555
O10 Tb1 1_555 1_555
O11 N5 1_555 1_555
N1 Cu1 1_555 1_555
N2 Cu1 1_555 1_555
N3 Tb1 1_555 1_555
N4 C22 1_555 1_555
N5 O9 1_555 1_555
C1 C2 1_555 1_555
C2 O2 1_555 1_555
C3 C2 1_555 1_555
H1 C3 1_555 1_555
C4 C3 1_555 1_555
H2 C4 1_555 1_555
C5 C4 1_555 1_555
H3 C5 1_555 1_555
C6 C1 1_555 1_555
C7 N1 1_555 1_555
H4 C7 1_555 1_555
C8 N1 1_555 1_555
H5 C8 1_555 1_555
H6 C8 1_555 1_555
C9 C8 1_555 1_555
H7 C9 1_555 1_555
H8 C9 1_555 1_555
C10 N2 1_555 1_555
H9 C10 1_555 1_555
H10 C10 1_555 1_555
C11 N2 1_555 1_555
H11 C11 1_555 1_555
C12 C11 1_555 1_555
C13 C12 1_555 1_555
H12 C13 1_555 1_555
C14 C13 1_555 1_555
H13 C14 1_555 1_555
C15 C14 1_555 1_555
H14 C15 1_555 1_555
C16 O4 1_555 1_555
C17 O3 1_555 1_555
C18 O2 1_555 1_555
H15 C18 1_555 1_555
H16 C18 1_555 1_555
H17 C18 1_555 1_555
C19 O4 1_555 1_555
H18 C19 1_555 1_555
H19 C19 1_555 1_555
H20 C19 1_555 1_555
C20 N3 1_555 1_555
C21 N3 1_555 1_555
H21 C21 1_555 1_555
C22 C21 1_555 1_555
H22 C22 1_555 1_555
C23 N4 1_555 1_555
C24 O6 1_555 1_555
C25 C23 1_555 1_555
O12 C26 1_555 1_555
C26 H23 1_555 1_555
N6 C26 1_555 1_555
C27 N6 1_555 1_555
H24 C27 1_555 1_555
H25 C27 1_555 1_555
H26 C27 1_555 1_555
C28 N6 1_555 1_555
H27 C28 1_555 1_555
H28 C28 1_555 1_555
H29 C28 1_555 1_555
Tb1C O7 1_555 1_555
Cu1C O5 1_555 1_555
O5C Cu1 1_555 1_555
O7C Tb1 1_555 1_555
O8C Tb1 1_555 1_555
Cu1 O3 1_555 1_555
O8 Tb1C 1_555 1_555
O10 N5 1_555 1_555
C5 C6 1_555 1_555
C6 C7 1_555 1_555
C9 C10 1_555 1_555
C12 C17 1_555 1_555
C15 C16 1_555 1_555
C16 C17 1_555 1_555
C20 C23 1_555 1_555
C20 C24 1_555 1_555

#END
