
#######################################################################
#
#                 Cambridge Crystallographic Data Centre
#                                CCDC 
#
#######################################################################
#
# If this CIF has been generated from an entry in the Cambridge 
# Structural Database, then it will include bibliographic, chemical, 
# crystal, experimental, refinement or atomic coordinate data resulting 
# from the CCDC's data processing and validation procedures.
#
#######################################################################

data_XUQHOH
_symmetry_cell_setting           triclinic
_symmetry_space_group_name_H-M   'P -1'
_symmetry_Int_Tables_number      2
_space_group_name_Hall           '-P 1'
loop_
_symmetry_equiv_pos_site_id
_symmetry_equiv_pos_as_xyz
1 x,y,z
2 -x,-y,-z
_cell_length_a                   6.7486
_cell_length_b                   13.902(3)
_cell_length_c                   14.842(5)
_cell_angle_alpha                89.995(6)
_cell_angle_beta                 88.158(4)
_cell_angle_gamma                84.556(4)
_cell_volume                     1385.46
loop_
_atom_site_label
_atom_site_type_symbol
_atom_site_fract_x
_atom_site_fract_y
_atom_site_fract_z
Zn1 Zn 0.27592(10) 0.07789(5) 0.28603(4)
S1 S 0.25513(19) 0.57550(10) 0.32596(9)
O1 O 0.0729(6) 0.5843(3) 0.2774(2)
O2 O 0.2610(6) 0.1779(3) 0.1808(2)
O3 O 0.5353(6) 0.0203(3) 0.2359(2)
O4 O 0.0331(6) 0.0248(3) 0.2374(2)
O5 O 0.2910(6) 0.9612(3) 0.3763(2)
O6 O 0.2528(6) 0.1608(3) 0.5165(2)
O7 O 0.2561(6) 0.1883(3) 0.3678(2)
O8 O 0.2487(7) 0.9835(3) 0.5254(3)
O9 O 0.4378(5) 0.5697(2) 0.2729(2)
C1 C 0.2533(7) 0.6668(3) 0.4093(3)
C2 C 0.2456(8) 0.6879(4) 0.5703(3)
C3 C 0.2490(7) 0.6268(3) 0.4955(3)
C4 C 0.2496(7) 0.5210(3) 0.4945(3)
C5 C 0.2542(7) 0.4824(3) 0.4073(3)
C6 C 0.2493(8) 0.7875(4) 0.5569(3)
C7 C 0.2542(8) 0.2155(3) 0.4489(3)
C8 C 0.2602(8) 0.7643(4) 0.3934(3)
C9 C 0.2560(7) 0.3840(4) 0.3894(3)
C10 C 0.2528(7) 0.3221(4) 0.4645(3)
C11 C 0.2666(8) 0.9302(4) 0.4536(4)
C12 C 0.2575(8) 0.8252(4) 0.4690(3)
C13 C 0.2465(8) 0.4585(4) 0.5679(3)
C14 C 0.2489(7) 0.3594(3) 0.5528(3)
Zn1_2 Zn 0.27592(10) 1.07789(5) 0.28603(4)
O5_2 O 0.2910(6) -0.0388(3) 0.3763(2)
S2 S 0.7713(2) 0.35444(10) 0.16611(9)
O10 O 0.7046(6) -0.0244(2) 0.0707(2)
O11 O 0.9618(6) 0.3387(3) 0.2089(2)
O12 O 0.5966(6) 0.3542(3) 0.2242(2)
O13 O 0.8104(6) -0.0283(2) -0.0726(2)
O14 O 0.7410(6) 0.7923(2) 0.0289(2)
O15 O 0.7340(6) 0.7483(3) 0.1741(2)
C15 C 0.7452(7) 0.6255(3) 0.0619(3)
C16 C 0.7567(7) 0.0163(3) -0.0020(3)
C17 C 0.7596(7) 0.5526(3) 0.1272(3)
C18 C 0.7576(7) 0.3273(3) -0.0074(3)
C19 C 0.7410(7) 0.5063(4) -0.0580(3)
C20 C 0.7544(7) 0.4329(4) 0.0064(3)
C21 C 0.7597(7) 0.1760(3) 0.0787(3)
C22 C 0.7622(7) 0.2754(4) 0.0735(3)
C23 C 0.7527(8) 0.2759(4) -0.0877(3)
C24 C 0.7563(8) 0.1249(3) -0.0022(3)
C25 C 0.7619(7) 0.4585(3) 0.0977(3)
C26 C 0.7363(8) 0.6023(4) -0.0292(3)
C27 C 0.7531(8) 0.1748(4) -0.0848(3)
C28 C 0.7405(8) 0.7280(4) 0.0941(3)
O16 O 0.1888(6) 0.1196(3) 0.7020(2)
loop_
_geom_bond_atom_site_label_1
_geom_bond_atom_site_label_2
_geom_bond_site_symmetry_1
_geom_bond_site_symmetry_2
Zn1 O2 1_555 1_555
S1 O1 1_555 1_555
O3 Zn1 1_555 1_555
O4 Zn1 1_555 1_555
O5 C11 1_555 1_555
O6 C7 1_555 1_555
O7 Zn1 1_555 1_555
O8 C11 1_555 1_555
O9 S1 1_555 1_555
C1 S1 1_555 1_555
C2 C3 1_555 1_555
C3 C1 1_555 1_555
C4 C3 1_555 1_555
C5 S1 1_555 1_555
C6 C2 1_555 1_555
C7 O7 1_555 1_555
C8 C1 1_555 1_555
C9 C5 1_555 1_555
C10 C7 1_555 1_555
C11 C12 1_555 1_555
C12 C6 1_555 1_555
C13 C4 1_555 1_555
C14 C10 1_555 1_555
S2 O11 1_555 1_555
O10 C16 1_555 1_555
O12 S2 1_555 1_555
O13 C16 1_555 1_555
O14 C28 1_555 1_555
O15 C28 1_555 1_555
C15 C17 1_555 1_555
C16 C24 1_555 1_555
C17 C25 1_555 1_555
C18 C20 1_555 1_555
C19 C20 1_555 1_555
C20 C25 1_555 1_555
C21 C22 1_555 1_555
C22 S2 1_555 1_555
C23 C18 1_555 1_555
C24 C21 1_555 1_555
C25 S2 1_555 1_555
C26 C15 1_555 1_555
C27 C23 1_555 1_555
C28 C15 1_555 1_555
Zn1_2 O5 1_555 1_555
O5_2 Zn1 1_555 1_555
C4 C5 1_555 1_555
C8 C12 1_555 1_555
C9 C10 1_555 1_555
C13 C14 1_555 1_555
C18 C22 1_555 1_555
C19 C26 1_555 1_555
C24 C27 1_555 1_555

#END
