
#######################################################################
#
#                 Cambridge Crystallographic Data Centre
#                                CCDC 
#
#######################################################################
#
# If this CIF has been generated from an entry in the Cambridge 
# Structural Database, then it will include bibliographic, chemical, 
# crystal, experimental, refinement or atomic coordinate data resulting 
# from the CCDC's data processing and validation procedures.
#
#######################################################################

data_XUQMAX01
_symmetry_cell_setting           trigonal
_symmetry_space_group_name_H-M   'P -3 c 1'
_symmetry_Int_Tables_number      165
_space_group_name_Hall           '-P 3 2"c'
loop_
_symmetry_equiv_pos_site_id
_symmetry_equiv_pos_as_xyz
1 x,y,z
2 -y,x-y,z
3 -x+y,-x,z
4 y,x,1/2-z
5 -x,-x+y,1/2-z
6 x-y,-y,1/2-z
7 -x,-y,-z
8 y,-x+y,-z
9 x-y,x,-z
10 -y,-x,1/2+z
11 x,x-y,1/2+z
12 -x+y,y,1/2+z
_cell_length_a                   11.0285(8)
_cell_length_b                   11.0285(8)
_cell_length_c                   13.4888(13)
_cell_angle_alpha                90
_cell_angle_beta                 90
_cell_angle_gamma                120
_cell_volume                     1420.81
loop_
_atom_site_label
_atom_site_type_symbol
_atom_site_fract_x
_atom_site_fract_y
_atom_site_fract_z
Zn1 Zn 0.00000 0.00000 0.00000
N1 N 0.37725 0.24885 0.17290
N2 N 0.34965 0.11745 0.17955
N3 N 0.2382 0.02685 0.13070
N4 N 0.1885 0.102 0.0884
C1 C 0.2752 0.23595 0.115
C2 C 0.43675 0.07770 0.2384
Zn1C Zn 0.00000 0.00000 0.50000
N1E N 0.12840 -0.24885 0.32710
N1A N -0.24885 0.12840 0.17290
N1C N 0.24885 0.37725 0.32710
N1B N -0.12840 -0.37725 0.17290
N1D N -0.37725 -0.12840 0.32710
N2E N 0.23220 -0.11745 0.32045
N2A N -0.11745 0.23220 0.17955
N2C N 0.11745 0.34965 0.32045
N2B N -0.23220 -0.34965 0.17955
N2D N -0.34965 -0.23220 0.32045
N3E N 0.21135 -0.02685 0.36930
N3A N -0.02685 0.21135 0.13070
N3C N 0.02685 0.2382 0.36930
N3B N -0.21135 -0.2382 0.13070
N3D N -0.2382 -0.21135 0.36930
N4E N 0.0865 -0.102 0.4116
N4A N -0.102 0.0865 0.0884
N4C N 0.102 0.1885 0.4116
N4B N -0.0865 -0.1885 0.0884
N4D N -0.1885 -0.0865 0.4116
N4F N -0.1885 -0.102 -0.0884
N4G N 0.102 -0.0865 -0.0884
N4H N 0.0865 0.1885 -0.0884
C1E C 0.03925 -0.23595 0.385
C1A C -0.23595 0.03925 0.115
C1C C 0.23595 0.2752 0.385
C1B C -0.03925 -0.2752 0.115
C1D C -0.2752 -0.03925 0.385
C2E C 0.35905 -0.07770 0.2616
C2A C -0.07770 0.35905 0.2384
C2C C 0.07770 0.43675 0.2616
C2B C -0.35905 -0.43675 0.2384
C2D C -0.43675 -0.35905 0.2616
Cl1 Cl 0.33333 0.66667 0.0244
O1 O 0.31940 0.53925 0.0601
O2 O 0.33333 0.66667 -0.08015
O1A O 0.46075 0.78015 0.0601
O1B O 0.21985 0.68060 0.0601
loop_
_geom_bond_atom_site_label_1
_geom_bond_atom_site_label_2
_geom_bond_site_symmetry_1
_geom_bond_site_symmetry_2
Zn1 N4 1_555 1_555
N1 N2 1_555 1_555
N2 N3 1_555 1_555
N3 N4 1_555 1_555
N4 C1 1_555 1_555
C1 N1 1_555 1_555
C2 N2 1_555 1_555
Cl1 O1 1_555 1_555
O2 Cl1 1_555 1_555
Zn1C N4E 1_555 1_555
N1E N2E 1_555 1_555
N1A N2A 1_555 1_555
N1C N2C 1_555 1_555
N1B N2B 1_555 1_555
N1D N2D 1_555 1_555
N2E N3E 1_555 1_555
N2A N3A 1_555 1_555
N2C N3C 1_555 1_555
N2B N3B 1_555 1_555
N2D N3D 1_555 1_555
N3E N4E 1_555 1_555
N3A N4A 1_555 1_555
N3C N4C 1_555 1_555
N3B N4B 1_555 1_555
N3D N4D 1_555 1_555
N4E C1E 1_555 1_555
N4A Zn1 1_555 1_555
N4C Zn1C 1_555 1_555
N4B Zn1 1_555 1_555
N4D Zn1C 1_555 1_555
N4F Zn1 1_555 1_555
N4G Zn1 1_555 1_555
N4H Zn1 1_555 1_555
C1E N1E 1_555 1_555
C1A N1A 1_555 1_555
C1C N1C 1_555 1_555
C1B N1B 1_555 1_555
C1D N1D 1_555 1_555
C2E C2 1_555 1_555
C2A N2A 1_555 1_555
C2C N2C 1_555 1_555
C2B N2B 1_555 1_555
C2D N2D 1_555 1_555
O1A Cl1 1_555 1_555
O1B Cl1 1_555 1_555
N2E C2E 1_555 1_555
N4A C1A 1_555 1_555
N4C C1C 1_555 1_555
N4B C1B 1_555 1_555
N4D C1D 1_555 1_555
C2A C2C 1_555 1_555
C2B C2D 1_555 1_555

#END
