
#######################################################################
#
#                 Cambridge Crystallographic Data Centre
#                                CCDC 
#
#######################################################################
#
# If this CIF has been generated from an entry in the Cambridge 
# Structural Database, then it will include bibliographic, chemical, 
# crystal, experimental, refinement or atomic coordinate data resulting 
# from the CCDC's data processing and validation procedures.
#
#######################################################################

data_XUQQOP
_symmetry_cell_setting           tetragonal
_symmetry_space_group_name_H-M   'I -4'
_symmetry_Int_Tables_number      82
_space_group_name_Hall           'I -4'
loop_
_symmetry_equiv_pos_site_id
_symmetry_equiv_pos_as_xyz
1 x,y,z
2 -x,-y,z
3 y,-x,-z
4 -y,x,-z
5 1/2+x,1/2+y,1/2+z
6 1/2-x,1/2-y,1/2+z
7 1/2+y,1/2-x,1/2-z
8 1/2-y,1/2+x,1/2-z
_cell_length_a                   11.216(5)
_cell_length_b                   11.216(5)
_cell_length_c                   8.954(5)
_cell_angle_alpha                90
_cell_angle_beta                 90
_cell_angle_gamma                90
_cell_volume                     1126.4
loop_
_atom_site_label
_atom_site_type_symbol
_atom_site_fract_x
_atom_site_fract_y
_atom_site_fract_z
Cd1 Cd 0.5000 0.5000 0.5000
Zr1 Zr 0.5000 1.0000 0.2500
K1 K 0.5000 0.5000 0.0000
K2 K 0.5000 1.0000 0.7500
O1 O 0.49630(11) 0.81210(10) 0.18908(15)
O2 O 0.48843(12) 0.62189(11) 0.26682(14)
C1 C 0.49471(14) 0.72934(13) 0.28841(17)
O3 O 0.50183(13) 0.70404(11) 0.55358(14)
O4 O 0.50433(11) 0.88886(10) 0.45828(12)
C2 C 0.50044(14) 0.77625(14) 0.44890(17)
O5 O 0.70958(15) 0.6456(2) 0.0423(2)
O6 O 0.7066(2) 1.14130(15) 0.7079(2)
H1 H 0.751(2) 0.595(2) -0.007(5)
H2 H 0.743(2) 0.654(3) 0.120(3)
H3 H 0.743(3) 1.172(2) 0.633(3)
H4 H 0.754(2) 1.089(3) 0.752(4)
O1A O 0.50370(11) 0.18790(10) 0.18908(15)
O2A O 0.51157(12) 0.37811(11) 0.26682(14)
C1A C 0.50529(14) 0.27066(13) 0.28841(17)
O3A O 0.49817(13) 0.29596(11) 0.55358(14)
O4A O 0.49567(11) 0.11114(10) 0.45828(12)
C2A C 0.49956(14) 0.22375(14) 0.44890(17)
O1B O 0.81210(10) 0.50370(11) 0.81092(15)
O2B O 0.62189(11) 0.51157(12) 0.73318(14)
C1B C 0.72934(13) 0.50529(14) 0.71159(17)
O3B O 0.70404(11) 0.49817(13) 0.44642(14)
O4B O 0.88886(10) 0.49567(11) 0.54172(12)
C2B C 0.77625(14) 0.49956(14) 0.55110(17)
O1C O 0.18790(10) 0.49630(11) 0.81092(15)
O2C O 0.37811(11) 0.48843(12) 0.73318(14)
C1C C 0.27066(13) 0.49471(14) 0.71159(17)
O3C O 0.29596(11) 0.50183(13) 0.44642(14)
O4C O 0.11114(10) 0.50433(11) 0.54172(12)
C2C C 0.22375(14) 0.50044(14) 0.55110(17)
O5A O 0.29042(15) 0.3544(2) 0.0423(2)
H1A H 0.249(2) 0.405(2) -0.007(5)
H2A H 0.257(2) 0.346(3) 0.120(3)
O5B O 0.6456(2) 0.29042(15) -0.0423(2)
H1B H 0.595(2) 0.249(2) 0.007(5)
H2B H 0.654(3) 0.257(2) -0.120(3)
O5C O 0.3544(2) 0.70958(15) -0.0423(2)
H1C H 0.405(2) 0.751(2) 0.007(5)
H2C H 0.346(3) 0.743(2) -0.120(3)
O6A O 0.2934(2) 0.85870(15) 0.7079(2)
H3A H 0.257(3) 0.828(2) 0.633(3)
H4A H 0.246(2) 0.911(3) 0.752(4)
O6G O 0.35870(15) 1.2066(2) 0.7921(2)
H3G H 0.328(2) 1.243(3) 0.867(3)
H4G H 0.411(3) 1.254(2) 0.748(4)
O6F O 0.64130(15) 0.7934(2) 0.7921(2)
H3F H 0.672(2) 0.757(3) 0.867(3)
H4F H 0.589(3) 0.746(2) 0.748(4)
O1A_2 O 0.50370(11) 1.18790(10) 0.18908(15)
O1F O 0.31210(10) 1.00370(11) 0.31092(15)
O1G O 0.68790(10) 0.99630(11) 0.31092(15)
O4A_2 O 0.49567(11) 1.11114(10) 0.45828(12)
O4F O 0.38886(10) 0.99567(11) 0.04172(12)
O4G O 0.61114(10) 1.00433(11) 0.04172(12)
O2B_2 O 0.62189(11) 0.51157(12) -0.26682(14)
O2C_2 O 0.37811(11) 0.48843(12) -0.26682(14)
O4F_2 O 0.38886(10) 0.99567(11) 1.04172(12)
O4G_2 O 0.61114(10) 1.00433(11) 1.04172(12)
Zr1_2 Zr 0.5000 0.0000 0.2500
K2_2 K 0.5000 0.0000 0.7500
Zr1B Zr 1.0000 0.5000 0.7500
K1_2 K 0.5000 0.5000 1.0000
K2B K 1.0000 0.5000 0.2500
Zr1B_2 Zr 0.0000 0.5000 0.7500
K2B_2 K 0.0000 0.5000 0.2500
loop_
_geom_bond_atom_site_label_1
_geom_bond_atom_site_label_2
_geom_bond_site_symmetry_1
_geom_bond_site_symmetry_2
Cd1 O2 1_555 1_555
Zr1 O1 1_555 1_555
K1 O2 1_555 1_555
K2 O4 1_555 1_555
O1 C1 1_555 1_555
O2 C1 1_555 1_555
C1 C2 1_555 1_555
O3 Cd1 1_555 1_555
O4 Zr1 1_555 1_555
C2 O3 1_555 1_555
O5 K1 1_555 1_555
O6 K2 1_555 1_555
H1 O5 1_555 1_555
H2 O5 1_555 1_555
H3 O6 1_555 1_555
H4 O6 1_555 1_555
O1A C1A 1_555 1_555
O2A Cd1 1_555 1_555
C1A O2A 1_555 1_555
O3A Cd1 1_555 1_555
O4A C2A 1_555 1_555
C2A C1A 1_555 1_555
O1B C1B 1_555 1_555
O2B Cd1 1_555 1_555
C1B O2B 1_555 1_555
O3B Cd1 1_555 1_555
O4B C2B 1_555 1_555
C2B C1B 1_555 1_555
O1C C1C 1_555 1_555
O2C Cd1 1_555 1_555
C1C O2C 1_555 1_555
O3C Cd1 1_555 1_555
O4C C2C 1_555 1_555
C2C C1C 1_555 1_555
O5A K1 1_555 1_555
H1A O5A 1_555 1_555
H2A O5A 1_555 1_555
O5B K1 1_555 1_555
H1B O5B 1_555 1_555
H2B O5B 1_555 1_555
O5C K1 1_555 1_555
H1C O5C 1_555 1_555
H2C O5C 1_555 1_555
O6A K2 1_555 1_555
H3A O6A 1_555 1_555
H4A O6A 1_555 1_555
O6G K2 1_555 1_555
H3G O6G 1_555 1_555
H4G O6G 1_555 1_555
O6F K2 1_555 1_555
H3F O6F 1_555 1_555
H4F O6F 1_555 1_555
O1A_2 Zr1 1_555 1_555
O1F Zr1 1_555 1_555
O1G Zr1 1_555 1_555
O4A_2 Zr1 1_555 1_555
O4F Zr1 1_555 1_555
O4G Zr1 1_555 1_555
O2B_2 K1 1_555 1_555
O2C_2 K1 1_555 1_555
O4F_2 K2 1_555 1_555
O4G_2 K2 1_555 1_555
Zr1_2 O1A 1_555 1_555
K2_2 O4A 1_555 1_555
Zr1B O1B 1_555 1_555
K1_2 O2B 1_555 1_555
K2B O4B 1_555 1_555
Zr1B_2 O1C 1_555 1_555
K2B_2 O4C 1_555 1_555
K1 O2A 1_555 1_555
K2 O4A_2 1_555 1_555
O4 C2 1_555 1_555
O3A C2A 1_555 1_555
O4A Zr1_2 1_555 1_555
O3B C2B 1_555 1_555
O4B Zr1B 1_555 1_555
O2C K1_2 1_555 1_555
O3C C2C 1_555 1_555
O4C Zr1B_2 1_555 1_555

#END
