
#######################################################################
#
#                 Cambridge Crystallographic Data Centre
#                                CCDC 
#
#######################################################################
#
# If this CIF has been generated from an entry in the Cambridge 
# Structural Database, then it will include bibliographic, chemical, 
# crystal, experimental, refinement or atomic coordinate data resulting 
# from the CCDC's data processing and validation procedures.
#
#######################################################################

data_XURBOB
_symmetry_cell_setting           orthorhombic
_symmetry_space_group_name_H-M   'P 21 21 21'
_symmetry_Int_Tables_number      19
_space_group_name_Hall           'P 2ac 2ab'
loop_
_symmetry_equiv_pos_site_id
_symmetry_equiv_pos_as_xyz
1 x,y,z
2 1/2-x,-y,1/2+z
3 -x,1/2+y,1/2-z
4 1/2+x,1/2-y,-z
_cell_length_a                   13.106(2)
_cell_length_b                   15.408(1)
_cell_length_c                   16.512(2)
_cell_angle_alpha                90
_cell_angle_beta                 90
_cell_angle_gamma                90
_cell_volume                     3334.39
loop_
_atom_site_label
_atom_site_type_symbol
_atom_site_fract_x
_atom_site_fract_y
_atom_site_fract_z
Sn1 Sn 0.06687(7) 0.76700(5) 0.01382(5)
Sn2 Sn -0.21319(7) 0.97754(6) 0.17531(6)
S1 S -0.2027(2) 0.85636(17) -0.00277(15)
O1 O -0.1016(7) 0.8245(6) 0.0207(6)
O2 O -0.2716(7) 0.7809(6) -0.0072(8)
O3 O -0.2424(9) 0.9147(8) 0.0604(8)
O4 O -0.1740(11) 1.0555(7) 0.2989(8)
H1 H -0.113(19) 1.096(16) 0.289(15)
H2 H -0.20(2) 1.083(16) 0.337(15)
O5 O -0.1995(10) 0.9015(9) -0.0797(7)
C1 C 0.0009(11) 0.6617(9) -0.0497(9)
C2 C 0.0097(14) 0.5762(10) -0.0234(13)
H3 H 0.0462 0.5649 0.0259
C3 C -0.0313(15) 0.5096(12) -0.0670(17)
H4 H -0.0269 0.4512 -0.0471
C4 C -0.0823(13) 0.5248(13) -0.1378(15)
H5 H -0.1095 0.4771 -0.1683
C5 C -0.0909(18) 0.6095(14) -0.1667(13)
H6 H -0.1272 0.6205 -0.2161
C6 C -0.0492(15) 0.6777(12) -0.1227(10)
H7 H -0.0530 0.7362 -0.1426
C7 C 0.0685(11) 0.7587(7) 0.1427(7)
C8 C 0.1557(12) 0.7744(11) 0.1854(11)
H8 H 0.2168 0.7898 0.1568
C9 C 0.1567(16) 0.7695(14) 0.2694(11)
H9 H 0.2182 0.7795 0.2995
C10 C 0.068(2) 0.7458(12) 0.3107(10)
H10 H 0.0659 0.7423 0.3688
C11 C -0.0167(18) 0.7309(18) 0.2671(12)
H11 H -0.0773 0.7137 0.2955
C12 C -0.0216(14) 0.7350(15) 0.1833(10)
H12 H -0.0837 0.7243 0.1541
C13 C 0.1168(11) 0.8782(9) -0.0507(8)
C14 C 0.0506(11) 0.9255(10) -0.0986(9)
H13 H -0.0192 0.9069 -0.1027
C15 C 0.0820(15) 0.9992(12) -0.1391(12)
H14 H 0.0346 1.0340 -0.1692
C16 C 0.1839(15) 1.0221(13) -0.1337(10)
H15 H 0.2080 1.0723 -0.1624
C17 C 0.2518(14) 0.9774(13) -0.0901(12)
H16 H 0.3225 0.9934 -0.0874
C18 C 0.2185(12) 0.9034(10) -0.0479(10)
H17 H 0.2656 0.8703 -0.0158
C19 C -0.3076(11) 1.0834(9) 0.1407(11)
C20 C -0.3062(16) 1.1117(14) 0.0593(14)
H18 H -0.2672 1.0806 0.0196
C21 C -0.3621(17) 1.1850(17) 0.0385(18)
H19 H -0.3647 1.2042 -0.0168
C22 C -0.4159(17) 1.2291(13) 0.0974(17)
H20 H -0.4509 1.2815 0.0823
C23 C -0.4215(14) 1.2000(13) 0.1752(18)
H21 H -0.4640 1.2279 0.2148
C24 C -0.3641(13) 1.1303(13) 0.1958(14)
H22 H -0.3617 1.1123 0.2514
C25 C -0.2685(11) 0.8733(9) 0.2466(9)
C26 C -0.2790(14) 0.7918(9) 0.2128(11)
H23 H -0.2702 0.7843 0.1555
C27 C -0.3068(19) 0.7210(12) 0.2600(14)
H24 H -0.3103 0.6641 0.2364
C28 C -0.3279(14) 0.7330(13) 0.3407(11)
H25 H -0.3466 0.6840 0.3736
C29 C -0.3218(19) 0.8128(15) 0.3763(11)
H26 H -0.3412 0.8213 0.4318
C30 C -0.2898(17) 0.8823(11) 0.3300(11)
H27 H -0.2791 0.9375 0.3556
C31 C -0.0546(10) 1.0012(8) 0.1505(9)
C32 C 0.0179(13) 0.9786(13) 0.2062(14)
H28 H -0.0019 0.9482 0.2544
C33 C 0.1201(16) 1.0011(16) 0.193(2)
H29 H 0.1705 0.9885 0.2331
C34 C 0.1474(15) 1.0417(13) 0.1233(17)
H30 H 0.2179 1.0545 0.1129
C35 C 0.0735(17) 1.0629(15) 0.0675(13)
H31 H 0.0929 1.0914 0.0182
C36 C -0.0282(13) 1.0415(13) 0.0816(10)
H32 H -0.0797 1.0568 0.0428
O2C O 0.2284(7) 0.7191(6) 0.0072(8)
Sn1C Sn -0.43313(7) 0.73300(5) -0.01382(5)
loop_
_geom_bond_atom_site_label_1
_geom_bond_atom_site_label_2
_geom_bond_site_symmetry_1
_geom_bond_site_symmetry_2
Sn1 O1 1_555 1_555
Sn2 O3 1_555 1_555
S1 O1 1_555 1_555
O2 S1 1_555 1_555
O3 S1 1_555 1_555
O4 Sn2 1_555 1_555
H1 O4 1_555 1_555
H2 O4 1_555 1_555
O5 S1 1_555 1_555
C1 Sn1 1_555 1_555
C2 C1 1_555 1_555
H3 C2 1_555 1_555
C3 C2 1_555 1_555
H4 C3 1_555 1_555
C4 C3 1_555 1_555
H5 C4 1_555 1_555
C5 C4 1_555 1_555
H6 C5 1_555 1_555
C6 C1 1_555 1_555
H7 C6 1_555 1_555
C7 Sn1 1_555 1_555
C8 C7 1_555 1_555
H8 C8 1_555 1_555
C9 C8 1_555 1_555
H9 C9 1_555 1_555
C10 C9 1_555 1_555
H10 C10 1_555 1_555
C11 C10 1_555 1_555
H11 C11 1_555 1_555
C12 C7 1_555 1_555
H12 C12 1_555 1_555
C13 Sn1 1_555 1_555
C14 C13 1_555 1_555
H13 C14 1_555 1_555
C15 C14 1_555 1_555
H14 C15 1_555 1_555
C16 C15 1_555 1_555
H15 C16 1_555 1_555
C17 C16 1_555 1_555
H16 C17 1_555 1_555
C18 C13 1_555 1_555
H17 C18 1_555 1_555
C19 Sn2 1_555 1_555
C20 C19 1_555 1_555
H18 C20 1_555 1_555
C21 C20 1_555 1_555
H19 C21 1_555 1_555
C22 C21 1_555 1_555
H20 C22 1_555 1_555
C23 C22 1_555 1_555
H21 C23 1_555 1_555
C24 C19 1_555 1_555
H22 C24 1_555 1_555
C25 Sn2 1_555 1_555
C26 C25 1_555 1_555
H23 C26 1_555 1_555
C27 C26 1_555 1_555
H24 C27 1_555 1_555
C28 C27 1_555 1_555
H25 C28 1_555 1_555
C29 C28 1_555 1_555
H26 C29 1_555 1_555
C30 C25 1_555 1_555
H27 C30 1_555 1_555
C31 Sn2 1_555 1_555
C32 C31 1_555 1_555
H28 C32 1_555 1_555
C33 C32 1_555 1_555
H29 C33 1_555 1_555
C34 C33 1_555 1_555
H30 C34 1_555 1_555
C35 C34 1_555 1_555
H31 C35 1_555 1_555
C36 C31 1_555 1_555
H32 C36 1_555 1_555
O2C Sn1 1_555 1_555
Sn1C O2 1_555 1_555
C5 C6 1_555 1_555
C11 C12 1_555 1_555
C17 C18 1_555 1_555
C23 C24 1_555 1_555
C29 C30 1_555 1_555
C35 C36 1_555 1_555

#END
