
#######################################################################
#
#                 Cambridge Crystallographic Data Centre
#                                CCDC 
#
#######################################################################
#
# If this CIF has been generated from an entry in the Cambridge 
# Structural Database, then it will include bibliographic, chemical, 
# crystal, experimental, refinement or atomic coordinate data resulting 
# from the CCDC's data processing and validation procedures.
#
#######################################################################

data_XURBIV
_symmetry_cell_setting           monoclinic
_symmetry_space_group_name_H-M   'P 21/a'
_symmetry_Int_Tables_number      14
_space_group_name_Hall           '-P 2yab'
loop_
_symmetry_equiv_pos_site_id
_symmetry_equiv_pos_as_xyz
1 x,y,z
2 1/2+x,1/2-y,z
3 -x,-y,-z
4 1/2-x,1/2+y,-z
_cell_length_a                   6.8390(9)
_cell_length_b                   12.264(1)
_cell_length_c                   9.7901(9)
_cell_angle_alpha                90
_cell_angle_beta                 91.56(1)
_cell_angle_gamma                90
_cell_volume                     820.826
loop_
_atom_site_label
_atom_site_type_symbol
_atom_site_fract_x
_atom_site_fract_y
_atom_site_fract_z
Co1 Co 0.67345(9) 0.56659(5) 0.59163(5)
Na1 Na 0.4705(3) 0.7599(2) 0.3541(2)
O1 O 0.7180(5) 0.6236(2) 0.2849(3)
O2 O 0.6472(4) 0.4814(2) 0.4155(3)
O3 O 1.0417(4) 0.3871(2) 0.4371(3)
O4 O 0.9125(5) 0.2234(2) 0.4180(3)
O5 O 0.7708(5) 0.3698(3) -0.2836(3)
O6 O 0.6872(5) 0.5329(2) -0.2105(3)
C1 C 0.7153(6) 0.5246(3) 0.3059(4)
C2 C 0.7836(6) 0.4473(3) 0.1983(4)
C3 C 0.8723(6) 0.3462(3) 0.2294(4)
C4 C 0.9131(7) 0.2746(3) 0.1228(4)
C5 C 0.8678(7) 0.3029(3) -0.0117(4)
C6 C 0.7889(6) 0.4040(3) -0.0425(4)
C7 C 0.7470(6) 0.4757(3) 0.0625(4)
C8 C 0.9446(6) 0.3172(3) 0.3701(4)
C9 C 0.7476(6) 0.4363(3) -0.1892(4)
H1 H 0.9710 0.2075 0.1421
H2 H 0.8906 0.2535 -0.0815
H3 H 0.6937 0.5437 0.0417
O2B O 0.3528(4) 0.5186(2) 0.5845(3)
O3B O 0.9583(4) 0.6129(2) 0.5629(3)
O4C O 0.5875(5) 0.7234(2) 0.5820(3)
O6_2 O 0.6872(5) 0.5329(2) 0.7895(3)
O1A O 0.2180(5) 0.8764(2) 0.2849(3)
O5B O 0.2292(5) 0.6302(3) 0.2836(3)
O5C O 0.7292(5) 0.8698(3) 0.2836(3)
Na1A Na 0.9705(3) 0.7401(2) 0.3541(2)
Co1B Co 0.32655(9) 0.43341(5) 0.40837(5)
Co1B_2 Co 1.32655(9) 0.43341(5) 0.40837(5)
Co1C Co 0.82655(9) 0.06659(5) 0.40837(5)
Na1C Na 1.0295(3) 0.2599(2) 0.6459(2)
Na1B Na 0.5295(3) 0.2401(2) -0.3541(2)
Na1C_2 Na 1.0295(3) 0.2599(2) -0.3541(2)
Co1_2 Co 0.67345(9) 0.56659(5) -0.40837(5)
loop_
_geom_bond_atom_site_label_1
_geom_bond_atom_site_label_2
_geom_bond_site_symmetry_1
_geom_bond_site_symmetry_2
Co1 O2 1_555 1_555
Na1 O1 1_555 1_555
O1 C1 1_555 1_555
O2 C1 1_555 1_555
O3 C8 1_555 1_555
O4 C8 1_555 1_555
O5 C9 1_555 1_555
O6 C9 1_555 1_555
C1 C2 1_555 1_555
C2 C3 1_555 1_555
C3 C4 1_555 1_555
C4 C5 1_555 1_555
C5 C6 1_555 1_555
C6 C7 1_555 1_555
C7 C2 1_555 1_555
C8 C3 1_555 1_555
C9 C6 1_555 1_555
H1 C4 1_555 1_555
H2 C5 1_555 1_555
H3 C7 1_555 1_555
O2B Co1 1_555 1_555
O3B Co1 1_555 1_555
O4C Co1 1_555 1_555
O6_2 Co1 1_555 1_555
O1A Na1 1_555 1_555
O5B Na1 1_555 1_555
O5C Na1 1_555 1_555
Na1A O1 1_555 1_555
Co1B O2 1_555 1_555
Co1B_2 O3 1_555 1_555
Co1C O4 1_555 1_555
Na1C O4 1_555 1_555
Na1B O5 1_555 1_555
Na1C_2 O5 1_555 1_555
Co1_2 O6 1_555 1_555
Na1 O4C 1_555 1_555
O2B Co1B 1_555 1_555
O5C Na1A 1_555 1_555

#END
