
#######################################################################
#
#                 Cambridge Crystallographic Data Centre
#                                CCDC 
#
#######################################################################
#
# If this CIF has been generated from an entry in the Cambridge 
# Structural Database, then it will include bibliographic, chemical, 
# crystal, experimental, refinement or atomic coordinate data resulting 
# from the CCDC's data processing and validation procedures.
#
#######################################################################

data_XURGAS01
_symmetry_cell_setting           monoclinic
_symmetry_space_group_name_H-M   'P 21/n'
_symmetry_Int_Tables_number      14
_space_group_name_Hall           '-P 2yn'
loop_
_symmetry_equiv_pos_site_id
_symmetry_equiv_pos_as_xyz
1 x,y,z
2 1/2+x,1/2-y,1/2+z
3 -x,-y,-z
4 1/2-x,1/2+y,1/2-z
_cell_length_a                   6.363(3)
_cell_length_b                   10.244(5)
_cell_length_c                   12.124(5)
_cell_angle_alpha                90
_cell_angle_beta                 103.560(8)
_cell_angle_gamma                90
_cell_volume                     768.245
loop_
_atom_site_label
_atom_site_type_symbol
_atom_site_fract_x
_atom_site_fract_y
_atom_site_fract_z
Co1 Co 0.11968(10) 0.13609(6) 0.76597(5)
Cl1 Cl -0.0360(2) 0.33250(12) 0.72757(11)
Cl2 Cl 0.4720(2) 0.17686(12) 0.83586(11)
N1 N -0.0147(6) 0.0498(3) 0.8848(3)
H1 H -0.1588 0.0397 0.8545
N2 N 0.0705(6) 0.0187(3) 0.6242(3)
H2 H 0.1183 -0.0630 0.6467
C1 C 0.0124(8) 0.1366(4) 0.9840(3)
H3 H -0.0588 0.2190 0.9601
H4 H 0.1652 0.1542 1.0131
C2 C 0.0780(8) -0.0804(5) 0.9219(4)
H5 H 0.0476 -0.1396 0.8576
H6 H 0.2338 -0.0727 0.9477
C3 C -0.1617(7) 0.0095(5) 0.5640(4)
H7 H -0.2191 0.0968 0.5472
H8 H -0.2413 -0.0316 0.6138
C4 C 0.1972(8) 0.0676(5) 0.5451(4)
H9 H 0.1588 0.1580 0.5271
H10 H 0.3496 0.0649 0.5826
C2B C -0.0780(8) 0.0804(5) 1.0781(4)
N1B N 0.0147(6) -0.0498(3) 1.1152(3)
H1B H 0.1588 -0.0397 1.1455
C1B C -0.0124(8) -0.1366(4) 1.0160(3)
H3B H 0.0588 -0.2190 1.0399
H4B H -0.1652 -0.1542 0.9869
H5B H -0.0476 0.1396 1.1424
H6B H -0.2338 0.0727 1.0523
C4B C -0.1972(8) -0.0676(5) 0.4549(4)
N2B N -0.0705(6) -0.0187(3) 0.3758(3)
H2B H -0.1183 0.0630 0.3533
C3B C 0.1617(7) -0.0095(5) 0.4360(4)
H7B H 0.2191 -0.0968 0.4528
H8B H 0.2413 0.0316 0.3862
H9B H -0.1588 -0.1580 0.4729
H10B H -0.3496 -0.0649 0.4174
Co1B Co -0.11968(10) -0.13609(6) 1.23403(5)
Cl1B Cl 0.0360(2) -0.33250(12) 1.27243(11)
Cl2B Cl -0.4720(2) -0.17686(12) 1.16414(11)
Co1B_2 Co -0.11968(10) -0.13609(6) 0.23403(5)
N2B_2 N -0.0705(6) -0.0187(3) 1.3758(3)
H2B_2 H -0.1183 0.0630 1.3533
loop_
_geom_bond_atom_site_label_1
_geom_bond_atom_site_label_2
_geom_bond_site_symmetry_1
_geom_bond_site_symmetry_2
Co1 Cl1 1_555 1_555
Cl2 Co1 1_555 1_555
N1 Co1 1_555 1_555
H1 N1 1_555 1_555
N2 Co1 1_555 1_555
H2 N2 1_555 1_555
C1 N1 1_555 1_555
H3 C1 1_555 1_555
H4 C1 1_555 1_555
C2 N1 1_555 1_555
H5 C2 1_555 1_555
H6 C2 1_555 1_555
C3 N2 1_555 1_555
H7 C3 1_555 1_555
H8 C3 1_555 1_555
C4 N2 1_555 1_555
H9 C4 1_555 1_555
H10 C4 1_555 1_555
C2B C1 1_555 1_555
N1B C2B 1_555 1_555
H1B N1B 1_555 1_555
C1B C2 1_555 1_555
H3B C1B 1_555 1_555
H4B C1B 1_555 1_555
H5B C2B 1_555 1_555
H6B C2B 1_555 1_555
C4B C3 1_555 1_555
N2B C4B 1_555 1_555
H2B N2B 1_555 1_555
C3B C4 1_555 1_555
H7B C3B 1_555 1_555
H8B C3B 1_555 1_555
H9B C4B 1_555 1_555
H10B C4B 1_555 1_555
Co1B N1B 1_555 1_555
Cl1B Co1B 1_555 1_555
Cl2B Co1B 1_555 1_555
Co1B_2 N2B 1_555 1_555
N2B_2 Co1B 1_555 1_555
H2B_2 N2B_2 1_555 1_555
N1B C1B 1_555 1_555
N2B C3B 1_555 1_555

#END
