
#######################################################################
#
#                 Cambridge Crystallographic Data Centre
#                                CCDC 
#
#######################################################################
#
# If this CIF has been generated from an entry in the Cambridge 
# Structural Database, then it will include bibliographic, chemical, 
# crystal, experimental, refinement or atomic coordinate data resulting 
# from the CCDC's data processing and validation procedures.
#
#######################################################################

data_XURGAS
_symmetry_cell_setting           monoclinic
_symmetry_space_group_name_H-M   'P 21/n'
_symmetry_Int_Tables_number      14
_space_group_name_Hall           '-P 2yn'
loop_
_symmetry_equiv_pos_site_id
_symmetry_equiv_pos_as_xyz
1 x,y,z
2 1/2+x,1/2-y,1/2+z
3 -x,-y,-z
4 1/2-x,1/2+y,1/2-z
_cell_length_a                   6.3612(6)
_cell_length_b                   10.2232(11)
_cell_length_c                   12.1257(12)
_cell_angle_alpha                90
_cell_angle_beta                 103.531(7)
_cell_angle_gamma                90
_cell_volume                     766.669
loop_
_atom_site_label
_atom_site_type_symbol
_atom_site_fract_x
_atom_site_fract_y
_atom_site_fract_z
Co1 Co 0.11949(5) 0.36397(3) 0.76599(2)
Cl1 Cl 0.47236(10) 0.32239(6) 0.83588(5)
N1 N 0.0694(3) 0.4813(2) 0.62392(14)
N2 N -0.0152(3) 0.4507(2) 0.88449(14)
C1 C -0.1622(4) 0.4901(3) 0.5644(2)
C2 C 0.1981(4) 0.4317(2) 0.5453(2)
C3 C 0.0134(4) 0.3622(2) 0.9842(2)
C4 C 0.0771(4) 0.5813(2) 0.9213(2)
H1 H -0.2129(49) 0.3956(30) 0.5469(24)
H2 H -0.2352(45) 0.5321(26) 0.6148(21)
H3 H 0.3523(50) 0.4351(29) 0.5801(23)
H4 H -0.0530(43) 0.2799(28) 0.9590(21)
H5 H 0.1677(50) 0.3517(26) 1.0092(22)
H6 H 0.2249(49) 0.5731(28) 0.9460(23)
H7 H 0.0454(49) 0.6370(26) 0.8609(24)
H8 H -0.1448(44) 0.4577(25) 0.8599(21)
H9 H 0.1177(48) 0.5527(31) 0.6443(23)
Cl2 Cl -0.03622(11) 0.16683(6) 0.72746(5)
H10 H 0.1535(45) 0.3372(26) 0.5245(22)
C2B C -0.1981(4) 0.5683(2) 0.4547(2)
N1B N -0.0694(3) 0.5187(2) 0.37608(14)
C1B C 0.1622(4) 0.5099(3) 0.4356(2)
H1B H 0.2129(49) 0.6044(30) 0.4531(24)
H2B H 0.2352(45) 0.4679(26) 0.3852(21)
H9B H -0.1177(48) 0.4473(31) 0.3557(23)
H3B H -0.3523(50) 0.5649(29) 0.4199(23)
H10B H -0.1535(45) 0.6628(26) 0.4755(22)
C4B C -0.0771(4) 0.4187(2) 1.0787(2)
N2B N 0.0152(3) 0.5493(2) 1.11551(14)
C3B C -0.0134(4) 0.6378(2) 1.0158(2)
H4B H 0.0530(43) 0.7201(28) 1.0410(21)
H5B H -0.1677(50) 0.6483(26) 0.9908(22)
H8B H 0.1448(44) 0.5423(25) 1.1401(21)
H6B H -0.2249(49) 0.4269(28) 1.0540(23)
H7B H -0.0454(49) 0.3630(26) 1.1391(24)
Co1B Co -0.11949(5) 0.63603(3) 0.23401(2)
Cl1B Cl -0.47236(10) 0.67761(6) 0.16412(5)
Cl2B Cl 0.03622(11) 0.83317(6) 0.27254(5)
Co1B_2 Co -0.11949(5) 0.63603(3) 1.23401(2)
N2B_2 N 0.0152(3) 0.5493(2) 0.11551(14)
H8B_2 H 0.1448(44) 0.5423(25) 0.1401(21)
loop_
_geom_bond_atom_site_label_1
_geom_bond_atom_site_label_2
_geom_bond_site_symmetry_1
_geom_bond_site_symmetry_2
Co1 Cl1 1_555 1_555
N1 Co1 1_555 1_555
N2 Co1 1_555 1_555
C1 N1 1_555 1_555
C2 N1 1_555 1_555
C3 N2 1_555 1_555
C4 N2 1_555 1_555
H1 C1 1_555 1_555
H2 C1 1_555 1_555
H3 C2 1_555 1_555
H4 C3 1_555 1_555
H5 C3 1_555 1_555
H6 C4 1_555 1_555
H7 C4 1_555 1_555
H8 N2 1_555 1_555
H9 N1 1_555 1_555
Cl2 Co1 1_555 1_555
H10 C2 1_555 1_555
C2B C1 1_555 1_555
N1B C2B 1_555 1_555
C1B C2 1_555 1_555
H1B C1B 1_555 1_555
H2B C1B 1_555 1_555
H9B N1B 1_555 1_555
H3B C2B 1_555 1_555
H10B C2B 1_555 1_555
C4B C3 1_555 1_555
N2B C4B 1_555 1_555
C3B C4 1_555 1_555
H4B C3B 1_555 1_555
H5B C3B 1_555 1_555
H8B N2B 1_555 1_555
H6B C4B 1_555 1_555
H7B C4B 1_555 1_555
Co1B N1B 1_555 1_555
Cl1B Co1B 1_555 1_555
Cl2B Co1B 1_555 1_555
Co1B_2 N2B 1_555 1_555
N2B_2 Co1B 1_555 1_555
H8B_2 N2B_2 1_555 1_555
N1B C1B 1_555 1_555
N2B C3B 1_555 1_555

#END
