
#######################################################################
#
#                 Cambridge Crystallographic Data Centre
#                                CCDC 
#
#######################################################################
#
# If this CIF has been generated from an entry in the Cambridge 
# Structural Database, then it will include bibliographic, chemical, 
# crystal, experimental, refinement or atomic coordinate data resulting 
# from the CCDC's data processing and validation procedures.
#
#######################################################################

data_XURNUU
_symmetry_cell_setting           monoclinic
_symmetry_space_group_name_H-M   'C 2'
_symmetry_Int_Tables_number      5
_space_group_name_Hall           'C 2y'
loop_
_symmetry_equiv_pos_site_id
_symmetry_equiv_pos_as_xyz
1 x,y,z
2 -x,y,-z
3 1/2+x,1/2+y,z
4 1/2-x,1/2+y,-z
_cell_length_a                   24.5534(6)
_cell_length_b                   9.7877(2)
_cell_length_c                   13.5716(3)
_cell_angle_alpha                90
_cell_angle_beta                 120.579(2)
_cell_angle_gamma                90
_cell_volume                     2807.96
loop_
_atom_site_label
_atom_site_type_symbol
_atom_site_fract_x
_atom_site_fract_y
_atom_site_fract_z
Cd1 Cd 0.246597(16) 0.39001(5) 0.10180(3)
Cd2 Cd -0.256160(16) -0.10226(5) -0.35669(3)
S1 S 0.18480(7) 0.57331(16) 0.22368(14)
S2 S 0.30894(7) 0.05026(17) 0.18811(15)
N1 N 0.1497(2) 0.2900(6) 0.0045(4)
N2 N 0.3431(2) 0.4894(5) 0.2170(5)
N3 N -0.1589(2) 0.0017(6) -0.2626(5)
N4 N 0.6466(3) 0.7931(7) 0.5300(5)
O1 O 0.2958(2) 0.3112(5) 0.0021(5)
O2 O 0.2013(3) 0.5864(8) 0.1329(6)
O3 O 0.2871(2) 0.1838(5) 0.2122(5)
O4 O 0.2921(2) 0.0454(5) 0.0679(4)
O5 O 0.2127(3) 0.6854(6) 0.3040(7)
O6 O 0.2734(3) -0.0601(5) 0.2058(5)
O7 O -0.2338(3) -0.1311(7) -0.5048(5)
O8 O -0.3011(3) 0.1172(8) -0.4279(9)
O9 O 0.2132(5) 0.4465(7) 0.2769(8)
O10 O 0.1172(3) 0.5746(8) 0.1683(7)
O11 O 0.3766(2) 0.0327(7) 0.2641(6)
C1 C 0.1406(3) 0.1561(7) 0.0031(5)
H1 H 0.1759 0.0996 0.0388
C2 C 0.0806(3) 0.0955(7) -0.0492(5)
H2 H 0.0764 0.0011 -0.0483
C3 C 0.0270(2) 0.1794(6) -0.1030(5)
C4 C 0.0368(3) 0.3178(7) -0.1035(6)
H3 H 0.0023 0.3761 -0.1410
C5 C 0.0980(3) 0.3720(7) -0.0485(6)
H4 H 0.1034 0.4661 -0.0481
C6 C -0.0379(3) 0.1193(6) -0.1599(5)
C7 C -0.0920(3) 0.1986(7) -0.2033(5)
H5 H -0.0881 0.2932 -0.1976
C8 C -0.1511(3) 0.1415(7) -0.2543(6)
H6 H -0.1865 0.1979 -0.2838
C9 C 0.3509(3) 0.6235(7) 0.2328(5)
H7 H 0.3150 0.6780 0.2045
C10 C 0.4078(3) 0.6850(7) 0.2873(5)
H8 H 0.4100 0.7799 0.2905
C11 C 0.4633(2) 0.6096(6) 0.3387(5)
C12 C 0.4562(3) 0.4662(7) 0.3271(7)
H9 H 0.4916 0.4098 0.3606
C13 C 0.3964(3) 0.4107(9) 0.2657(7)
H10 H 0.3922 0.3163 0.2573
C14 C 0.5284(3) 0.6730(7) 0.4025(5)
C15 C 0.5352(3) 0.8111(7) 0.4206(7)
H11 H 0.4997 0.8669 0.3916
C16 C 0.5815(2) 0.5932(7) 0.4500(5)
H12 H 0.5788 0.4988 0.4408
C17 C -0.1077(3) -0.0753(7) -0.2188(7)
H13 H -0.1127 -0.1697 -0.2227
C18 C -0.0463(3) -0.0222(7) -0.1669(7)
H14 H -0.0115 -0.0803 -0.1375
C19 C 0.6411(3) 0.6597(7) 0.5141(6)
H15 H 0.6777 0.6070 0.5461
C20 C 0.5932(3) 0.8658(7) 0.4800(8)
H16 H 0.5965 0.9604 0.4869
Cd1C Cd 0.253403(16) -0.10999(5) -0.10180(3)
Cd2_2 Cd 0.743840(16) 0.89774(5) 0.64331(3)
Cd2A Cd 0.256160(16) 0.89774(5) 0.35669(3)
Cd2A_2 Cd 0.256160(16) -0.10226(5) 0.35669(3)
N4_2 N -0.3534(3) -0.2069(7) -0.4700(5)
O4C O 0.2079(2) 0.5454(5) -0.0679(4)
O5A O -0.2127(3) -0.3146(6) -0.3040(7)
O6A O -0.2734(3) -0.0601(5) -0.2058(5)
O12 O 0.4283(6) 0.2441(13) 0.0467(11)
O13 O 0.4827(7) 0.1349(18) 0.2653(13)
loop_
_geom_bond_atom_site_label_1
_geom_bond_atom_site_label_2
_geom_bond_site_symmetry_1
_geom_bond_site_symmetry_2
Cd1 N1 1_555 1_555
Cd2 N3 1_555 1_555
S1 O2 1_555 1_555
S2 O3 1_555 1_555
N1 C1 1_555 1_555
N2 Cd1 1_555 1_555
N3 C8 1_555 1_555
N4 C19 1_555 1_555
O1 Cd1 1_555 1_555
O2 Cd1 1_555 1_555
O3 Cd1 1_555 1_555
O4 S2 1_555 1_555
O5 S1 1_555 1_555
O6 S2 1_555 1_555
O7 Cd2 1_555 1_555
O8 Cd2 1_555 1_555
O9 S1 1_555 1_555
O10 S1 1_555 1_555
O11 S2 1_555 1_555
C1 H1 1_555 1_555
C2 C1 1_555 1_555
H2 C2 1_555 1_555
C3 C2 1_555 1_555
C4 C3 1_555 1_555
H3 C4 1_555 1_555
C5 N1 1_555 1_555
H4 C5 1_555 1_555
C6 C3 1_555 1_555
C7 C6 1_555 1_555
H5 C7 1_555 1_555
C8 C7 1_555 1_555
H6 C8 1_555 1_555
C9 N2 1_555 1_555
H7 C9 1_555 1_555
C10 C9 1_555 1_555
H8 C10 1_555 1_555
C11 C10 1_555 1_555
C12 C11 1_555 1_555
H9 C12 1_555 1_555
C13 N2 1_555 1_555
H10 C13 1_555 1_555
C14 C11 1_555 1_555
C15 C14 1_555 1_555
H11 C15 1_555 1_555
C16 C14 1_555 1_555
H12 C16 1_555 1_555
C17 N3 1_555 1_555
H13 C17 1_555 1_555
C18 C6 1_555 1_555
H14 C18 1_555 1_555
C19 C16 1_555 1_555
H15 C19 1_555 1_555
C20 N4 1_555 1_555
H16 C20 1_555 1_555
Cd1C O4 1_555 1_555
Cd2_2 N4 1_555 1_555
Cd2A O5 1_555 1_555
Cd2A_2 O6 1_555 1_555
N4_2 Cd2 1_555 1_555
O4C Cd1 1_555 1_555
O5A Cd2 1_555 1_555
O6A Cd2 1_555 1_555
C4 C5 1_555 1_555
C12 C13 1_555 1_555
C15 C20 1_555 1_555
C17 C18 1_555 1_555

#END
