
#######################################################################
#
#                 Cambridge Crystallographic Data Centre
#                                CCDC 
#
#######################################################################
#
# If this CIF has been generated from an entry in the Cambridge 
# Structural Database, then it will include bibliographic, chemical, 
# crystal, experimental, refinement or atomic coordinate data resulting 
# from the CCDC's data processing and validation procedures.
#
#######################################################################

data_XURNII
_symmetry_cell_setting           monoclinic
_symmetry_space_group_name_H-M   'P 21'
_symmetry_Int_Tables_number      4
_space_group_name_Hall           'P 2yb'
loop_
_symmetry_equiv_pos_site_id
_symmetry_equiv_pos_as_xyz
1 x,y,z
2 -x,1/2+y,-z
_cell_length_a                   6.9673(2)
_cell_length_b                   14.1333(4)
_cell_length_c                   14.3657(4)
_cell_angle_alpha                90
_cell_angle_beta                 104.0350(10)
_cell_angle_gamma                90
_cell_volume                     1372.37
loop_
_atom_site_label
_atom_site_type_symbol
_atom_site_fract_x
_atom_site_fract_y
_atom_site_fract_z
Cd1 Cd 0.66254(5) 0.59483(5) 0.00000(3)
N1 N 0.4232(14) 0.7027(7) 0.0014(7)
N2 N -0.4184(9) 0.9845(5) 0.0004(6)
O1 O 0.6349(7) 0.5924(9) -0.3353(3)
O2 O 0.9698(8) 0.5876(8) 0.3354(3)
C1 C 0.3608(13) 0.7669(8) -0.0625(6)
H1 H 0.4340 0.7782 -0.1075
C2 C 0.3304(16) 0.7000(8) 0.0820(8)
H2 H 0.3811 0.6618 0.1349
C3 C -0.4222(12) 0.9258(8) -0.0623(6)
H3 H -0.5396 0.9177 -0.1089
C4 C -0.2627(13) 0.8713(7) -0.0680(6)
H4 H -0.2753 0.8308 -0.1201
C5 C -0.0878(13) 0.8735(6) -0.0016(5)
C6 C -0.0865(13) 0.9339(8) 0.0767(7)
H5 H 0.0257 0.9363 0.1272
C7 C -0.2471(15) 0.9894(9) 0.0802(7)
H6 H -0.2451 1.0288 0.1323
C8 C 0.0884(14) 0.8154(7) -0.0018(6)
C9 C 0.1634(12) 0.7562(8) 0.0779(7)
H7 H 0.1011 0.7546 0.1283
C10 C 0.1922(14) 0.8199(7) -0.0682(6)
H8 H 0.1494 0.8601 -0.1203
S1 S 0.5687(2) 0.5942(2) -0.24673(9)
S2 S 0.8174(2) 0.5939(2) 0.24668(9)
S3 S 0.7752(4) 0.5380(2) -0.14124(19)
O3 O 0.5395(17) 0.6968(6) -0.2243(8)
O4 O 0.3813(13) 0.5491(8) -0.2516(9)
S4 S 0.9295(5) 0.5386(2) 0.1414(2)
O5 O 0.7635(17) 0.6963(6) 0.2249(8)
O6 O 0.6392(12) 0.5471(7) 0.2509(7)
Cd1A Cd -0.66254(5) 1.09483(5) 0.00000(3)
N2A N 0.4184(9) 0.4845(5) -0.0004(6)
Na1 Na 0.7461(7) 0.8431(3) 0.4935(3)
Na2 Na 1.2514(7) 0.8435(3) 0.5055(2)
O7 O 0.9963(13) 0.7272(6) 0.4934(6)
O8 O 1.0042(14) 0.9584(6) 0.5142(6)
O9 O 0.5023(12) 0.7258(6) 0.5096(6)
O10 O 0.4895(14) 0.9575(6) 0.4889(5)
O11 O 0.825(3) 0.8534(14) 0.6704(7)
O12 O 0.6145(17) 0.8427(8) 0.3182(5)
O13 O 1.2891(16) 0.8454(10) 0.6773(7)
O14 O 1.163(2) 0.8550(13) 0.3360(7)
Na2_2 Na 0.2514(7) 0.8435(3) 0.5055(2)
O9_2 O 1.5023(12) 0.7258(6) 0.5096(6)
O10_2 O 1.4895(14) 0.9575(6) 0.4889(5)
O15 O 0.0156(8) 0.5910(9) 0.6348(4)
O16 O 0.3825(9) 0.5939(9) 0.3656(4)
O17? O 0.586(4) 0.4896(7) -0.2383(19)
O18? O 0.3794(17) 0.6269(13) -0.2414(13)
O19? O 0.6151(15) 0.6216(12) 0.2417(13)
O20? O 0.834(3) 0.4898(7) 0.2363(15)
S5? S 0.8026(7) 0.6335(4) -0.1397(3)
S6? S 0.9193(8) 0.6361(4) 0.1399(3)
loop_
_geom_bond_atom_site_label_1
_geom_bond_atom_site_label_2
_geom_bond_site_symmetry_1
_geom_bond_site_symmetry_2
Cd1 N1 1_555 1_555
N1 C1 1_555 1_555
N2 C3 1_555 1_555
O1 S1 1_555 1_555
O2 S2 1_555 1_555
C1 H1 1_555 1_555
C2 N1 1_555 1_555
H2 C2 1_555 1_555
C3 H3 1_555 1_555
C4 C3 1_555 1_555
H4 C4 1_555 1_555
C5 C4 1_555 1_555
C6 C5 1_555 1_555
H5 C6 1_555 1_555
C7 N2 1_555 1_555
H6 C7 1_555 1_555
C8 C5 1_555 1_555
C9 C2 1_555 1_555
H7 C9 1_555 1_555
C10 C1 1_555 1_555
H8 C10 1_555 1_555
S1 S3 1_555 1_555
S2 S4 1_555 1_555
S3 Cd1 1_555 1_555
O3 S1 1_555 1_555
O4 S1 1_555 1_555
S4 Cd1 1_555 1_555
O5 S2 1_555 1_555
O6 S2 1_555 1_555
Na1 O7 1_555 1_555
Na2 O7 1_555 1_555
O8 Na1 1_555 1_555
O9 Na1 1_555 1_555
O10 Na1 1_555 1_555
O11 Na1 1_555 1_555
O12 Na1 1_555 1_555
O13 Na2 1_555 1_555
O14 Na2 1_555 1_555
Cd1A N2 1_555 1_555
N2A Cd1 1_555 1_555
Na2_2 O9 1_555 1_555
O9_2 Na2 1_555 1_555
O10_2 Na2 1_555 1_555
C6 C7 1_555 1_555
C8 C9 1_555 1_555
C8 C10 1_555 1_555
Na2 O8 1_555 1_555
O10 Na2_2 1_555 1_555

#END
