
#######################################################################
#
#                 Cambridge Crystallographic Data Centre
#                                CCDC 
#
#######################################################################
#
# If this CIF has been generated from an entry in the Cambridge 
# Structural Database, then it will include bibliographic, chemical, 
# crystal, experimental, refinement or atomic coordinate data resulting 
# from the CCDC's data processing and validation procedures.
#
#######################################################################

data_XURXIS
_symmetry_cell_setting           triclinic
_symmetry_space_group_name_H-M   'P -1'
_symmetry_Int_Tables_number      2
_space_group_name_Hall           '-P 1'
loop_
_symmetry_equiv_pos_site_id
_symmetry_equiv_pos_as_xyz
1 x,y,z
2 -x,-y,-z
_cell_length_a                   10.2266(7)
_cell_length_b                   14.7774(11)
_cell_length_c                   17.3468(13)
_cell_angle_alpha                69.352(1)
_cell_angle_beta                 84.692(1)
_cell_angle_gamma                75.771(1)
_cell_volume                     2377.79
loop_
_atom_site_label
_atom_site_type_symbol
_atom_site_fract_x
_atom_site_fract_y
_atom_site_fract_z
C1 C 0.9308(5) -0.7109(3) 0.3236(3)
C2 C 1.2950(5) -0.7670(3) 0.4564(3)
C3 C 1.2050(5) -0.7076(4) 0.4946(3)
H1 H 1.1140 -0.6819 0.4766
C4 C 1.2471(6) -0.6857(4) 0.5586(3)
H2 H 1.1847 -0.6460 0.5845
C5 C 1.3797(6) -0.7214(4) 0.5846(3)
H3 H 1.4087 -0.7051 0.6276
C6 C 1.4703(6) -0.7811(4) 0.5480(3)
H4 H 1.5614 -0.8059 0.5658
C7 C 1.4267(6) -0.8047(4) 0.4843(3)
H5 H 1.4883 -0.8469 0.4602
C8 C 1.1767(5) -0.9404(3) 0.3969(3)
C9 C 1.2019(5) -1.0012(4) 0.4796(3)
H6 H 1.2393 -0.9780 0.5152
C10 C 1.1732(6) -1.0941(4) 0.5100(3)
H7 H 1.1906 -1.1342 0.5661
C11 C 1.1192(5) -1.1284(4) 0.4586(4)
H8 H 1.0995 -1.1923 0.4796
C12 C 1.0935(5) -1.0707(4) 0.3773(3)
H9 H 1.0569 -1.0950 0.3422
C13 C 1.1214(5) -0.9768(4) 0.3467(3)
H10 H 1.1024 -0.9369 0.2908
C14 C 1.2537(5) -0.6994(3) 0.2381(3)
C15 C 1.1995(5) -0.6979(4) 0.1669(3)
H11 H 1.1478 -0.7445 0.1701
C16 C 1.2206(6) -0.6284(4) 0.0906(3)
H12 H 1.1810 -0.6264 0.0424
C17 C 1.3015(6) -0.5604(4) 0.0851(4)
H13 H 1.3177 -0.5139 0.0332
C18 C 1.3552(6) -0.5626(4) 0.1547(3)
H14 H 1.4086 -0.5170 0.1512
C19 C 1.3329(5) -0.6310(4) 0.2313(3)
H15 H 1.3713 -0.6315 0.2793
C20 C 1.4754(5) -0.9758(4) 0.3169(3)
H16 H 1.4017 -1.0072 0.3320
C21 C 1.5877(5) -1.0211(4) 0.2820(3)
H17 H 1.5900 -1.0814 0.2732
C22 C 1.6971(5) -0.9768(4) 0.2599(3)
C23 C 1.8190(5) -1.0239(4) 0.2228(3)
C24 C 1.8570(5) -1.1261(4) 0.2435(4)
H18 H 1.8034 -1.1672 0.2804
C25 C 1.9743(5) -1.1677(4) 0.2098(3)
H19 H 1.9996 -1.2380 0.2253
C26 C 2.0139(5) -1.0161(4) 0.1333(3)
H20 H 2.0654 -0.9769 0.0926
C27 C 1.9003(5) -0.9675(4) 0.1655(3)
H21 H 1.8777 -0.8971 0.1489
C28 C 1.6880(5) -0.8897(3) 0.2747(3)
H22 H 1.7612 -0.8577 0.2611
C29 C 1.5710(5) -0.8493(4) 0.3095(3)
H23 H 1.5662 -0.7891 0.3190
C30 C 2.2743(5) -1.3010(3) 0.2556(3)
C31 C 2.3009(5) -1.2816(4) 0.3249(3)
H24 H 2.3266 -1.2218 0.3185
C32 C 2.2897(6) -1.3499(4) 0.4040(3)
H25 H 2.3091 -1.3362 0.4508
C33 C 2.2514(6) -1.4361(4) 0.4148(3)
H26 H 2.2452 -1.4822 0.4686
C34 C 2.2215(6) -1.4558(4) 0.3464(3)
H27 H 2.1921 -1.5144 0.3535
C35 C 2.2350(5) -1.3886(4) 0.2666(3)
H28 H 2.2172 -1.4031 0.2200
C36 C 2.2323(5) -1.2503(4) 0.0416(3)
C37 C 2.3291(5) -1.2810(4) -0.0132(3)
H29 H 2.4216 -1.2833 -0.0078
C38 C 2.2889(6) -1.3080(4) -0.0756(3)
H30 H 2.3541 -1.3274 -0.1129
C39 C 2.1547(6) -1.3065(4) -0.0833(3)
H31 H 2.1281 -1.3257 -0.1252
C40 C 2.0610(6) -1.2773(4) -0.0302(3)
H32 H 1.9689 -1.2760 -0.0356
C41 C 2.0989(6) -1.2493(4) 0.0319(3)
H33 H 2.0320 -1.2292 0.0681
C42 C 2.3284(5) -1.0607(3) 0.0884(3)
C43 C 2.3080(5) -1.0059(4) 0.0047(3)
H34 H 2.2918 -1.0377 -0.0312
C44 C 2.3108(6) -0.9062(4) -0.0271(3)
H35 H 2.2967 -0.8704 -0.0842
C45 C 2.3341(5) -0.8590(4) 0.0247(4)
H36 H 2.3343 -0.7904 0.0035
C46 C 2.3571(6) -0.9123(4) 0.1074(4)
H37 H 2.3750 -0.8805 0.1429
C47 C 2.3539(5) -1.0125(4) 0.1389(3)
H38 H 2.3696 -1.0483 0.1959
C48 C 0.5833(5) -0.2879(3) 0.1746(3)
C49 C 0.7172(5) -0.3543(3) 0.1770(3)
C50 C 0.7578(5) -0.4233(4) 0.1334(3)
H39 H 0.7053 -0.4310 0.0947
C51 C 0.8916(5) -0.4785(4) 0.1592(4)
H40 H 0.9439 -0.5291 0.1400
C52 C 0.9329(5) -0.4456(4) 0.2176(4)
H41 H 1.0178 -0.4699 0.2444
C53 C 0.8258(5) -0.3694(4) 0.2299(3)
H42 H 0.8264 -0.3348 0.2667
C54 C 0.6446(5) -0.5188(4) 0.3642(3)
H43 H 0.6026 -0.4709 0.3890
C55 C 0.7772(5) -0.5808(4) 0.3800(3)
H44 H 0.8399 -0.5807 0.4171
C56 C 0.8000(5) -0.6426(4) 0.3310(3)
C57 C 0.6826(5) -0.6188(4) 0.2835(3)
H45 H 0.6705 -0.6486 0.2450
C58 C 0.5865(5) -0.5430(4) 0.3034(3)
H46 H 0.4989 -0.5133 0.2805
Sn1 Sn 1.22062(3) -0.79785(2) 0.358320(19)
Sn2 Sn 2.30116(3) -1.20759(2) 0.133170(19)
Fe1 Fe 0.76120(7) -0.49708(5) 0.25798(4)
N1 N 1.4637(4) -0.8910(3) 0.3306(2)
N2 N 2.0547(4) -1.1145(3) 0.1564(3)
O1 O 1.0250(3) -0.7133(2) 0.3713(2)
O2 O 0.9456(4) -0.7595(3) 0.2780(2)
O3 O 0.4993(3) -0.2913(2) 0.1245(2)
O4 O 0.5563(4) -0.2325(2) 0.2162(2)
Sn2_2 Sn 0.30116(3) -0.20759(2) 0.133170(19)
O3_2 O 2.4993(3) -1.2913(2) 0.1245(2)
loop_
_geom_bond_atom_site_label_1
_geom_bond_atom_site_label_2
_geom_bond_site_symmetry_1
_geom_bond_site_symmetry_2
C1 C56 1_555 1_555
C2 C3 1_555 1_555
C3 H1 1_555 1_555
C4 C3 1_555 1_555
H2 C4 1_555 1_555
C5 C4 1_555 1_555
H3 C5 1_555 1_555
C6 C5 1_555 1_555
H4 C6 1_555 1_555
C7 C2 1_555 1_555
H5 C7 1_555 1_555
C8 C9 1_555 1_555
C9 H6 1_555 1_555
C10 C9 1_555 1_555
H7 C10 1_555 1_555
C11 C10 1_555 1_555
H8 C11 1_555 1_555
C12 C11 1_555 1_555
H9 C12 1_555 1_555
C13 C8 1_555 1_555
H10 C13 1_555 1_555
C14 C15 1_555 1_555
C15 H11 1_555 1_555
C16 C15 1_555 1_555
H12 C16 1_555 1_555
C17 C16 1_555 1_555
H13 C17 1_555 1_555
C18 C17 1_555 1_555
H14 C18 1_555 1_555
C19 C14 1_555 1_555
H15 C19 1_555 1_555
C20 H16 1_555 1_555
C21 C20 1_555 1_555
H17 C21 1_555 1_555
C22 C21 1_555 1_555
C23 C22 1_555 1_555
C24 C23 1_555 1_555
H18 C24 1_555 1_555
C25 C24 1_555 1_555
H19 C25 1_555 1_555
C26 H20 1_555 1_555
C27 C23 1_555 1_555
H21 C27 1_555 1_555
C28 C22 1_555 1_555
H22 C28 1_555 1_555
C29 C28 1_555 1_555
H23 C29 1_555 1_555
C30 C31 1_555 1_555
C31 H24 1_555 1_555
C32 C31 1_555 1_555
H25 C32 1_555 1_555
C33 C32 1_555 1_555
H26 C33 1_555 1_555
C34 C33 1_555 1_555
H27 C34 1_555 1_555
C35 C30 1_555 1_555
H28 C35 1_555 1_555
C36 C37 1_555 1_555
C37 H29 1_555 1_555
C38 C37 1_555 1_555
H30 C38 1_555 1_555
C39 C38 1_555 1_555
H31 C39 1_555 1_555
C40 C39 1_555 1_555
H32 C40 1_555 1_555
C41 C36 1_555 1_555
H33 C41 1_555 1_555
C42 C43 1_555 1_555
C43 H34 1_555 1_555
C44 C43 1_555 1_555
H35 C44 1_555 1_555
C45 C44 1_555 1_555
H36 C45 1_555 1_555
C46 C45 1_555 1_555
H37 C46 1_555 1_555
C47 C42 1_555 1_555
H38 C47 1_555 1_555
C48 C49 1_555 1_555
C49 C50 1_555 1_555
C50 H39 1_555 1_555
C51 C50 1_555 1_555
H40 C51 1_555 1_555
C52 C51 1_555 1_555
H41 C52 1_555 1_555
C53 C49 1_555 1_555
H42 C53 1_555 1_555
C54 H43 1_555 1_555
C55 C54 1_555 1_555
H44 C55 1_555 1_555
C56 C55 1_555 1_555
C57 C56 1_555 1_555
H45 C57 1_555 1_555
C58 C54 1_555 1_555
H46 C58 1_555 1_555
Sn1 C2 1_555 1_555
Sn2 C30 1_555 1_555
Fe1 C49 1_555 1_555
N1 C20 1_555 1_555
N2 C25 1_555 1_555
O1 C1 1_555 1_555
O2 C1 1_555 1_555
O3 C48 1_555 1_555
O4 C48 1_555 1_555
Sn2_2 O3 1_555 1_555
O3_2 Sn2 1_555 1_555
C6 C7 1_555 1_555
C8 Sn1 1_555 1_555
C12 C13 1_555 1_555
C14 Sn1 1_555 1_555
C18 C19 1_555 1_555
C26 C27 1_555 1_555
C26 N2 1_555 1_555
C29 N1 1_555 1_555
C34 C35 1_555 1_555
C36 Sn2 1_555 1_555
C40 C41 1_555 1_555
C42 Sn2 1_555 1_555
C46 C47 1_555 1_555
C50 Fe1 1_555 1_555
C51 Fe1 1_555 1_555
C52 C53 1_555 1_555
C52 Fe1 1_555 1_555
C53 Fe1 1_555 1_555
C54 Fe1 1_555 1_555
C55 Fe1 1_555 1_555
C56 Fe1 1_555 1_555
C57 C58 1_555 1_555
C57 Fe1 1_555 1_555
C58 Fe1 1_555 1_555
Sn1 N1 1_555 1_555
Sn1 O1 1_555 1_555
Sn2 N2 1_555 1_555

#END
