
#######################################################################
#
#                 Cambridge Crystallographic Data Centre
#                                CCDC 
#
#######################################################################
#
# If this CIF has been generated from an entry in the Cambridge 
# Structural Database, then it will include bibliographic, chemical, 
# crystal, experimental, refinement or atomic coordinate data resulting 
# from the CCDC's data processing and validation procedures.
#
#######################################################################

data_XURXUE
_symmetry_cell_setting           triclinic
_symmetry_space_group_name_H-M   'P -1'
_symmetry_Int_Tables_number      2
_space_group_name_Hall           '-P 1'
loop_
_symmetry_equiv_pos_site_id
_symmetry_equiv_pos_as_xyz
1 x,y,z
2 -x,-y,-z
_cell_length_a                   9.941(5)
_cell_length_b                   9.945(5)
_cell_length_c                   13.923(5)
_cell_angle_alpha                79.991(5)
_cell_angle_beta                 83.403(5)
_cell_angle_gamma                67.877(5)
_cell_volume                     1253.88
loop_
_atom_site_label
_atom_site_type_symbol
_atom_site_fract_x
_atom_site_fract_y
_atom_site_fract_z
Sn1 Sn 0.92477(4) 0.36055(4) 0.28758(2)
Fe1 Fe 1.0000 0.0000 0.0000
O1 O 0.9960(4) 0.1733(4) 0.2139(3)
O2 O 0.7690(4) 0.1748(4) 0.2292(3)
N1 N 0.8391(5) 0.5950(5) 0.3691(3)
C1 C 1.0973(7) -0.2058(6) 0.0740(4)
H1 H 1.1836 -0.2830 0.0503
C2 C 0.9501(8) -0.1807(6) 0.0568(4)
H2 H 0.9180 -0.2380 0.0203
C3 C 0.8593(7) -0.0586(7) 0.1021(4)
H3 H 0.7529 -0.0161 0.1019
C4 C 0.9491(6) -0.0053(6) 0.1471(4)
C5 C 1.0984(7) -0.0984(6) 0.1280(4)
H4 H 1.1848 -0.0891 0.1492
C6 C 0.8953(6) 0.1236(5) 0.2002(3)
C7 C 0.7759(6) 0.4992(5) 0.1812(4)
C8 C 0.8216(6) 0.4954(6) 0.0841(4)
H5 H 0.9158 0.4355 0.0671
C9 C 0.7262(7) 0.5821(6) 0.0104(4)
H6 H 0.7571 0.5780 -0.0550
C10 C 0.5881(7) 0.6721(7) 0.0351(5)
H7 H 0.5252 0.7279 -0.0136
C11 C 0.5421(7) 0.6805(7) 0.1319(5)
H8 H 0.4495 0.7444 0.1483
C12 C 0.6348(6) 0.5926(6) 0.2054(4)
H9 H 0.6026 0.5962 0.2707
C13 C 0.8627(6) 0.2669(5) 0.4264(4)
C14 C 0.7206(7) 0.2806(7) 0.4528(4)
H10 H 0.6495 0.3250 0.4074
C15 C 0.6833(7) 0.2276(8) 0.5483(4)
H11 H 0.5868 0.2397 0.5662
C16 C 0.7886(8) 0.1574(7) 0.6159(4)
H12 H 0.7639 0.1204 0.6787
C17 C 0.9311(7) 0.1432(7) 0.5888(4)
H13 H 1.0026 0.0973 0.6339
C18 C 0.9684(6) 0.1968(6) 0.4947(4)
H14 H 1.0647 0.1859 0.4772
C19 C 1.1414(5) 0.3613(6) 0.2698(3)
C20 C 1.2567(6) 0.2343(6) 0.2476(4)
H15 H 1.2384 0.1507 0.2430
C21 C 1.3987(6) 0.2324(6) 0.2324(4)
H16 H 1.4742 0.1469 0.2188
C22 C 1.4287(6) 0.3562(6) 0.2374(4)
H17 H 1.5230 0.3555 0.2256
C23 C 1.3139(6) 0.4822(6) 0.2605(4)
H18 H 1.3319 0.5661 0.2649
C24 C 1.1752(6) 0.4829(6) 0.2768(4)
H19 H 1.1010 0.5675 0.2931
C25 C 0.7817(6) 0.5972(5) 0.4610(4)
H20 H 0.8046 0.5091 0.5031
C26 C 0.6910(6) 0.7230(6) 0.4959(4)
H21 H 0.6530 0.7191 0.5601
C27 C 0.6558(5) 0.8568(5) 0.4348(4)
C28 C 0.5482(5) 0.9955(5) 0.4626(4)
H22 H 0.5483 1.0825 0.4251
C29 C 0.7252(5) 0.8543(5) 0.3409(4)
H23 H 0.7113 0.9415 0.2989
C30 C 0.8132(6) 0.7238(6) 0.3113(4)
H24 H 0.8569 0.7243 0.2486
Sn1A Sn 1.07523(4) -0.36055(4) -0.28758(2)
Sn1A_2 Sn 0.07523(4) 1.63945(4) 0.71242(2)
O1A O 1.0040(4) -0.1733(4) -0.2139(3)
O1A_2 O 0.0040(4) 1.8267(4) 0.7861(3)
O2A O 1.2310(4) -0.1748(4) -0.2292(3)
N1A N 0.1609(5) 1.4050(5) 0.6309(3)
C1A C 0.9027(7) 0.2058(6) -0.0740(4)
H1A H 0.8164 0.2830 -0.0503
C2A C 1.0499(8) 0.1807(6) -0.0568(4)
H2A H 1.0820 0.2380 -0.0203
C3A C 1.1407(7) 0.0586(7) -0.1021(4)
H3A H 1.2471 0.0161 -0.1019
C4A C 1.0509(6) 0.0053(6) -0.1471(4)
C5A C 0.9016(7) 0.0984(6) -0.1280(4)
H4A H 0.8152 0.0891 -0.1492
C6A C 1.1047(6) -0.1236(5) -0.2002(3)
C7A C 0.2241(6) 1.5008(5) 0.8188(4)
C8A C 0.1784(6) 1.5046(6) 0.9159(4)
H5A H 0.0842 1.5645 0.9329
C9A C 0.2738(7) 1.4179(6) 0.9896(4)
H6A H 0.2429 1.4220 1.0550
C10A C 0.4119(7) 1.3279(7) 0.9649(5)
H7A H 0.4748 1.2721 1.0136
C11A C 0.4579(7) 1.3195(7) 0.8681(5)
H8A H 0.5505 1.2556 0.8517
C12A C 0.3652(6) 1.4074(6) 0.7946(4)
H9A H 0.3974 1.4038 0.7293
C13A C 0.1373(6) 1.7331(5) 0.5736(4)
C14A C 0.2794(7) 1.7194(7) 0.5472(4)
H10A H 0.3505 1.6750 0.5926
C15A C 0.3167(7) 1.7724(8) 0.4517(4)
H11A H 0.4132 1.7603 0.4338
C16A C 0.2114(8) 1.8426(7) 0.3841(4)
H12A H 0.2361 1.8796 0.3213
C17A C 0.0689(7) 1.8568(7) 0.4112(4)
H13A H -0.0026 1.9027 0.3661
C18A C 0.0316(6) 1.8032(6) 0.5053(4)
H14A H -0.0647 1.8141 0.5228
C19A C -0.1414(5) 1.6387(6) 0.7302(3)
C20A C -0.2567(6) 1.7657(6) 0.7524(4)
H15A H -0.2384 1.8493 0.7570
C21A C -0.3987(6) 1.7676(6) 0.7676(4)
H16A H -0.4742 1.8531 0.7812
C22A C -0.4287(6) 1.6438(6) 0.7626(4)
H17A H -0.5230 1.6445 0.7744
C23A C -0.3139(6) 1.5178(6) 0.7395(4)
H18A H -0.3319 1.4339 0.7351
C24A C -0.1752(6) 1.5171(6) 0.7232(4)
H19A H -0.1010 1.4325 0.7069
C25A C 0.2183(6) 1.4028(5) 0.5390(4)
H20A H 0.1954 1.4909 0.4969
C26A C 0.3090(6) 1.2770(6) 0.5041(4)
H21A H 0.3470 1.2809 0.4399
C27A C 0.3442(5) 1.1432(5) 0.5652(4)
C28A C 0.4518(5) 1.0045(5) 0.5374(4)
H22A H 0.4517 0.9175 0.5749
C29A C 0.2748(5) 1.1457(5) 0.6591(4)
H23A H 0.2887 1.0585 0.7011
C30A C 0.1868(6) 1.2762(6) 0.6887(4)
H24A H 0.1431 1.2757 0.7514
loop_
_geom_bond_atom_site_label_1
_geom_bond_atom_site_label_2
_geom_bond_site_symmetry_1
_geom_bond_site_symmetry_2
Sn1 O1 1_555 1_555
Fe1 C1 1_555 1_555
O1 C6 1_555 1_555
O2 C6 1_555 1_555
N1 Sn1 1_555 1_555
C1 H1 1_555 1_555
C2 Fe1 1_555 1_555
H2 C2 1_555 1_555
C3 Fe1 1_555 1_555
H3 C3 1_555 1_555
C4 Fe1 1_555 1_555
C5 Fe1 1_555 1_555
H4 C5 1_555 1_555
C6 C4 1_555 1_555
C7 Sn1 1_555 1_555
C8 C7 1_555 1_555
H5 C8 1_555 1_555
C9 C8 1_555 1_555
H6 C9 1_555 1_555
C10 C9 1_555 1_555
H7 C10 1_555 1_555
C11 C10 1_555 1_555
H8 C11 1_555 1_555
C12 C7 1_555 1_555
H9 C12 1_555 1_555
C13 Sn1 1_555 1_555
C14 C13 1_555 1_555
H10 C14 1_555 1_555
C15 C14 1_555 1_555
H11 C15 1_555 1_555
C16 C15 1_555 1_555
H12 C16 1_555 1_555
C17 C16 1_555 1_555
H13 C17 1_555 1_555
C18 C13 1_555 1_555
H14 C18 1_555 1_555
C19 Sn1 1_555 1_555
C20 C19 1_555 1_555
H15 C20 1_555 1_555
C21 C20 1_555 1_555
H16 C21 1_555 1_555
C22 C21 1_555 1_555
H17 C22 1_555 1_555
C23 C22 1_555 1_555
H18 C23 1_555 1_555
C24 C19 1_555 1_555
H19 C24 1_555 1_555
C25 N1 1_555 1_555
H20 C25 1_555 1_555
C26 C25 1_555 1_555
H21 C26 1_555 1_555
C27 C26 1_555 1_555
C28 C27 1_555 1_555
H22 C28 1_555 1_555
C29 C27 1_555 1_555
H23 C29 1_555 1_555
C30 N1 1_555 1_555
H24 C30 1_555 1_555
Sn1A O1A 1_555 1_555
Sn1A_2 O1A_2 1_555 1_555
O1A C6A 1_555 1_555
O2A C6A 1_555 1_555
N1A Sn1A_2 1_555 1_555
C1A Fe1 1_555 1_555
H1A C1A 1_555 1_555
C2A Fe1 1_555 1_555
H2A C2A 1_555 1_555
C3A Fe1 1_555 1_555
H3A C3A 1_555 1_555
C4A Fe1 1_555 1_555
C5A Fe1 1_555 1_555
H4A C5A 1_555 1_555
C6A C4A 1_555 1_555
C7A Sn1A_2 1_555 1_555
C8A C7A 1_555 1_555
H5A C8A 1_555 1_555
C9A C8A 1_555 1_555
H6A C9A 1_555 1_555
C10A C9A 1_555 1_555
H7A C10A 1_555 1_555
C11A C10A 1_555 1_555
H8A C11A 1_555 1_555
C12A C7A 1_555 1_555
H9A C12A 1_555 1_555
C13A Sn1A_2 1_555 1_555
C14A C13A 1_555 1_555
H10A C14A 1_555 1_555
C15A C14A 1_555 1_555
H11A C15A 1_555 1_555
C16A C15A 1_555 1_555
H12A C16A 1_555 1_555
C17A C16A 1_555 1_555
H13A C17A 1_555 1_555
C18A C13A 1_555 1_555
H14A C18A 1_555 1_555
C19A Sn1A_2 1_555 1_555
C20A C19A 1_555 1_555
H15A C20A 1_555 1_555
C21A C20A 1_555 1_555
H16A C21A 1_555 1_555
C22A C21A 1_555 1_555
H17A C22A 1_555 1_555
C23A C22A 1_555 1_555
H18A C23A 1_555 1_555
C24A C19A 1_555 1_555
H19A C24A 1_555 1_555
C25A N1A 1_555 1_555
H20A C25A 1_555 1_555
C26A C25A 1_555 1_555
H21A C26A 1_555 1_555
C27A C26A 1_555 1_555
C28A C28 1_555 1_555
H22A C28A 1_555 1_555
C29A C27A 1_555 1_555
H23A C29A 1_555 1_555
C30A N1A 1_555 1_555
H24A C30A 1_555 1_555
C1 C2 1_555 1_555
C1 C5 1_555 1_555
C2 C3 1_555 1_555
C3 C4 1_555 1_555
C4 C5 1_555 1_555
C11 C12 1_555 1_555
C17 C18 1_555 1_555
C23 C24 1_555 1_555
C29 C30 1_555 1_555
C1A C2A 1_555 1_555
C1A C5A 1_555 1_555
C2A C3A 1_555 1_555
C3A C4A 1_555 1_555
C4A C5A 1_555 1_555
C11A C12A 1_555 1_555
C17A C18A 1_555 1_555
C23A C24A 1_555 1_555
C27A C28A 1_555 1_555
C29A C30A 1_555 1_555

#END
