
#######################################################################
#
#                 Cambridge Crystallographic Data Centre
#                                CCDC 
#
#######################################################################
#
# If this CIF has been generated from an entry in the Cambridge 
# Structural Database, then it will include bibliographic, chemical, 
# crystal, experimental, refinement or atomic coordinate data resulting 
# from the CCDC's data processing and validation procedures.
#
#######################################################################

data_XURXOY
_symmetry_cell_setting           triclinic
_symmetry_space_group_name_H-M   'P -1'
_symmetry_Int_Tables_number      2
_space_group_name_Hall           '-P 1'
loop_
_symmetry_equiv_pos_site_id
_symmetry_equiv_pos_as_xyz
1 x,y,z
2 -x,-y,-z
_cell_length_a                   10.2811(9)
_cell_length_b                   14.0206(12)
_cell_length_c                   20.0124(17)
_cell_angle_alpha                81.910(2)
_cell_angle_beta                 81.559(2)
_cell_angle_gamma                72.000(2)
_cell_volume                     2699.84
loop_
_atom_site_label
_atom_site_type_symbol
_atom_site_fract_x
_atom_site_fract_y
_atom_site_fract_z
Sn1 Sn 0.89567(4) 0.24744(3) 0.083808(18)
Sn2 Sn 0.88791(4) -0.20054(3) -0.568600(18)
Fe1 Fe 0.86875(9) 0.51693(6) 0.26366(4)
O1 O 0.9498(4) 0.2888(3) 0.17226(18)
O2 O 0.7248(4) 0.3266(3) 0.2066(2)
O3 O 0.9135(4) 0.7229(3) 0.34480(19)
O4 O 0.6846(4) 0.7650(3) 0.3442(2)
N1 N 0.8506(5) -0.1040(4) -0.4584(2)
N2 N 0.8317(5) 0.1984(3) -0.0248(2)
C1 C 0.7898(7) -0.0051(4) -0.4625(3)
H1 H 0.7936 0.0313 -0.5049
C2 C 0.7219(6) 0.0466(4) -0.4082(3)
H2 H 0.6801 0.1157 -0.4147
C3 C 0.7157(6) -0.0042(5) -0.3437(3)
C4 C 0.7842(6) -0.1065(4) -0.3382(3)
H3 H 0.7873 -0.1438 -0.2959
C5 C 0.8478(6) -0.1527(4) -0.3958(3)
H4 H 0.8913 -0.2218 -0.3909
C6 C 0.6338(6) 0.0496(5) -0.2846(3)
H5 H 0.5768 0.0097 -0.2598
H6 H 0.5730 0.1135 -0.3017
C7 C 0.7216(6) 0.0699(4) -0.2349(3)
H7 H 0.7811 0.0064 -0.2165
H8 H 0.7794 0.1095 -0.2593
C8 C 0.6301(6) 0.1267(5) -0.1766(3)
H9 H 0.5701 0.1894 -0.1958
H10 H 0.5722 0.0866 -0.1531
C9 C 0.7058(6) 0.1502(4) -0.1258(3)
C10 C 0.7227(7) 0.2447(5) -0.1276(3)
H11 H 0.6922 0.2941 -0.1626
C11 C 0.7856(7) 0.2651(4) -0.0765(3)
H12 H 0.7959 0.3291 -0.0787
C12 C 0.8200(6) 0.1055(4) -0.0243(3)
H13 H 0.8548 0.0567 0.0103
C13 C 0.7586(5) 0.0793(4) -0.0728(3)
H14 H 0.7523 0.0141 -0.0702
C14 C 1.1083(5) 0.2021(4) 0.0449(3)
C15 C 1.2081(6) 0.1861(4) 0.0886(3)
H15 H 1.1824 0.1975 0.1340
C16 C 1.3454(6) 0.1533(4) 0.0641(3)
H16 H 1.4109 0.1432 0.0939
C17 C 1.3891(7) 0.1350(5) -0.0012(4)
H17 H 1.4825 0.1120 -0.0158
C18 C 1.2927(7) 0.1511(6) -0.0456(4)
H18 H 1.3212 0.1401 -0.0909
C19 C 1.1544(6) 0.1833(5) -0.0237(3)
H19 H 1.0904 0.1928 -0.0543
C20 C 0.7831(6) 0.3955(4) 0.0494(3)
C21 C 0.8487(7) 0.4561(4) 0.0063(3)
H20 H 0.9410 0.4299 -0.0095
C22 C 0.7792(8) 0.5561(5) -0.0141(4)
H21 H 0.8247 0.5959 -0.0435
C23 C 0.6415(9) 0.5958(5) 0.0098(4)
H22 H 0.5948 0.6625 -0.0033
C24 C 0.5747(8) 0.5365(5) 0.0526(4)
H23 H 0.4826 0.5634 0.0685
C25 C 0.6425(6) 0.4375(5) 0.0724(3)
H24 H 0.5955 0.3979 0.1010
C26 C 0.8232(6) 0.1258(4) 0.1320(2)
C27 C 0.6888(6) 0.1262(5) 0.1396(3)
H25 H 0.6224 0.1831 0.1231
C28 C 0.6501(7) 0.0447(5) 0.1708(4)
H26 H 0.5582 0.0467 0.1744
C29 C 0.7440(8) -0.0402(5) 0.1971(3)
H27 H 0.7155 -0.0942 0.2195
C30 C 0.8803(8) -0.0443(5) 0.1898(3)
H28 H 0.9460 -0.1016 0.2062
C31 C 0.9179(7) 0.0391(4) 0.1576(3)
H29 H 1.0101 0.0368 0.1529
C32 C 0.8425(6) 0.3262(4) 0.2137(3)
C33 C 0.8668(6) 0.3711(4) 0.2715(3)
C34 C 0.7624(7) 0.4253(4) 0.3192(3)
H30 H 0.6634 0.4349 0.3218
C35 C 0.8296(8) 0.4621(5) 0.3623(3)
H31 H 0.7831 0.5035 0.3993
C36 C 0.9720(7) 0.4336(4) 0.3428(3)
H32 H 1.0415 0.4499 0.3640
C37 C 0.9966(6) 0.3770(4) 0.2859(3)
H33 H 1.0865 0.3469 0.2612
C38 C 0.9623(8) 0.6245(5) 0.2243(3)
H34 H 1.0501 0.6281 0.2356
C39 C 0.9451(10) 0.5730(5) 0.1713(3)
H35 H 1.0184 0.5350 0.1396
C40 C 0.8039(9) 0.5876(5) 0.1724(3)
H36 H 0.7624 0.5595 0.1419
C41 C 0.7308(8) 0.6443(5) 0.2262(3)
H37 H 0.6309 0.6645 0.2383
C42 C 0.8300(7) 0.6683(4) 0.2589(3)
C43 C 0.8012(7) 0.7240(4) 0.3204(3)
C44 C 1.1065(6) -0.2499(4) -0.5653(3)
C45 C 1.1644(6) -0.2615(5) -0.5052(3)
H38 H 1.1080 -0.2444 -0.4653
C46 C 1.3057(7) -0.2985(5) -0.5043(4)
H39 H 1.3428 -0.3064 -0.4635
C47 C 1.3925(7) -0.3239(5) -0.5626(4)
H40 H 1.4873 -0.3488 -0.5619
C48 C 1.3347(6) -0.3112(5) -0.6208(4)
H41 H 1.3924 -0.3264 -0.6606
C49 C 1.1931(7) -0.2766(4) -0.6245(3)
H42 H 1.1574 -0.2715 -0.6654
C50 C 0.8039(5) -0.0539(4) -0.6149(2)
C51 C 0.8904(6) 0.0057(4) -0.6389(3)
H43 H 0.9836 -0.0203 -0.6338
C52 C 0.8414(6) 0.1025(4) -0.6700(3)
H44 H 0.9012 0.1407 -0.6861
C53 C 0.7025(6) 0.1417(4) -0.6770(3)
H45 H 0.6683 0.2070 -0.6973
C54 C 0.6144(6) 0.0843(4) -0.6542(3)
H46 H 0.5212 0.1105 -0.6594
C55 C 0.6652(6) -0.0128(4) -0.6232(3)
H47 H 0.6052 -0.0511 -0.6078
C56 C 0.7794(6) -0.2905(4) -0.5029(3)
C57 C 0.6564(6) -0.2508(5) -0.4625(3)
H48 H 0.6182 -0.1813 -0.4630
C58 C 0.5917(6) -0.3140(5) -0.4221(3)
H49 H 0.5104 -0.2867 -0.3951
C59 C 0.6454(7) -0.4177(5) -0.4209(3)
H50 H 0.6001 -0.4599 -0.3939
C60 C 0.7668(7) -0.4574(5) -0.4603(3)
H51 H 0.8045 -0.5269 -0.4597
C61 C 0.8326(6) -0.3940(4) -0.5005(3)
H52 H 0.9149 -0.4218 -0.5267
Sn2_2 Sn 0.88791(4) 0.79946(3) 0.431400(18)
O3_2 O 0.9135(4) -0.2771(3) -0.65520(19)
Cl1 Cl 0.6562(2) 0.6707(2) 0.81984(12)
Cl2 Cl 0.6460(3) 0.49113(19) 0.76563(16)
C62 C 0.5980(7) 0.6211(6) 0.7585(3)
H53 H 0.4984 0.6464 0.7620
H54 H 0.6334 0.6452 0.7138
loop_
_geom_bond_atom_site_label_1
_geom_bond_atom_site_label_2
_geom_bond_site_symmetry_1
_geom_bond_site_symmetry_2
Sn1 O1 1_555 1_555
Sn2 N1 1_555 1_555
Fe1 C33 1_555 1_555
O1 C32 1_555 1_555
O2 C32 1_555 1_555
O3 C43 1_555 1_555
O4 C43 1_555 1_555
N1 C1 1_555 1_555
N2 Sn1 1_555 1_555
C1 H1 1_555 1_555
C2 C1 1_555 1_555
H2 C2 1_555 1_555
C3 C2 1_555 1_555
C4 C3 1_555 1_555
H3 C4 1_555 1_555
C5 N1 1_555 1_555
H4 C5 1_555 1_555
C6 C3 1_555 1_555
H5 C6 1_555 1_555
H6 C6 1_555 1_555
C7 C6 1_555 1_555
H7 C7 1_555 1_555
H8 C7 1_555 1_555
C8 C7 1_555 1_555
H9 C8 1_555 1_555
H10 C8 1_555 1_555
C9 C8 1_555 1_555
C10 C9 1_555 1_555
H11 C10 1_555 1_555
C11 N2 1_555 1_555
H12 C11 1_555 1_555
C12 N2 1_555 1_555
H13 C12 1_555 1_555
C13 C9 1_555 1_555
H14 C13 1_555 1_555
C14 Sn1 1_555 1_555
C15 C14 1_555 1_555
H15 C15 1_555 1_555
C16 C15 1_555 1_555
H16 C16 1_555 1_555
C17 C16 1_555 1_555
H17 C17 1_555 1_555
C18 C17 1_555 1_555
H18 C18 1_555 1_555
C19 C14 1_555 1_555
H19 C19 1_555 1_555
C20 Sn1 1_555 1_555
C21 C20 1_555 1_555
H20 C21 1_555 1_555
C22 C21 1_555 1_555
H21 C22 1_555 1_555
C23 C22 1_555 1_555
H22 C23 1_555 1_555
C24 C23 1_555 1_555
H23 C24 1_555 1_555
C25 C20 1_555 1_555
H24 C25 1_555 1_555
C26 Sn1 1_555 1_555
C27 C26 1_555 1_555
H25 C27 1_555 1_555
C28 C27 1_555 1_555
H26 C28 1_555 1_555
C29 C28 1_555 1_555
H27 C29 1_555 1_555
C30 C29 1_555 1_555
H28 C30 1_555 1_555
C31 C26 1_555 1_555
H29 C31 1_555 1_555
C32 C33 1_555 1_555
C33 C34 1_555 1_555
C34 Fe1 1_555 1_555
H30 C34 1_555 1_555
C35 Fe1 1_555 1_555
H31 C35 1_555 1_555
C36 Fe1 1_555 1_555
H32 C36 1_555 1_555
C37 Fe1 1_555 1_555
H33 C37 1_555 1_555
C38 Fe1 1_555 1_555
H34 C38 1_555 1_555
C39 Fe1 1_555 1_555
H35 C39 1_555 1_555
C40 Fe1 1_555 1_555
H36 C40 1_555 1_555
C41 Fe1 1_555 1_555
H37 C41 1_555 1_555
C42 Fe1 1_555 1_555
C43 C42 1_555 1_555
C44 Sn2 1_555 1_555
C45 C44 1_555 1_555
H38 C45 1_555 1_555
C46 C45 1_555 1_555
H39 C46 1_555 1_555
C47 C46 1_555 1_555
H40 C47 1_555 1_555
C48 C47 1_555 1_555
H41 C48 1_555 1_555
C49 C44 1_555 1_555
H42 C49 1_555 1_555
C50 Sn2 1_555 1_555
C51 C50 1_555 1_555
H43 C51 1_555 1_555
C52 C51 1_555 1_555
H44 C52 1_555 1_555
C53 C52 1_555 1_555
H45 C53 1_555 1_555
C54 C53 1_555 1_555
H46 C54 1_555 1_555
C55 C50 1_555 1_555
H47 C55 1_555 1_555
C56 Sn2 1_555 1_555
C57 C56 1_555 1_555
H48 C57 1_555 1_555
C58 C57 1_555 1_555
H49 C58 1_555 1_555
C59 C58 1_555 1_555
H50 C59 1_555 1_555
C60 C59 1_555 1_555
H51 C60 1_555 1_555
C61 C56 1_555 1_555
H52 C61 1_555 1_555
Cl1 C62 1_555 1_555
Cl2 C62 1_555 1_555
C62 H53 1_555 1_555
H54 C62 1_555 1_555
Sn2_2 O3 1_555 1_555
O3_2 Sn2 1_555 1_555
C4 C5 1_555 1_555
C10 C11 1_555 1_555
C12 C13 1_555 1_555
C18 C19 1_555 1_555
C24 C25 1_555 1_555
C30 C31 1_555 1_555
C33 C37 1_555 1_555
C34 C35 1_555 1_555
C35 C36 1_555 1_555
C36 C37 1_555 1_555
C38 C39 1_555 1_555
C38 C42 1_555 1_555
C39 C40 1_555 1_555
C40 C41 1_555 1_555
C41 C42 1_555 1_555
C48 C49 1_555 1_555
C54 C55 1_555 1_555
C60 C61 1_555 1_555

#END
