
#######################################################################
#
#                 Cambridge Crystallographic Data Centre
#                                CCDC 
#
#######################################################################
#
# If this CIF has been generated from an entry in the Cambridge 
# Structural Database, then it will include bibliographic, chemical, 
# crystal, experimental, refinement or atomic coordinate data resulting 
# from the CCDC's data processing and validation procedures.
#
#######################################################################

data_XURYAL
_symmetry_cell_setting           monoclinic
_symmetry_space_group_name_H-M   'C 2/c'
_symmetry_Int_Tables_number      15
_space_group_name_Hall           '-C 2yn'
loop_
_symmetry_equiv_pos_site_id
_symmetry_equiv_pos_as_xyz
1 x,y,z
2 -x,y,1/2-z
3 1/2+x,1/2+y,z
4 1/2-x,1/2+y,1/2-z
5 -x,-y,-z
6 x,-y,1/2+z
7 1/2-x,1/2-y,-z
8 1/2+x,1/2-y,1/2+z
_cell_length_a                   18.638(5)
_cell_length_b                   9.995(5)
_cell_length_c                   12.290(5)
_cell_angle_alpha                90
_cell_angle_beta                 100.667(5)
_cell_angle_gamma                90
_cell_volume                     2249.9
loop_
_atom_site_label
_atom_site_type_symbol
_atom_site_fract_x
_atom_site_fract_y
_atom_site_fract_z
Sn1 Sn 0.287833(15) 0.17350(3) 0.74591(3)
Fe1 Fe 0.5000 -0.23405(9) 0.7500
O1 O 0.36196(16) 0.0330(3) 0.6959(3)
O2 O 0.29355(16) -0.1442(3) 0.7099(3)
C1 C 0.3661(3) 0.3256(5) 0.7435(7)
H1 H 0.3577 0.3678 0.6721
H2 H 0.4142 0.2873 0.7580
H3 H 0.3620 0.3909 0.7993
C2 C 0.2041(3) 0.1453(6) 0.6073(4)
H4 H 0.1967 0.2267 0.5653
H5 H 0.1598 0.1213 0.6317
H6 H 0.2177 0.0751 0.5619
C3 C 0.2856(3) 0.0902(6) 0.9027(4)
H7 H 0.2452 0.0293 0.8971
H8 H 0.2800 0.1604 0.9539
H9 H 0.3303 0.0431 0.9286
C4 C 0.3492(2) -0.0927(4) 0.6886(3)
C5 C 0.4067(2) -0.1713(4) 0.6501(4)
C6 C 0.4687(2) -0.1162(6) 0.6146(4)
H10 H 0.4795 -0.0208 0.6088
C7 C 0.5111(3) -0.2233(7) 0.5877(4)
H11 H 0.5574 -0.2149 0.5613
C8 C 0.4771(3) -0.3439(6) 0.6063(5)
H12 H 0.4954 -0.4338 0.5952
C9 C 0.4128(3) -0.3135(5) 0.6448(5)
H13 H 0.3780 -0.3785 0.6646
Sn1A Sn 0.712167(15) 0.17350(3) 0.75409(3)
Sn1C Sn 0.212167(15) -0.32650(3) 0.75409(3)
Sn1B Sn 0.787833(15) -0.32650(3) 0.74591(3)
O1A O 0.63804(16) 0.0330(3) 0.8041(3)
O2A O 0.70645(16) -0.1442(3) 0.7901(3)
O2C O 0.20645(16) 0.3558(3) 0.7901(3)
O2B O 0.79355(16) 0.3558(3) 0.7099(3)
C1A C 0.6339(3) 0.3256(5) 0.7565(7)
H1A H 0.6423 0.3678 0.8279
H2A H 0.5858 0.2873 0.7420
H3A H 0.6380 0.3909 0.7007
C2A C 0.7959(3) 0.1453(6) 0.8927(4)
H4A H 0.8033 0.2267 0.9347
H5A H 0.8402 0.1213 0.8683
H6A H 0.7823 0.0751 0.9381
C3A C 0.7144(3) 0.0902(6) 0.5973(4)
H7A H 0.7548 0.0293 0.6029
H8A H 0.7200 0.1604 0.5461
H9A H 0.6697 0.0431 0.5714
C4A C 0.6508(2) -0.0927(4) 0.8114(3)
C5A C 0.5933(2) -0.1713(4) 0.8499(4)
C6A C 0.5313(2) -0.1162(6) 0.8854(4)
H10A H 0.5205 -0.0208 0.8912
C7A C 0.4889(3) -0.2233(7) 0.9123(4)
H11A H 0.4426 -0.2149 0.9387
C8A C 0.5229(3) -0.3439(6) 0.8937(5)
H12A H 0.5046 -0.4338 0.9048
C9A C 0.5872(3) -0.3135(5) 0.8552(5)
H13A H 0.6220 -0.3785 0.8354
loop_
_geom_bond_atom_site_label_1
_geom_bond_atom_site_label_2
_geom_bond_site_symmetry_1
_geom_bond_site_symmetry_2
Sn1 O1 1_555 1_555
Fe1 C5 1_555 1_555
O1 C4 1_555 1_555
O2 C4 1_555 1_555
C1 Sn1 1_555 1_555
H1 C1 1_555 1_555
H2 C1 1_555 1_555
H3 C1 1_555 1_555
C2 Sn1 1_555 1_555
H4 C2 1_555 1_555
H5 C2 1_555 1_555
H6 C2 1_555 1_555
C3 Sn1 1_555 1_555
H7 C3 1_555 1_555
H8 C3 1_555 1_555
H9 C3 1_555 1_555
C4 C5 1_555 1_555
C5 C6 1_555 1_555
C6 Fe1 1_555 1_555
H10 C6 1_555 1_555
C7 Fe1 1_555 1_555
H11 C7 1_555 1_555
C8 Fe1 1_555 1_555
H12 C8 1_555 1_555
C9 Fe1 1_555 1_555
H13 C9 1_555 1_555
Sn1A O1A 1_555 1_555
Sn1C O2 1_555 1_555
Sn1B O2A 1_555 1_555
O1A C4A 1_555 1_555
O2A C4A 1_555 1_555
O2C Sn1 1_555 1_555
O2B Sn1A 1_555 1_555
C1A Sn1A 1_555 1_555
H1A C1A 1_555 1_555
H2A C1A 1_555 1_555
H3A C1A 1_555 1_555
C2A Sn1A 1_555 1_555
H4A C2A 1_555 1_555
H5A C2A 1_555 1_555
H6A C2A 1_555 1_555
C3A Sn1A 1_555 1_555
H7A C3A 1_555 1_555
H8A C3A 1_555 1_555
H9A C3A 1_555 1_555
C4A C5A 1_555 1_555
C5A Fe1 1_555 1_555
C6A Fe1 1_555 1_555
H10A C6A 1_555 1_555
C7A Fe1 1_555 1_555
H11A C7A 1_555 1_555
C8A Fe1 1_555 1_555
H12A C8A 1_555 1_555
C9A Fe1 1_555 1_555
H13A C9A 1_555 1_555
C5 C9 1_555 1_555
C6 C7 1_555 1_555
C7 C8 1_555 1_555
C8 C9 1_555 1_555
C5A C6A 1_555 1_555
C5A C9A 1_555 1_555
C6A C7A 1_555 1_555
C7A C8A 1_555 1_555
C8A C9A 1_555 1_555

#END
