
#######################################################################
#
#                 Cambridge Crystallographic Data Centre
#                                CCDC 
#
#######################################################################
#
# If this CIF has been generated from an entry in the Cambridge 
# Structural Database, then it will include bibliographic, chemical, 
# crystal, experimental, refinement or atomic coordinate data resulting 
# from the CCDC's data processing and validation procedures.
#
#######################################################################

data_XUSDUL
_symmetry_cell_setting           monoclinic
_symmetry_space_group_name_H-M   'P 21/n'
_symmetry_Int_Tables_number      14
_space_group_name_Hall           '-P 2yn'
loop_
_symmetry_equiv_pos_site_id
_symmetry_equiv_pos_as_xyz
1 x,y,z
2 1/2-x,1/2+y,1/2-z
3 -x,-y,-z
4 1/2+x,1/2-y,1/2+z
_cell_length_a                   12.604(2)
_cell_length_b                   11.354(2)
_cell_length_c                   17.447(3)
_cell_angle_alpha                90
_cell_angle_beta                 104.80(1)
_cell_angle_gamma                90
_cell_volume                     2413.93
loop_
_atom_site_label
_atom_site_type_symbol
_atom_site_fract_x
_atom_site_fract_y
_atom_site_fract_z
Ag1 Ag 0.20270(3) 0.10685(3) 0.15759(2)
N1 N 0.1686(3) 0.2157(3) 0.0416(2)
C1 C 0.2478(4) 0.2312(4) 0.0040(3)
C2 C 0.2329(4) 0.3039(5) -0.0608(3)
H1 H 0.2884 0.3136 -0.0865
C3 C 0.1349(5) 0.3621(5) -0.0869(3)
H2 H 0.1230 0.4104 -0.1314
C4 C 0.0542(4) 0.3488(5) -0.0472(3)
H3 H -0.0122 0.3887 -0.0638
C5 C 0.0737(4) 0.2756(4) 0.0173(3)
C6 C -0.0085(4) 0.2535(4) 0.0659(3)
H4 H -0.0633 0.3167 0.0550
C7 C -0.0672(4) 0.1360(5) 0.0433(4)
H5 H -0.1160 0.1273 0.0772
H6 H -0.1088 0.1340 -0.0111
H7 H -0.0149 0.0729 0.0530
N2 N 0.0472(3) 0.2551(3) 0.1504(2)
H8 H 0.0100 0.2080 0.1761
C8 C 0.0730(4) 0.3738(4) 0.1820(3)
H9 H 0.0057 0.4192 0.1727
H10 H 0.1206 0.4118 0.1538
C9 C 0.1286(4) 0.3744(4) 0.2700(3)
H11 H 0.1207 0.4522 0.2908
H12 H 0.0906 0.3193 0.2962
C10 C 0.2488(4) 0.3429(4) 0.2911(3)
H13 H 0.2720 0.3222 0.3469
H14 H 0.2596 0.2745 0.2607
N3 N 0.3171(3) 0.4403(3) 0.2753(2)
H15 H 0.2980 0.4604 0.2197
C11 C 0.4345(4) 0.4076(4) 0.2860(3)
H16 H 0.4682 0.3993 0.3423
H17 H 0.4712 0.4720 0.2667
C12 C 0.4548(4) 0.2945(4) 0.2444(3)
H18 H 0.5333 0.2815 0.2557
H19 H 0.4235 0.2291 0.2669
C13 C 0.4084(4) 0.2928(4) 0.1556(3)
H20 H 0.3423 0.3403 0.1418
H21 H 0.4612 0.3273 0.1303
N4 N 0.3825(3) 0.1724(3) 0.1256(2)
H22 H 0.4630 0.1431 0.1462
C14 C 0.3543(4) 0.1660(4) 0.0388(3)
H23 H 0.4133 0.2020 0.0195
C15 C 0.3432(5) 0.0351(5) 0.0145(3)
H24 H 0.4091 -0.0069 0.0395
H25 H 0.2822 0.0010 0.0300
H26 H 0.3308 0.0302 -0.0420
Ag1A Ag 0.29730(3) 0.60685(3) 0.34241(2)
N3A N 0.1829(3) -0.0597(3) 0.2247(2)
H15A H 0.2020 -0.0396 0.2803
O1 O 0.8993(3) 0.1812(3) 0.2483(2)
N5 N 0.8366(3) 0.0930(4) 0.2530(3)
C16 C 0.7363(4) 0.0939(4) 0.2055(3)
C17 C 0.6959(4) 0.1841(5) 0.1485(3)
N6 N 0.6635(5) 0.2564(5) 0.1031(3)
C18 C 0.6616(4) -0.0052(4) 0.2083(3)
O2 O 0.5678(3) -0.0060(3) 0.1656(2)
N7 N 0.7019(4) -0.0904(4) 0.2582(3)
H27 H 0.6681 -0.1446 0.2722
H28 H 0.7723 -0.0798 0.2825
C19 C 0.0602(6) 0.1295(8) 0.4265(4)
H29 H 0.0645 0.1670 0.4764
H30 H 0.0265 0.0535 0.4257
H31 H 0.0171 0.1771 0.3845
C20 C 0.1636(6) 0.1021(6) 0.4100(4)
N8 N 0.2421(6) 0.0798(5) 0.3945(4)
loop_
_geom_bond_atom_site_label_1
_geom_bond_atom_site_label_2
_geom_bond_site_symmetry_1
_geom_bond_site_symmetry_2
Ag1 N1 1_555 1_555
N1 C1 1_555 1_555
C1 C2 1_555 1_555
C2 H1 1_555 1_555
C3 C2 1_555 1_555
H2 C3 1_555 1_555
C4 C3 1_555 1_555
H3 C4 1_555 1_555
C5 N1 1_555 1_555
C6 C5 1_555 1_555
H4 C6 1_555 1_555
C7 C6 1_555 1_555
H5 C7 1_555 1_555
H6 C7 1_555 1_555
H7 C7 1_555 1_555
N2 Ag1 1_555 1_555
H8 N2 1_555 1_555
C8 N2 1_555 1_555
H9 C8 1_555 1_555
H10 C8 1_555 1_555
C9 C8 1_555 1_555
H11 C9 1_555 1_555
H12 C9 1_555 1_555
C10 C9 1_555 1_555
H13 C10 1_555 1_555
H14 C10 1_555 1_555
N3 C10 1_555 1_555
H15 N3 1_555 1_555
C11 N3 1_555 1_555
H16 C11 1_555 1_555
H17 C11 1_555 1_555
C12 C11 1_555 1_555
H18 C12 1_555 1_555
H19 C12 1_555 1_555
C13 C12 1_555 1_555
H20 C13 1_555 1_555
H21 C13 1_555 1_555
N4 Ag1 1_555 1_555
H22 N4 1_555 1_555
C14 C1 1_555 1_555
H23 C14 1_555 1_555
C15 C14 1_555 1_555
H24 C15 1_555 1_555
H25 C15 1_555 1_555
H26 C15 1_555 1_555
O1 N5 1_555 1_555
N5 C16 1_555 1_555
C16 C17 1_555 1_555
C17 N6 1_555 1_555
C18 C16 1_555 1_555
O2 C18 1_555 1_555
N7 C18 1_555 1_555
H27 N7 1_555 1_555
H28 N7 1_555 1_555
C19 H29 1_555 1_555
H30 C19 1_555 1_555
H31 C19 1_555 1_555
C20 C19 1_555 1_555
N8 C20 1_555 1_555
Ag1A N3 1_555 1_555
N3A Ag1 1_555 1_555
H15A N3A 1_555 1_555
C4 C5 1_555 1_555
C6 N2 1_555 1_555
C13 N4 1_555 1_555
N4 C14 1_555 1_555

#END
