
#######################################################################
#
#                 Cambridge Crystallographic Data Centre
#                                CCDC 
#
#######################################################################
#
# If this CIF has been generated from an entry in the Cambridge 
# Structural Database, then it will include bibliographic, chemical, 
# crystal, experimental, refinement or atomic coordinate data resulting 
# from the CCDC's data processing and validation procedures.
#
#######################################################################

data_XUSKUS
_symmetry_cell_setting           triclinic
_symmetry_space_group_name_H-M   'P -1'
_symmetry_Int_Tables_number      2
_space_group_name_Hall           '-P 1'
loop_
_symmetry_equiv_pos_site_id
_symmetry_equiv_pos_as_xyz
1 x,y,z
2 -x,-y,-z
_cell_length_a                   9.393(6)
_cell_length_b                   10.437(5)
_cell_length_c                   14.206(6)
_cell_angle_alpha                91.074(14)
_cell_angle_beta                 92.744(19)
_cell_angle_gamma                107.485(18)
_cell_volume                     1326.01
loop_
_atom_site_label
_atom_site_type_symbol
_atom_site_fract_x
_atom_site_fract_y
_atom_site_fract_z
C1 C 0.4257(6) 0.3262(5) 1.1296(3)
H1 H 0.4447 0.4222 1.1240
H2 H 0.3186 0.2864 1.1327
C2 C 0.4985(7) 0.3032(6) 1.2205(4)
H3 H 0.6061 0.3381 1.2168
H4 H 0.4737 0.2072 1.2292
C3 C 0.4530(9) 0.3682(8) 1.3055(4)
H5 H 0.4740 0.4636 1.2957
H6 H 0.3460 0.3305 1.3108
C4 C 0.5307(11) 0.3497(10) 1.3956(5)
H7 H 0.4969 0.3929 1.4465
H8 H 0.6366 0.3889 1.3917
H9 H 0.5087 0.2555 1.4067
C5 C 0.5662(6) 0.2629(5) 0.8660(3)
H10 H 0.5673 0.3498 0.8425
H11 H 0.6685 0.2597 0.8689
C6 C 0.4777(7) 0.1580(6) 0.7972(4)
H12 H 0.3742 0.1576 0.7966
H13 H 0.4814 0.0713 0.8186
C7 C 0.5273(9) 0.1737(7) 0.6992(4)
H14 H 0.5285 0.2625 0.6795
H15 H 0.6293 0.1701 0.6998
C8 C 0.4375(11) 0.0746(9) 0.6277(5)
H16 H 0.4801 0.0938 0.5675
H17 H 0.3369 0.0794 0.6239
H18 H 0.4371 -0.0140 0.6450
C9 C 0.8915(5) 0.5854(5) 1.1725(3)
C10 C 1.0938(8) 0.5563(7) 1.2679(5)
H19 H 1.1771 0.5257 1.2736
C11 C 1.0161(7) 0.5434(6) 1.1805(4)
H20 H 1.0484 0.5069 1.1284
C12 C 1.0521(8) 0.6119(8) 1.3453(5)
C13 C 0.9274(9) 0.6503(8) 1.3355(5)
H21 H 0.8941 0.6850 1.3880
C14 C 0.8475(7) 0.6399(7) 1.2498(4)
H22 H 0.7639 0.6700 1.2449
C15 C 1.1433(9) 0.6310(10) 1.4395(5)
H23 H 1.2279 0.5986 1.4329
H24 H 1.0819 0.5817 1.4868
H25 H 1.1774 0.7248 1.4578
C16 C 0.1213(6) -0.0901(5) 0.8445(4)
C17 C 0.1198(8) -0.1802(7) 0.7745(5)
H26 H 0.1755 -0.2398 0.7815
C18 C 0.0332(10) -0.1822(9) 0.6916(6)
H27 H 0.0308 -0.2431 0.6425
C19 C -0.0458(8) -0.0962(8) 0.6835(5)
C20 C -0.0506(9) -0.0095(8) 0.7544(6)
H28 H -0.1110 0.0463 0.7479
C21 C 0.0357(8) -0.0054(7) 0.8366(5)
H29 H 0.0355 0.0543 0.8860
As1 As 0.24736(5) -0.07563(4) 0.95568(4)
N1 N -0.1330(9) -0.0974(11) 0.5929(6)
O1 O 0.7369(4) 0.4273(3) 1.0369(3)
O2 O 0.6749(4) 0.6292(3) 1.0745(2)
O3 O 0.9020(4) 0.6406(4) 0.9968(2)
O4 O 0.3001(4) 0.0825(3) 0.9955(3)
O5 O 0.3874(4) -0.1349(3) 0.9303(2)
O6 O 0.1472(4) -0.1612(3) 1.0441(2)
H30 H 0.1168 -0.2416 1.0294
O7 O -0.2012(11) -0.0128(10) 0.5893(6)
O8 O -0.1384(9) -0.1815(12) 0.5339(5)
S1 S 0.79393(14) 0.57058(11) 1.06181(8)
Sn1 Sn 0.49182(4) 0.25053(3) 1.00568(2)
O2A O 0.3251(4) 0.3708(3) 0.9255(2)
O5A O 0.6126(4) 0.1349(3) 1.0697(2)
Sn1A Sn 0.50818(4) 0.74947(3) 0.99432(2)
Sn1A_2 Sn 0.50818(4) -0.25053(3) 0.99432(2)
loop_
_geom_bond_atom_site_label_1
_geom_bond_atom_site_label_2
_geom_bond_site_symmetry_1
_geom_bond_site_symmetry_2
C1 H1 1_555 1_555
H2 C1 1_555 1_555
C2 C1 1_555 1_555
H3 C2 1_555 1_555
H4 C2 1_555 1_555
C3 C2 1_555 1_555
H5 C3 1_555 1_555
H6 C3 1_555 1_555
C4 C3 1_555 1_555
H7 C4 1_555 1_555
H8 C4 1_555 1_555
H9 C4 1_555 1_555
C5 H10 1_555 1_555
H11 C5 1_555 1_555
C6 C5 1_555 1_555
H12 C6 1_555 1_555
H13 C6 1_555 1_555
C7 C6 1_555 1_555
H14 C7 1_555 1_555
H15 C7 1_555 1_555
C8 C7 1_555 1_555
H16 C8 1_555 1_555
H17 C8 1_555 1_555
H18 C8 1_555 1_555
C9 C11 1_555 1_555
C10 H19 1_555 1_555
C11 C10 1_555 1_555
H20 C11 1_555 1_555
C12 C10 1_555 1_555
C13 C12 1_555 1_555
H21 C13 1_555 1_555
C14 C9 1_555 1_555
H22 C14 1_555 1_555
C15 C12 1_555 1_555
H23 C15 1_555 1_555
H24 C15 1_555 1_555
H25 C15 1_555 1_555
C16 C17 1_555 1_555
C17 H26 1_555 1_555
C18 C17 1_555 1_555
H27 C18 1_555 1_555
C19 C18 1_555 1_555
C20 C19 1_555 1_555
H28 C20 1_555 1_555
C21 C16 1_555 1_555
H29 C21 1_555 1_555
As1 C16 1_555 1_555
N1 C19 1_555 1_555
O1 S1 1_555 1_555
O2 S1 1_555 1_555
O3 S1 1_555 1_555
O4 As1 1_555 1_555
O5 As1 1_555 1_555
O6 As1 1_555 1_555
H30 O6 1_555 1_555
O7 N1 1_555 1_555
O8 N1 1_555 1_555
S1 C9 1_555 1_555
Sn1 C1 1_555 1_555
O2A Sn1 1_555 1_555
O5A Sn1 1_555 1_555
Sn1A O2 1_555 1_555
Sn1A_2 O5 1_555 1_555
C5 Sn1 1_555 1_555
C13 C14 1_555 1_555
C20 C21 1_555 1_555
O1 Sn1 1_555 1_555
O4 Sn1 1_555 1_555

#END
