
#######################################################################
#
#                 Cambridge Crystallographic Data Centre
#                                CCDC 
#
#######################################################################
#
# If this CIF has been generated from an entry in the Cambridge 
# Structural Database, then it will include bibliographic, chemical, 
# crystal, experimental, refinement or atomic coordinate data resulting 
# from the CCDC's data processing and validation procedures.
#
#######################################################################

data_XUSLAZ
_symmetry_cell_setting           triclinic
_symmetry_space_group_name_H-M   'P -1'
_symmetry_Int_Tables_number      2
_space_group_name_Hall           '-P 1'
loop_
_symmetry_equiv_pos_site_id
_symmetry_equiv_pos_as_xyz
1 x,y,z
2 -x,-y,-z
_cell_length_a                   12.806(3)
_cell_length_b                   14.635(4)
_cell_length_c                   23.623(7)
_cell_angle_alpha                80.774(11)
_cell_angle_beta                 88.419(10)
_cell_angle_gamma                65.454(10)
_cell_volume                     3971.37
loop_
_atom_site_label
_atom_site_type_symbol
_atom_site_fract_x
_atom_site_fract_y
_atom_site_fract_z
C1 C 0.5669(6) 0.2586(5) 0.9356(2)
C2 C 0.6484(6) 0.2246(5) 0.9807(3)
H1 H 0.7167 0.1672 0.9798
C3 C 0.6280(9) 0.2764(8) 1.0271(3)
H2 H 0.6825 0.2537 1.0573
C4 C 0.5260(10) 0.3623(8) 1.0285(4)
H3 H 0.5123 0.3970 1.0595
C5 C 0.4444(8) 0.3963(8) 0.9834(5)
H4 H 0.3762 0.4537 0.9843
C6 C 0.4649(6) 0.3444(7) 0.9370(4)
H5 H 0.4103 0.3672 0.9068
C7 C 0.7352(5) 0.1380(5) 0.8202(3)
C8 C 0.7685(7) 0.0483(5) 0.7978(3)
H6 H 0.7266 0.0091 0.8051
C9 C 0.8645(8) 0.0170(6) 0.7646(4)
H7 H 0.8868 -0.0430 0.7496
C10 C 0.9272(7) 0.0755(8) 0.7537(4)
H8 H 0.9915 0.0546 0.7315
C11 C 0.8939(7) 0.1653(7) 0.7761(5)
H9 H 0.9359 0.2044 0.7689
C12 C 0.7979(7) 0.1965(5) 0.8094(4)
H10 H 0.7757 0.2566 0.8244
C13 C 0.5108(7) 0.0737(5) 0.8703(3)
C14 C 0.4772(8) 0.0360(7) 0.9220(2)
H11 H 0.4858 0.0582 0.9556
C15 C 0.4308(9) -0.0350(7) 0.9236(3)
H12 H 0.4084 -0.0602 0.9581
C16 C 0.4179(8) -0.0682(6) 0.8734(4)
H13 H 0.3869 -0.1157 0.8744
C17 C 0.4515(8) -0.0305(6) 0.8217(3)
H14 H 0.4429 -0.0528 0.7881
C18 C 0.4979(7) 0.0404(6) 0.8202(2)
H15 H 0.5203 0.0656 0.7856
C19 C 0.7673(4) 0.4480(4) 0.81698(16)
C20 C 0.7205(3) 0.4432(4) 0.8706(2)
H16 H 0.6413 0.4741 0.8739
C21 C 0.7921(5) 0.3924(5) 0.91925(15)
H17 H 0.7608 0.3892 0.9551
C22 C 0.9104(5) 0.3464(5) 0.9143(2)
H18 H 0.9583 0.3124 0.9469
C23 C 0.9572(3) 0.3511(5) 0.8607(3)
H19 H 1.0364 0.3203 0.8574
C24 C 0.8857(4) 0.4020(4) 0.81204(19)
H20 H 0.9170 0.4051 0.7762
C25 C 0.6748(5) 0.4808(5) 0.66233(19)
C26 C 0.5824(5) 0.5320(5) 0.6228(2)
H21 H 0.5163 0.5844 0.6326
C27 C 0.5889(7) 0.5050(6) 0.5686(2)
H22 H 0.5271 0.5393 0.5422
C28 C 0.6877(8) 0.4267(7) 0.5539(2)
H23 H 0.6920 0.4086 0.5177
C29 C 0.7800(6) 0.3755(6) 0.5935(3)
H24 H 0.8461 0.3231 0.5836
C30 C 0.7736(4) 0.4025(5) 0.6477(3)
H25 H 0.8353 0.3682 0.6741
C31 C 0.5174(4) 0.6483(4) 0.7546(2)
C32 C 0.4410(4) 0.6452(4) 0.7970(2)
H26 H 0.4563 0.5852 0.8224
C33 C 0.3416(4) 0.7318(5) 0.8014(3)
H27 H 0.2905 0.7298 0.8298
C34 C 0.3187(4) 0.8216(4) 0.7634(3)
H28 H 0.2523 0.8795 0.7664
C35 C 0.3952(6) 0.8246(4) 0.7210(3)
H29 H 0.3799 0.8846 0.6956
C36 C 0.4945(5) 0.7380(5) 0.7166(2)
H30 H 0.5457 0.7400 0.6882
C37 C 0.6095(4) 0.9357(4) 0.6234(3)
C38 C 0.5349(6) 0.9312(5) 0.5834(3)
H31 H 0.5626 0.8845 0.5582
C39 C 0.4189(6) 0.9965(6) 0.5811(3)
H32 H 0.3690 0.9935 0.5543
C40 C 0.3775(4) 1.0664(5) 0.6187(3)
H33 H 0.2998 1.1101 0.6171
C41 C 0.4521(6) 1.0709(4) 0.6587(3)
H34 H 0.4243 1.1176 0.6839
C42 C 0.5681(5) 1.0056(5) 0.6611(2)
H35 H 0.6180 1.0086 0.6878
C43 C 0.8188(5) 0.7498(4) 0.5626(2)
C44 C 0.8199(5) 0.6531(5) 0.5722(2)
H36 H 0.8015 0.6276 0.6078
C45 C 0.8486(6) 0.5947(4) 0.5285(3)
H37 H 0.8494 0.5301 0.5349
C46 C 0.8761(6) 0.6329(6) 0.4753(3)
H38 H 0.8953 0.5938 0.4460
C47 C 0.8749(6) 0.7296(6) 0.46570(19)
H39 H 0.8933 0.7551 0.4301
C48 C 0.8463(6) 0.7880(4) 0.5094(2)
H40 H 0.8455 0.8527 0.5030
C49 C 0.8936(5) 0.9259(4) 0.6156(3)
C50 C 0.9967(5) 0.8828(4) 0.6478(2)
H41 H 1.0151 0.8229 0.6738
C51 C 1.0725(5) 0.9291(6) 0.6411(3)
H42 H 1.1416 0.9003 0.6627
C52 C 1.0452(6) 1.0186(6) 0.6022(4)
H43 H 1.0959 1.0496 0.5977
C53 C 0.9420(7) 1.0617(5) 0.5700(3)
H44 H 0.9237 1.1215 0.5440
C54 C 0.8662(5) 1.0153(5) 0.5767(3)
H45 H 0.7971 1.0442 0.5551
C55 C 0.1834(4) 0.6176(4) 0.66480(18)
C56 C 0.2654(4) 0.6572(4) 0.66202(19)
H46 H 0.3096 0.6485 0.6947
C57 C 0.2811(5) 0.7098(5) 0.6105(2)
H47 H 0.3360 0.7363 0.6086
C58 C 0.2150(5) 0.7227(5) 0.56168(19)
H48 H 0.2255 0.7579 0.5272
C59 C 0.1330(5) 0.6831(5) 0.56446(18)
H49 H 0.0887 0.6918 0.5318
C60 C 0.1172(4) 0.6305(5) 0.6160(2)
H50 H 0.0624 0.6040 0.6179
C61 C 0.1381(5) 0.6043(4) 0.81773(18)
C62 C 0.1860(5) 0.5477(4) 0.8710(2)
H51 H 0.2293 0.4778 0.8746
C63 C 0.1693(6) 0.5956(5) 0.91887(18)
H52 H 0.2014 0.5577 0.9545
C64 C 0.1046(6) 0.7001(5) 0.9135(2)
H53 H 0.0934 0.7321 0.9455
C65 C 0.0567(5) 0.7567(4) 0.8602(3)
H54 H 0.0134 0.8266 0.8566
C66 C 0.0734(5) 0.7088(4) 0.8123(2)
H55 H 0.0414 0.7467 0.7767
C67 C 0.1546(5) 0.3913(5) 0.7400(3)
C68 C 0.0908(6) 0.3809(6) 0.6968(3)
H56 H 0.0466 0.4373 0.6701
C69 C 0.0933(7) 0.2860(8) 0.6935(4)
H57 H 0.0506 0.2790 0.6646
C70 C 0.1594(8) 0.2017(6) 0.7334(5)
H58 H 0.1611 0.1382 0.7311
C71 C 0.2232(7) 0.2122(5) 0.7766(5)
H59 H 0.2674 0.1557 0.8033
C72 C 0.2207(6) 0.3070(6) 0.7799(3)
H60 H 0.2634 0.3140 0.8088
C73 C 0.4824(4) 0.3432(4) 0.68650(16)
C74 C 0.5885(3) 0.2698(4) 0.67514(18)
H61 H 0.6495 0.2456 0.7021
C75 C 0.6035(3) 0.2326(4) 0.6235(2)
H62 H 0.6745 0.1835 0.6159
C76 C 0.5124(4) 0.2688(4) 0.58330(17)
C77 C 0.4062(4) 0.3421(4) 0.59467(18)
H63 H 0.3453 0.3663 0.5678
C78 C 0.3912(3) 0.3793(4) 0.6463(2)
H64 H 0.3202 0.4284 0.6539
C79 C 0.8184(5) 0.6758(4) 0.81614(17)
C80 C 0.7282(6) 0.7637(5) 0.8281(2)
H65 H 0.6815 0.8119 0.7983
C81 C 0.7079(7) 0.7795(6) 0.8846(3)
H66 H 0.6476 0.8383 0.8926
C82 C 0.7778(7) 0.7073(6) 0.9291(2)
C83 C 0.8679(6) 0.6194(5) 0.91717(19)
H67 H 0.9146 0.5712 0.9470
C84 C 0.8882(4) 0.6037(4) 0.8607(2)
H68 H 0.9485 0.5448 0.8527
O1 O 0.3394(4) 0.4737(4) 0.7625(2)
O2 O 0.4719(4) 0.2845(4) 0.8072(2)
O3 O 0.5694(4) 0.4206(4) 0.7752(2)
O4 O 0.8178(7) 0.7762(5) 0.7050(3)
O5 O 0.9761(4) 0.5915(6) 0.7293(3)
O6 O 0.7579(4) 0.6151(5) 0.7134(2)
O7 O 0.4464(8) 0.2578(8) 0.4971(4)
O8 O 0.6131(7) 0.1692(7) 0.5216(3)
O9 O 0.676(2) 0.802(2) 0.9940(10)
O10 O 0.8190(12) 0.6524(11) 1.0243(6)
As1 As 0.46478(5) 0.38662(5) 0.75921(3)
As2 As 0.84491(5) 0.65913(6) 0.73853(3)
Sn1 Sn 0.65805(4) 0.52281(4) 0.74468(2)
Sn2 Sn 0.15918(4) 0.53471(4) 0.74394(2)
Sn3 Sn 0.78010(5) 0.84709(4) 0.62394(2)
Sn4 Sn 0.58533(5) 0.18193(4) 0.86521(2)
N1 N 0.5232(8) 0.2310(7) 0.5303(3)
N2 N 0.774(2) 0.7277(18) 0.9903(7)
O5_2 O -0.0239(4) 0.5915(6) 0.7293(3)
Sn2_2 Sn 1.15918(4) 0.53471(4) 0.74394(2)
O11 O 0.7339(18) 0.0117(15) 0.9442(7)
loop_
_geom_bond_atom_site_label_1
_geom_bond_atom_site_label_2
_geom_bond_site_symmetry_1
_geom_bond_site_symmetry_2
C1 C2 1_555 1_555
C2 H1 1_555 1_555
C3 C2 1_555 1_555
H2 C3 1_555 1_555
C4 C3 1_555 1_555
H3 C4 1_555 1_555
C5 C4 1_555 1_555
H4 C5 1_555 1_555
C6 C1 1_555 1_555
H5 C6 1_555 1_555
C7 C8 1_555 1_555
C8 H6 1_555 1_555
C9 C8 1_555 1_555
H7 C9 1_555 1_555
C10 C9 1_555 1_555
H8 C10 1_555 1_555
C11 C10 1_555 1_555
H9 C11 1_555 1_555
C12 C7 1_555 1_555
H10 C12 1_555 1_555
C13 C14 1_555 1_555
C14 H11 1_555 1_555
C15 C14 1_555 1_555
H12 C15 1_555 1_555
C16 C15 1_555 1_555
H13 C16 1_555 1_555
C17 C16 1_555 1_555
H14 C17 1_555 1_555
C18 C13 1_555 1_555
H15 C18 1_555 1_555
C19 C20 1_555 1_555
C20 H16 1_555 1_555
C21 C20 1_555 1_555
H17 C21 1_555 1_555
C22 C21 1_555 1_555
H18 C22 1_555 1_555
C23 C22 1_555 1_555
H19 C23 1_555 1_555
C24 C19 1_555 1_555
H20 C24 1_555 1_555
C25 C26 1_555 1_555
C26 H21 1_555 1_555
C27 C26 1_555 1_555
H22 C27 1_555 1_555
C28 C27 1_555 1_555
H23 C28 1_555 1_555
C29 C28 1_555 1_555
H24 C29 1_555 1_555
C30 C25 1_555 1_555
H25 C30 1_555 1_555
C31 C32 1_555 1_555
C32 H26 1_555 1_555
C33 C32 1_555 1_555
H27 C33 1_555 1_555
C34 C33 1_555 1_555
H28 C34 1_555 1_555
C35 C34 1_555 1_555
H29 C35 1_555 1_555
C36 C31 1_555 1_555
H30 C36 1_555 1_555
C37 C38 1_555 1_555
C38 H31 1_555 1_555
C39 C38 1_555 1_555
H32 C39 1_555 1_555
C40 C39 1_555 1_555
H33 C40 1_555 1_555
C41 C40 1_555 1_555
H34 C41 1_555 1_555
C42 C37 1_555 1_555
H35 C42 1_555 1_555
C43 C44 1_555 1_555
C44 H36 1_555 1_555
C45 C44 1_555 1_555
H37 C45 1_555 1_555
C46 C45 1_555 1_555
H38 C46 1_555 1_555
C47 C46 1_555 1_555
H39 C47 1_555 1_555
C48 C43 1_555 1_555
H40 C48 1_555 1_555
C49 C50 1_555 1_555
C50 H41 1_555 1_555
C51 C50 1_555 1_555
H42 C51 1_555 1_555
C52 C51 1_555 1_555
H43 C52 1_555 1_555
C53 C52 1_555 1_555
H44 C53 1_555 1_555
C54 C49 1_555 1_555
H45 C54 1_555 1_555
C55 C56 1_555 1_555
C56 H46 1_555 1_555
C57 C56 1_555 1_555
H47 C57 1_555 1_555
C58 C57 1_555 1_555
H48 C58 1_555 1_555
C59 C58 1_555 1_555
H49 C59 1_555 1_555
C60 C55 1_555 1_555
H50 C60 1_555 1_555
C61 C62 1_555 1_555
C62 H51 1_555 1_555
C63 C62 1_555 1_555
H52 C63 1_555 1_555
C64 C63 1_555 1_555
H53 C64 1_555 1_555
C65 C64 1_555 1_555
H54 C65 1_555 1_555
C66 C61 1_555 1_555
H55 C66 1_555 1_555
C67 C68 1_555 1_555
C68 H56 1_555 1_555
C69 C68 1_555 1_555
H57 C69 1_555 1_555
C70 C69 1_555 1_555
H58 C70 1_555 1_555
C71 C70 1_555 1_555
H59 C71 1_555 1_555
C72 C67 1_555 1_555
H60 C72 1_555 1_555
C73 C74 1_555 1_555
C74 H61 1_555 1_555
C75 C74 1_555 1_555
H62 C75 1_555 1_555
C76 C75 1_555 1_555
C77 C76 1_555 1_555
H63 C77 1_555 1_555
C78 C73 1_555 1_555
H64 C78 1_555 1_555
C79 C80 1_555 1_555
C80 H65 1_555 1_555
C81 C80 1_555 1_555
H66 C81 1_555 1_555
C82 C81 1_555 1_555
C83 C82 1_555 1_555
H67 C83 1_555 1_555
C84 C79 1_555 1_555
H68 C84 1_555 1_555
O1 As1 1_555 1_555
O2 As1 1_555 1_555
O3 As1 1_555 1_555
O4 As2 1_555 1_555
O5 As2 1_555 1_555
O6 As2 1_555 1_555
O7 N1 1_555 1_555
O8 N1 1_555 1_555
O9 N2 1_555 1_555
O10 N2 1_555 1_555
As1 C73 1_555 1_555
As2 C79 1_555 1_555
Sn1 C19 1_555 1_555
Sn2 C55 1_555 1_555
Sn3 C37 1_555 1_555
Sn4 C1 1_555 1_555
N1 C76 1_555 1_555
N2 C82 1_555 1_555
O5_2 Sn2 1_555 1_555
Sn2_2 O5 1_555 1_555
C5 C6 1_555 1_555
C7 Sn4 1_555 1_555
C11 C12 1_555 1_555
C13 Sn4 1_555 1_555
C17 C18 1_555 1_555
C23 C24 1_555 1_555
C25 Sn1 1_555 1_555
C29 C30 1_555 1_555
C31 Sn1 1_555 1_555
C35 C36 1_555 1_555
C41 C42 1_555 1_555
C43 Sn3 1_555 1_555
C47 C48 1_555 1_555
C49 Sn3 1_555 1_555
C53 C54 1_555 1_555
C59 C60 1_555 1_555
C61 Sn2 1_555 1_555
C65 C66 1_555 1_555
C67 Sn2 1_555 1_555
C71 C72 1_555 1_555
C77 C78 1_555 1_555
C83 C84 1_555 1_555
O1 Sn2 1_555 1_555
O2 Sn4 1_555 1_555
O3 Sn1 1_555 1_555
O4 Sn3 1_555 1_555
O6 Sn1 1_555 1_555

#END
