
#######################################################################
#
#                 Cambridge Crystallographic Data Centre
#                                CCDC 
#
#######################################################################
#
# If this CIF has been generated from an entry in the Cambridge 
# Structural Database, then it will include bibliographic, chemical, 
# crystal, experimental, refinement or atomic coordinate data resulting 
# from the CCDC's data processing and validation procedures.
#
#######################################################################

data_XUSQUY
_symmetry_cell_setting           monoclinic
_symmetry_space_group_name_H-M   'C c'
_symmetry_Int_Tables_number      9
_space_group_name_Hall           'C -2yc'
loop_
_symmetry_equiv_pos_site_id
_symmetry_equiv_pos_as_xyz
1 x,y,z
2 x,-y,1/2+z
3 1/2+x,1/2+y,z
4 1/2+x,1/2-y,1/2+z
_cell_length_a                   17.7239(18)
_cell_length_b                   15.9708(16)
_cell_length_c                   19.4016(19)
_cell_angle_alpha                90
_cell_angle_beta                 98.1520(10)
_cell_angle_gamma                90
_cell_volume                     5436.42
loop_
_atom_site_label
_atom_site_type_symbol
_atom_site_fract_x
_atom_site_fract_y
_atom_site_fract_z
Cu1 Cu 0.85647(2) -0.05567(2) 0.174110(19)
Cu2 Cu 0.77841(2) 0.07211(3) 0.217455(18)
Cu3 Cu 0.31700(3) 0.01092(3) 0.20920(2)
O1 O 0.75498(15) -0.10775(17) 0.14948(16)
O2 O 0.69134(15) -0.00183(16) 0.19051(15)
O3 O 0.41285(15) -0.01129(18) 0.17237(15)
O4 O 0.35531(18) -0.13539(19) 0.16053(17)
O5 O 0.56186(19) -0.3206(2) 0.0718(2)
O6 O 0.77833(16) 0.10714(18) 0.11838(13)
O7 O 0.84130(16) -0.00229(17) 0.08158(13)
O8 O 0.79784(17) -0.01241(17) -0.19018(13)
O9 O 0.85879(17) 0.09575(18) -0.23025(13)
O10 O 0.8132(3) 0.32230(18) -0.06982(16)
O11 O 0.87529(15) 0.12876(17) 0.24279(15)
O12 O 0.94133(15) 0.02320(17) 0.20519(15)
O13 O 1.22129(15) 0.03325(18) 0.24473(14)
O14 O 1.27610(16) 0.15840(19) 0.24673(16)
O15 O 1.06285(18) 0.3457(2) 0.32492(19)
N1 N 0.92766(19) -0.1551(2) 0.14451(17)
N2 N 0.8691(2) -0.4838(2) -0.19508(18)
N3 N 0.70842(19) 0.1712(2) 0.24846(16)
N4 N 0.76224(19) 0.4623(2) 0.61365(17)
C1 C 0.6207(2) -0.1191(2) 0.14362(19)
C2 C 0.5528(2) -0.0830(2) 0.15641(19)
H1 H 0.5528 -0.0297 0.1756
C3 C 0.4852(2) -0.1268(2) 0.1405(2)
C4 C 0.4856(2) -0.2069(3) 0.1119(2)
H2 H 0.4402 -0.2364 0.1014
C5 C 0.5535(2) -0.2425(3) 0.0990(2)
C6 C 0.6217(2) -0.1985(3) 0.1156(2)
H3 H 0.6675 -0.2226 0.1077
C7 C 0.6948(2) -0.0726(2) 0.16259(19)
C8 C 0.4118(2) -0.0899(3) 0.1588(2)
C9 C 0.4947(3) -0.3685(3) 0.0531(3)
H4 H 0.4680 -0.3738 0.0926
H5 H 0.5082 -0.4231 0.0381
H6 H 0.4626 -0.3411 0.0159
C10 C 0.8083(2) 0.1095(2) 0.00336(18)
C11 C 0.8188(3) 0.0634(2) -0.0550(2)
H7 H 0.8209 0.0053 -0.0529
C12 C 0.8262(2) 0.1050(2) -0.11710(18)
C13 C 0.8257(2) 0.1917(2) -0.11992(19)
H8 H 0.8335 0.2191 -0.1606
C14 C 0.8132(3) 0.2376(2) -0.0610(2)
C15 C 0.8029(2) 0.1969(2) -0.00009(19)
H9 H 0.7923 0.2274 0.0383
C16 C 0.8079(2) 0.0681(2) 0.07299(19)
C17 C 0.8285(2) 0.0581(2) -0.18431(19)
C18 C 0.7849(5) 0.3717(3) -0.0197(3)
H10 H 0.7313 0.3619 -0.0214
H11 H 0.7935 0.4297 -0.0289
H12 H 0.8107 0.3574 0.0257
C19 C 1.0089(2) 0.1419(2) 0.25397(19)
C20 C 1.0790(2) 0.1054(2) 0.24586(19)
H13 H 1.0810 0.0513 0.2286
C21 C 1.1456(2) 0.1514(3) 0.2641(2)
C22 C 1.1428(2) 0.2316(3) 0.2903(2)
H14 H 1.1876 0.2618 0.3021
C23 C 1.0729(2) 0.2676(3) 0.2993(2)
C24 C 1.0060(2) 0.2218(2) 0.2803(2)
H15 H 0.9592 0.2455 0.2854
C25 C 0.9363(2) 0.0943(2) 0.23217(19)
C26 C 1.2207(2) 0.1139(3) 0.25149(19)
C27 C 1.1286(3) 0.3953(3) 0.3455(3)
H16 H 1.1615 0.3671 0.3818
H17 H 1.1137 0.4484 0.3623
H18 H 1.1552 0.4039 0.3063
C28 C 0.9255(2) -0.2334(2) 0.1683(2)
H19 H 0.8891 -0.2466 0.1967
C29 C 0.9743(2) -0.2955(3) 0.1530(2)
H20 H 0.9709 -0.3489 0.1716
C30 C 1.0286(2) -0.2786(3) 0.1101(2)
C31 C 1.0302(3) -0.1981(3) 0.0845(3)
H21 H 1.0651 -0.1838 0.0550
C32 C 0.9798(3) -0.1385(3) 0.1027(3)
H22 H 0.9822 -0.0846 0.0852
C33 C 1.0814(3) -0.3452(3) 0.0884(2)
H23 H 1.0848 -0.3910 0.1215
H24 H 1.1320 -0.3217 0.0895
C34 C 1.0536(3) -0.3791(3) 0.0149(2)
H25 H 1.0471 -0.3328 -0.0178
H26 H 1.0919 -0.4163 0.0009
C35 C 0.9790(4) -0.4259(4) 0.0119(3)
H27 H 0.9440 -0.3924 0.0346
H28 H 0.9880 -0.4777 0.0378
C36 C 0.8723(3) -0.4061(3) -0.1708(3)
H29 H 0.8496 -0.3635 -0.1993
C37 C 0.9080(3) -0.3857(3) -0.1048(2)
H30 H 0.9091 -0.3303 -0.0898
C38 C 0.9415(3) -0.4463(3) -0.0619(2)
C39 C 0.9396(3) -0.5271(3) -0.0872(3)
H31 H 0.9630 -0.5703 -0.0599
C40 C 0.9028(3) -0.5429(3) -0.1530(3)
H32 H 0.9014 -0.5979 -0.1690
C41 C 0.7166(2) 0.2517(3) 0.2308(2)
H33 H 0.7554 0.2658 0.2053
C42 C 0.6693(3) 0.3140(3) 0.2491(2)
H34 H 0.6765 0.3690 0.2358
C43 C 0.6109(3) 0.2950(3) 0.2874(2)
C44 C 0.6029(3) 0.2137(3) 0.3038(3)
H35 H 0.5641 0.1982 0.3288
C45 C 0.6512(3) 0.1531(3) 0.2841(2)
H36 H 0.6436 0.0977 0.2960
C46 C 0.5596(3) 0.3619(4) 0.3115(3)
H37 H 0.5073 0.3421 0.3047
H38 H 0.5620 0.4120 0.2837
C47 C 0.5838(4) 0.3834(4) 0.3895(3)
H39 H 0.5472 0.4219 0.4046
H40 H 0.5836 0.3327 0.4170
C48 C 0.6593(4) 0.4208(5) 0.4013(4)
H41 H 0.6570 0.4763 0.3807
H42 H 0.6938 0.3873 0.3783
C49 C 0.7873(3) 0.4019(3) 0.5757(3)
H43 H 0.8297 0.3710 0.5947
C50 C 0.7533(3) 0.3834(4) 0.5097(3)
H44 H 0.7726 0.3404 0.4851
C51 C 0.6910(3) 0.4278(4) 0.4796(3)
C52 C 0.6617(3) 0.4873(3) 0.5207(2)
H45 H 0.6175 0.5166 0.5040
C53 C 0.6993(2) 0.5022(3) 0.5867(2)
H46 H 0.6794 0.5424 0.6137
Cu1A Cu 0.85647(2) 0.05567(2) -0.325890(19)
Cu2A Cu 0.77841(2) -0.07211(3) -0.282545(18)
Cu3_2 Cu 1.31700(3) 0.01092(3) 0.20920(2)
Cu3C Cu 0.81700(3) -0.51092(3) -0.29080(2)
Cu3C_2 Cu 0.81700(3) 0.48908(3) 0.70920(2)
O8A O 0.79784(17) 0.01241(17) 0.30982(13)
O9A O 0.85879(17) -0.09575(18) 0.26975(13)
O13_2 O 0.22129(15) 0.03325(18) 0.24473(14)
N2C N 0.3691(2) -0.0162(2) 0.30492(18)
N4C N 0.26224(19) 0.0377(2) 0.11365(17)
O16 O 0.8735(4) -0.1714(4) -0.1008(3)
H47 H 0.8540 -0.1297 -0.1240
H48 H 0.8478 -0.1897 -0.0708
O17 O 1.0197(6) -0.1004(6) -0.0694(3)
H49 H 1.0490 -0.1181 -0.0990
H50 H 0.9788 -0.1305 -0.0719
O18 O 0.7688(6) -0.1555(5) -0.0035(4)
H51 H 0.7727 -0.1564 0.0399
H52 H 0.7228 -0.1590 -0.0221
loop_
_geom_bond_atom_site_label_1
_geom_bond_atom_site_label_2
_geom_bond_site_symmetry_1
_geom_bond_site_symmetry_2
Cu1 O1 1_555 1_555
Cu2 O2 1_555 1_555
Cu3 O3 1_555 1_555
O1 C7 1_555 1_555
O2 C7 1_555 1_555
O3 C8 1_555 1_555
O4 C8 1_555 1_555
O5 C5 1_555 1_555
O6 Cu2 1_555 1_555
O7 Cu1 1_555 1_555
O8 C17 1_555 1_555
O9 C17 1_555 1_555
O10 C14 1_555 1_555
O11 Cu2 1_555 1_555
O12 Cu1 1_555 1_555
O13 C26 1_555 1_555
O14 C26 1_555 1_555
O15 C23 1_555 1_555
N1 Cu1 1_555 1_555
N2 C36 1_555 1_555
N3 Cu2 1_555 1_555
N4 C49 1_555 1_555
C1 C2 1_555 1_555
C2 H1 1_555 1_555
C3 C2 1_555 1_555
C4 C3 1_555 1_555
H2 C4 1_555 1_555
C5 C4 1_555 1_555
C6 C1 1_555 1_555
H3 C6 1_555 1_555
C7 C1 1_555 1_555
C8 C3 1_555 1_555
C9 O5 1_555 1_555
H4 C9 1_555 1_555
H5 C9 1_555 1_555
H6 C9 1_555 1_555
C10 C11 1_555 1_555
C11 H7 1_555 1_555
C12 C11 1_555 1_555
C13 C12 1_555 1_555
H8 C13 1_555 1_555
C14 C13 1_555 1_555
C15 C10 1_555 1_555
H9 C15 1_555 1_555
C16 O6 1_555 1_555
C17 C12 1_555 1_555
C18 O10 1_555 1_555
H10 C18 1_555 1_555
H11 C18 1_555 1_555
H12 C18 1_555 1_555
C19 C20 1_555 1_555
C20 H13 1_555 1_555
C21 C20 1_555 1_555
C22 C21 1_555 1_555
H14 C22 1_555 1_555
C23 C22 1_555 1_555
C24 C19 1_555 1_555
H15 C24 1_555 1_555
C25 O11 1_555 1_555
C26 C21 1_555 1_555
C27 O15 1_555 1_555
H16 C27 1_555 1_555
H17 C27 1_555 1_555
H18 C27 1_555 1_555
C28 N1 1_555 1_555
H19 C28 1_555 1_555
C29 C28 1_555 1_555
H20 C29 1_555 1_555
C30 C29 1_555 1_555
C31 C30 1_555 1_555
H21 C31 1_555 1_555
C32 N1 1_555 1_555
H22 C32 1_555 1_555
C33 C30 1_555 1_555
H23 C33 1_555 1_555
H24 C33 1_555 1_555
C34 C33 1_555 1_555
H25 C34 1_555 1_555
H26 C34 1_555 1_555
C35 C34 1_555 1_555
H27 C35 1_555 1_555
H28 C35 1_555 1_555
C36 H29 1_555 1_555
C37 C36 1_555 1_555
H30 C37 1_555 1_555
C38 C35 1_555 1_555
C39 C38 1_555 1_555
H31 C39 1_555 1_555
C40 N2 1_555 1_555
H32 C40 1_555 1_555
C41 N3 1_555 1_555
H33 C41 1_555 1_555
C42 C41 1_555 1_555
H34 C42 1_555 1_555
C43 C42 1_555 1_555
C44 C43 1_555 1_555
H35 C44 1_555 1_555
C45 N3 1_555 1_555
H36 C45 1_555 1_555
C46 C43 1_555 1_555
H37 C46 1_555 1_555
H38 C46 1_555 1_555
C47 C46 1_555 1_555
H39 C47 1_555 1_555
H40 C47 1_555 1_555
C48 C47 1_555 1_555
H41 C48 1_555 1_555
H42 C48 1_555 1_555
C49 H43 1_555 1_555
C50 C49 1_555 1_555
H44 C50 1_555 1_555
C51 C48 1_555 1_555
C52 C51 1_555 1_555
H45 C52 1_555 1_555
C53 N4 1_555 1_555
H46 C53 1_555 1_555
O16 H47 1_555 1_555
H48 O16 1_555 1_555
O17 H49 1_555 1_555
H50 O17 1_555 1_555
O18 H51 1_555 1_555
H52 O18 1_555 1_555
Cu1A O9 1_555 1_555
Cu2A O8 1_555 1_555
Cu3_2 O13 1_555 1_555
Cu3C N2 1_555 1_555
Cu3C_2 N4 1_555 1_555
O8A Cu2 1_555 1_555
O9A Cu1 1_555 1_555
O13_2 Cu3 1_555 1_555
N2C Cu3 1_555 1_555
N4C Cu3 1_555 1_555
O7 C16 1_555 1_555
O12 C25 1_555 1_555
C5 C6 1_555 1_555
C10 C16 1_555 1_555
C14 C15 1_555 1_555
C19 C25 1_555 1_555
C23 C24 1_555 1_555
C31 C32 1_555 1_555
C37 C38 1_555 1_555
C39 C40 1_555 1_555
C44 C45 1_555 1_555
C50 C51 1_555 1_555
C52 C53 1_555 1_555

#END
