
#######################################################################
#
#                 Cambridge Crystallographic Data Centre
#                                CCDC 
#
#######################################################################
#
# If this CIF has been generated from an entry in the Cambridge 
# Structural Database, then it will include bibliographic, chemical, 
# crystal, experimental, refinement or atomic coordinate data resulting 
# from the CCDC's data processing and validation procedures.
#
#######################################################################

data_XUSRAF
_symmetry_cell_setting           monoclinic
_symmetry_space_group_name_H-M   'C 2/c'
_symmetry_Int_Tables_number      15
_space_group_name_Hall           '-C 2yn'
loop_
_symmetry_equiv_pos_site_id
_symmetry_equiv_pos_as_xyz
1 x,y,z
2 -x,y,1/2-z
3 1/2+x,1/2+y,z
4 1/2-x,1/2+y,1/2-z
5 -x,-y,-z
6 x,-y,1/2+z
7 1/2-x,1/2-y,-z
8 1/2+x,1/2-y,1/2+z
_cell_length_a                   24.760(5)
_cell_length_b                   9.4812(17)
_cell_length_c                   19.792(4)
_cell_angle_alpha                90
_cell_angle_beta                 121.927(2)
_cell_angle_gamma                90
_cell_volume                     3943.39
loop_
_atom_site_label
_atom_site_type_symbol
_atom_site_fract_x
_atom_site_fract_y
_atom_site_fract_z
Cu1 Cu -0.20219(3) 0.32491(6) -0.51677(4)
Cu2 Cu -0.20267(3) 0.00182(6) -0.53733(3)
O1 O -0.16872(17) 0.2926(4) -0.5850(2)
O2 O -0.20749(17) 0.0775(4) -0.6337(2)
O3 O -0.24127(19) -0.0416(4) -0.8999(2)
O4 O -0.20465(17) 0.1078(4) -0.9549(2)
O5 O -0.14100(18) 0.5366(4) -0.7885(2)
O6 O -0.0814(2) 0.3681(5) -0.3950(3)
O7 O -0.1417(2) 0.1810(4) -0.4409(2)
O8 O 0.0000 -0.2043(11) -0.2500
O9 O -0.23107(17) 0.3733(3) -0.4466(2)
H1 H -0.1964 0.3696 -0.3906
N1 N -0.1380(2) -0.1350(4) -0.5289(3)
C1 C -0.1868(2) 0.1976(5) -0.6373(3)
C2 C -0.1828(2) 0.2319(5) -0.7086(3)
C3 C -0.1995(2) 0.1349(5) -0.7686(3)
H2 H -0.2132 0.0452 -0.7655
C4 C -0.1954(2) 0.1734(5) -0.8339(3)
C5 C -0.1750(2) 0.3075(5) -0.8376(3)
H3 H -0.1719 0.3325 -0.8808
C6 C -0.1592(3) 0.4048(5) -0.7778(3)
C7 C -0.1626(2) 0.3670(5) -0.7125(3)
H4 H -0.1515 0.4313 -0.6717
C8 C -0.2153(2) 0.0711(6) -0.9011(3)
C9 C -0.1271(4) 0.6397(6) -0.7302(4)
H5 H -0.1630 0.6505 -0.7242
H6 H -0.1184 0.7280 -0.7462
H7 H -0.0906 0.6109 -0.6803
C10 C -0.0920(3) 0.2467(7) -0.3903(3)
C11 C -0.0430(2) 0.1557(6) -0.3180(3)
C12 C -0.0443(3) 0.0104(7) -0.3186(4)
H8 H -0.0742 -0.0386 -0.3638
C13 C 0.0000 -0.0615(10) -0.2500
C14 C 0.0000 0.2270(9) -0.2500
H9 H 0.0000 0.3251 -0.2500
C15 C -0.0162(11) -0.294(2) -0.3034(12)
H10 H 0.0118 -0.3734 -0.2788
H11 H -0.0118 -0.2585 -0.3455
H12 H -0.0594 -0.3239 -0.3247
C16 C -0.0916(3) -0.0993(6) -0.5405(4)
H13 H -0.0901 -0.0063 -0.5544
C17 C -0.0456(3) -0.1908(6) -0.5335(4)
H14 H -0.0138 -0.1592 -0.5413
C18 C -0.0476(3) -0.3308(6) -0.5145(3)
C19 C -0.0967(3) -0.3688(6) -0.5041(4)
H15 H -0.1002 -0.4617 -0.4918
C20 C -0.1402(3) -0.2707(6) -0.5118(3)
H16 H -0.1728 -0.2998 -0.5048
C21 C 0.0000(3) -0.4328(6) -0.5067(4)
H17 H 0.0329 -0.3985 -0.5117
Cu1C Cu -0.29781(3) 0.82491(6) -0.98323(4)
Cu1C_2 Cu -0.29781(3) -0.17509(6) -0.98323(4)
Cu1F Cu -0.29781(3) 0.17509(6) -0.48323(4)
Cu1A Cu 0.20219(3) 0.32491(6) 0.01677(4)
Cu2C Cu -0.29733(3) 0.50182(6) -0.96267(3)
Cu2E Cu -0.20267(3) -0.00182(6) -1.03733(3)
Cu2F Cu -0.29733(3) 0.49818(6) -0.46267(3)
Cu2A Cu 0.20267(3) 0.00182(6) 0.03733(3)
Cu2D Cu 0.20267(3) -1.00182(6) -0.46267(3)
O1C O -0.33128(17) 0.7926(4) -0.9150(2)
O2C O -0.29251(17) 0.5775(4) -0.8663(2)
O3C O -0.25873(19) 0.4584(4) -0.6001(2)
O3_2 O -0.24127(19) 0.9584(4) -0.8999(2)
O4C O -0.29535(17) 0.6078(4) -0.5451(2)
O4E O -0.20465(17) -0.1078(4) -0.4549(2)
O4F O -0.29535(17) 0.3922(4) -1.0451(2)
O5C O -0.35900(18) 1.0366(4) -0.7115(2)
O6A O 0.0814(2) 0.3681(5) -0.1050(3)
O7A O 0.1417(2) 0.1810(4) -0.0591(2)
O7C O -0.3583(2) 0.6810(4) -1.0591(2)
O9F O -0.26893(17) 0.1267(3) -0.5534(2)
O9C O -0.26893(17) 0.8733(3) -1.0534(2)
O9E O -0.23107(17) 0.6267(3) -0.9466(2)
H1F H -0.3036 0.1304 -0.6094
H1C H -0.3036 0.8696 -1.1094
H1E H -0.1964 0.6304 -0.8906
N1D N 0.1380(2) -0.8650(4) -0.4711(3)
N1C N -0.3620(2) 0.3650(4) -0.9711(3)
C1C C -0.3132(2) 0.6976(5) -0.8627(3)
C2C C -0.3172(2) 0.7319(5) -0.7914(3)
C3C C -0.3005(2) 0.6349(5) -0.7314(3)
H2C H -0.2868 0.5452 -0.7345
C4C C -0.3046(2) 0.6734(5) -0.6661(3)
C5C C -0.3250(2) 0.8075(5) -0.6624(3)
H3C H -0.3281 0.8325 -0.6192
C6C C -0.3408(3) 0.9048(5) -0.7222(3)
C7C C -0.3374(2) 0.8670(5) -0.7875(3)
H4C H -0.3485 0.9313 -0.8283
C8C C -0.2847(2) 0.5711(6) -0.5989(3)
C9C C -0.3729(4) 1.1397(6) -0.7698(4)
H5C H -0.3370 1.1505 -0.7758
H6C H -0.3816 1.2280 -0.7538
H7C H -0.4094 1.1109 -0.8197
C10A C 0.0920(3) 0.2467(7) -0.1097(3)
C11A C 0.0430(2) 0.1557(6) -0.1820(3)
C12A C 0.0443(3) 0.0104(7) -0.1814(4)
H8A H 0.0742 -0.0386 -0.1362
C15A C 0.0162(11) -0.294(2) -0.1966(12)
H10A H -0.0118 -0.3734 -0.2212
H11A H 0.0118 -0.2585 -0.1545
H12A H 0.0594 -0.3239 -0.1753
C16D C 0.0916(3) -0.9007(6) -0.4595(4)
H13D H 0.0901 -0.9937 -0.4456
C17D C 0.0456(3) -0.8092(6) -0.4665(4)
H14D H 0.0138 -0.8408 -0.4587
C18D C 0.0476(3) -0.6692(6) -0.4855(3)
C19D C 0.0967(3) -0.6312(6) -0.4959(4)
H15D H 0.1002 -0.5383 -0.5082
C20D C 0.1402(3) -0.7293(6) -0.4882(3)
H16D H 0.1728 -0.7002 -0.4952
C21D C 0.0000(3) -0.5672(6) -0.4933(4)
H17D H -0.0329 -0.6015 -0.4883
loop_
_geom_bond_atom_site_label_1
_geom_bond_atom_site_label_2
_geom_bond_site_symmetry_1
_geom_bond_site_symmetry_2
Cu1 O1 1_555 1_555
Cu2 O2 1_555 1_555
O1 C1 1_555 1_555
O2 C1 1_555 1_555
O3 C8 1_555 1_555
O4 C8 1_555 1_555
O5 C6 1_555 1_555
O6 C10 1_555 1_555
O7 Cu1 1_555 1_555
O8 C13 1_555 1_555
O9 Cu1 1_555 1_555
H1 O9 1_555 1_555
N1 Cu2 1_555 1_555
C1 C2 1_555 1_555
C2 C3 1_555 1_555
C3 H2 1_555 1_555
C4 C3 1_555 1_555
C5 C4 1_555 1_555
H3 C5 1_555 1_555
C6 C5 1_555 1_555
C7 C2 1_555 1_555
H4 C7 1_555 1_555
C8 C4 1_555 1_555
C9 O5 1_555 1_555
H5 C9 1_555 1_555
H6 C9 1_555 1_555
H7 C9 1_555 1_555
C10 O7 1_555 1_555
C11 C10 1_555 1_555
C12 C11 1_555 1_555
H8 C12 1_555 1_555
C13 C12 1_555 1_555
C14 C11 1_555 1_555
H9 C14 1_555 1_555
C15 O8 1_555 1_555
H10 C15 1_555 1_555
H11 C15 1_555 1_555
H12 C15 1_555 1_555
C16 N1 1_555 1_555
H13 C16 1_555 1_555
C17 C16 1_555 1_555
H14 C17 1_555 1_555
C18 C17 1_555 1_555
C19 C18 1_555 1_555
H15 C19 1_555 1_555
C20 N1 1_555 1_555
H16 C20 1_555 1_555
C21 C18 1_555 1_555
H17 C21 1_555 1_555
Cu1C O1C 1_555 1_555
Cu1C_2 O3 1_555 1_555
Cu1F O9 1_555 1_555
Cu1A O7A 1_555 1_555
Cu2C O2C 1_555 1_555
Cu2E O4 1_555 1_555
Cu2F O9 1_555 1_555
Cu2A O7A 1_555 1_555
Cu2D N1D 1_555 1_555
O1C C1C 1_555 1_555
O2C C1C 1_555 1_555
O3C Cu1 1_555 1_555
O3_2 Cu1C 1_555 1_555
O4C Cu2F 1_555 1_555
O4E Cu2 1_555 1_555
O4F Cu2C 1_555 1_555
O5C C6C 1_555 1_555
O6A C10A 1_555 1_555
O7A C10A 1_555 1_555
O7C Cu1C 1_555 1_555
O9F Cu1 1_555 1_555
O9C Cu1C 1_555 1_555
O9E Cu1C 1_555 1_555
H1F O9F 1_555 1_555
H1C O9C 1_555 1_555
H1E O9E 1_555 1_555
N1D C16D 1_555 1_555
N1C Cu2C 1_555 1_555
C1C C2C 1_555 1_555
C2C C3C 1_555 1_555
C3C H2C 1_555 1_555
C4C C3C 1_555 1_555
C5C C4C 1_555 1_555
H3C C5C 1_555 1_555
C6C C5C 1_555 1_555
C7C C2C 1_555 1_555
H4C C7C 1_555 1_555
C8C O3C 1_555 1_555
C9C O5C 1_555 1_555
H5C C9C 1_555 1_555
H6C C9C 1_555 1_555
H7C C9C 1_555 1_555
C10A C11A 1_555 1_555
C11A C14 1_555 1_555
C12A C13 1_555 1_555
H8A C12A 1_555 1_555
C15A O8 1_555 1_555
H10A C15A 1_555 1_555
H11A C15A 1_555 1_555
H12A C15A 1_555 1_555
C16D H13D 1_555 1_555
C17D C16D 1_555 1_555
H14D C17D 1_555 1_555
C18D C17D 1_555 1_555
C19D C18D 1_555 1_555
H15D C19D 1_555 1_555
C20D N1D 1_555 1_555
H16D C20D 1_555 1_555
C21D C21 1_555 1_555
H17D C21D 1_555 1_555
Cu2 O7 1_555 1_555
Cu2 O9F 1_555 1_555
C6 C7 1_555 1_555
C19 C20 1_555 1_555
Cu1F O9F 1_555 1_555
Cu2C O7C 1_555 1_555
Cu2C O9E 1_555 1_555
O4C C8C 1_555 1_555
C4C C8C 1_555 1_555
C6C C7C 1_555 1_555
C11A C12A 1_555 1_555
C18D C21D 1_555 1_555
C19D C20D 1_555 1_555

#END
