
#######################################################################
#
#                 Cambridge Crystallographic Data Centre
#                                CCDC 
#
#######################################################################
#
# If this CIF has been generated from an entry in the Cambridge 
# Structural Database, then it will include bibliographic, chemical, 
# crystal, experimental, refinement or atomic coordinate data resulting 
# from the CCDC's data processing and validation procedures.
#
#######################################################################

data_XUSTOV
_symmetry_cell_setting           triclinic
_symmetry_space_group_name_H-M   'P -1'
_symmetry_Int_Tables_number      2
_space_group_name_Hall           '-P 1'
loop_
_symmetry_equiv_pos_site_id
_symmetry_equiv_pos_as_xyz
1 x,y,z
2 -x,-y,-z
_cell_length_a                   10.963(2)
_cell_length_b                   10.985(2)
_cell_length_c                   11.960(2)
_cell_angle_alpha                101.78(3)
_cell_angle_beta                 103.71(3)
_cell_angle_gamma                100.21(3)
_cell_volume                     1330.7
loop_
_atom_site_label
_atom_site_type_symbol
_atom_site_fract_x
_atom_site_fract_y
_atom_site_fract_z
Sm1 Sm 0.63329(3) 0.87022(3) 0.99536(3)
Cl1 Cl 0.48610(18) 0.69177(19) 1.05570(19)
N1 N 0.7948(6) 0.9216(6) 1.2043(5)
N2 N 0.5776(6) 0.7132(6) 0.7883(5)
Cl2 Cl 0.58846(18) 1.0816(2) 1.13804(15)
Cl3 Cl 0.80578(18) 1.01332(19) 0.92455(19)
N3 N 0.7884(6) 0.7132(6) 0.9958(6)
C1 C 0.9570(6) 0.9833(7) 1.4382(6)
C2 C 0.5161(7) 0.5437(7) 0.5612(6)
C3 C 0.9121(8) 0.7482(8) 0.9926(9)
H1 H 0.9429 0.8332 0.9885
C4 C 0.7501(8) 0.5919(8) 0.9981(9)
H2 H 0.6635 0.5625 0.9989
C5 C 0.9956(8) 0.6693(8) 0.9948(10)
H3 H 1.0816 0.7007 0.9934
C6 C 0.4635(10) 0.6299(10) 0.7387(8)
H4 H 0.4016 0.6294 0.7825
C7 C 0.7531(9) 0.8946(10) 1.2900(8)
H5 H 0.6650 0.8513 1.2720
C8 C 0.6566(10) 0.7159(9) 0.7194(8)
H6 H 0.7353 0.7799 0.7482
C9 C 0.8285(9) 0.9246(11) 1.4076(8)
H7 H 0.7906 0.9043 1.4672
C10 C 0.4290(10) 0.5440(10) 0.6277(8)
H8 H 0.3464 0.4861 0.5977
C11 C 0.9558(7) 0.5447(7) 0.9991(6)
C12 C 0.8286(8) 0.5056(8) 0.9995(9)
H9 H 0.7953 0.4201 1.0006
C13 C 1.0036(10) 1.0071(11) 1.3444(9)
H10 H 1.0925 1.0459 1.3595
C14 C 0.6327(10) 0.6331(9) 0.6102(8)
H11 H 0.6961 0.6372 0.5682
C15 C 0.9232(9) 0.9756(11) 1.2301(8)
H12 H 0.9582 0.9919 1.1677
Sm1A Sm 1.36671(3) 1.12978(3) 2.00464(3)
Sm1A_2 Sm 0.36671(3) 1.12978(3) 1.00464(3)
Sm1A_3 Sm 0.36671(3) 0.12978(3) 0.00464(3)
Sm1A_4 Sm 1.36671(3) 0.12978(3) 1.00464(3)
Cl1A Cl 1.51390(18) 1.30823(19) 1.94430(19)
N1A N 1.2052(6) 1.0784(6) 1.7957(5)
N2A N 0.4224(6) 0.2868(6) 0.2117(5)
N2A_2 N 1.4224(6) 1.2868(6) 2.2117(5)
Cl2A Cl 0.41154(18) 0.9184(2) 0.86196(15)
Cl2A_2 Cl 1.41154(18) 0.9184(2) 1.86196(15)
Cl2_2 Cl 1.58846(18) 1.0816(2) 2.13804(15)
Cl3A Cl 1.19422(18) 0.98668(19) 2.07545(19)
N3A N 1.2116(6) 0.2868(6) 1.0042(6)
N3A_2 N 1.2116(6) 1.2868(6) 2.0042(6)
C1A C 1.0430(6) 1.0167(7) 1.5618(6)
C2A C 0.4839(7) 0.4563(7) 0.4388(6)
C3A C 1.0879(8) 0.2518(8) 1.0074(9)
H1A H 1.0571 0.1668 1.0115
C4A C 1.2499(8) 0.4081(8) 1.0019(9)
H2A H 1.3365 0.4375 1.0011
C5A C 1.0044(8) 0.3307(8) 1.0052(10)
H3A H 0.9184 0.2993 1.0066
C6A C 0.5365(10) 0.3701(10) 0.2613(8)
H4A H 0.5984 0.3706 0.2175
C7A C 1.2469(9) 1.1054(10) 1.7100(8)
H5A H 1.3350 1.1487 1.7280
C8A C 0.3434(10) 0.2841(9) 0.2806(8)
H6A H 0.2647 0.2201 0.2518
C9A C 1.1715(9) 1.0754(11) 1.5924(8)
H7A H 1.2094 1.0957 1.5328
C10A C 0.5710(10) 0.4560(10) 0.3723(8)
H8A H 0.6536 0.5139 0.4023
C11A C 1.0442(7) 0.4553(7) 1.0009(6)
C12A C 1.1714(8) 0.4944(8) 1.0005(9)
H9A H 1.2047 0.5799 0.9994
C13A C 0.9964(10) 0.9929(11) 1.6556(9)
H10A H 0.9075 0.9541 1.6405
C14A C 0.3673(10) 0.3669(9) 0.3898(8)
H11A H 0.3039 0.3628 0.4318
C15A C 1.0768(9) 1.0244(11) 1.7699(8)
H12A H 1.0418 1.0081 1.8323
N4 N 1.1175(10) 1.3721(10) 1.5215(11)
C16 C 0.7284(10) 1.2516(10) 1.5495(8)
C17 C 0.6337(10) 1.1653(10) 1.4549(9)
H13 H 0.6533 1.1268 1.3847
C18 C 0.8579(11) 1.2954(10) 1.5426(9)
C19 C 0.5063(12) 1.1358(12) 1.4660(11)
H14 H 0.4418 1.0777 1.3998
N5 N 0.4688(12) 1.1832(12) 1.5628(11)
C20 C 0.8832(11) 1.2998(11) 1.4343(10)
H15 H 0.8140 1.2782 1.3632
C21 C 0.9654(12) 1.3270(11) 1.6441(11)
H16 H 0.9547 1.3234 1.7200
C22 C 0.6908(13) 1.3051(13) 1.6524(10)
H17 H 0.7526 1.3659 1.7187
C23 C 1.0108(13) 1.3362(12) 1.4313(13)
H18 H 1.0225 1.3351 1.3549
C24 C 1.0899(12) 1.3642(13) 1.6294(13)
H19 H 1.1614 1.3858 1.6987
C25 C 0.5631(14) 1.2676(15) 1.6545(12)
H20 H 0.5410 1.3031 1.7242
loop_
_geom_bond_atom_site_label_1
_geom_bond_atom_site_label_2
_geom_bond_site_symmetry_1
_geom_bond_site_symmetry_2
Sm1 Cl1 1_555 1_555
N1 Sm1 1_555 1_555
N2 Sm1 1_555 1_555
Cl2 Sm1 1_555 1_555
Cl3 Sm1 1_555 1_555
N3 Sm1 1_555 1_555
C1 C9 1_555 1_555
C2 C10 1_555 1_555
C3 N3 1_555 1_555
H1 C3 1_555 1_555
C4 N3 1_555 1_555
H2 C4 1_555 1_555
C5 C3 1_555 1_555
H3 C5 1_555 1_555
C6 N2 1_555 1_555
H4 C6 1_555 1_555
C7 N1 1_555 1_555
H5 C7 1_555 1_555
C8 N2 1_555 1_555
H6 C8 1_555 1_555
C9 C7 1_555 1_555
H7 C9 1_555 1_555
C10 C6 1_555 1_555
H8 C10 1_555 1_555
C11 C5 1_555 1_555
C12 C4 1_555 1_555
H9 C12 1_555 1_555
C13 C1 1_555 1_555
H10 C13 1_555 1_555
C14 C2 1_555 1_555
H11 C14 1_555 1_555
C15 N1 1_555 1_555
H12 C15 1_555 1_555
N4 C23 1_555 1_555
C16 C17 1_555 1_555
C17 H13 1_555 1_555
C18 C16 1_555 1_555
C19 C17 1_555 1_555
H14 C19 1_555 1_555
N5 C19 1_555 1_555
C20 C18 1_555 1_555
H15 C20 1_555 1_555
C21 C18 1_555 1_555
H16 C21 1_555 1_555
C22 C16 1_555 1_555
H17 C22 1_555 1_555
C23 C20 1_555 1_555
H18 C23 1_555 1_555
C24 N4 1_555 1_555
H19 C24 1_555 1_555
C25 N5 1_555 1_555
H20 C25 1_555 1_555
Sm1A Cl1A 1_555 1_555
Sm1A_2 Cl2 1_555 1_555
Sm1A_3 N2A 1_555 1_555
Sm1A_4 N3A 1_555 1_555
N1A Sm1A 1_555 1_555
N2A C6A 1_555 1_555
N2A_2 Sm1A 1_555 1_555
Cl2A Sm1 1_555 1_555
Cl2A_2 Sm1A 1_555 1_555
Cl2_2 Sm1A 1_555 1_555
Cl3A Sm1A 1_555 1_555
N3A C3A 1_555 1_555
N3A_2 Sm1A 1_555 1_555
C1A C1 1_555 1_555
C2A C2 1_555 1_555
C3A H1A 1_555 1_555
C4A N3A 1_555 1_555
H2A C4A 1_555 1_555
C5A C3A 1_555 1_555
H3A C5A 1_555 1_555
C6A H4A 1_555 1_555
C7A N1A 1_555 1_555
H5A C7A 1_555 1_555
C8A N2A 1_555 1_555
H6A C8A 1_555 1_555
C9A C1A 1_555 1_555
H7A C9A 1_555 1_555
C10A C2A 1_555 1_555
H8A C10A 1_555 1_555
C11A C11 1_555 1_555
C12A C4A 1_555 1_555
H9A C12A 1_555 1_555
C13A C1A 1_555 1_555
H10A C13A 1_555 1_555
C14A C2A 1_555 1_555
H11A C14A 1_555 1_555
C15A N1A 1_555 1_555
H12A C15A 1_555 1_555
C8 C14 1_555 1_555
C11 C12 1_555 1_555
C13 C15 1_555 1_555
C21 C24 1_555 1_555
C22 C25 1_555 1_555
Sm1A_2 Cl2A 1_555 1_555
C5A C11A 1_555 1_555
C6A C10A 1_555 1_555
C7A C9A 1_555 1_555
C8A C14A 1_555 1_555
C11A C12A 1_555 1_555
C13A C15A 1_555 1_555

#END
