
#######################################################################
#
#                 Cambridge Crystallographic Data Centre
#                                CCDC 
#
#######################################################################
#
# If this CIF has been generated from an entry in the Cambridge 
# Structural Database, then it will include bibliographic, chemical, 
# crystal, experimental, refinement or atomic coordinate data resulting 
# from the CCDC's data processing and validation procedures.
#
#######################################################################

data_XUSTUB
_symmetry_cell_setting           triclinic
_symmetry_space_group_name_H-M   'P -1'
_symmetry_Int_Tables_number      2
_space_group_name_Hall           '-P 1'
loop_
_symmetry_equiv_pos_site_id
_symmetry_equiv_pos_as_xyz
1 x,y,z
2 -x,-y,-z
_cell_length_a                   10.939(2)
_cell_length_b                   10.992(2)
_cell_length_c                   11.833(2)
_cell_angle_alpha                103.24(3)
_cell_angle_beta                 100.13(3)
_cell_angle_gamma                101.10(3)
_cell_volume                     1322.56
loop_
_atom_site_label
_atom_site_type_symbol
_atom_site_fract_x
_atom_site_fract_y
_atom_site_fract_z
Pr1 Pr 0.37038(5) 0.13433(5) 0.49274(5)
Cl1 Cl 0.5126(2) 0.3046(2) 0.4093(3)
Cl2 Cl 0.1869(2) -0.0102(2) 0.5593(3)
Cl3 Cl 0.4139(3) -0.0949(2) 0.3639(2)
N1 N 0.4212(8) 0.2980(7) 0.7038(7)
N2 N 0.2110(8) 0.0770(7) 0.2847(8)
N3 N 0.2130(8) 0.2923(8) 0.4931(9)
C1 C 0.0453(8) 0.4568(9) 0.4995(9)
C2 C 0.0056(10) 0.3299(10) 0.4986(12)
H1 H -0.0807 0.2954 0.4997
C3 C 0.0924(10) 0.2522(10) 0.4962(12)
H2 H 0.0629 0.1653 0.4969
C4 C 0.2489(9) 0.4123(9) 0.4901(11)
H3 H 0.3347 0.4432 0.4857
C5 C 0.1700(9) 0.4963(10) 0.4929(12)
H4 H 0.2023 0.5820 0.4902
C6 C 0.3988(11) 0.2526(9) 0.7952(10)
H5 H 0.3605 0.1634 0.7795
C7 C 0.4847(9) 0.4567(9) 0.9383(9)
C8 C 0.4281(11) 0.3275(10) 0.9109(10)
H6 H 0.4092 0.2898 0.9724
C9 C 0.0429(9) 0.0164(9) 0.0599(9)
C10 C 0.1313(10) 0.1342(11) 0.1069(11)
H7 H 0.1366 0.1965 0.0629
C11 C 0.4742(11) 0.4225(11) 0.7289(10)
H8 H 0.4928 0.4568 0.6654
C12 C 0.5038(13) 0.5049(11) 0.8411(11)
H9 H 0.5372 0.5945 0.8532
C13 C 0.0444(11) -0.0699(11) 0.1283(11)
H10 H -0.0133 -0.1526 0.0998
C14 C 0.1294(11) -0.0364(11) 0.2377(11)
H11 H 0.1290 -0.0986 0.2818
C15 C 0.2124(10) 0.1605(11) 0.2187(10)
H12 H 0.2719 0.2421 0.2496
Pr1A Pr 0.62962(5) -0.13433(5) 0.50726(5)
Pr1A_2 Pr 0.62962(5) 0.86567(5) 1.50726(5)
Pr1A_3 Pr -0.37038(5) -0.13433(5) -0.49274(5)
Pr1A_4 Pr -0.37038(5) 0.86567(5) 0.50726(5)
Cl1A Cl 0.4874(2) -0.3046(2) 0.5907(3)
Cl2A Cl 0.8131(2) 0.0102(2) 0.4407(3)
Cl3A Cl 0.5861(3) 0.0949(2) 0.6361(2)
N1A N 0.5788(8) 0.7020(7) 1.2962(7)
N1A_2 N 0.5788(8) -0.2980(7) 0.2962(7)
N2A N -0.2110(8) -0.0770(7) -0.2847(8)
N2A_2 N 0.7890(8) -0.0770(7) 0.7153(8)
N3A N -0.2130(8) 0.7077(8) 0.5069(9)
N3A_2 N 0.7870(8) -0.2923(8) 0.5069(9)
C1A C -0.0453(8) 0.5432(9) 0.5005(9)
C2A C -0.0056(10) 0.6701(10) 0.5014(12)
H1A H 0.0807 0.7046 0.5003
C3A C -0.0924(10) 0.7478(10) 0.5038(12)
H2A H -0.0629 0.8347 0.5031
C4A C -0.2489(9) 0.5877(9) 0.5099(11)
H3A H -0.3347 0.5568 0.5143
C5A C -0.1700(9) 0.5037(10) 0.5071(12)
H4A H -0.2023 0.4180 0.5098
C6A C 0.6012(11) 0.7474(9) 1.2048(10)
H5A H 0.6395 0.8366 1.2205
C7A C 0.5153(9) 0.5433(9) 1.0617(9)
C8A C 0.5719(11) 0.6725(10) 1.0891(10)
H6A H 0.5908 0.7102 1.0276
C9A C -0.0429(9) -0.0164(9) -0.0599(9)
C10A C -0.1313(10) -0.1342(11) -0.1069(11)
H7A H -0.1366 -0.1965 -0.0629
C11A C 0.5258(11) 0.5775(11) 1.2711(10)
H8A H 0.5072 0.5432 1.3346
C12A C 0.4962(13) 0.4951(11) 1.1589(11)
H9A H 0.4628 0.4055 1.1468
C13A C -0.0444(11) 0.0699(11) -0.1283(11)
H10A H 0.0133 0.1526 -0.0998
C14A C -0.1294(11) 0.0364(11) -0.2377(11)
H11A H -0.1290 0.0986 -0.2818
C15A C -0.2124(10) -0.1605(11) -0.2187(10)
H12A H -0.2719 -0.2421 -0.2496
C16 C 0.2484(11) -0.2299(12) -0.0504(11)
C17 C 0.3316(11) -0.1336(11) 0.0453(12)
H13 H 0.3662 -0.1530 0.1166
N4 N 0.1295(10) -0.6167(11) -0.0307(13)
N5 N 0.3192(13) 0.0300(12) -0.0601(12)
C18 C 0.2059(11) -0.3601(12) -0.0436(11)
C19 C 0.1982(12) -0.3884(13) 0.0633(12)
H14 H 0.2190 -0.3205 0.1349
C20 C 0.3631(13) -0.0088(13) 0.0345(13)
H15 H 0.4210 0.0545 0.1005
C21 C 0.1748(12) -0.4660(13) -0.1453(14)
H16 H 0.1781 -0.4525 -0.2213
C22 C 0.1397(14) -0.5891(14) -0.1345(14)
H17 H 0.1214 -0.6588 -0.2043
C23 C 0.1605(13) -0.5141(16) 0.0667(15)
H18 H 0.1560 -0.5298 0.1417
C24 C 0.1980(14) -0.1893(16) -0.1495(14)
H19 H 0.1365 -0.2491 -0.2153
C25 C 0.2376(16) -0.0635(17) -0.1511(15)
H20 H 0.2051 -0.0409 -0.2213
loop_
_geom_bond_atom_site_label_1
_geom_bond_atom_site_label_2
_geom_bond_site_symmetry_1
_geom_bond_site_symmetry_2
Pr1 Cl1 1_555 1_555
Cl2 Pr1 1_555 1_555
Cl3 Pr1 1_555 1_555
N1 Pr1 1_555 1_555
N2 Pr1 1_555 1_555
N3 Pr1 1_555 1_555
C1 C2 1_555 1_555
C2 H1 1_555 1_555
C3 N3 1_555 1_555
H2 C3 1_555 1_555
C4 N3 1_555 1_555
H3 C4 1_555 1_555
C5 C1 1_555 1_555
H4 C5 1_555 1_555
C6 N1 1_555 1_555
H5 C6 1_555 1_555
C7 C8 1_555 1_555
C8 C6 1_555 1_555
H6 C8 1_555 1_555
C9 C10 1_555 1_555
C10 H7 1_555 1_555
C11 N1 1_555 1_555
H8 C11 1_555 1_555
C12 C7 1_555 1_555
H9 C12 1_555 1_555
C13 C9 1_555 1_555
H10 C13 1_555 1_555
C14 N2 1_555 1_555
H11 C14 1_555 1_555
C15 N2 1_555 1_555
H12 C15 1_555 1_555
C16 C17 1_555 1_555
C17 H13 1_555 1_555
N4 C22 1_555 1_555
N5 C20 1_555 1_555
C18 C16 1_555 1_555
C19 C18 1_555 1_555
H14 C19 1_555 1_555
C20 C17 1_555 1_555
H15 C20 1_555 1_555
C21 C18 1_555 1_555
H16 C21 1_555 1_555
C22 C21 1_555 1_555
H17 C22 1_555 1_555
C23 N4 1_555 1_555
H18 C23 1_555 1_555
C24 C16 1_555 1_555
H19 C24 1_555 1_555
C25 N5 1_555 1_555
H20 C25 1_555 1_555
Pr1A Cl3 1_555 1_555
Pr1A_2 N1A 1_555 1_555
Pr1A_3 N2A 1_555 1_555
Pr1A_4 N3A 1_555 1_555
Cl1A Pr1A 1_555 1_555
Cl2A Pr1A 1_555 1_555
Cl3A Pr1 1_555 1_555
N1A C6A 1_555 1_555
N1A_2 Pr1A 1_555 1_555
N2A C14A 1_555 1_555
N2A_2 Pr1A 1_555 1_555
N3A C3A 1_555 1_555
N3A_2 Pr1A 1_555 1_555
C1A C1 1_555 1_555
C2A C1A 1_555 1_555
H1A C2A 1_555 1_555
C3A C2A 1_555 1_555
H2A C3A 1_555 1_555
C4A N3A 1_555 1_555
H3A C4A 1_555 1_555
C5A C1A 1_555 1_555
H4A C5A 1_555 1_555
C6A H5A 1_555 1_555
C7A C7 1_555 1_555
C8A C6A 1_555 1_555
H6A C8A 1_555 1_555
C9A C9 1_555 1_555
C10A C9A 1_555 1_555
H7A C10A 1_555 1_555
C11A N1A 1_555 1_555
H8A C11A 1_555 1_555
C12A C7A 1_555 1_555
H9A C12A 1_555 1_555
C13A C9A 1_555 1_555
H10A C13A 1_555 1_555
C14A C13A 1_555 1_555
H11A C14A 1_555 1_555
C15A N2A 1_555 1_555
H12A C15A 1_555 1_555
C2 C3 1_555 1_555
C4 C5 1_555 1_555
C10 C15 1_555 1_555
C11 C12 1_555 1_555
C13 C14 1_555 1_555
C19 C23 1_555 1_555
C24 C25 1_555 1_555
Pr1A Cl3A 1_555 1_555
C4A C5A 1_555 1_555
C7A C8A 1_555 1_555
C10A C15A 1_555 1_555
C11A C12A 1_555 1_555

#END
