
#######################################################################
#
#                 Cambridge Crystallographic Data Centre
#                                CCDC 
#
#######################################################################
#
# If this CIF has been generated from an entry in the Cambridge 
# Structural Database, then it will include bibliographic, chemical, 
# crystal, experimental, refinement or atomic coordinate data resulting 
# from the CCDC's data processing and validation procedures.
#
#######################################################################

data_XUSVAJ
_symmetry_cell_setting           triclinic
_symmetry_space_group_name_H-M   'P -1'
_symmetry_Int_Tables_number      2
_space_group_name_Hall           '-P 1'
loop_
_symmetry_equiv_pos_site_id
_symmetry_equiv_pos_as_xyz
1 x,y,z
2 -x,-y,-z
_cell_length_a                   10.8663(13)
_cell_length_b                   10.9704(10)
_cell_length_c                   11.6913(14)
_cell_angle_alpha                101.573(13)
_cell_angle_beta                 103.898(13)
_cell_angle_gamma                100.046(14)
_cell_volume                     1288.56
loop_
_atom_site_label
_atom_site_type_symbol
_atom_site_fract_x
_atom_site_fract_y
_atom_site_fract_z
Eu1 Eu 0.134201(16) 0.371705(17) 0.492873(18)
Cl1 Cl -0.01575(8) 0.19392(8) 0.54940(9)
Cl2 Cl 0.30439(8) 0.51323(8) 0.42021(9)
Cl3 Cl -0.08782(9) 0.42118(9) 0.36125(9)
N1 N 0.0785(3) 0.2167(3) 0.2862(3)
N2 N 0.2963(3) 0.4231(3) 0.7010(3)
N3 N 0.2887(3) 0.2134(3) 0.4932(3)
C1 C 0.1629(4) 0.2150(4) 0.2211(4)
H1 H 0.2453 0.2744 0.2533
C2 C 0.4572(3) 0.4843(3) 0.9374(3)
C3 C 0.4559(3) 0.0445(3) 0.4982(4)
C4 C 0.4978(3) 0.1705(3) 0.4941(4)
H2 H 0.5847 0.2018 0.4932
C5 C 0.3269(4) 0.0052(4) 0.4977(5)
H3 H 0.2929 -0.0803 0.4989
C6 C 0.4112(3) 0.2500(3) 0.4914(4)
H4 H 0.4413 0.3354 0.4879
C7 C 0.2480(3) 0.0929(3) 0.4957(4)
H5 H 0.1604 0.0648 0.4960
C8 C -0.0371(4) 0.1324(4) 0.2380(4)
H6 H -0.0985 0.1322 0.2838
C9 C 0.2500(4) 0.4000(4) 0.7905(4)
H7 H 0.1598 0.3617 0.7725
C10 C 0.0165(4) 0.0447(3) 0.0593(4)
C11 C 0.3250(4) 0.4285(4) 0.9073(4)
H8 H 0.2870 0.4102 0.9690
C12 C 0.1368(4) 0.1320(4) 0.1101(4)
H9 H 0.2008 0.1336 0.0672
C13 C 0.5059(4) 0.5076(4) 0.8439(4)
H10 H 0.5960 0.5445 0.8590
C14 C -0.0715(4) 0.0470(4) 0.1273(4)
H11 H -0.1550 -0.0105 0.0971
C15 C 0.4236(4) 0.4773(4) 0.7295(4)
H12 H 0.4583 0.4957 0.6660
Eu1A Eu -0.134201(16) -0.371705(17) -0.492873(18)
Eu1A_2 Eu -0.134201(16) 0.628295(17) 0.507127(18)
Eu1A_3 Eu 0.865799(16) -0.371705(17) 0.507127(18)
Eu1A_4 Eu 0.865799(16) 0.628295(17) 1.507127(18)
Cl1A Cl 0.01575(8) -0.19392(8) -0.54940(9)
Cl2A Cl -0.30439(8) -0.51323(8) -0.42021(9)
Cl3A Cl 0.08782(9) -0.42118(9) -0.36125(9)
Cl3_2 Cl -0.08782(9) -0.57882(9) -0.63875(9)
Cl3A_2 Cl 0.08782(9) 0.57882(9) 0.63875(9)
N1A N -0.0785(3) -0.2167(3) -0.2862(3)
N2A N 0.7037(3) 0.5769(3) 1.2990(3)
N2A_2 N -0.2963(3) -0.4231(3) -0.7010(3)
N3A N 0.7113(3) -0.2134(3) 0.5068(3)
N3A_2 N -0.2887(3) -0.2134(3) -0.4932(3)
C1A C -0.1629(4) -0.2150(4) -0.2211(4)
H1A H -0.2453 -0.2744 -0.2533
C2A C 0.5428(3) 0.5157(3) 1.0626(3)
C3A C 0.5441(3) -0.0445(3) 0.5018(4)
C4A C 0.5022(3) -0.1705(3) 0.5059(4)
H2A H 0.4153 -0.2018 0.5068
C5A C 0.6731(4) -0.0052(4) 0.5023(5)
H3A H 0.7071 0.0803 0.5011
C6A C 0.5888(3) -0.2500(3) 0.5086(4)
H4A H 0.5587 -0.3354 0.5121
C7A C 0.7520(3) -0.0929(3) 0.5043(4)
H5A H 0.8396 -0.0648 0.5040
C8A C 0.0371(4) -0.1324(4) -0.2380(4)
H6A H 0.0985 -0.1322 -0.2838
C9A C 0.7500(4) 0.6000(4) 1.2095(4)
H7A H 0.8402 0.6383 1.2275
C10A C -0.0165(4) -0.0447(3) -0.0593(4)
C11A C 0.6750(4) 0.5715(4) 1.0927(4)
H8A H 0.7130 0.5898 1.0310
C12A C -0.1368(4) -0.1320(4) -0.1101(4)
H9A H -0.2008 -0.1336 -0.0672
C13A C 0.4941(4) 0.4924(4) 1.1561(4)
H10A H 0.4040 0.4555 1.1410
C14A C 0.0715(4) -0.0470(4) -0.1273(4)
H11A H 0.1550 0.0105 -0.0971
C15A C 0.5764(4) 0.5227(4) 1.2705(4)
H12A H 0.5417 0.5043 1.3340
C16 C 0.2252(4) 0.7556(4) 1.0526(4)
C17 C 0.3829(5) 0.8000(4) 0.9359(5)
H13 H 0.3130 0.7787 0.8632
C18 C 0.1279(4) 0.6684(4) 0.9583(4)
H14 H 0.1469 0.6305 0.8860
N4 N 0.6141(4) 0.8685(4) 1.0282(5)
C19 C 0.3592(4) 0.7947(4) 1.0451(4)
C20 C 0.0033(5) 0.6363(5) 0.9687(5)
H15 H -0.0615 0.5762 0.9023
N5 N -0.0306(4) 0.6842(5) 1.0653(5)
C21 C 0.1901(5) 0.8059(5) 1.1540(5)
H16 H 0.2522 0.8666 1.2219
C22 C 0.4675(5) 0.8284(5) 1.1447(5)
H17 H 0.4574 0.8274 1.2230
C23 C 0.5102(5) 0.8370(5) 0.9335(5)
H18 H 0.5240 0.8398 0.8567
C24 C 0.0625(6) 0.7664(6) 1.1553(5)
H19 H 0.0403 0.8015 1.2267
C25 C 0.5906(5) 0.8635(5) 1.1317(6)
H20 H 0.6628 0.8854 1.2026
loop_
_geom_bond_atom_site_label_1
_geom_bond_atom_site_label_2
_geom_bond_site_symmetry_1
_geom_bond_site_symmetry_2
Eu1 Cl1 1_555 1_555
Cl2 Eu1 1_555 1_555
Cl3 Eu1 1_555 1_555
N1 Eu1 1_555 1_555
N2 Eu1 1_555 1_555
N3 Eu1 1_555 1_555
C1 N1 1_555 1_555
H1 C1 1_555 1_555
C2 C11 1_555 1_555
C3 C4 1_555 1_555
C4 H2 1_555 1_555
C5 C3 1_555 1_555
H3 C5 1_555 1_555
C6 N3 1_555 1_555
H4 C6 1_555 1_555
C7 N3 1_555 1_555
H5 C7 1_555 1_555
C8 N1 1_555 1_555
H6 C8 1_555 1_555
C9 N2 1_555 1_555
H7 C9 1_555 1_555
C10 C12 1_555 1_555
C11 C9 1_555 1_555
H8 C11 1_555 1_555
C12 C1 1_555 1_555
H9 C12 1_555 1_555
C13 C2 1_555 1_555
H10 C13 1_555 1_555
C14 C8 1_555 1_555
H11 C14 1_555 1_555
C15 N2 1_555 1_555
H12 C15 1_555 1_555
C16 C18 1_555 1_555
C17 H13 1_555 1_555
C18 H14 1_555 1_555
N4 C23 1_555 1_555
C19 C16 1_555 1_555
C20 C18 1_555 1_555
H15 C20 1_555 1_555
N5 C20 1_555 1_555
C21 C16 1_555 1_555
H16 C21 1_555 1_555
C22 C19 1_555 1_555
H17 C22 1_555 1_555
C23 C17 1_555 1_555
H18 C23 1_555 1_555
C24 N5 1_555 1_555
H19 C24 1_555 1_555
C25 N4 1_555 1_555
H20 C25 1_555 1_555
Eu1A Cl1A 1_555 1_555
Eu1A_2 Cl3 1_555 1_555
Eu1A_3 N3A 1_555 1_555
Eu1A_4 N2A 1_555 1_555
Cl2A Eu1A 1_555 1_555
Cl3A Eu1A 1_555 1_555
Cl3_2 Eu1A 1_555 1_555
Cl3A_2 Eu1 1_555 1_555
N1A Eu1A 1_555 1_555
N2A C9A 1_555 1_555
N2A_2 Eu1A 1_555 1_555
N3A C6A 1_555 1_555
N3A_2 Eu1A 1_555 1_555
C1A N1A 1_555 1_555
H1A C1A 1_555 1_555
C2A C2 1_555 1_555
C3A C3 1_555 1_555
C4A C3A 1_555 1_555
H2A C4A 1_555 1_555
C5A C3A 1_555 1_555
H3A C5A 1_555 1_555
C6A C4A 1_555 1_555
H4A C6A 1_555 1_555
C7A N3A 1_555 1_555
H5A C7A 1_555 1_555
C8A N1A 1_555 1_555
H6A C8A 1_555 1_555
C9A H7A 1_555 1_555
C10A C10 1_555 1_555
C11A C2A 1_555 1_555
H8A C11A 1_555 1_555
C12A C1A 1_555 1_555
H9A C12A 1_555 1_555
C13A C2A 1_555 1_555
H10A C13A 1_555 1_555
C14A C8A 1_555 1_555
H11A C14A 1_555 1_555
C15A N2A 1_555 1_555
H12A C15A 1_555 1_555
C4 C6 1_555 1_555
C5 C7 1_555 1_555
C10 C14 1_555 1_555
C13 C15 1_555 1_555
C17 C19 1_555 1_555
C21 C24 1_555 1_555
C22 C25 1_555 1_555
Eu1A_2 Cl3A_2 1_555 1_555
C5A C7A 1_555 1_555
C9A C11A 1_555 1_555
C10A C12A 1_555 1_555
C10A C14A 1_555 1_555
C13A C15A 1_555 1_555

#END
