
#######################################################################
#
#                 Cambridge Crystallographic Data Centre
#                                CCDC 
#
#######################################################################
#
# If this CIF has been generated from an entry in the Cambridge 
# Structural Database, then it will include bibliographic, chemical, 
# crystal, experimental, refinement or atomic coordinate data resulting 
# from the CCDC's data processing and validation procedures.
#
#######################################################################

data_XUSYAL
_symmetry_cell_setting           triclinic
_symmetry_space_group_name_H-M   'P -1'
_symmetry_Int_Tables_number      2
_space_group_name_Hall           '-P 1'
loop_
_symmetry_equiv_pos_site_id
_symmetry_equiv_pos_as_xyz
1 x,y,z
2 -x,-y,-z
_cell_length_a                   13.9278(1)
_cell_length_b                   16.1724(1)
_cell_length_c                   16.4180(1)
_cell_angle_alpha                92.1781(3)
_cell_angle_beta                 104.2576(3)
_cell_angle_gamma                103.0907(3)
_cell_volume                     3473.77
loop_
_atom_site_label
_atom_site_type_symbol
_atom_site_fract_x
_atom_site_fract_y
_atom_site_fract_z
Cu1 Cu 0.39968(2) 0.50420(2) 0.905299(19)
Cu2 Cu 0.28728(3) 0.13399(2) 0.54710(2)
Cu3 Cu 0.03834(2) 0.10329(2) 0.064503(19)
Cl1 Cl 0.55330(5) 0.46651(4) 0.92515(4)
Cl2 Cl 0.45902(6) 0.62984(4) 0.85827(4)
Cl3 Cl 0.40692(7) 0.09462(6) 0.64955(5)
Cl4 Cl 0.01186(5) -0.03650(4) 0.09596(4)
Cl5 Cl -0.10177(5) 0.12355(5) 0.09995(4)
N1 N 0.12197(17) 0.51433(14) 0.52648(14)
H1 H 0.1317 0.5666 0.5540
N2 N 0.19812(19) 0.46888(15) 0.33172(14)
H2 H 0.1623 0.4833 0.2878
N3 N 0.19467(16) 0.41876(13) 0.78936(13)
N4 N 0.12776(17) 0.23077(14) 0.55355(13)
N5 N 0.37188(18) 0.26825(15) 0.43538(14)
N6 N 0.21288(17) 0.25116(13) 0.14997(13)
C1 C 0.1087(2) 0.50496(18) 0.43561(16)
H3 H 0.0772 0.5500 0.4097
H4 H 0.0621 0.4489 0.4114
C2 C 0.2114(2) 0.51160(18) 0.41481(17)
H5 H 0.2463 0.5725 0.4166
H6 H 0.2553 0.4855 0.4580
C3 C 0.13226(19) 0.45008(16) 0.57381(16)
N7 N 0.14997(16) 0.46771(13) 0.65811(13)
C4 C 0.16738(18) 0.40330(16) 0.70163(15)
N8 N 0.16565(16) 0.32490(14) 0.67131(13)
C5 C 0.13877(19) 0.31415(16) 0.58694(16)
N9 N 0.12359(16) 0.37274(14) 0.53433(13)
C6 C 0.2308(2) 0.39888(16) 0.32031(16)
N10 N 0.28790(17) 0.37138(14) 0.38702(13)
C7 C 0.31644(19) 0.30146(17) 0.36827(16)
N11 N 0.29499(17) 0.25806(14) 0.29200(13)
C8 C 0.23980(19) 0.29336(16) 0.23148(16)
N12 N 0.20408(17) 0.36190(14) 0.23946(13)
C9 C 0.1829(2) 0.49343(16) 0.83000(16)
N13 N 0.26403(17) 0.53699(14) 0.88969(14)
C10 C 0.2553(2) 0.60726(19) 0.9322(2)
H7 H 0.3126 0.6391 0.9747
C11 C 0.1653(3) 0.6341(2) 0.9154(2)
H8 H 0.1613 0.6839 0.9457
C12 C 0.0817(2) 0.5875(2) 0.8544(2)
H9 H 0.0191 0.6046 0.8427
C13 C 0.0894(2) 0.51579(19) 0.81040(18)
H10 H 0.0328 0.4827 0.7681
C14 C 0.22725(19) 0.35573(16) 0.84152(15)
N14 N 0.32003(16) 0.38118(14) 0.89542(13)
C15 C 0.3542(2) 0.32422(18) 0.94546(16)
H11 H 0.4195 0.3415 0.9847
C16 C 0.2980(2) 0.24202(17) 0.94168(17)
H12 H 0.3252 0.2027 0.9764
C17 C 0.2013(2) 0.21676(17) 0.88685(16)
H13 H 0.1609 0.1603 0.8840
C18 C 0.1644(2) 0.27535(17) 0.83610(16)
H14 H 0.0978 0.2605 0.7987
C19 C 0.1127(2) 0.20472(16) 0.46693(16)
N15 N 0.16778(18) 0.15066(14) 0.45181(14)
C20 C 0.1490(2) 0.11570(18) 0.37182(17)
H15 H 0.1847 0.0747 0.3611
C21 C 0.0804(2) 0.13683(19) 0.30530(18)
H16 H 0.0696 0.1116 0.2496
C22 C 0.0271(3) 0.19563(19) 0.32109(18)
H17 H -0.0195 0.2123 0.2758
C23 C 0.0420(2) 0.23008(18) 0.40312(18)
H18 H 0.0053 0.2697 0.4154
C24 C 0.1197(2) 0.16505(17) 0.60954(16)
N16 N 0.1895(2) 0.11916(15) 0.62022(14)
C25 C 0.1834(3) 0.0575(2) 0.67397(19)
H19 H 0.2322 0.0240 0.6819
C26 C 0.1094(3) 0.0416(2) 0.71737(19)
H20 H 0.1087 -0.0005 0.7562
C27 C 0.0362(3) 0.08793(19) 0.70350(19)
H21 H -0.0170 0.0769 0.7313
C28 C 0.0408(2) 0.15076(18) 0.64854(18)
H22 H -0.0091 0.1833 0.6379
C29 C 0.4055(2) 0.31231(19) 0.51882(16)
N17 N 0.36780(18) 0.27267(15) 0.57763(14)
C30 C 0.4020(2) 0.3103(2) 0.65750(17)
H23 H 0.3762 0.2821 0.7002
C31 C 0.4722(2) 0.3875(2) 0.68020(18)
H24 H 0.4938 0.4125 0.7370
C32 C 0.5113(2) 0.4283(2) 0.6173(2)
H25 H 0.5604 0.4815 0.6309
C33 C 0.4775(2) 0.3901(2) 0.53530(18)
H26 H 0.5028 0.4162 0.4914
C34 C 0.4042(2) 0.1920(2) 0.42223(17)
N18 N 0.3713(2) 0.12712(17) 0.46265(15)
C35 C 0.4005(3) 0.0538(2) 0.4512(2)
H27 H 0.3783 0.0068 0.4806
C36 C 0.4614(4) 0.0457(3) 0.3983(2)
H28 H 0.4794 -0.0067 0.3902
C37 C 0.4958(3) 0.1143(3) 0.3574(2)
H29 H 0.5382 0.1098 0.3209
C38 C 0.4683(3) 0.1902(3) 0.3696(2)
H30 H 0.4923 0.2390 0.3430
C39 C 0.1502(2) 0.28208(17) 0.08132(15)
N19 N 0.06697(17) 0.22474(14) 0.03584(13)
C40 C 0.0037(2) 0.25140(19) -0.02806(17)
H31 H -0.0544 0.2109 -0.0618
C41 C 0.0196(2) 0.33480(19) -0.04647(18)
H32 H -0.0283 0.3524 -0.0899
C42 C 0.1075(2) 0.39264(19) -0.00004(18)
H33 H 0.1211 0.4505 -0.0122
C43 C 0.1751(2) 0.36619(17) 0.06370(16)
H34 H 0.2369 0.4045 0.0947
C44 C 0.2568(2) 0.18328(16) 0.13151(15)
N20 N 0.19117(16) 0.11385(14) 0.08506(13)
C45 C 0.2301(2) 0.05181(17) 0.05764(17)
H35 H 0.1845 0.0034 0.0229
C46 C 0.3328(2) 0.05620(18) 0.07810(18)
H36 H 0.3578 0.0118 0.0576
C47 C 0.4000(2) 0.12673(19) 0.12943(17)
H37 H 0.4712 0.1301 0.1459
C48 C 0.3620(2) 0.19178(18) 0.15620(16)
H38 H 0.4064 0.2409 0.1905
Cl1A Cl 0.44670(5) 0.53349(4) 1.07485(4)
Cl4A Cl -0.01186(5) 0.03650(4) -0.09596(4)
Cu1A Cu 0.60032(2) 0.49580(2) 1.094701(19)
Cu3A Cu -0.03834(2) -0.10329(2) -0.064503(19)
Cl6 Cl 0.09500(9) 0.70954(10) 0.28414(10)
O1 O 0.3533(2) 0.8175(2) 0.0081(2)
C49 C 0.3112(3) 0.8140(3) 0.0781(3)
H39 H 0.2649 0.7572 0.0763
H40 H 0.2716 0.8577 0.0776
C50 C 0.3984(3) 0.8302(3) 0.1562(3)
H41 H 0.4287 0.8920 0.1721
H42 H 0.3770 0.8038 0.2044
C51 C 0.4703(4) 0.7872(3) 0.1271(3)
H43 H 0.4503 0.7247 0.1289
H44 H 0.5414 0.8096 0.1618
C52 C 0.4584(3) 0.8103(3) 0.0365(3)
H45 H 0.5068 0.8650 0.0347
H46 H 0.4707 0.7652 0.0008
O2 O 0.14992(17) 0.56792(14) 0.19222(14)
H47 H 0.1260 0.6082 0.2075
C53 C 0.2482(3) 0.5933(2) 0.1793(2)
H48 H 0.2925 0.6350 0.2256
H49 H 0.2438 0.6189 0.1257
H50 H 0.2767 0.5433 0.1770
O3 O 0.51802(17) 0.38939(18) 0.32546(15)
H51 H 0.5176 0.3958 0.2645
C54 C 0.6240(3) 0.4173(3) 0.3687(2)
H52 H 0.6386 0.4767 0.3935
H53 H 0.6653 0.4142 0.3291
H54 H 0.6406 0.3811 0.4141
O4 O 0.2052(3) 0.9189(3) 0.3192(2)
H55 H 0.1892 0.8652 0.3176
C55 C 0.2441(4) 0.9429(5) 0.2506(3)
H56 H 0.2475 1.0027 0.2443
H57 H 0.2031 0.9072 0.1996
H58 H 0.3153 0.9343 0.2626
O5 O 0.2025(5) 0.9726(3) 0.4831(3)
H59 H 0.1821 0.9580 0.4303
C56 C 0.1916(6) 0.8977(4) 0.5280(4)
H60 H 0.2624 0.8889 0.5558
H61 H 0.1579 0.8446 0.4871
H62 H 0.1557 0.8991 0.5697
O6 O 0.2695(4) 0.7315(3) 0.4387(3)
H63 H 0.2165 0.7459 0.4077
C57 C 0.3575(4) 0.7764(3) 0.4121(3)
H64 H 0.3388 0.8183 0.3746
H65 H 0.3807 0.7339 0.3833
H66 H 0.4103 0.8039 0.4627
loop_
_geom_bond_atom_site_label_1
_geom_bond_atom_site_label_2
_geom_bond_site_symmetry_1
_geom_bond_site_symmetry_2
Cu1 Cl1 1_555 1_555
Cu2 Cl3 1_555 1_555
Cu3 Cl4 1_555 1_555
Cl1 Cu1A 1_555 1_555
Cl2 Cu1 1_555 1_555
Cl4 Cu3A 1_555 1_555
Cl5 Cu3 1_555 1_555
N1 H1 1_555 1_555
N2 H2 1_555 1_555
N3 C4 1_555 1_555
N4 C5 1_555 1_555
N5 C7 1_555 1_555
N6 C8 1_555 1_555
C1 N1 1_555 1_555
H3 C1 1_555 1_555
H4 C1 1_555 1_555
C2 N2 1_555 1_555
H5 C2 1_555 1_555
H6 C2 1_555 1_555
C3 N1 1_555 1_555
N7 C3 1_555 1_555
C4 N7 1_555 1_555
N8 C4 1_555 1_555
C5 N8 1_555 1_555
N9 C3 1_555 1_555
C6 N2 1_555 1_555
N10 C6 1_555 1_555
C7 N10 1_555 1_555
N11 C7 1_555 1_555
C8 N11 1_555 1_555
N12 C6 1_555 1_555
C9 N3 1_555 1_555
N13 Cu1 1_555 1_555
C10 N13 1_555 1_555
H7 C10 1_555 1_555
C11 C10 1_555 1_555
H8 C11 1_555 1_555
C12 C11 1_555 1_555
H9 C12 1_555 1_555
C13 C9 1_555 1_555
H10 C13 1_555 1_555
C14 N3 1_555 1_555
N14 Cu1 1_555 1_555
C15 N14 1_555 1_555
H11 C15 1_555 1_555
C16 C15 1_555 1_555
H12 C16 1_555 1_555
C17 C16 1_555 1_555
H13 C17 1_555 1_555
C18 C14 1_555 1_555
H14 C18 1_555 1_555
C19 N4 1_555 1_555
N15 Cu2 1_555 1_555
C20 N15 1_555 1_555
H15 C20 1_555 1_555
C21 C20 1_555 1_555
H16 C21 1_555 1_555
C22 C21 1_555 1_555
H17 C22 1_555 1_555
C23 C19 1_555 1_555
H18 C23 1_555 1_555
C24 N4 1_555 1_555
N16 Cu2 1_555 1_555
C25 N16 1_555 1_555
H19 C25 1_555 1_555
C26 C25 1_555 1_555
H20 C26 1_555 1_555
C27 C26 1_555 1_555
H21 C27 1_555 1_555
C28 C24 1_555 1_555
H22 C28 1_555 1_555
C29 N5 1_555 1_555
N17 Cu2 1_555 1_555
C30 N17 1_555 1_555
H23 C30 1_555 1_555
C31 C30 1_555 1_555
H24 C31 1_555 1_555
C32 C31 1_555 1_555
H25 C32 1_555 1_555
C33 C29 1_555 1_555
H26 C33 1_555 1_555
C34 N5 1_555 1_555
N18 Cu2 1_555 1_555
C35 N18 1_555 1_555
H27 C35 1_555 1_555
C36 C35 1_555 1_555
H28 C36 1_555 1_555
C37 C36 1_555 1_555
H29 C37 1_555 1_555
C38 C34 1_555 1_555
H30 C38 1_555 1_555
C39 N6 1_555 1_555
N19 Cu3 1_555 1_555
C40 N19 1_555 1_555
H31 C40 1_555 1_555
C41 C40 1_555 1_555
H32 C41 1_555 1_555
C42 C41 1_555 1_555
H33 C42 1_555 1_555
C43 C39 1_555 1_555
H34 C43 1_555 1_555
C44 N6 1_555 1_555
N20 Cu3 1_555 1_555
C45 N20 1_555 1_555
H35 C45 1_555 1_555
C46 C45 1_555 1_555
H36 C46 1_555 1_555
C47 C46 1_555 1_555
H37 C47 1_555 1_555
C48 C44 1_555 1_555
H38 C48 1_555 1_555
O1 C49 1_555 1_555
C49 H39 1_555 1_555
H40 C49 1_555 1_555
C50 C49 1_555 1_555
H41 C50 1_555 1_555
H42 C50 1_555 1_555
C51 C50 1_555 1_555
H43 C51 1_555 1_555
H44 C51 1_555 1_555
C52 O1 1_555 1_555
H45 C52 1_555 1_555
H46 C52 1_555 1_555
O2 H47 1_555 1_555
C53 O2 1_555 1_555
H48 C53 1_555 1_555
H49 C53 1_555 1_555
H50 C53 1_555 1_555
O3 H51 1_555 1_555
C54 O3 1_555 1_555
H52 C54 1_555 1_555
H53 C54 1_555 1_555
H54 C54 1_555 1_555
O4 H55 1_555 1_555
C55 O4 1_555 1_555
H56 C55 1_555 1_555
H57 C55 1_555 1_555
H58 C55 1_555 1_555
O5 H59 1_555 1_555
C56 O5 1_555 1_555
H60 C56 1_555 1_555
H61 C56 1_555 1_555
H62 C56 1_555 1_555
O6 H63 1_555 1_555
C57 O6 1_555 1_555
H64 C57 1_555 1_555
H65 C57 1_555 1_555
H66 C57 1_555 1_555
Cl1A Cu1 1_555 1_555
Cl4A Cu3 1_555 1_555
Cu1A Cl1A 1_555 1_555
Cu3A Cl4A 1_555 1_555
C1 C2 1_555 1_555
C5 N9 1_555 1_555
C8 N12 1_555 1_555
C9 N13 1_555 1_555
C12 C13 1_555 1_555
C14 N14 1_555 1_555
C17 C18 1_555 1_555
C19 N15 1_555 1_555
C22 C23 1_555 1_555
C24 N16 1_555 1_555
C27 C28 1_555 1_555
C29 N17 1_555 1_555
C32 C33 1_555 1_555
C34 N18 1_555 1_555
C37 C38 1_555 1_555
C39 N19 1_555 1_555
C42 C43 1_555 1_555
C44 N20 1_555 1_555
C47 C48 1_555 1_555
C51 C52 1_555 1_555

#END
