
#######################################################################
#
#                 Cambridge Crystallographic Data Centre
#                                CCDC 
#
#######################################################################
#
# If this CIF has been generated from an entry in the Cambridge 
# Structural Database, then it will include bibliographic, chemical, 
# crystal, experimental, refinement or atomic coordinate data resulting 
# from the CCDC's data processing and validation procedures.
#
#######################################################################

data_XUTGAW
_symmetry_cell_setting           monoclinic
_symmetry_space_group_name_H-M   'C 2/c'
_symmetry_Int_Tables_number      15
_space_group_name_Hall           '-C 2yn'
loop_
_symmetry_equiv_pos_site_id
_symmetry_equiv_pos_as_xyz
1 x,y,z
2 -x,y,1/2-z
3 1/2+x,1/2+y,z
4 1/2-x,1/2+y,1/2-z
5 -x,-y,-z
6 x,-y,1/2+z
7 1/2-x,1/2-y,-z
8 1/2+x,1/2-y,1/2+z
_cell_length_a                   21.091(9)
_cell_length_b                   14.402(7)
_cell_length_c                   7.062(3)
_cell_angle_alpha                90
_cell_angle_beta                 93.230(10)
_cell_angle_gamma                90
_cell_volume                     2141.69
loop_
_atom_site_label
_atom_site_type_symbol
_atom_site_fract_x
_atom_site_fract_y
_atom_site_fract_z
Cd1 Cd 1.0000 0.42047(2) 0.7500
N1 N 0.86001(12) 0.29141(18) 0.8625(3)
H1 H 0.8284 0.2586 0.8957
N2 N 0.93535(10) 0.40466(15) 0.9914(3)
N3 N 0.93085(10) 0.46536(16) 1.1336(3)
N4 N 0.87664(12) 0.45566(19) 1.2110(4)
N5 N 0.84384(12) 0.3891(2) 1.1198(4)
O1 O 0.76877(11) 0.17484(19) 0.7975(3)
H2 H 0.7347 0.1483 0.8062
O2 O 0.93172(10) 0.30501(15) 0.6404(3)
C1 C 0.84613(15) 0.2025(2) 0.5750(4)
C2 C 0.78964(15) 0.1609(2) 0.6247(4)
C3 C 0.75604(18) 0.1052(2) 0.4947(5)
H3 H 0.7179 0.0784 0.5263
C4 C 0.7785(2) 0.0896(3) 0.3211(5)
H4 H 0.7553 0.0526 0.2344
C5 C 0.8354(2) 0.1279(3) 0.2711(5)
H5 H 0.8512 0.1152 0.1536
C6 C 0.86804(18) 0.1847(3) 0.3981(5)
H6 H 0.9058 0.2119 0.3642
C7 C 0.88337(14) 0.2699(2) 0.6948(4)
C8 C 0.88079(13) 0.3598(2) 0.9870(4)
N1A N 1.13999(12) 0.29141(18) 0.6375(3)
H1A H 1.1716 0.2586 0.6043
N2A N 1.06465(10) 0.40466(15) 0.5086(3)
N3A N 1.06915(10) 0.46536(16) 0.3664(3)
N4A N 1.12336(12) 0.45566(19) 0.2890(4)
N5A N 1.15616(12) 0.3891(2) 0.3802(4)
O1A O 1.23123(11) 0.17484(19) 0.7025(3)
H2A H 1.2653 0.1483 0.6938
O2A O 1.06828(10) 0.30501(15) 0.8596(3)
C1A C 1.15387(15) 0.2025(2) 0.9250(4)
C2A C 1.21036(15) 0.1609(2) 0.8753(4)
C3A C 1.24396(18) 0.1052(2) 1.0053(5)
H3A H 1.2821 0.0784 0.9737
C4A C 1.2215(2) 0.0896(3) 1.1789(5)
H4A H 1.2447 0.0526 1.2656
C5A C 1.1646(2) 0.1279(3) 1.2289(5)
H5A H 1.1488 0.1152 1.3464
C6A C 1.13196(18) 0.1847(3) 1.1019(5)
H6A H 1.0942 0.2119 1.1358
C7A C 1.11663(14) 0.2699(2) 0.8052(4)
C8A C 1.11921(13) 0.3598(2) 0.5130(4)
Cd1D Cd 1.0000 0.57953(2) 0.2500
Cd1D_2 Cd 1.0000 0.57953(2) 1.2500
N3D N 1.06915(10) 0.53464(16) 0.8664(3)
N3E N 0.93085(10) 0.53464(16) 0.6336(3)
loop_
_geom_bond_atom_site_label_1
_geom_bond_atom_site_label_2
_geom_bond_site_symmetry_1
_geom_bond_site_symmetry_2
Cd1 N2 1_555 1_555
N1 H1 1_555 1_555
N2 N3 1_555 1_555
N3 N4 1_555 1_555
N4 N5 1_555 1_555
N5 C8 1_555 1_555
O1 H2 1_555 1_555
O2 Cd1 1_555 1_555
C1 C2 1_555 1_555
C2 O1 1_555 1_555
C3 C2 1_555 1_555
H3 C3 1_555 1_555
C4 C3 1_555 1_555
H4 C4 1_555 1_555
C5 C4 1_555 1_555
H5 C5 1_555 1_555
C6 C1 1_555 1_555
H6 C6 1_555 1_555
C7 N1 1_555 1_555
C8 N1 1_555 1_555
N1A H1A 1_555 1_555
N2A Cd1 1_555 1_555
N3A N2A 1_555 1_555
N4A N3A 1_555 1_555
N5A N4A 1_555 1_555
O1A H2A 1_555 1_555
O2A Cd1 1_555 1_555
C1A C2A 1_555 1_555
C2A O1A 1_555 1_555
C3A C2A 1_555 1_555
H3A C3A 1_555 1_555
C4A C3A 1_555 1_555
H4A C4A 1_555 1_555
C5A C4A 1_555 1_555
H5A C5A 1_555 1_555
C6A C1A 1_555 1_555
H6A C6A 1_555 1_555
C7A N1A 1_555 1_555
C8A N1A 1_555 1_555
Cd1D N3A 1_555 1_555
Cd1D_2 N3 1_555 1_555
N3D Cd1 1_555 1_555
N3E Cd1 1_555 1_555
N2 C8 1_555 1_555
O2 C7 1_555 1_555
C1 C7 1_555 1_555
C5 C6 1_555 1_555
N2A C8A 1_555 1_555
N5A C8A 1_555 1_555
O2A C7A 1_555 1_555
C1A C7A 1_555 1_555
C5A C6A 1_555 1_555

#END
