
#######################################################################
#
#                 Cambridge Crystallographic Data Centre
#                                CCDC 
#
#######################################################################
#
# If this CIF has been generated from an entry in the Cambridge 
# Structural Database, then it will include bibliographic, chemical, 
# crystal, experimental, refinement or atomic coordinate data resulting 
# from the CCDC's data processing and validation procedures.
#
#######################################################################

data_XUTGEA
_symmetry_cell_setting           monoclinic
_symmetry_space_group_name_H-M   'C 2/c'
_symmetry_Int_Tables_number      15
_space_group_name_Hall           '-C 2yn'
loop_
_symmetry_equiv_pos_site_id
_symmetry_equiv_pos_as_xyz
1 x,y,z
2 -x,y,1/2-z
3 1/2+x,1/2+y,z
4 1/2-x,1/2+y,1/2-z
5 -x,-y,-z
6 x,-y,1/2+z
7 1/2-x,1/2-y,-z
8 1/2+x,1/2-y,1/2+z
_cell_length_a                   20.377(5)
_cell_length_b                   14.889(4)
_cell_length_c                   7.071(2)
_cell_angle_alpha                90
_cell_angle_beta                 93.480(10)
_cell_angle_gamma                90
_cell_volume                     2141.34
loop_
_atom_site_label
_atom_site_type_symbol
_atom_site_fract_x
_atom_site_fract_y
_atom_site_fract_z
Mn1 Mn 0.5000 0.42257(3) 0.2500
N1 N 0.36054(10) 0.29760(13) 0.3640(2)
N2 N 0.43673(7) 0.41111(10) 0.4913(2)
N3 N 0.43122(7) 0.47049(11) 0.6333(2)
N4 N 0.37501(8) 0.45933(13) 0.7101(2)
N5 N 0.34183(9) 0.39334(13) 0.6191(2)
O1 O 0.43357(7) 0.31815(10) 0.14109(19)
O2 O 0.27248(8) 0.17479(13) 0.2995(2)
H1 H 0.2347 0.1560 0.3015
C1 C 0.34971(10) 0.21173(14) 0.0745(3)
C2 C 0.29406(10) 0.16382(15) 0.1245(3)
C3 C 0.26183(12) 0.10691(15) -0.0052(3)
H2 H 0.2243 0.0765 0.0276
C4 C 0.28473(15) 0.09521(18) -0.1804(4)
H3 H 0.2628 0.0567 -0.2664
C5 C 0.34045(16) 0.1402(2) -0.2316(3)
H4 H 0.3563 0.1314 -0.3509
C6 C 0.37212(13) 0.19770(17) -0.1053(3)
H5 H 0.4094 0.2280 -0.1404
C7 C 0.38488(9) 0.27940(14) 0.1947(3)
C8 C 0.38060(9) 0.36599(14) 0.4865(3)
H6 H 0.3228(14) 0.2754(19) 0.382(4)
N1A N 0.63946(10) 0.29760(13) 0.1360(2)
N2A N 0.56327(7) 0.41111(10) 0.0087(2)
N3A N 0.56878(7) 0.47049(11) -0.1333(2)
N4A N 0.62499(8) 0.45933(13) -0.2101(2)
N5A N 0.65817(9) 0.39334(13) -0.1191(2)
O1A O 0.56643(7) 0.31815(10) 0.35891(19)
O2A O 0.72752(8) 0.17479(13) 0.2005(2)
H1A H 0.7653 0.1560 0.1985
C1A C 0.65029(10) 0.21173(14) 0.4255(3)
C2A C 0.70594(10) 0.16382(15) 0.3755(3)
C3A C 0.73817(12) 0.10691(15) 0.5052(3)
H2A H 0.7757 0.0765 0.4724
C4A C 0.71527(15) 0.09521(18) 0.6804(4)
H3A H 0.7372 0.0567 0.7664
C5A C 0.65955(16) 0.1402(2) 0.7316(3)
H4A H 0.6437 0.1314 0.8509
C6A C 0.62788(13) 0.19770(17) 0.6053(3)
H5A H 0.5906 0.2280 0.6404
C7A C 0.61512(9) 0.27940(14) 0.3053(3)
C8A C 0.61940(9) 0.36599(14) 0.0135(3)
H6A H 0.6772(14) 0.2754(19) 0.118(4)
Mn1D Mn 0.5000 0.57743(3) -0.2500
Mn1D_2 Mn 0.5000 0.57743(3) 0.7500
N3D N 0.56878(7) 0.52951(11) 0.3667(2)
N3E N 0.43122(7) 0.52951(11) 0.1333(2)
loop_
_geom_bond_atom_site_label_1
_geom_bond_atom_site_label_2
_geom_bond_site_symmetry_1
_geom_bond_site_symmetry_2
Mn1 N2 1_555 1_555
N1 C7 1_555 1_555
N2 N3 1_555 1_555
N3 N4 1_555 1_555
N4 N5 1_555 1_555
N5 C8 1_555 1_555
O1 Mn1 1_555 1_555
O2 H1 1_555 1_555
C1 C2 1_555 1_555
C2 O2 1_555 1_555
C3 C2 1_555 1_555
H2 C3 1_555 1_555
C4 C3 1_555 1_555
H3 C4 1_555 1_555
C5 C4 1_555 1_555
H4 C5 1_555 1_555
C6 C1 1_555 1_555
H5 C6 1_555 1_555
C7 O1 1_555 1_555
C8 N1 1_555 1_555
H6 N1 1_555 1_555
N1A C7A 1_555 1_555
N2A Mn1 1_555 1_555
N3A N2A 1_555 1_555
N4A N3A 1_555 1_555
N5A N4A 1_555 1_555
O1A Mn1 1_555 1_555
O2A H1A 1_555 1_555
C1A C2A 1_555 1_555
C2A O2A 1_555 1_555
C3A C2A 1_555 1_555
H2A C3A 1_555 1_555
C4A C3A 1_555 1_555
H3A C4A 1_555 1_555
C5A C4A 1_555 1_555
H4A C5A 1_555 1_555
C6A C1A 1_555 1_555
H5A C6A 1_555 1_555
C7A O1A 1_555 1_555
C8A N1A 1_555 1_555
H6A N1A 1_555 1_555
Mn1D N3A 1_555 1_555
Mn1D_2 N3 1_555 1_555
N3D Mn1 1_555 1_555
N3E Mn1 1_555 1_555
N2 C8 1_555 1_555
C1 C7 1_555 1_555
C5 C6 1_555 1_555
N2A C8A 1_555 1_555
N5A C8A 1_555 1_555
C1A C7A 1_555 1_555
C5A C6A 1_555 1_555

#END
