
#######################################################################
#
#                 Cambridge Crystallographic Data Centre
#                                CCDC 
#
#######################################################################
#
# If this CIF has been generated from an entry in the Cambridge 
# Structural Database, then it will include bibliographic, chemical, 
# crystal, experimental, refinement or atomic coordinate data resulting 
# from the CCDC's data processing and validation procedures.
#
#######################################################################

data_XUTGOK
_symmetry_cell_setting           monoclinic
_symmetry_space_group_name_H-M   'C 2/c'
_symmetry_Int_Tables_number      15
_space_group_name_Hall           '-C 2yn'
loop_
_symmetry_equiv_pos_site_id
_symmetry_equiv_pos_as_xyz
1 x,y,z
2 -x,y,1/2-z
3 1/2+x,1/2+y,z
4 1/2-x,1/2+y,1/2-z
5 -x,-y,-z
6 x,-y,1/2+z
7 1/2-x,1/2-y,-z
8 1/2+x,1/2-y,1/2+z
_cell_length_a                   19.841(9)
_cell_length_b                   14.971(7)
_cell_length_c                   6.892(3)
_cell_angle_alpha                90
_cell_angle_beta                 92.590(10)
_cell_angle_gamma                90
_cell_volume                     2045.11
loop_
_atom_site_label
_atom_site_type_symbol
_atom_site_fract_x
_atom_site_fract_y
_atom_site_fract_z
Zn1 Zn 1.0000 0.92791(4) 0.2500
N1 N 0.86312(15) 0.8008(2) 0.3565(5)
H1 H 0.8313 0.7663 0.3917
N2 N 0.93848(13) 0.91498(19) 0.4829(4)
N3 N 0.93244(14) 0.97251(18) 0.6305(4)
N4 N 0.87545(15) 0.9589(2) 0.7133(5)
N5 N 0.84250(15) 0.8928(2) 0.6220(5)
O1 O 0.77308(14) 0.6794(2) 0.2894(4)
H2 H 0.7377 0.6517 0.2967
O2 O 0.93801(12) 0.82354(17) 0.1280(4)
C1 C 0.79751(19) 0.6673(3) 0.1140(6)
C2 C 0.7668(2) 0.6083(3) -0.0170(7)
H3 H 0.7281 0.5779 0.0161
C3 C 0.7927(3) 0.5945(3) -0.1927(7)
H4 H 0.7714 0.5548 -0.2793
C4 C 0.8500(3) 0.6385(3) -0.2451(7)
H5 H 0.8680 0.6278 -0.3651
C5 C 0.8802(2) 0.6988(3) -0.1170(7)
H6 H 0.9185 0.7294 -0.1526
C6 C 0.85480(18) 0.7143(2) 0.0623(6)
C7 C 0.88212(18) 0.8685(2) 0.4834(6)
C8 C 0.88911(18) 0.7831(3) 0.1832(6)
N1A N 1.13688(15) 0.8008(2) 0.1435(5)
H1A H 1.1687 0.7663 0.1083
N2A N 1.06152(13) 0.91498(19) 0.0171(4)
N3A N 1.06756(14) 0.97251(18) -0.1305(4)
N4A N 1.12455(15) 0.9589(2) -0.2133(5)
N5A N 1.15750(15) 0.8928(2) -0.1220(5)
O1A O 1.22692(14) 0.6794(2) 0.2106(4)
H2A H 1.2623 0.6517 0.2033
O2A O 1.06199(12) 0.82354(17) 0.3720(4)
C1A C 1.20249(19) 0.6673(3) 0.3860(6)
C2A C 1.2332(2) 0.6083(3) 0.5170(7)
H3A H 1.2719 0.5779 0.4839
C3A C 1.2073(3) 0.5945(3) 0.6927(7)
H4A H 1.2286 0.5548 0.7793
C4A C 1.1500(3) 0.6385(3) 0.7451(7)
H5A H 1.1320 0.6278 0.8651
C5A C 1.1198(2) 0.6988(3) 0.6170(7)
H6A H 1.0815 0.7294 0.6526
C6A C 1.14520(18) 0.7143(2) 0.4377(6)
C7A C 1.11788(18) 0.8685(2) 0.0166(6)
C8A C 1.11089(18) 0.7831(3) 0.3168(6)
Zn1D Zn 1.0000 1.07209(4) -0.2500
Zn1D_2 Zn 1.0000 1.07209(4) 0.7500
N3D N 1.06756(14) 1.02749(18) 0.3695(4)
N3E N 0.93244(14) 1.02749(18) 0.1305(4)
loop_
_geom_bond_atom_site_label_1
_geom_bond_atom_site_label_2
_geom_bond_site_symmetry_1
_geom_bond_site_symmetry_2
Zn1 N2 1_555 1_555
N1 H1 1_555 1_555
N2 N3 1_555 1_555
N3 N4 1_555 1_555
N4 N5 1_555 1_555
N5 C7 1_555 1_555
O1 H2 1_555 1_555
O2 Zn1 1_555 1_555
C1 O1 1_555 1_555
C2 C1 1_555 1_555
H3 C2 1_555 1_555
C3 C2 1_555 1_555
H4 C3 1_555 1_555
C4 C3 1_555 1_555
H5 C4 1_555 1_555
C5 C4 1_555 1_555
H6 C5 1_555 1_555
C6 C1 1_555 1_555
C7 N1 1_555 1_555
C8 N1 1_555 1_555
N1A H1A 1_555 1_555
N2A Zn1 1_555 1_555
N3A N2A 1_555 1_555
N4A N3A 1_555 1_555
N5A N4A 1_555 1_555
O1A H2A 1_555 1_555
O2A Zn1 1_555 1_555
C1A O1A 1_555 1_555
C2A C1A 1_555 1_555
H3A C2A 1_555 1_555
C3A C2A 1_555 1_555
H4A C3A 1_555 1_555
C4A C3A 1_555 1_555
H5A C4A 1_555 1_555
C5A C4A 1_555 1_555
H6A C5A 1_555 1_555
C6A C1A 1_555 1_555
C7A N1A 1_555 1_555
C8A N1A 1_555 1_555
Zn1D N3A 1_555 1_555
Zn1D_2 N3 1_555 1_555
N3D Zn1 1_555 1_555
N3E Zn1 1_555 1_555
N2 C7 1_555 1_555
O2 C8 1_555 1_555
C5 C6 1_555 1_555
C6 C8 1_555 1_555
N2A C7A 1_555 1_555
N5A C7A 1_555 1_555
O2A C8A 1_555 1_555
C5A C6A 1_555 1_555
C6A C8A 1_555 1_555

#END
