
#######################################################################
#
#                 Cambridge Crystallographic Data Centre
#                                CCDC 
#
#######################################################################
#
# If this CIF has been generated from an entry in the Cambridge 
# Structural Database, then it will include bibliographic, chemical, 
# crystal, experimental, refinement or atomic coordinate data resulting 
# from the CCDC's data processing and validation procedures.
#
#######################################################################

data_XUTMAC
_symmetry_cell_setting           monoclinic
_symmetry_space_group_name_H-M   'I 2/a'
_symmetry_Int_Tables_number      15
_space_group_name_Hall           '-I 2ya'
loop_
_symmetry_equiv_pos_site_id
_symmetry_equiv_pos_as_xyz
1 x,y,z
2 1/2-x,y,-z
3 1/2+x,1/2+y,1/2+z
4 -x,1/2+y,1/2-z
5 -x,-y,-z
6 1/2+x,-y,z
7 1/2-x,1/2-y,1/2-z
8 x,1/2-y,1/2+z
_cell_length_a                   29.1344(11)
_cell_length_b                   8.6686(3)
_cell_length_c                   31.9584(14)
_cell_angle_alpha                90
_cell_angle_beta                 112.448(5)
_cell_angle_gamma                90
_cell_volume                     7459.65
loop_
_atom_site_label
_atom_site_type_symbol
_atom_site_fract_x
_atom_site_fract_y
_atom_site_fract_z
Cd1 Cd 0.057129(18) 0.12760(6) 0.121982(16)
Cd2 Cd 0.157064(18) -0.23488(6) 0.318228(17)
O1 O 0.2665(2) 0.5891(9) 0.1319(3)
O2 O 0.27291(18) 0.6919(7) 0.19619(19)
O3 O 0.0991(2) 0.3967(7) 0.02844(19)
O4 O 0.05177(19) 0.2996(6) 0.06167(16)
O5 O -0.10680(19) 0.3007(7) 0.14538(18)
O6 O -0.12383(19) 0.5496(7) 0.1416(2)
N1 N 0.02770(19) 0.3603(6) 0.13656(19)
N2 N 0.1400(2) 0.1080(7) 0.1695(2)
N3 N 0.05862(19) 0.0050(6) 0.18644(18)
N4 N 0.1950(2) 0.0015(7) 0.2302(2)
H1 H 0.2072 -0.0485 0.2553
N5 N 0.1052(2) -0.1020(7) 0.25357(19)
N6 N -0.0284(2) 0.0291(7) 0.0802(2)
N7 N 0.0620(2) -0.0619(7) 0.07386(19)
N8 N -0.0712(2) -0.1487(7) 0.0304(2)
H2 H -0.0780 -0.2211 0.0105
N9 N 0.0255(2) -0.2143(7) 0.0161(2)
H3 H 0.0026 -0.2644 -0.0048
N10 N 0.1177(3) -0.4707(7) 0.2888(2)
N11 N 0.1985(3) -0.4386(11) 0.3703(3)
N12 N 0.1082(3) -0.7189(8) 0.2986(3)
H4 H 0.1135 -0.8087 0.3110
N13 N 0.1992(4) -0.6819(14) 0.3880(4)
H5 H 0.1916 -0.7783 0.3864
C1 C 0.2481(3) 0.6222(9) 0.1590(3)
C2 C 0.1947(2) 0.5887(8) 0.1503(2)
C3 C 0.1649(3) 0.5088(8) 0.1120(2)
H6 H 0.1782 0.4780 0.0911
C4 C 0.1157(2) 0.4731(8) 0.1038(2)
C5 C 0.0869(3) 0.3841(8) 0.0615(2)
C6 C 0.0956(2) 0.5246(8) 0.1348(2)
C7 C 0.1251(3) 0.6079(8) 0.1725(2)
H7 H 0.1116 0.6447 0.1927
C8 C 0.1751(3) 0.6373(9) 0.1805(3)
H8 H 0.1950 0.6899 0.2065
C9 C 0.0433(2) 0.5029(8) 0.1314(2)
C10 C -0.0170(3) 0.3467(8) 0.1394(2)
H9 H -0.0272 0.2490 0.1443
C11 C -0.0487(2) 0.4697(8) 0.1355(2)
C12 C -0.0974(2) 0.4387(9) 0.1405(2)
C13 C -0.0329(2) 0.6130(8) 0.1298(2)
H10 H -0.0534 0.6981 0.1266
C14 C 0.0142(3) 0.6309(8) 0.1287(2)
H11 H 0.0259 0.7288 0.1263
C15 C 0.0272(3) -0.0554(9) 0.2050(2)
H12 H -0.0073 -0.0520 0.1923
C16 C 0.0551(3) -0.1213(8) 0.2453(2)
H13 H 0.0426 -0.1716 0.2644
C17 C 0.1047(2) -0.0254(8) 0.2173(2)
C18 C 0.1465(2) 0.0268(8) 0.2063(2)
C19 C 0.2213(3) 0.0679(12) 0.2081(3)
H14 H 0.2557 0.0691 0.2171
C20 C 0.1872(3) 0.1329(10) 0.1700(3)
H15 H 0.1945 0.1853 0.1479
C21 C -0.0773(3) 0.0249(9) 0.0767(3)
H16 H -0.0904 0.0877 0.0930
C22 C -0.1032(3) -0.0823(10) 0.0464(3)
H17 H -0.1366 -0.1062 0.0382
C23 C -0.0269(3) -0.0811(8) 0.0510(2)
C24 C 0.0190(3) -0.1180(7) 0.0464(2)
C25 C 0.0751(3) -0.2177(9) 0.0246(3)
H18 H 0.0906 -0.2736 0.0089
C26 C 0.0971(3) -0.1243(9) 0.0602(3)
H19 H 0.1310 -0.1049 0.0735
C27 C 0.0765(4) -0.5274(10) 0.2523(3)
H20 H 0.0559 -0.4697 0.2278
C28 C 0.0719(4) -0.6804(12) 0.2587(4)
H21 H 0.0481 -0.7465 0.2393
C29 C 0.1350(3) -0.5881(10) 0.3155(3)
C30 C 0.1765(4) -0.5708(12) 0.3568(4)
C31 C 0.2356(6) -0.611(2) 0.4219(5)
H22 H 0.2569 -0.6566 0.4485
C32 C 0.2358(5) -0.4662(18) 0.4111(5)
H23 H 0.2581 -0.3926 0.4287
Cd2C Cd -0.157064(18) 0.26512(6) 0.181772(17)
Cd2F Cd 0.342936(18) 0.73488(6) 0.181772(17)
O1F O 0.2335(2) -0.0891(9) 0.3681(3)
O2F O 0.22709(18) -0.1919(7) 0.30381(19)
O5C O 0.10680(19) -0.1993(7) 0.35462(18)
loop_
_geom_bond_atom_site_label_1
_geom_bond_atom_site_label_2
_geom_bond_site_symmetry_1
_geom_bond_site_symmetry_2
Cd1 O4 1_555 1_555
Cd2 N5 1_555 1_555
O1 C1 1_555 1_555
O2 C1 1_555 1_555
O3 C5 1_555 1_555
O4 C5 1_555 1_555
O5 C12 1_555 1_555
O6 C12 1_555 1_555
N1 Cd1 1_555 1_555
N2 Cd1 1_555 1_555
N3 Cd1 1_555 1_555
N4 H1 1_555 1_555
N5 C16 1_555 1_555
N6 Cd1 1_555 1_555
N7 Cd1 1_555 1_555
N8 H2 1_555 1_555
N9 H3 1_555 1_555
N10 Cd2 1_555 1_555
N11 Cd2 1_555 1_555
N12 H4 1_555 1_555
N13 H5 1_555 1_555
C1 C2 1_555 1_555
C2 C3 1_555 1_555
C3 H6 1_555 1_555
C4 C3 1_555 1_555
C5 C4 1_555 1_555
C6 C4 1_555 1_555
C7 C6 1_555 1_555
H7 C7 1_555 1_555
C8 C2 1_555 1_555
H8 C8 1_555 1_555
C9 N1 1_555 1_555
C10 N1 1_555 1_555
H9 C10 1_555 1_555
C11 C10 1_555 1_555
C12 C11 1_555 1_555
C13 C11 1_555 1_555
H10 C13 1_555 1_555
C14 C9 1_555 1_555
H11 C14 1_555 1_555
C15 N3 1_555 1_555
H12 C15 1_555 1_555
C16 C15 1_555 1_555
H13 C16 1_555 1_555
C17 N3 1_555 1_555
C18 N2 1_555 1_555
C19 N4 1_555 1_555
H14 C19 1_555 1_555
C20 N2 1_555 1_555
H15 C20 1_555 1_555
C21 N6 1_555 1_555
H16 C21 1_555 1_555
C22 N8 1_555 1_555
H17 C22 1_555 1_555
C23 N6 1_555 1_555
C24 N7 1_555 1_555
C25 N9 1_555 1_555
H18 C25 1_555 1_555
C26 N7 1_555 1_555
H19 C26 1_555 1_555
C27 N10 1_555 1_555
H20 C27 1_555 1_555
C28 N12 1_555 1_555
H21 C28 1_555 1_555
C29 N10 1_555 1_555
C30 N11 1_555 1_555
C31 N13 1_555 1_555
H22 C31 1_555 1_555
C32 N11 1_555 1_555
H23 C32 1_555 1_555
Cd2C O5 1_555 1_555
Cd2F O1 1_555 1_555
O1F Cd2 1_555 1_555
O2F Cd2 1_555 1_555
O5C Cd2 1_555 1_555
O2 Cd2F 1_555 1_555
N4 C18 1_555 1_555
N5 C17 1_555 1_555
N8 C23 1_555 1_555
N9 C24 1_555 1_555
N12 C29 1_555 1_555
N13 C30 1_555 1_555
C6 C9 1_555 1_555
C7 C8 1_555 1_555
C13 C14 1_555 1_555
C17 C18 1_555 1_555
C19 C20 1_555 1_555
C21 C22 1_555 1_555
C23 C24 1_555 1_555
C25 C26 1_555 1_555
C27 C28 1_555 1_555
C29 C30 1_555 1_555
C31 C32 1_555 1_555

#END
