
#######################################################################
#
#                 Cambridge Crystallographic Data Centre
#                                CCDC 
#
#######################################################################
#
# If this CIF has been generated from an entry in the Cambridge 
# Structural Database, then it will include bibliographic, chemical, 
# crystal, experimental, refinement or atomic coordinate data resulting 
# from the CCDC's data processing and validation procedures.
#
#######################################################################

data_XUTMIK
_symmetry_cell_setting           monoclinic
_symmetry_space_group_name_H-M   'P 21/c'
_symmetry_Int_Tables_number      14
_space_group_name_Hall           '-P 2ybc'
loop_
_symmetry_equiv_pos_site_id
_symmetry_equiv_pos_as_xyz
1 x,y,z
2 -x,1/2+y,1/2-z
3 -x,-y,-z
4 x,1/2-y,1/2+z
_cell_length_a                   8.7544(5)
_cell_length_b                   8.4785(7)
_cell_length_c                   39.392(4)
_cell_angle_alpha                90
_cell_angle_beta                 92.684(7)
_cell_angle_gamma                90
_cell_volume                     2920.63
loop_
_atom_site_label
_atom_site_type_symbol
_atom_site_fract_x
_atom_site_fract_y
_atom_site_fract_z
Zn1 Zn 0.56624(9) 0.91222(13) 0.23975(2)
Zn2 Zn -0.01060(12) 1.08691(15) 0.09772(3)
O1 O 0.1455(6) 1.0336(8) 0.13691(16)
O2 O 0.2362(8) 0.9741(10) 0.08775(17)
O3 O 0.5770(6) 0.6869(7) 0.25429(13)
O4 O 0.6413(5) 0.4438(7) 0.24400(16)
O5 O 1.3187(6) 0.5277(9) 0.20421(19)
O6 O 1.2322(5) 0.5059(8) 0.25643(15)
O7 O -0.1591(13) 1.0391(11) 0.0487(2)
O8 O -0.1067(9) 0.8637(11) 0.0866(2)
N1 N 0.5354(7) 0.8678(8) 0.18907(16)
N2 N -0.1829(9) 1.1768(10) 0.1256(2)
C1 C 0.2489(9) 0.9800(12) 0.1190(2)
C2 C 0.3854(8) 0.9083(11) 0.1369(2)
C3 C 0.4115(8) 0.9266(10) 0.17101(19)
H1 H 0.3399 0.9830 0.1828
C4 C 0.6346(8) 0.7826(10) 0.1714(2)
C5 C 0.6113(9) 0.7576(12) 0.1364(2)
H2 H 0.6820 0.6986 0.1249
C6 C 0.4885(8) 0.8175(12) 0.1192(2)
H3 H 0.4725 0.7989 0.0960
C7 C 0.7796(8) 0.7246(10) 0.1895(2)
C8 C 0.7921(8) 0.6351(10) 0.2188(2)
C9 C 0.6613(9) 0.5906(11) 0.2397(2)
C10 C 0.9345(8) 0.5800(10) 0.2306(2)
H4 H 0.9427 0.5209 0.2505
C11 C 1.0656(8) 0.6128(9) 0.2128(2)
C12 C 1.2168(9) 0.5429(10) 0.2253(3)
C13 C 1.0522(9) 0.6965(11) 0.1830(2)
H5 H 1.1386 0.7150 0.1707
C14 C 0.9152(8) 0.7522(11) 0.1713(2)
H6 H 0.9086 0.8092 0.1511
C15 C -0.1713(15) 0.9054(17) 0.0607(3)
C16 C -0.2685(13) 0.7851(16) 0.0413(3)
C17 C -0.349(2) 0.828(2) 0.0151(5)
H7 H -0.3458 0.9333 0.0085
C18 C -0.4485(16) 0.7147(16) -0.0058(4)
H8 H -0.5016 0.7413 -0.0260
C19 C -0.4507(13) 0.5584(14) 0.0097(3)
C20 C -0.3598(11) 0.5224(14) 0.0350(2)
H9 H -0.3547 0.4181 0.0424
C21 C -0.2698(11) 0.6335(16) 0.0516(3)
H10 H -0.2083 0.6035 0.0704
C22 C 0.1194(6) 1.4093(8) 0.10601(13)
H11 H 0.1166 1.3831 0.1289
C23 C 0.1734(8) 1.5562(8) 0.09651(19)
H12 H 0.2067 1.6283 0.1130
C24 C 0.1778(10) 1.5954(9) 0.0623(2)
H13 H 0.2139 1.6937 0.0559
C25 C 0.1281(9) 1.4876(11) 0.03759(15)
H14 H 0.1309 1.5138 0.0147
C26 C 0.0740(8) 1.3407(10) 0.04709(15)
H15 H 0.0408 1.2686 0.0306
N3 N 0.0697(7) 1.3015(7) 0.08130(16)
C27 C -0.3025(13) 1.2382(14) 0.1114(3)
H16 H -0.3066 1.2353 0.0877
C28 C -0.4245(15) 1.3069(15) 0.1253(4)
H17 H -0.5085 1.3462 0.1126
C29 C -0.4097(14) 1.3120(14) 0.1605(4)
H18 H -0.4857 1.3611 0.1724
C30 C -0.2918(16) 1.2497(14) 0.1776(3)
H19 H -0.2845 1.2502 0.2013
C31 C -0.1828(15) 1.1854(14) 0.1592(3)
H20 H -0.0986 1.1426 0.1712
O7B O -0.8409(13) -0.0391(11) -0.0487(2)
O8B O -0.8933(9) 0.1363(11) -0.0866(2)
C15B C -0.8287(15) 0.0946(17) -0.0607(3)
C16B C -0.7315(13) 0.2149(16) -0.0413(3)
C17B C -0.651(2) 0.172(2) -0.0151(5)
H7B H -0.6542 0.0667 -0.0085
C18B C -0.5515(16) 0.2853(16) 0.0058(4)
H8B H -0.4984 0.2587 0.0260
C19B C -0.5493(13) 0.4416(14) -0.0097(3)
C20B C -0.6402(11) 0.4776(14) -0.0350(2)
H9B H -0.6453 0.5819 -0.0424
C21B C -0.7302(11) 0.3665(16) -0.0516(3)
H10B H -0.7917 0.3965 -0.0704
Zn1B Zn -1.56624(9) 0.08778(13) -0.23975(2)
Zn2B Zn -0.98940(12) -0.08691(15) -0.09772(3)
O1B O -1.1455(6) -0.0336(8) -0.13691(16)
O2B O -1.2362(8) 0.0259(10) -0.08775(17)
O3B O -1.5770(6) 0.3131(7) -0.25429(13)
O4B O -1.6413(5) 0.5562(7) -0.24400(16)
O5B O -2.3187(6) 0.4723(9) -0.20421(19)
O6B O -2.2322(5) 0.4941(8) -0.25643(15)
N1B N -1.5354(7) 0.1322(8) -0.18907(16)
N2B N -0.8171(9) -0.1768(10) -0.1256(2)
C1B C -1.2489(9) 0.0200(12) -0.1190(2)
C2B C -1.3854(8) 0.0917(11) -0.1369(2)
C3B C -1.4115(8) 0.0734(10) -0.17101(19)
H1B H -1.3399 0.0170 -0.1828
C4B C -1.6346(8) 0.2174(10) -0.1714(2)
C5B C -1.6113(9) 0.2424(12) -0.1364(2)
H2B H -1.6820 0.3014 -0.1249
C6B C -1.4885(8) 0.1825(12) -0.1192(2)
H3B H -1.4725 0.2011 -0.0960
C7B C -1.7796(8) 0.2754(10) -0.1895(2)
C8B C -1.7921(8) 0.3649(10) -0.2188(2)
C9B C -1.6613(9) 0.4094(11) -0.2397(2)
C10B C -1.9345(8) 0.4200(10) -0.2306(2)
H4B H -1.9427 0.4791 -0.2505
C11B C -2.0656(8) 0.3872(9) -0.2128(2)
C12B C -2.2168(9) 0.4571(10) -0.2253(3)
C13B C -2.0522(9) 0.3035(11) -0.1830(2)
H5B H -2.1386 0.2850 -0.1707
C14B C -1.9152(8) 0.2478(11) -0.1713(2)
H6B H -1.9086 0.1908 -0.1511
C22B C -1.1194(6) -0.4093(8) -0.10601(13)
H11B H -1.1166 -0.3831 -0.1289
C23B C -1.1734(8) -0.5562(8) -0.09651(19)
H12B H -1.2067 -0.6283 -0.1130
C24B C -1.1778(10) -0.5954(9) -0.0623(2)
H13B H -1.2139 -0.6937 -0.0559
C25B C -1.1281(9) -0.4876(11) -0.03759(15)
H14B H -1.1309 -0.5138 -0.0147
C26B C -1.0740(8) -0.3407(10) -0.04709(15)
H15B H -1.0408 -0.2686 -0.0306
N3B N -1.0697(7) -0.3015(7) -0.08130(16)
C27B C -0.6975(13) -0.2382(14) -0.1114(3)
H16B H -0.6934 -0.2353 -0.0877
C28B C -0.5755(15) -0.3069(15) -0.1253(4)
H17B H -0.4915 -0.3462 -0.1126
C29B C -0.5903(14) -0.3120(14) -0.1605(4)
H18B H -0.5143 -0.3611 -0.1724
C30B C -0.7082(16) -0.2497(14) -0.1776(3)
H19B H -0.7155 -0.2502 -0.2013
C31B C -0.8172(15) -0.1854(14) -0.1592(3)
H20B H -0.9014 -0.1426 -0.1712
Zn1A Zn 0.43376(9) 0.41222(13) 0.26025(2)
Zn1A_2 Zn 1.43376(9) 0.41222(13) 0.26025(2)
Zn1C Zn -2.43376(9) 0.58778(13) -0.26025(2)
Zn1C_2 Zn -1.43376(9) 0.58778(13) -0.26025(2)
O4A O 0.3587(5) 0.9438(7) 0.25600(16)
O4C O -1.3587(5) 0.0562(7) -0.25600(16)
O5A O 0.6813(6) 1.0277(9) 0.29579(19)
O5C O -1.6813(6) -0.0277(9) -0.29579(19)
O6A O 0.7678(5) 1.0059(8) 0.24357(15)
O6C O -1.7678(5) -0.0059(8) -0.24357(15)
loop_
_geom_bond_atom_site_label_1
_geom_bond_atom_site_label_2
_geom_bond_site_symmetry_1
_geom_bond_site_symmetry_2
Zn1 O3 1_555 1_555
Zn2 O1 1_555 1_555
O1 C1 1_555 1_555
O2 Zn2 1_555 1_555
O3 C9 1_555 1_555
O4 C9 1_555 1_555
O5 C12 1_555 1_555
O6 C12 1_555 1_555
O7 Zn2 1_555 1_555
O8 Zn2 1_555 1_555
N1 Zn1 1_555 1_555
N2 Zn2 1_555 1_555
C1 O2 1_555 1_555
C2 C1 1_555 1_555
C3 N1 1_555 1_555
H1 C3 1_555 1_555
C4 N1 1_555 1_555
C5 C4 1_555 1_555
H2 C5 1_555 1_555
C6 C2 1_555 1_555
H3 C6 1_555 1_555
C7 C4 1_555 1_555
C8 C7 1_555 1_555
C9 C8 1_555 1_555
C10 C8 1_555 1_555
H4 C10 1_555 1_555
C11 C10 1_555 1_555
C12 C11 1_555 1_555
C13 C11 1_555 1_555
H5 C13 1_555 1_555
C14 C7 1_555 1_555
H6 C14 1_555 1_555
C15 O7 1_555 1_555
C16 C15 1_555 1_555
C17 C16 1_555 1_555
H7 C17 1_555 1_555
C18 C17 1_555 1_555
H8 C18 1_555 1_555
C19 C18 1_555 1_555
C20 C19 1_555 1_555
H9 C20 1_555 1_555
C21 C16 1_555 1_555
H10 C21 1_555 1_555
C22 H11 1_555 1_555
C23 C22 1_555 1_555
H12 C23 1_555 1_555
C24 C23 1_555 1_555
H13 C24 1_555 1_555
C25 C24 1_555 1_555
H14 C25 1_555 1_555
C26 C25 1_555 1_555
H15 C26 1_555 1_555
N3 Zn2 1_555 1_555
C27 N2 1_555 1_555
H16 C27 1_555 1_555
C28 C27 1_555 1_555
H17 C28 1_555 1_555
C29 C28 1_555 1_555
H18 C29 1_555 1_555
C30 C29 1_555 1_555
H19 C30 1_555 1_555
C31 N2 1_555 1_555
H20 C31 1_555 1_555
O7B C15B 1_555 1_555
O8B C15B 1_555 1_555
C15B C16B 1_555 1_555
C16B C17B 1_555 1_555
C17B H7B 1_555 1_555
C18B C17B 1_555 1_555
H8B C18B 1_555 1_555
C19B C19 1_555 1_555
C20B C19B 1_555 1_555
H9B C20B 1_555 1_555
C21B C16B 1_555 1_555
H10B C21B 1_555 1_555
Zn1B O3B 1_555 1_555
Zn2B O7B 1_555 1_555
O1B Zn2B 1_555 1_555
O2B Zn2B 1_555 1_555
O3B C9B 1_555 1_555
O4B C9B 1_555 1_555
O5B C12B 1_555 1_555
O6B C12B 1_555 1_555
N1B Zn1B 1_555 1_555
N2B Zn2B 1_555 1_555
C1B O1B 1_555 1_555
C2B C1B 1_555 1_555
C3B N1B 1_555 1_555
H1B C3B 1_555 1_555
C4B N1B 1_555 1_555
C5B C4B 1_555 1_555
H2B C5B 1_555 1_555
C6B C2B 1_555 1_555
H3B C6B 1_555 1_555
C7B C4B 1_555 1_555
C8B C7B 1_555 1_555
C9B C8B 1_555 1_555
C10B C8B 1_555 1_555
H4B C10B 1_555 1_555
C11B C10B 1_555 1_555
C12B C11B 1_555 1_555
C13B C11B 1_555 1_555
H5B C13B 1_555 1_555
C14B C7B 1_555 1_555
H6B C14B 1_555 1_555
C22B H11B 1_555 1_555
C23B C22B 1_555 1_555
H12B C23B 1_555 1_555
C24B C23B 1_555 1_555
H13B C24B 1_555 1_555
C25B C24B 1_555 1_555
H14B C25B 1_555 1_555
C26B C25B 1_555 1_555
H15B C26B 1_555 1_555
N3B Zn2B 1_555 1_555
C27B N2B 1_555 1_555
H16B C27B 1_555 1_555
C28B C27B 1_555 1_555
H17B C28B 1_555 1_555
C29B C28B 1_555 1_555
H18B C29B 1_555 1_555
C30B C29B 1_555 1_555
H19B C30B 1_555 1_555
C31B N2B 1_555 1_555
H20B C31B 1_555 1_555
Zn1A O4 1_555 1_555
Zn1A_2 O5 1_555 1_555
Zn1C O5B 1_555 1_555
Zn1C_2 O4B 1_555 1_555
O4A Zn1 1_555 1_555
O4C Zn1B 1_555 1_555
O5A Zn1 1_555 1_555
O5C Zn1B 1_555 1_555
O6A Zn1 1_555 1_555
O6C Zn1B 1_555 1_555
O6 Zn1A_2 1_555 1_555
O8 C15 1_555 1_555
C2 C3 1_555 1_555
C5 C6 1_555 1_555
C13 C14 1_555 1_555
C20 C21 1_555 1_555
C22 N3 1_555 1_555
C26 N3 1_555 1_555
C30 C31 1_555 1_555
O8B Zn2B 1_555 1_555
C18B C19B 1_555 1_555
C20B C21B 1_555 1_555
O2B C1B 1_555 1_555
O6B Zn1C 1_555 1_555
C2B C3B 1_555 1_555
C5B C6B 1_555 1_555
C13B C14B 1_555 1_555
C22B N3B 1_555 1_555
C26B N3B 1_555 1_555
C30B C31B 1_555 1_555

#END
