
#######################################################################
#
#                 Cambridge Crystallographic Data Centre
#                                CCDC 
#
#######################################################################
#
# If this CIF has been generated from an entry in the Cambridge 
# Structural Database, then it will include bibliographic, chemical, 
# crystal, experimental, refinement or atomic coordinate data resulting 
# from the CCDC's data processing and validation procedures.
#
#######################################################################

data_XUTPEH
_symmetry_cell_setting           triclinic
_symmetry_space_group_name_H-M   'P -1'
_symmetry_Int_Tables_number      2
_space_group_name_Hall           '-P 1'
loop_
_symmetry_equiv_pos_site_id
_symmetry_equiv_pos_as_xyz
1 x,y,z
2 -x,-y,-z
_cell_length_a                   9.7761(2)
_cell_length_b                   16.3455(3)
_cell_length_c                   21.3158(4)
_cell_angle_alpha                93.081(5)
_cell_angle_beta                 95.122(5)
_cell_angle_gamma                91.961(5)
_cell_volume                     3385.05
loop_
_atom_site_label
_atom_site_type_symbol
_atom_site_fract_x
_atom_site_fract_y
_atom_site_fract_z
P1 P 0.4069(3) 0.6901(2) 0.0771(1)
F1 F 0.4017(8) 0.7029(6) 0.0035(3)
F2 F 0.4085(8) 0.6730(6) 0.1497(3)
F3 F 0.5563(8) 0.7325(7) 0.0880(4)
F4 F 0.2567(8) 0.6469(6) 0.0665(4)
F5 F 0.3378(9) 0.7749(5) 0.0903(4)
F6 F 0.4752(9) 0.6041(6) 0.0649(4)
P2 P -0.3808(3) 0.1468(2) 0.4300(1)
F7 F -0.3898(7) 0.1214(5) 0.3563(3)
F8 F -0.3711(8) 0.1737(6) 0.5039(3)
F9 F -0.2337(8) 0.1139(7) 0.4387(4)
F10 F -0.5295(8) 0.1850(7) 0.4209(4)
F11 F -0.317(1) 0.2338(6) 0.4160(4)
F12 F -0.448(1) 0.0628(6) 0.4439(4)
Ag1 Ag -0.08868(8) 0.80377(4) 0.33284(4)
Ag2 Ag 0.04494(8) 0.30704(4) 0.15984(4)
N1 N 0.0274(8) 0.9159(5) 0.3635(4)
C1 C 0.144(1) 0.9156(6) 0.4003(5)
C2 C 0.224(1) 0.9843(7) 0.4184(7)
C3 C 0.180(1) 1.0595(6) 0.3987(6)
C4 C 0.056(1) 1.0625(6) 0.3612(5)
C5 C -0.0144(9) 0.9891(6) 0.3424(4)
C6 C 0.010(1) 1.1424(6) 0.3410(4)
O1 O 0.0648(8) 1.2077(4) 0.3595(4)
O2 O -0.1013(7) 1.1346(4) 0.2995(3)
C7 C -0.160(1) 1.2106(6) 0.2815(5)
C8 C -0.264(1) 1.1946(6) 0.2277(5)
O3 O -0.1965(7) 1.1759(5) 0.1724(3)
C9 C -0.282(1) 1.1729(7) 0.1159(6)
C10 C -0.202(1) 1.1526(7) 0.0625(5)
O4 O -0.0960(7) 1.2117(5) 0.0603(3)
C11 C -0.023(1) 1.2035(9) 0.0071(5)
C12 C 0.099(2) 1.247(2) 0.0110(7)
O5 O 0.1735(9) 1.2779(8) 0.0541(4)
C13 C 0.303(2) 1.310(2) 0.0564(8)
C14 C 0.352(2) 1.371(1) 0.0879(8)
O6 O 0.3316(9) 1.3790(6) 0.1538(4)
C15 C 0.361(1) 1.4588(8) 0.1792(7)
C16 C 0.368(1) 1.4588(8) 0.2493(6)
O7 O 0.2398(8) 1.4331(5) 0.2699(4)
C17 C 0.245(1) 1.4317(7) 0.3355(6)
C18 C 0.107(1) 1.4110(7) 0.3552(6)
O8 O 0.0155(7) 1.4779(4) 0.3403(4)
C19 C -0.098(1) 1.4635(7) 0.3044(5)
O9 O -0.144(1) 1.3972(5) 0.2838(6)
C20 C -0.168(1) 1.5400(6) 0.2882(5)
C21 C -0.1141(9) 1.6167(6) 0.3107(4)
N2 N -0.1721(8) 1.6863(5) 0.2917(4)
C22 C -0.287(1) 1.6799(6) 0.2520(6)
C23 C -0.343(1) 1.6045(8) 0.2285(7)
C24 C -0.285(1) 1.5339(7) 0.2452(6)
N3 N -0.0557(9) 0.4165(5) 0.1304(4)
C25 C -0.163(1) 0.4118(7) 0.0868(7)
C26 C -0.225(2) 0.4815(8) 0.0654(8)
C27 C -0.176(1) 0.5564(8) 0.0880(8)
C28 C -0.062(1) 0.5619(6) 0.1320(6)
C29 C -0.009(1) 0.4907(6) 0.1528(5)
C30 C -0.003(1) 0.6452(6) 0.1562(5)
O10 O -0.0503(9) 0.7078(5) 0.1402(4)
O11 O 0.1024(7) 0.6412(4) 0.2000(3)
C31 C 0.165(1) 0.7195(6) 0.2250(5)
C32 C 0.265(1) 0.7062(7) 0.2783(6)
O12 O 0.1948(7) 0.6770(5) 0.3285(3)
C33 C 0.271(1) 0.6845(7) 0.3875(5)
C34 C 0.178(1) 0.6662(7) 0.4379(5)
O13 O 0.0713(7) 0.7215(4) 0.4367(3)
C35 C -0.008(1) 0.7157(9) 0.4878(5)
C36 C -0.117(2) 0.774(2) 0.4869(7)
O14 O -0.2010(8) 0.7798(7) 0.4373(4)
C37 C -0.299(1) 0.8501(7) 0.4395(5)
C38 C -0.400(1) 0.845(1) 0.3951(7)
O15 O -0.3652(8) 0.8467(5) 0.3326(4)
C39 C -0.405(1) 0.9191(8) 0.3040(8)
C40 C -0.381(1) 0.9130(8) 0.2366(6)
O16 O -0.2375(8) 0.9069(5) 0.2294(3)
C41 C -0.203(2) 0.8999(7) 0.1667(6)
C42 C -0.050(2) 0.8948(7) 0.1680(6)
O17 O 0.0105(9) 0.9761(4) 0.1805(4)
C43 C 0.141(1) 0.9813(7) 0.2075(6)
O18 O 0.203(1) 0.9235(5) 0.2225(5)
C44 C 0.190(1) 1.0677(7) 0.2182(5)
C45 C 0.115(1) 1.1324(6) 0.1942(4)
N4 N 0.1598(8) 1.2103(5) 0.2042(4)
C46 C 0.276(1) 1.2283(7) 0.2387(6)
C47 C 0.360(1) 1.1693(8) 0.2656(6)
C48 C 0.317(1) 1.0883(8) 0.2547(6)
H1 H 0.1742 0.8647 0.4149
H2 H 0.3077 0.9808 0.4441
H3 H 0.2341 1.1082 0.4107
H4 H -0.0947 0.9898 0.3139
H5 H -0.0894 1.2467 0.2699
H6 H -0.2015 1.2351 0.3161
H7 H -0.3170 1.2418 0.2219
H8 H -0.3229 1.1495 0.2356
H9 H -0.3215 1.2248 0.1107
H10 H -0.3536 1.1322 0.1175
H11 H -0.2608 1.1513 0.0244
H12 H -0.1643 1.1003 0.0674
H13 H -0.0792 1.2212 -0.0279
H14 H -0.0051 1.1471 0.0001
H15 H 0.0792 1.2915 -0.0147
H16 H 0.1571 1.2107 -0.0094
H17 H 0.3153 1.3213 0.0140
H18 H 0.3594 1.2666 0.0690
H19 H 0.3142 1.4171 0.0690
H20 H 0.4482 1.3714 0.0849
H21 H 0.2902 1.4934 0.1644
H22 H 0.4463 1.4782 0.1667
H23 H 0.3919 1.5127 0.2666
H24 H 0.4363 1.4225 0.2636
H25 H 0.2754 1.4841 0.3538
H26 H 0.3069 1.3917 0.3496
H27 H 0.1132 1.4040 0.3993
H28 H 0.0709 1.3617 0.3332
H29 H -0.0348 1.6205 0.3401
H30 H -0.3311 1.7283 0.2398
H31 H -0.4234 1.6021 0.2000
H32 H -0.3218 1.4821 0.2282
H33 H -0.1981 0.3594 0.0700
H34 H -0.3021 0.4764 0.0348
H35 H -0.2187 0.6044 0.0741
H36 H 0.0658 0.4945 0.1848
H37 H 0.0953 0.7537 0.2388
H38 H 0.2092 0.7450 0.1930
H39 H 0.3138 0.7563 0.2916
H40 H 0.3283 0.6668 0.2658
H41 H 0.3094 0.7387 0.3948
H42 H 0.3430 0.6468 0.3883
H43 H 0.2292 0.6713 0.4780
H44 H 0.1400 0.6118 0.4306
H45 H 0.0504 0.7257 0.5257
H46 H -0.0481 0.6618 0.4866
H47 H -0.0735 0.8268 0.4960
H48 H -0.1715 0.7612 0.5200
H49 H -0.3525 0.9646 0.3243
H50 H -0.4999 0.9266 0.3080
H51 H -0.4141 0.9604 0.2172
H52 H -0.4297 0.8656 0.2169
H53 H -0.2323 0.9465 0.1451
H54 H -0.2465 0.8517 0.1458
H55 H -0.0260 0.8729 0.1284
H56 H -0.0174 0.8605 0.2003
H57 H 0.0292 1.1204 0.1700
H58 H 0.3050 1.2843 0.2457
H59 H 0.4426 1.1847 0.2906
H60 H 0.3727 1.0464 0.2713
N2_2 N -0.1721(8) 0.6863(5) 0.2917(4)
N4_2 N 0.1598(8) 0.2103(5) 0.2042(4)
Ag1_2 Ag -0.08868(8) 1.80377(4) 0.33284(4)
Ag2_2 Ag 0.04494(8) 1.30704(4) 0.15984(4)
C49? C 0.481(1) 0.0599(6) -0.0271(5)
C50? C 0.3875(1) 0.0952(6) 0.0101(5)
C51? C 0.3226(1) 0.0485(6) 0.0519(5)
C52? C 0.3515(1) -0.0334(6) 0.0565(5)
C53? C 0.4454(1) -0.0682(6) 0.0192(5)
C54? C 0.5101(1) -0.0221(6) -0.0225(5)
Cl1? Cl 0.6435(1) -0.0367(6) -0.0676(5)
C55? C 0.474(1) 0.5270(7) 0.5272(5)
C56? C 0.5083(1) 0.6100(7) 0.5289(5)
C57? C 0.6000(1) 0.6392(7) 0.4887(5)
C58? C 0.6570(1) 0.5855(7) 0.4468(5)
C59? C 0.6218(1) 0.5025(7) 0.4454(5)
C60? C 0.5307(1) 0.4732(7) 0.4853(5)
Cl2? Cl 0.3800(1) 0.4751(7) 0.5861(5)
C61? C -0.343(2) 0.781(2) 0.435(1)
H61? H 0.5257 0.0919 -0.0557
H62? H 0.3676 0.1514 0.0070
H63? H 0.2583 0.0727 0.0774
H64? H 0.3072 -0.0655 0.0852
H65? H 0.4653 -0.1244 0.0223
H66? H 0.4692 0.6468 0.5576
H67? H 0.6238 0.6962 0.4898
H68? H 0.7199 0.6054 0.4191
H69? H 0.6609 0.4656 0.4167
H70? H 0.5070 0.4162 0.4841
loop_
_geom_bond_atom_site_label_1
_geom_bond_atom_site_label_2
_geom_bond_site_symmetry_1
_geom_bond_site_symmetry_2
Ag1 N1 1_555 1_555
Ag2 N3 1_555 1_555
N1 C1 1_555 1_555
C1 C2 1_555 1_555
C2 C3 1_555 1_555
C3 C4 1_555 1_555
C4 C5 1_555 1_555
C5 N1 1_555 1_555
C6 C4 1_555 1_555
O1 C6 1_555 1_555
O2 C6 1_555 1_555
C7 O2 1_555 1_555
C8 C7 1_555 1_555
O3 C8 1_555 1_555
C9 O3 1_555 1_555
C10 C9 1_555 1_555
O4 C10 1_555 1_555
C11 O4 1_555 1_555
C12 C11 1_555 1_555
O5 C12 1_555 1_555
C13 O5 1_555 1_555
C14 C13 1_555 1_555
O6 C14 1_555 1_555
C15 O6 1_555 1_555
C16 C15 1_555 1_555
O7 C16 1_555 1_555
C17 O7 1_555 1_555
C18 C17 1_555 1_555
O8 C18 1_555 1_555
C19 O8 1_555 1_555
O9 C19 1_555 1_555
C20 C19 1_555 1_555
C21 C20 1_555 1_555
N2 C21 1_555 1_555
C22 N2 1_555 1_555
C23 C22 1_555 1_555
C24 C20 1_555 1_555
N3 C25 1_555 1_555
C25 C26 1_555 1_555
C26 C27 1_555 1_555
C27 C28 1_555 1_555
C28 C29 1_555 1_555
C29 N3 1_555 1_555
C30 C28 1_555 1_555
O10 C30 1_555 1_555
O11 C30 1_555 1_555
C31 O11 1_555 1_555
C32 C31 1_555 1_555
O12 C32 1_555 1_555
C33 O12 1_555 1_555
C34 C33 1_555 1_555
O13 C34 1_555 1_555
C35 O13 1_555 1_555
C36 C35 1_555 1_555
O14 Ag1 1_555 1_555
C37 O14 1_555 1_555
C38 C37 1_555 1_555
O15 C38 1_555 1_555
C39 O15 1_555 1_555
C40 C39 1_555 1_555
O16 C40 1_555 1_555
C41 O16 1_555 1_555
C42 C41 1_555 1_555
O17 C42 1_555 1_555
C43 O17 1_555 1_555
O18 C43 1_555 1_555
C44 C43 1_555 1_555
C45 C44 1_555 1_555
N4 C45 1_555 1_555
C46 N4 1_555 1_555
C47 C46 1_555 1_555
C48 C44 1_555 1_555
P1 F1 1_555 1_555
F2 P1 1_555 1_555
F3 P1 1_555 1_555
F4 P1 1_555 1_555
F5 P1 1_555 1_555
F6 P1 1_555 1_555
P2 F7 1_555 1_555
F8 P2 1_555 1_555
F9 P2 1_555 1_555
F10 P2 1_555 1_555
F11 P2 1_555 1_555
F12 P2 1_555 1_555
H1 C1 1_555 1_555
H2 C2 1_555 1_555
H3 C3 1_555 1_555
H4 C5 1_555 1_555
H5 C7 1_555 1_555
H6 C7 1_555 1_555
H7 C8 1_555 1_555
H8 C8 1_555 1_555
H9 C9 1_555 1_555
H10 C9 1_555 1_555
H11 C10 1_555 1_555
H12 C10 1_555 1_555
H13 C11 1_555 1_555
H14 C11 1_555 1_555
H15 C12 1_555 1_555
H16 C12 1_555 1_555
H17 C13 1_555 1_555
H18 C13 1_555 1_555
H19 C14 1_555 1_555
H20 C14 1_555 1_555
H21 C15 1_555 1_555
H22 C15 1_555 1_555
H23 C16 1_555 1_555
H24 C16 1_555 1_555
H25 C17 1_555 1_555
H26 C17 1_555 1_555
H27 C18 1_555 1_555
H28 C18 1_555 1_555
H29 C21 1_555 1_555
H30 C22 1_555 1_555
H31 C23 1_555 1_555
H32 C24 1_555 1_555
H33 C25 1_555 1_555
H34 C26 1_555 1_555
H35 C27 1_555 1_555
H36 C29 1_555 1_555
H37 C31 1_555 1_555
H38 C31 1_555 1_555
H39 C32 1_555 1_555
H40 C32 1_555 1_555
H41 C33 1_555 1_555
H42 C33 1_555 1_555
H43 C34 1_555 1_555
H44 C34 1_555 1_555
H45 C35 1_555 1_555
H46 C35 1_555 1_555
H47 C36 1_555 1_555
H48 C36 1_555 1_555
H49 C39 1_555 1_555
H50 C39 1_555 1_555
H51 C40 1_555 1_555
H52 C40 1_555 1_555
H53 C41 1_555 1_555
H54 C41 1_555 1_555
H55 C42 1_555 1_555
H56 C42 1_555 1_555
H57 C45 1_555 1_555
H58 C46 1_555 1_555
H59 C47 1_555 1_555
H60 C48 1_555 1_555
N2_2 Ag1 1_555 1_555
N4_2 Ag2 1_555 1_555
Ag1_2 N2 1_555 1_555
Ag2_2 N4 1_555 1_555
C23 C24 1_555 1_555
C36 O14 1_555 1_555
C47 C48 1_555 1_555

#END
