
#######################################################################
#
#                 Cambridge Crystallographic Data Centre
#                                CCDC 
#
#######################################################################
#
# If this CIF has been generated from an entry in the Cambridge 
# Structural Database, then it will include bibliographic, chemical, 
# crystal, experimental, refinement or atomic coordinate data resulting 
# from the CCDC's data processing and validation procedures.
#
#######################################################################

data_XUTPAD
_symmetry_cell_setting           orthorhombic
_symmetry_space_group_name_H-M   'P n n a'
_symmetry_Int_Tables_number      52
_space_group_name_Hall           '-P 2a 2bc'
loop_
_symmetry_equiv_pos_site_id
_symmetry_equiv_pos_as_xyz
1 x,y,z
2 1/2+x,y,-z
3 1/2+x,1/2-y,1/2+z
4 -x,1/2+y,1/2+z
5 -x,-y,-z
6 1/2-x,-y,z
7 1/2-x,1/2+y,1/2-z
8 x,1/2-y,1/2-z
_cell_length_a                   20.0363(1)
_cell_length_b                   24.8375(3)
_cell_length_c                   10.0921(4)
_cell_angle_alpha                90
_cell_angle_beta                 90
_cell_angle_gamma                90
_cell_volume                     5022.35
loop_
_atom_site_label
_atom_site_type_symbol
_atom_site_fract_x
_atom_site_fract_y
_atom_site_fract_z
Ag1 Ag 0.7500 0.0000 -0.17374(9)
N1 N 0.6445(3) -0.0199(3) -0.1849(6)
C1 C 0.6142(3) -0.0400(3) -0.0779(7)
C2 C 0.5479(3) -0.0545(2) -0.0771(6)
C3 C 0.5113(3) -0.0490(3) -0.1926(7)
C4 C 0.5420(4) -0.0290(3) -0.3016(7)
C5 C 0.6086(4) -0.0140(3) -0.2964(7)
C6 C 0.5154(3) -0.0761(3) 0.0438(7)
O1 O 0.4575(2) -0.0887(2) 0.0471(5)
O2 O 0.5564(2) -0.0802(2) 0.1451(5)
C7 C 0.5290(4) -0.1040(3) 0.2654(8)
C8 C 0.5863(4) -0.1156(4) 0.3561(8)
O3 O 0.6274(3) -0.1547(2) 0.2940(6)
C9 C 0.6846(4) -0.1679(4) 0.361(1)
C10 C 0.7245(4) -0.2066(4) 0.290(1)
O4 O 0.6865(3) -0.2500 0.2500
H1 H 0.6395 -0.0446 0.0010
H2 H 0.4656 -0.0591 -0.1954
H3 H 0.5178 -0.0253 -0.3820
H4 H 0.6293 0.0007 -0.3731
H5 H 0.5061 -0.1364 0.2447
H6 H 0.4990 -0.0795 0.3064
H7 H 0.5702 -0.1291 0.4382
H8 H 0.6111 -0.0836 0.3713
H9 H 0.6727 -0.1828 0.4446
H10 H 0.7102 -0.1362 0.3743
H11 H 0.7593 -0.2190 0.3464
H12 H 0.7433 -0.1897 0.2143
C10G C 0.7245(4) -0.2934(4) 0.210(1)
C9G C 0.6846(4) -0.3321(4) 0.139(1)
O3G O 0.6274(3) -0.3453(2) 0.2060(6)
C8G C 0.5863(4) -0.3844(4) 0.1439(8)
C7G C 0.5290(4) -0.3960(3) 0.2346(8)
O2G O 0.5564(2) -0.4198(2) 0.3549(5)
C6G C 0.5154(3) -0.4239(3) 0.4562(7)
C2G C 0.5479(3) -0.4455(2) 0.5771(6)
C1G C 0.6142(3) -0.4600(3) 0.5779(7)
N1G N 0.6445(3) -0.4801(3) 0.6849(6)
C5G C 0.6086(4) -0.4860(3) 0.7964(7)
C4G C 0.5420(4) -0.4710(3) 0.8016(7)
C3G C 0.5113(3) -0.4510(3) 0.6926(7)
H2G H 0.4656 -0.4409 0.6954
H3G H 0.5178 -0.4747 0.8820
H4G H 0.6293 -0.5007 0.8731
H1G H 0.6395 -0.4554 0.4990
O1G O 0.4575(2) -0.4113(2) 0.4529(5)
H5G H 0.5061 -0.3636 0.2553
H6G H 0.4990 -0.4205 0.1936
H7G H 0.5702 -0.3709 0.0618
H8G H 0.6111 -0.4164 0.1287
H9G H 0.6727 -0.3172 0.0554
H10G H 0.7102 -0.3638 0.1257
H11G H 0.7593 -0.2810 0.1536
H12G H 0.7433 -0.3103 0.2857
N1E N 0.8555(3) 0.0199(3) -0.1849(6)
Ag1F Ag 0.7500 -0.5000 0.67374(9)
Ag2 Ag 0.55048(5) -0.2500 0.2500
N2 N 0.5326(3) -0.2252(2) 0.0486(7)
C11 C 0.5843(3) -0.2077(3) -0.0211(7)
C12 C 0.5774(4) -0.1876(3) -0.1492(7)
C13 C 0.5129(4) -0.1851(3) -0.2027(7)
C14 C 0.4609(4) -0.2028(3) -0.1322(8)
C15 C 0.4724(4) -0.2231(3) -0.0076(9)
C16 C 0.6345(4) -0.1676(3) -0.2250(7)
O5 O 0.6304(3) -0.1472(3) -0.3322(5)
O6 O 0.6914(3) -0.1744(3) -0.1591(6)
C17 C 0.7514(5) -0.1512(5) -0.217(1)
C18 C 0.7979(4) -0.1390(4) -0.101(1)
O7 O 0.7667(3) -0.0990(3) -0.0229(6)
C19 C 0.8066(4) -0.0833(4) 0.0857(9)
C20 C 0.7706(4) -0.0458(4) 0.1679(9)
O8 O 0.7500 0.0000 0.0944(7)
H13 H 0.6275 -0.2089 0.0175
H14 H 0.5062 -0.1709 -0.2891
H15 H 0.4170 -0.2014 -0.1674
H16 H 0.4354 -0.2363 0.0413
H17 H 0.7409 -0.1190 -0.2633
H18 H 0.7718 -0.1761 -0.2757
H19 H 0.8396 -0.1262 -0.1325
H20 H 0.8048 -0.1706 -0.0493
H21 H 0.8462 -0.0666 0.0540
H22 H 0.8179 -0.1141 0.1365
H23 H 0.7988 -0.0344 0.2383
H24 H 0.7324 -0.0632 0.2033
C20E C 0.7294(4) 0.0458(4) 0.1679(9)
C19E C 0.6934(4) 0.0833(4) 0.0857(9)
O7E O 0.7333(3) 0.0990(3) -0.0229(6)
C18E C 0.7021(4) 0.1390(4) -0.101(1)
C17E C 0.7486(5) 0.1512(5) -0.217(1)
O6E O 0.8086(3) 0.1744(3) -0.1591(6)
C16E C 0.8655(4) 0.1676(3) -0.2250(7)
C12E C 0.9226(4) 0.1876(3) -0.1492(7)
C11E C 0.9157(3) 0.2077(3) -0.0211(7)
N2E N 0.9674(3) 0.2252(2) 0.0486(7)
C15E C 1.0276(4) 0.2231(3) -0.0076(9)
C14E C 1.0391(4) 0.2028(3) -0.1322(8)
C13E C 0.9871(4) 0.1851(3) -0.2027(7)
H14E H 0.9938 0.1709 -0.2891
H15E H 1.0830 0.2014 -0.1674
H16E H 1.0646 0.2363 0.0413
H13E H 0.8725 0.2089 0.0175
O5E O 0.8696(3) 0.1472(3) -0.3322(5)
H17E H 0.7591 0.1190 -0.2633
H18E H 0.7282 0.1761 -0.2757
H19E H 0.6604 0.1262 -0.1325
H20E H 0.6952 0.1706 -0.0493
H21E H 0.6538 0.0666 0.0540
H22E H 0.6821 0.1141 0.1365
H23E H 0.7012 0.0344 0.2383
H24E H 0.7676 0.0632 0.2033
N2G N 0.5326(3) -0.2748(2) 0.4514(7)
Ag2E Ag 0.94952(5) 0.2500 0.2500
B1 B 0.6193(5) 0.1233(6) 0.472(1)
F1 F 0.6354(6) 0.1541(7) 0.381(1)
F2 F 0.6180(7) 0.1582(7) 0.571(1)
F3 F 0.6797(6) 0.0961(6) 0.487(1)
F4 F 0.5643(5) 0.0973(7) 0.464(1)
F5? F 0.6225(7) 0.1436(7) 0.351(1)
F6? F 0.569(1) 0.1504(8) 0.525(2)
F7? F 0.6503(8) 0.1137(7) 0.567(1)
F8? F 0.593(1) 0.0733(7) 0.454(2)
loop_
_geom_bond_atom_site_label_1
_geom_bond_atom_site_label_2
_geom_bond_site_symmetry_1
_geom_bond_site_symmetry_2
Ag1 N1 1_555 1_555
Ag2 N2 1_555 1_555
N1 C1 1_555 1_555
C1 C2 1_555 1_555
C2 C3 1_555 1_555
C3 C4 1_555 1_555
C4 C5 1_555 1_555
C5 N1 1_555 1_555
C6 C2 1_555 1_555
O1 C6 1_555 1_555
O2 C6 1_555 1_555
C7 O2 1_555 1_555
C8 C7 1_555 1_555
O3 C8 1_555 1_555
C9 O3 1_555 1_555
C10 C9 1_555 1_555
O4 C10 1_555 1_555
N2 C11 1_555 1_555
C11 C12 1_555 1_555
C12 C13 1_555 1_555
C13 C14 1_555 1_555
C14 C15 1_555 1_555
C15 N2 1_555 1_555
C16 C12 1_555 1_555
O5 C16 1_555 1_555
O6 C16 1_555 1_555
C17 O6 1_555 1_555
C18 C17 1_555 1_555
O7 C18 1_555 1_555
C19 O7 1_555 1_555
C20 C19 1_555 1_555
O8 C20 1_555 1_555
B1 F1 1_555 1_555
F2 B1 1_555 1_555
F3 B1 1_555 1_555
F4 B1 1_555 1_555
H1 C1 1_555 1_555
H2 C3 1_555 1_555
H3 C4 1_555 1_555
H4 C5 1_555 1_555
H5 C7 1_555 1_555
H6 C7 1_555 1_555
H7 C8 1_555 1_555
H8 C8 1_555 1_555
H9 C9 1_555 1_555
H10 C9 1_555 1_555
H11 C10 1_555 1_555
H12 C10 1_555 1_555
H13 C11 1_555 1_555
H14 C13 1_555 1_555
H15 C14 1_555 1_555
H16 C15 1_555 1_555
H17 C17 1_555 1_555
H18 C17 1_555 1_555
H19 C18 1_555 1_555
H20 C18 1_555 1_555
H21 C19 1_555 1_555
H22 C19 1_555 1_555
H23 C20 1_555 1_555
H24 C20 1_555 1_555
C10G O4 1_555 1_555
C9G C10G 1_555 1_555
O3G C9G 1_555 1_555
C8G O3G 1_555 1_555
C7G C8G 1_555 1_555
O2G C7G 1_555 1_555
C6G O2G 1_555 1_555
C2G C6G 1_555 1_555
C1G C2G 1_555 1_555
N1G C1G 1_555 1_555
C5G N1G 1_555 1_555
C4G C5G 1_555 1_555
C3G C2G 1_555 1_555
H2G C3G 1_555 1_555
H3G C4G 1_555 1_555
H4G C5G 1_555 1_555
H1G C1G 1_555 1_555
O1G C6G 1_555 1_555
H5G C7G 1_555 1_555
H6G C7G 1_555 1_555
H7G C8G 1_555 1_555
H8G C8G 1_555 1_555
H9G C9G 1_555 1_555
H10G C9G 1_555 1_555
H11G C10G 1_555 1_555
H12G C10G 1_555 1_555
C20E O8 1_555 1_555
C19E C20E 1_555 1_555
O7E C19E 1_555 1_555
C18E O7E 1_555 1_555
C17E C18E 1_555 1_555
O6E C17E 1_555 1_555
C16E O6E 1_555 1_555
C12E C16E 1_555 1_555
C11E C12E 1_555 1_555
N2E C11E 1_555 1_555
C15E N2E 1_555 1_555
C14E C15E 1_555 1_555
C13E C12E 1_555 1_555
H14E C13E 1_555 1_555
H15E C14E 1_555 1_555
H16E C15E 1_555 1_555
H13E C11E 1_555 1_555
O5E C16E 1_555 1_555
H17E C17E 1_555 1_555
H18E C17E 1_555 1_555
H19E C18E 1_555 1_555
H20E C18E 1_555 1_555
H21E C19E 1_555 1_555
H22E C19E 1_555 1_555
H23E C20E 1_555 1_555
H24E C20E 1_555 1_555
N1E Ag1 1_555 1_555
N2G Ag2 1_555 1_555
Ag1F N1G 1_555 1_555
Ag2E N2E 1_555 1_555
C4G C3G 1_555 1_555
C14E C13E 1_555 1_555

#END
