
#######################################################################
#
#                 Cambridge Crystallographic Data Centre
#                                CCDC 
#
#######################################################################
#
# If this CIF has been generated from an entry in the Cambridge 
# Structural Database, then it will include bibliographic, chemical, 
# crystal, experimental, refinement or atomic coordinate data resulting 
# from the CCDC's data processing and validation procedures.
#
#######################################################################

data_XUTREJ
_symmetry_cell_setting           triclinic
_symmetry_space_group_name_H-M   'P -1'
_symmetry_Int_Tables_number      2
_space_group_name_Hall           '-P 1'
loop_
_symmetry_equiv_pos_site_id
_symmetry_equiv_pos_as_xyz
1 x,y,z
2 -x,-y,-z
_cell_length_a                   8.018(3)
_cell_length_b                   9.104(3)
_cell_length_c                   10.484(4)
_cell_angle_alpha                73.86(2)
_cell_angle_beta                 72.86(3)
_cell_angle_gamma                80.71(3)
_cell_volume                     699.836
loop_
_atom_site_label
_atom_site_type_symbol
_atom_site_fract_x
_atom_site_fract_y
_atom_site_fract_z
Mn1 Mn 0.40707(5) 0.49142(4) 0.17518(3)
S1 S -0.01850(9) 0.16652(9) 0.15798(7)
O1 O 0.2228(3) 0.3859(3) 0.1229(2)
O2 O 0.3369(3) 0.4230(3) -0.1031(2)
O3 O -0.3126(3) 0.3040(2) -0.0434(2)
O4 O -0.4385(3) 0.2716(2) 0.1812(2)
N1 N 0.2583(3) 0.3771(3) 0.3963(2)
N2 N 0.3691(3) 0.6532(3) 0.3195(2)
C1 C 0.2285(3) 0.3713(3) 0.0070(3)
C2 C 0.0868(4) 0.2875(3) -0.0048(3)
H1 H 0.1383 0.2252 -0.0705
H2 H -0.0003 0.3621 -0.0395
C3 C -0.1896(3) 0.1059(3) 0.1087(3)
H3 H -0.1385 0.067 0.0271
H4 H -0.2453 0.0233 0.1821
C4 C -0.3265(3) 0.2379(3) 0.0797(3)
C5 C 0.1874(4) 0.2449(3) 0.4265(3)
H5 H 0.2061 0.1944 0.3569
C6 C 0.0871(4) 0.1787(4) 0.5567(3)
H6 H 0.0393 0.0863 0.5744
C7 C 0.0603(4) 0.2544(4) 0.6590(3)
H7 H -0.0076 0.214 0.7472
C8 C 0.1342(4) 0.3895(4) 0.6302(3)
H8 H 0.1182 0.441 0.6987
C9 C 0.2333(3) 0.4487(3) 0.4972(3)
C10 C 0.3087(3) 0.5976(3) 0.4558(3)
C11 C 0.3122(4) 0.6784(4) 0.5491(3)
H9 H 0.2745 0.6362 0.6433
C12 C 0.3724(4) 0.8218(4) 0.4997(4)
H10 H 0.3767 0.8776 0.5606
C13 C 0.4264(4) 0.8830(4) 0.3599(4)
H11 H 0.4623 0.9818 0.3246
C14 C 0.4254(4) 0.7933(4) 0.2741(3)
H12 H 0.4661 0.8323 0.1796
O2A O 0.6631(3) 0.5770(3) 0.1031(2)
O3A O 0.3126(3) 0.6960(2) 0.0434(2)
O4_2 O 0.5615(3) 0.2716(2) 0.1812(2)
Mn1A Mn 0.59293(5) 0.50858(4) -0.17518(3)
Mn1A_2 Mn -0.40707(5) 0.50858(4) -0.17518(3)
Mn1_2 Mn -0.59293(5) 0.49142(4) 0.17518(3)
loop_
_geom_bond_atom_site_label_1
_geom_bond_atom_site_label_2
_geom_bond_site_symmetry_1
_geom_bond_site_symmetry_2
Mn1 O1 1_555 1_555
S1 C2 1_555 1_555
O1 C1 1_555 1_555
O2 C1 1_555 1_555
O3 C4 1_555 1_555
O4 C4 1_555 1_555
N1 Mn1 1_555 1_555
N2 Mn1 1_555 1_555
C1 C2 1_555 1_555
C2 H1 1_555 1_555
H2 C2 1_555 1_555
C3 S1 1_555 1_555
H3 C3 1_555 1_555
H4 C3 1_555 1_555
C4 C3 1_555 1_555
C5 N1 1_555 1_555
H5 C5 1_555 1_555
C6 C5 1_555 1_555
H6 C6 1_555 1_555
C7 C6 1_555 1_555
H7 C7 1_555 1_555
C8 C7 1_555 1_555
H8 C8 1_555 1_555
C9 N1 1_555 1_555
C10 N2 1_555 1_555
C11 C10 1_555 1_555
H9 C11 1_555 1_555
C12 C11 1_555 1_555
H10 C12 1_555 1_555
C13 C12 1_555 1_555
H11 C13 1_555 1_555
C14 N2 1_555 1_555
H12 C14 1_555 1_555
O2A Mn1 1_555 1_555
O3A Mn1 1_555 1_555
O4_2 Mn1 1_555 1_555
Mn1A O2 1_555 1_555
Mn1A_2 O3 1_555 1_555
Mn1_2 O4 1_555 1_555
C8 C9 1_555 1_555
C9 C10 1_555 1_555
C13 C14 1_555 1_555

#END
