
#######################################################################
#
#                 Cambridge Crystallographic Data Centre
#                                CCDC 
#
#######################################################################
#
# If this CIF has been generated from an entry in the Cambridge 
# Structural Database, then it will include bibliographic, chemical, 
# crystal, experimental, refinement or atomic coordinate data resulting 
# from the CCDC's data processing and validation procedures.
#
#######################################################################

data_XUVDEZ
_symmetry_cell_setting           monoclinic
_symmetry_space_group_name_H-M   'P 21/c'
_symmetry_Int_Tables_number      14
_space_group_name_Hall           '-P 2ybc'
loop_
_symmetry_equiv_pos_site_id
_symmetry_equiv_pos_as_xyz
1 x,y,z
2 -x,1/2+y,1/2-z
3 -x,-y,-z
4 x,1/2-y,1/2+z
_cell_length_a                   9.2363(9)
_cell_length_b                   26.665(3)
_cell_length_c                   10.3514(12)
_cell_angle_alpha                90
_cell_angle_beta                 107.041(4)
_cell_angle_gamma                90
_cell_volume                     2437.47
loop_
_atom_site_label
_atom_site_type_symbol
_atom_site_fract_x
_atom_site_fract_y
_atom_site_fract_z
C1 C 0.0988(3) 0.08107(9) 0.8459(2)
H1 H 0.1414 0.0501 0.8378
C2 C -0.0129(3) 0.08339(10) 0.9125(3)
H2 H -0.0446 0.0543 0.9458
C3 C -0.0750(3) 0.12844(9) 0.9283(2)
H3 H -0.1494 0.1304 0.9721
C4 C -0.0250(2) 0.17188(9) 0.8774(2)
C5 C 0.0854(2) 0.16607(8) 0.8092(2)
C6 C -0.0809(3) 0.22096(9) 0.8926(2)
H4 H -0.1550 0.2248 0.9364
C7 C -0.0276(2) 0.26181(9) 0.8442(2)
H5 H -0.0652 0.2933 0.8560
C8 C 0.0858(2) 0.25781(8) 0.7749(2)
C9 C 0.1477(3) 0.29942(9) 0.7272(2)
H6 H 0.1190 0.3318 0.7428
C10 C 0.2515(3) 0.29179(9) 0.6571(2)
H7 H 0.2954 0.3189 0.6262
C11 C 0.2898(2) 0.24257(8) 0.6332(2)
H8 H 0.3551 0.2379 0.5809
C12 C 0.1381(2) 0.20983(8) 0.7530(2)
C13 C 0.0136(2) 0.11422(8) 0.4722(2)
H9 H -0.0207 0.1358 0.5274
C14 C 0.0167(2) 0.06629(8) 0.3084(2)
H10 H -0.0114 0.0480 0.2285
C15 C 0.1567(2) 0.06736(8) 0.3975(2)
H11 H 0.2403 0.0498 0.3886
C16 C 0.5038(3) 0.12762(10) 0.4716(2)
H12 H 0.4330 0.1057 0.4178
C17 C 0.6965(3) 0.17464(8) 0.5420(2)
H13 H 0.7856 0.1922 0.5496
C18 C 0.6138(3) 0.17654(8) 0.6305(2)
H14 H 0.6380 0.1955 0.7093
C19 C 0.5303(2) 0.11715(8) 0.9961(2)
H15 H 0.5115 0.0828 0.9918
C20 C 0.5307(2) 0.19405(8) 0.9406(2)
H16 H 0.5132 0.2239 0.8919
C21 C 0.6116(2) 0.18960(8) 1.0728(2)
H17 H 0.6590 0.2157 1.1289
C22 C 0.3208(2) 0.00622(8) 0.6926(2)
H18 H 0.2167 0.0068 0.6519
C23 C 0.5499(2) 0.03025(9) 0.7759(2)
H19 H 0.6362 0.0501 0.8050
C24 C 0.5469(2) -0.02076(8) 0.7805(2)
H20 H 0.6304 -0.0415 0.8139
N1 N 0.1470(2) 0.12097(7) 0.79379(17)
N2 N 0.23829(19) 0.20225(7) 0.68076(17)
N3 N 0.15643(19) 0.09868(7) 0.50402(18)
N4 N -0.0779(2) 0.09667(7) 0.35522(18)
N5 N 0.4895(2) 0.14642(7) 0.58658(18)
N6 N 0.6268(2) 0.14244(7) 0.43907(18)
N7 N 0.61193(19) 0.14008(7) 1.10995(17)
N8 N 0.47846(19) 0.14743(7) 0.88998(17)
N9 N 0.3988(2) -0.03641(7) 0.72725(18)
N10 N 0.4042(2) 0.04783(7) 0.72105(18)
Fe1 Fe 0.33032(3) 0.123952(11) 0.68742(3)
Fe2 Fe 0.30682(3) -0.106588(11) 0.70769(3)
N4B N 0.0779(2) -0.09667(7) 0.64478(18)
N6B N 0.3732(2) -0.14244(7) 0.56093(18)
N7B N 0.38807(19) -0.14008(7) 0.89005(17)
Fe2B Fe -0.30682(3) 0.106588(11) 0.29231(3)
Fe2B_2 Fe 0.69318(3) 0.106588(11) 0.29231(3)
Fe2B_3 Fe 0.69318(3) 0.106588(11) 1.29231(3)
loop_
_geom_bond_atom_site_label_1
_geom_bond_atom_site_label_2
_geom_bond_site_symmetry_1
_geom_bond_site_symmetry_2
C1 H1 1_555 1_555
C2 C1 1_555 1_555
H2 C2 1_555 1_555
C3 C2 1_555 1_555
H3 C3 1_555 1_555
C4 C3 1_555 1_555
C5 C4 1_555 1_555
C6 C4 1_555 1_555
H4 C6 1_555 1_555
C7 C6 1_555 1_555
H5 C7 1_555 1_555
C8 C7 1_555 1_555
C9 C8 1_555 1_555
H6 C9 1_555 1_555
C10 C9 1_555 1_555
H7 C10 1_555 1_555
C11 C10 1_555 1_555
H8 C11 1_555 1_555
C12 C5 1_555 1_555
C13 H9 1_555 1_555
C14 H10 1_555 1_555
C15 C14 1_555 1_555
H11 C15 1_555 1_555
C16 H12 1_555 1_555
C17 H13 1_555 1_555
C18 C17 1_555 1_555
H14 C18 1_555 1_555
C19 H15 1_555 1_555
C20 H16 1_555 1_555
C21 C20 1_555 1_555
H17 C21 1_555 1_555
C22 H18 1_555 1_555
C23 H19 1_555 1_555
C24 C23 1_555 1_555
H20 C24 1_555 1_555
N1 C1 1_555 1_555
N2 C11 1_555 1_555
N3 C13 1_555 1_555
N4 C13 1_555 1_555
N5 C16 1_555 1_555
N6 C16 1_555 1_555
N7 C19 1_555 1_555
N8 C19 1_555 1_555
N9 C22 1_555 1_555
N10 C22 1_555 1_555
Fe1 N1 1_555 1_555
Fe2 N9 1_555 1_555
N4B Fe2 1_555 1_555
N6B Fe2 1_555 1_555
N7B Fe2 1_555 1_555
Fe2B N4 1_555 1_555
Fe2B_2 N6 1_555 1_555
Fe2B_3 N7 1_555 1_555
C5 N1 1_555 1_555
C8 C12 1_555 1_555
C12 N2 1_555 1_555
C14 N4 1_555 1_555
C15 N3 1_555 1_555
C17 N6 1_555 1_555
C18 N5 1_555 1_555
C20 N8 1_555 1_555
C21 N7 1_555 1_555
C23 N10 1_555 1_555
C24 N9 1_555 1_555
N2 Fe1 1_555 1_555
N3 Fe1 1_555 1_555
N5 Fe1 1_555 1_555
N8 Fe1 1_555 1_555
N10 Fe1 1_555 1_555

#END
