
#######################################################################
#
#                 Cambridge Crystallographic Data Centre
#                                CCDC 
#
#######################################################################
#
# If this CIF has been generated from an entry in the Cambridge 
# Structural Database, then it will include bibliographic, chemical, 
# crystal, experimental, refinement or atomic coordinate data resulting 
# from the CCDC's data processing and validation procedures.
#
#######################################################################

data_XUVHEB
_symmetry_cell_setting           orthorhombic
_symmetry_space_group_name_H-M   'P b c n'
_symmetry_Int_Tables_number      60
_space_group_name_Hall           '-P 2n 2ab'
loop_
_symmetry_equiv_pos_site_id
_symmetry_equiv_pos_as_xyz
1 x,y,z
2 1/2+x,1/2+y,1/2-z
3 x,-y,1/2+z
4 1/2-x,1/2+y,z
5 -x,-y,-z
6 1/2-x,1/2-y,1/2+z
7 -x,y,1/2-z
8 1/2+x,1/2-y,-z
_cell_length_a                   14.532(3)
_cell_length_b                   25.037(5)
_cell_length_c                   18.184(4)
_cell_angle_alpha                90
_cell_angle_beta                 90
_cell_angle_gamma                90
_cell_volume                     6616.02
loop_
_atom_site_label
_atom_site_type_symbol
_atom_site_fract_x
_atom_site_fract_y
_atom_site_fract_z
Zn1 Zn 0.46464(4) 0.35192(2) 0.05685(3)
Zn2 Zn 0.5000 0.35163(3) 0.2500
N1 N 0.4748(3) 0.35181(19) -0.0572(2)
O1 O 0.3336(3) 0.3471(2) 0.0794(3)
O2 O 0.0300(3) 0.78563(16) 0.4260(2)
O3 O 0.4673(3) 0.41739(16) 0.4278(2)
O7 O 0.4440(7) 0.4078(3) 0.3112(3)
O8 O 0.3848(4) 0.3547(5) 0.1854(3)
O9 O 0.0554(10) 0.7958(4) 0.3124(4)
C1 C 0.5059(4) 0.3951(2) -0.0929(3)
H1 H 0.5212 0.4254 -0.0660
C2 C 0.5160(4) 0.3957(3) -0.1683(3)
H2 H 0.5372 0.4265 -0.1915
C3 C 0.4951(4) 0.3514(2) -0.2095(3)
C4 C 0.4620(5) 0.3071(3) -0.1726(3)
H3 H 0.4460 0.2764 -0.1984
C5 C 0.4528(6) 0.3089(3) -0.0966(3)
H4 H 0.4305 0.2789 -0.0722
C6 C 0.3732(4) 0.4799(2) 0.3676(3)
C7 C 0.3500(5) 0.5054(3) 0.4337(3)
H5 H 0.3691 0.4913 0.4785
C8 C 0.2983(4) 0.5518(3) 0.4317(3)
H6 H 0.2846 0.5694 0.4754
C9 C 0.2665(4) 0.5728(2) 0.3652(3)
C10 C 0.2890(5) 0.5464(3) 0.3005(3)
H7 H 0.2690 0.5603 0.2558
C11 C 0.3407(6) 0.4997(3) 0.3014(3)
H8 H 0.3534 0.4819 0.2577
C12 C 0.2120(4) 0.6229(2) 0.3645(3)
C13 C 0.1728(9) 0.6429(4) 0.4246(4)
H9 H 0.1782 0.6241 0.4685
C14 C 0.2039(13) 0.6533(6) 0.3049(5)
H10 H 0.2346 0.6436 0.2621
C15 C 0.3218(4) 0.3488(3) 0.1466(3)
C16 C 0.2262(4) 0.3443(3) 0.1772(3)
C17 C 0.1517(4) 0.3339(3) 0.1327(3)
H11 H 0.1606 0.3284 0.0826
C18 C 0.0650(4) 0.3317(4) 0.1613(4)
H12 H 0.0158 0.3251 0.1299
C19 C 0.0480(4) 0.3389(3) 0.2349(3)
C20 C 0.1223(5) 0.3463(4) 0.2797(4)
H13 H 0.1135 0.3489 0.3303
C21 C 0.2112(4) 0.3501(4) 0.2511(4)
H14 H 0.2606 0.3566 0.2824
C22 C 0.0631(6) 0.7708(3) 0.3676(4)
C23 C 0.1124(5) 0.7194(3) 0.3657(3)
C24 C 0.1242(8) 0.6906(4) 0.4248(4)
H15 H 0.0991 0.7026 0.4689
C25 C 0.1502(15) 0.6996(6) 0.3054(5)
H16 H 0.1405 0.7173 0.2612
C26 C 0.4325(5) 0.4310(3) 0.3683(3)
C3F C 0.5049(4) 0.3514(2) -0.2905(3)
C2F C 0.4840(4) 0.3957(3) -0.3317(3)
C1F C 0.4941(4) 0.3951(2) -0.4071(3)
N1F N 0.5252(3) 0.35181(19) -0.4428(2)
C5F C 0.5472(6) 0.3089(3) -0.4034(3)
C4F C 0.5380(5) 0.3071(3) -0.3274(3)
H3F H 0.5540 0.2764 -0.3016
H4F H 0.5695 0.2789 -0.4278
H1F H 0.4788 0.4254 -0.4340
H2F H 0.4628 0.4265 -0.3085
C19F C -0.0480(4) 0.3389(3) 0.2651(3)
C18F C -0.0650(4) 0.3317(4) 0.3387(4)
C17F C -0.1517(4) 0.3339(3) 0.3673(3)
C16F C -0.2262(4) 0.3443(3) 0.3228(3)
C15F C -0.3218(4) 0.3488(3) 0.3534(3)
O1F O -0.3336(3) 0.3471(2) 0.4206(3)
O8F O -0.3848(4) 0.3547(5) 0.3146(3)
C21F C -0.2112(4) 0.3501(4) 0.2489(4)
C20F C -0.1223(5) 0.3463(4) 0.2203(4)
H13F H -0.1135 0.3489 0.1697
H14F H -0.2606 0.3566 0.2176
H11F H -0.1606 0.3284 0.4174
H12F H -0.0158 0.3251 0.3701
O2F O 0.9700(3) 0.78563(16) 0.0740(2)
O3F O 0.5327(3) 0.41739(16) 0.0722(2)
O7F O 0.5560(7) 0.4078(3) 0.1888(3)
O9F O 0.9446(10) 0.7958(4) 0.1876(4)
C6F C 0.6268(4) 0.4799(2) 0.1324(3)
C7F C 0.6500(5) 0.5054(3) 0.0663(3)
H5F H 0.6309 0.4913 0.0215
C8F C 0.7017(4) 0.5518(3) 0.0683(3)
H6F H 0.7154 0.5694 0.0246
C9F C 0.7335(4) 0.5728(2) 0.1348(3)
C10F C 0.7110(5) 0.5464(3) 0.1995(3)
H7F H 0.7310 0.5603 0.2442
C11F C 0.6593(6) 0.4997(3) 0.1986(3)
H8F H 0.6466 0.4819 0.2423
C12F C 0.7880(4) 0.6229(2) 0.1355(3)
C13F C 0.8272(9) 0.6429(4) 0.0754(4)
H9F H 0.8218 0.6241 0.0315
C14F C 0.7961(13) 0.6533(6) 0.1951(5)
H10F H 0.7654 0.6436 0.2379
C22F C 0.9369(6) 0.7708(3) 0.1324(4)
C23F C 0.8876(5) 0.7194(3) 0.1343(3)
C24F C 0.8758(8) 0.6906(4) 0.0752(4)
H15F H 0.9009 0.7026 0.0311
C25F C 0.8498(15) 0.6996(6) 0.1946(5)
H16F H 0.8595 0.7173 0.2388
C26F C 0.5675(5) 0.4310(3) 0.1317(3)
Zn1F Zn -0.46464(4) 0.35192(2) 0.44315(3)
O2A O 0.5300(3) 0.28563(16) 0.0740(2)
O8F_2 O 0.6152(4) 0.3547(5) 0.3146(3)
O9A O 0.5554(10) 0.2958(4) 0.1876(4)
O9C O 0.4446(10) 0.2958(4) 0.3124(4)
Zn1A Zn -0.03536(4) 0.85192(2) 0.44315(3)
Zn1F_2 Zn 0.53536(4) 0.35192(2) 0.44315(3)
Zn2A Zn 0.0000 0.85163(3) 0.2500
Zn1F_3 Zn 0.53536(4) 0.35192(2) -0.55685(3)
Zn2_2 Zn -0.5000 0.35163(3) 0.2500
Zn1C Zn 1.03536(4) 0.85192(2) 0.05685(3)
Zn2A_2 Zn 1.0000 0.85163(3) 0.2500
N1F_2 N -0.4748(3) 0.35181(19) 0.5572(2)
O2C O -0.5300(3) 0.28563(16) 0.4260(2)
O3_2 O -0.5327(3) 0.41739(16) 0.4278(2)
N2 N 0.7851(6) 0.3280(4) 0.9609(6)
O5 O 0.9065(7) 0.3210(5) 1.0328(5)
C27 C 0.7376(19) 0.3108(10) 0.8992(13)
H17 H 0.6803 0.3297 0.8955
H18 H 0.7257 0.2732 0.9032
H19 H 0.7739 0.3175 0.8560
C28 C 0.7386(13) 0.3615(10) 1.0088(14)
H20 H 0.6777 0.3680 0.9905
H21 H 0.7711 0.3948 1.0128
H22 H 0.7349 0.3450 1.0563
C29 C 0.8634(11) 0.3111(7) 0.9760(8)
H23 H 0.8917 0.2891 0.9416
O4 O 0.3521(15) 0.4952(7) 0.1168(8)
O6 O 0.390(3) 0.0065(9) 0.1201(8)
loop_
_geom_bond_atom_site_label_1
_geom_bond_atom_site_label_2
_geom_bond_site_symmetry_1
_geom_bond_site_symmetry_2
Zn1 N1 1_555 1_555
Zn2 O7 1_555 1_555
N1 C1 1_555 1_555
N2 C27 1_555 1_555
O1 Zn1 1_555 1_555
O2 C22 1_555 1_555
O3 C26 1_555 1_555
O5 C29 1_555 1_555
O7 C26 1_555 1_555
O8 Zn2 1_555 1_555
O9 C22 1_555 1_555
C1 H1 1_555 1_555
C2 C1 1_555 1_555
H2 C2 1_555 1_555
C3 C2 1_555 1_555
C4 C3 1_555 1_555
H3 C4 1_555 1_555
C5 N1 1_555 1_555
H4 C5 1_555 1_555
C6 C7 1_555 1_555
C7 H5 1_555 1_555
C8 C7 1_555 1_555
H6 C8 1_555 1_555
C9 C8 1_555 1_555
C10 C9 1_555 1_555
H7 C10 1_555 1_555
C11 C6 1_555 1_555
H8 C11 1_555 1_555
C12 C9 1_555 1_555
C13 C12 1_555 1_555
H9 C13 1_555 1_555
C14 C12 1_555 1_555
H10 C14 1_555 1_555
C15 O1 1_555 1_555
C16 C15 1_555 1_555
C17 C16 1_555 1_555
H11 C17 1_555 1_555
C18 C17 1_555 1_555
H12 C18 1_555 1_555
C19 C18 1_555 1_555
C20 C19 1_555 1_555
H13 C20 1_555 1_555
C21 C16 1_555 1_555
H14 C21 1_555 1_555
C22 C23 1_555 1_555
C23 C24 1_555 1_555
C24 C13 1_555 1_555
H15 C24 1_555 1_555
C25 C14 1_555 1_555
H16 C25 1_555 1_555
C26 C6 1_555 1_555
C27 H17 1_555 1_555
H18 C27 1_555 1_555
H19 C27 1_555 1_555
C28 N2 1_555 1_555
H20 C28 1_555 1_555
H21 C28 1_555 1_555
H22 C28 1_555 1_555
C29 N2 1_555 1_555
H23 C29 1_555 1_555
C3F C3 1_555 1_555
C2F C3F 1_555 1_555
C1F C2F 1_555 1_555
N1F C1F 1_555 1_555
C5F N1F 1_555 1_555
C4F C3F 1_555 1_555
H3F C4F 1_555 1_555
H4F C5F 1_555 1_555
H1F C1F 1_555 1_555
H2F C2F 1_555 1_555
C19F C19 1_555 1_555
C18F C19F 1_555 1_555
C17F C18F 1_555 1_555
C16F C17F 1_555 1_555
C15F C16F 1_555 1_555
O1F C15F 1_555 1_555
O8F C15F 1_555 1_555
C21F C16F 1_555 1_555
C20F C19F 1_555 1_555
H13F C20F 1_555 1_555
H14F C21F 1_555 1_555
H11F C17F 1_555 1_555
H12F C18F 1_555 1_555
O2F C22F 1_555 1_555
O3F Zn1 1_555 1_555
O7F Zn2 1_555 1_555
O9F C22F 1_555 1_555
C6F C7F 1_555 1_555
C7F H5F 1_555 1_555
C8F C7F 1_555 1_555
H6F C8F 1_555 1_555
C9F C8F 1_555 1_555
C10F C9F 1_555 1_555
H7F C10F 1_555 1_555
C11F C6F 1_555 1_555
H8F C11F 1_555 1_555
C12F C9F 1_555 1_555
C13F C12F 1_555 1_555
H9F C13F 1_555 1_555
C14F C12F 1_555 1_555
H10F C14F 1_555 1_555
C22F C23F 1_555 1_555
C23F C24F 1_555 1_555
C24F C13F 1_555 1_555
H15F C24F 1_555 1_555
C25F C14F 1_555 1_555
H16F C25F 1_555 1_555
C26F O3F 1_555 1_555
Zn1F O1F 1_555 1_555
O2A Zn1 1_555 1_555
O8F_2 Zn2 1_555 1_555
O9A Zn2 1_555 1_555
O9C Zn2 1_555 1_555
Zn1A O2 1_555 1_555
Zn1F_2 O3 1_555 1_555
Zn2A O9 1_555 1_555
Zn1F_3 N1F 1_555 1_555
Zn2_2 O8F 1_555 1_555
Zn1C O2F 1_555 1_555
Zn2A_2 O9F 1_555 1_555
N1F_2 Zn1F 1_555 1_555
O2C Zn1F 1_555 1_555
O3_2 Zn1F 1_555 1_555
O8 C15 1_555 1_555
C4 C5 1_555 1_555
C10 C11 1_555 1_555
C20 C21 1_555 1_555
C23 C25 1_555 1_555
C5F C4F 1_555 1_555
C21F C20F 1_555 1_555
O7F C26F 1_555 1_555
C6F C26F 1_555 1_555
C10F C11F 1_555 1_555
C23F C25F 1_555 1_555

#END
