
#######################################################################
#
#                 Cambridge Crystallographic Data Centre
#                                CCDC 
#
#######################################################################
#
# If this CIF has been generated from an entry in the Cambridge 
# Structural Database, then it will include bibliographic, chemical, 
# crystal, experimental, refinement or atomic coordinate data resulting 
# from the CCDC's data processing and validation procedures.
#
#######################################################################

data_XUVMOQ05
_symmetry_cell_setting           monoclinic
_symmetry_space_group_name_H-M   'C 2/m'
_symmetry_Int_Tables_number      12
_space_group_name_Hall           '-C 2y'
loop_
_symmetry_equiv_pos_site_id
_symmetry_equiv_pos_as_xyz
1 x,y,z
2 1/2+x,1/2+y,z
3 -x,y,-z
4 1/2-x,1/2+y,-z
5 -x,-y,-z
6 1/2-x,1/2-y,-z
7 x,-y,z
8 1/2+x,1/2-y,z
_cell_length_a                   18.12(3)
_cell_length_b                   9.552(13)
_cell_length_c                   12.352(18)
_cell_angle_alpha                90
_cell_angle_beta                 128.52(2)
_cell_angle_gamma                90
_cell_volume                     1672.68
loop_
_atom_site_label
_atom_site_type_symbol
_atom_site_fract_x
_atom_site_fract_y
_atom_site_fract_z
C1 C 0.3305(16) 0.0000 0.920(3)
C2 C 0.2324(15) 0.0000 0.881(3)
C3 C 0.1849(11) 0.1243(18) 0.854(2)
H1 H 0.2152 0.2089 0.8684
C4 C 0.0932(12) 0.1243(19) 0.807(3)
H2 H 0.0629 0.2087 0.7929
C5 C 0.0461(18) 0.0000 0.779(4)
H3 H -0.0170 0.0000 0.7427
C6 C 0.434(2) 0.0000 0.744(4)
C7 C 0.400(2) 0.0000 0.605(3)
C8 C 0.382(2) 0.121(2) 0.534(3)
H4 H 0.3864 0.2062 0.5747
C9 C 0.357(3) 0.121(2) 0.404(3)
H5 H 0.3452 0.2057 0.3595
C10 C 0.348(4) 0.0000 0.339(4)
H6 H 0.3371 0.0000 0.2549
C11 C 0.4212(14) 0.428(2) 0.915(2)
H7 H 0.3645 0.3807 0.8530
N1 N 0.5000 0.354(2) 1.0000
O1 O 0.3674(8) 0.1167(13) 0.9432(15)
O2 O 0.4453(8) 0.1165(14) 0.8021(16)
Rh1 Rh 0.5000 0.1245(3) 1.0000
C4F C 0.0932(12) -0.1243(19) 0.807(3)
C3F C 0.1849(11) -0.1243(18) 0.854(2)
H2F H 0.0629 -0.2087 0.7929
H1F H 0.2152 -0.2089 0.8684
O1F O 0.3674(8) -0.1167(13) 0.9432(15)
C9F C 0.357(3) -0.121(2) 0.404(3)
C8F C 0.382(2) -0.121(2) 0.534(3)
H5F H 0.3452 -0.2057 0.3595
H4F H 0.3864 -0.2062 0.5747
O2F O 0.4453(8) -0.1165(14) 0.8021(16)
C11F C 0.4212(14) 0.572(2) 0.915(2)
H7F H 0.3645 0.6193 0.8530
N1F N 0.5000 0.646(2) 1.0000
C11D C 0.5788(14) 0.572(2) 1.085(2)
C11B C 0.5788(14) 0.428(2) 1.085(2)
H7B H 0.6355 0.3807 1.1470
H7D H 0.6355 0.6193 1.1470
C1B C 0.6695(16) 0.0000 1.080(3)
C2B C 0.7676(15) 0.0000 1.119(3)
C3B C 0.8151(11) 0.1243(18) 1.146(2)
H1B H 0.7848 0.2089 1.1316
C4B C 0.9068(12) 0.1243(19) 1.193(3)
H2B H 0.9371 0.2087 1.2071
C5B C 0.9539(18) 0.0000 1.221(4)
H3B H 1.0170 0.0000 1.2573
O1B O 0.6326(8) 0.1167(13) 1.0568(15)
C4D C 0.9068(12) -0.1243(19) 1.193(3)
C3D C 0.8151(11) -0.1243(18) 1.146(2)
H2D H 0.9371 -0.2087 1.2071
H1D H 0.7848 -0.2089 1.1316
O1D O 0.6326(8) -0.1167(13) 1.0568(15)
C6B C 0.566(2) 0.0000 1.256(4)
C7B C 0.600(2) 0.0000 1.395(3)
C8B C 0.618(2) 0.121(2) 1.466(3)
H4B H 0.6136 0.2062 1.4253
C9B C 0.643(3) 0.121(2) 1.596(3)
H5B H 0.6548 0.2057 1.6405
C10B C 0.652(4) 0.0000 1.661(4)
H6B H 0.6629 0.0000 1.7451
O2B O 0.5547(8) 0.1165(14) 1.1979(16)
C9D C 0.643(3) -0.121(2) 1.596(3)
C8D C 0.618(2) -0.121(2) 1.466(3)
H5D H 0.6548 -0.2057 1.6405
H4D H 0.6136 -0.2062 1.4253
O2D O 0.5547(8) -0.1165(14) 1.1979(16)
Rh1F Rh 0.5000 0.8755(3) 1.0000
Rh1F_2 Rh 0.5000 -0.1245(3) 1.0000
O1F_2 O 0.3674(8) 0.8833(13) 0.9432(15)
O1D_2 O 0.6326(8) 0.8833(13) 1.0568(15)
O2F_2 O 0.4453(8) 0.8835(14) 0.8021(16)
O2D_2 O 0.5547(8) 0.8835(14) 1.1979(16)
Rh1_2 Rh 0.5000 1.1245(3) 1.0000
loop_
_geom_bond_atom_site_label_1
_geom_bond_atom_site_label_2
_geom_bond_site_symmetry_1
_geom_bond_site_symmetry_2
C1 C2 1_555 1_555
C2 C3 1_555 1_555
C3 H1 1_555 1_555
C4 C3 1_555 1_555
H2 C4 1_555 1_555
C5 C4 1_555 1_555
H3 C5 1_555 1_555
C6 C7 1_555 1_555
C7 C8 1_555 1_555
C8 H4 1_555 1_555
C9 C8 1_555 1_555
H5 C9 1_555 1_555
C10 C9 1_555 1_555
H6 C10 1_555 1_555
C11 H7 1_555 1_555
N1 C11 1_555 1_555
O1 C1 1_555 1_555
O2 C6 1_555 1_555
Rh1 N1 1_555 1_555
C4F C5 1_555 1_555
C3F C2 1_555 1_555
H2F C4F 1_555 1_555
H1F C3F 1_555 1_555
O1F C1 1_555 1_555
C9F C10 1_555 1_555
C8F C7 1_555 1_555
H5F C9F 1_555 1_555
H4F C8F 1_555 1_555
O2F C6 1_555 1_555
C11F C11 1_555 1_555
H7F C11F 1_555 1_555
N1F C11F 1_555 1_555
C11D N1F 1_555 1_555
C11B N1 1_555 1_555
H7B C11B 1_555 1_555
H7D C11D 1_555 1_555
C1B C2B 1_555 1_555
C2B C3B 1_555 1_555
C3B H1B 1_555 1_555
C4B C3B 1_555 1_555
H2B C4B 1_555 1_555
C5B C4B 1_555 1_555
H3B C5B 1_555 1_555
O1B Rh1 1_555 1_555
C4D C5B 1_555 1_555
C3D C2B 1_555 1_555
H2D C4D 1_555 1_555
H1D C3D 1_555 1_555
O1D C1B 1_555 1_555
C6B C7B 1_555 1_555
C7B C8B 1_555 1_555
C8B H4B 1_555 1_555
C9B C8B 1_555 1_555
H5B C9B 1_555 1_555
C10B C9B 1_555 1_555
H6B C10B 1_555 1_555
O2B Rh1 1_555 1_555
C9D C10B 1_555 1_555
C8D C7B 1_555 1_555
H5D C9D 1_555 1_555
H4D C8D 1_555 1_555
O2D C6B 1_555 1_555
Rh1F N1F 1_555 1_555
Rh1F_2 Rh1 1_555 1_555
O1F_2 Rh1F 1_555 1_555
O1D_2 Rh1F 1_555 1_555
O2F_2 Rh1F 1_555 1_555
O2D_2 Rh1F 1_555 1_555
Rh1_2 Rh1F 1_555 1_555
O1 Rh1 1_555 1_555
O2 Rh1 1_555 1_555
C4F C3F 1_555 1_555
O1F Rh1F_2 1_555 1_555
C9F C8F 1_555 1_555
O2F Rh1F_2 1_555 1_555
C11D C11B 1_555 1_555
C1B O1B 1_555 1_555
C4D C3D 1_555 1_555
O1D Rh1F_2 1_555 1_555
C6B O2B 1_555 1_555
C9D C8D 1_555 1_555
O2D Rh1F_2 1_555 1_555

#END
