
#######################################################################
#
#                 Cambridge Crystallographic Data Centre
#                                CCDC 
#
#######################################################################
#
# If this CIF has been generated from an entry in the Cambridge 
# Structural Database, then it will include bibliographic, chemical, 
# crystal, experimental, refinement or atomic coordinate data resulting 
# from the CCDC's data processing and validation procedures.
#
#######################################################################

data_XUVMOQ02
_symmetry_cell_setting           monoclinic
_symmetry_space_group_name_H-M   'C 2/c'
_symmetry_Int_Tables_number      15
_space_group_name_Hall           '-C 2yn'
loop_
_symmetry_equiv_pos_site_id
_symmetry_equiv_pos_as_xyz
1 x,y,z
2 x,-y,1/2+z
3 1/2+x,1/2+y,z
4 1/2+x,1/2-y,1/2+z
5 -x,-y,-z
6 -x,y,1/2-z
7 1/2-x,1/2-y,-z
8 1/2-x,1/2+y,1/2-z
_cell_length_a                   17.42(3)
_cell_length_b                   9.55(1)
_cell_length_c                   19.70(4)
_cell_angle_alpha                90
_cell_angle_beta                 98.05(6)
_cell_angle_gamma                90
_cell_volume                     3245.02
loop_
_atom_site_label
_atom_site_type_symbol
_atom_site_fract_x
_atom_site_fract_y
_atom_site_fract_z
Rh1 Rh 0.5000 0.6439(1) 0.2500
Rh2 Rh 0.5000 0.8933(1) 0.2500
O1 O 0.3915(4) 0.6494(5) 0.2767(3)
O2 O 0.3910(4) 0.8866(5) 0.2742(3)
O3 O 0.5458(4) 0.6514(5) 0.3512(3)
O4 O 0.5418(4) 0.8875(5) 0.3505(3)
N1 N 0.5000 0.411(1) 0.2500
N2 N 0.5000 0.124(1) 0.2500
C1 C 0.2842(4) 0.7669(7) 0.3108(3)
C2 C 0.2533(6) 0.6412(8) 0.3310(5)
C3 C 0.1854(6) 0.6436(8) 0.3586(5)
C4 C 0.1489(4) 0.7681(8) 0.3675(3)
C5 C 0.1780(6) 0.8913(8) 0.3465(5)
C6 C 0.2463(5) 0.8913(8) 0.3180(5)
C7 C 0.3614(4) 0.7692(8) 0.2852(3)
C8 C 0.5981(4) 0.7738(9) 0.4538(4)
C9 C 0.6327(6) 0.6573(9) 0.4840(5)
C10 C 0.6741(6) 0.663(1) 0.5507(5)
C11 C 0.6776(5) 0.784(1) 0.5857(4)
C12 C 0.6425(6) 0.9034(10) 0.5562(5)
C13 C 0.6019(6) 0.8989(8) 0.4898(5)
C14 C 0.5578(4) 0.7725(9) 0.3788(3)
C15 C 0.4599(5) 0.3423(7) 0.2924(4)
C16 C 0.4598(5) 0.1959(8) 0.2923(4)
H1 H 0.2790 0.5550 0.3257
H2 H 0.1634 0.5584 0.3717
H3 H 0.1030 0.7688 0.3885
H4 H 0.1512 0.9766 0.3514
H5 H 0.2669 0.9767 0.3036
H6 H 0.6289 0.5710 0.4597
H7 H 0.6993 0.5818 0.5708
H8 H 0.7046 0.7878 0.6311
H9 H 0.6459 0.9888 0.5812
H10 H 0.5773 0.9805 0.4696
H11 H 0.4318 0.3923 0.3226
H12 H 0.4312 0.1467 0.3223
C16E C 0.5402(5) 0.1959(8) 0.2077(4)
C15E C 0.5401(5) 0.3423(7) 0.2076(4)
H11E H 0.5682 0.3923 0.1774
H12E H 0.5688 0.1467 0.1777
O1E O 0.6085(4) 0.6494(5) 0.2233(3)
O2E O 0.6090(4) 0.8866(5) 0.2258(3)
C1E C 0.7158(4) 0.7669(7) 0.1892(3)
C2E C 0.7467(6) 0.6412(8) 0.1690(5)
C3E C 0.8146(6) 0.6436(8) 0.1414(5)
C4E C 0.8511(4) 0.7681(8) 0.1325(3)
C5E C 0.8220(6) 0.8913(8) 0.1535(5)
C6E C 0.7537(5) 0.8913(8) 0.1820(5)
C7E C 0.6386(4) 0.7692(8) 0.2148(3)
H1E H 0.7210 0.5550 0.1743
H2E H 0.8366 0.5584 0.1283
H3E H 0.8970 0.7688 0.1115
H4E H 0.8488 0.9766 0.1486
H5E H 0.7331 0.9767 0.1964
O3E O 0.4542(4) 0.6514(5) 0.1488(3)
O4E O 0.4582(4) 0.8875(5) 0.1495(3)
C8E C 0.4019(4) 0.7738(9) 0.0462(4)
C9E C 0.3673(6) 0.6573(9) 0.0160(5)
C10E C 0.3259(6) 0.663(1) -0.0507(5)
C11E C 0.3224(5) 0.784(1) -0.0857(4)
C12E C 0.3575(6) 0.9034(10) -0.0562(5)
C13E C 0.3981(6) 0.8989(8) 0.0102(5)
C14E C 0.4422(4) 0.7725(9) 0.1212(3)
H6E H 0.3711 0.5710 0.0403
H7E H 0.3007 0.5818 -0.0708
H8E H 0.2954 0.7878 -0.1311
H9E H 0.3541 0.9888 -0.0812
H10E H 0.4227 0.9805 0.0304
N2_2 N 0.5000 1.124(1) 0.2500
Rh2_2 Rh 0.5000 -0.1067(1) 0.2500
loop_
_geom_bond_atom_site_label_1
_geom_bond_atom_site_label_2
_geom_bond_site_symmetry_1
_geom_bond_site_symmetry_2
Rh1 Rh2 1_555 1_555
Rh2 O2 1_555 1_555
O1 Rh1 1_555 1_555
O2 C7 1_555 1_555
O3 Rh1 1_555 1_555
O4 Rh2 1_555 1_555
N1 Rh1 1_555 1_555
N2 C16 1_555 1_555
C1 C2 1_555 1_555
C2 C3 1_555 1_555
C3 C4 1_555 1_555
C4 C5 1_555 1_555
C5 C6 1_555 1_555
C6 C1 1_555 1_555
C7 O1 1_555 1_555
C8 C9 1_555 1_555
C9 C10 1_555 1_555
C10 C11 1_555 1_555
C11 C12 1_555 1_555
C12 C13 1_555 1_555
C13 C8 1_555 1_555
C14 O3 1_555 1_555
C15 N1 1_555 1_555
C16 C15 1_555 1_555
H1 C2 1_555 1_555
H2 C3 1_555 1_555
H3 C4 1_555 1_555
H4 C5 1_555 1_555
H5 C6 1_555 1_555
H6 C9 1_555 1_555
H7 C10 1_555 1_555
H8 C11 1_555 1_555
H9 C12 1_555 1_555
H10 C13 1_555 1_555
H11 C15 1_555 1_555
H12 C16 1_555 1_555
C16E N2 1_555 1_555
C15E N1 1_555 1_555
H11E C15E 1_555 1_555
H12E C16E 1_555 1_555
O1E Rh1 1_555 1_555
O2E Rh2 1_555 1_555
C1E C2E 1_555 1_555
C2E C3E 1_555 1_555
C3E C4E 1_555 1_555
C4E C5E 1_555 1_555
C5E C6E 1_555 1_555
C6E C1E 1_555 1_555
C7E O1E 1_555 1_555
H1E C2E 1_555 1_555
H2E C3E 1_555 1_555
H3E C4E 1_555 1_555
H4E C5E 1_555 1_555
H5E C6E 1_555 1_555
O3E Rh1 1_555 1_555
O4E Rh2 1_555 1_555
C8E C9E 1_555 1_555
C9E C10E 1_555 1_555
C10E C11E 1_555 1_555
C11E C12E 1_555 1_555
C12E C13E 1_555 1_555
C13E C8E 1_555 1_555
C14E O3E 1_555 1_555
H6E C9E 1_555 1_555
H7E C10E 1_555 1_555
H8E C11E 1_555 1_555
H9E C12E 1_555 1_555
H10E C13E 1_555 1_555
N2_2 Rh2 1_555 1_555
Rh2_2 N2 1_555 1_555
O4 C14 1_555 1_555
C1 C7 1_555 1_555
C8 C14 1_555 1_555
C16E C15E 1_555 1_555
O2E C7E 1_555 1_555
C1E C7E 1_555 1_555
O4E C14E 1_555 1_555
C8E C14E 1_555 1_555

#END
