
#######################################################################
#
#                 Cambridge Crystallographic Data Centre
#                                CCDC 
#
#######################################################################
#
# If this CIF has been generated from an entry in the Cambridge 
# Structural Database, then it will include bibliographic, chemical, 
# crystal, experimental, refinement or atomic coordinate data resulting 
# from the CCDC's data processing and validation procedures.
#
#######################################################################

data_XUVMOQ04
_symmetry_cell_setting           monoclinic
_symmetry_space_group_name_H-M   'C 2/c'
_symmetry_Int_Tables_number      15
_space_group_name_Hall           '-C 2yn'
loop_
_symmetry_equiv_pos_site_id
_symmetry_equiv_pos_as_xyz
1 x,y,z
2 x,-y,1/2+z
3 1/2+x,1/2+y,z
4 1/2+x,1/2-y,1/2+z
5 -x,-y,-z
6 -x,y,1/2-z
7 1/2-x,1/2-y,-z
8 1/2-x,1/2+y,1/2-z
_cell_length_a                   18.028(5)
_cell_length_b                   9.609(2)
_cell_length_c                   19.688(5)
_cell_angle_alpha                90
_cell_angle_beta                 97.91(3)
_cell_angle_gamma                90
_cell_volume                     3378.12
loop_
_atom_site_label
_atom_site_type_symbol
_atom_site_fract_x
_atom_site_fract_y
_atom_site_fract_z
Rh1 Rh 0.5000 0.64479(6) 0.2500
Rh2 Rh 0.5000 0.89387(6) 0.2500
O1 O 0.5475(2) 0.6524(3) 0.3503(2)
O2 O 0.5434(2) 0.8874(3) 0.3512(2)
O3 O 0.6032(2) 0.6517(3) 0.2197(2)
O4 O 0.6051(2) 0.8859(3) 0.2234(2)
N1 N 0.5000 0.4122(6) 0.2500
N2 N 0.5000 0.1241(6) 0.2500
C1 C 0.5978(3) 0.7727(6) 0.4513(2)
C2 C 0.6278(6) 0.6551(7) 0.4807(4)
C3 C 0.6692(7) 0.663(1) 0.5472(5)
C4 C 0.6739(5) 0.784(1) 0.5815(4)
C5 C 0.6407(6) 0.9006(9) 0.5541(5)
C6 C 0.6046(5) 0.8942(7) 0.4886(4)
C7 C 0.5598(3) 0.7715(5) 0.3785(2)
C8 C 0.7090(2) 0.7679(5) 0.1896(2)
C9 C 0.7389(4) 0.6441(5) 0.1697(4)
C10 C 0.8070(5) 0.6444(7) 0.1438(5)
C11 C 0.8442(3) 0.7687(8) 0.1384(3)
C12 C 0.8158(4) 0.8902(6) 0.1593(4)
C13 C 0.7489(4) 0.8905(5) 0.1856(3)
C14 C 0.6334(2) 0.7693(4) 0.2128(2)
C15 C 0.4643(3) 0.3409(4) 0.2934(3)
C16 C 0.4647(3) 0.1963(4) 0.2935(2)
H1 H 0.6226 0.5694 0.4558
H2 H 0.6897 0.5826 0.5690
H3 H 0.7012 0.7902 0.6254
H4 H 0.6437 0.9851 0.5800
H5 H 0.5823 0.9770 0.4681
H6 H 0.7123 0.5587 0.1741
H7 H 0.8295 0.5604 0.1315
H8 H 0.8896 0.7714 0.1207
H9 H 0.8414 0.9754 0.1565
H10 H 0.7285 0.9753 0.2027
H11 H 0.4374 0.3886 0.3245
H12 H 0.4401 0.1480 0.3245
C16E C 0.5353(3) 0.1963(4) 0.2065(2)
C15E C 0.5357(3) 0.3409(4) 0.2066(3)
H11E H 0.5626 0.3886 0.1755
H12E H 0.5599 0.1480 0.1755
O1E O 0.4525(2) 0.6524(3) 0.1497(2)
O2E O 0.4566(2) 0.8874(3) 0.1488(2)
C1E C 0.4022(3) 0.7727(6) 0.0487(2)
C2E C 0.3722(6) 0.6551(7) 0.0193(4)
C3E C 0.3308(7) 0.663(1) -0.0472(5)
C4E C 0.3261(5) 0.784(1) -0.0815(4)
C5E C 0.3593(6) 0.9006(9) -0.0541(5)
C6E C 0.3954(5) 0.8942(7) 0.0114(4)
C7E C 0.4402(3) 0.7715(5) 0.1215(2)
H1E H 0.3774 0.5694 0.0442
H2E H 0.3103 0.5826 -0.0690
H3E H 0.2988 0.7902 -0.1254
H4E H 0.3563 0.9851 -0.0800
H5E H 0.4177 0.9770 0.0319
O3E O 0.3968(2) 0.6517(3) 0.2803(2)
O4E O 0.3949(2) 0.8859(3) 0.2766(2)
C8E C 0.2910(2) 0.7679(5) 0.3104(2)
C9E C 0.2611(4) 0.6441(5) 0.3303(4)
C10E C 0.1930(5) 0.6444(7) 0.3562(5)
C11E C 0.1558(3) 0.7687(8) 0.3616(3)
C12E C 0.1842(4) 0.8902(6) 0.3407(4)
C13E C 0.2511(4) 0.8905(5) 0.3144(3)
C14E C 0.3666(2) 0.7693(4) 0.2872(2)
H6E H 0.2877 0.5587 0.3259
H7E H 0.1705 0.5604 0.3685
H8E H 0.1104 0.7714 0.3793
H9E H 0.1586 0.9754 0.3435
H10E H 0.2715 0.9753 0.2973
N2_2 N 0.5000 1.1241(6) 0.2500
Rh2_2 Rh 0.5000 -0.10613(6) 0.2500
loop_
_geom_bond_atom_site_label_1
_geom_bond_atom_site_label_2
_geom_bond_site_symmetry_1
_geom_bond_site_symmetry_2
Rh1 Rh2 1_555 1_555
Rh2 O2 1_555 1_555
O1 Rh1 1_555 1_555
O2 C7 1_555 1_555
O3 Rh1 1_555 1_555
O4 Rh2 1_555 1_555
N1 Rh1 1_555 1_555
N2 C16 1_555 1_555
C1 C2 1_555 1_555
C2 C3 1_555 1_555
C3 C4 1_555 1_555
C4 C5 1_555 1_555
C5 C6 1_555 1_555
C6 C1 1_555 1_555
C7 O1 1_555 1_555
C8 C9 1_555 1_555
C9 C10 1_555 1_555
C10 C11 1_555 1_555
C11 C12 1_555 1_555
C12 C13 1_555 1_555
C13 C8 1_555 1_555
C14 O3 1_555 1_555
C15 N1 1_555 1_555
C16 C15 1_555 1_555
H1 C2 1_555 1_555
H2 C3 1_555 1_555
H3 C4 1_555 1_555
H4 C5 1_555 1_555
H5 C6 1_555 1_555
H6 C9 1_555 1_555
H7 C10 1_555 1_555
H8 C11 1_555 1_555
H9 C12 1_555 1_555
H10 C13 1_555 1_555
H11 C15 1_555 1_555
H12 C16 1_555 1_555
C16E N2 1_555 1_555
C15E N1 1_555 1_555
H11E C15E 1_555 1_555
H12E C16E 1_555 1_555
O1E Rh1 1_555 1_555
O2E Rh2 1_555 1_555
C1E C2E 1_555 1_555
C2E C3E 1_555 1_555
C3E C4E 1_555 1_555
C4E C5E 1_555 1_555
C5E C6E 1_555 1_555
C6E C1E 1_555 1_555
C7E O1E 1_555 1_555
H1E C2E 1_555 1_555
H2E C3E 1_555 1_555
H3E C4E 1_555 1_555
H4E C5E 1_555 1_555
H5E C6E 1_555 1_555
O3E Rh1 1_555 1_555
O4E Rh2 1_555 1_555
C8E C9E 1_555 1_555
C9E C10E 1_555 1_555
C10E C11E 1_555 1_555
C11E C12E 1_555 1_555
C12E C13E 1_555 1_555
C13E C8E 1_555 1_555
C14E O3E 1_555 1_555
H6E C9E 1_555 1_555
H7E C10E 1_555 1_555
H8E C11E 1_555 1_555
H9E C12E 1_555 1_555
H10E C13E 1_555 1_555
N2_2 Rh2 1_555 1_555
Rh2_2 N2 1_555 1_555
O4 C14 1_555 1_555
C1 C7 1_555 1_555
C8 C14 1_555 1_555
C16E C15E 1_555 1_555
O2E C7E 1_555 1_555
C1E C7E 1_555 1_555
O4E C14E 1_555 1_555
C8E C14E 1_555 1_555

#END
