
#######################################################################
#
#                 Cambridge Crystallographic Data Centre
#                                CCDC 
#
#######################################################################
#
# If this CIF has been generated from an entry in the Cambridge 
# Structural Database, then it will include bibliographic, chemical, 
# crystal, experimental, refinement or atomic coordinate data resulting 
# from the CCDC's data processing and validation procedures.
#
#######################################################################

data_XUVMOQ03
_symmetry_cell_setting           monoclinic
_symmetry_space_group_name_H-M   'C 2/m'
_symmetry_Int_Tables_number      12
_space_group_name_Hall           '-C 2y'
loop_
_symmetry_equiv_pos_site_id
_symmetry_equiv_pos_as_xyz
1 x,y,z
2 x,-y,z
3 1/2+x,1/2+y,z
4 1/2+x,1/2-y,z
5 -x,-y,-z
6 -x,y,-z
7 1/2-x,1/2-y,-z
8 1/2-x,1/2+y,-z
_cell_length_a                   17.85(1)
_cell_length_b                   9.465(5)
_cell_length_c                   12.172(9)
_cell_angle_alpha                90
_cell_angle_beta                 128.02(2)
_cell_angle_gamma                90
_cell_volume                     1620.07
loop_
_atom_site_label
_atom_site_type_symbol
_atom_site_fract_x
_atom_site_fract_y
_atom_site_fract_z
Rh1 Rh 0.5000 0.37540(9) 0.5000
O1 O 0.5579(4) 0.3807(5) 0.6984(6)
O2 O 0.6319(3) 0.3824(5) 0.5549(6)
N1 N 0.5000 0.1422(8) 0.5000
C1 C 0.6052(8) 0.5000 0.900(1)
C2 C 0.619(1) 0.376(2) 0.969(1)
C3 C 0.647(1) 0.378(2) 1.100(2)
C4 C 0.659(2) 0.5000 1.163(2)
C5 C 0.5691(7) 0.5000 0.754(1)
C6 C 0.7704(7) 0.5000 0.622(1)
C7 C 0.8169(6) 0.3760(9) 0.6452(10)
C8 C 0.9109(7) 0.374(1) 0.696(1)
C9 C 0.9578(9) 0.5000 0.725(2)
C10 C 0.6704(7) 0.5000 0.572(1)
C11 C 0.4202(5) 0.0725(8) 0.4135(9)
H1 H 0.6081 0.2889 0.9231
H2 H 0.6584 0.2912 1.1477
H3 H 0.6756 0.5000 1.2566
H4 H 0.7842 0.2892 0.6262
H5 H 0.9423 0.2868 0.7106
H6 H 1.0232 0.5000 0.7639
H7 H 0.3616 0.1246 0.3493
O1A O 0.5579(4) 0.6193(5) 0.6984(6)
C3A C 0.647(1) 0.622(2) 1.100(2)
C2A C 0.619(1) 0.624(2) 0.969(1)
H1A H 0.6081 0.7111 0.9231
H2A H 0.6584 0.7088 1.1477
O2A O 0.6319(3) 0.6176(5) 0.5549(6)
C8A C 0.9109(7) 0.626(1) 0.696(1)
C7A C 0.8169(6) 0.6240(9) 0.6452(10)
H4A H 0.7842 0.7108 0.6262
H5A H 0.9423 0.7132 0.7106
C11A C 0.4202(5) -0.0725(8) 0.4135(9)
N1A N 0.5000 -0.1422(8) 0.5000
C11D C 0.5798(5) -0.0725(8) 0.5865(9)
C11E C 0.5798(5) 0.0725(8) 0.5865(9)
H7E H 0.6384 0.1246 0.6507
H7D H 0.6384 -0.1246 0.6507
H7A H 0.3616 -0.1246 0.3493
O1E O 0.4421(4) 0.3807(5) 0.3016(6)
C1E C 0.3948(8) 0.5000 0.100(1)
C2E C 0.381(1) 0.376(2) 0.031(1)
C3E C 0.353(1) 0.378(2) -0.100(2)
C4E C 0.341(2) 0.5000 -0.163(2)
C5E C 0.4309(7) 0.5000 0.246(1)
H1E H 0.3919 0.2889 0.0769
H2E H 0.3416 0.2912 -0.1477
H3E H 0.3244 0.5000 -0.2566
O1D O 0.4421(4) 0.6193(5) 0.3016(6)
C3D C 0.353(1) 0.622(2) -0.100(2)
C2D C 0.381(1) 0.624(2) 0.031(1)
H1D H 0.3919 0.7111 0.0769
H2D H 0.3416 0.7088 -0.1477
O2E O 0.3681(3) 0.3824(5) 0.4451(6)
C6E C 0.2296(7) 0.5000 0.378(1)
C7E C 0.1831(6) 0.3760(9) 0.3548(10)
C8E C 0.0891(7) 0.374(1) 0.304(1)
C9E C 0.0422(9) 0.5000 0.275(2)
C10E C 0.3296(7) 0.5000 0.428(1)
H4E H 0.2158 0.2892 0.3738
H5E H 0.0577 0.2868 0.2894
H6E H -0.0232 0.5000 0.2361
O2D O 0.3681(3) 0.6176(5) 0.4451(6)
C8D C 0.0891(7) 0.626(1) 0.304(1)
C7D C 0.1831(6) 0.6240(9) 0.3548(10)
H4D H 0.2158 0.7108 0.3738
H5D H 0.0577 0.7132 0.2894
Rh1A Rh 0.5000 0.62460(9) 0.5000
Rh1A_2 Rh 0.5000 -0.37540(9) 0.5000
N1A_2 N 0.5000 0.8578(8) 0.5000
loop_
_geom_bond_atom_site_label_1
_geom_bond_atom_site_label_2
_geom_bond_site_symmetry_1
_geom_bond_site_symmetry_2
Rh1 O1 1_555 1_555
O1 C5 1_555 1_555
O2 Rh1 1_555 1_555
N1 Rh1 1_555 1_555
C1 C2 1_555 1_555
C2 C3 1_555 1_555
C3 C4 1_555 1_555
C4 H3 1_555 1_555
C5 C1 1_555 1_555
C6 C7 1_555 1_555
C7 C8 1_555 1_555
C8 C9 1_555 1_555
C9 H6 1_555 1_555
C10 O2 1_555 1_555
C11 N1 1_555 1_555
H1 C2 1_555 1_555
H2 C3 1_555 1_555
H4 C7 1_555 1_555
H5 C8 1_555 1_555
H7 C11 1_555 1_555
O1A C5 1_555 1_555
C3A C4 1_555 1_555
C2A C1 1_555 1_555
H1A C2A 1_555 1_555
H2A C3A 1_555 1_555
O2A C10 1_555 1_555
C8A C9 1_555 1_555
C7A C6 1_555 1_555
H4A C7A 1_555 1_555
H5A C8A 1_555 1_555
C11A C11 1_555 1_555
N1A C11A 1_555 1_555
C11D N1A 1_555 1_555
C11E N1 1_555 1_555
H7E C11E 1_555 1_555
H7D C11D 1_555 1_555
H7A C11A 1_555 1_555
O1E Rh1 1_555 1_555
C1E C2E 1_555 1_555
C2E C3E 1_555 1_555
C3E C4E 1_555 1_555
C4E H3E 1_555 1_555
C5E O1E 1_555 1_555
H1E C2E 1_555 1_555
H2E C3E 1_555 1_555
O1D C5E 1_555 1_555
C3D C4E 1_555 1_555
C2D C1E 1_555 1_555
H1D C2D 1_555 1_555
H2D C3D 1_555 1_555
O2E Rh1 1_555 1_555
C6E C7E 1_555 1_555
C7E C8E 1_555 1_555
C8E C9E 1_555 1_555
C9E H6E 1_555 1_555
C10E O2E 1_555 1_555
H4E C7E 1_555 1_555
H5E C8E 1_555 1_555
O2D C10E 1_555 1_555
C8D C9E 1_555 1_555
C7D C6E 1_555 1_555
H4D C7D 1_555 1_555
H5D C8D 1_555 1_555
Rh1A Rh1 1_555 1_555
Rh1A_2 N1A 1_555 1_555
N1A_2 Rh1A 1_555 1_555
C6 C10 1_555 1_555
O1A Rh1A 1_555 1_555
C3A C2A 1_555 1_555
O2A Rh1A 1_555 1_555
C8A C7A 1_555 1_555
C11D C11E 1_555 1_555
C1E C5E 1_555 1_555
O1D Rh1A 1_555 1_555
C3D C2D 1_555 1_555
C6E C10E 1_555 1_555
O2D Rh1A 1_555 1_555
C8D C7D 1_555 1_555

#END
