
#######################################################################
#
#                 Cambridge Crystallographic Data Centre
#                                CCDC 
#
#######################################################################
#
# If this CIF has been generated from an entry in the Cambridge 
# Structural Database, then it will include bibliographic, chemical, 
# crystal, experimental, refinement or atomic coordinate data resulting 
# from the CCDC's data processing and validation procedures.
#
#######################################################################

data_XUVMOQ01
_symmetry_cell_setting           monoclinic
_symmetry_space_group_name_H-M   'C 2/m'
_symmetry_Int_Tables_number      12
_space_group_name_Hall           '-C 2y'
loop_
_symmetry_equiv_pos_site_id
_symmetry_equiv_pos_as_xyz
1 x,y,z
2 x,-y,z
3 1/2+x,1/2+y,z
4 1/2+x,1/2-y,z
5 -x,-y,-z
6 -x,y,-z
7 1/2-x,1/2-y,-z
8 1/2-x,1/2+y,-z
_cell_length_a                   17.821(9)
_cell_length_b                   9.605(5)
_cell_length_c                   12.362(8)
_cell_angle_alpha                90
_cell_angle_beta                 127.53(4)
_cell_angle_gamma                90
_cell_volume                     1678.07
loop_
_atom_site_label
_atom_site_type_symbol
_atom_site_fract_x
_atom_site_fract_y
_atom_site_fract_z
Rh1 Rh 0.5000 0.62467(4) 0.5000
O1 O 0.5570(1) 0.6175(2) 0.7007(2)
O2 O 0.6324(1) 0.6174(2) 0.5530(2)
N1 N 0.5000 0.8559(3) 0.5000
C1 C 0.6067(3) 0.5000 0.9015(5)
C2 C 0.6210(4) 0.6219(5) 0.9683(4)
C3 C 0.6483(5) 0.6203(8) 1.0999(5)
C4 C 0.6602(7) 0.5000 1.1639(8)
C5 C 0.5715(3) 0.5000 0.7575(5)
C6 C 0.7714(3) 0.5000 0.6209(4)
C7 C 0.8189(2) 0.6239(3) 0.6453(3)
C8 C 0.9128(2) 0.6238(4) 0.6988(4)
C9 C 0.9603(4) 0.5000 0.7284(6)
C10 C 0.6712(3) 0.5000 0.5712(4)
C11 C 0.4213(2) 0.9274(3) 0.4164(3)
H1 H 0.6124 0.7081 0.9244
H2 H 0.6587 0.7059 1.1457
H3 H 0.6767 0.5000 1.2528
H4 H 0.7864 0.7099 0.6250
H5 H 0.9448 0.7094 0.7151
H6 H 1.0262 0.5000 0.7718
H7 H 0.3624 0.8776 0.3541
O1A O 0.5570(1) 0.3825(2) 0.7007(2)
C3A C 0.6483(5) 0.3797(8) 1.0999(5)
C2A C 0.6210(4) 0.3781(5) 0.9683(4)
H1A H 0.6124 0.2919 0.9244
H2A H 0.6587 0.2941 1.1457
O2A O 0.6324(1) 0.3826(2) 0.5530(2)
C8A C 0.9128(2) 0.3762(4) 0.6988(4)
C7A C 0.8189(2) 0.3761(3) 0.6453(3)
H4A H 0.7864 0.2901 0.6250
H5A H 0.9448 0.2906 0.7151
C11A C 0.4213(2) 1.0726(3) 0.4164(3)
N1A N 0.5000 1.1441(3) 0.5000
C11D C 0.5787(2) 1.0726(3) 0.5836(3)
C11E C 0.5787(2) 0.9274(3) 0.5836(3)
H7E H 0.6376 0.8776 0.6459
H7D H 0.6376 1.1224 0.6459
H7A H 0.3624 1.1224 0.3541
O1E O 0.4430(1) 0.6175(2) 0.2993(2)
C1E C 0.3933(3) 0.5000 0.0985(5)
C2E C 0.3790(4) 0.6219(5) 0.0317(4)
C3E C 0.3517(5) 0.6203(8) -0.0999(5)
C4E C 0.3398(7) 0.5000 -0.1639(8)
C5E C 0.4285(3) 0.5000 0.2425(5)
H1E H 0.3876 0.7081 0.0756
H2E H 0.3413 0.7059 -0.1457
H3E H 0.3233 0.5000 -0.2528
O1D O 0.4430(1) 0.3825(2) 0.2993(2)
C3D C 0.3517(5) 0.3797(8) -0.0999(5)
C2D C 0.3790(4) 0.3781(5) 0.0317(4)
H1D H 0.3876 0.2919 0.0756
H2D H 0.3413 0.2941 -0.1457
O2E O 0.3676(1) 0.6174(2) 0.4470(2)
C6E C 0.2286(3) 0.5000 0.3791(4)
C7E C 0.1811(2) 0.6239(3) 0.3547(3)
C8E C 0.0872(2) 0.6238(4) 0.3012(4)
C9E C 0.0397(4) 0.5000 0.2716(6)
C10E C 0.3288(3) 0.5000 0.4288(4)
H4E H 0.2136 0.7099 0.3750
H5E H 0.0552 0.7094 0.2849
H6E H -0.0262 0.5000 0.2282
O2D O 0.3676(1) 0.3826(2) 0.4470(2)
C8D C 0.0872(2) 0.3762(4) 0.3012(4)
C7D C 0.1811(2) 0.3761(3) 0.3547(3)
H4D H 0.2136 0.2901 0.3750
H5D H 0.0552 0.2906 0.2849
Rh1A Rh 0.5000 0.37533(4) 0.5000
Rh1A_2 Rh 0.5000 1.37533(4) 0.5000
N1A_2 N 0.5000 0.1441(3) 0.5000
loop_
_geom_bond_atom_site_label_1
_geom_bond_atom_site_label_2
_geom_bond_site_symmetry_1
_geom_bond_site_symmetry_2
Rh1 O1 1_555 1_555
O1 C5 1_555 1_555
O2 Rh1 1_555 1_555
N1 Rh1 1_555 1_555
C1 C2 1_555 1_555
C2 C3 1_555 1_555
C3 C4 1_555 1_555
C4 H3 1_555 1_555
C5 C1 1_555 1_555
C6 C7 1_555 1_555
C7 C8 1_555 1_555
C8 C9 1_555 1_555
C9 H6 1_555 1_555
C10 O2 1_555 1_555
C11 N1 1_555 1_555
H1 C2 1_555 1_555
H2 C3 1_555 1_555
H4 C7 1_555 1_555
H5 C8 1_555 1_555
H7 C11 1_555 1_555
O1A C5 1_555 1_555
C3A C4 1_555 1_555
C2A C1 1_555 1_555
H1A C2A 1_555 1_555
H2A C3A 1_555 1_555
O2A C10 1_555 1_555
C8A C9 1_555 1_555
C7A C6 1_555 1_555
H4A C7A 1_555 1_555
H5A C8A 1_555 1_555
C11A C11 1_555 1_555
N1A C11A 1_555 1_555
C11D N1A 1_555 1_555
C11E N1 1_555 1_555
H7E C11E 1_555 1_555
H7D C11D 1_555 1_555
H7A C11A 1_555 1_555
O1E Rh1 1_555 1_555
C1E C2E 1_555 1_555
C2E C3E 1_555 1_555
C3E C4E 1_555 1_555
C4E H3E 1_555 1_555
C5E O1E 1_555 1_555
H1E C2E 1_555 1_555
H2E C3E 1_555 1_555
O1D C5E 1_555 1_555
C3D C4E 1_555 1_555
C2D C1E 1_555 1_555
H1D C2D 1_555 1_555
H2D C3D 1_555 1_555
O2E Rh1 1_555 1_555
C6E C7E 1_555 1_555
C7E C8E 1_555 1_555
C8E C9E 1_555 1_555
C9E H6E 1_555 1_555
C10E O2E 1_555 1_555
H4E C7E 1_555 1_555
H5E C8E 1_555 1_555
O2D C10E 1_555 1_555
C8D C9E 1_555 1_555
C7D C6E 1_555 1_555
H4D C7D 1_555 1_555
H5D C8D 1_555 1_555
Rh1A Rh1 1_555 1_555
Rh1A_2 N1A 1_555 1_555
N1A_2 Rh1A 1_555 1_555
C6 C10 1_555 1_555
O1A Rh1A 1_555 1_555
C3A C2A 1_555 1_555
O2A Rh1A 1_555 1_555
C8A C7A 1_555 1_555
C11D C11E 1_555 1_555
C1E C5E 1_555 1_555
O1D Rh1A 1_555 1_555
C3D C2D 1_555 1_555
C6E C10E 1_555 1_555
O2D Rh1A 1_555 1_555
C8D C7D 1_555 1_555

#END
