
#######################################################################
#
#                 Cambridge Crystallographic Data Centre
#                                CCDC 
#
#######################################################################
#
# If this CIF has been generated from an entry in the Cambridge 
# Structural Database, then it will include bibliographic, chemical, 
# crystal, experimental, refinement or atomic coordinate data resulting 
# from the CCDC's data processing and validation procedures.
#
#######################################################################

data_XUVMOQ
_symmetry_cell_setting           monoclinic
_symmetry_space_group_name_H-M   'C 2/c'
_symmetry_Int_Tables_number      15
_space_group_name_Hall           '-C 2yn'
loop_
_symmetry_equiv_pos_site_id
_symmetry_equiv_pos_as_xyz
1 x,y,z
2 1/2+x,1/2+y,z
3 x,-y,1/2+z
4 1/2+x,1/2-y,1/2+z
5 -x,-y,-z
6 1/2-x,1/2-y,-z
7 -x,y,1/2-z
8 1/2-x,1/2+y,1/2-z
_cell_length_a                   17.461(4)
_cell_length_b                   9.562(2)
_cell_length_c                   19.660(4)
_cell_angle_alpha                90
_cell_angle_beta                 98.736(3)
_cell_angle_gamma                90
_cell_volume                     3244.39
loop_
_atom_site_label
_atom_site_type_symbol
_atom_site_fract_x
_atom_site_fract_y
_atom_site_fract_z
Rh1 Rh 0.0000 0.13935(5) 0.2500
Rh2 Rh 0.0000 -0.61054(5) 0.2500
N1 N 0.0000 -0.3804(5) 0.2500
N2 N 0.0000 -0.0892(6) 0.2500
O1 O 0.0462(2) 0.1477(3) 0.35129(19)
O2 O 0.1079(2) 0.1464(3) 0.22400(19)
O3 O 0.1090(2) 0.3819(3) 0.22546(19)
O4 O 0.0432(2) 0.3832(3) 0.35169(18)
C1 C 0.2461(3) 0.1379(5) 0.1721(3)
H1 H 0.2219 0.0537 0.1794
C2 C 0.0396(3) -0.1634(5) 0.2084(3)
H2 H 0.0675 -0.1163 0.1788
C3 C 0.0394(3) -0.3071(5) 0.2087(2)
H3 H 0.0675 -0.3549 0.1795
C4 C 0.2526(3) 0.3880(5) 0.1824(3)
H4 H 0.2326 0.4718 0.1961
C5 C 0.3210(3) 0.3877(6) 0.1539(3)
H5 H 0.3470 0.4711 0.1489
C6 C 0.3137(3) 0.1389(6) 0.1434(3)
H6 H 0.3347 0.0551 0.1309
C7 C 0.1382(3) 0.2641(5) 0.2152(2)
C8 C 0.2146(3) 0.2634(5) 0.1901(2)
C9 C 0.3499(3) 0.2632(6) 0.1333(3)
H7 H 0.3942 0.2632 0.1124
C10 C 0.0979(3) 0.2677(6) 0.4526(3)
C11 C 0.0588(3) 0.2651(5) 0.3802(3)
C12 C 0.1046(4) 0.3933(7) 0.4897(3)
H8 H 0.0821 0.4745 0.4697
C13 C 0.1292(5) 0.1495(8) 0.4847(4)
H9 H 0.1239 0.0645 0.4614
C14 C 0.1444(5) 0.3965(8) 0.5559(4)
H10 H 0.1489 0.4803 0.5802
C15 C 0.1773(4) 0.2772(9) 0.5861(4)
H11 H 0.2053 0.2803 0.6303
C16 C 0.1684(6) 0.1546(10) 0.5509(4)
H12 H 0.1890 0.0729 0.5719
C2F C -0.0396(3) -0.1634(5) 0.2916(3)
H2F H -0.0675 -0.1163 0.3212
C3F C -0.0394(3) -0.3071(5) 0.2913(2)
H3F H -0.0675 -0.3549 0.3205
O1F O -0.0462(2) 0.1477(3) 0.14871(19)
O4F O -0.0432(2) 0.3832(3) 0.14831(18)
C10F C -0.0979(3) 0.2677(6) 0.0474(3)
C11F C -0.0588(3) 0.2651(5) 0.1198(3)
C12F C -0.1046(4) 0.3933(7) 0.0103(3)
H8F H -0.0821 0.4745 0.0303
C13F C -0.1292(5) 0.1495(8) 0.0153(4)
H9F H -0.1239 0.0645 0.0386
C14F C -0.1444(5) 0.3965(8) -0.0559(4)
H10F H -0.1489 0.4803 -0.0802
C15F C -0.1773(4) 0.2772(9) -0.0861(4)
H11F H -0.2053 0.2803 -0.1303
C16F C -0.1684(6) 0.1546(10) -0.0509(4)
H12F H -0.1890 0.0729 -0.0719
O2F O -0.1079(2) 0.1464(3) 0.27600(19)
O3F O -0.1090(2) 0.3819(3) 0.27454(19)
C1F C -0.2461(3) 0.1379(5) 0.3279(3)
H1F H -0.2219 0.0537 0.3206
C4F C -0.2526(3) 0.3880(5) 0.3176(3)
H4F H -0.2326 0.4718 0.3039
C5F C -0.3210(3) 0.3877(6) 0.3461(3)
H5F H -0.3470 0.4711 0.3511
C6F C -0.3137(3) 0.1389(6) 0.3566(3)
H6F H -0.3347 0.0551 0.3691
C7F C -0.1382(3) 0.2641(5) 0.2848(2)
C8F C -0.2146(3) 0.2634(5) 0.3099(2)
C9F C -0.3499(3) 0.2632(6) 0.3667(3)
H7F H -0.3942 0.2632 0.3876
Rh2_2 Rh 0.0000 0.38946(5) 0.2500
Rh1_2 Rh 0.0000 -0.86065(5) 0.2500
O3_2 O 0.1090(2) -0.6181(3) 0.22546(19)
O3F_2 O -0.1090(2) -0.6181(3) 0.27454(19)
O4_2 O 0.0432(2) -0.6168(3) 0.35169(18)
O4F_2 O -0.0432(2) -0.6168(3) 0.14831(18)
loop_
_geom_bond_atom_site_label_1
_geom_bond_atom_site_label_2
_geom_bond_site_symmetry_1
_geom_bond_site_symmetry_2
Rh1 N2 1_555 1_555
Rh2 N1 1_555 1_555
N1 C3 1_555 1_555
N2 C2 1_555 1_555
O1 Rh1 1_555 1_555
O2 Rh1 1_555 1_555
O3 C7 1_555 1_555
O4 C11 1_555 1_555
C1 H1 1_555 1_555
C2 H2 1_555 1_555
C3 C2 1_555 1_555
H3 C3 1_555 1_555
C4 H4 1_555 1_555
C5 C4 1_555 1_555
H5 C5 1_555 1_555
C6 C1 1_555 1_555
H6 C6 1_555 1_555
C7 O2 1_555 1_555
C8 C1 1_555 1_555
C9 C5 1_555 1_555
H7 C9 1_555 1_555
C10 C11 1_555 1_555
C11 O1 1_555 1_555
C12 C10 1_555 1_555
H8 C12 1_555 1_555
C13 C10 1_555 1_555
H9 C13 1_555 1_555
C14 C12 1_555 1_555
H10 C14 1_555 1_555
C15 C14 1_555 1_555
H11 C15 1_555 1_555
C16 C13 1_555 1_555
H12 C16 1_555 1_555
C2F N2 1_555 1_555
H2F C2F 1_555 1_555
C3F N1 1_555 1_555
H3F C3F 1_555 1_555
O1F Rh1 1_555 1_555
O4F C11F 1_555 1_555
C10F C11F 1_555 1_555
C11F O1F 1_555 1_555
C12F C10F 1_555 1_555
H8F C12F 1_555 1_555
C13F C10F 1_555 1_555
H9F C13F 1_555 1_555
C14F C12F 1_555 1_555
H10F C14F 1_555 1_555
C15F C14F 1_555 1_555
H11F C15F 1_555 1_555
C16F C13F 1_555 1_555
H12F C16F 1_555 1_555
O2F Rh1 1_555 1_555
O3F C7F 1_555 1_555
C1F H1F 1_555 1_555
C4F H4F 1_555 1_555
C5F C4F 1_555 1_555
H5F C5F 1_555 1_555
C6F C1F 1_555 1_555
H6F C6F 1_555 1_555
C7F O2F 1_555 1_555
C8F C1F 1_555 1_555
C9F C5F 1_555 1_555
H7F C9F 1_555 1_555
Rh2_2 Rh1 1_555 1_555
Rh1_2 Rh2 1_555 1_555
O3_2 Rh2 1_555 1_555
O3F_2 Rh2 1_555 1_555
O4_2 Rh2 1_555 1_555
O4F_2 Rh2 1_555 1_555
O3 Rh2_2 1_555 1_555
O4 Rh2_2 1_555 1_555
C4 C8 1_555 1_555
C6 C9 1_555 1_555
C7 C8 1_555 1_555
C15 C16 1_555 1_555
C2F C3F 1_555 1_555
O4F Rh2_2 1_555 1_555
C15F C16F 1_555 1_555
O3F Rh2_2 1_555 1_555
C4F C8F 1_555 1_555
C6F C9F 1_555 1_555
C7F C8F 1_555 1_555

#END
