
#######################################################################
#
#                 Cambridge Crystallographic Data Centre
#                                CCDC 
#
#######################################################################
#
# If this CIF has been generated from an entry in the Cambridge 
# Structural Database, then it will include bibliographic, chemical, 
# crystal, experimental, refinement or atomic coordinate data resulting 
# from the CCDC's data processing and validation procedures.
#
#######################################################################

data_XUVMOQ07
_symmetry_cell_setting           monoclinic
_symmetry_space_group_name_H-M   'C 2/m'
_symmetry_Int_Tables_number      12
_space_group_name_Hall           '-C 2y'
loop_
_symmetry_equiv_pos_site_id
_symmetry_equiv_pos_as_xyz
1 x,y,z
2 1/2+x,1/2+y,z
3 -x,y,-z
4 1/2-x,1/2+y,-z
5 -x,-y,-z
6 1/2-x,1/2-y,-z
7 x,-y,z
8 1/2+x,1/2-y,z
_cell_length_a                   17.790(5)
_cell_length_b                   9.594(2)
_cell_length_c                   12.344(3)
_cell_angle_alpha                90
_cell_angle_beta                 127.416(4)
_cell_angle_gamma                90
_cell_volume                     1673.35
loop_
_atom_site_label
_atom_site_type_symbol
_atom_site_fract_x
_atom_site_fract_y
_atom_site_fract_z
Rh1 Rh 0.5000 0.37541(4) 0.0000
O1 O 0.44383(18) 0.3829(2) -0.2004(3)
O2 O 0.36764(17) 0.3832(2) -0.0528(3)
N1 N 0.5000 0.1443(4) 0.0000
C1 C 0.4293(3) 0.5000 -0.2569(5)
C2 C 0.3939(4) 0.5000 -0.4017(6)
C3 C 0.3786(5) 0.3778(6) -0.4684(5)
H1 H 0.3863 0.2936 -0.4254
C4 C 0.3514(7) 0.3782(9) -0.6008(7)
H2 H 0.3415 0.2948 -0.6460
C5 C 0.3397(8) 0.5000 -0.6619(11)
H3 H 0.3230 0.5000 -0.7494
C6 C 0.3289(3) 0.5000 -0.0712(5)
C7 C 0.2290(3) 0.5000 -0.1206(5)
C8 C 0.1815(3) 0.3759(4) -0.1454(4)
H4 H 0.2132 0.2917 -0.1265
C9 C 0.0880(3) 0.3758(5) -0.1976(5)
H5 H 0.0568 0.2919 -0.2127
C10 C 0.0404(5) 0.5000 -0.2277(8)
H6 H -0.0240 0.5000 -0.2683
C11 C 0.4208(2) 0.0716(3) -0.0836(4)
H7 H 0.3641 0.1189 -0.1436
Rh1D Rh 0.5000 0.62459(4) 0.0000
Rh1D_2 Rh 0.5000 -0.37541(4) 0.0000
O1F O 0.44383(18) 0.6171(2) -0.2004(3)
O1B O 0.55617(18) 0.3829(2) 0.2004(3)
O1D O 0.55617(18) 0.6171(2) 0.2004(3)
O2F O 0.36764(17) 0.6168(2) -0.0528(3)
O2B O 0.63236(17) 0.3832(2) 0.0528(3)
O2D O 0.63236(17) 0.6168(2) 0.0528(3)
N1D N 0.5000 -0.1443(4) 0.0000
N1D_2 N 0.5000 0.8557(4) 0.0000
C1B C 0.5707(3) 0.5000 0.2569(5)
C2B C 0.6061(4) 0.5000 0.4017(6)
C3F C 0.3786(5) 0.6222(6) -0.4684(5)
C3B C 0.6214(5) 0.3778(6) 0.4684(5)
C3D C 0.6214(5) 0.6222(6) 0.4684(5)
H1F H 0.3863 0.7064 -0.4254
H1B H 0.6137 0.2936 0.4254
H1D H 0.6137 0.7064 0.4254
C4F C 0.3514(7) 0.6218(9) -0.6008(7)
C4B C 0.6486(7) 0.3782(9) 0.6008(7)
C4D C 0.6486(7) 0.6218(9) 0.6008(7)
H2F H 0.3415 0.7052 -0.6460
H2B H 0.6585 0.2948 0.6460
H2D H 0.6585 0.7052 0.6460
C5B C 0.6603(8) 0.5000 0.6619(11)
H3B H 0.6770 0.5000 0.7494
C6B C 0.6711(3) 0.5000 0.0712(5)
C7B C 0.7710(3) 0.5000 0.1206(5)
C8F C 0.1815(3) 0.6241(4) -0.1454(4)
C8B C 0.8185(3) 0.3759(4) 0.1454(4)
C8D C 0.8185(3) 0.6241(4) 0.1454(4)
H4F H 0.2132 0.7083 -0.1265
H4B H 0.7868 0.2917 0.1265
H4D H 0.7868 0.7083 0.1265
C9F C 0.0880(3) 0.6242(5) -0.1976(5)
C9B C 0.9120(3) 0.3758(5) 0.1976(5)
C9D C 0.9120(3) 0.6242(5) 0.1976(5)
H5F H 0.0568 0.7081 -0.2127
H5B H 0.9432 0.2919 0.2127
H5D H 0.9432 0.7081 0.2127
C10B C 0.9596(5) 0.5000 0.2277(8)
H6B H 1.0240 0.5000 0.2683
C11F C 0.4208(2) -0.0716(3) -0.0836(4)
C11D C 0.5792(2) -0.0716(3) 0.0836(4)
C11B C 0.5792(2) 0.0716(3) 0.0836(4)
H7B H 0.6359 0.1189 0.1436
H7D H 0.6359 -0.1189 0.1436
H7F H 0.3641 -0.1189 -0.1436
loop_
_geom_bond_atom_site_label_1
_geom_bond_atom_site_label_2
_geom_bond_site_symmetry_1
_geom_bond_site_symmetry_2
Rh1 O1 1_555 1_555
O1 C1 1_555 1_555
O2 Rh1 1_555 1_555
N1 Rh1 1_555 1_555
C1 C2 1_555 1_555
C2 C3 1_555 1_555
C3 H1 1_555 1_555
C4 C3 1_555 1_555
H2 C4 1_555 1_555
C5 C4 1_555 1_555
H3 C5 1_555 1_555
C6 O2 1_555 1_555
C7 C6 1_555 1_555
C8 C7 1_555 1_555
H4 C8 1_555 1_555
C9 C8 1_555 1_555
H5 C9 1_555 1_555
C10 C9 1_555 1_555
H6 C10 1_555 1_555
C11 N1 1_555 1_555
H7 C11 1_555 1_555
Rh1D Rh1 1_555 1_555
Rh1D_2 N1D 1_555 1_555
O1F C1 1_555 1_555
O1B Rh1 1_555 1_555
O1D Rh1D 1_555 1_555
O2F C6 1_555 1_555
O2B Rh1 1_555 1_555
O2D Rh1D 1_555 1_555
N1D C11F 1_555 1_555
N1D_2 Rh1D 1_555 1_555
C1B O1B 1_555 1_555
C2B C1B 1_555 1_555
C3F C2 1_555 1_555
C3B C2B 1_555 1_555
C3D C2B 1_555 1_555
H1F C3F 1_555 1_555
H1B C3B 1_555 1_555
H1D C3D 1_555 1_555
C4F C5 1_555 1_555
C4B C3B 1_555 1_555
C4D C3D 1_555 1_555
H2F C4F 1_555 1_555
H2B C4B 1_555 1_555
H2D C4D 1_555 1_555
C5B C4B 1_555 1_555
H3B C5B 1_555 1_555
C6B O2B 1_555 1_555
C7B C6B 1_555 1_555
C8F C7 1_555 1_555
C8B C7B 1_555 1_555
C8D C7B 1_555 1_555
H4F C8F 1_555 1_555
H4B C8B 1_555 1_555
H4D C8D 1_555 1_555
C9F C10 1_555 1_555
C9B C8B 1_555 1_555
C9D C8D 1_555 1_555
H5F C9F 1_555 1_555
H5B C9B 1_555 1_555
H5D C9D 1_555 1_555
C10B C9B 1_555 1_555
H6B C10B 1_555 1_555
C11F C11 1_555 1_555
C11D N1D 1_555 1_555
C11B N1 1_555 1_555
H7B C11B 1_555 1_555
H7D C11D 1_555 1_555
H7F C11F 1_555 1_555
Rh1D O1F 1_555 1_555
Rh1D O2F 1_555 1_555
O1D C1B 1_555 1_555
O2D C6B 1_555 1_555
C3F C4F 1_555 1_555
C4D C5B 1_555 1_555
C8F C9F 1_555 1_555
C9D C10B 1_555 1_555
C11D C11B 1_555 1_555

#END
