
#######################################################################
#
#                 Cambridge Crystallographic Data Centre
#                                CCDC 
#
#######################################################################
#
# If this CIF has been generated from an entry in the Cambridge 
# Structural Database, then it will include bibliographic, chemical, 
# crystal, experimental, refinement or atomic coordinate data resulting 
# from the CCDC's data processing and validation procedures.
#
#######################################################################

data_XUVNUZ
_symmetry_cell_setting           triclinic
_symmetry_space_group_name_H-M   'P -1'
_symmetry_Int_Tables_number      2
_space_group_name_Hall           '-P 1'
loop_
_symmetry_equiv_pos_site_id
_symmetry_equiv_pos_as_xyz
1 x,y,z
2 -x,-y,-z
_cell_length_a                   9.3447(4)
_cell_length_b                   11.3968(6)
_cell_length_c                   11.5203(6)
_cell_angle_alpha                60.940(6)
_cell_angle_beta                 70.921(5)
_cell_angle_gamma                88.126(4)
_cell_volume                     1001.67
loop_
_atom_site_label
_atom_site_type_symbol
_atom_site_fract_x
_atom_site_fract_y
_atom_site_fract_z
Cu1 Cu 0.60258(4) 0.13326(3) 0.48170(4)
O1 O 0.7847(2) 0.1352(2) 0.3391(2)
O2 O 0.5844(2) -0.0572(2) 0.6024(2)
O3 O 1.2217(2) -0.1762(2) 0.4085(3)
N1 N 0.5937(3) 0.3280(3) 0.3608(3)
N2 N 0.4229(3) 0.1485(3) 0.6227(3)
C1 C 0.8749(3) 0.0478(3) 0.3602(3)
C2 C 1.0175(3) 0.0821(3) 0.2426(3)
H1 H 1.0304 0.1593 0.1555
C3 C 1.1324(3) 0.0073(3) 0.2535(3)
C4 C 1.2827(4) 0.0460(4) 0.1341(4)
H2 H 1.3638 0.0607 0.1618
H3 H 1.2807 0.1279 0.0517
H4 H 1.2999 -0.0257 0.1122
C5 C 1.1122(3) -0.1154(3) 0.3904(3)
C6 C 0.9608(3) -0.1628(3) 0.5049(3)
C7 C 0.9337(4) -0.2869(3) 0.6264(4)
H5 H 1.0110 -0.3406 0.6352
C8 C 0.7931(4) -0.3325(3) 0.7353(4)
H6 H 0.7763 -0.4173 0.8161
C9 C 0.6776(3) -0.2544(3) 0.7263(3)
H7 H 0.5839 -0.2865 0.8011
C10 C 0.7002(3) -0.1253(3) 0.6038(3)
C11 C 0.8424(3) -0.0796(3) 0.4911(3)
C12 C 0.3399(4) 0.0540(4) 0.7550(4)
H8 H 0.3700 -0.0312 0.7943
C13 C 0.2091(4) 0.0792(5) 0.8359(5)
H9 H 0.1535 0.0114 0.9283
C14 C 0.1627(4) 0.2020(5) 0.7808(5)
H10 H 0.0752 0.2185 0.8351
C15 C 0.2464(4) 0.3045(4) 0.6419(5)
C16 C 0.2085(6) 0.4364(5) 0.5712(7)
H11 H 0.1217 0.4595 0.6190
C17 C 0.2941(6) 0.5285(5) 0.4376(7)
H12 H 0.2653 0.6138 0.3951
C18 C 0.4303(5) 0.4989(4) 0.3577(5)
C19 C 0.5227(6) 0.5872(4) 0.2177(6)
H13 H 0.5004 0.6741 0.1682
C20 C 0.6458(6) 0.5454(4) 0.1540(5)
H14 H 0.7082 0.6041 0.0603
C21 C 0.6800(5) 0.4139(4) 0.2285(4)
H15 H 0.7653 0.3872 0.1832
C22 C 0.4694(4) 0.3692(3) 0.4263(4)
C23 C 0.3781(4) 0.2725(4) 0.5668(4)
Cu1A Cu 0.39742(4) -0.13326(3) 0.51830(4)
Cu1A_2 Cu 1.39742(4) -0.13326(3) 0.51830(4)
O2A O 0.4156(2) 0.0572(2) 0.3976(2)
O3A O 0.7783(2) 0.1762(2) 0.5915(3)
N3 N 0.2166(5) 0.7027(4) 0.0529(4)
O4 O 0.3295(4) 0.6779(4) -0.0089(4)
O5 O 0.2174(6) 0.7693(5) 0.1055(7)
O6 O 0.0913(5) 0.6498(5) 0.0687(6)
H16 H -0.0263 0.4351 -0.0142
O7 O 0.0265(15) 0.4263(14) 0.0390(15)
H17? H 0.0095 0.4847 0.0721
loop_
_geom_bond_atom_site_label_1
_geom_bond_atom_site_label_2
_geom_bond_site_symmetry_1
_geom_bond_site_symmetry_2
Cu1 O1 1_555 1_555
O1 C1 1_555 1_555
O2 Cu1 1_555 1_555
O3 C5 1_555 1_555
N1 Cu1 1_555 1_555
N2 Cu1 1_555 1_555
C1 C2 1_555 1_555
C2 H1 1_555 1_555
C3 C2 1_555 1_555
C4 C3 1_555 1_555
H2 C4 1_555 1_555
H3 C4 1_555 1_555
H4 C4 1_555 1_555
C5 C3 1_555 1_555
C6 C5 1_555 1_555
C7 C6 1_555 1_555
H5 C7 1_555 1_555
C8 C7 1_555 1_555
H6 C8 1_555 1_555
C9 C8 1_555 1_555
H7 C9 1_555 1_555
C10 O2 1_555 1_555
C11 C1 1_555 1_555
C12 N2 1_555 1_555
H8 C12 1_555 1_555
C13 C12 1_555 1_555
H9 C13 1_555 1_555
C14 C13 1_555 1_555
H10 C14 1_555 1_555
C15 C14 1_555 1_555
C16 C15 1_555 1_555
H11 C16 1_555 1_555
C17 C16 1_555 1_555
H12 C17 1_555 1_555
C18 C17 1_555 1_555
C19 C18 1_555 1_555
H13 C19 1_555 1_555
C20 C19 1_555 1_555
H14 C20 1_555 1_555
C21 N1 1_555 1_555
H15 C21 1_555 1_555
C22 N1 1_555 1_555
C23 N2 1_555 1_555
N3 O4 1_555 1_555
O5 N3 1_555 1_555
O6 N3 1_555 1_555
H16 O7 1_555 1_555
Cu1A O2 1_555 1_555
Cu1A_2 O3 1_555 1_555
O2A Cu1 1_555 1_555
O3A Cu1 1_555 1_555
C6 C11 1_555 1_555
C9 C10 1_555 1_555
C10 C11 1_555 1_555
C15 C23 1_555 1_555
C18 C22 1_555 1_555
C20 C21 1_555 1_555
C22 C23 1_555 1_555
Cu1A O2A 1_555 1_555

#END
