
#######################################################################
#
#                 Cambridge Crystallographic Data Centre
#                                CCDC 
#
#######################################################################
#
# If this CIF has been generated from an entry in the Cambridge 
# Structural Database, then it will include bibliographic, chemical, 
# crystal, experimental, refinement or atomic coordinate data resulting 
# from the CCDC's data processing and validation procedures.
#
#######################################################################

data_XUVPEL
_symmetry_cell_setting           monoclinic
_symmetry_space_group_name_H-M   'C 2/c'
_symmetry_Int_Tables_number      15
_space_group_name_Hall           '-C 2yn'
loop_
_symmetry_equiv_pos_site_id
_symmetry_equiv_pos_as_xyz
1 x,y,z
2 -x,y,1/2-z
3 1/2+x,1/2+y,z
4 1/2-x,1/2+y,1/2-z
5 -x,-y,-z
6 x,-y,1/2+z
7 1/2-x,1/2-y,-z
8 1/2+x,1/2-y,1/2+z
_cell_length_a                   25.2049(16)
_cell_length_b                   10.4271(7)
_cell_length_c                   18.2181(12)
_cell_angle_alpha                90
_cell_angle_beta                 116.958(2)
_cell_angle_gamma                90
_cell_volume                     4267.71
loop_
_atom_site_label
_atom_site_type_symbol
_atom_site_fract_x
_atom_site_fract_y
_atom_site_fract_z
Co1 Co 0.5000 0.5000 0.0000
S1 S 0.44166(3) 0.16435(6) 0.12606(4)
O1 O 0.74749(7) 0.08573(14) 0.74558(8)
O2 O 0.66145(6) 0.10876(14) 0.62227(9)
N1 N 0.55262(6) 0.54776(15) 0.13524(9)
N2 N 0.73885(6) 0.62832(14) 0.39714(9)
N3 N 0.92854(6) 0.87320(15) 0.49084(9)
N4 N 0.46040(6) 0.34571(16) 0.02739(9)
C1 C 0.55076(8) 0.47191(19) 0.19349(11)
H1 H 0.5183 0.4142 0.1777
C2 C 0.59319(8) 0.47261(19) 0.27500(12)
H2 H 0.5893 0.4169 0.3136
C3 C 0.64171(7) 0.55530(18) 0.30037(11)
C4 C 0.64146(8) 0.64024(18) 0.24151(11)
H3 H 0.6720 0.7029 0.2564
C5 C 0.59721(8) 0.63403(18) 0.16160(11)
H4 H 0.5982 0.6939 0.1229
C6 C 0.69348(7) 0.54845(18) 0.38368(11)
C7 C 0.69611(8) 0.45904(18) 0.44227(11)
H5 H 0.6628 0.4053 0.4308
C8 C 0.74692(7) 0.44779(18) 0.51717(11)
C9 C 0.79427(8) 0.52991(18) 0.52980(11)
H6 H 0.8302 0.5260 0.5797
C10 C 0.78825(7) 0.61728(17) 0.46865(11)
C11 C 0.83752(8) 0.70545(18) 0.47794(11)
C12 C 0.82531(8) 0.81930(17) 0.43498(11)
H7 H 0.7853 0.8422 0.3993
C13 C 0.87118(7) 0.90006(18) 0.44375(11)
H8 H 0.8614 0.9791 0.4147
C14 C 0.94055(9) 0.7593(2) 0.52885(15)
H9 H 0.9811 0.7357 0.5603
C15 C 0.89743(9) 0.6742(2) 0.52499(15)
H10 H 0.9084 0.5952 0.5540
C16 C 0.75034(8) 0.35325(17) 0.58023(11)
C17 C 0.70016(8) 0.27674(19) 0.56504(11)
H11 H 0.6643 0.2848 0.5153
C18 C 0.70497(8) 0.19064(18) 0.62436(12)
C19 C 0.68981(10) 0.0310(2) 0.69495(13)
H12 H 0.6941 -0.0582 0.6798
H13 H 0.6656 0.0299 0.7252
C20 C 0.75599(9) 0.17714(18) 0.69731(11)
C21 C 0.80553(9) 0.24834(19) 0.71402(11)
H14 H 0.8409 0.2388 0.7642
C22 C 0.80183(8) 0.33664(18) 0.65351(11)
H15 H 0.8358 0.3868 0.6632
C23 C 0.45264(8) 0.26769(19) 0.06734(11)
S1D S 0.55834(3) 0.83565(6) -0.12606(4)
O1D O 0.25251(7) 0.91427(14) -0.74558(8)
O2D O 0.33855(6) 0.89124(14) -0.62227(9)
N1D N 0.44738(6) 0.45224(15) -0.13524(9)
N2D N 0.26115(6) 0.37168(14) -0.39714(9)
N3D N 0.07146(6) 0.12680(15) -0.49084(9)
N4D N 0.53960(6) 0.65429(16) -0.02739(9)
C1D C 0.44924(8) 0.52809(19) -0.19349(11)
H1D H 0.4817 0.5858 -0.1777
C2D C 0.40681(8) 0.52739(19) -0.27500(12)
H2D H 0.4107 0.5831 -0.3136
C3D C 0.35829(7) 0.44470(18) -0.30037(11)
C4D C 0.35854(8) 0.35976(18) -0.24151(11)
H3D H 0.3280 0.2971 -0.2564
C5D C 0.40279(8) 0.36597(18) -0.16160(11)
H4D H 0.4018 0.3061 -0.1229
C6D C 0.30652(7) 0.45155(18) -0.38368(11)
C7D C 0.30389(8) 0.54096(18) -0.44227(11)
H5D H 0.3372 0.5947 -0.4308
C8D C 0.25308(7) 0.55221(18) -0.51717(11)
C9D C 0.20573(8) 0.47009(18) -0.52980(11)
H6D H 0.1698 0.4740 -0.5797
C10D C 0.21175(7) 0.38272(17) -0.46865(11)
C11D C 0.16248(8) 0.29455(18) -0.47794(11)
C12D C 0.17469(8) 0.18070(17) -0.43498(11)
H7D H 0.2147 0.1578 -0.3993
C13D C 0.12882(7) 0.09994(18) -0.44375(11)
H8D H 0.1386 0.0209 -0.4147
C14D C 0.05945(9) 0.2407(2) -0.52885(15)
H9D H 0.0189 0.2643 -0.5603
C15D C 0.10257(9) 0.3258(2) -0.52499(15)
H10D H 0.0916 0.4048 -0.5540
C16D C 0.24966(8) 0.64675(17) -0.58023(11)
C17D C 0.29984(8) 0.72326(19) -0.56504(11)
H11D H 0.3357 0.7152 -0.5153
C18D C 0.29503(8) 0.80936(18) -0.62436(12)
C19D C 0.31019(10) 0.9690(2) -0.69495(13)
H12D H 0.3059 1.0582 -0.6798
H13D H 0.3344 0.9701 -0.7252
C20D C 0.24401(9) 0.82286(18) -0.69731(11)
C21D C 0.19447(9) 0.75166(19) -0.71402(11)
H14D H 0.1591 0.7612 -0.7642
C22D C 0.19817(8) 0.66336(18) -0.65351(11)
H15D H 0.1642 0.6132 -0.6632
C23D C 0.54736(8) 0.73231(19) -0.06734(11)
Co1C Co 0.0000 0.0000 -0.5000
Co1C_2 Co 1.0000 1.0000 0.5000
N3C N 0.57146(6) 0.37320(15) 0.00916(9)
N3G N 0.42854(6) 0.62680(15) -0.00916(9)
loop_
_geom_bond_atom_site_label_1
_geom_bond_atom_site_label_2
_geom_bond_site_symmetry_1
_geom_bond_site_symmetry_2
Co1 N1 1_555 1_555
S1 C23 1_555 1_555
O1 C19 1_555 1_555
O2 C18 1_555 1_555
N1 C1 1_555 1_555
N2 C6 1_555 1_555
N3 C13 1_555 1_555
N4 Co1 1_555 1_555
C1 H1 1_555 1_555
C2 C1 1_555 1_555
H2 C2 1_555 1_555
C3 C2 1_555 1_555
C4 C3 1_555 1_555
H3 C4 1_555 1_555
C5 N1 1_555 1_555
H4 C5 1_555 1_555
C6 C3 1_555 1_555
C7 C6 1_555 1_555
H5 C7 1_555 1_555
C8 C7 1_555 1_555
C9 C8 1_555 1_555
H6 C9 1_555 1_555
C10 N2 1_555 1_555
C11 C10 1_555 1_555
C12 C11 1_555 1_555
H7 C12 1_555 1_555
C13 C12 1_555 1_555
H8 C13 1_555 1_555
C14 N3 1_555 1_555
H9 C14 1_555 1_555
C15 C11 1_555 1_555
H10 C15 1_555 1_555
C16 C8 1_555 1_555
C17 C16 1_555 1_555
H11 C17 1_555 1_555
C18 C17 1_555 1_555
C19 O2 1_555 1_555
H12 C19 1_555 1_555
H13 C19 1_555 1_555
C20 O1 1_555 1_555
C21 C20 1_555 1_555
H14 C21 1_555 1_555
C22 C16 1_555 1_555
H15 C22 1_555 1_555
C23 N4 1_555 1_555
S1D C23D 1_555 1_555
O1D C19D 1_555 1_555
O2D C18D 1_555 1_555
N1D Co1 1_555 1_555
N2D C6D 1_555 1_555
N3D C13D 1_555 1_555
N4D Co1 1_555 1_555
C1D N1D 1_555 1_555
H1D C1D 1_555 1_555
C2D C1D 1_555 1_555
H2D C2D 1_555 1_555
C3D C2D 1_555 1_555
C4D C3D 1_555 1_555
H3D C4D 1_555 1_555
C5D N1D 1_555 1_555
H4D C5D 1_555 1_555
C6D C3D 1_555 1_555
C7D C6D 1_555 1_555
H5D C7D 1_555 1_555
C8D C7D 1_555 1_555
C9D C8D 1_555 1_555
H6D C9D 1_555 1_555
C10D N2D 1_555 1_555
C11D C10D 1_555 1_555
C12D C11D 1_555 1_555
H7D C12D 1_555 1_555
C13D C12D 1_555 1_555
H8D C13D 1_555 1_555
C14D N3D 1_555 1_555
H9D C14D 1_555 1_555
C15D C11D 1_555 1_555
H10D C15D 1_555 1_555
C16D C8D 1_555 1_555
C17D C16D 1_555 1_555
H11D C17D 1_555 1_555
C18D C17D 1_555 1_555
C19D O2D 1_555 1_555
H12D C19D 1_555 1_555
H13D C19D 1_555 1_555
C20D O1D 1_555 1_555
C21D C20D 1_555 1_555
H14D C21D 1_555 1_555
C22D C16D 1_555 1_555
H15D C22D 1_555 1_555
C23D N4D 1_555 1_555
Co1C N3D 1_555 1_555
Co1C_2 N3 1_555 1_555
N3C Co1 1_555 1_555
N3G Co1 1_555 1_555
C4 C5 1_555 1_555
C9 C10 1_555 1_555
C14 C15 1_555 1_555
C18 C20 1_555 1_555
C21 C22 1_555 1_555
C4D C5D 1_555 1_555
C9D C10D 1_555 1_555
C14D C15D 1_555 1_555
C18D C20D 1_555 1_555
C21D C22D 1_555 1_555

#END
