
#######################################################################
#
#                 Cambridge Crystallographic Data Centre
#                                CCDC 
#
#######################################################################
#
# If this CIF has been generated from an entry in the Cambridge 
# Structural Database, then it will include bibliographic, chemical, 
# crystal, experimental, refinement or atomic coordinate data resulting 
# from the CCDC's data processing and validation procedures.
#
#######################################################################

data_XUVPAH
_symmetry_cell_setting           rhombohedral
_symmetry_space_group_name_H-M   'R -3'
_symmetry_Int_Tables_number      148
_space_group_name_Hall           '-R 3'
loop_
_symmetry_equiv_pos_site_id
_symmetry_equiv_pos_as_xyz
1 x,y,z
2 -y,x-y,z
3 -x+y,-x,z
4 2/3+x,1/3+y,1/3+z
5 2/3-y,1/3+x-y,1/3+z
6 2/3-x+y,1/3-x,1/3+z
7 1/3+x,2/3+y,2/3+z
8 1/3-y,2/3+x-y,2/3+z
9 1/3-x+y,2/3-x,2/3+z
10 -x,-y,-z
11 y,-x+y,-z
12 x-y,x,-z
13 1/3-x,2/3-y,2/3-z
14 1/3+y,2/3-x+y,2/3-z
15 1/3+x-y,2/3+x,2/3-z
16 2/3-x,1/3-y,1/3-z
17 2/3+y,1/3-x+y,1/3-z
18 2/3+x-y,1/3+x,1/3-z
_cell_length_a                   28.729(3)
_cell_length_b                   28.729(3)
_cell_length_c                   14.9816(15)
_cell_angle_alpha                90
_cell_angle_beta                 90
_cell_angle_gamma                120
_cell_volume                     10708.5
loop_
_atom_site_label
_atom_site_type_symbol
_atom_site_fract_x
_atom_site_fract_y
_atom_site_fract_z
Co1 Co 0.5000 0.0000 0.5000
S1 S 0.65554(4) 0.17659(4) 0.51587(8)
N1 N 0.55845(11) 0.08038(11) 0.51190(15)
N2 N 0.51297(10) -0.01205(10) 0.64188(16)
N3 N 0.58368(9) -0.00183(9) 0.95159(15)
N4 N 0.47262(12) -0.11154(11) 1.21122(19)
N5 N 0.75439(9) 0.10396(10) 1.12284(15)
C1 C 0.59864(14) 0.12037(14) 0.51329(19)
C2 C 0.55622(12) 0.02373(12) 0.68952(19)
H1 H 0.5829 0.0550 0.6600
C3 C 0.56360(12) 0.01727(12) 0.77772(19)
H2 H 0.5950 0.0437 0.8074
C4 C 0.52606(11) -0.02727(12) 0.82436(19)
C5 C 0.48132(13) -0.06404(15) 0.7765(2)
H3 H 0.4539 -0.0953 0.8051
C6 C 0.47670(13) -0.05519(15) 0.6878(2)
H4 H 0.4458 -0.0813 0.6568
C7 C 0.53389(11) -0.03448(12) 0.92053(19)
C8 C 0.49252(12) -0.07148(12) 0.97449(19)
H5 H 0.4576 -0.0934 0.9505
C9 C 0.50264(11) -0.07622(11) 1.06366(19)
C10 C 0.55408(11) -0.04250(11) 1.09543(19)
H6 H 0.5624 -0.0443 1.1563
C11 C 0.59345(11) -0.00614(11) 1.03833(17)
C12 C 0.64927(11) 0.03107(11) 1.06767(17)
C13 C 0.67346(12) 0.01904(12) 1.13843(19)
H7 H 0.6543 -0.0141 1.1696
C14 C 0.72545(12) 0.05601(12) 1.16204(19)
H8 H 0.7417 0.0469 1.2089
C15 C 0.73130(12) 0.11463(12) 1.05458(19)
H9 H 0.7514 0.1480 1.0244
C16 C 0.67980(11) 0.07973(11) 1.02580(19)
H10 H 0.6653 0.0893 0.9768
C17 C 0.45980(12) -0.11476(12) 1.1248(2)
C18 C 0.40978(14) -0.15168(16) 1.0948(3)
H11 H 0.4008 -0.1536 1.0333
C19 C 0.37198(15) -0.18667(19) 1.1570(4)
H12 H 0.3372 -0.2134 1.1377
C20 C 0.38507(16) -0.18229(16) 1.2445(3)
H13 H 0.3597 -0.2049 1.2880
C21 C 0.43473(17) -0.14524(14) 1.2675(3)
H14 H 0.4440 -0.1425 1.3290
S1I S 0.34446(4) -0.17659(4) 0.48413(8)
N1I N 0.44155(11) -0.08038(11) 0.48810(15)
N2I N 0.48703(10) 0.01205(10) 0.35812(16)
N3I N 0.41632(9) 0.00183(9) 0.04841(15)
N4I N 0.52738(12) 0.11154(11) -0.21122(19)
N5I N 0.24561(9) -0.10396(10) -0.12284(15)
C1I C 0.40136(14) -0.12037(14) 0.48671(19)
C2I C 0.44378(12) -0.02373(12) 0.31048(19)
H1I H 0.4171 -0.0550 0.3400
C3I C 0.43640(12) -0.01727(12) 0.22228(19)
H2I H 0.4050 -0.0437 0.1926
C4I C 0.47394(11) 0.02727(12) 0.17564(19)
C5I C 0.51868(13) 0.06404(15) 0.2235(2)
H3I H 0.5461 0.0953 0.1949
C6I C 0.52330(13) 0.05519(15) 0.3122(2)
H4I H 0.5542 0.0813 0.3432
C7I C 0.46611(11) 0.03448(12) 0.07947(19)
C8I C 0.50748(12) 0.07148(12) 0.02551(19)
H5I H 0.5424 0.0934 0.0495
C9I C 0.49736(11) 0.07622(11) -0.06366(19)
C10I C 0.44592(11) 0.04250(11) -0.09543(19)
H6I H 0.4376 0.0443 -0.1563
C11I C 0.40655(11) 0.00614(11) -0.03833(17)
C12I C 0.35073(11) -0.03107(11) -0.06767(17)
C13I C 0.32654(12) -0.01904(12) -0.13843(19)
H7I H 0.3457 0.0141 -0.1696
C14I C 0.27455(12) -0.05601(12) -0.16204(19)
H8I H 0.2583 -0.0469 -0.2089
C15I C 0.26870(12) -0.11463(12) -0.05458(19)
H9I H 0.2486 -0.1480 -0.0244
C16I C 0.32020(11) -0.07973(11) -0.02580(19)
H10I H 0.3347 -0.0893 0.0232
C17I C 0.54020(12) 0.11476(12) -0.1248(2)
C18I C 0.59022(14) 0.15168(16) -0.0948(3)
H11I H 0.5992 0.1536 -0.0333
C19I C 0.62802(15) 0.18667(19) -0.1570(4)
H12I H 0.6628 0.2134 -0.1377
C20I C 0.61493(16) 0.18229(16) -0.2445(3)
H13I H 0.6403 0.2049 -0.2880
C21I C 0.56527(17) 0.14524(14) -0.2675(3)
H14I H 0.5560 0.1425 -0.3290
Co1E Co 0.1667 -0.1667 -0.1667
Co1H Co 0.8333 0.1667 1.1667
N5D N 0.56271(10) -0.01624(13) 0.45617(15)
N5M N 0.43729(10) 0.01624(13) 0.54383(15)
loop_
_geom_bond_atom_site_label_1
_geom_bond_atom_site_label_2
_geom_bond_site_symmetry_1
_geom_bond_site_symmetry_2
Co1 N1 1_555 1_555
S1 C1 1_555 1_555
N1 C1 1_555 1_555
N2 Co1 1_555 1_555
N3 C7 1_555 1_555
N4 C17 1_555 1_555
N5 C14 1_555 1_555
C2 N2 1_555 1_555
H1 C2 1_555 1_555
C3 C2 1_555 1_555
H2 C3 1_555 1_555
C4 C3 1_555 1_555
C5 C4 1_555 1_555
H3 C5 1_555 1_555
C6 N2 1_555 1_555
H4 C6 1_555 1_555
C7 C4 1_555 1_555
C8 C7 1_555 1_555
H5 C8 1_555 1_555
C9 C8 1_555 1_555
C10 C9 1_555 1_555
H6 C10 1_555 1_555
C11 N3 1_555 1_555
C12 C11 1_555 1_555
C13 C12 1_555 1_555
H7 C13 1_555 1_555
C14 C13 1_555 1_555
H8 C14 1_555 1_555
C15 N5 1_555 1_555
H9 C15 1_555 1_555
C16 C12 1_555 1_555
H10 C16 1_555 1_555
C17 C9 1_555 1_555
C18 C17 1_555 1_555
H11 C18 1_555 1_555
C19 C18 1_555 1_555
H12 C19 1_555 1_555
C20 C19 1_555 1_555
H13 C20 1_555 1_555
C21 N4 1_555 1_555
H14 C21 1_555 1_555
S1I C1I 1_555 1_555
N1I Co1 1_555 1_555
N2I Co1 1_555 1_555
N3I C7I 1_555 1_555
N4I C17I 1_555 1_555
N5I C14I 1_555 1_555
C1I N1I 1_555 1_555
C2I N2I 1_555 1_555
H1I C2I 1_555 1_555
C3I C2I 1_555 1_555
H2I C3I 1_555 1_555
C4I C3I 1_555 1_555
C5I C4I 1_555 1_555
H3I C5I 1_555 1_555
C6I N2I 1_555 1_555
H4I C6I 1_555 1_555
C7I C4I 1_555 1_555
C8I C7I 1_555 1_555
H5I C8I 1_555 1_555
C9I C8I 1_555 1_555
C10I C9I 1_555 1_555
H6I C10I 1_555 1_555
C11I N3I 1_555 1_555
C12I C11I 1_555 1_555
C13I C12I 1_555 1_555
H7I C13I 1_555 1_555
C14I C13I 1_555 1_555
H8I C14I 1_555 1_555
C15I N5I 1_555 1_555
H9I C15I 1_555 1_555
C16I C12I 1_555 1_555
H10I C16I 1_555 1_555
C17I C9I 1_555 1_555
C18I C17I 1_555 1_555
H11I C18I 1_555 1_555
C19I C18I 1_555 1_555
H12I C19I 1_555 1_555
C20I C19I 1_555 1_555
H13I C20I 1_555 1_555
C21I N4I 1_555 1_555
H14I C21I 1_555 1_555
Co1E N5I 1_555 1_555
Co1H N5 1_555 1_555
N5D Co1 1_555 1_555
N5M Co1 1_555 1_555
C5 C6 1_555 1_555
C10 C11 1_555 1_555
C15 C16 1_555 1_555
C20 C21 1_555 1_555
C5I C6I 1_555 1_555
C10I C11I 1_555 1_555
C15I C16I 1_555 1_555
C20I C21I 1_555 1_555

#END
