
#######################################################################
#
#                 Cambridge Crystallographic Data Centre
#                                CCDC 
#
#######################################################################
#
# If this CIF has been generated from an entry in the Cambridge 
# Structural Database, then it will include bibliographic, chemical, 
# crystal, experimental, refinement or atomic coordinate data resulting 
# from the CCDC's data processing and validation procedures.
#
#######################################################################

data_XUVQOW
_symmetry_cell_setting           orthorhombic
_symmetry_space_group_name_H-M   'P 21 21 21'
_symmetry_Int_Tables_number      19
_space_group_name_Hall           'P 2ac 2ab'
loop_
_symmetry_equiv_pos_site_id
_symmetry_equiv_pos_as_xyz
1 x,y,z
2 1/2-x,-y,1/2+z
3 1/2+x,1/2-y,-z
4 -x,1/2+y,1/2-z
_cell_length_a                   18.633(5)
_cell_length_b                   20.399(5)
_cell_length_c                   20.852(5)
_cell_angle_alpha                90
_cell_angle_beta                 90
_cell_angle_gamma                90
_cell_volume                     7925.73
loop_
_atom_site_label
_atom_site_type_symbol
_atom_site_fract_x
_atom_site_fract_y
_atom_site_fract_z
Cd1 Cd 0.827751(18) 0.871960(15) 0.386536(16)
Cd2 Cd 0.68851(2) 1.163289(17) 0.364627(17)
Cd3 Cd 0.755383(19) 1.036624(17) 0.461702(17)
Cd4 Cd 0.19579(2) 1.08593(2) 0.11856(2)
O1 O 0.67677(18) 1.04346(17) 0.37290(16)
O2 O 0.5766(2) 1.09896(19) 0.3707(3)
O3 O 1.16496(18) 0.49108(17) 0.11468(19)
O4 O 1.0662(2) 0.43427(18) 0.1160(2)
O5 O 0.8294(3) 0.89327(19) 0.2635(2)
O6 O 0.8550(2) 0.7987(2) 0.30693(18)
O7 O 0.70915(19) 0.8770(2) 0.3734(2)
O8 O 0.7007(2) 0.93835(18) 0.46129(19)
O9 O 0.8051(3) 0.9021(2) 0.0278(2)
O10 O 0.8453(3) 0.8186(2) -0.0327(2)
O11 O 0.6790(3) 0.4939(2) -0.0392(3)
O12 O 0.7895(3) 0.4634(2) -0.0491(2)
O13 O 0.2053(3) 0.8429(3) 0.4476(3)
O14 O 0.1262(3) 0.8945(4) 0.3867(4)
H1 H 0.0970 0.8739 0.4107
O15 O 0.3069(3) 1.0586(2) 0.1960(2)
O16 O 0.3257(3) 0.6424(3) 0.2557(2)
O17 O 0.6979(3) 0.6836(3) 0.2047(2)
O18 O 0.6135(2) 0.6389(3) 0.1429(3)
H2 H 0.5860 0.6604 0.1677
O19 O 1.1905(3) 0.6332(4) 0.1872(3)
O20 O 0.3596(3) 0.71309(19) 0.54672(18)
O21 O 0.3527(3) 0.6212(2) 0.4960(2)
O22 O 0.3804(3) 0.7225(2) 0.2074(2)
O23 O 1.2000(2) 0.6276(2) 0.0843(2)
O24 O 0.2055(4) 1.1745(3) 0.1895(3)
H3 H 0.2554 1.1842 0.1964
H4 H 0.1820 1.2125 0.1723
O25 O 0.7410(4) 1.2640(3) 0.3727(5)
O26 O 0.2000(3) 1.0185(2) 0.2003(2)
O27 O 0.0761(3) 1.0986(3) 0.1278(4)
O28 O 0.8273(3) 1.0021(2) 0.5420(2)
H5 H 0.8457 1.0394 0.5648
H6 H 0.8664 0.9774 0.5243
O29 O 0.1995(4) 1.1656(3) 0.0457(3)
H7 H 0.1961 1.1468 0.0035
H8 H 0.1601 1.1950 0.0525
C1 C 0.5542(3) 0.8683(2) 0.3968(2)
H9 H 0.5748 0.8283 0.4076
C2 C 0.5670(3) 0.9839(2) 0.3811(2)
C3 C 0.4933(3) 0.9863(2) 0.3661(3)
H10 H 0.4727 1.0264 0.3559
C4 C 0.4502(3) 0.9300(3) 0.3662(2)
C5 C 0.4812(3) 0.8704(2) 0.3821(2)
C6 C 0.6079(3) 1.0465(2) 0.3755(2)
C7 C 0.4413(2) 0.8070(2) 0.3811(2)
C8 C 0.4209(3) 0.7810(2) 0.3224(2)
H11 H 0.4316 0.8031 0.2846
C9 C 0.3836(3) 0.7202(3) 0.3204(3)
C10 C 0.3677(3) 0.6876(2) 0.3769(3)
H12 H 0.3442 0.6474 0.3757
C11 C 0.4236(3) 0.7741(3) 0.4379(2)
H13 H 0.4365 0.7918 0.4773
C12 C 1.0973(3) 0.4877(2) 0.1143(3)
C13 C 0.8501(3) 0.8345(3) 0.2586(3)
C14 C 0.8668(3) 0.8067(2) 0.1957(3)
C15 C 0.8431(3) 0.8377(3) 0.1393(2)
H14 H 0.8164 0.8761 0.1422
C16 C 0.9078(3) 0.7497(3) 0.1900(2)
H15 H 0.9257 0.7296 0.2268
C17 C 0.9222(2) 0.7222(2) 0.1297(2)
C18 C 0.8975(3) 0.7535(2) 0.0754(3)
H16 H 0.9069 0.7352 0.0354
C19 C 0.9657(3) 0.6601(2) 0.1250(2)
C20 C 0.9355(3) 0.5991(2) 0.1090(3)
C21 C 0.9794(3) 0.5455(2) 0.1076(3)
H17 H 0.9591 0.5046 0.0997
C22 C 0.8590(3) 0.8114(3) 0.0790(3)
C23 C 0.8346(3) 0.8473(3) 0.0201(3)
C24 C 0.8047(3) 0.6207(2) 0.1325(3)
H18 H 0.8182 0.6476 0.1665
C25 C 0.7324(3) 0.6118(2) 0.1194(3)
C26 C 0.7121(3) 0.5725(3) 0.0676(3)
H19 H 0.6638 0.5678 0.0577
C27 C 0.7634(3) 0.5404(3) 0.0307(3)
C28 C 0.8357(3) 0.5507(2) 0.0446(3)
H20 H 0.8703 0.5307 0.0191
C29 C 0.3727(3) 0.9372(2) 0.3484(2)
C30 C 0.3197(3) 0.9063(2) 0.3846(3)
H21 H 0.3318 0.8818 0.4206
C31 C 0.2473(3) 0.9128(3) 0.3656(3)
C32 C 0.2295(3) 0.9506(3) 0.3135(3)
H22 H 0.1816 0.9554 0.3018
C33 C 0.2822(3) 0.9814(3) 0.2785(3)
C34 C 0.6764(3) 0.9140(2) 0.4118(3)
C35 C 0.3536(3) 0.9748(3) 0.2969(3)
H23 H 0.3890 0.9964 0.2737
C36 C 1.0391(3) 0.6648(2) 0.1350(2)
H24 H 1.0589 0.7051 0.1461
C37 C 1.0838(3) 0.6107(3) 0.1286(2)
C38 C 1.0543(3) 0.5497(2) 0.1174(3)
C39 C 0.8577(3) 0.5904(3) 0.0959(3)
C40 C 0.7427(3) 0.4962(3) -0.0236(3)
C41 C 0.1909(3) 0.8788(4) 0.4040(3)
C42 C 0.5967(2) 0.9236(2) 0.3959(2)
C43 C 0.3867(3) 0.7149(2) 0.4354(2)
C44 C 0.2615(3) 1.0230(3) 0.2214(3)
C45 C 0.3624(3) 0.6926(3) 0.2569(3)
C46 C 0.3650(3) 0.6812(3) 0.4957(3)
C47 C 0.6784(3) 0.6473(3) 0.1596(3)
C48 C 1.1632(3) 0.6228(3) 0.1353(3)
C49 C 0.0326(6) 1.0608(7) 0.1507(6)
N1 N -0.0014(8) 1.0183(8) 0.1068(6)
C50 C 0.0045(9) 1.0436(10) 0.0423(5)
H25 H 0.0434 1.0744 0.0402
H26 H -0.0395 1.0652 0.0307
H27 H 0.0134 1.0081 0.0132
C51 C -0.0508(11) 0.9713(10) 0.1348(11)
H28 H -0.0396 0.9654 0.1794
H29 H -0.0463 0.9301 0.1129
H30 H -0.0990 0.9872 0.1306
N2 N 0.8415(7) 1.3261(7) 0.3655(11)
C52 C 0.7891(8) 1.2905(8) 0.4006(10)
C53 C 0.8109(13) 1.2889(10) 0.4693(10)
H31 H 0.7775 1.2626 0.4931
H32 H 0.8112 1.3327 0.4861
H33 H 0.8581 1.2703 0.4729
C54 C 0.8945(9) 1.3660(8) 0.3955(13)
H34 H 0.9081 1.3468 0.4357
H35 H 0.8752 1.4090 0.4027
H36 H 0.9358 1.3691 0.3681
C55 C 0.8250(15) 1.3482(13) 0.3017(12)
H37 H 0.8653 1.3719 0.2847
H38 H 0.7838 1.3764 0.3030
H39 H 0.8150 1.3111 0.2749
C56 C 0.0224(8) 1.0340(11) 0.2158(6)
H40 H 0.0482 1.0604 0.2462
H41 H 0.0400 0.9898 0.2173
H42 H -0.0278 1.0343 0.2264
Cd1B Cd 0.327751(18) 0.628040(15) 0.613464(16)
Cd1C Cd 1.172249(18) 0.371960(15) 0.113464(16)
Cd2A Cd 0.81149(2) 0.836711(17) -0.135373(17)
Cd2C Cd 0.31149(2) 0.663289(17) 0.135373(17)
Cd2C_2 Cd 1.31149(2) 0.663289(17) 0.135373(17)
Cd3A Cd 0.744617(19) 0.963376(17) -0.038298(17)
Cd3C Cd 1.244617(19) 0.536624(17) 0.038298(17)
Cd4B Cd 0.69579(2) 0.41407(2) -0.11856(2)
O3C O 0.83504(18) 0.99108(17) 0.38532(19)
O4C O 0.9338(2) 0.93427(18) 0.3840(2)
O9A O 0.6949(3) 1.0979(2) 0.5278(2)
O10A O 0.6547(3) 1.1814(2) 0.4673(2)
O11B O 0.1790(3) 1.0061(2) 0.0392(3)
O12B O 0.2895(3) 1.0366(2) 0.0491(2)
O16C O 0.6743(3) 1.1424(3) 0.2443(2)
O19C O 0.8095(3) 1.1332(4) 0.3128(3)
O20B O 0.8596(3) 0.78691(19) 0.45328(18)
O21B O 0.8527(3) 0.8788(2) 0.5040(2)
O22C O 0.6196(3) 1.2225(2) 0.2926(2)
O23C O 0.8000(2) 1.1276(2) 0.4157(2)
N3 N 0.7619(4) 0.9976(4) 0.7480(3)
H43 H 0.7352 1.0276 0.7689
H44 H 0.7723 0.9656 0.7762
C57 C 0.8282(6) 1.0283(6) 0.7294(5)
H45 H 0.8528 1.0439 0.7669
H46 H 0.8182 1.0646 0.7014
H47 H 0.8579 0.9971 0.7074
C58 C 0.7185(9) 0.9697(6) 0.6977(8)
H48 H 0.6770 0.9491 0.7161
H49 H 0.7460 0.9377 0.6746
H50 H 0.7035 1.0037 0.6688
N4 N 0.4068(5) 0.1075(5) 0.0970(7)
H51 H 0.4131 0.1041 0.0543
H52 H 0.3697 0.0816 0.1082
C59 C 0.3912(8) 0.1739(5) 0.1135(8)
H53 H 0.3448 0.1856 0.0972
H54 H 0.4269 0.2022 0.0952
H55 H 0.3915 0.1786 0.1594
C60 C 0.4712(8) 0.0862(10) 0.1300(11)
H56 H 0.4805 0.0411 0.1201
H57 H 0.4647 0.0911 0.1754
H58 H 0.5111 0.1125 0.1163
loop_
_geom_bond_atom_site_label_1
_geom_bond_atom_site_label_2
_geom_bond_site_symmetry_1
_geom_bond_site_symmetry_2
Cd1 O5 1_555 1_555
Cd2 O1 1_555 1_555
Cd3 O1 1_555 1_555
Cd4 O15 1_555 1_555
O1 C6 1_555 1_555
O2 Cd2 1_555 1_555
O3 C12 1_555 1_555
O4 C12 1_555 1_555
O5 C13 1_555 1_555
O6 Cd1 1_555 1_555
O7 Cd1 1_555 1_555
O8 Cd3 1_555 1_555
O9 C23 1_555 1_555
O10 C23 1_555 1_555
O11 C40 1_555 1_555
O12 C40 1_555 1_555
O13 C41 1_555 1_555
O14 H1 1_555 1_555
O15 C44 1_555 1_555
O16 C45 1_555 1_555
O17 C47 1_555 1_555
O18 H2 1_555 1_555
O19 C48 1_555 1_555
O20 C46 1_555 1_555
O21 C46 1_555 1_555
O22 C45 1_555 1_555
O23 C48 1_555 1_555
O24 Cd4 1_555 1_555
H3 O24 1_555 1_555
H4 O24 1_555 1_555
O25 Cd2 1_555 1_555
O26 Cd4 1_555 1_555
O27 Cd4 1_555 1_555
O28 Cd3 1_555 1_555
H5 O28 1_555 1_555
H6 O28 1_555 1_555
O29 Cd4 1_555 1_555
H7 O29 1_555 1_555
H8 O29 1_555 1_555
C1 H9 1_555 1_555
C2 C3 1_555 1_555
C3 H10 1_555 1_555
C4 C3 1_555 1_555
C5 C1 1_555 1_555
C6 O2 1_555 1_555
C7 C5 1_555 1_555
C8 C7 1_555 1_555
H11 C8 1_555 1_555
C9 C8 1_555 1_555
C10 C9 1_555 1_555
H12 C10 1_555 1_555
C11 C7 1_555 1_555
H13 C11 1_555 1_555
C12 C38 1_555 1_555
C13 O6 1_555 1_555
C14 C13 1_555 1_555
C15 C14 1_555 1_555
H14 C15 1_555 1_555
C16 C14 1_555 1_555
H15 C16 1_555 1_555
C17 C16 1_555 1_555
C18 C17 1_555 1_555
H16 C18 1_555 1_555
C19 C17 1_555 1_555
C20 C19 1_555 1_555
C21 C20 1_555 1_555
H17 C21 1_555 1_555
C22 C15 1_555 1_555
C23 C22 1_555 1_555
C24 H18 1_555 1_555
C25 C24 1_555 1_555
C26 C25 1_555 1_555
H19 C26 1_555 1_555
C27 C26 1_555 1_555
C28 C27 1_555 1_555
H20 C28 1_555 1_555
C29 C4 1_555 1_555
C30 C29 1_555 1_555
H21 C30 1_555 1_555
C31 C30 1_555 1_555
C32 C31 1_555 1_555
H22 C32 1_555 1_555
C33 C32 1_555 1_555
C34 O7 1_555 1_555
C35 C29 1_555 1_555
H23 C35 1_555 1_555
C36 C19 1_555 1_555
H24 C36 1_555 1_555
C37 C36 1_555 1_555
C38 C21 1_555 1_555
C39 C20 1_555 1_555
C40 C27 1_555 1_555
C41 O14 1_555 1_555
C42 C1 1_555 1_555
C43 C10 1_555 1_555
C44 O26 1_555 1_555
C45 C9 1_555 1_555
C46 C43 1_555 1_555
C47 O18 1_555 1_555
C48 C37 1_555 1_555
C49 O27 1_555 1_555
N1 C49 1_555 1_555
C50 N1 1_555 1_555
H25 C50 1_555 1_555
H26 C50 1_555 1_555
H27 C50 1_555 1_555
C51 N1 1_555 1_555
H28 C51 1_555 1_555
H29 C51 1_555 1_555
H30 C51 1_555 1_555
N2 C52 1_555 1_555
C52 O25 1_555 1_555
C53 C52 1_555 1_555
H31 C53 1_555 1_555
H32 C53 1_555 1_555
H33 C53 1_555 1_555
C54 N2 1_555 1_555
H34 C54 1_555 1_555
H35 C54 1_555 1_555
H36 C54 1_555 1_555
C55 N2 1_555 1_555
H37 C55 1_555 1_555
H38 C55 1_555 1_555
H39 C55 1_555 1_555
C56 C49 1_555 1_555
H40 C56 1_555 1_555
H41 C56 1_555 1_555
H42 C56 1_555 1_555
N3 H43 1_555 1_555
H44 N3 1_555 1_555
C57 N3 1_555 1_555
H45 C57 1_555 1_555
H46 C57 1_555 1_555
H47 C57 1_555 1_555
C58 N3 1_555 1_555
H48 C58 1_555 1_555
H49 C58 1_555 1_555
H50 C58 1_555 1_555
N4 H51 1_555 1_555
H52 N4 1_555 1_555
C59 N4 1_555 1_555
H53 C59 1_555 1_555
H54 C59 1_555 1_555
H55 C59 1_555 1_555
C60 N4 1_555 1_555
H56 C60 1_555 1_555
H57 C60 1_555 1_555
H58 C60 1_555 1_555
Cd1B O20 1_555 1_555
Cd1C O3 1_555 1_555
Cd2A O10 1_555 1_555
Cd2C O16 1_555 1_555
Cd2C_2 O19 1_555 1_555
Cd3A O9 1_555 1_555
Cd3C O3 1_555 1_555
Cd4B O11 1_555 1_555
O3C Cd1 1_555 1_555
O4C Cd1 1_555 1_555
O9A Cd3 1_555 1_555
O10A Cd2 1_555 1_555
O11B Cd4 1_555 1_555
O12B Cd4 1_555 1_555
O16C Cd2 1_555 1_555
O19C Cd2 1_555 1_555
O20B Cd1 1_555 1_555
O21B Cd1 1_555 1_555
O22C Cd2 1_555 1_555
O23C Cd2 1_555 1_555
Cd3 O3C 1_555 1_555
Cd3 O23C 1_555 1_555
O4 Cd1C 1_555 1_555
O8 C34 1_555 1_555
O12 Cd4B 1_555 1_555
O21 Cd1B 1_555 1_555
O22 Cd2C 1_555 1_555
O23 Cd2C_2 1_555 1_555
O23 Cd3C 1_555 1_555
C2 C6 1_555 1_555
C2 C42 1_555 1_555
C4 C5 1_555 1_555
C11 C43 1_555 1_555
C18 C22 1_555 1_555
C24 C39 1_555 1_555
C25 C47 1_555 1_555
C28 C39 1_555 1_555
C31 C41 1_555 1_555
C33 C35 1_555 1_555
C33 C44 1_555 1_555
C34 C42 1_555 1_555
C37 C38 1_555 1_555

#END
