
#######################################################################
#
#                 Cambridge Crystallographic Data Centre
#                                CCDC 
#
#######################################################################
#
# If this CIF has been generated from an entry in the Cambridge 
# Structural Database, then it will include bibliographic, chemical, 
# crystal, experimental, refinement or atomic coordinate data resulting 
# from the CCDC's data processing and validation procedures.
#
#######################################################################

data_XUWFUR
_symmetry_cell_setting           orthorhombic
_symmetry_space_group_name_H-M   'P c a 21'
_symmetry_Int_Tables_number      29
_space_group_name_Hall           'P 2c -2ac'
loop_
_symmetry_equiv_pos_site_id
_symmetry_equiv_pos_as_xyz
1 x,y,z
2 -x,-y,1/2+z
3 1/2+x,-y,z
4 1/2-x,y,1/2+z
_cell_length_a                   29.886(3)
_cell_length_b                   28.350(3)
_cell_length_c                   15.2719(18)
_cell_angle_alpha                90
_cell_angle_beta                 90
_cell_angle_gamma                90
_cell_volume                     12939.4
loop_
_atom_site_label
_atom_site_type_symbol
_atom_site_fract_x
_atom_site_fract_y
_atom_site_fract_z
W1 W 0.483321(18) 0.339856(18) 0.04898(4)
W2 W 0.518598(16) 0.162044(16) -0.26561(3)
W3 W 0.422317(14) 0.222749(16) -0.26631(3)
W4 W 0.443685(16) 0.146001(17) -0.10444(4)
W5 W 0.530958(19) 0.172896(19) 0.06027(4)
W6 W 0.403111(15) 0.316685(17) -0.10100(4)
W7 W 0.605771(15) 0.188431(19) -0.10046(4)
W8 W 0.424888(17) 0.239588(19) 0.05879(4)
W9 W 0.563740(18) 0.358370(19) -0.12812(4)
W10 W 0.58753(2) 0.27266(3) 0.04412(5)
W11 W 0.484959(17) 0.334604(17) -0.27896(4)
W12 W 0.581038(16) 0.274096(18) -0.27809(4)
Si1 Si 0.50386(8) 0.25199(9) -0.1088(2)
O1 O 0.6244(4) 0.2983(5) 0.1164(8)
O2 O 0.5920(3) 0.3189(3) -0.0478(6)
O3 O 0.5638(3) 0.1590(3) -0.1782(6)
O4 O 0.4648(3) 0.1832(3) -0.3234(6)
O5 O 0.5261(2) 0.2902(3) -0.1744(5)
O6 O 0.6528(3) 0.1568(4) -0.1236(7)
O7 O 0.4850(4) 0.3857(4) 0.1242(7)
O8 O 0.5686(3) 0.2191(4) 0.1132(6)
O9 O 0.4153(3) 0.0954(4) -0.0776(7)
O10 O 0.6280(3) 0.2315(3) -0.0167(6)
O11 O 0.5165(3) 0.3651(3) -0.0472(6)
O12 O 0.4045(3) 0.1696(3) -0.1965(6)
O13 O 0.4175(3) 0.1903(3) -0.0267(6)
O14 O 0.5364(3) 0.3101(3) -0.3379(6)
O15 O 0.5998(3) 0.3310(3) -0.2203(7)
O16 O 0.4550(3) 0.2761(3) -0.3032(5)
O17 O 0.4795(3) 0.2093(3) 0.0916(6)
O18 O 0.5816(3) 0.1505(3) -0.0069(6)
O19 O 0.3980(3) 0.2633(3) -0.1782(6)
O20 O 0.6219(3) 0.2705(4) -0.3572(7)
O21 O 0.6080(3) 0.2371(3) -0.1881(6)
O22 O 0.5335(3) 0.3048(3) 0.0791(6)
O23 O 0.5922(3) 0.4104(3) -0.1157(8)
O24 O 0.5424(3) 0.2284(3) -0.0482(5)
O25 O 0.4460(3) 0.2976(3) 0.1125(6)
O26 O 0.5467(3) 0.2195(3) -0.3044(6)
O27 O 0.4642(3) 0.3701(3) -0.3582(7)
O28 O 0.3550(3) 0.3468(3) -0.1222(7)
O29 O 0.5230(3) 0.3776(3) -0.2193(7)
O30 O 0.4933(3) 0.1431(3) -0.0260(6)
O31 O 0.4422(3) 0.3416(3) -0.1877(6)
O32 O 0.5375(3) 0.1225(3) -0.3412(7)
O33 O 0.3827(3) 0.2776(3) -0.0072(6)
O34 O 0.4674(2) 0.2779(3) -0.0469(5)
O35 O 0.4294(3) 0.3578(3) -0.0161(6)
O36 O 0.3887(4) 0.2200(4) 0.1383(7)
O37 O 0.4796(2) 0.2110(2) -0.1657(5)
O38 O 0.3802(3) 0.2228(3) -0.3420(7)
O39 O 0.5295(4) 0.1303(4) 0.1406(7)
O40 O 0.4812(3) 0.1211(3) -0.1971(6)
O41 O 0.3833(6) 0.4440(6) 0.0317(14)
O42 O 0.3786(8) 0.0229(9) -0.1732(18)
O43 O 0.4401(7) 0.4642(7) 0.1841(16)
O44 O 0.4702(8) 0.0430(8) -0.3081(19)
O45 O 0.6680(9) 0.3902(10) -0.284(2)
O46 O 0.6272(7) 0.4887(9) -0.2065(17)
O47 O 0.3364(6) 0.1115(8) -0.268(2)
O48 O 0.5297(7) 0.4485(7) -0.3484(17)
O49 O 0.3559(7) 0.3564(6) 0.1412(16)
Cu4 Cu 0.67043(7) 0.33158(7) -0.67950(17)
Cu5 Cu 0.30652(6) 0.31330(7) -0.54270(14)
Cu6 Cu 0.13396(6) -0.01558(6) -0.34201(13)
N11 N 0.6056(4) 0.3252(5) -0.6485(10)
N12 N 0.3720(4) 0.3101(4) -0.5691(9)
N13 N 0.2812(4) 0.3757(5) -0.5701(10)
N14 N 0.1959(5) 0.6047(5) -0.6508(11)
N15 N 0.2741(4) 0.2599(4) -0.4931(8)
N16 N 0.1681(4) 0.0457(4) -0.3712(9)
N17 N 0.1049(4) -0.0073(4) -0.2191(9)
N18 N -0.0767(4) 0.0135(4) 0.0798(9)
N19 N 0.1689(4) -0.0769(4) -0.3454(9)
N20 N 0.2937(5) -0.2807(5) -0.2354(10)
C51 C 0.5768(7) 0.3160(9) -0.7142(13)
H41 H 0.5879 0.3140 -0.7711
C52 C 0.5307(7) 0.3093(8) -0.7003(13)
H42 H 0.5124 0.3000 -0.7464
C53 C 0.5126(5) 0.3166(5) -0.6175(9)
C54 C 0.5422(5) 0.3282(5) -0.5514(10)
H43 H 0.5318 0.3327 -0.4947
C55 C 0.5868(6) 0.3330(6) -0.5691(13)
H44 H 0.6055 0.3423 -0.5236
C56 C 0.3888(5) 0.3233(6) -0.6486(12)
H45 H 0.3689 0.3317 -0.6926
C57 C 0.4341(5) 0.3246(6) -0.6668(10)
H46 H 0.4439 0.3334 -0.7222
C58 C 0.4646(4) 0.3130(4) -0.6029(10)
C59 C 0.4477(4) 0.2983(5) -0.5218(10)
H47 H 0.4672 0.2896 -0.4771
C60 C 0.4026(5) 0.2968(5) -0.5085(11)
H48 H 0.3922 0.2859 -0.4547
C61 C 0.3071(5) 0.4138(7) -0.5813(15)
H49 H 0.3378 0.4095 -0.5755
C62 C 0.2932(5) 0.4567(6) -0.5997(16)
H50 H 0.3135 0.4804 -0.6133
C63 C 0.2463(5) 0.4660(6) -0.5983(13)
C64 C 0.2192(6) 0.4301(6) -0.5801(16)
H51 H 0.1884 0.4344 -0.5777
C65 C 0.2378(6) 0.3865(6) -0.5649(18)
H52 H 0.2183 0.3623 -0.5496
C66 C 0.1709(6) 0.5720(7) -0.6072(16)
H53 H 0.1419 0.5801 -0.5907
C67 C 0.1860(6) 0.5277(7) -0.5864(16)
H54 H 0.1685 0.5070 -0.5540
C68 C 0.2289(5) 0.5145(5) -0.6155(12)
C69 C 0.2538(7) 0.5487(6) -0.6540(15)
H55 H 0.2836 0.5428 -0.6676
C70 C 0.2356(6) 0.5920(7) -0.6734(15)
H56 H 0.2531 0.6134 -0.7046
C71 C 0.2288(5) 0.2539(5) -0.4989(12)
H57 H 0.2118 0.2783 -0.5226
C72 C 0.2075(4) 0.2143(5) -0.4720(12)
H58 H 0.1764 0.2126 -0.4753
C73 C 0.2313(4) 0.1762(4) -0.4397(9)
C74 C 0.2765(5) 0.1817(5) -0.4312(11)
H59 H 0.2937 0.1580 -0.4057
C75 C 0.2972(5) 0.2240(5) -0.4620(11)
H60 H 0.3283 0.2263 -0.4600
C76 C 0.1499(5) 0.0760(6) -0.4286(14)
H61 H 0.1230 0.0679 -0.4552
C77 C 0.1691(5) 0.1182(6) -0.4496(14)
H62 H 0.1547 0.1388 -0.4877
C78 C 0.2097(5) 0.1303(5) -0.4145(10)
C79 C 0.2281(6) 0.1002(6) -0.3572(14)
H63 H 0.2554 0.1075 -0.3313
C80 C 0.2070(6) 0.0586(7) -0.3364(13)
H64 H 0.2206 0.0385 -0.2963
C81 C 0.0905(6) 0.0350(6) -0.1953(14)
H65 H 0.1036 0.0616 -0.2197
C82 C 0.0564(6) 0.0404(5) -0.1351(11)
H66 H 0.0464 0.0706 -0.1216
C83 C 0.0365(5) 0.0013(5) -0.0937(11)
C84 C 0.0535(5) -0.0428(4) -0.1172(10)
H67 H 0.0427 -0.0701 -0.0907
C85 C 0.0862(5) -0.0454(5) -0.1795(11)
H68 H 0.0964 -0.0751 -0.1958
C86 C -0.0677(6) 0.0452(6) 0.0186(13)
H69 H -0.0864 0.0715 0.0166
C87 C -0.0342(6) 0.0435(6) -0.0416(11)
H70 H -0.0321 0.0659 -0.0860
C88 C -0.0019(5) 0.0055(5) -0.0341(10)
C89 C -0.0090(4) -0.0260(6) 0.0319(11)
H71 H 0.0113 -0.0506 0.0401
C90 C -0.0457(5) -0.0223(5) 0.0871(12)
H72 H -0.0496 -0.0448 0.1307
C91 C 0.1491(4) -0.1185(4) -0.3415(9)
H73 H 0.1183 -0.1202 -0.3494
C92 C 0.1729(4) -0.1601(5) -0.3260(10)
H74 H 0.1576 -0.1886 -0.3232
C93 C 0.2195(4) -0.1594(5) -0.3145(11)
C94 C 0.2400(5) -0.1147(5) -0.3213(17)
H75 H 0.2707 -0.1115 -0.3144
C95 C 0.2137(5) -0.0761(6) -0.3383(16)
H76 H 0.2280 -0.0472 -0.3455
C96 C 0.2494(6) -0.2793(6) -0.2340(18)
H77 H 0.2344 -0.3057 -0.2130
C97 C 0.2244(5) -0.2421(6) -0.2611(16)
H78 H 0.1933 -0.2443 -0.2605
C98 C 0.2437(5) -0.2025(5) -0.2885(12)
C99 C 0.2902(5) -0.2036(6) -0.2906(16)
H79 H 0.3061 -0.1774 -0.3098
C100 C 0.3127(6) -0.2433(7) -0.2644(16)
H80 H 0.3438 -0.2431 -0.2679
Cu4B Cu 0.17043(7) 0.66842(7) -0.67950(17)
Cu4A Cu 0.32957(7) -0.33158(7) -0.17950(17)
Cu6A Cu -0.13396(6) 0.01558(6) 0.15799(13)
N14B N 0.6959(5) 0.3953(5) -0.6508(11)
N18A N 0.0767(4) -0.0135(4) -0.4202(9)
N20A N 0.7063(5) 0.2807(5) -0.7354(10)
Cu1 Cu -0.18369(6) 0.19553(6) -0.05704(15)
Cu2 Cu 0.18427(6) 0.16410(6) -0.13843(14)
Cu3 Cu 0.36538(6) 0.47827(6) -0.37381(13)
N1 N -0.1167(4) 0.1913(4) -0.0752(9)
N2 N 0.1176(4) 0.1672(4) -0.1208(9)
N3 N 0.2100(4) 0.1023(4) -0.1034(10)
N4 N 0.2904(4) -0.1318(4) -0.0726(9)
N5 N 0.2185(4) 0.2140(4) -0.1996(7)
N6 N 0.3313(4) 0.4166(4) -0.3573(9)
N7 N 0.3285(4) 0.5351(4) -0.4086(9)
N8 N 0.2180(4) 0.7495(4) -0.5181(9)
N9 N 0.4222(4) 0.4769(4) -0.4547(9)
N10 N 0.6011(4) 0.5076(4) -0.7573(9)
C1 C -0.0977(5) 0.1770(7) -0.1505(11)
H1 H -0.1166 0.1693 -0.1968
C2 C -0.0523(5) 0.1730(6) -0.1636(9)
H2 H -0.0411 0.1638 -0.2178
C3 C -0.0245(4) 0.1825(4) -0.0964(9)
C4 C -0.0435(5) 0.1969(6) -0.0162(11)
H3 H -0.0254 0.2039 0.0316
C5 C -0.0894(5) 0.2004(6) -0.0099(10)
H4 H -0.1017 0.2096 0.0434
C6 C 0.0913(5) 0.1726(7) -0.1909(12)
H5 H 0.1042 0.1723 -0.2463
C7 C 0.0458(5) 0.1784(6) -0.1836(11)
H6 H 0.0286 0.1828 -0.2338
C8 C 0.0254(4) 0.1778(4) -0.1022(10)
C9 C 0.0514(5) 0.1708(5) -0.0316(10)
H7 H 0.0387 0.1692 0.0240
C10 C 0.0966(5) 0.1663(6) -0.0423(11)
H8 H 0.1141 0.1622 0.0076
C11 C 0.1832(7) 0.0688(6) -0.0699(16)
H9 H 0.1540 0.0768 -0.0549
C12 C 0.1980(6) 0.0208(6) -0.0562(15)
H10 H 0.1800 -0.0017 -0.0293
C13 C 0.2412(5) 0.0103(5) -0.0862(12)
C14 C 0.2681(5) 0.0450(6) -0.1171(14)
H11 H 0.2976 0.0387 -0.1322
C15 C 0.2509(5) 0.0899(6) -0.1259(16)
H12 H 0.2694 0.1130 -0.1492
C16 C 0.2471(6) -0.1230(6) -0.0721(19)
H13 H 0.2272 -0.1481 -0.0684
C17 C 0.2304(5) -0.0780(6) -0.0767(17)
H14 H 0.1996 -0.0733 -0.0766
C18 C 0.2582(5) -0.0405(5) -0.0815(13)
C19 C 0.3031(5) -0.0484(6) -0.0784(16)
H15 H 0.3231 -0.0233 -0.0795
C20 C 0.3182(5) -0.0934(6) -0.0737(15)
H16 H 0.3489 -0.0985 -0.0711
C21 C 0.2622(5) 0.2189(5) -0.1946(11)
H17 H 0.2782 0.1953 -0.1661
C22 C 0.2858(4) 0.2564(5) -0.2286(11)
H18 H 0.3169 0.2574 -0.2244
C23 C 0.2629(4) 0.2924(4) -0.2687(10)
C24 C 0.2161(4) 0.2884(5) -0.2705(11)
H19 H 0.1988 0.3125 -0.2938
C25 C 0.1964(4) 0.2493(5) -0.2382(11)
H20 H 0.1655 0.2467 -0.2431
C26 C 0.3521(4) 0.3760(4) -0.3480(10)
H21 H 0.3825 0.3747 -0.3606
C27 C 0.3313(4) 0.3354(4) -0.3206(10)
H22 H 0.3477 0.3076 -0.3153
C28 C 0.2862(4) 0.3356(4) -0.3009(9)
C29 C 0.2641(4) 0.3778(5) -0.3136(13)
H23 H 0.2336 0.3799 -0.3025
C30 C 0.2867(5) 0.4163(5) -0.3422(15)
H24 H 0.2707 0.4440 -0.3519
C31 C 0.3450(6) 0.5666(7) -0.4643(17)
H25 H 0.3720 0.5595 -0.4918
C32 C 0.3246(5) 0.6094(7) -0.4843(19)
H26 H 0.3393 0.6309 -0.5202
C33 C 0.2836(4) 0.6202(5) -0.4521(11)
C34 C 0.2671(7) 0.5884(7) -0.3952(16)
H27 H 0.2402 0.5949 -0.3670
C35 C 0.2892(7) 0.5456(7) -0.3770(16)
H28 H 0.2751 0.5238 -0.3408
C36 C 0.2611(5) 0.7454(5) -0.5265(17)
H29 H 0.2776 0.7711 -0.5463
C37 C 0.2835(5) 0.7033(6) -0.5065(16)
H30 H 0.3142 0.7011 -0.5158
C38 C 0.2608(4) 0.6655(5) -0.4736(10)
C39 C 0.2170(5) 0.6706(5) -0.4637(11)
H31 H 0.2001 0.6463 -0.4396
C40 C 0.1963(5) 0.7128(5) -0.4899(11)
H32 H 0.1652 0.7145 -0.4869
C41 C 0.4324(5) 0.4451(5) -0.5130(13)
H33 H 0.4152 0.4178 -0.5139
C42 C 0.4663(5) 0.4485(5) -0.5731(11)
H34 H 0.4701 0.4253 -0.6154
C43 C 0.4946(4) 0.4867(5) -0.5701(11)
C44 C 0.4863(5) 0.5189(5) -0.5060(11)
H35 H 0.5057 0.5442 -0.4986
C45 C 0.4501(5) 0.5147(5) -0.4530(12)
H36 H 0.4442 0.5389 -0.4135
C46 C 0.5864(6) 0.4633(5) -0.7375(12)
H37 H 0.5998 0.4375 -0.7647
C47 C 0.5521(6) 0.4554(6) -0.6777(13)
H38 H 0.5424 0.4248 -0.6667
C48 C 0.5322(4) 0.4926(4) -0.6346(11)
C49 C 0.5489(5) 0.5370(5) -0.6537(11)
H39 H 0.5370 0.5632 -0.6257
C50 C 0.5825(5) 0.5427(5) -0.7126(10)
H40 H 0.5931 0.5731 -0.7223
Cu1B Cu 0.31631(6) -0.19553(6) -0.05704(15)
Cu1A Cu 0.18369(6) 0.80447(6) -0.55704(15)
Cu3A Cu 0.63462(6) 0.52173(6) -0.87381(13)
N4B N -0.2096(4) 0.1318(4) -0.0726(9)
N8A N -0.2180(4) 0.2505(4) -0.0181(9)
N10A N 0.3989(4) 0.4924(4) -0.2573(9)
loop_
_geom_bond_atom_site_label_1
_geom_bond_atom_site_label_2
_geom_bond_site_symmetry_1
_geom_bond_site_symmetry_2
Cu1 N1 1_555 1_555
Cu2 N2 1_555 1_555
Cu3 N6 1_555 1_555
N1 C1 1_555 1_555
N2 C6 1_555 1_555
N3 Cu2 1_555 1_555
N4 C16 1_555 1_555
N5 Cu2 1_555 1_555
N6 C26 1_555 1_555
N7 Cu3 1_555 1_555
N8 C36 1_555 1_555
N9 Cu3 1_555 1_555
N10 C46 1_555 1_555
C1 H1 1_555 1_555
C2 C1 1_555 1_555
H2 C2 1_555 1_555
C3 C2 1_555 1_555
C4 C3 1_555 1_555
H3 C4 1_555 1_555
C5 N1 1_555 1_555
H4 C5 1_555 1_555
C6 H5 1_555 1_555
C7 C6 1_555 1_555
H6 C7 1_555 1_555
C8 C3 1_555 1_555
C9 C8 1_555 1_555
H7 C9 1_555 1_555
C10 N2 1_555 1_555
H8 C10 1_555 1_555
C11 N3 1_555 1_555
H9 C11 1_555 1_555
C12 C11 1_555 1_555
H10 C12 1_555 1_555
C13 C12 1_555 1_555
C14 C13 1_555 1_555
H11 C14 1_555 1_555
C15 N3 1_555 1_555
H12 C15 1_555 1_555
C16 H13 1_555 1_555
C17 C16 1_555 1_555
H14 C17 1_555 1_555
C18 C13 1_555 1_555
C19 C18 1_555 1_555
H15 C19 1_555 1_555
C20 N4 1_555 1_555
H16 C20 1_555 1_555
C21 N5 1_555 1_555
H17 C21 1_555 1_555
C22 C21 1_555 1_555
H18 C22 1_555 1_555
C23 C22 1_555 1_555
C24 C23 1_555 1_555
H19 C24 1_555 1_555
C25 N5 1_555 1_555
H20 C25 1_555 1_555
C26 H21 1_555 1_555
C27 C26 1_555 1_555
H22 C27 1_555 1_555
C28 C23 1_555 1_555
C29 C28 1_555 1_555
H23 C29 1_555 1_555
C30 N6 1_555 1_555
H24 C30 1_555 1_555
C31 N7 1_555 1_555
H25 C31 1_555 1_555
C32 C31 1_555 1_555
H26 C32 1_555 1_555
C33 C32 1_555 1_555
C34 C33 1_555 1_555
H27 C34 1_555 1_555
C35 N7 1_555 1_555
H28 C35 1_555 1_555
C36 H29 1_555 1_555
C37 C36 1_555 1_555
H30 C37 1_555 1_555
C38 C33 1_555 1_555
C39 C38 1_555 1_555
H31 C39 1_555 1_555
C40 N8 1_555 1_555
H32 C40 1_555 1_555
C41 N9 1_555 1_555
H33 C41 1_555 1_555
C42 C41 1_555 1_555
H34 C42 1_555 1_555
C43 C42 1_555 1_555
C44 C43 1_555 1_555
H35 C44 1_555 1_555
C45 N9 1_555 1_555
H36 C45 1_555 1_555
C46 H37 1_555 1_555
C47 C46 1_555 1_555
H38 C47 1_555 1_555
C48 C43 1_555 1_555
C49 C48 1_555 1_555
H39 C49 1_555 1_555
C50 N10 1_555 1_555
H40 C50 1_555 1_555
W1 O7 1_555 1_555
W2 O3 1_555 1_555
W3 O4 1_555 1_555
W4 O9 1_555 1_555
W5 O8 1_555 1_555
W6 O19 1_555 1_555
W7 O3 1_555 1_555
W8 O13 1_555 1_555
W9 O2 1_555 1_555
W10 O1 1_555 1_555
W11 O5 1_555 1_555
W12 O5 1_555 1_555
Si1 O5 1_555 1_555
O2 W10 1_555 1_555
O4 W2 1_555 1_555
O5 W9 1_555 1_555
O6 W7 1_555 1_555
O8 W10 1_555 1_555
O10 W7 1_555 1_555
O11 W1 1_555 1_555
O12 W3 1_555 1_555
O13 W4 1_555 1_555
O14 W11 1_555 1_555
O15 W9 1_555 1_555
O16 W3 1_555 1_555
O17 W5 1_555 1_555
O18 W5 1_555 1_555
O19 W3 1_555 1_555
O20 W12 1_555 1_555
O21 W7 1_555 1_555
O22 W1 1_555 1_555
O23 W9 1_555 1_555
O24 W5 1_555 1_555
O25 W1 1_555 1_555
O26 W2 1_555 1_555
O27 W11 1_555 1_555
O28 W6 1_555 1_555
O29 W9 1_555 1_555
O30 W4 1_555 1_555
O31 W6 1_555 1_555
O32 W2 1_555 1_555
O33 W6 1_555 1_555
O34 W1 1_555 1_555
O35 W1 1_555 1_555
O36 W8 1_555 1_555
O37 W2 1_555 1_555
O38 W3 1_555 1_555
O39 W5 1_555 1_555
O40 W2 1_555 1_555
Cu4 N11 1_555 1_555
Cu5 N12 1_555 1_555
Cu6 N16 1_555 1_555
N11 C51 1_555 1_555
N12 C56 1_555 1_555
N13 Cu5 1_555 1_555
N14 C66 1_555 1_555
N15 Cu5 1_555 1_555
N16 C76 1_555 1_555
N17 Cu6 1_555 1_555
N18 C86 1_555 1_555
N19 Cu6 1_555 1_555
N20 C96 1_555 1_555
C51 H41 1_555 1_555
C52 C51 1_555 1_555
H42 C52 1_555 1_555
C53 C52 1_555 1_555
C54 C53 1_555 1_555
H43 C54 1_555 1_555
C55 N11 1_555 1_555
H44 C55 1_555 1_555
C56 H45 1_555 1_555
C57 C56 1_555 1_555
H46 C57 1_555 1_555
C58 C53 1_555 1_555
C59 C58 1_555 1_555
H47 C59 1_555 1_555
C60 N12 1_555 1_555
H48 C60 1_555 1_555
C61 N13 1_555 1_555
H49 C61 1_555 1_555
C62 C61 1_555 1_555
H50 C62 1_555 1_555
C63 C62 1_555 1_555
C64 C63 1_555 1_555
H51 C64 1_555 1_555
C65 N13 1_555 1_555
H52 C65 1_555 1_555
C66 H53 1_555 1_555
C67 C66 1_555 1_555
H54 C67 1_555 1_555
C68 C63 1_555 1_555
C69 C68 1_555 1_555
H55 C69 1_555 1_555
C70 N14 1_555 1_555
H56 C70 1_555 1_555
C71 N15 1_555 1_555
H57 C71 1_555 1_555
C72 C71 1_555 1_555
H58 C72 1_555 1_555
C73 C72 1_555 1_555
C74 C73 1_555 1_555
H59 C74 1_555 1_555
C75 N15 1_555 1_555
H60 C75 1_555 1_555
C76 H61 1_555 1_555
C77 C76 1_555 1_555
H62 C77 1_555 1_555
C78 C73 1_555 1_555
C79 C78 1_555 1_555
H63 C79 1_555 1_555
C80 N16 1_555 1_555
H64 C80 1_555 1_555
C81 N17 1_555 1_555
H65 C81 1_555 1_555
C82 C81 1_555 1_555
H66 C82 1_555 1_555
C83 C82 1_555 1_555
C84 C83 1_555 1_555
H67 C84 1_555 1_555
C85 N17 1_555 1_555
H68 C85 1_555 1_555
C86 H69 1_555 1_555
C87 C86 1_555 1_555
H70 C87 1_555 1_555
C88 C83 1_555 1_555
C89 C88 1_555 1_555
H71 C89 1_555 1_555
C90 N18 1_555 1_555
H72 C90 1_555 1_555
C91 N19 1_555 1_555
H73 C91 1_555 1_555
C92 C91 1_555 1_555
H74 C92 1_555 1_555
C93 C92 1_555 1_555
C94 C93 1_555 1_555
H75 C94 1_555 1_555
C95 N19 1_555 1_555
H76 C95 1_555 1_555
C96 H77 1_555 1_555
C97 C96 1_555 1_555
H78 C97 1_555 1_555
C98 C93 1_555 1_555
C99 C98 1_555 1_555
H79 C99 1_555 1_555
C100 N20 1_555 1_555
H80 C100 1_555 1_555
Cu1B N4 1_555 1_555
Cu1A N8 1_555 1_555
Cu3A N10 1_555 1_555
N4B Cu1 1_555 1_555
N8A Cu1 1_555 1_555
N10A Cu3 1_555 1_555
Cu4B N14 1_555 1_555
Cu4A N20 1_555 1_555
Cu6A N18 1_555 1_555
N14B Cu4 1_555 1_555
N18A Cu6 1_555 1_555
N20A Cu4 1_555 1_555
C4 C5 1_555 1_555
C7 C8 1_555 1_555
C9 C10 1_555 1_555
C14 C15 1_555 1_555
C17 C18 1_555 1_555
C19 C20 1_555 1_555
C24 C25 1_555 1_555
C27 C28 1_555 1_555
C29 C30 1_555 1_555
C34 C35 1_555 1_555
C37 C38 1_555 1_555
C39 C40 1_555 1_555
C44 C45 1_555 1_555
C47 C48 1_555 1_555
C49 C50 1_555 1_555
W3 O37 1_555 1_555
W4 O12 1_555 1_555
W4 O37 1_555 1_555
W4 O40 1_555 1_555
W5 O30 1_555 1_555
W6 O34 1_555 1_555
W6 O35 1_555 1_555
W7 O18 1_555 1_555
W7 O24 1_555 1_555
W8 O17 1_555 1_555
W8 O25 1_555 1_555
W8 O33 1_555 1_555
W8 O34 1_555 1_555
W9 O11 1_555 1_555
W10 O10 1_555 1_555
W10 O22 1_555 1_555
W10 O24 1_555 1_555
W11 O16 1_555 1_555
W11 O29 1_555 1_555
W11 O31 1_555 1_555
W12 O14 1_555 1_555
W12 O15 1_555 1_555
W12 O21 1_555 1_555
W12 O26 1_555 1_555
Si1 O24 1_555 1_555
Si1 O34 1_555 1_555
Si1 O37 1_555 1_555
C54 C55 1_555 1_555
C57 C58 1_555 1_555
C59 C60 1_555 1_555
C64 C65 1_555 1_555
C67 C68 1_555 1_555
C69 C70 1_555 1_555
C74 C75 1_555 1_555
C77 C78 1_555 1_555
C79 C80 1_555 1_555
C84 C85 1_555 1_555
C87 C88 1_555 1_555
C89 C90 1_555 1_555
C94 C95 1_555 1_555
C97 C98 1_555 1_555
C99 C100 1_555 1_555

#END
