
#######################################################################
#
#                 Cambridge Crystallographic Data Centre
#                                CCDC 
#
#######################################################################
#
# If this CIF has been generated from an entry in the Cambridge 
# Structural Database, then it will include bibliographic, chemical, 
# crystal, experimental, refinement or atomic coordinate data resulting 
# from the CCDC's data processing and validation procedures.
#
#######################################################################

data_XUWHED
_symmetry_cell_setting           monoclinic
_symmetry_space_group_name_H-M   'P 21/n'
_symmetry_Int_Tables_number      14
_space_group_name_Hall           '-P 2yn'
loop_
_symmetry_equiv_pos_site_id
_symmetry_equiv_pos_as_xyz
1 x,y,z
2 1/2-x,1/2+y,1/2-z
3 -x,-y,-z
4 1/2+x,1/2-y,1/2+z
_cell_length_a                   11.8807(17)
_cell_length_b                   9.9140(14)
_cell_length_c                   17.161(3)
_cell_angle_alpha                90
_cell_angle_beta                 108.588(2)
_cell_angle_gamma                90
_cell_volume                     1915.87
loop_
_atom_site_label
_atom_site_type_symbol
_atom_site_fract_x
_atom_site_fract_y
_atom_site_fract_z
Ni1 Ni 0.31468(3) -0.27652(3) 0.97630(2)
Ni2 Ni 0.5000 0.5000 1.0000
N1 N 0.2135(2) -0.1945(3) 1.04275(16)
N2 N 0.1530(2) -0.3659(2) 0.91604(16)
N3 N 0.27566(19) -0.1017(2) 0.90007(15)
N4 N 0.5844(2) 0.3593(2) 1.09162(14)
N5 N 0.5242(2) 0.2829(3) 1.11643(16)
N6 N 0.4675(3) 0.2123(3) 1.1411(2)
N7 N 0.3641(2) 0.5473(2) 1.04962(16)
N8 N 0.3803(2) 0.5629(3) 1.12146(18)
N9 N 0.3925(3) 0.5774(4) 1.1902(2)
O1 O 0.53302(16) 0.18836(19) 0.94838(12)
O2 O 0.39285(16) 0.35079(18) 0.92642(12)
C1 C 0.2461(4) -0.1078(4) 1.1043(2)
H1 H 0.3253 -0.0815 1.1242
C2 C 0.1668(5) -0.0544(5) 1.1405(3)
H2 H 0.1922 0.0080 1.1830
C3 C 0.0518(4) -0.0945(5) 1.1131(3)
H3 H -0.0015 -0.0611 1.1379
C4 C 0.0120(3) -0.1861(4) 1.0475(3)
C5 C -0.1066(4) -0.2350(5) 1.0138(4)
H4 H -0.1648 -0.2035 1.0348
C6 C -0.1357(3) -0.3239(5) 0.9533(4)
H5 H -0.2135 -0.3553 0.9340
C7 C -0.0513(3) -0.3734(4) 0.9164(3)
C8 C -0.0757(4) -0.4682(5) 0.8530(3)
H6 H -0.1521 -0.5029 0.8312
C9 C 0.0113(4) -0.5103(4) 0.8229(3)
H7 H -0.0053 -0.5736 0.7807
C10 C 0.1271(3) -0.4572(3) 0.8561(2)
H8 H 0.1866 -0.4867 0.8356
C11 C 0.0657(3) -0.3262(3) 0.9469(2)
C12 C 0.0983(3) -0.2326(3) 1.0139(2)
C13 C 0.4285(2) 0.2324(3) 0.92224(16)
C14 C 0.3464(2) 0.0049(3) 0.92633(18)
H9 H 0.4063 -0.0023 0.9767
C15 C 0.3368(2) 0.1254(3) 0.88365(17)
C16 C 0.2468(3) 0.1371(3) 0.81060(18)
H10 H 0.2352 0.2172 0.7809
C17 C 0.1733(3) 0.0270(3) 0.78167(19)
H11 H 0.1127 0.0317 0.7316
C18 C 0.1908(2) -0.0890(3) 0.82769(17)
H12 H 0.1411 -0.1621 0.8074
Ni1B Ni 0.68532(3) 1.27652(3) 1.02370(2)
Ni1B_2 Ni 0.68532(3) 0.27652(3) 1.02370(2)
Ni1_2 Ni 0.31468(3) 0.72348(3) 0.97630(2)
N1B N 0.7865(2) 1.1945(3) 0.95725(16)
N2B N 0.8470(2) 1.3659(2) 1.08396(16)
N3B N 0.72434(19) 1.1017(2) 1.09993(15)
N4B N 0.4156(2) 0.6407(2) 0.90838(14)
N4B_2 N 0.4156(2) -0.3593(2) 0.90838(14)
N4_2 N 0.5844(2) 1.3593(2) 1.09162(14)
N5B N 0.4758(2) 0.7171(3) 0.88357(16)
N6B N 0.5325(3) 0.7877(3) 0.8589(2)
N7B N 0.6359(2) 0.4527(2) 0.95038(16)
N7_2 N 0.3641(2) -0.4527(2) 1.04962(16)
N7B_2 N 0.6359(2) 1.4527(2) 0.95038(16)
N8B N 0.6197(2) 0.4371(3) 0.87854(18)
N9B N 0.6075(3) 0.4226(4) 0.8098(2)
O1B O 0.46698(16) 0.81164(19) 1.05162(12)
O1B_2 O 0.46698(16) -0.18836(19) 1.05162(12)
O1_2 O 0.53302(16) 1.18836(19) 0.94838(12)
O2B O 0.60715(16) 0.64921(18) 1.07358(12)
C1B C 0.7539(4) 1.1078(4) 0.8957(2)
H1B H 0.6747 1.0815 0.8758
C2B C 0.8332(5) 1.0544(5) 0.8595(3)
H2B H 0.8078 0.9920 0.8170
C3B C 0.9482(4) 1.0945(5) 0.8869(3)
H3B H 1.0015 1.0611 0.8621
C4B C 0.9880(3) 1.1861(4) 0.9525(3)
C5B C 1.1066(4) 1.2350(5) 0.9862(4)
H4B H 1.1648 1.2035 0.9652
C6B C 1.1357(3) 1.3239(5) 1.0467(4)
H5B H 1.2135 1.3553 1.0660
C7B C 1.0513(3) 1.3734(4) 1.0836(3)
C8B C 1.0757(4) 1.4682(5) 1.1470(3)
H6B H 1.1521 1.5029 1.1688
C9B C 0.9887(4) 1.5103(4) 1.1771(3)
H7B H 1.0053 1.5736 1.2193
C10B C 0.8729(3) 1.4572(3) 1.1439(2)
H8B H 0.8134 1.4867 1.1644
C11B C 0.9343(3) 1.3262(3) 1.0531(2)
C12B C 0.9017(3) 1.2326(3) 0.9861(2)
C13B C 0.5715(2) 0.7676(3) 1.07776(16)
C14B C 0.6536(2) 0.9951(3) 1.07367(18)
H9B H 0.5937 1.0023 1.0233
C15B C 0.6632(2) 0.8746(3) 1.11635(17)
C16B C 0.7532(3) 0.8629(3) 1.18940(18)
H10B H 0.7648 0.7828 1.2191
C17B C 0.8267(3) 0.9730(3) 1.21833(19)
H11B H 0.8873 0.9683 1.2684
C18B C 0.8092(2) 1.0890(3) 1.17231(17)
H12B H 0.8589 1.1621 1.1926
loop_
_geom_bond_atom_site_label_1
_geom_bond_atom_site_label_2
_geom_bond_site_symmetry_1
_geom_bond_site_symmetry_2
Ni1 N1 1_555 1_555
Ni2 N4 1_555 1_555
N1 C1 1_555 1_555
N2 Ni1 1_555 1_555
N3 Ni1 1_555 1_555
N4 N5 1_555 1_555
N5 N6 1_555 1_555
N7 Ni2 1_555 1_555
N8 N7 1_555 1_555
N9 N8 1_555 1_555
O1 C13 1_555 1_555
O2 Ni2 1_555 1_555
C1 H1 1_555 1_555
C2 C1 1_555 1_555
H2 C2 1_555 1_555
C3 C2 1_555 1_555
H3 C3 1_555 1_555
C4 C3 1_555 1_555
C5 C4 1_555 1_555
H4 C5 1_555 1_555
C6 C5 1_555 1_555
H5 C6 1_555 1_555
C7 C6 1_555 1_555
C8 C7 1_555 1_555
H6 C8 1_555 1_555
C9 C8 1_555 1_555
H7 C9 1_555 1_555
C10 N2 1_555 1_555
H8 C10 1_555 1_555
C11 N2 1_555 1_555
C12 N1 1_555 1_555
C13 O2 1_555 1_555
C14 N3 1_555 1_555
H9 C14 1_555 1_555
C15 C13 1_555 1_555
C16 C15 1_555 1_555
H10 C16 1_555 1_555
C17 C16 1_555 1_555
H11 C17 1_555 1_555
C18 N3 1_555 1_555
H12 C18 1_555 1_555
Ni1B N1B 1_555 1_555
Ni1B_2 N4 1_555 1_555
Ni1_2 N7 1_555 1_555
N1B C1B 1_555 1_555
N2B Ni1B 1_555 1_555
N3B Ni1B 1_555 1_555
N4B Ni2 1_555 1_555
N4B_2 Ni1 1_555 1_555
N4_2 Ni1B 1_555 1_555
N5B N4B 1_555 1_555
N6B N5B 1_555 1_555
N7B Ni2 1_555 1_555
N7_2 Ni1 1_555 1_555
N7B_2 Ni1B 1_555 1_555
N8B N7B 1_555 1_555
N9B N8B 1_555 1_555
O1B Ni1_2 1_555 1_555
O1B_2 Ni1 1_555 1_555
O1_2 Ni1B 1_555 1_555
O2B Ni2 1_555 1_555
C1B H1B 1_555 1_555
C2B C1B 1_555 1_555
H2B C2B 1_555 1_555
C3B C2B 1_555 1_555
H3B C3B 1_555 1_555
C4B C3B 1_555 1_555
C5B C4B 1_555 1_555
H4B C5B 1_555 1_555
C6B C5B 1_555 1_555
H5B C6B 1_555 1_555
C7B C6B 1_555 1_555
C8B C7B 1_555 1_555
H6B C8B 1_555 1_555
C9B C8B 1_555 1_555
H7B C9B 1_555 1_555
C10B N2B 1_555 1_555
H8B C10B 1_555 1_555
C11B N2B 1_555 1_555
C12B N1B 1_555 1_555
C13B O1B 1_555 1_555
C14B N3B 1_555 1_555
H9B C14B 1_555 1_555
C15B C13B 1_555 1_555
C16B C15B 1_555 1_555
H10B C16B 1_555 1_555
C17B C16B 1_555 1_555
H11B C17B 1_555 1_555
C18B N3B 1_555 1_555
H12B C18B 1_555 1_555
O1 Ni1B_2 1_555 1_555
C4 C12 1_555 1_555
C7 C11 1_555 1_555
C9 C10 1_555 1_555
C11 C12 1_555 1_555
C14 C15 1_555 1_555
C17 C18 1_555 1_555
Ni1B_2 N7B 1_555 1_555
Ni1_2 N4B 1_555 1_555
O2B C13B 1_555 1_555
C4B C12B 1_555 1_555
C7B C11B 1_555 1_555
C9B C10B 1_555 1_555
C11B C12B 1_555 1_555
C14B C15B 1_555 1_555
C17B C18B 1_555 1_555

#END
