
#######################################################################
#
#                 Cambridge Crystallographic Data Centre
#                                CCDC 
#
#######################################################################
#
# If this CIF has been generated from an entry in the Cambridge 
# Structural Database, then it will include bibliographic, chemical, 
# crystal, experimental, refinement or atomic coordinate data resulting 
# from the CCDC's data processing and validation procedures.
#
#######################################################################

data_XUWQOW
_symmetry_cell_setting           monoclinic
_symmetry_space_group_name_H-M   'P 21/n'
_symmetry_Int_Tables_number      14
_space_group_name_Hall           '-P 2yn'
loop_
_symmetry_equiv_pos_site_id
_symmetry_equiv_pos_as_xyz
1 x,y,z
2 1/2-x,1/2+y,1/2-z
3 -x,-y,-z
4 1/2+x,1/2-y,1/2+z
_cell_length_a                   9.2098(8)
_cell_length_b                   18.5106(15)
_cell_length_c                   14.4899(12)
_cell_angle_alpha                90
_cell_angle_beta                 92.3660(10)
_cell_angle_gamma                90
_cell_volume                     2468.12
loop_
_atom_site_label
_atom_site_type_symbol
_atom_site_fract_x
_atom_site_fract_y
_atom_site_fract_z
Cd1 Cd 0.59573(2) 0.792786(9) 0.616583(13)
Cl1 Cl 1.03427(9) 0.91525(5) 0.68430(6)
Cl2 Cl 1.26099(9) 1.03228(5) 0.63527(6)
Cl3 Cl 0.24619(9) 0.60796(4) 0.46491(6)
Cl4 Cl 0.25344(10) 0.46250(4) 0.35631(6)
O1 O 0.5805(2) 0.68557(10) 0.54480(14)
N1 N 0.8073(3) 0.75061(12) 0.69560(15)
O2 O 0.7826(2) 0.83334(10) 0.50707(14)
O3 O 0.6984(2) 0.91017(10) 0.60751(15)
C1 C 0.8966(3) 0.94777(13) 0.52221(18)
N2 N 0.3940(2) 0.83410(12) 0.52721(16)
N3 N 0.4856(2) 0.83219(12) 0.74828(15)
C2 C 1.1153(3) 1.01446(14) 0.56020(18)
C3 C 1.0135(3) 0.96321(14) 0.58238(18)
C4 C 0.5001(3) 0.56661(13) 0.54627(18)
C5 C 0.2690(3) 0.79779(17) 0.5277(2)
H1 H 0.2588 0.7613 0.5711
O4 O 0.4447(3) 0.65441(13) 0.66064(18)
C6 C 0.4213(3) 0.78874(17) 0.8065(2)
H2 H 0.4274 0.7392 0.7971
C7 C 0.8970(4) 0.70620(17) 0.6545(2)
H3 H 0.8702 0.6894 0.5958
C8 C 0.3896(3) 0.54841(13) 0.48323(19)
C9 C 0.4732(4) 0.90235(17) 0.7634(2)
H4 H 0.5176 0.9342 0.7237
C10 C 0.3904(3) 0.48337(14) 0.43654(18)
C11 C 0.5069(3) 0.64159(15) 0.5902(2)
C12 C 0.7837(3) 0.89223(14) 0.54724(19)
C13 C 0.8498(4) 0.77459(18) 0.7786(2)
H5 H 0.7892 0.8064 0.8084
C14 C 0.4032(3) 0.88750(16) 0.4660(2)
H6 H 0.4883 0.9145 0.4659
C15 C 0.3457(4) 0.8133(2) 0.8805(2)
H7 H 0.3037 0.7809 0.9205
C16 C 1.0668(4) 0.7080(2) 0.7799(3)
H8 H 1.1533 0.6927 0.8088
C17 C 0.1679(4) 0.8653(2) 0.4033(3)
H9 H 0.0925 0.8748 0.3604
C18 C 0.3338(4) 0.8844(2) 0.8939(2)
H10 H 0.2823 0.9022 0.9428
C19 C 0.9794(4) 0.7547(2) 0.8232(2)
H11 H 1.0058 0.7730 0.8813
C20 C 0.1549(4) 0.8122(2) 0.4667(3)
H12 H 0.0693 0.7857 0.4688
C21 C 0.3979(4) 0.9302(2) 0.8350(2)
H13 H 0.3909 0.9799 0.8430
C22 C 0.2933(4) 0.90452(18) 0.4032(2)
H14 H 0.3039 0.9421 0.3614
C23 C 1.0278(4) 0.68350(19) 0.6939(3)
H15 H 1.0878 0.6523 0.6626
Cd1B Cd 0.40427(2) 0.207214(9) 0.383417(13)
Cd1B_2 Cd 1.40427(2) 1.207214(9) 0.383417(13)
Cl1B Cl 0.96573(9) 1.08475(5) 0.31570(6)
Cl2B Cl 0.73901(9) 0.96772(5) 0.36473(6)
Cl3B Cl 0.75381(9) 0.39204(4) 0.53509(6)
Cl4B Cl 0.74656(10) 0.53750(4) 0.64369(6)
O1B O 0.4195(2) 0.31443(10) 0.45520(14)
N1B N 0.1927(3) 0.24939(12) 0.30440(15)
O2B O 1.2174(2) 1.16666(10) 0.49293(14)
O2B_2 O 0.2174(2) 0.16666(10) 0.49293(14)
O3B O 1.3016(2) 1.08983(10) 0.39249(15)
O3B_2 O 0.3016(2) 0.08983(10) 0.39249(15)
C1B C 1.1034(3) 1.05223(13) 0.47779(18)
N2B N 0.6060(2) 0.16590(12) 0.47279(16)
N3B N 0.5144(2) 0.16781(12) 0.25172(15)
C2B C 0.8847(3) 0.98554(14) 0.43980(18)
C3B C 0.9865(3) 1.03679(14) 0.41762(18)
C4B C 0.4999(3) 0.43339(13) 0.45373(18)
C5B C 0.7310(3) 0.20221(17) 0.4723(2)
H1B H 0.7412 0.2387 0.4289
O4B O 0.5553(3) 0.34559(13) 0.33936(18)
C6B C 0.5787(3) 0.21126(17) 0.1935(2)
H2B H 0.5726 0.2608 0.2029
C7B C 0.1030(4) 0.29380(17) 0.3455(2)
H3B H 0.1298 0.3106 0.4042
C8B C 0.6104(3) 0.45159(13) 0.51677(19)
C9B C 0.5268(4) 0.09765(17) 0.2366(2)
H4B H 0.4824 0.0658 0.2763
C10B C 0.6096(3) 0.51663(14) 0.56346(18)
C11B C 0.4931(3) 0.35841(15) 0.4098(2)
C12B C 1.2163(3) 1.10777(14) 0.45276(19)
C13B C 0.1502(4) 0.22541(18) 0.2214(2)
H5B H 0.2108 0.1936 0.1916
C14B C 0.5968(3) 0.11250(16) 0.5340(2)
H6B H 0.5117 0.0855 0.5341
C15B C 0.6543(4) 0.1867(2) 0.1195(2)
H7B H 0.6963 0.2191 0.0795
C16B C -0.0668(4) 0.2920(2) 0.2201(3)
H8B H -0.1533 0.3073 0.1912
C17B C 0.8321(4) 0.1347(2) 0.5967(3)
H9B H 0.9075 0.1252 0.6396
C18B C 0.6662(4) 0.1156(2) 0.1061(2)
H10B H 0.7177 0.0978 0.0572
C19B C 0.0206(4) 0.2453(2) 0.1768(2)
H11B H -0.0058 0.2270 0.1187
C20B C 0.8451(4) 0.1878(2) 0.5333(3)
H12B H 0.9307 0.2143 0.5312
C21B C 0.6021(4) 0.0698(2) 0.1650(2)
H13B H 0.6091 0.0201 0.1570
C22B C 0.7067(4) 0.09548(18) 0.5968(2)
H14B H 0.6961 0.0579 0.6386
C23B C -0.0278(4) 0.31650(19) 0.3061(3)
H15B H -0.0878 0.3477 0.3374
loop_
_geom_bond_atom_site_label_1
_geom_bond_atom_site_label_2
_geom_bond_site_symmetry_1
_geom_bond_site_symmetry_2
Cd1 O1 1_555 1_555
Cl1 C3 1_555 1_555
Cl2 C2 1_555 1_555
Cl3 C8 1_555 1_555
Cl4 C10 1_555 1_555
O1 C11 1_555 1_555
N1 Cd1 1_555 1_555
O2 Cd1 1_555 1_555
O3 Cd1 1_555 1_555
C1 C3 1_555 1_555
N2 Cd1 1_555 1_555
N3 Cd1 1_555 1_555
C2 C3 1_555 1_555
C4 C8 1_555 1_555
C5 N2 1_555 1_555
H1 C5 1_555 1_555
O4 C11 1_555 1_555
C6 N3 1_555 1_555
H2 C6 1_555 1_555
C7 N1 1_555 1_555
H3 C7 1_555 1_555
C8 C10 1_555 1_555
C9 N3 1_555 1_555
H4 C9 1_555 1_555
C10 C4B 1_555 1_555
C11 C4 1_555 1_555
C12 O2 1_555 1_555
C13 N1 1_555 1_555
H5 C13 1_555 1_555
C14 N2 1_555 1_555
H6 C14 1_555 1_555
C15 C6 1_555 1_555
H7 C15 1_555 1_555
C16 H8 1_555 1_555
C17 H9 1_555 1_555
C18 C15 1_555 1_555
H10 C18 1_555 1_555
C19 C13 1_555 1_555
H11 C19 1_555 1_555
C20 C5 1_555 1_555
H12 C20 1_555 1_555
C21 C9 1_555 1_555
H13 C21 1_555 1_555
C22 C14 1_555 1_555
H14 C22 1_555 1_555
C23 C7 1_555 1_555
H15 C23 1_555 1_555
Cd1B O1B 1_555 1_555
Cd1B_2 O2B 1_555 1_555
Cl1B C3B 1_555 1_555
Cl2B C2B 1_555 1_555
Cl3B C8B 1_555 1_555
Cl4B C10B 1_555 1_555
O1B C11B 1_555 1_555
N1B Cd1B 1_555 1_555
O2B C12B 1_555 1_555
O2B_2 Cd1B 1_555 1_555
O3B Cd1B_2 1_555 1_555
O3B_2 Cd1B 1_555 1_555
C1B C2 1_555 1_555
N2B Cd1B 1_555 1_555
N3B Cd1B 1_555 1_555
C2B C1 1_555 1_555
C3B C1B 1_555 1_555
C4B C8B 1_555 1_555
C5B N2B 1_555 1_555
H1B C5B 1_555 1_555
O4B C11B 1_555 1_555
C6B N3B 1_555 1_555
H2B C6B 1_555 1_555
C7B N1B 1_555 1_555
H3B C7B 1_555 1_555
C8B C10B 1_555 1_555
C9B N3B 1_555 1_555
H4B C9B 1_555 1_555
C10B C4 1_555 1_555
C11B C4B 1_555 1_555
C12B O3B 1_555 1_555
C13B N1B 1_555 1_555
H5B C13B 1_555 1_555
C14B N2B 1_555 1_555
H6B C14B 1_555 1_555
C15B C6B 1_555 1_555
H7B C15B 1_555 1_555
C16B H8B 1_555 1_555
C17B H9B 1_555 1_555
C18B C15B 1_555 1_555
H10B C18B 1_555 1_555
C19B C13B 1_555 1_555
H11B C19B 1_555 1_555
C20B C5B 1_555 1_555
H12B C20B 1_555 1_555
C21B C9B 1_555 1_555
H13B C21B 1_555 1_555
C22B C14B 1_555 1_555
H14B C22B 1_555 1_555
C23B C7B 1_555 1_555
H15B C23B 1_555 1_555
O3 C12 1_555 1_555
C1 C12 1_555 1_555
C16 C19 1_555 1_555
C16 C23 1_555 1_555
C17 C20 1_555 1_555
C17 C22 1_555 1_555
C18 C21 1_555 1_555
C1B C12B 1_555 1_555
C2B C3B 1_555 1_555
C16B C19B 1_555 1_555
C16B C23B 1_555 1_555
C17B C20B 1_555 1_555
C17B C22B 1_555 1_555
C18B C21B 1_555 1_555

#END
