
#######################################################################
#
#                 Cambridge Crystallographic Data Centre
#                                CCDC 
#
#######################################################################
#
# If this CIF has been generated from an entry in the Cambridge 
# Structural Database, then it will include bibliographic, chemical, 
# crystal, experimental, refinement or atomic coordinate data resulting 
# from the CCDC's data processing and validation procedures.
#
#######################################################################

data_XUWRAJ
_symmetry_cell_setting           monoclinic
_symmetry_space_group_name_H-M   'C 2/c'
_symmetry_Int_Tables_number      15
_space_group_name_Hall           '-C 2yn'
loop_
_symmetry_equiv_pos_site_id
_symmetry_equiv_pos_as_xyz
1 x,y,z
2 -x,y,1/2-z
3 1/2+x,1/2+y,z
4 1/2-x,1/2+y,1/2-z
5 -x,-y,-z
6 x,-y,1/2+z
7 1/2-x,1/2-y,-z
8 1/2+x,1/2-y,1/2+z
_cell_length_a                   15.5980(13)
_cell_length_b                   9.1215(7)
_cell_length_c                   18.2202(15)
_cell_angle_alpha                90
_cell_angle_beta                 107.9590(10)
_cell_angle_gamma                90
_cell_volume                     2466.01
loop_
_atom_site_label
_atom_site_type_symbol
_atom_site_fract_x
_atom_site_fract_y
_atom_site_fract_z
Cu1 Cu 0.0000 0.45675(3) 0.2500
Cl1 Cl 0.31598(4) 0.54724(7) 0.39140(4)
Cl2 Cl 0.44904(4) 0.76608(9) 0.50041(3)
N1 N 0.10516(11) 0.46207(18) 0.20778(10)
N2 N 0.0000 0.2300(2) 0.2500
O1 O 0.12413(15) 0.4199(2) 0.41200(12)
O2 O 0.07620(9) 0.60664(17) 0.33277(8)
C1 C 0.12433(14) 0.5485(2) 0.39398(12)
C2 C 0.18946(13) 0.6529(2) 0.44956(11)
C3 C 0.27933(14) 0.6587(2) 0.45242(11)
C4 C 0.33870(13) 0.7553(2) 0.50162(11)
C5 C 0.17516(15) 0.3707(3) 0.23137(14)
H1 H 0.1739 0.2980 0.2668
C6 C 0.24890(16) 0.3796(3) 0.20559(16)
H2 H 0.2963 0.3135 0.2231
C7 C 0.25191(17) 0.4867(4) 0.15389(16)
H3 H 0.3009 0.4938 0.1352
C8 C 0.18167(18) 0.5830(4) 0.13015(17)
H4 H 0.1823 0.6573 0.0953
C9 C 0.10993(16) 0.5684(3) 0.15865(14)
H5 H 0.0628 0.6353 0.1430
C10 C -0.00812(15) 0.1552(2) 0.18505(13)
H6 H -0.0142 0.2066 0.1397
C11 C -0.00781(17) 0.0042(3) 0.18337(17)
H7 H -0.0128 -0.0454 0.1376
C12 C 0.0000 -0.0719(4) 0.2500
H8 H 0.0000 -0.1739 0.2500
Cu1F Cu 0.5000 1.04325(3) 0.7500
Cl1F Cl 0.18402(4) 0.95276(7) 0.60860(4)
Cl2F Cl 0.05096(4) 0.73392(9) 0.49959(3)
N1A N -0.10516(11) 0.46207(18) 0.29222(10)
O1F O 0.37587(15) 1.0801(2) 0.58800(12)
O2F O 0.42380(9) 0.89336(17) 0.66723(8)
O2A O -0.07620(9) 0.60664(17) 0.16723(8)
C1F C 0.37567(14) 0.9515(2) 0.60602(12)
C2F C 0.31054(13) 0.8471(2) 0.55044(11)
C3F C 0.22067(14) 0.8413(2) 0.54758(11)
C4F C 0.16130(13) 0.7447(2) 0.49838(11)
C5A C -0.17516(15) 0.3707(3) 0.26863(14)
H1A H -0.1739 0.2980 0.2332
C6A C -0.24890(16) 0.3796(3) 0.29441(16)
H2A H -0.2963 0.3135 0.2769
C7A C -0.25191(17) 0.4867(4) 0.34611(16)
H3A H -0.3009 0.4938 0.3648
C8A C -0.18167(18) 0.5830(4) 0.36985(17)
H4A H -0.1823 0.6573 0.4047
C9A C -0.10993(16) 0.5684(3) 0.34135(14)
H5A H -0.0628 0.6353 0.3570
C10A C 0.00812(15) 0.1552(2) 0.31495(13)
H6A H 0.0142 0.2066 0.3603
C11A C 0.00781(17) 0.0042(3) 0.31663(17)
H7A H 0.0128 -0.0454 0.3624
loop_
_geom_bond_atom_site_label_1
_geom_bond_atom_site_label_2
_geom_bond_site_symmetry_1
_geom_bond_site_symmetry_2
Cu1 N1 1_555 1_555
Cl1 C3 1_555 1_555
Cl2 C4 1_555 1_555
N1 C5 1_555 1_555
N2 Cu1 1_555 1_555
O1 C1 1_555 1_555
O2 Cu1 1_555 1_555
C1 O2 1_555 1_555
C2 C1 1_555 1_555
C3 C2 1_555 1_555
C4 C3 1_555 1_555
C5 H1 1_555 1_555
C6 C5 1_555 1_555
H2 C6 1_555 1_555
C7 C6 1_555 1_555
H3 C7 1_555 1_555
C8 C7 1_555 1_555
H4 C8 1_555 1_555
C9 N1 1_555 1_555
H5 C9 1_555 1_555
C10 N2 1_555 1_555
H6 C10 1_555 1_555
C11 C10 1_555 1_555
H7 C11 1_555 1_555
C12 C11 1_555 1_555
H8 C12 1_555 1_555
Cu1F O2F 1_555 1_555
Cl1F C3F 1_555 1_555
Cl2F C4F 1_555 1_555
N1A Cu1 1_555 1_555
O1F C1F 1_555 1_555
O2F C1F 1_555 1_555
O2A Cu1 1_555 1_555
C1F C2F 1_555 1_555
C2F C4 1_555 1_555
C3F C2F 1_555 1_555
C4F C2 1_555 1_555
C5A N1A 1_555 1_555
H1A C5A 1_555 1_555
C6A C5A 1_555 1_555
H2A C6A 1_555 1_555
C7A C6A 1_555 1_555
H3A C7A 1_555 1_555
C8A C7A 1_555 1_555
H4A C8A 1_555 1_555
C9A N1A 1_555 1_555
H5A C9A 1_555 1_555
C10A N2 1_555 1_555
H6A C10A 1_555 1_555
C11A C12 1_555 1_555
H7A C11A 1_555 1_555
C8 C9 1_555 1_555
C3F C4F 1_555 1_555
C8A C9A 1_555 1_555
C10A C11A 1_555 1_555

#END
