
#######################################################################
#
#                 Cambridge Crystallographic Data Centre
#                                CCDC 
#
#######################################################################
#
# If this CIF has been generated from an entry in the Cambridge 
# Structural Database, then it will include bibliographic, chemical, 
# crystal, experimental, refinement or atomic coordinate data resulting 
# from the CCDC's data processing and validation procedures.
#
#######################################################################

data_XUWRIR
_symmetry_cell_setting           monoclinic
_symmetry_space_group_name_H-M   'P 21/n'
_symmetry_Int_Tables_number      14
_space_group_name_Hall           '-P 2yn'
loop_
_symmetry_equiv_pos_site_id
_symmetry_equiv_pos_as_xyz
1 x,y,z
2 1/2-x,1/2+y,1/2-z
3 -x,-y,-z
4 1/2+x,1/2-y,1/2+z
_cell_length_a                   10.010(2)
_cell_length_b                   9.813(2)
_cell_length_c                   20.644(4)
_cell_angle_alpha                90
_cell_angle_beta                 92.19(3)
_cell_angle_gamma                90
_cell_volume                     2026.34
loop_
_atom_site_label
_atom_site_type_symbol
_atom_site_fract_x
_atom_site_fract_y
_atom_site_fract_z
Mn1 Mn 0.03503(5) 0.25092(5) 0.00881(2)
O1 O 0.1880(2) 0.1000(3) 0.02593(13)
N1 N 0.1271(3) 0.2832(3) -0.09039(13)
C1 C 0.3251(4) 0.2858(4) -0.27177(18)
C2 C 0.2969(3) -0.1060(4) -0.00010(18)
C3 C 0.2559(4) 0.2910(4) -0.20699(17)
C4 C 0.3222(4) 0.3303(4) -0.15049(17)
H1 H 0.4108 0.3588 -0.1505
C5 C 0.1801(3) -0.0273(4) 0.02524(16)
C6 C 0.3403(4) -0.2273(4) 0.0287(2)
C7 C 0.2536(4) 0.3263(4) -0.09381(17)
H2 H 0.2978 0.3552 -0.0558
C8 C 0.4381(4) -0.3029(5) -0.0012(2)
H3 H 0.4671 -0.3845 0.0174
C9 C 0.3540(4) -0.0625(5) -0.0570(2)
H4 H 0.3260 0.0191 -0.0760
C10 C 0.4089(4) 0.3875(5) -0.29143(18)
H5 H 0.4280 0.4617 -0.2646
C11 C 0.4516(5) -0.1388(5) -0.0855(2)
H6 H 0.4895 -0.1085 -0.1234
C12 C 0.1227(4) 0.2550(4) -0.20502(19)
H7 H 0.0740 0.2334 -0.2429
C13 C 0.4926(5) -0.2599(5) -0.0577(3)
H8 H 0.5571 -0.3125 -0.0771
C14 C 0.3060(5) 0.1788(5) -0.3111(2)
H9 H 0.2513 0.1075 -0.2988
C15 C 0.0630(4) 0.2517(4) -0.14588(19)
H10 H -0.0264 0.2263 -0.1448
C16 C 0.3667(5) 0.1740(5) -0.3695(2)
H11 H 0.3526 0.0973 -0.3954
N2 N 0.4434(3) 0.2711(3) -0.39108(14)
C17 C 0.4645(4) 0.3781(4) -0.35179(18)
H12 H 0.5185 0.4488 -0.3655
O2 O 0.0817(2) -0.0959(3) 0.04301(11)
C18 C 0.2977(4) -0.2728(4) 0.0936(2)
C19 C 0.3360(5) -0.1947(5) 0.1476(2)
H13 H 0.3766 -0.1106 0.1417
C20 C 0.3147(6) -0.2399(5) 0.2093(2)
H14 H 0.3400 -0.1859 0.2447
C21 C 0.2560(6) -0.3650(6) 0.2189(2)
H15 H 0.2428 -0.3961 0.2607
C22 C 0.2171(5) -0.4432(5) 0.16649(18)
H16 H 0.1788 -0.5282 0.1730
C23 C 0.2343(4) -0.3967(4) 0.10362(18)
C24 C 0.1699(3) -0.4771(4) 0.04855(16)
O3 O 0.1737(2) -0.6042(3) 0.05270(12)
O4 O 0.1153(2) -0.4101(3) 0.00336(11)
Mn1C Mn 0.53503(5) 0.24908(5) -0.49119(2)
Mn1B Mn -0.03503(5) -0.25092(5) -0.00881(2)
Mn1_2 Mn 0.03503(5) -0.74908(5) 0.00881(2)
N2C N -0.0566(3) 0.2289(3) 0.10892(14)
O2B O -0.0817(2) 0.0959(3) -0.04301(11)
O3_2 O 0.1737(2) 0.3958(3) 0.05270(12)
O4B O -0.1153(2) 0.4101(3) -0.00336(11)
loop_
_geom_bond_atom_site_label_1
_geom_bond_atom_site_label_2
_geom_bond_site_symmetry_1
_geom_bond_site_symmetry_2
Mn1 O1 1_555 1_555
O1 C5 1_555 1_555
N1 Mn1 1_555 1_555
C1 C3 1_555 1_555
C2 C5 1_555 1_555
C3 C4 1_555 1_555
C4 H1 1_555 1_555
C5 O2 1_555 1_555
C6 C2 1_555 1_555
C7 N1 1_555 1_555
H2 C7 1_555 1_555
C8 C6 1_555 1_555
H3 C8 1_555 1_555
C9 C2 1_555 1_555
H4 C9 1_555 1_555
C10 C1 1_555 1_555
H5 C10 1_555 1_555
C11 C9 1_555 1_555
H6 C11 1_555 1_555
C12 C3 1_555 1_555
H7 C12 1_555 1_555
C13 C8 1_555 1_555
H8 C13 1_555 1_555
C14 C1 1_555 1_555
H9 C14 1_555 1_555
C15 N1 1_555 1_555
H10 C15 1_555 1_555
C16 C14 1_555 1_555
H11 C16 1_555 1_555
N2 C16 1_555 1_555
C17 C10 1_555 1_555
H12 C17 1_555 1_555
O2 Mn1B 1_555 1_555
C18 C6 1_555 1_555
C19 C18 1_555 1_555
H13 C19 1_555 1_555
C20 C19 1_555 1_555
H14 C20 1_555 1_555
C21 C20 1_555 1_555
H15 C21 1_555 1_555
C22 C21 1_555 1_555
H16 C22 1_555 1_555
C23 C18 1_555 1_555
C24 C23 1_555 1_555
O3 C24 1_555 1_555
O4 C24 1_555 1_555
Mn1C N2 1_555 1_555
Mn1B O4 1_555 1_555
Mn1_2 O3 1_555 1_555
N2C Mn1 1_555 1_555
O2B Mn1 1_555 1_555
O3_2 Mn1 1_555 1_555
O4B Mn1 1_555 1_555
C4 C7 1_555 1_555
C11 C13 1_555 1_555
C12 C15 1_555 1_555
N2 C17 1_555 1_555
C22 C23 1_555 1_555

#END
