
#######################################################################
#
#                 Cambridge Crystallographic Data Centre
#                                CCDC 
#
#######################################################################
#
# If this CIF has been generated from an entry in the Cambridge 
# Structural Database, then it will include bibliographic, chemical, 
# crystal, experimental, refinement or atomic coordinate data resulting 
# from the CCDC's data processing and validation procedures.
#
#######################################################################

data_XUWRIR01
_symmetry_cell_setting           monoclinic
_symmetry_space_group_name_H-M   'P 21/n'
_symmetry_Int_Tables_number      14
_space_group_name_Hall           '-P 2yn'
loop_
_symmetry_equiv_pos_site_id
_symmetry_equiv_pos_as_xyz
1 x,y,z
2 1/2-x,1/2+y,1/2-z
3 -x,-y,-z
4 1/2+x,1/2-y,1/2+z
_cell_length_a                   10.044(2)
_cell_length_b                   9.800(2)
_cell_length_c                   20.687(4)
_cell_angle_alpha                90
_cell_angle_beta                 91.75(3)
_cell_angle_gamma                90
_cell_volume                     2035.3
loop_
_atom_site_label
_atom_site_type_symbol
_atom_site_fract_x
_atom_site_fract_y
_atom_site_fract_z
O1 O 0.17277(18) 1.10387(17) 0.05245(8)
O2 O 0.18691(17) 0.40053(17) 0.02598(9)
C1 C 0.1791(2) 0.5278(2) 0.02507(11)
C2 C 0.2950(2) 0.6062(3) -0.00020(13)
C3 C 0.4369(3) 0.8031(3) -0.00075(17)
H1 H 0.4658 0.8847 0.0179
C4 C 0.3382(3) 0.7275(2) 0.02909(14)
N1 N -0.0553(2) 1.2724(2) 0.10913(10)
C5 C -0.0340(3) 1.3758(3) 0.14913(13)
H2 H 0.0215 1.4459 0.1361
C6 C -0.1337(4) 1.1741(3) 0.12982(15)
H3 H -0.1489 1.0988 0.1033
Mn1 Mn 0.03548(4) 1.24902(4) 0.008670(16)
O3 O 0.11460(17) 0.90938(16) 0.00358(8)
O4 O 0.08069(16) 0.59611(17) 0.04281(8)
N2 N -0.3709(2) 1.2849(2) 0.40950(10)
C7 C -0.1738(3) 1.2859(3) 0.22930(12)
C8 C 0.1685(2) 0.9761(2) 0.04856(11)
C9 C 0.2316(3) 0.8965(3) 0.10356(13)
C10 C -0.2414(3) 1.2909(3) 0.29216(12)
C11 C -0.1775(3) 1.3293(3) 0.34896(12)
H4 H -0.0891 1.3579 0.3491
C12 C 0.2951(3) 0.7725(3) 0.09344(13)
C13 C -0.2456(3) 1.3252(3) 0.40580(12)
H5 H -0.2009 1.3523 0.4437
C14 C 0.2125(4) 0.9432(3) 0.16599(14)
H6 H 0.1735 1.0280 0.1724
C15 C -0.0894(3) 1.3854(3) 0.20907(13)
H7 H -0.0694 1.4595 0.2357
C16 C 0.3532(3) 0.5624(3) -0.05644(15)
H8 H 0.3261 0.4805 -0.0754
C17 C 0.4510(3) 0.6391(4) -0.08464(18)
H9 H 0.4891 0.6090 -0.1225
C18 C 0.3320(3) 0.6947(3) 0.14743(17)
H10 H 0.3726 0.6105 0.1417
C19 C -0.3738(3) 1.2535(3) 0.29555(13)
H11 H -0.4220 1.2300 0.2581
C20 C 0.4921(3) 0.7600(4) -0.0567(2)
H12 H 0.5572 0.8122 -0.0760
C21 C 0.3096(5) 0.7401(4) 0.20895(17)
H13 H 0.3342 0.6863 0.2443
C22 C -0.1937(4) 1.1780(3) 0.18866(15)
H14 H -0.2482 1.1064 0.2008
C23 C -0.4343(3) 1.2511(3) 0.35450(12)
H15 H -0.5231 1.2247 0.3558
C24 C 0.2511(5) 0.8648(4) 0.21833(17)
H16 H 0.2376 0.8961 0.2601
O2_2 O 0.18691(17) 1.40053(17) 0.02598(9)
Mn1_2 Mn 0.03548(4) 0.24902(4) 0.008670(16)
Mn1B Mn -0.03548(4) 0.75098(4) -0.008670(16)
Mn1C Mn -0.46452(4) 1.25098(4) 0.508670(16)
O3B O -0.11460(17) 1.09062(16) -0.00358(8)
O4B O -0.08069(16) 1.40389(17) -0.04281(8)
N2C N 0.1291(2) 1.2151(2) -0.09050(10)
loop_
_geom_bond_atom_site_label_1
_geom_bond_atom_site_label_2
_geom_bond_site_symmetry_1
_geom_bond_site_symmetry_2
O1 Mn1 1_555 1_555
O2 C1 1_555 1_555
C1 C2 1_555 1_555
C2 C4 1_555 1_555
C3 H1 1_555 1_555
C4 C3 1_555 1_555
N1 C5 1_555 1_555
C5 H2 1_555 1_555
C6 N1 1_555 1_555
H3 C6 1_555 1_555
Mn1 N1 1_555 1_555
O3 C8 1_555 1_555
O4 C1 1_555 1_555
N2 C13 1_555 1_555
C7 C10 1_555 1_555
C8 O1 1_555 1_555
C9 C8 1_555 1_555
C10 C11 1_555 1_555
C11 H4 1_555 1_555
C12 C4 1_555 1_555
C13 C11 1_555 1_555
H5 C13 1_555 1_555
C14 C9 1_555 1_555
H6 C14 1_555 1_555
C15 C5 1_555 1_555
H7 C15 1_555 1_555
C16 C2 1_555 1_555
H8 C16 1_555 1_555
C17 C16 1_555 1_555
H9 C17 1_555 1_555
C18 C12 1_555 1_555
H10 C18 1_555 1_555
C19 C10 1_555 1_555
H11 C19 1_555 1_555
C20 C3 1_555 1_555
H12 C20 1_555 1_555
C21 C18 1_555 1_555
H13 C21 1_555 1_555
C22 C6 1_555 1_555
H14 C22 1_555 1_555
C23 N2 1_555 1_555
H15 C23 1_555 1_555
C24 C14 1_555 1_555
H16 C24 1_555 1_555
O2_2 Mn1 1_555 1_555
Mn1_2 O2 1_555 1_555
Mn1B O3 1_555 1_555
Mn1C N2 1_555 1_555
O3B Mn1 1_555 1_555
O4B Mn1 1_555 1_555
N2C Mn1 1_555 1_555
O4 Mn1B 1_555 1_555
C7 C15 1_555 1_555
C7 C22 1_555 1_555
C9 C12 1_555 1_555
C17 C20 1_555 1_555
C19 C23 1_555 1_555
C21 C24 1_555 1_555

#END
