
#######################################################################
#
#                 Cambridge Crystallographic Data Centre
#                                CCDC 
#
#######################################################################
#
# If this CIF has been generated from an entry in the Cambridge 
# Structural Database, then it will include bibliographic, chemical, 
# crystal, experimental, refinement or atomic coordinate data resulting 
# from the CCDC's data processing and validation procedures.
#
#######################################################################

data_XUWVEQ
_symmetry_cell_setting           monoclinic
_symmetry_space_group_name_H-M   'P 21/m'
_symmetry_Int_Tables_number      11
_space_group_name_Hall           '-P 2yb'
loop_
_symmetry_equiv_pos_site_id
_symmetry_equiv_pos_as_xyz
1 x,y,z
2 -x,1/2+y,-z
3 -x,-y,-z
4 x,1/2-y,z
_cell_length_a                   5.04837(3)
_cell_length_b                   12.36987(7)
_cell_length_c                   8.25470(6)
_cell_angle_alpha                90
_cell_angle_beta                 92.064
_cell_angle_gamma                90
_cell_volume                     515.152
loop_
_atom_site_label
_atom_site_type_symbol
_atom_site_fract_x
_atom_site_fract_y
_atom_site_fract_z
Ga1 Ga 0.5000 0.5000 0.0000
Ga2 Ga 0.2293(4) 0.2500 0.1453(3)
P1 P 0.0081(5) 0.4860(2) 0.2333(4)
O1 O -0.002(2) 0.2500 -0.067(1)
O2 O -0.279(1) 0.5185(5) 0.2055(8)
O3 O 0.504(2) 0.2500 0.341(1)
O4 O 0.202(1) 0.5396(4) 0.127(1)
O5 O 0.014(1) 0.3631(5) 0.2307(8)
F1 F 0.458(1) 0.3489(4) 0.0435(7)
C1 C 0.086(2) 0.5264(7) 0.442(1)
C1B C -0.086(2) 0.4736(7) 0.558(1)
P1B P -0.0081(5) 0.5140(2) 0.7667(4)
O2B O 0.279(1) 0.4815(5) 0.7945(8)
O4B O -0.202(1) 0.4604(4) 0.873(1)
O5B O -0.014(1) 0.6369(5) 0.7693(8)
O5C O 0.014(1) 0.1369(5) 0.2307(8)
F1C F 0.458(1) 0.1511(4) 0.0435(7)
Ga1_2 Ga -0.5000 0.5000 0.0000
Ga1_3 Ga 0.5000 0.5000 1.0000
Ga1_4 Ga -0.5000 0.5000 1.0000
Ga2A Ga -0.2293(4) 0.7500 0.8547(3)
O2_2 O 0.721(1) 0.5185(5) 0.2055(8)
O2B_2 O 0.279(1) 0.4815(5) -0.2055(8)
O4B_2 O 0.798(1) 0.4604(4) -0.127(1)
F1B F 0.542(1) 0.6511(4) -0.0435(7)
Ga2A_2 Ga 0.7707(4) 0.7500 -0.1453(3)
O6 O -0.567(2) 0.2500 -0.337(1)
loop_
_geom_bond_atom_site_label_1
_geom_bond_atom_site_label_2
_geom_bond_site_symmetry_1
_geom_bond_site_symmetry_2
Ga1 O4 1_555 1_555
Ga2 O1 1_555 1_555
P1 O2 1_555 1_555
O2 Ga1_2 1_555 1_555
O3 Ga2 1_555 1_555
O4 P1 1_555 1_555
O5 Ga2 1_555 1_555
F1 Ga1 1_555 1_555
C1 P1 1_555 1_555
C1B C1 1_555 1_555
P1B C1B 1_555 1_555
O2B P1B 1_555 1_555
O4B P1B 1_555 1_555
O5B P1B 1_555 1_555
O5C Ga2 1_555 1_555
F1C Ga2 1_555 1_555
Ga1_3 O2B 1_555 1_555
Ga1_4 O4B 1_555 1_555
Ga2A O5B 1_555 1_555
O2_2 Ga1 1_555 1_555
O2B_2 Ga1 1_555 1_555
O4B_2 Ga1 1_555 1_555
F1B Ga1 1_555 1_555
Ga2A_2 F1B 1_555 1_555
Ga2 F1 1_555 1_555
P1 O5 1_555 1_555

#END
