
#######################################################################
#
#                 Cambridge Crystallographic Data Centre
#                                CCDC 
#
#######################################################################
#
# If this CIF has been generated from an entry in the Cambridge 
# Structural Database, then it will include bibliographic, chemical, 
# crystal, experimental, refinement or atomic coordinate data resulting 
# from the CCDC's data processing and validation procedures.
#
#######################################################################

data_XUWVUG
_symmetry_cell_setting           monoclinic
_symmetry_space_group_name_H-M   'P 21'
_symmetry_Int_Tables_number      4
_space_group_name_Hall           'P 2yb'
loop_
_symmetry_equiv_pos_site_id
_symmetry_equiv_pos_as_xyz
1 x,y,z
2 -x,1/2+y,-z
_cell_length_a                   17.640(1)
_cell_length_b                   3.689(2)
_cell_length_c                   12.385(1)
_cell_angle_alpha                90
_cell_angle_beta                 91.247(4)
_cell_angle_gamma                90
_cell_volume                     805.75
loop_
_atom_site_label
_atom_site_type_symbol
_atom_site_fract_x
_atom_site_fract_y
_atom_site_fract_z
O14 O 0.076(3) 0.470(17) -0.088(5)
O15 O -0.059(3) 0.465(18) -0.087(5)
O16 O 0.504(3) -0.325(24) -0.089(3)
Eu1 Eu 0.0949(3) 0.2500 0.5515(5)
Eu2 Eu 0.2673(3) -0.2500 -0.2905(4)
Eu3 Eu 0.4592(3) 0.2500 0.6312(4)
O1 O -0.048(2) 0.265(10) 0.554(3)
O2 O 0.404(2) -0.250(10) 0.719(3)
O3 O 0.171(2) 0.245(10) 0.716(3)
O4 O 0.187(2) -0.235(12) 0.544(3)
O5 O 0.315(2) 0.245(10) 0.606(3)
O6 O 0.457(1) 0.195(7) 0.299(3)
O7 O 0.051(3) -0.240(18) 0.678(4)
O8 O 0.206(2) -0.190(12) -0.075(2)
O9 O 0.151(1) 0.340(11) 0.391(1)
O10 O 0.447(2) 0.720(8) 0.221(3)
O11 O 0.439(2) -0.250(13) 0.504(3)
O12 O 0.286(2) 0.205(9) -0.130(1)
O13 O 0.088(2) 0.395(14) 0.240(2)
C1 C 0.274(1) 0.360(17) 0.282(2)
C2 C 0.412(1) 0.455(6) 0.267(2)
C3 C 0.138(1) 0.230(10) 0.303(2)
C4 C 0.274(1) 0.170(9) 0.059(1)
C5 C 0.337(2) 0.270(16) 0.114(1)
C6 C 0.205(1) 0.130(17) 0.130(2)
C7 C 0.213(1) 0.146(7) 0.241(1)
C8 C 0.336(1) 0.415(9) 0.219(1)
C9 C 0.262(2) 0.020(13) -0.041(1)
O1A O 0.048(2) -0.235(10) 0.446(3)
O1A_2 O 0.048(2) 0.765(10) 0.446(3)
O4_2 O 0.187(2) 0.765(12) 0.544(3)
O7_2 O 0.051(3) 0.760(18) 0.678(4)
O3_2 O 0.171(2) -0.755(10) 0.716(3)
O5_2 O 0.315(2) -0.755(10) 0.606(3)
O12_2 O 0.286(2) -0.795(9) 0.870(1)
O2_2 O 0.404(2) 0.750(10) 0.719(3)
O6A O 0.543(1) 0.695(7) 0.701(3)
O11_2 O 0.439(2) 0.750(13) 0.504(3)
O11A O 0.561(2) 0.250(13) 0.496(3)
Eu1A Eu -0.0949(3) 0.7500 0.4485(5)
Eu1A_2 Eu -0.0949(3) -0.2500 0.4485(5)
Eu3_2 Eu 0.4592(3) -0.7500 0.6312(4)
Eu2_2 Eu 0.2673(3) 0.7500 0.7095(4)
Eu1_2 Eu 0.0949(3) -0.7500 0.5515(5)
O10A O 0.553(2) -0.780(8) 0.779(3)
Eu3A Eu 0.5408(3) -0.2500 0.3688(4)
O8_2 O 0.206(2) -0.190(12) 0.925(2)
O12_3 O 0.286(2) 0.205(9) 0.870(1)
Eu2_3 Eu 0.2673(3) -0.2500 0.7095(4)
Eu2_4 Eu 0.2673(3) 0.7500 -0.2905(4)
O6A_2 O 0.543(1) -0.305(7) 0.701(3)
O10A_2 O 0.553(2) 0.220(8) 0.779(3)
Eu3A_2 Eu 0.5408(3) 0.7500 0.3688(4)
O10_2 O 0.447(2) -0.280(8) 0.221(3)
O6_2 O 0.457(1) 1.195(7) 0.299(3)
Eu2_5 Eu 0.2673(3) -1.2500 -0.2905(4)
O2_3 O 0.404(2) -0.250(10) -0.281(3)
O3_3 O 0.171(2) -0.755(10) -0.284(3)
O3_4 O 0.171(2) 0.245(10) -0.284(3)
O4_3 O 0.187(2) -0.235(12) -0.456(3)
O5_3 O 0.315(2) -0.755(10) -0.394(3)
O5_4 O 0.315(2) 0.245(10) -0.394(3)
O12_4 O 0.286(2) -0.795(9) -0.130(1)
Eu2_6 Eu 0.2673(3) 1.7500 -0.2905(4)
O2_4 O 0.404(2) 0.750(10) -0.281(3)
O3_5 O 0.171(2) 1.245(10) -0.284(3)
O4_4 O 0.187(2) 0.765(12) -0.456(3)
O5_5 O 0.315(2) 1.245(10) -0.394(3)
O8_3 O 0.206(2) 0.810(12) -0.075(2)
O12_5 O 0.286(2) 1.205(9) -0.130(1)
loop_
_geom_bond_atom_site_label_1
_geom_bond_atom_site_label_2
_geom_bond_site_symmetry_1
_geom_bond_site_symmetry_2
Eu1 O1 1_555 1_555
Eu2 O8 1_555 1_555
Eu3 O2 1_555 1_555
O1 Eu1A 1_555 1_555
O2 Eu3_2 1_555 1_555
O3 Eu1 1_555 1_555
O4 Eu1 1_555 1_555
O5 Eu3 1_555 1_555
O6 C2 1_555 1_555
O7 Eu1 1_555 1_555
O8 C9 1_555 1_555
O9 Eu1 1_555 1_555
O10 C2 1_555 1_555
O11 Eu3 1_555 1_555
O12 Eu2 1_555 1_555
O13 C3 1_555 1_555
C1 C7 1_555 1_555
C2 C8 1_555 1_555
C3 O9 1_555 1_555
C4 C5 1_555 1_555
C5 C8 1_555 1_555
C6 C4 1_555 1_555
C7 C3 1_555 1_555
C8 C1 1_555 1_555
C9 O12 1_555 1_555
O1A Eu1 1_555 1_555
O1A_2 Eu1 1_555 1_555
O4_2 Eu1 1_555 1_555
O7_2 Eu1 1_555 1_555
O3_2 Eu1_2 1_555 1_555
O5_2 Eu3_2 1_555 1_555
O12_2 Eu2_3 1_555 1_555
O2_2 Eu3 1_555 1_555
O6A Eu3 1_555 1_555
O11_2 Eu3 1_555 1_555
O11A Eu3 1_555 1_555
Eu1A O1A_2 1_555 1_555
Eu1A_2 O1 1_555 1_555
Eu3_2 O11 1_555 1_555
Eu2_2 O3 1_555 1_555
Eu1_2 O4 1_555 1_555
O10A Eu3_2 1_555 1_555
Eu3A O6 1_555 1_555
O8_2 Eu2_3 1_555 1_555
O12_3 Eu2_2 1_555 1_555
Eu2_3 O2 1_555 1_555
Eu2_4 O12 1_555 1_555
O6A_2 Eu3 1_555 1_555
O10A_2 Eu3 1_555 1_555
Eu3A_2 O6 1_555 1_555
O10_2 Eu3A 1_555 1_555
O6_2 Eu3A_2 1_555 1_555
Eu2_5 O3_3 1_555 1_555
O2_3 Eu2 1_555 1_555
O3_3 Eu2 1_555 1_555
O3_4 Eu2 1_555 1_555
O4_3 Eu2 1_555 1_555
O5_3 Eu2 1_555 1_555
O5_4 Eu2 1_555 1_555
O12_4 Eu2 1_555 1_555
Eu2_6 O3_5 1_555 1_555
O2_4 Eu2_4 1_555 1_555
O3_5 Eu2_4 1_555 1_555
O4_4 Eu2_4 1_555 1_555
O5_5 Eu2_4 1_555 1_555
O8_3 Eu2_4 1_555 1_555
O12_5 Eu2_4 1_555 1_555
O3 Eu2_3 1_555 1_555
O4 Eu2_3 1_555 1_555
O5 Eu2_3 1_555 1_555
O5 Eu2_2 1_555 1_555
O7 Eu1_2 1_555 1_555
O10 Eu3A_2 1_555 1_555
O11 Eu3A 1_555 1_555
C4 C9 1_555 1_555
C6 C7 1_555 1_555
O1A Eu1A_2 1_555 1_555
O1A Eu1_2 1_555 1_555
O4_2 Eu2_2 1_555 1_555
O3_2 Eu2_3 1_555 1_555
O5_2 Eu2_3 1_555 1_555
O2_2 Eu2_2 1_555 1_555
O11_2 Eu3A_2 1_555 1_555
O11A Eu3A 1_555 1_555
O11A Eu3A_2 1_555 1_555
Eu3_2 O6A_2 1_555 1_555
O12_3 Eu2_3 1_555 1_555
Eu2_4 O3_4 1_555 1_555
Eu2_4 O5_4 1_555 1_555
Eu2_5 O5_3 1_555 1_555
Eu2_5 O12_4 1_555 1_555
Eu2_6 O5_5 1_555 1_555
Eu2_6 O12_5 1_555 1_555

#END
