
#######################################################################
#
#                 Cambridge Crystallographic Data Centre
#                                CCDC 
#
#######################################################################
#
# If this CIF has been generated from an entry in the Cambridge 
# Structural Database, then it will include bibliographic, chemical, 
# crystal, experimental, refinement or atomic coordinate data resulting 
# from the CCDC's data processing and validation procedures.
#
#######################################################################

data_XUXRUD01
_symmetry_cell_setting           monoclinic
_symmetry_space_group_name_H-M   'C 2/c'
_symmetry_Int_Tables_number      15
_space_group_name_Hall           '-C 2yn'
loop_
_symmetry_equiv_pos_site_id
_symmetry_equiv_pos_as_xyz
1 x,y,z
2 1/2+x,1/2+y,z
3 -x,y,1/2-z
4 1/2-x,1/2+y,1/2-z
5 -x,-y,-z
6 1/2-x,1/2-y,-z
7 x,-y,1/2+z
8 1/2+x,1/2-y,1/2+z
_cell_length_a                   15.3702(1)
_cell_length_b                   14.3612(1)
_cell_length_c                   7.7776(1)
_cell_angle_alpha                90
_cell_angle_beta                 92.452(1)
_cell_angle_gamma                90
_cell_volume                     1715.21
loop_
_atom_site_label
_atom_site_type_symbol
_atom_site_fract_x
_atom_site_fract_y
_atom_site_fract_z
Cd1 Cd 0.0000 0.0000 0.0000
O1 O 0.0000 0.09271(14) -0.2500
N1 N 0.35885(12) -0.29487(13) -0.2297(2)
C1 C 0.28380(14) -0.31701(15) -0.3064(3)
H1 H 0.2792 -0.3751 -0.3646
C2 C 0.20963(14) -0.25878(16) -0.3068(3)
H2 H 0.1573 -0.2772 -0.3667
C3 C 0.21364(13) -0.17554(15) -0.2201(3)
C4 C 0.29248(14) -0.15096(15) -0.1277(3)
C5 C 0.30442(16) -0.06861(16) -0.0271(3)
H3 H 0.2573 -0.0265 -0.0166
C6 C 0.38337(17) -0.04958(19) 0.0546(3)
H4 H 0.3902 0.0056 0.1213
C7 C 0.45439(17) -0.1110(2) 0.0408(3)
H5 H 0.5089 -0.0964 0.0964
C8 C 0.44510(15) -0.19148(18) -0.0522(3)
H6 H 0.4929 -0.2331 -0.0591
C9 C 0.36429(13) -0.21310(15) -0.1384(3)
C10 C 0.13429(14) -0.11190(16) -0.2293(3)
O2 O 0.11662(12) -0.07173(14) -0.0921(2)
O3 O 0.09481(12) -0.10619(13) -0.3737(2)
H7 H 0.0461(19) 0.128(2) -0.257(4)
Cd1F Cd 0.0000 0.0000 -0.5000
Cd1F_2 Cd 0.0000 0.0000 0.5000
O1F O 0.0000 -0.09271(14) 0.2500
N1D N -0.35885(12) 0.29487(13) 0.2297(2)
C1D C -0.28380(14) 0.31701(15) 0.3064(3)
H1D H -0.2792 0.3751 0.3646
C2D C -0.20963(14) 0.25878(16) 0.3068(3)
H2D H -0.1573 0.2772 0.3667
C3D C -0.21364(13) 0.17554(15) 0.2201(3)
C4D C -0.29248(14) 0.15096(15) 0.1277(3)
C5D C -0.30442(16) 0.06861(16) 0.0271(3)
H3D H -0.2573 0.0265 0.0166
C6D C -0.38337(17) 0.04958(19) -0.0546(3)
H4D H -0.3902 -0.0056 -0.1213
C7D C -0.45439(17) 0.1110(2) -0.0408(3)
H5D H -0.5089 0.0964 -0.0964
C8D C -0.44510(15) 0.19148(18) 0.0522(3)
H6D H -0.4929 0.2331 0.0591
C9D C -0.36429(13) 0.21310(15) 0.1384(3)
C10D C -0.13429(14) 0.11190(16) 0.2293(3)
O2D O -0.11662(12) 0.07173(14) 0.0921(2)
O3D O -0.09481(12) 0.10619(13) 0.3737(2)
O3F O 0.09481(12) 0.10619(13) 0.1263(2)
O3B O -0.09481(12) -0.10619(13) -0.1263(2)
H7B H -0.0461(19) 0.128(2) -0.243(4)
H7F H 0.0461(19) -0.128(2) 0.243(4)
H7D H -0.0461(19) -0.128(2) 0.257(4)
loop_
_geom_bond_atom_site_label_1
_geom_bond_atom_site_label_2
_geom_bond_site_symmetry_1
_geom_bond_site_symmetry_2
Cd1 O1 1_555 1_555
O1 H7 1_555 1_555
N1 C1 1_555 1_555
C1 H1 1_555 1_555
C2 C1 1_555 1_555
H2 C2 1_555 1_555
C3 C2 1_555 1_555
C4 C3 1_555 1_555
C5 C4 1_555 1_555
H3 C5 1_555 1_555
C6 C5 1_555 1_555
H4 C6 1_555 1_555
C7 C6 1_555 1_555
H5 C7 1_555 1_555
C8 C7 1_555 1_555
H6 C8 1_555 1_555
C9 N1 1_555 1_555
C10 C3 1_555 1_555
O2 Cd1 1_555 1_555
O3 C10 1_555 1_555
Cd1F O1 1_555 1_555
Cd1F_2 O1F 1_555 1_555
O1F Cd1 1_555 1_555
N1D C1D 1_555 1_555
C1D H1D 1_555 1_555
C2D C1D 1_555 1_555
H2D C2D 1_555 1_555
C3D C2D 1_555 1_555
C4D C3D 1_555 1_555
C5D C4D 1_555 1_555
H3D C5D 1_555 1_555
C6D C5D 1_555 1_555
H4D C6D 1_555 1_555
C7D C6D 1_555 1_555
H5D C7D 1_555 1_555
C8D C7D 1_555 1_555
H6D C8D 1_555 1_555
C9D N1D 1_555 1_555
C10D C3D 1_555 1_555
O2D Cd1 1_555 1_555
O3D Cd1F_2 1_555 1_555
O3F Cd1 1_555 1_555
O3B Cd1 1_555 1_555
H7B O1 1_555 1_555
H7F O1F 1_555 1_555
H7D O1F 1_555 1_555
C4 C9 1_555 1_555
C8 C9 1_555 1_555
C10 O2 1_555 1_555
O3 Cd1F 1_555 1_555
C4D C9D 1_555 1_555
C8D C9D 1_555 1_555
C10D O2D 1_555 1_555
C10D O3D 1_555 1_555

#END
