
#######################################################################
#
#                 Cambridge Crystallographic Data Centre
#                                CCDC 
#
#######################################################################
#
# If this CIF has been generated from an entry in the Cambridge 
# Structural Database, then it will include bibliographic, chemical, 
# crystal, experimental, refinement or atomic coordinate data resulting 
# from the CCDC's data processing and validation procedures.
#
#######################################################################

data_XUXSIT
_symmetry_cell_setting           orthorhombic
_symmetry_space_group_name_H-M   'P b c a'
_symmetry_Int_Tables_number      61
_space_group_name_Hall           '-P 2ac 2ab'
loop_
_symmetry_equiv_pos_site_id
_symmetry_equiv_pos_as_xyz
1 x,y,z
2 1/2-x,-y,1/2+z
3 -x,1/2+y,1/2-z
4 1/2+x,1/2-y,-z
5 -x,-y,-z
6 1/2+x,y,1/2-z
7 x,1/2-y,1/2+z
8 1/2-x,1/2+y,z
_cell_length_a                   14.7630(13)
_cell_length_b                   20.5969(17)
_cell_length_c                   29.110(3)
_cell_angle_alpha                90
_cell_angle_beta                 90
_cell_angle_gamma                90
_cell_volume                     8851.54
loop_
_atom_site_label
_atom_site_type_symbol
_atom_site_fract_x
_atom_site_fract_y
_atom_site_fract_z
Cu1 Cu 0.55406(4) 0.13670(3) 0.27402(2)
Cu2 Cu 0.37934(4) 0.14167(3) 0.27309(2)
Cu3 Cu 0.21472(4) 0.12436(3) 0.25440(2)
S1 S 0.46863(9) 0.22242(6) 0.23779(4)
S2 S 0.46374(9) 0.09591(6) 0.33289(4)
S3 S 0.32962(8) 0.06671(6) 0.21752(4)
S4 S 0.26032(8) 0.20805(6) 0.30459(4)
S5 S 0.09485(8) 0.06348(6) 0.28361(4)
S6 S 0.17296(8) 0.20357(6) 0.19652(4)
C1 C 0.4727(3) 0.2166(2) 0.17926(19)
C2 C 0.4853(4) 0.2714(3) 0.1507(2)
H1 H 0.4897 0.3135 0.1639
C3 C 0.4911(5) 0.2639(3) 0.1043(2)
H2 H 0.4991 0.3011 0.0855
C4 C 0.4856(5) 0.2033(3) 0.0839(2)
H3 H 0.4913 0.1985 0.0516
C5 C 0.4717(4) 0.1510(3) 0.1114(2)
H4 H 0.4661 0.1090 0.0983
C6 C 0.4658(3) 0.1554(3) 0.37460(18)
C7 C 0.4750(3) 0.2217(3) 0.3675(2)
H5 H 0.4779 0.2383 0.3371
C8 C 0.4798(4) 0.2632(3) 0.4038(2)
H6 H 0.4875 0.3084 0.3985
C9 C 0.4738(5) 0.2403(3) 0.4486(2)
H7 H 0.4773 0.2693 0.4739
C10 C 0.4629(5) 0.1763(3) 0.4552(2)
H8 H 0.4578 0.1594 0.4855
C11 C 0.3504(3) -0.0110(2) 0.23879(17)
C12 C 0.3472(3) -0.0290(2) 0.28457(18)
H9 H 0.3329 0.0024 0.3073
C13 C 0.3648(4) -0.0926(2) 0.2975(2)
H10 H 0.3629 -0.1045 0.3290
C14 C 0.3852(4) -0.1389(3) 0.2641(2)
H11 H 0.3974 -0.1826 0.2725
C15 C 0.3871(4) -0.1199(3) 0.2196(2)
H12 H 0.4008 -0.1507 0.1963
C16 C 0.2435(3) 0.1849(2) 0.36088(17)
C17 C 0.2326(4) 0.1212(2) 0.37656(18)
H13 H 0.2343 0.0862 0.3553
C18 C 0.2193(4) 0.1086(3) 0.42228(19)
H14 H 0.2120 0.0651 0.4325
C19 C 0.2166(4) 0.1595(3) 0.4540(2)
H15 H 0.2070 0.1514 0.4857
C20 C 0.2281(4) 0.2207(3) 0.43807(18)
H16 H 0.2271 0.2562 0.4589
C21 C 0.1134(3) -0.0138(2) 0.26074(17)
C22 C 0.1167(3) -0.0284(3) 0.21421(19)
H17 H 0.1029 0.0041 0.1921
C23 C 0.1398(3) -0.0897(2) 0.20019(19)
H18 H 0.1433 -0.0993 0.1683
C24 C 0.1581(4) -0.1377(2) 0.2320(2)
H19 H 0.1754 -0.1799 0.2222
C25 C 0.1509(4) -0.1235(2) 0.2775(2)
H20 H 0.1614 -0.1563 0.2998
C26 C 0.1978(3) 0.1786(2) 0.14159(17)
C27 C 0.1980(3) 0.1145(2) 0.12531(18)
H21 H 0.1837 0.0801 0.1458
C28 C 0.2183(4) 0.1005(3) 0.08047(19)
H22 H 0.2176 0.0568 0.0701
C29 C 0.2402(4) 0.1507(3) 0.0500(2)
H23 H 0.2550 0.1417 0.0189
C30 C 0.2395(4) 0.2127(3) 0.0660(2)
H24 H 0.2531 0.2477 0.0459
N1 N 0.4658(3) 0.1591(2) 0.15742(15)
H25 H 0.4568 0.1243 0.1743
N2 N 0.4593(3) 0.1355(2) 0.41850(16)
H26 H 0.4522 0.0938 0.4238
N3 N 0.3700(3) -0.05814(19) 0.20801(16)
H27 H 0.3715 -0.0477 0.1787
N4 N 0.2408(3) 0.2315(2) 0.39309(15)
H28 H 0.2479 0.2720 0.3841
N5 N 0.1288(3) -0.06286(19) 0.29093(15)
H29 H 0.1241 -0.0547 0.3205
N6 N 0.2196(3) 0.2248(2) 0.11055(15)
H30 H 0.2210 0.2654 0.1199
Cu1E Cu 0.05406(4) 0.13670(3) 0.22598(2)
S5E S 0.59485(8) 0.06348(6) 0.21639(4)
S6E S 0.67296(8) 0.20357(6) 0.30348(4)
S7 S 0.68605(10) 0.39513(6) 0.40938(5)
O1 O 0.7361(3) 0.35427(17) 0.37670(13)
O2 O 0.7483(3) 0.4364(2) 0.43564(16)
O3 O 0.6227(3) 0.4379(2) 0.38420(14)
O4 O 0.6344(3) 0.35399(17) 0.44094(12)
O5 O 0.4247(3) 1.0106(2) 0.44663(17)
H31 H 0.3801 0.9857 0.4410
H32 H 0.4696 0.9814 0.4484
O6 O 0.9256(4) 0.4317(3) 0.4627(2)
H33 H 0.9097 0.4479 0.4887
H34 H 0.8743 0.4277 0.4484
Cu4 Cu 0.0000 0.0000 0.5000
O7 O -0.0045(3) 0.10195(17) 0.50757(12)
O8 O 0.0047(3) 0.00712(17) 0.42794(13)
O9 O 0.1416(2) 0.00014(17) 0.50320(13)
H35 H 0.0431 0.1217 0.5263
H36 H -0.0470 0.1156 0.5249
H37 H 0.0565 -0.0130 0.4141
H38 H -0.0335 -0.0176 0.4146
H39 H 0.1671 -0.0243 0.4843
H40 H 0.1822 0.0231 0.5226
O7D O 0.0045(3) -0.10195(17) 0.49243(12)
O8D O -0.0047(3) -0.00712(17) 0.57206(13)
O9D O -0.1416(2) -0.00014(17) 0.49680(13)
H35D H -0.0431 -0.1217 0.4737
H36D H 0.0470 -0.1156 0.4751
H37D H -0.0565 0.0130 0.5859
H38D H 0.0335 0.0176 0.5854
H39D H -0.1671 0.0243 0.5157
H40D H -0.1822 -0.0231 0.4774
S8 S 0.79376(10) 0.09434(7) 0.58992(6)
O10 O 0.8541(3) 0.0505(2) 0.61552(14)
O11 O 0.7362(4) 0.1374(3) 0.6164(2)
O12 O 0.7363(4) 0.0557(3) 0.5566(2)
O13 O 0.8481(4) 0.1399(3) 0.5562(2)
O14? O 0.7863(7) 0.1461(4) 0.6251(3)
O15? O 0.7047(8) 0.0591(6) 0.5916(4)
O16? O 0.8272(7) 0.1071(5) 0.5495(3)
loop_
_geom_bond_atom_site_label_1
_geom_bond_atom_site_label_2
_geom_bond_site_symmetry_1
_geom_bond_site_symmetry_2
Cu1 S1 1_555 1_555
Cu2 S1 1_555 1_555
Cu3 S3 1_555 1_555
S1 C1 1_555 1_555
S2 Cu1 1_555 1_555
S3 Cu2 1_555 1_555
S4 Cu2 1_555 1_555
S5 Cu3 1_555 1_555
S6 Cu3 1_555 1_555
C1 C2 1_555 1_555
C2 H1 1_555 1_555
C3 C2 1_555 1_555
H2 C3 1_555 1_555
C4 C3 1_555 1_555
H3 C4 1_555 1_555
C5 C4 1_555 1_555
H4 C5 1_555 1_555
C6 S2 1_555 1_555
C7 C6 1_555 1_555
H5 C7 1_555 1_555
C8 C7 1_555 1_555
H6 C8 1_555 1_555
C9 C8 1_555 1_555
H7 C9 1_555 1_555
C10 C9 1_555 1_555
H8 C10 1_555 1_555
C11 S3 1_555 1_555
C12 C11 1_555 1_555
H9 C12 1_555 1_555
C13 C12 1_555 1_555
H10 C13 1_555 1_555
C14 C13 1_555 1_555
H11 C14 1_555 1_555
C15 C14 1_555 1_555
H12 C15 1_555 1_555
C16 S4 1_555 1_555
C17 C16 1_555 1_555
H13 C17 1_555 1_555
C18 C17 1_555 1_555
H14 C18 1_555 1_555
C19 C18 1_555 1_555
H15 C19 1_555 1_555
C20 C19 1_555 1_555
H16 C20 1_555 1_555
C21 S5 1_555 1_555
C22 C21 1_555 1_555
H17 C22 1_555 1_555
C23 C22 1_555 1_555
H18 C23 1_555 1_555
C24 C23 1_555 1_555
H19 C24 1_555 1_555
C25 C24 1_555 1_555
H20 C25 1_555 1_555
C26 S6 1_555 1_555
C27 C26 1_555 1_555
H21 C27 1_555 1_555
C28 C27 1_555 1_555
H22 C28 1_555 1_555
C29 C28 1_555 1_555
H23 C29 1_555 1_555
C30 C29 1_555 1_555
H24 C30 1_555 1_555
N1 C1 1_555 1_555
H25 N1 1_555 1_555
N2 C6 1_555 1_555
H26 N2 1_555 1_555
N3 C11 1_555 1_555
H27 N3 1_555 1_555
N4 C16 1_555 1_555
H28 N4 1_555 1_555
N5 C21 1_555 1_555
H29 N5 1_555 1_555
N6 C26 1_555 1_555
H30 N6 1_555 1_555
S7 O1 1_555 1_555
O2 S7 1_555 1_555
O3 S7 1_555 1_555
O4 S7 1_555 1_555
O5 H31 1_555 1_555
H32 O5 1_555 1_555
O6 H33 1_555 1_555
H34 O6 1_555 1_555
Cu4 O7 1_555 1_555
O7 H35 1_555 1_555
O8 Cu4 1_555 1_555
O9 Cu4 1_555 1_555
H36 O7 1_555 1_555
H37 O8 1_555 1_555
H38 O8 1_555 1_555
H39 O9 1_555 1_555
H40 O9 1_555 1_555
S8 O10 1_555 1_555
O11 S8 1_555 1_555
O12 S8 1_555 1_555
O13 S8 1_555 1_555
Cu1E S5 1_555 1_555
S5E Cu1 1_555 1_555
S6E Cu1 1_555 1_555
O7D Cu4 1_555 1_555
O8D Cu4 1_555 1_555
O9D Cu4 1_555 1_555
H35D O7D 1_555 1_555
H36D O7D 1_555 1_555
H37D O8D 1_555 1_555
H38D O8D 1_555 1_555
H39D O9D 1_555 1_555
H40D O9D 1_555 1_555
Cu2 S2 1_555 1_555
Cu3 S4 1_555 1_555
S6 Cu1E 1_555 1_555
C5 N1 1_555 1_555
C10 N2 1_555 1_555
C15 N3 1_555 1_555
C20 N4 1_555 1_555
C25 N5 1_555 1_555
C30 N6 1_555 1_555

#END
