
#######################################################################
#
#                 Cambridge Crystallographic Data Centre
#                                CCDC 
#
#######################################################################
#
# If this CIF has been generated from an entry in the Cambridge 
# Structural Database, then it will include bibliographic, chemical, 
# crystal, experimental, refinement or atomic coordinate data resulting 
# from the CCDC's data processing and validation procedures.
#
#######################################################################

data_XUXWIX
_symmetry_cell_setting           triclinic
_symmetry_space_group_name_H-M   'P -1'
_symmetry_Int_Tables_number      2
_space_group_name_Hall           '-P 1'
loop_
_symmetry_equiv_pos_site_id
_symmetry_equiv_pos_as_xyz
1 x,y,z
2 -x,-y,-z
_cell_length_a                   7.102(3)
_cell_length_b                   10.403(4)
_cell_length_c                   12.502(4)
_cell_angle_alpha                98.195(5)
_cell_angle_beta                 104.413(5)
_cell_angle_gamma                106.921(4)
_cell_volume                     832.517
loop_
_atom_site_label
_atom_site_type_symbol
_atom_site_fract_x
_atom_site_fract_y
_atom_site_fract_z
Ag1 Ag 0.39268(12) 0.79025(8) 0.07646(7)
Ag2 Ag 0.51423(11) 1.04612(7) -0.34220(7)
N1 N 0.7051(12) 0.8012(8) 0.0784(6)
N2 N 1.0997(11) 0.8036(7) 0.0852(7)
N3 N 1.2047(12) 1.0523(8) -0.3572(6)
N4 N 0.8139(12) 1.0532(8) -0.3611(7)
C1 C 0.8630(15) 0.9207(10) 0.0965(8)
H1 H 0.8383 1.0059 0.1067
C2 C 1.0545(15) 0.9209(10) 0.1003(8)
H2 H 1.1616 1.0069 0.1142
C3 C 0.9428(14) 0.6872(10) 0.0678(8)
H3 H 0.9657 0.6014 0.0569
C4 C 0.7505(15) 0.6881(9) 0.0654(8)
H4 H 0.6442 0.6024 0.0537
C5 C 0.3060(14) 0.5027(9) 0.2222(9)
C6 C 0.2178(14) 0.3610(9) 0.2421(9)
C7 C 0.2385(13) 0.4304(9) 0.3597(9)
C8 C 0.3192(14) 0.5600(9) 0.3364(9)
C9 C 0.2815(15) 0.6544(9) -0.1916(9)
C10 C 0.3770(14) 0.7907(9) -0.2117(9)
C11 C 0.3501(14) 0.7239(9) -0.3291(9)
C12 C 0.2563(14) 0.5914(9) -0.3089(9)
C13 C 1.1650(14) 1.1693(9) -0.3446(8)
H5 H 1.2719 1.2543 -0.3343
C14 C 0.9686(15) 1.1688(10) -0.3464(8)
H6 H 0.9443 1.2542 -0.3368
C15 C 0.8521(15) 0.9361(9) -0.3789(8)
H7 H 0.7426 0.8509 -0.3945
C16 C 1.0480(15) 0.9352(9) -0.3751(8)
H8 H 1.0715 0.8496 -0.3856
O1 O 0.2373(10) 0.6061(6) -0.1113(6)
O2 O 0.4469(10) 0.9101(7) -0.1575(6)
O3 O 0.3827(10) 0.7730(6) -0.4114(6)
O4 O 0.1771(10) 0.4655(6) -0.3673(6)
H9 H 0.2026 0.4612 -0.4296
O5 O 0.3525(10) 0.5530(6) 0.1446(6)
O6 O 0.1605(10) 0.2435(6) 0.1879(6)
O7 O 0.1959(10) 0.3837(6) 0.4423(6)
O8 O 0.3857(9) 0.6905(6) 0.3908(6)
H10 H 0.3707 0.6955 0.4557
Ag1_2 Ag 1.39268(12) 0.79025(8) 0.07646(7)
Ag2_2 Ag 1.51423(11) 1.04612(7) -0.34220(7)
N2_2 N 0.0997(11) 0.8036(7) 0.0852(7)
N3_2 N 0.2047(12) 1.0523(8) -0.3572(6)
loop_
_geom_bond_atom_site_label_1
_geom_bond_atom_site_label_2
_geom_bond_site_symmetry_1
_geom_bond_site_symmetry_2
Ag1 N1 1_555 1_555
Ag2 N4 1_555 1_555
N1 C1 1_555 1_555
N2 C2 1_555 1_555
N3 C13 1_555 1_555
N4 C14 1_555 1_555
C1 H1 1_555 1_555
C2 C1 1_555 1_555
H2 C2 1_555 1_555
C3 N2 1_555 1_555
H3 C3 1_555 1_555
C4 N1 1_555 1_555
H4 C4 1_555 1_555
C5 C6 1_555 1_555
C6 C7 1_555 1_555
C7 C8 1_555 1_555
C8 C5 1_555 1_555
C9 C10 1_555 1_555
C10 C11 1_555 1_555
C11 C12 1_555 1_555
C12 C9 1_555 1_555
C13 H5 1_555 1_555
C14 C13 1_555 1_555
H6 C14 1_555 1_555
C15 N4 1_555 1_555
H7 C15 1_555 1_555
C16 N3 1_555 1_555
H8 C16 1_555 1_555
O1 Ag1 1_555 1_555
O2 C10 1_555 1_555
O3 Ag2 1_555 1_555
O4 C12 1_555 1_555
H9 O4 1_555 1_555
O5 Ag1 1_555 1_555
O6 C6 1_555 1_555
O7 C7 1_555 1_555
O8 C8 1_555 1_555
H10 O8 1_555 1_555
Ag1_2 N2 1_555 1_555
Ag2_2 N3 1_555 1_555
N2_2 Ag1 1_555 1_555
N3_2 Ag2 1_555 1_555
C3 C4 1_555 1_555
C5 O5 1_555 1_555
C9 O1 1_555 1_555
C11 O3 1_555 1_555
C15 C16 1_555 1_555

#END
