
#######################################################################
#
#                 Cambridge Crystallographic Data Centre
#                                CCDC 
#
#######################################################################
#
# If this CIF has been generated from an entry in the Cambridge 
# Structural Database, then it will include bibliographic, chemical, 
# crystal, experimental, refinement or atomic coordinate data resulting 
# from the CCDC's data processing and validation procedures.
#
#######################################################################

data_XUXZOF
_symmetry_cell_setting           monoclinic
_symmetry_space_group_name_H-M   'P 21/c'
_symmetry_Int_Tables_number      14
_space_group_name_Hall           '-P 2ybc'
loop_
_symmetry_equiv_pos_site_id
_symmetry_equiv_pos_as_xyz
1 x,y,z
2 -x,1/2+y,1/2-z
3 -x,-y,-z
4 x,1/2-y,1/2+z
_cell_length_a                   14.608(3)
_cell_length_b                   3.8614(8)
_cell_length_c                   14.219(2)
_cell_angle_alpha                90
_cell_angle_beta                 106.43(3)
_cell_angle_gamma                90
_cell_volume                     769.305
loop_
_atom_site_label
_atom_site_type_symbol
_atom_site_fract_x
_atom_site_fract_y
_atom_site_fract_z
Cu1 Cu 1.07494(5) 0.20915(19) 0.26646(5)
Br1 Br 0.92345(4) 0.20449(13) 0.12463(3)
O1 O 1.4810(3) -0.0753(14) 0.1122(3)
O2 O 1.3890(3) 0.1830(13) -0.0196(3)
H1 H 1.4354 0.1464 -0.0398
N1 N 1.1828(3) 0.1775(11) 0.2046(3)
C1 C 1.2668(3) 0.0394(14) 0.2517(3)
H2 H 1.2756 -0.0370 0.3156
C2 C 1.3415(3) 0.0032(14) 0.2109(3)
H3 H 1.3992 -0.0938 0.2467
C3 C 1.2422(3) 0.2591(13) 0.0656(3)
H4 H 1.2316 0.3366 0.0015
C4 C 1.1718(3) 0.2862(13) 0.1128(3)
H5 H 1.1138 0.3851 0.0789
C5 C 1.3285(3) 0.1151(14) 0.1156(3)
C6 C 1.4054(3) 0.0702(15) 0.0669(4)
Br1A Br 1.07655(4) -0.29551(13) 0.37537(3)
Br1A_2 Br 1.07655(4) 0.70449(13) 0.37537(3)
Cu1A Cu 0.92506(5) 0.70915(19) 0.23354(5)
Cu1A_2 Cu 0.92506(5) -0.29085(19) 0.23354(5)
loop_
_geom_bond_atom_site_label_1
_geom_bond_atom_site_label_2
_geom_bond_site_symmetry_1
_geom_bond_site_symmetry_2
Cu1 Br1 1_555 1_555
Br1 Cu1A 1_555 1_555
O1 C6 1_555 1_555
O2 H1 1_555 1_555
N1 Cu1 1_555 1_555
C1 N1 1_555 1_555
H2 C1 1_555 1_555
C2 C1 1_555 1_555
H3 C2 1_555 1_555
C3 H4 1_555 1_555
C4 N1 1_555 1_555
H5 C4 1_555 1_555
C5 C2 1_555 1_555
C6 O2 1_555 1_555
Br1A Cu1 1_555 1_555
Br1A_2 Cu1 1_555 1_555
Cu1A Br1A_2 1_555 1_555
Cu1A_2 Br1 1_555 1_555
C3 C4 1_555 1_555
C3 C5 1_555 1_555
C5 C6 1_555 1_555
Br1A Cu1A_2 1_555 1_555

#END
