
#######################################################################
#
#                 Cambridge Crystallographic Data Centre
#                                CCDC 
#
#######################################################################
#
# If this CIF has been generated from an entry in the Cambridge 
# Structural Database, then it will include bibliographic, chemical, 
# crystal, experimental, refinement or atomic coordinate data resulting 
# from the CCDC's data processing and validation procedures.
#
#######################################################################

data_XUXZOF01
_symmetry_cell_setting           monoclinic
_symmetry_space_group_name_H-M   'P 21/c'
_symmetry_Int_Tables_number      14
_space_group_name_Hall           '-P 2ybc'
loop_
_symmetry_equiv_pos_site_id
_symmetry_equiv_pos_as_xyz
1 x,y,z
2 -x,1/2+y,1/2-z
3 -x,-y,-z
4 x,1/2-y,1/2+z
_cell_length_a                   14.5964(10)
_cell_length_b                   3.8222(3)
_cell_length_c                   14.1437(7)
_cell_angle_alpha                90
_cell_angle_beta                 106.612(4)
_cell_angle_gamma                90
_cell_volume                     756.148
loop_
_atom_site_label
_atom_site_type_symbol
_atom_site_fract_x
_atom_site_fract_y
_atom_site_fract_z
Cu1 Cu 0.42615(9) 0.2122(3) 0.73320(9)
Br1 Br 0.57601(6) 0.2092(2) 0.87799(6)
N1 N 0.3176(5) 0.185(2) 0.7948(6)
C1 C 0.3290(6) 0.275(2) 0.8867(6)
H1 H 0.3902 0.3567 0.9239
C2 C 0.2571(6) 0.261(2) 0.9333(6)
H2 H 0.2665 0.3507 0.998
C3 C 0.1714(6) 0.109(3) 0.8817(6)
C4 C 0.1588(6) -0.013(3) 0.7879(7)
H3 H 0.1005 -0.1213 0.7526
C5 C 0.2327(6) 0.024(2) 0.7454(6)
H4 H 0.2248 -0.0635 0.6807
C6 C 0.0952(6) 0.075(3) 0.9333(7)
O1 O 0.0187(5) -0.092(2) 0.8859(5)
H5 H -0.0197 -0.0985 0.9202
O2 O 0.1092(5) 0.201(2) 1.0186(5)
Cu1A Cu 0.57385(9) 0.7122(3) 0.76680(9)
Cu1A_2 Cu 0.57385(9) -0.2878(3) 0.76680(9)
Br1A Br 0.42399(6) 0.7092(2) 0.62201(6)
Br1A_2 Br 0.42399(6) -0.2908(2) 0.62201(6)
loop_
_geom_bond_atom_site_label_1
_geom_bond_atom_site_label_2
_geom_bond_site_symmetry_1
_geom_bond_site_symmetry_2
Cu1 Br1 1_555 1_555
Br1 Cu1A 1_555 1_555
N1 Cu1 1_555 1_555
C1 N1 1_555 1_555
H1 C1 1_555 1_555
C2 C1 1_555 1_555
H2 C2 1_555 1_555
C3 C2 1_555 1_555
C4 C3 1_555 1_555
H3 C4 1_555 1_555
C5 N1 1_555 1_555
H4 C5 1_555 1_555
C6 C3 1_555 1_555
O1 C6 1_555 1_555
H5 O1 1_555 1_555
O2 C6 1_555 1_555
Cu1A Br1A 1_555 1_555
Cu1A_2 Br1 1_555 1_555
Br1A Cu1 1_555 1_555
Br1A_2 Cu1 1_555 1_555
C4 C5 1_555 1_555
Cu1A_2 Br1A_2 1_555 1_555

#END
