
#######################################################################
#
#                 Cambridge Crystallographic Data Centre
#                                CCDC 
#
#######################################################################
#
# If this CIF has been generated from an entry in the Cambridge 
# Structural Database, then it will include bibliographic, chemical, 
# crystal, experimental, refinement or atomic coordinate data resulting 
# from the CCDC's data processing and validation procedures.
#
#######################################################################

data_XUYCOJ
_symmetry_cell_setting           monoclinic
_symmetry_space_group_name_H-M   'P 21/c'
_symmetry_Int_Tables_number      14
_space_group_name_Hall           '-P 2ybc'
loop_
_symmetry_equiv_pos_site_id
_symmetry_equiv_pos_as_xyz
1 x,y,z
2 x,1/2-y,1/2+z
3 -x,-y,-z
4 -x,1/2+y,1/2-z
_cell_length_a                   16.5065(13)
_cell_length_b                   9.2452(8)
_cell_length_c                   9.7468(8)
_cell_angle_alpha                90
_cell_angle_beta                 101.617(2)
_cell_angle_gamma                90
_cell_volume                     1456.95
loop_
_atom_site_label
_atom_site_type_symbol
_atom_site_fract_x
_atom_site_fract_y
_atom_site_fract_z
Cu1 Cu 0.315338(17) 0.10277(3) 0.58263(3)
O1 O 0.30421(10) 0.20301(18) 0.75710(15)
O2 O 0.35761(11) 0.20412(19) 0.98616(15)
O3 O 0.34087(10) -0.0421(2) 0.45042(16)
O4 O 0.43566(11) -0.2043(2) 0.42169(17)
N1 N 0.42724(12) 0.0536(2) 0.69059(18)
H1 H 0.4566 0.1090 0.6677
N2 N 0.19558(12) 0.1142(2) 0.4938(2)
N3 N -0.08485(15) 0.0578(3) 0.1828(3)
C1 C 0.42901(14) 0.0703(3) 0.8418(2)
H2 H 0.4237 -0.0238 0.8833
H3 H 0.4814 0.1121 0.8876
C2 C 0.35849(14) 0.1675(3) 0.8637(2)
C3 C 0.45042(15) -0.0898(3) 0.6446(2)
H4 H 0.5099 -0.0946 0.6522
H5 H 0.4346 -0.1642 0.7043
C4 C 0.40701(14) -0.1157(3) 0.4933(2)
C5 C 0.14212(16) 0.1881(3) 0.5528(3)
H6 H 0.1617 0.2358 0.6369
C6 C 0.05879(16) 0.1964(3) 0.4939(3)
H7 H 0.0239 0.2498 0.5385
C7 C 0.02681(15) 0.1265(3) 0.3696(3)
C8 C 0.08249(17) 0.0503(3) 0.3102(3)
H8 H 0.0643 0.0004 0.2268
C9 C 0.16520(17) 0.0474(3) 0.3733(3)
H9 H 0.2015 -0.0037 0.3296
C10 C -0.06280(16) 0.1298(3) 0.3041(3)
C11 C -0.1658(2) 0.0607(4) 0.1218(4)
H10 H -0.1824 0.0097 0.0386
C12 C -0.22490(18) 0.1332(3) 0.1737(3)
H11 H -0.2797 0.1348 0.1259
C13 C -0.20120(19) 0.2031(4) 0.2977(4)
H12 H -0.2400 0.2520 0.3374
C14 C -0.11904(17) 0.2012(3) 0.3648(3)
H13 H -0.1022 0.2481 0.4502
O2A O 0.35761(11) 0.29588(19) 0.48616(15)
Cu1A Cu 0.315338(17) 0.39723(3) 1.08263(3)
O5 O 0.34748(16) 0.5563(3) 0.6430(2)
H14 H 0.3537 0.5577 0.7205
H15 H 0.3539 0.4773 0.6183
loop_
_geom_bond_atom_site_label_1
_geom_bond_atom_site_label_2
_geom_bond_site_symmetry_1
_geom_bond_site_symmetry_2
Cu1 O1 1_555 1_555
O1 C2 1_555 1_555
O2 C2 1_555 1_555
O3 Cu1 1_555 1_555
O4 C4 1_555 1_555
N1 Cu1 1_555 1_555
H1 N1 1_555 1_555
N2 Cu1 1_555 1_555
N3 C10 1_555 1_555
C1 N1 1_555 1_555
H2 C1 1_555 1_555
H3 C1 1_555 1_555
C2 C1 1_555 1_555
C3 N1 1_555 1_555
H4 C3 1_555 1_555
H5 C3 1_555 1_555
C4 O3 1_555 1_555
C5 N2 1_555 1_555
H6 C5 1_555 1_555
C6 C5 1_555 1_555
H7 C6 1_555 1_555
C7 C6 1_555 1_555
C8 C7 1_555 1_555
H8 C8 1_555 1_555
C9 N2 1_555 1_555
H9 C9 1_555 1_555
C10 C7 1_555 1_555
C11 N3 1_555 1_555
H10 C11 1_555 1_555
C12 C11 1_555 1_555
H11 C12 1_555 1_555
C13 C12 1_555 1_555
H12 C13 1_555 1_555
C14 C10 1_555 1_555
H13 C14 1_555 1_555
O5 H14 1_555 1_555
H15 O5 1_555 1_555
O2A Cu1 1_555 1_555
Cu1A O2 1_555 1_555
C3 C4 1_555 1_555
C8 C9 1_555 1_555
C13 C14 1_555 1_555

#END
