
#######################################################################
#
#                 Cambridge Crystallographic Data Centre
#                                CCDC 
#
#######################################################################
#
# If this CIF has been generated from an entry in the Cambridge 
# Structural Database, then it will include bibliographic, chemical, 
# crystal, experimental, refinement or atomic coordinate data resulting 
# from the CCDC's data processing and validation procedures.
#
#######################################################################

data_XUYDEB
_symmetry_cell_setting           triclinic
_symmetry_space_group_name_H-M   'P -1'
_symmetry_Int_Tables_number      2
_space_group_name_Hall           '-P 1'
loop_
_symmetry_equiv_pos_site_id
_symmetry_equiv_pos_as_xyz
1 x,y,z
2 -x,-y,-z
_cell_length_a                   8.4002(16)
_cell_length_b                   9.5154(18)
_cell_length_c                   12.741(2)
_cell_angle_alpha                89.012(3)
_cell_angle_beta                 87.485(3)
_cell_angle_gamma                68.959(3)
_cell_volume                     949.584
loop_
_atom_site_label
_atom_site_type_symbol
_atom_site_fract_x
_atom_site_fract_y
_atom_site_fract_z
Cd1 Cd 0.0000 -0.5000 -0.5000
N1 N 0.2144(3) 0.2802(2) -0.02824(16)
N2 N 0.2648(2) -0.10309(19) 0.03716(12)
N3 N 0.2330(2) -0.20393(18) -0.02685(12)
N4 N 0.1853(2) 0.00801(17) -0.11388(11)
N5 N 0.0744(2) -0.36583(18) -0.36994(13)
N6 N 0.0650(2) 0.29955(17) -0.37319(12)
N7 N -0.2798(2) -0.4062(2) -0.43686(15)
N8 N -0.5717(3) -0.2348(4) -0.4416(2)
N9 N -0.7158(5) -0.1168(4) -0.5963(3)
C1 C 0.2431(4) 0.3983(3) 0.0101(2)
H3 H 0.2082 0.4874 -0.0283
C2 C 0.3206(3) 0.3959(3) 0.1024(2)
H4 H 0.3390 0.4807 0.1258
C3 C 0.3701(3) 0.2661(3) 0.15926(19)
H5 H 0.4218 0.2612 0.2230
C4 C 0.3431(3) 0.1419(3) 0.12175(17)
H6 H 0.3763 0.0521 0.1594
C5 C 0.2659(3) 0.1541(2) 0.02743(15)
C6 C 0.2368(2) 0.0226(2) -0.01513(14)
C7 C 0.1869(2) -0.1367(2) -0.11676(14)
C8 C 0.1467(2) -0.2109(2) -0.20662(14)
C9 C 0.0147(3) -0.1396(2) -0.27253(16)
H7 H -0.0519 -0.0385 -0.2632
C10 C -0.0161(3) -0.2209(2) -0.35194(17)
H8 H -0.1052 -0.1720 -0.3957
C11 C 0.2034(3) -0.4331(2) -0.30696(17)
H9 H 0.2697 -0.5336 -0.3192
C12 C 0.2426(3) -0.3610(2) -0.22522(16)
H10 H 0.3327 -0.4124 -0.1828
C13 C 0.1461(2) 0.1120(2) -0.20067(13)
C14 C 0.2532(3) 0.0817(2) -0.28815(15)
H11 H 0.3539 -0.0019 -0.2906
C15 C 0.2075(3) 0.1787(2) -0.37263(15)
H12 H -0.2802 -0.1585 -0.5678
C16 C 0.0380(3) -0.3255(2) -0.71249(16)
H13 H 0.1390 -0.4087 -0.7128
C17 C -0.0026(3) 0.2354(2) -0.19925(15)
H14 H -0.0772 0.2574 -0.1406
C18 C -0.4155(3) -0.3286(3) -0.44455(17)
C19 C -0.6443(4) -0.1772(4) -0.5268(3)
Cd1_2 Cd 0.0000 0.5000 -0.5000
N1A N -0.2144(3) -0.2802(2) -0.97176(16)
N2A N -0.2648(2) 0.10309(19) -1.03716(12)
N3A N -0.2330(2) 0.20393(18) -0.97315(12)
N4A N -0.1853(2) -0.00801(17) -0.88612(11)
N5A N -0.0744(2) 0.36583(18) -0.63006(13)
N5A_2 N -0.0744(2) -0.63417(18) -0.63006(13)
N6_2 N 0.0650(2) -0.70045(17) -0.37319(12)
N6A N -0.0650(2) -0.29955(17) -0.62681(12)
N7A N 0.2798(2) -0.5938(2) -0.56314(15)
N8A N 0.5717(3) -0.7652(4) -0.5584(2)
N9A N 0.7158(5) -0.8832(4) -0.4037(3)
C1A C -0.2431(4) -0.3983(3) -1.0101(2)
H3A H -0.2082 -0.4874 -0.9717
C2A C -0.3206(3) -0.3959(3) -1.1024(2)
H4A H -0.3390 -0.4807 -1.1258
C3A C -0.3701(3) -0.2661(3) -1.15926(19)
H5A H -0.4218 -0.2612 -1.2230
C4A C -0.3431(3) -0.1419(3) -1.12175(17)
H6A H -0.3763 -0.0521 -1.1594
C5A C -0.2659(3) -0.1541(2) -1.02743(15)
C6A C -0.2368(2) -0.0226(2) -0.98487(14)
C7A C -0.1869(2) 0.1367(2) -0.88324(14)
C8A C -0.1467(2) 0.2109(2) -0.79338(14)
C9A C -0.0147(3) 0.1396(2) -0.72747(16)
H7A H 0.0519 0.0385 -0.7368
C10A C 0.0161(3) 0.2209(2) -0.64806(17)
H8A H 0.1052 0.1720 -0.6043
C11A C -0.2034(3) 0.4331(2) -0.69304(17)
H9A H -0.2697 0.5336 -0.6808
C12A C -0.2426(3) 0.3610(2) -0.77478(16)
H10A H -0.3327 0.4124 -0.8172
C13A C -0.1461(2) -0.1120(2) -0.79933(13)
C14A C -0.2532(3) -0.0817(2) -0.71185(15)
H11A H -0.3539 0.0019 -0.7094
C15A C -0.2075(3) -0.1787(2) -0.62737(15)
H12A H 0.2802 0.1585 -0.4322
C16A C -0.0380(3) 0.3255(2) -0.28751(16)
H13A H -0.1390 0.4087 -0.2872
C17A C 0.0026(3) -0.2354(2) -0.80075(15)
H14A H 0.0772 -0.2574 -0.8594
C18A C 0.4155(3) -0.6714(3) -0.55545(17)
C19A C 0.6443(4) -0.8228(4) -0.4732(3)
O1 O 0.4396(3) -0.3100(2) -0.78819(17)
H1 H 0.4244 -0.2612 -0.8457
H2 H 0.4099 -0.2561 -0.7331
loop_
_geom_bond_atom_site_label_1
_geom_bond_atom_site_label_2
_geom_bond_site_symmetry_1
_geom_bond_site_symmetry_2
Cd1 N5 1_555 1_555
O1 H1 1_555 1_555
H2 O1 1_555 1_555
N1 C1 1_555 1_555
N2 N3 1_555 1_555
N3 C7 1_555 1_555
N4 C6 1_555 1_555
N5 C10 1_555 1_555
N6 C15 1_555 1_555
N7 Cd1 1_555 1_555
N8 C18 1_555 1_555
N9 C19 1_555 1_555
C1 H3 1_555 1_555
C2 C1 1_555 1_555
H4 C2 1_555 1_555
C3 C2 1_555 1_555
H5 C3 1_555 1_555
C4 C3 1_555 1_555
H6 C4 1_555 1_555
C5 N1 1_555 1_555
C6 N2 1_555 1_555
C7 N4 1_555 1_555
C8 C7 1_555 1_555
C9 C8 1_555 1_555
H7 C9 1_555 1_555
C10 C9 1_555 1_555
H8 C10 1_555 1_555
C11 N5 1_555 1_555
H9 C11 1_555 1_555
C12 C8 1_555 1_555
H10 C12 1_555 1_555
C13 N4 1_555 1_555
C14 C13 1_555 1_555
H11 C14 1_555 1_555
C15 C14 1_555 1_555
H12 C15A 1_555 1_555
C16 H13 1_555 1_555
C17 C13 1_555 1_555
H14 C17 1_555 1_555
C18 N7 1_555 1_555
C19 N8 1_555 1_555
Cd1_2 N6 1_555 1_555
N1A C1A 1_555 1_555
N2A N3A 1_555 1_555
N3A C7A 1_555 1_555
N4A C6A 1_555 1_555
N5A Cd1_2 1_555 1_555
N5A_2 Cd1 1_555 1_555
N6_2 Cd1 1_555 1_555
N6A Cd1 1_555 1_555
N7A Cd1 1_555 1_555
N8A C18A 1_555 1_555
N9A C19A 1_555 1_555
C1A H3A 1_555 1_555
C2A C1A 1_555 1_555
H4A C2A 1_555 1_555
C3A C2A 1_555 1_555
H5A C3A 1_555 1_555
C4A C3A 1_555 1_555
H6A C4A 1_555 1_555
C5A N1A 1_555 1_555
C6A N2A 1_555 1_555
C7A N4A 1_555 1_555
C8A C7A 1_555 1_555
C9A C8A 1_555 1_555
H7A C9A 1_555 1_555
C10A N5A 1_555 1_555
H8A C10A 1_555 1_555
C11A N5A 1_555 1_555
H9A C11A 1_555 1_555
C12A C8A 1_555 1_555
H10A C12A 1_555 1_555
C13A N4A 1_555 1_555
C14A C13A 1_555 1_555
H11A C14A 1_555 1_555
C15A N6A 1_555 1_555
H12A C15 1_555 1_555
C16A N6 1_555 1_555
H13A C16A 1_555 1_555
C17A C16 1_555 1_555
H14A C17A 1_555 1_555
C18A N7A 1_555 1_555
C19A N8A 1_555 1_555
C4 C5 1_555 1_555
C5 C6 1_555 1_555
C11 C12 1_555 1_555
C16 N6A 1_555 1_555
C17 C16A 1_555 1_555
C4A C5A 1_555 1_555
C5A C6A 1_555 1_555
C9A C10A 1_555 1_555
C11A C12A 1_555 1_555
C13A C17A 1_555 1_555
C14A C15A 1_555 1_555

#END
