
#######################################################################
#
#                 Cambridge Crystallographic Data Centre
#                                CCDC 
#
#######################################################################
#
# If this CIF has been generated from an entry in the Cambridge 
# Structural Database, then it will include bibliographic, chemical, 
# crystal, experimental, refinement or atomic coordinate data resulting 
# from the CCDC's data processing and validation procedures.
#
#######################################################################

data_XUYDUR
_symmetry_cell_setting           orthorhombic
_symmetry_space_group_name_H-M   'P n n m'
_symmetry_Int_Tables_number      58
_space_group_name_Hall           '-P 2 2n'
loop_
_symmetry_equiv_pos_site_id
_symmetry_equiv_pos_as_xyz
1 x,y,z
2 -x,-y,z
3 1/2-x,1/2+y,1/2-z
4 1/2+x,1/2-y,1/2-z
5 -x,-y,-z
6 x,y,-z
7 1/2+x,1/2-y,1/2+z
8 1/2-x,1/2+y,1/2+z
_cell_length_a                   20.530(2)
_cell_length_b                   15.5957(14)
_cell_length_c                   16.3846(15)
_cell_angle_alpha                90
_cell_angle_beta                 90
_cell_angle_gamma                90
_cell_volume                     5246.02
loop_
_atom_site_label
_atom_site_type_symbol
_atom_site_fract_x
_atom_site_fract_y
_atom_site_fract_z
Cd1 Cd -0.09075(3) -0.04495(3) 1.29630(3)
Cd2 Cd -0.19438(3) -0.22276(4) 1.20612(4)
Cd3 Cd 0.0000 0.0000 1.0000
N1 N -0.1489(3) 0.0776(4) 1.2816(4)
N2 N -0.2219(3) 0.1853(4) 1.2816(4)
N3 N -0.1010(3) -0.0667(4) 1.4319(4)
N4 N -0.1849(3) -0.2009(4) 1.0684(4)
N5 N -0.1145(4) -0.3305(5) 1.2044(5)
N6 N -0.0329(7) 0.1427(9) 1.0000
N7 N -0.2174(10) 0.5253(12) 1.0000
H1 H -0.2397 0.5720 1.0000
O1 O -0.2026(3) 0.3597(4) 1.2866(4)
O2 O -0.0959(3) 0.3452(4) 1.2847(5)
H2 H -0.0692 0.3061 1.2831
O3 O -0.0163(3) 0.0824(4) 1.2888(4)
O4 O -0.0152(3) 0.2255(4) 1.2848(5)
O5 O -0.1612(3) -0.1644(4) 1.3222(4)
O6 O -0.1891(4) -0.2640(5) 1.4102(4)
O7 O -0.1270(3) -0.1040(4) 1.1792(4)
O8 O -0.0781(3) -0.0212(4) 1.0921(4)
C1 C -0.2116(4) 0.1000(5) 1.2801(6)
H3 H -0.2453 0.0602 1.2782
C2 C -0.1611(4) 0.2195(5) 1.2831(5)
C3 C -0.1164(4) 0.1544(5) 1.2835(5)
C4 C -0.1544(4) 0.3133(6) 1.2850(6)
C5 C -0.0439(4) 0.1545(5) 1.2863(6)
C6 C -0.0817(6) -0.0271(8) 1.5000
H4 H -0.0572 0.0231 1.5000
C7 C -0.1351(4) -0.1381(5) 1.4582(5)
C8 C -0.1643(4) -0.1942(6) 1.3945(5)
C9 C -0.2070(6) -0.2377(7) 1.0000
H5 H -0.2350 -0.2845 1.0000
C10 C -0.1452(4) -0.1349(5) 1.0419(5)
C11 C -0.1136(4) -0.0830(5) 1.1068(5)
C12 C -0.0797(6) -0.3484(8) 1.1387(8)
H6 H -0.0859 -0.3155 1.0919
C13 C -0.0345(7) -0.4143(9) 1.1369(8)
H7 H -0.0111 -0.4249 1.0893
C14 C -0.0237(5) -0.4644(6) 1.2049(6)
C15 C -0.0584(5) -0.4435(6) 1.2722(7)
H8 H -0.0523 -0.4742 1.3203
C16 C -0.1027(6) -0.3769(7) 1.2702(7)
H9 H -0.1255 -0.3641 1.3178
C17 C -0.0473(7) 0.1822(8) 1.0676(8)
H10 H -0.0341 0.1579 1.1168
C18 C -0.0809(7) 0.2577(9) 1.0696(8)
H11 H -0.0889 0.2830 1.1201
C19 C -0.1038(10) 0.2986(11) 1.0000
C20 C -0.1772(16) 0.509(2) 0.9389(19)
H12 H -0.1731 0.5478 0.8961
C21 C -0.1405(17) 0.4342(19) 0.9380(19)
H13 H -0.1131 0.4235 0.8939
C22 C -0.1427(10) 0.3762(12) 1.0000
Cd1E Cd -0.09075(3) -0.04495(3) 0.70370(3)
Cd1A Cd 0.09075(3) 0.04495(3) 1.29630(3)
Cd1D Cd 0.09075(3) 0.04495(3) 0.70370(3)
Cd1E_2 Cd -0.09075(3) -0.04495(3) 1.70370(3)
Cd1B Cd -0.40925(3) -0.54495(3) 1.20370(3)
Cd1C Cd -0.59075(3) -0.45505(3) 1.20370(3)
Cd1_2 Cd -0.09075(3) -0.04495(3) 0.29630(3)
Cd2E Cd -0.19438(3) -0.22276(4) 0.79388(4)
Cd2A Cd 0.19438(3) 0.22276(4) 1.20612(4)
Cd2D Cd 0.19438(3) 0.22276(4) 0.79388(4)
Cd2B Cd -0.30562(3) 0.27724(4) 1.29388(4)
Cd2E_2 Cd -0.19438(3) -0.22276(4) 1.79388(4)
Cd2A_2 Cd 0.19438(3) -0.77724(4) 1.20612(4)
Cd2C Cd 0.30562(3) -0.27724(4) 1.29388(4)
Cd2G Cd -0.30562(3) 0.27724(4) 0.70612(4)
Cd2_2 Cd -0.19438(3) -0.22276(4) 0.20612(4)
Cd2D_2 Cd 0.19438(3) -0.77724(4) 0.79388(4)
N1A N 0.1489(3) -0.0776(4) 1.2816(4)
N1B N -0.3511(3) -0.4224(4) 1.2184(4)
N1E N -0.1489(3) 0.0776(4) 0.7184(4)
N1D N 0.1489(3) -0.0776(4) 0.7184(4)
N2A N 0.2219(3) -0.1853(4) 1.2816(4)
N2B N -0.2781(3) -0.3147(4) 1.2184(4)
N2E N -0.2219(3) 0.1853(4) 0.7184(4)
N2G N -0.2781(3) -0.3147(4) 0.7816(4)
N2C N 0.2781(3) 0.3147(4) 1.2184(4)
N2F N 0.2781(3) 0.3147(4) 0.7816(4)
N3E N -0.1010(3) -0.0667(4) 1.5681(4)
N3E_2 N -0.1010(3) -0.0667(4) 0.5681(4)
N3_2 N -0.1010(3) -0.0667(4) 0.4319(4)
N3A N 0.1010(3) 0.0667(4) 1.4319(4)
N3D N 0.1010(3) 0.0667(4) 0.5681(4)
N4E N -0.1849(3) -0.2009(4) 0.9316(4)
N4A N 0.1849(3) 0.2009(4) 1.0684(4)
N4D N 0.1849(3) 0.2009(4) 0.9316(4)
N5A N 0.1145(4) -0.6695(5) 1.2044(5)
N5E N -0.1145(4) -0.3305(5) 0.7956(5)
N5D N 0.1145(4) -0.6695(5) 0.7956(5)
N5A_2 N 0.1145(4) 0.3305(5) 1.2044(5)
N5D_2 N 0.1145(4) 0.3305(5) 0.7956(5)
N6A N 0.0329(7) -0.1427(9) 1.0000
N7A N 0.2174(10) -0.5253(12) 1.0000
H1A H 0.2397 -0.5720 1.0000
O1A O 0.2026(3) -0.3597(4) 1.2866(4)
O1B O -0.2974(3) -0.1403(4) 1.2134(4)
O1E O -0.2026(3) 0.3597(4) 0.7134(4)
O1G O -0.2974(3) -0.1403(4) 0.7866(4)
O1C O 0.2974(3) 0.1403(4) 1.2134(4)
O1F O 0.2974(3) 0.1403(4) 0.7866(4)
O2A O 0.0959(3) -0.3452(4) 1.2847(5)
O2B O -0.4041(3) -0.1548(4) 1.2153(5)
O2E O -0.0959(3) 0.3452(4) 0.7153(5)
H2A H 0.0692 -0.3061 1.2831
H2B H -0.4308 -0.1939 1.2169
H2E H -0.0692 0.3061 0.7169
O3A O 0.0163(3) -0.0824(4) 1.2888(4)
O3B O -0.4837(3) -0.4176(4) 1.2112(4)
O3E O -0.0163(3) 0.0824(4) 0.7112(4)
O3D O 0.0163(3) -0.0824(4) 0.7112(4)
O4A O 0.0152(3) -0.2255(4) 1.2848(5)
O4B O -0.4848(3) -0.2745(4) 1.2152(5)
O4E O -0.0152(3) 0.2255(4) 0.7152(5)
O5E O -0.1612(3) -0.1644(4) 1.6778(4)
O5E_2 O -0.1612(3) -0.1644(4) 0.6778(4)
O5_2 O -0.1612(3) -0.1644(4) 0.3222(4)
O5A O 0.1612(3) 0.1644(4) 1.3222(4)
O5D O 0.1612(3) 0.1644(4) 0.6778(4)
O6E O -0.1891(4) -0.2640(5) 1.5898(4)
O6E_2 O -0.1891(4) -0.2640(5) 0.5898(4)
O6_2 O -0.1891(4) -0.2640(5) 0.4102(4)
O7E O -0.1270(3) -0.1040(4) 0.8208(4)
O7A O 0.1270(3) 0.1040(4) 1.1792(4)
O7D O 0.1270(3) 0.1040(4) 0.8208(4)
O8E O -0.0781(3) -0.0212(4) 0.9079(4)
O8A O 0.0781(3) 0.0212(4) 1.0921(4)
O8D O 0.0781(3) 0.0212(4) 0.9079(4)
C1A C 0.2116(4) -0.1000(5) 1.2801(6)
C1B C -0.2884(4) -0.4000(5) 1.2199(6)
C1E C -0.2116(4) 0.1000(5) 0.7199(6)
H3A H 0.2453 -0.0602 1.2782
H3B H -0.2547 -0.4398 1.2218
H3E H -0.2453 0.0602 0.7218
C2A C 0.1611(4) -0.2195(5) 1.2831(5)
C2B C -0.3389(4) -0.2805(5) 1.2169(5)
C2E C -0.1611(4) 0.2195(5) 0.7169(5)
C3A C 0.1164(4) -0.1544(5) 1.2835(5)
C3B C -0.3836(4) -0.3456(5) 1.2165(5)
C3E C -0.1164(4) 0.1544(5) 0.7165(5)
C4A C 0.1544(4) -0.3133(6) 1.2850(6)
C4B C -0.3456(4) -0.1867(6) 1.2150(6)
C4E C -0.1544(4) 0.3133(6) 0.7150(6)
C5A C 0.0439(4) -0.1545(5) 1.2863(6)
C5B C -0.4561(4) -0.3455(5) 1.2137(6)
C5E C -0.0439(4) 0.1545(5) 0.7137(6)
C6_2 C -0.0817(6) -0.0271(8) 0.5000
H4_2 H -0.0572 0.0231 0.5000
C7E C -0.1351(4) -0.1381(5) 1.5418(5)
C7E_2 C -0.1351(4) -0.1381(5) 0.5418(5)
C7_2 C -0.1351(4) -0.1381(5) 0.4582(5)
C8E C -0.1643(4) -0.1942(6) 1.6055(5)
C8E_2 C -0.1643(4) -0.1942(6) 0.6055(5)
C8_2 C -0.1643(4) -0.1942(6) 0.3945(5)
C9A C 0.2070(6) 0.2377(7) 1.0000
H5A H 0.2350 0.2845 1.0000
C10E C -0.1452(4) -0.1349(5) 0.9581(5)
C10A C 0.1452(4) 0.1349(5) 1.0419(5)
C10D C 0.1452(4) 0.1349(5) 0.9581(5)
C11E C -0.1136(4) -0.0830(5) 0.8932(5)
C11A C 0.1136(4) 0.0830(5) 1.1068(5)
C11D C 0.1136(4) 0.0830(5) 0.8932(5)
C12A C 0.0797(6) -0.6516(8) 1.1387(8)
C12E C -0.0797(6) -0.3484(8) 0.8613(8)
C12D C 0.0797(6) -0.6516(8) 0.8613(8)
H6A H 0.0859 -0.6845 1.0919
H6E H -0.0859 -0.3155 0.9081
H6D H 0.0859 -0.6845 0.9081
C13A C 0.0345(7) -0.5857(9) 1.1369(8)
C13E C -0.0345(7) -0.4143(9) 0.8631(8)
C13D C 0.0345(7) -0.5857(9) 0.8631(8)
H7A H 0.0111 -0.5751 1.0893
H7E H -0.0111 -0.4249 0.9107
H7D H 0.0111 -0.5751 0.9107
C14A C 0.0237(5) -0.5356(6) 1.2049(6)
C14E C -0.0237(5) -0.4644(6) 0.7951(6)
C14D C 0.0237(5) -0.5356(6) 0.7951(6)
C15A C 0.0584(5) -0.5565(6) 1.2722(7)
C15E C -0.0584(5) -0.4435(6) 0.7278(7)
C15D C 0.0584(5) -0.5565(6) 0.7278(7)
H8A H 0.0523 -0.5258 1.3203
H8E H -0.0523 -0.4742 0.6797
H8D H 0.0523 -0.5258 0.6797
C16A C 0.1027(6) -0.6231(7) 1.2702(7)
C16E C -0.1027(6) -0.3769(7) 0.7298(7)
C16D C 0.1027(6) -0.6231(7) 0.7298(7)
H9A H 0.1255 -0.6359 1.3178
H9E H -0.1255 -0.3641 0.6822
H9D H 0.1255 -0.6359 0.6822
C17E C -0.0473(7) 0.1822(8) 0.9324(8)
C17A C 0.0473(7) -0.1822(8) 1.0676(8)
C17D C 0.0473(7) -0.1822(8) 0.9324(8)
H10E H -0.0341 0.1579 0.8832
H10A H 0.0341 -0.1579 1.1168
H10D H 0.0341 -0.1579 0.8832
C18E C -0.0809(7) 0.2577(9) 0.9304(8)
C18A C 0.0809(7) -0.2577(9) 1.0696(8)
C18D C 0.0809(7) -0.2577(9) 0.9304(8)
H11E H -0.0889 0.2830 0.8799
H11A H 0.0889 -0.2830 1.1201
H11D H 0.0889 -0.2830 0.8799
C19A C 0.1038(10) -0.2986(11) 1.0000
C20E C -0.1772(16) 0.509(2) 1.0611(19)
C20A C 0.1772(16) -0.509(2) 0.9389(19)
C20D C 0.1772(16) -0.509(2) 1.0611(19)
H12E H -0.1731 0.5478 1.1039
H12A H 0.1731 -0.5478 0.8961
H12D H 0.1731 -0.5478 1.1039
C21E C -0.1405(17) 0.4342(19) 1.0620(19)
C21A C 0.1405(17) -0.4342(19) 0.9380(19)
C21D C 0.1405(17) -0.4342(19) 1.0620(19)
H13E H -0.1131 0.4235 1.1061
H13A H 0.1131 -0.4235 0.8939
H13D H 0.1131 -0.4235 1.1061
C22A C 0.1427(10) -0.3762(12) 1.0000
N8 N 0.459(2) 0.156(3) 0.0000
O9 O 0.466(2) 0.292(3) 0.0000
C25 C 0.427(4) 0.230(4) 0.0000
H16 H 0.3815 0.2355 0.0000
C26 C 0.5309(19) 0.155(2) 0.0000
C27 C 0.4210(16) 0.075(2) 0.0000
N9 N 0.2295(11) 0.4045(11) 0.5000
C28 C 0.2278(13) 0.4551(15) 0.5765(14)
H23 H 0.2317 0.4140 0.6206
H24 H 0.2676 0.4887 0.5771
C29 C 0.1732(15) 0.5166(18) 0.6012(18)
H25 H 0.1341 0.5018 0.5724
H26 H 0.1657 0.5122 0.6589
H27 H 0.1855 0.5743 0.5878
C30 C 0.2989(16) 0.374(2) 0.5000
C28E C 0.2278(13) 0.4551(15) 0.4235(14)
H23E H 0.2317 0.4140 0.3794
H24E H 0.2676 0.4887 0.4229
C29E C 0.1732(15) 0.5166(18) 0.3988(18)
H25E H 0.1341 0.5018 0.4276
H26E H 0.1657 0.5122 0.3411
H27E H 0.1855 0.5743 0.4122
C23? C -0.1852(16) 0.3959(19) 1.0603(19)
H14? H -0.1891 0.3606 1.1057
C24? C -0.2231(17) 0.4702(19) 1.055(2)
H15? H -0.2550 0.4784 1.0945
H17? H 0.5467 0.1903 0.0438
H18? H 0.5466 0.1772 -0.0510
H19? H 0.5461 0.0975 -0.0072
H20? H 0.4496 0.0279 -0.0103
H21? H 0.3883 0.0779 -0.0418
H22? H 0.4004 0.0680 0.0522
H28? H 0.3005 0.3157 0.5187
H29? H 0.3243 0.4095 0.5356
H30? H 0.3161 0.3772 0.4456
H31? H 0.4480 0.2828 0.0000
O10? O 0.366(3) 0.215(4) 0.0000
loop_
_geom_bond_atom_site_label_1
_geom_bond_atom_site_label_2
_geom_bond_site_symmetry_1
_geom_bond_site_symmetry_2
Cd1 N1 1_555 1_555
Cd2 N4 1_555 1_555
Cd3 N6 1_555 1_555
N1 C1 1_555 1_555
N2 C1 1_555 1_555
N3 Cd1 1_555 1_555
N4 C9 1_555 1_555
N5 Cd2 1_555 1_555
N6 C17 1_555 1_555
N7 H1 1_555 1_555
N8 C25 1_555 1_555
N9 C28 1_555 1_555
O1 C4 1_555 1_555
O2 H2 1_555 1_555
O3 Cd1 1_555 1_555
O4 C5 1_555 1_555
O5 Cd1 1_555 1_555
O6 C8 1_555 1_555
O7 Cd1 1_555 1_555
O8 Cd3 1_555 1_555
O9 C25 1_555 1_555
C1 H3 1_555 1_555
C2 N2 1_555 1_555
C3 N1 1_555 1_555
C4 O2 1_555 1_555
C5 O3 1_555 1_555
C6 N3 1_555 1_555
H4 C6 1_555 1_555
C7 N3 1_555 1_555
C8 O5 1_555 1_555
C9 H5 1_555 1_555
C10 N4 1_555 1_555
C11 O7 1_555 1_555
C12 N5 1_555 1_555
H6 C12 1_555 1_555
C13 C12 1_555 1_555
H7 C13 1_555 1_555
C14 C13 1_555 1_555
C15 C14 1_555 1_555
H8 C15 1_555 1_555
C16 N5 1_555 1_555
H9 C16 1_555 1_555
C17 H10 1_555 1_555
C18 C17 1_555 1_555
H11 C18 1_555 1_555
C19 C18 1_555 1_555
C20 N7 1_555 1_555
H12 C20 1_555 1_555
C21 C20 1_555 1_555
H13 C21 1_555 1_555
C22 C19 1_555 1_555
C25 H16 1_555 1_555
C26 N8 1_555 1_555
C27 N8 1_555 1_555
C28 H23 1_555 1_555
H24 C28 1_555 1_555
C29 C28 1_555 1_555
H25 C29 1_555 1_555
H26 C29 1_555 1_555
H27 C29 1_555 1_555
C30 N9 1_555 1_555
Cd1E N1E 1_555 1_555
Cd1A O3 1_555 1_555
Cd1D N1D 1_555 1_555
Cd1E_2 N3E 1_555 1_555
Cd1B N1B 1_555 1_555
Cd1C O3B 1_555 1_555
Cd1_2 N3_2 1_555 1_555
Cd2E N2G 1_555 1_555
Cd2A N2C 1_555 1_555
Cd2D N2F 1_555 1_555
Cd2B N2 1_555 1_555
Cd2E_2 O5E 1_555 1_555
Cd2A_2 N5A 1_555 1_555
Cd2C N2A 1_555 1_555
Cd2G N2E 1_555 1_555
Cd2_2 O5_2 1_555 1_555
Cd2D_2 N5D 1_555 1_555
N1A Cd1A 1_555 1_555
N1B C1B 1_555 1_555
N1E C1E 1_555 1_555
N2A C1A 1_555 1_555
N2B Cd2 1_555 1_555
N2E C1E 1_555 1_555
N3E C6 1_555 1_555
N3E_2 Cd1E 1_555 1_555
N3_2 C6_2 1_555 1_555
N3A Cd1A 1_555 1_555
N3D Cd1D 1_555 1_555
N4E C9 1_555 1_555
N4A Cd2A 1_555 1_555
N4D Cd2D 1_555 1_555
N5A C12A 1_555 1_555
N5E Cd2E 1_555 1_555
N5D C12D 1_555 1_555
N5A_2 Cd2A 1_555 1_555
N5D_2 Cd2D 1_555 1_555
N6A Cd3 1_555 1_555
N7A H1A 1_555 1_555
O1A Cd2C 1_555 1_555
O1B Cd2 1_555 1_555
O1E Cd2G 1_555 1_555
O1G Cd2E 1_555 1_555
O1C Cd2A 1_555 1_555
O1F Cd2D 1_555 1_555
O2A H2A 1_555 1_555
O2B H2B 1_555 1_555
O2E H2E 1_555 1_555
O3A Cd1 1_555 1_555
O3B Cd1B 1_555 1_555
O3E Cd1E 1_555 1_555
O3D Cd1E 1_555 1_555
O4A C5A 1_555 1_555
O4B C5B 1_555 1_555
O4E C5E 1_555 1_555
O5E Cd1E_2 1_555 1_555
O5E_2 Cd1E 1_555 1_555
O5_2 Cd1_2 1_555 1_555
O5A Cd1A 1_555 1_555
O5D Cd1D 1_555 1_555
O6E C8E 1_555 1_555
O6E_2 C8E_2 1_555 1_555
O6_2 C8_2 1_555 1_555
O7E Cd1E 1_555 1_555
O7A Cd1A 1_555 1_555
O7D Cd1D 1_555 1_555
O8E Cd3 1_555 1_555
O8A Cd3 1_555 1_555
O8D Cd3 1_555 1_555
C1A N1A 1_555 1_555
C1B N2B 1_555 1_555
C1E H3E 1_555 1_555
H3A C1A 1_555 1_555
H3B C1B 1_555 1_555
C2A N2A 1_555 1_555
C2B N2B 1_555 1_555
C2E N2E 1_555 1_555
C3A N1A 1_555 1_555
C3B N1B 1_555 1_555
C3E N1E 1_555 1_555
C4A O1A 1_555 1_555
C4B O1B 1_555 1_555
C4E O1E 1_555 1_555
C5A O3A 1_555 1_555
C5B O3B 1_555 1_555
C5E O3E 1_555 1_555
C6_2 N3E_2 1_555 1_555
H4_2 C6_2 1_555 1_555
C7E C7 1_555 1_555
C7E_2 N3E_2 1_555 1_555
C7_2 N3_2 1_555 1_555
C8E O5E 1_555 1_555
C8E_2 O5E_2 1_555 1_555
C8_2 O5_2 1_555 1_555
C9A N4A 1_555 1_555
H5A C9A 1_555 1_555
C10E C10 1_555 1_555
C10A N4A 1_555 1_555
C10D N4D 1_555 1_555
C11E O7E 1_555 1_555
C11A O7A 1_555 1_555
C11D O7D 1_555 1_555
C12A H6A 1_555 1_555
C12E N5E 1_555 1_555
C12D H6D 1_555 1_555
H6E C12E 1_555 1_555
C13A C12A 1_555 1_555
C13E C12E 1_555 1_555
C13D C12D 1_555 1_555
H7A C13A 1_555 1_555
H7E C13E 1_555 1_555
H7D C13D 1_555 1_555
C14A C14 1_555 1_555
C14E C13E 1_555 1_555
C14D C13D 1_555 1_555
C15A C14A 1_555 1_555
C15E C14E 1_555 1_555
C15D C14D 1_555 1_555
H8A C15A 1_555 1_555
H8E C15E 1_555 1_555
H8D C15D 1_555 1_555
C16A N5A 1_555 1_555
C16E N5E 1_555 1_555
C16D N5D 1_555 1_555
H9A C16A 1_555 1_555
H9E C16E 1_555 1_555
H9D C16D 1_555 1_555
C17E N6 1_555 1_555
C17A N6A 1_555 1_555
C17D N6A 1_555 1_555
H10E C17E 1_555 1_555
H10A C17A 1_555 1_555
H10D C17D 1_555 1_555
C18E C19 1_555 1_555
C18A C17A 1_555 1_555
C18D C17D 1_555 1_555
H11E C18E 1_555 1_555
H11A C18A 1_555 1_555
H11D C18D 1_555 1_555
C19A C18A 1_555 1_555
C20E N7 1_555 1_555
C20A N7A 1_555 1_555
C20D N7A 1_555 1_555
H12E C20E 1_555 1_555
H12A C20A 1_555 1_555
H12D C20D 1_555 1_555
C21E C22 1_555 1_555
C21A C20A 1_555 1_555
C21D C20D 1_555 1_555
H13E C21E 1_555 1_555
H13A C21A 1_555 1_555
H13D C21D 1_555 1_555
C22A C19A 1_555 1_555
C28E N9 1_555 1_555
H23E C28E 1_555 1_555
H24E C28E 1_555 1_555
C29E C28E 1_555 1_555
H25E C29E 1_555 1_555
H26E C29E 1_555 1_555
H27E C29E 1_555 1_555
Cd2 O5 1_555 1_555
Cd2 O7 1_555 1_555
O1 Cd2B 1_555 1_555
O8 C11 1_555 1_555
C2 C3 1_555 1_555
C2 C4 1_555 1_555
C3 C5 1_555 1_555
C7 C8 1_555 1_555
C10 C11 1_555 1_555
C15 C16 1_555 1_555
C21 C22 1_555 1_555
Cd1A O3A 1_555 1_555
Cd1D O3E 1_555 1_555
Cd1D O3D 1_555 1_555
Cd2E N4E 1_555 1_555
Cd2E O5E_2 1_555 1_555
Cd2E O7E 1_555 1_555
Cd2A O5A 1_555 1_555
Cd2A O7A 1_555 1_555
Cd2D O5D 1_555 1_555
Cd2D O7D 1_555 1_555
N3E C7E 1_555 1_555
N4E C10E 1_555 1_555
N4D C9A 1_555 1_555
O2A C4A 1_555 1_555
O2B C4B 1_555 1_555
O2E C4E 1_555 1_555
O8E C11E 1_555 1_555
O8A C11A 1_555 1_555
O8D C11D 1_555 1_555
C2A C3A 1_555 1_555
C2A C4A 1_555 1_555
C2B C3B 1_555 1_555
C2B C4B 1_555 1_555
C2E C3E 1_555 1_555
C2E C4E 1_555 1_555
C3A C5A 1_555 1_555
C3B C5B 1_555 1_555
C3E C5E 1_555 1_555
C7E C8E 1_555 1_555
C7E_2 C7_2 1_555 1_555
C7E_2 C8E_2 1_555 1_555
C7_2 C8_2 1_555 1_555
C10E C11E 1_555 1_555
C10A C10D 1_555 1_555
C10A C11A 1_555 1_555
C10D C11D 1_555 1_555
C13A C14A 1_555 1_555
C14E C14D 1_555 1_555
C15A C16A 1_555 1_555
C15E C16E 1_555 1_555
C15D C16D 1_555 1_555
C17E C18E 1_555 1_555
C18D C19A 1_555 1_555
C20E C21E 1_555 1_555
C21A C22A 1_555 1_555
C21D C22A 1_555 1_555

#END
