
#######################################################################
#
#                 Cambridge Crystallographic Data Centre
#                                CCDC 
#
#######################################################################
#
# If this CIF has been generated from an entry in the Cambridge 
# Structural Database, then it will include bibliographic, chemical, 
# crystal, experimental, refinement or atomic coordinate data resulting 
# from the CCDC's data processing and validation procedures.
#
#######################################################################

data_XUYGON
_symmetry_cell_setting           orthorhombic
_symmetry_space_group_name_H-M   'P b c a'
_symmetry_Int_Tables_number      61
_space_group_name_Hall           '-P 2ac 2ab'
loop_
_symmetry_equiv_pos_site_id
_symmetry_equiv_pos_as_xyz
1 x,y,z
2 1/2+x,y,1/2-z
3 x,1/2-y,1/2+z
4 1/2-x,1/2+y,z
5 -x,-y,-z
6 1/2-x,-y,1/2+z
7 -x,1/2+y,1/2-z
8 1/2+x,1/2-y,-z
_cell_length_a                   13.652(4)
_cell_length_b                   16.345(4)
_cell_length_c                   18.734(6)
_cell_angle_alpha                90
_cell_angle_beta                 90
_cell_angle_gamma                90
_cell_volume                     4180.34
loop_
_atom_site_label
_atom_site_type_symbol
_atom_site_fract_x
_atom_site_fract_y
_atom_site_fract_z
Zn1 Zn 0.20533(5) 0.12351(4) 0.43564(3)
O1 O 0.1357(3) 0.1921(3) 0.5056(2)
O2 O 0.2491(3) 0.1637(3) 0.5860(2)
O3 O -0.1470(3) 0.4337(3) 0.6667(3)
O4 O -0.1553(3) 0.3535(3) 0.5711(2)
O5 O 0.1190(3) 0.3758(3) 0.8499(2)
O6 O 0.2000(4) 0.2597(3) 0.8345(2)
N1 N 0.1831(4) 0.0044(3) 0.4696(3)
C1 C 0.2303(5) -0.0575(4) 0.4386(4)
H1 H 0.2753 -0.0454 0.4028
C2 C 0.2161(7) -0.1390(4) 0.4568(5)
H2 H 0.2527 -0.1801 0.4352
C3 C 0.1465(6) -0.1576(5) 0.5075(5)
H3 H 0.1329 -0.2117 0.5192
C4 C 0.0968(6) -0.0936(5) 0.5411(5)
H4 H 0.0505 -0.1043 0.5763
C5 C 0.1178(6) -0.0130(5) 0.5208(4)
H5 H 0.0856 0.0298 0.5436
C6 C 0.1726(5) 0.1982(4) 0.5678(3)
C7 C 0.1179(4) 0.2516(4) 0.6197(3)
C8 C 0.1533(4) 0.2591(4) 0.6895(3)
H6 H 0.2108 0.2326 0.7030
C9 C 0.1015(4) 0.3068(4) 0.7389(3)
C10 C -0.1158(4) 0.3783(4) 0.6282(4)
C11 C -0.0205(4) 0.3367(4) 0.6494(3)
C12 C 0.0299(4) 0.2896(3) 0.5996(3)
H7 H 0.0056 0.2835 0.5535
C13 C 0.0153(4) 0.3463(4) 0.7197(3)
H8 H -0.0182 0.3786 0.7524
C14 C 0.1438(5) 0.3134(4) 0.8128(3)
O4G O 0.3447(3) 0.1465(3) 0.4289(2)
O5B O 0.1190(3) 0.1242(3) 0.3499(2)
Zn1G Zn -0.29467(5) 0.37649(4) 0.56436(3)
Zn1B Zn 0.20533(5) 0.37649(4) 0.93564(3)
N2 N 0.3716(5) 0.0907(5) 0.6828(4)
C15 C 0.3952(7) 0.1390(5) 0.7489(5)
H9 H 0.3352 0.1513 0.7745
H10 H 0.4259 0.1903 0.7357
C16 C 0.4638(8) 0.0905(6) 0.7971(6)
H11 H 0.4789 0.1222 0.8388
H12 H 0.5231 0.0783 0.7717
H13 H 0.4326 0.0404 0.8112
C17 C 0.4441(14) 0.0567(11) 0.6370(8)
H14 H 0.4135 0.0176 0.6050
H15 H 0.4923 0.0277 0.6654
C18 C 0.4926(9) 0.1201(11) 0.5954(11)
H16 H 0.5429 0.0958 0.5665
H17 H 0.5213 0.1596 0.6270
H18 H 0.4456 0.1467 0.5651
C19 C 0.3060(12) 0.0154(8) 0.7106(11)
H19 H 0.3517 -0.0288 0.7200
H20 H 0.2807 0.0322 0.7568
C20 C 0.2412(12) -0.0141(13) 0.6813(10)
H21 H 0.2147 -0.0575 0.7099
H22 H 0.2631 -0.0357 0.6364
H23 H 0.1915 0.0264 0.6731
H24 H 0.3079 0.1162 0.6671
loop_
_geom_bond_atom_site_label_1
_geom_bond_atom_site_label_2
_geom_bond_site_symmetry_1
_geom_bond_site_symmetry_2
Zn1 O1 1_555 1_555
O1 C6 1_555 1_555
O2 C6 1_555 1_555
O3 C10 1_555 1_555
O4 C10 1_555 1_555
O5 C14 1_555 1_555
O6 C14 1_555 1_555
N1 Zn1 1_555 1_555
N2 C15 1_555 1_555
C1 N1 1_555 1_555
H1 C1 1_555 1_555
C2 C1 1_555 1_555
H2 C2 1_555 1_555
C3 C2 1_555 1_555
H3 C3 1_555 1_555
C4 C3 1_555 1_555
H4 C4 1_555 1_555
C5 N1 1_555 1_555
H5 C5 1_555 1_555
C6 C7 1_555 1_555
C7 C8 1_555 1_555
C8 H6 1_555 1_555
C9 C8 1_555 1_555
C10 C11 1_555 1_555
C11 C12 1_555 1_555
C12 C7 1_555 1_555
H7 C12 1_555 1_555
C13 C9 1_555 1_555
H8 C13 1_555 1_555
C14 C9 1_555 1_555
C15 H9 1_555 1_555
H10 C15 1_555 1_555
C16 C15 1_555 1_555
H11 C16 1_555 1_555
H12 C16 1_555 1_555
H13 C16 1_555 1_555
C17 N2 1_555 1_555
H14 C17 1_555 1_555
H15 C17 1_555 1_555
C18 C17 1_555 1_555
H16 C18 1_555 1_555
H17 C18 1_555 1_555
H18 C18 1_555 1_555
C19 N2 1_555 1_555
H19 C19 1_555 1_555
H20 C19 1_555 1_555
C20 C19 1_555 1_555
H21 C20 1_555 1_555
H22 C20 1_555 1_555
H23 C20 1_555 1_555
H24 N2 1_555 1_555
O4G Zn1 1_555 1_555
O5B Zn1 1_555 1_555
Zn1G O4 1_555 1_555
Zn1B O5 1_555 1_555
C4 C5 1_555 1_555
C11 C13 1_555 1_555

#END
