
#######################################################################
#
#                 Cambridge Crystallographic Data Centre
#                                CCDC 
#
#######################################################################
#
# If this CIF has been generated from an entry in the Cambridge 
# Structural Database, then it will include bibliographic, chemical, 
# crystal, experimental, refinement or atomic coordinate data resulting 
# from the CCDC's data processing and validation procedures.
#
#######################################################################

data_XUYHEE
_symmetry_cell_setting           monoclinic
_symmetry_space_group_name_H-M   'P 21/c'
_symmetry_Int_Tables_number      14
_space_group_name_Hall           '-P 2ybc'
loop_
_symmetry_equiv_pos_site_id
_symmetry_equiv_pos_as_xyz
1 x,y,z
2 x,1/2-y,1/2+z
3 -x,-y,-z
4 -x,1/2+y,1/2-z
_cell_length_a                   15.715(3)
_cell_length_b                   9.9748(19)
_cell_length_c                   15.005(3)
_cell_angle_alpha                90
_cell_angle_beta                 99.631(13)
_cell_angle_gamma                90
_cell_volume                     2318.94
loop_
_atom_site_label
_atom_site_type_symbol
_atom_site_fract_x
_atom_site_fract_y
_atom_site_fract_z
Ni1 Ni 0.5000 0.5000 1.0000
Ni2 Ni 0.0000 0.0000 0.5000
N1 N 0.5262(3) 0.6622(4) 0.9229(3)
H1 H 0.5729 0.7044 0.9548
N2 N 0.4054(3) 0.6240(5) 1.0382(3)
H2 H 0.3545 0.5999 1.0035
N3 N 0.2473(3) 0.2353(5) 0.7590(3)
N4 N -0.0734(3) 0.0294(5) 0.6019(3)
H3 H -0.0379 0.0683 0.6489
N5 N -0.0553(3) 0.1797(5) 0.4470(3)
H4 H -0.0986 0.1574 0.4012
O1 O 0.4071(3) 0.4392(4) 0.8887(3)
O2 O 0.3405(3) 0.2588(5) 0.9300(3)
O3 O 0.1367(3) 0.0225(5) 0.7082(3)
O4 O 0.1014(3) 0.1114(4) 0.5715(3)
C1 C 0.5496(4) 0.6257(6) 0.8346(4)
H5 H 0.5640 0.7064 0.8042
H6 H 0.5002 0.5845 0.7972
C2 C 0.4535(4) 0.7563(6) 0.9172(4)
H7 H 0.4055 0.7219 0.8729
C3 C 0.4753(5) 0.8988(7) 0.8889(5)
H8 H 0.4929 0.8958 0.8307
H9 H 0.5213 0.9347 0.9326
H10 H 0.4252 0.9549 0.8859
C4 C 0.4251(4) 0.7609(6) 1.0095(4)
H11 H 0.4707 0.7997 1.0535
H12 H 0.3743 0.8170 1.0063
C5 C 0.3922(4) 0.6143(6) 1.1329(4)
H13 H 0.4458 0.6425 1.1716
C6 C 0.3188(5) 0.7027(8) 1.1554(5)
H14 H 0.3299 0.7945 1.1420
H15 H 0.3154 0.6940 1.2184
H16 H 0.2652 0.6748 1.1198
C7 C 0.6251(4) 0.5301(6) 0.8441(4)
H17 H 0.6478 0.5308 0.7878
H18 H 0.6701 0.5646 0.8908
C8 C 0.3522(4) 0.3436(6) 0.8748(4)
C9 C 0.3037(3) 0.3386(5) 0.7788(4)
C10 C 0.3154(4) 0.4331(6) 0.7163(4)
H19 H 0.3527 0.5046 0.7328
C11 C 0.2718(4) 0.4232(7) 0.6283(4)
H20 H 0.2801 0.4860 0.5847
C12 C 0.2159(4) 0.3173(6) 0.6075(4)
H21 H 0.1860 0.3069 0.5490
C13 C 0.2045(3) 0.2272(5) 0.6735(4)
C14 C 0.1427(3) 0.1084(6) 0.6522(4)
C15 C -0.1077(4) -0.0921(6) 0.6374(4)
H22 H -0.1521 -0.1291 0.5913
H23 H -0.1347 -0.0679 0.6887
C16 C -0.1391(4) 0.1291(6) 0.5678(5)
H24 H -0.1817 0.0844 0.5223
C17 C -0.1883(5) 0.1888(8) 0.6381(5)
H25 H -0.2144 0.1179 0.6673
H26 H -0.2323 0.2482 0.6088
H27 H -0.1490 0.2376 0.6822
C18 C -0.0963(4) 0.2385(7) 0.5187(4)
H28 H -0.1393 0.3034 0.4928
H29 H -0.0532 0.2849 0.5616
C19 C 0.0040(4) 0.2715(6) 0.4077(4)
H30 H 0.0523 0.2939 0.4556
C20 C -0.0414(5) 0.4032(7) 0.3737(5)
H31 H -0.0628 0.4465 0.4227
H32 H -0.0887 0.3840 0.3261
H33 H -0.0011 0.4613 0.3513
C21 C -0.0405(4) -0.1998(7) 0.6669(5)
H34 H 0.0071 -0.1590 0.7073
H35 H -0.0659 -0.2664 0.7014
C5B C 0.6078(4) 0.3857(6) 0.8671(4)
N2B N 0.5946(3) 0.3760(5) 0.9618(3)
H2B H 0.6455 0.4001 0.9965
C4B C 0.5749(4) 0.2391(6) 0.9905(4)
C2B C 0.5465(4) 0.2437(6) 1.0828(4)
N1B N 0.4738(3) 0.3378(4) 1.0771(3)
H1B H 0.4271 0.2956 1.0452
C1B C 0.4504(4) 0.3743(6) 1.1654(4)
H5B H 0.4360 0.2936 1.1958
H6B H 0.4998 0.4155 1.2028
C7B C 0.3749(4) 0.4699(6) 1.1559(4)
H17B H 0.3522 0.4692 1.2122
H18B H 0.3299 0.4354 1.1092
H7B H 0.5945 0.2781 1.1271
C3B C 0.5247(5) 0.1012(7) 1.1111(5)
H8B H 0.5071 0.1042 1.1693
H9B H 0.4787 0.0653 1.0674
H10B H 0.5748 0.0451 1.1141
H11B H 0.5293 0.2003 0.9465
H12B H 0.6257 0.1830 0.9937
H13B H 0.5542 0.3575 0.8284
C6B C 0.6812(5) 0.2973(8) 0.8446(5)
H14B H 0.6701 0.2055 0.8580
H15B H 0.6846 0.3060 0.7816
H16B H 0.7348 0.3252 0.8802
C19B C -0.0040(4) -0.2715(6) 0.5923(4)
N5B N 0.0553(3) -0.1797(5) 0.5530(3)
H4B H 0.0986 -0.1574 0.5988
C18B C 0.0963(4) -0.2385(7) 0.4813(4)
C16B C 0.1391(4) -0.1291(6) 0.4322(5)
N4B N 0.0734(3) -0.0294(5) 0.3981(3)
H3B H 0.0379 -0.0683 0.3511
C15B C 0.1077(4) 0.0921(6) 0.3626(4)
H22B H 0.1521 0.1291 0.4087
H23B H 0.1347 0.0679 0.3113
C21B C 0.0405(4) 0.1998(7) 0.3331(5)
H34B H -0.0071 0.1590 0.2927
H35B H 0.0659 0.2664 0.2986
H24B H 0.1817 -0.0844 0.4777
C17B C 0.1883(5) -0.1888(8) 0.3619(5)
H25B H 0.2144 -0.1179 0.3327
H26B H 0.2323 -0.2482 0.3912
H27B H 0.1490 -0.2376 0.3178
H28B H 0.1393 -0.3034 0.5072
H29B H 0.0532 -0.2849 0.4384
H30B H -0.0523 -0.2939 0.5444
C20B C 0.0414(5) -0.4032(7) 0.6263(5)
H31B H 0.0628 -0.4465 0.5773
H32B H 0.0887 -0.3840 0.6739
H33B H 0.0011 -0.4613 0.6487
N3B N 0.7527(3) 0.7647(5) 1.2410(3)
O1B O 0.5929(3) 0.5608(4) 1.1113(3)
O2B O 0.6595(3) 0.7412(5) 1.0700(3)
O3B O 0.8633(3) 0.9775(5) 1.2918(3)
O4B O 0.8986(3) 0.8886(4) 1.4285(3)
C8B C 0.6478(4) 0.6564(6) 1.1252(4)
C9B C 0.6963(3) 0.6614(5) 1.2212(4)
C10B C 0.6846(4) 0.5669(6) 1.2837(4)
H19B H 0.6473 0.4954 1.2672
C11B C 0.7282(4) 0.5768(7) 1.3717(4)
H20B H 0.7199 0.5140 1.4153
C12B C 0.7841(4) 0.6827(6) 1.3925(4)
H21B H 0.8140 0.6931 1.4510
C13B C 0.7955(3) 0.7728(5) 1.3265(4)
C14B C 0.8573(3) 0.8916(6) 1.3478(4)
O4B_2 O -0.1014(3) -0.1114(4) 0.4285(3)
Ni2_2 Ni 1.0000 1.0000 1.5000
O5 O 0.2366(5) 0.0192(6) 0.8987(4)
loop_
_geom_bond_atom_site_label_1
_geom_bond_atom_site_label_2
_geom_bond_site_symmetry_1
_geom_bond_site_symmetry_2
Ni1 N1 1_555 1_555
Ni2 N4 1_555 1_555
N1 H1 1_555 1_555
N2 Ni1 1_555 1_555
H2 N2 1_555 1_555
N3 C9 1_555 1_555
N4 H3 1_555 1_555
N5 Ni2 1_555 1_555
H4 N5 1_555 1_555
O1 Ni1 1_555 1_555
O2 C8 1_555 1_555
O3 C14 1_555 1_555
O4 Ni2 1_555 1_555
C1 N1 1_555 1_555
H5 C1 1_555 1_555
H6 C1 1_555 1_555
C2 N1 1_555 1_555
H7 C2 1_555 1_555
C3 C2 1_555 1_555
H8 C3 1_555 1_555
H9 C3 1_555 1_555
H10 C3 1_555 1_555
C4 N2 1_555 1_555
H11 C4 1_555 1_555
H12 C4 1_555 1_555
C5 N2 1_555 1_555
H13 C5 1_555 1_555
C6 C5 1_555 1_555
H14 C6 1_555 1_555
H15 C6 1_555 1_555
H16 C6 1_555 1_555
C7 C1 1_555 1_555
H17 C7 1_555 1_555
H18 C7 1_555 1_555
C8 O1 1_555 1_555
C9 C8 1_555 1_555
C10 C9 1_555 1_555
H19 C10 1_555 1_555
C11 C10 1_555 1_555
H20 C11 1_555 1_555
C12 C11 1_555 1_555
H21 C12 1_555 1_555
C13 N3 1_555 1_555
C14 O4 1_555 1_555
C15 N4 1_555 1_555
H22 C15 1_555 1_555
H23 C15 1_555 1_555
C16 N4 1_555 1_555
H24 C16 1_555 1_555
C17 C16 1_555 1_555
H25 C17 1_555 1_555
H26 C17 1_555 1_555
H27 C17 1_555 1_555
C18 N5 1_555 1_555
H28 C18 1_555 1_555
H29 C18 1_555 1_555
C19 N5 1_555 1_555
H30 C19 1_555 1_555
C20 C19 1_555 1_555
H31 C20 1_555 1_555
H32 C20 1_555 1_555
H33 C20 1_555 1_555
C21 C15 1_555 1_555
H34 C21 1_555 1_555
H35 C21 1_555 1_555
C5B C7 1_555 1_555
N2B Ni1 1_555 1_555
H2B N2B 1_555 1_555
C4B N2B 1_555 1_555
C2B C4B 1_555 1_555
N1B Ni1 1_555 1_555
H1B N1B 1_555 1_555
C1B N1B 1_555 1_555
H5B C1B 1_555 1_555
H6B C1B 1_555 1_555
C7B C5 1_555 1_555
H17B C7B 1_555 1_555
H18B C7B 1_555 1_555
H7B C2B 1_555 1_555
C3B C2B 1_555 1_555
H8B C3B 1_555 1_555
H9B C3B 1_555 1_555
H10B C3B 1_555 1_555
H11B C4B 1_555 1_555
H12B C4B 1_555 1_555
H13B C5B 1_555 1_555
C6B C5B 1_555 1_555
H14B C6B 1_555 1_555
H15B C6B 1_555 1_555
H16B C6B 1_555 1_555
C19B C21 1_555 1_555
N5B Ni2 1_555 1_555
H4B N5B 1_555 1_555
C18B N5B 1_555 1_555
C16B C18B 1_555 1_555
N4B Ni2 1_555 1_555
H3B N4B 1_555 1_555
C15B N4B 1_555 1_555
H22B C15B 1_555 1_555
H23B C15B 1_555 1_555
C21B C19 1_555 1_555
H34B C21B 1_555 1_555
H35B C21B 1_555 1_555
H24B C16B 1_555 1_555
C17B C16B 1_555 1_555
H25B C17B 1_555 1_555
H26B C17B 1_555 1_555
H27B C17B 1_555 1_555
H28B C18B 1_555 1_555
H29B C18B 1_555 1_555
H30B C19B 1_555 1_555
C20B C19B 1_555 1_555
H31B C20B 1_555 1_555
H32B C20B 1_555 1_555
H33B C20B 1_555 1_555
N3B C9B 1_555 1_555
O1B Ni1 1_555 1_555
O2B C8B 1_555 1_555
O3B C14B 1_555 1_555
O4B C14B 1_555 1_555
C8B O1B 1_555 1_555
C9B C8B 1_555 1_555
C10B C9B 1_555 1_555
H19B C10B 1_555 1_555
C11B C10B 1_555 1_555
H20B C11B 1_555 1_555
C12B C11B 1_555 1_555
H21B C12B 1_555 1_555
C13B N3B 1_555 1_555
C14B C13B 1_555 1_555
O4B_2 Ni2 1_555 1_555
Ni2_2 O4B 1_555 1_555
C2 C4 1_555 1_555
C12 C13 1_555 1_555
C13 C14 1_555 1_555
C16 C18 1_555 1_555
C5B N2B 1_555 1_555
C2B N1B 1_555 1_555
C1B C7B 1_555 1_555
C19B N5B 1_555 1_555
C16B N4B 1_555 1_555
C15B C21B 1_555 1_555
C12B C13B 1_555 1_555

#END
