
#######################################################################
#
#                 Cambridge Crystallographic Data Centre
#                                CCDC 
#
#######################################################################
#
# If this CIF has been generated from an entry in the Cambridge 
# Structural Database, then it will include bibliographic, chemical, 
# crystal, experimental, refinement or atomic coordinate data resulting 
# from the CCDC's data processing and validation procedures.
#
#######################################################################

data_XUYKOS
_symmetry_cell_setting           monoclinic
_symmetry_space_group_name_H-M   'C 2/c'
_symmetry_Int_Tables_number      15
_space_group_name_Hall           '-C 2yn'
loop_
_symmetry_equiv_pos_site_id
_symmetry_equiv_pos_as_xyz
1 x,y,z
2 -x,y,1/2-z
3 1/2+x,1/2+y,z
4 1/2-x,1/2+y,1/2-z
5 -x,-y,-z
6 x,-y,1/2+z
7 1/2-x,1/2-y,-z
8 1/2+x,1/2-y,1/2+z
_cell_length_a                   27.6611(18)
_cell_length_b                   10.8856(7)
_cell_length_c                   20.7761(14)
_cell_angle_alpha                90
_cell_angle_beta                 110.6930(10)
_cell_angle_gamma                90
_cell_volume                     5852.26
loop_
_atom_site_label
_atom_site_type_symbol
_atom_site_fract_x
_atom_site_fract_y
_atom_site_fract_z
Ag1 Ag 0.982340(19) 1.45004(7) 1.16383(3)
Nd1 Nd 0.551320(9) 0.62610(2) 0.968920(12)
C1 C 0.5915(2) 0.8712(4) 0.9917(3)
C2 C 0.60873(19) 1.0018(5) 1.0080(3)
C3 C 0.6604(2) 1.0331(5) 1.0352(3)
H1 H 0.6856 0.9720 1.0472
C4 C 0.67469(19) 1.1562(5) 1.0447(3)
C5 C 0.6370(2) 1.2473(5) 1.0246(3)
H2 H 0.6464 1.3297 1.0285
C6 C 0.58518(19) 1.2147(4) 0.9988(3)
C7 C 0.57076(19) 1.0925(5) 0.9917(3)
H3 H 0.5360 1.0709 0.9762
C8 C 0.54443(19) 1.3121(5) 0.9724(3)
C9 C 0.7477(2) 1.2884(6) 1.1085(3)
C10 C 0.8040(2) 1.3168(5) 1.1253(3)
C11 C 0.8427(2) 1.2310(6) 1.1351(3)
H4 H 0.8349 1.1476 1.1306
C12 C 0.8929(2) 1.2703(7) 1.1516(3)
H5 H 0.9187 1.2114 1.1593
C13 C 0.8692(2) 1.4704(6) 1.1478(3)
H6 H 0.8780 1.5532 1.1516
C14 C 0.8186(2) 1.4395(6) 1.1329(3)
H7 H 0.7940 1.5005 1.1279
C15 C 1.4038(2) 1.3845(5) 1.1387(3)
C16 C 1.38049(19) 1.4036(5) 1.1930(3)
C17 C 1.41216(19) 1.4256(5) 1.2611(3)
H8 H 1.4479 1.4185 1.2743
C18 C 1.38987(18) 1.4581(5) 1.3090(2)
C19 C 1.33674(19) 1.4692(5) 1.2899(2)
H9 H 1.3222 1.4940 1.3219
C20 C 1.30541(18) 1.4428(5) 1.2228(3)
C21 C 1.3274(2) 1.4094(5) 1.1747(3)
H10 H 1.3063 1.3909 1.1299
C22 C 1.42201(18) 1.4809(5) 1.3830(3)
C23 C 1.2239(2) 1.5271(6) 1.2244(3)
C24 C 1.1664(2) 1.5045(5) 1.2010(3)
C25 C 1.1338(2) 1.6047(6) 1.1915(3)
H11 H 1.1471 1.6840 1.1963
C26 C 1.0816(2) 1.5860(7) 1.1751(3)
H12 H 1.0600 1.6539 1.1680
C27 C 1.0924(2) 1.3771(6) 1.1765(3)
H13 H 1.0782 1.2987 1.1708
C28 C 1.1452(2) 1.3888(6) 1.1924(3)
H14 H 1.1659 1.3197 1.1973
N1 N 1.06089(18) 1.4738(6) 1.1689(3)
N2 N 1.25068(16) 1.4436(5) 1.2022(2)
H15 H 1.2336 1.3878 1.1741
N3 N 0.90652(19) 1.3882(5) 1.1572(3)
N4 N 0.72829(16) 1.1874(4) 1.0702(2)
H16 H 0.7495 1.1392 1.0606
O1 O 0.55201(15) 0.8502(3) 0.9399(2)
O2 O 0.61615(14) 0.7860(3) 1.03018(19)
O3 O 0.49908(14) 1.2870(4) 0.9689(2)
O4 O 0.55829(15) 1.4107(4) 0.9537(2)
O5 O 0.72222(18) 1.3584(6) 1.1290(3)
O6 O 1.45172(15) 1.3677(4) 1.1555(2)
O7 O 1.37510(14) 1.3886(4) 1.07634(19)
O8 O 1.46549(14) 1.4288(4) 1.40600(19)
O9 O 1.40379(14) 1.5483(4) 1.41726(19)
O10 O 1.24301(16) 1.6150(4) 1.2611(2)
Nd1D Nd 0.448680(9) 1.37390(2) 1.031080(12)
Nd1_2 Nd 0.551320(9) 1.62610(2) 0.968920(12)
Nd1D_2 Nd 1.448680(9) 1.37390(2) 1.031080(12)
Nd1E Nd 1.551320(9) 1.37390(2) 1.468920(12)
Nd1A Nd 1.448680(9) 1.62610(2) 1.531080(12)
O3D O 0.50092(14) 0.7130(4) 1.0311(2)
O4_2 O 0.55829(15) 0.4107(4) 0.9537(2)
O6D O 0.54828(15) 0.6323(4) 0.8445(2)
O7D O 0.62490(14) 0.6114(4) 0.92366(19)
O8E O 0.46549(14) 0.5712(4) 0.90600(19)
O9A O 0.59621(14) 0.5483(4) 1.08274(19)
O11 O 0.78126(18) 1.0133(5) 0.0131(2)
H17 H 0.8108 0.9812 0.0332
H18 H 0.7597 0.9558 -0.0037
O12 O 0.78258(17) 0.7653(5) 0.8893(2)
H19 H 0.7798 0.8030 0.8523
H20 H 0.8137 0.7513 0.9148
O13 O 0.5000 0.8277(6) 0.7500
H21 H 0.5204 0.7695 0.7496
H21A H 0.4796 0.7695 0.7504
O14 O 0.2193(6) 0.6833(10) 0.4646(8)
H23 H 0.2253 0.7579 0.4580
H24 H 0.1886 0.6640 0.4400
H22? H 0.4970 0.8134 0.7886
loop_
_geom_bond_atom_site_label_1
_geom_bond_atom_site_label_2
_geom_bond_site_symmetry_1
_geom_bond_site_symmetry_2
Ag1 N1 1_555 1_555
Nd1 O1 1_555 1_555
C1 C2 1_555 1_555
C2 C3 1_555 1_555
C3 H1 1_555 1_555
C4 C3 1_555 1_555
C5 C4 1_555 1_555
H2 C5 1_555 1_555
C6 C5 1_555 1_555
C7 C2 1_555 1_555
H3 C7 1_555 1_555
C8 C6 1_555 1_555
C9 C10 1_555 1_555
C10 C11 1_555 1_555
C11 H4 1_555 1_555
C12 C11 1_555 1_555
H5 C12 1_555 1_555
C13 H6 1_555 1_555
C14 C10 1_555 1_555
H7 C14 1_555 1_555
C15 C16 1_555 1_555
C16 C17 1_555 1_555
C17 H8 1_555 1_555
C18 C17 1_555 1_555
C19 C18 1_555 1_555
H9 C19 1_555 1_555
C20 C19 1_555 1_555
C21 C16 1_555 1_555
H10 C21 1_555 1_555
C22 C18 1_555 1_555
C23 C24 1_555 1_555
C24 C25 1_555 1_555
C25 H11 1_555 1_555
C26 C25 1_555 1_555
H12 C26 1_555 1_555
C27 H13 1_555 1_555
C28 C24 1_555 1_555
H14 C28 1_555 1_555
N1 C26 1_555 1_555
N2 C20 1_555 1_555
H15 N2 1_555 1_555
N3 Ag1 1_555 1_555
N4 C4 1_555 1_555
H16 N4 1_555 1_555
O1 C1 1_555 1_555
O2 Nd1 1_555 1_555
O3 C8 1_555 1_555
O4 C8 1_555 1_555
O5 C9 1_555 1_555
O6 C15 1_555 1_555
O7 C15 1_555 1_555
O8 C22 1_555 1_555
O9 C22 1_555 1_555
O10 C23 1_555 1_555
O11 H17 1_555 1_555
H18 O11 1_555 1_555
O12 H19 1_555 1_555
H20 O12 1_555 1_555
O13 H21 1_555 1_555
O14 H23 1_555 1_555
H24 O14 1_555 1_555
Nd1D O3 1_555 1_555
Nd1_2 O4 1_555 1_555
Nd1D_2 O6 1_555 1_555
Nd1E O8 1_555 1_555
Nd1A O9 1_555 1_555
O3D Nd1 1_555 1_555
O4_2 Nd1 1_555 1_555
O6D Nd1 1_555 1_555
O7D Nd1 1_555 1_555
O8E Nd1 1_555 1_555
O9A Nd1 1_555 1_555
H21A O13 1_555 1_555
C1 O2 1_555 1_555
C6 C7 1_555 1_555
C9 N4 1_555 1_555
C12 N3 1_555 1_555
C13 C14 1_555 1_555
C13 N3 1_555 1_555
C20 C21 1_555 1_555
C23 N2 1_555 1_555
C27 C28 1_555 1_555
C27 N1 1_555 1_555
O7 Nd1D_2 1_555 1_555

#END
