
#######################################################################
#
#                 Cambridge Crystallographic Data Centre
#                                CCDC 
#
#######################################################################
#
# If this CIF has been generated from an entry in the Cambridge 
# Structural Database, then it will include bibliographic, chemical, 
# crystal, experimental, refinement or atomic coordinate data resulting 
# from the CCDC's data processing and validation procedures.
#
#######################################################################

data_XUYKUY
_symmetry_cell_setting           monoclinic
_symmetry_space_group_name_H-M   'C 2/c'
_symmetry_Int_Tables_number      15
_space_group_name_Hall           '-C 2yn'
loop_
_symmetry_equiv_pos_site_id
_symmetry_equiv_pos_as_xyz
1 x,y,z
2 -x,y,1/2-z
3 1/2+x,1/2+y,z
4 1/2-x,1/2+y,1/2-z
5 -x,-y,-z
6 x,-y,1/2+z
7 1/2-x,1/2-y,-z
8 1/2+x,1/2-y,1/2+z
_cell_length_a                   27.543(3)
_cell_length_b                   10.8090(11)
_cell_length_c                   20.637(2)
_cell_angle_alpha                90
_cell_angle_beta                 110.706(2)
_cell_angle_gamma                90
_cell_volume                     5747.04
loop_
_atom_site_label
_atom_site_type_symbol
_atom_site_fract_x
_atom_site_fract_y
_atom_site_fract_z
Ag1 Ag -0.48226(2) 0.05063(8) -0.16430(3)
Sm1 Sm -0.948730(10) 0.12506(3) -0.031150(13)
C1 C -0.9045(2) 0.1131(5) -0.1373(3)
C2 C -0.8809(2) 0.0955(5) -0.1926(3)
C3 C -0.8275(2) 0.0912(6) -0.1746(3)
H1 H -0.8062 0.1104 -0.1296
C4 C -0.8057(2) 0.0589(6) -0.2226(3)
C5 C -0.8373(2) 0.0308(5) -0.2893(3)
H2 H -0.8227 0.0035 -0.3210
C6 C -0.8904(2) 0.0429(5) -0.3093(3)
C7 C -0.9225(2) 0.0208(5) -0.3829(3)
C8 C -0.9128(2) 0.0757(6) -0.2610(3)
H3 H -0.9486 0.0843 -0.2743
C9 C -0.7242(2) -0.0271(7) -0.2240(3)
C10 C -0.6664(2) -0.0043(6) -0.2007(3)
C11 C -0.6450(3) 0.1125(7) -0.1925(3)
H4 H -0.6658 0.1824 -0.1980
C12 C -0.5921(3) 0.1236(7) -0.1760(4)
H5 H -0.5777 0.2025 -0.1699
C13 C -0.5818(3) -0.0858(7) -0.1748(4)
H6 H -0.5601 -0.1544 -0.1676
C14 C -0.6340(3) -0.1040(7) -0.1915(4)
H7 H -0.6474 -0.1838 -0.1966
C15 C -0.0904(2) 0.6303(5) 0.0086(3)
C16 C -0.1075(2) 0.5002(5) -0.0069(3)
C17 C -0.1594(2) 0.4679(5) -0.0338(3)
H8 H -0.1847 0.5292 -0.0456
C18 C -0.1739(2) 0.3447(6) -0.0432(3)
C19 C -0.1362(2) 0.2513(6) -0.0238(3)
H9 H -0.1459 0.1684 -0.0284
C20 C -0.0832(2) 0.2850(5) 0.0027(3)
C21 C -0.0429(2) 0.1883(6) 0.0282(3)
C22 C -0.0696(2) 0.4083(5) 0.0088(3)
H10 H -0.0347 0.4304 0.0236
C23 C -0.2467(2) 0.2115(6) -0.1080(3)
C24 C -0.3035(2) 0.1831(6) -0.1250(3)
C25 C -0.3419(2) 0.2709(7) -0.1349(4)
H11 H -0.3340 0.3548 -0.1300
C26 C -0.3925(3) 0.2302(8) -0.1522(4)
H12 H -0.4186 0.2892 -0.1608
C27 C -0.3692(3) 0.0296(7) -0.1483(3)
H13 H -0.3782 -0.0537 -0.1525
C28 C -0.3180(2) 0.0599(6) -0.1330(3)
H14 H -0.2933 -0.0016 -0.1280
N1 N -0.5610(2) 0.0275(6) -0.1685(3)
N2 N -0.75109(18) 0.0573(5) -0.2022(2)
H15 H -0.7339 0.1137 -0.1740
N3 N -0.4060(2) 0.1113(6) -0.1573(3)
N4 N -0.22714(17) 0.3124(5) -0.0695(3)
H16 H -0.2485 0.3608 -0.0602
O1 O -0.95210(16) 0.1300(4) -0.1545(2)
O2 O -0.87553(16) 0.1092(4) -0.0751(2)
O3 O -0.96580(15) 0.0738(4) -0.4062(2)
O4 O -0.90486(16) -0.0468(4) -0.4184(2)
O5 O -0.74322(18) -0.1161(4) -0.2606(3)
O6 O -0.05101(17) 0.6525(4) 0.0615(2)
O7 O -0.11509(15) 0.7158(4) -0.0304(2)
O8 O 0.00214(15) 0.2120(4) 0.0313(2)
O9 O -0.05731(17) 0.0875(4) 0.0472(2)
O10 O -0.2214(2) 0.1408(6) -0.1285(4)
Sm1A Sm -1.051270(10) 0.12506(3) -0.468850(13)
Sm1E Sm -0.948730(10) -0.12506(3) -0.531150(13)
Sm1D Sm -0.051270(10) 0.87494(3) 0.031150(13)
Sm1_2 Sm 0.051270(10) 0.12506(3) -0.031150(13)
Sm1D_2 Sm -0.051270(10) -0.12506(3) 0.031150(13)
O3A O -1.03420(15) 0.0738(4) -0.0938(2)
O4E O -0.90486(16) 0.0468(4) 0.0816(2)
O6D O -0.94899(17) 0.3475(4) -0.0615(2)
O7D O -0.88491(15) 0.2842(4) 0.0304(2)
O8_2 O -0.99786(15) 0.2120(4) 0.0313(2)
O9D O -0.94269(17) -0.0875(4) -0.0472(2)
O11 O 0.2194(2) 0.0090(5) 0.4873(3)
H17 H 0.1903 -0.0270 0.4686
H18 H 0.2196 0.0433 0.5245
O12 O 0.5000 0.1720(7) 0.2500
H20 H 0.5287 0.1746 0.2839
H20A H 0.4713 0.1746 0.2161
O13 O -0.0080(6) 0.1563(15) 0.3054(9)
H21 H -0.0163 0.1112 0.2694
H22 H 0.0007 0.1106 0.3413
O14 O 0.21660(18) 0.7670(5) 0.6101(3)
H23 H 0.2231 0.8035 0.6488
H24 H 0.1840 0.7573 0.5914
H19? H 0.4806 0.2308 0.2534
loop_
_geom_bond_atom_site_label_1
_geom_bond_atom_site_label_2
_geom_bond_site_symmetry_1
_geom_bond_site_symmetry_2
Ag1 N1 1_555 1_555
Sm1 O1 1_555 1_555
C1 C2 1_555 1_555
C2 C3 1_555 1_555
C3 H1 1_555 1_555
C4 C3 1_555 1_555
C5 C4 1_555 1_555
H2 C5 1_555 1_555
C6 C5 1_555 1_555
C7 C6 1_555 1_555
C8 C2 1_555 1_555
H3 C8 1_555 1_555
C9 C10 1_555 1_555
C10 C11 1_555 1_555
C11 H4 1_555 1_555
C12 C11 1_555 1_555
H5 C12 1_555 1_555
C13 H6 1_555 1_555
C14 C10 1_555 1_555
H7 C14 1_555 1_555
C15 C16 1_555 1_555
C16 C17 1_555 1_555
C17 H8 1_555 1_555
C18 C17 1_555 1_555
C19 C18 1_555 1_555
H9 C19 1_555 1_555
C20 C19 1_555 1_555
C21 C20 1_555 1_555
C22 C16 1_555 1_555
H10 C22 1_555 1_555
C23 C24 1_555 1_555
C24 C25 1_555 1_555
C25 H11 1_555 1_555
C26 C25 1_555 1_555
H12 C26 1_555 1_555
C27 H13 1_555 1_555
C28 C24 1_555 1_555
H14 C28 1_555 1_555
N1 C12 1_555 1_555
N2 C4 1_555 1_555
H15 N2 1_555 1_555
N3 Ag1 1_555 1_555
N4 C18 1_555 1_555
H16 N4 1_555 1_555
O1 C1 1_555 1_555
O2 Sm1 1_555 1_555
O3 C7 1_555 1_555
O4 C7 1_555 1_555
O5 C9 1_555 1_555
O6 C15 1_555 1_555
O7 C15 1_555 1_555
O8 C21 1_555 1_555
O9 C21 1_555 1_555
O10 C23 1_555 1_555
O11 H17 1_555 1_555
H18 O11 1_555 1_555
O12 H20 1_555 1_555
O13 H21 1_555 1_555
H22 O13 1_555 1_555
O14 H23 1_555 1_555
H24 O14 1_555 1_555
Sm1A O3 1_555 1_555
Sm1E O4 1_555 1_555
Sm1D O6 1_555 1_555
Sm1_2 O8 1_555 1_555
Sm1D_2 O9 1_555 1_555
O3A Sm1 1_555 1_555
O4E Sm1 1_555 1_555
O6D Sm1 1_555 1_555
O7D Sm1 1_555 1_555
O8_2 Sm1 1_555 1_555
O9D Sm1 1_555 1_555
H20A O12 1_555 1_555
C1 O2 1_555 1_555
C6 C8 1_555 1_555
C9 N2 1_555 1_555
C13 C14 1_555 1_555
C13 N1 1_555 1_555
C20 C22 1_555 1_555
C23 N4 1_555 1_555
C26 N3 1_555 1_555
C27 C28 1_555 1_555
C27 N3 1_555 1_555
O7 Sm1D 1_555 1_555

#END
