
#######################################################################
#
#                 Cambridge Crystallographic Data Centre
#                                CCDC 
#
#######################################################################
#
# If this CIF has been generated from an entry in the Cambridge 
# Structural Database, then it will include bibliographic, chemical, 
# crystal, experimental, refinement or atomic coordinate data resulting 
# from the CCDC's data processing and validation procedures.
#
#######################################################################

data_XUYLAF
_symmetry_cell_setting           monoclinic
_symmetry_space_group_name_H-M   'C 2/c'
_symmetry_Int_Tables_number      15
_space_group_name_Hall           '-C 2yn'
loop_
_symmetry_equiv_pos_site_id
_symmetry_equiv_pos_as_xyz
1 x,y,z
2 -x,y,1/2-z
3 1/2+x,1/2+y,z
4 1/2-x,1/2+y,1/2-z
5 -x,-y,-z
6 x,-y,1/2+z
7 1/2-x,1/2-y,-z
8 1/2+x,1/2-y,1/2+z
_cell_length_a                   27.647(3)
_cell_length_b                   10.9007(10)
_cell_length_c                   20.8067(19)
_cell_angle_alpha                90
_cell_angle_beta                 110.5710(10)
_cell_angle_gamma                90
_cell_volume                     5870.72
loop_
_atom_site_label
_atom_site_type_symbol
_atom_site_fract_x
_atom_site_fract_y
_atom_site_fract_z
Ag1 Ag 0.48236(2) 1.44818(9) 1.16413(4)
Eu1 Eu 0.948480(10) 1.37393(2) 1.030930(13)
C1 C 0.9041(2) 1.3845(5) 1.1387(3)
C2 C 0.8806(2) 1.4034(6) 1.1933(3)
C3 C 0.8275(2) 1.4092(7) 1.1749(3)
H1 H 0.8064 1.3911 1.1302
C4 C 0.8055(2) 1.4421(6) 1.2233(3)
C5 C 0.8368(2) 1.4692(6) 1.2899(3)
H2 H 0.8221 1.4955 1.3215
C6 C 0.8899(2) 1.4572(5) 1.3094(3)
C7 C 0.9124(2) 1.4229(6) 1.2614(3)
H3 H 0.9480 1.4132 1.2746
C8 C 0.7241(2) 1.5273(7) 1.2248(3)
C9 C 0.6663(2) 1.5049(6) 1.2016(3)
C10 C 0.6453(3) 1.3886(7) 1.1930(4)
H4 H 0.6662 1.3197 1.1982
C11 C 0.5924(3) 1.3768(7) 1.1765(4)
H5 H 0.5781 1.2985 1.1704
C12 C 0.5819(3) 1.5843(8) 1.1753(4)
H6 H 0.5601 1.6520 1.1682
C13 C 0.6341(3) 1.6036(7) 1.1921(4)
H7 H 0.6473 1.6830 1.1969
C14 C 0.9220(2) 1.4797(5) 1.3828(3)
C15 C 0.0911(2) 0.8717(5) 0.9918(3)
C16 C 0.1081(2) 1.0017(5) 1.0076(3)
C17 C 0.0700(2) 1.0923(6) 0.9909(3)
H8 H 0.0353 1.0707 0.9749
C18 C 0.0845(2) 1.2151(5) 0.9982(3)
C19 C 0.1369(2) 1.2480(5) 1.0244(3)
H9 H 0.1465 1.3302 1.0285
C20 C 0.1745(2) 1.1565(6) 1.0443(3)
C21 C 0.1602(2) 1.0330(5) 1.0348(3)
H10 H 0.1853 0.9721 1.0467
C22 C 0.2471(2) 1.2884(7) 1.1079(3)
C23 C 0.3038(2) 1.3165(6) 1.1248(3)
C24 C 0.3181(3) 1.4381(7) 1.1321(3)
H11 H 0.2933 1.4988 1.1267
C25 C 0.3692(3) 1.4695(7) 1.1476(4)
H12 H 0.3780 1.5521 1.1514
C26 C 0.3928(3) 1.2688(8) 1.1521(4)
H13 H 0.4187 1.2101 1.1604
C27 C 0.3421(3) 1.2291(7) 1.1350(4)
H14 H 0.3341 1.1459 1.1304
C28 C 0.0440(2) 1.3121(6) 0.9724(3)
N1 N 0.5613(2) 1.4726(7) 1.1689(3)
N2 N 0.75087(17) 1.4436(5) 1.2030(2)
H15 H 0.7337 1.3877 1.1751
N3 N 0.4062(2) 1.3871(6) 1.1573(3)
N4 N 0.22790(18) 1.1873(5) 1.0702(3)
H16 H 0.2492 1.1386 1.0613
O1 O 0.87521(17) 1.3880(4) 1.0765(2)
O2 O 0.95175(17) 1.3691(5) 1.1554(2)
O3 O 0.96565(16) 1.4283(5) 1.4061(2)
O4 O 0.90373(16) 1.5488(4) 1.4170(2)
O5 O 0.74295(18) 1.6152(5) 1.2612(3)
O6 O 0.11617(16) 0.7867(4) 1.0302(2)
O7 O 0.05187(17) 0.8496(4) 0.9401(2)
O8 O -0.00099(15) 1.2879(4) 0.9682(2)
O9 O 0.05839(18) 1.4116(4) 0.9534(3)
O10 O 0.2217(2) 1.3590(7) 1.1283(4)
Eu1A Eu 1.051520(10) 1.37393(2) 1.469070(13)
Eu1E Eu 0.948480(10) 1.62607(2) 1.530930(13)
Eu1D Eu 0.051520(10) 0.62607(2) 0.969070(13)
Eu1_2 Eu -0.051520(10) 1.37393(2) 1.030930(13)
Eu1D_2 Eu 0.051520(10) 1.62607(2) 0.969070(13)
O3A O 1.03435(16) 1.4283(5) 1.0939(2)
O4E O 0.90373(16) 1.4512(4) 0.9170(2)
O6D O 0.88383(16) 1.2133(4) 0.9698(2)
O7D O 0.94813(17) 1.1504(4) 1.0599(2)
O8_2 O 0.99901(15) 1.2879(4) 0.9682(2)
O9D O 0.94161(18) 1.5884(4) 1.0466(3)
O11 O 0.21743(19) 0.7359(6) 0.1112(3)
H17 H 0.2236 0.6982 0.1490
H18 H 0.1850 0.7448 0.0921
O12 O 0.2193(2) 0.4901(6) 0.9866(3)
H19 H 0.2166 0.4575 1.0223
H20 H 0.1905 0.5199 0.9609
O13 O 0.5079(5) 0.1543(15) 0.1932(8)
H21 H 0.4938 0.0925 0.1690
H22 H 0.5037 0.2171 0.1676
O14 O 1.0000 0.8275(8) 0.7500
H23 H 0.9799 0.8016 0.7113
H23A H 1.0201 0.8016 0.7887
H24? H 0.9912 0.7967 0.7818
loop_
_geom_bond_atom_site_label_1
_geom_bond_atom_site_label_2
_geom_bond_site_symmetry_1
_geom_bond_site_symmetry_2
Ag1 N1 1_555 1_555
Eu1 O1 1_555 1_555
C1 C2 1_555 1_555
C2 C3 1_555 1_555
C3 H1 1_555 1_555
C4 C3 1_555 1_555
C5 C4 1_555 1_555
H2 C5 1_555 1_555
C6 C5 1_555 1_555
C7 C2 1_555 1_555
H3 C7 1_555 1_555
C8 C9 1_555 1_555
C9 C10 1_555 1_555
C10 H4 1_555 1_555
C11 C10 1_555 1_555
H5 C11 1_555 1_555
C12 H6 1_555 1_555
C13 C9 1_555 1_555
H7 C13 1_555 1_555
C14 C6 1_555 1_555
C15 C16 1_555 1_555
C16 C17 1_555 1_555
C17 H8 1_555 1_555
C18 C17 1_555 1_555
C19 C18 1_555 1_555
H9 C19 1_555 1_555
C20 C19 1_555 1_555
C21 C16 1_555 1_555
H10 C21 1_555 1_555
C22 C23 1_555 1_555
C23 C24 1_555 1_555
C24 H11 1_555 1_555
C25 C24 1_555 1_555
H12 C25 1_555 1_555
C26 H13 1_555 1_555
C27 C23 1_555 1_555
H14 C27 1_555 1_555
C28 C18 1_555 1_555
N1 C11 1_555 1_555
N2 C4 1_555 1_555
H15 N2 1_555 1_555
N3 Ag1 1_555 1_555
N4 C20 1_555 1_555
H16 N4 1_555 1_555
O1 C1 1_555 1_555
O2 Eu1 1_555 1_555
O3 C14 1_555 1_555
O4 C14 1_555 1_555
O5 C8 1_555 1_555
O6 C15 1_555 1_555
O7 C15 1_555 1_555
O8 C28 1_555 1_555
O9 C28 1_555 1_555
O10 C22 1_555 1_555
O11 H17 1_555 1_555
H18 O11 1_555 1_555
O12 H19 1_555 1_555
H20 O12 1_555 1_555
O13 H21 1_555 1_555
H22 O13 1_555 1_555
O14 H23 1_555 1_555
Eu1A O3 1_555 1_555
Eu1E O4 1_555 1_555
Eu1D O6 1_555 1_555
Eu1_2 O8 1_555 1_555
Eu1D_2 O9 1_555 1_555
O3A Eu1 1_555 1_555
O4E Eu1 1_555 1_555
O6D Eu1 1_555 1_555
O7D Eu1 1_555 1_555
O8_2 Eu1 1_555 1_555
O9D Eu1 1_555 1_555
H23A O14 1_555 1_555
C1 O2 1_555 1_555
C6 C7 1_555 1_555
C8 N2 1_555 1_555
C12 C13 1_555 1_555
C12 N1 1_555 1_555
C20 C21 1_555 1_555
C22 N4 1_555 1_555
C25 N3 1_555 1_555
C26 C27 1_555 1_555
C26 N3 1_555 1_555
O7 Eu1D 1_555 1_555

#END
