
#######################################################################
#
#                 Cambridge Crystallographic Data Centre
#                                CCDC 
#
#######################################################################
#
# If this CIF has been generated from an entry in the Cambridge 
# Structural Database, then it will include bibliographic, chemical, 
# crystal, experimental, refinement or atomic coordinate data resulting 
# from the CCDC's data processing and validation procedures.
#
#######################################################################

data_XUYLOT
_symmetry_cell_setting           triclinic
_symmetry_space_group_name_H-M   'P -1'
_symmetry_Int_Tables_number      2
_space_group_name_Hall           '-P 1'
loop_
_symmetry_equiv_pos_site_id
_symmetry_equiv_pos_as_xyz
1 x,y,z
2 -x,-y,-z
_cell_length_a                   10.5151(10)
_cell_length_b                   11.1900(11)
_cell_length_c                   13.7534(13)
_cell_angle_alpha                107.969(2)
_cell_angle_beta                 106.7870(10)
_cell_angle_gamma                103.220(2)
_cell_volume                     1381.11
loop_
_atom_site_label
_atom_site_type_symbol
_atom_site_fract_x
_atom_site_fract_y
_atom_site_fract_z
Ag1 Ag -0.61972(4) 0.23142(5) 0.05143(3)
La1 La -1.134820(19) -0.451960(17) -1.113270(14)
C1 C 0.5071(4) 0.4440(4) 0.7054(3)
C2 C 0.3614(4) 0.4280(4) 0.7063(3)
C3 C 0.2467(4) 0.3824(4) 0.6061(3)
H1 H 0.2617 0.3719 0.5410
C4 C 0.1105(4) 0.3527(4) 0.6035(3)
C5 C 0.0871(4) 0.3679(4) 0.6997(3)
H2 H -0.0049 0.3460 0.6972
C6 C 0.2017(4) 0.4161(4) 0.8003(3)
C7 C 0.3388(4) 0.4452(4) 0.8033(3)
H3 H 0.4153 0.4763 0.8703
C8 C 0.1738(4) 0.4311(3) 0.9026(3)
C9 C -0.0241(4) 0.3460(4) 0.4227(3)
C10 C -0.1708(4) 0.2896(4) 0.3342(3)
C11 C -0.1867(5) 0.2672(5) 0.2263(4)
H4 H -0.1080 0.2793 0.2074
C12 C -0.3205(5) 0.2266(6) 0.1470(4)
H5 H -0.3301 0.2092 0.0741
C13 C -0.4210(5) 0.2306(6) 0.2735(4)
H6 H -0.5013 0.2187 0.2904
C14 C -0.2918(5) 0.2674(5) 0.3569(4)
H7 H -0.2857 0.2773 0.4279
C15 C -0.8158(4) -0.2408(4) -0.8955(3)
C16 C -0.7907(4) -0.1008(4) -0.8198(3)
C17 C -0.7432(4) -0.0631(4) -0.7061(3)
H8 H -0.7196 -0.1225 -0.6757
C18 C -0.7309(4) 0.0630(4) -0.6374(3)
C19 C -0.7647(4) 0.1515(4) -0.6822(3)
H9 H -0.7587 0.2353 -0.6364
C20 C -0.8078(4) 0.1155(4) -0.7964(3)
C21 C -0.8216(4) -0.0101(4) -0.8650(3)
H10 H -0.8514 -0.0344 -0.9411
C22 C -0.8467(4) 0.2132(4) -0.8431(3)
C23 C -0.7543(5) 0.0252(4) -0.4787(3)
C24 C -0.7166(5) 0.0798(4) -0.3556(3)
C25 C -0.8265(5) 0.0573(5) -0.3190(4)
H11 H -0.9200 0.0132 -0.3696
C26 C -0.7950(5) 0.1009(5) -0.2074(4)
H12 H -0.8693 0.0860 -0.1837
C27 C -0.5581(5) 0.1861(5) -0.1665(4)
H13 H -0.4656 0.2303 -0.1142
C28 C -0.5798(5) 0.1470(5) -0.2775(3)
H14 H -0.5039 0.1655 -0.2990
N1 N -0.4369(4) 0.2109(4) 0.1690(3)
N2 N -0.0102(3) 0.3007(3) 0.5032(3)
H15 H -0.0803 0.2345 0.4932
N3 N -0.6616(4) 0.1644(4) -0.1300(3)
N4 N -0.6884(4) 0.1013(3) -0.5203(3)
H16 H -0.6189 0.1746 -0.4757
O1 O 0.6117(3) 0.5253(3) 0.7921(2)
O2 O 0.5148(3) 0.3721(3) 0.6188(2)
O3 O 0.2679(3) 0.4383(3) 0.9864(2)
O4 O 0.0536(3) 0.4363(3) 0.9035(2)
O5 O 0.0726(3) 0.4286(3) 0.4205(2)
O6 O -0.8921(3) -0.2794(3) -0.9963(2)
O7 O -0.7602(3) -0.3102(2) -0.8526(2)
O8 O -0.8864(3) 0.2977(3) -0.7883(2)
O9 O -0.8375(3) 0.2087(3) -0.9337(2)
O10 O -0.8451(5) -0.0853(4) -0.5371(3)
O11 O -1.2046(3) -0.5811(3) -1.3245(2)
H17 H -1.2943 -0.6054 -1.3547
H18 H -1.1705 -0.5273 -1.3502
Ag1_2 Ag -0.61972(4) 0.23142(5) -0.94857(3)
La1A La 0.134820(19) 0.451960(17) 1.113270(14)
La1_2 La -0.134820(19) 0.548040(17) 0.886730(14)
La1_3 La 0.865180(19) 0.548040(17) 0.886730(14)
La1A_2 La -0.865180(19) -0.548040(17) -0.886730(14)
La1A_3 La -0.865180(19) 0.451960(17) -0.886730(14)
O1_2 O -1.3883(3) -0.4747(3) -1.2079(2)
O3A O -1.2679(3) -0.4383(3) -0.9864(2)
O4_2 O -0.9464(3) -0.5637(3) -1.0965(2)
O4A O -1.0536(3) -0.4363(3) -0.9035(2)
O7A O -1.2398(3) -0.6898(2) -1.1474(2)
O8A O -1.1136(3) -0.2977(3) -1.2117(2)
O9_2 O -0.8375(3) 0.2087(3) 0.0663(2)
O9A O -1.1625(3) -0.2087(3) -1.0663(2)
loop_
_geom_bond_atom_site_label_1
_geom_bond_atom_site_label_2
_geom_bond_site_symmetry_1
_geom_bond_site_symmetry_2
Ag1 N1 1_555 1_555
La1 O6 1_555 1_555
C1 C2 1_555 1_555
C2 C3 1_555 1_555
C3 H1 1_555 1_555
C4 C3 1_555 1_555
C5 C4 1_555 1_555
H2 C5 1_555 1_555
C6 C5 1_555 1_555
C7 C2 1_555 1_555
H3 C7 1_555 1_555
C8 C6 1_555 1_555
C9 C10 1_555 1_555
C10 C11 1_555 1_555
C11 H4 1_555 1_555
C12 C11 1_555 1_555
H5 C12 1_555 1_555
C13 H6 1_555 1_555
C14 C10 1_555 1_555
H7 C14 1_555 1_555
C15 C16 1_555 1_555
C16 C17 1_555 1_555
C17 H8 1_555 1_555
C18 C17 1_555 1_555
C19 C18 1_555 1_555
H9 C19 1_555 1_555
C20 C19 1_555 1_555
C21 C16 1_555 1_555
H10 C21 1_555 1_555
C22 C20 1_555 1_555
C23 C24 1_555 1_555
C24 C25 1_555 1_555
C25 H11 1_555 1_555
C26 C25 1_555 1_555
H12 C26 1_555 1_555
C27 H13 1_555 1_555
C28 C24 1_555 1_555
H14 C28 1_555 1_555
N1 C12 1_555 1_555
N2 C4 1_555 1_555
H15 N2 1_555 1_555
N3 Ag1 1_555 1_555
N4 C18 1_555 1_555
H16 N4 1_555 1_555
O1 C1 1_555 1_555
O2 C1 1_555 1_555
O3 C8 1_555 1_555
O4 C8 1_555 1_555
O5 C9 1_555 1_555
O6 C15 1_555 1_555
O7 C15 1_555 1_555
O8 C22 1_555 1_555
O9 C22 1_555 1_555
O10 C23 1_555 1_555
O11 La1 1_555 1_555
H17 O11 1_555 1_555
H18 O11 1_555 1_555
Ag1_2 O9 1_555 1_555
La1A O3 1_555 1_555
La1_2 O4 1_555 1_555
La1_3 O1 1_555 1_555
La1A_2 O7 1_555 1_555
La1A_3 O8 1_555 1_555
O1_2 La1 1_555 1_555
O3A La1 1_555 1_555
O4_2 La1 1_555 1_555
O4A La1 1_555 1_555
O7A La1 1_555 1_555
O8A La1 1_555 1_555
O9_2 Ag1 1_555 1_555
O9A La1 1_555 1_555
C6 C7 1_555 1_555
C9 N2 1_555 1_555
C13 C14 1_555 1_555
C13 N1 1_555 1_555
C20 C21 1_555 1_555
C23 N4 1_555 1_555
C26 N3 1_555 1_555
C27 C28 1_555 1_555
C27 N3 1_555 1_555
O4 La1A 1_555 1_555
O9 La1A_3 1_555 1_555
La1A_2 O4_2 1_555 1_555
La1A_2 O4A 1_555 1_555

#END
