
#######################################################################
#
#                 Cambridge Crystallographic Data Centre
#                                CCDC 
#
#######################################################################
#
# If this CIF has been generated from an entry in the Cambridge 
# Structural Database, then it will include bibliographic, chemical, 
# crystal, experimental, refinement or atomic coordinate data resulting 
# from the CCDC's data processing and validation procedures.
#
#######################################################################

data_XUYLUZ
_symmetry_cell_setting           triclinic
_symmetry_space_group_name_H-M   'P -1'
_symmetry_Int_Tables_number      2
_space_group_name_Hall           '-P 1'
loop_
_symmetry_equiv_pos_site_id
_symmetry_equiv_pos_as_xyz
1 x,y,z
2 -x,-y,-z
_cell_length_a                   10.499(2)
_cell_length_b                   11.141(2)
_cell_length_c                   13.738(3)
_cell_angle_alpha                107.772(3)
_cell_angle_beta                 106.823(3)
_cell_angle_gamma                102.759(4)
_cell_volume                     1377.91
loop_
_atom_site_label
_atom_site_type_symbol
_atom_site_fract_x
_atom_site_fract_y
_atom_site_fract_z
Ag1 Ag 0.11656(5) 0.76720(7) 0.44976(4)
Pr1 Pr 0.636410(19) 1.453280(18) 1.612250(15)
C1 C 0.3222(4) 1.2435(4) 1.3986(3)
C2 C 0.2941(4) 1.1021(4) 1.3221(3)
C3 C 0.2461(5) 1.0663(4) 1.2084(3)
H1 H 0.2241 1.1273 1.1787
C4 C 0.2310(5) 0.9385(4) 1.1386(3)
C5 C 0.2633(4) 0.8480(4) 1.1838(3)
H2 H 0.2553 0.7633 1.1379
C6 C 0.3075(4) 0.8836(4) 1.2974(3)
C7 C 0.3233(4) 1.0100(4) 1.3671(3)
H3 H 0.3530 1.0333 1.4431
C8 C 0.3429(4) 0.7836(4) 1.3437(3)
C9 C 0.2558(5) 0.9773(5) 0.9801(4)
C10 C 0.2165(5) 0.9225(5) 0.8569(4)
C11 C 0.0797(5) 0.8581(5) 0.7796(4)
H4 H 0.0045 0.8418 0.8021
C12 C 0.0560(6) 0.8186(6) 0.6694(4)
H5 H -0.0369 0.7761 0.6184
C13 C 0.2941(5) 0.8996(6) 0.7078(4)
H6 H 0.3682 0.9130 0.6837
C14 C 0.3252(5) 0.9429(5) 0.8191(4)
H7 H 0.4186 0.9856 0.8692
C15 C -0.6733(4) 0.5677(4) -0.4030(3)
C16 C -0.7017(4) 0.5840(4) -0.3004(3)
C17 C -0.5880(4) 0.6318(4) -0.2002(3)
H8 H -0.4961 0.6526 -0.1978
C18 C -0.6122(4) 0.6482(4) -0.1039(3)
C19 C -0.7489(4) 0.6196(4) -0.1069(3)
H9 H -0.7645 0.6305 -0.0419
C20 C -0.8629(4) 0.5743(4) -0.2071(3)
C21 C -0.8399(4) 0.5556(4) -0.3042(3)
H10 H -0.9158 0.5242 -0.3714
C22 C -1.0092(4) 0.5599(4) -0.2066(3)
C23 C -0.4784(4) 0.6537(4) 0.0770(3)
C24 C -0.3321(4) 0.7094(4) 0.1665(4)
C25 C -0.2108(5) 0.7296(6) 0.1439(4)
H11 H -0.2167 0.7180 0.0726
C26 C -0.0827(5) 0.7664(7) 0.2265(5)
H12 H -0.0027 0.7777 0.2092
C27 C -0.1842(6) 0.7714(6) 0.3529(4)
H13 H -0.1754 0.7877 0.4255
C28 C -0.3168(5) 0.7328(6) 0.2740(4)
H14 H -0.3954 0.7226 0.2930
N1 N 0.1599(5) 0.8379(5) 0.6310(3)
N2 N 0.1881(4) 0.9012(4) 1.0223(3)
H15 H 0.1179 0.8290 0.9780
N3 N -0.0663(4) 0.7871(5) 0.3313(3)
N4 N -0.4927(4) 0.6997(4) -0.0032(3)
H16 H -0.4233 0.7663 0.0070
O1 O 0.4005(3) 1.2808(3) 1.4983(2)
O2 O 0.2648(3) 1.3135(3) 1.3568(2)
O3 O 0.3328(3) 0.7868(3) 1.4333(2)
O4 O 0.3826(3) 0.6975(3) 1.2887(2)
O5 O 0.3462(5) 1.0862(4) 1.0377(3)
O6 O -0.5542(3) 0.5611(3) -0.4040(2)
O7 O -0.7669(3) 0.5626(4) -0.4869(2)
O8 O -1.0173(3) 0.6322(3) -0.1200(3)
O9 O -1.1127(3) 0.4794(3) -0.2935(2)
O10 O -0.5750(3) 0.5708(3) 0.0797(3)
O11 O 0.7012(3) 1.5811(3) 1.8191(2)
H17 H 0.7854 1.6344 1.8432
H18 H 0.7061 1.5232 1.8472
Ag1_2 Ag 0.11656(5) 0.76720(7) 1.44976(4)
Pr1A Pr 0.363590(19) 1.546720(18) 1.387750(15)
Pr1A_2 Pr 0.363590(19) 0.546720(18) 1.387750(15)
Pr1_2 Pr -0.363590(19) 0.453280(18) -0.387750(15)
Pr1A_3 Pr -0.636410(19) 0.546720(18) -0.612250(15)
Pr1_3 Pr -1.363590(19) 0.453280(18) -0.387750(15)
O2A O 0.7352(3) 1.6865(3) 1.6432(2)
O3_2 O 0.3328(3) 0.7868(3) 0.4333(2)
O3A O 0.6672(3) 1.2132(3) 1.5667(2)
O4A O 0.6174(3) 1.3025(3) 1.7113(2)
O6_2 O 0.4458(3) 1.5611(3) 1.5960(2)
O6A O 0.5542(3) 1.4389(3) 1.4040(2)
O7A O 0.7669(3) 1.4374(4) 1.4869(2)
O9_2 O 0.8873(3) 1.4794(3) 1.7065(2)
loop_
_geom_bond_atom_site_label_1
_geom_bond_atom_site_label_2
_geom_bond_site_symmetry_1
_geom_bond_site_symmetry_2
Ag1 N1 1_555 1_555
Pr1 O1 1_555 1_555
C1 C2 1_555 1_555
C2 C3 1_555 1_555
C3 H1 1_555 1_555
C4 C3 1_555 1_555
C5 C4 1_555 1_555
H2 C5 1_555 1_555
C6 C5 1_555 1_555
C7 C2 1_555 1_555
H3 C7 1_555 1_555
C8 C6 1_555 1_555
C9 C10 1_555 1_555
C10 C11 1_555 1_555
C11 H4 1_555 1_555
C12 C11 1_555 1_555
H5 C12 1_555 1_555
C13 H6 1_555 1_555
C14 C10 1_555 1_555
H7 C14 1_555 1_555
C15 C16 1_555 1_555
C16 C17 1_555 1_555
C17 H8 1_555 1_555
C18 C17 1_555 1_555
C19 C18 1_555 1_555
H9 C19 1_555 1_555
C20 C19 1_555 1_555
C21 C16 1_555 1_555
H10 C21 1_555 1_555
C22 C20 1_555 1_555
C23 C24 1_555 1_555
C24 C25 1_555 1_555
C25 H11 1_555 1_555
C26 C25 1_555 1_555
H12 C26 1_555 1_555
C27 H13 1_555 1_555
C28 C24 1_555 1_555
H14 C28 1_555 1_555
N1 C12 1_555 1_555
N2 C4 1_555 1_555
H15 N2 1_555 1_555
N3 Ag1 1_555 1_555
N4 C18 1_555 1_555
H16 N4 1_555 1_555
O1 C1 1_555 1_555
O2 C1 1_555 1_555
O3 C8 1_555 1_555
O4 C8 1_555 1_555
O5 C9 1_555 1_555
O6 C15 1_555 1_555
O7 C15 1_555 1_555
O8 C22 1_555 1_555
O9 C22 1_555 1_555
O10 C23 1_555 1_555
O11 Pr1 1_555 1_555
H17 O11 1_555 1_555
H18 O11 1_555 1_555
Ag1_2 O3 1_555 1_555
Pr1A O2 1_555 1_555
Pr1A_2 O3 1_555 1_555
Pr1_2 O6 1_555 1_555
Pr1A_3 O6 1_555 1_555
Pr1_3 O9 1_555 1_555
O2A Pr1 1_555 1_555
O3_2 Ag1 1_555 1_555
O3A Pr1 1_555 1_555
O4A Pr1 1_555 1_555
O6_2 Pr1 1_555 1_555
O6A Pr1 1_555 1_555
O7A Pr1 1_555 1_555
O9_2 Pr1 1_555 1_555
C6 C7 1_555 1_555
C9 N2 1_555 1_555
C13 C14 1_555 1_555
C13 N1 1_555 1_555
C20 C21 1_555 1_555
C23 N4 1_555 1_555
C26 N3 1_555 1_555
C27 C28 1_555 1_555
C27 N3 1_555 1_555
O4 Pr1A_2 1_555 1_555
O7 Pr1A_3 1_555 1_555
Pr1A O6_2 1_555 1_555
Pr1A O6A 1_555 1_555

#END
