
#######################################################################
#
#                 Cambridge Crystallographic Data Centre
#                                CCDC 
#
#######################################################################
#
# If this CIF has been generated from an entry in the Cambridge 
# Structural Database, then it will include bibliographic, chemical, 
# crystal, experimental, refinement or atomic coordinate data resulting 
# from the CCDC's data processing and validation procedures.
#
#######################################################################

data_XUYLEJ
_symmetry_cell_setting           monoclinic
_symmetry_space_group_name_H-M   'C 2/c'
_symmetry_Int_Tables_number      15
_space_group_name_Hall           '-C 2yn'
loop_
_symmetry_equiv_pos_site_id
_symmetry_equiv_pos_as_xyz
1 x,y,z
2 -x,y,1/2-z
3 1/2+x,1/2+y,z
4 1/2-x,1/2+y,1/2-z
5 -x,-y,-z
6 x,-y,1/2+z
7 1/2-x,1/2-y,-z
8 1/2+x,1/2-y,1/2+z
_cell_length_a                   27.607(2)
_cell_length_b                   10.7939(10)
_cell_length_c                   20.6785(19)
_cell_angle_alpha                90
_cell_angle_beta                 110.8280(10)
_cell_angle_gamma                90
_cell_volume                     5759.26
loop_
_atom_site_label
_atom_site_type_symbol
_atom_site_fract_x
_atom_site_fract_y
_atom_site_fract_z
Ag1 Ag 1.01773(2) 0.55007(7) 0.33561(3)
Gd1 Gd 0.551125(9) 0.62445(2) 0.468798(12)
C1 C 0.5959(2) 0.6126(5) 0.3630(3)
C2 C 0.6190(2) 0.5947(6) 0.3081(3)
C3 C 0.6723(2) 0.5904(6) 0.3264(3)
H1 H 0.6936 0.6093 0.3715
C4 C 0.6943(2) 0.5582(5) 0.2778(3)
C5 C 0.6626(2) 0.5312(5) 0.2104(3)
H2 H 0.6771 0.5058 0.1783
C6 C 0.6097(2) 0.5421(5) 0.1912(3)
C7 C 0.5869(2) 0.5738(5) 0.2395(3)
H3 H 0.5511 0.5809 0.2263
C8 C 0.57653(19) 0.5219(5) 0.1161(3)
C9 C 0.7758(2) 0.4737(6) 0.2763(3)
C10 C 0.8332(2) 0.4956(6) 0.2992(3)
C11 C 0.8547(3) 0.6129(6) 0.3074(4)
H4 H 0.8339 0.6828 0.3022
C12 C 0.9074(3) 0.6243(6) 0.3233(4)
H5 H 0.9215 0.7035 0.3286
C13 C 0.9184(2) 0.4135(7) 0.3258(4)
H6 H 0.9402 0.3450 0.3334
C14 C 0.8658(2) 0.3947(6) 0.3091(4)
H7 H 0.8525 0.3147 0.3046
C15 C 1.4102(2) 1.1323(4) 0.5087(3)
C16 C 1.3930(2) 1.0009(5) 0.4931(3)
C17 C 1.4316(2) 0.9086(5) 0.5094(3)
H8 H 1.4665 0.9303 0.5246
C18 C 1.4169(2) 0.7846(5) 0.5024(3)
C19 C 1.3651(2) 0.7522(5) 0.4769(3)
H9 H 1.3557 0.6691 0.4730
C20 C 1.3267(2) 0.8440(5) 0.4569(3)
C21 C 1.3410(2) 0.9690(5) 0.4664(3)
H10 H 1.3156 1.0304 0.4549
C22 C 1.4574(2) 0.6863(5) 0.5282(3)
C23 C 1.2533(2) 0.7117(6) 0.3926(3)
C24 C 1.1971(2) 0.6827(6) 0.3756(3)
C25 C 1.1823(2) 0.5587(6) 0.3671(3)
H11 H 1.2067 0.4968 0.3716
C26 C 1.1312(2) 0.5293(6) 0.3518(3)
H12 H 1.1220 0.4459 0.3478
C27 C 1.1081(2) 0.7310(7) 0.3487(4)
H13 H 1.0825 0.7909 0.3413
C28 C 1.1584(3) 0.7696(6) 0.3656(4)
H14 H 1.1664 0.8536 0.3703
N1 N 0.93922(19) 0.5278(6) 0.3314(3)
N2 N 0.74896(17) 0.5563(5) 0.2982(2)
H15 H 0.7662 0.6124 0.3267
N3 N 1.0940(2) 0.6120(5) 0.3424(3)
N4 N 1.27280(17) 0.8121(4) 0.4310(3)
H16 H 1.2516 0.8605 0.4408
O1 O 0.54727(17) 0.6298(4) 0.3458(2)
O2 O 0.62451(16) 0.6083(4) 0.4262(2)
O3 O 0.53404(14) 0.5763(4) 0.09398(19)
O4 O 0.59457(16) 0.4538(4) 0.0811(2)
O5 O 0.75684(19) 0.3838(4) 0.2395(3)
O6 O 1.38588(15) 1.2179(3) 0.4696(2)
O7 O 1.44965(16) 1.1542(4) 0.5619(2)
O8 O 1.50295(14) 0.7120(4) 0.5310(2)
O9 O 1.44413(16) 0.5882(4) 0.5474(2)
O10 O 1.2792(2) 0.6399(6) 0.3718(4)
Gd1A Gd 0.448875(9) 0.62445(2) 0.031202(12)
Gd1E Gd 0.551125(9) 0.37555(2) -0.031202(12)
Gd1D Gd 1.448875(9) 1.37555(2) 0.531202(12)
Gd1_2 Gd 1.551125(9) 0.62445(2) 0.468798(12)
Gd1D_2 Gd 1.448875(9) 0.37555(2) 0.531202(12)
O3A O 0.46596(14) 0.5763(4) 0.40602(19)
O4E O 0.59457(16) 0.5462(4) 0.5811(2)
O6D O 0.61412(15) 0.7821(3) 0.5304(2)
O7D O 0.55035(16) 0.8458(4) 0.4381(2)
O8_2 O 0.50295(14) 0.7120(4) 0.5310(2)
O9D O 0.55587(16) 0.4118(4) 0.4526(2)
O11 O 0.71661(19) 0.7322(5) 0.6092(3)
H17 H 0.6838 0.7363 0.5907
H18 H 0.7266 0.6804 0.6423
O12 O 0.7189(2) 0.4895(6) 0.4866(3)
H19 H 0.6899 0.5258 0.4680
H20 H 0.7192 0.4554 0.5239
O13 O 0.5000 0.8278(7) 0.2500
H21 H 0.5167 0.7815 0.2838
H21A H 0.4833 0.7815 0.2162
O14 O 0.7786(6) 0.6870(11) 0.5310(9)
H22 H 0.7633 0.6209 0.5120
H23 H 0.7634 0.7138 0.5575
loop_
_geom_bond_atom_site_label_1
_geom_bond_atom_site_label_2
_geom_bond_site_symmetry_1
_geom_bond_site_symmetry_2
Ag1 N1 1_555 1_555
Gd1 O1 1_555 1_555
C1 C2 1_555 1_555
C2 C3 1_555 1_555
C3 H1 1_555 1_555
C4 C3 1_555 1_555
C5 C4 1_555 1_555
H2 C5 1_555 1_555
C6 C5 1_555 1_555
C7 C2 1_555 1_555
H3 C7 1_555 1_555
C8 C6 1_555 1_555
C9 C10 1_555 1_555
C10 C11 1_555 1_555
C11 H4 1_555 1_555
C12 C11 1_555 1_555
H5 C12 1_555 1_555
C13 H6 1_555 1_555
C14 C10 1_555 1_555
H7 C14 1_555 1_555
C15 C16 1_555 1_555
C16 C17 1_555 1_555
C17 H8 1_555 1_555
C18 C17 1_555 1_555
C19 C18 1_555 1_555
H9 C19 1_555 1_555
C20 C19 1_555 1_555
C21 C16 1_555 1_555
H10 C21 1_555 1_555
C22 C18 1_555 1_555
C23 C24 1_555 1_555
C24 C25 1_555 1_555
C25 H11 1_555 1_555
C26 C25 1_555 1_555
H12 C26 1_555 1_555
C27 H13 1_555 1_555
C28 C24 1_555 1_555
H14 C28 1_555 1_555
N1 C12 1_555 1_555
N2 C4 1_555 1_555
H15 N2 1_555 1_555
N3 Ag1 1_555 1_555
N4 C20 1_555 1_555
H16 N4 1_555 1_555
O1 C1 1_555 1_555
O2 Gd1 1_555 1_555
O3 C8 1_555 1_555
O4 C8 1_555 1_555
O5 C9 1_555 1_555
O6 C15 1_555 1_555
O7 C15 1_555 1_555
O8 C22 1_555 1_555
O9 C22 1_555 1_555
O10 C23 1_555 1_555
O11 H17 1_555 1_555
H18 O11 1_555 1_555
O12 H19 1_555 1_555
H20 O12 1_555 1_555
O13 H21 1_555 1_555
O14 H22 1_555 1_555
H23 O14 1_555 1_555
Gd1A O3 1_555 1_555
Gd1E O4 1_555 1_555
Gd1D O6 1_555 1_555
Gd1_2 O8 1_555 1_555
Gd1D_2 O9 1_555 1_555
O3A Gd1 1_555 1_555
O4E Gd1 1_555 1_555
O6D Gd1 1_555 1_555
O7D Gd1 1_555 1_555
O8_2 Gd1 1_555 1_555
O9D Gd1 1_555 1_555
H21A O13 1_555 1_555
C1 O2 1_555 1_555
C6 C7 1_555 1_555
C9 N2 1_555 1_555
C13 C14 1_555 1_555
C13 N1 1_555 1_555
C20 C21 1_555 1_555
C23 N4 1_555 1_555
C26 N3 1_555 1_555
C27 C28 1_555 1_555
C27 N3 1_555 1_555
O7 Gd1D 1_555 1_555

#END
