
#######################################################################
#
#                 Cambridge Crystallographic Data Centre
#                                CCDC 
#
#######################################################################
#
# If this CIF has been generated from an entry in the Cambridge 
# Structural Database, then it will include bibliographic, chemical, 
# crystal, experimental, refinement or atomic coordinate data resulting 
# from the CCDC's data processing and validation procedures.
#
#######################################################################

data_XUYLIN
_symmetry_cell_setting           monoclinic
_symmetry_space_group_name_H-M   'C 2/c'
_symmetry_Int_Tables_number      15
_space_group_name_Hall           '-C 2yn'
loop_
_symmetry_equiv_pos_site_id
_symmetry_equiv_pos_as_xyz
1 x,y,z
2 -x,y,1/2-z
3 1/2+x,1/2+y,z
4 1/2-x,1/2+y,1/2-z
5 -x,-y,-z
6 x,-y,1/2+z
7 1/2-x,1/2-y,-z
8 1/2+x,1/2-y,1/2+z
_cell_length_a                   27.572(2)
_cell_length_b                   10.7584(8)
_cell_length_c                   20.6212(16)
_cell_angle_alpha                90
_cell_angle_beta                 110.8560(10)
_cell_angle_gamma                90
_cell_volume                     5716.09
loop_
_atom_site_label
_atom_site_type_symbol
_atom_site_fract_x
_atom_site_fract_y
_atom_site_fract_z
Ag1 Ag 1.48227(2) 1.44993(7) 0.66442(3)
Tb1 Tb 1.948980(9) 1.37606(2) 0.531190(13)
C1 C 1.9044(2) 1.3884(5) 0.6368(3)
C2 C 1.8814(2) 1.4064(6) 0.6918(3)
C3 C 1.9135(2) 1.4267(5) 0.7603(3)
H1 H 1.9494 1.4197 0.7734
C4 C 1.8909(2) 1.4579(5) 0.8092(3)
C5 C 1.9237(2) 1.4781(5) 0.8840(3)
C6 C 1.8377(2) 1.4697(5) 0.7896(3)
H2 H 1.8231 1.4963 0.8215
C7 C 1.8060(2) 1.4416(5) 0.7218(3)
C8 C 1.8280(2) 1.4098(6) 0.6732(3)
H3 H 1.8069 1.3908 0.6280
C9 C 1.7241(2) 1.5269(6) 0.7236(3)
C10 C 1.6668(2) 1.5036(6) 0.7003(3)
C11 C 1.6342(3) 1.6042(7) 0.6909(4)
H4 H 1.6475 1.6845 0.6955
C12 C 1.5822(3) 1.5852(7) 0.6747(4)
H5 H 1.5606 1.6542 0.6677
C13 C 1.5924(3) 1.3748(7) 0.6764(4)
H6 H 1.5782 1.2954 0.6708
C14 C 1.6454(3) 1.3862(6) 0.6926(4)
H7 H 1.6662 1.3160 0.6982
C15 C 1.0895(2) 0.8663(5) 0.4912(3)
C16 C 1.1068(2) 0.9992(5) 0.5071(3)
C17 C 1.1586(2) 1.0304(5) 0.5336(3)
H8 H 1.1838 0.9686 0.5453
C18 C 1.1729(2) 1.1550(5) 0.5427(3)
C19 C 1.1348(2) 1.2467(5) 0.5235(3)
H9 H 1.1443 1.3301 0.5281
C20 C 1.0829(2) 1.2143(5) 0.4974(3)
C21 C 1.0681(2) 1.0906(5) 0.4902(3)
H10 H 1.0332 1.0687 0.4746
C22 C 1.0418(2) 1.3134(5) 0.4717(3)
C23 C 1.2465(2) 1.2881(6) 0.6075(3)
C24 C 1.3031(2) 1.3171(6) 0.6247(3)
C25 C 1.3417(3) 1.2300(6) 0.6346(4)
H11 H 1.3336 1.1457 0.6301
C26 C 1.3920(3) 1.2683(7) 0.6511(4)
H12 H 1.4176 1.2082 0.6582
C27 C 1.3691(3) 1.4713(6) 0.6495(3)
H13 H 1.3784 1.5548 0.6552
C28 C 1.3176(3) 1.4407(6) 0.6332(3)
H14 H 1.2929 1.5025 0.6279
N1 N 1.5608(2) 1.4713(6) 0.6684(3)
N2 N 1.75138(18) 1.4423(5) 0.7015(3)
H15 H 1.7342 1.3855 0.6732
N3 N 1.4061(2) 1.3877(5) 0.6575(3)
N4 N 1.22676(18) 1.1875(5) 0.5691(3)
H16 H 1.2480 1.1387 0.5595
O1 O 1.87595(17) 1.3928(4) 0.5736(2)
O2 O 1.95288(17) 1.3716(4) 0.6539(2)
O3 O 1.96663(16) 1.4245(4) 0.9063(2)
O4 O 1.90582(16) 1.5457(4) 0.9195(2)
O5 O 1.74334(19) 1.6165(4) 0.7610(3)
O6 O 1.11361(15) 0.7811(3) 0.5301(2)
O7 O 1.05014(17) 0.8445(4) 0.4381(2)
O8 O 0.99682(15) 1.2891(4) 0.4693(2)
O9 O 1.05565(16) 1.4122(4) 0.4525(2)
O10 O 1.2206(2) 1.3603(6) 0.6273(4)
Tb1A Tb 2.051020(9) 1.37606(2) 0.968810(13)
Tb1E Tb 1.948980(9) 1.62394(2) 1.031190(13)
Tb1D Tb 1.051020(9) 0.62394(2) 0.468810(13)
Tb1_2 Tb 0.948980(9) 1.37606(2) 0.531190(13)
Tb1D_2 Tb 1.051020(9) 1.62394(2) 0.468810(13)
O3A O 2.03337(16) 1.4245(4) 0.5937(2)
O4E O 1.90582(16) 1.4543(4) 0.4195(2)
O6D O 1.88639(15) 1.2189(3) 0.4699(2)
O7D O 1.94986(17) 1.1555(4) 0.5619(2)
O8_2 O 1.99682(15) 1.2891(4) 0.4693(2)
O9D O 1.94435(16) 1.5878(4) 0.5475(2)
O11 O 0.28374(19) 0.7699(5) 0.3902(3)
H17 H 0.2659 0.7833 0.4156
H18 H 0.3148 0.7548 0.4163
O12 O 0.2807(2) 0.0088(5) 0.5125(3)
H19 H 0.3099 -0.0270 0.5312
H20 H 0.2803 0.0436 0.4753
O13 O 0.5000 0.6744(6) 0.7500
H21 H 0.5294 0.6733 0.7826
H21A H 0.4706 0.6733 0.7174
O14 O 0.2233(6) 0.8132(11) 0.4698(9)
H23 H 0.2273 0.8877 0.4845
H24 H 0.1959 0.8080 0.4340
H22? H 0.4853 0.7438 0.7501
loop_
_geom_bond_atom_site_label_1
_geom_bond_atom_site_label_2
_geom_bond_site_symmetry_1
_geom_bond_site_symmetry_2
Ag1 N1 1_555 1_555
Tb1 O1 1_555 1_555
C1 C2 1_555 1_555
C2 C3 1_555 1_555
C3 H1 1_555 1_555
C4 C3 1_555 1_555
C5 C4 1_555 1_555
C6 C4 1_555 1_555
H2 C6 1_555 1_555
C7 C6 1_555 1_555
C8 C2 1_555 1_555
H3 C8 1_555 1_555
C9 C10 1_555 1_555
C10 C11 1_555 1_555
C11 H4 1_555 1_555
C12 C11 1_555 1_555
H5 C12 1_555 1_555
C13 H6 1_555 1_555
C14 C10 1_555 1_555
H7 C14 1_555 1_555
C15 C16 1_555 1_555
C16 C17 1_555 1_555
C17 H8 1_555 1_555
C18 C17 1_555 1_555
C19 C18 1_555 1_555
H9 C19 1_555 1_555
C20 C19 1_555 1_555
C21 C16 1_555 1_555
H10 C21 1_555 1_555
C22 C20 1_555 1_555
C23 C24 1_555 1_555
C24 C25 1_555 1_555
C25 H11 1_555 1_555
C26 C25 1_555 1_555
H12 C26 1_555 1_555
C27 H13 1_555 1_555
C28 C24 1_555 1_555
H14 C28 1_555 1_555
N1 C12 1_555 1_555
N2 C7 1_555 1_555
H15 N2 1_555 1_555
N3 Ag1 1_555 1_555
N4 C18 1_555 1_555
H16 N4 1_555 1_555
O1 C1 1_555 1_555
O2 Tb1 1_555 1_555
O3 C5 1_555 1_555
O4 C5 1_555 1_555
O5 C9 1_555 1_555
O6 C15 1_555 1_555
O7 C15 1_555 1_555
O8 C22 1_555 1_555
O9 C22 1_555 1_555
O10 C23 1_555 1_555
O11 H17 1_555 1_555
H18 O11 1_555 1_555
O12 H19 1_555 1_555
H20 O12 1_555 1_555
O13 H21 1_555 1_555
O14 H23 1_555 1_555
H24 O14 1_555 1_555
Tb1A O3 1_555 1_555
Tb1E O4 1_555 1_555
Tb1D O6 1_555 1_555
Tb1_2 O8 1_555 1_555
Tb1D_2 O9 1_555 1_555
O3A Tb1 1_555 1_555
O4E Tb1 1_555 1_555
O6D Tb1 1_555 1_555
O7D Tb1 1_555 1_555
O8_2 Tb1 1_555 1_555
O9D Tb1 1_555 1_555
H21A O13 1_555 1_555
C1 O2 1_555 1_555
C7 C8 1_555 1_555
C9 N2 1_555 1_555
C13 C14 1_555 1_555
C13 N1 1_555 1_555
C20 C21 1_555 1_555
C23 N4 1_555 1_555
C26 N3 1_555 1_555
C27 C28 1_555 1_555
C27 N3 1_555 1_555
O7 Tb1D 1_555 1_555

#END
