
#######################################################################
#
#                 Cambridge Crystallographic Data Centre
#                                CCDC 
#
#######################################################################
#
# If this CIF has been generated from an entry in the Cambridge 
# Structural Database, then it will include bibliographic, chemical, 
# crystal, experimental, refinement or atomic coordinate data resulting 
# from the CCDC's data processing and validation procedures.
#
#######################################################################

data_XUYMEK
_symmetry_cell_setting           triclinic
_symmetry_space_group_name_H-M   'P -1'
_symmetry_Int_Tables_number      2
_space_group_name_Hall           '-P 1'
loop_
_symmetry_equiv_pos_site_id
_symmetry_equiv_pos_as_xyz
1 x,y,z
2 -x,-y,-z
_cell_length_a                   9.8607(10)
_cell_length_b                   11.3727(12)
_cell_length_c                   13.7453(14)
_cell_angle_alpha                73.704(2)
_cell_angle_beta                 70.7470(10)
_cell_angle_gamma                83.917(2)
_cell_volume                     1396.61
loop_
_atom_site_label
_atom_site_type_symbol
_atom_site_fract_x
_atom_site_fract_y
_atom_site_fract_z
Ag1 Ag 0.45034(7) 0.68849(7) -0.51508(4)
Dy1 Dy -0.15385(3) 0.06185(3) 0.60977(2)
C1 C 0.1155(7) 0.2245(6) 0.4122(5)
C2 C 0.1482(7) 0.3526(6) 0.3441(5)
C3 C 0.1820(8) 0.3752(7) 0.2342(5)
H1 H 0.1844 0.3116 0.2033
C4 C 0.2124(7) 0.4955(6) 0.1706(5)
C5 C 0.2173(8) 0.5881(6) 0.2179(5)
H2 H 0.2380 0.6678 0.1759
C6 C 0.1915(7) 0.5618(6) 0.3272(5)
C7 C 0.1513(7) 0.4451(6) 0.3909(5)
H3 H 0.1265 0.4288 0.4647
C8 C 0.2069(8) 0.4686(7) -0.0008(5)
C9 C 0.2667(8) 0.5204(7) -0.1191(6)
C10 C 0.1842(8) 0.5182(7) -0.1827(6)
H4 H 0.0917 0.4874 -0.1523
C11 C 0.2414(9) 0.5626(8) -0.2918(6)
H5 H 0.1842 0.5620 -0.3336
C12 C 0.4527(9) 0.6073(9) -0.2793(6)
H6 H 0.5456 0.6371 -0.3121
C13 C 0.4047(8) 0.5664(9) -0.1679(6)
H7 H 0.4632 0.5698 -0.1278
C14 C 0.2177(7) 0.6570(7) 0.3767(5)
C15 C 1.1913(7) 0.9122(6) -1.4064(5)
C16 C 1.2248(7) 0.8954(6) -1.3046(5)
C17 C 1.3579(7) 0.9297(6) -1.3075(5)
H8 H 1.4279 0.9593 -1.3727
C18 C 1.3856(7) 0.9195(7) -1.2132(5)
C19 C 1.2810(7) 0.8753(7) -1.1164(5)
H9 H 1.3008 0.8665 -1.0531
C20 C 1.1482(7) 0.8443(7) -1.1129(5)
C21 C 1.1182(7) 0.8537(6) -1.2059(5)
H10 H 1.0283 0.8326 -1.2033
C22 C 1.0111(7) 0.8439(7) -0.9276(5)
C23 C 0.8782(7) 0.8012(7) -0.8366(5)
C24 C 0.8850(8) 0.7819(8) -0.7348(6)
H11 H 0.9715 0.7914 -0.7247
C25 C 0.7647(8) 0.7488(8) -0.6488(6)
H12 H 0.7714 0.7354 -0.5806
C26 C 0.6300(8) 0.7560(8) -0.7574(6)
H13 H 0.5418 0.7487 -0.7660
C27 C 0.7476(8) 0.7882(7) -0.8477(6)
H14 H 0.7385 0.8009 -0.9151
C28 C 1.5282(7) 0.9553(7) -1.2156(5)
N1 N 0.3743(7) 0.6064(7) -0.3411(5)
N2 N 0.2476(7) 0.5260(6) 0.0590(4)
H15 H 0.3015 0.5887 0.0244
N3 N 0.6361(7) 0.7349(6) -0.6595(5)
N4 N 1.0346(6) 0.8042(6) -1.0154(4)
H16 H 0.9769 0.7508 -1.0124
O1 O 0.0209(5) 0.2108(5) 0.5020(4)
O2 O 0.1884(5) 0.1407(4) 0.3740(4)
O3 O 0.2447(6) 0.6187(5) 0.4616(4)
O4 O 0.2159(6) 0.7688(4) 0.3242(4)
O5 O 0.1248(6) 0.3825(5) 0.0383(4)
O6 O 1.0710(5) 0.9585(5) -1.4127(4)
O7 O 1.2825(5) 0.8806(5) -1.4831(4)
O8 O 1.6024(5) 1.0274(4) -1.2993(3)
O9 O 1.5679(6) 0.9118(6) -1.1344(4)
O10 O 1.0935(6) 0.9111(6) -0.9203(4)
O11 O -0.1647(5) -0.0179(5) 0.7902(3)
H17 H -0.2511 -0.0323 0.8299
H18 H -0.1297 0.0322 0.8109
Ag1_2 Ag 0.45034(7) 0.68849(7) 0.48492(4)
Ag1_3 Ag 1.45034(7) 0.68849(7) -1.51508(4)
Dy1A Dy 0.15385(3) -0.06185(3) 0.39023(2)
Dy1A_2 Dy 0.15385(3) 0.93815(3) 0.39023(2)
Dy1A_3 Dy 1.15385(3) 0.93815(3) -1.60977(2)
Dy1_2 Dy 0.84615(3) 1.06185(3) -1.39023(2)
Dy1_3 Dy 1.84615(3) 1.06185(3) -1.39023(2)
O2A O -0.1884(5) -0.1407(4) 0.6260(4)
O3_2 O 0.2447(6) 0.6187(5) -0.5384(4)
O4A O -0.2159(6) 0.2312(4) 0.6758(4)
O6A O -0.0710(5) 0.0415(5) 0.4127(4)
O6_2 O 0.0710(5) -0.0415(5) 0.5873(4)
O7_2 O 0.2825(5) 0.8806(5) -0.4831(4)
O7A O -0.2825(5) 0.1194(5) 0.4831(4)
O8_2 O -0.3976(5) 0.0274(4) 0.7007(3)
O12 O 0.5047(8) 0.3146(7) 0.9939(6)
H19 H 0.4807 0.2451 1.0378
H20 H 0.4388 0.3663 1.0114
loop_
_geom_bond_atom_site_label_1
_geom_bond_atom_site_label_2
_geom_bond_site_symmetry_1
_geom_bond_site_symmetry_2
Ag1 N1 1_555 1_555
Dy1 O1 1_555 1_555
C1 C2 1_555 1_555
C2 C3 1_555 1_555
C3 H1 1_555 1_555
C4 C3 1_555 1_555
C5 C4 1_555 1_555
H2 C5 1_555 1_555
C6 C5 1_555 1_555
C7 C2 1_555 1_555
H3 C7 1_555 1_555
C8 C9 1_555 1_555
C9 C10 1_555 1_555
C10 H4 1_555 1_555
C11 C10 1_555 1_555
H5 C11 1_555 1_555
C12 H6 1_555 1_555
C13 C9 1_555 1_555
H7 C13 1_555 1_555
C14 C6 1_555 1_555
C15 C16 1_555 1_555
C16 C17 1_555 1_555
C17 H8 1_555 1_555
C18 C17 1_555 1_555
C19 C18 1_555 1_555
H9 C19 1_555 1_555
C20 C19 1_555 1_555
C21 C16 1_555 1_555
H10 C21 1_555 1_555
C22 C23 1_555 1_555
C23 C24 1_555 1_555
C24 H11 1_555 1_555
C25 C24 1_555 1_555
H12 C25 1_555 1_555
C26 H13 1_555 1_555
C27 C23 1_555 1_555
H14 C27 1_555 1_555
C28 C18 1_555 1_555
N1 C11 1_555 1_555
N2 C4 1_555 1_555
H15 N2 1_555 1_555
N3 Ag1 1_555 1_555
N4 C20 1_555 1_555
H16 N4 1_555 1_555
O1 C1 1_555 1_555
O2 C1 1_555 1_555
O3 C14 1_555 1_555
O4 C14 1_555 1_555
O5 C8 1_555 1_555
O6 C15 1_555 1_555
O7 C15 1_555 1_555
O8 C28 1_555 1_555
O9 C28 1_555 1_555
O10 C22 1_555 1_555
O11 Dy1 1_555 1_555
H17 O11 1_555 1_555
H18 O11 1_555 1_555
O12 H19 1_555 1_555
H20 O12 1_555 1_555
Ag1_2 O3 1_555 1_555
Ag1_3 O7 1_555 1_555
Dy1A O2 1_555 1_555
Dy1A_2 O4 1_555 1_555
Dy1A_3 O6 1_555 1_555
Dy1_2 O6 1_555 1_555
Dy1_3 O8 1_555 1_555
O2A Dy1 1_555 1_555
O3_2 Ag1 1_555 1_555
O4A Dy1 1_555 1_555
O6A Dy1 1_555 1_555
O6_2 Dy1 1_555 1_555
O7_2 Ag1 1_555 1_555
O7A Dy1 1_555 1_555
O8_2 Dy1 1_555 1_555
C6 C7 1_555 1_555
C8 N2 1_555 1_555
C12 C13 1_555 1_555
C12 N1 1_555 1_555
C20 C21 1_555 1_555
C22 N4 1_555 1_555
C25 N3 1_555 1_555
C26 C27 1_555 1_555
C26 N3 1_555 1_555
O7 Dy1A_3 1_555 1_555
Dy1A O6A 1_555 1_555
Dy1A O6_2 1_555 1_555

#END
