
#######################################################################
#
#                 Cambridge Crystallographic Data Centre
#                                CCDC 
#
#######################################################################
#
# If this CIF has been generated from an entry in the Cambridge 
# Structural Database, then it will include bibliographic, chemical, 
# crystal, experimental, refinement or atomic coordinate data resulting 
# from the CCDC's data processing and validation procedures.
#
#######################################################################

data_XUYMIO
_symmetry_cell_setting           triclinic
_symmetry_space_group_name_H-M   'P -1'
_symmetry_Int_Tables_number      2
_space_group_name_Hall           '-P 1'
loop_
_symmetry_equiv_pos_site_id
_symmetry_equiv_pos_as_xyz
1 x,y,z
2 -x,-y,-z
_cell_length_a                   9.8334(14)
_cell_length_b                   11.3098(17)
_cell_length_c                   13.721(2)
_cell_angle_alpha                73.916(3)
_cell_angle_beta                 70.673(2)
_cell_angle_gamma                83.962(3)
_cell_volume                     1383.45
loop_
_atom_site_label
_atom_site_type_symbol
_atom_site_fract_x
_atom_site_fract_y
_atom_site_fract_z
Ag1 Ag 1.04940(6) 1.30980(6) 0.01448(4)
Er1 Er 1.34566(2) 1.06186(2) -0.890620(18)
C1 C 1.2805(6) 1.3448(5) -0.8775(5)
C2 C 1.3081(6) 1.4387(5) -0.8283(5)
C3 C 1.3499(6) 1.5536(5) -0.8902(4)
H1 H 1.3763 1.5690 -0.9641
C4 C 1.3539(6) 1.6489(5) -0.8448(4)
C5 C 1.3197(6) 1.6251(5) -0.7347(5)
H2 H 1.3180 1.6883 -0.7030
C6 C 1.2875(6) 1.5034(5) -0.6714(5)
C7 C 1.2836(6) 1.4127(6) -0.7195(5)
H3 H 1.2640 1.3324 -0.6780
C8 C 1.3871(6) 1.7782(6) -0.9117(5)
C9 C 1.2937(6) 1.5308(6) -0.4994(5)
C10 C 1.2322(6) 1.4773(5) -0.3809(5)
C11 C 1.3145(7) 1.4806(6) -0.3171(5)
H4 H 1.4070 1.5125 -0.3474
C12 C 1.2575(7) 1.4359(6) -0.2079(5)
H5 H 1.3152 1.4342 -0.1658
C13 C 1.0452(7) 1.3934(8) -0.2218(5)
H6 H 0.9521 1.3633 -0.1894
C14 C 1.0957(7) 1.4346(7) -0.3327(5)
H7 H 1.0368 1.4330 -0.3732
C15 C -0.0299(6) 1.0442(6) 0.7171(5)
C16 C 0.1140(6) 1.0814(5) 0.7142(5)
C17 C 0.2182(6) 1.1240(5) 0.6165(4)
H8 H 0.1982 1.1316 0.5533
C18 C 0.3516(6) 1.1549(5) 0.6132(4)
C19 C 0.3818(6) 1.1446(6) 0.7073(5)
H9 H 0.4719 1.1659 0.7048
C20 C 0.2763(6) 1.1023(5) 0.8053(4)
C21 C 0.1427(6) 1.0710(6) 0.8083(5)
H10 H 0.0720 1.0429 0.8737
C22 C 0.3104(6) 1.0855(5) 0.9051(4)
C23 C 0.4870(6) 1.1559(6) 0.4281(5)
C24 C 0.6213(6) 1.2004(6) 0.3364(5)
C25 C 0.6138(7) 1.2218(7) 0.2339(5)
H11 H 0.5266 1.2147 0.2234
C26 C 0.7361(7) 1.2537(7) 0.1479(5)
H12 H 0.7296 1.2693 0.0794
C27 C 0.8702(7) 1.2414(6) 0.2577(5)
H13 H 0.9591 1.2471 0.2661
C28 C 0.7518(7) 1.2109(6) 0.3478(5)
H14 H 0.7607 1.1977 0.4154
N1 N 0.8628(6) 1.2631(5) 0.1590(4)
N2 N 0.4646(5) 1.1977(5) 0.5151(4)
H15 H 0.5212 1.2530 0.5114
N3 N 1.1237(6) 1.3951(5) -0.1602(4)
N4 N 1.2513(6) 1.4738(5) -0.5587(4)
H16 H 1.1955 1.4120 -0.5237
O1 O 1.2825(5) 1.2311(4) -0.8269(3)
O2 O 1.2530(5) 1.3822(4) -0.9623(4)
O3 O 1.4839(4) 1.7910(4) -1.0016(3)
O4 O 1.3144(4) 1.8595(3) -0.8735(3)
O5 O 1.3749(5) 1.6161(4) -0.5372(3)
O6 O 0.2209(4) 1.1183(4) 0.9831(3)
O7 O 0.4295(4) 1.0366(4) 0.9133(3)
O8 O -0.1038(4) 0.9733(4) 0.8013(3)
O9 O -0.0695(5) 1.0900(6) 0.6368(4)
O10 O 0.4038(5) 1.0908(5) 0.4201(4)
O12 O 1.3340(4) 0.9853(4) -0.7125(3)
H19 H 1.2922 0.9177 -0.6761
H20 H 1.3717 1.0249 -0.6837
Ag1_2 Ag 1.04940(6) 1.30980(6) -0.98552(4)
Ag1_3 Ag 0.04940(6) 1.30980(6) 1.01448(4)
Er1A Er 1.65434(2) 1.93814(2) -1.109380(18)
Er1_2 Er 1.34566(2) 2.06186(2) -0.890620(18)
Er1_3 Er 0.34566(2) 1.06186(2) 1.109380(18)
Er1A_2 Er 0.65434(2) 0.93814(2) 0.890620(18)
Er1A_3 Er -0.34566(2) 0.93814(2) 0.890620(18)
O2_2 O 1.2530(5) 1.3822(4) 0.0377(4)
O3A O 1.5161(4) 1.2090(4) -0.9984(3)
O4_2 O 1.3144(4) 0.8595(3) -0.8735(3)
O6_2 O 1.2209(4) 1.1183(4) -0.0169(3)
O6_3 O 1.2209(4) 1.1183(4) -1.0169(3)
O7_2 O 1.4295(4) 1.0366(4) -1.0867(3)
O7A O 1.5705(4) 0.9634(4) -0.9133(3)
O8A O 1.1038(4) 1.0267(4) -0.8013(3)
O11 O 0.0055(6) 0.3133(6) 0.4944(5)
H17 H -0.0625 0.3627 0.5150
H18 H -0.0026 0.2451 0.5416
loop_
_geom_bond_atom_site_label_1
_geom_bond_atom_site_label_2
_geom_bond_site_symmetry_1
_geom_bond_site_symmetry_2
Ag1 N1 1_555 1_555
Er1 O1 1_555 1_555
C1 C2 1_555 1_555
C2 C3 1_555 1_555
C3 H1 1_555 1_555
C4 C3 1_555 1_555
C5 C4 1_555 1_555
H2 C5 1_555 1_555
C6 C5 1_555 1_555
C7 C2 1_555 1_555
H3 C7 1_555 1_555
C8 C4 1_555 1_555
C9 C10 1_555 1_555
C10 C11 1_555 1_555
C11 H4 1_555 1_555
C12 C11 1_555 1_555
H5 C12 1_555 1_555
C13 H6 1_555 1_555
C14 C10 1_555 1_555
H7 C14 1_555 1_555
C15 C16 1_555 1_555
C16 C17 1_555 1_555
C17 H8 1_555 1_555
C18 C17 1_555 1_555
C19 C18 1_555 1_555
H9 C19 1_555 1_555
C20 C19 1_555 1_555
C21 C16 1_555 1_555
H10 C21 1_555 1_555
C22 C20 1_555 1_555
C23 C24 1_555 1_555
C24 C25 1_555 1_555
C25 H11 1_555 1_555
C26 C25 1_555 1_555
H12 C26 1_555 1_555
C27 H13 1_555 1_555
C28 C24 1_555 1_555
H14 C28 1_555 1_555
N1 C26 1_555 1_555
N2 C18 1_555 1_555
H15 N2 1_555 1_555
N3 Ag1 1_555 1_555
N4 C6 1_555 1_555
H16 N4 1_555 1_555
O1 C1 1_555 1_555
O2 C1 1_555 1_555
O3 C8 1_555 1_555
O4 C8 1_555 1_555
O5 C9 1_555 1_555
O6 C22 1_555 1_555
O7 C22 1_555 1_555
O8 C15 1_555 1_555
O9 C15 1_555 1_555
O10 C23 1_555 1_555
O11 H17 1_555 1_555
H18 O11 1_555 1_555
O12 Er1 1_555 1_555
H19 O12 1_555 1_555
H20 O12 1_555 1_555
Ag1_2 O2 1_555 1_555
Ag1_3 O6 1_555 1_555
Er1A O3 1_555 1_555
Er1_2 O4 1_555 1_555
Er1_3 O6 1_555 1_555
Er1A_2 O7 1_555 1_555
Er1A_3 O8 1_555 1_555
O2_2 Ag1 1_555 1_555
O3A Er1 1_555 1_555
O4_2 Er1 1_555 1_555
O6_2 Ag1 1_555 1_555
O6_3 Er1 1_555 1_555
O7_2 Er1 1_555 1_555
O7A Er1 1_555 1_555
O8A Er1 1_555 1_555
C6 C7 1_555 1_555
C9 N4 1_555 1_555
C12 N3 1_555 1_555
C13 C14 1_555 1_555
C13 N3 1_555 1_555
C20 C21 1_555 1_555
C23 N2 1_555 1_555
C27 C28 1_555 1_555
C27 N1 1_555 1_555
O7 Er1_3 1_555 1_555
Ag1_2 O6_3 1_555 1_555

#END
