
#######################################################################
#
#                 Cambridge Crystallographic Data Centre
#                                CCDC 
#
#######################################################################
#
# If this CIF has been generated from an entry in the Cambridge 
# Structural Database, then it will include bibliographic, chemical, 
# crystal, experimental, refinement or atomic coordinate data resulting 
# from the CCDC's data processing and validation procedures.
#
#######################################################################

data_XUYMOU
_symmetry_cell_setting           orthorhombic
_symmetry_space_group_name_H-M   'P n a 21'
_symmetry_Int_Tables_number      33
_space_group_name_Hall           'P 2c -2n'
loop_
_symmetry_equiv_pos_site_id
_symmetry_equiv_pos_as_xyz
1 x,y,z
2 -x,-y,1/2+z
3 1/2-x,1/2+y,1/2+z
4 1/2+x,1/2-y,z
_cell_length_a                   16.769(3)
_cell_length_b                   12.475(3)
_cell_length_c                   12.346(3)
_cell_angle_alpha                90
_cell_angle_beta                 90
_cell_angle_gamma                90
_cell_volume                     2582.7
loop_
_atom_site_label
_atom_site_type_symbol
_atom_site_fract_x
_atom_site_fract_y
_atom_site_fract_z
C1 C 0.19268(13) 1.07326(17) 0.3810(2)
C2 C 0.28001(12) 1.05655(18) 0.36354(18)
C3 C 0.31194(13) 1.03316(19) 0.2633(2)
H1 H 0.2783 1.0281 0.2036
C4 C 0.39294(13) 1.01712(19) 0.2496(2)
H2 H 0.4130 1.0031 0.1809
C5 C 0.44482(12) 1.02180(17) 0.33781(19)
C6 C 0.41224(11) 1.04480(17) 0.4401(2)
H3 H 0.4455 1.0482 0.5003
C7 C 0.33118(12) 1.06237(19) 0.45222(18)
H4 H 0.3107 1.0782 0.5204
C8 C 0.53100(12) 0.99677(17) 0.32793(19)
C9 C 0.55505(16) 0.90961(19) 0.2641(2)
H5 H 0.5178 0.8749 0.2207
C10 C 0.63335(17) 0.8744(2) 0.2646(3)
H6 H 0.6485 0.8169 0.2212
C11 C 0.68836(15) 0.9243(2) 0.3291(3)
H7 H 0.7405 0.8989 0.3316
C12 C 0.66681(14) 1.0121(2) 0.3904(3)
H8 H 0.7048 1.0460 0.4332
C13 C 0.58857(12) 1.05084(17) 0.3890(2)
C14 C 0.57038(11) 1.15465(16) 0.44662(19)
C15 C -0.02107(15) 0.90770(18) 0.5456(2)
H9 H -0.0508 0.9536 0.5891
C16 C 0.02540(18) 0.7622(2) 0.4747(2)
H10 H 0.0350 0.6905 0.4587
C17 C 0.05936(14) 0.84825(17) 0.4263(3)
H11 H 0.0968 0.8453 0.3709
C18 C -0.07806(17) 0.7385(2) 0.6206(2)
H12 H -0.0743 0.7657 0.6940
H13 H -0.0606 0.6643 0.6212
C19 C -0.16158(18) 0.7430(3) 0.5851(3)
H14 H -0.1667 0.7098 0.5144
H15 H -0.1782 0.8172 0.5788
C20 C -0.21552(18) 0.6845(3) 0.6669(3)
H16 H -0.2014 0.6091 0.6687
H17 H -0.2068 0.7139 0.7386
C21 C -0.29916(18) 0.6955(3) 0.6382(3)
H18 H -0.3066 0.6718 0.5641
H19 H -0.3139 0.7706 0.6420
C22 C -0.40459(15) 0.6709(2) 0.7821(3)
H20 H -0.4096 0.7428 0.8010
C23 C -0.36178(15) 0.5255(2) 0.7041(2)
H21 H -0.3334 0.4776 0.6612
C24 C -0.42078(14) 0.5021(2) 0.7742(2)
H22 H -0.4405 0.4336 0.7872
Co1 Co 0.044611(13) 1.102608(19) 0.42764(3)
H25 H -0.0480(8) 1.147(3) 0.591(3)
H28 H 0.0216(18) 1.2136(14) 0.587(3)
N1 N 0.02993(11) 0.94018(15) 0.47171(16)
N2 N -0.02506(12) 0.80048(15) 0.55073(17)
N3 N -0.44771(11) 0.59383(16) 0.82375(19)
N4 N -0.35210(15) 0.6338(2) 0.7089(2)
O1 O 0.16858(9) 1.10743(12) 0.47097(15)
O2 O 0.14358(9) 1.05195(14) 0.30610(14)
O3 O 0.55640(9) 1.23336(12) 0.38634(14)
O4 O 0.57152(10) 1.15585(13) 0.54777(14)
O7 O 0.00106(11) 1.15300(14) 0.57563(16)
Co1B Co -0.544611(13) 0.602608(19) 0.92764(3)
Co1C Co 0.544611(13) 1.397392(19) 0.42764(3)
N3B N -0.05229(11) 1.09383(16) 0.32375(19)
O3C O 0.05640(9) 1.26664(12) 0.38634(14)
H23 H 0.691(5) 0.187(6) 0.587(7)
H26 H 0.719(2) 0.278(3) 0.570(2)
O5 O 0.72007(15) 0.2320(2) 0.6211(3)
H24 H 0.8107(11) 0.136(2) 0.627(3)
H27 H 0.841(3) 0.055(4) 0.687(4)
O6 O 0.85360(15) 0.1044(2) 0.6434(3)
loop_
_geom_bond_atom_site_label_1
_geom_bond_atom_site_label_2
_geom_bond_site_symmetry_1
_geom_bond_site_symmetry_2
C1 C2 1_555 1_555
C2 C3 1_555 1_555
C3 H1 1_555 1_555
C4 C3 1_555 1_555
H2 C4 1_555 1_555
C5 C4 1_555 1_555
C6 C5 1_555 1_555
H3 C6 1_555 1_555
C7 C2 1_555 1_555
H4 C7 1_555 1_555
C8 C5 1_555 1_555
C9 C8 1_555 1_555
H5 C9 1_555 1_555
C10 C9 1_555 1_555
H6 C10 1_555 1_555
C11 C10 1_555 1_555
H7 C11 1_555 1_555
C12 C11 1_555 1_555
H8 C12 1_555 1_555
C13 C8 1_555 1_555
C14 C13 1_555 1_555
C15 H9 1_555 1_555
C16 H10 1_555 1_555
C17 C16 1_555 1_555
H11 C17 1_555 1_555
C18 H12 1_555 1_555
H13 C18 1_555 1_555
C19 C18 1_555 1_555
H14 C19 1_555 1_555
H15 C19 1_555 1_555
C20 C19 1_555 1_555
H16 C20 1_555 1_555
H17 C20 1_555 1_555
C21 C20 1_555 1_555
H18 C21 1_555 1_555
H19 C21 1_555 1_555
C22 H20 1_555 1_555
C23 H21 1_555 1_555
C24 C23 1_555 1_555
H22 C24 1_555 1_555
Co1 N1 1_555 1_555
H23 O5 1_555 1_555
H24 O6 1_555 1_555
H25 O7 1_555 1_555
H26 O5 1_555 1_555
H27 O6 1_555 1_555
H28 O7 1_555 1_555
N1 C15 1_555 1_555
N2 C15 1_555 1_555
N3 C22 1_555 1_555
N4 C21 1_555 1_555
O1 C1 1_555 1_555
O2 C1 1_555 1_555
O3 C14 1_555 1_555
O4 C14 1_555 1_555
O7 Co1 1_555 1_555
Co1B N3 1_555 1_555
Co1C O3 1_555 1_555
N3B Co1 1_555 1_555
O3C Co1 1_555 1_555
C6 C7 1_555 1_555
C12 C13 1_555 1_555
C16 N2 1_555 1_555
C17 N1 1_555 1_555
C18 N2 1_555 1_555
C22 N4 1_555 1_555
C23 N4 1_555 1_555
C24 N3 1_555 1_555
Co1 O1 1_555 1_555
Co1 O2 1_555 1_555

#END
