
#######################################################################
#
#                 Cambridge Crystallographic Data Centre
#                                CCDC 
#
#######################################################################
#
# If this CIF has been generated from an entry in the Cambridge 
# Structural Database, then it will include bibliographic, chemical, 
# crystal, experimental, refinement or atomic coordinate data resulting 
# from the CCDC's data processing and validation procedures.
#
#######################################################################

data_XUYNUB
_symmetry_cell_setting           triclinic
_symmetry_space_group_name_H-M   'P -1'
_symmetry_Int_Tables_number      2
_space_group_name_Hall           '-P 1'
loop_
_symmetry_equiv_pos_site_id
_symmetry_equiv_pos_as_xyz
1 x,y,z
2 -x,-y,-z
_cell_length_a                   7.4213(4)
_cell_length_b                   7.6629(5)
_cell_length_c                   8.9501(5)
_cell_angle_alpha                80.468(1)
_cell_angle_beta                 79.331(1)
_cell_angle_gamma                63.620(1)
_cell_volume                     446.084
loop_
_atom_site_label
_atom_site_type_symbol
_atom_site_fract_x
_atom_site_fract_y
_atom_site_fract_z
Cd1 Cd 0.0000 1.0000 1.0000
O1 O 0.2982(4) 0.0115(4) 0.8817(3)
O2 O 0.1910(4) 0.8547(4) 1.2022(3)
O3 O 0.2696(5) 0.5875(4) 1.3524(3)
O4 O -0.0222(5) 0.8292(5) 1.3982(4)
N1 N 0.1287(4) 0.7001(4) 0.9046(3)
N2 N 0.4653(5) 0.0512(4) 0.6495(3)
N3 N 0.1431(5) 0.7561(5) 1.3198(4)
C1 C 0.0835(6) 0.6735(6) 0.7748(4)
H1 H -0.0009 0.7851 0.7155
C2 C 0.1534(6) 0.4916(5) 0.7227(4)
H2 H 0.1174 0.4788 0.6300
C3 C 0.2773(5) 0.3281(5) 0.8086(4)
C4 C 0.3275(6) 0.3548(6) 0.9420(4)
H3 H 0.4129 0.2458 1.0029
C5 C 0.2520(6) 0.5415(6) 0.9854(4)
H4 H 0.2889 0.5585 1.0762
C6 C 0.3469(5) 0.1199(5) 0.7778(4)
C7 C 0.5363(5) 0.1629(5) 0.5244(4)
H5 H 0.6862 0.1078 0.5128
H6 H 0.4811 0.3007 0.5472
C8 C 0.4673(6) 0.1543(5) 0.3772(4)
H7 H 0.3176 0.2233 0.3846
H8 H 0.5250 0.2202 0.2906
Cd1_2 Cd 0.0000 0.0000 1.0000
Cd1_3 Cd 1.0000 -1.0000 0.0000
Cd1_4 Cd 1.0000 0.0000 0.0000
O1A O 0.7018(4) -0.0115(4) 0.1183(3)
O1_2 O 0.2982(4) 1.0115(4) 0.8817(3)
O1A_2 O -0.2982(4) 0.9885(4) 1.1183(3)
O2A O -0.1910(4) 1.1453(4) 0.7978(3)
O3A O -0.2696(5) 1.4125(4) 0.6476(3)
O4A O 0.0222(5) 1.1708(5) 0.6018(4)
N1A N 0.8713(4) -0.7001(4) 0.0954(3)
N1A_2 N -0.1287(4) 1.2999(4) 1.0954(3)
N2A N 0.5347(5) -0.0512(4) 0.3505(3)
N3A N -0.1431(5) 1.2439(5) 0.6802(4)
C1A C 0.9165(6) -0.6735(6) 0.2252(4)
H1A H 1.0009 -0.7851 0.2845
C2A C 0.8466(6) -0.4916(5) 0.2773(4)
H2A H 0.8826 -0.4788 0.3700
C3A C 0.7227(5) -0.3281(5) 0.1914(4)
C4A C 0.6725(6) -0.3548(6) 0.0580(4)
H3A H 0.5871 -0.2458 -0.0029
C5A C 0.7480(6) -0.5415(6) 0.0146(4)
H4A H 0.7111 -0.5585 -0.0762
C6A C 0.6531(5) -0.1199(5) 0.2222(4)
C7A C 0.4637(5) -0.1629(5) 0.4756(4)
H5A H 0.3138 -0.1078 0.4872
H6A H 0.5189 -0.3007 0.4528
C8A C 0.5327(6) -0.1543(5) 0.6228(4)
H7A H 0.6824 -0.2233 0.6154
H8A H 0.4750 -0.2202 0.7094
loop_
_geom_bond_atom_site_label_1
_geom_bond_atom_site_label_2
_geom_bond_site_symmetry_1
_geom_bond_site_symmetry_2
Cd1 O2 1_555 1_555
O1 C6 1_555 1_555
O2 N3 1_555 1_555
O3 N3 1_555 1_555
O4 N3 1_555 1_555
N1 Cd1 1_555 1_555
N2 C6 1_555 1_555
C1 N1 1_555 1_555
H1 C1 1_555 1_555
C2 C1 1_555 1_555
H2 C2 1_555 1_555
C3 C2 1_555 1_555
C4 C3 1_555 1_555
H3 C4 1_555 1_555
C5 N1 1_555 1_555
H4 C5 1_555 1_555
C6 C3 1_555 1_555
C7 N2 1_555 1_555
H5 C7 1_555 1_555
H6 C7 1_555 1_555
C8 C7 1_555 1_555
H7 C8 1_555 1_555
H8 C8 1_555 1_555
Cd1_2 O1 1_555 1_555
Cd1_3 N1A 1_555 1_555
Cd1_4 O1A 1_555 1_555
O1A C6A 1_555 1_555
O1_2 Cd1 1_555 1_555
O1A_2 Cd1 1_555 1_555
O2A Cd1 1_555 1_555
O3A N3A 1_555 1_555
O4A N3A 1_555 1_555
N1A C1A 1_555 1_555
N1A_2 Cd1 1_555 1_555
N2A C8 1_555 1_555
N3A O2A 1_555 1_555
C1A H1A 1_555 1_555
C2A C1A 1_555 1_555
H2A C2A 1_555 1_555
C3A C2A 1_555 1_555
C4A C3A 1_555 1_555
H3A C4A 1_555 1_555
C5A N1A 1_555 1_555
H4A C5A 1_555 1_555
C6A N2A 1_555 1_555
C7A N2A 1_555 1_555
H5A C7A 1_555 1_555
H6A C7A 1_555 1_555
C8A N2 1_555 1_555
H7A C8A 1_555 1_555
H8A C8A 1_555 1_555
C4 C5 1_555 1_555
C3A C6A 1_555 1_555
C4A C5A 1_555 1_555
C7A C8A 1_555 1_555

#END
