
#######################################################################
#
#                 Cambridge Crystallographic Data Centre
#                                CCDC 
#
#######################################################################
#
# If this CIF has been generated from an entry in the Cambridge 
# Structural Database, then it will include bibliographic, chemical, 
# crystal, experimental, refinement or atomic coordinate data resulting 
# from the CCDC's data processing and validation procedures.
#
#######################################################################

data_XUYNOV
_symmetry_cell_setting           triclinic
_symmetry_space_group_name_H-M   'P -1'
_symmetry_Int_Tables_number      2
_space_group_name_Hall           '-P 1'
loop_
_symmetry_equiv_pos_site_id
_symmetry_equiv_pos_as_xyz
1 x,y,z
2 -x,-y,-z
_cell_length_a                   7.8047(5)
_cell_length_b                   7.8910(5)
_cell_length_c                   8.1533(5)
_cell_angle_alpha                82.2850(10)
_cell_angle_beta                 76.2280(10)
_cell_angle_gamma                61.9320(10)
_cell_volume                     430.197
loop_
_atom_site_label
_atom_site_type_symbol
_atom_site_fract_x
_atom_site_fract_y
_atom_site_fract_z
Cd1 Cd 0.0000 1.0000 0.0000
O1 O 0.9817(4) 0.7121(4) 0.1057(4)
N1 N 0.2981(5) 0.8763(5) 0.1001(4)
N2 N 0.9046(5) 0.6385(5) 0.3812(4)
C1 C 0.4666(7) 0.7413(7) 0.0162(6)
H1 H 0.4612 0.6904 -0.0778
C2 C 0.6470(7) 0.6732(7) 0.0603(6)
H2 H 0.7597 0.5781 -0.0023
C3 C 0.6598(6) 0.7471(5) 0.1985(5)
C4 C 0.4878(7) 0.8810(7) 0.2894(6)
H3 H 0.4893 0.9311 0.3857
C5 C 0.3113(7) 0.9414(7) 0.2366(6)
H4 H 0.1957 1.0324 0.3000
C6 C 0.8612(6) 0.6958(5) 0.2273(5)
C7 C 1.0911(6) 0.6164(6) 0.4138(6)
H5 H 1.0622 0.7070 0.4981
H6 H 1.1660 0.6456 0.3109
C8 C 0.7853(6) 0.5853(6) 0.5246(5)
H7 H 0.6711 0.5919 0.4911
H8 H 0.7381 0.6745 0.6151
Cl1 Cl -0.19740(15) 1.14559(16) 0.28659(13)
Cd1_2 Cd 1.0000 0.0000 1.0000
Cd1_3 Cd 1.0000 1.0000 0.0000
Cd1_4 Cd 2.0000 0.0000 1.0000
O1A O 1.0183(4) 0.2879(4) 0.8943(4)
O1_2 O -0.0183(4) 0.7121(4) 0.1057(4)
O1A_2 O 0.0183(4) 1.2879(4) -0.1057(4)
N1A N 1.7019(5) 0.1237(5) 0.8999(4)
N1A_2 N -0.2981(5) 1.1237(5) -0.1001(4)
N2A N 1.0954(5) 0.3615(5) 0.6188(4)
C1A C 1.5334(7) 0.2587(7) 0.9838(6)
H1A H 1.5388 0.3096 1.0778
C2A C 1.3530(7) 0.3268(7) 0.9397(6)
H2A H 1.2403 0.4219 1.0023
C3A C 1.3402(6) 0.2529(5) 0.8015(5)
C4A C 1.5122(7) 0.1190(7) 0.7106(6)
H3A H 1.5107 0.0689 0.6143
C5A C 1.6887(7) 0.0586(7) 0.7634(6)
H4A H 1.8043 -0.0324 0.7000
C6A C 1.1388(6) 0.3042(5) 0.7727(5)
C7A C 0.9089(6) 0.3836(6) 0.5862(6)
H5A H 0.9378 0.2930 0.5019
H6A H 0.8340 0.3544 0.6891
C8A C 1.2147(6) 0.4147(6) 0.4754(5)
H7A H 1.3289 0.4081 0.5089
H8A H 1.2619 0.3255 0.3849
Cl1A Cl 0.19740(15) 0.85441(16) -0.28659(13)
loop_
_geom_bond_atom_site_label_1
_geom_bond_atom_site_label_2
_geom_bond_site_symmetry_1
_geom_bond_site_symmetry_2
Cd1 N1 1_555 1_555
O1 C6 1_555 1_555
N1 C1 1_555 1_555
N2 C6 1_555 1_555
C1 H1 1_555 1_555
C2 C1 1_555 1_555
H2 C2 1_555 1_555
C3 C2 1_555 1_555
C4 C3 1_555 1_555
H3 C4 1_555 1_555
C5 N1 1_555 1_555
H4 C5 1_555 1_555
C6 C3 1_555 1_555
C7 N2 1_555 1_555
H5 C7 1_555 1_555
H6 C7 1_555 1_555
C8 N2 1_555 1_555
H7 C8 1_555 1_555
H8 C8 1_555 1_555
Cl1 Cd1 1_555 1_555
Cd1_2 O1A 1_555 1_555
Cd1_3 O1 1_555 1_555
Cd1_4 N1A 1_555 1_555
O1A C6A 1_555 1_555
O1_2 Cd1 1_555 1_555
O1A_2 Cd1 1_555 1_555
N1A C1A 1_555 1_555
N1A_2 Cd1 1_555 1_555
N2A C6A 1_555 1_555
C1A H1A 1_555 1_555
C2A C1A 1_555 1_555
H2A C2A 1_555 1_555
C3A C2A 1_555 1_555
C4A C3A 1_555 1_555
H3A C4A 1_555 1_555
C5A N1A 1_555 1_555
H4A C5A 1_555 1_555
C6A C3A 1_555 1_555
C7A C8 1_555 1_555
H5A C7A 1_555 1_555
H6A C7A 1_555 1_555
C8A C7 1_555 1_555
H7A C8A 1_555 1_555
H8A C8A 1_555 1_555
Cl1A Cd1 1_555 1_555
C4 C5 1_555 1_555
N2A C7A 1_555 1_555
N2A C8A 1_555 1_555
C4A C5A 1_555 1_555

#END
