
#######################################################################
#
#                 Cambridge Crystallographic Data Centre
#                                CCDC 
#
#######################################################################
#
# If this CIF has been generated from an entry in the Cambridge 
# Structural Database, then it will include bibliographic, chemical, 
# crystal, experimental, refinement or atomic coordinate data resulting 
# from the CCDC's data processing and validation procedures.
#
#######################################################################

data_XUYNIP
_symmetry_cell_setting           monoclinic
_symmetry_space_group_name_H-M   'P 21/c'
_symmetry_Int_Tables_number      14
_space_group_name_Hall           '-P 2ybc'
loop_
_symmetry_equiv_pos_site_id
_symmetry_equiv_pos_as_xyz
1 x,y,z
2 -x,1/2+y,1/2-z
3 -x,-y,-z
4 x,1/2-y,1/2+z
_cell_length_a                   12.345(3)
_cell_length_b                   11.545(2)
_cell_length_c                   18.410(7)
_cell_angle_alpha                90
_cell_angle_beta                 112.69(3)
_cell_angle_gamma                90
_cell_volume                     2420.78
loop_
_atom_site_label
_atom_site_type_symbol
_atom_site_fract_x
_atom_site_fract_y
_atom_site_fract_z
C1 C 0.3011(3) 0.3876(3) 1.08277(17)
C2 C 0.2521(2) 0.4816(2) 1.02191(15)
C3 C 0.1576(2) 0.5480(2) 1.01976(16)
H1 H 0.1217 0.5320 1.0547
C4 C 0.1158(2) 0.6375(2) 0.96663(16)
H2 H 0.0528 0.6812 0.9671
C5 C 0.16520(19) 0.6641(2) 0.91234(14)
C6 C 0.2573(2) 0.5939(2) 0.91267(15)
H3 H 0.2902 0.6067 0.8757
C7 C 0.3006(2) 0.5057(2) 0.96700(16)
H4 H 0.3634 0.4616 0.9667
C8 C 0.11959(19) 0.7616(2) 0.85592(14)
C9 C -0.0001(2) 0.7899(2) 0.82778(15)
H5 H -0.0493 0.7480 0.8456
C10 C -0.0466(2) 0.8782(3) 0.77449(17)
H6 H -0.1259 0.8963 0.7579
C11 C 0.0229(3) 0.9395(3) 0.74581(17)
H7 H -0.0089 0.9987 0.7095
C12 C 0.1410(2) 0.9127(2) 0.77126(15)
H8 H 0.1881 0.9530 0.7508
C13 C 0.1906(2) 0.8264(2) 0.82693(14)
C14 C 0.3224(2) 0.8133(2) 0.85530(15)
C15 C 0.3950(2) 0.3025(2) 1.29637(15)
H9 H 0.3433 0.3581 1.2653
C16 C 0.5241(2) 0.1691(2) 1.33643(16)
H10 H 0.5799 0.1142 1.3376
C17 C 0.4911(2) 0.1928(2) 1.39647(16)
H11 H 0.5186 0.1578 1.4458
C18 C 0.3466(2) 0.3330(3) 1.41482(15)
H12 H 0.3848 0.3130 1.4701
H13 H 0.3498 0.4165 1.4102
C19 C 0.2205(2) 0.2948(2) 1.38470(16)
H14 H 0.1844 0.3105 1.3287
H15 H 0.2180 0.2117 1.3918
C20 C 0.1486(2) 0.3538(3) 1.42526(16)
H16 H 0.1808 0.3345 1.4809
H17 H 0.1528 0.4371 1.4203
C21 C -0.3210(2) 0.5221(2) 1.33917(16)
H18 H -0.3033 0.5535 1.2986
C22 C -0.3946(2) 0.4964(2) 1.42521(14)
H19 H -0.4390 0.5065 1.4556
C23 C -0.3203(2) 0.4074(2) 1.43236(15)
H20 H -0.3033 0.3468 1.4683
C24 C -0.1885(2) 0.3518(3) 1.36195(17)
H21 H -0.2005 0.2717 1.3730
H22 H -0.2008 0.3571 1.3067
C25 C -0.0632(2) 0.3859(2) 1.41142(15)
H23 H -0.0478 0.3736 1.4667
H24 H -0.0521 0.4675 1.4039
C26 C 0.0213(2) 0.3150(3) 1.38860(17)
H25 H 0.0168 0.2351 1.4034
H26 H -0.0038 0.3174 1.3318
Co1 Co 0.47077(3) 0.22484(3) 1.16531(2)
N1 N 0.46295(18) 0.23820(19) 1.27311(12)
N2 N 0.40938(17) 0.2781(2) 1.37056(12)
N3 N -0.39498(17) 0.56930(19) 1.36676(12)
N4 N -0.27506(17) 0.42425(19) 1.37650(13)
O1 O 0.2460(2) 0.3551(2) 1.12183(14)
O2 O 0.40081(18) 0.34675(17) 1.08919(12)
O3 O 0.35878(14) 0.78131(17) 0.80168(10)
O4 O 0.38626(14) 0.83609(17) 0.92317(10)
Co1A Co -0.47077(3) 0.72484(3) 1.33469(2)
Co1B Co 0.52923(3) 0.77516(3) 0.83469(2)
N3A N 0.39498(17) 0.06930(19) 1.13324(12)
O3B O 0.64122(14) 0.21869(17) 1.19832(10)
loop_
_geom_bond_atom_site_label_1
_geom_bond_atom_site_label_2
_geom_bond_site_symmetry_1
_geom_bond_site_symmetry_2
C1 C2 1_555 1_555
C2 C3 1_555 1_555
C3 H1 1_555 1_555
C4 C3 1_555 1_555
H2 C4 1_555 1_555
C5 C4 1_555 1_555
C6 C5 1_555 1_555
H3 C6 1_555 1_555
C7 C2 1_555 1_555
H4 C7 1_555 1_555
C8 C5 1_555 1_555
C9 C8 1_555 1_555
H5 C9 1_555 1_555
C10 C9 1_555 1_555
H6 C10 1_555 1_555
C11 C10 1_555 1_555
H7 C11 1_555 1_555
C12 C11 1_555 1_555
H8 C12 1_555 1_555
C13 C8 1_555 1_555
C14 C13 1_555 1_555
C15 H9 1_555 1_555
C16 H10 1_555 1_555
C17 C16 1_555 1_555
H11 C17 1_555 1_555
C18 H12 1_555 1_555
H13 C18 1_555 1_555
C19 C18 1_555 1_555
H14 C19 1_555 1_555
H15 C19 1_555 1_555
C20 C19 1_555 1_555
H16 C20 1_555 1_555
H17 C20 1_555 1_555
C21 H18 1_555 1_555
C22 H19 1_555 1_555
C23 C22 1_555 1_555
H20 C23 1_555 1_555
C24 H21 1_555 1_555
H22 C24 1_555 1_555
C25 C24 1_555 1_555
H23 C25 1_555 1_555
H24 C25 1_555 1_555
C26 C20 1_555 1_555
H25 C26 1_555 1_555
H26 C26 1_555 1_555
Co1 N1 1_555 1_555
N1 C15 1_555 1_555
N2 C15 1_555 1_555
N3 C21 1_555 1_555
N4 C21 1_555 1_555
O1 C1 1_555 1_555
O2 C1 1_555 1_555
O3 C14 1_555 1_555
O4 C14 1_555 1_555
Co1A N3 1_555 1_555
Co1B O3 1_555 1_555
N3A Co1 1_555 1_555
O3B Co1 1_555 1_555
C6 C7 1_555 1_555
C12 C13 1_555 1_555
C16 N1 1_555 1_555
C17 N2 1_555 1_555
C18 N2 1_555 1_555
C22 N3 1_555 1_555
C23 N4 1_555 1_555
C24 N4 1_555 1_555
C25 C26 1_555 1_555
Co1 O2 1_555 1_555

#END
