
#######################################################################
#
#                 Cambridge Crystallographic Data Centre
#                                CCDC 
#
#######################################################################
#
# If this CIF has been generated from an entry in the Cambridge 
# Structural Database, then it will include bibliographic, chemical, 
# crystal, experimental, refinement or atomic coordinate data resulting 
# from the CCDC's data processing and validation procedures.
#
#######################################################################

data_XUYQUD01
_symmetry_cell_setting           monoclinic
_symmetry_space_group_name_H-M   'P 21/c'
_symmetry_Int_Tables_number      14
_space_group_name_Hall           '-P 2ybc'
loop_
_symmetry_equiv_pos_site_id
_symmetry_equiv_pos_as_xyz
1 x,y,z
2 x,1/2-y,1/2+z
3 -x,-y,-z
4 -x,1/2+y,1/2-z
_cell_length_a                   16.264(3)
_cell_length_b                   15.603(3)
_cell_length_c                   16.343(3)
_cell_angle_alpha                90
_cell_angle_beta                 94.13(3)
_cell_angle_gamma                90
_cell_volume                     4136.55
loop_
_atom_site_label
_atom_site_type_symbol
_atom_site_fract_x
_atom_site_fract_y
_atom_site_fract_z
Zn1 Zn 0.24413(4) 0.44303(4) 0.50795(4)
Zn2 Zn 0.28772(4) 0.77649(4) 0.45955(4)
Zn3 Zn 0.22297(4) 0.10539(4) 0.52699(4)
O1 O 0.3302(2) 0.5380(2) 0.5442(2)
O2 O 0.2031(2) 0.5378(2) 0.4256(2)
O3 O 0.1599(2) 0.3473(2) 0.4698(3)
O4 O 0.2859(2) 0.3471(2) 0.5877(2)
O5 O 0.3483(2) 0.6776(2) 0.5226(2)
O6 O 0.2258(2) 0.6758(2) 0.4009(2)
O7 O 0.3347(2) 0.8748(2) 0.5340(3)
O8 O 0.2134(2) 0.8758(2) 0.4126(3)
O9 O 0.2760(2) 0.2045(2) 0.5972(2)
O10 O 0.1555(2) 0.2051(2) 0.4742(2)
O11 O 0.2995(2) 1.0055(2) 0.5706(3)
O12 O 0.1823(2) 1.0101(2) 0.4438(3)
N1 N 0.3276(3) 0.3869(3) 0.4178(3)
N2 N 0.6235(3) 0.3019(3) 0.1290(3)
N3 N 0.1603(3) 0.4947(3) 0.5975(3)
N4 N -0.1335(3) 0.5683(3) 0.8902(3)
N5 N 0.1905(3) 0.7659(3) 0.5574(3)
N6 N -0.1081(3) 0.7865(3) 0.8533(3)
N7 N 0.3209(3) 0.1278(3) 0.4388(3)
N8 N 0.6133(3) 0.0774(3) 0.1396(3)
C1 C 0.3072(3) 0.3910(4) 0.3375(4)
H1 H 0.2537 0.4069 0.3199
C2 C 0.3620(3) 0.3729(4) 0.2795(4)
H2 H 0.3446 0.3758 0.2241
C3 C 0.4425(3) 0.3504(3) 0.3026(4)
C4 C 0.4628(3) 0.3434(4) 0.3857(4)
H3 H 0.5153 0.3258 0.4050
C5 C 0.4044(3) 0.3629(4) 0.4396(4)
H4 H 0.4198 0.3589 0.4954
C6 C 0.5433(3) 0.2835(4) 0.1133(4)
H5 H 0.5273 0.2585 0.0630
C7 C 0.4836(4) 0.2987(4) 0.1657(4)
H6 H 0.4289 0.2853 0.1505
C8 C 0.5048(3) 0.3342(4) 0.2411(3)
C9 C 0.5878(3) 0.3547(4) 0.2599(4)
H7 H 0.6051 0.3786 0.3103
C10 C 0.6433(3) 0.3386(4) 0.2018(4)
H8 H 0.6979 0.3543 0.2140
C11 C 0.0853(3) 0.5241(4) 0.5765(4)
H9 H 0.0714 0.5335 0.5210
C12 C 0.0265(3) 0.5415(4) 0.6308(4)
H10 H -0.0247 0.5630 0.6122
C13 C 0.0450(3) 0.5265(4) 0.7136(4)
C14 C 0.1255(3) 0.4998(4) 0.7375(4)
H11 H 0.1421 0.4928 0.7927
C15 C 0.1795(4) 0.4841(4) 0.6782(4)
H12 H 0.2323 0.4651 0.6949
C16 C -0.0527(3) 0.5870(4) 0.9067(4)
H13 H -0.0366 0.6108 0.9575
C17 C 0.0061(3) 0.5731(4) 0.8536(4)
H14 H 0.0610 0.5853 0.8694
C18 C -0.0154(3) 0.5402(4) 0.7745(4)
C19 C -0.0990(3) 0.5194(4) 0.7588(4)
H15 H -0.1171 0.4954 0.7086
C20 C -0.1535(4) 0.5338(4) 0.8159(4)
H16 H -0.2083 0.5190 0.8031
C21 C 0.2120(4) 0.7600(4) 0.6373(4)
H17 H 0.2675 0.7526 0.6538
C22 C 0.1568(3) 0.7644(4) 0.6967(4)
H18 H 0.1756 0.7616 0.7518
C23 C 0.0729(3) 0.7731(4) 0.6753(4)
C24 C 0.0503(4) 0.7789(4) 0.5911(4)
H19 H -0.0047 0.7861 0.5726
C25 C 0.1098(3) 0.7739(4) 0.5366(4)
H20 H 0.0931 0.7763 0.4811
C26 C -0.0304(4) 0.8124(4) 0.8695(4)
H21 H -0.0161 0.8342 0.9215
C27 C 0.0305(3) 0.8093(3) 0.8145(4)
H22 H 0.0836 0.8284 0.8297
C28 C 0.0108(3) 0.7773(4) 0.7367(4)
C29 C -0.0712(3) 0.7518(3) 0.7181(4)
H23 H -0.0880 0.7324 0.6657
C30 C -0.1256(4) 0.7556(4) 0.7770(4)
H24 H -0.1788 0.7354 0.7638
C31 C 0.3017(4) 0.1417(4) 0.3576(4)
H25 H 0.2478 0.1578 0.3418
C32 C 0.3552(3) 0.1339(3) 0.2974(4)
H26 H 0.3377 0.1448 0.2430
C33 C 0.4371(3) 0.1092(3) 0.3189(4)
C34 C 0.4581(3) 0.0967(4) 0.4011(4)
H27 H 0.5118 0.0814 0.4187
C35 C 0.4006(3) 0.1065(4) 0.4563(4)
H28 H 0.4176 0.0977 0.5112
C36 C 0.5330(4) 0.0606(4) 0.1222(4)
H29 H 0.5164 0.0415 0.0697
C37 C 0.4739(4) 0.0699(4) 0.1776(4)
H30 H 0.4190 0.0577 0.1619
C38 C 0.4959(3) 0.0974(4) 0.2574(4)
C39 C 0.5812(4) 0.1136(4) 0.2753(4)
H31 H 0.6011 0.1309 0.3275
C40 C 0.6335(4) 0.1031(4) 0.2144(4)
H32 H 0.6889 0.1155 0.2274
C41 C 0.2405(3) 0.6064(3) 0.4383(3)
C42 C 0.3132(3) 0.6076(3) 0.5072(3)
C43 C 0.2553(3) 0.2768(3) 0.5662(3)
C44 C 0.1833(3) 0.2780(3) 0.4984(3)
C45 C 0.2916(3) 0.9410(3) 0.5271(3)
C46 C 0.2233(3) 0.9422(3) 0.4542(3)
N2C N 0.3765(3) 0.8019(3) 0.3710(3)
O11_2 O 0.2995(2) 0.0055(2) 0.5706(3)
O12_2 O 0.1823(2) 0.0101(2) 0.4438(3)
N4C N 0.1335(3) 0.0683(3) 0.6098(3)
Zn3_2 Zn 0.22297(4) 1.10539(4) 0.52699(4)
Zn2C Zn 0.71228(4) 0.27649(4) 0.04045(4)
Zn3C Zn -0.22297(4) 0.60539(4) 0.97301(4)
loop_
_geom_bond_atom_site_label_1
_geom_bond_atom_site_label_2
_geom_bond_site_symmetry_1
_geom_bond_site_symmetry_2
Zn1 O1 1_555 1_555
Zn2 O5 1_555 1_555
Zn3 O9 1_555 1_555
O1 C42 1_555 1_555
O2 Zn1 1_555 1_555
O3 Zn1 1_555 1_555
O4 Zn1 1_555 1_555
O5 C42 1_555 1_555
O6 Zn2 1_555 1_555
O7 Zn2 1_555 1_555
O8 Zn2 1_555 1_555
O9 C43 1_555 1_555
O10 Zn3 1_555 1_555
O11 C45 1_555 1_555
O12 C46 1_555 1_555
N1 Zn1 1_555 1_555
N2 C6 1_555 1_555
N3 Zn1 1_555 1_555
N4 C16 1_555 1_555
N5 Zn2 1_555 1_555
N6 C26 1_555 1_555
N7 Zn3 1_555 1_555
N8 C36 1_555 1_555
C1 N1 1_555 1_555
H1 C1 1_555 1_555
C2 C1 1_555 1_555
H2 C2 1_555 1_555
C3 C2 1_555 1_555
C4 C3 1_555 1_555
H3 C4 1_555 1_555
C5 N1 1_555 1_555
H4 C5 1_555 1_555
C6 H5 1_555 1_555
C7 C6 1_555 1_555
H6 C7 1_555 1_555
C8 C3 1_555 1_555
C9 C8 1_555 1_555
H7 C9 1_555 1_555
C10 N2 1_555 1_555
H8 C10 1_555 1_555
C11 N3 1_555 1_555
H9 C11 1_555 1_555
C12 C11 1_555 1_555
H10 C12 1_555 1_555
C13 C12 1_555 1_555
C14 C13 1_555 1_555
H11 C14 1_555 1_555
C15 N3 1_555 1_555
H12 C15 1_555 1_555
C16 H13 1_555 1_555
C17 C16 1_555 1_555
H14 C17 1_555 1_555
C18 C13 1_555 1_555
C19 C18 1_555 1_555
H15 C19 1_555 1_555
C20 N4 1_555 1_555
H16 C20 1_555 1_555
C21 N5 1_555 1_555
H17 C21 1_555 1_555
C22 C21 1_555 1_555
H18 C22 1_555 1_555
C23 C22 1_555 1_555
C24 C23 1_555 1_555
H19 C24 1_555 1_555
C25 N5 1_555 1_555
H20 C25 1_555 1_555
C26 H21 1_555 1_555
C27 C26 1_555 1_555
H22 C27 1_555 1_555
C28 C23 1_555 1_555
C29 C28 1_555 1_555
H23 C29 1_555 1_555
C30 N6 1_555 1_555
H24 C30 1_555 1_555
C31 N7 1_555 1_555
H25 C31 1_555 1_555
C32 C31 1_555 1_555
H26 C32 1_555 1_555
C33 C32 1_555 1_555
C34 C33 1_555 1_555
H27 C34 1_555 1_555
C35 N7 1_555 1_555
H28 C35 1_555 1_555
C36 H29 1_555 1_555
C37 C36 1_555 1_555
H30 C37 1_555 1_555
C38 C33 1_555 1_555
C39 C38 1_555 1_555
H31 C39 1_555 1_555
C40 N8 1_555 1_555
H32 C40 1_555 1_555
C41 O2 1_555 1_555
C42 C41 1_555 1_555
C43 O4 1_555 1_555
C44 O3 1_555 1_555
C45 O7 1_555 1_555
C46 O8 1_555 1_555
N2C Zn2 1_555 1_555
O11_2 Zn3 1_555 1_555
O12_2 Zn3 1_555 1_555
N4C Zn3 1_555 1_555
Zn3_2 O11 1_555 1_555
Zn2C N2 1_555 1_555
Zn3C N4 1_555 1_555
O6 C41 1_555 1_555
O10 C44 1_555 1_555
O12 Zn3_2 1_555 1_555
C4 C5 1_555 1_555
C7 C8 1_555 1_555
C9 C10 1_555 1_555
C14 C15 1_555 1_555
C17 C18 1_555 1_555
C19 C20 1_555 1_555
C24 C25 1_555 1_555
C27 C28 1_555 1_555
C29 C30 1_555 1_555
C34 C35 1_555 1_555
C37 C38 1_555 1_555
C39 C40 1_555 1_555
C43 C44 1_555 1_555
C45 C46 1_555 1_555

#END
