
#######################################################################
#
#                 Cambridge Crystallographic Data Centre
#                                CCDC 
#
#######################################################################
#
# If this CIF has been generated from an entry in the Cambridge 
# Structural Database, then it will include bibliographic, chemical, 
# crystal, experimental, refinement or atomic coordinate data resulting 
# from the CCDC's data processing and validation procedures.
#
#######################################################################

data_XUYQUD
_symmetry_cell_setting           monoclinic
_symmetry_space_group_name_H-M   'P 21/c'
_symmetry_Int_Tables_number      14
_space_group_name_Hall           '-P 2ybc'
loop_
_symmetry_equiv_pos_site_id
_symmetry_equiv_pos_as_xyz
1 x,y,z
2 x,1/2-y,1/2+z
3 -x,-y,-z
4 -x,1/2+y,1/2-z
_cell_length_a                   16.2513(9)
_cell_length_b                   15.5891(9)
_cell_length_c                   16.3760(10)
_cell_angle_alpha                90
_cell_angle_beta                 94.0000(10)
_cell_angle_gamma                90
_cell_volume                     4138.64
loop_
_atom_site_label
_atom_site_type_symbol
_atom_site_fract_x
_atom_site_fract_y
_atom_site_fract_z
Zn1 Zn 0.212276(14) 0.223542(15) 0.540413(13)
Zn2 Zn -0.255890(14) 0.056870(15) 1.007840(13)
Zn3 Zn 0.277020(14) -0.105410(15) 0.472940(13)
C1 C 0.38994(14) 0.22574(15) 0.46346(13)
H1 H 0.4064 0.2224 0.5189
C2 C 0.44983(13) 0.22198(15) 0.40844(12)
H2 H 0.5050 0.2162 0.4266
C3 C 0.42690(13) 0.22697(14) 0.32504(12)
C4 C 0.34332(14) 0.23570(16) 0.30266(13)
H3 H 0.3248 0.2391 0.2477
C5 C 0.28830(14) 0.23925(16) 0.36259(13)
H4 H 0.2327 0.2459 0.3464
C6 C 0.53035(14) 0.18777(14) 0.12985(12)
H5 H 0.5162 0.1664 0.0777
C7 C 0.46970(13) 0.19094(14) 0.18474(12)
H6 H 0.4164 0.1725 0.1695
C8 C 0.48948(13) 0.22205(13) 0.26295(12)
C9 C 0.57061(13) 0.24864(14) 0.28169(12)
H7 H 0.5869 0.2696 0.3335
C10 C 0.62594(13) 0.24326(14) 0.22212(13)
H8 H 0.6797 0.2617 0.2352
C11 C -0.41434(13) -0.02419(14) 1.07579(12)
H9 H -0.4280 -0.0342 1.0205
C12 C -0.47297(13) -0.04105(15) 1.13054(12)
H10 H -0.5246 -0.0619 1.1121
C13 C -0.45432(13) -0.02669(14) 1.21324(12)
C14 C -0.37499(13) 0.00060(14) 1.23703(12)
H11 H -0.3587 0.0081 1.2921
C15 C -0.32071(13) 0.01639(14) 1.17777(12)
H12 H -0.2681 0.0356 1.1946
C16 C -0.65365(13) -0.03398(14) 1.31646(12)
H13 H -0.7085 -0.0188 1.3046
C17 C -0.59877(13) -0.01942(14) 1.25766(12)
H14 H -0.6167 0.0039 1.2072
C18 C -0.51600(12) -0.04007(14) 1.27476(12)
C19 C -0.49316(13) -0.07329(15) 1.35154(12)
H15 H -0.4382 -0.0863 1.3661
C20 C -0.55288(13) -0.08683(15) 1.40616(12)
H16 H -0.5367 -0.1098 1.4572
C21 C -0.19228(13) 0.10883(14) 0.83791(12)
H17 H -0.2460 0.0934 0.8206
C22 C -0.13816(13) 0.12677(14) 0.77895(12)
H18 H -0.1556 0.1238 0.7237
C23 C -0.05740(12) 0.14931(13) 0.80296(12)
C24 C -0.03684(13) 0.15605(14) 0.88648(12)
H19 H 0.0160 0.1727 0.9056
C25 C -0.09566(13) 0.13775(14) 0.94064(12)
H20 H -0.0810 0.1436 0.9963
C26 C 0.04330(13) 0.21637(14) 0.61241(12)
H21 H 0.0276 0.2410 0.5620
C27 C -0.01708(13) 0.20085(14) 0.66581(12)
H22 H -0.0719 0.2140 0.6508
C28 C 0.00467(12) 0.16540(13) 0.74205(12)
C29 C 0.08766(13) 0.14538(14) 0.75976(12)
H23 H 0.1051 0.1211 0.8099
C30 C 0.14353(13) 0.16192(14) 0.70214(12)
H24 H 0.1985 0.1473 0.7146
C31 C 0.19895(13) -0.14219(14) 0.64158(13)
H25 H 0.2528 -0.1589 0.6568
C32 C 0.14466(13) -0.13412(14) 0.70196(12)
H26 H 0.1619 -0.1451 0.7563
C33 C 0.06367(13) -0.10932(14) 0.68067(12)
C34 C 0.04187(13) -0.09647(15) 0.59786(12)
H27 H -0.0119 -0.0813 0.5805
C35 C 0.10000(13) -0.10634(15) 0.54223(12)
H28 H 0.0840 -0.0979 0.4872
C36 C -0.03329(14) -0.06098(14) 0.87765(12)
H29 H -0.0169 -0.0424 0.9302
C37 C 0.02662(14) -0.06990(14) 0.82223(12)
H30 H 0.0816 -0.0577 0.8375
C38 C 0.00307(13) -0.09738(14) 0.74354(12)
C39 C -0.08019(13) -0.11331(15) 0.72434(12)
H31 H -0.0988 -0.1306 0.6719
C40 C -0.13460(14) -0.10290(15) 0.78458(13)
H32 H -0.1900 -0.1145 0.7712
C41 C 0.25879(11) 0.39357(13) 0.56133(11)
C42 C 0.18684(12) 0.39300(13) 0.49296(11)
C43 C -0.31635(12) 0.22336(13) 0.99790(11)
C44 C -0.24516(12) 0.22363(13) 1.06740(11)
C45 C 0.27700(12) 0.05784(13) 0.54514(11)
C46 C 0.20833(12) 0.05928(13) 0.47324(11)
N1 N 0.30966(11) 0.23381(11) 0.44239(10)
N2 N 0.60758(11) 0.21336(12) 0.14674(10)
N3 N -0.33911(10) 0.00573(11) 1.09767(10)
N4 N -0.63251(10) -0.06876(11) 1.38980(9)
N5 N -0.17217(10) 0.11229(11) 0.91829(9)
N6 N 0.12292(11) 0.19798(11) 0.62900(10)
N7 N 0.17878(11) -0.12749(11) 0.56238(10)
N8 N -0.11292(11) -0.07739(12) 0.86025(10)
O1 O 0.27458(8) 0.32442(8) 0.59861(7)
O2 O 0.15139(8) 0.32254(8) 0.47828(8)
O3 O 0.29694(8) 0.46274(9) 0.57468(7)
O4 O 0.17042(8) 0.46186(9) 0.45631(8)
O5 O -0.34002(8) 0.15227(9) 0.96924(8)
O6 O -0.21338(8) 0.15290(9) 1.08810(7)
O7 O -0.34491(8) 0.29475(8) 0.97465(7)
O8 O -0.22380(8) 0.29515(8) 1.09705(7)
O9 O 0.31780(8) -0.00972(9) 0.55560(8)
O10 O 0.20075(8) -0.00561(9) 0.42843(8)
O11 O 0.28663(8) 0.12423(9) 0.58783(8)
O12 O 0.16451(8) 0.12527(9) 0.46592(8)
O3C O -0.29694(8) -0.03726(9) 0.92532(7)
O4C O -0.17042(8) -0.03814(9) 1.04369(8)
N4_2 N 0.36749(10) -0.06876(11) 0.38980(9)
O7C O 0.34491(8) -0.20525(8) 0.52535(7)
O8C O 0.22380(8) -0.20485(8) 0.40295(7)
Zn3_2 Zn -0.722980(14) -0.105410(15) 1.472940(13)
Zn2C Zn 0.255890(14) 0.556870(15) 0.492160(13)
Zn3C Zn -0.277020(14) 0.394590(15) 1.027060(13)
loop_
_geom_bond_atom_site_label_1
_geom_bond_atom_site_label_2
_geom_bond_site_symmetry_1
_geom_bond_site_symmetry_2
Zn1 N1 1_555 1_555
Zn2 N3 1_555 1_555
Zn3 N7 1_555 1_555
C1 H1 1_555 1_555
C2 C1 1_555 1_555
H2 C2 1_555 1_555
C3 C2 1_555 1_555
C4 C3 1_555 1_555
H3 C4 1_555 1_555
C5 C4 1_555 1_555
H4 C5 1_555 1_555
C6 H5 1_555 1_555
C7 C6 1_555 1_555
H6 C7 1_555 1_555
C8 C3 1_555 1_555
C9 C8 1_555 1_555
H7 C9 1_555 1_555
C10 C9 1_555 1_555
H8 C10 1_555 1_555
C11 H9 1_555 1_555
C12 C11 1_555 1_555
H10 C12 1_555 1_555
C13 C12 1_555 1_555
C14 C13 1_555 1_555
H11 C14 1_555 1_555
C15 C14 1_555 1_555
H12 C15 1_555 1_555
C16 H13 1_555 1_555
C17 C16 1_555 1_555
H14 C17 1_555 1_555
C18 C13 1_555 1_555
C19 C18 1_555 1_555
H15 C19 1_555 1_555
C20 C19 1_555 1_555
H16 C20 1_555 1_555
C21 H17 1_555 1_555
C22 C21 1_555 1_555
H18 C22 1_555 1_555
C23 C22 1_555 1_555
C24 C23 1_555 1_555
H19 C24 1_555 1_555
C25 C24 1_555 1_555
H20 C25 1_555 1_555
C26 H21 1_555 1_555
C27 C26 1_555 1_555
H22 C27 1_555 1_555
C28 C23 1_555 1_555
C29 C28 1_555 1_555
H23 C29 1_555 1_555
C30 C29 1_555 1_555
H24 C30 1_555 1_555
C31 H25 1_555 1_555
C32 C31 1_555 1_555
H26 C32 1_555 1_555
C33 C32 1_555 1_555
C34 C33 1_555 1_555
H27 C34 1_555 1_555
C35 C34 1_555 1_555
H28 C35 1_555 1_555
C36 H29 1_555 1_555
C37 C36 1_555 1_555
H30 C37 1_555 1_555
C38 C33 1_555 1_555
C39 C38 1_555 1_555
H31 C39 1_555 1_555
C40 C39 1_555 1_555
H32 C40 1_555 1_555
C41 C42 1_555 1_555
C42 O2 1_555 1_555
C43 C44 1_555 1_555
C44 O6 1_555 1_555
C45 C46 1_555 1_555
C46 O10 1_555 1_555
N1 C1 1_555 1_555
N2 C6 1_555 1_555
N3 C11 1_555 1_555
N4 C16 1_555 1_555
N5 Zn2 1_555 1_555
N6 Zn1 1_555 1_555
N7 C31 1_555 1_555
N8 C36 1_555 1_555
O1 Zn1 1_555 1_555
O2 Zn1 1_555 1_555
O3 C41 1_555 1_555
O4 C42 1_555 1_555
O5 Zn2 1_555 1_555
O6 Zn2 1_555 1_555
O7 C43 1_555 1_555
O8 C44 1_555 1_555
O9 Zn3 1_555 1_555
O10 Zn3 1_555 1_555
O11 Zn1 1_555 1_555
O12 Zn1 1_555 1_555
O3C Zn2 1_555 1_555
O4C Zn2 1_555 1_555
N4_2 Zn3 1_555 1_555
O7C Zn3 1_555 1_555
O8C Zn3 1_555 1_555
Zn3_2 N4 1_555 1_555
Zn2C O3 1_555 1_555
Zn3C O7 1_555 1_555
C5 N1 1_555 1_555
C7 C8 1_555 1_555
C10 N2 1_555 1_555
C15 N3 1_555 1_555
C17 C18 1_555 1_555
C20 N4 1_555 1_555
C21 N5 1_555 1_555
C25 N5 1_555 1_555
C26 N6 1_555 1_555
C27 C28 1_555 1_555
C30 N6 1_555 1_555
C35 N7 1_555 1_555
C37 C38 1_555 1_555
C40 N8 1_555 1_555
C41 O1 1_555 1_555
C43 O5 1_555 1_555
C45 O9 1_555 1_555
C45 O11 1_555 1_555
C46 O12 1_555 1_555
O4 Zn2C 1_555 1_555
O8 Zn3C 1_555 1_555

#END
