
#######################################################################
#
#                 Cambridge Crystallographic Data Centre
#                                CCDC 
#
#######################################################################
#
# If this CIF has been generated from an entry in the Cambridge 
# Structural Database, then it will include bibliographic, chemical, 
# crystal, experimental, refinement or atomic coordinate data resulting 
# from the CCDC's data processing and validation procedures.
#
#######################################################################

data_XUYQUD02
_symmetry_cell_setting           monoclinic
_symmetry_space_group_name_H-M   'P 21/c'
_symmetry_Int_Tables_number      14
_space_group_name_Hall           '-P 2ybc'
loop_
_symmetry_equiv_pos_site_id
_symmetry_equiv_pos_as_xyz
1 x,y,z
2 -x,1/2+y,1/2-z
3 -x,-y,-z
4 x,1/2-y,1/2+z
_cell_length_a                   16.293(3)
_cell_length_b                   15.589(3)
_cell_length_c                   16.355(3)
_cell_angle_alpha                90
_cell_angle_beta                 93.92(3)
_cell_angle_gamma                90
_cell_volume                     4144.31
loop_
_atom_site_label
_atom_site_type_symbol
_atom_site_fract_x
_atom_site_fract_y
_atom_site_fract_z
C1 C 0.6924(9) -0.8877(11) 0.1611(9)
H1 H 0.7471 -0.8987 0.1780
C2 C 0.1830(7) -0.2770(7) 0.4984(7)
C3 C 0.2542(7) -0.2768(8) 0.5684(7)
C4 C 0.2429(9) -0.6080(8) 0.4410(7)
C5 C 0.2229(8) 0.0571(9) 0.4536(8)
C6 C 0.2901(9) 0.0584(8) 0.5239(8)
C7 C 0.3104(8) -0.6081(8) 0.5065(9)
C8 C 0.0736(9) -0.7752(10) 0.6752(8)
C9 C 0.4363(8) -0.1111(9) 0.3188(8)
C10 C 0.5565(8) -0.8531(9) 0.1969(8)
C11 C -0.0173(8) -0.5380(10) 0.7747(9)
C12 C 0.3578(9) -0.8322(11) 0.2965(8)
H2 H 0.3021 -0.8388 0.2814
C13 C 0.1251(9) -0.4984(11) 0.7360(10)
H3 H 0.1415 -0.4896 0.7910
C14 C 0.0450(8) -0.5266(10) 0.7127(9)
C15 C 0.0109(8) -0.7769(10) 0.7372(8)
C16 C 0.5378(9) -0.8426(12) 0.1134(9)
H4 H 0.4873 -0.8201 0.0941
C17 C 0.1780(10) -0.4845(11) 0.6774(9)
H5 H 0.2310 -0.4669 0.6941
C18 C 0.4726(10) -0.0721(11) 0.1775(9)
H6 H 0.4174 -0.0642 0.1611
C19 C 0.5177(9) -0.7982(12) 0.3342(9)
H7 H 0.5726 -0.7862 0.3491
C20 C 0.0044(9) -0.5724(11) 0.8521(9)
H8 H 0.0589 -0.5863 0.8666
C21 C 0.5350(11) -0.0589(11) 0.1211(10)
H9 H 0.5201 -0.0357 0.0698
C22 C 0.6384(9) -0.8723(11) 0.2215(9)
H10 H 0.6561 -0.8746 0.2768
C23 C 0.4948(8) -0.8330(9) 0.2579(8)
C24 C 0.4128(9) -0.8546(14) 0.2390(9)
H11 H 0.3958 -0.8826 0.1905
C25 C -0.0990(9) -0.5201(10) 0.7594(9)
H12 H -0.1175 -0.4993 0.7081
C26 C 0.4577(10) -0.7817(12) 0.3873(9)
H13 H 0.4727 -0.7553 0.4371
C27 C 0.0258(9) -0.5388(10) 0.6305(9)
H14 H -0.0270 -0.5559 0.6122
C28 C 0.4959(9) -0.0965(10) 0.2559(9)
C29 C 0.3545(9) -0.1343(11) 0.2976(9)
H15 H 0.3371 -0.1458 0.2434
C30 C 0.3008(9) -0.1399(11) 0.3577(9)
H16 H 0.2465 -0.1538 0.3422
C31 C -0.1255(9) -0.7556(8) 0.7790(8)
H17 H -0.1788 -0.7362 0.7660
C32 C 0.3993(10) -0.1097(13) 0.4570(10)
H18 H 0.4159 -0.1065 0.5124
C33 C 0.4576(9) -0.0964(12) 0.4013(9)
H19 H 0.5102 -0.0780 0.4186
C34 C -0.1534(10) -0.5320(10) 0.8167(9)
H20 H -0.2077 -0.5151 0.8048
C35 C 0.0297(10) -0.8088(12) 0.8175(9)
H21 H 0.0826 -0.8275 0.8336
C36 C 0.1561(9) -0.7663(13) 0.6971(9)
H22 H 0.1738 -0.7615 0.7522
C37 C -0.0525(10) -0.5854(11) 0.9047(9)
H23 H -0.0356 -0.6089 0.9553
C38 C 0.5800(9) -0.1107(12) 0.2753(10)
H24 H 0.5990 -0.1281 0.3276
C39 C 0.0844(9) -0.5259(11) 0.5753(8)
H25 H 0.0720 -0.5396 0.5205
C40 C -0.0702(9) -0.7528(12) 0.7186(9)
H26 H -0.0872 -0.7349 0.6659
C41 C 0.0514(9) -0.7758(13) 0.5914(9)
H27 H -0.0039 -0.7767 0.5731
C42 C -0.0300(9) -0.8114(9) 0.8700(9)
H28 H -0.0166 -0.8341 0.9218
C43 C 0.1102(9) -0.7751(12) 0.5362(9)
H29 H 0.0934 -0.7792 0.4808
C44 C 0.2131(9) -0.7643(13) 0.6382(9)
H30 H 0.2686 -0.7595 0.6552
C45 C 0.6341(11) -0.0979(12) 0.2143(10)
H31 H 0.6899 -0.1040 0.2292
C46 C 0.5961(9) -0.8665(11) 0.0585(9)
H32 H 0.5797 -0.8671 0.0029
N1 N 0.3206(7) -0.1268(8) 0.4364(7)
N2 N 0.6145(8) -0.0789(7) 0.1401(7)
N3 N -0.1329(7) -0.5671(8) 0.8906(7)
N4 N 0.1598(7) -0.4939(8) 0.5983(7)
N5 N 0.3771(7) -0.8025(6) 0.3700(7)
N6 N 0.6718(7) -0.8878(7) 0.0804(6)
N7 N 0.1918(7) -0.7688(9) 0.5571(6)
N8 N -0.1074(8) -0.7841(11) 0.8538(8)
O1 O 0.2985(6) -0.0059(6) 0.5703(6)
O2 O 0.1830(6) -0.0093(7) 0.4459(6)
O3 O 0.3370(5) 0.1258(6) 0.5346(6)
O4 O 0.2133(5) 0.1256(6) 0.4110(5)
O5 O 0.2772(5) -0.2037(5) 0.5976(5)
O6 O 0.1534(5) -0.2037(6) 0.4728(5)
O7 O 0.2843(5) -0.3467(6) 0.5868(5)
O8 O 0.1619(5) -0.3465(6) 0.4703(5)
O9 O 0.3302(5) -0.5364(6) 0.5449(5)
O10 O 0.2022(5) -0.5369(6) 0.4245(5)
O11 O 0.3470(5) -0.6775(6) 0.5218(5)
O12 O 0.2270(5) -0.6755(6) 0.4034(5)
Zn1 Zn 0.28807(9) -0.77674(10) 0.45998(9)
Zn2 Zn 0.22279(9) -0.10523(10) 0.52708(9)
Zn3 Zn 0.24399(9) -0.44326(10) 0.50764(9)
N3A N 0.1329(7) -0.0671(8) 0.6094(7)
N6A N 0.3282(7) -0.3878(7) 0.4196(6)
O3_2 O 0.3370(5) -0.8742(6) 0.5346(6)
O4_2 O 0.2133(5) -0.8744(6) 0.4110(5)
Zn1_2 Zn 0.28807(9) 0.22326(10) 0.45998(9)
Zn2A Zn -0.22279(9) -0.60523(10) 0.97292(9)
Zn3A Zn 0.75601(9) -0.94326(10) -0.00764(9)
loop_
_geom_bond_atom_site_label_1
_geom_bond_atom_site_label_2
_geom_bond_site_symmetry_1
_geom_bond_site_symmetry_2
C1 H1 1_555 1_555
C2 C3 1_555 1_555
C3 O5 1_555 1_555
C4 C7 1_555 1_555
C5 C6 1_555 1_555
C6 O1 1_555 1_555
C7 O9 1_555 1_555
C8 C15 1_555 1_555
C9 C28 1_555 1_555
C10 C16 1_555 1_555
C11 C14 1_555 1_555
C12 H2 1_555 1_555
C13 H3 1_555 1_555
C14 C13 1_555 1_555
C15 C35 1_555 1_555
C16 H4 1_555 1_555
C17 C13 1_555 1_555
H5 C17 1_555 1_555
C18 H6 1_555 1_555
C19 H7 1_555 1_555
C20 C11 1_555 1_555
H8 C20 1_555 1_555
C21 C18 1_555 1_555
H9 C21 1_555 1_555
C22 C1 1_555 1_555
H10 C22 1_555 1_555
C23 C10 1_555 1_555
C24 C12 1_555 1_555
H11 C24 1_555 1_555
C25 C11 1_555 1_555
H12 C25 1_555 1_555
C26 C19 1_555 1_555
H13 C26 1_555 1_555
C27 C14 1_555 1_555
H14 C27 1_555 1_555
C28 C18 1_555 1_555
C29 C9 1_555 1_555
H15 C29 1_555 1_555
C30 C29 1_555 1_555
H16 C30 1_555 1_555
C31 H17 1_555 1_555
C32 H18 1_555 1_555
C33 C9 1_555 1_555
H19 C33 1_555 1_555
C34 C25 1_555 1_555
H20 C34 1_555 1_555
C35 H21 1_555 1_555
C36 C8 1_555 1_555
H22 C36 1_555 1_555
C37 C20 1_555 1_555
H23 C37 1_555 1_555
C38 C28 1_555 1_555
H24 C38 1_555 1_555
C39 C27 1_555 1_555
H25 C39 1_555 1_555
C40 C15 1_555 1_555
H26 C40 1_555 1_555
C41 C8 1_555 1_555
H27 C41 1_555 1_555
C42 C35 1_555 1_555
H28 C42 1_555 1_555
C43 C41 1_555 1_555
H29 C43 1_555 1_555
C44 C36 1_555 1_555
H30 C44 1_555 1_555
C45 C38 1_555 1_555
H31 C45 1_555 1_555
C46 C16 1_555 1_555
H32 C46 1_555 1_555
N1 C30 1_555 1_555
N2 C21 1_555 1_555
N3 C34 1_555 1_555
N4 C17 1_555 1_555
N5 C12 1_555 1_555
N6 C1 1_555 1_555
N7 C43 1_555 1_555
N8 C31 1_555 1_555
O1 Zn2 1_555 1_555
O2 C5 1_555 1_555
O3 C6 1_555 1_555
O4 C5 1_555 1_555
O5 Zn2 1_555 1_555
O6 C2 1_555 1_555
O7 C3 1_555 1_555
O8 C2 1_555 1_555
O9 Zn3 1_555 1_555
O10 C4 1_555 1_555
O11 C7 1_555 1_555
O12 C4 1_555 1_555
Zn1 N5 1_555 1_555
Zn2 N1 1_555 1_555
Zn3 N4 1_555 1_555
N3A Zn2 1_555 1_555
N6A Zn3 1_555 1_555
O3_2 Zn1 1_555 1_555
O4_2 Zn1 1_555 1_555
Zn1_2 O3 1_555 1_555
Zn2A N3 1_555 1_555
Zn3A N6 1_555 1_555
C10 C22 1_555 1_555
C19 C23 1_555 1_555
C23 C24 1_555 1_555
C26 N5 1_555 1_555
C31 C40 1_555 1_555
C32 C33 1_555 1_555
C32 N1 1_555 1_555
C37 N3 1_555 1_555
C39 N4 1_555 1_555
C42 N8 1_555 1_555
C44 N7 1_555 1_555
C45 N2 1_555 1_555
C46 N6 1_555 1_555
N7 Zn1 1_555 1_555
O2 Zn2 1_555 1_555
O4 Zn1_2 1_555 1_555
O6 Zn2 1_555 1_555
O7 Zn3 1_555 1_555
O8 Zn3 1_555 1_555
O10 Zn3 1_555 1_555
O11 Zn1 1_555 1_555
O12 Zn1 1_555 1_555

#END
