
#######################################################################
#
#                 Cambridge Crystallographic Data Centre
#                                CCDC 
#
#######################################################################
#
# If this CIF has been generated from an entry in the Cambridge 
# Structural Database, then it will include bibliographic, chemical, 
# crystal, experimental, refinement or atomic coordinate data resulting 
# from the CCDC's data processing and validation procedures.
#
#######################################################################

data_XUYXOF
_symmetry_cell_setting           monoclinic
_symmetry_space_group_name_H-M   'P 21/c'
_symmetry_Int_Tables_number      14
_space_group_name_Hall           '-P 2ybc'
loop_
_symmetry_equiv_pos_site_id
_symmetry_equiv_pos_as_xyz
1 x,y,z
2 -x,1/2+y,1/2-z
3 -x,-y,-z
4 x,1/2-y,1/2+z
_cell_length_a                   14.4039(14)
_cell_length_b                   14.2659(13)
_cell_length_c                   16.5825(16)
_cell_angle_alpha                90
_cell_angle_beta                 111.712(1)
_cell_angle_gamma                90
_cell_volume                     3165.71
loop_
_atom_site_label
_atom_site_type_symbol
_atom_site_fract_x
_atom_site_fract_y
_atom_site_fract_z
Zn1 Zn 0.10216(2) 0.66499(2) 0.19607(2)
Zn2 Zn 0.37848(2) 0.67412(2) 0.32467(2)
C1 C 0.0199(3) 0.7226(3) 0.3357(2)
H1 H 0.0090 0.6587 0.3384
C2 C -0.0073(3) 0.7823(3) 0.3885(3)
H2 H -0.0353 0.7590 0.4268
C3 C 0.0078(3) 0.8764(3) 0.3835(3)
H3 H -0.0102 0.9183 0.4181
C4 C 0.0494(3) 0.9080(3) 0.3269(2)
H4 H 0.0597 0.9718 0.3224
C5 C 0.0762(2) 0.8450(2) 0.2764(2)
C6 C 0.1198(2) 0.8722(2) 0.2120(2)
C7 C 0.1407(3) 0.9650(2) 0.1983(3)
H5 H 0.1315 1.0131 0.2325
C8 C 0.1749(3) 0.9835(3) 0.1333(3)
H6 H 0.1888 1.0449 0.1226
C9 C 0.1889(3) 0.9116(3) 0.0836(3)
H7 H 0.2111 0.9238 0.0386
C10 C 0.1695(3) 0.8217(3) 0.1018(2)
H8 H 0.1799 0.7728 0.0691
C11 C 0.3141(3) 0.8136(3) 0.4337(2)
H9 H 0.2899 0.7612 0.4530
C12 C 0.3179(3) 0.8972(3) 0.4753(3)
H10 H 0.2959 0.9016 0.5213
C13 C 0.3548(3) 0.9743(3) 0.4475(3)
H11 H 0.3596 1.0316 0.4756
C14 C 0.3844(3) 0.9662(3) 0.3782(3)
H12 H 0.4081 1.0181 0.3579
C15 C 0.3784(2) 0.8794(2) 0.3387(2)
C16 C 0.4088(2) 0.8631(2) 0.2637(2)
C17 C 0.4296(3) 0.9344(3) 0.2163(3)
H13 H 0.4276 0.9966 0.2324
C18 C 0.4531(3) 0.9131(3) 0.1461(3)
H14 H 0.4660 0.9604 0.1132
C19 C 0.4573(3) 0.8212(4) 0.1248(2)
H15 H 0.4735 0.8053 0.0772
C20 C 0.4372(3) 0.7521(3) 0.1743(2)
H16 H 0.4408 0.6897 0.1597
C21 C 0.2114(2) -0.0535(2) -0.15009(19)
C22 C 0.2195(2) 0.03223(19) -0.09660(17)
C23 C 0.3128(2) 0.0678(2) -0.04544(18)
H17 H 0.3702 0.0348 -0.0410
C24 C 0.3214(2) 0.1517(2) -0.00097(18)
C25 C 0.2349(2) 0.19988(19) -0.00334(17)
C26 C 0.1423(2) 0.1593(2) -0.05083(18)
H18 H 0.0843 0.1878 -0.0506
C27 C 0.1347(2) 0.0785(2) -0.09788(18)
H19 H 0.0720 0.0547 -0.1309
C28 C 0.4249(2) 0.1918(2) 0.04253(19)
C29 C 0.2733(2) 0.5515(2) 0.18008(18)
C30 C 0.2577(2) 0.4585(2) 0.13523(18)
C31 C 0.1879(2) 0.4491(2) 0.05107(18)
H20 H 0.1461 0.4993 0.0254
C32 C 0.17938(19) 0.3664(2) 0.00482(17)
C33 C 0.2402(2) 0.2890(2) 0.04403(18)
C34 C 0.3038(2) 0.2977(2) 0.13059(19)
H21 H 0.3408 0.2459 0.1589
C35 C 0.3135(2) 0.3805(2) 0.17521(19)
H22 H 0.3578 0.3843 0.2326
C36 C 0.1036(2) 0.36405(19) -0.08727(19)
N1 N 0.06130(19) 0.75310(18) 0.28099(16)
N2 N 0.13596(18) 0.80196(18) 0.16545(16)
N3 N 0.34373(18) 0.80373(18) 0.36641(16)
N4 N 0.41267(19) 0.77231(19) 0.24282(16)
O1 O 0.20974(15) 0.61509(14) 0.15034(13)
O2 O 0.35284(15) 0.56179(15) 0.24583(13)
O3 O 0.01292(14) 0.36744(15) -0.09163(12)
O4 O 0.13036(16) 0.36244(17) -0.14914(13)
O5 O 0.13362(16) -0.06029(14) -0.21795(13)
O6 O 0.27953(17) -0.11323(15) -0.12503(14)
O7 O 0.44314(16) 0.27043(16) 0.02363(16)
O8 O 0.48807(15) 0.13605(15) 0.09494(14)
Zn1B Zn -0.10216(2) 0.33501(2) -0.19607(2)
Zn1C Zn 0.10216(2) -0.16499(2) -0.30393(2)
Zn2C Zn 0.37848(2) -0.17412(2) -0.17533(2)
Zn2A Zn 0.62152(2) 0.17412(2) 0.17533(2)
O3B O -0.01292(14) 0.63256(15) 0.09163(12)
O5C O 0.13362(16) 0.56029(14) 0.28205(13)
O6C O 0.27953(17) 0.61323(15) 0.37497(14)
O8A O 0.51193(15) 0.63605(15) 0.40506(14)
O9 O 0.3229(3) 0.1856(2) 0.3361(3)
H23 H 0.3735 0.1619 0.3756
H24 H 0.2703 0.1851 0.2899
loop_
_geom_bond_atom_site_label_1
_geom_bond_atom_site_label_2
_geom_bond_site_symmetry_1
_geom_bond_site_symmetry_2
Zn1 N1 1_555 1_555
Zn2 N3 1_555 1_555
C1 H1 1_555 1_555
C2 C1 1_555 1_555
H2 C2 1_555 1_555
C3 C2 1_555 1_555
H3 C3 1_555 1_555
C4 C3 1_555 1_555
H4 C4 1_555 1_555
C5 C4 1_555 1_555
C6 C5 1_555 1_555
C7 C6 1_555 1_555
H5 C7 1_555 1_555
C8 C7 1_555 1_555
H6 C8 1_555 1_555
C9 C8 1_555 1_555
H7 C9 1_555 1_555
C10 C9 1_555 1_555
H8 C10 1_555 1_555
C11 H9 1_555 1_555
C12 C11 1_555 1_555
H10 C12 1_555 1_555
C13 C12 1_555 1_555
H11 C13 1_555 1_555
C14 C13 1_555 1_555
H12 C14 1_555 1_555
C15 C14 1_555 1_555
C16 C15 1_555 1_555
C17 C16 1_555 1_555
H13 C17 1_555 1_555
C18 C17 1_555 1_555
H14 C18 1_555 1_555
C19 C18 1_555 1_555
H15 C19 1_555 1_555
C20 C19 1_555 1_555
H16 C20 1_555 1_555
C21 C22 1_555 1_555
C22 C23 1_555 1_555
C23 H17 1_555 1_555
C24 C23 1_555 1_555
C25 C24 1_555 1_555
C26 C25 1_555 1_555
H18 C26 1_555 1_555
C27 C22 1_555 1_555
H19 C27 1_555 1_555
C28 C24 1_555 1_555
C29 C30 1_555 1_555
C30 C31 1_555 1_555
C31 H20 1_555 1_555
C32 C31 1_555 1_555
C33 C25 1_555 1_555
C34 C33 1_555 1_555
H21 C34 1_555 1_555
C35 C30 1_555 1_555
H22 C35 1_555 1_555
C36 C32 1_555 1_555
N1 C1 1_555 1_555
N2 Zn1 1_555 1_555
N3 C11 1_555 1_555
N4 Zn2 1_555 1_555
O1 Zn1 1_555 1_555
O2 Zn2 1_555 1_555
O3 C36 1_555 1_555
O4 C36 1_555 1_555
O5 C21 1_555 1_555
O6 C21 1_555 1_555
O7 C28 1_555 1_555
O8 C28 1_555 1_555
O9 H23 1_555 1_555
H24 O9 1_555 1_555
Zn1B O3 1_555 1_555
Zn1C O5 1_555 1_555
Zn2C O6 1_555 1_555
Zn2A O8 1_555 1_555
O3B Zn1 1_555 1_555
O5C Zn1 1_555 1_555
O6C Zn2 1_555 1_555
O8A Zn2 1_555 1_555
C5 N1 1_555 1_555
C6 N2 1_555 1_555
C10 N2 1_555 1_555
C15 N3 1_555 1_555
C16 N4 1_555 1_555
C20 N4 1_555 1_555
C26 C27 1_555 1_555
C29 O1 1_555 1_555
C29 O2 1_555 1_555
C32 C33 1_555 1_555
C34 C35 1_555 1_555

#END
