
#######################################################################
#
#                 Cambridge Crystallographic Data Centre
#                                CCDC 
#
#######################################################################
#
# If this CIF has been generated from an entry in the Cambridge 
# Structural Database, then it will include bibliographic, chemical, 
# crystal, experimental, refinement or atomic coordinate data resulting 
# from the CCDC's data processing and validation procedures.
#
#######################################################################

data_XUYXIZ
_symmetry_cell_setting           triclinic
_symmetry_space_group_name_H-M   'P -1'
_symmetry_Int_Tables_number      2
_space_group_name_Hall           '-P 1'
loop_
_symmetry_equiv_pos_site_id
_symmetry_equiv_pos_as_xyz
1 x,y,z
2 -x,-y,-z
_cell_length_a                   8.7902(15)
_cell_length_b                   11.4610(19)
_cell_length_c                   12.866(2)
_cell_angle_alpha                85.175(2)
_cell_angle_beta                 72.094(2)
_cell_angle_gamma                69.382(2)
_cell_volume                     1153.97
loop_
_atom_site_label
_atom_site_type_symbol
_atom_site_fract_x
_atom_site_fract_y
_atom_site_fract_z
Zn1 Zn 0.58156(7) 0.36016(5) 0.28071(5)
Zn2 Zn 0.5000 0.5000 0.5000
C1 C 0.8254(6) 0.2430(5) 0.4017(4)
C2 C 0.9138(6) 0.2601(4) 0.4789(4)
C3 C 1.0509(6) 0.3011(4) 0.4394(4)
H1 H 1.0926 0.3111 0.3647
C4 C 1.1273(6) 0.3277(4) 0.5104(4)
C5 C 1.0622(7) 0.3130(5) 0.6207(4)
H2 H 1.1085 0.3341 0.6692
C6 C 0.9286(7) 0.2671(5) 0.6613(4)
H3 H 0.8888 0.2556 0.7358
C7 C 0.8551(6) 0.2385(4) 0.5901(4)
C8 C 0.7165(6) 0.1827(4) 0.6298(4)
C9 C 0.5584(6) 0.2479(4) 0.7025(4)
C10 C 0.4339(6) 0.1959(4) 0.7349(4)
H4 H 0.3313 0.2384 0.7863
C11 C 0.4569(6) 0.0814(4) 0.6931(4)
C12 C 0.6136(6) 0.0156(5) 0.6218(5)
H5 H 0.6327 -0.0624 0.5942
C13 C 0.7409(7) 0.0661(5) 0.5920(5)
H6 H 0.8465 0.0205 0.5451
C14 C 1.2786(6) 0.3687(4) 0.4643(4)
C15 C 0.5166(7) 0.3782(5) 0.7406(4)
C16 C 0.3122(7) 0.0334(5) 0.7237(4)
C17 C 0.9118(7) 0.4270(5) 0.1983(5)
H7 H 0.8673 0.4762 0.2618
C18 C 1.0697(8) 0.4204(6) 0.1298(5)
H8 H 1.1305 0.4648 0.1460
C19 C 1.1344(8) 0.3465(6) 0.0370(5)
H9 H 1.2407 0.3404 -0.0110
C20 C 1.0430(7) 0.2817(5) 0.0148(5)
H10 H 1.0871 0.2308 -0.0477
C21 C 0.8844(7) 0.2927(5) 0.0863(4)
C22 C 0.7698(7) 0.2319(5) 0.0699(4)
C23 C 0.8106(8) 0.1583(5) -0.0221(5)
H11 H 0.9156 0.1419 -0.0750
C24 C 0.6943(9) 0.1102(6) -0.0338(5)
H12 H 0.7194 0.0616 -0.0952
C25 C 0.5401(9) 0.1344(6) 0.0459(5)
H13 H 0.4589 0.1035 0.0390
C26 C 0.5089(7) 0.2060(5) 0.1366(5)
H14 H 0.4061 0.2209 0.1916
N1 N 0.8196(5) 0.3656(4) 0.1776(3)
N2 N 0.6207(5) 0.2544(4) 0.1482(3)
O1 O 0.6756(4) 0.3246(3) 0.4123(3)
O2 O 0.8947(4) 0.1579(3) 0.3329(3)
O3 O 1.3597(4) 0.3396(3) 0.3652(3)
O4 O 1.3136(4) 0.4267(3) 0.5280(3)
O5 O 0.5093(4) 0.4614(3) 0.6665(3)
O6 O 0.4838(6) 0.4032(4) 0.8361(3)
O7 O 0.1863(5) 0.0752(3) 0.7988(3)
O8 O 0.3371(5) -0.0576(3) 0.6580(3)
H15 H 0.2573 -0.0837 0.6793
Zn1A Zn 0.41844(7) 0.63984(5) 0.71929(5)
Zn1_2 Zn 1.58156(7) 0.36016(5) 0.28071(5)
Zn1A_2 Zn -0.58156(7) 0.63984(5) 0.71929(5)
Zn2_2 Zn 1.5000 0.5000 0.5000
Zn2_3 Zn -0.5000 0.5000 0.5000
C1A C 0.1746(6) 0.7570(5) 0.5983(4)
C2A C 0.0862(6) 0.7399(4) 0.5211(4)
C3A C -0.0509(6) 0.6989(4) 0.5606(4)
H1A H -0.0926 0.6889 0.6353
C4A C -0.1273(6) 0.6723(4) 0.4896(4)
C5A C -0.0622(7) 0.6870(5) 0.3793(4)
H2A H -0.1085 0.6659 0.3308
C6A C 0.0714(7) 0.7329(5) 0.3387(4)
H3A H 0.1112 0.7444 0.2642
C7A C 0.1449(6) 0.7615(4) 0.4099(4)
C8A C 0.2835(6) 0.8173(4) 0.3702(4)
C9A C 0.4416(6) 0.7521(4) 0.2975(4)
C10A C 0.5661(6) 0.8041(4) 0.2651(4)
H4A H 0.6687 0.7616 0.2137
C11A C 0.5431(6) 0.9186(4) 0.3069(4)
C12A C 0.3864(6) 0.9844(5) 0.3782(5)
H5A H 0.3673 1.0624 0.4058
C13A C 0.2591(7) 0.9339(5) 0.4080(5)
H6A H 0.1535 0.9795 0.4549
C14A C -0.2786(6) 0.6313(4) 0.5357(4)
C15A C 0.4834(7) 0.6218(5) 0.2594(4)
C16A C 0.6878(7) 0.9666(5) 0.2763(4)
C17A C 0.0882(7) 0.5730(5) 0.8017(5)
H7A H 0.1327 0.5238 0.7382
C18A C -0.0697(8) 0.5796(6) 0.8702(5)
H8A H -0.1305 0.5352 0.8540
C19A C -0.1344(8) 0.6535(6) 0.9630(5)
H9A H -0.2407 0.6596 1.0110
C20A C -0.0430(7) 0.7183(5) 0.9852(5)
H10A H -0.0871 0.7692 1.0477
C21A C 0.1156(7) 0.7073(5) 0.9137(4)
C22A C 0.2302(7) 0.7681(5) 0.9301(4)
C23A C 0.1894(8) 0.8417(5) 1.0221(5)
H11A H 0.0844 0.8581 1.0750
C24A C 0.3057(9) 0.8898(6) 1.0338(5)
H12A H 0.2806 0.9384 1.0952
C25A C 0.4599(9) 0.8656(6) 0.9541(5)
H13A H 0.5411 0.8965 0.9610
C26A C 0.4911(7) 0.7940(5) 0.8634(5)
H14A H 0.5939 0.7791 0.8084
N1A N 0.1804(5) 0.6344(4) 0.8224(3)
N2A N 0.3793(5) 0.7456(4) 0.8518(3)
O1A O 0.3244(4) 0.6754(3) 0.5877(3)
O2A O 0.1053(4) 0.8421(3) 0.6671(3)
O3A O -0.3597(4) 0.6604(3) 0.6348(3)
O3_2 O 0.3597(4) 0.3396(3) 0.3652(3)
O3A_2 O 0.6403(4) 0.6604(3) 0.6348(3)
O4A O -0.3136(4) 0.5733(3) 0.4720(3)
O4_2 O 0.3136(4) 0.4267(3) 0.5280(3)
O4A_2 O 0.6864(4) 0.5733(3) 0.4720(3)
O5A O 0.4907(4) 0.5386(3) 0.3335(3)
O6A O 0.5162(6) 0.5968(4) 0.1639(3)
O7A O 0.8137(5) 0.9248(3) 0.2012(3)
O8A O 0.6629(5) 1.0576(3) 0.3420(3)
H15A H 0.7427 1.0837 0.3207
O9 O 0.6204(12) 0.4900(9) 0.9578(7)
loop_
_geom_bond_atom_site_label_1
_geom_bond_atom_site_label_2
_geom_bond_site_symmetry_1
_geom_bond_site_symmetry_2
Zn1 N1 1_555 1_555
Zn2 O1 1_555 1_555
C1 C2 1_555 1_555
C2 C3 1_555 1_555
C3 H1 1_555 1_555
C4 C3 1_555 1_555
C5 C4 1_555 1_555
H2 C5 1_555 1_555
C6 C5 1_555 1_555
H3 C6 1_555 1_555
C7 C2 1_555 1_555
C8 C7 1_555 1_555
C9 C8 1_555 1_555
C10 C9 1_555 1_555
H4 C10 1_555 1_555
C11 C10 1_555 1_555
C12 C11 1_555 1_555
H5 C12 1_555 1_555
C13 C8 1_555 1_555
H6 C13 1_555 1_555
C14 C4 1_555 1_555
C15 C9 1_555 1_555
C16 C11 1_555 1_555
C17 H7 1_555 1_555
C18 C17 1_555 1_555
H8 C18 1_555 1_555
C19 C18 1_555 1_555
H9 C19 1_555 1_555
C20 C19 1_555 1_555
H10 C20 1_555 1_555
C21 C20 1_555 1_555
C22 C21 1_555 1_555
C23 C22 1_555 1_555
H11 C23 1_555 1_555
C24 C23 1_555 1_555
H12 C24 1_555 1_555
C25 C24 1_555 1_555
H13 C25 1_555 1_555
C26 C25 1_555 1_555
H14 C26 1_555 1_555
N1 C17 1_555 1_555
N2 Zn1 1_555 1_555
O1 Zn1 1_555 1_555
O2 C1 1_555 1_555
O3 C14 1_555 1_555
O4 C14 1_555 1_555
O5 Zn2 1_555 1_555
O6 C15 1_555 1_555
O7 C16 1_555 1_555
O8 C16 1_555 1_555
H15 O8 1_555 1_555
Zn1A O5 1_555 1_555
Zn1_2 O3 1_555 1_555
Zn1A_2 O3A 1_555 1_555
Zn2_2 O4 1_555 1_555
Zn2_3 O4A 1_555 1_555
C1A C2A 1_555 1_555
C2A C3A 1_555 1_555
C3A H1A 1_555 1_555
C4A C3A 1_555 1_555
C5A C4A 1_555 1_555
H2A C5A 1_555 1_555
C6A C5A 1_555 1_555
H3A C6A 1_555 1_555
C7A C2A 1_555 1_555
C8A C7A 1_555 1_555
C9A C8A 1_555 1_555
C10A C9A 1_555 1_555
H4A C10A 1_555 1_555
C11A C10A 1_555 1_555
C12A C11A 1_555 1_555
H5A C12A 1_555 1_555
C13A C8A 1_555 1_555
H6A C13A 1_555 1_555
C14A C4A 1_555 1_555
C15A C9A 1_555 1_555
C16A C11A 1_555 1_555
C17A H7A 1_555 1_555
C18A C17A 1_555 1_555
H8A C18A 1_555 1_555
C19A C18A 1_555 1_555
H9A C19A 1_555 1_555
C20A C19A 1_555 1_555
H10A C20A 1_555 1_555
C21A C20A 1_555 1_555
C22A C21A 1_555 1_555
C23A C22A 1_555 1_555
H11A C23A 1_555 1_555
C24A C23A 1_555 1_555
H12A C24A 1_555 1_555
C25A C24A 1_555 1_555
H13A C25A 1_555 1_555
C26A C25A 1_555 1_555
H14A C26A 1_555 1_555
N1A Zn1A 1_555 1_555
N2A Zn1A 1_555 1_555
O1A Zn2 1_555 1_555
O2A C1A 1_555 1_555
O3A C14A 1_555 1_555
O3_2 Zn1 1_555 1_555
O3A_2 Zn1A 1_555 1_555
O4A C14A 1_555 1_555
O4_2 Zn2 1_555 1_555
O4A_2 Zn2 1_555 1_555
O5A Zn1 1_555 1_555
O6A C15A 1_555 1_555
O7A C16A 1_555 1_555
O8A C16A 1_555 1_555
H15A O8A 1_555 1_555
Zn2 O5A 1_555 1_555
C1 O1 1_555 1_555
C6 C7 1_555 1_555
C12 C13 1_555 1_555
C15 O5 1_555 1_555
C21 N1 1_555 1_555
C22 N2 1_555 1_555
C26 N2 1_555 1_555
Zn1A O1A 1_555 1_555
C1A O1A 1_555 1_555
C6A C7A 1_555 1_555
C12A C13A 1_555 1_555
C15A O5A 1_555 1_555
C17A N1A 1_555 1_555
C21A N1A 1_555 1_555
C22A N2A 1_555 1_555
C26A N2A 1_555 1_555

#END
