
#######################################################################
#
#                 Cambridge Crystallographic Data Centre
#                                CCDC 
#
#######################################################################
#
# If this CIF has been generated from an entry in the Cambridge 
# Structural Database, then it will include bibliographic, chemical, 
# crystal, experimental, refinement or atomic coordinate data resulting 
# from the CCDC's data processing and validation procedures.
#
#######################################################################

data_XUYXEV
_symmetry_cell_setting           monoclinic
_symmetry_space_group_name_H-M   'P 21/n'
_symmetry_Int_Tables_number      14
_space_group_name_Hall           '-P 2yn'
loop_
_symmetry_equiv_pos_site_id
_symmetry_equiv_pos_as_xyz
1 x,y,z
2 1/2-x,1/2+y,1/2-z
3 -x,-y,-z
4 1/2+x,1/2-y,1/2+z
_cell_length_a                   9.0122(9)
_cell_length_b                   17.3729(18)
_cell_length_c                   15.2421(15)
_cell_angle_alpha                90
_cell_angle_beta                 98.684(1)
_cell_angle_gamma                90
_cell_volume                     2359.07
loop_
_atom_site_label
_atom_site_type_symbol
_atom_site_fract_x
_atom_site_fract_y
_atom_site_fract_z
Zn1 Zn -0.03854(5) 0.11783(3) 0.76650(3)
C1 C 0.0702(4) 0.1570(2) 0.5993(2)
C2 C 0.1987(4) 0.1574(2) 0.5469(2)
C3 C 0.2095(4) 0.2170(2) 0.4879(2)
H1 H 0.1357 0.2549 0.4808
C4 C 0.3272(4) 0.2218(2) 0.4394(2)
C5 C 0.4346(4) 0.1646(2) 0.4493(2)
H2 H 0.5131 0.1662 0.4162
C6 C 0.4262(4) 0.1048(2) 0.5081(3)
H3 H 0.5002 0.0671 0.5148
C7 C 0.3093(4) 0.1002(2) 0.5573(2)
C8 C 0.3379(4) 0.2885(2) 0.3782(2)
C9 C 0.2994(4) 0.0309(2) 0.6153(2)
C10 C 0.3779(4) 0.0238(2) 0.7010(2)
C11 C 0.3641(4) -0.0438(2) 0.7484(3)
H4 H 0.4161 -0.0484 0.8056
C12 C 0.2758(5) -0.1037(2) 0.7128(3)
C13 C 0.1980(5) -0.0970(2) 0.6284(3)
H5 H 0.1376 -0.1372 0.6036
C14 C 0.2097(4) -0.0304(2) 0.5803(3)
H6 H 0.1565 -0.0264 0.5232
C15 C 0.4737(4) 0.0866(2) 0.7428(3)
C16 C 0.2725(6) -0.1737(3) 0.7677(3)
C17 C -0.1705(6) -0.0452(3) 0.7490(3)
H7 H -0.2350 -0.0253 0.7009
C18 C -0.1856(8) -0.1218(3) 0.7725(4)
H8 H -0.2597 -0.1525 0.7411
C19 C -0.0902(8) -0.1510(3) 0.8424(4)
H9 H -0.0975 -0.2024 0.8585
C20 C 0.0171(6) -0.1043(3) 0.8890(3)
H10 H 0.0817 -0.1235 0.9374
C21 C 0.0279(5) -0.0283(2) 0.8631(3)
C22 C 0.1388(4) 0.0262(2) 0.9093(3)
C23 C 0.2434(6) 0.0057(3) 0.9814(3)
H11 H 0.2475 -0.0444 1.0031
C24 C 0.3408(6) 0.0607(4) 1.0206(3)
H12 H 0.4135 0.0475 1.0682
C25 C 0.3316(6) 0.1345(3) 0.9899(3)
H13 H 0.3948 0.1726 1.0172
C26 C 0.2267(5) 0.1506(3) 0.9178(3)
H14 H 0.2215 0.2005 0.8955
N1 N -0.0666(4) 0.00040(19) 0.7932(2)
N2 N 0.1307(4) 0.09776(19) 0.8775(2)
O1 O 0.1002(3) 0.13367(15) 0.67914(15)
O2 O -0.0541(3) 0.17845(18) 0.56205(17)
O3 O 0.2707(3) 0.34927(16) 0.38978(17)
O4 O 0.4201(3) 0.27914(16) 0.31849(17)
O5 O 0.4861(3) 0.14990(16) 0.71188(18)
O6 O 0.5511(4) 0.0658(2) 0.8201(2)
H15 H 0.6109 0.0999 0.8382
O7 O 0.1857(7) -0.2274(2) 0.7294(3)
H16 H 0.1858 -0.2642 0.7632
O8 O 0.3387(6) -0.1778(2) 0.8431(3)
O9 O -0.2265(3) 0.11997(19) 0.66618(19)
H17 H -0.2060 0.1442 0.6234
H18 H -0.314(6) 0.141(3) 0.674(3)
Zn1C Zn 0.46146(5) 0.38217(3) 0.26650(3)
O4C O -0.0799(3) 0.22086(16) 0.81849(17)
loop_
_geom_bond_atom_site_label_1
_geom_bond_atom_site_label_2
_geom_bond_site_symmetry_1
_geom_bond_site_symmetry_2
Zn1 N1 1_555 1_555
C1 C2 1_555 1_555
C2 C3 1_555 1_555
C3 H1 1_555 1_555
C4 C3 1_555 1_555
C5 C4 1_555 1_555
H2 C5 1_555 1_555
C6 C5 1_555 1_555
H3 C6 1_555 1_555
C7 C2 1_555 1_555
C8 C4 1_555 1_555
C9 C7 1_555 1_555
C10 C9 1_555 1_555
C11 C10 1_555 1_555
H4 C11 1_555 1_555
C12 C11 1_555 1_555
C13 C12 1_555 1_555
H5 C13 1_555 1_555
C14 C9 1_555 1_555
H6 C14 1_555 1_555
C15 C10 1_555 1_555
C16 C12 1_555 1_555
C17 H7 1_555 1_555
C18 C17 1_555 1_555
H8 C18 1_555 1_555
C19 C18 1_555 1_555
H9 C19 1_555 1_555
C20 C19 1_555 1_555
H10 C20 1_555 1_555
C21 C20 1_555 1_555
C22 C21 1_555 1_555
C23 C22 1_555 1_555
H11 C23 1_555 1_555
C24 C23 1_555 1_555
H12 C24 1_555 1_555
C25 C24 1_555 1_555
H13 C25 1_555 1_555
C26 C25 1_555 1_555
H14 C26 1_555 1_555
N1 C17 1_555 1_555
N2 Zn1 1_555 1_555
O1 Zn1 1_555 1_555
O2 C1 1_555 1_555
O3 C8 1_555 1_555
O4 C8 1_555 1_555
O5 C15 1_555 1_555
O6 C15 1_555 1_555
H15 O6 1_555 1_555
O7 C16 1_555 1_555
H16 O7 1_555 1_555
O8 C16 1_555 1_555
O9 Zn1 1_555 1_555
H17 O9 1_555 1_555
H18 O9 1_555 1_555
Zn1C O4 1_555 1_555
O4C Zn1 1_555 1_555
C1 O1 1_555 1_555
C6 C7 1_555 1_555
C13 C14 1_555 1_555
C21 N1 1_555 1_555
C22 N2 1_555 1_555
C26 N2 1_555 1_555

#END
