
#######################################################################
#
#                 Cambridge Crystallographic Data Centre
#                                CCDC 
#
#######################################################################
#
# If this CIF has been generated from an entry in the Cambridge 
# Structural Database, then it will include bibliographic, chemical, 
# crystal, experimental, refinement or atomic coordinate data resulting 
# from the CCDC's data processing and validation procedures.
#
#######################################################################

data_XUYXUL01
_symmetry_cell_setting           monoclinic
_symmetry_space_group_name_H-M   'P 21/c'
_symmetry_Int_Tables_number      14
_space_group_name_Hall           '-P 2ybc'
loop_
_symmetry_equiv_pos_site_id
_symmetry_equiv_pos_as_xyz
1 x,y,z
2 -x,1/2+y,1/2-z
3 -x,-y,-z
4 x,1/2-y,1/2+z
_cell_length_a                   9.2103(6)
_cell_length_b                   15.1891(10)
_cell_length_c                   24.8961(14)
_cell_angle_alpha                90
_cell_angle_beta                 106.680(2)
_cell_angle_gamma                90
_cell_volume                     3336.32
loop_
_atom_site_label
_atom_site_type_symbol
_atom_site_fract_x
_atom_site_fract_y
_atom_site_fract_z
Cd1 Cd 0.03325(3) -0.398962(15) -0.131477(9)
Cd2 Cd 0.19958(3) -0.133960(15) 0.041470(10)
C1 C 0.5841(4) -0.1101(2) -0.08317(13)
C2 C 0.4864(4) -0.1464(2) -0.05569(13)
H1 H 0.4692 -0.1171 -0.0253
C3 C 0.4144(4) -0.2259(2) -0.07329(13)
C4 C 0.4398(4) -0.2687(2) -0.11910(13)
H2 H 0.3908 -0.3216 -0.1317
C5 C 0.5375(4) -0.2329(2) -0.14586(13)
H3 H 0.5543 -0.2626 -0.1762
C6 C 0.6118(4) -0.1536(2) -0.12886(12)
C7 C 0.6979(4) -0.1113(2) -0.16434(12)
C8 C 0.8101(4) -0.1544(2) -0.18254(12)
C9 C 0.8716(4) -0.1124(2) -0.22048(13)
H4 H 0.9472 -0.1405 -0.2320
C10 C 0.8234(4) -0.0295(2) -0.24162(13)
C11 C 0.7127(4) 0.0124(2) -0.22367(13)
H5 H 0.6796 0.0681 -0.2373
C12 C 0.6514(4) -0.0279(2) -0.18571(13)
H6 H 0.5771 0.0013 -0.1740
C13 C 0.6561(4) -0.0227(2) -0.06370(12)
C14 C 0.3094(3) -0.2664(2) -0.04371(13)
C15 C 0.8736(4) -0.2439(2) -0.16199(14)
C16 C 0.8883(4) 0.0124(2) -0.28446(14)
C17 C 0.2626(4) -0.5365(3) -0.04581(16)
H7 H 0.3350 -0.5014 -0.0548
C18 C 0.3110(5) -0.6067(3) -0.01050(19)
H8 H 0.4135 -0.6202 0.0031
C19 C 0.2044(5) -0.6564(3) 0.00419(18)
H9 H 0.2339 -0.7034 0.0288
C20 C 0.0538(5) -0.6362(2) -0.01762(16)
H10 H -0.0198 -0.6693 -0.0079
C21 C 0.0125(4) -0.5658(2) -0.05440(14)
C22 C -0.1481(4) -0.5412(2) -0.08079(13)
C23 C -0.2674(4) -0.5857(2) -0.06944(16)
H11 H -0.2490 -0.6318 -0.0438
C24 C -0.4131(5) -0.5606(3) -0.09674(19)
H12 H -0.4943 -0.5899 -0.0897
C25 C -0.4390(4) -0.4926(3) -0.13428(18)
H13 H -0.5371 -0.4749 -0.1531
C26 C -0.3153(4) -0.4512(2) -0.14335(17)
H14 H -0.3320 -0.4053 -0.1691
C27 C -0.1156(5) -0.1123(4) 0.0767(2)
H15 H -0.1508 -0.0877 0.0411
C28 C -0.2053(6) -0.1059(4) 0.1122(3)
H16 H -0.2987 -0.0776 0.1007
C29 C -0.1550(6) -0.1415(4) 0.1642(2)
H17 H -0.2131 -0.1376 0.1891
C30 C -0.0179(6) -0.1833(3) 0.17956(18)
H18 H 0.0179 -0.2085 0.2150
C31 C 0.0681(5) -0.1880(3) 0.14172(16)
C32 C 0.2203(5) -0.2271(2) 0.15676(15)
C33 C 0.2700(7) -0.2872(3) 0.20000(18)
H19 H 0.2038 -0.3086 0.2189
C34 C 0.4171(8) -0.3149(4) 0.2145(2)
H20 H 0.4516 -0.3556 0.2433
C35 C 0.5128(7) -0.2828(4) 0.1868(2)
H21 H 0.6147 -0.2983 0.1977
C36 C 0.4556(5) -0.2262(3) 0.1419(2)
H22 H 0.5195 -0.2064 0.1215
N1 N 0.1167(3) -0.51616(18) -0.06784(12)
N2 N -0.1726(3) -0.47372(18) -0.11712(12)
N3 N 0.0192(4) -0.1520(2) 0.09055(13)
N4 N 0.3121(4) -0.1996(2) 0.12716(13)
O1 O 0.7983(3) -0.01503(15) -0.05395(10)
O2 O 0.5761(3) 0.03983(16) -0.05790(12)
O3 O 0.3122(3) -0.23488(15) 0.00368(10)
O4 O 0.2323(3) -0.33095(17) -0.06489(11)
O5 O 0.9091(3) -0.26149(16) -0.11114(10)
O6 O 0.8953(4) -0.29621(17) -0.19682(11)
O7 O 1.0116(3) -0.0131(2) -0.28919(12)
O8 O 0.8111(3) 0.07181(17) -0.31485(10)
O9 O 0.0254(3) -0.1284(2) -0.04142(12)
H23 H -0.0063 -0.1738 -0.0614
H24 H -0.0524 -0.0971 -0.0433
Cd1_2 Cd 1.03325(3) -0.398962(15) -0.131477(9)
Cd1A Cd 0.96675(3) 0.101038(15) -0.368523(9)
Cd2B Cd 0.80042(3) 0.133960(15) -0.041470(10)
O1B O 0.2017(3) 0.01503(15) 0.05395(10)
O2B O 0.4239(3) -0.03983(16) 0.05790(12)
O5_2 O -0.0909(3) -0.26149(16) -0.11114(10)
O6_2 O -0.1047(4) -0.29621(17) -0.19682(11)
O7A O -0.0116(3) -0.5131(2) -0.21081(12)
O8A O 0.1889(3) -0.42819(17) -0.18515(10)
O10 O 0.2758(7) -0.0587(4) -0.2048(3)
H25 H 0.1960 -0.0454 -0.2305
H26 H 0.2913 -0.0270 -0.1755
loop_
_geom_bond_atom_site_label_1
_geom_bond_atom_site_label_2
_geom_bond_site_symmetry_1
_geom_bond_site_symmetry_2
Cd1 N1 1_555 1_555
Cd2 N3 1_555 1_555
C1 C2 1_555 1_555
C2 H1 1_555 1_555
C3 C2 1_555 1_555
C4 C3 1_555 1_555
H2 C4 1_555 1_555
C5 C4 1_555 1_555
H3 C5 1_555 1_555
C6 C1 1_555 1_555
C7 C6 1_555 1_555
C8 C7 1_555 1_555
C9 C8 1_555 1_555
H4 C9 1_555 1_555
C10 C9 1_555 1_555
C11 C10 1_555 1_555
H5 C11 1_555 1_555
C12 C7 1_555 1_555
H6 C12 1_555 1_555
C13 C1 1_555 1_555
C14 C3 1_555 1_555
C15 C8 1_555 1_555
C16 C10 1_555 1_555
C17 H7 1_555 1_555
C18 C17 1_555 1_555
H8 C18 1_555 1_555
C19 C18 1_555 1_555
H9 C19 1_555 1_555
C20 C19 1_555 1_555
H10 C20 1_555 1_555
C21 C20 1_555 1_555
C22 C21 1_555 1_555
C23 C22 1_555 1_555
H11 C23 1_555 1_555
C24 C23 1_555 1_555
H12 C24 1_555 1_555
C25 C24 1_555 1_555
H13 C25 1_555 1_555
C26 C25 1_555 1_555
H14 C26 1_555 1_555
C27 H15 1_555 1_555
C28 C27 1_555 1_555
H16 C28 1_555 1_555
C29 C28 1_555 1_555
H17 C29 1_555 1_555
C30 C29 1_555 1_555
H18 C30 1_555 1_555
C31 C30 1_555 1_555
C32 C31 1_555 1_555
C33 C32 1_555 1_555
H19 C33 1_555 1_555
C34 C33 1_555 1_555
H20 C34 1_555 1_555
C35 C34 1_555 1_555
H21 C35 1_555 1_555
C36 C35 1_555 1_555
H22 C36 1_555 1_555
N1 C17 1_555 1_555
N2 Cd1 1_555 1_555
N3 C27 1_555 1_555
N4 Cd2 1_555 1_555
O1 C13 1_555 1_555
O2 C13 1_555 1_555
O3 Cd2 1_555 1_555
O4 Cd1 1_555 1_555
O5 C15 1_555 1_555
O6 C15 1_555 1_555
O7 C16 1_555 1_555
O8 C16 1_555 1_555
O9 Cd2 1_555 1_555
H23 O9 1_555 1_555
H24 O9 1_555 1_555
O10 H25 1_555 1_555
H26 O10 1_555 1_555
Cd1_2 O5 1_555 1_555
Cd1A O7 1_555 1_555
Cd2B O1 1_555 1_555
O1B Cd2 1_555 1_555
O2B Cd2 1_555 1_555
O5_2 Cd1 1_555 1_555
O6_2 Cd1 1_555 1_555
O7A Cd1 1_555 1_555
O8A Cd1 1_555 1_555
C5 C6 1_555 1_555
C11 C12 1_555 1_555
C14 O3 1_555 1_555
C14 O4 1_555 1_555
C21 N1 1_555 1_555
C22 N2 1_555 1_555
C26 N2 1_555 1_555
C31 N3 1_555 1_555
C32 N4 1_555 1_555
C36 N4 1_555 1_555
O2 Cd2B 1_555 1_555
O6 Cd1_2 1_555 1_555
O8 Cd1A 1_555 1_555

#END
