
#######################################################################
#
#                 Cambridge Crystallographic Data Centre
#                                CCDC 
#
#######################################################################
#
# If this CIF has been generated from an entry in the Cambridge 
# Structural Database, then it will include bibliographic, chemical, 
# crystal, experimental, refinement or atomic coordinate data resulting 
# from the CCDC's data processing and validation procedures.
#
#######################################################################

data_XUYYIA
_symmetry_cell_setting           monoclinic
_symmetry_space_group_name_H-M   'P 21/n'
_symmetry_Int_Tables_number      14
_space_group_name_Hall           '-P 2yn'
loop_
_symmetry_equiv_pos_site_id
_symmetry_equiv_pos_as_xyz
1 x,y,z
2 1/2-x,1/2+y,1/2-z
3 -x,-y,-z
4 1/2+x,1/2-y,1/2+z
_cell_length_a                   8.6129(10)
_cell_length_b                   19.542(2)
_cell_length_c                   11.4698(13)
_cell_angle_alpha                90
_cell_angle_beta                 90.564(1)
_cell_angle_gamma                90
_cell_volume                     1930.43
loop_
_atom_site_label
_atom_site_type_symbol
_atom_site_fract_x
_atom_site_fract_y
_atom_site_fract_z
Co1 Co 0.10742(7) 0.95980(3) 1.23898(5)
Co2 Co 0.5000 0.5000 1.0000
Co3 Co 0.01693(8) 0.92140(3) 0.97748(5)
C1 C 0.2483(6) 0.8397(2) 1.1133(4)
C2 C 0.3733(5) 0.7852(2) 1.1072(4)
C3 C 0.4879(6) 0.7803(2) 1.1933(4)
H1 H 0.4837 0.8084 1.2586
C4 C 0.6078(6) 0.7339(2) 1.1822(4)
H2 H 0.6841 0.7316 1.2400
C5 C 0.6166(5) 0.6907(2) 1.0860(4)
C6 C 0.4997(5) 0.6941(2) 1.0012(4)
C7 C 0.3806(5) 0.7410(2) 1.0134(4)
H3 H 0.3029 0.7428 0.9567
C8 C 0.4990(5) 0.6515(2) 0.8918(4)
C9 C 0.6509(5) 0.5644(2) 1.2256(4)
C10 C 0.7775(5) 0.5895(2) 1.1479(4)
C11 C 0.9162(5) 0.5545(2) 1.1487(4)
H4 H 0.9286 0.5170 1.1979
C12 C 1.0376(5) 0.5738(2) 1.0776(4)
C13 C 1.0163(5) 0.6281(2) 1.0005(4)
H5 H 1.0937 0.6400 0.9482
C14 C 0.8783(5) 0.6641(2) 1.0030(4)
H6 H 0.8663 0.7016 0.9539
C15 C 0.7566(5) 0.6465(2) 1.0758(4)
C16 C 1.1894(5) 0.5377(2) 1.0917(4)
O1 O 0.2542(4) 0.88006(15) 1.1977(3)
O2 O 0.1524(4) 0.84148(16) 1.0301(3)
O3 O 0.4487(5) 0.68000(17) 0.8020(3)
O4 O 0.5533(3) 0.59090(14) 0.8955(3)
O5 O 0.5376(3) 0.53257(15) 1.1787(2)
O6 O 0.6653(4) 0.57385(17) 1.3331(3)
O7 O 1.2077(4) 0.50511(16) 1.1852(3)
O8 O 1.2878(3) 0.54251(16) 1.0108(3)
O9 O -0.1019(4) 0.91198(16) 1.1432(3)
H7 H -0.1893 0.9316 1.1512
H8 H -0.0901 0.8790 1.1908
O10 O 0.1274(3) 1.00018(14) 1.0739(2)
H9 H 0.2207 1.0077 1.0541
O11 O -0.1196(5) 0.8450(2) 0.8906(4)
H10 H -0.1810 0.8790 0.8945
H11 H -0.1884 0.8303 0.8433
Co1B Co 0.89258(7) 0.04020(3) 0.76102(5)
Co1C Co 0.60742(7) 0.54020(3) 0.73898(5)
Co1A Co 0.39258(7) 0.45980(3) 1.26102(5)
Co1A_2 Co 1.39258(7) 0.45980(3) 1.26102(5)
Co1C_2 Co -0.39258(7) 0.54020(3) 0.73898(5)
Co1B_2 Co -0.10742(7) 1.04020(3) 0.76102(5)
Co2_2 Co 1.5000 0.5000 1.0000
Co2_3 Co -0.5000 0.5000 1.0000
Co3B Co 0.98307(8) 0.07860(3) 1.02252(5)
Co3C Co 0.51693(8) 0.57860(3) 1.47748(5)
Co3B_2 Co -0.01693(8) 1.07860(3) 1.02252(5)
Co3A Co 0.48307(8) 0.42140(3) 0.52252(5)
C1B C 0.7517(6) 0.1603(2) 0.8867(4)
C2B C 0.6267(5) 0.2148(2) 0.8928(4)
C3B C 0.5121(6) 0.2197(2) 0.8067(4)
H1B H 0.5163 0.1916 0.7414
C4B C 0.3922(6) 0.2661(2) 0.8178(4)
H2B H 0.3159 0.2684 0.7600
C5B C 0.3834(5) 0.3093(2) 0.9140(4)
C6B C 0.5003(5) 0.3059(2) 0.9988(4)
C7B C 0.6194(5) 0.2590(2) 0.9866(4)
H3B H 0.6971 0.2572 1.0433
C8B C 0.5010(5) 0.3485(2) 1.1082(4)
C9B C 0.3491(5) 0.4356(2) 0.7744(4)
C10B C 0.2225(5) 0.4105(2) 0.8521(4)
C11B C 0.0838(5) 0.4455(2) 0.8513(4)
H4B H 0.0714 0.4830 0.8021
C12B C -0.0376(5) 0.4262(2) 0.9224(4)
C13B C -0.0163(5) 0.3719(2) 0.9995(4)
H5B H -0.0937 0.3600 1.0518
C14B C 0.1217(5) 0.3359(2) 0.9970(4)
H6B H 0.1337 0.2984 1.0461
C15B C 0.2434(5) 0.3535(2) 0.9242(4)
C16B C -0.1894(5) 0.4623(2) 0.9083(4)
O1B O 0.7458(4) 0.11994(15) 0.8023(3)
O2B O 0.8476(4) 0.15852(16) 0.9699(3)
O3B O 0.5513(5) 0.32000(17) 1.1980(3)
O4B O 0.4467(3) 0.40910(14) 1.1045(3)
O4C O 0.0533(3) 0.90910(14) 1.3955(3)
O4A O 0.9467(3) 0.09090(14) 0.6045(3)
O5B O 0.4624(3) 0.46743(15) 0.8213(2)
O5A O -0.0376(3) 1.03257(15) 1.3213(2)
O5C O 1.0376(3) -0.03257(15) 0.6787(2)
O6B O 0.3347(4) 0.42615(17) 0.6669(3)
O6C O 0.1653(4) 0.92615(17) 0.8331(3)
O6A O 0.8347(4) 0.07385(17) 1.1669(3)
O7B O -0.2077(4) 0.49489(16) 0.8148(3)
O7A O 0.2923(4) 1.00511(16) 1.3148(3)
O7C O 0.7077(4) -0.00511(16) 0.6852(3)
O8B O -0.2878(3) 0.45749(16) 0.9892(3)
O8_2 O 0.2878(3) 0.54251(16) 1.0108(3)
O8B_2 O 0.7122(3) 0.45749(16) 0.9892(3)
O9B O 1.1019(4) 0.08802(16) 0.8568(3)
H7B H 1.1893 0.0684 0.8488
H8B H 1.0901 0.1210 0.8092
O10B O -0.1274(3) 0.99982(14) 0.9261(2)
O10B_2 O 0.8726(3) -0.00018(14) 0.9261(2)
O10_2 O 1.1274(3) 0.00018(14) 1.0739(2)
H9B H -0.2207 0.9923 0.9459
H9B_2 H 0.7793 -0.0077 0.9459
H9_2 H 1.2207 0.0077 1.0541
O11B O 1.1196(5) 0.1550(2) 1.1094(4)
H10B H 1.1810 0.1210 1.1055
H11B H 1.1884 0.1697 1.1567
O12 O 0.4183(6) 0.0572(3) 0.8654(5)
H12 H 0.3630 0.0332 0.9109
H13 H 0.4715 0.0906 0.8402
O13 O 0.9037(6) 0.3067(2) 0.7234(4)
H14 H 0.9318 0.3335 0.6691
H15 H 0.9229 0.3289 0.7857
O14 O 0.5107(9) 0.9125(3) 0.9199(5)
H16 H 0.4146 0.9069 0.9056
H17 H 0.5069 0.9406 0.8634
loop_
_geom_bond_atom_site_label_1
_geom_bond_atom_site_label_2
_geom_bond_site_symmetry_1
_geom_bond_site_symmetry_2
Co1 O1 1_555 1_555
Co2 O4 1_555 1_555
Co3 O2 1_555 1_555
C1 C2 1_555 1_555
C2 C3 1_555 1_555
C3 H1 1_555 1_555
C4 C3 1_555 1_555
H2 C4 1_555 1_555
C5 C4 1_555 1_555
C6 C5 1_555 1_555
C7 C2 1_555 1_555
H3 C7 1_555 1_555
C8 C6 1_555 1_555
C9 C10 1_555 1_555
C10 C11 1_555 1_555
C11 H4 1_555 1_555
C12 C11 1_555 1_555
C13 C12 1_555 1_555
H5 C13 1_555 1_555
C14 C13 1_555 1_555
H6 C14 1_555 1_555
C15 C5 1_555 1_555
C16 C12 1_555 1_555
O1 C1 1_555 1_555
O2 C1 1_555 1_555
O3 C8 1_555 1_555
O4 C8 1_555 1_555
O5 Co2 1_555 1_555
O6 C9 1_555 1_555
O7 C16 1_555 1_555
O8 C16 1_555 1_555
O9 Co1 1_555 1_555
H7 O9 1_555 1_555
H8 O9 1_555 1_555
O10 Co1 1_555 1_555
H9 O10 1_555 1_555
O11 Co3 1_555 1_555
H10 O11 1_555 1_555
H11 O11 1_555 1_555
O12 H12 1_555 1_555
H13 O12 1_555 1_555
O13 H14 1_555 1_555
H15 O13 1_555 1_555
O14 H16 1_555 1_555
H17 O14 1_555 1_555
Co1B O1B 1_555 1_555
Co1C O4 1_555 1_555
Co1A O5 1_555 1_555
Co1A_2 O7 1_555 1_555
Co1C_2 O7B 1_555 1_555
Co1B_2 O10B 1_555 1_555
Co2_2 O8 1_555 1_555
Co2_3 O8B 1_555 1_555
Co3B O2B 1_555 1_555
Co3C O6 1_555 1_555
Co3B_2 O10 1_555 1_555
Co3A O6B 1_555 1_555
C1B C2B 1_555 1_555
C2B C3B 1_555 1_555
C3B H1B 1_555 1_555
C4B C3B 1_555 1_555
H2B C4B 1_555 1_555
C5B C4B 1_555 1_555
C6B C5B 1_555 1_555
C7B C2B 1_555 1_555
H3B C7B 1_555 1_555
C8B C6B 1_555 1_555
C9B C10B 1_555 1_555
C10B C11B 1_555 1_555
C11B H4B 1_555 1_555
C12B C11B 1_555 1_555
C13B C12B 1_555 1_555
H5B C13B 1_555 1_555
C14B C13B 1_555 1_555
H6B C14B 1_555 1_555
C15B C5B 1_555 1_555
C16B C12B 1_555 1_555
O1B C1B 1_555 1_555
O2B C1B 1_555 1_555
O3B C8B 1_555 1_555
O4B Co2 1_555 1_555
O4C Co1 1_555 1_555
O4A Co1B 1_555 1_555
O5B Co2 1_555 1_555
O5A Co1 1_555 1_555
O5C Co1B 1_555 1_555
O6B C9B 1_555 1_555
O6C Co3 1_555 1_555
O6A Co3B 1_555 1_555
O7B C16B 1_555 1_555
O7A Co1 1_555 1_555
O7C Co1B 1_555 1_555
O8B C16B 1_555 1_555
O8_2 Co2 1_555 1_555
O8B_2 Co2 1_555 1_555
O9B Co1B 1_555 1_555
H7B O9B 1_555 1_555
H8B O9B 1_555 1_555
O10B Co3 1_555 1_555
O10B_2 Co1B 1_555 1_555
O10_2 Co3B 1_555 1_555
H9B O10B 1_555 1_555
H9B_2 O10B_2 1_555 1_555
H9_2 O10_2 1_555 1_555
O11B Co3B 1_555 1_555
H10B O11B 1_555 1_555
H11B O11B 1_555 1_555
Co3 O9 1_555 1_555
Co3 O10 1_555 1_555
C6 C7 1_555 1_555
C9 O5 1_555 1_555
C10 C15 1_555 1_555
C14 C15 1_555 1_555
Co1C O5B 1_555 1_555
Co1A O4B 1_555 1_555
Co3B O9B 1_555 1_555
Co3B O10B_2 1_555 1_555
Co3B_2 O10B 1_555 1_555
C6B C7B 1_555 1_555
C8B O4B 1_555 1_555
C9B O5B 1_555 1_555
C10B C15B 1_555 1_555
C14B C15B 1_555 1_555

#END
