
#######################################################################
#
#                 Cambridge Crystallographic Data Centre
#                                CCDC 
#
#######################################################################
#
# If this CIF has been generated from an entry in the Cambridge 
# Structural Database, then it will include bibliographic, chemical, 
# crystal, experimental, refinement or atomic coordinate data resulting 
# from the CCDC's data processing and validation procedures.
#
#######################################################################

data_XUYYEW
_symmetry_cell_setting           monoclinic
_symmetry_space_group_name_H-M   'P 21/n'
_symmetry_Int_Tables_number      14
_space_group_name_Hall           '-P 2yn'
loop_
_symmetry_equiv_pos_site_id
_symmetry_equiv_pos_as_xyz
1 x,y,z
2 1/2-x,1/2+y,1/2-z
3 -x,-y,-z
4 1/2+x,1/2-y,1/2+z
_cell_length_a                   9.0444(17)
_cell_length_b                   16.460(3)
_cell_length_c                   12.074(2)
_cell_angle_alpha                90
_cell_angle_beta                 93.437(3)
_cell_angle_gamma                90
_cell_volume                     1794.23
loop_
_atom_site_label
_atom_site_type_symbol
_atom_site_fract_x
_atom_site_fract_y
_atom_site_fract_z
Co1 Co 1.0000 0.0000 1.0000
Co2 Co 1.08409(9) -0.02513(5) 0.74278(7)
Co3 Co 0.84436(10) 0.00610(5) 0.54760(7)
C1 C 0.7912(7) 0.0581(4) 0.7858(5)
C2 C 0.6844(7) 0.0946(4) 0.8602(5)
C3 C 0.5400(7) 0.0661(4) 0.8574(5)
H1 H 0.5106 0.0266 0.8056
C4 C 0.4376(7) 0.0946(4) 0.9293(5)
C5 C 0.4810(7) 0.1535(4) 1.0067(5)
H2 H 0.4155 0.1712 1.0582
C6 C 0.6239(7) 0.1864(4) 1.0070(5)
H3 H 0.6518 0.2272 1.0573
C7 C 0.7252(7) 0.1585(4) 0.9325(5)
C8 C 0.8659(7) 0.2037(4) 0.9219(5)
C9 C 0.9764(7) 0.2124(3) 1.0071(5)
C10 C 1.0941(7) 0.2666(4) 0.9945(5)
H4 H 1.1656 0.2738 1.0523
C11 C 1.1041(7) 0.3090(4) 0.8972(5)
C12 C 0.9979(8) 0.2990(4) 0.8113(5)
H5 H 1.0058 0.3270 0.7451
C13 C 0.8804(7) 0.2475(4) 0.8240(6)
H6 H 0.8088 0.2417 0.7660
C14 C 1.2309(8) 0.3676(4) 0.8876(6)
C15 C 0.9763(7) 0.1671(4) 1.1149(5)
C16 C 0.2803(7) 0.0653(4) 0.9161(5)
O1 O 0.9216(4) 0.0410(2) 0.8248(3)
O2 O 0.7463(5) 0.0446(3) 0.6870(4)
O3 O 0.2364(5) 0.0506(3) 0.8172(3)
O4 O 0.2047(5) 0.0566(3) 0.9986(4)
O5 O 0.9355(5) 0.0931(2) 1.1113(3)
O6 O 1.0220(6) 0.2041(3) 1.2001(4)
O7 O 1.2450(5) 0.4011(3) 0.7960(4)
O8 O 1.3171(5) 0.3786(3) 0.9741(4)
O9 O 1.0619(4) 0.0377(2) 0.5966(3)
H7 H 1.0810 0.0875 0.6094
O10 O 0.9255(5) -0.1053(2) 0.6310(4)
H8 H 0.9977 -0.1275 0.6006
H9 H 0.9152 -0.1341 0.6884
O11 O 0.6395(5) -0.0453(3) 0.5001(4)
H10 H 0.5733 -0.0253 0.5390
H11 H 0.6271 -0.0745 0.4421
Co1_2 Co 0.0000 0.0000 1.0000
Co1_3 Co 2.0000 0.0000 1.0000
Co2_2 Co 2.08409(9) -0.02513(5) 0.74278(7)
Co2_3 Co 0.08409(9) -0.02513(5) 0.74278(7)
Co2B Co 0.91591(9) 0.02513(5) 1.25722(7)
Co2A Co 1.41591(9) 0.47487(5) 0.75722(7)
Co2B_2 Co 1.91591(9) 0.02513(5) 1.25722(7)
Co2A_2 Co 2.41591(9) 0.47487(5) 0.75722(7)
Co2B_3 Co 0.91591(9) 0.02513(5) 0.25722(7)
Co3_2 Co 1.84436(10) 0.00610(5) 0.54760(7)
Co3C Co 1.34436(10) 0.49390(5) 1.04760(7)
Co3B Co 1.15564(10) -0.00610(5) 0.45240(7)
Co3C_2 Co 2.34436(10) 0.49390(5) 1.04760(7)
C1_2 C 1.7912(7) 0.0581(4) 0.7858(5)
C2_2 C 1.6844(7) 0.0946(4) 0.8602(5)
C3_2 C 1.5400(7) 0.0661(4) 0.8574(5)
H1_2 H 1.5106 0.0266 0.8056
C4_2 C 1.4376(7) 0.0946(4) 0.9293(5)
C5_2 C 1.4810(7) 0.1535(4) 1.0067(5)
H2_2 H 1.4155 0.1712 1.0582
C6_2 C 1.6239(7) 0.1864(4) 1.0070(5)
H3_2 H 1.6518 0.2272 1.0573
C7_2 C 1.7252(7) 0.1585(4) 0.9325(5)
C8_2 C 1.8659(7) 0.2037(4) 0.9219(5)
C9_2 C 1.9764(7) 0.2124(3) 1.0071(5)
C10_2 C 2.0941(7) 0.2666(4) 0.9945(5)
H4_2 H 2.1656 0.2738 1.0523
C11_2 C 2.1041(7) 0.3090(4) 0.8972(5)
C12_2 C 1.9979(8) 0.2990(4) 0.8113(5)
H5_2 H 2.0058 0.3270 0.7451
C13_2 C 1.8804(7) 0.2475(4) 0.8240(6)
H6_2 H 1.8088 0.2417 0.7660
C14_2 C 2.2309(8) 0.3676(4) 0.8876(6)
C15_2 C 1.9763(7) 0.1671(4) 1.1149(5)
C16_2 C 1.2803(7) 0.0653(4) 0.9161(5)
O1_2 O 1.9216(4) 0.0410(2) 0.8248(3)
O1B O 1.0784(4) -0.0410(2) 1.1752(3)
O2_2 O 1.7463(5) 0.0446(3) 0.6870(4)
O3_2 O 1.2364(5) 0.0506(3) 0.8172(3)
O3_3 O 2.2364(5) 0.0506(3) 0.8172(3)
O4_2 O 1.2047(5) 0.0566(3) 0.9986(4)
O4B O 0.7953(5) -0.0566(3) 1.0014(4)
O5_2 O 1.9355(5) 0.0931(2) 1.1113(3)
O5B O 1.0645(5) -0.0931(2) 0.8887(3)
O5B_2 O 2.0645(5) -0.0931(2) 0.8887(3)
O6_2 O 2.0220(6) 0.2041(3) 1.2001(4)
O7_2 O 2.2450(5) 0.4011(3) 0.7960(4)
O7A O 1.2550(5) -0.0989(3) 0.7040(4)
O7A_2 O 2.2550(5) -0.0989(3) 0.7040(4)
O8_2 O 2.3171(5) 0.3786(3) 0.9741(4)
O8C O 0.8171(5) 0.1214(3) 0.4741(4)
O8C_2 O 1.8171(5) 0.1214(3) 0.4741(4)
O9B O 0.9381(4) -0.0377(2) 0.4034(3)
O9_2 O 2.0619(4) 0.0377(2) 0.5966(3)
O9B_2 O 1.9381(4) -0.0377(2) 0.4034(3)
H7B H 0.9190 -0.0875 0.3906
H7_2 H 2.0810 0.0875 0.6094
H7B_2 H 1.9190 -0.0875 0.3906
O10_2 O 1.9255(5) -0.1053(2) 0.6310(4)
H8_2 H 1.9977 -0.1275 0.6006
H9_2 H 1.9152 -0.1341 0.6884
O11_2 O 1.6395(5) -0.0453(3) 0.5001(4)
H10_2 H 1.5733 -0.0253 0.5390
H11_2 H 1.6271 -0.0745 0.4421
O12 O 0.3238(6) 0.1538(3) 0.6579(4)
H12 H 0.3926 0.1881 0.6716
H13 H 0.3039 0.1247 0.7132
loop_
_geom_bond_atom_site_label_1
_geom_bond_atom_site_label_2
_geom_bond_site_symmetry_1
_geom_bond_site_symmetry_2
Co1 O1 1_555 1_555
Co2 O1 1_555 1_555
Co3 O2 1_555 1_555
C1 C2 1_555 1_555
C2 C3 1_555 1_555
C3 H1 1_555 1_555
C4 C3 1_555 1_555
C5 C4 1_555 1_555
H2 C5 1_555 1_555
C6 C5 1_555 1_555
H3 C6 1_555 1_555
C7 C2 1_555 1_555
C8 C7 1_555 1_555
C9 C8 1_555 1_555
C10 C9 1_555 1_555
H4 C10 1_555 1_555
C11 C10 1_555 1_555
C12 C11 1_555 1_555
H5 C12 1_555 1_555
C13 C8 1_555 1_555
H6 C13 1_555 1_555
C14 C11 1_555 1_555
C15 C9 1_555 1_555
C16 C4 1_555 1_555
O1 C1 1_555 1_555
O2 C1 1_555 1_555
O3 C16 1_555 1_555
O4 C16 1_555 1_555
O5 Co1 1_555 1_555
O6 C15 1_555 1_555
O7 C14 1_555 1_555
O8 C14 1_555 1_555
O9 Co2 1_555 1_555
H7 O9 1_555 1_555
O10 Co2 1_555 1_555
H8 O10 1_555 1_555
H9 O10 1_555 1_555
O11 Co3 1_555 1_555
H10 O11 1_555 1_555
H11 O11 1_555 1_555
O12 H12 1_555 1_555
H13 O12 1_555 1_555
Co1_2 O4 1_555 1_555
Co1_3 O1_2 1_555 1_555
Co2_2 O1_2 1_555 1_555
Co2_3 O3 1_555 1_555
Co2B O5 1_555 1_555
Co2A O7 1_555 1_555
Co2B_2 O5_2 1_555 1_555
Co2A_2 O7_2 1_555 1_555
Co2B_3 O9B 1_555 1_555
Co3_2 O2_2 1_555 1_555
Co3C O8 1_555 1_555
Co3B O9 1_555 1_555
Co3C_2 O8_2 1_555 1_555
C1_2 C2_2 1_555 1_555
C2_2 C3_2 1_555 1_555
C3_2 H1_2 1_555 1_555
C4_2 C3_2 1_555 1_555
C5_2 C4_2 1_555 1_555
H2_2 C5_2 1_555 1_555
C6_2 C5_2 1_555 1_555
H3_2 C6_2 1_555 1_555
C7_2 C2_2 1_555 1_555
C8_2 C7_2 1_555 1_555
C9_2 C8_2 1_555 1_555
C10_2 C9_2 1_555 1_555
H4_2 C10_2 1_555 1_555
C11_2 C10_2 1_555 1_555
C12_2 C11_2 1_555 1_555
H5_2 C12_2 1_555 1_555
C13_2 C8_2 1_555 1_555
H6_2 C13_2 1_555 1_555
C14_2 C11_2 1_555 1_555
C15_2 C9_2 1_555 1_555
C16_2 C4_2 1_555 1_555
O1_2 C1_2 1_555 1_555
O1B Co1 1_555 1_555
O2_2 C1_2 1_555 1_555
O3_2 Co2 1_555 1_555
O3_3 Co2_2 1_555 1_555
O4_2 Co1 1_555 1_555
O4B Co1 1_555 1_555
O5_2 Co1_3 1_555 1_555
O5B Co1 1_555 1_555
O5B_2 Co1_3 1_555 1_555
O6_2 C15_2 1_555 1_555
O7_2 C14_2 1_555 1_555
O7A Co2 1_555 1_555
O7A_2 Co2_2 1_555 1_555
O8_2 C14_2 1_555 1_555
O8C Co3 1_555 1_555
O8C_2 Co3_2 1_555 1_555
O9B Co3 1_555 1_555
O9_2 Co2_2 1_555 1_555
O9B_2 Co3_2 1_555 1_555
H7B O9B 1_555 1_555
H7_2 O9_2 1_555 1_555
H7B_2 O9B_2 1_555 1_555
O10_2 Co2_2 1_555 1_555
H8_2 O10_2 1_555 1_555
H9_2 O10_2 1_555 1_555
O11_2 Co3_2 1_555 1_555
H10_2 O11_2 1_555 1_555
H11_2 O11_2 1_555 1_555
Co2 O5B 1_555 1_555
Co3 O9 1_555 1_555
Co3 O10 1_555 1_555
C6 C7 1_555 1_555
C12 C13 1_555 1_555
C15 O5 1_555 1_555
Co2_2 O5B_2 1_555 1_555
Co2B O1B 1_555 1_555
Co3_2 O9_2 1_555 1_555
Co3_2 O10_2 1_555 1_555
Co3B O9B 1_555 1_555
C6_2 C7_2 1_555 1_555
C12_2 C13_2 1_555 1_555
C15_2 O5_2 1_555 1_555
C16_2 O3_2 1_555 1_555
C16_2 O4_2 1_555 1_555

#END
