
#######################################################################
#
#                 Cambridge Crystallographic Data Centre
#                                CCDC 
#
#######################################################################
#
# If this CIF has been generated from an entry in the Cambridge 
# Structural Database, then it will include bibliographic, chemical, 
# crystal, experimental, refinement or atomic coordinate data resulting 
# from the CCDC's data processing and validation procedures.
#
#######################################################################

data_XUYYAS
_symmetry_cell_setting           monoclinic
_symmetry_space_group_name_H-M   'P 21/n'
_symmetry_Int_Tables_number      14
_space_group_name_Hall           '-P 2yn'
loop_
_symmetry_equiv_pos_site_id
_symmetry_equiv_pos_as_xyz
1 x,y,z
2 1/2-x,1/2+y,1/2-z
3 -x,-y,-z
4 1/2+x,1/2-y,1/2+z
_cell_length_a                   8.8527(9)
_cell_length_b                   13.6187(14)
_cell_length_c                   19.956(2)
_cell_angle_alpha                90
_cell_angle_beta                 101.433(1)
_cell_angle_gamma                90
_cell_volume                     2358.2
loop_
_atom_site_label
_atom_site_type_symbol
_atom_site_fract_x
_atom_site_fract_y
_atom_site_fract_z
Zn1 Zn 0.03287(3) 0.01217(2) 0.187012(17)
Zn2 Zn 0.02560(3) 0.00460(2) 0.424280(15)
C1 C 0.2779(4) -0.1039(2) 0.28599(15)
H1 H 0.1993 -0.1399 0.2990
C2 C 0.4282(4) -0.1173(2) 0.32181(16)
H2 H 0.4501 -0.1642 0.3562
C3 C 0.5431(4) -0.0604(2) 0.30560(16)
H3 H 0.6431 -0.0660 0.3307
C4 C 0.5103(3) 0.0065(2) 0.25134(17)
C5 C 0.6229(3) 0.0671(2) 0.22948(18)
H4 H 0.7232 0.0677 0.2547
C6 C 0.5873(3) 0.1232(2) 0.17333(19)
H5 H 0.6639 0.1607 0.1599
C7 C 0.4336(3) 0.1265(2) 0.13371(17)
C8 C 0.3894(4) 0.1783(2) 0.07237(18)
H6 H 0.4618 0.2150 0.0552
C9 C 0.2411(5) 0.1751(2) 0.03796(19)
H7 H 0.2126 0.2070 -0.0039
C10 C 0.1311(4) 0.1237(2) 0.06570(17)
H8 H 0.0289 0.1244 0.0427
C11 C 0.3176(3) 0.07271(19) 0.15643(14)
C12 C 0.3578(3) 0.01116(18) 0.21572(14)
C13 C 0.0344(3) 0.13426(19) 0.30059(13)
C14 C 0.0195(3) 0.22925(18) 0.33680(13)
C15 C -0.1196(3) 0.27956(18) 0.32005(14)
H9 H -0.1936 0.2592 0.2828
C16 C -0.1491(3) 0.35966(18) 0.35831(14)
C17 C -0.0357(3) 0.39182(19) 0.41208(14)
H10 H -0.0552 0.4446 0.4387
C18 C 0.1063(3) 0.34564(19) 0.42632(14)
H11 H 0.1834 0.3699 0.4609
C19 C 0.1352(3) 0.26322(18) 0.38944(13)
C20 C -0.3002(3) 0.4110(2) 0.34067(15)
C21 C 0.2891(3) 0.21325(18) 0.40725(13)
C22 C 0.3330(3) 0.16697(18) 0.47034(13)
C23 C 0.2212(3) 0.16006(18) 0.51808(13)
C24 C 0.4791(3) 0.12531(19) 0.48841(13)
H12 H 0.5089 0.0961 0.5311
C25 C 0.5814(3) 0.12667(18) 0.44360(13)
C26 C 0.5360(3) 0.17210(18) 0.38043(13)
H13 H 0.6025 0.1731 0.3498
C27 C 0.3922(3) 0.2159(2) 0.36289(14)
H14 H 0.3643 0.2474 0.3209
C28 C 0.7388(3) 0.08113(18) 0.46438(14)
N1 N 0.2425(2) -0.04193(16) 0.23427(11)
N2 N 0.1683(3) 0.07384(17) 0.12366(12)
O1 O 0.0002(2) 0.13423(13) 0.23622(9)
O2 O 0.0765(2) 0.05907(13) 0.33550(9)
O3 O -0.3882(2) 0.39580(14) 0.28405(10)
O4 O -0.3378(2) 0.47167(15) 0.38241(10)
O5 O 0.09331(19) 0.11739(13) 0.49655(9)
O6 O 0.2599(2) 0.19614(14) 0.57603(9)
O7 O 0.78509(19) 0.06702(13) 0.52773(9)
O8 O 0.81004(19) 0.06064(13) 0.41760(9)
O9 O -0.0498(2) -0.11656(14) 0.36144(11)
H15 H -0.1144 -0.1472 0.3773
H16 H -0.082(4) -0.109(3) 0.3182(19)
Zn1A Zn -0.53287(3) 0.51217(2) 0.312988(17)
Zn2B Zn 0.97440(3) -0.00460(2) 0.575720(15)
Zn2_2 Zn 1.02560(3) 0.00460(2) 0.424280(15)
O3A O -0.1118(2) -0.10420(14) 0.21595(10)
O4A O -0.1622(2) -0.02833(15) 0.11759(10)
O7B O 0.21491(19) -0.06702(13) 0.47227(9)
O8_2 O -0.18996(19) 0.06064(13) 0.41760(9)
loop_
_geom_bond_atom_site_label_1
_geom_bond_atom_site_label_2
_geom_bond_site_symmetry_1
_geom_bond_site_symmetry_2
Zn1 N1 1_555 1_555
Zn2 O2 1_555 1_555
C1 H1 1_555 1_555
C2 C1 1_555 1_555
H2 C2 1_555 1_555
C3 C2 1_555 1_555
H3 C3 1_555 1_555
C4 C3 1_555 1_555
C5 C4 1_555 1_555
H4 C5 1_555 1_555
C6 C5 1_555 1_555
H5 C6 1_555 1_555
C7 C6 1_555 1_555
C8 C7 1_555 1_555
H6 C8 1_555 1_555
C9 C8 1_555 1_555
H7 C9 1_555 1_555
C10 C9 1_555 1_555
H8 C10 1_555 1_555
C11 C7 1_555 1_555
C12 C4 1_555 1_555
C13 C14 1_555 1_555
C14 C15 1_555 1_555
C15 H9 1_555 1_555
C16 C15 1_555 1_555
C17 C16 1_555 1_555
H10 C17 1_555 1_555
C18 C17 1_555 1_555
H11 C18 1_555 1_555
C19 C14 1_555 1_555
C20 C16 1_555 1_555
C21 C19 1_555 1_555
C22 C21 1_555 1_555
C23 C22 1_555 1_555
C24 C22 1_555 1_555
H12 C24 1_555 1_555
C25 C24 1_555 1_555
C26 C25 1_555 1_555
H13 C26 1_555 1_555
C27 C21 1_555 1_555
H14 C27 1_555 1_555
C28 C25 1_555 1_555
N1 C1 1_555 1_555
N2 Zn1 1_555 1_555
O1 Zn1 1_555 1_555
O2 C13 1_555 1_555
O3 C20 1_555 1_555
O4 C20 1_555 1_555
O5 Zn2 1_555 1_555
O6 C23 1_555 1_555
O7 C28 1_555 1_555
O8 C28 1_555 1_555
O9 Zn2 1_555 1_555
H15 O9 1_555 1_555
H16 O9 1_555 1_555
Zn1A O3 1_555 1_555
Zn2B O7 1_555 1_555
Zn2_2 O8 1_555 1_555
O3A Zn1 1_555 1_555
O4A Zn1 1_555 1_555
O7B Zn2 1_555 1_555
O8_2 Zn2 1_555 1_555
C10 N2 1_555 1_555
C11 C12 1_555 1_555
C11 N2 1_555 1_555
C12 N1 1_555 1_555
C13 O1 1_555 1_555
C18 C19 1_555 1_555
C23 O5 1_555 1_555
C26 C27 1_555 1_555
O4 Zn1A 1_555 1_555

#END
