
#######################################################################
#
#                 Cambridge Crystallographic Data Centre
#                                CCDC 
#
#######################################################################
#
# If this CIF has been generated from an entry in the Cambridge 
# Structural Database, then it will include bibliographic, chemical, 
# crystal, experimental, refinement or atomic coordinate data resulting 
# from the CCDC's data processing and validation procedures.
#
#######################################################################

data_XUYZOG
_symmetry_cell_setting           monoclinic
_symmetry_space_group_name_H-M   'P 21/n'
_symmetry_Int_Tables_number      14
_space_group_name_Hall           '-P 2yn'
loop_
_symmetry_equiv_pos_site_id
_symmetry_equiv_pos_as_xyz
1 x,y,z
2 1/2+x,1/2-y,1/2+z
3 -x,-y,-z
4 1/2-x,1/2+y,1/2-z
_cell_length_a                   9.2950(2)
_cell_length_b                   9.5410(2)
_cell_length_c                   13.486(3)
_cell_angle_alpha                90.00
_cell_angle_beta                 91.58(3)
_cell_angle_gamma                90.00
_cell_volume                     1195.53
loop_
_atom_site_label
_atom_site_type_symbol
_atom_site_fract_x
_atom_site_fract_y
_atom_site_fract_z
Cu1 Cu 0.25100(13) 0.01444(14) 0.97736(10)
N1 N 0.3528(9) -0.1408(9) 0.8999(6)
N2 N 0.1413(9) 0.1898(9) 0.9416(6)
N3 N -0.0510(9) 0.0418(9) 0.9856(6)
N4 N 0.5503(9) -0.0368(10) 0.9786(7)
C1 C 0.3019(12) -0.2422(12) 0.8447(8)
H1 H 0.2032 -0.2447 0.8319
C2 C 0.3857(11) -0.3476(11) 0.8035(8)
H2 H 0.3418 -0.4182 0.7659
C3 C 0.5324(12) -0.3477(11) 0.8180(8)
H3 H 0.5900 -0.4172 0.7913
C4 C 0.5898(12) -0.2404(11) 0.8737(8)
H4 H 0.6887 -0.2327 0.8845
C5 C 0.4944(11) -0.1412(11) 0.9147(7)
C6 C 0.1857(12) 0.3148(12) 0.9095(8)
H5 H 0.2842 0.3287 0.9036
C7 C 0.0963(12) 0.4229(12) 0.8849(8)
H6 H 0.1323 0.5094 0.8655
C8 C -0.0523(12) 0.3993(12) 0.8897(8)
H7 H -0.1171 0.4687 0.8696
C9 C -0.0028(11) 0.1713(10) 0.9511(7)
C10 C -0.1023(11) 0.2719(11) 0.9246(8)
H8 H -0.2004 0.2551 0.9299
N4B N 0.4497(9) 0.0368(10) 1.0214(7)
C5B C 0.5056(11) 0.1412(11) 1.0853(7)
N1B N 0.6472(9) 0.1408(9) 1.1001(6)
C1B C 0.6981(12) 0.2422(12) 1.1553(8)
H1B H 0.7968 0.2447 1.1681
C2B C 0.6143(11) 0.3476(11) 1.1965(8)
H2B H 0.6582 0.4182 1.2341
C3B C 0.4676(12) 0.3477(11) 1.1820(8)
H3B H 0.4100 0.4172 1.2087
C4B C 0.4102(12) 0.2404(11) 1.1263(8)
H4B H 0.3113 0.2327 1.1155
N3B N 0.0510(9) -0.0418(9) 1.0144(6)
C9B C 0.0028(11) -0.1713(10) 1.0489(7)
N2B N -0.1413(9) -0.1898(9) 1.0584(6)
C6B C -0.1857(12) -0.3148(12) 1.0905(8)
H5B H -0.2842 -0.3287 1.0964
C7B C -0.0963(12) -0.4229(12) 1.1151(8)
H6B H -0.1323 -0.5094 1.1345
C8B C 0.0523(12) -0.3993(12) 1.1103(8)
H7B H 0.1171 -0.4687 1.1304
C10B C 0.1023(11) -0.2719(11) 1.0754(8)
H8B H 0.2004 -0.2551 1.0701
Cu1B Cu 0.74900(13) -0.01444(14) 1.02264(10)
Cu1B_2 Cu -0.25100(13) -0.01444(14) 1.02264(10)
N2B_2 N 0.8587(9) -0.1898(9) 1.0584(6)
N3_2 N 0.9490(9) 0.0418(9) 0.9856(6)
F1 F 0.1677(7) 0.3689(8) 0.2804(5)
F2 F -0.0753(6) 0.3596(7) 0.2968(5)
F3 F 0.0620(7) 0.1915(8) 0.3670(6)
F4 F 0.0461(8) 0.2039(10) 0.1992(6)
B1 B 0.0503(14) 0.2745(14) 0.2859(11)
loop_
_geom_bond_atom_site_label_1
_geom_bond_atom_site_label_2
_geom_bond_site_symmetry_1
_geom_bond_site_symmetry_2
Cu1 N1 1_555 1_555
N1 C1 1_555 1_555
N2 Cu1 1_555 1_555
N3 C9 1_555 1_555
N4 C5 1_555 1_555
C1 H1 1_555 1_555
C2 C1 1_555 1_555
H2 C2 1_555 1_555
C3 C2 1_555 1_555
H3 C3 1_555 1_555
C4 C3 1_555 1_555
H4 C4 1_555 1_555
C5 N1 1_555 1_555
C6 N2 1_555 1_555
H5 C6 1_555 1_555
C7 C6 1_555 1_555
H6 C7 1_555 1_555
C8 C7 1_555 1_555
H7 C8 1_555 1_555
C9 N2 1_555 1_555
C10 C8 1_555 1_555
H8 C10 1_555 1_555
F1 B1 1_555 1_555
F2 B1 1_555 1_555
F3 B1 1_555 1_555
F4 B1 1_555 1_555
N4B Cu1 1_555 1_555
C5B N4B 1_555 1_555
N1B C5B 1_555 1_555
C1B N1B 1_555 1_555
H1B C1B 1_555 1_555
C2B C1B 1_555 1_555
H2B C2B 1_555 1_555
C3B C2B 1_555 1_555
H3B C3B 1_555 1_555
C4B C5B 1_555 1_555
H4B C4B 1_555 1_555
N3B Cu1 1_555 1_555
C9B N3B 1_555 1_555
N2B C9B 1_555 1_555
C6B N2B 1_555 1_555
H5B C6B 1_555 1_555
C7B C6B 1_555 1_555
H6B C7B 1_555 1_555
C8B C7B 1_555 1_555
H7B C8B 1_555 1_555
C10B C9B 1_555 1_555
H8B C10B 1_555 1_555
Cu1B N4 1_555 1_555
Cu1B_2 N3 1_555 1_555
N2B_2 Cu1B 1_555 1_555
N3_2 Cu1B 1_555 1_555
N3 N3B 1_555 1_555
N4 N4B 1_555 1_555
C4 C5 1_555 1_555
C9 C10 1_555 1_555
N1B Cu1B 1_555 1_555
C3B C4B 1_555 1_555
N2B Cu1B_2 1_555 1_555
C8B C10B 1_555 1_555

#END
