
#######################################################################
#
#                 Cambridge Crystallographic Data Centre
#                                CCDC 
#
#######################################################################
#
# If this CIF has been generated from an entry in the Cambridge 
# Structural Database, then it will include bibliographic, chemical, 
# crystal, experimental, refinement or atomic coordinate data resulting 
# from the CCDC's data processing and validation procedures.
#
#######################################################################

data_XUZDUS
_symmetry_cell_setting           orthorhombic
_symmetry_space_group_name_H-M   'P b c a'
_symmetry_Int_Tables_number      61
_space_group_name_Hall           '-P 2ac 2ab'
loop_
_symmetry_equiv_pos_site_id
_symmetry_equiv_pos_as_xyz
1 x,y,z
2 1/2-x,-y,1/2+z
3 1/2+x,1/2-y,-z
4 -x,1/2+y,1/2-z
5 -x,-y,-z
6 1/2+x,y,1/2-z
7 1/2-x,1/2+y,z
8 x,1/2-y,1/2+z
_cell_length_a                   12.3001(10)
_cell_length_b                   11.1003(9)
_cell_length_c                   43.003(4)
_cell_angle_alpha                90
_cell_angle_beta                 90
_cell_angle_gamma                90
_cell_volume                     5871.41
loop_
_atom_site_label
_atom_site_type_symbol
_atom_site_fract_x
_atom_site_fract_y
_atom_site_fract_z
Ag1 Ag -0.88468(3) 0.50340(4) 0.018105(9)
Ag2 Ag -0.59666(4) 0.34292(4) 0.132062(9)
Ag3 Ag -0.86923(3) 0.31698(3) -0.254201(9)
S1 S -0.73850(10) 0.38729(11) -0.18313(3)
O1 O -0.8310(3) 0.4469(4) -0.03014(8)
O2 O -0.9659(3) 0.5617(3) -0.04821(8)
O3 O -0.8311(3) 0.4142(3) -0.20282(7)
O4 O -0.7098(3) 0.2605(3) -0.18310(9)
O5 O -0.6458(3) 0.4631(4) -0.18969(10)
O6 O -0.6648(4) -0.0933(4) 0.13488(9)
O7 O -0.6761(4) 0.1009(4) 0.13599(10)
O8 O -0.6064(3) 0.0037(3) 0.17470(10)
O9 O -0.3820(5) 0.3522(7) 0.13310(18)
N1 N -0.7179(3) 0.4003(3) 0.03597(9)
N2 N -0.6069(3) 0.3384(3) 0.08042(9)
N3 N -0.6197(3) 0.2088(4) 0.03422(9)
N4 N -0.5211(3) 0.3998(4) 0.03175(10)
N5 N -0.6053(3) 0.3470(3) 0.18402(9)
N6 N -0.7137(3) 0.2846(3) 0.22907(8)
N7 N -0.5154(3) 0.2894(3) 0.23266(8)
N8 N -0.6187(3) 0.4779(3) 0.22971(9)
N9 N -0.6478(4) 0.0032(4) 0.14806(11)
C1 C -0.8825(4) 0.4972(5) -0.05164(13)
C2 C -0.8450(4) 0.4751(5) -0.08447(12)
C3 C -0.9001(4) 0.5199(5) -0.10965(12)
H1 H -0.9605 0.5687 -0.1064
C4 C -0.8682(4) 0.4947(5) -0.13958(12)
H2 H -0.9063 0.5265 -0.1564
C5 C -0.7797(4) 0.4220(5) -0.14447(12)
C6 C -0.7198(6) 0.3784(8) -0.12004(15)
H3 H -0.6581 0.3319 -0.1236
C7 C -0.7530(6) 0.4049(8) -0.09003(15)
H4 H -0.7133 0.3754 -0.0733
C8 C -0.7081(4) 0.4000(4) 0.06998(11)
H5 H -0.7706 0.3595 0.0789
H6 H -0.7079 0.4824 0.0775
C9 C -0.7192(4) 0.2747(4) 0.02493(11)
H7 H -0.7253 0.2740 0.0024
H8 H -0.7823 0.2338 0.0334
C10 C -0.6217(4) 0.4605(5) 0.02244(13)
H9 H -0.6274 0.4601 -0.0001
H10 H -0.6196 0.5437 0.0293
C11 C -0.6101(4) 0.2128(4) 0.06845(11)
H11 H -0.5444 0.1712 0.0747
H12 H -0.6715 0.1710 0.0776
C12 C -0.5245(4) 0.2756(5) 0.02070(11)
H13 H -0.4577 0.2349 0.0265
H14 H -0.5298 0.2751 -0.0018
C13 C -0.5122(4) 0.3992(5) 0.06552(11)
H15 H -0.5076 0.4815 0.0730
H16 H -0.4459 0.3580 0.0715
C14 C -0.5080(3) 0.2877(4) 0.19821(10)
H17 H -0.5032 0.2050 0.1910
H18 H -0.4426 0.3295 0.1917
C15 C -0.7041(3) 0.2824(4) 0.19502(10)
H19 H -0.7680 0.3195 0.1859
H20 H -0.7012 0.1994 0.1880
C16 C -0.6103(3) 0.4734(4) 0.19563(11)
H21 H -0.5454 0.5163 0.1891
H22 H -0.6727 0.5136 0.1865
C17 C -0.6156(3) 0.2266(4) 0.24217(11)
H23 H -0.6206 0.2264 0.2647
H24 H -0.6124 0.1435 0.2352
C18 C -0.5220(3) 0.4171(4) 0.24310(10)
H25 H -0.5260 0.4198 0.2656
H26 H -0.4567 0.4596 0.2367
C19 C -0.7177(3) 0.4124(4) 0.23959(11)
H27 H -0.7814 0.4514 0.2309
H28 H -0.7238 0.4150 0.2621
Ag1D Ag -1.11532(3) 0.49660(4) -0.018105(9)
Ag1F Ag -0.61532(3) 0.00340(4) 0.018105(9)
Ag3G Ag -0.86923(3) 0.18302(3) 0.245799(9)
Ag3B Ag -0.36923(3) 0.18302(3) 0.254201(9)
Ag3A Ag -0.63077(3) 0.68302(3) 0.245799(9)
O2D O -1.0341(3) 0.4383(3) 0.04821(8)
N3F N -0.8803(3) 0.7088(4) 0.03422(9)
N6G N -0.7137(3) 0.2154(3) -0.27093(8)
N7B N -1.0154(3) 0.2106(3) -0.23266(8)
N8A N -0.8813(3) 0.5221(3) -0.27029(9)
O10 O -0.5244(3) 0.7541(4) 0.18234(10)
O11 O -0.5933(4) 0.6166(4) 0.12708(11)
O12 O -0.5422(4) 0.7138(4) 0.06645(10)
loop_
_geom_bond_atom_site_label_1
_geom_bond_atom_site_label_2
_geom_bond_site_symmetry_1
_geom_bond_site_symmetry_2
Ag1 O1 1_555 1_555
Ag2 O7 1_555 1_555
Ag3 O3 1_555 1_555
S1 O3 1_555 1_555
O1 C1 1_555 1_555
O2 C1 1_555 1_555
O4 S1 1_555 1_555
O5 S1 1_555 1_555
O6 N9 1_555 1_555
O7 N9 1_555 1_555
O8 N9 1_555 1_555
O9 Ag2 1_555 1_555
N1 Ag1 1_555 1_555
N2 Ag2 1_555 1_555
N3 C9 1_555 1_555
N4 C10 1_555 1_555
N5 Ag2 1_555 1_555
N6 C15 1_555 1_555
N7 C14 1_555 1_555
N8 C16 1_555 1_555
C1 C2 1_555 1_555
C2 C3 1_555 1_555
C3 H1 1_555 1_555
C4 C3 1_555 1_555
H2 C4 1_555 1_555
C5 S1 1_555 1_555
C6 C5 1_555 1_555
H3 C6 1_555 1_555
C7 C2 1_555 1_555
H4 C7 1_555 1_555
C8 N1 1_555 1_555
H5 C8 1_555 1_555
H6 C8 1_555 1_555
C9 N1 1_555 1_555
H7 C9 1_555 1_555
H8 C9 1_555 1_555
C10 N1 1_555 1_555
H9 C10 1_555 1_555
H10 C10 1_555 1_555
C11 N2 1_555 1_555
H11 C11 1_555 1_555
H12 C11 1_555 1_555
C12 N3 1_555 1_555
H13 C12 1_555 1_555
H14 C12 1_555 1_555
C13 N2 1_555 1_555
H15 C13 1_555 1_555
H16 C13 1_555 1_555
C14 N5 1_555 1_555
H17 C14 1_555 1_555
H18 C14 1_555 1_555
C15 N5 1_555 1_555
H19 C15 1_555 1_555
H20 C15 1_555 1_555
C16 N5 1_555 1_555
H21 C16 1_555 1_555
H22 C16 1_555 1_555
C17 N6 1_555 1_555
H23 C17 1_555 1_555
H24 C17 1_555 1_555
C18 N7 1_555 1_555
H25 C18 1_555 1_555
H26 C18 1_555 1_555
C19 N6 1_555 1_555
H27 C19 1_555 1_555
H28 C19 1_555 1_555
Ag1D Ag1 1_555 1_555
Ag1F N3 1_555 1_555
Ag3G N6 1_555 1_555
Ag3B N7 1_555 1_555
Ag3A N8 1_555 1_555
O2D Ag1 1_555 1_555
N3F Ag1 1_555 1_555
N6G Ag3 1_555 1_555
N7B Ag3 1_555 1_555
N8A Ag3 1_555 1_555
O2 Ag1D 1_555 1_555
N2 C8 1_555 1_555
N3 C11 1_555 1_555
N4 C12 1_555 1_555
N4 C13 1_555 1_555
N7 C17 1_555 1_555
N8 C18 1_555 1_555
N8 C19 1_555 1_555
C4 C5 1_555 1_555
C6 C7 1_555 1_555

#END
