
#######################################################################
#
#                 Cambridge Crystallographic Data Centre
#                                CCDC 
#
#######################################################################
#
# If this CIF has been generated from an entry in the Cambridge 
# Structural Database, then it will include bibliographic, chemical, 
# crystal, experimental, refinement or atomic coordinate data resulting 
# from the CCDC's data processing and validation procedures.
#
#######################################################################

data_XUZFUU
_symmetry_cell_setting           orthorhombic
_symmetry_space_group_name_H-M   'I m m a'
_symmetry_Int_Tables_number      74
_space_group_name_Hall           '-I 2b 2'
loop_
_symmetry_equiv_pos_site_id
_symmetry_equiv_pos_as_xyz
1 x,y,z
2 -x,1/2-y,z
3 x,-y,-z
4 -x,1/2+y,-z
5 1/2+x,1/2+y,1/2+z
6 1/2-x,-y,1/2+z
7 1/2+x,1/2-y,1/2-z
8 1/2-x,y,1/2-z
9 -x,-y,-z
10 x,1/2+y,-z
11 -x,y,z
12 x,1/2-y,z
13 1/2-x,1/2-y,1/2-z
14 1/2+x,y,1/2-z
15 1/2-x,1/2+y,1/2+z
16 1/2+x,-y,1/2+z
_cell_length_a                   16.6995(15)
_cell_length_b                   16.7106(16)
_cell_length_c                   9.7907(10)
_cell_angle_alpha                90
_cell_angle_beta                 90
_cell_angle_gamma                90
_cell_volume                     2732.18
loop_
_atom_site_label
_atom_site_type_symbol
_atom_site_fract_x
_atom_site_fract_y
_atom_site_fract_z
Ho1 Ho 0.0000 0.7500 0.11987(7)
O1 O 0.0902(4) 0.7500 0.3100(7)
O2 O 0.1360(4) 0.7500 0.0513(8)
O3 O 0.0000 0.6170(4) 0.1956(8)
O4 O 0.0000 0.6603(4) -0.0664(8)
C1 C 0.1676(6) 0.7500 0.2878(11)
C2 C 0.1928(6) 0.7500 0.1422(11)
C3 C 0.0000 0.4780(6) 0.1384(11)
C4 C 0.0000 0.5831(6) -0.0389(9)
C5 C 0.0000 0.5585(6) 0.1046(10)
C6 C 0.2253(6) 0.7500 0.3900(10)
H1 H 0.0000 0.4634 0.2322
H2 H 0.2091 0.7500 0.4830
Ho1F Ho 0.5000 0.7500 0.38013(7)
Ho1B Ho 0.0000 0.2500 -0.11987(7)
O1G O 0.4098(4) 0.7500 0.1900(7)
O1A O -0.0902(4) 0.7500 0.3100(7)
O2G O 0.3640(4) 0.7500 0.4487(8)
O2A O -0.1360(4) 0.7500 0.0513(8)
O3B O 0.0000 0.3830(4) -0.1956(8)
O3A O 0.0000 0.8830(4) 0.1956(8)
O4B O 0.0000 0.3397(4) 0.0664(8)
O4A O 0.0000 0.8397(4) -0.0664(8)
C1G C 0.3324(6) 0.7500 0.2122(11)
C2G C 0.3072(6) 0.7500 0.3578(11)
C3B C 0.0000 0.5220(6) -0.1384(11)
C4B C 0.0000 0.4169(6) 0.0389(9)
C5B C 0.0000 0.4415(6) -0.1046(10)
C6G C 0.2747(6) 0.7500 0.1100(10)
H1B H 0.0000 0.5366 -0.2322
H2G H 0.2909 0.7500 0.0170
Na1 Na 0.0000 0.7500 0.5071(7)
Na2 Na -0.1381(5) 0.6865(5) -0.1717(9)
O5 O -0.0742(8) 0.7960(8) 0.7016(12)
O6 O 0.0000 0.5995(8) 0.4684(10)
O7 O 0.1690(5) 0.5598(5) 0.2434(11)
O8 O -0.1945(5) 0.5862(6) -0.0565(10)
O9 O -0.1482(16) 0.6010(10) -0.364(2)
O11 O -0.2500 0.7500 -0.2500
O10? O -0.1489(10) 0.5686(13) -0.4052(18)
loop_
_geom_bond_atom_site_label_1
_geom_bond_atom_site_label_2
_geom_bond_site_symmetry_1
_geom_bond_site_symmetry_2
Ho1 O1 1_555 1_555
O1 C1 1_555 1_555
O2 Ho1 1_555 1_555
O3 Ho1 1_555 1_555
O4 Ho1 1_555 1_555
C1 C2 1_555 1_555
C2 O2 1_555 1_555
C3 C5 1_555 1_555
C4 O4 1_555 1_555
C5 O3 1_555 1_555
C6 C1 1_555 1_555
H1 C3 1_555 1_555
H2 C6 1_555 1_555
Ho1F O1G 1_555 1_555
Ho1B O3B 1_555 1_555
O1G C1G 1_555 1_555
O1A Ho1 1_555 1_555
O2G Ho1F 1_555 1_555
O2A Ho1 1_555 1_555
O3B C5B 1_555 1_555
O3A Ho1 1_555 1_555
O4B Ho1B 1_555 1_555
O4A Ho1 1_555 1_555
C1G C2G 1_555 1_555
C2G C6 1_555 1_555
C3B C4 1_555 1_555
C4B C3 1_555 1_555
C5B C3B 1_555 1_555
C6G C2 1_555 1_555
H1B C3B 1_555 1_555
H2G C6G 1_555 1_555
C4 C5 1_555 1_555
O2G C2G 1_555 1_555
O4B C4B 1_555 1_555
C1G C6G 1_555 1_555
C4B C5B 1_555 1_555

#END
