
#######################################################################
#
#                 Cambridge Crystallographic Data Centre
#                                CCDC 
#
#######################################################################
#
# If this CIF has been generated from an entry in the Cambridge 
# Structural Database, then it will include bibliographic, chemical, 
# crystal, experimental, refinement or atomic coordinate data resulting 
# from the CCDC's data processing and validation procedures.
#
#######################################################################

data_XUZFAA
_symmetry_cell_setting           tetragonal
_symmetry_space_group_name_H-M   'I 41/a'
_symmetry_Int_Tables_number      88
_space_group_name_Hall           '-I 4ad'
loop_
_symmetry_equiv_pos_site_id
_symmetry_equiv_pos_as_xyz
1 x,y,z
2 3/4-y,1/4+x,1/4+z
3 1/2-x,-y,1/2+z
4 3/4+y,3/4-x,3/4+z
5 1/2+x,1/2+y,1/2+z
6 1/4-y,3/4+x,3/4+z
7 -x,1/2-y,z
8 1/4+y,1/4-x,1/4+z
9 -x,-y,-z
10 1/4+y,3/4-x,3/4-z
11 1/2+x,y,1/2-z
12 1/4-y,1/4+x,1/4-z
13 1/2-x,1/2-y,1/2-z
14 3/4+y,1/4-x,1/4-z
15 x,1/2+y,-z
16 3/4-y,3/4+x,3/4-z
_cell_length_a                   15.6671(2)
_cell_length_b                   15.6671(2)
_cell_length_c                   12.6333(2)
_cell_angle_alpha                90
_cell_angle_beta                 90
_cell_angle_gamma                90
_cell_volume                     3100.94
loop_
_atom_site_label
_atom_site_type_symbol
_atom_site_fract_x
_atom_site_fract_y
_atom_site_fract_z
Co1 Co 0.2500 0.2500 0.2500
N1 N 0.17598(15) 0.16923(15) 0.15300(19)
N2 N 0.10511(15) 0.07762(16) 0.0466(2)
N3 N 0.19669(16) 0.09510(18) -0.1079(2)
N4 N 0.21278(15) 0.16648(15) 0.05509(19)
C1 C 0.28731(18) 0.20998(18) 0.0309(2)
C2 C 0.3126(2) 0.1950(2) -0.0737(3)
H1 H 0.3604 0.2228 -0.1005
C3 C 0.2672(2) 0.1390(2) -0.1383(3)
C4 C 0.17143(18) 0.11072(18) -0.0095(2)
C5 C 0.11186(19) 0.11559(19) 0.1422(2)
H2 H 0.0737 0.1046 0.1969
C6 C 0.2960(3) 0.1229(3) -0.2505(3)
H3 H 0.3037 0.0627 -0.2612
H4 H 0.3490 0.1519 -0.2629
H5 H 0.2536 0.1439 -0.2988
O1 O 0.31975(13) 0.25584(13) 0.10263(17)
Co1E Co 0.0000 0.0000 0.0000
Co1A Co 0.5000 0.5000 0.5000
N1L N 0.32402(15) 0.33077(15) 0.34700(19)
N2L N 0.39489(15) 0.42238(16) 0.4534(2)
N2G N 0.32762(16) 0.14489(15) 0.2966(2)
N2K N 0.17238(16) 0.35511(15) 0.2034(2)
N3L N 0.30331(16) 0.40490(18) 0.6079(2)
N4L N 0.28722(15) 0.33352(15) 0.44491(19)
C1L C 0.21269(18) 0.29002(18) 0.4691(2)
C2L C 0.1874(2) 0.3050(2) 0.5737(3)
H1L H 0.1396 0.2772 0.6005
C3L C 0.2328(2) 0.3610(2) 0.6383(3)
C4L C 0.32857(18) 0.38928(18) 0.5095(2)
C5L C 0.38814(19) 0.38441(19) 0.3578(2)
H2L H 0.4263 0.3954 0.3031
C6L C 0.2040(3) 0.3771(3) 0.7505(3)
H3L H 0.1963 0.4373 0.7612
H4L H 0.1510 0.3481 0.7629
H5L H 0.2464 0.3561 0.7988
O1L O 0.18025(13) 0.24416(13) 0.39737(17)
O2 O 0.5000 0.2500 0.1805(7)
H6 H 0.4571 0.2600 0.1412
H6F H 0.5429 0.2400 0.1412
loop_
_geom_bond_atom_site_label_1
_geom_bond_atom_site_label_2
_geom_bond_site_symmetry_1
_geom_bond_site_symmetry_2
Co1 N1 1_555 1_555
N1 N4 1_555 1_555
N2 C4 1_555 1_555
N3 C3 1_555 1_555
N4 C1 1_555 1_555
C1 C2 1_555 1_555
C2 H1 1_555 1_555
C3 C2 1_555 1_555
C4 N3 1_555 1_555
C5 N1 1_555 1_555
H2 C5 1_555 1_555
C6 C3 1_555 1_555
H3 C6 1_555 1_555
H4 C6 1_555 1_555
H5 C6 1_555 1_555
O1 Co1 1_555 1_555
O2 H6 1_555 1_555
Co1E N2 1_555 1_555
Co1A N2L 1_555 1_555
N1L Co1 1_555 1_555
N2L C4L 1_555 1_555
N2G Co1 1_555 1_555
N2K Co1 1_555 1_555
N3L C3L 1_555 1_555
N4L N1L 1_555 1_555
C1L N4L 1_555 1_555
C2L C1L 1_555 1_555
H1L C2L 1_555 1_555
C3L C2L 1_555 1_555
C4L N3L 1_555 1_555
C5L N1L 1_555 1_555
H2L C5L 1_555 1_555
C6L C3L 1_555 1_555
H3L C6L 1_555 1_555
H4L C6L 1_555 1_555
H5L C6L 1_555 1_555
O1L Co1 1_555 1_555
H6F O2 1_555 1_555
N2 C5 1_555 1_555
N4 C4 1_555 1_555
C1 O1 1_555 1_555
N2L C5L 1_555 1_555
N4L C4L 1_555 1_555
C1L O1L 1_555 1_555

#END
