
#######################################################################
#
#                 Cambridge Crystallographic Data Centre
#                                CCDC 
#
#######################################################################
#
# If this CIF has been generated from an entry in the Cambridge 
# Structural Database, then it will include bibliographic, chemical, 
# crystal, experimental, refinement or atomic coordinate data resulting 
# from the CCDC's data processing and validation procedures.
#
#######################################################################

data_XUZFOO
_symmetry_cell_setting           triclinic
_symmetry_space_group_name_H-M   'P -1'
_symmetry_Int_Tables_number      2
_space_group_name_Hall           '-P 1'
loop_
_symmetry_equiv_pos_site_id
_symmetry_equiv_pos_as_xyz
1 x,y,z
2 -x,-y,-z
_cell_length_a                   10.2557(12)
_cell_length_b                   14.7071(19)
_cell_length_c                   14.8141(18)
_cell_angle_alpha                90.327(10)
_cell_angle_beta                 90.161(10)
_cell_angle_gamma                97.787(10)
_cell_volume                     2213.78
loop_
_atom_site_label
_atom_site_type_symbol
_atom_site_fract_x
_atom_site_fract_y
_atom_site_fract_z
Pr1 Pr 0.89374(5) 0.49864(4) 0.17740(4)
Pr2 Pr 0.39521(5) 0.50387(4) 0.32280(4)
O1 O 0.7741(7) 0.6263(5) 0.2031(5)
O2 O 0.5875(7) 0.6025(5) 0.2802(5)
C1 C 0.6723(10) 0.6530(8) 0.2353(7)
C2 C 0.6546(10) 0.7497(8) 0.2204(7)
C3 C 0.7505(12) 0.8113(8) 0.1792(8)
H1 H 0.8306 0.7909 0.1610
C4 C 0.7326(14) 0.9006(9) 0.1640(9)
H2 H 0.8006 0.9416 0.1367
C5 C 0.6148(16) 0.9318(10) 0.1884(10)
H3 H 0.6020 0.9936 0.1776
C6 C 0.5166(15) 0.8712(10) 0.2286(9)
H4 H 0.4354 0.8911 0.2446
C7 C 0.5373(12) 0.7819(9) 0.2452(8)
H5 H 0.4704 0.7415 0.2742
O3 O 0.6870(7) 0.4054(5) 0.1619(5)
O4 O 0.4822(7) 0.4118(6) 0.2113(5)
C8 C 0.5661(12) 0.3726(8) 0.1716(7)
C9 C 0.5237(10) 0.2798(8) 0.1297(7)
C10 C 0.3944(11) 0.2388(8) 0.1394(7)
H6 H 0.3338 0.2690 0.1728
C11 C 0.3540(13) 0.1542(9) 0.1006(9)
H7 H 0.2651 0.1269 0.1071
C12 C 0.4403(14) 0.1087(9) 0.0526(10)
H8 H 0.4115 0.0506 0.0257
C13 C 0.5720(14) 0.1496(9) 0.0440(9)
H9 H 0.6328 0.1186 0.0117
C14 C 0.6133(13) 0.2346(9) 0.0823(8)
H10 H 0.7022 0.2620 0.0764
O5 O 1.2241(7) 0.5974(5) 0.3348(5)
O6 O 1.0151(7) 0.5926(5) 0.2905(5)
C15 C 1.1168(10) 0.6305(8) 0.3292(7)
C16 C 1.1115(10) 0.7214(7) 0.3753(7)
C17 C 1.2212(12) 0.7662(8) 0.4213(8)
H11 H 1.3013 0.7404 0.4212
C18 C 1.2142(14) 0.8478(9) 0.4670(9)
H12 H 1.2881 0.8769 0.5000
C19 C 1.0988(15) 0.8864(9) 0.4641(9)
H13 H 1.0941 0.9428 0.4948
C20 C 0.9906(12) 0.8444(9) 0.4175(9)
H14 H 0.9113 0.8711 0.4169
C21 C 0.9981(11) 0.7633(8) 0.3714(7)
H15 H 0.9249 0.7359 0.3368
O7 O 1.2272(7) 0.3762(5) 0.2972(5)
O8 O 1.0458(7) 0.4001(5) 0.2236(5)
C22 C 1.1134(10) 0.3480(8) 0.2647(7)
C23 C 1.0616(11) 0.2492(8) 0.2752(7)
C24 C 1.1382(12) 0.1881(8) 0.3091(8)
H16 H 1.2257 0.2091 0.3282
C25 C 1.0885(13) 0.0951(9) 0.3157(9)
H17 H 1.1430 0.0530 0.3384
C26 C 0.9622(14) 0.0642(10) 0.2899(9)
H18 H 0.9293 0.0008 0.2932
C27 C 0.8832(13) 0.1259(9) 0.2590(10)
H19 H 0.7945 0.1049 0.2428
C28 C 0.9307(12) 0.2179(9) 0.2512(8)
H20 H 0.8751 0.2598 0.2297
O9 O 0.9156(7) 0.3846(5) 0.0523(4)
O10 O 0.9080(7) 0.4242(5) -0.0920(4)
C29 C 0.9107(10) 0.3649(8) -0.0297(7)
C30 C 0.9045(10) 0.2659(7) -0.0561(7)
C31 C 0.9401(11) 0.2036(8) 0.0070(8)
H21 H 0.9676 0.2243 0.0658
C32 C 0.9356(14) 0.1112(9) -0.0157(9)
H22 H 0.9607 0.0690 0.0272
C33 C 0.8939(13) 0.0809(9) -0.1021(9)
H23 H 0.8892 0.0179 -0.1180
C34 C 0.8597(12) 0.1430(9) -0.1638(8)
H24 H 0.8323 0.1224 -0.2226
C35 C 0.8643(12) 0.2348(8) -0.1421(7)
H25 H 0.8402 0.2766 -0.1857
O11 O 0.5589(7) 0.4211(5) 0.4074(5)
O12 O 0.5371(7) 0.3829(5) 0.5527(5)
C36 C 0.5342(9) 0.3639(8) 0.4715(7)
C37 C 0.5003(11) 0.2636(7) 0.4456(7)
C38 C 0.4366(12) 0.2025(8) 0.5086(8)
H26 H 0.4146 0.2236 0.5666
C39 C 0.4057(13) 0.1100(9) 0.4850(9)
H27 H 0.3621 0.0679 0.5270
C40 C 0.4382(14) 0.0797(9) 0.4007(9)
H28 H 0.4170 0.0166 0.3853
C41 C 0.5003(14) 0.1390(9) 0.3395(9)
H29 H 0.5230 0.1171 0.2819
C42 C 0.5304(12) 0.2312(9) 0.3608(8)
H30 H 0.5719 0.2726 0.3173
O13 O 0.8128(8) 0.4408(7) 0.3311(5)
H31 H 0.729(5) 0.446(9) 0.344(8)
C43 C 0.8864(12) 0.4117(9) 0.4074(7)
H32 H 0.8631 0.4433 0.4622
H33 H 0.9809 0.4269 0.3961
H34 H 0.8648 0.3452 0.4152
O14 O 0.8174(7) 0.5545(5) 0.0246(5)
H35 H 0.866(9) 0.523(6) -0.010(7)
C44 C 0.7588(12) 0.6267(8) -0.0137(8)
H36 H 0.6864 0.6013 -0.0537
H37 H 0.8247 0.6663 -0.0486
H38 H 0.7246 0.6627 0.0344
O15 O 0.2961(7) 0.4499(5) 0.4742(5)
H39 H 0.354(9) 0.484(6) 0.510(7)
C45 C 0.2082(11) 0.3765(8) 0.5119(7)
H40 H 0.1383 0.4016 0.5449
H41 H 0.2566 0.3415 0.5534
H42 H 0.1692 0.3360 0.4634
O16 O 0.3364(9) 0.5566(8) 0.1678(5)
H43 H 0.254(6) 0.559(10) 0.150(9)
C46 C 0.4213(12) 0.5866(9) 0.0906(7)
H44 H 0.3758 0.5663 0.0343
H45 H 0.5035 0.5598 0.0950
H46 H 0.4410 0.6537 0.0912
Pr1A Pr 1.10626(5) 0.50136(4) -0.17740(4)
Pr2_2 Pr 1.39521(5) 0.50387(4) 0.32280(4)
Pr2A Pr 0.60479(5) 0.49613(4) 0.67720(4)
O5_2 O 0.2241(7) 0.5974(5) 0.3348(5)
O7_2 O 0.2272(7) 0.3762(5) 0.2972(5)
O10A O 1.0920(7) 0.5758(5) 0.0920(4)
O12A O 0.4629(7) 0.6171(5) 0.4473(5)
loop_
_geom_bond_atom_site_label_1
_geom_bond_atom_site_label_2
_geom_bond_site_symmetry_1
_geom_bond_site_symmetry_2
Pr1 O1 1_555 1_555
Pr2 O2 1_555 1_555
O1 C1 1_555 1_555
O2 C1 1_555 1_555
C1 C2 1_555 1_555
C2 C3 1_555 1_555
C3 H1 1_555 1_555
C4 C3 1_555 1_555
H2 C4 1_555 1_555
C5 C4 1_555 1_555
H3 C5 1_555 1_555
C6 C5 1_555 1_555
H4 C6 1_555 1_555
C7 C2 1_555 1_555
H5 C7 1_555 1_555
O3 Pr1 1_555 1_555
O4 Pr2 1_555 1_555
C8 O3 1_555 1_555
C9 C8 1_555 1_555
C10 C9 1_555 1_555
H6 C10 1_555 1_555
C11 C10 1_555 1_555
H7 C11 1_555 1_555
C12 C11 1_555 1_555
H8 C12 1_555 1_555
C13 C12 1_555 1_555
H9 C13 1_555 1_555
C14 C9 1_555 1_555
H10 C14 1_555 1_555
O5 C15 1_555 1_555
O6 Pr1 1_555 1_555
C15 O6 1_555 1_555
C16 C15 1_555 1_555
C17 C16 1_555 1_555
H11 C17 1_555 1_555
C18 C17 1_555 1_555
H12 C18 1_555 1_555
C19 C18 1_555 1_555
H13 C19 1_555 1_555
C20 C19 1_555 1_555
H14 C20 1_555 1_555
C21 C16 1_555 1_555
H15 C21 1_555 1_555
O7 C22 1_555 1_555
O8 Pr1 1_555 1_555
C22 O8 1_555 1_555
C23 C22 1_555 1_555
C24 C23 1_555 1_555
H16 C24 1_555 1_555
C25 C24 1_555 1_555
H17 C25 1_555 1_555
C26 C25 1_555 1_555
H18 C26 1_555 1_555
C27 C26 1_555 1_555
H19 C27 1_555 1_555
C28 C23 1_555 1_555
H20 C28 1_555 1_555
O9 Pr1 1_555 1_555
O10 C29 1_555 1_555
C29 O9 1_555 1_555
C30 C29 1_555 1_555
C31 C30 1_555 1_555
H21 C31 1_555 1_555
C32 C31 1_555 1_555
H22 C32 1_555 1_555
C33 C32 1_555 1_555
H23 C33 1_555 1_555
C34 C33 1_555 1_555
H24 C34 1_555 1_555
C35 C30 1_555 1_555
H25 C35 1_555 1_555
O11 Pr2 1_555 1_555
O12 C36 1_555 1_555
C36 O11 1_555 1_555
C37 C36 1_555 1_555
C38 C37 1_555 1_555
H26 C38 1_555 1_555
C39 C38 1_555 1_555
H27 C39 1_555 1_555
C40 C39 1_555 1_555
H28 C40 1_555 1_555
C41 C40 1_555 1_555
H29 C41 1_555 1_555
C42 C37 1_555 1_555
H30 C42 1_555 1_555
O13 Pr1 1_555 1_555
H31 O13 1_555 1_555
C43 O13 1_555 1_555
H32 C43 1_555 1_555
H33 C43 1_555 1_555
H34 C43 1_555 1_555
O14 Pr1 1_555 1_555
H35 O14 1_555 1_555
C44 O14 1_555 1_555
H36 C44 1_555 1_555
H37 C44 1_555 1_555
H38 C44 1_555 1_555
O15 Pr2 1_555 1_555
H39 O15 1_555 1_555
C45 O15 1_555 1_555
H40 C45 1_555 1_555
H41 C45 1_555 1_555
H42 C45 1_555 1_555
O16 Pr2 1_555 1_555
H43 O16 1_555 1_555
C46 O16 1_555 1_555
H44 C46 1_555 1_555
H45 C46 1_555 1_555
H46 C46 1_555 1_555
Pr1A O10 1_555 1_555
Pr2_2 O5 1_555 1_555
Pr2A O12 1_555 1_555
O5_2 Pr2 1_555 1_555
O7_2 Pr2 1_555 1_555
O10A Pr1 1_555 1_555
O12A Pr2 1_555 1_555
C6 C7 1_555 1_555
O4 C8 1_555 1_555
C13 C14 1_555 1_555
C20 C21 1_555 1_555
O7 Pr2_2 1_555 1_555
C27 C28 1_555 1_555
C34 C35 1_555 1_555
C41 C42 1_555 1_555

#END
