
#######################################################################
#
#                 Cambridge Crystallographic Data Centre
#                                CCDC 
#
#######################################################################
#
# If this CIF has been generated from an entry in the Cambridge 
# Structural Database, then it will include bibliographic, chemical, 
# crystal, experimental, refinement or atomic coordinate data resulting 
# from the CCDC's data processing and validation procedures.
#
#######################################################################

data_XUZGEF
_symmetry_cell_setting           monoclinic
_symmetry_space_group_name_H-M   'C 2/c'
_symmetry_Int_Tables_number      15
_space_group_name_Hall           '-C 2yn'
loop_
_symmetry_equiv_pos_site_id
_symmetry_equiv_pos_as_xyz
1 x,y,z
2 -x,y,1/2-z
3 1/2+x,1/2+y,z
4 1/2-x,1/2+y,1/2-z
5 -x,-y,-z
6 x,-y,1/2+z
7 1/2-x,1/2-y,-z
8 1/2+x,1/2-y,1/2+z
_cell_length_a                   27.2244(4)
_cell_length_b                   13.8402(3)
_cell_length_c                   15.5301(3)
_cell_angle_alpha                90
_cell_angle_beta                 91.498(2)
_cell_angle_gamma                90
_cell_volume                     5849.6
loop_
_atom_site_label
_atom_site_type_symbol
_atom_site_fract_x
_atom_site_fract_y
_atom_site_fract_z
Mn1 Mn 0.2500 -0.2500 1.0000
O1 O 0.06163(16) 0.0480(3) 0.7123(3)
O2 O 0.03842(17) 0.1108(3) 0.9949(3)
O3 O 0.04556(16) 0.6109(3) 0.9078(3)
O4 O 0.07780(17) 0.5463(3) 0.6294(3)
N1 N 0.1791(2) -0.1697(4) 0.9581(4)
N2 N 0.05217(17) 0.0799(3) 0.8537(3)
N3 N 0.05380(17) 0.5777(3) 0.7645(3)
N4 N 0.1696(2) 0.8453(5) 0.6851(5)
C1 C 0.1803(3) -0.0791(6) 0.9310(7)
H1 H 0.2112 -0.0471 0.9305
C2 C 0.1390(3) -0.0289(5) 0.9033(6)
H2 H 0.1420 0.0360 0.8842
C3 C 0.0939(2) -0.0720(4) 0.9033(4)
C4 C 0.0924(2) -0.1666(4) 0.9315(4)
H3 H 0.0620 -0.2000 0.9332
C5 C 0.1353(3) -0.2122(5) 0.9570(4)
H4 H 0.1335 -0.2777 0.9749
C6 C 0.0470(2) -0.0245(4) 0.8720(4)
H5 H 0.0352 -0.0576 0.8188
H6 H 0.0218 -0.0332 0.9160
C7 C 0.0595(2) 0.1084(4) 0.7694(4)
C8 C 0.0634(2) 0.2129(4) 0.7522(4)
C9 C 0.0727(2) 0.2454(4) 0.6705(4)
H7 H 0.0777 0.2003 0.6255
C10 C 0.0749(2) 0.3446(4) 0.6532(4)
H8 H 0.0815 0.3664 0.5967
C11 C 0.0675(2) 0.4108(4) 0.7178(4)
C12 C 0.0676(2) 0.5150(4) 0.6996(4)
C13 C 0.0500(2) 0.5507(4) 0.8524(4)
C14 C 0.0506(2) 0.4453(4) 0.8698(4)
C15 C 0.0422(2) 0.4130(4) 0.9513(4)
H9 H 0.0370 0.4583 0.9961
C16 C 0.0412(2) 0.3139(4) 0.9696(4)
H10 H 0.0359 0.2924 1.0267
C17 C 0.0480(2) 0.2472(4) 0.9046(4)
C18 C 0.0461(2) 0.1426(4) 0.9232(4)
C19 C 0.05674(19) 0.2789(4) 0.8200(4)
C20 C 0.05803(19) 0.3793(4) 0.8024(3)
C21 C 0.0462(2) 0.6792(4) 0.7430(4)
C22 C 0.0000 0.7190(5) 0.7500
H11 H 0.0000 0.7876 0.7500
C23 C 0.0888(2) 0.7347(4) 0.7227(4)
C24 C 0.1365(2) 0.7036(5) 0.7420(5)
H12 H 0.1414 0.6424 0.7687
C25 C 0.1759(3) 0.7585(6) 0.7237(6)
H13 H 0.2081 0.7361 0.7381
C26 C 0.1245(3) 0.8766(5) 0.6620(5)
H14 H 0.1208 0.9364 0.6326
C27 C 0.0846(2) 0.8241(4) 0.6802(4)
H15 H 0.0530 0.8478 0.6640
C28 C 0.2142(3) 0.9048(8) 0.6648(9)
H16 H 0.2038 0.9655 0.6375
H17 H 0.2351 0.8687 0.6256
H18 H 0.2328 0.9189 0.7183
S1 S 0.17008(11) -0.5239(2) 0.8557(3)
N5 N 0.2207(3) -0.3790(6) 0.9466(7)
C29 C 0.2007(4) -0.4374(9) 0.9099(9)
S2 S 0.30978(14) -0.3250(4) 0.7244(4)
N6 N 0.2860(3) -0.2055(8) 0.8820(6)
C30 C 0.2932(6) -0.2696(13) 0.8222(11)
Mn1A Mn -0.2500 -0.2500 0.5000
O1A O -0.06163(16) 0.0480(3) 0.7877(3)
O2A O -0.03842(17) 0.1108(3) 0.5051(3)
O3A O -0.04556(16) 0.6109(3) 0.5922(3)
O4A O -0.07780(17) 0.5463(3) 0.8706(3)
N1A N -0.1791(2) -0.1697(4) 0.5419(4)
N1F N 0.3209(2) -0.3303(4) 1.0419(4)
N2A N -0.05217(17) 0.0799(3) 0.6463(3)
N3A N -0.05380(17) 0.5777(3) 0.7355(3)
N4A N -0.1696(2) 0.8453(5) 0.8149(5)
C1A C -0.1803(3) -0.0791(6) 0.5690(7)
H1A H -0.2112 -0.0471 0.5695
C2A C -0.1390(3) -0.0289(5) 0.5967(6)
H2A H -0.1420 0.0360 0.6158
C3A C -0.0939(2) -0.0720(4) 0.5967(4)
C4A C -0.0924(2) -0.1666(4) 0.5685(4)
H3A H -0.0620 -0.2000 0.5668
C5A C -0.1353(3) -0.2122(5) 0.5430(4)
H4A H -0.1335 -0.2777 0.5251
C6A C -0.0470(2) -0.0245(4) 0.6280(4)
H5A H -0.0352 -0.0576 0.6812
H6A H -0.0218 -0.0332 0.5840
C7A C -0.0595(2) 0.1084(4) 0.7306(4)
C8A C -0.0634(2) 0.2129(4) 0.7478(4)
C9A C -0.0727(2) 0.2454(4) 0.8295(4)
H7A H -0.0777 0.2003 0.8745
C10A C -0.0749(2) 0.3446(4) 0.8468(4)
H8A H -0.0815 0.3664 0.9033
C11A C -0.0675(2) 0.4108(4) 0.7822(4)
C12A C -0.0676(2) 0.5150(4) 0.8004(4)
C13A C -0.0500(2) 0.5507(4) 0.6476(4)
C14A C -0.0506(2) 0.4453(4) 0.6302(4)
C15A C -0.0422(2) 0.4130(4) 0.5487(4)
H9A H -0.0370 0.4583 0.5039
C16A C -0.0412(2) 0.3139(4) 0.5304(4)
H10A H -0.0359 0.2924 0.4733
C17A C -0.0480(2) 0.2472(4) 0.5954(4)
C18A C -0.0461(2) 0.1426(4) 0.5768(4)
C19A C -0.05674(19) 0.2789(4) 0.6800(4)
C20A C -0.05803(19) 0.3793(4) 0.6976(3)
C21A C -0.0462(2) 0.6792(4) 0.7570(4)
C23A C -0.0888(2) 0.7347(4) 0.7773(4)
C24A C -0.1365(2) 0.7036(5) 0.7580(5)
H12A H -0.1414 0.6424 0.7313
C25A C -0.1759(3) 0.7585(6) 0.7763(6)
H13A H -0.2081 0.7361 0.7619
C26A C -0.1245(3) 0.8766(5) 0.8380(5)
H14A H -0.1208 0.9364 0.8674
C27A C -0.0846(2) 0.8241(4) 0.8198(4)
H15A H -0.0530 0.8478 0.8360
C28A C -0.2142(3) 0.9048(8) 0.8352(9)
H16A H -0.2038 0.9655 0.8625
H17A H -0.2351 0.8687 0.8744
H18A H -0.2328 0.9189 0.7817
S1F S 0.32992(11) 0.0239(2) 1.1443(3)
N5F N 0.2793(3) -0.1210(6) 1.0534(7)
C29F C 0.2993(4) -0.0626(9) 1.0901(9)
S2F S 0.19022(14) -0.1750(4) 1.2756(4)
N6F N 0.2140(3) -0.2945(8) 1.1180(6)
C30F C 0.2068(6) -0.2304(13) 1.1778(11)
O5 O 0.3363(7) -0.1205(15) 0.4624(12)
O6 O 0.3224(11) -0.282(2) 0.545(2)
O7 O 0.2942(7) -0.0012(13) 0.3464(11)
loop_
_geom_bond_atom_site_label_1
_geom_bond_atom_site_label_2
_geom_bond_site_symmetry_1
_geom_bond_site_symmetry_2
Mn1 N1 1_555 1_555
O1 C7 1_555 1_555
O2 C18 1_555 1_555
O3 C13 1_555 1_555
O4 C12 1_555 1_555
N1 C1 1_555 1_555
N2 C6 1_555 1_555
N3 C12 1_555 1_555
N4 C25 1_555 1_555
C1 H1 1_555 1_555
C2 C1 1_555 1_555
H2 C2 1_555 1_555
C3 C2 1_555 1_555
C4 C3 1_555 1_555
H3 C4 1_555 1_555
C5 N1 1_555 1_555
H4 C5 1_555 1_555
C6 C3 1_555 1_555
H5 C6 1_555 1_555
H6 C6 1_555 1_555
C7 N2 1_555 1_555
C8 C7 1_555 1_555
C9 C8 1_555 1_555
H7 C9 1_555 1_555
C10 C9 1_555 1_555
H8 C10 1_555 1_555
C11 C10 1_555 1_555
C12 C11 1_555 1_555
C13 N3 1_555 1_555
C14 C13 1_555 1_555
C15 C14 1_555 1_555
H9 C15 1_555 1_555
C16 C15 1_555 1_555
H10 C16 1_555 1_555
C17 C16 1_555 1_555
C18 N2 1_555 1_555
C19 C8 1_555 1_555
C20 C11 1_555 1_555
C21 N3 1_555 1_555
C22 C21 1_555 1_555
H11 C22 1_555 1_555
C23 C21 1_555 1_555
C24 C23 1_555 1_555
H12 C24 1_555 1_555
C25 C24 1_555 1_555
H13 C25 1_555 1_555
C26 N4 1_555 1_555
H14 C26 1_555 1_555
C27 C23 1_555 1_555
H15 C27 1_555 1_555
C28 N4 1_555 1_555
H16 C28 1_555 1_555
H17 C28 1_555 1_555
H18 C28 1_555 1_555
S1 C29 1_555 1_555
N5 Mn1 1_555 1_555
C29 N5 1_555 1_555
S2 C30 1_555 1_555
N6 Mn1 1_555 1_555
C30 N6 1_555 1_555
Mn1A N1A 1_555 1_555
O1A C7A 1_555 1_555
O2A C18A 1_555 1_555
O3A C13A 1_555 1_555
O4A C12A 1_555 1_555
N1A C1A 1_555 1_555
N1F Mn1 1_555 1_555
N2A C6A 1_555 1_555
N3A C12A 1_555 1_555
N4A C25A 1_555 1_555
C1A H1A 1_555 1_555
C2A C1A 1_555 1_555
H2A C2A 1_555 1_555
C3A C2A 1_555 1_555
C4A C3A 1_555 1_555
H3A C4A 1_555 1_555
C5A N1A 1_555 1_555
H4A C5A 1_555 1_555
C6A C3A 1_555 1_555
H5A C6A 1_555 1_555
H6A C6A 1_555 1_555
C7A N2A 1_555 1_555
C8A C7A 1_555 1_555
C9A C8A 1_555 1_555
H7A C9A 1_555 1_555
C10A C9A 1_555 1_555
H8A C10A 1_555 1_555
C11A C10A 1_555 1_555
C12A C11A 1_555 1_555
C13A N3A 1_555 1_555
C14A C13A 1_555 1_555
C15A C14A 1_555 1_555
H9A C15A 1_555 1_555
C16A C15A 1_555 1_555
H10A C16A 1_555 1_555
C17A C16A 1_555 1_555
C18A N2A 1_555 1_555
C19A C8A 1_555 1_555
C20A C11A 1_555 1_555
C21A C22 1_555 1_555
C23A C21A 1_555 1_555
C24A C23A 1_555 1_555
H12A C24A 1_555 1_555
C25A C24A 1_555 1_555
H13A C25A 1_555 1_555
C26A N4A 1_555 1_555
H14A C26A 1_555 1_555
C27A C23A 1_555 1_555
H15A C27A 1_555 1_555
C28A N4A 1_555 1_555
H16A C28A 1_555 1_555
H17A C28A 1_555 1_555
H18A C28A 1_555 1_555
S1F C29F 1_555 1_555
N5F Mn1 1_555 1_555
C29F N5F 1_555 1_555
S2F C30F 1_555 1_555
N6F Mn1 1_555 1_555
C30F N6F 1_555 1_555
C4 C5 1_555 1_555
C14 C20 1_555 1_555
C17 C18 1_555 1_555
C17 C19 1_555 1_555
C19 C20 1_555 1_555
C26 C27 1_555 1_555
N3A C21A 1_555 1_555
C4A C5A 1_555 1_555
C14A C20A 1_555 1_555
C17A C18A 1_555 1_555
C17A C19A 1_555 1_555
C19A C20A 1_555 1_555
C26A C27A 1_555 1_555

#END
