
#######################################################################
#
#                 Cambridge Crystallographic Data Centre
#                                CCDC 
#
#######################################################################
#
# If this CIF has been generated from an entry in the Cambridge 
# Structural Database, then it will include bibliographic, chemical, 
# crystal, experimental, refinement or atomic coordinate data resulting 
# from the CCDC's data processing and validation procedures.
#
#######################################################################

data_XUZGOO
_symmetry_cell_setting           monoclinic
_symmetry_space_group_name_H-M   'P 21/a'
_symmetry_Int_Tables_number      14
_space_group_name_Hall           '-P 2yab'
loop_
_symmetry_equiv_pos_site_id
_symmetry_equiv_pos_as_xyz
1 x,y,z
2 1/2+x,1/2-y,z
3 -x,-y,-z
4 1/2-x,1/2+y,-z
_cell_length_a                   13.201(5)
_cell_length_b                   25.125(9)
_cell_length_c                   7.834(2)
_cell_angle_alpha                90
_cell_angle_beta                 102.64(2)
_cell_angle_gamma                90
_cell_volume                     2535.37
loop_
_atom_site_label
_atom_site_type_symbol
_atom_site_fract_x
_atom_site_fract_y
_atom_site_fract_z
Ag1 Ag 0.55444(11) 0.64769(5) 0.38568(17)
N1 N 0.6692(12) 0.5724(5) 0.5238(17)
N2 N 0.5002(12) 0.5552(5) 0.2622(18)
N3 N 0.4117(11) 0.5485(6) 0.1467(19)
N4 N 0.5341(11) 0.4618(6) 0.2712(18)
N5 N 0.4449(11) 0.4544(5) 0.1502(17)
N6 N 0.2655(11) 0.4393(6) -0.0976(19)
N7 N 0.6930(12) 0.6918(5) 0.3104(17)
N8 N 0.5235(11) 0.6726(5) 0.0441(17)
N9 N 0.3843(9) 0.6562(5) -0.5592(17)
N10 N 0.5505(11) 0.6745(6) -0.2923(17)
N11 N 0.6350(11) 0.6822(5) -0.1613(16)
N12 N 0.4456(10) 0.6638(5) -0.0873(19)
C1 C 0.7563(15) 0.5790(8) 0.654(2)
H1 H 0.7699 0.6127 0.7023
C2 C 0.8260(16) 0.5381(9) 0.717(3)
H2 H 0.8867 0.5450 0.8000
C3 C 0.8038(15) 0.4891(7) 0.657(2)
H3 H 0.8463 0.4608 0.7044
C4 C 0.7189(16) 0.4801(8) 0.527(2)
H4 H 0.7055 0.4466 0.4774
C5 C 0.6513(15) 0.5235(7) 0.470(2)
C6 C 0.5581(12) 0.5123(7) 0.327(2)
C7 C 0.3903(13) 0.4976(7) 0.093(2)
C8 C 0.2873(12) 0.4897(7) -0.042(2)
C9 C 0.2262(14) 0.5331(7) -0.095(2)
H5 H 0.2475 0.5673 -0.0579
C10 C 0.1294(16) 0.5234(8) -0.208(3)
H6 H 0.0826 0.5511 -0.2423
C11 C 0.1047(14) 0.4718(8) -0.268(2)
H7 H 0.0420 0.4649 -0.3461
C12 C 0.1755(14) 0.4302(8) -0.210(3)
H8 H 0.1592 0.3958 -0.2511
C13 C 0.7802(18) 0.7029(7) 0.436(2)
H9 H 0.7748 0.6997 0.5521
C14 C 0.8757(16) 0.7183(6) 0.407(2)
H10 H 0.9305 0.7261 0.5003
C15 C 0.8881(13) 0.7219(6) 0.241(2)
H11 H 0.9514 0.7318 0.2168
C16 C 0.8020(13) 0.7101(7) 0.106(2)
H12 H 0.8074 0.7112 -0.0105
C17 C 0.7084(13) 0.6967(6) 0.149(2)
C18 C 0.6150(13) 0.6834(6) 0.000(2)
C19 C 0.3011(14) 0.6540(6) -0.695(2)
H13 H 0.3123 0.6493 -0.8073
C20 C 0.1981(15) 0.6584(7) -0.674(3)
H14 H 0.1420 0.6573 -0.7690
C21 C 0.1837(15) 0.6644(7) -0.507(3)
H15 H 0.1168 0.6668 -0.4878
C22 C 0.2697(14) 0.6670(6) -0.366(2)
H16 H 0.2603 0.6714 -0.2528
C23 C 0.3684(14) 0.6628(5) -0.398(2)
C24 C 0.4598(14) 0.6673(6) -0.252(2)
N9_2 N 0.3843(9) 0.6562(5) 0.4408(17)
N10_2 N 0.5505(11) 0.6745(6) 0.7077(17)
Ag1_2 Ag 0.55444(11) 0.64769(5) -0.61432(17)
B1 B 0.981(2) 0.3369(11) 0.136(3)
F1 F 0.8804(12) 0.3296(8) 0.092(2)
F2 F 1.0140(10) 0.3656(5) 0.0095(15)
F3 F 1.0075(11) 0.3624(5) 0.2975(16)
F4 F 1.0293(16) 0.2878(6) 0.152(2)
loop_
_geom_bond_atom_site_label_1
_geom_bond_atom_site_label_2
_geom_bond_site_symmetry_1
_geom_bond_site_symmetry_2
Ag1 N1 1_555 1_555
N1 C1 1_555 1_555
N2 Ag1 1_555 1_555
N3 N2 1_555 1_555
N4 N5 1_555 1_555
N5 C7 1_555 1_555
N6 C8 1_555 1_555
N7 Ag1 1_555 1_555
N8 Ag1 1_555 1_555
N9 C19 1_555 1_555
N10 N11 1_555 1_555
N11 C18 1_555 1_555
N12 N8 1_555 1_555
C1 H1 1_555 1_555
C2 C1 1_555 1_555
H2 C2 1_555 1_555
C3 C2 1_555 1_555
H3 C3 1_555 1_555
C4 C3 1_555 1_555
H4 C4 1_555 1_555
C5 N1 1_555 1_555
C6 N2 1_555 1_555
C7 N3 1_555 1_555
C8 C7 1_555 1_555
C9 C8 1_555 1_555
H5 C9 1_555 1_555
C10 C9 1_555 1_555
H6 C10 1_555 1_555
C11 C10 1_555 1_555
H7 C11 1_555 1_555
C12 N6 1_555 1_555
H8 C12 1_555 1_555
C13 N7 1_555 1_555
H9 C13 1_555 1_555
C14 C13 1_555 1_555
H10 C14 1_555 1_555
C15 C14 1_555 1_555
H11 C15 1_555 1_555
C16 C15 1_555 1_555
H12 C16 1_555 1_555
C17 N7 1_555 1_555
C18 N8 1_555 1_555
C19 H13 1_555 1_555
C20 C19 1_555 1_555
H14 C20 1_555 1_555
C21 C20 1_555 1_555
H15 C21 1_555 1_555
C22 C21 1_555 1_555
H16 C22 1_555 1_555
C23 N9 1_555 1_555
C24 N10 1_555 1_555
B1 F1 1_555 1_555
F2 B1 1_555 1_555
F3 B1 1_555 1_555
F4 B1 1_555 1_555
N9_2 Ag1 1_555 1_555
N10_2 Ag1 1_555 1_555
Ag1_2 N9 1_555 1_555
N4 C6 1_555 1_555
N10 Ag1_2 1_555 1_555
N12 C24 1_555 1_555
C4 C5 1_555 1_555
C5 C6 1_555 1_555
C11 C12 1_555 1_555
C16 C17 1_555 1_555
C17 C18 1_555 1_555
C22 C23 1_555 1_555
C23 C24 1_555 1_555

#END
