
#######################################################################
#
#                 Cambridge Crystallographic Data Centre
#                                CCDC 
#
#######################################################################
#
# If this CIF has been generated from an entry in the Cambridge 
# Structural Database, then it will include bibliographic, chemical, 
# crystal, experimental, refinement or atomic coordinate data resulting 
# from the CCDC's data processing and validation procedures.
#
#######################################################################

data_XUZLEK
_symmetry_cell_setting           monoclinic
_symmetry_space_group_name_H-M   'P 21/n'
_symmetry_Int_Tables_number      14
_space_group_name_Hall           '-P 2yn'
loop_
_symmetry_equiv_pos_site_id
_symmetry_equiv_pos_as_xyz
1 x,y,z
2 1/2-x,1/2+y,1/2-z
3 -x,-y,-z
4 1/2+x,1/2-y,1/2+z
_cell_length_a                   13.442(3)
_cell_length_b                   30.738(6)
_cell_length_c                   14.288(3)
_cell_angle_alpha                90
_cell_angle_beta                 90.43(3)
_cell_angle_gamma                90
_cell_volume                     5903.35
loop_
_atom_site_label
_atom_site_type_symbol
_atom_site_fract_x
_atom_site_fract_y
_atom_site_fract_z
K1 K 0.44908(19) 0.33345(9) 0.35599(18)
Cu1 Cu 0.84710(13) 0.09206(5) 0.32361(12)
Cu2 Cu 0.04065(13) 0.09001(5) 0.37222(11)
Cu3 Cu -0.08031(13) 0.02549(5) 0.43064(12)
I1 I 0.94358(6) 0.16447(3) 0.36484(6)
I2 I 0.05477(7) 0.05973(3) 0.54640(6)
I3 I 0.96789(8) 0.03253(3) 0.24570(6)
I4 I 0.73774(7) 0.05300(3) 0.45078(6)
S1 S 0.7374(3) 0.10938(11) 0.2007(2)
S2 S 0.2056(3) 0.09771(12) 0.3293(3)
O1 O 0.6029(6) 0.2196(3) 0.2799(5)
O2 O 0.5157(13) 0.0332(7) 0.1142(12)
O3 O 0.316(3) 0.0320(14) 0.181(3)
O4 O 0.3072(5) 0.1946(3) 0.4092(6)
O5 O 0.3772(6) 0.2921(3) 0.2015(5)
O6 O 0.3241(7) 0.3788(3) 0.2356(6)
O7 O 0.4176(11) 0.4216(4) 0.3812(8)
O8 O 0.5570(10) 0.3774(3) 0.4994(7)
O9 O 0.5185(6) 0.2901(3) 0.5097(5)
C1 C 0.6768(10) 0.1918(4) 0.2380(9)
H1 H 0.7411 0.1965 0.2676
H2 H 0.6826 0.1983 0.1718
C2 C 0.6441(10) 0.1451(4) 0.2514(8)
H3 H 0.5802 0.1404 0.2210
H4 H 0.6371 0.1389 0.3176
C3 C 0.6615(13) 0.0609(5) 0.1844(12)
H5 H 0.7045 0.0361 0.1733
H6 H 0.6243 0.0553 0.2410
C4 C 0.5936(14) 0.0656(7) 0.1072(12)
H7 H 0.6289 0.0619 0.0487
H8 H 0.5647 0.0945 0.1077
C5 C 0.4318(17) 0.0400(9) 0.0519(19)
H9 H 0.4473 0.0298 -0.0106
H10 H 0.4156 0.0707 0.0484
C6 C 0.346(4) 0.0150(17) 0.091(4)
H11 H 0.2902 0.0166 0.0475
H12 H 0.3647 -0.0153 0.0974
C7 C 0.344(2) 0.0391(11) 0.278(3)
H13 H 0.3806 0.0663 0.2844
H14 H 0.3867 0.0157 0.3001
C8 C 0.2506(14) 0.0408(5) 0.3340(18)
H15 H 0.2637 0.0322 0.3983
H16 H 0.2012 0.0212 0.3076
C9 C 0.2714(11) 0.1184(6) 0.4344(15)
H17 H 0.2560 0.0999 0.4874
H18 H 0.3426 0.1169 0.4242
C10 C 0.2431(10) 0.1644(4) 0.4569(10)
H19 H 0.1746 0.1694 0.4381
H20 H 0.2482 0.1690 0.5239
C11 C 0.2814(8) 0.2375(4) 0.4206(8)
C12 C 0.2359(8) 0.2589(4) 0.3447(9)
C13 C 0.2072(9) 0.3029(5) 0.3550(9)
H21 H 0.1609 0.3160 0.3097
C14 C 0.2282(9) 0.3248(5) 0.4397(9)
H22 H 0.1910 0.3512 0.4554
C15 C 0.2789(9) 0.3037(4) 0.5076(8)
H23 H 0.2814 0.3175 0.5693
C16 C 0.3067(8) 0.2599(4) 0.5032(8)
C17 C 0.3637(9) 0.2389(4) 0.5826(8)
H24 H 0.3760 0.2606 0.6307
H25 H 0.3225 0.2163 0.6098
C18 C 0.4607(10) 0.2193(4) 0.5548(9)
C19 C 0.4800(12) 0.1741(5) 0.5632(10)
H26 H 0.4332 0.1559 0.5905
C20 C 0.5678(10) 0.1573(5) 0.5309(9)
H27 H 0.5800 0.1277 0.5373
C21 C 0.6392(10) 0.1836(4) 0.4888(9)
H28 H 0.6975 0.1713 0.4663
C22 C 0.6239(9) 0.2275(5) 0.4803(8)
C23 C 0.5356(8) 0.2448(4) 0.5149(7)
C24 C 0.7030(9) 0.2563(4) 0.4362(9)
H29 H 0.7267 0.2765 0.4835
H30 H 0.7587 0.2381 0.4189
C25 C 0.6723(8) 0.2819(4) 0.3524(9)
C26 C 0.6901(9) 0.3274(4) 0.3464(9)
H31 H 0.7296 0.3414 0.3958
C27 C 0.6659(10) 0.3512(4) 0.2678(11)
H32 H 0.6903 0.3810 0.2609
C28 C 0.6204(9) 0.3304(4) 0.1934(10)
H33 H 0.6091 0.3469 0.1356
C29 C 0.5987(9) 0.2865(4) 0.1937(8)
C30 C 0.6255(8) 0.2628(4) 0.2743(8)
C31 C 0.5502(9) 0.2653(5) 0.1066(9)
H34 H 0.5273 0.2882 0.0651
H35 H 0.6008 0.2489 0.0737
C32 C 0.4645(9) 0.2355(4) 0.1261(7)
C33 C 0.4680(11) 0.1929(5) 0.0931(9)
H36 H 0.5219 0.1836 0.0578
C34 C 0.3909(10) 0.1644(5) 0.1128(9)
H37 H 0.3919 0.1363 0.0884
C35 C 0.3098(10) 0.1778(4) 0.1704(8)
H38 H 0.2604 0.1580 0.1861
C36 C 0.3050(8) 0.2198(4) 0.2025(8)
C37 C 0.3809(8) 0.2483(4) 0.1761(8)
C38 C 0.2146(9) 0.2350(5) 0.2559(9)
H39 H 0.1756 0.2538 0.2153
H40 H 0.1741 0.2099 0.2704
C39 C 0.3233(12) 0.3169(5) 0.1336(10)
H41 H 0.2529 0.3106 0.1393
H42 H 0.3439 0.3082 0.0715
C40 C 0.3389(12) 0.3630(5) 0.1444(10)
H43 H 0.4063 0.3699 0.1257
H44 H 0.2940 0.3783 0.1021
C41 C 0.3251(11) 0.4256(5) 0.2450(10)
H45 H 0.2636 0.4374 0.2197
H46 H 0.3797 0.4374 0.2091
C42 C 0.3360(15) 0.4388(6) 0.3423(12)
H47 H 0.3397 0.4703 0.3458
H48 H 0.2780 0.4296 0.3771
C43 C 0.4474(19) 0.4387(6) 0.4706(14)
H49 H 0.4010 0.4294 0.5182
H50 H 0.4471 0.4703 0.4686
C44 C 0.5472(16) 0.4231(5) 0.4939(12)
H51 H 0.5929 0.4339 0.4470
H52 H 0.5671 0.4356 0.5535
C45 C 0.5261(13) 0.3588(5) 0.5835(10)
H53 H 0.4542 0.3606 0.5880
H54 H 0.5548 0.3747 0.6357
C46 C 0.5562(10) 0.3140(4) 0.5886(8)
H55 H 0.6283 0.3123 0.5898
H56 H 0.5316 0.3011 0.6459
Cu2_2 Cu 1.04065(13) 0.09001(5) 0.37222(11)
Cu3B Cu 0.08031(13) -0.02549(5) 0.56936(12)
Cu3_2 Cu 0.91969(13) 0.02549(5) 0.43064(12)
I1_2 I -0.05642(6) 0.16447(3) 0.36484(6)
I2B I -0.05477(7) -0.05973(3) 0.45360(6)
I3_2 I -0.03211(8) 0.03253(3) 0.24570(6)
I4_2 I -0.26226(7) 0.05300(3) 0.45078(6)
N1 N 0.9513(10) 0.2924(8) 0.3263(11)
C47 C 0.995(2) 0.3821(8) 0.3774(19)
H57 H 0.9739 0.4032 0.3320
H58 H 1.0657 0.3839 0.3860
H59 H 0.9626 0.3877 0.4359
C48 C 0.972(2) 0.3449(18) 0.349(3)
N2 N 0.6587(15) 0.9269(8) 0.3164(17)
C49 C 0.493(2) 0.9510(9) 0.3897(19)
H60 H 0.4937 0.9806 0.4115
H61 H 0.4808 0.9318 0.4413
H62 H 0.4417 0.9475 0.3434
C50 C 0.592(2) 0.9403(10) 0.347(2)
loop_
_geom_bond_atom_site_label_1
_geom_bond_atom_site_label_2
_geom_bond_site_symmetry_1
_geom_bond_site_symmetry_2
K1 O5 1_555 1_555
Cu1 I1 1_555 1_555
Cu2 I2 1_555 1_555
Cu3 I2 1_555 1_555
I1 Cu2_2 1_555 1_555
I2 Cu3B 1_555 1_555
I3 Cu1 1_555 1_555
I4 Cu1 1_555 1_555
S1 Cu1 1_555 1_555
S2 Cu2 1_555 1_555
O1 C1 1_555 1_555
O2 C4 1_555 1_555
O3 C6 1_555 1_555
O4 C10 1_555 1_555
O5 C37 1_555 1_555
O6 K1 1_555 1_555
O7 K1 1_555 1_555
O8 K1 1_555 1_555
O9 K1 1_555 1_555
C1 H1 1_555 1_555
H2 C1 1_555 1_555
C2 S1 1_555 1_555
H3 C2 1_555 1_555
H4 C2 1_555 1_555
C3 S1 1_555 1_555
H5 C3 1_555 1_555
H6 C3 1_555 1_555
C4 C3 1_555 1_555
H7 C4 1_555 1_555
H8 C4 1_555 1_555
C5 O2 1_555 1_555
H9 C5 1_555 1_555
H10 C5 1_555 1_555
C6 C5 1_555 1_555
H11 C6 1_555 1_555
H12 C6 1_555 1_555
C7 O3 1_555 1_555
H13 C7 1_555 1_555
H14 C7 1_555 1_555
C8 S2 1_555 1_555
H15 C8 1_555 1_555
H16 C8 1_555 1_555
C9 S2 1_555 1_555
H17 C9 1_555 1_555
H18 C9 1_555 1_555
C10 C9 1_555 1_555
H19 C10 1_555 1_555
H20 C10 1_555 1_555
C11 O4 1_555 1_555
C12 C11 1_555 1_555
C13 C12 1_555 1_555
H21 C13 1_555 1_555
C14 C13 1_555 1_555
H22 C14 1_555 1_555
C15 C14 1_555 1_555
H23 C15 1_555 1_555
C16 C11 1_555 1_555
C17 C16 1_555 1_555
H24 C17 1_555 1_555
H25 C17 1_555 1_555
C18 C17 1_555 1_555
C19 C18 1_555 1_555
H26 C19 1_555 1_555
C20 C19 1_555 1_555
H27 C20 1_555 1_555
C21 C20 1_555 1_555
H28 C21 1_555 1_555
C22 C21 1_555 1_555
C23 O9 1_555 1_555
C24 C22 1_555 1_555
H29 C24 1_555 1_555
H30 C24 1_555 1_555
C25 C24 1_555 1_555
C26 C25 1_555 1_555
H31 C26 1_555 1_555
C27 C26 1_555 1_555
H32 C27 1_555 1_555
C28 C27 1_555 1_555
H33 C28 1_555 1_555
C29 C28 1_555 1_555
C30 O1 1_555 1_555
C31 C29 1_555 1_555
H34 C31 1_555 1_555
H35 C31 1_555 1_555
C32 C31 1_555 1_555
C33 C32 1_555 1_555
H36 C33 1_555 1_555
C34 C33 1_555 1_555
H37 C34 1_555 1_555
C35 C34 1_555 1_555
H38 C35 1_555 1_555
C36 C35 1_555 1_555
C37 C32 1_555 1_555
C38 C12 1_555 1_555
H39 C38 1_555 1_555
H40 C38 1_555 1_555
C39 O5 1_555 1_555
H41 C39 1_555 1_555
H42 C39 1_555 1_555
C40 O6 1_555 1_555
H43 C40 1_555 1_555
H44 C40 1_555 1_555
C41 O6 1_555 1_555
H45 C41 1_555 1_555
H46 C41 1_555 1_555
C42 O7 1_555 1_555
H47 C42 1_555 1_555
H48 C42 1_555 1_555
C43 O7 1_555 1_555
H49 C43 1_555 1_555
H50 C43 1_555 1_555
C44 O8 1_555 1_555
H51 C44 1_555 1_555
H52 C44 1_555 1_555
C45 O8 1_555 1_555
H53 C45 1_555 1_555
H54 C45 1_555 1_555
C46 O9 1_555 1_555
H55 C46 1_555 1_555
H56 C46 1_555 1_555
N1 C48 1_555 1_555
C47 H57 1_555 1_555
H58 C47 1_555 1_555
H59 C47 1_555 1_555
C48 C47 1_555 1_555
N2 C50 1_555 1_555
C49 H60 1_555 1_555
H61 C49 1_555 1_555
H62 C49 1_555 1_555
C50 C49 1_555 1_555
Cu2_2 I3 1_555 1_555
Cu3B I2B 1_555 1_555
Cu3_2 I3 1_555 1_555
I1_2 Cu2 1_555 1_555
I2B Cu3 1_555 1_555
I3_2 Cu2 1_555 1_555
I4_2 Cu3 1_555 1_555
Cu3 I3_2 1_555 1_555
I4 Cu3_2 1_555 1_555
C1 C2 1_555 1_555
C7 C8 1_555 1_555
C15 C16 1_555 1_555
C18 C23 1_555 1_555
C22 C23 1_555 1_555
C25 C30 1_555 1_555
C29 C30 1_555 1_555
C36 C37 1_555 1_555
C36 C38 1_555 1_555
C39 C40 1_555 1_555
C41 C42 1_555 1_555
C43 C44 1_555 1_555
C45 C46 1_555 1_555

#END
