
#######################################################################
#
#                 Cambridge Crystallographic Data Centre
#                                CCDC 
#
#######################################################################
#
# If this CIF has been generated from an entry in the Cambridge 
# Structural Database, then it will include bibliographic, chemical, 
# crystal, experimental, refinement or atomic coordinate data resulting 
# from the CCDC's data processing and validation procedures.
#
#######################################################################

data_XUZLIO
_symmetry_cell_setting           orthorhombic
_symmetry_space_group_name_H-M   'P n a 21'
_symmetry_Int_Tables_number      33
_space_group_name_Hall           'P 2c -2n'
loop_
_symmetry_equiv_pos_site_id
_symmetry_equiv_pos_as_xyz
1 x,y,z
2 -x,-y,1/2+z
3 1/2+x,1/2-y,z
4 1/2-x,1/2+y,1/2+z
_cell_length_a                   19.0690(11)
_cell_length_b                   20.4124(12)
_cell_length_c                   15.6455(9)
_cell_angle_alpha                90
_cell_angle_beta                 90
_cell_angle_gamma                90
_cell_volume                     6089.92
loop_
_atom_site_label
_atom_site_type_symbol
_atom_site_fract_x
_atom_site_fract_y
_atom_site_fract_z
Cu1 Cu 0.66868(8) 0.24949(7) 0.04083(9)
Hg1 Hg 0.66423(2) 0.25619(2) -0.18698(3)
K1 K 0.41612(12) 0.33521(14) 0.50784(16)
I1 I 0.76969(4) 0.20869(5) -0.06989(5)
I2 I 0.56295(4) 0.29310(4) -0.05883(4)
I3 I 0.61363(6) 0.14734(5) -0.26501(6)
I4 I 0.70921(5) 0.36885(5) -0.25979(6)
S1 S 0.63363(16) 0.15467(15) 0.10388(18)
S2 S 0.20974(16) 0.15615(15) 0.10218(18)
O1 O 0.5244(4) 0.2269(4) 0.2979(5)
O2 O 0.4956(5) 0.0546(5) 0.0570(7)
O3 O 0.3496(5) 0.0568(5) 0.0629(5)
O4 O 0.3037(4) 0.2335(4) 0.3047(5)
O5 O 0.4070(4) 0.2005(4) 0.5222(5)
O6 O 0.4337(5) 0.2726(5) 0.6650(5)
O7 O 0.4434(6) 0.4088(5) 0.6571(6)
O8 O 0.4400(8) 0.4731(5) 0.4998(6)
O9 O 0.4147(4) 0.4031(4) 0.3558(5)
C1 C 0.5822(6) 0.2090(7) 0.2458(9)
H1 H 0.6156 0.1822 0.2793
H2 H 0.6069 0.2488 0.2261
C2 C 0.5564(6) 0.1704(7) 0.1699(7)
H3 H 0.5211 0.1959 0.1375
H4 H 0.5348 0.1287 0.1886
C3 C 0.6028(8) 0.1046(8) 0.0171(10)
H5 H 0.5697 0.1307 -0.0179
H6 H 0.6432 0.0930 -0.0197
C4 C 0.5658(8) 0.0409(7) 0.0457(9)
H7 H 0.5718 0.0065 0.0017
H8 H 0.5865 0.0250 0.0999
C5 C 0.4550(7) 0.0069(6) 0.1003(8)
H9 H 0.4484 0.0209 0.1604
H10 H 0.4809 -0.0351 0.1008
C6 C 0.3851(9) -0.0035(8) 0.0603(12)
H11 H 0.3906 -0.0184 0.0005
H12 H 0.3584 -0.0372 0.0922
C7 C 0.2849(9) 0.0503(8) 0.0264(12)
H13 H 0.2539 0.0242 0.0640
H14 H 0.2890 0.0274 -0.0292
C8 C 0.2540(6) 0.1195(7) 0.0131(8)
H15 H 0.2206 0.1175 -0.0352
H16 H 0.2927 0.1491 -0.0041
C9 C 0.2818(6) 0.1755(6) 0.1756(7)
H17 H 0.3036 0.1348 0.1977
H18 H 0.3183 0.2017 0.1463
C10 C 0.2492(5) 0.2139(7) 0.2468(8)
H19 H 0.2251 0.2531 0.2237
H20 H 0.2142 0.1867 0.2772
C11 C 0.2791(5) 0.2697(7) 0.3735(7)
C12 C 0.2704(6) 0.3393(7) 0.3662(7)
C13 C 0.2480(5) 0.3732(6) 0.4355(9)
H21 H 0.2345 0.4202 0.4287
C14 C 0.2354(6) 0.3420(7) 0.5136(8)
H22 H 0.2110 0.3659 0.5608
C15 C 0.2455(6) 0.2749(7) 0.5187(8)
H23 H 0.2307 0.2521 0.5723
C16 C 0.2671(5) 0.2368(6) 0.4505(7)
C17 C 0.2748(6) 0.1638(6) 0.4582(7)
H24 H 0.2687 0.1522 0.5192
H25 H 0.2355 0.1434 0.4265
C18 C 0.3409(6) 0.1327(6) 0.4281(8)
C19 C 0.3388(7) 0.0850(7) 0.3658(8)
H26 H 0.2947 0.0714 0.3439
C20 C 0.3998(9) 0.0563(7) 0.3341(8)
H27 H 0.3976 0.0208 0.2950
C21 C 0.4635(7) 0.0808(6) 0.3611(8)
H28 H 0.5053 0.0637 0.3366
C22 C 0.4689(6) 0.1299(6) 0.4230(8)
C23 C 0.4053(5) 0.1535(6) 0.4576(7)
C24 C 0.5390(6) 0.1557(7) 0.4523(8)
H29 H 0.5458 0.1420 0.5124
H30 H 0.5758 0.1339 0.4180
C25 C 0.5513(5) 0.2280(6) 0.4475(7)
C26 C 0.5723(6) 0.2649(8) 0.5196(8)
H31 H 0.5861 0.2415 0.5732
C27 C 0.5829(6) 0.3280(7) 0.5134(8)
H32 H 0.6071 0.3502 0.5622
C28 C 0.5761(5) 0.3624(6) 0.4395(8)
H33 H 0.5940 0.4084 0.4368
C29 C 0.5551(5) 0.3306(7) 0.3626(7)
C30 C 0.5440(5) 0.2616(6) 0.3691(7)
C31 C 0.5478(6) 0.3678(6) 0.2825(7)
H34 H 0.5859 0.3545 0.2432
H35 H 0.5541 0.4149 0.2952
C32 C 0.4782(5) 0.3588(6) 0.2368(6)
C33 C 0.4771(6) 0.3342(6) 0.1516(6)
H36 H 0.5198 0.3252 0.1224
C34 C 0.4147(6) 0.3237(7) 0.1126(7)
H37 H 0.4143 0.3082 0.0553
C35 C 0.3523(7) 0.3345(7) 0.1530(8)
H38 H 0.3098 0.3237 0.1245
C36 C 0.3492(6) 0.3615(6) 0.2363(8)
C37 C 0.4143(6) 0.3747(6) 0.2741(7)
C38 C 0.2823(6) 0.3737(7) 0.2798(7)
H39 H 0.2440 0.3606 0.2407
H40 H 0.2780 0.4215 0.2890
C39 C 0.4119(7) 0.1689(7) 0.6057(8)
H41 H 0.4605 0.1540 0.6161
H42 H 0.3805 0.1303 0.6078
C40 C 0.3903(10) 0.2186(9) 0.6738(9)
H43 H 0.3407 0.2316 0.6657
H44 H 0.3955 0.1994 0.7315
C41 C 0.4326(10) 0.3178(10) 0.7375(11)
H45 H 0.3838 0.3326 0.7474
H46 H 0.4485 0.2944 0.7894
C42 C 0.4737(9) 0.3703(9) 0.7247(10)
H47 H 0.5216 0.3561 0.7086
H48 H 0.4769 0.3966 0.7777
C43 C 0.4771(12) 0.4696(9) 0.6397(12)
H49 H 0.5246 0.4614 0.6165
H50 H 0.4821 0.4948 0.6934
C44 C 0.4373(13) 0.5070(9) 0.5795(10)
H51 H 0.3881 0.5112 0.5990
H52 H 0.4575 0.5514 0.5734
C45 C 0.4075(8) 0.5000(7) 0.4348(13)
H53 H 0.4205 0.5469 0.4326
H54 H 0.3564 0.4976 0.4454
C46 C 0.4212(9) 0.4724(7) 0.3556(9)
H55 H 0.4693 0.4843 0.3377
H56 H 0.3882 0.4909 0.3131
Cu1B Cu 0.16868(8) 0.25051(7) 0.04083(9)
S2B S 0.70974(16) 0.34385(15) 0.10218(18)
N1 N 0.4445(17) 0.1038(14) -0.161(2)
C47 C 0.4138(15) 0.0630(13) -0.193(2)
C48 C 0.3749(12) 0.0010(11) -0.2181(15)
H57 H 0.4088 -0.0339 -0.2302
H58 H 0.3467 0.0095 -0.2693
H59 H 0.3441 -0.0127 -0.1712
N2 N 0.8637(8) 0.0058(11) 0.0840(12)
C49 C 0.8114(8) 0.0004(10) 0.0500(12)
C50 C 0.7355(7) -0.0088(10) 0.0228(12)
H60 H 0.7133 -0.0419 0.0591
H61 H 0.7339 -0.0231 -0.0370
H62 H 0.7103 0.0329 0.0286
O10 O 0.2176(8) 0.0009(8) 0.2251(11)
O11 O 0.8497(5) 0.0306(5) -0.1371(6)
loop_
_geom_bond_atom_site_label_1
_geom_bond_atom_site_label_2
_geom_bond_site_symmetry_1
_geom_bond_site_symmetry_2
Cu1 I1 1_555 1_555
Hg1 I1 1_555 1_555
K1 O5 1_555 1_555
I2 Cu1 1_555 1_555
I3 Hg1 1_555 1_555
I4 Hg1 1_555 1_555
S1 Cu1 1_555 1_555
S2 C8 1_555 1_555
O1 C1 1_555 1_555
O2 C4 1_555 1_555
O3 C6 1_555 1_555
O4 C10 1_555 1_555
O5 C23 1_555 1_555
O6 K1 1_555 1_555
O7 K1 1_555 1_555
O8 K1 1_555 1_555
O9 K1 1_555 1_555
C1 H1 1_555 1_555
H2 C1 1_555 1_555
C2 S1 1_555 1_555
H3 C2 1_555 1_555
H4 C2 1_555 1_555
C3 S1 1_555 1_555
H5 C3 1_555 1_555
H6 C3 1_555 1_555
C4 C3 1_555 1_555
H7 C4 1_555 1_555
H8 C4 1_555 1_555
C5 O2 1_555 1_555
H9 C5 1_555 1_555
H10 C5 1_555 1_555
C6 C5 1_555 1_555
H11 C6 1_555 1_555
H12 C6 1_555 1_555
C7 O3 1_555 1_555
H13 C7 1_555 1_555
H14 C7 1_555 1_555
C8 C7 1_555 1_555
H15 C8 1_555 1_555
H16 C8 1_555 1_555
C9 S2 1_555 1_555
H17 C9 1_555 1_555
H18 C9 1_555 1_555
C10 C9 1_555 1_555
H19 C10 1_555 1_555
H20 C10 1_555 1_555
C11 O4 1_555 1_555
C12 C11 1_555 1_555
C13 C12 1_555 1_555
H21 C13 1_555 1_555
C14 C13 1_555 1_555
H22 C14 1_555 1_555
C15 C14 1_555 1_555
H23 C15 1_555 1_555
C16 C11 1_555 1_555
C17 C16 1_555 1_555
H24 C17 1_555 1_555
H25 C17 1_555 1_555
C18 C17 1_555 1_555
C19 C18 1_555 1_555
H26 C19 1_555 1_555
C20 C19 1_555 1_555
H27 C20 1_555 1_555
C21 C20 1_555 1_555
H28 C21 1_555 1_555
C22 C21 1_555 1_555
C23 C18 1_555 1_555
C24 C22 1_555 1_555
H29 C24 1_555 1_555
H30 C24 1_555 1_555
C25 C24 1_555 1_555
C26 C25 1_555 1_555
H31 C26 1_555 1_555
C27 C26 1_555 1_555
H32 C27 1_555 1_555
C28 C27 1_555 1_555
H33 C28 1_555 1_555
C29 C28 1_555 1_555
C30 O1 1_555 1_555
C31 C29 1_555 1_555
H34 C31 1_555 1_555
H35 C31 1_555 1_555
C32 C31 1_555 1_555
C33 C32 1_555 1_555
H36 C33 1_555 1_555
C34 C33 1_555 1_555
H37 C34 1_555 1_555
C35 C34 1_555 1_555
H38 C35 1_555 1_555
C36 C35 1_555 1_555
C37 O9 1_555 1_555
C38 C12 1_555 1_555
H39 C38 1_555 1_555
H40 C38 1_555 1_555
C39 O5 1_555 1_555
H41 C39 1_555 1_555
H42 C39 1_555 1_555
C40 O6 1_555 1_555
H43 C40 1_555 1_555
H44 C40 1_555 1_555
C41 O6 1_555 1_555
H45 C41 1_555 1_555
H46 C41 1_555 1_555
C42 O7 1_555 1_555
H47 C42 1_555 1_555
H48 C42 1_555 1_555
C43 O7 1_555 1_555
H49 C43 1_555 1_555
H50 C43 1_555 1_555
C44 O8 1_555 1_555
H51 C44 1_555 1_555
H52 C44 1_555 1_555
C45 O8 1_555 1_555
H53 C45 1_555 1_555
H54 C45 1_555 1_555
C46 O9 1_555 1_555
H55 C46 1_555 1_555
H56 C46 1_555 1_555
N1 C47 1_555 1_555
C47 C48 1_555 1_555
C48 H57 1_555 1_555
H58 C48 1_555 1_555
H59 C48 1_555 1_555
N2 C49 1_555 1_555
C49 C50 1_555 1_555
C50 H60 1_555 1_555
H61 C50 1_555 1_555
H62 C50 1_555 1_555
Cu1B S2 1_555 1_555
S2B Cu1 1_555 1_555
Hg1 I2 1_555 1_555
C1 C2 1_555 1_555
C15 C16 1_555 1_555
C22 C23 1_555 1_555
C25 C30 1_555 1_555
C29 C30 1_555 1_555
C32 C37 1_555 1_555
C36 C37 1_555 1_555
C36 C38 1_555 1_555
C39 C40 1_555 1_555
C41 C42 1_555 1_555
C43 C44 1_555 1_555
C45 C46 1_555 1_555

#END
