
#######################################################################
#
#                 Cambridge Crystallographic Data Centre
#                                CCDC 
#
#######################################################################
#
# If this CIF has been generated from an entry in the Cambridge 
# Structural Database, then it will include bibliographic, chemical, 
# crystal, experimental, refinement or atomic coordinate data resulting 
# from the CCDC's data processing and validation procedures.
#
#######################################################################

data_XUZMUA
_symmetry_cell_setting           triclinic
_symmetry_space_group_name_H-M   'P -1'
_symmetry_Int_Tables_number      2
_space_group_name_Hall           '-P 1'
loop_
_symmetry_equiv_pos_site_id
_symmetry_equiv_pos_as_xyz
1 x,y,z
2 -x,-y,-z
_cell_length_a                   8.4084(5)
_cell_length_b                   13.8366(8)
_cell_length_c                   17.1933(11)
_cell_angle_alpha                83.9790(10)
_cell_angle_beta                 78.1110(10)
_cell_angle_gamma                89.8810(10)
_cell_volume                     1946.23
loop_
_atom_site_label
_atom_site_type_symbol
_atom_site_fract_x
_atom_site_fract_y
_atom_site_fract_z
Ag1 Ag -0.1666(1) 0.8618(1) 0.0295(1)
Ag2 Ag -0.3292(1) 1.1198(1) -0.4984(1)
Ag3 Ag -0.1880(1) 1.0646(1) -0.2281(1)
S1 S -0.1462(2) 0.9013(1) -0.1229(1)
S2 S 0.0565(2) 0.8327(1) 0.1390(1)
S3 S -0.2889(2) 1.1703(1) -0.3526(1)
S4 S -0.5790(2) 1.0839(1) -0.5645(1)
O1 O -0.3771(8) 0.7433(5) -0.0088(3)
O2 O -0.2341(8) 0.7047(5) 0.1220(5)
O3 O -0.1353(8) 1.2723(4) -0.5208(3)
O4 O -0.2987(8) 1.2315(5) -0.6459(4)
C1 C 0.0490(12) 0.8554(7) -0.1696(4)
C2 C -0.2843(18) 0.8107(9) -0.1405(7)
C3 C -0.3808(19) 0.7595(15) -0.0887(6)
C4 C -0.3582(12) 0.6490(8) 0.0218(9)
C5 C -0.3532(11) 0.6432(7) 0.1035(8)
C6 C -0.1416(10) 0.6651(6) 0.1736(5)
C7 C -0.0596(11) 0.7382(7) 0.2073(5)
C8 C 0.2235(8) 0.7672(6) 0.0855(4)
C9 C 0.1885(7) 0.7336(5) 0.0099(4)
C10 C 0.1543(8) 0.8031(5) -0.0480(4)
C11 C 0.1070(9) 0.7763(5) -0.1154(4)
C12 C 0.0999(10) 0.6794(6) -0.1262(5)
C13 C 0.1397(10) 0.6104(6) -0.0706(5)
C14 C 0.1828(8) 0.6372(5) -0.0021(5)
C15 C -0.4741(8) 1.2317(6) -0.3106(4)
C16 C -0.1424(9) 1.2703(6) -0.3847(4)
C17 C -0.1533(9) 1.3296(5) -0.4596(5)
C18 C -0.1146(16) 1.3240(9) -0.5993(6)
C19 C -0.2432(16) 1.3290(8) -0.6353(7)
C20 C -0.4378(12) 1.2340(8) -0.6789(5)
C21 C -0.5102(11) 1.1340(8) -0.6674(5)
C22 C -0.7460(8) 1.1629(5) -0.5283(5)
C23 C -0.6964(7) 1.2373(4) -0.4804(4)
C24 C -0.6294(7) 1.2061(4) -0.4142(3)
C25 C -0.5673(7) 1.2704(4) -0.3723(4)
C26 C -0.5837(8) 1.3701(5) -0.3933(5)
C27 C -0.6564(8) 1.4015(5) -0.4549(5)
C28 C -0.7093(8) 1.3355(5) -0.5005(4)
N1 N -0.4253(7) 0.9580(4) 0.1419(4)
O5 O -0.2789(7) 0.9600(6) 0.1300(5)
O6 O -0.4834(11) 0.9223(10) 0.0985(8)
O7 O -0.5130(7) 0.9918(5) 0.1986(4)
N2 N 0.0211(8) 0.9688(5) -0.3651(3)
O8 O -0.1079(8) 0.9377(5) -0.3260(4)
O9 O 0.0887(10) 1.0332(6) -0.3432(5)
O10 O 0.0708(8) 0.9340(6) -0.4300(4)
H1 H 0.0395 0.8303 -0.2185
H2 H 0.1278 0.9078 -0.1826
H3 H -0.3487 0.8437 -0.1747
H4 H -0.2182 0.7664 -0.1720
H5 H -0.3787 0.6963 -0.1072
H6 H -0.4865 0.7846 -0.0909
H7 H -0.2594 0.6242 -0.0072
H8 H -0.4470 0.6094 0.0150
H9 H -0.3325 0.5772 0.1215
H10 H -0.4580 0.6593 0.1329
H11 H -0.0616 0.6243 0.1458
H12 H -0.2100 0.6249 0.2163
H13 H 0.0122 0.7052 0.2375
H14 H -0.1404 0.7688 0.2443
H15 H 0.3190 0.8084 0.0722
H16 H 0.2458 0.7117 0.1198
H17 H 0.1634 0.8708 -0.0414
H18 H 0.0671 0.6602 -0.1727
H19 H 0.1378 0.5430 -0.0791
H20 H 0.2086 0.5883 0.0370
H21 H -0.4460 1.2846 -0.2837
H22 H -0.5426 1.1869 -0.2715
H23 H -0.0352 1.2441 -0.3908
H24 H -0.1546 1.3123 -0.3429
H25 H -0.0700 1.3795 -0.4716
H26 H -0.2569 1.3604 -0.4535
H27 H -0.0275 1.2945 -0.6336
H28 H -0.0800 1.3893 -0.5962
H29 H -0.3304 1.3612 -0.6035
H30 H -0.2132 1.3665 -0.6865
H31 H -0.5149 1.2778 -0.6531
H32 H -0.4096 1.2564 -0.7349
H33 H -0.6007 1.1347 -0.6935
H34 H -0.4307 1.0915 -0.6933
H35 H -0.8345 1.1240 -0.4959
H36 H -0.7836 1.1952 -0.5732
H37 H -0.6270 1.1377 -0.3978
H38 H -0.5433 1.4166 -0.3640
H39 H -0.6713 1.4698 -0.4670
H40 H -0.7546 1.3585 -0.5458
S4A S -0.4210(2) 0.9161(1) -0.4355(1)
O10A O -0.0708(8) 1.0660(6) -0.5700(4)
S2A S -0.0565(2) 1.1673(1) -0.1390(1)
O7A O -0.4870(7) 1.0082(5) -0.1986(4)
Ag3A Ag 0.1880(1) 0.9354(1) 0.2281(1)
Ag2A Ag -0.6708(1) 0.8802(1) -0.5016(1)
Ag3A_2 Ag -0.8120(1) 0.9354(1) 0.2281(1)
Ag2A_2 Ag 0.3292(1) 0.8802(1) -0.5016(1)
P1 P 0.7371(2) 0.5229(1) 0.7529(1)
F1 F 0.6828(15) 0.5293(5) 0.8415(4)
F2 F 0.7617(8) 0.6358(3) 0.7329(4)
F3 F 0.9140(9) 0.5165(6) 0.7596(7)
F4 F 0.7143(7) 0.4080(3) 0.7709(3)
F5 F 0.5571(9) 0.5267(5) 0.7427(6)
F6 F 0.7825(13) 0.5134(5) 0.6635(3)
loop_
_geom_bond_atom_site_label_1
_geom_bond_atom_site_label_2
_geom_bond_site_symmetry_1
_geom_bond_site_symmetry_2
Ag1 S1 1_555 1_555
Ag2 S3 1_555 1_555
Ag3 S1 1_555 1_555
S1 C1 1_555 1_555
S2 Ag1 1_555 1_555
S3 Ag3 1_555 1_555
S4 Ag2 1_555 1_555
O1 C3 1_555 1_555
O2 Ag1 1_555 1_555
O3 C17 1_555 1_555
O4 C19 1_555 1_555
C1 C11 1_555 1_555
C2 S1 1_555 1_555
C3 C2 1_555 1_555
C4 O1 1_555 1_555
C5 O2 1_555 1_555
C6 O2 1_555 1_555
C7 S2 1_555 1_555
C8 S2 1_555 1_555
C9 C8 1_555 1_555
C10 C9 1_555 1_555
C11 C10 1_555 1_555
C12 C11 1_555 1_555
C13 C12 1_555 1_555
C14 C9 1_555 1_555
C15 S3 1_555 1_555
C16 S3 1_555 1_555
C17 C16 1_555 1_555
C18 O3 1_555 1_555
C19 C18 1_555 1_555
C20 O4 1_555 1_555
C21 S4 1_555 1_555
C22 S4 1_555 1_555
C23 C22 1_555 1_555
C24 C23 1_555 1_555
C25 C15 1_555 1_555
C26 C25 1_555 1_555
C27 C26 1_555 1_555
C28 C23 1_555 1_555
N1 O5 1_555 1_555
O5 Ag1 1_555 1_555
O6 N1 1_555 1_555
O7 N1 1_555 1_555
N2 O8 1_555 1_555
O8 Ag3 1_555 1_555
O9 N2 1_555 1_555
O10 N2 1_555 1_555
P1 F1 1_555 1_555
F2 P1 1_555 1_555
F3 P1 1_555 1_555
F4 P1 1_555 1_555
F5 P1 1_555 1_555
F6 P1 1_555 1_555
H1 C1 1_555 1_555
H2 C1 1_555 1_555
H3 C2 1_555 1_555
H4 C2 1_555 1_555
H5 C3 1_555 1_555
H6 C3 1_555 1_555
H7 C4 1_555 1_555
H8 C4 1_555 1_555
H9 C5 1_555 1_555
H10 C5 1_555 1_555
H11 C6 1_555 1_555
H12 C6 1_555 1_555
H13 C7 1_555 1_555
H14 C7 1_555 1_555
H15 C8 1_555 1_555
H16 C8 1_555 1_555
H17 C10 1_555 1_555
H18 C12 1_555 1_555
H19 C13 1_555 1_555
H20 C14 1_555 1_555
H21 C15 1_555 1_555
H22 C15 1_555 1_555
H23 C16 1_555 1_555
H24 C16 1_555 1_555
H25 C17 1_555 1_555
H26 C17 1_555 1_555
H27 C18 1_555 1_555
H28 C18 1_555 1_555
H29 C19 1_555 1_555
H30 C19 1_555 1_555
H31 C20 1_555 1_555
H32 C20 1_555 1_555
H33 C21 1_555 1_555
H34 C21 1_555 1_555
H35 C22 1_555 1_555
H36 C22 1_555 1_555
H37 C24 1_555 1_555
H38 C26 1_555 1_555
H39 C27 1_555 1_555
H40 C28 1_555 1_555
S4A Ag2 1_555 1_555
O10A Ag2 1_555 1_555
S2A Ag3 1_555 1_555
O7A Ag3 1_555 1_555
Ag3A S2 1_555 1_555
Ag2A S4 1_555 1_555
Ag3A_2 O7 1_555 1_555
Ag2A_2 O10 1_555 1_555
C4 C5 1_555 1_555
C6 C7 1_555 1_555
C13 C14 1_555 1_555
C20 C21 1_555 1_555
C24 C25 1_555 1_555
C27 C28 1_555 1_555
S4A Ag2A 1_555 1_555

#END
