
#######################################################################
#
#                 Cambridge Crystallographic Data Centre
#                                CCDC 
#
#######################################################################
#
# If this CIF has been generated from an entry in the Cambridge 
# Structural Database, then it will include bibliographic, chemical, 
# crystal, experimental, refinement or atomic coordinate data resulting 
# from the CCDC's data processing and validation procedures.
#
#######################################################################

data_XUZMAH
_symmetry_cell_setting           orthorhombic
_symmetry_space_group_name_H-M   'P b c a'
_symmetry_Int_Tables_number      61
_space_group_name_Hall           '-P 2ac 2ab'
loop_
_symmetry_equiv_pos_site_id
_symmetry_equiv_pos_as_xyz
1 x,y,z
2 1/2-x,-y,1/2+z
3 -x,1/2+y,1/2-z
4 1/2+x,1/2-y,-z
5 -x,-y,-z
6 1/2+x,y,1/2-z
7 x,1/2-y,1/2+z
8 1/2-x,1/2+y,z
_cell_length_a                   7.104(1)
_cell_length_b                   19.035(1)
_cell_length_c                   22.532(2)
_cell_angle_alpha                90
_cell_angle_beta                 90
_cell_angle_gamma                90
_cell_volume                     3046.88
loop_
_atom_site_label
_atom_site_type_symbol
_atom_site_fract_x
_atom_site_fract_y
_atom_site_fract_z
Cu1 Cu 0.45943(5) 0.186122(17) 0.509305(15)
Br1 Br 0.47371(5) 0.194703(18) 0.293665(14)
Br2 Br 0.04185(5) -0.05401(2) 0.287964(16)
O1 O 0.4574(3) 0.16910(10) 0.42546(9)
N1 N 0.3607(3) 0.09290(12) 0.52706(10)
N2 N 0.4583(3) 0.19955(12) 0.59970(10)
N3 N 0.5833(4) 0.27770(13) 0.49534(11)
N4 N 0.4813(4) 0.32809(15) 0.49274(12)
N5 N 0.3883(5) 0.37787(17) 0.49031(15)
C1 C 0.2796(4) 0.06125(13) 0.42626(12)
C2 C 0.3694(4) 0.11902(14) 0.39811(12)
C3 C 0.3550(4) 0.12038(14) 0.33516(12)
C4 C 0.2600(4) 0.07060(15) 0.30284(13)
H1 H 0.2539 0.0737 0.2617
C5 C 0.1728(4) 0.01541(15) 0.33262(13)
C6 C 0.1819(4) 0.01040(15) 0.39306(13)
H2 H 0.1232 -0.0268 0.4123
C7 C 0.2844(4) 0.05107(14) 0.48978(12)
H3 H 0.2274 0.0108 0.5047
C8 C 0.3504(4) 0.07746(15) 0.59077(12)
H4 H 0.4662 0.0556 0.6042
H5 H 0.2465 0.0459 0.5990
C9 C 0.3209(4) 0.14716(16) 0.62200(13)
H6 H 0.1938 0.1638 0.6148
H7 H 0.3369 0.1411 0.6644
C10 C 0.6479(4) 0.18597(17) 0.62413(16)
H8 H 0.6427 0.1872 0.6667
H9 H 0.7335 0.2213 0.6102
H10 H 0.6905 0.1406 0.6113
C11 C 0.3981(5) 0.27085(16) 0.61868(14)
H11 H 0.3895 0.2724 0.6612
H12 H 0.2773 0.2814 0.6018
H13 H 0.4886 0.3048 0.6054
Cu1C Cu 0.95943(5) 0.313878(17) 0.490695(15)
N3C N 0.0833(4) 0.22230(13) 0.50466(11)
loop_
_geom_bond_atom_site_label_1
_geom_bond_atom_site_label_2
_geom_bond_site_symmetry_1
_geom_bond_site_symmetry_2
Cu1 O1 1_555 1_555
Br1 C3 1_555 1_555
Br2 C5 1_555 1_555
O1 C2 1_555 1_555
N1 Cu1 1_555 1_555
N2 Cu1 1_555 1_555
N3 Cu1 1_555 1_555
N4 N3 1_555 1_555
N5 N4 1_555 1_555
C1 C2 1_555 1_555
C2 C3 1_555 1_555
C3 C4 1_555 1_555
C4 H1 1_555 1_555
C5 C4 1_555 1_555
C6 C1 1_555 1_555
H2 C6 1_555 1_555
C7 N1 1_555 1_555
H3 C7 1_555 1_555
C8 N1 1_555 1_555
H4 C8 1_555 1_555
H5 C8 1_555 1_555
C9 N2 1_555 1_555
H6 C9 1_555 1_555
H7 C9 1_555 1_555
C10 N2 1_555 1_555
H8 C10 1_555 1_555
H9 C10 1_555 1_555
H10 C10 1_555 1_555
C11 N2 1_555 1_555
H11 C11 1_555 1_555
H12 C11 1_555 1_555
H13 C11 1_555 1_555
Cu1C N3 1_555 1_555
N3C Cu1 1_555 1_555
C1 C7 1_555 1_555
C5 C6 1_555 1_555
C8 C9 1_555 1_555

#END
