
#######################################################################
#
#                 Cambridge Crystallographic Data Centre
#                                CCDC 
#
#######################################################################
#
# If this CIF has been generated from an entry in the Cambridge 
# Structural Database, then it will include bibliographic, chemical, 
# crystal, experimental, refinement or atomic coordinate data resulting 
# from the CCDC's data processing and validation procedures.
#
#######################################################################

data_XUZNIQ
_symmetry_cell_setting           triclinic
_symmetry_space_group_name_H-M   'P -1'
_symmetry_Int_Tables_number      2
_space_group_name_Hall           '-P 1'
loop_
_symmetry_equiv_pos_site_id
_symmetry_equiv_pos_as_xyz
1 x,y,z
2 -x,-y,-z
_cell_length_a                   5.2200(16)
_cell_length_b                   8.571(3)
_cell_length_c                   22.171(7)
_cell_angle_alpha                84.440(4)
_cell_angle_beta                 84.019(4)
_cell_angle_gamma                76.404(4)
_cell_volume                     956.206
loop_
_atom_site_label
_atom_site_type_symbol
_atom_site_fract_x
_atom_site_fract_y
_atom_site_fract_z
Rh1 Rh 0.28482(16) 0.01183(10) 0.02502(4)
O1 O 0.4312(14) 0.0585(9) 0.1018(3)
O2 O 0.8332(14) 0.0328(9) 0.0534(4)
O3 O 0.2089(14) 0.2486(9) -0.0043(4)
O4 O 0.6161(13) 0.2261(9) -0.0526(4)
C1 C 0.670(2) 0.0554(13) 0.1013(5)
C2 C 0.775(2) 0.0900(17) 0.1584(6)
H1 H 0.8789 -0.0359 0.1740
H2 H 0.9034 0.1415 0.1565
C3 C 0.587(3) 0.1034(19) 0.2136(6)
H3 H 0.5302 0.0032 0.2225
H4 H 0.4324 0.1880 0.2055
C4 C 0.708(4) 0.141(2) 0.2696(7)
H5 H 0.8623 0.0559 0.2776
H6 H 0.7651 0.2407 0.2605
C5 C 0.516(5) 0.155(3) 0.3261(8)
H7 H 0.4634 0.0538 0.3365
H8 H 0.3593 0.2379 0.3182
C6 C 0.650(6) 0.198(3) 0.3806(10)
H9 H 0.8096 0.1162 0.3874
H10 H 0.6997 0.3000 0.3702
C7 C 0.475(10) 0.209(5) 0.4364(14)
H11 H 0.3719 0.1153 0.4366
H12 H 0.3167 0.2859 0.4316
C8 C 0.381(2) 0.3040(13) -0.0375(6)
C9 C 0.293(2) 0.4733(12) -0.0642(6)
H13 H 0.4419 0.5060 -0.0875
H14 H 0.2337 0.5443 -0.0315
C10 C 0.068(2) 0.4909(14) -0.1054(6)
H15 H -0.0102 0.6043 -0.1137
H16 H -0.0672 0.4407 -0.0843
C11 C 0.163(3) 0.4141(18) -0.1660(7)
H17 H 0.2859 0.4716 -0.1888
H18 H 0.2582 0.3037 -0.1576
C12 C -0.057(3) 0.415(2) -0.2043(8)
H19 H -0.1647 0.5240 -0.2083
H20 H -0.1673 0.3471 -0.1834
C13 C 0.034(4) 0.358(3) -0.2681(9)
H21 H 0.1273 0.4334 -0.2906
H22 H 0.1575 0.2545 -0.2643
C14 C -0.185(5) 0.342(4) -0.3038(12)
H23 H -0.3551 0.4216 -0.2955
H24 H -0.2685 0.2875 -0.3014
C15 C -0.093(7) 0.298(4) -0.3669(12)
H25 H 0.0374 0.3570 -0.3834
H26 H -0.2402 0.3250 -0.3915
H27 H -0.0162 0.1850 -0.3666
C16 C 0.622(9) 0.255(6) 0.4865(15)
H28 H 0.6478 0.3585 0.4699
H29 H 0.4803 0.2689 0.5181
H30 H 0.7819 0.1941 0.5030
Rh1A Rh 0.71518(16) -0.01183(10) -0.02502(4)
Rh1_2 Rh 1.28482(16) 0.01183(10) 0.02502(4)
O2_2 O -0.1668(14) 0.0328(9) 0.0534(4)
O2A O 0.1668(14) -0.0328(9) -0.0534(4)
O4A O 0.3839(13) -0.2261(9) 0.0526(4)
loop_
_geom_bond_atom_site_label_1
_geom_bond_atom_site_label_2
_geom_bond_site_symmetry_1
_geom_bond_site_symmetry_2
Rh1 O1 1_555 1_555
O1 C1 1_555 1_555
O2 C1 1_555 1_555
O3 Rh1 1_555 1_555
O4 C8 1_555 1_555
C1 C2 1_555 1_555
C2 H1 1_555 1_555
H2 C2 1_555 1_555
C3 C2 1_555 1_555
H3 C3 1_555 1_555
H4 C3 1_555 1_555
C4 C3 1_555 1_555
H5 C4 1_555 1_555
H6 C4 1_555 1_555
C5 C4 1_555 1_555
H7 C5 1_555 1_555
H8 C5 1_555 1_555
C6 C5 1_555 1_555
H9 C6 1_555 1_555
H10 C6 1_555 1_555
C7 C6 1_555 1_555
H11 C7 1_555 1_555
H12 C7 1_555 1_555
C8 O3 1_555 1_555
C9 C8 1_555 1_555
H13 C9 1_555 1_555
H14 C9 1_555 1_555
C10 C9 1_555 1_555
H15 C10 1_555 1_555
H16 C10 1_555 1_555
C11 C10 1_555 1_555
H17 C11 1_555 1_555
H18 C11 1_555 1_555
C12 C11 1_555 1_555
H19 C12 1_555 1_555
H20 C12 1_555 1_555
C13 C12 1_555 1_555
H21 C13 1_555 1_555
H22 C13 1_555 1_555
C14 C13 1_555 1_555
H23 C14 1_555 1_555
H24 C14 1_555 1_555
C15 C14 1_555 1_555
H25 C15 1_555 1_555
H26 C15 1_555 1_555
H27 C15 1_555 1_555
C16 C7 1_555 1_555
H28 C16 1_555 1_555
H29 C16 1_555 1_555
H30 C16 1_555 1_555
Rh1A Rh1 1_555 1_555
Rh1_2 O2 1_555 1_555
O2_2 Rh1 1_555 1_555
O2A Rh1 1_555 1_555
O4A Rh1 1_555 1_555
O2 Rh1A 1_555 1_555
O4 Rh1A 1_555 1_555

#END
