
#######################################################################
#
#                 Cambridge Crystallographic Data Centre
#                                CCDC 
#
#######################################################################
#
# If this CIF has been generated from an entry in the Cambridge 
# Structural Database, then it will include bibliographic, chemical, 
# crystal, experimental, refinement or atomic coordinate data resulting 
# from the CCDC's data processing and validation procedures.
#
#######################################################################

data_XUZRIT
_symmetry_cell_setting           triclinic
_symmetry_space_group_name_H-M   'P -1'
_symmetry_Int_Tables_number      2
_space_group_name_Hall           '-P 1'
loop_
_symmetry_equiv_pos_site_id
_symmetry_equiv_pos_as_xyz
1 x,y,z
2 -x,-y,-z
_cell_length_a                   8.033(2)
_cell_length_b                   8.1950(10)
_cell_length_c                   13.420(2)
_cell_angle_alpha                80.950(10)
_cell_angle_beta                 87.400(10)
_cell_angle_gamma                78.320(10)
_cell_volume                     854.298
loop_
_atom_site_label
_atom_site_type_symbol
_atom_site_fract_x
_atom_site_fract_y
_atom_site_fract_z
Co1 Co 0.33454(3) 0.25738(3) 1.27372(2)
O1 O 0.12164(15) 0.4242(2) 1.31937(9)
O2 O -0.0839(2) 0.2792(2) 1.31033(12)
O3 O -0.50452(15) 0.41510(15) 1.30912(9)
O4 O -0.3905(2) 0.2733(2) 1.45443(9)
O5 O 0.1781(2) 0.0825(2) 1.24578(10)
O6 O 0.3800(2) 0.1070(2) 1.41251(10)
N1 N 0.3083(2) 0.3687(2) 1.11744(10)
N2 N 0.5458(2) 0.1109(2) 1.20174(10)
C1 C 0.1927(2) 0.4987(2) 1.07690(14)
C2 C 0.1850(2) 0.5577(2) 0.97305(15)
C3 C 0.3006(3) 0.4803(2) 0.90933(14)
C4 C 0.4269(2) 0.3417(2) 0.94956(13)
C5 C 0.4250(2) 0.2907(2) 1.05467(12)
C6 C 0.5549(3) 0.2539(3) 0.88899(14)
C7 C 0.6763(3) 0.1258(3) 0.93205(15)
C8 C 0.5533(2) 0.1543(2) 1.09982(12)
C9 C 0.6805(2) 0.0739(2) 1.03885(14)
C10 C 0.8070(3) -0.0534(2) 1.0878(2)
C11 C 0.8013(3) -0.0946(3) 1.1901(2)
C12 C 0.6667(3) -0.0116(2) 1.24431(15)
C13 C -0.0311(2) 0.4023(2) 1.33232(12)
C14 C -0.1537(2) 0.5360(2) 1.37461(14)
C15 C -0.3164(2) 0.5336(2) 1.39286(14)
C16 C -0.4077(2) 0.3940(2) 1.38322(12)
H1 H 0.1149(25) 0.5495(24) 1.1221(15)
H2 H 0.0982(26) 0.6529(26) 0.9487(15)
H3 H 0.2978(27) 0.5153(26) 0.8392(16)
H4 H 0.5525(28) 0.2881(26) 0.8192(16)
H5 H 0.7577(28) 0.0719(28) 0.8945(17)
H6 H 0.8919(28) -0.1059(27) 1.0503(16)
H7 H 0.8843(30) -0.1819(29) 1.2264(17)
H8 H 0.6634(26) 0.0369(26) 1.3151(16)
H9 H -0.1095(26) 0.6226(27) 1.3890(15)
H10 H -0.3835(27) 0.6183(26) 1.4158(15)
H11 H 0.0860(33) 0.1319(35) 1.2624(21)
H12 H 0.1978(29) 0.0108(29) 1.2808(17)
H13 H 0.2977(32) 0.1011(32) 1.4515(19)
H14 H 0.4482(32) 0.1498(33) 1.4389(19)
O3_2 O 0.49548(15) 0.41510(15) 1.30912(9)
Co1_2 Co -0.66546(3) 0.25738(3) 1.27372(2)
O7 O -0.1958(2) 0.2420(2) 1.62629(13)
H15 H -0.2538(33) 0.2550(33) 1.5799(19)
H16 H -0.2018(38) 0.3343(35) 1.6399(23)
O8 O 0.1336(2) 0.0531(3) 1.55500(12)
H17 H 0.0396(40) 0.1056(39) 1.5646(22)
H18? H 0.1509(53) 0.0406(52) 1.5686(30)
loop_
_geom_bond_atom_site_label_1
_geom_bond_atom_site_label_2
_geom_bond_site_symmetry_1
_geom_bond_site_symmetry_2
Co1 O1 1_555 1_555
O1 C13 1_555 1_555
O2 C13 1_555 1_555
O3 C16 1_555 1_555
O4 C16 1_555 1_555
O5 Co1 1_555 1_555
O6 Co1 1_555 1_555
O7 H15 1_555 1_555
O8 H17 1_555 1_555
N1 Co1 1_555 1_555
N2 Co1 1_555 1_555
C1 N1 1_555 1_555
C2 C1 1_555 1_555
C3 C2 1_555 1_555
C4 C3 1_555 1_555
C5 N1 1_555 1_555
C6 C4 1_555 1_555
C7 C6 1_555 1_555
C8 N2 1_555 1_555
C9 C7 1_555 1_555
C10 C9 1_555 1_555
C11 C10 1_555 1_555
C12 N2 1_555 1_555
C13 C14 1_555 1_555
C14 C15 1_555 1_555
C15 C16 1_555 1_555
H1 C1 1_555 1_555
H2 C2 1_555 1_555
H3 C3 1_555 1_555
H4 C6 1_555 1_555
H5 C7 1_555 1_555
H6 C10 1_555 1_555
H7 C11 1_555 1_555
H8 C12 1_555 1_555
H9 C14 1_555 1_555
H10 C15 1_555 1_555
H11 O5 1_555 1_555
H12 O5 1_555 1_555
H13 O6 1_555 1_555
H14 O6 1_555 1_555
H16 O7 1_555 1_555
O3_2 Co1 1_555 1_555
Co1_2 O3 1_555 1_555
C4 C5 1_555 1_555
C5 C8 1_555 1_555
C8 C9 1_555 1_555
C11 C12 1_555 1_555

#END
