
#######################################################################
#
#                 Cambridge Crystallographic Data Centre
#                                CCDC 
#
#######################################################################
#
# If this CIF has been generated from an entry in the Cambridge 
# Structural Database, then it will include bibliographic, chemical, 
# crystal, experimental, refinement or atomic coordinate data resulting 
# from the CCDC's data processing and validation procedures.
#
#######################################################################

data_XUZRIU
_symmetry_cell_setting           monoclinic
_symmetry_space_group_name_H-M   'P 21/n'
_symmetry_Int_Tables_number      14
_space_group_name_Hall           '-P 2yn'
loop_
_symmetry_equiv_pos_site_id
_symmetry_equiv_pos_as_xyz
1 x,y,z
2 1/2-x,1/2+y,1/2-z
3 -x,-y,-z
4 1/2+x,1/2-y,1/2+z
_cell_length_a                   11.318(2)
_cell_length_b                   6.5981(13)
_cell_length_c                   11.395(2)
_cell_angle_alpha                90
_cell_angle_beta                 110.86(3)
_cell_angle_gamma                90
_cell_volume                     795.171
loop_
_atom_site_label
_atom_site_type_symbol
_atom_site_fract_x
_atom_site_fract_y
_atom_site_fract_z
Co1 Co 0.67798(4) -0.21359(7) 0.77404(4)
Co2 Co 0.5000 0.0000 0.5000
O1 O 0.4993(2) -0.1767(4) 0.7862(2)
O2 O 0.3805(3) -0.1154(4) 0.5865(3)
O3 O 0.1179(2) -0.2319(3) 1.0634(2)
O4 O -0.1615(2) -0.0454(3) 0.7216(2)
C1 C 0.2783(3) -0.1425(4) 0.8511(3)
H1 H 0.3561 -0.1327 0.9163
C2 C 0.0510(3) -0.1592(4) 0.7779(3)
C3 C 0.1595(3) -0.1579(5) 0.6296(3)
H2 H 0.1571 -0.1611 0.5472
O5 O -0.1116(2) -0.3140(3) 0.8402(2)
C4 C 0.1665(3) -0.1480(4) 0.8791(3)
C5 C 0.1837(3) -0.1259(4) 1.0160(3)
O6 O 0.2657(2) -0.0018(4) 1.0762(2)
C6 C 0.2746(3) -0.1514(4) 0.7288(3)
C7 C 0.3946(3) -0.1486(4) 0.6990(3)
C8 C 0.0491(3) -0.1595(5) 0.6543(3)
H3 H -0.0280 -0.1608 0.5878
C9 C -0.0788(3) -0.1710(5) 0.7837(3)
Co1B Co 0.32202(4) 0.21359(7) 0.22596(4)
Co1C Co 0.17798(4) -0.28641(7) 1.27404(4)
Co1A Co -0.17798(4) 0.28641(7) 0.72596(4)
Co1_2 Co -0.32202(4) -0.21359(7) 0.77404(4)
Co1B_2 Co 0.32202(4) 0.21359(7) 1.22596(4)
Co1A_2 Co 0.82202(4) 0.28641(7) -0.27404(4)
Co1C_2 Co 1.17798(4) -0.28641(7) 0.27404(4)
Co1B_3 Co 1.32202(4) 0.21359(7) 0.22596(4)
Co1_3 Co 0.67798(4) -0.21359(7) -0.22596(4)
Co2A Co 0.0000 -0.5000 1.0000
Co2A_2 Co 1.0000 0.5000 0.0000
O1B O 0.5007(2) 0.1767(4) 0.2138(2)
O2B O 0.6195(3) 0.1154(4) 0.4135(3)
O3B O 0.8821(2) 0.2319(3) -0.0634(2)
O3C O 0.6179(2) -0.2681(3) 0.5634(2)
O3A O 0.3821(2) 0.2681(3) 0.4366(2)
O4B O 1.1615(2) 0.0454(3) 0.2784(2)
O4A O 0.6615(2) -0.5454(3) 0.7784(2)
O4_2 O 0.8385(2) -0.0454(3) 0.7216(2)
O4C O 0.3385(2) 0.5454(3) 0.2216(2)
O4B_2 O 0.1615(2) 0.0454(3) 0.2784(2)
C1B C 0.7217(3) 0.1425(4) 0.1489(3)
H1B H 0.6439 0.1327 0.0837
C2B C 0.9490(3) 0.1592(4) 0.2221(3)
C3B C 0.8405(3) 0.1579(5) 0.3704(3)
H2B H 0.8429 0.1611 0.4528
O5B O 1.1116(2) 0.3140(3) 0.1598(2)
O5_2 O 0.8884(2) -0.3140(3) 0.8402(2)
O5A O 0.6116(2) 0.1860(3) 0.6598(2)
O5C O 0.3884(2) -0.1860(3) 0.3402(2)
O5B_2 O 0.1116(2) 0.3140(3) 0.1598(2)
C4B C 0.8335(3) 0.1480(4) 0.1209(3)
C5B C 0.8163(3) 0.1259(4) -0.0160(3)
O6B O 0.7343(2) 0.0018(4) -0.0762(2)
O6B_2 O 0.7343(2) 0.0018(4) 0.9238(2)
O6_2 O 0.2657(2) -0.0018(4) 0.0762(2)
C6B C 0.7254(3) 0.1514(4) 0.2712(3)
C7B C 0.6054(3) 0.1486(4) 0.3010(3)
C8B C 0.9509(3) 0.1595(5) 0.3457(3)
H3B H 1.0280 0.1608 0.4122
C9B C 1.0788(3) 0.1710(5) 0.2163(3)
loop_
_geom_bond_atom_site_label_1
_geom_bond_atom_site_label_2
_geom_bond_site_symmetry_1
_geom_bond_site_symmetry_2
Co1 O1 1_555 1_555
Co2 O2 1_555 1_555
O1 C7 1_555 1_555
O2 C7 1_555 1_555
O3 C5 1_555 1_555
O4 C9 1_555 1_555
C1 H1 1_555 1_555
C2 C4 1_555 1_555
C3 H2 1_555 1_555
O5 C9 1_555 1_555
C4 C1 1_555 1_555
C5 C4 1_555 1_555
O6 C5 1_555 1_555
C6 C1 1_555 1_555
C7 C6 1_555 1_555
C8 C2 1_555 1_555
H3 C8 1_555 1_555
C9 C2 1_555 1_555
Co1B O1B 1_555 1_555
Co1C O3 1_555 1_555
Co1A O4 1_555 1_555
Co1_2 O4 1_555 1_555
Co1B_2 O6 1_555 1_555
Co1A_2 O3B 1_555 1_555
Co1C_2 O4B 1_555 1_555
Co1B_3 O4B 1_555 1_555
Co1_3 O6B 1_555 1_555
Co2A O3 1_555 1_555
Co2A_2 O3B 1_555 1_555
O1B C7B 1_555 1_555
O2B Co2 1_555 1_555
O3B C5B 1_555 1_555
O3C Co1 1_555 1_555
O3A Co2 1_555 1_555
O4B C9B 1_555 1_555
O4A Co1 1_555 1_555
O4_2 Co1 1_555 1_555
O4C Co1B 1_555 1_555
O4B_2 Co1B 1_555 1_555
C1B H1B 1_555 1_555
C2B C4B 1_555 1_555
C3B H2B 1_555 1_555
O5B Co1B_3 1_555 1_555
O5_2 Co1 1_555 1_555
O5A Co2 1_555 1_555
O5C Co2 1_555 1_555
O5B_2 Co1B 1_555 1_555
C4B C1B 1_555 1_555
C5B C4B 1_555 1_555
O6B C5B 1_555 1_555
O6B_2 Co1 1_555 1_555
O6_2 Co1B 1_555 1_555
C6B C1B 1_555 1_555
C7B O2B 1_555 1_555
C8B C2B 1_555 1_555
H3B C8B 1_555 1_555
C9B C2B 1_555 1_555
Co2 O3C 1_555 1_555
C3 C6 1_555 1_555
C3 C8 1_555 1_555
O5 Co1_2 1_555 1_555
O5 Co2A 1_555 1_555
Co1B O3A 1_555 1_555
Co2A_2 O5B 1_555 1_555
C3B C6B 1_555 1_555
C3B C8B 1_555 1_555
O5B C9B 1_555 1_555
C6B C7B 1_555 1_555

#END
