
#######################################################################
#
#                 Cambridge Crystallographic Data Centre
#                                CCDC 
#
#######################################################################
#
# If this CIF has been generated from an entry in the Cambridge 
# Structural Database, then it will include bibliographic, chemical, 
# crystal, experimental, refinement or atomic coordinate data resulting 
# from the CCDC's data processing and validation procedures.
#
#######################################################################

data_XUZYIB
_symmetry_cell_setting           triclinic
_symmetry_space_group_name_H-M   'P 1'
_symmetry_Int_Tables_number      1
_space_group_name_Hall           'P 1'
loop_
_symmetry_equiv_pos_site_id
_symmetry_equiv_pos_as_xyz
1 x,y,z
_cell_length_a                   9.5055(2)
_cell_length_b                   13.0026(3)
_cell_length_c                   17.1668(3)
_cell_angle_alpha                77.2809(11)
_cell_angle_beta                 85.5001(12)
_cell_angle_gamma                77.6417(10)
_cell_volume                     2020.63
loop_
_atom_site_label
_atom_site_type_symbol
_atom_site_fract_x
_atom_site_fract_y
_atom_site_fract_z
K1 K 0.5254(3) 0.6177(2) 0.16148(19)
C1 C 1.0216(6) 0.6702(5) 0.0754(3)
C2 C 1.1564(6) 0.6144(5) 0.1102(4)
C3 C 1.1601(6) 0.5616(5) 0.2003(4)
C4 C 1.0281(6) 0.5637(4) 0.2486(3)
C5 C 0.8924(7) 0.6213(5) 0.2111(3)
C6 C 0.8876(6) 0.6729(4) 0.1244(3)
C7 C 1.0347(6) 0.5098(5) 0.3287(3)
C8 C 0.9434(6) 0.5561(4) 0.3913(3)
C9 C 0.8922(7) 0.4898(5) 0.4593(3)
H1 H 0.9110 0.4157 0.4630
C10 C 0.8153(7) 0.5320(5) 0.5202(4)
C11 C 0.7954(7) 0.6432(6) 0.5162(4)
C12 C 0.8256(7) 0.7131(5) 0.4442(4)
C13 C 0.9067(7) 0.6655(5) 0.3850(4)
H2 H 0.9370 0.7099 0.3394
C14 C 0.7503(10) 0.4557(7) 0.5918(4)
C15 C 0.8125(16) 0.4616(10) 0.6699(5)
H3 H 0.9154 0.4386 0.6674
H4 H 0.7729 0.4154 0.7137
H5 H 0.7883 0.5343 0.6774
C16 C 0.7576(14) 0.3474(7) 0.5695(6)
H6 H 0.8536 0.3209 0.5510
H7 H 0.6914 0.3561 0.5279
H8 H 0.7322 0.2970 0.6156
C17 C 0.6103(15) 0.4926(8) 0.6190(9)
H9 H 0.5439 0.4982 0.5782
H10 H 0.6034 0.5621 0.6313
H11 H 0.5873 0.4430 0.6661
O1 O 0.7305(5) 0.6861(4) 0.5799(3)
C18 C 0.8277(13) 0.6963(12) 0.6330(7)
H12 H 0.7758 0.7271 0.6754
H13 H 0.8905 0.7422 0.6053
H14 H 0.8838 0.6266 0.6549
C19 C 0.7810(10) 0.8365(6) 0.4296(6)
C20 C 0.8090(12) 0.8914(6) 0.3481(7)
H15 H 0.9066 0.8649 0.3320
H16 H 0.7947 0.9674 0.3457
H17 H 0.7442 0.8782 0.3130
C21 C 0.6336(14) 0.8709(8) 0.4587(9)
H18 H 0.6212 0.8318 0.5123
H19 H 0.5673 0.8570 0.4248
H20 H 0.6154 0.9466 0.4581
C22 C 0.883(3) 0.8797(9) 0.4833(11)
H21 H 0.9824 0.8583 0.4677
H22 H 0.8688 0.8492 0.5388
H23 H 0.8575 0.9568 0.4747
O2 O 0.7753(4) 0.6251(5) 0.2474(3)
O3 O 1.2752(5) 0.6133(4) 0.0751(3)
O4 O 0.7682(5) 0.7124(4) 0.0958(3)
O5 O 1.2816(4) 0.5298(4) 0.2269(2)
C23 C 1.1262(6) 0.4030(4) 0.3531(3)
C24 C 1.1494(6) 0.3306(4) 0.3012(3)
H24 H 1.1180 0.3557 0.2492
C25 C 1.2181(7) 0.2218(5) 0.3245(4)
C26 C 1.2421(10) 0.1502(6) 0.2614(4)
C27 C 1.3919(11) 0.0780(8) 0.2671(5)
H25 H 1.4634 0.1216 0.2606
H26 H 1.4060 0.0370 0.2260
H27 H 1.4006 0.0298 0.3185
C28 C 1.2353(12) 0.2196(7) 0.1752(4)
H28 H 1.3091 0.2614 0.1670
H29 H 1.1426 0.2669 0.1679
H30 H 1.2499 0.1734 0.1375
C29 C 1.1242(15) 0.0831(9) 0.2700(6)
H31 H 1.1243 0.0393 0.3230
H32 H 1.1428 0.0378 0.2317
H33 H 1.0319 0.1305 0.2609
C30 C 1.2630(7) 0.1890(5) 0.4025(4)
O6 O 1.3178(8) 0.0780(4) 0.4303(3)
C31 C 1.1814(19) 0.0233(8) 0.4658(7)
H34 H 1.2146 -0.0524 0.4857
H35 H 1.1146 0.0340 0.4242
H36 H 1.1344 0.0561 0.5085
C32 C 1.2550(7) 0.2573(4) 0.4560(4)
C33 C 1.3198(9) 0.2246(5) 0.5372(4)
C34 C 1.2193(19) 0.1863(17) 0.6004(5)
H37 H 1.2658 0.1661 0.6508
H38 H 1.1898 0.1251 0.5892
H39 H 1.1363 0.2427 0.6029
C35 C 1.3305(13) 0.3217(7) 0.5717(5)
H40 H 1.3957 0.3612 0.5388
H41 H 1.3654 0.2972 0.6250
H42 H 1.2369 0.3675 0.5730
C36 C 1.4858(15) 0.1566(12) 0.5323(8)
H43 H 1.5367 0.1923 0.4875
H44 H 1.4846 0.0852 0.5259
H45 H 1.5333 0.1524 0.5806
C37 C 1.1857(6) 0.3657(5) 0.4286(3)
H46 H 1.1795 0.4139 0.4621
C38 C 1.0181(6) 0.7270(4) -0.0068(3)
C39 C 0.9270(6) 0.8360(4) -0.0299(3)
C40 C 0.8675(7) 0.8724(5) -0.1050(3)
H47 H 0.8745 0.8242 -0.1386
C41 C 0.7985(7) 0.9778(5) -0.1312(4)
C42 C 0.7960(8) 1.0510(4) -0.0812(4)
C43 C 0.8357(7) 1.0127(5) 0.0003(3)
C44 C 0.9043(6) 0.9063(5) 0.0207(3)
H48 H 0.9373 0.8804 0.0724
C45 C 0.8096(8) 1.0844(5) 0.0624(4)
C46 C 0.8218(17) 1.0181(8) 0.1444(5)
H49 H 0.9130 0.9686 0.1491
H50 H 0.7453 0.9786 0.1555
H51 H 0.8148 1.0639 0.1820
C47 C 0.6642(11) 1.1635(7) 0.0537(6)
H52 H 0.6574 1.2059 0.0003
H53 H 0.6564 1.2100 0.0909
H54 H 0.5877 1.1241 0.0646
C48 C 0.9308(12) 1.1524(10) 0.0527(8)
H55 H 1.0234 1.1049 0.0582
H56 H 0.9166 1.1946 0.0931
H57 H 0.9261 1.1994 0.0009
O7 O 0.7421(9) 1.1564(4) -0.1090(3)
C49 C 0.8304(15) 1.2198(9) -0.1367(6)
H58 H 0.7770 1.2920 -0.1536
H59 H 0.8853 1.1966 -0.1813
H60 H 0.8945 1.2180 -0.0956
C50 C 0.7275(9) 1.0127(6) -0.2158(4)
C51 C 0.7031(15) 0.9186(7) -0.2416(6)
H61 H 0.7918 0.8666 -0.2405
H62 H 0.6686 0.9397 -0.2951
H63 H 0.6328 0.8875 -0.2064
C52 C 0.5956(16) 1.0852(13) -0.2153(7)
H64 H 0.6086 1.1467 -0.1966
H65 H 0.5275 1.0507 -0.1806
H66 H 0.5600 1.1078 -0.2685
C53 C 0.8098(16) 1.0865(7) -0.2741(5)
H67 H 0.9058 1.0481 -0.2829
H68 H 0.8139 1.1478 -0.2524
H69 H 0.7616 1.1102 -0.3240
C54 C 1.1091(6) 0.6820(5) -0.0684(3)
C55 C 1.1604(6) 0.7464(5) -0.1352(3)
H70 H 1.1449 0.8201 -0.1377
C56 C 1.2349(6) 0.7052(5) -0.1997(4)
C57 C 1.2589(6) 0.5949(5) -0.1924(4)
C58 C 1.2197(7) 0.5238(5) -0.1236(4)
C59 C 1.1457(6) 0.5697(5) -0.0632(3)
H71 H 1.1188 0.5247 -0.0170
C60 C 1.2837(8) 0.7866(7) -0.2700(4)
C61 C 1.3012(11) 0.8858(7) -0.2471(6)
H72 H 1.3329 0.9333 -0.2930
H73 H 1.3716 0.8680 -0.2065
H74 H 1.2107 0.9206 -0.2269
C62 C 1.4588(15) 0.7336(12) -0.2810(11)
H75 H 1.4692 0.6656 -0.2964
H76 H 1.5053 0.7231 -0.2314
H77 H 1.5025 0.7816 -0.3217
C63 C 1.1657(14) 0.8301(12) -0.3311(6)
H78 H 1.1446 0.7716 -0.3508
H79 H 1.1979 0.8807 -0.3747
H80 H 1.0804 0.8652 -0.3062
O8 O 1.3179(5) 0.5532(4) -0.2589(3)
C64 C 1.2198(12) 0.5410(10) -0.3137(6)
H81 H 1.2730 0.5122 -0.3566
H82 H 1.1609 0.6099 -0.3349
H83 H 1.1596 0.4928 -0.2864
C65 C 1.2693(11) 0.4017(6) -0.1095(6)
C66 C 1.284(2) 0.3576(8) -0.0186(7)
H84 H 1.3162 0.2808 -0.0085
H85 H 1.1924 0.3753 0.0081
H86 H 1.3530 0.3892 0.0010
C67 C 1.4291(14) 0.3660(11) -0.1356(8)
H87 H 1.4553 0.2889 -0.1240
H88 H 1.4896 0.3944 -0.1070
H89 H 1.4415 0.3928 -0.1919
C68 C 1.165(2) 0.3491(9) -0.1300(19)
H90 H 1.2008 0.2727 -0.1189
H91 H 1.1455 0.3738 -0.1858
H92 H 1.0773 0.3653 -0.0990
O9 O 0.6346(7) 0.4093(6) 0.2396(7)
C69 C 0.5680(13) 0.3330(9) 0.2507(11)
H93 H 0.5591 0.3129 0.2004
H94 H 0.4721 0.3547 0.2730
C70 C 0.6535(14) 0.2380(9) 0.3084(8)
H95 H 0.5918 0.2148 0.3537
H96 H 0.6870 0.1783 0.2818
C71 C 0.7692(14) 0.2666(14) 0.3347(12)
H97 H 0.8593 0.2198 0.3238
H98 H 0.7595 0.2672 0.3913
C72 C 0.757(2) 0.3769(13) 0.2848(18)
H99 H 0.7548 0.4271 0.3193
H100 H 0.8411 0.3793 0.2494
O10 O 0.4078(11) 0.8310(9) 0.0907(8)
C73 C 0.5010(11) 0.9025(10) 0.0514(14)
H101 H 0.5953 0.8629 0.0384
H102 H 0.5117 0.9526 0.0838
C74 C 0.433(2) 0.949(3) -0.0098(15)
H103 H 0.4346 1.0252 -0.0171
H104 H 0.4883 0.9243 -0.0544
C75 C 0.3014(18) 0.9432(13) -0.0175(7)
H105 H 0.2924 0.9063 -0.0597
H106 H 0.2377 1.0134 -0.0269
C76 C 0.2756(9) 0.8765(11) 0.0651(12)
H107 H 0.2236 0.9219 0.1002
H108 H 0.2214 0.8223 0.0620
O11 O 0.4168(9) 0.6945(10) 0.3073(7)
C77 C 0.2846(12) 0.7451(12) 0.3195(10)
H109 H 0.2154 0.7108 0.3018
H110 H 0.2699 0.8196 0.2911
C78 C 0.2692(14) 0.738(2) 0.4110(12)
H111 H 0.3125 0.7889 0.4293
H112 H 0.1713 0.7394 0.4323
C79 C 0.351(4) 0.639(3) 0.421(2)
H113 H 0.2908 0.5917 0.4114
H114 H 0.3750 0.6170 0.4768
C80 C 0.4831(12) 0.6179(13) 0.3746(8)
H115 H 0.5635 0.6385 0.3944
H116 H 0.5091 0.5447 0.3662
O12 O 0.6165(11) 0.5379(9) 0.0065(7)
C81 C 0.7779(19) 0.493(2) -0.0300(16)
H117 H 0.8529 0.5076 -0.0014
H118 H 0.7940 0.4161 -0.0280
C82 C 0.7720(19) 0.5557(15) -0.1145(9)
H119 H 0.8435 0.6007 -0.1245
H120 H 0.7908 0.5074 -0.1516
C83 C 0.646(2) 0.6136(16) -0.1232(12)
H121 H 0.5858 0.5828 -0.1511
H122 H 0.6484 0.6864 -0.1519
C84 C 0.602(6) 0.612(2) -0.0519(15)
H123 H 0.6400 0.6677 -0.0365
H124 H 0.4987 0.6384 -0.0551
K1_2 K 1.5254(3) 0.6177(2) 0.16148(19)
O3_2 O 0.2752(5) 0.6133(4) 0.0751(3)
O5_2 O 0.2816(4) 0.5298(4) 0.2269(2)
loop_
_geom_bond_atom_site_label_1
_geom_bond_atom_site_label_2
_geom_bond_site_symmetry_1
_geom_bond_site_symmetry_2
K1 O2 1_555 1_555
C1 C2 1_555 1_555
C2 C3 1_555 1_555
C3 C4 1_555 1_555
C4 C5 1_555 1_555
C5 C6 1_555 1_555
C6 C1 1_555 1_555
C7 C4 1_555 1_555
C8 C7 1_555 1_555
C9 C8 1_555 1_555
H1 C9 1_555 1_555
C10 C9 1_555 1_555
C11 C10 1_555 1_555
C12 C11 1_555 1_555
C13 C8 1_555 1_555
H2 C13 1_555 1_555
C14 C10 1_555 1_555
C15 C14 1_555 1_555
H3 C15 1_555 1_555
H4 C15 1_555 1_555
H5 C15 1_555 1_555
C16 C14 1_555 1_555
H6 C16 1_555 1_555
H7 C16 1_555 1_555
H8 C16 1_555 1_555
C17 C14 1_555 1_555
H9 C17 1_555 1_555
H10 C17 1_555 1_555
H11 C17 1_555 1_555
O1 C11 1_555 1_555
C18 O1 1_555 1_555
H12 C18 1_555 1_555
H13 C18 1_555 1_555
H14 C18 1_555 1_555
C19 C12 1_555 1_555
C20 C19 1_555 1_555
H15 C20 1_555 1_555
H16 C20 1_555 1_555
H17 C20 1_555 1_555
C21 C19 1_555 1_555
H18 C21 1_555 1_555
H19 C21 1_555 1_555
H20 C21 1_555 1_555
C22 C19 1_555 1_555
H21 C22 1_555 1_555
H22 C22 1_555 1_555
H23 C22 1_555 1_555
O2 C5 1_555 1_555
O3 C2 1_555 1_555
O4 K1 1_555 1_555
O5 C3 1_555 1_555
C23 C7 1_555 1_555
C24 C23 1_555 1_555
H24 C24 1_555 1_555
C25 C24 1_555 1_555
C26 C25 1_555 1_555
C27 C26 1_555 1_555
H25 C27 1_555 1_555
H26 C27 1_555 1_555
H27 C27 1_555 1_555
C28 C26 1_555 1_555
H28 C28 1_555 1_555
H29 C28 1_555 1_555
H30 C28 1_555 1_555
C29 C26 1_555 1_555
H31 C29 1_555 1_555
H32 C29 1_555 1_555
H33 C29 1_555 1_555
C30 C25 1_555 1_555
O6 C30 1_555 1_555
C31 O6 1_555 1_555
H34 C31 1_555 1_555
H35 C31 1_555 1_555
H36 C31 1_555 1_555
C32 C30 1_555 1_555
C33 C32 1_555 1_555
C34 C33 1_555 1_555
H37 C34 1_555 1_555
H38 C34 1_555 1_555
H39 C34 1_555 1_555
C35 C33 1_555 1_555
H40 C35 1_555 1_555
H41 C35 1_555 1_555
H42 C35 1_555 1_555
C36 C33 1_555 1_555
H43 C36 1_555 1_555
H44 C36 1_555 1_555
H45 C36 1_555 1_555
C37 C23 1_555 1_555
H46 C37 1_555 1_555
C38 C1 1_555 1_555
C39 C38 1_555 1_555
C40 C39 1_555 1_555
H47 C40 1_555 1_555
C41 C40 1_555 1_555
C42 C41 1_555 1_555
C43 C42 1_555 1_555
C44 C39 1_555 1_555
H48 C44 1_555 1_555
C45 C43 1_555 1_555
C46 C45 1_555 1_555
H49 C46 1_555 1_555
H50 C46 1_555 1_555
H51 C46 1_555 1_555
C47 C45 1_555 1_555
H52 C47 1_555 1_555
H53 C47 1_555 1_555
H54 C47 1_555 1_555
C48 C45 1_555 1_555
H55 C48 1_555 1_555
H56 C48 1_555 1_555
H57 C48 1_555 1_555
O7 C42 1_555 1_555
C49 O7 1_555 1_555
H58 C49 1_555 1_555
H59 C49 1_555 1_555
H60 C49 1_555 1_555
C50 C41 1_555 1_555
C51 C50 1_555 1_555
H61 C51 1_555 1_555
H62 C51 1_555 1_555
H63 C51 1_555 1_555
C52 C50 1_555 1_555
H64 C52 1_555 1_555
H65 C52 1_555 1_555
H66 C52 1_555 1_555
C53 C50 1_555 1_555
H67 C53 1_555 1_555
H68 C53 1_555 1_555
H69 C53 1_555 1_555
C54 C38 1_555 1_555
C55 C54 1_555 1_555
H70 C55 1_555 1_555
C56 C55 1_555 1_555
C57 C56 1_555 1_555
C58 C57 1_555 1_555
C59 C54 1_555 1_555
H71 C59 1_555 1_555
C60 C56 1_555 1_555
C61 C60 1_555 1_555
H72 C61 1_555 1_555
H73 C61 1_555 1_555
H74 C61 1_555 1_555
C62 C60 1_555 1_555
H75 C62 1_555 1_555
H76 C62 1_555 1_555
H77 C62 1_555 1_555
C63 C60 1_555 1_555
H78 C63 1_555 1_555
H79 C63 1_555 1_555
H80 C63 1_555 1_555
O8 C57 1_555 1_555
C64 O8 1_555 1_555
H81 C64 1_555 1_555
H82 C64 1_555 1_555
H83 C64 1_555 1_555
C65 C58 1_555 1_555
C66 C65 1_555 1_555
H84 C66 1_555 1_555
H85 C66 1_555 1_555
H86 C66 1_555 1_555
C67 C65 1_555 1_555
H87 C67 1_555 1_555
H88 C67 1_555 1_555
H89 C67 1_555 1_555
C68 C65 1_555 1_555
H90 C68 1_555 1_555
H91 C68 1_555 1_555
H92 C68 1_555 1_555
O9 K1 1_555 1_555
C69 O9 1_555 1_555
H93 C69 1_555 1_555
H94 C69 1_555 1_555
C70 C69 1_555 1_555
H95 C70 1_555 1_555
H96 C70 1_555 1_555
C71 C70 1_555 1_555
H97 C71 1_555 1_555
H98 C71 1_555 1_555
C72 O9 1_555 1_555
H99 C72 1_555 1_555
H100 C72 1_555 1_555
O10 K1 1_555 1_555
C73 O10 1_555 1_555
H101 C73 1_555 1_555
H102 C73 1_555 1_555
C74 C73 1_555 1_555
H103 C74 1_555 1_555
H104 C74 1_555 1_555
C75 C74 1_555 1_555
H105 C75 1_555 1_555
H106 C75 1_555 1_555
C76 O10 1_555 1_555
H107 C76 1_555 1_555
H108 C76 1_555 1_555
O11 K1 1_555 1_555
C77 O11 1_555 1_555
H109 C77 1_555 1_555
H110 C77 1_555 1_555
C78 C77 1_555 1_555
H111 C78 1_555 1_555
H112 C78 1_555 1_555
C79 C78 1_555 1_555
H113 C79 1_555 1_555
H114 C79 1_555 1_555
C80 O11 1_555 1_555
H115 C80 1_555 1_555
H116 C80 1_555 1_555
O12 K1 1_555 1_555
C81 O12 1_555 1_555
H117 C81 1_555 1_555
H118 C81 1_555 1_555
C82 C81 1_555 1_555
H119 C82 1_555 1_555
H120 C82 1_555 1_555
C83 C82 1_555 1_555
H121 C83 1_555 1_555
H122 C83 1_555 1_555
C84 O12 1_555 1_555
H123 C84 1_555 1_555
H124 C84 1_555 1_555
K1_2 O3 1_555 1_555
O3_2 K1 1_555 1_555
O5_2 K1 1_555 1_555
C6 O4 1_555 1_555
C12 C13 1_555 1_555
O5 K1_2 1_555 1_555
C32 C37 1_555 1_555
C43 C44 1_555 1_555
C58 C59 1_555 1_555
C71 C72 1_555 1_555
C75 C76 1_555 1_555
C79 C80 1_555 1_555
C83 C84 1_555 1_555

#END
