
#######################################################################
#
#                 Cambridge Crystallographic Data Centre
#                                CCDC 
#
#######################################################################
#
# If this CIF has been generated from an entry in the Cambridge 
# Structural Database, then it will include bibliographic, chemical, 
# crystal, experimental, refinement or atomic coordinate data resulting 
# from the CCDC's data processing and validation procedures.
#
#######################################################################

data_XUZYOH
_symmetry_cell_setting           triclinic
_symmetry_space_group_name_H-M   'P 1'
_symmetry_Int_Tables_number      1
_space_group_name_Hall           'P 1'
loop_
_symmetry_equiv_pos_site_id
_symmetry_equiv_pos_as_xyz
1 x,y,z
_cell_length_a                   16.077(3)
_cell_length_b                   16.242(3)
_cell_length_c                   18.788(4)
_cell_angle_alpha                64.52(3)
_cell_angle_beta                 72.45(3)
_cell_angle_gamma                88.43(3)
_cell_volume                     4192.71
loop_
_atom_site_label
_atom_site_type_symbol
_atom_site_fract_x
_atom_site_fract_y
_atom_site_fract_z
Na1 Na 0.7495(3) 0.9186(3) 0.0034(3)
Na2 Na 0.8338(3) 0.4749(3) -0.1145(3)
C1 C 0.7498(8) 0.6233(7) -0.0611(7)
C2 C 0.6981(8) 0.6542(8) -0.0002(7)
C3 C 0.7430(8) 0.7234(8) 0.0124(8)
C4 C 0.8371(7) 0.7706(8) -0.0515(7)
C5 C 0.8824(7) 0.7398(7) -0.1132(7)
C6 C 0.8383(7) 0.6695(7) -0.1200(7)
O1 O 0.7189(5) 0.5563(5) -0.0631(5)
O2 O 0.8730(5) 0.6394(5) -0.1729(5)
O3 O 0.8607(5) 0.8412(5) -0.0481(5)
O4 O 0.7100(5) 0.7517(5) 0.0628(5)
C7 C 0.6112(8) 0.6163(7) 0.0485(8)
C8 C 0.5729(8) 0.6008(7) 0.1344(7)
C9 C 0.4814(8) 0.6082(8) 0.1695(8)
H1 H 0.4463 0.6254 0.1354
C10 C 0.4460(8) 0.5918(9) 0.2475(8)
C11 C 0.4961(9) 0.5609(10) 0.3006(9)
C12 C 0.5854(9) 0.5587(9) 0.2715(9)
C13 C 0.6224(8) 0.5771(7) 0.1894(8)
H2 H 0.6822 0.5738 0.1693
C14 C 0.6467(9) 0.5402(9) 0.3243(8)
C15 C 0.6413(12) 0.4398(10) 0.3833(10)
H3 H 0.5821 0.4178 0.4202
H4 H 0.6800 0.4329 0.4152
H5 H 0.6584 0.4051 0.3519
C16 C 0.7453(9) 0.5655(11) 0.2680(9)
H6 H 0.7553 0.6293 0.2288
H7 H 0.7588 0.5285 0.2385
H8 H 0.7823 0.5543 0.3021
C17 C 0.6247(8) 0.5962(10) 0.3765(8)
H9 H 0.5638 0.5811 0.4098
H10 H 0.6363 0.6607 0.3395
H11 H 0.6605 0.5811 0.4120
O5 O 0.4557(7) 0.5316(10) 0.3857(6)
C18 C 0.4287(10) 0.4390(16) 0.4347(9)
H12 H 0.4007 0.4280 0.4914
H13 H 0.4787 0.4055 0.4313
H14 H 0.3878 0.4191 0.4155
C19 C 0.3455(9) 0.6063(9) 0.2810(9)
C20 C 0.3117(8) 0.6614(12) 0.2065(8)
H15 H 0.3533 0.7142 0.1664
H16 H 0.2561 0.6809 0.2260
H17 H 0.3049 0.6231 0.1809
C21 C 0.3370(10) 0.6733(10) 0.3214(9)
H18 H 0.3776 0.7277 0.2842
H19 H 0.3500 0.6439 0.3727
H20 H 0.2782 0.6895 0.3323
C22 C 0.2847(9) 0.5215(11) 0.3394(9)
H21 H 0.2260 0.5369 0.3544
H22 H 0.3016 0.4909 0.3885
H23 H 0.2871 0.4817 0.3133
C23 C 0.5533(8) 0.5934(9) 0.0103(8)
C24 C 0.4892(8) 0.5198(8) 0.0517(8)
H24 H 0.4863 0.4787 0.1056
C25 C 0.4284(7) 0.5017(8) 0.0197(8)
C26 C 0.4355(8) 0.5639(8) -0.0629(8)
C27 C 0.5036(8) 0.6336(9) -0.1132(7)
C28 C 0.5618(8) 0.6506(8) -0.0725(8)
H25 H 0.6051 0.7007 -0.1028
C29 C 0.3625(9) 0.4141(9) 0.0687(9)
C30 C 0.2666(8) 0.4319(8) 0.0900(9)
H26 H 0.2294 0.3744 0.1211
H27 H 0.2532 0.4673 0.0396
H28 H 0.2567 0.4653 0.1228
C31 C 0.3741(8) 0.3536(8) 0.0229(9)
H29 H 0.3339 0.2983 0.0569
H30 H 0.4332 0.3384 0.0120
H31 H 0.3623 0.3864 -0.0287
C32 C 0.3789(9) 0.3509(10) 0.1555(10)
H32 H 0.3389 0.2953 0.1846
H33 H 0.3692 0.3835 0.1889
H34 H 0.4382 0.3361 0.1448
O6 O 0.3750(6) 0.5453(6) -0.0971(6)
C33 C 0.3072(10) 0.5986(10) -0.1040(10)
H35 H 0.2711 0.5797 -0.1280
H36 H 0.3308 0.6619 -0.1389
H37 H 0.2724 0.5915 -0.0498
C34 C 0.5265(8) 0.7001(8) -0.2054(8)
C35 C 0.4769(10) 0.7872(8) -0.2177(8)
H38 H 0.4150 0.7684 -0.1900
H39 H 0.4873 0.8248 -0.2761
H40 H 0.4979 0.8216 -0.1947
C36 C 0.6249(9) 0.7283(9) -0.2496(8)
H41 H 0.6541 0.6745 -0.2440
H42 H 0.6474 0.7601 -0.2252
H43 H 0.6353 0.7681 -0.3076
C37 C 0.4991(9) 0.6523(9) -0.2543(7)
H44 H 0.4379 0.6288 -0.2285
H45 H 0.5335 0.6028 -0.2529
H46 H 0.5092 0.6965 -0.3110
C38 C 0.9729(7) 0.7748(7) -0.1587(7)
C39 C 1.0323(7) 0.7951(8) -0.1205(8)
C40 C 1.0266(7) 0.7403(8) -0.0379(7)
H47 H 0.9833 0.6901 -0.0071
C41 C 1.0779(8) 0.7540(7) -0.0002(7)
C42 C 1.1474(8) 0.8305(9) -0.0476(8)
C43 C 1.1525(8) 0.8929(8) -0.1311(8)
C44 C 1.0977(6) 0.8725(8) -0.1674(7)
H48 H 1.1038 0.9098 -0.2230
C45 C 1.0590(8) 0.6939(9) 0.0978(8)
C46 C 0.9569(9) 0.6619(11) 0.1356(8)
H49 H 0.9404 0.6341 0.1051
H50 H 0.9256 0.7140 0.1316
H51 H 0.9426 0.6180 0.1930
C47 C 1.0795(9) 0.7413(10) 0.1430(9)
H52 H 1.1418 0.7582 0.1243
H53 H 1.0599 0.7011 0.2016
H54 H 1.0502 0.7956 0.1325
C48 C 1.0985(9) 0.6048(9) 0.1147(9)
H55 H 1.0843 0.5776 0.0828
H56 H 1.0753 0.5636 0.1729
H57 H 1.1612 0.6166 0.0990
O7 O 1.2077(6) 0.8463(6) -0.0167(6)
C49 C 1.2792(8) 0.7865(9) -0.0167(9)
H58 H 1.3196 0.8012 0.0059
H59 H 1.3097 0.7963 -0.0727
H60 H 1.2546 0.7233 0.0167
C50 C 1.2204(8) 0.9821(8) -0.1850(9)
C51 C 1.2083(9) 1.0385(10) -0.1347(9)
H61 H 1.1482 1.0502 -0.1199
H62 H 1.2457 1.0958 -0.1679
H63 H 1.2235 1.0045 -0.0851
C52 C 1.3157(8) 0.9553(9) -0.2038(9)
H64 H 1.3207 0.9161 -0.2309
H65 H 1.3286 0.9235 -0.1526
H66 H 1.3566 1.0099 -0.2395
C53 C 1.2060(9) 1.0394(8) -0.2657(9)
H67 H 1.1462 1.0528 -0.2557
H68 H 1.2177 1.0067 -0.2991
H69 H 1.2448 1.0957 -0.2944
C54 C 1.0125(7) 0.7894(7) -0.2461(7)
C55 C 0.9633(8) 0.8150(7) -0.2987(8)
H70 H 0.9042 0.8198 -0.2768
C56 C 0.9955(7) 0.8347(8) -0.3840(7)
C57 C 1.0908(8) 0.8350(9) -0.4159(8)
C58 C 1.1441(8) 0.8027(8) -0.3646(8)
C59 C 1.0987(8) 0.7803(8) -0.2757(7)
H71 H 1.1307 0.7591 -0.2388
C60 C 0.9342(8) 0.8512(9) -0.4365(7)
C61 C 0.9484(10) 0.7914(9) -0.4819(8)
H72 H 0.9092 0.8041 -0.5141
H73 H 0.9370 0.7278 -0.4420
H74 H 1.0080 0.8043 -0.5181
C62 C 0.8397(8) 0.8189(9) -0.3807(8)
H75 H 0.8241 0.8504 -0.3462
H76 H 0.8332 0.7540 -0.3461
H77 H 0.8019 0.8321 -0.4143
C63 C 0.9424(10) 0.9536(9) -0.5003(10)
H78 H 0.9343 0.9916 -0.4719
H79 H 0.8982 0.9614 -0.5268
H80 H 0.9995 0.9710 -0.5416
O8 O 1.1282(7) 0.8586(9) -0.5007(6)
C64 C 1.1573(14) 0.9585(16) -0.5528(14)
H81 H 1.1823 0.9706 -0.6101
H82 H 1.2006 0.9773 -0.5353
H83 H 1.1078 0.9922 -0.5466
C65 C 1.2380(8) 0.7837(10) -0.3899(9)
C66 C 1.2706(7) 0.7353(9) -0.3182(9)
H84 H 1.2626 0.7695 -0.2863
H85 H 1.3319 0.7298 -0.3381
H86 H 1.2384 0.6752 -0.2836
C67 C 1.2962(8) 0.8767(10) -0.4443(13)
H87 H 1.2905 0.9109 -0.4125
H88 H 1.2780 0.9109 -0.4921
H89 H 1.3564 0.8664 -0.4622
C68 C 1.2486(10) 0.7322(14) -0.4416(12)
H90 H 1.2287 0.7662 -0.4884
H91 H 1.2143 0.6730 -0.4084
H92 H 1.3093 0.7245 -0.4611
C69 C 0.7461(7) 1.1069(8) 0.0113(6)
C70 C 0.7796(7) 1.1700(8) 0.0343(7)
C71 C 0.8207(7) 1.2604(8) -0.0286(7)
C72 C 0.8398(7) 1.2862(8) -0.1225(7)
C73 C 0.8042(7) 1.2242(7) -0.1472(7)
C74 C 0.7629(7) 1.1334(7) -0.0800(7)
O9 O 0.7457(5) 1.0696(5) -0.0984(5)
O10 O 0.7075(5) 1.0282(5) 0.0615(5)
O11 O 0.8379(5) 1.3217(5) -0.0146(5)
O12 O 0.8791(5) 1.3631(5) -0.1718(5)
C75 C 0.7757(8) 1.1421(8) 0.1195(7)
C76 C 0.8554(7) 1.1749(7) 0.1332(7)
C77 C 0.8471(8) 1.2008(7) 0.1942(7)
H93 H 0.7910 1.2011 0.2273
C78 C 0.9199(8) 1.2272(8) 0.2095(7)
C79 C 1.0052(8) 1.2238(8) 0.1563(7)
C80 C 1.0161(8) 1.2079(7) 0.0866(7)
C81 C 0.9377(7) 1.1779(7) 0.0796(7)
H94 H 0.9418 1.1598 0.0381
C82 C 0.9081(9) 1.2603(8) 0.2769(8)
C83 C 0.9373(9) 1.1933(10) 0.3506(9)
H95 H 0.9306 1.2180 0.3898
H96 H 0.9978 1.1851 0.3303
H97 H 0.9017 1.1351 0.3773
C84 C 0.8107(9) 1.2678(10) 0.3169(8)
H98 H 0.8061 1.2878 0.3590
H99 H 0.7769 1.2088 0.3417
H100 H 0.7887 1.3114 0.2750
C85 C 0.9621(9) 1.3546(9) 0.2393(8)
H101 H 0.9562 1.3736 0.2823
H102 H 0.9410 1.3989 0.1970
H103 H 1.0229 1.3502 0.2152
O13 O 1.0775(6) 1.2440(6) 0.1748(6)
C86 C 1.1144(9) 1.1615(11) 0.2179(9)
H104 H 1.1629 1.1780 0.2309
H105 H 1.1346 1.1313 0.1828
H106 H 1.0702 1.1209 0.2684
C87 C 1.1015(7) 1.2225(9) 0.0180(7)
C88 C 1.1697(9) 1.3033(9) 0.0012(8)
H107 H 1.1825 1.2905 0.0514
H108 H 1.1448 1.3603 -0.0164
H109 H 1.2229 1.3078 -0.0417
C89 C 1.0873(10) 1.2536(11) -0.0682(9)
H110 H 1.1428 1.2631 -0.1102
H111 H 1.0610 1.3099 -0.0821
H112 H 1.0492 1.2069 -0.0653
C90 C 1.1409(10) 1.1298(12) 0.0339(11)
H113 H 1.1511 1.1052 0.0866
H114 H 1.1954 1.1401 -0.0096
H115 H 1.1003 1.0870 0.0344
C91 C 0.7026(7) 1.0816(7) 0.1914(8)
C92 C 0.7143(7) 1.0253(8) 0.2673(8)
H116 H 0.7704 1.0260 0.2715
C93 C 0.6460(9) 0.9683(8) 0.3370(8)
C94 C 0.5639(8) 0.9621(8) 0.3249(8)
C95 C 0.5469(8) 1.0257(8) 0.2537(8)
C96 C 0.6169(8) 1.0820(8) 0.1893(8)
H117 H 0.6067 1.1234 0.1408
C97 C 0.6628(9) 0.9196(10) 0.4192(8)
C98 C 0.5872(9) 0.8768(10) 0.4997(8)
H118 H 0.6097 0.8469 0.5453
H119 H 0.5507 0.8325 0.4978
H120 H 0.5533 0.9237 0.5071
C99 C 0.7231(12) 0.8367(10) 0.4175(11)
H121 H 0.7348 0.8060 0.4693
H122 H 0.7776 0.8621 0.3727
H123 H 0.6921 0.7934 0.4093
C100 C 0.7245(10) 0.9848(8) 0.4310(8)
H124 H 0.7360 0.9514 0.4828
H125 H 0.6957 1.0371 0.4316
H126 H 0.7790 1.0049 0.3859
O14 O 0.4945(6) 0.8985(6) 0.3888(5)
C101 C 0.5061(11) 0.8085(9) 0.3879(11)
H127 H 0.4574 0.7644 0.4301
H128 H 0.5597 0.7888 0.3987
H129 H 0.5086 0.8138 0.3344
C102 C 0.4518(8) 1.0367(9) 0.2485(7)
C103 C 0.4013(9) 0.9457(10) 0.2679(11)
H130 H 0.4334 0.9224 0.2297
H131 H 0.3442 0.9567 0.2621
H132 H 0.3952 0.9014 0.3238
C104 C 0.4562(8) 1.1032(10) 0.1614(8)
H133 H 0.4901 1.0811 0.1230
H134 H 0.4835 1.1622 0.1479
H135 H 0.3979 1.1087 0.1578
C105 C 0.4011(8) 1.0703(9) 0.3123(9)
H136 H 0.3978 1.0254 0.3672
H137 H 0.3429 1.0793 0.3091
H138 H 0.4310 1.1274 0.3006
C106 C 0.8046(7) 1.2494(7) -0.2288(7)
C107 C 0.8776(8) 1.3094(8) -0.3022(7)
C108 C 0.8672(8) 1.3668(8) -0.3787(7)
H139 H 0.8112 1.3661 -0.3832
C109 C 0.9362(8) 1.4261(8) -0.4498(7)
C110 C 1.0179(8) 1.4272(8) -0.4392(7)
C111 C 1.0362(8) 1.3661(8) -0.3653(7)
C112 C 0.9648(8) 1.3080(8) -0.2976(8)
H140 H 0.9746 1.2675 -0.2486
C113 C 1.1310(8) 1.3568(9) -0.3614(9)
C114 C 1.1819(10) 1.4464(11) -0.3810(10)
H141 H 1.1834 1.4924 -0.4350
H142 H 1.2409 1.4361 -0.3805
H143 H 1.1535 1.4671 -0.3399
C115 C 1.1339(9) 1.2815(12) -0.2771(9)
H144 H 1.1043 1.2246 -0.2658
H145 H 1.1052 1.2991 -0.2338
H146 H 1.1939 1.2742 -0.2792
C116 C 1.1840(9) 1.3246(10) -0.4257(9)
H147 H 1.1562 1.2666 -0.4141
H148 H 1.2426 1.3180 -0.4228
H149 H 1.1864 1.3692 -0.4805
O15 O 1.0857(6) 1.4960(6) -0.5007(6)
C117 C 1.0797(8) 1.5834(9) -0.5015(8)
H150 H 1.1274 1.6262 -0.5467
H151 H 1.0826 1.5793 -0.4499
H152 H 1.0249 1.6039 -0.5086
C118 C 0.9145(9) 1.4794(8) -0.5332(7)
C119 C 0.8656(10) 1.4084(12) -0.5411(9)
H153 H 0.9013 1.3601 -0.5413
H154 H 0.8519 1.4361 -0.5922
H155 H 0.8121 1.3834 -0.4950
C120 C 0.8645(9) 1.5549(10) -0.5327(9)
H156 H 0.8540 1.5867 -0.5851
H157 H 0.8970 1.5966 -0.5241
H158 H 0.8094 1.5315 -0.4886
C121 C 1.0007(9) 1.5102(9) -0.6118(7)
H159 H 1.0306 1.4576 -0.6097
H160 H 1.0387 1.5545 -0.6115
H161 H 0.9850 1.5371 -0.6618
C122 C 0.6460(7) 1.2104(8) -0.1912(8)
H162 H 0.6396 1.2234 -0.1463
C123 C 0.5705(7) 1.1848(8) -0.2000(7)
C124 C 0.5808(8) 1.1677(8) -0.2688(8)
C125 C 0.6623(8) 1.1661(7) -0.3205(7)
C126 C 0.7355(8) 1.1919(8) -0.3083(7)
H163 H 0.7904 1.1921 -0.3437
C127 C 0.7317(8) 1.2188(7) -0.2433(7)
C128 C 0.4810(9) 1.1705(9) -0.1291(9)
C129 C 0.5002(8) 1.1476(12) -0.0486(8)
H164 H 0.5439 1.1937 -0.0582
H165 H 0.5215 1.0887 -0.0301
H166 H 0.4474 1.1461 -0.0068
C130 C 0.4355(10) 1.2578(11) -0.1530(10)
H167 H 0.4739 1.3084 -0.1627
H168 H 0.3824 1.2492 -0.1087
H169 H 0.4217 1.2705 -0.2028
C131 C 0.4204(9) 1.0955(12) -0.1151(10)
H170 H 0.4485 1.0404 -0.1033
H171 H 0.4039 1.1112 -0.1640
H172 H 0.3688 1.0857 -0.0688
O16 O 0.5072(6) 1.1480(6) -0.2869(6)
C132 C 0.4571(9) 1.2221(8) -0.3211(9)
H173 H 0.4073 1.1981 -0.3274
H174 H 0.4936 1.2671 -0.3745
H175 H 0.4374 1.2502 -0.2842
C133 C 0.6734(8) 1.1337(9) -0.3895(8)
C134 C 0.7683(8) 1.1207(9) -0.4257(8)
H176 H 0.8052 1.1775 -0.4486
H177 H 0.7729 1.1023 -0.4688
H178 H 0.7868 1.0741 -0.3826
C135 C 0.6451(9) 1.2034(9) -0.4601(7)
H179 H 0.5852 1.2126 -0.4387
H180 H 0.6501 1.1812 -0.5009
H181 H 0.6821 1.2606 -0.4854
C136 C 0.6221(9) 1.0383(9) -0.3527(9)
H182 H 0.5613 1.0403 -0.3263
H183 H 0.6457 0.9942 -0.3124
H184 H 0.6272 1.0208 -0.3964
C141 C 0.9553(9) 1.0384(10) -0.1168(8)
H195 H 0.9281 1.0799 -0.1552
H196 H 0.9632 0.9838 -0.1249
H197 H 1.0114 1.0674 -0.1263
O19 O 0.9002(6) 1.0143(6) -0.0329(6)
C142 C 0.9450(9) 0.9577(10) 0.0198(9)
H198 H 0.9980 0.9915 0.0129
H199 H 0.9610 0.9055 0.0084
C143 C 0.8799(11) 0.9260(11) 0.1082(9)
H200 H 0.9097 0.8954 0.1489
H201 H 0.8570 0.9788 0.1154
O20 O 0.8102(6) 0.8651(5) 0.1206(6)
C144 C 0.7471(12) 0.8340(10) 0.1952(9)
H202 H 0.7016 0.7953 0.1972
H203 H 0.7228 0.8851 0.2035
H204 H 0.7719 0.7994 0.2383
C149 C 0.8106(10) 0.4458(9) 0.0855(7)
H215 H 0.7546 0.4675 0.0847
H216 H 0.8267 0.4522 0.1283
H217 H 0.8069 0.3823 0.0966
O23 O 0.8771(6) 0.4998(6) 0.0046(6)
C150 C 0.9616(8) 0.4739(9) -0.0011(8)
H218 H 0.9595 0.4080 0.0179
H219 H 0.9849 0.4899 0.0338
C151 C 1.0173(9) 0.5208(8) -0.0867(9)
H220 H 1.0121 0.5860 -0.1078
H221 H 1.0780 0.5126 -0.0896
O24 O 0.9937(6) 0.4860(6) -0.1383(6)
C152 C 1.0401(9) 0.5303(10) -0.2243(9)
H222 H 1.0212 0.5000 -0.2518
H223 H 1.1019 0.5278 -0.2330
H224 H 1.0288 0.5933 -0.2468
C157 C 0.8410(10) 0.5535(9) -0.3119(8)
H235 H 0.8872 0.5943 -0.3173
H236 H 0.8167 0.5840 -0.3562
H237 H 0.8643 0.4995 -0.3147
O27 O 0.7708(7) 0.5267(6) -0.2301(6)
C158 C 0.7012(8) 0.4669(8) -0.2197(9)
H238 H 0.7239 0.4151 -0.2289
H239 H 0.6708 0.4991 -0.2595
C159 C 0.6411(8) 0.4351(9) -0.1354(9)
H240 H 0.6231 0.4876 -0.1253
H241 H 0.5890 0.4006 -0.1293
O28 O 0.6809(6) 0.3783(6) -0.0754(6)
C160 C 0.6306(8) 0.3447(9) 0.0096(8)
H242 H 0.6653 0.3102 0.0434
H243 H 0.5795 0.3057 0.0214
H244 H 0.6126 0.3954 0.0217
C165 C 0.7651(8) 0.9391(8) -0.1941(8)
H255 H 0.8234 0.9240 -0.1947
H256 H 0.7645 1.0043 -0.2137
H257 H 0.7472 0.9201 -0.2296
O31 O 0.7077(5) 0.8944(5) -0.1136(5)
C166 C 0.6206(8) 0.9175(8) -0.1117(8)
H258 H 0.6002 0.8977 -0.1461
H259 H 0.6198 0.9834 -0.1324
C167 C 0.5595(9) 0.8659(10) -0.0170(7)
H260 H 0.4984 0.8744 -0.0123
H261 H 0.5648 0.8006 0.0057
O32 O 0.5884(5) 0.9042(6) 0.0232(6)
C168 C 0.5365(10) 0.8596(12) 0.1097(10)
H262 H 0.5576 0.8844 0.1399
H263 H 0.5410 0.7949 0.1315
H264 H 0.4762 0.8697 0.1154
Na2_2 Na 0.8338(3) 1.4749(3) -0.1145(3)
O11_2 O 0.8379(5) 0.3217(5) -0.0146(5)
O12_2 O 0.8791(5) 0.3631(5) -0.1718(5)
C137 C -0.0441(7) 0.9667(8) 0.2779(8)
H185 H -0.0641 1.0121 0.2970
H186 H -0.0852 0.9120 0.3101
H187 H -0.0396 0.9900 0.2203
O17 O 0.0409(4) 0.9458(4) 0.2873(4)
C138 C 0.0581(13) 0.8864(14) 0.2517(14)
H188 H 0.0721 0.9165 0.1917
H189 H 0.0126 0.8350 0.2768
C139 C 0.1402(17) 0.861(2) 0.2806(16)
H190 H 0.1465 0.8922 0.3132
H191 H 0.1375 0.7955 0.3131
O18 O 0.2046(13) 0.8915(15) 0.2092(14)
C140 C 0.2562(11) 0.9262(11) 0.1330(10)
H192 H 0.3007 0.9704 0.1250
H193 H 0.2227 0.9558 0.0962
H194 H 0.2833 0.8782 0.1211
C145 C 0.5971(10) 0.3191(10) 0.2287(9)
H205 H 0.5770 0.3684 0.1889
H206 H 0.6204 0.2770 0.2064
H207 H 0.6422 0.3436 0.2405
O21 O 0.5238(14) 0.2710(15) 0.3053(13)
C146 C 0.5243(12) 0.2090(14) 0.3796(12)
H208 H 0.5697 0.2259 0.3967
H209 H 0.5293 0.1479 0.3828
C147 C 0.432(4) 0.219(4) 0.428(3)
H210 H 0.4324 0.2738 0.4359
H211 H 0.3907 0.2203 0.3994
O22 O 0.412(2) 0.136(2) 0.5074(19)
C148 C 0.4796(13) 0.0781(12) 0.5018(12)
H212 H 0.4597 0.0175 0.5467
H213 H 0.5311 0.1027 0.5053
H214 H 0.4936 0.0750 0.4496
C153 C 0.6094(14) 0.4401(14) 0.6237(14)
H225 H 0.6391 0.3901 0.6180
H226 H 0.5873 0.4267 0.6816
H227 H 0.6498 0.4954 0.5936
O25 O 0.5339(19) 0.453(3) 0.589(3)
C154 C 0.5049(12) 0.5209(13) 0.6120(13)
H228 H 0.5338 0.5799 0.5669
H229 H 0.5212 0.5125 0.6602
C155 C 0.4123(10) 0.5217(10) 0.6314(10)
H230 H 0.3963 0.5677 0.6515
H231 H 0.3987 0.5420 0.5799
O26 O 0.3592(5) 0.4419(5) 0.6880(5)
C156 C 0.3084(12) 0.4423(12) 0.7650(10)
H232 H 0.2752 0.3831 0.8021
H233 H 0.2689 0.4882 0.7546
H234 H 0.3469 0.4558 0.7899
C161 C 0.9837(13) 0.0780(13) 0.6603(11)
H245 H 0.9952 0.0230 0.7019
H246 H 0.9321 0.0652 0.6493
H247 H 0.9744 0.1243 0.6799
O29 O 1.0571(8) 0.1101(8) 0.5854(7)
C162 C 1.0229(7) 0.1870(7) 0.5358(6)
H248 H 1.0047 0.2267 0.5628
H249 H 0.9728 0.1676 0.5257
C163 C 1.1046(9) 0.2404(10) 0.4478(8)
H250 H 1.0804 0.2802 0.4051
H251 H 1.1426 0.2792 0.4554
O30 O 1.1485(9) 0.1910(9) 0.4232(9)
C164 C 1.2214(19) 0.254(2) 0.3564(18)
H252 H 1.2643 0.2198 0.3363
H253 H 1.2476 0.2883 0.3763
H254 H 1.2012 0.2948 0.3120
loop_
_geom_bond_atom_site_label_1
_geom_bond_atom_site_label_2
_geom_bond_site_symmetry_1
_geom_bond_site_symmetry_2
Na1 O3 1_555 1_555
Na2 O1 1_555 1_555
C1 C2 1_555 1_555
C2 C3 1_555 1_555
C3 C4 1_555 1_555
C4 C5 1_555 1_555
C5 C6 1_555 1_555
C6 C1 1_555 1_555
O1 C1 1_555 1_555
O2 Na2 1_555 1_555
O3 C4 1_555 1_555
O4 Na1 1_555 1_555
C7 C2 1_555 1_555
C8 C7 1_555 1_555
C9 C8 1_555 1_555
H1 C9 1_555 1_555
C10 C9 1_555 1_555
C11 C10 1_555 1_555
C12 C11 1_555 1_555
C13 C8 1_555 1_555
H2 C13 1_555 1_555
C14 C12 1_555 1_555
C15 C14 1_555 1_555
H3 C15 1_555 1_555
H4 C15 1_555 1_555
H5 C15 1_555 1_555
C16 C14 1_555 1_555
H6 C16 1_555 1_555
H7 C16 1_555 1_555
H8 C16 1_555 1_555
C17 C14 1_555 1_555
H9 C17 1_555 1_555
H10 C17 1_555 1_555
H11 C17 1_555 1_555
O5 C11 1_555 1_555
C18 O5 1_555 1_555
H12 C18 1_555 1_555
H13 C18 1_555 1_555
H14 C18 1_555 1_555
C19 C10 1_555 1_555
C20 C19 1_555 1_555
H15 C20 1_555 1_555
H16 C20 1_555 1_555
H17 C20 1_555 1_555
C21 C19 1_555 1_555
H18 C21 1_555 1_555
H19 C21 1_555 1_555
H20 C21 1_555 1_555
C22 C19 1_555 1_555
H21 C22 1_555 1_555
H22 C22 1_555 1_555
H23 C22 1_555 1_555
C23 C7 1_555 1_555
C24 C23 1_555 1_555
H24 C24 1_555 1_555
C25 C24 1_555 1_555
C26 C25 1_555 1_555
C27 C26 1_555 1_555
C28 C23 1_555 1_555
H25 C28 1_555 1_555
C29 C25 1_555 1_555
C30 C29 1_555 1_555
H26 C30 1_555 1_555
H27 C30 1_555 1_555
H28 C30 1_555 1_555
C31 C29 1_555 1_555
H29 C31 1_555 1_555
H30 C31 1_555 1_555
H31 C31 1_555 1_555
C32 C29 1_555 1_555
H32 C32 1_555 1_555
H33 C32 1_555 1_555
H34 C32 1_555 1_555
O6 C26 1_555 1_555
C33 O6 1_555 1_555
H35 C33 1_555 1_555
H36 C33 1_555 1_555
H37 C33 1_555 1_555
C34 C27 1_555 1_555
C35 C34 1_555 1_555
H38 C35 1_555 1_555
H39 C35 1_555 1_555
H40 C35 1_555 1_555
C36 C34 1_555 1_555
H41 C36 1_555 1_555
H42 C36 1_555 1_555
H43 C36 1_555 1_555
C37 C34 1_555 1_555
H44 C37 1_555 1_555
H45 C37 1_555 1_555
H46 C37 1_555 1_555
C38 C5 1_555 1_555
C39 C38 1_555 1_555
C40 C39 1_555 1_555
H47 C40 1_555 1_555
C41 C40 1_555 1_555
C42 C41 1_555 1_555
C43 C42 1_555 1_555
C44 C39 1_555 1_555
H48 C44 1_555 1_555
C45 C41 1_555 1_555
C46 C45 1_555 1_555
H49 C46 1_555 1_555
H50 C46 1_555 1_555
H51 C46 1_555 1_555
C47 C45 1_555 1_555
H52 C47 1_555 1_555
H53 C47 1_555 1_555
H54 C47 1_555 1_555
C48 C45 1_555 1_555
H55 C48 1_555 1_555
H56 C48 1_555 1_555
H57 C48 1_555 1_555
O7 C42 1_555 1_555
C49 O7 1_555 1_555
H58 C49 1_555 1_555
H59 C49 1_555 1_555
H60 C49 1_555 1_555
C50 C43 1_555 1_555
C51 C50 1_555 1_555
H61 C51 1_555 1_555
H62 C51 1_555 1_555
H63 C51 1_555 1_555
C52 C50 1_555 1_555
H64 C52 1_555 1_555
H65 C52 1_555 1_555
H66 C52 1_555 1_555
C53 C50 1_555 1_555
H67 C53 1_555 1_555
H68 C53 1_555 1_555
H69 C53 1_555 1_555
C54 C38 1_555 1_555
C55 C54 1_555 1_555
H70 C55 1_555 1_555
C56 C55 1_555 1_555
C57 C56 1_555 1_555
C58 C57 1_555 1_555
C59 C54 1_555 1_555
H71 C59 1_555 1_555
C60 C56 1_555 1_555
C61 C60 1_555 1_555
H72 C61 1_555 1_555
H73 C61 1_555 1_555
H74 C61 1_555 1_555
C62 C60 1_555 1_555
H75 C62 1_555 1_555
H76 C62 1_555 1_555
H77 C62 1_555 1_555
C63 C60 1_555 1_555
H78 C63 1_555 1_555
H79 C63 1_555 1_555
H80 C63 1_555 1_555
O8 C57 1_555 1_555
C64 O8 1_555 1_555
H81 C64 1_555 1_555
H82 C64 1_555 1_555
H83 C64 1_555 1_555
C65 C58 1_555 1_555
C66 C65 1_555 1_555
H84 C66 1_555 1_555
H85 C66 1_555 1_555
H86 C66 1_555 1_555
C67 C65 1_555 1_555
H87 C67 1_555 1_555
H88 C67 1_555 1_555
H89 C67 1_555 1_555
C68 C65 1_555 1_555
H90 C68 1_555 1_555
H91 C68 1_555 1_555
H92 C68 1_555 1_555
C69 C70 1_555 1_555
C70 C71 1_555 1_555
C71 C72 1_555 1_555
C72 C73 1_555 1_555
C73 C74 1_555 1_555
C74 C69 1_555 1_555
O9 Na1 1_555 1_555
O10 Na1 1_555 1_555
O11 C71 1_555 1_555
O12 C72 1_555 1_555
C75 C70 1_555 1_555
C76 C75 1_555 1_555
C77 C76 1_555 1_555
H93 C77 1_555 1_555
C78 C77 1_555 1_555
C79 C78 1_555 1_555
C80 C79 1_555 1_555
C81 C76 1_555 1_555
H94 C81 1_555 1_555
C82 C78 1_555 1_555
C83 C82 1_555 1_555
H95 C83 1_555 1_555
H96 C83 1_555 1_555
H97 C83 1_555 1_555
C84 C82 1_555 1_555
H98 C84 1_555 1_555
H99 C84 1_555 1_555
H100 C84 1_555 1_555
C85 C82 1_555 1_555
H101 C85 1_555 1_555
H102 C85 1_555 1_555
H103 C85 1_555 1_555
O13 C79 1_555 1_555
C86 O13 1_555 1_555
H104 C86 1_555 1_555
H105 C86 1_555 1_555
H106 C86 1_555 1_555
C87 C80 1_555 1_555
C88 C87 1_555 1_555
H107 C88 1_555 1_555
H108 C88 1_555 1_555
H109 C88 1_555 1_555
C89 C87 1_555 1_555
H110 C89 1_555 1_555
H111 C89 1_555 1_555
H112 C89 1_555 1_555
C90 C87 1_555 1_555
H113 C90 1_555 1_555
H114 C90 1_555 1_555
H115 C90 1_555 1_555
C91 C75 1_555 1_555
C92 C91 1_555 1_555
H116 C92 1_555 1_555
C93 C92 1_555 1_555
C94 C93 1_555 1_555
C95 C94 1_555 1_555
C96 C91 1_555 1_555
H117 C96 1_555 1_555
C97 C93 1_555 1_555
C98 C97 1_555 1_555
H118 C98 1_555 1_555
H119 C98 1_555 1_555
H120 C98 1_555 1_555
C99 C97 1_555 1_555
H121 C99 1_555 1_555
H122 C99 1_555 1_555
H123 C99 1_555 1_555
C100 C97 1_555 1_555
H124 C100 1_555 1_555
H125 C100 1_555 1_555
H126 C100 1_555 1_555
O14 C94 1_555 1_555
C101 O14 1_555 1_555
H127 C101 1_555 1_555
H128 C101 1_555 1_555
H129 C101 1_555 1_555
C102 C95 1_555 1_555
C103 C102 1_555 1_555
H130 C103 1_555 1_555
H131 C103 1_555 1_555
H132 C103 1_555 1_555
C104 C102 1_555 1_555
H133 C104 1_555 1_555
H134 C104 1_555 1_555
H135 C104 1_555 1_555
C105 C102 1_555 1_555
H136 C105 1_555 1_555
H137 C105 1_555 1_555
H138 C105 1_555 1_555
C106 C73 1_555 1_555
C107 C106 1_555 1_555
C108 C107 1_555 1_555
H139 C108 1_555 1_555
C109 C108 1_555 1_555
C110 C109 1_555 1_555
C111 C110 1_555 1_555
C112 C107 1_555 1_555
H140 C112 1_555 1_555
C113 C111 1_555 1_555
C114 C113 1_555 1_555
H141 C114 1_555 1_555
H142 C114 1_555 1_555
H143 C114 1_555 1_555
C115 C113 1_555 1_555
H144 C115 1_555 1_555
H145 C115 1_555 1_555
H146 C115 1_555 1_555
C116 C113 1_555 1_555
H147 C116 1_555 1_555
H148 C116 1_555 1_555
H149 C116 1_555 1_555
O15 C110 1_555 1_555
C117 O15 1_555 1_555
H150 C117 1_555 1_555
H151 C117 1_555 1_555
H152 C117 1_555 1_555
C118 C109 1_555 1_555
C119 C118 1_555 1_555
H153 C119 1_555 1_555
H154 C119 1_555 1_555
H155 C119 1_555 1_555
C120 C118 1_555 1_555
H156 C120 1_555 1_555
H157 C120 1_555 1_555
H158 C120 1_555 1_555
C121 C118 1_555 1_555
H159 C121 1_555 1_555
H160 C121 1_555 1_555
H161 C121 1_555 1_555
C122 H162 1_555 1_555
C123 C122 1_555 1_555
C124 C123 1_555 1_555
C125 C124 1_555 1_555
C126 C125 1_555 1_555
H163 C126 1_555 1_555
C127 C106 1_555 1_555
C128 C123 1_555 1_555
C129 C128 1_555 1_555
H164 C129 1_555 1_555
H165 C129 1_555 1_555
H166 C129 1_555 1_555
C130 C128 1_555 1_555
H167 C130 1_555 1_555
H168 C130 1_555 1_555
H169 C130 1_555 1_555
C131 C128 1_555 1_555
H170 C131 1_555 1_555
H171 C131 1_555 1_555
H172 C131 1_555 1_555
O16 C124 1_555 1_555
C132 O16 1_555 1_555
H173 C132 1_555 1_555
H174 C132 1_555 1_555
H175 C132 1_555 1_555
C133 C125 1_555 1_555
C134 C133 1_555 1_555
H176 C134 1_555 1_555
H177 C134 1_555 1_555
H178 C134 1_555 1_555
C135 C133 1_555 1_555
H179 C135 1_555 1_555
H180 C135 1_555 1_555
H181 C135 1_555 1_555
C136 C133 1_555 1_555
H182 C136 1_555 1_555
H183 C136 1_555 1_555
H184 C136 1_555 1_555
C137 H185 1_555 1_555
H186 C137 1_555 1_555
H187 C137 1_555 1_555
O17 C137 1_555 1_555
C138 O17 1_555 1_555
H188 C138 1_555 1_555
H189 C138 1_555 1_555
C139 C138 1_555 1_555
H190 C139 1_555 1_555
H191 C139 1_555 1_555
O18 C139 1_555 1_555
C140 O18 1_555 1_555
H192 C140 1_555 1_555
H193 C140 1_555 1_555
H194 C140 1_555 1_555
C141 H195 1_555 1_555
H196 C141 1_555 1_555
H197 C141 1_555 1_555
O19 Na1 1_555 1_555
C142 O19 1_555 1_555
H198 C142 1_555 1_555
H199 C142 1_555 1_555
C143 C142 1_555 1_555
H200 C143 1_555 1_555
H201 C143 1_555 1_555
O20 Na1 1_555 1_555
C144 O20 1_555 1_555
H202 C144 1_555 1_555
H203 C144 1_555 1_555
H204 C144 1_555 1_555
C145 H205 1_555 1_555
H206 C145 1_555 1_555
H207 C145 1_555 1_555
O21 C145 1_555 1_555
C146 O21 1_555 1_555
H208 C146 1_555 1_555
H209 C146 1_555 1_555
C147 C146 1_555 1_555
H210 C147 1_555 1_555
H211 C147 1_555 1_555
O22 C147 1_555 1_555
C148 O22 1_555 1_555
H212 C148 1_555 1_555
H213 C148 1_555 1_555
H214 C148 1_555 1_555
C149 H215 1_555 1_555
H216 C149 1_555 1_555
H217 C149 1_555 1_555
O23 Na2 1_555 1_555
C150 O23 1_555 1_555
H218 C150 1_555 1_555
H219 C150 1_555 1_555
C151 C150 1_555 1_555
H220 C151 1_555 1_555
H221 C151 1_555 1_555
O24 Na2 1_555 1_555
C152 O24 1_555 1_555
H222 C152 1_555 1_555
H223 C152 1_555 1_555
H224 C152 1_555 1_555
C153 H225 1_555 1_555
H226 C153 1_555 1_555
H227 C153 1_555 1_555
O25 C153 1_555 1_555
C154 O25 1_555 1_555
H228 C154 1_555 1_555
H229 C154 1_555 1_555
C155 C154 1_555 1_555
H230 C155 1_555 1_555
H231 C155 1_555 1_555
O26 C155 1_555 1_555
C156 O26 1_555 1_555
H232 C156 1_555 1_555
H233 C156 1_555 1_555
H234 C156 1_555 1_555
C157 H235 1_555 1_555
H236 C157 1_555 1_555
H237 C157 1_555 1_555
O27 Na2 1_555 1_555
C158 O27 1_555 1_555
H238 C158 1_555 1_555
H239 C158 1_555 1_555
C159 C158 1_555 1_555
H240 C159 1_555 1_555
H241 C159 1_555 1_555
O28 Na2 1_555 1_555
C160 O28 1_555 1_555
H242 C160 1_555 1_555
H243 C160 1_555 1_555
H244 C160 1_555 1_555
C161 H245 1_555 1_555
H246 C161 1_555 1_555
H247 C161 1_555 1_555
O29 C161 1_555 1_555
C162 O29 1_555 1_555
H248 C162 1_555 1_555
H249 C162 1_555 1_555
C163 C162 1_555 1_555
H250 C163 1_555 1_555
H251 C163 1_555 1_555
O30 C163 1_555 1_555
C164 O30 1_555 1_555
H252 C164 1_555 1_555
H253 C164 1_555 1_555
H254 C164 1_555 1_555
C165 H255 1_555 1_555
H256 C165 1_555 1_555
H257 C165 1_555 1_555
O31 Na1 1_555 1_555
C166 O31 1_555 1_555
H258 C166 1_555 1_555
H259 C166 1_555 1_555
C167 C166 1_555 1_555
H260 C167 1_555 1_555
H261 C167 1_555 1_555
O32 Na1 1_555 1_555
C168 O32 1_555 1_555
H262 C168 1_555 1_555
H263 C168 1_555 1_555
H264 C168 1_555 1_555
Na2_2 O11 1_555 1_555
O11_2 Na2 1_555 1_555
O12_2 Na2 1_555 1_555
C3 O4 1_555 1_555
C6 O2 1_555 1_555
C12 C13 1_555 1_555
C27 C28 1_555 1_555
C43 C44 1_555 1_555
C58 C59 1_555 1_555
C69 O10 1_555 1_555
C74 O9 1_555 1_555
O12 Na2_2 1_555 1_555
C80 C81 1_555 1_555
C95 C96 1_555 1_555
C111 C112 1_555 1_555
C122 C127 1_555 1_555
C126 C127 1_555 1_555
C141 O19 1_555 1_555
C143 O20 1_555 1_555
C149 O23 1_555 1_555
C151 O24 1_555 1_555
C157 O27 1_555 1_555
C159 O28 1_555 1_555
C165 O31 1_555 1_555
C167 O32 1_555 1_555

#END
