
#######################################################################
#
#                 Cambridge Crystallographic Data Centre
#                                CCDC 
#
#######################################################################
#
# If this CIF has been generated from an entry in the Cambridge 
# Structural Database, then it will include bibliographic, chemical, 
# crystal, experimental, refinement or atomic coordinate data resulting 
# from the CCDC's data processing and validation procedures.
#
#######################################################################

data_YABBOS
_symmetry_cell_setting           monoclinic
_symmetry_space_group_name_H-M   'P 21/c'
_symmetry_Int_Tables_number      14
_space_group_name_Hall           '-P 2ybc'
loop_
_symmetry_equiv_pos_site_id
_symmetry_equiv_pos_as_xyz
1 x,y,z
2 -x,1/2+y,1/2-z
3 -x,-y,-z
4 x,1/2-y,1/2+z
_cell_length_a                   10.903(2)
_cell_length_b                   7.340(2)
_cell_length_c                   19.435(3)
_cell_angle_alpha                90
_cell_angle_beta                 98.27(1)
_cell_angle_gamma                90
_cell_volume                     1539.17
loop_
_atom_site_label
_atom_site_type_symbol
_atom_site_fract_x
_atom_site_fract_y
_atom_site_fract_z
Cu1 Cu 0.11503(2) 0.08862(4) 0.15035(1)
O1 O -0.0233(2) 0.1485(3) 0.0792(1)
C1 C -0.0278(2) 0.2206(3) 0.0188(1)
O2 O -0.1261(2) 0.2396(3) -0.0204(1)
C2 C 0.0925(3) 0.2815(4) -0.0044(1)
C3 C 0.1872(2) 0.3567(4) 0.0523(2)
N1 N 0.2449(2) 0.2198(3) 0.1039(1)
C4 C 0.3186(2) 0.0827(3) 0.0689(1)
C5 C 0.3332(2) 0.3235(3) 0.1567(1)
N2 N 0.3965(2) -0.0305(3) 0.1184(1)
N3 N 0.4124(2) 0.2055(3) 0.2038(1)
C6 C 0.4811(2) 0.0858(4) 0.1634(2)
C7 C 0.3301(2) -0.1456(4) 0.1602(1)
C8 C 0.3460(3) 0.0976(4) 0.2485(1)
N4 N 0.2593(2) -0.0403(3) 0.2089(1)
C9 C 0.2198(2) -0.1733(4) 0.2593(2)
C10 C 0.1197(3) -0.1011(5) 0.2980(2)
C11 C -0.0058(3) -0.1057(4) 0.2535(2)
O3 O -0.0123(2) -0.0499(3) 0.1904(1)
O4 O -0.0974(2) -0.1647(3) 0.2768(1)
H1 H 0.1283(3) 0.1781(4) -0.0243(1)
H2 H 0.0736(3) 0.3739(4) -0.0393(1)
H3 H 0.1475(2) 0.4476(4) 0.0770(2)
H4 H 0.2520(2) 0.4122(4) 0.0310(2)
H5 H 0.3702(2) 0.1469(3) 0.0410(1)
H6 H 0.2621(2) 0.0055(3) 0.0397(1)
H7 H 0.2860(2) 0.3989(3) 0.1836(1)
H8 H 0.3847(2) 0.3988(3) 0.1324(1)
H9 H 0.5365(2) 0.0114(4) 0.1944(2)
H10 H 0.5279(2) 0.1581(4) 0.1352(2)
H11 H 0.2727(2) -0.2186(4) 0.1299(1)
H12 H 0.3889(2) -0.2234(4) 0.1877(1)
H13 H 0.4054(3) 0.0332(4) 0.2808(1)
H14 H 0.2985(3) 0.1778(4) 0.2734(1)
H15 H 0.1897(2) -0.2811(4) 0.2344(2)
H16 H 0.2905(2) -0.2037(4) 0.2927(2)
H17 H 0.1168(3) -0.1744(5) 0.3386(2)
H18 H 0.1388(3) 0.0226(5) 0.3117(2)
O4A O 0.0974(2) 0.3353(3) 0.2232(1)
Cu1A Cu -0.11503(2) -0.41138(4) 0.34965(1)
O5 O 0.3471(3) 0.7800(4) 0.4619(2)
H19 H 0.3541(3) 0.8697(4) 0.4267(2)
H20 H 0.2771(3) 0.8081(4) 0.4848(2)
O6 O 0.5736(3) 0.8624(4) 0.5746(2)
H21 H 0.6481(3) 0.9219(4) 0.5656(2)
H22 H 0.5711(3) 0.8603(4) 0.6237(2)
O7 O 0.2652(2) 0.4332(4) 0.3771(1)
H23 H 0.2529(2) 0.3523(4) 0.4143(1)
H24 H 0.1862(2) 0.4733(4) 0.3538(1)
loop_
_geom_bond_atom_site_label_1
_geom_bond_atom_site_label_2
_geom_bond_site_symmetry_1
_geom_bond_site_symmetry_2
Cu1 O1 1_555 1_555
O1 C1 1_555 1_555
C1 O2 1_555 1_555
C2 C1 1_555 1_555
C3 C2 1_555 1_555
N1 Cu1 1_555 1_555
C4 N1 1_555 1_555
C5 N1 1_555 1_555
N2 C4 1_555 1_555
N3 C5 1_555 1_555
C6 N2 1_555 1_555
C7 N2 1_555 1_555
C8 N3 1_555 1_555
N4 Cu1 1_555 1_555
C9 N4 1_555 1_555
C10 C9 1_555 1_555
C11 C10 1_555 1_555
O3 Cu1 1_555 1_555
O4 C11 1_555 1_555
O5 H19 1_555 1_555
O6 H21 1_555 1_555
O7 H23 1_555 1_555
H1 C2 1_555 1_555
H2 C2 1_555 1_555
H3 C3 1_555 1_555
H4 C3 1_555 1_555
H5 C4 1_555 1_555
H6 C4 1_555 1_555
H7 C5 1_555 1_555
H8 C5 1_555 1_555
H9 C6 1_555 1_555
H10 C6 1_555 1_555
H11 C7 1_555 1_555
H12 C7 1_555 1_555
H13 C8 1_555 1_555
H14 C8 1_555 1_555
H15 C9 1_555 1_555
H16 C9 1_555 1_555
H17 C10 1_555 1_555
H18 C10 1_555 1_555
H20 O5 1_555 1_555
H22 O6 1_555 1_555
H24 O7 1_555 1_555
O4A Cu1 1_555 1_555
Cu1A O4 1_555 1_555
C3 N1 1_555 1_555
N3 C6 1_555 1_555
C7 N4 1_555 1_555
C8 N4 1_555 1_555
C11 O3 1_555 1_555

#END
