
#######################################################################
#
#                 Cambridge Crystallographic Data Centre
#                                CCDC 
#
#######################################################################
#
# If this CIF has been generated from an entry in the Cambridge 
# Structural Database, then it will include bibliographic, chemical, 
# crystal, experimental, refinement or atomic coordinate data resulting 
# from the CCDC's data processing and validation procedures.
#
#######################################################################

data_YABDIQ
_symmetry_cell_setting           orthorhombic
_symmetry_space_group_name_H-M   'P n a 21'
_symmetry_Int_Tables_number      33
_space_group_name_Hall           'P 2c -2n'
loop_
_symmetry_equiv_pos_site_id
_symmetry_equiv_pos_as_xyz
1 x,y,z
2 -x,-y,1/2+z
3 1/2-x,1/2+y,1/2+z
4 1/2+x,1/2-y,z
_cell_length_a                   14.553(3)
_cell_length_b                   22.849(4)
_cell_length_c                   6.2866(12)
_cell_angle_alpha                90
_cell_angle_beta                 90
_cell_angle_gamma                90
_cell_volume                     2090.43
loop_
_atom_site_label
_atom_site_type_symbol
_atom_site_fract_x
_atom_site_fract_y
_atom_site_fract_z
Ag1 Ag 0.15501(2) 0.102001(14) 0.25761(7)
Ag2 Ag 0.22129(3) 0.354630(14) -0.01839(6)
N1 N 0.2884(2) 0.04203(15) 0.3092(6)
N2 N 0.1287(3) 0.19682(16) 0.3379(7)
N3 N 0.1640(2) 0.29479(14) 0.2437(8)
N4 N 0.1080(2) 0.00962(15) 0.3091(6)
N5 N 0.3315(2) -0.05645(16) 0.3697(6)
N6 N 0.2168(3) 0.15925(13) -0.0278(9)
N8 N 0.1513(3) -0.08759(15) 0.3838(6)
N9 N 0.2503(3) 0.25719(16) -0.1146(7)
C1 C 0.1663(3) 0.23706(18) 0.2070(8)
C2 C 0.2696(3) -0.01417(18) 0.3427(7)
C3 C 0.1703(3) -0.03195(18) 0.3438(7)
C4 C 0.0838(3) 0.2166(2) 0.5063(9)
H1 H 0.0560 0.1896 0.5961
C5 C 0.2988(3) 0.23889(19) -0.2814(9)
H2 H 0.3267 0.2662 -0.3699
C6 C 0.4457(3) 0.0171(2) 0.3260(8)
H3 H 0.5072 0.0280 0.3206
C7 C 0.2134(3) 0.21700(17) 0.0090(9)
C8 C 0.0199(3) -0.00702(19) 0.3056(7)
H4 H -0.0254 0.0211 0.2833
C9 C 0.3084(3) 0.1798(2) -0.3254(8)
H5 H 0.3431 0.1669 -0.4404
C10 C 0.0759(3) 0.2751(2) 0.5555(9)
H6 H 0.0434 0.2882 0.6734
C11 C -0.0058(3) -0.06454(19) 0.3340(7)
H7 H -0.0670 -0.0760 0.3253
C12 C 0.2652(3) 0.1414(2) -0.1940(9)
H8 H 0.2697 0.1015 -0.2217
C13 C 0.0633(3) -0.1044(2) 0.3760(7)
H9 H 0.0485 -0.1435 0.3992
C14 C 0.3771(3) 0.0570(2) 0.2987(7)
H10 H 0.3924 0.0959 0.2721
C15 C 0.4195(3) -0.0406(2) 0.3624(8)
H11 H 0.4647 -0.0688 0.3821
C16 C 0.1196(3) 0.3127(2) 0.4183(8)
H12 H 0.1182 0.3526 0.4482
Ag2B Ag 0.27871(3) -0.145370(14) 0.48161(6)
N5B N 0.1685(2) 0.44355(16) -0.1303(6)
N8B N 0.3487(3) 0.41241(15) -0.1162(6)
O1 O 0.1901(2) 0.00259(14) -0.1968(6)
O3 O 0.3364(2) -0.00305(18) -0.1637(6)
N7 N 0.2601(3) -0.02735(18) -0.1566(7)
O6 O 0.2519(3) -0.08034(15) -0.1162(6)
O2 O 0.4802(2) 0.26096(13) 0.0067(7)
O4 O 0.4774(3) 0.16704(15) 0.0204(7)
N10 N 0.4499(3) 0.2150(2) 0.0904(7)
O5 O 0.3951(3) 0.2175(2) 0.2337(8)
O7 O 0.0832(4) -0.1446(2) -0.1137(8)
H13 H 0.130(4) -0.116(3) -0.118(10)
H14 H 0.088(5) -0.175(2) -0.197(10)
loop_
_geom_bond_atom_site_label_1
_geom_bond_atom_site_label_2
_geom_bond_site_symmetry_1
_geom_bond_site_symmetry_2
Ag1 N1 1_555 1_555
Ag2 N3 1_555 1_555
N1 C2 1_555 1_555
N2 Ag1 1_555 1_555
N3 C1 1_555 1_555
N4 Ag1 1_555 1_555
N5 C2 1_555 1_555
O1 N7 1_555 1_555
O2 N10 1_555 1_555
N6 Ag1 1_555 1_555
O3 N7 1_555 1_555
N7 O6 1_555 1_555
N8 C3 1_555 1_555
N9 Ag2 1_555 1_555
O4 N10 1_555 1_555
C1 N2 1_555 1_555
C2 C3 1_555 1_555
N10 O5 1_555 1_555
C3 N4 1_555 1_555
C4 N2 1_555 1_555
H1 C4 1_555 1_555
C5 N9 1_555 1_555
H2 C5 1_555 1_555
C6 H3 1_555 1_555
C7 N6 1_555 1_555
C8 N4 1_555 1_555
H4 C8 1_555 1_555
C9 C5 1_555 1_555
H5 C9 1_555 1_555
C10 C4 1_555 1_555
H6 C10 1_555 1_555
C11 C8 1_555 1_555
H7 C11 1_555 1_555
C12 N6 1_555 1_555
H8 C12 1_555 1_555
C13 N8 1_555 1_555
H9 C13 1_555 1_555
C14 N1 1_555 1_555
H10 C14 1_555 1_555
C15 N5 1_555 1_555
H11 C15 1_555 1_555
C16 N3 1_555 1_555
H12 C16 1_555 1_555
O7 H13 1_555 1_555
H14 O7 1_555 1_555
Ag2B N5 1_555 1_555
N5B Ag2 1_555 1_555
N8B Ag2 1_555 1_555
N8 Ag2B 1_555 1_555
N9 C7 1_555 1_555
C1 C7 1_555 1_555
C6 C14 1_555 1_555
C6 C15 1_555 1_555
C9 C12 1_555 1_555
C10 C16 1_555 1_555
C11 C13 1_555 1_555

#END
