
#######################################################################
#
#                 Cambridge Crystallographic Data Centre
#                                CCDC 
#
#######################################################################
#
# If this CIF has been generated from an entry in the Cambridge 
# Structural Database, then it will include bibliographic, chemical, 
# crystal, experimental, refinement or atomic coordinate data resulting 
# from the CCDC's data processing and validation procedures.
#
#######################################################################

data_YABKET
_symmetry_cell_setting           monoclinic
_symmetry_space_group_name_H-M   'P 21/m'
_symmetry_Int_Tables_number      11
_space_group_name_Hall           '-P 2yb'
loop_
_symmetry_equiv_pos_site_id
_symmetry_equiv_pos_as_xyz
1 x,y,z
2 -x,1/2+y,-z
3 -x,-y,-z
4 x,1/2-y,z
_cell_length_a                   13.9455(12)
_cell_length_b                   14.4154(12)
_cell_length_c                   14.1448(14)
_cell_angle_alpha                90
_cell_angle_beta                 92.225(5)
_cell_angle_gamma                90
_cell_volume                     2841.38
loop_
_atom_site_label
_atom_site_type_symbol
_atom_site_fract_x
_atom_site_fract_y
_atom_site_fract_z
K1 K 0.0000 0.0000 0.5000
Cl1 Cl 0.0259(2) -0.2500 0.5913(2)
O1 O -0.1638(3) -0.0387(4) 0.5986(3)
O2 O -0.0072(3) 0.0458(4) 0.6918(3)
N9 N -0.1883(4) -0.0420(4) 0.3922(4)
N10 N -0.5084(4) -0.0198(5) 0.2040(5)
C18 C -0.2443(5) 0.0394(5) 0.3626(5)
H15 H -0.2593 0.0743 0.4188
H16 H -0.2041 0.0785 0.3249
C19 C -0.1723(6) 0.0032(7) 0.6883(5)
H17 H -0.1906 0.0677 0.6806
H18 H -0.2216 -0.0281 0.7229
C20 C -0.0777(5) -0.0035(6) 0.7421(5)
H19 H -0.0831 0.0229 0.8047
H20 H -0.0589 -0.0680 0.7490
C21 C -0.4229(5) 0.0081(7) 0.3509(6)
H21 H -0.4248 0.0121 0.4164
C22 C -0.4264(6) -0.0065(6) 0.1613(6)
H22 H -0.4270 -0.0102 0.0956
C23 C 0.0831(5) 0.0479(6) 0.7444(5)
H23 H 0.1047 -0.0149 0.7575
H24 H 0.0757 0.0795 0.8042
C24 C -0.3399(5) 0.0126(6) 0.2088(6)
H25 H -0.2841 0.0196 0.1757
C25 C -0.2385(6) -0.1002(6) 0.4592(5)
H26 H -0.3004 -0.1174 0.4307
H27 H -0.2019 -0.1567 0.4697
C26 C -0.2541(5) -0.0557(7) 0.5526(6)
H28 H -0.2920 -0.0963 0.5911
H29 H -0.2887 0.0022 0.5434
C27 C -0.3378(5) 0.0213(5) 0.3060(5)
C28 C -0.5053(5) -0.0109(6) 0.2969(7)
H30 H -0.5623 -0.0180 0.3281
C29 C 0.1553(5) 0.0977(5) 0.6875(5)
H31 H 0.1271 0.1548 0.6631
H32 H 0.2102 0.1140 0.7284
O3 O -0.0621(14) -0.2500 0.5549(14)
O4 O 0.0402(11) -0.2500 0.6859(9)
O5 O 0.0688(7) -0.1702(8) 0.5560(8)
K1A K 0.0000 -0.5000 0.5000
O1B O 0.1638(3) 0.0387(4) 0.4014(3)
O2B O 0.0072(3) -0.0458(4) 0.3082(3)
N9B N 0.1883(4) 0.0420(4) 0.6078(4)
N10B N 0.5084(4) 0.0198(5) 0.7960(5)
C18B C 0.2443(5) -0.0394(5) 0.6374(5)
H15B H 0.2593 -0.0743 0.5812
H16B H 0.2041 -0.0785 0.6751
C19B C 0.1723(6) -0.0032(7) 0.3117(5)
H17B H 0.1906 -0.0677 0.3194
H18B H 0.2216 0.0281 0.2771
C20B C 0.0777(5) 0.0035(6) 0.2579(5)
H19B H 0.0831 -0.0229 0.1953
H20B H 0.0589 0.0680 0.2510
C21B C 0.4229(5) -0.0081(7) 0.6491(6)
H21B H 0.4248 -0.0121 0.5836
C22B C 0.4264(6) 0.0065(6) 0.8387(6)
H22B H 0.4270 0.0102 0.9044
C23B C -0.0831(5) -0.0479(6) 0.2556(5)
H23B H -0.1047 0.0149 0.2425
H24B H -0.0757 -0.0795 0.1958
C24B C 0.3399(5) -0.0126(6) 0.7912(6)
H25B H 0.2841 -0.0196 0.8243
C25B C 0.2385(6) 0.1002(6) 0.5408(5)
H26B H 0.3004 0.1174 0.5693
H27B H 0.2019 0.1567 0.5303
C26B C 0.2541(5) 0.0557(7) 0.4474(6)
H28B H 0.2920 0.0963 0.4089
H29B H 0.2887 -0.0022 0.4566
C27B C 0.3378(5) -0.0213(5) 0.6940(5)
C28B C 0.5053(5) 0.0109(6) 0.7031(7)
H30B H 0.5623 0.0180 0.6719
C29B C -0.1553(5) -0.0977(5) 0.3125(5)
H31B H -0.1271 -0.1548 0.3369
H32B H -0.2102 -0.1140 0.2716
O5C O 0.0688(7) -0.3298(8) 0.5560(8)
O5B O -0.0688(7) 0.1702(8) 0.4440(8)
Se1 Se 1.18839(9) 0.2500 0.95323(11)
C30 C 1.0791(7) 0.2500 0.8913(7)
N12 N 1.0055(7) 0.2500 0.8491(7)
Se2 Se 0.43673(12) 0.2500 0.41854(13)
N11 N 0.6395(3) 0.2500 0.3803(12)
C31 C 0.5603(3) 0.2500 0.3975(13)
O6 O 0.7652(6) 0.2500 1.2340(6)
Fe1 Fe 0.70394(9) 0.2500 0.90718(10)
N1 N 0.5862(6) 0.2500 0.8332(6)
C1 C 0.6878(8) 0.2500 0.7062(8)
N2 N 0.8199(5) 0.2500 0.9852(5)
N3 N 0.6113(5) 0.2500 1.0073(6)
N4 N 0.6129(6) 0.2500 1.1022(6)
H1 H 0.6642 0.2500 1.1380
N5 N 0.7528(6) 0.2500 0.7785(6)
N6 N 0.7250(4) 0.3840(5) 0.9224(4)
N7 N 0.6809(4) 0.4629(5) 0.8960(4)
H2 H 0.6287 0.4660 0.8617
C2 C 0.9812(8) 0.2500 1.1001(8)
H3 H 1.0364 0.2500 1.1391
N8 N 0.8378(6) 0.2500 0.7376(6)
H4 H 0.8924 0.2500 0.7680
C3 C 0.8031(5) 0.4088(6) 0.9758(5)
C4 C 0.5025(7) 0.2500 0.8766(8)
C5 C 0.8587(5) 0.3311(7) 1.0126(5)
C6 C 0.5178(6) 0.2500 0.9792(8)
C7 C 0.5229(8) 0.2500 1.1336(9)
H5 H 0.5059 0.2500 1.1966
C8 C 0.8081(5) 0.5056(7) 0.9821(6)
H6 H 0.8546 0.5411 1.0141
C9 C 0.8267(10) 0.2500 0.6434(8)
H7 H 0.8756 0.2500 0.6006
C10 C 0.5040(9) 0.2500 0.6823(9)
H8 H 0.5050 0.2500 0.6166
C11 C 0.5887(8) 0.2500 0.7360(8)
C12 C 0.7297(9) 0.2500 0.6212(8)
H9 H 0.6997 0.2500 0.5613
C13 C 0.4170(8) 0.2500 0.8225(11)
H10 H 0.3587 0.2500 0.8522
C14 C 0.9414(5) 0.3332(8) 1.0719(5)
H11 H 0.9685 0.3892 1.0918
C15 C 0.4620(8) 0.2500 1.0575(9)
H12 H 0.3953 0.2500 1.0576
C16 C 0.7295(6) 0.5364(7) 0.9307(6)
H13 H 0.7124 0.5982 0.9213
C17 C 0.4182(8) 0.2500 0.7267(10)
H14 H 0.3607 0.2500 0.6911
N6C N 0.7250(4) 0.1160(5) 0.9224(4)
N7C N 0.6809(4) 0.0371(5) 0.8960(4)
H2C H 0.6287 0.0340 0.8617
C3C C 0.8031(5) 0.0912(6) 0.9758(5)
C5C C 0.8587(5) 0.1689(7) 1.0126(5)
C8C C 0.8081(5) -0.0056(7) 0.9821(6)
H6C H 0.8546 -0.0411 1.0141
C14C C 0.9414(5) 0.1668(8) 1.0719(5)
H11C H 0.9685 0.1108 1.0918
C16C C 0.7295(6) -0.0364(7) 0.9307(6)
H13C H 0.7124 -0.0982 0.9213
Cl2? Cl 0.5137(7) 0.2500 0.4213(7)
O7? O 0.600(3) 0.2500 0.380(4)
O8? O 0.503(2) 0.1684(16) 0.4774(16)
O9? O 0.454(3) 0.209(3) 0.338(3)
C32? C 0.2214(11) 0.2500 0.2468(11)
O10? O 0.3088(9) 0.2078(13) 0.2201(9)
loop_
_geom_bond_atom_site_label_1
_geom_bond_atom_site_label_2
_geom_bond_site_symmetry_1
_geom_bond_site_symmetry_2
Fe1 N1 1_555 1_555
N1 C4 1_555 1_555
C1 N5 1_555 1_555
N2 Fe1 1_555 1_555
N3 Fe1 1_555 1_555
N4 N3 1_555 1_555
H1 N4 1_555 1_555
N5 Fe1 1_555 1_555
N6 Fe1 1_555 1_555
N7 N6 1_555 1_555
H2 N7 1_555 1_555
C2 H3 1_555 1_555
N8 N5 1_555 1_555
H4 N8 1_555 1_555
C3 N6 1_555 1_555
C4 C6 1_555 1_555
C5 N2 1_555 1_555
C6 N3 1_555 1_555
C7 N4 1_555 1_555
H5 C7 1_555 1_555
C8 C3 1_555 1_555
H6 C8 1_555 1_555
C9 N8 1_555 1_555
H7 C9 1_555 1_555
C10 H8 1_555 1_555
C11 N1 1_555 1_555
C12 C1 1_555 1_555
H9 C12 1_555 1_555
C13 C4 1_555 1_555
H10 C13 1_555 1_555
C14 C2 1_555 1_555
H11 C14 1_555 1_555
C15 C6 1_555 1_555
H12 C15 1_555 1_555
C16 N7 1_555 1_555
H13 C16 1_555 1_555
C17 C10 1_555 1_555
H14 C17 1_555 1_555
K1 O1 1_555 1_555
Cl1 O3 1_555 1_555
O1 C19 1_555 1_555
O2 K1 1_555 1_555
N9 K1 1_555 1_555
N10 C22 1_555 1_555
C18 N9 1_555 1_555
H15 C18 1_555 1_555
H16 C18 1_555 1_555
C19 H17 1_555 1_555
H18 C19 1_555 1_555
C20 O2 1_555 1_555
H19 C20 1_555 1_555
H20 C20 1_555 1_555
C21 H21 1_555 1_555
C22 H22 1_555 1_555
C23 O2 1_555 1_555
H23 C23 1_555 1_555
H24 C23 1_555 1_555
C24 C22 1_555 1_555
H25 C24 1_555 1_555
C25 N9 1_555 1_555
H26 C25 1_555 1_555
H27 C25 1_555 1_555
C26 O1 1_555 1_555
H28 C26 1_555 1_555
H29 C26 1_555 1_555
C27 C18 1_555 1_555
C28 N10 1_555 1_555
H30 C28 1_555 1_555
C29 C23 1_555 1_555
H31 C29 1_555 1_555
H32 C29 1_555 1_555
O4 Cl1 1_555 1_555
O5 K1 1_555 1_555
Se1 C30 1_555 1_555
Se2 C31 1_555 1_555
C30 N12 1_555 1_555
N11 C31 1_555 1_555
N6C Fe1 1_555 1_555
N7C N6C 1_555 1_555
H2C N7C 1_555 1_555
C3C N6C 1_555 1_555
C5C N2 1_555 1_555
C8C C3C 1_555 1_555
H6C C8C 1_555 1_555
C14C C2 1_555 1_555
H11C C14C 1_555 1_555
C16C N7C 1_555 1_555
H13C C16C 1_555 1_555
K1A O5C 1_555 1_555
O1B K1 1_555 1_555
O2B K1 1_555 1_555
N9B K1 1_555 1_555
N10B C22B 1_555 1_555
C18B N9B 1_555 1_555
H15B C18B 1_555 1_555
H16B C18B 1_555 1_555
C19B O1B 1_555 1_555
H17B C19B 1_555 1_555
H18B C19B 1_555 1_555
C20B O2B 1_555 1_555
H19B C20B 1_555 1_555
H20B C20B 1_555 1_555
C21B H21B 1_555 1_555
C22B H22B 1_555 1_555
C23B O2B 1_555 1_555
H23B C23B 1_555 1_555
H24B C23B 1_555 1_555
C24B C22B 1_555 1_555
H25B C24B 1_555 1_555
C25B N9B 1_555 1_555
H26B C25B 1_555 1_555
H27B C25B 1_555 1_555
C26B O1B 1_555 1_555
H28B C26B 1_555 1_555
H29B C26B 1_555 1_555
C27B C18B 1_555 1_555
C28B N10B 1_555 1_555
H30B C28B 1_555 1_555
C29B N9 1_555 1_555
H31B C29B 1_555 1_555
H32B C29B 1_555 1_555
O5C Cl1 1_555 1_555
O5B K1 1_555 1_555
C1 C11 1_555 1_555
C3 C5 1_555 1_555
C5 C14 1_555 1_555
C7 C15 1_555 1_555
C8 C16 1_555 1_555
C9 C12 1_555 1_555
C10 C11 1_555 1_555
C13 C17 1_555 1_555
Cl1 O5 1_555 1_555
C19 C20 1_555 1_555
C21 C27 1_555 1_555
C21 C28 1_555 1_555
C24 C27 1_555 1_555
C25 C26 1_555 1_555
C29 N9B 1_555 1_555
C3C C5C 1_555 1_555
C5C C14C 1_555 1_555
C8C C16C 1_555 1_555
C19B C20B 1_555 1_555
C21B C27B 1_555 1_555
C21B C28B 1_555 1_555
C23B C29B 1_555 1_555
C24B C27B 1_555 1_555
C25B C26B 1_555 1_555

#END
