
#######################################################################
#
#                 Cambridge Crystallographic Data Centre
#                                CCDC 
#
#######################################################################
#
# If this CIF has been generated from an entry in the Cambridge 
# Structural Database, then it will include bibliographic, chemical, 
# crystal, experimental, refinement or atomic coordinate data resulting 
# from the CCDC's data processing and validation procedures.
#
#######################################################################

data_YABMOF
_symmetry_cell_setting           monoclinic
_symmetry_space_group_name_H-M   'C 2/c'
_symmetry_Int_Tables_number      15
_space_group_name_Hall           '-C 2yn'
loop_
_symmetry_equiv_pos_site_id
_symmetry_equiv_pos_as_xyz
1 x,y,z
2 -x,y,1/2-z
3 1/2+x,1/2+y,z
4 1/2-x,1/2+y,1/2-z
5 -x,-y,-z
6 x,-y,1/2+z
7 1/2-x,1/2-y,-z
8 1/2+x,1/2-y,1/2+z
_cell_length_a                   22.920(5)
_cell_length_b                   10.314(2)
_cell_length_c                   6.6980(13)
_cell_angle_alpha                90
_cell_angle_beta                 99.83(3)
_cell_angle_gamma                90
_cell_volume                     1560.14
loop_
_atom_site_label
_atom_site_type_symbol
_atom_site_fract_x
_atom_site_fract_y
_atom_site_fract_z
Mn1 Mn 0.0000 0.93449(4) 0.2500
N1 N 0.07495(8) 0.77937(17) 0.2928(2)
N2 N 0.13133(8) 0.9000(2) 0.7947(3)
N3 N 0.18160(8) 0.8233(2) 0.8369(3)
H1 H 0.2042 0.8377 0.9511
C1 C 0.11267(9) 0.7905(2) 0.4718(3)
C2 C 0.16363(9) 0.7161(2) 0.5203(3)
C3 C 0.17848(10) 0.6298(2) 0.3767(3)
H2 H 0.2131 0.5811 0.4032
C4 C 0.14068(11) 0.6189(2) 0.1958(3)
H3 H 0.1495 0.5623 0.0970
C5 C 0.08863(10) 0.6929(2) 0.1591(3)
C6 C 0.04518(12) 0.6757(3) -0.0332(3)
H4 H 0.0124 0.7336 -0.0334
H5 H 0.0311 0.5878 -0.0423
H6 H 0.0642 0.6946 -0.1469
C7 C 0.09738(9) 0.8823(2) 0.6194(3)
C8 C 0.19955(9) 0.7293(2) 0.7221(3)
O1 O 0.04702(7) 0.94404(15) 0.5733(2)
O2 O 0.24279(7) 0.65786(18) 0.7827(2)
Mn1D Mn 0.0000 1.06551(4) 0.7500
Mn1D_2 Mn 0.0000 1.06551(4) -0.2500
N1E N 0.07495(8) 1.22063(17) -0.2072(2)
N1A N -0.07495(8) 0.77937(17) 0.2072(2)
N2E N 0.13133(8) 1.1000(2) 0.2947(3)
N3E N 0.18160(8) 1.1767(2) 0.3369(3)
H1E H 0.2042 1.1623 0.4511
C1E C 0.11267(9) 1.2095(2) -0.0282(3)
C2E C 0.16363(9) 1.2839(2) 0.0203(3)
C3E C 0.17848(10) 1.3702(2) -0.1233(3)
H2E H 0.2131 1.4189 -0.0968
C4E C 0.14068(11) 1.3811(2) -0.3042(3)
H3E H 0.1495 1.4377 -0.4030
C5E C 0.08863(10) 1.3071(2) -0.3409(3)
C6E C 0.04518(12) 1.3243(3) -0.5332(3)
H4E H 0.0124 1.2664 -0.5334
H5E H 0.0311 1.4122 -0.5423
H6E H 0.0642 1.3054 -0.6469
C7E C 0.09738(9) 1.1177(2) 0.1194(3)
C8E C 0.19955(9) 1.2707(2) 0.2221(3)
O1E O 0.04702(7) 1.05596(15) 0.0733(2)
O1D O -0.04702(7) 1.05596(15) 0.4267(2)
O1A O -0.04702(7) 0.94404(15) -0.0733(2)
O2E O 0.24279(7) 1.34214(18) 0.2827(2)
loop_
_geom_bond_atom_site_label_1
_geom_bond_atom_site_label_2
_geom_bond_site_symmetry_1
_geom_bond_site_symmetry_2
Mn1 N1 1_555 1_555
N1 C1 1_555 1_555
N2 N3 1_555 1_555
N3 H1 1_555 1_555
C1 C2 1_555 1_555
C2 C3 1_555 1_555
C3 H2 1_555 1_555
C4 C3 1_555 1_555
H3 C4 1_555 1_555
C5 N1 1_555 1_555
C6 C5 1_555 1_555
H4 C6 1_555 1_555
H5 C6 1_555 1_555
H6 C6 1_555 1_555
C7 N2 1_555 1_555
C8 N3 1_555 1_555
O1 Mn1 1_555 1_555
O2 C8 1_555 1_555
Mn1D O1 1_555 1_555
Mn1D_2 N1E 1_555 1_555
N1E C1E 1_555 1_555
N1A Mn1 1_555 1_555
N2E N3E 1_555 1_555
N3E H1E 1_555 1_555
C1E C2E 1_555 1_555
C2E C3E 1_555 1_555
C3E H2E 1_555 1_555
C4E C3E 1_555 1_555
H3E C4E 1_555 1_555
C5E N1E 1_555 1_555
C6E C5E 1_555 1_555
H4E C6E 1_555 1_555
H5E C6E 1_555 1_555
H6E C6E 1_555 1_555
C7E N2E 1_555 1_555
C8E N3E 1_555 1_555
O1E Mn1 1_555 1_555
O1D Mn1 1_555 1_555
O1A Mn1 1_555 1_555
O2E C8E 1_555 1_555
C1 C7 1_555 1_555
C2 C8 1_555 1_555
C4 C5 1_555 1_555
C7 O1 1_555 1_555
Mn1D O1D 1_555 1_555
Mn1D_2 O1E 1_555 1_555
Mn1D_2 O1A 1_555 1_555
C1E C7E 1_555 1_555
C2E C8E 1_555 1_555
C4E C5E 1_555 1_555
C7E O1E 1_555 1_555

#END
