
#######################################################################
#
#                 Cambridge Crystallographic Data Centre
#                                CCDC 
#
#######################################################################
#
# If this CIF has been generated from an entry in the Cambridge 
# Structural Database, then it will include bibliographic, chemical, 
# crystal, experimental, refinement or atomic coordinate data resulting 
# from the CCDC's data processing and validation procedures.
#
#######################################################################

data_YABPEY
_symmetry_cell_setting           orthorhombic
_symmetry_space_group_name_H-M   'P n m a'
_symmetry_Int_Tables_number      62
_space_group_name_Hall           '-P 2ac 2n'
loop_
_symmetry_equiv_pos_site_id
_symmetry_equiv_pos_as_xyz
1 x,y,z
2 1/2-x,-y,1/2+z
3 1/2+x,1/2-y,1/2-z
4 -x,1/2+y,-z
5 -x,-y,-z
6 1/2+x,y,1/2-z
7 1/2-x,1/2+y,1/2+z
8 x,1/2-y,z
_cell_length_a                   7.296(4)
_cell_length_b                   17.760(4)
_cell_length_c                   6.6631(3)
_cell_angle_alpha                90
_cell_angle_beta                 90
_cell_angle_gamma                90
_cell_volume                     863.384
loop_
_atom_site_label
_atom_site_type_symbol
_atom_site_fract_x
_atom_site_fract_y
_atom_site_fract_z
S1 S 0.20653(9) 0.2500 0.66428(9)
Mg1 Mg 0.5000 0.0000 1.0000
O1 O 0.25702(16) 0.05295(7) 0.91850(19)
O2 O 0.16033(18) 0.08648(7) 0.61279(17)
O3 O 0.51155(16) -0.05588(7) 0.72586(19)
H1 H 0.4076 -0.0608 0.6625
H2 H 0.6118 -0.0443 0.6642
C1 C 0.2192(2) 0.10177(9) 0.7848(2)
C2 C 0.2746(3) 0.21076(10) 1.0281(3)
H3 H 0.2957 0.1815 1.1416
C3 C 0.2398(2) 0.18165(9) 0.8406(2)
Mg1A Mg 0.0000 0.0000 0.5000
Mg1B Mg 0.0000 0.5000 0.5000
Mg1C Mg 0.5000 0.5000 1.0000
O1G O 0.25702(16) 0.44705(7) 0.91850(19)
O1D O 0.74298(16) -0.05295(7) 1.08150(19)
O2G O 0.16033(18) 0.41352(7) 0.61279(17)
O2A O 0.33967(18) -0.08648(7) 1.11279(17)
O2E O 0.66033(18) 0.08648(7) 0.88721(17)
O3D O 0.48845(16) 0.05588(7) 1.27414(19)
H1D H 0.5924 0.0608 1.3375
H2D H 0.3882 0.0443 1.3358
C1G C 0.2192(2) 0.39823(9) 0.7848(2)
C2G C 0.2746(3) 0.28924(10) 1.0281(3)
H3G H 0.2957 0.3185 1.1416
C3G C 0.2398(2) 0.31835(9) 0.8406(2)
loop_
_geom_bond_atom_site_label_1
_geom_bond_atom_site_label_2
_geom_bond_site_symmetry_1
_geom_bond_site_symmetry_2
S1 C3 1_555 1_555
Mg1 O1 1_555 1_555
O1 C1 1_555 1_555
O2 C1 1_555 1_555
O3 Mg1 1_555 1_555
H1 O3 1_555 1_555
H2 O3 1_555 1_555
C1 C3 1_555 1_555
C2 H3 1_555 1_555
C3 C2 1_555 1_555
Mg1A O2 1_555 1_555
Mg1B O2G 1_555 1_555
Mg1C O1G 1_555 1_555
O1G C1G 1_555 1_555
O1D Mg1 1_555 1_555
O2G C1G 1_555 1_555
O2A Mg1 1_555 1_555
O2E Mg1 1_555 1_555
O3D Mg1 1_555 1_555
H1D O3D 1_555 1_555
H2D O3D 1_555 1_555
C1G C3G 1_555 1_555
C2G C2 1_555 1_555
H3G C2G 1_555 1_555
C3G S1 1_555 1_555
C2G C3G 1_555 1_555

#END
