
#######################################################################
#
#                 Cambridge Crystallographic Data Centre
#                                CCDC 
#
#######################################################################
#
# If this CIF has been generated from an entry in the Cambridge 
# Structural Database, then it will include bibliographic, chemical, 
# crystal, experimental, refinement or atomic coordinate data resulting 
# from the CCDC's data processing and validation procedures.
#
#######################################################################

data_YABPAU
_symmetry_cell_setting           monoclinic
_symmetry_space_group_name_H-M   'P 21/c'
_symmetry_Int_Tables_number      14
_space_group_name_Hall           '-P 2ybc'
loop_
_symmetry_equiv_pos_site_id
_symmetry_equiv_pos_as_xyz
1 x,y,z
2 -x,1/2+y,1/2-z
3 -x,-y,-z
4 x,1/2-y,1/2+z
_cell_length_a                   17.747(4)
_cell_length_b                   9.805(2)
_cell_length_c                   21.359(4)
_cell_angle_alpha                90
_cell_angle_beta                 103.13(3)
_cell_angle_gamma                90
_cell_volume                     3619.5
loop_
_atom_site_label
_atom_site_type_symbol
_atom_site_fract_x
_atom_site_fract_y
_atom_site_fract_z
S1 S -0.01373(4) 1.14030(7) 0.21199(3)
S2 S -0.52667(4) 1.07400(8) 0.17105(3)
S3 S -0.26170(4) 1.20443(6) 0.50210(3)
Mg1 Mg -0.22181(4) 0.90161(8) 0.29112(4)
Mg2 Mg 0.21532(4) 1.23089(8) 0.06161(4)
Mg3 Mg -0.30221(5) 0.88771(8) 0.12167(4)
O1 O -0.20085(9) 0.91279(17) 0.19177(8)
O2 O 0.13964(10) 1.14322(17) 0.10615(9)
O3 O -0.31409(10) 1.0319(2) 0.27189(9)
O4 O -0.70163(10) 1.24639(19) 0.22343(9)
O5 O -0.37106(10) 0.9741(2) 0.17074(9)
O6 O -0.14286(10) 1.05053(18) 0.26923(9)
O7 O 0.12834(9) 1.27026(18) 0.19102(8)
O8 O -0.68613(9) 1.17900(19) 0.12665(9)
O9 O -0.24046(10) 1.60089(16) 0.50224(8)
O10 O -0.27643(11) 1.45612(17) 0.56940(8)
O11 O -0.20985(9) 0.93056(16) 0.38656(8)
O12 O -0.26717(11) 0.91254(17) 0.46694(9)
O13 O -0.39751(11) 0.8376(2) 0.05237(10)
C1 C -0.24280(13) 0.9844(2) 0.42758(12)
C2 C -0.25578(14) 1.4825(2) 0.51808(12)
O14 O -0.28290(12) 0.68411(19) 0.13303(9)
C3 C -0.00860(15) 1.0197(3) 0.10699(14)
H1 H 0.0074 0.9914 0.0705
C4 C 0.10623(13) 1.1804(2) 0.14912(12)
C5 C -0.14777(13) 0.9988(2) 0.21484(12)
C6 C -0.66301(13) 1.1963(2) 0.18630(13)
C7 C -0.24538(14) 1.1341(2) 0.43289(12)
C8 C -0.58146(14) 1.1575(3) 0.21594(12)
C9 C -0.37095(14) 1.0252(3) 0.22480(13)
C10 C 0.03175(13) 1.1104(2) 0.15035(12)
C11 C -0.44546(14) 1.0826(3) 0.23323(13)
C12 C -0.08752(13) 1.0298(3) 0.17906(12)
C13 C -0.24918(15) 1.3656(2) 0.47567(12)
C14 C -0.07725(15) 0.9732(3) 0.12303(14)
H2 H -0.1114 0.9114 0.0984
N1 N -0.24575(16) 0.4871(2) 0.18552(13)
C15 C -0.53920(15) 1.1888(3) 0.27585(14)
H3 H -0.5594 1.2334 0.3068
C16 C -0.46099(16) 1.1458(3) 0.28573(14)
H4 H -0.4243 1.1594 0.3239
N2 N 0.03696(18) 1.4271(3) -0.07855(15)
C17 C -0.23411(19) 1.3638(3) 0.41575(14)
H5 H -0.2265 1.4420 0.3933
N3 N -0.47163(13) 0.7156(3) -0.02796(12)
C18 C -0.23568(18) 0.6149(3) 0.17061(16)
H6 H -0.1890 0.6560 0.1901
C19 C -0.23137(19) 1.2308(3) 0.39165(14)
H7 H -0.2211 1.2114 0.3518
C20 C -0.40583(16) 0.7464(3) 0.01165(15)
H8 H -0.3624 0.6959 0.0088
C21 C 0.1047(2) 1.3865(4) -0.04435(17)
H9 H 0.1477 1.4364 -0.0489
C22 C -0.0330(3) 1.3574(6) -0.0759(3)
H10 H -0.0761 1.4023 -0.1036
H11 H -0.0398 1.3583 -0.0326
H12 H -0.0302 1.2648 -0.0898
C23 C -0.54116(19) 0.7915(5) -0.0269(2)
H13 H -0.5835 0.7557 -0.0589
H14 H -0.5335 0.8858 -0.0359
H15 H -0.5527 0.7835 0.0147
C24 C -0.4761(2) 0.6078(4) -0.07551(19)
H16 H -0.5284 0.5999 -0.1001
H17 H -0.4602 0.5230 -0.0541
H18 H -0.4426 0.6296 -0.1037
C25 C -0.1876(3) 0.4143(4) 0.2336(2)
H19 H -0.2048 0.3226 0.2378
H20 H -0.1804 0.4601 0.2743
H21 H -0.1395 0.4124 0.2203
O15 O 0.11629(12) 1.2911(2) -0.00777(10)
C26 C 0.0293(4) 1.5507(5) -0.1171(3)
H22 H -0.0241 1.5640 -0.1381
H23 H 0.0596 1.5425 -0.1488
H24 H 0.0472 1.6274 -0.0898
C27 C -0.3179(3) 0.4201(4) 0.1607(2)
H25 H -0.3152 0.3279 0.1761
H26 H -0.3286 0.4198 0.1145
H27 H -0.3585 0.4676 0.1746
Mg1A Mg -0.77819(4) 1.40161(8) 0.20888(4)
Mg1A_2 Mg 0.22181(4) 1.40161(8) 0.20888(4)
Mg2_2 Mg -0.78468(4) 1.23089(8) 0.06161(4)
Mg2A Mg -0.21532(4) 1.73089(8) 0.43839(4)
Mg2A_2 Mg -0.21532(4) 0.73089(8) 0.43839(4)
Mg3C Mg -0.30221(5) 1.61229(8) 0.62167(4)
O4A O -0.29837(10) 0.74639(19) 0.27657(9)
O7A O -0.12834(9) 0.77026(18) 0.30898(8)
O8_2 O 0.31387(9) 1.17900(19) 0.12665(9)
O9A O 0.24046(10) 1.10089(16) -0.00224(8)
O10C O -0.27643(11) 1.04388(17) 0.06940(8)
O11A O 0.20985(9) 1.43056(16) 0.11344(8)
O12A O 0.26717(11) 1.41254(17) 0.03306(9)
loop_
_geom_bond_atom_site_label_1
_geom_bond_atom_site_label_2
_geom_bond_site_symmetry_1
_geom_bond_site_symmetry_2
S1 C10 1_555 1_555
S2 C8 1_555 1_555
S3 C7 1_555 1_555
Mg1 O1 1_555 1_555
Mg2 O2 1_555 1_555
Mg3 O1 1_555 1_555
O1 C5 1_555 1_555
O2 C4 1_555 1_555
O3 Mg1 1_555 1_555
O4 C6 1_555 1_555
O5 Mg3 1_555 1_555
O6 Mg1 1_555 1_555
O7 C4 1_555 1_555
O8 C6 1_555 1_555
O9 C2 1_555 1_555
O10 C2 1_555 1_555
O11 Mg1 1_555 1_555
O12 C1 1_555 1_555
O13 Mg3 1_555 1_555
C1 O11 1_555 1_555
C2 C13 1_555 1_555
O14 Mg3 1_555 1_555
C3 H1 1_555 1_555
C4 C10 1_555 1_555
C5 O6 1_555 1_555
C6 C8 1_555 1_555
C7 C1 1_555 1_555
C8 C15 1_555 1_555
C9 O3 1_555 1_555
C10 C3 1_555 1_555
C11 S2 1_555 1_555
C12 S1 1_555 1_555
C13 S3 1_555 1_555
C14 C3 1_555 1_555
H2 C14 1_555 1_555
N1 C18 1_555 1_555
C15 H3 1_555 1_555
C16 C11 1_555 1_555
H4 C16 1_555 1_555
N2 C21 1_555 1_555
C17 C13 1_555 1_555
H5 C17 1_555 1_555
N3 C20 1_555 1_555
C18 O14 1_555 1_555
H6 C18 1_555 1_555
C19 C7 1_555 1_555
H7 C19 1_555 1_555
C20 O13 1_555 1_555
H8 C20 1_555 1_555
C21 H9 1_555 1_555
C22 N2 1_555 1_555
H10 C22 1_555 1_555
H11 C22 1_555 1_555
H12 C22 1_555 1_555
C23 N3 1_555 1_555
H13 C23 1_555 1_555
H14 C23 1_555 1_555
H15 C23 1_555 1_555
C24 N3 1_555 1_555
H16 C24 1_555 1_555
H17 C24 1_555 1_555
H18 C24 1_555 1_555
C25 N1 1_555 1_555
H19 C25 1_555 1_555
H20 C25 1_555 1_555
H21 C25 1_555 1_555
O15 Mg2 1_555 1_555
C26 N2 1_555 1_555
H22 C26 1_555 1_555
H23 C26 1_555 1_555
H24 C26 1_555 1_555
C27 N1 1_555 1_555
H25 C27 1_555 1_555
H26 C27 1_555 1_555
H27 C27 1_555 1_555
Mg1A O4 1_555 1_555
Mg1A_2 O7 1_555 1_555
Mg2_2 O8 1_555 1_555
Mg2A O9 1_555 1_555
Mg2A_2 O11 1_555 1_555
Mg3C O10 1_555 1_555
O4A Mg1 1_555 1_555
O7A Mg1 1_555 1_555
O8_2 Mg2 1_555 1_555
O9A Mg2 1_555 1_555
O10C Mg3 1_555 1_555
O11A Mg2 1_555 1_555
O12A Mg2 1_555 1_555
O5 C9 1_555 1_555
O12 Mg2A_2 1_555 1_555
C5 C12 1_555 1_555
C9 C11 1_555 1_555
C12 C14 1_555 1_555
C15 C16 1_555 1_555
C17 C19 1_555 1_555
C21 O15 1_555 1_555
Mg1A_2 O11A 1_555 1_555

#END
