
#######################################################################
#
#                 Cambridge Crystallographic Data Centre
#                                CCDC 
#
#######################################################################
#
# If this CIF has been generated from an entry in the Cambridge 
# Structural Database, then it will include bibliographic, chemical, 
# crystal, experimental, refinement or atomic coordinate data resulting 
# from the CCDC's data processing and validation procedures.
#
#######################################################################

data_YABRUQ
_symmetry_cell_setting           monoclinic
_symmetry_space_group_name_H-M   'P 21/c'
_symmetry_Int_Tables_number      14
_space_group_name_Hall           '-P 2ybc'
loop_
_symmetry_equiv_pos_site_id
_symmetry_equiv_pos_as_xyz
1 x,y,z
2 -x,1/2+y,1/2-z
3 -x,-y,-z
4 x,1/2-y,1/2+z
_cell_length_a                   9.5268(10)
_cell_length_b                   15.3121(16)
_cell_length_c                   15.5250(12)
_cell_angle_alpha                90
_cell_angle_beta                 117.816(5)
_cell_angle_gamma                90
_cell_volume                     2003.03
loop_
_atom_site_label
_atom_site_type_symbol
_atom_site_fract_x
_atom_site_fract_y
_atom_site_fract_z
Zn1 Zn 1.32671(3) 1.001321(14) 0.451481(16)
O1 O 0.52921(18) 1.05555(11) 0.11078(11)
O2 O 1.3658(2) 0.89307(10) 0.38754(12)
O3 O 1.6306(2) 0.89222(10) 0.46071(11)
O4 O 1.62206(19) 0.57790(11) 0.13812(11)
O5 O 1.35739(19) 0.57556(10) 0.06562(11)
N1 N 1.0850(2) 1.00739(11) 0.37501(13)
N2 N 0.4839(2) 0.95663(15) 0.19809(16)
N3 N 0.3397(3) 0.97793(15) 0.11687(17)
N4 N 0.0524(3) 1.17114(18) -0.18592(17)
C1 C 0.8285(3) 0.95359(16) 0.33761(17)
H1 H 0.7660 0.9173 0.3537
C2 C 0.9895(3) 0.95589(15) 0.39402(16)
H2 H 1.0350 0.9198 0.4484
C3 C 1.0177(3) 1.06036(17) 0.29815(18)
H3 H 1.0823 1.0980 0.2853
C4 C 0.8573(3) 1.06184(17) 0.23717(18)
H4 H 0.8146 1.0995 0.1841
C5 C 0.7603(3) 1.00657(14) 0.25576(17)
C6 C 0.5900(3) 1.00332(14) 0.19115(17)
C7 C 0.3723(3) 1.03580(17) 0.06910(17)
C8 C 0.2642(3) 1.08220(17) -0.01974(17)
C9 C 0.3152(3) 1.14986(19) -0.05615(18)
H5 H 0.4212 1.1668 -0.0260
C10 C 0.2051(4) 1.1921(2) -0.1386(2)
H6 H 0.2401 1.2381 -0.1627
C11 C 0.0060(3) 1.1054(2) -0.1504(2)
H7 H -0.1004 1.0893 -0.1827
C12 C 0.1060(3) 1.0589(2) -0.0682(2)
H8 H 0.0676 1.0130 -0.0460
C13 C 1.4951(3) 0.78995(14) 0.33552(15)
C14 C 1.6354(3) 0.75200(14) 0.34816(15)
H9 H 1.7311 0.7686 0.4005
C15 C 1.6342(3) 0.68946(14) 0.28339(15)
H10 H 1.7290 0.6642 0.2926
C16 C 1.4923(3) 0.66431(13) 0.20480(15)
C17 C 1.3515(3) 0.70027(14) 0.19448(16)
H11 H 1.2554 0.6826 0.1432
C18 C 1.3528(3) 0.76214(14) 0.25964(16)
H12 H 1.2576 0.7852 0.2525
C19 C 1.4972(3) 0.86408(14) 0.40007(15)
C20 C 1.4904(3) 0.60047(13) 0.13044(15)
Zn1B Zn 1.67329(3) 0.998679(14) 0.548519(16)
Zn1A Zn 1.67329(3) 0.501321(14) 0.048519(16)
Zn1C Zn 1.32671(3) 0.498679(14) -0.048519(16)
O3B O 1.3694(2) 1.10778(10) 0.53929(11)
O4A O 1.37794(19) 1.07790(11) 0.36188(11)
O5C O 1.35739(19) 0.92444(10) 0.56562(11)
O6 O 0.0361(3) 0.71685(19) 0.3564(2)
H13 H 0.0393 0.7583 0.3240
C21 C 0.1537(7) 0.7243(3) 0.4482(3)
H14 H 0.1462 0.7799 0.4743
H15 H 0.2544 0.7199 0.4484
H16 H 0.1446 0.6785 0.4875
loop_
_geom_bond_atom_site_label_1
_geom_bond_atom_site_label_2
_geom_bond_site_symmetry_1
_geom_bond_site_symmetry_2
Zn1 O2 1_555 1_555
O1 C6 1_555 1_555
O2 C19 1_555 1_555
O3 C19 1_555 1_555
O4 C20 1_555 1_555
O5 C20 1_555 1_555
N1 Zn1 1_555 1_555
N2 N3 1_555 1_555
N3 C7 1_555 1_555
N4 C10 1_555 1_555
C1 H1 1_555 1_555
C2 N1 1_555 1_555
H2 C2 1_555 1_555
C3 N1 1_555 1_555
H3 C3 1_555 1_555
C4 C3 1_555 1_555
H4 C4 1_555 1_555
C5 C1 1_555 1_555
C6 N2 1_555 1_555
C7 O1 1_555 1_555
C8 C7 1_555 1_555
C9 C8 1_555 1_555
H5 C9 1_555 1_555
C10 C9 1_555 1_555
H6 C10 1_555 1_555
C11 N4 1_555 1_555
H7 C11 1_555 1_555
C12 C8 1_555 1_555
H8 C12 1_555 1_555
C13 C14 1_555 1_555
C14 H9 1_555 1_555
C15 C14 1_555 1_555
H10 C15 1_555 1_555
C16 C15 1_555 1_555
C17 C16 1_555 1_555
H11 C17 1_555 1_555
C18 C13 1_555 1_555
H12 C18 1_555 1_555
C19 C13 1_555 1_555
C20 C16 1_555 1_555
O6 H13 1_555 1_555
C21 O6 1_555 1_555
H14 C21 1_555 1_555
H15 C21 1_555 1_555
H16 C21 1_555 1_555
Zn1B O3 1_555 1_555
Zn1A O4 1_555 1_555
Zn1C O5 1_555 1_555
O3B Zn1 1_555 1_555
O4A Zn1 1_555 1_555
O5C Zn1 1_555 1_555
C1 C2 1_555 1_555
C4 C5 1_555 1_555
C5 C6 1_555 1_555
C11 C12 1_555 1_555
C17 C18 1_555 1_555

#END
