
#######################################################################
#
#                 Cambridge Crystallographic Data Centre
#                                CCDC 
#
#######################################################################
#
# If this CIF has been generated from an entry in the Cambridge 
# Structural Database, then it will include bibliographic, chemical, 
# crystal, experimental, refinement or atomic coordinate data resulting 
# from the CCDC's data processing and validation procedures.
#
#######################################################################

data_YABREA
_symmetry_cell_setting           triclinic
_symmetry_space_group_name_H-M   'P -1'
_symmetry_Int_Tables_number      2
_space_group_name_Hall           '-P 1'
loop_
_symmetry_equiv_pos_site_id
_symmetry_equiv_pos_as_xyz
1 x,y,z
2 -x,-y,-z
_cell_length_a                   11.3477(10)
_cell_length_b                   13.2098(12)
_cell_length_c                   16.4803(15)
_cell_angle_alpha                73.889(2)
_cell_angle_beta                 88.852(2)
_cell_angle_gamma                73.087(2)
_cell_volume                     2265.78
loop_
_atom_site_label
_atom_site_type_symbol
_atom_site_fract_x
_atom_site_fract_y
_atom_site_fract_z
Pb1 Pb 0.38003(3) 0.69983(3) -0.178920(17)
Pb2 Pb 0.29814(3) 0.54749(3) 0.049749(17)
Pb3 Pb 0.69159(3) 0.50364(3) 0.459731(17)
Pb4 Pb 0.39518(3) 0.57610(3) 0.289423(18)
Pb5 Pb 0.97210(3) 0.63740(3) 0.364589(19)
O1 O 0.4844(6) 0.6306(5) -0.0298(3)
O2 O 0.4483(6) 0.8107(5) -0.0885(4)
O3 O 0.4793(5) 0.7248(5) 0.1586(3)
H1 H 0.4148 0.7209 0.1372
O4 O 0.6294(6) 0.5322(5) 0.2927(3)
O5 O 0.7602(6) 0.6155(5) 0.3224(3)
O6 O 0.6706(5) 0.4785(5) 0.1157(3)
O7 O 0.4783(5) 0.5233(5) 0.1564(3)
O8 O 0.2162(6) 0.7191(5) -0.0847(3)
O9 O 0.1624(7) 0.8932(6) -0.1604(4)
O10 O 0.0729(6) 0.6645(5) 0.0606(4)
H2 H 0.0113 0.6535 0.0412
O11 O 0.2688(5) 0.7192(5) 0.0962(4)
O12 O 0.1589(6) 0.8915(6) 0.0894(4)
H3 H 0.0860 0.9318 0.0751
O13 O 0.0266(6) 0.6907(6) 0.2172(4)
O14 O -0.1407(7) 0.8235(6) 0.2246(4)
O15 O 0.7613(6) 0.5146(5) -0.2035(3)
O16 O 0.6517(6) 0.6698(5) -0.1765(4)
O17 O 0.9550(5) 0.5321(5) -0.2902(3)
H4 H 0.9190 0.5025 -0.2495
O18 O 1.1601(6) 0.6480(6) -0.4071(4)
O19 O 1.0521(5) 0.5670(5) -0.4637(3)
O20 O 0.7432(7) 0.6530(6) -0.4720(4)
O21 O 0.8052(6) 0.4856(5) -0.3866(3)
O22 O 0.5234(6) 0.6278(6) -0.3224(3)
O23 O 0.5030(6) 0.5660(5) -0.4312(3)
O24 O 0.5182(7) 0.8263(6) -0.5423(4)
H5 H 0.5390 0.8341 -0.5924
O25 O 0.3469(8) 0.9043(7) -0.7131(5)
O26 O 0.2327(11) 1.0597(8) -0.6870(5)
O27 O 0.4971(7) 0.6798(6) -0.6192(4)
O28 O 0.3073(6) 0.6844(6) -0.5805(4)
O29 O 0.1750(7) 0.7196(7) -0.2665(4)
H6 H 0.1877 0.6664 -0.2883
H7 H 0.1167 0.7180 -0.2334
O30 O 0.1476(6) 0.4311(6) 0.0200(4)
H8 H 0.1621 0.3706 0.0591
H9 H 0.0727 0.4687 0.0194
O31 O 1.0644(7) 0.7836(7) 0.3777(5)
H10 H 1.1402 0.7542 0.3943
H11 H 1.0576 0.8312 0.3298
C1 C 0.5004(7) 0.7238(7) -0.0322(5)
C2 C 0.5944(8) 0.7258(7) 0.0320(5)
H18 H 0.5861 0.8038 0.0280
H19 H 0.6782 0.6929 0.0156
C3 C 0.5841(8) 0.6654(7) 0.1245(5)
C4 C 0.6967(8) 0.6567(7) 0.1769(4)
H20 H 0.7019 0.7317 0.1715
H21 H 0.7717 0.6163 0.1543
C5 C 0.6935(8) 0.5967(8) 0.2713(5)
C6 C 0.5764(8) 0.5462(7) 0.1328(4)
C7 C 0.1444(8) 0.8173(7) -0.1020(5)
C8 C 0.0346(9) 0.8372(7) -0.0497(5)
H22 H -0.0296 0.8136 -0.0728
H23 H 0.0013 0.9178 -0.0586
C9 C 0.0516(8) 0.7821(7) 0.0456(5)
C10 C 0.1700(8) 0.7997(8) 0.0802(5)
C11 C -0.0599(8) 0.8286(7) 0.0890(5)
H24 H -0.1327 0.8199 0.0627
H25 H -0.0723 0.9087 0.0777
C12 C -0.0574(9) 0.7791(8) 0.1834(5)
C13 C 0.7238(8) 0.6199(8) -0.2206(5)
C14 C 0.7712(8) 0.6884(7) -0.2959(5)
H26 H 0.6994 0.7366 -0.3353
H27 H 0.8082 0.7370 -0.2757
C15 C 0.8664(8) 0.6264(7) -0.3463(4)
C16 C 0.9411(8) 0.7015(7) -0.3944(5)
H28 H 0.9624 0.7417 -0.3571
H29 H 0.8900 0.7567 -0.4441
C17 C 1.0594(9) 0.6354(7) -0.4241(5)
C18 C 0.8009(8) 0.5865(7) -0.4068(5)
C19 C 0.4801(8) 0.6435(8) -0.3967(5)
C20 C 0.3889(10) 0.7509(8) -0.4402(5)
H30 H 0.3927 0.8050 -0.4099
H31 H 0.3054 0.7414 -0.4347
C21 C 0.4045(9) 0.8005(8) -0.5349(5)
C22 C 0.2987(11) 0.9045(9) -0.5700(6)
H32 H 0.2201 0.8868 -0.5578
H33 H 0.3024 0.9589 -0.5399
C23 C 0.2974(11) 0.9564(10) -0.6624(7)
C24 C 0.4054(9) 0.7141(8) -0.5815(5)
Pb1A Pb 0.61997(3) 0.30017(3) 0.178920(17)
Pb2A Pb 0.70186(3) 0.45251(3) -0.049749(17)
Pb3A Pb 0.30841(3) 0.49636(3) 0.540269(17)
Pb3A_2 Pb 1.30841(3) 0.49636(3) -0.459731(17)
Pb3_2 Pb 0.69159(3) 0.50364(3) -0.540269(17)
Pb3A_3 Pb 0.30841(3) 0.49636(3) -0.459731(17)
Pb4A Pb 0.60482(3) 0.42390(3) 0.710577(18)
Pb4A_2 Pb 0.60482(3) 0.42390(3) -0.289423(18)
Pb4_2 Pb 0.39518(3) 0.57610(3) -0.710577(18)
Pb5_2 Pb -0.02790(3) 0.63740(3) 0.364589(19)
Pb5A Pb 1.02790(3) 0.36260(3) -0.364589(19)
Pb5_3 Pb 0.97210(3) 0.63740(3) -0.635411(19)
O1A O 0.5156(6) 0.3694(5) 0.0298(3)
O6A O 0.3294(5) 0.5215(5) -0.1157(3)
O7A O 0.5217(5) 0.4767(5) -0.1564(3)
O13_2 O 1.0266(6) 0.6907(6) 0.2172(4)
O14_2 O 0.8593(7) 0.8235(6) 0.2246(4)
O15A O 0.2387(6) 0.4854(5) 0.2035(3)
O16A O 0.3483(6) 0.3302(5) 0.1765(4)
O17A O 1.0450(5) 0.4679(5) 0.2902(3)
H4A H 1.0810 0.4975 0.2495
O18A O 0.8399(6) 0.3520(6) 0.4071(4)
O19A O 0.9479(5) 0.4330(5) 0.4637(3)
O19_2 O 1.0521(5) 0.5670(5) 0.5363(3)
O20_2 O 0.7432(7) 0.6530(6) 0.5280(4)
O21_2 O 0.8052(6) 0.4856(5) 0.6134(3)
O21A O 0.1948(6) 0.5144(5) 0.3866(3)
O21A_2 O 1.1948(6) 0.5144(5) 0.3866(3)
O22A O 0.4766(6) 0.3722(6) 0.3224(3)
O23_2 O 0.5030(6) 0.5660(5) 0.5688(3)
O23A O 0.4970(6) 0.4340(5) 0.4312(3)
O27_2 O 0.4971(7) 0.6798(6) 0.3808(4)
O28A O 0.6927(6) 0.3156(6) 0.5805(4)
O28_2 O 0.3073(6) 0.6844(6) 0.4195(4)
C19A C 0.5199(8) 0.3565(8) 0.3967(5)
Na1 Na 0.4778(5) 0.9018(5) 0.1835(3)
O32 O 0.6150(7) 0.8580(6) 0.2953(4)
H12 H 0.6171 0.9169 0.3059
H13 H 0.5923 0.8169 0.3383
O33 O 0.3296(7) 1.0054(6) 0.0689(4)
H14 H 0.3136 1.0736 0.0651
H15 H 0.3582 0.9937 0.0232
O34 O 0.6232(9) 0.9710(7) 0.1045(5)
H16 H 0.6222 1.0316 0.1133
H17 H 0.6944 0.9248 0.1193
loop_
_geom_bond_atom_site_label_1
_geom_bond_atom_site_label_2
_geom_bond_site_symmetry_1
_geom_bond_site_symmetry_2
Pb1 O1 1_555 1_555
Pb2 O1 1_555 1_555
Pb3 O4 1_555 1_555
Pb4 O3 1_555 1_555
Pb5 O5 1_555 1_555
O1 C1 1_555 1_555
O2 Pb1 1_555 1_555
O3 H1 1_555 1_555
O4 Pb4 1_555 1_555
O5 Pb3 1_555 1_555
O6 C6 1_555 1_555
O7 Pb2 1_555 1_555
O8 Pb1 1_555 1_555
O9 Pb1 1_555 1_555
O10 Pb2 1_555 1_555
H2 O10 1_555 1_555
O11 Pb2 1_555 1_555
O12 H3 1_555 1_555
O13 C12 1_555 1_555
O14 C12 1_555 1_555
O15 C13 1_555 1_555
O16 Pb1 1_555 1_555
O17 H4 1_555 1_555
O18 C17 1_555 1_555
O19 C17 1_555 1_555
O20 C18 1_555 1_555
O21 C18 1_555 1_555
O22 Pb1 1_555 1_555
O23 C19 1_555 1_555
O24 H5 1_555 1_555
O25 C23 1_555 1_555
O26 C23 1_555 1_555
O27 C24 1_555 1_555
O28 C24 1_555 1_555
O29 Pb1 1_555 1_555
H6 O29 1_555 1_555
H7 O29 1_555 1_555
O30 Pb2 1_555 1_555
H8 O30 1_555 1_555
H9 O30 1_555 1_555
O31 Pb5 1_555 1_555
H10 O31 1_555 1_555
H11 O31 1_555 1_555
O32 H12 1_555 1_555
H13 O32 1_555 1_555
O33 H14 1_555 1_555
H15 O33 1_555 1_555
O34 H16 1_555 1_555
H17 O34 1_555 1_555
C1 O2 1_555 1_555
C2 C1 1_555 1_555
H18 C2 1_555 1_555
H19 C2 1_555 1_555
C3 O3 1_555 1_555
C4 C3 1_555 1_555
H20 C4 1_555 1_555
H21 C4 1_555 1_555
C5 O4 1_555 1_555
C6 O7 1_555 1_555
C7 O8 1_555 1_555
C8 C7 1_555 1_555
H22 C8 1_555 1_555
H23 C8 1_555 1_555
C9 O10 1_555 1_555
C10 O11 1_555 1_555
C11 C9 1_555 1_555
H24 C11 1_555 1_555
H25 C11 1_555 1_555
C12 C11 1_555 1_555
C13 O16 1_555 1_555
C14 C13 1_555 1_555
H26 C14 1_555 1_555
H27 C14 1_555 1_555
C15 O17 1_555 1_555
C16 C15 1_555 1_555
H28 C16 1_555 1_555
H29 C16 1_555 1_555
C17 C16 1_555 1_555
C18 C15 1_555 1_555
C19 O22 1_555 1_555
C20 C19 1_555 1_555
H30 C20 1_555 1_555
H31 C20 1_555 1_555
C21 O24 1_555 1_555
C22 C21 1_555 1_555
H32 C22 1_555 1_555
H33 C22 1_555 1_555
C23 C22 1_555 1_555
C24 C21 1_555 1_555
Pb1A O6 1_555 1_555
Pb2A O1 1_555 1_555
Pb3A O21A 1_555 1_555
Pb3A_2 O18 1_555 1_555
Pb3_2 O20 1_555 1_555
Pb3A_3 O23 1_555 1_555
Pb4A O21_2 1_555 1_555
Pb4A_2 O15 1_555 1_555
Pb4_2 O27 1_555 1_555
Pb5_2 O13 1_555 1_555
Pb5A O17 1_555 1_555
Pb5_3 O19 1_555 1_555
O1A Pb2 1_555 1_555
O6A Pb1 1_555 1_555
O7A Pb1 1_555 1_555
O13_2 Pb5 1_555 1_555
O14_2 Pb5 1_555 1_555
O15A Pb2 1_555 1_555
O16A Pb2 1_555 1_555
O17A Pb5 1_555 1_555
H4A O17A 1_555 1_555
O18A Pb3 1_555 1_555
O19A Pb3 1_555 1_555
O19_2 Pb5 1_555 1_555
O20_2 Pb3 1_555 1_555
O21_2 Pb3 1_555 1_555
O21A Pb4 1_555 1_555
O21A_2 Pb5 1_555 1_555
O22A Pb4 1_555 1_555
O23_2 Pb3 1_555 1_555
O23A Pb3 1_555 1_555
O27_2 Pb3 1_555 1_555
O28A Pb3 1_555 1_555
O28_2 Pb4 1_555 1_555
C19A O22A 1_555 1_555
Pb2 O8 1_555 1_555
Pb2 O6A 1_555 1_555
Pb4 O7 1_555 1_555
Pb4 O15A 1_555 1_555
Pb4 O23A 1_555 1_555
Pb4 O27_2 1_555 1_555
Pb5 O19A 1_555 1_555
O5 C5 1_555 1_555
O6 Pb2A 1_555 1_555
O7 Pb1A 1_555 1_555
O9 C7 1_555 1_555
O12 C10 1_555 1_555
O14 Pb5_2 1_555 1_555
O15 Pb2A 1_555 1_555
O16 Pb2A 1_555 1_555
O19 Pb3A_2 1_555 1_555
O19 Pb5A 1_555 1_555
O21 Pb3_2 1_555 1_555
O21 Pb4A_2 1_555 1_555
O21 Pb5A 1_555 1_555
O22 Pb4A_2 1_555 1_555
O23 Pb3_2 1_555 1_555
O23 Pb4A_2 1_555 1_555
O27 Pb3_2 1_555 1_555
O28 Pb3A_3 1_555 1_555
O28 Pb4_2 1_555 1_555
C2 C3 1_555 1_555
C3 C6 1_555 1_555
C4 C5 1_555 1_555
C8 C9 1_555 1_555
C9 C10 1_555 1_555
C14 C15 1_555 1_555
C20 C21 1_555 1_555
Pb1A O1A 1_555 1_555
Pb1A O16A 1_555 1_555
Pb1A O22A 1_555 1_555
Pb2A O1A 1_555 1_555
Pb2A O7A 1_555 1_555
Pb3A O23_2 1_555 1_555
Pb3A O23A 1_555 1_555
Pb3A O28_2 1_555 1_555
Pb4A O23_2 1_555 1_555
Pb4A O28A 1_555 1_555
Pb4A_2 O7A 1_555 1_555
Pb5_2 O21A 1_555 1_555
O23A C19A 1_555 1_555

#END
