
#######################################################################
#
#                 Cambridge Crystallographic Data Centre
#                                CCDC 
#
#######################################################################
#
# If this CIF has been generated from an entry in the Cambridge 
# Structural Database, then it will include bibliographic, chemical, 
# crystal, experimental, refinement or atomic coordinate data resulting 
# from the CCDC's data processing and validation procedures.
#
#######################################################################

data_YABRIE
_symmetry_cell_setting           monoclinic
_symmetry_space_group_name_H-M   'C 2/c'
_symmetry_Int_Tables_number      15
_space_group_name_Hall           '-C 2yn'
loop_
_symmetry_equiv_pos_site_id
_symmetry_equiv_pos_as_xyz
1 x,y,z
2 -x,y,1/2-z
3 1/2+x,1/2+y,z
4 1/2-x,1/2+y,1/2-z
5 -x,-y,-z
6 x,-y,1/2+z
7 1/2-x,1/2-y,-z
8 1/2+x,1/2-y,1/2+z
_cell_length_a                   9.820(2)
_cell_length_b                   18.193(4)
_cell_length_c                   25.679(6)
_cell_angle_alpha                90
_cell_angle_beta                 90.132(4)
_cell_angle_gamma                90
_cell_volume                     4587.68
loop_
_atom_site_label
_atom_site_type_symbol
_atom_site_fract_x
_atom_site_fract_y
_atom_site_fract_z
Cd1 Cd 0.621406(19) 0.162729(10) 0.399175(8)
O1 O 0.86101(19) -0.09326(10) 0.48488(8)
O2 O 0.6583(2) 0.25377(12) 0.34328(9)
O3 O 0.7971(2) 0.27943(11) 0.40836(8)
O4 O 1.0173(2) 0.53830(12) 0.40378(9)
O5 O 1.0180(2) 0.59611(11) 0.32880(9)
O6 O 0.6312(2) 0.16173(14) 0.48874(9)
H1 H 0.6420 0.2035 0.5031
H2 H 0.6648 0.1247 0.5046
N1 N 0.8241(2) 0.09632(12) 0.39406(9)
N2 N 1.0719(3) -0.11532(17) 0.46049(12)
N3 N 1.0328(3) -0.16971(16) 0.49612(12)
N4 N 0.6045(2) -0.20710(13) 0.58672(10)
C1 C 0.8394(3) 0.03552(15) 0.42293(11)
H3 H 0.7678 0.0208 0.4441
C2 C 0.9277(3) 0.11660(17) 0.36364(13)
H4 H 0.9181 0.1587 0.3434
C3 C 1.0484(3) 0.07777(18) 0.36089(14)
H5 H 1.1180 0.0934 0.3390
C4 C 1.0642(3) 0.01578(18) 0.39085(14)
H6 H 1.1450 -0.0109 0.3899
C5 C 0.9570(3) -0.00642(16) 0.42263(11)
C6 C 0.9690(3) -0.07205(16) 0.45511(12)
C7 C 0.9092(3) -0.15469(15) 0.50955(12)
C8 C 0.8223(3) -0.19360(15) 0.54588(11)
C9 C 0.8736(3) -0.25221(17) 0.57507(14)
H7 H 0.9635 -0.2674 0.5713
C10 C 0.7881(4) -0.28700(19) 0.60950(15)
H8 H 0.8195 -0.3263 0.6293
C11 C 0.6545(3) -0.26299(17) 0.61455(13)
H9 H 0.5978 -0.2867 0.6382
C12 C 0.6873(3) -0.17308(15) 0.55320(12)
H10 H 0.6531 -0.1339 0.5339
C13 C 0.7821(3) 0.36525(14) 0.33759(11)
C14 C 0.8692(3) 0.41695(14) 0.35954(11)
H11 H 0.9079 0.4083 0.3921
C15 C 0.8986(3) 0.48179(14) 0.33278(11)
C16 C 0.8434(3) 0.49330(15) 0.28366(11)
H12 H 0.8652 0.5359 0.2655
C17 C 0.7554(3) 0.44189(17) 0.26103(12)
C18 C 0.7254(3) 0.37863(16) 0.28896(12)
H13 H 0.6658 0.3443 0.2747
C19 C 0.7448(3) 0.29523(14) 0.36576(11)
C20 C 0.9846(3) 0.54239(15) 0.35651(12)
C21 C 0.6937(5) 0.4552(2) 0.20782(16)
H14 H 0.6443 0.4123 0.1970
H15 H 0.7648 0.4653 0.1833
H16 H 0.6328 0.4964 0.2095
Cd1B Cd 0.121406(19) -0.337271(10) 0.399175(8)
Cd1B_2 Cd 1.121406(19) 0.662729(10) 0.399175(8)
Cd1D Cd 0.378594(19) -0.162729(10) 0.600825(8)
O1D O 0.13899(19) 0.09326(10) 0.51512(8)
O2B O 0.1583(2) -0.24623(12) 0.34328(9)
O3B O 0.2971(2) -0.22057(11) 0.40836(8)
O4B O 0.5173(2) 0.03830(12) 0.40378(9)
O4_2 O 0.0173(2) -0.46170(12) 0.40378(9)
O5B O 0.5180(2) 0.09611(11) 0.32880(9)
O5_2 O 0.0180(2) -0.40389(11) 0.32880(9)
O6B O 0.1312(2) -0.33827(14) 0.48874(9)
H1B H 0.1420 -0.2965 0.5031
H2B H 0.1648 -0.3753 0.5046
N1D N 0.1759(2) -0.09632(12) 0.60594(9)
N1B N 0.3241(2) -0.40368(12) 0.39406(9)
N2D N -0.0719(3) 0.11532(17) 0.53951(12)
N3D N -0.0328(3) 0.16971(16) 0.50388(12)
N4D N 0.3955(2) 0.20710(13) 0.41328(10)
N4F N -0.1045(2) -0.29290(13) 0.41328(10)
C1D C 0.1606(3) -0.03552(15) 0.57707(11)
H3D H 0.2322 -0.0208 0.5559
C2D C 0.0723(3) -0.11660(17) 0.63636(13)
H4D H 0.0819 -0.1587 0.6566
C3D C -0.0484(3) -0.07777(18) 0.63911(14)
H5D H -0.1180 -0.0934 0.6610
C4D C -0.0642(3) -0.01578(18) 0.60915(14)
H6D H -0.1450 0.0109 0.6101
C5D C 0.0430(3) 0.00642(16) 0.57737(11)
C6D C 0.0310(3) 0.07205(16) 0.54489(12)
C7D C 0.0908(3) 0.15469(15) 0.49045(12)
C8D C 0.1777(3) 0.19360(15) 0.45412(11)
C9D C 0.1264(3) 0.25221(17) 0.42493(14)
H7D H 0.0365 0.2674 0.4287
C10D C 0.2119(4) 0.28700(19) 0.39050(15)
H8D H 0.1805 0.3263 0.3707
C11D C 0.3455(3) 0.26299(17) 0.38545(13)
H9D H 0.4022 0.2867 0.3618
C12D C 0.3127(3) 0.17308(15) 0.44680(12)
H10D H 0.3469 0.1339 0.4661
C13B C 0.2821(3) -0.13475(14) 0.33759(11)
C14B C 0.3692(3) -0.08305(14) 0.35954(11)
H11B H 0.4079 -0.0917 0.3921
C15B C 0.3986(3) -0.01821(14) 0.33278(11)
C16B C 0.3434(3) -0.00670(15) 0.28366(11)
H12B H 0.3652 0.0359 0.2655
C17B C 0.2554(3) -0.05811(17) 0.26103(12)
C18B C 0.2254(3) -0.12137(16) 0.28896(12)
H13B H 0.1658 -0.1557 0.2747
C19B C 0.2448(3) -0.20477(14) 0.36576(11)
C20B C 0.4846(3) 0.04239(15) 0.35651(12)
C21B C 0.1937(5) -0.0448(2) 0.20782(16)
H14B H 0.1443 -0.0877 0.1970
H15B H 0.2648 -0.0347 0.1833
H16B H 0.1328 -0.0036 0.2095
O7 O 0.6661(7) 0.1961(3) 0.23321(17)
O8 O 0.0000 0.2528(7) 0.2500
O9? O 0.0676(15) 0.1919(9) 0.2595(5)
O10? O 0.9131(10) 0.4918(6) 0.4886(4)
O11? O 0.971(2) 0.5305(8) 0.5121(5)
loop_
_geom_bond_atom_site_label_1
_geom_bond_atom_site_label_2
_geom_bond_site_symmetry_1
_geom_bond_site_symmetry_2
Cd1 O2 1_555 1_555
O1 C6 1_555 1_555
O2 C19 1_555 1_555
O3 Cd1 1_555 1_555
O4 C20 1_555 1_555
O5 C20 1_555 1_555
O6 Cd1 1_555 1_555
H1 O6 1_555 1_555
H2 O6 1_555 1_555
N1 Cd1 1_555 1_555
N2 N3 1_555 1_555
N3 C7 1_555 1_555
N4 C11 1_555 1_555
C1 N1 1_555 1_555
H3 C1 1_555 1_555
C2 N1 1_555 1_555
H4 C2 1_555 1_555
C3 C2 1_555 1_555
H5 C3 1_555 1_555
C4 C3 1_555 1_555
H6 C4 1_555 1_555
C5 C1 1_555 1_555
C6 N2 1_555 1_555
C7 O1 1_555 1_555
C8 C7 1_555 1_555
C9 C8 1_555 1_555
H7 C9 1_555 1_555
C10 C9 1_555 1_555
H8 C10 1_555 1_555
C11 C10 1_555 1_555
H9 C11 1_555 1_555
C12 N4 1_555 1_555
H10 C12 1_555 1_555
C13 C14 1_555 1_555
C14 H11 1_555 1_555
C15 C14 1_555 1_555
C16 C15 1_555 1_555
H12 C16 1_555 1_555
C17 C16 1_555 1_555
C18 C13 1_555 1_555
H13 C18 1_555 1_555
C19 O3 1_555 1_555
C20 C15 1_555 1_555
C21 C17 1_555 1_555
H14 C21 1_555 1_555
H15 C21 1_555 1_555
H16 C21 1_555 1_555
Cd1B O2B 1_555 1_555
Cd1B_2 O4 1_555 1_555
Cd1D N4 1_555 1_555
O1D C6D 1_555 1_555
O2B C19B 1_555 1_555
O3B Cd1B 1_555 1_555
O4B Cd1 1_555 1_555
O4_2 Cd1B 1_555 1_555
O5B Cd1 1_555 1_555
O5_2 Cd1B 1_555 1_555
O6B Cd1B 1_555 1_555
H1B O6B 1_555 1_555
H2B O6B 1_555 1_555
N1D Cd1D 1_555 1_555
N1B Cd1B 1_555 1_555
N2D N3D 1_555 1_555
N3D C7D 1_555 1_555
N4D Cd1 1_555 1_555
N4F Cd1B 1_555 1_555
C1D N1D 1_555 1_555
H3D C1D 1_555 1_555
C2D N1D 1_555 1_555
H4D C2D 1_555 1_555
C3D C2D 1_555 1_555
H5D C3D 1_555 1_555
C4D C3D 1_555 1_555
H6D C4D 1_555 1_555
C5D C1D 1_555 1_555
C6D N2D 1_555 1_555
C7D O1D 1_555 1_555
C8D C7D 1_555 1_555
C9D C8D 1_555 1_555
H7D C9D 1_555 1_555
C10D C9D 1_555 1_555
H8D C10D 1_555 1_555
C11D N4D 1_555 1_555
H9D C11D 1_555 1_555
C12D N4D 1_555 1_555
H10D C12D 1_555 1_555
C13B C14B 1_555 1_555
C14B H11B 1_555 1_555
C15B C14B 1_555 1_555
C16B C15B 1_555 1_555
H12B C16B 1_555 1_555
C17B C16B 1_555 1_555
C18B C13B 1_555 1_555
H13B C18B 1_555 1_555
C19B O3B 1_555 1_555
C20B O4B 1_555 1_555
C21B C17B 1_555 1_555
H14B C21B 1_555 1_555
H15B C21B 1_555 1_555
H16B C21B 1_555 1_555
O5 Cd1B_2 1_555 1_555
C4 C5 1_555 1_555
C5 C6 1_555 1_555
C8 C12 1_555 1_555
C13 C19 1_555 1_555
C17 C18 1_555 1_555
O5B C20B 1_555 1_555
C4D C5D 1_555 1_555
C5D C6D 1_555 1_555
C8D C12D 1_555 1_555
C10D C11D 1_555 1_555
C13B C19B 1_555 1_555
C15B C20B 1_555 1_555
C17B C18B 1_555 1_555

#END
