
#######################################################################
#
#                 Cambridge Crystallographic Data Centre
#                                CCDC 
#
#######################################################################
#
# If this CIF has been generated from an entry in the Cambridge 
# Structural Database, then it will include bibliographic, chemical, 
# crystal, experimental, refinement or atomic coordinate data resulting 
# from the CCDC's data processing and validation procedures.
#
#######################################################################

data_YABROK
_symmetry_cell_setting           triclinic
_symmetry_space_group_name_H-M   'P -1'
_symmetry_Int_Tables_number      2
_space_group_name_Hall           '-P 1'
loop_
_symmetry_equiv_pos_site_id
_symmetry_equiv_pos_as_xyz
1 x,y,z
2 -x,-y,-z
_cell_length_a                   7.7332(15)
_cell_length_b                   9.7404(18)
_cell_length_c                   17.238(3)
_cell_angle_alpha                91.833(3)
_cell_angle_beta                 97.011(3)
_cell_angle_gamma                109.782(3)
_cell_volume                     1208.94
loop_
_atom_site_label
_atom_site_type_symbol
_atom_site_fract_x
_atom_site_fract_y
_atom_site_fract_z
Cd1 Cd 0.97336(2) 0.289742(18) 0.468907(10)
O1 O 1.4666(3) 0.3564(2) 0.86535(10)
O2 O 0.7286(3) 0.16167(19) 0.37222(11)
O3 O 0.7547(3) 0.03475(19) 0.47288(10)
O4 O 0.1980(2) -0.4297(2) 0.48537(11)
O5 O 0.0898(3) -0.56611(19) 0.37344(12)
O6 O 0.2552(3) -0.1949(2) 0.17099(11)
H1 H 0.1568 -0.2619 0.1569
O7 O 1.1905(3) 0.1889(2) 0.44175(13)
H2 H 1.2106 0.1247 0.4702
H3 H 1.2633 0.2192 0.4079
N1 N 1.0923(3) 0.2768(2) 0.59747(12)
N2 N 1.2924(4) 0.1258(3) 0.86726(14)
N3 N 1.4117(4) 0.1694(3) 0.93827(14)
N4 N 1.9376(3) 0.5948(3) 1.10041(14)
C1 C 1.3200(4) 0.3778(3) 0.70993(16)
H4 H 1.4222 0.4553 0.7342
C2 C 1.2394(4) 0.3849(3) 0.63495(16)
H5 H 1.2898 0.4688 0.6093
C3 C 1.0217(4) 0.1572(3) 0.63571(16)
H6 H 0.9185 0.0817 0.6105
C4 C 1.0934(4) 0.1403(3) 0.71004(15)
H7 H 1.0409 0.0550 0.7343
C5 C 1.2459(4) 0.2530(3) 0.74830(15)
C6 C 1.3290(4) 0.2386(3) 0.82692(15)
C7 C 1.5112(4) 0.3047(3) 0.93416(15)
C8 C 1.6579(4) 0.4049(3) 0.99155(16)
C9 C 1.7032(4) 0.3611(4) 1.06455(17)
H8 H 1.6406 0.2674 1.0782
C10 C 1.8429(4) 0.4594(4) 1.11638(18)
H9 H 1.8728 0.4295 1.1654
C11 C 1.8921(4) 0.6359(3) 1.02988(18)
H10 H 1.9564 0.7304 1.0179
C12 C 1.7546(4) 0.5452(3) 0.97410(16)
H11 H 1.7273 0.5778 0.9256
C13 C 0.5167(3) -0.0829(3) 0.36615(14)
C14 C 0.4322(3) -0.2026(3) 0.40685(14)
H12 H 0.4716 -0.2028 0.4600
C15 C 0.2890(3) -0.3220(2) 0.36800(14)
C16 C 0.2312(3) -0.3233(3) 0.28827(15)
H13 H 0.1393 -0.4053 0.2618
C17 C 0.3116(3) -0.2009(3) 0.24826(14)
C18 C 0.4527(3) -0.0812(3) 0.28737(14)
H14 H 0.5051 0.0010 0.2608
C19 C 0.6760(3) 0.0452(3) 0.40657(15)
C20 C 0.1871(3) -0.4484(3) 0.41169(15)
Cd1_2 Cd -0.02664(2) -0.710258(18) 0.468907(10)
Cd1A Cd 0.02664(2) -0.289742(18) 0.531093(10)
O4_2 O 1.1980(2) 0.5703(2) 0.48537(11)
O4A O 0.8020(2) 0.4297(2) 0.51463(11)
O5_2 O 1.0898(3) 0.43389(19) 0.37344(12)
O8 O 0.4421(4) 0.2847(3) 0.34181(18)
H15 H 0.5275 0.2479 0.3469
H16 H 0.3723 0.2658 0.2980
O9 O 0.8867(8) 0.2015(5) 0.2213(3)
H17 H 0.8410 0.1736 0.2629
H18 H 1.0042 0.2433 0.2255
O10 O 0.7470(7) 0.7313(7) 0.8091(3)
O11 O 0.2825(8) 0.0485(5) 0.0845(3)
H19 H 0.2815 -0.0351 0.0984
H20 H 0.3198 0.0736 0.0410
O12? O 0.985(3) 0.8647(18) 0.8806(12)
loop_
_geom_bond_atom_site_label_1
_geom_bond_atom_site_label_2
_geom_bond_site_symmetry_1
_geom_bond_site_symmetry_2
Cd1 O2 1_555 1_555
O1 C6 1_555 1_555
O2 C19 1_555 1_555
O3 Cd1 1_555 1_555
O4 C20 1_555 1_555
O5 C20 1_555 1_555
O6 H1 1_555 1_555
O7 Cd1 1_555 1_555
H2 O7 1_555 1_555
H3 O7 1_555 1_555
N1 Cd1 1_555 1_555
N2 N3 1_555 1_555
N3 C7 1_555 1_555
N4 C10 1_555 1_555
C1 H4 1_555 1_555
C2 N1 1_555 1_555
H5 C2 1_555 1_555
C3 N1 1_555 1_555
H6 C3 1_555 1_555
C4 C3 1_555 1_555
H7 C4 1_555 1_555
C5 C1 1_555 1_555
C6 N2 1_555 1_555
C7 O1 1_555 1_555
C8 C7 1_555 1_555
C9 C8 1_555 1_555
H8 C9 1_555 1_555
C10 C9 1_555 1_555
H9 C10 1_555 1_555
C11 N4 1_555 1_555
H10 C11 1_555 1_555
C12 C8 1_555 1_555
H11 C12 1_555 1_555
C13 C14 1_555 1_555
C14 H12 1_555 1_555
C15 C14 1_555 1_555
C16 C15 1_555 1_555
H13 C16 1_555 1_555
C17 O6 1_555 1_555
C18 C13 1_555 1_555
H14 C18 1_555 1_555
C19 O3 1_555 1_555
C20 C15 1_555 1_555
O8 H15 1_555 1_555
H16 O8 1_555 1_555
O9 H17 1_555 1_555
H18 O9 1_555 1_555
O11 H19 1_555 1_555
H20 O11 1_555 1_555
Cd1_2 O4 1_555 1_555
Cd1A O4 1_555 1_555
O4_2 Cd1 1_555 1_555
O4A Cd1 1_555 1_555
O5_2 Cd1 1_555 1_555
O5 Cd1_2 1_555 1_555
C1 C2 1_555 1_555
C4 C5 1_555 1_555
C5 C6 1_555 1_555
C11 C12 1_555 1_555
C13 C19 1_555 1_555
C16 C17 1_555 1_555
C17 C18 1_555 1_555

#END
