
#######################################################################
#
#                 Cambridge Crystallographic Data Centre
#                                CCDC 
#
#######################################################################
#
# If this CIF has been generated from an entry in the Cambridge 
# Structural Database, then it will include bibliographic, chemical, 
# crystal, experimental, refinement or atomic coordinate data resulting 
# from the CCDC's data processing and validation procedures.
#
#######################################################################

data_YABSEB
_symmetry_cell_setting           monoclinic
_symmetry_space_group_name_H-M   'P 21/c'
_symmetry_Int_Tables_number      14
_space_group_name_Hall           '-P 2ybc'
loop_
_symmetry_equiv_pos_site_id
_symmetry_equiv_pos_as_xyz
1 x,y,z
2 -x,1/2+y,1/2-z
3 -x,-y,-z
4 x,1/2-y,1/2+z
_cell_length_a                   11.8654(11)
_cell_length_b                   20.268(2)
_cell_length_c                   19.0750(19)
_cell_angle_alpha                90
_cell_angle_beta                 90.2250(10)
_cell_angle_gamma                90
_cell_volume                     4587.27
loop_
_atom_site_label
_atom_site_type_symbol
_atom_site_fract_x
_atom_site_fract_y
_atom_site_fract_z
Sn1 Sn 0.49434(4) 0.37182(2) 0.28140(2)
Sn2 Sn 0.98596(4) 0.33469(2) 0.33270(3)
Se1 Se 0.71176(6) 0.33683(4) 0.40822(4)
Se2 Se 0.21375(6) 0.43146(4) 0.26881(4)
O1 O 0.6568(3) 0.3371(2) 0.3267(2)
O2 O 0.3351(3) 0.4071(2) 0.2310(2)
O3 O 0.1312(3) 0.3640(2) 0.2654(2)
O4 O 0.8403(3) 0.3034(2) 0.3974(2)
C1 C 0.4348(6) 0.4105(4) 0.3772(3)
C2 C 0.9507(5) 0.4342(3) 0.3538(3)
C3 C 0.5845(6) 0.4372(4) 0.2151(3)
C4 C 0.4622(6) 0.2758(3) 0.2415(3)
C5 C 0.8616(6) 0.4680(4) 0.3239(3)
H1 H 0.8115 0.4450 0.2953
C6 C 0.9245(6) 0.2800(4) 0.2464(4)
C7 C 0.6794(6) 0.4146(4) 0.1802(4)
H2 H 0.7013 0.3707 0.1851
C8 C 1.0898(6) 0.2824(3) 0.4045(4)
C9 C 0.3568(6) 0.2570(3) 0.2167(3)
H3 H 0.2963 0.2857 0.2222
C10 C 0.1567(6) 0.4815(4) 0.1922(4)
C11 C 0.6167(6) 0.5447(4) 0.1638(4)
H4 H 0.5948 0.5885 0.1588
C12 C 0.3755(6) 0.3754(4) 0.4273(4)
H5 H 0.3708 0.3298 0.4229
C13 C 0.0723(6) 0.5252(4) 0.1988(4)
H6 H 0.0387 0.5293 0.2426
C14 C 0.6405(6) 0.2615(3) 0.4486(4)
C15 C 0.5494(6) 0.2308(4) 0.2315(4)
H7 H 0.6216 0.2419 0.2464
C16 C 0.9162(6) 0.5701(4) 0.3773(4)
H8 H 0.9059 0.6151 0.3840
C17 C 0.5317(6) 0.1693(4) 0.1994(4)
H9 H 0.5909 0.1397 0.1941
C18 C 0.6469(6) 0.2007(4) 0.4166(4)
H10 H 0.6875 0.1962 0.3753
C19 C 1.0211(6) 0.4720(4) 0.3986(3)
H11 H 1.0811 0.4513 0.4212
C20 C 0.7426(6) 0.4571(4) 0.1378(4)
H12 H 0.8058 0.4413 0.1145
C21 C 0.7116(6) 0.5216(4) 0.1306(4)
H13 H 0.7547 0.5500 0.1033
C22 C 0.4262(6) 0.1537(4) 0.1764(4)
H14 H 0.4135 0.1131 0.1552
C23 C 0.5354(6) 0.1515(4) 0.5078(4)
C24 C 1.0034(6) 0.5386(4) 0.4098(4)
H15 H 1.0511 0.5620 0.4396
C25 C 0.5540(6) 0.5018(4) 0.2049(3)
H16 H 0.4890 0.5174 0.2263
C26 C 1.1775(6) 0.2431(4) 0.3823(4)
H17 H 1.1915 0.2396 0.3345
C27 C 0.5293(6) 0.2119(4) 0.5396(4)
H18 H 0.4897 0.2165 0.5813
C28 C 0.8838(6) 0.2167(4) 0.2559(4)
H19 H 0.8828 0.1990 0.3009
C29 C 0.8438(6) 0.5357(4) 0.3348(4)
H20 H 0.7834 0.5570 0.3134
C30 C 0.3842(6) 0.5085(4) 0.4454(4)
H21 H 0.3891 0.5539 0.4512
C31 C 1.0702(6) 0.2844(3) 0.4757(4)
H22 H 1.0108 0.3100 0.4919
C32 C 0.8793(7) 0.2657(4) 0.1226(4)
H23 H 0.8768 0.2830 0.0774
C33 C 0.5936(6) 0.1461(4) 0.4454(4)
H24 H 0.5971 0.1056 0.4225
C34 C 0.3391(6) 0.1968(4) 0.1840(4)
H25 H 0.2678 0.1858 0.1672
C35 C 0.4364(6) 0.4782(4) 0.3886(4)
H26 H 0.4744 0.5047 0.3567
C36 C 0.5821(6) 0.2668(4) 0.5099(4)
H27 H 0.5774 0.3075 0.5322
C37 C 0.0323(6) 0.5641(4) 0.1455(4)
H28 H -0.0280 0.5923 0.1540
C38 C 0.3232(6) 0.4050(4) 0.4836(4)
H29 H 0.2852 0.3792 0.5162
C39 C 0.0776(7) 0.5626(4) 0.0821(5)
C40 C 1.2237(6) 0.2123(4) 0.5003(5)
H30 H 1.2687 0.1894 0.5321
C41 C 0.8446(6) 0.1791(4) 0.2007(4)
H31 H 0.8205 0.1361 0.2089
C42 C 0.9228(6) 0.3032(4) 0.1781(4)
H32 H 0.9514 0.3450 0.1689
C43 C 1.2472(6) 0.2079(4) 0.4301(4)
H33 H 1.3072 0.1826 0.4141
C44 C 1.1357(6) 0.2496(4) 0.5249(4)
H34 H 1.1199 0.2517 0.5726
C45 C 0.2050(7) 0.4777(4) 0.1300(4)
H35 H 0.2634 0.4479 0.1227
C46 C 0.1677(7) 0.5195(4) 0.0737(4)
H36 H 0.2046 0.5177 0.0308
C47 C 0.4745(6) 0.0934(3) 0.5381(4)
H37 H 0.4416 0.1056 0.5821
H38 H 0.5267 0.0578 0.5453
H39 H 0.4162 0.0795 0.5063
C48 C 0.3266(6) 0.4716(4) 0.4918(4)
H40 H 0.2895 0.4916 0.5290
C49 C 0.8408(6) 0.2035(4) 0.1354(4)
H41 H 0.8118 0.1781 0.0990
C50 C 0.0409(8) 0.6071(5) 0.0235(4)
H42 H -0.0276 0.6291 0.0363
H43 H 0.0283 0.5814 -0.0181
H44 H 0.0985 0.6393 0.0147
Sn2_2 Sn -0.01404(4) 0.33469(2) 0.33270(3)
O3_2 O 1.1312(3) 0.3640(2) 0.2654(2)
loop_
_geom_bond_atom_site_label_1
_geom_bond_atom_site_label_2
_geom_bond_site_symmetry_1
_geom_bond_site_symmetry_2
Sn1 O1 1_555 1_555
Sn2 O4 1_555 1_555
Se1 O1 1_555 1_555
Se2 O2 1_555 1_555
O2 Sn1 1_555 1_555
O3 Se2 1_555 1_555
O4 Se1 1_555 1_555
C1 Sn1 1_555 1_555
C2 Sn2 1_555 1_555
C3 Sn1 1_555 1_555
C4 Sn1 1_555 1_555
C5 C2 1_555 1_555
H1 C5 1_555 1_555
C6 Sn2 1_555 1_555
C7 C3 1_555 1_555
H2 C7 1_555 1_555
C8 Sn2 1_555 1_555
C9 C4 1_555 1_555
H3 C9 1_555 1_555
C10 Se2 1_555 1_555
C11 H4 1_555 1_555
C12 C1 1_555 1_555
H5 C12 1_555 1_555
C13 C10 1_555 1_555
H6 C13 1_555 1_555
C14 Se1 1_555 1_555
C15 C4 1_555 1_555
H7 C15 1_555 1_555
C16 H8 1_555 1_555
C17 C15 1_555 1_555
H9 C17 1_555 1_555
C18 C14 1_555 1_555
H10 C18 1_555 1_555
C19 C2 1_555 1_555
H11 C19 1_555 1_555
C20 C7 1_555 1_555
H12 C20 1_555 1_555
C21 C11 1_555 1_555
H13 C21 1_555 1_555
C22 C17 1_555 1_555
H14 C22 1_555 1_555
C23 C27 1_555 1_555
C24 C16 1_555 1_555
H15 C24 1_555 1_555
C25 C3 1_555 1_555
H16 C25 1_555 1_555
C26 C8 1_555 1_555
H17 C26 1_555 1_555
C27 H18 1_555 1_555
C28 C6 1_555 1_555
H19 C28 1_555 1_555
C29 C5 1_555 1_555
H20 C29 1_555 1_555
C30 H21 1_555 1_555
C31 C8 1_555 1_555
H22 C31 1_555 1_555
C32 H23 1_555 1_555
C33 C18 1_555 1_555
H24 C33 1_555 1_555
C34 C9 1_555 1_555
H25 C34 1_555 1_555
C35 C1 1_555 1_555
H26 C35 1_555 1_555
C36 C14 1_555 1_555
H27 C36 1_555 1_555
C37 C13 1_555 1_555
H28 C37 1_555 1_555
C38 C12 1_555 1_555
H29 C38 1_555 1_555
C39 C37 1_555 1_555
C40 H30 1_555 1_555
C41 C28 1_555 1_555
H31 C41 1_555 1_555
C42 C6 1_555 1_555
H32 C42 1_555 1_555
C43 C26 1_555 1_555
H33 C43 1_555 1_555
C44 C31 1_555 1_555
H34 C44 1_555 1_555
C45 C10 1_555 1_555
H35 C45 1_555 1_555
C46 C39 1_555 1_555
H36 C46 1_555 1_555
C47 C23 1_555 1_555
H37 C47 1_555 1_555
H38 C47 1_555 1_555
H39 C47 1_555 1_555
C48 C30 1_555 1_555
H40 C48 1_555 1_555
C49 C32 1_555 1_555
H41 C49 1_555 1_555
C50 C39 1_555 1_555
H42 C50 1_555 1_555
H43 C50 1_555 1_555
H44 C50 1_555 1_555
Sn2_2 O3 1_555 1_555
O3_2 Sn2 1_555 1_555
C11 C25 1_555 1_555
C16 C29 1_555 1_555
C19 C24 1_555 1_555
C20 C21 1_555 1_555
C22 C34 1_555 1_555
C23 C33 1_555 1_555
C27 C36 1_555 1_555
C30 C35 1_555 1_555
C32 C42 1_555 1_555
C38 C48 1_555 1_555
C40 C43 1_555 1_555
C40 C44 1_555 1_555
C41 C49 1_555 1_555
C45 C46 1_555 1_555

#END
