
#######################################################################
#
#                 Cambridge Crystallographic Data Centre
#                                CCDC 
#
#######################################################################
#
# If this CIF has been generated from an entry in the Cambridge 
# Structural Database, then it will include bibliographic, chemical, 
# crystal, experimental, refinement or atomic coordinate data resulting 
# from the CCDC's data processing and validation procedures.
#
#######################################################################

data_YABWUV
_symmetry_cell_setting           triclinic
_symmetry_space_group_name_H-M   'P -1'
_symmetry_Int_Tables_number      2
_space_group_name_Hall           '-P 1'
loop_
_symmetry_equiv_pos_site_id
_symmetry_equiv_pos_as_xyz
1 x,y,z
2 -x,-y,-z
_cell_length_a                   10.1805(16)
_cell_length_b                   10.4786(15)
_cell_length_c                   11.1446(17)
_cell_angle_alpha                102.413(4)
_cell_angle_beta                 103.402(3)
_cell_angle_gamma                115.664(3)
_cell_volume                     972.662
loop_
_atom_site_label
_atom_site_type_symbol
_atom_site_fract_x
_atom_site_fract_y
_atom_site_fract_z
V1 V 0.51667(11) 0.44422(11) 0.36151(10)
Cu1 Cu -0.53515(8) 0.14273(8) -0.43290(7)
P1 P -0.48689(18) -0.12044(18) -0.28554(16)
P2 P 0.25869(18) 0.53429(18) 0.36811(16)
F1 F 0.5793(4) 0.6347(3) 0.4946(3)
O1 O 0.5979(4) 0.5031(4) 0.2632(4)
O2 O 0.3146(4) 0.4379(4) 0.2962(4)
O3 O -0.4157(4) -0.2194(4) -0.2736(4)
O4 O -0.6690(5) -0.2117(4) -0.3151(4)
H1 H -0.6944 -0.2968 -0.3134
O5 O -0.4581(5) -0.0494(5) -0.3888(4)
O6 O 0.2938(4) 0.5482(4) 0.5134(4)
O7 O 0.3209(4) 0.6908(4) 0.3583(4)
N1 N -0.7615(5) -0.0153(5) -0.4840(5)
N2 N -0.5616(5) 0.2095(5) -0.2616(5)
C1 C -0.4138(7) 0.0196(7) -0.1254(6)
H2 H -0.4277 -0.0315 -0.0624
H3 H -0.4773 0.0670 -0.1274
C2 C -0.2396(7) 0.1459(7) -0.0743(6)
H4 H -0.2270 0.2110 -0.1260
H5 H -0.1755 0.1007 -0.0843
C3 C -0.1855(7) 0.2409(7) 0.0726(6)
H6 H -0.2084 0.1736 0.1221
H7 H -0.2442 0.2924 0.0807
C4 C -0.0086(7) 0.3595(8) 0.1329(6)
H8 H 0.0118 0.4382 0.0952
H9 H 0.0496 0.3112 0.1110
C5 C 0.0482(6) 0.4322(6) 0.2861(6)
H10 H 0.0025 0.3528 0.3205
H11 H 0.0101 0.5013 0.3069
C6 C -0.8582(7) -0.1290(7) -0.5997(6)
H12 H -0.8222 -0.1407 -0.6685
C7 C -1.0134(7) -0.2307(7) -0.6187(6)
H13 H -1.0784 -0.3092 -0.6999
C8 C -1.0701(7) -0.2175(7) -0.5226(7)
H14 H -1.1741 -0.2843 -0.5377
C9 C -0.9695(7) -0.1002(7) -0.3973(6)
C10 C -1.0139(7) -0.0754(7) -0.2844(7)
H15 H -1.1163 -0.1384 -0.2925
C11 C -0.9103(8) 0.0375(8) -0.1667(7)
H16 H -0.9409 0.0496 -0.0946
C12 C -0.7524(7) 0.1384(7) -0.1540(6)
C13 C -0.6344(8) 0.2590(7) -0.0338(6)
H17 H -0.6567 0.2755 0.0425
C14 C -0.4905(7) 0.3485(7) -0.0323(6)
H18 H -0.4130 0.4277 0.0451
C15 C -0.4575(7) 0.3217(7) -0.1487(6)
H19 H -0.3580 0.3858 -0.1458
C16 C -0.7064(7) 0.1197(7) -0.2623(6)
C17 C -0.8165(7) -0.0035(6) -0.3857(6)
V1A V 0.48333(11) 0.55578(11) 0.63849(10)
V1A_2 V -0.51667(11) -0.44422(11) -0.36151(10)
Cu1A Cu -0.46485(8) -0.14273(8) -0.56710(7)
Cu1A_2 Cu 0.53515(8) 0.85727(8) 0.43290(7)
F1A F 0.4207(4) 0.3653(3) 0.5054(3)
O3A O 0.4157(4) 0.2194(4) 0.2736(4)
O5A O -0.5419(5) 0.0494(5) -0.6112(4)
O6A O 0.7062(4) 0.4518(4) 0.4866(4)
O7A O -0.3209(4) 0.3092(4) -0.3583(4)
loop_
_geom_bond_atom_site_label_1
_geom_bond_atom_site_label_2
_geom_bond_site_symmetry_1
_geom_bond_site_symmetry_2
V1 F1 1_555 1_555
Cu1 O5 1_555 1_555
P1 O3 1_555 1_555
P2 O2 1_555 1_555
F1 V1A 1_555 1_555
O1 V1 1_555 1_555
O2 V1 1_555 1_555
O3 V1A_2 1_555 1_555
O4 P1 1_555 1_555
H1 O4 1_555 1_555
O5 P1 1_555 1_555
O6 P2 1_555 1_555
O7 P2 1_555 1_555
N1 Cu1 1_555 1_555
N2 Cu1 1_555 1_555
C1 P1 1_555 1_555
H2 C1 1_555 1_555
H3 C1 1_555 1_555
C2 C1 1_555 1_555
H4 C2 1_555 1_555
H5 C2 1_555 1_555
C3 C2 1_555 1_555
H6 C3 1_555 1_555
H7 C3 1_555 1_555
C4 C3 1_555 1_555
H8 C4 1_555 1_555
H9 C4 1_555 1_555
C5 P2 1_555 1_555
H10 C5 1_555 1_555
H11 C5 1_555 1_555
C6 N1 1_555 1_555
H12 C6 1_555 1_555
C7 C6 1_555 1_555
H13 C7 1_555 1_555
C8 C7 1_555 1_555
H14 C8 1_555 1_555
C9 C8 1_555 1_555
C10 C9 1_555 1_555
H15 C10 1_555 1_555
C11 C10 1_555 1_555
H16 C11 1_555 1_555
C12 C11 1_555 1_555
C13 C12 1_555 1_555
H17 C13 1_555 1_555
C14 C13 1_555 1_555
H18 C14 1_555 1_555
C15 N2 1_555 1_555
H19 C15 1_555 1_555
C16 N2 1_555 1_555
C17 N1 1_555 1_555
V1A O6 1_555 1_555
Cu1A O5 1_555 1_555
Cu1A_2 O7 1_555 1_555
F1A V1 1_555 1_555
O3A V1 1_555 1_555
O5A Cu1 1_555 1_555
O6A V1 1_555 1_555
O7A Cu1 1_555 1_555
C4 C5 1_555 1_555
C9 C17 1_555 1_555
C12 C16 1_555 1_555
C14 C15 1_555 1_555
C16 C17 1_555 1_555
V1A F1A 1_555 1_555
Cu1A O5A 1_555 1_555

#END
