
#######################################################################
#
#                 Cambridge Crystallographic Data Centre
#                                CCDC 
#
#######################################################################
#
# If this CIF has been generated from an entry in the Cambridge 
# Structural Database, then it will include bibliographic, chemical, 
# crystal, experimental, refinement or atomic coordinate data resulting 
# from the CCDC's data processing and validation procedures.
#
#######################################################################

data_YABXUW
_symmetry_cell_setting           monoclinic
_symmetry_space_group_name_H-M   'P 21/c'
_symmetry_Int_Tables_number      14
_space_group_name_Hall           '-P 2ybc'
loop_
_symmetry_equiv_pos_site_id
_symmetry_equiv_pos_as_xyz
1 x,y,z
2 -x,1/2+y,1/2-z
3 -x,-y,-z
4 x,1/2-y,1/2+z
_cell_length_a                   18.176(2)
_cell_length_b                   14.0057(18)
_cell_length_c                   24.547(3)
_cell_angle_alpha                90
_cell_angle_beta                 111.181(1)
_cell_angle_gamma                90
_cell_volume                     5826.72
loop_
_atom_site_label
_atom_site_type_symbol
_atom_site_fract_x
_atom_site_fract_y
_atom_site_fract_z
Co1 Co 0.76239(2) 0.26405(3) 0.791082(18)
O20 O 0.83672(13) 0.38520(16) 0.82894(10)
H19 H 0.8817(13) 0.368(2) 0.8298(15)
H20 H 0.8425(19) 0.4287(19) 0.8528(12)
O21 O 0.7458(2) 0.33905(19) 0.71550(11)
H21 H 0.712(2) 0.321(3) 0.6851(13)
H22 H 0.753(2) 0.3995(14) 0.7134(18)
O22 O 0.79648(12) 0.19844(15) 0.87488(9)
H23 H 0.8204(17) 0.2373(19) 0.9021(11)
H24 H 0.7682(16) 0.1630(19) 0.8867(13)
O23 O 0.86349(12) 0.19780(15) 0.78790(10)
O24 O 0.96683(12) 0.29643(14) 0.82061(9)
O25 O 1.22121(12) 0.17797(15) 0.80967(10)
O26 O 1.23254(12) 0.02767(16) 0.78597(10)
O27 O 0.95353(12) -0.10366(14) 0.73132(10)
H25 H 0.9807(17) -0.136(2) 0.7139(13)
N7 N 0.57217(16) -0.1194(2) 0.70556(14)
H28 H 0.6013(19) -0.1698(19) 0.7043(16)
N8 N 0.34479(15) -0.1855(2) 0.70109(12)
N9 N 0.69989(14) 0.13740(18) 0.74918(11)
C37 C 0.93529(17) 0.2162(2) 0.80092(13)
C38 C 0.98563(17) 0.1373(2) 0.79132(13)
C39 C 1.06576(17) 0.1498(2) 0.80355(13)
H51 H 1.0908 0.2077 0.8207
C40 C 1.10947(17) 0.0774(2) 0.79068(12)
C41 C 1.07310(17) -0.0086(2) 0.76719(13)
H52 H 1.1030 -0.0588 0.7593
C42 C 0.99318(17) -0.0207(2) 0.75547(13)
C43 C 0.94942(17) 0.0524(2) 0.76698(13)
H53 H 0.8944 0.0442 0.7581
C44 C 1.19428(17) 0.0944(2) 0.79685(13)
C45 C 0.73366(17) 0.0515(2) 0.76560(13)
H54 H 0.7883 0.0498 0.7888
C46 C 0.69429(17) -0.0342(2) 0.75094(13)
H55 H 0.7216 -0.0928 0.7629
C47 C 0.61376(18) -0.0335(2) 0.71830(14)
C48 C 0.57859(18) 0.0546(2) 0.69831(14)
H56 H 0.5245 0.0580 0.6739
C49 C 0.62301(18) 0.1365(2) 0.71423(14)
H57 H 0.5982 0.1958 0.6998
C50 C 0.39000(19) -0.2465(2) 0.68433(14)
H58 H 0.3687 -0.3076 0.6705
C51 C 0.46420(19) -0.2267(2) 0.68579(14)
H59 H 0.4934 -0.2738 0.6744
C52 C 0.49682(19) -0.1369(2) 0.70412(14)
C53 C 0.45123(19) -0.0725(2) 0.72212(15)
H60 H 0.4711 -0.0108 0.7358
C54 C 0.37720(19) -0.0996(2) 0.71972(15)
H61 H 0.3472 -0.0548 0.7320
Co1A Co 0.23761(2) -0.23595(3) 0.708918(18)
Co1_2 Co 0.76239(2) -0.73595(3) 0.791082(18)
O20A O 0.16328(13) -0.11480(16) 0.67106(10)
H19A H 0.1183(13) -0.132(2) 0.6702(15)
H20A H 0.1575(19) -0.0713(19) 0.6472(12)
O21A O 0.2542(2) -0.16095(19) 0.78450(11)
H21A H 0.288(2) -0.179(3) 0.8149(13)
H22A H 0.247(2) -0.1005(14) 0.7866(18)
O22A O 0.20352(12) -0.30156(15) 0.62512(9)
H23A H 0.1796(17) -0.2627(19) 0.5979(11)
H24A H 0.2318(16) -0.3370(19) 0.6133(13)
O23A O 0.13651(12) -0.30220(15) 0.71210(10)
O24A O 0.03317(12) -0.20357(14) 0.67939(9)
O25A O -0.22121(12) -0.32203(15) 0.69033(10)
O26A O -0.23254(12) -0.47233(16) 0.71403(10)
O27A O 0.04647(12) -0.60366(14) 0.76868(10)
H25A H 0.0193(17) -0.636(2) 0.7861(13)
N7A N 0.42783(16) -0.6194(2) 0.79444(14)
H28A H 0.3987(19) -0.6698(19) 0.7957(16)
N8A N 0.65521(15) 0.3145(2) 0.79891(12)
N8A_2 N 0.65521(15) -0.6855(2) 0.79891(12)
N9A N 0.30011(14) -0.36260(18) 0.75082(11)
C37A C 0.06471(17) -0.2838(2) 0.69908(13)
C38A C 0.01437(17) -0.3627(2) 0.70868(13)
C39A C -0.06576(17) -0.3502(2) 0.69645(13)
H51A H -0.0908 -0.2923 0.6793
C40A C -0.10947(17) -0.4226(2) 0.70932(12)
C41A C -0.07310(17) -0.5086(2) 0.73281(13)
H52A H -0.1030 -0.5588 0.7407
C42A C 0.00682(17) -0.5207(2) 0.74453(13)
C43A C 0.05058(17) -0.4476(2) 0.73302(13)
H53A H 0.1056 -0.4558 0.7419
C44A C -0.19428(17) -0.4056(2) 0.70315(13)
C45A C 0.26634(17) -0.4485(2) 0.73440(13)
H54A H 0.2117 -0.4502 0.7112
C46A C 0.30571(17) -0.5342(2) 0.74906(13)
H55A H 0.2784 -0.5928 0.7371
C47A C 0.38624(18) -0.5335(2) 0.78170(14)
C48A C 0.42141(18) -0.4454(2) 0.80169(14)
H56A H 0.4755 -0.4420 0.8261
C49A C 0.37699(18) -0.3635(2) 0.78577(14)
H57A H 0.4018 -0.3042 0.8002
C50A C 0.61000(19) -0.7465(2) 0.81567(14)
H58A H 0.6313 -0.8076 0.8295
C51A C 0.53580(19) -0.7267(2) 0.81421(14)
H59A H 0.5066 -0.7738 0.8256
C52A C 0.50318(19) -0.6369(2) 0.79588(14)
C53A C 0.54877(19) -0.5725(2) 0.77788(15)
H60A H 0.5289 -0.5108 0.7642
C54A C 0.62280(19) -0.5996(2) 0.78028(15)
H61A H 0.6528 -0.5548 0.7680
Co2 Co -0.11158(2) -0.27146(3) 0.866671(18)
Co3 Co 0.41991(2) 0.23028(3) 0.95308(2)
O1 O 0.46723(13) 0.28917(16) 1.03956(11)
H1 H 0.4395(17) 0.325(2) 1.0527(14)
H2 H 0.4927(18) 0.251(2) 1.0667(12)
O3 O 0.48955(14) 0.10630(16) 0.98440(12)
H5 H 0.5381(12) 0.120(2) 0.9972(15)
H6 H 0.4801(19) 0.0576(18) 0.9643(14)
O5 O 0.38169(16) 0.17222(18) 0.86532(13)
H9 H 0.4255(15) 0.160(3) 0.8905(14)
H10 H 0.384(2) 0.1155(15) 0.8594(17)
O7 O 0.87366(11) 0.31466(14) 0.96526(9)
O8 O 0.88974(12) 0.46767(15) 0.94907(11)
O9 O 0.51701(12) 0.29717(15) 0.94368(10)
O10 O 0.61989(12) 0.19843(14) 0.97671(10)
O11 O 0.61382(12) 0.60583(14) 0.90279(10)
H11 H 0.6421(17) 0.638(2) 0.8853(13)
O12 O -0.09753(13) -0.34313(15) 0.94387(10)
H12 H -0.0686(17) -0.326(2) 0.9779(9)
H13 H -0.1026(19) -0.4030(13) 0.9443(13)
O13 O -0.18862(13) -0.39264(16) 0.83071(10)
H14 H -0.1999(18) -0.423(2) 0.7994(10)
H15 H -0.2322(13) -0.374(2) 0.8322(14)
O14 O -0.14287(13) -0.20518(16) 0.78187(10)
H16 H -0.1107(16) -0.171(2) 0.7727(13)
H17 H -0.1684(17) -0.241(2) 0.7547(11)
O15 O -0.20952(12) -0.19819(15) 0.86858(10)
O16 O -0.30910(12) -0.30100(15) 0.84922(10)
O17 O -0.55873(13) -0.17496(16) 0.87049(11)
O18 O -0.57016(12) -0.01899(16) 0.88288(11)
O19 O -0.29195(12) 0.10314(14) 0.93034(10)
H18 H -0.3204(17) 0.135(2) 0.9463(13)
N1 N 0.31941(14) 0.17095(18) 0.96679(12)
N2 N 0.09228(14) 0.10069(18) 0.96046(12)
H26 H 0.0642(16) 0.1530(17) 0.9605(14)
N3 N -0.04356(14) -0.14846(17) 0.90883(11)
N4 N 0.35737(14) -0.64117(18) 0.92090(11)
N5 N 0.22961(15) -0.3856(2) 0.88106(13)
H27 H 0.2547(18) -0.3332(17) 0.8799(15)
N6 N -0.00574(14) -0.32786(18) 0.85985(11)
C1 C 0.27582(17) 0.2281(2) 0.98726(14)
H29 H 0.2976 0.2880 1.0032
C2 C 0.20230(17) 0.2058(2) 0.98676(13)
H30 H 0.1743 0.2497 1.0016
C3 C 0.21414(17) 0.0556(2) 0.94449(13)
H31 H 0.1948 -0.0059 0.9301
C4 C 0.28735(18) 0.0851(2) 0.94642(14)
H32 H 0.3172 0.0424 0.9325
C5 C 0.16875(17) 0.1177(2) 0.96406(13)
C6 C 0.04875(17) 0.0164(2) 0.94453(13)
C7 C -0.03183(17) 0.0223(2) 0.91205(13)
H33 H -0.0569 0.0827 0.9019
C8 C -0.07454(17) -0.0604(2) 0.89489(13)
H34 H -0.1291 -0.0552 0.8718
C9 C 0.08104(17) -0.0736(2) 0.96180(13)
H35 H 0.1351 -0.0804 0.9857
C10 C 0.03374(17) -0.1525(2) 0.94376(13)
H36 H 0.0564 -0.2134 0.9564
C11 C 0.27934(18) -0.6402(2) 0.88829(14)
H37 H 0.2539 -0.6994 0.8747
C12 C 0.23491(18) -0.5588(2) 0.87378(14)
H38 H 0.1802 -0.5623 0.8510
C13 C 0.39180(17) -0.5557(2) 0.93644(14)
H39 H 0.4469 -0.5542 0.9581
C14 C 0.35227(17) -0.4702(2) 0.92300(13)
H40 H 0.3799 -0.4116 0.9341
C15 C 0.27035(18) -0.4710(2) 0.89261(14)
C16 C 0.15151(17) -0.3713(2) 0.87373(13)
C17 C 0.11572(18) -0.2857(2) 0.84789(13)
H41 H 0.1444 -0.2402 0.8348
C18 C 0.03925(18) -0.2683(2) 0.84169(13)
H42 H 0.0160 -0.2103 0.8234
C19 C 0.02919(18) -0.4092(2) 0.88541(14)
H43 H -0.0006 -0.4524 0.8991
C20 C 0.10575(18) -0.4337(2) 0.89285(14)
H44 H 0.1273 -0.4925 0.9108
C21 C 0.58876(17) 0.2793(2) 0.95779(13)
C22 C 0.64068(16) 0.3585(2) 0.95111(12)
C23 C 0.72055(16) 0.3451(2) 0.96231(13)
H45 H 0.7444 0.2853 0.9766
C24 C 0.76586(17) 0.4187(2) 0.95276(13)
C25 C 0.73143(17) 0.5071(2) 0.93362(13)
H46 H 0.7623 0.5581 0.9278
C26 C 0.65161(17) 0.5206(2) 0.92303(13)
C27 C 0.60632(17) 0.4466(2) 0.93114(13)
H47 H 0.5516 0.4560 0.9231
C28 C 0.84992(17) 0.4000(2) 0.95722(13)
C29 C -0.27893(17) -0.2190(2) 0.86330(13)
C30 C -0.32746(17) -0.1397(2) 0.87490(13)
C31 C -0.29016(17) -0.0536(2) 0.89638(13)
H48 H -0.2357 -0.0459 0.9030
C32 C -0.33192(17) 0.0204(2) 0.90808(14)
C33 C -0.41165(17) 0.0095(2) 0.89845(13)
H49 H -0.4408 0.0615 0.9052
C34 C -0.44892(17) -0.0773(2) 0.87897(13)
C35 C -0.40669(17) -0.1522(2) 0.86647(13)
H50 H -0.4320 -0.2113 0.8523
C36 C -0.53255(18) -0.0906(2) 0.87674(14)
Co3_2 Co 0.41991(2) -0.76972(3) 0.95308(2)
N4_2 N 0.35737(14) 0.35883(18) 0.92090(11)
O2 O 0.31436(18) 0.7873(2) 0.90061(14)
H3 H 0.3540 0.7998 0.8913
H4 H 0.3338 0.7919 0.9377
O4 O 0.00626(13) 0.27674(17) 0.94753(10)
H7 H -0.0374(14) 0.292(2) 0.9512(14)
H8 H -0.0042(19) 0.288(2) 0.9117(8)
O6 O 0.6580(8) -0.2781(9) 0.7269(6)
loop_
_geom_bond_atom_site_label_1
_geom_bond_atom_site_label_2
_geom_bond_site_symmetry_1
_geom_bond_site_symmetry_2
Co1 O20 1_555 1_555
Co2 O12 1_555 1_555
Co3 O1 1_555 1_555
O1 H1 1_555 1_555
H2 O1 1_555 1_555
O2 H3 1_555 1_555
H4 O2 1_555 1_555
O3 Co3 1_555 1_555
H5 O3 1_555 1_555
H6 O3 1_555 1_555
O4 H7 1_555 1_555
H8 O4 1_555 1_555
O5 Co3 1_555 1_555
H9 O5 1_555 1_555
H10 O5 1_555 1_555
O7 C28 1_555 1_555
O8 C28 1_555 1_555
O9 Co3 1_555 1_555
O10 C21 1_555 1_555
O11 H11 1_555 1_555
O12 H12 1_555 1_555
H13 O12 1_555 1_555
O13 Co2 1_555 1_555
H14 O13 1_555 1_555
H15 O13 1_555 1_555
O14 Co2 1_555 1_555
H16 O14 1_555 1_555
H17 O14 1_555 1_555
O15 Co2 1_555 1_555
O16 C29 1_555 1_555
O17 C36 1_555 1_555
O18 C36 1_555 1_555
O19 H18 1_555 1_555
O20 H19 1_555 1_555
H20 O20 1_555 1_555
O21 Co1 1_555 1_555
H21 O21 1_555 1_555
H22 O21 1_555 1_555
O22 Co1 1_555 1_555
H23 O22 1_555 1_555
H24 O22 1_555 1_555
O23 Co1 1_555 1_555
O24 C37 1_555 1_555
O25 C44 1_555 1_555
O26 C44 1_555 1_555
O27 H25 1_555 1_555
N1 Co3 1_555 1_555
N2 H26 1_555 1_555
N3 Co2 1_555 1_555
N4 C11 1_555 1_555
N5 H27 1_555 1_555
N6 Co2 1_555 1_555
N7 H28 1_555 1_555
N8 C50 1_555 1_555
N9 Co1 1_555 1_555
C1 N1 1_555 1_555
H29 C1 1_555 1_555
C2 C1 1_555 1_555
H30 C2 1_555 1_555
C3 H31 1_555 1_555
C4 N1 1_555 1_555
H32 C4 1_555 1_555
C5 N2 1_555 1_555
C6 N2 1_555 1_555
C7 C6 1_555 1_555
H33 C7 1_555 1_555
C8 N3 1_555 1_555
H34 C8 1_555 1_555
C9 C6 1_555 1_555
H35 C9 1_555 1_555
C10 N3 1_555 1_555
H36 C10 1_555 1_555
C11 H37 1_555 1_555
C12 C11 1_555 1_555
H38 C12 1_555 1_555
C13 N4 1_555 1_555
H39 C13 1_555 1_555
C14 C13 1_555 1_555
H40 C14 1_555 1_555
C15 N5 1_555 1_555
C16 N5 1_555 1_555
C17 C16 1_555 1_555
H41 C17 1_555 1_555
C18 N6 1_555 1_555
H42 C18 1_555 1_555
C19 N6 1_555 1_555
H43 C19 1_555 1_555
C20 C16 1_555 1_555
H44 C20 1_555 1_555
C21 O9 1_555 1_555
C22 C21 1_555 1_555
C23 C22 1_555 1_555
H45 C23 1_555 1_555
C24 C23 1_555 1_555
C25 C24 1_555 1_555
H46 C25 1_555 1_555
C26 O11 1_555 1_555
C27 C22 1_555 1_555
H47 C27 1_555 1_555
C28 C24 1_555 1_555
C29 O15 1_555 1_555
C30 C29 1_555 1_555
C31 C30 1_555 1_555
H48 C31 1_555 1_555
C32 O19 1_555 1_555
C33 C32 1_555 1_555
H49 C33 1_555 1_555
C34 C33 1_555 1_555
C35 C30 1_555 1_555
H50 C35 1_555 1_555
C36 C34 1_555 1_555
C37 O23 1_555 1_555
C38 C37 1_555 1_555
C39 C38 1_555 1_555
H51 C39 1_555 1_555
C40 C39 1_555 1_555
C41 C40 1_555 1_555
H52 C41 1_555 1_555
C42 O27 1_555 1_555
C43 C38 1_555 1_555
H53 C43 1_555 1_555
C44 C40 1_555 1_555
C45 N9 1_555 1_555
H54 C45 1_555 1_555
C46 C45 1_555 1_555
H55 C46 1_555 1_555
C47 N7 1_555 1_555
C48 C47 1_555 1_555
H56 C48 1_555 1_555
C49 N9 1_555 1_555
H57 C49 1_555 1_555
C50 H58 1_555 1_555
C51 C50 1_555 1_555
H59 C51 1_555 1_555
C52 N7 1_555 1_555
C53 C52 1_555 1_555
H60 C53 1_555 1_555
C54 N8 1_555 1_555
H61 C54 1_555 1_555
Co1A N8 1_555 1_555
Co1_2 N8A_2 1_555 1_555
Co3_2 N4 1_555 1_555
O20A Co1A 1_555 1_555
H19A O20A 1_555 1_555
H20A O20A 1_555 1_555
O21A Co1A 1_555 1_555
H21A O21A 1_555 1_555
H22A O21A 1_555 1_555
O22A Co1A 1_555 1_555
H23A O22A 1_555 1_555
H24A O22A 1_555 1_555
O23A Co1A 1_555 1_555
O24A C37A 1_555 1_555
O25A C44A 1_555 1_555
O26A C44A 1_555 1_555
O27A H25A 1_555 1_555
N4_2 Co3 1_555 1_555
N7A H28A 1_555 1_555
N8A Co1 1_555 1_555
N8A_2 C50A 1_555 1_555
N9A Co1A 1_555 1_555
C37A O23A 1_555 1_555
C38A C37A 1_555 1_555
C39A C38A 1_555 1_555
H51A C39A 1_555 1_555
C40A C39A 1_555 1_555
C41A C40A 1_555 1_555
H52A C41A 1_555 1_555
C42A O27A 1_555 1_555
C43A C38A 1_555 1_555
H53A C43A 1_555 1_555
C44A C40A 1_555 1_555
C45A N9A 1_555 1_555
H54A C45A 1_555 1_555
C46A C45A 1_555 1_555
H55A C46A 1_555 1_555
C47A N7A 1_555 1_555
C48A C47A 1_555 1_555
H56A C48A 1_555 1_555
C49A N9A 1_555 1_555
H57A C49A 1_555 1_555
C50A H58A 1_555 1_555
C51A C50A 1_555 1_555
H59A C51A 1_555 1_555
C52A N7A 1_555 1_555
C53A C52A 1_555 1_555
H60A C53A 1_555 1_555
C54A N8A_2 1_555 1_555
H61A C54A 1_555 1_555
C2 C5 1_555 1_555
C3 C4 1_555 1_555
C3 C5 1_555 1_555
C7 C8 1_555 1_555
C9 C10 1_555 1_555
C12 C15 1_555 1_555
C14 C15 1_555 1_555
C17 C18 1_555 1_555
C19 C20 1_555 1_555
C25 C26 1_555 1_555
C26 C27 1_555 1_555
C31 C32 1_555 1_555
C34 C35 1_555 1_555
C41 C42 1_555 1_555
C42 C43 1_555 1_555
C46 C47 1_555 1_555
C48 C49 1_555 1_555
C51 C52 1_555 1_555
C53 C54 1_555 1_555
C41A C42A 1_555 1_555
C42A C43A 1_555 1_555
C46A C47A 1_555 1_555
C48A C49A 1_555 1_555
C51A C52A 1_555 1_555
C53A C54A 1_555 1_555

#END
