
#######################################################################
#
#                 Cambridge Crystallographic Data Centre
#                                CCDC 
#
#######################################################################
#
# If this CIF has been generated from an entry in the Cambridge 
# Structural Database, then it will include bibliographic, chemical, 
# crystal, experimental, refinement or atomic coordinate data resulting 
# from the CCDC's data processing and validation procedures.
#
#######################################################################

data_YABXOQ
_symmetry_cell_setting           monoclinic
_symmetry_space_group_name_H-M   'P 21/c'
_symmetry_Int_Tables_number      14
_space_group_name_Hall           '-P 2ybc'
loop_
_symmetry_equiv_pos_site_id
_symmetry_equiv_pos_as_xyz
1 x,y,z
2 -x,1/2+y,1/2-z
3 -x,-y,-z
4 x,1/2-y,1/2+z
_cell_length_a                   23.7681(15)
_cell_length_b                   18.6018(12)
_cell_length_c                   9.9930(6)
_cell_angle_alpha                90
_cell_angle_beta                 93.7810(10)
_cell_angle_gamma                90
_cell_volume                     4408.58
loop_
_atom_site_label
_atom_site_type_symbol
_atom_site_fract_x
_atom_site_fract_y
_atom_site_fract_z
Co1 Co 0.09693(2) 0.45285(3) 0.01459(5)
Co2 Co 0.40320(2) 0.95406(3) -0.04524(5)
O1 O 0.11970(15) 0.4537(2) 0.7233(3)
O2 O 0.44133(13) 1.05945(18) -0.0366(3)
H1 H 0.4601(17) 1.062(3) 0.042(2)
H2 H 0.4698(14) 1.057(3) -0.090(4)
O3 O 0.39845(17) 0.9578(2) -0.2636(3)
O4 O 0.37650(13) 0.94857(19) -0.7574(3)
O5 O 0.45167(12) 0.93394(17) -0.8727(3)
O6 O 0.47531(13) 0.91853(18) -0.1576(3)
O7 O 0.05788(12) 0.55530(15) 0.0484(3)
H3 H 0.0403(16) 0.570(2) -0.026(3)
H4 H 0.0284(13) 0.552(2) 0.098(3)
O8 O 0.02753(11) 0.40612(15) 0.1267(2)
O9 O 0.10431(12) 0.44594(16) 0.2344(3)
O10 O 0.04511(12) 0.44460(14) 0.8427(3)
N1 N 0.31102(17) 0.6363(2) -0.0945(5)
H5 H 0.336(2) 0.612(3) -0.132(5)
N2 N 0.18307(15) 0.1396(2) -0.1024(4)
H6 H 0.161(2) 0.121(2) -0.159(5)
N3 N 0.36733(15) 0.8491(2) -0.0510(4)
N4 N 0.13098(14) 0.34805(18) -0.0058(3)
N5 N 0.17254(14) 0.50997(19) -0.0032(3)
N6 N 0.32667(14) 0.00947(19) -0.0436(3)
C1 C -0.1005(4) 0.2599(5) 0.5171(12)
H7 H -0.0630 0.2519 0.5618
H8 H -0.1031 0.2350 0.4305
H9 H -0.1294 0.2412 0.5734
C2 C 0.6365(3) 0.8586(5) -0.6457(6)
H10 H 0.6746 0.8383 -0.6409
H11 H 0.6388 0.9112 -0.6426
H12 H 0.6162 0.8437 -0.7296
C3 C 0.3224(4) 0.8261(3) -0.0035(9)
H13 H 0.3009 0.8603 0.0421
C4 C 0.3013(3) 0.7573(3) -0.0107(8)
H14 H 0.2674 0.7464 0.0305
C5 C -0.1442(3) 0.3472(5) 0.3654(6)
H15 H -0.1802 0.3223 0.3726
H16 H -0.1238 0.3253 0.2936
H17 H -0.1512 0.3981 0.3448
C6 C 0.09837(19) 0.3005(2) -0.0753(5)
H18 H 0.0613 0.3150 -0.1053
C7 C -0.1097(2) 0.3411(3) 0.4944(5)
C8 C 0.4722(2) 0.9174(4) -0.3967(5)
C9 C 0.32694(19) 0.7069(3) -0.0728(5)
C10 C 0.11503(19) 0.2324(2) -0.1057(5)
H19 H 0.0898 0.2015 -0.1560
C11 C 0.5153(2) 0.8863(3) -0.6390(4)
H20 H 0.5297 0.8752 -0.7231
C12 C 0.4415(2) 0.9351(3) -0.5144(5)
H21 H 0.4060 0.9583 -0.5114
C13 C 0.4474(2) 0.9329(3) -0.2656(5)
C14 C 0.5246(2) 0.8850(3) -0.4001(5)
H22 H 0.5452 0.8733 -0.3182
C15 C 0.25688(18) 0.5299(2) -0.1169(4)
H23 H 0.2829 0.5120 -0.1769
C16 C 0.6050(2) 0.8317(3) -0.5270(4)
C17 C 0.26549(18) 0.5974(3) -0.0572(4)
C18 C 0.4627(2) 0.9191(3) -0.6368(4)
C19 C 0.22676(19) 0.6180(3) 0.0352(5)
H24 H 0.2314 0.6621 0.0824
C20 C 0.18224(19) 0.3245(2) 0.0346(4)
H25 H 0.2065 0.3568 0.0842
C21 C 0.27032(18) 0.1070(2) 0.0335(4)
H26 H 0.2654 0.1431 0.0990
C22 C 0.20282(19) 0.2563(2) 0.0096(4)
H27 H 0.2398 0.2430 0.0424
C23 C 0.23112(17) 0.0987(2) -0.0761(4)
C24 C -0.02633(18) 0.3845(2) 0.3690(4)
H28 H -0.0467 0.3717 0.2875
C25 C 0.21097(17) 0.4899(2) -0.0889(4)
H29 H 0.2058 0.4448 -0.1328
C26 C -0.01948(19) 0.3937(2) 0.6074(4)
H30 H -0.0354 0.3870 0.6912
C27 C -0.05085(19) 0.3744(2) 0.4904(4)
C28 C 0.03402(18) 0.4224(2) 0.6056(4)
C29 C 0.5477(2) 0.8692(3) -0.5217(4)
C30 C 0.42793(19) 0.9348(3) -0.7639(4)
C31 C 0.24032(18) 0.0425(2) -0.1655(4)
H31 H 0.2138 0.0335 -0.2390
C32 C 0.02770(17) 0.4133(2) 0.3652(4)
C33 C 0.16876(17) 0.2080(2) -0.0637(4)
C34 C 0.28756(17) 0.0007(2) -0.1467(4)
H32 H 0.2931 -0.0365 -0.2095
C35 C 0.31635(18) 0.0616(2) 0.0444(4)
H33 H 0.3426 0.0677 0.1194
C36 C 0.18177(19) 0.5736(3) 0.0569(4)
H34 H 0.1556 0.5892 0.1187
C37 C 0.05431(17) 0.4223(2) 0.2359(4)
C38 C 0.05787(18) 0.4325(2) 0.4845(4)
H35 H 0.0946 0.4524 0.4825
C39 C 0.0696(2) 0.4421(2) 0.7322(4)
C40 C 0.6428(2) 0.8466(4) -0.4007(5)
H36 H 0.6252 0.8268 -0.3226
H37 H 0.6477 0.8987 -0.3895
H38 H 0.6796 0.8240 -0.4088
C41 C 0.5944(3) 0.7522(4) -0.5398(8)
H39 H 0.5762 0.7350 -0.4607
H40 H 0.6303 0.7270 -0.5465
H41 H 0.5698 0.7427 -0.6204
C42 C -0.1393(3) 0.3687(7) 0.6069(11)
H42 H -0.1518 0.4181 0.5875
H43 H -0.1139 0.3683 0.6882
H44 H -0.1722 0.3384 0.6205
C43 C 0.3734(4) 0.7297(5) -0.1223(15)
H45 H 0.3955 0.6965 -0.1685
C44 C 0.3915(4) 0.7993(5) -0.1104(15)
H46 H 0.4254 0.8112 -0.1506
Co1_2 Co 0.09693(2) 0.45285(3) 1.01459(5)
Co2_2 Co 0.40320(2) 0.95406(3) -1.04524(5)
Co2_3 Co 0.40320(2) -0.04594(3) -0.04524(5)
O5_2 O 0.45167(12) 0.93394(17) 0.1273(3)
O10_2 O 0.04511(12) 0.44460(14) -0.1573(3)
N6_2 N 0.32667(14) 1.00947(19) -0.0436(3)
loop_
_geom_bond_atom_site_label_1
_geom_bond_atom_site_label_2
_geom_bond_site_symmetry_1
_geom_bond_site_symmetry_2
Co1 O7 1_555 1_555
Co2 O2 1_555 1_555
O1 C39 1_555 1_555
O2 H1 1_555 1_555
H2 O2 1_555 1_555
O3 Co2 1_555 1_555
O4 C30 1_555 1_555
O5 C30 1_555 1_555
O6 Co2 1_555 1_555
O7 H3 1_555 1_555
H4 O7 1_555 1_555
O8 Co1 1_555 1_555
O9 Co1 1_555 1_555
O10 C39 1_555 1_555
N1 H5 1_555 1_555
N2 H6 1_555 1_555
N3 Co2 1_555 1_555
N4 Co1 1_555 1_555
N5 Co1 1_555 1_555
N6 C34 1_555 1_555
C1 H7 1_555 1_555
H8 C1 1_555 1_555
H9 C1 1_555 1_555
C2 H10 1_555 1_555
H11 C2 1_555 1_555
H12 C2 1_555 1_555
C3 N3 1_555 1_555
H13 C3 1_555 1_555
C4 C3 1_555 1_555
H14 C4 1_555 1_555
C5 H15 1_555 1_555
H16 C5 1_555 1_555
H17 C5 1_555 1_555
C6 N4 1_555 1_555
H18 C6 1_555 1_555
C7 C1 1_555 1_555
C8 C12 1_555 1_555
C9 N1 1_555 1_555
C10 C6 1_555 1_555
H19 C10 1_555 1_555
C11 H20 1_555 1_555
C12 H21 1_555 1_555
C13 O3 1_555 1_555
C14 C8 1_555 1_555
H22 C14 1_555 1_555
C15 H23 1_555 1_555
C16 C2 1_555 1_555
C17 N1 1_555 1_555
C18 C11 1_555 1_555
C19 C17 1_555 1_555
H24 C19 1_555 1_555
C20 N4 1_555 1_555
H25 C20 1_555 1_555
C21 H26 1_555 1_555
C22 C20 1_555 1_555
H27 C22 1_555 1_555
C23 N2 1_555 1_555
C24 H28 1_555 1_555
C25 N5 1_555 1_555
H29 C25 1_555 1_555
C26 H30 1_555 1_555
C27 C7 1_555 1_555
C28 C26 1_555 1_555
C29 C11 1_555 1_555
C30 C18 1_555 1_555
C31 C23 1_555 1_555
H31 C31 1_555 1_555
C32 C24 1_555 1_555
C33 N2 1_555 1_555
C34 C31 1_555 1_555
H32 C34 1_555 1_555
C35 N6 1_555 1_555
H33 C35 1_555 1_555
C36 N5 1_555 1_555
H34 C36 1_555 1_555
C37 O8 1_555 1_555
C38 C28 1_555 1_555
H35 C38 1_555 1_555
C39 C28 1_555 1_555
C40 C16 1_555 1_555
H36 C40 1_555 1_555
H37 C40 1_555 1_555
H38 C40 1_555 1_555
C41 C16 1_555 1_555
H39 C41 1_555 1_555
H40 C41 1_555 1_555
H41 C41 1_555 1_555
C42 C7 1_555 1_555
H42 C42 1_555 1_555
H43 C42 1_555 1_555
H44 C42 1_555 1_555
C43 C9 1_555 1_555
H45 C43 1_555 1_555
C44 N3 1_555 1_555
H46 C44 1_555 1_555
Co1_2 O10 1_555 1_555
Co2_2 O5 1_555 1_555
Co2_3 N6 1_555 1_555
O5_2 Co2 1_555 1_555
O10_2 Co1 1_555 1_555
N6_2 Co2 1_555 1_555
O6 C13 1_555 1_555
O9 C37 1_555 1_555
C4 C9 1_555 1_555
C5 C7 1_555 1_555
C8 C13 1_555 1_555
C10 C33 1_555 1_555
C12 C18 1_555 1_555
C14 C29 1_555 1_555
C15 C17 1_555 1_555
C15 C25 1_555 1_555
C16 C29 1_555 1_555
C19 C36 1_555 1_555
C21 C23 1_555 1_555
C21 C35 1_555 1_555
C22 C33 1_555 1_555
C24 C27 1_555 1_555
C26 C27 1_555 1_555
C32 C37 1_555 1_555
C32 C38 1_555 1_555
C43 C44 1_555 1_555

#END
