
#######################################################################
#
#                 Cambridge Crystallographic Data Centre
#                                CCDC 
#
#######################################################################
#
# If this CIF has been generated from an entry in the Cambridge 
# Structural Database, then it will include bibliographic, chemical, 
# crystal, experimental, refinement or atomic coordinate data resulting 
# from the CCDC's data processing and validation procedures.
#
#######################################################################

data_YABYIK
_symmetry_cell_setting           monoclinic
_symmetry_space_group_name_H-M   'P 21/n'
_symmetry_Int_Tables_number      14
_space_group_name_Hall           '-P 2yn'
loop_
_symmetry_equiv_pos_site_id
_symmetry_equiv_pos_as_xyz
1 x,y,z
2 1/2+x,1/2-y,1/2+z
3 -x,-y,-z
4 1/2-x,1/2+y,1/2-z
_cell_length_a                   10.6701(16)
_cell_length_b                   5.8345(9)
_cell_length_c                   12.147(2)
_cell_angle_alpha                90
_cell_angle_beta                 91.995(4)
_cell_angle_gamma                90
_cell_volume                     755.749
loop_
_atom_site_label
_atom_site_type_symbol
_atom_site_fract_x
_atom_site_fract_y
_atom_site_fract_z
Cd1 Cd 0.5000 0.0000 0.5000
O1 O 0.4543(6) 0.2371(12) 0.3539(5)
N1 N 0.8017(7) 0.4371(13) 0.0705(6)
O2 O 0.4086(6) -0.3121(12) 0.4073(6)
O3 O 0.3793(8) -0.0258(13) 0.2363(6)
C1 C 0.5514(8) 0.3825(17) 0.1318(7)
C2 C 0.4193(8) 0.3452(18) 0.1655(7)
H1 H 0.3841 0.4893 0.1895
H2 H 0.3690 0.2905 0.1029
C3 C 0.7424(9) 0.5958(19) 0.1284(8)
H3 H 0.7864 0.7279 0.1483
C4 C 0.6137(10) 0.2159(19) 0.0754(9)
H4 H 0.5732 0.0794 0.0569
C5 C 0.7361(9) 0.250(2) 0.0461(9)
H5 H 0.7749 0.1352 0.0068
C6 C 0.4153(8) 0.1711(18) 0.2586(7)
C7 C 0.6199(10) 0.5765(19) 0.1608(8)
H6 H 0.5838 0.6926 0.2015
O1B O 0.5457(6) -0.2371(12) 0.6461(5)
N1B N 0.1983(7) -0.4371(13) 0.9295(6)
O3B O 0.6207(8) 0.0258(13) 0.7637(6)
C1B C 0.4486(8) -0.3825(17) 0.8682(7)
C2B C 0.5807(8) -0.3452(18) 0.8345(7)
H1B H 0.6159 -0.4893 0.8105
H2B H 0.6310 -0.2905 0.8971
C3B C 0.2576(9) -0.5958(19) 0.8716(8)
H3B H 0.2136 -0.7279 0.8517
C4B C 0.3863(10) -0.2159(19) 0.9246(9)
H4B H 0.4268 -0.0794 0.9431
C5B C 0.2639(9) -0.250(2) 0.9539(9)
H5B H 0.2251 -0.1352 0.9932
C6B C 0.5847(8) -0.1711(18) 0.7414(7)
C7B C 0.3801(10) -0.5765(19) 0.8392(8)
H6B H 0.4162 -0.6926 0.7985
O2B O 0.5914(6) 0.3121(12) 0.5927(6)
N1A N 0.3017(7) 0.0629(13) 0.5705(6)
N1C N 0.6983(7) -0.0629(13) 0.4295(6)
Cd1A Cd 1.0000 0.5000 0.0000
Cd1A_2 Cd 0.0000 -0.5000 1.0000
loop_
_geom_bond_atom_site_label_1
_geom_bond_atom_site_label_2
_geom_bond_site_symmetry_1
_geom_bond_site_symmetry_2
Cd1 O1 1_555 1_555
O1 C6 1_555 1_555
N1 C3 1_555 1_555
O2 Cd1 1_555 1_555
O3 C6 1_555 1_555
C1 C2 1_555 1_555
C2 H1 1_555 1_555
H2 C2 1_555 1_555
C3 H3 1_555 1_555
C4 C1 1_555 1_555
H4 C4 1_555 1_555
C5 N1 1_555 1_555
H5 C5 1_555 1_555
C6 C2 1_555 1_555
C7 C1 1_555 1_555
H6 C7 1_555 1_555
O1B Cd1 1_555 1_555
N1B C3B 1_555 1_555
O3B C6B 1_555 1_555
C1B C2B 1_555 1_555
C2B H1B 1_555 1_555
H2B C2B 1_555 1_555
C3B H3B 1_555 1_555
C4B C1B 1_555 1_555
H4B C4B 1_555 1_555
C5B N1B 1_555 1_555
H5B C5B 1_555 1_555
C6B O1B 1_555 1_555
C7B C1B 1_555 1_555
H6B C7B 1_555 1_555
O2B Cd1 1_555 1_555
N1A Cd1 1_555 1_555
N1C Cd1 1_555 1_555
Cd1A N1 1_555 1_555
Cd1A_2 N1B 1_555 1_555
C3 C7 1_555 1_555
C4 C5 1_555 1_555
C2B C6B 1_555 1_555
C3B C7B 1_555 1_555
C4B C5B 1_555 1_555

#END
