
#######################################################################
#
#                 Cambridge Crystallographic Data Centre
#                                CCDC 
#
#######################################################################
#
# If this CIF has been generated from an entry in the Cambridge 
# Structural Database, then it will include bibliographic, chemical, 
# crystal, experimental, refinement or atomic coordinate data resulting 
# from the CCDC's data processing and validation procedures.
#
#######################################################################

data_YACFAL
_symmetry_cell_setting           monoclinic
_symmetry_space_group_name_H-M   'P 21/c'
_symmetry_Int_Tables_number      14
_space_group_name_Hall           '-P 2ybc'
loop_
_symmetry_equiv_pos_site_id
_symmetry_equiv_pos_as_xyz
1 x,y,z
2 -x,1/2+y,1/2-z
3 -x,-y,-z
4 x,1/2-y,1/2+z
_cell_length_a                   8.1201(16)
_cell_length_b                   17.362(3)
_cell_length_c                   18.303(4)
_cell_angle_alpha                90
_cell_angle_beta                 100.96(3)
_cell_angle_gamma                90
_cell_volume                     2533.31
loop_
_atom_site_label
_atom_site_type_symbol
_atom_site_fract_x
_atom_site_fract_y
_atom_site_fract_z
Hg1 Hg 0.36558(10) 0.20084(5) 1.26790(4)
I1 I 0.66665(17) 0.22220(8) 1.23581(9)
I2 I 0.2119(3) 0.16387(15) 1.37840(10)
O1 O 0.5181(18) 0.1026(10) 1.0096(8)
O2 O 0.9256(17) 0.0834(10) 0.8433(8)
N2 N 0.2089(19) 0.1375(11) 1.1610(9)
N3 N 0.2382(19) 0.0908(10) 0.9651(9)
N4 N 0.830(2) 0.0773(9) 0.7195(8)
N5 N 1.210(2) 0.1871(11) 0.7105(10)
C1 C 0.046(3) 0.1332(13) 1.1550(12)
H1 H -0.0008 0.1438 1.1964
C2 C -0.062(2) 0.1124(12) 1.0863(11)
H2 H -0.1773 0.1072 1.0838
C3 C 0.005(2) 0.1007(13) 1.0264(10)
H3 H -0.0644 0.0897 0.9810
C4 C 0.176(2) 0.1048(11) 1.0311(10)
C5 C 0.278(2) 0.1218(10) 1.1010(10)
H4 H 0.3944 0.1222 1.1057
C6 C 0.400(3) 0.0874(12) 0.9589(11)
C7 C 0.438(2) 0.0631(10) 0.8857(9)
C8 C 0.315(2) 0.0231(11) 0.8300(11)
H5 H 0.2061 0.0151 0.8374
C9 C 0.364(2) -0.0029(11) 0.7653(10)
H6 H 0.2902 -0.0321 0.7312
C10 C 0.519(2) 0.0138(12) 0.7513(10)
H7 H 0.5475 -0.0034 0.7072
C11 C 0.639(2) 0.0567(9) 0.8019(10)
C12 C 0.595(2) 0.0760(11) 0.8692(10)
H8 H 0.6759 0.0989 0.9054
C13 C 0.807(2) 0.0733(11) 0.7911(10)
C14 C 0.974(2) 0.1028(10) 0.6984(10)
C15 C 1.011(2) 0.0750(13) 0.6292(11)
H9 H 0.9420 0.0389 0.6010
C16 C 1.150(3) 0.1027(13) 0.6055(13)
H10 H 1.1790 0.0844 0.5618
C17 C 1.249(3) 0.1596(12) 0.6486(12)
H11 H 1.3436 0.1782 0.6328
C18 C 1.076(2) 0.1582(13) 0.7330(9)
H12 H 1.0508 0.1781 0.7767
Hg1C Hg 1.36558(10) 0.29916(5) 0.76790(4)
N5C N 0.210(2) 0.3129(11) 1.2105(10)
O3 O 0.582(3) 0.0772(16) 0.5790(13)
N1 N 0.689(3) 0.1448(18) 0.4927(12)
C19 C 0.718(5) 0.092(2) 0.438(2)
H13 H 0.6766 0.0422 0.4481
H14 H 0.8358 0.0889 0.4377
H15 H 0.6600 0.1092 0.3897
C20 C 0.630(5) 0.144(3) 0.553(2)
H16 H 0.6208 0.1899 0.5781
C21 C 0.736(7) 0.224(3) 0.468(3)
H17 H 0.6405 0.2569 0.4624
H18 H 0.7729 0.2193 0.4213
H19 H 0.8253 0.2445 0.5047
loop_
_geom_bond_atom_site_label_1
_geom_bond_atom_site_label_2
_geom_bond_site_symmetry_1
_geom_bond_site_symmetry_2
Hg1 I1 1_555 1_555
I2 Hg1 1_555 1_555
O1 C6 1_555 1_555
O2 C13 1_555 1_555
O3 C20 1_555 1_555
N1 C19 1_555 1_555
N2 Hg1 1_555 1_555
N3 C4 1_555 1_555
N4 C13 1_555 1_555
N5 C17 1_555 1_555
C1 N2 1_555 1_555
H1 C1 1_555 1_555
C2 C1 1_555 1_555
H2 C2 1_555 1_555
C3 C2 1_555 1_555
H3 C3 1_555 1_555
C4 C3 1_555 1_555
C5 N2 1_555 1_555
H4 C5 1_555 1_555
C6 N3 1_555 1_555
C7 C6 1_555 1_555
C8 C7 1_555 1_555
H5 C8 1_555 1_555
C9 C8 1_555 1_555
H6 C9 1_555 1_555
C10 C9 1_555 1_555
H7 C10 1_555 1_555
C11 C10 1_555 1_555
C12 C7 1_555 1_555
H8 C12 1_555 1_555
C13 C11 1_555 1_555
C14 N4 1_555 1_555
C15 C14 1_555 1_555
H9 C15 1_555 1_555
C16 C15 1_555 1_555
H10 C16 1_555 1_555
C17 C16 1_555 1_555
H11 C17 1_555 1_555
C18 N5 1_555 1_555
H12 C18 1_555 1_555
C19 H13 1_555 1_555
H14 C19 1_555 1_555
H15 C19 1_555 1_555
C20 N1 1_555 1_555
H16 C20 1_555 1_555
C21 N1 1_555 1_555
H17 C21 1_555 1_555
H18 C21 1_555 1_555
H19 C21 1_555 1_555
Hg1C N5 1_555 1_555
N5C Hg1 1_555 1_555
C4 C5 1_555 1_555
C11 C12 1_555 1_555
C14 C18 1_555 1_555

#END
