
#######################################################################
#
#                 Cambridge Crystallographic Data Centre
#                                CCDC 
#
#######################################################################
#
# If this CIF has been generated from an entry in the Cambridge 
# Structural Database, then it will include bibliographic, chemical, 
# crystal, experimental, refinement or atomic coordinate data resulting 
# from the CCDC's data processing and validation procedures.
#
#######################################################################

data_YACHOB
_symmetry_cell_setting           triclinic
_symmetry_space_group_name_H-M   'P -1'
_symmetry_Int_Tables_number      2
_space_group_name_Hall           '-P 1'
loop_
_symmetry_equiv_pos_site_id
_symmetry_equiv_pos_as_xyz
1 x,y,z
2 -x,-y,-z
_cell_length_a                   10.1108(8)
_cell_length_b                   10.8110(9)
_cell_length_c                   13.7409(11)
_cell_angle_alpha                79.1390(10)
_cell_angle_beta                 78.7450(10)
_cell_angle_gamma                86.219(2)
_cell_volume                     1446.05
loop_
_atom_site_label
_atom_site_type_symbol
_atom_site_fract_x
_atom_site_fract_y
_atom_site_fract_z
Co1 Co -0.5000 0.5000 1.0000
Dy1 Dy -0.181887(19) 0.922546(16) 0.796774(13)
C1 C -0.2008(4) 0.5273(4) 0.7730(3)
C2 C -0.1780(5) 0.5832(4) 0.6715(3)
H1 H -0.1725 0.6703 0.6534
C3 C -0.1635(4) 0.5099(4) 0.5970(3)
C4 C -0.1650(4) 0.3787(4) 0.6251(3)
H2 H -0.1534 0.3283 0.5760
C5 C -0.1837(4) 0.3247(4) 0.7255(3)
C6 C -0.2033(4) 0.3973(4) 0.8005(3)
H3 H -0.2179 0.3594 0.8682
C7 C -0.1872(4) 0.1854(4) 0.7528(3)
C8 C -0.2324(4) 0.6071(4) 0.8534(3)
C9 C -0.1652(5) 0.5173(4) 0.4181(3)
C10 C -0.1517(4) 0.6003(4) 0.3156(3)
C11 C -0.1450(5) 0.5419(5) 0.2333(4)
H4 H -0.1443 0.4545 0.2420
C12 C -0.1392(6) 0.6135(5) 0.1385(4)
H5 H -0.1345 0.5723 0.0843
C13 C -0.1453(5) 0.7941(5) 0.2001(4)
H6 H -0.1450 0.8817 0.1888
C14 C -0.1512(5) 0.7309(5) 0.2976(4)
H7 H -0.1548 0.7748 0.3502
C15 C -0.7634(4) 0.8864(4) 1.6684(3)
C16 C -0.7356(4) 0.8584(4) 1.5710(3)
H8 H -0.8061 0.8531 1.5375
C17 C -0.6047(4) 0.8387(4) 1.5245(3)
C18 C -0.4996(4) 0.8511(4) 1.5724(3)
H9 H -0.4109 0.8400 1.5403
C19 C -0.5266(4) 0.8803(4) 1.6690(3)
C20 C -0.6584(4) 0.8962(4) 1.7172(3)
H10 H -0.6763 0.9135 1.7823
C21 C -0.9086(4) 0.9017(4) 1.7165(3)
C22 C -0.4088(4) 0.8913(4) 1.7173(3)
C23 C -0.4958(5) 0.7055(4) 1.4087(3)
C24 C -0.4902(4) 0.6618(4) 1.3096(3)
C25 C -0.4893(5) 0.5347(5) 1.3102(3)
H11 H -0.4912 0.4773 1.3701
C26 C -0.4856(5) 0.4933(4) 1.2209(3)
H12 H -0.4877 0.4071 1.2225
C27 C -0.4747(5) 0.6939(4) 1.1321(3)
H13 H -0.4666 0.7491 1.0707
C28 C -0.4817(5) 0.7438(5) 1.2186(3)
H14 H -0.4808 0.8304 1.2155
N1 N -0.1461(4) 0.5696(3) 0.4955(3)
H15 H -0.1209 0.6464 0.4816
N2 N -0.1400(5) 0.7383(4) 0.1209(3)
N3 N -0.5792(4) 0.8018(3) 1.4284(3)
H16 H -0.6188 0.8429 1.3816
N4 N -0.4790(4) 0.5709(4) 1.1321(3)
O1 O -0.3069(3) 0.5649(3) 0.9349(2)
O2 O -0.1801(4) 0.7135(3) 0.8346(2)
O3 O -0.1708(4) 0.1283(3) 0.8382(2)
O4 O -0.2072(4) 0.1218(3) 0.6893(2)
O5 O -0.1921(5) 0.4082(3) 0.4256(3)
O6 O -0.9427(3) 0.9012(3) 1.8094(2)
O7 O -0.9976(3) 0.9158(4) 1.6636(2)
O8 O -0.4265(3) 0.9067(3) 1.8092(2)
O9 O -0.2917(3) 0.8849(3) 1.6678(2)
O10 O -0.4240(4) 0.6489(4) 1.4669(3)
O11 O -0.4260(4) 0.3158(3) 1.0667(2)
H17 H -0.3584 0.2881 1.0287
H18 H -0.4873 0.2616 1.0845
O12 O -0.2224(4) 0.9044(3) 0.9718(2)
H19 H -0.1904 0.9662 0.9888
H20 H -0.1876 0.8362 0.9992
Dy1A Dy -0.818113(19) 0.077454(16) 1.203226(13)
Dy1_2 Dy -0.181887(19) -0.077454(16) 0.796774(13)
Dy1_3 Dy -1.181887(19) 0.922546(16) 1.796774(13)
Dy1_4 Dy -0.181887(19) 0.922546(16) 1.796774(13)
Dy1A_2 Dy 0.181887(19) 0.077454(16) 0.203226(13)
Dy1A_3 Dy -0.818113(19) 0.077454(16) 0.203226(13)
Dy1A_4 Dy -0.818113(19) 1.077454(16) 1.203226(13)
C1A C -0.7992(4) 0.4727(4) 1.2270(3)
C2A C -0.8220(5) 0.4168(4) 1.3285(3)
H1A H -0.8275 0.3297 1.3466
C3A C -0.8365(4) 0.4901(4) 1.4030(3)
C4A C -0.8350(4) 0.6213(4) 1.3749(3)
H2A H -0.8466 0.6717 1.4240
C5A C -0.8163(4) 0.6753(4) 1.2745(3)
C6A C -0.7967(4) 0.6027(4) 1.1995(3)
H3A H -0.7821 0.6406 1.1318
C7A C -0.8128(4) 0.8146(4) 1.2472(3)
C8A C -0.7676(4) 0.3929(4) 1.1466(3)
C9A C -0.8348(5) 0.4827(4) 1.5819(3)
C10A C -0.8483(4) 0.3997(4) 1.6844(3)
C11A C -0.8550(5) 0.4581(5) 1.7667(4)
H4A H -0.8557 0.5455 1.7580
C12A C -0.8608(6) 0.3865(5) 1.8615(4)
H5A H -0.8655 0.4277 1.9157
C13A C -0.8547(5) 0.2059(5) 1.7999(4)
H6A H -0.8550 0.1183 1.8112
C14A C -0.8488(5) 0.2691(5) 1.7024(4)
H7A H -0.8452 0.2252 1.6498
C15A C -0.2366(4) 0.1136(4) 0.3316(3)
C16A C -0.2644(4) 0.1416(4) 0.4290(3)
H8A H -0.1939 0.1469 0.4625
C17A C -0.3953(4) 0.1613(4) 0.4755(3)
C18A C -0.5004(4) 0.1489(4) 0.4276(3)
H9A H -0.5891 0.1600 0.4597
C19A C -0.4734(4) 0.1197(4) 0.3310(3)
C20A C -0.3416(4) 0.1038(4) 0.2828(3)
H10A H -0.3237 0.0865 0.2177
C21A C -0.0914(4) 0.0983(4) 0.2835(3)
C22A C -0.5912(4) 0.1087(4) 0.2827(3)
C23A C -0.5042(5) 0.2945(4) 0.5913(3)
C24A C -0.5098(4) 0.3382(4) 0.6904(3)
C25A C -0.5107(5) 0.4653(5) 0.6898(3)
H11A H -0.5088 0.5227 0.6299
C26A C -0.5144(5) 0.5067(4) 0.7791(3)
H12A H -0.5123 0.5929 0.7775
C27A C -0.5253(5) 0.3061(4) 0.8679(3)
H13A H -0.5334 0.2509 0.9293
C28A C -0.5183(5) 0.2562(5) 0.7814(3)
H14A H -0.5192 0.1696 0.7845
N1A N -0.8539(4) 0.4304(3) 1.5045(3)
H15A H -0.8791 0.3536 1.5184
N2A N -0.8600(5) 0.2617(4) 1.8791(3)
N3A N -0.4208(4) 0.1982(3) 0.5716(3)
H16A H -0.3812 0.1571 0.6184
N4A N -0.5210(4) 0.4291(4) 0.8679(3)
O1A O -0.6931(3) 0.4351(3) 1.0651(2)
O2A O -0.8199(4) 0.2865(3) 1.1654(2)
O3A O -0.8292(4) 0.8717(3) 1.1618(2)
O3_2 O -0.1708(4) 1.1283(3) 0.8382(2)
O3A_2 O -0.8292(4) -0.1283(3) 1.1618(2)
O4A O -0.7928(4) 0.8782(3) 1.3107(2)
O4_2 O -0.2072(4) 1.1218(3) 0.6893(2)
O4A_2 O -0.7928(4) -0.1218(3) 1.3107(2)
O5A O -0.8079(5) 0.5918(3) 1.5744(3)
O6A O -0.0573(3) 0.0988(3) 0.1906(2)
O6_2 O 0.0573(3) 0.9012(3) 0.8094(2)
O6A_2 O -1.0573(3) 0.0988(3) 1.1906(2)
O7A O -0.0024(3) 0.0842(4) 0.3364(2)
O7_2 O 0.0024(3) 0.9158(4) 0.6636(2)
O7A_2 O -1.0024(3) 0.0842(4) 1.3364(2)
O8A O -0.5735(3) 0.0933(3) 0.1908(2)
O8_2 O -0.4265(3) 0.9067(3) 0.8092(2)
O8A_2 O -0.5735(3) 0.0933(3) 1.1908(2)
O9A O -0.7083(3) 0.1151(3) 0.3322(2)
O9_2 O -0.2917(3) 0.8849(3) 0.6678(2)
O9A_2 O -0.7083(3) 0.1151(3) 1.3322(2)
O10A O -0.5760(4) 0.3511(4) 0.5331(3)
O11A O -0.5740(4) 0.6842(3) 0.9333(2)
H17A H -0.6416 0.7119 0.9713
H18A H -0.5127 0.7384 0.9155
O12A O -0.7776(4) 0.0956(3) 1.0282(2)
H19A H -0.8096 0.0338 1.0112
H20A H -0.8124 0.1638 1.0008
O13 O 0.9160(5) 0.8417(4) 0.4829(3)
H21 H 0.9717 0.8600 0.5166
H22 H 0.8375 0.8456 0.5184
O14 O 0.8019(5) 0.1624(5) 0.0330(3)
H23 H 0.8288 0.1419 -0.0245
H24 H 0.8589 0.1341 0.0704
loop_
_geom_bond_atom_site_label_1
_geom_bond_atom_site_label_2
_geom_bond_site_symmetry_1
_geom_bond_site_symmetry_2
Co1 N4 1_555 1_555
Dy1 O2 1_555 1_555
C1 C2 1_555 1_555
C2 H1 1_555 1_555
C3 C2 1_555 1_555
C4 C3 1_555 1_555
H2 C4 1_555 1_555
C5 C4 1_555 1_555
C6 C1 1_555 1_555
H3 C6 1_555 1_555
C7 C5 1_555 1_555
C8 C1 1_555 1_555
C9 C10 1_555 1_555
C10 C11 1_555 1_555
C11 H4 1_555 1_555
C12 C11 1_555 1_555
H5 C12 1_555 1_555
C13 H6 1_555 1_555
C14 C10 1_555 1_555
H7 C14 1_555 1_555
C15 C16 1_555 1_555
C16 H8 1_555 1_555
C17 C16 1_555 1_555
C18 C17 1_555 1_555
H9 C18 1_555 1_555
C19 C18 1_555 1_555
C20 C15 1_555 1_555
H10 C20 1_555 1_555
C21 C15 1_555 1_555
C22 C19 1_555 1_555
C23 C24 1_555 1_555
C24 C25 1_555 1_555
C25 H11 1_555 1_555
C26 C25 1_555 1_555
H12 C26 1_555 1_555
C27 H13 1_555 1_555
C28 C24 1_555 1_555
H14 C28 1_555 1_555
N1 C3 1_555 1_555
H15 N1 1_555 1_555
N2 C12 1_555 1_555
N3 C17 1_555 1_555
H16 N3 1_555 1_555
N4 C26 1_555 1_555
O1 Co1 1_555 1_555
O2 C8 1_555 1_555
O3 C7 1_555 1_555
O4 C7 1_555 1_555
O5 C9 1_555 1_555
O6 C21 1_555 1_555
O7 C21 1_555 1_555
O8 C22 1_555 1_555
O9 C22 1_555 1_555
O10 C23 1_555 1_555
O11 Co1 1_555 1_555
H17 O11 1_555 1_555
H18 O11 1_555 1_555
O12 Dy1 1_555 1_555
H19 O12 1_555 1_555
H20 O12 1_555 1_555
O13 H21 1_555 1_555
H22 O13 1_555 1_555
O14 H23 1_555 1_555
H24 O14 1_555 1_555
Dy1A O2A 1_555 1_555
Dy1_2 O3 1_555 1_555
Dy1_3 O6 1_555 1_555
Dy1_4 O8 1_555 1_555
Dy1A_2 O6A 1_555 1_555
Dy1A_3 O8A 1_555 1_555
Dy1A_4 O3A 1_555 1_555
C1A C2A 1_555 1_555
C2A H1A 1_555 1_555
C3A C2A 1_555 1_555
C4A C3A 1_555 1_555
H2A C4A 1_555 1_555
C5A C4A 1_555 1_555
C6A C1A 1_555 1_555
H3A C6A 1_555 1_555
C7A C5A 1_555 1_555
C8A C1A 1_555 1_555
C9A C10A 1_555 1_555
C10A C11A 1_555 1_555
C11A H4A 1_555 1_555
C12A C11A 1_555 1_555
H5A C12A 1_555 1_555
C13A H6A 1_555 1_555
C14A C10A 1_555 1_555
H7A C14A 1_555 1_555
C15A C16A 1_555 1_555
C16A H8A 1_555 1_555
C17A C16A 1_555 1_555
C18A C17A 1_555 1_555
H9A C18A 1_555 1_555
C19A C18A 1_555 1_555
C20A C15A 1_555 1_555
H10A C20A 1_555 1_555
C21A C15A 1_555 1_555
C22A C19A 1_555 1_555
C23A C24A 1_555 1_555
C24A C25A 1_555 1_555
C25A H11A 1_555 1_555
C26A C25A 1_555 1_555
H12A C26A 1_555 1_555
C27A H13A 1_555 1_555
C28A C24A 1_555 1_555
H14A C28A 1_555 1_555
N1A C3A 1_555 1_555
H15A N1A 1_555 1_555
N2A C12A 1_555 1_555
N3A C17A 1_555 1_555
H16A N3A 1_555 1_555
N4A Co1 1_555 1_555
O1A Co1 1_555 1_555
O2A C8A 1_555 1_555
O3A C7A 1_555 1_555
O3_2 Dy1 1_555 1_555
O3A_2 Dy1A 1_555 1_555
O4A Dy1A_4 1_555 1_555
O4_2 Dy1 1_555 1_555
O4A_2 Dy1A 1_555 1_555
O5A C9A 1_555 1_555
O6A C21A 1_555 1_555
O6_2 Dy1 1_555 1_555
O6A_2 Dy1A 1_555 1_555
O7A Dy1A_2 1_555 1_555
O7_2 Dy1 1_555 1_555
O7A_2 Dy1A 1_555 1_555
O8A C22A 1_555 1_555
O8_2 Dy1 1_555 1_555
O8A_2 Dy1A 1_555 1_555
O9A Dy1A_3 1_555 1_555
O9_2 Dy1 1_555 1_555
O9A_2 Dy1A 1_555 1_555
O10A C23A 1_555 1_555
O11A Co1 1_555 1_555
H17A O11A 1_555 1_555
H18A O11A 1_555 1_555
O12A Dy1A 1_555 1_555
H19A O12A 1_555 1_555
H20A O12A 1_555 1_555
C5 C6 1_555 1_555
C8 O1 1_555 1_555
C9 N1 1_555 1_555
C13 C14 1_555 1_555
C13 N2 1_555 1_555
C19 C20 1_555 1_555
C23 N3 1_555 1_555
C27 C28 1_555 1_555
C27 N4 1_555 1_555
O4 Dy1_2 1_555 1_555
O7 Dy1_3 1_555 1_555
O9 Dy1_4 1_555 1_555
C5A C6A 1_555 1_555
C7A O4A 1_555 1_555
C8A O1A 1_555 1_555
C9A N1A 1_555 1_555
C13A C14A 1_555 1_555
C13A N2A 1_555 1_555
C19A C20A 1_555 1_555
C21A O7A 1_555 1_555
C22A O9A 1_555 1_555
C23A N3A 1_555 1_555
C26A N4A 1_555 1_555
C27A C28A 1_555 1_555
C27A N4A 1_555 1_555

#END
