
#######################################################################
#
#                 Cambridge Crystallographic Data Centre
#                                CCDC 
#
#######################################################################
#
# If this CIF has been generated from an entry in the Cambridge 
# Structural Database, then it will include bibliographic, chemical, 
# crystal, experimental, refinement or atomic coordinate data resulting 
# from the CCDC's data processing and validation procedures.
#
#######################################################################

data_YACHUH
_symmetry_cell_setting           triclinic
_symmetry_space_group_name_H-M   'P -1'
_symmetry_Int_Tables_number      2
_space_group_name_Hall           '-P 1'
loop_
_symmetry_equiv_pos_site_id
_symmetry_equiv_pos_as_xyz
1 x,y,z
2 -x,-y,-z
_cell_length_a                   10.0681(9)
_cell_length_b                   10.7454(10)
_cell_length_c                   13.7073(13)
_cell_angle_alpha                79.161(2)
_cell_angle_beta                 78.8120(10)
_cell_angle_gamma                86.568(2)
_cell_volume                     1428.38
loop_
_atom_site_label
_atom_site_type_symbol
_atom_site_fract_x
_atom_site_fract_y
_atom_site_fract_z
Co1 Co 1.0000 0.5000 0.0000
Yb1 Yb 0.68057(2) 0.07783(2) 0.204330(17)
C1 C 0.6997(6) 0.4723(5) 0.2279(5)
C2 C 0.7036(6) 0.6028(6) 0.1992(5)
H1 H 0.7191 0.6404 0.1313
C3 C 0.6836(6) 0.6769(5) 0.2747(5)
C4 C 0.6648(6) 0.6222(6) 0.3756(5)
H2 H 0.6527 0.6732 0.4246
C5 C 0.6639(6) 0.4913(6) 0.4041(5)
C6 C 0.6773(6) 0.4171(6) 0.3299(5)
H3 H 0.6712 0.3295 0.3485
C7 C 0.6879(6) 0.8178(6) 0.2477(5)
C8 C 0.7310(6) 0.3909(6) 0.1480(5)
C9 C 0.6682(7) 0.4840(6) 0.5832(5)
C10 C 0.6515(6) 0.4012(6) 0.6855(5)
C11 C 0.6445(8) 0.4616(7) 0.7686(5)
H4 H 0.6439 0.5496 0.7596
C12 C 0.6387(8) 0.3899(8) 0.8633(6)
H5 H 0.6348 0.4317 0.9174
C13 C 0.6448(7) 0.2078(7) 0.8031(5)
H6 H 0.6457 0.1197 0.8148
C14 C 0.6504(7) 0.2714(7) 0.7041(5)
H7 H 0.6534 0.2268 0.6518
C15 C 0.9063(6) 0.1085(6) -0.7191(5)
C16 C 1.0263(6) 0.1191(6) -0.6706(5)
C17 C 1.1594(6) 0.1031(6) -0.7188(5)
H8 H 1.1776 0.0859 -0.7842
C18 C 1.2631(6) 0.1125(6) -0.6702(5)
C19 C 1.2359(6) 0.1395(6) -0.5713(5)
H9 H 1.3066 0.1430 -0.5373
C20 C 1.1052(6) 0.1606(6) -0.5257(5)
C21 C 0.9983(6) 0.1481(6) -0.5748(5)
H10 H 0.9091 0.1593 -0.5431
C22 C 1.4092(6) 0.0969(5) -0.7167(5)
C23 C 0.9943(6) 0.2932(6) -0.4089(5)
C24 C 0.9914(6) 0.3355(6) -0.3102(5)
C25 C 0.9901(7) 0.4657(7) -0.3108(5)
H11 H 0.9928 0.5237 -0.3707
C26 C 0.9847(7) 0.5060(6) -0.2207(5)
H12 H 0.9849 0.5928 -0.2217
C27 C 0.9750(7) 0.3038(6) -0.1321(5)
H13 H 0.9663 0.2482 -0.0706
C28 C 0.9829(7) 0.2550(6) -0.2185(5)
H14 H 0.9825 0.1678 -0.2152
N1 N 0.6462(5) 0.4309(5) 0.5055(4)
H15 H 0.6192 0.3540 0.5197
N2 N 0.6383(7) 0.2645(6) 0.8817(5)
N3 N 1.0797(5) 0.1955(5) -0.4286(4)
H16 H 1.1193 0.1538 -0.3818
N4 N 0.9793(5) 0.4292(5) -0.1327(4)
O1 O 0.8064(5) 0.4316(4) 0.0668(3)
O2 O 0.6755(5) 0.2834(4) 0.1696(4)
O3 O 0.7065(6) 0.8821(4) 0.3106(4)
O4 O 0.6708(6) 0.8746(4) 0.1616(4)
O5 O 0.6943(7) 0.5943(5) 0.5748(4)
O6 O 0.7904(4) 0.1163(4) -0.6694(3)
O7 O 0.9236(5) 0.0920(5) -0.8107(3)
O8 O 1.4438(5) 0.0967(5) -0.8110(4)
O9 O 1.4989(5) 0.0833(5) -0.6647(3)
O10 O 0.9227(5) 0.3485(5) -0.4672(4)
O11 O 0.9237(5) 0.6837(4) -0.0663(4)
H17 H 0.8862 0.7010 -0.0091
H18 H 0.9819 0.7412 -0.0769
O12 O 0.7229(5) 0.0996(5) 0.0328(4)
H19 H 0.6877 0.1684 0.0060
H20 H 0.6914 0.0379 0.0144
Yb1A Yb 1.31943(2) 0.92217(2) -0.204330(17)
Yb1_2 Yb 0.68057(2) 1.07783(2) 0.204330(17)
Yb1_3 Yb 0.68057(2) 0.07783(2) -0.795670(17)
Yb1_4 Yb 1.68057(2) 0.07783(2) -0.795670(17)
Yb1A_2 Yb 1.31943(2) 0.92217(2) 0.795670(17)
Yb1A_3 Yb 0.31943(2) 0.92217(2) 0.795670(17)
Yb1A_4 Yb 1.31943(2) -0.07783(2) -0.204330(17)
C1A C 1.3003(6) 0.5277(5) -0.2279(5)
C2A C 1.2964(6) 0.3972(6) -0.1992(5)
H1A H 1.2809 0.3596 -0.1313
C3A C 1.3164(6) 0.3231(5) -0.2747(5)
C4A C 1.3352(6) 0.3778(6) -0.3756(5)
H2A H 1.3473 0.3268 -0.4246
C5A C 1.3361(6) 0.5087(6) -0.4041(5)
C6A C 1.3227(6) 0.5829(6) -0.3299(5)
H3A H 1.3288 0.6705 -0.3485
C7A C 1.3121(6) 0.1822(6) -0.2477(5)
C8A C 1.2690(6) 0.6091(6) -0.1480(5)
C9A C 1.3318(7) 0.5160(6) -0.5832(5)
C10A C 1.3485(6) 0.5988(6) -0.6855(5)
C11A C 1.3555(8) 0.5384(7) -0.7686(5)
H4A H 1.3561 0.4504 -0.7596
C12A C 1.3613(8) 0.6101(8) -0.8633(6)
H5A H 1.3652 0.5683 -0.9174
C13A C 1.3552(7) 0.7922(7) -0.8031(5)
H6A H 1.3543 0.8803 -0.8148
C14A C 1.3496(7) 0.7286(7) -0.7041(5)
H7A H 1.3466 0.7732 -0.6518
C15A C 1.0937(6) 0.8915(6) 0.7191(5)
C16A C 0.9737(6) 0.8809(6) 0.6706(5)
C17A C 0.8406(6) 0.8969(6) 0.7188(5)
H8A H 0.8224 0.9141 0.7842
C18A C 0.7369(6) 0.8875(6) 0.6702(5)
C19A C 0.7641(6) 0.8605(6) 0.5713(5)
H9A H 0.6934 0.8570 0.5373
C20A C 0.8948(6) 0.8394(6) 0.5257(5)
C21A C 1.0017(6) 0.8519(6) 0.5748(5)
H10A H 1.0909 0.8407 0.5431
C22A C 0.5908(6) 0.9031(5) 0.7167(5)
C23A C 1.0057(6) 0.7068(6) 0.4089(5)
C24A C 1.0086(6) 0.6645(6) 0.3102(5)
C25A C 1.0099(7) 0.5343(7) 0.3108(5)
H11A H 1.0072 0.4763 0.3707
C26A C 1.0153(7) 0.4940(6) 0.2207(5)
H12A H 1.0151 0.4072 0.2217
C27A C 1.0250(7) 0.6962(6) 0.1321(5)
H13A H 1.0337 0.7518 0.0706
C28A C 1.0171(7) 0.7450(6) 0.2185(5)
H14A H 1.0175 0.8322 0.2152
N1A N 1.3538(5) 0.5691(5) -0.5055(4)
H15A H 1.3808 0.6460 -0.5197
N2A N 1.3617(7) 0.7355(6) -0.8817(5)
N3A N 0.9203(5) 0.8045(5) 0.4286(4)
H16A H 0.8807 0.8462 0.3818
N4A N 1.0207(5) 0.5708(5) 0.1327(4)
O1A O 1.1936(5) 0.5684(4) -0.0668(3)
O2A O 1.3245(5) 0.7166(4) -0.1696(4)
O3A O 1.2935(6) 0.1179(4) -0.3106(4)
O3_2 O 0.7065(6) -0.1179(4) 0.3106(4)
O3A_2 O 1.2935(6) 1.1179(4) -0.3106(4)
O4A O 1.3292(6) 0.1254(4) -0.1616(4)
O4_2 O 0.6708(6) -0.1254(4) 0.1616(4)
O4A_2 O 1.3292(6) 1.1254(4) -0.1616(4)
O5A O 1.3057(7) 0.4057(5) -0.5748(4)
O6A O 1.2096(4) 0.8837(4) 0.6694(3)
O6_2 O 0.7904(4) 0.1163(4) 0.3306(3)
O6A_2 O 1.2096(4) 0.8837(4) -0.3306(3)
O7A O 1.0764(5) 0.9080(5) 0.8107(3)
O7_2 O 0.9236(5) 0.0920(5) 0.1893(3)
O7A_2 O 1.0764(5) 0.9080(5) -0.1893(3)
O8A O 0.5562(5) 0.9033(5) 0.8110(4)
O8_2 O 0.4438(5) 0.0967(5) 0.1890(4)
O8A_2 O 1.5562(5) 0.9033(5) -0.1890(4)
O9A O 0.5011(5) 0.9167(5) 0.6647(3)
O9_2 O 0.4989(5) 0.0833(5) 0.3353(3)
O9A_2 O 1.5011(5) 0.9167(5) -0.3353(3)
O10A O 1.0773(5) 0.6515(5) 0.4672(4)
O11A O 1.0763(5) 0.3163(4) 0.0663(4)
H17A H 1.1138 0.2990 0.0091
H18A H 1.0181 0.2588 0.0769
O12A O 1.2771(5) 0.9004(5) -0.0328(4)
H19A H 1.3123 0.8316 -0.0060
H20A H 1.3086 0.9621 -0.0144
O13 O 0.5828(8) 0.1594(5) 0.5166(4)
H21 H 0.6403 0.1439 0.4659
H22 H 0.5621 0.0896 0.5564
O14 O 0.3032(7) 0.1638(8) 0.0327(5)
H23 H 0.3249 0.1444 -0.0257
H24 H 0.3598 0.1344 0.0704
loop_
_geom_bond_atom_site_label_1
_geom_bond_atom_site_label_2
_geom_bond_site_symmetry_1
_geom_bond_site_symmetry_2
Co1 N4 1_555 1_555
Yb1 O2 1_555 1_555
C1 C2 1_555 1_555
C2 H1 1_555 1_555
C3 C2 1_555 1_555
C4 C3 1_555 1_555
H2 C4 1_555 1_555
C5 C4 1_555 1_555
C6 C1 1_555 1_555
H3 C6 1_555 1_555
C7 C3 1_555 1_555
C8 C1 1_555 1_555
C9 C10 1_555 1_555
C10 C11 1_555 1_555
C11 H4 1_555 1_555
C12 C11 1_555 1_555
H5 C12 1_555 1_555
C13 H6 1_555 1_555
C14 C10 1_555 1_555
H7 C14 1_555 1_555
C15 C16 1_555 1_555
C16 C17 1_555 1_555
C17 H8 1_555 1_555
C18 C17 1_555 1_555
C19 C18 1_555 1_555
H9 C19 1_555 1_555
C20 C19 1_555 1_555
C21 C16 1_555 1_555
H10 C21 1_555 1_555
C22 C18 1_555 1_555
C23 C24 1_555 1_555
C24 C25 1_555 1_555
C25 H11 1_555 1_555
C26 C25 1_555 1_555
H12 C26 1_555 1_555
C27 H13 1_555 1_555
C28 C24 1_555 1_555
H14 C28 1_555 1_555
N1 C5 1_555 1_555
H15 N1 1_555 1_555
N2 C12 1_555 1_555
N3 C20 1_555 1_555
H16 N3 1_555 1_555
N4 C26 1_555 1_555
O1 Co1 1_555 1_555
O2 C8 1_555 1_555
O3 C7 1_555 1_555
O4 C7 1_555 1_555
O5 C9 1_555 1_555
O6 C15 1_555 1_555
O7 C15 1_555 1_555
O8 C22 1_555 1_555
O9 C22 1_555 1_555
O10 C23 1_555 1_555
O11 Co1 1_555 1_555
H17 O11 1_555 1_555
H18 O11 1_555 1_555
O12 Yb1 1_555 1_555
H19 O12 1_555 1_555
H20 O12 1_555 1_555
O13 H21 1_555 1_555
H22 O13 1_555 1_555
O14 H23 1_555 1_555
H24 O14 1_555 1_555
Yb1A O2A 1_555 1_555
Yb1_2 O3 1_555 1_555
Yb1_3 O6 1_555 1_555
Yb1_4 O8 1_555 1_555
Yb1A_2 O6A 1_555 1_555
Yb1A_3 O8A 1_555 1_555
Yb1A_4 O3A 1_555 1_555
C1A C2A 1_555 1_555
C2A H1A 1_555 1_555
C3A C2A 1_555 1_555
C4A C3A 1_555 1_555
H2A C4A 1_555 1_555
C5A C4A 1_555 1_555
C6A C1A 1_555 1_555
H3A C6A 1_555 1_555
C7A C3A 1_555 1_555
C8A C1A 1_555 1_555
C9A C10A 1_555 1_555
C10A C11A 1_555 1_555
C11A H4A 1_555 1_555
C12A C11A 1_555 1_555
H5A C12A 1_555 1_555
C13A H6A 1_555 1_555
C14A C10A 1_555 1_555
H7A C14A 1_555 1_555
C15A C16A 1_555 1_555
C16A C17A 1_555 1_555
C17A H8A 1_555 1_555
C18A C17A 1_555 1_555
C19A C18A 1_555 1_555
H9A C19A 1_555 1_555
C20A C19A 1_555 1_555
C21A C16A 1_555 1_555
H10A C21A 1_555 1_555
C22A C18A 1_555 1_555
C23A C24A 1_555 1_555
C24A C25A 1_555 1_555
C25A H11A 1_555 1_555
C26A C25A 1_555 1_555
H12A C26A 1_555 1_555
C27A H13A 1_555 1_555
C28A C24A 1_555 1_555
H14A C28A 1_555 1_555
N1A C5A 1_555 1_555
H15A N1A 1_555 1_555
N2A C12A 1_555 1_555
N3A C20A 1_555 1_555
H16A N3A 1_555 1_555
N4A Co1 1_555 1_555
O1A Co1 1_555 1_555
O2A C8A 1_555 1_555
O3A C7A 1_555 1_555
O3_2 Yb1 1_555 1_555
O3A_2 Yb1A 1_555 1_555
O4A Yb1A_4 1_555 1_555
O4_2 Yb1 1_555 1_555
O4A_2 Yb1A 1_555 1_555
O5A C9A 1_555 1_555
O6A C15A 1_555 1_555
O6_2 Yb1 1_555 1_555
O6A_2 Yb1A 1_555 1_555
O7A Yb1A_2 1_555 1_555
O7_2 Yb1 1_555 1_555
O7A_2 Yb1A 1_555 1_555
O8A C22A 1_555 1_555
O8_2 Yb1 1_555 1_555
O8A_2 Yb1A 1_555 1_555
O9A Yb1A_3 1_555 1_555
O9_2 Yb1 1_555 1_555
O9A_2 Yb1A 1_555 1_555
O10A C23A 1_555 1_555
O11A Co1 1_555 1_555
H17A O11A 1_555 1_555
H18A O11A 1_555 1_555
O12A Yb1A 1_555 1_555
H19A O12A 1_555 1_555
H20A O12A 1_555 1_555
C5 C6 1_555 1_555
C8 O1 1_555 1_555
C9 N1 1_555 1_555
C13 C14 1_555 1_555
C13 N2 1_555 1_555
C20 C21 1_555 1_555
C23 N3 1_555 1_555
C27 C28 1_555 1_555
C27 N4 1_555 1_555
O4 Yb1_2 1_555 1_555
O7 Yb1_3 1_555 1_555
O9 Yb1_4 1_555 1_555
C5A C6A 1_555 1_555
C7A O4A 1_555 1_555
C8A O1A 1_555 1_555
C9A N1A 1_555 1_555
C13A C14A 1_555 1_555
C13A N2A 1_555 1_555
C15A O7A 1_555 1_555
C20A C21A 1_555 1_555
C22A O9A 1_555 1_555
C23A N3A 1_555 1_555
C26A N4A 1_555 1_555
C27A C28A 1_555 1_555
C27A N4A 1_555 1_555

#END
