
#######################################################################
#
#                 Cambridge Crystallographic Data Centre
#                                CCDC 
#
#######################################################################
#
# If this CIF has been generated from an entry in the Cambridge 
# Structural Database, then it will include bibliographic, chemical, 
# crystal, experimental, refinement or atomic coordinate data resulting 
# from the CCDC's data processing and validation procedures.
#
#######################################################################

data_YACJER
_symmetry_cell_setting           monoclinic
_symmetry_space_group_name_H-M   'C 2/c'
_symmetry_Int_Tables_number      15
_space_group_name_Hall           '-C 2yn'
loop_
_symmetry_equiv_pos_site_id
_symmetry_equiv_pos_as_xyz
1 x,y,z
2 1/2+x,1/2+y,z
3 -x,y,1/2-z
4 1/2-x,1/2+y,1/2-z
5 -x,-y,-z
6 1/2-x,1/2-y,-z
7 x,-y,1/2+z
8 1/2+x,1/2-y,1/2+z
_cell_length_a                   14.565(2)
_cell_length_b                   7.964(1)
_cell_length_c                   12.911(3)
_cell_angle_alpha                90
_cell_angle_beta                 109.28(1)
_cell_angle_gamma                90
_cell_volume                     1413.63
loop_
_atom_site_label
_atom_site_type_symbol
_atom_site_fract_x
_atom_site_fract_y
_atom_site_fract_z
U1 U 0.5000 0.62575(5) 0.2500
O1 O 0.5000 0.927(1) 0.2500
O2 O 0.3729(4) 0.6300(8) 0.2238(5)
O3 O 0.4966(4) 0.3934(8) 0.1339(5)
O4 O 0.4831(4) 0.7253(8) 0.0694(4)
O5 O 0.6237(5) 1.0044(9) 0.1505(5)
O6 O 0.7279(5) 1.0507(9) -0.0020(5)
O7 O 0.3234(5) 0.227(1) 0.1608(5)
C1 C 0.4425(6) 0.284(1) 0.0720(6)
C2 C 0.5455(5) 0.777(1) 0.0272(6)
C3 C 0.6131(6) 0.915(1) 0.0689(6)
C4 C 0.6697(6) 0.938(1) -0.0069(6)
C5 C 0.3599(5) 0.198(1) 0.0904(6)
H1 H 0.458 0.983 0.282
O2B O 0.6271(4) 0.6300(8) 0.2762(5)
O3B O 0.5034(4) 0.3934(8) 0.3661(5)
O4B O 0.5169(4) 0.7253(8) 0.4306(4)
H1B H 0.542 0.983 0.218
C2D C 0.4545(5) 0.223(1) -0.0272(6)
C1D C 0.5575(6) 0.716(1) -0.0720(6)
C5D C 0.6401(5) 0.802(1) -0.0904(6)
C4D C 0.3303(6) 0.062(1) 0.0069(6)
C1B C 0.5575(6) 0.284(1) 0.4280(6)
C2B C 0.4545(5) 0.777(1) 0.4728(6)
O4D O 0.5169(4) 0.2747(8) -0.0694(4)
C3D C 0.3869(6) 0.085(1) -0.0689(6)
O3D O 0.5034(4) 0.6066(8) -0.1339(5)
O7D O 0.6766(5) 0.773(1) -0.1608(5)
O6D O 0.2721(5) -0.0507(9) 0.0020(5)
C2F C 0.5455(5) 0.223(1) 0.5272(6)
C5B C 0.6401(5) 0.198(1) 0.4096(6)
C1F C 0.4425(6) 0.716(1) 0.5720(6)
C3B C 0.3869(6) 0.915(1) 0.4311(6)
U1D U 0.5000 0.37425(5) -0.2500
O5D O 0.3763(5) -0.0044(9) -0.1505(5)
O4F O 0.4831(4) 0.2747(8) 0.5694(4)
C3F C 0.6131(6) 0.085(1) 0.5689(6)
O7B O 0.6766(5) 0.227(1) 0.3392(5)
C4F C 0.6697(6) 0.062(1) 0.4931(6)
O3F O 0.4966(4) 0.6066(8) 0.6339(5)
C5F C 0.3599(5) 0.802(1) 0.5904(6)
O5B O 0.3763(5) 1.0044(9) 0.3495(5)
C4B C 0.3303(6) 0.938(1) 0.5069(6)
O1D O 0.5000 0.073(1) -0.2500
O2D O 0.6271(4) 0.3700(8) -0.2238(5)
O2F O 0.3729(4) 0.3700(8) -0.2762(5)
O3F_2 O 0.4966(4) 0.6066(8) -0.3661(5)
O4F_2 O 0.4831(4) 0.2747(8) -0.4306(4)
U1D_2 U 0.5000 0.37425(5) 0.7500
O5F O 0.6237(5) -0.0044(9) 0.6505(5)
O6F O 0.7279(5) -0.0507(9) 0.4980(5)
O7F O 0.3234(5) 0.773(1) 0.6608(5)
O6B O 0.2721(5) 1.0507(9) 0.5020(5)
H1D H 0.542 0.017 -0.282
H1F H 0.458 0.017 -0.218
K1 K 0.6984(1) 0.3308(3) 0.1509(2)
loop_
_geom_bond_atom_site_label_1
_geom_bond_atom_site_label_2
_geom_bond_site_symmetry_1
_geom_bond_site_symmetry_2
U1 O1 1_555 1_555
O1 H1 1_555 1_555
O2 U1 1_555 1_555
O3 U1 1_555 1_555
O4 U1 1_555 1_555
O5 C3 1_555 1_555
O6 C4 1_555 1_555
O7 C5 1_555 1_555
C1 O3 1_555 1_555
C2 O4 1_555 1_555
C3 C2 1_555 1_555
C4 C3 1_555 1_555
C5 C1 1_555 1_555
O2B U1 1_555 1_555
O3B U1 1_555 1_555
O4B U1 1_555 1_555
H1B O1 1_555 1_555
C2D C1 1_555 1_555
C1D C2 1_555 1_555
C5D C4 1_555 1_555
C4D C5 1_555 1_555
C1B O3B 1_555 1_555
C2B O4B 1_555 1_555
O4D C2D 1_555 1_555
C3D C2D 1_555 1_555
O3D C1D 1_555 1_555
O7D C5D 1_555 1_555
O6D C4D 1_555 1_555
C2F C1B 1_555 1_555
C5B C1B 1_555 1_555
C1F C2B 1_555 1_555
C3B C2B 1_555 1_555
U1D O4D 1_555 1_555
O5D C3D 1_555 1_555
O4F C2F 1_555 1_555
C3F C2F 1_555 1_555
O7B C5B 1_555 1_555
C4F C5B 1_555 1_555
O3F C1F 1_555 1_555
C5F C1F 1_555 1_555
O5B C3B 1_555 1_555
C4B C3B 1_555 1_555
O1D U1D 1_555 1_555
O2D U1D 1_555 1_555
O2F U1D 1_555 1_555
O3F_2 U1D 1_555 1_555
O4F_2 U1D 1_555 1_555
U1D_2 O4F 1_555 1_555
O5F C3F 1_555 1_555
O6F C4F 1_555 1_555
O7F C5F 1_555 1_555
O6B C4B 1_555 1_555
H1D O1D 1_555 1_555
H1F O1D 1_555 1_555
C1D C5D 1_555 1_555
C4D C3D 1_555 1_555
O3D U1D 1_555 1_555
C3F C4F 1_555 1_555
O3F U1D_2 1_555 1_555
C5F C4B 1_555 1_555

#END
