
#######################################################################
#
#                 Cambridge Crystallographic Data Centre
#                                CCDC 
#
#######################################################################
#
# If this CIF has been generated from an entry in the Cambridge 
# Structural Database, then it will include bibliographic, chemical, 
# crystal, experimental, refinement or atomic coordinate data resulting 
# from the CCDC's data processing and validation procedures.
#
#######################################################################

data_YACKAO
_symmetry_cell_setting           monoclinic
_symmetry_space_group_name_H-M   'C 2/c'
_symmetry_Int_Tables_number      15
_space_group_name_Hall           '-C 2yn'
loop_
_symmetry_equiv_pos_site_id
_symmetry_equiv_pos_as_xyz
1 x,y,z
2 1/2+x,1/2+y,z
3 -x,y,1/2-z
4 1/2-x,1/2+y,1/2-z
5 -x,-y,-z
6 1/2-x,1/2-y,-z
7 x,-y,1/2+z
8 1/2+x,1/2-y,1/2+z
_cell_length_a                   10.911(2)
_cell_length_b                   14.172(2)
_cell_length_c                   12.471(2)
_cell_angle_alpha                90
_cell_angle_beta                 107.54(1)
_cell_angle_gamma                90
_cell_volume                     1838.74
loop_
_atom_site_label
_atom_site_type_symbol
_atom_site_fract_x
_atom_site_fract_y
_atom_site_fract_z
Cd1 Cd 0.0000 0.0204(1) 0.2500
S1 S 0.2531(1) 0.0015(1) 0.3060(1)
S2 S 0.0141(1) -0.1688(1) -0.0938(1)
N1 N 0.3442(3) 0.0344(3) 0.1284(3)
N2 N 0.3162(3) 0.1619(3) 0.2124(3)
N3 N -0.0248(3) -0.0828(3) 0.0954(3)
C1 C 0.3044(3) 0.0675(3) 0.2136(3)
C2 C 0.3796(4) 0.1092(3) 0.0724(4)
C3 C 0.3617(4) 0.1877(3) 0.1243(4)
C4 C 0.3496(5) -0.0658(3) 0.1003(4)
C5 C 0.2881(5) 0.2272(3) 0.2922(5)
C6 C -0.0101(3) -0.1158(3) 0.0157(3)
H1 H 0.4100 0.0960 0.0060
H2 H 0.3660 0.2560 0.1040
H3 H 0.3200 -0.1060 0.1480
H4 H 0.3880 -0.0810 0.0330
H5 H 0.4400 -0.0700 0.1450
H6 H 0.3370 0.2900 0.2940
H7 H 0.2010 0.2340 0.2810
H8 H 0.3270 0.1950 0.3660
S1B S -0.2531(1) 0.0015(1) 0.1940(1)
S2F S 0.0141(1) 0.1688(1) 0.4062(1)
N3B N 0.0248(3) -0.0828(3) 0.4046(3)
C1B C -0.3044(3) 0.0675(3) 0.2864(3)
C6B C 0.0101(3) -0.1158(3) 0.4843(3)
S2D S -0.0141(1) 0.1688(1) 0.0938(1)
Cd1D Cd 0.0000 -0.0204(1) -0.2500
N1B N -0.3442(3) 0.0344(3) 0.3716(3)
N2B N -0.3162(3) 0.1619(3) 0.2876(3)
S2B S -0.0141(1) -0.1688(1) 0.5938(1)
C2B C -0.3796(4) 0.1092(3) 0.4276(4)
C4B C -0.3496(5) -0.0658(3) 0.3997(4)
C3B C -0.3617(4) 0.1877(3) 0.3757(4)
C5B C -0.2881(5) 0.2272(3) 0.2078(5)
Cd1D_2 Cd 0.0000 -0.0204(1) 0.7500
H1B H -0.4100 0.0960 0.4940
H3B H -0.3200 -0.1060 0.3520
H4B H -0.3880 -0.0810 0.4670
H5B H -0.4400 -0.0700 0.3550
H2B H -0.3660 0.2560 0.3960
H6B H -0.3370 0.2900 0.2060
H7B H -0.2010 0.2340 0.2190
H8B H -0.3270 0.1950 0.1340
loop_
_geom_bond_atom_site_label_1
_geom_bond_atom_site_label_2
_geom_bond_site_symmetry_1
_geom_bond_site_symmetry_2
Cd1 S1 1_555 1_555
S1 C1 1_555 1_555
S2 C6 1_555 1_555
N1 C1 1_555 1_555
N2 C1 1_555 1_555
N3 Cd1 1_555 1_555
C2 N1 1_555 1_555
C3 N2 1_555 1_555
C4 N1 1_555 1_555
C5 N2 1_555 1_555
C6 N3 1_555 1_555
H1 C2 1_555 1_555
H2 C3 1_555 1_555
H3 C4 1_555 1_555
H4 C4 1_555 1_555
H5 C4 1_555 1_555
H6 C5 1_555 1_555
H7 C5 1_555 1_555
H8 C5 1_555 1_555
S1B Cd1 1_555 1_555
S2F Cd1 1_555 1_555
N3B Cd1 1_555 1_555
C1B S1B 1_555 1_555
C6B N3B 1_555 1_555
S2D Cd1 1_555 1_555
Cd1D S2 1_555 1_555
N1B C1B 1_555 1_555
N2B C1B 1_555 1_555
S2B C6B 1_555 1_555
C2B N1B 1_555 1_555
C4B N1B 1_555 1_555
C3B N2B 1_555 1_555
C5B N2B 1_555 1_555
Cd1D_2 S2B 1_555 1_555
H1B C2B 1_555 1_555
H3B C4B 1_555 1_555
H4B C4B 1_555 1_555
H5B C4B 1_555 1_555
H2B C3B 1_555 1_555
H6B C5B 1_555 1_555
H7B C5B 1_555 1_555
H8B C5B 1_555 1_555
C2 C3 1_555 1_555
C2B C3B 1_555 1_555

#END
