
#######################################################################
#
#                 Cambridge Crystallographic Data Centre
#                                CCDC 
#
#######################################################################
#
# If this CIF has been generated from an entry in the Cambridge 
# Structural Database, then it will include bibliographic, chemical, 
# crystal, experimental, refinement or atomic coordinate data resulting 
# from the CCDC's data processing and validation procedures.
#
#######################################################################

data_YACSAY
_symmetry_cell_setting           monoclinic
_symmetry_space_group_name_H-M   'P 21/n'
_symmetry_Int_Tables_number      14
_space_group_name_Hall           '-P 2yn'
loop_
_symmetry_equiv_pos_site_id
_symmetry_equiv_pos_as_xyz
1 x,y,z
2 1/2-x,1/2+y,1/2-z
3 -x,-y,-z
4 1/2+x,1/2-y,1/2+z
_cell_length_a                   11.6970(7)
_cell_length_b                   15.1449(9)
_cell_length_c                   12.2564(8)
_cell_angle_alpha                90
_cell_angle_beta                 109.1930(10)
_cell_angle_gamma                90
_cell_volume                     2050.54
loop_
_atom_site_label
_atom_site_type_symbol
_atom_site_fract_x
_atom_site_fract_y
_atom_site_fract_z
U1 U 0.57959(2) 0.422283(16) 0.30539(2)
U2 U 0.34167(2) 0.369904(17) -0.02091(2)
C1 C 0.2859(7) 0.4082(5) 0.2382(7)
C2 C 0.1697(7) 0.4141(4) 0.2611(6)
C3 C 0.1613(7) 0.3961(4) 0.3694(6)
H1 H 0.2310 0.3802 0.4322
C4 C 0.0497(7) 0.4018(5) 0.3837(6)
C5 C -0.0542(6) 0.4301(4) 0.2949(6)
C6 C -0.0436(7) 0.4503(4) 0.1887(6)
H2 H -0.1120 0.4708 0.1276
C7 C 0.0665(7) 0.4407(4) 0.1714(6)
H3 H 0.0722 0.4524 0.0972
C8 C -0.1777(6) 0.4312(4) 0.3058(6)
C9 C 0.4481(6) 0.6102(4) 0.1634(6)
C10 C 0.3222(6) 0.6380(4) 0.1559(6)
C11 C 0.2484(6) 0.6773(4) 0.0548(6)
H4 H 0.2785 0.6892 -0.0068
C12 C 0.1313(6) 0.6986(4) 0.0453(6)
C13 C 0.0822(6) 0.6837(4) 0.1336(6)
C14 C 0.1591(7) 0.6476(4) 0.2361(6)
H5 H 0.1309 0.6393 0.2997
C15 C 0.2761(6) 0.6237(4) 0.2458(6)
H6 H 0.3261 0.5970 0.3152
C16 C -0.0473(7) 0.7019(5) 0.1225(6)
N1 N 0.0414(6) 0.3807(4) 0.4973(5)
N2 N 0.0551(6) 0.7420(4) -0.0621(5)
O1 O 0.2824(5) 0.4097(3) 0.1343(4)
O2 O 0.3842(4) 0.4050(3) 0.3237(4)
O3 O -0.2306(4) 0.3574(3) 0.3045(4)
O4 O -0.2322(4) 0.5023(3) 0.3083(4)
O5 O 0.1188(5) 0.3306(3) 0.5592(4)
O6 O -0.0411(5) 0.4132(3) 0.5247(4)
O7 O 0.5055(4) 0.5617(3) 0.2479(4)
O8 O 0.4869(4) 0.6366(3) 0.0851(4)
O9 O -0.0710(4) 0.7746(3) 0.1607(4)
O10 O -0.1224(4) 0.6411(3) 0.0813(4)
O11 O 0.0986(5) 0.7544(4) -0.1391(5)
O12 O -0.0488(5) 0.7610(4) -0.0693(5)
O13 O 0.6327(5) 0.4464(3) 0.4538(4)
O14 O 0.5246(4) 0.3964(3) 0.1529(4)
O15 O 0.3568(4) 0.2584(3) 0.0194(4)
O16 O 0.3256(4) 0.4824(3) -0.0582(4)
O17 O 0.2744(5) 0.3225(4) -0.2152(5)
H7 H 0.235(7) 0.355(5) -0.257(6)
H8 H 0.266(8) 0.274(3) -0.224(7)
U1_2 U -0.42041(2) 0.422283(16) 0.30539(2)
U1A U -0.07959(2) 0.922283(16) 0.19461(2)
U2B U 0.65833(2) 0.630096(17) 0.02091(2)
U2B_2 U -0.34167(2) 0.630096(17) 0.02091(2)
O3_2 O 0.7694(4) 0.3574(3) 0.3045(4)
O4_2 O 0.7678(4) 0.5023(3) 0.3083(4)
O8B O 0.5131(4) 0.3634(3) -0.0851(4)
O9A O 0.5710(4) 0.2746(3) 0.3393(4)
O10B O 0.1224(4) 0.3589(3) -0.0813(4)
loop_
_geom_bond_atom_site_label_1
_geom_bond_atom_site_label_2
_geom_bond_site_symmetry_1
_geom_bond_site_symmetry_2
U1 O2 1_555 1_555
U2 O1 1_555 1_555
C1 C2 1_555 1_555
C2 C3 1_555 1_555
C3 H1 1_555 1_555
C4 C3 1_555 1_555
C5 C4 1_555 1_555
C6 C5 1_555 1_555
H2 C6 1_555 1_555
C7 C2 1_555 1_555
H3 C7 1_555 1_555
C8 C5 1_555 1_555
C9 C10 1_555 1_555
C10 C11 1_555 1_555
C11 H4 1_555 1_555
C12 C11 1_555 1_555
C13 C12 1_555 1_555
C14 C13 1_555 1_555
H5 C14 1_555 1_555
C15 C10 1_555 1_555
H6 C15 1_555 1_555
C16 C13 1_555 1_555
N1 C4 1_555 1_555
N2 C12 1_555 1_555
O1 C1 1_555 1_555
O2 C1 1_555 1_555
O3 C8 1_555 1_555
O4 C8 1_555 1_555
O5 N1 1_555 1_555
O6 N1 1_555 1_555
O7 U1 1_555 1_555
O8 C9 1_555 1_555
O9 C16 1_555 1_555
O10 C16 1_555 1_555
O11 N2 1_555 1_555
O12 N2 1_555 1_555
O13 U1 1_555 1_555
O14 U1 1_555 1_555
O15 U2 1_555 1_555
O16 U2 1_555 1_555
O17 U2 1_555 1_555
H7 O17 1_555 1_555
H8 O17 1_555 1_555
U1_2 O3 1_555 1_555
U1A O9 1_555 1_555
U2B O8 1_555 1_555
U2B_2 O10 1_555 1_555
O3_2 U1 1_555 1_555
O4_2 U1 1_555 1_555
O8B U2 1_555 1_555
O9A U1 1_555 1_555
O10B U2 1_555 1_555
U2 O14 1_555 1_555
C6 C7 1_555 1_555
C9 O7 1_555 1_555
C14 C15 1_555 1_555
O4 U1_2 1_555 1_555

#END
