
#######################################################################
#
#                 Cambridge Crystallographic Data Centre
#                                CCDC 
#
#######################################################################
#
# If this CIF has been generated from an entry in the Cambridge 
# Structural Database, then it will include bibliographic, chemical, 
# crystal, experimental, refinement or atomic coordinate data resulting 
# from the CCDC's data processing and validation procedures.
#
#######################################################################

data_YACYUX
_symmetry_cell_setting           monoclinic
_symmetry_space_group_name_H-M   'P 21/n'
_symmetry_Int_Tables_number      14
_space_group_name_Hall           '-P 2yn'
loop_
_symmetry_equiv_pos_site_id
_symmetry_equiv_pos_as_xyz
1 x,y,z
2 1/2-x,1/2+y,1/2-z
3 -x,-y,-z
4 1/2+x,1/2-y,1/2+z
_cell_length_a                   9.136(5)
_cell_length_b                   19.884(5)
_cell_length_c                   12.816(5)
_cell_angle_alpha                90
_cell_angle_beta                 104.593(5)
_cell_angle_gamma                90
_cell_volume                     2253.05
loop_
_atom_site_label
_atom_site_type_symbol
_atom_site_fract_x
_atom_site_fract_y
_atom_site_fract_z
Zn1 Zn 0.77785(8) 0.24138(4) 0.68132(6)
O1 O 0.8995(6) 0.2061(2) 0.8251(4)
H1 H 0.9731 0.2345 0.8772
H2 H 0.9315 0.1659 0.8352
O2 O 0.6898(5) 0.1549(2) 0.6146(4)
O3 O 0.5833(5) 0.2254(2) 0.4855(4)
N1 N 0.0867(6) 0.2228(3) 0.2288(4)
N2 N 0.3087(6) 0.1512(3) 0.1735(4)
N3 N 0.4607(7) 0.2532(3) 0.1089(5)
C1 C -0.0013(8) 0.2601(4) 0.2762(6)
H3 H 0.0127 0.3064 0.2811
C2 C -0.1105(9) 0.2316(5) 0.3174(7)
H4 H -0.1692 0.2580 0.3509
C3 C -0.1323(9) 0.1637(6) 0.3088(8)
H5 H -0.2068 0.1434 0.3358
C4 C -0.0424(8) 0.1253(4) 0.2592(7)
H6 H -0.0547 0.0790 0.2531
C5 C 0.0640(7) 0.1570(3) 0.2200(5)
C6 C 0.1605(8) 0.1182(4) 0.1587(6)
H7 H 0.1094 0.1168 0.0826
H8 H 0.1746 0.0724 0.1852
C7 C 0.3706(8) 0.1403(4) 0.0785(5)
H9 H 0.4152 0.0959 0.0820
H10 H 0.2898 0.1432 0.0130
C8 C 0.4884(8) 0.1927(4) 0.0767(5)
C9 C 0.6169(10) 0.1792(5) 0.0420(6)
H11 H 0.6365 0.1360 0.0212
C10 C 0.7154(10) 0.2314(6) 0.0392(7)
H12 H 0.8022 0.2240 0.0155
C11 C 0.6839(10) 0.2936(6) 0.0716(7)
H13 H 0.7501 0.3290 0.0705
C12 C 0.5572(9) 0.3045(5) 0.1052(6)
H14 H 0.5360 0.3474 0.1259
C13 C 0.4228(8) 0.1257(3) 0.2710(5)
H15 H 0.4485 0.0797 0.2575
H16 H 0.5141 0.1524 0.2810
C14 C 0.3711(7) 0.1273(4) 0.3749(5)
H17 H 0.2894 0.0953 0.3698
H18 H 0.3326 0.1718 0.3843
C15 C 0.4993(8) 0.1102(3) 0.4719(5)
H19 H 0.5639 0.0773 0.4498
H20 H 0.4564 0.0891 0.5257
C16 C 0.5962(7) 0.1681(3) 0.5242(5)
N1C N 0.5867(6) 0.2772(3) 0.7288(4)
N2C N 0.8087(6) 0.3488(3) 0.6735(4)
N3C N 0.9607(7) 0.2468(3) 0.6089(5)
Zn1C Zn 0.27785(8) 0.25862(4) 0.18132(6)
Cl1 Cl 0.1415(5) 0.54377(14) 0.7124(3)
O4 O 0.168(2) 0.5332(12) 0.8130(11)
O5 O 0.2104(17) 0.5999(5) 0.6878(9)
O6 O 0.1637(16) 0.4885(6) 0.6631(14)
O7 O -0.019(3) 0.5554(13) 0.666(2)
O8 O 0.8266(14) 0.0292(6) 0.6640(10)
O9 O 0.9614(15) 0.0767(7) 0.8643(11)
O10 O 0.842(3) 0.0150(13) 0.012(2)
O11 O 0.381(3) 0.5075(17) 0.986(3)
loop_
_geom_bond_atom_site_label_1
_geom_bond_atom_site_label_2
_geom_bond_site_symmetry_1
_geom_bond_site_symmetry_2
Zn1 O1 1_555 1_555
O1 H1 1_555 1_555
H2 O1 1_555 1_555
O2 Zn1 1_555 1_555
O3 C16 1_555 1_555
N1 C1 1_555 1_555
N2 C6 1_555 1_555
N3 C8 1_555 1_555
C1 H3 1_555 1_555
C2 C1 1_555 1_555
H4 C2 1_555 1_555
C3 C2 1_555 1_555
H5 C3 1_555 1_555
C4 C3 1_555 1_555
H6 C4 1_555 1_555
C5 N1 1_555 1_555
C6 C5 1_555 1_555
H7 C6 1_555 1_555
H8 C6 1_555 1_555
C7 N2 1_555 1_555
H9 C7 1_555 1_555
H10 C7 1_555 1_555
C8 C7 1_555 1_555
C9 C8 1_555 1_555
H11 C9 1_555 1_555
C10 C9 1_555 1_555
H12 C10 1_555 1_555
C11 C10 1_555 1_555
H13 C11 1_555 1_555
C12 N3 1_555 1_555
H14 C12 1_555 1_555
C13 N2 1_555 1_555
H15 C13 1_555 1_555
H16 C13 1_555 1_555
C14 C13 1_555 1_555
H17 C14 1_555 1_555
H18 C14 1_555 1_555
C15 C14 1_555 1_555
H19 C15 1_555 1_555
H20 C15 1_555 1_555
C16 O2 1_555 1_555
Cl1 O4 1_555 1_555
O5 Cl1 1_555 1_555
O6 Cl1 1_555 1_555
O7 Cl1 1_555 1_555
N1C Zn1 1_555 1_555
N2C Zn1 1_555 1_555
N3C Zn1 1_555 1_555
Zn1C N1 1_555 1_555
N2 Zn1C 1_555 1_555
N3 Zn1C 1_555 1_555
C4 C5 1_555 1_555
C11 C12 1_555 1_555
C15 C16 1_555 1_555

#END
