
#######################################################################
#
#                 Cambridge Crystallographic Data Centre
#                                CCDC 
#
#######################################################################
#
# If this CIF has been generated from an entry in the Cambridge 
# Structural Database, then it will include bibliographic, chemical, 
# crystal, experimental, refinement or atomic coordinate data resulting 
# from the CCDC's data processing and validation procedures.
#
#######################################################################

data_YADCIR
_symmetry_cell_setting           monoclinic
_symmetry_space_group_name_H-M   'C 2/c'
_symmetry_Int_Tables_number      15
_space_group_name_Hall           '-C 2yn'
loop_
_symmetry_equiv_pos_site_id
_symmetry_equiv_pos_as_xyz
1 x,y,z
2 -x,y,1/2-z
3 1/2+x,1/2+y,z
4 1/2-x,1/2+y,1/2-z
5 -x,-y,-z
6 x,-y,1/2+z
7 1/2-x,1/2-y,-z
8 1/2+x,1/2-y,1/2+z
_cell_length_a                   29.513(2)
_cell_length_b                   9.1437(7)
_cell_length_c                   14.7447(11)
_cell_angle_alpha                90
_cell_angle_beta                 100.9390(10)
_cell_angle_gamma                90
_cell_volume                     3906.68
loop_
_atom_site_label
_atom_site_type_symbol
_atom_site_fract_x
_atom_site_fract_y
_atom_site_fract_z
B1 B 0.17838(6) 0.4585(2) 0.10748(13)
H1 H 0.1995 0.5416 0.1209
C1 C 0.05342(5) 0.43641(19) 0.06141(11)
H2 H 0.0258 0.3851 0.0459
C2 C 0.05699(6) 0.58397(19) 0.08411(12)
H3 H 0.0330 0.6492 0.0864
C3 C 0.10332(6) 0.61264(18) 0.10239(11)
H4 H 0.1168 0.7029 0.1197
C4 C 0.17861(5) 0.12479(19) 0.24152(11)
H5 H 0.1681 0.0308 0.2498
C5 C 0.21080(6) 0.2003(2) 0.30529(12)
H6 H 0.2256 0.1682 0.3632
C6 C 0.21610(5) 0.3323(2) 0.26462(11)
H7 H 0.2358 0.4070 0.2905
C7 C 0.18612(5) 0.23813(18) -0.09373(11)
H8 H 0.1776 0.1576 -0.1316
C8 C 0.21920(5) 0.34028(18) -0.10589(12)
H9 H 0.2367 0.3422 -0.1522
C9 C 0.22057(5) 0.43814(18) -0.03447(12)
H10 H 0.2396 0.5198 -0.0237
C10 C 0.07384(5) 0.14461(16) -0.08163(11)
C11 C 0.07363(5) -0.07191(17) -0.38918(11)
C12 C 0.15406(5) -0.02268(17) 0.03240(11)
C13 C -0.08418(5) -0.22070(18) -0.35635(12)
H11 H -0.0963 -0.1301 -0.3768
C14 C -0.11166(5) -0.34290(18) -0.37819(12)
H12 H -0.1415 -0.3346 -0.4119
C15 C -0.09364(6) -0.47683(18) -0.34870(12)
H13 H -0.1112 -0.5613 -0.3619
C16 C -0.04895(6) -0.48435(18) -0.29902(12)
H14 H -0.0360 -0.5745 -0.2797
C17 C -0.02360(5) -0.35727(17) -0.27814(10)
Cr1 Cr 0.120409(8) 0.17292(3) 0.043657(17)
Mn1 Mn 0.0000 -0.02041(3) -0.2500
N1 N 0.09530(4) 0.37889(14) 0.06510(9)
N2 N 0.12615(4) 0.48928(14) 0.09116(9)
N3 N 0.16504(4) 0.20683(14) 0.16651(9)
N4 N 0.18824(4) 0.33608(14) 0.18118(9)
N5 N 0.16825(4) 0.27213(14) -0.01972(9)
N6 N 0.18984(4) 0.39638(14) 0.01709(9)
N7 N 0.04764(4) 0.12109(14) -0.14832(9)
N8 N 0.04806(4) -0.02187(15) -0.34818(9)
N9 N 0.17731(5) -0.12299(16) 0.03129(11)
N10 N -0.04109(4) -0.22537(14) -0.30750(9)
B1A B -0.17838(6) 0.4585(2) -0.60748(13)
H1A H -0.1995 0.5416 -0.6209
C1A C -0.05342(5) 0.43641(19) -0.56141(11)
H2A H -0.0258 0.3851 -0.5459
C2A C -0.05699(6) 0.58397(19) -0.58411(12)
H3A H -0.0330 0.6492 -0.5864
C3A C -0.10332(6) 0.61264(18) -0.60239(11)
H4A H -0.1168 0.7029 -0.6197
C4A C -0.17861(5) 0.12479(19) -0.74152(11)
H5A H -0.1681 0.0308 -0.7498
C5A C -0.21080(6) 0.2003(2) -0.80529(12)
H6A H -0.2256 0.1682 -0.8632
C6A C -0.21610(5) 0.3323(2) -0.76462(11)
H7A H -0.2358 0.4070 -0.7905
C7A C -0.18612(5) 0.23813(18) -0.40627(11)
H8A H -0.1776 0.1576 -0.3684
C8A C -0.21920(5) 0.34028(18) -0.39411(12)
H9A H -0.2367 0.3422 -0.3478
C9A C -0.22057(5) 0.43814(18) -0.46553(12)
H10A H -0.2396 0.5198 -0.4763
C10A C -0.07384(5) 0.14461(16) -0.41837(11)
C11A C -0.07363(5) -0.07191(17) -0.11082(11)
C11E C 0.07363(5) 0.07191(17) 0.11082(11)
C11D C -0.07363(5) 0.07191(17) -0.61082(11)
C12A C -0.15406(5) -0.02268(17) -0.53240(11)
C13A C 0.08418(5) -0.22070(18) -0.14365(12)
H11A H 0.0963 -0.1301 -0.1232
C14A C 0.11166(5) -0.34290(18) -0.12181(12)
H12A H 0.1415 -0.3346 -0.0881
C15A C 0.09364(6) -0.47683(18) -0.15130(12)
H13A H 0.1112 -0.5613 -0.1381
C16A C 0.04895(6) -0.48435(18) -0.20098(12)
H14A H 0.0360 -0.5745 -0.2203
C17A C 0.02360(5) -0.35727(17) -0.22186(10)
Cr1A Cr -0.120409(8) 0.17292(3) -0.543657(17)
Cr1E Cr 0.120409(8) -0.17292(3) -0.456343(17)
Cr1D Cr -0.120409(8) -0.17292(3) -0.043657(17)
N1A N -0.09530(4) 0.37889(14) -0.56510(9)
N2A N -0.12615(4) 0.48928(14) -0.59116(9)
N3A N -0.16504(4) 0.20683(14) -0.66651(9)
N4A N -0.18824(4) 0.33608(14) -0.68118(9)
N5A N -0.16825(4) 0.27213(14) -0.48028(9)
N6A N -0.18984(4) 0.39638(14) -0.51709(9)
N7A N -0.04764(4) 0.12109(14) -0.35168(9)
N8A N -0.04806(4) -0.02187(15) -0.15182(9)
N9A N -0.17731(5) -0.12299(16) -0.53129(11)
N10A N 0.04109(4) -0.22537(14) -0.19250(9)
loop_
_geom_bond_atom_site_label_1
_geom_bond_atom_site_label_2
_geom_bond_site_symmetry_1
_geom_bond_site_symmetry_2
B1 H1 1_555 1_555
C1 H2 1_555 1_555
C2 C1 1_555 1_555
H3 C2 1_555 1_555
C3 C2 1_555 1_555
H4 C3 1_555 1_555
C4 H5 1_555 1_555
C5 C4 1_555 1_555
H6 C5 1_555 1_555
C6 C5 1_555 1_555
H7 C6 1_555 1_555
C7 H8 1_555 1_555
C8 C7 1_555 1_555
H9 C8 1_555 1_555
C9 C8 1_555 1_555
H10 C9 1_555 1_555
C10 Cr1 1_555 1_555
C11 N8 1_555 1_555
C12 Cr1 1_555 1_555
C13 H11 1_555 1_555
C14 C13 1_555 1_555
H12 C14 1_555 1_555
C15 C14 1_555 1_555
H13 C15 1_555 1_555
C16 C15 1_555 1_555
H14 C16 1_555 1_555
C17 C16 1_555 1_555
Cr1 N1 1_555 1_555
Mn1 N7 1_555 1_555
N1 C1 1_555 1_555
N2 B1 1_555 1_555
N3 C4 1_555 1_555
N4 B1 1_555 1_555
N5 C7 1_555 1_555
N6 B1 1_555 1_555
N7 C10 1_555 1_555
N8 Mn1 1_555 1_555
N9 C12 1_555 1_555
N10 C13 1_555 1_555
B1A H1A 1_555 1_555
C1A H2A 1_555 1_555
C2A C1A 1_555 1_555
H3A C2A 1_555 1_555
C3A C2A 1_555 1_555
H4A C3A 1_555 1_555
C4A H5A 1_555 1_555
C5A C4A 1_555 1_555
H6A C5A 1_555 1_555
C6A C5A 1_555 1_555
H7A C6A 1_555 1_555
C7A H8A 1_555 1_555
C8A C7A 1_555 1_555
H9A C8A 1_555 1_555
C9A C8A 1_555 1_555
H10A C9A 1_555 1_555
C10A Cr1A 1_555 1_555
C11A Cr1D 1_555 1_555
C11E Cr1 1_555 1_555
C11D Cr1A 1_555 1_555
C12A Cr1A 1_555 1_555
C13A H11A 1_555 1_555
C14A C13A 1_555 1_555
H12A C14A 1_555 1_555
C15A C14A 1_555 1_555
H13A C15A 1_555 1_555
C16A C15A 1_555 1_555
H14A C16A 1_555 1_555
C17A C17 1_555 1_555
Cr1A N1A 1_555 1_555
Cr1E C11 1_555 1_555
N1A C1A 1_555 1_555
N2A B1A 1_555 1_555
N3A C4A 1_555 1_555
N4A B1A 1_555 1_555
N5A C7A 1_555 1_555
N6A B1A 1_555 1_555
N7A Mn1 1_555 1_555
N8A Mn1 1_555 1_555
N9A C12A 1_555 1_555
N10A Mn1 1_555 1_555
C3 N2 1_555 1_555
C6 N4 1_555 1_555
C9 N6 1_555 1_555
C17 N10 1_555 1_555
Cr1 N3 1_555 1_555
Cr1 N5 1_555 1_555
Mn1 N10 1_555 1_555
N1 N2 1_555 1_555
N3 N4 1_555 1_555
N5 N6 1_555 1_555
C3A N2A 1_555 1_555
C6A N4A 1_555 1_555
C9A N6A 1_555 1_555
C10A N7A 1_555 1_555
C11A N8A 1_555 1_555
C13A N10A 1_555 1_555
C16A C17A 1_555 1_555
C17A N10A 1_555 1_555
Cr1A N3A 1_555 1_555
Cr1A N5A 1_555 1_555
N1A N2A 1_555 1_555
N3A N4A 1_555 1_555
N5A N6A 1_555 1_555

#END
