
#######################################################################
#
#                 Cambridge Crystallographic Data Centre
#                                CCDC 
#
#######################################################################
#
# If this CIF has been generated from an entry in the Cambridge 
# Structural Database, then it will include bibliographic, chemical, 
# crystal, experimental, refinement or atomic coordinate data resulting 
# from the CCDC's data processing and validation procedures.
#
#######################################################################

data_YADGIV
_symmetry_cell_setting           monoclinic
_symmetry_space_group_name_H-M   'P 21/n'
_symmetry_Int_Tables_number      14
_space_group_name_Hall           '-P 2yn'
loop_
_symmetry_equiv_pos_site_id
_symmetry_equiv_pos_as_xyz
1 x,y,z
2 1/2-x,1/2+y,1/2-z
3 -x,-y,-z
4 1/2+x,1/2-y,1/2+z
_cell_length_a                   7.873(3)
_cell_length_b                   10.225(3)
_cell_length_c                   17.006(6)
_cell_angle_alpha                90
_cell_angle_beta                 97.014(4)
_cell_angle_gamma                90
_cell_volume                     1358.76
loop_
_atom_site_label
_atom_site_type_symbol
_atom_site_fract_x
_atom_site_fract_y
_atom_site_fract_z
Zn1 Zn 0.44726(5) 0.98040(4) 0.07850(2)
N1 N 0.3960(4) 0.7560(3) 0.27221(18)
O1 O 0.3840(4) 0.8147(2) 0.01288(16)
O2 O 0.4537(3) 0.8424(2) -0.10938(16)
O3 O 0.2300(3) 0.0709(3) 0.02693(15)
O4 O 0.3076(3) 0.0928(3) -0.09457(15)
O5 O 0.3739(3) 0.9127(3) 0.17854(14)
S1 S 0.02332(13) 0.27397(10) -0.15567(6)
C1 C 0.3909(5) 0.7776(4) -0.0567(2)
C2 C 0.3150(5) 0.6466(3) -0.0796(2)
C3 C 0.2695(6) 0.5616(4) -0.0231(2)
H1 H 0.2935 0.5838 0.0302
C4 C 0.1891(6) 0.4441(4) -0.0433(2)
H2 H 0.1617 0.3875 -0.0039
C5 C 0.1495(4) 0.4109(3) -0.1225(2)
C6 C 0.2003(5) 0.4932(4) -0.1797(2)
H3 H 0.1786 0.4700 -0.2329
C7 C 0.2829(5) 0.6092(4) -0.1588(2)
H4 H 0.3176 0.6631 -0.1979
C8 C 0.2065(5) 0.1074(3) -0.0442(2)
C9 C 0.0339(4) 0.1706(4) -0.0700(2)
H5 H 0.0021 0.2220 -0.0261
H6 H -0.0507 0.1018 -0.0805
C10 C 0.4246(5) 0.8026(4) 0.2037(2)
H7 H 0.4860 0.7514 0.1718
C11 C 0.3021(6) 0.8301(5) 0.3251(3)
H8 H 0.2773 0.9156 0.3033
H9 H 0.3697 0.8380 0.3758
H10 H 0.1970 0.7859 0.3312
C12 C 0.4597(7) 0.6270(5) 0.2993(3)
H11 H 0.5175 0.5870 0.2590
H12 H 0.3653 0.5730 0.3098
H13 H 0.5379 0.6366 0.3469
Zn1B Zn 0.55274(5) 1.01960(4) -0.07850(2)
Zn1_2 Zn 0.44726(5) -0.01960(4) 0.07850(2)
Zn1B_2 Zn 0.55274(5) 0.01960(4) -0.07850(2)
O2B O 0.5463(3) 1.1576(2) 0.10938(16)
O3_2 O 0.2300(3) 1.0709(3) 0.02693(15)
O4B O 0.6924(3) 0.9072(3) 0.09457(15)
loop_
_geom_bond_atom_site_label_1
_geom_bond_atom_site_label_2
_geom_bond_site_symmetry_1
_geom_bond_site_symmetry_2
Zn1 O1 1_555 1_555
N1 C10 1_555 1_555
O1 C1 1_555 1_555
O2 C1 1_555 1_555
O3 C8 1_555 1_555
O4 C8 1_555 1_555
O5 Zn1 1_555 1_555
S1 C5 1_555 1_555
C1 C2 1_555 1_555
C2 C3 1_555 1_555
C3 H1 1_555 1_555
C4 C3 1_555 1_555
H2 C4 1_555 1_555
C5 C4 1_555 1_555
C6 C5 1_555 1_555
H3 C6 1_555 1_555
C7 C2 1_555 1_555
H4 C7 1_555 1_555
C8 C9 1_555 1_555
C9 S1 1_555 1_555
H5 C9 1_555 1_555
H6 C9 1_555 1_555
C10 O5 1_555 1_555
H7 C10 1_555 1_555
C11 N1 1_555 1_555
H8 C11 1_555 1_555
H9 C11 1_555 1_555
H10 C11 1_555 1_555
C12 N1 1_555 1_555
H11 C12 1_555 1_555
H12 C12 1_555 1_555
H13 C12 1_555 1_555
Zn1B O2 1_555 1_555
Zn1_2 O3 1_555 1_555
Zn1B_2 O4 1_555 1_555
O2B Zn1 1_555 1_555
O3_2 Zn1 1_555 1_555
O4B Zn1 1_555 1_555
C6 C7 1_555 1_555

#END
