
#######################################################################
#
#                 Cambridge Crystallographic Data Centre
#                                CCDC 
#
#######################################################################
#
# If this CIF has been generated from an entry in the Cambridge 
# Structural Database, then it will include bibliographic, chemical, 
# crystal, experimental, refinement or atomic coordinate data resulting 
# from the CCDC's data processing and validation procedures.
#
#######################################################################

data_YADMIB
_symmetry_cell_setting           triclinic
_symmetry_space_group_name_H-M   'P -1'
_symmetry_Int_Tables_number      2
_space_group_name_Hall           '-P 1'
loop_
_symmetry_equiv_pos_site_id
_symmetry_equiv_pos_as_xyz
1 x,y,z
2 -x,-y,-z
_cell_length_a                   10.0816(9)
_cell_length_b                   10.7844(10)
_cell_length_c                   13.7316(12)
_cell_angle_alpha                79.1740(10)
_cell_angle_beta                 78.771(2)
_cell_angle_gamma                86.355(2)
_cell_volume                     1437.75
loop_
_atom_site_label
_atom_site_type_symbol
_atom_site_fract_x
_atom_site_fract_y
_atom_site_fract_z
Co1 Co -0.5000 0.5000 1.0000
Er1 Er -0.18176(2) 0.92224(2) 0.796262(18)
C1 C -0.2010(6) 0.5274(6) 0.7723(5)
C2 C -0.1777(7) 0.5835(6) 0.6709(5)
H1 H -0.1712 0.6707 0.6528
C3 C -0.1640(6) 0.5091(6) 0.5959(5)
C4 C -0.1655(6) 0.3777(6) 0.6249(5)
H2 H -0.1543 0.3266 0.5762
C5 C -0.1833(6) 0.3243(6) 0.7250(5)
C6 C -0.2041(6) 0.3972(6) 0.8004(5)
H3 H -0.2197 0.3594 0.8682
C7 C -0.1869(6) 0.1837(6) 0.7518(5)
C8 C -0.2318(7) 0.6074(6) 0.8526(5)
C9 C -0.1651(7) 0.5169(7) 0.4170(5)
C10 C -0.1506(7) 0.6000(7) 0.3142(5)
C11 C -0.1432(8) 0.5403(8) 0.2318(5)
H4 H -0.1416 0.4526 0.2406
C12 C -0.1385(9) 0.6116(8) 0.1383(5)
H5 H -0.1338 0.5698 0.0843
C13 C -0.1448(8) 0.7939(8) 0.1996(6)
H6 H -0.1442 0.8816 0.1888
C14 C -0.1505(8) 0.7294(7) 0.2963(5)
H7 H -0.1543 0.7730 0.3491
C15 C 0.2360(7) 0.8871(6) 0.6690(5)
C16 C 0.2649(6) 0.8586(6) 0.5711(5)
H8 H 0.1946 0.8527 0.5375
C17 C 0.3943(6) 0.8397(6) 0.5257(5)
C18 C 0.5006(6) 0.8521(6) 0.5738(5)
H9 H 0.5896 0.8420 0.5413
C19 C 0.4738(6) 0.8796(6) 0.6698(5)
C20 C 0.3414(6) 0.8968(6) 0.7185(5)
H10 H 0.3237 0.9147 0.7835
C21 C 0.0908(6) 0.9019(6) 0.7170(5)
C22 C 0.5927(6) 0.8916(6) 0.7177(5)
C23 C 0.5058(6) 0.7065(7) 0.4098(5)
C24 C 0.5094(6) 0.6636(7) 0.3100(5)
C25 C 0.5104(7) 0.5355(7) 0.3108(5)
H11 H 0.5077 0.4783 0.3709
C26 C 0.5155(7) 0.4933(7) 0.2211(5)
H12 H 0.5150 0.4068 0.2225
C27 C 0.5258(8) 0.6949(7) 0.1321(5)
H13 H 0.5354 0.7497 0.0703
C28 C 0.5172(7) 0.7460(7) 0.2184(5)
H14 H 0.5167 0.8330 0.2151
N1 N -0.1457(5) 0.5694(5) 0.4954(4)
H15 H -0.1199 0.6463 0.4819
N2 N -0.1400(7) 0.7376(7) 0.1191(5)
N3 N 0.4213(5) 0.8043(5) 0.4280(4)
H16 H 0.3831 0.8460 0.3806
N4 N 0.5212(6) 0.5710(6) 0.1323(4)
O1 O -0.3059(5) 0.5656(5) 0.9346(3)
O2 O -0.1793(5) 0.7147(4) 0.8335(4)
O3 O -0.1703(6) 0.1271(4) 0.8379(3)
O4 O -0.2075(6) 0.1200(5) 0.6898(4)
O5 O -0.1926(8) 0.4070(5) 0.4251(4)
O6 O 0.0561(5) 0.9015(5) 0.8108(4)
O7 O 0.0016(5) 0.9159(6) 0.6644(3)
O8 O 0.5758(5) 0.9079(5) 0.8090(4)
O9 O 0.7095(4) 0.8844(4) 0.6686(3)
O10 O 0.5752(5) 0.6497(6) 0.4668(4)
O11 O -0.4267(6) 0.3145(5) 1.0665(4)
H17 H -0.3591 0.2868 1.0285
H18 H -0.4880 0.2603 1.0843
O12 O -0.2229(6) 0.9033(5) 0.9693(4)
H19 H -0.1908 0.9650 0.9863
H20 H -0.1880 0.8351 0.9967
Co1_2 Co -1.5000 0.5000 2.0000
Co1_3 Co 0.5000 0.5000 0.0000
Er1A Er -0.81824(2) 0.07776(2) 1.203738(18)
Er1_2 Er -0.18176(2) -0.07776(2) 0.796262(18)
Er1_3 Er 0.81824(2) 0.92224(2) 0.796262(18)
Er1A_2 Er -1.81824(2) 0.07776(2) 1.203738(18)
Er1A_3 Er -0.81824(2) 1.07776(2) 1.203738(18)
C1A C -0.7990(6) 0.4726(6) 1.2277(5)
C2A C -0.8223(7) 0.4165(6) 1.3291(5)
H1A H -0.8288 0.3293 1.3472
C3A C -0.8360(6) 0.4909(6) 1.4041(5)
C4A C -0.8345(6) 0.6223(6) 1.3751(5)
H2A H -0.8457 0.6734 1.4238
C5A C -0.8167(6) 0.6757(6) 1.2750(5)
C6A C -0.7959(6) 0.6028(6) 1.1996(5)
H3A H -0.7803 0.6406 1.1318
C7A C -0.8131(6) 0.8163(6) 1.2482(5)
C7_2 C -0.1869(6) 1.1837(6) 0.7518(5)
C7A_2 C -0.8131(6) -0.1837(6) 1.2482(5)
C8A C -0.7682(7) 0.3926(6) 1.1474(5)
C9A C -0.8349(7) 0.4831(7) 1.5830(5)
C10A C -0.8494(7) 0.4000(7) 1.6858(5)
C11A C -0.8568(8) 0.4597(8) 1.7682(5)
H4A H -0.8584 0.5474 1.7594
C12A C -0.8615(9) 0.3884(8) 1.8617(5)
H5A H -0.8662 0.4302 1.9157
C13A C -0.8552(8) 0.2061(8) 1.8004(6)
H6A H -0.8558 0.1184 1.8112
C14A C -0.8495(8) 0.2706(7) 1.7037(5)
H7A H -0.8457 0.2270 1.6509
C15A C -1.2360(7) 0.1129(6) 1.3310(5)
C16A C -1.2649(6) 0.1414(6) 1.4289(5)
H8A H -1.1946 0.1473 1.4625
C17A C -1.3943(6) 0.1603(6) 1.4743(5)
C18A C -1.5006(6) 0.1479(6) 1.4262(5)
H9A H -1.5896 0.1580 1.4587
C19A C -1.4738(6) 0.1204(6) 1.3302(5)
C20A C -1.3414(6) 0.1032(6) 1.2815(5)
H10A H -1.3237 0.0853 1.2165
C21A C -1.0908(6) 0.0981(6) 1.2830(5)
C22A C -1.5927(6) 0.1084(6) 1.2823(5)
C22_2 C -0.4073(6) 0.8916(6) 0.7177(5)
C22A_2 C -0.5927(6) 0.1084(6) 1.2823(5)
C23A C -1.5058(6) 0.2935(7) 1.5902(5)
C24A C -1.5094(6) 0.3364(7) 1.6900(5)
C25A C -1.5104(7) 0.4645(7) 1.6892(5)
H11A H -1.5077 0.5217 1.6291
C26A C -1.5155(7) 0.5067(7) 1.7789(5)
H12A H -1.5150 0.5932 1.7775
C27A C -1.5258(8) 0.3051(7) 1.8679(5)
H13A H -1.5354 0.2503 1.9297
C28A C -1.5172(7) 0.2540(7) 1.7816(5)
H14A H -1.5167 0.1670 1.7849
N1A N -0.8543(5) 0.4306(5) 1.5046(4)
H15A H -0.8801 0.3537 1.5181
N2A N -0.8600(7) 0.2624(7) 1.8809(5)
N3A N -1.4213(5) 0.1957(5) 1.5720(4)
H16A H -1.3831 0.1540 1.6194
N4A N -1.5212(6) 0.4290(6) 1.8677(4)
N4_2 N -0.4788(6) 0.5710(6) 1.1323(4)
N4A_2 N -0.5212(6) 0.4290(6) 0.8677(4)
O1A O -0.6941(5) 0.4344(5) 1.0654(3)
O2A O -0.8207(5) 0.2853(4) 1.1665(4)
O3A O -0.8297(6) 0.8729(4) 1.1621(3)
O3_2 O -0.1703(6) 1.1271(4) 0.8379(3)
O3A_2 O -0.8297(6) -0.1271(4) 1.1621(3)
O4A O -0.7925(6) 0.8800(5) 1.3102(4)
O4_2 O -0.2075(6) 1.1200(5) 0.6898(4)
O4A_2 O -0.7925(6) -0.1200(5) 1.3102(4)
O5A O -0.8074(8) 0.5930(5) 1.5749(4)
O6A O -1.0561(5) 0.0985(5) 1.1892(4)
O7A O -1.0016(5) 0.0841(6) 1.3356(3)
O8A O -1.5758(5) 0.0921(5) 1.1910(4)
O8_2 O -0.4242(5) 0.9079(5) 0.8090(4)
O8A_2 O -0.5758(5) 0.0921(5) 1.1910(4)
O9A O -1.7095(4) 0.1156(4) 1.3314(3)
O9_2 O -0.2905(4) 0.8844(4) 0.6686(3)
O9A_2 O -0.7095(4) 0.1156(4) 1.3314(3)
O10A O -1.5752(5) 0.3503(6) 1.5332(4)
O11A O -0.5733(6) 0.6855(5) 0.9335(4)
H17A H -0.6409 0.7132 0.9715
H18A H -0.5120 0.7397 0.9157
O12A O -0.7771(6) 0.0967(5) 1.0307(4)
H19A H -0.8092 0.0350 1.0137
H20A H -0.8120 0.1649 1.0033
O13 O 0.9154(8) 0.8418(6) 0.4834(4)
H21 H 0.9711 0.8601 0.5171
H22 H 0.8369 0.8457 0.5189
O14 O 0.8025(7) 0.1615(8) 0.0328(5)
H23 H 0.8294 0.1409 -0.0248
H24 H 0.8595 0.1331 0.0702
loop_
_geom_bond_atom_site_label_1
_geom_bond_atom_site_label_2
_geom_bond_site_symmetry_1
_geom_bond_site_symmetry_2
Co1 O1 1_555 1_555
Er1 O2 1_555 1_555
C1 C2 1_555 1_555
C2 H1 1_555 1_555
C3 C2 1_555 1_555
C4 C3 1_555 1_555
H2 C4 1_555 1_555
C5 C4 1_555 1_555
C6 C1 1_555 1_555
H3 C6 1_555 1_555
C7 C5 1_555 1_555
C8 C1 1_555 1_555
C9 C10 1_555 1_555
C10 C11 1_555 1_555
C11 H4 1_555 1_555
C12 C11 1_555 1_555
H5 C12 1_555 1_555
C13 H6 1_555 1_555
C14 C10 1_555 1_555
H7 C14 1_555 1_555
C15 C16 1_555 1_555
C16 H8 1_555 1_555
C17 C16 1_555 1_555
C18 C17 1_555 1_555
H9 C18 1_555 1_555
C19 C18 1_555 1_555
C20 C15 1_555 1_555
H10 C20 1_555 1_555
C21 C15 1_555 1_555
C22 C19 1_555 1_555
C23 C24 1_555 1_555
C24 C25 1_555 1_555
C25 H11 1_555 1_555
C26 C25 1_555 1_555
H12 C26 1_555 1_555
C27 H13 1_555 1_555
C28 C24 1_555 1_555
H14 C28 1_555 1_555
N1 C3 1_555 1_555
H15 N1 1_555 1_555
N2 C12 1_555 1_555
N3 C17 1_555 1_555
H16 N3 1_555 1_555
N4 C26 1_555 1_555
O1 C8 1_555 1_555
O2 C8 1_555 1_555
O3 C7 1_555 1_555
O4 C7 1_555 1_555
O5 C9 1_555 1_555
O6 Er1 1_555 1_555
O7 Er1 1_555 1_555
O8 C22 1_555 1_555
O9 C22 1_555 1_555
O10 C23 1_555 1_555
O11 Co1 1_555 1_555
H17 O11 1_555 1_555
H18 O11 1_555 1_555
O12 Er1 1_555 1_555
H19 O12 1_555 1_555
H20 O12 1_555 1_555
O13 H21 1_555 1_555
H22 O13 1_555 1_555
O14 H23 1_555 1_555
H24 O14 1_555 1_555
Co1_2 N4A 1_555 1_555
Co1_3 N4 1_555 1_555
Er1A O2A 1_555 1_555
Er1_2 O3 1_555 1_555
Er1_3 O8 1_555 1_555
Er1A_2 O8A 1_555 1_555
Er1A_3 O3A 1_555 1_555
C1A C2A 1_555 1_555
C2A H1A 1_555 1_555
C3A C2A 1_555 1_555
C4A C3A 1_555 1_555
H2A C4A 1_555 1_555
C5A C4A 1_555 1_555
C6A C1A 1_555 1_555
H3A C6A 1_555 1_555
C7A C5A 1_555 1_555
C7_2 O3_2 1_555 1_555
C7A_2 O3A_2 1_555 1_555
C8A C1A 1_555 1_555
C9A C10A 1_555 1_555
C10A C11A 1_555 1_555
C11A H4A 1_555 1_555
C12A C11A 1_555 1_555
H5A C12A 1_555 1_555
C13A H6A 1_555 1_555
C14A C10A 1_555 1_555
H7A C14A 1_555 1_555
C15A C16A 1_555 1_555
C16A H8A 1_555 1_555
C17A C16A 1_555 1_555
C18A C17A 1_555 1_555
H9A C18A 1_555 1_555
C19A C18A 1_555 1_555
C20A C15A 1_555 1_555
H10A C20A 1_555 1_555
C21A C15A 1_555 1_555
C22A C19A 1_555 1_555
C22_2 O8_2 1_555 1_555
C22A_2 O8A_2 1_555 1_555
C23A C24A 1_555 1_555
C24A C25A 1_555 1_555
C25A H11A 1_555 1_555
C26A C25A 1_555 1_555
H12A C26A 1_555 1_555
C27A H13A 1_555 1_555
C28A C24A 1_555 1_555
H14A C28A 1_555 1_555
N1A C3A 1_555 1_555
H15A N1A 1_555 1_555
N2A C12A 1_555 1_555
N3A C17A 1_555 1_555
H16A N3A 1_555 1_555
N4A C26A 1_555 1_555
N4_2 Co1 1_555 1_555
N4A_2 Co1 1_555 1_555
O1A Co1 1_555 1_555
O2A C8A 1_555 1_555
O3A C7A 1_555 1_555
O3_2 Er1 1_555 1_555
O3A_2 Er1A 1_555 1_555
O4A Er1A_3 1_555 1_555
O4_2 Er1 1_555 1_555
O4A_2 Er1A 1_555 1_555
O5A C9A 1_555 1_555
O6A Er1A 1_555 1_555
O7A Er1A 1_555 1_555
O8A C22A 1_555 1_555
O8_2 Er1 1_555 1_555
O8A_2 Er1A 1_555 1_555
O9A Er1A_2 1_555 1_555
O9_2 Er1 1_555 1_555
O9A_2 Er1A 1_555 1_555
O10A C23A 1_555 1_555
O11A Co1 1_555 1_555
H17A O11A 1_555 1_555
H18A O11A 1_555 1_555
O12A Er1A 1_555 1_555
H19A O12A 1_555 1_555
H20A O12A 1_555 1_555
C5 C6 1_555 1_555
C9 N1 1_555 1_555
C13 C14 1_555 1_555
C13 N2 1_555 1_555
C19 C20 1_555 1_555
C21 O6 1_555 1_555
C21 O7 1_555 1_555
C23 N3 1_555 1_555
C27 C28 1_555 1_555
C27 N4 1_555 1_555
O4 Er1_2 1_555 1_555
O9 Er1_3 1_555 1_555
C5A C6A 1_555 1_555
C7A O4A 1_555 1_555
C7_2 O4_2 1_555 1_555
C7A_2 O4A_2 1_555 1_555
C8A O1A 1_555 1_555
C9A N1A 1_555 1_555
C13A C14A 1_555 1_555
C13A N2A 1_555 1_555
C19A C20A 1_555 1_555
C21A O6A 1_555 1_555
C21A O7A 1_555 1_555
C22A O9A 1_555 1_555
C22_2 O9_2 1_555 1_555
C22A_2 O9A_2 1_555 1_555
C23A N3A 1_555 1_555
C27A C28A 1_555 1_555
C27A N4A 1_555 1_555

#END
