
#######################################################################
#
#                 Cambridge Crystallographic Data Centre
#                                CCDC 
#
#######################################################################
#
# If this CIF has been generated from an entry in the Cambridge 
# Structural Database, then it will include bibliographic, chemical, 
# crystal, experimental, refinement or atomic coordinate data resulting 
# from the CCDC's data processing and validation procedures.
#
#######################################################################

data_YADQUQ
_symmetry_cell_setting           orthorhombic
_symmetry_space_group_name_H-M   'P b c n'
_symmetry_Int_Tables_number      60
_space_group_name_Hall           '-P 2n 2ab'
loop_
_symmetry_equiv_pos_site_id
_symmetry_equiv_pos_as_xyz
1 x,y,z
2 1/2-x,1/2+y,z
3 x,-y,1/2+z
4 1/2+x,1/2+y,1/2-z
5 -x,-y,-z
6 1/2+x,1/2-y,-z
7 -x,y,1/2-z
8 1/2-x,1/2-y,1/2+z
_cell_length_a                   8.1012(5)
_cell_length_b                   5.31093(31)
_cell_length_c                   29.2595(16)
_cell_angle_alpha                90
_cell_angle_beta                 90
_cell_angle_gamma                90
_cell_volume                     1258.89
loop_
_atom_site_label
_atom_site_type_symbol
_atom_site_fract_x
_atom_site_fract_y
_atom_site_fract_z
Cu1 Cu 0.18292(29) 0.4958(18) 0.00007(29)
P1 P 0.5011(15) 0.5847(11) 0.05821(11)
O1 O 0.3523(20) 0.421(4) 0.0438(4)
O2 O 0.496(4) 0.8412(12) 0.03308(23)
O3 O 0.6653(18) 0.448(5) 0.0491(4)
C1 C 0.4843(16) 0.6460(16) 0.11914(12)
C2 C 0.5821(13) 0.5240(23) 0.15154(21)
C3 C 0.5699(14) 0.5912(21) 0.19804(19)
C4 C 0.4778(16) 0.8005(18) 0.21145(12)
C5 C 0.3941(12) 0.9374(21) 0.17717(17)
C6 C 0.4161(14) 0.8790(17) 0.13132(15)
O4 O 0.50000 0.9319(18) 0.25000
C4F C 0.5222(16) 0.8005(18) 0.28855(12)
C3F C 0.4301(14) 0.5912(21) 0.30196(19)
C2F C 0.4179(13) 0.5240(23) 0.34846(21)
C1F C 0.5157(16) 0.6460(16) 0.38086(12)
P1F P 0.4989(15) 0.5847(11) 0.44179(11)
O1F O 0.6477(20) 0.421(4) 0.4562(4)
O2F O 0.504(4) 0.8412(12) 0.46692(23)
O3F O 0.3347(18) 0.448(5) 0.4509(4)
C6F C 0.5839(14) 0.8790(17) 0.36868(15)
C5F C 0.6059(12) 0.9374(21) 0.32283(17)
Cu1F Cu 0.81708(29) 0.4958(18) 0.49993(29)
O2A O 0.004(4) 0.3412(12) 0.03308(23)
O2E O -0.004(4) 0.6588(12) -0.03308(23)
O3D O 0.3347(18) 0.552(5) -0.0491(4)
Cu1A Cu 0.31708(29) 0.9958(18) 0.00007(29)
Cu1E Cu 0.68292(29) 1.0042(18) -0.00007(29)
Cu1D Cu 0.81708(29) 0.5042(18) -0.00007(29)
Cu1C Cu 0.68292(29) 0.9958(18) 0.49993(29)
Cu1G Cu 0.31708(29) 1.0042(18) 0.50007(29)
Cu1B Cu 0.18292(29) 0.5042(18) 0.50007(29)
O2C O 0.996(4) 0.3412(12) 0.46692(23)
O2G O 1.004(4) 0.6588(12) 0.53308(23)
O3B O 0.6653(18) 0.552(5) 0.5491(4)
loop_
_geom_bond_atom_site_label_1
_geom_bond_atom_site_label_2
_geom_bond_site_symmetry_1
_geom_bond_site_symmetry_2
Cu1 O1 1_555 1_555
P1 O1 1_555 1_555
O2 P1 1_555 1_555
O3 P1 1_555 1_555
C1 P1 1_555 1_555
C2 C1 1_555 1_555
C3 C2 1_555 1_555
C4 C3 1_555 1_555
C5 C4 1_555 1_555
C6 C1 1_555 1_555
O4 C4 1_555 1_555
C4F O4 1_555 1_555
C3F C4F 1_555 1_555
C2F C3F 1_555 1_555
C1F C2F 1_555 1_555
P1F C1F 1_555 1_555
O1F P1F 1_555 1_555
O2F P1F 1_555 1_555
O3F P1F 1_555 1_555
C6F C1F 1_555 1_555
C5F C4F 1_555 1_555
Cu1F O1F 1_555 1_555
O2A Cu1 1_555 1_555
O2E Cu1 1_555 1_555
O3D Cu1 1_555 1_555
Cu1A O2 1_555 1_555
Cu1E O2 1_555 1_555
Cu1D O3 1_555 1_555
Cu1C O2F 1_555 1_555
Cu1G O2F 1_555 1_555
Cu1B O3F 1_555 1_555
O2C Cu1F 1_555 1_555
O2G Cu1F 1_555 1_555
O3B Cu1F 1_555 1_555
C5 C6 1_555 1_555
C6F C5F 1_555 1_555

#END
