
#######################################################################
#
#                 Cambridge Crystallographic Data Centre
#                                CCDC 
#
#######################################################################
#
# If this CIF has been generated from an entry in the Cambridge 
# Structural Database, then it will include bibliographic, chemical, 
# crystal, experimental, refinement or atomic coordinate data resulting 
# from the CCDC's data processing and validation procedures.
#
#######################################################################

data_YADRAX
_symmetry_cell_setting           monoclinic
_symmetry_space_group_name_H-M   'P 1 1 21'
_symmetry_Int_Tables_number      4
_space_group_name_Hall           'P 2c'
loop_
_symmetry_equiv_pos_site_id
_symmetry_equiv_pos_as_xyz
1 x,y,z
2 -x,-y,1/2+z
_cell_length_a                   9.4993(9)
_cell_length_b                   5.0445(5)
_cell_length_c                   29.1309(23)
_cell_angle_alpha                90
_cell_angle_beta                 90
_cell_angle_gamma                91.946(7)
_cell_volume                     1395.12
loop_
_atom_site_label
_atom_site_type_symbol
_atom_site_fract_x
_atom_site_fract_y
_atom_site_fract_z
Zn1 Zn 0.2103(14) 0.1309(26) -0.02711
P1 P 0.4236(24) 0.607(4) -0.0751(8)
P2 P -0.1338(23) 0.042(4) -0.0628(8)
O1 O 0.5725(29) 0.711(7) -0.0611(14)
O2 O 0.384(4) 0.349(6) -0.0493(13)
O3 O 0.313(4) 0.820(7) -0.0654(13)
O4 O -0.2292(35) 0.283(6) -0.0665(13)
O5 O -0.205(4) -0.188(6) -0.0359(10)
O6 O 0.0090(26) 0.126(7) -0.0405(12)
C1 C 0.423(5) 0.540(8) -0.1358(9)
C2 C 0.287(4) 0.465(12) -0.1511(17)
C3 C 0.280(6) 0.387(13) -0.1976(17)
C4 C 0.393(7) 0.250(13) -0.2159(16)
C5 C 0.516(6) 0.226(10) -0.1891(19)
C6 C 0.541(4) 0.423(12) -0.1558(14)
C7 C -0.097(4) -0.072(8) -0.1211(9)
C8 C -0.008(6) 0.077(10) -0.1516(12)
C9 C -0.040(6) 0.068(10) -0.1986(12)
C10 C -0.081(8) -0.184(13) -0.2155(11)
C11 C -0.159(8) -0.355(11) -0.1865(15)
C12 C -0.176(7) -0.282(10) -0.1405(14)
O7 O 0.442(5) 0.156(8) -0.2565(12)
O8 O -0.107(6) -0.294(6) -0.2570(11)
Zn2 Zn -0.1643(14) -0.1594(25) 0.0335(5)
P3 P 0.3864(23) 0.627(4) -0.4355(8)
P4 P -0.1584(23) 0.131(4) -0.4405(7)
O9 O 0.5434(26) 0.710(8) -0.4383(14)
O10 O 0.343(4) 0.435(7) -0.4748(11)
O11 O 0.292(4) 0.874(7) -0.4372(14)
O12 O -0.2812(29) 0.289(7) -0.4600(13)
O13 O -0.149(4) -0.144(5) -0.4638(9)
O14 O -0.0177(24) 0.291(6) -0.4451(14)
C13 C 0.355(5) 0.461(8) -0.3812(10)
C14 C 0.339(7) 0.611(11) -0.3409(19)
C15 C 0.409(8) 0.538(13) -0.3008(13)
C16 C 0.458(7) 0.281(14) -0.2976(14)
C17 C 0.477(7) 0.132(10) -0.3373(22)
C18 C 0.444(7) 0.246(10) -0.3799(16)
C19 C -0.193(5) 0.072(8) -0.3798(8)
C20 C -0.267(6) 0.168(10) -0.3412(10)
C21 C -0.207(7) 0.106(9) -0.2986(9)
C22 C -0.153(8) -0.149(9) -0.2927(10)
C23 C -0.128(8) -0.299(8) -0.3321(12)
C24 C -0.126(7) -0.170(10) -0.3749(11)
O3_2 O 0.313(4) -0.180(7) -0.0654(13)
O13A O 0.149(4) 0.144(5) 0.0362(9)
Zn1_2 Zn 0.2103(14) 1.1309(26) -0.02711
O10A O -0.343(4) -0.435(7) 0.0252(11)
O11A O -0.292(4) 0.126(7) 0.0628(14)
O14A O 0.0177(24) -0.291(6) 0.0549(14)
Zn2A Zn 0.1643(14) 0.1594(25) -0.4665(5)
Zn2A_2 Zn 0.1643(14) 1.1594(25) -0.4665(5)
Zn1A Zn -0.2103(14) -0.1309(26) -0.52711
loop_
_geom_bond_atom_site_label_1
_geom_bond_atom_site_label_2
_geom_bond_site_symmetry_1
_geom_bond_site_symmetry_2
Zn1 O2 1_555 1_555
P1 O1 1_555 1_555
P2 O4 1_555 1_555
O2 P1 1_555 1_555
O3 P1 1_555 1_555
O5 P2 1_555 1_555
O6 Zn1 1_555 1_555
C1 P1 1_555 1_555
C2 C1 1_555 1_555
C3 C2 1_555 1_555
C4 C3 1_555 1_555
C5 C4 1_555 1_555
C6 C1 1_555 1_555
C7 P2 1_555 1_555
C8 C7 1_555 1_555
C9 C8 1_555 1_555
C10 C9 1_555 1_555
C11 C10 1_555 1_555
C12 C7 1_555 1_555
O7 C4 1_555 1_555
O8 C10 1_555 1_555
Zn2 O5 1_555 1_555
P3 O9 1_555 1_555
P4 O12 1_555 1_555
O10 P3 1_555 1_555
O11 P3 1_555 1_555
O13 P4 1_555 1_555
O14 P4 1_555 1_555
C13 P3 1_555 1_555
C14 C13 1_555 1_555
C15 C14 1_555 1_555
C16 O7 1_555 1_555
C17 C16 1_555 1_555
C18 C13 1_555 1_555
C19 P4 1_555 1_555
C20 C19 1_555 1_555
C21 C20 1_555 1_555
C22 O8 1_555 1_555
C23 C22 1_555 1_555
C24 C19 1_555 1_555
O3_2 Zn1 1_555 1_555
O13A Zn1 1_555 1_555
Zn1_2 O3 1_555 1_555
O10A Zn2 1_555 1_555
O11A Zn2 1_555 1_555
O14A Zn2 1_555 1_555
Zn2A O10 1_555 1_555
Zn2A_2 O11 1_555 1_555
Zn1A O13 1_555 1_555
P2 O6 1_555 1_555
C5 C6 1_555 1_555
C11 C12 1_555 1_555
O14 Zn2A 1_555 1_555
C15 C16 1_555 1_555
C17 C18 1_555 1_555
C21 C22 1_555 1_555
C23 C24 1_555 1_555

#END
