
#######################################################################
#
#                 Cambridge Crystallographic Data Centre
#                                CCDC 
#
#######################################################################
#
# If this CIF has been generated from an entry in the Cambridge 
# Structural Database, then it will include bibliographic, chemical, 
# crystal, experimental, refinement or atomic coordinate data resulting 
# from the CCDC's data processing and validation procedures.
#
#######################################################################

data_YADREC
_symmetry_cell_setting           monoclinic
_symmetry_space_group_name_H-M   'C 2/c'
_symmetry_Int_Tables_number      15
_space_group_name_Hall           '-C 2yn'
loop_
_symmetry_equiv_pos_site_id
_symmetry_equiv_pos_as_xyz
1 x,y,z
2 -x,y,1/2-z
3 1/2+x,1/2+y,z
4 1/2-x,1/2+y,1/2-z
5 -x,-y,-z
6 x,-y,1/2+z
7 1/2-x,1/2-y,-z
8 1/2+x,1/2-y,1/2+z
_cell_length_a                   21.259(2)
_cell_length_b                   15.7647(17)
_cell_length_c                   20.949(3)
_cell_angle_alpha                90
_cell_angle_beta                 148.768(5)
_cell_angle_gamma                90
_cell_volume                     3640.36
loop_
_atom_site_label
_atom_site_type_symbol
_atom_site_fract_x
_atom_site_fract_y
_atom_site_fract_z
Ag1 Ag 0.0000 0.45375(5) -0.2500
N1 N 0.1878(5) 0.4546(3) -0.0596(5)
C1 C 0.2488(6) 0.5264(4) -0.0009(6)
H3 H 0.2081 0.5774 -0.0424
C2 C 0.3715(6) 0.5285(4) 0.1205(6)
H4 H 0.4115 0.5803 0.1582
C3 C 0.4347(5) 0.4539(4) 0.1856(5)
C4 C 0.3680(6) 0.3788(4) 0.1220(7)
H5 H 0.4053 0.3266 0.1612
C5 C 0.2469(6) 0.3825(5) 0.0010(6)
H6 H 0.2044 0.3319 -0.0402
Ag1_2 Ag 1.0000 0.45375(5) 0.7500
N1A N 0.8122(5) 0.4546(3) 0.5596(5)
N1A_2 N -0.1878(5) 0.4546(3) -0.4404(5)
C1A C 0.7512(6) 0.5264(4) 0.5009(6)
H3A H 0.7919 0.5774 0.5424
C2A C 0.6285(6) 0.5285(4) 0.3795(6)
H4A H 0.5885 0.5803 0.3418
C3A C 0.5653(5) 0.4539(4) 0.3144(5)
C4A C 0.6320(6) 0.3788(4) 0.3780(7)
H5A H 0.5947 0.3266 0.3388
C5A C 0.7531(6) 0.3825(5) 0.4990(6)
H6A H 0.7956 0.3319 0.5402
Ag2 Ag 0.59795(4) 0.05250(4) 0.68999(4)
N2 N 0.4098(5) 0.0531(3) 0.4983(5)
N3 N -0.2117(4) 0.0492(3) -0.1224(5)
C6 C 0.3549(6) -0.0171(4) 0.4321(6)
H7 H 0.3989 -0.0675 0.4706
C7 C 0.2379(5) -0.0197(4) 0.3112(5)
H8 H 0.2051 -0.0703 0.2679
C8 C 0.1676(5) 0.0518(3) 0.2521(5)
C9 C 0.2230(6) 0.1252(4) 0.3215(6)
H9 H 0.1792 0.1755 0.2862
C10 C 0.3441(6) 0.1232(4) 0.4441(6)
H10 H 0.3805 0.1729 0.4900
C11 C 0.0359(5) 0.0509(3) 0.1213(5)
C12 C -0.0267(5) -0.0238(4) 0.0584(5)
H11 H 0.0135 -0.0754 0.0971
C13 C -0.1494(5) -0.0225(4) -0.0625(5)
H12 H -0.1898 -0.0737 -0.1032
C14 C -0.1510(6) 0.1215(4) -0.0627(6)
H13 H -0.1926 0.1725 -0.1033
C15 C -0.0293(5) 0.1237(4) 0.0570(6)
H14 H 0.0094 0.1759 0.0948
Ag2_2 Ag -0.40205(4) 0.05250(4) -0.31001(4)
N3_2 N 0.7883(4) 0.0492(3) 0.8776(5)
O1 O 0.9612(11) 0.3396(11) 0.2576(10)
O2 O 1.0878(12) 0.2447(7) 0.3549(11)
Cl1 Cl 1.0000 0.28764(14) 0.2500
O1A O 1.0388(11) 0.3396(11) 0.2424(10)
O2A O 0.9122(12) 0.2447(7) 0.1451(11)
O3 O 0.2999(8) 0.2382(7) 0.1888(9)
O4 O 0.4471(17) 0.2642(6) 0.3825(14)
O5 O 0.4822(10) 0.2063(8) 0.3197(13)
O6 O 0.3993(6) 0.1309(6) 0.3237(6)
Cl2 Cl 0.41235(16) 0.21081(11) 0.30907(16)
O7 O 0.1272(4) 0.2966(4) 0.1401(5)
H1 H 0.0798 0.2751 0.0713
H2 H 0.2000 0.2788 0.2016
loop_
_geom_bond_atom_site_label_1
_geom_bond_atom_site_label_2
_geom_bond_site_symmetry_1
_geom_bond_site_symmetry_2
Ag1 N1 1_555 1_555
Ag2 N2 1_555 1_555
O1 Cl1 1_555 1_555
O2 Cl1 1_555 1_555
O3 Cl2 1_555 1_555
O4 Cl2 1_555 1_555
O5 Cl2 1_555 1_555
O6 Cl2 1_555 1_555
O7 H1 1_555 1_555
H2 O7 1_555 1_555
N1 C1 1_555 1_555
N2 C6 1_555 1_555
N3 C13 1_555 1_555
C1 H3 1_555 1_555
C2 C1 1_555 1_555
H4 C2 1_555 1_555
C3 C2 1_555 1_555
C4 C3 1_555 1_555
H5 C4 1_555 1_555
C5 N1 1_555 1_555
H6 C5 1_555 1_555
C6 H7 1_555 1_555
C7 C6 1_555 1_555
H8 C7 1_555 1_555
C8 C7 1_555 1_555
C9 C8 1_555 1_555
H9 C9 1_555 1_555
C10 N2 1_555 1_555
H10 C10 1_555 1_555
C11 C8 1_555 1_555
C12 C11 1_555 1_555
H11 C12 1_555 1_555
C13 C12 1_555 1_555
H12 C13 1_555 1_555
C14 N3 1_555 1_555
H13 C14 1_555 1_555
C15 C11 1_555 1_555
H14 C15 1_555 1_555
Cl1 O1A 1_555 1_555
Ag1_2 N1A 1_555 1_555
Ag2_2 N3 1_555 1_555
O2A Cl1 1_555 1_555
N1A C1A 1_555 1_555
N1A_2 Ag1 1_555 1_555
N3_2 Ag2 1_555 1_555
C1A H3A 1_555 1_555
C2A C1A 1_555 1_555
H4A C2A 1_555 1_555
C3A C3 1_555 1_555
C4A C3A 1_555 1_555
H5A C4A 1_555 1_555
C5A N1A 1_555 1_555
H6A C5A 1_555 1_555
C4 C5 1_555 1_555
C9 C10 1_555 1_555
C14 C15 1_555 1_555
C2A C3A 1_555 1_555
C4A C5A 1_555 1_555

#END
