
#######################################################################
#
#                 Cambridge Crystallographic Data Centre
#                                CCDC 
#
#######################################################################
#
# If this CIF has been generated from an entry in the Cambridge 
# Structural Database, then it will include bibliographic, chemical, 
# crystal, experimental, refinement or atomic coordinate data resulting 
# from the CCDC's data processing and validation procedures.
#
#######################################################################

data_YADSIG
_symmetry_cell_setting           monoclinic
_symmetry_space_group_name_H-M   'P 21/n'
_symmetry_Int_Tables_number      14
_space_group_name_Hall           '-P 2yn'
loop_
_symmetry_equiv_pos_site_id
_symmetry_equiv_pos_as_xyz
1 x,y,z
2 1/2+x,1/2-y,1/2+z
3 -x,-y,-z
4 1/2-x,1/2+y,1/2-z
_cell_length_a                   9.5589(6)
_cell_length_b                   12.6776(8)
_cell_length_c                   13.5121(9)
_cell_angle_alpha                90.00
_cell_angle_beta                 95.4370(10)
_cell_angle_gamma                90.00
_cell_volume                     1630.08
loop_
_atom_site_label
_atom_site_type_symbol
_atom_site_fract_x
_atom_site_fract_y
_atom_site_fract_z
C1 C 0.1813(2) 0.58872(16) 0.08909(14)
C2 C 0.2473(2) 0.68305(17) 0.06697(16)
C3 C 0.3906(2) 0.68723(17) 0.07337(15)
C4 C 0.4701(2) 0.59695(16) 0.10113(13)
C5 C 0.39572(18) 0.50539(15) 0.12085(12)
C6 C 0.47049(19) 0.40990(15) 0.14860(12)
C7 C 0.4584(2) 0.23393(17) 0.19042(15)
C8 C 0.6053(2) 0.22759(18) 0.20501(17)
C9 C 0.6852(2) 0.31438(19) 0.18992(15)
C10 C 0.61848(19) 0.40988(16) 0.16003(13)
C11 C 0.6918(2) 0.50494(18) 0.13973(15)
C12 C 0.6212(2) 0.59407(18) 0.11064(15)
C13 C 0.08559(18) 0.20096(15) 0.08638(13)
C14 C 0.03765(18) 0.09798(15) 0.04056(13)
C15 C 0.02814(19) 0.08356(15) -0.06205(13)
C16 C 0.00878(18) 0.01411(15) 0.10231(13)
C17 C 0.14070(19) 0.47950(16) 0.48985(14)
C18 C 0.04046(18) 0.46703(14) 0.40870(13)
C19 C 0.10057(19) 0.51291(15) 0.58071(13)
C20 C 0.08775(18) 0.43099(14) 0.31129(13)
O1 O 0.10194(14) 0.28121(10) 0.03277(9)
O2 O 0.11354(15) 0.20637(11) 0.17960(10)
O3 O 0.00394(13) 0.42988(12) 0.23313(9)
O4 O 0.21345(13) 0.40145(11) 0.31004(9)
Ni1 Ni 0.18276(2) 0.359724(19) 0.163942(16)
N1 N 0.25251(15) 0.50144(12) 0.11567(11)
N2 N 0.39246(16) 0.32283(13) 0.16312(11)
H1 H 0.085(2) 0.5837(17) 0.0859(16)
H2 H 0.193(2) 0.743(2) 0.0509(17)
H3 H 0.435(2) 0.749(2) 0.0554(17)
H4 H 0.400(2) 0.1738(19) 0.2017(17)
H5 H 0.643(3) 0.168(2) 0.2221(18)
H6 H 0.785(3) 0.309(2) 0.1977(18)
H7 H 0.791(2) 0.5047(18) 0.1432(16)
H8 H 0.670(2) 0.6556(17) 0.0955(16)
H9 H 0.052(2) 0.1430(18) -0.1028(17)
H10 H 0.016(2) 0.0273(16) 0.1735(15)
H11 H 0.231(2) 0.4636(16) 0.4809(15)
H12 H 0.170(2) 0.5239(16) 0.6363(15)
C16B C -0.00878(18) -0.01411(15) -0.10231(13)
C14B C -0.03765(18) -0.09798(15) -0.04056(13)
C13B C -0.08559(18) -0.20096(15) -0.08638(13)
O1B O -0.10194(14) -0.28121(10) -0.03277(9)
O2B O -0.11354(15) -0.20637(11) -0.17960(10)
C15B C -0.02814(19) -0.08356(15) 0.06205(13)
H9B H -0.052(2) -0.1430(18) 0.1028(17)
H10B H -0.016(2) -0.0273(16) -0.1735(15)
C19B C -0.10057(19) 0.48709(15) 0.41929(13)
C17B C -0.14070(19) 0.52050(16) 0.51015(14)
C18B C -0.04046(18) 0.53297(14) 0.59130(13)
C20B C -0.08775(18) 0.56901(14) 0.68871(13)
O3B O -0.00394(13) 0.57012(12) 0.76687(9)
O4B O -0.21345(13) 0.59855(11) 0.68996(9)
H11B H -0.231(2) 0.5364(16) 0.5191(15)
H12B H -0.170(2) 0.4761(16) 0.3637(15)
Ni1B Ni -0.18276(2) -0.359724(19) -0.163942(16)
C1B C -0.1813(2) -0.58872(16) -0.08909(14)
C2B C -0.2473(2) -0.68305(17) -0.06697(16)
C3B C -0.3906(2) -0.68723(17) -0.07337(15)
C4B C -0.4701(2) -0.59695(16) -0.10113(13)
C5B C -0.39572(18) -0.50539(15) -0.12085(12)
C6B C -0.47049(19) -0.40990(15) -0.14860(12)
C7B C -0.4584(2) -0.23393(17) -0.19042(15)
C8B C -0.6053(2) -0.22759(18) -0.20501(17)
C9B C -0.6852(2) -0.31438(19) -0.18992(15)
C10B C -0.61848(19) -0.40988(16) -0.16003(13)
C11B C -0.6918(2) -0.50494(18) -0.13973(15)
C12B C -0.6212(2) -0.59407(18) -0.11064(15)
N1B N -0.25251(15) -0.50144(12) -0.11567(11)
N2B N -0.39246(16) -0.32283(13) -0.16312(11)
H1B H -0.085(2) -0.5837(17) -0.0859(16)
H2B H -0.193(2) -0.743(2) -0.0509(17)
H3B H -0.435(2) -0.749(2) -0.0554(17)
H4B H -0.400(2) -0.1738(19) -0.2017(17)
H5B H -0.643(3) -0.168(2) -0.2221(18)
H6B H -0.785(3) -0.309(2) -0.1977(18)
H7B H -0.791(2) -0.5047(18) -0.1432(16)
H8B H -0.670(2) -0.6556(17) -0.0955(16)
Ni1B_2 Ni -0.18276(2) 0.640276(19) 0.836058(16)
O3B_2 O -0.00394(13) -0.42988(12) -0.23313(9)
O4B_2 O -0.21345(13) -0.40145(11) -0.31004(9)
loop_
_geom_bond_atom_site_label_1
_geom_bond_atom_site_label_2
_geom_bond_site_symmetry_1
_geom_bond_site_symmetry_2
C1 C2 1_555 1_555
C2 C3 1_555 1_555
C3 C4 1_555 1_555
C4 C5 1_555 1_555
C5 C6 1_555 1_555
C6 C10 1_555 1_555
C7 C8 1_555 1_555
C8 C9 1_555 1_555
C9 C10 1_555 1_555
C10 C11 1_555 1_555
C11 C12 1_555 1_555
C12 C4 1_555 1_555
C13 C14 1_555 1_555
C14 C15 1_555 1_555
C15 H9 1_555 1_555
C16 C14 1_555 1_555
C17 C18 1_555 1_555
C18 C20 1_555 1_555
C19 C17 1_555 1_555
C20 O3 1_555 1_555
O1 C13 1_555 1_555
O2 C13 1_555 1_555
O3 Ni1 1_555 1_555
O4 C20 1_555 1_555
Ni1 O1 1_555 1_555
N1 C1 1_555 1_555
N2 C6 1_555 1_555
H1 C1 1_555 1_555
H2 C2 1_555 1_555
H3 C3 1_555 1_555
H4 C7 1_555 1_555
H5 C8 1_555 1_555
H6 C9 1_555 1_555
H7 C11 1_555 1_555
H8 C12 1_555 1_555
H10 C16 1_555 1_555
H11 C17 1_555 1_555
H12 C19 1_555 1_555
C16B C15 1_555 1_555
C14B C16B 1_555 1_555
C13B C14B 1_555 1_555
O1B C13B 1_555 1_555
O2B C13B 1_555 1_555
C15B C16 1_555 1_555
H9B C15B 1_555 1_555
H10B C16B 1_555 1_555
C19B C18 1_555 1_555
C17B C19B 1_555 1_555
C18B C19 1_555 1_555
C20B C18B 1_555 1_555
O3B C20B 1_555 1_555
O4B C20B 1_555 1_555
H11B C17B 1_555 1_555
H12B C19B 1_555 1_555
Ni1B O1B 1_555 1_555
C1B C2B 1_555 1_555
C2B C3B 1_555 1_555
C3B C4B 1_555 1_555
C4B C5B 1_555 1_555
C5B C6B 1_555 1_555
C6B C10B 1_555 1_555
C7B C8B 1_555 1_555
C8B C9B 1_555 1_555
C9B C10B 1_555 1_555
C10B C11B 1_555 1_555
C11B C12B 1_555 1_555
C12B C4B 1_555 1_555
N1B Ni1B 1_555 1_555
N2B Ni1B 1_555 1_555
H1B C1B 1_555 1_555
H2B C2B 1_555 1_555
H3B C3B 1_555 1_555
H4B C7B 1_555 1_555
H5B C8B 1_555 1_555
H6B C9B 1_555 1_555
H7B C11B 1_555 1_555
H8B C12B 1_555 1_555
Ni1B_2 O3B 1_555 1_555
O3B_2 Ni1B 1_555 1_555
O4B_2 Ni1B 1_555 1_555
C5 N1 1_555 1_555
C7 N2 1_555 1_555
O2 Ni1 1_555 1_555
O4 Ni1 1_555 1_555
Ni1 N1 1_555 1_555
Ni1 N2 1_555 1_555
C14B C15B 1_555 1_555
O2B Ni1B 1_555 1_555
C17B C18B 1_555 1_555
O4B Ni1B_2 1_555 1_555
C1B N1B 1_555 1_555
C5B N1B 1_555 1_555
C6B N2B 1_555 1_555
C7B N2B 1_555 1_555

#END
