
#######################################################################
#
#                 Cambridge Crystallographic Data Centre
#                                CCDC 
#
#######################################################################
#
# If this CIF has been generated from an entry in the Cambridge 
# Structural Database, then it will include bibliographic, chemical, 
# crystal, experimental, refinement or atomic coordinate data resulting 
# from the CCDC's data processing and validation procedures.
#
#######################################################################

data_YADSOM
_symmetry_cell_setting           monoclinic
_symmetry_space_group_name_H-M   'P 21/c'
_symmetry_Int_Tables_number      14
_space_group_name_Hall           '-P 2ybc'
loop_
_symmetry_equiv_pos_site_id
_symmetry_equiv_pos_as_xyz
1 x,y,z
2 x,1/2-y,1/2+z
3 -x,-y,-z
4 -x,1/2+y,1/2-z
_cell_length_a                   20.532(3)
_cell_length_b                   21.505(3)
_cell_length_c                   18.872(3)
_cell_angle_alpha                90.00
_cell_angle_beta                 93.862(3)
_cell_angle_gamma                90.00
_cell_volume                     8313.83
loop_
_atom_site_label
_atom_site_type_symbol
_atom_site_fract_x
_atom_site_fract_y
_atom_site_fract_z
C1 C 0.5337(3) 0.3965(3) 0.6318(3)
H1 H 0.5422 0.3542 0.6364
C3 C 0.5758(3) 0.4379(3) 0.6673(3)
H2 H 0.6118 0.4239 0.6953
C5 C 0.5632(3) 0.5001(3) 0.6601(3)
H3 H 0.5910 0.5290 0.6830
C7 C 0.5095(3) 0.5201(3) 0.6189(3)
H5 H 0.5004 0.5623 0.6145
C9 C 0.4687(3) 0.4766(3) 0.5839(3)
C11 C 0.4096(3) 0.4927(3) 0.5385(2)
C13 C 0.3903(3) 0.5541(3) 0.5255(3)
H8 H 0.4148 0.5872 0.5447
C15 C 0.3340(3) 0.5642(3) 0.4833(3)
H10 H 0.3200 0.6046 0.4736
C17 C 0.2992(3) 0.5156(3) 0.4559(3)
H11 H 0.2608 0.5223 0.4278
C19 C 0.3209(3) 0.4561(3) 0.4700(3)
H12 H 0.2970 0.4227 0.4507
C65 C 0.4056(3) 0.3207(2) 0.4136(3)
C66 C 0.4026(3) 0.2959(2) 0.3395(2)
C67 C 0.4562(3) 0.3033(2) 0.2980(2)
H45 H 0.4925 0.3258 0.3155
C68 C 0.4550(3) 0.2769(2) 0.2310(3)
H46 H 0.4899 0.2825 0.2027
C69 C 0.4007(3) 0.2416(2) 0.2059(2)
C70 C 0.3481(3) 0.2353(2) 0.2464(3)
H47 H 0.3119 0.2126 0.2292
C71 C 0.3488(3) 0.2629(2) 0.3129(3)
H48 H 0.3127 0.2590 0.3398
C72 C 0.4028(3) 0.2077(2) 0.1371(3)
N1 N 0.4812(2) 0.4149(2) 0.5908(2)
N2 N 0.3761(2) 0.44490(19) 0.5113(2)
O1 O 0.45762(17) 0.34809(15) 0.43910(15)
O3 O 0.35850(18) 0.31357(16) 0.45212(16)
O5 O 0.44597(18) 0.22082(15) 0.09390(16)
O7 O 0.36338(18) 0.16375(15) 0.12250(16)
Ni1 Ni 0.41418(3) 0.35894(3) 0.53503(3)
Ni1A Ni 0.41418(3) 0.14106(3) 0.03503(3)
O5A O 0.44597(18) 0.27918(15) 0.59390(16)
O7A O 0.36338(18) 0.33625(15) 0.62250(16)
C2 C 0.0741(3) 0.3740(3) 0.3996(3)
C4 C 0.1254(3) 0.3769(3) 0.3468(3)
C6 C 0.1240(3) 0.3357(2) 0.2911(3)
H4 H 0.0905 0.3066 0.2854
C8 C 0.1724(3) 0.3373(3) 0.2434(3)
H6 H 0.1713 0.3090 0.2060
C10 C 0.2219(3) 0.3801(3) 0.2507(3)
C12 C 0.2220(3) 0.4230(3) 0.3058(3)
H7 H 0.2544 0.4532 0.3104
C14 C 0.1741(3) 0.4211(3) 0.3539(3)
H9 H 0.1747 0.4496 0.3910
C16 C 0.2745(3) 0.3804(3) 0.1992(3)
O2 O 0.0815(2) 0.4091(2) 0.4538(2)
O4 O 0.0270(2) 0.33857(19) 0.3871(2)
O6 O 0.2693(2) 0.34545(18) 0.14684(19)
O8 O 0.3235(2) 0.41716(19) 0.2124(2)
C18 C 0.4066(3) 0.3771(3) 0.0671(3)
C20 C 0.4583(3) 0.3756(3) 0.0137(3)
C22 C 0.4534(3) 0.3332(2) -0.0422(3)
H14 H 0.4185 0.3056 -0.0465
C24 C 0.5004(3) 0.3320(2) -0.0913(3)
H16 H 0.4969 0.3034 -0.1283
C26 C 0.5524(3) 0.3726(3) -0.0861(3)
C28 C 0.5575(3) 0.4152(3) -0.0310(3)
H19 H 0.5925 0.4428 -0.0272
C30 C 0.5105(3) 0.4171(3) 0.0186(3)
H20 H 0.5139 0.4461 0.0553
C32 C 0.6033(3) 0.3703(3) -0.1403(3)
O10 O 0.4148(2) 0.4123(2) 0.1198(2)
O12 O 0.3556(2) 0.34436(19) 0.05304(19)
O14 O 0.5972(2) 0.33201(19) -0.18912(19)
O16 O 0.6515(2) 0.4081(2) -0.1313(2)
C21 C 0.2786(3) 0.4106(3) 0.8708(3)
H13 H 0.2919 0.3694 0.8756
C23 C 0.3151(3) 0.4564(3) 0.9056(3)
H15 H 0.3533 0.4463 0.9325
C25 C 0.2948(3) 0.5173(3) 0.9001(3)
H17 H 0.3188 0.5488 0.9233
C27 C 0.2384(3) 0.5307(3) 0.8597(3)
H18 H 0.2233 0.5714 0.8562
C29 C 0.2043(3) 0.4835(3) 0.8243(2)
C31 C 0.1454(3) 0.4945(3) 0.7763(2)
C33 C 0.1205(3) 0.5530(2) 0.7613(3)
H21 H 0.1390 0.5882 0.7832
C35 C 0.0679(3) 0.5577(3) 0.7132(3)
H22 H 0.0499 0.5965 0.7024
C37 C 0.0416(3) 0.5059(3) 0.6811(3)
H23 H 0.0066 0.5093 0.6474
C39 C 0.0675(3) 0.4484(3) 0.6991(3)
H25 H 0.0489 0.4129 0.6781
C73 C 0.1578(3) 0.3136(2) 0.6629(3)
C74 C 0.1554(3) 0.2858(2) 0.5894(3)
C75 C 0.2105(3) 0.2902(2) 0.5509(2)
H49 H 0.2475 0.3108 0.5699
C76 C 0.2100(3) 0.2636(2) 0.4841(3)
H50 H 0.2465 0.2668 0.4577
C77 C 0.1552(3) 0.2324(2) 0.4566(2)
C78 C 0.1004(3) 0.2274(2) 0.4963(3)
H51 H 0.0638 0.2056 0.4783
C79 C 0.1009(3) 0.2550(2) 0.5623(3)
H52 H 0.0642 0.2527 0.5884
C80 C 0.1561(3) 0.1993(2) 0.3862(2)
N3 N 0.2246(2) 0.4239(2) 0.8305(2)
N4 N 0.1188(2) 0.44289(19) 0.7462(2)
O9 O 0.20735(17) 0.34462(15) 0.68547(16)
O11 O 0.11085(17) 0.30655(15) 0.70124(16)
O13 O 0.20014(18) 0.21161(15) 0.34459(16)
O15 O 0.11348(17) 0.15879(15) 0.36919(16)
Ni2 Ni 0.16292(3) 0.36107(3) 0.77915(3)
Ni2A Ni 0.16292(3) 0.13893(3) 0.27915(3)
O13A O 0.20014(18) 0.28839(15) 0.84459(16)
O15A O 0.11348(17) 0.34121(15) 0.86919(16)
C34 C 0.7390(3) 0.3619(3) -0.2719(3)
C36 C 0.7896(3) 0.3638(3) -0.3243(3)
C38 C 0.7860(3) 0.3255(2) -0.3840(3)
H24 H 0.7503 0.2993 -0.3920
C40 C 0.8340(3) 0.3257(2) -0.4317(3)
H26 H 0.8310 0.2995 -0.4710
C42 C 0.8866(3) 0.3652(3) -0.4202(3)
C44 C 0.8908(3) 0.4038(3) -0.3609(3)
H29 H 0.9264 0.4302 -0.3531
C46 C 0.8425(3) 0.4033(3) -0.3135(3)
H31 H 0.8456 0.4295 -0.2743
C48 C 0.9410(3) 0.3659(3) -0.4694(3)
O18 O 0.6939(2) 0.3212(2) -0.2808(2)
O20 O 0.7417(2) 0.3986(2) -0.2214(2)
O22 O 0.9331(2) 0.33416(19) -0.5259(2)
O24 O 0.9899(2) 0.3986(2) -0.4543(2)
C41 C 0.4394(3) 0.5515(3) 0.7862(3)
H27 H 0.4604 0.5869 0.8045
C43 C 0.4665(3) 0.4941(3) 0.8017(3)
H28 H 0.5049 0.4905 0.8306
C45 C 0.4352(3) 0.4418(3) 0.7732(3)
H30 H 0.4529 0.4025 0.7822
C47 C 0.3778(3) 0.4480(3) 0.7314(3)
H32 H 0.3558 0.4133 0.7128
C49 C 0.3538(3) 0.5073(3) 0.7177(2)
C50 C 0.2931(3) 0.5191(3) 0.6718(2)
C51 C 0.2570(3) 0.4719(3) 0.6372(3)
H33 H 0.2699 0.4306 0.6421
C52 C 0.2023(3) 0.4875(3) 0.5958(3)
H34 H 0.1774 0.4568 0.5721
C53 C 0.1844(3) 0.5486(3) 0.5895(3)
H35 H 0.1471 0.5598 0.5617
C54 C 0.2222(3) 0.5935(3) 0.6249(3)
H36 H 0.2097 0.6349 0.6201
C81 C 0.3470(3) 0.7061(2) 0.6169(2)
C82 C 0.3481(3) 0.7396(2) 0.5481(2)
C83 C 0.4013(2) 0.7311(2) 0.5051(2)
H53 H 0.4368 0.7070 0.5215
C84 C 0.4007(3) 0.7587(2) 0.4383(2)
H54 H 0.4363 0.7539 0.4107
C85 C 0.3473(3) 0.7935(2) 0.4128(2)
C86 C 0.2952(3) 0.8031(2) 0.4560(3)
H55 H 0.2600 0.8276 0.4396
C87 C 0.2958(3) 0.7765(2) 0.5227(2)
H56 H 0.2610 0.7832 0.5509
C88 C 0.3443(3) 0.8179(2) 0.3386(2)
N5 N 0.3842(2) 0.55815(19) 0.7458(2)
N6 N 0.2760(2) 0.5797(2) 0.6659(2)
O17 O 0.38856(17) 0.66386(15) 0.63143(16)
O19 O 0.30331(17) 0.71784(15) 0.65801(16)
O21 O 0.39204(17) 0.80943(15) 0.30010(16)
O23 O 0.29470(17) 0.84679(15) 0.31399(16)
Ni3 Ni 0.33941(3) 0.64075(3) 0.71945(3)
Ni3A Ni 0.33941(3) 0.85925(3) 0.21945(3)
O21A O 0.39204(17) 0.69057(15) 0.80010(16)
O23A O 0.29470(17) 0.65321(15) 0.81399(16)
C55 C 0.1876(3) 0.5545(3) 1.0459(3)
H37 H 0.2060 0.5907 1.0652
C56 C 0.2167(3) 0.4985(3) 1.0650(3)
H38 H 0.2533 0.4967 1.0968
C57 C 0.1890(3) 0.4454(3) 1.0347(3)
H39 H 0.2077 0.4068 1.0449
C58 C 0.1339(3) 0.4496(3) 0.9896(3)
H40 H 0.1146 0.4139 0.9698
C59 C 0.1075(3) 0.5074(2) 0.9741(3)
C60 C 0.0486(3) 0.5161(3) 0.9264(2)
C61 C 0.0156(3) 0.4666(3) 0.8929(3)
H41 H 0.0302 0.4259 0.8991
C62 C -0.0395(3) 0.4804(3) 0.8503(3)
H42 H -0.0630 0.4484 0.8273
C63 C -0.0599(3) 0.5402(3) 0.8415(3)
H43 H -0.0970 0.5494 0.8124
C64 C -0.0250(3) 0.5870(3) 0.8761(3)
H44 H -0.0389 0.6280 0.8701
C89 C 0.0947(3) 0.7007(2) 0.8619(3)
C90 C 0.0948(3) 0.7307(2) 0.7906(2)
C91 C 0.0413(3) 0.7639(2) 0.7643(3)
H57 H 0.0060 0.7690 0.7921
C92 C 0.0393(3) 0.7896(2) 0.6974(3)
H58 H 0.0022 0.8105 0.6793
C93 C 0.0934(3) 0.7840(2) 0.6568(2)
C94 C 0.1486(3) 0.7525(2) 0.6840(3)
H59 H 0.1851 0.7497 0.6576
C95 C 0.1491(3) 0.7256(2) 0.7498(3)
H60 H 0.1858 0.7038 0.7676
C96 C 0.0923(3) 0.8121(2) 0.5841(3)
N7 N 0.1348(2) 0.5595(2) 1.0017(2)
N8 N 0.0286(2) 0.5752(2) 0.9183(2)
O25 O 0.05079(18) 0.71240(15) 0.90291(16)
O26 O 0.13886(17) 0.66020(15) 0.87940(15)
O27 O 0.04376(18) 0.84343(15) 0.56079(16)
O28 O 0.14016(18) 0.80466(15) 0.54626(16)
Ni4 Ni 0.08910(3) 0.63975(3) 0.96893(3)
Ni4A Ni 0.08910(3) 0.86025(3) 0.46893(3)
O27A O 0.04376(18) 0.65657(15) 1.06079(16)
O28A O 0.14016(18) 0.69534(15) 1.04626(16)
loop_
_geom_bond_atom_site_label_1
_geom_bond_atom_site_label_2
_geom_bond_site_symmetry_1
_geom_bond_site_symmetry_2
C1 H1 1_555 1_555
C2 C4 1_555 1_555
C3 C1 1_555 1_555
H2 C3 1_555 1_555
C4 C6 1_555 1_555
C5 C3 1_555 1_555
H3 C5 1_555 1_555
C6 H4 1_555 1_555
C7 C5 1_555 1_555
H5 C7 1_555 1_555
C8 C6 1_555 1_555
H6 C8 1_555 1_555
C9 C7 1_555 1_555
C10 C8 1_555 1_555
C11 C9 1_555 1_555
C12 C10 1_555 1_555
H7 C12 1_555 1_555
C13 C11 1_555 1_555
H8 C13 1_555 1_555
C14 C4 1_555 1_555
H9 C14 1_555 1_555
C15 C13 1_555 1_555
H10 C15 1_555 1_555
C16 C10 1_555 1_555
C17 C15 1_555 1_555
H11 C17 1_555 1_555
C18 C20 1_555 1_555
C19 C17 1_555 1_555
H12 C19 1_555 1_555
C20 C22 1_555 1_555
C21 H13 1_555 1_555
C22 H14 1_555 1_555
C23 C21 1_555 1_555
H15 C23 1_555 1_555
C24 C22 1_555 1_555
H16 C24 1_555 1_555
C25 C23 1_555 1_555
H17 C25 1_555 1_555
C26 C24 1_555 1_555
C27 C25 1_555 1_555
H18 C27 1_555 1_555
C28 C26 1_555 1_555
H19 C28 1_555 1_555
C29 C27 1_555 1_555
C30 C20 1_555 1_555
H20 C30 1_555 1_555
C31 C29 1_555 1_555
C32 C26 1_555 1_555
C33 C31 1_555 1_555
H21 C33 1_555 1_555
C34 C36 1_555 1_555
C35 C33 1_555 1_555
H22 C35 1_555 1_555
C36 C38 1_555 1_555
C37 C35 1_555 1_555
H23 C37 1_555 1_555
C38 H24 1_555 1_555
C39 C37 1_555 1_555
H25 C39 1_555 1_555
C40 C38 1_555 1_555
H26 C40 1_555 1_555
C41 H27 1_555 1_555
C42 C40 1_555 1_555
C43 C41 1_555 1_555
H28 C43 1_555 1_555
C44 C42 1_555 1_555
H29 C44 1_555 1_555
C45 C43 1_555 1_555
H30 C45 1_555 1_555
C46 C36 1_555 1_555
H31 C46 1_555 1_555
C47 C45 1_555 1_555
H32 C47 1_555 1_555
C48 C42 1_555 1_555
C49 C47 1_555 1_555
C50 C49 1_555 1_555
C51 C50 1_555 1_555
H33 C51 1_555 1_555
C52 C51 1_555 1_555
H34 C52 1_555 1_555
C53 C52 1_555 1_555
H35 C53 1_555 1_555
C54 C53 1_555 1_555
H36 C54 1_555 1_555
C55 H37 1_555 1_555
C56 C55 1_555 1_555
H38 C56 1_555 1_555
C57 C56 1_555 1_555
H39 C57 1_555 1_555
C58 C57 1_555 1_555
H40 C58 1_555 1_555
C59 C58 1_555 1_555
C60 C59 1_555 1_555
C61 C60 1_555 1_555
H41 C61 1_555 1_555
C62 C61 1_555 1_555
H42 C62 1_555 1_555
C63 C62 1_555 1_555
H43 C63 1_555 1_555
C64 C63 1_555 1_555
H44 C64 1_555 1_555
C65 C66 1_555 1_555
C66 C67 1_555 1_555
C67 H45 1_555 1_555
C68 C67 1_555 1_555
H46 C68 1_555 1_555
C69 C68 1_555 1_555
C70 C69 1_555 1_555
H47 C70 1_555 1_555
C71 C66 1_555 1_555
H48 C71 1_555 1_555
C72 C69 1_555 1_555
C73 C74 1_555 1_555
C74 C75 1_555 1_555
C75 H49 1_555 1_555
C76 C75 1_555 1_555
H50 C76 1_555 1_555
C77 C76 1_555 1_555
C78 C77 1_555 1_555
H51 C78 1_555 1_555
C79 C74 1_555 1_555
H52 C79 1_555 1_555
C80 C77 1_555 1_555
C81 C82 1_555 1_555
C82 C83 1_555 1_555
C83 H53 1_555 1_555
C84 C83 1_555 1_555
H54 C84 1_555 1_555
C85 C84 1_555 1_555
C86 C85 1_555 1_555
H55 C86 1_555 1_555
C87 C82 1_555 1_555
H56 C87 1_555 1_555
C88 C85 1_555 1_555
C89 C90 1_555 1_555
C90 C91 1_555 1_555
C91 H57 1_555 1_555
C92 C91 1_555 1_555
H58 C92 1_555 1_555
C93 C92 1_555 1_555
C94 C93 1_555 1_555
H59 C94 1_555 1_555
C95 C90 1_555 1_555
H60 C95 1_555 1_555
C96 C93 1_555 1_555
N1 C1 1_555 1_555
N2 C11 1_555 1_555
N3 C21 1_555 1_555
N4 C31 1_555 1_555
N5 C41 1_555 1_555
N6 C50 1_555 1_555
N7 C55 1_555 1_555
N8 C60 1_555 1_555
O1 C65 1_555 1_555
O2 C2 1_555 1_555
O3 C65 1_555 1_555
O4 C2 1_555 1_555
O5 C72 1_555 1_555
O6 C16 1_555 1_555
O7 C72 1_555 1_555
O8 C16 1_555 1_555
O9 C73 1_555 1_555
O10 C18 1_555 1_555
O11 C73 1_555 1_555
O12 C18 1_555 1_555
O13 C80 1_555 1_555
O14 C32 1_555 1_555
O15 C80 1_555 1_555
O16 C32 1_555 1_555
O17 C81 1_555 1_555
O18 C34 1_555 1_555
O19 C81 1_555 1_555
O20 C34 1_555 1_555
O21 C88 1_555 1_555
O22 C48 1_555 1_555
O23 C88 1_555 1_555
O24 C48 1_555 1_555
O25 C89 1_555 1_555
O26 C89 1_555 1_555
O27 C96 1_555 1_555
O28 C96 1_555 1_555
Ni1 N1 1_555 1_555
Ni2 N3 1_555 1_555
Ni3 N5 1_555 1_555
Ni4 N7 1_555 1_555
Ni1A O5 1_555 1_555
Ni2A O13 1_555 1_555
Ni3A O21 1_555 1_555
Ni4A O27 1_555 1_555
O5A Ni1 1_555 1_555
O7A Ni1 1_555 1_555
O13A Ni2 1_555 1_555
O15A Ni2 1_555 1_555
O21A Ni3 1_555 1_555
O23A Ni3 1_555 1_555
O27A Ni4 1_555 1_555
O28A Ni4 1_555 1_555
C9 N1 1_555 1_555
C12 C14 1_555 1_555
C19 N2 1_555 1_555
C28 C30 1_555 1_555
C29 N3 1_555 1_555
C39 N4 1_555 1_555
C44 C46 1_555 1_555
C49 N5 1_555 1_555
C54 N6 1_555 1_555
C59 N7 1_555 1_555
C64 N8 1_555 1_555
C70 C71 1_555 1_555
C78 C79 1_555 1_555
C86 C87 1_555 1_555
C94 C95 1_555 1_555
N2 Ni1 1_555 1_555
N4 Ni2 1_555 1_555
N6 Ni3 1_555 1_555
N8 Ni4 1_555 1_555
O1 Ni1 1_555 1_555
O3 Ni1 1_555 1_555
O7 Ni1A 1_555 1_555
O9 Ni2 1_555 1_555
O11 Ni2 1_555 1_555
O15 Ni2A 1_555 1_555
O17 Ni3 1_555 1_555
O19 Ni3 1_555 1_555
O23 Ni3A 1_555 1_555
O25 Ni4 1_555 1_555
O26 Ni4 1_555 1_555
O28 Ni4A 1_555 1_555

#END
