
#######################################################################
#
#                 Cambridge Crystallographic Data Centre
#                                CCDC 
#
#######################################################################
#
# If this CIF has been generated from an entry in the Cambridge 
# Structural Database, then it will include bibliographic, chemical, 
# crystal, experimental, refinement or atomic coordinate data resulting 
# from the CCDC's data processing and validation procedures.
#
#######################################################################

data_YADSUS
_symmetry_cell_setting           triclinic
_symmetry_space_group_name_H-M   'P -1'
_symmetry_Int_Tables_number      2
_space_group_name_Hall           '-P 1'
loop_
_symmetry_equiv_pos_site_id
_symmetry_equiv_pos_as_xyz
1 x,y,z
2 -x,-y,-z
_cell_length_a                   8.618(3)
_cell_length_b                   10.058(4)
_cell_length_c                   11.353(4)
_cell_angle_alpha                115.312(6)
_cell_angle_beta                 92.331(7)
_cell_angle_gamma                94.025(7)
_cell_volume                     884.674
loop_
_atom_site_label
_atom_site_type_symbol
_atom_site_fract_x
_atom_site_fract_y
_atom_site_fract_z
Ni1 Ni 0.22169(4) 0.77503(4) 0.99952(3)
N1 N 0.2747(3) 0.5906(2) 1.0240(2)
N2 N 0.4172(3) 0.8647(3) 1.1314(2)
O1 O 0.2772(2) 0.6916(2) 0.79484(18)
O2 O 0.0441(2) 0.6636(2) 0.85792(18)
O3 O 0.0978(2) 0.8285(2) 1.16093(18)
O4 O 0.0413(3) 1.0576(2) 1.2047(2)
O5 O 0.1973(3) 0.9756(3) 0.9912(2)
C1 C 0.2102(3) 0.4510(3) 0.9637(3)
H1 H 0.1372 0.4254 0.8931
C2 C 0.2479(4) 0.3428(3) 1.0022(3)
H2 H 0.2043 0.2458 0.9551
C3 C 0.3489(4) 0.3792(3) 1.1092(3)
H3 H 0.3732 0.3078 1.1367
C4 C 0.4162(3) 0.5264(3) 1.1780(3)
C5 C 0.3774(3) 0.6267(3) 1.1289(3)
C6 C 0.4504(3) 0.7762(3) 1.1892(3)
C7 C 0.5521(3) 0.8219(3) 1.3025(3)
C8 C 0.5827(4) 0.7192(4) 1.3541(3)
H4 H 0.6474 0.7503 1.4304
C9 C 0.5195(4) 0.5774(4) 1.2945(3)
H5 H 0.5431 0.5120 1.3292
C10 C 0.6229(4) 0.9690(4) 1.3548(3)
H6 H 0.6901 1.0057 1.4302
C11 C 0.5924(4) 1.0556(4) 1.2946(4)
H7 H 0.6404 1.1516 1.3279
C12 C 0.4894(4) 1.0022(3) 1.1829(3)
H8 H 0.4702 1.0637 1.1429
C13 C 0.1341(3) 0.6450(3) 0.7677(3)
C14 C 0.0662(3) 0.5684(3) 0.6286(3)
C15 C -0.0932(3) 0.5271(3) 0.6031(3)
H9 H -0.1561 0.5450 0.6719
C16 C 0.1590(3) 0.5410(3) 0.5248(3)
H10 H 0.2658 0.5684 0.5412
C17 C 0.0087(3) 1.1184(3) 1.4678(3)
H11 H 0.0149 1.1981 1.4465
C18 C 0.0204(3) 0.8592(3) 1.4062(3)
H12 H 0.0345 0.7649 1.3438
C19 C 0.0288(3) 0.9774(3) 1.3727(3)
C20 C 0.0578(3) 0.9536(3) 1.2356(3)
H13 H 0.144(5) 1.021(4) 1.066(4)
H14 H 0.137(4) 0.962(4) 0.935(4)
C16A C -0.1590(3) 0.4590(3) 0.4752(3)
C14A C -0.0662(3) 0.4316(3) 0.3714(3)
C13A C -0.1341(3) 0.3550(3) 0.2323(3)
O1A O -0.2772(2) 0.3084(2) 0.20516(18)
O2A O -0.0441(2) 0.3364(2) 0.14208(18)
C15A C 0.0932(3) 0.4729(3) 0.3969(3)
H9A H 0.1561 0.4550 0.3281
H10A H -0.2658 0.4316 0.4588
C18A C -0.0204(3) 1.1408(3) 1.5938(3)
H12A H -0.0345 1.2351 1.6562
C19A C -0.0288(3) 1.0226(3) 1.6273(3)
C17A C -0.0087(3) 0.8816(3) 1.5322(3)
H11A H -0.0149 0.8019 1.5535
C20A C -0.0578(3) 1.0464(3) 1.7644(3)
O3A O -0.0978(2) 1.1715(2) 1.83907(18)
O4A O -0.0413(3) 0.9424(2) 1.7953(2)
Ni1A Ni -0.22169(4) 0.22497(4) 0.00048(3)
N1A N -0.2747(3) 0.4094(2) -0.0240(2)
N2A N -0.4172(3) 0.1353(3) -0.1314(2)
C1A C -0.2102(3) 0.5490(3) 0.0363(3)
H1A H -0.1372 0.5746 0.1069
C2A C -0.2479(4) 0.6572(3) -0.0022(3)
H2A H -0.2043 0.7542 0.0449
C3A C -0.3489(4) 0.6208(3) -0.1092(3)
H3A H -0.3732 0.6922 -0.1367
C4A C -0.4162(3) 0.4736(3) -0.1780(3)
C5A C -0.3774(3) 0.3733(3) -0.1289(3)
C6A C -0.4504(3) 0.2238(3) -0.1892(3)
C7A C -0.5521(3) 0.1781(3) -0.3025(3)
C8A C -0.5827(4) 0.2808(4) -0.3541(3)
H4A H -0.6474 0.2497 -0.4304
C9A C -0.5195(4) 0.4226(4) -0.2945(3)
H5A H -0.5431 0.4880 -0.3292
C10A C -0.6229(4) 0.0310(4) -0.3548(3)
H6A H -0.6901 -0.0057 -0.4302
C11A C -0.5924(4) -0.0556(4) -0.2946(4)
H7A H -0.6404 -0.1516 -0.3279
C12A C -0.4894(4) -0.0022(3) -0.1829(3)
H8A H -0.4702 -0.0637 -0.1429
O5A O -0.1973(3) 0.0244(3) 0.0088(2)
H13A H -0.144(5) -0.021(4) -0.066(4)
H14A H -0.137(4) 0.038(4) 0.065(4)
Ni1A_2 Ni -0.22169(4) 1.22497(4) 2.00048(3)
O3A_2 O -0.0978(2) 0.1715(2) -0.16093(18)
loop_
_geom_bond_atom_site_label_1
_geom_bond_atom_site_label_2
_geom_bond_site_symmetry_1
_geom_bond_site_symmetry_2
Ni1 N1 1_555 1_555
N1 C1 1_555 1_555
N2 Ni1 1_555 1_555
O1 Ni1 1_555 1_555
O2 Ni1 1_555 1_555
O3 Ni1 1_555 1_555
O4 C20 1_555 1_555
O5 Ni1 1_555 1_555
C1 H1 1_555 1_555
C2 C1 1_555 1_555
H2 C2 1_555 1_555
C3 C2 1_555 1_555
H3 C3 1_555 1_555
C4 C3 1_555 1_555
C5 N1 1_555 1_555
C6 N2 1_555 1_555
C7 C6 1_555 1_555
C8 C7 1_555 1_555
H4 C8 1_555 1_555
C9 C4 1_555 1_555
H5 C9 1_555 1_555
C10 C7 1_555 1_555
H6 C10 1_555 1_555
C11 C10 1_555 1_555
H7 C11 1_555 1_555
C12 N2 1_555 1_555
H8 C12 1_555 1_555
C13 O1 1_555 1_555
C14 C13 1_555 1_555
C15 C14 1_555 1_555
H9 C15 1_555 1_555
C16 C14 1_555 1_555
H10 C16 1_555 1_555
C17 H11 1_555 1_555
C18 H12 1_555 1_555
C19 C17 1_555 1_555
C20 O3 1_555 1_555
H13 O5 1_555 1_555
H14 O5 1_555 1_555
C16A C15 1_555 1_555
C14A C16A 1_555 1_555
C13A C14A 1_555 1_555
O1A C13A 1_555 1_555
O2A C13A 1_555 1_555
C15A C16 1_555 1_555
H9A C15A 1_555 1_555
H10A C16A 1_555 1_555
C18A C17 1_555 1_555
H12A C18A 1_555 1_555
C19A C18A 1_555 1_555
C17A C18 1_555 1_555
H11A C17A 1_555 1_555
C20A C19A 1_555 1_555
O3A C20A 1_555 1_555
O4A C20A 1_555 1_555
Ni1A O1A 1_555 1_555
N1A Ni1A 1_555 1_555
N2A Ni1A 1_555 1_555
C1A N1A 1_555 1_555
H1A C1A 1_555 1_555
C2A C1A 1_555 1_555
H2A C2A 1_555 1_555
C3A C2A 1_555 1_555
H3A C3A 1_555 1_555
C4A C3A 1_555 1_555
C5A N1A 1_555 1_555
C6A N2A 1_555 1_555
C7A C6A 1_555 1_555
C8A C7A 1_555 1_555
H4A C8A 1_555 1_555
C9A C4A 1_555 1_555
H5A C9A 1_555 1_555
C10A C7A 1_555 1_555
H6A C10A 1_555 1_555
C11A C10A 1_555 1_555
H7A C11A 1_555 1_555
C12A N2A 1_555 1_555
H8A C12A 1_555 1_555
O5A Ni1A 1_555 1_555
H13A O5A 1_555 1_555
H14A O5A 1_555 1_555
Ni1A_2 O3A 1_555 1_555
O3A_2 Ni1A 1_555 1_555
O2 C13 1_555 1_555
C4 C5 1_555 1_555
C5 C6 1_555 1_555
C8 C9 1_555 1_555
C11 C12 1_555 1_555
C18 C19 1_555 1_555
C19 C20 1_555 1_555
C14A C15A 1_555 1_555
O2A Ni1A 1_555 1_555
C19A C17A 1_555 1_555
C4A C5A 1_555 1_555
C5A C6A 1_555 1_555
C8A C9A 1_555 1_555
C11A C12A 1_555 1_555

#END
