
#######################################################################
#
#                 Cambridge Crystallographic Data Centre
#                                CCDC 
#
#######################################################################
#
# If this CIF has been generated from an entry in the Cambridge 
# Structural Database, then it will include bibliographic, chemical, 
# crystal, experimental, refinement or atomic coordinate data resulting 
# from the CCDC's data processing and validation procedures.
#
#######################################################################

data_YADTAZ
_symmetry_cell_setting           triclinic
_symmetry_space_group_name_H-M   'P -1'
_symmetry_Int_Tables_number      2
_space_group_name_Hall           '-P 1'
loop_
_symmetry_equiv_pos_site_id
_symmetry_equiv_pos_as_xyz
1 x,y,z
2 -x,-y,-z
_cell_length_a                   9.7682(12)
_cell_length_b                   10.6490(13)
_cell_length_c                   11.2468(14)
_cell_angle_alpha                76.685(2)
_cell_angle_beta                 65.309(2)
_cell_angle_gamma                85.612(2)
_cell_volume                     1034.12
loop_
_atom_site_label
_atom_site_type_symbol
_atom_site_fract_x
_atom_site_fract_y
_atom_site_fract_z
C1 C 0.3495(2) 0.89395(18) 0.28477(18)
C2 C 0.42522(19) 0.94953(18) 0.13696(17)
C3 C 0.4969(2) 0.86771(18) 0.04946(18)
H1 H 0.4946 0.7791 0.0827
C4 C 0.4283(2) 1.08171(18) 0.08750(18)
H2 H 0.3804 1.1364 0.1457
C5 C 0.1541(2) 1.0025(2) 0.96361(19)
H3 H 0.2575 1.0042 0.9394
C6 C 0.0991(2) 0.97322(17) 0.87704(17)
C7 C 0.0558(2) 1.0291(2) 1.08603(19)
H4 H 0.0935 1.0486 1.1433
C8 C 0.2072(2) 0.94189(18) 0.74530(17)
C9 C -0.0655(2) 0.8111(2) 0.5355(3)
H5 H -0.0480 0.8984 0.4953
C10 C -0.2057(3) 0.7558(3) 0.5686(3)
H6 H -0.2805 0.8064 0.5522
C11 C -0.2319(3) 0.6274(3) 0.6249(3)
H7 H -0.3245 0.5900 0.6460
C12 C -0.1194(3) 0.5512(3) 0.6512(2)
C13 C 0.0163(2) 0.61545(19) 0.61788(18)
C14 C -0.1339(3) 0.4149(3) 0.7083(3)
H8 H -0.2228 0.3714 0.7291
C15 C -0.0221(4) 0.3489(3) 0.7321(2)
H9 H -0.0354 0.2608 0.7694
C16 C 0.1170(3) 0.4112(2) 0.7015(2)
C17 C 0.1339(2) 0.54466(18) 0.64597(17)
C18 C 0.2393(4) 0.3484(2) 0.7223(2)
H10 H 0.2336 0.2600 0.7578
C19 C 0.3667(3) 0.4175(3) 0.6904(2)
H11 H 0.4484 0.3765 0.7034
C20 C 0.3729(2) 0.5497(2) 0.6382(2)
H12 H 0.4598 0.5960 0.6179
N1 N 0.04319(17) 0.74315(16) 0.55950(16)
N2 N 0.26026(17) 0.61286(15) 0.61611(14)
O1 O 0.28029(16) 0.96593(13) 0.36557(13)
O2 O 0.35982(15) 0.77444(12) 0.32824(12)
O3 O 0.46816(17) 0.83881(16) 0.51452(17)
O4 O 0.15316(14) 0.88348(14) 0.68948(13)
O5 O 0.34308(17) 0.9747(2) 0.70262(16)
Ni1 Ni 0.25541(2) 0.80385(2) 0.52529(2)
H15 H 0.449(3) 0.878(3) 0.571(3)
H16 H 0.527(3) 0.885(3) 0.447(3)
C4A C 0.5717(2) 0.91829(18) -0.08750(18)
C2A C 0.57478(19) 1.05047(18) -0.13696(17)
C1A C 0.6505(2) 1.10605(18) -0.28477(18)
O1A O 0.71971(16) 1.03407(13) -0.36557(13)
O2A O 0.64018(15) 1.22556(12) -0.32824(12)
C3A C 0.5031(2) 1.13229(18) -0.04946(18)
H1A H 0.5054 1.2209 -0.0827
H2A H 0.6196 0.8636 -0.1457
C7A C -0.0558(2) 0.9709(2) 0.91397(19)
C5A C -0.1541(2) 0.9975(2) 1.03639(19)
H3A H -0.2575 0.9958 1.0606
C6A C -0.0991(2) 1.02678(17) 1.12296(17)
C8A C -0.2072(2) 1.05811(18) 1.25470(17)
O4A O -0.15316(14) 1.11652(14) 1.31052(13)
O5A O -0.34308(17) 1.0253(2) 1.29738(16)
H4A H -0.0935 0.9514 0.8567
Ni1A Ni 0.74459(2) 1.19615(2) -0.52529(2)
C9A C 1.0655(2) 1.1889(2) -0.5355(3)
H5A H 1.0480 1.1016 -0.4953
C10A C 1.2057(3) 1.2442(3) -0.5686(3)
H6A H 1.2805 1.1936 -0.5522
C11A C 1.2319(3) 1.3726(3) -0.6249(3)
H7A H 1.3245 1.4100 -0.6460
C12A C 1.1194(3) 1.4488(3) -0.6512(2)
C13A C 0.9837(2) 1.38455(19) -0.61788(18)
C14A C 1.1339(3) 1.5851(3) -0.7083(3)
H8A H 1.2228 1.6286 -0.7291
C15A C 1.0221(4) 1.6511(3) -0.7321(2)
H9A H 1.0354 1.7392 -0.7694
C16A C 0.8830(3) 1.5888(2) -0.7015(2)
C17A C 0.8661(2) 1.45534(18) -0.64597(17)
C18A C 0.7607(4) 1.6516(2) -0.7223(2)
H10A H 0.7664 1.7400 -0.7578
C19A C 0.6333(3) 1.5825(3) -0.6904(2)
H11A H 0.5516 1.6235 -0.7034
C20A C 0.6271(2) 1.4503(2) -0.6382(2)
H12A H 0.5402 1.4040 -0.6179
N1A N 0.95681(17) 1.25685(16) -0.55950(16)
N2A N 0.73974(17) 1.38714(15) -0.61611(14)
O3A O 0.53184(17) 1.16119(16) -0.51452(17)
H15A H 0.551(3) 1.122(3) -0.571(3)
H16A H 0.473(3) 1.115(3) -0.447(3)
Ni1A_2 Ni -0.25541(2) 1.19615(2) 1.47471(2)
O4A_2 O 0.84684(14) 1.11652(14) -0.68948(13)
C21 C 0.2987(3) 0.5012(2) 0.9935(2)
C22 C 0.1446(2) 0.5025(2) 0.99554(19)
C23 C 0.0854(3) 0.6136(2) 0.9436(2)
H13 H 0.1425 0.6899 0.9059
C24 C 0.0578(3) 0.3887(2) 1.0523(2)
H14 H 0.0964 0.3141 1.0875
O6 O 0.3767(2) 0.6106(2) 0.9353(2)
O7 O 0.3494(2) 0.4045(2) 1.0421(2)
H17 H 0.479(5) 0.615(5) 0.937(4)
C24A C -0.0578(3) 0.6113(2) 0.9477(2)
C22A C -0.1446(2) 0.4975(2) 1.00446(19)
C21A C -0.2987(3) 0.4988(2) 1.0065(2)
O6A O -0.3767(2) 0.3894(2) 1.0647(2)
H17A H -0.479(5) 0.385(5) 1.063(4)
O7A O -0.3494(2) 0.5955(2) 0.9579(2)
C23A C -0.0854(3) 0.3864(2) 1.0564(2)
H13A H -0.1425 0.3101 1.0941
H14A H -0.0964 0.6859 0.9125
loop_
_geom_bond_atom_site_label_1
_geom_bond_atom_site_label_2
_geom_bond_site_symmetry_1
_geom_bond_site_symmetry_2
C1 C2 1_555 1_555
C2 C3 1_555 1_555
C3 H1 1_555 1_555
C4 C2 1_555 1_555
H2 C4 1_555 1_555
C5 H3 1_555 1_555
C6 C5 1_555 1_555
C7 C5 1_555 1_555
H4 C7 1_555 1_555
C8 C6 1_555 1_555
C9 H5 1_555 1_555
C10 C9 1_555 1_555
H6 C10 1_555 1_555
C11 C10 1_555 1_555
H7 C11 1_555 1_555
C12 C11 1_555 1_555
C13 C12 1_555 1_555
C14 C12 1_555 1_555
H8 C14 1_555 1_555
C15 C14 1_555 1_555
H9 C15 1_555 1_555
C16 C15 1_555 1_555
C17 C13 1_555 1_555
C18 C16 1_555 1_555
H10 C18 1_555 1_555
C19 C18 1_555 1_555
H11 C19 1_555 1_555
C20 C19 1_555 1_555
H12 C20 1_555 1_555
C21 C22 1_555 1_555
C22 C23 1_555 1_555
C23 H13 1_555 1_555
C24 C22 1_555 1_555
H14 C24 1_555 1_555
N1 C9 1_555 1_555
N2 C17 1_555 1_555
O1 C1 1_555 1_555
O2 C1 1_555 1_555
O3 Ni1 1_555 1_555
O4 C8 1_555 1_555
O5 C8 1_555 1_555
O6 C21 1_555 1_555
O7 C21 1_555 1_555
Ni1 N1 1_555 1_555
H15 O3 1_555 1_555
H16 O3 1_555 1_555
H17 O6 1_555 1_555
C4A C3 1_555 1_555
C2A C4A 1_555 1_555
C1A C2A 1_555 1_555
O1A C1A 1_555 1_555
O2A C1A 1_555 1_555
C3A C4 1_555 1_555
H1A C3A 1_555 1_555
H2A C4A 1_555 1_555
C7A C6 1_555 1_555
C5A C7A 1_555 1_555
H3A C5A 1_555 1_555
C6A C7 1_555 1_555
C8A C6A 1_555 1_555
O4A C8A 1_555 1_555
O5A C8A 1_555 1_555
H4A C7A 1_555 1_555
C24A C23 1_555 1_555
C22A C24A 1_555 1_555
C21A C22A 1_555 1_555
O6A C21A 1_555 1_555
H17A O6A 1_555 1_555
O7A C21A 1_555 1_555
C23A C24 1_555 1_555
H13A C23A 1_555 1_555
H14A C24A 1_555 1_555
Ni1A O1A 1_555 1_555
C9A H5A 1_555 1_555
C10A C9A 1_555 1_555
H6A C10A 1_555 1_555
C11A C10A 1_555 1_555
H7A C11A 1_555 1_555
C12A C11A 1_555 1_555
C13A C12A 1_555 1_555
C14A C12A 1_555 1_555
H8A C14A 1_555 1_555
C15A C14A 1_555 1_555
H9A C15A 1_555 1_555
C16A C15A 1_555 1_555
C17A C13A 1_555 1_555
C18A C16A 1_555 1_555
H10A C18A 1_555 1_555
C19A C18A 1_555 1_555
H11A C19A 1_555 1_555
C20A C19A 1_555 1_555
H12A C20A 1_555 1_555
N1A Ni1A 1_555 1_555
N2A Ni1A 1_555 1_555
O3A Ni1A 1_555 1_555
H15A O3A 1_555 1_555
H16A O3A 1_555 1_555
Ni1A_2 O4A 1_555 1_555
O4A_2 Ni1A 1_555 1_555
C13 N1 1_555 1_555
C16 C17 1_555 1_555
C20 N2 1_555 1_555
N2 Ni1 1_555 1_555
O1 Ni1 1_555 1_555
O2 Ni1 1_555 1_555
O4 Ni1 1_555 1_555
C2A C3A 1_555 1_555
O2A Ni1A 1_555 1_555
C5A C6A 1_555 1_555
C22A C23A 1_555 1_555
C9A N1A 1_555 1_555
C13A N1A 1_555 1_555
C16A C17A 1_555 1_555
C17A N2A 1_555 1_555
C20A N2A 1_555 1_555

#END
