
#######################################################################
#
#                 Cambridge Crystallographic Data Centre
#                                CCDC 
#
#######################################################################
#
# If this CIF has been generated from an entry in the Cambridge 
# Structural Database, then it will include bibliographic, chemical, 
# crystal, experimental, refinement or atomic coordinate data resulting 
# from the CCDC's data processing and validation procedures.
#
#######################################################################

data_YADTED
_symmetry_cell_setting           monoclinic
_symmetry_space_group_name_H-M   'P 21/c'
_symmetry_Int_Tables_number      14
_space_group_name_Hall           '-P 2ybc'
loop_
_symmetry_equiv_pos_site_id
_symmetry_equiv_pos_as_xyz
1 x,y,z
2 x,1/2-y,1/2+z
3 -x,-y,-z
4 -x,1/2+y,1/2-z
_cell_length_a                   13.9683(9)
_cell_length_b                   17.4489(11)
_cell_length_c                   13.7737(9)
_cell_angle_alpha                90.00
_cell_angle_beta                 99.1240(10)
_cell_angle_gamma                90.00
_cell_volume                     3314.61
loop_
_atom_site_label
_atom_site_type_symbol
_atom_site_fract_x
_atom_site_fract_y
_atom_site_fract_z
Ni1 Ni 0.922303(14) 0.191714(11) 0.914939(16)
Ni2 Ni 1.564823(14) 0.186111(12) 0.588486(16)
C1 C 1.07089(12) 0.20877(10) 0.84453(13)
C2 C 1.16170(12) 0.21210(10) 0.79844(13)
C3 C 1.25209(13) 0.20529(12) 0.85709(14)
H1 H 1.2566 0.2020 0.9251
C4 C 1.33568(13) 0.20334(12) 0.81415(14)
H2 H 1.3962 0.2011 0.8535
C5 C 1.15506(13) 0.21813(11) 0.69694(14)
H3 H 1.0951 0.2256 0.6579
C6 C 1.23873(13) 0.21286(11) 0.65402(14)
H4 H 1.2342 0.2147 0.5860
C7 C 1.32885(12) 0.20478(10) 0.71253(13)
C8 C 1.41893(12) 0.19591(9) 0.66568(13)
C9 C 0.89923(12) 0.35451(10) 0.96341(13)
C10 C 0.95143(12) 0.43003(9) 0.98405(12)
C11 C 1.04956(13) 0.43197(10) 1.02355(13)
H5 H 1.0831 0.3864 1.0393
C12 C 0.90253(12) 0.49853(10) 0.96057(14)
H6 H 0.8370 0.4977 0.9339
C13 C 1.59843(12) 0.49067(10) 0.50281(14)
H7 H 1.6649 0.4848 0.5048
C14 C 1.55843(12) 0.56378(10) 0.49590(14)
H8 H 1.5981 0.6062 0.4931
C15 C 1.54069(12) 0.42632(9) 0.50682(12)
C16 C 1.58555(12) 0.34724(10) 0.51690(13)
C17 C 1.57860(12) 0.16911(10) 0.37161(13)
H9 H 1.5631 0.2209 0.3668
C18 C 1.59030(14) 0.12985(11) 0.28741(14)
H10 H 1.5827 0.1548 0.2270
C19 C 1.61344(14) 0.05319(12) 0.29422(14)
H11 H 1.6221 0.0257 0.2384
C20 C 1.62368(13) 0.01752(10) 0.38476(13)
H12 H 1.6386 -0.0344 0.3907
C21 C 1.61137(11) 0.06033(9) 0.46682(12)
C22 C 1.62041(11) 0.02744(9) 0.56720(13)
C23 C 1.64539(14) -0.04836(10) 0.58872(14)
H13 H 1.6570 -0.0818 0.5393
C24 C 1.65277(16) -0.07337(12) 0.68483(16)
H14 H 1.6686 -0.1241 0.7008
C25 C 1.63653(16) -0.02248(13) 0.75652(16)
H15 H 1.6430 -0.0378 0.8219
C26 C 1.61054(15) 0.05166(12) 0.73000(14)
H16 H 1.5986 0.0857 0.7786
C27 C 0.89117(13) 0.15864(11) 1.12255(14)
H17 H 0.9030 0.2106 1.1336
C28 C 0.90497(15) 0.06531(12) 0.75937(14)
H18 H 0.9124 0.1043 0.7151
C29 C 0.89932(16) -0.00939(13) 0.72619(16)
H19 H 0.9027 -0.0206 0.6608
C30 C 0.88851(15) -0.06719(12) 0.79208(16)
H20 H 0.8858 -0.1181 0.7718
C31 C 0.88182(13) -0.04890(10) 0.88809(15)
H21 H 0.8736 -0.0871 0.9331
C32 C 0.88756(11) 0.02753(9) 0.91651(13)
C33 C 0.88133(11) 0.05401(10) 1.01785(13)
C34 C 0.86107(13) 0.00540(11) 1.09177(15)
H22 H 0.8523 -0.0469 1.0804
C35 C 0.85422(16) 0.03657(14) 1.18293(16)
H23 H 0.8395 0.0054 1.2333
C36 C 0.86923(16) 0.11356(14) 1.19864(15)
H24 H 0.8647 0.1351 1.2595
N1 N 1.58871(9) 0.13558(8) 0.46001(10)
N2 N 1.60179(10) 0.07664(8) 0.63723(11)
N3 N 0.90019(10) 0.08388(8) 0.85284(11)
N4 N 0.89587(9) 0.12975(8) 1.03344(10)
O1 O 1.41088(8) 0.17322(7) 0.57785(9)
O2 O 1.50069(8) 0.21026(7) 0.71518(9)
O3 O 0.99132(8) 0.23161(7) 0.79720(9)
O4 O 1.07553(9) 0.18016(7) 0.92952(9)
O5 O 0.94743(9) 0.29429(7) 0.98541(10)
O6 O 0.81281(9) 0.35726(7) 0.92159(11)
O7 O 1.53107(9) 0.29376(7) 0.53662(10)
O8 O 1.67256(9) 0.34016(8) 0.50748(12)
O9 O 0.77655(9) 0.21956(8) 0.86272(10)
O10 O 1.70814(10) 0.21743(9) 0.64064(14)
H25 H 0.7451(18) 0.1987(14) 0.8955(19)
H26 H 0.7780(17) 0.2674(16) 0.8816(18)
H27 H 1.7169(18) 0.2535(16) 0.6087(19)
H28 H 1.730(2) 0.224(2) 0.708(3)
C12B C 1.09747(12) 0.50147(10) 1.03943(14)
C10B C 1.04857(12) 0.56997(9) 1.01595(12)
C9B C 1.10077(12) 0.64549(10) 1.03659(13)
O5B O 1.05257(9) 0.70571(7) 1.01459(10)
O6B O 1.18719(9) 0.64274(7) 1.07841(11)
C11B C 0.95044(13) 0.56803(10) 0.97645(13)
H5B H 0.9169 0.6136 0.9607
H6B H 1.1630 0.5023 1.0661
C15B C 1.45931(12) 0.57368(9) 0.49318(12)
C13B C 1.40157(12) 0.50933(10) 0.49719(14)
H7B H 1.3351 0.5152 0.4952
C14B C 1.44157(12) 0.43622(10) 0.50410(14)
H8B H 1.4019 0.3938 0.5069
C16B C 1.41445(12) 0.65276(10) 0.48310(13)
O7B O 1.46893(9) 0.70624(7) 0.46338(10)
O8B O 1.32744(9) 0.65984(8) 0.49252(12)
Ni1B Ni 1.077697(14) 0.808286(11) 1.085061(16)
C27B C 1.10883(13) 0.84136(11) 0.87745(14)
H17B H 1.0970 0.7894 0.8664
C28B C 1.09503(15) 0.93469(12) 1.24063(14)
H18B H 1.0876 0.8957 1.2849
C29B C 1.10068(16) 1.00939(13) 1.27381(16)
H19B H 1.0973 1.0206 1.3392
C30B C 1.11149(15) 1.06719(12) 1.20792(16)
H20B H 1.1142 1.1181 1.2282
C31B C 1.11818(13) 1.04890(10) 1.11191(15)
H21B H 1.1264 1.0871 1.0669
C32B C 1.11244(11) 0.97247(9) 1.08349(13)
C33B C 1.11867(11) 0.94599(10) 0.98215(13)
C34B C 1.13893(13) 0.99460(11) 0.90823(15)
H22B H 1.1477 1.0469 0.9196
C35B C 1.14578(16) 0.96343(14) 0.81707(16)
H23B H 1.1605 0.9946 0.7667
C36B C 1.13077(16) 0.88644(14) 0.80136(15)
H24B H 1.1353 0.8649 0.7405
N3B N 1.09981(10) 0.91612(8) 1.14716(11)
N4B N 1.10413(9) 0.87025(8) 0.96656(10)
C1B C 0.92911(12) 0.79123(10) 1.15547(13)
C2B C 0.83830(12) 0.78790(10) 1.20156(13)
C3B C 0.74791(13) 0.79471(12) 1.14291(14)
H1B H 0.7434 0.7980 1.0749
C4B C 0.66432(13) 0.79666(12) 1.18585(14)
H2B H 0.6038 0.7989 1.1465
C5B C 0.84494(13) 0.78187(11) 1.30306(14)
H3B H 0.9049 0.7744 1.3421
C6B C 0.76127(13) 0.78714(11) 1.34598(14)
H4B H 0.7658 0.7853 1.4140
C7B C 0.67115(12) 0.79522(10) 1.28747(13)
C8B C 0.58107(12) 0.80409(9) 1.33432(13)
O1B O 0.58912(8) 0.82678(7) 1.42215(9)
O2B O 0.49931(8) 0.78974(7) 1.28482(9)
O3B O 1.00868(8) 0.76839(7) 1.20280(9)
O4B O 0.92447(9) 0.81984(7) 1.07048(9)
O9B O 1.22345(9) 0.78044(8) 1.13728(10)
H25B H 1.2549(18) 0.8013(14) 1.1045(19)
H26B H 1.2220(17) 0.7326(16) 1.1184(18)
Ni2B Ni 0.435177(14) 0.813889(12) 1.411514(16)
C17B C 0.42140(12) 0.83089(10) 1.62839(13)
H9B H 0.4369 0.7791 1.6332
C18B C 0.40970(14) 0.87015(11) 1.71259(14)
H10B H 0.4173 0.8452 1.7730
C19B C 0.38656(14) 0.94681(12) 1.70578(14)
H11B H 0.3779 0.9743 1.7616
C20B C 0.37632(13) 0.98248(10) 1.61524(13)
H12B H 0.3614 1.0344 1.6093
C21B C 0.38863(11) 0.93967(9) 1.53318(12)
C22B C 0.37959(11) 0.97256(9) 1.43280(13)
C23B C 0.35461(14) 1.04836(10) 1.41128(14)
H13B H 0.3430 1.0818 1.4607
C24B C 0.34723(16) 1.07337(12) 1.31517(16)
H14B H 0.3314 1.1241 1.2992
C25B C 0.36347(16) 1.02248(13) 1.24348(16)
H15B H 0.3570 1.0378 1.1781
C26B C 0.38946(15) 0.94834(12) 1.27000(14)
H16B H 0.4014 0.9143 1.2214
N1B N 0.41129(9) 0.86442(8) 1.53999(10)
N2B N 0.39821(10) 0.92336(8) 1.36277(11)
O10B O 0.29186(10) 0.78257(9) 1.35936(14)
H27B H 0.2831(18) 0.7465(16) 1.3913(19)
H28B H 0.270(2) 0.776(2) 1.292(3)
Ni2B_2 Ni 1.435177(14) 0.813889(12) 0.411514(16)
O7B_2 O 0.46893(9) 0.70624(7) 1.46338(10)
loop_
_geom_bond_atom_site_label_1
_geom_bond_atom_site_label_2
_geom_bond_site_symmetry_1
_geom_bond_site_symmetry_2
Ni1 N3 1_555 1_555
Ni2 N1 1_555 1_555
C1 C2 1_555 1_555
C2 C3 1_555 1_555
C3 H1 1_555 1_555
C4 C3 1_555 1_555
H2 C4 1_555 1_555
C5 C2 1_555 1_555
H3 C5 1_555 1_555
C6 C5 1_555 1_555
H4 C6 1_555 1_555
C7 C4 1_555 1_555
C8 C7 1_555 1_555
C9 C10 1_555 1_555
C10 C11 1_555 1_555
C11 H5 1_555 1_555
C12 C10 1_555 1_555
H6 C12 1_555 1_555
C13 H7 1_555 1_555
C14 C13 1_555 1_555
H8 C14 1_555 1_555
C15 C13 1_555 1_555
C16 C15 1_555 1_555
C17 H9 1_555 1_555
C18 C17 1_555 1_555
H10 C18 1_555 1_555
C19 C18 1_555 1_555
H11 C19 1_555 1_555
C20 C19 1_555 1_555
H12 C20 1_555 1_555
C21 C20 1_555 1_555
C22 C21 1_555 1_555
C23 C22 1_555 1_555
H13 C23 1_555 1_555
C24 C23 1_555 1_555
H14 C24 1_555 1_555
C25 C24 1_555 1_555
H15 C25 1_555 1_555
C26 C25 1_555 1_555
H16 C26 1_555 1_555
C27 H17 1_555 1_555
C28 H18 1_555 1_555
C29 C28 1_555 1_555
H19 C29 1_555 1_555
C30 C29 1_555 1_555
H20 C30 1_555 1_555
C31 C30 1_555 1_555
H21 C31 1_555 1_555
C32 C31 1_555 1_555
C33 C32 1_555 1_555
C34 C33 1_555 1_555
H22 C34 1_555 1_555
C35 C34 1_555 1_555
H23 C35 1_555 1_555
C36 C27 1_555 1_555
H24 C36 1_555 1_555
N1 C17 1_555 1_555
N2 Ni2 1_555 1_555
N3 C28 1_555 1_555
N4 Ni1 1_555 1_555
O1 Ni2 1_555 1_555
O2 Ni2 1_555 1_555
O3 Ni1 1_555 1_555
O4 Ni1 1_555 1_555
O5 Ni1 1_555 1_555
O6 C9 1_555 1_555
O7 Ni2 1_555 1_555
O8 C16 1_555 1_555
O9 Ni1 1_555 1_555
O10 Ni2 1_555 1_555
H25 O9 1_555 1_555
H26 O9 1_555 1_555
H27 O10 1_555 1_555
H28 O10 1_555 1_555
C12B C11 1_555 1_555
C10B C12B 1_555 1_555
C9B C10B 1_555 1_555
O5B C9B 1_555 1_555
O6B C9B 1_555 1_555
C11B C12 1_555 1_555
H5B C11B 1_555 1_555
H6B C12B 1_555 1_555
C15B C14 1_555 1_555
C13B C15B 1_555 1_555
H7B C13B 1_555 1_555
C14B C15 1_555 1_555
H8B C14B 1_555 1_555
C16B C15B 1_555 1_555
O7B C16B 1_555 1_555
O8B C16B 1_555 1_555
Ni1B O5B 1_555 1_555
C27B H17B 1_555 1_555
C28B H18B 1_555 1_555
C29B C28B 1_555 1_555
H19B C29B 1_555 1_555
C30B C29B 1_555 1_555
H20B C30B 1_555 1_555
C31B C30B 1_555 1_555
H21B C31B 1_555 1_555
C32B C31B 1_555 1_555
C33B C32B 1_555 1_555
C34B C33B 1_555 1_555
H22B C34B 1_555 1_555
C35B C34B 1_555 1_555
H23B C35B 1_555 1_555
C36B C27B 1_555 1_555
H24B C36B 1_555 1_555
N3B Ni1B 1_555 1_555
N4B Ni1B 1_555 1_555
C1B C2B 1_555 1_555
C2B C3B 1_555 1_555
C3B H1B 1_555 1_555
C4B C3B 1_555 1_555
H2B C4B 1_555 1_555
C5B C2B 1_555 1_555
H3B C5B 1_555 1_555
C6B C5B 1_555 1_555
H4B C6B 1_555 1_555
C7B C4B 1_555 1_555
C8B C7B 1_555 1_555
O1B C8B 1_555 1_555
O2B C8B 1_555 1_555
O3B Ni1B 1_555 1_555
O4B Ni1B 1_555 1_555
O9B Ni1B 1_555 1_555
H25B O9B 1_555 1_555
H26B O9B 1_555 1_555
Ni2B O1B 1_555 1_555
C17B H9B 1_555 1_555
C18B C17B 1_555 1_555
H10B C18B 1_555 1_555
C19B C18B 1_555 1_555
H11B C19B 1_555 1_555
C20B C19B 1_555 1_555
H12B C20B 1_555 1_555
C21B C20B 1_555 1_555
C22B C21B 1_555 1_555
C23B C22B 1_555 1_555
H13B C23B 1_555 1_555
C24B C23B 1_555 1_555
H14B C24B 1_555 1_555
C25B C24B 1_555 1_555
H15B C25B 1_555 1_555
C26B C25B 1_555 1_555
H16B C26B 1_555 1_555
N1B Ni2B 1_555 1_555
N2B Ni2B 1_555 1_555
O10B Ni2B 1_555 1_555
H27B O10B 1_555 1_555
H28B O10B 1_555 1_555
Ni2B_2 O7B 1_555 1_555
O7B_2 Ni2B 1_555 1_555
C1 O3 1_555 1_555
C1 O4 1_555 1_555
C6 C7 1_555 1_555
C8 O1 1_555 1_555
C8 O2 1_555 1_555
C9 O5 1_555 1_555
C16 O7 1_555 1_555
C21 N1 1_555 1_555
C22 N2 1_555 1_555
C26 N2 1_555 1_555
C27 N4 1_555 1_555
C32 N3 1_555 1_555
C33 N4 1_555 1_555
C35 C36 1_555 1_555
C10B C11B 1_555 1_555
C13B C14B 1_555 1_555
C27B N4B 1_555 1_555
C28B N3B 1_555 1_555
C32B N3B 1_555 1_555
C33B N4B 1_555 1_555
C35B C36B 1_555 1_555
C1B O3B 1_555 1_555
C1B O4B 1_555 1_555
C6B C7B 1_555 1_555
O2B Ni2B 1_555 1_555
C17B N1B 1_555 1_555
C21B N1B 1_555 1_555
C22B N2B 1_555 1_555
C26B N2B 1_555 1_555

#END
