
#######################################################################
#
#                 Cambridge Crystallographic Data Centre
#                                CCDC 
#
#######################################################################
#
# If this CIF has been generated from an entry in the Cambridge 
# Structural Database, then it will include bibliographic, chemical, 
# crystal, experimental, refinement or atomic coordinate data resulting 
# from the CCDC's data processing and validation procedures.
#
#######################################################################

data_YADXUY
_symmetry_cell_setting           orthorhombic
_symmetry_space_group_name_H-M   'P b c n'
_symmetry_Int_Tables_number      60
_space_group_name_Hall           '-P 2n 2ab'
loop_
_symmetry_equiv_pos_site_id
_symmetry_equiv_pos_as_xyz
1 x,y,z
2 1/2-x,1/2-y,1/2+z
3 -x,y,1/2-z
4 1/2+x,1/2-y,-z
5 -x,-y,-z
6 1/2+x,1/2+y,1/2-z
7 x,-y,1/2+z
8 1/2-x,1/2+y,z
_cell_length_a                   22.573(5)
_cell_length_b                   10.729(2)
_cell_length_c                   17.024(3)
_cell_angle_alpha                90
_cell_angle_beta                 90
_cell_angle_gamma                90
_cell_volume                     4122.97
loop_
_atom_site_label
_atom_site_type_symbol
_atom_site_fract_x
_atom_site_fract_y
_atom_site_fract_z
Cd1 Cd 0.434747(13) 0.10920(3) 0.01591(2)
N1 N 0.49203(16) 0.2373(3) 0.0952(3)
N2 N 0.86922(15) 0.4861(3) 0.0701(2)
O1 O 0.36029(14) 0.1141(3) 0.1164(2)
O2 O 0.35892(13) 0.2637(3) 0.0268(2)
O3 O 0.01992(13) 0.4305(3) 0.0605(2)
O4 O -0.02352(13) 0.2645(3) 0.1068(2)
C1 C 0.5298(2) 0.1956(4) 0.1497(3)
H1 H 0.5315 0.1093 0.1589
C2 C 0.5662(2) 0.2722(4) 0.1930(3)
H2 H 0.5921 0.2383 0.2306
C3 C 0.56421(18) 0.4001(4) 0.1806(3)
C4 C 0.5244(2) 0.4433(4) 0.1251(4)
H3 H 0.5209 0.5293 0.1158
C5 C 0.4898(2) 0.3602(4) 0.0834(4)
H4 H 0.4637 0.3915 0.0452
C6 C 0.60680(19) 0.4873(4) 0.2199(3)
H5 H 0.6153 0.4588 0.2734
H6 H 0.5898 0.5712 0.2227
C7 C 0.6637(2) 0.4890(5) 0.1712(4)
H7 H 0.6791 0.4038 0.1682
H8 H 0.6537 0.5153 0.1177
C8 C 0.71221(19) 0.5728(5) 0.2018(3)
H9 H 0.7004 0.6602 0.1959
H10 H 0.7187 0.5563 0.2577
C9 C 0.76871(19) 0.5497(4) 0.1569(3)
C10 C 0.8003(2) 0.4414(5) 0.1711(3)
H11 H 0.7879 0.3871 0.2112
C11 C 0.8494(2) 0.4124(5) 0.1272(4)
H12 H 0.8697 0.3378 0.1378
C12 C 0.8391(2) 0.5898(4) 0.0562(3)
H13 H 0.8527 0.6436 0.0164
C13 C 0.7890(2) 0.6227(4) 0.0970(4)
H14 H 0.7686 0.6959 0.0835
C14 C 0.22719(18) 0.2311(4) 0.1101(3)
C15 C 0.21730(19) 0.1230(4) 0.0675(3)
H15 H 0.2495 0.0778 0.0472
C16 C 0.16009(19) 0.0817(4) 0.0549(3)
H16 H 0.1536 0.0089 0.0255
C17 C 0.1124(2) 0.1464(4) 0.0851(3)
H17 H 0.0738 0.1167 0.0764
C18 C 0.12081(18) 0.2547(4) 0.1281(3)
C19 C 0.17839(18) 0.2964(4) 0.1378(3)
H18 H 0.1847 0.3721 0.1643
C20 C 0.28893(18) 0.2752(4) 0.1328(3)
H19 H 0.2946 0.2599 0.1891
H20 H 0.2911 0.3654 0.1244
C21 C 0.33970(19) 0.2138(4) 0.0882(4)
C22 C 0.06922(18) 0.3252(5) 0.1653(3)
H21 H 0.0556 0.2802 0.2121
H22 H 0.0827 0.4080 0.1819
C23 C 0.01800(18) 0.3392(4) 0.1080(3)
Cd1C Cd 0.934747(13) 0.39080(3) -0.01591(2)
Cd1C_2 Cd -0.065253(13) 0.39080(3) -0.01591(2)
Cd1G Cd 0.065253(13) 0.60920(3) 0.01591(2)
N2C N 0.36922(15) 0.0139(3) -0.0701(2)
O3C O 0.51992(13) 0.0695(3) -0.0605(2)
O3G O 0.48008(13) -0.0695(3) 0.0605(2)
O4C O 0.47648(13) 0.2355(3) -0.1068(2)
loop_
_geom_bond_atom_site_label_1
_geom_bond_atom_site_label_2
_geom_bond_site_symmetry_1
_geom_bond_site_symmetry_2
Cd1 N1 1_555 1_555
N1 C1 1_555 1_555
N2 C11 1_555 1_555
O1 Cd1 1_555 1_555
O2 Cd1 1_555 1_555
O3 C23 1_555 1_555
O4 C23 1_555 1_555
C1 H1 1_555 1_555
C2 C1 1_555 1_555
H2 C2 1_555 1_555
C3 C2 1_555 1_555
C4 C3 1_555 1_555
H3 C4 1_555 1_555
C5 N1 1_555 1_555
H4 C5 1_555 1_555
C6 C3 1_555 1_555
H5 C6 1_555 1_555
H6 C6 1_555 1_555
C7 C6 1_555 1_555
H7 C7 1_555 1_555
H8 C7 1_555 1_555
C8 C7 1_555 1_555
H9 C8 1_555 1_555
H10 C8 1_555 1_555
C9 C8 1_555 1_555
C10 C9 1_555 1_555
H11 C10 1_555 1_555
C11 C10 1_555 1_555
H12 C11 1_555 1_555
C12 N2 1_555 1_555
H13 C12 1_555 1_555
C13 C9 1_555 1_555
H14 C13 1_555 1_555
C14 C15 1_555 1_555
C15 H15 1_555 1_555
C16 C15 1_555 1_555
H16 C16 1_555 1_555
C17 C16 1_555 1_555
H17 C17 1_555 1_555
C18 C17 1_555 1_555
C19 C14 1_555 1_555
H18 C19 1_555 1_555
C20 C14 1_555 1_555
H19 C20 1_555 1_555
H20 C20 1_555 1_555
C21 O1 1_555 1_555
C22 C18 1_555 1_555
H21 C22 1_555 1_555
H22 C22 1_555 1_555
C23 C22 1_555 1_555
Cd1C N2 1_555 1_555
Cd1C_2 O3 1_555 1_555
Cd1G O3 1_555 1_555
N2C Cd1 1_555 1_555
O3C Cd1 1_555 1_555
O3G Cd1 1_555 1_555
O4C Cd1 1_555 1_555
O2 C21 1_555 1_555
O4 Cd1C_2 1_555 1_555
C4 C5 1_555 1_555
C12 C13 1_555 1_555
C18 C19 1_555 1_555
C20 C21 1_555 1_555

#END
