
#######################################################################
#
#                 Cambridge Crystallographic Data Centre
#                                CCDC 
#
#######################################################################
#
# If this CIF has been generated from an entry in the Cambridge 
# Structural Database, then it will include bibliographic, chemical, 
# crystal, experimental, refinement or atomic coordinate data resulting 
# from the CCDC's data processing and validation procedures.
#
#######################################################################

data_YADYAF
_symmetry_cell_setting           monoclinic
_symmetry_space_group_name_H-M   'P 21/c'
_symmetry_Int_Tables_number      14
_space_group_name_Hall           '-P 2ybc'
loop_
_symmetry_equiv_pos_site_id
_symmetry_equiv_pos_as_xyz
1 x,y,z
2 -x,1/2+y,1/2-z
3 -x,-y,-z
4 x,1/2-y,1/2+z
_cell_length_a                   13.248(2)
_cell_length_b                   18.345(3)
_cell_length_c                   9.3908(17)
_cell_angle_alpha                90
_cell_angle_beta                 105.283(3)
_cell_angle_gamma                90
_cell_volume                     2201.58
loop_
_atom_site_label
_atom_site_type_symbol
_atom_site_fract_x
_atom_site_fract_y
_atom_site_fract_z
Mn1 Mn 0.19018(3) 0.04500(3) 0.66751(5)
O1 O 0.30979(16) 0.00888(12) 0.5476(2)
O2 O 0.14940(15) -0.03061(12) 0.4757(2)
O3 O 0.24611(15) -0.02364(12) -0.1439(2)
O4 O 0.09567(17) -0.06327(14) -0.1146(2)
O5 O 0.04001(16) 0.04967(12) 0.7192(2)
N1 N 0.28258(17) 0.13908(14) 0.7887(2)
N2 N 0.13230(18) 0.14711(14) 0.5316(2)
C1 C 0.2230(2) -0.04651(16) 0.1959(3)
H1 H 0.2503 0.0023 0.1916
H2 H 0.1478 -0.0429 0.1795
C2 C 0.2538(2) 0.20657(16) 0.7326(3)
C3 C 0.1728(2) 0.21121(16) 0.5955(3)
C4 C 0.2711(2) -0.07909(16) 0.3488(3)
C5 C 0.1847(3) 0.34353(18) 0.6131(4)
H3 H 0.1618 0.3891 0.5744
C6 C 0.2981(2) 0.27062(18) 0.8028(3)
C7 C 0.2031(2) -0.17043(17) 0.0829(3)
H4 H 0.1278 -0.1674 0.0663
H5 H 0.2177 -0.2013 0.0068
C8 C 0.3574(2) 0.13474(19) 0.9138(3)
H6 H 0.3787 0.0888 0.9519
C9 C 0.0618(2) 0.28050(19) 0.4005(3)
H7 H 0.0381 0.3247 0.3554
C10 C 0.2427(2) -0.03075(16) 0.4641(3)
C11 C 0.2479(2) -0.09385(16) 0.0732(3)
C12 C 0.1389(2) 0.27964(18) 0.5349(3)
C13 C 0.3666(2) -0.09953(18) 0.1002(3)
H8 H 0.3960 -0.0514 0.0953
H9 H 0.3831 -0.1296 0.0245
C14 C 0.3762(2) 0.2630(2) 0.9355(3)
H10 H 0.4080 0.3042 0.9858
C15 C 0.3902(2) -0.08430(19) 0.3729(3)
H11 H 0.4221 -0.1045 0.4698
H12 H 0.4190 -0.0360 0.3682
C16 C 0.2259(2) -0.15618(16) 0.3527(3)
H13 H 0.2552 -0.1778 0.4490
H14 H 0.1506 -0.1532 0.3364
C17 C 0.0218(2) 0.2171(2) 0.3362(4)
H15 H -0.0296 0.2173 0.2469
C18 C 0.1921(2) -0.05850(17) -0.0733(3)
C19 C 0.3698(3) -0.20887(19) 0.2604(4)
H16 H 0.4006 -0.2303 0.3565
H17 H 0.3864 -0.2399 0.1860
C20 C 0.4056(2) 0.19561(19) 0.9908(3)
H18 H 0.4573 0.1902 1.0789
C21 C 0.2516(3) -0.20380(18) 0.2341(3)
H19 H 0.2228 -0.2527 0.2382
C22 C 0.0587(2) 0.15148(19) 0.4056(3)
H20 H 0.0299 0.1083 0.3607
C23 C 0.2598(3) 0.33959(18) 0.7406(4)
H21 H 0.2873 0.3822 0.7891
C24 C 0.4146(2) -0.1333(2) 0.2532(3)
H22 H 0.4906 -0.1369 0.2697
H23 H 0.053(4) 0.0136(19) 0.775(5)
H24 H -0.016(2) 0.046(3) 0.654(4)
Mn1_2 Mn 0.19018(3) 0.04500(3) -0.33249(5)
O3_2 O 0.24611(15) -0.02364(12) 0.8561(2)
O6 O 0.5446(2) 0.0628(2) 0.2049(4)
H25 H 0.557(4) 0.042(3) 0.287(3)
H26 H 0.595(3) 0.090(3) 0.200(5)
loop_
_geom_bond_atom_site_label_1
_geom_bond_atom_site_label_2
_geom_bond_site_symmetry_1
_geom_bond_site_symmetry_2
Mn1 O1 1_555 1_555
O1 C10 1_555 1_555
O2 Mn1 1_555 1_555
O3 C18 1_555 1_555
O4 C18 1_555 1_555
O5 Mn1 1_555 1_555
N1 Mn1 1_555 1_555
N2 Mn1 1_555 1_555
C1 H1 1_555 1_555
H2 C1 1_555 1_555
C2 N1 1_555 1_555
C3 N2 1_555 1_555
C4 C1 1_555 1_555
C5 H3 1_555 1_555
C6 C2 1_555 1_555
C7 H4 1_555 1_555
H5 C7 1_555 1_555
C8 N1 1_555 1_555
H6 C8 1_555 1_555
C9 H7 1_555 1_555
C10 O2 1_555 1_555
C11 C1 1_555 1_555
C12 C3 1_555 1_555
C13 C11 1_555 1_555
H8 C13 1_555 1_555
H9 C13 1_555 1_555
C14 C6 1_555 1_555
H10 C14 1_555 1_555
C15 C4 1_555 1_555
H11 C15 1_555 1_555
H12 C15 1_555 1_555
C16 C4 1_555 1_555
H13 C16 1_555 1_555
H14 C16 1_555 1_555
C17 C9 1_555 1_555
H15 C17 1_555 1_555
C18 C11 1_555 1_555
C19 H16 1_555 1_555
H17 C19 1_555 1_555
C20 C8 1_555 1_555
H18 C20 1_555 1_555
C21 C7 1_555 1_555
H19 C21 1_555 1_555
C22 N2 1_555 1_555
H20 C22 1_555 1_555
C23 C5 1_555 1_555
H21 C23 1_555 1_555
C24 C13 1_555 1_555
H22 C24 1_555 1_555
O6 H25 1_555 1_555
H23 O5 1_555 1_555
H24 O5 1_555 1_555
H26 O6 1_555 1_555
Mn1_2 O3 1_555 1_555
O3_2 Mn1 1_555 1_555
C2 C3 1_555 1_555
C4 C10 1_555 1_555
C5 C12 1_555 1_555
C6 C23 1_555 1_555
C7 C11 1_555 1_555
C9 C12 1_555 1_555
C14 C20 1_555 1_555
C15 C24 1_555 1_555
C16 C21 1_555 1_555
C17 C22 1_555 1_555
C19 C21 1_555 1_555
C19 C24 1_555 1_555

#END
