
#######################################################################
#
#                 Cambridge Crystallographic Data Centre
#                                CCDC 
#
#######################################################################
#
# If this CIF has been generated from an entry in the Cambridge 
# Structural Database, then it will include bibliographic, chemical, 
# crystal, experimental, refinement or atomic coordinate data resulting 
# from the CCDC's data processing and validation procedures.
#
#######################################################################

data_YADYOT
_symmetry_cell_setting           monoclinic
_symmetry_space_group_name_H-M   'P 21/n'
_symmetry_Int_Tables_number      14
_space_group_name_Hall           '-P 2yn'
loop_
_symmetry_equiv_pos_site_id
_symmetry_equiv_pos_as_xyz
1 x,y,z
2 1/2-x,1/2+y,1/2-z
3 -x,-y,-z
4 1/2+x,1/2-y,1/2+z
_cell_length_a                   8.7028(9)
_cell_length_b                   19.872(2)
_cell_length_c                   14.5181(14)
_cell_angle_alpha                90
_cell_angle_beta                 97.845(2)
_cell_angle_gamma                90
_cell_volume                     2487.29
loop_
_atom_site_label
_atom_site_type_symbol
_atom_site_fract_x
_atom_site_fract_y
_atom_site_fract_z
Co1 Co 0.72581(4) 0.433780(19) 0.65569(3)
O1 O 0.6416(2) 0.49163(10) 0.76819(13)
O2 O 0.6521(2) 0.53304(10) 0.63038(14)
O3 O -0.0199(2) 0.88087(10) 0.90530(14)
O4 O -0.2047(2) 0.83205(10) 0.81231(14)
N1 N 0.9576(3) 0.44197(11) 0.71738(18)
N2 N 0.8468(3) 0.41977(11) 0.54323(17)
C1 C 0.6243(3) 0.54056(14) 0.7128(2)
C2 C 0.5758(3) 0.60753(14) 0.74361(19)
C3 C 0.5469(3) 0.66010(15) 0.68050(19)
H3 H 0.5576 0.6534 0.6183
C4 C 0.5025(3) 0.72181(15) 0.7100(2)
H4 H 0.4817 0.7567 0.6674
C5 C 0.4887(3) 0.73232(15) 0.8025(2)
H5 H 0.4581 0.7744 0.8215
C6 C 0.5193(3) 0.68143(14) 0.86754(18)
C7 C 0.5619(3) 0.61921(14) 0.83632(18)
H6 H 0.5817 0.5842 0.8788
C8 C 0.5183(3) 0.69319(14) 0.96955(19)
C9 C 0.6782(4) 0.69610(19) 1.0248(2)
H7 H 0.7295 0.7366 1.0096
H8 H 0.7373 0.6577 1.0100
H9 H 0.6696 0.6958 1.0900
C10 C 0.3872(4) 0.70120(14) 1.00524(19)
C11 C 0.3799(4) 0.71311(19) 1.1077(2)
H10 H 0.3364 0.6743 1.1338
H11 H 0.3160 0.7516 1.1148
H12 H 0.4825 0.7210 1.1393
C12 C 0.2327(3) 0.70095(14) 0.94623(19)
C13 C 0.1647(4) 0.64333(16) 0.9054(2)
H13 H 0.2170 0.6025 0.9137
C14 C 0.0202(4) 0.64560(16) 0.8527(2)
H14 H -0.0243 0.6062 0.8268
C15 C -0.0583(3) 0.70517(15) 0.83819(19)
H15 H -0.1548 0.7063 0.8017
C16 C 0.0063(3) 0.76353(14) 0.87795(18)
C17 C -0.0770(3) 0.82881(14) 0.8639(2)
C18 C 0.1496(3) 0.76036(14) 0.93232(19)
H16 H 0.1916 0.7995 0.9605
C19 C 1.0053(4) 0.45294(16) 0.8071(3)
H17 H 0.9311 0.4587 0.8468
C20 C 1.1591(4) 0.45614(18) 0.8438(3)
H18 H 1.1881 0.4646 0.9068
C21 C 1.2687(4) 0.44668(18) 0.7861(4)
H19 H 1.3736 0.4483 0.8094
C22 C 1.2228(4) 0.43482(16) 0.6937(3)
H20 H 1.2961 0.4282 0.6536
C23 C 1.0648(3) 0.43281(13) 0.6601(2)
C24 C 1.0024(3) 0.42047(12) 0.5620(2)
C25 C 1.0942(4) 0.41078(15) 0.4925(3)
H21 H 1.2017 0.4130 0.5057
C26 C 1.0246(4) 0.39784(16) 0.4041(3)
H22 H 1.0850 0.3902 0.3570
C27 C 0.8642(4) 0.39610(17) 0.3846(2)
H23 H 0.8151 0.3868 0.3250
C28 C 0.7805(4) 0.40859(16) 0.4565(2)
H24 H 0.6728 0.4093 0.4440
Co1A Co -0.22581(4) 0.933780(19) 0.84431(3)
O3A O 0.5199(2) 0.38087(10) 0.59470(14)
O4A O 0.7047(2) 0.33205(10) 0.68769(14)
O5 O 0.6236(8) 0.4682(3) 0.9574(3)
H1 H 0.6219 0.4775 0.9009
H2 H 0.5499 0.4883 0.9774
loop_
_geom_bond_atom_site_label_1
_geom_bond_atom_site_label_2
_geom_bond_site_symmetry_1
_geom_bond_site_symmetry_2
Co1 O1 1_555 1_555
O1 C1 1_555 1_555
O2 Co1 1_555 1_555
O3 C17 1_555 1_555
O4 C17 1_555 1_555
O5 H1 1_555 1_555
H2 O5 1_555 1_555
N1 Co1 1_555 1_555
N2 Co1 1_555 1_555
C1 O2 1_555 1_555
C2 C1 1_555 1_555
C3 C2 1_555 1_555
H3 C3 1_555 1_555
C4 C3 1_555 1_555
H4 C4 1_555 1_555
C5 C4 1_555 1_555
H5 C5 1_555 1_555
C6 C5 1_555 1_555
C7 C2 1_555 1_555
H6 C7 1_555 1_555
C8 C6 1_555 1_555
C9 C8 1_555 1_555
H7 C9 1_555 1_555
H8 C9 1_555 1_555
H9 C9 1_555 1_555
C10 C8 1_555 1_555
C11 C10 1_555 1_555
H10 C11 1_555 1_555
H11 C11 1_555 1_555
H12 C11 1_555 1_555
C12 C10 1_555 1_555
C13 C12 1_555 1_555
H13 C13 1_555 1_555
C14 C13 1_555 1_555
H14 C14 1_555 1_555
C15 C14 1_555 1_555
H15 C15 1_555 1_555
C16 C15 1_555 1_555
C17 C16 1_555 1_555
C18 C12 1_555 1_555
H16 C18 1_555 1_555
C19 N1 1_555 1_555
H17 C19 1_555 1_555
C20 C19 1_555 1_555
H18 C20 1_555 1_555
C21 C20 1_555 1_555
H19 C21 1_555 1_555
C22 C21 1_555 1_555
H20 C22 1_555 1_555
C23 N1 1_555 1_555
C24 N2 1_555 1_555
C25 C24 1_555 1_555
H21 C25 1_555 1_555
C26 C25 1_555 1_555
H22 C26 1_555 1_555
C27 C26 1_555 1_555
H23 C27 1_555 1_555
C28 N2 1_555 1_555
H24 C28 1_555 1_555
Co1A O3 1_555 1_555
O3A Co1 1_555 1_555
O4A Co1 1_555 1_555
O4 Co1A 1_555 1_555
C6 C7 1_555 1_555
C16 C18 1_555 1_555
C22 C23 1_555 1_555
C23 C24 1_555 1_555
C27 C28 1_555 1_555

#END
