
#######################################################################
#
#                 Cambridge Crystallographic Data Centre
#                                CCDC 
#
#######################################################################
#
# If this CIF has been generated from an entry in the Cambridge 
# Structural Database, then it will include bibliographic, chemical, 
# crystal, experimental, refinement or atomic coordinate data resulting 
# from the CCDC's data processing and validation procedures.
#
#######################################################################

data_YADZIO
_symmetry_cell_setting           triclinic
_symmetry_space_group_name_H-M   'P -1'
_symmetry_Int_Tables_number      2
_space_group_name_Hall           '-P 1'
loop_
_symmetry_equiv_pos_site_id
_symmetry_equiv_pos_as_xyz
1 x,y,z
2 -x,-y,-z
_cell_length_a                   6.2738(13)
_cell_length_b                   11.852(2)
_cell_length_c                   19.496(4)
_cell_angle_alpha                105.25(3)
_cell_angle_beta                 94.63(3)
_cell_angle_gamma                99.87(3)
_cell_volume                     1365.8
loop_
_atom_site_label
_atom_site_type_symbol
_atom_site_fract_x
_atom_site_fract_y
_atom_site_fract_z
Zn1 Zn 0.44987(7) 0.71792(4) 0.71734(3)
Br1 Br 1.37712(10) 1.24685(5) 0.59537(3)
Br2 Br 0.94349(9) 0.17043(4) 0.87084(3)
N1 N 0.1772(5) 0.6343(3) 0.64483(16)
N2 N 0.3188(5) 0.8162(3) 0.80109(18)
O1 O 0.6984(7) 0.8429(3) 0.7125(3)
O2 O 0.4838(8) 0.8466(5) 0.6190(4)
O3 O 0.6068(4) 0.5980(2) 0.73677(15)
O4 O 0.3088(5) 0.5406(3) 0.78312(16)
C1 C 0.1024(7) 0.5156(4) 0.6262(2)
H1 H 0.1853 0.4677 0.6438
C2 C -0.0907(7) 0.4620(4) 0.5825(2)
H2 H -0.1379 0.3788 0.5711
C3 C -0.2171(6) 0.5292(3) 0.5550(2)
C4 C -0.1384(7) 0.6510(4) 0.5738(2)
H3 H -0.2182 0.7006 0.5567
C5 C 0.0578(7) 0.6997(4) 0.6177(2)
H4 H 0.1099 0.7825 0.6291
C6 C -0.4231(6) 0.4716(4) 0.5084(2)
H5 H -0.4489 0.3883 0.4887
C7 C 0.4393(7) 0.9177(3) 0.8455(2)
H6 H 0.5797 0.9455 0.8355
C8 C 0.3661(7) 0.9821(4) 0.9046(2)
H7 H 0.4549 1.0537 0.9334
C9 C 0.1640(7) 0.9436(4) 0.9224(2)
C10 C 0.0358(7) 0.8385(4) 0.8758(2)
H8 H -0.1054 0.8095 0.8846
C11 C 0.1194(7) 0.7783(4) 0.8169(2)
H9 H 0.0329 0.7075 0.7863
C12 C 0.0908(7) 1.0147(4) 0.9876(2)
H10 H 0.1836 1.0872 1.0132
C13 C 0.6547(13) 0.8825(6) 0.6615(5)
C14 C 0.8324(9) 0.9765(4) 0.6480(3)
C15 C 0.7939(9) 1.0245(5) 0.5934(3)
H11 H 0.6559 1.0015 0.5656
C16 C 0.9529(8) 1.1066(4) 0.5776(3)
H12 H 0.9235 1.1401 0.5401
C17 C 1.1540(8) 1.1382(4) 0.6178(3)
C18 C 1.1993(8) 1.0931(4) 0.6739(3)
H13 H 1.3377 1.1165 0.7015
C19 C 1.0344(9) 1.0115(4) 0.6889(3)
H14 H 1.0615 0.9800 0.7275
C20 C 0.4967(7) 0.5330(3) 0.7693(2)
C21 C 0.6034(6) 0.4408(3) 0.7914(2)
C22 C 0.5102(7) 0.3804(4) 0.8367(2)
H15 H 0.3778 0.3959 0.8525
C23 C 0.6067(7) 0.2979(4) 0.8591(2)
H16 H 0.5431 0.2579 0.8904
C24 C 0.7997(7) 0.2758(3) 0.8343(2)
C25 C 0.8937(7) 0.3311(4) 0.7881(2)
H17 H 1.0233 0.3130 0.7710
C26 C 0.7951(7) 0.4148(4) 0.7667(2)
H18 H 0.8590 0.4541 0.7351
Zn1A Zn -1.44987(7) 0.28208(4) 0.28266(3)
Zn1A_2 Zn -0.44987(7) 1.28208(4) 1.28266(3)
Br1A Br -2.37712(10) -0.24685(5) 0.40463(3)
Br2A Br -1.94349(9) 0.82957(4) 0.12916(3)
N1A N -1.1772(5) 0.3657(3) 0.35517(16)
N2A N -0.3188(5) 1.1838(3) 1.19891(18)
N2A_2 N -1.3188(5) 0.1838(3) 0.19891(18)
O1A O -1.6984(7) 0.1571(3) 0.2875(3)
O2A O -1.4838(8) 0.1534(5) 0.3810(4)
O3A O -1.6068(4) 0.4020(2) 0.26323(15)
O4A O -1.3088(5) 0.4594(3) 0.21688(16)
C1A C -1.1024(7) 0.4844(4) 0.3738(2)
H1A H -1.1853 0.5323 0.3562
C2A C -0.9093(7) 0.5380(4) 0.4175(2)
H2A H -0.8621 0.6212 0.4289
C3A C -0.7829(6) 0.4708(3) 0.4450(2)
C4A C -0.8616(7) 0.3490(4) 0.4262(2)
H3A H -0.7818 0.2994 0.4433
C5A C -1.0578(7) 0.3003(4) 0.3823(2)
H4A H -1.1099 0.2175 0.3709
C6A C -0.5769(6) 0.5284(4) 0.4916(2)
H5A H -0.5511 0.6117 0.5113
C7A C -0.4393(7) 1.0823(3) 1.1545(2)
H6A H -0.5797 1.0545 1.1645
C8A C -0.3661(7) 1.0179(4) 1.0954(2)
H7A H -0.4549 0.9463 1.0666
C9A C -0.1640(7) 1.0564(4) 1.0776(2)
C10A C -0.0358(7) 1.1615(4) 1.1242(2)
H8A H 0.1054 1.1905 1.1154
C11A C -0.1194(7) 1.2217(4) 1.1831(2)
H9A H -0.0329 1.2925 1.2137
C12A C -0.0908(7) 0.9853(4) 1.0124(2)
H10A H -0.1836 0.9128 0.9868
C13A C -1.6547(13) 0.1175(6) 0.3385(5)
C14A C -1.8324(9) 0.0235(4) 0.3520(3)
C15A C -1.7939(9) -0.0245(5) 0.4066(3)
H11A H -1.6559 -0.0015 0.4344
C16A C -1.9529(8) -0.1066(4) 0.4224(3)
H12A H -1.9235 -0.1401 0.4599
C17A C -2.1540(8) -0.1382(4) 0.3822(3)
C18A C -2.1993(8) -0.0931(4) 0.3261(3)
H13A H -2.3377 -0.1165 0.2985
C19A C -2.0344(9) -0.0115(4) 0.3111(3)
H14A H -2.0615 0.0200 0.2725
C20A C -1.4967(7) 0.4670(3) 0.2307(2)
C21A C -1.6034(6) 0.5592(3) 0.2086(2)
C22A C -1.5102(7) 0.6196(4) 0.1633(2)
H15A H -1.3778 0.6041 0.1475
C23A C -1.6067(7) 0.7021(4) 0.1409(2)
H16A H -1.5431 0.7421 0.1096
C24A C -1.7997(7) 0.7242(3) 0.1657(2)
C25A C -1.8937(7) 0.6689(4) 0.2119(2)
H17A H -2.0233 0.6870 0.2290
C26A C -1.7951(7) 0.5852(4) 0.2333(2)
H18A H -1.8590 0.5459 0.2649
C27 C 0.8391(11) 1.4073(6) 1.0550(3)
H19 H 0.8972 1.4411 1.1053
H20 H 0.8351 1.4712 1.0327
H21 H 0.9315 1.3557 1.0313
C28 C 0.6195(13) 1.3385(6) 1.0485(3)
N3 N 0.4488(11) 1.2851(5) 1.0428(3)
loop_
_geom_bond_atom_site_label_1
_geom_bond_atom_site_label_2
_geom_bond_site_symmetry_1
_geom_bond_site_symmetry_2
Zn1 N1 1_555 1_555
Br1 C17 1_555 1_555
Br2 C24 1_555 1_555
N1 C1 1_555 1_555
N2 Zn1 1_555 1_555
O1 Zn1 1_555 1_555
O2 C13 1_555 1_555
O3 Zn1 1_555 1_555
O4 C20 1_555 1_555
C1 H1 1_555 1_555
C2 C1 1_555 1_555
H2 C2 1_555 1_555
C3 C2 1_555 1_555
C4 C3 1_555 1_555
H3 C4 1_555 1_555
C5 N1 1_555 1_555
H4 C5 1_555 1_555
C6 C3 1_555 1_555
H5 C6 1_555 1_555
C7 N2 1_555 1_555
H6 C7 1_555 1_555
C8 C7 1_555 1_555
H7 C8 1_555 1_555
C9 C8 1_555 1_555
C10 C9 1_555 1_555
H8 C10 1_555 1_555
C11 N2 1_555 1_555
H9 C11 1_555 1_555
C12 C9 1_555 1_555
H10 C12 1_555 1_555
C13 O1 1_555 1_555
C14 C13 1_555 1_555
C15 C14 1_555 1_555
H11 C15 1_555 1_555
C16 C15 1_555 1_555
H12 C16 1_555 1_555
C17 C16 1_555 1_555
C18 C17 1_555 1_555
H13 C18 1_555 1_555
C19 C14 1_555 1_555
H14 C19 1_555 1_555
C20 O3 1_555 1_555
C21 C20 1_555 1_555
C22 C21 1_555 1_555
H15 C22 1_555 1_555
C23 C22 1_555 1_555
H16 C23 1_555 1_555
C24 C23 1_555 1_555
C25 C24 1_555 1_555
H17 C25 1_555 1_555
C26 C21 1_555 1_555
H18 C26 1_555 1_555
C27 H19 1_555 1_555
H20 C27 1_555 1_555
H21 C27 1_555 1_555
C28 C27 1_555 1_555
N3 C28 1_555 1_555
Zn1A N1A 1_555 1_555
Zn1A_2 N2A 1_555 1_555
Br1A C17A 1_555 1_555
Br2A C24A 1_555 1_555
N1A C1A 1_555 1_555
N2A C7A 1_555 1_555
N2A_2 Zn1A 1_555 1_555
O1A Zn1A 1_555 1_555
O2A C13A 1_555 1_555
O3A Zn1A 1_555 1_555
O4A C20A 1_555 1_555
C1A H1A 1_555 1_555
C2A C1A 1_555 1_555
H2A C2A 1_555 1_555
C3A C2A 1_555 1_555
C4A C3A 1_555 1_555
H3A C4A 1_555 1_555
C5A N1A 1_555 1_555
H4A C5A 1_555 1_555
C6A C6 1_555 1_555
H5A C6A 1_555 1_555
C7A H6A 1_555 1_555
C8A C7A 1_555 1_555
H7A C8A 1_555 1_555
C9A C8A 1_555 1_555
C10A C9A 1_555 1_555
H8A C10A 1_555 1_555
C11A N2A 1_555 1_555
H9A C11A 1_555 1_555
C12A C12 1_555 1_555
H10A C12A 1_555 1_555
C13A O1A 1_555 1_555
C14A C13A 1_555 1_555
C15A C14A 1_555 1_555
H11A C15A 1_555 1_555
C16A C15A 1_555 1_555
H12A C16A 1_555 1_555
C17A C16A 1_555 1_555
C18A C17A 1_555 1_555
H13A C18A 1_555 1_555
C19A C14A 1_555 1_555
H14A C19A 1_555 1_555
C20A O3A 1_555 1_555
C21A C20A 1_555 1_555
C22A C21A 1_555 1_555
H15A C22A 1_555 1_555
C23A C22A 1_555 1_555
H16A C23A 1_555 1_555
C24A C23A 1_555 1_555
C25A C24A 1_555 1_555
H17A C25A 1_555 1_555
C26A C21A 1_555 1_555
H18A C26A 1_555 1_555
C4 C5 1_555 1_555
C10 C11 1_555 1_555
C18 C19 1_555 1_555
C25 C26 1_555 1_555
C3A C6A 1_555 1_555
C4A C5A 1_555 1_555
C9A C12A 1_555 1_555
C10A C11A 1_555 1_555
C18A C19A 1_555 1_555
C25A C26A 1_555 1_555

#END
