
#######################################################################
#
#                 Cambridge Crystallographic Data Centre
#                                CCDC 
#
#######################################################################
#
# If this CIF has been generated from an entry in the Cambridge 
# Structural Database, then it will include bibliographic, chemical, 
# crystal, experimental, refinement or atomic coordinate data resulting 
# from the CCDC's data processing and validation procedures.
#
#######################################################################

data_YAFBEO
_symmetry_cell_setting           orthorhombic
_symmetry_space_group_name_H-M   'P b c a'
_symmetry_Int_Tables_number      61
_space_group_name_Hall           '-P 2ac 2ab'
loop_
_symmetry_equiv_pos_site_id
_symmetry_equiv_pos_as_xyz
1 x,y,z
2 1/2-x,-y,1/2+z
3 1/2+x,1/2-y,-z
4 -x,1/2+y,1/2-z
5 -x,-y,-z
6 1/2+x,y,1/2-z
7 1/2-x,1/2+y,z
8 x,1/2-y,1/2+z
_cell_length_a                   8.027(3)
_cell_length_b                   13.582(5)
_cell_length_c                   19.591(7)
_cell_angle_alpha                90
_cell_angle_beta                 90
_cell_angle_gamma                90
_cell_volume                     2135.86
loop_
_atom_site_label
_atom_site_type_symbol
_atom_site_fract_x
_atom_site_fract_y
_atom_site_fract_z
Cd1 Cd 0.24003(2) 0.627985(11) 0.051993(8)
O1 O 0.2744(2) 0.47757(12) 0.10249(8)
O2 O 0.3061(2) 0.60170(12) 0.17270(8)
O3 O 0.2644(2) 0.48696(15) 0.42628(10)
O4 O 0.3590(3) 0.33884(15) 0.44912(8)
O5 O 0.5561(2) 0.19980(12) 0.22523(8)
H1 H 0.601(4) 0.169(2) 0.2588(11)
O6 O -0.0295(2) 0.64996(15) 0.08972(9)
H2 H -0.039(4) 0.664(2) 0.1324(6)
H3 H -0.100(3) 0.6046(18) 0.0802(14)
O7 O 0.5220(3) 0.62281(14) 0.03440(14)
H4 H 0.579(4) 0.5698(14) 0.0398(18)
H5 H 0.587(3) 0.6668(17) 0.0178(18)
O8 O 0.2910(3) 0.79576(13) 0.05101(9)
H6 H 0.257(3) 0.8459(18) 0.0741(17)
H7 H 0.3899(19) 0.808(2) 0.0371(15)
C1 C 0.3094(3) 0.51031(15) 0.16111(10)
C2 C 0.3560(3) 0.43938(15) 0.21601(11)
C3 C 0.3239(3) 0.45950(16) 0.28430(11)
H8 H 0.2752 0.5189 0.2970
C4 C 0.3659(3) 0.38923(15) 0.33382(11)
C5 C 0.4416(3) 0.30120(16) 0.31452(11)
H9 H 0.4676 0.2541 0.3473
C6 C 0.4780(3) 0.28385(17) 0.24653(11)
C7 C 0.4336(3) 0.35181(17) 0.19718(11)
H10 H 0.4555 0.3390 0.1514
C8 C 0.3255(3) 0.40683(18) 0.40740(11)
Cd1A Cd 0.25997(2) 0.372015(11) 0.551993(8)
O4A O 0.1410(3) 0.66116(15) -0.05088(8)
loop_
_geom_bond_atom_site_label_1
_geom_bond_atom_site_label_2
_geom_bond_site_symmetry_1
_geom_bond_site_symmetry_2
Cd1 O1 1_555 1_555
O1 C1 1_555 1_555
O2 Cd1 1_555 1_555
O3 C8 1_555 1_555
O4 C8 1_555 1_555
O5 H1 1_555 1_555
O6 Cd1 1_555 1_555
H2 O6 1_555 1_555
H3 O6 1_555 1_555
O7 Cd1 1_555 1_555
H4 O7 1_555 1_555
H5 O7 1_555 1_555
O8 Cd1 1_555 1_555
H6 O8 1_555 1_555
H7 O8 1_555 1_555
C1 O2 1_555 1_555
C2 C1 1_555 1_555
C3 C2 1_555 1_555
H8 C3 1_555 1_555
C4 C3 1_555 1_555
C5 C4 1_555 1_555
H9 C5 1_555 1_555
C6 O5 1_555 1_555
C7 C2 1_555 1_555
H10 C7 1_555 1_555
C8 C4 1_555 1_555
Cd1A O4 1_555 1_555
O4A Cd1 1_555 1_555
C5 C6 1_555 1_555
C6 C7 1_555 1_555

#END
