
#######################################################################
#
#                 Cambridge Crystallographic Data Centre
#                                CCDC 
#
#######################################################################
#
# If this CIF has been generated from an entry in the Cambridge 
# Structural Database, then it will include bibliographic, chemical, 
# crystal, experimental, refinement or atomic coordinate data resulting 
# from the CCDC's data processing and validation procedures.
#
#######################################################################

data_YAFDAM
_symmetry_cell_setting           triclinic
_symmetry_space_group_name_H-M   'P -1'
_symmetry_Int_Tables_number      2
_space_group_name_Hall           '-P 1'
loop_
_symmetry_equiv_pos_site_id
_symmetry_equiv_pos_as_xyz
1 x,y,z
2 -x,-y,-z
_cell_length_a                   10.0597(9)
_cell_length_b                   10.7824(10)
_cell_length_c                   13.7261(13)
_cell_angle_alpha                79.141(3)
_cell_angle_beta                 78.801(1)
_cell_angle_gamma                86.578(3)
_cell_volume                     1433.92
loop_
_atom_site_label
_atom_site_type_symbol
_atom_site_fract_x
_atom_site_fract_y
_atom_site_fract_z
Co1 Co 1.0000 0.5000 0.0000
Ho1 Ho 0.68057(2) 0.07784(2) 0.204340(17)
C1 C 0.6994(6) 0.4719(5) 0.2279(4)
C2 C 0.7035(6) 0.6032(6) 0.1993(5)
H1 H 0.7193 0.6407 0.1315
C3 C 0.6834(6) 0.6770(5) 0.2746(4)
C4 C 0.6647(6) 0.6223(6) 0.3756(5)
H2 H 0.6529 0.6730 0.4246
C5 C 0.6636(6) 0.4913(6) 0.4041(5)
C6 C 0.6770(6) 0.4169(6) 0.3298(5)
H3 H 0.6709 0.3296 0.3485
C7 C 0.6875(6) 0.8177(6) 0.2476(5)
C8 C 0.7308(6) 0.3913(6) 0.1481(5)
C9 C 0.6680(7) 0.4839(6) 0.5835(5)
C10 C 0.6509(6) 0.4012(6) 0.6856(5)
C11 C 0.6448(8) 0.4618(7) 0.7689(5)
H4 H 0.6452 0.5494 0.7600
C12 C 0.6382(8) 0.3898(8) 0.8632(6)
H5 H 0.6334 0.4310 0.9176
C13 C 0.6446(7) 0.2083(7) 0.8032(5)
H6 H 0.6453 0.1205 0.8150
C14 C 0.6503(7) 0.2708(7) 0.7046(5)
H7 H 0.6536 0.2260 0.6525
C15 C 0.9066(6) 0.1082(6) -0.7189(5)
C16 C 1.0260(6) 0.1190(6) -0.6704(5)
C17 C 1.1593(6) 0.1035(6) -0.7191(5)
H8 H 1.1774 0.0870 -0.7846
C18 C 1.2633(6) 0.1125(6) -0.6700(5)
C19 C 1.2362(6) 0.1400(6) -0.5715(5)
H9 H 1.3070 0.1440 -0.5377
C20 C 1.1051(6) 0.1606(6) -0.5256(4)
C21 C 0.9979(6) 0.1474(6) -0.5750(5)
H10 H 0.9086 0.1579 -0.5432
C22 C 1.4092(6) 0.0971(5) -0.7168(5)
C23 C 0.9939(6) 0.2942(6) -0.4094(5)
C24 C 0.9915(6) 0.3357(6) -0.3103(5)
C25 C 0.9898(7) 0.4651(7) -0.3107(5)
H11 H 0.9920 0.5228 -0.3706
C26 C 0.9847(7) 0.5063(6) -0.2206(5)
H12 H 0.9852 0.5929 -0.2220
C27 C 0.9748(7) 0.3039(6) -0.1320(5)
H13 H 0.9658 0.2485 -0.0705
C28 C 0.9831(7) 0.2549(6) -0.2187(5)
H14 H 0.9831 0.1679 -0.2156
N1 N 0.6462(5) 0.4309(5) 0.5055(4)
H15 H 0.6196 0.3541 0.5196
N2 N 0.6383(6) 0.2642(6) 0.8813(5)
N3 N 1.0799(5) 0.1948(5) -0.4292(4)
H16 H 1.1190 0.1529 -0.3824
N4 N 0.9792(5) 0.4296(5) -0.1325(4)
O1 O 0.8061(5) 0.4321(4) 0.0666(3)
O2 O 0.6754(5) 0.2834(4) 0.1695(4)
O3 O 0.7064(6) 0.8823(4) 0.3105(4)
O4 O 0.6712(6) 0.8746(4) 0.1615(4)
O5 O 0.6942(7) 0.5942(5) 0.5749(4)
O6 O 0.7902(4) 0.1165(4) -0.6691(3)
O7 O 0.9238(5) 0.0921(5) -0.8107(3)
O8 O 1.4436(5) 0.0967(5) -0.8111(4)
O9 O 1.4993(5) 0.0839(5) -0.6645(3)
O10 O 0.9226(5) 0.3484(5) -0.4672(4)
O11 O 0.9246(5) 0.6839(4) -0.0658(3)
H17 H 0.8426 0.7036 -0.0440
H18 H 0.9828 0.7414 -0.0764
O12 O 0.7208(5) 0.0991(5) 0.0330(3)
H19 H 0.8039 0.0888 0.0078
H20 H 0.6856 0.1678 0.0062
Ho1A Ho 1.31943(2) 0.92216(2) -0.204340(17)
Ho1_2 Ho 0.68057(2) 1.07784(2) 0.204340(17)
Ho1_3 Ho 0.68057(2) 0.07784(2) -0.795660(17)
Ho1_4 Ho 1.68057(2) 0.07784(2) -0.795660(17)
Ho1A_2 Ho 1.31943(2) 0.92216(2) 0.795660(17)
Ho1A_3 Ho 0.31943(2) 0.92216(2) 0.795660(17)
Ho1A_4 Ho 1.31943(2) -0.07784(2) -0.204340(17)
C1A C 1.3006(6) 0.5281(5) -0.2279(4)
C2A C 1.2965(6) 0.3968(6) -0.1993(5)
H1A H 1.2807 0.3593 -0.1315
C3A C 1.3166(6) 0.3230(5) -0.2746(4)
C4A C 1.3353(6) 0.3777(6) -0.3756(5)
H2A H 1.3471 0.3270 -0.4246
C5A C 1.3364(6) 0.5087(6) -0.4041(5)
C6A C 1.3230(6) 0.5831(6) -0.3298(5)
H3A H 1.3291 0.6704 -0.3485
C7A C 1.3125(6) 0.1823(6) -0.2476(5)
C8A C 1.2692(6) 0.6087(6) -0.1481(5)
C9A C 1.3320(7) 0.5161(6) -0.5835(5)
C10A C 1.3491(6) 0.5988(6) -0.6856(5)
C11A C 1.3552(8) 0.5382(7) -0.7689(5)
H4A H 1.3548 0.4506 -0.7600
C12A C 1.3618(8) 0.6102(8) -0.8632(6)
H5A H 1.3666 0.5690 -0.9176
C13A C 1.3554(7) 0.7917(7) -0.8032(5)
H6A H 1.3547 0.8795 -0.8150
C14A C 1.3497(7) 0.7292(7) -0.7046(5)
H7A H 1.3464 0.7740 -0.6525
C15A C 1.0934(6) 0.8918(6) 0.7189(5)
C16A C 0.9740(6) 0.8810(6) 0.6704(5)
C17A C 0.8407(6) 0.8965(6) 0.7191(5)
H8A H 0.8226 0.9130 0.7846
C18A C 0.7367(6) 0.8875(6) 0.6700(5)
C19A C 0.7638(6) 0.8600(6) 0.5715(5)
H9A H 0.6930 0.8560 0.5377
C20A C 0.8949(6) 0.8394(6) 0.5256(4)
C21A C 1.0021(6) 0.8526(6) 0.5750(5)
H10A H 1.0914 0.8421 0.5432
C22A C 0.5908(6) 0.9029(5) 0.7168(5)
C23A C 1.0061(6) 0.7058(6) 0.4094(5)
C24A C 1.0085(6) 0.6643(6) 0.3103(5)
C25A C 1.0102(7) 0.5349(7) 0.3107(5)
H11A H 1.0080 0.4772 0.3706
C26A C 1.0153(7) 0.4937(6) 0.2206(5)
H12A H 1.0148 0.4071 0.2220
C27A C 1.0252(7) 0.6961(6) 0.1320(5)
H13A H 1.0342 0.7515 0.0705
C28A C 1.0169(7) 0.7451(6) 0.2187(5)
H14A H 1.0169 0.8321 0.2156
N1A N 1.3538(5) 0.5691(5) -0.5055(4)
H15A H 1.3804 0.6459 -0.5196
N2A N 1.3617(6) 0.7358(6) -0.8813(5)
N3A N 0.9201(5) 0.8052(5) 0.4292(4)
H16A H 0.8810 0.8471 0.3824
N4A N 1.0208(5) 0.5704(5) 0.1325(4)
O1A O 1.1939(5) 0.5679(4) -0.0666(3)
O2A O 1.3246(5) 0.7166(4) -0.1695(4)
O3A O 1.2936(6) 0.1177(4) -0.3105(4)
O3_2 O 0.7064(6) -0.1177(4) 0.3105(4)
O3A_2 O 1.2936(6) 1.1177(4) -0.3105(4)
O4A O 1.3288(6) 0.1254(4) -0.1615(4)
O4_2 O 0.6712(6) -0.1254(4) 0.1615(4)
O4A_2 O 1.3288(6) 1.1254(4) -0.1615(4)
O5A O 1.3058(7) 0.4058(5) -0.5749(4)
O6A O 1.2098(4) 0.8835(4) 0.6691(3)
O6_2 O 0.7902(4) 0.1165(4) 0.3309(3)
O6A_2 O 1.2098(4) 0.8835(4) -0.3309(3)
O7A O 1.0762(5) 0.9079(5) 0.8107(3)
O7_2 O 0.9238(5) 0.0921(5) 0.1893(3)
O7A_2 O 1.0762(5) 0.9079(5) -0.1893(3)
O8A O 0.5564(5) 0.9033(5) 0.8111(4)
O8_2 O 0.4436(5) 0.0967(5) 0.1889(4)
O8A_2 O 1.5564(5) 0.9033(5) -0.1889(4)
O9A O 0.5007(5) 0.9161(5) 0.6645(3)
O9_2 O 0.4993(5) 0.0839(5) 0.3355(3)
O9A_2 O 1.5007(5) 0.9161(5) -0.3355(3)
O10A O 1.0774(5) 0.6516(5) 0.4672(4)
O11A O 1.0754(5) 0.3161(4) 0.0658(3)
H17A H 1.1574 0.2964 0.0440
H18A H 1.0172 0.2586 0.0764
O12A O 1.2792(5) 0.9009(5) -0.0330(3)
H19A H 1.1961 0.9112 -0.0078
H20A H 1.3144 0.8322 -0.0062
O13 O 0.5839(8) 0.1598(5) 0.5164(4)
H21 H 0.6415 0.1444 0.4657
H22 H 0.5633 0.0901 0.5562
O14 O 0.3038(7) 0.1634(8) 0.0325(5)
H23 H 0.3255 0.1440 -0.0260
H24 H 0.3604 0.1340 0.0701
loop_
_geom_bond_atom_site_label_1
_geom_bond_atom_site_label_2
_geom_bond_site_symmetry_1
_geom_bond_site_symmetry_2
Co1 N4 1_555 1_555
Ho1 O2 1_555 1_555
C1 C2 1_555 1_555
C2 H1 1_555 1_555
C3 C2 1_555 1_555
C4 C3 1_555 1_555
H2 C4 1_555 1_555
C5 C4 1_555 1_555
C6 C1 1_555 1_555
H3 C6 1_555 1_555
C7 C3 1_555 1_555
C8 C1 1_555 1_555
C9 C10 1_555 1_555
C10 C11 1_555 1_555
C11 H4 1_555 1_555
C12 C11 1_555 1_555
H5 C12 1_555 1_555
C13 H6 1_555 1_555
C14 C10 1_555 1_555
H7 C14 1_555 1_555
C15 C16 1_555 1_555
C16 C17 1_555 1_555
C17 H8 1_555 1_555
C18 C17 1_555 1_555
C19 C18 1_555 1_555
H9 C19 1_555 1_555
C20 C19 1_555 1_555
C21 C16 1_555 1_555
H10 C21 1_555 1_555
C22 C18 1_555 1_555
C23 C24 1_555 1_555
C24 C25 1_555 1_555
C25 H11 1_555 1_555
C26 C25 1_555 1_555
H12 C26 1_555 1_555
C27 H13 1_555 1_555
C28 C24 1_555 1_555
H14 C28 1_555 1_555
N1 C5 1_555 1_555
H15 N1 1_555 1_555
N2 C12 1_555 1_555
N3 C20 1_555 1_555
H16 N3 1_555 1_555
N4 C26 1_555 1_555
O1 Co1 1_555 1_555
O2 C8 1_555 1_555
O3 C7 1_555 1_555
O4 C7 1_555 1_555
O5 C9 1_555 1_555
O6 C15 1_555 1_555
O7 C15 1_555 1_555
O8 C22 1_555 1_555
O9 C22 1_555 1_555
O10 C23 1_555 1_555
O11 Co1 1_555 1_555
H17 O11 1_555 1_555
H18 O11 1_555 1_555
O12 Ho1 1_555 1_555
H19 O12 1_555 1_555
H20 O12 1_555 1_555
O13 H21 1_555 1_555
H22 O13 1_555 1_555
O14 H23 1_555 1_555
H24 O14 1_555 1_555
Ho1A O2A 1_555 1_555
Ho1_2 O3 1_555 1_555
Ho1_3 O6 1_555 1_555
Ho1_4 O8 1_555 1_555
Ho1A_2 O6A 1_555 1_555
Ho1A_3 O8A 1_555 1_555
Ho1A_4 O3A 1_555 1_555
C1A C2A 1_555 1_555
C2A H1A 1_555 1_555
C3A C2A 1_555 1_555
C4A C3A 1_555 1_555
H2A C4A 1_555 1_555
C5A C4A 1_555 1_555
C6A C1A 1_555 1_555
H3A C6A 1_555 1_555
C7A C3A 1_555 1_555
C8A C1A 1_555 1_555
C9A C10A 1_555 1_555
C10A C11A 1_555 1_555
C11A H4A 1_555 1_555
C12A C11A 1_555 1_555
H5A C12A 1_555 1_555
C13A H6A 1_555 1_555
C14A C10A 1_555 1_555
H7A C14A 1_555 1_555
C15A C16A 1_555 1_555
C16A C17A 1_555 1_555
C17A H8A 1_555 1_555
C18A C17A 1_555 1_555
C19A C18A 1_555 1_555
H9A C19A 1_555 1_555
C20A C19A 1_555 1_555
C21A C16A 1_555 1_555
H10A C21A 1_555 1_555
C22A C18A 1_555 1_555
C23A C24A 1_555 1_555
C24A C25A 1_555 1_555
C25A H11A 1_555 1_555
C26A C25A 1_555 1_555
H12A C26A 1_555 1_555
C27A H13A 1_555 1_555
C28A C24A 1_555 1_555
H14A C28A 1_555 1_555
N1A C5A 1_555 1_555
H15A N1A 1_555 1_555
N2A C12A 1_555 1_555
N3A C20A 1_555 1_555
H16A N3A 1_555 1_555
N4A Co1 1_555 1_555
O1A Co1 1_555 1_555
O2A C8A 1_555 1_555
O3A C7A 1_555 1_555
O3_2 Ho1 1_555 1_555
O3A_2 Ho1A 1_555 1_555
O4A Ho1A_4 1_555 1_555
O4_2 Ho1 1_555 1_555
O4A_2 Ho1A 1_555 1_555
O5A C9A 1_555 1_555
O6A C15A 1_555 1_555
O6_2 Ho1 1_555 1_555
O6A_2 Ho1A 1_555 1_555
O7A Ho1A_2 1_555 1_555
O7_2 Ho1 1_555 1_555
O7A_2 Ho1A 1_555 1_555
O8A C22A 1_555 1_555
O8_2 Ho1 1_555 1_555
O8A_2 Ho1A 1_555 1_555
O9A Ho1A_3 1_555 1_555
O9_2 Ho1 1_555 1_555
O9A_2 Ho1A 1_555 1_555
O10A C23A 1_555 1_555
O11A Co1 1_555 1_555
H17A O11A 1_555 1_555
H18A O11A 1_555 1_555
O12A Ho1A 1_555 1_555
H19A O12A 1_555 1_555
H20A O12A 1_555 1_555
C5 C6 1_555 1_555
C8 O1 1_555 1_555
C9 N1 1_555 1_555
C13 C14 1_555 1_555
C13 N2 1_555 1_555
C20 C21 1_555 1_555
C23 N3 1_555 1_555
C27 C28 1_555 1_555
C27 N4 1_555 1_555
O4 Ho1_2 1_555 1_555
O7 Ho1_3 1_555 1_555
O9 Ho1_4 1_555 1_555
C5A C6A 1_555 1_555
C7A O4A 1_555 1_555
C8A O1A 1_555 1_555
C9A N1A 1_555 1_555
C13A C14A 1_555 1_555
C13A N2A 1_555 1_555
C15A O7A 1_555 1_555
C20A C21A 1_555 1_555
C22A O9A 1_555 1_555
C23A N3A 1_555 1_555
C26A N4A 1_555 1_555
C27A C28A 1_555 1_555
C27A N4A 1_555 1_555

#END
