
#######################################################################
#
#                 Cambridge Crystallographic Data Centre
#                                CCDC 
#
#######################################################################
#
# If this CIF has been generated from an entry in the Cambridge 
# Structural Database, then it will include bibliographic, chemical, 
# crystal, experimental, refinement or atomic coordinate data resulting 
# from the CCDC's data processing and validation procedures.
#
#######################################################################

data_YAFFIW
_symmetry_cell_setting           monoclinic
_symmetry_space_group_name_H-M   'P 21/n'
_symmetry_Int_Tables_number      14
_space_group_name_Hall           '-P 2yn'
loop_
_symmetry_equiv_pos_site_id
_symmetry_equiv_pos_as_xyz
1 x,y,z
2 1/2-x,1/2+y,1/2-z
3 -x,-y,-z
4 1/2+x,1/2-y,1/2+z
_cell_length_a                   5.6200(11)
_cell_length_b                   8.8577(18)
_cell_length_c                   14.481(3)
_cell_angle_alpha                90
_cell_angle_beta                 96.55(3)
_cell_angle_gamma                90
_cell_volume                     716.163
loop_
_atom_site_label
_atom_site_type_symbol
_atom_site_fract_x
_atom_site_fract_y
_atom_site_fract_z
Cu1 Cu 0.0000 0.5000 0.5000
C1 C 0.0677(5) 0.4366(4) 0.3025(2)
H1 H 0.1452 0.3463 0.3194
C2 C -0.1151(5) 0.6469(4) 0.3090(2)
H2 H -0.1900 0.7304 0.3318
C3 C -0.0853(6) 0.6229(4) 0.2184(2)
H3 H -0.1337 0.6861 0.1685
C4 C 0.1083(6) 0.4132(4) 0.1331(2)
H4 H -0.0227 0.4136 0.0833
H5 H 0.1477 0.3088 0.1482
C5 C 0.3213(7) 0.4885(4) 0.0999(3)
H6 H 0.2801 0.5899 0.0809
H7 H 0.3701 0.4333 0.0482
H8 H 0.4505 0.4906 0.1494
C6 C -0.5161(4) 0.4123(3) 0.49195(17)
N1 N -0.0177(4) 0.5292(3) 0.36168(15)
N2 N 0.0296(4) 0.4876(3) 0.21516(16)
O1 O -0.3372(3) 0.3381(2) 0.47850(13)
O2 O -0.7246(3) 0.3599(2) 0.49398(12)
Cu1_2 Cu -1.0000 0.5000 0.5000
C1B C -0.0677(5) 0.5634(4) 0.6975(2)
H1B H -0.1452 0.6537 0.6806
C2B C 0.1151(5) 0.3531(4) 0.6910(2)
H2B H 0.1900 0.2696 0.6682
C3B C 0.0853(6) 0.3771(4) 0.7816(2)
H3B H 0.1337 0.3139 0.8315
C4B C -0.1083(6) 0.5868(4) 0.8669(2)
H4B H 0.0227 0.5864 0.9167
H5B H -0.1477 0.6912 0.8518
C5B C -0.3213(7) 0.5115(4) 0.9001(3)
H6B H -0.2801 0.4101 0.9191
H7B H -0.3701 0.5667 0.9518
H8B H -0.4505 0.5094 0.8506
C6B C -0.4839(4) 0.5877(3) 0.50805(17)
N1B N 0.0177(4) 0.4708(3) 0.63832(15)
N2B N -0.0296(4) 0.5124(3) 0.78484(16)
O1B O -0.6628(3) 0.6619(2) 0.52150(13)
O1B_2 O 0.3372(3) 0.6619(2) 0.52150(13)
O2B O -0.2754(3) 0.6401(2) 0.50602(12)
O2_2 O 0.2754(3) 0.3599(2) 0.49398(12)
loop_
_geom_bond_atom_site_label_1
_geom_bond_atom_site_label_2
_geom_bond_site_symmetry_1
_geom_bond_site_symmetry_2
Cu1 N1 1_555 1_555
C1 H1 1_555 1_555
C2 H2 1_555 1_555
C3 C2 1_555 1_555
H3 C3 1_555 1_555
C4 H4 1_555 1_555
H5 C4 1_555 1_555
C5 C4 1_555 1_555
H6 C5 1_555 1_555
H7 C5 1_555 1_555
H8 C5 1_555 1_555
C6 O1 1_555 1_555
N1 C1 1_555 1_555
N2 C1 1_555 1_555
O1 Cu1 1_555 1_555
O2 C6 1_555 1_555
Cu1_2 O2 1_555 1_555
C1B H1B 1_555 1_555
C2B H2B 1_555 1_555
C3B C2B 1_555 1_555
H3B C3B 1_555 1_555
C4B H4B 1_555 1_555
H5B C4B 1_555 1_555
C5B C4B 1_555 1_555
H6B C5B 1_555 1_555
H7B C5B 1_555 1_555
H8B C5B 1_555 1_555
C6B C6 1_555 1_555
N1B Cu1 1_555 1_555
N2B C1B 1_555 1_555
O1B Cu1_2 1_555 1_555
O1B_2 Cu1 1_555 1_555
O2B Cu1 1_555 1_555
O2_2 Cu1 1_555 1_555
C2 N1 1_555 1_555
C3 N2 1_555 1_555
C4 N2 1_555 1_555
C1B N1B 1_555 1_555
C2B N1B 1_555 1_555
C3B N2B 1_555 1_555
C4B N2B 1_555 1_555
C6B O1B 1_555 1_555
C6B O2B 1_555 1_555

#END
