
#######################################################################
#
#                 Cambridge Crystallographic Data Centre
#                                CCDC 
#
#######################################################################
#
# If this CIF has been generated from an entry in the Cambridge 
# Structural Database, then it will include bibliographic, chemical, 
# crystal, experimental, refinement or atomic coordinate data resulting 
# from the CCDC's data processing and validation procedures.
#
#######################################################################

data_YAFGOD
_symmetry_cell_setting           triclinic
_symmetry_space_group_name_H-M   'P -1'
_symmetry_Int_Tables_number      2
_space_group_name_Hall           '-P 1'
loop_
_symmetry_equiv_pos_site_id
_symmetry_equiv_pos_as_xyz
1 x,y,z
2 -x,-y,-z
_cell_length_a                   7.02312(14)
_cell_length_b                   7.77072(15)
_cell_length_c                   41.1902(8)
_cell_angle_alpha                89.5447(15)
_cell_angle_beta                 88.6733(16)
_cell_angle_gamma                84.8679(16)
_cell_volume                     2238.29
loop_
_atom_site_label
_atom_site_type_symbol
_atom_site_fract_x
_atom_site_fract_y
_atom_site_fract_z
Rb1 Rb 0.94219(5) 0.91218(4) 0.269380(10)
Rb2 Rb 1.44642(5) 0.56962(4) 0.231540(10)
Rb3 Rb 0.55354(5) 1.25576(4) 0.314070(10)
Rb4 Rb 1.05994(5) 1.23024(4) 0.186770(10)
O1 O 1.0765(3) 0.6063(3) 0.30690(6)
O2 O 0.7203(3) 1.2134(3) 0.24727(6)
O3 O 1.3448(3) 0.9459(3) 0.25016(6)
O4 O 0.8527(3) 0.5397(3) 0.25226(6)
O5 O 1.2304(3) 0.2898(3) 0.25649(6)
O6 O 1.5407(3) 0.9000(3) 0.19248(6)
O7 O 0.9422(3) 0.8720(3) 0.20024(6)
O8 O 1.1694(3) 1.3122(3) 0.34482(6)
O9 O 1.4344(3) 0.1885(3) 0.15619(6)
O10 O 0.4657(3) 0.6262(3) 0.30273(6)
O11 O 1.0819(3) 0.6021(3) 0.19896(6)
O12 O 0.9743(3) 1.2087(3) 0.30933(6)
O13 O 1.6508(3) 0.3115(3) 0.18492(6)
O14 O 0.5749(3) 0.8879(3) 0.30129(6)
O15 O 0.9548(5) 1.2102(3) 0.11758(8)
O16 O 1.0040(4) 1.1619(3) 0.44788(7)
O17 O 1.4963(5) 0.3392(3) 0.05074(7)
O18 O 0.6288(4) 0.2701(3) 0.38398(7)
O19 O 0.9983(6) 1.2938(4) 0.06947(8)
O20 O 1.1989(4) 1.0405(3) 0.48277(7)
O21 O 1.2977(4) 0.4607(4) 0.01645(7)
O22 O 0.4952(4) 0.1955(3) 0.42886(7)
N1 N 0.9558(4) 1.1848(4) 0.08879(9)
N2 N 1.1058(5) 1.0377(4) 0.45818(8)
N3 N 1.3938(5) 0.4642(4) 0.04070(8)
N4 N 0.5696(5) 0.3004(4) 0.41170(9)
C1 C 0.9166(4) 0.8696(4) 0.09601(8)
C2 C 1.0955(4) 0.8707(4) 0.40683(8)
C3 C 1.4229(4) 0.6317(4) 0.09139(8)
C4 C 0.5767(4) 0.6189(4) 0.40592(8)
C5 C 0.9142(5) 1.0156(4) 0.07599(9)
C6 C 1.1075(5) 0.8722(4) 0.44044(8)
C7 C 1.3957(5) 0.6294(4) 0.05795(8)
C8 C 0.5912(5) 0.4718(4) 0.42573(9)
C9 C 0.8869(5) 1.0081(5) 0.04283(9)
C10 C 1.1138(5) 0.7251(4) 0.45964(9)
C11 C 1.3784(5) 0.7768(4) 0.03888(9)
C12 C 0.6245(5) 0.4756(5) 0.45856(9)
C13 C 0.8646(5) 0.8536(5) 0.02851(9)
C14 C 1.1017(5) 0.5681(4) 0.44488(9)
C15 C 1.3917(5) 0.9349(4) 0.05312(10)
C16 C 0.6441(5) 0.6309(5) 0.47308(9)
C17 C 0.8730(5) 0.7050(5) 0.04737(9)
C18 C 1.0846(5) 0.5598(4) 0.41148(9)
C19 C 1.4179(5) 0.9423(4) 0.08630(10)
C20 C 0.6280(5) 0.7808(5) 0.45456(9)
C21 C 0.8985(5) 0.7140(4) 0.08026(9)
C22 C 1.0848(4) 0.7098(4) 0.39309(9)
C23 C 1.4306(4) 0.7938(4) 0.10475(9)
C24 C 0.5926(5) 0.7743(4) 0.42188(9)
C25 C 0.9285(5) 0.8678(4) 0.13174(8)
C26 C 1.1094(5) 1.0249(4) 0.38621(8)
C27 C 1.4337(5) 0.4762(4) 0.11246(8)
C28 C 0.5346(5) 0.6215(4) 0.37112(9)
C29 C 1.0164(5) 0.7420(4) 0.14909(9)
C30 C 1.0410(5) 1.0461(4) 0.35657(8)
C31 C 1.5385(5) 0.4579(4) 0.13842(9)
C32 C 0.5965(5) 0.7343(4) 0.35014(9)
C33 C 1.0123(5) 0.7401(4) 0.18519(9)
C34 C 1.0642(5) 1.2009(4) 0.33608(8)
C35 C 1.5404(5) 0.3069(4) 0.16126(9)
C36 C 0.5417(5) 0.7488(4) 0.31544(8)
H1 H 0.88360 1.11070 0.03010
H2 H 1.12630 0.73220 0.48250
H3 H 1.35750 0.76910 0.01630
H4 H 0.63370 0.37180 0.47100
H5 H 0.84360 0.84810 0.00590
H6 H 1.10510 0.46540 0.45760
H7 H 1.38310 1.03750 0.04040
H8 H 0.66860 0.63560 0.49560
H9 H 0.86110 0.59640 0.03750
H10 H 1.07280 0.45220 0.40130
H11 H 1.42710 1.05080 0.09640
H12 H 0.64150 0.88890 0.46450
H13 H 0.90410 0.61040 0.09270
H14 H 1.07730 0.70200 0.37020
H15 H 1.44530 0.80260 0.12750
H16 H 0.57850 0.87920 0.40980
H17 H 0.86840 0.96450 0.14310
H18 H 1.17260 1.11690 0.39490
H19 H 1.36050 0.38420 0.10690
H20 H 0.45810 0.53680 0.36320
H21 H 1.08530 0.64860 0.13800
H22 H 0.97310 0.95700 0.34800
H23 H 1.61860 0.54640 0.14300
H24 H 0.68230 0.81190 0.35770
H25 H 1.0870 0.5170 0.3200
H26 H 1.1940 0.6300 0.3060
H27 H 0.7626 1.3064 0.2511
H28 H 0.6990 1.2086 0.2270
H29 H 1.4325 0.9193 0.2656
H30 H 1.4051 0.9443 0.2312
H31 H 0.9200 0.5600 0.2680
H32 H 0.9230 0.5590 0.2360
H33 H 1.2630 0.1750 0.2500
H34 H 1.1550 0.2800 0.2720
H35 H 1.5080 0.9900 0.1810
H36 H 1.6580 0.9100 0.1960
Rb2_2 Rb 0.44642(5) 0.56962(4) 0.231540(10)
Rb3_2 Rb 1.55354(5) 1.25576(4) 0.314070(10)
Rb3_3 Rb 0.55354(5) 0.25576(4) 0.314070(10)
Rb4_2 Rb 1.05994(5) 0.23024(4) 0.186770(10)
Rb4_3 Rb 2.05994(5) 0.23024(4) 0.186770(10)
O4_2 O 1.8527(3) 0.5397(3) 0.25226(6)
O5_2 O 1.2304(3) 1.2898(3) 0.25649(6)
O8_2 O 0.1694(3) 1.3122(3) 0.34482(6)
O9_2 O 1.4344(3) 1.1885(3) 0.15619(6)
O10_2 O 1.4657(3) 0.6262(3) 0.30273(6)
O10_3 O 0.4657(3) 1.6262(3) 0.30273(6)
O11_2 O 1.0819(3) 1.6021(3) 0.19896(6)
O13_2 O 0.6508(3) 1.3115(3) 0.18492(6)
O18_2 O 0.6288(4) 1.2701(3) 0.38398(7)
H31_2 H 1.9200 0.5600 0.2680
H32_2 H 1.9230 0.5590 0.2360
H33_2 H 1.2630 1.1750 0.2500
H34_2 H 1.1550 1.2800 0.2720
loop_
_geom_bond_atom_site_label_1
_geom_bond_atom_site_label_2
_geom_bond_site_symmetry_1
_geom_bond_site_symmetry_2
Rb1 O1 1_555 1_555
Rb2 O3 1_555 1_555
Rb3 O2 1_555 1_555
Rb4 O7 1_555 1_555
O1 H25 1_555 1_555
O2 Rb1 1_555 1_555
O3 Rb1 1_555 1_555
O4 Rb1 1_555 1_555
O5 Rb2 1_555 1_555
O6 Rb2 1_555 1_555
O7 Rb1 1_555 1_555
O8 C34 1_555 1_555
O9 C35 1_555 1_555
O10 C36 1_555 1_555
O11 Rb2 1_555 1_555
O12 Rb1 1_555 1_555
O13 Rb2 1_555 1_555
O14 Rb1 1_555 1_555
O15 Rb4 1_555 1_555
O16 N2 1_555 1_555
O17 N3 1_555 1_555
O18 N4 1_555 1_555
O19 N1 1_555 1_555
O20 N2 1_555 1_555
O21 N3 1_555 1_555
O22 N4 1_555 1_555
N1 O15 1_555 1_555
N2 C6 1_555 1_555
N3 C7 1_555 1_555
N4 C8 1_555 1_555
C1 C5 1_555 1_555
C2 C6 1_555 1_555
C3 C7 1_555 1_555
C4 C8 1_555 1_555
C5 N1 1_555 1_555
C6 C10 1_555 1_555
C7 C11 1_555 1_555
C8 C12 1_555 1_555
C9 C5 1_555 1_555
C10 C14 1_555 1_555
C11 C15 1_555 1_555
C12 C16 1_555 1_555
C13 C9 1_555 1_555
C14 C18 1_555 1_555
C15 C19 1_555 1_555
C16 C20 1_555 1_555
C17 C13 1_555 1_555
C18 C22 1_555 1_555
C19 C23 1_555 1_555
C20 C24 1_555 1_555
C21 C1 1_555 1_555
C22 C2 1_555 1_555
C23 C3 1_555 1_555
C24 C4 1_555 1_555
C25 C1 1_555 1_555
C26 C2 1_555 1_555
C27 C3 1_555 1_555
C28 C4 1_555 1_555
C29 C25 1_555 1_555
C30 C26 1_555 1_555
C31 C27 1_555 1_555
C32 C28 1_555 1_555
C33 O7 1_555 1_555
C34 O12 1_555 1_555
C35 O13 1_555 1_555
C36 O14 1_555 1_555
H1 C9 1_555 1_555
H2 C10 1_555 1_555
H3 C11 1_555 1_555
H4 C12 1_555 1_555
H5 C13 1_555 1_555
H6 C14 1_555 1_555
H7 C15 1_555 1_555
H8 C16 1_555 1_555
H9 C17 1_555 1_555
H10 C18 1_555 1_555
H11 C19 1_555 1_555
H12 C20 1_555 1_555
H13 C21 1_555 1_555
H14 C22 1_555 1_555
H15 C23 1_555 1_555
H16 C24 1_555 1_555
H17 C25 1_555 1_555
H18 C26 1_555 1_555
H19 C27 1_555 1_555
H20 C28 1_555 1_555
H21 C29 1_555 1_555
H22 C30 1_555 1_555
H23 C31 1_555 1_555
H24 C32 1_555 1_555
H26 O1 1_555 1_555
H27 O2 1_555 1_555
H28 O2 1_555 1_555
H29 O3 1_555 1_555
H30 O3 1_555 1_555
H31 O4 1_555 1_555
H32 O4 1_555 1_555
H33 O5 1_555 1_555
H34 O5 1_555 1_555
H35 O6 1_555 1_555
H36 O6 1_555 1_555
Rb2_2 O4 1_555 1_555
Rb3_2 O8 1_555 1_555
Rb3_3 O10 1_555 1_555
Rb4_2 O5 1_555 1_555
Rb4_3 O13 1_555 1_555
O4_2 Rb2 1_555 1_555
O5_2 Rb4 1_555 1_555
O8_2 Rb3 1_555 1_555
O9_2 Rb4 1_555 1_555
O10_2 Rb2 1_555 1_555
O10_3 Rb3 1_555 1_555
O11_2 Rb4 1_555 1_555
O13_2 Rb4 1_555 1_555
O18_2 Rb3 1_555 1_555
H31_2 O4_2 1_555 1_555
H32_2 O4_2 1_555 1_555
H33_2 O5_2 1_555 1_555
H34_2 O5_2 1_555 1_555
Rb3 O12 1_555 1_555
Rb3 O14 1_555 1_555
O9 Rb4_2 1_555 1_555
O10 Rb2_2 1_555 1_555
O11 C33 1_555 1_555
O11 Rb4_2 1_555 1_555
O18 Rb3_3 1_555 1_555
C17 C21 1_555 1_555
C29 C33 1_555 1_555
C30 C34 1_555 1_555
C31 C35 1_555 1_555
C32 C36 1_555 1_555

#END
