
#######################################################################
#
#                 Cambridge Crystallographic Data Centre
#                                CCDC 
#
#######################################################################
#
# If this CIF has been generated from an entry in the Cambridge 
# Structural Database, then it will include bibliographic, chemical, 
# crystal, experimental, refinement or atomic coordinate data resulting 
# from the CCDC's data processing and validation procedures.
#
#######################################################################

data_YAFGAP
_symmetry_cell_setting           tetragonal
_symmetry_space_group_name_H-M   'I 41/a'
_symmetry_Int_Tables_number      88
_space_group_name_Hall           '-I 4ad'
loop_
_symmetry_equiv_pos_site_id
_symmetry_equiv_pos_as_xyz
1 x,y,z
2 1/2-x,-y,1/2+z
3 3/4-y,1/4+x,1/4+z
4 3/4+y,3/4-x,3/4+z
5 1/2+x,1/2+y,1/2+z
6 -x,1/2-y,z
7 1/4-y,3/4+x,3/4+z
8 1/4+y,1/4-x,1/4+z
9 -x,-y,-z
10 1/2+x,y,1/2-z
11 1/4+y,3/4-x,3/4-z
12 1/4-y,1/4+x,1/4-z
13 1/2-x,1/2-y,1/2-z
14 x,1/2+y,-z
15 3/4+y,1/4-x,1/4-z
16 3/4-y,3/4+x,3/4-z
_cell_length_a                   11.3337(16)
_cell_length_b                   11.3337(16)
_cell_length_c                   8.9121(18)
_cell_angle_alpha                90
_cell_angle_beta                 90
_cell_angle_gamma                90
_cell_volume                     1144.78
loop_
_atom_site_label
_atom_site_type_symbol
_atom_site_fract_x
_atom_site_fract_y
_atom_site_fract_z
O1 O 0.3564(3) 0.0435(3) 0.4179(4)
H1 H 0.3981 -0.0060 0.3698
H2 H 0.3356 0.0106 0.4995
O2 O 0.5074(2) 0.36714(18) 0.0938(2)
O3 O 0.5037(2) 0.55246(18) 0.1842(2)
C1 C 0.5028(3) 0.4761(3) 0.0803(3)
K1 K 0.5000 0.2500 0.3750
Lu1 Lu 0.5000 0.2500 -0.1250
O1E O 0.6436(3) 0.4565(3) 0.4179(4)
O1O O 0.7065(3) 0.1064(3) 0.3321(4)
O1J O 0.2935(3) 0.3936(3) 0.3321(4)
H1E H 0.6019 0.5060 0.3698
H1O H 0.7560 0.1481 0.3802
H1J H 0.2440 0.3519 0.3802
H2E H 0.6644 0.4894 0.4995
H2O H 0.7394 0.0856 0.2505
H2J H 0.2606 0.4144 0.2505
O2H O 0.4926(2) 0.63286(18) -0.0938(2)
O2E O 0.4926(2) 0.13286(18) 0.0938(2)
O2M O 0.5074(2) -0.13286(18) -0.0938(2)
O2O O 0.38286(18) 0.2574(2) 0.6562(2)
O2J O 0.61714(18) 0.2426(2) 0.6562(2)
O2O_2 O 0.38286(18) 0.2574(2) -0.3438(2)
O2J_2 O 0.61714(18) 0.2426(2) -0.3438(2)
O3H O 0.4963(2) 0.44754(18) -0.1842(2)
O3E O 0.4963(2) -0.05246(18) 0.1842(2)
O3M O 0.5037(2) 0.05246(18) -0.1842(2)
O3C O 0.30246(18) 0.2463(2) -0.0658(2)
O3F O 0.69754(18) 0.2537(2) -0.0658(2)
C1H C 0.4972(3) 0.5239(3) -0.0803(3)
C1E C 0.4972(3) 0.0239(3) 0.0803(3)
C1M C 0.5028(3) -0.0239(3) -0.0803(3)
K1B K 0.5000 0.7500 -0.3750
K1B_2 K 0.5000 -0.2500 -0.3750
Lu1B Lu 0.5000 0.7500 0.1250
Lu1B_2 Lu 0.5000 -0.2500 0.1250
loop_
_geom_bond_atom_site_label_1
_geom_bond_atom_site_label_2
_geom_bond_site_symmetry_1
_geom_bond_site_symmetry_2
O1 H1 1_555 1_555
H2 O1 1_555 1_555
O2 C1 1_555 1_555
O3 C1 1_555 1_555
C1 C1H 1_555 1_555
K1 O1 1_555 1_555
Lu1 O2 1_555 1_555
O1E K1 1_555 1_555
O1O K1 1_555 1_555
O1J K1 1_555 1_555
H1E O1E 1_555 1_555
H1O O1O 1_555 1_555
H1J O1J 1_555 1_555
H2E O1E 1_555 1_555
H2O O1O 1_555 1_555
H2J O1J 1_555 1_555
O2H C1H 1_555 1_555
O2E K1 1_555 1_555
O2M C1M 1_555 1_555
O2O K1 1_555 1_555
O2J K1 1_555 1_555
O2O_2 Lu1 1_555 1_555
O2J_2 Lu1 1_555 1_555
O3H Lu1 1_555 1_555
O3E C1E 1_555 1_555
O3M Lu1 1_555 1_555
O3C Lu1 1_555 1_555
O3F Lu1 1_555 1_555
C1H O3H 1_555 1_555
C1E O2E 1_555 1_555
C1M O3M 1_555 1_555
K1B O2H 1_555 1_555
K1B_2 O2M 1_555 1_555
Lu1B O3 1_555 1_555
Lu1B_2 O2M 1_555 1_555
O2 K1 1_555 1_555
Lu1 O2E 1_555 1_555
O2H Lu1B 1_555 1_555
O3E Lu1B_2 1_555 1_555
C1E C1M 1_555 1_555

#END
