
#######################################################################
#
#                 Cambridge Crystallographic Data Centre
#                                CCDC 
#
#######################################################################
#
# If this CIF has been generated from an entry in the Cambridge 
# Structural Database, then it will include bibliographic, chemical, 
# crystal, experimental, refinement or atomic coordinate data resulting 
# from the CCDC's data processing and validation procedures.
#
#######################################################################

data_YAFHEU
_symmetry_cell_setting           triclinic
_symmetry_space_group_name_H-M   'P -1'
_symmetry_Int_Tables_number      2
_space_group_name_Hall           '-P 1'
loop_
_symmetry_equiv_pos_site_id
_symmetry_equiv_pos_as_xyz
1 x,y,z
2 -x,-y,-z
_cell_length_a                   9.4626(19)
_cell_length_b                   10.113(2)
_cell_length_c                   11.351(2)
_cell_angle_alpha                98.95(3)
_cell_angle_beta                 92.19(3)
_cell_angle_gamma                116.88(3)
_cell_volume                     949.787
loop_
_atom_site_label
_atom_site_type_symbol
_atom_site_fract_x
_atom_site_fract_y
_atom_site_fract_z
Cd1 Cd 0.16456(3) 0.49799(2) 0.10431(2)
N1 N 0.1884(3) 0.3281(3) -0.0471(3)
N2 N 0.1751(3) -0.3077(3) -0.7491(2)
O1 O 0.1024(3) 0.3142(3) 0.2322(2)
O2 O 0.3550(3) 0.4760(2) 0.2348(2)
O3 O 0.8868(3) 0.3906(3) 0.0535(2)
O4 O 0.6363(3) 0.2894(3) -0.0233(2)
C1 C 0.2978(4) 0.3687(4) -0.1239(3)
H1 H 0.3788 0.4693 -0.1097
C2 C 0.2974(4) 0.2702(4) -0.2224(3)
H2 H 0.3759 0.3039 -0.2745
C3 C 0.1791(4) 0.1192(3) -0.2445(3)
C4 C 0.0700(4) 0.0771(4) -0.1623(3)
H3 H -0.0090 -0.0239 -0.1714
C5 C 0.0775(5) 0.1841(4) -0.0670(3)
H4 H 0.0006 0.1536 -0.0135
C6 C 0.1591(4) 0.0064(4) -0.3510(3)
H5 H 0.0776 -0.0924 -0.3543
C7 C 0.2438(4) 0.0293(4) -0.4427(3)
H6 H 0.3282 0.1267 -0.4391
C8 C 0.2160(4) -0.0861(3) -0.5501(3)
C9 C 0.3390(4) -0.0707(4) -0.6182(3)
H7 H 0.4385 0.0162 -0.5989
C10 C 0.3148(4) -0.1832(4) -0.7145(3)
H8 H 0.4008 -0.1718 -0.7580
C11 C 0.0541(4) -0.3206(4) -0.6863(3)
H9 H -0.0458 -0.4061 -0.7103
C12 C 0.0698(4) -0.2139(4) -0.5878(3)
H10 H -0.0183 -0.2276 -0.5462
C13 C 0.4592(4) 0.2971(3) 0.3492(3)
C14 C 0.5692(4) 0.3628(4) 0.4528(3)
H11 H 0.5405 0.4004 0.5239
C15 C 0.7199(4) 0.3733(4) 0.4519(3)
H12 H 0.7939 0.4199 0.5218
C16 C 0.7619(4) 0.3156(4) 0.3491(3)
H13 H 0.8649 0.3239 0.3490
C17 C 0.6528(4) 0.2449(4) 0.2447(3)
C18 C 0.5032(4) 0.2396(3) 0.2462(3)
H14 H 0.4304 0.1959 0.1757
C19 C 0.2923(4) 0.2811(4) 0.3494(3)
H15 H 0.2798 0.3177 0.4316
H16 H 0.2160 0.1733 0.3279
C20 C 0.2475(4) 0.3636(3) 0.2656(3)
C21 C 0.6985(4) 0.1814(4) 0.1321(3)
H17 H 0.6091 0.0842 0.0934
H18 H 0.7899 0.1645 0.1525
C22 C 0.7419(4) 0.2925(3) 0.0462(3)
Cd1_2 Cd 0.16456(3) -0.50201(2) -0.89569(2)
Cd1A Cd 0.83544(3) 0.50201(2) -0.10431(2)
Cd1_3 Cd 1.16456(3) 0.49799(2) 0.10431(2)
N2_2 N 0.1751(3) 0.6923(3) 0.2509(2)
O3A O 0.1132(3) 0.6094(3) -0.0535(2)
O3_2 O -0.1132(3) 0.3906(3) 0.0535(2)
O4A O 0.3637(3) 0.7106(3) 0.0233(2)
loop_
_geom_bond_atom_site_label_1
_geom_bond_atom_site_label_2
_geom_bond_site_symmetry_1
_geom_bond_site_symmetry_2
Cd1 N1 1_555 1_555
N1 C1 1_555 1_555
N2 C10 1_555 1_555
O1 Cd1 1_555 1_555
O2 Cd1 1_555 1_555
O3 C22 1_555 1_555
O4 C22 1_555 1_555
C1 H1 1_555 1_555
C2 C1 1_555 1_555
H2 C2 1_555 1_555
C3 C2 1_555 1_555
C4 C3 1_555 1_555
H3 C4 1_555 1_555
C5 N1 1_555 1_555
H4 C5 1_555 1_555
C6 C3 1_555 1_555
H5 C6 1_555 1_555
C7 C6 1_555 1_555
H6 C7 1_555 1_555
C8 C7 1_555 1_555
C9 C8 1_555 1_555
H7 C9 1_555 1_555
C10 C9 1_555 1_555
H8 C10 1_555 1_555
C11 N2 1_555 1_555
H9 C11 1_555 1_555
C12 C8 1_555 1_555
H10 C12 1_555 1_555
C13 C14 1_555 1_555
C14 H11 1_555 1_555
C15 C14 1_555 1_555
H12 C15 1_555 1_555
C16 C15 1_555 1_555
H13 C16 1_555 1_555
C17 C16 1_555 1_555
C18 C13 1_555 1_555
H14 C18 1_555 1_555
C19 C13 1_555 1_555
H15 C19 1_555 1_555
H16 C19 1_555 1_555
C20 O1 1_555 1_555
C21 C17 1_555 1_555
H17 C21 1_555 1_555
H18 C21 1_555 1_555
C22 C21 1_555 1_555
Cd1_2 N2 1_555 1_555
Cd1A O3 1_555 1_555
Cd1_3 O3 1_555 1_555
N2_2 Cd1 1_555 1_555
O3A Cd1 1_555 1_555
O3_2 Cd1 1_555 1_555
O4A Cd1 1_555 1_555
O2 C20 1_555 1_555
O4 Cd1A 1_555 1_555
C4 C5 1_555 1_555
C11 C12 1_555 1_555
C17 C18 1_555 1_555
C19 C20 1_555 1_555

#END
