
#######################################################################
#
#                 Cambridge Crystallographic Data Centre
#                                CCDC 
#
#######################################################################
#
# If this CIF has been generated from an entry in the Cambridge 
# Structural Database, then it will include bibliographic, chemical, 
# crystal, experimental, refinement or atomic coordinate data resulting 
# from the CCDC's data processing and validation procedures.
#
#######################################################################

data_YAFMUP
_symmetry_cell_setting           monoclinic
_symmetry_space_group_name_H-M   'P 21/n'
_symmetry_Int_Tables_number      14
_space_group_name_Hall           '-P 2yn'
loop_
_symmetry_equiv_pos_site_id
_symmetry_equiv_pos_as_xyz
1 x,y,z
2 1/2-x,1/2+y,1/2-z
3 -x,-y,-z
4 1/2+x,1/2-y,1/2+z
_cell_length_a                   7.4572(15)
_cell_length_b                   18.297(4)
_cell_length_c                   8.7321(17)
_cell_angle_alpha                90
_cell_angle_beta                 113.60(3)
_cell_angle_gamma                90
_cell_volume                     1091.8
loop_
_atom_site_label
_atom_site_type_symbol
_atom_site_fract_x
_atom_site_fract_y
_atom_site_fract_z
N1 N 0.1415(3) 0.10177(10) 0.0471(3)
C1 C 0.0664(4) 0.16648(14) 0.0733(4)
H1 H -0.0615 0.1733 0.0630
C2 C 0.2054(4) 0.21922(14) 0.1165(4)
H2 H 0.1917 0.2678 0.1415
C3 C 0.3245(3) 0.11623(13) 0.0740(3)
H3 H 0.4118 0.0819 0.0650
N2 N 0.3700(3) 0.18646(11) 0.1160(3)
C4 C 0.5640(4) 0.21996(15) 0.1668(4)
H4 H 0.6545 0.1835 0.1592
H5 H 0.6092 0.2347 0.2829
C5 C 0.5694(4) 0.28506(14) 0.0646(3)
H6 H 0.4725 0.3204 0.0647
H7 H 0.5361 0.2699 -0.0500
Ni1 Ni 1.5000 0.5000 0.5000
Cl1 Cl 1.30895(8) 0.46277(3) 0.66987(8)
N3 N 1.2760(3) 0.45639(10) 0.2843(2)
N4 N 0.9912(3) 0.41380(11) 0.1097(3)
C6 C 1.0969(3) 0.43850(14) 0.2651(3)
H8 H 1.0496 0.4425 0.3485
C7 C 1.2840(4) 0.44240(13) 0.1329(3)
H9 H 1.3929 0.4500 0.1083
C8 C 1.1099(4) 0.41598(13) 0.0245(3)
H10 H 1.0776 0.4021 -0.0859
C9 C 0.7692(4) 0.32062(14) 0.1322(4)
H11 H 0.8052 0.3315 0.2495
H12 H 0.8631 0.2855 0.1253
C10 C 0.7874(4) 0.38856(16) 0.0476(4)
H13 H 0.7393 0.3799 -0.0717
H14 H 0.7072 0.4264 0.0661
N1A N 1.3585(3) 0.60177(10) 0.4529(3)
N1C N 1.6415(3) 0.39823(10) 0.5471(3)
C1A C 1.4336(4) 0.66648(14) 0.4267(4)
H1A H 1.5615 0.6733 0.4370
C2A C 1.2946(4) 0.71922(14) 0.3835(4)
H2A H 1.3083 0.7678 0.3585
C3A C 1.1755(3) 0.61623(13) 0.4260(3)
H3A H 1.0882 0.5819 0.4350
N2A N 1.1300(3) 0.68646(11) 0.3840(3)
C4A C 0.9360(4) 0.71996(15) 0.3332(4)
H4A H 0.8455 0.6835 0.3408
H5A H 0.8908 0.7347 0.2171
C5A C 0.9306(4) 0.78506(14) 0.4354(3)
H6A H 1.0275 0.8204 0.4353
H7A H 0.9639 0.7699 0.5500
Ni1A Ni 0.0000 0.0000 0.0000
Ni1A_2 Ni 0.0000 1.0000 0.0000
Cl1B Cl 1.69105(8) 0.53723(3) 0.33013(8)
N3A N 0.2240(3) 0.95639(10) 0.2157(2)
N3B N 1.7240(3) 0.54361(10) 0.7157(2)
N4A N 0.5088(3) 0.91380(11) 0.3903(3)
C6A C 0.4031(3) 0.93850(14) 0.2349(3)
H8A H 0.4504 0.9425 0.1515
C7A C 0.2160(4) 0.94240(13) 0.3671(3)
H9A H 0.1071 0.9500 0.3917
C8A C 0.3901(4) 0.91598(13) 0.4755(3)
H10A H 0.4224 0.9021 0.5859
C9A C 0.7308(4) 0.82062(14) 0.3678(4)
H11A H 0.6948 0.8315 0.2505
H12A H 0.6369 0.7855 0.3747
C10A C 0.7126(4) 0.88856(16) 0.4524(4)
H13A H 0.7607 0.8799 0.5717
H14A H 0.7928 0.9264 0.4339
loop_
_geom_bond_atom_site_label_1
_geom_bond_atom_site_label_2
_geom_bond_site_symmetry_1
_geom_bond_site_symmetry_2
N1 C1 1_555 1_555
C1 H1 1_555 1_555
C2 C1 1_555 1_555
H2 C2 1_555 1_555
C3 N1 1_555 1_555
H3 C3 1_555 1_555
N2 C2 1_555 1_555
C4 N2 1_555 1_555
H4 C4 1_555 1_555
H5 C4 1_555 1_555
C5 C4 1_555 1_555
H6 C5 1_555 1_555
H7 C5 1_555 1_555
Ni1 Cl1 1_555 1_555
N3 Ni1 1_555 1_555
N4 C6 1_555 1_555
C6 N3 1_555 1_555
H8 C6 1_555 1_555
C7 N3 1_555 1_555
H9 C7 1_555 1_555
C8 N4 1_555 1_555
H10 C8 1_555 1_555
C9 C5 1_555 1_555
H11 C9 1_555 1_555
H12 C9 1_555 1_555
C10 N4 1_555 1_555
H13 C10 1_555 1_555
H14 C10 1_555 1_555
N1A Ni1 1_555 1_555
N1C Ni1 1_555 1_555
C1A N1A 1_555 1_555
H1A C1A 1_555 1_555
C2A C1A 1_555 1_555
H2A C2A 1_555 1_555
C3A N1A 1_555 1_555
H3A C3A 1_555 1_555
N2A C2A 1_555 1_555
C4A N2A 1_555 1_555
H4A C4A 1_555 1_555
H5A C4A 1_555 1_555
C5A C4A 1_555 1_555
H6A C5A 1_555 1_555
H7A C5A 1_555 1_555
Ni1A N1 1_555 1_555
Ni1A_2 N3A 1_555 1_555
Cl1B Ni1 1_555 1_555
N3A C6A 1_555 1_555
N3B Ni1 1_555 1_555
N4A C6A 1_555 1_555
C6A H8A 1_555 1_555
C7A N3A 1_555 1_555
H9A C7A 1_555 1_555
C8A N4A 1_555 1_555
H10A C8A 1_555 1_555
C9A C5A 1_555 1_555
H11A C9A 1_555 1_555
H12A C9A 1_555 1_555
C10A N4A 1_555 1_555
H13A C10A 1_555 1_555
H14A C10A 1_555 1_555
C3 N2 1_555 1_555
C7 C8 1_555 1_555
C9 C10 1_555 1_555
C3A N2A 1_555 1_555
C7A C8A 1_555 1_555
C9A C10A 1_555 1_555

#END
