
#######################################################################
#
#                 Cambridge Crystallographic Data Centre
#                                CCDC 
#
#######################################################################
#
# If this CIF has been generated from an entry in the Cambridge 
# Structural Database, then it will include bibliographic, chemical, 
# crystal, experimental, refinement or atomic coordinate data resulting 
# from the CCDC's data processing and validation procedures.
#
#######################################################################

data_YAFPOM
_symmetry_cell_setting           triclinic
_symmetry_space_group_name_H-M   'P -1'
_symmetry_Int_Tables_number      2
_space_group_name_Hall           '-P 1'
loop_
_symmetry_equiv_pos_site_id
_symmetry_equiv_pos_as_xyz
1 x,y,z
2 -x,-y,-z
_cell_length_a                   8.393(7)
_cell_length_b                   9.843(7)
_cell_length_c                   10.634(7)
_cell_angle_alpha                98.11(3)
_cell_angle_beta                 108.42(3)
_cell_angle_gamma                98.77(3)
_cell_volume                     806.793
loop_
_atom_site_label
_atom_site_type_symbol
_atom_site_fract_x
_atom_site_fract_y
_atom_site_fract_z
O1 O 0.6014(3) 0.7225(3) 0.8857(3)
N5 N 0.4591(3) 0.6495(3) 0.8143(3)
O2 O 0.3562(4) 0.6999(3) 0.7364(3)
O3 O 0.4241(3) 0.5255(2) 0.8242(3)
C1 C 0.3199(3) 0.0680(3) 0.6811(2)
C2 C 0.3261(4) -0.0279(3) 0.5759(3)
H1 H 0.3826 -0.1010 0.5939
C3 C 0.2480(4) -0.0154(4) 0.4432(3)
H2 H 0.2505 -0.0810 0.3722
C4 C 0.1670(4) 0.0941(3) 0.4168(3)
H3 H 0.1166 0.1027 0.3276
C5 C 0.1594(4) 0.1912(3) 0.5202(3)
C6 C 0.2370(3) 0.1769(3) 0.6523(2)
H4 H 0.2331 0.2419 0.7232
C7 C 0.0640(4) 0.3091(4) 0.4925(3)
H5 H -0.0582 0.2696 0.4525
H6 H 0.0840 0.3715 0.5776
C8 C 0.0300(4) 0.3810(3) 0.2698(3)
H7 H -0.0755 0.3206 0.2225
C9 C 0.2586(4) 0.5332(4) 0.3180(3)
H8 H 0.3438 0.6005 0.3103
C10 C 0.2641(4) 0.4879(4) 0.4333(3)
H9 H 0.3512 0.5174 0.5173
C11 C 0.4068(4) 0.0573(3) 0.8265(3)
H10 H 0.3511 0.1026 0.8827
H11 H 0.3933 -0.0409 0.8329
C12 C 0.6573(4) 0.2604(3) 0.9098(3)
H12 H 0.5922 0.3292 0.9070
C13 C 0.8680(4) 0.1583(3) 0.9358(3)
H13 H 0.9792 0.1431 0.9551
C14 C 0.7247(4) 0.0567(3) 0.8936(3)
H14 H 0.7188 -0.0397 0.8784
N1 N 0.5897(3) 0.1223(2) 0.87739(19)
N2 N 0.8254(3) 0.2879(2) 0.9461(2)
N3 N 0.1169(3) 0.3907(3) 0.4016(2)
N4 N 0.1113(3) 0.4668(2) 0.2149(2)
O4 O 1.1944(3) 0.4066(2) 0.9405(2)
H15 H 1.2271 0.3372 0.9727
H16 H 1.2602 0.4783 0.9347
Mn1 Mn 1.0000 0.5000 1.0000
C1A C 1.6801(3) 0.9320(3) 1.3189(2)
C2A C 1.6739(4) 1.0279(3) 1.4241(3)
H1A H 1.6174 1.1010 1.4061
C3A C 1.7520(4) 1.0154(4) 1.5568(3)
H2A H 1.7495 1.0810 1.6278
C4A C 1.8330(4) 0.9059(3) 1.5832(3)
H3A H 1.8834 0.8973 1.6724
C5A C 1.8406(4) 0.8088(3) 1.4798(3)
C6A C 1.7630(3) 0.8231(3) 1.3477(2)
H4A H 1.7669 0.7581 1.2768
C7A C 1.9360(4) 0.6909(4) 1.5075(3)
H5A H 2.0582 0.7304 1.5475
H6A H 1.9160 0.6285 1.4224
C8A C 1.9700(4) 0.6190(3) 1.7302(3)
H7A H 2.0755 0.6794 1.7775
C9A C 1.7414(4) 0.4668(4) 1.6820(3)
H8A H 1.6562 0.3995 1.6897
C10A C 1.7359(4) 0.5121(4) 1.5667(3)
H9A H 1.6488 0.4826 1.4827
C11A C 1.5932(4) 0.9427(3) 1.1735(3)
H10A H 1.6489 0.8974 1.1173
H11A H 1.6067 1.0409 1.1671
C12A C 1.3427(4) 0.7396(3) 1.0902(3)
H12A H 1.4078 0.6708 1.0930
C13A C 1.1320(4) 0.8417(3) 1.0642(3)
H13A H 1.0208 0.8569 1.0449
C14A C 1.2753(4) 0.9433(3) 1.1064(3)
H14A H 1.2812 1.0397 1.1216
N1A N 1.4103(3) 0.8777(2) 1.12261(19)
N2A N 1.1746(3) 0.7121(2) 1.0539(2)
N3A N 1.8831(3) 0.6093(3) 1.5984(2)
N4A N 1.8887(3) 0.5332(2) 1.7851(2)
N4A_2 N 0.8887(3) 0.5332(2) 0.7851(2)
N4_2 N 1.1113(3) 0.4668(2) 1.2149(2)
O4A O 0.8056(3) 0.5934(2) 1.0595(2)
H15A H 0.7729 0.6628 1.0273
H16A H 0.7398 0.5217 1.0653
Mn1_2 Mn 0.0000 0.5000 0.0000
Mn1_3 Mn 2.0000 0.5000 2.0000
loop_
_geom_bond_atom_site_label_1
_geom_bond_atom_site_label_2
_geom_bond_site_symmetry_1
_geom_bond_site_symmetry_2
O1 N5 1_555 1_555
C1 C2 1_555 1_555
C2 H1 1_555 1_555
C3 C2 1_555 1_555
H2 C3 1_555 1_555
C4 C3 1_555 1_555
H3 C4 1_555 1_555
C5 C4 1_555 1_555
C6 C1 1_555 1_555
H4 C6 1_555 1_555
C7 C5 1_555 1_555
H5 C7 1_555 1_555
H6 C7 1_555 1_555
C8 H7 1_555 1_555
C9 H8 1_555 1_555
C10 C9 1_555 1_555
H9 C10 1_555 1_555
C11 C1 1_555 1_555
H10 C11 1_555 1_555
H11 C11 1_555 1_555
C12 H12 1_555 1_555
C13 H13 1_555 1_555
C14 C13 1_555 1_555
H14 C14 1_555 1_555
N1 C11 1_555 1_555
N2 C12 1_555 1_555
N3 C7 1_555 1_555
N4 C8 1_555 1_555
N5 O2 1_555 1_555
O3 N5 1_555 1_555
O4 H15 1_555 1_555
H16 O4 1_555 1_555
Mn1 N2 1_555 1_555
C1A C2A 1_555 1_555
C2A H1A 1_555 1_555
C3A C2A 1_555 1_555
H2A C3A 1_555 1_555
C4A C3A 1_555 1_555
H3A C4A 1_555 1_555
C5A C4A 1_555 1_555
C6A C1A 1_555 1_555
H4A C6A 1_555 1_555
C7A C5A 1_555 1_555
H5A C7A 1_555 1_555
H6A C7A 1_555 1_555
C8A H7A 1_555 1_555
C9A H8A 1_555 1_555
C10A C9A 1_555 1_555
H9A C10A 1_555 1_555
C11A C1A 1_555 1_555
H10A C11A 1_555 1_555
H11A C11A 1_555 1_555
C12A H12A 1_555 1_555
C13A H13A 1_555 1_555
C14A C13A 1_555 1_555
H14A C14A 1_555 1_555
N1A C11A 1_555 1_555
N2A Mn1 1_555 1_555
N3A C7A 1_555 1_555
N4A C8A 1_555 1_555
N4A_2 Mn1 1_555 1_555
N4_2 Mn1 1_555 1_555
O4A Mn1 1_555 1_555
H15A O4A 1_555 1_555
H16A O4A 1_555 1_555
Mn1_2 N4 1_555 1_555
Mn1_3 N4A 1_555 1_555
C5 C6 1_555 1_555
C8 N3 1_555 1_555
C9 N4 1_555 1_555
C10 N3 1_555 1_555
C12 N1 1_555 1_555
C13 N2 1_555 1_555
C14 N1 1_555 1_555
O4 Mn1 1_555 1_555
C5A C6A 1_555 1_555
C8A N3A 1_555 1_555
C9A N4A 1_555 1_555
C10A N3A 1_555 1_555
C12A N1A 1_555 1_555
C12A N2A 1_555 1_555
C13A N2A 1_555 1_555
C14A N1A 1_555 1_555

#END
