
#######################################################################
#
#                 Cambridge Crystallographic Data Centre
#                                CCDC 
#
#######################################################################
#
# If this CIF has been generated from an entry in the Cambridge 
# Structural Database, then it will include bibliographic, chemical, 
# crystal, experimental, refinement or atomic coordinate data resulting 
# from the CCDC's data processing and validation procedures.
#
#######################################################################

data_YAFQED
_symmetry_cell_setting           orthorhombic
_symmetry_space_group_name_H-M   'P b c a'
_symmetry_Int_Tables_number      61
_space_group_name_Hall           '-P 2ac 2ab'
loop_
_symmetry_equiv_pos_site_id
_symmetry_equiv_pos_as_xyz
1 x,y,z
2 1/2-x,-y,1/2+z
3 -x,1/2+y,1/2-z
4 1/2+x,1/2-y,-z
5 -x,-y,-z
6 1/2+x,y,1/2-z
7 x,1/2-y,1/2+z
8 1/2-x,1/2+y,z
_cell_length_a                   10.0207(2)
_cell_length_b                   15.6475(2)
_cell_length_c                   20.3837(4)
_cell_angle_alpha                90
_cell_angle_beta                 90
_cell_angle_gamma                90
_cell_volume                     3196.14
loop_
_atom_site_label
_atom_site_type_symbol
_atom_site_fract_x
_atom_site_fract_y
_atom_site_fract_z
Co1 Co 0.09689(3) 0.387117(14) 0.083088(13)
Na1 Na 0.10783(9) 0.03940(5) 0.21505(4)
C1 C 0.1871(2) 0.38312(11) -0.04223(10)
C2 C 0.0531(2) 0.33752(11) -0.04526(9)
H1 H 0.0712 0.2749 -0.0414
C3 C -0.1234(2) 0.29948(11) 0.03843(10)
H2 H -0.0830 0.2418 0.0400
H3 H -0.2034 0.2975 0.0099
C4 C -0.1601(2) 0.32957(12) 0.10675(10)
H4 H -0.2192 0.3801 0.1038
H5 H -0.2088 0.2838 0.1302
C5 C 0.0280(2) 0.28136(11) 0.18052(10)
H6 H -0.0412 0.2455 0.2027
C6 C 0.1054(2) 0.22824(12) 0.13122(10)
C7 C 0.1248(2) 0.31881(11) 0.23126(10)
H7 H 0.0714 0.3483 0.2653
H8 H 0.1714 0.2707 0.2529
C8 C 0.2302(2) 0.38128(11) 0.20641(10)
C9 C -0.0287(2) 0.44555(11) -0.13005(10)
C10 C -0.0175(2) 0.35180(11) -0.11074(10)
H9 H -0.1083 0.3271 -0.1082
H10 H 0.0317 0.3208 -0.1455
N1 N -0.02558(17) 0.36314(9) 0.01328(8)
H11 H -0.065(2) 0.4093(12) 0.0043(10)
N2 N -0.03629(17) 0.35219(10) 0.14370(8)
H12 H -0.057(2) 0.3904(12) 0.1691(11)
O1 O 0.22354(14) 0.41008(8) 0.01494(6)
O2 O 0.25654(16) 0.39053(8) -0.09163(7)
O3 O 0.15026(14) 0.27071(7) 0.08149(6)
O4 O 0.12621(15) 0.15144(8) 0.14003(7)
O5 O 0.22710(14) 0.41130(8) 0.14795(7)
O6 O 0.31703(15) 0.40383(8) 0.24573(7)
O7 O -0.04285(14) 0.49612(7) -0.08043(6)
O8 O -0.02390(15) 0.46712(8) -0.18835(7)
O9 O -0.06412(18) -0.00889(10) 0.15130(8)
H13 H -0.037(3) -0.0529(15) 0.1319(11)
H14 H -0.105(3) 0.0215(16) 0.1272(14)
O10 O 0.27308(18) 0.12299(10) 0.26905(8)
H15 H 0.338(3) 0.0949(15) 0.2558(12)
H16 H 0.271(3) 0.1165(15) 0.3088(13)
Co1D Co -0.09689(3) 0.612883(14) -0.083088(13)
Na1G Na 0.39217(9) 0.53940(5) 0.21505(4)
Na1F Na 0.10783(9) 0.46060(5) -0.28495(4)
O6G O 0.18297(15) -0.09617(8) 0.24573(7)
O7D O 0.04285(14) 0.50388(7) 0.08043(6)
O8F O -0.02390(15) 0.03288(8) 0.31165(7)
O11 O 0.49078(18) 0.36011(9) 0.06961(9)
H17 H 0.415(3) 0.3726(17) 0.0657(14)
H18 H 0.539(3) 0.3836(15) 0.0329(11)
O12 O 0.33610(19) 0.57331(10) 0.01853(8)
H19 H 0.320(3) 0.5253(16) 0.0228(13)
H20 H 0.348(3) 0.5872(17) 0.0539(14)
loop_
_geom_bond_atom_site_label_1
_geom_bond_atom_site_label_2
_geom_bond_site_symmetry_1
_geom_bond_site_symmetry_2
Co1 N1 1_555 1_555
Na1 O4 1_555 1_555
C1 C2 1_555 1_555
C2 H1 1_555 1_555
C3 H2 1_555 1_555
H3 C3 1_555 1_555
C4 C3 1_555 1_555
H4 C4 1_555 1_555
H5 C4 1_555 1_555
C5 H6 1_555 1_555
C6 C5 1_555 1_555
C7 C5 1_555 1_555
H7 C7 1_555 1_555
H8 C7 1_555 1_555
C8 C7 1_555 1_555
C9 C10 1_555 1_555
C10 C2 1_555 1_555
H9 C10 1_555 1_555
H10 C10 1_555 1_555
N1 C2 1_555 1_555
H11 N1 1_555 1_555
N2 Co1 1_555 1_555
H12 N2 1_555 1_555
O1 Co1 1_555 1_555
O2 C1 1_555 1_555
O3 Co1 1_555 1_555
O4 C6 1_555 1_555
O5 Co1 1_555 1_555
O6 C8 1_555 1_555
O7 C9 1_555 1_555
O8 C9 1_555 1_555
O9 Na1 1_555 1_555
H13 O9 1_555 1_555
H14 O9 1_555 1_555
O10 Na1 1_555 1_555
H15 O10 1_555 1_555
H16 O10 1_555 1_555
O11 H17 1_555 1_555
H18 O11 1_555 1_555
O12 H19 1_555 1_555
H20 O12 1_555 1_555
Co1D O7 1_555 1_555
Na1G O6 1_555 1_555
Na1F O8 1_555 1_555
O6G Na1 1_555 1_555
O7D Co1 1_555 1_555
O8F Na1 1_555 1_555
C1 O1 1_555 1_555
C3 N1 1_555 1_555
C4 N2 1_555 1_555
C5 N2 1_555 1_555
C6 O3 1_555 1_555
C8 O5 1_555 1_555

#END
