
#######################################################################
#
#                 Cambridge Crystallographic Data Centre
#                                CCDC 
#
#######################################################################
#
# If this CIF has been generated from an entry in the Cambridge 
# Structural Database, then it will include bibliographic, chemical, 
# crystal, experimental, refinement or atomic coordinate data resulting 
# from the CCDC's data processing and validation procedures.
#
#######################################################################

data_YAFRAY
_symmetry_cell_setting           monoclinic
_symmetry_space_group_name_H-M   'C 2/c'
_symmetry_Int_Tables_number      15
_space_group_name_Hall           '-C 2yn'
loop_
_symmetry_equiv_pos_site_id
_symmetry_equiv_pos_as_xyz
1 x,y,z
2 1/2+x,1/2+y,z
3 -x,y,1/2-z
4 1/2-x,1/2+y,1/2-z
5 -x,-y,-z
6 1/2-x,1/2-y,-z
7 x,-y,1/2+z
8 1/2+x,1/2-y,1/2+z
_cell_length_a                   26.889(4)
_cell_length_b                   11.077(3)
_cell_length_c                   18.936(2)
_cell_angle_alpha                90
_cell_angle_beta                 134.07(1)
_cell_angle_gamma                90
_cell_volume                     4052.34
loop_
_atom_site_label
_atom_site_type_symbol
_atom_site_fract_x
_atom_site_fract_y
_atom_site_fract_z
Cu1 Cu 0.61030(3) 0.61650(4) 0.32020(4)
Cu2 Cu 0.75000 0.75000 0.50000
Cu3 Cu 0.66920(3) 0.90310(4) 0.31530(4)
O1 O 0.6516(1) 0.7793(2) 0.3705(2)
O2 O 0.6335(2) 0.8075(3) 0.2036(2)
O3 O 0.5781(2) 0.6454(3) 0.1920(2)
C1 C 0.5911(2) 0.7213(4) 0.1571(3)
C2 C 0.5520(3) 0.7092(6) 0.0502(4)
O4 O 0.7460(2) 0.5909(3) 0.4489(2)
O5 O 0.6936(2) 1.0191(3) 0.4134(2)
C3 C 0.7737(2) 0.4944(4) 0.4973(3)
C4 C 0.7677(3) 0.3825(5) 0.4446(4)
O6 O 0.6212(2) 0.5816(3) 0.4321(2)
O7 O 0.7897(2) 0.8163(3) 0.4334(2)
C5 C 0.6552(2) 0.6236(4) 0.5167(3)
C6 C 0.6260(3) 0.5981(6) 0.5610(5)
O8 O 0.5000 0.6973(5) 0.2500
N1 N 0.5904(2) 0.4427(3) 0.2855(3)
C7 C 0.5893(3) 0.3562(5) 0.3324(4)
N2 N 0.5809(3) 0.2477(4) 0.2932(3)
C8 C 0.5758(3) 0.2666(5) 0.2172(4)
C9 C 0.5822(3) 0.3846(4) 0.2126(4)
N3 N 0.6920(2) 1.0259(3) 0.2661(3)
C10 C 0.6712(4) 1.0304(5) 0.1789(4)
N4 N 0.7038(3) 1.1238(4) 0.1780(4)
C11 C 0.7448(3) 1.1790(5) 0.2636(5)
C12 C 0.7387(3) 1.1214(5) 0.3210(4)
Cu3E Cu 0.83080(3) 0.59690(4) 0.68470(4)
O1E O 0.8484(1) 0.7207(2) 0.6295(2)
O4E O 0.7540(2) 0.9091(3) 0.5511(2)
O7E O 0.7103(2) 0.6837(3) 0.5666(2)
Cu1E Cu 0.88970(3) 0.88350(4) 0.67980(4)
C3E C 0.7263(2) 1.0056(4) 0.5027(3)
O5E O 0.8064(2) 0.4809(3) 0.5866(2)
C5E C 0.8448(2) 0.8764(4) 0.4833(3)
Cu1B Cu 0.38970(3) 0.61650(4) 0.17980(4)
C4E C 0.7323(3) 1.1175(5) 0.5554(4)
O6E O 0.8788(2) 0.9184(3) 0.5679(2)
C6E C 0.8740(3) 0.9019(6) 0.4390(5)
O2E O 0.8665(2) 0.6925(3) 0.7964(2)
N3E N 0.8080(2) 0.4741(3) 0.7339(3)
O3E O 0.9219(2) 0.8546(3) 0.8080(2)
O8E O 1.0000 0.8027(5) 0.7500
N1E N 0.9096(2) 1.0573(3) 0.7145(3)
C1E C 0.9089(2) 0.7787(4) 0.8429(3)
C10E C 0.8288(4) 0.4696(5) 0.8211(4)
C12E C 0.7613(3) 0.3786(5) 0.6790(4)
C7E C 0.9107(3) 1.1438(5) 0.6676(4)
C9E C 0.9178(3) 1.1154(4) 0.7874(4)
C2E C 0.9480(3) 0.7908(6) 0.9498(4)
N4E N 0.7962(3) 0.3762(4) 0.8220(4)
C11E C 0.7552(3) 0.3210(5) 0.7364(5)
N2E N 0.9191(3) 1.2523(4) 0.7068(3)
C8E C 0.9242(3) 1.2334(5) 0.7828(4)
Cl1 Cl 0.4694(1) 0.0246(1) 0.6111(1)
O9 O 0.4267(3) 0.1257(4) 0.5860(4)
O10 O 0.5350(2) 0.0381(5) 0.7115(3)
O11 O 0.4374(3) -0.0819(4) 0.6051(4)
O12 O 0.4797(3) 0.0152(5) 0.5474(3)
loop_
_geom_bond_atom_site_label_1
_geom_bond_atom_site_label_2
_geom_bond_site_symmetry_1
_geom_bond_site_symmetry_2
Cu1 O1 1_555 1_555
Cu2 O1 1_555 1_555
Cu3 O1 1_555 1_555
O2 Cu3 1_555 1_555
O3 Cu1 1_555 1_555
C1 O2 1_555 1_555
C2 C1 1_555 1_555
O4 Cu2 1_555 1_555
O5 Cu3 1_555 1_555
C3 O4 1_555 1_555
C4 C3 1_555 1_555
O6 Cu1 1_555 1_555
O7 Cu2 1_555 1_555
C5 O6 1_555 1_555
C6 C5 1_555 1_555
O8 Cu1 1_555 1_555
N1 Cu1 1_555 1_555
C7 N1 1_555 1_555
N2 C7 1_555 1_555
C8 N2 1_555 1_555
C9 N1 1_555 1_555
N3 Cu3 1_555 1_555
C10 N3 1_555 1_555
N4 C10 1_555 1_555
C11 N4 1_555 1_555
C12 N3 1_555 1_555
Cl1 O9 1_555 1_555
O10 Cl1 1_555 1_555
O11 Cl1 1_555 1_555
O12 Cl1 1_555 1_555
Cu3E O1E 1_555 1_555
O1E Cu2 1_555 1_555
O4E Cu2 1_555 1_555
O7E Cu2 1_555 1_555
Cu1E O1E 1_555 1_555
C3E O5 1_555 1_555
O5E C3 1_555 1_555
C5E O7 1_555 1_555
Cu1B O8 1_555 1_555
C4E C3E 1_555 1_555
O6E Cu1E 1_555 1_555
C6E C5E 1_555 1_555
O2E Cu3E 1_555 1_555
N3E Cu3E 1_555 1_555
O3E Cu1E 1_555 1_555
O8E Cu1E 1_555 1_555
N1E Cu1E 1_555 1_555
C1E O2E 1_555 1_555
C10E N3E 1_555 1_555
C12E N3E 1_555 1_555
C7E N1E 1_555 1_555
C9E N1E 1_555 1_555
C2E C1E 1_555 1_555
N4E C10E 1_555 1_555
C11E C12E 1_555 1_555
N2E C7E 1_555 1_555
C8E C9E 1_555 1_555
O3 C1 1_555 1_555
C5 O7E 1_555 1_555
C8 C9 1_555 1_555
C11 C12 1_555 1_555
Cu3E O5E 1_555 1_555
O4E C3E 1_555 1_555
C5E O6E 1_555 1_555
O3E C1E 1_555 1_555
N4E C11E 1_555 1_555
N2E C8E 1_555 1_555

#END
