
#######################################################################
#
#                 Cambridge Crystallographic Data Centre
#                                CCDC 
#
#######################################################################
#
# If this CIF has been generated from an entry in the Cambridge 
# Structural Database, then it will include bibliographic, chemical, 
# crystal, experimental, refinement or atomic coordinate data resulting 
# from the CCDC's data processing and validation procedures.
#
#######################################################################

data_YAFRED
_symmetry_cell_setting           monoclinic
_symmetry_space_group_name_H-M   'C 2/c'
_symmetry_Int_Tables_number      15
_space_group_name_Hall           '-C 2yn'
loop_
_symmetry_equiv_pos_site_id
_symmetry_equiv_pos_as_xyz
1 x,y,z
2 x,-y,1/2+z
3 1/2+x,1/2+y,z
4 1/2+x,1/2-y,1/2+z
5 -x,-y,-z
6 -x,y,1/2-z
7 1/2-x,1/2-y,-z
8 1/2-x,1/2+y,1/2-z
_cell_length_a                   12.5672(13)
_cell_length_b                   7.6555(8)
_cell_length_c                   11.1439(12)
_cell_angle_alpha                90
_cell_angle_beta                 120.923(2)
_cell_angle_gamma                90
_cell_volume                     919.74
loop_
_atom_site_label
_atom_site_type_symbol
_atom_site_fract_x
_atom_site_fract_y
_atom_site_fract_z
C1 C 0.6566(3) 0.5313(4) 1.0973(3)
C2 C 0.5566(3) 0.9940(5) 0.8679(4)
H1 H 0.5973 0.9350 0.9529
C3 C 0.5569(3) 1.1739(5) 0.8680(3)
H2 H 0.5982 1.2324 0.9531
Cd1 Cd 0.5000 0.58816(4) 0.7500
N1 N 0.6178(3) 0.5997(3) 0.9906(3)
N2 N 0.5000 0.9020(4) 0.7500
N3 N 0.5000 1.2671(5) 0.7500
S1 S 0.71242(8) 0.42845(12) 1.24687(10)
C3E C 0.4431(3) 1.1739(5) 0.6320(3)
C2E C 0.4434(3) 0.9940(5) 0.6321(4)
H1E H 0.4027 0.9350 0.5471
H2E H 0.4018 1.2324 0.5469
C1E C 0.3434(3) 0.5313(4) 0.4027(3)
N1E N 0.3822(3) 0.5997(3) 0.5094(3)
S1E S 0.28758(8) 0.42845(12) 0.25313(10)
N3_2 N 0.5000 0.2671(5) 0.7500
S1A S 0.71242(8) 0.57155(12) 0.74687(10)
S1D S 0.28758(8) 0.57155(12) 0.75313(10)
Cd1_2 Cd 0.5000 1.58816(4) 0.7500
Cd1A Cd 0.5000 0.41184(4) 1.2500
Cd1A_2 Cd 0.5000 0.41184(4) 0.2500
loop_
_geom_bond_atom_site_label_1
_geom_bond_atom_site_label_2
_geom_bond_site_symmetry_1
_geom_bond_site_symmetry_2
C1 N1 1_555 1_555
C2 H1 1_555 1_555
C3 C2 1_555 1_555
H2 C3 1_555 1_555
Cd1 N1 1_555 1_555
N2 C2 1_555 1_555
N3 C3 1_555 1_555
S1 C1 1_555 1_555
C3E N3 1_555 1_555
C2E N2 1_555 1_555
H1E C2E 1_555 1_555
H2E C3E 1_555 1_555
C1E N1E 1_555 1_555
N1E Cd1 1_555 1_555
S1E C1E 1_555 1_555
N3_2 Cd1 1_555 1_555
S1A Cd1 1_555 1_555
S1D Cd1 1_555 1_555
Cd1_2 N3 1_555 1_555
Cd1A S1 1_555 1_555
Cd1A_2 S1E 1_555 1_555
Cd1 N2 1_555 1_555
C3E C2E 1_555 1_555

#END
