
#######################################################################
#
#                 Cambridge Crystallographic Data Centre
#                                CCDC 
#
#######################################################################
#
# If this CIF has been generated from an entry in the Cambridge 
# Structural Database, then it will include bibliographic, chemical, 
# crystal, experimental, refinement or atomic coordinate data resulting 
# from the CCDC's data processing and validation procedures.
#
#######################################################################

data_YAFVOR
_symmetry_cell_setting           monoclinic
_symmetry_space_group_name_H-M   'P 21/c'
_symmetry_Int_Tables_number      14
_space_group_name_Hall           '-P 2ybc'
loop_
_symmetry_equiv_pos_site_id
_symmetry_equiv_pos_as_xyz
1 x,y,z
2 x,1/2-y,1/2+z
3 -x,-y,-z
4 -x,1/2+y,1/2-z
_cell_length_a                   7.2444(14)
_cell_length_b                   16.089(3)
_cell_length_c                   18.276(4)
_cell_angle_alpha                90
_cell_angle_beta                 98.85(3)
_cell_angle_gamma                90
_cell_volume                     2104.8
loop_
_atom_site_label
_atom_site_type_symbol
_atom_site_fract_x
_atom_site_fract_y
_atom_site_fract_z
Cu1 Cu 0.70968(3) 0.360518(14) 0.827204(11)
N1 N 0.7638(2) 0.48258(10) 0.83549(9)
N2 N 0.7233(2) 0.37280(9) 0.93875(8)
O1 O 0.58978(19) 0.37151(9) 0.72349(7)
O2 O 0.3317(2) 0.39150(12) 0.77239(8)
O3 O 0.1175(2) 0.37726(11) 0.64064(8)
O4 O -0.38531(19) 0.41524(9) 0.38212(8)
O5 O -0.34246(19) 0.25780(8) 0.33416(7)
O6 O -0.2045(2) 0.30348(10) 0.23979(8)
O7 O 0.9935(2) 0.32991(12) 0.79481(9)
C1 C 0.7918(3) 0.53524(14) 0.78219(13)
C2 C 0.8216(3) 0.61969(15) 0.79547(16)
C3 C 0.8209(3) 0.65029(14) 0.86487(17)
C4 C 0.7913(3) 0.59701(13) 0.92316(14)
C5 C 0.7860(3) 0.62154(15) 0.99824(16)
C6 C 0.7598(3) 0.56604(16) 1.05071(14)
C7 C 0.7386(3) 0.47906(14) 1.03394(11)
C8 C 0.7184(3) 0.41625(16) 1.08581(11)
C9 C 0.7026(3) 0.33555(16) 1.06383(11)
C10 C 0.7049(3) 0.31540(14) 0.98960(11)
C11 C 0.7408(2) 0.45309(12) 0.96072(10)
C12 C 0.7649(2) 0.51303(12) 0.90485(11)
C13 C 0.4149(3) 0.38051(12) 0.71915(10)
C14 C 0.3119(3) 0.37828(12) 0.64042(10)
C15 C 0.0030(3) 0.38574(13) 0.57315(11)
C16 C -0.1855(3) 0.39939(14) 0.57599(11)
C17 C -0.3093(3) 0.40916(13) 0.51155(12)
C18 C -0.2486(3) 0.40438(11) 0.44315(11)
C19 C -0.0629(3) 0.38923(13) 0.44018(10)
C20 C 0.0636(3) 0.37978(13) 0.50523(11)
C21 C -0.3302(3) 0.40348(13) 0.31170(11)
C22 C -0.2878(3) 0.31412(12) 0.29309(10)
H1 H 0.7913 0.5150 0.7345
H2 H 0.8420 0.6550 0.7572
H3 H 0.8401 0.7068 0.8739
H4 H 0.8010 0.6774 1.0110
H5 H 0.7554 0.5843 1.0987
H6 H 0.7159 0.4300 1.1351
H7 H 0.6903 0.2939 1.0980
H8 H 0.6931 0.2600 0.9752
H9 H 0.3450 0.4267 0.6136
H10 H 0.3483 0.3291 0.6155
H11 H -0.2277 0.4019 0.6215
H12 H -0.4348 0.4191 0.5138
H13 H -0.0216 0.3853 0.3946
H14 H 0.1889 0.3695 0.5030
H15 H -0.2199 0.4369 0.3092
H16 H -0.4289 0.4241 0.2741
H17 H 0.949(4) 0.2927(13) 0.7642(12)
H18 H 1.068(3) 0.3602(14) 0.7751(14)
O5A O 0.65754(19) 0.24220(8) 0.83416(7)
Cu1A Cu -0.29032(3) 0.139482(14) 0.327204(11)
O8 O 0.2826(3) 0.21690(13) 0.88278(12)
H19 H 0.214(4) 0.251(2) 0.8543(18)
H20 H 0.393(2) 0.220(2) 0.8728(19)
loop_
_geom_bond_atom_site_label_1
_geom_bond_atom_site_label_2
_geom_bond_site_symmetry_1
_geom_bond_site_symmetry_2
Cu1 N1 1_555 1_555
N1 C1 1_555 1_555
N2 Cu1 1_555 1_555
O1 Cu1 1_555 1_555
O2 Cu1 1_555 1_555
O3 C14 1_555 1_555
O4 C18 1_555 1_555
O5 C22 1_555 1_555
O6 C22 1_555 1_555
O7 Cu1 1_555 1_555
O8 H19 1_555 1_555
C1 C2 1_555 1_555
C2 C3 1_555 1_555
C3 C4 1_555 1_555
C4 C5 1_555 1_555
C5 C6 1_555 1_555
C6 C7 1_555 1_555
C7 C8 1_555 1_555
C8 C9 1_555 1_555
C9 C10 1_555 1_555
C10 N2 1_555 1_555
C11 N2 1_555 1_555
C12 N1 1_555 1_555
C13 O1 1_555 1_555
C14 C13 1_555 1_555
C15 O3 1_555 1_555
C16 C15 1_555 1_555
C17 C16 1_555 1_555
C18 C17 1_555 1_555
C19 C18 1_555 1_555
C20 C15 1_555 1_555
C21 O4 1_555 1_555
C22 C21 1_555 1_555
H1 C1 1_555 1_555
H2 C2 1_555 1_555
H3 C3 1_555 1_555
H4 C5 1_555 1_555
H5 C6 1_555 1_555
H6 C8 1_555 1_555
H7 C9 1_555 1_555
H8 C10 1_555 1_555
H9 C14 1_555 1_555
H10 C14 1_555 1_555
H11 C16 1_555 1_555
H12 C17 1_555 1_555
H13 C19 1_555 1_555
H14 C20 1_555 1_555
H15 C21 1_555 1_555
H16 C21 1_555 1_555
H17 O7 1_555 1_555
H18 O7 1_555 1_555
H20 O8 1_555 1_555
O5A Cu1 1_555 1_555
Cu1A O5 1_555 1_555
O2 C13 1_555 1_555
C4 C12 1_555 1_555
C7 C11 1_555 1_555
C11 C12 1_555 1_555
C19 C20 1_555 1_555

#END
