
#######################################################################
#
#                 Cambridge Crystallographic Data Centre
#                                CCDC 
#
#######################################################################
#
# If this CIF has been generated from an entry in the Cambridge 
# Structural Database, then it will include bibliographic, chemical, 
# crystal, experimental, refinement or atomic coordinate data resulting 
# from the CCDC's data processing and validation procedures.
#
#######################################################################

data_YAFWEI
_symmetry_cell_setting           orthorhombic
_symmetry_space_group_name_H-M   'P n a 21'
_symmetry_Int_Tables_number      33
_space_group_name_Hall           'P 2c -2n'
loop_
_symmetry_equiv_pos_site_id
_symmetry_equiv_pos_as_xyz
1 x,y,z
2 -x,-y,1/2+z
3 1/2-x,1/2+y,1/2+z
4 1/2+x,1/2-y,z
_cell_length_a                   13.2980(10)
_cell_length_b                   19.333(3)
_cell_length_c                   5.3590(5)
_cell_angle_alpha                90
_cell_angle_beta                 90
_cell_angle_gamma                90
_cell_volume                     1377.75
loop_
_atom_site_label
_atom_site_type_symbol
_atom_site_fract_x
_atom_site_fract_y
_atom_site_fract_z
Ba1 Ba 0.509810(10) 0.636450(10) 0.50000(10)
S1 S 0.35105(6) 0.48057(4) 0.4981(3)
S2 S -0.14840(6) 0.25451(5) 0.4868(3)
O1 O 0.3408(2) 0.55279(16) 0.5698(6)
O2 O 0.3666(2) 0.43536(17) 0.7105(7)
O3 O 0.4273(2) 0.47256(18) 0.3039(6)
O4 O -0.1040(3) 0.23244(18) 0.7197(6)
O5 O -0.1474(3) 0.20175(17) 0.2975(7)
O6 O -0.2494(2) 0.28260(19) 0.5242(12)
O7 O 0.3548(2) 0.73449(17) 0.4908(11)
O8 O 0.4153(2) 0.62978(15) 0.0138(12)
C1 C 0.1766(3) 0.40608(19) 0.4706(12)
C2 C 0.2349(3) 0.4560(2) 0.3640(8)
C3 C 0.2040(3) 0.4891(2) 0.1422(8)
C4 C 0.1144(3) 0.4725(2) 0.0369(9)
C5 C 0.0509(3) 0.4218(2) 0.1451(8)
C6 C 0.0823(3) 0.3881(2) 0.3647(8)
C7 C 0.0191(3) 0.3369(2) 0.4746(15)
C8 C -0.0724(3) 0.3218(2) 0.3673(8)
C9 C -0.1062(3) 0.3568(2) 0.1519(9)
C10 C -0.0451(3) 0.4050(2) 0.0415(9)
H1 H 0.312(3) 0.738(2) 0.374(5)
H2 H 0.336(3) 0.758(2) 0.616(4)
H3 H 0.359(2) 0.651(2) 0.014(9)
H4 H 0.407(3) 0.5884(8) -0.032(9)
H5 H 0.1987 0.3836 0.6139
H6 H 0.2450 0.5222 0.0682
H7 H 0.0943 0.4948 -0.1086
H8 H 0.0396 0.3138 0.6181
H9 H -0.1693 0.3472 0.0855
H10 H -0.0665 0.4272 -0.1032
O2A O 0.6334(2) 0.56464(17) 0.2105(7)
O3A O 0.5727(2) 0.52744(18) 0.8039(6)
O4B O 0.6040(3) 0.73244(18) 0.2197(6)
O5B O 0.6474(3) 0.70175(17) 0.7975(7)
O8_2 O 0.4153(2) 0.62978(15) 1.0138(12)
Ba1A Ba 0.490190(10) 0.363550(10) 1.00000(10)
Ba1A_2 Ba 0.490190(10) 0.363550(10) 0.00000(10)
Ba1B Ba -0.009810(10) 0.136450(10) 1.00000(10)
Ba1B_2 Ba -0.009810(10) 0.136450(10) 0.00000(10)
Ba1_2 Ba 0.509810(10) 0.636450(10) -0.50000(10)
H3_2 H 0.359(2) 0.651(2) 1.014(9)
H4_2 H 0.407(3) 0.5884(8) 0.968(9)
loop_
_geom_bond_atom_site_label_1
_geom_bond_atom_site_label_2
_geom_bond_site_symmetry_1
_geom_bond_site_symmetry_2
Ba1 O1 1_555 1_555
S1 O1 1_555 1_555
S2 O4 1_555 1_555
O2 S1 1_555 1_555
O3 S1 1_555 1_555
O4 Ba1B 1_555 1_555
O5 S2 1_555 1_555
O6 S2 1_555 1_555
O7 Ba1 1_555 1_555
O8 Ba1 1_555 1_555
C1 C2 1_555 1_555
C2 S1 1_555 1_555
C3 C2 1_555 1_555
C4 C3 1_555 1_555
C5 C4 1_555 1_555
C6 C1 1_555 1_555
C7 C6 1_555 1_555
C8 S2 1_555 1_555
C9 C8 1_555 1_555
C10 C5 1_555 1_555
H1 O7 1_555 1_555
H2 O7 1_555 1_555
H3 O8 1_555 1_555
H4 O8 1_555 1_555
H5 C1 1_555 1_555
H6 C3 1_555 1_555
H7 C4 1_555 1_555
H8 C7 1_555 1_555
H9 C9 1_555 1_555
H10 C10 1_555 1_555
O2A Ba1 1_555 1_555
O3A Ba1 1_555 1_555
O4B Ba1 1_555 1_555
O5B Ba1 1_555 1_555
O8_2 Ba1 1_555 1_555
Ba1A O2 1_555 1_555
Ba1A_2 O3 1_555 1_555
Ba1B_2 O5 1_555 1_555
Ba1_2 O8 1_555 1_555
H3_2 O8_2 1_555 1_555
H4_2 O8_2 1_555 1_555
C5 C6 1_555 1_555
C7 C8 1_555 1_555
C9 C10 1_555 1_555

#END
