
#######################################################################
#
#                 Cambridge Crystallographic Data Centre
#                                CCDC 
#
#######################################################################
#
# If this CIF has been generated from an entry in the Cambridge 
# Structural Database, then it will include bibliographic, chemical, 
# crystal, experimental, refinement or atomic coordinate data resulting 
# from the CCDC's data processing and validation procedures.
#
#######################################################################

data_YAFWIM
_symmetry_cell_setting           triclinic
_symmetry_space_group_name_H-M   'P -1'
_symmetry_Int_Tables_number      2
_space_group_name_Hall           '-P 1'
loop_
_symmetry_equiv_pos_site_id
_symmetry_equiv_pos_as_xyz
1 x,y,z
2 -x,-y,-z
_cell_length_a                   4.9218(10)
_cell_length_b                   5.7966(12)
_cell_length_c                   11.804(2)
_cell_angle_alpha                92.41(3)
_cell_angle_beta                 94.98(3)
_cell_angle_gamma                96.91(3)
_cell_volume                     332.587
loop_
_atom_site_label
_atom_site_type_symbol
_atom_site_fract_x
_atom_site_fract_y
_atom_site_fract_z
Co1 Co 0.0000 0.5000 0.5000
O1 O 0.2499(3) 0.3991(3) 0.63670(10)
O2 O -0.0180(3) 0.1039(3) 0.70310(10)
O3 O 0.5985(3) 0.4387(3) 0.81820(10)
O4 O 0.2343(3) 0.3264(3) 0.38910(10)
O5 O 0.2704(3) 0.8025(3) 0.49830(10)
C1 C 0.1938(4) 0.2485(3) 0.7082(2)
C2 C 0.4010(4) 0.2384(4) 0.8102(2)
C3 C 0.7941(4) 0.4612(4) 0.9100(2)
C4 C 0.9785(4) 0.6622(4) 0.9189(2)
C5 C 0.8156(4) 0.2975(4) 0.9924(2)
H1 H 0.135(4) 0.214(3) 0.352(2)
H2 H 0.332(5) 0.403(4) 0.345(2)
H3 H 0.440(2) 0.787(5) 0.508(2)
H4 H 0.234(4) 0.850(5) 0.4320(10)
H5 H 0.3072 0.2301 0.8791
H6 H 0.4920 0.0999 0.8023
H7 H 0.9640 0.7722 0.8643
H8 H 0.6924 0.1619 0.9879
C5A C 1.1844(4) 0.7025(4) 1.0076(2)
C3A C 1.2059(4) 0.5388(4) 1.0900(2)
O3A O 1.4015(3) 0.5613(3) 1.18180(10)
C2A C 1.5990(4) 0.7616(4) 1.1898(2)
C1A C 1.8062(4) 0.7515(3) 1.2918(2)
O1A O 1.7501(3) 0.6009(3) 1.36330(10)
O2A O 2.0180(3) 0.8961(3) 1.29690(10)
H5A H 1.6928 0.7699 1.1209
H6A H 1.5080 0.9001 1.1977
C4A C 1.0215(4) 0.3378(4) 1.0811(2)
H7A H 1.0360 0.2278 1.1357
H8A H 1.3076 0.8381 1.0121
O4A O -0.2343(3) 0.6736(3) 0.61090(10)
H1A H -0.135(4) 0.786(3) 0.648(2)
H2A H -0.332(5) 0.597(4) 0.655(2)
O5A O -0.2704(3) 0.1975(3) 0.50170(10)
H3A H -0.440(2) 0.213(5) 0.492(2)
H4A H -0.234(4) 0.150(5) 0.5680(10)
O1A_2 O -0.2499(3) 0.6009(3) 0.36330(10)
Co1_2 Co 2.0000 0.5000 1.5000
loop_
_geom_bond_atom_site_label_1
_geom_bond_atom_site_label_2
_geom_bond_site_symmetry_1
_geom_bond_site_symmetry_2
Co1 O1 1_555 1_555
O1 C1 1_555 1_555
O2 C1 1_555 1_555
O3 C2 1_555 1_555
O4 Co1 1_555 1_555
O5 Co1 1_555 1_555
C1 C2 1_555 1_555
C2 H5 1_555 1_555
C3 O3 1_555 1_555
C4 C3 1_555 1_555
C5 C3 1_555 1_555
H1 O4 1_555 1_555
H2 O4 1_555 1_555
H3 O5 1_555 1_555
H4 O5 1_555 1_555
H6 C2 1_555 1_555
H7 C4 1_555 1_555
H8 C5 1_555 1_555
C5A C4 1_555 1_555
C3A C5A 1_555 1_555
O3A C3A 1_555 1_555
C2A O3A 1_555 1_555
C1A C2A 1_555 1_555
O1A C1A 1_555 1_555
O2A C1A 1_555 1_555
H5A C2A 1_555 1_555
H6A C2A 1_555 1_555
C4A C5 1_555 1_555
H7A C4A 1_555 1_555
H8A C5A 1_555 1_555
O4A Co1 1_555 1_555
H1A O4A 1_555 1_555
H2A O4A 1_555 1_555
O5A Co1 1_555 1_555
H3A O5A 1_555 1_555
H4A O5A 1_555 1_555
O1A_2 Co1 1_555 1_555
Co1_2 O1A 1_555 1_555
C3A C4A 1_555 1_555

#END
