
#######################################################################
#
#                 Cambridge Crystallographic Data Centre
#                                CCDC 
#
#######################################################################
#
# If this CIF has been generated from an entry in the Cambridge 
# Structural Database, then it will include bibliographic, chemical, 
# crystal, experimental, refinement or atomic coordinate data resulting 
# from the CCDC's data processing and validation procedures.
#
#######################################################################

data_YAFXIN
_symmetry_cell_setting           monoclinic
_symmetry_space_group_name_H-M   'C 2/c'
_symmetry_Int_Tables_number      15
_space_group_name_Hall           '-C 2yn'
loop_
_symmetry_equiv_pos_site_id
_symmetry_equiv_pos_as_xyz
1 x,y,z
2 1/2+x,1/2+y,z
3 -x,y,1/2-z
4 1/2-x,1/2+y,1/2-z
5 -x,-y,-z
6 1/2-x,1/2-y,-z
7 x,-y,1/2+z
8 1/2+x,1/2-y,1/2+z
_cell_length_a                   17.848(4)
_cell_length_b                   16.863(3)
_cell_length_c                   9.485(3)
_cell_angle_alpha                90
_cell_angle_beta                 108.790(10)
_cell_angle_gamma                90
_cell_volume                     2702.57
loop_
_atom_site_label
_atom_site_type_symbol
_atom_site_fract_x
_atom_site_fract_y
_atom_site_fract_z
Ag1 Ag 0.18428(3) 0.23482(4) 0.34366(6)
O1 O 0.1681(3) 0.0766(3) 0.2943(6)
O2 O 0.2576(3) 0.1026(3) 0.5123(6)
N1 N 0.0828(3) 0.2475(3) 0.4202(6)
N2 N -0.2263(3) 0.2588(4) 0.7344(6)
C1 C 0.0391(4) 0.1832(4) 0.4219(8)
H1 H 0.0526 0.1344 0.3858
C2 C -0.0243(4) 0.1848(4) 0.4733(8)
H2 H -0.0550 0.1383 0.4681
C3 C -0.0443(4) 0.2544(4) 0.5335(7)
C4 C 0.0008(4) 0.3216(4) 0.5279(8)
H3 H -0.0114 0.3714 0.5622
C5 C 0.0629(4) 0.3151(4) 0.4724(8)
H4 H 0.0933 0.3613 0.4711
C6 C -0.1815(4) 0.1934(4) 0.7412(8)
H5 H -0.1907 0.1480 0.7926
C7 C -0.1228(4) 0.1905(4) 0.6759(7)
H6 H -0.0919 0.1439 0.6837
C8 C -0.1088(4) 0.2559(4) 0.5988(7)
C9 C -0.1556(4) 0.3230(4) 0.5915(8)
H7 H -0.1482 0.3691 0.5399
C10 C -0.2126(4) 0.3213(4) 0.6600(8)
H8 H -0.2441 0.3673 0.6542
C11 C 0.2153(5) 0.0565(5) 0.4153(10)
H9 H 0.2201 0.0014 0.4370
Ag1E Ag 0.31572(3) 0.26518(4) 0.65634(6)
N2G N 0.2737(3) 0.2412(4) 0.2344(6)
Ag1G Ag -0.31572(3) 0.26518(4) 0.84366(6)
C12 C 0.4024(15) 0.019(2) 0.793(4)
H10 H 0.4299 0.0022 0.8921
O3 O 0.3426(11) 0.0636(14) 0.778(3)
H11 H 0.3206 0.0739 0.6875
O4 O 0.4284(7) -0.0052(8) 0.6994(15)
O5 O 0.0412(4) -0.0173(3) 0.1491(7)
H12 H 0.0819 0.0100 0.1802
C13? C 0.3858(17) 0.0173(19) 0.813(3)
H13? H 0.4090 0.0026 0.7395
O6? O 0.3210(13) 0.0558(16) 0.776(4)
H14? H 0.3063 0.0653 0.6840
O7? O 0.4172(7) -0.0003(7) 0.9406(12)
loop_
_geom_bond_atom_site_label_1
_geom_bond_atom_site_label_2
_geom_bond_site_symmetry_1
_geom_bond_site_symmetry_2
Ag1 O1 1_555 1_555
O1 C11 1_555 1_555
O2 C11 1_555 1_555
N1 Ag1 1_555 1_555
N2 C6 1_555 1_555
C1 N1 1_555 1_555
H1 C1 1_555 1_555
C2 C1 1_555 1_555
H2 C2 1_555 1_555
C3 C2 1_555 1_555
C4 C3 1_555 1_555
H3 C4 1_555 1_555
C5 N1 1_555 1_555
H4 C5 1_555 1_555
C6 H5 1_555 1_555
C7 C6 1_555 1_555
H6 C7 1_555 1_555
C8 C3 1_555 1_555
C9 C8 1_555 1_555
H7 C9 1_555 1_555
C10 N2 1_555 1_555
H8 C10 1_555 1_555
C11 H9 1_555 1_555
C12 H10 1_555 1_555
O3 C12 1_555 1_555
H11 O3 1_555 1_555
O4 C12 1_555 1_555
O5 H12 1_555 1_555
Ag1E Ag1 1_555 1_555
N2G Ag1 1_555 1_555
Ag1G N2 1_555 1_555
O2 Ag1E 1_555 1_555
C4 C5 1_555 1_555
C7 C8 1_555 1_555
C9 C10 1_555 1_555

#END
