
#######################################################################
#
#                 Cambridge Crystallographic Data Centre
#                                CCDC 
#
#######################################################################
#
# If this CIF has been generated from an entry in the Cambridge 
# Structural Database, then it will include bibliographic, chemical, 
# crystal, experimental, refinement or atomic coordinate data resulting 
# from the CCDC's data processing and validation procedures.
#
#######################################################################

data_YAFXEJ
_symmetry_cell_setting           monoclinic
_symmetry_space_group_name_H-M   'C 2/m'
_symmetry_Int_Tables_number      12
_space_group_name_Hall           '-C 2y'
loop_
_symmetry_equiv_pos_site_id
_symmetry_equiv_pos_as_xyz
1 x,y,z
2 1/2+x,1/2+y,z
3 x,-y,z
4 1/2+x,1/2-y,z
5 -x,-y,-z
6 1/2-x,1/2-y,-z
7 -x,y,-z
8 1/2-x,1/2+y,-z
_cell_length_a                   12.356(4)
_cell_length_b                   7.309(2)
_cell_length_c                   6.508(2)
_cell_angle_alpha                90
_cell_angle_beta                 120.796(5)
_cell_angle_gamma                90
_cell_volume                     504.864
loop_
_atom_site_label
_atom_site_type_symbol
_atom_site_fract_x
_atom_site_fract_y
_atom_site_fract_z
Co1 Co 0.5000 0.0000 1.0000
O1 O 0.32095(18) 0.0000 0.9520(3)
H1 H 0.257(2) 0.0000 0.813(3)
N1 N 0.44206(17) 0.2069(2) 0.7371(3)
N2 N 0.3734(2) 0.5000 0.5251(4)
C1 C 0.41274(16) 0.3465(3) 0.6456(3)
C2 C 0.2812(4) 0.0000 1.1210(6)
H2 H 0.352(2) 0.0000 1.278(3)
H3 H 0.2326(13) 0.1024(6) 1.116(5)
H3B H 0.2326(13) -0.1024(6) 1.116(5)
C1B C 0.41274(16) 0.6535(3) 0.6456(3)
N1B N 0.44206(17) 0.7931(2) 0.7371(3)
O1D O 0.67905(18) 0.0000 1.0480(3)
H1D H 0.743(2) 0.0000 1.187(3)
C2D C 0.7188(4) 0.0000 0.8790(6)
H2D H 0.648(2) 0.0000 0.722(3)
H3D H 0.7674(13) -0.1024(6) 0.884(5)
H3F H 0.7674(13) 0.1024(6) 0.884(5)
N1B_2 N 0.44206(17) -0.2069(2) 0.7371(3)
N1D N 0.55794(17) -0.2069(2) 1.2629(3)
N1F N 0.55794(17) 0.2069(2) 1.2629(3)
N2F N 0.6266(2) 0.5000 1.4749(4)
C1F C 0.58726(16) 0.3465(3) 1.3544(3)
C1D C 0.58726(16) 0.6535(3) 1.3544(3)
N1D_2 N 0.55794(17) 0.7931(2) 1.2629(3)
Co1B Co 0.5000 1.0000 1.0000
loop_
_geom_bond_atom_site_label_1
_geom_bond_atom_site_label_2
_geom_bond_site_symmetry_1
_geom_bond_site_symmetry_2
Co1 O1 1_555 1_555
O1 H1 1_555 1_555
N1 Co1 1_555 1_555
N2 C1 1_555 1_555
C1 N1 1_555 1_555
C2 O1 1_555 1_555
H2 C2 1_555 1_555
H3 C2 1_555 1_555
H3B C2 1_555 1_555
C1B N2 1_555 1_555
N1B C1B 1_555 1_555
O1D Co1 1_555 1_555
H1D O1D 1_555 1_555
C2D O1D 1_555 1_555
H2D C2D 1_555 1_555
H3D C2D 1_555 1_555
H3F C2D 1_555 1_555
N1B_2 Co1 1_555 1_555
N1D Co1 1_555 1_555
N1F Co1 1_555 1_555
N2F C1F 1_555 1_555
C1F N1F 1_555 1_555
C1D N2F 1_555 1_555
N1D_2 C1D 1_555 1_555
Co1B N1B 1_555 1_555
N1D_2 Co1B 1_555 1_555

#END
