
#######################################################################
#
#                 Cambridge Crystallographic Data Centre
#                                CCDC 
#
#######################################################################
#
# If this CIF has been generated from an entry in the Cambridge 
# Structural Database, then it will include bibliographic, chemical, 
# crystal, experimental, refinement or atomic coordinate data resulting 
# from the CCDC's data processing and validation procedures.
#
#######################################################################

data_YAFYIO
_symmetry_cell_setting           monoclinic
_symmetry_space_group_name_H-M   'P 21/n'
_symmetry_Int_Tables_number      14
_space_group_name_Hall           '-P 2yn'
loop_
_symmetry_equiv_pos_site_id
_symmetry_equiv_pos_as_xyz
1 x,y,z
2 1/2+x,1/2-y,1/2+z
3 -x,-y,-z
4 1/2-x,1/2+y,1/2-z
_cell_length_a                   16.699(3)
_cell_length_b                   6.0327(12)
_cell_length_c                   18.977(4)
_cell_angle_alpha                90
_cell_angle_beta                 107.06(3)
_cell_angle_gamma                90
_cell_volume                     1827.62
loop_
_atom_site_label
_atom_site_type_symbol
_atom_site_fract_x
_atom_site_fract_y
_atom_site_fract_z
Cu1 Cu 0.63669(2) 0.81765(6) 0.372445(19)
N1 N 0.63381(17) 0.8530(5) 0.47578(14)
N2 N 0.6012(2) 0.8028(6) 0.57825(15)
N3 N 0.64017(15) 0.7450(4) 0.27090(13)
N4 N 0.66744(19) 0.5956(5) 0.17547(15)
O1 O 0.51205(13) 0.8041(4) 0.33480(12)
O2 O 0.50512(14) 0.4429(4) 0.35913(13)
O3 O 0.34521(14) 0.4211(4) 0.26329(12)
O4 O 0.42301(14) 0.0426(4) 0.02567(12)
O5 O 0.26199(13) -0.3028(4) -0.09003(11)
O6 O 0.25911(15) 0.0533(4) -0.05868(14)
O7 O 0.63894(14) 1.1822(4) 0.34993(13)
C1 C 0.5808(2) 0.7593(7) 0.50618(18)
C2 C 0.6716(2) 0.9278(6) 0.59623(19)
C3 C 0.6911(2) 0.9615(6) 0.53256(19)
C4 C 0.5926(2) 0.8475(6) 0.20746(17)
C5 C 0.6091(2) 0.7551(6) 0.14872(17)
C6 C 0.6849(2) 0.5936(6) 0.24909(18)
C7 C 0.47468(19) 0.6206(5) 0.33111(16)
C8 C 0.3812(2) 0.6311(5) 0.28965(19)
C9 C 0.36731(18) 0.3315(5) 0.20443(16)
C10 C 0.4250(2) 0.4251(6) 0.17340(18)
C11 C 0.44057(19) 0.3224(6) 0.11384(16)
C12 C 0.40035(18) 0.1291(5) 0.08443(16)
C13 C 0.34308(19) 0.0348(6) 0.11569(16)
C14 C 0.32729(18) 0.1363(5) 0.17548(17)
C15 C 0.38411(19) -0.1563(6) -0.00764(18)
C16 C 0.29387(19) -0.1261(5) -0.05616(16)
H1 H 0.5939(11) 1.247(5) 0.350(2)
H2 H 0.6806(12) 1.246(5) 0.3794(17)
H3 H 0.5351 0.6739 0.4807
H4 H 0.7008 0.9799 0.6428
H5 H 0.7361 1.0449 0.5279
H6 H 0.5549 0.9626 0.2056
H7 H 0.5852 0.7930 0.0995
H8 H 0.7231 0.4988 0.2804
H9 H 0.3516 0.6926 0.3221
H10 H 0.3730 0.7310 0.2481
H11 H 0.4527 0.5553 0.1925
H12 H 0.4792 0.3850 0.0930
H13 H 0.3156 -0.0957 0.0966
H14 H 0.2892 0.0726 0.1967
H15 H 0.3846 -0.2625 0.0309
H16 H 0.4170 -0.2182 -0.0374
H17 H 0.572(2) 0.749(7) 0.6069(19)
H18 H 0.688(2) 0.495(5) 0.1508(19)
O5A O 0.76199(13) 0.8028(4) 0.40997(11)
Cu1A Cu 0.13669(2) -0.31765(6) -0.127555(19)
loop_
_geom_bond_atom_site_label_1
_geom_bond_atom_site_label_2
_geom_bond_site_symmetry_1
_geom_bond_site_symmetry_2
Cu1 N1 1_555 1_555
N1 C1 1_555 1_555
N2 C1 1_555 1_555
N3 Cu1 1_555 1_555
N4 C5 1_555 1_555
O1 Cu1 1_555 1_555
O2 C7 1_555 1_555
O3 C8 1_555 1_555
O4 C12 1_555 1_555
O5 C16 1_555 1_555
O6 C16 1_555 1_555
O7 Cu1 1_555 1_555
C1 H3 1_555 1_555
C2 N2 1_555 1_555
C3 N1 1_555 1_555
C4 N3 1_555 1_555
C5 C4 1_555 1_555
C6 N3 1_555 1_555
C7 O1 1_555 1_555
C8 C7 1_555 1_555
C9 O3 1_555 1_555
C10 C9 1_555 1_555
C11 C10 1_555 1_555
C12 C11 1_555 1_555
C13 C12 1_555 1_555
C14 C9 1_555 1_555
C15 O4 1_555 1_555
C16 C15 1_555 1_555
H1 O7 1_555 1_555
H2 O7 1_555 1_555
H4 C2 1_555 1_555
H5 C3 1_555 1_555
H6 C4 1_555 1_555
H7 C5 1_555 1_555
H8 C6 1_555 1_555
H9 C8 1_555 1_555
H10 C8 1_555 1_555
H11 C10 1_555 1_555
H12 C11 1_555 1_555
H13 C13 1_555 1_555
H14 C14 1_555 1_555
H15 C15 1_555 1_555
H16 C15 1_555 1_555
H17 N2 1_555 1_555
H18 N4 1_555 1_555
O5A Cu1 1_555 1_555
Cu1A O5 1_555 1_555
N4 C6 1_555 1_555
C2 C3 1_555 1_555
C13 C14 1_555 1_555

#END
