
#######################################################################
#
#                 Cambridge Crystallographic Data Centre
#                                CCDC 
#
#######################################################################
#
# If this CIF has been generated from an entry in the Cambridge 
# Structural Database, then it will include bibliographic, chemical, 
# crystal, experimental, refinement or atomic coordinate data resulting 
# from the CCDC's data processing and validation procedures.
#
#######################################################################

data_YAFYUA
_symmetry_cell_setting           monoclinic
_symmetry_space_group_name_H-M   'C 2/c'
_symmetry_Int_Tables_number      15
_space_group_name_Hall           '-C 2yn'
loop_
_symmetry_equiv_pos_site_id
_symmetry_equiv_pos_as_xyz
1 x,y,z
2 1/2+x,1/2+y,z
3 x,-y,1/2+z
4 1/2+x,1/2-y,1/2+z
5 -x,-y,-z
6 1/2-x,1/2-y,-z
7 -x,y,1/2-z
8 1/2-x,1/2+y,1/2-z
_cell_length_a                   22.167(2)
_cell_length_b                   5.8534(4)
_cell_length_c                   14.2600(12)
_cell_angle_alpha                90
_cell_angle_beta                 105.629(3)
_cell_angle_gamma                90
_cell_volume                     1781.86
loop_
_atom_site_label
_atom_site_type_symbol
_atom_site_fract_x
_atom_site_fract_y
_atom_site_fract_z
Zn1 Zn 0.0000 0.90223(10) 0.2500
Cl1 Cl 0.04961(6) 1.0826(2) 0.38525(8)
N1 N 0.05951(13) 0.6809(5) 0.2063(2)
C1 C 0.0975(2) 0.5442(8) 0.2701(3)
H1 H 0.094(2) 0.560(7) 0.335(3)
N2 N 0.19766(14) 0.2351(5) 0.0404(2)
C2 C 0.1337(2) 0.3784(7) 0.2433(3)
H2 H 0.162(2) 0.281(8) 0.290(3)
C3 C 0.13162(17) 0.3495(6) 0.1468(3)
C4 C 0.1676(2) 0.1623(8) 0.1144(4)
H3 H 0.200(2) 0.099(7) 0.173(3)
H4 H 0.144(2) 0.056(7) 0.098(3)
C5 C 0.24960(18) 0.3898(7) 0.0801(3)
H5 H 0.2816(16) 0.317(6) 0.130(2)
H6 H 0.238(2) 0.521(8) 0.110(3)
C6 C 0.2211(2) 0.0371(7) -0.0016(4)
H7 H 0.192(2) -0.050(8) -0.018(3)
H8 H 0.2556(19) -0.058(7) 0.047(3)
C7 C 0.0932(2) 0.4945(8) 0.0812(3)
H9 H 0.0929(18) 0.483(7) 0.013(3)
C8 C 0.05781(18) 0.6549(7) 0.1130(3)
H10 H 0.0322(18) 0.749(8) 0.065(3)
C6E C 0.2789(2) 0.4629(7) 0.0016(4)
N2E N 0.30234(14) 0.2649(5) -0.0404(2)
C4E C 0.3324(2) 0.3377(8) -0.1144(4)
C3E C 0.36838(17) 0.1505(6) -0.1468(3)
C2E C 0.3663(2) 0.1216(7) -0.2433(3)
C1E C 0.4025(2) -0.0442(8) -0.2701(3)
N1E N 0.44049(13) -0.1809(5) -0.2063(2)
C8E C 0.44219(18) -0.1549(7) -0.1130(3)
C7E C 0.4068(2) 0.0055(8) -0.0812(3)
H9E H 0.4071(18) 0.017(7) -0.013(3)
H10E H 0.4678(18) -0.249(8) -0.065(3)
H1E H 0.406(2) -0.060(7) -0.335(3)
H2E H 0.338(2) 0.219(8) -0.290(3)
H3E H 0.300(2) 0.401(7) -0.173(3)
H4E H 0.356(2) 0.444(7) -0.098(3)
C5E C 0.25040(18) 0.1102(7) -0.0801(3)
H5E H 0.2184(16) 0.183(6) -0.130(2)
H6E H 0.262(2) -0.021(8) -0.110(3)
H7E H 0.308(2) 0.550(8) 0.018(3)
H8E H 0.2444(19) 0.558(7) -0.047(3)
Cl1F Cl -0.04961(6) 1.0826(2) 0.11475(8)
N1F N -0.05951(13) 0.6809(5) 0.2937(2)
Zn1C Zn 0.5000 -0.40223(10) -0.2500
loop_
_geom_bond_atom_site_label_1
_geom_bond_atom_site_label_2
_geom_bond_site_symmetry_1
_geom_bond_site_symmetry_2
Zn1 Cl1 1_555 1_555
N1 Zn1 1_555 1_555
C1 N1 1_555 1_555
H1 C1 1_555 1_555
N2 C4 1_555 1_555
C2 C1 1_555 1_555
H2 C2 1_555 1_555
C3 C2 1_555 1_555
C4 C3 1_555 1_555
H3 C4 1_555 1_555
H4 C4 1_555 1_555
C5 N2 1_555 1_555
H5 C5 1_555 1_555
H6 C5 1_555 1_555
C6 N2 1_555 1_555
H7 C6 1_555 1_555
H8 C6 1_555 1_555
C7 C3 1_555 1_555
H9 C7 1_555 1_555
C8 N1 1_555 1_555
H10 C8 1_555 1_555
C6E C5 1_555 1_555
N2E C6E 1_555 1_555
C4E N2E 1_555 1_555
C3E C4E 1_555 1_555
C2E C3E 1_555 1_555
C1E C2E 1_555 1_555
N1E C1E 1_555 1_555
C8E N1E 1_555 1_555
C7E C3E 1_555 1_555
H9E C7E 1_555 1_555
H10E C8E 1_555 1_555
H1E C1E 1_555 1_555
H2E C2E 1_555 1_555
H3E C4E 1_555 1_555
H4E C4E 1_555 1_555
C5E C6 1_555 1_555
H5E C5E 1_555 1_555
H6E C5E 1_555 1_555
H7E C6E 1_555 1_555
H8E C6E 1_555 1_555
Cl1F Zn1 1_555 1_555
N1F Zn1 1_555 1_555
Zn1C N1E 1_555 1_555
C7 C8 1_555 1_555
N2E C5E 1_555 1_555
C8E C7E 1_555 1_555

#END
