
#######################################################################
#
#                 Cambridge Crystallographic Data Centre
#                                CCDC 
#
#######################################################################
#
# If this CIF has been generated from an entry in the Cambridge 
# Structural Database, then it will include bibliographic, chemical, 
# crystal, experimental, refinement or atomic coordinate data resulting 
# from the CCDC's data processing and validation procedures.
#
#######################################################################

data_YAFZUB
_symmetry_cell_setting           monoclinic
_symmetry_space_group_name_H-M   'C c'
_symmetry_Int_Tables_number      9
_space_group_name_Hall           'C -2yc'
loop_
_symmetry_equiv_pos_site_id
_symmetry_equiv_pos_as_xyz
1 x,y,z
2 x,-y,1/2+z
3 1/2+x,1/2+y,z
4 1/2+x,1/2-y,1/2+z
_cell_length_a                   10.454(6)
_cell_length_b                   16.192(6)
_cell_length_c                   7.0777(14)
_cell_angle_alpha                90
_cell_angle_beta                 94.47(5)
_cell_angle_gamma                90
_cell_volume                     1194.41
loop_
_atom_site_label
_atom_site_type_symbol
_atom_site_fract_x
_atom_site_fract_y
_atom_site_fract_z
C1 C 0.8993(3) -0.0641(2) 0.4178(5)
C2 C 1.0251(4) -0.05435(19) 0.4989(5)
H1 H 1.0753 -0.1010 0.5320
C3 C 1.0753(3) 0.0241(2) 0.5302(5)
H2 H 1.1603 0.0309 0.5817
C4 C 0.9988(3) 0.09300(19) 0.4848(5)
C5 C 0.8732(3) 0.08435(19) 0.4106(4)
H3 H 0.8222 0.1314 0.3837
C6 C 0.8222(3) 0.00566(18) 0.3759(5)
C7 C 0.6876(3) -0.0028(2) 0.2891(4)
O1 O 0.6162(3) 0.21543(15) 0.5101(4)
O2 O 0.3990(2) 0.13943(16) 0.7324(3)
O3 O 0.3848(2) 0.14829(15) 0.2976(4)
O4 O 0.4175(3) -0.00690(15) 0.5146(4)
O5 O 0.6148(2) 0.05955(14) 0.2819(4)
O6 O 0.6541(2) -0.07308(14) 0.2240(4)
O7 O 0.8584(2) -0.14191(15) 0.3876(4)
H4 H 0.7866 -0.1413 0.3286
O8 O 0.9648(3) 0.25191(14) 0.5153(4)
O9 O 1.1449(2) 0.20373(15) 0.3518(3)
O10 O 1.1489(2) 0.18956(15) 0.6916(3)
S1 S 1.06835(7) 0.19135(5) 0.51339(10)
Zn1 Zn 0.51628(3) 0.105750(19) 0.51007(4)
H5 H 0.612(6) 0.241(4) 0.612(9)
H6 H 0.617(6) 0.241(4) 0.418(8)
H7 H 0.322(2) 0.155(3) 0.711(6)
H8 H 0.434(4) 0.174(3) 0.811(6)
H9 H 0.310(2) 0.160(3) 0.328(6)
H10 H 0.413(4) 0.186(3) 0.235(7)
H11 H 0.403(6) -0.036(3) 0.417(4)
H12 H 0.450(4) -0.037(2) 0.602(4)
Zn1A Zn 0.51628(3) -0.105750(19) 0.01007(4)
O6A O 0.6541(2) 0.07308(14) 0.7240(4)
loop_
_geom_bond_atom_site_label_1
_geom_bond_atom_site_label_2
_geom_bond_site_symmetry_1
_geom_bond_site_symmetry_2
C1 C2 1_555 1_555
C2 H1 1_555 1_555
C3 C2 1_555 1_555
H2 C3 1_555 1_555
C4 C3 1_555 1_555
C5 C4 1_555 1_555
H3 C5 1_555 1_555
C6 C1 1_555 1_555
C7 C6 1_555 1_555
O1 Zn1 1_555 1_555
O2 Zn1 1_555 1_555
O3 Zn1 1_555 1_555
O4 Zn1 1_555 1_555
O5 C7 1_555 1_555
O6 C7 1_555 1_555
O7 C1 1_555 1_555
H4 O7 1_555 1_555
O8 S1 1_555 1_555
O9 S1 1_555 1_555
O10 S1 1_555 1_555
S1 C4 1_555 1_555
Zn1 O5 1_555 1_555
H5 O1 1_555 1_555
H6 O1 1_555 1_555
H7 O2 1_555 1_555
H8 O2 1_555 1_555
H9 O3 1_555 1_555
H10 O3 1_555 1_555
H11 O4 1_555 1_555
H12 O4 1_555 1_555
Zn1A O6 1_555 1_555
O6A Zn1 1_555 1_555
C5 C6 1_555 1_555

#END
