
#######################################################################
#
#                 Cambridge Crystallographic Data Centre
#                                CCDC 
#
#######################################################################
#
# If this CIF has been generated from an entry in the Cambridge 
# Structural Database, then it will include bibliographic, chemical, 
# crystal, experimental, refinement or atomic coordinate data resulting 
# from the CCDC's data processing and validation procedures.
#
#######################################################################

data_YAGBUE
_symmetry_cell_setting           orthorhombic
_symmetry_space_group_name_H-M   'P n a 21'
_symmetry_Int_Tables_number      33
_space_group_name_Hall           'P 2c -2n'
loop_
_symmetry_equiv_pos_site_id
_symmetry_equiv_pos_as_xyz
1 x,y,z
2 -x,-y,1/2+z
3 1/2-x,1/2+y,1/2+z
4 1/2+x,1/2-y,z
_cell_length_a                   11.5641(5)
_cell_length_b                   17.8801(3)
_cell_length_c                   10.1058(4)
_cell_angle_alpha                90
_cell_angle_beta                 90
_cell_angle_gamma                90
_cell_volume                     2089.55
loop_
_atom_site_label
_atom_site_type_symbol
_atom_site_fract_x
_atom_site_fract_y
_atom_site_fract_z
Co1 Co 0.23802(3) 0.61235(2) 0.24938(6)
O1 O 0.3661(3) 0.61072(15) 0.3849(3)
O2 O 0.1997(3) 0.61796(18) 0.4894(3)
O3 O 0.3429(3) 0.60549(15) 1.0945(3)
O4 O 0.1801(3) 0.61551(17) 0.9809(3)
N1 N 0.1733(2) 0.71739(13) 0.2462(4)
N2 N 0.0600(3) 0.81448(18) 0.2902(3)
H1 H 0.0019 0.8394 0.3200
N3 N 0.1265(2) 0.52450(14) 0.2550(4)
N4 N -0.01035(16) 0.44998(11) 0.3323(2)
H2 H -0.0676 0.4349 0.3795
C1 C 0.36774(16) 0.61011(11) 0.6223(2)
C2 C 0.30532(16) 0.61474(11) 0.7388(2)
H3 H 0.2256 0.6213 0.7347
C3 C 0.3583(3) 0.6099(2) 0.8609(4)
C4 C 0.4761(5) 0.6015(3) 0.8673(5)
H4 H 0.5129 0.5988 0.9490
C5 C 0.5405(3) 0.5971(3) 0.7512(7)
H5 H 0.6204 0.5914 0.7558
C6 C 0.4877(4) 0.6010(3) 0.6306(5)
H6 H 0.5315 0.5976 0.5537
C7 C 0.3069(4) 0.6138(2) 0.4936(4)
C8 C 0.2873(5) 0.6103(2) 0.9867(4)
C9 C 0.0775(3) 0.7412(2) 0.3030(4)
H7 H 0.0268 0.7097 0.3478
C10 C 0.1809(4) 0.9147(3) 0.1826(5)
H8 H 0.1323 0.9550 0.1996
C11 C 0.2847(5) 0.9234(3) 0.1188(6)
H9 H 0.3075 0.9710 0.0923
C12 C 0.3570(5) 0.8630(3) 0.0927(6)
H10 H 0.4276 0.8716 0.0514
C13 C 0.3277(4) 0.7916(2) 0.1258(5)
H11 H 0.3752 0.7513 0.1052
C14 C 0.2228(3) 0.7818(2) 0.1922(3)
C15 C 0.1527(3) 0.8430(2) 0.2199(4)
C16 C 0.0419(3) 0.5162(2) 0.3417(4)
H12 H 0.0211 0.5526 0.4029
C17 C 0.0287(4) 0.3377(2) 0.1884(5)
H13 H -0.0274 0.3062 0.2236
C18 C 0.1019(4) 0.3149(2) 0.0881(5)
H14 H 0.0953 0.2665 0.0551
C19 C 0.1852(4) 0.3625(2) 0.0351(5)
H15 H 0.2318 0.3451 -0.0333
C20 C 0.2006(3) 0.4341(2) 0.0806(4)
H16 H 0.2564 0.4654 0.0443
C21 C 0.1292(3) 0.45808(19) 0.1838(4)
C22 C 0.0438(3) 0.40984(19) 0.2331(5)
O3_2 O 0.3429(3) 0.60549(15) 0.0945(3)
Co1_2 Co 0.23802(3) 0.61235(2) 1.24938(6)
loop_
_geom_bond_atom_site_label_1
_geom_bond_atom_site_label_2
_geom_bond_site_symmetry_1
_geom_bond_site_symmetry_2
Co1 O1 1_555 1_555
O1 C7 1_555 1_555
O2 C7 1_555 1_555
O3 C8 1_555 1_555
O4 C8 1_555 1_555
N1 Co1 1_555 1_555
N2 H1 1_555 1_555
N3 Co1 1_555 1_555
N4 H2 1_555 1_555
C1 C2 1_555 1_555
C2 H3 1_555 1_555
C3 C2 1_555 1_555
C4 C3 1_555 1_555
H4 C4 1_555 1_555
C5 C4 1_555 1_555
H5 C5 1_555 1_555
C6 C1 1_555 1_555
H6 C6 1_555 1_555
C7 C1 1_555 1_555
C8 C3 1_555 1_555
C9 N1 1_555 1_555
H7 C9 1_555 1_555
C10 H8 1_555 1_555
C11 C10 1_555 1_555
H9 C11 1_555 1_555
C12 C11 1_555 1_555
H10 C12 1_555 1_555
C13 C12 1_555 1_555
H11 C13 1_555 1_555
C14 N1 1_555 1_555
C15 N2 1_555 1_555
C16 N3 1_555 1_555
H12 C16 1_555 1_555
C17 H13 1_555 1_555
C18 C17 1_555 1_555
H14 C18 1_555 1_555
C19 C18 1_555 1_555
H15 C19 1_555 1_555
C20 C19 1_555 1_555
H16 C20 1_555 1_555
C21 N3 1_555 1_555
C22 N4 1_555 1_555
O3_2 Co1 1_555 1_555
Co1_2 O3 1_555 1_555
N2 C9 1_555 1_555
N4 C16 1_555 1_555
C5 C6 1_555 1_555
C10 C15 1_555 1_555
C13 C14 1_555 1_555
C14 C15 1_555 1_555
C17 C22 1_555 1_555
C20 C21 1_555 1_555
C21 C22 1_555 1_555

#END
