
#######################################################################
#
#                 Cambridge Crystallographic Data Centre
#                                CCDC 
#
#######################################################################
#
# If this CIF has been generated from an entry in the Cambridge 
# Structural Database, then it will include bibliographic, chemical, 
# crystal, experimental, refinement or atomic coordinate data resulting 
# from the CCDC's data processing and validation procedures.
#
#######################################################################

data_YAGCOZ
_symmetry_cell_setting           triclinic
_symmetry_space_group_name_H-M   'P -1'
_symmetry_Int_Tables_number      2
_space_group_name_Hall           '-P 1'
loop_
_symmetry_equiv_pos_site_id
_symmetry_equiv_pos_as_xyz
1 x,y,z
2 -x,-y,-z
_cell_length_a                   7.7036(15)
_cell_length_b                   9.962(2)
_cell_length_c                   14.548(3)
_cell_angle_alpha                82.60(3)
_cell_angle_beta                 78.23(3)
_cell_angle_gamma                82.77(3)
_cell_volume                     1078.17
loop_
_atom_site_label
_atom_site_type_symbol
_atom_site_fract_x
_atom_site_fract_y
_atom_site_fract_z
Cd1 Cd 0.58165(2) 0.685571(15) 0.684529(11)
N1 N 0.7949(3) 0.7011(2) 0.76706(14)
N2 N 1.0447(3) 0.7257(2) 0.80933(18)
N3 N 0.3877(3) 0.7940(2) 0.59612(14)
N4 N 0.2452(3) 0.9682(2) 0.52503(15)
N5 N 0.4852(3) 0.48673(19) 0.76108(14)
N6 N 0.4696(3) 0.2677(2) 0.79527(16)
O1 O 0.3868(2) 0.78933(16) 0.80744(11)
O2 O 0.4851(3) 0.99233(18) 0.78491(14)
O3 O 0.2410(3) 0.80880(19) 0.98188(12)
O4 O -0.1970(2) 0.76229(17) 1.54441(11)
O5 O -0.2781(3) 0.55547(18) 1.55340(13)
O6 O -0.0779(3) 0.77175(17) 1.35938(12)
C1 C 0.9618(3) 0.7266(3) 0.73688(19)
C2 C 0.9267(4) 0.6981(3) 0.8900(2)
C3 C 0.7724(3) 0.6828(3) 0.86367(18)
C4 C 0.3360(3) 0.9259(2) 0.59382(17)
C5 C 0.2369(4) 0.8579(3) 0.4801(2)
C6 C 0.3247(4) 0.7510(3) 0.52429(18)
C7 C 0.5254(4) 0.3669(2) 0.72947(18)
C8 C 0.3905(4) 0.3271(3) 0.8744(2)
C9 C 0.4004(4) 0.4622(3) 0.85334(18)
C10 C 0.4026(3) 0.9017(2) 0.83343(16)
C11 C 0.3122(4) 0.9281(2) 0.93360(17)
C12 C 0.1632(3) 0.8068(2) 1.07599(16)
C13 C 0.1333(4) 0.9170(3) 1.12811(18)
C14 C 0.0523(4) 0.9010(3) 1.22258(18)
C15 C -0.2045(3) 0.6559(2) 1.50877(16)
C16 C -0.1235(4) 0.6432(2) 1.40589(17)
C17 C 0.0011(3) 0.7769(2) 1.26523(15)
C18 C 0.0325(4) 0.6664(2) 1.21279(17)
C19 C 0.1135(4) 0.6834(3) 1.11864(18)
H1 H 1.0149 0.7430 0.6737
H2 H 0.9473 0.6911 0.9513
H3 H 0.6672 0.6630 0.9047
H4 H 0.3601 0.9820 0.6351
H5 H 0.1816 0.8565 0.4291
H6 H 0.3401 0.6621 0.5085
H7 H 0.5855 0.3530 0.6686
H8 H 0.3394 0.2831 0.9320
H9 H 0.3568 0.5279 0.8946
H10 H 0.3980 0.9546 0.9665
H11 H 0.2174 1.0019 0.9318
H12 H 0.1672 1.0014 1.1000
H13 H 0.0324 0.9751 1.2576
H14 H -0.0178 0.5784 1.4013
H15 H -0.2082 0.6097 1.3756
H16 H -0.0006 0.5818 1.2407
H17 H 0.1345 0.6093 1.0836
H18 H 1.1539 0.7401 0.8053
H19 H 0.2001 1.0500 0.5114
H20 H 0.4814 0.1822 0.7889
O4_2 O 0.8030(2) 0.76229(17) 0.54441(11)
O5_2 O 0.7219(3) 0.55547(18) 0.55340(13)
Cd1_2 Cd -0.41835(2) 0.685571(15) 1.684529(11)
loop_
_geom_bond_atom_site_label_1
_geom_bond_atom_site_label_2
_geom_bond_site_symmetry_1
_geom_bond_site_symmetry_2
Cd1 N1 1_555 1_555
N1 C1 1_555 1_555
N2 C1 1_555 1_555
N3 Cd1 1_555 1_555
N4 C4 1_555 1_555
N5 Cd1 1_555 1_555
N6 C7 1_555 1_555
O1 Cd1 1_555 1_555
O2 C10 1_555 1_555
O3 C11 1_555 1_555
O4 C15 1_555 1_555
O5 C15 1_555 1_555
O6 C16 1_555 1_555
C1 H1 1_555 1_555
C2 N2 1_555 1_555
C3 N1 1_555 1_555
C4 N3 1_555 1_555
C5 N4 1_555 1_555
C6 N3 1_555 1_555
C7 N5 1_555 1_555
C8 N6 1_555 1_555
C9 N5 1_555 1_555
C10 O1 1_555 1_555
C11 C10 1_555 1_555
C12 O3 1_555 1_555
C13 C12 1_555 1_555
C14 C13 1_555 1_555
C15 C16 1_555 1_555
C16 H14 1_555 1_555
C17 O6 1_555 1_555
C18 C17 1_555 1_555
C19 C12 1_555 1_555
H2 C2 1_555 1_555
H3 C3 1_555 1_555
H4 C4 1_555 1_555
H5 C5 1_555 1_555
H6 C6 1_555 1_555
H7 C7 1_555 1_555
H8 C8 1_555 1_555
H9 C9 1_555 1_555
H10 C11 1_555 1_555
H11 C11 1_555 1_555
H12 C13 1_555 1_555
H13 C14 1_555 1_555
H15 C16 1_555 1_555
H16 C18 1_555 1_555
H17 C19 1_555 1_555
H18 N2 1_555 1_555
H19 N4 1_555 1_555
H20 N6 1_555 1_555
O4_2 Cd1 1_555 1_555
O5_2 Cd1 1_555 1_555
Cd1_2 O4 1_555 1_555
O5 Cd1_2 1_555 1_555
C2 C3 1_555 1_555
C5 C6 1_555 1_555
C8 C9 1_555 1_555
C14 C17 1_555 1_555
C18 C19 1_555 1_555

#END
