
#######################################################################
#
#                 Cambridge Crystallographic Data Centre
#                                CCDC 
#
#######################################################################
#
# If this CIF has been generated from an entry in the Cambridge 
# Structural Database, then it will include bibliographic, chemical, 
# crystal, experimental, refinement or atomic coordinate data resulting 
# from the CCDC's data processing and validation procedures.
#
#######################################################################

data_YAGFES
_symmetry_cell_setting           orthorhombic
_symmetry_space_group_name_H-M   'F d d d'
_symmetry_Int_Tables_number      70
_space_group_name_Hall           '-F 2uv 2vw'
loop_
_symmetry_equiv_pos_site_id
_symmetry_equiv_pos_as_xyz
1 x,y,z
2 1/4-x,1/4-y,z
3 x,1/4-y,1/4-z
4 1/4-x,y,1/4-z
5 x,1/2+y,1/2+z
6 1/2+x,y,1/2+z
7 1/2+x,1/2+y,z
8 3/4+x,1/4+y,1/2-z
9 -x,1/4+y,1/4+z
10 3/4+x,1/2-y,1/4+z
11 1/4+x,3/4+y,1/2-z
12 1/2-x,3/4+y,1/4+z
13 1/4+x,-y,1/4+z
14 1/4+x,1/4+y,-z
15 1/2-x,1/4+y,3/4+z
16 1/4+x,1/2-y,3/4+z
17 -x,-y,-z
18 3/4+x,3/4+y,-z
19 -x,3/4+y,3/4+z
20 3/4+x,-y,3/4+z
21 -x,1/2-y,1/2-z
22 1/2-x,-y,1/2-z
23 1/2-x,1/2-y,-z
24 1/4-x,3/4-y,1/2+z
25 x,3/4-y,3/4-z
26 1/4-x,1/2+y,3/4-z
27 3/4-x,1/4-y,1/2+z
28 1/2+x,1/4-y,3/4-z
29 3/4-x,y,3/4-z
30 3/4-x,3/4-y,z
31 1/2+x,3/4-y,1/4-z
32 3/4-x,1/2+y,1/4-z
_cell_length_a                   11.3230(10)
_cell_length_b                   18.517(2)
_cell_length_c                   41.438(4)
_cell_angle_alpha                90
_cell_angle_beta                 90
_cell_angle_gamma                90
_cell_volume                     8688.22
loop_
_atom_site_label
_atom_site_type_symbol
_atom_site_fract_x
_atom_site_fract_y
_atom_site_fract_z
Zn1 Zn 0.6250 0.6250 0.555143(15)
O1 O 0.5028(2) 0.5935(2) 0.52412(7)
O2 O 0.3886(3) 0.5762(2) 0.56657(8)
O3 O 0.2052(2) 0.5387(2) 0.53193(7)
N1 N 0.6805(3) 0.53752(19) 0.57850(10)
N2 N 0.7895(5) 0.4646(3) 0.60700(10)
C1 C 0.7721(4) 0.5311(3) 0.59860(10)
C2 C 0.7051(6) 0.4238(3) 0.59210(10)
C3 C 0.6374(4) 0.4685(3) 0.57470(10)
C4 C 0.4050(3) 0.5768(2) 0.53770(10)
C5 C 0.3079(3) 0.5569(2) 0.51410(10)
C6 C 0.1060(3) 0.5191(2) 0.51480(10)
C7 C 0.0971(3) 0.5199(2) 0.48130(10)
C8 C 0.0085(3) 0.4998(2) 0.53340(10)
H5 H 0.8442 0.4490 0.6196
H6 H 0.8178 0.5697 0.6057
H7 H 0.6962 0.3740 0.5938
H8 H 0.5726 0.4552 0.5622
H9 H 0.2915 0.5974 0.4999
H10 H 0.3324 0.5163 0.5009
H11 H 0.1616 0.5337 0.4688
H12 H 0.0140 0.5002 0.5558
C8P C -0.0085(3) 0.5002(2) 0.46660(10)
C6P C -0.1060(3) 0.4809(2) 0.48520(10)
O3P O -0.2052(2) 0.4613(2) 0.46807(7)
C5P C -0.3079(3) 0.4431(2) 0.48590(10)
C4P C -0.4050(3) 0.4232(2) 0.46230(10)
O1P O -0.5028(2) 0.4065(2) 0.47588(7)
O2P O -0.3886(3) 0.4238(2) 0.43343(8)
H9P H -0.2915 0.4026 0.5001
H10P H -0.3324 0.4837 0.4991
C7P C -0.0971(3) 0.4801(2) 0.51870(10)
H11P H -0.1616 0.4663 0.5312
H12P H -0.0140 0.4998 0.4442
N1A N 0.5695(3) 0.71248(19) 0.57850(10)
N2A N 0.4605(5) 0.7854(3) 0.60700(10)
C1A C 0.4779(4) 0.7189(3) 0.59860(10)
C2A C 0.5449(6) 0.8262(3) 0.59210(10)
C3A C 0.6126(4) 0.7815(3) 0.57470(10)
H5A H 0.4058 0.8010 0.6196
H6A H 0.4322 0.6803 0.6057
H7A H 0.5538 0.8760 0.5938
H8A H 0.6774 0.7948 0.5622
O1A O 0.7472(2) 0.6565(2) 0.52412(7)
Zn1P Zn -0.6250 0.3750 0.444857(15)
O4 O 0.9723(8) 0.4480(5) 0.6522(2)
H1 H 0.9623 0.4811 0.6666
H2 H 0.9551 0.4081 0.6631
O5 O 0.8750 0.3750 0.7146(2)
H3 H 0.9182 0.3505 0.7278
H3CA H 0.8318 0.3995 0.7278
O6 O 0.1250 0.6250 0.5931(3)
H4 H 0.1550 0.5928 0.5803
H4A H 0.0950 0.6572 0.5803
loop_
_geom_bond_atom_site_label_1
_geom_bond_atom_site_label_2
_geom_bond_site_symmetry_1
_geom_bond_site_symmetry_2
Zn1 O1 1_555 1_555
O1 C4 1_555 1_555
O2 C4 1_555 1_555
O3 C5 1_555 1_555
O4 H1 1_555 1_555
O5 H3 1_555 1_555
O6 H4 1_555 1_555
N1 Zn1 1_555 1_555
N2 C1 1_555 1_555
C1 N1 1_555 1_555
C2 N2 1_555 1_555
C3 N1 1_555 1_555
C4 C5 1_555 1_555
C5 H9 1_555 1_555
C6 O3 1_555 1_555
C7 C6 1_555 1_555
C8 C6 1_555 1_555
H2 O4 1_555 1_555
H5 N2 1_555 1_555
H6 C1 1_555 1_555
H7 C2 1_555 1_555
H8 C3 1_555 1_555
H10 C5 1_555 1_555
H11 C7 1_555 1_555
H12 C8 1_555 1_555
C8P C7 1_555 1_555
C6P C8P 1_555 1_555
O3P C6P 1_555 1_555
C5P O3P 1_555 1_555
C4P C5P 1_555 1_555
O1P C4P 1_555 1_555
O2P C4P 1_555 1_555
H9P C5P 1_555 1_555
H10P C5P 1_555 1_555
C7P C8 1_555 1_555
H11P C7P 1_555 1_555
H12P C8P 1_555 1_555
H3CA O5 1_555 1_555
H4A O6 1_555 1_555
N1A Zn1 1_555 1_555
N2A C1A 1_555 1_555
C1A N1A 1_555 1_555
C2A N2A 1_555 1_555
C3A N1A 1_555 1_555
H5A N2A 1_555 1_555
H6A C1A 1_555 1_555
H7A C2A 1_555 1_555
H8A C3A 1_555 1_555
O1A Zn1 1_555 1_555
Zn1P O1P 1_555 1_555
C2 C3 1_555 1_555
C6P C7P 1_555 1_555
C2A C3A 1_555 1_555

#END
