
#######################################################################
#
#                 Cambridge Crystallographic Data Centre
#                                CCDC 
#
#######################################################################
#
# If this CIF has been generated from an entry in the Cambridge 
# Structural Database, then it will include bibliographic, chemical, 
# crystal, experimental, refinement or atomic coordinate data resulting 
# from the CCDC's data processing and validation procedures.
#
#######################################################################

data_YAGJIZ
_symmetry_cell_setting           triclinic
_symmetry_space_group_name_H-M   'P -1'
_symmetry_Int_Tables_number      2
_space_group_name_Hall           '-P 1'
loop_
_symmetry_equiv_pos_site_id
_symmetry_equiv_pos_as_xyz
1 x,y,z
2 -x,-y,-z
_cell_length_a                   10.116(1)
_cell_length_b                   11.008(1)
_cell_length_c                   12.489(2)
_cell_angle_alpha                108.15(1)
_cell_angle_beta                 98.04(1)
_cell_angle_gamma                67.92(1)
_cell_volume                     1224.21
loop_
_atom_site_label
_atom_site_type_symbol
_atom_site_fract_x
_atom_site_fract_y
_atom_site_fract_z
Mn1 Mn 0.5000 0.5000 0.5000
N1 N 0.3837(3) 0.6938(3) 0.5748(3)
N2 N 0.5159(3) 0.5529(3) 0.3644(3)
N3 N 0.7133(4) 0.5312(4) 0.5637(3)
N4 N 1.1551(6) 0.2936(5) 0.6249(4)
C1 C 0.3428(4) 0.8035(4) 0.5306(3)
C2 C 0.3741(4) 0.7979(4) 0.4237(3)
C3 C 0.4556(4) 0.6808(4) 0.3474(3)
C4 C 0.4889(5) 0.6723(4) 0.2364(4)
C5 C 0.5722(5) 0.5438(5) 0.1893(4)
C6 C 0.5892(4) 0.4680(4) 0.2672(3)
C7 C 0.6672(4) 0.3308(4) 0.2469(3)
C8 C 0.3234(4) 0.7453(4) 0.6798(3)
C9 C 0.2475(4) 0.8880(4) 0.7016(3)
C10 C 0.2602(5) 0.9247(4) 0.6114(4)
C11 C 0.3167(5) 0.9260(4) 0.3887(3)
C12 C 0.1699(5) 0.9875(4) 0.3724(4)
C13 C 0.1171(5) 1.1039(4) 0.3378(4)
C14 C 0.2083(5) 1.1607(4) 0.3187(4)
C15 C 0.3532(5) 1.1017(4) 0.3349(4)
C16 C 0.4082(5) 0.9846(4) 0.3692(3)
C17 C 0.7516(5) 0.2614(4) 0.1412(3)
C18 C 0.8794(5) 0.2800(4) 0.1379(4)
C19 C 0.9590(5) 0.2193(5) 0.0417(4)
C20 C 0.9121(5) 0.1399(5) -0.0524(4)
C21 C 0.7857(5) 0.1219(5) -0.0501(4)
C22 C 0.7057(5) 0.1812(5) 0.0461(4)
C23 C 0.8296(5) 0.5058(5) 0.5467(4)
C24 C 0.9791(6) 0.4706(5) 0.5323(4)
C25 C 1.0817(5) 0.3718(5) 0.5829(4)
H1 H 0.4552 0.7476 0.2040
H2 H 0.6145 0.5067 0.1163
H3 H 0.1963 0.9470 0.7699
H4 H 0.2205 1.0142 0.6001
H5 H 0.1055 0.9463 0.3841
H6 H 0.0148 1.1479 0.3279
H7 H 0.1711 1.2425 0.2937
H8 H 0.4163 1.1433 0.3228
H9 H 0.5099 0.9421 0.3797
H10 H 0.9121 0.3370 0.2042
H11 H 1.0472 0.2326 0.0400
H12 H 0.9682 0.0968 -0.1191
H13 H 0.7513 0.0672 -0.1169
H14 H 0.6160 0.1681 0.0473
C8A C 0.6766(4) 0.2547(4) 0.3202(3)
N1A N 0.6163(3) 0.3062(3) 0.4252(3)
C1A C 0.6572(4) 0.1965(4) 0.4694(3)
C2A C 0.6259(4) 0.2021(4) 0.5763(3)
C3A C 0.5444(4) 0.3192(4) 0.6526(3)
N2A N 0.4841(3) 0.4471(3) 0.6356(3)
C6A C 0.4108(4) 0.5320(4) 0.7328(3)
C5A C 0.4278(5) 0.4562(5) 0.8107(4)
C4A C 0.5111(5) 0.3277(4) 0.7636(4)
H1A H 0.5448 0.2524 0.7960
H2A H 0.3855 0.4933 0.8837
C7A C 0.3328(4) 0.6692(4) 0.7531(3)
C17A C 0.2484(5) 0.7386(4) 0.8588(3)
C18A C 0.1206(5) 0.7200(4) 0.8621(4)
C19A C 0.0410(5) 0.7807(5) 0.9583(4)
C20A C 0.0879(5) 0.8601(5) 1.0524(4)
C21A C 0.2143(5) 0.8781(5) 1.0501(4)
C22A C 0.2943(5) 0.8188(5) 0.9539(4)
H14A H 0.3840 0.8319 0.9527
H13A H 0.2487 0.9328 1.1169
H12A H 0.0318 0.9032 1.1191
H11A H -0.0472 0.7674 0.9600
H10A H 0.0879 0.6630 0.7958
C11A C 0.6833(5) 0.0740(4) 0.6113(3)
C12A C 0.8301(5) 0.0125(4) 0.6276(4)
C13A C 0.8829(5) -0.1039(4) 0.6622(4)
C14A C 0.7917(5) -0.1607(4) 0.6813(4)
C15A C 0.6468(5) -0.1017(4) 0.6651(4)
C16A C 0.5918(5) 0.0154(4) 0.6308(3)
H9A H 0.4901 0.0579 0.6203
H8A H 0.5837 -0.1433 0.6772
H7A H 0.8289 -0.2425 0.7063
H6A H 0.9852 -0.1479 0.6721
H5A H 0.8945 0.0537 0.6159
C10A C 0.7398(5) 0.0753(4) 0.3886(4)
C9A C 0.7525(4) 0.1120(4) 0.2984(3)
H3A H 0.8037 0.0530 0.2301
H4A H 0.7795 -0.0142 0.3999
C24A C 1.0209(6) 0.5294(5) 0.4677(4)
C23A C 1.1704(5) 0.4942(5) 0.4533(4)
N3A N 1.2867(4) 0.4688(4) 0.4363(3)
C25A C 0.9183(5) 0.6282(5) 0.4171(4)
N4A N 0.8449(6) 0.7064(5) 0.3751(4)
N3A_2 N 0.2867(4) 0.4688(4) 0.4363(3)
Mn1_2 Mn 1.5000 0.5000 0.5000
C26 C 0.7704(5) 0.5814(5) 0.9110(4)
C27 C 0.6967(5) 0.6908(5) 0.8693(4)
C28 C 0.6509(5) 0.8214(5) 0.9403(5)
C29 C 0.6771(5) 0.8437(6) 1.0553(5)
C30 C 0.7493(6) 0.7360(7) 1.0980(4)
C31 C 0.7971(6) 0.6064(6) 1.0263(5)
C32 C 0.8225(6) 0.4401(6) 0.8330(5)
H15 H 0.6756 0.6754 0.7887
H16 H 0.6001 0.8980 0.9094
H17 H 0.6443 0.9379 1.1053
H18 H 0.7665 0.7509 1.1786
H19 H 0.8522 0.5293 1.0566
H20 H 0.7579 0.3934 0.8264
H21 H 0.9139 0.3858 0.8595
H22 H 0.8368 0.4411 0.7587
loop_
_geom_bond_atom_site_label_1
_geom_bond_atom_site_label_2
_geom_bond_site_symmetry_1
_geom_bond_site_symmetry_2
Mn1 N1 1_555 1_555
N1 C1 1_555 1_555
N2 Mn1 1_555 1_555
N3 Mn1 1_555 1_555
N4 C25 1_555 1_555
C1 C2 1_555 1_555
C2 C3 1_555 1_555
C3 N2 1_555 1_555
C4 C3 1_555 1_555
C5 C4 1_555 1_555
C6 N2 1_555 1_555
C7 C6 1_555 1_555
C8 N1 1_555 1_555
C9 C8 1_555 1_555
C10 C1 1_555 1_555
C11 C2 1_555 1_555
C12 C11 1_555 1_555
C13 C12 1_555 1_555
C14 C13 1_555 1_555
C15 C14 1_555 1_555
C16 C11 1_555 1_555
C17 C7 1_555 1_555
C18 C17 1_555 1_555
C19 C18 1_555 1_555
C20 C19 1_555 1_555
C21 C20 1_555 1_555
C22 C17 1_555 1_555
C23 N3 1_555 1_555
C24 C23 1_555 1_555
C25 C24 1_555 1_555
C26 C27 1_555 1_555
C27 C28 1_555 1_555
C28 C29 1_555 1_555
C29 C30 1_555 1_555
C30 C31 1_555 1_555
C31 C26 1_555 1_555
C32 C26 1_555 1_555
H1 C4 1_555 1_555
H2 C5 1_555 1_555
H3 C9 1_555 1_555
H4 C10 1_555 1_555
H5 C12 1_555 1_555
H6 C13 1_555 1_555
H7 C14 1_555 1_555
H8 C15 1_555 1_555
H9 C16 1_555 1_555
H10 C18 1_555 1_555
H11 C19 1_555 1_555
H12 C20 1_555 1_555
H13 C21 1_555 1_555
H14 C22 1_555 1_555
H15 C27 1_555 1_555
H16 C28 1_555 1_555
H17 C29 1_555 1_555
H18 C30 1_555 1_555
H19 C31 1_555 1_555
H20 C32 1_555 1_555
H21 C32 1_555 1_555
H22 C32 1_555 1_555
C8A C7 1_555 1_555
N1A Mn1 1_555 1_555
C1A N1A 1_555 1_555
C2A C1A 1_555 1_555
C3A C2A 1_555 1_555
N2A Mn1 1_555 1_555
C6A N2A 1_555 1_555
C5A C6A 1_555 1_555
C4A C3A 1_555 1_555
H1A C4A 1_555 1_555
H2A C5A 1_555 1_555
C7A C8 1_555 1_555
C17A C7A 1_555 1_555
C18A C17A 1_555 1_555
C19A C18A 1_555 1_555
C20A C19A 1_555 1_555
C21A C20A 1_555 1_555
C22A C17A 1_555 1_555
H14A C22A 1_555 1_555
H13A C21A 1_555 1_555
H12A C20A 1_555 1_555
H11A C19A 1_555 1_555
H10A C18A 1_555 1_555
C11A C2A 1_555 1_555
C12A C11A 1_555 1_555
C13A C12A 1_555 1_555
C14A C13A 1_555 1_555
C15A C14A 1_555 1_555
C16A C11A 1_555 1_555
H9A C16A 1_555 1_555
H8A C15A 1_555 1_555
H7A C14A 1_555 1_555
H6A C13A 1_555 1_555
H5A C12A 1_555 1_555
C10A C1A 1_555 1_555
C9A C8A 1_555 1_555
H3A C9A 1_555 1_555
H4A C10A 1_555 1_555
C24A C24 1_555 1_555
C23A C24A 1_555 1_555
N3A C23A 1_555 1_555
C25A C24A 1_555 1_555
N4A C25A 1_555 1_555
N3A_2 Mn1 1_555 1_555
Mn1_2 N3A 1_555 1_555
C5 C6 1_555 1_555
C9 C10 1_555 1_555
C15 C16 1_555 1_555
C21 C22 1_555 1_555
C8A N1A 1_555 1_555
C3A N2A 1_555 1_555
C6A C7A 1_555 1_555
C5A C4A 1_555 1_555
C21A C22A 1_555 1_555
C15A C16A 1_555 1_555
C10A C9A 1_555 1_555

#END
