
#######################################################################
#
#                 Cambridge Crystallographic Data Centre
#                                CCDC 
#
#######################################################################
#
# If this CIF has been generated from an entry in the Cambridge 
# Structural Database, then it will include bibliographic, chemical, 
# crystal, experimental, refinement or atomic coordinate data resulting 
# from the CCDC's data processing and validation procedures.
#
#######################################################################

data_YAHLOJ
_symmetry_cell_setting           triclinic
_symmetry_space_group_name_H-M   'P -1'
_symmetry_Int_Tables_number      2
_space_group_name_Hall           '-P 1'
loop_
_symmetry_equiv_pos_site_id
_symmetry_equiv_pos_as_xyz
1 x,y,z
2 -x,-y,-z
_cell_length_a                   5.1909(19)
_cell_length_b                   9.535(4)
_cell_length_c                   10.775(3)
_cell_angle_alpha                86.18(3)
_cell_angle_beta                 84.58(3)
_cell_angle_gamma                75.79(3)
_cell_volume                     514.16
loop_
_atom_site_label
_atom_site_type_symbol
_atom_site_fract_x
_atom_site_fract_y
_atom_site_fract_z
Zn1 Zn 0.28995(16) 0.31810(10) 0.04646(8)
O1 O 0.5514(8) 0.2838(5) -0.0929(4)
O2 O 0.6751(8) 0.5217(4) -0.1443(4)
O3 O 0.9850(8) 0.2914(5) -0.2153(4)
H1 H 0.916(12) 0.311(7) -0.294(6)
O4 O 0.9254(8) 0.3397(5) 0.0105(4)
O5 O 0.2453(9) 0.3339(5) 0.5012(4)
O6 O -0.1718(9) 0.3245(5) 0.5672(4)
P1 P 0.7793(3) 0.3609(2) -0.10627(16)
N1 N 0.3564(10) 0.1445(6) 0.1633(5)
N2 N 0.5564(11) -0.0623(6) 0.2483(6)
H2 H 0.6798 -0.1420 0.2619
N3 N -0.3515(10) 0.4474(6) 0.3496(5)
H3 H -0.3569 0.5346 0.3808
H4 H -0.4673 0.4041 0.3970
H5 H -0.3985 0.4610 0.2696
C1 C 0.5675(13) 0.0334(7) 0.1562(6)
H6 H 0.7091 0.0242 0.0923
C2 C 0.3179(13) -0.0173(8) 0.3210(6)
H7 H 0.2532 -0.0665 0.3923
C3 C 0.1984(13) 0.1120(7) 0.2679(6)
C4 C -0.0749(12) 0.2080(7) 0.2991(6)
H8 H -0.1742 0.1550 0.3607
H9 H -0.1720 0.2272 0.2226
C5 C -0.0755(12) 0.3532(7) 0.3520(6)
H10 H 0.0491 0.3999 0.2972
C6 C 0.0079(13) 0.3376(7) 0.4826(6)
Zn1A Zn 0.71005(16) 0.68190(10) -0.04646(8)
Zn1_2 Zn 1.28995(16) 0.31810(10) 0.04646(8)
O2A O 0.3249(8) 0.4783(4) 0.1443(4)
O4_2 O -0.0746(8) 0.3397(5) 0.0105(4)
loop_
_geom_bond_atom_site_label_1
_geom_bond_atom_site_label_2
_geom_bond_site_symmetry_1
_geom_bond_site_symmetry_2
Zn1 O1 1_555 1_555
O1 P1 1_555 1_555
O2 P1 1_555 1_555
O3 H1 1_555 1_555
O4 P1 1_555 1_555
O5 C6 1_555 1_555
O6 C6 1_555 1_555
P1 O3 1_555 1_555
N1 Zn1 1_555 1_555
N2 H2 1_555 1_555
N3 H3 1_555 1_555
H4 N3 1_555 1_555
H5 N3 1_555 1_555
C1 N1 1_555 1_555
H6 C1 1_555 1_555
C2 N2 1_555 1_555
H7 C2 1_555 1_555
C3 N1 1_555 1_555
C4 C3 1_555 1_555
H8 C4 1_555 1_555
H9 C4 1_555 1_555
C5 N3 1_555 1_555
H10 C5 1_555 1_555
C6 C5 1_555 1_555
Zn1A O2 1_555 1_555
Zn1_2 O4 1_555 1_555
O2A Zn1 1_555 1_555
O4_2 Zn1 1_555 1_555
N2 C1 1_555 1_555
C2 C3 1_555 1_555
C4 C5 1_555 1_555

#END
