
#######################################################################
#
#                 Cambridge Crystallographic Data Centre
#                                CCDC 
#
#######################################################################
#
# If this CIF has been generated from an entry in the Cambridge 
# Structural Database, then it will include bibliographic, chemical, 
# crystal, experimental, refinement or atomic coordinate data resulting 
# from the CCDC's data processing and validation procedures.
#
#######################################################################

data_YAHPAY
_symmetry_cell_setting           monoclinic
_symmetry_space_group_name_H-M   'P 21'
_symmetry_Int_Tables_number      4
_space_group_name_Hall           'P 2yb'
loop_
_symmetry_equiv_pos_site_id
_symmetry_equiv_pos_as_xyz
1 x,y,z
2 -x,1/2+y,-z
_cell_length_a                   9.509(2)
_cell_length_b                   5.206(2)
_cell_length_c                   8.189(2)
_cell_angle_alpha                90
_cell_angle_beta                 109.40(2)
_cell_angle_gamma                90
_cell_volume                     382.37
loop_
_atom_site_label
_atom_site_type_symbol
_atom_site_fract_x
_atom_site_fract_y
_atom_site_fract_z
Cu1 Cu 0.24883(3) 0.2500 0.14352(3)
Cl1 Cl 0.45124(7) 0.4848(2) 0.29096(8)
O1 O 0.2864(3) 0.0006(5) 0.3371(3)
O2 O 0.1120(2) -0.0016(4) -0.0018(2)
O3 O -0.0870(2) -0.0193(6) -0.2393(2)
N1 N 0.2013(2) 0.4565(4) -0.0731(2)
C1 C 0.0296(3) 0.0852(5) -0.1491(3)
C2 C 0.0814(2) 0.3251(5) -0.2147(3)
C3 C 0.1521(3) 0.2667(8) -0.3540(3)
C4 C 0.2603(3) 0.4866(7) -0.3353(3)
C5 C 0.3256(3) 0.5171(9) -0.1404(4)
H1 H 0.006(5) 0.435(17) -0.264(6)
H2 H 0.085(4) 0.260(13) -0.465(4)
H3 H 0.192(5) 0.128(10) -0.339(6)
H4 H 0.209(5) 0.665(10) -0.379(5)
H5 H 0.326(3) 0.441(8) -0.378(4)
H6 H 0.353(6) 0.681(11) -0.103(6)
H7 H 0.400(5) 0.417(11) -0.091(6)
H8 H 0.169(4) 0.590(9) -0.040(4)
H9 H 0.372(5) 0.023(13) 0.407(5)
O3A O 0.0870(2) 0.4807(6) 0.2393(2)
Cu1A Cu -0.24883(3) -0.2500 -0.14352(3)
loop_
_geom_bond_atom_site_label_1
_geom_bond_atom_site_label_2
_geom_bond_site_symmetry_1
_geom_bond_site_symmetry_2
Cu1 Cl1 1_555 1_555
O1 Cu1 1_555 1_555
O2 Cu1 1_555 1_555
O3 C1 1_555 1_555
N1 Cu1 1_555 1_555
C1 O2 1_555 1_555
C2 N1 1_555 1_555
C3 C2 1_555 1_555
C4 C3 1_555 1_555
C5 N1 1_555 1_555
H1 C2 1_555 1_555
H2 C3 1_555 1_555
H3 C3 1_555 1_555
H4 C4 1_555 1_555
H5 C4 1_555 1_555
H6 C5 1_555 1_555
H7 C5 1_555 1_555
H8 N1 1_555 1_555
H9 O1 1_555 1_555
O3A Cu1 1_555 1_555
Cu1A O3 1_555 1_555
C1 C2 1_555 1_555
C4 C5 1_555 1_555

#END
