
#######################################################################
#
#                 Cambridge Crystallographic Data Centre
#                                CCDC 
#
#######################################################################
#
# If this CIF has been generated from an entry in the Cambridge 
# Structural Database, then it will include bibliographic, chemical, 
# crystal, experimental, refinement or atomic coordinate data resulting 
# from the CCDC's data processing and validation procedures.
#
#######################################################################

data_YAHPON
_symmetry_cell_setting           monoclinic
_symmetry_space_group_name_H-M   'C 2/c'
_symmetry_Int_Tables_number      15
_space_group_name_Hall           '-C 2yn'
loop_
_symmetry_equiv_pos_site_id
_symmetry_equiv_pos_as_xyz
1 x,y,z
2 1/2+x,1/2+y,z
3 -x,y,1/2-z
4 1/2-x,1/2+y,1/2-z
5 -x,-y,-z
6 1/2-x,1/2-y,-z
7 x,-y,1/2+z
8 1/2+x,1/2-y,1/2+z
_cell_length_a                   22.500(3)
_cell_length_b                   20.053(3)
_cell_length_c                   19.625(3)
_cell_angle_alpha                90.00
_cell_angle_beta                 99.314(3)
_cell_angle_gamma                90.00
_cell_volume                     8737.91
loop_
_atom_site_label
_atom_site_type_symbol
_atom_site_fract_x
_atom_site_fract_y
_atom_site_fract_z
Ni1 Ni 0.14128(2) 0.38749(3) 0.89489(3)
Ni2 Ni -0.35670(2) 0.39103(3) 0.90756(3)
N1 N 0.04900(16) 0.3929(2) 0.89676(18)
N2 N -0.26464(16) 0.39639(19) 0.90171(17)
N3 N 0.23392(16) 0.3842(2) 0.89326(18)
N4 N 0.54954(15) 0.39075(19) 0.90343(17)
N5 N -0.2089(2) 0.3603(3) 1.3705(2)
N6 N -0.33051(17) 0.3780(2) 1.01436(18)
O1 O 0.14371(15) 0.49151(16) 0.91294(15)
O2 O 0.12561(13) 0.45190(15) 0.80823(14)
O3 O 0.15091(15) 0.34572(17) 0.99235(15)
O4 O 0.12833(14) 0.30039(16) 0.84265(15)
O5 O 0.12439(13) -0.05379(15) 0.81050(15)
O6 O 0.14067(14) -0.00519(16) 0.91154(14)
O7 O 0.13981(15) 0.79865(16) 0.86695(17)
O8 O 0.1513(3) 0.2339(2) 0.9319(2)
O9 O 0.0345(3) 0.2021(2) 0.6251(2)
H1 H 0.0194 0.2034 0.5830
O10 O 0.0225(2) 0.0929(2) 0.61072(19)
O11 O 0.0567(3) 0.7169(2) 0.6348(2)
H2 H 0.0418 0.7210 0.5930
O12 O 0.0433(2) 0.6084(2) 0.6135(2)
O13 O 0.1085(2) 0.73808(19) 0.94828(18)
C1 C 0.0091(2) 0.3779(3) 0.8408(2)
H3 H 0.0241 0.3641 0.8005
C2 C 0.0273(2) 0.4114(3) 0.9518(2)
H4 H 0.0547 0.4226 0.9922
C3 C -0.0527(2) 0.3812(3) 0.8379(3)
H5 H -0.0791 0.3710 0.7963
C4 C -0.0337(2) 0.4153(3) 0.9537(3)
H6 H -0.0474 0.4288 0.9949
C5 C -0.0751(2) 0.3993(3) 0.8952(2)
C6 C -0.14070(19) 0.4001(2) 0.8958(2)
C7 C -0.1818(2) 0.3640(3) 0.8484(2)
H7 H -0.1677 0.3393 0.8129
C8 C -0.1648(2) 0.4352(3) 0.9452(2)
H8 H -0.1394 0.4612 0.9784
C9 C -0.2419(2) 0.3640(2) 0.8528(2)
H9 H -0.2686 0.3397 0.8193
C10 C -0.2254(2) 0.4326(3) 0.9462(2)
H10 H -0.2408 0.4578 0.9803
C11 C 0.2555(2) 0.3964(3) 0.8357(2)
H11 H 0.2276 0.4040 0.7946
C12 C 0.2744(2) 0.3704(3) 0.9482(3)
H12 H 0.2603 0.3596 0.9899
C13 C 0.3158(2) 0.3986(3) 0.8319(2)
H13 H 0.3287 0.4079 0.7891
C14 C 0.3356(2) 0.3707(3) 0.9491(3)
H14 H 0.3621 0.3595 0.9902
C15 C 0.35826(19) 0.3870(2) 0.8911(2)
C16 C 0.42391(19) 0.3906(2) 0.8933(2)
C17 C 0.4505(2) 0.3744(3) 0.8382(2)
H15 H 0.4266 0.3634 0.7952
C18 C 0.4616(2) 0.4092(3) 0.9532(3)
H16 H 0.4452 0.4222 0.9928
C19 C 0.5125(2) 0.3741(3) 0.8454(2)
H17 H 0.5302 0.3613 0.8066
C20 C 0.5232(2) 0.4088(3) 0.9550(2)
H18 H 0.5480 0.4225 0.9965
C21 C -0.3354(2) 0.4286(2) 1.0571(2)
H19 H -0.3553 0.4680 1.0389
C22 C -0.3016(2) 0.3236(3) 1.0416(2)
H20 H -0.2980 0.2868 1.0120
C23 C -0.3128(2) 0.4261(3) 1.1262(2)
H21 H -0.3181 0.4630 1.1549
C24 C -0.2766(2) 0.3182(3) 1.1104(2)
H22 H -0.2556 0.2788 1.1271
C25 C -0.2822(2) 0.3701(2) 1.1546(2)
C26 C -0.2567(2) 0.3665(3) 1.2297(2)
C27 C -0.2402(2) 0.4227(3) 1.2673(3)
H23 H -0.2453 0.4653 1.2459
C28 C -0.2488(2) 0.3064(3) 1.2642(3)
H24 H -0.2594 0.2657 1.2406
C29 C -0.2161(3) 0.4175(3) 1.3369(3)
H25 H -0.2042 0.4573 1.3616
C30 C -0.2250(3) 0.3064(3) 1.3341(3)
H26 H -0.2200 0.2646 1.3571
C31 C 0.1284(2) 0.5006(2) 0.8491(2)
C32 C 0.1138(2) 0.5689(2) 0.8220(2)
C33 C 0.1212(2) 0.6233(2) 0.8663(2)
H27 H 0.1333 0.6163 0.9144
C34 C 0.0922(2) 0.5789(3) 0.7525(2)
H28 H 0.0847 0.5419 0.7221
C35 C 0.1113(2) 0.6878(2) 0.8412(2)
C36 C 0.0815(2) 0.6434(3) 0.7275(2)
C37 C 0.0923(2) 0.6972(3) 0.7713(2)
H29 H 0.0868 0.7411 0.7533
C38 C 0.1202(2) 0.7455(3) 0.8901(2)
C39 C 0.0583(3) 0.6528(3) 0.6519(3)
C40 C 0.1329(3) 0.2442(3) 0.8704(2)
C41 C 0.1161(2) 0.1843(2) 0.8258(2)
C42 C 0.1278(2) 0.1212(2) 0.8533(2)
H30 H 0.1464 0.1167 0.9001
C43 C 0.0870(2) 0.1902(2) 0.7579(2)
H31 H 0.0779 0.2332 0.7384
C44 C 0.1130(2) 0.0646(2) 0.8142(2)
C45 C 0.0712(2) 0.1341(3) 0.7188(2)
C46 C 0.0837(2) 0.0707(2) 0.7462(2)
H32 H 0.0724 0.0322 0.7190
C47 C 0.12669(19) -0.0019(2) 0.8467(2)
C48 C 0.0401(3) 0.1392(3) 0.6457(2)
Ni2_2 Ni 0.64330(2) 0.39103(3) 0.90756(3)
Ni2A Ni 0.14330(2) -0.10897(3) 0.90756(3)
Ni2A_2 Ni 0.14330(2) 0.89103(3) 0.90756(3)
N4_2 N -0.45046(15) 0.39075(19) 0.90343(17)
O5A O -0.37561(13) 0.44621(15) 0.81050(15)
O6A O -0.35933(14) 0.49481(16) 0.91154(14)
O7A O -0.36019(15) 0.29865(16) 0.86695(17)
O14 O -0.0039(2) 0.2560(2) 1.00521(19)
loop_
_geom_bond_atom_site_label_1
_geom_bond_atom_site_label_2
_geom_bond_site_symmetry_1
_geom_bond_site_symmetry_2
Ni1 N1 1_555 1_555
Ni2 N2 1_555 1_555
N1 C1 1_555 1_555
N2 C9 1_555 1_555
N3 Ni1 1_555 1_555
N4 C19 1_555 1_555
N5 C29 1_555 1_555
N6 Ni2 1_555 1_555
O1 Ni1 1_555 1_555
O2 Ni1 1_555 1_555
O3 Ni1 1_555 1_555
O4 Ni1 1_555 1_555
O5 C47 1_555 1_555
O6 C47 1_555 1_555
O7 C38 1_555 1_555
O8 C40 1_555 1_555
O9 H1 1_555 1_555
O10 C48 1_555 1_555
O11 H2 1_555 1_555
O12 C39 1_555 1_555
O13 C38 1_555 1_555
C1 H3 1_555 1_555
C2 N1 1_555 1_555
H4 C2 1_555 1_555
C3 C1 1_555 1_555
H5 C3 1_555 1_555
C4 C2 1_555 1_555
H6 C4 1_555 1_555
C5 C3 1_555 1_555
C6 C5 1_555 1_555
C7 C6 1_555 1_555
H7 C7 1_555 1_555
C8 C6 1_555 1_555
H8 C8 1_555 1_555
C9 C7 1_555 1_555
H9 C9 1_555 1_555
C10 N2 1_555 1_555
H10 C10 1_555 1_555
C11 N3 1_555 1_555
H11 C11 1_555 1_555
C12 N3 1_555 1_555
H12 C12 1_555 1_555
C13 C11 1_555 1_555
H13 C13 1_555 1_555
C14 C12 1_555 1_555
H14 C14 1_555 1_555
C15 C13 1_555 1_555
C16 C15 1_555 1_555
C17 C16 1_555 1_555
H15 C17 1_555 1_555
C18 C16 1_555 1_555
H16 C18 1_555 1_555
C19 C17 1_555 1_555
H17 C19 1_555 1_555
C20 N4 1_555 1_555
H18 C20 1_555 1_555
C21 N6 1_555 1_555
H19 C21 1_555 1_555
C22 N6 1_555 1_555
H20 C22 1_555 1_555
C23 C21 1_555 1_555
H21 C23 1_555 1_555
C24 C22 1_555 1_555
H22 C24 1_555 1_555
C25 C23 1_555 1_555
C26 C25 1_555 1_555
C27 C26 1_555 1_555
H23 C27 1_555 1_555
C28 C26 1_555 1_555
H24 C28 1_555 1_555
C29 C27 1_555 1_555
H25 C29 1_555 1_555
C30 N5 1_555 1_555
H26 C30 1_555 1_555
C31 O1 1_555 1_555
C32 C31 1_555 1_555
C33 C32 1_555 1_555
H27 C33 1_555 1_555
C34 C32 1_555 1_555
H28 C34 1_555 1_555
C35 C33 1_555 1_555
C36 C34 1_555 1_555
C37 C35 1_555 1_555
H29 C37 1_555 1_555
C38 C35 1_555 1_555
C39 O11 1_555 1_555
C40 O4 1_555 1_555
C41 C40 1_555 1_555
C42 C41 1_555 1_555
H30 C42 1_555 1_555
C43 C41 1_555 1_555
H31 C43 1_555 1_555
C44 C42 1_555 1_555
C45 C43 1_555 1_555
C46 C44 1_555 1_555
H32 C46 1_555 1_555
C47 C44 1_555 1_555
C48 O9 1_555 1_555
Ni2_2 N4 1_555 1_555
Ni2A O5 1_555 1_555
Ni2A_2 O7 1_555 1_555
N4_2 Ni2 1_555 1_555
O5A Ni2 1_555 1_555
O6A Ni2 1_555 1_555
O7A Ni2 1_555 1_555
O2 C31 1_555 1_555
O6 Ni2A 1_555 1_555
C4 C5 1_555 1_555
C8 C10 1_555 1_555
C14 C15 1_555 1_555
C18 C20 1_555 1_555
C24 C25 1_555 1_555
C28 C30 1_555 1_555
C36 C37 1_555 1_555
C36 C39 1_555 1_555
C45 C46 1_555 1_555
C45 C48 1_555 1_555

#END
