
#######################################################################
#
#                 Cambridge Crystallographic Data Centre
#                                CCDC 
#
#######################################################################
#
# If this CIF has been generated from an entry in the Cambridge 
# Structural Database, then it will include bibliographic, chemical, 
# crystal, experimental, refinement or atomic coordinate data resulting 
# from the CCDC's data processing and validation procedures.
#
#######################################################################

data_YAHPAZ
_symmetry_cell_setting           triclinic
_symmetry_space_group_name_H-M   'P -1'
_symmetry_Int_Tables_number      2
_space_group_name_Hall           '-P 1'
loop_
_symmetry_equiv_pos_site_id
_symmetry_equiv_pos_as_xyz
1 x,y,z
2 -x,-y,-z
_cell_length_a                   12.1362(11)
_cell_length_b                   16.705(2)
_cell_length_c                   17.7897(16)
_cell_angle_alpha                74.203(6)
_cell_angle_beta                 74.938(7)
_cell_angle_gamma                73.106(6)
_cell_volume                     3256
loop_
_atom_site_label
_atom_site_type_symbol
_atom_site_fract_x
_atom_site_fract_y
_atom_site_fract_z
N4 N 0.3282(9) 0.5286(5) 0.3085(6)
C44 C 0.3970(8) 0.5779(7) 0.2502(5)
H47 H 0.4477 0.5552 0.2080
C45 C 0.3900(8) 0.6609(6) 0.2551(5)
H48 H 0.4360 0.6938 0.2161
C46 C 0.3142(8) 0.6947(4) 0.3182(6)
H49 H 0.3095 0.7503 0.3214
C47 C 0.2454(7) 0.6455(6) 0.3764(5)
H50 H 0.1947 0.6682 0.4186
C48 C 0.2524(8) 0.5625(5) 0.3716(5)
H51 H 0.2064 0.5295 0.4105
N5 N 1.0422(10) 0.2526(8) 0.7634(7)
C49 C 1.0371(12) 0.3420(9) 0.7386(8)
H52 H 1.0928 0.3622 0.6965
C50 C 0.9500(13) 0.3972(10) 0.7772(9)
H53 H 0.9468 0.4556 0.7610
C51 C 0.8695(12) 0.3701(10) 0.8374(8)
H54 H 0.8104 0.4095 0.8624
C52 C 0.8724(12) 0.2862(10) 0.8626(8)
H55 H 0.8138 0.2687 0.9040
C53 C 0.9591(12) 0.2262(9) 0.8289(8)
H56 H 0.9627 0.1682 0.8494
C54 C 0.5787(11) 0.5079(7) 0.4548(7)
C55 C 0.5083(6) 0.5907(9) 0.4435(7)
C56 C 0.5592(9) 0.6600(6) 0.4087(7)
C57 C 0.6805(9) 0.6466(6) 0.3852(6)
C58 C 0.7509(6) 0.5638(8) 0.3965(6)
C59 C 0.7000(10) 0.4945(5) 0.4312(7)
Ce1 Ce 0.67110(3) 0.81216(3) 0.74632(2)
Na1 Na 0.9441(2) 0.67431(19) 0.83117(16)
Na2 Na 0.8633(2) 0.98365(18) 0.61091(15)
Na3 Na 0.6057(2) 0.9192(2) 0.94014(16)
S1 S 0.75894(17) 0.62645(13) 0.78701(11)
S2 S 0.72694(15) 0.75770(13) 0.90381(10)
S3 S 0.50082(18) 0.72228(14) 0.99040(11)
S4 S 0.53724(18) 0.58448(14) 0.86670(13)
C1 C 0.6351(6) 0.6468(5) 0.8626(4)
C2 C 0.6207(6) 0.7008(5) 0.9118(4)
C3 C 0.4344(9) 0.6345(7) 1.0109(6)
H1 H 0.4858 0.5833 1.0356
H2 H 0.3613 0.6453 1.0490
C4 C 0.4098(8) 0.6181(7) 0.9397(7)
H3 H 0.3606 0.6700 0.9142
H4 H 0.3653 0.5743 0.9572
S5 S 0.73109(16) 0.87561(12) 0.57382(10)
S6 S 0.92633(15) 0.79857(12) 0.69118(10)
S7 S 1.00792(17) 0.64023(13) 0.63395(11)
S8 S 0.81814(18) 0.72806(14) 0.50185(11)
C5 C 0.8327(6) 0.7750(5) 0.5761(4)
C6 C 0.9089(6) 0.7422(5) 0.6276(4)
C7 C 0.9478(7) 0.5841(5) 0.5883(5)
H5 H 0.9991 0.5276 0.5871
H6 H 0.8721 0.5767 0.6205
C8 C 0.9324(7) 0.6299(5) 0.5041(5)
H7 H 0.9130 0.5922 0.4792
H8 H 1.0060 0.6431 0.4733
S9 S 0.45990(15) 0.90085(12) 0.84096(10)
S10 S 0.70006(14) 0.97404(12) 0.76100(10)
S11 S 0.59238(15) 1.08542(12) 0.62789(10)
S12 S 0.34026(15) 1.01447(13) 0.71795(11)
C9 C 0.4744(6) 0.9788(5) 0.7515(4)
C10 C 0.5734(6) 1.0078(5) 0.7184(4)
C11 C 0.4837(6) 1.0785(6) 0.5797(4)
H9 H 0.4863 1.1189 0.5288
H10 H 0.5020 1.0215 0.5695
C12 C 0.3617(6) 1.0973(5) 0.6291(4)
H11 H 0.3052 1.1030 0.5970
H12 H 0.3470 1.1514 0.6445
N1 N 0.5035(5) 0.7633(4) 0.7056(3)
C13 C 0.3919(6) 0.7709(5) 0.7434(4)
H13 H 0.3637 0.8034 0.7823
C14 C 0.3164(7) 0.7329(6) 0.7276(5)
H14 H 0.2390 0.7405 0.7551
C15 C 0.3559(9) 0.6835(6) 0.6709(6)
H15 H 0.3071 0.6561 0.6599
C16 C 0.4711(8) 0.6766(7) 0.6312(5)
H16 H 0.5007 0.6456 0.5912
C17 C 0.5419(8) 0.7154(6) 0.6508(5)
H17 H 0.6201 0.7080 0.6248
N2 N 1.0171(5) 0.7744(5) 0.8822(4)
C18 C 1.1080(8) 0.7579(7) 0.9182(6)
H18 H 1.1392 0.7014 0.9412
C19 C 1.1577(9) 0.8210(8) 0.9229(7)
H19 H 1.2192 0.8069 0.9499
C20 C 1.1151(9) 0.9041(8) 0.8873(6)
H20 H 1.1497 0.9473 0.8866
C21 C 1.0195(9) 0.9217(7) 0.8527(5)
H21 H 0.9848 0.9778 0.8308
C22 C 0.9760(8) 0.8555(7) 0.8510(5)
H22 H 0.9126 0.8688 0.8259
N3 N 1.0973(6) 0.5495(4) 0.8632(4)
C25 C 1.2445(9) 0.3913(5) 0.9114(5)
C28 C 1.1644(14) 0.5035(11) 0.8090(10)
C29 C 1.2492(15) 0.4256(11) 0.8278(10)
C30 C 1.2107(14) 0.4515(11) 0.9562(9)
C31 C 1.1279(13) 0.5265(10) 0.9344(9)
O1 O 0.7587(6) 0.9631(4) 0.9741(4)
O2 O 0.6661(5) 0.8317(4) 1.0717(3)
O3 O 0.4252(5) 0.9075(4) 1.0797(4)
O4 O 0.8510(4) 1.0804(3) 0.4799(3)
O5 O 0.8625(4) 1.1319(3) 0.6123(3)
O6 O 1.0311(4) 0.9900(3) 0.6619(3)
C32 C 0.8099(8) 0.9162(7) 1.0412(5)
H23 H 0.7759 0.9448 1.0855
H24 H 0.8939 0.9117 1.0283
C33 C 0.7857(7) 0.8294(6) 1.0626(5)
H25 H 0.8311 0.7983 1.0215
H26 H 0.8116 0.7984 1.1120
C34 C 0.5920(8) 0.8639(6) 1.1392(4)
H27 H 0.5892 0.9241 1.1320
H28 H 0.6224 0.8330 1.1871
C35 C 0.4742(9) 0.8523(6) 1.1465(5)
H29 H 0.4787 0.7931 1.1474
H30 H 0.4245 0.8662 1.1957
C36 C 0.3094(10) 0.8947(8) 1.0974(7)
H31 H 0.3121 0.8345 1.1049
H32 H 0.2652 0.9138 1.1458
C37 C 0.7430(11) 1.0581(8) 0.9664(6)
H33 H 0.8190 1.0702 0.9591
H34 H 0.6948 1.0747 1.0151
C38 C 0.8337(6) 1.1692(5) 0.4795(4)
H35 H 0.7516 1.1938 0.4988
H36 H 0.8572 1.2006 0.4259
C39 C 0.9073(6) 1.1739(5) 0.5328(4)
H37 H 0.9887 1.1457 0.5156
H38 H 0.9032 1.2332 0.5313
C40 C 0.9264(6) 1.1318(5) 0.6691(4)
H39 H 0.8825 1.1149 0.7223
H40 H 0.9348 1.1894 0.6629
C41 C 1.0464(6) 1.0717(5) 0.6596(5)
H41 H 1.0950 1.0920 0.6092
H42 H 1.0846 1.0684 0.7023
C42 C 1.1387(6) 0.9253(5) 0.6575(4)
H43 H 1.1210 0.8694 0.6766
H44 H 1.1846 0.9309 0.6922
C43 C 0.7894(6) 1.0689(5) 0.4260(4)
H45 H 0.7703 1.0134 0.4449
H46 H 0.7163 1.1124 0.4254
Ce1A Ce 0.32890(3) 1.18784(3) 1.25368(2)
Ce1A_2 Ce 1.32890(3) 1.18784(3) 0.25368(2)
Na1A Na 0.0559(2) 1.32569(19) 1.16883(16)
Na1A_2 Na 1.0559(2) 1.32569(19) 0.16883(16)
Na2A Na 1.1367(2) 1.01635(18) 0.38909(15)
Na3A Na 0.3943(2) 1.0808(2) 1.05986(16)
Na3A_2 Na 1.3943(2) 1.0808(2) 0.05986(16)
S1A S 0.24106(17) 1.37355(13) 1.21299(11)
S2A S 0.27306(15) 1.24230(13) 1.09619(10)
S3A S 0.49918(18) 1.27772(14) 1.00960(11)
S4A S 0.46276(18) 1.41552(14) 1.13330(13)
C1A C 0.3649(6) 1.3532(5) 1.1374(4)
C2A C 0.3793(6) 1.2992(5) 1.0882(4)
C3A C 0.5656(9) 1.3655(7) 0.9891(6)
H1A H 0.5142 1.4167 0.9644
H2A H 0.6387 1.3547 0.9510
C4A C 0.5902(8) 1.3819(7) 1.0603(7)
H3A H 0.6394 1.3300 1.0858
H4A H 0.6347 1.4257 1.0428
S5A S 1.26891(16) 1.12439(12) 0.42618(10)
S5A_2 S 0.26891(16) 1.12439(12) 1.42618(10)
S6A S 1.07367(15) 1.20143(12) 0.30882(10)
S6A_2 S 0.07367(15) 1.20143(12) 1.30882(10)
S7A S 0.99208(17) 1.35977(13) 0.36605(11)
S8A S 1.18186(18) 1.27194(14) 0.49815(11)
C5A C 1.1673(6) 1.2250(5) 0.4239(4)
C6A C 1.0911(6) 1.2578(5) 0.3724(4)
C7A C 1.0522(7) 1.4159(5) 0.4117(5)
H5A H 1.0009 1.4724 0.4129
H6A H 1.1279 1.4233 0.3795
C8A C 1.0676(7) 1.3701(5) 0.4959(5)
H7A H 1.0870 1.4078 0.5208
H8A H 0.9940 1.3569 0.5267
S9A S 1.54010(15) 1.09915(12) 0.15904(10)
S9A_2 S 0.54010(15) 1.09915(12) 1.15904(10)
S10A S 1.29994(14) 1.02596(12) 0.23900(10)
S10A_2 S 0.29994(14) 1.02596(12) 1.23900(10)
S11A S 1.40762(15) 0.91458(12) 0.37211(10)
S12A S 1.65974(15) 0.98553(13) 0.28205(11)
C9A C 1.5256(6) 1.0212(5) 0.2485(4)
C10A C 1.4266(6) 0.9922(5) 0.2816(4)
C11A C 1.5163(6) 0.9215(6) 0.4203(4)
H9A H 1.5137 0.8811 0.4712
H10A H 1.4980 0.9785 0.4305
C12A C 1.6383(6) 0.9027(5) 0.3709(4)
H11A H 1.6948 0.8970 0.4030
H12A H 1.6530 0.8486 0.3555
N1A N 0.4965(5) 1.2367(4) 1.2944(3)
C13A C 0.6081(6) 1.2291(5) 1.2566(4)
H13A H 0.6363 1.1966 1.2177
C14A C 0.6836(7) 1.2671(6) 1.2724(5)
H14A H 0.7610 1.2595 1.2449
C15A C 0.6441(9) 1.3165(6) 1.3291(6)
H15A H 0.6929 1.3439 1.3401
C16A C 0.5289(8) 1.3234(7) 1.3688(5)
H16A H 0.4993 1.3544 1.4088
C17A C 0.4581(8) 1.2846(6) 1.3492(5)
H17A H 0.3799 1.2920 1.3752
N2A N -0.0171(5) 1.2256(5) 1.1178(4)
C18A C -0.1080(8) 1.2421(7) 1.0818(6)
H18A H -0.1392 1.2986 1.0588
C19A C -0.1577(9) 1.1790(8) 1.0771(7)
H19A H -0.2192 1.1931 1.0501
C20A C -0.1151(9) 1.0959(8) 1.1127(6)
H20A H -0.1497 1.0527 1.1134
C21A C -0.0195(9) 1.0783(7) 1.1473(5)
H21A H 0.0152 1.0222 1.1692
C22A C 0.0240(8) 1.1445(7) 1.1490(5)
H22A H 0.0874 1.1312 1.1741
N3A N -0.0973(6) 1.4505(4) 1.1368(4)
C25A C -0.2445(9) 1.6087(5) 1.0886(5)
C28A C -0.1644(14) 1.4965(11) 1.1910(10)
C29A C -0.2492(15) 1.5744(11) 1.1722(10)
C30A C -0.2107(14) 1.5485(11) 1.0438(9)
C31A C -0.1279(13) 1.4735(10) 1.0656(9)
O1A O 0.2413(6) 1.0369(4) 1.0259(4)
O2A O 0.3339(5) 1.1683(4) 0.9283(3)
O3A O 0.5748(5) 1.0925(4) 0.9203(4)
O4A O 1.1490(4) 0.9196(3) 0.5201(3)
O5A O 1.1375(4) 0.8681(3) 0.3877(3)
O6A O 0.9689(4) 1.0100(3) 0.3381(3)
C32A C 0.1901(8) 1.0838(7) 0.9588(5)
H23A H 0.2241 1.0552 0.9145
H24A H 0.1061 1.0883 0.9717
C33A C 0.2143(7) 1.1706(6) 0.9374(5)
H25A H 0.1689 1.2017 0.9785
H26A H 0.1884 1.2016 0.8880
C34A C 0.4080(8) 1.1361(6) 0.8608(4)
H27A H 0.4108 1.0759 0.8680
H28A H 0.3776 1.1670 0.8129
C35A C 0.5258(9) 1.1477(6) 0.8535(5)
H29A H 0.5213 1.2069 0.8526
H30A H 0.5755 1.1338 0.8043
C36A C 0.6906(10) 1.1053(8) 0.9026(7)
H31A H 0.6879 1.1655 0.8951
H32A H 0.7348 1.0862 0.8542
C37A C 0.2570(11) 0.9419(8) 1.0336(6)
H33A H 0.1810 0.9298 1.0409
H34A H 0.3052 0.9253 0.9849
C38A C 1.1663(6) 0.8308(5) 0.5205(4)
H35A H 1.2484 0.8062 0.5012
H36A H 1.1428 0.7994 0.5741
C39A C 1.0927(6) 0.8261(5) 0.4672(4)
H37A H 1.0113 0.8543 0.4844
H38A H 1.0968 0.7668 0.4687
C40A C 1.0736(6) 0.8682(5) 0.3309(4)
H39A H 1.1175 0.8851 0.2777
H40A H 1.0652 0.8106 0.3371
C41A C 0.9536(6) 0.9283(5) 0.3404(5)
H41A H 0.9050 0.9080 0.3908
H42A H 0.9154 0.9316 0.2977
C42A C 0.8613(6) 1.0747(5) 0.3425(4)
H43A H 0.8790 1.1306 0.3234
H44A H 0.8154 1.0691 0.3078
C43A C 1.2106(6) 0.9311(5) 0.5740(4)
H45A H 1.2297 0.9866 0.5551
H46A H 1.2837 0.8876 0.5746
C23? C 1.0530(6) 0.4766(6) 0.8910(9)
C24? C 1.1266(10) 0.3975(4) 0.9152(9)
C26? C 1.2889(6) 0.4642(7) 0.8835(9)
C27? C 1.2153(7) 0.5433(5) 0.8594(8)
C60? C 0.7291(8) 0.5240(6) 0.4045(6)
C61? C 0.6914(9) 0.5863(7) 0.4498(5)
C62? C 0.6242(11) 0.6665(6) 0.4209(7)
C63? C 0.5946(12) 0.6843(6) 0.3467(7)
C64? C 0.6322(12) 0.6220(9) 0.3014(4)
C65? C 0.6994(11) 0.5418(8) 0.3303(5)
loop_
_geom_bond_atom_site_label_1
_geom_bond_atom_site_label_2
_geom_bond_site_symmetry_1
_geom_bond_site_symmetry_2
Ce1 S1 1_555 1_555
Na1 S1 1_555 1_555
Na2 S5 1_555 1_555
Na3 S2 1_555 1_555
S1 C1 1_555 1_555
S2 Ce1 1_555 1_555
S3 C2 1_555 1_555
S4 C1 1_555 1_555
C1 C2 1_555 1_555
C2 S2 1_555 1_555
C3 S3 1_555 1_555
H1 C3 1_555 1_555
H2 C3 1_555 1_555
C4 S4 1_555 1_555
H3 C4 1_555 1_555
H4 C4 1_555 1_555
S5 Ce1 1_555 1_555
S6 Ce1 1_555 1_555
S7 C6 1_555 1_555
S8 C5 1_555 1_555
C5 S5 1_555 1_555
C6 S6 1_555 1_555
C7 S7 1_555 1_555
H5 C7 1_555 1_555
H6 C7 1_555 1_555
C8 S8 1_555 1_555
H7 C8 1_555 1_555
H8 C8 1_555 1_555
S9 Ce1 1_555 1_555
S10 Ce1 1_555 1_555
S11 C10 1_555 1_555
S12 C9 1_555 1_555
C9 S9 1_555 1_555
C10 S10 1_555 1_555
C11 S11 1_555 1_555
H9 C11 1_555 1_555
H10 C11 1_555 1_555
C12 S12 1_555 1_555
H11 C12 1_555 1_555
H12 C12 1_555 1_555
N1 Ce1 1_555 1_555
C13 N1 1_555 1_555
H13 C13 1_555 1_555
C14 C13 1_555 1_555
H14 C14 1_555 1_555
C15 C14 1_555 1_555
H15 C15 1_555 1_555
C16 C15 1_555 1_555
H16 C16 1_555 1_555
C17 N1 1_555 1_555
H17 C17 1_555 1_555
N2 Na1 1_555 1_555
C18 N2 1_555 1_555
H18 C18 1_555 1_555
C19 C18 1_555 1_555
H19 C19 1_555 1_555
C20 C19 1_555 1_555
H20 C20 1_555 1_555
C21 C20 1_555 1_555
H21 C21 1_555 1_555
C22 N2 1_555 1_555
H22 C22 1_555 1_555
N3 Na1 1_555 1_555
C25 C29 1_555 1_555
C28 N3 1_555 1_555
C29 C28 1_555 1_555
C30 C25 1_555 1_555
C31 N3 1_555 1_555
O1 Na3 1_555 1_555
O2 Na3 1_555 1_555
O3 C35 1_555 1_555
O4 Na2 1_555 1_555
O5 Na2 1_555 1_555
O6 Na2 1_555 1_555
C32 O1 1_555 1_555
H23 C32 1_555 1_555
H24 C32 1_555 1_555
C33 O2 1_555 1_555
H25 C33 1_555 1_555
H26 C33 1_555 1_555
C34 O2 1_555 1_555
H27 C34 1_555 1_555
H28 C34 1_555 1_555
C35 C34 1_555 1_555
H29 C35 1_555 1_555
H30 C35 1_555 1_555
C36 O3 1_555 1_555
H31 C36 1_555 1_555
H32 C36 1_555 1_555
C37 O1 1_555 1_555
H33 C37 1_555 1_555
H34 C37 1_555 1_555
C38 O4 1_555 1_555
H35 C38 1_555 1_555
H36 C38 1_555 1_555
C39 O5 1_555 1_555
H37 C39 1_555 1_555
H38 C39 1_555 1_555
C40 O5 1_555 1_555
H39 C40 1_555 1_555
H40 C40 1_555 1_555
C41 O6 1_555 1_555
H41 C41 1_555 1_555
H42 C41 1_555 1_555
C42 O6 1_555 1_555
H43 C42 1_555 1_555
H44 C42 1_555 1_555
C43 O4 1_555 1_555
H45 C43 1_555 1_555
H46 C43 1_555 1_555
N4 C44 1_555 1_555
C44 H47 1_555 1_555
C45 C44 1_555 1_555
H48 C45 1_555 1_555
C46 C45 1_555 1_555
H49 C46 1_555 1_555
C47 C46 1_555 1_555
H50 C47 1_555 1_555
C48 N4 1_555 1_555
H51 C48 1_555 1_555
N5 C49 1_555 1_555
C49 H52 1_555 1_555
C50 C49 1_555 1_555
H53 C50 1_555 1_555
C51 C50 1_555 1_555
H54 C51 1_555 1_555
C52 C51 1_555 1_555
H55 C52 1_555 1_555
C53 N5 1_555 1_555
H56 C53 1_555 1_555
C54 C55 1_555 1_555
C55 C56 1_555 1_555
C56 C57 1_555 1_555
C57 C58 1_555 1_555
C58 C59 1_555 1_555
C59 C54 1_555 1_555
Ce1A S1A 1_555 1_555
Ce1A_2 S5A 1_555 1_555
Na1A S1A 1_555 1_555
Na1A_2 S6A 1_555 1_555
Na2A S5A 1_555 1_555
Na3A O3 1_555 1_555
Na3A_2 S9A 1_555 1_555
S1A C1A 1_555 1_555
S2A Ce1A 1_555 1_555
S3A C2A 1_555 1_555
S4A C1A 1_555 1_555
C1A C2A 1_555 1_555
C2A S2A 1_555 1_555
C3A S3A 1_555 1_555
H1A C3A 1_555 1_555
H2A C3A 1_555 1_555
C4A S4A 1_555 1_555
H3A C4A 1_555 1_555
H4A C4A 1_555 1_555
S5A C5A 1_555 1_555
S5A_2 Ce1A 1_555 1_555
S6A Ce1A_2 1_555 1_555
S6A_2 Ce1A 1_555 1_555
S7A C6A 1_555 1_555
S8A C5A 1_555 1_555
C5A C6A 1_555 1_555
C6A S6A 1_555 1_555
C7A S7A 1_555 1_555
H5A C7A 1_555 1_555
H6A C7A 1_555 1_555
C8A S8A 1_555 1_555
H7A C8A 1_555 1_555
H8A C8A 1_555 1_555
S9A Ce1A_2 1_555 1_555
S9A_2 Ce1A 1_555 1_555
S10A Ce1A_2 1_555 1_555
S10A_2 Ce1A 1_555 1_555
S11A C10A 1_555 1_555
S12A C9A 1_555 1_555
C9A S9A 1_555 1_555
C10A S10A 1_555 1_555
C11A S11A 1_555 1_555
H9A C11A 1_555 1_555
H10A C11A 1_555 1_555
C12A S12A 1_555 1_555
H11A C12A 1_555 1_555
H12A C12A 1_555 1_555
N1A Ce1A 1_555 1_555
C13A N1A 1_555 1_555
H13A C13A 1_555 1_555
C14A C13A 1_555 1_555
H14A C14A 1_555 1_555
C15A C14A 1_555 1_555
H15A C15A 1_555 1_555
C16A C15A 1_555 1_555
H16A C16A 1_555 1_555
C17A N1A 1_555 1_555
H17A C17A 1_555 1_555
N2A Na1A 1_555 1_555
C18A N2A 1_555 1_555
H18A C18A 1_555 1_555
C19A C18A 1_555 1_555
H19A C19A 1_555 1_555
C20A C19A 1_555 1_555
H20A C20A 1_555 1_555
C21A C20A 1_555 1_555
H21A C21A 1_555 1_555
C22A N2A 1_555 1_555
H22A C22A 1_555 1_555
N3A Na1A 1_555 1_555
C25A C29A 1_555 1_555
C28A N3A 1_555 1_555
C29A C28A 1_555 1_555
C30A C25A 1_555 1_555
C31A N3A 1_555 1_555
O1A Na3A 1_555 1_555
O2A Na3A 1_555 1_555
O3A Na3 1_555 1_555
O4A Na2A 1_555 1_555
O5A Na2A 1_555 1_555
O6A Na2A 1_555 1_555
C32A O1A 1_555 1_555
H23A C32A 1_555 1_555
H24A C32A 1_555 1_555
C33A O2A 1_555 1_555
H25A C33A 1_555 1_555
H26A C33A 1_555 1_555
C34A O2A 1_555 1_555
H27A C34A 1_555 1_555
H28A C34A 1_555 1_555
C35A O3A 1_555 1_555
H29A C35A 1_555 1_555
H30A C35A 1_555 1_555
C36A C37 1_555 1_555
H31A C36A 1_555 1_555
H32A C36A 1_555 1_555
C37A C36 1_555 1_555
H33A C37A 1_555 1_555
H34A C37A 1_555 1_555
C38A O4A 1_555 1_555
H35A C38A 1_555 1_555
H36A C38A 1_555 1_555
C39A O5A 1_555 1_555
H37A C39A 1_555 1_555
H38A C39A 1_555 1_555
C40A O5A 1_555 1_555
H39A C40A 1_555 1_555
H40A C40A 1_555 1_555
C41A O6A 1_555 1_555
H41A C41A 1_555 1_555
H42A C41A 1_555 1_555
C42A C43 1_555 1_555
H43A C42A 1_555 1_555
H44A C42A 1_555 1_555
C43A C42 1_555 1_555
H45A C43A 1_555 1_555
H46A C43A 1_555 1_555
Na1 S2 1_555 1_555
Na1 S6 1_555 1_555
Na2 S6 1_555 1_555
Na2 S10 1_555 1_555
Na3 S9 1_555 1_555
Na3 S10 1_555 1_555
C3 C4 1_555 1_555
C5 C6 1_555 1_555
C7 C8 1_555 1_555
C9 C10 1_555 1_555
C11 C12 1_555 1_555
C16 C17 1_555 1_555
C21 C22 1_555 1_555
C30 C31 1_555 1_555
C32 C33 1_555 1_555
C38 C39 1_555 1_555
C40 C41 1_555 1_555
C47 C48 1_555 1_555
C52 C53 1_555 1_555
Na1A S2A 1_555 1_555
Na1A S6A_2 1_555 1_555
Na2A S6A 1_555 1_555
Na2A S10A 1_555 1_555
Na3A S2A 1_555 1_555
Na3A S9A_2 1_555 1_555
Na3A S10A_2 1_555 1_555
Na3A_2 S10A 1_555 1_555
C3A C4A 1_555 1_555
C7A C8A 1_555 1_555
C9A C10A 1_555 1_555
C11A C12A 1_555 1_555
C16A C17A 1_555 1_555
C21A C22A 1_555 1_555
C30A C31A 1_555 1_555
O1A C37A 1_555 1_555
O3A C36A 1_555 1_555
O4A C43A 1_555 1_555
O6A C42A 1_555 1_555
C32A C33A 1_555 1_555
C34A C35A 1_555 1_555
C38A C39A 1_555 1_555
C40A C41A 1_555 1_555

#END
