
#######################################################################
#
#                 Cambridge Crystallographic Data Centre
#                                CCDC 
#
#######################################################################
#
# If this CIF has been generated from an entry in the Cambridge 
# Structural Database, then it will include bibliographic, chemical, 
# crystal, experimental, refinement or atomic coordinate data resulting 
# from the CCDC's data processing and validation procedures.
#
#######################################################################

data_YAHPIH
_symmetry_cell_setting           monoclinic
_symmetry_space_group_name_H-M   'C 2/c'
_symmetry_Int_Tables_number      15
_space_group_name_Hall           '-C 2yn'
loop_
_symmetry_equiv_pos_site_id
_symmetry_equiv_pos_as_xyz
1 x,y,z
2 1/2+x,1/2+y,z
3 -x,y,1/2-z
4 1/2-x,1/2+y,1/2-z
5 -x,-y,-z
6 1/2-x,1/2-y,-z
7 x,-y,1/2+z
8 1/2+x,1/2-y,1/2+z
_cell_length_a                   10.692(2)
_cell_length_b                   11.114(3)
_cell_length_c                   21.962(5)
_cell_angle_alpha                90.00
_cell_angle_beta                 101.699(17)
_cell_angle_gamma                90.00
_cell_volume                     2555.55
loop_
_atom_site_label
_atom_site_type_symbol
_atom_site_fract_x
_atom_site_fract_y
_atom_site_fract_z
Ni1 Ni 0.5000 0.31876(3) 0.7500
N1 N 0.5000 0.5025(2) 0.7500
N2 N 0.5000 1.1369(2) 0.7500
O1 O 0.42057(14) 0.31857(12) 0.65176(7)
O2 O 0.62555(13) 0.32204(12) 0.68934(7)
O3 O 0.3883(2) 0.3515(3) 0.36294(9)
O4 O 0.2979(2) 0.2439(3) 0.42659(9)
O5 O 0.91245(17) 0.4690(2) 0.55468(9)
O6 O 0.85146(19) 0.4531(2) 0.45219(9)
C1 C 0.53438(19) 0.32550(16) 0.64353(10)
C2 C 0.56131(19) 0.34123(19) 0.57997(10)
C3 C 0.4680(2) 0.31744(19) 0.52797(10)
C4 C 0.4915(2) 0.3355(2) 0.46892(10)
C5 C 0.6090(2) 0.3784(2) 0.46165(10)
C6 C 0.70362(19) 0.40043(19) 0.51375(10)
C7 C 0.6799(2) 0.38180(19) 0.57277(10)
C8 C 0.3894(2) 0.3121(2) 0.41323(11)
C9 C 0.8315(2) 0.4446(2) 0.50723(11)
C10 C 0.3918(2) 1.07482(19) 0.73613(11)
C11 C 0.3879(2) 0.95144(19) 0.73621(12)
C12 C 0.5000 0.8861(2) 0.7500
C13 C 0.5000 0.7534(2) 0.7500
C14 C 0.3994(2) 0.68845(18) 0.71565(11)
C15 C 0.40375(19) 0.56529(19) 0.71660(10)
H1 H 0.336(2) 0.520(2) 0.6901(12)
H2 H 0.740(2) 0.398(2) 0.6069(12)
H3 H 0.329(2) 0.726(2) 0.6905(12)
H4 H 0.317(3) 1.122(2) 0.7277(11)
H5 H 0.312(3) 0.910(3) 0.7285(13)
H6 H 0.623(2) 0.393(2) 0.4202(12)
H7 H 0.395(3) 0.286(2) 0.5334(12)
H8 H 0.227(4) 0.228(4) 0.3896(19)
H9 H 0.910(6) 0.478(5) 0.451(3)
Ni1_2 Ni 0.5000 1.31876(3) 0.7500
N2_2 N 0.5000 0.1369(2) 0.7500
O1B O 0.57943(14) 0.31857(12) 0.84824(7)
O2B O 0.37445(13) 0.32204(12) 0.81066(7)
O3B O 0.6117(2) 0.3515(3) 1.13706(9)
O4B O 0.7021(2) 0.2439(3) 1.07341(9)
O5B O 0.08755(17) 0.4690(2) 0.94532(9)
O6B O 0.14854(19) 0.4531(2) 1.04781(9)
C1B C 0.46562(19) 0.32550(16) 0.85647(10)
C2B C 0.43869(19) 0.34123(19) 0.92003(10)
C3B C 0.5320(2) 0.31744(19) 0.97203(10)
C4B C 0.5085(2) 0.3355(2) 1.03108(10)
C5B C 0.3910(2) 0.3784(2) 1.03835(10)
C6B C 0.29638(19) 0.40043(19) 0.98625(10)
C7B C 0.3201(2) 0.38180(19) 0.92723(10)
C8B C 0.6106(2) 0.3121(2) 1.08677(11)
C9B C 0.1685(2) 0.4446(2) 0.99277(11)
C10B C 0.6082(2) 1.07482(19) 0.76387(11)
C11B C 0.6121(2) 0.95144(19) 0.76379(12)
C14B C 0.6006(2) 0.68845(18) 0.78435(11)
C15B C 0.59625(19) 0.56529(19) 0.78340(10)
H1B H 0.664(2) 0.520(2) 0.8099(12)
H2B H 0.260(2) 0.398(2) 0.8931(12)
H3B H 0.671(2) 0.726(2) 0.8095(12)
H4B H 0.683(3) 1.122(2) 0.7723(11)
H5B H 0.688(3) 0.910(3) 0.7715(13)
H6B H 0.377(2) 0.393(2) 1.0798(12)
H7B H 0.605(3) 0.286(2) 0.9666(12)
H8B H 0.773(4) 0.228(4) 1.1104(19)
H9B H 0.090(6) 0.478(5) 1.049(3)
loop_
_geom_bond_atom_site_label_1
_geom_bond_atom_site_label_2
_geom_bond_site_symmetry_1
_geom_bond_site_symmetry_2
Ni1 N1 1_555 1_555
N1 C15 1_555 1_555
N2 C10 1_555 1_555
O1 Ni1 1_555 1_555
O2 Ni1 1_555 1_555
O3 C8 1_555 1_555
O4 C8 1_555 1_555
O5 C9 1_555 1_555
O6 C9 1_555 1_555
C1 O1 1_555 1_555
C2 C1 1_555 1_555
C3 C2 1_555 1_555
C4 C3 1_555 1_555
C5 C4 1_555 1_555
C6 C5 1_555 1_555
C7 C2 1_555 1_555
C8 C4 1_555 1_555
C9 C6 1_555 1_555
C10 C11 1_555 1_555
C11 C12 1_555 1_555
C12 C13 1_555 1_555
C13 C14 1_555 1_555
C14 C15 1_555 1_555
C15 H1 1_555 1_555
H2 C7 1_555 1_555
H3 C14 1_555 1_555
H4 C10 1_555 1_555
H5 C11 1_555 1_555
H6 C5 1_555 1_555
H7 C3 1_555 1_555
H8 O4 1_555 1_555
H9 O6 1_555 1_555
Ni1_2 N2 1_555 1_555
N2_2 Ni1 1_555 1_555
O1B Ni1 1_555 1_555
O2B Ni1 1_555 1_555
O3B C8B 1_555 1_555
O4B C8B 1_555 1_555
O5B C9B 1_555 1_555
O6B C9B 1_555 1_555
C1B O1B 1_555 1_555
C2B C1B 1_555 1_555
C3B C2B 1_555 1_555
C4B C3B 1_555 1_555
C5B C4B 1_555 1_555
C6B C5B 1_555 1_555
C7B C2B 1_555 1_555
C8B C4B 1_555 1_555
C9B C6B 1_555 1_555
C10B N2 1_555 1_555
C11B C12 1_555 1_555
C14B C13 1_555 1_555
C15B N1 1_555 1_555
H1B C15B 1_555 1_555
H2B C7B 1_555 1_555
H3B C14B 1_555 1_555
H4B C10B 1_555 1_555
H5B C11B 1_555 1_555
H6B C5B 1_555 1_555
H7B C3B 1_555 1_555
H8B O4B 1_555 1_555
H9B O6B 1_555 1_555
O2 C1 1_555 1_555
C6 C7 1_555 1_555
O2B C1B 1_555 1_555
C6B C7B 1_555 1_555
C10B C11B 1_555 1_555
C14B C15B 1_555 1_555

#END
