
#######################################################################
#
#                 Cambridge Crystallographic Data Centre
#                                CCDC 
#
#######################################################################
#
# If this CIF has been generated from an entry in the Cambridge 
# Structural Database, then it will include bibliographic, chemical, 
# crystal, experimental, refinement or atomic coordinate data resulting 
# from the CCDC's data processing and validation procedures.
#
#######################################################################

data_YAHQEE
_symmetry_cell_setting           triclinic
_symmetry_space_group_name_H-M   'P -1'
_symmetry_Int_Tables_number      2
_space_group_name_Hall           '-P 1'
loop_
_symmetry_equiv_pos_site_id
_symmetry_equiv_pos_as_xyz
1 x,y,z
2 -x,-y,-z
_cell_length_a                   11.9054(17)
_cell_length_b                   12.9108(19)
_cell_length_c                   20.163(3)
_cell_angle_alpha                73.556(3)
_cell_angle_beta                 80.850(3)
_cell_angle_gamma                82.126(3)
_cell_volume                     2920.75
loop_
_atom_site_label
_atom_site_type_symbol
_atom_site_fract_x
_atom_site_fract_y
_atom_site_fract_z
Mn1 Mn -0.39692(8) 0.34718(7) 0.23036(5)
Mn2 Mn 0.0000 0.0000 0.5000
Mn3 Mn 0.0000 0.0000 0.0000
O1 O -0.1718(3) -0.0403(3) 0.5338(2)
O2 O -0.5213(4) 0.1568(4) 0.5070(2)
O3 O 0.0693(3) 0.1494(3) -0.00942(19)
O4 O -0.1439(4) 0.4793(3) -0.0224(2)
O5 O -0.3291(4) 0.4566(3) 0.2724(2)
O6 O -0.5445(3) 0.3734(3) 0.3025(2)
O7 O -0.4300(3) 0.4799(3) 0.1446(2)
O8 O -0.5135(3) 0.2728(3) 0.1907(2)
O9 O -0.0887(3) 0.0664(3) -0.0894(2)
O10 O -0.1652(4) 0.0405(3) 0.0545(2)
O11 O -0.0411(4) 0.1408(3) 0.4185(2)
O12 O -0.0124(4) 0.1170(3) 0.5596(2)
N1 N -0.2678(4) 0.0141(4) 0.5468(2)
N2 N -0.4341(4) 0.1087(4) 0.5334(3)
N3 N 0.0257(4) 0.2482(3) -0.0325(2)
N4 N -0.0746(4) 0.4039(4) -0.0400(2)
N5 N -0.3181(4) 0.2068(3) 0.3111(2)
N6 N -0.2427(4) 0.2692(4) 0.1732(2)
C1 C -0.3388(5) 0.0677(5) 0.5000(3)
C2 C -0.3242(5) 0.0054(5) 0.6201(3)
C3 C -0.4159(6) 0.1032(6) 0.6072(3)
C4 C -0.2362(5) 0.0089(6) 0.6667(3)
H1 H -0.2083 0.0792 0.6523
H2 H -0.1737 -0.0454 0.6627
H3 H -0.2713 -0.0050 0.7142
C5 C -0.3687(6) -0.1077(5) 0.6434(3)
H4 H -0.3052 -0.1626 0.6500
H5 H -0.4098 -0.1162 0.6083
H6 H -0.4186 -0.1148 0.6865
C6 C -0.5258(6) 0.0840(7) 0.6568(3)
H7 H -0.5794 0.1473 0.6463
H8 H -0.5098 0.0697 0.7039
H9 H -0.5578 0.0230 0.6514
C7 C -0.3735(7) 0.2090(6) 0.6055(4)
H10 H -0.4345 0.2662 0.5973
H11 H -0.3113 0.2250 0.5687
H12 H -0.3477 0.2031 0.6493
C8 C -0.3546(5) 0.1797(4) 0.3790(3)
H13 H -0.4113 0.2256 0.3967
C9 C -0.3112(4) 0.0851(5) 0.4251(3)
C10 C -0.2343(5) 0.0123(5) 0.3965(3)
H14 H -0.2086 -0.0547 0.4244
C11 C -0.1974(5) 0.0424(5) 0.3260(3)
H15 H -0.1455 -0.0048 0.3063
C12 C -0.2358(5) 0.1405(5) 0.2843(3)
C13 C -0.1849(5) 0.1827(4) 0.2128(3)
C14 C -0.0802(5) 0.1387(5) 0.1887(3)
H16 H -0.0414 0.0808 0.2180
C15 C -0.0324(5) 0.1807(5) 0.1205(3)
H17 H 0.0403 0.1544 0.1043
C16 C -0.0957(5) 0.2630(4) 0.0769(3)
C17 C -0.2005(5) 0.3065(4) 0.1061(3)
H18 H -0.2422 0.3633 0.0777
C18 C -0.0518(5) 0.3045(4) 0.0029(3)
C19 C 0.0745(5) 0.3169(4) -0.1018(3)
C20 C -0.0216(5) 0.4132(5) -0.1133(3)
C21 C 0.0941(6) 0.2541(5) -0.1563(3)
H19 H 0.1542 0.1967 -0.1453
H20 H 0.1155 0.3019 -0.2013
H21 H 0.0252 0.2237 -0.1568
C22 C 0.1876(5) 0.3463(5) -0.0904(3)
H22 H 0.2418 0.2831 -0.0838
H23 H 0.1768 0.3732 -0.0499
H24 H 0.2158 0.4013 -0.1304
C23 C -0.1153(6) 0.3984(6) -0.1526(3)
H25 H -0.1710 0.4604 -0.1577
H26 H -0.1516 0.3343 -0.1270
H27 H -0.0821 0.3911 -0.1979
C24 C 0.0229(6) 0.5238(5) -0.1433(4)
H28 H -0.0404 0.5789 -0.1489
H29 H 0.0674 0.5266 -0.1877
H30 H 0.0698 0.5359 -0.1121
C25 C -0.3006(10) 0.5750(10) 0.3299(5)
C26 C -0.3735(6) 0.4978(6) 0.3180(4)
C27 C -0.4859(7) 0.4960(6) 0.3530(4)
H31 H -0.5097 0.5377 0.3844
C28 C -0.5594(6) 0.4336(6) 0.3411(4)
C29 C -0.6802(13) 0.4424(8) 0.3772(8)
C30 C -0.5402(7) 0.6185(6) 0.0751(4)
C31 C -0.5159(6) 0.4992(5) 0.1131(4)
C32 C -0.5929(6) 0.4303(5) 0.1125(3)
H32 H -0.6529 0.4570 0.0859
C33 C -0.5849(5) 0.3202(5) 0.1505(3)
C34 C -0.6751(6) 0.2531(6) 0.1460(4)
C35 C -0.3666(9) 0.0491(13) 0.0827(4)
C36 C -0.2599(6) 0.0466(5) 0.0331(4)
C37 C -0.2795(6) 0.0623(5) -0.0343(4)
H33 H -0.3548 0.0658 -0.0425
C38 C -0.1945(6) 0.0734(5) -0.0920(4)
C39 C -0.2295(7) 0.0947(7) -0.1639(4)
C40 C -0.0155(7) 0.3044(6) 0.3374(4)
C41 C -0.0200(6) 0.2341(6) 0.4118(4)
C42 C -0.0049(6) 0.2760(6) 0.4643(4)
H34 H 0.0055 0.3493 0.4527
C43 C -0.0037(6) 0.2185(6) 0.5335(4)
C44 C 0.0106(9) 0.2712(8) 0.5879(5)
F1 F -0.2992(7) 0.5515(9) 0.3964(4)
F2 F -0.3386(7) 0.6635(6) 0.3242(8)
F3 F -0.2000(5) 0.5742(5) 0.3098(3)
F4 F -0.7172(5) 0.3552(6) 0.4048(4)
F5 F -0.6958(6) 0.4955(7) 0.4236(4)
F6 F -0.7468(6) 0.4942(9) 0.3379(6)
F7 F -0.5802(6) 0.6764(4) 0.1164(3)
F8 F -0.6130(4) 0.6354(4) 0.0291(3)
F9 F -0.4502(4) 0.6589(4) 0.0387(3)
F10 F -0.7130(5) 0.2722(5) 0.0896(3)
F11 F -0.7616(4) 0.2555(5) 0.1918(3)
F12 F -0.6437(4) 0.1496(4) 0.1615(4)
F13 F -0.3361(4) 0.0913(4) -0.1657(3)
F14 F -0.3580(6) -0.0441(8) 0.1305(4)
F15 F -0.4556(5) 0.0382(8) 0.0721(4)
F16 F -0.3674(6) 0.0937(7) 0.1256(4)
F17 F -0.1986(5) 0.1840(4) -0.2030(3)
F18 F -0.1743(4) 0.0164(4) -0.1906(2)
F19 F 0.0625(6) 0.2689(5) 0.2984(3)
F20 F -0.1115(4) 0.3195(4) 0.3153(3)
F21 F 0.0076(4) 0.4068(4) 0.3330(3)
F22 F 0.0980(7) 0.2330(5) 0.6189(4)
F23 F -0.0737(8) 0.2659(7) 0.6369(4)
F24 F 0.0215(7) 0.3736(5) 0.5672(4)
Mn1A Mn 0.39692(8) -0.34718(7) 0.76964(5)
Mn3_2 Mn 0.0000 0.0000 1.0000
O1A O 0.1718(3) 0.0403(3) 0.4662(2)
O2A O 0.5213(4) -0.1568(4) 0.4930(2)
O3A O -0.0693(3) -0.1494(3) 1.00942(19)
O3A_2 O -0.0693(3) -0.1494(3) 0.00942(19)
O4A O 0.1439(4) -0.4793(3) 1.0224(2)
O5A O 0.3291(4) -0.4566(3) 0.7276(2)
O6A O 0.5445(3) -0.3734(3) 0.6975(2)
O7A O 0.4300(3) -0.4799(3) 0.8554(2)
O8A O 0.5135(3) -0.2728(3) 0.8093(2)
O9A O 0.0887(3) -0.0664(3) 0.0894(2)
O10A O 0.1652(4) -0.0405(3) -0.0545(2)
O11A O 0.0411(4) -0.1408(3) 0.5815(2)
O12A O 0.0124(4) -0.1170(3) 0.4404(2)
N1A N 0.2678(4) -0.0141(4) 0.4532(2)
N2A N 0.4341(4) -0.1087(4) 0.4666(3)
N3A N -0.0257(4) -0.2482(3) 1.0325(2)
N4A N 0.0746(4) -0.4039(4) 1.0400(2)
N5A N 0.3181(4) -0.2068(3) 0.6889(2)
N6A N 0.2427(4) -0.2692(4) 0.8268(2)
C1A C 0.3388(5) -0.0677(5) 0.5000(3)
C2A C 0.3242(5) -0.0054(5) 0.3799(3)
C3A C 0.4159(6) -0.1032(6) 0.3928(3)
C4A C 0.2362(5) -0.0089(6) 0.3333(3)
H1A H 0.2083 -0.0792 0.3477
H2A H 0.1737 0.0454 0.3373
H3A H 0.2713 0.0050 0.2858
C5A C 0.3687(6) 0.1077(5) 0.3566(3)
H4A H 0.3052 0.1626 0.3500
H5A H 0.4098 0.1162 0.3917
H6A H 0.4186 0.1148 0.3135
C6A C 0.5258(6) -0.0840(7) 0.3432(3)
H7A H 0.5794 -0.1473 0.3537
H8A H 0.5098 -0.0697 0.2961
H9A H 0.5578 -0.0230 0.3486
C7A C 0.3735(7) -0.2090(6) 0.3945(4)
H10A H 0.4345 -0.2662 0.4027
H11A H 0.3113 -0.2250 0.4313
H12A H 0.3477 -0.2031 0.3507
C8A C 0.3546(5) -0.1797(4) 0.6210(3)
H13A H 0.4113 -0.2256 0.6033
C9A C 0.3112(4) -0.0851(5) 0.5749(3)
C10A C 0.2343(5) -0.0123(5) 0.6035(3)
H14A H 0.2086 0.0547 0.5756
C11A C 0.1974(5) -0.0424(5) 0.6740(3)
H15A H 0.1455 0.0048 0.6937
C12A C 0.2358(5) -0.1405(5) 0.7157(3)
C13A C 0.1849(5) -0.1827(4) 0.7872(3)
C14A C 0.0802(5) -0.1387(5) 0.8113(3)
H16A H 0.0414 -0.0808 0.7820
C15A C 0.0324(5) -0.1807(5) 0.8795(3)
H17A H -0.0403 -0.1544 0.8957
C16A C 0.0957(5) -0.2630(4) 0.9231(3)
C17A C 0.2005(5) -0.3065(4) 0.8939(3)
H18A H 0.2422 -0.3633 0.9223
C18A C 0.0518(5) -0.3045(4) 0.9971(3)
C19A C -0.0745(5) -0.3169(4) 1.1018(3)
C20A C 0.0216(5) -0.4132(5) 1.1133(3)
C21A C -0.0941(6) -0.2541(5) 1.1563(3)
H19A H -0.1542 -0.1967 1.1453
H20A H -0.1155 -0.3019 1.2013
H21A H -0.0252 -0.2237 1.1568
C22A C -0.1876(5) -0.3463(5) 1.0904(3)
H22A H -0.2418 -0.2831 1.0838
H23A H -0.1768 -0.3732 1.0499
H24A H -0.2158 -0.4013 1.1304
C23A C 0.1153(6) -0.3984(6) 1.1526(3)
H25A H 0.1710 -0.4604 1.1577
H26A H 0.1516 -0.3343 1.1270
H27A H 0.0821 -0.3911 1.1979
C24A C -0.0229(6) -0.5238(5) 1.1433(4)
H28A H 0.0404 -0.5789 1.1489
H29A H -0.0674 -0.5266 1.1877
H30A H -0.0698 -0.5359 1.1121
C25A C 0.3006(10) -0.5750(10) 0.6701(5)
C26A C 0.3735(6) -0.4978(6) 0.6820(4)
C27A C 0.4859(7) -0.4960(6) 0.6470(4)
H31A H 0.5097 -0.5377 0.6156
C28A C 0.5594(6) -0.4336(6) 0.6589(4)
C29A C 0.6802(13) -0.4424(8) 0.6228(8)
C30A C 0.5402(7) -0.6185(6) 0.9249(4)
C31A C 0.5159(6) -0.4992(5) 0.8869(4)
C32A C 0.5929(6) -0.4303(5) 0.8875(3)
H32A H 0.6529 -0.4570 0.9141
C33A C 0.5849(5) -0.3202(5) 0.8495(3)
C34A C 0.6751(6) -0.2531(6) 0.8540(4)
C35A C 0.3666(9) -0.0491(13) -0.0827(4)
C36A C 0.2599(6) -0.0466(5) -0.0331(4)
C37A C 0.2795(6) -0.0623(5) 0.0343(4)
H33A H 0.3548 -0.0658 0.0425
C38A C 0.1945(6) -0.0734(5) 0.0920(4)
C39A C 0.2295(7) -0.0947(7) 0.1639(4)
C40A C 0.0155(7) -0.3044(6) 0.6626(4)
C41A C 0.0200(6) -0.2341(6) 0.5882(4)
C42A C 0.0049(6) -0.2760(6) 0.5357(4)
H34A H -0.0055 -0.3493 0.5473
C43A C 0.0037(6) -0.2185(6) 0.4665(4)
C44A C -0.0106(9) -0.2712(8) 0.4121(5)
F1A F 0.2992(7) -0.5515(9) 0.6036(4)
F2A F 0.3386(7) -0.6635(6) 0.6758(8)
F3A F 0.2000(5) -0.5742(5) 0.6902(3)
F4A F 0.7172(5) -0.3552(6) 0.5952(4)
F5A F 0.6958(6) -0.4955(7) 0.5764(4)
F6A F 0.7468(6) -0.4942(9) 0.6621(6)
F7A F 0.5802(6) -0.6764(4) 0.8836(3)
F8A F 0.6130(4) -0.6354(4) 0.9709(3)
F9A F 0.4502(4) -0.6589(4) 0.9613(3)
F10A F 0.7130(5) -0.2722(5) 0.9104(3)
F11A F 0.7616(4) -0.2555(5) 0.8082(3)
F12A F 0.6437(4) -0.1496(4) 0.8385(4)
F13A F 0.3361(4) -0.0913(4) 0.1657(3)
F14A F 0.3580(6) 0.0441(8) -0.1305(4)
F15A F 0.4556(5) -0.0382(8) -0.0721(4)
F16A F 0.3674(6) -0.0937(7) -0.1256(4)
F17A F 0.1986(5) -0.1840(4) 0.2030(3)
F18A F 0.1743(4) -0.0164(4) 0.1906(2)
F19A F -0.0625(6) -0.2689(5) 0.7016(3)
F20A F 0.1115(4) -0.3195(4) 0.6847(3)
F21A F -0.0076(4) -0.4068(4) 0.6670(3)
F22A F -0.0980(7) -0.2330(5) 0.3811(4)
F23A F 0.0737(8) -0.2659(7) 0.3631(4)
F24A F -0.0215(7) -0.3736(5) 0.4328(4)
loop_
_geom_bond_atom_site_label_1
_geom_bond_atom_site_label_2
_geom_bond_site_symmetry_1
_geom_bond_site_symmetry_2
Mn1 O5 1_555 1_555
Mn2 O1 1_555 1_555
Mn3 O3 1_555 1_555
O1 N1 1_555 1_555
O2 N2 1_555 1_555
O3 N3 1_555 1_555
O4 N4 1_555 1_555
O5 C26 1_555 1_555
O6 Mn1 1_555 1_555
O7 Mn1 1_555 1_555
O8 Mn1 1_555 1_555
O9 Mn3 1_555 1_555
O10 Mn3 1_555 1_555
O11 Mn2 1_555 1_555
O12 Mn2 1_555 1_555
N1 C1 1_555 1_555
N2 C1 1_555 1_555
N3 C18 1_555 1_555
N4 C18 1_555 1_555
N5 Mn1 1_555 1_555
N6 Mn1 1_555 1_555
C1 C9 1_555 1_555
C2 N1 1_555 1_555
C3 N2 1_555 1_555
C4 C2 1_555 1_555
H1 C4 1_555 1_555
H2 C4 1_555 1_555
H3 C4 1_555 1_555
C5 C2 1_555 1_555
H4 C5 1_555 1_555
H5 C5 1_555 1_555
H6 C5 1_555 1_555
C6 C3 1_555 1_555
H7 C6 1_555 1_555
H8 C6 1_555 1_555
H9 C6 1_555 1_555
C7 C3 1_555 1_555
H10 C7 1_555 1_555
H11 C7 1_555 1_555
H12 C7 1_555 1_555
C8 N5 1_555 1_555
H13 C8 1_555 1_555
C9 C8 1_555 1_555
C10 C9 1_555 1_555
H14 C10 1_555 1_555
C11 C10 1_555 1_555
H15 C11 1_555 1_555
C12 N5 1_555 1_555
C13 N6 1_555 1_555
C14 C13 1_555 1_555
H16 C14 1_555 1_555
C15 C14 1_555 1_555
H17 C15 1_555 1_555
C16 C15 1_555 1_555
C17 N6 1_555 1_555
H18 C17 1_555 1_555
C18 C16 1_555 1_555
C19 N3 1_555 1_555
C20 N4 1_555 1_555
C21 C19 1_555 1_555
H19 C21 1_555 1_555
H20 C21 1_555 1_555
H21 C21 1_555 1_555
C22 C19 1_555 1_555
H22 C22 1_555 1_555
H23 C22 1_555 1_555
H24 C22 1_555 1_555
C23 C20 1_555 1_555
H25 C23 1_555 1_555
H26 C23 1_555 1_555
H27 C23 1_555 1_555
C24 C20 1_555 1_555
H28 C24 1_555 1_555
H29 C24 1_555 1_555
H30 C24 1_555 1_555
C25 C26 1_555 1_555
C26 C27 1_555 1_555
C27 H31 1_555 1_555
C28 O6 1_555 1_555
C29 C28 1_555 1_555
C30 C31 1_555 1_555
C31 O7 1_555 1_555
C32 C31 1_555 1_555
H32 C32 1_555 1_555
C33 O8 1_555 1_555
C34 C33 1_555 1_555
C35 C36 1_555 1_555
C36 O10 1_555 1_555
C37 C36 1_555 1_555
H33 C37 1_555 1_555
C38 O9 1_555 1_555
C39 C38 1_555 1_555
C40 C41 1_555 1_555
C41 O11 1_555 1_555
C42 C41 1_555 1_555
H34 C42 1_555 1_555
C43 O12 1_555 1_555
C44 C43 1_555 1_555
F1 C25 1_555 1_555
F2 C25 1_555 1_555
F3 C25 1_555 1_555
F4 C29 1_555 1_555
F5 C29 1_555 1_555
F6 C29 1_555 1_555
F7 C30 1_555 1_555
F8 C30 1_555 1_555
F9 C30 1_555 1_555
F10 C34 1_555 1_555
F11 C34 1_555 1_555
F12 C34 1_555 1_555
F13 C39 1_555 1_555
F14 C35 1_555 1_555
F15 C35 1_555 1_555
F16 C35 1_555 1_555
F17 C39 1_555 1_555
F18 C39 1_555 1_555
F19 C40 1_555 1_555
F20 C40 1_555 1_555
F21 C40 1_555 1_555
F22 C44 1_555 1_555
F23 C44 1_555 1_555
F24 C44 1_555 1_555
Mn1A O5A 1_555 1_555
Mn3_2 O3A 1_555 1_555
O1A Mn2 1_555 1_555
O2A N2A 1_555 1_555
O3A N3A 1_555 1_555
O3A_2 Mn3 1_555 1_555
O4A N4A 1_555 1_555
O5A C26A 1_555 1_555
O6A Mn1A 1_555 1_555
O7A Mn1A 1_555 1_555
O8A Mn1A 1_555 1_555
O9A Mn3 1_555 1_555
O10A Mn3 1_555 1_555
O11A Mn2 1_555 1_555
O12A Mn2 1_555 1_555
N1A O1A 1_555 1_555
N2A C1A 1_555 1_555
N3A C18A 1_555 1_555
N4A C18A 1_555 1_555
N5A Mn1A 1_555 1_555
N6A Mn1A 1_555 1_555
C1A N1A 1_555 1_555
C2A N1A 1_555 1_555
C3A N2A 1_555 1_555
C4A C2A 1_555 1_555
H1A C4A 1_555 1_555
H2A C4A 1_555 1_555
H3A C4A 1_555 1_555
C5A C2A 1_555 1_555
H4A C5A 1_555 1_555
H5A C5A 1_555 1_555
H6A C5A 1_555 1_555
C6A C3A 1_555 1_555
H7A C6A 1_555 1_555
H8A C6A 1_555 1_555
H9A C6A 1_555 1_555
C7A C3A 1_555 1_555
H10A C7A 1_555 1_555
H11A C7A 1_555 1_555
H12A C7A 1_555 1_555
C8A N5A 1_555 1_555
H13A C8A 1_555 1_555
C9A C1A 1_555 1_555
C10A C9A 1_555 1_555
H14A C10A 1_555 1_555
C11A C10A 1_555 1_555
H15A C11A 1_555 1_555
C12A N5A 1_555 1_555
C13A N6A 1_555 1_555
C14A C13A 1_555 1_555
H16A C14A 1_555 1_555
C15A C14A 1_555 1_555
H17A C15A 1_555 1_555
C16A C15A 1_555 1_555
C17A N6A 1_555 1_555
H18A C17A 1_555 1_555
C18A C16A 1_555 1_555
C19A N3A 1_555 1_555
C20A N4A 1_555 1_555
C21A C19A 1_555 1_555
H19A C21A 1_555 1_555
H20A C21A 1_555 1_555
H21A C21A 1_555 1_555
C22A C19A 1_555 1_555
H22A C22A 1_555 1_555
H23A C22A 1_555 1_555
H24A C22A 1_555 1_555
C23A C20A 1_555 1_555
H25A C23A 1_555 1_555
H26A C23A 1_555 1_555
H27A C23A 1_555 1_555
C24A C20A 1_555 1_555
H28A C24A 1_555 1_555
H29A C24A 1_555 1_555
H30A C24A 1_555 1_555
C25A C26A 1_555 1_555
C26A C27A 1_555 1_555
C27A H31A 1_555 1_555
C28A O6A 1_555 1_555
C29A C28A 1_555 1_555
C30A C31A 1_555 1_555
C31A O7A 1_555 1_555
C32A C31A 1_555 1_555
H32A C32A 1_555 1_555
C33A O8A 1_555 1_555
C34A C33A 1_555 1_555
C35A C36A 1_555 1_555
C36A O10A 1_555 1_555
C37A C36A 1_555 1_555
H33A C37A 1_555 1_555
C38A O9A 1_555 1_555
C39A C38A 1_555 1_555
C40A C41A 1_555 1_555
C41A O11A 1_555 1_555
C42A C41A 1_555 1_555
H34A C42A 1_555 1_555
C43A O12A 1_555 1_555
C44A C43A 1_555 1_555
F1A C25A 1_555 1_555
F2A C25A 1_555 1_555
F3A C25A 1_555 1_555
F4A C29A 1_555 1_555
F5A C29A 1_555 1_555
F6A C29A 1_555 1_555
F7A C30A 1_555 1_555
F8A C30A 1_555 1_555
F9A C30A 1_555 1_555
F10A C34A 1_555 1_555
F11A C34A 1_555 1_555
F12A C34A 1_555 1_555
F13A C39A 1_555 1_555
F14A C35A 1_555 1_555
F15A C35A 1_555 1_555
F16A C35A 1_555 1_555
F17A C39A 1_555 1_555
F18A C39A 1_555 1_555
F19A C40A 1_555 1_555
F20A C40A 1_555 1_555
F21A C40A 1_555 1_555
F22A C44A 1_555 1_555
F23A C44A 1_555 1_555
F24A C44A 1_555 1_555
C2 C3 1_555 1_555
C11 C12 1_555 1_555
C12 C13 1_555 1_555
C16 C17 1_555 1_555
C19 C20 1_555 1_555
C27 C28 1_555 1_555
C32 C33 1_555 1_555
C37 C38 1_555 1_555
C42 C43 1_555 1_555
C2A C3A 1_555 1_555
C8A C9A 1_555 1_555
C11A C12A 1_555 1_555
C12A C13A 1_555 1_555
C16A C17A 1_555 1_555
C19A C20A 1_555 1_555
C27A C28A 1_555 1_555
C32A C33A 1_555 1_555
C37A C38A 1_555 1_555
C42A C43A 1_555 1_555

#END
