
#######################################################################
#
#                 Cambridge Crystallographic Data Centre
#                                CCDC 
#
#######################################################################
#
# If this CIF has been generated from an entry in the Cambridge 
# Structural Database, then it will include bibliographic, chemical, 
# crystal, experimental, refinement or atomic coordinate data resulting 
# from the CCDC's data processing and validation procedures.
#
#######################################################################

data_YAHWAG
_symmetry_cell_setting           monoclinic
_symmetry_space_group_name_H-M   'P 21'
_symmetry_Int_Tables_number      4
_space_group_name_Hall           'P 2yb'
loop_
_symmetry_equiv_pos_site_id
_symmetry_equiv_pos_as_xyz
1 x,y,z
2 -x,1/2+y,-z
_cell_length_a                   7.5966(6)
_cell_length_b                   7.8358(7)
_cell_length_c                   11.604(2)
_cell_angle_alpha                90
_cell_angle_beta                 98.941(2)
_cell_angle_gamma                90
_cell_volume                     682.34
loop_
_atom_site_label
_atom_site_type_symbol
_atom_site_fract_x
_atom_site_fract_y
_atom_site_fract_z
Sb1 Sb 0.59306(2) 0.375700(13) 0.276340(15)
K1 K 0.09634(10) 0.46129(13) 0.29103(8)
O1 O 0.4233(3) 0.5601(5) 0.2183(2)
O2 O 0.7513(4) 0.5350(4) 0.1742(2)
O3 O 0.7612(4) 0.8034(4) 0.1119(3)
O4 O 0.4298(4) 0.6160(4) -0.0391(2)
H1 H 0.357(8) 0.553(8) -0.051(5)
O5 O 0.0854(5) 0.6210(7) -0.0216(5)
O6 O 0.1154(4) 0.8090(4) 0.1221(3)
H2 H 0.016(7) 0.795(7) 0.116(5)
O7 O 0.4360(3) 0.3929(4) 0.4184(2)
O8 O 0.7592(3) 0.4964(3) 0.3997(2)
O9 O 0.4465(3) 0.4944(4) 0.5991(2)
O10 O 0.8186(4) 0.2509(4) 0.5792(3)
H3 H 0.851(6) 0.239(6) 0.540(4)
O11 O 1.0459(4) 0.6487(4) 0.6414(3)
O12 O 1.1295(4) 0.3944(5) 0.5820(3)
H4 H 1.201(8) 0.432(8) 0.584(5)
O13 O 0.2452(5) 0.2036(5) 0.1623(3)
H5 H 0.3308 0.2437 0.1314
H6 H 0.1573 0.1703 0.1083
C1 C 0.6819(5) 0.6834(5) 0.1483(3)
C2 C 0.4863(5) 0.7037(5) 0.1642(3)
H7 H 0.4749 0.8066 0.2134
C3 C 0.3762(5) 0.7320(4) 0.0430(3)
H8 H 0.3996 0.8505 0.0172
C4 C 0.1765(5) 0.7143(5) 0.0443(4)
C5 C 0.5147(4) 0.4687(4) 0.5097(3)
C6 C 0.7054(4) 0.5254(4) 0.5092(3)
H9 H 0.7151 0.6502 0.5274
C7 C 0.8274(5) 0.4272(4) 0.6035(3)
H10 H 0.7840 0.4462 0.6796
C8 C 1.0153(4) 0.5022(5) 0.6130(3)
K1_2 K 1.09634(10) 0.46129(13) 0.29103(8)
K1A K 0.90366(10) -0.03871(13) 0.70897(8)
K1A_2 K 0.90366(10) 0.96129(13) 0.70897(8)
O2_2 O -0.2487(4) 0.5350(4) 0.1742(2)
O8_2 O -0.2408(3) 0.4964(3) 0.3997(2)
O10A O 0.1814(4) 0.7509(4) 0.4208(3)
H3A H 0.149(6) 0.739(6) 0.460(4)
O11A O -0.0459(4) 0.1487(4) 0.3586(3)
loop_
_geom_bond_atom_site_label_1
_geom_bond_atom_site_label_2
_geom_bond_site_symmetry_1
_geom_bond_site_symmetry_2
Sb1 O1 1_555 1_555
K1 O1 1_555 1_555
O1 C2 1_555 1_555
O2 Sb1 1_555 1_555
O3 C1 1_555 1_555
O4 H1 1_555 1_555
O5 C4 1_555 1_555
O6 H2 1_555 1_555
O7 Sb1 1_555 1_555
O8 Sb1 1_555 1_555
O9 C5 1_555 1_555
O10 H3 1_555 1_555
O11 C8 1_555 1_555
O12 H4 1_555 1_555
O13 K1 1_555 1_555
H5 O13 1_555 1_555
H6 O13 1_555 1_555
C1 O2 1_555 1_555
C2 C1 1_555 1_555
H7 C2 1_555 1_555
C3 O4 1_555 1_555
H8 C3 1_555 1_555
C4 O6 1_555 1_555
C5 O7 1_555 1_555
C6 O8 1_555 1_555
H9 C6 1_555 1_555
C7 O10 1_555 1_555
H10 C7 1_555 1_555
C8 O12 1_555 1_555
K1_2 O2 1_555 1_555
K1A O10 1_555 1_555
K1A_2 O11 1_555 1_555
O2_2 K1 1_555 1_555
O8_2 K1 1_555 1_555
O10A K1 1_555 1_555
H3A O10A 1_555 1_555
O11A K1 1_555 1_555
K1 O7 1_555 1_555
O8 K1_2 1_555 1_555
C2 C3 1_555 1_555
C3 C4 1_555 1_555
C5 C6 1_555 1_555
C6 C7 1_555 1_555
C7 C8 1_555 1_555

#END
