
#######################################################################
#
#                 Cambridge Crystallographic Data Centre
#                                CCDC 
#
#######################################################################
#
# If this CIF has been generated from an entry in the Cambridge 
# Structural Database, then it will include bibliographic, chemical, 
# crystal, experimental, refinement or atomic coordinate data resulting 
# from the CCDC's data processing and validation procedures.
#
#######################################################################

data_YAHYOW
_symmetry_cell_setting           monoclinic
_symmetry_space_group_name_H-M   'C 2/c'
_symmetry_Int_Tables_number      15
_space_group_name_Hall           '-C 2yn'
loop_
_symmetry_equiv_pos_site_id
_symmetry_equiv_pos_as_xyz
1 x,y,z
2 1/2+x,1/2+y,z
3 -x,y,1/2-z
4 1/2-x,1/2+y,1/2-z
5 -x,-y,-z
6 1/2-x,1/2-y,-z
7 x,-y,1/2+z
8 1/2+x,1/2-y,1/2+z
_cell_length_a                   30.647(5)
_cell_length_b                   9.261(2)
_cell_length_c                   23.654(4)
_cell_angle_alpha                90
_cell_angle_beta                 127.056(2)
_cell_angle_gamma                90
_cell_volume                     5357.71
loop_
_atom_site_label
_atom_site_type_symbol
_atom_site_fract_x
_atom_site_fract_y
_atom_site_fract_z
Ag1 Ag 0.650960(10) 0.44529(4) 0.64244(2)
P1 P 0.60594(4) 0.37467(12) 0.52235(5)
C1 C 0.58931(15) 0.5273(4) 0.4637(2)
C2 C 0.62889(16) 0.6351(5) 0.4887(2)
C3 C 0.61920(16) 0.7564(4) 0.4486(2)
C4 C 0.56967(17) 0.7764(4) 0.3829(2)
C5 C 0.55945(19) 0.9103(5) 0.3400(3)
C6 C 0.52989(17) 0.6695(5) 0.3575(2)
C7 C 0.53975(17) 0.5458(5) 0.3970(2)
C8 C 0.64867(16) 0.2598(4) 0.5106(2)
C9 C 0.64462(16) 0.2585(4) 0.4486(2)
C10 C 0.67804(19) 0.1669(5) 0.4432(3)
C11 C 0.71530(18) 0.0756(5) 0.4986(3)
C12 C 0.7507(2) -0.0258(6) 0.4916(3)
C13 C 0.71954(17) 0.0790(5) 0.5602(3)
C14 C 0.68666(17) 0.1703(5) 0.5666(2)
C15 C 0.54246(15) 0.2743(4) 0.4815(2)
C16 C 0.52167(18) 0.1785(5) 0.4253(2)
C17 C 0.47340(18) 0.1051(5) 0.3974(3)
C18 C 0.44430(16) 0.1239(4) 0.4247(2)
C19 C 0.39134(19) 0.0455(5) 0.3945(3)
C20 C 0.46551(19) 0.2193(5) 0.4811(3)
C21 C 0.51392(18) 0.2922(5) 0.5096(3)
N1 N 0.69721(14) 0.2097(4) 0.77256(19)
N2 N 0.71172(14) 0.2737(4) 0.73399(19)
C22 C 0.75981(17) 0.2150(5) 0.7600(2)
N3 N 0.77729(15) 0.1169(4) 0.81138(19)
C23 C 0.73678(19) 0.1187(5) 0.8174(3)
N4 N 0.63117(14) 0.3983(4) 0.76123(18)
N5 N 0.62611(14) 0.4986(4) 0.71519(18)
C24 C 0.6119(2) 0.6174(6) 0.7309(3)
N6 N 0.6065(2) 0.6036(5) 0.7831(3)
C25 C 0.6196(2) 0.4649(6) 0.8005(3)
B1 B 0.6404(2) 0.2358(6) 0.7571(3)
H1 H 0.66409 0.62426 0.53466
H2 H 0.64729 0.82885 0.46706
H3 H 0.52723 0.95823 0.32773
H4 H 0.55447 0.88445 0.29729
H5 H 0.58968 0.97469 0.36637
H6 H 0.49515 0.68393 0.31232
H7 H 0.51153 0.47202 0.37730
H8 H 0.61822 0.32172 0.40924
H9 H 0.67531 0.16622 0.39987
H10 H 0.72793 -0.08809 0.45171
H11 H 0.77241 -0.08486 0.53318
H12 H 0.77438 0.02709 0.48590
H13 H 0.74526 0.01940 0.59830
H14 H 0.68955 0.16771 0.60907
H15 H 0.54162 0.16153 0.40608
H16 H 0.45894 0.04028 0.35758
H17 H 0.37205 0.02856 0.34485
H18 H 0.36858 0.10105 0.40116
H19 H 0.39852 -0.04566 0.41760
H20 H 0.44599 0.23152 0.50128
H21 H 0.52804 0.35881 0.54921
H22 H 0.77986 0.24067 0.74164
H23 H 0.73736 0.06635 0.85277
H24 H 0.60333 0.70579 0.70413
H25 H 0.62034 0.41865 0.83716
H26 H 0.63552 0.17824 0.78777
H27 H 0.60967 0.19992 0.70602
Ag1C Ag 0.849040(10) 0.94529(4) 0.85756(2)
Ag1C_2 Ag 0.849040(10) -0.05471(4) 0.85756(2)
P1C P 0.89406(4) 0.87467(12) 0.97765(5)
C1C C 0.91069(15) 1.0273(4) 1.0363(2)
C2C C 0.87111(16) 1.1351(5) 1.0113(2)
C3C C 0.88080(16) 1.2564(4) 1.0514(2)
C4C C 0.93033(17) 1.2764(4) 1.1171(2)
C5C C 0.94055(19) 1.4103(5) 1.1600(3)
C6C C 0.97011(17) 1.1695(5) 1.1425(2)
C7C C 0.96025(17) 1.0458(5) 1.1030(2)
C8C C 0.85133(16) 0.7598(4) 0.9894(2)
C9C C 0.85538(16) 0.7585(4) 1.0514(2)
C10C C 0.82196(19) 0.6669(5) 1.0568(3)
C11C C 0.78470(18) 0.5756(5) 1.0014(3)
C12C C 0.7493(2) 0.4742(6) 1.0084(3)
C13C C 0.78046(17) 0.5790(5) 0.9398(3)
C14C C 0.81334(17) 0.6703(5) 0.9334(2)
C15C C 0.95754(15) 0.7743(4) 1.0185(2)
C16C C 0.97833(18) 0.6785(5) 1.0747(2)
C17C C 1.02660(18) 0.6051(5) 1.1026(3)
C18C C 1.05570(16) 0.6239(4) 1.0753(2)
C19C C 1.10866(19) 0.5455(5) 1.1055(3)
C20C C 1.03449(19) 0.7193(5) 1.0189(3)
C21C C 0.98608(18) 0.7922(5) 0.9904(3)
N1C N 0.80279(14) 0.7097(4) 0.72744(19)
N2C N 0.78828(14) 0.7737(4) 0.76601(19)
C22C C 0.74019(17) 0.7150(5) 0.7400(2)
N3C N 0.72271(15) 0.6169(4) 0.68862(19)
N3_2 N 0.77729(15) 1.1169(4) 0.81138(19)
C23C C 0.76322(19) 0.6187(5) 0.6826(3)
N4C N 0.86883(14) 0.8983(4) 0.73877(18)
N5C N 0.87389(14) 0.9986(4) 0.78481(18)
C24C C 0.8881(2) 1.1174(6) 0.7691(3)
N6C N 0.8935(2) 1.1036(5) 0.7169(3)
C25C C 0.8804(2) 0.9649(6) 0.6995(3)
B1C B 0.8596(2) 0.7358(6) 0.7429(3)
H1C H 0.83591 1.12426 0.96534
H2C H 0.85271 1.32885 1.03294
H3C H 0.97277 1.45823 1.17227
H4C H 0.94553 1.38445 1.20271
H5C H 0.91032 1.47469 1.13363
H6C H 1.00485 1.18393 1.18768
H7C H 0.98847 0.97202 1.12270
H8C H 0.88178 0.82172 1.09076
H9C H 0.82469 0.66622 1.10013
H10C H 0.77207 0.41191 1.04829
H11C H 0.72759 0.41514 0.96682
H12C H 0.72562 0.52709 1.01410
H13C H 0.75474 0.51940 0.90170
H14C H 0.81045 0.66771 0.89093
H15C H 0.95838 0.66153 1.09392
H16C H 1.04106 0.54028 1.14242
H17C H 1.12795 0.52856 1.15515
H18C H 1.13142 0.60105 1.09884
H19C H 1.10148 0.45434 1.08240
H20C H 1.05401 0.73152 0.99872
H21C H 0.97196 0.85881 0.95079
H22C H 0.72014 0.74067 0.75836
H23C H 0.76264 0.56635 0.64723
H24C H 0.89667 1.20579 0.79587
H25C H 0.87966 0.91865 0.66284
H26C H 0.86448 0.67824 0.71223
H27C H 0.89033 0.69992 0.79398
O1 O 0.50000 0.2405(8) 0.25000
loop_
_geom_bond_atom_site_label_1
_geom_bond_atom_site_label_2
_geom_bond_site_symmetry_1
_geom_bond_site_symmetry_2
Ag1 P1 1_555 1_555
P1 C1 1_555 1_555
C1 C2 1_555 1_555
C2 C3 1_555 1_555
C3 C4 1_555 1_555
C4 C5 1_555 1_555
C5 H3 1_555 1_555
C6 C4 1_555 1_555
C7 C1 1_555 1_555
C8 P1 1_555 1_555
C9 C8 1_555 1_555
C10 C9 1_555 1_555
C11 C10 1_555 1_555
C12 C11 1_555 1_555
C13 C11 1_555 1_555
C14 C8 1_555 1_555
C15 P1 1_555 1_555
C16 C15 1_555 1_555
C17 C16 1_555 1_555
C18 C17 1_555 1_555
C19 C18 1_555 1_555
C20 C18 1_555 1_555
C21 C15 1_555 1_555
N1 N2 1_555 1_555
N2 Ag1 1_555 1_555
C22 N2 1_555 1_555
N3 C22 1_555 1_555
C23 N1 1_555 1_555
N4 N5 1_555 1_555
N5 Ag1 1_555 1_555
C24 N5 1_555 1_555
N6 C24 1_555 1_555
C25 N4 1_555 1_555
B1 N1 1_555 1_555
H1 C2 1_555 1_555
H2 C3 1_555 1_555
H4 C5 1_555 1_555
H5 C5 1_555 1_555
H6 C6 1_555 1_555
H7 C7 1_555 1_555
H8 C9 1_555 1_555
H9 C10 1_555 1_555
H10 C12 1_555 1_555
H11 C12 1_555 1_555
H12 C12 1_555 1_555
H13 C13 1_555 1_555
H14 C14 1_555 1_555
H15 C16 1_555 1_555
H16 C17 1_555 1_555
H17 C19 1_555 1_555
H18 C19 1_555 1_555
H19 C19 1_555 1_555
H20 C20 1_555 1_555
H21 C21 1_555 1_555
H22 C22 1_555 1_555
H23 C23 1_555 1_555
H24 C24 1_555 1_555
H25 C25 1_555 1_555
H26 B1 1_555 1_555
H27 B1 1_555 1_555
Ag1C P1C 1_555 1_555
Ag1C_2 N3 1_555 1_555
P1C C1C 1_555 1_555
C1C C2C 1_555 1_555
C2C C3C 1_555 1_555
C3C C4C 1_555 1_555
C4C C5C 1_555 1_555
C5C H3C 1_555 1_555
C6C C4C 1_555 1_555
C7C C1C 1_555 1_555
C8C P1C 1_555 1_555
C9C C8C 1_555 1_555
C10C C9C 1_555 1_555
C11C C10C 1_555 1_555
C12C C11C 1_555 1_555
C13C C11C 1_555 1_555
C14C C8C 1_555 1_555
C15C P1C 1_555 1_555
C16C C15C 1_555 1_555
C17C C16C 1_555 1_555
C18C C17C 1_555 1_555
C19C C18C 1_555 1_555
C20C C18C 1_555 1_555
C21C C15C 1_555 1_555
N1C N2C 1_555 1_555
N2C Ag1C 1_555 1_555
C22C N2C 1_555 1_555
N3C Ag1 1_555 1_555
N3_2 Ag1C 1_555 1_555
C23C N1C 1_555 1_555
N4C N5C 1_555 1_555
N5C Ag1C 1_555 1_555
C24C N5C 1_555 1_555
N6C C24C 1_555 1_555
C25C N4C 1_555 1_555
B1C N1C 1_555 1_555
H1C C2C 1_555 1_555
H2C C3C 1_555 1_555
H4C C5C 1_555 1_555
H5C C5C 1_555 1_555
H6C C6C 1_555 1_555
H7C C7C 1_555 1_555
H8C C9C 1_555 1_555
H9C C10C 1_555 1_555
H10C C12C 1_555 1_555
H11C C12C 1_555 1_555
H12C C12C 1_555 1_555
H13C C13C 1_555 1_555
H14C C14C 1_555 1_555
H15C C16C 1_555 1_555
H16C C17C 1_555 1_555
H17C C19C 1_555 1_555
H18C C19C 1_555 1_555
H19C C19C 1_555 1_555
H20C C20C 1_555 1_555
H21C C21C 1_555 1_555
H22C C22C 1_555 1_555
H23C C23C 1_555 1_555
H24C C24C 1_555 1_555
H25C C25C 1_555 1_555
H26C B1C 1_555 1_555
H27C B1C 1_555 1_555
C6 C7 1_555 1_555
C13 C14 1_555 1_555
C20 C21 1_555 1_555
N3 C23 1_555 1_555
N4 B1 1_555 1_555
N6 C25 1_555 1_555
C6C C7C 1_555 1_555
C13C C14C 1_555 1_555
C20C C21C 1_555 1_555
C22C N3C 1_555 1_555
N3C C23C 1_555 1_555
N4C B1C 1_555 1_555
N6C C25C 1_555 1_555

#END
