
#######################################################################
#
#                 Cambridge Crystallographic Data Centre
#                                CCDC 
#
#######################################################################
#
# If this CIF has been generated from an entry in the Cambridge 
# Structural Database, then it will include bibliographic, chemical, 
# crystal, experimental, refinement or atomic coordinate data resulting 
# from the CCDC's data processing and validation procedures.
#
#######################################################################

data_YAJGUM
_symmetry_cell_setting           monoclinic
_symmetry_space_group_name_H-M   'P 21/c'
_symmetry_Int_Tables_number      14
_space_group_name_Hall           '-P 2ybc'
loop_
_symmetry_equiv_pos_site_id
_symmetry_equiv_pos_as_xyz
1 x,y,z
2 -x,1/2+y,1/2-z
3 -x,-y,-z
4 x,1/2-y,1/2+z
_cell_length_a                   7.926(3)
_cell_length_b                   16.433(8)
_cell_length_c                   28.366(14)
_cell_angle_alpha                90
_cell_angle_beta                 97.00(4)
_cell_angle_gamma                90
_cell_volume                     3667.07
loop_
_atom_site_label
_atom_site_type_symbol
_atom_site_fract_x
_atom_site_fract_y
_atom_site_fract_z
O17 O 1.137(4) 0.3593(14) 0.5306(7)
C25 C 1.0810(19) 0.3923(8) 0.4967(9)
C26 C 1.030(2) 0.4726(7) 0.5134(6)
H39 H 1.0444 0.4826 0.5459
O18 O 1.056(3) 0.3792(14) 0.4551(9)
H40 H 1.0822 0.3309 0.4398
O17B O 0.863(4) 0.6407(14) 0.4694(7)
C25B C 0.9190(19) 0.6077(8) 0.5033(9)
C26B C 0.970(2) 0.5274(7) 0.4866(6)
H39B H 0.9556 0.5174 0.4541
O18B O 0.944(3) 0.6208(14) 0.5449(9)
H40B H 0.9178 0.6691 0.5602
O19 O 1.282(3) 0.1966(15) 0.5026(7)
H41 H 1.2371 0.2467 0.5110
H42 H 1.3040 0.1678 0.5312
Dy1 Dy 1.20745(7) 0.17524(3) 0.34088(2)
Dy2 Dy 0.71519(7) 0.07391(3) 0.34084(2)
O1 O 1.3255(10) 0.2250(5) 0.2736(3)
H1 H 1.4292 0.2008 0.2687
H2 H 1.3189 0.2813 0.2682
O2 O 1.0894(11) 0.2217(5) 0.4114(3)
H3 H 0.9766 0.2032 0.4088
H4 H 1.1682 0.1935 0.4328
O3 O 0.8331(11) 0.0200(5) 0.2740(3)
H5 H 0.9477 0.0270 0.2697
H6 H 0.7905 -0.0329 0.2689
O4 O 0.6030(11) 0.0417(5) 0.4126(3)
H7 H 0.6525 0.0062 0.4363
H8 H 0.4972 0.0649 0.4163
O5 O 0.7012(14) -0.0671(6) 0.3443(4)
O6 O 0.6563(15) -0.1155(6) 0.4138(4)
C1 C 0.6902(19) -0.1263(7) 0.3728(5)
C2 C 0.721(2) -0.2079(7) 0.3527(6)
H9 H 0.7626 -0.2087 0.3235
C3 C 0.696(3) -0.2738(8) 0.3705(7)
H10 H 0.6582 -0.2740 0.4002
C4 C 0.724(4) -0.3557(8) 0.3475(9)
H11 H 0.7696 -0.3473 0.3181
H12 H 0.6174 -0.3840 0.3416
H13 H 0.8022 -0.3876 0.3685
O7 O 0.9282(10) 0.1789(5) 0.3066(3)
O8 O 0.6607(10) 0.1786(5) 0.2798(3)
C5 C 0.8092(14) 0.2042(7) 0.2769(4)
C6 C 0.8482(18) 0.2606(8) 0.2395(4)
H14 H 0.9589 0.2802 0.2416
C7 C 0.748(2) 0.2846(8) 0.2054(4)
H15 H 0.6373 0.2654 0.2036
C8 C 0.786(3) 0.3412(11) 0.1665(5)
H16 H 0.7803 0.3118 0.1370
H17 H 0.8986 0.3633 0.1741
H18 H 0.7049 0.3847 0.1634
O9 O 0.9833(11) 0.0597(6) 0.3782(3)
O10 O 1.2571(10) 0.0653(5) 0.3974(3)
C9 C 1.1148(13) 0.0329(6) 0.4018(3)
C10 C 1.108(2) -0.0383(8) 0.4323(5)
H19 H 0.9998 -0.0585 0.4344
C11 C 1.223(2) -0.0752(9) 0.4554(6)
H20 H 1.3329 -0.0570 0.4540
C12 C 1.199(3) -0.1497(11) 0.4867(7)
H21 H 1.2709 -0.1444 0.5163
H22 H 1.2289 -0.1981 0.4707
H23 H 1.0825 -0.1530 0.4926
O11 O 1.7455(10) 0.1938(5) 0.3875(3)
O12 O 1.4691(10) 0.2025(5) 0.3789(3)
C13 C 1.6095(12) 0.2267(6) 0.3966(3)
C14 C 1.6224(17) 0.2978(7) 0.4279(4)
H24 H 1.7318 0.3151 0.4389
C15 C 1.506(2) 0.3372(9) 0.4414(6)
H25 H 1.3962 0.3194 0.4315
C16 C 1.525(3) 0.4121(13) 0.4724(10)
H26 H 1.5421 0.4588 0.4533
H27 H 1.6208 0.4055 0.4963
H28 H 1.4238 0.4194 0.4874
O13 O 1.2556(13) 0.3841(5) 0.2800(4)
O14 O 1.1757(13) 0.3156(5) 0.3397(3)
C17 C 1.2150(16) 0.3808(6) 0.3206(4)
C18 C 1.208(2) 0.4546(7) 0.3510(6)
H29 H 1.1515 0.4490 0.3778
C19 C 1.268(3) 0.5213(9) 0.3445(7)
H30 H 1.3214 0.5284 0.3174
C20 C 1.260(4) 0.5942(11) 0.3777(9)
H31 H 1.3723 0.6161 0.3855
H32 H 1.2165 0.5770 0.4062
H33 H 1.1870 0.6352 0.3622
O15 O 1.1634(10) 0.0649(5) 0.2846(3)
O16 O 1.4349(10) 0.0652(5) 0.3112(3)
C21 C 1.3134(13) 0.0383(7) 0.2826(4)
C22 C 1.3463(15) -0.0213(6) 0.2459(4)
H34 H 1.4533 -0.0452 0.2483
C23 C 1.2394(17) -0.0418(8) 0.2115(4)
H35 H 1.1304 -0.0203 0.2100
C24 C 1.276(2) -0.0992(10) 0.1725(5)
H36 H 1.2775 -0.0694 0.1434
H37 H 1.1901 -0.1404 0.1682
H38 H 1.3853 -0.1243 0.1810
Dy1_2 Dy 2.20745(7) 0.17524(3) 0.34088(2)
Dy1_3 Dy 0.20745(7) 0.17524(3) 0.34088(2)
Dy2_2 Dy 1.71519(7) 0.07391(3) 0.34084(2)
O1_2 O 2.3255(10) 0.2250(5) 0.2736(3)
H1_2 H 2.4292 0.2008 0.2687
H2_2 H 2.3189 0.2813 0.2682
O2_2 O 2.0894(11) 0.2217(5) 0.4114(3)
H3_2 H 1.9766 0.2032 0.4088
H4_2 H 2.1682 0.1935 0.4328
O3_2 O 1.8331(11) 0.0200(5) 0.2740(3)
H5_2 H 1.9477 0.0270 0.2697
H6_2 H 1.7905 -0.0329 0.2689
O4_2 O 1.6030(11) 0.0417(5) 0.4126(3)
H7_2 H 1.6525 0.0062 0.4363
H8_2 H 1.4972 0.0649 0.4163
O5_2 O 1.7012(14) -0.0671(6) 0.3443(4)
O6_2 O 1.6563(15) -0.1155(6) 0.4138(4)
C1_2 C 1.6902(19) -0.1263(7) 0.3728(5)
C2_2 C 1.721(2) -0.2079(7) 0.3527(6)
H9_2 H 1.7626 -0.2087 0.3235
C3_2 C 1.696(3) -0.2738(8) 0.3705(7)
H10_2 H 1.6582 -0.2740 0.4002
C4_2 C 1.724(4) -0.3557(8) 0.3475(9)
H11_2 H 1.7696 -0.3473 0.3181
H12_2 H 1.6174 -0.3840 0.3416
H13_2 H 1.8022 -0.3876 0.3685
O7_2 O 1.9282(10) 0.1789(5) 0.3066(3)
O8_2 O 1.6607(10) 0.1786(5) 0.2798(3)
C5_2 C 1.8092(14) 0.2042(7) 0.2769(4)
C6_2 C 1.8482(18) 0.2606(8) 0.2395(4)
H14_2 H 1.9589 0.2802 0.2416
C7_2 C 1.748(2) 0.2846(8) 0.2054(4)
H15_2 H 1.6373 0.2654 0.2036
C8_2 C 1.786(3) 0.3412(11) 0.1665(5)
H16_2 H 1.7803 0.3118 0.1370
H17_2 H 1.8986 0.3633 0.1741
H18_2 H 1.7049 0.3847 0.1634
O9_2 O 1.9833(11) 0.0597(6) 0.3782(3)
O10_2 O 2.2571(10) 0.0653(5) 0.3974(3)
C9_2 C 2.1148(13) 0.0329(6) 0.4018(3)
C10_2 C 2.108(2) -0.0383(8) 0.4323(5)
H19_2 H 1.9998 -0.0585 0.4344
C11_2 C 2.223(2) -0.0752(9) 0.4554(6)
H20_2 H 2.3329 -0.0570 0.4540
C12_2 C 2.199(3) -0.1497(11) 0.4867(7)
H21_2 H 2.2709 -0.1444 0.5163
H22_2 H 2.2289 -0.1981 0.4707
H23_2 H 2.0825 -0.1530 0.4926
O11_2 O 0.7455(10) 0.1938(5) 0.3875(3)
O12_2 O 0.4691(10) 0.2025(5) 0.3789(3)
O12_3 O 2.4691(10) 0.2025(5) 0.3789(3)
C13_2 C 0.6095(12) 0.2267(6) 0.3966(3)
C14_2 C 0.6224(17) 0.2978(7) 0.4279(4)
H24_2 H 0.7318 0.3151 0.4389
C15_2 C 0.506(2) 0.3372(9) 0.4414(6)
H25_2 H 0.3962 0.3194 0.4315
C16_2 C 0.525(3) 0.4121(13) 0.4724(10)
H26_2 H 0.5421 0.4588 0.4533
H27_2 H 0.6208 0.4055 0.4963
H28_2 H 0.4238 0.4194 0.4874
O13_2 O 2.2556(13) 0.3841(5) 0.2800(4)
O14_2 O 2.1757(13) 0.3156(5) 0.3397(3)
C17_2 C 2.2150(16) 0.3808(6) 0.3206(4)
C18_2 C 2.208(2) 0.4546(7) 0.3510(6)
H29_2 H 2.1515 0.4490 0.3778
C19_2 C 2.268(3) 0.5213(9) 0.3445(7)
H30_2 H 2.3214 0.5284 0.3174
C20_2 C 2.260(4) 0.5942(11) 0.3777(9)
H31_2 H 2.3723 0.6161 0.3855
H32_2 H 2.2165 0.5770 0.4062
H33_2 H 2.1870 0.6352 0.3622
O15_2 O 0.1634(10) 0.0649(5) 0.2846(3)
O15_3 O 2.1634(10) 0.0649(5) 0.2846(3)
O16_2 O 0.4349(10) 0.0652(5) 0.3112(3)
O16_3 O 2.4349(10) 0.0652(5) 0.3112(3)
C21_2 C 0.3134(13) 0.0383(7) 0.2826(4)
C22_2 C 0.3463(15) -0.0213(6) 0.2459(4)
H34_2 H 0.4533 -0.0452 0.2483
C23_2 C 0.2394(17) -0.0418(8) 0.2115(4)
H35_2 H 0.1304 -0.0203 0.2100
C24_2 C 0.276(2) -0.0992(10) 0.1725(5)
H36_2 H 0.2775 -0.0694 0.1434
H37_2 H 0.1901 -0.1404 0.1682
H38_2 H 0.3853 -0.1243 0.1810
loop_
_geom_bond_atom_site_label_1
_geom_bond_atom_site_label_2
_geom_bond_site_symmetry_1
_geom_bond_site_symmetry_2
Dy1 O1 1_555 1_555
Dy2 O3 1_555 1_555
O1 H1 1_555 1_555
H2 O1 1_555 1_555
O2 Dy1 1_555 1_555
H3 O2 1_555 1_555
H4 O2 1_555 1_555
O3 H5 1_555 1_555
H6 O3 1_555 1_555
O4 Dy2 1_555 1_555
H7 O4 1_555 1_555
H8 O4 1_555 1_555
O5 Dy2 1_555 1_555
O6 C1 1_555 1_555
C1 O5 1_555 1_555
C2 C1 1_555 1_555
H9 C2 1_555 1_555
C3 C2 1_555 1_555
H10 C3 1_555 1_555
C4 C3 1_555 1_555
H11 C4 1_555 1_555
H12 C4 1_555 1_555
H13 C4 1_555 1_555
O7 Dy1 1_555 1_555
O8 Dy2 1_555 1_555
C5 O7 1_555 1_555
C6 C5 1_555 1_555
H14 C6 1_555 1_555
C7 C6 1_555 1_555
H15 C7 1_555 1_555
C8 C7 1_555 1_555
H16 C8 1_555 1_555
H17 C8 1_555 1_555
H18 C8 1_555 1_555
O9 Dy2 1_555 1_555
O10 Dy1 1_555 1_555
C9 O9 1_555 1_555
C10 C9 1_555 1_555
H19 C10 1_555 1_555
C11 C10 1_555 1_555
H20 C11 1_555 1_555
C12 C11 1_555 1_555
H21 C12 1_555 1_555
H22 C12 1_555 1_555
H23 C12 1_555 1_555
O11 C13 1_555 1_555
O12 Dy1 1_555 1_555
C13 O12 1_555 1_555
C14 C13 1_555 1_555
H24 C14 1_555 1_555
C15 C14 1_555 1_555
H25 C15 1_555 1_555
C16 C15 1_555 1_555
H26 C16 1_555 1_555
H27 C16 1_555 1_555
H28 C16 1_555 1_555
O13 C17 1_555 1_555
O14 Dy1 1_555 1_555
C17 O14 1_555 1_555
C18 C17 1_555 1_555
H29 C18 1_555 1_555
C19 C18 1_555 1_555
H30 C19 1_555 1_555
C20 C19 1_555 1_555
H31 C20 1_555 1_555
H32 C20 1_555 1_555
H33 C20 1_555 1_555
O15 Dy1 1_555 1_555
O16 Dy1 1_555 1_555
C21 O15 1_555 1_555
C22 C21 1_555 1_555
H34 C22 1_555 1_555
C23 C22 1_555 1_555
H35 C23 1_555 1_555
C24 C23 1_555 1_555
H36 C24 1_555 1_555
H37 C24 1_555 1_555
H38 C24 1_555 1_555
O17 C25 1_555 1_555
C25 C26 1_555 1_555
C26 H39 1_555 1_555
O18 C25 1_555 1_555
H40 O18 1_555 1_555
O19 H41 1_555 1_555
H42 O19 1_555 1_555
Dy1_2 O1_2 1_555 1_555
Dy1_3 O12_2 1_555 1_555
Dy2_2 O11 1_555 1_555
O1_2 H1_2 1_555 1_555
H2_2 O1_2 1_555 1_555
O2_2 Dy1_2 1_555 1_555
H3_2 O2_2 1_555 1_555
H4_2 O2_2 1_555 1_555
O3_2 Dy2_2 1_555 1_555
H5_2 O3_2 1_555 1_555
H6_2 O3_2 1_555 1_555
O4_2 Dy2_2 1_555 1_555
H7_2 O4_2 1_555 1_555
H8_2 O4_2 1_555 1_555
O5_2 Dy2_2 1_555 1_555
O6_2 C1_2 1_555 1_555
C1_2 O5_2 1_555 1_555
C2_2 C1_2 1_555 1_555
H9_2 C2_2 1_555 1_555
C3_2 C2_2 1_555 1_555
H10_2 C3_2 1_555 1_555
C4_2 C3_2 1_555 1_555
H11_2 C4_2 1_555 1_555
H12_2 C4_2 1_555 1_555
H13_2 C4_2 1_555 1_555
O7_2 Dy1_2 1_555 1_555
O8_2 Dy2_2 1_555 1_555
C5_2 O7_2 1_555 1_555
C6_2 C5_2 1_555 1_555
H14_2 C6_2 1_555 1_555
C7_2 C6_2 1_555 1_555
H15_2 C7_2 1_555 1_555
C8_2 C7_2 1_555 1_555
H16_2 C8_2 1_555 1_555
H17_2 C8_2 1_555 1_555
H18_2 C8_2 1_555 1_555
O9_2 Dy2_2 1_555 1_555
O10_2 Dy1_2 1_555 1_555
C9_2 O9_2 1_555 1_555
C10_2 C9_2 1_555 1_555
H19_2 C10_2 1_555 1_555
C11_2 C10_2 1_555 1_555
H20_2 C11_2 1_555 1_555
C12_2 C11_2 1_555 1_555
H21_2 C12_2 1_555 1_555
H22_2 C12_2 1_555 1_555
H23_2 C12_2 1_555 1_555
O11_2 Dy2 1_555 1_555
O12_2 C13_2 1_555 1_555
O12_3 Dy1_2 1_555 1_555
C13_2 O11_2 1_555 1_555
C14_2 C13_2 1_555 1_555
H24_2 C14_2 1_555 1_555
C15_2 C14_2 1_555 1_555
H25_2 C15_2 1_555 1_555
C16_2 C15_2 1_555 1_555
H26_2 C16_2 1_555 1_555
H27_2 C16_2 1_555 1_555
H28_2 C16_2 1_555 1_555
O13_2 C17_2 1_555 1_555
O14_2 Dy1_2 1_555 1_555
C17_2 O14_2 1_555 1_555
C18_2 C17_2 1_555 1_555
H29_2 C18_2 1_555 1_555
C19_2 C18_2 1_555 1_555
H30_2 C19_2 1_555 1_555
C20_2 C19_2 1_555 1_555
H31_2 C20_2 1_555 1_555
H32_2 C20_2 1_555 1_555
H33_2 C20_2 1_555 1_555
O15_2 Dy1_3 1_555 1_555
O15_3 Dy1_2 1_555 1_555
O16_2 Dy2 1_555 1_555
O16_3 Dy1_2 1_555 1_555
C21_2 O15_2 1_555 1_555
C22_2 C21_2 1_555 1_555
H34_2 C22_2 1_555 1_555
C23_2 C22_2 1_555 1_555
H35_2 C23_2 1_555 1_555
C24_2 C23_2 1_555 1_555
H36_2 C24_2 1_555 1_555
H37_2 C24_2 1_555 1_555
H38_2 C24_2 1_555 1_555
O17B C25B 1_555 1_555
C25B C26B 1_555 1_555
C26B C26 1_555 1_555
H39B C26B 1_555 1_555
O18B C25B 1_555 1_555
H40B O18B 1_555 1_555
Dy2 O7 1_555 1_555
O8 C5 1_555 1_555
O10 C9 1_555 1_555
O16 C21 1_555 1_555
O16 Dy2_2 1_555 1_555
Dy1_3 O16_2 1_555 1_555
Dy2_2 O7_2 1_555 1_555
O8_2 C5_2 1_555 1_555
O10_2 C9_2 1_555 1_555
O16_2 C21_2 1_555 1_555

#END
