
#######################################################################
#
#                 Cambridge Crystallographic Data Centre
#                                CCDC 
#
#######################################################################
#
# If this CIF has been generated from an entry in the Cambridge 
# Structural Database, then it will include bibliographic, chemical, 
# crystal, experimental, refinement or atomic coordinate data resulting 
# from the CCDC's data processing and validation procedures.
#
#######################################################################

data_YAJGOG
_symmetry_cell_setting           monoclinic
_symmetry_space_group_name_H-M   'P 21/c'
_symmetry_Int_Tables_number      14
_space_group_name_Hall           '-P 2ybc'
loop_
_symmetry_equiv_pos_site_id
_symmetry_equiv_pos_as_xyz
1 x,y,z
2 -x,1/2+y,1/2-z
3 -x,-y,-z
4 x,1/2-y,1/2+z
_cell_length_a                   11.535(6)
_cell_length_b                   14.401(7)
_cell_length_c                   21.799(11)
_cell_angle_alpha                90
_cell_angle_beta                 97.94(4)
_cell_angle_gamma                90
_cell_volume                     3586.44
loop_
_atom_site_label
_atom_site_type_symbol
_atom_site_fract_x
_atom_site_fract_y
_atom_site_fract_z
Pr1 Pr 0.97739(4) 0.88011(3) 0.17849(2)
Pr2 Pr 1.14007(4) 1.14414(3) 0.22493(2)
O1 O 0.8332(6) 0.7974(4) 0.1035(3)
H1 H 0.7882 0.7469 0.1137
H2 H 0.8141 0.8224 0.0636
O2 O 1.0939(6) 0.8671(4) 0.2817(3)
H3 H 1.1502 0.9050 0.3047
H4 H 1.0413 0.8380 0.3047
O3 O 0.9947(5) 0.9508(4) 0.0736(3)
H5 H 0.9394 0.9553 0.0379
H6 H 1.0435 1.0023 0.0835
O4 O 1.1559(5) 0.9718(4) 0.1839(3)
O5 O 1.3153(5) 1.0581(4) 0.1974(3)
C1 C 1.2656(8) 0.9826(6) 0.1836(4)
C2 C 1.3329(8) 0.9008(6) 0.1668(4)
H7 H 1.2924 0.8459 0.1562
C3 C 1.4442(9) 0.9017(7) 0.1661(5)
H8 H 1.4829 0.9574 0.1766
C4 C 1.5181(10) 0.8212(8) 0.1499(6)
H9 H 1.5802 0.8104 0.1832
H10 H 1.5506 0.8354 0.1128
H11 H 1.4703 0.7665 0.1434
O6 O 0.8026(6) 0.9873(4) 0.1525(3)
O7 O 0.9521(5) 1.0507(3) 0.2089(3)
C5 C 0.8462(7) 1.0539(6) 0.1838(4)
C6 C 0.7747(7) 1.1359(6) 0.1945(4)
H12 H 0.8096 1.1836 0.2193
C7 C 0.6659(8) 1.1447(6) 0.1711(5)
H13 H 0.6325 1.0959 0.1468
C8 C 0.5891(9) 1.2259(7) 0.1794(6)
H14 H 0.5337 1.2341 0.1427
H15 H 0.6363 1.2808 0.1866
H16 H 0.5482 1.2151 0.2142
O8 O 1.1941(6) 1.0285(4) 0.3150(3)
O9 O 1.2703(5) 1.1662(4) 0.3309(2)
C9 C 1.2512(7) 1.0862(5) 0.3504(4)
C10 C 1.2940(9) 1.0601(7) 0.4149(4)
H17 H 1.2729 1.0024 0.4291
C11 C 1.3592(9) 1.1135(8) 0.4526(4)
H18 H 1.3836 1.1693 0.4372
C12 C 1.3991(12) 1.0919(10) 0.5203(4)
H19 H 1.4812 1.1051 0.5301
H20 H 1.3854 1.0275 0.5280
H21 H 1.3561 1.1296 0.5457
O10 O 1.0846(5) 1.1336(4) 0.1022(2)
O11 O 0.9983(6) 1.2392(4) 0.1502(3)
C13 C 1.0060(8) 1.1943(6) 0.1012(4)
C14 C 0.9199(8) 1.2101(6) 0.0458(4)
H22 H 0.9382 1.1888 0.0080
C15 C 0.8219(8) 1.2512(7) 0.0461(4)
H23 H 0.8095 1.2787 0.0832
C16 C 0.7248(9) 1.2599(9) -0.0067(5)
H24 H 0.7094 1.3244 -0.0155
H25 H 0.6555 1.2310 0.0043
H26 H 0.7470 1.2300 -0.0426
O12 O 0.7248(6) 0.7635(4) 0.3073(3)
O13 O 0.8423(5) 0.8268(4) 0.2480(3)
C17 C 0.7578(7) 0.8334(5) 0.2810(4)
C18 C 0.7040(8) 0.9254(5) 0.2876(4)
H27 H 0.7390 0.9766 0.2717
C19 C 0.6122(8) 0.9395(6) 0.3137(4)
H28 H 0.5773 0.8879 0.3292
C20 C 0.5561(11) 1.0334(7) 0.3214(5)
H29 H 0.5468 1.0424 0.3641
H30 H 0.4809 1.0357 0.2964
H31 H 0.6052 1.0815 0.3086
O14 O 1.0946(6) 0.7551(4) 0.1332(3)
O15 O 0.9887(5) 0.7045(4) 0.2004(3)
C21 C 1.0512(8) 0.6893(5) 0.1571(4)
C22 C 1.0585(9) 0.5899(6) 0.1385(5)
H32 H 1.0339 0.5455 0.1649
C23 C 1.0950(12) 0.5610(7) 0.0904(5)
H33 H 1.1243 0.6043 0.0648
C24 C 1.0939(12) 0.4589(6) 0.0713(6)
H34 H 1.1464 0.4499 0.0412
H35 H 1.0161 0.4414 0.0536
H36 H 1.1186 0.4212 0.1070
Pr2A Pr 0.85993(4) 0.64414(3) 0.27507(2)
O12A O 1.2752(6) 1.2635(4) 0.1927(3)
O13A O 1.1577(5) 1.3268(4) 0.2520(3)
O15A O 1.0113(5) 1.2045(4) 0.2996(3)
O16 O 0.7960(7) 0.8989(6) -0.0037(3)
H37 H 0.8366 0.8879 -0.0374
C25 C 0.6922(14) 0.9583(12) -0.0160(7)
H38 H 0.6729 0.9853 0.0221
H39 H 0.7050 1.0079 -0.0444
C26 C 0.6030(16) 0.8987(15) -0.0425(8)
H40 H 0.5544 0.9306 -0.0752
H41 H 0.5565 0.8798 -0.0115
H42 H 0.6370 0.8450 -0.0591
loop_
_geom_bond_atom_site_label_1
_geom_bond_atom_site_label_2
_geom_bond_site_symmetry_1
_geom_bond_site_symmetry_2
Pr1 O1 1_555 1_555
Pr2 O4 1_555 1_555
O1 H1 1_555 1_555
H2 O1 1_555 1_555
O2 Pr1 1_555 1_555
H3 O2 1_555 1_555
H4 O2 1_555 1_555
O3 Pr1 1_555 1_555
H5 O3 1_555 1_555
H6 O3 1_555 1_555
O4 Pr1 1_555 1_555
O5 Pr2 1_555 1_555
C1 O4 1_555 1_555
C2 C1 1_555 1_555
H7 C2 1_555 1_555
C3 C2 1_555 1_555
H8 C3 1_555 1_555
C4 C3 1_555 1_555
H9 C4 1_555 1_555
H10 C4 1_555 1_555
H11 C4 1_555 1_555
O6 Pr1 1_555 1_555
O7 Pr1 1_555 1_555
C5 O6 1_555 1_555
C6 C5 1_555 1_555
H12 C6 1_555 1_555
C7 C6 1_555 1_555
H13 C7 1_555 1_555
C8 C7 1_555 1_555
H14 C8 1_555 1_555
H15 C8 1_555 1_555
H16 C8 1_555 1_555
O8 Pr2 1_555 1_555
O9 Pr2 1_555 1_555
C9 O8 1_555 1_555
C10 C9 1_555 1_555
H17 C10 1_555 1_555
C11 C10 1_555 1_555
H18 C11 1_555 1_555
C12 C11 1_555 1_555
H19 C12 1_555 1_555
H20 C12 1_555 1_555
H21 C12 1_555 1_555
O10 Pr2 1_555 1_555
O11 Pr2 1_555 1_555
C13 O10 1_555 1_555
C14 C13 1_555 1_555
H22 C14 1_555 1_555
C15 C14 1_555 1_555
H23 C15 1_555 1_555
C16 C15 1_555 1_555
H24 C16 1_555 1_555
H25 C16 1_555 1_555
H26 C16 1_555 1_555
O12 C17 1_555 1_555
O13 Pr1 1_555 1_555
C17 O13 1_555 1_555
C18 C17 1_555 1_555
H27 C18 1_555 1_555
C19 C18 1_555 1_555
H28 C19 1_555 1_555
C20 C19 1_555 1_555
H29 C20 1_555 1_555
H30 C20 1_555 1_555
H31 C20 1_555 1_555
O14 Pr1 1_555 1_555
O15 Pr1 1_555 1_555
C21 O14 1_555 1_555
C22 C21 1_555 1_555
H32 C22 1_555 1_555
C23 C22 1_555 1_555
H33 C23 1_555 1_555
C24 C23 1_555 1_555
H34 C24 1_555 1_555
H35 C24 1_555 1_555
H36 C24 1_555 1_555
O16 H37 1_555 1_555
C25 O16 1_555 1_555
H38 C25 1_555 1_555
H39 C25 1_555 1_555
C26 C25 1_555 1_555
H40 C26 1_555 1_555
H41 C26 1_555 1_555
H42 C26 1_555 1_555
Pr2A O12 1_555 1_555
O12A Pr2 1_555 1_555
O13A Pr2 1_555 1_555
O15A Pr2 1_555 1_555
Pr2 O7 1_555 1_555
O5 C1 1_555 1_555
O7 C5 1_555 1_555
O9 C9 1_555 1_555
O11 C13 1_555 1_555
O13 Pr2A 1_555 1_555
O15 C21 1_555 1_555
O15 Pr2A 1_555 1_555

#END
