
#######################################################################
#
#                 Cambridge Crystallographic Data Centre
#                                CCDC 
#
#######################################################################
#
# If this CIF has been generated from an entry in the Cambridge 
# Structural Database, then it will include bibliographic, chemical, 
# crystal, experimental, refinement or atomic coordinate data resulting 
# from the CCDC's data processing and validation procedures.
#
#######################################################################

data_YAJHAT
_symmetry_cell_setting           monoclinic
_symmetry_space_group_name_H-M   'P 21/c'
_symmetry_Int_Tables_number      14
_space_group_name_Hall           '-P 2ybc'
loop_
_symmetry_equiv_pos_site_id
_symmetry_equiv_pos_as_xyz
1 x,y,z
2 -x,1/2+y,1/2-z
3 -x,-y,-z
4 x,1/2-y,1/2+z
_cell_length_a                   7.9009(9)
_cell_length_b                   16.4149(18)
_cell_length_c                   28.262(3)
_cell_angle_alpha                90
_cell_angle_beta                 97.465(2)
_cell_angle_gamma                90
_cell_volume                     3634.3
loop_
_atom_site_label
_atom_site_type_symbol
_atom_site_fract_x
_atom_site_fract_y
_atom_site_fract_z
C25 C 0.9145(13) 0.6086(6) 0.4989(7)
C26 C 0.9669(16) 0.5251(7) 0.4861(5)
H39 H 0.9469 0.5103 0.4541
O17 O 0.9349(18) 0.6235(8) 0.5424(7)
H40 H 0.9131 0.6701 0.5598
O18 O 0.862(3) 0.6495(10) 0.4679(7)
C25B C 1.0855(13) 0.3914(6) 0.5011(7)
C26B C 1.0331(16) 0.4749(7) 0.5139(5)
H39B H 1.0531 0.4897 0.5459
O17B O 1.0651(18) 0.3765(8) 0.4576(7)
H40B H 1.0869 0.3299 0.4402
O18B O 1.138(3) 0.3505(10) 0.5321(7)
O19 O 1.281(4) 0.2127(18) 0.5080(10)
Ho1 Ho 1.21031(6) 0.17630(3) 0.34031(2)
Ho2 Ho 0.71961(6) 0.07313(3) 0.34103(2)
O1 O 1.3304(8) 0.2262(4) 0.2751(2)
H1 H 1.4326 0.2037 0.2675
H2 H 1.3166 0.2814 0.2667
O2 O 1.0897(8) 0.2213(4) 0.4100(3)
H3 H 0.9703 0.2174 0.4062
H4 H 1.1498 0.2010 0.4383
O3 O 0.8364(8) 0.0186(4) 0.2753(3)
H5 H 0.9437 0.0382 0.2698
H6 H 0.8159 -0.0366 0.2683
O4 O 0.6053(8) 0.0438(4) 0.4118(2)
H7 H 0.6567 0.0011 0.4305
H8 H 0.4866 0.0482 0.4110
O5 O 0.6965(11) -0.0657(5) 0.3435(3)
O6 O 0.6606(11) -0.1164(5) 0.4126(3)
C1 C 0.6905(14) -0.1240(6) 0.3707(5)
C2 C 0.7194(17) -0.2065(6) 0.3506(5)
H9 H 0.7500 -0.2086 0.3200
C3 C 0.706(2) -0.2712(7) 0.3710(6)
H10 H 0.6748 -0.2708 0.4016
C4 C 0.740(2) -0.3540(7) 0.3480(6)
H11 H 0.6358 -0.3845 0.3426
H12 H 0.8232 -0.3840 0.3689
H13 H 0.7826 -0.3449 0.3181
O7 O 0.9294(8) 0.1797(4) 0.3077(3)
O8 O 0.6631(8) 0.1766(4) 0.2798(3)
C5 C 0.8113(12) 0.2030(6) 0.2771(4)
C6 C 0.8505(15) 0.2603(7) 0.2403(4)
H14 H 0.9594 0.2829 0.2434
C7 C 0.7479(16) 0.2807(7) 0.2053(4)
H15 H 0.6384 0.2591 0.2032
C8 C 0.7846(19) 0.3375(8) 0.1659(4)
H16 H 0.7145 0.3852 0.1661
H17 H 0.7599 0.3103 0.1357
H18 H 0.9028 0.3530 0.1709
O9 O 0.9822(9) 0.0567(5) 0.3798(3)
O10 O 1.2581(9) 0.0679(5) 0.3960(3)
C9 C 1.1209(13) 0.0331(6) 0.4016(4)
C10 C 1.1151(18) -0.0365(7) 0.4328(5)
H19 H 1.0034 -0.0529 0.4346
C11 C 1.211(2) -0.0770(8) 0.4559(5)
H20 H 1.3252 -0.0630 0.4552
C12 C 1.184(2) -0.1496(8) 0.4875(5)
H21 H 1.1162 -0.1333 0.5116
H22 H 1.2930 -0.1691 0.5025
H23 H 1.1271 -0.1922 0.4685
O11 O 1.7441(8) 0.1922(4) 0.3870(3)
O12 O 1.4660(8) 0.2037(4) 0.3808(3)
C13 C 1.6141(12) 0.2284(5) 0.3961(3)
C14 C 1.6325(12) 0.2982(5) 0.4284(4)
H24 H 1.7428 0.3147 0.4399
C15 C 1.5123(14) 0.3375(7) 0.4417(4)
H25 H 1.4027 0.3194 0.4308
C16 C 1.5261(18) 0.4110(8) 0.4737(6)
H26 H 1.4851 0.3976 0.5032
H27 H 1.4587 0.4545 0.4583
H28 H 1.6432 0.4278 0.4799
O13 O 1.2557(10) 0.3845(4) 0.2796(3)
O14 O 1.1745(9) 0.3146(4) 0.3391(3)
C17 C 1.2164(13) 0.3805(6) 0.3213(4)
C18 C 1.2104(15) 0.4551(6) 0.3513(4)
H29 H 1.1558 0.4497 0.3784
C19 C 1.2670(19) 0.5200(7) 0.3448(5)
H30 H 1.3184 0.5275 0.3173
C20 C 1.262(2) 0.5936(8) 0.3789(6)
H31 H 1.1874 0.6348 0.3635
H32 H 1.3744 0.6155 0.3866
H33 H 1.2194 0.5762 0.4076
O15 O 1.1672(8) 0.0677(4) 0.2844(3)
O16 O 1.4381(8) 0.0664(4) 0.3111(3)
C21 C 1.3159(12) 0.0395(6) 0.2826(3)
C22 C 1.3486(13) -0.0207(6) 0.2463(4)
H34 H 1.4556 -0.0451 0.2491
C23 C 1.2410(14) -0.0411(6) 0.2118(4)
H35 H 1.1325 -0.0184 0.2102
C24 C 1.2728(14) -0.0988(7) 0.1730(4)
H36 H 1.3768 -0.1282 0.1824
H37 H 1.2825 -0.0688 0.1443
H38 H 1.1795 -0.1366 0.1673
Ho1_2 Ho 2.21031(6) 0.17630(3) 0.34031(2)
Ho1_3 Ho 0.21031(6) 0.17630(3) 0.34031(2)
Ho2_2 Ho 1.71961(6) 0.07313(3) 0.34103(2)
O1_2 O 2.3304(8) 0.2262(4) 0.2751(2)
H1_2 H 2.4326 0.2037 0.2675
H2_2 H 2.3166 0.2814 0.2667
O2_2 O 2.0897(8) 0.2213(4) 0.4100(3)
H3_2 H 1.9703 0.2174 0.4062
H4_2 H 2.1498 0.2010 0.4383
O3_2 O 1.8364(8) 0.0186(4) 0.2753(3)
H5_2 H 1.9437 0.0382 0.2698
H6_2 H 1.8159 -0.0366 0.2683
O4_2 O 1.6053(8) 0.0438(4) 0.4118(2)
H7_2 H 1.6567 0.0011 0.4305
H8_2 H 1.4866 0.0482 0.4110
O5_2 O 1.6965(11) -0.0657(5) 0.3435(3)
O6_2 O 1.6606(11) -0.1164(5) 0.4126(3)
C1_2 C 1.6905(14) -0.1240(6) 0.3707(5)
C2_2 C 1.7194(17) -0.2065(6) 0.3506(5)
H9_2 H 1.7500 -0.2086 0.3200
C3_2 C 1.706(2) -0.2712(7) 0.3710(6)
H10_2 H 1.6748 -0.2708 0.4016
C4_2 C 1.740(2) -0.3540(7) 0.3480(6)
H11_2 H 1.6358 -0.3845 0.3426
H12_2 H 1.8232 -0.3840 0.3689
H13_2 H 1.7826 -0.3449 0.3181
O7_2 O 1.9294(8) 0.1797(4) 0.3077(3)
O8_2 O 1.6631(8) 0.1766(4) 0.2798(3)
C5_2 C 1.8113(12) 0.2030(6) 0.2771(4)
C6_2 C 1.8505(15) 0.2603(7) 0.2403(4)
H14_2 H 1.9594 0.2829 0.2434
C7_2 C 1.7479(16) 0.2807(7) 0.2053(4)
H15_2 H 1.6384 0.2591 0.2032
C8_2 C 1.7846(19) 0.3375(8) 0.1659(4)
H16_2 H 1.7145 0.3852 0.1661
H17_2 H 1.7599 0.3103 0.1357
H18_2 H 1.9028 0.3530 0.1709
O9_2 O 1.9822(9) 0.0567(5) 0.3798(3)
O10_2 O 2.2581(9) 0.0679(5) 0.3960(3)
C9_2 C 2.1209(13) 0.0331(6) 0.4016(4)
C10_2 C 2.1151(18) -0.0365(7) 0.4328(5)
H19_2 H 2.0034 -0.0529 0.4346
C11_2 C 2.211(2) -0.0770(8) 0.4559(5)
H20_2 H 2.3252 -0.0630 0.4552
C12_2 C 2.184(2) -0.1496(8) 0.4875(5)
H21_2 H 2.1162 -0.1333 0.5116
H22_2 H 2.2930 -0.1691 0.5025
H23_2 H 2.1271 -0.1922 0.4685
O11_2 O 0.7441(8) 0.1922(4) 0.3870(3)
O12_2 O 0.4660(8) 0.2037(4) 0.3808(3)
O12_3 O 2.4660(8) 0.2037(4) 0.3808(3)
C13_2 C 0.6141(12) 0.2284(5) 0.3961(3)
C14_2 C 0.6325(12) 0.2982(5) 0.4284(4)
H24_2 H 0.7428 0.3147 0.4399
C15_2 C 0.5123(14) 0.3375(7) 0.4417(4)
H25_2 H 0.4027 0.3194 0.4308
C16_2 C 0.5261(18) 0.4110(8) 0.4737(6)
H26_2 H 0.4851 0.3976 0.5032
H27_2 H 0.4587 0.4545 0.4583
H28_2 H 0.6432 0.4278 0.4799
O13_2 O 2.2557(10) 0.3845(4) 0.2796(3)
O14_2 O 2.1745(9) 0.3146(4) 0.3391(3)
C17_2 C 2.2164(13) 0.3805(6) 0.3213(4)
C18_2 C 2.2104(15) 0.4551(6) 0.3513(4)
H29_2 H 2.1558 0.4497 0.3784
C19_2 C 2.2670(19) 0.5200(7) 0.3448(5)
H30_2 H 2.3184 0.5275 0.3173
C20_2 C 2.262(2) 0.5936(8) 0.3789(6)
H31_2 H 2.1874 0.6348 0.3635
H32_2 H 2.3744 0.6155 0.3866
H33_2 H 2.2194 0.5762 0.4076
O15_2 O 0.1672(8) 0.0677(4) 0.2844(3)
O15_3 O 2.1672(8) 0.0677(4) 0.2844(3)
O16_2 O 0.4381(8) 0.0664(4) 0.3111(3)
O16_3 O 2.4381(8) 0.0664(4) 0.3111(3)
C21_2 C 0.3159(12) 0.0395(6) 0.2826(3)
C22_2 C 0.3486(13) -0.0207(6) 0.2463(4)
H34_2 H 0.4556 -0.0451 0.2491
C23_2 C 0.2410(14) -0.0411(6) 0.2118(4)
H35_2 H 0.1325 -0.0184 0.2102
C24_2 C 0.2728(14) -0.0988(7) 0.1730(4)
H36_2 H 0.3768 -0.1282 0.1824
H37_2 H 0.2825 -0.0688 0.1443
H38_2 H 0.1795 -0.1366 0.1673
O20? O 1.282(6) 0.166(3) 0.4927(17)
loop_
_geom_bond_atom_site_label_1
_geom_bond_atom_site_label_2
_geom_bond_site_symmetry_1
_geom_bond_site_symmetry_2
Ho1 O1 1_555 1_555
Ho2 O3 1_555 1_555
O1 H1 1_555 1_555
H2 O1 1_555 1_555
O2 Ho1 1_555 1_555
H3 O2 1_555 1_555
H4 O2 1_555 1_555
O3 H5 1_555 1_555
H6 O3 1_555 1_555
O4 Ho2 1_555 1_555
H7 O4 1_555 1_555
H8 O4 1_555 1_555
O5 Ho2 1_555 1_555
O6 C1 1_555 1_555
C1 O5 1_555 1_555
C2 C1 1_555 1_555
H9 C2 1_555 1_555
C3 C2 1_555 1_555
H10 C3 1_555 1_555
C4 C3 1_555 1_555
H11 C4 1_555 1_555
H12 C4 1_555 1_555
H13 C4 1_555 1_555
O7 Ho1 1_555 1_555
O8 Ho2 1_555 1_555
C5 O7 1_555 1_555
C6 C5 1_555 1_555
H14 C6 1_555 1_555
C7 C6 1_555 1_555
H15 C7 1_555 1_555
C8 C7 1_555 1_555
H16 C8 1_555 1_555
H17 C8 1_555 1_555
H18 C8 1_555 1_555
O9 Ho2 1_555 1_555
O10 Ho1 1_555 1_555
C9 O9 1_555 1_555
C10 C9 1_555 1_555
H19 C10 1_555 1_555
C11 C10 1_555 1_555
H20 C11 1_555 1_555
C12 C11 1_555 1_555
H21 C12 1_555 1_555
H22 C12 1_555 1_555
H23 C12 1_555 1_555
O11 C13 1_555 1_555
O12 Ho1 1_555 1_555
C13 O12 1_555 1_555
C14 C13 1_555 1_555
H24 C14 1_555 1_555
C15 C14 1_555 1_555
H25 C15 1_555 1_555
C16 C15 1_555 1_555
H26 C16 1_555 1_555
H27 C16 1_555 1_555
H28 C16 1_555 1_555
O13 C17 1_555 1_555
O14 Ho1 1_555 1_555
C17 O14 1_555 1_555
C18 C17 1_555 1_555
H29 C18 1_555 1_555
C19 C18 1_555 1_555
H30 C19 1_555 1_555
C20 C19 1_555 1_555
H31 C20 1_555 1_555
H32 C20 1_555 1_555
H33 C20 1_555 1_555
O15 Ho1 1_555 1_555
O16 Ho1 1_555 1_555
C21 O15 1_555 1_555
C22 C21 1_555 1_555
H34 C22 1_555 1_555
C23 C22 1_555 1_555
H35 C23 1_555 1_555
C24 C23 1_555 1_555
H36 C24 1_555 1_555
H37 C24 1_555 1_555
H38 C24 1_555 1_555
C25 C26 1_555 1_555
C26 H39 1_555 1_555
O17 C25 1_555 1_555
H40 O17 1_555 1_555
O18 C25 1_555 1_555
Ho1_2 O1_2 1_555 1_555
Ho1_3 O12_2 1_555 1_555
Ho2_2 O11 1_555 1_555
O1_2 H1_2 1_555 1_555
H2_2 O1_2 1_555 1_555
O2_2 Ho1_2 1_555 1_555
H3_2 O2_2 1_555 1_555
H4_2 O2_2 1_555 1_555
O3_2 Ho2_2 1_555 1_555
H5_2 O3_2 1_555 1_555
H6_2 O3_2 1_555 1_555
O4_2 Ho2_2 1_555 1_555
H7_2 O4_2 1_555 1_555
H8_2 O4_2 1_555 1_555
O5_2 Ho2_2 1_555 1_555
O6_2 C1_2 1_555 1_555
C1_2 O5_2 1_555 1_555
C2_2 C1_2 1_555 1_555
H9_2 C2_2 1_555 1_555
C3_2 C2_2 1_555 1_555
H10_2 C3_2 1_555 1_555
C4_2 C3_2 1_555 1_555
H11_2 C4_2 1_555 1_555
H12_2 C4_2 1_555 1_555
H13_2 C4_2 1_555 1_555
O7_2 Ho1_2 1_555 1_555
O8_2 Ho2_2 1_555 1_555
C5_2 O7_2 1_555 1_555
C6_2 C5_2 1_555 1_555
H14_2 C6_2 1_555 1_555
C7_2 C6_2 1_555 1_555
H15_2 C7_2 1_555 1_555
C8_2 C7_2 1_555 1_555
H16_2 C8_2 1_555 1_555
H17_2 C8_2 1_555 1_555
H18_2 C8_2 1_555 1_555
O9_2 Ho2_2 1_555 1_555
O10_2 Ho1_2 1_555 1_555
C9_2 O9_2 1_555 1_555
C10_2 C9_2 1_555 1_555
H19_2 C10_2 1_555 1_555
C11_2 C10_2 1_555 1_555
H20_2 C11_2 1_555 1_555
C12_2 C11_2 1_555 1_555
H21_2 C12_2 1_555 1_555
H22_2 C12_2 1_555 1_555
H23_2 C12_2 1_555 1_555
O11_2 Ho2 1_555 1_555
O12_2 C13_2 1_555 1_555
O12_3 Ho1_2 1_555 1_555
C13_2 O11_2 1_555 1_555
C14_2 C13_2 1_555 1_555
H24_2 C14_2 1_555 1_555
C15_2 C14_2 1_555 1_555
H25_2 C15_2 1_555 1_555
C16_2 C15_2 1_555 1_555
H26_2 C16_2 1_555 1_555
H27_2 C16_2 1_555 1_555
H28_2 C16_2 1_555 1_555
O13_2 C17_2 1_555 1_555
O14_2 Ho1_2 1_555 1_555
C17_2 O14_2 1_555 1_555
C18_2 C17_2 1_555 1_555
H29_2 C18_2 1_555 1_555
C19_2 C18_2 1_555 1_555
H30_2 C19_2 1_555 1_555
C20_2 C19_2 1_555 1_555
H31_2 C20_2 1_555 1_555
H32_2 C20_2 1_555 1_555
H33_2 C20_2 1_555 1_555
O15_2 Ho1_3 1_555 1_555
O15_3 Ho1_2 1_555 1_555
O16_2 Ho2 1_555 1_555
O16_3 Ho1_2 1_555 1_555
C21_2 O15_2 1_555 1_555
C22_2 C21_2 1_555 1_555
H34_2 C22_2 1_555 1_555
C23_2 C22_2 1_555 1_555
H35_2 C23_2 1_555 1_555
C24_2 C23_2 1_555 1_555
H36_2 C24_2 1_555 1_555
H37_2 C24_2 1_555 1_555
H38_2 C24_2 1_555 1_555
C25B C26B 1_555 1_555
C26B C26 1_555 1_555
H39B C26B 1_555 1_555
O17B C25B 1_555 1_555
H40B O17B 1_555 1_555
O18B C25B 1_555 1_555
Ho2 O7 1_555 1_555
O8 C5 1_555 1_555
O10 C9 1_555 1_555
O16 C21 1_555 1_555
O16 Ho2_2 1_555 1_555
Ho1_3 O16_2 1_555 1_555
Ho2_2 O7_2 1_555 1_555
O8_2 C5_2 1_555 1_555
O10_2 C9_2 1_555 1_555
O16_2 C21_2 1_555 1_555

#END
