
#######################################################################
#
#                 Cambridge Crystallographic Data Centre
#                                CCDC 
#
#######################################################################
#
# If this CIF has been generated from an entry in the Cambridge 
# Structural Database, then it will include bibliographic, chemical, 
# crystal, experimental, refinement or atomic coordinate data resulting 
# from the CCDC's data processing and validation procedures.
#
#######################################################################

data_YAJMAZ
_symmetry_cell_setting           monoclinic
_symmetry_space_group_name_H-M   'P 21/c'
_symmetry_Int_Tables_number      14
_space_group_name_Hall           '-P 2ybc'
loop_
_symmetry_equiv_pos_site_id
_symmetry_equiv_pos_as_xyz
1 x,y,z
2 -x,1/2+y,1/2-z
3 -x,-y,-z
4 x,1/2-y,1/2+z
_cell_length_a                   10.777(5)
_cell_length_b                   13.465(5)
_cell_length_c                   17.012(5)
_cell_angle_alpha                90
_cell_angle_beta                 90.544(5)
_cell_angle_gamma                90
_cell_volume                     2468.54
loop_
_atom_site_label
_atom_site_type_symbol
_atom_site_fract_x
_atom_site_fract_y
_atom_site_fract_z
N1 N 0.9831(3) 0.3713(3) 1.1884(2)
C1 C 1.0067(5) 0.3051(4) 1.1307(3)
N2 N 0.9532(4) 0.3260(3) 1.0626(2)
N3 N 0.8925(3) 0.4127(3) 1.0782(2)
I1 I -0.09919(4) 1.03435(3) 1.14625(2)
I2 I -0.17988(4) 0.71493(3) 1.18384(2)
Zn1 Zn -0.03403(5) 0.86299(4) 1.19463(3)
C2 C 0.5855(5) 0.6003(4) 0.7714(3)
H1 H 0.6647 0.5829 0.7486
H2 H 0.5598 0.6636 0.7495
C3 C 0.3491(4) 0.7598(4) 0.9468(3)
H3 H 0.2832 0.8021 0.9353
C4 C 0.6829(4) 0.5547(3) 0.9035(3)
C5 C 0.4198(4) 0.7227(4) 0.8878(3)
H4 H 0.4032 0.7398 0.8358
C6 C 0.3523(6) 0.4260(4) 0.5499(3)
H5 H 0.3390 0.4897 0.5245
H6 H 0.4278 0.3978 0.5289
C7 C 0.3697(5) 0.4426(4) 0.6378(3)
H7 H 0.2940 0.4711 0.6585
H8 H 0.3818 0.3786 0.6630
N4 N 0.1362(4) 0.8194(3) 1.1538(2)
C8 C 0.2256(5) 0.7780(4) 1.2003(3)
H9 H 0.2182 0.7735 1.2546
N5 N 0.6005(4) 0.6103(3) 0.8572(2)
C9 C 0.4772(5) 0.5094(4) 0.6601(3)
H10 H 0.4650 0.5741 0.6361
H11 H 0.5533 0.4815 0.6395
C10 C 0.7796(4) 0.4941(4) 0.8817(3)
H12 H 0.7978 0.4840 0.8289
C11 C 0.5174(4) 0.6588(3) 0.9063(2)
C12 C 0.6519(4) 0.5700(3) 0.9836(2)
C13 C 0.8490(4) 0.4486(3) 0.9403(3)
H13 H 0.9159 0.4085 0.9270
C14 C 0.4751(4) 0.6738(3) 1.0451(2)
H14 H 0.4932 0.6590 1.0974
N6 N 0.2948(3) 0.7664(3) 1.0863(2)
C15 C 0.1847(5) 0.8103(4) 1.0829(3)
H15 H 0.1465 0.8318 1.0367
C16 C 0.3759(4) 0.7341(3) 1.0252(3)
C17 C 0.8194(4) 0.4622(3) 1.0190(3)
C18 C 0.7217(4) 0.5208(3) 1.0420(3)
H16 H 0.7024 0.5278 1.0948
N7 N 0.3222(4) 0.7450(4) 1.1631(2)
C19 C 0.5467(4) 0.6359(3) 0.9849(2)
C20 C 0.9113(4) 0.4381(3) 1.1526(3)
H17 H 0.8789 0.4946 1.1763
C21 C 0.2460(6) 0.3589(5) 0.5300(4)
H18 H 0.2534 0.2985 0.5595
H19 H 0.2468 0.3440 0.4748
H20 H 0.1694 0.3913 0.5428
C22 C 0.4907(5) 0.5220(4) 0.7495(3)
H21 H 0.4109 0.5403 0.7712
H22 H 0.5152 0.4591 0.7727
H23 H 1.057(3) 0.250(2) 1.142(3)
N1A N 0.0169(3) 0.8713(3) 1.3116(2)
Zn1A Zn 1.03403(5) 0.36299(4) 1.30537(3)
loop_
_geom_bond_atom_site_label_1
_geom_bond_atom_site_label_2
_geom_bond_site_symmetry_1
_geom_bond_site_symmetry_2
N1 C1 1_555 1_555
C1 N2 1_555 1_555
N2 N3 1_555 1_555
N3 C17 1_555 1_555
I1 Zn1 1_555 1_555
I2 Zn1 1_555 1_555
Zn1 N4 1_555 1_555
C2 H1 1_555 1_555
H2 C2 1_555 1_555
C3 H3 1_555 1_555
C4 N5 1_555 1_555
C5 C3 1_555 1_555
H4 C5 1_555 1_555
C6 H5 1_555 1_555
H6 C6 1_555 1_555
C7 C6 1_555 1_555
H7 C7 1_555 1_555
H8 C7 1_555 1_555
N4 C8 1_555 1_555
C8 H9 1_555 1_555
N5 C2 1_555 1_555
C9 C7 1_555 1_555
H10 C9 1_555 1_555
H11 C9 1_555 1_555
C10 C4 1_555 1_555
H12 C10 1_555 1_555
C11 C5 1_555 1_555
C12 C4 1_555 1_555
C13 C10 1_555 1_555
H13 C13 1_555 1_555
C14 H14 1_555 1_555
N6 C15 1_555 1_555
C15 N4 1_555 1_555
H15 C15 1_555 1_555
C16 C3 1_555 1_555
C17 C13 1_555 1_555
C18 C12 1_555 1_555
H16 C18 1_555 1_555
N7 C8 1_555 1_555
C19 C11 1_555 1_555
C20 N1 1_555 1_555
H17 C20 1_555 1_555
C21 C6 1_555 1_555
H18 C21 1_555 1_555
H19 C21 1_555 1_555
H20 C21 1_555 1_555
C22 C2 1_555 1_555
H21 C22 1_555 1_555
H22 C22 1_555 1_555
H23 C1 1_555 1_555
N1A Zn1 1_555 1_555
Zn1A N1 1_555 1_555
N3 C20 1_555 1_555
N5 C11 1_555 1_555
C9 C22 1_555 1_555
C12 C19 1_555 1_555
C14 C16 1_555 1_555
C14 C19 1_555 1_555
N6 C16 1_555 1_555
N6 N7 1_555 1_555
C17 C18 1_555 1_555

#END
