
#######################################################################
#
#                 Cambridge Crystallographic Data Centre
#                                CCDC 
#
#######################################################################
#
# If this CIF has been generated from an entry in the Cambridge 
# Structural Database, then it will include bibliographic, chemical, 
# crystal, experimental, refinement or atomic coordinate data resulting 
# from the CCDC's data processing and validation procedures.
#
#######################################################################

data_YAJQUX
_symmetry_cell_setting           monoclinic
_symmetry_space_group_name_H-M   'P 21/n'
_symmetry_Int_Tables_number      14
_space_group_name_Hall           '-P 2yn'
loop_
_symmetry_equiv_pos_site_id
_symmetry_equiv_pos_as_xyz
1 x,y,z
2 1/2-x,1/2+y,1/2-z
3 -x,-y,-z
4 1/2+x,1/2-y,1/2+z
_cell_length_a                   16.201(5)
_cell_length_b                   9.041(5)
_cell_length_c                   17.093(5)
_cell_angle_alpha                90
_cell_angle_beta                 117.449(5)
_cell_angle_gamma                90
_cell_volume                     2221.81
loop_
_atom_site_label
_atom_site_type_symbol
_atom_site_fract_x
_atom_site_fract_y
_atom_site_fract_z
Ni1 Ni 0.838202(13) 0.33343(2) 0.986332(12)
O1 O 0.80013(7) 0.14282(12) 1.02289(7)
O2 O 0.88304(8) 0.53162(14) 0.95618(8)
O3 O 0.50959(8) -0.06211(14) 0.62574(7)
O4 O 0.62241(10) 0.16672(15) 1.07372(8)
O5 O 0.91090(9) -0.02280(15) 1.04312(10)
C1 C 0.60903(10) 0.05589(17) 0.94404(10)
C2 C 0.52507(10) 0.04091(17) 0.75970(10)
C3 C 0.72321(11) -0.03561(17) 1.10374(10)
O6 O 0.94422(9) 0.21647(18) 0.97751(10)
N1 N 0.72227(9) 0.44241(15) 0.97839(9)
C4 C 0.80773(11) -0.06831(17) 1.10431(10)
O7 O 0.41742(8) 0.12676(14) 0.61914(7)
N2 N 0.74802(10) 0.31812(15) 0.85292(9)
C5 C 0.54395(11) 0.16064(17) 0.89240(11)
H1 H 0.5280 0.2367 0.9195
C6 C 0.84264(11) 0.02271(18) 1.05152(10)
C7 C 0.48057(10) 0.03420(18) 0.66033(10)
C8 C 0.65153(11) 0.07228(18) 1.04217(10)
C9 C 0.58919(11) -0.06522(18) 0.81088(10)
H2 H 0.6045 -0.1418 0.7836
C10 C 0.70174(12) -0.1036(2) 1.16512(11)
H3 H 0.6463 -0.0805 1.1661
C11 C 0.86595(12) -0.17473(18) 1.16264(12)
H4 H 0.9208 -0.2006 1.1612
C12 C 0.63071(11) -0.05853(18) 0.90205(10)
H5 H 0.6733 -0.1308 0.9354
C13 C 0.50266(11) 0.15368(18) 0.80165(10)
H6 H 0.4594 0.2251 0.7683
C14 C 0.67163(11) 0.40248(19) 0.82492(11)
C15 C 0.65511(11) 0.46881(18) 0.89587(12)
C16 C 0.56419(15) 0.5978(2) 0.95072(18)
H7 H 0.5114 0.6511 0.9414
C17 C 0.70994(14) 0.4903(2) 1.04629(13)
H8 H 0.7557 0.4706 1.1033
C18 C 0.84307(13) -0.2423(2) 1.22270(12)
H9 H 0.8826 -0.3126 1.2616
C19 C 0.76198(14) -0.2053(2) 1.22481(12)
H10 H 0.7474 -0.2486 1.2663
C20 C 0.57585(13) 0.5476(2) 0.88061(16)
H11 H 0.5308 0.5666 0.8232
C21 C 0.76580(14) 0.2487(2) 0.79331(12)
H12 H 0.8182 0.1886 0.8131
C22 C 0.63166(15) 0.5679(2) 1.03473(16)
H13 H 0.6248 0.5994 1.0832
C23 C 0.61265(13) 0.4203(3) 0.73552(13)
H14 H 0.5600 0.4795 0.7167
C24 C 0.63267(16) 0.3500(3) 0.67515(13)
H15 H 0.5940 0.3618 0.6151
C25 C 0.70999(16) 0.2624(3) 0.70395(13)
H16 H 0.7245 0.2132 0.6641
H17 H 0.9769(17) 0.218(3) 0.9515(17)
H18 H 0.9400(15) 0.1294(13) 0.9924(14)
H19 H 0.9106(14) 0.513(3) 0.9261(13)
H20 H 0.9238(12) 0.557(2) 1.0075(8)
Ni1C Ni 0.338202(13) 0.16657(2) 0.486332(12)
O7C O 0.91742(8) 0.37324(14) 1.11914(7)
loop_
_geom_bond_atom_site_label_1
_geom_bond_atom_site_label_2
_geom_bond_site_symmetry_1
_geom_bond_site_symmetry_2
Ni1 O1 1_555 1_555
O1 C6 1_555 1_555
O2 Ni1 1_555 1_555
O3 C7 1_555 1_555
O4 C8 1_555 1_555
O5 C6 1_555 1_555
C1 C5 1_555 1_555
C2 C7 1_555 1_555
C3 C4 1_555 1_555
O6 Ni1 1_555 1_555
N1 Ni1 1_555 1_555
C4 C6 1_555 1_555
O7 C7 1_555 1_555
N2 Ni1 1_555 1_555
C5 H1 1_555 1_555
C8 C1 1_555 1_555
C9 C2 1_555 1_555
H2 C9 1_555 1_555
C10 C3 1_555 1_555
H3 C10 1_555 1_555
C11 C4 1_555 1_555
H4 C11 1_555 1_555
C12 C1 1_555 1_555
H5 C12 1_555 1_555
C13 C2 1_555 1_555
H6 C13 1_555 1_555
C14 N2 1_555 1_555
C15 N1 1_555 1_555
C16 H7 1_555 1_555
C17 N1 1_555 1_555
H8 C17 1_555 1_555
C18 C11 1_555 1_555
H9 C18 1_555 1_555
C19 C10 1_555 1_555
H10 C19 1_555 1_555
C20 C15 1_555 1_555
H11 C20 1_555 1_555
C21 N2 1_555 1_555
H12 C21 1_555 1_555
C22 C16 1_555 1_555
H13 C22 1_555 1_555
C23 C14 1_555 1_555
H14 C23 1_555 1_555
C24 C23 1_555 1_555
H15 C24 1_555 1_555
C25 C21 1_555 1_555
H16 C25 1_555 1_555
H17 O6 1_555 1_555
H18 O6 1_555 1_555
H19 O2 1_555 1_555
H20 O2 1_555 1_555
Ni1C O7 1_555 1_555
O7C Ni1 1_555 1_555
C3 C8 1_555 1_555
C5 C13 1_555 1_555
C9 C12 1_555 1_555
C14 C15 1_555 1_555
C16 C20 1_555 1_555
C17 C22 1_555 1_555
C18 C19 1_555 1_555
C24 C25 1_555 1_555

#END
