
#######################################################################
#
#                 Cambridge Crystallographic Data Centre
#                                CCDC 
#
#######################################################################
#
# If this CIF has been generated from an entry in the Cambridge 
# Structural Database, then it will include bibliographic, chemical, 
# crystal, experimental, refinement or atomic coordinate data resulting 
# from the CCDC's data processing and validation procedures.
#
#######################################################################

data_YAJQIL
_symmetry_cell_setting           monoclinic
_symmetry_space_group_name_H-M   'C 2/c'
_symmetry_Int_Tables_number      15
_space_group_name_Hall           '-C 2yn'
loop_
_symmetry_equiv_pos_site_id
_symmetry_equiv_pos_as_xyz
1 x,y,z
2 -x,y,1/2-z
3 1/2+x,1/2+y,z
4 1/2-x,1/2+y,1/2-z
5 -x,-y,-z
6 x,-y,1/2+z
7 1/2-x,1/2-y,-z
8 1/2+x,1/2-y,1/2+z
_cell_length_a                   25.214(3)
_cell_length_b                   10.2864(12)
_cell_length_c                   18.365(4)
_cell_angle_alpha                90
_cell_angle_beta                 128.3830(10)
_cell_angle_gamma                90
_cell_volume                     3733.74
loop_
_atom_site_label
_atom_site_type_symbol
_atom_site_fract_x
_atom_site_fract_y
_atom_site_fract_z
Cd1 Cd 0.277485(6) 0.229743(14) 0.166250(8)
O1 O 0.71468(6) 0.05975(15) 0.63945(9)
O2 O 0.24292(7) 0.17366(16) 0.25447(11)
H1 H 0.2043 0.1937 0.2334
H2 H 0.2540 0.1076 0.2859
O3 O 0.67064(7) 0.21888(15) 0.53736(10)
O4 O 0.32319(7) 0.32910(15) 0.09681(9)
H3 H 0.3283 0.2822 0.0655
H4 H 0.2986 0.3877 0.0612
O5 O 0.39070(8) -0.22985(15) 0.34645(11)
O6 O 0.34598(7) 0.03918(15) 0.22876(10)
O7 O 0.26753(10) 0.04700(17) 0.07901(11)
N1 N 0.36553(8) 0.33774(16) 0.29634(10)
C1 C 0.66669(9) 0.1074(2) 0.56320(12)
C2 C 0.60190(8) 0.03291(18) 0.49902(11)
C3 C 0.58446(9) -0.06372(19) 0.53323(12)
H5 H 0.6133 -0.0839 0.5962
C4 C 0.52395(9) -0.13038(19) 0.47351(13)
H6 H 0.5116 -0.1928 0.4971
C5 C 0.48165(8) -0.10470(18) 0.37875(12)
C6 C 0.55902(9) 0.0604(2) 0.40447(12)
H7 H 0.5701 0.1264 0.3814
C7 C 0.50017(9) -0.0097(2) 0.34460(12)
H8 H 0.4728 0.0068 0.2811
C8 C 0.41712(9) -0.17903(19) 0.31610(13)
C9 C 0.39060(9) -0.20765(19) 0.21830(13)
C10 C 0.34576(13) -0.2844(3) 0.04256(18)
H9 H 0.3317 -0.3089 -0.0158
C11 C 0.32154(10) -0.1716(2) 0.05338(14)
H10 H 0.2901 -0.1213 0.0015
C12 C 0.34344(8) -0.13195(18) 0.14054(12)
C13 C 0.31719(9) -0.00773(18) 0.15023(13)
C14 C 0.39106(13) -0.3601(3) 0.11937(19)
H11 H 0.4067 -0.4373 0.1125
C15 C 0.41345(12) -0.3223(3) 0.20660(17)
H12 H 0.4441 -0.3742 0.2578
C16 C 0.42867(10) 0.3300(2) 0.32543(14)
H13 H 0.4368 0.2807 0.2909
C17 C 0.48277(10) 0.3917(2) 0.40450(13)
H14 H 0.5262 0.3826 0.4227
C18 C 0.47167(9) 0.46730(17) 0.45660(11)
C19 C 0.40539(9) 0.4771(2) 0.42485(13)
H15 H 0.3953 0.5281 0.4566
C20 C 0.35458(9) 0.4101(2) 0.34565(12)
H16 H 0.3107 0.4162 0.3260
Cd1G Cd 0.777485(6) 0.270257(14) 0.666250(8)
Cd1D Cd 0.722515(6) 0.770257(14) 0.833750(8)
Cd1C Cd 0.222515(6) 0.729743(14) 0.333750(8)
O1G O 0.21468(6) 0.44025(15) 0.13945(9)
O1C O 0.78532(6) 0.55975(15) 0.86055(9)
O1D O 0.28532(6) 0.94025(15) 0.36055(9)
O2D O 0.75708(7) 0.82634(16) 0.74553(11)
H1D H 0.7957 0.8063 0.7666
H2D H 0.7460 0.8924 0.7141
O3G O 0.17064(7) 0.28112(15) 0.03736(10)
O3C O 0.82936(7) 0.71888(15) 0.96264(10)
O3D O 0.32936(7) 0.78112(15) 0.46264(10)
O4D O 0.67681(7) 0.67090(15) 0.90319(9)
H3D H 0.6717 0.7178 0.9345
H4D H 0.7014 0.6123 0.9388
O5D O 0.60930(8) 1.22985(15) 0.65355(11)
O6D O 0.65402(7) 0.96082(15) 0.77124(10)
O7D O 0.73247(10) 0.95300(17) 0.92099(11)
N1D N 0.63447(8) 0.66226(16) 0.70366(10)
C1G C 0.16669(9) 0.3926(2) 0.06320(12)
C1C C 0.83331(9) 0.6074(2) 0.93680(12)
C1D C 0.33331(9) 0.8926(2) 0.43680(12)
C2D C 0.39810(8) 0.96709(18) 0.50098(11)
C3D C 0.41554(9) 1.06372(19) 0.46677(12)
H5D H 0.3867 1.0839 0.4038
C4D C 0.47605(9) 1.13038(19) 0.52649(13)
H6D H 0.4884 1.1928 0.5029
C5D C 0.51835(8) 1.10470(18) 0.62125(12)
C6D C 0.44098(9) 0.9396(2) 0.59553(12)
H7D H 0.4299 0.8736 0.6186
C7D C 0.49983(9) 1.0097(2) 0.65540(12)
H8D H 0.5272 0.9932 0.7189
C8D C 0.58288(9) 1.17903(19) 0.68390(13)
C9D C 0.60940(9) 1.20765(19) 0.78170(13)
C10D C 0.65424(13) 1.2844(3) 0.95744(18)
H9D H 0.6683 1.3089 1.0158
C11D C 0.67846(10) 1.1716(2) 0.94662(14)
H10D H 0.7099 1.1213 0.9985
C12D C 0.65656(8) 1.13195(18) 0.85946(12)
C13D C 0.68281(9) 1.00773(18) 0.84977(13)
C14D C 0.60894(13) 1.3601(3) 0.88063(19)
H11D H 0.5933 1.4373 0.8875
C15D C 0.58655(12) 1.3223(3) 0.79340(17)
H12D H 0.5559 1.3742 0.7422
C16D C 0.57133(10) 0.6700(2) 0.67457(14)
H13D H 0.5632 0.7193 0.7091
C17D C 0.51723(10) 0.6083(2) 0.59550(13)
H14D H 0.4738 0.6174 0.5773
C18D C 0.52833(9) 0.53270(17) 0.54340(11)
C19D C 0.59461(9) 0.5229(2) 0.57515(13)
H15D H 0.6047 0.4719 0.5434
C20D C 0.64542(9) 0.5899(2) 0.65435(12)
H16D H 0.6893 0.5838 0.6740
loop_
_geom_bond_atom_site_label_1
_geom_bond_atom_site_label_2
_geom_bond_site_symmetry_1
_geom_bond_site_symmetry_2
Cd1 O2 1_555 1_555
O1 C1 1_555 1_555
O2 H1 1_555 1_555
H2 O2 1_555 1_555
O3 C1 1_555 1_555
O4 Cd1 1_555 1_555
H3 O4 1_555 1_555
H4 O4 1_555 1_555
O5 C8 1_555 1_555
O6 Cd1 1_555 1_555
O7 Cd1 1_555 1_555
N1 Cd1 1_555 1_555
C1 C2 1_555 1_555
C2 C3 1_555 1_555
C3 H5 1_555 1_555
C4 C3 1_555 1_555
H6 C4 1_555 1_555
C5 C4 1_555 1_555
C6 C2 1_555 1_555
H7 C6 1_555 1_555
C7 C5 1_555 1_555
H8 C7 1_555 1_555
C8 C5 1_555 1_555
C9 C8 1_555 1_555
C10 H9 1_555 1_555
C11 C10 1_555 1_555
H10 C11 1_555 1_555
C12 C9 1_555 1_555
C13 O6 1_555 1_555
C14 C10 1_555 1_555
H11 C14 1_555 1_555
C15 C9 1_555 1_555
H12 C15 1_555 1_555
C16 N1 1_555 1_555
H13 C16 1_555 1_555
C17 C16 1_555 1_555
H14 C17 1_555 1_555
C18 C17 1_555 1_555
C19 C18 1_555 1_555
H15 C19 1_555 1_555
C20 N1 1_555 1_555
H16 C20 1_555 1_555
Cd1G O1 1_555 1_555
Cd1D O1C 1_555 1_555
Cd1C O1D 1_555 1_555
O1G Cd1 1_555 1_555
O1C C1C 1_555 1_555
O1D C1D 1_555 1_555
O2D Cd1D 1_555 1_555
H1D O2D 1_555 1_555
H2D O2D 1_555 1_555
O3G Cd1 1_555 1_555
O3C Cd1D 1_555 1_555
O3D Cd1C 1_555 1_555
O4D Cd1D 1_555 1_555
H3D O4D 1_555 1_555
H4D O4D 1_555 1_555
O5D C8D 1_555 1_555
O6D Cd1D 1_555 1_555
O7D Cd1D 1_555 1_555
N1D Cd1D 1_555 1_555
C1G O1G 1_555 1_555
C1C O3C 1_555 1_555
C1D O3D 1_555 1_555
C2D C1D 1_555 1_555
C3D C2D 1_555 1_555
H5D C3D 1_555 1_555
C4D C3D 1_555 1_555
H6D C4D 1_555 1_555
C5D C4D 1_555 1_555
C6D C2D 1_555 1_555
H7D C6D 1_555 1_555
C7D C5D 1_555 1_555
H8D C7D 1_555 1_555
C8D C5D 1_555 1_555
C9D C8D 1_555 1_555
C10D H9D 1_555 1_555
C11D C10D 1_555 1_555
H10D C11D 1_555 1_555
C12D C9D 1_555 1_555
C13D O6D 1_555 1_555
C14D C10D 1_555 1_555
H11D C14D 1_555 1_555
C15D C9D 1_555 1_555
H12D C15D 1_555 1_555
C16D N1D 1_555 1_555
H13D C16D 1_555 1_555
C17D C16D 1_555 1_555
H14D C17D 1_555 1_555
C18D C18 1_555 1_555
C19D C18D 1_555 1_555
H15D C19D 1_555 1_555
C20D N1D 1_555 1_555
H16D C20D 1_555 1_555
O3 Cd1G 1_555 1_555
O7 C13 1_555 1_555
C6 C7 1_555 1_555
C11 C12 1_555 1_555
C12 C13 1_555 1_555
C14 C15 1_555 1_555
C19 C20 1_555 1_555
O3G C1G 1_555 1_555
O7D C13D 1_555 1_555
C6D C7D 1_555 1_555
C11D C12D 1_555 1_555
C12D C13D 1_555 1_555
C14D C15D 1_555 1_555
C17D C18D 1_555 1_555
C19D C20D 1_555 1_555

#END
