
#######################################################################
#
#                 Cambridge Crystallographic Data Centre
#                                CCDC 
#
#######################################################################
#
# If this CIF has been generated from an entry in the Cambridge 
# Structural Database, then it will include bibliographic, chemical, 
# crystal, experimental, refinement or atomic coordinate data resulting 
# from the CCDC's data processing and validation procedures.
#
#######################################################################

data_YAJRUY
_symmetry_cell_setting           triclinic
_symmetry_space_group_name_H-M   'P -1'
_symmetry_Int_Tables_number      2
_space_group_name_Hall           '-P 1'
loop_
_symmetry_equiv_pos_site_id
_symmetry_equiv_pos_as_xyz
1 x,y,z
2 -x,-y,-z
_cell_length_a                   13.1717(10)
_cell_length_b                   14.4535(11)
_cell_length_c                   15.9807(12)
_cell_angle_alpha                86.2920(10)
_cell_angle_beta                 88.5930(10)
_cell_angle_gamma                79.0950(10)
_cell_volume                     2980.93
loop_
_atom_site_label
_atom_site_type_symbol
_atom_site_fract_x
_atom_site_fract_y
_atom_site_fract_z
C1 C 0.5310(3) 1.1698(3) 0.4487(3)
C3 C 0.5474(4) 1.2658(3) 0.4215(3)
C5 C 0.6389(4) 1.2924(3) 0.4392(3)
H6 H 0.6923 1.2490 0.4673
C7 C 0.6526(4) 1.3835(3) 0.4156(3)
C9 C 0.5723(4) 1.4475(3) 0.3753(3)
C10 C 0.4796(4) 1.4191(3) 0.3578(3)
C11 C 0.4668(4) 1.3272(3) 0.3799(3)
H12 H 0.4049 1.3066 0.3670
C12 C 0.8177(5) 1.3622(4) 0.4784(4)
D1 D 0.8518 1.3070 0.4479
D2 D 0.7882 1.3391 0.5316
C13 C 0.8940(6) 1.4236(5) 0.4957(6)
D3 D 0.9502 1.3871 0.5299
D4 D 0.8591 1.4779 0.5260
D5 D 0.9223 1.4460 0.4426
C14 C 0.5775(5) 1.5986(3) 0.4211(3)
D6 D 0.6304 1.5713 0.4633
D7 D 0.5085 1.6047 0.4485
C15 C 0.5952(4) 1.6936(4) 0.3875(3)
D8 D 0.5912 1.7358 0.4336
D9 D 0.5423 1.7202 0.3460
D10 D 0.6638 1.6870 0.3608
C16 C 0.3111(5) 1.4652(4) 0.2959(4)
D11 D 0.2554 1.5218 0.2960
D12 D 0.2912 1.4165 0.3362
C17 C 0.3220(6) 1.4298(5) 0.2127(5)
D13 D 0.2564 1.4141 0.1963
D14 D 0.3763 1.3732 0.2129
D15 D 0.3406 1.4784 0.1727
C18 C 0.4295(3) 1.0629(3) 0.6458(3)
C19 C 0.3883(4) 1.0919(3) 0.7285(3)
C20 C 0.2819(4) 1.1104(3) 0.7420(3)
H13 H 0.2361 1.1080 0.6975
C21 C 0.2437(4) 1.1324(3) 0.8211(3)
C22 C 0.3116(4) 1.1388(3) 0.8862(3)
C23 C 0.4188(4) 1.1194(3) 0.8717(3)
C24 C 0.4575(3) 1.0964(3) 0.7926(3)
H14 H 0.5299 1.0838 0.7820
C25 C 0.0813(4) 1.0832(4) 0.8177(3)
D16 D 0.0067 1.1114 0.8183
D17 D 0.1006 1.0640 0.7602
C26 C 0.1008(4) 0.9968(4) 0.8784(4)
D18 D 0.0600 0.9510 0.8621
D19 D 0.1744 0.9682 0.8772
D20 D 0.0806 1.0155 0.9352
C27 C 0.2219(4) 1.2510(4) 0.9766(3)
D21 D 0.1765 1.2732 0.9280
D22 D 0.1776 1.2524 1.0277
C28 C 0.2970(5) 1.3172(4) 0.9841(4)
D23 D 0.2585 1.3812 0.9912
D24 D 0.3412 1.2962 1.0328
D25 D 0.3400 1.3170 0.9332
C29 C 0.5878(4) 1.0888(4) 0.9291(3)
D26 D 0.6006 1.0212 0.9171
D27 D 0.6163 1.1244 0.8820
C30 C 0.6385(4) 1.1015(4) 1.0098(3)
D28 D 0.7132 1.0782 1.0052
D29 D 0.6255 1.1686 1.0210
D30 D 0.6099 1.0658 1.0559
C31 C 0.9540(4) 1.1448(3) 0.5961(3)
C32 C 0.9283(4) 1.2169(3) 0.6575(3)
C33 C 1.0029(4) 1.2676(3) 0.6795(3)
H15 H 1.0672 1.2612 0.6502
C34 C 0.9821(4) 1.3274(3) 0.7446(3)
C35 C 0.8866(4) 1.3367(3) 0.7888(3)
C36 C 0.8102(3) 1.2908(3) 0.7604(3)
C37 C 0.8313(4) 1.2299(3) 0.6957(3)
H16 H 0.7799 1.1976 0.6779
C38 C 1.1460(4) 1.3768(4) 0.7298(3)
D31 D 1.1880 1.3123 0.7352
D32 D 1.1347 1.3949 0.6694
C39 C 1.2003(4) 1.4447(4) 0.7687(4)
D33 D 1.2673 1.4445 0.7405
D34 D 1.1581 1.5083 0.7627
D35 D 1.2112 1.4260 0.8283
C40 C 0.8371(4) 1.3562(4) 0.9330(3)
D36 D 0.8481 1.3976 0.9776
D37 D 0.7620 1.3570 0.9301
C41 C 0.8925(5) 1.2563(4) 0.9562(3)
D38 D 0.8657 1.2345 1.0102
D39 D 0.8806 1.2146 0.9129
D40 D 0.9668 1.2552 0.9605
C42 C 0.6275(3) 1.2900(3) 0.7625(3)
D41 D 0.6193 1.3206 0.7052
D42 D 0.6341 1.2210 0.7588
C43 C 0.5363(4) 1.3280(4) 0.8171(3)
D43 D 0.4730 1.3153 0.7932
D44 D 0.5457 1.2971 0.8736
D45 D 0.5310 1.3962 0.8202
C44 C 0.9056(3) 1.1015(3) 0.3728(3)
C45 C 0.8523(3) 1.1624(3) 0.3021(3)
C46 C 0.9067(3) 1.2239(3) 0.2573(3)
H17 H 0.9764 1.2251 0.2704
C47 C 0.8565(4) 1.2833(3) 0.1931(3)
C48 C 0.7535(4) 1.2810(3) 0.1744(3)
C49 C 0.7015(3) 1.2171(3) 0.2198(3)
C50 C 0.7514(4) 1.1572(3) 0.2839(3)
H18 H 0.7170 1.1135 0.3146
C51 C 1.0055(4) 1.3524(3) 0.1607(3)
D46 D 1.0114 1.3733 0.2179
D47 D 1.0511 1.2901 0.1561
C52 C 1.0355(4) 1.4229(3) 0.0964(3)
D48 D 1.1071 1.4292 0.1053
D49 D 1.0292 1.4014 0.0402
D50 D 0.9897 1.4842 0.1017
C53 C 0.6175(4) 1.4059(4) 0.1252(3)
D51 D 0.5929 1.3954 0.1834
D52 D 0.6330 1.4704 0.1181
C54 C 0.5357(5) 1.3942(5) 0.0633(5)
D53 D 0.4723 1.4401 0.0731
D54 D 0.5610 1.4048 0.0059
D55 D 0.5212 1.3301 0.0710
C55 C 0.5546(4) 1.1422(3) 0.2257(3)
D56 D 0.5963 1.0821 0.2080
D57 D 0.5503 1.1392 0.2877
C56 C 0.4480(4) 1.1568(3) 0.1897(3)
D58 D 0.4143 1.1044 0.2095
D59 D 0.4071 1.2163 0.2077
D60 D 0.4530 1.1593 0.1283
Cl1 Cl 0.76144(8) 0.93003(8) 0.58607(6)
O1 O 0.6039(2) 1.1129(2) 0.48611(19)
O4 O 0.4439(2) 1.1475(2) 0.43501(18)
O5 O 0.7386(3) 1.4191(2) 0.4288(2)
O6 O 0.5838(3) 1.5377(2) 0.35175(19)
O7 O 0.4065(3) 1.4891(3) 0.3219(3)
O8 O 0.3655(2) 1.0653(2) 0.58608(18)
O9 O 0.5266(2) 1.0317(2) 0.63680(18)
O10 O 0.1397(2) 1.1520(2) 0.8394(2)
O11 O 0.2745(3) 1.1551(2) 0.9659(2)
O12 O 0.4780(2) 1.1240(2) 0.93899(19)
O13 O 1.0387(2) 1.1357(2) 0.55431(19)
O14 O 0.8898(2) 1.0886(2) 0.58871(19)
O15 O 1.0484(3) 1.3797(2) 0.7731(2)
O16 O 0.8725(3) 1.3938(2) 0.8534(2)
O17 O 0.7178(2) 1.3113(2) 0.8016(2)
O18 O 1.0010(2) 1.1013(2) 0.38310(19)
O19 O 0.8532(2) 1.0530(2) 0.41971(19)
O20 O 0.9003(2) 1.3464(2) 0.1445(2)
O21 O 0.7092(3) 1.3365(2) 0.1079(2)
O22 O 0.6024(2) 1.2200(2) 0.1957(2)
Ru1 Ru 0.58163(3) 0.98244(2) 0.52567(2)
Ru2 Ru 0.92457(3) 0.97631(2) 0.51886(2)
O4A O 0.5561(2) 0.8525(2) 0.56499(18)
O8A O 0.6345(2) 0.9347(2) 0.41392(18)
O13A O 0.9613(2) 0.8643(2) 0.44569(19)
O18A O 0.9990(2) 0.8987(2) 0.61690(19)
Ru1A Ru 0.41837(3) 1.01756(2) 0.47433(2)
Ru2A Ru 1.07543(3) 1.02369(2) 0.48114(2)
C2 C 0.1864(4) -0.0113(4) 0.2046(3)
H1 H 0.1305 -0.0120 0.2471
H2 H 0.1774 -0.0551 0.1615
C4 C 0.1773(4) 0.0873(4) 0.1640(4)
H3 H 0.1097 0.1064 0.1375
H4 H 0.2320 0.0881 0.1215
H5 H 0.1843 0.1312 0.2068
O2 O 0.2831(3) -0.0432(2) 0.2436(2)
H19 H 0.2768 -0.0354 0.2953
C6 C 0.1286(6) 0.3136(5) 0.3951(4)
H7 H 0.0737 0.2753 0.4018
H8 H 0.0952 0.3796 0.3797
C8 C 0.1839(5) 0.3100(5) 0.4775(4)
H9 H 0.1342 0.3347 0.5209
H10 H 0.2378 0.3484 0.4712
H11 H 0.2155 0.2445 0.4936
O3 O 0.1981(5) 0.2787(3) 0.3290(3)
H20 H 0.1979 0.2211 0.3248
loop_
_geom_bond_atom_site_label_1
_geom_bond_atom_site_label_2
_geom_bond_site_symmetry_1
_geom_bond_site_symmetry_2
C1 C3 1_555 1_555
C2 H1 1_555 1_555
H2 C2 1_555 1_555
C3 C5 1_555 1_555
C4 C2 1_555 1_555
H3 C4 1_555 1_555
H4 C4 1_555 1_555
H5 C4 1_555 1_555
C5 H6 1_555 1_555
C6 H7 1_555 1_555
H8 C6 1_555 1_555
C7 C5 1_555 1_555
C8 C6 1_555 1_555
H9 C8 1_555 1_555
H10 C8 1_555 1_555
H11 C8 1_555 1_555
C9 C7 1_555 1_555
C10 C9 1_555 1_555
C11 C3 1_555 1_555
H12 C11 1_555 1_555
C12 D1 1_555 1_555
D2 C12 1_555 1_555
C13 C12 1_555 1_555
D3 C13 1_555 1_555
D4 C13 1_555 1_555
D5 C13 1_555 1_555
C14 D6 1_555 1_555
D7 C14 1_555 1_555
C15 C14 1_555 1_555
D8 C15 1_555 1_555
D9 C15 1_555 1_555
D10 C15 1_555 1_555
C16 D11 1_555 1_555
D12 C16 1_555 1_555
C17 C16 1_555 1_555
D13 C17 1_555 1_555
D14 C17 1_555 1_555
D15 C17 1_555 1_555
C18 C19 1_555 1_555
C19 C20 1_555 1_555
C20 H13 1_555 1_555
C21 C20 1_555 1_555
C22 C21 1_555 1_555
C23 C22 1_555 1_555
C24 C19 1_555 1_555
H14 C24 1_555 1_555
C25 D16 1_555 1_555
D17 C25 1_555 1_555
C26 C25 1_555 1_555
D18 C26 1_555 1_555
D19 C26 1_555 1_555
D20 C26 1_555 1_555
C27 D21 1_555 1_555
D22 C27 1_555 1_555
C28 C27 1_555 1_555
D23 C28 1_555 1_555
D24 C28 1_555 1_555
D25 C28 1_555 1_555
C29 D26 1_555 1_555
D27 C29 1_555 1_555
C30 C29 1_555 1_555
D28 C30 1_555 1_555
D29 C30 1_555 1_555
D30 C30 1_555 1_555
C31 C32 1_555 1_555
C32 C33 1_555 1_555
C33 H15 1_555 1_555
C34 C33 1_555 1_555
C35 C34 1_555 1_555
C36 C35 1_555 1_555
C37 C32 1_555 1_555
H16 C37 1_555 1_555
C38 D31 1_555 1_555
D32 C38 1_555 1_555
C39 C38 1_555 1_555
D33 C39 1_555 1_555
D34 C39 1_555 1_555
D35 C39 1_555 1_555
C40 D36 1_555 1_555
D37 C40 1_555 1_555
C41 C40 1_555 1_555
D38 C41 1_555 1_555
D39 C41 1_555 1_555
D40 C41 1_555 1_555
C42 D41 1_555 1_555
D42 C42 1_555 1_555
C43 C42 1_555 1_555
D43 C43 1_555 1_555
D44 C43 1_555 1_555
D45 C43 1_555 1_555
C44 C45 1_555 1_555
C45 C46 1_555 1_555
C46 H17 1_555 1_555
C47 C46 1_555 1_555
C48 C47 1_555 1_555
C49 C48 1_555 1_555
C50 C45 1_555 1_555
H18 C50 1_555 1_555
C51 D46 1_555 1_555
D47 C51 1_555 1_555
C52 C51 1_555 1_555
D48 C52 1_555 1_555
D49 C52 1_555 1_555
D50 C52 1_555 1_555
C53 D51 1_555 1_555
D52 C53 1_555 1_555
C54 C53 1_555 1_555
D53 C54 1_555 1_555
D54 C54 1_555 1_555
D55 C54 1_555 1_555
C55 D56 1_555 1_555
D57 C55 1_555 1_555
C56 C55 1_555 1_555
D58 C56 1_555 1_555
D59 C56 1_555 1_555
D60 C56 1_555 1_555
Cl1 Ru1 1_555 1_555
O1 C1 1_555 1_555
O2 C2 1_555 1_555
H19 O2 1_555 1_555
O3 C6 1_555 1_555
H20 O3 1_555 1_555
O4 C1 1_555 1_555
O5 C7 1_555 1_555
O6 C9 1_555 1_555
O7 C10 1_555 1_555
O8 C18 1_555 1_555
O9 C18 1_555 1_555
O10 C21 1_555 1_555
O11 C22 1_555 1_555
O12 C23 1_555 1_555
O13 C31 1_555 1_555
O14 C31 1_555 1_555
O15 C34 1_555 1_555
O16 C35 1_555 1_555
O17 C36 1_555 1_555
O18 C44 1_555 1_555
O19 C44 1_555 1_555
O20 C47 1_555 1_555
O21 C48 1_555 1_555
O22 C49 1_555 1_555
Ru1 O1 1_555 1_555
Ru2 Cl1 1_555 1_555
O4A Ru1 1_555 1_555
O8A Ru1 1_555 1_555
O13A Ru2 1_555 1_555
O18A Ru2 1_555 1_555
Ru1A O4 1_555 1_555
Ru2A O13 1_555 1_555
C10 C11 1_555 1_555
C12 O5 1_555 1_555
C14 O6 1_555 1_555
C16 O7 1_555 1_555
C23 C24 1_555 1_555
C25 O10 1_555 1_555
C27 O11 1_555 1_555
C29 O12 1_555 1_555
C36 C37 1_555 1_555
C38 O15 1_555 1_555
C40 O16 1_555 1_555
C42 O17 1_555 1_555
C49 C50 1_555 1_555
C51 O20 1_555 1_555
C53 O21 1_555 1_555
C55 O22 1_555 1_555
O8 Ru1A 1_555 1_555
O9 Ru1 1_555 1_555
O14 Ru2 1_555 1_555
O18 Ru2A 1_555 1_555
O19 Ru2 1_555 1_555
Ru1 Ru1A 1_555 1_555
Ru2 Ru2A 1_555 1_555

#END
