
#######################################################################
#
#                 Cambridge Crystallographic Data Centre
#                                CCDC 
#
#######################################################################
#
# If this CIF has been generated from an entry in the Cambridge 
# Structural Database, then it will include bibliographic, chemical, 
# crystal, experimental, refinement or atomic coordinate data resulting 
# from the CCDC's data processing and validation procedures.
#
#######################################################################

data_YAJTOU
_symmetry_cell_setting           triclinic
_symmetry_space_group_name_H-M   'P -1'
_symmetry_Int_Tables_number      2
_space_group_name_Hall           '-P 1'
loop_
_symmetry_equiv_pos_site_id
_symmetry_equiv_pos_as_xyz
1 x,y,z
2 -x,-y,-z
_cell_length_a                   10.009(2)
_cell_length_b                   11.715(5)
_cell_length_c                   12.559(3)
_cell_angle_alpha                107.535(4)
_cell_angle_beta                 113.116(3)
_cell_angle_gamma                101.517(4)
_cell_volume                     1203.58
loop_
_atom_site_label
_atom_site_type_symbol
_atom_site_fract_x
_atom_site_fract_y
_atom_site_fract_z
Cd1 Cd 0.06430(3) 0.29770(2) 0.24581(2)
V1 V 0.53216(6) 0.16179(5) 0.20989(5)
P1 P 0.68170(9) 0.12339(7) 0.03194(8)
O1 O 0.3746(3) 0.2446(2) 0.2161(2)
O2 O 0.1833(3) 0.3045(2) 0.1181(2)
O3 O 0.6944(3) 0.3441(2) 0.3180(2)
O4 O 0.7834(3) 0.5454(2) 0.3443(3)
O5 O 0.6743(2) 0.1147(2) 0.1491(2)
O6 O 0.8349(2) 0.2188(2) 0.0687(2)
O7 O 0.6462(2) -0.0089(2) -0.0662(2)
O8 O 0.5669(3) 0.1232(2) 0.3275(2)
O9 O 0.3194(3) 0.3942(3) 0.4256(3)
H1 H 0.3702 0.3493 0.4060
H2 H 0.3291 0.4148 0.4999
O10 O -0.0028(3) 0.3365(2) 0.4069(2)
H3 H 0.0687 0.3862 0.4827
H4 H -0.0929 0.3403 0.3863
N1 N 0.0566(3) 0.0990(3) 0.2473(3)
N2 N 0.0670(3) -0.4996(2) 0.2571(3)
N3 N 0.4965(3) 0.2556(2) 0.0637(2)
C1 C 0.0186(5) -0.0548(4) 0.3314(4)
H5 H -0.0074 -0.0771 0.3877
C2 C 0.0172(5) 0.0598(4) 0.3239(4)
H6 H -0.0127 0.1126 0.3748
C3 C 0.0921(4) 0.0185(3) 0.1722(3)
H7 H 0.1169 0.0427 0.1163
C4 C 0.0943(4) -0.0986(3) 0.1722(3)
H8 H 0.1196 -0.1514 0.1172
C5 C 0.0588(4) -0.1367(3) 0.2544(3)
C6 C 0.0603(4) -0.2623(3) 0.2576(3)
C7 C 0.1341(4) -0.2737(3) 0.3704(3)
H9 H 0.1811 -0.2024 0.4483
C8 C 0.1377(4) -0.3926(3) 0.3666(3)
H10 H 0.1911 -0.3985 0.4431
C9 C -0.0073(4) -0.4875(3) 0.1489(3)
H11 H -0.0586 -0.5609 0.0725
C10 C -0.0121(4) -0.3726(3) 0.1442(3)
H12 H -0.0632 -0.3688 0.0662
C11 C 0.2940(4) 0.2691(3) 0.1255(3)
C12 C 0.3336(4) 0.2489(3) 0.0179(3)
H13 H 0.2639 0.1657 -0.0522
H14 H 0.3196 0.3144 -0.0132
C13 C 0.6060(4) 0.3892(3) 0.1345(3)
H15 H 0.5478 0.4452 0.1205
H16 H 0.6769 0.4005 0.1003
C14 C 0.7002(4) 0.4303(3) 0.2761(3)
C15 C 0.5242(4) 0.1795(3) -0.0375(3)
H17 H 0.5524 0.2319 -0.0777
H18 H 0.4298 0.1065 -0.1022
Cd1_2 Cd 1.06430(3) 0.29770(2) 0.24581(2)
Cd1_3 Cd 0.06430(3) -0.70230(2) 0.24581(2)
V1A V 0.46784(6) -0.16179(5) -0.20989(5)
O6_2 O -0.1651(2) 0.2188(2) 0.0687(2)
O7A O 0.3538(2) 0.0089(2) 0.0662(2)
N2_2 N 0.0670(3) 0.5004(2) 0.2571(3)
O11 O 0.5488(6) 0.7873(6) 0.4942(5)
O12 O 0.6170(10) 0.4018(6) 0.7734(11)
O13 O 0.3171(8) 0.0632(5) 0.6078(5)
O14 O 0.6620(6) 0.7020(4) 0.2362(5)
loop_
_geom_bond_atom_site_label_1
_geom_bond_atom_site_label_2
_geom_bond_site_symmetry_1
_geom_bond_site_symmetry_2
Cd1 O2 1_555 1_555
V1 O1 1_555 1_555
P1 O5 1_555 1_555
O1 C11 1_555 1_555
O2 C11 1_555 1_555
O3 V1 1_555 1_555
O4 C14 1_555 1_555
O5 V1 1_555 1_555
O6 P1 1_555 1_555
O7 P1 1_555 1_555
O8 V1 1_555 1_555
O9 Cd1 1_555 1_555
H1 O9 1_555 1_555
H2 O9 1_555 1_555
O10 Cd1 1_555 1_555
H3 O10 1_555 1_555
H4 O10 1_555 1_555
N1 Cd1 1_555 1_555
N2 C8 1_555 1_555
N3 V1 1_555 1_555
C1 H5 1_555 1_555
C2 N1 1_555 1_555
H6 C2 1_555 1_555
C3 N1 1_555 1_555
H7 C3 1_555 1_555
C4 C3 1_555 1_555
H8 C4 1_555 1_555
C5 C1 1_555 1_555
C6 C5 1_555 1_555
C7 C6 1_555 1_555
H9 C7 1_555 1_555
C8 C7 1_555 1_555
H10 C8 1_555 1_555
C9 N2 1_555 1_555
H11 C9 1_555 1_555
C10 C6 1_555 1_555
H12 C10 1_555 1_555
C11 C12 1_555 1_555
C12 N3 1_555 1_555
H13 C12 1_555 1_555
H14 C12 1_555 1_555
C13 N3 1_555 1_555
H15 C13 1_555 1_555
H16 C13 1_555 1_555
C14 O3 1_555 1_555
C15 P1 1_555 1_555
H17 C15 1_555 1_555
H18 C15 1_555 1_555
Cd1_2 O6 1_555 1_555
Cd1_3 N2 1_555 1_555
V1A O7 1_555 1_555
O6_2 Cd1 1_555 1_555
O7A V1 1_555 1_555
N2_2 Cd1 1_555 1_555
N3 C15 1_555 1_555
C1 C2 1_555 1_555
C4 C5 1_555 1_555
C9 C10 1_555 1_555
C13 C14 1_555 1_555

#END
