
#######################################################################
#
#                 Cambridge Crystallographic Data Centre
#                                CCDC 
#
#######################################################################
#
# If this CIF has been generated from an entry in the Cambridge 
# Structural Database, then it will include bibliographic, chemical, 
# crystal, experimental, refinement or atomic coordinate data resulting 
# from the CCDC's data processing and validation procedures.
#
#######################################################################

data_YAKDEV
_symmetry_cell_setting           orthorhombic
_symmetry_space_group_name_H-M   'P b c a'
_symmetry_Int_Tables_number      61
_space_group_name_Hall           '-P 2ac 2ab'
loop_
_symmetry_equiv_pos_site_id
_symmetry_equiv_pos_as_xyz
1 x,y,z
2 1/2-x,-y,1/2+z
3 -x,1/2+y,1/2-z
4 1/2+x,1/2-y,-z
5 -x,-y,-z
6 1/2+x,y,1/2-z
7 x,1/2-y,1/2+z
8 1/2-x,1/2+y,z
_cell_length_a                   21.0477(11)
_cell_length_b                   23.5378(12)
_cell_length_c                   35.0309(17)
_cell_angle_alpha                90
_cell_angle_beta                 90
_cell_angle_gamma                90
_cell_volume                     17354.9
loop_
_atom_site_label
_atom_site_type_symbol
_atom_site_fract_x
_atom_site_fract_y
_atom_site_fract_z
C1 C 0.7017(2) 0.15516(19) 0.03658(12)
C2 C 0.5936(2) 0.2295(2) 0.01527(14)
C3 C 0.5386(2) 0.2417(2) 0.03506(16)
H1 H 0.5399 0.2458 0.0620
C4 C 0.4809(3) 0.2480(2) 0.01582(19)
H2 H 0.4435 0.2575 0.0296
C5 C 0.4783(3) 0.2406(2) -0.02292(18)
H3 H 0.4389 0.2447 -0.0359
C6 C 0.5326(3) 0.2273(2) -0.04319(17)
H4 H 0.5303 0.2213 -0.0700
C7 C 0.5902(3) 0.2226(2) -0.02441(15)
H5 H 0.6277 0.2147 -0.0385
C8 C 0.7171(2) 0.27810(19) 0.01752(13)
C9 C 0.6902(2) 0.3325(2) 0.01595(14)
H6 H 0.6477 0.3382 0.0242
C10 C 0.7254(3) 0.3781(2) 0.00245(15)
H7 H 0.7075 0.4152 0.0019
C11 C 0.7869(3) 0.3693(2) -0.01025(16)
H8 H 0.8111 0.4001 -0.0200
C12 C 0.8130(3) 0.3154(2) -0.00871(14)
H9 H 0.8551 0.3094 -0.0176
C13 C 0.7786(2) 0.2702(2) 0.00551(12)
H10 H 0.7975 0.2337 0.0070
C14 C 0.6621(2) 0.0673(2) -0.01939(12)
C15 C 0.5993(2) 0.0769(2) -0.01061(14)
H11 H 0.5880 0.1060 0.0069
C16 C 0.5526(3) 0.0438(3) -0.02765(16)
H12 H 0.5093 0.0492 -0.0208
C17 C 0.5687(3) 0.0032(3) -0.05438(17)
H13 H 0.5364 -0.0188 -0.0663
C18 C 0.6307(3) -0.0053(2) -0.06375(17)
H14 H 0.6415 -0.0334 -0.0821
C19 C 0.6780(3) 0.0262(2) -0.04685(14)
H15 H 0.7212 0.0203 -0.0537
C20 C 0.7836(2) 0.1202(2) -0.02860(12)
C21 C 0.7679(3) 0.1598(2) -0.05631(14)
H16 H 0.7267 0.1762 -0.0565
C22 C 0.8121(3) 0.1758(2) -0.08384(15)
H17 H 0.8013 0.2037 -0.1023
C23 C 0.8706(3) 0.1517(3) -0.08434(17)
H18 H 0.9007 0.1628 -0.1031
C24 C 0.8863(3) 0.1112(3) -0.05765(18)
H19 H 0.9269 0.0937 -0.0585
C25 C 0.8431(3) 0.0958(3) -0.02954(15)
H20 H 0.8547 0.0684 -0.0109
C26 C 0.8286(2) 0.09346(18) 0.12841(12)
C27 C 0.9486(2) 0.1269(2) 0.09182(13)
C28 C 0.9463(3) 0.1287(2) 0.05237(13)
H21 H 0.9100 0.1441 0.0400
C29 C 0.9964(3) 0.1084(2) 0.03063(15)
H22 H 0.9946 0.1109 0.0036
C30 C 1.0484(3) 0.0848(2) 0.04781(16)
H23 H 1.0823 0.0702 0.0328
C31 C 1.0511(3) 0.0824(3) 0.08689(17)
H24 H 1.0872 0.0662 0.0990
C32 C 1.0022(2) 0.1033(3) 0.10880(15)
H25 H 1.0050 0.1016 0.1358
C33 C 0.9133(2) 0.1798(2) 0.16211(13)
C34 C 0.9552(2) 0.2255(2) 0.15821(14)
H26 H 0.9668 0.2380 0.1334
C35 C 0.9800(3) 0.2527(2) 0.18991(16)
H27 H 1.0083 0.2838 0.1869
C36 C 0.9633(3) 0.2344(2) 0.22581(16)
H28 H 0.9800 0.2531 0.2476
C37 C 0.9221(2) 0.1889(2) 0.23044(14)
H29 H 0.9107 0.1765 0.2553
C38 C 0.8977(2) 0.1613(2) 0.19851(12)
H30 H 0.8701 0.1297 0.2017
C39 C 0.8696(2) -0.02629(19) 0.11696(13)
C40 C 0.8990(2) -0.0115(2) 0.08279(13)
H31 H 0.8955 0.0262 0.0733
C41 C 0.9335(2) -0.0517(2) 0.06251(14)
H32 H 0.9545 -0.0410 0.0396
C42 C 0.9375(2) -0.1064(2) 0.07526(15)
H33 H 0.9606 -0.1339 0.0610
C43 C 0.9078(2) -0.1219(2) 0.10897(15)
H34 H 0.9106 -0.1600 0.1179
C44 C 0.8742(2) -0.0819(2) 0.12971(14)
H35 H 0.8541 -0.0926 0.1529
C45 C 0.8487(2) 0.01151(19) 0.19236(12)
C46 C 0.9126(3) 0.0101(2) 0.20095(15)
H36 H 0.9430 0.0159 0.1813
C47 C 0.9332(3) 0.0001(2) 0.23840(17)
H37 H 0.9773 0.0002 0.2442
C48 C 0.8898(3) -0.0097(2) 0.26652(17)
H38 H 0.9036 -0.0178 0.2918
C49 C 0.8269(3) -0.0081(3) 0.25846(15)
H39 H 0.7969 -0.0145 0.2783
C50 C 0.8056(3) 0.0029(2) 0.22149(14)
H40 H 0.7613 0.0044 0.2163
C51 C 0.6293(2) 0.12291(19) 0.15369(12)
C52 C 0.6434(2) 0.13909(19) 0.23705(13)
C53 C 0.6958(3) 0.1192(2) 0.25679(15)
H41 H 0.7370 0.1220 0.2459
C54 C 0.6876(3) 0.0950(3) 0.29254(17)
H42 H 0.7236 0.0810 0.3059
C55 C 0.6293(4) 0.0908(3) 0.30889(17)
H43 H 0.6248 0.0750 0.3337
C56 C 0.5763(3) 0.1100(3) 0.28917(16)
H44 H 0.5352 0.1063 0.3001
C57 C 0.5835(3) 0.1342(2) 0.25373(14)
H45 H 0.5472 0.1477 0.2404
C58 C 0.6011(2) 0.2325(2) 0.19317(13)
C59 C 0.6201(3) 0.2748(2) 0.21814(14)
H46 H 0.6574 0.2696 0.2330
C60 C 0.5854(3) 0.3248(2) 0.22177(16)
H47 H 0.5997 0.3539 0.2385
C61 C 0.5303(3) 0.3324(2) 0.20110(15)
H48 H 0.5062 0.3662 0.2037
C62 C 0.5106(3) 0.2899(2) 0.17641(14)
H49 H 0.4727 0.2947 0.1620
C63 C 0.5457(2) 0.2402(2) 0.17244(13)
H50 H 0.5316 0.2114 0.1554
C64 C 0.5657(2) 0.01196(19) 0.16637(13)
C65 C 0.6000(2) 0.0051(2) 0.19944(13)
H51 H 0.6285 0.0338 0.2077
C66 C 0.5926(3) -0.0447(2) 0.22097(14)
H52 H 0.6157 -0.0492 0.2441
C67 C 0.5521(3) -0.0870(2) 0.20901(15)
H53 H 0.5472 -0.1206 0.2237
C68 C 0.5188(2) -0.0801(2) 0.17548(16)
H54 H 0.4914 -0.1095 0.1669
C69 C 0.5250(2) -0.0307(2) 0.15407(15)
H55 H 0.5014 -0.0261 0.1311
C70 C 0.4929(2) 0.10413(19) 0.13610(13)
C71 C 0.4517(2) 0.0978(2) 0.16704(15)
H56 H 0.4649 0.0766 0.1887
C72 C 0.3921(3) 0.1220(2) 0.16633(17)
H57 H 0.3645 0.1176 0.1876
C73 C 0.3724(3) 0.1524(3) 0.13539(18)
H58 H 0.3308 0.1682 0.1350
C74 C 0.4120(3) 0.1601(3) 0.10503(17)
H59 H 0.3984 0.1822 0.0839
C75 C 0.4722(2) 0.1356(2) 0.10483(14)
H60 H 0.4993 0.1404 0.0834
P1 P 0.67074(6) 0.21993(5) 0.03838(3)
P2 P 0.72458(6) 0.10271(5) 0.00787(3)
P3 P 0.87916(6) 0.14591(5) 0.12031(3)
P4 P 0.82361(6) 0.02597(5) 0.14325(3)
P5 P 0.64833(6) 0.16770(5) 0.18870(3)
P6 P 0.57460(6) 0.07767(5) 0.13839(3)
S1 S 0.65872(6) 0.23857(5) 0.09473(3)
S2 S 0.76350(6) 0.04189(5) 0.04193(3)
S3 S 0.83062(6) 0.20666(5) 0.09081(3)
S4 S 0.73028(6) 0.00455(5) 0.14034(3)
S5 S 0.74029(6) 0.19005(5) 0.18041(3)
S6 S 0.59893(6) 0.05633(5) 0.08402(3)
Th1 Th 0.719806(7) 0.123281(7) 0.105341(4)
O5 O 0.65848(18) -0.08916(14) 0.07338(10)
O6 O 0.71426(18) -0.17062(14) 0.15342(10)
C84 C 0.6935(3) -0.1308(2) 0.09310(15)
H81 H 0.6912 -0.1672 0.0791
H82 H 0.7386 -0.1192 0.0945
C85 C 0.6676(3) -0.1388(2) 0.13311(15)
H83 H 0.6268 -0.1596 0.1324
H84 H 0.6606 -0.1015 0.1455
C86 C 0.5960(3) -0.1071(3) 0.0620(2)
H85 H 0.5676 -0.1063 0.0841
H86 H 0.5798 -0.0813 0.0423
H87 H 0.5981 -0.1458 0.0518
C87 C 0.7057(4) -0.1662(3) 0.19363(16)
H88 H 0.6630 -0.1793 0.2004
H89 H 0.7374 -0.1898 0.2067
H90 H 0.7109 -0.1265 0.2015
Li1 Li 0.6845(4) -0.0122(3) 0.0767(2)
Li2 Li 0.7543(5) 0.2606(4) 0.1309(3)
O6G O 0.78574(18) 0.32938(14) 0.15342(10)
Li2G Li 0.7457(5) -0.2394(4) 0.1309(3)
C76 C 0.3103(4) 0.6878(3) 0.0917(2)
H61 H 0.3526 0.6779 0.0820
H62 H 0.2807 0.6910 0.0703
H63 H 0.2957 0.6580 0.1092
C77 C 0.3519(4) 0.7374(3) 0.1445(2)
H64 H 0.3946 0.7228 0.1379
H65 H 0.3325 0.7115 0.1635
C78 C 0.3571(4) 0.7963(4) 0.1607(2)
H66 H 0.3145 0.8143 0.1612
H67 H 0.3731 0.7943 0.1872
C79 C 0.3738(5) 0.8758(5) 0.1222(3)
H68 H 0.3415 0.8648 0.1035
H69 H 0.4079 0.8968 0.1094
H70 H 0.3545 0.9000 0.1418
O1 O 0.3133(3) 0.7403(2) 0.11137(15)
O2 O 0.3980(4) 0.8289(3) 0.1387(2)
C80 C 0.7895(6) 0.2350(6) 0.7908(2)
H71 H 0.8217 0.2478 0.7726
H72 H 0.7764 0.2670 0.8069
H73 H 0.7525 0.2204 0.7769
C81 C 0.8166(6) 0.1373(5) 0.7959(3)
H74 H 0.8474 0.1387 0.7746
H75 H 0.7740 0.1295 0.7851
C82 C 0.8344(5) 0.0907(6) 0.8224(3)
H76 H 0.8127 0.0947 0.8473
H77 H 0.8245 0.0530 0.8114
C83 C 0.9277(6) 0.0496(4) 0.8485(3)
H78 H 0.8976 0.0395 0.8688
H79 H 0.9685 0.0602 0.8599
H80 H 0.9338 0.0170 0.8315
O3 O 0.8157(4) 0.1904(3) 0.81466(19)
O4 O 0.9018(3) 0.0992(3) 0.82595(18)
loop_
_geom_bond_atom_site_label_1
_geom_bond_atom_site_label_2
_geom_bond_site_symmetry_1
_geom_bond_site_symmetry_2
C1 P1 1_555 1_555
C2 C3 1_555 1_555
C3 H1 1_555 1_555
C4 C3 1_555 1_555
H2 C4 1_555 1_555
C5 C4 1_555 1_555
H3 C5 1_555 1_555
C6 C5 1_555 1_555
H4 C6 1_555 1_555
C7 C2 1_555 1_555
H5 C7 1_555 1_555
C8 C9 1_555 1_555
C9 H6 1_555 1_555
C10 C9 1_555 1_555
H7 C10 1_555 1_555
C11 C10 1_555 1_555
H8 C11 1_555 1_555
C12 C11 1_555 1_555
H9 C12 1_555 1_555
C13 C8 1_555 1_555
H10 C13 1_555 1_555
C14 C15 1_555 1_555
C15 H11 1_555 1_555
C16 C15 1_555 1_555
H12 C16 1_555 1_555
C17 C16 1_555 1_555
H13 C17 1_555 1_555
C18 C17 1_555 1_555
H14 C18 1_555 1_555
C19 C14 1_555 1_555
H15 C19 1_555 1_555
C20 C21 1_555 1_555
C21 H16 1_555 1_555
C22 C21 1_555 1_555
H17 C22 1_555 1_555
C23 C22 1_555 1_555
H18 C23 1_555 1_555
C24 C23 1_555 1_555
H19 C24 1_555 1_555
C25 C20 1_555 1_555
H20 C25 1_555 1_555
C26 P3 1_555 1_555
C27 C28 1_555 1_555
C28 H21 1_555 1_555
C29 C28 1_555 1_555
H22 C29 1_555 1_555
C30 C29 1_555 1_555
H23 C30 1_555 1_555
C31 C30 1_555 1_555
H24 C31 1_555 1_555
C32 C27 1_555 1_555
H25 C32 1_555 1_555
C33 C34 1_555 1_555
C34 H26 1_555 1_555
C35 C34 1_555 1_555
H27 C35 1_555 1_555
C36 C35 1_555 1_555
H28 C36 1_555 1_555
C37 C36 1_555 1_555
H29 C37 1_555 1_555
C38 C33 1_555 1_555
H30 C38 1_555 1_555
C39 C40 1_555 1_555
C40 H31 1_555 1_555
C41 C40 1_555 1_555
H32 C41 1_555 1_555
C42 C41 1_555 1_555
H33 C42 1_555 1_555
C43 C42 1_555 1_555
H34 C43 1_555 1_555
C44 C39 1_555 1_555
H35 C44 1_555 1_555
C45 C46 1_555 1_555
C46 H36 1_555 1_555
C47 C46 1_555 1_555
H37 C47 1_555 1_555
C48 C47 1_555 1_555
H38 C48 1_555 1_555
C49 C48 1_555 1_555
H39 C49 1_555 1_555
C50 C45 1_555 1_555
H40 C50 1_555 1_555
C51 P5 1_555 1_555
C52 C53 1_555 1_555
C53 H41 1_555 1_555
C54 C53 1_555 1_555
H42 C54 1_555 1_555
C55 C54 1_555 1_555
H43 C55 1_555 1_555
C56 C55 1_555 1_555
H44 C56 1_555 1_555
C57 C52 1_555 1_555
H45 C57 1_555 1_555
C58 C59 1_555 1_555
C59 H46 1_555 1_555
C60 C59 1_555 1_555
H47 C60 1_555 1_555
C61 C60 1_555 1_555
H48 C61 1_555 1_555
C62 C61 1_555 1_555
H49 C62 1_555 1_555
C63 C58 1_555 1_555
H50 C63 1_555 1_555
C64 C65 1_555 1_555
C65 H51 1_555 1_555
C66 C65 1_555 1_555
H52 C66 1_555 1_555
C67 C66 1_555 1_555
H53 C67 1_555 1_555
C68 C67 1_555 1_555
H54 C68 1_555 1_555
C69 C64 1_555 1_555
H55 C69 1_555 1_555
C70 C71 1_555 1_555
C71 H56 1_555 1_555
C72 C71 1_555 1_555
H57 C72 1_555 1_555
C73 C72 1_555 1_555
H58 C73 1_555 1_555
C74 C73 1_555 1_555
H59 C74 1_555 1_555
C75 C70 1_555 1_555
H60 C75 1_555 1_555
C76 H61 1_555 1_555
H62 C76 1_555 1_555
H63 C76 1_555 1_555
C77 H64 1_555 1_555
H65 C77 1_555 1_555
C78 C77 1_555 1_555
H66 C78 1_555 1_555
H67 C78 1_555 1_555
C79 H68 1_555 1_555
H69 C79 1_555 1_555
H70 C79 1_555 1_555
C80 H71 1_555 1_555
H72 C80 1_555 1_555
H73 C80 1_555 1_555
C81 H74 1_555 1_555
H75 C81 1_555 1_555
C82 C81 1_555 1_555
H76 C82 1_555 1_555
H77 C82 1_555 1_555
C83 H78 1_555 1_555
H79 C83 1_555 1_555
H80 C83 1_555 1_555
O1 C76 1_555 1_555
O2 C78 1_555 1_555
O3 C80 1_555 1_555
O4 C82 1_555 1_555
P1 C2 1_555 1_555
P2 C1 1_555 1_555
P3 C27 1_555 1_555
P4 C26 1_555 1_555
P5 C52 1_555 1_555
P6 C51 1_555 1_555
S1 P1 1_555 1_555
S2 P2 1_555 1_555
S3 P3 1_555 1_555
S4 P4 1_555 1_555
S5 P5 1_555 1_555
S6 P6 1_555 1_555
Th1 C1 1_555 1_555
O5 C84 1_555 1_555
O6 C85 1_555 1_555
C84 H81 1_555 1_555
H82 C84 1_555 1_555
C85 C84 1_555 1_555
H83 C85 1_555 1_555
H84 C85 1_555 1_555
C86 O5 1_555 1_555
H85 C86 1_555 1_555
H86 C86 1_555 1_555
H87 C86 1_555 1_555
C87 O6 1_555 1_555
H88 C87 1_555 1_555
H89 C87 1_555 1_555
H90 C87 1_555 1_555
Li1 S2 1_555 1_555
Li2 S1 1_555 1_555
O6G Li2 1_555 1_555
Li2G O6 1_555 1_555
C6 C7 1_555 1_555
C8 P1 1_555 1_555
C12 C13 1_555 1_555
C14 P2 1_555 1_555
C18 C19 1_555 1_555
C20 P2 1_555 1_555
C24 C25 1_555 1_555
C26 Th1 1_555 1_555
C31 C32 1_555 1_555
C33 P3 1_555 1_555
C37 C38 1_555 1_555
C39 P4 1_555 1_555
C43 C44 1_555 1_555
C45 P4 1_555 1_555
C49 C50 1_555 1_555
C51 Th1 1_555 1_555
C56 C57 1_555 1_555
C58 P5 1_555 1_555
C62 C63 1_555 1_555
C64 P6 1_555 1_555
C68 C69 1_555 1_555
C70 P6 1_555 1_555
C74 C75 1_555 1_555
C77 O1 1_555 1_555
C79 O2 1_555 1_555
C81 O3 1_555 1_555
C83 O4 1_555 1_555
S1 Th1 1_555 1_555
S2 Th1 1_555 1_555
S3 Th1 1_555 1_555
S3 Li2 1_555 1_555
S4 Th1 1_555 1_555
S4 Li1 1_555 1_555
S5 Th1 1_555 1_555
S5 Li2 1_555 1_555
S6 Th1 1_555 1_555
S6 Li1 1_555 1_555
Th1 Li1 1_555 1_555
Th1 Li2 1_555 1_555
O5 Li1 1_555 1_555

#END
