
#######################################################################
#
#                 Cambridge Crystallographic Data Centre
#                                CCDC 
#
#######################################################################
#
# If this CIF has been generated from an entry in the Cambridge 
# Structural Database, then it will include bibliographic, chemical, 
# crystal, experimental, refinement or atomic coordinate data resulting 
# from the CCDC's data processing and validation procedures.
#
#######################################################################

data_YAKFIZ
_symmetry_cell_setting           triclinic
_symmetry_space_group_name_H-M   'P -1'
_symmetry_Int_Tables_number      2
_space_group_name_Hall           '-P 1'
loop_
_symmetry_equiv_pos_site_id
_symmetry_equiv_pos_as_xyz
1 x,y,z
2 -x,-y,-z
_cell_length_a                   9.410(2)
_cell_length_b                   10.291(2)
_cell_length_c                   9.208(2)
_cell_angle_alpha                108.56(1)
_cell_angle_beta                 91.82
_cell_angle_gamma                68.04(1)
_cell_volume                     780.108
loop_
_atom_site_label
_atom_site_type_symbol
_atom_site_fract_x
_atom_site_fract_y
_atom_site_fract_z
Cu1 Cu -0.50104(7) 0.46980(7) -0.16022(8)
Cl1 Cl -0.6462(1) 0.4159(1) -0.0029(1)
S1 S -0.3120(1) 0.2437(1) -0.3178(1)
S2 S 0.3337(1) 0.0366(1) -0.0945(2)
S3 S 0.3498(1) -0.4200(1) -0.3211(1)
S4 S -0.2627(1) -0.2250(1) -0.4586(2)
N1 N -0.0824(4) 0.0737(4) -0.2061(4)
N2 N 0.0612(4) 0.0265(4) -0.1573(4)
C1 C -0.1344(5) 0.1997(5) -0.2359(5)
C2 C -0.0551(5) 0.2939(5) -0.2117(6)
C3 C 0.0876(5) 0.2481(5) -0.1618(6)
C4 C 0.1434(5) 0.1092(5) -0.1398(5)
C5 C 0.3569(5) -0.1527(5) -0.1200(5)
C6 C 0.3667(5) -0.2432(5) -0.2890(5)
C7 C 0.1484(5) -0.3598(5) -0.2559(6)
C8 C 0.0415(5) -0.3204(5) -0.3777(6)
C9 C -0.1279(6) -0.2636(5) -0.3182(6)
C10 C -0.2603(5) -0.0521(5) -0.4656(5)
C11 C -0.3567(5) 0.0838(5) -0.3299(6)
H1 H -0.0971 0.3939 -0.2309
H2 H 0.1493 0.3180 -0.1332
H3 H 0.4489 -0.1987 -0.0788
H4 H 0.2714 -0.1508 -0.0661
H5 H 0.4632 -0.2618 -0.3376
H6 H 0.2860 -0.1860 -0.3348
H7 H 0.1340 -0.4376 -0.2319
H8 H 0.1221 -0.2747 -0.1660
H9 H 0.0586 -0.2455 -0.4051
H10 H 0.0643 -0.4065 -0.4661
H11 H -0.1509 -0.1744 -0.2336
H12 H -0.1421 -0.3364 -0.2844
H13 H -0.1567 -0.0591 -0.4657
H14 H -0.2995 -0.0381 -0.5584
H15 H -0.3355 0.0614 -0.2371
H16 H -0.4629 0.1066 -0.3433
Cl1A Cl -0.3538(1) 0.5841(1) 0.0029(1)
Cu1A Cu -0.49896(7) 0.53020(7) 0.16022(8)
S3_2 S -0.6502(1) 0.5800(1) -0.3211(1)
Cu1_2 Cu 0.49896(7) -0.53020(7) -0.16022(8)
loop_
_geom_bond_atom_site_label_1
_geom_bond_atom_site_label_2
_geom_bond_site_symmetry_1
_geom_bond_site_symmetry_2
Cu1 Cl1 1_555 1_555
Cl1 Cu1A 1_555 1_555
S1 Cu1 1_555 1_555
S2 C4 1_555 1_555
S3 C6 1_555 1_555
S4 C9 1_555 1_555
N1 N2 1_555 1_555
N2 C4 1_555 1_555
C1 S1 1_555 1_555
C2 C1 1_555 1_555
C3 C2 1_555 1_555
C4 C3 1_555 1_555
C5 S2 1_555 1_555
C6 C5 1_555 1_555
C7 S3 1_555 1_555
C8 C7 1_555 1_555
C9 C8 1_555 1_555
C10 S4 1_555 1_555
C11 S1 1_555 1_555
H1 C2 1_555 1_555
H2 C3 1_555 1_555
H3 C5 1_555 1_555
H4 C5 1_555 1_555
H5 C6 1_555 1_555
H6 C6 1_555 1_555
H7 C7 1_555 1_555
H8 C7 1_555 1_555
H9 C8 1_555 1_555
H10 C8 1_555 1_555
H11 C9 1_555 1_555
H12 C9 1_555 1_555
H13 C10 1_555 1_555
H14 C10 1_555 1_555
H15 C11 1_555 1_555
H16 C11 1_555 1_555
Cl1A Cu1 1_555 1_555
Cu1A Cl1A 1_555 1_555
S3_2 Cu1 1_555 1_555
Cu1_2 S3 1_555 1_555
N1 C1 1_555 1_555
C10 C11 1_555 1_555

#END
