
#######################################################################
#
#                 Cambridge Crystallographic Data Centre
#                                CCDC 
#
#######################################################################
#
# If this CIF has been generated from an entry in the Cambridge 
# Structural Database, then it will include bibliographic, chemical, 
# crystal, experimental, refinement or atomic coordinate data resulting 
# from the CCDC's data processing and validation procedures.
#
#######################################################################

data_YAKHOJ
_symmetry_cell_setting           monoclinic
_symmetry_space_group_name_H-M   'C 2'
_symmetry_Int_Tables_number      5
_space_group_name_Hall           'C 2y'
loop_
_symmetry_equiv_pos_site_id
_symmetry_equiv_pos_as_xyz
1 x,y,z
2 -x,y,-z
3 1/2+x,1/2+y,z
4 1/2-x,1/2+y,-z
_cell_length_a                   31.983(2)
_cell_length_b                   20.9749(14)
_cell_length_c                   35.380(2)
_cell_angle_alpha                90
_cell_angle_beta                 92.042(2)
_cell_angle_gamma                90
_cell_volume                     23719.3
loop_
_atom_site_label
_atom_site_type_symbol
_atom_site_fract_x
_atom_site_fract_y
_atom_site_fract_z
Ni1 Ni -0.62705(8) 0.66237(12) 0.33494(8)
N1 N -0.5684(4) 0.7074(8) 0.3342(5)
N2 N -0.6075(5) 0.5842(9) 0.3655(6)
N13 N -0.6860(5) 0.6293(9) 0.3263(5)
C1 C -0.7172(6) 0.6415(9) 0.3510(6)
H1 H -0.7102 0.6598 0.3746
C2 C -0.7635(6) 0.6260(11) 0.3409(7)
H2 H -0.7851 0.6314 0.3579
C3 C -0.7696(7) 0.6047(11) 0.3066(8)
H3 H -0.7976 0.5984 0.2984
C4 C -0.7369(8) 0.5892(12) 0.2790(8)
H4 H -0.7426 0.5731 0.2545
C5 C -0.6964(7) 0.6020(11) 0.2942(7)
N14 N -0.6215(6) 0.6176(9) 0.2832(5)
C6 C -0.5874(8) 0.6136(11) 0.2620(7)
H5 H -0.5625 0.6318 0.2718
C7 C -0.5865(9) 0.5856(13) 0.2278(8)
H6 H -0.5617 0.5862 0.2142
C8 C -0.6219(10) 0.5559(15) 0.2125(9)
H7 H -0.6215 0.5327 0.1899
C9 C -0.6587(10) 0.5627(14) 0.2332(9)
H8 H -0.6840 0.5475 0.2223
C10 C -0.6594(8) 0.5915(12) 0.2697(8)
N15 N -0.6431(5) 0.7478(8) 0.3093(5)
C11 C -0.6793(7) 0.7686(11) 0.2944(6)
H9 H -0.7032 0.7432 0.2969
C12 C -0.6834(8) 0.8302(13) 0.2742(7)
H10 H -0.7099 0.8454 0.2660
C13 C -0.6507(8) 0.8621(11) 0.2681(6)
H11 H -0.6533 0.8994 0.2536
C14 C -0.6111(8) 0.8443(13) 0.2820(7)
H12 H -0.5874 0.8695 0.2780
C15 C -0.6084(7) 0.7845(11) 0.3033(6)
C16 C -0.5336(6) 0.6822(10) 0.3521(6)
H13 H -0.5356 0.6441 0.3659
C17 C -0.4957(5) 0.7123(9) 0.3498(6)
H14 H -0.4709 0.6934 0.3593
C18 C -0.4957(6) 0.7741(9) 0.3323(6)
H15 H -0.4709 0.7979 0.3309
C19 C -0.5301(6) 0.7956(9) 0.3186(6)
H16 H -0.5300 0.8371 0.3085
C20 C -0.5679(6) 0.7631(10) 0.3172(6)
N16 N -0.6329(5) 0.6903(9) 0.3898(4)
C21 C -0.6502(7) 0.7494(11) 0.4006(6)
H17 H -0.6646 0.7750 0.3826
C22 C -0.6458(8) 0.7694(13) 0.4381(7)
H18 H -0.6553 0.8098 0.4455
C23 C -0.6269(9) 0.7282(15) 0.4643(9)
H19 H -0.6229 0.7412 0.4896
C24 C -0.6145(9) 0.6712(15) 0.4540(9)
H20 H -0.6035 0.6427 0.4723
C25 C -0.6176(6) 0.6527(11) 0.4162(7)
C26 C -0.5961(7) 0.5258(13) 0.3519(8)
H21 H -0.5958 0.5183 0.3257
C27 C -0.5847(6) 0.4761(12) 0.3783(8)
H22 H -0.5766 0.4360 0.3692
C28 C -0.5852(8) 0.4861(14) 0.4166(8)
H23 H -0.5806 0.4519 0.4334
C29 C -0.5919(8) 0.5409(13) 0.4291(8)
H24 H -0.5885 0.5481 0.4552
C30 C -0.6048(6) 0.5942(12) 0.4046(7)
Ni2 Ni 0.12922(9) 0.65893(14) 0.82602(9)
N3 N 0.0724(5) 0.6977(8) 0.8287(5)
N4 N 0.1379(6) 0.7446(9) 0.7982(5)
N5 N 0.1916(5) 0.6241(11) 0.8208(6)
C31 C 0.0379(8) 0.6797(13) 0.8423(7)
H25 H 0.0391 0.6376 0.8513
C32 C 0.0013(6) 0.7058(12) 0.8468(7)
H26 H -0.0201 0.6855 0.8598
C33 C -0.0037(7) 0.7712(12) 0.8296(7)
H27 H -0.0287 0.7948 0.8287
C34 C 0.0322(8) 0.7908(12) 0.8160(7)
H28 H 0.0322 0.8337 0.8082
C35 C 0.0697(7) 0.7593(10) 0.8112(7)
C36 C 0.1763(6) 0.7627(10) 0.7832(6)
H29 H 0.2001 0.7363 0.7845
C37 C 0.1763(10) 0.8238(11) 0.7658(7)
H30 H 0.2027 0.8411 0.7609
C38 C 0.1440(9) 0.8586(14) 0.7560(7)
H31 H 0.1448 0.8916 0.7381
C39 C 0.1079(8) 0.8416(11) 0.7752(6)
H32 H 0.0853 0.8701 0.7760
C40 C 0.1056(7) 0.7822(11) 0.7931(6)
N17 N 0.1183(6) 0.6091(9) 0.7763(6)
C41 C 0.0831(8) 0.6061(12) 0.7510(8)
H33 H 0.0575 0.6228 0.7588
C42 C 0.0847(9) 0.5819(15) 0.7187(7)
H34 H 0.0603 0.5837 0.7031
C43 C 0.1169(10) 0.5549(15) 0.7049(9)
H35 H 0.1156 0.5386 0.6801
C44 C 0.1535(9) 0.5500(13) 0.7270(8)
H36 H 0.1765 0.5270 0.7183
C45 C 0.1555(8) 0.5785(12) 0.7607(8)
C46 C 0.2223(10) 0.6287(15) 0.8452(9)
H37 H 0.2202 0.6481 0.8690
C47 C 0.2599(11) 0.6011(16) 0.8324(10)
H38 H 0.2855 0.6134 0.8441
C48 C 0.2602(10) 0.5643(17) 0.8082(10)
H39 H 0.2854 0.5412 0.8071
C49 C 0.2285(9) 0.5465(13) 0.7784(8)
H40 H 0.2305 0.5181 0.7579
C50 C 0.1946(8) 0.5842(14) 0.7894(8)
N18 N 0.1147(5) 0.5847(9) 0.8608(6)
C51 C 0.0998(7) 0.5278(13) 0.8518(8)
H41 H 0.0994 0.5171 0.8260
C52 C 0.0836(7) 0.4789(12) 0.8776(11)
H42 H 0.0737 0.4390 0.8693
C53 C 0.0846(9) 0.4975(18) 0.9149(10)
H43 H 0.0735 0.4698 0.9329
C54 C 0.1020(10) 0.5587(19) 0.9278(9)
H44 H 0.1025 0.5719 0.9532
C55 C 0.1170(7) 0.5938(12) 0.8999(8)
N19 N 0.1428(7) 0.6921(13) 0.8768(7)
C56 C 0.1617(8) 0.7446(17) 0.8840(11)
H45 H 0.1681 0.7667 0.8618
C57 C 0.1761(11) 0.780(2) 0.9188(10)
H46 H 0.1889 0.8197 0.9227
C58 C 0.1627(12) 0.7284(18) 0.9454(12)
H47 H 0.1759 0.7355 0.9693
C59 C 0.1359(12) 0.6698(19) 0.9478(10)
H48 H 0.1255 0.6469 0.9683
C60 C 0.1317(10) 0.6610(17) 0.9056(9)
Ni3 Ni -0.19899(8) -0.25864(14) 0.38445(8)
N6 N -0.1653(6) -0.2215(10) 0.4273(5)
N7 N -0.1436(5) -0.2499(8) 0.3598(5)
N8 N -0.2330(5) -0.2889(9) 0.3353(5)
N9 N -0.2509(5) -0.2793(9) 0.4171(5)
N10 N -0.1845(5) -0.3507(8) 0.4023(4)
C61 C -0.1779(7) -0.2102(13) 0.4626(7)
H49 H -0.2051 -0.2233 0.4680
C62 C -0.1542(6) -0.1804(11) 0.4929(7)
H50 H -0.1648 -0.1729 0.5170
C63 C -0.1139(6) -0.1638(10) 0.4827(6)
H51 H -0.0962 -0.1472 0.5021
C64 C -0.0974(7) -0.1689(10) 0.4481(6)
H52 H -0.0713 -0.1519 0.4419
C65 C -0.1259(7) -0.2052(11) 0.4203(6)
C66 C -0.1345(8) -0.2609(10) 0.3252(7)
H53 H -0.1559 -0.2752 0.3083
C67 C -0.0933(9) -0.2526(12) 0.3110(8)
H54 H -0.0863 -0.2658 0.2867
C68 C -0.0655(7) -0.2247(11) 0.3349(8)
H55 H -0.0382 -0.2180 0.3267
C69 C -0.0738(6) -0.2066(11) 0.3683(7)
H56 H -0.0536 -0.1858 0.3838
C70 C -0.1116(7) -0.2179(10) 0.3802(6)
N20 N -0.2210(7) -0.1738(9) 0.3634(6)
C71 C -0.2109(8) -0.1119(12) 0.3771(8)
H57 H -0.1958 -0.1098 0.4003
C72 C -0.2205(9) -0.0565(14) 0.3608(8)
H58 H -0.2134 -0.0160 0.3704
C73 C -0.2448(10) -0.0694(16) 0.3237(9)
H59 H -0.2513 -0.0328 0.3094
C74 C -0.2584(10) -0.1236(14) 0.3084(9)
H60 H -0.2759 -0.1271 0.2865
C75 C -0.2428(7) -0.1738(10) 0.3294(7)
C76 C -0.2392(7) -0.3452(11) 0.3233(6)
H61 H -0.2268 -0.3788 0.3373
C77 C -0.2637(8) -0.3611(15) 0.2901(8)
H62 H -0.2702 -0.4038 0.2841
C78 C -0.2774(7) -0.3121(16) 0.2672(7)
H63 H -0.2927 -0.3214 0.2447
C79 C -0.2686(7) -0.2454(12) 0.2771(7)
H64 H -0.2747 -0.2109 0.2609
C80 C -0.2495(9) -0.2385(11) 0.3141(8)
C81 C -0.2803(6) -0.2419(12) 0.4211(6)
H65 H -0.2772 -0.1992 0.4134
C82 C -0.3195(8) -0.2619(13) 0.4372(7)
H66 H -0.3419 -0.2334 0.4398
C83 C -0.3222(7) -0.3249(10) 0.4485(6)
H67 H -0.3459 -0.3411 0.4602
C84 C -0.2854(7) -0.3651(12) 0.4411(7)
H68 H -0.2874 -0.4091 0.4457
C85 C -0.2506(6) -0.3435(11) 0.4288(6)
C86 C -0.1492(7) -0.3794(11) 0.4006(7)
H69 H -0.1280 -0.3613 0.3863
C87 C -0.1412(8) -0.4390(9) 0.4201(6)
H70 H -0.1165 -0.4616 0.4159
C88 C -0.1674(6) -0.4613(10) 0.4431(7)
H71 H -0.1607 -0.4977 0.4576
C89 C -0.2036(8) -0.4333(10) 0.4464(6)
H72 H -0.2233 -0.4520 0.4620
C90 C -0.2138(7) -0.3779(10) 0.4279(5)
Ni4 Ni 0.5000 -0.10033(17) 0.5000
N11 N 0.5274(5) -0.0906(7) 0.5549(4)
N12 N 0.5340(4) -0.1767(7) 0.4782(3)
C91 C 0.5600(7) -0.1233(12) 0.5701(7)
H73 H 0.5744 -0.1504 0.5540
C92 C 0.5734(7) -0.1206(9) 0.6058(6)
H74 H 0.5940 -0.1480 0.6161
C93 C 0.5553(7) -0.0760(12) 0.6258(6)
H75 H 0.5649 -0.0703 0.6510
C94 C 0.5262(7) -0.0407(12) 0.6134(6)
H76 H 0.5158 -0.0084 0.6290
C95 C 0.5096(5) -0.0484(9) 0.5780(5)
N21 N 0.4640(5) -0.0340(8) 0.5233(4)
C96 C 0.4273(7) -0.0065(13) 0.5048(7)
H77 H 0.4177 -0.0222 0.4811
C97 C 0.4054(8) 0.0452(13) 0.5224(6)
H78 H 0.3823 0.0658 0.5106
C98 C 0.4220(8) 0.0629(13) 0.5601(6)
H79 H 0.4088 0.0967 0.5725
C99 C 0.4536(7) 0.0356(11) 0.5779(6)
H80 H 0.4598 0.0453 0.6034
C100 C 0.4774(7) -0.0065(12) 0.5597(6)
C101 C 0.5616(6) -0.1728(11) 0.4508(6)
H81 H 0.5731 -0.1331 0.4445
C102 C 0.5741(7) -0.2307(10) 0.4306(6)
H82 H 0.5943 -0.2286 0.4120
C103 C 0.5562(8) -0.2869(10) 0.4391(7)
H83 H 0.5631 -0.3231 0.4250
C104 C 0.5280(7) -0.2939(10) 0.4678(6)
H84 H 0.5182 -0.3340 0.4753
C105 C 0.5155(6) -0.2393(9) 0.4844(5)
N11A N 0.4726(5) -0.0906(7) 0.4451(4)
N12A N 0.4660(4) -0.1767(7) 0.5218(3)
C91A C 0.4400(7) -0.1233(12) 0.4299(7)
H73A H 0.4256 -0.1504 0.4460
C92A C 0.4266(7) -0.1206(9) 0.3942(6)
H74A H 0.4060 -0.1480 0.3839
C93A C 0.4447(7) -0.0760(12) 0.3742(6)
H75A H 0.4351 -0.0703 0.3490
C94A C 0.4738(7) -0.0407(12) 0.3866(6)
H76A H 0.4842 -0.0084 0.3710
C95A C 0.4904(5) -0.0484(9) 0.4220(5)
N21A N 0.5360(5) -0.0340(8) 0.4767(4)
C96A C 0.5727(7) -0.0065(13) 0.4952(7)
H77A H 0.5823 -0.0222 0.5189
C97A C 0.5946(8) 0.0452(13) 0.4776(6)
H78A H 0.6177 0.0658 0.4894
C98A C 0.5780(8) 0.0629(13) 0.4399(6)
H79A H 0.5912 0.0967 0.4275
C99A C 0.5464(7) 0.0356(11) 0.4221(6)
H80A H 0.5402 0.0453 0.3966
C100A C 0.5226(7) -0.0065(12) 0.4403(6)
C101A C 0.4384(6) -0.1728(11) 0.5492(6)
H81A H 0.4269 -0.1331 0.5555
C102A C 0.4259(7) -0.2307(10) 0.5694(6)
H82A H 0.4057 -0.2286 0.5880
C103A C 0.4438(8) -0.2869(10) 0.5609(7)
H83A H 0.4369 -0.3231 0.5750
C104A C 0.4720(7) -0.2939(10) 0.5322(6)
H84A H 0.4818 -0.3340 0.5247
C105A C 0.4845(6) -0.2393(9) 0.5156(5)
O1 O 0.6105(5) -0.3273(9) 0.3638(4)
H85 H 0.5892 -0.3357 0.3506
C106 C 0.6433(7) -0.3122(13) 0.3403(6)
H86 H 0.6583 -0.3506 0.3329
H87 H 0.6630 -0.2827 0.3529
C107 C 0.6203(6) -0.2792(11) 0.3042(6)
H88 H 0.6006 -0.2469 0.3126
H89 H 0.6411 -0.2580 0.2888
N22 N 0.5989(5) -0.3258(7) 0.2824(4)
H90 H 0.5995 -0.3655 0.2895
H91 H 0.5849 -0.3148 0.2619
N23 N -0.2490(7) -0.5449(12) 0.5457(7)
C108 C -0.2913(10) -0.5158(16) 0.5319(9)
H92 H -0.3142 -0.5418 0.5250
C109 C -0.2938(11) -0.4521(13) 0.5303(9)
H93 H -0.3154 -0.4344 0.5149
C110 C -0.2677(9) -0.4114(16) 0.5492(8)
H94 H -0.2750 -0.3680 0.5506
C111 C -0.2320(9) -0.4313(13) 0.5657(8)
H95 H -0.2137 -0.4019 0.5777
C112 C -0.2222(9) -0.4939(14) 0.5653(8)
N24 N -0.1792(8) -0.5876(12) 0.5868(7)
C113 C -0.1461(10) -0.6041(17) 0.6132(9)
H96 H -0.1407 -0.6480 0.6157
C114 C -0.1206(11) -0.5644(15) 0.6356(9)
H97 H -0.0982 -0.5804 0.6508
C115 C -0.1301(9) -0.4998(15) 0.6344(8)
H98 H -0.1127 -0.4694 0.6464
C116 C -0.1668(9) -0.4821(16) 0.6144(8)
H99 H -0.1769 -0.4407 0.6185
C117 C -0.1899(9) -0.5211(15) 0.5886(8)
In1 In -0.25498(5) -0.09396(8) 0.15717(4)
In2 In -0.34660(5) -0.20958(7) 0.16899(4)
In3 In -0.35739(5) -0.05132(7) 0.10037(4)
In4 In -0.34461(4) -0.03334(7) 0.21679(4)
In5 In -0.44573(5) -0.31532(7) 0.17711(4)
In6 In -0.45765(5) -0.16668(7) 0.11220(4)
In7 In -0.44515(5) -0.14862(7) 0.22764(4)
In8 In -0.46588(5) -0.01371(7) 0.05119(4)
In9 In -0.45514(4) 0.00995(7) 0.16106(4)
In10 In -0.44297(4) 0.02372(6) 0.26992(4)
In11 In -0.25316(4) 0.41247(7) 0.35900(4)
In12 In -0.34419(4) 0.29484(7) 0.34599(4)
In13 In -0.34516(4) 0.47034(7) 0.29476(4)
In14 In -0.35441(4) 0.45685(7) 0.41213(4)
In15 In -0.44155(4) 0.18551(7) 0.33076(4)
In16 In -0.44455(4) 0.35019(7) 0.27967(4)
In17 In -0.45245(4) 0.33578(6) 0.39542(4)
In18 In -0.44425(4) 0.52260(6) 0.23513(4)
In19 In -0.45558(4) 0.50987(7) 0.34460(4)
In20 In -0.46256(4) 0.49207(6) 0.45313(4)
S1 S -0.17877(18) -0.0816(4) 0.1482(2)
S2 S -0.27127(18) -0.2074(3) 0.16439(19)
S3 S -0.28191(19) -0.0446(3) 0.09816(17)
S4 S -0.26904(15) -0.0363(3) 0.21608(17)
S5 S -0.36901(17) -0.3173(3) 0.18180(17)
S6 S -0.37911(17) -0.1643(3) 0.10954(14)
S7 S -0.36704(16) -0.1472(3) 0.22583(15)
S8 S -0.38997(18) -0.0088(3) 0.04254(16)
S9 S -0.37717(16) 0.0116(3) 0.15737(14)
S10 S -0.36704(17) 0.0357(3) 0.26672(17)
S11 S -0.4767(2) -0.2773(3) 0.11720(15)
S12 S -0.47154(16) -0.2561(2) 0.23216(14)
S13 S -0.4921(2) -0.1225(3) 0.05735(16)
S14 S -0.47821(16) -0.1025(2) 0.16838(14)
S15 S -0.46283(17) -0.0872(3) 0.28286(14)
S16 S -0.5000 0.0453(4) 0.0000
S17 S -0.48315(18) 0.0564(3) 0.10380(15)
S18 S -0.48011(17) 0.0691(3) 0.21410(14)
S19 S -0.46809(17) 0.0771(2) 0.32608(15)
S20 S -0.17655(17) 0.4200(3) 0.3645(2)
S21 S -0.26881(16) 0.2992(2) 0.35220(17)
S22 S -0.26983(16) 0.4688(3) 0.30000(17)
S23 S -0.27867(16) 0.4611(3) 0.41722(16)
S24 S -0.36557(15) 0.1853(3) 0.33818(19)
S25 S -0.36667(15) 0.3562(3) 0.28716(15)
S26 S -0.37544(15) 0.3423(2) 0.40311(15)
S27 S -0.36725(16) 0.5378(2) 0.24309(15)
S28 S -0.37688(15) 0.5153(2) 0.35253(14)
S29 S -0.38611(16) 0.5011(3) 0.46650(15)
S30 S -0.46687(16) 0.2410(2) 0.27336(14)
S31 S -0.47109(17) 0.2252(2) 0.38987(15)
S32 S -0.46246(18) 0.4101(3) 0.22376(15)
S33 S -0.47714(15) 0.3952(2) 0.33738(13)
S34 S -0.48607(16) 0.3805(2) 0.44845(14)
S35 S -0.4729(2) 0.5769(3) 0.17928(16)
S36 S -0.47946(17) 0.5690(3) 0.29004(15)
S37 S -0.48110(18) 0.5608(2) 0.39895(16)
S38 S -0.5000 0.5510(4) 0.5000
In1A In -0.74502(5) -0.09396(8) -0.15717(4)
In2A In -0.65340(5) -0.20958(7) -0.16899(4)
In3A In -0.64261(5) -0.05132(7) -0.10037(4)
In4A In -0.65539(4) -0.03334(7) -0.21679(4)
In5A In -0.55427(5) -0.31532(7) -0.17711(4)
In5_2 In -0.44573(5) 0.68468(7) 0.17711(4)
In5A_2 In -0.55427(5) 0.68468(7) -0.17711(4)
In6A In -0.54235(5) -0.16668(7) -0.11220(4)
In7A In -0.55485(5) -0.14862(7) -0.22764(4)
In8A In -0.53412(5) -0.01371(7) -0.05119(4)
In9A In -0.54486(4) 0.00995(7) -0.16106(4)
In10A In -0.55703(4) 0.02372(6) -0.26992(4)
In11A In -0.74684(4) 0.41247(7) -0.35900(4)
In12A In -0.65581(4) 0.29484(7) -0.34599(4)
In13A In -0.65484(4) 0.47034(7) -0.29476(4)
In14A In -0.64559(4) 0.45685(7) -0.41213(4)
In15A In -0.55845(4) 0.18551(7) -0.33076(4)
In16A In -0.55545(4) 0.35019(7) -0.27967(4)
In17A In -0.54755(4) 0.33578(6) -0.39542(4)
In18A In -0.55575(4) 0.52260(6) -0.23513(4)
In19A In -0.54442(4) 0.50987(7) -0.34460(4)
In20A In -0.53744(4) 0.49207(6) -0.45313(4)
In20A_2 In -0.53744(4) 0.49207(6) 0.54687(4)
S1A S -0.82123(18) -0.0816(4) -0.1482(2)
S2A S -0.72873(18) -0.2074(3) -0.16439(19)
S3A S -0.71809(19) -0.0446(3) -0.09816(17)
S4A S -0.73096(15) -0.0363(3) -0.21608(17)
S5A S -0.63099(17) -0.3173(3) -0.18180(17)
S6A S -0.62089(17) -0.1643(3) -0.10954(14)
S7A S -0.63296(16) -0.1472(3) -0.22583(15)
S8A S -0.61003(18) -0.0088(3) -0.04254(16)
S9A S -0.62283(16) 0.0116(3) -0.15737(14)
S10A S -0.63296(17) 0.0357(3) -0.26672(17)
S11A S -0.5233(2) -0.2773(3) -0.11720(15)
S12A S -0.52846(16) -0.2561(2) -0.23216(14)
S13A S -0.5079(2) -0.1225(3) -0.05735(16)
S14A S -0.52179(16) -0.1025(2) -0.16838(14)
S15A S -0.53717(17) -0.0872(3) -0.28286(14)
S17A S -0.51685(18) 0.0564(3) -0.10380(15)
S18A S -0.51989(17) 0.0691(3) -0.21410(14)
S19A S -0.53191(17) 0.0771(2) -0.32608(15)
S20A S -0.82345(17) 0.4200(3) -0.3645(2)
S21A S -0.73119(16) 0.2992(2) -0.35220(17)
S22A S -0.73017(16) 0.4688(3) -0.30000(17)
S23A S -0.72133(16) 0.4611(3) -0.41722(16)
S24A S -0.63443(15) 0.1853(3) -0.33818(19)
S25A S -0.63333(15) 0.3562(3) -0.28716(15)
S26A S -0.62456(15) 0.3423(2) -0.40311(15)
S27A S -0.63275(16) 0.5378(2) -0.24309(15)
S28A S -0.62312(15) 0.5153(2) -0.35253(14)
S29A S -0.61389(16) 0.5011(3) -0.46650(15)
S30A S -0.53313(16) 0.2410(2) -0.27336(14)
S31A S -0.52891(17) 0.2252(2) -0.38987(15)
S32A S -0.53754(18) 0.4101(3) -0.22376(15)
S33A S -0.52286(15) 0.3952(2) -0.33738(13)
S34A S -0.51393(16) 0.3805(2) -0.44845(14)
S35A S -0.5271(2) 0.5769(3) -0.17928(16)
S35_2 S -0.4729(2) -0.4231(3) 0.17928(16)
S35A_2 S -0.5271(2) -0.4231(3) -0.17928(16)
S36A S -0.52054(17) 0.5690(3) -0.29004(15)
S37A S -0.51890(18) 0.5608(2) -0.39895(16)
S38_2 S -0.5000 0.5510(4) -0.5000
loop_
_geom_bond_atom_site_label_1
_geom_bond_atom_site_label_2
_geom_bond_site_symmetry_1
_geom_bond_site_symmetry_2
In1 S1 1_555 1_555
In2 S2 1_555 1_555
In3 S3 1_555 1_555
In4 S4 1_555 1_555
In5 S5 1_555 1_555
In6 S6 1_555 1_555
In7 S7 1_555 1_555
In8 S8 1_555 1_555
In9 S9 1_555 1_555
In10 S10 1_555 1_555
In11 S20 1_555 1_555
In12 S21 1_555 1_555
In13 S22 1_555 1_555
In14 S23 1_555 1_555
In15 S19 1_555 1_555
In16 S25 1_555 1_555
In17 S26 1_555 1_555
In18 S27 1_555 1_555
In19 S28 1_555 1_555
In20 S29 1_555 1_555
Ni1 N1 1_555 1_555
Ni2 N3 1_555 1_555
Ni3 N6 1_555 1_555
Ni4 N11 1_555 1_555
S2 In1 1_555 1_555
S3 In1 1_555 1_555
S4 In1 1_555 1_555
S5 In2 1_555 1_555
S6 In2 1_555 1_555
S7 In2 1_555 1_555
S8 In3 1_555 1_555
S9 In3 1_555 1_555
S10 In4 1_555 1_555
S11 In5 1_555 1_555
S12 In5 1_555 1_555
S13 In6 1_555 1_555
S14 In6 1_555 1_555
S15 In7 1_555 1_555
S16 In8 1_555 1_555
S17 In8 1_555 1_555
S18 In9 1_555 1_555
S19 In10 1_555 1_555
S21 In11 1_555 1_555
S22 In11 1_555 1_555
S23 In11 1_555 1_555
S24 In12 1_555 1_555
S25 In12 1_555 1_555
S26 In12 1_555 1_555
S27 In13 1_555 1_555
S28 In13 1_555 1_555
S29 In14 1_555 1_555
S30 In15 1_555 1_555
S31 In15 1_555 1_555
S32 In16 1_555 1_555
S33 In16 1_555 1_555
S34 In17 1_555 1_555
S35 In18 1_555 1_555
S36 In18 1_555 1_555
S37 In19 1_555 1_555
S38 In20 1_555 1_555
N1 C16 1_555 1_555
N2 Ni1 1_555 1_555
N3 C31 1_555 1_555
N4 Ni2 1_555 1_555
N5 Ni2 1_555 1_555
N6 C61 1_555 1_555
N7 Ni3 1_555 1_555
N8 Ni3 1_555 1_555
N9 Ni3 1_555 1_555
N10 Ni3 1_555 1_555
N11 C91 1_555 1_555
N12 Ni4 1_555 1_555
N13 Ni1 1_555 1_555
C1 N13 1_555 1_555
H1 C1 1_555 1_555
C2 C1 1_555 1_555
H2 C2 1_555 1_555
C3 C2 1_555 1_555
H3 C3 1_555 1_555
C4 C3 1_555 1_555
H4 C4 1_555 1_555
C5 N13 1_555 1_555
N14 Ni1 1_555 1_555
C6 N14 1_555 1_555
H5 C6 1_555 1_555
C7 C6 1_555 1_555
H6 C7 1_555 1_555
C8 C7 1_555 1_555
H7 C8 1_555 1_555
C9 C8 1_555 1_555
H8 C9 1_555 1_555
C10 C5 1_555 1_555
N15 Ni1 1_555 1_555
C11 N15 1_555 1_555
H9 C11 1_555 1_555
C12 C11 1_555 1_555
H10 C12 1_555 1_555
C13 C12 1_555 1_555
H11 C13 1_555 1_555
C14 C13 1_555 1_555
H12 C14 1_555 1_555
C15 N15 1_555 1_555
C16 H13 1_555 1_555
C17 C16 1_555 1_555
H14 C17 1_555 1_555
C18 C17 1_555 1_555
H15 C18 1_555 1_555
C19 C18 1_555 1_555
H16 C19 1_555 1_555
C20 N1 1_555 1_555
N16 Ni1 1_555 1_555
C21 N16 1_555 1_555
H17 C21 1_555 1_555
C22 C21 1_555 1_555
H18 C22 1_555 1_555
C23 C22 1_555 1_555
H19 C23 1_555 1_555
C24 C23 1_555 1_555
H20 C24 1_555 1_555
C25 N16 1_555 1_555
C26 N2 1_555 1_555
H21 C26 1_555 1_555
C27 C26 1_555 1_555
H22 C27 1_555 1_555
C28 C27 1_555 1_555
H23 C28 1_555 1_555
C29 C28 1_555 1_555
H24 C29 1_555 1_555
C30 N2 1_555 1_555
C31 H25 1_555 1_555
C32 C31 1_555 1_555
H26 C32 1_555 1_555
C33 C32 1_555 1_555
H27 C33 1_555 1_555
C34 C33 1_555 1_555
H28 C34 1_555 1_555
C35 N3 1_555 1_555
C36 N4 1_555 1_555
H29 C36 1_555 1_555
C37 C36 1_555 1_555
H30 C37 1_555 1_555
C38 C37 1_555 1_555
H31 C38 1_555 1_555
C39 C38 1_555 1_555
H32 C39 1_555 1_555
C40 N4 1_555 1_555
N17 Ni2 1_555 1_555
C41 N17 1_555 1_555
H33 C41 1_555 1_555
C42 C41 1_555 1_555
H34 C42 1_555 1_555
C43 C42 1_555 1_555
H35 C43 1_555 1_555
C44 C43 1_555 1_555
H36 C44 1_555 1_555
C45 N17 1_555 1_555
C46 N5 1_555 1_555
H37 C46 1_555 1_555
C47 C46 1_555 1_555
H38 C47 1_555 1_555
C48 C47 1_555 1_555
H39 C48 1_555 1_555
C49 C48 1_555 1_555
H40 C49 1_555 1_555
C50 N5 1_555 1_555
N18 Ni2 1_555 1_555
C51 N18 1_555 1_555
H41 C51 1_555 1_555
C52 C51 1_555 1_555
H42 C52 1_555 1_555
C53 C52 1_555 1_555
H43 C53 1_555 1_555
C54 C53 1_555 1_555
H44 C54 1_555 1_555
C55 N18 1_555 1_555
N19 Ni2 1_555 1_555
C56 N19 1_555 1_555
H45 C56 1_555 1_555
C57 C56 1_555 1_555
H46 C57 1_555 1_555
C58 C57 1_555 1_555
H47 C58 1_555 1_555
C59 C58 1_555 1_555
H48 C59 1_555 1_555
C60 C55 1_555 1_555
C61 H49 1_555 1_555
C62 C61 1_555 1_555
H50 C62 1_555 1_555
C63 C62 1_555 1_555
H51 C63 1_555 1_555
C64 C63 1_555 1_555
H52 C64 1_555 1_555
C65 N6 1_555 1_555
C66 N7 1_555 1_555
H53 C66 1_555 1_555
C67 C66 1_555 1_555
H54 C67 1_555 1_555
C68 C67 1_555 1_555
H55 C68 1_555 1_555
C69 C68 1_555 1_555
H56 C69 1_555 1_555
C70 N7 1_555 1_555
N20 Ni3 1_555 1_555
C71 N20 1_555 1_555
H57 C71 1_555 1_555
C72 C71 1_555 1_555
H58 C72 1_555 1_555
C73 C72 1_555 1_555
H59 C73 1_555 1_555
C74 C73 1_555 1_555
H60 C74 1_555 1_555
C75 N20 1_555 1_555
C76 N8 1_555 1_555
H61 C76 1_555 1_555
C77 C76 1_555 1_555
H62 C77 1_555 1_555
C78 C77 1_555 1_555
H63 C78 1_555 1_555
C79 C78 1_555 1_555
H64 C79 1_555 1_555
C80 N8 1_555 1_555
C81 N9 1_555 1_555
H65 C81 1_555 1_555
C82 C81 1_555 1_555
H66 C82 1_555 1_555
C83 C82 1_555 1_555
H67 C83 1_555 1_555
C84 C83 1_555 1_555
H68 C84 1_555 1_555
C85 N9 1_555 1_555
C86 N10 1_555 1_555
H69 C86 1_555 1_555
C87 C86 1_555 1_555
H70 C87 1_555 1_555
C88 C87 1_555 1_555
H71 C88 1_555 1_555
C89 C88 1_555 1_555
H72 C89 1_555 1_555
C90 N10 1_555 1_555
C91 H73 1_555 1_555
C92 C91 1_555 1_555
H74 C92 1_555 1_555
C93 C92 1_555 1_555
H75 C93 1_555 1_555
C94 C93 1_555 1_555
H76 C94 1_555 1_555
C95 N11 1_555 1_555
N21 Ni4 1_555 1_555
C96 N21 1_555 1_555
H77 C96 1_555 1_555
C97 C96 1_555 1_555
H78 C97 1_555 1_555
C98 C97 1_555 1_555
H79 C98 1_555 1_555
C99 C98 1_555 1_555
H80 C99 1_555 1_555
C100 C95 1_555 1_555
C101 N12 1_555 1_555
H81 C101 1_555 1_555
C102 C101 1_555 1_555
H82 C102 1_555 1_555
C103 C102 1_555 1_555
H83 C103 1_555 1_555
C104 C103 1_555 1_555
H84 C104 1_555 1_555
C105 N12 1_555 1_555
O1 H85 1_555 1_555
C106 O1 1_555 1_555
H86 C106 1_555 1_555
H87 C106 1_555 1_555
C107 C106 1_555 1_555
H88 C107 1_555 1_555
H89 C107 1_555 1_555
N22 C107 1_555 1_555
H90 N22 1_555 1_555
H91 N22 1_555 1_555
N23 C108 1_555 1_555
C108 H92 1_555 1_555
C109 C108 1_555 1_555
H93 C109 1_555 1_555
C110 C109 1_555 1_555
H94 C110 1_555 1_555
C111 C110 1_555 1_555
H95 C111 1_555 1_555
C112 N23 1_555 1_555
N24 C113 1_555 1_555
C113 H96 1_555 1_555
C114 C113 1_555 1_555
H97 C114 1_555 1_555
C115 C114 1_555 1_555
H98 C115 1_555 1_555
C116 C115 1_555 1_555
H99 C116 1_555 1_555
C117 C112 1_555 1_555
In1A S1A 1_555 1_555
In2A S2A 1_555 1_555
In3A S3A 1_555 1_555
In4A S4A 1_555 1_555
In5A S5A 1_555 1_555
In5_2 S35 1_555 1_555
In5A_2 S35A 1_555 1_555
In6A S6A 1_555 1_555
In7A S7A 1_555 1_555
In8A S16 1_555 1_555
In9A S9A 1_555 1_555
In10A S10A 1_555 1_555
In11A S20A 1_555 1_555
In12A S21A 1_555 1_555
In13A S22A 1_555 1_555
In14A S23A 1_555 1_555
In15A S19A 1_555 1_555
In16A S25A 1_555 1_555
In17A S26A 1_555 1_555
In18A S27A 1_555 1_555
In19A S28A 1_555 1_555
In20A S29A 1_555 1_555
In20A_2 S38 1_555 1_555
S2A In1A 1_555 1_555
S3A In1A 1_555 1_555
S4A In1A 1_555 1_555
S5A In2A 1_555 1_555
S6A In2A 1_555 1_555
S7A In2A 1_555 1_555
S8A In3A 1_555 1_555
S9A In3A 1_555 1_555
S10A In4A 1_555 1_555
S11A In5A 1_555 1_555
S12A In5A 1_555 1_555
S13A In6A 1_555 1_555
S14A In6A 1_555 1_555
S15A In7A 1_555 1_555
S17A In8A 1_555 1_555
S18A In9A 1_555 1_555
S19A In10A 1_555 1_555
S21A In11A 1_555 1_555
S22A In11A 1_555 1_555
S23A In11A 1_555 1_555
S24A In12A 1_555 1_555
S25A In12A 1_555 1_555
S26A In12A 1_555 1_555
S27A In13A 1_555 1_555
S28A In13A 1_555 1_555
S29A In14A 1_555 1_555
S30A In15A 1_555 1_555
S31A In15A 1_555 1_555
S32A In16A 1_555 1_555
S33A In16A 1_555 1_555
S34A In17A 1_555 1_555
S35A In18A 1_555 1_555
S35_2 In5 1_555 1_555
S35A_2 In5A 1_555 1_555
S36A In18A 1_555 1_555
S37A In19A 1_555 1_555
S38_2 In20A 1_555 1_555
N11A Ni4 1_555 1_555
N12A Ni4 1_555 1_555
C91A N11A 1_555 1_555
H73A C91A 1_555 1_555
C92A C91A 1_555 1_555
H74A C92A 1_555 1_555
C93A C92A 1_555 1_555
H75A C93A 1_555 1_555
C94A C93A 1_555 1_555
H76A C94A 1_555 1_555
C95A N11A 1_555 1_555
N21A Ni4 1_555 1_555
C96A N21A 1_555 1_555
H77A C96A 1_555 1_555
C97A C96A 1_555 1_555
H78A C97A 1_555 1_555
C98A C97A 1_555 1_555
H79A C98A 1_555 1_555
C99A C98A 1_555 1_555
H80A C99A 1_555 1_555
C100A C95A 1_555 1_555
C101A N12A 1_555 1_555
H81A C101A 1_555 1_555
C102A C101A 1_555 1_555
H82A C102A 1_555 1_555
C103A C102A 1_555 1_555
H83A C103A 1_555 1_555
C104A C103A 1_555 1_555
H84A C104A 1_555 1_555
C105A C105 1_555 1_555
In3 S6 1_555 1_555
In4 S7 1_555 1_555
In4 S9 1_555 1_555
In6 S11 1_555 1_555
In7 S12 1_555 1_555
In7 S14 1_555 1_555
In8 S13 1_555 1_555
In9 S14 1_555 1_555
In9 S17 1_555 1_555
In10 S15 1_555 1_555
In10 S18 1_555 1_555
In13 S25 1_555 1_555
In14 S26 1_555 1_555
In14 S28 1_555 1_555
In15 S24 1_555 1_555
In16 S30 1_555 1_555
In17 S31 1_555 1_555
In17 S33 1_555 1_555
In18 S32 1_555 1_555
In19 S33 1_555 1_555
In19 S36 1_555 1_555
In20 S34 1_555 1_555
In20 S37 1_555 1_555
C4 C5 1_555 1_555
N14 C10 1_555 1_555
C9 C10 1_555 1_555
C14 C15 1_555 1_555
C15 C20 1_555 1_555
C19 C20 1_555 1_555
C24 C25 1_555 1_555
C25 C30 1_555 1_555
C29 C30 1_555 1_555
C34 C35 1_555 1_555
C35 C40 1_555 1_555
C39 C40 1_555 1_555
C44 C45 1_555 1_555
C45 C50 1_555 1_555
C49 C50 1_555 1_555
C54 C55 1_555 1_555
N19 C60 1_555 1_555
C59 C60 1_555 1_555
C64 C65 1_555 1_555
C65 C70 1_555 1_555
C69 C70 1_555 1_555
C74 C75 1_555 1_555
C75 C80 1_555 1_555
C79 C80 1_555 1_555
C84 C85 1_555 1_555
C85 C90 1_555 1_555
C89 C90 1_555 1_555
C94 C95 1_555 1_555
N21 C100 1_555 1_555
C99 C100 1_555 1_555
C104 C105 1_555 1_555
C111 C112 1_555 1_555
N24 C117 1_555 1_555
C116 C117 1_555 1_555
In3A S6A 1_555 1_555
In4A S7A 1_555 1_555
In4A S9A 1_555 1_555
In6A S11A 1_555 1_555
In7A S12A 1_555 1_555
In7A S14A 1_555 1_555
In8A S8A 1_555 1_555
In8A S13A 1_555 1_555
In9A S14A 1_555 1_555
In9A S17A 1_555 1_555
In10A S15A 1_555 1_555
In10A S18A 1_555 1_555
In13A S25A 1_555 1_555
In14A S26A 1_555 1_555
In14A S28A 1_555 1_555
In15A S24A 1_555 1_555
In16A S30A 1_555 1_555
In17A S31A 1_555 1_555
In17A S33A 1_555 1_555
In18A S32A 1_555 1_555
In19A S33A 1_555 1_555
In19A S36A 1_555 1_555
In20A S34A 1_555 1_555
In20A S37A 1_555 1_555
N12A C105A 1_555 1_555
C94A C95A 1_555 1_555
N21A C100A 1_555 1_555
C99A C100A 1_555 1_555
C104A C105A 1_555 1_555

#END
