
#######################################################################
#
#                 Cambridge Crystallographic Data Centre
#                                CCDC 
#
#######################################################################
#
# If this CIF has been generated from an entry in the Cambridge 
# Structural Database, then it will include bibliographic, chemical, 
# crystal, experimental, refinement or atomic coordinate data resulting 
# from the CCDC's data processing and validation procedures.
#
#######################################################################

data_YAKHID
_symmetry_cell_setting           orthorhombic
_symmetry_space_group_name_H-M   'P b c n'
_symmetry_Int_Tables_number      60
_space_group_name_Hall           '-P 2n 2ab'
loop_
_symmetry_equiv_pos_site_id
_symmetry_equiv_pos_as_xyz
1 x,y,z
2 1/2-x,1/2-y,1/2+z
3 1/2+x,1/2-y,-z
4 -x,y,1/2-z
5 -x,-y,-z
6 1/2+x,1/2+y,1/2-z
7 1/2-x,1/2+y,z
8 x,-y,1/2+z
_cell_length_a                   43.056(4)
_cell_length_b                   28.770(2)
_cell_length_c                   19.3275(17)
_cell_angle_alpha                90
_cell_angle_beta                 90
_cell_angle_gamma                90
_cell_volume                     23941.4
loop_
_atom_site_label
_atom_site_type_symbol
_atom_site_fract_x
_atom_site_fract_y
_atom_site_fract_z
Ni1 Ni 0.09284(4) 0.10515(6) 0.50609(9)
N1 N 0.1274(2) 0.1009(4) 0.5796(6)
N2 N 0.1236(2) 0.1552(4) 0.4732(6)
N3 N 0.0675(3) 0.1562(4) 0.5578(6)
N4 N 0.0584(2) 0.1203(4) 0.4339(5)
N5 N 0.0656(3) 0.0495(5) 0.5394(6)
N6 N 0.1125(3) 0.0511(4) 0.4507(6)
C1 C 0.1277(3) 0.0719(5) 0.6320(9)
H1 H 0.1123 0.0486 0.6340
C2 C 0.1500(3) 0.0740(6) 0.6857(8)
H2 H 0.1495 0.0528 0.7228
C3 C 0.1717(4) 0.1068(7) 0.6820(9)
H3 H 0.1859 0.1105 0.7184
C4 C 0.1733(3) 0.1354(6) 0.6250(9)
H4 H 0.1899 0.1564 0.6193
C5 C 0.1499(3) 0.1323(5) 0.5765(8)
C6 C 0.1208(3) 0.1819(5) 0.4159(8)
H5 H 0.1032 0.1777 0.3877
C7 C 0.1419(4) 0.2145(6) 0.3971(8)
H6 H 0.1386 0.2329 0.3576
C8 C 0.1679(4) 0.2200(6) 0.4361(9)
H7 H 0.1830 0.2421 0.4238
C9 C 0.1718(4) 0.1924(5) 0.4950(9)
H8 H 0.1901 0.1951 0.5212
C10 C 0.1496(3) 0.1616(5) 0.5147(7)
C11 C 0.0741(4) 0.1774(7) 0.6172(9)
H9 H 0.0921 0.1673 0.6405
C12 C 0.0579(5) 0.2116(9) 0.6470(12)
H10 H 0.0634 0.2238 0.6905
C13 C 0.0330(6) 0.2279(9) 0.6109(13)
H11 H 0.0220 0.2539 0.6275
C14 C 0.0238(5) 0.2072(7) 0.5515(12)
H12 H 0.0052 0.2163 0.5295
C15 C 0.0424(3) 0.1719(6) 0.5233(10)
C16 C 0.0557(3) 0.1001(5) 0.3711(7)
H13 H 0.0712 0.0792 0.3564
C17 C 0.0312(3) 0.1092(6) 0.3282(9)
H14 H 0.0304 0.0956 0.2840
C18 C 0.0074(4) 0.1385(6) 0.3495(9)
H15 H -0.0102 0.1439 0.3219
C19 C 0.0110(3) 0.1594(6) 0.4129(11)
H16 H -0.0039 0.1811 0.4278
C20 C 0.0359(3) 0.1491(5) 0.4552(8)
C21 C 0.0413(4) 0.0515(7) 0.5842(9)
H17 H 0.0368 0.0803 0.6049
C22 C 0.0232(5) 0.0146(9) 0.6011(12)
H18 H 0.0065 0.0180 0.6320
C23 C 0.0297(5) -0.0266(10) 0.5731(14)
H19 H 0.0176 -0.0526 0.5854
C24 C 0.0542(5) -0.0321(6) 0.5253(11)
H20 H 0.0583 -0.0607 0.5037
C25 C 0.0727(4) 0.0092(5) 0.5116(8)
C26 C 0.1365(3) 0.0531(6) 0.4069(7)
H21 H 0.1453 0.0824 0.3975
C27 C 0.1491(4) 0.0147(6) 0.3745(9)
H22 H 0.1657 0.0179 0.3431
C28 C 0.1369(4) -0.0288(6) 0.3896(9)
H23 H 0.1456 -0.0559 0.3704
C29 C 0.1113(4) -0.0315(5) 0.4338(9)
H24 H 0.1023 -0.0605 0.4438
C30 C 0.0993(3) 0.0081(5) 0.4628(8)
Ni2 Ni 0.09768(7) 0.39055(8) -0.47996(14)
N7 N 0.1235(4) 0.3381(5) -0.4281(8)
N8 N 0.1229(5) 0.4437(6) -0.4341(13)
N10 N 0.0719(5) 0.3831(8) -0.3952(8)
C31 C 0.0464(6) 0.4030(12) -0.3785(14)
H25 H 0.0372 0.4211 -0.4134
C32 C 0.0311(7) 0.4017(13) -0.3181(15)
H26 H 0.0150 0.4222 -0.3061
C33 C 0.0423(7) 0.3654(13) -0.2743(15)
H27 H 0.0319 0.3601 -0.2323
C34 C 0.0679(6) 0.3373(12) -0.2899(13)
H28 H 0.0747 0.3122 -0.2626
C35 C 0.0811(6) 0.3504(12) -0.3470(12)
C36 C 0.1501(7) 0.3179(9) -0.4457(14)
H29 H 0.1583 0.3256 -0.4892
C37 C 0.1661(7) 0.2881(10) -0.4084(13)
H30 H 0.1856 0.2776 -0.4237
C38 C 0.1540(9) 0.2725(11) -0.3470(17)
H31 H 0.1645 0.2495 -0.3216
C39 C 0.1232(7) 0.2928(9) -0.3197(16)
H32 H 0.1136 0.2832 -0.2783
C40 C 0.1101(7) 0.3297(7) -0.3670(11)
N11 N 0.0714(5) 0.3432(7) -0.5348(11)
C41 C 0.0436(7) 0.3284(9) -0.5166(15)
H33 H 0.0341 0.3365 -0.4745
C42 C 0.0282(8) 0.2969(10) -0.5699(16)
H34 H 0.0070 0.2892 -0.5661
C43 C 0.0453(8) 0.2805(11) -0.6220(16)
H35 H 0.0377 0.2548 -0.6466
C44 C 0.0716(8) 0.2975(11) -0.6409(17)
H36 H 0.0820 0.2901 -0.6823
C45 C 0.0830(7) 0.3297(10) -0.5896(17)
N12 N 0.1262(6) 0.3835(8) -0.5654(11)
C46 C 0.1544(8) 0.4051(11) -0.5698(16)
H37 H 0.1603 0.4268 -0.5360
C47 C 0.1751(9) 0.3945(12) -0.6261(17)
H38 H 0.1936 0.4107 -0.6352
C48 C 0.1641(8) 0.3562(12) -0.6663(17)
H39 H 0.1789 0.3438 -0.6968
C49 C 0.1346(8) 0.3333(12) -0.6688(17)
H40 H 0.1292 0.3110 -0.7022
C50 C 0.1138(7) 0.3486(11) -0.6137(17)
N13 N 0.0750(6) 0.4485(7) -0.5193(14)
C51 C 0.0477(8) 0.4442(10) -0.5464(19)
H41 H 0.0383 0.4149 -0.5511
C52 C 0.0331(8) 0.4831(11) -0.568(2)
H42 H 0.0143 0.4795 -0.5916
C53 C 0.0435(9) 0.5278(11) -0.557(2)
H43 H 0.0332 0.5541 -0.5739
C54 C 0.0717(8) 0.5306(10) -0.516(2)
H44 H 0.0796 0.5596 -0.5024
C55 C 0.0882(7) 0.4862(9) -0.4975(18)
C56 C 0.1499(7) 0.4387(8) -0.3943(15)
H45 H 0.1568 0.4084 -0.3841
C57 C 0.1666(7) 0.4745(9) -0.3700(17)
H46 H 0.1845 0.4706 -0.3429
C58 C 0.1549(7) 0.5186(9) -0.3882(18)
H47 H 0.1643 0.5448 -0.3681
C59 C 0.1312(7) 0.5260(8) -0.4326(17)
H48 H 0.1252 0.5557 -0.4482
C60 C 0.1166(7) 0.4851(8) -0.4525(17)
N9 N 0.5306(5) 0.4151(6) 0.2269(10)
C61 C 0.5153(4) 0.3746(7) 0.2334(9)
C62 C 0.5277(5) 0.3352(6) 0.2052(11)
H49 H 0.5175 0.3066 0.2113
C63 C 0.5547(6) 0.3365(8) 0.1683(14)
H50 H 0.5609 0.3110 0.1414
C64 C 0.5713(5) 0.3731(9) 0.1711(12)
H51 H 0.5918 0.3729 0.1545
C65 C 0.5589(7) 0.4122(9) 0.1985(13)
H52 H 0.5710 0.4394 0.1975
N9C N 0.4694(5) 0.4151(6) 0.2731(10)
C61C C 0.4847(4) 0.3746(7) 0.2666(9)
C62C C 0.4723(5) 0.3352(6) 0.2948(11)
H49C H 0.4825 0.3066 0.2887
C63C C 0.4453(6) 0.3365(8) 0.3317(14)
H50C H 0.4391 0.3110 0.3586
C64C C 0.4287(5) 0.3731(9) 0.3289(12)
H51C H 0.4082 0.3729 0.3455
C65C C 0.4411(7) 0.4122(9) 0.3015(13)
H52C H 0.4290 0.4394 0.3025
In1 In 0.12139(2) 0.08797(3) 0.17483(5)
In2 In 0.09626(2) 0.19286(4) 0.06646(6)
In3 In 0.17374(2) 0.11677(4) 0.01888(5)
In4 In 0.17236(2) 0.19763(4) 0.19278(5)
In5 In 0.07707(3) 0.30069(4) -0.04148(6)
In6 In 0.14963(2) 0.23066(4) -0.09735(5)
In7 In 0.14859(2) 0.31138(4) 0.07703(6)
In8 In 0.22455(2) 0.16138(4) -0.13864(5)
In9 In 0.22617(2) 0.23480(4) 0.03022(5)
In10 In 0.22191(2) 0.31272(4) 0.19428(5)
S1 S 0.09496(9) 0.02459(13) 0.2393(2)
S2 S 0.07563(9) 0.12924(13) 0.1328(2)
S3 S 0.15341(8) 0.05219(13) 0.08466(18)
S4 S 0.15273(9) 0.13204(14) 0.25745(19)
S5 S 0.05315(9) 0.23763(15) 0.0231(2)
S6 S 0.12907(8) 0.16242(13) -0.03017(19)
S7 S 0.12774(8) 0.24415(13) 0.14524(19)
S8 S 0.20546(9) 0.09192(15) -0.0772(2)
S9 S 0.20575(8) 0.16719(14) 0.09731(18)
S10 S 0.20185(9) 0.24902(14) 0.26692(19)
S11 S 0.03176(12) 0.34378(18) -0.0873(3)
S12 S 0.10577(11) 0.27351(16) -0.1420(2)
S13 S 0.10532(10) 0.35485(15) 0.0315(3)
S14 S 0.18264(11) 0.20668(16) -0.1915(2)
S15 S 0.18170(9) 0.28096(14) -0.0188(2)
S16 S 0.18015(9) 0.36121(14) 0.1466(2)
S17 S 0.25870(9) 0.20773(17) -0.0635(2)
S18 S 0.25745(8) 0.28164(15) 0.1068(2)
S19 S 0.24742(9) 0.37266(15) 0.2643(2)
In8A In 0.27545(2) 0.33862(4) 0.36136(5)
S19A S 0.25258(9) 0.12734(15) -0.2357(2)
loop_
_geom_bond_atom_site_label_1
_geom_bond_atom_site_label_2
_geom_bond_site_symmetry_1
_geom_bond_site_symmetry_2
In1 S1 1_555 1_555
In2 S2 1_555 1_555
In3 S3 1_555 1_555
In4 S4 1_555 1_555
In5 S5 1_555 1_555
In6 S6 1_555 1_555
In7 S7 1_555 1_555
In8 S8 1_555 1_555
In9 S9 1_555 1_555
In10 S10 1_555 1_555
Ni1 N1 1_555 1_555
Ni2 N7 1_555 1_555
S2 In1 1_555 1_555
S3 In1 1_555 1_555
S4 In1 1_555 1_555
S5 In2 1_555 1_555
S6 In2 1_555 1_555
S7 In2 1_555 1_555
S8 In3 1_555 1_555
S9 In3 1_555 1_555
S10 In4 1_555 1_555
S11 In5 1_555 1_555
S12 In5 1_555 1_555
S13 In5 1_555 1_555
S14 In6 1_555 1_555
S15 In6 1_555 1_555
S16 In7 1_555 1_555
S17 In8 1_555 1_555
S18 In9 1_555 1_555
S19 In10 1_555 1_555
N1 C1 1_555 1_555
N2 Ni1 1_555 1_555
N3 Ni1 1_555 1_555
N4 Ni1 1_555 1_555
N5 Ni1 1_555 1_555
N6 Ni1 1_555 1_555
N7 C36 1_555 1_555
N8 Ni2 1_555 1_555
N9 C61 1_555 1_555
C1 H1 1_555 1_555
C2 C1 1_555 1_555
H2 C2 1_555 1_555
C3 C2 1_555 1_555
H3 C3 1_555 1_555
C4 C3 1_555 1_555
H4 C4 1_555 1_555
C5 N1 1_555 1_555
C6 N2 1_555 1_555
H5 C6 1_555 1_555
C7 C6 1_555 1_555
H6 C7 1_555 1_555
C8 C7 1_555 1_555
H7 C8 1_555 1_555
C9 C8 1_555 1_555
H8 C9 1_555 1_555
C10 N2 1_555 1_555
C11 N3 1_555 1_555
H9 C11 1_555 1_555
C12 C11 1_555 1_555
H10 C12 1_555 1_555
C13 C12 1_555 1_555
H11 C13 1_555 1_555
C14 C13 1_555 1_555
H12 C14 1_555 1_555
C15 N3 1_555 1_555
C16 N4 1_555 1_555
H13 C16 1_555 1_555
C17 C16 1_555 1_555
H14 C17 1_555 1_555
C18 C17 1_555 1_555
H15 C18 1_555 1_555
C19 C18 1_555 1_555
H16 C19 1_555 1_555
C20 N4 1_555 1_555
C21 N5 1_555 1_555
H17 C21 1_555 1_555
C22 C21 1_555 1_555
H18 C22 1_555 1_555
C23 C22 1_555 1_555
H19 C23 1_555 1_555
C24 C23 1_555 1_555
H20 C24 1_555 1_555
C25 N5 1_555 1_555
C26 N6 1_555 1_555
H21 C26 1_555 1_555
C27 C26 1_555 1_555
H22 C27 1_555 1_555
C28 C27 1_555 1_555
H23 C28 1_555 1_555
C29 C28 1_555 1_555
H24 C29 1_555 1_555
C30 N6 1_555 1_555
N10 Ni2 1_555 1_555
C31 N10 1_555 1_555
H25 C31 1_555 1_555
C32 C31 1_555 1_555
H26 C32 1_555 1_555
C33 C32 1_555 1_555
H27 C33 1_555 1_555
C34 C33 1_555 1_555
H28 C34 1_555 1_555
C35 N10 1_555 1_555
C36 H29 1_555 1_555
C37 C36 1_555 1_555
H30 C37 1_555 1_555
C38 C37 1_555 1_555
H31 C38 1_555 1_555
C39 C38 1_555 1_555
H32 C39 1_555 1_555
C40 N7 1_555 1_555
N11 Ni2 1_555 1_555
C41 N11 1_555 1_555
H33 C41 1_555 1_555
C42 C41 1_555 1_555
H34 C42 1_555 1_555
C43 C42 1_555 1_555
H35 C43 1_555 1_555
C44 C43 1_555 1_555
H36 C44 1_555 1_555
C45 N11 1_555 1_555
N12 Ni2 1_555 1_555
C46 N12 1_555 1_555
H37 C46 1_555 1_555
C47 C46 1_555 1_555
H38 C47 1_555 1_555
C48 C47 1_555 1_555
H39 C48 1_555 1_555
C49 C48 1_555 1_555
H40 C49 1_555 1_555
C50 C45 1_555 1_555
N13 Ni2 1_555 1_555
C51 N13 1_555 1_555
H41 C51 1_555 1_555
C52 C51 1_555 1_555
H42 C52 1_555 1_555
C53 C52 1_555 1_555
H43 C53 1_555 1_555
C54 C53 1_555 1_555
H44 C54 1_555 1_555
C55 N13 1_555 1_555
C56 N8 1_555 1_555
H45 C56 1_555 1_555
C57 C56 1_555 1_555
H46 C57 1_555 1_555
C58 C57 1_555 1_555
H47 C58 1_555 1_555
C59 C58 1_555 1_555
H48 C59 1_555 1_555
C60 N8 1_555 1_555
C61 C62 1_555 1_555
C62 H49 1_555 1_555
C63 C62 1_555 1_555
H50 C63 1_555 1_555
C64 C63 1_555 1_555
H51 C64 1_555 1_555
C65 N9 1_555 1_555
H52 C65 1_555 1_555
In8A S19 1_555 1_555
S19A In8 1_555 1_555
N9C C61C 1_555 1_555
C61C C61 1_555 1_555
C62C C61C 1_555 1_555
H49C C62C 1_555 1_555
C63C C62C 1_555 1_555
H50C C63C 1_555 1_555
C64C C63C 1_555 1_555
H51C C64C 1_555 1_555
C65C N9C 1_555 1_555
H52C C65C 1_555 1_555
In3 S6 1_555 1_555
In4 S7 1_555 1_555
In4 S9 1_555 1_555
In6 S12 1_555 1_555
In7 S13 1_555 1_555
In7 S15 1_555 1_555
In8 S14 1_555 1_555
In9 S15 1_555 1_555
In9 S17 1_555 1_555
In10 S16 1_555 1_555
In10 S18 1_555 1_555
C4 C5 1_555 1_555
C5 C10 1_555 1_555
C9 C10 1_555 1_555
C14 C15 1_555 1_555
C15 C20 1_555 1_555
C19 C20 1_555 1_555
C24 C25 1_555 1_555
C25 C30 1_555 1_555
C29 C30 1_555 1_555
C34 C35 1_555 1_555
C35 C40 1_555 1_555
C39 C40 1_555 1_555
C44 C45 1_555 1_555
N12 C50 1_555 1_555
C49 C50 1_555 1_555
C54 C55 1_555 1_555
C55 C60 1_555 1_555
C59 C60 1_555 1_555
C64 C65 1_555 1_555
C64C C65C 1_555 1_555

#END
