
#######################################################################
#
#                 Cambridge Crystallographic Data Centre
#                                CCDC 
#
#######################################################################
#
# If this CIF has been generated from an entry in the Cambridge 
# Structural Database, then it will include bibliographic, chemical, 
# crystal, experimental, refinement or atomic coordinate data resulting 
# from the CCDC's data processing and validation procedures.
#
#######################################################################

data_YAKHAV
_symmetry_cell_setting           rhombohedral
_symmetry_space_group_name_H-M   'R -3'
_symmetry_Int_Tables_number      148
_space_group_name_Hall           '-R 3'
loop_
_symmetry_equiv_pos_site_id
_symmetry_equiv_pos_as_xyz
1 x,y,z
2 -y,x-y,z
3 -x+y,-x,z
4 2/3+x,1/3+y,1/3+z
5 2/3-y,1/3+x-y,1/3+z
6 2/3-x+y,1/3-x,1/3+z
7 1/3+x,2/3+y,2/3+z
8 1/3-y,2/3+x-y,2/3+z
9 1/3-x+y,2/3-x,2/3+z
10 -x,-y,-z
11 y,-x+y,-z
12 x-y,x,-z
13 1/3-x,2/3-y,2/3-z
14 1/3+y,2/3-x+y,2/3-z
15 1/3+x-y,2/3+x,2/3-z
16 2/3-x,1/3-y,1/3-z
17 2/3+y,1/3-x+y,1/3-z
18 2/3+x-y,1/3+x,1/3-z
_cell_length_a                   18.639
_cell_length_b                   18.639
_cell_length_c                   52.3330(4)
_cell_angle_alpha                90
_cell_angle_beta                 90
_cell_angle_gamma                120
_cell_volume                     15745.3
loop_
_atom_site_label
_atom_site_type_symbol
_atom_site_fract_x
_atom_site_fract_y
_atom_site_fract_z
Co1 Co 0.0000 0.0000 0.196772(18)
Co2 Co -0.35351(3) 0.21424(3) 0.080940(10)
Co3 Co -0.40654(4) 0.14355(4) 0.144070(11)
Co4 Co -0.6666 -0.3334 0.020230(16)
O1 O -0.3179(2) 0.1201(2) 0.12947(7)
O3 O -0.2525(2) 0.2169(2) 0.09928(6)
O5 O -0.1686(2) -0.0104(2) 0.16974(7)
O7 O -0.03077(18) 0.07306(19) 0.17261(6)
O9 O -0.4508(2) 0.0706(2) 0.07370(7)
O11 O -0.4592(3) 0.1708(2) 0.05644(8)
O12 O -0.6255(3) -0.2164(2) 0.03970(7)
O13 O -0.6708(2) -0.2315(2) 0.00078(7)
O14 O 0.06662(18) 0.11082(17) 0.21715(5)
H1 H 0.1092(19) 0.110(3) 0.2216(10)
O15 O -0.3333 0.3333 0.07212(10)
H2 H -0.3333 0.3333 0.05607(10)
O16 O -0.2879(2) 0.2122(2) 0.04790(6)
H3 H -0.2445 0.2577 0.0505
H4 H -0.3093 0.2169 0.0343
O17 O -0.5032(2) 0.0404(2) 0.12352(8)
H5 H -0.5442 0.0221 0.1333
H6 H -0.5122 0.0625 0.1109
O18 O -0.4230(3) 0.0613(2) 0.17283(8)
H7 H -0.4484 0.0349 0.1859
H8 H -0.3868 0.0480 0.1702
C1 C -0.1816(3) 0.1544(3) 0.11823(8)
C2 C -0.1768(3) 0.1090(3) 0.13882(8)
H9 H -0.2201 0.0840 0.1505
C3 C -0.1068(3) 0.1019(3) 0.14156(8)
C4 C -0.0432(3) 0.1382(4) 0.12369(9)
H10 H 0.0037 0.1333 0.1258
C5 C -0.0477(3) 0.1813(4) 0.10285(10)
C6 C -0.1176(3) 0.1901(4) 0.10069(9)
H11 H -0.1212 0.2207 0.0872
C7 C -0.2564(3) 0.1646(3) 0.11559(8)
C8 C -0.1016(3) 0.0520(3) 0.16308(8)
C9 C 0.0213(5) 0.2186(7) 0.08263(15)
C10 C 0.0521(10) 0.3115(12) 0.0817(4)
H12 H 0.0954 0.3373 0.0692
H13 H 0.0072 0.3202 0.0772
H14 H 0.0733 0.3354 0.0982
C11 C -0.0161(9) 0.1811(16) 0.0574(2)
H15 H 0.0259 0.2035 0.0444
H16 H -0.0395 0.1221 0.0582
H17 H -0.0589 0.1937 0.0533
C12 C 0.0923(6) 0.2087(10) 0.0890(2)
H18 H 0.1333 0.2330 0.0758
H19 H 0.1157 0.2358 0.1049
H20 H 0.0745 0.1508 0.0904
C13 C -0.5431(3) 0.0377(3) 0.03834(9)
C14 C -0.5668(3) -0.0448(3) 0.03903(9)
H21 H -0.5479 -0.0650 0.0520
C15 C -0.6193(3) -0.0984(3) 0.02016(9)
C16 C -0.6487(3) -0.0665(3) 0.00116(9)
H22 H -0.6841 -0.1026 -0.0113
C17 C -0.6275(3) 0.0163(3) -0.00007(9)
C18 C -0.5731(3) 0.0679(3) 0.01944(10)
H23 H -0.5570 0.1238 0.0195
C19 C -0.4814(3) 0.0953(3) 0.05746(10)
C20 C -0.6397(3) -0.1860(3) 0.02023(9)
C21 C -0.6626(3) 0.0476(3) -0.01994(9)
C22 C -0.7062(15) -0.0136(8) -0.0403(3)
H24 H -0.7269 0.0094 -0.0528
H25 H -0.6685 -0.0275 -0.0485
H26 H -0.7516 -0.0626 -0.0331
C23 C -0.7238(15) 0.0641(19) -0.0083(3)
H27 H -0.7463 0.0844 -0.0211
H28 H -0.7676 0.0140 -0.0010
H29 H -0.6979 0.1050 0.0049
C24 C -0.5978(9) 0.1237(9) -0.0319(3)
H30 H -0.6222 0.1420 -0.0446
H31 H -0.5713 0.1658 -0.0191
H32 H -0.5576 0.1130 -0.0398
Co2A Co -0.21424(3) -0.56775(4) 0.080940(10)
Co2B Co 0.56775(4) 0.35351(3) 0.080940(10)
Co2O Co 0.02018(3) 0.11909(3) 0.252393(10)
Co2B_2 Co -0.43225(4) 0.35351(3) 0.080940(10)
Co2A_2 Co -0.21424(3) 0.43225(4) 0.080940(10)
Co2P Co -0.11909(3) -0.09892(4) 0.252393(10)
Co2Q Co 0.09892(4) -0.02018(3) 0.252393(10)
Co3A Co -0.14355(4) -0.55009(6) 0.144070(11)
Co3B Co 0.55009(6) 0.40654(4) 0.144070(11)
Co3P Co -0.18978(4) -0.11658(6) 0.189263(11)
Co3O Co 0.07321(4) 0.18978(4) 0.189263(11)
Co3Q Co 0.11658(6) -0.07321(4) 0.189263(11)
Co4A Co 0.3334 -0.3332 0.020230(16)
Co4B Co 0.3332 0.6666 0.020230(16)
O1A O -0.1201(2) -0.4380(3) 0.12947(7)
O1B O 0.4380(3) 0.3179(2) 0.12947(7)
O3A O -0.2169(2) -0.4694(3) 0.09928(6)
O3B O 0.4694(3) 0.2525(2) 0.09928(6)
O5A O 0.0104(2) -0.1582(3) 0.16974(7)
O5B O 0.1582(3) 0.1686(2) 0.16974(7)
O5Q O -0.4915(3) 0.1647(2) 0.16359(7)
O5O O -0.1647(2) -0.6563(2) 0.16359(7)
O5P O 0.6563(2) 0.4915(3) 0.16359(7)
O7A O -0.07306(19) -0.10383(26) 0.17261(6)
O7B O 0.10383(26) 0.03077(18) 0.17261(6)
O7O O -0.30256(18) 0.26027(19) 0.16072(6)
O7P O -0.26027(19) -0.56284(26) 0.16072(6)
O7Q O 0.56284(26) 0.30256(18) 0.16072(6)
O9A O -0.0706(2) -0.5214(3) 0.07370(7)
O9B O 0.5214(3) 0.4508(2) 0.07370(7)
O11A O -0.1708(2) -0.6300(4) 0.05644(8)
O11B O 0.6300(4) 0.4592(3) 0.05644(8)
O12A O 0.2164(2) -0.4091(4) 0.03970(7)
O12B O 0.4091(4) 0.6255(3) 0.03970(7)
O12A_2 O -0.7836(2) -0.4091(4) 0.03970(7)
O12B_2 O -0.5909(4) -0.3745(3) 0.03970(7)
O13A O 0.2315(2) -0.4393(3) 0.00078(7)
O13B O 0.4393(3) 0.6708(2) 0.00078(7)
O13A_2 O -0.7685(2) -0.4393(3) 0.00078(7)
O13B_2 O -0.5607(3) -0.3292(2) 0.00078(7)
O14A O -0.11082(17) -0.04420(25) 0.21715(5)
O14B O 0.04420(25) -0.06662(18) 0.21715(5)
O14O O -0.39995(18) 0.22251(17) 0.11618(5)
O14P O -0.22251(17) -0.62247(25) 0.11618(5)
O14Q O 0.62247(25) 0.39995(18) 0.11618(5)
H1A H -0.110(3) -0.0008(36) 0.2216(10)
H1B H 0.0008(36) -0.1092(19) 0.2216(10)
H1O H -0.4425(19) 0.223(3) 0.1117(10)
H1P H -0.223(3) -0.6659(36) 0.1117(10)
H1Q H 0.6659(36) 0.4425(19) 0.1117(10)
O15A O -0.3333 -0.6666 0.07212(10)
O15B O 0.6666 0.3333 0.07212(10)
H2A H -0.3333 -0.6666 0.05607(10)
H2B H 0.6666 0.3333 0.05607(10)
O16A O -0.2122(2) -0.5001(3) 0.04790(6)
O16B O 0.5001(3) 0.2879(2) 0.04790(6)
H3A H -0.2577 -0.5022 0.0505
H3B H 0.5022 0.2445 0.0505
H4A H -0.2169 -0.5262 0.0343
H4B H 0.5262 0.3093 0.0343
O17A O -0.0404(2) -0.5436(3) 0.12352(8)
O17B O 0.5436(3) 0.5032(2) 0.12352(8)
H5A H -0.0221 -0.5663 0.1333
H5B H 0.5663 0.5442 0.1333
H6A H -0.0625 -0.5747 0.1109
H6B H 0.5747 0.5122 0.1109
O18A O -0.0613(2) -0.4843(4) 0.17283(8)
O18B O 0.4843(4) 0.4230(3) 0.17283(8)
H7A H -0.0349 -0.4833 0.1859
H7B H 0.4833 0.4484 0.1859
H8A H -0.0480 -0.4348 0.1702
H8B H 0.4348 0.3868 0.1702
C1A C -0.1544(3) -0.3360(4) 0.11823(8)
C1B C 0.3360(4) 0.1816(3) 0.11823(8)
C2A C -0.1090(3) -0.2858(4) 0.13882(8)
C2B C 0.2858(4) 0.1768(3) 0.13882(8)
H9A H -0.0840 -0.3041 0.1505
H9B H 0.3041 0.2201 0.1505
C3A C -0.1019(3) -0.2087(4) 0.14156(8)
C3B C 0.2087(4) 0.1068(3) 0.14156(8)
C4A C -0.1382(4) -0.1814(5) 0.12369(9)
C4B C 0.1814(5) 0.0432(3) 0.12369(9)
H10A H -0.1333 -0.1296 0.1258
H10B H 0.1296 -0.0037 0.1258
C5A C -0.1813(4) -0.2290(5) 0.10285(10)
C5B C 0.2290(5) 0.0477(3) 0.10285(10)
C6A C -0.1901(4) -0.3077(5) 0.10069(9)
C6B C 0.3077(5) 0.1176(3) 0.10069(9)
H11A H -0.2207 -0.3419 0.0872
H11B H 0.3419 0.1212 0.0872
C7A C -0.1646(3) -0.4210(4) 0.11559(8)
C7B C 0.4210(4) 0.2564(3) 0.11559(8)
C8A C -0.0520(3) -0.1536(4) 0.16308(8)
C8B C 0.1536(4) 0.1016(3) 0.16308(8)
C9A C -0.2186(7) -0.1973(9) 0.08263(15)
C9B C 0.1973(9) -0.0213(5) 0.08263(15)
C10A C -0.3115(12) -0.2594(16) 0.0817(4)
C10B C 0.2594(16) -0.0521(10) 0.0817(4)
H12A H -0.3373 -0.2419 0.0692
H12B H 0.2419 -0.0954 0.0692
H13A H -0.3202 -0.3130 0.0772
H13B H 0.3130 -0.0072 0.0772
H14A H -0.3354 -0.2621 0.0982
H14B H 0.2621 -0.0733 0.0982
C11A C -0.1811(16) -0.1972(18) 0.0574(2)
C11B C 0.1972(18) 0.0161(9) 0.0574(2)
H15A H -0.2035 -0.1776 0.0444
H15B H 0.1776 -0.0259 0.0444
H16A H -0.1221 -0.1616 0.0582
H16B H 0.1616 0.0395 0.0582
H17A H -0.1937 -0.2526 0.0533
H17B H 0.2526 0.0589 0.0533
C12A C -0.2087(10) -0.1164(12) 0.0890(2)
C12B C 0.1164(12) -0.0923(6) 0.0890(2)
H18A H -0.2330 -0.0997 0.0758
H18B H 0.0997 -0.1333 0.0758
H19A H -0.2358 -0.1201 0.1049
H19B H 0.1201 -0.1157 0.1049
H20A H -0.1508 -0.0763 0.0904
H20B H 0.0763 -0.0745 0.0904
C13A C -0.0377(3) -0.5808(4) 0.03834(9)
C13B C 0.5808(4) 0.5431(3) 0.03834(9)
C14A C 0.0448(3) -0.5220(4) 0.03903(9)
C14B C 0.5220(4) 0.5668(3) 0.03903(9)
H21A H 0.0650 -0.4829 0.0520
H21B H 0.4829 0.5479 0.0520
C15A C 0.0984(3) -0.5209(4) 0.02016(9)
C15B C 0.5209(4) 0.6193(3) 0.02016(9)
C16A C 0.0665(3) -0.5822(4) 0.00116(9)
C16B C 0.5822(4) 0.6487(3) 0.00116(9)
H22A H 0.1026 -0.5815 -0.0113
H22B H 0.5815 0.6841 -0.0113
C17A C -0.0163(3) -0.6438(4) -0.00007(9)
C17B C 0.6438(4) 0.6275(3) -0.00007(9)
C18A C -0.0679(3) -0.6410(4) 0.01944(10)
C18B C 0.6410(4) 0.5731(3) 0.01944(10)
H23A H -0.1238 -0.6808 0.0195
H23B H 0.6808 0.5570 0.0195
C19A C -0.0953(3) -0.5767(4) 0.05746(10)
C19B C 0.5767(4) 0.4814(3) 0.05746(10)
C20A C 0.1860(3) -0.4537(4) 0.02023(9)
C20B C 0.4537(4) 0.6397(3) 0.02023(9)
C21A C -0.0476(3) -0.7102(4) -0.01994(9)
C21B C 0.7102(4) 0.6626(3) -0.01994(9)
C22A C 0.0136(8) -0.6926(17) -0.0403(3)
C22B C 0.6926(17) 0.7062(15) -0.0403(3)
H24A H -0.0094 -0.7363 -0.0528
H24B H 0.7363 0.7269 -0.0528
H25A H 0.0275 -0.6410 -0.0485
H25B H 0.6410 0.6685 -0.0485
H26A H 0.0626 -0.6890 -0.0331
H26B H 0.6890 0.7516 -0.0331
C23A C -0.0641(19) -0.7879(24) -0.0083(3)
C23B C 0.7879(24) 0.7238(15) -0.0083(3)
H27A H -0.0844 -0.8307 -0.0211
H27B H 0.8307 0.7463 -0.0211
H28A H -0.0140 -0.7816 -0.0010
H28B H 0.7816 0.7676 -0.0010
H29A H -0.1050 -0.8029 0.0049
H29B H 0.8029 0.6979 0.0049
C24A C -0.1237(9) -0.7215(13) -0.0319(3)
C24B C 0.7215(13) 0.5978(9) -0.0319(3)
H30A H -0.1420 -0.7642 -0.0446
H30B H 0.7642 0.6222 -0.0446
H31A H -0.1658 -0.7371 -0.0191
H31B H 0.7371 0.5713 -0.0191
H32A H -0.1130 -0.6706 -0.0398
H32B H 0.6706 0.5576 -0.0398
O2 O -0.3528(7) -0.3474(5) 0.1504(2)
O4 O 0.0794(11) 0.3894(9) 0.2247(3)
O6 O 0.268(2) 0.5435(12) 0.2426(2)
O8 O 0.0484(14) 0.4688(17) 0.1906(3)
O10 O 0.281(4) 0.484(2) 0.2018(4)
C25? C 0.303(3) 0.293(3) 0.3786(2)
C26? C 0.4200(6) 0.335(2) 0.3520(6)
C27? C 0.307(3) 0.2000(12) 0.3488(7)
H33? H 0.3259 0.2724 0.3910
H34? H 0.2436 0.2624 0.3796
H35? H 0.3219 0.3507 0.3822
H36? H 0.4436 0.3157 0.3647
H37? H 0.4376 0.3922 0.3551
H38? H 0.4383 0.3293 0.3353
H39? H 0.3316 0.1827 0.3619
H40? H 0.3278 0.1955 0.3324
H41? H 0.2482 0.1653 0.3492
loop_
_geom_bond_atom_site_label_1
_geom_bond_atom_site_label_2
_geom_bond_site_symmetry_1
_geom_bond_site_symmetry_2
Co1 O7 1_555 1_555
Co2 O3 1_555 1_555
Co3 O1 1_555 1_555
Co4 O12 1_555 1_555
O1 C7 1_555 1_555
O3 C7 1_555 1_555
O5 C8 1_555 1_555
O7 C8 1_555 1_555
O9 Co2 1_555 1_555
O11 Co2 1_555 1_555
O12 C20 1_555 1_555
O13 Co4 1_555 1_555
O14 Co1 1_555 1_555
H1 O14 1_555 1_555
O15 Co2 1_555 1_555
H2 O15 1_555 1_555
O16 Co2 1_555 1_555
H3 O16 1_555 1_555
H4 O16 1_555 1_555
O17 Co3 1_555 1_555
H5 O17 1_555 1_555
H6 O17 1_555 1_555
O18 Co3 1_555 1_555
H7 O18 1_555 1_555
H8 O18 1_555 1_555
C1 C2 1_555 1_555
C2 H9 1_555 1_555
C3 C2 1_555 1_555
C4 C3 1_555 1_555
H10 C4 1_555 1_555
C5 C4 1_555 1_555
C6 C1 1_555 1_555
H11 C6 1_555 1_555
C7 C1 1_555 1_555
C8 C3 1_555 1_555
C9 C5 1_555 1_555
C10 C9 1_555 1_555
H12 C10 1_555 1_555
H13 C10 1_555 1_555
H14 C10 1_555 1_555
C11 C9 1_555 1_555
H15 C11 1_555 1_555
H16 C11 1_555 1_555
H17 C11 1_555 1_555
C12 C9 1_555 1_555
H18 C12 1_555 1_555
H19 C12 1_555 1_555
H20 C12 1_555 1_555
C13 C14 1_555 1_555
C14 H21 1_555 1_555
C15 C14 1_555 1_555
C16 C15 1_555 1_555
H22 C16 1_555 1_555
C17 C16 1_555 1_555
C18 C13 1_555 1_555
H23 C18 1_555 1_555
C19 O9 1_555 1_555
C20 O13 1_555 1_555
C21 C17 1_555 1_555
C22 C21 1_555 1_555
H24 C22 1_555 1_555
H25 C22 1_555 1_555
H26 C22 1_555 1_555
C23 C21 1_555 1_555
H27 C23 1_555 1_555
H28 C23 1_555 1_555
H29 C23 1_555 1_555
C24 C21 1_555 1_555
H30 C24 1_555 1_555
H31 C24 1_555 1_555
H32 C24 1_555 1_555
Co2A O3A 1_555 1_555
Co2B O3B 1_555 1_555
Co2O O14 1_555 1_555
Co2B_2 O15 1_555 1_555
Co2A_2 O15 1_555 1_555
Co2P O14A 1_555 1_555
Co2Q O14B 1_555 1_555
Co3A O1A 1_555 1_555
Co3B O1B 1_555 1_555
Co3P O5 1_555 1_555
Co3O O7 1_555 1_555
Co3Q O5A 1_555 1_555
Co4A O12A 1_555 1_555
Co4B O12B 1_555 1_555
O1A C7A 1_555 1_555
O1B C7B 1_555 1_555
O3A C7A 1_555 1_555
O3B C7B 1_555 1_555
O5A C8A 1_555 1_555
O5B Co3O 1_555 1_555
O5Q Co3 1_555 1_555
O5O Co3A 1_555 1_555
O5P Co3B 1_555 1_555
O7A Co1 1_555 1_555
O7B Co1 1_555 1_555
O7O Co3 1_555 1_555
O7P Co3A 1_555 1_555
O7Q Co3B 1_555 1_555
O9A Co2A 1_555 1_555
O9B Co2B 1_555 1_555
O11A Co2A 1_555 1_555
O11B Co2B 1_555 1_555
O12A C20A 1_555 1_555
O12B C20B 1_555 1_555
O12A_2 Co4 1_555 1_555
O12B_2 Co4 1_555 1_555
O13A Co4A 1_555 1_555
O13B Co4B 1_555 1_555
O13A_2 Co4 1_555 1_555
O13B_2 Co4 1_555 1_555
O14A Co1 1_555 1_555
O14B Co1 1_555 1_555
O14O Co2 1_555 1_555
O14P Co2A 1_555 1_555
O14Q Co2B 1_555 1_555
H1A O14A 1_555 1_555
H1B O14B 1_555 1_555
H1O O14O 1_555 1_555
H1P O14P 1_555 1_555
H1Q O14Q 1_555 1_555
O15A Co2A 1_555 1_555
O15B Co2B 1_555 1_555
H2A O15A 1_555 1_555
H2B O15B 1_555 1_555
O16A Co2A 1_555 1_555
O16B Co2B 1_555 1_555
H3A O16A 1_555 1_555
H3B O16B 1_555 1_555
H4A O16A 1_555 1_555
H4B O16B 1_555 1_555
O17A Co3A 1_555 1_555
O17B Co3B 1_555 1_555
H5A O17A 1_555 1_555
H5B O17B 1_555 1_555
H6A O17A 1_555 1_555
H6B O17B 1_555 1_555
O18A Co3A 1_555 1_555
O18B Co3B 1_555 1_555
H7A O18A 1_555 1_555
H7B O18B 1_555 1_555
H8A O18A 1_555 1_555
H8B O18B 1_555 1_555
C1A C2A 1_555 1_555
C1B C2B 1_555 1_555
C2A H9A 1_555 1_555
C2B H9B 1_555 1_555
C3A C2A 1_555 1_555
C3B C2B 1_555 1_555
C4A C3A 1_555 1_555
C4B C3B 1_555 1_555
H10A C4A 1_555 1_555
H10B C4B 1_555 1_555
C5A C4A 1_555 1_555
C5B C4B 1_555 1_555
C6A C1A 1_555 1_555
C6B C1B 1_555 1_555
H11A C6A 1_555 1_555
H11B C6B 1_555 1_555
C7A C1A 1_555 1_555
C7B C1B 1_555 1_555
C8A O7A 1_555 1_555
C8B O5B 1_555 1_555
C9A C5A 1_555 1_555
C9B C5B 1_555 1_555
C10A C9A 1_555 1_555
C10B C9B 1_555 1_555
H12A C10A 1_555 1_555
H12B C10B 1_555 1_555
H13A C10A 1_555 1_555
H13B C10B 1_555 1_555
H14A C10A 1_555 1_555
H14B C10B 1_555 1_555
C11A C9A 1_555 1_555
C11B C9B 1_555 1_555
H15A C11A 1_555 1_555
H15B C11B 1_555 1_555
H16A C11A 1_555 1_555
H16B C11B 1_555 1_555
H17A C11A 1_555 1_555
H17B C11B 1_555 1_555
C12A C9A 1_555 1_555
C12B C9B 1_555 1_555
H18A C12A 1_555 1_555
H18B C12B 1_555 1_555
H19A C12A 1_555 1_555
H19B C12B 1_555 1_555
H20A C12A 1_555 1_555
H20B C12B 1_555 1_555
C13A C14A 1_555 1_555
C13B C14B 1_555 1_555
C14A H21A 1_555 1_555
C14B H21B 1_555 1_555
C15A C14A 1_555 1_555
C15B C14B 1_555 1_555
C16A C15A 1_555 1_555
C16B C15B 1_555 1_555
H22A C16A 1_555 1_555
H22B C16B 1_555 1_555
C17A C16A 1_555 1_555
C17B C16B 1_555 1_555
C18A C13A 1_555 1_555
C18B C13B 1_555 1_555
H23A C18A 1_555 1_555
H23B C18B 1_555 1_555
C19A O9A 1_555 1_555
C19B O9B 1_555 1_555
C20A O13A 1_555 1_555
C20B O13B 1_555 1_555
C21A C17A 1_555 1_555
C21B C17B 1_555 1_555
C22A C21A 1_555 1_555
C22B C21B 1_555 1_555
H24A C22A 1_555 1_555
H24B C22B 1_555 1_555
H25A C22A 1_555 1_555
H25B C22B 1_555 1_555
H26A C22A 1_555 1_555
H26B C22B 1_555 1_555
C23A C21A 1_555 1_555
C23B C21B 1_555 1_555
H27A C23A 1_555 1_555
H27B C23B 1_555 1_555
H28A C23A 1_555 1_555
H28B C23B 1_555 1_555
H29A C23A 1_555 1_555
H29B C23B 1_555 1_555
C24A C21A 1_555 1_555
C24B C21B 1_555 1_555
H30A C24A 1_555 1_555
H30B C24B 1_555 1_555
H31A C24A 1_555 1_555
H31B C24B 1_555 1_555
H32A C24A 1_555 1_555
H32B C24B 1_555 1_555
Co3 O14O 1_555 1_555
O11 C19 1_555 1_555
O14 Co3O 1_555 1_555
C5 C6 1_555 1_555
C13 C19 1_555 1_555
C15 C20 1_555 1_555
C17 C18 1_555 1_555
Co3A O14P 1_555 1_555
Co3B O14Q 1_555 1_555
Co3P O7A 1_555 1_555
Co3P O14A 1_555 1_555
Co3Q O7B 1_555 1_555
Co3Q O14B 1_555 1_555
O7B C8B 1_555 1_555
O11A C19A 1_555 1_555
O11B C19B 1_555 1_555
C3A C8A 1_555 1_555
C3B C8B 1_555 1_555
C5A C6A 1_555 1_555
C5B C6B 1_555 1_555
C13A C19A 1_555 1_555
C13B C19B 1_555 1_555
C15A C20A 1_555 1_555
C15B C20B 1_555 1_555
C17A C18A 1_555 1_555
C17B C18B 1_555 1_555

#END
