
#######################################################################
#
#                 Cambridge Crystallographic Data Centre
#                                CCDC 
#
#######################################################################
#
# If this CIF has been generated from an entry in the Cambridge 
# Structural Database, then it will include bibliographic, chemical, 
# crystal, experimental, refinement or atomic coordinate data resulting 
# from the CCDC's data processing and validation procedures.
#
#######################################################################

data_YAKHUP
_symmetry_cell_setting           triclinic
_symmetry_space_group_name_H-M   'P -1'
_symmetry_Int_Tables_number      2
_space_group_name_Hall           '-P 1'
loop_
_symmetry_equiv_pos_site_id
_symmetry_equiv_pos_as_xyz
1 x,y,z
2 -x,-y,-z
_cell_length_a                   9.8755(13)
_cell_length_b                   10.5099(14)
_cell_length_c                   24.570(3)
_cell_angle_alpha                81.129(2)
_cell_angle_beta                 84.708(2)
_cell_angle_gamma                67.205(2)
_cell_volume                     2321.36
loop_
_atom_site_label
_atom_site_type_symbol
_atom_site_fract_x
_atom_site_fract_y
_atom_site_fract_z
Cu1 Cu 0.69949(8) 0.44475(8) 0.33936(3)
Cu2 Cu 0.41912(8) 0.81542(8) 0.21518(3)
Cu3 Cu 0.06878(8) 0.62685(7) 0.26863(3)
P1 P 0.37285(17) 0.59929(17) 0.30614(7)
P2 P 0.14295(18) 0.88097(17) 0.28710(7)
P3 P 0.97389(18) 0.37338(17) 0.26684(7)
P4 P 0.74723(17) 0.65808(17) 0.24688(7)
N1 N 0.7115(6) 0.2773(5) 0.3958(2)
N2 N 0.7793(7) -0.2665(6) 0.6064(3)
H1 H 0.7884 -0.3340 0.6324
C1 C 0.5573(9) -0.2112(8) 0.6970(3)
H2 H 0.6436 -0.2893 0.7029
C2 C 1.0149(8) -0.5376(7) 0.5874(3)
H3 H 0.9342 -0.5424 0.6090
N3 N 0.4059(6) 0.9758(6) 0.1570(2)
N4 N 0.3519(8) 1.5214(7) -0.0520(3)
H4 H 0.3423 1.5904 -0.0773
C3 C 0.0888(11) 1.7739(10) -0.0485(4)
H5 H 0.1583 1.7728 -0.0769
C4 C 0.5860(8) 1.5072(7) -0.1321(3)
H6 H 0.5150 1.5867 -0.1307
O1 O 0.4917(4) 0.5051(4) 0.34541(17)
O2 O 0.4332(4) 0.6270(4) 0.24808(16)
O3 O 0.2516(4) 0.5437(4) 0.30759(18)
O4 O 0.2095(5) 0.8989(4) 0.22970(18)
O5 O 0.0358(4) 0.8085(4) 0.2904(2)
O6 O 0.0703(5) 1.0206(4) 0.3103(2)
O7 O 0.9052(4) 0.3639(4) 0.32472(17)
O8 O 1.0365(5) 0.2310(4) 0.24562(19)
O9 O 1.0877(4) 0.4382(4) 0.26194(18)
O10 O 0.8695(4) 0.7136(4) 0.24304(19)
O11 O 0.6904(4) 0.6328(4) 0.30571(17)
O12 O 0.6271(4) 0.7550(5) 0.20803(18)
O13 O 0.4062(5) 0.8345(5) 0.3180(2)
H7 H 0.4852 0.7718 0.3297
O14 O 0.7117(5) 0.4262(4) 0.2319(2)
H8 H 0.6313 0.4924 0.2245
C5 C 1.1364(8) -0.6545(8) 0.5821(3)
H13 H 1.1345 -0.7382 0.6004
N5 N 1.2585(7) -0.6586(7) 0.5527(3)
C6 C 1.2532(8) -0.5361(8) 0.5264(3)
H14 H 1.3359 -0.5343 0.5054
C7 C 1.1341(8) -0.4113(7) 0.5280(3)
H15 H 1.1365 -0.3298 0.5076
C8 C 1.0123(7) -0.4101(7) 0.5601(3)
C9 C 0.8837(7) -0.2791(7) 0.5630(3)
C10 C 0.8696(6) -0.1738(6) 0.5240(2)
H16 H 0.9412 -0.1806 0.4960
C11 C 0.7509(7) -0.0584(7) 0.5256(3)
C12 C 0.6473(6) -0.0374(6) 0.5648(2)
H17 H 0.5673 0.0470 0.5639
C13 C 0.6598(7) -0.1400(7) 0.6057(3)
C14 C 0.5421(7) -0.1153(7) 0.6495(3)
C15 C 0.4154(8) -0.0004(7) 0.6450(3)
H18 H 0.4029 0.0653 0.6139
C16 C 0.3056(9) 0.0209(8) 0.6852(3)
H19 H 0.2217 0.1022 0.6819
N6 N 0.3190(8) -0.0719(8) 0.7277(3)
C17 C 0.4416(10) -0.1874(9) 0.7350(4)
H20 H 0.4484 -0.2520 0.7661
C18 C 0.7359(7) 0.0585(6) 0.4802(3)
C19 C 0.8484(7) 0.0531(7) 0.4417(3)
H21 H 0.9352 -0.0255 0.4434
C20 C 0.8338(7) 0.1622(7) 0.4011(3)
H22 H 0.9122 0.1560 0.3762
C21 C 0.6003(7) 0.2816(7) 0.4334(3)
H23 H 0.5136 0.3601 0.4304
C22 C 0.6081(7) 0.1789(7) 0.4750(3)
H24 H 0.5290 0.1883 0.4999
C23 C -0.0382(12) 1.8915(11) -0.0444(5)
H25 H -0.0518 1.9670 -0.0716
N7 N -0.1380(10) 1.9047(10) -0.0062(4)
C24 C -0.1156(11) 1.7928(11) 0.0308(4)
H26 H -0.1857 1.7970 0.0592
C25 C 0.0064(10) 1.6707(10) 0.0294(4)
H27 H 0.0160 1.5956 0.0564
C26 C 0.1097(10) 1.6593(9) -0.0100(3)
C27 C 0.2447(9) 1.5297(8) -0.0110(3)
C28 C 0.2571(8) 1.4242(7) 0.0275(3)
H28 H 0.1834 1.4304 0.0546
C29 C 0.3758(8) 1.3099(8) 0.0268(3)
C30 C 0.4818(8) 1.2970(7) -0.0124(3)
H29 H 0.5630 1.2137 -0.0124
C31 C 0.4711(8) 1.4037(8) -0.0517(3)
C32 C 0.5872(8) 1.3944(7) -0.0945(3)
C33 C 0.7090(8) 1.2696(8) -0.0990(3)
H30 H 0.7187 1.1903 -0.0743
C34 C 0.8135(8) 1.2664(8) -0.1403(3)
H31 H 0.8913 1.1819 -0.1433
N8 N 0.8112(6) 1.3752(6) -0.1763(2)
C35 C 0.6990(8) 1.4928(7) -0.1716(3)
H32 H 0.6951 1.5707 -0.1961
C36 C 0.3876(8) 1.1923(7) 0.0724(3)
C37 C 0.2873(8) 1.2113(8) 0.1158(3)
H33 H 0.2122 1.2978 0.1179
C38 C 0.2982(8) 1.1016(8) 0.1564(3)
H34 H 0.2268 1.1159 0.1847
C39 C 0.5037(9) 0.9588(9) 0.1137(3)
H35 H 0.5786 0.8718 0.1124
C40 C 0.4985(9) 1.0627(8) 0.0719(3)
H36 H 0.5693 1.0460 0.0433
C41 C 0.2956(7) 0.7711(7) 0.3307(3)
C42 C 0.2516(8) 0.7642(8) 0.3909(3)
H37 H 0.3347 0.7033 0.4120
H38 H 0.1742 0.7292 0.3973
H39 H 0.2176 0.8556 0.4018
C43 C 0.8223(7) 0.4880(6) 0.2224(3)
C44 C 0.8747(8) 0.4967(8) 0.1620(3)
H40 H 0.9105 0.4058 0.1505
H41 H 0.9521 0.5316 0.1578
H42 H 0.7942 0.5583 0.1398
Cu3_2 Cu 1.06878(8) 0.62685(7) 0.26863(3)
O9_2 O 0.0877(4) 0.4382(4) 0.26194(18)
O10_2 O -0.1305(4) 0.7136(4) 0.24304(19)
O15 O 0.8869(12) 0.1139(14) 0.1908(4)
H9 H 0.9641 0.0426 0.1970
H10 H 0.8144 0.1633 0.1697
O16 O 0.848(3) 0.9422(18) 0.1792(9)
H11 H 0.8388 1.0141 0.1538
H12 H 0.8213 0.8669 0.1721
O17? O 0.820(3) 0.941(2) 0.1534(10)
loop_
_geom_bond_atom_site_label_1
_geom_bond_atom_site_label_2
_geom_bond_site_symmetry_1
_geom_bond_site_symmetry_2
Cu1 N1 1_555 1_555
Cu2 N3 1_555 1_555
Cu3 O3 1_555 1_555
P1 O1 1_555 1_555
P2 O4 1_555 1_555
P3 O7 1_555 1_555
P4 O10 1_555 1_555
N1 C20 1_555 1_555
N2 H1 1_555 1_555
C1 H2 1_555 1_555
C2 H3 1_555 1_555
N3 C38 1_555 1_555
N4 H4 1_555 1_555
C3 H5 1_555 1_555
C4 H6 1_555 1_555
O1 Cu1 1_555 1_555
O2 Cu2 1_555 1_555
O3 P1 1_555 1_555
O4 Cu2 1_555 1_555
O5 Cu3 1_555 1_555
O6 P2 1_555 1_555
O7 Cu1 1_555 1_555
O8 P3 1_555 1_555
O9 P3 1_555 1_555
O10 Cu3_2 1_555 1_555
O11 Cu1 1_555 1_555
O12 Cu2 1_555 1_555
O13 H7 1_555 1_555
O14 H8 1_555 1_555
O15 H9 1_555 1_555
H10 O15 1_555 1_555
O16 H11 1_555 1_555
H12 O16 1_555 1_555
C5 C2 1_555 1_555
H13 C5 1_555 1_555
N5 C5 1_555 1_555
C6 N5 1_555 1_555
H14 C6 1_555 1_555
C7 C6 1_555 1_555
H15 C7 1_555 1_555
C8 C2 1_555 1_555
C9 N2 1_555 1_555
C10 C9 1_555 1_555
H16 C10 1_555 1_555
C11 C10 1_555 1_555
C12 C11 1_555 1_555
H17 C12 1_555 1_555
C13 N2 1_555 1_555
C14 C1 1_555 1_555
C15 C14 1_555 1_555
H18 C15 1_555 1_555
C16 C15 1_555 1_555
H19 C16 1_555 1_555
N6 C16 1_555 1_555
C17 C1 1_555 1_555
H20 C17 1_555 1_555
C18 C11 1_555 1_555
C19 C18 1_555 1_555
H21 C19 1_555 1_555
C20 C19 1_555 1_555
H22 C20 1_555 1_555
C21 N1 1_555 1_555
H23 C21 1_555 1_555
C22 C18 1_555 1_555
H24 C22 1_555 1_555
C23 C3 1_555 1_555
H25 C23 1_555 1_555
N7 C23 1_555 1_555
C24 N7 1_555 1_555
H26 C24 1_555 1_555
C25 C24 1_555 1_555
H27 C25 1_555 1_555
C26 C3 1_555 1_555
C27 N4 1_555 1_555
C28 C27 1_555 1_555
H28 C28 1_555 1_555
C29 C28 1_555 1_555
C30 C29 1_555 1_555
H29 C30 1_555 1_555
C31 N4 1_555 1_555
C32 C4 1_555 1_555
C33 C32 1_555 1_555
H30 C33 1_555 1_555
C34 C33 1_555 1_555
H31 C34 1_555 1_555
N8 C34 1_555 1_555
C35 C4 1_555 1_555
H32 C35 1_555 1_555
C36 C29 1_555 1_555
C37 C36 1_555 1_555
H33 C37 1_555 1_555
C38 C37 1_555 1_555
H34 C38 1_555 1_555
C39 N3 1_555 1_555
H35 C39 1_555 1_555
C40 C36 1_555 1_555
H36 C40 1_555 1_555
C41 P1 1_555 1_555
C42 C41 1_555 1_555
H37 C42 1_555 1_555
H38 C42 1_555 1_555
H39 C42 1_555 1_555
C43 P3 1_555 1_555
C44 C43 1_555 1_555
H40 C44 1_555 1_555
H41 C44 1_555 1_555
H42 C44 1_555 1_555
Cu3_2 O9 1_555 1_555
O9_2 Cu3 1_555 1_555
O10_2 Cu3 1_555 1_555
P1 O2 1_555 1_555
P2 O5 1_555 1_555
P2 C41 1_555 1_555
P4 O11 1_555 1_555
P4 O12 1_555 1_555
P4 C43 1_555 1_555
O13 C41 1_555 1_555
O14 C43 1_555 1_555
C7 C8 1_555 1_555
C8 C9 1_555 1_555
C12 C13 1_555 1_555
C13 C14 1_555 1_555
N6 C17 1_555 1_555
C21 C22 1_555 1_555
C25 C26 1_555 1_555
C26 C27 1_555 1_555
C30 C31 1_555 1_555
C31 C32 1_555 1_555
N8 C35 1_555 1_555
C39 C40 1_555 1_555

#END
