
#######################################################################
#
#                 Cambridge Crystallographic Data Centre
#                                CCDC 
#
#######################################################################
#
# If this CIF has been generated from an entry in the Cambridge 
# Structural Database, then it will include bibliographic, chemical, 
# crystal, experimental, refinement or atomic coordinate data resulting 
# from the CCDC's data processing and validation procedures.
#
#######################################################################

data_YAKJUR
_symmetry_cell_setting           monoclinic
_symmetry_space_group_name_H-M   'C 2/c'
_symmetry_Int_Tables_number      15
_space_group_name_Hall           '-C 2yn'
loop_
_symmetry_equiv_pos_site_id
_symmetry_equiv_pos_as_xyz
1 x,y,z
2 -x,y,1/2-z
3 1/2+x,1/2+y,z
4 1/2-x,1/2+y,1/2-z
5 -x,-y,-z
6 x,-y,1/2+z
7 1/2-x,1/2-y,-z
8 1/2+x,1/2-y,1/2+z
_cell_length_a                   21.600(4)
_cell_length_b                   11.140(2)
_cell_length_c                   20.526(4)
_cell_angle_alpha                90
_cell_angle_beta                 119.84(3)
_cell_angle_gamma                90
_cell_volume                     4284.22
loop_
_atom_site_label
_atom_site_type_symbol
_atom_site_fract_x
_atom_site_fract_y
_atom_site_fract_z
Cu1 Cu 0.42858(6) 0.82636(11) 0.72915(7)
Cu2 Cu 0.47498(7) 0.66332(12) 0.67207(7)
I1 I 0.39000(3) 0.59720(5) 0.72791(3)
I2 I 0.47371(3) 0.89484(6) 0.63249(3)
N1 N 0.3375(4) 0.9108(6) 0.6941(4)
N2 N 0.2236(4) 0.9598(7) 0.6611(4)
N3 N 0.1072(4) 0.9619(7) 0.5480(4)
N4 N 0.0665(4) 0.9270(8) 0.4253(5)
C1 C 0.3295(5) 1.0387(8) 0.6979(5)
C2 C 0.3805(6) 1.1271(11) 0.7138(6)
H1 H 0.4277 1.1074 0.7274
C3 C 0.3585(6) 1.2468(10) 0.7086(6)
H2 H 0.3905 1.3092 0.7155
C4 C 0.2897(6) 1.2736(10) 0.6932(7)
H3 H 0.2777 1.3541 0.6950
C5 C 0.2389(6) 1.1868(10) 0.6753(6)
H4 H 0.1920 1.2069 0.6626
C6 C 0.2590(5) 1.0688(9) 0.6767(5)
C7 C 0.2728(5) 0.8730(9) 0.6739(5)
H5 H 0.2611 0.7909 0.6685
C8 C 0.1471(5) 0.9384(9) 0.6283(5)
H6 H 0.1395 0.8547 0.6374
H7 H 0.1286 0.9899 0.6535
C9 C 0.0755(5) 1.0674(9) 0.5120(5)
C10 C 0.0618(5) 1.1758(9) 0.5364(6)
H8 H 0.0767 1.1890 0.5874
C11 C 0.0258(5) 1.2627(10) 0.4832(6)
H9 H 0.0151 1.3361 0.4981
C12 C 0.0048(6) 1.2447(10) 0.4079(6)
H10 H -0.0171 1.3078 0.3735
C13 C 0.0155(6) 1.1364(10) 0.3827(6)
H11 H -0.0004 1.1233 0.3315
C14 C 0.0507(5) 1.0475(9) 0.4356(5)
C15 C 0.0978(5) 0.8824(9) 0.4930(5)
H12 H 0.1128 0.8020 0.5032
Cu1A Cu 0.57142(6) 0.82636(11) 0.77085(7)
Cu2A Cu 0.52502(7) 0.66332(12) 0.82793(7)
Cu2F Cu 0.02502(7) 0.83668(12) 0.32793(7)
I1A I 0.61000(3) 0.59720(5) 0.77209(3)
I2A I 0.52629(3) 0.89484(6) 0.86751(3)
N4F N 0.4335(4) 0.5730(8) 0.5747(5)
N5 N 0.2988(5) 0.9922(11) 0.4646(6)
C16 C 0.3300(7) 0.9574(12) 0.4265(8)
H13 H 0.3539 1.0166 0.4147
C17 C 0.2631(9) 0.9056(15) 0.4865(9)
H14 H 0.2328 0.8551 0.4439
H15 H 0.2341 0.9471 0.5033
H16 H 0.2983 0.8564 0.5270
C18 C 0.3045(11) 1.1142(14) 0.4917(11)
H17 H 0.3291 1.1141 0.5461
H18 H 0.2572 1.1479 0.4723
H19 H 0.3312 1.1623 0.4746
O1 O 0.3308(5) 0.8552(9) 0.4053(6)
loop_
_geom_bond_atom_site_label_1
_geom_bond_atom_site_label_2
_geom_bond_site_symmetry_1
_geom_bond_site_symmetry_2
Cu1 I1 1_555 1_555
Cu2 I1 1_555 1_555
I1 Cu2A 1_555 1_555
I2 Cu1 1_555 1_555
N1 Cu1 1_555 1_555
N2 C6 1_555 1_555
N3 C8 1_555 1_555
N4 C14 1_555 1_555
N5 C16 1_555 1_555
C1 N1 1_555 1_555
C2 C1 1_555 1_555
H1 C2 1_555 1_555
C3 C2 1_555 1_555
H2 C3 1_555 1_555
C4 C3 1_555 1_555
H3 C4 1_555 1_555
C5 C4 1_555 1_555
H4 C5 1_555 1_555
C6 C1 1_555 1_555
C7 N1 1_555 1_555
H5 C7 1_555 1_555
C8 N2 1_555 1_555
H6 C8 1_555 1_555
H7 C8 1_555 1_555
C9 N3 1_555 1_555
C10 C9 1_555 1_555
H8 C10 1_555 1_555
C11 C10 1_555 1_555
H9 C11 1_555 1_555
C12 C11 1_555 1_555
H10 C12 1_555 1_555
C13 C12 1_555 1_555
H11 C13 1_555 1_555
C14 C9 1_555 1_555
C15 N3 1_555 1_555
H12 C15 1_555 1_555
C16 H13 1_555 1_555
C17 N5 1_555 1_555
H14 C17 1_555 1_555
H15 C17 1_555 1_555
H16 C17 1_555 1_555
C18 N5 1_555 1_555
H17 C18 1_555 1_555
H18 C18 1_555 1_555
H19 C18 1_555 1_555
O1 C16 1_555 1_555
Cu1A I2 1_555 1_555
Cu2A I1A 1_555 1_555
Cu2F N4 1_555 1_555
I1A Cu2 1_555 1_555
I2A Cu1 1_555 1_555
N4F Cu2 1_555 1_555
Cu2 I2 1_555 1_555
N2 C7 1_555 1_555
N4 C15 1_555 1_555
C5 C6 1_555 1_555
C13 C14 1_555 1_555
Cu1A I1A 1_555 1_555
Cu1A I2A 1_555 1_555
Cu2A I2A 1_555 1_555

#END
