
#######################################################################
#
#                 Cambridge Crystallographic Data Centre
#                                CCDC 
#
#######################################################################
#
# If this CIF has been generated from an entry in the Cambridge 
# Structural Database, then it will include bibliographic, chemical, 
# crystal, experimental, refinement or atomic coordinate data resulting 
# from the CCDC's data processing and validation procedures.
#
#######################################################################

data_YAKJAX
_symmetry_cell_setting           triclinic
_symmetry_space_group_name_H-M   'P -1'
_symmetry_Int_Tables_number      2
_space_group_name_Hall           '-P 1'
loop_
_symmetry_equiv_pos_site_id
_symmetry_equiv_pos_as_xyz
1 x,y,z
2 -x,-y,-z
_cell_length_a                   9.0321(10)
_cell_length_b                   10.0674(11)
_cell_length_c                   15.5816(17)
_cell_angle_alpha                103.9290(10)
_cell_angle_beta                 91.1570(10)
_cell_angle_gamma                99.5740(10)
_cell_volume                     1353.33
loop_
_atom_site_label
_atom_site_type_symbol
_atom_site_fract_x
_atom_site_fract_y
_atom_site_fract_z
Cu1 Cu 0.42283(5) 0.98209(5) 0.28823(3)
Cu2 Cu 0.13454(5) 0.52514(5) 0.06559(3)
Cu3 Cu 1.07397(5) 0.52671(5) 0.72363(3)
Cu4 Cu 0.64553(5) 1.03927(5) 0.05976(3)
P1 P 0.34952(11) 1.14219(10) 0.14091(6)
P2 P 0.64051(11) 1.23091(10) 0.25187(6)
P3 P -0.15378(11) 0.64425(10) 0.13718(6)
P4 P 0.13204(11) 0.73702(10) 0.25234(6)
N1 N 0.5317(4) 0.9105(3) 0.3788(2)
N2 N 0.9503(4) 0.6099(3) 0.6485(2)
O1 O 0.3081(3) 1.0480(3) 0.20290(17)
O2 O 0.4340(3) 1.0698(3) 0.06124(16)
O3 O 0.2157(3) 1.1898(3) 0.10795(17)
O4 O 0.5697(3) 1.1493(3) 0.31563(18)
O5 O 0.7139(3) 1.1439(3) 0.17655(19)
O6 O 0.7491(3) 1.3596(3) 0.30236(16)
O7 O -0.0634(3) 0.5813(3) 0.05777(16)
O8 O -0.1939(3) 0.5430(3) 0.19517(17)
O9 O -0.2894(3) 0.6897(3) 0.10356(17)
O10 O 0.2355(3) 0.8672(3) 0.30571(16)
O11 O 0.2102(3) 0.6625(3) 0.17315(18)
O12 O 0.0705(3) 0.6435(3) 0.31124(19)
O13 O 0.4869(3) 0.8209(3) 0.1694(2)
H1 H 0.5726 0.8009 0.1495
H2 H 0.4231 0.7484 0.1621
O14 O 0.3354(3) 0.4802(3) 0.05139(17)
H3 H 0.3891 0.4645 0.0911
H4 H 0.3523 0.4133 0.0042
O15 O 0.0153(3) 0.3548(3) 0.13716(18)
H5 H 0.0805 0.3062 0.1407
H6 H -0.0632 0.3067 0.1068
O16 O 0.8406(3) 0.9857(3) 0.04714(18)
H7 H 0.8922 0.9690 0.0897
H8 H 0.8585 0.9184 0.0038
O17 O 0.5407(3) 1.3694(3) 0.13869(17)
H9 H 0.6169 1.4253 0.1601
O18 O 0.0211(3) 0.8897(3) 0.15479(19)
H10 H 0.0989 0.9414 0.1780
C1 C 0.4852(4) 1.2932(4) 0.2024(2)
C2 C 0.4109(5) 1.3855(4) 0.2739(3)
H13 H 0.4808 1.4691 0.3002
H14 H 0.3807 1.3371 0.3185
H15 H 0.3241 1.4087 0.2483
C3 C -0.0290(4) 0.7945(4) 0.2084(2)
C4 C -0.1220(4) 0.8613(4) 0.2824(3)
H16 H -0.0571 0.9327 0.3255
H17 H -0.1702 0.7918 0.3103
H18 H -0.1969 0.9014 0.2579
C5 C 0.6502(4) 0.9884(4) 0.4321(3)
H19 H 0.6784 1.0813 0.4314
C6 C 0.7312(5) 0.9343(4) 0.4879(3)
H20 H 0.8098 0.9922 0.5252
C7 C 0.6972(5) 0.7961(4) 0.4890(3)
C8 C 0.5716(5) 0.7167(5) 0.4359(3)
H21 H 0.5405 0.6241 0.4364
C9 C 0.4940(5) 0.7770(4) 0.3826(3)
H22 H 0.4112 0.7223 0.3474
C10 C 0.7862(4) 0.7302(4) 0.5431(3)
C11 C 0.7928(5) 0.5899(4) 0.5187(3)
H23 H 0.7451 0.5344 0.4656
C12 C 0.8710(5) 0.5325(4) 0.5741(3)
H24 H 0.8685 0.4370 0.5591
C13 C 0.9486(4) 0.7478(4) 0.6698(3)
H25 H 1.0054 0.8031 0.7200
C14 C 0.8672(4) 0.8101(4) 0.6209(3)
H26 H 0.8658 0.9048 0.6394
Cu2A Cu -0.13454(5) 0.47486(5) -0.06559(3)
Cu3A Cu 0.92603(5) 1.47329(5) 0.27637(3)
Cu3A_2 Cu -0.07397(5) 0.47329(5) 0.27637(3)
Cu4A Cu 0.35447(5) 0.96073(5) -0.05976(3)
O2A O 0.5660(3) 0.9302(3) -0.06124(16)
O6A O 1.2509(3) 0.6404(3) 0.69764(16)
O7A O 0.0634(3) 0.4187(3) -0.05777(16)
O8A O 1.1939(3) 0.4570(3) 0.80483(17)
O12A O 0.9295(3) 0.3565(3) 0.68876(19)
O19 O 0.7315(4) 1.2442(3) 0.00440(19)
H11 H 0.7059 1.2127 -0.0475
H12 H 0.6675 1.2818 0.0337
loop_
_geom_bond_atom_site_label_1
_geom_bond_atom_site_label_2
_geom_bond_site_symmetry_1
_geom_bond_site_symmetry_2
Cu1 N1 1_555 1_555
Cu2 O7 1_555 1_555
Cu3 N2 1_555 1_555
Cu4 O2 1_555 1_555
P1 O1 1_555 1_555
P2 O4 1_555 1_555
P3 O7 1_555 1_555
P4 O10 1_555 1_555
N1 C5 1_555 1_555
N2 C12 1_555 1_555
O1 Cu1 1_555 1_555
O2 P1 1_555 1_555
O3 P1 1_555 1_555
O4 Cu1 1_555 1_555
O5 Cu4 1_555 1_555
O6 P2 1_555 1_555
O7 Cu2A 1_555 1_555
O8 P3 1_555 1_555
O9 P3 1_555 1_555
O10 Cu1 1_555 1_555
O11 Cu2 1_555 1_555
O12 P4 1_555 1_555
O13 Cu1 1_555 1_555
H1 O13 1_555 1_555
H2 O13 1_555 1_555
O14 Cu2 1_555 1_555
H3 O14 1_555 1_555
H4 O14 1_555 1_555
O15 Cu2 1_555 1_555
H5 O15 1_555 1_555
H6 O15 1_555 1_555
O16 Cu4 1_555 1_555
H7 O16 1_555 1_555
H8 O16 1_555 1_555
O17 H9 1_555 1_555
O18 H10 1_555 1_555
O19 H11 1_555 1_555
H12 O19 1_555 1_555
C1 P1 1_555 1_555
C2 C1 1_555 1_555
H13 C2 1_555 1_555
H14 C2 1_555 1_555
H15 C2 1_555 1_555
C3 P3 1_555 1_555
C4 C3 1_555 1_555
H16 C4 1_555 1_555
H17 C4 1_555 1_555
H18 C4 1_555 1_555
C5 H19 1_555 1_555
C6 C5 1_555 1_555
H20 C6 1_555 1_555
C7 C6 1_555 1_555
C8 C7 1_555 1_555
H21 C8 1_555 1_555
C9 N1 1_555 1_555
H22 C9 1_555 1_555
C10 C7 1_555 1_555
C11 C10 1_555 1_555
H23 C11 1_555 1_555
C12 C11 1_555 1_555
H24 C12 1_555 1_555
C13 N2 1_555 1_555
H25 C13 1_555 1_555
C14 C10 1_555 1_555
H26 C14 1_555 1_555
Cu2A O7A 1_555 1_555
Cu3A O6 1_555 1_555
Cu3A_2 O8 1_555 1_555
Cu4A O2 1_555 1_555
O2A Cu4 1_555 1_555
O6A Cu3 1_555 1_555
O7A Cu2 1_555 1_555
O8A Cu3 1_555 1_555
O12A Cu3 1_555 1_555
P2 O5 1_555 1_555
P2 C1 1_555 1_555
P4 O11 1_555 1_555
P4 C3 1_555 1_555
O12 Cu3A_2 1_555 1_555
O17 C1 1_555 1_555
O18 C3 1_555 1_555
C8 C9 1_555 1_555
C13 C14 1_555 1_555
Cu4A O2A 1_555 1_555

#END
