
#######################################################################
#
#                 Cambridge Crystallographic Data Centre
#                                CCDC 
#
#######################################################################
#
# If this CIF has been generated from an entry in the Cambridge 
# Structural Database, then it will include bibliographic, chemical, 
# crystal, experimental, refinement or atomic coordinate data resulting 
# from the CCDC's data processing and validation procedures.
#
#######################################################################

data_YAKJEB
_symmetry_cell_setting           monoclinic
_symmetry_space_group_name_H-M   'P 21'
_symmetry_Int_Tables_number      4
_space_group_name_Hall           'P 2yb'
loop_
_symmetry_equiv_pos_site_id
_symmetry_equiv_pos_as_xyz
1 x,y,z
2 -x,1/2+y,-z
_cell_length_a                   17.694(2)
_cell_length_b                   19.961(3)
_cell_length_c                   20.045(3)
_cell_angle_alpha                90
_cell_angle_beta                 100.969(15)
_cell_angle_gamma                90
_cell_volume                     6950.35
loop_
_atom_site_label
_atom_site_type_symbol
_atom_site_fract_x
_atom_site_fract_y
_atom_site_fract_z
Ag1 Ag 0.28316(9) 0.85046(7) 0.27280(9)
Ag2 Ag 0.03487(9) 1.14409(7) 0.52781(10)
Ag3 Ag 0.42042(11) 0.95407(9) 0.59051(11)
Ag4 Ag 0.52213(11) 1.15271(8) 0.04611(11)
Ag5 Ag 0.16868(12) 1.04371(10) -0.15453(11)
Ag6 Ag 0.76748(10) 0.85857(8) -0.19731(10)
Ag7 Ag -0.07282(12) 0.96935(10) 0.08341(12)
Ag8 Ag -0.32027(11) 1.03858(9) 0.32894(12)
C1 C 0.0946(9) 0.8246(8) 0.2529(8)
C2 C 0.0804(10) 0.8004(8) 0.1908(9)
H1 H 0.1207 0.7875 0.1699
C3 C 0.0073(11) 0.7943(10) 0.1577(9)
H2 H -0.0025 0.7747 0.1149
C4 C -0.0540(11) 0.8164(9) 0.1855(10)
H3 H -0.1035 0.8151 0.1595
C5 C -0.0426(10) 0.8408(8) 0.2527(8)
H4 H -0.0827 0.8534 0.2740
C6 C 0.0328(10) 0.8441(8) 0.2833(8)
C7 C 0.1468(10) 0.8621(9) 0.3520(9)
C8 C 0.2043(10) 0.8815(8) 0.4122(8)
C9 C 0.2066(12) 0.9440(10) 0.4446(12)
H5 H 0.1645 0.9724 0.4331
C10 C 0.2667(12) 0.9648(10) 0.4912(11)
H6 H 0.2718 1.0100 0.5024
C11 C 0.3199(10) 0.8559(9) 0.4970(9)
H7 H 0.3583 0.8261 0.5160
C12 C 0.2628(11) 0.8359(10) 0.4436(11)
H8 H 0.2624 0.7921 0.4279
C13 C 0.0316(11) 0.8882(9) 0.4029(10)
H9 H -0.0228 0.8927 0.3836
H10 H 0.0506 0.9317 0.4199
C14 C 0.0413(11) 0.8392(9) 0.4610(9)
H11 H 0.0959 0.8343 0.4793
H12 H 0.0222 0.7959 0.4435
C15 C 0.0007(11) 0.8586(10) 0.5186(11)
H13 H -0.0544 0.8610 0.5016
H14 H 0.0101 0.8248 0.5539
C16 C 0.1023(11) 0.9343(10) 0.5937(9)
C17 C 0.1109(10) 1.0039(9) 0.5948(10)
C18 C 0.1789(12) 1.0324(11) 0.6368(11)
H15 H 0.1885 1.0782 0.6366
C19 C 0.2275(12) 0.9909(10) 0.6757(11)
H16 H 0.2686 1.0090 0.7062
C20 C 0.2184(13) 0.9186(14) 0.6722(12)
H17 H 0.2549 0.8904 0.6974
C21 C 0.1522(14) 0.8922(11) 0.6293(11)
H18 H 0.1440 0.8462 0.6261
C22 C 0.0040(11) 0.9877(9) 0.5283(9)
C23 C -0.0699(10) 0.9994(8) 0.4808(9)
C24 C -0.1361(10) 0.9731(8) 0.4972(10)
H19 H -0.1358 0.9488 0.5368
C25 C -0.2025(12) 0.9855(9) 0.4507(10)
H20 H -0.2470 0.9666 0.4606
C26 C -0.1464(13) 1.0469(10) 0.3805(10)
H21 H -0.1495 1.0726 0.3414
C27 C -0.0788(11) 1.0372(9) 0.4207(9)
H22 H -0.0353 1.0563 0.4087
C28 C 0.6007(11) 1.0074(9) 0.1068(9)
C29 C 0.6729(12) 1.0304(11) 0.1431(11)
H23 H 0.6867 1.0753 0.1420
C30 C 0.7207(12) 0.9857(12) 0.1791(11)
H24 H 0.7664 1.0014 0.2052
C31 C 0.7050(16) 0.9127(13) 0.1797(12)
H25 H 0.7403 0.8826 0.2036
C32 C 0.6310(12) 0.8911(10) 0.1407(13)
H26 H 0.6171 0.8461 0.1384
C33 C 0.5854(11) 0.9360(9) 0.1094(8)
C34 C 0.4881(10) 0.9943(7) 0.0473(9)
C35 C 0.4134(11) 1.0086(8) 0.0050(9)
C36 C 0.3454(10) 0.9889(8) 0.0207(9)
H27 H 0.3446 0.9675 0.0618
C37 C 0.2770(11) 1.0007(10) -0.0247(12)
H28 H 0.2317 0.9846 -0.0136
C38 C 0.3380(12) 1.0546(10) -0.1001(10)
H29 H 0.3358 1.0789 -0.1401
C39 C 0.4095(12) 1.0411(10) -0.0592(10)
H30 H 0.4545 1.0531 -0.0737
C40 C 0.4777(9) 0.8674(8) 0.0413(8)
H31 H 0.4227 0.8719 0.0246
H32 H 0.4854 0.8339 0.0770
C41 C 0.5162(10) 0.8448(8) -0.0159(9)
H33 H 0.5692 0.8333 0.0030
H34 H 0.4908 0.8044 -0.0356
C42 C 0.5157(10) 0.8953(8) -0.0719(9)
H35 H 0.4626 0.9049 -0.0923
H36 H 0.5383 0.9366 -0.0517
C43 C 0.5165(11) 0.8504(9) -0.1894(10)
C44 C 0.5739(11) 0.8291(11) -0.2199(9)
C45 C 0.5594(11) 0.8013(9) -0.2865(9)
H37 H 0.5988 0.7869 -0.3079
C46 C 0.4869(14) 0.7975(11) -0.3156(10)
H38 H 0.4741 0.7807 -0.3596
C47 C 0.6292(11) 0.8712(8) -0.1246(9)
C48 C 0.6911(11) 0.8926(10) -0.0710(12)
C49 C 0.6935(11) 0.9594(9) -0.0429(9)
H39 H 0.6511 0.9876 -0.0531
C50 C 0.7520(12) 0.8529(11) -0.0440(11)
H40 H 0.7492 0.8085 -0.0584
C51 C 0.8130(13) 0.8694(11) -0.0010(11)
H41 H 0.8520 0.8385 0.0136
C52 C 0.7628(12) 0.9811(9) 0.0011(11)
H42 H 0.7689 1.0259 0.0139
C53 C 0.4245(11) 0.8188(8) -0.2809(10)
H43 H 0.3734 0.8142 -0.3026
C54 C 0.4413(11) 0.8449(9) -0.2180(9)
H44 H 0.4028 0.8585 -0.1952
C55 C 0.2748(10) 1.1635(8) 0.0583(8)
C56 C 0.3320(10) 1.1807(9) 0.0263(9)
C57 C 0.3148(12) 1.2082(10) -0.0388(10)
H45 H 0.3533 1.2216 -0.0617
C58 C 0.1954(10) 1.1707(9) 0.0295(9)
H46 H 0.1563 1.1578 0.0519
C59 C 0.1815(11) 1.1985(9) -0.0347(8)
H47 H 0.1307 1.2063 -0.0556
C60 C 0.3863(10) 1.1466(8) 0.1230(9)
C61 C 0.2725(11) 1.1167(9) 0.1749(9)
H48 H 0.2944 1.0733 0.1893
H49 H 0.2177 1.1105 0.1587
C62 C 0.2837(10) 1.1623(10) 0.2353(9)
H50 H 0.2610 1.2056 0.2218
H51 H 0.3383 1.1688 0.2522
C63 C 0.2467(11) 1.1332(9) 0.2914(11)
H52 H 0.2545 1.1641 0.3294
H53 H 0.1917 1.1295 0.2747
C64 C 0.4462(11) 1.1203(10) 0.1809(9)
C65 C 0.4487(12) 1.0555(9) 0.2022(12)
H54 H 0.4110 1.0247 0.1840
C66 C 0.5085(11) 1.1622(10) 0.1999(12)
H55 H 0.5102 1.2052 0.1824
C67 C 0.3620(12) 0.9907(10) 0.3494(11)
C68 C 0.4275(12) 0.9624(12) 0.3874(13)
H56 H 0.4365 0.9165 0.3878
C69 C 0.5117(13) 1.0375(9) 0.2535(12)
H57 H 0.5098 0.9970 0.2761
C70 C 0.3455(11) 1.0552(9) 0.3546(10)
C71 C 0.3988(12) 1.0991(9) 0.3976(10)
H58 H 0.3894 1.1448 0.3992
C72 C 0.4628(14) 1.0716(12) 0.4357(13)
H59 H 0.4947 1.0968 0.4685
C73 C 0.4794(13) 1.0069(15) 0.4252(12)
H60 H 0.5283 0.9912 0.4442
C74 C 0.5700(12) 1.1348(10) 0.2481(12)
H61 H 0.6114 1.1628 0.2645
C75 C 0.2516(11) 1.0057(9) 0.2871(10)
C76 C 0.1034(11) 1.0182(9) 0.2550(10)
H62 H 0.1025 1.0371 0.2972
C77 C 0.1753(11) 0.9971(8) 0.2402(9)
C78 C 0.1708(12) 0.9635(11) 0.1818(11)
H63 H 0.2144 0.9430 0.1717
C79 C 0.2366(12) 1.2145(10) -0.0681(11)
H64 H 0.2230 1.2306 -0.1123
C80 C 0.0374(12) 1.0120(9) 0.2109(11)
H65 H -0.0078 1.0294 0.2211
C81 C 0.1031(14) 0.9594(9) 0.1374(11)
H66 H 0.1032 0.9410 0.0948
C82 C -0.1542(10) 1.1727(8) 0.5094(9)
C83 C -0.2130(11) 1.1532(9) 0.5396(9)
C84 C -0.1033(11) 1.1384(9) 0.6050(10)
C85 C -0.0475(13) 1.1155(11) 0.6697(12)
C86 C 0.0063(11) 1.1586(10) 0.6949(10)
H67 H 0.0076 1.2022 0.6787
C87 C -0.0431(10) 1.0494(10) 0.6892(9)
H68 H -0.0757 1.0167 0.6667
C88 C -0.2898(10) 1.1593(9) 0.5025(9)
H69 H -0.3317 1.1449 0.5206
C89 C -0.2994(12) 1.1876(10) 0.4390(10)
H70 H -0.3493 1.1951 0.4157
C90 C -0.2427(13) 1.2042(10) 0.4099(10)
H71 H -0.2542 1.2185 0.3649
C91 C -0.1647(12) 1.2020(8) 0.4422(11)
H72 H -0.1245 1.2177 0.4225
C92 C 0.0636(12) 1.1325(12) 0.7499(11)
H73 H 0.1000 1.1634 0.7705
C93 C 0.0150(15) 1.0351(12) 0.7462(13)
H74 H 0.0131 0.9932 0.7662
C94 C -0.2214(11) 1.1084(9) 0.6545(9)
H75 H -0.1996 1.0668 0.6745
H76 H -0.2752 1.1002 0.6354
C95 C -0.2167(10) 1.1597(8) 0.7095(9)
H77 H -0.1630 1.1672 0.7294
H78 H -0.2377 1.2015 0.6895
C96 C -0.2585(11) 1.1405(8) 0.7646(9)
H79 H -0.2555 1.1774 0.7964
H80 H -0.3124 1.1338 0.7447
C97 C -0.1611(10) 1.0714(8) 0.8409(8)
C98 C -0.1443(13) 1.0073(11) 0.8494(11)
C99 C -0.0791(12) 0.9821(10) 0.8919(12)
H81 H -0.0717 0.9365 0.9005
C100 C -0.0238(12) 1.0322(11) 0.9215(11)
H82 H 0.0241 1.0201 0.9465
C101 C -0.0438(11) 1.0961(9) 0.9120(10)
H83 H -0.0095 1.1274 0.9351
C102 C -0.1045(11) 1.1197(10) 0.8748(10)
H84 H -0.1125 1.1656 0.8695
C103 C -0.2550(11) 1.0186(9) 0.7851(9)
C104 C -0.3351(10) 1.0025(9) 0.7445(9)
C105 C -0.4021(10) 1.0264(8) 0.7574(9)
H85 H -0.4007 1.0532 0.7956
C106 C -0.4725(11) 1.0130(8) 0.7169(10)
H86 H -0.5174 1.0291 0.7289
C107 C -0.3368(12) 0.9642(10) 0.6900(10)
H87 H -0.2924 0.9449 0.6801
C108 C -0.4096(13) 0.9542(9) 0.6478(11)
H88 H -0.4110 0.9299 0.6080
N1 N 0.1662(8) 0.8336(8) 0.2974(7)
N2 N 0.0731(8) 0.8667(7) 0.3491(7)
N3 N 0.3197(10) 0.9206(8) 0.5221(9)
N4 N 0.0502(9) 1.0361(7) 0.5523(7)
N5 N 0.0296(8) 0.9260(7) 0.5480(7)
N6 N -0.2112(9) 1.0196(7) 0.3955(8)
N7 N 0.5375(8) 1.0404(7) 0.0655(8)
N8 N 0.5092(8) 0.9319(7) 0.0692(8)
N9 N 0.2723(10) 1.0332(8) -0.0826(9)
N10 N 0.5544(8) 0.8767(7) -0.1233(7)
N11 N 0.6459(8) 0.8428(8) -0.1811(9)
N12 N 0.8186(11) 0.9369(9) 0.0235(10)
N13 N 0.4022(8) 1.1719(7) 0.0679(7)
N14 N 0.3070(8) 1.1406(7) 0.1184(7)
N15 N 0.0363(10) 0.9802(8) 0.1512(10)
N16 N 0.2757(8) 1.0691(7) 0.3151(7)
N17 N 0.5731(10) 1.0758(9) 0.2706(9)
N18 N 0.3018(8) 0.9595(7) 0.3074(8)
N19 N -0.0842(8) 1.1642(7) 0.5535(8)
N20 N -0.1823(9) 1.1268(8) 0.6003(7)
N21 N 0.0715(10) 1.0750(9) 0.7738(10)
N22 N -0.2294(9) 1.0796(7) 0.8023(8)
N23 N -0.2099(10) 0.9720(8) 0.8155(8)
N24 N -0.4760(9) 0.9768(8) 0.6604(9)
O1 O 0.1136(6) 1.2300(6) 0.5290(5)
O2 O 0.1369(7) 1.3272(6) 0.6258(6)
O3 O 0.2019(6) 1.1986(5) 0.6540(5)
O4 O 0.2827(6) 1.2032(5) 0.5474(5)
O5 O 0.2284(5) 1.3243(5) 0.5319(4)
O6 O 0.2212(8) 1.2534(7) 0.4095(6)
O7 O 0.2903(8) 1.3699(7) 0.4255(6)
O8 O 0.3757(6) 1.2544(5) 0.4565(5)
O9 O 0.3897(6) 1.3322(5) 0.5571(5)
O10 O 0.5287(6) 1.2235(5) 0.4674(5)
O11 O 0.4921(6) 1.3545(5) 0.4689(6)
O12 O 0.5445(5) 1.2957(5) 0.5909(5)
O13 O 0.3922(6) 0.6669(6) 0.3811(5)
O14 O 0.4480(6) 1.1978(5) 0.5813(5)
O15 O -0.3816(7) 0.9192(5) 0.3293(7)
O16 O 0.5379(6) 0.7956(5) 0.3018(5)
O17 O 0.3695(6) 0.7660(5) 0.2855(5)
O18 O 0.4837(5) 0.6712(4) 0.2843(4)
O19 O 0.4758(8) 0.7438(7) 0.1639(7)
O20 O 0.5435(7) 0.6242(5) 0.1795(6)
O21 O 0.3698(6) 1.2397(5) 0.7893(5)
O22 O 0.3574(6) 1.1633(5) 0.6839(5)
O23 O 0.3591(6) 1.0777(5) 0.5693(6)
O24 O 0.2952(6) 1.2951(5) 0.6640(5)
O25 O 0.2560(6) 1.1393(5) 0.7791(5)
O26 O 0.2150(6) 1.2707(5) 0.7737(5)
O27 O -0.2590(7) 1.1595(8) 0.2437(7)
O28 O -0.1142(6) 1.2027(5) 0.2961(5)
O29 O 0.0242(8) 1.2481(8) 0.3727(7)
O30 O 0.0203(7) 1.1408(5) 0.2997(7)
O31 O -0.0649(6) 1.3200(5) 0.2605(5)
O32 O 0.0621(6) 1.2567(5) 0.2384(5)
O33 O 0.0745(7) 1.1578(6) 0.1470(6)
O34 O 0.1159(6) 1.2831(6) 0.1257(5)
O35 O -0.0753(6) 1.2140(5) 0.1743(5)
O36 O -0.1326(7) 1.0845(5) 0.2173(6)
O37 O -0.2112(6) 1.2771(5) 0.1902(5)
O38 O -0.0308(6) 1.3364(5) 0.1329(5)
O39 O -0.0316(6) 1.2348(6) 0.0552(6)
O40 O 0.0157(6) 1.3565(5) 0.0044(5)
O41 O -0.1269(6) 1.3035(6) -0.0444(6)
O42 O -0.1735(6) 1.1860(5) -0.0085(5)
O43 O -0.2654(7) 1.2546(7) -0.1239(5)
O44 O -0.2654(7) 1.3666(6) -0.0513(6)
O45 O -0.1089(7) 1.4220(5) 0.0329(6)
O46 O -0.1675(5) 1.2938(5) 0.0750(5)
O47 O -0.3002(6) 1.2494(5) 0.0078(5)
O48 O -0.1518(7) 1.4080(5) 0.1722(6)
O49 O -0.2115(6) 1.1706(5) 0.1166(5)
O50 O -0.3582(7) 1.2261(7) 0.1208(7)
O51 O -0.3177(7) 1.3490(6) 0.1006(6)
O52 O -0.0908(7) 1.1004(5) 0.0793(7)
Mo1 Mo 0.26828(8) 1.21283(7) 0.73958(7)
Mo2 Mo 0.53800(10) 0.69860(9) 0.21767(9)
Mo3 Mo 0.43905(9) 0.72740(8) 0.34380(9)
Mo4 Mo 0.38317(9) 1.33642(7) 0.64912(8)
Mo5 Mo 0.36171(9) 1.15946(7) 0.59499(8)
Mo6 Mo 0.18442(9) 1.26916(8) 0.58928(9)
Mo7 Mo 0.28452(10) 1.29783(9) 0.46489(9)
Mo8 Mo 0.47623(7) 1.28007(7) 0.50413(7)
Mo9 Mo -0.28535(9) 1.27125(9) 0.10203(9)
Mo10 Mo -0.23105(10) 1.28678(9) -0.04598(10)
Mo11 Mo -0.11957(10) 1.32764(8) 0.17652(9)
Mo12 Mo -0.12223(9) 1.18011(7) 0.07317(8)
Mo13 Mo -0.06762(9) 1.34348(8) 0.03421(8)
Mo14 Mo 0.04353(10) 1.23721(9) 0.14729(10)
Mo15 Mo -0.01116(10) 1.21909(9) 0.29462(9)
Mo16 Mo -0.17476(9) 1.16404(9) 0.21578(8)
O53 O 0.5909(7) 1.1536(6) -0.0427(6)
O54 O 0.8147(9) 0.8224(7) -0.2836(7)
Ag3_2 Ag -0.57958(11) 0.95407(9) 0.59051(11)
Ag5_2 Ag 0.16868(12) 1.04371(10) 0.84547(11)
Ag6_2 Ag -0.23252(10) 0.85857(8) 0.80269(10)
Ag7_2 Ag 0.92718(12) 0.96935(10) 0.08341(12)
Ag8_2 Ag 0.67973(11) 1.03858(9) 0.32894(12)
N12_2 N -0.1814(11) 0.9369(9) 0.0235(10)
N17_2 N -0.4269(10) 1.0758(9) 0.2706(9)
N21_2 N 0.0715(10) 1.0750(9) -0.2262(10)
N23_2 N 0.7901(10) 0.9720(8) -0.1845(8)
N24_2 N 0.5240(9) 0.9768(8) 0.6604(9)
O12A O 0.4555(5) 0.7957(5) 0.4091(5)
O14A O 0.5520(6) 0.6978(5) 0.4187(5)
O15A O 0.3816(7) 1.4192(5) 0.6707(7)
O16A O 0.4621(6) 1.2956(5) 0.6982(5)
O21A O 0.6302(6) 0.7397(5) 0.2107(5)
O22A O 0.6426(6) 0.6633(5) 0.3161(5)
Mo2A Mo 0.46200(10) 1.19860(9) 0.78233(9)
Mo3A Mo 0.56095(9) 1.22740(8) 0.65620(9)
Mo4A Mo -0.38317(9) 0.83642(7) 0.35088(8)
Mo4A_2 Mo 0.61683(9) 0.83642(7) 0.35088(8)
O55 O 0.3787(8) 0.8812(7) 0.1826(7)
O56 O 0.1378(8) 1.1144(6) 0.4259(7)
loop_
_geom_bond_atom_site_label_1
_geom_bond_atom_site_label_2
_geom_bond_site_symmetry_1
_geom_bond_site_symmetry_2
Ag1 N1 1_555 1_555
Ag2 N4 1_555 1_555
Ag3 N3 1_555 1_555
Ag4 N7 1_555 1_555
Ag5 N9 1_555 1_555
Ag6 N11 1_555 1_555
Ag7 N15 1_555 1_555
Ag8 N6 1_555 1_555
C1 C2 1_555 1_555
C2 H1 1_555 1_555
C3 C2 1_555 1_555
H2 C3 1_555 1_555
C4 C3 1_555 1_555
H3 C4 1_555 1_555
C5 C4 1_555 1_555
H4 C5 1_555 1_555
C6 C1 1_555 1_555
C7 C8 1_555 1_555
C8 C9 1_555 1_555
C9 H5 1_555 1_555
C10 C9 1_555 1_555
H6 C10 1_555 1_555
C11 H7 1_555 1_555
C12 C8 1_555 1_555
H8 C12 1_555 1_555
C13 H9 1_555 1_555
H10 C13 1_555 1_555
C14 C13 1_555 1_555
H11 C14 1_555 1_555
H12 C14 1_555 1_555
C15 C14 1_555 1_555
H13 C15 1_555 1_555
H14 C15 1_555 1_555
C16 C17 1_555 1_555
C17 C18 1_555 1_555
C18 H15 1_555 1_555
C19 C18 1_555 1_555
H16 C19 1_555 1_555
C20 C19 1_555 1_555
H17 C20 1_555 1_555
C21 C16 1_555 1_555
H18 C21 1_555 1_555
C22 C23 1_555 1_555
C23 C24 1_555 1_555
C24 H19 1_555 1_555
C25 C24 1_555 1_555
H20 C25 1_555 1_555
C26 H21 1_555 1_555
C27 C23 1_555 1_555
H22 C27 1_555 1_555
C28 C29 1_555 1_555
C29 H23 1_555 1_555
C30 C29 1_555 1_555
H24 C30 1_555 1_555
C31 C30 1_555 1_555
H25 C31 1_555 1_555
C32 C31 1_555 1_555
H26 C32 1_555 1_555
C33 C28 1_555 1_555
C34 C35 1_555 1_555
C35 C36 1_555 1_555
C36 H27 1_555 1_555
C37 C36 1_555 1_555
H28 C37 1_555 1_555
C38 H29 1_555 1_555
C39 C35 1_555 1_555
H30 C39 1_555 1_555
C40 H31 1_555 1_555
H32 C40 1_555 1_555
C41 C40 1_555 1_555
H33 C41 1_555 1_555
H34 C41 1_555 1_555
C42 C41 1_555 1_555
H35 C42 1_555 1_555
H36 C42 1_555 1_555
C43 C44 1_555 1_555
C44 C45 1_555 1_555
C45 H37 1_555 1_555
C46 C45 1_555 1_555
H38 C46 1_555 1_555
C47 C48 1_555 1_555
C48 C49 1_555 1_555
C49 H39 1_555 1_555
C50 C48 1_555 1_555
H40 C50 1_555 1_555
C51 C50 1_555 1_555
H41 C51 1_555 1_555
C52 C49 1_555 1_555
H42 C52 1_555 1_555
C53 C46 1_555 1_555
H43 C53 1_555 1_555
C54 C43 1_555 1_555
H44 C54 1_555 1_555
C55 C56 1_555 1_555
C56 C57 1_555 1_555
C57 H45 1_555 1_555
C58 C55 1_555 1_555
H46 C58 1_555 1_555
C59 C58 1_555 1_555
H47 C59 1_555 1_555
C60 C64 1_555 1_555
C61 H48 1_555 1_555
H49 C61 1_555 1_555
C62 C61 1_555 1_555
H50 C62 1_555 1_555
H51 C62 1_555 1_555
C63 C62 1_555 1_555
H52 C63 1_555 1_555
H53 C63 1_555 1_555
C64 C65 1_555 1_555
C65 H54 1_555 1_555
C66 C64 1_555 1_555
H55 C66 1_555 1_555
C67 C68 1_555 1_555
C68 H56 1_555 1_555
C69 C65 1_555 1_555
H57 C69 1_555 1_555
C70 C67 1_555 1_555
C71 C70 1_555 1_555
H58 C71 1_555 1_555
C72 C71 1_555 1_555
H59 C72 1_555 1_555
C73 C68 1_555 1_555
H60 C73 1_555 1_555
C74 C66 1_555 1_555
H61 C74 1_555 1_555
C75 C77 1_555 1_555
C76 H62 1_555 1_555
C77 C76 1_555 1_555
C78 C77 1_555 1_555
H63 C78 1_555 1_555
C79 C57 1_555 1_555
H64 C79 1_555 1_555
C80 C76 1_555 1_555
H65 C80 1_555 1_555
C81 C78 1_555 1_555
H66 C81 1_555 1_555
C82 C83 1_555 1_555
C83 C88 1_555 1_555
C84 C85 1_555 1_555
C85 C86 1_555 1_555
C86 H67 1_555 1_555
C87 C85 1_555 1_555
H68 C87 1_555 1_555
C88 H69 1_555 1_555
C89 C88 1_555 1_555
H70 C89 1_555 1_555
C90 C89 1_555 1_555
H71 C90 1_555 1_555
C91 C82 1_555 1_555
H72 C91 1_555 1_555
C92 C86 1_555 1_555
H73 C92 1_555 1_555
C93 C87 1_555 1_555
H74 C93 1_555 1_555
C94 H75 1_555 1_555
H76 C94 1_555 1_555
C95 C94 1_555 1_555
H77 C95 1_555 1_555
H78 C95 1_555 1_555
C96 C95 1_555 1_555
H79 C96 1_555 1_555
H80 C96 1_555 1_555
C97 C98 1_555 1_555
C98 C99 1_555 1_555
C99 H81 1_555 1_555
C100 C99 1_555 1_555
H82 C100 1_555 1_555
C101 C100 1_555 1_555
H83 C101 1_555 1_555
C102 C97 1_555 1_555
H84 C102 1_555 1_555
C103 C104 1_555 1_555
C104 C105 1_555 1_555
C105 H85 1_555 1_555
C106 C105 1_555 1_555
H86 C106 1_555 1_555
C107 C104 1_555 1_555
H87 C107 1_555 1_555
C108 C107 1_555 1_555
H88 C108 1_555 1_555
N1 C1 1_555 1_555
N2 C6 1_555 1_555
N3 C10 1_555 1_555
N4 C17 1_555 1_555
N5 C15 1_555 1_555
N6 C25 1_555 1_555
N7 C28 1_555 1_555
N8 C33 1_555 1_555
N9 C37 1_555 1_555
N10 C42 1_555 1_555
N11 C44 1_555 1_555
N12 C51 1_555 1_555
N13 Ag4 1_555 1_555
N14 C55 1_555 1_555
N15 C80 1_555 1_555
N16 C63 1_555 1_555
N17 C69 1_555 1_555
N18 Ag1 1_555 1_555
N19 Ag2 1_555 1_555
N20 C83 1_555 1_555
N21 C92 1_555 1_555
N22 C96 1_555 1_555
N23 C98 1_555 1_555
N24 C106 1_555 1_555
O1 Ag2 1_555 1_555
O2 Mo6 1_555 1_555
O3 Mo1 1_555 1_555
O4 Mo5 1_555 1_555
O5 Mo6 1_555 1_555
O6 Mo7 1_555 1_555
O7 Mo7 1_555 1_555
O8 Mo7 1_555 1_555
O9 Mo4 1_555 1_555
O10 Mo8 1_555 1_555
O11 Mo8 1_555 1_555
O12 Mo8 1_555 1_555
O13 Mo3 1_555 1_555
O14 Mo5 1_555 1_555
O15 Ag8 1_555 1_555
O16 Mo2 1_555 1_555
O17 Ag1 1_555 1_555
O18 Mo2 1_555 1_555
O19 Mo2 1_555 1_555
O20 Mo2 1_555 1_555
O21 Mo1 1_555 1_555
O22 Mo1 1_555 1_555
O23 Ag3 1_555 1_555
O24 Mo1 1_555 1_555
O25 Mo1 1_555 1_555
O26 Mo1 1_555 1_555
O27 Mo16 1_555 1_555
O28 Mo15 1_555 1_555
O29 Mo15 1_555 1_555
O30 Mo15 1_555 1_555
O31 Mo11 1_555 1_555
O32 Mo14 1_555 1_555
O33 Mo14 1_555 1_555
O34 Mo14 1_555 1_555
O35 Mo11 1_555 1_555
O36 Mo16 1_555 1_555
O37 Mo9 1_555 1_555
O38 Mo11 1_555 1_555
O39 Mo12 1_555 1_555
O40 Mo13 1_555 1_555
O41 Mo10 1_555 1_555
O42 Mo10 1_555 1_555
O43 Mo10 1_555 1_555
O44 Mo10 1_555 1_555
O45 Mo13 1_555 1_555
O46 Mo9 1_555 1_555
O47 Mo9 1_555 1_555
O48 Mo11 1_555 1_555
O49 Mo9 1_555 1_555
O50 Mo9 1_555 1_555
O51 Mo9 1_555 1_555
O52 Ag7 1_555 1_555
Mo2 O21A 1_555 1_555
Mo3 O16 1_555 1_555
Mo4 O24 1_555 1_555
Mo5 O22 1_555 1_555
Mo6 O1 1_555 1_555
Mo7 O4 1_555 1_555
Mo8 O8 1_555 1_555
Mo10 O46 1_555 1_555
Mo11 O37 1_555 1_555
Mo12 O35 1_555 1_555
Mo13 O38 1_555 1_555
Mo14 O35 1_555 1_555
Mo15 O31 1_555 1_555
Mo16 O28 1_555 1_555
O53 Ag4 1_555 1_555
O54 Ag6 1_555 1_555
Ag3_2 N24 1_555 1_555
Ag5_2 N21 1_555 1_555
Ag6_2 N23 1_555 1_555
Ag7_2 N12 1_555 1_555
Ag8_2 N17 1_555 1_555
N12_2 Ag7 1_555 1_555
N17_2 Ag8 1_555 1_555
N21_2 Ag5 1_555 1_555
N23_2 Ag6 1_555 1_555
N24_2 Ag3 1_555 1_555
O12A Mo3 1_555 1_555
O14A Mo3 1_555 1_555
O15A Mo4 1_555 1_555
O16A Mo4 1_555 1_555
O22A Mo2 1_555 1_555
Mo2A O21 1_555 1_555
Mo3A O12 1_555 1_555
Mo4A O15 1_555 1_555
Mo4A_2 O16 1_555 1_555
C5 C6 1_555 1_555
C7 N1 1_555 1_555
C7 N2 1_555 1_555
C11 C12 1_555 1_555
C11 N3 1_555 1_555
C13 N2 1_555 1_555
C16 N5 1_555 1_555
C20 C21 1_555 1_555
C22 N4 1_555 1_555
C22 N5 1_555 1_555
C26 C27 1_555 1_555
C26 N6 1_555 1_555
C32 C33 1_555 1_555
C34 N7 1_555 1_555
C34 N8 1_555 1_555
C38 C39 1_555 1_555
C38 N9 1_555 1_555
C40 N8 1_555 1_555
C43 N10 1_555 1_555
C47 N10 1_555 1_555
C47 N11 1_555 1_555
C52 N12 1_555 1_555
C53 C54 1_555 1_555
C56 N13 1_555 1_555
C59 C79 1_555 1_555
C60 N13 1_555 1_555
C60 N14 1_555 1_555
C61 N14 1_555 1_555
C67 N18 1_555 1_555
C70 N16 1_555 1_555
C72 C73 1_555 1_555
C74 N17 1_555 1_555
C75 N16 1_555 1_555
C75 N18 1_555 1_555
C81 N15 1_555 1_555
C82 N19 1_555 1_555
C84 N19 1_555 1_555
C84 N20 1_555 1_555
C90 C91 1_555 1_555
C93 N21 1_555 1_555
C94 N20 1_555 1_555
C97 N22 1_555 1_555
C101 C102 1_555 1_555
C103 N22 1_555 1_555
C103 N23 1_555 1_555
C108 N24 1_555 1_555
O3 Mo6 1_555 1_555
O4 Mo6 1_555 1_555
O5 Mo7 1_555 1_555
O9 Mo7 1_555 1_555
O9 Mo8 1_555 1_555
O14 Mo8 1_555 1_555
O14 Mo3A 1_555 1_555
O17 Mo3 1_555 1_555
O18 Mo3 1_555 1_555
O22 Mo2A 1_555 1_555
O23 Mo5 1_555 1_555
O24 Mo6 1_555 1_555
O32 Mo15 1_555 1_555
O35 Mo15 1_555 1_555
O35 Mo16 1_555 1_555
O37 Mo16 1_555 1_555
O38 Mo14 1_555 1_555
O39 Mo13 1_555 1_555
O39 Mo14 1_555 1_555
O41 Mo13 1_555 1_555
O42 Mo12 1_555 1_555
O46 Mo11 1_555 1_555
O46 Mo12 1_555 1_555
O46 Mo13 1_555 1_555
O47 Mo10 1_555 1_555
O49 Mo12 1_555 1_555
O49 Mo16 1_555 1_555
O52 Mo12 1_555 1_555
O16A Mo2A 1_555 1_555
O16A Mo3A 1_555 1_555

#END
