
#######################################################################
#
#                 Cambridge Crystallographic Data Centre
#                                CCDC 
#
#######################################################################
#
# If this CIF has been generated from an entry in the Cambridge 
# Structural Database, then it will include bibliographic, chemical, 
# crystal, experimental, refinement or atomic coordinate data resulting 
# from the CCDC's data processing and validation procedures.
#
#######################################################################

data_YAKKIG
_symmetry_cell_setting           triclinic
_symmetry_space_group_name_H-M   'P -1'
_symmetry_Int_Tables_number      2
_space_group_name_Hall           '-P 1'
loop_
_symmetry_equiv_pos_site_id
_symmetry_equiv_pos_as_xyz
1 x,y,z
2 -x,-y,-z
_cell_length_a                   8.5495(17)
_cell_length_b                   9.6244(19)
_cell_length_c                   10.766(2)
_cell_angle_alpha                85.31(3)
_cell_angle_beta                 76.50(3)
_cell_angle_gamma                72.13(3)
_cell_volume                     819.784
loop_
_atom_site_label
_atom_site_type_symbol
_atom_site_fract_x
_atom_site_fract_y
_atom_site_fract_z
Cu1 Cu 1.40661(7) 0.45197(6) 0.11455(7)
I1 I 1.71306(4) 0.47280(4) 0.09720(4)
N1 N 1.2120(5) 0.5666(4) 0.2524(4)
N2 N 0.9458(4) 0.6563(4) 0.3617(4)
N3 N 0.5732(5) 1.0006(4) 0.1888(4)
N4 N 0.4397(5) 1.2340(4) 0.1518(4)
C1 C 1.2119(5) 0.6248(5) 0.3663(5)
C2 C 1.3465(6) 0.6307(6) 0.4152(5)
H1 H 1.4582 0.5928 0.3695
C3 C 1.3107(7) 0.6942(7) 0.5334(6)
H2 H 1.3994 0.6997 0.5686
C4 C 1.1444(7) 0.7503(8) 0.6011(6)
H3 H 1.1238 0.7919 0.6815
C5 C 1.0092(7) 0.7463(7) 0.5529(5)
H4 H 0.8974 0.7855 0.5980
C6 C 1.0469(6) 0.6818(5) 0.4352(5)
C7 C 1.0516(6) 0.5866(5) 0.2556(5)
H5 H 1.0139 0.5555 0.1905
C8 C 0.7628(6) 0.6850(6) 0.3966(5)
H6 H 0.7289 0.6671 0.4885
H7 H 0.7320 0.6165 0.3514
C9 C 0.6665(6) 0.8399(5) 0.3652(5)
H8 H 0.5455 0.8541 0.3968
H9 H 0.6980 0.9087 0.4095
C10 C 0.7010(6) 0.8726(5) 0.2236(5)
H10 H 0.8116 0.8893 0.1973
H11 H 0.7048 0.7877 0.1773
C11 C 0.4205(6) 1.0014(5) 0.1634(5)
C12 C 0.3529(6) 0.8895(5) 0.1543(5)
H12 H 0.4105 0.7913 0.1681
C13 C 0.1964(7) 0.9302(6) 0.1241(5)
H13 H 0.1450 0.8582 0.1186
C14 C 0.1131(6) 1.0762(6) 0.1017(5)
H14 H 0.0069 1.0995 0.0813
C15 C 0.1808(6) 1.1872(5) 0.1083(5)
H15 H 0.1237 1.2848 0.0920
C16 C 0.3380(6) 1.1487(5) 0.1404(4)
C17 C 0.5755(6) 1.1402(5) 0.1809(5)
H16 H 0.6659 1.1684 0.1949
Cu1A Cu 1.59339(7) 0.54803(6) -0.11455(7)
Cu1_2 Cu 0.40661(7) 1.45197(6) 0.11455(7)
Cu1A_2 Cu 0.59339(7) 1.54803(6) -0.11455(7)
I1A I 1.28694(4) 0.52720(4) -0.09720(4)
N1A N 1.7880(5) 0.4334(4) -0.2524(4)
N1A_2 N 0.7880(5) 1.4334(4) -0.2524(4)
N2A N 1.0542(4) 1.3437(4) -0.3617(4)
N3A N 1.4268(5) 0.9994(4) -0.1888(4)
N4_2 N 1.4397(5) 0.2340(4) 0.1518(4)
N4A N 1.5603(5) 0.7660(4) -0.1518(4)
C1A C 0.7881(5) 1.3752(5) -0.3663(5)
C2A C 0.6535(6) 1.3693(6) -0.4152(5)
H1A H 0.5418 1.4072 -0.3695
C3A C 0.6893(7) 1.3058(7) -0.5334(6)
H2A H 0.6006 1.3003 -0.5686
C4A C 0.8556(7) 1.2497(8) -0.6011(6)
H3A H 0.8762 1.2081 -0.6815
C5A C 0.9908(7) 1.2537(7) -0.5529(5)
H4A H 1.1026 1.2145 -0.5980
C6A C 0.9531(6) 1.3182(5) -0.4352(5)
C7A C 0.9484(6) 1.4134(5) -0.2556(5)
H5A H 0.9861 1.4445 -0.1905
C8A C 1.2372(6) 1.3150(6) -0.3966(5)
H6A H 1.2711 1.3329 -0.4885
H7A H 1.2680 1.3835 -0.3514
C9A C 1.3335(6) 1.1601(5) -0.3652(5)
H8A H 1.4545 1.1459 -0.3968
H9A H 1.3020 1.0913 -0.4095
C10A C 1.2990(6) 1.1274(5) -0.2236(5)
H10A H 1.1884 1.1107 -0.1973
H11A H 1.2952 1.2123 -0.1773
C11A C 1.5795(6) 0.9986(5) -0.1634(5)
C12A C 1.6471(6) 1.1105(5) -0.1543(5)
H12A H 1.5895 1.2087 -0.1681
C13A C 1.8036(7) 1.0698(6) -0.1241(5)
H13A H 1.8550 1.1418 -0.1186
C14A C 1.8869(6) 0.9238(6) -0.1017(5)
H14A H 1.9931 0.9005 -0.0813
C15A C 1.8192(6) 0.8128(5) -0.1083(5)
H15A H 1.8763 0.7152 -0.0920
C16A C 1.6620(6) 0.8513(5) -0.1404(4)
C17A C 1.4245(6) 0.8598(5) -0.1809(5)
H16A H 1.3341 0.8316 -0.1949
loop_
_geom_bond_atom_site_label_1
_geom_bond_atom_site_label_2
_geom_bond_site_symmetry_1
_geom_bond_site_symmetry_2
Cu1 I1 1_555 1_555
I1 Cu1A 1_555 1_555
N1 Cu1 1_555 1_555
N2 C6 1_555 1_555
N3 C10 1_555 1_555
N4 C16 1_555 1_555
C1 N1 1_555 1_555
C2 C1 1_555 1_555
H1 C2 1_555 1_555
C3 C2 1_555 1_555
H2 C3 1_555 1_555
C4 C3 1_555 1_555
H3 C4 1_555 1_555
C5 C4 1_555 1_555
H4 C5 1_555 1_555
C6 C1 1_555 1_555
C7 N1 1_555 1_555
H5 C7 1_555 1_555
C8 N2 1_555 1_555
H6 C8 1_555 1_555
H7 C8 1_555 1_555
C9 C8 1_555 1_555
H8 C9 1_555 1_555
H9 C9 1_555 1_555
C10 C9 1_555 1_555
H10 C10 1_555 1_555
H11 C10 1_555 1_555
C11 N3 1_555 1_555
C12 C11 1_555 1_555
H12 C12 1_555 1_555
C13 C12 1_555 1_555
H13 C13 1_555 1_555
C14 C13 1_555 1_555
H14 C14 1_555 1_555
C15 C14 1_555 1_555
H15 C15 1_555 1_555
C16 C11 1_555 1_555
C17 N3 1_555 1_555
H16 C17 1_555 1_555
Cu1A I1A 1_555 1_555
Cu1_2 N4 1_555 1_555
Cu1A_2 N1A_2 1_555 1_555
I1A Cu1 1_555 1_555
N1A Cu1A 1_555 1_555
N1A_2 C1A 1_555 1_555
N2A C6A 1_555 1_555
N3A C10A 1_555 1_555
N4_2 Cu1 1_555 1_555
N4A Cu1A 1_555 1_555
C1A C2A 1_555 1_555
C2A H1A 1_555 1_555
C3A C2A 1_555 1_555
H2A C3A 1_555 1_555
C4A C3A 1_555 1_555
H3A C4A 1_555 1_555
C5A C4A 1_555 1_555
H4A C5A 1_555 1_555
C6A C1A 1_555 1_555
C7A N1A_2 1_555 1_555
H5A C7A 1_555 1_555
C8A N2A 1_555 1_555
H6A C8A 1_555 1_555
H7A C8A 1_555 1_555
C9A C8A 1_555 1_555
H8A C9A 1_555 1_555
H9A C9A 1_555 1_555
C10A C9A 1_555 1_555
H10A C10A 1_555 1_555
H11A C10A 1_555 1_555
C11A N3A 1_555 1_555
C12A C11A 1_555 1_555
H12A C12A 1_555 1_555
C13A C12A 1_555 1_555
H13A C13A 1_555 1_555
C14A C13A 1_555 1_555
H14A C14A 1_555 1_555
C15A C14A 1_555 1_555
H15A C15A 1_555 1_555
C16A N4A 1_555 1_555
C17A N3A 1_555 1_555
H16A C17A 1_555 1_555
N2 C7 1_555 1_555
N4 C17 1_555 1_555
C5 C6 1_555 1_555
C15 C16 1_555 1_555
N2A C7A 1_555 1_555
N4A C17A 1_555 1_555
C5A C6A 1_555 1_555
C11A C16A 1_555 1_555
C15A C16A 1_555 1_555

#END
