
#######################################################################
#
#                 Cambridge Crystallographic Data Centre
#                                CCDC 
#
#######################################################################
#
# If this CIF has been generated from an entry in the Cambridge 
# Structural Database, then it will include bibliographic, chemical, 
# crystal, experimental, refinement or atomic coordinate data resulting 
# from the CCDC's data processing and validation procedures.
#
#######################################################################

data_YAKKIE
_symmetry_cell_setting           monoclinic
_symmetry_space_group_name_H-M   'P 21/n'
_symmetry_Int_Tables_number      14
_space_group_name_Hall           '-P 2yn'
loop_
_symmetry_equiv_pos_site_id
_symmetry_equiv_pos_as_xyz
1 x,y,z
2 1/2-x,1/2+y,1/2-z
3 -x,-y,-z
4 1/2+x,1/2-y,1/2+z
_cell_length_a                   13.119(3)
_cell_length_b                   11.390(4)
_cell_length_c                   15.233(4)
_cell_angle_alpha                90
_cell_angle_beta                 109.39(2)
_cell_angle_gamma                90
_cell_volume                     2147.09
loop_
_atom_site_label
_atom_site_type_symbol
_atom_site_fract_x
_atom_site_fract_y
_atom_site_fract_z
Rb1 Rb 0.3876(1) 0.0359(1) 0.1639(1)
Cr1 Cr 0.2375(1) -0.2692(1) 0.0139(1)
N1 N 0.3588(4) 0.1039(5) 0.4696(4)
N2 N 0.3485(4) 0.0428(5) 0.4037(4)
N3 N 0.3410(5) -0.0187(6) 0.3422(5)
N4 N 0.2335(4) -0.3358(5) -0.1094(4)
N5 N 0.1575(5) -0.3762(5) -0.1678(4)
N6 N 0.0866(5) -0.4157(6) -0.2265(4)
N7 N 0.2465(4) -0.1923(5) 0.1353(3)
N8 N 0.1937(4) -0.2219(5) 0.1817(4)
N9 N 0.1465(4) -0.2463(5) 0.2298(4)
N10 N 0.3345(4) -0.1388(5) 0.0006(4)
N11 N 0.3856(4) -0.1384(5) -0.0502(4)
N12 N 0.4378(5) -0.1340(7) -0.0974(5)
N13 N 0.0998(4) -0.1711(5) -0.0551(3)
C1 C 0.1043(5) -0.0558(6) -0.0611(5)
C2 C 0.0181(5) 0.0101(7) -0.1131(5)
C3 C -0.0770(5) -0.0428(7) -0.1611(5)
C4 C -0.0826(5) -0.1618(7) -0.1545(5)
C5 C 0.0063(5) -0.2234(6) -0.1004(4)
N14 N 0.3733(4) -0.3720(5) 0.0773(4)
C6 C 0.3739(6) -0.4837(6) 0.0556(6)
C7 C 0.4620(7) -0.5560(7) 0.0939(6)
C8 C 0.5535(7) -0.5061(9) 0.1561(7)
C9 C 0.5541(6) -0.3904(8) 0.1800(6)
C10 C 0.4625(5) -0.3268(7) 0.1389(5)
N15 N 0.2787(5) 0.1907(6) -0.0014(5)
C11 C 0.2070(7) 0.2693(8) -0.0024(6)
C12 C 0.1424(7) 0.3251(8) -0.0803(8)
C13 C 0.1563(7) 0.2988(9) -0.1624(7)
C14 C 0.2302(7) 0.2188(8) -0.1624(6)
C15 C 0.2905(6) 0.1675(8) -0.0813(7)
H1 H 0.1789(5) -0.0116(6) -0.0235(5)
H2 H 0.0256(5) 0.1043(7) -0.1161(5)
H3 H -0.1458(5) 0.0075(7) -0.2029(5)
H4 H -0.1563(5) -0.2076(7) -0.1918(5)
H5 H -0.0002(5) -0.3173(6) -0.0942(4)
H6 H 0.3022(6) -0.5206(6) 0.0057(6)
H7 H 0.4595(7) -0.6479(7) 0.0758(6)
H8 H 0.6251(7) -0.5588(9) 0.1860(7)
H9 H 0.6245(6) -0.3507(8) 0.2298(6)
H10 H 0.4620(5) -0.2353(7) 0.1573(5)
H11 H 0.1089(7) 0.3421(9) -0.2259(7)
H12 H 0.1979(7) 0.2925(8) 0.0633(6)
H13 H 0.2420(7) 0.1946(8) -0.2269(6)
H14 H 0.0819(7) 0.3875(8) -0.0767(8)
H15 H 0.3516(6) 0.1048(8) -0.0830(7)
Cr1A Cr 0.2625(1) 0.2308(1) 0.4861(1)
N9A N 0.3535(4) 0.2537(5) 0.2702(4)
N12B N 0.5622(5) 0.1340(7) 0.0974(5)
N1A N 0.1412(4) -0.3961(5) 0.0304(4)
Rb1A Rb 0.1124(1) -0.4641(1) 0.3361(1)
Rb1B Rb 0.6124(1) -0.0359(1) -0.1639(1)
N6C N 0.5866(5) -0.0843(6) 0.2735(4)
Rb1C Rb -0.1124(1) -0.5359(1) -0.3361(1)
loop_
_geom_bond_atom_site_label_1
_geom_bond_atom_site_label_2
_geom_bond_site_symmetry_1
_geom_bond_site_symmetry_2
Rb1 N3 1_555 1_555
Cr1 N4 1_555 1_555
N1 N2 1_555 1_555
N2 N3 1_555 1_555
N4 N5 1_555 1_555
N5 N6 1_555 1_555
N6 Rb1C 1_555 1_555
N7 Rb1 1_555 1_555
N8 N7 1_555 1_555
N9 N8 1_555 1_555
N10 Rb1 1_555 1_555
N11 N10 1_555 1_555
N12 N11 1_555 1_555
N13 Cr1 1_555 1_555
C1 N13 1_555 1_555
C2 C1 1_555 1_555
C3 C2 1_555 1_555
C4 C3 1_555 1_555
C5 N13 1_555 1_555
N14 Cr1 1_555 1_555
C6 N14 1_555 1_555
C7 C6 1_555 1_555
C8 C7 1_555 1_555
C9 C8 1_555 1_555
C10 N14 1_555 1_555
N15 Rb1 1_555 1_555
C11 N15 1_555 1_555
C12 C11 1_555 1_555
C13 C12 1_555 1_555
C14 C13 1_555 1_555
C15 N15 1_555 1_555
H1 C1 1_555 1_555
H2 C2 1_555 1_555
H3 C3 1_555 1_555
H4 C4 1_555 1_555
H5 C5 1_555 1_555
H6 C6 1_555 1_555
H7 C7 1_555 1_555
H8 C8 1_555 1_555
H9 C9 1_555 1_555
H10 C10 1_555 1_555
H11 C13 1_555 1_555
H12 C11 1_555 1_555
H13 C14 1_555 1_555
H14 C12 1_555 1_555
H15 C15 1_555 1_555
Cr1A N1 1_555 1_555
N9A Rb1 1_555 1_555
N12B Rb1 1_555 1_555
N1A Cr1 1_555 1_555
Rb1A N9 1_555 1_555
Rb1B N12 1_555 1_555
N6C Rb1 1_555 1_555
Cr1 N7 1_555 1_555
Cr1 N10 1_555 1_555
C4 C5 1_555 1_555
C9 C10 1_555 1_555
C14 C15 1_555 1_555

#END
