
#######################################################################
#
#                 Cambridge Crystallographic Data Centre
#                                CCDC 
#
#######################################################################
#
# If this CIF has been generated from an entry in the Cambridge 
# Structural Database, then it will include bibliographic, chemical, 
# crystal, experimental, refinement or atomic coordinate data resulting 
# from the CCDC's data processing and validation procedures.
#
#######################################################################

data_YAKKEC
_symmetry_cell_setting           monoclinic
_symmetry_space_group_name_H-M   'P 21/n'
_symmetry_Int_Tables_number      14
_space_group_name_Hall           '-P 2yn'
loop_
_symmetry_equiv_pos_site_id
_symmetry_equiv_pos_as_xyz
1 x,y,z
2 1/2-x,1/2+y,1/2-z
3 -x,-y,-z
4 1/2+x,1/2-y,1/2+z
_cell_length_a                   10.650(2)
_cell_length_b                   10.762(2)
_cell_length_c                   15.577(3)
_cell_angle_alpha                90
_cell_angle_beta                 92.32(3)
_cell_angle_gamma                90
_cell_volume                     1783.9
loop_
_atom_site_label
_atom_site_type_symbol
_atom_site_fract_x
_atom_site_fract_y
_atom_site_fract_z
Cu1 Cu 0.89099(8) 0.08124(6) 0.05548(5)
I1 I 0.83345(4) -0.09205(3) -0.05410(2)
N1 N 0.8546(4) 0.2607(4) 0.0258(3)
N2 N 0.8600(4) 0.4672(4) 0.0413(3)
N3 N 0.6944(4) 0.5796(4) 0.1822(3)
N4 N 0.6426(5) 0.5482(4) 0.3187(3)
C1 C 0.8046(5) 0.3138(5) -0.0487(3)
C2 C 0.7543(6) 0.2627(6) -0.1238(4)
H1 H 0.7505 0.1760 -0.1309
C3 C 0.7096(6) 0.3413(6) -0.1883(4)
H2 H 0.6734 0.3075 -0.2391
C4 C 0.7175(6) 0.4709(7) -0.1789(4)
H3 H 0.6887 0.5217 -0.2246
C5 C 0.7651(6) 0.5252(6) -0.1060(4)
H4 H 0.7697 0.6120 -0.0998
C6 C 0.8067(5) 0.4446(5) -0.0410(4)
C7 C 0.8864(5) 0.3545(5) 0.0763(4)
H5 H 0.9239 0.3443 0.1315
C8 C 0.8733(5) 0.5871(5) 0.0836(4)
H6 H 0.9135 0.6453 0.0448
H7 H 0.9287 0.5778 0.1350
C9 C 0.7483(6) 0.6415(5) 0.1095(4)
H8 H 0.7605 0.7295 0.1237
H9 H 0.6883 0.6367 0.0602
C10 C 0.6253(5) 0.4701(5) 0.1826(4)
C11 C 0.5867(6) 0.3899(5) 0.1169(4)
H10 H 0.6059 0.4041 0.0594
C12 C 0.5175(6) 0.2870(6) 0.1417(4)
H11 H 0.4895 0.2300 0.0994
C13 C 0.4882(6) 0.2655(6) 0.2276(4)
H12 H 0.4423 0.1943 0.2417
C14 C 0.5260(5) 0.3479(5) 0.2914(4)
H13 H 0.5049 0.3349 0.3487
C15 C 0.5958(5) 0.4501(5) 0.2686(3)
C16 C 0.7000(6) 0.6204(5) 0.2653(4)
H14 H 0.7414 0.6939 0.2826
Cu1B Cu 1.10901(8) -0.08124(6) -0.05548(5)
Cu1A Cu 0.60901(8) 0.58124(6) 0.44452(5)
Cu1C Cu 1.39099(8) -0.58124(6) -0.44452(5)
I1B I 1.16655(4) 0.09205(3) 0.05410(2)
N1B N 1.1454(4) -0.2607(4) -0.0258(3)
N2B N 1.1400(4) -0.4672(4) -0.0413(3)
N3B N 1.3056(4) -0.5796(4) -0.1822(3)
N4B N 1.3574(5) -0.5482(4) -0.3187(3)
N4A N 0.8574(5) 0.0482(4) 0.1813(3)
N4C N 1.1426(5) -0.0482(4) -0.1813(3)
C1B C 1.1954(5) -0.3138(5) 0.0487(3)
C2B C 1.2457(6) -0.2627(6) 0.1238(4)
H1B H 1.2495 -0.1760 0.1309
C3B C 1.2904(6) -0.3413(6) 0.1883(4)
H2B H 1.3266 -0.3075 0.2391
C4B C 1.2825(6) -0.4709(7) 0.1789(4)
H3B H 1.3113 -0.5217 0.2246
C5B C 1.2349(6) -0.5252(6) 0.1060(4)
H4B H 1.2303 -0.6120 0.0998
C6B C 1.1933(5) -0.4446(5) 0.0410(4)
C7B C 1.1136(5) -0.3545(5) -0.0763(4)
H5B H 1.0761 -0.3443 -0.1315
C8B C 1.1267(5) -0.5871(5) -0.0836(4)
H6B H 1.0865 -0.6453 -0.0448
H7B H 1.0713 -0.5778 -0.1350
C9B C 1.2517(6) -0.6415(5) -0.1095(4)
H8B H 1.2395 -0.7295 -0.1237
H9B H 1.3117 -0.6367 -0.0602
C10B C 1.3747(5) -0.4701(5) -0.1826(4)
C11B C 1.4133(6) -0.3899(5) -0.1169(4)
H10B H 1.3941 -0.4041 -0.0594
C12B C 1.4825(6) -0.2870(6) -0.1417(4)
H11B H 1.5105 -0.2300 -0.0994
C13B C 1.5118(6) -0.2655(6) -0.2276(4)
H12B H 1.5577 -0.1943 -0.2417
C14B C 1.4740(5) -0.3479(5) -0.2914(4)
H13B H 1.4951 -0.3349 -0.3487
C15B C 1.4042(5) -0.4501(5) -0.2686(3)
C16B C 1.3000(6) -0.6204(5) -0.2653(4)
H14B H 1.2586 -0.6939 -0.2826
N5 N 1.0441(11) -0.4219(10) 0.7259(6)
C17 C 1.0261(9) -0.4063(8) 0.6569(6)
C18 C 1.0045(11) -0.3718(16) 0.5670(7)
loop_
_geom_bond_atom_site_label_1
_geom_bond_atom_site_label_2
_geom_bond_site_symmetry_1
_geom_bond_site_symmetry_2
Cu1 I1 1_555 1_555
I1 Cu1B 1_555 1_555
N1 Cu1 1_555 1_555
N2 C6 1_555 1_555
N3 C9 1_555 1_555
N4 C15 1_555 1_555
N5 C17 1_555 1_555
C1 N1 1_555 1_555
C2 C1 1_555 1_555
H1 C2 1_555 1_555
C3 C2 1_555 1_555
H2 C3 1_555 1_555
C4 C3 1_555 1_555
H3 C4 1_555 1_555
C5 C4 1_555 1_555
H4 C5 1_555 1_555
C6 C1 1_555 1_555
C7 N1 1_555 1_555
H5 C7 1_555 1_555
C8 N2 1_555 1_555
H6 C8 1_555 1_555
H7 C8 1_555 1_555
C9 C8 1_555 1_555
H8 C9 1_555 1_555
H9 C9 1_555 1_555
C10 N3 1_555 1_555
C11 C10 1_555 1_555
H10 C11 1_555 1_555
C12 C11 1_555 1_555
H11 C12 1_555 1_555
C13 C12 1_555 1_555
H12 C13 1_555 1_555
C14 C13 1_555 1_555
H13 C14 1_555 1_555
C15 C10 1_555 1_555
C16 N3 1_555 1_555
H14 C16 1_555 1_555
C17 C18 1_555 1_555
Cu1B I1B 1_555 1_555
Cu1A N4 1_555 1_555
Cu1C N4B 1_555 1_555
I1B Cu1 1_555 1_555
N1B Cu1B 1_555 1_555
N2B C6B 1_555 1_555
N3B C9B 1_555 1_555
N4B C15B 1_555 1_555
N4A Cu1 1_555 1_555
N4C Cu1B 1_555 1_555
C1B N1B 1_555 1_555
C2B C1B 1_555 1_555
H1B C2B 1_555 1_555
C3B C2B 1_555 1_555
H2B C3B 1_555 1_555
C4B C3B 1_555 1_555
H3B C4B 1_555 1_555
C5B C4B 1_555 1_555
H4B C5B 1_555 1_555
C6B C1B 1_555 1_555
C7B N1B 1_555 1_555
H5B C7B 1_555 1_555
C8B N2B 1_555 1_555
H6B C8B 1_555 1_555
H7B C8B 1_555 1_555
C9B C8B 1_555 1_555
H8B C9B 1_555 1_555
H9B C9B 1_555 1_555
C10B N3B 1_555 1_555
C11B C10B 1_555 1_555
H10B C11B 1_555 1_555
C12B C11B 1_555 1_555
H11B C12B 1_555 1_555
C13B C12B 1_555 1_555
H12B C13B 1_555 1_555
C14B C13B 1_555 1_555
H13B C14B 1_555 1_555
C15B C10B 1_555 1_555
C16B N3B 1_555 1_555
H14B C16B 1_555 1_555
N2 C7 1_555 1_555
N4 C16 1_555 1_555
C5 C6 1_555 1_555
C14 C15 1_555 1_555
N2B C7B 1_555 1_555
N4B C16B 1_555 1_555
C5B C6B 1_555 1_555
C14B C15B 1_555 1_555

#END
