
#######################################################################
#
#                 Cambridge Crystallographic Data Centre
#                                CCDC 
#
#######################################################################
#
# If this CIF has been generated from an entry in the Cambridge 
# Structural Database, then it will include bibliographic, chemical, 
# crystal, experimental, refinement or atomic coordinate data resulting 
# from the CCDC's data processing and validation procedures.
#
#######################################################################

data_YAKKAY
_symmetry_cell_setting           triclinic
_symmetry_space_group_name_H-M   'P -1'
_symmetry_Int_Tables_number      2
_space_group_name_Hall           '-P 1'
loop_
_symmetry_equiv_pos_site_id
_symmetry_equiv_pos_as_xyz
1 x,y,z
2 -x,-y,-z
_cell_length_a                   8.5043(17)
_cell_length_b                   12.766(3)
_cell_length_c                   13.706(3)
_cell_angle_alpha                82.92(3)
_cell_angle_beta                 86.85(3)
_cell_angle_gamma                79.15(3)
_cell_volume                     1449.49
loop_
_atom_site_label
_atom_site_type_symbol
_atom_site_fract_x
_atom_site_fract_y
_atom_site_fract_z
Cu1 Cu -0.06755(9) 0.46841(5) 0.81464(5)
Cu2 Cu 0.44406(9) -0.03844(6) 0.32276(5)
I1 I -0.10260(5) 0.67366(3) 0.80242(3)
I2 I 0.42582(5) -0.23611(3) 0.31393(3)
N1 N 0.0338(5) 0.3976(3) 0.7011(3)
N2 N 0.0481(6) 0.3005(4) 0.5752(3)
N3 N 0.1235(6) 0.1317(4) 0.5051(3)
N4 N 0.3182(6) 0.0198(3) 0.4336(3)
N5 N -0.1871(6) 0.3987(3) 0.9246(3)
N6 N -0.3669(6) 0.3031(3) 0.9910(3)
N7 N -0.4397(6) 0.1346(4) 1.0653(3)
N8 N -0.4560(6) 0.0220(3) 1.2020(3)
C1 C 0.1304(6) 0.4385(4) 0.6250(4)
C2 C 0.2069(6) 0.5275(4) 0.6190(4)
H1 H 0.2020 0.5690 0.6716
C3 C 0.2889(7) 0.5511(5) 0.5330(4)
H2 H 0.3424 0.6097 0.5269
C4 C 0.2959(7) 0.4907(5) 0.4536(4)
H3 H 0.3524 0.5108 0.3955
C5 C 0.2229(7) 0.4037(5) 0.4583(4)
H4 H 0.2284 0.3626 0.4054
C6 C 0.1396(7) 0.3790(4) 0.5462(4)
C7 C -0.0104(7) 0.3167(4) 0.6671(4)
H5 H -0.0768 0.2737 0.7031
C8 C 0.0027(7) 0.2258(5) 0.5148(4)
H6 H -0.0954 0.2031 0.5434
H7 H -0.0217 0.2633 0.4490
C9 C 0.1536(7) 0.0365(5) 0.5701(4)
C10 C 0.0790(8) 0.0062(5) 0.6593(4)
H8 H -0.0041 0.0529 0.6884
C11 C 0.1338(9) -0.0950(6) 0.7017(4)
H9 H 0.0867 -0.1191 0.7619
C12 C 0.2582(9) -0.1647(5) 0.6589(4)
H10 H 0.2924 -0.2339 0.6913
C13 C 0.3312(7) -0.1348(4) 0.5713(4)
H11 H 0.4156 -0.1814 0.5431
C14 C 0.2741(7) -0.0309(5) 0.5255(4)
C15 C 0.2257(7) 0.1157(5) 0.4264(4)
H12 H 0.2303 0.1679 0.3721
C16 C -0.2532(6) 0.4409(4) 1.0103(4)
C17 C -0.2232(7) 0.5289(4) 1.0519(4)
H13 H -0.1459 0.5688 1.0245
C18 C -0.3133(7) 0.5546(5) 1.1357(4)
H14 H -0.2957 0.6132 1.1661
C19 C -0.4294(7) 0.4964(5) 1.1768(4)
H15 H -0.4896 0.5180 1.2328
C20 C -0.4575(7) 0.4080(5) 1.1367(4)
H16 H -0.5337 0.3675 1.1647
C21 C -0.3666(6) 0.3822(4) 1.0526(4)
C22 C -0.2590(7) 0.3185(4) 0.9168(4)
H17 H -0.2379 0.2757 0.8649
C23 C -0.4821(7) 0.2304(4) 0.9961(4)
H18 H -0.5878 0.2690 1.0153
H19 H -0.4897 0.2089 0.9306
C24 C -0.3317(7) 0.0408(4) 1.0506(4)
C25 C -0.2354(7) 0.0113(5) 0.9707(4)
H20 H -0.2316 0.0581 0.9124
C26 C -0.1449(8) -0.0906(5) 0.9811(6)
H21 H -0.0776 -0.1142 0.9284
C27 C -0.1504(8) -0.1605(5) 1.0686(5)
H22 H -0.0855 -0.2291 1.0737
C28 C -0.2492(7) -0.1298(4) 1.1465(5)
H23 H -0.2537 -0.1767 1.2047
C29 C -0.3422(7) -0.0280(4) 1.1373(4)
C30 C -0.5084(7) 0.1180(4) 1.1560(4)
H24 H -0.5859 0.1699 1.1834
Cu2_2 Cu -0.55594(9) -0.03844(6) 1.32276(5)
N8_2 N 0.5440(6) 0.0220(3) 0.2020(3)
loop_
_geom_bond_atom_site_label_1
_geom_bond_atom_site_label_2
_geom_bond_site_symmetry_1
_geom_bond_site_symmetry_2
Cu1 I1 1_555 1_555
Cu2 I2 1_555 1_555
N1 Cu1 1_555 1_555
N2 C6 1_555 1_555
N3 C8 1_555 1_555
N4 Cu2 1_555 1_555
N5 Cu1 1_555 1_555
N6 C21 1_555 1_555
N7 C23 1_555 1_555
N8 C29 1_555 1_555
C1 N1 1_555 1_555
C2 C1 1_555 1_555
H1 C2 1_555 1_555
C3 C2 1_555 1_555
H2 C3 1_555 1_555
C4 C3 1_555 1_555
H3 C4 1_555 1_555
C5 C4 1_555 1_555
H4 C5 1_555 1_555
C6 C1 1_555 1_555
C7 N1 1_555 1_555
H5 C7 1_555 1_555
C8 N2 1_555 1_555
H6 C8 1_555 1_555
H7 C8 1_555 1_555
C9 N3 1_555 1_555
C10 C9 1_555 1_555
H8 C10 1_555 1_555
C11 C10 1_555 1_555
H9 C11 1_555 1_555
C12 C11 1_555 1_555
H10 C12 1_555 1_555
C13 C12 1_555 1_555
H11 C13 1_555 1_555
C14 N4 1_555 1_555
C15 N3 1_555 1_555
H12 C15 1_555 1_555
C16 N5 1_555 1_555
C17 C16 1_555 1_555
H13 C17 1_555 1_555
C18 C17 1_555 1_555
H14 C18 1_555 1_555
C19 C18 1_555 1_555
H15 C19 1_555 1_555
C20 C19 1_555 1_555
H16 C20 1_555 1_555
C21 C16 1_555 1_555
C22 N5 1_555 1_555
H17 C22 1_555 1_555
C23 N6 1_555 1_555
H18 C23 1_555 1_555
H19 C23 1_555 1_555
C24 N7 1_555 1_555
C25 C24 1_555 1_555
H20 C25 1_555 1_555
C26 C25 1_555 1_555
H21 C26 1_555 1_555
C27 C26 1_555 1_555
H22 C27 1_555 1_555
C28 C27 1_555 1_555
H23 C28 1_555 1_555
C29 C24 1_555 1_555
C30 N7 1_555 1_555
H24 C30 1_555 1_555
Cu2_2 N8 1_555 1_555
N8_2 Cu2 1_555 1_555
N2 C7 1_555 1_555
N4 C15 1_555 1_555
N6 C22 1_555 1_555
N8 C30 1_555 1_555
C5 C6 1_555 1_555
C9 C14 1_555 1_555
C13 C14 1_555 1_555
C20 C21 1_555 1_555
C28 C29 1_555 1_555

#END
