
#######################################################################
#
#                 Cambridge Crystallographic Data Centre
#                                CCDC 
#
#######################################################################
#
# If this CIF has been generated from an entry in the Cambridge 
# Structural Database, then it will include bibliographic, chemical, 
# crystal, experimental, refinement or atomic coordinate data resulting 
# from the CCDC's data processing and validation procedures.
#
#######################################################################

data_YAKKOK
_symmetry_cell_setting           monoclinic
_symmetry_space_group_name_H-M   'C 2/c'
_symmetry_Int_Tables_number      15
_space_group_name_Hall           '-C 2yn'
loop_
_symmetry_equiv_pos_site_id
_symmetry_equiv_pos_as_xyz
1 x,y,z
2 1/2+x,1/2+y,z
3 -x,y,1/2-z
4 1/2-x,1/2+y,1/2-z
5 -x,-y,-z
6 1/2-x,1/2-y,-z
7 x,-y,1/2+z
8 1/2+x,1/2-y,1/2+z
_cell_length_a                   16.112(5)
_cell_length_b                   10.506(3)
_cell_length_c                   16.090(5)
_cell_angle_alpha                90
_cell_angle_beta                 91.69(3)
_cell_angle_gamma                90
_cell_volume                     2722.41
loop_
_atom_site_label
_atom_site_type_symbol
_atom_site_fract_x
_atom_site_fract_y
_atom_site_fract_z
Cr1 Cr 0.2500 0.2500 0.0000
K1 K 0.0000 -0.0187(2) -0.2500
N1 N 0.1619(3) 0.1130(4) -0.0276(3)
N2 N 0.1480(3) 0.0582(4) -0.0913(3)
N3 N 0.1317(3) 0.0001(5) -0.1532(3)
N4 N 0.3183(3) 0.1936(4) -0.1013(3)
N5 N 0.3772(3) 0.2522(4) -0.1313(2)
N6 N -0.0654(3) -0.1949(4) -0.1624(3)
N7 N 0.1839(2) 0.3868(3) -0.0745(2)
C1 C 0.2244(3) 0.4686(5) -0.1267(3)
C2 C 0.1825(4) 0.5622(5) -0.1752(3)
C3 C 0.0957(4) 0.5744(6) -0.1695(3)
C4 C 0.0523(3) 0.4908(5) -0.1169(3)
C5 C 0.0980(3) 0.3983(5) -0.0712(3)
N8 N -0.0685(3) 0.1510(4) -0.1611(3)
C6 C -0.0693(3) 0.1406(5) -0.0771(3)
C7 C -0.1148(4) 0.2241(5) -0.0257(3)
C8 C -0.1625(3) 0.3214(6) -0.0617(4)
C9 C -0.1623(3) 0.3336(5) -0.1478(4)
C10 C -0.1149(3) 0.2477(6) -0.1946(3)
H1 H 0.2910(3) 0.4607(5) -0.1307(3)
H2 H 0.2165(4) 0.6234(5) -0.2160(3)
H3 H 0.0627(4) 0.6467(6) -0.2049(3)
H4 H -0.0142(3) 0.4983(5) -0.1118(3)
H5 H 0.0648(3) 0.3333(5) -0.0322(3)
H6 H -0.0338(3) 0.0651(5) -0.0477(3)
H7 H -0.1124(4) 0.2122(5) 0.0410(3)
H8 H -0.1985(3) 0.3849(6) -0.0242(4)
H9 H -0.1976(3) 0.4083(5) -0.1785(4)
H10 H -0.1159(3) 0.2593(6) -0.2613(3)
N1E N 0.3381(3) 0.3870(4) 0.0276(3)
N4E N 0.1817(3) 0.3064(4) 0.1013(3)
N7E N 0.3161(2) 0.1132(3) 0.0745(2)
N3B N -0.1317(3) 0.0001(5) -0.3468(3)
N6B N 0.0654(3) -0.1949(4) -0.3376(3)
N8B N 0.0685(3) 0.1510(4) -0.3389(3)
N6A N 0.4346(3) 0.3051(4) -0.1624(3)
N5A N -0.1228(3) -0.2478(4) -0.1313(2)
C1E C 0.2756(3) 0.0314(5) 0.1267(3)
C5E C 0.4020(3) 0.1017(5) 0.0712(3)
N2B N -0.1480(3) 0.0582(4) -0.4087(3)
C6B C 0.0693(3) 0.1406(5) -0.4229(3)
C10B C 0.1149(3) 0.2477(6) -0.3054(3)
K1A K 0.5000 0.4813(2) -0.2500
N4A N -0.1817(3) -0.3064(4) -0.1013(3)
C2E C 0.3175(4) -0.0622(5) 0.1752(3)
H1E H 0.2090(3) 0.0393(5) 0.1307(3)
C4E C 0.4477(3) 0.0092(5) 0.1169(3)
H5E H 0.4352(3) 0.1667(5) 0.0322(3)
N1B N -0.1619(3) 0.1130(4) -0.4724(3)
C7B C 0.1148(4) 0.2241(5) -0.4743(3)
H6B H 0.0338(3) 0.0651(5) -0.4523(3)
C9B C 0.1623(3) 0.3336(5) -0.3522(4)
H10B H 0.1159(3) 0.2593(6) -0.2387(3)
Cr1D Cr -0.2500 -0.2500 0.0000
C3E C 0.4043(4) -0.0744(6) 0.1695(3)
H2E H 0.2835(4) -0.1234(5) 0.2160(3)
H4E H 0.5142(3) 0.0017(5) 0.1118(3)
Cr1B Cr -0.2500 0.2500 -0.5000
C8B C 0.1625(3) 0.3214(6) -0.4383(4)
H7B H 0.1124(4) 0.2122(5) -0.5410(3)
H9B H 0.1976(3) 0.4083(5) -0.3215(4)
H3E H 0.4373(4) -0.1467(6) 0.2049(3)
H8B H 0.1985(3) 0.3849(6) -0.4758(4)
loop_
_geom_bond_atom_site_label_1
_geom_bond_atom_site_label_2
_geom_bond_site_symmetry_1
_geom_bond_site_symmetry_2
Cr1 N1 1_555 1_555
K1 N3 1_555 1_555
N1 N2 1_555 1_555
N2 N3 1_555 1_555
N4 Cr1 1_555 1_555
N5 N4 1_555 1_555
N6 K1 1_555 1_555
N7 Cr1 1_555 1_555
C1 N7 1_555 1_555
C2 C1 1_555 1_555
C3 C2 1_555 1_555
C4 C3 1_555 1_555
C5 N7 1_555 1_555
N8 K1 1_555 1_555
C6 N8 1_555 1_555
C7 C6 1_555 1_555
C8 C7 1_555 1_555
C9 C8 1_555 1_555
C10 N8 1_555 1_555
H1 C1 1_555 1_555
H2 C2 1_555 1_555
H3 C3 1_555 1_555
H4 C4 1_555 1_555
H5 C5 1_555 1_555
H6 C6 1_555 1_555
H7 C7 1_555 1_555
H8 C8 1_555 1_555
H9 C9 1_555 1_555
H10 C10 1_555 1_555
N1E Cr1 1_555 1_555
N4E Cr1 1_555 1_555
N7E Cr1 1_555 1_555
N3B K1 1_555 1_555
N6B K1 1_555 1_555
N8B K1 1_555 1_555
N6A N5 1_555 1_555
N5A N6 1_555 1_555
C1E N7E 1_555 1_555
C5E N7E 1_555 1_555
N2B N3B 1_555 1_555
C6B N8B 1_555 1_555
C10B N8B 1_555 1_555
K1A N6A 1_555 1_555
N4A N5A 1_555 1_555
C2E C1E 1_555 1_555
H1E C1E 1_555 1_555
C4E C5E 1_555 1_555
H5E C5E 1_555 1_555
N1B N2B 1_555 1_555
C7B C6B 1_555 1_555
H6B C6B 1_555 1_555
C9B C10B 1_555 1_555
H10B C10B 1_555 1_555
Cr1D N4A 1_555 1_555
C3E C2E 1_555 1_555
H2E C2E 1_555 1_555
H4E C4E 1_555 1_555
Cr1B N1B 1_555 1_555
C8B C7B 1_555 1_555
H7B C7B 1_555 1_555
H9B C9B 1_555 1_555
H3E C3E 1_555 1_555
H8B C8B 1_555 1_555
C4 C5 1_555 1_555
C9 C10 1_555 1_555
C4E C3E 1_555 1_555
C9B C8B 1_555 1_555

#END
