
#######################################################################
#
#                 Cambridge Crystallographic Data Centre
#                                CCDC 
#
#######################################################################
#
# If this CIF has been generated from an entry in the Cambridge 
# Structural Database, then it will include bibliographic, chemical, 
# crystal, experimental, refinement or atomic coordinate data resulting 
# from the CCDC's data processing and validation procedures.
#
#######################################################################

data_YAKLIF
_symmetry_cell_setting           monoclinic
_symmetry_space_group_name_H-M   'P 21/m'
_symmetry_Int_Tables_number      11
_space_group_name_Hall           '-P 2yb'
loop_
_symmetry_equiv_pos_site_id
_symmetry_equiv_pos_as_xyz
1 x,y,z
2 -x,1/2+y,-z
3 -x,-y,-z
4 x,1/2-y,z
_cell_length_a                   4.161(6)
_cell_length_b                   14.056(5)
_cell_length_c                   6.898(3)
_cell_angle_alpha                90
_cell_angle_beta                 97.24(6)
_cell_angle_gamma                90
_cell_volume                     400.227
loop_
_atom_site_label
_atom_site_type_symbol
_atom_site_fract_x
_atom_site_fract_y
_atom_site_fract_z
Cu1 Cu 0.0000 0.5000 0.5000
S1 S 0.1931(3) 0.6454(1) 0.6420(2)
S2 S 0.2538(5) 0.7500 1.0244(3)
Cl1 Cl -0.3678(4) 0.5645(1) 0.2769(2)
C1 C -0.0116(23) 0.7500 0.5334(10)
C2 C 0.0674(15) 0.6517(4) 0.8839(7)
H1 H 0.0090 0.7500 0.4108
H2 H -0.2421 0.7500 0.5613
H3 H 0.1755 0.5948 0.9492
H4 H -0.1676 0.6560 0.8811
S1B S -0.1931(3) 0.3546(1) 0.3580(2)
Cl1B Cl 0.3678(4) 0.4355(1) 0.7231(2)
S1C S 0.1931(3) 0.8546(1) 0.6420(2)
C2C C 0.0674(15) 0.8483(4) 0.8839(7)
C1A C 0.0116(23) 0.2500 0.4666(10)
C2B C -0.0674(15) 0.3483(4) 0.1161(7)
Cu1A Cu 0.0000 1.0000 0.5000
H3C H 0.1755 0.9052 0.9492
H4C H -0.1676 0.8440 0.8811
S1A S -0.1931(3) 0.1454(1) 0.3580(2)
H1A H -0.0090 0.2500 0.5892
H2A H 0.2421 0.2500 0.4387
S2A S -0.2538(5) 0.2500 -0.0244(3)
H3B H -0.1755 0.4052 0.0508
H4B H 0.1676 0.3440 0.1189
S1A_2 S -0.1931(3) 1.1454(1) 0.3580(2)
Cl1A Cl 0.3678(4) 1.0645(1) 0.7231(2)
Cl1C Cl -0.3678(4) 0.9355(1) 0.2769(2)
Cu1A_2 Cu 0.0000 0.0000 0.5000
C2A C -0.0674(15) 0.1517(4) 0.1161(7)
H3A H -0.1755 0.0948 0.0508
H4A H 0.1676 0.1560 0.1189
loop_
_geom_bond_atom_site_label_1
_geom_bond_atom_site_label_2
_geom_bond_site_symmetry_1
_geom_bond_site_symmetry_2
Cu1 S1 1_555 1_555
S1 C1 1_555 1_555
S2 C2 1_555 1_555
Cl1 Cu1 1_555 1_555
C1 H1 1_555 1_555
C2 S1 1_555 1_555
H2 C1 1_555 1_555
H3 C2 1_555 1_555
H4 C2 1_555 1_555
S1B Cu1 1_555 1_555
Cl1B Cu1 1_555 1_555
S1C C1 1_555 1_555
C2C S2 1_555 1_555
C1A S1B 1_555 1_555
C2B S1B 1_555 1_555
Cu1A S1C 1_555 1_555
H3C C2C 1_555 1_555
H4C C2C 1_555 1_555
S1A C1A 1_555 1_555
H1A C1A 1_555 1_555
H2A C1A 1_555 1_555
S2A C2B 1_555 1_555
H3B C2B 1_555 1_555
H4B C2B 1_555 1_555
S1A_2 Cu1A 1_555 1_555
Cl1A Cu1A 1_555 1_555
Cl1C Cu1A 1_555 1_555
Cu1A_2 S1A 1_555 1_555
C2A S1A 1_555 1_555
H3A C2A 1_555 1_555
H4A C2A 1_555 1_555
S1C C2C 1_555 1_555
S2A C2A 1_555 1_555

#END
