
#######################################################################
#
#                 Cambridge Crystallographic Data Centre
#                                CCDC 
#
#######################################################################
#
# If this CIF has been generated from an entry in the Cambridge 
# Structural Database, then it will include bibliographic, chemical, 
# crystal, experimental, refinement or atomic coordinate data resulting 
# from the CCDC's data processing and validation procedures.
#
#######################################################################

data_YAKLON
_symmetry_cell_setting           triclinic
_symmetry_space_group_name_H-M   'P -1'
_symmetry_Int_Tables_number      2
_space_group_name_Hall           '-P 1'
loop_
_symmetry_equiv_pos_site_id
_symmetry_equiv_pos_as_xyz
1 x,y,z
2 -x,-y,-z
_cell_length_a                   16.4901(7)
_cell_length_b                   16.5173(7)
_cell_length_c                   23.8250(10)
_cell_angle_alpha                71.657(3)
_cell_angle_beta                 72.074(3)
_cell_angle_gamma                65.608(3)
_cell_volume                     5489.78
loop_
_atom_site_label
_atom_site_type_symbol
_atom_site_fract_x
_atom_site_fract_y
_atom_site_fract_z
Zn1 Zn 0.657719(19) 0.190947(17) 0.499034(13)
N1 N 0.55212(13) 0.23264(12) 0.44863(9)
N2 N 0.53536(13) 0.26075(12) 0.55762(9)
N3 N 0.70945(14) 0.29908(13) 0.44164(9)
N4 N 0.74705(13) 0.19074(12) 0.54899(9)
N5 N 0.75947(13) 0.09019(12) 0.45022(9)
N6 N 0.64604(12) 0.05991(12) 0.55726(9)
C31 C 0.56242(19) 0.22446(17) 0.39255(12)
H95 H 0.6207 0.2020 0.3698
C32 C 0.4851(2) 0.24976(17) 0.36695(13)
H96 H 0.4933 0.2437 0.3279
C33 C 0.4022(2) 0.28176(17) 0.39901(14)
H97 H 0.3521 0.3000 0.3818
C34 C 0.38884(17) 0.28856(15) 0.45850(13)
C35 C 0.30142(18) 0.32124(17) 0.49690(15)
H98 H 0.2492 0.3370 0.4826
C36 C 0.29293(18) 0.32958(18) 0.55254(15)
H99 H 0.2352 0.3486 0.5766
C37 C 0.37023(17) 0.31003(16) 0.57566(12)
C38 C 0.3645(2) 0.32207(18) 0.63211(13)
H100 H 0.3083 0.3412 0.6578
C39 C 0.4416(2) 0.30563(18) 0.64905(13)
H101 H 0.4383 0.3148 0.6864
C40 C 0.52709(19) 0.27470(16) 0.61105(11)
H102 H 0.5792 0.2638 0.6239
C41 C 0.45824(16) 0.27755(15) 0.53954(11)
C42 C 0.46807(16) 0.26431(15) 0.48051(12)
C43 C 0.6928(2) 0.35180(18) 0.38850(12)
H103 H 0.6559 0.3421 0.3705
C44 C 0.7281(2) 0.42114(18) 0.35856(13)
H104 H 0.7148 0.4573 0.3215
C45 C 0.7807(2) 0.43423(17) 0.38381(14)
H105 H 0.8043 0.4806 0.3640
C46 C 0.80278(19) 0.38139(17) 0.43936(14)
C47 C 0.86214(19) 0.38826(18) 0.47056(16)
H106 H 0.8893 0.4321 0.4519
C48 C 0.8801(2) 0.33755(19) 0.52273(16)
H107 H 0.9168 0.3465 0.5414
C49 C 0.84168(18) 0.26844(17) 0.54990(13)
C50 C 0.86030(19) 0.20940(19) 0.60607(14)
H108 H 0.8971 0.2157 0.6260
C51 C 0.82227(18) 0.1430(2) 0.62979(13)
H109 H 0.8341 0.1026 0.6661
C52 C 0.76763(17) 0.13574(18) 0.60069(12)
H110 H 0.7432 0.0897 0.6179
C53 C 0.78470(15) 0.25594(14) 0.52245(11)
C54 C 0.76543(17) 0.31286(15) 0.46595(12)
C55 C 0.81481(17) 0.10654(17) 0.39788(11)
H111 H 0.8084 0.1667 0.3787
C56 C 0.88264(17) 0.03738(18) 0.36998(12)
H112 H 0.9188 0.0510 0.3324
C57 C 0.89389(19) -0.05155(18) 0.40021(13)
H113 H 0.9386 -0.0990 0.3830
C58 C 0.83945(17) -0.07048(16) 0.45562(12)
C59 C 0.84669(19) -0.16202(17) 0.49001(13)
H114 H 0.8902 -0.2116 0.4744
C60 C 0.79299(18) -0.17599(17) 0.54262(13)
H115 H 0.8009 -0.2357 0.5638
C61 C 0.72197(17) -0.10310(16) 0.56931(12)
C62 C 0.66520(17) -0.11687(17) 0.62484(12)
H116 H 0.6719 -0.1754 0.6479
C63 C 0.59946(17) -0.04354(16) 0.64524(12)
H117 H 0.5597 -0.0516 0.6822
C64 C 0.59163(16) 0.04386(16) 0.61066(11)
H118 H 0.5463 0.0933 0.6255
C65 C 0.71183(15) -0.01326(15) 0.53604(11)
C66 C 0.77090(15) 0.00359(15) 0.47897(11)
Zn2 Zn 0.835583(18) -0.163672(18) 0.988655(13)
N7 N 0.79051(12) -0.06798(13) 1.04681(9)
N8 N 0.75870(12) -0.03721(13) 0.93602(9)
N9 N 0.72648(13) -0.21626(13) 1.04137(9)
N10 N 0.83534(13) -0.24612(13) 0.93289(9)
N11 N 0.93757(12) -0.26611(12) 1.03875(8)
N12 N 0.96602(13) -0.14985(12) 0.93160(9)
C67 C 0.80591(17) -0.08486(18) 1.10180(12)
H119 H 0.8412 -0.1433 1.1185
C68 C 0.77054(18) -0.01716(19) 1.13515(12)
H120 H 0.7812 -0.0309 1.1738
C69 C 0.72098(18) 0.06803(19) 1.11081(13)
H121 H 0.6988 0.1136 1.1323
C70 C 0.70242(17) 0.08867(18) 1.05309(13)
C71 C 0.65128(18) 0.17723(17) 1.02384(14)
H122 H 0.6273 0.2251 1.0436
C72 C 0.6375(2) 0.19241(18) 0.96895(14)
H123 H 0.6045 0.2508 0.9506
C73 C 0.67211(17) 0.12111(17) 0.93779(13)
C74 C 0.66144(18) 0.13495(18) 0.87828(13)
H124 H 0.6299 0.1927 0.8583
C75 C 0.69736(18) 0.06370(18) 0.85050(14)
H125 H 0.6906 0.0721 0.8115
C76 C 0.74470(17) -0.02237(17) 0.88156(12)
H126 H 0.7673 -0.0713 0.8629
C77 C 0.72311(16) 0.03411(15) 0.96335(11)
C78 C 0.73879(16) 0.01675(16) 1.02292(12)
C79 C 0.67319(17) -0.19994(19) 1.09401(12)
H127 H 0.6798 -0.1609 1.1118
C80 C 0.60576(18) -0.2412(2) 1.12401(13)
H128 H 0.5695 -0.2301 1.1613
C81 C 0.59549(18) -0.2961(2) 1.09773(14)
H129 H 0.5526 -0.3241 1.1174
C82 C 0.64740(17) -0.31176(17) 1.04215(14)
C83 C 0.63878(19) -0.36948(19) 1.01055(15)
H130 H 0.5963 -0.3984 1.0282
C84 C 0.69099(18) -0.38089(18) 0.95701(15)
H131 H 0.6833 -0.4174 0.9377
C85 C 0.75894(18) -0.33985(17) 0.92717(12)
C86 C 0.81337(19) -0.34912(18) 0.87048(13)
H132 H 0.8053 -0.3818 0.8485
C87 C 0.87942(19) -0.30992(18) 0.84670(12)
H133 H 0.9182 -0.3182 0.8096
C88 C 0.88678(18) -0.25777(17) 0.87942(11)
H134 H 0.9301 -0.2298 0.8628
C89 C 0.77056(16) -0.28631(15) 0.95768(12)
C90 C 0.71545(15) -0.27169(16) 1.01522(11)
C91 C 0.92312(17) -0.32080(16) 1.09240(12)
H135 H 0.8634 -0.3145 1.1124
C92 C 0.99246(19) -0.38618(17) 1.11970(13)
H136 H 0.9794 -0.4219 1.1578
C93 C 1.07993(18) -0.39811(16) 1.09061(12)
H137 H 1.1273 -0.4430 1.1083
C94 C 1.09904(18) -0.34269(16) 1.03365(12)
C95 C 1.18840(19) -0.34763(18) 0.99886(13)
H138 H 1.2384 -0.3908 1.0146
C96 C 1.20289(18) -0.29410(18) 0.94588(13)
H139 H 1.2623 -0.3018 0.9247
C97 C 1.12890(16) -0.22392(16) 0.92001(11)
C98 C 1.13947(18) -0.16441(18) 0.86625(12)
H140 H 1.1977 -0.1696 0.8434
C99 C 1.06657(17) -0.09763(18) 0.84545(12)
H141 H 1.0739 -0.0561 0.8091
C100 C 0.98011(16) -0.09308(17) 0.88022(11)
H142 H 0.9299 -0.0473 0.8661
C101 C 1.03912(15) -0.21474(14) 0.95168(10)
C102 C 1.02418(16) -0.27615(15) 1.00939(11)
Zn3 Zn 0.24530(2) 0.483608(19) 0.244538(14)
O17 O 0.07097(12) 0.67812(11) 0.20834(9)
O19 O 0.22102(11) 0.61953(11) 0.19091(9)
O21 O 0.24221(13) 0.50669(13) 0.32316(9)
O23 O 0.38452(15) 0.49009(15) 0.28331(9)
O33 O 0.33211(13) 0.43777(11) 0.17421(9)
H41 H 0.3419 0.4823 0.1469
H42 H 0.3817 0.4008 0.1847
O34 O 0.11842(12) 0.49881(11) 0.24145(9)
H43 H 0.0900(11) 0.5539(4) 0.2459(9)
H44 H 0.0838(7) 0.4741(5) 0.2688(8)
O35 O 0.26015(11) 0.33939(11) 0.28601(8)
H45 H 0.3052(5) 0.2931(10) 0.2969(9)
H46 H 0.2185(4) 0.3169(8) 0.3046(11)
C21 C 0.14666(16) 0.68131(15) 0.18020(11)
C22 C 0.15219(16) 0.76217(16) 0.12831(12)
H79 H 0.1923 0.7387 0.0931
H80 H 0.1809 0.7946 0.1389
C23 C 0.06343(15) 0.83124(15) 0.10985(11)
H81 H 0.0294 0.7989 0.1050
H82 H 0.0270 0.8635 0.1420
C24 C 0.07822(15) 0.90014(15) 0.05151(11)
H83 H 0.1089 0.9349 0.0575
H84 H 0.1185 0.8673 0.0203
C25 C -0.00623(15) 0.96518(15) 0.02936(11)
H85 H -0.0462 0.9980 0.0607
H86 H -0.0370 0.9301 0.0239
C26 C 0.3197(2) 0.50697(16) 0.32410(12)
C27 C 0.32075(17) 0.53243(17) 0.37931(12)
H87 H 0.2857 0.5033 0.4143
H88 H 0.2903 0.5977 0.3751
C28 C 0.41436(17) 0.50695(16) 0.39148(11)
H89 H 0.4467 0.5427 0.3595
H90 H 0.4483 0.4433 0.3904
C29 C 0.41112(15) 0.52243(15) 0.45295(11)
H91 H 0.3808 0.5869 0.4524
H92 H 0.3740 0.4908 0.4842
C30 C 0.50195(16) 0.49175(16) 0.47027(11)
H93 H 0.5320 0.4270 0.4714
H94 H 0.5394 0.5227 0.4388
Zn3A Zn -0.24530(2) 1.516392(19) -0.244538(14)
Zn3A_2 Zn 0.75470(2) 0.516392(19) 0.755462(14)
O17A O -0.07097(12) 1.32188(11) -0.20834(9)
O19A O -0.22102(11) 1.38047(11) -0.19091(9)
O21A O 0.75779(13) 0.49331(13) 0.67684(9)
O21A_2 O -0.24221(13) 1.49331(13) -0.32316(9)
O23A O 0.61548(15) 0.50991(15) 0.71669(9)
O33A O -0.33211(13) 1.56223(11) -0.17421(9)
H41A H -0.3419 1.5177 -0.1469
H42A H -0.3817 1.5992 -0.1847
O34A O -0.11842(12) 1.50119(11) -0.24145(9)
H43A H -0.0900(11) 1.4461(4) -0.2459(9)
H44A H -0.0838(7) 1.5259(5) -0.2688(8)
O35A O -0.26015(11) 1.66061(11) -0.28601(8)
H45A H -0.3052(5) 1.7069(10) -0.2969(9)
H46A H -0.2185(4) 1.6831(8) -0.3046(11)
C21A C -0.14666(16) 1.31869(15) -0.18020(11)
C22A C -0.15219(16) 1.23783(16) -0.12831(12)
H79A H -0.1923 1.2613 -0.0931
H80A H -0.1809 1.2054 -0.1389
C23A C -0.06343(15) 1.16876(15) -0.10985(11)
H81A H -0.0294 1.2011 -0.1050
H82A H -0.0270 1.1365 -0.1420
C24A C -0.07822(15) 1.09986(15) -0.05151(11)
H83A H -0.1089 1.0651 -0.0575
H84A H -0.1185 1.1327 -0.0203
C25A C 0.00623(15) 1.03482(15) -0.02936(11)
H85A H 0.0462 1.0020 -0.0607
H86A H 0.0370 1.0699 -0.0239
C26A C 0.6803(2) 0.49303(16) 0.67590(12)
C27A C 0.67925(17) 0.46757(17) 0.62069(12)
H87A H 0.7143 0.4967 0.5857
H88A H 0.7097 0.4023 0.6249
C28A C 0.58564(17) 0.49305(16) 0.60852(11)
H89A H 0.5533 0.4573 0.6405
H90A H 0.5517 0.5567 0.6096
C29A C 0.58888(15) 0.47757(15) 0.54705(11)
H91A H 0.6192 0.4131 0.5476
H92A H 0.6260 0.5092 0.5158
C30A C 0.49805(16) 0.50825(16) 0.52973(11)
H93A H 0.4680 0.5730 0.5286
H94A H 0.4606 0.4773 0.5612
O1 O 0.41796(16) 0.27007(13) 0.16009(11)
O3 O 0.32439(13) 0.20594(12) 0.22397(9)
C1 C 0.39181(19) 0.20253(17) 0.18367(12)
C2 C 0.44865(19) 0.11829(17) 0.15806(11)
H47 H 0.4358 0.0663 0.1867
H48 H 0.5125 0.1078 0.1535
C3 C 0.43170(17) 0.12438(15) 0.09733(11)
H49 H 0.3676 0.1367 0.1013
H50 H 0.4467 0.1749 0.0681
C4 C 0.48699(16) 0.03820(15) 0.07414(11)
H51 H 0.4699 -0.0118 0.1025
H52 H 0.5509 0.0244 0.0720
C5 C 0.47348(17) 0.04565(16) 0.01162(12)
H53 H 0.4938 0.0935 -0.0171
H54 H 0.4091 0.0630 0.0133
O1A O 0.58204(16) -0.27007(13) -0.16009(11)
O3A O 0.67561(13) -0.20594(12) -0.22397(9)
C1A C 0.60819(19) -0.20253(17) -0.18367(12)
C2A C 0.55135(19) -0.11829(17) -0.15806(11)
H47A H 0.5642 -0.0663 -0.1867
H48A H 0.4875 -0.1078 -0.1535
C3A C 0.56830(17) -0.12438(15) -0.09733(11)
H49A H 0.6324 -0.1367 -0.1013
H50A H 0.5533 -0.1749 -0.0681
C4A C 0.51301(16) -0.03820(15) -0.07414(11)
H51A H 0.5301 0.0118 -0.1025
H52A H 0.4491 -0.0244 -0.0720
C5A C 0.52652(17) -0.04565(16) -0.01162(12)
H53A H 0.5062 -0.0935 0.0171
H54A H 0.5909 -0.0630 -0.0133
O2 O 0.74870(18) 0.61898(17) 0.22332(13)
H1 H 0.6955(5) 0.6150(11) 0.2333(8)
H2 H 0.7727(9) 0.5812(7) 0.1992(5)
O4 O 0.90764(14) 0.52507(13) 0.25984(11)
H3 H 0.9196(9) 0.4687(5) 0.2698(11)
H4 H 0.8535(5) 0.5433(10) 0.2536(8)
O5 O -0.02175(12) 0.34230(11) 0.29405(9)
O7 O 0.07544(12) 0.36317(11) 0.32889(9)
C6 C 0.04171(16) 0.31239(15) 0.32173(11)
C7 C 0.07610(16) 0.21226(15) 0.34749(11)
H55 H 0.1345 0.1956 0.3574
H56 H 0.0855 0.1800 0.3170
C8 C 0.01211(16) 0.18206(15) 0.40353(11)
H57 H -0.0470 0.2011 0.3939
H58 H 0.0047 0.2127 0.4344
C9 C 0.04396(17) 0.08015(15) 0.42900(12)
H59 H 0.0462 0.0499 0.3993
H60 H 0.1054 0.0603 0.4350
C10 C -0.01449(16) 0.04984(14) 0.48763(11)
H61 H -0.0155 0.0791 0.5175
H62 H -0.0762 0.0712 0.4818
O5A O 0.02175(12) -0.34230(11) 0.70595(9)
O7A O -0.07544(12) -0.36317(11) 0.67111(9)
C6A C -0.04171(16) -0.31239(15) 0.67827(11)
C7A C -0.07610(16) -0.21226(15) 0.65251(11)
H55A H -0.1345 -0.1956 0.6426
H56A H -0.0855 -0.1800 0.6830
C8A C -0.01211(16) -0.18206(15) 0.59647(11)
H57A H 0.0470 -0.2011 0.6061
H58A H -0.0047 -0.2127 0.5656
C9A C -0.04396(17) -0.08015(15) 0.57100(12)
H59A H -0.0462 -0.0499 0.6007
H60A H -0.1054 -0.0603 0.5650
C10A C 0.01449(16) -0.04984(14) 0.51237(11)
H61A H 0.0155 -0.0791 0.4825
H62A H 0.0762 -0.0712 0.5182
O6 O 0.9048(2) 0.61083(19) 0.34367(15)
H5 H 0.9141 0.5644 0.3310
H6 H 0.9441 0.5987 0.3641
O8 O 0.89124(16) 0.76979(15) 0.24630(16)
H7 H 0.9118(10) 0.7187(5) 0.2711(7)
H8 H 0.9383(5) 0.7852(6) 0.2365(12)
O9 O -0.12985(13) 0.92321(13) 0.27327(10)
O12 O -0.24519(13) 1.05507(13) 0.26713(9)
C11 C -0.20974(18) 0.97095(17) 0.29057(12)
C12 C -0.26794(17) 0.92700(17) 0.34287(12)
H63 H -0.2295 0.8813 0.3700
H64 H -0.2924 0.8959 0.3275
C13 C -0.34692(16) 0.99219(16) 0.37902(11)
H65 H -0.3233 1.0296 0.3891
H66 H -0.3896 1.0324 0.3531
C14 C -0.39870(16) 0.94968(16) 0.43653(11)
H67 H -0.3564 0.9078 0.4623
H68 H -0.4255 0.9147 0.4268
C15 C -0.47357(16) 1.01876(16) 0.47123(10)
H69 H -0.4463 1.0543 0.4799
H70 H -0.5156 1.0602 0.4451
O9A O -0.87015(13) 1.07679(13) 0.72673(10)
O12A O -0.75481(13) 0.94493(13) 0.73287(9)
C11A C -0.79026(18) 1.02905(17) 0.70943(12)
C12A C -0.73206(17) 1.07300(17) 0.65713(12)
H63A H -0.7705 1.1187 0.6300
H64A H -0.7076 1.1041 0.6725
C13A C -0.65308(16) 1.00781(16) 0.62098(11)
H65A H -0.6767 0.9704 0.6109
H66A H -0.6104 0.9676 0.6469
C14A C -0.60130(16) 1.05032(16) 0.56347(11)
H67A H -0.6436 1.0922 0.5377
H68A H -0.5745 1.0853 0.5732
C15A C -0.52643(16) 0.98124(16) 0.52877(10)
H69A H -0.5537 0.9457 0.5201
H70A H -0.4844 0.9398 0.5549
O10 O 0.73177(18) 0.78581(16) 0.22301(12)
H9 H 0.7332(9) 0.7335(4) 0.2239(5)
H10 H 0.7341(10) 0.7809(7) 0.2586(3)
O11 O 0.57300(15) 0.92249(18) 0.25727(14)
H11 H 0.6239(4) 0.8813(10) 0.2592(7)
H12 H 0.5500(5) 0.8996(7) 0.2416(5)
O13 O 0.40756(14) 0.89949(14) 0.26763(10)
H13 H 0.4390(5) 0.9212(6) 0.2775(4)
H14 H 0.4318(10) 0.9050(10) 0.2301(3)
O14 O -0.33231(18) 1.52317(15) 0.20449(13)
O16 O -0.3213(2) 1.3846(2) 0.2156(2)
C16 C -0.2882(3) 1.4488(3) 0.1960(2)
C17 C -0.1898(2) 1.4220(2) 0.16692(17)
H71 H -0.1678 1.3596 0.1626
H72 H -0.1563 1.4246 0.1930
C18 C -0.1714(2) 1.4816(2) 0.10631(17)
H73 H -0.1925 1.5438 0.1108
H74 H -0.2059 1.4799 0.0806
C19 C -0.0726(2) 1.4542(2) 0.07598(15)
H75 H -0.0520 1.3917 0.0720
H76 H -0.0386 1.4554 0.1022
C20 C -0.0495(2) 1.5118(2) 0.01452(16)
H77 H -0.0808 1.5077 -0.0123
H78 H -0.0734 1.5748 0.0181
O14A O 0.33231(18) 1.47683(15) -0.20449(13)
O16A O 0.3213(2) 1.6154(2) -0.2156(2)
C16A C 0.2882(3) 1.5512(3) -0.1960(2)
C17A C 0.1898(2) 1.5780(2) -0.16692(17)
H71A H 0.1678 1.6404 -0.1626
H72A H 0.1563 1.5754 -0.1930
C18A C 0.1714(2) 1.5184(2) -0.10631(17)
H73A H 0.1925 1.4562 -0.1108
H74A H 0.2059 1.5201 -0.0806
C19A C 0.0726(2) 1.5458(2) -0.07598(15)
H75A H 0.0520 1.6083 -0.0720
H76A H 0.0386 1.5446 -0.1022
C20A C 0.0495(2) 1.4882(2) -0.01452(16)
H77A H 0.0808 1.4923 0.0123
H78A H 0.0734 1.4252 -0.0181
O15 O 0.37808(16) 0.74385(14) 0.27439(12)
H15 H 0.3838(11) 0.7957(4) 0.2627(11)
H16 H 0.4292(9) 0.7118(6) 0.2558(8)
O18 O 0.21383(17) 0.74627(14) 0.26327(11)
H17 H 0.2567 0.7631 0.2621
H18 H 0.2413(9) 0.6887(4) 0.2674(12)
O20 O 0.05748(16) 0.90470(15) 0.25409(12)
H19 H 0.1097(7) 0.8780(6) 0.2346(6)
H20 H 0.0455 0.9563 0.2312
O22 O 0.09577(13) 1.05844(13) 0.24767(10)
H21 H 0.1372(4) 1.0683(8) 0.2552(6)
H22 H 0.0540(5) 1.1102(7) 0.2464(10)
O24 O 0.25840(14) 1.05981(14) 0.25971(12)
H23 H 0.2746(8) 1.1059(4) 0.2503(14)
H24 H 0.3063(7) 1.0173(6) 0.2686(11)
O25 O 0.49171(18) 0.59446(17) 0.22794(14)
H25 H 0.4791(6) 0.5558(8) 0.2596(6)
H26 H 0.5507(5) 0.5671(15) 0.2216(10)
O26 O 0.3998(3) 0.6073(3) 0.13425(17)
H27 H 0.4222 0.6376 0.1441
H28 H 0.4420 0.5712 0.1132
O27 O -0.05312(14) 1.21539(13) 0.25549(11)
H29 H -0.1097(4) 1.2261(7) 0.2649(9)
H30 H -0.0511(6) 1.2600(5) 0.2649(6)
O28 O -0.23375(15) 1.21895(13) 0.27449(9)
H31 H -0.2483(11) 1.2599(5) 0.2441(5)
H32 H -0.2541(6) 1.1807(5) 0.2725(7)
O29 O -0.4636(3) 1.3682(3) 0.2214(2)
H33 H -0.4251 1.3664 0.2391
H34 H -0.4425 1.3220 0.2057
O30 O -0.41800(18) 1.10800(19) 0.24673(11)
H35 H -0.4041(9) 1.1566(4) 0.2304(8)
H36 H -0.3868(16) 1.0774(5) 0.2197(4)
O31 O 0.5793(4) 0.2941(4) 0.1341(3)
H37 H 0.6202 0.2937 0.1490
H38 H 0.5396 0.3474 0.1297
O32 O 0.1119(2) 0.42681(19) 0.41365(13)
H39 H 0.0814(12) 0.4762(5) 0.3909(7)
H40 H 0.1011(8) 0.3890(4) 0.4005(6)
loop_
_geom_bond_atom_site_label_1
_geom_bond_atom_site_label_2
_geom_bond_site_symmetry_1
_geom_bond_site_symmetry_2
Zn1 N1 1_555 1_555
Zn2 N7 1_555 1_555
Zn3 O19 1_555 1_555
N1 C31 1_555 1_555
N2 Zn1 1_555 1_555
N3 Zn1 1_555 1_555
N4 Zn1 1_555 1_555
N5 Zn1 1_555 1_555
N6 Zn1 1_555 1_555
N7 C67 1_555 1_555
N8 Zn2 1_555 1_555
N9 Zn2 1_555 1_555
N10 Zn2 1_555 1_555
N11 Zn2 1_555 1_555
N12 Zn2 1_555 1_555
O1 C1 1_555 1_555
O2 H1 1_555 1_555
H2 O2 1_555 1_555
O3 C1 1_555 1_555
O4 H3 1_555 1_555
H4 O4 1_555 1_555
O5 C6 1_555 1_555
O6 H5 1_555 1_555
H6 O6 1_555 1_555
O7 C6 1_555 1_555
O8 H7 1_555 1_555
H8 O8 1_555 1_555
O9 C11 1_555 1_555
O10 H9 1_555 1_555
H10 O10 1_555 1_555
O11 H11 1_555 1_555
H12 O11 1_555 1_555
O12 C11 1_555 1_555
O13 H13 1_555 1_555
H14 O13 1_555 1_555
O14 C16 1_555 1_555
O15 H15 1_555 1_555
H16 O15 1_555 1_555
O16 C16 1_555 1_555
O17 C21 1_555 1_555
O18 H17 1_555 1_555
H18 O18 1_555 1_555
O19 C21 1_555 1_555
O20 H19 1_555 1_555
H20 O20 1_555 1_555
O21 Zn3 1_555 1_555
O22 H21 1_555 1_555
H22 O22 1_555 1_555
O23 C26 1_555 1_555
O24 H23 1_555 1_555
H24 O24 1_555 1_555
O25 H25 1_555 1_555
H26 O25 1_555 1_555
O26 H27 1_555 1_555
H28 O26 1_555 1_555
O27 H29 1_555 1_555
H30 O27 1_555 1_555
O28 H31 1_555 1_555
H32 O28 1_555 1_555
O29 H33 1_555 1_555
H34 O29 1_555 1_555
O30 H35 1_555 1_555
H36 O30 1_555 1_555
O31 H37 1_555 1_555
H38 O31 1_555 1_555
O32 H39 1_555 1_555
H40 O32 1_555 1_555
O33 Zn3 1_555 1_555
H41 O33 1_555 1_555
H42 O33 1_555 1_555
O34 Zn3 1_555 1_555
H43 O34 1_555 1_555
H44 O34 1_555 1_555
O35 Zn3 1_555 1_555
H45 O35 1_555 1_555
H46 O35 1_555 1_555
C1 C2 1_555 1_555
C2 H47 1_555 1_555
H48 C2 1_555 1_555
C3 C2 1_555 1_555
H49 C3 1_555 1_555
H50 C3 1_555 1_555
C4 C3 1_555 1_555
H51 C4 1_555 1_555
H52 C4 1_555 1_555
C5 C4 1_555 1_555
H53 C5 1_555 1_555
H54 C5 1_555 1_555
C6 C7 1_555 1_555
C7 H55 1_555 1_555
H56 C7 1_555 1_555
C8 C7 1_555 1_555
H57 C8 1_555 1_555
H58 C8 1_555 1_555
C9 C8 1_555 1_555
H59 C9 1_555 1_555
H60 C9 1_555 1_555
C10 C9 1_555 1_555
H61 C10 1_555 1_555
H62 C10 1_555 1_555
C11 C12 1_555 1_555
C12 H63 1_555 1_555
H64 C12 1_555 1_555
C13 C12 1_555 1_555
H65 C13 1_555 1_555
H66 C13 1_555 1_555
C14 C13 1_555 1_555
H67 C14 1_555 1_555
H68 C14 1_555 1_555
C15 C14 1_555 1_555
H69 C15 1_555 1_555
H70 C15 1_555 1_555
C16 C17 1_555 1_555
C17 H71 1_555 1_555
H72 C17 1_555 1_555
C18 C17 1_555 1_555
H73 C18 1_555 1_555
H74 C18 1_555 1_555
C19 C18 1_555 1_555
H75 C19 1_555 1_555
H76 C19 1_555 1_555
C20 C19 1_555 1_555
H77 C20 1_555 1_555
H78 C20 1_555 1_555
C21 C22 1_555 1_555
C22 H79 1_555 1_555
H80 C22 1_555 1_555
C23 C22 1_555 1_555
H81 C23 1_555 1_555
H82 C23 1_555 1_555
C24 C23 1_555 1_555
H83 C24 1_555 1_555
H84 C24 1_555 1_555
C25 C24 1_555 1_555
H85 C25 1_555 1_555
H86 C25 1_555 1_555
C26 O21 1_555 1_555
C27 C26 1_555 1_555
H87 C27 1_555 1_555
H88 C27 1_555 1_555
C28 C27 1_555 1_555
H89 C28 1_555 1_555
H90 C28 1_555 1_555
C29 C28 1_555 1_555
H91 C29 1_555 1_555
H92 C29 1_555 1_555
C30 C29 1_555 1_555
H93 C30 1_555 1_555
H94 C30 1_555 1_555
C31 H95 1_555 1_555
C32 C31 1_555 1_555
H96 C32 1_555 1_555
C33 C32 1_555 1_555
H97 C33 1_555 1_555
C34 C33 1_555 1_555
C35 C34 1_555 1_555
H98 C35 1_555 1_555
C36 C35 1_555 1_555
H99 C36 1_555 1_555
C37 C36 1_555 1_555
C38 C37 1_555 1_555
H100 C38 1_555 1_555
C39 C38 1_555 1_555
H101 C39 1_555 1_555
C40 N2 1_555 1_555
H102 C40 1_555 1_555
C41 N2 1_555 1_555
C42 N1 1_555 1_555
C43 N3 1_555 1_555
H103 C43 1_555 1_555
C44 C43 1_555 1_555
H104 C44 1_555 1_555
C45 C44 1_555 1_555
H105 C45 1_555 1_555
C46 C45 1_555 1_555
C47 C46 1_555 1_555
H106 C47 1_555 1_555
C48 C47 1_555 1_555
H107 C48 1_555 1_555
C49 C48 1_555 1_555
C50 C49 1_555 1_555
H108 C50 1_555 1_555
C51 C50 1_555 1_555
H109 C51 1_555 1_555
C52 N4 1_555 1_555
H110 C52 1_555 1_555
C53 N4 1_555 1_555
C54 N3 1_555 1_555
C55 N5 1_555 1_555
H111 C55 1_555 1_555
C56 C55 1_555 1_555
H112 C56 1_555 1_555
C57 C56 1_555 1_555
H113 C57 1_555 1_555
C58 C57 1_555 1_555
C59 C58 1_555 1_555
H114 C59 1_555 1_555
C60 C59 1_555 1_555
H115 C60 1_555 1_555
C61 C60 1_555 1_555
C62 C61 1_555 1_555
H116 C62 1_555 1_555
C63 C62 1_555 1_555
H117 C63 1_555 1_555
C64 N6 1_555 1_555
H118 C64 1_555 1_555
C65 N6 1_555 1_555
C66 N5 1_555 1_555
C67 H119 1_555 1_555
C68 C67 1_555 1_555
H120 C68 1_555 1_555
C69 C68 1_555 1_555
H121 C69 1_555 1_555
C70 C69 1_555 1_555
C71 C70 1_555 1_555
H122 C71 1_555 1_555
C72 C71 1_555 1_555
H123 C72 1_555 1_555
C73 C72 1_555 1_555
C74 C73 1_555 1_555
H124 C74 1_555 1_555
C75 C74 1_555 1_555
H125 C75 1_555 1_555
C76 N8 1_555 1_555
H126 C76 1_555 1_555
C77 N8 1_555 1_555
C78 N7 1_555 1_555
C79 N9 1_555 1_555
H127 C79 1_555 1_555
C80 C79 1_555 1_555
H128 C80 1_555 1_555
C81 C80 1_555 1_555
H129 C81 1_555 1_555
C82 C81 1_555 1_555
C83 C82 1_555 1_555
H130 C83 1_555 1_555
C84 C83 1_555 1_555
H131 C84 1_555 1_555
C85 C84 1_555 1_555
C86 C85 1_555 1_555
H132 C86 1_555 1_555
C87 C86 1_555 1_555
H133 C87 1_555 1_555
C88 N10 1_555 1_555
H134 C88 1_555 1_555
C89 N10 1_555 1_555
C90 N9 1_555 1_555
C91 N11 1_555 1_555
H135 C91 1_555 1_555
C92 C91 1_555 1_555
H136 C92 1_555 1_555
C93 C92 1_555 1_555
H137 C93 1_555 1_555
C94 C93 1_555 1_555
C95 C94 1_555 1_555
H138 C95 1_555 1_555
C96 C95 1_555 1_555
H139 C96 1_555 1_555
C97 C96 1_555 1_555
C98 C97 1_555 1_555
H140 C98 1_555 1_555
C99 C98 1_555 1_555
H141 C99 1_555 1_555
C100 N12 1_555 1_555
H142 C100 1_555 1_555
C101 N12 1_555 1_555
C102 N11 1_555 1_555
Zn3A O19A 1_555 1_555
Zn3A_2 O21A 1_555 1_555
O1A C1A 1_555 1_555
O3A C1A 1_555 1_555
O5A C6A 1_555 1_555
O7A C6A 1_555 1_555
O9A C11A 1_555 1_555
O12A C11A 1_555 1_555
O14A C16A 1_555 1_555
O16A C16A 1_555 1_555
O17A C21A 1_555 1_555
O19A C21A 1_555 1_555
O21A C26A 1_555 1_555
O21A_2 Zn3A 1_555 1_555
O23A C26A 1_555 1_555
O33A Zn3A 1_555 1_555
H41A O33A 1_555 1_555
H42A O33A 1_555 1_555
O34A Zn3A 1_555 1_555
H43A O34A 1_555 1_555
H44A O34A 1_555 1_555
O35A Zn3A 1_555 1_555
H45A O35A 1_555 1_555
H46A O35A 1_555 1_555
C1A C2A 1_555 1_555
C2A H47A 1_555 1_555
H48A C2A 1_555 1_555
C3A C2A 1_555 1_555
H49A C3A 1_555 1_555
H50A C3A 1_555 1_555
C4A C3A 1_555 1_555
H51A C4A 1_555 1_555
H52A C4A 1_555 1_555
C5A C5 1_555 1_555
H53A C5A 1_555 1_555
H54A C5A 1_555 1_555
C6A C7A 1_555 1_555
C7A H55A 1_555 1_555
H56A C7A 1_555 1_555
C8A C7A 1_555 1_555
H57A C8A 1_555 1_555
H58A C8A 1_555 1_555
C9A C8A 1_555 1_555
H59A C9A 1_555 1_555
H60A C9A 1_555 1_555
C10A C10 1_555 1_555
H61A C10A 1_555 1_555
H62A C10A 1_555 1_555
C11A C12A 1_555 1_555
C12A H63A 1_555 1_555
H64A C12A 1_555 1_555
C13A C12A 1_555 1_555
H65A C13A 1_555 1_555
H66A C13A 1_555 1_555
C14A C13A 1_555 1_555
H67A C14A 1_555 1_555
H68A C14A 1_555 1_555
C15A C15 1_555 1_555
H69A C15A 1_555 1_555
H70A C15A 1_555 1_555
C16A C17A 1_555 1_555
C17A H71A 1_555 1_555
H72A C17A 1_555 1_555
C18A C17A 1_555 1_555
H73A C18A 1_555 1_555
H74A C18A 1_555 1_555
C19A C18A 1_555 1_555
H75A C19A 1_555 1_555
H76A C19A 1_555 1_555
C20A C20 1_555 1_555
H77A C20A 1_555 1_555
H78A C20A 1_555 1_555
C21A C22A 1_555 1_555
C22A H79A 1_555 1_555
H80A C22A 1_555 1_555
C23A C22A 1_555 1_555
H81A C23A 1_555 1_555
H82A C23A 1_555 1_555
C24A C23A 1_555 1_555
H83A C24A 1_555 1_555
H84A C24A 1_555 1_555
C25A C25 1_555 1_555
H85A C25A 1_555 1_555
H86A C25A 1_555 1_555
C26A C27A 1_555 1_555
C27A H87A 1_555 1_555
H88A C27A 1_555 1_555
C28A C27A 1_555 1_555
H89A C28A 1_555 1_555
H90A C28A 1_555 1_555
C29A C28A 1_555 1_555
H91A C29A 1_555 1_555
H92A C29A 1_555 1_555
C30A C30 1_555 1_555
H93A C30A 1_555 1_555
H94A C30A 1_555 1_555
C34 C42 1_555 1_555
C37 C41 1_555 1_555
C39 C40 1_555 1_555
C41 C42 1_555 1_555
C46 C54 1_555 1_555
C49 C53 1_555 1_555
C51 C52 1_555 1_555
C53 C54 1_555 1_555
C58 C66 1_555 1_555
C61 C65 1_555 1_555
C63 C64 1_555 1_555
C65 C66 1_555 1_555
C70 C78 1_555 1_555
C73 C77 1_555 1_555
C75 C76 1_555 1_555
C77 C78 1_555 1_555
C82 C90 1_555 1_555
C85 C89 1_555 1_555
C87 C88 1_555 1_555
C89 C90 1_555 1_555
C94 C102 1_555 1_555
C97 C101 1_555 1_555
C99 C100 1_555 1_555
C101 C102 1_555 1_555
C4A C5A 1_555 1_555
C9A C10A 1_555 1_555
C14A C15A 1_555 1_555
C19A C20A 1_555 1_555
C24A C25A 1_555 1_555
C29A C30A 1_555 1_555

#END
