
#######################################################################
#
#                 Cambridge Crystallographic Data Centre
#                                CCDC 
#
#######################################################################
#
# If this CIF has been generated from an entry in the Cambridge 
# Structural Database, then it will include bibliographic, chemical, 
# crystal, experimental, refinement or atomic coordinate data resulting 
# from the CCDC's data processing and validation procedures.
#
#######################################################################

data_YAKMIH
_symmetry_cell_setting           triclinic
_symmetry_space_group_name_H-M   'P -1'
_symmetry_Int_Tables_number      2
_space_group_name_Hall           '-P 1'
loop_
_symmetry_equiv_pos_site_id
_symmetry_equiv_pos_as_xyz
1 x,y,z
2 -x,-y,-z
_cell_length_a                   21.717(7)
_cell_length_b                   14.380(4)
_cell_length_c                   9.640(4)
_cell_angle_alpha                100.67(3)
_cell_angle_beta                 94.96(3)
_cell_angle_gamma                90.48(3)
_cell_volume                     2946.44
loop_
_atom_site_label
_atom_site_type_symbol
_atom_site_fract_x
_atom_site_fract_y
_atom_site_fract_z
Ag1 Ag 0.45641(2) 0.92300(3) 0.86184(5)
Cl1 Cl 0.48908(7) 0.90583(10) 1.11979(15)
C1 C 0.5457(3) 0.8751(5) 0.5553(8)
C2 C 0.6106(3) 0.8894(6) 0.6158(9)
C3 C 0.6484(3) 0.9637(6) 0.5636(7)
C4 C 0.6793(3) 1.0395(4) 0.3633(6)
C5 C 0.6393(3) 0.9651(5) 0.4072(7)
P1 P 0.49630(6) 0.81585(10) 0.65936(15)
C6 C 0.5354(2) 0.7067(4) 0.6832(6)
C7 C 0.5508(3) 0.6900(5) 0.8135(7)
C8 C 0.5791(4) 0.6064(6) 0.8321(9)
C9 C 0.5905(3) 0.5403(5) 0.7176(9)
C10 C 0.5737(4) 0.5563(5) 0.5848(9)
C11 C 0.5476(4) 0.6381(5) 0.5673(8)
C12 C 0.4318(2) 0.7684(4) 0.5330(6)
C13 C 0.3886(3) 0.7107(4) 0.5756(7)
C14 C 0.3368(3) 0.6754(5) 0.4935(9)
C15 C 0.3252(4) 0.6978(6) 0.3639(11)
C16 C 0.3659(4) 0.7542(7) 0.3164(9)
C17 C 0.4189(4) 0.7900(5) 0.4000(8)
P2 P 0.65797(6) 1.06133(10) 0.18493(15)
C18 C 0.7039(2) 1.1662(3) 0.1765(6)
C19 C 0.6833(4) 1.2218(5) 0.0818(7)
C20 C 0.7153(5) 1.3035(5) 0.0688(9)
C21 C 0.7673(5) 1.3295(6) 0.1525(10)
C22 C 0.7887(4) 1.2772(6) 0.2473(10)
C23 C 0.7582(3) 1.1941(4) 0.2612(7)
C24 C 0.6966(2) 0.9677(4) 0.0734(5)
C25 C 0.6675(3) 0.8803(5) 0.0315(7)
C26 C 0.6965(4) 0.8074(6) -0.0491(10)
C27 C 0.7531(3) 0.8192(5) -0.0892(8)
C28 C 0.7824(3) 0.9037(5) -0.0537(9)
C29 C 0.7540(3) 0.9780(5) 0.0278(8)
H1 H 0.546(3) 0.839(4) 0.464(6)
H2 H 0.531(3) 0.947(5) 0.560(7)
H3 H 0.615(3) 0.900(4) 0.719(7)
H4 H 0.637(4) 0.812(6) 0.589(9)
H5 H 0.644(3) 1.028(5) 0.622(7)
H6 H 0.693(4) 0.948(5) 0.584(8)
H7 H 0.717(3) 1.018(4) 0.356(6)
H8 H 0.6771(19) 1.093(3) 0.426(5)
H9 H 0.653(2) 0.904(4) 0.357(6)
H10 H 0.602(2) 0.979(3) 0.385(5)
H11 H 0.538(2) 0.738(3) 0.894(5)
H12 H 0.582(3) 0.594(5) 0.924(7)
H13 H 0.613(3) 0.476(4) 0.749(6)
H14 H 0.585(3) 0.513(5) 0.501(7)
H15 H 0.538(3) 0.656(4) 0.469(7)
H16 H 0.395(2) 0.693(3) 0.663(5)
H17 H 0.310(3) 0.632(5) 0.538(7)
H18 H 0.294(4) 0.681(5) 0.315(8)
H19 H 0.358(3) 0.769(5) 0.244(7)
H20 H 0.444(3) 0.818(4) 0.366(6)
H21 H 0.654(2) 1.204(3) 0.036(5)
H22 H 0.690(4) 1.348(6) 0.013(10)
H23 H 0.785(3) 1.377(4) 0.146(6)
H24 H 0.817(2) 1.291(4) 0.297(5)
H25 H 0.776(3) 1.155(4) 0.333(6)
H26 H 0.627(3) 0.877(4) 0.062(6)
H27 H 0.680(3) 0.757(4) -0.061(7)
H28 H 0.772(2) 0.774(4) -0.133(6)
H29 H 0.819(3) 0.916(4) -0.094(6)
H30 H 0.776(3) 1.041(5) 0.059(7)
Ag1A Ag 0.54359(2) 1.07700(3) 1.13816(5)
Ag1A_2 Ag 0.54359(2) 1.07700(3) 0.13816(5)
Cl1A Cl 0.51092(7) 1.09417(10) 0.88021(15)
P2A P 0.34203(6) 0.93867(10) 0.81507(15)
Ag2 Ag 0.02121(2) 0.62440(3) 0.49895(5)
Cl2 Cl 0.06131(7) 0.51218(10) 0.66500(17)
C30 C 0.0385(3) 0.6171(4) 0.1397(6)
C31 C -0.0157(3) 0.6830(4) 0.1540(6)
C32 C -0.0604(3) 0.6726(5) 0.0216(6)
C33 C -0.0801(3) 0.7084(5) -0.2234(6)
C34 C -0.0320(3) 0.6977(5) -0.1038(6)
P3 P 0.08728(6) 0.63554(9) 0.30770(15)
C35 C 0.1254(2) 0.7507(4) 0.3144(6)
C36 C 0.1171(4) 0.8228(5) 0.4242(8)
C37 C 0.1462(5) 0.9099(5) 0.4352(12)
C38 C 0.1819(4) 0.9261(7) 0.3379(16)
C39 C 0.1914(4) 0.8564(7) 0.2260(16)
C40 C 0.1627(3) 0.7666(5) 0.2108(10)
C41 C 0.1510(3) 0.5544(3) 0.2838(7)
C42 C 0.1783(3) 0.5263(4) 0.4027(9)
C43 C 0.2290(3) 0.4679(5) 0.3971(13)
C44 C 0.2506(4) 0.4355(6) 0.2708(15)
C45 C 0.2244(4) 0.4599(5) 0.1490(13)
C46 C 0.1735(3) 0.5213(4) 0.1556(8)
P4 P -0.04615(6) 0.74209(9) -0.37412(14)
C47 C -0.0114(2) 0.8570(4) -0.2898(5)
C48 C 0.0500(3) 0.8628(5) -0.2371(7)
C49 C 0.0760(4) 0.9473(6) -0.1632(8)
C50 C 0.0412(4) 1.0288(6) -0.1449(9)
C51 C -0.0181(4) 1.0242(5) -0.1952(8)
C52 C -0.0447(3) 0.9390(4) -0.2686(7)
C53 C -0.1121(2) 0.7739(3) -0.4832(5)
C54 C -0.1029(3) 0.8204(4) -0.5916(6)
C55 C -0.1513(4) 0.8423(5) -0.6803(7)
C56 C -0.2106(4) 0.8169(6) -0.6630(9)
C57 C -0.2212(4) 0.7737(6) -0.5532(10)
C58 C -0.1722(3) 0.7516(5) -0.4636(8)
H31 H 0.060(2) 0.625(4) 0.064(6)
H32 H 0.026(2) 0.553(4) 0.121(5)
H33 H -0.033(3) 0.682(5) 0.266(7)
H34 H 0.001(2) 0.749(3) 0.183(5)
H35 H -0.075(3) 0.602(4) -0.009(6)
H36 H -0.099(3) 0.719(4) 0.040(7)
H37 H -0.112(3) 0.766(4) -0.188(6)
H38 H -0.094(2) 0.658(3) -0.253(5)
H39 H -0.023(2) 0.763(4) -0.073(5)
H40 H 0.002(2) 0.647(4) -0.137(5)
H41 H 0.092(3) 0.817(4) 0.496(6)
H42 H 0.148(4) 0.952(6) 0.525(8)
H43 H 0.204(3) 0.981(5) 0.334(7)
H44 H 0.219(4) 0.871(5) 0.173(8)
H45 H 0.173(3) 0.712(5) 0.125(8)
H46 H 0.162(2) 0.545(4) 0.476(5)
H47 H 0.247(3) 0.450(4) 0.483(7)
H48 H 0.284(4) 0.409(6) 0.250(9)
H49 H 0.238(3) 0.434(5) 0.059(7)
H50 H 0.155(2) 0.535(3) 0.064(5)
H51 H 0.0697(19) 0.805(3) -0.248(4)
H52 H 0.119(3) 0.940(4) -0.136(7)
H53 H 0.063(5) 1.095(7) -0.089(11)
H54 H -0.047(4) 1.099(7) -0.186(10)
H55 H -0.085(3) 0.930(5) -0.301(7)
H56 H -0.060(3) 0.854(4) -0.594(6)
H57 H -0.144(3) 0.878(5) -0.758(7)
H58 H -0.243(3) 0.836(5) -0.735(8)
H59 H -0.262(4) 0.764(6) -0.534(9)
H60 H -0.183(3) 0.718(4) -0.393(7)
Ag2A Ag -0.02121(2) 0.37560(3) 0.50105(5)
Ag2_2 Ag 0.02121(2) 0.62440(3) -0.50105(5)
Cl2A Cl -0.06131(7) 0.48782(10) 0.33500(17)
P4_2 P -0.04615(6) 0.74209(9) 0.62588(14)
N1 N 0.6598(5) 0.6063(12) 0.2285(11)
C59 C 0.6327(7) 0.6849(8) 0.2242(11)
C60 C 0.5743(8) 0.6875(8) 0.2023(9)
C61 C 0.5382(5) 0.6092(12) 0.1855(11)
C62 C 0.5681(8) 0.5261(8) 0.1891(10)
C63 C 0.6291(7) 0.5248(9) 0.2102(12)
H61 H 0.65724 0.74107 0.23560
H62 H 0.55537 0.74670 0.19804
H63 H 0.49415 0.61129 0.17289
H64 H 0.54450 0.46804 0.17702
H65 H 0.65008 0.46612 0.21290
O1 O 0.1818(3) 0.4284(5) 0.7892(9)
H66 H 0.20749 0.43208 0.87336
H67 H 0.20502 0.44288 0.71475
loop_
_geom_bond_atom_site_label_1
_geom_bond_atom_site_label_2
_geom_bond_site_symmetry_1
_geom_bond_site_symmetry_2
Ag1 Cl1 1_555 1_555
Cl1 Ag1A 1_555 1_555
C1 C2 1_555 1_555
C2 C3 1_555 1_555
C3 C5 1_555 1_555
C4 C5 1_555 1_555
C5 H9 1_555 1_555
P1 Ag1 1_555 1_555
C6 P1 1_555 1_555
C7 C6 1_555 1_555
C8 C7 1_555 1_555
C9 C8 1_555 1_555
C10 C9 1_555 1_555
C11 C6 1_555 1_555
C12 P1 1_555 1_555
C13 C12 1_555 1_555
C14 C13 1_555 1_555
C15 C14 1_555 1_555
C16 C15 1_555 1_555
C17 C12 1_555 1_555
P2 C4 1_555 1_555
C18 P2 1_555 1_555
C19 C18 1_555 1_555
C20 C19 1_555 1_555
C21 C20 1_555 1_555
C22 C21 1_555 1_555
C23 C18 1_555 1_555
C24 P2 1_555 1_555
C25 C24 1_555 1_555
C26 C25 1_555 1_555
C27 C26 1_555 1_555
C28 C27 1_555 1_555
C29 C24 1_555 1_555
Ag2 Cl2 1_555 1_555
Cl2 Ag2A 1_555 1_555
C30 C31 1_555 1_555
C31 C32 1_555 1_555
C32 C34 1_555 1_555
C33 C34 1_555 1_555
C34 H39 1_555 1_555
P3 Ag2 1_555 1_555
C35 P3 1_555 1_555
C36 C35 1_555 1_555
C37 C36 1_555 1_555
C38 C37 1_555 1_555
C39 C38 1_555 1_555
C40 C35 1_555 1_555
C41 P3 1_555 1_555
C42 C41 1_555 1_555
C43 C42 1_555 1_555
C44 C43 1_555 1_555
C45 C44 1_555 1_555
C46 C41 1_555 1_555
P4 C33 1_555 1_555
C47 P4 1_555 1_555
C48 C47 1_555 1_555
C49 C48 1_555 1_555
C50 C49 1_555 1_555
C51 C50 1_555 1_555
C52 C47 1_555 1_555
C53 P4 1_555 1_555
C54 C53 1_555 1_555
C55 C54 1_555 1_555
C56 C55 1_555 1_555
C57 C56 1_555 1_555
C58 C53 1_555 1_555
N1 C59 1_555 1_555
C59 C60 1_555 1_555
C60 C61 1_555 1_555
C61 C62 1_555 1_555
C62 C63 1_555 1_555
C63 N1 1_555 1_555
O1 H66 1_555 1_555
H1 C1 1_555 1_555
H2 C1 1_555 1_555
H3 C2 1_555 1_555
H4 C2 1_555 1_555
H5 C3 1_555 1_555
H6 C3 1_555 1_555
H7 C4 1_555 1_555
H8 C4 1_555 1_555
H10 C5 1_555 1_555
H11 C7 1_555 1_555
H12 C8 1_555 1_555
H13 C9 1_555 1_555
H14 C10 1_555 1_555
H15 C11 1_555 1_555
H16 C13 1_555 1_555
H17 C14 1_555 1_555
H18 C15 1_555 1_555
H19 C16 1_555 1_555
H20 C17 1_555 1_555
H21 C19 1_555 1_555
H22 C20 1_555 1_555
H23 C21 1_555 1_555
H24 C22 1_555 1_555
H25 C23 1_555 1_555
H26 C25 1_555 1_555
H27 C26 1_555 1_555
H28 C27 1_555 1_555
H29 C28 1_555 1_555
H30 C29 1_555 1_555
H31 C30 1_555 1_555
H32 C30 1_555 1_555
H33 C31 1_555 1_555
H34 C31 1_555 1_555
H35 C32 1_555 1_555
H36 C32 1_555 1_555
H37 C33 1_555 1_555
H38 C33 1_555 1_555
H40 C34 1_555 1_555
H41 C36 1_555 1_555
H42 C37 1_555 1_555
H43 C38 1_555 1_555
H44 C39 1_555 1_555
H45 C40 1_555 1_555
H46 C42 1_555 1_555
H47 C43 1_555 1_555
H48 C44 1_555 1_555
H49 C45 1_555 1_555
H50 C46 1_555 1_555
H51 C48 1_555 1_555
H52 C49 1_555 1_555
H53 C50 1_555 1_555
H54 C51 1_555 1_555
H55 C52 1_555 1_555
H56 C54 1_555 1_555
H57 C55 1_555 1_555
H58 C56 1_555 1_555
H59 C57 1_555 1_555
H60 C58 1_555 1_555
H61 C59 1_555 1_555
H62 C60 1_555 1_555
H63 C61 1_555 1_555
H64 C62 1_555 1_555
H65 C63 1_555 1_555
H67 O1 1_555 1_555
Ag1A Cl1A 1_555 1_555
Ag1A_2 P2 1_555 1_555
Cl1A Ag1 1_555 1_555
P2A Ag1 1_555 1_555
Ag2A Cl2A 1_555 1_555
Ag2_2 P4 1_555 1_555
Cl2A Ag2 1_555 1_555
P4_2 Ag2 1_555 1_555
C1 P1 1_555 1_555
C10 C11 1_555 1_555
C16 C17 1_555 1_555
C22 C23 1_555 1_555
C28 C29 1_555 1_555
C30 P3 1_555 1_555
C39 C40 1_555 1_555
C45 C46 1_555 1_555
C51 C52 1_555 1_555
C57 C58 1_555 1_555

#END
