
#######################################################################
#
#                 Cambridge Crystallographic Data Centre
#                                CCDC 
#
#######################################################################
#
# If this CIF has been generated from an entry in the Cambridge 
# Structural Database, then it will include bibliographic, chemical, 
# crystal, experimental, refinement or atomic coordinate data resulting 
# from the CCDC's data processing and validation procedures.
#
#######################################################################

data_YAKPAC
_symmetry_cell_setting           orthorhombic
_symmetry_space_group_name_H-M   'P n a 21'
_symmetry_Int_Tables_number      33
_space_group_name_Hall           'P 2c -2n'
loop_
_symmetry_equiv_pos_site_id
_symmetry_equiv_pos_as_xyz
1 x,y,z
2 -x,-y,1/2+z
3 1/2-x,1/2+y,1/2+z
4 1/2+x,1/2-y,z
_cell_length_a                   17.8220(16)
_cell_length_b                   8.2613(7)
_cell_length_c                   20.3830(18)
_cell_angle_alpha                90
_cell_angle_beta                 90
_cell_angle_gamma                90
_cell_volume                     3001.05
loop_
_atom_site_label
_atom_site_type_symbol
_atom_site_fract_x
_atom_site_fract_y
_atom_site_fract_z
Cu1 Cu 0.06961(2) 0.22374(6) 0.00000
P1 P 0.12736(5) 0.30128(11) 0.09333(5)
C1 C 0.0892(2) 0.4034(5) 0.16614(19)
C2 C 0.1303(2) 0.4103(5) 0.2246(2)
C3 C 0.1048(3) 0.4972(6) 0.2779(2)
C4 C 0.0370(3) 0.5810(6) 0.2742(2)
C5 C -0.0038(3) 0.5766(6) 0.2167(2)
C6 C 0.0215(2) 0.4881(6) 0.1631(2)
C7 C 0.1778(2) 0.1324(5) 0.13014(18)
C8 C 0.1361(3) 0.0055(5) 0.1568(2)
C9 C 0.1715(3) -0.1284(5) 0.1842(2)
C10 C 0.2490(3) -0.1374(6) 0.1844(2)
C11 C 0.2911(3) -0.0133(6) 0.1575(3)
C12 C 0.2559(2) 0.1218(5) 0.1304(2)
C13 C 0.1998(2) 0.4475(4) 0.06947(19)
C14 C 0.1617(2) 0.5919(4) 0.03648(19)
C15 C 0.2158(2) 0.7201(5) 0.01091(17)
P2 P 0.15541(5) 1.15315(11) -0.07651(5)
C16 C 0.2191(2) 0.9971(5) -0.04577(18)
C17 C 0.1717(2) 0.8541(5) -0.0226(2)
C18 C 0.1214(2) 1.0577(5) -0.15209(18)
C19 C 0.1693(2) 1.0251(5) -0.2044(2)
C20 C 0.1435(3) 0.9389(5) -0.2584(2)
C21 C 0.0696(3) 0.8858(6) -0.2607(2)
C22 C 0.0224(3) 0.9175(8) -0.2089(3)
C23 C 0.0478(3) 1.0045(7) -0.1547(2)
C24 C 0.2155(2) 1.3147(4) -0.10734(18)
C25 C 0.1813(3) 1.4434(5) -0.1402(2)
C26 C 0.2237(3) 1.5723(6) -0.1634(2)
C27 C 0.3005(3) 1.5749(6) -0.1530(2)
C28 C 0.3346(3) 1.4501(7) -0.1198(3)
C29 C 0.2927(2) 1.3193(5) -0.0966(2)
O1 O 0.0068(2) 0.3961(4) -0.05334(16)
O2 O -0.0875(2) 0.4472(4) 0.01572(17)
C30 C -0.0429(3) 0.4845(6) -0.0320(2)
C31 C -0.0528(3) 0.6523(6) -0.0600(3)
O3 O -0.00833(17) 0.0399(4) 0.01309(16)
O4 O -0.0965(2) 0.1774(4) 0.06695(17)
C32 C -0.0620(2) 0.0475(6) 0.0516(2)
C33 C -0.0894(3) -0.1057(6) 0.0835(3)
H1 H 0.17758 0.35398 0.22776
H2 H 0.13330 0.49990 0.31897
H3 H 0.01798 0.63974 0.31254
H4 H -0.05102 0.63392 0.21407
H5 H -0.00714 0.48616 0.12469
H6 H 0.08261 0.00995 0.15667
H7 H 0.14219 -0.21305 0.20469
H8 H 0.27381 -0.22944 0.20401
H9 H 0.34484 -0.02211 0.15855
H10 H 0.28548 0.20706 0.11307
H11 H 0.22649 0.48313 0.10891
H12 H 0.23443 0.39914 0.04119
H13 H 0.12942 0.64286 0.06916
H14 H 0.13253 0.55390 0.00219
H15 H 0.24993 0.67144 -0.01823
H16 H 0.24404 0.76464 0.04765
H17 H 0.22016 1.06163 -0.20216
H18 H 0.17628 0.91690 -0.29293
H19 H 0.05181 0.82640 -0.29658
H20 H -0.02920 0.88530 -0.21012
H21 H 0.01520 1.02453 -0.11768
H22 H 0.12834 1.44188 -0.14599
H23 H 0.20003 1.65808 -0.18607
H24 H 0.32959 1.66381 -0.16760
H25 H 0.38756 1.45317 -0.11102
H26 H 0.31636 1.23275 -0.07318
H27 H 0.25283 0.96376 -0.07839
H28 H 0.24781 1.03830 -0.00867
H29 H 0.13462 0.89299 0.00769
H30 H 0.14744 0.80873 -0.05939
H31 H -0.02703 0.72876 -0.03205
H32 H -0.10420 0.67910 -0.06094
H33 H -0.03174 0.65546 -0.10201
H34 H -0.12537 -0.15545 0.05689
H35 H -0.11181 -0.07936 0.12546
H36 H -0.04888 -0.17926 0.09191
H37 H -0.08800 0.31600 0.03600
Cu1_2 Cu 0.06961(2) 1.22374(6) 0.00000
P2_2 P 0.15541(5) 0.15315(11) -0.07651(5)
loop_
_geom_bond_atom_site_label_1
_geom_bond_atom_site_label_2
_geom_bond_site_symmetry_1
_geom_bond_site_symmetry_2
Cu1 P1 1_555 1_555
P1 C1 1_555 1_555
C1 C2 1_555 1_555
C2 C3 1_555 1_555
C3 C4 1_555 1_555
C4 C5 1_555 1_555
C5 C6 1_555 1_555
C6 C1 1_555 1_555
C7 P1 1_555 1_555
C8 C7 1_555 1_555
C9 C8 1_555 1_555
C10 C9 1_555 1_555
C11 C10 1_555 1_555
C12 C7 1_555 1_555
C13 P1 1_555 1_555
C14 C13 1_555 1_555
C15 C14 1_555 1_555
P2 C16 1_555 1_555
C16 C17 1_555 1_555
C17 C15 1_555 1_555
C18 P2 1_555 1_555
C19 C18 1_555 1_555
C20 C19 1_555 1_555
C21 C20 1_555 1_555
C22 C21 1_555 1_555
C23 C18 1_555 1_555
C24 P2 1_555 1_555
C25 C24 1_555 1_555
C26 C25 1_555 1_555
C27 C26 1_555 1_555
C28 C27 1_555 1_555
C29 C24 1_555 1_555
O1 Cu1 1_555 1_555
O2 C30 1_555 1_555
C30 O1 1_555 1_555
C31 C30 1_555 1_555
O3 Cu1 1_555 1_555
O4 C32 1_555 1_555
C32 O3 1_555 1_555
C33 C32 1_555 1_555
H1 C2 1_555 1_555
H2 C3 1_555 1_555
H3 C4 1_555 1_555
H4 C5 1_555 1_555
H5 C6 1_555 1_555
H6 C8 1_555 1_555
H7 C9 1_555 1_555
H8 C10 1_555 1_555
H9 C11 1_555 1_555
H10 C12 1_555 1_555
H11 C13 1_555 1_555
H12 C13 1_555 1_555
H13 C14 1_555 1_555
H14 C14 1_555 1_555
H15 C15 1_555 1_555
H16 C15 1_555 1_555
H17 C19 1_555 1_555
H18 C20 1_555 1_555
H19 C21 1_555 1_555
H20 C22 1_555 1_555
H21 C23 1_555 1_555
H22 C25 1_555 1_555
H23 C26 1_555 1_555
H24 C27 1_555 1_555
H25 C28 1_555 1_555
H26 C29 1_555 1_555
H27 C16 1_555 1_555
H28 C16 1_555 1_555
H29 C17 1_555 1_555
H30 C17 1_555 1_555
H31 C31 1_555 1_555
H32 C31 1_555 1_555
H33 C31 1_555 1_555
H34 C33 1_555 1_555
H35 C33 1_555 1_555
H36 C33 1_555 1_555
H37 O2 1_555 1_555
Cu1_2 P2 1_555 1_555
P2_2 Cu1 1_555 1_555
C11 C12 1_555 1_555
C22 C23 1_555 1_555
C28 C29 1_555 1_555

#END
