
#######################################################################
#
#                 Cambridge Crystallographic Data Centre
#                                CCDC 
#
#######################################################################
#
# If this CIF has been generated from an entry in the Cambridge 
# Structural Database, then it will include bibliographic, chemical, 
# crystal, experimental, refinement or atomic coordinate data resulting 
# from the CCDC's data processing and validation procedures.
#
#######################################################################

data_YAKVIP01
_symmetry_cell_setting           orthorhombic
_symmetry_space_group_name_H-M   'C 2 2 21'
_symmetry_Int_Tables_number      20
_space_group_name_Hall           'C 2n 2'
loop_
_symmetry_equiv_pos_site_id
_symmetry_equiv_pos_as_xyz
1 x,y,z
2 x,-y,-z
3 -x,-y,1/2+z
4 -x,y,1/2-z
5 1/2+x,1/2+y,z
6 1/2+x,1/2-y,-z
7 1/2-x,1/2-y,1/2+z
8 1/2-x,1/2+y,1/2-z
_cell_length_a                   9.453(2)
_cell_length_b                   17.812(2)
_cell_length_c                   13.475(2)
_cell_angle_alpha                90
_cell_angle_beta                 90
_cell_angle_gamma                90
_cell_volume                     2268.88
loop_
_atom_site_label
_atom_site_type_symbol
_atom_site_fract_x
_atom_site_fract_y
_atom_site_fract_z
Na1 Na 0.46230(2) -0.130200(8) -0.088100(15)
N1 N 0.03650(4) -0.120800(17) -0.11550(3)
H1 H 0.1197(9) -0.1446(5) -0.1107(7)
N2 N -0.04940(4) -0.161700(16) 0.07680(3)
H2 H 0.0118(9) -0.2034(5) 0.0634(6)
H3 H -0.0972(9) -0.1697(4) 0.1389(6)
H4 H 0.0056(9) -0.1165(4) 0.0806(6)
O1 O 0.28280(3) -0.050300(15) -0.14750(3)
O2 O 0.18190(3) 0.059500(15) -0.11080(3)
O3 O -0.07580(3) -0.008400(15) -0.12270(3)
O4 O -0.37400(3) -0.220100(15) -0.03880(3)
O5 O -0.22640(3) -0.279100(14) 0.06470(3)
C1 C 0.17960(4) -0.009700(18) -0.12760(4)
C2 C 0.03260(4) -0.046600(19) -0.12160(3)
C3 C -0.08970(5) -0.166900(19) -0.10470(4)
H5 H -0.0581(8) -0.2217(5) -0.1174(7)
H6 H -0.1575(9) -0.1527(5) -0.1533(6)
C4 C -0.15920(4) -0.160300(19) -0.00240(4)
H7 H -0.2124(8) -0.1110(4) 0.0064(6)
C5 C -0.26260(4) -0.22590(2) 0.01060(4)
O7 O 0.46930(3) -0.088300(15) 0.08200(3)
H8 H 0.3743(9) -0.0718(4) 0.0807(6)
H9 H 0.5124(9) -0.0450(4) 0.0945(6)
O8 O 0.5000 -0.18920(2) -0.2500
O9 O 0.63510(3) -0.033400(16) -0.14920(3)
H10 H 0.7289(16) -0.0273(9) -0.1345(12)
H11 H 0.6519(17) -0.0227(9) -0.2164(13)
N1_2 N 1.03650(4) -0.120800(17) -0.11550(3)
H1_2 H 1.1197(9) -0.1446(5) -0.1107(7)
N2_2 N 0.95060(4) -0.161700(16) 0.07680(3)
H2_2 H 1.0118(9) -0.2034(5) 0.0634(6)
H3_2 H 0.9028(9) -0.1697(4) 0.1389(6)
H4_2 H 1.0056(9) -0.1165(4) 0.0806(6)
O1_2 O 1.28280(3) -0.050300(15) -0.14750(3)
O2_2 O 1.18190(3) 0.059500(15) -0.11080(3)
O3_2 O 0.92420(3) -0.008400(15) -0.12270(3)
O4_2 O 0.62600(3) -0.220100(15) -0.03880(3)
O5_2 O 0.77360(3) -0.279100(14) 0.06470(3)
C1_2 C 1.17960(4) -0.009700(18) -0.12760(4)
C2_2 C 1.03260(4) -0.046600(19) -0.12160(3)
C3_2 C 0.91030(5) -0.166900(19) -0.10470(4)
H5_2 H 0.9419(8) -0.2217(5) -0.1174(7)
H6_2 H 0.8425(9) -0.1527(5) -0.1533(6)
C4_2 C 0.84080(4) -0.160300(19) -0.00240(4)
H7_2 H 0.7876(8) -0.1110(4) 0.0064(6)
C5_2 C 0.73740(4) -0.22590(2) 0.01060(4)
Na1_2 Na 1.46230(2) -0.130200(8) -0.088100(15)
O7_2 O 1.46930(3) -0.088300(15) 0.08200(3)
H8_2 H 1.3743(9) -0.0718(4) 0.0807(6)
H9_2 H 1.5124(9) -0.0450(4) 0.0945(6)
O9_2 O 1.63510(3) -0.033400(16) -0.14920(3)
H10_2 H 1.7289(16) -0.0273(9) -0.1345(12)
H11_2 H 1.6519(17) -0.0227(9) -0.2164(13)
O5E O 0.27360(3) -0.220900(14) -0.06470(3)
Na1_3 Na -0.53770(2) -0.130200(8) -0.088100(15)
Na1E Na -0.03770(2) -0.369800(8) 0.088100(15)
Na1C Na 0.53770(2) -0.130200(8) -0.411900(15)
Na1E_2 Na 0.96230(2) -0.369800(8) 0.088100(15)
O4_3 O 1.62600(3) -0.220100(15) -0.03880(3)
O5E_2 O 1.27360(3) -0.220900(14) -0.06470(3)
O8_2 O 1.5000 -0.18920(2) -0.2500
O6 O 0.80390(3) -0.181500(15) 0.25850(3)
O10 O -0.5000 -0.17990(2) 0.2500
loop_
_geom_bond_atom_site_label_1
_geom_bond_atom_site_label_2
_geom_bond_site_symmetry_1
_geom_bond_site_symmetry_2
Na1 O1 1_555 1_555
N1 H1 1_555 1_555
N2 H2 1_555 1_555
H3 N2 1_555 1_555
H4 N2 1_555 1_555
O1 C1 1_555 1_555
O2 C1 1_555 1_555
O3 C2 1_555 1_555
O4 C5 1_555 1_555
O5 C5 1_555 1_555
C1 C2 1_555 1_555
C2 N1 1_555 1_555
C3 N1 1_555 1_555
H5 C3 1_555 1_555
H6 C3 1_555 1_555
C4 N2 1_555 1_555
H7 C4 1_555 1_555
C5 C4 1_555 1_555
O7 Na1 1_555 1_555
H8 O7 1_555 1_555
H9 O7 1_555 1_555
O8 Na1 1_555 1_555
O9 Na1 1_555 1_555
H10 O9 1_555 1_555
H11 O9 1_555 1_555
N1_2 H1_2 1_555 1_555
N2_2 H2_2 1_555 1_555
H3_2 N2_2 1_555 1_555
H4_2 N2_2 1_555 1_555
O1_2 C1_2 1_555 1_555
O2_2 C1_2 1_555 1_555
O3_2 C2_2 1_555 1_555
O4_2 Na1 1_555 1_555
O5_2 C5_2 1_555 1_555
C1_2 C2_2 1_555 1_555
C2_2 N1_2 1_555 1_555
C3_2 N1_2 1_555 1_555
H5_2 C3_2 1_555 1_555
H6_2 C3_2 1_555 1_555
C4_2 N2_2 1_555 1_555
H7_2 C4_2 1_555 1_555
C5_2 O4_2 1_555 1_555
Na1_2 O1_2 1_555 1_555
O7_2 Na1_2 1_555 1_555
H8_2 O7_2 1_555 1_555
H9_2 O7_2 1_555 1_555
O9_2 Na1_2 1_555 1_555
H10_2 O9_2 1_555 1_555
H11_2 O9_2 1_555 1_555
O5E Na1 1_555 1_555
Na1_3 O4 1_555 1_555
Na1E O5 1_555 1_555
Na1C O8 1_555 1_555
Na1E_2 O5_2 1_555 1_555
O4_3 Na1_2 1_555 1_555
O5E_2 Na1_2 1_555 1_555
O8_2 Na1_2 1_555 1_555
C3 C4 1_555 1_555
C3_2 C4_2 1_555 1_555
C4_2 C5_2 1_555 1_555

#END
