
#######################################################################
#
#                 Cambridge Crystallographic Data Centre
#                                CCDC 
#
#######################################################################
#
# If this CIF has been generated from an entry in the Cambridge 
# Structural Database, then it will include bibliographic, chemical, 
# crystal, experimental, refinement or atomic coordinate data resulting 
# from the CCDC's data processing and validation procedures.
#
#######################################################################

data_YAKVIP
_symmetry_cell_setting           monoclinic
_symmetry_space_group_name_H-M   'P 21'
_symmetry_Int_Tables_number      4
_space_group_name_Hall           'P 2yb'
loop_
_symmetry_equiv_pos_site_id
_symmetry_equiv_pos_as_xyz
1 x,y,z
2 -x,1/2+y,-z
_cell_length_a                   9.453(1)
_cell_length_b                   13.475(3)
_cell_length_c                   10.081(2)
_cell_angle_alpha                90
_cell_angle_beta                 117.94(1)
_cell_angle_gamma                90
_cell_volume                     1134.43
loop_
_atom_site_label
_atom_site_type_symbol
_atom_site_fract_x
_atom_site_fract_y
_atom_site_fract_z
Na1 Na 0.3322(2) -0.2978 -0.2601(2)
N1 N 0.1570(3) -0.5013(3) -0.7585(3)
N2 N 0.1120(3) -0.3086(3) -0.6765(3)
O1 O 0.3328(3) -0.5331(3) -0.8994(3)
O2 O 0.1225(3) -0.4964(3) -1.1190(3)
O3 O -0.0674(3) -0.5084(3) -0.9833(3)
O4 O -0.1541(3) -0.4245(2) -0.5598(3)
O5 O 0.0523(3) -0.3212(3) -0.4421(3)
C1 C 0.1891(4) -0.5130(3) -0.9807(4)
C2 C 0.0794(3) -0.5070(3) -0.9064(3)
C3 C 0.0774(4) -0.4906(3) -0.6664(4)
C4 C 0.0014(3) -0.3880(3) -0.6791(3)
C5 C -0.0367(3) -0.3750(3) -0.5490(3)
Na2 Na -0.4074(2) -0.4741(2) -0.7394(2)
N3 N -0.0842(3) -0.2703(3) -0.2418(3)
N4 N -0.2107(3) -0.4623(3) -0.3231(3)
O6 O 0.2328(3) -0.2381(3) -0.1006(3)
O7 O 0.2414(3) -0.2749(3) 0.1192(3)
O8 O -0.0844(3) -0.2630(3) -0.0170(3)
O9 O -0.5053(3) -0.4506(3) -0.5583(3)
O10 O -0.5940(3) -0.3469(2) -0.4402(3)
C6 C 0.1700(4) -0.2579(3) -0.0196(3)
C7 C -0.0140(4) -0.2639(3) -0.0930(3)
C8 C -0.2570(4) -0.2811(3) -0.3339(4)
C9 C -0.3193(3) -0.3833(3) -0.3201(3)
C10 C -0.4892(3) -0.3961(3) -0.4525(3)
O12 O 0.3808(4) -0.4676(3) -0.1764(3)
O13 O -0.4421(3) -0.3035(3) -0.8233(4)
O14 O -0.3109(3) -0.6356(2) -0.6216(3)
O15 O 0.6014(3) -0.2366(3) -0.0667(4)
O16 O -0.3312(3) -0.5350(3) -0.9332(3)
H1 H 0.2160(3) -0.3211(3) -0.5938(3)
H2 H 0.0713(3) -0.2470(3) -0.6604(3)
H3 H 0.1201(3) -0.3048(3) -0.7678(3)
H4 H -0.1930(3) -0.4479(3) -0.4074(3)
H5 H -0.2654(3) -0.5247(3) -0.3390(3)
H6 H -0.1097(3) -0.4659(3) -0.2336(3)
H7 H 0.1677(53) -0.5020(39) -0.5548(50)
H8 H -0.0042(55) -0.5352(39) -0.6883(53)
H9 H -0.0988(45) -0.3773(34) -0.7783(44)
H10 H -0.2819(46) -0.2671(33) -0.4414(43)
H11 H -0.3045(45) -0.2287(32) -0.2992(44)
H12 H -0.3262(43) -0.3902(34) -0.2222(44)
H13 H 0.2650(50) -0.4940(32) -0.7062(44)
H14 H -0.0211(62) -0.2725(41) -0.2848(58)
H16 H 0.2852(92) -0.4687(70) -0.1399(80)
H17 H 0.469(10) -0.483(10) -0.084(10)
H18 H -0.5330(72) -0.3074(48) -0.8528(60)
H19 H -0.4382(65) -0.2939(50) -0.9038(68)
H20 H 0.7015(51) -0.2512(33) -0.0547(45)
H21 H 0.6291(65) -0.1693(49) -0.0455(61)
Na2_2 Na 0.5926(2) -0.4741(2) -0.7394(2)
O14A O 0.3109(3) -0.1356(2) -0.3784(3)
O1_2 O -0.6672(3) -0.5331(3) -0.8994(3)
O10_2 O 0.4060(3) -0.3469(2) -0.4402(3)
Na1A Na -0.3322(2) -0.7978 -0.7399(2)
Na1_2 Na -0.6678(2) -0.2978 -0.2601(2)
O11 O 0.6227(4) -0.6446(3) -0.3632(3)
H15 H 0.5362(73) -0.6280(51) -0.3851(63)
O17 O -0.9851(3) -0.6275(3) -0.3630(3)
H22 H -0.9333(78) -0.5838(56) -0.2678(77)
H23 H -0.863(10) -0.6357(84) -0.3795(91)
O18 O -0.6797(5) -0.6352(4) -0.3599(4)
H24 H -0.6470(61) -0.5789(48) -0.2884(64)
H25 H -0.6698(82) -0.6784(54) -0.3326(74)
loop_
_geom_bond_atom_site_label_1
_geom_bond_atom_site_label_2
_geom_bond_site_symmetry_1
_geom_bond_site_symmetry_2
Na1 O5 1_555 1_555
N1 C2 1_555 1_555
N2 C4 1_555 1_555
O1 C1 1_555 1_555
O2 C1 1_555 1_555
O3 C2 1_555 1_555
O4 C5 1_555 1_555
O5 C5 1_555 1_555
C1 C2 1_555 1_555
C3 N1 1_555 1_555
C4 C3 1_555 1_555
C5 C4 1_555 1_555
Na2 O4 1_555 1_555
N3 C7 1_555 1_555
N4 C9 1_555 1_555
O6 Na1 1_555 1_555
O7 C6 1_555 1_555
O8 C7 1_555 1_555
O9 Na2 1_555 1_555
O10 C10 1_555 1_555
C6 O6 1_555 1_555
C7 C6 1_555 1_555
C8 N3 1_555 1_555
C9 C8 1_555 1_555
C10 O9 1_555 1_555
O11 H15 1_555 1_555
O12 Na1 1_555 1_555
O13 Na2 1_555 1_555
O14 Na2 1_555 1_555
O15 Na1 1_555 1_555
O16 Na2 1_555 1_555
O17 H22 1_555 1_555
O18 H24 1_555 1_555
H1 N2 1_555 1_555
H2 N2 1_555 1_555
H3 N2 1_555 1_555
H4 N4 1_555 1_555
H5 N4 1_555 1_555
H6 N4 1_555 1_555
H7 C3 1_555 1_555
H8 C3 1_555 1_555
H9 C4 1_555 1_555
H10 C8 1_555 1_555
H11 C8 1_555 1_555
H12 C9 1_555 1_555
H13 N1 1_555 1_555
H14 N3 1_555 1_555
H16 O12 1_555 1_555
H17 O12 1_555 1_555
H18 O13 1_555 1_555
H19 O13 1_555 1_555
H20 O15 1_555 1_555
H21 O15 1_555 1_555
H23 O17 1_555 1_555
H25 O18 1_555 1_555
Na2_2 O1 1_555 1_555
O14A Na1 1_555 1_555
O1_2 Na2 1_555 1_555
O10_2 Na1 1_555 1_555
Na1A O14 1_555 1_555
Na1_2 O10 1_555 1_555
C9 C10 1_555 1_555

#END
