
#######################################################################
#
#                 Cambridge Crystallographic Data Centre
#                                CCDC 
#
#######################################################################
#
# If this CIF has been generated from an entry in the Cambridge 
# Structural Database, then it will include bibliographic, chemical, 
# crystal, experimental, refinement or atomic coordinate data resulting 
# from the CCDC's data processing and validation procedures.
#
#######################################################################

data_YALBEU
_symmetry_cell_setting           triclinic
_symmetry_space_group_name_H-M   'P -1'
_symmetry_Int_Tables_number      2
_space_group_name_Hall           '-P 1'
loop_
_symmetry_equiv_pos_site_id
_symmetry_equiv_pos_as_xyz
1 x,y,z
2 -x,-y,-z
_cell_length_a                   8.788(5)
_cell_length_b                   11.889(4)
_cell_length_c                   13.115(5)
_cell_angle_alpha                107.873(5)
_cell_angle_beta                 91.001(5)
_cell_angle_gamma                98.201(3)
_cell_volume                     1288.06
loop_
_atom_site_label
_atom_site_type_symbol
_atom_site_fract_x
_atom_site_fract_y
_atom_site_fract_z
Er1 Er 1.43321(7) 0.83704(5) 0.90474(5)
O1 O 1.5428(11) 0.6932(8) 0.7315(7)
O2 O 1.4002(10) 0.6335(7) 0.8852(7)
O3 O 1.1529(11) 0.7788(9) 0.9042(9)
O4 O 1.2508(12) 0.7978(11) 0.7513(9)
O5 O 1.5732(11) 0.9553(8) 0.8182(8)
O6 O 1.6115(13) 1.1496(9) 0.9166(7)
O7 O 1.3427(11) 1.0155(8) 0.9670(8)
O8 O 1.3193(10) 1.2028(9) 1.0435(8)
N1 N 1.2893(11) 0.4779(10) 0.9748(9)
C1 C 1.582(2) 0.7173(16) 0.6333(13)
H1 H 1.5237 0.6574 0.5737
H2 H 1.6902 0.7158 0.6244
H3 H 1.5589 0.7946 0.6362
C2 C 1.5433(15) 0.5827(13) 0.7338(11)
C3 C 1.6128(17) 0.4897(12) 0.6605(13)
H4 H 1.6661 0.5064 0.6049
C4 C 1.603(2) 0.3785(18) 0.6701(14)
H5 H 1.6506 0.3215 0.6217
C5 C 1.5207(19) 0.3470(15) 0.7525(13)
H6 H 1.5137 0.2705 0.7586
C6 C 1.4496(14) 0.4371(11) 0.8256(9)
C7 C 1.4621(13) 0.5522(12) 0.8186(10)
C8 C 1.3596(16) 0.4070(12) 0.9060(12)
H7 H 1.3521 0.3289 0.9081
C9 C 1.1838(16) 0.4468(14) 1.0497(14)
H8 H 1.2053 0.5059 1.1201
H9 H 1.1974 0.3695 1.0558
C10 C 1.0177(17) 0.4423(15) 1.0086(15)
H10 H 0.9484 0.4225 1.0595
H11 H 0.9959 0.3781 0.9410
C11 C 0.970(2) 0.743(2) 0.7542(18)
H12 H 0.9454 0.6584 0.7193
H13 H 0.9605 0.7845 0.7025
H14 H 0.8997 0.7674 0.8093
C12 C 1.1318(19) 0.7731(15) 0.8036(14)
C13 C 1.7413(19) 1.0892(16) 0.7533(13)
H15 H 1.7471 1.0168 0.6962
H16 H 1.8420 1.1223 0.7880
H17 H 1.7036 1.1457 0.7244
C14 C 1.6303(15) 1.0612(12) 0.8361(11)
C15 C 1.1139(18) 1.0836(16) 0.9136(15)
H18 H 1.0716 1.1569 0.9326
H19 H 1.0421 1.0219 0.9273
H20 H 1.1333 1.0605 0.8387
C16 C 1.2681(15) 1.1023(12) 0.9819(11)
Er1A Er 0.56679(7) 0.16296(5) 1.09526(5)
Er1A_2 Er 1.56679(7) 1.16296(5) 1.09526(5)
O1A O 0.4572(11) 0.3068(8) 1.2685(7)
O2A O 0.5998(10) 0.3665(7) 1.1148(7)
O3A O 0.8471(11) 0.2212(9) 1.0958(9)
O4A O 0.7492(12) 0.2022(11) 1.2487(9)
O5A O 1.4268(11) 1.0447(8) 1.1818(8)
O5A_2 O 0.4268(11) 0.0447(8) 1.1818(8)
O6A O 1.3885(13) 0.8504(9) 1.0834(7)
O6_2 O 0.6115(13) 0.1496(9) 0.9166(7)
O7A O 1.6573(11) 0.9845(8) 1.0330(8)
O7A_2 O 0.6573(11) -0.0155(8) 1.0330(8)
O7_2 O 0.3427(11) 0.0155(8) 0.9670(8)
O8A O 1.6807(10) 0.7972(9) 0.9565(8)
O8_2 O 0.3193(10) 0.2028(9) 1.0435(8)
N1A N 0.7107(11) 0.5221(10) 1.0252(9)
C1A C 0.418(2) 0.2827(16) 1.3667(13)
H1A H 0.4763 0.3426 1.4263
H2A H 0.3098 0.2842 1.3756
H3A H 0.4411 0.2054 1.3638
C2A C 0.4567(15) 0.4173(13) 1.2662(11)
C3A C 0.3872(17) 0.5103(12) 1.3395(13)
H4A H 0.3339 0.4936 1.3951
C4A C 0.397(2) 0.6215(18) 1.3299(14)
H5A H 0.3494 0.6785 1.3783
C5A C 0.4793(19) 0.6530(15) 1.2475(13)
H6A H 0.4863 0.7295 1.2414
C6A C 0.5504(14) 0.5629(11) 1.1744(9)
C7A C 0.5379(13) 0.4478(12) 1.1814(10)
C8A C 0.6404(16) 0.5930(12) 1.0940(12)
H7A H 0.6479 0.6711 1.0919
C9A C 0.8162(16) 0.5532(14) 0.9503(14)
H8A H 0.7947 0.4941 0.8799
H9A H 0.8026 0.6305 0.9442
C10A C 0.9823(17) 0.5577(15) 0.9914(15)
H10A H 1.0516 0.5775 0.9405
H11A H 1.0041 0.6219 1.0590
C11A C 1.030(2) 0.257(2) 1.2458(18)
H12A H 1.0546 0.3416 1.2807
H13A H 1.0395 0.2155 1.2975
H14A H 1.1003 0.2326 1.1907
C12A C 0.8682(19) 0.2269(15) 1.1964(14)
C13A C 1.2587(19) 0.9108(16) 1.2467(13)
H15A H 1.2529 0.9832 1.3038
H16A H 1.1580 0.8777 1.2120
H17A H 1.2964 0.8543 1.2756
C14A C 1.3697(15) 0.9388(12) 1.1639(11)
C15A C 1.8861(18) 0.9164(16) 1.0864(15)
H18A H 1.9284 0.8431 1.0674
H19A H 1.9579 0.9781 1.0727
H20A H 1.8667 0.9395 1.1613
C16A C 1.7319(15) 0.8977(12) 1.0181(11)
O9 O 1.800(3) 0.191(2) 0.4547(19)
H21 H 1.7843 0.1995 0.3957
C17 C 1.702(5) -0.036(4) 0.378(4)
H22 H 1.7301 -0.1122 0.3717
H23 H 1.6850 -0.0292 0.3072
H24 H 1.6085 -0.0273 0.4147
C18 C 1.829(6) 0.062(3) 0.440(5)
H25 H 1.9236 0.0509 0.4031
H26 H 1.8462 0.0538 0.5102
O10 O 1.068(5) 0.419(4) 0.518(4)
O11? O 1.129(6) 0.388(5) 0.626(4)
loop_
_geom_bond_atom_site_label_1
_geom_bond_atom_site_label_2
_geom_bond_site_symmetry_1
_geom_bond_site_symmetry_2
Er1 O1 1_555 1_555
O1 C1 1_555 1_555
O2 Er1 1_555 1_555
O3 Er1 1_555 1_555
O4 Er1 1_555 1_555
O5 Er1 1_555 1_555
O6 C14 1_555 1_555
O7 Er1 1_555 1_555
O8 C16 1_555 1_555
N1 C8 1_555 1_555
C1 H1 1_555 1_555
H2 C1 1_555 1_555
H3 C1 1_555 1_555
C2 O1 1_555 1_555
C3 C2 1_555 1_555
H4 C3 1_555 1_555
C4 C3 1_555 1_555
H5 C4 1_555 1_555
C5 C4 1_555 1_555
H6 C5 1_555 1_555
C6 C5 1_555 1_555
C7 O2 1_555 1_555
C8 C6 1_555 1_555
H7 C8 1_555 1_555
C9 N1 1_555 1_555
H8 C9 1_555 1_555
H9 C9 1_555 1_555
C10 C9 1_555 1_555
H10 C10 1_555 1_555
H11 C10 1_555 1_555
C11 H12 1_555 1_555
H13 C11 1_555 1_555
H14 C11 1_555 1_555
C12 O3 1_555 1_555
C13 H15 1_555 1_555
H16 C13 1_555 1_555
H17 C13 1_555 1_555
C14 O5 1_555 1_555
C15 H18 1_555 1_555
H19 C15 1_555 1_555
H20 C15 1_555 1_555
C16 O7 1_555 1_555
O9 H21 1_555 1_555
C17 H22 1_555 1_555
H23 C17 1_555 1_555
H24 C17 1_555 1_555
C18 O9 1_555 1_555
H25 C18 1_555 1_555
H26 C18 1_555 1_555
Er1A O1A 1_555 1_555
Er1A_2 O6 1_555 1_555
O1A C1A 1_555 1_555
O2A Er1A 1_555 1_555
O3A Er1A 1_555 1_555
O4A Er1A 1_555 1_555
O5A Er1A_2 1_555 1_555
O5A_2 Er1A 1_555 1_555
O6A Er1 1_555 1_555
O6_2 Er1A 1_555 1_555
O7A Er1 1_555 1_555
O7A_2 Er1A 1_555 1_555
O7_2 Er1A 1_555 1_555
O8A Er1 1_555 1_555
O8_2 Er1A 1_555 1_555
N1A C8A 1_555 1_555
C1A H1A 1_555 1_555
H2A C1A 1_555 1_555
H3A C1A 1_555 1_555
C2A O1A 1_555 1_555
C3A C2A 1_555 1_555
H4A C3A 1_555 1_555
C4A C3A 1_555 1_555
H5A C4A 1_555 1_555
C5A C4A 1_555 1_555
H6A C5A 1_555 1_555
C6A C5A 1_555 1_555
C7A O2A 1_555 1_555
C8A C6A 1_555 1_555
H7A C8A 1_555 1_555
C9A N1A 1_555 1_555
H8A C9A 1_555 1_555
H9A C9A 1_555 1_555
C10A C10 1_555 1_555
H10A C10A 1_555 1_555
H11A C10A 1_555 1_555
C11A H12A 1_555 1_555
H13A C11A 1_555 1_555
H14A C11A 1_555 1_555
C12A O3A 1_555 1_555
C13A H15A 1_555 1_555
H16A C13A 1_555 1_555
H17A C13A 1_555 1_555
C14A O5A 1_555 1_555
C15A H18A 1_555 1_555
H19A C15A 1_555 1_555
H20A C15A 1_555 1_555
C16A O7A 1_555 1_555
O4 C12 1_555 1_555
O7 Er1A_2 1_555 1_555
O8 Er1A_2 1_555 1_555
C2 C7 1_555 1_555
C6 C7 1_555 1_555
C11 C12 1_555 1_555
C13 C14 1_555 1_555
C15 C16 1_555 1_555
C17 C18 1_555 1_555
Er1A_2 O7A 1_555 1_555
O4A C12A 1_555 1_555
O6A C14A 1_555 1_555
O8A C16A 1_555 1_555
C2A C7A 1_555 1_555
C6A C7A 1_555 1_555
C9A C10A 1_555 1_555
C11A C12A 1_555 1_555
C13A C14A 1_555 1_555
C15A C16A 1_555 1_555

#END
