
#######################################################################
#
#                 Cambridge Crystallographic Data Centre
#                                CCDC 
#
#######################################################################
#
# If this CIF has been generated from an entry in the Cambridge 
# Structural Database, then it will include bibliographic, chemical, 
# crystal, experimental, refinement or atomic coordinate data resulting 
# from the CCDC's data processing and validation procedures.
#
#######################################################################

data_YALBIY
_symmetry_cell_setting           monoclinic
_symmetry_space_group_name_H-M   'P 21/c'
_symmetry_Int_Tables_number      14
_space_group_name_Hall           '-P 2ybc'
loop_
_symmetry_equiv_pos_site_id
_symmetry_equiv_pos_as_xyz
1 x,y,z
2 -x,1/2+y,1/2-z
3 -x,-y,-z
4 x,1/2-y,1/2+z
_cell_length_a                   10.064(2)
_cell_length_b                   29.115(6)
_cell_length_c                   9.1293(18)
_cell_angle_alpha                90
_cell_angle_beta                 96.85(3)
_cell_angle_gamma                90
_cell_volume                     2655.91
loop_
_atom_site_label
_atom_site_type_symbol
_atom_site_fract_x
_atom_site_fract_y
_atom_site_fract_z
Yb1 Yb 0.50248(4) 0.186598(13) 0.87827(4)
Ni1 Ni 0.40183(11) 0.08296(4) 0.74795(13)
Cl1 Cl 0.5229(3) 0.08870(9) 0.5306(3)
O1 O 0.7463(6) 0.1712(2) 0.9414(7)
O2 O 0.5600(6) 0.1126(2) 0.8732(6)
O3 O 0.3446(6) 0.1506(2) 0.7211(7)
O4 O 0.2938(7) 0.2309(2) 0.8216(7)
O5 O 0.5752(7) 0.2610(2) 0.8379(7)
O6 O 0.5509(7) 0.2771(2) 0.6012(7)
O7 O 0.3027(6) 0.0832(2) 0.9403(7)
O8 O 0.3661(7) 0.1536(2) 1.0297(7)
O9 O 0.5962(7) 0.1834(2) 0.6541(8)
H1 H 0.5524 0.1644 0.5964
H2 H 0.5937 0.2089 0.6160
N1 N 0.4852(8) 0.0187(3) 0.7942(8)
N2 N 0.2383(8) 0.0644(3) 0.6060(9)
C1 C 0.8448(14) 0.2036(5) 1.0060(18)
H3 H 0.8574 0.1997 1.1112
H4 H 0.8145 0.2343 0.9827
H5 H 0.9281 0.1984 0.9672
C2 C 0.7921(10) 0.1266(4) 0.9132(13)
C3 C 0.9213(10) 0.1131(4) 0.9192(12)
H6 H 0.9897 0.1344 0.9409
C4 C 0.9512(11) 0.0685(4) 0.8934(14)
H7 H 1.0400 0.0592 0.8982
C5 C 0.8498(10) 0.0371(4) 0.8603(13)
H8 H 0.8715 0.0066 0.8433
C6 C 0.7131(9) 0.0500(4) 0.8513(10)
C7 C 0.6825(9) 0.0953(3) 0.8770(11)
C8 C 0.6145(10) 0.0147(3) 0.8275(10)
H9 H 0.6467 -0.0153 0.8370
C9 C 0.4114(11) -0.0263(3) 0.7925(12)
H10 H 0.4424 -0.0432 0.8816
H11 H 0.4329 -0.0444 0.7091
C10 C 0.2578(10) -0.0208(3) 0.7821(12)
H12 H 0.2211 -0.0466 0.8311
H13 H 0.2376 0.0069 0.8341
C11 C 0.1901(11) -0.0181(4) 0.6250(12)
H14 H 0.2018 -0.0473 0.5768
H15 H 0.0949 -0.0136 0.6275
C12 C 0.2413(12) 0.0195(4) 0.5343(12)
H16 H 0.3325 0.0125 0.5176
H17 H 0.1872 0.0207 0.4391
C13 C 0.1365(12) 0.0912(4) 0.5693(12)
H18 H 0.0699 0.0799 0.4993
C14 C 0.1159(10) 0.1361(4) 0.6247(11)
C15 C -0.0161(11) 0.1539(4) 0.5971(15)
H19 H -0.0828 0.1362 0.5452
C16 C -0.0472(14) 0.1969(5) 0.6457(18)
H20 H -0.1344 0.2078 0.6272
C17 C 0.0540(12) 0.2250(5) 0.7244(15)
H21 H 0.0331 0.2540 0.7570
C18 C 0.1841(10) 0.2082(3) 0.7518(11)
C19 C 0.2191(9) 0.1629(3) 0.6983(11)
C20 C 0.2701(15) 0.2758(4) 0.8781(16)
H22 H 0.1869 0.2758 0.9199
H23 H 0.2657 0.2978 0.7993
H24 H 0.3417 0.2838 0.9528
C21 C 0.5865(10) 0.2881(3) 0.7351(10)
C22 C 0.6375(13) 0.3358(4) 0.7720(12)
H25 H 0.6596 0.3385 0.8769
H26 H 0.5696 0.3578 0.7385
H27 H 0.7159 0.3414 0.7242
C23 C 0.3064(10) 0.1158(3) 1.0349(11)
C24 C 0.2388(11) 0.1066(4) 1.1728(13)
H28 H 0.1850 0.1325 1.1925
H29 H 0.3058 0.1015 1.2552
H30 H 0.1830 0.0798 1.1574
Yb1C Yb 0.50248(4) 0.313402(13) 0.37827(4)
O6C O 0.5509(7) 0.2229(2) 1.1012(7)
loop_
_geom_bond_atom_site_label_1
_geom_bond_atom_site_label_2
_geom_bond_site_symmetry_1
_geom_bond_site_symmetry_2
Yb1 O1 1_555 1_555
Ni1 Cl1 1_555 1_555
O1 C1 1_555 1_555
O2 Yb1 1_555 1_555
O3 Yb1 1_555 1_555
O4 Yb1 1_555 1_555
O5 Yb1 1_555 1_555
O6 C21 1_555 1_555
O7 Ni1 1_555 1_555
O8 Yb1 1_555 1_555
O9 Yb1 1_555 1_555
H1 O9 1_555 1_555
H2 O9 1_555 1_555
N1 Ni1 1_555 1_555
N2 Ni1 1_555 1_555
C1 H3 1_555 1_555
H4 C1 1_555 1_555
H5 C1 1_555 1_555
C2 O1 1_555 1_555
C3 C2 1_555 1_555
H6 C3 1_555 1_555
C4 C3 1_555 1_555
H7 C4 1_555 1_555
C5 C4 1_555 1_555
H8 C5 1_555 1_555
C6 C5 1_555 1_555
C7 O2 1_555 1_555
C8 N1 1_555 1_555
H9 C8 1_555 1_555
C9 N1 1_555 1_555
H10 C9 1_555 1_555
H11 C9 1_555 1_555
C10 C9 1_555 1_555
H12 C10 1_555 1_555
H13 C10 1_555 1_555
C11 C10 1_555 1_555
H14 C11 1_555 1_555
H15 C11 1_555 1_555
C12 N2 1_555 1_555
H16 C12 1_555 1_555
H17 C12 1_555 1_555
C13 N2 1_555 1_555
H18 C13 1_555 1_555
C14 C13 1_555 1_555
C15 C14 1_555 1_555
H19 C15 1_555 1_555
C16 C15 1_555 1_555
H20 C16 1_555 1_555
C17 C16 1_555 1_555
H21 C17 1_555 1_555
C18 O4 1_555 1_555
C19 O3 1_555 1_555
C20 O4 1_555 1_555
H22 C20 1_555 1_555
H23 C20 1_555 1_555
H24 C20 1_555 1_555
C21 O5 1_555 1_555
C22 C21 1_555 1_555
H25 C22 1_555 1_555
H26 C22 1_555 1_555
H27 C22 1_555 1_555
C23 O7 1_555 1_555
C24 C23 1_555 1_555
H28 C24 1_555 1_555
H29 C24 1_555 1_555
H30 C24 1_555 1_555
Yb1C O6 1_555 1_555
O6C Yb1 1_555 1_555
Ni1 O2 1_555 1_555
Ni1 O3 1_555 1_555
O8 C23 1_555 1_555
C2 C7 1_555 1_555
C6 C7 1_555 1_555
C6 C8 1_555 1_555
C11 C12 1_555 1_555
C14 C19 1_555 1_555
C17 C18 1_555 1_555
C18 C19 1_555 1_555

#END
