
#######################################################################
#
#                 Cambridge Crystallographic Data Centre
#                                CCDC 
#
#######################################################################
#
# If this CIF has been generated from an entry in the Cambridge 
# Structural Database, then it will include bibliographic, chemical, 
# crystal, experimental, refinement or atomic coordinate data resulting 
# from the CCDC's data processing and validation procedures.
#
#######################################################################

data_YALBAQ
_symmetry_cell_setting           triclinic
_symmetry_space_group_name_H-M   'P -1'
_symmetry_Int_Tables_number      2
_space_group_name_Hall           '-P 1'
loop_
_symmetry_equiv_pos_site_id
_symmetry_equiv_pos_as_xyz
1 x,y,z
2 -x,-y,-z
_cell_length_a                   8.815(5)
_cell_length_b                   12.074(5)
_cell_length_c                   13.158(4)
_cell_angle_alpha                108.260(5)
_cell_angle_beta                 90.776(4)
_cell_angle_gamma                98.218(5)
_cell_volume                     1313.72
loop_
_atom_site_label
_atom_site_type_symbol
_atom_site_fract_x
_atom_site_fract_y
_atom_site_fract_z
Eu1 Eu 0.06791(5) 0.16489(4) 0.09532(3)
N1 N 0.2123(9) 0.5235(7) 0.0258(6)
O1 O -0.0398(8) 0.3127(6) 0.2688(5)
O2 O 0.1017(7) 0.3693(5) 0.1134(5)
O3 O 0.3539(8) 0.2264(6) 0.1002(6)
O4 O 0.2554(8) 0.2071(7) 0.2479(6)
O5 O 0.1138(9) 0.1456(6) -0.0879(5)
O6 O 0.0725(8) -0.0471(6) -0.1876(5)
O7 O -0.1835(8) 0.2044(6) 0.0400(6)
O8 O -0.1610(7) 0.0182(5) -0.0315(5)
C1 C -0.0717(14) 0.2902(10) 0.3696(8)
H1 H -0.0192 0.3545 0.4280
H2 H -0.0367 0.2183 0.3688
H3 H -0.1803 0.2832 0.3782
C2 C -0.0436(11) 0.4266(8) 0.2658(8)
C3 C -0.1125(11) 0.5117(9) 0.3389(8)
H4 H -0.1644 0.4941 0.3943
C4 C -0.1032(14) 0.6227(10) 0.3287(10)
H5 H -0.1509 0.6789 0.3774
C5 C -0.0248(13) 0.6535(9) 0.2478(9)
H6 H -0.0189 0.7291 0.2428
C6 C 0.0457(10) 0.5665(8) 0.1735(8)
C7 C 0.0359(10) 0.4513(8) 0.1819(7)
C8 C 0.1387(11) 0.5988(9) 0.0934(8)
H7 H 0.1460 0.6752 0.0902
C9 C 0.3234(11) 0.5536(9) -0.0491(9)
H8 H 0.3099 0.6286 -0.0575
H9 H 0.3059 0.4935 -0.1190
C10 C 0.4855(13) 0.5609(10) -0.0037(11)
H10 H 0.5588 0.5796 -0.0515
H11 H 0.5009 0.6219 0.0645
C11 C 0.5308(13) 0.2561(15) 0.2456(12)
H12 H 0.5525 0.3378 0.2883
H13 H 0.6020 0.2402 0.1901
H14 H 0.5408 0.2077 0.2901
C12 C 0.3711(12) 0.2293(10) 0.1961(9)
C13 C 0.2369(13) 0.0850(10) -0.2519(9)
H15 H 0.2779 0.1675 -0.2309
H16 H 0.1785 0.0625 -0.3193
H17 H 0.3197 0.0398 -0.2591
C14 C 0.1328(11) 0.0612(8) -0.1665(8)
C15 C -0.3882(13) 0.0805(11) -0.0839(11)
H18 H -0.4426 0.0044 -0.0879
H19 H -0.3713 0.0834 -0.1551
H20 H -0.4477 0.1404 -0.0482
C16 C -0.2344(11) 0.1018(8) -0.0216(8)
Eu1A Eu 0.93209(5) 0.83511(4) -0.09532(3)
Eu1A_2 Eu -0.06791(5) -0.16489(4) -0.09532(3)
N1A N 0.7877(9) 0.4765(7) -0.0258(6)
O1A O 1.0398(8) 0.6873(6) -0.2688(5)
O2A O 0.8983(7) 0.6307(5) -0.1134(5)
O3A O 0.6461(8) 0.7736(6) -0.1002(6)
O4A O 0.7446(8) 0.7929(7) -0.2479(6)
O5A O -0.1138(9) -0.1456(6) 0.0879(5)
O5A_2 O 0.8862(9) 0.8544(6) 0.0879(5)
O6A O -0.0725(8) 0.0471(6) 0.1876(5)
O6_2 O 1.0725(8) 0.9529(6) -0.1876(5)
O7A O 0.1835(8) -0.2044(6) -0.0400(6)
O7A_2 O 1.1835(8) 0.7956(6) -0.0400(6)
O8A O 0.1610(7) -0.0182(5) 0.0315(5)
O8A_2 O 1.1610(7) 0.9818(5) 0.0315(5)
O8_2 O 0.8390(7) 1.0182(5) -0.0315(5)
C1A C 1.0717(14) 0.7098(10) -0.3696(8)
H1A H 1.0192 0.6455 -0.4280
H2A H 1.0367 0.7817 -0.3688
H3A H 1.1803 0.7168 -0.3782
C2A C 1.0436(11) 0.5734(8) -0.2658(8)
C3A C 1.1125(11) 0.4883(9) -0.3389(8)
H4A H 1.1644 0.5059 -0.3943
C4A C 1.1032(14) 0.3773(10) -0.3287(10)
H5A H 1.1509 0.3211 -0.3774
C5A C 1.0248(13) 0.3465(9) -0.2478(9)
H6A H 1.0189 0.2709 -0.2428
C6A C 0.9543(10) 0.4335(8) -0.1735(8)
C7A C 0.9641(10) 0.5487(8) -0.1819(7)
C8A C 0.8613(11) 0.4012(9) -0.0934(8)
H7A H 0.8540 0.3248 -0.0902
C9A C 0.6766(11) 0.4464(9) 0.0491(9)
H8A H 0.6901 0.3714 0.0575
H9A H 0.6941 0.5065 0.1190
C10A C 0.5145(13) 0.4391(10) 0.0037(11)
H10A H 0.4412 0.4204 0.0515
H11A H 0.4991 0.3781 -0.0645
C11A C 0.4692(13) 0.7439(15) -0.2456(12)
H12A H 0.4475 0.6622 -0.2883
H13A H 0.3980 0.7598 -0.1901
H14A H 0.4592 0.7923 -0.2901
C12A C 0.6289(12) 0.7707(10) -0.1961(9)
C13A C -0.2369(13) -0.0850(10) 0.2519(9)
H15A H -0.2779 -0.1675 0.2309
H16A H -0.1785 -0.0625 0.3193
H17A H -0.3197 -0.0398 0.2591
C14A C -0.1328(11) -0.0612(8) 0.1665(8)
C15A C 0.3882(13) -0.0805(11) 0.0839(11)
H18A H 0.4426 -0.0044 0.0879
H19A H 0.3713 -0.0834 0.1551
H20A H 0.4477 -0.1404 0.0482
C16A C 0.2344(11) -0.1018(8) 0.0216(8)
O9 O -0.304(2) 0.8035(17) 0.5490(14)
H21 H -0.2908 0.7947 0.6075
C17 C -0.161(5) 1.034(4) 0.615(4)
H22 H -0.1870 1.1097 0.6177
H23 H -0.0738 1.0196 0.5718
H24 H -0.1353 1.0343 0.6858
C18 C -0.299(4) 0.9366(18) 0.564(3)
H25 H -0.3203 0.9415 0.4931
H26 H -0.3854 0.9604 0.6053
O10 O 0.401(4) 0.589(3) 0.459(3)
O11? O 0.426(4) 0.608(3) 0.322(3)
loop_
_geom_bond_atom_site_label_1
_geom_bond_atom_site_label_2
_geom_bond_site_symmetry_1
_geom_bond_site_symmetry_2
Eu1 O1 1_555 1_555
N1 C8 1_555 1_555
O1 C1 1_555 1_555
O2 Eu1 1_555 1_555
O3 Eu1 1_555 1_555
O4 Eu1 1_555 1_555
O5 Eu1 1_555 1_555
O6 C14 1_555 1_555
O7 Eu1 1_555 1_555
O8 Eu1 1_555 1_555
C1 H1 1_555 1_555
H2 C1 1_555 1_555
H3 C1 1_555 1_555
C2 O1 1_555 1_555
C3 C2 1_555 1_555
H4 C3 1_555 1_555
C4 C3 1_555 1_555
H5 C4 1_555 1_555
C5 C4 1_555 1_555
H6 C5 1_555 1_555
C6 C5 1_555 1_555
C7 O2 1_555 1_555
C8 C6 1_555 1_555
H7 C8 1_555 1_555
C9 N1 1_555 1_555
H8 C9 1_555 1_555
H9 C9 1_555 1_555
C10 C9 1_555 1_555
H10 C10 1_555 1_555
H11 C10 1_555 1_555
C11 H12 1_555 1_555
H13 C11 1_555 1_555
H14 C11 1_555 1_555
C12 O3 1_555 1_555
C13 H15 1_555 1_555
H16 C13 1_555 1_555
H17 C13 1_555 1_555
C14 O5 1_555 1_555
C15 H18 1_555 1_555
H19 C15 1_555 1_555
H20 C15 1_555 1_555
C16 O7 1_555 1_555
O9 H21 1_555 1_555
C17 H22 1_555 1_555
H23 C17 1_555 1_555
H24 C17 1_555 1_555
C18 O9 1_555 1_555
H25 C18 1_555 1_555
H26 C18 1_555 1_555
Eu1A O1A 1_555 1_555
Eu1A_2 O6 1_555 1_555
N1A C8A 1_555 1_555
O1A C1A 1_555 1_555
O2A Eu1A 1_555 1_555
O3A Eu1A 1_555 1_555
O4A Eu1A 1_555 1_555
O5A Eu1A_2 1_555 1_555
O5A_2 Eu1A 1_555 1_555
O6A Eu1 1_555 1_555
O6_2 Eu1A 1_555 1_555
O7A Eu1A_2 1_555 1_555
O7A_2 Eu1A 1_555 1_555
O8A Eu1 1_555 1_555
O8A_2 Eu1A 1_555 1_555
O8_2 Eu1A 1_555 1_555
C1A H1A 1_555 1_555
H2A C1A 1_555 1_555
H3A C1A 1_555 1_555
C2A O1A 1_555 1_555
C3A C2A 1_555 1_555
H4A C3A 1_555 1_555
C4A C3A 1_555 1_555
H5A C4A 1_555 1_555
C5A C4A 1_555 1_555
H6A C5A 1_555 1_555
C6A C5A 1_555 1_555
C7A O2A 1_555 1_555
C8A C6A 1_555 1_555
H7A C8A 1_555 1_555
C9A N1A 1_555 1_555
H8A C9A 1_555 1_555
H9A C9A 1_555 1_555
C10A C10 1_555 1_555
H10A C10A 1_555 1_555
H11A C10A 1_555 1_555
C11A H12A 1_555 1_555
H13A C11A 1_555 1_555
H14A C11A 1_555 1_555
C12A O3A 1_555 1_555
C13A H15A 1_555 1_555
H16A C13A 1_555 1_555
H17A C13A 1_555 1_555
C14A O5A 1_555 1_555
C15A H18A 1_555 1_555
H19A C15A 1_555 1_555
H20A C15A 1_555 1_555
C16A O7A 1_555 1_555
O4 C12 1_555 1_555
O8 C16 1_555 1_555
O8 Eu1A_2 1_555 1_555
C2 C7 1_555 1_555
C6 C7 1_555 1_555
C11 C12 1_555 1_555
C13 C14 1_555 1_555
C15 C16 1_555 1_555
C17 C18 1_555 1_555
Eu1A_2 O8A 1_555 1_555
O4A C12A 1_555 1_555
O6A C14A 1_555 1_555
O8A C16A 1_555 1_555
C2A C7A 1_555 1_555
C6A C7A 1_555 1_555
C9A C10A 1_555 1_555
C11A C12A 1_555 1_555
C13A C14A 1_555 1_555
C15A C16A 1_555 1_555

#END
