
#######################################################################
#
#                 Cambridge Crystallographic Data Centre
#                                CCDC 
#
#######################################################################
#
# If this CIF has been generated from an entry in the Cambridge 
# Structural Database, then it will include bibliographic, chemical, 
# crystal, experimental, refinement or atomic coordinate data resulting 
# from the CCDC's data processing and validation procedures.
#
#######################################################################

data_YALCET
_symmetry_cell_setting           monoclinic
_symmetry_space_group_name_H-M   'P 21/c'
_symmetry_Int_Tables_number      14
_space_group_name_Hall           '-P 2ybc'
loop_
_symmetry_equiv_pos_site_id
_symmetry_equiv_pos_as_xyz
1 x,y,z
2 -x,1/2+y,1/2-z
3 -x,-y,-z
4 x,1/2-y,1/2+z
_cell_length_a                   12.607(4)
_cell_length_b                   10.697(3)
_cell_length_c                   11.138(4)
_cell_angle_alpha                90
_cell_angle_beta                 119.25(2)
_cell_angle_gamma                90
_cell_volume                     1310.52
loop_
_atom_site_label
_atom_site_type_symbol
_atom_site_fract_x
_atom_site_fract_y
_atom_site_fract_z
Co1 Co 0.0000 0.0000 0.5000
O1 O 0.1674(3) 0.5676(4) 0.0894(4)
N1 N 0.0580(4) 0.3696(4) 0.1672(5)
O2 O 0.0372(5) 0.1246(5) 0.3642(5)
N2 N 0.0661(4) 0.2184(4) 0.3192(5)
C1 C 0.2568(5) 0.5421(5) 0.2085(6)
C2 C 0.3669(6) 0.6288(6) 0.2572(7)
O3 O 0.4559(4) 0.6235(5) 0.3694(5)
O4 O 0.3513(4) 0.7129(5) 0.1622(5)
C3 C 0.4417(7) 0.8127(9) 0.2027(9)
C4 C 0.4196(8) 0.9110(8) 0.2819(12)
C5 C 0.2646(5) 0.4511(6) 0.2949(6)
C6 C 0.1673(5) 0.3690(5) 0.2730(5)
C7 C 0.1895(5) 0.2719(5) 0.3827(6)
C8 C 0.2220(6) 0.3287(6) 0.5214(6)
C9 C 0.2804(6) 0.1737(6) 0.3972(7)
C10 C 0.0187(5) 0.7233(5) -0.1840(6)
C11 C 0.1215(6) 0.6609(6) -0.1980(7)
C12 C 0.0671(6) 0.8231(6) -0.0734(6)
H1 H 0.429(6) 0.843(6) 0.116(7)
H2 H 0.522(7) 0.779(8) 0.247(8)
H3 H 0.417(6) 0.870(7) 0.349(7)
H4 H 0.487(11) 0.995(14) 0.324(12)
H5 H 0.339(9) 0.950(9) 0.206(10)
H6 H 0.095(6) 0.596(6) -0.260(7)
H7 H 0.180(5) 0.629(6) -0.108(6)
H8 H 0.160(5) 0.720(5) -0.220(5)
H9 H 0.009(5) 0.874(5) -0.069(5)
H10 H 0.122(6) 0.774(6) 0.004(6)
H11 H 0.122(7) 0.887(7) -0.095(8)
H12 H 0.222(5) 0.253(5) 0.590(5)
H13 H 0.167(6) 0.389(6) 0.510(6)
H14 H 0.309(6) 0.360(6) 0.568(7)
H15 H 0.282(6) 0.112(6) 0.451(7)
H16 H 0.263(6) 0.132(6) 0.319(7)
H17 H 0.371(6) 0.220(7) 0.433(7)
H18 H 0.334(4) 0.446(5) 0.372(5)
Co1A Co 0.0000 0.5000 0.0000
O1B O -0.1674(3) 0.4324(4) -0.0894(4)
C1B C -0.2568(5) 0.4579(5) -0.2085(6)
C2B C -0.3669(6) 0.3712(6) -0.2572(7)
O3B O -0.4559(4) 0.3765(5) -0.3694(5)
O4B O -0.3513(4) 0.2871(5) -0.1622(5)
C3B C -0.4417(7) 0.1873(9) -0.2027(9)
C4B C -0.4196(8) 0.0890(8) -0.2819(12)
H3B H -0.417(6) 0.130(7) -0.349(7)
H4B H -0.487(11) 0.005(14) -0.324(12)
H5B H -0.339(9) 0.050(9) -0.206(10)
H1B H -0.429(6) 0.157(6) -0.116(7)
H2B H -0.522(7) 0.221(8) -0.247(8)
C5B C -0.2646(5) 0.5489(6) -0.2949(6)
C6B C -0.1673(5) 0.6310(5) -0.2730(5)
N1B N -0.0580(4) 0.6304(4) -0.1672(5)
O2A O -0.0372(5) 0.6246(5) 0.1358(5)
O2C O 0.0372(5) 0.3754(5) -0.1358(5)
N2B N -0.0661(4) 0.7816(4) -0.3192(5)
O2B O -0.0372(5) 0.8754(5) -0.3642(5)
Co1B Co 0.0000 1.0000 -0.5000
C7B C -0.1895(5) 0.7281(5) -0.3827(6)
C8B C -0.2220(6) 0.6713(6) -0.5214(6)
H12B H -0.222(5) 0.747(5) -0.590(5)
H13B H -0.167(6) 0.611(6) -0.510(6)
H14B H -0.309(6) 0.640(6) -0.568(7)
C9B C -0.2804(6) 0.8263(6) -0.3972(7)
H15B H -0.282(6) 0.888(6) -0.451(7)
H16B H -0.263(6) 0.868(6) -0.319(7)
H17B H -0.371(6) 0.780(7) -0.433(7)
H18B H -0.334(4) 0.554(5) -0.372(5)
C10B C -0.0187(5) 0.2767(5) 0.1840(6)
C11B C -0.1215(6) 0.3391(6) 0.1980(7)
H6B H -0.095(6) 0.404(6) 0.260(7)
H7B H -0.180(5) 0.371(6) 0.108(6)
H8B H -0.160(5) 0.280(5) 0.220(5)
C12B C -0.0671(6) 0.1769(6) 0.0734(6)
H9B H -0.009(5) 0.126(5) 0.069(5)
H10B H -0.122(6) 0.226(6) -0.004(6)
H11B H -0.122(7) 0.113(7) 0.095(8)
loop_
_geom_bond_atom_site_label_1
_geom_bond_atom_site_label_2
_geom_bond_site_symmetry_1
_geom_bond_site_symmetry_2
Co1 O2 1_555 1_555
O1 C1 1_555 1_555
N1 C6 1_555 1_555
O2 N2 1_555 1_555
N2 C7 1_555 1_555
C1 C2 1_555 1_555
C2 O3 1_555 1_555
O4 C2 1_555 1_555
C3 O4 1_555 1_555
C4 C3 1_555 1_555
C5 C1 1_555 1_555
C6 C5 1_555 1_555
C7 C6 1_555 1_555
C8 C7 1_555 1_555
C9 C7 1_555 1_555
C10 C11 1_555 1_555
C11 H6 1_555 1_555
C12 C10 1_555 1_555
H1 C3 1_555 1_555
H2 C3 1_555 1_555
H3 C4 1_555 1_555
H4 C4 1_555 1_555
H5 C4 1_555 1_555
H7 C11 1_555 1_555
H8 C11 1_555 1_555
H9 C12 1_555 1_555
H10 C12 1_555 1_555
H11 C12 1_555 1_555
H12 C8 1_555 1_555
H13 C8 1_555 1_555
H14 C8 1_555 1_555
H15 C9 1_555 1_555
H16 C9 1_555 1_555
H17 C9 1_555 1_555
H18 C5 1_555 1_555
Co1A O1 1_555 1_555
O1B Co1A 1_555 1_555
C1B O1B 1_555 1_555
C2B C1B 1_555 1_555
O3B C2B 1_555 1_555
O4B C2B 1_555 1_555
C3B O4B 1_555 1_555
C4B C3B 1_555 1_555
H3B C4B 1_555 1_555
H4B C4B 1_555 1_555
H5B C4B 1_555 1_555
H1B C3B 1_555 1_555
H2B C3B 1_555 1_555
C5B C1B 1_555 1_555
C6B C5B 1_555 1_555
N1B C10 1_555 1_555
O2A Co1A 1_555 1_555
O2C Co1A 1_555 1_555
N2B C10 1_555 1_555
O2B N2B 1_555 1_555
Co1B O2B 1_555 1_555
C7B C6B 1_555 1_555
C8B C7B 1_555 1_555
H12B C8B 1_555 1_555
H13B C8B 1_555 1_555
H14B C8B 1_555 1_555
C9B C7B 1_555 1_555
H15B C9B 1_555 1_555
H16B C9B 1_555 1_555
H17B C9B 1_555 1_555
H18B C5B 1_555 1_555
C10B N1 1_555 1_555
C11B C10B 1_555 1_555
H6B C11B 1_555 1_555
H7B C11B 1_555 1_555
H8B C11B 1_555 1_555
C12B C10B 1_555 1_555
H9B C12B 1_555 1_555
H10B C12B 1_555 1_555
H11B C12B 1_555 1_555
N1 Co1A 1_555 1_555
N2 C10B 1_555 1_555
Co1A N1B 1_555 1_555
C6B N1B 1_555 1_555
N2B C7B 1_555 1_555

#END
