
#######################################################################
#
#                 Cambridge Crystallographic Data Centre
#                                CCDC 
#
#######################################################################
#
# If this CIF has been generated from an entry in the Cambridge 
# Structural Database, then it will include bibliographic, chemical, 
# crystal, experimental, refinement or atomic coordinate data resulting 
# from the CCDC's data processing and validation procedures.
#
#######################################################################

data_YALCEU
_symmetry_cell_setting           triclinic
_symmetry_space_group_name_H-M   'P -1'
_symmetry_Int_Tables_number      2
_space_group_name_Hall           '-P 1'
loop_
_symmetry_equiv_pos_site_id
_symmetry_equiv_pos_as_xyz
1 x,y,z
2 -x,-y,-z
_cell_length_a                   8.1686(16)
_cell_length_b                   10.4479(18)
_cell_length_c                   10.8106(17)
_cell_angle_alpha                62.257(7)
_cell_angle_beta                 69.159(7)
_cell_angle_gamma                80.817(9)
_cell_volume                     763.119
loop_
_atom_site_label
_atom_site_type_symbol
_atom_site_fract_x
_atom_site_fract_y
_atom_site_fract_z
Ag1 Ag -0.12594(3) -0.11802(2) 0.00650(2)
Ag2 Ag -0.48059(3) -0.13813(2) -0.02111(2)
Ag3 Ag -0.25860(3) -0.39793(2) 0.00435(2)
C1 C -0.4455(4) -0.2316(3) 0.2837(3)
C2 C -0.5205(3) -0.3125(3) 0.4498(3)
C3 C -0.6857(4) -0.3753(3) 0.5175(3)
H1 H -0.7557 -0.3655 0.4598
C4 C -0.7484(4) -0.4525(3) 0.6697(3)
H2 H -0.8625 -0.4938 0.7146
C5 C -0.4931(4) -0.4105(3) 0.6909(3)
H3 H -0.4255 -0.4215 0.7508
C6 C -0.4228(4) -0.3325(3) 0.5392(3)
H4 H -0.3081 -0.2927 0.4965
C7 C -0.2646(3) -0.1476(3) -0.3028(3)
C8 C -0.1855(3) -0.0897(3) -0.4687(3)
C9 C -0.0378(4) -0.1542(3) -0.5291(3)
H5 H 0.0103 -0.2374 -0.4662
C10 C 0.0398(4) -0.0975(3) -0.6809(3)
H6 H 0.1404 -0.1434 -0.7204
C11 C -0.1688(4) 0.0807(3) -0.7160(3)
H7 H -0.2164 0.1620 -0.7811
C12 C -0.2535(4) 0.0297(3) -0.5650(3)
H8 H -0.3561 0.0756 -0.5283
N1 N -0.6536(3) -0.4713(2) 0.7567(2)
N2 N -0.0232(3) 0.0209(3) -0.7744(2)
O1 O -0.3880(3) -0.0777(2) -0.2554(2)
O2 O -0.1951(3) -0.2602(2) -0.2293(2)
O3 O -0.2865(3) -0.1973(2) 0.2326(2)
O4 O -0.5484(3) -0.2098(2) 0.2131(2)
Ag1A Ag 0.12594(3) 0.11802(2) -1.00650(2)
Ag2A Ag -0.51941(3) 0.13813(2) 0.02111(2)
Ag3A Ag -0.74140(3) -0.60207(2) 0.99565(2)
N1A N -0.3464(3) -0.5287(2) 0.2433(2)
N2A N 0.0232(3) -0.0209(3) -0.2256(2)
N3 N -0.2065(3) 0.3235(3) 0.9549(2)
O5 O -0.0793(3) 0.3806(2) 0.9499(2)
O6 O -0.1871(3) 0.2067(2) 0.9446(2)
O7 O -0.3544(3) 0.3817(2) 0.9737(2)
loop_
_geom_bond_atom_site_label_1
_geom_bond_atom_site_label_2
_geom_bond_site_symmetry_1
_geom_bond_site_symmetry_2
Ag1 Ag2 1_555 1_555
Ag2 Ag3 1_555 1_555
Ag3 Ag1 1_555 1_555
C1 C2 1_555 1_555
C2 C3 1_555 1_555
C3 H1 1_555 1_555
C4 C3 1_555 1_555
H2 C4 1_555 1_555
C5 H3 1_555 1_555
C6 C2 1_555 1_555
H4 C6 1_555 1_555
C7 C8 1_555 1_555
C8 C9 1_555 1_555
C9 H5 1_555 1_555
C10 C9 1_555 1_555
H6 C10 1_555 1_555
C11 H7 1_555 1_555
C12 C8 1_555 1_555
H8 C12 1_555 1_555
N1 C4 1_555 1_555
N2 C10 1_555 1_555
N3 O5 1_555 1_555
O1 Ag2 1_555 1_555
O2 Ag3 1_555 1_555
O3 Ag1 1_555 1_555
O4 Ag2 1_555 1_555
O6 N3 1_555 1_555
O7 N3 1_555 1_555
Ag1A N2 1_555 1_555
Ag2A Ag2 1_555 1_555
Ag3A N1 1_555 1_555
N1A Ag3 1_555 1_555
N2A Ag1 1_555 1_555
C1 O3 1_555 1_555
C1 O4 1_555 1_555
C5 C6 1_555 1_555
C5 N1 1_555 1_555
C7 O1 1_555 1_555
C7 O2 1_555 1_555
C11 C12 1_555 1_555
C11 N2 1_555 1_555

#END
