
#######################################################################
#
#                 Cambridge Crystallographic Data Centre
#                                CCDC 
#
#######################################################################
#
# If this CIF has been generated from an entry in the Cambridge 
# Structural Database, then it will include bibliographic, chemical, 
# crystal, experimental, refinement or atomic coordinate data resulting 
# from the CCDC's data processing and validation procedures.
#
#######################################################################

data_YALCIX
_symmetry_cell_setting           monoclinic
_symmetry_space_group_name_H-M   'P 21'
_symmetry_Int_Tables_number      4
_space_group_name_Hall           'P 2yb'
loop_
_symmetry_equiv_pos_site_id
_symmetry_equiv_pos_as_xyz
1 x,y,z
2 -x,1/2+y,-z
_cell_length_a                   11.939(3)
_cell_length_b                   10.884(2)
_cell_length_c                   11.459(2)
_cell_angle_alpha                90
_cell_angle_beta                 113.76(2)
_cell_angle_gamma                90
_cell_volume                     1362.82
loop_
_atom_site_label
_atom_site_type_symbol
_atom_site_fract_x
_atom_site_fract_y
_atom_site_fract_z
Cu1 Cu -0.0071(2) 0.1431(4) 0.2461(2)
O1 O 0.1608(7) 0.0713(7) 0.3172(7)
N1 N 0.0570(8) 0.2676(8) 0.1525(10)
O2 O 0.0479(10) 0.5254(9) -0.0422(10)
N2 N 0.0690(12) 0.4339(12) 0.0304(12)
C1 C 0.2524(11) 0.1004(10) 0.3010(9)
C2 C 0.3618(13) 0.0108(12) 0.3519(12)
O3 O 0.4554(9) 0.0212(9) 0.3405(11)
O4 O 0.3434(9) -0.0683(9) 0.4331(10)
C3 C 0.4367(15) -0.1481(12) 0.4989(16)
C4 C 0.4190(21) -0.2569(19) 0.3992(26)
C5 C 0.2658(11) 0.1908(11) 0.2244(9)
C6 C 0.1670(10) 0.2742(10) 0.1589(9)
C7 C 0.1907(11) 0.3751(10) 0.0788(10)
C8 C 0.2273(15) 0.3231(15) -0.0314(13)
C9 C 0.2929(16) 0.4628(13) 0.1549(14)
C10 C -0.0254(12) 0.3658(11) 0.0592(12)
C11 C -0.1259(12) 0.3203(10) -0.0473(12)
C12 C -0.0645(13) 0.4669(11) 0.1300(13)
H1 H 0.525(2) -0.104(1) 0.525(2)
H2 H 0.428(2) -0.181(1) 0.584(2)
H3 H 0.489(2) -0.326(2) 0.442(3)
H4 H 0.426(2) -0.221(2) 0.314(3)
H5 H 0.330(2) -0.298(2) 0.374(3)
H6 H 0.158(2) 0.260(1) -0.090(1)
H7 H 0.314(2) 0.276(1) 0.011(1)
H8 H 0.235(2) 0.398(1) -0.090(1)
H9 H 0.274(2) 0.502(1) 0.231(1)
H10 H 0.299(2) 0.535(1) 0.094(1)
H11 H 0.378(2) 0.413(1) 0.194(1)
H12 H -0.095(1) 0.250(1) -0.094(1)
H13 H -0.167(1) 0.394(1) -0.113(1)
H14 H -0.193(1) 0.282(1) -0.016(1)
H15 H -0.134(1) 0.431(1) 0.158(1)
H16 H -0.100(1) 0.544(1) 0.067(1)
H17 H 0.014(1) 0.496(1) 0.214(1)
H18 H 0.320(8) 0.187(8) 0.196(8)
O5 O -0.1580(9) 0.2172(9) 0.1775(8)
N3 N -0.0571(9) 0.0153(9) 0.3469(7)
O6 O -0.0357(9) -0.2166(8) 0.5643(9)
N4 N -0.0687(8) -0.1290(7) 0.4882(8)
C13 C -0.2548(12) 0.1952(13) 0.2071(14)
C14 C -0.3649(14) 0.2761(11) 0.1365(14)
O7 O -0.4532(10) 0.2764(11) 0.1693(12)
O8 O -0.3485(9) 0.3620(10) 0.0673(11)
C15 C -0.4412(15) 0.4731(13) 0.0219(18)
C16 C -0.4169(20) 0.5633(16) 0.1128(22)
C17 C -0.2633(14) 0.1014(14) 0.2749(15)
C18 C -0.1701(13) 0.0196(12) 0.3476(14)
C19 C -0.1930(12) -0.0754(12) 0.4303(12)
C20 C -0.2797(13) -0.1783(14) 0.3483(13)
C21 C -0.2228(14) -0.0243(13) 0.5301(12)
C22 C 0.0159(11) -0.0784(10) 0.4330(10)
C23 C 0.1189(14) -0.0102(13) 0.5563(11)
C24 C 0.0581(14) -0.1728(12) 0.3645(13)
H19 H -0.533(2) 0.439(1) -0.002(2)
H20 H -0.436(2) 0.513(1) -0.062(2)
H21 H -0.483(2) 0.637(3) 0.077(2)
H22 H -0.326(2) 0.599(2) 0.137(2)
H23 H -0.423(2) 0.524(2) 0.197(2)
H24 H -0.372(1) -0.143(1) 0.304(1)
H25 H -0.278(1) -0.255(1) 0.409(1)
H26 H -0.250(1) -0.208(1) 0.275(1)
H27 H -0.313(1) 0.015(1) 0.489(1)
H28 H -0.157(1) 0.046(1) 0.580(1)
H29 H -0.220(1) -0.096(1) 0.596(1)
H30 H 0.187(1) 0.031(1) 0.529(1)
H31 H 0.162(1) -0.076(1) 0.631(1)
H32 H 0.076(1) 0.060(1) 0.590(1)
H33 H 0.112(1) -0.242(1) 0.431(1)
H34 H 0.113(1) -0.129(1) 0.321(1)
H35 H -0.021(1) -0.216(1) 0.291(1)
H36 H -0.354(14) 0.070(14) 0.234(14)
O2A O -0.0479(10) 0.0254(9) 0.0422(10)
O6A O 0.0357(9) 0.2834(8) 0.4357(9)
Cu1A Cu 0.0071(2) 0.6431(4) -0.2461(2)
Cu1A_2 Cu 0.0071(2) -0.3569(4) 0.7539(2)
loop_
_geom_bond_atom_site_label_1
_geom_bond_atom_site_label_2
_geom_bond_site_symmetry_1
_geom_bond_site_symmetry_2
Cu1 O1 1_555 1_555
O1 C1 1_555 1_555
N1 Cu1 1_555 1_555
O2 N2 1_555 1_555
N2 C7 1_555 1_555
C1 C2 1_555 1_555
C2 O3 1_555 1_555
O4 C2 1_555 1_555
C3 O4 1_555 1_555
C4 C3 1_555 1_555
C5 C1 1_555 1_555
C6 N1 1_555 1_555
C7 C6 1_555 1_555
C8 C7 1_555 1_555
C9 C7 1_555 1_555
C10 N1 1_555 1_555
C11 C10 1_555 1_555
C12 C10 1_555 1_555
H1 C3 1_555 1_555
H2 C3 1_555 1_555
H3 C4 1_555 1_555
H4 C4 1_555 1_555
H5 C4 1_555 1_555
H6 C8 1_555 1_555
H7 C8 1_555 1_555
H8 C8 1_555 1_555
H9 C9 1_555 1_555
H10 C9 1_555 1_555
H11 C9 1_555 1_555
H12 C11 1_555 1_555
H13 C11 1_555 1_555
H14 C11 1_555 1_555
H15 C12 1_555 1_555
H16 C12 1_555 1_555
H17 C12 1_555 1_555
H18 C5 1_555 1_555
O5 Cu1 1_555 1_555
N3 Cu1 1_555 1_555
O6 N4 1_555 1_555
N4 C19 1_555 1_555
C13 O5 1_555 1_555
C14 C13 1_555 1_555
O7 C14 1_555 1_555
O8 C14 1_555 1_555
C15 O8 1_555 1_555
C16 C15 1_555 1_555
C17 C13 1_555 1_555
C18 N3 1_555 1_555
C19 C18 1_555 1_555
C20 C19 1_555 1_555
C21 C19 1_555 1_555
C22 N3 1_555 1_555
C23 C22 1_555 1_555
C24 C22 1_555 1_555
H19 C15 1_555 1_555
H20 C15 1_555 1_555
H21 C16 1_555 1_555
H22 C16 1_555 1_555
H23 C16 1_555 1_555
H24 C20 1_555 1_555
H25 C20 1_555 1_555
H26 C20 1_555 1_555
H27 C21 1_555 1_555
H28 C21 1_555 1_555
H29 C21 1_555 1_555
H30 C23 1_555 1_555
H31 C23 1_555 1_555
H32 C23 1_555 1_555
H33 C24 1_555 1_555
H34 C24 1_555 1_555
H35 C24 1_555 1_555
H36 C17 1_555 1_555
O2A Cu1 1_555 1_555
O6A Cu1 1_555 1_555
Cu1A O2 1_555 1_555
Cu1A_2 O6 1_555 1_555
N2 C10 1_555 1_555
C5 C6 1_555 1_555
N4 C22 1_555 1_555
C17 C18 1_555 1_555

#END
