
#######################################################################
#
#                 Cambridge Crystallographic Data Centre
#                                CCDC 
#
#######################################################################
#
# If this CIF has been generated from an entry in the Cambridge 
# Structural Database, then it will include bibliographic, chemical, 
# crystal, experimental, refinement or atomic coordinate data resulting 
# from the CCDC's data processing and validation procedures.
#
#######################################################################

data_YALJUS
_symmetry_cell_setting           monoclinic
_symmetry_space_group_name_H-M   'P 21/c'
_symmetry_Int_Tables_number      14
_space_group_name_Hall           '-P 2ybc'
loop_
_symmetry_equiv_pos_site_id
_symmetry_equiv_pos_as_xyz
1 x,y,z
2 -x,1/2+y,1/2-z
3 -x,-y,-z
4 x,1/2-y,1/2+z
_cell_length_a                   9.1017(8)
_cell_length_b                   22.248(2)
_cell_length_c                   7.3831(6)
_cell_angle_alpha                90
_cell_angle_beta                 113.8290(10)
_cell_angle_gamma                90
_cell_volume                     1367.59
loop_
_atom_site_label
_atom_site_type_symbol
_atom_site_fract_x
_atom_site_fract_y
_atom_site_fract_z
Pb1 Pb 0.66456(3) 0.199547(12) 0.68455(4)
Br1 Br 0.86344(10) 0.30158(4) 0.60898(13)
Br2 Br 0.42957(10) 0.27281(4) 0.74809(12)
N1 N 0.5193(6) 0.0992(3) 0.7013(8)
N2 N 0.3458(6) 0.0232(3) 0.6112(8)
H1 H 0.2571 0.0041 0.5517
N3 N 0.1004(6) 0.1198(2) 0.5208(8)
N4 N 0.0029(7) 0.0710(3) 0.4596(9)
N5 N -0.1091(7) 0.0797(3) 0.5244(10)
N6 N -0.0884(7) 0.1319(3) 0.6222(10)
C1 C 0.3697(8) 0.0825(3) 0.5956(10)
C2 C 0.4894(7) -0.0011(3) 0.7398(10)
C3 C 0.5966(7) 0.0464(3) 0.7917(10)
C4 C 0.7569(8) 0.0363(4) 0.9267(10)
H2 H 0.8315 0.0675 0.9659
C5 C 0.7983(9) -0.0204(4) 0.9973(11)
H3 H 0.9033 -0.0281 1.0856
C6 C 0.6876(9) -0.0669(4) 0.9410(11)
H4 H 0.7212 -0.1051 0.9926
C7 C 0.5312(8) -0.0589(3) 0.8128(11)
H5 H 0.4573 -0.0903 0.7767
C8 C 0.2387(7) 0.1250(4) 0.4693(10)
H6 H 0.2785 0.1659 0.4906
H7 H 0.2069 0.1153 0.3305
C9 C 0.0421(8) 0.1554(3) 0.6181(11)
H8 H 0.0869 0.1918 0.6754
Pb1C Pb 0.66456(3) 0.300453(12) 0.18455(4)
Pb1C_2 Pb 0.66456(3) 0.300453(12) 1.18455(4)
Br1C Br 0.86344(10) 0.19842(4) 1.10898(13)
Br2C Br 0.42957(10) 0.22719(4) 0.24809(12)
loop_
_geom_bond_atom_site_label_1
_geom_bond_atom_site_label_2
_geom_bond_site_symmetry_1
_geom_bond_site_symmetry_2
Pb1 Br1 1_555 1_555
Br1 Pb1C 1_555 1_555
Br2 Pb1 1_555 1_555
N1 Pb1 1_555 1_555
N2 H1 1_555 1_555
N3 N4 1_555 1_555
N4 N5 1_555 1_555
N5 N6 1_555 1_555
N6 C9 1_555 1_555
C1 N1 1_555 1_555
C2 N2 1_555 1_555
C3 N1 1_555 1_555
C4 C3 1_555 1_555
H2 C4 1_555 1_555
C5 C4 1_555 1_555
H3 C5 1_555 1_555
C6 C5 1_555 1_555
H4 C6 1_555 1_555
C7 C2 1_555 1_555
H5 C7 1_555 1_555
C8 N3 1_555 1_555
H6 C8 1_555 1_555
H7 C8 1_555 1_555
C9 N3 1_555 1_555
H8 C9 1_555 1_555
Pb1C Br2C 1_555 1_555
Pb1C_2 Br2 1_555 1_555
Br1C Pb1 1_555 1_555
Br2C Pb1 1_555 1_555
N2 C1 1_555 1_555
C1 C8 1_555 1_555
C2 C3 1_555 1_555
C6 C7 1_555 1_555
Pb1C_2 Br1C 1_555 1_555

#END
