
#######################################################################
#
#                 Cambridge Crystallographic Data Centre
#                                CCDC 
#
#######################################################################
#
# If this CIF has been generated from an entry in the Cambridge 
# Structural Database, then it will include bibliographic, chemical, 
# crystal, experimental, refinement or atomic coordinate data resulting 
# from the CCDC's data processing and validation procedures.
#
#######################################################################

data_YALKIH
_symmetry_cell_setting           triclinic
_symmetry_space_group_name_H-M   'P -1'
_symmetry_Int_Tables_number      2
_space_group_name_Hall           '-P 1'
loop_
_symmetry_equiv_pos_site_id
_symmetry_equiv_pos_as_xyz
1 x,y,z
2 -x,-y,-z
_cell_length_a                   7.7002(8)
_cell_length_b                   13.6772(14)
_cell_length_c                   17.6436(18)
_cell_angle_alpha                89.560(2)
_cell_angle_beta                 78.9430(10)
_cell_angle_gamma                80.0390(10)
_cell_volume                     1795.57
loop_
_atom_site_label
_atom_site_type_symbol
_atom_site_fract_x
_atom_site_fract_y
_atom_site_fract_z
Ag1 Ag 0.53152(5) 0.77283(2) 0.44576(2)
Ag2 Ag 1.10021(6) 0.74853(3) 0.09888(2)
N1 N 0.6556(5) 0.6251(2) 0.4542(2)
N2 N 0.7306(5) 0.4624(2) 0.4381(2)
H1 H 0.7478 0.4043 0.4166
N3 N 0.7783(5) 0.5575(3) 0.2679(2)
N4 N 0.8217(6) 0.6446(3) 0.2434(3)
N5 N 0.9611(6) 0.6238(4) 0.1884(2)
N6 N 1.0116(6) 0.5239(4) 0.1763(2)
N7 N 0.3865(5) 0.9171(2) 0.4422(2)
N8 N 0.2645(5) 1.0560(3) 0.3953(2)
H2 H 0.2367 1.0995 0.3622
N9 N 0.3552(5) 0.8676(2) 0.26810(19)
N10 N 0.3596(6) 0.7730(3) 0.2901(2)
N11 N 0.2598(6) 0.7352(3) 0.2519(2)
N12 N 0.1896(6) 0.8042(3) 0.2055(2)
N13 N 1.3027(5) 0.6966(3) -0.0078(2)
N14 N 1.5386(5) 0.6720(3) -0.1048(2)
H3 H 1.6303 0.6841 -0.1374
N15 N 1.5984(5) 0.8414(3) 0.0097(2)
N16 N 1.5489(7) 0.8768(5) 0.0823(3)
N17 N 1.6887(7) 0.8651(5) 0.1121(3)
N18 N 1.8319(6) 0.8218(3) 0.0600(2)
C1 C 0.6687(5) 0.5483(3) 0.4073(2)
C2 C 0.7616(5) 0.4834(3) 0.5099(2)
C3 C 0.7138(5) 0.5864(3) 0.5198(2)
C4 C 0.7288(6) 0.6324(3) 0.5881(3)
H12 H 0.6983 0.7010 0.5954
C5 C 0.7894(7) 0.5738(4) 0.6438(3)
H13 H 0.8004 0.6031 0.6896
C6 C 0.8354(6) 0.4709(4) 0.6336(3)
H14 H 0.8761 0.4332 0.6729
C7 C 0.8222(6) 0.4239(3) 0.5673(3)
H15 H 0.8523 0.3553 0.5608
C8 C 0.6229(6) 0.5526(3) 0.3290(3)
H16 H 0.5731 0.4942 0.3200
H17 H 0.5315 0.6104 0.3268
C9 C 0.8952(6) 0.4854(4) 0.2258(3)
H18 H 0.8938 0.4178 0.2310
C10 C 0.3699(5) 0.9680(3) 0.3797(2)
C11 C 0.2078(6) 1.0649(3) 0.4743(2)
C12 C 0.2837(5) 0.9770(3) 0.5035(2)
C13 C 0.2540(7) 0.9618(4) 0.5825(3)
H19 H 0.3039 0.9029 0.6028
C14 C 0.1477(7) 1.0375(4) 0.6293(3)
H20 H 0.1236 1.0294 0.6825
C15 C 0.0754(7) 1.1258(4) 0.5992(3)
H21 H 0.0067 1.1761 0.6329
C16 C 0.1018(7) 1.1411(4) 0.5221(3)
H22 H 0.0510 1.2000 0.5023
C17 C 0.4584(6) 0.9325(4) 0.2995(3)
H23 H 0.4692 0.9892 0.2666
H24 H 0.5785 0.8965 0.2998
C18 C 0.2508(6) 0.8848(3) 0.2170(2)
H25 H 0.2248 0.9448 0.1928
C19 C 1.4324(6) 0.7360(4) -0.0494(2)
C20 C 1.4731(6) 0.5850(3) -0.0992(2)
C21 C 1.3255(6) 0.6005(3) -0.0376(2)
C22 C 1.2281(7) 0.5253(4) -0.0153(3)
H26 H 1.1301 0.5347 0.0256
C23 C 1.2814(7) 0.4369(4) -0.0556(3)
H27 H 1.2174 0.3855 -0.0420
C24 C 1.4285(7) 0.4217(4) -0.1162(3)
H28 H 1.4607 0.3601 -0.1419
C25 C 1.5272(7) 0.4938(4) -0.1394(3)
H29 H 1.6256 0.4830 -0.1800
C26 C 1.4645(7) 0.8394(4) -0.0394(3)
H30 H 1.5067 0.8655 -0.0896
H31 H 1.3525 0.8815 -0.0161
C27 C 1.7730(7) 0.8092(4) -0.0022(3)
H32 H 1.8431 0.7814 -0.0484
Ag2_2 Ag 0.10021(6) 0.74853(3) 0.09888(2)
Ag2_3 Ag 2.10021(6) 0.74853(3) 0.09888(2)
N12_2 N 1.1896(6) 0.8042(3) 0.2055(2)
N18_2 N 0.8319(6) 0.8218(3) 0.0600(2)
S1 S 0.1531(2) 0.18069(10) 0.22396(7)
O1 O 0.0898(6) 0.1851(3) 0.3064(2)
O2 O 0.1471(11) 0.2746(4) 0.1878(4)
O3 O 0.0494(17) 0.1195(8) 0.1915(6)
O4 O 0.3407(16) 0.1247(7) 0.2105(6)
O5 O 0.7633(6) 0.2884(3) 0.3678(4)
H4 H 0.8710 0.2593 0.3521
H5 H 0.6974 0.2666 0.3407
O6 O 0.0762(13) -0.0108(6) 0.0671(5)
H6 H 0.1228 0.0253 0.0936
H7 H 0.0829 0.0123 0.0219
O7 O 0.7762(18) 0.0632(10) 0.1809(7)
H8 H 0.8453 0.0948 0.1993
H9 H 0.8382 0.0303 0.1412
O8 O 0.5861(14) 0.2056(8) 0.2737(5)
H10 H 0.4879 0.2237 0.2582
H11 H 0.6503 0.1596 0.2434
H33? H 0.8802 0.0764 0.1807
H34? H 0.6998 0.1058 0.2102
H35? H 0.6853 0.2126 0.2453
O9? O 0.218(3) 0.2765(12) 0.2125(12)
O10? O -0.024(4) 0.216(2) 0.1961(15)
O11? O 0.224(4) 0.0966(18) 0.1806(15)
loop_
_geom_bond_atom_site_label_1
_geom_bond_atom_site_label_2
_geom_bond_site_symmetry_1
_geom_bond_site_symmetry_2
Ag1 N1 1_555 1_555
Ag2 N5 1_555 1_555
S1 O1 1_555 1_555
N1 C1 1_555 1_555
N2 H1 1_555 1_555
N3 N4 1_555 1_555
N4 N5 1_555 1_555
N5 N6 1_555 1_555
N6 C9 1_555 1_555
N7 Ag1 1_555 1_555
N8 H2 1_555 1_555
N9 N10 1_555 1_555
N10 N11 1_555 1_555
N11 N12 1_555 1_555
N12 C18 1_555 1_555
N13 Ag2 1_555 1_555
N14 H3 1_555 1_555
N15 N16 1_555 1_555
N16 N17 1_555 1_555
N17 N18 1_555 1_555
N18 C27 1_555 1_555
O2 S1 1_555 1_555
O3 S1 1_555 1_555
O4 S1 1_555 1_555
O5 H4 1_555 1_555
H5 O5 1_555 1_555
O6 H6 1_555 1_555
H7 O6 1_555 1_555
O7 H8 1_555 1_555
H9 O7 1_555 1_555
O8 H10 1_555 1_555
H11 O8 1_555 1_555
C1 N2 1_555 1_555
C2 N2 1_555 1_555
C3 N1 1_555 1_555
C4 C3 1_555 1_555
H12 C4 1_555 1_555
C5 C4 1_555 1_555
H13 C5 1_555 1_555
C6 C5 1_555 1_555
H14 C6 1_555 1_555
C7 C2 1_555 1_555
H15 C7 1_555 1_555
C8 N3 1_555 1_555
H16 C8 1_555 1_555
H17 C8 1_555 1_555
C9 N3 1_555 1_555
H18 C9 1_555 1_555
C10 N7 1_555 1_555
C11 N8 1_555 1_555
C12 N7 1_555 1_555
C13 C12 1_555 1_555
H19 C13 1_555 1_555
C14 C13 1_555 1_555
H20 C14 1_555 1_555
C15 C14 1_555 1_555
H21 C15 1_555 1_555
C16 C11 1_555 1_555
H22 C16 1_555 1_555
C17 N9 1_555 1_555
H23 C17 1_555 1_555
H24 C17 1_555 1_555
C18 N9 1_555 1_555
H25 C18 1_555 1_555
C19 N13 1_555 1_555
C20 N14 1_555 1_555
C21 N13 1_555 1_555
C22 C21 1_555 1_555
H26 C22 1_555 1_555
C23 C22 1_555 1_555
H27 C23 1_555 1_555
C24 C23 1_555 1_555
H28 C24 1_555 1_555
C25 C20 1_555 1_555
H29 C25 1_555 1_555
C26 N15 1_555 1_555
H30 C26 1_555 1_555
H31 C26 1_555 1_555
C27 N15 1_555 1_555
H32 C27 1_555 1_555
Ag2_2 N12 1_555 1_555
Ag2_3 N18 1_555 1_555
N12_2 Ag2 1_555 1_555
N18_2 Ag2 1_555 1_555
N8 C10 1_555 1_555
N14 C19 1_555 1_555
C1 C8 1_555 1_555
C2 C3 1_555 1_555
C6 C7 1_555 1_555
C10 C17 1_555 1_555
C11 C12 1_555 1_555
C15 C16 1_555 1_555
C19 C26 1_555 1_555
C20 C21 1_555 1_555
C24 C25 1_555 1_555

#END
