
#######################################################################
#
#                 Cambridge Crystallographic Data Centre
#                                CCDC 
#
#######################################################################
#
# If this CIF has been generated from an entry in the Cambridge 
# Structural Database, then it will include bibliographic, chemical, 
# crystal, experimental, refinement or atomic coordinate data resulting 
# from the CCDC's data processing and validation procedures.
#
#######################################################################

data_YALQIL
_symmetry_cell_setting           monoclinic
_symmetry_space_group_name_H-M   'P 21/n'
_symmetry_Int_Tables_number      14
_space_group_name_Hall           '-P 2yn'
loop_
_symmetry_equiv_pos_site_id
_symmetry_equiv_pos_as_xyz
1 x,y,z
2 1/2-x,1/2+y,1/2-z
3 -x,-y,-z
4 1/2+x,1/2-y,1/2+z
_cell_length_a                   10.033(3)
_cell_length_b                   20.672(3)
_cell_length_c                   10.143(2)
_cell_angle_alpha                90
_cell_angle_beta                 97.844(18)
_cell_angle_gamma                90
_cell_volume                     2084
loop_
_atom_site_label
_atom_site_type_symbol
_atom_site_fract_x
_atom_site_fract_y
_atom_site_fract_z
Sn1 Sn 0.46870(2) 0.221704(11) 0.08824(2)
S1 S 0.70943(9) 0.15264(5) 0.23698(9)
N1 N 0.8140(3) 0.22556(14) 0.4562(3)
C1 C 0.7693(3) 0.19605(15) 0.3644(3)
C2 C 0.5483(3) 0.30662(14) 0.1850(3)
C3 C 0.4646(3) 0.34330(17) 0.2518(3)
H1 H 0.3764 0.3300 0.2539
C4 C 0.5106(4) 0.39979(18) 0.3159(4)
H2 H 0.4523 0.4243 0.3594
C5 C 0.6407(4) 0.42025(16) 0.3162(3)
C6 C 0.7240(4) 0.38351(17) 0.2496(4)
H3 H 0.8124 0.3968 0.2482
C7 C 0.6791(3) 0.32730(16) 0.1848(3)
H4 H 0.7375 0.3031 0.1406
C8 C 0.6927(5) 0.48057(18) 0.3893(4)
H5 H 0.7310 0.4695 0.4784
H6 H 0.6199 0.5104 0.3922
H7 H 0.7603 0.5002 0.3439
C9 C 0.5398(3) 0.17244(15) -0.0719(3)
C10 C 0.5535(3) 0.20364(16) -0.1900(3)
H8 H 0.5392 0.2480 -0.1975
C11 C 0.5885(3) 0.16888(17) -0.2974(3)
H9 H 0.5963 0.1906 -0.3762
C12 C 0.6120(3) 0.10364(18) -0.2908(3)
C13 C 0.5983(3) 0.07296(17) -0.1725(3)
H10 H 0.6131 0.0286 -0.1654
C14 C 0.5632(3) 0.10624(16) -0.0648(3)
H11 H 0.5551 0.0842 0.0136
C15 C 0.6512(4) 0.06671(19) -0.4073(4)
H12 H 0.5868 0.0749 -0.4846
H13 H 0.6530 0.0213 -0.3877
H14 H 0.7387 0.0804 -0.4241
C16 C 0.3313(3) 0.16995(15) 0.1904(3)
C17 C 0.2026(3) 0.15745(16) 0.1309(3)
H15 H 0.1753 0.1718 0.0446
C18 C 0.1130(4) 0.12395(17) 0.1973(4)
H16 H 0.0268 0.1156 0.1542
C19 C 0.1487(4) 0.10253(16) 0.3261(3)
C20 C 0.2768(4) 0.11574(17) 0.3858(3)
H17 H 0.3035 0.1019 0.4726
C21 C 0.3671(3) 0.14901(17) 0.3201(3)
H18 H 0.4531 0.1575 0.3635
C22 C 0.0509(4) 0.06613(18) 0.3983(4)
H19 H 0.0854 0.0636 0.4912
H20 H 0.0387 0.0233 0.3622
H21 H -0.0340 0.0883 0.3876
N1C N 0.3140(3) 0.27444(14) -0.0438(3)
Sn1C Sn 0.96870(2) 0.278296(11) 0.58824(2)
loop_
_geom_bond_atom_site_label_1
_geom_bond_atom_site_label_2
_geom_bond_site_symmetry_1
_geom_bond_site_symmetry_2
Sn1 S1 1_555 1_555
S1 C1 1_555 1_555
N1 C1 1_555 1_555
C2 Sn1 1_555 1_555
C3 C2 1_555 1_555
H1 C3 1_555 1_555
C4 C3 1_555 1_555
H2 C4 1_555 1_555
C5 C4 1_555 1_555
C6 C5 1_555 1_555
H3 C6 1_555 1_555
C7 C2 1_555 1_555
H4 C7 1_555 1_555
C8 C5 1_555 1_555
H5 C8 1_555 1_555
H6 C8 1_555 1_555
H7 C8 1_555 1_555
C9 Sn1 1_555 1_555
C10 C9 1_555 1_555
H8 C10 1_555 1_555
C11 C10 1_555 1_555
H9 C11 1_555 1_555
C12 C11 1_555 1_555
C13 C12 1_555 1_555
H10 C13 1_555 1_555
C14 C9 1_555 1_555
H11 C14 1_555 1_555
C15 C12 1_555 1_555
H12 C15 1_555 1_555
H13 C15 1_555 1_555
H14 C15 1_555 1_555
C16 Sn1 1_555 1_555
C17 C16 1_555 1_555
H15 C17 1_555 1_555
C18 C17 1_555 1_555
H16 C18 1_555 1_555
C19 C18 1_555 1_555
C20 C19 1_555 1_555
H17 C20 1_555 1_555
C21 C16 1_555 1_555
H18 C21 1_555 1_555
C22 C19 1_555 1_555
H19 C22 1_555 1_555
H20 C22 1_555 1_555
H21 C22 1_555 1_555
N1C Sn1 1_555 1_555
Sn1C N1 1_555 1_555
C6 C7 1_555 1_555
C13 C14 1_555 1_555
C20 C21 1_555 1_555

#END
