
#######################################################################
#
#                 Cambridge Crystallographic Data Centre
#                                CCDC 
#
#######################################################################
#
# If this CIF has been generated from an entry in the Cambridge 
# Structural Database, then it will include bibliographic, chemical, 
# crystal, experimental, refinement or atomic coordinate data resulting 
# from the CCDC's data processing and validation procedures.
#
#######################################################################

data_YALQUZ
_symmetry_cell_setting           triclinic
_symmetry_space_group_name_H-M   'P -1'
_symmetry_Int_Tables_number      2
_space_group_name_Hall           '-P 1'
loop_
_symmetry_equiv_pos_site_id
_symmetry_equiv_pos_as_xyz
1 x,y,z
2 -x,-y,-z
_cell_length_a                   11.9788(17)
_cell_length_b                   14.253(2)
_cell_length_c                   22.890(4)
_cell_angle_alpha                90.211(2)
_cell_angle_beta                 93.076(2)
_cell_angle_gamma                90.600(2)
_cell_volume                     3902.22
loop_
_atom_site_label
_atom_site_type_symbol
_atom_site_fract_x
_atom_site_fract_y
_atom_site_fract_z
Zn1 Zn 0.7896(1) 0.6813(1) 0.0437
Zn2 Zn 0.6692(1) 0.6616(1) 0.1631
Zn3 Zn 0.5483(1) 0.6481(1) 0.2827
Zn4 Zn 1.1215(1) 1.0078(1) 0.3809
Zn5 Zn 1.0000 1.0000 0.5000
Cu1 Cu 0.7024(1) 0.9795(1) -0.0937
Cu2 Cu 0.6301(1) 0.3555(1) 0.4265
Cu3 Cu 1.0383(1) 1.3053(1) 0.2422
S1 S 0.1978(2) 0.5497(2) -0.0360(1)
S2 S 0.5291(2) 0.8805(1) 0.3021(1)
S3 S 1.1410(2) 0.7750(2) 0.3621(1)
O1 O 0.7537(5) 0.7139(4) -0.0466(2)
O2 O 0.7468(6) 0.8237(4) 0.0470(2)
O3 O 0.5885(5) 0.5045(4) 0.2815(2)
O4 O 0.5839(5) 0.6184(4) 0.3733(2)
O5 O 1.0852(6) 1.0407(5) 0.2906(3)
O6 O 1.0811(6) 1.1522(5) 0.3834(3)
O7 O 0.9650(5) 0.9835(5) 0.4187(2)
O8 O 0.8489(5) 0.9877(5) 0.5225(2)
O9 O 0.6783(5) 0.9297(5) 0.5146(3)
O10 O 0.4462(7) 0.9135(12) 0.3373(5)
O11 O 0.5227(8) 0.7836(6) 0.2998(7)
O12 O 0.5253(9) 0.9244(10) 0.2484(5)
O13 O 1.2224(8) 0.7423(8) 0.3270(6)
O14 O 1.1436(12) 0.7332(18) 0.4172(7)
O15 O 1.1471(8) 0.8764(6) 0.3634(6)
O16 O 0.9907(6) 0.7379(5) 0.1492(3)
O17 O 0.8191(5) 0.6832(4) 0.1390(3)
O18 O 0.7059(5) 0.6701(5) 0.2446(3)
O19 O 0.6329(5) 0.6541(5) 0.0809(3)
O20 O 0.5195(5) 0.6412(5) 0.1867(3)
O21 O 0.3481(5) 0.5857(5) 0.1769(3)
O22 O 0.1784(6) 0.4527(4) -0.0206(3)
O23 O 0.1166(7) 0.6082(7) -0.0114(6)
O24 O 0.2083(8) 0.5596(9) -0.0973(4)
O25 O 0.9583(5) 0.7136(4) 0.0358(3)
H1 H 1.0030 0.6818 0.0162
H2 H 0.9800 0.7280 0.0707
O26 O 0.676(2) 0.8316(14) 0.1707(9)
O27 O 0.657(3) 0.5020(16) 0.1618(11)
O28 O 0.3803(5) 0.6194(4) 0.2902(3)
H3 H 0.3594 0.6107 0.2544
H4 H 0.3343 0.6465 0.3118
O29 O 1.2902(6) 1.0367(6) 0.3732(3)
H5 H 1.3098 0.9802 0.3683
H6 H 1.3082 1.0617 0.4062
O30 O 0.992(2) 0.8347(16) 0.4971(11)
N1 N 0.7030(6) 0.8406(5) -0.1057(3)
N2 N 0.6803(6) 0.9431(5) -0.0124(3)
N3 N 0.7281(7) 1.1120(5) -0.0674(4)
N4 N 0.7197(6) 1.0040(5) -0.1784(3)
N5 N 0.6525(6) 0.3863(5) 0.3441(3)
N6 N 0.6325(6) 0.4948(5) 0.4352(3)
N7 N 0.6111(6) 0.3373(5) 0.5120(3)
N8 N 0.6024(7) 0.2221(5) 0.4030(3)
N9 N 1.0378(7) 1.1660(6) 0.2308(3)
N10 N 1.0143(7) 1.2722(6) 0.3230(4)
N11 N 1.0675(8) 1.4380(7) 0.2680(4)
N12 N 1.0550(7) 1.3282(6) 0.1579(4)
C1 C 0.7292(7) 0.7979(6) -0.0557(3)
C2 C 0.7216(7) 0.8587(5) -0.0016(3)
C3 C 0.6425(8) 1.0008(6) 0.0327(4)
C4 C 0.5896(9) 0.9635(8) 0.0794(4)
H7 H 0.5772 0.8990 0.0809
C5 C 0.5540(9) 1.0201(10) 0.1248(5)
H8 H 0.5205 0.9934 0.1566
C6 C 0.5691(9) 1.1156(9) 0.1218(5)
H9 H 0.5460 1.1538 0.1518
C7 C 0.6171(10) 1.1542(8) 0.0758(5)
H10 H 0.6269 1.2189 0.0742
C8 C 0.6530(9) 1.0978(7) 0.0298(4)
C9 C 0.7031(9) 1.1464(7) -0.0177(4)
H11 H 0.7190 1.2098 -0.0117
C10 C 0.7807(11) 1.1799(7) -0.1069(5)
H12 H 0.8588 1.1643 -0.1102
H13 H 0.7773 1.2426 -0.0905
C11 C 0.7205(9) 1.1775(7) -0.1675(5)
H14 H 0.6404 1.1760 -0.1631
H15 H 0.7383 1.2344 -0.1883
C12 C 0.7519(9) 1.0945(6) -0.2031(4)
H16 H 0.7168 1.0999 -0.2421
H17 H 0.8322 1.0956 -0.2068
C13 C 0.7001(8) 0.9395(7) -0.2174(4)
H18 H 0.7036 0.9597 -0.2559
C14 C 0.6738(7) 0.8420(6) -0.2112(4)
C15 C 0.6423(9) 0.7944(8) -0.2633(4)
H19 H 0.6437 0.8265 -0.2986
C16 C 0.6091(9) 0.7010(8) -0.2638(5)
H20 H 0.5879 0.6706 -0.2987
C17 C 0.6082(9) 0.6543(7) -0.2113(5)
H21 H 0.5832 0.5923 -0.2111
C18 C 0.6428(8) 0.6958(6) -0.1591(4)
H22 H 0.6441 0.6613 -0.1247
C19 C 0.6767(7) 0.7917(6) -0.1578(3)
C20 C 0.6142(7) 0.4719(5) 0.3310(4)
C21 C 0.6067(7) 0.5349(6) 0.3841(4)
C22 C 0.6581(8) 0.5464(6) 0.4872(4)
C23 C 0.6947(9) 0.6407(7) 0.4860(5)
H23 H 0.6961 0.6725 0.4507
C24 C 0.7285(10) 0.6855(8) 0.5378(5)
H24 H 0.7543 0.7472 0.5366
C25 C 0.725(1) 0.6418(9) 0.5911(5)
H25 H 0.7468 0.6736 0.6255
C26 C 0.6889(9) 0.5505(8) 0.5925(4)
H26 H 0.6837 0.5211 0.6285
C27 C 0.6593(8) 0.4999(6) 0.5411(4)
C28 C 0.6301(8) 0.4025(7) 0.5492(4)
H27 H 0.6243 0.3846 0.5880
C29 C 0.5764(9) 0.2468(7) 0.5382(4)
H28 H 0.4959 0.2468 0.5414
H29 H 0.6105 0.2425 0.5775
C30 C 0.6075(9) 0.1616(7) 0.5041(4)
H30 H 0.5885 0.1057 0.5257
H31 H 0.6877 0.1620 0.5001
C31 C 0.549(1) 0.1571(7) 0.4439(4)
H32 H 0.5517 0.0935 0.4289
H33 H 0.4711 0.1736 0.4467
C32 C 0.6286(9) 0.1848(6) 0.3540(4)
H34 H 0.6133 0.1210 0.3495
C33 C 0.6784(8) 0.2305(6) 0.3058(4)
C34 C 0.6903(8) 0.3276(6) 0.3001(4)
C35 C 0.7433(9) 0.3624(7) 0.2521(4)
H35 H 0.7549 0.4268 0.2487
C36 C 0.7793(9) 0.3026(8) 0.2093(5)
H36 H 0.8140 0.3274 0.1773
C37 C 0.7645(9) 0.2076(8) 0.2133(4)
H37 H 0.7874 0.1680 0.1840
C38 C 0.7154(9) 0.1721(7) 0.2611(4)
H38 H 0.7062 0.1075 0.2643
C39 C 1.0625(8) 1.1254(7) 0.2805(4)
C40 C 1.0533(8) 1.1886(8) 0.3346(4)
C41 C 0.9780(9) 1.3285(10) 0.3687(5)
C42 C 0.9238(11) 1.2910(11) 0.4143(6)
H39 H 0.9102 1.2267 0.4157
C43 C 0.8882(11) 1.3504(13) 0.4594(6)
H40 H 0.8543 1.3246 0.4913
C44 C 0.9039(12) 1.4471(13) 0.4562(7)
H41 H 0.8815 1.4865 0.4858
C45 C 0.9519(11) 1.4817(11) 0.4096(6)
H42 H 0.9610 1.5465 0.4074
C46 C 0.9899(10) 1.4268(10) 0.3636(6)
C47 C 1.0401(11) 1.4728(9) 0.3173(6)
H43 H 1.0556 1.5364 0.3229
C48 C 1.1188(11) 1.5044(8) 0.2280(6)
H44 H 1.1962 1.4875 0.2237
H45 H 1.1177 1.5671 0.2445
C49 C 1.0575(10) 1.5037(8) 0.1690(6)
H46 H 1.0756 1.5607 0.1484
H47 H 0.9776 1.5031 0.1742
C50 C 1.0868(10) 1.4199(7) 0.1326(5)
H48 H 1.0498 1.4256 0.0940
H49 H 1.1668 1.4207 0.1278
C51 C 1.0348(8) 1.2632(7) 0.1191(4)
H50 H 1.0383 1.2829 0.0806
C52 C 1.0080(8) 1.1659(7) 0.1258(4)
C53 C 0.9765(9) 1.1178(7) 0.0737(4)
H51 H 0.9792 1.1496 0.0384
C54 C 0.9419(10) 1.0257(8) 0.0730(4)
H52 H 0.9182 0.9961 0.0382
C55 C 0.9434(9) 0.9783(7) 0.1255(4)
H53 H 0.9212 0.9156 0.1259
C56 C 0.9776(9) 1.0225(7) 0.1777(4)
H54 H 0.9781 0.9888 0.2124
C57 C 1.0110(7) 1.1160(7) 0.1789(4)
C58 C 0.4339(7) 0.6120(6) 0.1549(4)
C59 C 0.4375(7) 0.6100(6) 0.0895(4)
C60 C 0.3369(7) 0.5850(6) 0.0587(4)
H55 H 0.2746 0.5709 0.0796
C61 C 0.3279(7) 0.5808(6) -0.0004(4)
C62 C 0.4205(7) 0.5996(6) -0.0335(4)
H56 H 0.4148 0.5962 -0.0741
C63 C 0.5210(8) 0.6233(6) -0.0040(4)
H57 H 0.5834 0.6344 -0.0255
C64 C 0.5322(7) 0.6312(6) 0.0570(4)
C65 C 0.9037(8) 0.7129(6) 0.1710(4)
C66 C 0.8997(8) 0.7153(6) 0.2361(4)
C67 C 1.0002(8) 0.7397(6) 0.2668(4)
H58 H 1.0624 0.7530 0.2455
C68 C 1.0117(8) 0.7450(7) 0.3266(4)
C69 C 0.9179(8) 0.7255(7) 0.3595(4)
H59 H 0.9237 0.7287 0.4001
C70 C 0.8172(8) 0.7016(7) 0.3305(4)
H60 H 0.7553 0.6902 0.3524
C71 C 0.8053(8) 0.6941(6) 0.2691(4)
C72 C 0.7654(7) 0.9529(6) 0.4919(3)
C73 C 0.7691(7) 0.9431(5) 0.4270(3)
C74 C 0.6689(7) 0.9181(5) 0.3970(3)
H61 H 0.6062 0.9065 0.4182
C75 C 0.6596(7) 0.9100(6) 0.3375(4)
C76 C 0.7535(8) 0.9253(7) 0.3047(4)
H62 H 0.7480 0.9198 0.2642
C77 C 0.8536(8) 0.9485(7) 0.3334(4)
H63 H 0.9163 0.9565 0.3116
C78 C 0.8651(7) 0.9606(6) 0.3945(3)
Zn1A Zn 1.2104(1) 1.3187(1) 0.9563
Zn1A_2 Zn 0.2104(1) 0.3187(1) -0.0437
Zn1_2 Zn 1.7896(1) 1.6813(1) 1.0437
Zn2A Zn 1.3308(1) 1.3384(1) 0.8369
Zn3A Zn 1.4517(1) 1.3519(1) 0.7173
Zn4A Zn 0.8785(1) 0.9922(1) 0.6191
Cu1A Cu 1.2976(1) 1.0205(1) 1.0937
Cu2A Cu 1.3699(1) 1.6445(1) 0.5735
Cu3A Cu 0.9617(1) 0.6947(1) 0.7578
S1A S 1.8022(2) 1.4503(2) 1.0360(1)
S2A S 1.4709(2) 1.1195(1) 0.6979(1)
S3A S 0.8590(2) 1.2250(2) 0.6379(1)
O1A O 1.2463(5) 1.2861(4) 1.0466(2)
O2A O 1.2532(6) 1.1763(4) 0.9530(2)
O3A O 1.4115(5) 1.4955(4) 0.7185(2)
O4A O 1.4161(5) 1.3816(4) 0.6267(2)
O5A O 0.9148(6) 0.9593(5) 0.7094(3)
O6A O 0.9189(6) 0.8478(5) 0.6166(3)
O7A O 1.0350(5) 1.0165(5) 0.5813(2)
O8A O 1.1511(5) 1.0123(5) 0.4775(2)
O9A O 1.3217(5) 1.0703(5) 0.4854(3)
O10A O 1.5538(7) 1.0865(12) 0.6627(5)
O11A O 1.4773(8) 1.2164(6) 0.7002(7)
O12A O 1.4747(9) 1.0756(10) 0.7516(5)
O13A O 0.7776(8) 1.2577(8) 0.6730(6)
O14A O 0.8564(12) 1.2668(18) 0.5828(7)
O15A O 0.8529(8) 1.1236(6) 0.6366(6)
O16A O 1.0093(6) 1.2621(5) 0.8508(3)
O17A O 1.1809(5) 1.3168(4) 0.8610(3)
O18A O 1.2941(5) 1.3299(5) 0.7554(3)
O19A O 1.3671(5) 1.3459(5) 0.9191(3)
O20A O 1.4805(5) 1.3588(5) 0.8133(3)
O21A O 1.6519(5) 1.4143(5) 0.8231(3)
O22A O 1.8216(6) 1.5473(4) 1.0206(3)
O22A_2 O 0.8216(6) 0.5473(4) 0.0206(3)
O22_2 O 1.1784(6) 1.4527(4) 0.9794(3)
O23A O 1.8834(7) 1.3918(7) 1.0114(6)
O24A O 1.7917(8) 1.4404(9) 1.0973(4)
O25A O 1.0417(5) 1.2864(4) 0.9642(3)
H1A H 0.9970 1.3182 0.9838
H2A H 1.0200 1.2720 0.9293
O26A O 1.324(2) 1.1684(14) 0.8293(9)
O27A O 1.343(3) 1.4980(16) 0.8382(11)
O28A O 1.6197(5) 1.3806(4) 0.7098(3)
H3A H 1.6406 1.3893 0.7456
H4A H 1.6657 1.3535 0.6882
O29A O 0.7098(6) 0.9633(6) 0.6268(3)
H5A H 0.6902 1.0198 0.6317
H6A H 0.6918 0.9383 0.5938
O30A O 1.008(2) 1.1653(16) 0.5029(11)
N1A N 1.2970(6) 1.1594(5) 1.1057(3)
N2A N 1.3197(6) 1.0569(5) 1.0124(3)
N3A N 1.2719(7) 0.8880(5) 1.0674(4)
N4A N 1.2803(6) 0.9960(5) 1.1784(3)
N5A N 1.3475(6) 1.6137(5) 0.6559(3)
N6A N 1.3675(6) 1.5052(5) 0.5648(3)
N7A N 1.3889(6) 1.6627(5) 0.4880(3)
N8A N 1.3976(7) 1.7779(5) 0.5970(3)
N9A N 0.9622(7) 0.8340(6) 0.7692(3)
N10A N 0.9857(7) 0.7278(6) 0.6770(4)
N11A N 0.9325(8) 0.5620(7) 0.7320(4)
N12A N 0.9450(7) 0.6718(6) 0.8421(4)
C1A C 1.2708(7) 1.2021(6) 1.0557(3)
C2A C 1.2784(7) 1.1413(5) 1.0016(3)
C3A C 1.3575(8) 0.9992(6) 0.9673(4)
C4A C 1.4104(9) 1.0365(8) 0.9206(4)
H7A H 1.4228 1.1010 0.9191
C5A C 1.4460(9) 0.9799(10) 0.8752(5)
H8A H 1.4795 1.0066 0.8434
C6A C 1.4309(9) 0.8844(9) 0.8782(5)
H9A H 1.4540 0.8462 0.8482
C7A C 1.3829(10) 0.8458(8) 0.9242(5)
H10A H 1.3731 0.7811 0.9258
C8A C 1.3470(9) 0.9022(7) 0.9702(4)
C9A C 1.2969(9) 0.8536(7) 1.0177(4)
H11A H 1.2810 0.7902 1.0117
C10A C 1.2193(11) 0.8201(7) 1.1069(5)
H12A H 1.1412 0.8357 1.1102
H13A H 1.2227 0.7574 1.0905
C11A C 1.2795(9) 0.8225(7) 1.1675(5)
H14A H 1.3596 0.8240 1.1631
H15A H 1.2617 0.7656 1.1883
C12A C 1.2481(9) 0.9055(6) 1.2031(4)
H16A H 1.2832 0.9001 1.2421
H17A H 1.1678 0.9044 1.2068
C13A C 1.2999(8) 1.0605(7) 1.2174(4)
H18A H 1.2964 1.0403 1.2559
C14A C 1.3262(7) 1.1580(6) 1.2112(4)
C15A C 1.3577(9) 1.2056(8) 1.2633(4)
H19A H 1.3563 1.1735 1.2986
C16A C 1.3909(9) 1.2990(8) 1.2638(5)
H20A H 1.4121 1.3294 1.2987
C17A C 1.3918(9) 1.3457(7) 1.2113(5)
H21A H 1.4168 1.4077 1.2111
C18A C 1.3572(8) 1.3042(6) 1.1591(4)
H22A H 1.3559 1.3387 1.1247
C19A C 1.3233(7) 1.2083(6) 1.1578(3)
C20A C 1.3858(7) 1.5281(5) 0.6690(4)
C21A C 1.3933(7) 1.4651(6) 0.6159(4)
C22A C 1.3419(8) 1.4536(6) 0.5128(4)
C23A C 1.3053(9) 1.3593(7) 0.5140(5)
H23A H 1.3039 1.3275 0.5493
C24A C 1.2715(10) 1.3145(8) 0.4622(5)
H24A H 1.2457 1.2528 0.4634
C25A C 1.275(1) 1.3582(9) 0.4089(5)
H25A H 1.2532 1.3264 0.3745
C26A C 1.3111(9) 1.4495(8) 0.4075(4)
H26A H 1.3163 1.4789 0.3715
C27A C 1.3407(8) 1.5001(6) 0.4589(4)
C28A C 1.3699(8) 1.5975(7) 0.4508(4)
H27A H 1.3757 1.6154 0.4120
C29A C 1.4236(9) 1.7532(7) 0.4618(4)
H28A H 1.5041 1.7532 0.4586
H29A H 1.3895 1.7575 0.4225
C30A C 1.3925(9) 1.8384(7) 0.4959(4)
H30A H 1.4115 1.8943 0.4743
H31A H 1.3123 1.8380 0.4999
C31A C 1.451(1) 1.8429(7) 0.5561(4)
H32A H 1.4483 1.9065 0.5711
H33A H 1.5289 1.8264 0.5533
C32A C 1.3714(9) 1.8152(6) 0.6460(4)
H34A H 1.3867 1.8790 0.6505
C33A C 1.3216(8) 1.7695(6) 0.6942(4)
C34A C 1.3097(8) 1.6724(6) 0.6999(4)
C35A C 1.2567(9) 1.6376(7) 0.7479(4)
H35A H 1.2451 1.5732 0.7513
C36A C 1.2207(9) 1.6974(8) 0.7907(5)
H36A H 1.1860 1.6726 0.8227
C37A C 1.2355(9) 1.7924(8) 0.7867(4)
H37A H 1.2126 1.8320 0.8160
C38A C 1.2846(9) 1.8279(7) 0.7389(4)
H38A H 1.2938 1.8925 0.7357
C39A C 0.9375(8) 0.8746(7) 0.7195(4)
C40A C 0.9467(8) 0.8114(8) 0.6654(4)
C41A C 1.0220(9) 0.6715(10) 0.6313(5)
C42A C 1.0762(11) 0.7090(11) 0.5857(6)
H39A H 1.0898 0.7733 0.5843
C43A C 1.1118(11) 0.6496(13) 0.5406(6)
H40A H 1.1457 0.6754 0.5087
C44A C 1.0961(12) 0.5529(13) 0.5438(7)
H41A H 1.1185 0.5135 0.5142
C45A C 1.0481(11) 0.5183(11) 0.5904(6)
H42A H 1.0390 0.4535 0.5926
C46A C 1.0101(10) 0.5732(10) 0.6364(6)
C47A C 0.9599(11) 0.5272(9) 0.6827(6)
H43A H 0.9444 0.4636 0.6771
C48A C 0.8812(11) 0.4956(8) 0.7720(6)
H44A H 0.8038 0.5125 0.7763
H45A H 0.8823 0.4329 0.7555
C49A C 0.9425(10) 0.4963(8) 0.8310(6)
H46A H 0.9244 0.4393 0.8516
H47A H 1.0224 0.4969 0.8258
C50A C 0.9132(10) 0.5801(7) 0.8674(5)
H48A H 0.9502 0.5744 0.9060
H49A H 0.8332 0.5793 0.8722
C51A C 0.9652(8) 0.7368(7) 0.8809(4)
H50A H 0.9617 0.7171 0.9194
C52A C 0.9920(8) 0.8341(7) 0.8742(4)
C53A C 1.0235(9) 0.8822(7) 0.9263(4)
H51A H 1.0208 0.8504 0.9616
C54A C 1.0581(10) 0.9743(8) 0.9270(4)
H52A H 1.0818 1.0039 0.9618
C55A C 1.0566(9) 1.0217(7) 0.8745(4)
H53A H 1.0788 1.0844 0.8741
C56A C 1.0224(9) 0.9775(7) 0.8223(4)
H54A H 1.0219 1.0112 0.7876
C57A C 0.9890(7) 0.8840(7) 0.8211(4)
C58A C 1.5661(7) 1.3880(6) 0.8451(4)
C59A C 1.5625(7) 1.3900(6) 0.9105(4)
C60A C 1.6631(7) 1.4150(6) 0.9413(4)
H55A H 1.7254 1.4291 0.9204
C61A C 1.6721(7) 1.4192(6) 1.0004(4)
C62A C 1.5795(7) 1.4004(6) 1.0335(4)
H56A H 1.5852 1.4038 1.0741
C63A C 1.4790(8) 1.3767(6) 1.0040(4)
H57A H 1.4166 1.3656 1.0255
C64A C 1.4678(7) 1.3688(6) 0.9430(4)
C65A C 1.0963(8) 1.2871(6) 0.8290(4)
C66A C 1.1003(8) 1.2847(6) 0.7639(4)
C67A C 0.9998(8) 1.2603(6) 0.7332(4)
H58A H 0.9376 1.2470 0.7545
C68A C 0.9883(8) 1.2550(7) 0.6734(4)
C69A C 1.0821(8) 1.2745(7) 0.6405(4)
H59A H 1.0763 1.2713 0.5999
C70A C 1.1828(8) 1.2984(7) 0.6695(4)
H60A H 1.2447 1.3098 0.6476
C71A C 1.1947(8) 1.3059(6) 0.7309(4)
C72A C 1.2346(7) 1.0471(6) 0.5081(3)
C73A C 1.2309(7) 1.0569(5) 0.5730(3)
C74A C 1.3311(7) 1.0819(5) 0.6030(3)
H61A H 1.3938 1.0935 0.5818
C75A C 1.3404(7) 1.0900(6) 0.6625(4)
C76A C 1.2465(8) 1.0747(7) 0.6953(4)
H62A H 1.2520 1.0802 0.7358
C77A C 1.1464(8) 1.0515(7) 0.6666(4)
H63A H 1.0837 1.0435 0.6884
C78A C 1.1349(7) 1.0394(6) 0.6055(3)
loop_
_geom_bond_atom_site_label_1
_geom_bond_atom_site_label_2
_geom_bond_site_symmetry_1
_geom_bond_site_symmetry_2
Zn1 O1 1_555 1_555
Zn2 O17 1_555 1_555
Zn3 O3 1_555 1_555
Zn4 O5 1_555 1_555
Zn5 O7 1_555 1_555
Cu1 N1 1_555 1_555
Cu2 N5 1_555 1_555
Cu3 N9 1_555 1_555
S1 O22 1_555 1_555
S2 O10 1_555 1_555
S3 O13 1_555 1_555
O1 C1 1_555 1_555
O2 Zn1 1_555 1_555
O3 C20 1_555 1_555
O4 Zn3 1_555 1_555
O5 C39 1_555 1_555
O6 Zn4 1_555 1_555
O7 Zn4 1_555 1_555
O8 Zn5 1_555 1_555
O9 C72 1_555 1_555
O11 Zn3 1_555 1_555
O12 S2 1_555 1_555
O14 S3 1_555 1_555
O15 Zn4 1_555 1_555
O16 C65 1_555 1_555
O17 Zn1 1_555 1_555
O18 Zn2 1_555 1_555
O19 Zn1 1_555 1_555
O20 Zn2 1_555 1_555
O21 C58 1_555 1_555
O22 Zn1A_2 1_555 1_555
O23 S1 1_555 1_555
O24 S1 1_555 1_555
O25 Zn1 1_555 1_555
H1 O25 1_555 1_555
H2 O25 1_555 1_555
O26 Zn2 1_555 1_555
O27 Zn2 1_555 1_555
O28 Zn3 1_555 1_555
H3 O28 1_555 1_555
H4 O28 1_555 1_555
O29 Zn4 1_555 1_555
H5 O29 1_555 1_555
H6 O29 1_555 1_555
O30 Zn5 1_555 1_555
N1 C1 1_555 1_555
N2 Cu1 1_555 1_555
N3 Cu1 1_555 1_555
N4 Cu1 1_555 1_555
N5 C20 1_555 1_555
N6 Cu2 1_555 1_555
N7 Cu2 1_555 1_555
N8 Cu2 1_555 1_555
N9 C39 1_555 1_555
N10 Cu3 1_555 1_555
N11 Cu3 1_555 1_555
N12 Cu3 1_555 1_555
C1 C2 1_555 1_555
C2 O2 1_555 1_555
C3 N2 1_555 1_555
C4 C3 1_555 1_555
H7 C4 1_555 1_555
C5 C4 1_555 1_555
H8 C5 1_555 1_555
C6 C5 1_555 1_555
H9 C6 1_555 1_555
C7 C6 1_555 1_555
H10 C7 1_555 1_555
C8 C3 1_555 1_555
C9 N3 1_555 1_555
H11 C9 1_555 1_555
C10 N3 1_555 1_555
H12 C10 1_555 1_555
H13 C10 1_555 1_555
C11 C10 1_555 1_555
H14 C11 1_555 1_555
H15 C11 1_555 1_555
C12 N4 1_555 1_555
H16 C12 1_555 1_555
H17 C12 1_555 1_555
C13 N4 1_555 1_555
H18 C13 1_555 1_555
C14 C13 1_555 1_555
C15 C14 1_555 1_555
H19 C15 1_555 1_555
C16 C15 1_555 1_555
H20 C16 1_555 1_555
C17 C16 1_555 1_555
H21 C17 1_555 1_555
C18 C17 1_555 1_555
H22 C18 1_555 1_555
C19 N1 1_555 1_555
C20 C21 1_555 1_555
C21 O4 1_555 1_555
C22 N6 1_555 1_555
C23 C22 1_555 1_555
H23 C23 1_555 1_555
C24 C23 1_555 1_555
H24 C24 1_555 1_555
C25 C24 1_555 1_555
H25 C25 1_555 1_555
C26 C25 1_555 1_555
H26 C26 1_555 1_555
C27 C22 1_555 1_555
C28 N7 1_555 1_555
H27 C28 1_555 1_555
C29 N7 1_555 1_555
H28 C29 1_555 1_555
H29 C29 1_555 1_555
C30 C29 1_555 1_555
H30 C30 1_555 1_555
H31 C30 1_555 1_555
C31 N8 1_555 1_555
H32 C31 1_555 1_555
H33 C31 1_555 1_555
C32 N8 1_555 1_555
H34 C32 1_555 1_555
C33 C32 1_555 1_555
C34 N5 1_555 1_555
C35 C34 1_555 1_555
H35 C35 1_555 1_555
C36 C35 1_555 1_555
H36 C36 1_555 1_555
C37 C36 1_555 1_555
H37 C37 1_555 1_555
C38 C33 1_555 1_555
H38 C38 1_555 1_555
C39 C40 1_555 1_555
C40 O6 1_555 1_555
C41 N10 1_555 1_555
C42 C41 1_555 1_555
H39 C42 1_555 1_555
C43 C42 1_555 1_555
H40 C43 1_555 1_555
C44 C43 1_555 1_555
H41 C44 1_555 1_555
C45 C44 1_555 1_555
H42 C45 1_555 1_555
C46 C41 1_555 1_555
C47 N11 1_555 1_555
H43 C47 1_555 1_555
C48 N11 1_555 1_555
H44 C48 1_555 1_555
H45 C48 1_555 1_555
C49 C48 1_555 1_555
H46 C49 1_555 1_555
H47 C49 1_555 1_555
C50 N12 1_555 1_555
H48 C50 1_555 1_555
H49 C50 1_555 1_555
C51 N12 1_555 1_555
H50 C51 1_555 1_555
C52 C51 1_555 1_555
C53 C52 1_555 1_555
H51 C53 1_555 1_555
C54 C53 1_555 1_555
H52 C54 1_555 1_555
C55 C54 1_555 1_555
H53 C55 1_555 1_555
C56 C55 1_555 1_555
H54 C56 1_555 1_555
C57 N9 1_555 1_555
C58 O20 1_555 1_555
C59 C58 1_555 1_555
C60 C59 1_555 1_555
H55 C60 1_555 1_555
C61 S1 1_555 1_555
C62 C61 1_555 1_555
H56 C62 1_555 1_555
C63 C62 1_555 1_555
H57 C63 1_555 1_555
C64 O19 1_555 1_555
C65 O17 1_555 1_555
C66 C65 1_555 1_555
C67 C66 1_555 1_555
H58 C67 1_555 1_555
C68 S3 1_555 1_555
C69 C68 1_555 1_555
H59 C69 1_555 1_555
C70 C69 1_555 1_555
H60 C70 1_555 1_555
C71 O18 1_555 1_555
C72 O8 1_555 1_555
C73 C72 1_555 1_555
C74 C73 1_555 1_555
H61 C74 1_555 1_555
C75 S2 1_555 1_555
C76 C75 1_555 1_555
H62 C76 1_555 1_555
C77 C76 1_555 1_555
H63 C77 1_555 1_555
C78 O7 1_555 1_555
Zn1A O1A 1_555 1_555
Zn1_2 O22A 1_555 1_555
Zn2A O17A 1_555 1_555
Zn3A O3A 1_555 1_555
Zn4A O8 1_555 1_555
Cu1A N1A 1_555 1_555
Cu2A N5A 1_555 1_555
Cu3A N9A 1_555 1_555
S1A O22A 1_555 1_555
S2A O10A 1_555 1_555
S3A O13A 1_555 1_555
O1A C1A 1_555 1_555
O2A Zn1A 1_555 1_555
O3A C20A 1_555 1_555
O4A Zn3A 1_555 1_555
O5A Zn4A 1_555 1_555
O6A Zn4A 1_555 1_555
O7A Zn5 1_555 1_555
O8A Zn4 1_555 1_555
O9A C72A 1_555 1_555
O11A Zn3A 1_555 1_555
O12A S2A 1_555 1_555
O14A S3A 1_555 1_555
O15A Zn4A 1_555 1_555
O16A C65A 1_555 1_555
O17A Zn1A 1_555 1_555
O18A Zn2A 1_555 1_555
O19A Zn1A 1_555 1_555
O20A Zn2A 1_555 1_555
O21A C58A 1_555 1_555
O22A_2 Zn1 1_555 1_555
O22_2 Zn1A 1_555 1_555
O23A S1A 1_555 1_555
O24A S1A 1_555 1_555
O25A Zn1A 1_555 1_555
H1A O25A 1_555 1_555
H2A O25A 1_555 1_555
O26A Zn2A 1_555 1_555
O27A Zn2A 1_555 1_555
O28A Zn3A 1_555 1_555
H3A O28A 1_555 1_555
H4A O28A 1_555 1_555
O29A Zn4A 1_555 1_555
H5A O29A 1_555 1_555
H6A O29A 1_555 1_555
O30A Zn5 1_555 1_555
N1A C1A 1_555 1_555
N2A Cu1A 1_555 1_555
N3A Cu1A 1_555 1_555
N4A Cu1A 1_555 1_555
N5A C20A 1_555 1_555
N6A Cu2A 1_555 1_555
N7A Cu2A 1_555 1_555
N8A Cu2A 1_555 1_555
N9A C39A 1_555 1_555
N10A Cu3A 1_555 1_555
N11A Cu3A 1_555 1_555
N12A Cu3A 1_555 1_555
C1A C2A 1_555 1_555
C2A O2A 1_555 1_555
C3A N2A 1_555 1_555
C4A C3A 1_555 1_555
H7A C4A 1_555 1_555
C5A C4A 1_555 1_555
H8A C5A 1_555 1_555
C6A C5A 1_555 1_555
H9A C6A 1_555 1_555
C7A C6A 1_555 1_555
H10A C7A 1_555 1_555
C8A C3A 1_555 1_555
C9A N3A 1_555 1_555
H11A C9A 1_555 1_555
C10A N3A 1_555 1_555
H12A C10A 1_555 1_555
H13A C10A 1_555 1_555
C11A C10A 1_555 1_555
H14A C11A 1_555 1_555
H15A C11A 1_555 1_555
C12A N4A 1_555 1_555
H16A C12A 1_555 1_555
H17A C12A 1_555 1_555
C13A N4A 1_555 1_555
H18A C13A 1_555 1_555
C14A C13A 1_555 1_555
C15A C14A 1_555 1_555
H19A C15A 1_555 1_555
C16A C15A 1_555 1_555
H20A C16A 1_555 1_555
C17A C16A 1_555 1_555
H21A C17A 1_555 1_555
C18A C17A 1_555 1_555
H22A C18A 1_555 1_555
C19A N1A 1_555 1_555
C20A C21A 1_555 1_555
C21A O4A 1_555 1_555
C22A N6A 1_555 1_555
C23A C22A 1_555 1_555
H23A C23A 1_555 1_555
C24A C23A 1_555 1_555
H24A C24A 1_555 1_555
C25A C24A 1_555 1_555
H25A C25A 1_555 1_555
C26A C25A 1_555 1_555
H26A C26A 1_555 1_555
C27A C22A 1_555 1_555
C28A N7A 1_555 1_555
H27A C28A 1_555 1_555
C29A N7A 1_555 1_555
H28A C29A 1_555 1_555
H29A C29A 1_555 1_555
C30A C29A 1_555 1_555
H30A C30A 1_555 1_555
H31A C30A 1_555 1_555
C31A N8A 1_555 1_555
H32A C31A 1_555 1_555
H33A C31A 1_555 1_555
C32A N8A 1_555 1_555
H34A C32A 1_555 1_555
C33A C32A 1_555 1_555
C34A N5A 1_555 1_555
C35A C34A 1_555 1_555
H35A C35A 1_555 1_555
C36A C35A 1_555 1_555
H36A C36A 1_555 1_555
C37A C36A 1_555 1_555
H37A C37A 1_555 1_555
C38A C33A 1_555 1_555
H38A C38A 1_555 1_555
C39A O5A 1_555 1_555
C40A O6A 1_555 1_555
C41A N10A 1_555 1_555
C42A C41A 1_555 1_555
H39A C42A 1_555 1_555
C43A C42A 1_555 1_555
H40A C43A 1_555 1_555
C44A C43A 1_555 1_555
H41A C44A 1_555 1_555
C45A C44A 1_555 1_555
H42A C45A 1_555 1_555
C46A C41A 1_555 1_555
C47A N11A 1_555 1_555
H43A C47A 1_555 1_555
C48A N11A 1_555 1_555
H44A C48A 1_555 1_555
H45A C48A 1_555 1_555
C49A C48A 1_555 1_555
H46A C49A 1_555 1_555
H47A C49A 1_555 1_555
C50A N12A 1_555 1_555
H48A C50A 1_555 1_555
H49A C50A 1_555 1_555
C51A N12A 1_555 1_555
H50A C51A 1_555 1_555
C52A C51A 1_555 1_555
C53A C52A 1_555 1_555
H51A C53A 1_555 1_555
C54A C53A 1_555 1_555
H52A C54A 1_555 1_555
C55A C54A 1_555 1_555
H53A C55A 1_555 1_555
C56A C55A 1_555 1_555
H54A C56A 1_555 1_555
C57A N9A 1_555 1_555
C58A O20A 1_555 1_555
C59A C58A 1_555 1_555
C60A C59A 1_555 1_555
H55A C60A 1_555 1_555
C61A S1A 1_555 1_555
C62A C61A 1_555 1_555
H56A C62A 1_555 1_555
C63A C62A 1_555 1_555
H57A C63A 1_555 1_555
C64A O19A 1_555 1_555
C65A O17A 1_555 1_555
C66A C65A 1_555 1_555
C67A C66A 1_555 1_555
H58A C67A 1_555 1_555
C68A S3A 1_555 1_555
C69A C68A 1_555 1_555
H59A C69A 1_555 1_555
C70A C69A 1_555 1_555
H60A C70A 1_555 1_555
C71A O18A 1_555 1_555
C72A O8A 1_555 1_555
C73A C72A 1_555 1_555
C74A C73A 1_555 1_555
H61A C74A 1_555 1_555
C75A S2A 1_555 1_555
C76A C75A 1_555 1_555
H62A C76A 1_555 1_555
C77A C76A 1_555 1_555
H63A C77A 1_555 1_555
C78A O7A 1_555 1_555
Zn2 O19 1_555 1_555
Zn3 O18 1_555 1_555
Zn3 O20 1_555 1_555
Zn5 O8A 1_555 1_555
S2 O11 1_555 1_555
S3 O15 1_555 1_555
N2 C2 1_555 1_555
N6 C21 1_555 1_555
N10 C40 1_555 1_555
C7 C8 1_555 1_555
C8 C9 1_555 1_555
C11 C12 1_555 1_555
C14 C19 1_555 1_555
C18 C19 1_555 1_555
C26 C27 1_555 1_555
C27 C28 1_555 1_555
C30 C31 1_555 1_555
C33 C34 1_555 1_555
C37 C38 1_555 1_555
C45 C46 1_555 1_555
C46 C47 1_555 1_555
C49 C50 1_555 1_555
C52 C57 1_555 1_555
C56 C57 1_555 1_555
C59 C64 1_555 1_555
C60 C61 1_555 1_555
C63 C64 1_555 1_555
C66 C71 1_555 1_555
C67 C68 1_555 1_555
C70 C71 1_555 1_555
C73 C78 1_555 1_555
C74 C75 1_555 1_555
C77 C78 1_555 1_555
Zn2A O19A 1_555 1_555
Zn3A O18A 1_555 1_555
Zn3A O20A 1_555 1_555
Zn4A O7A 1_555 1_555
S2A O11A 1_555 1_555
S3A O15A 1_555 1_555
N2A C2A 1_555 1_555
N6A C21A 1_555 1_555
N10A C40A 1_555 1_555
C7A C8A 1_555 1_555
C8A C9A 1_555 1_555
C11A C12A 1_555 1_555
C14A C19A 1_555 1_555
C18A C19A 1_555 1_555
C26A C27A 1_555 1_555
C27A C28A 1_555 1_555
C30A C31A 1_555 1_555
C33A C34A 1_555 1_555
C37A C38A 1_555 1_555
C39A C40A 1_555 1_555
C45A C46A 1_555 1_555
C46A C47A 1_555 1_555
C49A C50A 1_555 1_555
C52A C57A 1_555 1_555
C56A C57A 1_555 1_555
C59A C64A 1_555 1_555
C60A C61A 1_555 1_555
C63A C64A 1_555 1_555
C66A C71A 1_555 1_555
C67A C68A 1_555 1_555
C70A C71A 1_555 1_555
C73A C78A 1_555 1_555
C74A C75A 1_555 1_555
C77A C78A 1_555 1_555

#END
