
#######################################################################
#
#                 Cambridge Crystallographic Data Centre
#                                CCDC 
#
#######################################################################
#
# If this CIF has been generated from an entry in the Cambridge 
# Structural Database, then it will include bibliographic, chemical, 
# crystal, experimental, refinement or atomic coordinate data resulting 
# from the CCDC's data processing and validation procedures.
#
#######################################################################

data_YAMFUN
_symmetry_cell_setting           orthorhombic
_symmetry_space_group_name_H-M   'P 21 21 21'
_symmetry_Int_Tables_number      19
_space_group_name_Hall           'P 2ac 2ab'
loop_
_symmetry_equiv_pos_site_id
_symmetry_equiv_pos_as_xyz
1 x,y,z
2 1/2-x,-y,1/2+z
3 1/2+x,1/2-y,-z
4 -x,1/2+y,1/2-z
_cell_length_a                   17.204(4)
_cell_length_b                   18.153(4)
_cell_length_c                   11.488(6)
_cell_angle_alpha                90
_cell_angle_beta                 90
_cell_angle_gamma                90
_cell_volume                     3587.75
loop_
_atom_site_label
_atom_site_type_symbol
_atom_site_fract_x
_atom_site_fract_y
_atom_site_fract_z
Sn1 Sn 0.21091(2) 0.16520(2) 0.46698(3)
Sn2 Sn 0.28233(2) 0.51297(2) 0.28898(3)
O1 O 0.1340(2) 0.2364(2) 0.3824(3)
O2 O 0.2057(2) 0.3033(2) 0.4976(3)
O3 O 0.2454(2) 0.4739(2) 0.4805(3)
O4 O 0.1665(2) 0.4437(2) 0.6281(3)
C1 C 0.1518(3) 0.2992(3) 0.4273(4)
C2 C 0.1033(3) 0.3637(3) 0.3965(4)
C3 C 0.1182(3) 0.4292(3) 0.4396(4)
C4 C 0.0394(5) 0.3538(5) 0.3110(7)
C5 C 0.1832(3) 0.4497(2) 0.5204(4)
C6 C 0.3323(3) 0.1792(3) 0.4383(5)
C7 C 0.3731(3) 0.2413(4) 0.4728(6)
C8 C 0.4514(3) 0.2478(4) 0.4467(6)
C9 C 0.4886(3) 0.1927(4) 0.3866(6)
C10 C 0.4500(4) 0.1309(4) 0.3542(6)
C11 C 0.3713(3) 0.1236(3) 0.3777(6)
C12 C 0.1687(3) 0.1554(3) 0.6400(5)
C13 C 0.1942(4) 0.2010(3) 0.7276(5)
C14 C 0.1640(6) 0.1922(4) 0.8382(6)
C15 C 0.1125(7) 0.1404(5) 0.8637(7)
C16 C 0.0849(6) 0.0946(5) 0.7793(8)
C17 C 0.1148(5) 0.1015(4) 0.6668(7)
C18 C 0.1788(3) 0.0721(3) 0.3641(6)
C19 C 0.1482(4) 0.0803(4) 0.2532(6)
C20 C 0.1355(5) 0.0187(5) 0.1845(7)
C21 C 0.1518(4) -0.0504(4) 0.2230(8)
C22 C 0.1809(4) -0.0585(4) 0.3306(8)
C23 C 0.1944(4) 0.0015(4) 0.4014(6)
C24 C 0.3825(3) 0.5523(3) 0.3760(4)
C25 C 0.4293(3) 0.5091(3) 0.4477(5)
C26 C 0.4916(4) 0.5394(4) 0.5063(5)
C27 C 0.5077(4) 0.6122(4) 0.4945(6)
C28 C 0.4632(3) 0.6568(4) 0.4246(6)
C29 C 0.4008(3) 0.6260(3) 0.3647(5)
C30 C 0.1852(3) 0.5851(3) 0.2908(4)
C31 C 0.1335(4) 0.5872(4) 0.1999(5)
C32 C 0.0683(4) 0.6302(5) 0.2046(6)
C33 C 0.0553(4) 0.6743(4) 0.2980(7)
C34 C 0.1047(5) 0.6728(4) 0.3869(7)
C35 C 0.1698(4) 0.6286(4) 0.3864(6)
C36 C 0.2783(3) 0.4038(3) 0.2233(5)
C37 C 0.3420(4) 0.3583(3) 0.2327(5)
C38 C 0.3404(4) 0.2866(3) 0.1900(6)
C39 C 0.2739(5) 0.2604(3) 0.1414(5)
C40 C 0.2108(5) 0.3046(3) 0.1297(5)
C41 C 0.2122(4) 0.3760(3) 0.1689(4)
H1 H 0.0822 0.4699 0.4159
H2 H 0.0363 0.3007 0.2876
H3 H -0.0109 0.3691 0.3470
H4 H 0.0498 0.3847 0.2407
H5 H 0.3460 0.2814 0.5164
H6 H 0.4809 0.2926 0.4716
H7 H 0.5448 0.1982 0.3664
H8 H 0.4784 0.0903 0.3131
H9 H 0.3426 0.0787 0.3513
H10 H 0.2339 0.2398 0.7115
H11 H 0.1816 0.2262 0.9013
H12 H 0.0936 0.1348 0.9455
H13 H 0.0443 0.0569 0.7975
H14 H 0.0968 0.0669 0.6045
H15 H 0.1353 0.1304 0.2228
H16 H 0.1137 0.0252 0.1044
H17 H 0.1422 -0.0942 0.1722
H18 H 0.1929 -0.1090 0.3600
H19 H 0.2160 -0.0063 0.4813
H20 H 0.4176 0.4555 0.4567
H21 H 0.5247 0.5078 0.5573
H22 H 0.5528 0.6339 0.5374
H23 H 0.4755 0.7105 0.4168
H24 H 0.3687 0.6579 0.3125
H25 H 0.1437 0.5568 0.1289
H26 H 0.0302 0.6292 0.1389
H27 H 0.0090 0.7077 0.2999
H28 H 0.0944 0.7047 0.4562
H29 H 0.2057 0.6281 0.4549
H30 H 0.3903 0.3772 0.2709
H31 H 0.3877 0.2548 0.1950
H32 H 0.2714 0.2082 0.1141
H33 H 0.1627 0.2850 0.0920
H34 H 0.1656 0.4083 0.1582
O4A O 0.3335(2) 0.5563(2) 0.1281(3)
Sn2A Sn 0.21767(2) 0.48703(2) 0.78898(3)
C5A C 0.3168(3) 0.5503(2) 0.0204(4)
O3A O 0.2546(2) 0.5261(2) 0.9805(3)
C24A C 0.1175(3) 0.4477(3) 0.8760(4)
C30A C 0.3148(3) 0.4149(3) 0.7908(4)
C36A C 0.2217(3) 0.5962(3) 0.7233(5)
O3A_2 O 0.2546(2) 0.5261(2) -0.0195(3)
C3A C 0.3818(3) 0.5708(3) -0.0604(4)
C5A_2 C 0.3168(3) 0.5503(2) 1.0204(4)
C25A C 0.0707(3) 0.4909(3) 0.9477(5)
C29A C 0.0992(3) 0.3740(3) 0.8647(5)
C31A C 0.3665(4) 0.4128(4) 0.6999(5)
C35A C 0.3302(4) 0.3714(4) 0.8864(6)
C37A C 0.1580(4) 0.6417(3) 0.7327(5)
C41A C 0.2878(4) 0.6240(3) 0.6689(4)
C2A C 0.3967(3) 0.6363(3) -0.1035(4)
H1A H 0.4178 0.5301 -0.0841
C26A C 0.0084(4) 0.4606(4) 1.0063(5)
H20A H 0.0824 0.5445 0.9567
C28A C 0.0368(3) 0.3432(4) 0.9246(6)
H24A H 0.1313 0.3421 0.8125
C32A C 0.4317(4) 0.3698(5) 0.7046(6)
H25A H 0.3563 0.4432 0.6289
C34A C 0.3953(5) 0.3272(4) 0.8869(7)
H29A H 0.2943 0.3719 0.9549
C38A C 0.1596(4) 0.7134(3) 0.6900(6)
H30A H 0.1097 0.6228 0.7709
C40A C 0.2892(5) 0.6954(3) 0.6297(5)
H34A H 0.3344 0.5917 0.6582
C1A C 0.3482(3) 0.7008(3) -0.0727(4)
C4A C 0.4606(5) 0.6462(5) -0.1890(7)
C27A C -0.0077(4) 0.3878(4) 0.9945(6)
H21A H -0.0247 0.4922 1.0573
H23A H 0.0245 0.2895 0.9168
C33A C 0.4447(4) 0.3257(4) 0.7980(7)
H26A H 0.4698 0.3708 0.6389
H28A H 0.4056 0.2953 0.9562
C39A C 0.2261(5) 0.7396(3) 0.6414(5)
H31A H 0.1123 0.7452 0.6950
H33A H 0.3373 0.7150 0.5920
O1A O 0.3660(2) 0.7636(2) -0.1176(3)
O2A O 0.2943(2) 0.6967(2) -0.0024(3)
H2A H 0.4637 0.6993 -0.2124
H3A H 0.5109 0.6309 -0.1530
H4A H 0.4502 0.6153 -0.2593
H22A H -0.0528 0.3661 1.0374
H27A H 0.4910 0.2923 0.7999
H32A H 0.2286 0.7918 0.6141
Sn1A Sn 0.28909(2) 0.83480(2) -0.03302(3)
C6A C 0.1677(3) 0.8208(3) -0.0617(5)
C12A C 0.3313(3) 0.8446(3) 0.1400(5)
C18A C 0.3212(3) 0.9279(3) -0.1359(6)
C7A C 0.1269(3) 0.7587(4) -0.0272(6)
C11A C 0.1287(3) 0.8764(3) -0.1223(6)
C13A C 0.3058(4) 0.7990(3) 0.2276(5)
C17A C 0.3852(5) 0.8985(4) 0.1668(7)
C19A C 0.3518(4) 0.9197(4) -0.2468(6)
C23A C 0.3056(4) 0.9985(4) -0.0986(6)
C8A C 0.0486(3) 0.7522(4) -0.0533(6)
H5A H 0.1540 0.7186 0.0164
C10A C 0.0500(4) 0.8691(4) -0.1458(6)
H9A H 0.1574 0.9213 -0.1487
C14A C 0.3360(6) 0.8078(4) 0.3382(6)
H10A H 0.2661 0.7602 0.2115
C16A C 0.4151(6) 0.9054(5) 0.2793(8)
H14A H 0.4032 0.9331 0.1045
C20A C 0.3645(5) 0.9813(5) -0.3155(7)
H15A H 0.3647 0.8696 -0.2772
C22A C 0.3191(4) 1.0585(4) -0.1694(8)
H19A H 0.2840 1.0063 -0.0187
C9A C 0.0114(3) 0.8073(4) -0.1134(6)
H6A H 0.0191 0.7074 -0.0284
H8A H 0.0216 0.9097 -0.1869
C15A C 0.3875(7) 0.8596(5) 0.3637(7)
H11A H 0.3184 0.7738 0.4013
H13A H 0.4557 0.9431 0.2975
C21A C 0.3482(4) 1.0504(4) -0.2770(8)
H16A H 0.3863 0.9748 -0.3956
H18A H 0.3071 1.1090 -0.1400
H7A H -0.0448 0.8018 -0.1336
H12A H 0.4064 0.8652 0.4455
H17A H 0.3578 1.0942 -0.3278
loop_
_geom_bond_atom_site_label_1
_geom_bond_atom_site_label_2
_geom_bond_site_symmetry_1
_geom_bond_site_symmetry_2
Sn1 O1 1_555 1_555
Sn2 O3 1_555 1_555
O1 C1 1_555 1_555
O2 C1 1_555 1_555
O3 C5 1_555 1_555
O4 C5 1_555 1_555
C1 C2 1_555 1_555
C2 C3 1_555 1_555
C3 C5 1_555 1_555
C4 C2 1_555 1_555
C6 Sn1 1_555 1_555
C7 C6 1_555 1_555
C8 C7 1_555 1_555
C9 C8 1_555 1_555
C10 C9 1_555 1_555
C11 C6 1_555 1_555
C12 Sn1 1_555 1_555
C13 C12 1_555 1_555
C14 C13 1_555 1_555
C15 C14 1_555 1_555
C16 C15 1_555 1_555
C17 C12 1_555 1_555
C18 Sn1 1_555 1_555
C19 C18 1_555 1_555
C20 C19 1_555 1_555
C21 C20 1_555 1_555
C22 C21 1_555 1_555
C23 C18 1_555 1_555
C24 Sn2 1_555 1_555
C25 C24 1_555 1_555
C26 C25 1_555 1_555
C27 C26 1_555 1_555
C28 C27 1_555 1_555
C29 C24 1_555 1_555
C30 Sn2 1_555 1_555
C31 C30 1_555 1_555
C32 C31 1_555 1_555
C33 C32 1_555 1_555
C34 C33 1_555 1_555
C35 C30 1_555 1_555
C36 Sn2 1_555 1_555
C37 C36 1_555 1_555
C38 C37 1_555 1_555
C39 C38 1_555 1_555
C40 C39 1_555 1_555
C41 C36 1_555 1_555
H1 C3 1_555 1_555
H2 C4 1_555 1_555
H3 C4 1_555 1_555
H4 C4 1_555 1_555
H5 C7 1_555 1_555
H6 C8 1_555 1_555
H7 C9 1_555 1_555
H8 C10 1_555 1_555
H9 C11 1_555 1_555
H10 C13 1_555 1_555
H11 C14 1_555 1_555
H12 C15 1_555 1_555
H13 C16 1_555 1_555
H14 C17 1_555 1_555
H15 C19 1_555 1_555
H16 C20 1_555 1_555
H17 C21 1_555 1_555
H18 C22 1_555 1_555
H19 C23 1_555 1_555
H20 C25 1_555 1_555
H21 C26 1_555 1_555
H22 C27 1_555 1_555
H23 C28 1_555 1_555
H24 C29 1_555 1_555
H25 C31 1_555 1_555
H26 C32 1_555 1_555
H27 C33 1_555 1_555
H28 C34 1_555 1_555
H29 C35 1_555 1_555
H30 C37 1_555 1_555
H31 C38 1_555 1_555
H32 C39 1_555 1_555
H33 C40 1_555 1_555
H34 C41 1_555 1_555
O4A Sn2 1_555 1_555
Sn2A O4 1_555 1_555
C5A O4A 1_555 1_555
O3A Sn2A 1_555 1_555
C24A Sn2A 1_555 1_555
C30A Sn2A 1_555 1_555
C36A Sn2A 1_555 1_555
O3A_2 C5A 1_555 1_555
C3A C5A 1_555 1_555
C5A_2 O3A 1_555 1_555
C25A C24A 1_555 1_555
C29A C24A 1_555 1_555
C31A C30A 1_555 1_555
C35A C30A 1_555 1_555
C37A C36A 1_555 1_555
C41A C36A 1_555 1_555
C2A C3A 1_555 1_555
H1A C3A 1_555 1_555
C26A C25A 1_555 1_555
H20A C25A 1_555 1_555
C28A C29A 1_555 1_555
H24A C29A 1_555 1_555
C32A C31A 1_555 1_555
H25A C31A 1_555 1_555
C34A C35A 1_555 1_555
H29A C35A 1_555 1_555
C38A C37A 1_555 1_555
H30A C37A 1_555 1_555
C40A C41A 1_555 1_555
H34A C41A 1_555 1_555
C1A C2A 1_555 1_555
C4A C2A 1_555 1_555
C27A C26A 1_555 1_555
H21A C26A 1_555 1_555
H23A C28A 1_555 1_555
C33A C32A 1_555 1_555
H26A C32A 1_555 1_555
H28A C34A 1_555 1_555
C39A C38A 1_555 1_555
H31A C38A 1_555 1_555
H33A C40A 1_555 1_555
O1A C1A 1_555 1_555
O2A C1A 1_555 1_555
H2A C4A 1_555 1_555
H3A C4A 1_555 1_555
H4A C4A 1_555 1_555
H22A C27A 1_555 1_555
H27A C33A 1_555 1_555
H32A C39A 1_555 1_555
Sn1A O1A 1_555 1_555
C6A Sn1A 1_555 1_555
C12A Sn1A 1_555 1_555
C18A Sn1A 1_555 1_555
C7A C6A 1_555 1_555
C11A C6A 1_555 1_555
C13A C12A 1_555 1_555
C17A C12A 1_555 1_555
C19A C18A 1_555 1_555
C23A C18A 1_555 1_555
C8A C7A 1_555 1_555
H5A C7A 1_555 1_555
C10A C11A 1_555 1_555
H9A C11A 1_555 1_555
C14A C13A 1_555 1_555
H10A C13A 1_555 1_555
C16A C17A 1_555 1_555
H14A C17A 1_555 1_555
C20A C19A 1_555 1_555
H15A C19A 1_555 1_555
C22A C23A 1_555 1_555
H19A C23A 1_555 1_555
C9A C8A 1_555 1_555
H6A C8A 1_555 1_555
H8A C10A 1_555 1_555
C15A C14A 1_555 1_555
H11A C14A 1_555 1_555
H13A C16A 1_555 1_555
C21A C20A 1_555 1_555
H16A C20A 1_555 1_555
H18A C22A 1_555 1_555
H7A C9A 1_555 1_555
H12A C15A 1_555 1_555
H17A C21A 1_555 1_555
C10 C11 1_555 1_555
C16 C17 1_555 1_555
C22 C23 1_555 1_555
C28 C29 1_555 1_555
C34 C35 1_555 1_555
C40 C41 1_555 1_555
C28A C27A 1_555 1_555
C34A C33A 1_555 1_555
C40A C39A 1_555 1_555
C10A C9A 1_555 1_555
C16A C15A 1_555 1_555
C22A C21A 1_555 1_555

#END
