
#######################################################################
#
#                 Cambridge Crystallographic Data Centre
#                                CCDC 
#
#######################################################################
#
# If this CIF has been generated from an entry in the Cambridge 
# Structural Database, then it will include bibliographic, chemical, 
# crystal, experimental, refinement or atomic coordinate data resulting 
# from the CCDC's data processing and validation procedures.
#
#######################################################################

data_YAMJAY01
_symmetry_cell_setting           triclinic
_symmetry_space_group_name_H-M   'P -1'
_symmetry_Int_Tables_number      2
_space_group_name_Hall           '-P 1'
loop_
_symmetry_equiv_pos_site_id
_symmetry_equiv_pos_as_xyz
1 x,y,z
2 -x,-y,-z
_cell_length_a                   7.1443(11)
_cell_length_b                   10.5308(16)
_cell_length_c                   10.5385(16)
_cell_angle_alpha                110.753(2)
_cell_angle_beta                 102.521(2)
_cell_angle_gamma                91.351(2)
_cell_volume                     719.398
loop_
_atom_site_label
_atom_site_type_symbol
_atom_site_fract_x
_atom_site_fract_y
_atom_site_fract_z
Co1 Co 0.0000 1.0000 0.0000
Co2 Co 0.0000 0.5000 0.5000
O1 O 0.1519(3) 0.6995(2) 0.6363(2)
O2 O 0.0267(3) 0.6506(2) 0.4138(2)
O3 O 0.1060(3) 0.9742(2) 0.18822(19)
O4 O 0.2732(3) 1.1785(2) 0.3085(2)
O5 O 0.6055(3) 1.2898(2) 0.8111(2)
O6 O 0.5058(3) 1.1671(2) 0.9223(2)
O7 O 0.2534(3) 0.4354(2) 0.4549(2)
H1 H 0.2522 0.3504 0.4100
H2 H 0.3036 0.4780 0.4133
O8 O 0.1637(3) 0.8460(2) -0.0887(2)
H3 H 0.1686 0.8175 -0.1740
H4 H 0.2771 0.8528 -0.0390
O9 O 0.2139(3) 1.1639(2) 0.0473(2)
H5 H 0.3049 1.1501 0.0054
H6 H 0.2622 1.1769 0.1326
C1 C 0.1986(4) 0.8720(3) 0.5422(3)
C2 C 0.1654(4) 0.9058(3) 0.4244(3)
H7 H 0.0936 0.8428 0.3398
C3 C 0.2369(4) 1.0315(3) 0.4298(3)
C4 C 0.3451(4) 1.1244(3) 0.5569(3)
H8 H 0.3963 1.2084 0.5614
C5 C 0.3778(4) 1.0939(3) 0.6769(3)
C6 C 0.3053(4) 0.9673(3) 0.6696(3)
H9 H 0.3277 0.9459 0.7496
C7 C 0.1223(4) 0.7339(3) 0.5306(3)
C8 C 0.2030(4) 1.0652(3) 0.3004(3)
C9 C 0.5054(4) 1.1914(3) 0.8138(3)
Co2_2 Co 0.0000 1.5000 -0.5000
O1A O -0.1519(3) 1.3005(2) -0.6363(2)
O1A_2 O -0.1519(3) 0.3005(2) 0.3637(2)
O2A O -0.0267(3) 1.3494(2) -0.4138(2)
O2A_2 O -0.0267(3) 0.3494(2) 0.5862(2)
O3A O -0.1060(3) 1.0258(2) -0.18822(19)
O4A O -0.2732(3) 0.8215(2) -0.3085(2)
O5A O -0.6055(3) 0.7102(2) -0.8111(2)
O6A O -0.5058(3) 0.8329(2) -0.9223(2)
O7A O -0.2534(3) 0.5646(2) 0.5451(2)
H1A H -0.2522 0.6496 0.5900
H2A H -0.3036 0.5220 0.5867
O8A O -0.1637(3) 1.1540(2) 0.0887(2)
H3A H -0.1686 1.1825 0.1740
H4A H -0.2771 1.1472 0.0390
O9A O -0.2139(3) 0.8361(2) -0.0473(2)
H5A H -0.3049 0.8499 -0.0054
H6A H -0.2622 0.8231 -0.1326
C1A C -0.1986(4) 1.1280(3) -0.5422(3)
C2A C -0.1654(4) 1.0942(3) -0.4244(3)
H7A H -0.0936 1.1572 -0.3398
C3A C -0.2369(4) 0.9685(3) -0.4298(3)
C4A C -0.3451(4) 0.8756(3) -0.5569(3)
H8A H -0.3963 0.7916 -0.5614
C5A C -0.3778(4) 0.9061(3) -0.6769(3)
C6A C -0.3053(4) 1.0327(3) -0.6696(3)
H9A H -0.3277 1.0541 -0.7496
C7A C -0.1223(4) 1.2661(3) -0.5306(3)
C8A C -0.2030(4) 0.9348(3) -0.3004(3)
C9A C -0.5054(4) 0.8086(3) -0.8138(3)
C10 C 0.8829(5) 0.5889(3) 0.0791(3)
H10 H 0.7579 0.5663 0.0130
H11 H 0.8703 0.6591 0.1652
C11 C 0.9435(5) 0.4647(3) 0.1073(3)
H12 H 1.0621 0.4892 0.1802
H13 H 0.8450 0.4291 0.1401
N1 N 1.0259(4) 0.6422(3) 0.0211(3)
H14 H 1.1388 0.6709 0.0857
H15 H 0.9835 0.7143 0.0010
C10A C 1.1171(5) 0.4111(3) -0.0791(3)
H10A H 1.2421 0.4337 -0.0130
H11A H 1.1297 0.3409 -0.1652
C11A C 1.0565(5) 0.5353(3) -0.1073(3)
H12A H 0.9379 0.5108 -0.1802
H13A H 1.1550 0.5709 -0.1401
N1A N 0.9741(4) 0.3578(3) -0.0211(3)
H14A H 0.8612 0.3291 -0.0857
H15A H 1.0165 0.2857 -0.0010
O10 O 0.4461(4) 0.5031(3) 0.2864(3)
H16 H 0.4503 0.5576 0.2435
H17 H 0.5514 0.5066 0.3442
loop_
_geom_bond_atom_site_label_1
_geom_bond_atom_site_label_2
_geom_bond_site_symmetry_1
_geom_bond_site_symmetry_2
Co1 O3 1_555 1_555
Co2 O1 1_555 1_555
O1 C7 1_555 1_555
O2 Co2 1_555 1_555
O3 C8 1_555 1_555
O4 C8 1_555 1_555
O5 C9 1_555 1_555
O6 C9 1_555 1_555
O7 Co2 1_555 1_555
H1 O7 1_555 1_555
H2 O7 1_555 1_555
O8 Co1 1_555 1_555
H3 O8 1_555 1_555
H4 O8 1_555 1_555
O9 Co1 1_555 1_555
H5 O9 1_555 1_555
H6 O9 1_555 1_555
C1 C2 1_555 1_555
C2 H7 1_555 1_555
C3 C2 1_555 1_555
C4 C3 1_555 1_555
H8 C4 1_555 1_555
C5 C4 1_555 1_555
C6 C1 1_555 1_555
H9 C6 1_555 1_555
C7 O2 1_555 1_555
C8 C3 1_555 1_555
C9 C5 1_555 1_555
C10 H10 1_555 1_555
H11 C10 1_555 1_555
C11 C10 1_555 1_555
H12 C11 1_555 1_555
H13 C11 1_555 1_555
N1 C10 1_555 1_555
H14 N1 1_555 1_555
H15 N1 1_555 1_555
O10 H16 1_555 1_555
H17 O10 1_555 1_555
Co2_2 O1A 1_555 1_555
O1A C7A 1_555 1_555
O1A_2 Co2 1_555 1_555
O2A Co2_2 1_555 1_555
O2A_2 Co2 1_555 1_555
O3A Co1 1_555 1_555
O4A C8A 1_555 1_555
O5A C9A 1_555 1_555
O6A C9A 1_555 1_555
O7A Co2 1_555 1_555
H1A O7A 1_555 1_555
H2A O7A 1_555 1_555
O8A Co1 1_555 1_555
H3A O8A 1_555 1_555
H4A O8A 1_555 1_555
O9A Co1 1_555 1_555
H5A O9A 1_555 1_555
H6A O9A 1_555 1_555
C1A C2A 1_555 1_555
C2A H7A 1_555 1_555
C3A C2A 1_555 1_555
C4A C3A 1_555 1_555
H8A C4A 1_555 1_555
C5A C4A 1_555 1_555
C6A C1A 1_555 1_555
H9A C6A 1_555 1_555
C7A O2A 1_555 1_555
C8A O3A 1_555 1_555
C9A C5A 1_555 1_555
C10A H10A 1_555 1_555
H11A C10A 1_555 1_555
C11A N1 1_555 1_555
H12A C11A 1_555 1_555
H13A C11A 1_555 1_555
N1A C11 1_555 1_555
H14A N1A 1_555 1_555
H15A N1A 1_555 1_555
C1 C7 1_555 1_555
C5 C6 1_555 1_555
C1A C7A 1_555 1_555
C3A C8A 1_555 1_555
C5A C6A 1_555 1_555
C10A C11A 1_555 1_555
C10A N1A 1_555 1_555

#END
