
#######################################################################
#
#                 Cambridge Crystallographic Data Centre
#                                CCDC 
#
#######################################################################
#
# If this CIF has been generated from an entry in the Cambridge 
# Structural Database, then it will include bibliographic, chemical, 
# crystal, experimental, refinement or atomic coordinate data resulting 
# from the CCDC's data processing and validation procedures.
#
#######################################################################

data_YAMJAY
_symmetry_cell_setting           triclinic
_symmetry_space_group_name_H-M   'P -1'
_symmetry_Int_Tables_number      2
_space_group_name_Hall           '-P 1'
loop_
_symmetry_equiv_pos_site_id
_symmetry_equiv_pos_as_xyz
1 x,y,z
2 -x,-y,-z
_cell_length_a                   10.5437(9)
_cell_length_b                   10.5485(9)
_cell_length_c                   7.1482(5)
_cell_angle_alpha                102.462(3)
_cell_angle_beta                 91.350(4)
_cell_angle_gamma                111.019(3)
_cell_volume                     720.181
loop_
_atom_site_label
_atom_site_type_symbol
_atom_site_fract_x
_atom_site_fract_y
_atom_site_fract_z
Co1 Co 0.0000 0.5000 0.5000
Co2 Co 0.5000 0.0000 0.5000
O1 O 0.02539(15) 0.31166(14) 0.3943(2)
O2 O -0.17907(16) 0.19115(15) 0.2268(3)
O3 O 0.34943(16) 0.08650(16) 0.4739(3)
O4 O 0.30032(15) -0.13628(15) 0.3483(2)
O5 O -0.16746(18) -0.42229(15) -0.0060(2)
O6 O -0.28901(17) -0.31108(17) -0.1066(2)
H2 H -0.3623 -0.3598 -0.1449
O7 O 0.16362(15) 0.54711(15) 0.7140(2)
H3 H 0.1553 0.5023 0.8083
H4 H 0.1833 0.6259 0.7529
O8 O 0.15368(16) 0.58877(15) 0.3363(2)
H5 H 0.1533 0.5411 0.2294
H6 H 0.1928 0.6784 0.3409
O9 O 0.56344(17) 0.0446(2) 0.2463(3)
H7 H 0.6437 0.0731 0.2343
H8 H 0.5242 0.0976 0.1939
C1 C -0.0321(2) 0.0698(2) 0.2625(3)
C2 C 0.0943(2) 0.0763(2) 0.3350(3)
H11 H 0.1574 0.1611 0.4068
C3 C 0.12755(19) -0.0425(2) 0.3013(3)
C4 C 0.0324(2) -0.1695(2) 0.1950(3)
H12 H 0.0537 -0.2494 0.1728
C5 C -0.0943(2) -0.1773(2) 0.1218(3)
C6 C -0.1257(2) -0.0573(2) 0.1541(3)
H13 H -0.2097 -0.0622 0.1029
C7 C -0.0649(2) 0.2003(2) 0.2974(3)
C8 C 0.2657(2) -0.0304(2) 0.3778(3)
C9 C -0.1912(2) -0.3141(2) -0.0048(3)
Co2_2 Co -0.5000 1.0000 0.5000
O1A O -0.02539(15) 0.68834(14) 0.6057(2)
O2A O 0.17907(16) 0.80885(15) 0.7732(3)
O3A O -0.34943(16) 0.91350(16) 0.5261(3)
O3A_2 O 0.65057(16) -0.08650(16) 0.5261(3)
O4A O -0.30032(15) 1.13628(15) 0.6517(2)
O4A_2 O 0.69968(15) 0.13628(15) 0.6517(2)
O5A O 0.16746(18) 1.42229(15) 1.0060(2)
O6A O 0.28901(17) 1.31108(17) 1.1066(2)
H2A H 0.3623 1.3598 1.1449
O7A O -0.16362(15) 0.45289(15) 0.2860(2)
H3A H -0.1553 0.4977 0.1917
H4A H -0.1833 0.3741 0.2471
O8A O -0.15368(16) 0.41123(15) 0.6637(2)
H5A H -0.1533 0.4589 0.7706
H6A H -0.1928 0.3216 0.6591
O9A O 0.43656(17) -0.0446(2) 0.7537(3)
H7A H 0.3563 -0.0731 0.7657
H8A H 0.4758 -0.0976 0.8061
C1A C 0.0321(2) 0.9302(2) 0.7375(3)
C2A C -0.0943(2) 0.9237(2) 0.6650(3)
H11A H -0.1574 0.8389 0.5932
C3A C -0.12755(19) 1.0425(2) 0.6987(3)
C4A C -0.0324(2) 1.1695(2) 0.8050(3)
H12A H -0.0537 1.2494 0.8272
C5A C 0.0943(2) 1.1773(2) 0.8782(3)
C6A C 0.1257(2) 1.0573(2) 0.8459(3)
H13A H 0.2097 1.0622 0.8971
C7A C 0.0649(2) 0.7997(2) 0.7026(3)
C8A C -0.2657(2) 1.0304(2) 0.6222(3)
C9A C 0.1912(2) 1.3141(2) 1.0048(3)
N1 N 0.35714(19) 0.4787(2) 0.4746(3)
H1 H 0.3334 0.4167 0.3553
C10 C 0.4107(2) 0.4211(3) 0.6175(4)
H14 H 0.3402 0.3352 0.6311
H15 H 0.4343 0.4875 0.7421
C11 C 0.4648(2) 0.6081(2) 0.4451(4)
H16 H 0.4899 0.6804 0.5642
H17 H 0.4293 0.6417 0.3476
N1A N 0.64286(19) 0.5213(2) 0.5254(3)
H1A H 0.6666 0.5833 0.6447
C10A C 0.5893(2) 0.5789(3) 0.3825(4)
H14A H 0.6598 0.6648 0.3689
H15A H 0.5657 0.5125 0.2579
C11A C 0.5352(2) 0.3919(2) 0.5549(4)
H16A H 0.5101 0.3196 0.4358
H17A H 0.5707 0.3583 0.6524
O10 O -0.4968(3) -0.2129(3) -0.0519(4)
H9 H -0.4215 -0.2336 -0.0807
H10 H -0.4795 -0.1401 0.0924
loop_
_geom_bond_atom_site_label_1
_geom_bond_atom_site_label_2
_geom_bond_site_symmetry_1
_geom_bond_site_symmetry_2
Co1 O1 1_555 1_555
Co2 O3 1_555 1_555
N1 H1 1_555 1_555
O1 C7 1_555 1_555
O2 C7 1_555 1_555
O3 C8 1_555 1_555
O4 Co2 1_555 1_555
O5 C9 1_555 1_555
O6 H2 1_555 1_555
O7 Co1 1_555 1_555
H3 O7 1_555 1_555
H4 O7 1_555 1_555
O8 Co1 1_555 1_555
H5 O8 1_555 1_555
H6 O8 1_555 1_555
O9 Co2 1_555 1_555
H7 O9 1_555 1_555
H8 O9 1_555 1_555
O10 H9 1_555 1_555
H10 O10 1_555 1_555
C1 C2 1_555 1_555
C2 H11 1_555 1_555
C3 C2 1_555 1_555
C4 C3 1_555 1_555
H12 C4 1_555 1_555
C5 C4 1_555 1_555
C6 C1 1_555 1_555
H13 C6 1_555 1_555
C7 C1 1_555 1_555
C8 O4 1_555 1_555
C9 O6 1_555 1_555
C10 N1 1_555 1_555
H14 C10 1_555 1_555
H15 C10 1_555 1_555
C11 N1 1_555 1_555
H16 C11 1_555 1_555
H17 C11 1_555 1_555
Co2_2 O3A 1_555 1_555
N1A H1A 1_555 1_555
O1A Co1 1_555 1_555
O2A C7A 1_555 1_555
O3A C8A 1_555 1_555
O3A_2 Co2 1_555 1_555
O4A Co2_2 1_555 1_555
O4A_2 Co2 1_555 1_555
O5A C9A 1_555 1_555
O6A H2A 1_555 1_555
O7A Co1 1_555 1_555
H3A O7A 1_555 1_555
H4A O7A 1_555 1_555
O8A Co1 1_555 1_555
H5A O8A 1_555 1_555
H6A O8A 1_555 1_555
O9A Co2 1_555 1_555
H7A O9A 1_555 1_555
H8A O9A 1_555 1_555
C1A C2A 1_555 1_555
C2A H11A 1_555 1_555
C3A C2A 1_555 1_555
C4A C3A 1_555 1_555
H12A C4A 1_555 1_555
C5A C4A 1_555 1_555
C6A C1A 1_555 1_555
H13A C6A 1_555 1_555
C7A O1A 1_555 1_555
C8A O4A 1_555 1_555
C9A O6A 1_555 1_555
C10A C11 1_555 1_555
H14A C10A 1_555 1_555
H15A C10A 1_555 1_555
C11A C10 1_555 1_555
H16A C11A 1_555 1_555
H17A C11A 1_555 1_555
C3 C8 1_555 1_555
C5 C6 1_555 1_555
C5 C9 1_555 1_555
N1A C10A 1_555 1_555
N1A C11A 1_555 1_555
C1A C7A 1_555 1_555
C3A C8A 1_555 1_555
C5A C6A 1_555 1_555
C5A C9A 1_555 1_555

#END
