
#######################################################################
#
#                 Cambridge Crystallographic Data Centre
#                                CCDC 
#
#######################################################################
#
# If this CIF has been generated from an entry in the Cambridge 
# Structural Database, then it will include bibliographic, chemical, 
# crystal, experimental, refinement or atomic coordinate data resulting 
# from the CCDC's data processing and validation procedures.
#
#######################################################################

data_YAMNUW01
_symmetry_cell_setting           triclinic
_symmetry_space_group_name_H-M   'P -1'
_symmetry_Int_Tables_number      2
_space_group_name_Hall           '-P 1'
loop_
_symmetry_equiv_pos_site_id
_symmetry_equiv_pos_as_xyz
1 x,y,z
2 -x,-y,-z
_cell_length_a                   6.8848(2)
_cell_length_b                   7.0686(2)
_cell_length_c                   24.7422(7)
_cell_angle_alpha                96.458(2)
_cell_angle_beta                 90.796(2)
_cell_angle_gamma                108.6280(10)
_cell_volume                     1132.19
loop_
_atom_site_label
_atom_site_type_symbol
_atom_site_fract_x
_atom_site_fract_y
_atom_site_fract_z
Sr1 Sr 1.06741(3) 0.71791(3) 0.294708(7)
S1 S 0.91183(8) 0.19583(8) 0.34245(2)
S2 S 0.75422(9) 0.60847(9) 0.15304(2)
O1 O 0.8900(3) 0.6373(3) 0.20069(7)
O2 O 0.6196(3) 0.7313(3) 0.15812(9)
O3 O 1.2692(3) 0.8508(4) -0.03157(8)
H1 H 1.1985 0.8428 -0.0592
O4 O 0.6301(3) 0.6740(3) -0.04913(8)
O5 O 1.3361(3) 0.5801(3) 0.23998(8)
O6 O 1.3320(3) 0.2955(4) 0.55781(8)
H2 H 1.2525 0.2923 0.5823
O7 O 0.7104(3) 0.2251(3) 0.54674(7)
O8 O 0.6346(3) 0.3975(3) 0.13784(7)
O9 O 0.9270(3) 0.7768(4) -0.08952(8)
O10 O 1.0299(3) 0.3636(2) 0.31472(7)
O11 O 0.6606(3) 0.5456(3) 0.31128(8)
O12 O 0.9148(3) 0.0022(3) 0.31627(7)
O13 O 0.9863(3) 0.2682(3) 0.60083(7)
O14 O 0.7026(3) 0.1973(3) 0.35134(7)
O15 O 1.4294(3) 0.8109(3) 0.35390(7)
C1 C 1.0341(4) 0.2304(3) 0.40767(9)
C2 C 1.0200(4) 0.2511(4) 0.50516(9)
C3 C 1.2438(4) 0.2538(4) 0.41235(10)
H3 H 1.3183 0.2543 0.3813
C4 C 0.9110(4) 0.6839(4) 0.09846(9)
C5 C 0.9241(3) 0.2284(3) 0.45365(9)
H4 H 0.7847 0.2118 0.4504
C6 C 0.8160(4) 0.6825(4) 0.04863(10)
H5 H 0.6737 0.6443 0.0450
C7 C 0.9326(4) 0.7381(4) 0.00397(9)
C8 C 0.9040(4) 0.2489(3) 0.55464(9)
C9 C 0.8313(4) 0.7308(4) -0.04927(10)
C10 C 1.3390(4) 0.2757(4) 0.46266(11)
H6 H 1.4783 0.2918 0.4656
C11 C 1.2302(4) 0.2742(4) 0.50923(10)
C12 C 1.2412(4) 0.7992(4) 0.06050(12)
H7 H 1.3835 0.8388 0.0646
C13 C 1.1470(4) 0.7963(4) 0.00972(10)
C14 C 1.1239(4) 0.7436(4) 0.10444(11)
H8 H 1.1874 0.7461 0.1381
O18 O 1.3162(3) 1.0336(3) 0.26408(10)
Sr1_2 Sr 1.06741(3) -0.28209(3) 0.294708(7)
Sr1A Sr 0.93259(3) 0.28209(3) 0.705292(7)
O12_2 O 0.9148(3) 1.0022(3) 0.31627(7)
O13A O 1.0137(3) 0.7318(3) 0.39917(7)
O16 O 1.1079(3) 0.2037(3) 0.19982(8)
O17 O 0.6790(4) 1.1192(3) 0.20605(10)
loop_
_geom_bond_atom_site_label_1
_geom_bond_atom_site_label_2
_geom_bond_site_symmetry_1
_geom_bond_site_symmetry_2
Sr1 O1 1_555 1_555
S1 O10 1_555 1_555
S2 O1 1_555 1_555
O2 S2 1_555 1_555
O3 H1 1_555 1_555
O4 C9 1_555 1_555
O5 Sr1 1_555 1_555
O6 H2 1_555 1_555
O7 C8 1_555 1_555
O8 S2 1_555 1_555
O9 C9 1_555 1_555
O10 Sr1 1_555 1_555
O11 Sr1 1_555 1_555
O12 S1 1_555 1_555
O13 C8 1_555 1_555
O14 S1 1_555 1_555
O15 Sr1 1_555 1_555
C1 S1 1_555 1_555
C2 C5 1_555 1_555
C3 C1 1_555 1_555
H3 C3 1_555 1_555
C4 S2 1_555 1_555
C5 C1 1_555 1_555
H4 C5 1_555 1_555
C6 C4 1_555 1_555
H5 C6 1_555 1_555
C7 C6 1_555 1_555
C8 C2 1_555 1_555
C9 C7 1_555 1_555
C10 C3 1_555 1_555
H6 C10 1_555 1_555
C11 O6 1_555 1_555
C12 H7 1_555 1_555
C13 O3 1_555 1_555
C14 C4 1_555 1_555
H8 C14 1_555 1_555
O18 Sr1 1_555 1_555
Sr1_2 O12 1_555 1_555
Sr1A O13 1_555 1_555
O12_2 Sr1 1_555 1_555
O13A Sr1 1_555 1_555
C2 C11 1_555 1_555
C7 C13 1_555 1_555
C10 C11 1_555 1_555
C12 C13 1_555 1_555
C12 C14 1_555 1_555

#END
