
#######################################################################
#
#                 Cambridge Crystallographic Data Centre
#                                CCDC 
#
#######################################################################
#
# If this CIF has been generated from an entry in the Cambridge 
# Structural Database, then it will include bibliographic, chemical, 
# crystal, experimental, refinement or atomic coordinate data resulting 
# from the CCDC's data processing and validation procedures.
#
#######################################################################

data_YAMNIK
_symmetry_cell_setting           monoclinic
_symmetry_space_group_name_H-M   'P 21/n'
_symmetry_Int_Tables_number      14
_space_group_name_Hall           '-P 2yn'
loop_
_symmetry_equiv_pos_site_id
_symmetry_equiv_pos_as_xyz
1 x,y,z
2 1/2-x,1/2+y,1/2-z
3 -x,-y,-z
4 1/2+x,1/2-y,1/2+z
_cell_length_a                   14.4250(10)
_cell_length_b                   7.6138(5)
_cell_length_c                   18.1290(10)
_cell_angle_alpha                90
_cell_angle_beta                 111.7760(10)
_cell_angle_gamma                90
_cell_volume                     1849.01
loop_
_atom_site_label
_atom_site_type_symbol
_atom_site_fract_x
_atom_site_fract_y
_atom_site_fract_z
Co1 Co 0.41184(5) 0.42354(9) 0.17967(4)
S1 S 0.80127(9) 0.47625(17) 0.64860(7)
O1 O 0.4868(3) 0.3853(5) 0.2981(2)
O2 O 0.5986(3) 0.5996(6) 0.3397(2)
O3 O 0.4402(3) 0.2027(6) 0.3987(2)
O4 O 0.8435(3) 0.3190(5) 0.6940(2)
O5 O 0.8628(3) 0.5547(5) 0.6105(2)
O6 O 0.7744(3) 0.6009(5) 0.6987(2)
O7 O 0.4931(3) 0.6655(5) 0.1843(2)
O8 O 0.2945(3) 0.5464(5) 0.1949(2)
N1 N 0.5116(3) 0.2892(6) 0.1395(3)
N2 N 0.3412(4) 0.4402(6) 0.0541(3)
C1 C 0.5543(4) 0.4723(8) 0.3523(3)
C2 C 0.5793(4) 0.4046(7) 0.4356(3)
C3 C 0.5207(4) 0.2768(7) 0.4530(3)
C4 C 0.5457(4) 0.2222(7) 0.5313(3)
C5 C 0.6294(4) 0.2833(7) 0.5904(3)
C6 C 0.6899(4) 0.4063(7) 0.5728(3)
C7 C 0.6628(4) 0.4700(7) 0.4967(3)
C8 C 0.5952(5) 0.2139(10) 0.1869(5)
C9 C 0.6587(6) 0.1265(12) 0.1570(6)
C10 C 0.6326(6) 0.1186(11) 0.0769(6)
C11 C 0.5472(5) 0.1967(9) 0.0276(5)
C12 C 0.4867(4) 0.2821(8) 0.0603(4)
C13 C 0.3913(4) 0.3678(8) 0.0130(3)
C14 C 0.3541(6) 0.3752(10) -0.0700(4)
C15 C 0.2640(7) 0.4565(12) -0.1083(4)
C16 C 0.2125(6) 0.5316(11) -0.0659(4)
C17 C 0.2539(5) 0.5195(9) 0.0153(4)
H1 H 0.4293 0.2487 0.3536
H2 H 0.5318 0.6855 0.2319
H3 H 0.4520 0.7500 0.1677
H4 H 0.2832 0.4986 0.2331
H5 H 0.3085 0.6542 0.2053
H6 H 0.5046 0.1426 0.5436
H7 H 0.6461 0.2432 0.6422
H8 H 0.7008 0.5580 0.4860
H9 H 0.6121 0.2195 0.2416
H10 H 0.7174 0.0749 0.1911
H11 H 0.6733 0.0594 0.0557
H12 H 0.5297 0.1928 -0.0272
H13 H 0.3895 0.3262 -0.0986
H14 H 0.2375 0.4609 -0.1635
H15 H 0.1519 0.5884 -0.0914
H16 H 0.2197 0.5687 0.0448
Co1C Co 0.91184(5) 0.07646(9) 0.67967(4)
O4C O 0.3435(3) 0.1810(5) 0.1940(2)
loop_
_geom_bond_atom_site_label_1
_geom_bond_atom_site_label_2
_geom_bond_site_symmetry_1
_geom_bond_site_symmetry_2
Co1 O1 1_555 1_555
S1 O4 1_555 1_555
O1 C1 1_555 1_555
O2 C1 1_555 1_555
O3 C3 1_555 1_555
O4 Co1C 1_555 1_555
O5 S1 1_555 1_555
O6 S1 1_555 1_555
O7 Co1 1_555 1_555
O8 Co1 1_555 1_555
N1 Co1 1_555 1_555
N2 Co1 1_555 1_555
C1 C2 1_555 1_555
C2 C3 1_555 1_555
C3 C4 1_555 1_555
C4 C5 1_555 1_555
C5 C6 1_555 1_555
C6 S1 1_555 1_555
C7 C2 1_555 1_555
C8 N1 1_555 1_555
C9 C8 1_555 1_555
C10 C9 1_555 1_555
C11 C10 1_555 1_555
C12 N1 1_555 1_555
C13 N2 1_555 1_555
C14 C13 1_555 1_555
C15 C14 1_555 1_555
C16 C15 1_555 1_555
C17 N2 1_555 1_555
H1 O3 1_555 1_555
H2 O7 1_555 1_555
H3 O7 1_555 1_555
H4 O8 1_555 1_555
H5 O8 1_555 1_555
H6 C4 1_555 1_555
H7 C5 1_555 1_555
H8 C7 1_555 1_555
H9 C8 1_555 1_555
H10 C9 1_555 1_555
H11 C10 1_555 1_555
H12 C11 1_555 1_555
H13 C14 1_555 1_555
H14 C15 1_555 1_555
H15 C16 1_555 1_555
H16 C17 1_555 1_555
O4C Co1 1_555 1_555
C6 C7 1_555 1_555
C11 C12 1_555 1_555
C12 C13 1_555 1_555
C16 C17 1_555 1_555

#END
