
#######################################################################
#
#                 Cambridge Crystallographic Data Centre
#                                CCDC 
#
#######################################################################
#
# If this CIF has been generated from an entry in the Cambridge 
# Structural Database, then it will include bibliographic, chemical, 
# crystal, experimental, refinement or atomic coordinate data resulting 
# from the CCDC's data processing and validation procedures.
#
#######################################################################

data_YAMQUZ
_symmetry_cell_setting           monoclinic
_symmetry_space_group_name_H-M   'C 2/c'
_symmetry_Int_Tables_number      15
_space_group_name_Hall           '-C 2yn'
loop_
_symmetry_equiv_pos_site_id
_symmetry_equiv_pos_as_xyz
1 x,y,z
2 1/2+x,1/2+y,z
3 -x,y,1/2-z
4 1/2-x,1/2+y,1/2-z
5 -x,-y,-z
6 1/2-x,1/2-y,-z
7 x,-y,1/2+z
8 1/2+x,1/2-y,1/2+z
_cell_length_a                   11.7510(14)
_cell_length_b                   5.5100(11)
_cell_length_c                   18.2770(17)
_cell_angle_alpha                90
_cell_angle_beta                 96.14(2)
_cell_angle_gamma                90
_cell_volume                     1176.61
loop_
_atom_site_label
_atom_site_type_symbol
_atom_site_fract_x
_atom_site_fract_y
_atom_site_fract_z
Cd1 Cd 0.0000 0.22967(11) 0.7500
O1 O -0.1785(4) 0.3997(9) 0.7048(3)
O2 O -0.0250(4) 0.5399(8) 0.6618(3)
O3 O -0.1388(4) 0.9068(10) 0.5916(3)
O4 O 0.0931(4) -0.0465(10) 0.6934(3)
C1 C -0.1306(5) 0.5483(12) 0.6664(3)
C2 C -0.2051(6) 0.7403(12) 0.6272(4)
C3 C -0.1980(5) 1.0742(12) 0.5469(4)
C4 C -0.1332(6) 1.2213(13) 0.5070(4)
C5 C -0.3159(5) 1.1033(13) 0.5403(4)
H1 H 0.1648(14) -0.071(16) 0.696(5)
H2 H 0.058(6) -0.161(13) 0.669(5)
H3 H -0.2606 0.6644 0.5913
H4 H -0.2465 0.8258 0.6625
H5 H -0.0541 1.2031 0.5118
H6 H -0.3607 1.0058 0.5673
Cd1G Cd -0.5000 2.27033(11) 0.2500
O1E O -0.3215(4) 2.1003(9) 0.2952(3)
O1B O 0.1785(4) 0.3997(9) 0.7952(3)
O2E O -0.4750(4) 1.9601(8) 0.3382(3)
O2B O 0.0250(4) 0.5399(8) 0.8382(3)
O3E O -0.3612(4) 1.5932(10) 0.4084(3)
O4B O -0.0931(4) -0.0465(10) 0.8066(3)
C1E C -0.3694(5) 1.9517(12) 0.3336(3)
C2E C -0.2949(6) 1.7597(12) 0.3728(4)
C3E C -0.3020(5) 1.4258(12) 0.4531(4)
C4E C -0.3668(6) 1.2787(13) 0.4930(4)
C5E C -0.1841(5) 1.3967(13) 0.4597(4)
H1B H -0.1648(14) -0.071(16) 0.804(5)
H2B H -0.058(6) -0.161(13) 0.831(5)
H3E H -0.2394 1.8356 0.4087
H4E H -0.2535 1.6742 0.3375
H5E H -0.4459 1.2969 0.4882
H6E H -0.1393 1.4942 0.4327
loop_
_geom_bond_atom_site_label_1
_geom_bond_atom_site_label_2
_geom_bond_site_symmetry_1
_geom_bond_site_symmetry_2
Cd1 O1 1_555 1_555
O1 C1 1_555 1_555
O2 Cd1 1_555 1_555
O3 C2 1_555 1_555
O4 Cd1 1_555 1_555
C1 O2 1_555 1_555
C2 C1 1_555 1_555
C3 O3 1_555 1_555
C4 C3 1_555 1_555
C5 C3 1_555 1_555
H1 O4 1_555 1_555
H2 O4 1_555 1_555
H3 C2 1_555 1_555
H4 C2 1_555 1_555
H5 C4 1_555 1_555
H6 C5 1_555 1_555
Cd1G O1E 1_555 1_555
O1E C1E 1_555 1_555
O1B Cd1 1_555 1_555
O2E Cd1G 1_555 1_555
O2B Cd1 1_555 1_555
O3E C2E 1_555 1_555
O4B Cd1 1_555 1_555
C1E O2E 1_555 1_555
C2E C1E 1_555 1_555
C3E O3E 1_555 1_555
C4E C5 1_555 1_555
C5E C4 1_555 1_555
H1B O4B 1_555 1_555
H2B O4B 1_555 1_555
H3E C2E 1_555 1_555
H4E C2E 1_555 1_555
H5E C4E 1_555 1_555
H6E C5E 1_555 1_555
C3E C4E 1_555 1_555
C3E C5E 1_555 1_555

#END
