
#######################################################################
#
#                 Cambridge Crystallographic Data Centre
#                                CCDC 
#
#######################################################################
#
# If this CIF has been generated from an entry in the Cambridge 
# Structural Database, then it will include bibliographic, chemical, 
# crystal, experimental, refinement or atomic coordinate data resulting 
# from the CCDC's data processing and validation procedures.
#
#######################################################################

data_YANBAR03
_symmetry_cell_setting           monoclinic
_symmetry_space_group_name_H-M   'P 21/n'
_symmetry_Int_Tables_number      14
_space_group_name_Hall           '-P 2yn'
loop_
_symmetry_equiv_pos_site_id
_symmetry_equiv_pos_as_xyz
1 x,y,z
2 1/2-x,1/2+y,1/2-z
3 -x,-y,-z
4 1/2+x,1/2-y,1/2+z
_cell_length_a                   11.3729(4)
_cell_length_b                   9.9463(4)
_cell_length_c                   14.5118(6)
_cell_angle_alpha                90
_cell_angle_beta                 91.2783(15)
_cell_angle_gamma                90
_cell_volume                     1641.14
loop_
_atom_site_label
_atom_site_type_symbol
_atom_site_fract_x
_atom_site_fract_y
_atom_site_fract_z
Co1 Co 0.25477(2) 0.42208(2) 0.133533(16)
Co2 Co 0.5000 0.5000 0.0000
Co3 Co 0.0000 0.5000 0.0000
Co4 Co 0.23921(2) 0.61426(2) 0.309185(16)
O1 O 0.34805(11) 0.58268(12) 0.19574(9)
O2 O 0.50984(12) 0.62210(14) 0.11547(9)
C1 C 0.44456(17) 0.64291(19) 0.18049(13)
H1 H 0.4684 0.7103 0.2234
O3 O 0.18492(11) 0.52599(13) 0.02297(9)
O4 O 0.34905(12) 0.60206(14) -0.04212(10)
C2 C 0.24098(17) 0.59905(18) -0.03395(13)
H2 H 0.1956 0.6560 -0.0734
O5 O 0.15736(10) 0.24471(14) 0.10835(8)
O6 O 0.02093(12) 0.29386(14) -0.00060(9)
C3 C 0.07800(16) 0.21420(18) 0.04833(13)
H3 H 0.0611 0.1213 0.0404
O7 O 0.30439(11) 0.30342(12) 0.24837(8)
O8 O 0.30354(12) 0.44243(13) 0.37011(9)
C4 C 0.31797(16) 0.33055(18) 0.33401(12)
H4 H 0.3412 0.2588 0.3736
O9 O 0.40133(11) 0.34919(13) 0.06636(9)
O10 O 0.39561(12) 0.12863(13) 0.09992(9)
C5 C 0.43797(15) 0.22800(18) 0.06123(12)
H5 H 0.5043 0.2125 0.0240
O11 O 0.12868(12) 0.50825(12) 0.21747(9)
O12 O -0.04272(12) 0.50074(14) 0.13917(10)
C6 C 0.01732(16) 0.51772(19) 0.21010(13)
H6 H -0.0235 0.5400 0.2644
Co1B Co -0.25477(2) 0.57792(2) -0.133533(16)
Co4B Co -0.23921(2) 0.38574(2) -0.309185(16)
O1B O -0.34805(11) 0.41732(12) -0.19574(9)
O2B O -0.50984(12) 0.37790(14) -0.11547(9)
C1B C -0.44456(17) 0.35709(19) -0.18049(13)
H1B H -0.4684 0.2897 -0.2234
O3B O -0.18492(11) 0.47401(13) -0.02297(9)
O4B O -0.34905(12) 0.39794(14) 0.04212(10)
C2B C -0.24098(17) 0.40095(18) 0.03395(13)
H2B H -0.1956 0.3440 0.0734
O5B O -0.15736(10) 0.75529(14) -0.10835(8)
O6B O -0.02093(12) 0.70614(14) 0.00060(9)
C3B C -0.07800(16) 0.78580(18) -0.04833(13)
H3B H -0.0611 0.8787 -0.0404
O7B O -0.30439(11) 0.69658(12) -0.24837(8)
O8B O -0.30354(12) 0.55757(13) -0.37011(9)
C4B C -0.31797(16) 0.66945(18) -0.33401(12)
H4B H -0.3412 0.7412 -0.3736
O9B O -0.40133(11) 0.65081(13) -0.06636(9)
O10B O -0.39561(12) 0.87137(13) -0.09992(9)
C5B C -0.43797(15) 0.77200(18) -0.06123(12)
H5B H -0.5043 0.7875 -0.0240
O11B O -0.12868(12) 0.49175(12) -0.21747(9)
O12B O 0.04272(12) 0.49926(14) -0.13917(10)
C6B C -0.01732(16) 0.48228(19) -0.21010(13)
H6B H 0.0235 0.4600 -0.2644
Co2_2 Co -0.5000 0.5000 0.0000
Co4A Co 0.26079(2) 0.11426(2) 0.190815(16)
Co4C Co -0.26079(2) 0.88574(2) -0.190815(16)
O2B_2 O 0.49016(12) 0.37790(14) -0.11547(9)
O4B_2 O 0.65095(12) 0.39794(14) 0.04212(10)
O5A O 0.34264(10) 0.74471(14) 0.39165(8)
O5C O -0.34264(10) 0.25529(14) -0.39165(8)
O7A O 0.19561(11) 0.80342(12) 0.25163(8)
O7C O -0.19561(11) 0.19658(12) -0.25163(8)
O9B_2 O 0.59867(11) 0.65081(13) -0.06636(9)
O10A O 0.10439(12) 0.62863(13) 0.40008(9)
O10C O -0.10439(12) 0.37137(13) -0.40008(9)
O13 O 0.6311(2) 0.6377(2) 0.34478(15)
N1 N 0.70234(19) 0.4245(2) 0.33714(14)
C7 C 0.7063(3) 0.5525(3) 0.36295(19)
H7 H 0.7730 0.5806 0.3985
C8 C 0.6013(3) 0.3724(3) 0.2852(2)
H8 H 0.5382 0.4395 0.2844
H9 H 0.5736 0.2897 0.3142
H10 H 0.6242 0.3531 0.2218
C9 C 0.7959(3) 0.3294(3) 0.3560(2)
H11 H 0.8584 0.3733 0.3925
H12 H 0.8277 0.2976 0.2977
H13 H 0.7649 0.2529 0.3904
loop_
_geom_bond_atom_site_label_1
_geom_bond_atom_site_label_2
_geom_bond_site_symmetry_1
_geom_bond_site_symmetry_2
Co1 O1 1_555 1_555
Co2 O2 1_555 1_555
Co3 O3 1_555 1_555
Co4 O1 1_555 1_555
O1 C1 1_555 1_555
O2 C1 1_555 1_555
C1 H1 1_555 1_555
O3 Co1 1_555 1_555
O4 Co2 1_555 1_555
C2 O3 1_555 1_555
H2 C2 1_555 1_555
O5 Co1 1_555 1_555
O6 Co3 1_555 1_555
C3 O5 1_555 1_555
H3 C3 1_555 1_555
O7 Co1 1_555 1_555
O8 Co4 1_555 1_555
C4 O7 1_555 1_555
H4 C4 1_555 1_555
O9 Co1 1_555 1_555
O10 C5 1_555 1_555
C5 O9 1_555 1_555
H5 C5 1_555 1_555
O11 Co1 1_555 1_555
O12 Co3 1_555 1_555
C6 O11 1_555 1_555
H6 C6 1_555 1_555
O13 C7 1_555 1_555
N1 C7 1_555 1_555
C7 H7 1_555 1_555
C8 N1 1_555 1_555
H8 C8 1_555 1_555
H9 C8 1_555 1_555
H10 C8 1_555 1_555
C9 N1 1_555 1_555
H11 C9 1_555 1_555
H12 C9 1_555 1_555
H13 C9 1_555 1_555
Co1B O1B 1_555 1_555
Co4B O1B 1_555 1_555
O1B C1B 1_555 1_555
O2B C1B 1_555 1_555
C1B H1B 1_555 1_555
O3B Co3 1_555 1_555
O4B C2B 1_555 1_555
C2B O3B 1_555 1_555
H2B C2B 1_555 1_555
O5B Co1B 1_555 1_555
O6B Co3 1_555 1_555
C3B O5B 1_555 1_555
H3B C3B 1_555 1_555
O7B Co1B 1_555 1_555
O8B Co4B 1_555 1_555
C4B O7B 1_555 1_555
H4B C4B 1_555 1_555
O9B Co1B 1_555 1_555
O10B C5B 1_555 1_555
C5B O9B 1_555 1_555
H5B C5B 1_555 1_555
O11B Co1B 1_555 1_555
O12B Co3 1_555 1_555
C6B O11B 1_555 1_555
H6B C6B 1_555 1_555
Co2_2 O2B 1_555 1_555
Co4A O5 1_555 1_555
Co4C O5B 1_555 1_555
O2B_2 Co2 1_555 1_555
O4B_2 Co2 1_555 1_555
O5A Co4 1_555 1_555
O5C Co4B 1_555 1_555
O7A Co4 1_555 1_555
O7C Co4B 1_555 1_555
O9B_2 Co2 1_555 1_555
O10A Co4 1_555 1_555
O10C Co4B 1_555 1_555
Co2 O9 1_555 1_555
Co4 O11 1_555 1_555
O4 C2 1_555 1_555
O6 C3 1_555 1_555
O7 Co4A 1_555 1_555
O8 C4 1_555 1_555
O10 Co4A 1_555 1_555
O12 C6 1_555 1_555
Co1B O3B 1_555 1_555
Co4B O11B 1_555 1_555
O4B Co2_2 1_555 1_555
O6B C3B 1_555 1_555
O7B Co4C 1_555 1_555
O8B C4B 1_555 1_555
O9B Co2_2 1_555 1_555
O10B Co4C 1_555 1_555
O12B C6B 1_555 1_555

#END
