
#######################################################################
#
#                 Cambridge Crystallographic Data Centre
#                                CCDC 
#
#######################################################################
#
# If this CIF has been generated from an entry in the Cambridge 
# Structural Database, then it will include bibliographic, chemical, 
# crystal, experimental, refinement or atomic coordinate data resulting 
# from the CCDC's data processing and validation procedures.
#
#######################################################################

data_YANPEJ
_symmetry_cell_setting           triclinic
_symmetry_space_group_name_H-M   'P -1'
_symmetry_Int_Tables_number      2
_space_group_name_Hall           '-P 1'
loop_
_symmetry_equiv_pos_site_id
_symmetry_equiv_pos_as_xyz
1 x,y,z
2 -x,-y,-z
_cell_length_a                   9.877(3)
_cell_length_b                   11.162(4)
_cell_length_c                   12.536(5)
_cell_angle_alpha                87.32(2)
_cell_angle_beta                 70.98(2)
_cell_angle_gamma                74.77(2)
_cell_volume                     1259.57
loop_
_atom_site_label
_atom_site_type_symbol
_atom_site_fract_x
_atom_site_fract_y
_atom_site_fract_z
Fe1 Fe 0.0000 0.0000 0.0000
O1 O -0.3642(3) 0.5074(2) 0.0098(2)
O2 O 0.1897(3) 0.4910(3) -0.2999(2)
O3 O -0.5443(3) 0.4125(2) 0.1989(2)
O4 O -1.0053(4) 0.2717(4) 0.5175(3)
N1 N -0.3516(3) 0.3065(3) -0.1142(3)
N2 N -0.5337(3) 0.2247(3) 0.0571(3)
N3 N -0.2424(4) 0.2447(3) 0.0749(3)
N4 N 0.2441(4) 0.1339(3) -0.1228(3)
N5 N 0.0940(4) -0.0032(3) 0.2143(3)
C1 C -0.2241(4) 0.4989(3) -0.0629(3)
C2 C -0.1470(4) 0.5811(4) -0.0487(3)
C3 C -0.0082(4) 0.5813(4) -0.1249(3)
C4 C 0.0552(5) 0.4963(4) -0.2173(3)
C5 C 0.2833(6) 0.5553(6) -0.2766(5)
C6 C -0.0188(4) 0.4127(4) -0.2311(3)
C7 C -0.1582(4) 0.4124(3) -0.1554(3)
C8 C -0.2316(4) 0.3276(3) -0.1822(3)
C9 C -0.4261(4) 0.2230(4) -0.1461(3)
C10 C -0.4694(4) 0.1427(3) -0.0466(3)
C11 C -0.6430(4) 0.2063(4) 0.1388(3)
C12 C -0.7072(5) 0.2750(4) 0.2465(3)
C13 C -0.8267(5) 0.2411(4) 0.3270(3)
C14 C -0.8896(5) 0.2993(4) 0.4322(4)
C15 C -1.0748(10) 0.1905(9) 0.4865(6)
C16 C -0.8349(5) 0.3936(4) 0.4590(4)
C17 C -0.7192(5) 0.4275(4) 0.3809(3)
C18 C -0.6524(4) 0.3710(3) 0.2715(3)
C19 C -0.1484(4) 0.1541(4) 0.0484(3)
C20 C 0.1511(5) 0.0864(4) -0.0770(4)
C21 C 0.0567(4) -0.0015(4) 0.1354(4)
H1 H -0.1899 0.6386 0.0144
H2 H 0.0428 0.6386 -0.1142
H3 H 0.2685 0.5557 -0.1979
H4 H 0.3839 0.5148 -0.3166
H5 H 0.2604 0.6384 -0.2998
H6 H 0.0257 0.3541 -0.2933
H7 H -0.1890 0.2850 -0.2540
H8 H -0.3605 0.1724 -0.2107
H9 H -0.5120 0.2699 -0.1621
H10 H -0.3844 0.0809 -0.0428
H11 H -0.5408 0.1039 -0.0543
H12 H -0.6854 0.1426 0.1280
H13 H -0.8640 0.1775 0.3084
H14 H -1.0484 0.1855 0.4066
H15 H -1.1793 0.2209 0.5189
H16 H -1.0431 0.1103 0.5131
H17 H -0.8785 0.4341 0.5317
H18 H -0.6829 0.4910 0.4010
Mn1 Mn -0.44015(6) 0.36435(5) 0.04708(5)
O1A O -0.6358(3) 0.4926(2) -0.0098(2)
O1_2 O 0.6358(3) -0.4926(2) 0.0098(2)
O1A_2 O 0.3642(3) -0.5074(2) -0.0098(2)
O2A O -0.1897(3) -0.4910(3) 0.2999(2)
O3A O 0.5443(3) -0.4125(2) -0.1989(2)
O4A O 1.0053(4) -0.2717(4) -0.5175(3)
N1A N 0.3516(3) -0.3065(3) 0.1142(3)
N2A N 0.5337(3) -0.2247(3) -0.0571(3)
N3A N 0.2424(4) -0.2447(3) -0.0749(3)
N4A N -0.2441(4) -0.1339(3) 0.1228(3)
N5A N -0.0940(4) 0.0032(3) -0.2143(3)
C1A C 0.2241(4) -0.4989(3) 0.0629(3)
C2A C 0.1470(4) -0.5811(4) 0.0487(3)
C3A C 0.0082(4) -0.5813(4) 0.1249(3)
C4A C -0.0552(5) -0.4963(4) 0.2173(3)
C5A C -0.2833(6) -0.5553(6) 0.2766(5)
C6A C 0.0188(4) -0.4127(4) 0.2311(3)
C7A C 0.1582(4) -0.4124(3) 0.1554(3)
C8A C 0.2316(4) -0.3276(3) 0.1822(3)
C9A C 0.4261(4) -0.2230(4) 0.1461(3)
C10A C 0.4694(4) -0.1427(3) 0.0466(3)
C11A C 0.6430(4) -0.2063(4) -0.1388(3)
C12A C 0.7072(5) -0.2750(4) -0.2465(3)
C13A C 0.8267(5) -0.2411(4) -0.3270(3)
C14A C 0.8896(5) -0.2993(4) -0.4322(4)
C15A C 1.0748(10) -0.1905(9) -0.4865(6)
C16A C 0.8349(5) -0.3936(4) -0.4590(4)
C17A C 0.7192(5) -0.4275(4) -0.3809(3)
C18A C 0.6524(4) -0.3710(3) -0.2715(3)
C19A C 0.1484(4) -0.1541(4) -0.0484(3)
C20A C -0.1511(5) -0.0864(4) 0.0770(4)
C21A C -0.0567(4) 0.0015(4) -0.1354(4)
H1A H 0.1899 -0.6386 -0.0144
H2A H -0.0428 -0.6386 0.1142
H3A H -0.2685 -0.5557 0.1979
H4A H -0.3839 -0.5148 0.3166
H5A H -0.2604 -0.6384 0.2998
H6A H -0.0257 -0.3541 0.2933
H7A H 0.1890 -0.2850 0.2540
H8A H 0.3605 -0.1724 0.2107
H9A H 0.5120 -0.2699 0.1621
H10A H 0.3844 -0.0809 0.0428
H11A H 0.5408 -0.1039 0.0543
H12A H 0.6854 -0.1426 -0.1280
H13A H 0.8640 -0.1775 -0.3084
H14A H 1.0484 -0.1855 -0.4066
H15A H 1.1793 -0.2209 -0.5189
H16A H 1.0431 -0.1103 -0.5131
H17A H 0.8785 -0.4341 -0.5317
H18A H 0.6829 -0.4910 -0.4010
Mn1A Mn -0.55985(6) 0.63565(5) -0.04708(5)
Mn1A_2 Mn 0.44015(6) -0.36435(5) -0.04708(5)
Mn1_2 Mn 0.55985(6) -0.63565(5) 0.04708(5)
N6 N 0.5000 0.0000 0.5000
C22 C 0.6693(11) 0.0959(8) 0.3402(7)
C23 C 0.683(2) -0.003(2) 0.440(2)
C25 C 0.4348(10) 0.2142(6) 0.6030(7)
C26 C 0.5285(13) 0.0776(10) 0.5889(9)
C22A C 0.3307(11) -0.0959(8) 0.6598(7)
C23A C 0.317(2) 0.003(2) 0.560(2)
C25A C 0.5652(10) -0.2142(6) 0.3970(7)
C26A C 0.4715(13) -0.0776(10) 0.4111(9)
C24? C 0.509(2) 0.0746(12) 0.3988(11)
C27? C 0.384(2) 0.1237(11) 0.520(1)
loop_
_geom_bond_atom_site_label_1
_geom_bond_atom_site_label_2
_geom_bond_site_symmetry_1
_geom_bond_site_symmetry_2
Fe1 C19 1_555 1_555
O1 C1 1_555 1_555
O2 C4 1_555 1_555
O3 C18 1_555 1_555
O4 C14 1_555 1_555
N1 C8 1_555 1_555
N2 C10 1_555 1_555
N3 C19 1_555 1_555
N4 C20 1_555 1_555
N5 C21 1_555 1_555
N6 C23 1_555 1_555
C1 C2 1_555 1_555
C2 C3 1_555 1_555
C3 C4 1_555 1_555
C4 C6 1_555 1_555
C5 O2 1_555 1_555
C6 C7 1_555 1_555
C7 C1 1_555 1_555
C8 C7 1_555 1_555
C9 N1 1_555 1_555
C10 C9 1_555 1_555
C11 N2 1_555 1_555
C12 C11 1_555 1_555
C13 C12 1_555 1_555
C14 C13 1_555 1_555
C15 O4 1_555 1_555
C16 C14 1_555 1_555
C17 C16 1_555 1_555
C18 C12 1_555 1_555
C20 Fe1 1_555 1_555
C21 Fe1 1_555 1_555
C22 C23 1_555 1_555
C25 C26 1_555 1_555
C26 N6 1_555 1_555
H1 C2 1_555 1_555
H2 C3 1_555 1_555
H3 C5 1_555 1_555
H4 C5 1_555 1_555
H5 C5 1_555 1_555
H6 C6 1_555 1_555
H7 C8 1_555 1_555
H8 C9 1_555 1_555
H9 C9 1_555 1_555
H10 C10 1_555 1_555
H11 C10 1_555 1_555
H12 C11 1_555 1_555
H13 C13 1_555 1_555
H14 C15 1_555 1_555
H15 C15 1_555 1_555
H16 C15 1_555 1_555
H17 C16 1_555 1_555
H18 C17 1_555 1_555
Mn1 O1 1_555 1_555
O1A Mn1 1_555 1_555
O1_2 Mn1A_2 1_555 1_555
O1A_2 C1A 1_555 1_555
O2A C4A 1_555 1_555
O3A C18A 1_555 1_555
O4A C14A 1_555 1_555
N1A C8A 1_555 1_555
N2A C10A 1_555 1_555
N3A C19A 1_555 1_555
N4A C20A 1_555 1_555
N5A C21A 1_555 1_555
C1A C2A 1_555 1_555
C2A C3A 1_555 1_555
C3A C4A 1_555 1_555
C4A C6A 1_555 1_555
C5A O2A 1_555 1_555
C6A C7A 1_555 1_555
C7A C1A 1_555 1_555
C8A C7A 1_555 1_555
C9A N1A 1_555 1_555
C10A C9A 1_555 1_555
C11A N2A 1_555 1_555
C12A C11A 1_555 1_555
C13A C12A 1_555 1_555
C14A C13A 1_555 1_555
C15A O4A 1_555 1_555
C16A C14A 1_555 1_555
C17A C16A 1_555 1_555
C18A C12A 1_555 1_555
C19A Fe1 1_555 1_555
C20A Fe1 1_555 1_555
C21A Fe1 1_555 1_555
C22A C23A 1_555 1_555
C23A N6 1_555 1_555
C25A C26A 1_555 1_555
C26A N6 1_555 1_555
H1A C2A 1_555 1_555
H2A C3A 1_555 1_555
H3A C5A 1_555 1_555
H4A C5A 1_555 1_555
H5A C5A 1_555 1_555
H6A C6A 1_555 1_555
H7A C8A 1_555 1_555
H8A C9A 1_555 1_555
H9A C9A 1_555 1_555
H10A C10A 1_555 1_555
H11A C10A 1_555 1_555
H12A C11A 1_555 1_555
H13A C13A 1_555 1_555
H14A C15A 1_555 1_555
H15A C15A 1_555 1_555
H16A C15A 1_555 1_555
H17A C16A 1_555 1_555
H18A C17A 1_555 1_555
Mn1A O1 1_555 1_555
Mn1A_2 O1A_2 1_555 1_555
Mn1_2 O1_2 1_555 1_555
O3 Mn1 1_555 1_555
N1 Mn1 1_555 1_555
N2 Mn1 1_555 1_555
N3 Mn1 1_555 1_555
C17 C18 1_555 1_555
O1A Mn1A 1_555 1_555
O1A_2 Mn1_2 1_555 1_555
O3A Mn1A_2 1_555 1_555
N1A Mn1A_2 1_555 1_555
N2A Mn1A_2 1_555 1_555
N3A Mn1A_2 1_555 1_555
C17A C18A 1_555 1_555

#END
