
#######################################################################
#
#                 Cambridge Crystallographic Data Centre
#                                CCDC 
#
#######################################################################
#
# If this CIF has been generated from an entry in the Cambridge 
# Structural Database, then it will include bibliographic, chemical, 
# crystal, experimental, refinement or atomic coordinate data resulting 
# from the CCDC's data processing and validation procedures.
#
#######################################################################

data_YANVEQ
_symmetry_cell_setting           orthorhombic
_symmetry_space_group_name_H-M   'P n a 21'
_symmetry_Int_Tables_number      33
_space_group_name_Hall           'P 2c -2n'
loop_
_symmetry_equiv_pos_site_id
_symmetry_equiv_pos_as_xyz
1 x,y,z
2 -x,-y,1/2+z
3 1/2+x,1/2-y,z
4 1/2-x,1/2+y,1/2+z
_cell_length_a                   10.8968(5)
_cell_length_b                   13.0031(5)
_cell_length_c                   21.6278(9)
_cell_angle_alpha                90
_cell_angle_beta                 90
_cell_angle_gamma                90
_cell_volume                     3064.49
loop_
_atom_site_label
_atom_site_type_symbol
_atom_site_fract_x
_atom_site_fract_y
_atom_site_fract_z
Ca1 Ca 0.68461(2) 0.311585(17) 0.058953(15)
N1 N 0.63879(11) 0.44514(9) 0.13170(6)
N2 N 0.62140(11) 0.44509(9) -0.01098(5)
C1 C 0.47349(18) 0.55057(14) 0.17701(8)
H1 H 0.4332 0.4980 0.2023
H2 H 0.4119 0.5991 0.1615
H3 H 0.5339 0.5876 0.2021
C2 C 0.53777(14) 0.49948(12) 0.12273(7)
C3 C 0.48163(12) 0.51677(10) 0.06492(8)
H4 H 0.3999 0.5418 0.0672
C4 C 0.52672(13) 0.50306(11) 0.00383(7)
C5 C 0.45806(16) 0.56371(14) -0.04499(8)
H5 H 0.4829 0.5401 -0.0862
H6 H 0.4772 0.6370 -0.0406
H7 H 0.3696 0.5533 -0.0398
C6 C 0.70047(13) 0.45182(12) 0.19042(7)
C7 C 0.66961(12) 0.38692(11) 0.24018(7)
C8 C 0.73638(14) 0.39481(12) 0.29488(7)
H8 H 0.7160 0.3514 0.3287
C9 C 0.83126(14) 0.46400(14) 0.30125(8)
H9 H 0.8752 0.4687 0.3391
C10 C 0.86153(15) 0.52595(14) 0.25240(8)
H10 H 0.9275 0.5732 0.2569
C11 C 0.79849(16) 0.52190(14) 0.19620(8)
C12 C 0.56646(14) 0.30917(11) 0.23622(7)
H11 H 0.5225 0.3205 0.1962
C13 C 0.61602(16) 0.19903(12) 0.23609(8)
H12 H 0.6721 0.1900 0.2011
H13 H 0.5476 0.1506 0.2323
H14 H 0.6601 0.1860 0.2748
C14 C 0.47302(17) 0.32193(15) 0.28865(9)
H15 H 0.5114 0.3032 0.3281
H16 H 0.4024 0.2770 0.2810
H17 H 0.4456 0.3936 0.2903
C15 C 0.8329(2) 0.59383(18) 0.14384(10)
H18 H 0.8043 0.5616 0.1044
C16 C 0.7658(4) 0.6962(2) 0.15079(16)
H19 H 0.6770 0.6842 0.1504
H20 H 0.7881 0.7417 0.1164
H21 H 0.7893 0.7284 0.1900
C17 C 0.9707(3) 0.6103(3) 0.13846(13)
H22 H 1.0014 0.6429 0.1763
H23 H 0.9881 0.6549 0.1030
H24 H 1.0115 0.5439 0.1326
C18 C 0.66736(13) 0.44679(12) -0.07323(7)
C19 C 0.77251(14) 0.50657(12) -0.08603(7)
C20 C 0.82045(15) 0.50447(14) -0.14584(7)
H25 H 0.8899 0.5457 -0.1553
C21 C 0.77005(15) 0.44454(15) -0.19124(7)
H26 H 0.8050 0.4439 -0.2315
C22 C 0.66834(15) 0.38511(14) -0.17840(7)
H27 H 0.6342 0.3432 -0.2100
C23 C 0.61464(14) 0.38535(11) -0.11986(6)
C24 C 0.82907(17) 0.57431(15) -0.03660(9)
H28 H 0.8136 0.5404 0.0042
C25 C 0.96800(19) 0.58631(19) -0.04334(11)
H29 H 1.0063 0.5182 -0.0454
H30 H 1.0005 0.6239 -0.0076
H31 H 0.9863 0.6245 -0.0813
C26 C 0.7682(3) 0.67962(18) -0.03446(15)
H32 H 0.7739 0.7122 -0.0752
H33 H 0.8098 0.7227 -0.0038
H34 H 0.6817 0.6718 -0.0230
C27 C 0.50057(15) 0.32110(12) -0.10904(7)
H35 H 0.4688 0.3380 -0.0669
C28 C 0.5266(2) 0.20660(14) -0.11072(11)
H36 H 0.5622 0.1883 -0.1509
H37 H 0.4500 0.1685 -0.1046
H38 H 0.5846 0.1889 -0.0777
C29 C 0.39865(18) 0.34516(18) -0.15556(11)
H39 H 0.3811 0.4191 -0.1550
H40 H 0.3244 0.3069 -0.1444
H41 H 0.4252 0.3249 -0.1971
B1 B 0.95025(15) 0.29322(14) 0.07532(8)
N3 N 0.73444(15) 0.14232(14) 0.00669(9)
N4 N 0.85288(12) 0.25579(14) 0.12195(7)
H42 H 1.0406(17) 0.3215(13) 0.0986(8)
H43 H 0.9757(17) 0.2271(14) 0.0410(8)
H44 H 0.865(2) 0.1913(18) 0.1347(11)
H45 H 0.9125(19) 0.3620(15) 0.0470(9)
H46 H 0.796(2) 0.1130(19) 0.0288(10)
H47 H 0.861(2) 0.2917(19) 0.1558(12)
H48 H 0.670(2) 0.0990(19) 0.0120(13)
H49 H 0.757(3) 0.141(3) -0.0323(9)
Ca1B Ca 1.18461(2) 0.188415(17) 0.058953(15)
B1B B 0.45025(15) 0.20678(14) 0.07532(8)
H42B H 0.5406(17) 0.1785(13) 0.0986(8)
H43B H 0.4757(17) 0.2729(14) 0.0410(8)
H45B H 0.4125(19) 0.1380(15) 0.0470(9)
loop_
_geom_bond_atom_site_label_1
_geom_bond_atom_site_label_2
_geom_bond_site_symmetry_1
_geom_bond_site_symmetry_2
Ca1 N1 1_555 1_555
N1 C2 1_555 1_555
N2 Ca1 1_555 1_555
C1 H1 1_555 1_555
H2 C1 1_555 1_555
H3 C1 1_555 1_555
C2 C1 1_555 1_555
C3 C2 1_555 1_555
H4 C3 1_555 1_555
C4 N2 1_555 1_555
C5 C4 1_555 1_555
H5 C5 1_555 1_555
H6 C5 1_555 1_555
H7 C5 1_555 1_555
C6 N1 1_555 1_555
C7 C6 1_555 1_555
C8 C7 1_555 1_555
H8 C8 1_555 1_555
C9 C8 1_555 1_555
H9 C9 1_555 1_555
C10 C9 1_555 1_555
H10 C10 1_555 1_555
C11 C6 1_555 1_555
C12 C7 1_555 1_555
H11 C12 1_555 1_555
C13 C12 1_555 1_555
H12 C13 1_555 1_555
H13 C13 1_555 1_555
H14 C13 1_555 1_555
C14 C12 1_555 1_555
H15 C14 1_555 1_555
H16 C14 1_555 1_555
H17 C14 1_555 1_555
C15 C11 1_555 1_555
H18 C15 1_555 1_555
C16 C15 1_555 1_555
H19 C16 1_555 1_555
H20 C16 1_555 1_555
H21 C16 1_555 1_555
C17 C15 1_555 1_555
H22 C17 1_555 1_555
H23 C17 1_555 1_555
H24 C17 1_555 1_555
C18 N2 1_555 1_555
C19 C18 1_555 1_555
C20 C19 1_555 1_555
H25 C20 1_555 1_555
C21 C20 1_555 1_555
H26 C21 1_555 1_555
C22 C21 1_555 1_555
H27 C22 1_555 1_555
C23 C18 1_555 1_555
C24 C19 1_555 1_555
H28 C24 1_555 1_555
C25 C24 1_555 1_555
H29 C25 1_555 1_555
H30 C25 1_555 1_555
H31 C25 1_555 1_555
C26 C24 1_555 1_555
H32 C26 1_555 1_555
H33 C26 1_555 1_555
H34 C26 1_555 1_555
C27 C23 1_555 1_555
H35 C27 1_555 1_555
C28 C27 1_555 1_555
H36 C28 1_555 1_555
H37 C28 1_555 1_555
H38 C28 1_555 1_555
C29 C27 1_555 1_555
H39 C29 1_555 1_555
H40 C29 1_555 1_555
H41 C29 1_555 1_555
B1 N4 1_555 1_555
N3 Ca1 1_555 1_555
N4 Ca1 1_555 1_555
H42 B1 1_555 1_555
H43 B1 1_555 1_555
H44 N4 1_555 1_555
H45 B1 1_555 1_555
H46 N3 1_555 1_555
H47 N4 1_555 1_555
H48 N3 1_555 1_555
H49 N3 1_555 1_555
Ca1B H42 1_555 1_555
B1B H42B 1_555 1_555
H42B Ca1 1_555 1_555
H43B Ca1 1_555 1_555
H45B B1B 1_555 1_555
C3 C4 1_555 1_555
C10 C11 1_555 1_555
C22 C23 1_555 1_555
H43 Ca1B 1_555 1_555
B1B H43B 1_555 1_555

#END
