
#######################################################################
#
#                 Cambridge Crystallographic Data Centre
#                                CCDC 
#
#######################################################################
#
# If this CIF has been generated from an entry in the Cambridge 
# Structural Database, then it will include bibliographic, chemical, 
# crystal, experimental, refinement or atomic coordinate data resulting 
# from the CCDC's data processing and validation procedures.
#
#######################################################################

data_YANWUH
_symmetry_cell_setting           rhombohedral
_symmetry_space_group_name_H-M   'R -3'
_symmetry_Int_Tables_number      148
_space_group_name_Hall           '-R 3'
loop_
_symmetry_equiv_pos_site_id
_symmetry_equiv_pos_as_xyz
1 x,y,z
2 -y,x-y,z
3 -x+y,-x,z
4 2/3+x,1/3+y,1/3+z
5 2/3-y,1/3+x-y,1/3+z
6 2/3-x+y,1/3-x,1/3+z
7 1/3+x,2/3+y,2/3+z
8 1/3-y,2/3+x-y,2/3+z
9 1/3-x+y,2/3-x,2/3+z
10 -x,-y,-z
11 y,-x+y,-z
12 x-y,x,-z
13 1/3-x,2/3-y,2/3-z
14 1/3+y,2/3-x+y,2/3-z
15 1/3+x-y,2/3+x,2/3-z
16 2/3-x,1/3-y,1/3-z
17 2/3+y,1/3-x+y,1/3-z
18 2/3+x-y,1/3+x,1/3-z
_cell_length_a                   35.1328(6)
_cell_length_b                   35.1328(6)
_cell_length_c                   27.7529(10)
_cell_angle_alpha                90
_cell_angle_beta                 90
_cell_angle_gamma                120
_cell_volume                     29666.4
loop_
_atom_site_label
_atom_site_type_symbol
_atom_site_fract_x
_atom_site_fract_y
_atom_site_fract_z
O5 O 0.08077(12) 0.57868(15) 0.15237(13)
O6 O -0.04085(12) 0.40566(11) 0.07759(11)
O7 O 0.14035(11) 0.42469(11) 0.32815(12)
O8 O 0.06923(12) 0.39709(13) 0.26914(14)
O9 O 0.02897(13) 0.47133(15) 0.17333(11)
O10 O 0.07956(14) 0.42188(14) 0.07381(13)
O11 O -0.06187(12) 0.41190(11) 0.16947(11)
O12 O 0.08332(18) 0.6684(4) 0.1610(2)
O13 O 0.22976(19) 0.61665(15) -0.16700(13)
O14 O 0.1620(3) 0.5822(3) -0.1901(4)
O15 O -0.0417(3) -0.0845(4) 0.1373(6)
O16 O 0.0723(6) 0.1016(4) -0.0289(6)
O17 O 0.0620(5) 0.1516(3) 0.0471(4)
Mn1 Mn 0.0000 0.0000 -0.69233(3)
Mn2 Mn 0.156500(16) 0.338192(16) 0.021786(16)
O18 O 0.05513(8) 0.04018(8) -0.64689(9)
O19 O 0.07725(9) 0.10953(8) -0.66802(9)
O20 O 0.10518(8) 0.29474(8) -0.02864(8)
O21 O 0.09221(9) 0.22857(9) -0.00514(9)
O22 O 0.20087(8) 0.32889(9) -0.02317(10)
O23 O 0.26722(9) 0.37432(10) 0.00567(9)
O24 O 0.44158(9) 0.50158(9) -0.64789(9)
O25 O 0.37303(10) 0.44846(10) -0.65974(10)
O26 O 0.02070(9) 0.06104(9) -0.73488(9)
O27 O 0.14406(8) 0.27994(8) 0.06387(8)
O28 O 0.10903(8) 0.34439(8) 0.06972(8)
O29 O 0.21401(8) 0.38307(8) 0.06837(8)
N1 N 0.15621(8) 0.14853(8) -0.42523(9)
N2 N 0.02707(8) 0.17345(9) -0.24996(9)
N3 N 0.32329(9) 0.34137(9) -0.23233(9)
N4 N 0.35139(9) 0.49193(9) -0.41385(9)
C9 C 0.07580(10) 0.08103(11) -0.63969(11)
C10 C 0.10175(9) 0.09649(10) -0.59351(10)
C11 C 0.13361(11) 0.14019(10) -0.58821(11)
H5 H 0.1381 0.1606 -0.6131
C12 C 0.09505(10) 0.06682(10) -0.55676(11)
H6 H 0.0733 0.0367 -0.5603
C13 C 0.15884(11) 0.15417(10) -0.54693(11)
H7 H 0.1808 0.1842 -0.5437
C14 C 0.12002(10) 0.08106(10) -0.51498(11)
H8 H 0.1149 0.0608 -0.4897
C15 C 0.15250(10) 0.12477(10) -0.50990(10)
C16 C 0.18031(11) 0.14076(12) -0.46511(11)
H9 H 0.1882 0.1187 -0.4547
H10 H 0.2078 0.1684 -0.4723
C17 C 0.14702(11) 0.18131(10) -0.42954(11)
H11 H 0.1566 0.1997 -0.4572
C18 C 0.14350(11) 0.12282(11) -0.38631(11)
H12 H 0.1510 0.1005 -0.3834
C19 C 0.12384(11) 0.18818(10) -0.39410(11)
H13 H 0.1179 0.2117 -0.3972
C20 C 0.11971(11) 0.12816(10) -0.35043(11)
H14 H 0.1106 0.1093 -0.3232
C21 C 0.10888(9) 0.16108(9) -0.35375(10)
C22 C 0.08127(9) 0.16600(9) -0.31662(10)
C23 C 0.06716(11) 0.19636(10) -0.32210(11)
H15 H 0.0763 0.2152 -0.3494
C24 C 0.06729(12) 0.13985(11) -0.27578(11)
H16 H 0.0765 0.1190 -0.2703
C25 C 0.04031(11) 0.19937(12) -0.28874(12)
H17 H 0.0309 0.2202 -0.2932
C26 C 0.04011(12) 0.14399(11) -0.24309(12)
H18 H 0.0305 0.1257 -0.2153
C27 C -0.00241(11) 0.17757(14) -0.21381(12)
H19 H -0.0278 0.1481 -0.2069
H20 H -0.0138 0.1960 -0.2274
C28 C 0.02226(10) 0.19805(11) -0.16740(11)
C29 C 0.04892(11) 0.24320(12) -0.16329(12)
H21 H 0.0521 0.2617 -0.1898
C30 C 0.01799(12) 0.17146(12) -0.12856(13)
H22 H -0.0003 0.1405 -0.1310
C31 C 0.07101(11) 0.26147(11) -0.12044(11)
H23 H 0.0893 0.2924 -0.1178
C32 C 0.04045(12) 0.19001(12) -0.08614(12)
H24 H 0.0378 0.1716 -0.0598
C33 C 0.06668(10) 0.23516(11) -0.08180(11)
C34 C 0.09001(10) 0.25447(11) -0.03486(11)
C35 C 0.24169(11) 0.34799(10) -0.02512(11)
C36 C 0.26114(10) 0.33828(10) -0.06860(10)
C37 C 0.30581(11) 0.35278(12) -0.07080(11)
H25 H 0.3245 0.3696 -0.0450
C38 C 0.23428(10) 0.31446(10) -0.10709(11)
H26 H 0.2037 0.3047 -0.1060
C39 C 0.32331(11) 0.34285(12) -0.11056(12)
H27 H 0.3538 0.3523 -0.1116
C40 C 0.25184(10) 0.30500(11) -0.14689(11)
H28 H 0.2333 0.2888 -0.1730
C41 C 0.29633(11) 0.31911(11) -0.14889(11)
C42 C 0.31547(12) 0.30942(12) -0.19238(12)
H29 H 0.2951 0.2792 -0.2037
H30 H 0.3436 0.3112 -0.1835
C43 C 0.35195(12) 0.38433(12) -0.22575(12)
H31 H 0.3671 0.3941 -0.1960
C44 C 0.30188(11) 0.32709(12) -0.27414(12)
H32 H 0.2820 0.2966 -0.2785
C45 C 0.35958(11) 0.41428(12) -0.26158(12)
H33 H 0.3804 0.4445 -0.2567
C46 C 0.30810(11) 0.35566(12) -0.31063(12)
H34 H 0.2926 0.3448 -0.3401
C47 C 0.33693(9) 0.40050(10) -0.30506(10)
C48 C 0.34235(9) 0.43243(11) -0.34331(10)
C49 C 0.37554(11) 0.47590(12) -0.34112(12)
H35 H 0.3957 0.4858 -0.3150
C50 C 0.31373(10) 0.41986(12) -0.38242(11)
H36 H 0.2906 0.3903 -0.3853
C51 C 0.37926(12) 0.50481(12) -0.37682(13)
H37 H 0.4022 0.5346 -0.3750
C52 C 0.31891(11) 0.45007(12) -0.41678(12)
H38 H 0.2991 0.4412 -0.4432
C53 C 0.35605(13) 0.52379(12) -0.45206(12)
H39 H 0.3789 0.5537 -0.4423
H40 H 0.3279 0.5237 -0.4555
C54 C 0.36840(11) 0.51263(11) -0.49992(11)
C55 C 0.41198(10) 0.52628(11) -0.51079(11)
H41 H 0.4344 0.5429 -0.4880
C56 C 0.33608(11) 0.48781(13) -0.53359(12)
H42 H 0.3062 0.4787 -0.5267
C57 C 0.42279(10) 0.51564(10) -0.55478(11)
H43 H 0.4527 0.5257 -0.5624
C58 C 0.34684(11) 0.47635(12) -0.57682(12)
H44 H 0.3243 0.4588 -0.5991
C59 C 0.39021(10) 0.49031(10) -0.58787(10)
C60 C 0.40216(12) 0.47877(10) -0.63593(11)
Mn2A Mn -0.338192(16) -0.181692(23) 0.021786(16)
Mn2B Mn 0.181692(23) -0.156500(16) 0.021786(16)
Mn2Q Mn 0.484975(23) 0.489833(16) -0.688453(16)
Mn2P Mn 0.004859(16) 0.515025(23) -0.688453(16)
Mn2O Mn -0.489833(16) -0.004859(16) -0.688453(16)
O18A O -0.04018(8) 0.01495(11) -0.64689(9)
O18B O -0.01495(11) -0.05513(8) -0.64689(9)
O19A O -0.10953(8) -0.03228(12) -0.66802(9)
O19B O 0.03228(12) -0.07725(9) -0.66802(9)
O20A O -0.29474(8) -0.18956(11) -0.02864(8)
O20B O 0.18956(11) -0.10518(8) -0.02864(8)
O21A O -0.22857(9) -0.13636(13) -0.00514(9)
O21B O 0.13636(13) -0.09221(9) -0.00514(9)
O22P O -0.00444(9) 0.46135(12) -0.64350(10)
O22A O -0.32889(9) -0.12802(12) -0.02317(10)
O22B O 0.12802(12) -0.20087(8) -0.02317(10)
O23P O 0.04099(10) 0.44043(13) -0.67234(9)
O23A O -0.37432(10) -0.10710(13) 0.00567(9)
O24P O 0.16825(9) 0.39333(13) -0.01878(9)
O24A O -0.50158(9) -0.06000(13) -0.64789(9)
O24Q O -0.39333(13) -0.22509(9) -0.01878(9)
O24O O 0.22509(9) -0.16825(9) -0.01878(9)
O25P O 0.11513(10) 0.40876(14) -0.00693(10)
O25A O -0.44846(10) -0.07543(14) -0.65974(10)
O26A O -0.06104(9) -0.04034(13) -0.73488(9)
O26B O 0.04034(13) -0.02070(9) -0.73488(9)
O27A O -0.27994(8) -0.13588(11) 0.06387(8)
O27B O 0.13588(11) -0.14406(8) 0.06387(8)
O28A O -0.34439(8) -0.23536(11) 0.06972(8)
O28B O 0.23536(11) -0.10903(8) 0.06972(8)
O29A O -0.38307(8) -0.16906(11) 0.06837(8)
O29B O 0.16906(11) -0.21401(8) 0.06837(8)
N1A N -0.14853(8) 0.00768(11) -0.42523(9)
N1B N -0.00768(11) -0.15621(8) -0.42523(9)
N2A N -0.17345(9) -0.14638(12) -0.24996(9)
N2B N 0.14638(12) -0.02707(8) -0.24996(9)
N3P N 0.00804(9) 0.35141(13) -0.43434(9)
N3A N -0.34137(9) -0.01808(13) -0.23233(9)
N4P N 0.15860(9) 0.47387(13) -0.25282(9)
N4A N -0.49193(9) -0.14054(13) -0.41385(9)
C9A C -0.08103(11) -0.00523(15) -0.63969(11)
C9B C 0.00523(15) -0.07580(10) -0.63969(11)
C10A C -0.09649(10) 0.00526(13) -0.59351(10)
C10B C -0.00526(13) -0.10175(9) -0.59351(10)
C11A C -0.14019(10) -0.00658(15) -0.58821(11)
C11B C 0.00658(15) -0.13361(11) -0.58821(11)
H5A H -0.1606 -0.0225 -0.6131
H5B H 0.0225 -0.1381 -0.6131
C12A C -0.06682(10) 0.02823(14) -0.55676(11)
C12B C -0.02823(14) -0.09505(10) -0.55676(11)
H6A H -0.0367 0.0366 -0.5603
H6B H -0.0366 -0.0733 -0.5603
C13A C -0.15417(10) 0.00467(15) -0.54693(11)
C13B C -0.00467(15) -0.15884(11) -0.54693(11)
H7A H -0.1842 -0.0034 -0.5437
H7B H 0.0034 -0.1808 -0.5437
C14A C -0.08106(10) 0.03896(14) -0.51498(11)
C14B C -0.03896(14) -0.12002(10) -0.51498(11)
H8A H -0.0608 0.0541 -0.4897
H8B H -0.0541 -0.1149 -0.4897
C15A C -0.12477(10) 0.02773(14) -0.50990(10)
C15B C -0.02773(14) -0.15250(10) -0.50990(10)
C16A C -0.14076(12) 0.03955(16) -0.46511(11)
C16B C -0.03955(16) -0.18031(11) -0.46511(11)
H9A H -0.1187 0.0695 -0.4547
H9B H -0.0695 -0.1882 -0.4547
H10A H -0.1684 0.0394 -0.4723
H10B H -0.0394 -0.2078 -0.4723
C17A C -0.18131(10) -0.03429(15) -0.42954(11)
C17B C 0.03429(15) -0.14702(11) -0.42954(11)
H11A H -0.1997 -0.0431 -0.4572
H11B H 0.0431 -0.1566 -0.4572
C18A C -0.12282(11) 0.02068(16) -0.38631(11)
C18B C -0.02068(16) -0.14350(11) -0.38631(11)
H12A H -0.1005 0.0505 -0.3834
H12B H -0.0505 -0.1510 -0.3834
C19A C -0.18818(10) -0.06434(15) -0.39410(11)
C19B C 0.06434(15) -0.12384(11) -0.39410(11)
H13A H -0.2117 -0.0938 -0.3972
H13B H 0.0938 -0.1179 -0.3972
C20A C -0.12816(10) -0.00845(15) -0.35043(11)
C20B C 0.00845(15) -0.11971(11) -0.35043(11)
H14A H -0.1093 0.0013 -0.3232
H14B H -0.0013 -0.1106 -0.3232
C21A C -0.16108(9) -0.05220(13) -0.35375(10)
C21B C 0.05220(13) -0.10888(9) -0.35375(10)
C22A C -0.16600(9) -0.08473(13) -0.31662(10)
C22B C 0.08473(13) -0.08127(9) -0.31662(10)
C23A C -0.19636(10) -0.12920(15) -0.32210(11)
C23B C 0.12920(15) -0.06716(11) -0.32210(11)
H15A H -0.2152 -0.1389 -0.3494
H15B H 0.1389 -0.0763 -0.3494
C24A C -0.13985(11) -0.07256(16) -0.27578(11)
C24B C 0.07256(16) -0.06729(12) -0.27578(11)
H16A H -0.1190 -0.0425 -0.2703
H16B H 0.0425 -0.0765 -0.2703
C25A C -0.19937(12) -0.15906(16) -0.28874(12)
C25B C 0.15906(16) -0.04031(11) -0.28874(12)
H17A H -0.2202 -0.1893 -0.2932
H17B H 0.1893 -0.0309 -0.2932
C26A C -0.14399(11) -0.10388(16) -0.24309(12)
C26B C 0.10388(16) -0.04011(12) -0.24309(12)
H18A H -0.1257 -0.0952 -0.2153
H18B H 0.0952 -0.0305 -0.2153
C27A C -0.17757(14) -0.17998(18) -0.21381(12)
C27B C 0.17998(18) 0.00241(11) -0.21381(12)
H19A H -0.1481 -0.1759 -0.2069
H19B H 0.1759 0.0278 -0.2069
H20A H -0.1960 -0.2098 -0.2274
H20B H 0.2098 0.0138 -0.2274
C28A C -0.19805(11) -0.17579(15) -0.16740(11)
C28B C 0.17579(15) -0.02226(10) -0.16740(11)
C29A C -0.24320(12) -0.19428(16) -0.16329(12)
C29B C 0.19428(16) -0.04892(11) -0.16329(12)
H21A H -0.2617 -0.2096 -0.1898
H21B H 0.2096 -0.0521 -0.1898
C30A C -0.17146(12) -0.15347(17) -0.12856(13)
C30B C 0.15347(17) -0.01799(12) -0.12856(13)
H22A H -0.1405 -0.1408 -0.1310
H22B H 0.1408 0.0003 -0.1310
C31A C -0.26147(11) -0.19046(16) -0.12044(11)
C31B C 0.19046(16) -0.07101(11) -0.12044(11)
H23A H -0.2924 -0.2031 -0.1178
H23B H 0.2031 -0.0893 -0.1178
C32A C -0.19001(12) -0.14956(17) -0.08614(12)
C32B C 0.14956(17) -0.04045(12) -0.08614(12)
H24A H -0.1716 -0.1338 -0.0598
H24B H 0.1338 -0.0378 -0.0598
C33A C -0.23516(11) -0.16848(15) -0.08180(11)
C33B C 0.16848(15) -0.06668(10) -0.08180(11)
C34A C -0.25447(11) -0.16446(15) -0.03486(11)
C34B C 0.16446(15) -0.09001(10) -0.03486(11)
C35P C 0.01466(10) 0.43963(15) -0.64155(11)
C35A C -0.34799(10) -0.10630(15) -0.02512(11)
C36P C 0.00495(10) 0.41047(14) -0.59807(10)
C36A C -0.33828(10) -0.07714(14) -0.06860(10)
C37P C 0.01945(12) 0.38030(16) -0.59587(11)
C37A C -0.35278(12) -0.04697(16) -0.07080(11)
H25P H 0.0363 0.3784 -0.6217
H25A H -0.3696 -0.0451 -0.0450
C38P C -0.01887(10) 0.41351(14) -0.55958(11)
C38A C -0.31446(10) -0.08018(14) -0.10709(11)
H26P H -0.0286 0.4343 -0.5607
H26A H -0.3047 -0.1010 -0.1060
C39P C 0.00952(12) 0.35287(16) -0.55611(12)
C39A C -0.34285(12) -0.01954(16) -0.11056(12)
H27P H 0.0190 0.3318 -0.5551
H27A H -0.3523 0.0015 -0.1116
C40P C -0.02833(11) 0.38649(15) -0.51978(11)
C40A C -0.30500(11) -0.05316(15) -0.14689(11)
H28P H -0.0445 0.3888 -0.4937
H28A H -0.2888 -0.0555 -0.1730
C41P C -0.01422(11) 0.35611(16) -0.51778(11)
C41A C -0.31911(11) -0.02278(16) -0.14889(11)
C42P C -0.02391(12) 0.32728(17) -0.47429(12)
C42A C -0.30942(12) 0.00605(17) -0.19238(12)
H29P H -0.0541 0.3174 -0.4630
H29A H -0.2792 0.0159 -0.2037
H30P H -0.0221 0.3009 -0.4832
H30A H -0.3112 0.0324 -0.1835
C43P C 0.05100(12) 0.36571(17) -0.44092(12)
C43A C -0.38433(12) -0.03238(17) -0.22575(12)
H31P H 0.0608 0.3603 -0.4707
H31A H -0.3941 -0.0270 -0.1960
C44P C -0.00624(12) 0.35854(16) -0.39253(12)
C44A C -0.32709(12) -0.02521(16) -0.27414(12)
H32P H -0.0367 0.3479 -0.3882
H32A H -0.2966 -0.0146 -0.2785
C45P C 0.08095(12) 0.38803(16) -0.40509(12)
C45A C -0.41428(12) -0.05470(16) -0.26158(12)
H33P H 0.1112 0.3974 -0.4100
H33A H -0.4445 -0.0641 -0.2567
C46P C 0.02233(12) 0.38089(16) -0.35604(12)
C46A C -0.35566(12) -0.04756(16) -0.31063(12)
H34P H 0.0115 0.3855 -0.3266
H34A H -0.3448 -0.0522 -0.3401
C47P C 0.06717(10) 0.39690(13) -0.36161(10)
C47A C -0.40050(10) -0.06357(13) -0.30506(10)
C48P C 0.09910(11) 0.42341(14) -0.32336(10)
C48A C -0.43243(11) -0.09008(14) -0.34331(10)
C49P C 0.14257(12) 0.43369(16) -0.32555(12)
C49A C -0.47590(12) -0.10036(16) -0.34112(12)
H35P H 0.1525 0.4234 -0.3517
H35A H -0.4858 -0.0901 -0.3150
C50P C 0.08653(12) 0.43946(16) -0.28425(11)
C50A C -0.41986(12) -0.10613(16) -0.38242(11)
H36P H 0.0570 0.4330 -0.2814
H36A H -0.3903 -0.0997 -0.3853
C51P C 0.17148(12) 0.45888(17) -0.28985(13)
C51A C -0.50481(12) -0.12555(17) -0.37682(13)
H37P H 0.2013 0.4657 -0.2917
H37A H -0.5346 -0.1324 -0.3750
C52P C 0.11674(12) 0.46449(16) -0.24989(12)
C52A C -0.45007(12) -0.13116(16) -0.41678(12)
H38P H 0.1079 0.4754 -0.2235
H38A H -0.4412 -0.1421 -0.4432
C53P C 0.19046(12) 0.50107(18) -0.21461(12)
C53A C -0.52379(12) -0.16774(18) -0.45206(12)
H39P H 0.2204 0.5081 -0.2244
H39A H -0.5537 -0.1748 -0.4423
H40P H 0.1904 0.5291 -0.2112
H40A H -0.5237 -0.1958 -0.4555
C54P C 0.17930(11) 0.47756(16) -0.16675(11)
C54A C -0.51263(11) -0.14423(16) -0.49992(11)
C55P C 0.19295(11) 0.44763(15) -0.15588(11)
C55A C -0.52628(11) -0.11430(15) -0.51079(11)
H41P H 0.2096 0.4418 -0.1787
H41A H -0.5429 -0.1085 -0.4880
C56P C 0.15448(13) 0.48506(17) -0.13308(12)
C56A C -0.48781(13) -0.15173(17) -0.53359(12)
H42P H 0.1454 0.5058 -0.1400
H42A H -0.4787 -0.1725 -0.5267
C57P C 0.18231(10) 0.42618(14) -0.11189(11)
C57A C -0.51564(10) -0.09285(14) -0.55478(11)
H43P H 0.1924 0.4063 -0.1043
H43A H -0.5257 -0.0730 -0.5624
C58P C 0.14302(12) 0.46284(16) -0.08985(12)
C58A C -0.47635(12) -0.12951(16) -0.57682(12)
H44P H 0.1255 0.4678 -0.0676
H44A H -0.4588 -0.1345 -0.5991
C59P C 0.15698(10) 0.43343(14) -0.07880(10)
C59A C -0.49031(10) -0.10010(14) -0.58787(10)
C60P C 0.14544(10) 0.40994(16) -0.03074(11)
C60A C -0.47877(10) -0.07661(16) -0.63593(11)
O1 O 0.01400(13) 0.44618(11) -0.17202(9)
O2 O 0.07382(10) 0.51088(10) -0.18464(8)
O3 O 0.04739(10) 0.48058(10) 0.07651(9)
O4 O 0.09234(10) 0.55163(10) 0.06164(9)
C1 C 0.04628(14) 0.48108(13) -0.15791(11)
C2 C 0.05303(12) 0.48859(12) -0.10400(11)
C3 C 0.08871(12) 0.52623(12) -0.08583(11)
H1 H 0.1097 0.5472 -0.1074
C4 C 0.02315(13) 0.45739(14) -0.07219(12)
H2 H -0.0010 0.4310 -0.0840
C5 C 0.09419(12) 0.53372(12) -0.03676(12)
H3 H 0.1188 0.5598 -0.0248
C6 C 0.02897(14) 0.46524(14) -0.02302(12)
H4 H 0.0085 0.4440 -0.0013
C7 C 0.06382(12) 0.50320(12) -0.00502(11)
C8 C 0.06794(12) 0.51244(14) 0.04851(12)
loop_
_geom_bond_atom_site_label_1
_geom_bond_atom_site_label_2
_geom_bond_site_symmetry_1
_geom_bond_site_symmetry_2
O1 C1 1_555 1_555
O2 C1 1_555 1_555
O3 C8 1_555 1_555
O4 C8 1_555 1_555
C1 C2 1_555 1_555
C2 C3 1_555 1_555
C3 H1 1_555 1_555
C4 C2 1_555 1_555
H2 C4 1_555 1_555
C5 C3 1_555 1_555
H3 C5 1_555 1_555
C6 C4 1_555 1_555
H4 C6 1_555 1_555
C7 C5 1_555 1_555
C8 C7 1_555 1_555
Mn1 O18 1_555 1_555
Mn2 O20 1_555 1_555
O18 C9 1_555 1_555
O19 C9 1_555 1_555
O20 C34 1_555 1_555
O21 C34 1_555 1_555
O22 Mn2 1_555 1_555
O23 C35 1_555 1_555
O24 C60 1_555 1_555
O25 C60 1_555 1_555
O26 Mn1 1_555 1_555
O27 Mn2 1_555 1_555
O28 Mn2 1_555 1_555
O29 Mn2 1_555 1_555
N1 C16 1_555 1_555
N2 C25 1_555 1_555
N3 C42 1_555 1_555
N4 C51 1_555 1_555
C9 C10 1_555 1_555
C10 C11 1_555 1_555
C11 H5 1_555 1_555
C12 C10 1_555 1_555
H6 C12 1_555 1_555
C13 C11 1_555 1_555
H7 C13 1_555 1_555
C14 C12 1_555 1_555
H8 C14 1_555 1_555
C15 C13 1_555 1_555
C16 C15 1_555 1_555
H9 C16 1_555 1_555
H10 C16 1_555 1_555
C17 N1 1_555 1_555
H11 C17 1_555 1_555
C18 N1 1_555 1_555
H12 C18 1_555 1_555
C19 C17 1_555 1_555
H13 C19 1_555 1_555
C20 C18 1_555 1_555
H14 C20 1_555 1_555
C21 C19 1_555 1_555
C22 C21 1_555 1_555
C23 C22 1_555 1_555
H15 C23 1_555 1_555
C24 C22 1_555 1_555
H16 C24 1_555 1_555
C25 C23 1_555 1_555
H17 C25 1_555 1_555
C26 N2 1_555 1_555
H18 C26 1_555 1_555
C27 N2 1_555 1_555
H19 C27 1_555 1_555
H20 C27 1_555 1_555
C28 C27 1_555 1_555
C29 C28 1_555 1_555
H21 C29 1_555 1_555
C30 C28 1_555 1_555
H22 C30 1_555 1_555
C31 C29 1_555 1_555
H23 C31 1_555 1_555
C32 C30 1_555 1_555
H24 C32 1_555 1_555
C33 C31 1_555 1_555
C34 C33 1_555 1_555
C35 O22 1_555 1_555
C36 C35 1_555 1_555
C37 C36 1_555 1_555
H25 C37 1_555 1_555
C38 C36 1_555 1_555
H26 C38 1_555 1_555
C39 C37 1_555 1_555
H27 C39 1_555 1_555
C40 C38 1_555 1_555
H28 C40 1_555 1_555
C41 C39 1_555 1_555
C42 C41 1_555 1_555
H29 C42 1_555 1_555
H30 C42 1_555 1_555
C43 N3 1_555 1_555
H31 C43 1_555 1_555
C44 N3 1_555 1_555
H32 C44 1_555 1_555
C45 C43 1_555 1_555
H33 C45 1_555 1_555
C46 C44 1_555 1_555
H34 C46 1_555 1_555
C47 C45 1_555 1_555
C48 C47 1_555 1_555
C49 C48 1_555 1_555
H35 C49 1_555 1_555
C50 C48 1_555 1_555
H36 C50 1_555 1_555
C51 C49 1_555 1_555
H37 C51 1_555 1_555
C52 N4 1_555 1_555
H38 C52 1_555 1_555
C53 N4 1_555 1_555
H39 C53 1_555 1_555
H40 C53 1_555 1_555
C54 C53 1_555 1_555
C55 C54 1_555 1_555
H41 C55 1_555 1_555
C56 C54 1_555 1_555
H42 C56 1_555 1_555
C57 C55 1_555 1_555
H43 C57 1_555 1_555
C58 C56 1_555 1_555
H44 C58 1_555 1_555
C59 C57 1_555 1_555
C60 C59 1_555 1_555
Mn2A O20A 1_555 1_555
Mn2B O20B 1_555 1_555
Mn2Q O24 1_555 1_555
Mn2P O22P 1_555 1_555
Mn2O O24A 1_555 1_555
O18A Mn1 1_555 1_555
O18B Mn1 1_555 1_555
O19A C9A 1_555 1_555
O19B C9B 1_555 1_555
O20A C34A 1_555 1_555
O20B C34B 1_555 1_555
O21A C34A 1_555 1_555
O21B C34B 1_555 1_555
O22P C35P 1_555 1_555
O22A Mn2A 1_555 1_555
O22B Mn2B 1_555 1_555
O23P C35P 1_555 1_555
O23A C35A 1_555 1_555
O24P Mn2 1_555 1_555
O24A C60A 1_555 1_555
O24Q Mn2A 1_555 1_555
O24O Mn2B 1_555 1_555
O25P C60P 1_555 1_555
O25A C60A 1_555 1_555
O26A Mn1 1_555 1_555
O26B Mn1 1_555 1_555
O27A Mn2A 1_555 1_555
O27B Mn2B 1_555 1_555
O28A Mn2A 1_555 1_555
O28B Mn2B 1_555 1_555
O29A Mn2A 1_555 1_555
O29B Mn2B 1_555 1_555
N1A C16A 1_555 1_555
N1B C16B 1_555 1_555
N2A C25A 1_555 1_555
N2B C25B 1_555 1_555
N3P C42P 1_555 1_555
N3A C42A 1_555 1_555
N4P C51P 1_555 1_555
N4A C51A 1_555 1_555
C9A O18A 1_555 1_555
C9B O18B 1_555 1_555
C10A C9A 1_555 1_555
C10B C9B 1_555 1_555
C11A C10A 1_555 1_555
C11B C10B 1_555 1_555
H5A C11A 1_555 1_555
H5B C11B 1_555 1_555
C12A C10A 1_555 1_555
C12B C10B 1_555 1_555
H6A C12A 1_555 1_555
H6B C12B 1_555 1_555
C13A C11A 1_555 1_555
C13B C11B 1_555 1_555
H7A C13A 1_555 1_555
H7B C13B 1_555 1_555
C14A C12A 1_555 1_555
C14B C12B 1_555 1_555
H8A C14A 1_555 1_555
H8B C14B 1_555 1_555
C15A C13A 1_555 1_555
C15B C13B 1_555 1_555
C16A C15A 1_555 1_555
C16B C15B 1_555 1_555
H9A C16A 1_555 1_555
H9B C16B 1_555 1_555
H10A C16A 1_555 1_555
H10B C16B 1_555 1_555
C17A N1A 1_555 1_555
C17B N1B 1_555 1_555
H11A C17A 1_555 1_555
H11B C17B 1_555 1_555
C18A N1A 1_555 1_555
C18B N1B 1_555 1_555
H12A C18A 1_555 1_555
H12B C18B 1_555 1_555
C19A C17A 1_555 1_555
C19B C17B 1_555 1_555
H13A C19A 1_555 1_555
H13B C19B 1_555 1_555
C20A C18A 1_555 1_555
C20B C18B 1_555 1_555
H14A C20A 1_555 1_555
H14B C20B 1_555 1_555
C21A C19A 1_555 1_555
C21B C19B 1_555 1_555
C22A C21A 1_555 1_555
C22B C21B 1_555 1_555
C23A C22A 1_555 1_555
C23B C22B 1_555 1_555
H15A C23A 1_555 1_555
H15B C23B 1_555 1_555
C24A C22A 1_555 1_555
C24B C22B 1_555 1_555
H16A C24A 1_555 1_555
H16B C24B 1_555 1_555
C25A C23A 1_555 1_555
C25B C23B 1_555 1_555
H17A C25A 1_555 1_555
H17B C25B 1_555 1_555
C26A N2A 1_555 1_555
C26B N2B 1_555 1_555
H18A C26A 1_555 1_555
H18B C26B 1_555 1_555
C27A N2A 1_555 1_555
C27B N2B 1_555 1_555
H19A C27A 1_555 1_555
H19B C27B 1_555 1_555
H20A C27A 1_555 1_555
H20B C27B 1_555 1_555
C28A C27A 1_555 1_555
C28B C27B 1_555 1_555
C29A C28A 1_555 1_555
C29B C28B 1_555 1_555
H21A C29A 1_555 1_555
H21B C29B 1_555 1_555
C30A C28A 1_555 1_555
C30B C28B 1_555 1_555
H22A C30A 1_555 1_555
H22B C30B 1_555 1_555
C31A C29A 1_555 1_555
C31B C29B 1_555 1_555
H23A C31A 1_555 1_555
H23B C31B 1_555 1_555
C32A C30A 1_555 1_555
C32B C30B 1_555 1_555
H24A C32A 1_555 1_555
H24B C32B 1_555 1_555
C33A C31A 1_555 1_555
C33B C31B 1_555 1_555
C34A C33A 1_555 1_555
C34B C33B 1_555 1_555
C35P C36P 1_555 1_555
C35A O22A 1_555 1_555
C36P C37P 1_555 1_555
C36A C35A 1_555 1_555
C37P H25P 1_555 1_555
C37A C36A 1_555 1_555
H25A C37A 1_555 1_555
C38P C36P 1_555 1_555
C38A C36A 1_555 1_555
H26P C38P 1_555 1_555
H26A C38A 1_555 1_555
C39P C37P 1_555 1_555
C39A C37A 1_555 1_555
H27P C39P 1_555 1_555
H27A C39A 1_555 1_555
C40P C38P 1_555 1_555
C40A C38A 1_555 1_555
H28P C40P 1_555 1_555
H28A C40A 1_555 1_555
C41P C39P 1_555 1_555
C41A C39A 1_555 1_555
C42P C41P 1_555 1_555
C42A C41A 1_555 1_555
H29P C42P 1_555 1_555
H29A C42A 1_555 1_555
H30P C42P 1_555 1_555
H30A C42A 1_555 1_555
C43P N3P 1_555 1_555
C43A N3A 1_555 1_555
H31P C43P 1_555 1_555
H31A C43A 1_555 1_555
C44P N3P 1_555 1_555
C44A N3A 1_555 1_555
H32P C44P 1_555 1_555
H32A C44A 1_555 1_555
C45P C43P 1_555 1_555
C45A C43A 1_555 1_555
H33P C45P 1_555 1_555
H33A C45A 1_555 1_555
C46P C44P 1_555 1_555
C46A C44A 1_555 1_555
H34P C46P 1_555 1_555
H34A C46A 1_555 1_555
C47P C45P 1_555 1_555
C47A C45A 1_555 1_555
C48P C47P 1_555 1_555
C48A C47A 1_555 1_555
C49P C48P 1_555 1_555
C49A C48A 1_555 1_555
H35P C49P 1_555 1_555
H35A C49A 1_555 1_555
C50P C48P 1_555 1_555
C50A C48A 1_555 1_555
H36P C50P 1_555 1_555
H36A C50A 1_555 1_555
C51P C49P 1_555 1_555
C51A C49A 1_555 1_555
H37P C51P 1_555 1_555
H37A C51A 1_555 1_555
C52P N4P 1_555 1_555
C52A N4A 1_555 1_555
H38P C52P 1_555 1_555
H38A C52A 1_555 1_555
C53P N4P 1_555 1_555
C53A N4A 1_555 1_555
H39P C53P 1_555 1_555
H39A C53A 1_555 1_555
H40P C53P 1_555 1_555
H40A C53A 1_555 1_555
C54P C53P 1_555 1_555
C54A C53A 1_555 1_555
C55P C54P 1_555 1_555
C55A C54A 1_555 1_555
H41P C55P 1_555 1_555
H41A C55A 1_555 1_555
C56P C54P 1_555 1_555
C56A C54A 1_555 1_555
H42P C56P 1_555 1_555
H42A C56A 1_555 1_555
C57P C55P 1_555 1_555
C57A C55A 1_555 1_555
H43P C57P 1_555 1_555
H43A C57A 1_555 1_555
C58P C56P 1_555 1_555
C58A C56A 1_555 1_555
H44P C58P 1_555 1_555
H44A C58A 1_555 1_555
C59P C57P 1_555 1_555
C59A C57A 1_555 1_555
C60P O24P 1_555 1_555
C60A C59A 1_555 1_555
C6 C7 1_555 1_555
C14 C15 1_555 1_555
C20 C21 1_555 1_555
C24 C26 1_555 1_555
C32 C33 1_555 1_555
C40 C41 1_555 1_555
C46 C47 1_555 1_555
C50 C52 1_555 1_555
C58 C59 1_555 1_555
C14A C15A 1_555 1_555
C14B C15B 1_555 1_555
C20A C21A 1_555 1_555
C20B C21B 1_555 1_555
C24A C26A 1_555 1_555
C24B C26B 1_555 1_555
C32A C33A 1_555 1_555
C32B C33B 1_555 1_555
C40P C41P 1_555 1_555
C40A C41A 1_555 1_555
C46P C47P 1_555 1_555
C46A C47A 1_555 1_555
C50P C52P 1_555 1_555
C50A C52A 1_555 1_555
C58P C59P 1_555 1_555
C58A C59A 1_555 1_555
C59P C60P 1_555 1_555

#END
