
#######################################################################
#
#                 Cambridge Crystallographic Data Centre
#                                CCDC 
#
#######################################################################
#
# If this CIF has been generated from an entry in the Cambridge 
# Structural Database, then it will include bibliographic, chemical, 
# crystal, experimental, refinement or atomic coordinate data resulting 
# from the CCDC's data processing and validation procedures.
#
#######################################################################

data_YANWOB
_symmetry_cell_setting           rhombohedral
_symmetry_space_group_name_H-M   'R -3'
_symmetry_Int_Tables_number      148
_space_group_name_Hall           '-R 3'
loop_
_symmetry_equiv_pos_site_id
_symmetry_equiv_pos_as_xyz
1 x,y,z
2 -y,x-y,z
3 -x+y,-x,z
4 2/3+x,1/3+y,1/3+z
5 2/3-y,1/3+x-y,1/3+z
6 2/3-x+y,1/3-x,1/3+z
7 1/3+x,2/3+y,2/3+z
8 1/3-y,2/3+x-y,2/3+z
9 1/3-x+y,2/3-x,2/3+z
10 -x,-y,-z
11 y,-x+y,-z
12 x-y,x,-z
13 1/3-x,2/3-y,2/3-z
14 1/3+y,2/3-x+y,2/3-z
15 1/3+x-y,2/3+x,2/3-z
16 2/3-x,1/3-y,1/3-z
17 2/3+y,1/3-x+y,1/3-z
18 2/3+x-y,1/3+x,1/3-z
_cell_length_a                   35.8104(5)
_cell_length_b                   35.8104(5)
_cell_length_c                   25.6156(3)
_cell_angle_alpha                90
_cell_angle_beta                 90
_cell_angle_gamma                120
_cell_volume                     28448.1
loop_
_atom_site_label
_atom_site_type_symbol
_atom_site_fract_x
_atom_site_fract_y
_atom_site_fract_z
Eu1 Eu 0.339597(18) 0.147972(17) 0.381508(19)
Eu2 Eu 0.6667 0.3333 -0.38753(8)
S1 S 0.28611(9) 0.07980(8) 0.46453(9)
O1 O 0.3872(2) 0.2144(2) 0.3422(2)
O2 O 0.3488(5) 0.1917(3) 0.4560(4)
O3 O 0.4118(3) 0.1678(3) 0.4152(3)
O4 O 0.4551(2) 0.2295(3) 0.3477(3)
O5 O 0.6267(8) 0.2838(9) -0.3232(9)
O6 O 0.6073(7) 0.3309(6) -0.4270(5)
O7 O 0.5575(7) 0.2667(7) -0.3499(8)
O8 O 0.37506(18) 0.13268(19) 0.3097(2)
O9 O 0.31614(19) 0.07683(19) 0.3371(2)
O10 O 0.1806(2) -0.1115(2) -0.3614(3)
O11 O 0.1432(2) -0.15874(18) -0.3005(2)
O12 O 0.2704(2) 0.0989(2) 0.4237(2)
O13 O 0.3331(2) 0.0993(2) 0.4552(3)
O14 O 0.2787(3) 0.0910(3) 0.5169(3)
O15 O 0.2642(3) 0.0331(3) 0.4585(3)
N1 N 0.4737(3) 0.3049(3) 0.0905(3)
N2 N 0.5177(4) 0.1892(3) -0.0911(5)
N3 N 0.3201(4) 0.0121(3) 0.0731(4)
N4 N 0.1924(5) 0.0154(4) -0.1276(6)
C1 C 0.4254(4) 0.2302(3) 0.3248(4)
C2 C 0.4349(3) 0.2543(3) 0.2745(3)
C3 C 0.4030(3) 0.2445(3) 0.2375(3)
H1 H 0.3749 0.2210 0.2439
C4 C 0.4106(3) 0.2679(3) 0.1915(3)
H2 H 0.3881 0.2608 0.1669
C5 C 0.4515(3) 0.3016(3) 0.1826(3)
C6 C 0.4840(3) 0.3120(3) 0.2189(4)
H3 H 0.5119 0.3358 0.2126
C7 C 0.4762(3) 0.2883(3) 0.2641(4)
H4 H 0.4989 0.2953 0.2881
C8 C 0.4624(4) 0.3275(4) 0.1330(4)
H5 H 0.4871 0.3568 0.1391
H6 H 0.4374 0.3303 0.1218
C9 C 0.5070(3) 0.2992(4) 0.0978(4)
H7 H 0.5239 0.3101 0.1285
C10 C 0.5173(4) 0.2780(5) 0.0615(4)
H8 H 0.5417 0.2745 0.0669
C11 C 0.4923(3) 0.2612(3) 0.0164(3)
C12 C 0.4591(3) 0.2695(3) 0.0102(3)
H9 H 0.4422 0.2601 -0.0207
C13 C 0.4499(3) 0.2907(3) 0.0470(3)
H10 H 0.4264 0.2955 0.0420
C14 C 0.5014(4) 0.2371(3) -0.0213(4)
C15 C 0.5358(4) 0.2286(5) -0.0129(5)
H11 H 0.5542 0.2407 0.0164
C16 C 0.5420(6) 0.2035(6) -0.0467(6)
H12 H 0.5633 0.1957 -0.0397
C17 C 0.4872(4) 0.1985(4) -0.1016(5)
H13 H 0.4718 0.1890 -0.1335
C18 C 0.4777(4) 0.2214(3) -0.0679(4)
H14 H 0.4549 0.2269 -0.0755
C19 C 0.5297(7) 0.1666(6) -0.1339(6)
H15 H 0.5525 0.1612 -0.1203
H16 H 0.5041 0.1383 -0.1419
C20 C 0.5447(5) 0.1912(4) -0.1809(5)
C21 C 0.5178(4) 0.1854(4) -0.2226(7)
H17 H 0.4883 0.1635 -0.2215
C22 C 0.5343(6) 0.2116(6) -0.2656(6)
H18 H 0.5158 0.2085 -0.2940
C23 C 0.5784(7) 0.2431(5) -0.2681(7)
C24 C 0.6035(6) 0.2439(6) -0.2230(8)
H19 H 0.6340 0.2620 -0.2233
C25 C 0.5850(5) 0.2206(6) -0.1836(6)
H20 H 0.6021 0.2252 -0.1533
C26 C 0.5877(8) 0.2664(6) -0.3250(8)
C27 C 0.3448(3) 0.0954(3) 0.3036(3)
C28 C 0.3428(3) 0.0724(3) 0.2535(3)
C29 C 0.3202(3) 0.0278(3) 0.2515(3)
H21 H 0.3041 0.0114 0.2808
C30 C 0.3213(4) 0.0074(3) 0.2063(4)
H22 H 0.3067 -0.0232 0.2056
C31 C 0.3426(4) 0.0298(4) 0.1624(4)
C32 C 0.3642(3) 0.0736(3) 0.1653(4)
H23 H 0.3792 0.0899 0.1354
C33 C 0.3649(3) 0.0953(3) 0.2105(3)
H24 H 0.3807 0.1259 0.2116
C34 C 0.3433(5) 0.0059(4) 0.1153(4)
H25 H 0.3735 0.0164 0.1045
H26 H 0.3298 -0.0252 0.1235
C35 C 0.3377(5) 0.0397(4) 0.0321(5)
H27 H 0.3682 0.0566 0.0298
C36 C 0.3142(5) 0.0440(5) -0.0048(5)
H28 H 0.3284 0.0640 -0.0323
C37 C 0.2699(5) 0.0204(4) -0.0045(5)
C38 C 0.2529(4) -0.0064(4) 0.0393(6)
H29 H 0.2224 -0.0234 0.0423
C39 C 0.2767(5) -0.0093(4) 0.0762(5)
H30 H 0.2631 -0.0270 0.1058
C40 C 0.2435(5) 0.0190(4) -0.0452(6)
C41 C 0.2610(5) 0.0417(4) -0.0913(5)
H31 H 0.2915 0.0590 -0.0936
C42 C 0.2367(5) 0.0406(4) -0.1342(6)
H32 H 0.2494 0.0558 -0.1656
C43 C 0.1708(5) -0.0093(5) -0.0841(6)
H33 H 0.1405 -0.0276 -0.0824
C44 C 0.1987(4) -0.0041(6) -0.0435(6)
H34 H 0.1859 -0.0177 -0.0113
C45 C 0.1684(12) 0.0119(9) -0.1793(9)
H35 H 0.1387 0.0056 -0.1717
H36 H 0.1835 0.0396 -0.1985
C46 C 0.1670(7) -0.0246(6) -0.2130(8)
C47 C 0.1866(7) -0.0129(5) -0.2601(7)
H37 H 0.1997 0.0165 -0.2700
C48 C 0.1888(5) -0.0432(3) -0.2967(6)
H38 H 0.2031 -0.0348 -0.3294
C49 C 0.1676(3) -0.0858(3) -0.2782(4)
C50 C 0.1480(4) -0.0967(4) -0.2282(5)
H39 H 0.1338 -0.1256 -0.2159
C51 C 0.1501(6) -0.0652(6) -0.1995(6)
H40 H 0.1381 -0.0726 -0.1654
C52 C 0.1640(3) -0.1205(3) -0.3163(4)
Eu1J Eu 0.147972(17) -0.191625(25) -0.381508(19)
Eu1A Eu 0.852028(17) 0.191625(25) 0.381508(19)
Eu1B Eu 0.808375(25) 0.660403(18) 0.381508(19)
Eu1K Eu 0.191625(25) 0.339597(18) -0.381508(19)
Eu1B_2 Eu -0.191625(25) -0.339597(18) 0.381508(19)
Eu2J Eu 0.3333 -0.3334 0.38753(8)
S1J S 0.07980(8) -0.20631(12) -0.46453(9)
S1B S -0.20631(12) -0.28611(9) 0.46453(9)
O1A O 0.7856(2) 0.1728(3) 0.3422(2)
O1B O 0.8272(3) 0.6128(2) 0.3422(2)
O1J O 0.2144(2) -0.1728(3) -0.3422(2)
O1B_2 O -0.1728(3) -0.3872(2) 0.3422(2)
O2J O 0.1917(3) -0.1571(6) -0.4560(4)
O2B O -0.1571(6) -0.3488(5) 0.4560(4)
O3J O 0.1678(3) -0.2440(4) -0.4152(3)
O3B O -0.2440(4) -0.4118(3) 0.4152(3)
O4A O 0.7705(3) 0.2256(4) 0.3477(3)
O4B O 0.7744(4) 0.5449(2) 0.3477(3)
O4J O 0.2295(3) -0.2256(4) -0.3477(3)
O5A O 0.7162(9) 0.3429(12) -0.3232(9)
O5B O 0.6571(12) 0.3733(8) -0.3232(9)
O5J O 0.2838(9) -0.3429(12) 0.3232(9)
O6A O 0.6691(6) 0.2764(9) -0.4270(5)
O6B O 0.7236(9) 0.3927(7) -0.4270(5)
O7A O 0.7333(7) 0.2908(10) -0.3499(8)
O7B O 0.7092(10) 0.4425(7) -0.3499(8)
O7J O 0.2667(7) -0.2908(10) 0.3499(8)
O8K O 0.24238(26) 0.37506(18) -0.3097(2)
O8J O 0.13268(19) -0.24238(26) -0.3097(2)
O8B O -0.24238(26) -0.37506(18) 0.3097(2)
O9K O 0.23931(27) 0.31614(19) -0.3371(2)
O9J O 0.07683(19) -0.23931(27) -0.3371(2)
O9B O -0.23931(27) -0.31614(19) 0.3371(2)
O10K O 0.2921(3) 0.1806(2) 0.3614(3)
O10J O -0.1115(2) -0.2921(3) 0.3614(3)
O11K O 0.30194(27) 0.1432(2) 0.3005(2)
O11J O -0.15874(18) -0.30194(27) 0.3005(2)
O12J O 0.0989(2) -0.1715(3) -0.4237(2)
O12B O -0.1715(3) -0.2704(2) 0.4237(2)
O13J O 0.0993(2) -0.2338(3) -0.4552(3)
O13B O -0.2338(3) -0.3331(2) 0.4552(3)
O14J O 0.0910(3) -0.1877(4) -0.5169(3)
O14B O -0.1877(4) -0.2787(3) 0.5169(3)
O15J O 0.0331(3) -0.2311(4) -0.4585(3)
O15B O -0.2311(4) -0.2642(3) 0.4585(3)
N1A N 0.6951(3) 0.1688(4) 0.0905(3)
N1B N 0.8312(4) 0.5263(3) 0.0905(3)
N1J N 0.3049(3) -0.1688(4) -0.0905(3)
N2A N 0.8108(3) 0.3285(5) -0.0911(5)
N2B N 0.6715(5) 0.4823(4) -0.0911(5)
N2J N 0.1892(3) -0.3285(5) 0.0911(5)
N3K N 0.3080(5) 0.3201(4) -0.0731(4)
N3J N 0.0121(3) -0.3080(5) -0.0731(4)
N4K N 0.1770(6) 0.1924(5) 0.1276(6)
N4J N 0.0154(4) -0.1770(6) 0.1276(6)
C1A C 0.7698(3) 0.1952(5) 0.3248(4)
C1B C 0.8048(5) 0.5746(4) 0.3248(4)
C1J C 0.2302(3) -0.1952(5) -0.3248(4)
C2A C 0.7457(3) 0.1806(4) 0.2745(3)
C2B C 0.8194(4) 0.5651(3) 0.2745(3)
C2J C 0.2543(3) -0.1806(4) -0.2745(3)
C3A C 0.7555(3) 0.1585(4) 0.2375(3)
C3B C 0.8415(4) 0.5970(3) 0.2375(3)
C3J C 0.2445(3) -0.1585(4) -0.2375(3)
H1A H 0.7790 0.1539 0.2439
H1B H 0.8461 0.6251 0.2439
H1J H 0.2210 -0.1539 -0.2439
C4A C 0.7321(3) 0.1427(4) 0.1915(3)
C4B C 0.8573(4) 0.5894(3) 0.1915(3)
C4J C 0.2679(3) -0.1427(4) -0.1915(3)
H2A H 0.7392 0.1273 0.1669
H2B H 0.8727 0.6119 0.1669
H2J H 0.2608 -0.1273 -0.1669
C5A C 0.6984(3) 0.1499(4) 0.1826(3)
C5B C 0.8501(4) 0.5485(3) 0.1826(3)
C5J C 0.3016(3) -0.1499(4) -0.1826(3)
C6A C 0.6880(3) 0.1720(4) 0.2189(4)
C6B C 0.8280(4) 0.5160(3) 0.2189(4)
C6J C 0.3120(3) -0.1720(4) -0.2189(4)
H3A H 0.6642 0.1761 0.2126
H3B H 0.8239 0.4881 0.2126
H3J H 0.3358 -0.1761 -0.2126
C7A C 0.7117(3) 0.1879(4) 0.2641(4)
C7B C 0.8121(4) 0.5238(3) 0.2641(4)
C7J C 0.2883(3) -0.1879(4) -0.2641(4)
H4A H 0.7047 0.2036 0.2881
H4B H 0.7964 0.5011 0.2881
H4J H 0.2953 -0.2036 -0.2881
C8A C 0.6725(4) 0.1349(6) 0.1330(4)
C8B C 0.8651(6) 0.5376(4) 0.1330(4)
C8J C 0.3275(4) -0.1349(6) -0.1330(4)
H5A H 0.6432 0.1303 0.1391
H5B H 0.8697 0.5129 0.1391
H5J H 0.3568 -0.1303 -0.1391
H6A H 0.6697 0.1071 0.1218
H6B H 0.8929 0.5626 0.1218
H6J H 0.3303 -0.1071 -0.1218
C9A C 0.7008(4) 0.2078(5) 0.0978(4)
C9B C 0.7922(5) 0.4930(3) 0.0978(4)
C9J C 0.2992(4) -0.2078(5) -0.0978(4)
H7A H 0.6899 0.2138 0.1285
H7B H 0.7862 0.4761 0.1285
H7J H 0.3101 -0.2138 -0.1285
C10A C 0.7220(5) 0.2393(6) 0.0615(4)
C10B C 0.7607(6) 0.4827(4) 0.0615(4)
C10J C 0.2780(5) -0.2393(6) -0.0615(4)
H8A H 0.7255 0.2672 0.0669
H8B H 0.7328 0.4583 0.0669
H8J H 0.2745 -0.2672 -0.0669
C11A C 0.7388(3) 0.2311(4) 0.0164(3)
C11B C 0.7689(4) 0.5077(3) 0.0164(3)
C11J C 0.2612(3) -0.2311(4) -0.0164(3)
C12A C 0.7305(3) 0.1896(4) 0.0102(3)
C12B C 0.8104(4) 0.5409(3) 0.0102(3)
C12J C 0.2695(3) -0.1896(4) -0.0102(3)
H9A H 0.7399 0.1821 -0.0207
H9B H 0.8179 0.5578 -0.0207
H9J H 0.2601 -0.1821 0.0207
C13A C 0.7093(3) 0.1592(4) 0.0470(3)
C13B C 0.8408(4) 0.5501(3) 0.0470(3)
C13J C 0.2907(3) -0.1592(4) -0.0470(3)
H10A H 0.7045 0.1309 0.0420
H10B H 0.8691 0.5736 0.0420
H10J H 0.2955 -0.1309 -0.0420
C14A C 0.7629(3) 0.2643(5) -0.0213(4)
C14B C 0.7357(5) 0.4986(4) -0.0213(4)
C14J C 0.2371(3) -0.2643(5) 0.0213(4)
C15A C 0.7714(5) 0.3072(6) -0.0129(5)
C15B C 0.6928(6) 0.4642(4) -0.0129(5)
C15J C 0.2286(5) -0.3072(6) 0.0129(5)
H11A H 0.7593 0.3135 0.0164
H11B H 0.6865 0.4458 0.0164
H11J H 0.2407 -0.3135 -0.0164
C16A C 0.7965(6) 0.3385(8) -0.0467(6)
C16B C 0.6615(8) 0.4580(6) -0.0467(6)
C16J C 0.2035(6) -0.3385(8) 0.0467(6)
H12A H 0.8043 0.3676 -0.0397
H12B H 0.6324 0.4367 -0.0397
H12J H 0.1957 -0.3676 0.0397
C17A C 0.8015(4) 0.2887(6) -0.1016(5)
C17B C 0.7113(6) 0.5128(4) -0.1016(5)
C17J C 0.1985(4) -0.2887(6) 0.1016(5)
H13A H 0.8110 0.2828 -0.1335
H13B H 0.7172 0.5282 -0.1335
H13J H 0.1890 -0.2828 0.1335
C18A C 0.7786(3) 0.2563(5) -0.0679(4)
C18B C 0.7437(5) 0.5223(4) -0.0679(4)
C18J C 0.2214(3) -0.2563(5) 0.0679(4)
H14A H 0.7731 0.2280 -0.0755
H14B H 0.7720 0.5451 -0.0755
H14J H 0.2269 -0.2280 0.0755
C19A C 0.8334(6) 0.3631(9) -0.1339(6)
C19B C 0.6369(9) 0.4703(7) -0.1339(6)
C19J C 0.1666(6) -0.3631(9) 0.1339(6)
H15A H 0.8388 0.3913 -0.1203
H15B H 0.6087 0.4475 -0.1203
H15J H 0.1612 -0.3913 0.1203
H16A H 0.8617 0.3658 -0.1419
H16B H 0.6342 0.4959 -0.1419
H16J H 0.1383 -0.3658 0.1419
C20A C 0.8088(4) 0.3535(6) -0.1809(5)
C20B C 0.6465(6) 0.4553(5) -0.1809(5)
C20J C 0.1912(4) -0.3535(6) 0.1809(5)
C21A C 0.8146(4) 0.3324(6) -0.2226(7)
C21B C 0.6676(6) 0.4822(4) -0.2226(7)
C21J C 0.1854(4) -0.3324(6) 0.2226(7)
H17A H 0.8365 0.3248 -0.2215
H17B H 0.6752 0.5117 -0.2215
H17J H 0.1635 -0.3248 0.2215
C22A C 0.7884(6) 0.3227(8) -0.2656(6)
C22B C 0.6773(8) 0.4657(6) -0.2656(6)
C22J C 0.2116(6) -0.3227(8) 0.2656(6)
H18A H 0.7915 0.3073 -0.2940
H18B H 0.6927 0.4842 -0.2940
H18J H 0.2085 -0.3073 0.2940
C23A C 0.7569(5) 0.3353(9) -0.2681(7)
C23B C 0.6647(9) 0.4216(7) -0.2681(7)
C23J C 0.2431(5) -0.3353(9) 0.2681(7)
C24A C 0.7561(6) 0.3596(8) -0.2230(8)
C24B C 0.6404(8) 0.3965(6) -0.2230(8)
C24J C 0.2439(6) -0.3596(8) 0.2230(8)
H19A H 0.7380 0.3720 -0.2233
H19B H 0.6280 0.3660 -0.2233
H19J H 0.2620 -0.3720 0.2233
C25A C 0.7794(6) 0.3644(8) -0.1836(6)
C25B C 0.6356(8) 0.4150(5) -0.1836(6)
C25J C 0.2206(6) -0.3644(8) 0.1836(6)
H20A H 0.7748 0.3769 -0.1533
H20B H 0.6231 0.3979 -0.1533
H20J H 0.2252 -0.3769 0.1533
C26A C 0.7336(6) 0.3213(10) -0.3250(8)
C26B C 0.6787(10) 0.4123(8) -0.3250(8)
C26J C 0.2664(6) -0.3213(10) 0.3250(8)
C27K C 0.2494(4) 0.3448(3) -0.3036(3)
C27J C 0.0954(3) -0.2494(4) -0.3036(3)
C28K C 0.2704(4) 0.3428(3) -0.2535(3)
C28J C 0.0724(3) -0.2704(4) -0.2535(3)
C29K C 0.2924(4) 0.3202(3) -0.2515(3)
C29J C 0.0278(3) -0.2924(4) -0.2515(3)
H21K H 0.2927 0.3041 -0.2808
H21J H 0.0114 -0.2927 -0.2808
C30K C 0.3139(5) 0.3213(4) -0.2063(4)
C30J C 0.0074(3) -0.3139(5) -0.2063(4)
H22K H 0.3299 0.3067 -0.2056
H22J H -0.0232 -0.3299 -0.2056
C31K C 0.3128(6) 0.3426(4) -0.1624(4)
C31J C 0.0298(4) -0.3128(6) -0.1624(4)
C32K C 0.2906(4) 0.3642(3) -0.1653(4)
C32J C 0.0736(3) -0.2906(4) -0.1653(4)
H23K H 0.2893 0.3792 -0.1354
H23J H 0.0899 -0.2893 -0.1354
C33K C 0.2696(4) 0.3649(3) -0.2105(3)
C33J C 0.0953(3) -0.2696(4) -0.2105(3)
H24K H 0.2548 0.3807 -0.2116
H24J H 0.1259 -0.2548 -0.2116
C34K C 0.3374(6) 0.3433(5) -0.1153(4)
C34J C 0.0059(4) -0.3374(6) -0.1153(4)
H25K H 0.3571 0.3735 -0.1045
H25J H 0.0164 -0.3571 -0.1045
H26K H 0.3550 0.3298 -0.1235
H26J H -0.0252 -0.3550 -0.1235
C35K C 0.2980(6) 0.3377(5) -0.0321(5)
C35J C 0.0397(4) -0.2980(6) -0.0321(5)
H27K H 0.3116 0.3682 -0.0298
H27J H 0.0566 -0.3116 -0.0298
C36K C 0.2702(7) 0.3142(5) 0.0048(5)
C36J C 0.0440(5) -0.2702(7) 0.0048(5)
H28K H 0.2644 0.3284 0.0323
H28J H 0.0640 -0.2644 0.0323
C37K C 0.2495(6) 0.2699(5) 0.0045(5)
C37J C 0.0204(4) -0.2495(6) 0.0045(5)
C38K C 0.2593(6) 0.2529(4) -0.0393(6)
C38J C -0.0064(4) -0.2593(6) -0.0393(6)
H29K H 0.2458 0.2224 -0.0423
H29J H -0.0234 -0.2458 -0.0423
C39K C 0.2860(6) 0.2767(5) -0.0762(5)
C39J C -0.0093(4) -0.2860(6) -0.0762(5)
H30K H 0.2901 0.2631 -0.1058
H30J H -0.0270 -0.2901 -0.1058
C40K C 0.2245(6) 0.2435(5) 0.0452(6)
C40J C 0.0190(4) -0.2245(6) 0.0452(6)
C41K C 0.2193(6) 0.2610(5) 0.0913(5)
C41J C 0.0417(4) -0.2193(6) 0.0913(5)
H31K H 0.2325 0.2915 0.0936
H31J H 0.0590 -0.2325 0.0936
C42K C 0.1961(6) 0.2367(5) 0.1342(6)
C42J C 0.0406(4) -0.1961(6) 0.1342(6)
H32K H 0.1936 0.2494 0.1656
H32J H 0.0558 -0.1936 0.1656
C43K C 0.1801(7) 0.1708(5) 0.0841(6)
C43J C -0.0093(5) -0.1801(7) 0.0841(6)
H33K H 0.1681 0.1405 0.0824
H33J H -0.0276 -0.1681 0.0824
C44K C 0.2028(7) 0.1987(4) 0.0435(6)
C44J C -0.0041(6) -0.2028(7) 0.0435(6)
H34K H 0.2036 0.1859 0.0113
H34J H -0.0177 -0.2036 0.0113
C45K C 0.1565(15) 0.1684(12) 0.1793(9)
C45J C 0.0119(9) -0.1565(15) 0.1793(9)
H35K H 0.1331 0.1387 0.1717
H35J H 0.0056 -0.1331 0.1717
H36K H 0.1439 0.1835 0.1985
H36J H 0.0396 -0.1439 0.1985
C46K C 0.1916(9) 0.1670(7) 0.2130(8)
C46J C -0.0246(6) -0.1916(9) 0.2130(8)
C47K C 0.1995(9) 0.1866(7) 0.2601(7)
C47J C -0.0129(5) -0.1995(9) 0.2601(7)
H37K H 0.1832 0.1997 0.2700
H37J H 0.0165 -0.1832 0.2700
C48K C 0.2320(6) 0.1888(5) 0.2967(6)
C48J C -0.0432(3) -0.2320(6) 0.2967(6)
H38K H 0.2379 0.2031 0.3294
H38J H -0.0348 -0.2379 0.3294
C49K C 0.2534(4) 0.1676(3) 0.2782(4)
C49J C -0.0858(3) -0.2534(4) 0.2782(4)
C50K C 0.2447(6) 0.1480(4) 0.2282(5)
C50J C -0.0967(4) -0.2447(6) 0.2282(5)
H39K H 0.2594 0.1338 0.2159
H39J H -0.1256 -0.2594 0.2159
C51K C 0.2153(8) 0.1501(6) 0.1995(6)
C51J C -0.0652(6) -0.2153(8) 0.1995(6)
H40K H 0.2107 0.1381 0.1654
H40J H -0.0726 -0.2107 0.1654
C52K C 0.2845(4) 0.1640(3) 0.3163(4)
C52J C -0.1205(3) -0.2845(4) 0.3163(4)
loop_
_geom_bond_atom_site_label_1
_geom_bond_atom_site_label_2
_geom_bond_site_symmetry_1
_geom_bond_site_symmetry_2
Eu1 O1 1_555 1_555
Eu2 O5 1_555 1_555
S1 O12 1_555 1_555
O1 C1 1_555 1_555
O2 Eu1 1_555 1_555
O3 Eu1 1_555 1_555
O4 C1 1_555 1_555
O5 C26 1_555 1_555
O6 Eu2 1_555 1_555
O7 C26 1_555 1_555
O8 Eu1 1_555 1_555
O9 Eu1 1_555 1_555
O10 C52 1_555 1_555
O11 C52 1_555 1_555
O12 Eu1 1_555 1_555
O13 Eu1 1_555 1_555
O14 S1 1_555 1_555
O15 S1 1_555 1_555
N1 C8 1_555 1_555
N2 C16 1_555 1_555
N3 C34 1_555 1_555
N4 C42 1_555 1_555
C1 C2 1_555 1_555
C2 C3 1_555 1_555
C3 H1 1_555 1_555
C4 C3 1_555 1_555
H2 C4 1_555 1_555
C5 C4 1_555 1_555
C6 C5 1_555 1_555
H3 C6 1_555 1_555
C7 C2 1_555 1_555
H4 C7 1_555 1_555
C8 C5 1_555 1_555
H5 C8 1_555 1_555
H6 C8 1_555 1_555
C9 N1 1_555 1_555
H7 C9 1_555 1_555
C10 C9 1_555 1_555
H8 C10 1_555 1_555
C11 C10 1_555 1_555
C12 C11 1_555 1_555
H9 C12 1_555 1_555
C13 N1 1_555 1_555
H10 C13 1_555 1_555
C14 C11 1_555 1_555
C15 C14 1_555 1_555
H11 C15 1_555 1_555
C16 C15 1_555 1_555
H12 C16 1_555 1_555
C17 N2 1_555 1_555
H13 C17 1_555 1_555
C18 C14 1_555 1_555
H14 C18 1_555 1_555
C19 N2 1_555 1_555
H15 C19 1_555 1_555
H16 C19 1_555 1_555
C20 C19 1_555 1_555
C21 C20 1_555 1_555
H17 C21 1_555 1_555
C22 C21 1_555 1_555
H18 C22 1_555 1_555
C23 C22 1_555 1_555
C24 C23 1_555 1_555
H19 C24 1_555 1_555
C25 C20 1_555 1_555
H20 C25 1_555 1_555
C26 C23 1_555 1_555
C27 O8 1_555 1_555
C28 C27 1_555 1_555
C29 C28 1_555 1_555
H21 C29 1_555 1_555
C30 C29 1_555 1_555
H22 C30 1_555 1_555
C31 C30 1_555 1_555
C32 C31 1_555 1_555
H23 C32 1_555 1_555
C33 C28 1_555 1_555
H24 C33 1_555 1_555
C34 C31 1_555 1_555
H25 C34 1_555 1_555
H26 C34 1_555 1_555
C35 N3 1_555 1_555
H27 C35 1_555 1_555
C36 C35 1_555 1_555
H28 C36 1_555 1_555
C37 C36 1_555 1_555
C38 C37 1_555 1_555
H29 C38 1_555 1_555
C39 N3 1_555 1_555
H30 C39 1_555 1_555
C40 C37 1_555 1_555
C41 C40 1_555 1_555
H31 C41 1_555 1_555
C42 C41 1_555 1_555
H32 C42 1_555 1_555
C43 N4 1_555 1_555
H33 C43 1_555 1_555
C44 C40 1_555 1_555
H34 C44 1_555 1_555
C45 N4 1_555 1_555
H35 C45 1_555 1_555
H36 C45 1_555 1_555
C46 C45 1_555 1_555
C47 C46 1_555 1_555
H37 C47 1_555 1_555
C48 C47 1_555 1_555
H38 C48 1_555 1_555
C49 C48 1_555 1_555
C50 C49 1_555 1_555
H39 C50 1_555 1_555
C51 C46 1_555 1_555
H40 C51 1_555 1_555
C52 C49 1_555 1_555
Eu1J O10 1_555 1_555
Eu1A O1A 1_555 1_555
Eu1B O1B 1_555 1_555
Eu1K O8K 1_555 1_555
Eu1B_2 O1B_2 1_555 1_555
Eu2J O5J 1_555 1_555
S1J O12J 1_555 1_555
S1B O12B 1_555 1_555
O1A C1A 1_555 1_555
O1B C1B 1_555 1_555
O1J Eu1J 1_555 1_555
O2J Eu1J 1_555 1_555
O2B Eu1B_2 1_555 1_555
O3J Eu1J 1_555 1_555
O3B Eu1B_2 1_555 1_555
O4A C1A 1_555 1_555
O4B C1B 1_555 1_555
O4J C1J 1_555 1_555
O5A Eu2 1_555 1_555
O5B Eu2 1_555 1_555
O5J C26J 1_555 1_555
O6A Eu2 1_555 1_555
O6B Eu2 1_555 1_555
O7A C26A 1_555 1_555
O7B C26B 1_555 1_555
O7J C26J 1_555 1_555
O8K C27K 1_555 1_555
O8J Eu1J 1_555 1_555
O8B Eu1B_2 1_555 1_555
O9K Eu1K 1_555 1_555
O9J Eu1J 1_555 1_555
O9B Eu1B_2 1_555 1_555
O10K Eu1 1_555 1_555
O10J Eu1B_2 1_555 1_555
O11K Eu1 1_555 1_555
O11J Eu1B_2 1_555 1_555
O12J Eu1J 1_555 1_555
O12B Eu1B_2 1_555 1_555
O13J Eu1J 1_555 1_555
O13B Eu1B_2 1_555 1_555
O14J S1J 1_555 1_555
O14B S1B 1_555 1_555
O15J S1J 1_555 1_555
O15B S1B 1_555 1_555
N1A C8A 1_555 1_555
N1B C8B 1_555 1_555
N1J C8J 1_555 1_555
N2A C16A 1_555 1_555
N2B C16B 1_555 1_555
N2J C16J 1_555 1_555
N3K C34K 1_555 1_555
N3J C34J 1_555 1_555
N4K C42K 1_555 1_555
N4J C42J 1_555 1_555
C1A C2A 1_555 1_555
C1B C2B 1_555 1_555
C1J O1J 1_555 1_555
C2A C3A 1_555 1_555
C2B C3B 1_555 1_555
C2J C1J 1_555 1_555
C3A H1A 1_555 1_555
C3B H1B 1_555 1_555
C3J C2J 1_555 1_555
H1J C3J 1_555 1_555
C4A C3A 1_555 1_555
C4B C3B 1_555 1_555
C4J C3J 1_555 1_555
H2A C4A 1_555 1_555
H2B C4B 1_555 1_555
H2J C4J 1_555 1_555
C5A C4A 1_555 1_555
C5B C4B 1_555 1_555
C5J C4J 1_555 1_555
C6A C5A 1_555 1_555
C6B C5B 1_555 1_555
C6J C5J 1_555 1_555
H3A C6A 1_555 1_555
H3B C6B 1_555 1_555
H3J C6J 1_555 1_555
C7A C2A 1_555 1_555
C7B C2B 1_555 1_555
C7J C2J 1_555 1_555
H4A C7A 1_555 1_555
H4B C7B 1_555 1_555
H4J C7J 1_555 1_555
C8A C5A 1_555 1_555
C8B C5B 1_555 1_555
C8J C5J 1_555 1_555
H5A C8A 1_555 1_555
H5B C8B 1_555 1_555
H5J C8J 1_555 1_555
H6A C8A 1_555 1_555
H6B C8B 1_555 1_555
H6J C8J 1_555 1_555
C9A N1A 1_555 1_555
C9B N1B 1_555 1_555
C9J N1J 1_555 1_555
H7A C9A 1_555 1_555
H7B C9B 1_555 1_555
H7J C9J 1_555 1_555
C10A C9A 1_555 1_555
C10B C9B 1_555 1_555
C10J C9J 1_555 1_555
H8A C10A 1_555 1_555
H8B C10B 1_555 1_555
H8J C10J 1_555 1_555
C11A C10A 1_555 1_555
C11B C10B 1_555 1_555
C11J C10J 1_555 1_555
C12A C11A 1_555 1_555
C12B C11B 1_555 1_555
C12J C11J 1_555 1_555
H9A C12A 1_555 1_555
H9B C12B 1_555 1_555
H9J C12J 1_555 1_555
C13A N1A 1_555 1_555
C13B N1B 1_555 1_555
C13J N1J 1_555 1_555
H10A C13A 1_555 1_555
H10B C13B 1_555 1_555
H10J C13J 1_555 1_555
C14A C11A 1_555 1_555
C14B C11B 1_555 1_555
C14J C11J 1_555 1_555
C15A C14A 1_555 1_555
C15B C14B 1_555 1_555
C15J C14J 1_555 1_555
H11A C15A 1_555 1_555
H11B C15B 1_555 1_555
H11J C15J 1_555 1_555
C16A C15A 1_555 1_555
C16B C15B 1_555 1_555
C16J C15J 1_555 1_555
H12A C16A 1_555 1_555
H12B C16B 1_555 1_555
H12J C16J 1_555 1_555
C17A N2A 1_555 1_555
C17B N2B 1_555 1_555
C17J N2J 1_555 1_555
H13A C17A 1_555 1_555
H13B C17B 1_555 1_555
H13J C17J 1_555 1_555
C18A C14A 1_555 1_555
C18B C14B 1_555 1_555
C18J C14J 1_555 1_555
H14A C18A 1_555 1_555
H14B C18B 1_555 1_555
H14J C18J 1_555 1_555
C19A N2A 1_555 1_555
C19B N2B 1_555 1_555
C19J N2J 1_555 1_555
H15A C19A 1_555 1_555
H15B C19B 1_555 1_555
H15J C19J 1_555 1_555
H16A C19A 1_555 1_555
H16B C19B 1_555 1_555
H16J C19J 1_555 1_555
C20A C19A 1_555 1_555
C20B C19B 1_555 1_555
C20J C19J 1_555 1_555
C21A C20A 1_555 1_555
C21B C20B 1_555 1_555
C21J C20J 1_555 1_555
H17A C21A 1_555 1_555
H17B C21B 1_555 1_555
H17J C21J 1_555 1_555
C22A C21A 1_555 1_555
C22B C21B 1_555 1_555
C22J C21J 1_555 1_555
H18A C22A 1_555 1_555
H18B C22B 1_555 1_555
H18J C22J 1_555 1_555
C23A C22A 1_555 1_555
C23B C22B 1_555 1_555
C23J C22J 1_555 1_555
C24A C23A 1_555 1_555
C24B C23B 1_555 1_555
C24J C23J 1_555 1_555
H19A C24A 1_555 1_555
H19B C24B 1_555 1_555
H19J C24J 1_555 1_555
C25A C20A 1_555 1_555
C25B C20B 1_555 1_555
C25J C20J 1_555 1_555
H20A C25A 1_555 1_555
H20B C25B 1_555 1_555
H20J C25J 1_555 1_555
C26A O5A 1_555 1_555
C26B O5B 1_555 1_555
C26J C23J 1_555 1_555
C27K O9K 1_555 1_555
C27J O8J 1_555 1_555
C28K C27K 1_555 1_555
C28J C27J 1_555 1_555
C29K C28K 1_555 1_555
C29J C28J 1_555 1_555
H21K C29K 1_555 1_555
H21J C29J 1_555 1_555
C30K C29K 1_555 1_555
C30J C29J 1_555 1_555
H22K C30K 1_555 1_555
H22J C30J 1_555 1_555
C31K C30K 1_555 1_555
C31J C30J 1_555 1_555
C32K C31K 1_555 1_555
C32J C31J 1_555 1_555
H23K C32K 1_555 1_555
H23J C32J 1_555 1_555
C33K C28K 1_555 1_555
C33J C28J 1_555 1_555
H24K C33K 1_555 1_555
H24J C33J 1_555 1_555
C34K C31K 1_555 1_555
C34J C31J 1_555 1_555
H25K C34K 1_555 1_555
H25J C34J 1_555 1_555
H26K C34K 1_555 1_555
H26J C34J 1_555 1_555
C35K N3K 1_555 1_555
C35J N3J 1_555 1_555
H27K C35K 1_555 1_555
H27J C35J 1_555 1_555
C36K C35K 1_555 1_555
C36J C35J 1_555 1_555
H28K C36K 1_555 1_555
H28J C36J 1_555 1_555
C37K C36K 1_555 1_555
C37J C36J 1_555 1_555
C38K C37K 1_555 1_555
C38J C37J 1_555 1_555
H29K C38K 1_555 1_555
H29J C38J 1_555 1_555
C39K N3K 1_555 1_555
C39J N3J 1_555 1_555
H30K C39K 1_555 1_555
H30J C39J 1_555 1_555
C40K C37K 1_555 1_555
C40J C37J 1_555 1_555
C41K C40K 1_555 1_555
C41J C40J 1_555 1_555
H31K C41K 1_555 1_555
H31J C41J 1_555 1_555
C42K C41K 1_555 1_555
C42J C41J 1_555 1_555
H32K C42K 1_555 1_555
H32J C42J 1_555 1_555
C43K N4K 1_555 1_555
C43J N4J 1_555 1_555
H33K C43K 1_555 1_555
H33J C43J 1_555 1_555
C44K C40K 1_555 1_555
C44J C40J 1_555 1_555
H34K C44K 1_555 1_555
H34J C44J 1_555 1_555
C45K N4K 1_555 1_555
C45J N4J 1_555 1_555
H35K C45K 1_555 1_555
H35J C45J 1_555 1_555
H36K C45K 1_555 1_555
H36J C45J 1_555 1_555
C46K C45K 1_555 1_555
C46J C45J 1_555 1_555
C47K C46K 1_555 1_555
C47J C46J 1_555 1_555
H37K C47K 1_555 1_555
H37J C47J 1_555 1_555
C48K C47K 1_555 1_555
C48J C47J 1_555 1_555
H38K C48K 1_555 1_555
H38J C48J 1_555 1_555
C49K C48K 1_555 1_555
C49J C48J 1_555 1_555
C50K C49K 1_555 1_555
C50J C49J 1_555 1_555
H39K C50K 1_555 1_555
H39J C50J 1_555 1_555
C51K C46K 1_555 1_555
C51J C46J 1_555 1_555
H40K C51K 1_555 1_555
H40J C51J 1_555 1_555
C52K O10K 1_555 1_555
C52J O10J 1_555 1_555
S1 O13 1_555 1_555
O9 C27 1_555 1_555
O11 Eu1J 1_555 1_555
C6 C7 1_555 1_555
C12 C13 1_555 1_555
C17 C18 1_555 1_555
C24 C25 1_555 1_555
C32 C33 1_555 1_555
C38 C39 1_555 1_555
C43 C44 1_555 1_555
C50 C51 1_555 1_555
S1J O13J 1_555 1_555
S1B O13B 1_555 1_555
O9J C27J 1_555 1_555
O11K C52K 1_555 1_555
O11J C52J 1_555 1_555
C6A C7A 1_555 1_555
C6B C7B 1_555 1_555
C6J C7J 1_555 1_555
C12A C13A 1_555 1_555
C12B C13B 1_555 1_555
C12J C13J 1_555 1_555
C17A C18A 1_555 1_555
C17B C18B 1_555 1_555
C17J C18J 1_555 1_555
C23A C26A 1_555 1_555
C23B C26B 1_555 1_555
C24A C25A 1_555 1_555
C24B C25B 1_555 1_555
C24J C25J 1_555 1_555
C32K C33K 1_555 1_555
C32J C33J 1_555 1_555
C38K C39K 1_555 1_555
C38J C39J 1_555 1_555
C43K C44K 1_555 1_555
C43J C44J 1_555 1_555
C49K C52K 1_555 1_555
C49J C52J 1_555 1_555
C50K C51K 1_555 1_555
C50J C51J 1_555 1_555

#END
