
#######################################################################
#
#                 Cambridge Crystallographic Data Centre
#                                CCDC 
#
#######################################################################
#
# If this CIF has been generated from an entry in the Cambridge 
# Structural Database, then it will include bibliographic, chemical, 
# crystal, experimental, refinement or atomic coordinate data resulting 
# from the CCDC's data processing and validation procedures.
#
#######################################################################

data_YANXAO
_symmetry_cell_setting           rhombohedral
_symmetry_space_group_name_H-M   'R -3'
_symmetry_Int_Tables_number      148
_space_group_name_Hall           '-R 3'
loop_
_symmetry_equiv_pos_site_id
_symmetry_equiv_pos_as_xyz
1 x,y,z
2 -y,x-y,z
3 -x+y,-x,z
4 2/3+x,1/3+y,1/3+z
5 2/3-y,1/3+x-y,1/3+z
6 2/3-x+y,1/3-x,1/3+z
7 1/3+x,2/3+y,2/3+z
8 1/3-y,2/3+x-y,2/3+z
9 1/3-x+y,2/3-x,2/3+z
10 -x,-y,-z
11 y,-x+y,-z
12 x-y,x,-z
13 1/3-x,2/3-y,2/3-z
14 1/3+y,2/3-x+y,2/3-z
15 1/3+x-y,2/3+x,2/3-z
16 2/3-x,1/3-y,1/3-z
17 2/3+y,1/3-x+y,1/3-z
18 2/3+x-y,1/3+x,1/3-z
_cell_length_a                   17.5203(6)
_cell_length_b                   17.5203(6)
_cell_length_c                   27.6652(16)
_cell_angle_alpha                90
_cell_angle_beta                 90
_cell_angle_gamma                120
_cell_volume                     7354.4
loop_
_atom_site_label
_atom_site_type_symbol
_atom_site_fract_x
_atom_site_fract_y
_atom_site_fract_z
Mn1 Mn 0.3333 0.6667 0.47374(3)
O1 O 0.22528(16) 0.58326(15) 0.52044(8)
O2 O 0.19023(18) 0.44819(17) 0.49854(8)
O3 O 0.4499(2) 0.75808(18) 0.43217(9)
H1 H 0.4464 0.7386 0.4036
H2 H 0.4957 0.7633 0.4458
N1 N 0.04100(17) 0.36119(16) 0.74362(8)
C1 C 0.1888(2) 0.5024(2) 0.52737(11)
C2 C 0.13757(19) 0.46834(19) 0.57398(9)
C3 C 0.14898(19) 0.52667(19) 0.61092(10)
H3 H 0.1898 0.5878 0.6072
C4 C 0.1007(2) 0.49586(19) 0.65347(10)
H4 H 0.1090 0.5359 0.6788
C5 C 0.0406(2) 0.4070(2) 0.65904(10)
C6 C 0.0296(2) 0.3493(2) 0.62170(11)
H5 H -0.0117 0.2883 0.6252
C7 C 0.0779(2) 0.3796(2) 0.57964(11)
H6 H 0.0700 0.3394 0.5545
C8 C -0.0116(2) 0.3732(2) 0.70524(11)
H7 H -0.0296 0.4156 0.7165
H8 H -0.0657 0.3162 0.6989
C9 C 0.0663(2) 0.4119(2) 0.78339(11)
H9 H 0.0496 0.4555 0.7871
C10 C 0.1151(2) 0.40241(19) 0.81840(10)
H10 H 0.1326 0.4398 0.8459
C11 C 0.13972(19) 0.33889(15) 0.81457(9)
C12 C 0.1127(2) 0.28633(18) 0.77313(10)
H11 H 0.1280 0.2418 0.7690
C13 C 0.0637(2) 0.29892(19) 0.73814(11)
H12 H 0.0460 0.2632 0.7099
Mn1L Mn 0.0000 -0.0000 1.19293(3)
Mn1M Mn 1.0000 1.0001 1.19293(3)
Mn1N Mn -0.0001 1.0000 1.19293(3)
O1L O 0.10805(16) 0.08341(15) 1.14623(8)
O1A O 0.41674(15) 0.64202(22) 0.52044(8)
O1M O 0.91659(15) 1.02465(22) 1.14623(8)
O1B O 0.35798(22) 0.77472(16) 0.52044(8)
O1N O -0.02465(22) 0.89195(16) 1.14623(8)
O1L_2 O 0.10805(16) 1.08341(15) 1.14623(8)
O1M_2 O -0.08341(15) 1.02465(22) 1.14623(8)
O2L O 0.14310(18) 0.21848(17) 1.16813(8)
O2A O 0.55181(17) 0.74204(25) 0.49854(8)
O2M O 0.78152(17) 0.92463(25) 1.16813(8)
O2B O 0.25796(25) 0.80977(18) 0.49854(8)
O2N O 0.07537(25) 0.85690(18) 1.16813(8)
O3A O 0.24192(18) 0.69182(27) 0.43217(9)
O3B O 0.30818(27) 0.5501(2) 0.43217(9)
O3L O -0.1166(2) 0.90859(18) 1.23450(9)
O3M O 0.09141(18) 0.97485(27) 1.23450(9)
O3N O 0.02515(27) 1.1166(2) 1.23450(9)
H1A H 0.2614 0.7078 0.4036
H1B H 0.2922 0.5536 0.4036
H1L H -0.1131 0.9281 1.2631
H1M H 0.0719 0.9589 1.2631
H1N H 0.0411 1.1131 1.2631
H2A H 0.2367 0.7324 0.4458
H2B H 0.2676 0.5043 0.4458
H2L H -0.1624 0.9034 1.2209
H2M H 0.0966 0.9343 1.2209
H2N H 0.0657 1.1624 1.2209
N1L N 0.29233(17) 0.30548(16) 0.92305(8)
N1A N 0.63881(16) 0.67981(23) 0.74362(8)
N1M N 0.69452(16) 0.98686(23) 0.92305(8)
N1B N 0.32019(23) 0.95900(17) 0.74362(8)
N1N N 0.01314(23) 0.70767(17) 0.92305(8)
C1L C 0.1445(2) 0.1643(2) 1.13930(11)
C1A C 0.4976(2) 0.6864(3) 0.52737(11)
C1M C 0.8357(2) 0.9803(3) 1.13930(11)
C1B C 0.3136(3) 0.8112(2) 0.52737(11)
C1N C 0.0197(3) 0.8555(2) 1.13930(11)
C2L C 0.19576(19) 0.19833(19) 1.09269(9)
C2A C 0.53166(19) 0.66923(27) 0.57398(9)
C2M C 0.80167(19) 0.99744(27) 1.09269(9)
C2B C 0.33077(27) 0.86243(19) 0.57398(9)
C2N C 0.00256(27) 0.80424(19) 1.09269(9)
C3L C 0.18435(19) 0.14000(19) 1.05575(10)
C3A C 0.47333(19) 0.62231(27) 0.61092(10)
C3M C 0.86000(19) 1.04436(27) 1.05575(10)
C3B C 0.37769(27) 0.85102(19) 0.61092(10)
C3N C -0.04436(27) 0.81565(19) 1.05575(10)
H3L H 0.1435 0.0789 1.0595
H3A H 0.4122 0.6020 0.6072
H3M H 0.9211 1.0647 1.0595
H3B H 0.3980 0.8102 0.6072
H3N H -0.0647 0.8565 1.0595
C4L C 0.2326(2) 0.17081(19) 1.01320(10)
C4A C 0.50414(19) 0.60484(28) 0.65347(10)
C4M C 0.82919(19) 1.06183(28) 1.01320(10)
C4B C 0.39516(28) 0.8993(2) 0.65347(10)
C4N C -0.06183(28) 0.7674(2) 1.01320(10)
H4L H 0.2243 0.1308 0.9879
H4A H 0.4641 0.5731 0.6788
H4M H 0.8692 1.0936 0.9879
H4B H 0.4269 0.8910 0.6788
H4N H -0.0936 0.7757 0.9879
C5L C 0.2927(2) 0.2597(2) 1.00763(10)
C5A C 0.5930(2) 0.6336(3) 0.65904(10)
C5M C 0.7403(2) 1.0331(3) 1.00763(10)
C5B C 0.3664(3) 0.9594(2) 0.65904(10)
C5N C -0.0331(3) 0.7073(2) 1.00763(10)
C6L C 0.3037(2) 0.3174(2) 1.04497(11)
C6A C 0.6507(2) 0.6803(3) 0.62170(11)
C6M C 0.6826(2) 0.9864(3) 1.04497(11)
C6B C 0.3197(3) 0.9704(2) 0.62170(11)
C6N C 0.0136(3) 0.6963(2) 1.04497(11)
H5L H 0.3450 0.3784 1.0415
H5A H 0.7117 0.7000 0.6252
H5M H 0.6216 0.9667 1.0415
H5B H 0.3000 1.0117 0.6252
H5N H 0.0333 0.6550 1.0415
C7L C 0.2554(2) 0.2871(2) 1.08703(11)
C7A C 0.6204(2) 0.6983(3) 0.57964(11)
C7M C 0.7129(2) 0.9684(3) 1.08703(11)
C7B C 0.3017(3) 0.9221(2) 0.57964(11)
C7N C 0.0316(3) 0.7446(2) 1.08703(11)
H6L H 0.2633 0.3273 1.1122
H6A H 0.6606 0.7306 0.5545
H6M H 0.6727 0.9361 1.1122
H6B H 0.2694 0.9300 0.5545
H6N H 0.0639 0.7367 1.1122
C8L C 0.3449(2) 0.2935(2) 0.96143(11)
C8A C 0.6268(2) 0.6152(3) 0.70524(11)
C8M C 0.7065(2) 1.0515(3) 0.96143(11)
C8B C 0.3848(3) 1.0116(2) 0.70524(11)
C8N C -0.0515(3) 0.6551(2) 0.96143(11)
H7L H 0.3629 0.2511 0.9502
H7A H 0.5844 0.5548 0.7165
H7M H 0.7489 1.1119 0.9502
H7B H 0.4452 1.0296 0.7165
H7N H -0.1119 0.6371 0.9502
H8L H 0.3990 0.3505 0.9678
H8A H 0.6838 0.6181 0.6989
H8M H 0.6495 1.0486 0.9678
H8B H 0.3819 1.0657 0.6989
H8N H -0.0486 0.6010 0.9678
C9L C 0.2670(2) 0.2548(2) 0.88328(11)
C9A C 0.5881(2) 0.6544(3) 0.78339(11)
C9M C 0.7452(2) 1.0123(3) 0.88328(11)
C9B C 0.3456(3) 0.9337(2) 0.78339(11)
C9N C -0.0123(3) 0.7330(2) 0.88328(11)
H9L H 0.2837 0.2112 0.8796
H9A H 0.5445 0.5941 0.7871
H9M H 0.7888 1.0726 0.8796
H9B H 0.4059 0.9504 0.7871
H9N H -0.0726 0.7163 0.8796
C10L C 0.2182(2) 0.26426(19) 0.84827(10)
C10A C 0.59759(19) 0.71269(28) 0.81840(10)
C10M C 0.73574(19) 0.95398(28) 0.84827(10)
C10B C 0.28731(28) 0.8849(2) 0.81840(10)
C10N C 0.04602(28) 0.7818(2) 0.84827(10)
H10L H 0.2007 0.2269 0.8208
H10A H 0.5602 0.6928 0.8459
H10M H 0.7731 0.9739 0.8208
H10B H 0.3072 0.8674 0.8459
H10N H 0.0261 0.7993 0.8208
C11L C 0.19361(19) 0.32778(15) 0.85210(9)
C11A C 0.66111(15) 0.80083(24) 0.81457(9)
C11M C 0.67222(15) 0.86584(24) 0.85210(9)
C11B C 0.19917(24) 0.86028(19) 0.81457(9)
C11N C 0.13416(24) 0.80639(19) 0.85210(9)
C12L C 0.2206(2) 0.38034(18) 0.89354(10)
C12A C 0.71367(18) 0.82637(27) 0.77313(10)
C12M C 0.61966(18) 0.84030(27) 0.89354(10)
C12B C 0.17363(27) 0.8873(2) 0.77313(10)
C12N C 0.15970(27) 0.7794(2) 0.89354(10)
H11L H 0.2053 0.4249 0.8977
H11A H 0.7582 0.8862 0.7690
H11M H 0.5751 0.7805 0.8977
H11B H 0.1138 0.8720 0.7690
H11N H 0.2195 0.7947 0.8977
C13L C 0.2696(2) 0.36775(19) 0.92853(11)
C13A C 0.70108(19) 0.76478(28) 0.73814(11)
C13M C 0.63225(19) 0.90189(28) 0.92853(11)
C13B C 0.23522(28) 0.9363(2) 0.73814(11)
C13N C 0.09811(28) 0.7304(2) 0.92853(11)
H12L H 0.2873 0.4035 0.9568
H12A H 0.7368 0.7828 0.7099
H12M H 0.5965 0.8839 0.9568
H12B H 0.2172 0.9540 0.7099
H12N H 0.1161 0.7127 0.9568
loop_
_geom_bond_atom_site_label_1
_geom_bond_atom_site_label_2
_geom_bond_site_symmetry_1
_geom_bond_site_symmetry_2
Mn1 O1 1_555 1_555
O1 C1 1_555 1_555
O2 C1 1_555 1_555
O3 Mn1 1_555 1_555
H1 O3 1_555 1_555
H2 O3 1_555 1_555
N1 C8 1_555 1_555
C1 C2 1_555 1_555
C2 C3 1_555 1_555
C3 H3 1_555 1_555
C4 C3 1_555 1_555
H4 C4 1_555 1_555
C5 C4 1_555 1_555
C6 C5 1_555 1_555
H5 C6 1_555 1_555
C7 C2 1_555 1_555
H6 C7 1_555 1_555
C8 C5 1_555 1_555
H7 C8 1_555 1_555
H8 C8 1_555 1_555
C9 N1 1_555 1_555
H9 C9 1_555 1_555
C10 C9 1_555 1_555
H10 C10 1_555 1_555
C11 C10 1_555 1_555
C12 C11 1_555 1_555
H11 C12 1_555 1_555
C13 N1 1_555 1_555
H12 C13 1_555 1_555
Mn1L O1L 1_555 1_555
Mn1M O1M 1_555 1_555
Mn1N O1N 1_555 1_555
O1L C1L 1_555 1_555
O1A Mn1 1_555 1_555
O1M C1M 1_555 1_555
O1B Mn1 1_555 1_555
O1N C1N 1_555 1_555
O1L_2 Mn1N 1_555 1_555
O1M_2 Mn1N 1_555 1_555
O2L C1L 1_555 1_555
O2A C1A 1_555 1_555
O2M C1M 1_555 1_555
O2B C1B 1_555 1_555
O2N C1N 1_555 1_555
O3A Mn1 1_555 1_555
O3B Mn1 1_555 1_555
O3L Mn1N 1_555 1_555
O3M Mn1N 1_555 1_555
O3N Mn1N 1_555 1_555
H1A O3A 1_555 1_555
H1B O3B 1_555 1_555
H1L O3L 1_555 1_555
H1M O3M 1_555 1_555
H1N O3N 1_555 1_555
H2A O3A 1_555 1_555
H2B O3B 1_555 1_555
H2L O3L 1_555 1_555
H2M O3M 1_555 1_555
H2N O3N 1_555 1_555
N1L C8L 1_555 1_555
N1A C8A 1_555 1_555
N1M C8M 1_555 1_555
N1B C8B 1_555 1_555
N1N C8N 1_555 1_555
C1L C2L 1_555 1_555
C1A O1A 1_555 1_555
C1M C2M 1_555 1_555
C1B O1B 1_555 1_555
C1N C2N 1_555 1_555
C2L C3L 1_555 1_555
C2A C1A 1_555 1_555
C2M C3M 1_555 1_555
C2B C1B 1_555 1_555
C2N C3N 1_555 1_555
C3L H3L 1_555 1_555
C3A C2A 1_555 1_555
C3M H3M 1_555 1_555
C3B C2B 1_555 1_555
C3N H3N 1_555 1_555
H3A C3A 1_555 1_555
H3B C3B 1_555 1_555
C4L C3L 1_555 1_555
C4A C3A 1_555 1_555
C4M C3M 1_555 1_555
C4B C3B 1_555 1_555
C4N C3N 1_555 1_555
H4L C4L 1_555 1_555
H4A C4A 1_555 1_555
H4M C4M 1_555 1_555
H4B C4B 1_555 1_555
H4N C4N 1_555 1_555
C5L C4L 1_555 1_555
C5A C4A 1_555 1_555
C5M C4M 1_555 1_555
C5B C4B 1_555 1_555
C5N C4N 1_555 1_555
C6L C5L 1_555 1_555
C6A C5A 1_555 1_555
C6M C5M 1_555 1_555
C6B C5B 1_555 1_555
C6N C5N 1_555 1_555
H5L C6L 1_555 1_555
H5A C6A 1_555 1_555
H5M C6M 1_555 1_555
H5B C6B 1_555 1_555
H5N C6N 1_555 1_555
C7L C2L 1_555 1_555
C7A C2A 1_555 1_555
C7M C2M 1_555 1_555
C7B C2B 1_555 1_555
C7N C2N 1_555 1_555
H6L C7L 1_555 1_555
H6A C7A 1_555 1_555
H6M C7M 1_555 1_555
H6B C7B 1_555 1_555
H6N C7N 1_555 1_555
C8L C5L 1_555 1_555
C8A C5A 1_555 1_555
C8M C5M 1_555 1_555
C8B C5B 1_555 1_555
C8N C5N 1_555 1_555
H7L C8L 1_555 1_555
H7A C8A 1_555 1_555
H7M C8M 1_555 1_555
H7B C8B 1_555 1_555
H7N C8N 1_555 1_555
H8L C8L 1_555 1_555
H8A C8A 1_555 1_555
H8M C8M 1_555 1_555
H8B C8B 1_555 1_555
H8N C8N 1_555 1_555
C9L N1L 1_555 1_555
C9A N1A 1_555 1_555
C9M N1M 1_555 1_555
C9B N1B 1_555 1_555
C9N N1N 1_555 1_555
H9L C9L 1_555 1_555
H9A C9A 1_555 1_555
H9M C9M 1_555 1_555
H9B C9B 1_555 1_555
H9N C9N 1_555 1_555
C10L C9L 1_555 1_555
C10A C9A 1_555 1_555
C10M C9M 1_555 1_555
C10B C9B 1_555 1_555
C10N C9N 1_555 1_555
H10L C10L 1_555 1_555
H10A C10A 1_555 1_555
H10M C10M 1_555 1_555
H10B C10B 1_555 1_555
H10N C10N 1_555 1_555
C11L C11 1_555 1_555
C11A C10A 1_555 1_555
C11M C10M 1_555 1_555
C11B C10B 1_555 1_555
C11N C10N 1_555 1_555
C12L C11L 1_555 1_555
C12A C11A 1_555 1_555
C12M C11M 1_555 1_555
C12B C11B 1_555 1_555
C12N C11N 1_555 1_555
H11L C12L 1_555 1_555
H11A C12A 1_555 1_555
H11M C12M 1_555 1_555
H11B C12B 1_555 1_555
H11N C12N 1_555 1_555
C13L N1L 1_555 1_555
C13A N1A 1_555 1_555
C13M N1M 1_555 1_555
C13B N1B 1_555 1_555
C13N N1N 1_555 1_555
H12L C13L 1_555 1_555
H12A C13A 1_555 1_555
H12M C13M 1_555 1_555
H12B C13B 1_555 1_555
H12N C13N 1_555 1_555
C6 C7 1_555 1_555
C12 C13 1_555 1_555
C6L C7L 1_555 1_555
C6A C7A 1_555 1_555
C6M C7M 1_555 1_555
C6B C7B 1_555 1_555
C6N C7N 1_555 1_555
C10L C11L 1_555 1_555
C11A C11M 1_555 1_555
C11B C11N 1_555 1_555
C12L C13L 1_555 1_555
C12A C13A 1_555 1_555
C12M C13M 1_555 1_555
C12B C13B 1_555 1_555
C12N C13N 1_555 1_555

#END
