
#######################################################################
#
#                 Cambridge Crystallographic Data Centre
#                                CCDC 
#
#######################################################################
#
# If this CIF has been generated from an entry in the Cambridge 
# Structural Database, then it will include bibliographic, chemical, 
# crystal, experimental, refinement or atomic coordinate data resulting 
# from the CCDC's data processing and validation procedures.
#
#######################################################################

data_YANXAO01
_symmetry_cell_setting           rhombohedral
_symmetry_space_group_name_H-M   'R -3'
_symmetry_Int_Tables_number      148
_space_group_name_Hall           '-R 3'
loop_
_symmetry_equiv_pos_site_id
_symmetry_equiv_pos_as_xyz
1 x,y,z
2 -y,x-y,z
3 -x+y,-x,z
4 2/3+x,1/3+y,1/3+z
5 2/3-y,1/3+x-y,1/3+z
6 2/3-x+y,1/3-x,1/3+z
7 1/3+x,2/3+y,2/3+z
8 1/3-y,2/3+x-y,2/3+z
9 1/3-x+y,2/3-x,2/3+z
10 -x,-y,-z
11 y,-x+y,-z
12 x-y,x,-z
13 1/3-x,2/3-y,2/3-z
14 1/3+y,2/3-x+y,2/3-z
15 1/3+x-y,2/3+x,2/3-z
16 2/3-x,1/3-y,1/3-z
17 2/3+y,1/3-x+y,1/3-z
18 2/3+x-y,1/3+x,1/3-z
_cell_length_a                   17.5203(6)
_cell_length_b                   17.5203(6)
_cell_length_c                   27.6652(16)
_cell_angle_alpha                90
_cell_angle_beta                 90
_cell_angle_gamma                120
_cell_volume                     7354.4
loop_
_atom_site_label
_atom_site_type_symbol
_atom_site_fract_x
_atom_site_fract_y
_atom_site_fract_z
Mn1 Mn 0.3333 0.6667 0.47386(5)
O1 O 0.2256(3) 0.5833(3) 0.52044(14)
O2 O 0.1896(3) 0.4467(3) 0.49855(14)
O3 O 0.4494(4) 0.7565(3) 0.43207(15)
H1 H 0.4459 0.7371 0.4035
H2 H 0.4953 0.7617 0.4457
N1 N 0.0413(3) 0.3605(3) 0.74398(15)
C1 C 0.1887(4) 0.5028(5) 0.52768(19)
C2 C 0.1374(4) 0.4678(4) 0.57387(18)
C3 C 0.1491(4) 0.5263(4) 0.61095(18)
H3 H 0.1899 0.5874 0.6071
C4 C 0.1015(4) 0.4959(4) 0.65351(18)
H4 H 0.1110 0.5361 0.6789
C5 C 0.0399(4) 0.4068(4) 0.65941(19)
C6 C 0.0282(4) 0.3481(4) 0.6218(2)
H5 H -0.0135 0.2871 0.6251
C7 C 0.0782(4) 0.3794(4) 0.57927(19)
H6 H 0.0712 0.3394 0.5542
C8 C -0.0120(4) 0.3734(5) 0.7051(2)
H7 H -0.0663 0.3166 0.6987
H8 H -0.0296 0.4159 0.7166
C9 C 0.0652(4) 0.4114(4) 0.78304(19)
H9 H 0.0482 0.4548 0.7864
C10 C 0.1144(4) 0.4017(4) 0.81853(19)
H10 H 0.1315 0.4386 0.8463
C11 C 0.1391(4) 0.3389(3) 0.81416(17)
C12 C 0.1124(4) 0.2860(4) 0.77283(18)
H11 H 0.1273 0.2412 0.7688
C13 C 0.0646(4) 0.2995(4) 0.73841(19)
H12 H 0.0477 0.2647 0.7099
Mn1L Mn 0.0000 -0.0000 1.19281(5)
Mn1N Mn -0.0001 1.0000 1.19281(5)
Mn1M Mn 1.0000 1.0001 1.19281(5)
O1A O 0.4167(3) 0.6423(4) 0.52044(14)
O1B O 0.3577(4) 0.7744(3) 0.52044(14)
O1L O 0.1077(3) 0.0834(3) 1.14623(14)
O1N O -0.0244(4) 0.8923(3) 1.14623(14)
O1M O 0.9166(3) 1.0244(4) 1.14623(14)
O1L_2 O 0.1077(3) 1.0834(3) 1.14623(14)
O1M_2 O -0.0834(3) 1.0244(4) 1.14623(14)
O2B O 0.2571(4) 0.8104(3) 0.49855(14)
O2A O 0.5533(3) 0.7429(4) 0.49855(14)
O2L O 0.1437(3) 0.2200(3) 1.16812(14)
O2N O 0.0762(4) 0.8563(3) 1.16812(14)
O2M O 0.7800(3) 0.9238(4) 1.16812(14)
O3A O 0.2435(3) 0.6929(5) 0.43207(15)
O3B O 0.3071(5) 0.5506(4) 0.43207(15)
O3L O -0.1161(4) 0.9102(3) 1.23460(15)
O3M O 0.0898(3) 0.9738(5) 1.23460(15)
O3N O 0.0262(5) 1.1161(4) 1.23460(15)
H1B H 0.2912 0.5541 0.4035
H1A H 0.2629 0.7088 0.4035
H1L H -0.1126 0.9296 1.2632
H1M H 0.0704 0.9579 1.2632
H1N H 0.0421 1.1126 1.2632
H2B H 0.2664 0.5047 0.4457
H2A H 0.2383 0.7336 0.4457
H2L H -0.1620 0.9050 1.2210
H2M H 0.0950 0.9331 1.2210
H2N H 0.0669 1.1620 1.2210
N1L N 0.2920(3) 0.3062(3) 0.92269(15)
N1B N 0.3192(4) 0.9587(3) 0.74398(15)
N1A N 0.6395(3) 0.6808(4) 0.74398(15)
N1N N 0.0141(4) 0.7080(3) 0.92269(15)
N1M N 0.6938(3) 0.9859(4) 0.92269(15)
C1B C 0.3141(6) 0.8113(4) 0.52768(19)
C1A C 0.4972(5) 0.6859(6) 0.52768(19)
C1L C 0.1446(4) 0.1639(5) 1.13899(19)
C1N C 0.0192(6) 0.8554(4) 1.13899(19)
C1M C 0.8361(5) 0.9808(6) 1.13899(19)
C2B C 0.3304(6) 0.8626(4) 0.57387(18)
C2A C 0.5322(4) 0.6696(6) 0.57387(18)
C2L C 0.1959(4) 0.1989(4) 1.09280(18)
C2N C 0.0029(6) 0.8041(4) 1.09280(18)
C2M C 0.8011(4) 0.9971(6) 1.09280(18)
C3B C 0.3772(6) 0.8509(4) 0.61095(18)
C3A C 0.4737(4) 0.6228(6) 0.61095(18)
C3L C 0.1842(4) 0.1404(4) 1.05572(18)
C3N C -0.0439(6) 0.8158(4) 1.05572(18)
C3M C 0.8596(4) 1.0439(6) 1.05572(18)
H3B H 0.3975 0.8101 0.6071
H3A H 0.4126 0.6025 0.6071
H3L H 0.1434 0.0793 1.0596
H3N H -0.0642 0.8566 1.0596
H3M H 0.9207 1.0642 1.0596
C4B C 0.3944(6) 0.8985(4) 0.65351(18)
C4A C 0.5041(4) 0.6056(6) 0.65351(18)
C4L C 0.2318(4) 0.1708(4) 1.01316(18)
C4N C -0.0611(6) 0.7682(4) 1.01316(18)
C4M C 0.8292(4) 1.0611(6) 1.01316(18)
H4B H 0.4251 0.8890 0.6789
H4A H 0.4639 0.5749 0.6789
H4L H 0.2223 0.1306 0.9878
H4N H -0.0918 0.7777 0.9878
H4M H 0.8694 1.0918 0.9878
C5B C 0.3669(6) 0.9601(4) 0.65941(19)
C5A C 0.5932(4) 0.6331(6) 0.65941(19)
C5L C 0.2934(4) 0.2599(4) 1.00726(19)
C5N C -0.0336(6) 0.7066(4) 1.00726(19)
C5M C 0.7401(4) 1.0336(6) 1.00726(19)
C6B C 0.3199(6) 0.9718(4) 0.6218(2)
C6A C 0.6519(4) 0.6801(6) 0.6218(2)
C6L C 0.3051(4) 0.3186(4) 1.0449(2)
C6N C 0.0134(6) 0.6949(4) 1.0449(2)
C6M C 0.6814(4) 0.9866(6) 1.0449(2)
H5B H 0.3006 1.0135 0.6251
H5A H 0.7129 0.6994 0.6251
H5L H 0.3468 0.3796 1.0416
H5N H 0.0327 0.6532 1.0416
H5M H 0.6204 0.9673 1.0416
C7B C 0.3012(6) 0.9218(4) 0.57927(19)
C7A C 0.6206(4) 0.6988(6) 0.57927(19)
C7L C 0.2551(4) 0.2873(4) 1.08740(19)
C7N C 0.0321(6) 0.7449(4) 1.08740(19)
C7M C 0.7127(4) 0.9679(6) 1.08740(19)
H6B H 0.2682 0.9288 0.5542
H6A H 0.6606 0.7318 0.5542
H6L H 0.2621 0.3273 1.1125
H6N H 0.0651 0.7379 1.1125
H6M H 0.6727 0.9349 1.1125
C8L C 0.3453(4) 0.2933(5) 0.9616(2)
C8B C 0.3854(6) 1.0120(4) 0.7051(2)
C8A C 0.6266(5) 0.6146(6) 0.7051(2)
C8N C -0.0521(6) 0.6547(4) 0.9616(2)
C8M C 0.7067(5) 1.0521(6) 0.9616(2)
H7L H 0.3996 0.3501 0.9680
H7B H 0.3829 1.0663 0.6987
H7A H 0.6834 0.6171 0.6987
H7N H -0.0496 0.6004 0.9680
H7M H 0.6499 1.0496 0.9680
H8L H 0.3629 0.2508 0.9501
H8B H 0.4455 1.0296 0.7166
H8A H 0.5841 0.5545 0.7166
H8N H -0.1122 0.6371 0.9501
H8M H 0.7492 1.1122 0.9501
C9L C 0.2681(4) 0.2553(4) 0.88363(19)
C9B C 0.3462(6) 0.9348(4) 0.78304(19)
C9A C 0.5886(4) 0.6538(6) 0.78304(19)
C9N C -0.0129(6) 0.7319(4) 0.88363(19)
C9M C 0.7447(4) 1.0129(6) 0.88363(19)
H9L H 0.2851 0.2119 0.8803
H9B H 0.4066 0.9518 0.7864
H9A H 0.5452 0.5934 0.7864
H9N H -0.0733 0.7149 0.8803
H9M H 0.7881 1.0733 0.8803
C10L C 0.2189(4) 0.2650(4) 0.84814(19)
C10B C 0.2873(6) 0.8856(4) 0.81853(19)
C10A C 0.5983(4) 0.7127(6) 0.81853(19)
C10N C 0.0460(6) 0.7811(4) 0.84814(19)
C10M C 0.7350(4) 0.9540(6) 0.84814(19)
H10L H 0.2018 0.2281 0.8204
H10B H 0.3071 0.8685 0.8463
H10A H 0.5614 0.6929 0.8463
H10N H 0.0262 0.7982 0.8204
H10M H 0.7719 0.9738 0.8204
C11L C 0.1942(4) 0.3278(3) 0.85251(17)
C11B C 0.1998(5) 0.8609(4) 0.81416(17)
C11A C 0.6611(3) 0.8002(5) 0.81416(17)
C11N C 0.1335(5) 0.8058(4) 0.85251(17)
C11M C 0.6722(3) 0.8665(5) 0.85251(17)
C12L C 0.2209(4) 0.3807(4) 0.89384(18)
C12B C 0.1736(6) 0.8876(4) 0.77283(18)
C12A C 0.7140(4) 0.8264(6) 0.77283(18)
C12N C 0.1597(6) 0.7791(4) 0.89384(18)
C12M C 0.6193(4) 0.8403(6) 0.89384(18)
H11L H 0.2060 0.4255 0.8979
H11B H 0.1139 0.8727 0.7688
H11A H 0.7588 0.8861 0.7688
H11N H 0.2194 0.7940 0.8979
H11M H 0.5745 0.7806 0.8979
C13L C 0.2687(4) 0.3672(4) 0.92826(19)
C13B C 0.2349(6) 0.9354(4) 0.73841(19)
C13A C 0.7005(4) 0.7651(6) 0.73841(19)
C13N C 0.0984(6) 0.7313(4) 0.92826(19)
C13M C 0.6328(4) 0.9016(6) 0.92826(19)
H12L H 0.2856 0.4020 0.9568
H12B H 0.2170 0.9523 0.7099
H12A H 0.7353 0.7830 0.7099
H12N H 0.1163 0.7144 0.9568
H12M H 0.5980 0.8837 0.9568
S1 S -0.0512(8) 0.1068(6) 0.6471(4)
O4 O 0.0431(8) 0.1712(9) 0.6507(6)
O5 O -0.0725(15) 0.0902(14) 0.5954(5)
O6 O -0.1029(11) 0.1418(13) 0.6678(8)
O7 O -0.0700(13) 0.0271(8) 0.6705(6)
O12 O -0.1312(8) 0.4053(11) 0.7883(4)
O13 O 0.0000 0.0000 0.5407(8)
O14 O -0.1798(18) 0.0981(18) 0.5345(6)
S2? S 0.0552(7) 0.1226(10) 0.6478(3)
O8? O -0.0281(11) 0.0733(15) 0.6731(9)
O9? O 0.0822(15) 0.2140(11) 0.6468(10)
O10? O 0.1220(14) 0.1084(19) 0.6704(11)
O11? O 0.042(2) 0.089(2) 0.5980(6)
O15? O -0.173(2) 0.138(2) 0.5619(10)
loop_
_geom_bond_atom_site_label_1
_geom_bond_atom_site_label_2
_geom_bond_site_symmetry_1
_geom_bond_site_symmetry_2
Mn1 O1 1_555 1_555
O1 C1 1_555 1_555
O2 C1 1_555 1_555
O3 Mn1 1_555 1_555
H1 O3 1_555 1_555
H2 O3 1_555 1_555
N1 C8 1_555 1_555
C1 C2 1_555 1_555
C2 C3 1_555 1_555
C3 H3 1_555 1_555
C4 C3 1_555 1_555
H4 C4 1_555 1_555
C5 C4 1_555 1_555
C6 C5 1_555 1_555
H5 C6 1_555 1_555
C7 C2 1_555 1_555
H6 C7 1_555 1_555
C8 C5 1_555 1_555
H7 C8 1_555 1_555
H8 C8 1_555 1_555
C9 N1 1_555 1_555
H9 C9 1_555 1_555
C10 C9 1_555 1_555
H10 C10 1_555 1_555
C11 C10 1_555 1_555
C12 C11 1_555 1_555
H11 C12 1_555 1_555
C13 N1 1_555 1_555
H12 C13 1_555 1_555
S1 O4 1_555 1_555
O5 S1 1_555 1_555
O6 S1 1_555 1_555
O7 S1 1_555 1_555
Mn1L O1L 1_555 1_555
Mn1N O1N 1_555 1_555
Mn1M O1M 1_555 1_555
O1A Mn1 1_555 1_555
O1B Mn1 1_555 1_555
O1L C1L 1_555 1_555
O1N C1N 1_555 1_555
O1M C1M 1_555 1_555
O1L_2 Mn1N 1_555 1_555
O1M_2 Mn1N 1_555 1_555
O2B C1B 1_555 1_555
O2A C1A 1_555 1_555
O2L C1L 1_555 1_555
O2N C1N 1_555 1_555
O2M C1M 1_555 1_555
O3A Mn1 1_555 1_555
O3B Mn1 1_555 1_555
O3L Mn1N 1_555 1_555
O3M Mn1N 1_555 1_555
O3N Mn1N 1_555 1_555
H1B O3B 1_555 1_555
H1A O3A 1_555 1_555
H1L O3L 1_555 1_555
H1M O3M 1_555 1_555
H1N O3N 1_555 1_555
H2B O3B 1_555 1_555
H2A O3A 1_555 1_555
H2L O3L 1_555 1_555
H2M O3M 1_555 1_555
H2N O3N 1_555 1_555
N1L C8L 1_555 1_555
N1B C8B 1_555 1_555
N1A C8A 1_555 1_555
N1N C8N 1_555 1_555
N1M C8M 1_555 1_555
C1B O1B 1_555 1_555
C1A O1A 1_555 1_555
C1L C2L 1_555 1_555
C1N C2N 1_555 1_555
C1M C2M 1_555 1_555
C2B C1B 1_555 1_555
C2A C1A 1_555 1_555
C2L C3L 1_555 1_555
C2N C3N 1_555 1_555
C2M C3M 1_555 1_555
C3B C2B 1_555 1_555
C3A C2A 1_555 1_555
C3L H3L 1_555 1_555
C3N H3N 1_555 1_555
C3M H3M 1_555 1_555
H3B C3B 1_555 1_555
H3A C3A 1_555 1_555
C4B C3B 1_555 1_555
C4A C3A 1_555 1_555
C4L C3L 1_555 1_555
C4N C3N 1_555 1_555
C4M C3M 1_555 1_555
H4B C4B 1_555 1_555
H4A C4A 1_555 1_555
H4L C4L 1_555 1_555
H4N C4N 1_555 1_555
H4M C4M 1_555 1_555
C5B C4B 1_555 1_555
C5A C4A 1_555 1_555
C5L C4L 1_555 1_555
C5N C4N 1_555 1_555
C5M C4M 1_555 1_555
C6B C5B 1_555 1_555
C6A C5A 1_555 1_555
C6L C5L 1_555 1_555
C6N C5N 1_555 1_555
C6M C5M 1_555 1_555
H5B C6B 1_555 1_555
H5A C6A 1_555 1_555
H5L C6L 1_555 1_555
H5N C6N 1_555 1_555
H5M C6M 1_555 1_555
C7B C2B 1_555 1_555
C7A C2A 1_555 1_555
C7L C2L 1_555 1_555
C7N C2N 1_555 1_555
C7M C2M 1_555 1_555
H6B C7B 1_555 1_555
H6A C7A 1_555 1_555
H6L C7L 1_555 1_555
H6N C7N 1_555 1_555
H6M C7M 1_555 1_555
C8L C5L 1_555 1_555
C8B C5B 1_555 1_555
C8A C5A 1_555 1_555
C8N C5N 1_555 1_555
C8M C5M 1_555 1_555
H7L C8L 1_555 1_555
H7B C8B 1_555 1_555
H7A C8A 1_555 1_555
H7N C8N 1_555 1_555
H7M C8M 1_555 1_555
H8L C8L 1_555 1_555
H8B C8B 1_555 1_555
H8A C8A 1_555 1_555
H8N C8N 1_555 1_555
H8M C8M 1_555 1_555
C9L N1L 1_555 1_555
C9B N1B 1_555 1_555
C9A N1A 1_555 1_555
C9N N1N 1_555 1_555
C9M N1M 1_555 1_555
H9L C9L 1_555 1_555
H9B C9B 1_555 1_555
H9A C9A 1_555 1_555
H9N C9N 1_555 1_555
H9M C9M 1_555 1_555
C10L C9L 1_555 1_555
C10B C9B 1_555 1_555
C10A C9A 1_555 1_555
C10N C9N 1_555 1_555
C10M C9M 1_555 1_555
H10L C10L 1_555 1_555
H10B C10B 1_555 1_555
H10A C10A 1_555 1_555
H10N C10N 1_555 1_555
H10M C10M 1_555 1_555
C11L C11 1_555 1_555
C11B C10B 1_555 1_555
C11A C10A 1_555 1_555
C11N C10N 1_555 1_555
C11M C10M 1_555 1_555
C12L C11L 1_555 1_555
C12B C11B 1_555 1_555
C12A C11A 1_555 1_555
C12N C11N 1_555 1_555
C12M C11M 1_555 1_555
H11L C12L 1_555 1_555
H11B C12B 1_555 1_555
H11A C12A 1_555 1_555
H11N C12N 1_555 1_555
H11M C12M 1_555 1_555
C13L N1L 1_555 1_555
C13B N1B 1_555 1_555
C13A N1A 1_555 1_555
C13N N1N 1_555 1_555
C13M N1M 1_555 1_555
H12L C13L 1_555 1_555
H12B C13B 1_555 1_555
H12A C13A 1_555 1_555
H12N C13N 1_555 1_555
H12M C13M 1_555 1_555
C6 C7 1_555 1_555
C12 C13 1_555 1_555
C6B C7B 1_555 1_555
C6A C7A 1_555 1_555
C6L C7L 1_555 1_555
C6N C7N 1_555 1_555
C6M C7M 1_555 1_555
C10L C11L 1_555 1_555
C11B C11N 1_555 1_555
C11A C11M 1_555 1_555
C12L C13L 1_555 1_555
C12B C13B 1_555 1_555
C12A C13A 1_555 1_555
C12N C13N 1_555 1_555
C12M C13M 1_555 1_555

#END
