
#######################################################################
#
#                 Cambridge Crystallographic Data Centre
#                                CCDC 
#
#######################################################################
#
# If this CIF has been generated from an entry in the Cambridge 
# Structural Database, then it will include bibliographic, chemical, 
# crystal, experimental, refinement or atomic coordinate data resulting 
# from the CCDC's data processing and validation procedures.
#
#######################################################################

data_YAPGIG
_symmetry_cell_setting           monoclinic
_symmetry_space_group_name_H-M   'P 21/n'
_symmetry_Int_Tables_number      14
_space_group_name_Hall           '-P 2yn'
loop_
_symmetry_equiv_pos_site_id
_symmetry_equiv_pos_as_xyz
1 x,y,z
2 1/2-x,1/2+y,1/2-z
3 -x,-y,-z
4 1/2+x,1/2-y,1/2+z
_cell_length_a                   14.8347(2)
_cell_length_b                   16.9419(3)
_cell_length_c                   15.9241(2)
_cell_angle_alpha                90
_cell_angle_beta                 95.675(1)
_cell_angle_gamma                90
_cell_volume                     3982.56
loop_
_atom_site_label
_atom_site_type_symbol
_atom_site_fract_x
_atom_site_fract_y
_atom_site_fract_z
I1 I -0.23084(6) 0.45743(6) 0.18236(5)
I2 I -0.27017(4) 0.31613(4) 0.28876(4)
I3 I -0.31023(9) 0.18450(6) 0.38493(7)
I4 I -0.06648(5) 0.48902(4) 0.05443(5)
I5 I -0.42034(5) 0.48980(5) 0.05197(5)
I4B I 0.06648(5) 0.51098(4) -0.05443(5)
I5B I -0.57966(5) 0.51020(5) -0.05197(5)
Rb1 Rb 0.22902(5) 0.40462(5) 0.36683(5)
C1 C 0.1067(7) 0.3608(6) 0.5414(6)
O1 O 0.1741(4) 0.4197(4) 0.5431(4)
C2 C 0.2516(8) 0.4067(8) 0.6030(7)
H1 H 0.2830(8) 0.3587(8) 0.5903(7)
H2 H 0.2340(8) 0.4034(8) 0.6600(7)
C3 C 0.3089(10) 0.4771(7) 0.5929(7)
H3 H 0.2737(10) 0.5248(7) 0.5980(7)
H4 H 0.3593(10) 0.4777(7) 0.6365(7)
O2 O 0.3425(5) 0.4741(5) 0.5099(5)
C4 C 0.3741(11) 0.5459(11) 0.4837(12)
H5 H 0.4112(11) 0.5356(11) 0.4381(12)
H6 H 0.4137(11) 0.5676(11) 0.5301(12)
C5 C 0.3096(18) 0.6061(10) 0.4555(14)
H7 H 0.3400(18) 0.6547(10) 0.4429(14)
H8 H 0.2685(18) 0.6166(10) 0.4979(14)
O3 O 0.2595(7) 0.5715(5) 0.3768(6)
C6 C 0.1946(15) 0.6246(9) 0.3457(10)
H9 H 0.2228(15) 0.6736(9) 0.3305(10)
H10 H 0.1536(15) 0.6361(9) 0.3879(10)
C7 C 0.1413(10) 0.5863(6) 0.2656(9)
H11 H 0.0960(10) 0.6234(6) 0.2417(9)
H12 H 0.1831(10) 0.5766(6) 0.2237(9)
O4 O 0.0980(5) 0.5145(4) 0.2835(4)
C8 C 0.0153(8) 0.5302(7) 0.3195(7)
H13 H -0.0298(8) 0.5511(7) 0.2771(7)
H14 H 0.0253(8) 0.5683(7) 0.3649(7)
C9 C -0.0159(7) 0.4517(6) 0.3529(6)
H15 H -0.0775(7) 0.4550(6) 0.3681(6)
H16 H -0.0121(7) 0.4098(6) 0.3119(6)
O5 O 0.0469(4) 0.4401(3) 0.4250(3)
C10 C 0.0393(6) 0.3698(5) 0.4740(5)
C11 C -0.0299(7) 0.3144(9) 0.4635(7)
H17 H -0.0767(7) 0.3187(9) 0.4203(7)
C12 C -0.0259(12) 0.2547(7) 0.5181(11)
H18 H -0.0730(12) 0.2183(7) 0.5117(11)
C13 C 0.0370(14) 0.2418(9) 0.5798(10)
H19 H 0.0343(14) 0.1980(9) 0.6147(10)
C14 C 0.1046(9) 0.2923(7) 0.5913(7)
H20 H 0.1517(9) 0.2826(7) 0.6330(7)
C15 C 0.1139(7) 0.2188(5) 0.2940(6)
O6 O 0.2004(5) 0.2204(4) 0.3327(4)
C16 C 0.2187(8) 0.1854(5) 0.4135(6)
H21 H 0.2059(8) 0.1293(5) 0.4100(6)
H22 H 0.1801(8) 0.2088(5) 0.4525(6)
C17 C 0.3121(9) 0.1976(6) 0.4437(6)
H23 H 0.3258(9) 0.1691(6) 0.4962(6)
H24 H 0.3501(9) 0.1765(6) 0.4029(6)
O7 O 0.3321(4) 0.2772(4) 0.4568(4)
C18 C 0.4296(7) 0.3025(7) 0.4566(6)
H25 H 0.4372(7) 0.3543(7) 0.4822(6)
H26 H 0.4680(7) 0.2659(7) 0.4906(6)
C19 C 0.4590(7) 0.3054(7) 0.3712(7)
H27 H 0.5245(7) 0.3062(7) 0.3731(7)
H28 H 0.4360(7) 0.2605(7) 0.3379(7)
O8 O 0.4198(4) 0.3795(5) 0.3362(5)
C20 C 0.4390(8) 0.3964(9) 0.2510(9)
H29 H 0.4264(8) 0.3501(9) 0.2159(9)
H30 H 0.5025(8) 0.4097(9) 0.2504(9)
C21 C 0.3819(10) 0.4633(8) 0.2173(10)
H31 H 0.3879(10) 0.5067(8) 0.2573(10)
H32 H 0.4032(10) 0.4814(8) 0.1650(10)
O9 O 0.2936(5) 0.4427(4) 0.2031(4)
C22 C 0.2676(6) 0.3972(8) 0.1294(7)
H33 H 0.3089(6) 0.3532(8) 0.1256(7)
H34 H 0.2688(6) 0.4295(8) 0.0792(7)
C23 C 0.1717(6) 0.3671(5) 0.1372(7)
H35 H 0.1323(6) 0.4099(5) 0.1511(7)
H36 H 0.1465(6) 0.3427(5) 0.0850(7)
O10 O 0.1825(5) 0.3112(4) 0.2032(4)
C24 C 0.1081(6) 0.2687(4) 0.2221(5)
C25 C 0.0197(9) 0.2729(7) 0.1752(7)
H37 H 0.0088(9) 0.3061(7) 0.1288(7)
C26 C -0.0474(9) 0.2264(9) 0.2017(9)
H38 H -0.1038(9) 0.2255(9) 0.1704(9)
C27 C -0.0334(11) 0.1802(9) 0.2743(9)
H39 H -0.0818(11) 0.1514(9) 0.2914(9)
C28 C 0.0452(9) 0.1758(7) 0.3196(8)
H40 H 0.0533(9) 0.1442(7) 0.3675(8)
loop_
_geom_bond_atom_site_label_1
_geom_bond_atom_site_label_2
_geom_bond_site_symmetry_1
_geom_bond_site_symmetry_2
I1 I2 1_555 1_555
I2 I3 1_555 1_555
I4 I1 1_555 1_555
I5 I1 1_555 1_555
Rb1 O1 1_555 1_555
C1 O1 1_555 1_555
O1 C2 1_555 1_555
C2 H1 1_555 1_555
H2 C2 1_555 1_555
C3 C2 1_555 1_555
H3 C3 1_555 1_555
H4 C3 1_555 1_555
O2 Rb1 1_555 1_555
C4 O2 1_555 1_555
H5 C4 1_555 1_555
H6 C4 1_555 1_555
C5 C4 1_555 1_555
H7 C5 1_555 1_555
H8 C5 1_555 1_555
O3 Rb1 1_555 1_555
C6 O3 1_555 1_555
H9 C6 1_555 1_555
H10 C6 1_555 1_555
C7 C6 1_555 1_555
H11 C7 1_555 1_555
H12 C7 1_555 1_555
O4 Rb1 1_555 1_555
C8 O4 1_555 1_555
H13 C8 1_555 1_555
H14 C8 1_555 1_555
C9 C8 1_555 1_555
H15 C9 1_555 1_555
H16 C9 1_555 1_555
O5 Rb1 1_555 1_555
C10 C1 1_555 1_555
C11 C10 1_555 1_555
H17 C11 1_555 1_555
C12 C11 1_555 1_555
H18 C12 1_555 1_555
C13 C12 1_555 1_555
H19 C13 1_555 1_555
C14 C1 1_555 1_555
H20 C14 1_555 1_555
C15 O6 1_555 1_555
O6 Rb1 1_555 1_555
C16 O6 1_555 1_555
H21 C16 1_555 1_555
H22 C16 1_555 1_555
C17 C16 1_555 1_555
H23 C17 1_555 1_555
H24 C17 1_555 1_555
O7 Rb1 1_555 1_555
C18 O7 1_555 1_555
H25 C18 1_555 1_555
H26 C18 1_555 1_555
C19 C18 1_555 1_555
H27 C19 1_555 1_555
H28 C19 1_555 1_555
O8 Rb1 1_555 1_555
C20 O8 1_555 1_555
H29 C20 1_555 1_555
H30 C20 1_555 1_555
C21 C20 1_555 1_555
H31 C21 1_555 1_555
H32 C21 1_555 1_555
O9 Rb1 1_555 1_555
C22 O9 1_555 1_555
H33 C22 1_555 1_555
H34 C22 1_555 1_555
C23 C22 1_555 1_555
H35 C23 1_555 1_555
H36 C23 1_555 1_555
O10 Rb1 1_555 1_555
C24 C15 1_555 1_555
C25 C24 1_555 1_555
H37 C25 1_555 1_555
C26 C25 1_555 1_555
H38 C26 1_555 1_555
C27 C26 1_555 1_555
H39 C27 1_555 1_555
C28 C15 1_555 1_555
H40 C28 1_555 1_555
I4B I4 1_555 1_555
I5B I5 1_555 1_555
C3 O2 1_555 1_555
C5 O3 1_555 1_555
C7 O4 1_555 1_555
C9 O5 1_555 1_555
O5 C10 1_555 1_555
C13 C14 1_555 1_555
C17 O7 1_555 1_555
C19 O8 1_555 1_555
C21 O9 1_555 1_555
C23 O10 1_555 1_555
O10 C24 1_555 1_555
C27 C28 1_555 1_555

#END
