
#######################################################################
#
#                 Cambridge Crystallographic Data Centre
#                                CCDC 
#
#######################################################################
#
# If this CIF has been generated from an entry in the Cambridge 
# Structural Database, then it will include bibliographic, chemical, 
# crystal, experimental, refinement or atomic coordinate data resulting 
# from the CCDC's data processing and validation procedures.
#
#######################################################################

data_YAPGOM
_symmetry_cell_setting           monoclinic
_symmetry_space_group_name_H-M   'P 21/n'
_symmetry_Int_Tables_number      14
_space_group_name_Hall           '-P 2yn'
loop_
_symmetry_equiv_pos_site_id
_symmetry_equiv_pos_as_xyz
1 x,y,z
2 1/2-x,1/2+y,1/2-z
3 -x,-y,-z
4 1/2+x,1/2-y,1/2+z
_cell_length_a                   14.990(2)
_cell_length_b                   17.196(2)
_cell_length_c                   15.962(2)
_cell_angle_alpha                90
_cell_angle_beta                 97.19(2)
_cell_angle_gamma                90
_cell_volume                     4082.14
loop_
_atom_site_label
_atom_site_type_symbol
_atom_site_fract_x
_atom_site_fract_y
_atom_site_fract_z
I1 I 0.22701(4) 0.46288(4) 0.81707(4)
I2 I 0.26443(3) 0.32091(3) 0.71527(3)
I3 I 0.30067(6) 0.18751(4) 0.62330(5)
I4 I 0.41924(4) 0.49185(3) 0.94801(4)
I5 I 0.06315(5) 0.49315(3) 0.94362(4)
I4B I 0.58076(4) 0.50815(3) 1.05199(4)
I5B I -0.06315(5) 0.50685(3) 1.05638(4)
Cs1 Cs -0.22759(3) 0.39834(2) 0.63543(3)
C1 C -0.1251(5) 0.2153(4) 0.7153(4)
O1 O -0.2118(3) 0.2104(3) 0.6757(3)
C2 C -0.2276(7) 0.1777(4) 0.5925(5)
H1 H -0.2137 0.1225 0.5942
H2 H -0.1902 0.2031 0.5553
C3 C -0.3261(7) 0.1904(5) 0.5613(5)
H3 H -0.3413 0.1640 0.5078
H4 H -0.3626 0.1685 0.6015
O2 O -0.3447(4) 0.2695(3) 0.5512(3)
C4 C -0.4384(6) 0.2889(6) 0.5496(6)
H5 H -0.4748 0.2467 0.5234
H6 H -0.4515 0.3351 0.5152
C5 C -0.4634(6) 0.3033(6) 0.6353(6)
H7 H -0.5283 0.3074 0.6325
H8 H -0.4435 0.2602 0.6721
O3 O -0.4236(3) 0.3717(4) 0.6675(3)
C6 C -0.4456(6) 0.3882(7) 0.7504(6)
H9 H -0.4365 0.3418 0.7850
H10 H -0.5085 0.4026 0.7469
C7 C -0.3911(7) 0.4502(7) 0.7891(6)
H11 H -0.4004 0.4961 0.7537
H12 H -0.4109 0.4624 0.8431
O4 O -0.2980(4) 0.4331(3) 0.8020(3)
C8 C -0.2694(6) 0.3896(5) 0.8770(5)
H13 H -0.3108 0.3472 0.8829
H14 H -0.2678 0.4229 0.9263
C9 C -0.1787(5) 0.3589(5) 0.8697(4)
H15 H -0.1397 0.4003 0.8548
H16 H -0.1527 0.3365 0.9230
O5 O -0.1882(3) 0.3005(3) 0.8051(3)
C10 C -0.1115(5) 0.2650(4) 0.7849(4)
C11 C -0.0269(5) 0.2747(5) 0.8279(5)
H17 H -0.0181 0.3067 0.8751
C12 C 0.0450(6) 0.2363(7) 0.8002(7)
H18 H 0.1029 0.2443 0.8273
C13 C 0.0307(8) 0.1856(7) 0.7317(8)
H19 H 0.0787 0.1580 0.7148
C14 C -0.0524(7) 0.1763(5) 0.6897(6)
H20 H -0.0609 0.1434 0.6432
C15 C -0.1117(5) 0.3618(4) 0.4593(4)
O6 O -0.1753(3) 0.4190(3) 0.4488(3)
C16 C -0.2595(5) 0.4048(5) 0.3954(4)
H21 H -0.2879 0.3583 0.4139
H22 H -0.2485 0.3974 0.3374
C17 C -0.3188(6) 0.4728(6) 0.4015(6)
H23 H -0.2872 0.5204 0.3914
H24 H -0.3716 0.4689 0.3599
O7 O -0.3442(4) 0.4733(4) 0.4834(4)
C18 C -0.3790(9) 0.5463(8) 0.5074(9)
H25 H -0.4176 0.5376 0.5509
H26 H -0.4156 0.5688 0.4590
C19 C -0.3081(10) 0.6018(6) 0.5389(10)
H27 H -0.2667 0.6082 0.4974
H28 H -0.3346 0.6521 0.5481
O8 O -0.2610(5) 0.5739(3) 0.6160(5)
C20 C -0.1909(10) 0.6244(5) 0.6464(8)
H29 H -0.2152 0.6743 0.6606
H30 H -0.1516 0.6327 0.6033
C21 C -0.1386(8) 0.5887(7) 0.7235(7)
H31 H -0.0949 0.6263 0.7484
H32 H -0.1797 0.5781 0.7645
O9 O -0.0937(4) 0.5199(3) 0.7082(3)
C22 C -0.0106(6) 0.5321(5) 0.6751(5)
H33 H 0.0350 0.5490 0.7198
H34 H -0.0180 0.5723 0.6321
C23 C 0.0176(5) 0.4584(5) 0.6381(4)
H35 H 0.0771 0.4636 0.6208
H36 H 0.0184 0.4163 0.6786
O10 O -0.0476(3) 0.4438(3) 0.5667(2)
C24 C -0.0411(5) 0.3750(4) 0.5231(4)
C25 C 0.0283(6) 0.3224(5) 0.5398(5)
H37 H 0.0759 0.3320 0.5818
C26 C 0.0250(8) 0.2534(6) 0.4912(8)
H38 H 0.0698 0.2160 0.5018
C27 C -0.0436(9) 0.2423(6) 0.4292(7)
H39 H -0.0440 0.1975 0.3965
C28 C -0.1133(6) 0.2948(5) 0.4121(5)
H40 H -0.1603 0.2850 0.3697
loop_
_geom_bond_atom_site_label_1
_geom_bond_atom_site_label_2
_geom_bond_site_symmetry_1
_geom_bond_site_symmetry_2
I1 I2 1_555 1_555
I2 I3 1_555 1_555
I4 I1 1_555 1_555
I5 I1 1_555 1_555
Cs1 O1 1_555 1_555
C1 O1 1_555 1_555
O1 C2 1_555 1_555
C2 H1 1_555 1_555
H2 C2 1_555 1_555
C3 C2 1_555 1_555
H3 C3 1_555 1_555
H4 C3 1_555 1_555
O2 Cs1 1_555 1_555
C4 O2 1_555 1_555
H5 C4 1_555 1_555
H6 C4 1_555 1_555
C5 C4 1_555 1_555
H7 C5 1_555 1_555
H8 C5 1_555 1_555
O3 Cs1 1_555 1_555
C6 O3 1_555 1_555
H9 C6 1_555 1_555
H10 C6 1_555 1_555
C7 C6 1_555 1_555
H11 C7 1_555 1_555
H12 C7 1_555 1_555
O4 Cs1 1_555 1_555
C8 O4 1_555 1_555
H13 C8 1_555 1_555
H14 C8 1_555 1_555
C9 C8 1_555 1_555
H15 C9 1_555 1_555
H16 C9 1_555 1_555
O5 Cs1 1_555 1_555
C10 C1 1_555 1_555
C11 C10 1_555 1_555
H17 C11 1_555 1_555
C12 C11 1_555 1_555
H18 C12 1_555 1_555
C13 C12 1_555 1_555
H19 C13 1_555 1_555
C14 C1 1_555 1_555
H20 C14 1_555 1_555
C15 O6 1_555 1_555
O6 Cs1 1_555 1_555
C16 O6 1_555 1_555
H21 C16 1_555 1_555
H22 C16 1_555 1_555
C17 C16 1_555 1_555
H23 C17 1_555 1_555
H24 C17 1_555 1_555
O7 Cs1 1_555 1_555
C18 O7 1_555 1_555
H25 C18 1_555 1_555
H26 C18 1_555 1_555
C19 C18 1_555 1_555
H27 C19 1_555 1_555
H28 C19 1_555 1_555
O8 Cs1 1_555 1_555
C20 O8 1_555 1_555
H29 C20 1_555 1_555
H30 C20 1_555 1_555
C21 C20 1_555 1_555
H31 C21 1_555 1_555
H32 C21 1_555 1_555
O9 Cs1 1_555 1_555
C22 O9 1_555 1_555
H33 C22 1_555 1_555
H34 C22 1_555 1_555
C23 C22 1_555 1_555
H35 C23 1_555 1_555
H36 C23 1_555 1_555
O10 Cs1 1_555 1_555
C24 C15 1_555 1_555
C25 C24 1_555 1_555
H37 C25 1_555 1_555
C26 C25 1_555 1_555
H38 C26 1_555 1_555
C27 C26 1_555 1_555
H39 C27 1_555 1_555
C28 C15 1_555 1_555
H40 C28 1_555 1_555
I4B I4 1_555 1_555
I5B I5 1_555 1_555
C3 O2 1_555 1_555
C5 O3 1_555 1_555
C7 O4 1_555 1_555
C9 O5 1_555 1_555
O5 C10 1_555 1_555
C13 C14 1_555 1_555
C17 O7 1_555 1_555
C19 O8 1_555 1_555
C21 O9 1_555 1_555
C23 O10 1_555 1_555
O10 C24 1_555 1_555
C27 C28 1_555 1_555

#END
