
#######################################################################
#
#                 Cambridge Crystallographic Data Centre
#                                CCDC 
#
#######################################################################
#
# If this CIF has been generated from an entry in the Cambridge 
# Structural Database, then it will include bibliographic, chemical, 
# crystal, experimental, refinement or atomic coordinate data resulting 
# from the CCDC's data processing and validation procedures.
#
#######################################################################

data_YAPGEC
_symmetry_cell_setting           monoclinic
_symmetry_space_group_name_H-M   'P 21/n'
_symmetry_Int_Tables_number      14
_space_group_name_Hall           '-P 2yn'
loop_
_symmetry_equiv_pos_site_id
_symmetry_equiv_pos_as_xyz
1 x,y,z
2 1/2-x,1/2+y,1/2-z
3 -x,-y,-z
4 1/2+x,1/2-y,1/2+z
_cell_length_a                   14.7530(2)
_cell_length_b                   16.8010(2)
_cell_length_c                   15.9650(2)
_cell_angle_alpha                90
_cell_angle_beta                 94.8640(7)
_cell_angle_gamma                90
_cell_volume                     3942.92
loop_
_atom_site_label
_atom_site_type_symbol
_atom_site_fract_x
_atom_site_fract_y
_atom_site_fract_z
I1 I -0.23336(3) 0.04324(4) 0.18218(3)
I2 I -0.27359(3) 0.18503(3) 0.28979(3)
I3 I -0.31553(6) 0.31555(4) 0.38834(5)
I4 I -0.06813(3) 0.01288(3) 0.05295(3)
I5 I -0.42088(3) 0.01092(3) 0.05167(3)
I4B I 0.06813(3) -0.01288(3) -0.05295(3)
I5B I -0.57912(3) -0.01092(3) -0.05167(3)
K1 K 0.23037(7) 0.09056(7) 0.36541(7)
C1 C 0.1107(4) 0.2745(3) 0.2956(4)
O1 O 0.1948(3) 0.2694(3) 0.3400(2)
C2 C 0.2094(5) 0.3096(4) 0.4174(4)
H1 H 0.1710(5) 0.2876(4) 0.4580(4)
H2 H 0.1957(5) 0.3657(4) 0.4104(4)
C3 C 0.3076(5) 0.2980(4) 0.4463(4)
H3 H 0.3451(5) 0.3218(4) 0.4060(4)
H4 H 0.3210(5) 0.3245(4) 0.4999(4)
O2 O 0.3286(3) 0.2162(3) 0.4551(3)
C4 C 0.4242(4) 0.1991(5) 0.4570(4)
H5 H 0.4376(4) 0.1521(5) 0.4913(4)
H6 H 0.4583(4) 0.2432(5) 0.4831(4)
C5 C 0.4548(4) 0.1851(5) 0.3705(4)
H7 H 0.4375(4) 0.2299(5) 0.3344(4)
H8 H 0.5205(4) 0.1799(5) 0.3738(4)
O3 O 0.4141(3) 0.1153(3) 0.3371(3)
C6 C 0.4396(4) 0.0973(6) 0.2544(4)
H9 H 0.5031(4) 0.0818(6) 0.2575(4)
H10 H 0.4320(4) 0.1442(6) 0.2191(4)
C7 C 0.3828(5) 0.0323(5) 0.2175(5)
H11 H 0.4038(5) 0.0179(5) 0.1635(5)
H12 H 0.3898(5) -0.0140(5) 0.2538(5)
O4 O 0.2902(3) 0.0529(2) 0.2061(2)
C8 C 0.2650(4) 0.0995(4) 0.1336(4)
H13 H 0.2671(4) 0.0672(4) 0.0834(4)
H14 H 0.3069(4) 0.1436(4) 0.1302(4)
C9 C 0.1710(4) 0.1300(4) 0.1397(4)
H15 H 0.1498(4) 0.1582(4) 0.0888(4)
H16 H 0.1296(4) 0.0865(4) 0.1480(4)
O5 O 0.1761(2) 0.1825(2) 0.2101(2)
C10 C 0.1007(4) 0.2262(3) 0.2248(3)
C11 C 0.0192(4) 0.2240(4) 0.1761(4)
H17 H 0.0116(4) 0.1910(4) 0.1293(4)
C12 C -0.0517(5) 0.2726(5) 0.1984(5)
H18 H -0.1069(5) 0.2723(5) 0.1657(5)
C13 C -0.0411(5) 0.3200(5) 0.2673(5)
H19 H -0.0891(5) 0.3519(5) 0.2813(5)
C14 C 0.0400(5) 0.3214(4) 0.3165(4)
H20 H 0.0469(5) 0.3539(4) 0.3637(4)
C15 C 0.1050(4) 0.1391(4) 0.5370(3)
O6 O 0.1702(3) 0.0820(3) 0.5382(2)
C16 C 0.2481(5) 0.0878(5) 0.5977(4)
H21 H 0.2294(5) 0.0884(5) 0.6545(4)
H22 H 0.2813(5) 0.1364(5) 0.5886(4)
C17 C 0.3053(6) 0.0183(6) 0.5855(5)
H23 H 0.3565(6) 0.0177(6) 0.6278(5)
H24 H 0.2705(6) -0.0300(6) 0.5911(5)
O7 O 0.3371(3) 0.0220(4) 0.5039(3)
C18 C 0.3745(7) -0.0503(8) 0.4774(7)
H25 H 0.4091(7) -0.0748(8) 0.5250(7)
H26 H 0.4163(7) -0.0387(8) 0.4353(7)
C19 C 0.3043(9) -0.1088(6) 0.4412(8)
H27 H 0.3336(9) -0.1582(6) 0.4272(8)
H28 H 0.2611(9) -0.1204(6) 0.4821(8)
O8 O 0.2589(4) -0.0751(3) 0.3684(4)
C20 C 0.1876(8) -0.1245(5) 0.3332(7)
H29 H 0.1457(8) -0.1363(5) 0.3752(7)
H30 H 0.2123(8) -0.1743(5) 0.3145(7)
C21 C 0.1388(6) -0.0823(5) 0.2606(6)
H31 H 0.1818(6) -0.0709(5) 0.2195(6)
H32 H 0.0928(6) -0.1177(5) 0.2343(6)
O9 O 0.0967(3) -0.0111(3) 0.2815(3)
C22 C 0.0122(4) -0.0226(4) 0.3144(4)
H33 H 0.0174(4) -0.0639(4) 0.3570(4)
H34 H -0.0328(4) -0.0393(4) 0.2701(4)
C23 C -0.0167(4) 0.0530(4) 0.3518(4)
H35 H -0.0185(4) 0.0957(4) 0.3107(4)
H36 H -0.0764(4) 0.0475(4) 0.3722(4)
O10 O 0.0499(2) 0.0684(2) 0.4190(2)
C24 C 0.0374(4) 0.1314(3) 0.4717(4)
C25 C -0.0332(5) 0.1858(4) 0.4636(5)
H37 H -0.0790(5) 0.1815(4) 0.4201(5)
C26 C -0.0338(7) 0.2474(5) 0.5225(7)
H38 H -0.0808(7) 0.2844(5) 0.5181(7)
C27 C 0.0318(9) 0.2542(6) 0.5848(7)
H39 H 0.0301(9) 0.2959(6) 0.6229(7)
C28 C 0.1010(6) 0.2007(5) 0.5934(4)
H40 H 0.1460(6) 0.2058(5) 0.6375(4)
loop_
_geom_bond_atom_site_label_1
_geom_bond_atom_site_label_2
_geom_bond_site_symmetry_1
_geom_bond_site_symmetry_2
I1 I2 1_555 1_555
I2 I3 1_555 1_555
I4 I1 1_555 1_555
I5 I1 1_555 1_555
K1 O1 1_555 1_555
C1 O1 1_555 1_555
O1 C2 1_555 1_555
C2 H1 1_555 1_555
H2 C2 1_555 1_555
C3 C2 1_555 1_555
H3 C3 1_555 1_555
H4 C3 1_555 1_555
O2 K1 1_555 1_555
C4 O2 1_555 1_555
H5 C4 1_555 1_555
H6 C4 1_555 1_555
C5 C4 1_555 1_555
H7 C5 1_555 1_555
H8 C5 1_555 1_555
O3 K1 1_555 1_555
C6 O3 1_555 1_555
H9 C6 1_555 1_555
H10 C6 1_555 1_555
C7 C6 1_555 1_555
H11 C7 1_555 1_555
H12 C7 1_555 1_555
O4 K1 1_555 1_555
C8 O4 1_555 1_555
H13 C8 1_555 1_555
H14 C8 1_555 1_555
C9 C8 1_555 1_555
H15 C9 1_555 1_555
H16 C9 1_555 1_555
O5 K1 1_555 1_555
C10 C1 1_555 1_555
C11 C10 1_555 1_555
H17 C11 1_555 1_555
C12 C11 1_555 1_555
H18 C12 1_555 1_555
C13 C12 1_555 1_555
H19 C13 1_555 1_555
C14 C1 1_555 1_555
H20 C14 1_555 1_555
C15 O6 1_555 1_555
O6 K1 1_555 1_555
C16 O6 1_555 1_555
H21 C16 1_555 1_555
H22 C16 1_555 1_555
C17 C16 1_555 1_555
H23 C17 1_555 1_555
H24 C17 1_555 1_555
O7 K1 1_555 1_555
C18 O7 1_555 1_555
H25 C18 1_555 1_555
H26 C18 1_555 1_555
C19 C18 1_555 1_555
H27 C19 1_555 1_555
H28 C19 1_555 1_555
O8 K1 1_555 1_555
C20 O8 1_555 1_555
H29 C20 1_555 1_555
H30 C20 1_555 1_555
C21 C20 1_555 1_555
H31 C21 1_555 1_555
H32 C21 1_555 1_555
O9 K1 1_555 1_555
C22 O9 1_555 1_555
H33 C22 1_555 1_555
H34 C22 1_555 1_555
C23 C22 1_555 1_555
H35 C23 1_555 1_555
H36 C23 1_555 1_555
O10 K1 1_555 1_555
C24 C15 1_555 1_555
C25 C24 1_555 1_555
H37 C25 1_555 1_555
C26 C25 1_555 1_555
H38 C26 1_555 1_555
C27 C26 1_555 1_555
H39 C27 1_555 1_555
C28 C15 1_555 1_555
H40 C28 1_555 1_555
I4B I4 1_555 1_555
I5B I5 1_555 1_555
C3 O2 1_555 1_555
C5 O3 1_555 1_555
C7 O4 1_555 1_555
C9 O5 1_555 1_555
O5 C10 1_555 1_555
C13 C14 1_555 1_555
C17 O7 1_555 1_555
C19 O8 1_555 1_555
C21 O9 1_555 1_555
C23 O10 1_555 1_555
O10 C24 1_555 1_555
C27 C28 1_555 1_555

#END
