
#######################################################################
#
#                 Cambridge Crystallographic Data Centre
#                                CCDC 
#
#######################################################################
#
# If this CIF has been generated from an entry in the Cambridge 
# Structural Database, then it will include bibliographic, chemical, 
# crystal, experimental, refinement or atomic coordinate data resulting 
# from the CCDC's data processing and validation procedures.
#
#######################################################################

data_YAPKOQ
_symmetry_cell_setting           triclinic
_symmetry_space_group_name_H-M   'P -1'
_symmetry_Int_Tables_number      2
_space_group_name_Hall           '-P 1'
loop_
_symmetry_equiv_pos_site_id
_symmetry_equiv_pos_as_xyz
1 x,y,z
2 -x,-y,-z
_cell_length_a                   5.6260(10)
_cell_length_b                   11.4980(10)
_cell_length_c                   13.3810(10)
_cell_angle_alpha                77.470(10)
_cell_angle_beta                 80.020(10)
_cell_angle_gamma                76.070(10)
_cell_volume                     813.397
loop_
_atom_site_label
_atom_site_type_symbol
_atom_site_fract_x
_atom_site_fract_y
_atom_site_fract_z
Hg1 Hg 1.0000 0.00000 0.00000
S1 S 0.5025(3) 0.05679(13) 0.14843(11)
O1 O 0.6571(9) 0.3960(5) -0.1077(4)
O2 O 0.6425(8) -0.0623(4) 0.1839(4)
O3 O 0.2516(8) 0.0688(4) 0.1296(3)
N1 N 0.7787(10) 0.2811(5) -0.0578(5)
N2 N 0.6661(9) 0.1060(5) 0.0414(4)
N3 N 0.4618(11) 0.3910(6) 0.4310(5)
H1 H 0.586 0.3838 0.4631
H2 H 0.3335 0.4482 0.4389
C1 C 0.5998(10) 0.2265(6) -0.0108(4)
C2 C 0.3636(11) 0.2999(6) -0.0241(5)
H3 H 0.211 0.2805 0.0026
C3 C 0.4102(11) 0.4043(6) -0.0842(5)
C4 C 0.2532(13) 0.5206(7) -0.1283(6)
H4 H 0.2711 0.5845 -0.0962
H5 H 0.3033 0.5396 -0.2013
H6 H 0.0837 0.5134 -0.1161
C5 C 0.4881(11) 0.1532(6) 0.2345(4)
C6 C 0.2794(11) 0.2439(6) 0.2501(5)
H7 H 0.1457 0.2521 0.2149
C7 C 0.2665(12) 0.3211(6) 0.3164(5)
H8 H 0.1232 0.3797 0.3271
C8 C 0.4683(12) 0.3125(6) 0.3682(5)
C9 C 0.6753(11) 0.2187(6) 0.3545(5)
H9 H 0.8074 0.2089 0.391
C10 C 0.6878(11) 0.1409(6) 0.2883(5)
H10 H 0.8283 0.0802 0.2792
Hg1_2 Hg 0.0000 0.00000 0.00000
Hg1_3 Hg 2.0000 0.00000 0.00000
S1A S 1.4975(3) -0.05679(13) -0.14843(11)
O1A O 1.3429(9) -0.3960(5) 0.1077(4)
O2A O 1.3575(8) 0.0623(4) -0.1839(4)
O3_2 O 1.2516(8) 0.0688(4) 0.1296(3)
O3A O 0.7484(8) -0.0688(4) -0.1296(3)
O3A_2 O 1.7484(8) -0.0688(4) -0.1296(3)
N1A N 1.2213(10) -0.2811(5) 0.0578(5)
N2A N 1.3339(9) -0.1060(5) -0.0414(4)
N3A N 1.5382(11) -0.3910(6) -0.4310(5)
H1A H 1.414 -0.3838 -0.4631
H2A H 1.6665 -0.4482 -0.4389
C1A C 1.4002(10) -0.2265(6) 0.0108(4)
C2A C 1.6364(11) -0.2999(6) 0.0241(5)
H3A H 1.789 -0.2805 -0.0026
C3A C 1.5898(11) -0.4043(6) 0.0842(5)
C4A C 1.7468(13) -0.5206(7) 0.1283(6)
H4A H 1.7289 -0.5845 0.0962
H5A H 1.6967 -0.5396 0.2013
H6A H 1.9163 -0.5134 0.1161
C5A C 1.5119(11) -0.1532(6) -0.2345(4)
C6A C 1.7206(11) -0.2439(6) -0.2501(5)
H7A H 1.8543 -0.2521 -0.2149
C7A C 1.7335(12) -0.3211(6) -0.3164(5)
H8A H 1.8768 -0.3797 -0.3271
C8A C 1.5317(12) -0.3125(6) -0.3682(5)
C9A C 1.3247(11) -0.2187(6) -0.3545(5)
H9A H 1.1926 -0.2089 -0.391
C10A C 1.3122(11) -0.1409(6) -0.2883(5)
H10A H 1.1717 -0.0802 -0.2792
S2 S -0.0371(3) 0.72900(16) 0.39642(14)
O4 O 0.1183(10) 0.6276(5) 0.4640(4)
C11 C 0.1741(17) 0.8046(8) 0.3067(7)
H11 H 0.3062 0.7452 0.2794
H12 H 0.0901 0.8566 0.2514
H13 H 0.2401 0.8527 0.3409
C12 C -0.1328(13) 0.6590(7) 0.3082(6)
H14 H -0.2388 0.6056 0.3454
H15 H -0.2207 0.7208 0.259
H16 H 0.0096 0.613 0.2726
loop_
_geom_bond_atom_site_label_1
_geom_bond_atom_site_label_2
_geom_bond_site_symmetry_1
_geom_bond_site_symmetry_2
Hg1 O2 1_555 1_555
S1 O2 1_555 1_555
O1 N1 1_555 1_555
O3 S1 1_555 1_555
N1 C1 1_555 1_555
N2 Hg1 1_555 1_555
N3 H1 1_555 1_555
H2 N3 1_555 1_555
C1 N2 1_555 1_555
C2 C1 1_555 1_555
H3 C2 1_555 1_555
C3 O1 1_555 1_555
C4 C3 1_555 1_555
H4 C4 1_555 1_555
H5 C4 1_555 1_555
H6 C4 1_555 1_555
C5 S1 1_555 1_555
C6 C5 1_555 1_555
H7 C6 1_555 1_555
C7 C6 1_555 1_555
H8 C7 1_555 1_555
C8 N3 1_555 1_555
C9 C8 1_555 1_555
H9 C9 1_555 1_555
C10 C5 1_555 1_555
H10 C10 1_555 1_555
S2 O4 1_555 1_555
C11 S2 1_555 1_555
H11 C11 1_555 1_555
H12 C11 1_555 1_555
H13 C11 1_555 1_555
C12 S2 1_555 1_555
H14 C12 1_555 1_555
H15 C12 1_555 1_555
H16 C12 1_555 1_555
Hg1_2 O3 1_555 1_555
Hg1_3 O3A_2 1_555 1_555
S1A O2A 1_555 1_555
O1A N1A 1_555 1_555
O2A Hg1 1_555 1_555
O3_2 Hg1 1_555 1_555
O3A Hg1 1_555 1_555
O3A_2 S1A 1_555 1_555
N1A C1A 1_555 1_555
N2A Hg1 1_555 1_555
N3A H1A 1_555 1_555
H2A N3A 1_555 1_555
C1A N2A 1_555 1_555
C2A C1A 1_555 1_555
H3A C2A 1_555 1_555
C3A O1A 1_555 1_555
C4A C3A 1_555 1_555
H4A C4A 1_555 1_555
H5A C4A 1_555 1_555
H6A C4A 1_555 1_555
C5A S1A 1_555 1_555
C6A C5A 1_555 1_555
H7A C6A 1_555 1_555
C7A C6A 1_555 1_555
H8A C7A 1_555 1_555
C8A N3A 1_555 1_555
C9A C8A 1_555 1_555
H9A C9A 1_555 1_555
C10A C5A 1_555 1_555
H10A C10A 1_555 1_555
S1 N2 1_555 1_555
C2 C3 1_555 1_555
C7 C8 1_555 1_555
C9 C10 1_555 1_555
S1A N2A 1_555 1_555
C2A C3A 1_555 1_555
C7A C8A 1_555 1_555
C9A C10A 1_555 1_555

#END
