
#######################################################################
#
#                 Cambridge Crystallographic Data Centre
#                                CCDC 
#
#######################################################################
#
# If this CIF has been generated from an entry in the Cambridge 
# Structural Database, then it will include bibliographic, chemical, 
# crystal, experimental, refinement or atomic coordinate data resulting 
# from the CCDC's data processing and validation procedures.
#
#######################################################################

data_YAPLEI
_symmetry_cell_setting           monoclinic
_symmetry_space_group_name_H-M   'C c'
_symmetry_Int_Tables_number      9
_space_group_name_Hall           'C -2yc'
loop_
_symmetry_equiv_pos_site_id
_symmetry_equiv_pos_as_xyz
1 x,y,z
2 x,-y,1/2+z
3 1/2+x,1/2+y,z
4 1/2+x,1/2-y,1/2+z
_cell_length_a                   30.7832(6)
_cell_length_b                   11.41495(19)
_cell_length_c                   23.7561(4)
_cell_angle_alpha                90
_cell_angle_beta                 101.4194(17)
_cell_angle_gamma                90
_cell_volume                     8182.38
loop_
_atom_site_label
_atom_site_type_symbol
_atom_site_fract_x
_atom_site_fract_y
_atom_site_fract_z
Cd1 Cd 0.045933(12) 0.81761(3) 0.627498(16)
Cd2 Cd 0.058430(14) 1.04601(4) 0.533349(18)
Cd3 Cd 0.026796(14) 0.99289(4) 0.74981(2)
Cl1 Cl 0.04826(6) 1.05276(13) 0.63575(8)
O1 O 0.05686(17) 0.6196(4) 0.6277(3)
C1 C 0.0275(2) 0.5443(6) 0.6211(4)
H1 H -0.0024 0.5704 0.6131
N1 N 0.0347(2) 0.4298(5) 0.6243(3)
C2 C 0.0791(3) 0.3823(8) 0.6396(5)
H2 H 0.1000 0.4453 0.6542
H3 H 0.0874 0.3470 0.6056
H4 H 0.0801 0.3224 0.6694
C3 C -0.0018(3) 0.3464(8) 0.6136(5)
H5 H -0.0299 0.3888 0.6034
H6 H -0.0016 0.2998 0.6483
H7 H 0.0017 0.2944 0.5820
N2 N 0.00967(19) 0.8668(5) 0.8196(3)
H8 H 0.0323 0.8744 0.8518
C4 C -0.0316(3) 0.9037(8) 0.8370(4)
H9 H -0.0354 0.8592 0.8710
H10 H -0.0568 0.8888 0.8056
H11 H -0.0300 0.9875 0.8461
C5 C 0.0075(2) 0.7424(6) 0.8039(4)
H12 H 0.0065 0.6949 0.8380
H13 H 0.0338 0.7213 0.7887
H14 H -0.0192 0.7279 0.7747
C8 C 0.3173(2) 0.8666(6) 0.7746(3)
C9 C 0.3460(2) 0.9316(6) 0.8157(3)
H23 H 0.3653 0.8921 0.8460
C10 C 0.3470(2) 1.0545(5) 0.8131(3)
C11 C 0.3185(2) 1.1108(6) 0.7684(3)
H24 H 0.3187 1.1939 0.7662
C12 C 0.2896(2) 1.0470(6) 0.7270(3)
C13 C 0.28942(19) 0.9257(6) 0.7301(3)
H25 H 0.2701 0.8821 0.7016
C14 C 0.3179(2) 0.7363(6) 0.7796(3)
C15 C 0.2792(2) 0.6698(5) 0.7797(3)
C16 C 0.2827(2) 0.5485(6) 0.7850(3)
H26 H 0.2567 0.5033 0.7845
C17 C 0.3230(3) 0.4927(6) 0.7908(4)
H27 H 0.3249 0.4100 0.7952
C18 C 0.3611(2) 0.5591(7) 0.7902(3)
H28 H 0.3890 0.5213 0.7934
C19 C 0.3583(2) 0.6787(6) 0.7850(3)
H29 H 0.3845 0.7229 0.7851
C20 C 0.2349(2) 0.7260(5) 0.7738(3)
C21 C 0.2282(2) 0.8242(5) 0.8063(3)
H30 H 0.2521 0.8550 0.8339
C22 C 0.1867(2) 0.8768(6) 0.7985(3)
H31 H 0.1824 0.9435 0.8207
C23 C 0.1512(2) 0.8322(6) 0.7580(3)
C24 C 0.1573(2) 0.7323(6) 0.7267(3)
H32 H 0.1332 0.7002 0.6999
C25 C 0.1990(2) 0.6799(5) 0.7348(3)
H33 H 0.2031 0.6118 0.7135
C26 C 0.1068(2) 0.8875(6) 0.7518(3)
O2 O 0.10218(16) 0.9820(4) 0.7770(3)
O3 O 0.07284(15) 0.8338(4) 0.7226(2)
C27 C 0.3761(2) 1.1224(6) 0.8596(3)
C28 C 0.4204(2) 1.0902(6) 0.8833(3)
C29 C 0.4429(2) 1.1515(7) 0.9312(3)
H34 H 0.4723 1.1285 0.9480
C30 C 0.4241(2) 1.2445(6) 0.9554(3)
H35 H 0.4401 1.2838 0.9882
C31 C 0.3813(2) 1.2789(6) 0.9305(3)
H36 H 0.3681 1.3439 0.9457
C32 C 0.3578(2) 1.2184(6) 0.8835(3)
H37 H 0.3285 1.2426 0.8670
C33 C 0.4432(2) 0.9925(6) 0.8597(3)
C34 C 0.4449(2) 0.9880(6) 0.8008(3)
H38 H 0.4315 1.0482 0.7756
C35 C 0.4661(2) 0.8952(6) 0.7798(3)
H39 H 0.4677 0.8931 0.7403
C36 C 0.4852(2) 0.8050(6) 0.8161(3)
C37 C 0.4839(2) 0.8108(6) 0.8745(3)
H40 H 0.4971 0.7507 0.8998
C38 C 0.4630(2) 0.9050(6) 0.8955(3)
H41 H 0.4625 0.9088 0.9353
C39 C 0.5059(2) 0.7004(6) 0.7939(3)
O4 O 0.49826(19) 0.6804(4) 0.7410(2)
O5 O 0.52805(17) 0.6307(4) 0.8292(2)
C40 C 0.2570(2) 1.1087(5) 0.6811(3)
C41 C 0.2698(2) 1.1971(6) 0.6468(3)
C42 C 0.2373(2) 1.2553(6) 0.6074(3)
H42 H 0.2458 1.3147 0.5837
C43 C 0.1928(2) 1.2279(6) 0.6023(3)
H43 H 0.1710 1.2689 0.5755
C44 C 0.1800(2) 1.1397(6) 0.6366(3)
H44 H 0.1496 1.1204 0.6336
C45 C 0.2124(2) 1.0812(6) 0.6749(3)
H45 H 0.2039 1.0203 0.6977
C46 C 0.3172(2) 1.2306(6) 0.6511(3)
C47 C 0.3493(2) 1.1490(6) 0.6430(3)
H46 H 0.3410 1.0699 0.6342
C48 C 0.3932(2) 1.1826(6) 0.6478(3)
H47 H 0.4145 1.1261 0.6419
C49 C 0.4066(2) 1.2972(6) 0.6610(3)
C50 C 0.3743(2) 1.3791(6) 0.6698(3)
H48 H 0.3827 1.4574 0.6801
C51 C 0.3305(2) 1.3462(6) 0.6635(3)
H49 H 0.3090 1.4034 0.6676
C52 C 0.4542(2) 1.3359(6) 0.6667(3)
O6 O 0.47984(14) 1.2703(4) 0.6452(2)
O7 O 0.46451(15) 1.4303(4) 0.6924(2)
C53 C -0.2252(2) 0.8694(6) 0.4628(3)
C54 C -0.1985(2) 0.9309(6) 0.5078(3)
H50 H -0.1788 0.8888 0.5366
C55 C -0.2004(2) 1.0531(5) 0.5111(3)
C56 C -0.2303(2) 1.1131(6) 0.4683(3)
H51 H -0.2321 1.1961 0.4701
C57 C -0.2571(2) 1.0541(6) 0.4239(3)
C58 C -0.2538(2) 0.9326(6) 0.4214(3)
H52 H -0.2718 0.8918 0.3904
C59 C -0.2239(2) 0.7398(6) 0.4575(3)
C60 C -0.1853(2) 0.6756(5) 0.4566(3)
C61 C -0.1880(3) 0.5545(6) 0.4491(3)
H53 H -0.1619 0.5111 0.4476
C62 C -0.2284(3) 0.4961(6) 0.4438(3)
H54 H -0.2299 0.4136 0.4385
C63 C -0.2663(3) 0.5602(7) 0.4464(3)
H55 H -0.2939 0.5211 0.4436
C64 C -0.2642(2) 0.6794(6) 0.4528(3)
H56 H -0.2905 0.7221 0.4542
C65 C -0.1409(2) 0.7332(6) 0.4635(3)
C66 C -0.1058(2) 0.6859(6) 0.5028(3)
H57 H -0.1100 0.6152 0.5221
C67 C -0.0644(2) 0.7402(6) 0.5143(3)
H58 H -0.0408 0.7067 0.5413
C68 C -0.0578(2) 0.8424(6) 0.4866(3)
C69 C -0.0926(2) 0.8887(6) 0.4451(3)
H59 H -0.0881 0.9579 0.4248
C70 C -0.1336(2) 0.8338(6) 0.4336(3)
H60 H -0.1568 0.8649 0.4051
C71 C -0.0147(2) 0.9067(7) 0.5018(3)
O8 O 0.01867(16) 0.8519(5) 0.5301(2)
O9 O -0.01181(16) 1.0108(5) 0.4875(3)
C72 C -0.1697(2) 1.1167(5) 0.5569(3)
C73 C -0.1834(2) 1.2076(6) 0.5896(3)
C74 C -0.1512(2) 1.2637(6) 0.6311(3)
H61 H -0.1600 1.3262 0.6529
C75 C -0.1072(2) 1.2305(6) 0.6412(3)
H62 H -0.0863 1.2687 0.6701
C76 C -0.0936(2) 1.1415(6) 0.6091(3)
H63 H -0.0633 1.1193 0.6155
C77 C -0.1246(2) 1.0850(6) 0.5675(3)
H64 H -0.1152 1.0236 0.5458
C78 C -0.2308(2) 1.2448(6) 0.5831(3)
C79 C -0.2636(2) 1.1671(6) 0.5921(3)
H65 H -0.2564 1.0871 0.6002
C80 C -0.3071(2) 1.2058(6) 0.5892(3)
H66 H -0.3290 1.1530 0.5972
C81 C -0.3183(2) 1.3220(6) 0.5748(3)
C82 C -0.2859(2) 1.3992(6) 0.5642(3)
H67 H -0.2935 1.4778 0.5534
C83 C -0.2425(2) 1.3611(6) 0.5695(3)
H68 H -0.2203 1.4152 0.5638
C84 C -0.3652(2) 1.3636(6) 0.5721(3)
O10 O -0.38767(14) 1.3124(4) 0.6030(2)
O11 O -0.37839(15) 1.4491(4) 0.5388(2)
C85 C -0.2878(2) 1.1161(6) 0.3769(3)
C86 C -0.3308(2) 1.0736(6) 0.3546(3)
C87 C -0.3557(2) 1.1248(7) 0.3052(3)
H69 H -0.3844 1.0952 0.2895
C88 C -0.3390(3) 1.2188(8) 0.2785(3)
H70 H -0.3559 1.2513 0.2442
C89 C -0.2978(3) 1.2646(7) 0.3022(3)
H71 H -0.2870 1.3315 0.2855
C90 C -0.2724(2) 1.2130(6) 0.3501(3)
H72 H -0.2438 1.2436 0.3653
C91 C -0.3514(2) 0.9795(6) 0.3839(3)
C92 C -0.3522(2) 0.9857(6) 0.4417(3)
H73 H -0.3385 1.0502 0.4635
C93 C -0.3728(2) 0.8992(6) 0.4688(3)
H74 H -0.3748 0.9078 0.5080
C94 C -0.3906(2) 0.8000(6) 0.4382(3)
C95 C -0.3875(2) 0.7908(6) 0.3809(3)
H75 H -0.3979 0.7216 0.3603
C96 C -0.3696(2) 0.8809(6) 0.3528(3)
H76 H -0.3697 0.8753 0.3129
C97 C -0.41092(19) 0.7050(6) 0.4672(3)
O12 O -0.42296(15) 0.6104(4) 0.4408(2)
O13 O -0.41660(17) 0.7228(4) 0.5180(2)
Cd1B Cd 0.545933(12) 1.31761(3) 0.627498(16)
Cd1B_2 Cd -0.454067(12) 1.31761(3) 0.627498(16)
Cd2B Cd -0.441570(14) 1.54601(4) 0.533349(18)
Cd2B_2 Cd -0.441570(14) 0.54601(4) 0.533349(18)
Cd3B Cd 0.526796(14) 0.49289(4) 0.74981(2)
Cd3B_2 Cd 0.526796(14) 1.49289(4) 0.74981(2)
O4B O -0.00174(19) 1.1804(4) 0.7410(2)
O5B O 0.02805(17) 1.1307(4) 0.8292(2)
O6B O -0.02016(14) 0.7703(4) 0.6452(2)
O7B O -0.03549(15) 0.9303(4) 0.6924(2)
O10B O 0.11233(14) 0.8124(4) 0.6030(2)
O11B O 0.12161(15) 0.9491(4) 0.5388(2)
O12B O 0.07704(15) 1.1104(4) 0.4408(2)
O13B O 0.08340(17) 1.2228(4) 0.5180(2)
N3 N 0.0939(2) 0.8598(5) 0.4234(3)
H15 H 0.0686 0.8722 0.3960
H16 H 0.0950 0.9164 0.4512
C6 C 0.1328(3) 0.8713(8) 0.3967(4)
H17 H 0.1333 0.9498 0.3801
H18 H 0.1314 0.8125 0.3664
H19 H 0.1598 0.8594 0.4259
C7 C 0.0912(3) 0.7421(7) 0.4499(4)
H20 H 0.0675 0.7421 0.4719
H21 H 0.1195 0.7242 0.4755
H22 H 0.0850 0.6826 0.4196
loop_
_geom_bond_atom_site_label_1
_geom_bond_atom_site_label_2
_geom_bond_site_symmetry_1
_geom_bond_site_symmetry_2
Cd1 Cl1 1_555 1_555
Cd2 Cl1 1_555 1_555
Cd3 Cl1 1_555 1_555
O1 Cd1 1_555 1_555
C1 O1 1_555 1_555
H1 C1 1_555 1_555
N1 C1 1_555 1_555
C2 N1 1_555 1_555
H2 C2 1_555 1_555
H3 C2 1_555 1_555
H4 C2 1_555 1_555
C3 N1 1_555 1_555
H5 C3 1_555 1_555
H6 C3 1_555 1_555
H7 C3 1_555 1_555
N2 Cd3 1_555 1_555
H8 N2 1_555 1_555
C4 N2 1_555 1_555
H9 C4 1_555 1_555
H10 C4 1_555 1_555
H11 C4 1_555 1_555
C5 N2 1_555 1_555
H12 C5 1_555 1_555
H13 C5 1_555 1_555
H14 C5 1_555 1_555
N3 H15 1_555 1_555
H16 N3 1_555 1_555
C6 N3 1_555 1_555
H17 C6 1_555 1_555
H18 C6 1_555 1_555
H19 C6 1_555 1_555
C7 N3 1_555 1_555
H20 C7 1_555 1_555
H21 C7 1_555 1_555
H22 C7 1_555 1_555
C8 C9 1_555 1_555
C9 H23 1_555 1_555
C10 C9 1_555 1_555
C11 C10 1_555 1_555
H24 C11 1_555 1_555
C12 C11 1_555 1_555
C13 C8 1_555 1_555
H25 C13 1_555 1_555
C14 C8 1_555 1_555
C15 C14 1_555 1_555
C16 C15 1_555 1_555
H26 C16 1_555 1_555
C17 C16 1_555 1_555
H27 C17 1_555 1_555
C18 C17 1_555 1_555
H28 C18 1_555 1_555
C19 C14 1_555 1_555
H29 C19 1_555 1_555
C20 C15 1_555 1_555
C21 C20 1_555 1_555
H30 C21 1_555 1_555
C22 C21 1_555 1_555
H31 C22 1_555 1_555
C23 C22 1_555 1_555
C24 C23 1_555 1_555
H32 C24 1_555 1_555
C25 C20 1_555 1_555
H33 C25 1_555 1_555
C26 C23 1_555 1_555
O2 Cd3 1_555 1_555
O3 Cd1 1_555 1_555
C27 C10 1_555 1_555
C28 C27 1_555 1_555
C29 C28 1_555 1_555
H34 C29 1_555 1_555
C30 C29 1_555 1_555
H35 C30 1_555 1_555
C31 C30 1_555 1_555
H36 C31 1_555 1_555
C32 C27 1_555 1_555
H37 C32 1_555 1_555
C33 C28 1_555 1_555
C34 C33 1_555 1_555
H38 C34 1_555 1_555
C35 C34 1_555 1_555
H39 C35 1_555 1_555
C36 C35 1_555 1_555
C37 C36 1_555 1_555
H40 C37 1_555 1_555
C38 C33 1_555 1_555
H41 C38 1_555 1_555
C39 C36 1_555 1_555
O4 C39 1_555 1_555
O5 C39 1_555 1_555
C40 C12 1_555 1_555
C41 C40 1_555 1_555
C42 C41 1_555 1_555
H42 C42 1_555 1_555
C43 C42 1_555 1_555
H43 C43 1_555 1_555
C44 C43 1_555 1_555
H44 C44 1_555 1_555
C45 C40 1_555 1_555
H45 C45 1_555 1_555
C46 C41 1_555 1_555
C47 C46 1_555 1_555
H46 C47 1_555 1_555
C48 C47 1_555 1_555
H47 C48 1_555 1_555
C49 C48 1_555 1_555
C50 C49 1_555 1_555
H48 C50 1_555 1_555
C51 C46 1_555 1_555
H49 C51 1_555 1_555
C52 C49 1_555 1_555
O6 C52 1_555 1_555
O7 C52 1_555 1_555
C53 C54 1_555 1_555
C54 H50 1_555 1_555
C55 C54 1_555 1_555
C56 C55 1_555 1_555
H51 C56 1_555 1_555
C57 C56 1_555 1_555
C58 C53 1_555 1_555
H52 C58 1_555 1_555
C59 C53 1_555 1_555
C60 C59 1_555 1_555
C61 C60 1_555 1_555
H53 C61 1_555 1_555
C62 C61 1_555 1_555
H54 C62 1_555 1_555
C63 C62 1_555 1_555
H55 C63 1_555 1_555
C64 C59 1_555 1_555
H56 C64 1_555 1_555
C65 C60 1_555 1_555
C66 C65 1_555 1_555
H57 C66 1_555 1_555
C67 C66 1_555 1_555
H58 C67 1_555 1_555
C68 C67 1_555 1_555
C69 C68 1_555 1_555
H59 C69 1_555 1_555
C70 C65 1_555 1_555
H60 C70 1_555 1_555
C71 C68 1_555 1_555
O8 Cd1 1_555 1_555
O9 Cd2 1_555 1_555
C72 C55 1_555 1_555
C73 C72 1_555 1_555
C74 C73 1_555 1_555
H61 C74 1_555 1_555
C75 C74 1_555 1_555
H62 C75 1_555 1_555
C76 C75 1_555 1_555
H63 C76 1_555 1_555
C77 C72 1_555 1_555
H64 C77 1_555 1_555
C78 C73 1_555 1_555
C79 C78 1_555 1_555
H65 C79 1_555 1_555
C80 C79 1_555 1_555
H66 C80 1_555 1_555
C81 C80 1_555 1_555
C82 C81 1_555 1_555
H67 C82 1_555 1_555
C83 C78 1_555 1_555
H68 C83 1_555 1_555
C84 C81 1_555 1_555
O10 C84 1_555 1_555
O11 C84 1_555 1_555
C85 C57 1_555 1_555
C86 C85 1_555 1_555
C87 C86 1_555 1_555
H69 C87 1_555 1_555
C88 C87 1_555 1_555
H70 C88 1_555 1_555
C89 C88 1_555 1_555
H71 C89 1_555 1_555
C90 C85 1_555 1_555
H72 C90 1_555 1_555
C91 C86 1_555 1_555
C92 C91 1_555 1_555
H73 C92 1_555 1_555
C93 C92 1_555 1_555
H74 C93 1_555 1_555
C94 C93 1_555 1_555
C95 C94 1_555 1_555
H75 C95 1_555 1_555
C96 C91 1_555 1_555
H76 C96 1_555 1_555
C97 C94 1_555 1_555
O12 C97 1_555 1_555
O13 C97 1_555 1_555
Cd1B O6 1_555 1_555
Cd1B_2 O10 1_555 1_555
Cd2B O11 1_555 1_555
Cd2B_2 O12 1_555 1_555
Cd3B O4 1_555 1_555
Cd3B_2 O7 1_555 1_555
O4B Cd3 1_555 1_555
O5B Cd3 1_555 1_555
O6B Cd1 1_555 1_555
O7B Cd3 1_555 1_555
O10B Cd1 1_555 1_555
O11B Cd2 1_555 1_555
O12B Cd2 1_555 1_555
O13B Cd2 1_555 1_555
Cd2 O8 1_555 1_555
Cd3 O3 1_555 1_555
C12 C13 1_555 1_555
C18 C19 1_555 1_555
C24 C25 1_555 1_555
C26 O2 1_555 1_555
C26 O3 1_555 1_555
C31 C32 1_555 1_555
C37 C38 1_555 1_555
O5 Cd3B 1_555 1_555
C44 C45 1_555 1_555
C50 C51 1_555 1_555
C57 C58 1_555 1_555
C63 C64 1_555 1_555
C69 C70 1_555 1_555
C71 O8 1_555 1_555
C71 O9 1_555 1_555
C76 C77 1_555 1_555
C82 C83 1_555 1_555
C89 C90 1_555 1_555
C95 C96 1_555 1_555
O13 Cd2B_2 1_555 1_555

#END
