
#######################################################################
#
#                 Cambridge Crystallographic Data Centre
#                                CCDC 
#
#######################################################################
#
# If this CIF has been generated from an entry in the Cambridge 
# Structural Database, then it will include bibliographic, chemical, 
# crystal, experimental, refinement or atomic coordinate data resulting 
# from the CCDC's data processing and validation procedures.
#
#######################################################################

data_YAPPAG
_symmetry_cell_setting           cubic
_symmetry_space_group_name_H-M   'P 43 3 2'
_symmetry_Int_Tables_number      212
_space_group_name_Hall           'P 4acd 2ab 3'
loop_
_symmetry_equiv_pos_site_id
_symmetry_equiv_pos_as_xyz
1 x,y,z
2 z,x,y
3 y,z,x
4 3/4-y,1/4+x,3/4+z
5 3/4-x,1/4+z,3/4+y
6 3/4-z,1/4+y,3/4+x
7 1/2+x,1/2-y,-z
8 1/2+z,1/2-x,-y
9 1/2+y,1/2-z,-x
10 1/4-y,1/4-x,1/4-z
11 1/4-x,1/4-z,1/4-y
12 1/4-z,1/4-y,1/4-x
13 -x,1/2+y,1/2-z
14 -z,1/2+x,1/2-y
15 -y,1/2+z,1/2-x
16 1/4+y,3/4+x,3/4-z
17 1/4+x,3/4+z,3/4-y
18 1/4+z,3/4+y,3/4-x
19 1/2-x,-y,1/2+z
20 1/2-z,-x,1/2+y
21 1/2-y,-z,1/2+x
22 3/4+y,3/4-x,1/4+z
23 3/4+x,3/4-z,1/4+y
24 3/4+z,3/4-y,1/4+x
_cell_length_a                   15.392(2)
_cell_length_b                   15.392(2)
_cell_length_c                   15.392(2)
_cell_angle_alpha                90
_cell_angle_beta                 90
_cell_angle_gamma                90
_cell_volume                     3646.58
loop_
_atom_site_label
_atom_site_type_symbol
_atom_site_fract_x
_atom_site_fract_y
_atom_site_fract_z
Fe1 Fe 0.1250 0.1250 0.1250
N1 N 0.2529(1) 0.1157(2) 0.1250(2)
C3 C 0.3096(2) 0.1814(2) 0.1274(2)
C4 C 0.3988(2) 0.1680(3) 0.1302(3)
C5 C 0.4304(2) 0.0855(3) 0.1296(3)
C6 C 0.3728(3) 0.0171(2) 0.1270(2)
C7 C 0.2839(2) 0.0326(2) 0.1255(2)
H1 H 0.2878(14) 0.2381(14) 0.1239(15)
H2 H 0.4340(15) 0.2139(16) 0.1317(17)
H3 H 0.4897(15) 0.0702(15) 0.1341(16)
H4 H 0.3881(15) -0.0321(14) 0.1275(15)
N1A N 0.1250(2) 0.2529(1) 0.1157(2)
N1B N 0.1157(2) 0.1250(2) 0.2529(1)
N1I N 0.1343(2) -0.0029(1) 0.1250(2)
N1J N -0.0029(1) 0.1250(2) 0.1343(2)
N1K N 0.1250(2) 0.1343(2) -0.0029(1)
C7I C 0.2174(2) -0.0339(2) 0.1245(2)
C3A C 0.1274(2) 0.3096(2) 0.1814(2)
C7A C 0.1255(2) 0.2839(2) 0.0326(2)
C3B C 0.1814(2) 0.1274(2) 0.3096(2)
C7B C 0.0326(2) 0.1255(2) 0.2839(2)
C3I C 0.0686(2) -0.0596(2) 0.1226(2)
C3J C -0.0596(2) 0.1226(2) 0.0686(2)
C7J C -0.0339(2) 0.1245(2) 0.2174(2)
C3K C 0.1226(2) 0.0686(2) -0.0596(2)
C7K C 0.1245(2) 0.2174(2) -0.0339(2)
C6I C 0.2329(2) -0.1228(3) 0.1230(2)
C4A C 0.1302(3) 0.3988(2) 0.1680(3)
H1A H 0.1239(15) 0.2878(14) 0.2381(14)
C6A C 0.1270(2) 0.3728(3) 0.0171(2)
C4B C 0.1680(3) 0.1302(3) 0.3988(2)
H1B H 0.2381(14) 0.1239(15) 0.2878(14)
C6B C 0.0171(2) 0.1270(2) 0.3728(3)
C4I C 0.0820(3) -0.1488(2) 0.1198(3)
H1I H 0.0119(14) -0.0378(14) 0.1261(15)
C4J C -0.1488(2) 0.1198(3) 0.0820(3)
H1J H -0.0378(14) 0.1261(15) 0.0119(14)
C6J C -0.1228(3) 0.1230(2) 0.2329(2)
C4K C 0.1198(3) 0.0820(3) -0.1488(2)
H1K H 0.1261(15) 0.0119(14) -0.0378(14)
C6K C 0.1230(2) 0.2329(2) -0.1228(3)
C5I C 0.1645(3) -0.1804(2) 0.1204(3)
H4I H 0.2821(14) -0.1381(15) 0.1225(15)
C5A C 0.1296(3) 0.4304(2) 0.0855(3)
H2A H 0.1317(17) 0.4340(15) 0.2139(16)
H4A H 0.1275(15) 0.3881(15) -0.0321(14)
C5B C 0.0855(3) 0.1296(3) 0.4304(2)
H2B H 0.2139(16) 0.1317(17) 0.4340(15)
H4B H -0.0321(14) 0.1275(15) 0.3881(15)
H2I H 0.0361(16) -0.1840(15) 0.1183(17)
C5J C -0.1804(2) 0.1204(3) 0.1645(3)
H2J H -0.1840(15) 0.1183(17) 0.0361(16)
H4J H -0.1381(15) 0.1225(15) 0.2821(14)
C5K C 0.1204(3) 0.1645(3) -0.1804(2)
H2K H 0.1183(17) 0.0361(16) -0.1840(15)
H4K H 0.1225(15) 0.2821(14) -0.1381(15)
H3I H 0.1798(15) -0.2397(15) 0.1159(16)
H3A H 0.1341(16) 0.4897(15) 0.0702(15)
H3B H 0.0702(15) 0.1341(16) 0.4897(15)
H3J H -0.2397(15) 0.1159(16) 0.1798(15)
H3K H 0.1159(16) 0.1798(15) -0.2397(15)
Fe2 Fe 0.35255(3) 0.35255(3) 0.35255(3)
O1 O 0.4896(1) 0.3398(1) 0.3649(2)
O2 O 0.3661(1) 0.2155(1) 0.3592(2)
C1 C 0.5133(2) 0.2633(2) 0.3750
C2 C 0.4419(2) 0.1919(2) 0.3750
O1A O 0.3649(2) 0.4896(1) 0.3398(1)
O1B O 0.3398(1) 0.3649(2) 0.4896(1)
O2A O 0.3592(2) 0.3661(1) 0.2155(1)
O2B O 0.2155(1) 0.3592(2) 0.3661(1)
O1O O 0.5898(1) 0.2396(1) 0.3851(2)
O2O O 0.4655(1) 0.1161(1) 0.3908(2)
C1A C 0.3750 0.5133(2) 0.2633(2)
C1B C 0.2633(2) 0.3750 0.5133(2)
C2A C 0.3750 0.4419(2) 0.1919(2)
C2B C 0.1919(2) 0.3750 0.4419(2)
Fe2O Fe 0.60255(3) 0.10255(3) 0.39745(3)
O1E O 0.3851(2) 0.5898(1) 0.2396(1)
O1V O 0.2396(1) 0.3851(2) 0.5898(1)
O2E O 0.3908(2) 0.4655(1) 0.1161(1)
O2V O 0.1161(1) 0.3908(2) 0.4655(1)
O1P O 0.7396(1) 0.1149(2) 0.4102(1)
O1Q O 0.6149(2) 0.0898(1) 0.2604(1)
O2P O 0.6161(1) 0.1092(2) 0.5345(1)
O2Q O 0.6092(2) -0.0345(1) 0.3839(1)
Fe2C Fe 0.39745(3) 0.60255(3) 0.10255(3)
Fe2U Fe 0.10255(3) 0.39745(3) 0.60255(3)
loop_
_geom_bond_atom_site_label_1
_geom_bond_atom_site_label_2
_geom_bond_site_symmetry_1
_geom_bond_site_symmetry_2
Fe1 N1 1_555 1_555
Fe2 O1 1_555 1_555
O1 C1 1_555 1_555
O2 Fe2 1_555 1_555
C1 C2 1_555 1_555
C2 O2 1_555 1_555
N1 C3 1_555 1_555
C3 C4 1_555 1_555
C4 C5 1_555 1_555
C5 C6 1_555 1_555
C6 C7 1_555 1_555
C7 N1 1_555 1_555
H1 C3 1_555 1_555
H2 C4 1_555 1_555
H3 C5 1_555 1_555
H4 C6 1_555 1_555
N1A Fe1 1_555 1_555
N1B Fe1 1_555 1_555
N1I Fe1 1_555 1_555
N1J Fe1 1_555 1_555
N1K Fe1 1_555 1_555
C7I C7 1_555 1_555
C3A N1A 1_555 1_555
C7A N1A 1_555 1_555
C3B N1B 1_555 1_555
C7B N1B 1_555 1_555
C3I N1I 1_555 1_555
C3J N1J 1_555 1_555
C7J N1J 1_555 1_555
C3K N1K 1_555 1_555
C7K N1K 1_555 1_555
C6I C7I 1_555 1_555
C4A C3A 1_555 1_555
H1A C3A 1_555 1_555
C6A C7A 1_555 1_555
C4B C3B 1_555 1_555
H1B C3B 1_555 1_555
C6B C7B 1_555 1_555
C4I C3I 1_555 1_555
H1I C3I 1_555 1_555
C4J C3J 1_555 1_555
H1J C3J 1_555 1_555
C6J C7J 1_555 1_555
C4K C3K 1_555 1_555
H1K C3K 1_555 1_555
C6K C7K 1_555 1_555
C5I C6I 1_555 1_555
H4I C6I 1_555 1_555
C5A C4A 1_555 1_555
H2A C4A 1_555 1_555
H4A C6A 1_555 1_555
C5B C4B 1_555 1_555
H2B C4B 1_555 1_555
H4B C6B 1_555 1_555
H2I C4I 1_555 1_555
C5J C4J 1_555 1_555
H2J C4J 1_555 1_555
H4J C6J 1_555 1_555
C5K C4K 1_555 1_555
H2K C4K 1_555 1_555
H4K C6K 1_555 1_555
H3I C5I 1_555 1_555
H3A C5A 1_555 1_555
H3B C5B 1_555 1_555
H3J C5J 1_555 1_555
H3K C5K 1_555 1_555
O1A Fe2 1_555 1_555
O1B Fe2 1_555 1_555
O2A Fe2 1_555 1_555
O2B Fe2 1_555 1_555
O1O C1 1_555 1_555
O2O C2 1_555 1_555
C1A O1A 1_555 1_555
C1B O1B 1_555 1_555
C2A O2A 1_555 1_555
C2B O2B 1_555 1_555
Fe2O O1O 1_555 1_555
O1E C1A 1_555 1_555
O1V C1B 1_555 1_555
O2E C2A 1_555 1_555
O2V C2B 1_555 1_555
O1P Fe2O 1_555 1_555
O1Q Fe2O 1_555 1_555
O2P Fe2O 1_555 1_555
O2Q Fe2O 1_555 1_555
Fe2C O1E 1_555 1_555
Fe2U O1V 1_555 1_555
N1I C7I 1_555 1_555
C7A C7K 1_555 1_555
C7B C7J 1_555 1_555
C6A C5A 1_555 1_555
C6B C5B 1_555 1_555
C4I C5I 1_555 1_555
C6J C5J 1_555 1_555
C6K C5K 1_555 1_555
O2O Fe2O 1_555 1_555
C1A C2A 1_555 1_555
C1B C2B 1_555 1_555
O2E Fe2C 1_555 1_555
O2V Fe2U 1_555 1_555

#END
