
#######################################################################
#
#                 Cambridge Crystallographic Data Centre
#                                CCDC 
#
#######################################################################
#
# If this CIF has been generated from an entry in the Cambridge 
# Structural Database, then it will include bibliographic, chemical, 
# crystal, experimental, refinement or atomic coordinate data resulting 
# from the CCDC's data processing and validation procedures.
#
#######################################################################

data_YAPQUC
_symmetry_cell_setting           monoclinic
_symmetry_space_group_name_H-M   'P 21/c'
_symmetry_Int_Tables_number      14
_space_group_name_Hall           '-P 2ybc'
loop_
_symmetry_equiv_pos_site_id
_symmetry_equiv_pos_as_xyz
1 x,y,z
2 -x,1/2+y,1/2-z
3 -x,-y,-z
4 x,1/2-y,1/2+z
_cell_length_a                   11.1558(19)
_cell_length_b                   3.8010(4)
_cell_length_c                   11.4134(19)
_cell_angle_alpha                90
_cell_angle_beta                 93.388(14)
_cell_angle_gamma                90
_cell_volume                     483.119
loop_
_atom_site_label
_atom_site_type_symbol
_atom_site_fract_x
_atom_site_fract_y
_atom_site_fract_z
Pb1 Pb -0.624110(18) 0.14049(5) -0.176250(15)
O1 O -0.5141(4) 0.1519(10) -0.3430(4)
O2 O -0.2652(4) 0.1734(11) -0.1960(4)
C1 C -0.1152(6) 0.0951(15) -0.0417(5)
O3 O -0.3085(5) 0.3406(13) -0.0155(4)
C2 C -0.2385(5) 0.2124(15) -0.0859(5)
C3 C -0.0762(6) 0.1660(14) 0.0747(5)
H1 H -0.1270 0.2785 0.1246
C4 C -0.0391(5) -0.0670(15) -0.1154(5)
H2 H -0.0648 -0.1108 -0.1931
Pb1A Pb -0.375890(18) 0.64049(5) -0.323750(15)
Pb1_2 Pb -0.624110(18) 1.14049(5) -0.176250(15)
Pb1B Pb -0.375890(18) -0.14049(5) 0.176250(15)
Pb1A_2 Pb -0.375890(18) -0.35951(5) -0.323750(15)
Pb1C Pb 0.375890(18) -0.64049(5) 0.323750(15)
Pb1C_2 Pb 0.375890(18) 0.35951(5) 0.323750(15)
Pb1_3 Pb 0.375890(18) 0.14049(5) -0.176250(15)
O1A O -0.4859(4) 0.6519(10) -0.1570(4)
O1_2 O -0.5141(4) 1.1519(10) -0.3430(4)
O1A_2 O -0.4859(4) -0.3481(10) -0.1570(4)
O2A O -0.7348(4) 0.6734(11) -0.3040(4)
O2A_2 O -0.7348(4) -0.3266(11) -0.3040(4)
O2_2 O -0.2652(4) 1.1734(11) -0.1960(4)
O2B O 0.2652(4) -0.1734(11) 0.1960(4)
C1B C 0.1152(6) -0.0951(15) 0.0417(5)
O3C O -0.3085(5) 0.1594(13) -0.5155(4)
O3B O -0.6915(5) -0.3406(13) 0.0155(4)
O3B_2 O 0.3085(5) -0.3406(13) 0.0155(4)
C2B C 0.2385(5) -0.2124(15) 0.0859(5)
C3B C 0.0762(6) -0.1660(14) -0.0747(5)
H1B H 0.1270 -0.2785 -0.1246
C4B C 0.0391(5) 0.0670(15) 0.1154(5)
H2B H 0.0648 0.1108 0.1931
loop_
_geom_bond_atom_site_label_1
_geom_bond_atom_site_label_2
_geom_bond_site_symmetry_1
_geom_bond_site_symmetry_2
Pb1 O1 1_555 1_555
O1 Pb1A 1_555 1_555
O2 C2 1_555 1_555
C1 C2 1_555 1_555
O3 C2 1_555 1_555
C3 C1 1_555 1_555
H1 C3 1_555 1_555
C4 C1 1_555 1_555
H2 C4 1_555 1_555
Pb1A O2 1_555 1_555
Pb1_2 O1A 1_555 1_555
Pb1B O3 1_555 1_555
Pb1A_2 O1 1_555 1_555
Pb1C O2B 1_555 1_555
Pb1C_2 O2B 1_555 1_555
Pb1_3 O3B_2 1_555 1_555
O1A Pb1 1_555 1_555
O1_2 Pb1A 1_555 1_555
O1A_2 Pb1 1_555 1_555
O2A Pb1 1_555 1_555
O2A_2 Pb1 1_555 1_555
O2_2 Pb1A 1_555 1_555
O2B C2B 1_555 1_555
C1B C2B 1_555 1_555
O3C Pb1A 1_555 1_555
O3B Pb1 1_555 1_555
O3B_2 C2B 1_555 1_555
C3B C4 1_555 1_555
H1B C3B 1_555 1_555
C4B C3 1_555 1_555
H2B C4B 1_555 1_555
O2 Pb1A_2 1_555 1_555
Pb1A O1A 1_555 1_555
Pb1_2 O1_2 1_555 1_555
Pb1_2 O2A 1_555 1_555
Pb1A_2 O1A_2 1_555 1_555
C1B C3B 1_555 1_555
C1B C4B 1_555 1_555

#END
