
#######################################################################
#
#                 Cambridge Crystallographic Data Centre
#                                CCDC 
#
#######################################################################
#
# If this CIF has been generated from an entry in the Cambridge 
# Structural Database, then it will include bibliographic, chemical, 
# crystal, experimental, refinement or atomic coordinate data resulting 
# from the CCDC's data processing and validation procedures.
#
#######################################################################

data_YAPROY
_symmetry_cell_setting           triclinic
_symmetry_space_group_name_H-M   'P 1'
_symmetry_Int_Tables_number      1
_space_group_name_Hall           'P 1'
loop_
_symmetry_equiv_pos_site_id
_symmetry_equiv_pos_as_xyz
1 x,y,z
_cell_length_a                   15.095(5)
_cell_length_b                   16.824(5)
_cell_length_c                   17.090(5)
_cell_angle_alpha                90.401(4)
_cell_angle_beta                 97.417(8)
_cell_angle_gamma                97.631(9)
_cell_volume                     4264.43
loop_
_atom_site_label
_atom_site_type_symbol
_atom_site_fract_x
_atom_site_fract_y
_atom_site_fract_z
Na1 Na 0.12704(19) 0.10488(18) 0.10040(17)
Na2 Na 0.1446(3) 0.3327(2) 0.6866(2)
O1 O 0.3941(4) 0.9425(3) 0.1025(3)
O2 O 0.1552(4) 0.9632(4) 0.0996(4)
H1 H 0.1187 0.9916 0.0603
O3 O 0.1564(4) 0.8676(4) -0.0418(4)
H2 H 0.1548 0.8196 -0.0749
O4 O 0.3029(3) 0.7755(3) -0.0359(3)
O5 O 0.5098(5) 0.9170(5) -0.0046(5)
H3 H 0.5610 0.9028 -0.0291
O6 O 0.4068(3) 0.7366(3) -0.1139(3)
O7 O 0.1659(4) 0.7491(4) -0.1575(3)
H4 H 0.1137 0.7133 -0.1836
O8 O 0.1678(3) 0.5768(3) -0.1725(3)
H5 H 0.1844 0.5639 -0.2243
O9 O 0.3251(3) 0.5219(3) -0.1005(3)
O10 O 0.5195(4) 0.6405(4) -0.1689(4)
H6 H 0.5021 0.6902 -0.1921
O11 O 0.4309(4) 0.4366(3) -0.1181(4)
O12 O 0.1893(4) 0.4079(3) -0.1851(3)
H7 H 0.1875 0.4656 -0.1784
O13 O 0.2054(3) 0.2839(3) -0.0696(4)
H8 H 0.1539 0.2965 -0.0446
O14 O 0.3625(4) 0.3026(3) 0.0388(3)
O15 O 0.5493(6) 0.3244(6) -0.0637(7)
H9 H 0.6079 0.3088 -0.0424
O16 O 0.4809(4) 0.2468(4) 0.1088(4)
O17 O 0.2523(4) 0.1555(3) 0.0301(3)
H10 H 0.2447 0.2041 0.0002
O18 O 0.2545(3) 0.1345(3) 0.1957(3)
H11 H 0.1924 0.1446 0.1797
O19 O 0.3875(4) 0.2341(3) 0.2966(3)
O20 O 0.6040(8) 0.2239(17) 0.2380(8)
H12 H 0.6599 0.2332 0.2139
O21 O 0.4672(4) 0.1843(3) 0.4071(3)
O22 O 0.2227(4) 0.1706(3) 0.3435(3)
H13 H 0.2353 0.1574 0.2905
O23 O 0.2514(4) 0.2539(3) 0.4992(3)
H14 H 0.2405 0.2009 0.5222
O24 O 0.4186(4) 0.3475(3) 0.5302(3)
O25 O 0.6453(4) 0.2817(5) 0.4453(4)
H15 H 0.6949 0.2520 0.4651
O26 O 0.5275(4) 0.4198(4) 0.6212(3)
O27 O 0.2960(4) 0.3336(3) 0.6430(3)
H16 H 0.2858 0.3079 0.5904
O28 O 0.2931(4) 0.5068(4) 0.6575(3)
H17 H 0.2322 0.4785 0.6421
O29 O 0.4217(4) 0.6026(3) 0.5838(3)
O30 O 0.6375(5) 0.5629(4) 0.6683(4)
H18 H 0.6024 0.5277 0.7020
O31 O 0.5176(4) 0.7226(3) 0.5863(3)
O32 O 0.3104(4) 0.6704(4) 0.6756(3)
H19 H 0.3035 0.6157 0.6536
O33 O 0.2654(4) 0.7986(4) 0.5760(4)
H20 H 0.2395 0.8204 0.5265
O34 O 0.3680(4) 0.8254(3) 0.4472(3)
O35 O 0.6041(4) 0.8623(4) 0.5274(4)
H21 H 0.6284 0.8418 0.5781
O36 O 0.4241(4) 0.9439(3) 0.3912(3)
O37 O 0.2045(4) 0.8800(4) 0.4521(3)
H22 H 0.1624 0.8399 0.4194
O38 O 0.1581(4) 0.9169(4) 0.2872(4)
H23 H 0.1386 0.9542 0.3237
O39 O 0.2951(4) 0.9006(3) 0.1942(3)
O40 O 0.4885(6) 1.0204(5) 0.2525(6)
H24 H 0.5187 1.0309 0.2054
O41 O -0.2242(4) -0.0335(4) 0.1117(4)
O42 O -0.0188(4) 0.0504(3) 0.0307(3)
H25 H -0.0203 0.0003 0.0008
O43 O 0.0308(3) 0.0808(3) 0.1954(3)
H26 H 0.0556 0.0696 0.2495
O44 O -0.0730(4) -0.0100(3) 0.2975(3)
O45 O -0.3004(5) 0.0076(7) 0.2466(6)
H27 H -0.3318 0.0215 0.1958
O46 O -0.1197(4) 0.0493(3) 0.4061(3)
O47 O 0.1055(3) 0.0558(3) 0.3437(3)
H28 H 0.1408 0.1092 0.3464
O48 O 0.1247(4) -0.0180(3) 0.5010(3)
H29 H 0.1652 -0.0498 0.4781
O49 O -0.0359(4) -0.1074(3) 0.5313(3)
O50 O -0.2845(6) -0.0258(6) 0.4500(5)
H30 H -0.3334 -0.0409 0.4818
O51 O -0.1211(4) -0.1743(3) 0.6176(3)
O52 O 0.1118(4) -0.0797(4) 0.6488(3)
H31 H 0.1049 -0.0567 0.5962
O53 O 0.1288(4) -0.2499(4) 0.6693(3)
H32 H 0.1360 -0.3032 0.6494
O54 O -0.0152(4) -0.3557(3) 0.5906(3)
O55 O -0.2302(4) -0.3081(4) 0.6627(4)
H33 H -0.2258 -0.3618 0.6833
O56 O -0.1130(4) -0.4756(4) 0.5881(4)
O57 O 0.1235(4) -0.4214(4) 0.6721(3)
H34 H 0.1665 -0.4163 0.6335
O58 O 0.1275(4) -0.5660(3) 0.5815(3)
H35 H 0.1348 -0.5945 0.5331
O59 O -0.0123(4) -0.5908(3) 0.4487(3)
O60 O -0.2221(5) -0.6066(6) 0.5213(5)
H36 H -0.2020 -0.6565 0.5050
O61 O -0.0846(4) -0.7144(3) 0.3989(3)
O62 O 0.1543(3) -0.6455(4) 0.4567(3)
H37 H 0.1861 -0.6075 0.4233
O63 O 0.1477(4) -0.6960(4) 0.2888(4)
H38 H 0.1480 -0.7540 0.2942
O64 O -0.0202(4) -0.6867(3) 0.1995(3)
O65 O -0.1952(4) -0.8109(4) 0.2742(5)
H39 H -0.2582 -0.8328 0.2569
O66 O -0.1408(4) -0.7396(4) 0.1060(3)
O67 O 0.1001(4) -0.7498(4) 0.1097(4)
H40 H 0.1102 -0.7316 0.1651
O68 O 0.0577(5) -0.6584(5) -0.0287(5)
H41 H 0.0353 -0.6214 -0.0683
O69 O -0.0933(4) -0.5765(3) -0.0308(3)
O70 O -0.2842(7) -0.7221(6) -0.0056(7)
H42 H -0.3004 -0.7701 0.0245
O71 O -0.2190(4) -0.5409(4) -0.1098(4)
O72 O 0.0101(4) -0.5567(3) -0.1519(4)
H43 H 0.0438 -0.5345 -0.1939
O73 O -0.0034(4) -0.3875(3) -0.1737(3)
H44 H 0.0610 -0.3883 -0.1565
O74 O -0.1286(4) -0.3264(3) -0.0949(3)
O75 O -0.3429(4) -0.4442(4) -0.1612(5)
H45 H -0.3538 -0.5009 -0.1776
O76 O -0.2397(3) -0.2410(3) -0.1129(3)
O77 O -0.0128(4) -0.2190(3) -0.1708(3)
H46 H 0.0367 -0.2152 -0.1272
O78 O -0.0055(4) -0.0824(3) -0.0658(4)
H47 H 0.0560 -0.0962 -0.0612
O79 O -0.1290(4) -0.0945(3) 0.0420(3)
O80 O -0.3497(4) -0.1315(4) -0.0680(4)
H48 H -0.3760 -0.1611 -0.1169
C1 C 0.3150(5) 0.9571(4) 0.1347(4)
H49 H 0.3240 1.0127 0.1580
C2 C 0.2350(5) 0.9477(5) 0.0691(5)
H50 H 0.2482 0.9901 0.0298
C3 C 0.2252(5) 0.8671(5) 0.0257(4)
H51 H 0.2067 0.8230 0.0615
C4 C 0.3154(5) 0.8555(4) -0.0014(4)
H52 H 0.3306 0.8958 -0.0419
C5 C 0.3896(6) 0.8635(5) 0.0679(5)
H53 H 0.3741 0.8224 0.1077
C6 C 0.4824(6) 0.8560(6) 0.0465(6)
H54 H 0.5262 0.8594 0.0952
H55 H 0.4815 0.8030 0.0207
C7 C 0.3240(5) 0.7677(4) -0.1142(4)
H56 H 0.3296 0.8220 -0.1380
C8 C 0.2459(5) 0.7139(5) -0.1622(4)
H57 H 0.2571 0.7118 -0.2186
C9 C 0.2391(5) 0.6290(5) -0.1297(4)
H58 H 0.2283 0.6315 -0.0733
C10 C 0.3297(4) 0.6006(4) -0.1333(4)
H59 H 0.3417 0.5979 -0.1894
C11 C 0.4049(5) 0.6578(5) -0.0850(4)
H60 H 0.3936 0.6583 -0.0286
C12 C 0.4978(5) 0.6354(5) -0.0892(5)
H61 H 0.5429 0.6720 -0.0541
H62 H 0.5003 0.5800 -0.0707
C13 C 0.3484(5) 0.4605(5) -0.1473(5)
H63 H 0.3519 0.4805 -0.2020
C14 C 0.2741(5) 0.3891(5) -0.1508(4)
H64 H 0.2909 0.3467 -0.1852
C15 C 0.2702(5) 0.3539(4) -0.0684(4)
H65 H 0.2549 0.3953 -0.0320
C16 C 0.3622(5) 0.3328(5) -0.0392(4)
H66 H 0.3762 0.2900 -0.0748
C17 C 0.4325(5) 0.4047(6) -0.0400(5)
H67 H 0.4211 0.4469 -0.0025
C18 C 0.5301(6) 0.3843(7) -0.0182(8)
H68 H 0.5734 0.4330 -0.0237
H69 H 0.5383 0.3687 0.0377
C19 C 0.4008(5) 0.2317(5) 0.0542(5)
H70 H 0.4165 0.2106 0.0036
C20 C 0.3310(5) 0.1695(5) 0.0848(4)
H71 H 0.3573 0.1181 0.0902
C21 C 0.3149(5) 0.1954(4) 0.1664(4)
H72 H 0.2873 0.2463 0.1627
C22 C 0.4045(5) 0.2095(5) 0.2203(4)
H73 H 0.4322 0.1587 0.2245
C23 C 0.4684(6) 0.2753(6) 0.1864(5)
H74 H 0.4418 0.3267 0.1825
C24 C 0.5623(9) 0.2888(13) 0.2306(7)
H75 H 0.5991 0.3300 0.2031
H76 H 0.5592 0.3105 0.2840
C25 C 0.3845(5) 0.1742(4) 0.3543(4)
H77 H 0.3781 0.1206 0.3270
C26 C 0.3045(5) 0.1770(5) 0.3976(4)
H78 H 0.3004 0.1301 0.4332
C27 C 0.3180(5) 0.2540(4) 0.4491(4)
H79 H 0.3128 0.3001 0.4129
C28 C 0.4098(5) 0.2687(5) 0.4980(4)
H80 H 0.4134 0.2293 0.5415
C29 C 0.4844(5) 0.2624(5) 0.4470(5)
H81 H 0.4844 0.3056 0.4070
C30 C 0.5755(6) 0.2687(6) 0.4955(5)
H82 H 0.5825 0.3138 0.5343
H83 H 0.5810 0.2187 0.5249
C31 C 0.4493(5) 0.3621(5) 0.6116(4)
H84 H 0.4642 0.3110 0.6362
C32 C 0.3749(5) 0.3907(5) 0.6494(4)
H85 H 0.3971 0.3994 0.7069
C33 C 0.3551(5) 0.4722(4) 0.6163(4)
H86 H 0.3290 0.4643 0.5595
C34 C 0.4422(5) 0.5298(4) 0.6216(4)
H87 H 0.4658 0.5421 0.6784
C35 C 0.5124(6) 0.4932(5) 0.5822(5)
H88 H 0.4890 0.4811 0.5253
C36 C 0.6034(6) 0.5455(6) 0.5884(5)
H89 H 0.6461 0.5173 0.5631
H90 H 0.5968 0.5961 0.5603
C37 C 0.4539(5) 0.6748(5) 0.6263(4)
H91 H 0.4839 0.6621 0.6795
C38 C 0.3745(5) 0.7208(5) 0.6370(4)
H92 H 0.3982 0.7686 0.6723
C39 C 0.3330(5) 0.7499(5) 0.5602(5)
H93 H 0.3052 0.7034 0.5245
C40 C 0.4068(5) 0.8017(5) 0.5217(4)
H94 H 0.4321 0.8499 0.5559
C41 C 0.4819(5) 0.7499(5) 0.5106(5)
H95 H 0.4561 0.7026 0.4752
C42 C 0.5597(6) 0.7963(6) 0.4768(6)
H96 H 0.6039 0.7597 0.4681
H97 H 0.5375 0.8172 0.4249
C43 C 0.3622(5) 0.9078(5) 0.4394(5)
H98 H 0.3767 0.9341 0.4930
C44 C 0.2658(5) 0.9203(5) 0.4056(4)
H99 H 0.2616 0.9789 0.4101
C45 C 0.2418(5) 0.8954(4) 0.3190(4)
H100 H 0.2376 0.8357 0.3151
C46 C 0.3173(5) 0.9309(5) 0.2744(4)
H101 H 0.3196 0.9905 0.2745
C47 C 0.4076(5) 0.9102(5) 0.3127(5)
H102 H 0.4036 0.8505 0.3159
C48 C 0.4885(7) 0.9407(7) 0.2720(6)
H103 H 0.5444 0.9347 0.3073
H104 H 0.4875 0.9079 0.2235
C49 C -0.1622(5) -0.0233(5) 0.0557(5)
H105 H -0.1933 -0.0052 0.0049
C50 C -0.0825(5) 0.0393(5) 0.0858(4)
H106 H -0.1065 0.0914 0.0910
C51 C -0.0405(5) 0.0188(4) 0.1675(4)
H107 H -0.0155 -0.0331 0.1644
C52 C -0.1115(6) 0.0106(5) 0.2222(5)
H108 H -0.1358 0.0627 0.2261
C53 C -0.1891(6) -0.0554(6) 0.1887(5)
H109 H -0.1652 -0.1078 0.1855
C54 C -0.2648(7) -0.0641(8) 0.2379(8)
H110 H -0.3133 -0.1055 0.2131
H111 H -0.2427 -0.0829 0.2908
C55 C -0.0541(5) 0.0546(5) 0.3545(4)
H112 H -0.0549 0.1063 0.3261
C56 C 0.0418(5) 0.0525(4) 0.3983(4)
H113 H 0.0577 0.1012 0.4337
C57 C 0.0432(5) -0.0208(5) 0.4495(5)
H114 H 0.0369 -0.0694 0.4141
C58 C -0.0344(5) -0.0293(4) 0.4974(4)
H115 H -0.0232 0.0128 0.5404
C59 C -0.1255(6) -0.0249(5) 0.4488(5)
H116 H -0.1401 -0.0714 0.4104
C60 C -0.1992(6) -0.0246(7) 0.4985(7)
H117 H -0.2010 -0.0722 0.5323
H118 H -0.1873 0.0239 0.5333
C61 C -0.0487(6) -0.1155(5) 0.6119(4)
H119 H -0.0606 -0.0633 0.6339
C62 C 0.0389(5) -0.1390(4) 0.6550(4)
H120 H 0.0317 -0.1436 0.7122
C63 C 0.0535(5) -0.2224(5) 0.6244(5)
H121 H 0.0653 -0.2177 0.5682
C64 C -0.0303(5) -0.2824(5) 0.6277(4)
H122 H -0.0394 -0.2922 0.6839
C65 C -0.1122(6) -0.2515(5) 0.5842(4)
H123 H -0.1023 -0.2441 0.5278
C66 C -0.2022(6) -0.3036(6) 0.5857(5)
H124 H -0.2487 -0.2817 0.5490
H125 H -0.1977 -0.3584 0.5666
C67 C -0.0372(5) -0.4280(4) 0.6307(4)
H126 H -0.0521 -0.4143 0.6841
C68 C 0.0450(5) -0.4725(4) 0.6407(4)
H127 H 0.0340 -0.5155 0.6797
C69 C 0.0596(5) -0.5136(4) 0.5642(4)
H128 H 0.0819 -0.4715 0.5277
C70 C -0.0281(5) -0.5597(5) 0.5239(4)
H129 H -0.0484 -0.6052 0.5575
C71 C -0.1009(5) -0.5045(5) 0.5110(5)
H130 H -0.0805 -0.4583 0.4782
C72 C -0.1910(6) -0.5449(6) 0.4747(6)
H131 H -0.2344 -0.5054 0.4687
H132 H -0.1864 -0.5665 0.4216
C73 C -0.0073(5) -0.6740(5) 0.4443(4)
H133 H -0.0042 -0.6952 0.4989
C74 C 0.0777(5) -0.6892(5) 0.4106(5)
H134 H 0.0831 -0.7475 0.4168
C75 C 0.0734(5) -0.6725(5) 0.3233(5)
H135 H 0.0756 -0.6132 0.3175
C76 C -0.0155(5) -0.7115(4) 0.2786(5)
H136 H -0.0172 -0.7711 0.2795
C77 C -0.0945(5) -0.6881(5) 0.3183(4)
H137 H -0.0921 -0.6284 0.3183
C78 C -0.1876(6) -0.7261(6) 0.2814(6)
H138 H -0.2329 -0.7117 0.3141
H139 H -0.2012 -0.7039 0.2284
C79 C -0.0513(5) -0.7464(5) 0.1397(4)
H140 H -0.0507 -0.8003 0.1640
C80 C 0.0120(5) -0.7395(4) 0.0767(4)
H141 H -0.0099 -0.7837 0.0367
C81 C 0.0072(5) -0.6600(5) 0.0351(5)
H142 H 0.0318 -0.6143 0.0728
C82 C -0.0921(5) -0.6545(5) 0.0038(5)
H143 H -0.1155 -0.6977 -0.0370
C83 C -0.1490(6) -0.6612(5) 0.0713(5)
H144 H -0.1248 -0.6179 0.1118
C84 C -0.2481(6) -0.6581(7) 0.0466(6)
H145 H -0.2801 -0.6612 0.0938
H146 H -0.2565 -0.6067 0.0207
C85 C -0.1368(5) -0.5735(5) -0.1090(5)
H147 H -0.1506 -0.6293 -0.1318
C86 C -0.0737(5) -0.5253(5) -0.1571(5)
H148 H -0.1017 -0.5267 -0.2135
C87 C -0.0540(5) -0.4373(4) -0.1259(4)
H149 H -0.0225 -0.4349 -0.0705
C88 C -0.1457(5) -0.4053(4) -0.1282(4)
H150 H -0.1763 -0.4052 -0.1837
C89 C -0.2048(5) -0.4581(5) -0.0768(5)
H151 H -0.1757 -0.4563 -0.0207
C90 C -0.2990(6) -0.4363(5) -0.0818(6)
H152 H -0.3342 -0.4718 -0.0477
H153 H -0.2964 -0.3803 -0.0625
C91 C -0.1629(5) -0.2661(5) -0.1414(5)
H154 H -0.1817 -0.2883 -0.1964
C92 C -0.0891(5) -0.1954(5) -0.1438(4)
H155 H -0.1133 -0.1566 -0.1824
C93 C -0.0663(5) -0.1520(4) -0.0632(4)
H156 H -0.0390 -0.1889 -0.0243
C94 C -0.1511(5) -0.1308(5) -0.0366(4)
H157 H -0.1764 -0.0911 -0.0734
C95 C -0.2211(5) -0.2043(4) -0.0351(4)
H158 H -0.1964 -0.2433 0.0028
C96 C -0.3097(6) -0.1859(6) -0.0126(6)
H159 H -0.3516 -0.2363 -0.0120
H160 H -0.2998 -0.1613 0.0411
O81 O 0.1378(14) 0.2265(7) 0.7776(7)
O82 O 0.0748(6) 0.2212(6) 0.6035(6)
O83 O -0.0038(6) 0.3262(5) 0.7358(6)
Na1_2 Na 0.12704(19) -0.89512(18) 0.10040(17)
Na1_3 Na 0.12704(19) 1.10488(18) 0.10040(17)
Na2_2 Na 0.1446(3) -0.6673(2) 0.6866(2)
Na2_3 Na 0.1446(3) 0.3327(2) -0.3134(2)
O2_2 O 0.1552(4) -0.0368(4) 0.0996(4)
H1_2 H 0.1187 -0.0084 0.0603
O12_2 O 0.1893(4) 0.4079(3) 0.8149(3)
O58_2 O 0.1275(4) 0.4340(3) 0.5815(3)
O67_2 O 0.1001(4) 0.2502(4) 0.1097(4)
O84 O 0.6852(5) 0.8285(4) 0.6802(4)
C97 C 0.7266(8) 0.9059(7) 0.7106(7)
H161 H 0.6837 0.9446 0.7005
H162 H 0.7800 0.9230 0.6847
H163 H 0.7446 0.9031 0.7676
O85 O -0.4328(5) -0.1999(4) -0.2089(4)
O86 O -0.3477(4) -0.5515(3) -0.2563(3)
O87 O -0.2619(4) 0.0857(3) 0.3657(3)
O88 O 0.2009(7) 0.1207(5) 0.5749(5)
O89 O 0.6889(10) 0.1665(8) 0.1329(8)
O90 O -0.4226(7) 0.0335(8) 0.1174(7)
O91 O 0.0752(9) 0.7644(7) 0.4005(14)
O92 O 0.2656(11) -0.5335(8) 0.3951(10)
loop_
_geom_bond_atom_site_label_1
_geom_bond_atom_site_label_2
_geom_bond_site_symmetry_1
_geom_bond_site_symmetry_2
Na1 O17 1_555 1_555
Na2 O27 1_555 1_555
O1 C1 1_555 1_555
O2 H1 1_555 1_555
O3 H2 1_555 1_555
O4 C4 1_555 1_555
O5 H3 1_555 1_555
O6 C7 1_555 1_555
O7 H4 1_555 1_555
O8 H5 1_555 1_555
O9 C10 1_555 1_555
O10 H6 1_555 1_555
O11 C13 1_555 1_555
O12 H7 1_555 1_555
O13 H8 1_555 1_555
O14 C16 1_555 1_555
O15 H9 1_555 1_555
O16 C19 1_555 1_555
O17 H10 1_555 1_555
O18 Na1 1_555 1_555
H11 O18 1_555 1_555
O19 C22 1_555 1_555
O20 H12 1_555 1_555
O21 C25 1_555 1_555
O22 H13 1_555 1_555
O23 H14 1_555 1_555
O24 C28 1_555 1_555
O25 H15 1_555 1_555
O26 C31 1_555 1_555
O27 H16 1_555 1_555
O28 H17 1_555 1_555
O29 C34 1_555 1_555
O30 H18 1_555 1_555
O31 C37 1_555 1_555
O32 H19 1_555 1_555
O33 H20 1_555 1_555
O34 C40 1_555 1_555
O35 H21 1_555 1_555
O36 C43 1_555 1_555
O37 H22 1_555 1_555
O38 H23 1_555 1_555
O39 C1 1_555 1_555
O40 H24 1_555 1_555
O41 C49 1_555 1_555
O42 Na1 1_555 1_555
H25 O42 1_555 1_555
O43 Na1 1_555 1_555
H26 O43 1_555 1_555
O44 C52 1_555 1_555
O45 H27 1_555 1_555
O46 C55 1_555 1_555
O47 H28 1_555 1_555
O48 H29 1_555 1_555
O49 C58 1_555 1_555
O50 H30 1_555 1_555
O51 C61 1_555 1_555
O52 H31 1_555 1_555
O53 H32 1_555 1_555
O54 C64 1_555 1_555
O55 H33 1_555 1_555
O56 C67 1_555 1_555
O57 H34 1_555 1_555
O58 H35 1_555 1_555
O59 C70 1_555 1_555
O60 H36 1_555 1_555
O61 C73 1_555 1_555
O62 H37 1_555 1_555
O63 H38 1_555 1_555
O64 C76 1_555 1_555
O65 H39 1_555 1_555
O66 C79 1_555 1_555
O67 H40 1_555 1_555
O68 H41 1_555 1_555
O69 C82 1_555 1_555
O70 H42 1_555 1_555
O71 C85 1_555 1_555
O72 H43 1_555 1_555
O73 H44 1_555 1_555
O74 C88 1_555 1_555
O75 H45 1_555 1_555
O76 C91 1_555 1_555
O77 H46 1_555 1_555
O78 H47 1_555 1_555
O79 C49 1_555 1_555
O80 H48 1_555 1_555
C1 H49 1_555 1_555
C2 O2 1_555 1_555
H50 C2 1_555 1_555
C3 O3 1_555 1_555
H51 C3 1_555 1_555
C4 C3 1_555 1_555
H52 C4 1_555 1_555
C5 O1 1_555 1_555
H53 C5 1_555 1_555
C6 O5 1_555 1_555
H54 C6 1_555 1_555
H55 C6 1_555 1_555
C7 O4 1_555 1_555
H56 C7 1_555 1_555
C8 O7 1_555 1_555
H57 C8 1_555 1_555
C9 O8 1_555 1_555
H58 C9 1_555 1_555
C10 C9 1_555 1_555
H59 C10 1_555 1_555
C11 O6 1_555 1_555
H60 C11 1_555 1_555
C12 O10 1_555 1_555
H61 C12 1_555 1_555
H62 C12 1_555 1_555
C13 O9 1_555 1_555
H63 C13 1_555 1_555
C14 O12 1_555 1_555
H64 C14 1_555 1_555
C15 O13 1_555 1_555
H65 C15 1_555 1_555
C16 C15 1_555 1_555
H66 C16 1_555 1_555
C17 O11 1_555 1_555
H67 C17 1_555 1_555
C18 O15 1_555 1_555
H68 C18 1_555 1_555
H69 C18 1_555 1_555
C19 O14 1_555 1_555
H70 C19 1_555 1_555
C20 O17 1_555 1_555
H71 C20 1_555 1_555
C21 O18 1_555 1_555
H72 C21 1_555 1_555
C22 C21 1_555 1_555
H73 C22 1_555 1_555
C23 O16 1_555 1_555
H74 C23 1_555 1_555
C24 O20 1_555 1_555
H75 C24 1_555 1_555
H76 C24 1_555 1_555
C25 O19 1_555 1_555
H77 C25 1_555 1_555
C26 O22 1_555 1_555
H78 C26 1_555 1_555
C27 O23 1_555 1_555
H79 C27 1_555 1_555
C28 C27 1_555 1_555
H80 C28 1_555 1_555
C29 O21 1_555 1_555
H81 C29 1_555 1_555
C30 O25 1_555 1_555
H82 C30 1_555 1_555
H83 C30 1_555 1_555
C31 O24 1_555 1_555
H84 C31 1_555 1_555
C32 O27 1_555 1_555
H85 C32 1_555 1_555
C33 O28 1_555 1_555
H86 C33 1_555 1_555
C34 C33 1_555 1_555
H87 C34 1_555 1_555
C35 O26 1_555 1_555
H88 C35 1_555 1_555
C36 O30 1_555 1_555
H89 C36 1_555 1_555
H90 C36 1_555 1_555
C37 O29 1_555 1_555
H91 C37 1_555 1_555
C38 O32 1_555 1_555
H92 C38 1_555 1_555
C39 O33 1_555 1_555
H93 C39 1_555 1_555
C40 C39 1_555 1_555
H94 C40 1_555 1_555
C41 O31 1_555 1_555
H95 C41 1_555 1_555
C42 O35 1_555 1_555
H96 C42 1_555 1_555
H97 C42 1_555 1_555
C43 O34 1_555 1_555
H98 C43 1_555 1_555
C44 O37 1_555 1_555
H99 C44 1_555 1_555
C45 O38 1_555 1_555
H100 C45 1_555 1_555
C46 O39 1_555 1_555
H101 C46 1_555 1_555
C47 O36 1_555 1_555
H102 C47 1_555 1_555
C48 O40 1_555 1_555
H103 C48 1_555 1_555
H104 C48 1_555 1_555
C49 H105 1_555 1_555
C50 O42 1_555 1_555
H106 C50 1_555 1_555
C51 O43 1_555 1_555
H107 C51 1_555 1_555
C52 C51 1_555 1_555
H108 C52 1_555 1_555
C53 O41 1_555 1_555
H109 C53 1_555 1_555
C54 O45 1_555 1_555
H110 C54 1_555 1_555
H111 C54 1_555 1_555
C55 O44 1_555 1_555
H112 C55 1_555 1_555
C56 O47 1_555 1_555
H113 C56 1_555 1_555
C57 O48 1_555 1_555
H114 C57 1_555 1_555
C58 C57 1_555 1_555
H115 C58 1_555 1_555
C59 O46 1_555 1_555
H116 C59 1_555 1_555
C60 O50 1_555 1_555
H117 C60 1_555 1_555
H118 C60 1_555 1_555
C61 O49 1_555 1_555
H119 C61 1_555 1_555
C62 O52 1_555 1_555
H120 C62 1_555 1_555
C63 O53 1_555 1_555
H121 C63 1_555 1_555
C64 C63 1_555 1_555
H122 C64 1_555 1_555
C65 O51 1_555 1_555
H123 C65 1_555 1_555
C66 O55 1_555 1_555
H124 C66 1_555 1_555
H125 C66 1_555 1_555
C67 O54 1_555 1_555
H126 C67 1_555 1_555
C68 O57 1_555 1_555
H127 C68 1_555 1_555
C69 O58 1_555 1_555
H128 C69 1_555 1_555
C70 C69 1_555 1_555
H129 C70 1_555 1_555
C71 O56 1_555 1_555
H130 C71 1_555 1_555
C72 O60 1_555 1_555
H131 C72 1_555 1_555
H132 C72 1_555 1_555
C73 O59 1_555 1_555
H133 C73 1_555 1_555
C74 O62 1_555 1_555
H134 C74 1_555 1_555
C75 O63 1_555 1_555
H135 C75 1_555 1_555
C76 C75 1_555 1_555
H136 C76 1_555 1_555
C77 O61 1_555 1_555
H137 C77 1_555 1_555
C78 O65 1_555 1_555
H138 C78 1_555 1_555
H139 C78 1_555 1_555
C79 O64 1_555 1_555
H140 C79 1_555 1_555
C80 O67 1_555 1_555
H141 C80 1_555 1_555
C81 O68 1_555 1_555
H142 C81 1_555 1_555
C82 C81 1_555 1_555
H143 C82 1_555 1_555
C83 O66 1_555 1_555
H144 C83 1_555 1_555
C84 O70 1_555 1_555
H145 C84 1_555 1_555
H146 C84 1_555 1_555
C85 O69 1_555 1_555
H147 C85 1_555 1_555
C86 O72 1_555 1_555
H148 C86 1_555 1_555
C87 O73 1_555 1_555
H149 C87 1_555 1_555
C88 C87 1_555 1_555
H150 C88 1_555 1_555
C89 O71 1_555 1_555
H151 C89 1_555 1_555
C90 O75 1_555 1_555
H152 C90 1_555 1_555
H153 C90 1_555 1_555
C91 O74 1_555 1_555
H154 C91 1_555 1_555
C92 O77 1_555 1_555
H155 C92 1_555 1_555
C93 O78 1_555 1_555
H156 C93 1_555 1_555
C94 O79 1_555 1_555
H157 C94 1_555 1_555
C95 O76 1_555 1_555
H158 C95 1_555 1_555
C96 O80 1_555 1_555
H159 C96 1_555 1_555
H160 C96 1_555 1_555
O81 Na2 1_555 1_555
O82 Na2 1_555 1_555
O83 Na2 1_555 1_555
O84 C97 1_555 1_555
C97 H161 1_555 1_555
H162 C97 1_555 1_555
H163 C97 1_555 1_555
Na1_2 O67 1_555 1_555
Na1_3 O2 1_555 1_555
Na2_2 O58 1_555 1_555
Na2_3 O12 1_555 1_555
O2_2 Na1 1_555 1_555
H1_2 O2_2 1_555 1_555
O12_2 Na2 1_555 1_555
O58_2 Na2 1_555 1_555
O67_2 Na1 1_555 1_555
C1 C2 1_555 1_555
C2 C3 1_555 1_555
C4 C5 1_555 1_555
C5 C6 1_555 1_555
C7 C8 1_555 1_555
C8 C9 1_555 1_555
C10 C11 1_555 1_555
C11 C12 1_555 1_555
C13 C14 1_555 1_555
C14 C15 1_555 1_555
C16 C17 1_555 1_555
C17 C18 1_555 1_555
C19 C20 1_555 1_555
C20 C21 1_555 1_555
C22 C23 1_555 1_555
C23 C24 1_555 1_555
C25 C26 1_555 1_555
C26 C27 1_555 1_555
C28 C29 1_555 1_555
C29 C30 1_555 1_555
C31 C32 1_555 1_555
C32 C33 1_555 1_555
C34 C35 1_555 1_555
C35 C36 1_555 1_555
C37 C38 1_555 1_555
C38 C39 1_555 1_555
C40 C41 1_555 1_555
C41 C42 1_555 1_555
C43 C44 1_555 1_555
C44 C45 1_555 1_555
C45 C46 1_555 1_555
C46 C47 1_555 1_555
C47 C48 1_555 1_555
C49 C50 1_555 1_555
C50 C51 1_555 1_555
C52 C53 1_555 1_555
C53 C54 1_555 1_555
C55 C56 1_555 1_555
C56 C57 1_555 1_555
C58 C59 1_555 1_555
C59 C60 1_555 1_555
C61 C62 1_555 1_555
C62 C63 1_555 1_555
C64 C65 1_555 1_555
C65 C66 1_555 1_555
C67 C68 1_555 1_555
C68 C69 1_555 1_555
C70 C71 1_555 1_555
C71 C72 1_555 1_555
C73 C74 1_555 1_555
C74 C75 1_555 1_555
C76 C77 1_555 1_555
C77 C78 1_555 1_555
C79 C80 1_555 1_555
C80 C81 1_555 1_555
C82 C83 1_555 1_555
C83 C84 1_555 1_555
C85 C86 1_555 1_555
C86 C87 1_555 1_555
C88 C89 1_555 1_555
C89 C90 1_555 1_555
C91 C92 1_555 1_555
C92 C93 1_555 1_555
C93 C94 1_555 1_555
C94 C95 1_555 1_555
C95 C96 1_555 1_555

#END
