
#######################################################################
#
#                 Cambridge Crystallographic Data Centre
#                                CCDC 
#
#######################################################################
#
# If this CIF has been generated from an entry in the Cambridge 
# Structural Database, then it will include bibliographic, chemical, 
# crystal, experimental, refinement or atomic coordinate data resulting 
# from the CCDC's data processing and validation procedures.
#
#######################################################################

data_YAPRUE
_symmetry_cell_setting           tetragonal
_symmetry_space_group_name_H-M   'I 4'
_symmetry_Int_Tables_number      79
_space_group_name_Hall           'I 4'
loop_
_symmetry_equiv_pos_site_id
_symmetry_equiv_pos_as_xyz
1 x,y,z
2 -x,-y,z
3 -y,x,z
4 y,-x,z
5 1/2+x,1/2+y,1/2+z
6 1/2-x,1/2-y,1/2+z
7 1/2-y,1/2+x,1/2+z
8 1/2+y,1/2-x,1/2+z
_cell_length_a                   24.136(6)
_cell_length_b                   24.136(6)
_cell_length_c                   15.454(4)
_cell_angle_alpha                90
_cell_angle_beta                 90
_cell_angle_gamma                90
_cell_volume                     9002.67
loop_
_atom_site_label
_atom_site_type_symbol
_atom_site_fract_x
_atom_site_fract_y
_atom_site_fract_z
O21 O 0.8199(3) 0.6646(3) 1.3580(4)
C25 C 0.8611(4) 0.6306(5) 1.3931(8)
H41 H 0.8968 0.6395 1.3664
H42 H 0.8519 0.5917 1.3820
H43 H 0.8633 0.6368 1.4557
Cs1 Cs 0.66817(2) 0.83089(2) 1.38517(7)
O1 O 0.7518(2) 0.8447(2) 1.5456(4)
O2 O 0.7537(3) 0.8875(2) 1.7735(4)
H1 H 0.7255 0.8711 1.8111
O3 O 0.8473(3) 0.8092(3) 1.7647(4)
H2 H 0.8463 0.8342 1.8146
O4 O 0.8892(2) 0.7905(2) 1.5986(4)
O5 O 0.7769(3) 0.7489(3) 1.4585(4)
H3 H 0.7789 0.7271 1.4051
O6 O 0.9388(3) 0.7359(3) 1.5055(4)
O7 O 1.0166(2) 0.7093(2) 1.7435(4)
H4 H 1.0513 0.7289 1.7558
O8 O 0.7714(2) 0.9296(2) 1.6076(4)
O9 O 0.8971(3) 0.7083(3) 1.7294(5)
H5 H 0.8815 0.7455 1.7369
O10 O 0.9955(7) 0.7889(6) 1.3641(8)
H6 H 0.9592 0.7717 1.3542
O11 O 0.6183(2) 0.7523(2) 1.5240(4)
O12 O 0.6541(3) 0.7530(3) 1.7526(4)
H7 H 0.6626 0.7850 1.7893
O13 O 0.5395(3) 0.7926(3) 1.7526(5)
H8 H 0.5179 0.8223 1.7257
O14 O 0.4782(2) 0.7466(2) 1.6149(4)
O15 O 0.5363(3) 0.7952(3) 1.4152(4)
H9 H 0.5204 0.7978 1.3569
O16 O 0.4080(2) 0.7540(3) 1.5101(4)
O17 O 0.4179(3) 0.8098(3) 1.7294(5)
H10 H 0.4573 0.8163 1.7177
O18 O 0.3199(3) 0.7431(3) 1.7385(4)
H11 H 0.2843 0.7321 1.7133
O19 O 0.6546(2) 0.6842(2) 1.6168(4)
O20 O 0.4043(3) 0.6678(3) 1.3818(6)
H12 H 0.4002 0.6967 1.3378
C1 C 0.7437(3) 0.8797(3) 1.6192(5)
H13 H 0.7032 0.8876 1.6247
C2 C 0.7628(3) 0.8523(4) 1.7011(6)
H14 H 0.7411 0.8174 1.7095
C3 C 0.8251(4) 0.8370(3) 1.6902(5)
H15 H 0.8468 0.8717 1.6802
C4 C 0.8316(3) 0.8000(3) 1.6128(6)
H16 H 0.8116 0.7642 1.6219
C5 C 0.8086(3) 0.8304(3) 1.5331(5)
H17 H 0.8306 0.8650 1.5237
C6 C 0.8109(4) 0.7952(4) 1.4511(5)
H18 H 0.7990 0.8177 1.4010
H19 H 0.8496 0.7831 1.4407
C7 C 0.9048(3) 0.7352(3) 1.5794(5)
H20 H 0.8705 0.7136 1.5657
C8 C 0.9333(3) 0.7081(3) 1.6563(6)
H21 H 0.9418 0.6687 1.6410
C9 C 0.9871(3) 0.7377(3) 1.6754(5)
H22 H 0.9791 0.7766 1.6939
C10 C 0.7385(3) 0.9776(3) 1.5927(5)
H23 H 0.6999 0.9664 1.5768
C11 C 0.9889(4) 0.7649(4) 1.5178(6)
H24 H 0.9808 0.8046 1.5316
C12 C 1.0227(5) 0.7615(6) 1.4328(7)
H25 H 1.0595 0.7784 1.4419
H26 H 1.0283 0.7221 1.4173
C13 C 0.6503(3) 0.7424(3) 1.5992(6)
H27 H 0.6883 0.7576 1.5898
C14 C 0.6246(4) 0.7709(3) 1.6784(6)
H28 H 0.6295 0.8119 1.6722
C15 C 0.5632(4) 0.7585(3) 1.6868(6)
H29 H 0.5590 0.7189 1.7049
C16 C 0.5337(3) 0.7660(3) 1.6025(5)
H30 H 0.5331 0.8062 1.5870
C17 C 0.5627(3) 0.7333(3) 1.5307(6)
H31 H 0.5632 0.6932 1.5472
C18 C 0.5386(4) 0.7385(4) 1.4410(6)
H32 H 0.5616 0.7174 1.3996
H33 H 0.5008 0.7226 1.4403
C19 C 0.4329(4) 0.7776(4) 1.5837(7)
H34 H 0.4473 0.8149 1.5667
C20 C 0.3930(4) 0.7859(4) 1.6563(6)
H35 H 0.3642 0.8126 1.6354
C21 C 0.3633(4) 0.7319(3) 1.6783(5)
H36 H 0.3903 0.7054 1.7048
C22 C 0.7069(3) 0.6601(3) 1.5959(6)
H37 H 0.7320 0.6893 1.5719
C23 C 0.3863(3) 0.7001(3) 1.5296(6)
H38 H 0.4162 0.6760 1.5538
C24 C 0.3645(4) 0.6756(4) 1.4471(6)
H39 H 0.3473 0.6393 1.4605
H40 H 0.3349 0.7001 1.4244
Cs1C Cs 0.83089(2) 1.33183(2) 1.38517(7)
Cs1A Cs 1.33183(2) 1.16911(2) 1.38517(7)
Cs1B Cs 1.16911(2) 0.66817(2) 1.38517(7)
Cs1E Cs 0.83183(2) 0.66911(2) 1.88517(7)
Cs1G Cs 0.33089(2) 0.83183(2) 1.88517(7)
Cs1F Cs 0.66911(2) 1.16817(2) 1.88517(7)
Cs1D Cs 1.16817(2) 1.33089(2) 1.88517(7)
Cs1G_2 Cs 1.33089(2) 0.83183(2) 1.88517(7)
Cs1C_2 Cs 0.83089(2) 0.33183(2) 1.38517(7)
Cs1F_2 Cs 0.66911(2) 0.16817(2) 1.88517(7)
Cs1A_2 Cs 0.33183(2) 0.16911(2) 1.38517(7)
Cs1D_2 Cs 0.16817(2) 0.33089(2) 1.88517(7)
Cs1B_2 Cs 0.16911(2) 0.66817(2) 1.38517(7)
O1C O 0.8447(2) 1.2482(2) 1.5456(4)
O1A O 1.2482(2) 1.1553(2) 1.5456(4)
O1B O 1.1553(2) 0.7518(2) 1.5456(4)
O2C O 0.8875(2) 1.2463(3) 1.7735(4)
O2A O 1.2463(3) 1.1125(2) 1.7735(4)
O2B O 1.1125(2) 0.7537(3) 1.7735(4)
H1C H 0.8711 1.2745 1.8111
H1A H 1.2745 1.1289 1.8111
H1B H 1.1289 0.7255 1.8111
O3C O 0.8092(3) 1.1527(3) 1.7647(4)
O3A O 1.1527(3) 1.1908(3) 1.7647(4)
O3B O 1.1908(3) 0.8473(3) 1.7647(4)
H2C H 0.8342 1.1537 1.8146
H2A H 1.1537 1.1658 1.8146
H2B H 1.1658 0.8463 1.8146
O4C O 0.7905(2) 1.1108(2) 1.5986(4)
O4A O 1.1108(2) 1.2095(2) 1.5986(4)
O4B O 1.2095(2) 0.8892(2) 1.5986(4)
O5C O 0.7489(3) 1.2231(3) 1.4585(4)
O5A O 1.2231(3) 1.2511(3) 1.4585(4)
O5B O 1.2511(3) 0.7769(3) 1.4585(4)
H3C H 0.7271 1.2211 1.4051
H3A H 1.2211 1.2729 1.4051
H3B H 1.2729 0.7789 1.4051
O6B O 1.2641(3) 0.9388(3) 1.5055(4)
O6A O 1.0612(3) 1.2641(3) 1.5055(4)
O6C O 0.7359(3) 1.0612(3) 1.5055(4)
O7C O 0.7093(2) 0.9834(2) 1.7435(4)
O7A O 0.9834(2) 1.2907(2) 1.7435(4)
O7B O 1.2907(2) 1.0166(2) 1.7435(4)
H4C H 0.7289 0.9487 1.7558
H4A H 0.9487 1.2711 1.7558
H4B H 1.2711 1.0513 1.7558
O8C O 0.9296(2) 1.2286(2) 1.6076(4)
O8A O 1.2286(2) 1.0704(2) 1.6076(4)
O8B O 1.0704(2) 0.7714(2) 1.6076(4)
O9C O 0.7083(3) 1.1029(3) 1.7294(5)
O9A O 1.1029(3) 1.2917(3) 1.7294(5)
O9B O 1.2917(3) 0.8971(3) 1.7294(5)
O9E O 0.6029(3) 0.7917(3) 1.2294(5)
O9F O 0.7917(3) 1.3971(3) 1.2294(5)
O9D O 1.3971(3) 1.2083(3) 1.2294(5)
O9G O 1.2083(3) 0.6029(3) 1.2294(5)
H5C H 0.7455 1.1185 1.7369
H5A H 1.1185 1.2545 1.7369
H5B H 1.2545 0.8815 1.7369
H5E H 0.6185 0.7545 1.2369
H5F H 0.7545 1.3815 1.2369
H5D H 1.3815 1.2455 1.2369
H5G H 1.2455 0.6185 1.2369
O10B O 1.2111(6) 0.9955(7) 1.3641(8)
O10A O 1.0045(7) 1.2111(6) 1.3641(8)
O10C O 0.7889(6) 1.0045(7) 1.3641(8)
H6B H 1.2283 0.9592 1.3542
H6A H 1.0408 1.2283 1.3542
H6C H 0.7717 1.0408 1.3542
O11C O 0.7523(2) 0.3817(2) 1.5240(4)
O11A O 0.3817(2) 0.2477(2) 1.5240(4)
O11B O 0.2477(2) 0.6183(2) 1.5240(4)
O11C_2 O 0.7523(2) 1.3817(2) 1.5240(4)
O11A_2 O 1.3817(2) 1.2477(2) 1.5240(4)
O11B_2 O 1.2477(2) 0.6183(2) 1.5240(4)
O12C O 0.7530(3) 0.3459(3) 1.7526(4)
O12A O 0.3459(3) 0.2470(3) 1.7526(4)
O12B O 0.2470(3) 0.6541(3) 1.7526(4)
H7C H 0.7850 0.3374 1.7893
H7A H 0.3374 0.2150 1.7893
H7B H 0.2150 0.6626 1.7893
O13C O 0.7926(3) 0.4605(3) 1.7526(5)
O13A O 0.4605(3) 0.2074(3) 1.7526(5)
O13B O 0.2074(3) 0.5395(3) 1.7526(5)
H8C H 0.8223 0.4821 1.7257
H8A H 0.4821 0.1777 1.7257
H8B H 0.1777 0.5179 1.7257
O14C O 0.7466(2) 0.5218(2) 1.6149(4)
O14A O 0.5218(2) 0.2534(2) 1.6149(4)
O14B O 0.2534(2) 0.4782(2) 1.6149(4)
O15C O 0.7952(3) 0.4637(3) 1.4152(4)
O15A O 0.4637(3) 0.2048(3) 1.4152(4)
O15B O 0.2048(3) 0.5363(3) 1.4152(4)
O15C_2 O 0.7952(3) 1.4637(3) 1.4152(4)
O15A_2 O 1.4637(3) 1.2048(3) 1.4152(4)
O15B_2 O 1.2048(3) 0.5363(3) 1.4152(4)
H9C H 0.7978 0.4796 1.3569
H9A H 0.4796 0.2022 1.3569
H9B H 0.2022 0.5204 1.3569
H9C_2 H 0.7978 1.4796 1.3569
H9A_2 H 1.4796 1.2022 1.3569
H9B_2 H 1.2022 0.5204 1.3569
O16B O 0.2460(3) 0.4080(2) 1.5101(4)
O16A O 0.5920(2) 0.2460(3) 1.5101(4)
O16C O 0.7540(3) 0.5920(2) 1.5101(4)
O17C O 0.8098(3) 0.5821(3) 1.7294(5)
O17A O 0.5821(3) 0.1902(3) 1.7294(5)
O17B O 0.1902(3) 0.4179(3) 1.7294(5)
O17F O 0.6902(3) 0.9179(3) 1.2294(5)
O17D O 0.9179(3) 1.3098(3) 1.2294(5)
O17G O 1.3098(3) 1.0821(3) 1.2294(5)
O17E O 1.0821(3) 0.6902(3) 1.2294(5)
H10C H 0.8163 0.5427 1.7177
H10A H 0.5427 0.1837 1.7177
H10B H 0.1837 0.4573 1.7177
H10F H 0.6837 0.9573 1.2177
H10D H 0.9573 1.3163 1.2177
H10G H 1.3163 1.0427 1.2177
H10E H 1.0427 0.6837 1.2177
O18C O 0.7431(3) 0.6801(3) 1.7385(4)
O18A O 0.6801(3) 0.2569(3) 1.7385(4)
O18B O 0.2569(3) 0.3199(3) 1.7385(4)
O18F O 0.7569(3) 0.8199(3) 1.2385(4)
O18D O 0.8199(3) 1.2431(3) 1.2385(4)
O18G O 1.2431(3) 1.1801(3) 1.2385(4)
O18E O 1.1801(3) 0.7569(3) 1.2385(4)
H11C H 0.7321 0.7157 1.7133
H11A H 0.7157 0.2679 1.7133
H11B H 0.2679 0.2843 1.7133
H11F H 0.7679 0.7843 1.2133
H11D H 0.7843 1.2321 1.2133
H11G H 1.2321 1.2157 1.2133
H11E H 1.2157 0.7679 1.2133
O19C O 0.6842(2) 0.3454(2) 1.6168(4)
O19A O 0.3454(2) 0.3158(2) 1.6168(4)
O19B O 0.3158(2) 0.6546(2) 1.6168(4)
O20B O 0.3322(3) 0.4043(3) 1.3818(6)
O20A O 0.5957(3) 0.3322(3) 1.3818(6)
O20C O 0.6678(3) 0.5957(3) 1.3818(6)
H12B H 0.3033 0.4002 1.3378
H12A H 0.5998 0.3033 1.3378
H12C H 0.6967 0.5998 1.3378
C1C C 0.8797(3) 1.2563(3) 1.6192(5)
C1A C 1.2563(3) 1.1203(3) 1.6192(5)
C1B C 1.1203(3) 0.7437(3) 1.6192(5)
H13B H 1.1124 0.7032 1.6247
H13A H 1.2968 1.1124 1.6247
H13C H 0.8876 1.2968 1.6247
C2C C 0.8523(4) 1.2372(3) 1.7011(6)
C2A C 1.2372(3) 1.1477(4) 1.7011(6)
C2B C 1.1477(4) 0.7628(3) 1.7011(6)
H14B H 1.1826 0.7411 1.7095
H14A H 1.2589 1.1826 1.7095
H14C H 0.8174 1.2589 1.7095
C3C C 0.8370(3) 1.1749(4) 1.6902(5)
C3A C 1.1749(4) 1.1630(3) 1.6902(5)
C3B C 1.1630(3) 0.8251(4) 1.6902(5)
H15B H 1.1283 0.8468 1.6802
H15A H 1.1532 1.1283 1.6802
H15C H 0.8717 1.1532 1.6802
C4C C 0.8000(3) 1.1684(3) 1.6128(6)
C4A C 1.1684(3) 1.2000(3) 1.6128(6)
C4B C 1.2000(3) 0.8316(3) 1.6128(6)
H16C H 0.7642 1.1884 1.6219
H16A H 1.1884 1.2358 1.6219
H16B H 1.2358 0.8116 1.6219
C5C C 0.8304(3) 1.1914(3) 1.5331(5)
C5A C 1.1914(3) 1.1696(3) 1.5331(5)
C5B C 1.1696(3) 0.8086(3) 1.5331(5)
H17C H 0.8650 1.1694 1.5237
H17A H 1.1694 1.1350 1.5237
H17B H 1.1350 0.8306 1.5237
C6C C 0.7952(4) 1.1891(4) 1.4511(5)
C6A C 1.1891(4) 1.2048(4) 1.4511(5)
C6B C 1.2048(4) 0.8109(4) 1.4511(5)
H18C H 0.8177 1.2010 1.4010
H18A H 1.2010 1.1823 1.4010
H18B H 1.1823 0.7990 1.4010
H19C H 0.7831 1.1504 1.4407
H19A H 1.1504 1.2169 1.4407
H19B H 1.2169 0.8496 1.4407
C7C C 0.7352(3) 1.0952(3) 1.5794(5)
C7A C 1.0952(3) 1.2648(3) 1.5794(5)
C7B C 1.2648(3) 0.9048(3) 1.5794(5)
H20B H 1.2864 0.8705 1.5657
H20A H 1.1295 1.2864 1.5657
H20C H 0.7136 1.1295 1.5657
C8C C 0.7081(3) 1.0667(3) 1.6563(6)
C8A C 1.0667(3) 1.2919(3) 1.6563(6)
C8B C 1.2919(3) 0.9333(3) 1.6563(6)
H21B H 1.3313 0.9418 1.6410
H21A H 1.0582 1.3313 1.6410
H21C H 0.6687 1.0582 1.6410
C9C C 0.7377(3) 1.0129(3) 1.6754(5)
C9A C 1.0129(3) 1.2623(3) 1.6754(5)
C9B C 1.2623(3) 0.9871(3) 1.6754(5)
H22B H 1.2234 0.9791 1.6939
H22A H 1.0209 1.2234 1.6939
H22C H 0.7766 1.0209 1.6939
C10C C 0.9776(3) 1.2615(3) 1.5927(5)
C10A C 1.2615(3) 1.0224(3) 1.5927(5)
C10B C 1.0224(3) 0.7385(3) 1.5927(5)
H23B H 1.0336 0.6999 1.5768
H23A H 1.3001 1.0336 1.5768
H23C H 0.9664 1.3001 1.5768
C11B C 1.2351(4) 0.9889(4) 1.5178(6)
C11A C 1.0111(4) 1.2351(4) 1.5178(6)
C11C C 0.7649(4) 1.0111(4) 1.5178(6)
H24B H 1.1954 0.9808 1.5316
H24A H 1.0192 1.1954 1.5316
H24C H 0.8046 1.0192 1.5316
C12B C 1.2385(6) 1.0227(5) 1.4328(7)
C12A C 0.9773(5) 1.2385(6) 1.4328(7)
C12C C 0.7615(6) 0.9773(5) 1.4328(7)
H25B H 1.2216 1.0595 1.4419
H25A H 0.9405 1.2216 1.4419
H25C H 0.7784 0.9405 1.4419
H26B H 1.2779 1.0283 1.4173
H26A H 0.9717 1.2779 1.4173
H26C H 0.7221 0.9717 1.4173
C13C C 0.7424(3) 0.3497(3) 1.5992(6)
C13A C 0.3497(3) 0.2576(3) 1.5992(6)
C13B C 0.2576(3) 0.6503(3) 1.5992(6)
H27B H 0.2424 0.6883 1.5898
H27A H 0.3117 0.2424 1.5898
H27C H 0.7576 0.3117 1.5898
C14C C 0.7709(3) 0.3754(4) 1.6784(6)
C14A C 0.3754(4) 0.2291(3) 1.6784(6)
C14B C 0.2291(3) 0.6246(4) 1.6784(6)
H28B H 0.1881 0.6295 1.6722
H28A H 0.3705 0.1881 1.6722
H28C H 0.8119 0.3705 1.6722
C15C C 0.7585(3) 0.4368(4) 1.6868(6)
C15A C 0.4368(4) 0.2415(3) 1.6868(6)
C15B C 0.2415(3) 0.5632(4) 1.6868(6)
H29B H 0.2811 0.5590 1.7049
H29A H 0.4410 0.2811 1.7049
H29C H 0.7189 0.4410 1.7049
C16C C 0.7660(3) 0.4663(3) 1.6025(5)
C16A C 0.4663(3) 0.2340(3) 1.6025(5)
C16B C 0.2340(3) 0.5337(3) 1.6025(5)
H30C H 0.8062 0.4669 1.5870
H30A H 0.4669 0.1938 1.5870
H30B H 0.1938 0.5331 1.5870
C17C C 0.7333(3) 0.4373(3) 1.5307(6)
C17A C 0.4373(3) 0.2667(3) 1.5307(6)
C17B C 0.2667(3) 0.5627(3) 1.5307(6)
H31C H 0.6932 0.4368 1.5472
H31A H 0.4368 0.3068 1.5472
H31B H 0.3068 0.5632 1.5472
C18C C 0.7385(4) 0.4614(4) 1.4410(6)
C18A C 0.4614(4) 0.2615(4) 1.4410(6)
C18B C 0.2615(4) 0.5386(4) 1.4410(6)
H32C H 0.7174 0.4384 1.3996
H32A H 0.4384 0.2826 1.3996
H32B H 0.2826 0.5616 1.3996
H33C H 0.7226 0.4992 1.4403
H33A H 0.4992 0.2774 1.4403
H33B H 0.2774 0.5008 1.4403
C19C C 0.7776(4) 0.5671(4) 1.5837(7)
C19A C 0.5671(4) 0.2224(4) 1.5837(7)
C19B C 0.2224(4) 0.4329(4) 1.5837(7)
H34B H 0.1851 0.4473 1.5667
H34A H 0.5527 0.1851 1.5667
H34C H 0.8149 0.5527 1.5667
C20C C 0.7859(4) 0.6070(4) 1.6563(6)
C20A C 0.6070(4) 0.2141(4) 1.6563(6)
C20B C 0.2141(4) 0.3930(4) 1.6563(6)
H35B H 0.1874 0.3642 1.6354
H35A H 0.6358 0.1874 1.6354
H35C H 0.8126 0.6358 1.6354
C21C C 0.7319(3) 0.6367(4) 1.6783(5)
C21A C 0.6367(4) 0.2681(3) 1.6783(5)
C21B C 0.2681(3) 0.3633(4) 1.6783(5)
H36B H 0.2946 0.3903 1.7048
H36A H 0.6097 0.2946 1.7048
H36C H 0.7054 0.6097 1.7048
C22C C 0.6601(3) 0.2931(3) 1.5959(6)
C22A C 0.2931(3) 0.3399(3) 1.5959(6)
C22B C 0.3399(3) 0.7069(3) 1.5959(6)
H37B H 0.3107 0.7320 1.5719
H37A H 0.2680 0.3107 1.5719
H37C H 0.6893 0.2680 1.5719
C23B C 0.2999(3) 0.3863(3) 1.5296(6)
C23A C 0.6137(3) 0.2999(3) 1.5296(6)
C23C C 0.7001(3) 0.6137(3) 1.5296(6)
H38B H 0.3240 0.4162 1.5538
H38A H 0.5838 0.3240 1.5538
H38C H 0.6760 0.5838 1.5538
C24B C 0.3244(4) 0.3645(4) 1.4471(6)
C24A C 0.6355(4) 0.3244(4) 1.4471(6)
C24C C 0.6756(4) 0.6355(4) 1.4471(6)
H39B H 0.3607 0.3473 1.4605
H39A H 0.6527 0.3607 1.4605
H39C H 0.6393 0.6527 1.4605
H40B H 0.2999 0.3349 1.4244
H40A H 0.6651 0.2999 1.4244
H40C H 0.7001 0.6651 1.4244
loop_
_geom_bond_atom_site_label_1
_geom_bond_atom_site_label_2
_geom_bond_site_symmetry_1
_geom_bond_site_symmetry_2
Cs1 O1 1_555 1_555
O1 C1 1_555 1_555
O2 H1 1_555 1_555
O3 H2 1_555 1_555
O4 C4 1_555 1_555
O5 Cs1 1_555 1_555
H3 O5 1_555 1_555
O6 C7 1_555 1_555
O7 H4 1_555 1_555
O8 C1 1_555 1_555
O9 H5 1_555 1_555
O10 H6 1_555 1_555
O11 Cs1 1_555 1_555
O12 H7 1_555 1_555
O13 H8 1_555 1_555
O14 C16 1_555 1_555
O15 Cs1 1_555 1_555
H9 O15 1_555 1_555
O16 C19 1_555 1_555
O17 H10 1_555 1_555
O18 H11 1_555 1_555
O19 C13 1_555 1_555
O20 H12 1_555 1_555
O21 C25 1_555 1_555
C1 H13 1_555 1_555
C2 O2 1_555 1_555
H14 C2 1_555 1_555
C3 O3 1_555 1_555
H15 C3 1_555 1_555
C4 C3 1_555 1_555
H16 C4 1_555 1_555
C5 O1 1_555 1_555
H17 C5 1_555 1_555
C6 O5 1_555 1_555
H18 C6 1_555 1_555
H19 C6 1_555 1_555
C7 O4 1_555 1_555
H20 C7 1_555 1_555
C8 O9 1_555 1_555
H21 C8 1_555 1_555
C9 O7 1_555 1_555
H22 C9 1_555 1_555
C10 O8 1_555 1_555
H23 C10 1_555 1_555
C11 O6 1_555 1_555
H24 C11 1_555 1_555
C12 O10 1_555 1_555
H25 C12 1_555 1_555
H26 C12 1_555 1_555
C13 O11 1_555 1_555
H27 C13 1_555 1_555
C14 O12 1_555 1_555
H28 C14 1_555 1_555
C15 O13 1_555 1_555
H29 C15 1_555 1_555
C16 C15 1_555 1_555
H30 C16 1_555 1_555
C17 O11 1_555 1_555
H31 C17 1_555 1_555
C18 O15 1_555 1_555
H32 C18 1_555 1_555
H33 C18 1_555 1_555
C19 O14 1_555 1_555
H34 C19 1_555 1_555
C20 O17 1_555 1_555
H35 C20 1_555 1_555
C21 O18 1_555 1_555
H36 C21 1_555 1_555
C22 O19 1_555 1_555
H37 C22 1_555 1_555
C23 O16 1_555 1_555
H38 C23 1_555 1_555
C24 O20 1_555 1_555
H39 C24 1_555 1_555
H40 C24 1_555 1_555
C25 H41 1_555 1_555
H42 C25 1_555 1_555
H43 C25 1_555 1_555
Cs1C O1C 1_555 1_555
Cs1A O1A 1_555 1_555
Cs1B O1B 1_555 1_555
Cs1E O9 1_555 1_555
Cs1G O17 1_555 1_555
Cs1F O9C 1_555 1_555
Cs1D O9A 1_555 1_555
Cs1G_2 O9B 1_555 1_555
Cs1C_2 O11C 1_555 1_555
Cs1F_2 O17A 1_555 1_555
Cs1A_2 O11A 1_555 1_555
Cs1D_2 O17B 1_555 1_555
Cs1B_2 O11B 1_555 1_555
O1C C1C 1_555 1_555
O1A C1A 1_555 1_555
O1B C1B 1_555 1_555
O2C H1C 1_555 1_555
O2A H1A 1_555 1_555
O2B H1B 1_555 1_555
O3C H2C 1_555 1_555
O3A H2A 1_555 1_555
O3B H2B 1_555 1_555
O4C C4C 1_555 1_555
O4A C4A 1_555 1_555
O4B C4B 1_555 1_555
O5C Cs1C 1_555 1_555
O5A Cs1A 1_555 1_555
O5B Cs1B 1_555 1_555
H3C O5C 1_555 1_555
H3A O5A 1_555 1_555
H3B O5B 1_555 1_555
O6B C7B 1_555 1_555
O6A C7A 1_555 1_555
O6C C7C 1_555 1_555
O7C H4C 1_555 1_555
O7A H4A 1_555 1_555
O7B H4B 1_555 1_555
O8C C1C 1_555 1_555
O8A C1A 1_555 1_555
O8B C1B 1_555 1_555
O9C H5C 1_555 1_555
O9A H5A 1_555 1_555
O9B H5B 1_555 1_555
O9E Cs1 1_555 1_555
O9F Cs1C 1_555 1_555
O9D Cs1A 1_555 1_555
O9G Cs1B 1_555 1_555
H5E O9E 1_555 1_555
H5F O9F 1_555 1_555
H5D O9D 1_555 1_555
H5G O9G 1_555 1_555
O10B H6B 1_555 1_555
O10A H6A 1_555 1_555
O10C H6C 1_555 1_555
O11C C13C 1_555 1_555
O11A C13A 1_555 1_555
O11B C13B 1_555 1_555
O11C_2 Cs1C 1_555 1_555
O11A_2 Cs1A 1_555 1_555
O11B_2 Cs1B 1_555 1_555
O12C H7C 1_555 1_555
O12A H7A 1_555 1_555
O12B H7B 1_555 1_555
O13C H8C 1_555 1_555
O13A H8A 1_555 1_555
O13B H8B 1_555 1_555
O14C C16C 1_555 1_555
O14A C16A 1_555 1_555
O14B C16B 1_555 1_555
O15C Cs1C_2 1_555 1_555
O15A Cs1A_2 1_555 1_555
O15B Cs1B_2 1_555 1_555
O15C_2 Cs1C 1_555 1_555
O15A_2 Cs1A 1_555 1_555
O15B_2 Cs1B 1_555 1_555
H9C O15C 1_555 1_555
H9A O15A 1_555 1_555
H9B O15B 1_555 1_555
H9C_2 O15C_2 1_555 1_555
H9A_2 O15A_2 1_555 1_555
H9B_2 O15B_2 1_555 1_555
O16B C19B 1_555 1_555
O16A C19A 1_555 1_555
O16C C19C 1_555 1_555
O17C Cs1E 1_555 1_555
O17A H10A 1_555 1_555
O17B H10B 1_555 1_555
O17F Cs1 1_555 1_555
O17D Cs1C 1_555 1_555
O17G Cs1A 1_555 1_555
O17E Cs1B 1_555 1_555
H10C O17C 1_555 1_555
H10F O17F 1_555 1_555
H10D O17D 1_555 1_555
H10G O17G 1_555 1_555
H10E O17E 1_555 1_555
O18C Cs1E 1_555 1_555
O18A Cs1F_2 1_555 1_555
O18B Cs1D_2 1_555 1_555
O18F Cs1 1_555 1_555
O18D Cs1C 1_555 1_555
O18G Cs1A 1_555 1_555
O18E Cs1B 1_555 1_555
H11C O18C 1_555 1_555
H11A O18A 1_555 1_555
H11B O18B 1_555 1_555
H11F O18F 1_555 1_555
H11D O18D 1_555 1_555
H11G O18G 1_555 1_555
H11E O18E 1_555 1_555
O19C C13C 1_555 1_555
O19A C13A 1_555 1_555
O19B C13B 1_555 1_555
O20B H12B 1_555 1_555
O20A H12A 1_555 1_555
O20C H12C 1_555 1_555
C1C H13C 1_555 1_555
C1A H13A 1_555 1_555
C1B H13B 1_555 1_555
C2C O2C 1_555 1_555
C2A O2A 1_555 1_555
C2B O2B 1_555 1_555
H14B C2B 1_555 1_555
H14A C2A 1_555 1_555
H14C C2C 1_555 1_555
C3C O3C 1_555 1_555
C3A O3A 1_555 1_555
C3B O3B 1_555 1_555
H15B C3B 1_555 1_555
H15A C3A 1_555 1_555
H15C C3C 1_555 1_555
C4C C3C 1_555 1_555
C4A C3A 1_555 1_555
C4B C3B 1_555 1_555
H16C C4C 1_555 1_555
H16A C4A 1_555 1_555
H16B C4B 1_555 1_555
C5C O1C 1_555 1_555
C5A O1A 1_555 1_555
C5B O1B 1_555 1_555
H17C C5C 1_555 1_555
H17A C5A 1_555 1_555
H17B C5B 1_555 1_555
C6C O5C 1_555 1_555
C6A O5A 1_555 1_555
C6B O5B 1_555 1_555
H18C C6C 1_555 1_555
H18A C6A 1_555 1_555
H18B C6B 1_555 1_555
H19C C6C 1_555 1_555
H19A C6A 1_555 1_555
H19B C6B 1_555 1_555
C7C O4C 1_555 1_555
C7A O4A 1_555 1_555
C7B O4B 1_555 1_555
H20B C7B 1_555 1_555
H20A C7A 1_555 1_555
H20C C7C 1_555 1_555
C8C O9C 1_555 1_555
C8A O9A 1_555 1_555
C8B O9B 1_555 1_555
H21B C8B 1_555 1_555
H21A C8A 1_555 1_555
H21C C8C 1_555 1_555
C9C C10 1_555 1_555
C9A O7A 1_555 1_555
C9B O7B 1_555 1_555
H22B C9B 1_555 1_555
H22A C9A 1_555 1_555
H22C C9C 1_555 1_555
C10C O8C 1_555 1_555
C10A O8A 1_555 1_555
C10B C9 1_555 1_555
H23B C10B 1_555 1_555
H23A C10A 1_555 1_555
H23C C10C 1_555 1_555
C11B O6B 1_555 1_555
C11A O6A 1_555 1_555
C11C C10 1_555 1_555
H24B C11B 1_555 1_555
H24A C11A 1_555 1_555
H24C C11C 1_555 1_555
C12B O10B 1_555 1_555
C12A O10A 1_555 1_555
C12C O10C 1_555 1_555
H25B C12B 1_555 1_555
H25A C12A 1_555 1_555
H25C C12C 1_555 1_555
H26B C12B 1_555 1_555
H26A C12A 1_555 1_555
H26C C12C 1_555 1_555
C13C H27C 1_555 1_555
C13A H27A 1_555 1_555
C13B H27B 1_555 1_555
C14C O12C 1_555 1_555
C14A O12A 1_555 1_555
C14B O12B 1_555 1_555
H28B C14B 1_555 1_555
H28A C14A 1_555 1_555
H28C C14C 1_555 1_555
C15C O13C 1_555 1_555
C15A O13A 1_555 1_555
C15B O13B 1_555 1_555
H29B C15B 1_555 1_555
H29A C15A 1_555 1_555
H29C C15C 1_555 1_555
C16C C15C 1_555 1_555
C16A C15A 1_555 1_555
C16B C15B 1_555 1_555
H30C C16C 1_555 1_555
H30A C16A 1_555 1_555
H30B C16B 1_555 1_555
C17C O11C 1_555 1_555
C17A O11A 1_555 1_555
C17B O11B 1_555 1_555
H31C C17C 1_555 1_555
H31A C17A 1_555 1_555
H31B C17B 1_555 1_555
C18C O15C 1_555 1_555
C18A O15A 1_555 1_555
C18B O15B 1_555 1_555
H32C C18C 1_555 1_555
H32A C18A 1_555 1_555
H32B C18B 1_555 1_555
H33C C18C 1_555 1_555
H33A C18A 1_555 1_555
H33B C18B 1_555 1_555
C19C O14C 1_555 1_555
C19A O14A 1_555 1_555
C19B O14B 1_555 1_555
H34B C19B 1_555 1_555
H34A C19A 1_555 1_555
H34C C19C 1_555 1_555
C20C O17C 1_555 1_555
C20A O17A 1_555 1_555
C20B O17B 1_555 1_555
H35B C20B 1_555 1_555
H35A C20A 1_555 1_555
H35C C20C 1_555 1_555
C21C C22 1_555 1_555
C21A O18A 1_555 1_555
C21B O18B 1_555 1_555
H36B C21B 1_555 1_555
H36A C21A 1_555 1_555
H36C C21C 1_555 1_555
C22C O19C 1_555 1_555
C22A O19A 1_555 1_555
C22B C21 1_555 1_555
H37B C22B 1_555 1_555
H37A C22A 1_555 1_555
H37C C22C 1_555 1_555
C23B O16B 1_555 1_555
C23A O16A 1_555 1_555
C23C C22 1_555 1_555
H38B C23B 1_555 1_555
H38A C23A 1_555 1_555
H38C C23C 1_555 1_555
C24B O20B 1_555 1_555
C24A O20A 1_555 1_555
C24C O20C 1_555 1_555
H39B C24B 1_555 1_555
H39A C24A 1_555 1_555
H39C C24C 1_555 1_555
H40B C24B 1_555 1_555
H40A C24A 1_555 1_555
H40C C24C 1_555 1_555
O18 Cs1G 1_555 1_555
C1 C2 1_555 1_555
C2 C3 1_555 1_555
C4 C5 1_555 1_555
C5 C6 1_555 1_555
C7 C8 1_555 1_555
C8 C9 1_555 1_555
C11 C12 1_555 1_555
C11 C10B 1_555 1_555
C13 C14 1_555 1_555
C14 C15 1_555 1_555
C16 C17 1_555 1_555
C17 C18 1_555 1_555
C19 C20 1_555 1_555
C20 C21 1_555 1_555
C23 C24 1_555 1_555
C23 C22B 1_555 1_555
O6C C11C 1_555 1_555
O7C C9C 1_555 1_555
O8B C10B 1_555 1_555
O16C C23C 1_555 1_555
O18C C21C 1_555 1_555
O19B C22B 1_555 1_555
C1C C2C 1_555 1_555
C1A C2A 1_555 1_555
C1B C2B 1_555 1_555
C2C C3C 1_555 1_555
C2A C3A 1_555 1_555
C2B C3B 1_555 1_555
C4C C5C 1_555 1_555
C4A C5A 1_555 1_555
C4B C5B 1_555 1_555
C5C C6C 1_555 1_555
C5A C6A 1_555 1_555
C5B C6B 1_555 1_555
C7C C8C 1_555 1_555
C7A C8A 1_555 1_555
C7B C8B 1_555 1_555
C8C C9C 1_555 1_555
C8A C9A 1_555 1_555
C8B C9B 1_555 1_555
C9A C10C 1_555 1_555
C9B C10A 1_555 1_555
C10C C11A 1_555 1_555
C10A C11B 1_555 1_555
C11B C12B 1_555 1_555
C11A C12A 1_555 1_555
C11C C12C 1_555 1_555
C13C C14C 1_555 1_555
C13A C14A 1_555 1_555
C13B C14B 1_555 1_555
C14C C15C 1_555 1_555
C14A C15A 1_555 1_555
C14B C15B 1_555 1_555
C16C C17C 1_555 1_555
C16A C17A 1_555 1_555
C16B C17B 1_555 1_555
C17C C18C 1_555 1_555
C17A C18A 1_555 1_555
C17B C18B 1_555 1_555
C19C C20C 1_555 1_555
C19A C20A 1_555 1_555
C19B C20B 1_555 1_555
C20C C21C 1_555 1_555
C20A C21A 1_555 1_555
C20B C21B 1_555 1_555
C21A C22C 1_555 1_555
C21B C22A 1_555 1_555
C22C C23A 1_555 1_555
C22A C23B 1_555 1_555
C23B C24B 1_555 1_555
C23A C24A 1_555 1_555
C23C C24C 1_555 1_555

#END
