
#######################################################################
#
#                 Cambridge Crystallographic Data Centre
#                                CCDC 
#
#######################################################################
#
# If this CIF has been generated from an entry in the Cambridge 
# Structural Database, then it will include bibliographic, chemical, 
# crystal, experimental, refinement or atomic coordinate data resulting 
# from the CCDC's data processing and validation procedures.
#
#######################################################################

data_YAPSAL
_symmetry_cell_setting           trigonal
_symmetry_space_group_name_H-M   'P 32'
_symmetry_Int_Tables_number      145
_space_group_name_Hall           'P 32'
loop_
_symmetry_equiv_pos_site_id
_symmetry_equiv_pos_as_xyz
1 x,y,z
2 -y,x-y,2/3+z
3 -x+y,-x,1/3+z
_cell_length_a                   17.4843(2)
_cell_length_b                   17.4843(2)
_cell_length_c                   22.5856(5)
_cell_angle_alpha                90
_cell_angle_beta                 90
_cell_angle_gamma                120
_cell_volume                     5979.42
loop_
_atom_site_label
_atom_site_type_symbol
_atom_site_fract_x
_atom_site_fract_y
_atom_site_fract_z
Sr1 Sr 0.41921(5) 0.67413(5) 0.28771(3)
O1 O 0.4434(4) 0.6347(4) 0.1717(3)
O2 O 0.1357(4) 0.3745(4) 0.1970(3)
O3 O 0.0830(4) 0.2605(4) 0.1289(3)
O4 O -0.0749(5) 0.0305(4) 0.1670(3)
O5 O 0.4490(5) 0.8212(5) 0.3416(3)
O6 O 0.5512(5) 0.6931(5) 0.0027(3)
H1 H 0.5629 0.7456 0.0074
C1 C 0.0571(7) -0.1839(6) 0.0580(5)
H2 H -0.0040 -0.2361 0.0583
O7 O 0.3354(4) 0.5273(4) 0.1122(3)
C2 C -0.0727(7) 0.0436(7) 0.0613(5)
H3 H -0.1283 0.0466 0.0634
O8 O 0.0094(8) 0.1925(6) 0.0173(3)
H4 H 0.0465 0.2453 0.0252
O9 O 0.3219(4) 0.7191(5) 0.2320(3)
C3 C 0.3095(6) -0.1335(6) 0.0748(4)
H5 H 0.3402 -0.0716 0.0594
C4 C -0.0019(7) 0.1178(6) 0.1739(4)
H6 H 0.0539 0.1151 0.1748
O10 O 0.5369(4) 0.8175(4) 0.2360(3)
C5 C 0.0031(6) 0.1768(6) 0.1238(4)
H7 H -0.0492 0.1855 0.1249
C6 C 0.0073(6) -0.0932(6) 0.1125(4)
H8 H -0.0555 -0.1423 0.1147
C7 C 0.5636(7) 0.0681(6) 0.2374(4)
H9 H 0.5880 0.1183 0.2655
H10 H 0.4993 0.0450 0.2336
C8 C 0.8430(6) 0.3885(6) 0.0727(4)
H11 H 0.7897 0.3874 0.0557
C9 C 0.0064(7) 0.1366(7) 0.0647(4)
H12 H 0.0615 0.1326 0.0634
C10 C 0.2455(6) 0.4814(6) 0.1301(4)
H13 H 0.2294 0.5254 0.1449
C11 C 0.9103(6) 0.4846(6) 0.0873(4)
H14 H 0.9652 0.4864 0.1017
O11 O -0.0866(5) 0.1653(5) 0.2323(3)
H15 H -0.0698 0.2170 0.2438
C12 C 0.7654(6) 0.6033(6) 0.0468(4)
H16 H 0.7043 0.5511 0.0458
C13 C 0.1033(6) -0.1855(6) 0.1146(4)
H17 H 0.1025 -0.2431 0.1166
C14 C 0.7619(7) 0.6242(7) 0.1576(4)
H18 H 0.7004 0.5737 0.1620
C15 C 0.3776(5) -0.1594(5) 0.0919(4)
H19 H 0.3450 -0.2216 0.1068
C16 C 0.0501(6) -0.1021(6) 0.0564(4)
H20 H 0.1108 -0.0498 0.0531
C17 C 0.1852(6) 0.4314(6) 0.0770(4)
H21 H 0.1953 0.3821 0.0651
C18 C 0.7153(6) 0.7005(6) 0.0934(4)
H22 H 0.7184 0.7590 0.0890
O12 O -0.0707(6) 0.0035(6) 0.0064(3)
H23 H -0.1086 0.0029 -0.0168
C19 C 0.4359(5) -0.1015(6) 0.1419(4)
H24 H 0.4747 -0.1249 0.1557
C20 C 0.5629(6) 0.6605(6) 0.1055(4)
H25 H 0.5938 0.7253 0.1140
C21 C 0.3190(6) -0.0770(6) 0.1766(4)
H26 H 0.3505 -0.0152 0.1608
C22 C 0.5034(6) 0.6418(6) 0.0525(4)
H27 H 0.4742 0.5776 0.0424
C23 C 0.2562(5) -0.1393(6) 0.1291(4)
H28 H 0.2260 -0.2012 0.1445
C24 C 0.0912(6) 0.3942(6) 0.0967(4)
H29 H 0.0837 0.4443 0.1106
C25 C 0.7599(6) 0.6873(6) 0.0400(4)
H30 H 0.8215 0.7385 0.0378
C26 C 0.2742(6) -0.0788(6) 0.2335(4)
H31 H 0.3179 -0.0335 0.2606
H32 H 0.2279 -0.0633 0.2254
C27 C 0.0754(6) 0.3327(5) 0.1499(4)
H33 H 0.0140 0.3101 0.1649
C28 C 0.3845(6) 0.6178(6) 0.1249(4)
H34 H 0.3428 0.6387 0.1364
C29 C 0.4331(6) 0.6660(5) 0.0687(4)
H35 H 0.4637 0.7310 0.0767
C30 C 0.7290(7) 0.1097(7) 0.0896(5)
H36 H 0.7403 0.0624 0.1047
C31 C 0.6086(6) 0.0988(6) 0.1768(4)
H37 H 0.5963 0.1450 0.1609
C32 C 0.8768(6) 0.5195(6) 0.1366(4)
H38 H 0.9243 0.5806 0.1472
O13 O 0.2847(4) 0.5259(4) 0.2560(3)
C33 C 0.8083(6) 0.6052(6) 0.1076(4)
H39 H 0.8718 0.6526 0.1068
C34 C 0.5799(6) 0.0261(6) 0.1315(4)
H40 H 0.5943 -0.0189 0.1468
C35 C -0.0144(7) 0.1502(7) 0.2334(4)
H41 H -0.0245 0.1058 0.2642
H42 H 0.0401 0.2057 0.2439
C36 C -0.0689(6) -0.0078(7) 0.1133(5)
H43 H -0.1197 -0.0694 0.1108
C37 C 0.0185(8) -0.0976(8) 0.2242(5)
H44 H 0.0267 -0.0382 0.2318
H45 H -0.0458 -0.1397 0.2222
C38 C 0.6316(6) 0.0654(6) 0.0751(4)
H46 H 0.6175 0.1104 0.0593
C39 C 0.0580(7) -0.0966(7) 0.1663(5)
H47 H 0.1197 -0.0456 0.1649
C40 C 0.7562(7) 0.1776(6) 0.1381(5)
H48 H 0.8193 0.1998 0.1490
C41 C 0.8118(7) 0.6398(7) 0.2161(5)
H49 H 0.8127 0.5856 0.2276
H50 H 0.8737 0.6880 0.2111
C42 C 0.5656(6) 0.6337(6) 0.2153(4)
H51 H 0.6080 0.6121 0.2117
H52 H 0.5997 0.6987 0.2198
C43 C 0.7846(7) 0.3796(7) 0.1776(4)
H53 H 0.7314 0.3809 0.1627
C44 C 0.2823(7) 0.4492(6) 0.2322(4)
H54 H 0.2606 0.4029 0.2631
H55 H 0.3432 0.4639 0.2218
C45 C 0.8147(6) 0.3347(7) 0.1307(4)
H56 H 0.8662 0.3314 0.1469
C46 C 0.7640(8) 0.3328(9) 0.2353(5)
H57 H 0.7561 0.3693 0.2655
H58 H 0.7073 0.2765 0.2318
C47 C 0.2258(6) 0.4129(6) 0.1791(4)
H59 H 0.2349 0.3650 0.1624
O15 O 0.1017(5) -0.1919(5) 0.0101(3)
H60 H 0.1562 -0.1577 0.0144
O16 O 0.2353(5) -0.1621(5) 0.2618(3)
H61 H 0.2365 -0.1993 0.2388
O17 O 0.3821(4) -0.1031(4) 0.1906(3)
O18 O 0.1915(4) -0.1169(4) 0.1126(3)
O19 O 0.2571(4) -0.1919(4) 0.0296(3)
O20 O 0.0604(5) -0.1780(5) 0.1648(3)
O21 O 0.7597(4) 0.7029(5) 0.1462(3)
O22 O 0.8150(4) 0.5945(4) 0.0024(3)
H62 H 0.7817 0.5526 -0.0200
O23 O 0.0295(4) 0.3501(4) 0.0520(3)
H63 H -0.0075 0.2991 0.0636
O24 O 0.3712(4) 0.6471(4) 0.0214(3)
O25 O 0.2067(4) 0.4915(4) 0.0287(3)
H64 H 0.1675 0.5056 0.0253
O26 O 0.0101(4) -0.0102(4) 0.1102(3)
O27 O 0.6273(4) 0.6356(4) 0.0927(3)
O28 O 0.8312(6) 0.3139(6) 0.2554(3)
H65 H 0.8735 0.3352 0.2314
O29 O 0.8541(4) 0.4665(4) 0.1868(3)
O30 O 0.8034(4) 0.5231(4) 0.1150(3)
O31 O 0.4307(4) -0.1566(4) 0.0427(3)
O32 O 0.7462(5) 0.2481(4) 0.1174(3)
O33 O 0.9330(5) 0.5404(5) 0.0378(3)
H66 H 0.8896 0.5456 0.0277
O34 O 0.4893(4) -0.0156(4) 0.1196(3)
O35 O 0.7009(4) 0.1388(4) 0.1894(3)
O36 O 0.5794(5) -0.0008(4) 0.2593(3)
H67 H 0.5309 -0.0470 0.2653
O37 O 0.8726(5) 0.3506(5) 0.0317(3)
H68 H 0.9220 0.3583 0.0423
O38 O 0.7164(5) 0.6856(5) -0.0122(3)
H69 H 0.7374 0.7372 -0.0253
O39 O 0.0016(5) -0.1058(6) 0.0053(4)
H70 H -0.0271 -0.0800 0.0120
O40 O 0.5119(5) 0.5956(5) 0.2664(3)
O42 O 0.6074(5) -0.0029(5) 0.0324(3)
H71 H 0.6433 0.0161 0.0041
O44 O 0.0541(7) -0.1211(7) 0.2720(4)
H72 H 0.0719 -0.1550 0.2600
O45 O 0.7850(6) 0.1484(6) 0.0399(4)
H73 H 0.7815 0.1922 0.0284
C48 C 0.5102(6) 0.6104(6) 0.1601(4)
H74 H 0.4812 0.5454 0.1528
O46 O 0.7702(8) 0.6629(9) 0.2620(5)
H75 H 0.8018 0.6778 0.2926
Sr1A Sr 0.32587(5) -0.25492(7) -0.04562(3)
Sr1A_2 Sr 0.32587(5) 0.74508(7) -0.04562(3)
O19B O 0.5510(6) 0.7429(4) 0.3629(3)
O24B O 0.2759(6) 0.6288(4) 0.3547(3)
O31B O 0.4127(6) 0.5693(4) 0.3760(3)
Br1 Br 0.12213(8) 0.61207(7) 0.17003(6)
O14 O 0.0556(6) 0.7100(7) 0.2679(4)
O41 O 0.1900(5) 0.3025(6) 0.3727(4)
O43 O 0.2631(5) 0.2484(5) 0.5839(3)
Br2 Br 0.1950(3) 0.3027(2) 0.4780(3)
loop_
_geom_bond_atom_site_label_1
_geom_bond_atom_site_label_2
_geom_bond_site_symmetry_1
_geom_bond_site_symmetry_2
Sr1 O1 1_555 1_555
O1 C28 1_555 1_555
O2 C27 1_555 1_555
O3 C5 1_555 1_555
O4 C4 1_555 1_555
O5 Sr1 1_555 1_555
O6 H1 1_555 1_555
C1 H2 1_555 1_555
O7 C10 1_555 1_555
C2 H3 1_555 1_555
O8 H4 1_555 1_555
O9 Sr1 1_555 1_555
C3 H5 1_555 1_555
C4 H6 1_555 1_555
O10 Sr1 1_555 1_555
C5 C4 1_555 1_555
H7 C5 1_555 1_555
C6 H8 1_555 1_555
C7 H9 1_555 1_555
H10 C7 1_555 1_555
C8 H11 1_555 1_555
C9 C2 1_555 1_555
H12 C9 1_555 1_555
C10 H13 1_555 1_555
C11 C8 1_555 1_555
H14 C11 1_555 1_555
O11 H15 1_555 1_555
C12 H16 1_555 1_555
C13 C1 1_555 1_555
H17 C13 1_555 1_555
C14 H18 1_555 1_555
C15 C3 1_555 1_555
H19 C15 1_555 1_555
C16 C1 1_555 1_555
H20 C16 1_555 1_555
C17 C10 1_555 1_555
H21 C17 1_555 1_555
C18 H22 1_555 1_555
O12 C2 1_555 1_555
H23 O12 1_555 1_555
C19 C15 1_555 1_555
H24 C19 1_555 1_555
C20 H25 1_555 1_555
C21 H26 1_555 1_555
C22 O6 1_555 1_555
H27 C22 1_555 1_555
C23 C3 1_555 1_555
H28 C23 1_555 1_555
C24 C17 1_555 1_555
H29 C24 1_555 1_555
C25 C12 1_555 1_555
H30 C25 1_555 1_555
C26 C21 1_555 1_555
H31 C26 1_555 1_555
H32 C26 1_555 1_555
C27 O3 1_555 1_555
H33 C27 1_555 1_555
C28 O7 1_555 1_555
H34 C28 1_555 1_555
C29 C22 1_555 1_555
H35 C29 1_555 1_555
C30 H36 1_555 1_555
C31 C7 1_555 1_555
H37 C31 1_555 1_555
C32 C11 1_555 1_555
H38 C32 1_555 1_555
O13 Sr1 1_555 1_555
C33 C12 1_555 1_555
H39 C33 1_555 1_555
C34 C31 1_555 1_555
H40 C34 1_555 1_555
C35 C4 1_555 1_555
H41 C35 1_555 1_555
H42 C35 1_555 1_555
C36 O4 1_555 1_555
H43 C36 1_555 1_555
C37 H44 1_555 1_555
H45 C37 1_555 1_555
C38 C30 1_555 1_555
H46 C38 1_555 1_555
C39 C6 1_555 1_555
H47 C39 1_555 1_555
C40 C30 1_555 1_555
H48 C40 1_555 1_555
C41 C14 1_555 1_555
H49 C41 1_555 1_555
H50 C41 1_555 1_555
C42 H51 1_555 1_555
H52 C42 1_555 1_555
C43 H53 1_555 1_555
C44 O13 1_555 1_555
H54 C44 1_555 1_555
H55 C44 1_555 1_555
C45 C8 1_555 1_555
H56 C45 1_555 1_555
C46 C43 1_555 1_555
H57 C46 1_555 1_555
H58 C46 1_555 1_555
C47 O2 1_555 1_555
H59 C47 1_555 1_555
O15 C1 1_555 1_555
H60 O15 1_555 1_555
O16 C26 1_555 1_555
H61 O16 1_555 1_555
O17 C19 1_555 1_555
O18 C13 1_555 1_555
O19 C3 1_555 1_555
O20 C13 1_555 1_555
O21 C14 1_555 1_555
O22 C12 1_555 1_555
H62 O22 1_555 1_555
O23 C24 1_555 1_555
H63 O23 1_555 1_555
O24 C29 1_555 1_555
O25 C17 1_555 1_555
H64 O25 1_555 1_555
O26 C6 1_555 1_555
O27 C18 1_555 1_555
O28 C46 1_555 1_555
H65 O28 1_555 1_555
O29 C32 1_555 1_555
O30 C32 1_555 1_555
O31 C15 1_555 1_555
O32 C40 1_555 1_555
O33 C11 1_555 1_555
H66 O33 1_555 1_555
O34 C19 1_555 1_555
O35 C31 1_555 1_555
O36 C7 1_555 1_555
H67 O36 1_555 1_555
O37 C8 1_555 1_555
H68 O37 1_555 1_555
O38 C25 1_555 1_555
H69 O38 1_555 1_555
O39 C16 1_555 1_555
H70 O39 1_555 1_555
O40 Sr1 1_555 1_555
O42 C38 1_555 1_555
H71 O42 1_555 1_555
O44 C37 1_555 1_555
H72 O44 1_555 1_555
O45 C30 1_555 1_555
H73 O45 1_555 1_555
C48 O1 1_555 1_555
H74 C48 1_555 1_555
O46 C41 1_555 1_555
H75 O46 1_555 1_555
Sr1A O19 1_555 1_555
Sr1A_2 O24 1_555 1_555
O19B Sr1 1_555 1_555
O24B Sr1 1_555 1_555
O31B Sr1 1_555 1_555
C2 C36 1_555 1_555
O8 C9 1_555 1_555
C5 C9 1_555 1_555
C6 C16 1_555 1_555
C10 C47 1_555 1_555
O11 C35 1_555 1_555
C14 C33 1_555 1_555
C18 C25 1_555 1_555
C18 O21 1_555 1_555
C20 C22 1_555 1_555
C20 O27 1_555 1_555
C20 C48 1_555 1_555
C21 C23 1_555 1_555
C21 O17 1_555 1_555
C23 O18 1_555 1_555
C24 C27 1_555 1_555
C28 C29 1_555 1_555
C33 O30 1_555 1_555
C34 C38 1_555 1_555
C34 O34 1_555 1_555
C36 O26 1_555 1_555
C37 C39 1_555 1_555
C39 O20 1_555 1_555
C40 O35 1_555 1_555
C42 O40 1_555 1_555
C42 C48 1_555 1_555
C43 C45 1_555 1_555
C43 O29 1_555 1_555
C44 C47 1_555 1_555
C45 O32 1_555 1_555
O31 Sr1A 1_555 1_555

#END
