
#######################################################################
#
#                 Cambridge Crystallographic Data Centre
#                                CCDC 
#
#######################################################################
#
# If this CIF has been generated from an entry in the Cambridge 
# Structural Database, then it will include bibliographic, chemical, 
# crystal, experimental, refinement or atomic coordinate data resulting 
# from the CCDC's data processing and validation procedures.
#
#######################################################################

data_YAPTOZ
_symmetry_cell_setting           monoclinic
_symmetry_space_group_name_H-M   'P 21/c'
_symmetry_Int_Tables_number      14
_space_group_name_Hall           '-P 2ybc'
loop_
_symmetry_equiv_pos_site_id
_symmetry_equiv_pos_as_xyz
1 x,y,z
2 -x,1/2+y,1/2-z
3 -x,-y,-z
4 x,1/2-y,1/2+z
_cell_length_a                   13.689(4)
_cell_length_b                   44.935(6)
_cell_length_c                   16.354(4)
_cell_angle_alpha                90
_cell_angle_beta                 108.50(2)
_cell_angle_gamma                90
_cell_volume                     9539.75
loop_
_atom_site_label
_atom_site_type_symbol
_atom_site_fract_x
_atom_site_fract_y
_atom_site_fract_z
Mn1 Mn 0.8382(1) 0.19303(4) 0.7328(1)
F1 F 1.0685 0.2357 0.5425
F3 F 0.9175 0.2559 0.5158
F5 F 1.0349 0.2632 0.6359
F8 F 0.9463 0.1350 0.4825
F10 F 0.8741 0.1129 0.5555
F12 F 1.0230 0.1179 0.6256
F15 F 0.6464 0.2692 0.8076
F18 F 0.6180 0.2406 0.9231
F20 F 0.7396 0.2628 0.9202
F22 F 0.6980 0.1138 0.8521
F24 F 0.6100 0.1345 0.8947
F27 F 0.5850 0.1269 0.7465
O1 O 0.3598(6) 0.1424(2) 0.5192(5)
O2 O 0.1798(5) 0.1402(2) 0.4472(4)
O3 O -0.0396(5) 0.1281(2) 0.1563(5)
O4 O -0.0087(6) 0.1261(2) 0.0232(5)
O5 O 0.2971(5) 0.1287(2) -0.0576(4)
O6 O 0.4789(5) 0.1262(2) 0.0092(5)
O7 O 0.6960(6) 0.1313(2) 0.3021(5)
O8 O 0.6649(5) 0.1353(2) 0.4372(5)
O9 O 0.9046(6) 0.2229(2) 0.6629(5)
O10 O 0.8849(7) 0.1588(2) 0.6616(6)
O11 O 0.7788(6) 0.2235(2) 0.8050(5)
O12 O 0.7708(7) 0.1599(2) 0.7930(6)
N1 N 0.5330(8) 0.2196(2) 0.5416(7)
N2 N 0.6826(7) 0.1944(2) 0.6267(6)
N3 N 0.0074(8) 0.2157(2) 0.3170(7)
N4 N -0.1350(8) 0.1865(2) 0.3158(8)
N5 N -0.0113(7) 0.1866(2) -0.1605(6)
N6 N 0.1438(8) 0.2096(2) -0.0671(7)
N7 N 0.7646(10) 0.1779(3) 0.0828(9)
N8 N 0.6590(9) 0.2090(2) 0.1321(8)
C1 C 0.5127(9) 0.1395(2) 0.4773(7)
C2 C 0.5712(8) 0.1233(3) 0.4353(7)
C3 C 0.5415(8) 0.0956(2) 0.3984(7)
C4 C 0.4499(9) 0.0839(2) 0.4038(7)
C5 C 0.3866(8) 0.0983(2) 0.4427(7)
C6 C 0.4174(8) 0.1267(3) 0.4772(7)
C7 C 0.2839(8) 0.0863(2) 0.4467(7)
C8 C 0.2724(9) 0.1575(3) 0.4654(8)
C9 C 0.1524(8) 0.1236(2) 0.3702(7)
C10 C 0.0730(8) 0.1350(2) 0.3004(8)
C11 C 0.0423(8) 0.1179(3) 0.2253(8)
C12 C 0.0897(8) 0.0909(2) 0.2187(7)
C13 C 0.1678(8) 0.0812(2) 0.2905(7)
C14 C 0.1998(8) 0.0968(2) 0.3685(7)
C15 C 0.0589(8) 0.0746(2) 0.1316(7)
C16 C -0.0156(8) 0.1442(2) 0.0916(7)
C17 C 0.0874(8) 0.1140(2) 0.0306(7)
C18 C 0.1487(8) 0.1281(2) -0.0105(7)
C19 C 0.2420(8) 0.1155(3) -0.0083(7)
C20 C 0.2752(8) 0.0887(2) 0.0342(7)
C21 C 0.2154(8) 0.0759(2) 0.0784(6)
C22 C 0.1207(8) 0.0883(3) 0.0781(7)
C23 C 0.3778(8) 0.0747(2) 0.0349(7)
C24 C 0.3893(9) 0.1447(3) -0.0126(8)
C25 C 0.5100(8) 0.1142(2) 0.0914(7)
C26 C 0.5872(8) 0.1289(2) 0.1554(7)
C27 C 0.6164(8) 0.1167(2) 0.2387(7)
C28 C 0.5720(8) 0.0907(2) 0.2595(7)
C29 C 0.4956(8) 0.0767(2) 0.1915(7)
C30 C 0.4623(8) 0.0885(3) 0.1081(7)
C31 C 0.6064(8) 0.0796(2) 0.3530(7)
C32 C 0.6675(9) 0.1499(2) 0.3612(8)
C33 C 0.5507(8) 0.1677(2) 0.5207(7)
C34 C 0.4981(9) 0.1944(3) 0.5009(7)
C35 C 0.6235(9) 0.2184(3) 0.6025(8)
C36 C 0.6446(9) 0.1691(3) 0.5849(8)
C37 C 0.0167(8) 0.1626(3) 0.3063(8)
C38 C 0.0604(9) 0.1899(3) 0.3114(8)
C39 C -0.0859(10) 0.2124(3) 0.3196(10)
C40 C -0.0832(9) 0.1622(3) 0.3083(8)
C41 C 0.1123(9) 0.1570(2) -0.0572(7)
C42 C 0.0199(9) 0.1604(3) -0.1218(8)
C43 C 0.0540(10) 0.2098(3) -0.1303(9)
C44 C 0.1721(9) 0.1827(3) -0.0321(8)
C45 C 0.6383(8) 0.1561(3) 0.1362(7)
C46 C 0.717(1) 0.1541(3) 0.1015(10)
C47 C 0.732(1) 0.2039(3) 0.1025(9)
C48 C 0.613(1) 0.1840(3) 0.1499(10)
C49 C 0.2840(8) 0.0522(2) 0.4610(7)
C50 C 0.3570(9) 0.0441(2) 0.5514(8)
C51 C 0.3253(9) 0.0573(3) 0.6236(8)
C52 C 0.382(1) 0.0808(3) 0.6705(9)
C53 C 0.355(1) 0.0933(3) 0.7384(10)
C54 C 0.271(1) 0.0822(4) 0.7593(9)
C55 C 0.214(1) 0.0599(3) 0.7120(9)
C56 C 0.2410(10) 0.0475(3) 0.6427(8)
C57 C 0.0679(9) 0.0407(2) 0.1402(7)
C58 C -0.0040(9) 0.0273(3) 0.1857(7)
C59 C 0.0104(8) -0.0059(3) 0.1991(8)
C60 C 0.041(1) -0.0180(3) 0.2815(9)
C61 C 0.056(1) -0.0484(3) 0.2950(10)
C62 C 0.039(1) -0.0675(3) 0.225(1)
C63 C 0.008(1) -0.0558(3) 0.1425(8)
C64 C -0.005(1) -0.0256(3) 0.1275(8)
C65 C 0.3735(9) 0.0405(3) 0.0366(7)
C66 C 0.2934(9) 0.0273(3) -0.0422(7)
C67 C 0.2772(9) -0.0053(3) -0.0350(7)
C68 C 0.2297(9) -0.0163(3) 0.0218(7)
C69 C 0.216(1) -0.0466(3) 0.0307(9)
C70 C 0.250(1) -0.0667(3) -0.0173(10)
C71 C 0.298(1) -0.0562(3) -0.0730(10)
C72 C 0.3141(9) -0.0258(3) -0.0807(8)
C73 C 0.6072(8) 0.0454(2) 0.3607(7)
C74 C 0.6842(8) 0.0312(2) 0.3228(7)
C75 C 0.7954(9) 0.0410(2) 0.3684(8)
C76 C 0.8436(9) 0.0617(3) 0.3318(8)
C77 C 0.941(1) 0.0715(3) 0.3733(10)
C78 C 0.9942(10) 0.0602(3) 0.4541(9)
C79 C 0.9495(10) 0.0386(3) 0.4887(8)
C80 C 0.8513(9) 0.0294(3) 0.4497(8)
C81 C 0.947(1) 0.2159(3) 0.6093(9)
C82 C 0.960(1) 0.1882(3) 0.5770(8)
C83 C 0.926(1) 0.1618(3) 0.6034(8)
C84 C 0.9947 0.2429 0.5762
C85 C 0.9499 0.1328 0.5641
C86 C 0.7073(10) 0.2190(3) 0.8354(8)
C87 C 0.665(1) 0.1908(4) 0.8452(9)
C88 C 0.700(1) 0.1640(3) 0.8208(9)
C89 C 0.6625 0.2472 0.8637
C90 C 0.6388 0.1370 0.8307
H1 H 0.4259 0.0651 0.3779
H2 H 0.2728 0.0949 0.4967
H3 H 0.2654 0.1766 0.4910
H4 H 0.2848 0.1623 0.4111
H5 H 0.2017 0.0625 0.2882
H6 H -0.0148 0.0785 0.0999
H7 H 0.0506 0.1547 0.1158
H8 H -0.0653 0.1602 0.0678
H9 H 0.2418 0.0586 0.1132
H10 H 0.3887 0.0798 -0.0194
H11 H 0.3817 0.1529 0.0389
H12 H 0.3966 0.1607 -0.0487
H13 H 0.4677 0.0578 0.1991
H14 H 0.6795 0.0853 0.3812
H15 H 0.7156 0.1667 0.3790
H16 H 0.6006 0.1588 0.3349
H17 H 0.4301 0.1935 0.4544
H18 H 0.6503 0.2379 0.6336
H19 H 0.6837 0.1498 0.6012
H20 H 0.1309 0.1917 0.3076
H21 H -0.1269 0.2304 0.3225
H22 H -0.1207 0.1428 0.3052
H23 H -0.0245 0.1428 -0.1423
H24 H 0.0303 0.2294 -0.1580
H25 H 0.2377 0.1808 0.0169
H26 H 0.7424 0.1336 0.0920
H27 H 0.7708 0.2216 0.0907
H28 H 0.5505 0.1863 0.1661
H29 H 0.3041 0.0414 0.4169
H30 H 0.2167 0.0446 0.4577
H31 H 0.4253 0.0506 0.5509
H32 H 0.3611 0.0226 0.5554
H33 H 0.4434 0.0884 0.6548
H34 H 0.3991 0.1094 0.7731
H35 H 0.2518 0.0932 0.8055
H36 H 0.1516 0.0524 0.7254
H37 H 0.1979 0.0310 0.6043
H38 H 0.1373 0.0356 0.1695
H39 H 0.0529 0.0318 0.0808
H40 H 0.0043 0.0366 0.2384
H41 H -0.0779 0.0310 0.1494
H42 H 0.0511 -0.0049 0.3296
H43 H 0.0854 -0.0572 0.3562
H44 H 0.0509 -0.0890 0.2324
H45 H -0.0103 -0.0691 0.0895
H46 H -0.0281 -0.0164 0.0655
H47 H 0.3609 0.0338 0.0881
H48 H 0.4411 0.0322 0.0392
H49 H 0.2298 0.0377 -0.0473
H50 H 0.3130 0.0318 -0.0913
H51 H 0.2038 -0.0022 0.0553
H52 H 0.1801 -0.0541 0.0700
H53 H 0.2381 -0.0890 -0.0154
H54 H 0.3267 -0.0700 -0.1071
H55 H 0.3525 -0.0192 -0.1194
H56 H 0.5380 0.0380 0.3345
H57 H 0.6246 0.0396 0.4227
H58 H 0.6636 0.0378 0.2638
H59 H 0.6783 0.0104 0.3243
H60 H 0.8075 0.0703 0.2749
H61 H 0.9731 0.0869 0.3480
H62 H 1.0656 0.0663 0.4855
H63 H 0.9897 0.0300 0.5447
H64 H 0.8185 0.0145 0.4770
H65 H 0.9882 0.1872 0.5272
H66 H 0.5991 0.1924 0.8659
Mn1_2 Mn -0.1618(1) 0.19303(4) -0.2672(1)
N5_2 N 0.9887(7) 0.1866(2) 0.8395(6)
O13 O 1.321(1) 0.1862(2) 1.2927(8)
O14 O 1.3500(9) 0.1879(2) 1.1683(7)
C91 C 1.333(1) 0.1402(3) 1.2244(9)
C92 C 1.334(1) 0.1734(4) 1.2309(9)
C93 C 1.342(2) 0.2224(5) 1.170(2)
C94 C 1.361(2) 0.2358(6) 1.103(2)
O15 O 1.3743 0.0063 1.2455
O16 O 1.3907 -0.0414 1.2774
C95 C 1.4798 -0.0239 1.1838
C96 C 1.4106 -0.0164 1.2369
C97 C 1.3549 -0.0408 1.3277
C98 C 1.3213 -0.0686 1.3743
O17 O 1.3219 0.2509 1.3732
O18 O 1.2303 0.2921 1.2762
C99 C 1.3910 0.3025 1.3528
C100 C 1.3245 0.2819 1.3438
C101 C 1.2197 0.3302 1.2456
C102 C 1.2443 0.3331 1.1621
F2? F 1.0118 0.2373 0.5031
F4? F 0.9476 0.2680 0.5755
F6? F 1.0839 0.2492 0.6347
F7? F 1.0157 0.1374 0.5183
F9? F 0.8886 0.1320 0.4797
F11? F 0.9483 0.1084 0.5995
F13? F 1.0464 0.1259 0.5879
F14? F 0.7030 0.2724 0.8561
F16? F 0.5903 0.2562 0.7968
F17? F 0.5720 0.2450 0.8737
F19? F 0.7162 0.2534 0.9450
F21? F 0.6190 0.1195 0.7758
F23? F 0.7015 0.1277 0.9160
F25? F 0.5549 0.1428 0.8563
F26? F 0.5536 0.1368 0.7612
loop_
_geom_bond_atom_site_label_1
_geom_bond_atom_site_label_2
_geom_bond_site_symmetry_1
_geom_bond_site_symmetry_2
Mn1 O9 1_555 1_555
F1 C84 1_555 1_555
F3 C84 1_555 1_555
F5 C84 1_555 1_555
F8 C85 1_555 1_555
F10 C85 1_555 1_555
F12 C85 1_555 1_555
F15 C89 1_555 1_555
F18 C89 1_555 1_555
F20 C89 1_555 1_555
F22 C90 1_555 1_555
F24 C90 1_555 1_555
F27 C90 1_555 1_555
O1 C6 1_555 1_555
O2 C8 1_555 1_555
O3 C11 1_555 1_555
O4 C16 1_555 1_555
O5 C19 1_555 1_555
O6 C24 1_555 1_555
O7 C27 1_555 1_555
O8 C2 1_555 1_555
O9 C81 1_555 1_555
O10 Mn1 1_555 1_555
O11 Mn1 1_555 1_555
O12 Mn1 1_555 1_555
O13 C92 1_555 1_555
O14 C92 1_555 1_555
O15 C96 1_555 1_555
O16 C96 1_555 1_555
O17 C100 1_555 1_555
O18 C100 1_555 1_555
N1 C34 1_555 1_555
N2 Mn1 1_555 1_555
N3 C38 1_555 1_555
N4 C39 1_555 1_555
N5 C42 1_555 1_555
N6 C43 1_555 1_555
N7 C46 1_555 1_555
N8 C47 1_555 1_555
C1 C2 1_555 1_555
C2 C3 1_555 1_555
C3 C4 1_555 1_555
C4 C5 1_555 1_555
C5 C6 1_555 1_555
C6 C1 1_555 1_555
C7 C5 1_555 1_555
C8 O1 1_555 1_555
C9 O2 1_555 1_555
C10 C9 1_555 1_555
C11 C10 1_555 1_555
C12 C11 1_555 1_555
C13 C12 1_555 1_555
C14 C7 1_555 1_555
C15 C12 1_555 1_555
C16 O3 1_555 1_555
C17 O4 1_555 1_555
C18 C17 1_555 1_555
C19 C18 1_555 1_555
C20 C19 1_555 1_555
C21 C20 1_555 1_555
C22 C15 1_555 1_555
C23 C20 1_555 1_555
C24 O5 1_555 1_555
C25 O6 1_555 1_555
C26 C25 1_555 1_555
C27 C26 1_555 1_555
C28 C27 1_555 1_555
C29 C28 1_555 1_555
C30 C23 1_555 1_555
C31 C3 1_555 1_555
C32 O7 1_555 1_555
C33 C1 1_555 1_555
C34 C33 1_555 1_555
C35 N1 1_555 1_555
C36 N2 1_555 1_555
C37 C10 1_555 1_555
C38 C37 1_555 1_555
C39 N3 1_555 1_555
C40 N4 1_555 1_555
C41 C18 1_555 1_555
C42 C41 1_555 1_555
C43 N5 1_555 1_555
C44 N6 1_555 1_555
C45 C26 1_555 1_555
C46 C45 1_555 1_555
C47 N7 1_555 1_555
C48 N8 1_555 1_555
C49 C7 1_555 1_555
C50 C49 1_555 1_555
C51 C50 1_555 1_555
C52 C51 1_555 1_555
C53 C52 1_555 1_555
C54 C53 1_555 1_555
C55 C54 1_555 1_555
C56 C51 1_555 1_555
C57 C15 1_555 1_555
C58 C57 1_555 1_555
C59 C58 1_555 1_555
C60 C59 1_555 1_555
C61 C60 1_555 1_555
C62 C61 1_555 1_555
C63 C62 1_555 1_555
C64 C59 1_555 1_555
C65 C23 1_555 1_555
C66 C65 1_555 1_555
C67 C66 1_555 1_555
C68 C67 1_555 1_555
C69 C68 1_555 1_555
C70 C69 1_555 1_555
C71 C70 1_555 1_555
C72 C67 1_555 1_555
C73 C31 1_555 1_555
C74 C73 1_555 1_555
C75 C74 1_555 1_555
C76 C75 1_555 1_555
C77 C76 1_555 1_555
C78 C77 1_555 1_555
C79 C78 1_555 1_555
C80 C75 1_555 1_555
C81 C82 1_555 1_555
C82 C83 1_555 1_555
C83 O10 1_555 1_555
C84 C81 1_555 1_555
C85 C83 1_555 1_555
C86 O11 1_555 1_555
C87 C86 1_555 1_555
C88 O12 1_555 1_555
C89 C86 1_555 1_555
C90 C88 1_555 1_555
C91 C92 1_555 1_555
C93 O14 1_555 1_555
C94 C93 1_555 1_555
C95 C96 1_555 1_555
C97 O16 1_555 1_555
C98 C97 1_555 1_555
C99 C100 1_555 1_555
C101 O18 1_555 1_555
C102 C101 1_555 1_555
H1 C4 1_555 1_555
H2 C7 1_555 1_555
H3 C8 1_555 1_555
H4 C8 1_555 1_555
H5 C13 1_555 1_555
H6 C15 1_555 1_555
H7 C16 1_555 1_555
H8 C16 1_555 1_555
H9 C21 1_555 1_555
H10 C23 1_555 1_555
H11 C24 1_555 1_555
H12 C24 1_555 1_555
H13 C29 1_555 1_555
H14 C31 1_555 1_555
H15 C32 1_555 1_555
H16 C32 1_555 1_555
H17 C34 1_555 1_555
H18 C35 1_555 1_555
H19 C36 1_555 1_555
H20 C38 1_555 1_555
H21 C39 1_555 1_555
H22 C40 1_555 1_555
H23 C42 1_555 1_555
H24 C43 1_555 1_555
H25 C44 1_555 1_555
H26 C46 1_555 1_555
H27 C47 1_555 1_555
H28 C48 1_555 1_555
H29 C49 1_555 1_555
H30 C49 1_555 1_555
H31 C50 1_555 1_555
H32 C50 1_555 1_555
H33 C52 1_555 1_555
H34 C53 1_555 1_555
H35 C54 1_555 1_555
H36 C55 1_555 1_555
H37 C56 1_555 1_555
H38 C57 1_555 1_555
H39 C57 1_555 1_555
H40 C58 1_555 1_555
H41 C58 1_555 1_555
H42 C60 1_555 1_555
H43 C61 1_555 1_555
H44 C62 1_555 1_555
H45 C63 1_555 1_555
H46 C64 1_555 1_555
H47 C65 1_555 1_555
H48 C65 1_555 1_555
H49 C66 1_555 1_555
H50 C66 1_555 1_555
H51 C68 1_555 1_555
H52 C69 1_555 1_555
H53 C70 1_555 1_555
H54 C71 1_555 1_555
H55 C72 1_555 1_555
H56 C73 1_555 1_555
H57 C73 1_555 1_555
H58 C74 1_555 1_555
H59 C74 1_555 1_555
H60 C76 1_555 1_555
H61 C77 1_555 1_555
H62 C78 1_555 1_555
H63 C79 1_555 1_555
H64 C80 1_555 1_555
H65 C82 1_555 1_555
H66 C87 1_555 1_555
Mn1_2 N5 1_555 1_555
N5_2 Mn1 1_555 1_555
O8 C32 1_555 1_555
N2 C35 1_555 1_555
C9 C14 1_555 1_555
C13 C14 1_555 1_555
C17 C22 1_555 1_555
C21 C22 1_555 1_555
C25 C30 1_555 1_555
C28 C31 1_555 1_555
C29 C30 1_555 1_555
C33 C36 1_555 1_555
C37 C40 1_555 1_555
C41 C44 1_555 1_555
C45 C48 1_555 1_555
C55 C56 1_555 1_555
C63 C64 1_555 1_555
C71 C72 1_555 1_555
C79 C80 1_555 1_555
C87 C88 1_555 1_555

#END
