
#######################################################################
#
#                 Cambridge Crystallographic Data Centre
#                                CCDC 
#
#######################################################################
#
# If this CIF has been generated from an entry in the Cambridge 
# Structural Database, then it will include bibliographic, chemical, 
# crystal, experimental, refinement or atomic coordinate data resulting 
# from the CCDC's data processing and validation procedures.
#
#######################################################################

data_YAPYUK
_symmetry_cell_setting           triclinic
_symmetry_space_group_name_H-M   'P -1'
_symmetry_Int_Tables_number      2
_space_group_name_Hall           '-P 1'
loop_
_symmetry_equiv_pos_site_id
_symmetry_equiv_pos_as_xyz
1 x,y,z
2 -x,-y,-z
_cell_length_a                   7.3627(14)
_cell_length_b                   12.330(3)
_cell_length_c                   13.929(2)
_cell_angle_alpha                83.439(8)
_cell_angle_beta                 81.485(7)
_cell_angle_gamma                72.674(9)
_cell_volume                     1190.52
loop_
_atom_site_label
_atom_site_type_symbol
_atom_site_fract_x
_atom_site_fract_y
_atom_site_fract_z
Co1 Co 0.54478(15) 0.21010(11) 0.04031(7)
Co2 Co 0.08419(12) 0.06372(7) 0.24816(6)
O1 O 0.2371(6) 0.1709(4) 0.2811(3)
O2 O 0.5859(10) 0.0259(7) 0.0780(7)
H1 H 0.5405 0.0001 0.0386
H2 H 0.689(11) 0.031(14) 0.049(5)
O3 O -0.1085(7) 0.7088(5) 0.0589(3)
O4 O 0.2941(8) 0.2449(4) 0.1322(3)
O5 O 0.8083(9) 0.1561(10) -0.0473(6)
H3 H 0.7927 0.1745 -0.1046
H4 H 0.86(2) 0.201(10) -0.034(5)
O6 O -0.4238(7) 0.7866(5) 0.0815(4)
O7 O -0.0879(7) -0.0429(4) 0.2291(3)
H5 H -0.1854 -0.0284 0.2681
H6 H -0.124(6) -0.044(7) 0.1768(16)
O8 O 0.6951(8) 0.1905(5) 0.1555(4)
O9 O -0.7452(7) 0.7773(4) 0.2414(4)
O10 O 0.1065(6) 0.0972(4) 0.0931(3)
H7 H 0.1639 0.1453 0.0769
H8 H -0.001(4) 0.127(4) 0.076(5)
O11 O 0.8502(6) 0.2027(4) 0.2729(3)
O12 O -0.6596(6) 0.9370(4) 0.2371(3)
O13 O 0.1102(7) 0.6240(4) 0.4828(3)
N1 N 0.5194(9) 0.3835(7) 0.0171(5)
N2 N 0.0397(8) 0.0220(5) 0.4006(4)
C1 C 0.2395(9) 0.5012(5) 0.3565(4)
C2 C -0.0955(9) 0.6488(5) 0.3609(5)
C3 C 0.2023(9) 0.4205(5) 0.3078(4)
H9 H 0.0758 0.4256 0.3018
C4 C -0.0989(9) 0.6617(5) 0.2615(5)
H10 H 0.0115 0.6296 0.2206
C5 C 0.3477(9) 0.3316(5) 0.2671(4)
C6 C -0.2676(9) 0.7229(5) 0.2213(5)
C7 C 0.5388(8) 0.3262(5) 0.2740(4)
C8 C -0.4342(9) 0.7650(5) 0.2823(5)
C9 C 0.5769(9) 0.4048(6) 0.3251(5)
H11 H 0.7031 0.3988 0.3325
C10 C -0.4315(9) 0.7509(6) 0.3836(5)
H12 H -0.5432 0.7793 0.4249
C11 C 0.4305(9) 0.4922(5) 0.3656(5)
H13 H 0.4588 0.5452 0.3989
C12 C -0.2621(9) 0.6947(6) 0.4220(5)
H14 H -0.2597 0.6875 0.4890
C13 C 0.2930(9) 0.2412(5) 0.2237(4)
C14 C -0.2629(10) 0.7392(6) 0.1114(5)
C15 C 0.7052(9) 0.2335(6) 0.2309(4)
C16 C -0.6275(9) 0.8293(6) 0.2488(5)
C17 C 0.0871(9) 0.5937(5) 0.4064(5)
C18 C 0.6698(12) 0.4263(9) 0.0072(7)
H15 H 0.793(13) 0.375(8) 0.020(6)
C19 C 0.3507(12) 0.4577(9) 0.0109(7)
H16 H 0.249(13) 0.432(8) 0.020(6)
C20 C 0.0006(9) 0.1050(6) 0.4618(5)
H17 H -0.006(9) 0.185(6) 0.441(5)
C21 C 0.0374(9) -0.0828(6) 0.4399(5)
H18 H 0.069(10) -0.133(6) 0.400(5)
Co1A Co -0.54478(15) 0.78990(11) -0.04031(7)
Co1A_2 Co 0.45522(15) 0.78990(11) -0.04031(7)
Co2A Co -0.08419(12) 0.93628(7) -0.24816(6)
Co2_2 Co 1.08419(12) 0.06372(7) 0.24816(6)
Co2_3 Co -0.91581(12) 1.06372(7) 0.24816(6)
Co2A_2 Co -0.08419(12) -0.06372(7) 0.75184(6)
Co2A_3 Co -1.08419(12) 0.93628(7) -0.24816(6)
Co2A_4 Co 0.91581(12) -0.06372(7) -0.24816(6)
O1A O -0.2371(6) 0.8291(4) -0.2811(3)
O2A O -0.5859(10) 0.9741(7) -0.0780(7)
H1A H -0.5405 0.9999 -0.0386
H2A H -0.689(11) 0.969(14) -0.049(5)
O3A O 0.1085(7) 0.2912(5) -0.0589(3)
O4A O -0.2941(8) 0.7551(4) -0.1322(3)
O5A O -0.8083(9) 0.8439(10) 0.0473(6)
H3A H -0.7927 0.8255 0.1046
H4A H -0.86(2) 0.799(10) 0.034(5)
O6A O 0.4238(7) 0.2134(5) -0.0815(4)
O7A O 0.0879(7) 1.0429(4) -0.2291(3)
H5A H 0.1854 1.0284 -0.2681
H6A H 0.124(6) 1.044(7) -0.1768(16)
O8A O -0.6951(8) 0.8095(5) -0.1555(4)
O9A O 0.7452(7) 0.2227(4) -0.2414(4)
O10A O -0.1065(6) 0.9028(4) -0.0931(3)
H7A H -0.1639 0.8547 -0.0769
H8A H 0.001(4) 0.873(4) -0.076(5)
O11A O -0.8502(6) 0.7973(4) -0.2729(3)
O11_2 O -0.1498(6) 0.2027(4) 0.2729(3)
O11A_2 O 0.1498(6) 0.7973(4) -0.2729(3)
O12A O 0.6596(6) 0.0630(4) -0.2371(3)
O12_2 O 0.3404(6) -0.0630(4) 0.2371(3)
O12A_2 O -0.3404(6) 1.0630(4) -0.2371(3)
O13A O -0.1102(7) 0.3760(4) -0.4828(3)
N1A N 0.4806(9) 0.6165(7) -0.0171(5)
N1A_2 N -0.5194(9) 0.6165(7) -0.0171(5)
N2A N -0.0397(8) -0.0220(5) 0.5994(4)
N2A_2 N -0.0397(8) 0.9780(5) -0.4006(4)
C1A C -0.2395(9) 0.4988(5) -0.3565(4)
C2A C 0.0955(9) 0.3512(5) -0.3609(5)
C3A C -0.2023(9) 0.5795(5) -0.3078(4)
H9A H -0.0758 0.5744 -0.3018
C4A C 0.0989(9) 0.3383(5) -0.2615(5)
H10A H -0.0115 0.3704 -0.2206
C5A C -0.3477(9) 0.6684(5) -0.2671(4)
C6A C 0.2676(9) 0.2771(5) -0.2213(5)
C7A C -0.5388(8) 0.6738(5) -0.2740(4)
C8A C 0.4342(9) 0.2350(5) -0.2823(5)
C9A C -0.5769(9) 0.5952(6) -0.3251(5)
H11A H -0.7031 0.6012 -0.3325
C10A C 0.4315(9) 0.2491(6) -0.3836(5)
H12A H 0.5432 0.2207 -0.4249
C11A C -0.4305(9) 0.5078(5) -0.3656(5)
H13A H -0.4588 0.4548 -0.3989
C12A C 0.2621(9) 0.3053(6) -0.4220(5)
H14A H 0.2597 0.3125 -0.4890
C13A C -0.2930(9) 0.7588(5) -0.2237(4)
C14A C 0.2629(10) 0.2608(6) -0.1114(5)
C15A C -0.7052(9) 0.7665(6) -0.2309(4)
C16A C 0.6275(9) 0.1707(6) -0.2488(5)
C17A C -0.0871(9) 0.4063(5) -0.4064(5)
C18A C 0.3302(12) 0.5737(9) -0.0072(7)
H15A H 0.207(13) 0.625(8) -0.020(6)
C19A C 0.6493(12) 0.5423(9) -0.0109(7)
H16A H 0.751(13) 0.568(8) -0.020(6)
C20A C -0.0006(9) -0.1050(6) 0.5382(5)
H17A H 0.006(9) -0.185(6) 0.559(5)
C21A C -0.0374(9) 0.0828(6) 0.5601(5)
H18A H -0.069(10) 0.133(6) 0.600(5)
O15 O -0.4925(18) 0.0494(11) 0.4353(11)
O14? O -0.4071(15) 0.0117(11) 0.3601(11)
loop_
_geom_bond_atom_site_label_1
_geom_bond_atom_site_label_2
_geom_bond_site_symmetry_1
_geom_bond_site_symmetry_2
Co1 O2 1_555 1_555
Co2 O1 1_555 1_555
O1 C13 1_555 1_555
O2 H1 1_555 1_555
H2 O2 1_555 1_555
O3 C14 1_555 1_555
O4 Co1 1_555 1_555
O5 Co1 1_555 1_555
H3 O5 1_555 1_555
H4 O5 1_555 1_555
O6 C14 1_555 1_555
O7 Co2 1_555 1_555
H5 O7 1_555 1_555
H6 O7 1_555 1_555
O8 Co1 1_555 1_555
O9 C16 1_555 1_555
O10 Co2 1_555 1_555
H7 O10 1_555 1_555
H8 O10 1_555 1_555
O11 C15 1_555 1_555
O12 C16 1_555 1_555
O13 C17 1_555 1_555
N1 Co1 1_555 1_555
N2 Co2 1_555 1_555
C1 C3 1_555 1_555
C2 C4 1_555 1_555
C3 H9 1_555 1_555
C4 H10 1_555 1_555
C5 C3 1_555 1_555
C6 C4 1_555 1_555
C7 C5 1_555 1_555
C8 C6 1_555 1_555
C9 C7 1_555 1_555
H11 C9 1_555 1_555
C10 C8 1_555 1_555
H12 C10 1_555 1_555
C11 C1 1_555 1_555
H13 C11 1_555 1_555
C12 C2 1_555 1_555
H14 C12 1_555 1_555
C13 O4 1_555 1_555
C14 C6 1_555 1_555
C15 O8 1_555 1_555
C16 C8 1_555 1_555
C17 C1 1_555 1_555
C18 N1 1_555 1_555
H15 C18 1_555 1_555
C19 N1 1_555 1_555
H16 C19 1_555 1_555
C20 N2 1_555 1_555
H17 C20 1_555 1_555
C21 N2 1_555 1_555
H18 C21 1_555 1_555
Co1A O6 1_555 1_555
Co1A_2 N1A 1_555 1_555
Co2A O1A 1_555 1_555
Co2_2 O11 1_555 1_555
Co2_3 O12 1_555 1_555
Co2A_2 N2A 1_555 1_555
Co2A_3 O11A 1_555 1_555
Co2A_4 O12A 1_555 1_555
O1A C13A 1_555 1_555
O2A Co1A 1_555 1_555
H1A O2A 1_555 1_555
H2A O2A 1_555 1_555
O3A C14A 1_555 1_555
O4A Co1A 1_555 1_555
O5A Co1A 1_555 1_555
H3A O5A 1_555 1_555
H4A O5A 1_555 1_555
O6A Co1 1_555 1_555
O7A Co2A 1_555 1_555
H5A O7A 1_555 1_555
H6A O7A 1_555 1_555
O8A Co1A 1_555 1_555
O9A C16A 1_555 1_555
O10A Co2A 1_555 1_555
H7A O10A 1_555 1_555
H8A O10A 1_555 1_555
O11A C15A 1_555 1_555
O11_2 Co2 1_555 1_555
O11A_2 Co2A 1_555 1_555
O12A C16A 1_555 1_555
O12_2 Co2 1_555 1_555
O12A_2 Co2A 1_555 1_555
O13A C17A 1_555 1_555
N1A C18A 1_555 1_555
N1A_2 Co1A 1_555 1_555
N2A C20A 1_555 1_555
N2A_2 Co2A 1_555 1_555
C1A C3A 1_555 1_555
C2A C4A 1_555 1_555
C3A H9A 1_555 1_555
C4A H10A 1_555 1_555
C5A C3A 1_555 1_555
C6A C4A 1_555 1_555
C7A C5A 1_555 1_555
C8A C6A 1_555 1_555
C9A C7A 1_555 1_555
H11A C9A 1_555 1_555
C10A C8A 1_555 1_555
H12A C10A 1_555 1_555
C11A C1A 1_555 1_555
H13A C11A 1_555 1_555
C12A C2A 1_555 1_555
H14A C12A 1_555 1_555
C13A O4A 1_555 1_555
C14A O6A 1_555 1_555
C15A O8A 1_555 1_555
C16A C8A 1_555 1_555
C17A C1A 1_555 1_555
C18A C19 1_555 1_555
H15A C18A 1_555 1_555
C19A C18 1_555 1_555
H16A C19A 1_555 1_555
C20A C21 1_555 1_555
H17A C20A 1_555 1_555
C21A C20 1_555 1_555
H18A C21A 1_555 1_555
C2 C17 1_555 1_555
C5 C13 1_555 1_555
C7 C15 1_555 1_555
C9 C11 1_555 1_555
C10 C12 1_555 1_555
N1A C19A 1_555 1_555
N2A C21A 1_555 1_555
C2A C17A 1_555 1_555
C5A C13A 1_555 1_555
C6A C14A 1_555 1_555
C7A C15A 1_555 1_555
C9A C11A 1_555 1_555
C10A C12A 1_555 1_555

#END
