
#######################################################################
#
#                 Cambridge Crystallographic Data Centre
#                                CCDC 
#
#######################################################################
#
# If this CIF has been generated from an entry in the Cambridge 
# Structural Database, then it will include bibliographic, chemical, 
# crystal, experimental, refinement or atomic coordinate data resulting 
# from the CCDC's data processing and validation procedures.
#
#######################################################################

data_YAQBOJ
_symmetry_cell_setting           orthorhombic
_symmetry_space_group_name_H-M   'P n a 21'
_symmetry_Int_Tables_number      33
_space_group_name_Hall           'P 2c -2n'
loop_
_symmetry_equiv_pos_site_id
_symmetry_equiv_pos_as_xyz
1 x,y,z
2 1/2-x,1/2+y,1/2+z
3 1/2+x,1/2-y,z
4 -x,-y,1/2+z
_cell_length_a                   15.7234(5)
_cell_length_b                   8.2313(2)
_cell_length_c                   10.8078(4)
_cell_angle_alpha                90
_cell_angle_beta                 90
_cell_angle_gamma                90
_cell_volume                     1398.79
loop_
_atom_site_label
_atom_site_type_symbol
_atom_site_fract_x
_atom_site_fract_y
_atom_site_fract_z
Co1 Co 0.592920(10) 0.18001(2) 0.21429(5)
N1 N 0.66138(9) -0.0555(2) 0.17871(13)
N2 N 0.60265(11) 0.0881(3) 0.4039(2)
N3 N 0.52433(12) 0.3892(2) 0.2778(2)
N4 N 0.4406(1) 0.6298(2) 0.3289(2)
N5 N 0.41961(12) 0.7516(2) 0.5317(2)
N6 N 0.47192(9) 0.0571(2) 0.2106(2)
N7 N 0.32197(10) -0.0133(2) 0.2314(2)
N8 N 0.20558(11) 0.1819(2) 0.2392(2)
C1 C 0.75490(13) -0.0429(2) 0.1722(2)
C2 C 0.7880(2) 0.0416(3) 0.0568(3)
C3 C 0.6250(1) -0.1300(3) 0.0644(2)
C4 C 0.6552(2) -0.3009(3) 0.0326(3)
C5 C 0.6377(2) -0.1570(2) 0.2877(2)
C6 C 0.6509(2) -0.0649(3) 0.4073(2)
C7 C 0.48636(12) 0.5002(2) 0.3079(2)
C8 C 0.43207(13) 0.6881(2) 0.4391(2)
C9 C 0.40117(9) 0.0305(2) 0.2218(3)
C10 C 0.26267(10) 0.0965(2) 0.2347(2)
H1 H 0.77403(13) 0.0161(2) 0.2424(2)
H2 H 0.77787(13) -0.1496(2) 0.1743(2)
H3 H 0.8483(2) 0.0468(3) 0.0599(3)
H4 H 0.7710(2) -0.0177(3) -0.0145(3)
H5 H 0.7654(2) 0.1485(3) 0.0527(3)
H6 H 0.5650(1) -0.1338(3) 0.0740(2)
H7 H 0.6390(1) -0.0613(3) -0.0032(2)
H8 H 0.6415(2) -0.3726(3) 0.0985(3)
H9 H 0.6279(2) -0.3366(3) -0.0410(3)
H10 H 0.7150(2) -0.3001(3) 0.0203(3)
H11 H 0.5796(2) -0.1870(2) 0.2811(2)
H12 H 0.6720(2) -0.2519(2) 0.2885(2)
H13 H 0.7097(2) -0.0417(3) 0.4175(2)
H14 H 0.6317(2) -0.1293(3) 0.4747(2)
H15 H 0.63076(11) 0.1666(3) 0.4537(2)
H16 H 0.54711(11) 0.0695(3) 0.4355(2)
Co1C Co 0.407080(10) 0.81999(2) 0.71429(5)
Co1B Co 0.092920(10) 0.31999(2) 0.21429(5)
N5C N 0.58039(12) 0.2484(2) 0.0317(2)
N8B N 0.70558(11) 0.3181(2) 0.2392(2)
loop_
_geom_bond_atom_site_label_1
_geom_bond_atom_site_label_2
_geom_bond_site_symmetry_1
_geom_bond_site_symmetry_2
Co1 N1 1_555 1_555
N1 C1 1_555 1_555
N2 Co1 1_555 1_555
N3 Co1 1_555 1_555
N4 C7 1_555 1_555
N5 C8 1_555 1_555
N6 Co1 1_555 1_555
N7 C9 1_555 1_555
N8 C10 1_555 1_555
C1 C2 1_555 1_555
C2 H3 1_555 1_555
C3 N1 1_555 1_555
C4 C3 1_555 1_555
C5 N1 1_555 1_555
C6 N2 1_555 1_555
C7 N3 1_555 1_555
C8 N4 1_555 1_555
C9 N6 1_555 1_555
C10 N7 1_555 1_555
H1 C1 1_555 1_555
H2 C1 1_555 1_555
H4 C2 1_555 1_555
H5 C2 1_555 1_555
H6 C3 1_555 1_555
H7 C3 1_555 1_555
H8 C4 1_555 1_555
H9 C4 1_555 1_555
H10 C4 1_555 1_555
H11 C5 1_555 1_555
H12 C5 1_555 1_555
H13 C6 1_555 1_555
H14 C6 1_555 1_555
H15 N2 1_555 1_555
H16 N2 1_555 1_555
Co1C N5 1_555 1_555
Co1B N8 1_555 1_555
N5C Co1 1_555 1_555
N8B Co1 1_555 1_555
C5 C6 1_555 1_555

#END
