
#######################################################################
#
#                 Cambridge Crystallographic Data Centre
#                                CCDC 
#
#######################################################################
#
# If this CIF has been generated from an entry in the Cambridge 
# Structural Database, then it will include bibliographic, chemical, 
# crystal, experimental, refinement or atomic coordinate data resulting 
# from the CCDC's data processing and validation procedures.
#
#######################################################################

data_YAQBUP
_symmetry_cell_setting           orthorhombic
_symmetry_space_group_name_H-M   'P n a 21'
_symmetry_Int_Tables_number      33
_space_group_name_Hall           'P 2c -2n'
loop_
_symmetry_equiv_pos_site_id
_symmetry_equiv_pos_as_xyz
1 x,y,z
2 1/2-x,1/2+y,1/2+z
3 1/2+x,1/2-y,z
4 -x,-y,1/2+z
_cell_length_a                   15.5896(5)
_cell_length_b                   8.1624(4)
_cell_length_c                   10.7894(5)
_cell_angle_alpha                90
_cell_angle_beta                 90
_cell_angle_gamma                90
_cell_volume                     1372.94
loop_
_atom_site_label
_atom_site_type_symbol
_atom_site_fract_x
_atom_site_fract_y
_atom_site_fract_z
Ni1 Ni 0.59286(2) 0.18060(4) 0.21835(10)
N1 N 0.6601(2) -0.0499(3) 0.1760(3)
N2 N 0.6023(2) 0.0954(5) 0.3997(3)
N3 N 0.5251(2) 0.3874(4) 0.2761(4)
N4 N 0.4403(3) 0.6296(4) 0.3284(3)
N5 N 0.4189(2) 0.7485(4) 0.5336(4)
N6 N 0.4733(2) 0.0595(4) 0.2074(4)
N7 N 0.3224(2) -0.0151(3) 0.2280(5)
N8 N 0.2048(2) 0.1815(3) 0.2364(4)
C1 C 0.7551(2) -0.0364(5) 0.1690(4)
C2 C 0.7891(3) 0.0480(6) 0.0526(5)
C3 C 0.6247(3) -0.1260(5) 0.0615(4)
C4 C 0.6561(4) -0.2974(7) 0.0297(5)
C5 C 0.6372(3) -0.1525(5) 0.2845(4)
C6 C 0.6497(3) -0.0602(5) 0.4048(4)
C7 C 0.4870(2) 0.4996(4) 0.3071(4)
C8 C 0.4317(3) 0.6871(4) 0.4399(4)
C9 C 0.4020(2) 0.0311(4) 0.2184(6)
C10 C 0.2621(2) 0.0964(4) 0.2308(4)
H1 H 0.7743(2) 0.0240(5) 0.2390(4)
H2 H 0.7784(2) -0.1438(5) 0.1718(4)
H3 H 0.8500(3) 0.0501(6) 0.0549(5)
H4 H 0.7706(3) -0.0105(6) -0.0187(5)
H5 H 0.7679(3) 0.1570(6) 0.0492(5)
H6 H 0.5641(3) -0.1312(5) 0.0705(4)
H7 H 0.6386(3) -0.0564(5) -0.0062(4)
H8 H 0.6410(4) -0.3708(7) 0.0945(5)
H9 H 0.6303(4) -0.3326(7) -0.0455(5)
H10 H 0.7167(4) -0.2960(7) 0.0203(5)
H11 H 0.5788(3) -0.1844(5) 0.2778(4)
H12 H 0.6726(3) -0.2473(5) 0.2851(4)
H13 H 0.7090(3) -0.0385(5) 0.4166(4)
H14 H 0.6289(3) -0.1244(5) 0.4718(4)
H15 H 0.6315(2) 0.1747(5) 0.4485(3)
H16 H 0.5463(2) 0.0790(5) 0.4320(3)
Ni1B Ni 0.09286(2) 0.31940(4) 0.21835(10)
Ni1C Ni 0.40714(2) 0.81940(4) 0.71835(10)
N5C N 0.5811(2) 0.2515(4) 0.0336(4)
N8B N 0.7048(2) 0.3185(3) 0.2364(4)
loop_
_geom_bond_atom_site_label_1
_geom_bond_atom_site_label_2
_geom_bond_site_symmetry_1
_geom_bond_site_symmetry_2
Ni1 N1 1_555 1_555
N1 C1 1_555 1_555
N2 Ni1 1_555 1_555
N3 Ni1 1_555 1_555
N4 C7 1_555 1_555
N5 C8 1_555 1_555
N6 Ni1 1_555 1_555
N7 C9 1_555 1_555
N8 C10 1_555 1_555
C1 C2 1_555 1_555
C2 H3 1_555 1_555
C3 N1 1_555 1_555
C4 C3 1_555 1_555
C5 N1 1_555 1_555
C6 N2 1_555 1_555
C7 N3 1_555 1_555
C8 N4 1_555 1_555
C9 N6 1_555 1_555
C10 N7 1_555 1_555
H1 C1 1_555 1_555
H2 C1 1_555 1_555
H4 C2 1_555 1_555
H5 C2 1_555 1_555
H6 C3 1_555 1_555
H7 C3 1_555 1_555
H8 C4 1_555 1_555
H9 C4 1_555 1_555
H10 C4 1_555 1_555
H11 C5 1_555 1_555
H12 C5 1_555 1_555
H13 C6 1_555 1_555
H14 C6 1_555 1_555
H15 N2 1_555 1_555
H16 N2 1_555 1_555
Ni1B N8 1_555 1_555
Ni1C N5 1_555 1_555
N5C Ni1 1_555 1_555
N8B Ni1 1_555 1_555
C5 C6 1_555 1_555

#END
