
#######################################################################
#
#                 Cambridge Crystallographic Data Centre
#                                CCDC 
#
#######################################################################
#
# If this CIF has been generated from an entry in the Cambridge 
# Structural Database, then it will include bibliographic, chemical, 
# crystal, experimental, refinement or atomic coordinate data resulting 
# from the CCDC's data processing and validation procedures.
#
#######################################################################

data_YAQDOL
_symmetry_cell_setting           rhombohedral
_symmetry_space_group_name_H-M   'R -3'
_symmetry_Int_Tables_number      148
_space_group_name_Hall           '-R 3'
loop_
_symmetry_equiv_pos_site_id
_symmetry_equiv_pos_as_xyz
1 x,y,z
2 -y,x-y,z
3 -x+y,-x,z
4 2/3+x,1/3+y,1/3+z
5 2/3-y,1/3+x-y,1/3+z
6 2/3-x+y,1/3-x,1/3+z
7 1/3+x,2/3+y,2/3+z
8 1/3-y,2/3+x-y,2/3+z
9 1/3-x+y,2/3-x,2/3+z
10 -x,-y,-z
11 y,-x+y,-z
12 x-y,x,-z
13 1/3-x,2/3-y,2/3-z
14 1/3+y,2/3-x+y,2/3-z
15 1/3+x-y,2/3+x,2/3-z
16 2/3-x,1/3-y,1/3-z
17 2/3+y,1/3-x+y,1/3-z
18 2/3+x-y,1/3+x,1/3-z
_cell_length_a                   16.211(5)
_cell_length_b                   16.211(5)
_cell_length_c                   23.312(6)
_cell_angle_alpha                90
_cell_angle_beta                 90
_cell_angle_gamma                120
_cell_volume                     5305.54
loop_
_atom_site_label
_atom_site_type_symbol
_atom_site_fract_x
_atom_site_fract_y
_atom_site_fract_z
La1 La 0.0000 0.0000 0.31752(3)
O1 O -0.1146(5) -0.0033(4) 0.2418(3)
O2 O -0.0506(4) 0.1285(4) 0.2933(3)
O3 O 0.0996(5) 0.1256(5) 0.3877(3)
N1 N 0.2416(8) 0.2427(12) 0.4198(6)
C1 C -0.0927(5) 0.1477(5) 0.1515(4)
C2 C -0.2066(5) 0.1417(5) 0.2231(3)
C3 C -0.1329(5) 0.1244(5) 0.2070(3)
C4 C 0.3297(9) 0.2836(11) 0.4517(8)
H1 H 0.3498 0.2373 0.4556
H2 H 0.3202 0.3025 0.4890
H3 H 0.3778 0.3384 0.4316
C5 C 0.1919(16) 0.3049(12) 0.4032(7)
H4 H 0.1316 0.2644 0.3851
H5 H 0.2324 0.3549 0.3772
H6 H 0.1823 0.3322 0.4373
C6 C 0.1806(16) 0.160(2) 0.4124(7)
C7 C -0.0181(6) 0.1312(6) 0.1334(4)
H7 H 0.0053 0.1035 0.1588
C8 C -0.0967(5) 0.0819(6) 0.2496(4)
C9 C -0.2493(6) 0.1176(6) 0.2778(4)
H8 H -0.2276 0.0896 0.3042
C10 C -0.3223(6) 0.1339(7) 0.2938(4)
H9 H -0.3504 0.1166 0.3299
C11 C 0.0188(6) 0.1551(6) 0.0806(4)
H10 H 0.0664 0.1419 0.0703
C12 C 0.2183(12) 0.0762(16) 0.4359(8)
H11 H 0.2796 0.1104 0.4539
H12 H 0.2221 0.0421 0.4033
H13 H 0.1728 0.0319 0.4628
La1O La -0.3333 0.3333 0.01581(3)
La1O_2 La -0.3333 -0.6667 0.01581(3)
La1O_3 La 0.6667 0.3333 0.01581(3)
O1O O -0.2187(5) 0.3366(4) 0.0915(3)
O1A O 0.0033(4) -0.1113(6) 0.2418(3)
O1P O -0.3366(4) -0.5554(6) 0.0915(3)
O1B O 0.1113(6) 0.1146(5) 0.2418(3)
O1Q O 0.5554(6) 0.2187(5) 0.0915(3)
O1P_2 O -0.3366(4) 0.4446(6) 0.0915(3)
O1Q_2 O -0.4446(6) 0.2187(5) 0.0915(3)
O2O O -0.2827(4) 0.2048(4) 0.0400(3)
O2A O -0.1285(4) -0.1791(6) 0.2933(3)
O2P O -0.2048(4) -0.4876(6) 0.0400(3)
O2B O 0.1791(6) 0.0506(4) 0.2933(3)
O2Q O 0.4876(6) 0.2827(4) 0.0400(3)
O2P_2 O -0.2048(4) 0.5124(6) 0.0400(3)
O2Q_2 O -0.5124(6) 0.2827(4) 0.0400(3)
O3A O -0.1256(5) -0.0260(7) 0.3877(3)
O3B O 0.0260(7) -0.0996(5) 0.3877(3)
O3O O -0.4329(5) 0.2077(5) -0.0544(3)
O3P O -0.2077(5) 0.3593(7) -0.0544(3)
O3Q O -0.3593(7) 0.4329(5) -0.0544(3)
N1A N -0.2427(12) -0.0011(14) 0.4198(6)
N1B N 0.0011(14) -0.2416(8) 0.4198(6)
N1O N -0.5749(8) 0.0906(12) -0.0865(6)
N1P N -0.0906(12) 0.3344(14) -0.0865(6)
N1Q N -0.3344(14) 0.5749(8) -0.0865(6)
C1O C -0.2406(5) 0.1856(5) 0.1818(4)
C1A C -0.1477(5) -0.2404(7) 0.1515(4)
C1P C -0.1856(5) -0.4263(7) 0.1818(4)
C1B C 0.2404(7) 0.0927(5) 0.1515(4)
C1Q C 0.4263(7) 0.2406(5) 0.1818(4)
C2O C -0.1267(5) 0.1916(5) 0.1102(3)
C2A C -0.1417(5) -0.3483(7) 0.2231(3)
C2P C -0.1916(5) -0.3184(7) 0.1102(3)
C2B C 0.3483(7) 0.2066(5) 0.2231(3)
C2Q C 0.3184(7) 0.1267(5) 0.1102(3)
C3O C -0.2004(5) 0.2089(5) 0.1263(3)
C3A C -0.1244(5) -0.2573(7) 0.2070(3)
C3P C -0.2089(5) -0.4094(7) 0.1263(3)
C3B C 0.2573(7) 0.1329(5) 0.2070(3)
C3Q C 0.4094(7) 0.2004(5) 0.1263(3)
C4A C -0.2836(11) 0.0461(14) 0.4517(8)
C4B C -0.0461(14) -0.3297(9) 0.4517(8)
C4O C -0.6630(9) 0.0497(11) -0.1184(8)
C4P C -0.0497(11) 0.2872(14) -0.1184(8)
C4Q C -0.2872(14) 0.6630(9) -0.1184(8)
H1A H -0.2373 0.1125 0.4556
H1B H -0.1125 -0.3498 0.4556
H1O H -0.6831 0.0960 -0.1223
H1P H -0.0960 0.2208 -0.1223
H1Q H -0.2208 0.6831 -0.1223
H2A H -0.3025 0.0177 0.4890
H2B H -0.0177 -0.3202 0.4890
H2O H -0.6535 0.0308 -0.1557
H2P H -0.0308 0.3156 -0.1557
H2Q H -0.3156 0.6535 -0.1557
H3A H -0.3384 0.0394 0.4316
H3B H -0.0394 -0.3778 0.4316
H3O H -0.7111 -0.0051 -0.0983
H3P H 0.0051 0.2939 -0.0983
H3Q H -0.2939 0.7111 -0.0983
C5A C -0.3049(12) -0.1130(20) 0.4032(7)
C5B C 0.1130(20) -0.1919(16) 0.4032(7)
C5O C -0.5252(16) 0.0284(12) -0.0699(7)
C5P C -0.0284(12) 0.4463(20) -0.0699(7)
C5Q C -0.4463(20) 0.5252(16) -0.0699(7)
H4A H -0.2644 -0.1328 0.3851
H4B H 0.1328 -0.1316 0.3851
H4O H -0.4649 0.0689 -0.0518
H4P H -0.0689 0.4661 -0.0518
H4Q H -0.4661 0.4649 -0.0518
H5A H -0.3549 -0.1225 0.3772
H5B H 0.1225 -0.2324 0.3772
H5O H -0.5657 -0.0216 -0.0439
H5P H 0.0216 0.4558 -0.0439
H5Q H -0.4558 0.5657 -0.0439
H6A H -0.3322 -0.1499 0.4373
H6B H 0.1499 -0.1823 0.4373
H6O H -0.5156 0.0011 -0.1040
H6P H -0.0011 0.4832 -0.1040
H6Q H -0.4832 0.5156 -0.1040
C6A C -0.160(2) 0.0206(26) 0.4124(7)
C6B C -0.0206(26) -0.1806(16) 0.4124(7)
C6O C -0.5139(16) 0.173(2) -0.0791(7)
C6P C -0.173(2) 0.3127(26) -0.0791(7)
C6Q C -0.3127(26) 0.5139(16) -0.0791(7)
C7O C -0.3152(6) 0.2021(6) 0.1999(4)
C7A C -0.1312(6) -0.1493(8) 0.1334(4)
C7P C -0.2021(6) -0.5174(8) 0.1999(4)
C7B C 0.1493(8) 0.0181(6) 0.1334(4)
C7Q C 0.5174(8) 0.3152(6) 0.1999(4)
H7O H -0.3386 0.2298 0.1745
H7A H -0.1035 -0.0982 0.1588
H7P H -0.2298 -0.5685 0.1745
H7B H 0.0982 -0.0053 0.1588
H7Q H 0.5685 0.3386 0.1745
C8O C -0.2366(5) 0.2514(6) 0.0837(4)
C8A C -0.0819(6) -0.1786(8) 0.2496(4)
C8P C -0.2514(6) -0.4881(8) 0.0837(4)
C8B C 0.1786(8) 0.0967(5) 0.2496(4)
C8Q C 0.4881(8) 0.2366(5) 0.0837(4)
C9O C -0.0840(6) 0.2157(6) 0.0555(4)
C9A C -0.1176(6) -0.3669(8) 0.2778(4)
C9P C -0.2157(6) -0.2998(8) 0.0555(4)
C9B C 0.3669(8) 0.2493(6) 0.2778(4)
C9Q C 0.2998(8) 0.0840(6) 0.0555(4)
H8O H -0.1057 0.2437 0.0291
H8A H -0.0896 -0.3172 0.3042
H8P H -0.2437 -0.3495 0.0291
H8B H 0.3172 0.2276 0.3042
H8Q H 0.3495 0.1057 0.0291
C10O C -0.0110(6) 0.1994(7) 0.0395(4)
C10A C -0.1339(7) -0.4562(9) 0.2938(4)
C10P C -0.1994(7) -0.2105(9) 0.0395(4)
C10B C 0.4562(9) 0.3223(6) 0.2938(4)
C10Q C 0.2105(9) 0.0110(6) 0.0395(4)
H9O H 0.0171 0.2167 0.0034
H9A H -0.1166 -0.4670 0.3299
H9P H -0.2167 -0.1997 0.0034
H9B H 0.4670 0.3504 0.3299
H9Q H 0.1997 -0.0171 0.0034
C11O C -0.3521(6) 0.1782(6) 0.2527(4)
C11A C -0.1551(6) -0.1363(8) 0.0806(4)
C11P C -0.1782(6) -0.5304(8) 0.2527(4)
C11B C 0.1363(8) -0.0188(6) 0.0806(4)
C11Q C 0.5304(8) 0.3521(6) 0.2527(4)
H10O H -0.3997 0.1914 0.2630
H10A H -0.1419 -0.0755 0.0703
H10P H -0.1914 -0.5912 0.2630
H10B H 0.0755 -0.0664 0.0703
H10Q H 0.5912 0.3997 0.2630
C12A C -0.0762(16) 0.1421(20) 0.4359(8)
C12B C -0.1421(20) -0.2183(12) 0.4359(8)
C12O C -0.5516(12) 0.2571(16) -0.1026(8)
C12P C -0.2571(16) 0.1912(20) -0.1026(8)
C12Q C -0.1912(20) 0.5516(12) -0.1026(8)
H11A H -0.1104 0.1692 0.4539
H11B H -0.1692 -0.2796 0.4539
H11O H -0.6129 0.2229 -0.1206
H11P H -0.2229 0.1641 -0.1206
H11Q H -0.1641 0.6129 -0.1206
H12A H -0.0421 0.1800 0.4033
H12B H -0.1800 -0.2221 0.4033
H12O H -0.5554 0.2912 -0.0700
H12P H -0.2912 0.1533 -0.0700
H12Q H -0.1533 0.5554 -0.0700
H13A H -0.0319 0.1409 0.4628
H13B H -0.1409 -0.1728 0.4628
H13O H -0.5061 0.3014 -0.1295
H13P H -0.3014 0.1924 -0.1295
H13Q H -0.1924 0.5061 -0.1295
loop_
_geom_bond_atom_site_label_1
_geom_bond_atom_site_label_2
_geom_bond_site_symmetry_1
_geom_bond_site_symmetry_2
La1 O1 1_555 1_555
O1 C8 1_555 1_555
O2 La1 1_555 1_555
O3 La1 1_555 1_555
N1 C4 1_555 1_555
C1 C3 1_555 1_555
C2 C3 1_555 1_555
C3 C8 1_555 1_555
C4 H1 1_555 1_555
H2 C4 1_555 1_555
H3 C4 1_555 1_555
C5 N1 1_555 1_555
H4 C5 1_555 1_555
H5 C5 1_555 1_555
H6 C5 1_555 1_555
C6 O3 1_555 1_555
C7 C1 1_555 1_555
H7 C7 1_555 1_555
C8 O2 1_555 1_555
C9 C2 1_555 1_555
H8 C9 1_555 1_555
C10 C9 1_555 1_555
H9 C10 1_555 1_555
C11 C7 1_555 1_555
H10 C11 1_555 1_555
C12 C6 1_555 1_555
H11 C12 1_555 1_555
H12 C12 1_555 1_555
H13 C12 1_555 1_555
La1O O1O 1_555 1_555
La1O_2 O1P 1_555 1_555
La1O_3 O1Q 1_555 1_555
O1O C8O 1_555 1_555
O1A La1 1_555 1_555
O1P C8P 1_555 1_555
O1B La1 1_555 1_555
O1Q C8Q 1_555 1_555
O1P_2 La1O 1_555 1_555
O1Q_2 La1O 1_555 1_555
O2O La1O 1_555 1_555
O2A La1 1_555 1_555
O2P La1O_2 1_555 1_555
O2B La1 1_555 1_555
O2Q La1O_3 1_555 1_555
O2P_2 La1O 1_555 1_555
O2Q_2 La1O 1_555 1_555
O3A La1 1_555 1_555
O3B La1 1_555 1_555
O3O La1O 1_555 1_555
O3P La1O 1_555 1_555
O3Q La1O 1_555 1_555
N1A C4A 1_555 1_555
N1B C4B 1_555 1_555
N1O C4O 1_555 1_555
N1P C4P 1_555 1_555
N1Q C4Q 1_555 1_555
C1O C2 1_555 1_555
C1A C2P 1_555 1_555
C1P C2A 1_555 1_555
C1B C2Q 1_555 1_555
C1Q C2B 1_555 1_555
C2O C1 1_555 1_555
C2A C3A 1_555 1_555
C2P C3P 1_555 1_555
C2B C3B 1_555 1_555
C2Q C3Q 1_555 1_555
C3O C1O 1_555 1_555
C3A C1A 1_555 1_555
C3P C1P 1_555 1_555
C3B C1B 1_555 1_555
C3Q C1Q 1_555 1_555
C4A H1A 1_555 1_555
C4B H1B 1_555 1_555
C4O H1O 1_555 1_555
C4P H1P 1_555 1_555
C4Q H1Q 1_555 1_555
H2A C4A 1_555 1_555
H2B C4B 1_555 1_555
H2O C4O 1_555 1_555
H2P C4P 1_555 1_555
H2Q C4Q 1_555 1_555
H3A C4A 1_555 1_555
H3B C4B 1_555 1_555
H3O C4O 1_555 1_555
H3P C4P 1_555 1_555
H3Q C4Q 1_555 1_555
C5A N1A 1_555 1_555
C5B N1B 1_555 1_555
C5O N1O 1_555 1_555
C5P N1P 1_555 1_555
C5Q N1Q 1_555 1_555
H4A C5A 1_555 1_555
H4B C5B 1_555 1_555
H4O C5O 1_555 1_555
H4P C5P 1_555 1_555
H4Q C5Q 1_555 1_555
H5A C5A 1_555 1_555
H5B C5B 1_555 1_555
H5O C5O 1_555 1_555
H5P C5P 1_555 1_555
H5Q C5Q 1_555 1_555
H6A C5A 1_555 1_555
H6B C5B 1_555 1_555
H6O C5O 1_555 1_555
H6P C5P 1_555 1_555
H6Q C5Q 1_555 1_555
C6A O3A 1_555 1_555
C6B O3B 1_555 1_555
C6O O3O 1_555 1_555
C6P O3P 1_555 1_555
C6Q O3Q 1_555 1_555
C7O C1O 1_555 1_555
C7A C1A 1_555 1_555
C7P C1P 1_555 1_555
C7B C1B 1_555 1_555
C7Q C1Q 1_555 1_555
H7O C7O 1_555 1_555
H7A C7A 1_555 1_555
H7P C7P 1_555 1_555
H7B C7B 1_555 1_555
H7Q C7Q 1_555 1_555
C8O O2O 1_555 1_555
C8A O1A 1_555 1_555
C8P O2P 1_555 1_555
C8B O1B 1_555 1_555
C8Q O2Q 1_555 1_555
C9O C2O 1_555 1_555
C9A C2A 1_555 1_555
C9P C2P 1_555 1_555
C9B C2B 1_555 1_555
C9Q C2Q 1_555 1_555
H8O C9O 1_555 1_555
H8A C9A 1_555 1_555
H8P C9P 1_555 1_555
H8B C9B 1_555 1_555
H8Q C9Q 1_555 1_555
C10O C11 1_555 1_555
C10A C9A 1_555 1_555
C10P C9P 1_555 1_555
C10B C9B 1_555 1_555
C10Q C9Q 1_555 1_555
H9O C10O 1_555 1_555
H9A C10A 1_555 1_555
H9P C10P 1_555 1_555
H9B C10B 1_555 1_555
H9Q C10Q 1_555 1_555
C11O C10 1_555 1_555
C11A C7A 1_555 1_555
C11P C7P 1_555 1_555
C11B C7B 1_555 1_555
C11Q C7Q 1_555 1_555
H10O C11O 1_555 1_555
H10A C11A 1_555 1_555
H10P C11P 1_555 1_555
H10B C11B 1_555 1_555
H10Q C11Q 1_555 1_555
C12A C6A 1_555 1_555
C12B C6B 1_555 1_555
C12O C6O 1_555 1_555
C12P C6P 1_555 1_555
C12Q C6Q 1_555 1_555
H11A C12A 1_555 1_555
H11B C12B 1_555 1_555
H11O C12O 1_555 1_555
H11P C12P 1_555 1_555
H11Q C12Q 1_555 1_555
H12A C12A 1_555 1_555
H12B C12B 1_555 1_555
H12O C12O 1_555 1_555
H12P C12P 1_555 1_555
H12Q C12Q 1_555 1_555
H13A C12A 1_555 1_555
H13B C12B 1_555 1_555
H13O C12O 1_555 1_555
H13P C12P 1_555 1_555
H13Q C12Q 1_555 1_555
N1 C6 1_555 1_555
O2A C8A 1_555 1_555
O2B C8B 1_555 1_555
N1A C6A 1_555 1_555
N1B C6B 1_555 1_555
N1O C6O 1_555 1_555
N1P C6P 1_555 1_555
N1Q C6Q 1_555 1_555
C2O C3O 1_555 1_555
C3O C8O 1_555 1_555
C3A C8A 1_555 1_555
C3P C8P 1_555 1_555
C3B C8B 1_555 1_555
C3Q C8Q 1_555 1_555
C7O C11O 1_555 1_555
C9O C10O 1_555 1_555
C10A C11P 1_555 1_555
C10P C11A 1_555 1_555
C10B C11Q 1_555 1_555
C10Q C11B 1_555 1_555

#END
