
#######################################################################
#
#                 Cambridge Crystallographic Data Centre
#                                CCDC 
#
#######################################################################
#
# If this CIF has been generated from an entry in the Cambridge 
# Structural Database, then it will include bibliographic, chemical, 
# crystal, experimental, refinement or atomic coordinate data resulting 
# from the CCDC's data processing and validation procedures.
#
#######################################################################

data_YAQFUT
_symmetry_cell_setting           monoclinic
_symmetry_space_group_name_H-M   'P 21/c'
_symmetry_Int_Tables_number      14
_space_group_name_Hall           '-P 2ybc'
loop_
_symmetry_equiv_pos_site_id
_symmetry_equiv_pos_as_xyz
1 x,y,z
2 -x,1/2+y,1/2-z
3 -x,-y,-z
4 x,1/2-y,1/2+z
_cell_length_a                   8.4218(14)
_cell_length_b                   11.6066(19)
_cell_length_c                   9.8732(16)
_cell_angle_alpha                90
_cell_angle_beta                 95.724(2)
_cell_angle_gamma                90
_cell_volume                     960.278
loop_
_atom_site_label
_atom_site_type_symbol
_atom_site_fract_x
_atom_site_fract_y
_atom_site_fract_z
N1 N -0.0206(3) 0.2619(2) -0.1444(2)
N2 N -0.1677(3) 0.2132(2) -0.1494(2)
H1 H -0.368(4) 0.087(2) -0.043(3)
H2 H 0.284(4) 0.284(3) -0.301(3)
H3 H 0.314(4) 0.383(3) -0.351(4)
H4 H 0.123(4) 0.477(3) -0.052(4)
H5 H 0.109(4) 0.567(3) -0.136(3)
Cu1 Cu 0.05322(3) 0.40350(3) -0.28165(3)
N3 N -0.2866(3) 0.0870(2) -0.0004(3)
N4 N -0.3395(3) -0.09511(19) 0.2669(2)
N5 N -0.1541(2) 0.01741(18) 0.2087(2)
N6 N 0.2805(3) 0.3536(3) -0.2903(3)
N7 N 0.1475(3) 0.5028(3) -0.1254(3)
N8 N -0.0212(3) 0.16115(19) 0.0381(2)
N9 N -0.3956(3) -0.0471(2) 0.1464(2)
N10 N -0.1971(3) -0.0568(2) 0.3046(2)
N11 N 0.0669(3) 0.23139(19) -0.0344(2)
C1 C -0.2791(3) 0.0215(2) 0.1157(2)
C2 C -0.1616(3) 0.1529(2) -0.0359(3)
C3 C 0.3742(3) 0.3853(3) -0.1613(3)
H6 H 0.3552 0.3305 -0.0906
H7 H 0.4873 0.3850 -0.1728
C4 C 0.3229(3) 0.5038(3) -0.1225(3)
H8 H 0.3561 0.5603 -0.1863
H9 H 0.3710 0.5234 -0.0321
Cu1C Cu 0.05322(3) 0.09650(3) 0.21835(3)
N5C N -0.1541(2) 0.48259(18) -0.2913(2)
N8C N -0.0212(3) 0.33885(19) -0.4619(2)
loop_
_geom_bond_atom_site_label_1
_geom_bond_atom_site_label_2
_geom_bond_site_symmetry_1
_geom_bond_site_symmetry_2
N1 N2 1_555 1_555
N2 C2 1_555 1_555
H1 N3 1_555 1_555
H2 N6 1_555 1_555
H3 N6 1_555 1_555
H4 N7 1_555 1_555
H5 N7 1_555 1_555
Cu1 N1 1_555 1_555
N3 C1 1_555 1_555
N4 N9 1_555 1_555
N5 N10 1_555 1_555
N6 Cu1 1_555 1_555
N7 Cu1 1_555 1_555
N8 N11 1_555 1_555
N9 C1 1_555 1_555
N10 N4 1_555 1_555
N11 N1 1_555 1_555
C1 N5 1_555 1_555
C2 N3 1_555 1_555
C3 N6 1_555 1_555
H6 C3 1_555 1_555
H7 C3 1_555 1_555
C4 N7 1_555 1_555
H8 C4 1_555 1_555
H9 C4 1_555 1_555
Cu1C N5 1_555 1_555
N5C Cu1 1_555 1_555
N8C Cu1 1_555 1_555
N8 C2 1_555 1_555
N8 Cu1C 1_555 1_555
C3 C4 1_555 1_555

#END
