
#######################################################################
#
#                 Cambridge Crystallographic Data Centre
#                                CCDC 
#
#######################################################################
#
# If this CIF has been generated from an entry in the Cambridge 
# Structural Database, then it will include bibliographic, chemical, 
# crystal, experimental, refinement or atomic coordinate data resulting 
# from the CCDC's data processing and validation procedures.
#
#######################################################################

data_YAQJAD
_symmetry_cell_setting           triclinic
_symmetry_space_group_name_H-M   'P 1'
_symmetry_Int_Tables_number      1
_space_group_name_Hall           'P 1'
loop_
_symmetry_equiv_pos_site_id
_symmetry_equiv_pos_as_xyz
1 x,y,z
_cell_length_a                   10.2050(10)
_cell_length_b                   10.8200(10)
_cell_length_c                   12.3060(10)
_cell_angle_alpha                77.524(5)
_cell_angle_beta                 73.743(5)
_cell_angle_gamma                89.201(5)
_cell_volume                     1272.1
loop_
_atom_site_label
_atom_site_type_symbol
_atom_site_fract_x
_atom_site_fract_y
_atom_site_fract_z
Cu1 Cu 0.71926(10) 0.32471(10) 0.34323(9)
Cu2 Cu 0.05203(10) 0.17104(9) 0.76619(9)
Cu3 Cu 0.91214(11) 0.57982(10) 0.18042(9)
O1 O 0.2201(6) 0.2396(6) 0.7853(5)
O2 O 0.2786(7) 0.2660(6) 0.5942(6)
O3 O 0.3932(7) 0.5190(6) 0.4662(6)
O4 O 0.5418(6) 0.3965(6) 0.3731(6)
O5 O 0.8024(7) 0.4698(6) 0.3733(6)
O6 O 0.8219(7) 0.6141(6) 0.4726(6)
O7 O 0.8828(7) 0.1027(6) 0.7487(5)
O8 O 0.9612(7) 0.1937(7) 0.5614(6)
O9 O 0.9311(7) 0.0243(6) 0.3996(6)
O10 O 0.8852(7) 0.2258(6) 0.3408(5)
O11 O 0.6386(7) 0.1854(6) 0.3025(5)
H1 H 0.7017 0.1601 0.2562
O12 O 0.4943(8) 0.0206(7) 0.3609(7)
O13 O 0.9833(7) 0.3428(5) -0.2411(5)
O14 O 0.9251(8) 0.2960(6) -0.0497(5)
O15 O 0.6600(7) 0.3927(7) 0.0818(6)
O16 O 0.8322(7) 0.4262(6) 0.1525(5)
O17 O 0.6318(10) 0.7949(8) 0.0604(7)
O18 O 0.7500(7) 0.6686(6) 0.1608(6)
O19 O 0.1338(6) 0.0022(5) 0.7703(5)
O20 O 0.0131(8) -0.0362(7) 0.9546(6)
O21 O 0.1685(8) -0.1197(7) 1.1203(7)
O22 O -0.0057(8) -0.2629(7) 1.1905(6)
O23 O 0.0744(7) -0.5103(7) 1.2014(6)
O24 O 0.2987(10) -0.5096(10) 1.1627(8)
C1 C 0.4421(9) 0.3342(9) 0.6795(8)
C2 C 0.5313(9) 0.4010(8) 0.5723(7)
C3 C 0.6599(9) 0.4401(8) 0.5714(8)
C4 C 0.6982(11) 0.4204(10) 0.6759(9)
H30 H 0.7839 0.4501 0.6746
C5 C 0.6109(11) 0.3585(10) 0.7778(9)
H31 H 0.6366 0.3455 0.8460
C6 C 0.4838(10) 0.3151(9) 0.7795(8)
H32 H 0.4247 0.2721 0.8493
C7 C 0.3069(9) 0.2790(8) 0.6861(8)
C8 C 0.4833(9) 0.4407(8) 0.4647(7)
C9 C 0.7650(9) 0.5159(9) 0.4657(8)
C10 C 0.7408(9) 0.0868(8) 0.6276(8)
C11 C 0.7270(8) 0.0934(7) 0.5145(8)
C12 C 0.6027(9) 0.0711(8) 0.4972(7)
C13 C 0.4893(9) 0.0305(8) 0.5949(8)
H33 H 0.4056 0.0128 0.5839
C14 C 0.4991(11) 0.0162(10) 0.7064(9)
H34 H 0.4243 -0.0137 0.7701
C15 C 0.6273(9) 0.0488(9) 0.7214(8)
H35 H 0.6342 0.0443 0.7959
C16 C 0.8692(9) 0.1312(9) 0.6457(8)
C17 C 0.8579(9) 0.1157(9) 0.4135(8)
C18 C 0.5724(9) 0.0891(9) 0.3816(8)
C19 C 0.9048(9) 0.5112(8) -0.1431(8)
C20 C 0.8298(10) 0.5457(9) -0.0413(8)
C21 C 0.7994(9) 0.6736(9) -0.0415(8)
C22 C 0.8404(11) 0.7633(8) -0.1486(9)
H36 H 0.8189 0.8475 -0.1508
C23 C 0.9105(11) 0.7292(9) -0.2484(8)
H37 H 0.9351 0.7899 -0.3178
C24 C 0.9459(10) 0.6032(9) -0.2474(8)
H38 H 0.9962 0.5808 -0.3153
C25 C 0.9382(8) 0.3756(9) -0.1434(7)
C26 C 0.7690(10) 0.4478(9) 0.0712(8)
C27 C 0.7239(11) 0.7154(10) 0.0644(9)
C28 C 0.1630(9) -0.1946(8) 0.8920(8)
C29 C 0.1524(9) -0.2641(9) 1.0053(8)
C30 C 0.2057(10) -0.3862(10) 1.0162(8)
C31 C 0.2659(12) -0.4367(11) 0.9204(9)
H39 H 0.3001 -0.5171 0.9309
C32 C 0.2751(13) -0.3690(11) 0.8114(10)
H40 H 0.3144 -0.4033 0.7474
C33 C 0.2240(11) -0.2454(9) 0.7962(8)
H41 H 0.2315 -0.1982 0.7219
C34 C 0.0999(10) -0.0665(9) 0.8726(8)
C35 C 0.1030(11) -0.2110(8) 1.1119(8)
C36 C 0.1911(12) -0.4761(10) 1.1387(10)
Cu2_2 Cu 1.05203(10) 0.17104(9) 0.76619(9)
Cu2_3 Cu 1.05203(10) 0.17104(9) -0.23381(9)
Cu3_2 Cu -0.08786(11) -0.42018(10) 1.18042(9)
O7_2 O -0.1172(7) 0.1027(6) 0.7487(5)
O13_2 O -0.0167(7) 0.3428(5) 0.7589(5)
O22_2 O 0.9943(8) 0.7371(7) 0.1905(6)
O23_2 O 1.0744(7) 0.4897(7) 0.2014(6)
Na1 Na 0.4449(4) 0.3594(4) 1.2274(3)
Na2 Na 0.3077(4) -0.1271(4) 0.4114(4)
Na3 Na 1.0542(4) 0.3512(4) 0.3868(3)
Na4 Na 0.9793(5) 0.2433(4) 0.1309(4)
Na5 Na 0.9144(5) -0.1870(4) 0.3696(4)
O25 O 0.8679(10) 0.0530(8) 0.1461(7)
H2 H 0.8283 -0.0215 0.2090
H3 H 0.9537 0.0343 0.1294
O26 O 1.1924(10) 0.1712(9) 0.0262(7)
H4 H 1.1742 0.1879 -0.0377
H5 H 1.2035 0.2443 0.0417
O27 O 1.1078(7) 0.4711(6) 0.5117(6)
H6 H 1.0907 0.4105 0.5783
H7 H 1.0428 0.4850 0.4639
O28 O 1.2637(6) 0.2420(6) 0.3797(6)
H8 H 1.3071 0.1955 0.4211
H9 H 1.1792 0.2368 0.4178
O29 O 0.4235(11) 0.1928(10) 1.1311(9)
H10 H 0.4447 0.2561 1.0652
H11 H 0.3447 0.1431 1.1493
O30 O 0.2067(8) 0.0175(7) 0.2781(6)
H12 H 0.2012 -0.0190 0.2260
H13 H 0.1353 0.0557 0.3016
O31 O 1.1154(9) -0.2666(8) 0.4124(8)
H14 H 1.0914 -0.2213 0.4596
H15 H 1.2034 -0.2804 0.4022
O32 O 0.1544(7) -0.0292(7) 0.5444(6)
H16 H 0.1484 -0.0087 0.6090
H17 H 0.0805 0.0069 0.5331
O33 O 0.4058(10) -0.2555(9) 0.2720(8)
H18 H 0.4029 -0.1902 0.2166
H19 H 0.4966 -0.2927 0.2645
O34 O 0.4298(10) -0.2506(8) 0.5243(8)
H20 H 0.3968 -0.3239 0.5289
H21 H 0.4937 -0.2567 0.5551
O35 O 0.7143(8) -0.1581(7) 0.3087(6)
H22 H 0.7110 -0.2126 0.2860
H23 H 0.6270 -0.1676 0.3665
O36 O 0.6827(15) 0.0587(13) -0.0243(12)
H24 H 0.7668 0.0479 -0.0542
H25 H 0.6884 -0.0285 0.0118
O37 O 0.6469(16) -0.2413(14) 0.6184(13)
H26 H 0.7258 -0.2062 0.6019
H27 H 0.5967 -0.2935 0.6789
O38 O 0.6659(8) 0.1675(6) 1.1053(6)
H28 H 0.6209 0.2422 1.0964
H29 H 0.6038 0.1042 1.1282
loop_
_geom_bond_atom_site_label_1
_geom_bond_atom_site_label_2
_geom_bond_site_symmetry_1
_geom_bond_site_symmetry_2
Cu1 O4 1_555 1_555
Cu2 O1 1_555 1_555
Cu3 O5 1_555 1_555
O1 C7 1_555 1_555
O2 C7 1_555 1_555
O3 C8 1_555 1_555
O4 C8 1_555 1_555
O5 Cu1 1_555 1_555
O6 C9 1_555 1_555
O7 C16 1_555 1_555
O8 C16 1_555 1_555
O9 C17 1_555 1_555
O10 Cu1 1_555 1_555
O11 Cu1 1_555 1_555
H1 O11 1_555 1_555
O12 C18 1_555 1_555
O13 C25 1_555 1_555
O14 C25 1_555 1_555
O15 C26 1_555 1_555
O16 Cu1 1_555 1_555
O17 C27 1_555 1_555
O18 Cu3 1_555 1_555
O19 Cu2 1_555 1_555
O20 C34 1_555 1_555
O21 C35 1_555 1_555
O22 C35 1_555 1_555
O23 C36 1_555 1_555
O24 C36 1_555 1_555
O25 H2 1_555 1_555
H3 O25 1_555 1_555
O26 H4 1_555 1_555
H5 O26 1_555 1_555
O27 H6 1_555 1_555
H7 O27 1_555 1_555
O28 H8 1_555 1_555
H9 O28 1_555 1_555
O29 H10 1_555 1_555
H11 O29 1_555 1_555
O30 H12 1_555 1_555
H13 O30 1_555 1_555
O31 H14 1_555 1_555
H15 O31 1_555 1_555
O32 H16 1_555 1_555
H17 O32 1_555 1_555
O33 H18 1_555 1_555
H19 O33 1_555 1_555
O34 H20 1_555 1_555
H21 O34 1_555 1_555
O35 H22 1_555 1_555
H23 O35 1_555 1_555
O36 H24 1_555 1_555
H25 O36 1_555 1_555
O37 H26 1_555 1_555
H27 O37 1_555 1_555
O38 H28 1_555 1_555
H29 O38 1_555 1_555
C1 C2 1_555 1_555
C2 C3 1_555 1_555
C3 C4 1_555 1_555
C4 H30 1_555 1_555
C5 C4 1_555 1_555
H31 C5 1_555 1_555
C6 C1 1_555 1_555
H32 C6 1_555 1_555
C7 C1 1_555 1_555
C8 C2 1_555 1_555
C9 O5 1_555 1_555
C10 C11 1_555 1_555
C11 C12 1_555 1_555
C12 C13 1_555 1_555
C13 H33 1_555 1_555
C14 C13 1_555 1_555
H34 C14 1_555 1_555
C15 C10 1_555 1_555
H35 C15 1_555 1_555
C16 C10 1_555 1_555
C17 O10 1_555 1_555
C18 O11 1_555 1_555
C19 C20 1_555 1_555
C20 C21 1_555 1_555
C21 C22 1_555 1_555
C22 H36 1_555 1_555
C23 C22 1_555 1_555
H37 C23 1_555 1_555
C24 C19 1_555 1_555
H38 C24 1_555 1_555
C25 C19 1_555 1_555
C26 O16 1_555 1_555
C27 O18 1_555 1_555
C28 C29 1_555 1_555
C29 C30 1_555 1_555
C30 C31 1_555 1_555
C31 H39 1_555 1_555
C32 C31 1_555 1_555
H40 C32 1_555 1_555
C33 C28 1_555 1_555
H41 C33 1_555 1_555
C34 O19 1_555 1_555
C35 C29 1_555 1_555
C36 C30 1_555 1_555
Cu2_2 O7 1_555 1_555
Cu2_3 O13 1_555 1_555
Cu3_2 O22 1_555 1_555
O7_2 Cu2 1_555 1_555
O13_2 Cu2 1_555 1_555
O22_2 Cu3 1_555 1_555
O23_2 Cu3 1_555 1_555
Cu3 O16 1_555 1_555
O23 Cu3_2 1_555 1_555
C3 C9 1_555 1_555
C5 C6 1_555 1_555
C11 C17 1_555 1_555
C12 C18 1_555 1_555
C14 C15 1_555 1_555
C20 C26 1_555 1_555
C21 C27 1_555 1_555
C23 C24 1_555 1_555
C28 C34 1_555 1_555
C32 C33 1_555 1_555

#END
