
#######################################################################
#
#                 Cambridge Crystallographic Data Centre
#                                CCDC 
#
#######################################################################
#
# If this CIF has been generated from an entry in the Cambridge 
# Structural Database, then it will include bibliographic, chemical, 
# crystal, experimental, refinement or atomic coordinate data resulting 
# from the CCDC's data processing and validation procedures.
#
#######################################################################

data_YAQJEH
_symmetry_cell_setting           triclinic
_symmetry_space_group_name_H-M   'P -1'
_symmetry_Int_Tables_number      2
_space_group_name_Hall           '-P 1'
loop_
_symmetry_equiv_pos_site_id
_symmetry_equiv_pos_as_xyz
1 x,y,z
2 -x,-y,-z
_cell_length_a                   6.9133(3)
_cell_length_b                   7.1974(2)
_cell_length_c                   12.4644(4)
_cell_angle_alpha                78.035(3)
_cell_angle_beta                 89.480(3)
_cell_angle_gamma                64.924(4)
_cell_volume                     547.364
loop_
_atom_site_label
_atom_site_type_symbol
_atom_site_fract_x
_atom_site_fract_y
_atom_site_fract_z
O1 O 1.9965(2) 0.5811(2) 0.15589(12)
O2 O 1.5353(2) 0.7059(2) 0.65905(11)
C1 C 1.8460(3) 0.7495(3) 0.16668(15)
H3 H 1.170(5) 0.779(5) 0.636(3)
Zn1 Zn 1.5000 0.5000 0.0000
Zn2 Zn 2.0000 1.0000 0.0000
O4 O 1.79162(19) 0.92546(19) 0.10003(10)
O5 O 1.4617(2) 0.2870(2) 0.12461(11)
H4 H 1.5575 0.1662 0.1210
H5 H 1.4764 0.3028 0.1872
O6 O 1.51433(19) 0.6814(2) 0.10242(10)
O7 O 1.15580(19) 0.67907(19) -0.02250(10)
H6 H 1.1049 0.6261 0.0316
H7 H 1.1227 0.6655 -0.0833
O8 O 1.2278(2) 0.7865(2) 0.56159(11)
O9 O 1.20076(19) 0.91152(19) 0.14603(10)
C2 C 1.4005(3) 0.7933(3) 0.16328(14)
C3 C 1.4164(3) 0.7856(3) 0.36623(15)
H8 H 1.2737 0.8078 0.3656
C4 C 1.5154(3) 0.7821(3) 0.26828(14)
C5 C 1.5294(3) 0.7563(3) 0.46501(14)
C6 C 1.7303(3) 0.7491(3) 0.27011(14)
C7 C 1.7416(3) 0.7281(3) 0.46571(16)
H9 H 1.8164 0.7119 0.5312
C8 C 1.8406(3) 0.7243(3) 0.36895(16)
H10 H 1.9825 0.7050 0.3698
C9 C 1.4317(3) 0.7473(3) 0.57185(16)
O1A O 1.0035(2) 0.4189(2) -0.15589(12)
O2A O 1.4647(2) 0.2941(2) -0.65905(11)
C1A C 1.1540(3) 0.2505(3) -0.16668(15)
H3A H 1.830(5) 0.221(5) -0.636(3)
Zn2_2 Zn 1.0000 1.0000 0.0000
Zn2_3 Zn 1.0000 0.0000 0.0000
Zn2_4 Zn 2.0000 0.0000 0.0000
O4A O 1.20838(19) 0.07454(19) -0.10003(10)
O4A_2 O 2.20838(19) 1.07454(19) -0.10003(10)
O5A O 1.5383(2) 0.7130(2) -0.12461(11)
H4A H 1.4425 0.8338 -0.1210
H5A H 1.5236 0.6972 -0.1872
O6A O 1.48567(19) 0.3186(2) -0.10242(10)
O7A O 1.84420(19) 0.32093(19) 0.02250(10)
O7_2 O 2.15580(19) 0.67907(19) -0.02250(10)
O7A_2 O 1.84420(19) 1.32093(19) 0.02250(10)
H6A H 1.8951 0.3739 -0.0316
H6_2 H 2.1049 0.6261 0.0316
H6A_2 H 1.8951 1.3739 -0.0316
H7A H 1.8773 0.3345 0.0833
H7_2 H 2.1227 0.6655 -0.0833
H7A_2 H 1.8773 1.3345 0.0833
O8A O 1.7722(2) 0.2135(2) -0.56159(11)
O9A O 1.79924(19) 0.08848(19) -0.14603(10)
O9_2 O 2.20076(19) 0.91152(19) 0.14603(10)
O9A_2 O 1.79924(19) 1.08848(19) -0.14603(10)
C2A C 1.5995(3) 0.2067(3) -0.16328(14)
C3A C 1.5836(3) 0.2144(3) -0.36623(15)
H8A H 1.7263 0.1922 -0.3656
C4A C 1.4846(3) 0.2179(3) -0.26828(14)
C5A C 1.4706(3) 0.2437(3) -0.46501(14)
C6A C 1.2697(3) 0.2509(3) -0.27011(14)
C7A C 1.2584(3) 0.2719(3) -0.46571(16)
H9A H 1.1836 0.2881 -0.5312
C8A C 1.1594(3) 0.2757(3) -0.36895(16)
H10A H 1.0175 0.2950 -0.3698
C9A C 1.5683(3) 0.2527(3) -0.57185(16)
O3 O 0.0300(2) 0.7756(2) 0.74278(12)
H1 H -0.0607 0.8813 0.7639
H2 H -0.0113 0.6773 0.7605
loop_
_geom_bond_atom_site_label_1
_geom_bond_atom_site_label_2
_geom_bond_site_symmetry_1
_geom_bond_site_symmetry_2
O1 C1 1_555 1_555
O2 C9 1_555 1_555
O3 H1 1_555 1_555
H2 O3 1_555 1_555
C1 O4 1_555 1_555
H3 O8 1_555 1_555
Zn1 O5 1_555 1_555
Zn2 O4 1_555 1_555
O5 H4 1_555 1_555
H5 O5 1_555 1_555
O6 Zn1 1_555 1_555
O7 Zn1 1_555 1_555
H6 O7 1_555 1_555
H7 O7 1_555 1_555
O8 C9 1_555 1_555
O9 C2 1_555 1_555
C2 O6 1_555 1_555
C3 H8 1_555 1_555
C4 C2 1_555 1_555
C5 C3 1_555 1_555
C6 C1 1_555 1_555
C7 C5 1_555 1_555
H9 C7 1_555 1_555
C8 C6 1_555 1_555
H10 C8 1_555 1_555
C9 C5 1_555 1_555
O1A C1A 1_555 1_555
O2A C9A 1_555 1_555
C1A O4A 1_555 1_555
H3A O8A 1_555 1_555
Zn2_2 O7 1_555 1_555
Zn2_3 O4A 1_555 1_555
Zn2_4 O7A 1_555 1_555
O4A_2 Zn2 1_555 1_555
O5A Zn1 1_555 1_555
H4A O5A 1_555 1_555
H5A O5A 1_555 1_555
O6A Zn1 1_555 1_555
O7A Zn1 1_555 1_555
O7_2 Zn2 1_555 1_555
O7A_2 Zn2 1_555 1_555
H6A O7A 1_555 1_555
H6_2 O7_2 1_555 1_555
H6A_2 O7A_2 1_555 1_555
H7A O7A 1_555 1_555
H7_2 O7_2 1_555 1_555
H7A_2 O7A_2 1_555 1_555
O8A C9A 1_555 1_555
O9A Zn2_4 1_555 1_555
O9_2 Zn2 1_555 1_555
O9A_2 Zn2 1_555 1_555
C2A O6A 1_555 1_555
C3A H8A 1_555 1_555
C4A C2A 1_555 1_555
C5A C3A 1_555 1_555
C6A C1A 1_555 1_555
C7A C5A 1_555 1_555
H9A C7A 1_555 1_555
C8A C6A 1_555 1_555
H10A C8A 1_555 1_555
C9A C5A 1_555 1_555
O9 Zn2_2 1_555 1_555
C3 C4 1_555 1_555
C4 C6 1_555 1_555
C7 C8 1_555 1_555
O9A C2A 1_555 1_555
C3A C4A 1_555 1_555
C4A C6A 1_555 1_555
C7A C8A 1_555 1_555

#END
