
#######################################################################
#
#                 Cambridge Crystallographic Data Centre
#                                CCDC 
#
#######################################################################
#
# If this CIF has been generated from an entry in the Cambridge 
# Structural Database, then it will include bibliographic, chemical, 
# crystal, experimental, refinement or atomic coordinate data resulting 
# from the CCDC's data processing and validation procedures.
#
#######################################################################

data_YAQKAE
_symmetry_cell_setting           monoclinic
_symmetry_space_group_name_H-M   'P 21/c'
_symmetry_Int_Tables_number      14
_space_group_name_Hall           '-P 2ybc'
loop_
_symmetry_equiv_pos_site_id
_symmetry_equiv_pos_as_xyz
1 x,y,z
2 -x,1/2+y,1/2-z
3 -x,-y,-z
4 x,1/2-y,1/2+z
_cell_length_a                   13.8500(2)
_cell_length_b                   13.3321(2)
_cell_length_c                   15.8532(2)
_cell_angle_alpha                90
_cell_angle_beta                 106.2630(10)
_cell_angle_gamma                90
_cell_volume                     2810.16
loop_
_atom_site_label
_atom_site_type_symbol
_atom_site_fract_x
_atom_site_fract_y
_atom_site_fract_z
Cu1 Cu 0.79273(2) 0.42926(3) 0.20619(2)
Cu2 Cu 0.63088(3) 0.13795(3) -0.04070(2)
O1 O 0.75355(16) 0.37990(16) 0.08692(13)
O2 O 0.66052(17) 0.30540(15) -0.03148(12)
O3 O 0.58685(14) 0.36974(15) 0.33223(12)
O4 O 0.76161(14) 0.40011(16) 0.44777(11)
O5 O 0.79437(17) 0.60652(17) 0.17438(14)
H1 H 0.7985 0.6423 0.2302
N1 N 0.65701(16) 0.40463(16) 0.21838(13)
N2 N 0.83376(17) 0.42452(19) 0.33476(14)
N3 N 0.93067(18) 0.45505(19) 0.19294(16)
H2 H 0.9499 0.3969 0.1724
N4 N 0.48995(18) 0.13203(17) -0.03199(15)
N5 N 0.6646(2) 0.13029(18) 0.08954(15)
C1 C 0.6685(2) 0.3519(2) 0.03864(17)
C2 C 0.5731(2) 0.37510(18) 0.06236(16)
C3 C 0.5667(2) 0.39877(19) 0.14740(16)
C4 C 0.4730(2) 0.4179(2) 0.15974(18)
H3 H 0.4684 0.4328 0.2158
C5 C 0.3867(2) 0.4153(2) 0.0903(2)
H4 H 0.3247 0.4290 0.0997
C6 C 0.3925(2) 0.3923(2) 0.0073(2)
H5 H 0.3345 0.3900 -0.0397
C7 C 0.4836(2) 0.3730(2) -0.00562(18)
H6 H 0.4865 0.3577 -0.0621
C8 C 0.6580(2) 0.39273(19) 0.30043(16)
C9 C 0.7599(2) 0.4073(2) 0.36695(16)
C10 C 0.9354(2) 0.4355(3) 0.3954(2)
H7 H 0.9429 0.3903 0.4448
H8 H 0.9442 0.5035 0.4180
C11 C 1.0141(2) 0.4129(3) 0.3504(2)
H9 H 1.0057 0.3441 0.3298
H10 H 1.0796 0.4181 0.3930
C12 C 1.0125(2) 0.4807(3) 0.2733(2)
H11 H 1.0040 0.5496 0.2896
H12 H 1.0767 0.4759 0.2603
C13 C 0.9225(3) 0.5302(3) 0.1224(2)
H13 H 0.8793 0.5044 0.0676
H14 H 0.9885 0.5421 0.1145
C14 C 0.8805(3) 0.6267(3) 0.1447(2)
H15 H 0.9309 0.6613 0.1903
H16 H 0.8618 0.6696 0.0933
C15 C 0.4038(2) 0.1349(2) -0.0958(2)
H17 H 0.4054 0.1358 -0.1540
C16 C 0.3116(3) 0.1367(3) -0.0774(3)
H18 H 0.2525 0.1382 -0.1232
C17 C 0.3070(3) 0.1362(3) 0.0077(3)
H19 H 0.2451 0.1370 0.0199
C18 C 0.3968(3) 0.1346(2) 0.0765(2)
C19 C 0.4025(4) 0.1393(3) 0.1673(3)
H20 H 0.3434 0.1414 0.1841
C20 C 0.4910(4) 0.1408(3) 0.2295(3)
H21 H 0.4918 0.1440 0.2883
C21 C 0.5853(3) 0.1375(2) 0.2071(2)
C22 C 0.6806(3) 0.1404(3) 0.2677(2)
H22 H 0.6870 0.1429 0.3276
C23 C 0.7635(3) 0.1394(3) 0.2384(2)
H23 H 0.8270 0.1421 0.2784
C24 C 0.7544(3) 0.1345(2) 0.1480(2)
H24 H 0.8120 0.1341 0.1288
C25 C 0.5813(2) 0.1316(2) 0.11827(18)
C26 C 0.4862(2) 0.1318(2) 0.0523(2)
Cu2C Cu 0.63088(3) 0.36205(3) 0.45930(2)
O3C O 0.58685(14) 0.13026(15) -0.16777(12)
O4C O 0.76161(14) 0.09989(16) -0.05223(11)
O6 O 0.8765(2) 0.3301(3) -0.0569(2)
H25 H 0.8166 0.3050 -0.0423
H26 H 0.9329 0.3041 -0.0140
Cl1 Cl 0.89131(9) 0.76930(9) 0.36933(7)
O7 O 0.9836(2) 0.7538(3) 0.3508(2)
O8 O 0.8111(4) 0.7690(8) 0.2944(5)
O9 O 0.8953(7) 0.8681(7) 0.4042(8)
O10 O 0.8817(7) 0.6996(10) 0.4307(8)
O11? O 0.8354(10) 0.8407(12) 0.3117(10)
O12? O 0.8993(7) 0.7843(13) 0.4564(4)
O13? O 0.8388(7) 0.6781(8) 0.3481(7)
loop_
_geom_bond_atom_site_label_1
_geom_bond_atom_site_label_2
_geom_bond_site_symmetry_1
_geom_bond_site_symmetry_2
Cu1 O1 1_555 1_555
Cu2 O2 1_555 1_555
O1 C1 1_555 1_555
O2 C1 1_555 1_555
O3 C8 1_555 1_555
O4 C9 1_555 1_555
O5 Cu1 1_555 1_555
H1 O5 1_555 1_555
N1 Cu1 1_555 1_555
N2 Cu1 1_555 1_555
N3 Cu1 1_555 1_555
H2 N3 1_555 1_555
N4 Cu2 1_555 1_555
N5 Cu2 1_555 1_555
C1 C2 1_555 1_555
C2 C3 1_555 1_555
C3 N1 1_555 1_555
C4 C3 1_555 1_555
H3 C4 1_555 1_555
C5 C4 1_555 1_555
H4 C5 1_555 1_555
C6 C5 1_555 1_555
H5 C6 1_555 1_555
C7 C2 1_555 1_555
H6 C7 1_555 1_555
C8 N1 1_555 1_555
C9 N2 1_555 1_555
C10 N2 1_555 1_555
H7 C10 1_555 1_555
H8 C10 1_555 1_555
C11 C10 1_555 1_555
H9 C11 1_555 1_555
H10 C11 1_555 1_555
C12 N3 1_555 1_555
H11 C12 1_555 1_555
H12 C12 1_555 1_555
C13 N3 1_555 1_555
H13 C13 1_555 1_555
H14 C13 1_555 1_555
C14 O5 1_555 1_555
H15 C14 1_555 1_555
H16 C14 1_555 1_555
C15 N4 1_555 1_555
H17 C15 1_555 1_555
C16 C15 1_555 1_555
H18 C16 1_555 1_555
C17 C16 1_555 1_555
H19 C17 1_555 1_555
C18 C17 1_555 1_555
C19 C18 1_555 1_555
H20 C19 1_555 1_555
C20 C19 1_555 1_555
H21 C20 1_555 1_555
C21 C20 1_555 1_555
C22 C21 1_555 1_555
H22 C22 1_555 1_555
C23 C22 1_555 1_555
H23 C23 1_555 1_555
C24 N5 1_555 1_555
H24 C24 1_555 1_555
C25 N5 1_555 1_555
C26 N4 1_555 1_555
O6 H25 1_555 1_555
H26 O6 1_555 1_555
Cl1 O7 1_555 1_555
O8 Cl1 1_555 1_555
O9 Cl1 1_555 1_555
O10 Cl1 1_555 1_555
Cu2C O3 1_555 1_555
O3C Cu2 1_555 1_555
O4C Cu2 1_555 1_555
O4 Cu2C 1_555 1_555
C6 C7 1_555 1_555
C8 C9 1_555 1_555
C11 C12 1_555 1_555
C13 C14 1_555 1_555
C18 C26 1_555 1_555
C21 C25 1_555 1_555
C23 C24 1_555 1_555
C25 C26 1_555 1_555

#END
