
#######################################################################
#
#                 Cambridge Crystallographic Data Centre
#                                CCDC 
#
#######################################################################
#
# If this CIF has been generated from an entry in the Cambridge 
# Structural Database, then it will include bibliographic, chemical, 
# crystal, experimental, refinement or atomic coordinate data resulting 
# from the CCDC's data processing and validation procedures.
#
#######################################################################

data_YAQKOS
_symmetry_cell_setting           monoclinic
_symmetry_space_group_name_H-M   'P 21/c'
_symmetry_Int_Tables_number      14
_space_group_name_Hall           '-P 2ybc'
loop_
_symmetry_equiv_pos_site_id
_symmetry_equiv_pos_as_xyz
1 x,y,z
2 -x,1/2+y,1/2-z
3 -x,-y,-z
4 x,1/2-y,1/2+z
_cell_length_a                   6.311(3)
_cell_length_b                   20.623(9)
_cell_length_c                   14.997(7)
_cell_angle_alpha                90
_cell_angle_beta                 101.370(6)
_cell_angle_gamma                90
_cell_volume                     1913.58
loop_
_atom_site_label
_atom_site_type_symbol
_atom_site_fract_x
_atom_site_fract_y
_atom_site_fract_z
Mn1 Mn 0.0000 0.5000 0.5000
C1 C 1.2224(7) 0.98802(18) 0.8290(3)
C2 C 1.0582(6) 0.93736(17) 0.7877(2)
C3 C 0.8932(6) 0.91043(17) 0.8305(2)
C4 C 0.7639(6) 0.85904(17) 0.7807(2)
C5 C 0.5996(7) 0.82984(19) 0.8167(3)
H1 H 0.5702 0.8445 0.8717
C6 C 0.4830(7) 0.7805(2) 0.7726(3)
C7 C 0.5221(6) 0.75299(18) 0.6914(2)
C8 C 0.6742(6) 0.78507(18) 0.6523(3)
H2 H 0.6982 0.7714 0.5961
C9 C 0.7923(6) 0.83754(17) 0.6957(2)
C10 C 1.0696(6) 0.91619(18) 0.7027(3)
H3 H 1.1722 0.9357 0.6747
C11 C 0.9505(7) 0.85971(19) 0.5600(2)
C12 C 0.8679(9) 0.9072(2) 0.4989(3)
H4 H 0.8131 0.9452 0.5190
C13 C 0.8664(9) 0.8984(2) 0.4070(3)
H5 H 0.8150 0.9307 0.3651
C14 C 0.9402(8) 0.8427(2) 0.3803(3)
C15 C 1.0220(7) 0.7940(2) 0.4391(3)
H6 H 1.0714 0.7555 0.4180
C16 C 1.0290(7) 0.8038(2) 0.5309(3)
H7 H 1.0874 0.7721 0.5728
C17 C 0.4607(7) 0.67581(19) 0.5654(3)
H8 H 0.6020 0.6554 0.5781
H9 H 0.4664 0.7122 0.5249
C18 C 0.2930(7) 0.62730(19) 0.5197(3)
H10 H 0.1563 0.6496 0.5007
H11 H 0.3367 0.6109 0.4654
C19 C 0.2147(7) 0.59708(19) 0.6626(2)
H12 H 0.2044 0.5607 0.7026
H13 H 0.0760 0.6190 0.6507
C20 C 0.3853(7) 0.64347(18) 0.7103(2)
H14 H 0.3460 0.6588 0.7660
H15 H 0.5228 0.6211 0.7262
N1 N 0.2607(5) 0.57263(14) 0.57693(19)
H16 H 0.2675 0.5324 0.5626
N2 N 0.4065(5) 0.69919(14) 0.6507(2)
N3 N 0.9455(5) 0.86950(15) 0.6554(2)
O1 O 1.2104(4) 1.01227(12) 0.90484(16)
O2 O 1.3613(5) 1.00305(14) 0.7849(2)
O3 O 0.8563(4) 0.92656(12) 0.90699(16)
F1 F 0.3140(5) 0.75786(13) 0.80741(18)
F2 F 0.9321(5) 0.83249(15) 0.28980(15)
Mn1A Mn 1.0000 1.0000 1.0000
Mn1A_2 Mn -1.0000 0.0000 0.0000
C1B C -1.2224(7) 0.01198(18) 0.1710(3)
C2B C -1.0582(6) 0.06264(17) 0.2123(2)
C3B C -0.8932(6) 0.08957(17) 0.1695(2)
C4B C -0.7639(6) 0.14096(17) 0.2193(2)
C5B C -0.5996(7) 0.17016(19) 0.1833(3)
H1B H -0.5702 0.1555 0.1283
C6B C -0.4830(7) 0.2195(2) 0.2274(3)
C7B C -0.5221(6) 0.24701(18) 0.3086(2)
C8B C -0.6742(6) 0.21493(18) 0.3477(3)
H2B H -0.6982 0.2286 0.4039
C9B C -0.7923(6) 0.16246(17) 0.3043(2)
C10B C -1.0696(6) 0.08381(18) 0.2973(3)
H3B H -1.1722 0.0643 0.3253
C11B C -0.9505(7) 0.14029(19) 0.4400(2)
C12B C -0.8679(9) 0.0928(2) 0.5011(3)
H4B H -0.8131 0.0548 0.4810
C13B C -0.8664(9) 0.1016(2) 0.5930(3)
H5B H -0.8150 0.0693 0.6349
C14B C -0.9402(8) 0.1573(2) 0.6197(3)
C15B C -1.0220(7) 0.2060(2) 0.5609(3)
H6B H -1.0714 0.2445 0.5820
C16B C -1.0290(7) 0.1962(2) 0.4691(3)
H7B H -1.0874 0.2279 0.4272
C17B C -0.4607(7) 0.32419(19) 0.4346(3)
H8B H -0.6020 0.3446 0.4219
H9B H -0.4664 0.2878 0.4751
C18B C -0.2930(7) 0.37270(19) 0.4803(3)
H10B H -0.1563 0.3504 0.4993
H11B H -0.3367 0.3891 0.5346
C19B C -0.2147(7) 0.40292(19) 0.3374(2)
H12B H -0.2044 0.4393 0.2974
H13B H -0.0760 0.3810 0.3493
C20B C -0.3853(7) 0.35653(18) 0.2897(2)
H14B H -0.3460 0.3412 0.2340
H15B H -0.5228 0.3789 0.2738
N1B N -0.2607(5) 0.42737(14) 0.42307(19)
H16B H -0.2675 0.4676 0.4374
N2B N -0.4065(5) 0.30081(14) 0.3493(2)
N3B N -0.9455(5) 0.13050(15) 0.3446(2)
O1B O -1.2104(4) -0.01227(12) 0.09516(16)
O1A O -0.2104(4) 0.51227(12) 0.59516(16)
O1C O 0.2104(4) 0.48773(12) 0.40484(16)
O2B O -1.3613(5) -0.00305(14) 0.2151(2)
O3B O -0.8563(4) 0.07344(12) 0.09301(16)
O3A O 0.1437(4) 0.42656(12) 0.59301(16)
O3C O -0.1437(4) 0.57344(12) 0.40699(16)
F1B F -0.3140(5) 0.24214(13) 0.19259(18)
F2B F -0.9321(5) 0.16751(15) 0.71020(15)
O4 O 0.4469(9) 0.4874(3) 0.8652(4)
O5 O 0.616(2) 0.4178(8) 1.0193(10)
loop_
_geom_bond_atom_site_label_1
_geom_bond_atom_site_label_2
_geom_bond_site_symmetry_1
_geom_bond_site_symmetry_2
Mn1 N1 1_555 1_555
C1 C2 1_555 1_555
C2 C3 1_555 1_555
C3 C4 1_555 1_555
C4 C5 1_555 1_555
C5 H1 1_555 1_555
C6 C5 1_555 1_555
C7 C6 1_555 1_555
C8 C7 1_555 1_555
H2 C8 1_555 1_555
C9 C4 1_555 1_555
C10 C2 1_555 1_555
H3 C10 1_555 1_555
C11 C12 1_555 1_555
C12 H4 1_555 1_555
C13 C12 1_555 1_555
H5 C13 1_555 1_555
C14 C13 1_555 1_555
C15 C14 1_555 1_555
H6 C15 1_555 1_555
C16 C11 1_555 1_555
H7 C16 1_555 1_555
C17 H8 1_555 1_555
H9 C17 1_555 1_555
C18 C17 1_555 1_555
H10 C18 1_555 1_555
H11 C18 1_555 1_555
C19 H12 1_555 1_555
H13 C19 1_555 1_555
C20 C19 1_555 1_555
H14 C20 1_555 1_555
H15 C20 1_555 1_555
N1 C18 1_555 1_555
H16 N1 1_555 1_555
N2 C7 1_555 1_555
N3 C9 1_555 1_555
O1 C1 1_555 1_555
O2 C1 1_555 1_555
O3 C3 1_555 1_555
F1 C6 1_555 1_555
F2 C14 1_555 1_555
Mn1A O1 1_555 1_555
Mn1A_2 O1B 1_555 1_555
C1B C2B 1_555 1_555
C2B C3B 1_555 1_555
C3B C4B 1_555 1_555
C4B C5B 1_555 1_555
C5B H1B 1_555 1_555
C6B C5B 1_555 1_555
C7B C6B 1_555 1_555
C8B C7B 1_555 1_555
H2B C8B 1_555 1_555
C9B C4B 1_555 1_555
C10B C2B 1_555 1_555
H3B C10B 1_555 1_555
C11B C12B 1_555 1_555
C12B H4B 1_555 1_555
C13B C12B 1_555 1_555
H5B C13B 1_555 1_555
C14B C13B 1_555 1_555
C15B C14B 1_555 1_555
H6B C15B 1_555 1_555
C16B C11B 1_555 1_555
H7B C16B 1_555 1_555
C17B H8B 1_555 1_555
H9B C17B 1_555 1_555
C18B C17B 1_555 1_555
H10B C18B 1_555 1_555
H11B C18B 1_555 1_555
C19B H12B 1_555 1_555
H13B C19B 1_555 1_555
C20B C19B 1_555 1_555
H14B C20B 1_555 1_555
H15B C20B 1_555 1_555
N1B Mn1 1_555 1_555
H16B N1B 1_555 1_555
N2B C7B 1_555 1_555
N3B C9B 1_555 1_555
O1B C1B 1_555 1_555
O1A Mn1 1_555 1_555
O1C Mn1 1_555 1_555
O2B C1B 1_555 1_555
O3B Mn1A_2 1_555 1_555
O3A Mn1 1_555 1_555
O3C Mn1 1_555 1_555
F1B C6B 1_555 1_555
F2B C14B 1_555 1_555
C8 C9 1_555 1_555
C10 N3 1_555 1_555
C11 N3 1_555 1_555
C15 C16 1_555 1_555
C17 N2 1_555 1_555
C19 N1 1_555 1_555
C20 N2 1_555 1_555
O3 Mn1A 1_555 1_555
C3B O3B 1_555 1_555
C8B C9B 1_555 1_555
C10B N3B 1_555 1_555
C11B N3B 1_555 1_555
C15B C16B 1_555 1_555
C17B N2B 1_555 1_555
C18B N1B 1_555 1_555
C19B N1B 1_555 1_555
C20B N2B 1_555 1_555

#END
