
#######################################################################
#
#                 Cambridge Crystallographic Data Centre
#                                CCDC 
#
#######################################################################
#
# If this CIF has been generated from an entry in the Cambridge 
# Structural Database, then it will include bibliographic, chemical, 
# crystal, experimental, refinement or atomic coordinate data resulting 
# from the CCDC's data processing and validation procedures.
#
#######################################################################

data_YAQKIM
_symmetry_cell_setting           triclinic
_symmetry_space_group_name_H-M   'P -1'
_symmetry_Int_Tables_number      2
_space_group_name_Hall           '-P 1'
loop_
_symmetry_equiv_pos_site_id
_symmetry_equiv_pos_as_xyz
1 x,y,z
2 -x,-y,-z
_cell_length_a                   14.0809(3)
_cell_length_b                   14.2240(4)
_cell_length_c                   17.0517(4)
_cell_angle_alpha                74.8140(10)
_cell_angle_beta                 83.1000(10)
_cell_angle_gamma                88.8150(10)
_cell_volume                     3271.89
loop_
_atom_site_label
_atom_site_type_symbol
_atom_site_fract_x
_atom_site_fract_y
_atom_site_fract_z
Cd1 Cd -1.274243(16) -0.373768(19) 0.738470(16)
Cd2 Cd -1.212820(16) -0.133490(19) 0.781770(16)
F1 F -1.52898(17) -0.2016(2) 1.04337(19)
F2 F -2.0176(2) -0.6047(3) 0.9515(3)
F3 F -0.9802(2) -0.2876(3) 0.4597(2)
F4 F -0.4797(2) 0.1265(3) 0.5166(2)
O1 O -1.4678(5) -0.6009(10) 0.7564(9)
O2 O -1.33386(19) -0.5265(2) 0.76959(19)
O3 O -1.36383(17) -0.3880(2) 0.86101(16)
O4 O -1.0096(2) 0.0833(3) 0.7700(3)
O5 O -1.14473(18) 0.0145(2) 0.75972(18)
O6 O -1.12747(17) -0.1115(2) 0.65610(16)
O7 O -1.1081(2) -0.4097(3) 0.7373(2)
O8 O -1.15625(16) -0.2926(2) 0.79303(18)
O9 O -0.37509(19) -0.0820(2) 0.7669(2)
O10 O -0.33093(16) -0.2114(2) 0.72658(18)
O11 O -1.2299(3) -0.3384(3) 0.6053(2)
O12 O -1.3788(3) -0.3734(3) 0.6095(2)
O13 O -1.2771(3) -0.1683(3) -0.08510(19)
O14 O -1.1233(2) -0.1500(3) -0.08423(19)
N1 N -1.8805(3) -0.1331(4) 1.1055(3)
H1 H -1.9134 -0.1050 1.1417
H2 H -1.9111 -0.1207 1.0605
N2 N -1.7209(2) -0.2453(2) 1.0632(2)
N3 N -1.6404(2) -0.4870(2) 0.9110(2)
N4 N -0.8550(2) -0.0037(2) 0.5874(2)
C1 C -1.4210(3) -0.5479(3) 0.7891(3)
C2 C -1.4814(3) -0.4964(3) 0.8437(2)
C3 C -1.4466(2) -0.4216(2) 0.8756(2)
C4 C -1.5167(2) -0.3828(2) 0.9283(2)
C5 C -1.4898(2) -0.3093(3) 0.9624(2)
H3 H -1.4265 -0.2878 0.9538
C6 C -1.5570(3) -0.2693(3) 1.0082(3)
C7 C -1.6545(3) -0.2941(3) 1.0199(2)
C8 C -1.6812(2) -0.3681(3) 0.9876(2)
H4 H -1.7451 -0.3873 0.9948
C9 C -1.6129(2) -0.4143(2) 0.9440(2)
C10 C -1.5755(3) -0.5255(3) 0.8633(2)
H5 H -1.5960 -0.5748 0.8425
C11 C -1.7389(2) -0.5204(3) 0.9223(2)
C12 C -1.7870(3) -0.5055(3) 0.8546(3)
H6 H -1.7558 -0.4766 0.8029
C13 C -1.8818(4) -0.5337(4) 0.8637(4)
H7 H -1.9158 -0.5242 0.8188
C14 C -1.9238(3) -0.5762(4) 0.9411(4)
C15 C -1.8772(3) -0.5940(4) 1.0091(3)
H8 H -1.9084 -0.6242 1.0605
C16 C -1.7819(3) -0.5658(3) 0.9995(3)
H9 H -1.7476 -0.5773 1.0444
C17 C -1.7258(3) -0.1395(3) 1.0252(3)
H10 H -1.7556 -0.1285 0.9751
H11 H -1.6617 -0.1118 1.0113
C18 C -1.7830(3) -0.0905(4) 1.0833(4)
H12 H -1.7866 -0.0212 1.0577
H13 H -1.7516 -0.0988 1.1323
C19 C -1.8778(4) -0.2357(5) 1.1401(4)
H14 H -1.9425 -0.2619 1.1510
H15 H -1.8515 -0.2484 1.1919
C20 C -1.8170(3) -0.2881(4) 1.0834(3)
H16 H -1.8134 -0.3569 1.1106
H17 H -1.8465 -0.2816 1.0337
C21 C -1.0571(3) 0.0331(3) 0.7379(3)
C22 C -1.0051(2) -0.0061(3) 0.6713(2)
C23 C -1.0447(2) -0.0762(2) 0.6371(2)
C24 C -0.9807(2) -0.1089(3) 0.5763(2)
C25 C -1.0113(2) -0.1822(3) 0.5426(2)
H18 H -1.0738 -0.2060 0.5560
C26 C -0.9488(3) -0.2177(3) 0.4904(3)
C27 C -0.8525(3) -0.1890(3) 0.4708(3)
C28 C -0.8222(3) -0.1162(3) 0.5029(3)
H19 H -0.7590 -0.0944 0.4900
C29 C -0.8857(2) -0.0751(3) 0.5546(2)
C30 C -0.9133(2) 0.0267(3) 0.6441(2)
H20 H -0.8895 0.0732 0.6663
C31 C -0.7568(2) 0.0331(3) 0.5676(2)
C32 C -0.7228(3) 0.0822(3) 0.4894(3)
H21 H -0.7626 0.0938 0.4482
C33 C -0.6290(3) 0.1144(3) 0.4722(3)
H22 H -0.6046 0.1483 0.4195
C34 C -0.5732(3) 0.0955(4) 0.5337(3)
C35 C -0.6062(3) 0.0482(4) 0.6132(3)
H23 H -0.5665 0.0380 0.6545
C36 C -0.6992(3) 0.0168(3) 0.6294(3)
H24 H -0.7238 -0.0158 0.6825
N5 N -0.6475(3) -0.3068(4) 0.3250(4)
H25 H -0.5978 -0.3247 0.3541
H26 H -0.6325 -0.3222 0.2772
C37 C -0.7862(8) -0.3372(6) 0.4429(7)
H27 H -0.8508 -0.3636 0.4556
H28 H -0.7532 -0.3611 0.4910
C38 C -0.7345(9) -0.3711(9) 0.3717(9)
H29 H -0.7798 -0.3726 0.3334
H30 H -0.7128 -0.4372 0.3923
C39 C -0.6530(8) -0.2056(7) 0.3074(7)
H31 H -0.6909 -0.1813 0.2626
H32 H -0.5895 -0.1768 0.2914
C40 C -0.6993(6) -0.1782(7) 0.3838(7)
H33 H -0.6537 -0.1890 0.4235
H34 H -0.7136 -0.1092 0.3693
N6 N -0.7892(2) -0.2338(3) 0.4229(3)
C41 C -0.8234(2) -0.3045(3) 0.6998(2)
H35 H -0.7777 -0.3190 0.6607
C42 C -0.9176(2) -0.3316(3) 0.7021(3)
H36 H -0.9344 -0.3659 0.6662
C43 C -0.9880(2) -0.3069(3) 0.7588(2)
C44 C -0.9612(2) -0.2538(3) 0.8096(3)
H37 H -1.0074 -0.2336 0.8453
C45 C -0.8658(2) -0.2303(3) 0.8081(3)
H38 H -0.8491 -0.1961 0.8441
C46 C -0.7951(2) -0.2561(3) 0.7547(2)
C47 C -0.6923(2) -0.2323(3) 0.7548(2)
C48 C -0.6654(2) -0.1669(3) 0.7949(2)
H39 H -0.7122 -0.1388 0.8245
C49 C -0.5698(2) -0.1415(3) 0.7924(3)
H40 H -0.5538 -0.0956 0.8187
C50 C -0.4988(2) -0.1849(3) 0.7507(2)
C51 C -0.5244(2) -0.2535(3) 0.7132(2)
H41 H -0.4772 -0.2846 0.6865
C52 C -0.6202(2) -0.2772(3) 0.7147(3)
H42 H -0.6362 -0.3235 0.6887
C53 C -1.0898(2) -0.3386(3) 0.7627(2)
C54 C -0.3958(2) -0.1574(3) 0.7479(2)
C55 C -1.1885(3) -0.2745(4) 0.3507(3)
H43 H -1.1277 -0.2580 0.3229
C56 C -1.2005(3) -0.2987(4) 0.4351(3)
H44 H -1.1479 -0.2970 0.4629
C57 C -1.2884(3) -0.3253(4) 0.4790(3)
C58 C -1.3636(4) -0.3240(6) 0.4339(4)
H45 H -1.4247 -0.3401 0.4613
C59 C -1.3513(4) -0.2999(6) 0.3498(3)
H46 H -1.4038 -0.3012 0.3217
C60 C -1.2639(3) -0.2740(3) 0.3069(3)
C61 C -1.2494(3) -0.2439(3) 0.2155(3)
C62 C -1.3232(3) -0.2363(5) 0.1713(3)
H47 H -1.3851 -0.2490 0.1978
C63 C -1.3084(3) -0.2096(5) 0.0863(3)
H48 H -1.3612 -0.2037 0.0575
C64 C -1.2202(3) -0.1917(3) 0.0435(2)
C65 C -1.1439(5) -0.2218(7) 0.0882(4)
H49 H -1.0825 -0.2234 0.0615
C66 C -1.1600(5) -0.2496(7) 0.1729(4)
H50 H -1.1090 -0.2728 0.2022
C67 C -1.2998(4) -0.3472(4) 0.5702(3)
C68 C -1.2051(3) -0.1687(3) -0.0479(3)
Cd1_2 Cd -0.274243(16) -0.373768(19) 0.738470(16)
Cd2_2 Cd -0.212820(16) -0.133490(19) 0.781770(16)
Cd2_3 Cd -1.212820(16) -0.133490(19) -0.218230(16)
O9_2 O -1.37509(19) -0.0820(2) 0.7669(2)
O10_2 O -1.33093(16) -0.2114(2) 0.72658(18)
O13_2 O -1.2771(3) -0.1683(3) 0.91490(19)
O15 O -0.0410(3) 0.0897(4) 0.0462(3)
O16 O -1.4364(6) -0.0138(5) 0.9287(5)
O17 O -1.1602(6) -0.0190(6) 0.1708(6)
O18 O -1.0264(6) -0.5842(7) 0.7110(7)
O19 O 0.4189(9) -0.1043(7) 0.2176(8)
O20 O -1.0718(11) -0.4881(10) 0.5725(10)
O21 O -1.5405(13) -0.4552(12) 0.6030(10)
O22 O 0.4559(12) -0.4560(11) 0.4325(10)
C69? C 0.1866(6) -0.2477(7) 0.3494(5)
C70? C 0.2496(5) -0.3234(9) 0.3219(9)
C71? C 0.3784(6) -0.2909(9) 0.3975(6)
C72? C 0.3136(5) -0.2206(8) 0.4310(7)
C73? C -1.1517(8) -0.1705(11) 0.0891(6)
C74? C -1.1666(9) -0.1914(12) 0.1737(6)
H51? H 0.1936 -0.1865 0.3074
H52? H 0.1202 -0.2685 0.3568
H53? H 0.2308 -0.3875 0.3566
H54? H 0.2398 -0.3223 0.2663
H55? H 0.4435 -0.2657 0.3873
H56? H 0.3773 -0.3528 0.4386
H57? H 0.3208 -0.2296 0.4884
H58? H 0.3334 -0.1544 0.4022
H59? H 0.3849 -0.3587 0.3156
H60? H 0.3724 -0.2549 0.2836
H61? H -1.0941 -0.1415 0.0619
H62? H -1.1225 -0.1710 0.2024
O23? O -1.4430(13) -0.6332(8) 0.7957(13)
loop_
_geom_bond_atom_site_label_1
_geom_bond_atom_site_label_2
_geom_bond_site_symmetry_1
_geom_bond_site_symmetry_2
Cd1 O2 1_555 1_555
Cd2 O5 1_555 1_555
F1 C6 1_555 1_555
F2 C14 1_555 1_555
F3 C26 1_555 1_555
F4 C34 1_555 1_555
O1 C1 1_555 1_555
O2 C1 1_555 1_555
O3 Cd1 1_555 1_555
O4 C21 1_555 1_555
O5 C21 1_555 1_555
O6 Cd2 1_555 1_555
O7 Cd1 1_555 1_555
O8 Cd1 1_555 1_555
O9 C54 1_555 1_555
O10 C54 1_555 1_555
O11 Cd1 1_555 1_555
O12 C67 1_555 1_555
O13 C68 1_555 1_555
O14 C68 1_555 1_555
N1 H1 1_555 1_555
H2 N1 1_555 1_555
N2 C7 1_555 1_555
N3 C9 1_555 1_555
N4 C29 1_555 1_555
C1 C2 1_555 1_555
C2 C3 1_555 1_555
C3 O3 1_555 1_555
C4 C3 1_555 1_555
C5 C4 1_555 1_555
H3 C5 1_555 1_555
C6 C5 1_555 1_555
C7 C6 1_555 1_555
C8 C7 1_555 1_555
H4 C8 1_555 1_555
C9 C4 1_555 1_555
C10 N3 1_555 1_555
H5 C10 1_555 1_555
C11 N3 1_555 1_555
C12 C11 1_555 1_555
H6 C12 1_555 1_555
C13 C12 1_555 1_555
H7 C13 1_555 1_555
C14 C13 1_555 1_555
C15 C14 1_555 1_555
H8 C15 1_555 1_555
C16 C11 1_555 1_555
H9 C16 1_555 1_555
C17 N2 1_555 1_555
H10 C17 1_555 1_555
H11 C17 1_555 1_555
C18 N1 1_555 1_555
H12 C18 1_555 1_555
H13 C18 1_555 1_555
C19 N1 1_555 1_555
H14 C19 1_555 1_555
H15 C19 1_555 1_555
C20 N2 1_555 1_555
H16 C20 1_555 1_555
H17 C20 1_555 1_555
C21 C22 1_555 1_555
C22 C23 1_555 1_555
C23 O6 1_555 1_555
C24 C23 1_555 1_555
C25 C24 1_555 1_555
H18 C25 1_555 1_555
C26 C25 1_555 1_555
C27 C26 1_555 1_555
C28 C27 1_555 1_555
H19 C28 1_555 1_555
C29 C24 1_555 1_555
C30 N4 1_555 1_555
H20 C30 1_555 1_555
C31 N4 1_555 1_555
C32 C31 1_555 1_555
H21 C32 1_555 1_555
C33 C32 1_555 1_555
H22 C33 1_555 1_555
C34 C33 1_555 1_555
C35 C34 1_555 1_555
H23 C35 1_555 1_555
C36 C31 1_555 1_555
H24 C36 1_555 1_555
N5 H25 1_555 1_555
H26 N5 1_555 1_555
C37 H27 1_555 1_555
H28 C37 1_555 1_555
C38 N5 1_555 1_555
H29 C38 1_555 1_555
H30 C38 1_555 1_555
C39 N5 1_555 1_555
H31 C39 1_555 1_555
H32 C39 1_555 1_555
C40 C39 1_555 1_555
H33 C40 1_555 1_555
H34 C40 1_555 1_555
N6 C27 1_555 1_555
C41 H35 1_555 1_555
C42 C41 1_555 1_555
H36 C42 1_555 1_555
C43 C42 1_555 1_555
C44 C43 1_555 1_555
H37 C44 1_555 1_555
C45 C44 1_555 1_555
H38 C45 1_555 1_555
C46 C41 1_555 1_555
C47 C46 1_555 1_555
C48 C47 1_555 1_555
H39 C48 1_555 1_555
C49 C48 1_555 1_555
H40 C49 1_555 1_555
C50 C49 1_555 1_555
C51 C50 1_555 1_555
H41 C51 1_555 1_555
C52 C47 1_555 1_555
H42 C52 1_555 1_555
C53 O7 1_555 1_555
C54 C50 1_555 1_555
C55 H43 1_555 1_555
C56 C55 1_555 1_555
H44 C56 1_555 1_555
C57 C56 1_555 1_555
C58 C57 1_555 1_555
H45 C58 1_555 1_555
C59 C58 1_555 1_555
H46 C59 1_555 1_555
C60 C55 1_555 1_555
C61 C60 1_555 1_555
C62 C61 1_555 1_555
H47 C62 1_555 1_555
C63 C62 1_555 1_555
H48 C63 1_555 1_555
C64 C63 1_555 1_555
C65 C64 1_555 1_555
H49 C65 1_555 1_555
C66 C61 1_555 1_555
H50 C66 1_555 1_555
C67 O11 1_555 1_555
C68 C64 1_555 1_555
Cd1_2 O10 1_555 1_555
Cd2_2 O9 1_555 1_555
Cd2_3 O13 1_555 1_555
O9_2 Cd2 1_555 1_555
O10_2 Cd1 1_555 1_555
O13_2 Cd2 1_555 1_555
Cd2 O8 1_555 1_555
Cd2 O10_2 1_555 1_555
O8 C53 1_555 1_555
O10 Cd2_2 1_555 1_555
C2 C10 1_555 1_555
C8 C9 1_555 1_555
C15 C16 1_555 1_555
C17 C18 1_555 1_555
C19 C20 1_555 1_555
C22 C30 1_555 1_555
C28 C29 1_555 1_555
C35 C36 1_555 1_555
C37 C38 1_555 1_555
C37 N6 1_555 1_555
C40 N6 1_555 1_555
C43 C53 1_555 1_555
C45 C46 1_555 1_555
C51 C52 1_555 1_555
C57 C67 1_555 1_555
C59 C60 1_555 1_555
C65 C66 1_555 1_555

#END
