
#######################################################################
#
#                 Cambridge Crystallographic Data Centre
#                                CCDC 
#
#######################################################################
#
# If this CIF has been generated from an entry in the Cambridge 
# Structural Database, then it will include bibliographic, chemical, 
# crystal, experimental, refinement or atomic coordinate data resulting 
# from the CCDC's data processing and validation procedures.
#
#######################################################################

data_YAQMIO
_symmetry_cell_setting           orthorhombic
_symmetry_space_group_name_H-M   'P n n 2'
_symmetry_Int_Tables_number      34
_space_group_name_Hall           'P 2 -2n'
loop_
_symmetry_equiv_pos_site_id
_symmetry_equiv_pos_as_xyz
1 x,y,z
2 -x,-y,z
3 1/2+x,1/2-y,1/2+z
4 1/2-x,1/2+y,1/2+z
_cell_length_a                   12.976(7)
_cell_length_b                   16.755(9)
_cell_length_c                   3.7900(19)
_cell_angle_alpha                90
_cell_angle_beta                 90
_cell_angle_gamma                90
_cell_volume                     823.995
loop_
_atom_site_label
_atom_site_type_symbol
_atom_site_fract_x
_atom_site_fract_y
_atom_site_fract_z
Cd1 Cd 0.5000 0.5000 0.43752(9)
Br1 Br 0.60242(2) 0.585160(19) -0.06899(16)
O1 O 0.3543(2) 0.86824(17) 0.0162(9)
O3 O 0.4887(2) 0.8257(2) 0.2861(10)
C1 C 0.2057(2) 0.6581(2) 0.2052(10)
H1 H 0.1365 0.6496 0.1552
C2 C 0.2465(3) 0.7299(2) 0.1383(10)
H2 H 0.2071 0.7706 0.0399
C3 C 0.3534(3) 0.7421(2) 0.2235(8)
C4 C 0.4067(2) 0.67857(19) 0.3614(9)
H3 H 0.4754 0.6864 0.4224
C5 C 0.2637(2) 0.59542(19) 0.3479(7)
N1 N 0.36624(17) 0.60629(13) 0.4133(10)
N2 N 0.22150(19) 0.52747(16) 0.4124(11)
H4 H 0.2578 0.4890 0.4965
H5 H 0.1569 0.5205 0.3713
N3 N 0.4013(2) 0.8152(2) 0.1736(11)
Cd1_2 Cd 0.5000 0.5000 -0.56248(9)
Br1_2 Br 0.60242(2) 0.585160(19) 0.93101(16)
Br1A Br 0.39758(2) 0.414840(19) -0.06899(16)
Br1A_2 Br 0.39758(2) 0.414840(19) 0.93101(16)
O1A O 0.6457(2) 0.13176(17) 0.0162(9)
O3A O 0.5113(2) 0.1743(2) 0.2861(10)
C1A C 0.7943(2) 0.3419(2) 0.2052(10)
H1A H 0.8635 0.3504 0.1552
C2A C 0.7535(3) 0.2701(2) 0.1383(10)
H2A H 0.7929 0.2294 0.0399
C3A C 0.6466(3) 0.2579(2) 0.2235(8)
C4A C 0.5933(2) 0.32143(19) 0.3614(9)
H3A H 0.5246 0.3136 0.4224
C5A C 0.7363(2) 0.40458(19) 0.3479(7)
N1A N 0.63376(17) 0.39371(13) 0.4133(10)
N2A N 0.77850(19) 0.47253(16) 0.4124(11)
H4A H 0.7422 0.5110 0.4965
H5A H 0.8431 0.4795 0.3713
N3A N 0.5987(2) 0.1848(2) 0.1736(11)
O2 O 0.5000 1.0000 -0.4324(13)
loop_
_geom_bond_atom_site_label_1
_geom_bond_atom_site_label_2
_geom_bond_site_symmetry_1
_geom_bond_site_symmetry_2
Cd1 Br1 1_555 1_555
Br1 Cd1_2 1_555 1_555
O1 N3 1_555 1_555
O3 N3 1_555 1_555
C1 H1 1_555 1_555
C2 C1 1_555 1_555
H2 C2 1_555 1_555
C3 C2 1_555 1_555
C4 C3 1_555 1_555
H3 C4 1_555 1_555
C5 C1 1_555 1_555
N1 Cd1 1_555 1_555
N2 C5 1_555 1_555
H4 N2 1_555 1_555
H5 N2 1_555 1_555
N3 C3 1_555 1_555
Cd1_2 Br1A 1_555 1_555
Br1_2 Cd1 1_555 1_555
Br1A Cd1 1_555 1_555
Br1A_2 Cd1 1_555 1_555
O1A N3A 1_555 1_555
O3A N3A 1_555 1_555
C1A H1A 1_555 1_555
C2A C1A 1_555 1_555
H2A C2A 1_555 1_555
C3A C2A 1_555 1_555
C4A C3A 1_555 1_555
H3A C4A 1_555 1_555
C5A C1A 1_555 1_555
N1A Cd1 1_555 1_555
N2A C5A 1_555 1_555
H4A N2A 1_555 1_555
H5A N2A 1_555 1_555
N3A C3A 1_555 1_555
C4 N1 1_555 1_555
C5 N1 1_555 1_555
C4A N1A 1_555 1_555
C5A N1A 1_555 1_555

#END
