
#######################################################################
#
#                 Cambridge Crystallographic Data Centre
#                                CCDC 
#
#######################################################################
#
# If this CIF has been generated from an entry in the Cambridge 
# Structural Database, then it will include bibliographic, chemical, 
# crystal, experimental, refinement or atomic coordinate data resulting 
# from the CCDC's data processing and validation procedures.
#
#######################################################################

data_YAQNEL
_symmetry_cell_setting           triclinic
_symmetry_space_group_name_H-M   'P -1'
_symmetry_Int_Tables_number      2
_space_group_name_Hall           '-P 1'
loop_
_symmetry_equiv_pos_site_id
_symmetry_equiv_pos_as_xyz
1 x,y,z
2 -x,-y,-z
_cell_length_a                   9.695(3)
_cell_length_b                   9.898(3)
_cell_length_c                   12.808(5)
_cell_angle_alpha                99.569(4)
_cell_angle_beta                 107.012(2)
_cell_angle_gamma                94.899(4)
_cell_volume                     1147.17
loop_
_atom_site_label
_atom_site_type_symbol
_atom_site_fract_x
_atom_site_fract_y
_atom_site_fract_z
In1 In 0.05873(2) 0.27130(2) 0.172768(17)
O1 O -0.0998(2) 0.1244(2) 0.29256(18)
O2 O 0.0287(2) 0.0597(2) 0.18147(18)
O3 O 0.0899(2) -0.4866(2) 0.17265(19)
O4 O -0.0849(2) -0.5897(2) 0.21843(19)
O5 O 0.1873(3) -0.1824(3) -0.02500(19)
O6 O -0.0176(2) -0.2432(2) 0.00424(17)
O7 O 0.0787(4) -0.2900(3) 0.4435(2)
O8 O 0.1911(3) -0.0845(3) 0.5348(2)
N1 N 0.2030(3) 0.3285(3) 0.3541(2)
N2 N 0.2946(3) 0.2506(3) 0.1794(2)
C1 C -0.0587(3) 0.0333(3) 0.2345(2)
C2 C -0.1199(3) -0.1164(3) 0.2187(2)
C3 C -0.2684(3) -0.1442(3) 0.2018(2)
H1 H -0.3222 -0.0713 0.2066
C4 C -0.3369(3) -0.2784(3) 0.1779(3)
H2 H -0.4371 -0.2964 0.1634
C5 C -0.2555(3) -0.3860(3) 0.1756(2)
H3 H -0.3013 -0.4767 0.1607
C6 C -0.1057(3) -0.3605(3) 0.1951(2)
C7 C -0.0361(3) -0.2251(3) 0.2146(2)
C8 C -0.0256(3) -0.4830(3) 0.1961(2)
C9 C 0.1263(3) -0.1886(3) 0.2436(2)
C10 C 0.2092(3) -0.1571(3) 0.3560(2)
C11 C 0.3570(3) -0.1059(3) 0.3881(3)
H4 H 0.4109 -0.0840 0.4633
C12 C 0.4239(3) -0.0873(3) 0.3092(3)
H5 H 0.5226 -0.0531 0.3309
C13 C 0.3436(3) -0.1200(3) 0.1982(3)
H6 H 0.3890 -0.1082 0.1449
C14 C 0.1962(3) -0.1700(3) 0.1643(2)
C15 C 0.1179(3) -0.1998(3) 0.0406(2)
C16 C 0.1478(3) -0.1830(3) 0.4468(3)
C17 C 0.1493(4) 0.3659(4) 0.4379(3)
H7 H 0.0511 0.3756 0.4214
C18 C 0.2348(5) 0.3906(4) 0.5480(3)
H8 H 0.1952 0.4172 0.6049
C19 C 0.3786(5) 0.3753(5) 0.5719(3)
H9 H 0.4379 0.3898 0.6456
C20 C 0.4357(4) 0.3379(4) 0.4856(3)
H10 H 0.5338 0.3280 0.5008
C21 C 0.3452(3) 0.3154(3) 0.3768(3)
C22 C 0.3974(3) 0.2770(3) 0.2791(3)
C23 C 0.5427(3) 0.2703(3) 0.2883(3)
H11 H 0.6131 0.2907 0.3581
H12 H 0.1546 -0.0989 0.5970
C24 C 0.5826(4) 0.2333(4) 0.1938(3)
H13 H 0.6797 0.2291 0.1988
C25 C 0.4769(4) 0.2032(5) 0.0930(4)
H14 H 0.5009 0.1765 0.0282
C26 C 0.3332(4) 0.2126(4) 0.0877(3)
H15 H 0.2616 0.1919 0.0185
In1_2 In 0.05873(2) -0.72870(2) 0.172768(17)
In1A In -0.05873(2) -0.27130(2) -0.172768(17)
O3_2 O 0.0899(2) 0.5134(2) 0.17265(19)
O4_2 O -0.0849(2) 0.4103(2) 0.21843(19)
O6A O 0.0176(2) 0.2432(2) -0.00424(17)
O9 O 0.3417(3) 0.5401(3) 0.1029(3)
loop_
_geom_bond_atom_site_label_1
_geom_bond_atom_site_label_2
_geom_bond_site_symmetry_1
_geom_bond_site_symmetry_2
In1 O2 1_555 1_555
O1 C1 1_555 1_555
O2 C1 1_555 1_555
O3 C8 1_555 1_555
O4 C8 1_555 1_555
O5 C15 1_555 1_555
O6 C15 1_555 1_555
O7 C16 1_555 1_555
O8 C16 1_555 1_555
N1 In1 1_555 1_555
N2 In1 1_555 1_555
C1 C2 1_555 1_555
C2 C3 1_555 1_555
C3 H1 1_555 1_555
C4 C3 1_555 1_555
H2 C4 1_555 1_555
C5 C4 1_555 1_555
H3 C5 1_555 1_555
C6 C5 1_555 1_555
C7 C2 1_555 1_555
C8 C6 1_555 1_555
C9 C7 1_555 1_555
C10 C9 1_555 1_555
C11 C10 1_555 1_555
H4 C11 1_555 1_555
C12 C11 1_555 1_555
H5 C12 1_555 1_555
C13 C12 1_555 1_555
H6 C13 1_555 1_555
C14 C9 1_555 1_555
C15 C14 1_555 1_555
C16 C10 1_555 1_555
C17 N1 1_555 1_555
H7 C17 1_555 1_555
C18 C17 1_555 1_555
H8 C18 1_555 1_555
C19 C18 1_555 1_555
H9 C19 1_555 1_555
C20 C19 1_555 1_555
H10 C20 1_555 1_555
C21 N1 1_555 1_555
C22 N2 1_555 1_555
C23 C22 1_555 1_555
H11 C23 1_555 1_555
H12 O8 1_555 1_555
C24 C23 1_555 1_555
H13 C24 1_555 1_555
C25 C24 1_555 1_555
H14 C25 1_555 1_555
C26 N2 1_555 1_555
H15 C26 1_555 1_555
In1_2 O3 1_555 1_555
In1A O6 1_555 1_555
O3_2 In1 1_555 1_555
O4_2 In1 1_555 1_555
O6A In1 1_555 1_555
O4 In1_2 1_555 1_555
C6 C7 1_555 1_555
C13 C14 1_555 1_555
C20 C21 1_555 1_555
C21 C22 1_555 1_555
C25 C26 1_555 1_555

#END
