
#######################################################################
#
#                 Cambridge Crystallographic Data Centre
#                                CCDC 
#
#######################################################################
#
# If this CIF has been generated from an entry in the Cambridge 
# Structural Database, then it will include bibliographic, chemical, 
# crystal, experimental, refinement or atomic coordinate data resulting 
# from the CCDC's data processing and validation procedures.
#
#######################################################################

data_YAQNIP
_symmetry_cell_setting           monoclinic
_symmetry_space_group_name_H-M   'P 2/c'
_symmetry_Int_Tables_number      13
_space_group_name_Hall           '-P 2yc'
loop_
_symmetry_equiv_pos_site_id
_symmetry_equiv_pos_as_xyz
1 x,y,z
2 -x,y,1/2-z
3 -x,-y,-z
4 x,-y,1/2+z
_cell_length_a                   7.222(3)
_cell_length_b                   7.172(3)
_cell_length_c                   15.172(6)
_cell_angle_alpha                90
_cell_angle_beta                 105.405(18)
_cell_angle_gamma                90
_cell_volume                     757.618
loop_
_atom_site_label
_atom_site_type_symbol
_atom_site_fract_x
_atom_site_fract_y
_atom_site_fract_z
In1 In 0.5000 1.35210(4) 0.2500
O1 O 0.4114(3) 1.2120(3) 0.36329(14)
O2 O 0.2623(3) 1.1244(3) 0.22633(14)
O3 O -0.2774(3) 0.5818(3) 0.22187(16)
O4 O -0.2998(3) 0.5120(3) 0.35764(15)
C1 C 0.2866(4) 1.1085(4) 0.31013(19)
C2 C 0.1785(3) 0.9722(4) 0.35251(18)
C3 C 0.0291(3) 0.8567(3) 0.30156(18)
C4 C -0.0612(4) 0.7362(4) 0.35038(19)
C5 C -0.2223(4) 0.6050(4) 0.3054(2)
C6 C -0.0009(4) 0.7294(4) 0.4459(2)
H1 H -0.0621 0.6486 0.4770
C7 C 0.1474(4) 0.8399(4) 0.4950(2)
H2 H 0.1875 0.8330 0.5585
C8 C 0.2346(4) 0.9607(4) 0.44781(19)
H3 H 0.3337 1.0367 0.4803
In1_2 In -0.5000 0.35210(4) 0.2500
In1_3 In -0.5000 1.35210(4) 0.2500
In1_4 In 0.5000 0.35210(4) 0.2500
O1A O -0.4114(3) 1.2120(3) 0.13671(14)
O1A_2 O 0.5886(3) 1.2120(3) 0.13671(14)
O2A O -0.2623(3) 1.1244(3) 0.27367(14)
O2A_2 O 0.7377(3) 1.1244(3) 0.27367(14)
O3A O 0.2774(3) 0.5818(3) 0.27813(16)
O3_2 O 0.7226(3) 1.5818(3) 0.22187(16)
O3A_2 O 0.2774(3) 1.5818(3) 0.27813(16)
O4A O 0.2998(3) 0.5120(3) 0.14236(15)
O4_2 O 0.7002(3) 1.5120(3) 0.35764(15)
O4A_2 O 0.2998(3) 1.5120(3) 0.14236(15)
C1A C -0.2866(4) 1.1085(4) 0.18987(19)
C2A C -0.1785(3) 0.9722(4) 0.14749(18)
C3A C -0.0291(3) 0.8567(3) 0.19844(18)
C4A C 0.0612(4) 0.7362(4) 0.14962(19)
C5A C 0.2223(4) 0.6050(4) 0.1946(2)
C6A C 0.0009(4) 0.7294(4) 0.0541(2)
H1A H 0.0621 0.6486 0.0230
C7A C -0.1474(4) 0.8399(4) 0.0050(2)
H2A H -0.1875 0.8330 -0.0585
C8A C -0.2346(4) 0.9607(4) 0.05219(19)
H3A H -0.3337 1.0367 0.0197
O5 O 0.5000 0.5000 0.0000
loop_
_geom_bond_atom_site_label_1
_geom_bond_atom_site_label_2
_geom_bond_site_symmetry_1
_geom_bond_site_symmetry_2
In1 O1 1_555 1_555
O1 C1 1_555 1_555
O2 In1 1_555 1_555
O3 C5 1_555 1_555
O4 C5 1_555 1_555
C1 O2 1_555 1_555
C2 C1 1_555 1_555
C3 C2 1_555 1_555
C4 C3 1_555 1_555
C5 C4 1_555 1_555
C6 C4 1_555 1_555
H1 C6 1_555 1_555
C7 C6 1_555 1_555
H2 C7 1_555 1_555
C8 C2 1_555 1_555
H3 C8 1_555 1_555
In1_2 O3 1_555 1_555
In1_3 O1A 1_555 1_555
In1_4 O3A 1_555 1_555
O1A C1A 1_555 1_555
O1A_2 In1 1_555 1_555
O2A In1_3 1_555 1_555
O2A_2 In1 1_555 1_555
O3A C5A 1_555 1_555
O3_2 In1 1_555 1_555
O3A_2 In1 1_555 1_555
O4A In1_4 1_555 1_555
O4_2 In1 1_555 1_555
O4A_2 In1 1_555 1_555
C1A O2A 1_555 1_555
C2A C1A 1_555 1_555
C3A C3 1_555 1_555
C4A C3A 1_555 1_555
C5A O4A 1_555 1_555
C6A C4A 1_555 1_555
H1A C6A 1_555 1_555
C7A C6A 1_555 1_555
H2A C7A 1_555 1_555
C8A C2A 1_555 1_555
H3A C8A 1_555 1_555
O4 In1_2 1_555 1_555
C7 C8 1_555 1_555
C2A C3A 1_555 1_555
C4A C5A 1_555 1_555
C7A C8A 1_555 1_555

#END
