
#######################################################################
#
#                 Cambridge Crystallographic Data Centre
#                                CCDC 
#
#######################################################################
#
# If this CIF has been generated from an entry in the Cambridge 
# Structural Database, then it will include bibliographic, chemical, 
# crystal, experimental, refinement or atomic coordinate data resulting 
# from the CCDC's data processing and validation procedures.
#
#######################################################################

data_YAQSEQ
_symmetry_cell_setting           monoclinic
_symmetry_space_group_name_H-M   'C 2/c'
_symmetry_Int_Tables_number      15
_space_group_name_Hall           '-C 2yn'
loop_
_symmetry_equiv_pos_site_id
_symmetry_equiv_pos_as_xyz
1 x,y,z
2 -x,y,1/2-z
3 1/2+x,1/2+y,z
4 1/2-x,1/2+y,1/2-z
5 -x,-y,-z
6 x,-y,1/2+z
7 1/2-x,1/2-y,-z
8 1/2+x,1/2-y,1/2+z
_cell_length_a                   19.8010(6)
_cell_length_b                   9.7134(3)
_cell_length_c                   21.1092(6)
_cell_angle_alpha                90
_cell_angle_beta                 107.643(3)
_cell_angle_gamma                90
_cell_volume                     3869.07
loop_
_atom_site_label
_atom_site_type_symbol
_atom_site_fract_x
_atom_site_fract_y
_atom_site_fract_z
Ag1 Ag 0.0000 0.38159(3) 0.2500
N1 N 0.06927(11) 0.3181(2) 0.18917(10)
C1 C 0.04367(13) 0.2847(2) 0.12506(11)
C2 C 0.08794(14) 0.2436(3) 0.08655(12)
C3 C 0.06050(16) 0.2066(3) 0.01835(13)
H3 H 0.0120 0.2104 -0.0031
C4 C 0.10597(19) 0.1654(4) -0.01535(15)
H4 H 0.0881 0.1422 -0.0601
C5 C 0.17882(19) 0.1577(4) 0.01618(17)
H5 H 0.2088 0.1298 -0.0078
C6 C 0.20644(16) 0.1906(3) 0.08182(16)
H6 H 0.2550 0.1831 0.1025
C7 C 0.16149(14) 0.2362(3) 0.11857(13)
C8 C 0.18695(14) 0.2709(3) 0.18625(14)
H7 H 0.2352 0.2665 0.2086
C9 C 0.14097(15) 0.3108(3) 0.21905(13)
H8 H 0.1589 0.3343 0.2637
Ag2 Ag 0.0000 0.5000 0.0000
N2 N -0.06126(12) 0.3911(2) 0.05294(10)
C10 C -0.03507(13) 0.2934(3) 0.09725(11)
C11 C -0.07909(14) 0.2015(3) 0.11970(12)
C12 C -0.05074(16) 0.0875(3) 0.16257(13)
H9 H -0.0021 0.0729 0.1778
C13 C -0.0955(2) 0.0007(3) 0.18087(16)
H10 H -0.0773 -0.0747 0.2078
C14 C -0.1688(2) 0.0243(4) 0.15944(17)
H11 H -0.1986 -0.0348 0.1732
C15 C -0.19712(17) 0.1318(4) 0.11899(15)
H12 H -0.2459 0.1458 0.1052
C16 C -0.15256(14) 0.2224(3) 0.09788(12)
C17 C -0.17811(16) 0.3357(3) 0.05526(15)
H13 H -0.2260 0.3583 0.0430
C18 C -0.13347(15) 0.4108(3) 0.03242(14)
H14 H -0.1522 0.4794 0.0013
N1A N -0.06927(11) 0.3181(2) 0.31083(10)
C1A C -0.04367(13) 0.2847(2) 0.37494(11)
C2A C -0.08794(14) 0.2436(3) 0.41345(12)
C3A C -0.06050(16) 0.2066(3) 0.48165(13)
H3A H -0.0120 0.2104 0.5031
C4A C -0.10597(19) 0.1654(4) 0.51535(15)
H4A H -0.0881 0.1422 0.5601
C5A C -0.17882(19) 0.1577(4) 0.48382(17)
H5A H -0.2088 0.1298 0.5078
C6A C -0.20644(16) 0.1906(3) 0.41818(16)
H6A H -0.2550 0.1831 0.3975
C7A C -0.16149(14) 0.2362(3) 0.38143(13)
C8A C -0.18695(14) 0.2709(3) 0.31375(14)
H7A H -0.2352 0.2665 0.2914
C9A C -0.14097(15) 0.3108(3) 0.28095(13)
H8A H -0.1589 0.3343 0.2363
Ag2A Ag 0.0000 0.5000 0.5000
N2A N 0.06126(12) 0.3911(2) 0.44706(10)
N2D N 0.06126(12) 0.6089(2) -0.05294(10)
C10A C 0.03507(13) 0.2934(3) 0.40275(11)
C11A C 0.07909(14) 0.2015(3) 0.38030(12)
C12A C 0.05074(16) 0.0875(3) 0.33743(13)
H9A H 0.0021 0.0729 0.3222
C13A C 0.0955(2) 0.0007(3) 0.31913(16)
H10A H 0.0773 -0.0747 0.2922
C14A C 0.1688(2) 0.0243(4) 0.34056(17)
H11A H 0.1986 -0.0348 0.3268
C15A C 0.19712(17) 0.1318(4) 0.38101(15)
H12A H 0.2459 0.1458 0.3948
C16A C 0.15256(14) 0.2224(3) 0.40212(12)
C17A C 0.17811(16) 0.3357(3) 0.44474(15)
H13A H 0.2260 0.3583 0.4570
C18A C 0.13347(15) 0.4108(3) 0.46758(14)
H14A H 0.1522 0.4794 0.4987
O1 O 0.0799 0.56177(3) 0.3222
H1 H 0.1061 0.6150 0.2985
H2 H 0.0441 0.6242 0.3283
S1 S 0.39679(4) 0.19178(8) 0.34002(4)
O2 O 0.47103(14) 0.2080(3) 0.35743(17)
O3 O 0.3757(2) 0.0979(3) 0.38149(16)
O4 O 0.36193(15) 0.1819(3) 0.27102(11)
C19 C 0.36664(17) 0.3568(3) 0.36188(16)
F1 F 0.29813(12) 0.3657(2) 0.34431(14)
F2 F 0.38623(19) 0.4581(3) 0.33074(18)
F3 F 0.38955(18) 0.3807(3) 0.42479(12)
loop_
_geom_bond_atom_site_label_1
_geom_bond_atom_site_label_2
_geom_bond_site_symmetry_1
_geom_bond_site_symmetry_2
Ag1 N1 1_555 1_555
O1 H1 1_555 1_555
H2 O1 1_555 1_555
N1 C1 1_555 1_555
C1 C2 1_555 1_555
C2 C3 1_555 1_555
C3 H3 1_555 1_555
C4 C3 1_555 1_555
H4 C4 1_555 1_555
C5 C4 1_555 1_555
H5 C5 1_555 1_555
C6 C5 1_555 1_555
H6 C6 1_555 1_555
C7 C2 1_555 1_555
C8 C7 1_555 1_555
H7 C8 1_555 1_555
C9 N1 1_555 1_555
H8 C9 1_555 1_555
Ag2 N2 1_555 1_555
N2 C10 1_555 1_555
C10 C1 1_555 1_555
C11 C10 1_555 1_555
C12 C11 1_555 1_555
H9 C12 1_555 1_555
C13 C12 1_555 1_555
H10 C13 1_555 1_555
C14 C13 1_555 1_555
H11 C14 1_555 1_555
C15 C14 1_555 1_555
H12 C15 1_555 1_555
C16 C11 1_555 1_555
C17 C16 1_555 1_555
H13 C17 1_555 1_555
C18 N2 1_555 1_555
H14 C18 1_555 1_555
S1 O2 1_555 1_555
O3 S1 1_555 1_555
O4 S1 1_555 1_555
C19 S1 1_555 1_555
F1 C19 1_555 1_555
F2 C19 1_555 1_555
F3 C19 1_555 1_555
N1A Ag1 1_555 1_555
C1A N1A 1_555 1_555
C2A C1A 1_555 1_555
C3A C2A 1_555 1_555
H3A C3A 1_555 1_555
C4A C3A 1_555 1_555
H4A C4A 1_555 1_555
C5A C4A 1_555 1_555
H5A C5A 1_555 1_555
C6A C5A 1_555 1_555
H6A C6A 1_555 1_555
C7A C2A 1_555 1_555
C8A C7A 1_555 1_555
H7A C8A 1_555 1_555
C9A N1A 1_555 1_555
H8A C9A 1_555 1_555
Ag2A N2A 1_555 1_555
N2A C10A 1_555 1_555
N2D Ag2 1_555 1_555
C10A C1A 1_555 1_555
C11A C10A 1_555 1_555
C12A C11A 1_555 1_555
H9A C12A 1_555 1_555
C13A C12A 1_555 1_555
H10A C13A 1_555 1_555
C14A C13A 1_555 1_555
H11A C14A 1_555 1_555
C15A C14A 1_555 1_555
H12A C15A 1_555 1_555
C16A C11A 1_555 1_555
C17A C16A 1_555 1_555
H13A C17A 1_555 1_555
C18A N2A 1_555 1_555
H14A C18A 1_555 1_555
C6 C7 1_555 1_555
C8 C9 1_555 1_555
C15 C16 1_555 1_555
C17 C18 1_555 1_555
C6A C7A 1_555 1_555
C8A C9A 1_555 1_555
C15A C16A 1_555 1_555
C17A C18A 1_555 1_555

#END
