
#######################################################################
#
#                 Cambridge Crystallographic Data Centre
#                                CCDC 
#
#######################################################################
#
# If this CIF has been generated from an entry in the Cambridge 
# Structural Database, then it will include bibliographic, chemical, 
# crystal, experimental, refinement or atomic coordinate data resulting 
# from the CCDC's data processing and validation procedures.
#
#######################################################################

data_YAQTAN
_symmetry_cell_setting           monoclinic
_symmetry_space_group_name_H-M   'C 2/c'
_symmetry_Int_Tables_number      15
_space_group_name_Hall           '-C 2yn'
loop_
_symmetry_equiv_pos_site_id
_symmetry_equiv_pos_as_xyz
1 x,y,z
2 -x,y,1/2-z
3 1/2+x,1/2+y,z
4 1/2-x,1/2+y,1/2-z
5 -x,-y,-z
6 x,-y,1/2+z
7 1/2-x,1/2-y,-z
8 1/2+x,1/2-y,1/2+z
_cell_length_a                   28.108(4)
_cell_length_b                   27.934(4)
_cell_length_c                   28.988(4)
_cell_angle_alpha                90
_cell_angle_beta                 115.139(3)
_cell_angle_gamma                90
_cell_volume                     20604.6
loop_
_atom_site_label
_atom_site_type_symbol
_atom_site_fract_x
_atom_site_fract_y
_atom_site_fract_z
Cu1 Cu 0.15721(3) 0.28313(3) 0.24220(2)
Cu2 Cu 0.27471(3) 0.28177(3) 0.27666(2)
Cu3 Cu 0.21261(3) 0.36864(3) 0.30526(3)
Cu4 Cu 0.22508(3) 0.36493(3) 0.20745(2)
C1 C 0.0975(3) 0.0234(3) 0.2118(3)
C2 C 0.0510(3) -0.0044(3) 0.2000(2)
C3 C 0.0019(3) 0.0163(2) 0.1869(2)
C4 C -0.0029(2) 0.0665(3) 0.18597(19)
C5 C 0.0428(3) 0.0963(3) 0.1995(3)
C6 C 0.0550(3) -0.0531(3) 0.2003(3)
H1 H 0.0875 -0.0671 0.2084
C7 C 0.0111(4) -0.0822(3) 0.1889(3)
H2 H 0.0148 -0.1153 0.1900
C8 C -0.0363(4) -0.0626(3) 0.1761(3)
H3 H -0.0653 -0.0824 0.1682
C9 C -0.0430(3) -0.0137(3) 0.1744(2)
C10 C -0.0909(3) 0.0096(4) 0.1618(3)
H4 H -0.1209 -0.0087 0.1539
C11 C -0.0951(3) 0.0567(4) 0.1607(3)
H5 H -0.1280 0.0706 0.1512
C12 C -0.0508(3) 0.0863(3) 0.1736(2)
H6 H -0.0544 0.1194 0.1737
N1 N 0.0904(2) 0.0731(2) 0.2096(2)
O1 O 0.1410(2) 0.00669(19) 0.2220(2)
O2 O 0.0407(2) 0.13995(19) 0.2009(2)
C13 C 0.1348(3) 0.1031(3) 0.2117(3)
H7 H 0.1216 0.1325 0.1928
H8 H 0.1546 0.0861 0.1964
C14 C 0.1699(3) 0.1144(3) 0.2665(3)
H9 H 0.1797 0.0852 0.2864
H10 H 0.1519 0.1352 0.2806
C15 C 0.2196(3) 0.1397(2) 0.2674(4)
H11 H 0.2491 0.1320 0.2994
H12 H 0.2271 0.1263 0.2403
C16 C 0.2167(3) 0.1940(2) 0.2615(2)
O3 O 0.17250(16) 0.21365(14) 0.24990(14)
O4 O 0.25949(16) 0.21360(14) 0.27114(14)
C17 C 0.0497(3) 0.5224(4) 0.1944(3)
C18 C -0.0008(4) 0.5418(4) 0.1866(3)
C19 C -0.0094(4) 0.5912(5) 0.1829(3)
C20 C 0.0305(5) 0.6225(4) 0.1848(3)
C21 C 0.0823(4) 0.6047(4) 0.1905(3)
C22 C -0.0414(4) 0.5114(4) 0.1831(3)
H13 H -0.0362 0.4785 0.1867
C23 C -0.0915(5) 0.5321(7) 0.1736(4)
H14 H -0.1200 0.5127 0.1693
C24 C -0.0967(6) 0.5813(7) 0.1711(5)
H15 H -0.1290 0.5937 0.1665
C25 C -0.0579(5) 0.6138(7) 0.1747(4)
C26 C -0.0640(8) 0.6629(7) 0.1724(6)
H16 H -0.0962 0.6759 0.1678
C27 C -0.0251(8) 0.6918(7) 0.1766(7)
H17 H -0.0295 0.7248 0.1758
C28 C 0.0233(5) 0.6717(5) 0.1823(4)
H18 H 0.0505 0.6918 0.1844
N2 N 0.0872(3) 0.5549(3) 0.1948(2)
O5 O 0.0604(2) 0.4802(2) 0.2015(3)
O6 O 0.1181(3) 0.6292(3) 0.1923(3)
O7 O 0.21487(16) 0.43650(16) 0.29019(17)
O8 O 0.22654(15) 0.43409(15) 0.21826(17)
C29 C 0.1376(3) 0.5345(3) 0.1991(3)
H19 H 0.1499 0.5528 0.1778
H20 H 0.1319 0.5018 0.1866
C30 C 0.1800(3) 0.5350(2) 0.2542(3)
H21 H 0.1882 0.5678 0.2659
H22 H 0.1670 0.5189 0.2762
C31 C 0.2295(2) 0.5100(2) 0.2575(3)
H23 H 0.2589 0.5185 0.2893
H24 H 0.2375 0.5208 0.2298
C32 C 0.2227(2) 0.4557(2) 0.2546(3)
C33 C 0.4174(3) 0.4961(3) 0.5392(2)
C34 C 0.4723(3) 0.5134(3) 0.5539(2)
C35 C 0.5126(3) 0.4805(4) 0.5645(2)
C36 C 0.5029(3) 0.4320(4) 0.5617(2)
C37 C 0.4502(3) 0.4138(3) 0.5485(2)
C38 C 0.4806(4) 0.5615(3) 0.5565(3)
H25 H 0.4529 0.5829 0.5485
C39 C 0.5321(6) 0.5775(4) 0.5718(4)
H26 H 0.5386 0.6102 0.5753
C40 C 0.5709(6) 0.5490(7) 0.5810(4)
H27 H 0.6041 0.5618 0.5894
C41 C 0.5646(4) 0.4995(6) 0.5787(3)
C42 C 0.6036(4) 0.4651(6) 0.5878(3)
H28 H 0.6380 0.4751 0.5970
C43 C 0.5928(5) 0.4171(6) 0.5837(4)
H29 H 0.6199 0.3953 0.5900
C44 C 0.5420(4) 0.4001(4) 0.5703(3)
H30 H 0.5350 0.3674 0.5674
N3 N 0.4111(2) 0.4471(3) 0.53877(17)
O9 O 0.3800(2) 0.5225(2) 0.52730(19)
O10 O 0.4395(2) 0.3709(2) 0.5453(2)
O11 O 0.25897(17) 0.38038(15) 0.37563(16)
O12 O 0.1891(2) 0.3871(2) 0.3899(2)
C45 C 0.3582(3) 0.4274(3) 0.5272(2)
H31 H 0.3390 0.4500 0.5384
H32 H 0.3619 0.3979 0.5461
C46 C 0.3267(2) 0.4175(3) 0.4699(2)
H33 H 0.3245 0.4466 0.4508
H34 H 0.3447 0.3935 0.4591
C47 C 0.2719(3) 0.4003(3) 0.4589(3)
H35 H 0.2750 0.3719 0.4793
H36 H 0.2548 0.4247 0.4702
C48 C 0.2368(3) 0.3885(3) 0.4041(3)
C49 C 0.0328(7) 0.4035(5) -0.0454(11)
C50 C 0.0064(5) 0.4482(4) -0.0563(5)
C51 C 0.0266(6) 0.4919(5) -0.0618(8)
C52 C 0.0801(6) 0.4928(6) -0.0530(8)
C53 C 0.1079(5) 0.4474(5) -0.0483(6)
C54 C -0.0444(6) 0.4501(6) -0.0613(6)
H37 H -0.0604 0.4219 -0.0582
C55 C -0.0727(8) 0.4923(6) -0.0706(9)
H38 H -0.1064 0.4911 -0.0721
C56 C -0.0546(8) 0.5345(8) -0.0775(13)
H39 H -0.0753 0.5619 -0.0862
C57 C -0.0030(6) 0.5349(5) -0.0710(6)
C58 C 0.0252(9) 0.5779(7) -0.0716(11)
H40 H 0.0082 0.6073 -0.0760
C59 C 0.0725(9) 0.5770(7) -0.0664(9)
H41 H 0.0887 0.6059 -0.0667
C60 C 0.1016(7) 0.5347(6) -0.0601(7)
H42 H 0.1344 0.5350 -0.0607
N4 N 0.0845(5) 0.4050(5) -0.0417(5)
O13 O 0.0110(5) 0.3689(4) -0.0329(5)
O14 O 0.1535(5) 0.4485(5) -0.0430(5)
O15 O 0.1763(3) 0.3808(3) 0.1376(3)
O16 O 0.2562(4) 0.3793(4) 0.1371(4)
C61 C 0.1169(6) 0.3611(6) -0.0317(6)
H43 H 0.1398 0.3637 -0.0489
H44 H 0.0940 0.3338 -0.0459
C62 C 0.1515(8) 0.3520(6) 0.0269(6)
H45 H 0.1294 0.3376 0.0412
H46 H 0.1786 0.3290 0.0302
C63 C 0.1778(6) 0.3960(5) 0.0584(5)
H47 H 0.1515 0.4204 0.0534
H48 H 0.2030 0.4089 0.0469
C64 C 0.2063(4) 0.3834(5) 0.1157(4)
C65 C -0.1525(2) 0.2015(2) -0.1170(2)
H49 H -0.1723 0.1738 -0.1214
C66 C -0.1123(2) 0.2104(2) -0.0694(2)
H50 H -0.1054 0.1891 -0.0426
C67 C -0.0827(2) 0.2513(2) -0.0624(2)
C68 C -0.0949(2) 0.2805(2) -0.1044(2)
H51 H -0.0751 0.3079 -0.1018
C69 C -0.1353(2) 0.2697(2) -0.1492(2)
H52 H -0.1434 0.2907 -0.1764
C70 C -0.0395(2) 0.2643(2) -0.0128(2)
H53 H -0.0200 0.2914 -0.0121
C71 C -0.0260(2) 0.2412(2) 0.0301(2)
H54 H -0.0458 0.2143 0.0296
C72 C 0.0166(2) 0.2536(2) 0.0784(2)
C73 C 0.0239(2) 0.2260(2) 0.1215(2)
H55 H 0.0010 0.2011 0.1191
C74 C 0.0652(2) 0.2366(2) 0.1672(2)
H56 H 0.0703 0.2175 0.1952
C75 C 0.0916(2) 0.2992(2) 0.1327(2)
H57 H 0.1144 0.3244 0.1362
C76 C 0.0511(2) 0.2903(2) 0.0847(2)
H58 H 0.0476 0.3093 0.0570
N5 N -0.16419(17) 0.2303(2) -0.15643(17)
N6 N 0.09895(17) 0.27303(18) 0.17382(18)
C77 C 0.2181(2) 0.2733(2) 0.3538(2)
H59 H 0.2499 0.2831 0.3821
H60 H 0.2195 0.2395 0.3484
H61 H 0.1886 0.2803 0.3611
O17 O 0.21293(13) 0.29840(13) 0.30953(13)
C78 C 0.3263(2) 0.3801(2) 0.2935(3)
H62 H 0.3569 0.3599 0.3062
H63 H 0.3268 0.4004 0.3205
H64 H 0.3264 0.3995 0.2662
O18 O 0.28017(13) 0.35117(13) 0.27530(13)
C79 C 0.1127(2) 0.3834(2) 0.2185(3)
H65 H 0.1163 0.4083 0.2426
H66 H 0.0818 0.3649 0.2123
H67 H 0.1096 0.3975 0.1871
O19 O 0.15813(13) 0.35299(13) 0.23850(13)
C80 C 0.2181(2) 0.2649(2) 0.1661(2)
H68 H 0.2437 0.2734 0.1537
H69 H 0.1835 0.2686 0.1393
H70 H 0.2233 0.2322 0.1773
O20 O 0.22388(14) 0.29489(13) 0.20717(13)
Cu2G Cu -0.22529(3) 0.21823(3) -0.22334(2)
N5G N 0.33581(17) 0.2697(2) 0.34357(17)
C81 C 0.0768(4) 0.2319(4) 0.2984(4)
H71 H 0.0712 0.2052 0.2759
H72 H 0.0452 0.2381 0.3026
H73 H 0.1049 0.2246 0.3310
O21 O 0.0904(2) 0.27402(18) 0.2770(2)
C82? C -0.0446(9) 0.5673(7) -0.0800(9)
C83? C -0.0004(9) 0.5804(7) -0.0765(9)
C84? C 0.0429(9) 0.5505(7) -0.0693(11)
C85? C 0.1124(6) 0.3875(6) -0.0312(6)
C86? C 0.1329(6) 0.3674(7) 0.0253(6)
C87? C 0.1909(5) 0.3756(6) 0.0524(5)
C88? C 0.2141(4) 0.3658(5) 0.1089(4)
C89? C 0.0229(8) 0.4038(5) -0.0442(13)
C90? C -0.0182(7) 0.4368(5) -0.0562(8)
C91? C -0.0099(6) 0.4861(5) -0.0609(6)
C92? C 0.0384(7) 0.5036(7) -0.0582(10)
C93? C 0.0810(6) 0.4706(7) -0.0490(8)
C94? C -0.0652(7) 0.4217(7) -0.0580(7)
C95? C -0.1048(8) 0.4547(7) -0.0672(8)
C96? C -0.1000(8) 0.5011(8) -0.0766(11)
C97? C -0.0541(7) 0.5181(7) -0.0744(12)
H74? H -0.0711 0.5898 -0.0863
H75? H 0.0044 0.6131 -0.0788
H76? H 0.0726 0.5621 -0.0720
H77? H 0.1413 0.4023 -0.0359
H78? H 0.0991 0.3612 -0.0553
H79? H 0.1151 0.3838 0.0431
H80? H 0.1253 0.3335 0.0245
H81? H 0.1983 0.4085 0.0472
H82? H 0.2083 0.3552 0.0372
H83? H -0.0704 0.3896 -0.0530
H84? H -0.1361 0.4443 -0.0670
H85? H -0.1285 0.5216 -0.0847
N7? N 0.0701(5) 0.4232(5) -0.0411(6)
O22? O 0.0236(5) 0.3585(4) -0.0429(5)
O23? O 0.1267(5) 0.4792(5) -0.0404(5)
O24? O 0.1852(4) 0.3661(3) 0.1324(3)
O25? O 0.2620(4) 0.3587(4) 0.1308(4)
loop_
_geom_bond_atom_site_label_1
_geom_bond_atom_site_label_2
_geom_bond_site_symmetry_1
_geom_bond_site_symmetry_2
Cu1 O3 1_555 1_555
Cu2 O4 1_555 1_555
Cu3 O7 1_555 1_555
Cu4 O8 1_555 1_555
C1 C2 1_555 1_555
C2 C3 1_555 1_555
C3 C4 1_555 1_555
C4 C5 1_555 1_555
C5 N1 1_555 1_555
C6 C2 1_555 1_555
H1 C6 1_555 1_555
C7 C6 1_555 1_555
H2 C7 1_555 1_555
C8 C7 1_555 1_555
H3 C8 1_555 1_555
C9 C3 1_555 1_555
C10 C9 1_555 1_555
H4 C10 1_555 1_555
C11 C10 1_555 1_555
H5 C11 1_555 1_555
C12 C4 1_555 1_555
H6 C12 1_555 1_555
N1 C1 1_555 1_555
O1 C1 1_555 1_555
O2 C5 1_555 1_555
C13 N1 1_555 1_555
H7 C13 1_555 1_555
H8 C13 1_555 1_555
C14 C13 1_555 1_555
H9 C14 1_555 1_555
H10 C14 1_555 1_555
C15 C14 1_555 1_555
H11 C15 1_555 1_555
H12 C15 1_555 1_555
C16 C15 1_555 1_555
O3 C16 1_555 1_555
O4 C16 1_555 1_555
C17 C18 1_555 1_555
C18 C19 1_555 1_555
C19 C20 1_555 1_555
C20 C21 1_555 1_555
C21 N2 1_555 1_555
C22 C18 1_555 1_555
H13 C22 1_555 1_555
C23 C22 1_555 1_555
H14 C23 1_555 1_555
C24 C23 1_555 1_555
H15 C24 1_555 1_555
C25 C19 1_555 1_555
C26 C25 1_555 1_555
H16 C26 1_555 1_555
C27 C26 1_555 1_555
H17 C27 1_555 1_555
C28 C20 1_555 1_555
H18 C28 1_555 1_555
N2 C17 1_555 1_555
O5 C17 1_555 1_555
O6 C21 1_555 1_555
O7 C32 1_555 1_555
O8 C32 1_555 1_555
C29 N2 1_555 1_555
H19 C29 1_555 1_555
H20 C29 1_555 1_555
C30 C29 1_555 1_555
H21 C30 1_555 1_555
H22 C30 1_555 1_555
C31 C30 1_555 1_555
H23 C31 1_555 1_555
H24 C31 1_555 1_555
C32 C31 1_555 1_555
C33 C34 1_555 1_555
C34 C35 1_555 1_555
C35 C36 1_555 1_555
C36 C37 1_555 1_555
C37 N3 1_555 1_555
C38 C34 1_555 1_555
H25 C38 1_555 1_555
C39 C38 1_555 1_555
H26 C39 1_555 1_555
C40 C39 1_555 1_555
H27 C40 1_555 1_555
C41 C35 1_555 1_555
C42 C41 1_555 1_555
H28 C42 1_555 1_555
C43 C42 1_555 1_555
H29 C43 1_555 1_555
C44 C36 1_555 1_555
H30 C44 1_555 1_555
N3 C33 1_555 1_555
O9 C33 1_555 1_555
O10 C37 1_555 1_555
O11 Cu3 1_555 1_555
O12 C48 1_555 1_555
C45 N3 1_555 1_555
H31 C45 1_555 1_555
H32 C45 1_555 1_555
C46 C45 1_555 1_555
H33 C46 1_555 1_555
H34 C46 1_555 1_555
C47 C46 1_555 1_555
H35 C47 1_555 1_555
H36 C47 1_555 1_555
C48 O11 1_555 1_555
C49 C50 1_555 1_555
C50 C51 1_555 1_555
C51 C52 1_555 1_555
C52 C53 1_555 1_555
C53 N4 1_555 1_555
C54 C50 1_555 1_555
H37 C54 1_555 1_555
C55 C54 1_555 1_555
H38 C55 1_555 1_555
C56 C55 1_555 1_555
H39 C56 1_555 1_555
C57 C51 1_555 1_555
C58 C57 1_555 1_555
H40 C58 1_555 1_555
C59 C58 1_555 1_555
H41 C59 1_555 1_555
C60 C52 1_555 1_555
H42 C60 1_555 1_555
N4 C49 1_555 1_555
O13 C49 1_555 1_555
O14 C53 1_555 1_555
O15 Cu4 1_555 1_555
O16 C64 1_555 1_555
C61 N4 1_555 1_555
H43 C61 1_555 1_555
H44 C61 1_555 1_555
C62 C61 1_555 1_555
H45 C62 1_555 1_555
H46 C62 1_555 1_555
C63 C62 1_555 1_555
H47 C63 1_555 1_555
H48 C63 1_555 1_555
C64 O15 1_555 1_555
C65 H49 1_555 1_555
C66 C65 1_555 1_555
H50 C66 1_555 1_555
C67 C66 1_555 1_555
C68 C67 1_555 1_555
H51 C68 1_555 1_555
C69 C68 1_555 1_555
H52 C69 1_555 1_555
C70 C67 1_555 1_555
H53 C70 1_555 1_555
C71 C70 1_555 1_555
H54 C71 1_555 1_555
C72 C71 1_555 1_555
C73 C72 1_555 1_555
H55 C73 1_555 1_555
C74 C73 1_555 1_555
H56 C74 1_555 1_555
C75 H57 1_555 1_555
C76 C72 1_555 1_555
H58 C76 1_555 1_555
N5 C65 1_555 1_555
N6 Cu1 1_555 1_555
C77 H59 1_555 1_555
H60 C77 1_555 1_555
H61 C77 1_555 1_555
O17 Cu1 1_555 1_555
C78 H62 1_555 1_555
H63 C78 1_555 1_555
H64 C78 1_555 1_555
O18 Cu2 1_555 1_555
C79 H65 1_555 1_555
H66 C79 1_555 1_555
H67 C79 1_555 1_555
O19 Cu1 1_555 1_555
C80 H68 1_555 1_555
H69 C80 1_555 1_555
H70 C80 1_555 1_555
O20 Cu2 1_555 1_555
C81 H71 1_555 1_555
H72 C81 1_555 1_555
H73 C81 1_555 1_555
O21 C81 1_555 1_555
Cu2G N5 1_555 1_555
N5G Cu2 1_555 1_555
Cu3 O17 1_555 1_555
Cu3 O19 1_555 1_555
Cu4 O18 1_555 1_555
Cu4 O20 1_555 1_555
C8 C9 1_555 1_555
C11 C12 1_555 1_555
C24 C25 1_555 1_555
C27 C28 1_555 1_555
C40 C41 1_555 1_555
C43 C44 1_555 1_555
C47 C48 1_555 1_555
C56 C57 1_555 1_555
C59 C60 1_555 1_555
C63 C64 1_555 1_555
C69 N5 1_555 1_555
C74 N6 1_555 1_555
C75 C76 1_555 1_555
C75 N6 1_555 1_555
C77 O17 1_555 1_555
C78 O18 1_555 1_555
C79 O19 1_555 1_555
C80 O20 1_555 1_555

#END
