
#######################################################################
#
#                 Cambridge Crystallographic Data Centre
#                                CCDC 
#
#######################################################################
#
# If this CIF has been generated from an entry in the Cambridge 
# Structural Database, then it will include bibliographic, chemical, 
# crystal, experimental, refinement or atomic coordinate data resulting 
# from the CCDC's data processing and validation procedures.
#
#######################################################################

data_YAQZAT
_symmetry_cell_setting           monoclinic
_symmetry_space_group_name_H-M   'P 21/n'
_symmetry_Int_Tables_number      14
_space_group_name_Hall           '-P 2yn'
loop_
_symmetry_equiv_pos_site_id
_symmetry_equiv_pos_as_xyz
1 x,y,z
2 1/2-x,1/2+y,1/2-z
3 -x,-y,-z
4 1/2+x,1/2-y,1/2+z
_cell_length_a                   9.1844(2)
_cell_length_b                   21.6150(5)
_cell_length_c                   11.5401(2)
_cell_angle_alpha                90
_cell_angle_beta                 112.7010(10)
_cell_angle_gamma                90
_cell_volume                     2113.47
loop_
_atom_site_label
_atom_site_type_symbol
_atom_site_fract_x
_atom_site_fract_y
_atom_site_fract_z
U1 U 0.29255(4) 0.246273(14) 0.27919(3)
U2 U -0.41692(4) -0.000500(14) 0.36955(3)
O1 O -0.3100(14) 0.0008(3) 0.2002(10)
O2 O 0.1163(7) 0.3360(3) 0.2285(6)
O3 O -0.5191(7) 0.1611(3) 0.3339(6)
O4 O 0.1270(8) 0.1970(3) 0.2294(6)
O5 O 0.4572(8) 0.2964(3) 0.3283(6)
O6 O -0.2534(9) 0.2070(3) -0.0399(6)
O7 O -0.3188(8) 0.0996(3) 0.3514(7)
O8 O -0.0813(9) 0.3996(3) 0.2081(7)
O9 O -0.2641(8) 0.2057(3) 0.5685(6)
O10 O -0.2271(9) -0.0162(3) 0.4838(7)
O11 O -0.1613(9) 0.2981(3) 0.5966(6)
O12 O -0.6059(9) 0.0153(3) 0.2532(7)
O13 O -0.1509(8) 0.2994(3) -0.0079(6)
O14 O -0.5326(9) -0.0595(3) 0.4812(6)
C1 C -0.2128(11) 0.2502(4) 0.5268(8)
C2 C -0.1997(11) 0.2530(4) 0.0297(8)
C3 C -0.0205(11) 0.3469(4) 0.2239(8)
C4 C -0.3847(11) 0.1525(4) 0.3353(8)
C5 C -0.2101(11) 0.2497(4) 0.3984(9)
C6 C -0.1988(11) 0.2512(4) 0.1613(9)
C7 C -0.2903(11) 0.2039(4) 0.3100(8)
C8 C -0.1167(10) 0.2961(4) 0.2498(8)
C9 C -0.1245(10) 0.2948(4) 0.3662(8)
H1 H -0.0711 0.3248 0.4249
C10 C -0.2838(11) 0.2059(4) 0.1920(8)
H2 H -0.3375 0.1762 0.1325
U1_2 U -0.70745(4) 0.246273(14) 0.27919(3)
U1C U -0.20745(4) 0.253727(14) -0.22081(3)
U1C_2 U -0.20745(4) 0.253727(14) 0.77919(3)
U2A U -0.08308(4) 0.499500(14) 0.13045(3)
U2B U -0.58308(4) 0.000500(14) 0.63045(3)
O3_2 O 0.4809(7) 0.1611(3) 0.3339(6)
O6C O 0.2466(9) 0.2930(3) 0.4601(6)
O8A O -0.4187(9) -0.1004(3) 0.2919(7)
O9C O 0.2359(8) 0.2943(3) 0.0685(6)
O11C O 0.3387(9) 0.2019(3) 0.0966(6)
O13C O 0.3491(8) 0.2006(3) 0.4921(6)
O14B O -0.4674(9) 0.0595(3) 0.5188(6)
N1 N 0.3681(16) 0.4247(6) 0.2052(13)
O15 O 0.801(2) 0.4232(9) 0.5057(19)
O16 O 0.517(2) 0.5581(9) 0.2623(18)
O17 O 0.530(2) 0.3780(8) 0.0638(18)
O18 O 0.579(4) 0.5883(17) 0.514(3)
loop_
_geom_bond_atom_site_label_1
_geom_bond_atom_site_label_2
_geom_bond_site_symmetry_1
_geom_bond_site_symmetry_2
U1 O2 1_555 1_555
U2 O1 1_555 1_555
O2 C3 1_555 1_555
O3 C4 1_555 1_555
O4 U1 1_555 1_555
O5 U1 1_555 1_555
O6 C2 1_555 1_555
O7 U2 1_555 1_555
O8 C3 1_555 1_555
O9 C1 1_555 1_555
O10 U2 1_555 1_555
O11 C1 1_555 1_555
O12 U2 1_555 1_555
O13 C2 1_555 1_555
O14 U2 1_555 1_555
C1 C5 1_555 1_555
C2 C6 1_555 1_555
C3 C8 1_555 1_555
C4 O7 1_555 1_555
C5 C7 1_555 1_555
C6 C8 1_555 1_555
C7 C4 1_555 1_555
C8 C9 1_555 1_555
C9 C5 1_555 1_555
H1 C9 1_555 1_555
C10 C6 1_555 1_555
H2 C10 1_555 1_555
U1_2 O3 1_555 1_555
U1C O6 1_555 1_555
U1C_2 O9 1_555 1_555
U2A O8 1_555 1_555
U2B O14 1_555 1_555
O3_2 U1 1_555 1_555
O6C U1 1_555 1_555
O8A U2 1_555 1_555
O9C U1 1_555 1_555
O11C U1 1_555 1_555
O13C U1 1_555 1_555
O14B U2 1_555 1_555
O11 U1C_2 1_555 1_555
O13 U1C 1_555 1_555
C7 C10 1_555 1_555
U2B O14B 1_555 1_555

#END
