
#######################################################################
#
#                 Cambridge Crystallographic Data Centre
#                                CCDC 
#
#######################################################################
#
# If this CIF has been generated from an entry in the Cambridge 
# Structural Database, then it will include bibliographic, chemical, 
# crystal, experimental, refinement or atomic coordinate data resulting 
# from the CCDC's data processing and validation procedures.
#
#######################################################################

data_YAQZUN
_symmetry_cell_setting           orthorhombic
_symmetry_space_group_name_H-M   'P b c n'
_symmetry_Int_Tables_number      60
_space_group_name_Hall           '-P 2n 2ab'
loop_
_symmetry_equiv_pos_site_id
_symmetry_equiv_pos_as_xyz
1 x,y,z
2 1/2-x,1/2-y,1/2+z
3 -x,y,1/2-z
4 1/2+x,1/2-y,-z
5 -x,-y,-z
6 1/2+x,1/2+y,1/2-z
7 x,-y,1/2+z
8 1/2-x,1/2+y,z
_cell_length_a                   12.8489(2)
_cell_length_b                   12.7051(2)
_cell_length_c                   9.97360(10)
_cell_angle_alpha                90
_cell_angle_beta                 90
_cell_angle_gamma                90
_cell_volume                     1628.16
loop_
_atom_site_label
_atom_site_type_symbol
_atom_site_fract_x
_atom_site_fract_y
_atom_site_fract_z
U1 U 0.798601(7) 0.813140(8) 0.405113(10)
O1 O 0.80227(18) 0.93220(19) 0.4959(2)
O2 O 0.80059(18) 0.69438(19) 0.3152(3)
O3 O 0.66166(18) 0.88977(18) 0.2669(2)
O4 O 0.51426(17) 0.70885(18) -0.0785(3)
O5 O 0.36226(17) 0.75508(19) 0.0004(3)
O6 O 0.6556(2) 0.7699(2) 0.1063(2)
O7 O 0.8784(2) 0.9119(2) 0.2256(3)
C1 C 0.6304(2) 0.8582(2) 0.1548(3)
C2 C 0.4542(2) 0.7775(2) -0.0306(3)
C3 C 0.4856(2) 0.8914(2) -0.0163(3)
C4 C 0.5603(2) 0.9287(2) 0.0745(3)
C5 C 0.5732(2) 1.0369(2) 0.0898(3)
H1 H 0.6223 1.0619 0.1505
U1D U 0.201399(7) 1.186860(8) -0.405113(10)
U1A U 0.701399(7) 0.686860(8) -0.094887(10)
U1B U 0.201399(7) 0.813140(8) 0.094887(10)
U1E U 0.298601(7) 1.313140(8) 0.094887(10)
U1F U 0.798601(7) 1.186860(8) -0.094887(10)
O1D O 0.19773(18) 1.06780(19) -0.4959(2)
O2D O 0.19941(18) 1.30562(19) -0.3152(3)
O3D O 0.33834(18) 1.11023(18) -0.2669(2)
O4D O 0.48574(17) 1.29115(18) 0.0785(3)
O4A O 0.98574(17) 0.79115(18) 0.4215(3)
O4E O 0.01426(17) 1.20885(18) -0.4215(3)
O5D O 0.63774(17) 1.24492(19) -0.0004(3)
O5B O 0.63774(17) 0.75508(19) 0.4996(3)
O5F O 0.36226(17) 1.24492(19) -0.4996(3)
O6D O 0.3444(2) 1.2301(2) -0.1063(2)
O6A O 0.8444(2) 0.7301(2) 0.6063(2)
O6E O 0.1556(2) 1.2699(2) -0.6063(2)
O7D O 0.1216(2) 1.0881(2) -0.2256(3)
C1D C 0.3696(2) 1.1418(2) -0.1548(3)
C2D C 0.5458(2) 1.2225(2) 0.0306(3)
C3D C 0.5144(2) 1.1086(2) 0.0163(3)
C4D C 0.4397(2) 1.0713(2) -0.0745(3)
C5D C 0.4268(2) 0.9631(2) -0.0898(3)
H1D H 0.3777 0.9381 -0.1505
O8 O 0.9305(6) 0.1012(6) 0.2771(8)
loop_
_geom_bond_atom_site_label_1
_geom_bond_atom_site_label_2
_geom_bond_site_symmetry_1
_geom_bond_site_symmetry_2
U1 O1 1_555 1_555
O2 U1 1_555 1_555
O3 U1 1_555 1_555
O4 C2 1_555 1_555
O5 C2 1_555 1_555
O6 C1 1_555 1_555
O7 U1 1_555 1_555
C1 O3 1_555 1_555
C2 C3 1_555 1_555
C3 C4 1_555 1_555
C4 C1 1_555 1_555
C5 C4 1_555 1_555
H1 C5 1_555 1_555
U1D O1D 1_555 1_555
U1A O4 1_555 1_555
U1B O5 1_555 1_555
U1E O4D 1_555 1_555
U1F O5D 1_555 1_555
O2D U1D 1_555 1_555
O3D U1D 1_555 1_555
O4D C2D 1_555 1_555
O4A U1 1_555 1_555
O4E U1D 1_555 1_555
O5D C2D 1_555 1_555
O5B U1 1_555 1_555
O5F U1D 1_555 1_555
O6D U1E 1_555 1_555
O6A U1 1_555 1_555
O6E U1D 1_555 1_555
O7D U1D 1_555 1_555
C1D O3D 1_555 1_555
C2D C3D 1_555 1_555
C3D C5 1_555 1_555
C4D C1D 1_555 1_555
C5D C3 1_555 1_555
H1D C5D 1_555 1_555
O6 U1A 1_555 1_555
O6D C1D 1_555 1_555
C3D C4D 1_555 1_555
C4D C5D 1_555 1_555

#END
