
#######################################################################
#
#                 Cambridge Crystallographic Data Centre
#                                CCDC 
#
#######################################################################
#
# If this CIF has been generated from an entry in the Cambridge 
# Structural Database, then it will include bibliographic, chemical, 
# crystal, experimental, refinement or atomic coordinate data resulting 
# from the CCDC's data processing and validation procedures.
#
#######################################################################

data_YAQZOH
_symmetry_cell_setting           triclinic
_symmetry_space_group_name_H-M   'P -1'
_symmetry_Int_Tables_number      2
_space_group_name_Hall           '-P 1'
loop_
_symmetry_equiv_pos_site_id
_symmetry_equiv_pos_as_xyz
1 x,y,z
2 -x,-y,-z
_cell_length_a                   5.5266(3)
_cell_length_b                   7.6559(3)
_cell_length_c                   11.3208(4)
_cell_angle_alpha                100.846(2)
_cell_angle_beta                 100.440(2)
_cell_angle_gamma                96.940(2)
_cell_volume                     456.661
loop_
_atom_site_label
_atom_site_type_symbol
_atom_site_fract_x
_atom_site_fract_y
_atom_site_fract_z
U1 U 0.5000 1.0000 1.0000
U2 U 0.42121(3) 0.41429(2) 0.260950(15)
O1 O 0.4017(7) 0.6890(5) 0.3957(3)
O2 O 0.3102(7) 0.6139(5) 0.5646(3)
O3 O 0.7134(7) 0.7701(5) 0.9334(3)
O4 O 0.1290(7) 0.5687(5) 0.1440(3)
O5 O 0.1888(8) 1.0610(5) 0.8303(3)
O6 O 0.2585(7) 0.8303(5) 1.0132(3)
O7 O 0.6749(7) 0.5232(5) 0.2113(4)
O8 O 0.1609(7) 0.3153(5) 0.3082(4)
O9 O 0.4291(7) 0.8787(5) 0.7651(3)
C1 C 0.3053(9) 0.7143(6) 0.4881(4)
C2 C 0.2508(10) 0.9667(6) 0.7412(4)
C3 C 0.1614(9) 0.8693(6) 0.5029(4)
C4 C 0.1242(9) 0.9710(6) 0.6130(4)
C5 C 0.0373(10) 0.9027(7) 0.3928(4)
H1 H 0.0635 0.8375 0.3195
U1_2 U -0.5000 1.0000 0.0000
U2A U -0.42121(3) 1.58571(2) 0.739050(15)
U2A_2 U 0.57879(3) 0.58571(2) 0.739050(15)
U2_2 U -0.57879(3) 1.41429(2) 0.260950(15)
U2_3 U 0.42121(3) 1.41429(2) 1.260950(15)
O1A O -0.4017(7) 1.3110(5) 0.6043(3)
O2A O -0.3102(7) 1.3861(5) 0.4354(3)
O2A_2 O 0.6898(7) 0.3861(5) 0.4354(3)
O2_2 O -0.6898(7) 1.6139(5) 0.5646(3)
O3A O 0.2866(7) 1.2299(5) 1.0666(3)
O3A_2 O 0.2866(7) 0.2299(5) 0.0666(3)
O3_2 O -0.2866(7) 1.7701(5) 0.9334(3)
O4A O -0.1290(7) 1.4313(5) 0.8560(3)
O5A O -0.1888(8) 0.9390(5) 0.1697(3)
O5A_2 O 0.8112(8) 0.9390(5) 1.1697(3)
O6A O 0.7415(7) 1.1697(5) 0.9868(3)
O7A O -0.6749(7) 1.4768(5) 0.7887(4)
O8A O -0.1609(7) 1.6847(5) 0.6918(4)
O9A O -0.4291(7) 1.1213(5) 0.2349(3)
O9A_2 O 0.5709(7) 1.1213(5) 1.2349(3)
O9A_3 O 0.5709(7) 0.1213(5) 0.2349(3)
O9_2 O -0.5709(7) 1.8787(5) 0.7651(3)
C1A C -0.3053(9) 1.2857(6) 0.5119(4)
C2A C -0.2508(10) 1.0333(6) 0.2588(4)
C3A C -0.1614(9) 1.1307(6) 0.4971(4)
C4A C -0.1242(9) 1.0290(6) 0.3870(4)
C5A C -0.0373(10) 1.0973(7) 0.6072(4)
H1A H -0.0635 1.1625 0.6805
loop_
_geom_bond_atom_site_label_1
_geom_bond_atom_site_label_2
_geom_bond_site_symmetry_1
_geom_bond_site_symmetry_2
U1 O3 1_555 1_555
U2 O1 1_555 1_555
O1 C1 1_555 1_555
O2 C1 1_555 1_555
O3 U2A_2 1_555 1_555
O4 U2 1_555 1_555
O5 U1 1_555 1_555
O6 U1 1_555 1_555
O7 U2 1_555 1_555
O8 U2 1_555 1_555
O9 U1 1_555 1_555
C1 C3 1_555 1_555
C2 O5 1_555 1_555
C3 C4 1_555 1_555
C4 C2 1_555 1_555
C5 C3 1_555 1_555
H1 C5 1_555 1_555
U1_2 O5A 1_555 1_555
U2A O1A 1_555 1_555
U2A_2 O2 1_555 1_555
U2_2 O2A 1_555 1_555
U2_3 O3A 1_555 1_555
O1A C1A 1_555 1_555
O2A C1A 1_555 1_555
O2A_2 U2 1_555 1_555
O2_2 U2A 1_555 1_555
O3A U1 1_555 1_555
O3A_2 U2 1_555 1_555
O3_2 U2A 1_555 1_555
O4A U2A 1_555 1_555
O5A C2A 1_555 1_555
O5A_2 U1 1_555 1_555
O6A U1 1_555 1_555
O7A U2A 1_555 1_555
O8A U2A 1_555 1_555
O9A U1_2 1_555 1_555
O9A_2 U1 1_555 1_555
O9A_3 U2 1_555 1_555
O9_2 U2A 1_555 1_555
C1A C3A 1_555 1_555
C2A O9A 1_555 1_555
C3A C4A 1_555 1_555
C4A C5 1_555 1_555
C5A C4 1_555 1_555
H1A C5A 1_555 1_555
O9 C2 1_555 1_555
O9 U2A_2 1_555 1_555
U2_2 O9A 1_555 1_555
U2_3 O9A_2 1_555 1_555
C2A C4A 1_555 1_555
C3A C5A 1_555 1_555

#END
