
#######################################################################
#
#                 Cambridge Crystallographic Data Centre
#                                CCDC 
#
#######################################################################
#
# If this CIF has been generated from an entry in the Cambridge 
# Structural Database, then it will include bibliographic, chemical, 
# crystal, experimental, refinement or atomic coordinate data resulting 
# from the CCDC's data processing and validation procedures.
#
#######################################################################

data_YAQZEX
_symmetry_cell_setting           orthorhombic
_symmetry_space_group_name_H-M   'P n n m'
_symmetry_Int_Tables_number      58
_space_group_name_Hall           '-P 2 2n'
loop_
_symmetry_equiv_pos_site_id
_symmetry_equiv_pos_as_xyz
1 x,y,z
2 -x,-y,z
3 1/2-x,1/2+y,1/2-z
4 1/2+x,1/2-y,1/2-z
5 -x,-y,-z
6 x,y,-z
7 1/2+x,1/2-y,1/2+z
8 1/2-x,1/2+y,1/2+z
_cell_length_a                   13.198(2)
_cell_length_b                   14.852(2)
_cell_length_c                   23.407(4)
_cell_angle_alpha                90
_cell_angle_beta                 90
_cell_angle_gamma                90
_cell_volume                     4588.16
loop_
_atom_site_label
_atom_site_type_symbol
_atom_site_fract_x
_atom_site_fract_y
_atom_site_fract_z
U1 U 0.35240(3) 0.20052(2) 0.191580(13)
U2 U 0.01202(3) 0.19351(2) 0.192903(14)
U3 U 0.16852(3) 0.314568(19) 0.304326(13)
O1 O 0.1801(4) 0.1935(3) 0.2346(2)
O2 O 0.0812(5) -0.1546(4) 0.1081(2)
O3 O 0.5698(5) 0.0772(3) 0.1426(2)
O4 O 0.1081(5) 0.0866(4) 0.1391(3)
O5 O 0.2209(5) -0.0900(3) 0.1437(2)
O6 O 0.5119(4) 0.2209(4) 0.2263(3)
O7 O 0.3428(5) 0.3136(4) 0.1694(3)
O8 O 0.3594(5) 0.0877(4) 0.2125(3)
O9 O 0.0483(5) 0.2882(4) 0.1524(3)
O10 O 0.1798(5) 0.3907(4) 0.2463(2)
O11 O -0.0263(5) 0.0983(4) 0.2336(3)
O12 O 0.2459(5) 0.1628(4) 0.1123(3)
O13 O 0.4532(5) 0.1712(4) 0.1084(3)
O14 O 0.3429(4) 0.2493(4) 0.2909(2)
O15 O 0.1615(5) 0.2388(4) 0.3629(3)
C1 C 0.1808(7) 0.0996(5) 0.1057(4)
C2 C 0.1968(9) 0.0925(7) 0.00000
C3 C 0.5081(7) 0.0998(5) 0.1056(4)
C4 C 0.4990(6) 0.0480(5) 0.0519(4)
C5 C 0.1843(6) 0.0463(5) 0.0514(3)
C6 C 0.1532(8) -0.0913(7) 0.00000
C7 C 0.1630(6) -0.0454(5) 0.0517(3)
C8 C 0.1527(7) -0.0975(5) 0.1053(4)
C9 C 0.4998(8) 0.0949(7) 0.00000
H1 H 0.213717 0.155347 0.000
H2 H 0.13969 -0.154806 0.000
H3 H 0.501011 0.15948 0.000
U1E U 0.35240(3) 0.20052(2) -0.191580(13)
U1A U 0.64760(3) -0.20052(2) 0.191580(13)
U1D U 0.64760(3) -0.20052(2) -0.191580(13)
U1A_2 U -0.35240(3) -0.20052(2) 0.191580(13)
U1D_2 U -0.35240(3) -0.20052(2) -0.191580(13)
U1C U -0.14760(3) 0.29948(2) 0.308420(13)
U2A U -0.01202(3) -0.19351(2) 0.192903(14)
U2D U -0.01202(3) -0.19351(2) -0.192903(14)
U2E U 0.01202(3) 0.19351(2) -0.192903(14)
U2C U 0.51202(3) 0.30649(2) 0.307097(14)
U2F U 0.51202(3) 0.30649(2) -0.307097(14)
U2A_2 U 0.98798(3) -0.19351(2) 0.192903(14)
U2B U 0.48798(3) -0.30649(2) 0.307097(14)
U2D_2 U 0.98798(3) -0.19351(2) -0.192903(14)
U3C U 0.66852(3) 0.185432(19) 0.195674(13)
U3B U 0.33148(3) -0.185432(19) 0.195674(13)
U3G U 0.33148(3) -0.185432(19) -0.195674(13)
U3F U 0.66852(3) 0.185432(19) -0.195674(13)
U3C_2 U -0.33148(3) 0.185432(19) 0.195674(13)
U3F_2 U -0.33148(3) 0.185432(19) -0.195674(13)
U3E U 0.16852(3) 0.314568(19) -0.304326(13)
U3A U 0.83148(3) -0.314568(19) 0.304326(13)
U3D U 0.83148(3) -0.314568(19) -0.304326(13)
O1E O 0.1801(4) 0.1935(3) -0.2346(2)
O1A O 0.8199(4) -0.1935(3) 0.2346(2)
O1D O 0.8199(4) -0.1935(3) -0.2346(2)
O1A_2 O -0.1801(4) -0.1935(3) 0.2346(2)
O1D_2 O -0.1801(4) -0.1935(3) -0.2346(2)
O1C O 0.6801(4) 0.3065(3) 0.2654(2)
O1B O 0.3199(4) -0.3065(3) 0.2654(2)
O1G O 0.3199(4) -0.3065(3) -0.2654(2)
O2E O 0.0812(5) -0.1546(4) -0.1081(2)
O2A O -0.0812(5) 0.1546(4) 0.1081(2)
O2D O -0.0812(5) 0.1546(4) -0.1081(2)
O3A O 0.4302(5) -0.0772(3) 0.1426(2)
O3D O 0.4302(5) -0.0772(3) -0.1426(2)
O3E O 0.5698(5) 0.0772(3) -0.1426(2)
O3C O 0.0698(5) 0.4228(3) 0.3574(2)
O4E O 0.1081(5) 0.0866(4) -0.1391(3)
O4A O -0.1081(5) -0.0866(4) 0.1391(3)
O4D O -0.1081(5) -0.0866(4) -0.1391(3)
O5E O 0.2209(5) -0.0900(3) -0.1437(2)
O5A O -0.2209(5) 0.0900(3) 0.1437(2)
O5D O -0.2209(5) 0.0900(3) -0.1437(2)
O5B O 0.2791(5) 0.4100(3) 0.3563(2)
O5A_2 O 0.7791(5) 0.0900(3) 0.1437(2)
O6C O 0.0119(4) 0.2791(4) 0.2737(3)
O6E O 0.5119(4) 0.2209(4) -0.2263(3)
O6A O 0.4881(4) -0.2209(4) 0.2263(3)
O6D O 0.4881(4) -0.2209(4) -0.2263(3)
O6B O -0.0119(4) -0.2791(4) 0.2737(3)
O6G O -0.0119(4) -0.2791(4) -0.2737(3)
O6F O 0.0119(4) 0.2791(4) -0.2737(3)
O7E O 0.3428(5) 0.3136(4) -0.1694(3)
O7A O 0.6572(5) -0.3136(4) 0.1694(3)
O7D O 0.6572(5) -0.3136(4) -0.1694(3)
O8E O 0.3594(5) 0.0877(4) -0.2125(3)
O8A O 0.6406(5) -0.0877(4) 0.2125(3)
O8D O 0.6406(5) -0.0877(4) -0.2125(3)
O9A O -0.0483(5) -0.2882(4) 0.1524(3)
O9D O -0.0483(5) -0.2882(4) -0.1524(3)
O9E O 0.0483(5) 0.2882(4) -0.1524(3)
O10C O 0.6798(5) 0.1093(4) 0.2537(2)
O10B O 0.3202(5) -0.1093(4) 0.2537(2)
O10G O 0.3202(5) -0.1093(4) -0.2537(2)
O11A O 0.0263(5) -0.0983(4) 0.2336(3)
O11D O 0.0263(5) -0.0983(4) -0.2336(3)
O11E O -0.0263(5) 0.0983(4) -0.2336(3)
O12E O 0.2459(5) 0.1628(4) -0.1123(3)
O12A O -0.2459(5) -0.1628(4) 0.1123(3)
O12D O -0.2459(5) -0.1628(4) -0.1123(3)
O12A_2 O 0.7541(5) -0.1628(4) 0.1123(3)
O12D_2 O 0.7541(5) -0.1628(4) -0.1123(3)
O13A O 0.5468(5) -0.1712(4) 0.1084(3)
O13D O 0.5468(5) -0.1712(4) -0.1084(3)
O13E O 0.4532(5) 0.1712(4) -0.1084(3)
O14C O -0.1571(4) 0.2507(4) 0.2091(2)
O14E O 0.3429(4) 0.2493(4) -0.2909(2)
O14A O 0.6571(4) -0.2493(4) 0.2909(2)
O14D O 0.6571(4) -0.2493(4) -0.2909(2)
O14B O 0.1571(4) -0.2507(4) 0.2091(2)
O14G O 0.1571(4) -0.2507(4) -0.2091(2)
O14F O -0.1571(4) 0.2507(4) -0.2091(2)
O14C_2 O 0.8429(4) 0.2507(4) 0.2091(2)
O15C O 0.6615(5) 0.2612(4) 0.1371(3)
O15B O 0.3385(5) -0.2612(4) 0.1371(3)
O15G O 0.3385(5) -0.2612(4) -0.1371(3)
C1E C 0.1808(7) 0.0996(5) -0.1057(4)
C1A C -0.1808(7) -0.0996(5) 0.1057(4)
C1D C -0.1808(7) -0.0996(5) -0.1057(4)
C2A C -0.1968(9) -0.0925(7) 0.00000
C3A C 0.4919(7) -0.0998(5) 0.1056(4)
C3D C 0.4919(7) -0.0998(5) -0.1056(4)
C3E C 0.5081(7) 0.0998(5) -0.1056(4)
C4A C 0.5010(6) -0.0480(5) 0.0519(4)
C4D C 0.5010(6) -0.0480(5) -0.0519(4)
C4E C 0.4990(6) 0.0480(5) -0.0519(4)
C5E C 0.1843(6) 0.0463(5) -0.0514(3)
C5A C -0.1843(6) -0.0463(5) 0.0514(3)
C5D C -0.1843(6) -0.0463(5) -0.0514(3)
C6A C -0.1532(8) 0.0913(7) 0.00000
C7E C 0.1630(6) -0.0454(5) -0.0517(3)
C7A C -0.1630(6) 0.0454(5) 0.0517(3)
C7D C -0.1630(6) 0.0454(5) -0.0517(3)
C8E C 0.1527(7) -0.0975(5) -0.1053(4)
C8A C -0.1527(7) 0.0975(5) 0.1053(4)
C8D C -0.1527(7) 0.0975(5) -0.1053(4)
C9A C 0.5002(8) -0.0949(7) 0.00000
H1A H -0.213717 -0.155347 0.000
H2A H -0.13969 0.154806 0.000
H3A H 0.498989 -0.15948 0.000
O16 O 0.197(2) 0.3756(19) 0.0692(12)
O17 O 0.509(2) 0.3630(18) 0.0679(12)
O18 O 0.00000 0.50000 0.2072(7)
O19 O 0.1688(6) 0.0269(5) 0.2824(4)
N1 N 0.3479(8) 0.0986(6) 0.3582(4)
loop_
_geom_bond_atom_site_label_1
_geom_bond_atom_site_label_2
_geom_bond_site_symmetry_1
_geom_bond_site_symmetry_2
U1 O1 1_555 1_555
U2 O1 1_555 1_555
U3 O1 1_555 1_555
O2 C8 1_555 1_555
O3 C3 1_555 1_555
O4 U2 1_555 1_555
O5 C8 1_555 1_555
O6 U1 1_555 1_555
O7 U1 1_555 1_555
O8 U1 1_555 1_555
O9 U2 1_555 1_555
O10 U3 1_555 1_555
O11 U2 1_555 1_555
O12 U1 1_555 1_555
O13 U1 1_555 1_555
O14 U1 1_555 1_555
O15 U3 1_555 1_555
C1 O4 1_555 1_555
C2 C5 1_555 1_555
C3 O13 1_555 1_555
C4 C3 1_555 1_555
C5 C1 1_555 1_555
C6 C7 1_555 1_555
C7 C5 1_555 1_555
C8 C7 1_555 1_555
C9 C4 1_555 1_555
H1 C2 1_555 1_555
H2 C6 1_555 1_555
H3 C9 1_555 1_555
U1E O1E 1_555 1_555
U1A O1A 1_555 1_555
U1D O1D 1_555 1_555
U1A_2 O1A_2 1_555 1_555
U1D_2 O1D_2 1_555 1_555
U1C O6C 1_555 1_555
U2A O2 1_555 1_555
U2D O1D_2 1_555 1_555
U2E O1E 1_555 1_555
U2C O6 1_555 1_555
U2F O6E 1_555 1_555
U2A_2 O1A 1_555 1_555
U2B O1B 1_555 1_555
U2D_2 O1D 1_555 1_555
U3C O3 1_555 1_555
U3B O5 1_555 1_555
U3G O1G 1_555 1_555
U3F O3E 1_555 1_555
U3C_2 O5A 1_555 1_555
U3F_2 O5D 1_555 1_555
U3E O1E 1_555 1_555
U3A O1A 1_555 1_555
U3D O1D 1_555 1_555
O1A_2 U2A 1_555 1_555
O1C U2C 1_555 1_555
O1B U3B 1_555 1_555
O2E U2D 1_555 1_555
O2A U2 1_555 1_555
O2D U2E 1_555 1_555
O3A U3B 1_555 1_555
O3D U3G 1_555 1_555
O3E C3E 1_555 1_555
O3C U3 1_555 1_555
O4E U2E 1_555 1_555
O4A U2A 1_555 1_555
O4D U2D 1_555 1_555
O5E U3G 1_555 1_555
O5A C8A 1_555 1_555
O5D C8D 1_555 1_555
O5B U3 1_555 1_555
O5A_2 U3C 1_555 1_555
O6C U2 1_555 1_555
O6E U1E 1_555 1_555
O6A U1A 1_555 1_555
O6D U1D 1_555 1_555
O6B U2A 1_555 1_555
O6G U2D 1_555 1_555
O6F U2E 1_555 1_555
O7E U1E 1_555 1_555
O7A U1A 1_555 1_555
O7D U1D 1_555 1_555
O8E U1E 1_555 1_555
O8A U1A 1_555 1_555
O8D U1D 1_555 1_555
O9A U2A 1_555 1_555
O9D U2D 1_555 1_555
O9E U2E 1_555 1_555
O10C U3C 1_555 1_555
O10B U3B 1_555 1_555
O10G U3G 1_555 1_555
O11A U2A 1_555 1_555
O11D U2D 1_555 1_555
O11E U2E 1_555 1_555
O12E U1E 1_555 1_555
O12A U1A_2 1_555 1_555
O12D U1D_2 1_555 1_555
O12A_2 U1A 1_555 1_555
O12D_2 U1D 1_555 1_555
O13A U1A 1_555 1_555
O13D U1D 1_555 1_555
O13E U1E 1_555 1_555
O14C U2 1_555 1_555
O14E U1E 1_555 1_555
O14A U1A 1_555 1_555
O14D U1D 1_555 1_555
O14B U2A 1_555 1_555
O14G U2D 1_555 1_555
O14F U2E 1_555 1_555
O14C_2 U3C 1_555 1_555
O15C U3C 1_555 1_555
O15B U3B 1_555 1_555
O15G U3G 1_555 1_555
C1E O4E 1_555 1_555
C1A O4A 1_555 1_555
C1D O4D 1_555 1_555
C2A C5A 1_555 1_555
C3A O3A 1_555 1_555
C3D O3D 1_555 1_555
C3E O13E 1_555 1_555
C4A C4 1_555 1_555
C4D C3D 1_555 1_555
C4E C9 1_555 1_555
C5E C2 1_555 1_555
C5A C1A 1_555 1_555
C5D C1D 1_555 1_555
C6A C7A 1_555 1_555
C7E C6 1_555 1_555
C7A C5A 1_555 1_555
C7D C5D 1_555 1_555
C8E O2E 1_555 1_555
C8A O2A 1_555 1_555
C8D O2D 1_555 1_555
C9A C4A 1_555 1_555
H1A C2A 1_555 1_555
H2A C6A 1_555 1_555
H3A C9A 1_555 1_555
U3 O14 1_555 1_555
U3 O6C 1_555 1_555
O6 U3C 1_555 1_555
O12 C1 1_555 1_555
O14 U2C 1_555 1_555
U1C O14C 1_555 1_555
U2F O14E 1_555 1_555
U2B O6A 1_555 1_555
U2B O14A 1_555 1_555
U3C O1C 1_555 1_555
U3B O6A 1_555 1_555
U3B O14B 1_555 1_555
U3G O6D 1_555 1_555
U3G O14G 1_555 1_555
U3F O6E 1_555 1_555
U3C_2 O14C 1_555 1_555
U3F_2 O14F 1_555 1_555
U3E O6F 1_555 1_555
U3E O14E 1_555 1_555
U3A O14A 1_555 1_555
U3D O14D 1_555 1_555
O5E C8E 1_555 1_555
O12E C1E 1_555 1_555
O12A C1A 1_555 1_555
O12D C1D 1_555 1_555
O13A C3A 1_555 1_555
O13D C3D 1_555 1_555
C1E C5E 1_555 1_555
C2A C5D 1_555 1_555
C3A C4A 1_555 1_555
C3E C4E 1_555 1_555
C4D C4E 1_555 1_555
C4D C9A 1_555 1_555
C5E C7E 1_555 1_555
C6A C7D 1_555 1_555
C7E C8E 1_555 1_555
C7A C8A 1_555 1_555
C7D C8D 1_555 1_555

#END
