
#######################################################################
#
#                 Cambridge Crystallographic Data Centre
#                                CCDC 
#
#######################################################################
#
# If this CIF has been generated from an entry in the Cambridge 
# Structural Database, then it will include bibliographic, chemical, 
# crystal, experimental, refinement or atomic coordinate data resulting 
# from the CCDC's data processing and validation procedures.
#
#######################################################################

data_YARBUQ
_symmetry_cell_setting           orthorhombic
_symmetry_space_group_name_H-M   'I b a 2'
_symmetry_Int_Tables_number      45
_space_group_name_Hall           'I 2 -2c'
loop_
_symmetry_equiv_pos_site_id
_symmetry_equiv_pos_as_xyz
1 x,y,z
2 -x,-y,z
3 1/2+x,1/2-y,z
4 1/2-x,1/2+y,z
5 1/2+x,1/2+y,1/2+z
6 1/2-x,1/2-y,1/2+z
7 x,-y,1/2+z
8 -x,y,1/2+z
_cell_length_a                   13.9830(12)
_cell_length_b                   29.496(3)
_cell_length_c                   34.577(3)
_cell_angle_alpha                90
_cell_angle_beta                 90
_cell_angle_gamma                90
_cell_volume                     14261
loop_
_atom_site_label
_atom_site_type_symbol
_atom_site_fract_x
_atom_site_fract_y
_atom_site_fract_z
Ni1 Ni 0.63145(18) 0.20084(6) 0.44422(12)
Ni2 Ni 0.0015(2) 0.12682(7) 0.19480(13)
N1 N 0.5245(19) 0.2097(8) 0.4079(8)
N2 N 0.0532(17) 0.1776(7) 0.2326(7)
O1 O 0.6681(11) 0.2656(4) 0.4470(8)
O2 O 0.7701(16) 0.2850(5) 0.4108(6)
O3 O 0.8847(15) 0.6301(5) 0.4515(7)
O4 O 0.7872(13) 0.6565(5) 0.4068(6)
O5 O 0.8519(16) 0.3680(6) 0.4120(7)
H1 H 0.8529 0.3408 0.4068
O6 O 0.8989(14) 0.5432(5) 0.4594(6)
H2 H 0.9053 0.5701 0.4645
O7 O -0.1382(12) 0.1286(6) 0.2192(6)
O8 O -0.1272(14) 0.0883(7) 0.2715(7)
O9 O -0.8643(11) 0.1253(5) 0.1736(5)
O10 O -0.8713(11) 0.0780(5) 0.1236(5)
O11 O -0.2968(11) 0.1553(5) 0.1940(5)
H3 H -0.2386 0.1530 0.1964
O12 O -0.6991(10) 0.1552(5) 0.1988(6)
H4 H -0.7574 0.1521 0.1984
O13 O 0.7521(13) 0.1980(5) 0.4858(5)
H5 H 0.8040 0.1860 0.4781
H6 H 0.7452 0.2233 0.4743
O14 O 0.0501(12) 0.0746(5) 0.2347(5)
H7 H -0.0057 0.0731 0.2444
H8 H 0.0498 0.0627 0.2123
O15 O -0.0338(11) 0.0776(5) 0.1576(5)
H9 H -0.0504 0.0528 0.1683
H10 H 0.0212 0.0742 0.1476
C1 C 0.7244(17) 0.2947(6) 0.4400(11)
C2 C 0.831(2) 0.6269(8) 0.4287(10)
C3 C 0.6690(19) 0.3530(7) 0.4876(8)
H11 H 0.6246 0.3324 0.4972
C4 C 0.7250(17) 0.3412(6) 0.4555(8)
C5 C 0.7852(15) 0.3760(6) 0.4419(10)
C6 C 0.7853(17) 0.4205(7) 0.4555(8)
C7 C 0.7364(19) 0.4303(8) 0.4904(9)
C8 C 0.6788(19) 0.3951(7) 0.5053(9)
C9 C 0.625(2) 0.4031(8) 0.5387(9)
H12 H 0.5906 0.3796 0.5498
C10 C 0.624(2) 0.4461(8) 0.5555(9)
H13 H 0.5816 0.4529 0.5754
C11 C 0.687(2) 0.4785(9) 0.5415(9)
H14 H 0.6912 0.5060 0.5546
C12 C 0.7449(19) 0.4725(8) 0.5091(9)
H15 H 0.7865 0.4949 0.5003
C13 C 0.8533(15) 0.4555(6) 0.4398(10)
H16 H 0.8972 0.4407 0.4222
H17 H 0.8906 0.4676 0.4611
C14 C 0.7232(11) 0.5719(3) 0.3856(4)
H18 H 0.6955 0.5975 0.3746
C15 C 0.7891(11) 0.5765(3) 0.4154(4)
C16 C 0.8305(10) 0.5382(4) 0.4318(4)
C17 C 0.8059(9) 0.4953(3) 0.4185(4)
C18 C 0.7399(7) 0.4907(3) 0.3886(3)
C19 C 0.6986(8) 0.5290(3) 0.3722(3)
C20 C 0.6326(10) 0.5244(4) 0.3424(4)
H19 H 0.6049 0.5500 0.3314
C21 C 0.6080(10) 0.4815(5) 0.3290(4)
H20 H 0.5638 0.4784 0.3091
C22 C 0.6493(11) 0.4432(4) 0.3455(4)
H21 H 0.6329 0.4146 0.3365
C23 C 0.7153(10) 0.4478(3) 0.3753(4)
H22 H 0.7430 0.4222 0.3863
C24 C -0.1764(19) 0.1075(8) 0.2476(9)
C25 C -0.8229(19) 0.1037(9) 0.1456(8)
C26 C -0.3224(7) 0.0867(4) 0.2801(4)
H23 H -0.2834 0.0721 0.2980
C27 C -0.2821(7) 0.1084(4) 0.2484(4)
C28 C -0.3405(9) 0.1302(4) 0.2217(3)
C29 C -0.4391(9) 0.1303(4) 0.2267(3)
C30 C -0.4794(7) 0.1085(3) 0.2584(3)
C31 C -0.4210(7) 0.0867(3) 0.2851(3)
C32 C -0.4613(10) 0.0650(4) 0.3168(3)
H24 H -0.4223 0.0504 0.3347
C33 C -0.5599(10) 0.0650(5) 0.3219(4)
H25 H -0.5869 0.0504 0.3431
C34 C -0.6183(8) 0.0868(5) 0.2951(5)
H26 H -0.6843 0.0868 0.2985
C35 C -0.5780(7) 0.1085(4) 0.2634(4)
H27 H -0.6171 0.1231 0.2455
C36 C -0.4961(17) 0.1568(6) 0.1967(9)
H28 H -0.5401 0.1764 0.2104
H29 H -0.4518 0.1762 0.1828
C37 C -0.6726(8) 0.0829(4) 0.1110(4)
H30 H -0.7109 0.0679 0.0932
C38 C -0.7140(8) 0.1048(4) 0.1425(4)
C39 C -0.6568(9) 0.1272(4) 0.1692(4)
C40 C -0.5581(9) 0.1277(4) 0.1645(3)
C41 C -0.5166(7) 0.1059(3) 0.1331(3)
C42 C -0.5739(8) 0.0835(3) 0.1063(3)
C43 C -0.5324(11) 0.0617(4) 0.0749(3)
H31 H -0.5707 0.0467 0.0570
C44 C -0.4337(11) 0.0622(5) 0.0702(4)
H32 H -0.4060 0.0476 0.0492
C45 C -0.3764(8) 0.0846(5) 0.0969(5)
H33 H -0.3104 0.0850 0.0938
C46 C -0.4179(7) 0.1065(5) 0.1283(4)
H34 H -0.3796 0.1215 0.1462
C47 C 0.383(2) 0.2429(10) 0.6002(9)
H35 H 0.3482 0.2159 0.6081
H36 H 0.4295 0.2497 0.6201
N5 N 0.5376(13) 0.2162(5) 0.4947(5)
C48 C 0.5100(14) 0.1804(4) 0.5184(6)
H37 H 0.5258 0.1508 0.5116
C49 C 0.4588(13) 0.1889(5) 0.5521(5)
H38 H 0.4403 0.1649 0.5679
C50 C 0.4352(13) 0.2331(6) 0.5621(5)
C51 C 0.4629(14) 0.2689(4) 0.5385(6)
H39 H 0.4471 0.2985 0.5452
C52 C 0.5141(14) 0.2605(4) 0.5048(5)
H40 H 0.5326 0.2844 0.4890
C53 C 0.313(2) 0.2823(9) 0.5971(9)
H41 H 0.3382 0.3045 0.5790
H42 H 0.3070 0.2968 0.6221
C54 C 0.213(2) 0.2669(11) 0.5833(10)
H43 H 0.2209 0.2529 0.5581
H44 H 0.1745 0.2938 0.5796
N6 N 0.0540(10) 0.1753(5) 0.6566(5)
C55 C 0.0679(13) 0.1645(5) 0.6178(5)
H45 H 0.0430 0.1378 0.6078
C56 C 0.1190(14) 0.1938(6) 0.5941(4)
H46 H 0.1283 0.1866 0.5682
C57 C 0.1563(13) 0.2338(6) 0.6090(5)
C58 C 0.1424(13) 0.2446(5) 0.6477(5)
H47 H 0.1674 0.2714 0.6577
C59 C 0.0913(12) 0.2153(6) 0.6715(4)
H48 H 0.0820 0.2225 0.6974
C60 C 0.479(2) 0.2515(9) 0.4086(10)
H49 H 0.5048 0.2750 0.4231
C61 C 0.396(2) 0.2588(9) 0.3880(10)
H50 H 0.3677 0.2872 0.3890
C62 C 0.354(2) 0.2253(9) 0.3659(10)
C63 C 0.400(3) 0.1837(9) 0.3654(10)
H51 H 0.3738 0.1603 0.3508
C64 C 0.483(3) 0.1761(10) 0.3858(11)
H52 H 0.5117 0.1477 0.3845
C65 C 0.263(3) 0.2341(10) 0.3438(10)
H53 H 0.2133 0.2398 0.3629
H54 H 0.2458 0.2058 0.3311
C66 C 0.254(3) 0.2710(10) 0.3135(11)
H55 H 0.2809 0.2600 0.2894
H56 H 0.2918 0.2968 0.3217
C67 C 0.152(3) 0.2869(10) 0.3059(11)
H57 H 0.1144 0.2886 0.3296
H58 H 0.1500 0.3160 0.2929
C68 C 0.115(2) 0.2106(8) 0.2184(9)
H59 H 0.1349 0.2094 0.1928
C69 C 0.146(2) 0.2451(8) 0.2420(9)
H60 H 0.1873 0.2666 0.2317
C70 C 0.118(2) 0.2494(9) 0.2802(10)
C71 C 0.055(2) 0.2166(9) 0.2937(9)
H61 H 0.0227 0.2211 0.3168
C72 C 0.041(3) 0.1771(10) 0.2725(11)
H62 H 0.0242 0.1504 0.2850
Ni1C Ni 0.86855(18) 0.70084(6) 0.44422(12)
Ni2_2 Ni -0.9985(2) 0.12682(7) 0.19480(13)
Ni2G Ni -0.0015(2) 0.12682(7) 0.69480(13)
O3C O 0.6153(15) 0.1301(5) 0.4515(7)
O4C O 0.7128(13) 0.1565(5) 0.4068(6)
O9_2 O 0.1357(11) 0.1253(5) 0.1736(5)
N6G N -0.0540(10) 0.1753(5) 0.1566(5)
N3 N 0.2694(14) 0.0022(8) 0.6883(8)
O16 O 0.1168(11) 0.0008(8) 0.6955(9)
C73 C 0.196(2) -0.0050(8) 0.7113(8)
H63 H 0.2029 -0.0137 0.7370
C74 C 0.256(2) 0.0164(9) 0.6477(9)
H64 H 0.2872 -0.0050 0.6309
H65 H 0.2839 0.0458 0.6440
H66 H 0.1893 0.0175 0.6418
C75 C 0.3707(18) -0.0026(11) 0.6998(14)
H67 H 0.3742 -0.0169 0.7247
H68 H 0.3998 0.0268 0.7011
H69 H 0.4037 -0.0208 0.6811
N4 N 0.5759(18) 0.5897(8) 0.4737(10)
O17 O 0.5863(16) 0.6600(7) 0.4597(8)
C76 C 0.555(2) 0.6228(8) 0.4491(13)
H70 H 0.5211 0.6185 0.4264
C77 C 0.544(3) 0.5432(10) 0.4648(12)
H71 H 0.4884 0.5362 0.4799
H72 H 0.5944 0.5222 0.4711
H73 H 0.5292 0.5409 0.4378
C78 C 0.630(3) 0.5949(11) 0.5096(13)
H74 H 0.5860 0.5983 0.5309
H75 H 0.6696 0.6213 0.5080
H76 H 0.6688 0.5686 0.5137
loop_
_geom_bond_atom_site_label_1
_geom_bond_atom_site_label_2
_geom_bond_site_symmetry_1
_geom_bond_site_symmetry_2
Ni1 N1 1_555 1_555
Ni2 N2 1_555 1_555
N1 C60 1_555 1_555
N2 C68 1_555 1_555
N3 C73 1_555 1_555
N4 C76 1_555 1_555
O1 Ni1 1_555 1_555
O2 C1 1_555 1_555
O3 C2 1_555 1_555
O4 C2 1_555 1_555
O5 H1 1_555 1_555
O6 H2 1_555 1_555
O7 Ni2 1_555 1_555
O8 C24 1_555 1_555
O9 C25 1_555 1_555
O10 C25 1_555 1_555
O11 H3 1_555 1_555
O12 H4 1_555 1_555
O13 Ni1 1_555 1_555
H5 O13 1_555 1_555
H6 O13 1_555 1_555
O14 Ni2 1_555 1_555
H7 O14 1_555 1_555
H8 O14 1_555 1_555
O15 Ni2 1_555 1_555
H9 O15 1_555 1_555
H10 O15 1_555 1_555
O16 C73 1_555 1_555
O17 C76 1_555 1_555
C1 O1 1_555 1_555
C2 C15 1_555 1_555
C3 H11 1_555 1_555
C4 C1 1_555 1_555
C5 O5 1_555 1_555
C6 C5 1_555 1_555
C7 C6 1_555 1_555
C8 C3 1_555 1_555
C9 C8 1_555 1_555
H12 C9 1_555 1_555
C10 C9 1_555 1_555
H13 C10 1_555 1_555
C11 C10 1_555 1_555
H14 C11 1_555 1_555
C12 C7 1_555 1_555
H15 C12 1_555 1_555
C13 C6 1_555 1_555
H16 C13 1_555 1_555
H17 C13 1_555 1_555
C14 H18 1_555 1_555
C15 C14 1_555 1_555
C16 O6 1_555 1_555
C17 C13 1_555 1_555
C18 C17 1_555 1_555
C19 C14 1_555 1_555
C20 C19 1_555 1_555
H19 C20 1_555 1_555
C21 C20 1_555 1_555
H20 C21 1_555 1_555
C22 C21 1_555 1_555
H21 C22 1_555 1_555
C23 C18 1_555 1_555
H22 C23 1_555 1_555
C24 O7 1_555 1_555
C25 C38 1_555 1_555
C26 H23 1_555 1_555
C27 C24 1_555 1_555
C28 O11 1_555 1_555
C29 C28 1_555 1_555
C30 C29 1_555 1_555
C31 C26 1_555 1_555
C32 C31 1_555 1_555
H24 C32 1_555 1_555
C33 C32 1_555 1_555
H25 C33 1_555 1_555
C34 C33 1_555 1_555
H26 C34 1_555 1_555
C35 C30 1_555 1_555
H27 C35 1_555 1_555
C36 C29 1_555 1_555
H28 C36 1_555 1_555
H29 C36 1_555 1_555
C37 H30 1_555 1_555
C38 C37 1_555 1_555
C39 O12 1_555 1_555
C40 C36 1_555 1_555
C41 C40 1_555 1_555
C42 C37 1_555 1_555
C43 C42 1_555 1_555
H31 C43 1_555 1_555
C44 C43 1_555 1_555
H32 C44 1_555 1_555
C45 C44 1_555 1_555
H33 C45 1_555 1_555
C46 C41 1_555 1_555
H34 C46 1_555 1_555
C47 H35 1_555 1_555
H36 C47 1_555 1_555
N5 Ni1 1_555 1_555
C48 N5 1_555 1_555
H37 C48 1_555 1_555
C49 C48 1_555 1_555
H38 C49 1_555 1_555
C50 C47 1_555 1_555
C51 C50 1_555 1_555
H39 C51 1_555 1_555
C52 N5 1_555 1_555
H40 C52 1_555 1_555
C53 C47 1_555 1_555
H41 C53 1_555 1_555
H42 C53 1_555 1_555
C54 C53 1_555 1_555
H43 C54 1_555 1_555
H44 C54 1_555 1_555
N6 C55 1_555 1_555
C55 H45 1_555 1_555
C56 C55 1_555 1_555
H46 C56 1_555 1_555
C57 C54 1_555 1_555
C58 C57 1_555 1_555
H47 C58 1_555 1_555
C59 N6 1_555 1_555
H48 C59 1_555 1_555
C60 H49 1_555 1_555
C61 C60 1_555 1_555
H50 C61 1_555 1_555
C62 C61 1_555 1_555
C63 C62 1_555 1_555
H51 C63 1_555 1_555
C64 N1 1_555 1_555
H52 C64 1_555 1_555
C65 C62 1_555 1_555
H53 C65 1_555 1_555
H54 C65 1_555 1_555
C66 C65 1_555 1_555
H55 C66 1_555 1_555
H56 C66 1_555 1_555
C67 C66 1_555 1_555
H57 C67 1_555 1_555
H58 C67 1_555 1_555
C68 H59 1_555 1_555
C69 C68 1_555 1_555
H60 C69 1_555 1_555
C70 C67 1_555 1_555
C71 C70 1_555 1_555
H61 C71 1_555 1_555
C72 N2 1_555 1_555
H62 C72 1_555 1_555
C73 H63 1_555 1_555
C74 N3 1_555 1_555
H64 C74 1_555 1_555
H65 C74 1_555 1_555
H66 C74 1_555 1_555
C75 N3 1_555 1_555
H67 C75 1_555 1_555
H68 C75 1_555 1_555
H69 C75 1_555 1_555
C76 H70 1_555 1_555
C77 N4 1_555 1_555
H71 C77 1_555 1_555
H72 C77 1_555 1_555
H73 C77 1_555 1_555
C78 N4 1_555 1_555
H74 C78 1_555 1_555
H75 C78 1_555 1_555
H76 C78 1_555 1_555
Ni1C O3 1_555 1_555
Ni2_2 O9 1_555 1_555
Ni2G N6 1_555 1_555
O3C Ni1 1_555 1_555
O4C Ni1 1_555 1_555
O9_2 Ni2 1_555 1_555
N6G Ni2 1_555 1_555
O4 Ni1C 1_555 1_555
C3 C4 1_555 1_555
C4 C5 1_555 1_555
C7 C8 1_555 1_555
C11 C12 1_555 1_555
C15 C16 1_555 1_555
C16 C17 1_555 1_555
C18 C19 1_555 1_555
C22 C23 1_555 1_555
C26 C27 1_555 1_555
C27 C28 1_555 1_555
C30 C31 1_555 1_555
C34 C35 1_555 1_555
C38 C39 1_555 1_555
C39 C40 1_555 1_555
C41 C42 1_555 1_555
C45 C46 1_555 1_555
C49 C50 1_555 1_555
C51 C52 1_555 1_555
C56 C57 1_555 1_555
C58 C59 1_555 1_555
C63 C64 1_555 1_555
C69 C70 1_555 1_555
C71 C72 1_555 1_555

#END
