
#######################################################################
#
#                 Cambridge Crystallographic Data Centre
#                                CCDC 
#
#######################################################################
#
# If this CIF has been generated from an entry in the Cambridge 
# Structural Database, then it will include bibliographic, chemical, 
# crystal, experimental, refinement or atomic coordinate data resulting 
# from the CCDC's data processing and validation procedures.
#
#######################################################################

data_YARBEA
_symmetry_cell_setting           monoclinic
_symmetry_space_group_name_H-M   'P 21/c'
_symmetry_Int_Tables_number      14
_space_group_name_Hall           '-P 2ybc'
loop_
_symmetry_equiv_pos_site_id
_symmetry_equiv_pos_as_xyz
1 x,y,z
2 -x,1/2+y,1/2-z
3 -x,-y,-z
4 x,1/2-y,1/2+z
_cell_length_a                   13.6310(12)
_cell_length_b                   17.3491(16)
_cell_length_c                   20.2809(18)
_cell_angle_alpha                90
_cell_angle_beta                 119.844(2)
_cell_angle_gamma                90
_cell_volume                     4160.09
loop_
_atom_site_label
_atom_site_type_symbol
_atom_site_fract_x
_atom_site_fract_y
_atom_site_fract_z
Zn1 Zn 0.98611(5) -0.00162(4) 0.68102(4)
N1 N 0.9826(4) -0.0599(3) 0.5930(3)
N2 N 0.9609(4) -0.4206(3) 0.2456(3)
O1 O 0.8942(4) 0.0892(2) 0.6641(3)
O2 O 0.7516(4) 0.0175(3) 0.5827(3)
O3 O 0.5579(4) 0.0792(2) 0.4993(2)
H1 H 0.6076 0.0462 0.5152
O4 O 0.1387(3) 0.4584(2) 0.2251(3)
O5 O 0.1135(4) 0.4165(3) 0.3194(3)
O6 O 0.2361(4) 0.3091(3) 0.4060(3)
H2 H 0.1868 0.3424 0.3886
C1 C 0.7915(6) 0.0797(4) 0.6161(4)
C2 C 0.5298(5) 0.2077(3) 0.5228(3)
C3 C 0.5995(5) 0.1448(3) 0.5405(3)
C4 C 0.7143(5) 0.1477(3) 0.6003(3)
C5 C 0.7527(5) 0.2121(3) 0.6428(3)
H4 H 0.8277 0.2138 0.6815
C6 C 0.6836(5) 0.2768(4) 0.6307(4)
C7 C 0.5701(5) 0.2743(3) 0.5694(3)
C8 C 0.5013(6) 0.3394(4) 0.5593(4)
H5 H 0.4267 0.3394 0.5198
C9 C 0.5411(7) 0.4014(4) 0.6058(4)
H6 H 0.4939 0.4434 0.5977
C10 C 0.6520(7) 0.4029(4) 0.6657(5)
H7 H 0.6782 0.4458 0.6973
C11 C 0.7221(6) 0.3425(4) 0.6783(4)
H8 H 0.7960 0.3442 0.7185
C12 C 0.4101(5) 0.2032(4) 0.4550(3)
H9 H 0.3971 0.1511 0.4351
H10 H 0.3571 0.2127 0.4729
C13 C 0.1658(5) 0.4166(4) 0.2836(4)
C14 C 0.3836(5) 0.2587(3) 0.3902(3)
C15 C 0.2959(5) 0.3110(3) 0.3689(4)
C16 C 0.2644(5) 0.3637(3) 0.3075(3)
C17 C 0.3230(5) 0.3629(4) 0.2697(4)
H11 H 0.3041 0.3978 0.2303
C18 C 0.4119(5) 0.3105(4) 0.2889(4)
C19 C 0.4409(5) 0.2577(4) 0.3489(4)
C20 C 0.5295(6) 0.2049(4) 0.3640(4)
H12 H 0.5511 0.1693 0.4031
C21 C 0.5837(7) 0.2048(5) 0.3229(5)
H13 H 0.6405 0.1690 0.3339
C22 C 0.5548(7) 0.2580(5) 0.2645(5)
H14 H 0.5936 0.2585 0.2376
C23 C 0.4692(6) 0.3094(4) 0.2470(4)
H15 H 0.4486 0.3440 0.2072
C24 C 1.0767(6) -0.0692(4) 0.5891(4)
H16 H 1.1426 -0.0449 0.6251
C25 C 1.0802(6) -0.1129(4) 0.5343(4)
H17 H 1.1478 -0.1167 0.5336
C26 C 0.9879(6) -0.1509(4) 0.4810(4)
C27 C 0.8904(6) -0.1401(4) 0.4839(4)
H18 H 0.8236 -0.1635 0.4479
C28 C 0.8909(6) -0.0950(4) 0.5397(4)
H19 H 0.8234 -0.0888 0.5400
C29 C 0.9935(7) -0.2027(5) 0.4229(5)
H20 H 0.9888 -0.1703 0.3825
H21 H 1.0672 -0.2272 0.4471
C30 C 0.9077(7) -0.2632(4) 0.3882(4)
H22 H 0.8344 -0.2390 0.3579
H23 H 0.9055 -0.2922 0.4283
C31 C 0.9506(6) -0.3454(4) 0.2321(4)
H24 H 0.9534 -0.3273 0.1899
C32 C 0.9362(6) -0.2934(4) 0.2770(4)
H25 H 0.9327 -0.2411 0.2661
C33 C 0.9268(6) -0.3179(4) 0.3389(4)
C34 C 0.9391(7) -0.3944(4) 0.3530(4)
H26 H 0.9375 -0.4141 0.3951
C35 C 0.9541(7) -0.4440(4) 0.3047(4)
H27 H 0.9597 -0.4965 0.3149
Zn1C Zn -0.01389(5) 0.50162(4) 0.18102(4)
Zn1C_2 Zn 0.98611(5) -0.49838(4) 0.18102(4)
N2C N 0.9609(4) -0.0794(3) 0.7456(3)
O4C O 1.1387(3) 0.0416(2) 0.7251(3)
N3 N 0.5256(10) 0.9959(5) 0.6961(6)
O7 O 0.3426(9) 1.0018(6) 0.6458(7)
C36 C 0.4248(17) 1.0107(8) 0.6367(9)
H28 H 0.4165 1.0270 0.5905
C37 C 0.5380(13) 0.9768(8) 0.7695(8)
H29 H 0.5709 1.0197 0.8034
H30 H 0.5862 0.9326 0.7900
H31 H 0.4651 0.9655 0.7635
C38 C 0.6273(11) 0.9963(7) 0.6916(8)
H32 H 0.6084 0.9994 0.6393
H33 H 0.6690 0.9497 0.7136
H34 H 0.6727 1.0399 0.7189
N4 N 0.2460(14) 0.5543(11) 0.5233(8)
O8 O 0.158(3) 0.449(3) 0.5070(19)
C39 C 0.179(3) 0.513(4) 0.540(4)
H35 H 0.1510 0.5291 0.5716
C40 C 0.2822(17) 0.6316(12) 0.5473(11)
H36 H 0.2418 0.6660 0.5051
H37 H 0.3619 0.6358 0.5655
H38 H 0.2671 0.6451 0.5873
C41 C 0.2852(18) 0.5266(12) 0.4725(12)
H39 H 0.2715 0.4722 0.4645
H40 H 0.3648 0.5364 0.4949
H41 H 0.2452 0.5530 0.4247
O9 O 0.9727(13) 0.1501(10) 0.9207(9)
H3 H 1.0298 0.1268 0.9285
C42 C 0.9274(15) 0.1898(10) 0.8507(9)
H42 H 0.8658 0.2218 0.8443
H43 H 0.9005 0.1532 0.8098
H44 H 0.9851 0.2213 0.8504
H45? H 0.1502 0.4640 0.5222
H46? H 0.9411 0.1090 0.9026
O10? O 0.160(4) 0.552(3) 0.585(3)
loop_
_geom_bond_atom_site_label_1
_geom_bond_atom_site_label_2
_geom_bond_site_symmetry_1
_geom_bond_site_symmetry_2
Zn1 N1 1_555 1_555
N1 C24 1_555 1_555
N2 C31 1_555 1_555
N3 C36 1_555 1_555
N4 C39 1_555 1_555
O1 Zn1 1_555 1_555
O2 C1 1_555 1_555
O3 H1 1_555 1_555
O4 C13 1_555 1_555
O5 C13 1_555 1_555
O6 H2 1_555 1_555
O7 C36 1_555 1_555
O8 C39 1_555 1_555
O9 H3 1_555 1_555
C1 O1 1_555 1_555
C2 C3 1_555 1_555
C3 O3 1_555 1_555
C4 C1 1_555 1_555
C5 C4 1_555 1_555
H4 C5 1_555 1_555
C6 C5 1_555 1_555
C7 C2 1_555 1_555
C8 C7 1_555 1_555
H5 C8 1_555 1_555
C9 C8 1_555 1_555
H6 C9 1_555 1_555
C10 C9 1_555 1_555
H7 C10 1_555 1_555
C11 C6 1_555 1_555
H8 C11 1_555 1_555
C12 C2 1_555 1_555
H9 C12 1_555 1_555
H10 C12 1_555 1_555
C13 C16 1_555 1_555
C14 C12 1_555 1_555
C15 O6 1_555 1_555
C16 C15 1_555 1_555
C17 C16 1_555 1_555
H11 C17 1_555 1_555
C18 C17 1_555 1_555
C19 C14 1_555 1_555
C20 C19 1_555 1_555
H12 C20 1_555 1_555
C21 C20 1_555 1_555
H13 C21 1_555 1_555
C22 C21 1_555 1_555
H14 C22 1_555 1_555
C23 C18 1_555 1_555
H15 C23 1_555 1_555
C24 H16 1_555 1_555
C25 C24 1_555 1_555
H17 C25 1_555 1_555
C26 C25 1_555 1_555
C27 C26 1_555 1_555
H18 C27 1_555 1_555
C28 N1 1_555 1_555
H19 C28 1_555 1_555
C29 C26 1_555 1_555
H20 C29 1_555 1_555
H21 C29 1_555 1_555
C30 C29 1_555 1_555
H22 C30 1_555 1_555
H23 C30 1_555 1_555
C31 H24 1_555 1_555
C32 C31 1_555 1_555
H25 C32 1_555 1_555
C33 C30 1_555 1_555
C34 C33 1_555 1_555
H26 C34 1_555 1_555
C35 N2 1_555 1_555
H27 C35 1_555 1_555
C36 H28 1_555 1_555
C37 N3 1_555 1_555
H29 C37 1_555 1_555
H30 C37 1_555 1_555
H31 C37 1_555 1_555
C38 N3 1_555 1_555
H32 C38 1_555 1_555
H33 C38 1_555 1_555
H34 C38 1_555 1_555
C39 H35 1_555 1_555
C40 N4 1_555 1_555
H36 C40 1_555 1_555
H37 C40 1_555 1_555
H38 C40 1_555 1_555
C41 N4 1_555 1_555
H39 C41 1_555 1_555
H40 C41 1_555 1_555
H41 C41 1_555 1_555
C42 O9 1_555 1_555
H42 C42 1_555 1_555
H43 C42 1_555 1_555
H44 C42 1_555 1_555
Zn1C O4 1_555 1_555
Zn1C_2 N2 1_555 1_555
N2C Zn1 1_555 1_555
O4C Zn1 1_555 1_555
C3 C4 1_555 1_555
C6 C7 1_555 1_555
C10 C11 1_555 1_555
C14 C15 1_555 1_555
C18 C19 1_555 1_555
C22 C23 1_555 1_555
C27 C28 1_555 1_555
C32 C33 1_555 1_555
C34 C35 1_555 1_555

#END
