
#######################################################################
#
#                 Cambridge Crystallographic Data Centre
#                                CCDC 
#
#######################################################################
#
# If this CIF has been generated from an entry in the Cambridge 
# Structural Database, then it will include bibliographic, chemical, 
# crystal, experimental, refinement or atomic coordinate data resulting 
# from the CCDC's data processing and validation procedures.
#
#######################################################################

data_YARBOK
_symmetry_cell_setting           monoclinic
_symmetry_space_group_name_H-M   'C 2/c'
_symmetry_Int_Tables_number      15
_space_group_name_Hall           '-C 2yn'
loop_
_symmetry_equiv_pos_site_id
_symmetry_equiv_pos_as_xyz
1 x,y,z
2 -x,y,1/2-z
3 1/2+x,1/2+y,z
4 1/2-x,1/2+y,1/2-z
5 -x,-y,-z
6 x,-y,1/2+z
7 1/2-x,1/2-y,-z
8 1/2+x,1/2-y,1/2+z
_cell_length_a                   25.102(2)
_cell_length_b                   13.6985(12)
_cell_length_c                   20.929(2)
_cell_angle_alpha                90
_cell_angle_beta                 107.745(2)
_cell_angle_gamma                90
_cell_volume                     6854.24
loop_
_atom_site_label
_atom_site_type_symbol
_atom_site_fract_x
_atom_site_fract_y
_atom_site_fract_z
O8 O 0.5446(8) 0.4858(14) 0.6761(11)
H4 H 0.5235 0.5313 0.6550
H5 H 0.5780 0.5060 0.6846
O9 O 1.0000 0.615(2) 0.2500
H6 H 0.9796 0.5784 0.2655
H6A H 1.0204 0.5784 0.2345
O10 O 1.0000 0.9069(19) 0.2500
H7 H 1.0243 0.9437 0.2762
H7A H 0.9757 0.9437 0.2238
O11 O 0.6535(9) 0.5450(16) 0.6779(11)
H8 H 0.6349 0.5785 0.6443
H9 H 0.6532 0.4888 0.6606
Cd1 Cd 0.0000 0.70690(8) 0.7500
Cd2 Cd -0.48975(5) 0.50037(9) 1.03494(7)
N1 N 0.0712(3) 0.7139(6) 0.8504(4)
N2 N -0.4884(4) 0.3348(6) 1.0021(6)
O1 O -0.0448(3) 0.5748(5) 0.7842(3)
O2 O -0.0820(3) 0.7174(6) 0.7979(3)
O3 O -0.1638(2) 0.7241(5) 0.8438(3)
H1 H -0.1348 0.7418 0.8369
O4 O -0.4016(3) 0.5179(5) 1.0431(5)
O5 O -0.4327(3) 0.5319(5) 0.9329(5)
O6 O -0.3649(3) 0.5807(5) 0.8701(4)
H2 H -0.3939 0.5648 0.8775
O7 O 0.0000 0.8808(8) 0.7500
H3 H -0.0147 0.9170 0.7730
C1 C -0.0819(4) 0.6246(10) 0.7975(5)
C2 C -0.2168(4) 0.5798(8) 0.8435(5)
C3 C -0.1704(4) 0.6266(8) 0.8334(4)
C4 C -0.1310(4) 0.5739(8) 0.8124(4)
C5 C -0.1373(4) 0.4781(9) 0.8020(5)
H10 H -0.1104 0.4438 0.7890
C6 C -0.1835(4) 0.4274(8) 0.8099(5)
C7 C -0.2241(4) 0.4812(8) 0.8291(5)
C8 C -0.2742(4) 0.4288(8) 0.8303(5)
H11 H -0.3023 0.4620 0.8416
C9 C -0.2806(5) 0.3318(9) 0.8152(5)
H12 H -0.3136 0.3002 0.8145
C10 C -0.2369(5) 0.2784(9) 0.8006(5)
H13 H -0.2406 0.2116 0.7926
C11 C -0.1905(5) 0.3244(9) 0.7982(5)
H14 H -0.1622 0.2888 0.7888
C12 C -0.2594(4) 0.6408(7) 0.8644(5)
H15 H -0.2948 0.6372 0.8289
H16 H -0.2472 0.7084 0.8677
C13 C -0.2942(4) 0.5699(7) 1.0498(6)
H17 H -0.3020 0.5536 1.0891
C14 C -0.3351(4) 0.5648(7) 0.9910(6)
C15 C -0.3224(4) 0.5869(7) 0.9297(5)
C16 C -0.2697(4) 0.6127(7) 0.9304(5)
C17 C -0.2282(4) 0.6233(7) 0.9915(5)
C18 C -0.2395(4) 0.5997(7) 1.0531(5)
C19 C -0.1984(5) 0.6090(7) 1.1132(6)
H18 H -0.2069 0.5953 1.1525
C20 C -0.1461(5) 0.6374(8) 1.1176(6)
H19 H -0.1182 0.6376 1.1588
C21 C -0.1345(4) 0.6665(8) 1.0592(6)
H20 H -0.0994 0.6919 1.0625
C22 C -0.1731(4) 0.6587(7) 0.9976(5)
H21 H -0.1637 0.6763 0.9594
C23 C -0.3950(5) 0.5339(8) 0.9892(8)
C24 C 0.1009(4) 0.6329(8) 0.8742(5)
H22 H 0.0870 0.5730 0.8555
C25 C 0.1524(4) 0.6346(8) 0.9265(5)
H23 H 0.1722 0.5770 0.9403
C26 C 0.1728(4) 0.7198(8) 0.9560(5)
C27 C 0.1418(4) 0.8038(8) 0.9339(5)
H24 H 0.1542 0.8638 0.9537
C28 C 0.0916(4) 0.7972(8) 0.8816(5)
H25 H 0.0711 0.8542 0.8676
C29 C 0.2277(4) 0.7237(8) 1.0104(5)
H26 H 0.2402 0.6577 1.0236
H27 H 0.2225 0.7563 1.0492
C30 C -0.5302(5) 0.2831(8) 0.9653(6)
H28 H -0.5619 0.3149 0.9386
C31 C -0.5284(5) 0.1828(7) 0.9651(6)
H29 H -0.5584 0.1470 0.9382
C32 C -0.4823(5) 0.1369(7) 1.0046(6)
C33 C -0.4387(5) 0.1913(8) 1.0403(6)
H30 H -0.4061 0.1614 1.0664
C34 C -0.4429(5) 0.2919(9) 1.0378(7)
H31 H -0.4126 0.3295 1.0620
C35 C -0.4761(5) 0.0274(8) 1.0058(7)
H32 H -0.4509 0.0090 1.0493
H33 H -0.4581 0.0096 0.9725
Cd1F Cd 0.5000 0.79310(8) 1.2500
Cd2A Cd 0.48975(5) 0.50037(9) 0.46506(7)
Cd2D Cd -0.51025(5) 0.49963(9) 0.96506(7)
Cd2D_2 Cd -0.51025(5) -0.50037(9) 0.96506(7)
Cd2_2 Cd -0.48975(5) -0.49963(9) 1.03494(7)
Cd2E Cd 0.51025(5) 0.49963(9) 0.53494(7)
N1F N 0.4288(3) 0.7861(6) 1.1496(4)
N1A N -0.0712(3) 0.7139(6) 0.6496(4)
N2D N -0.5116(4) -0.3348(6) 0.9979(6)
N2D_2 N -0.5116(4) 0.6652(6) 0.9979(6)
N2A N 0.4884(4) 0.3348(6) 0.4979(6)
N2E N 0.5116(4) 0.6652(6) 0.5021(6)
O1A O 0.0448(3) 0.5748(5) 0.7158(3)
O2A O 0.0820(3) 0.7174(6) 0.7021(3)
O3A O 0.1638(2) 0.7241(5) 0.6562(3)
H1A H 0.1348 0.7418 0.6631
O4A O 0.4016(3) 0.5179(5) 0.4569(5)
O4D O -0.5984(3) 0.4821(5) 0.9569(5)
O4E O 0.5984(3) 0.4821(5) 0.5431(5)
O5A O 0.4327(3) 0.5319(5) 0.5671(5)
O5D O -0.5673(3) 0.4681(5) 1.0671(5)
O5E O 0.5673(3) 0.4681(5) 0.4329(5)
O6A O 0.3649(3) 0.5807(5) 0.6299(4)
H2A H 0.3939 0.5648 0.6225
H3A H 0.0147 0.9170 0.7270
C1A C 0.0819(4) 0.6246(10) 0.7025(5)
C2A C 0.2168(4) 0.5798(8) 0.6565(5)
C3A C 0.1704(4) 0.6266(8) 0.6666(4)
C4A C 0.1310(4) 0.5739(8) 0.6876(4)
C5A C 0.1373(4) 0.4781(9) 0.6980(5)
H10A H 0.1104 0.4438 0.7110
C6A C 0.1835(4) 0.4274(8) 0.6901(5)
C7A C 0.2241(4) 0.4812(8) 0.6709(5)
C8A C 0.2742(4) 0.4288(8) 0.6697(5)
H11A H 0.3023 0.4620 0.6584
C9A C 0.2806(5) 0.3318(9) 0.6848(5)
H12A H 0.3136 0.3002 0.6855
C10A C 0.2369(5) 0.2784(9) 0.6994(5)
H13A H 0.2406 0.2116 0.7074
C11A C 0.1905(5) 0.3244(9) 0.7018(5)
H14A H 0.1622 0.2888 0.7112
C12A C 0.2594(4) 0.6408(7) 0.6356(5)
H15A H 0.2948 0.6372 0.6711
H16A H 0.2472 0.7084 0.6323
C13A C 0.2942(4) 0.5699(7) 0.4502(6)
H17A H 0.3020 0.5536 0.4109
C14A C 0.3351(4) 0.5648(7) 0.5090(6)
C15A C 0.3224(4) 0.5869(7) 0.5703(5)
C16A C 0.2697(4) 0.6127(7) 0.5696(5)
C17A C 0.2282(4) 0.6233(7) 0.5085(5)
C18A C 0.2395(4) 0.5997(7) 0.4469(5)
C19A C 0.1984(5) 0.6090(7) 0.3868(6)
H18A H 0.2069 0.5953 0.3475
C20A C 0.1461(5) 0.6374(8) 0.3824(6)
H19A H 0.1182 0.6376 0.3412
C21A C 0.1345(4) 0.6665(8) 0.4408(6)
H20A H 0.0994 0.6919 0.4375
C22A C 0.1731(4) 0.6587(7) 0.5024(5)
H21A H 0.1637 0.6763 0.5406
C23A C 0.3950(5) 0.5339(8) 0.5108(8)
C24F C 0.3991(4) 0.8671(8) 1.1258(5)
H22F H 0.4130 0.9270 1.1445
C25F C 0.3476(4) 0.8654(8) 1.0735(5)
H23F H 0.3278 0.9230 1.0597
C26F C 0.3272(4) 0.7802(8) 1.0440(5)
C27F C 0.3582(4) 0.6962(8) 1.0661(5)
H24F H 0.3458 0.6362 1.0463
C28F C 0.4084(4) 0.7028(8) 1.1184(5)
H25F H 0.4289 0.6458 1.1324
C29F C 0.2723(4) 0.7763(8) 0.9896(5)
H26F H 0.2598 0.8423 0.9764
H27F H 0.2775 0.7437 0.9508
C30D C -0.4698(5) -0.2831(8) 1.0347(6)
H28D H -0.4381 -0.3149 1.0614
C31D C -0.4716(5) -0.1828(7) 1.0349(6)
H29D H -0.4416 -0.1470 1.0618
C32D C -0.5177(5) -0.1369(7) 0.9954(6)
C33D C -0.5613(5) -0.1913(8) 0.9597(6)
H30D H -0.5939 -0.1614 0.9336
C34D C -0.5571(5) -0.2919(9) 0.9622(7)
H31D H -0.5874 -0.3295 0.9380
C35D C -0.5239(5) -0.0274(8) 0.9942(7)
H32D H -0.5491 -0.0090 0.9507
H33D H -0.5419 -0.0096 1.0275
loop_
_geom_bond_atom_site_label_1
_geom_bond_atom_site_label_2
_geom_bond_site_symmetry_1
_geom_bond_site_symmetry_2
Cd1 N1 1_555 1_555
Cd2 N2 1_555 1_555
N1 C24 1_555 1_555
N2 C30 1_555 1_555
O1 Cd1 1_555 1_555
O2 Cd1 1_555 1_555
O3 H1 1_555 1_555
O4 Cd2 1_555 1_555
O5 C23 1_555 1_555
O6 H2 1_555 1_555
O7 Cd1 1_555 1_555
H3 O7 1_555 1_555
O8 H4 1_555 1_555
H5 O8 1_555 1_555
O9 H6 1_555 1_555
O10 H7 1_555 1_555
O11 H8 1_555 1_555
H9 O11 1_555 1_555
C1 O1 1_555 1_555
C2 C3 1_555 1_555
C3 O3 1_555 1_555
C4 C1 1_555 1_555
C5 C4 1_555 1_555
H10 C5 1_555 1_555
C6 C5 1_555 1_555
C7 C2 1_555 1_555
C8 C7 1_555 1_555
H11 C8 1_555 1_555
C9 C8 1_555 1_555
H12 C9 1_555 1_555
C10 C9 1_555 1_555
H13 C10 1_555 1_555
C11 C6 1_555 1_555
H14 C11 1_555 1_555
C12 C2 1_555 1_555
H15 C12 1_555 1_555
H16 C12 1_555 1_555
C13 H17 1_555 1_555
C14 C13 1_555 1_555
C15 O6 1_555 1_555
C16 C12 1_555 1_555
C17 C16 1_555 1_555
C18 C13 1_555 1_555
C19 C18 1_555 1_555
H18 C19 1_555 1_555
C20 C19 1_555 1_555
H19 C20 1_555 1_555
C21 C20 1_555 1_555
H20 C21 1_555 1_555
C22 C17 1_555 1_555
H21 C22 1_555 1_555
C23 O4 1_555 1_555
C24 H22 1_555 1_555
C25 C24 1_555 1_555
H23 C25 1_555 1_555
C26 C25 1_555 1_555
C27 C26 1_555 1_555
H24 C27 1_555 1_555
C28 N1 1_555 1_555
H25 C28 1_555 1_555
C29 C26 1_555 1_555
H26 C29 1_555 1_555
H27 C29 1_555 1_555
C30 H28 1_555 1_555
C31 C30 1_555 1_555
H29 C31 1_555 1_555
C32 C31 1_555 1_555
C33 C32 1_555 1_555
H30 C33 1_555 1_555
C34 N2 1_555 1_555
H31 C34 1_555 1_555
C35 C32 1_555 1_555
H32 C35 1_555 1_555
H33 C35 1_555 1_555
Cd1F N1F 1_555 1_555
Cd2A Cd2E 1_555 1_555
Cd2D Cd2 1_555 1_555
Cd2D_2 Cd2_2 1_555 1_555
Cd2_2 N2D 1_555 1_555
Cd2E N2A 1_555 1_555
N1F C24F 1_555 1_555
N1A Cd1 1_555 1_555
N2D Cd2D_2 1_555 1_555
N2D_2 Cd2 1_555 1_555
N2A Cd2A 1_555 1_555
N2E Cd2A 1_555 1_555
O1A Cd1 1_555 1_555
O2A Cd1 1_555 1_555
O3A H1A 1_555 1_555
O4A Cd2A 1_555 1_555
O4D Cd2 1_555 1_555
O4E Cd2A 1_555 1_555
O5A Cd2E 1_555 1_555
O5D Cd2 1_555 1_555
O5E Cd2A 1_555 1_555
O6A H2A 1_555 1_555
H3A O7 1_555 1_555
H6A O9 1_555 1_555
H7A O10 1_555 1_555
C1A O1A 1_555 1_555
C2A C3A 1_555 1_555
C3A O3A 1_555 1_555
C4A C1A 1_555 1_555
C5A C4A 1_555 1_555
H10A C5A 1_555 1_555
C6A C5A 1_555 1_555
C7A C2A 1_555 1_555
C8A C7A 1_555 1_555
H11A C8A 1_555 1_555
C9A C8A 1_555 1_555
H12A C9A 1_555 1_555
C10A C9A 1_555 1_555
H13A C10A 1_555 1_555
C11A C6A 1_555 1_555
H14A C11A 1_555 1_555
C12A C2A 1_555 1_555
H15A C12A 1_555 1_555
H16A C12A 1_555 1_555
C13A H17A 1_555 1_555
C14A C13A 1_555 1_555
C15A O6A 1_555 1_555
C16A C12A 1_555 1_555
C17A C16A 1_555 1_555
C18A C13A 1_555 1_555
C19A C18A 1_555 1_555
H18A C19A 1_555 1_555
C20A C19A 1_555 1_555
H19A C20A 1_555 1_555
C21A C20A 1_555 1_555
H20A C21A 1_555 1_555
C22A C17A 1_555 1_555
H21A C22A 1_555 1_555
C23A O4A 1_555 1_555
C24F H22F 1_555 1_555
C25F C24F 1_555 1_555
H23F C25F 1_555 1_555
C26F C25F 1_555 1_555
C27F C26F 1_555 1_555
H24F C27F 1_555 1_555
C28F N1F 1_555 1_555
H25F C28F 1_555 1_555
C29F C29 1_555 1_555
H26F C29F 1_555 1_555
H27F C29F 1_555 1_555
C30D N2D 1_555 1_555
H28D C30D 1_555 1_555
C31D C30D 1_555 1_555
H29D C31D 1_555 1_555
C32D C31D 1_555 1_555
C33D C32D 1_555 1_555
H30D C33D 1_555 1_555
C34D N2D 1_555 1_555
H31D C34D 1_555 1_555
C35D C35 1_555 1_555
H32D C35D 1_555 1_555
H33D C35D 1_555 1_555
N2 Cd2D 1_555 1_555
O2 C1 1_555 1_555
O4 Cd2D 1_555 1_555
O5 Cd2D 1_555 1_555
C3 C4 1_555 1_555
C6 C7 1_555 1_555
C10 C11 1_555 1_555
C14 C15 1_555 1_555
C14 C23 1_555 1_555
C15 C16 1_555 1_555
C17 C18 1_555 1_555
C21 C22 1_555 1_555
C27 C28 1_555 1_555
C33 C34 1_555 1_555
Cd2D N2D_2 1_555 1_555
Cd2D O4D 1_555 1_555
Cd2E N2E 1_555 1_555
Cd2E O4A 1_555 1_555
Cd2E O4E 1_555 1_555
O2A C1A 1_555 1_555
O5A C23A 1_555 1_555
C3A C4A 1_555 1_555
C6A C7A 1_555 1_555
C10A C11A 1_555 1_555
C14A C15A 1_555 1_555
C14A C23A 1_555 1_555
C15A C16A 1_555 1_555
C17A C18A 1_555 1_555
C21A C22A 1_555 1_555
C26F C29F 1_555 1_555
C27F C28F 1_555 1_555
C32D C35D 1_555 1_555
C33D C34D 1_555 1_555

#END
