
#######################################################################
#
#                 Cambridge Crystallographic Data Centre
#                                CCDC 
#
#######################################################################
#
# If this CIF has been generated from an entry in the Cambridge 
# Structural Database, then it will include bibliographic, chemical, 
# crystal, experimental, refinement or atomic coordinate data resulting 
# from the CCDC's data processing and validation procedures.
#
#######################################################################

data_YARCOL
_symmetry_cell_setting           monoclinic
_symmetry_space_group_name_H-M   'P 21/c'
_symmetry_Int_Tables_number      14
_space_group_name_Hall           '-P 2ybc'
loop_
_symmetry_equiv_pos_site_id
_symmetry_equiv_pos_as_xyz
1 x,y,z
2 -x,1/2+y,1/2-z
3 -x,-y,-z
4 x,1/2-y,1/2+z
_cell_length_a                   13.1420(11)
_cell_length_b                   9.5179(8)
_cell_length_c                   14.8006(12)
_cell_angle_alpha                90
_cell_angle_beta                 107.7260(10)
_cell_angle_gamma                90
_cell_volume                     1763.43
loop_
_atom_site_label
_atom_site_type_symbol
_atom_site_fract_x
_atom_site_fract_y
_atom_site_fract_z
C1 C 0.3053(2) -0.0633(3) -0.04171(19)
H1 H 0.2827 -0.1194 -0.0999
H2 H 0.3724 -0.1009 0.0004
H3 H 0.3159 0.0345 -0.0576
C2 C 0.22044(18) -0.0695(2) 0.00751(16)
C3 C 0.25446(19) -0.0698(2) 0.10765(16)
H4 H 0.3287 -0.0817 0.1387
C4 C 0.18784(17) -0.0540(2) 0.16525(15)
C5 C 0.23821(17) -0.0466(2) 0.27110(15)
C6 C 0.18189(18) 0.0228(2) 0.32348(16)
H5 H 0.1153 0.0657 0.2917
C7 C 0.22156(18) 0.0301(2) 0.42111(17)
C8 C 0.3188(2) -0.0319(3) 0.46956(17)
H6 H 0.3457 -0.0280 0.5368
C9 C 0.37549(19) -0.0997(3) 0.41697(17)
H7 H 0.4426 -0.1412 0.4488
C10 C 0.33589(18) -0.1078(2) 0.31886(16)
H8 H 0.3756 -0.1554 0.2842
C11 C 0.13914(17) 0.0640(2) 0.55441(14)
C12 C 0.15802(18) -0.0600(2) 0.60693(16)
H9 H 0.1915 -0.1386 0.5882
C13 C 0.12596(19) -0.0633(3) 0.68708(17)
H10 H 0.1386 -0.1456 0.7252
C14 C 0.07487(19) 0.0523(3) 0.71397(16)
H11 H 0.0556 0.0470 0.7707
C15 C 0.05205(17) 0.1735(2) 0.65968(15)
H12 H 0.0154 0.2501 0.6769
C16 C 0.08527(16) 0.1786(2) 0.57843(15)
C17 C 0.12037(18) 0.2367(2) 0.45156(15)
H13 H 0.1245 0.2884 0.3979
N1 N 0.07451(14) 0.2857(2) 0.51186(13)
N2 N 0.16185(14) 0.10518(19) 0.47221(12)
O1 O 0.12524(12) -0.06849(17) -0.04557(11)
O2 O 0.08729(12) -0.04104(18) 0.13682(10)
Zn1 Zn 0.0000 0.0000 0.0000
C1B C -0.3053(2) 0.0633(3) 0.04171(19)
H1B H -0.2827 0.1194 0.0999
H2B H -0.3724 0.1009 -0.0004
H3B H -0.3159 -0.0345 0.0576
C2B C -0.22044(18) 0.0695(2) -0.00751(16)
C3B C -0.25446(19) 0.0698(2) -0.10765(16)
H4B H -0.3287 0.0817 -0.1387
C4B C -0.18784(17) 0.0540(2) -0.16525(15)
C5B C -0.23821(17) 0.0466(2) -0.27110(15)
C6B C -0.18189(18) -0.0228(2) -0.32348(16)
H5B H -0.1153 -0.0657 -0.2917
C7B C -0.22156(18) -0.0301(2) -0.42111(17)
C8B C -0.3188(2) 0.0319(3) -0.46956(17)
H6B H -0.3457 0.0280 -0.5368
C9B C -0.37549(19) 0.0997(3) -0.41697(17)
H7B H -0.4426 0.1412 -0.4488
C10B C -0.33589(18) 0.1078(2) -0.31886(16)
H8B H -0.3756 0.1554 -0.2842
C11B C -0.13914(17) -0.0640(2) -0.55441(14)
C12B C -0.15802(18) 0.0600(2) -0.60693(16)
H9B H -0.1915 0.1386 -0.5882
C13B C -0.12596(19) 0.0633(3) -0.68708(17)
H10B H -0.1386 0.1456 -0.7252
C14B C -0.07487(19) -0.0523(3) -0.71397(16)
H11B H -0.0556 -0.0470 -0.7707
C15B C -0.05205(17) -0.1735(2) -0.65968(15)
H12B H -0.0154 -0.2501 -0.6769
C16B C -0.08527(16) -0.1786(2) -0.57843(15)
C17B C -0.12037(18) -0.2367(2) -0.45156(15)
H13B H -0.1245 -0.2884 -0.3979
N1B N -0.07451(14) -0.2857(2) -0.51186(13)
N1A N -0.07451(14) -0.2143(2) -0.01186(13)
N1C N 0.07451(14) 0.2143(2) 0.01186(13)
N2B N -0.16185(14) -0.10518(19) -0.47221(12)
O1B O -0.12524(12) 0.06849(17) 0.04557(11)
O2B O -0.08729(12) 0.04104(18) -0.13682(10)
Zn1A Zn 0.0000 -0.5000 -0.5000
Zn1A_2 Zn 0.0000 0.5000 0.5000
C18 C 0.3659(2) 0.3531(3) 0.25487(19)
H14 H 0.2888 0.3712 0.2476
Cl1 Cl 0.43167(6) 0.51500(7) 0.26339(6)
Cl2 Cl 0.37418(6) 0.25907(7) 0.15552(5)
Cl3 Cl 0.42043(7) 0.25343(8) 0.35847(5)
loop_
_geom_bond_atom_site_label_1
_geom_bond_atom_site_label_2
_geom_bond_site_symmetry_1
_geom_bond_site_symmetry_2
C1 H1 1_555 1_555
H2 C1 1_555 1_555
H3 C1 1_555 1_555
C2 C1 1_555 1_555
C3 C2 1_555 1_555
H4 C3 1_555 1_555
C4 C3 1_555 1_555
C5 C4 1_555 1_555
C6 C5 1_555 1_555
H5 C6 1_555 1_555
C7 C6 1_555 1_555
C8 C7 1_555 1_555
H6 C8 1_555 1_555
C9 C8 1_555 1_555
H7 C9 1_555 1_555
C10 C5 1_555 1_555
H8 C10 1_555 1_555
C11 C12 1_555 1_555
C12 H9 1_555 1_555
C13 C12 1_555 1_555
H10 C13 1_555 1_555
C14 C13 1_555 1_555
H11 C14 1_555 1_555
C15 C14 1_555 1_555
H12 C15 1_555 1_555
C16 C11 1_555 1_555
C17 H13 1_555 1_555
C18 H14 1_555 1_555
Cl1 C18 1_555 1_555
Cl2 C18 1_555 1_555
Cl3 C18 1_555 1_555
N1 C16 1_555 1_555
N2 C7 1_555 1_555
O1 C2 1_555 1_555
O2 C4 1_555 1_555
Zn1 O1 1_555 1_555
C1B H1B 1_555 1_555
H2B C1B 1_555 1_555
H3B C1B 1_555 1_555
C2B C1B 1_555 1_555
C3B C2B 1_555 1_555
H4B C3B 1_555 1_555
C4B C3B 1_555 1_555
C5B C4B 1_555 1_555
C6B C5B 1_555 1_555
H5B C6B 1_555 1_555
C7B C6B 1_555 1_555
C8B C7B 1_555 1_555
H6B C8B 1_555 1_555
C9B C8B 1_555 1_555
H7B C9B 1_555 1_555
C10B C5B 1_555 1_555
H8B C10B 1_555 1_555
C11B C12B 1_555 1_555
C12B H9B 1_555 1_555
C13B C12B 1_555 1_555
H10B C13B 1_555 1_555
C14B C13B 1_555 1_555
H11B C14B 1_555 1_555
C15B C14B 1_555 1_555
H12B C15B 1_555 1_555
C16B C11B 1_555 1_555
C17B H13B 1_555 1_555
N1B C16B 1_555 1_555
N1A Zn1 1_555 1_555
N1C Zn1 1_555 1_555
N2B C7B 1_555 1_555
O1B Zn1 1_555 1_555
O2B Zn1 1_555 1_555
Zn1A N1B 1_555 1_555
Zn1A_2 N1 1_555 1_555
C9 C10 1_555 1_555
C11 N2 1_555 1_555
C15 C16 1_555 1_555
C17 N1 1_555 1_555
C17 N2 1_555 1_555
O2 Zn1 1_555 1_555
C2B O1B 1_555 1_555
C4B O2B 1_555 1_555
C9B C10B 1_555 1_555
C11B N2B 1_555 1_555
C15B C16B 1_555 1_555
C17B N1B 1_555 1_555
C17B N2B 1_555 1_555

#END
