
#######################################################################
#
#                 Cambridge Crystallographic Data Centre
#                                CCDC 
#
#######################################################################
#
# If this CIF has been generated from an entry in the Cambridge 
# Structural Database, then it will include bibliographic, chemical, 
# crystal, experimental, refinement or atomic coordinate data resulting 
# from the CCDC's data processing and validation procedures.
#
#######################################################################

data_YARCAX
_symmetry_cell_setting           monoclinic
_symmetry_space_group_name_H-M   'P 21/c'
_symmetry_Int_Tables_number      14
_space_group_name_Hall           '-P 2ybc'
loop_
_symmetry_equiv_pos_site_id
_symmetry_equiv_pos_as_xyz
1 x,y,z
2 -x,1/2+y,1/2-z
3 -x,-y,-z
4 x,1/2-y,1/2+z
_cell_length_a                   20.500(3)
_cell_length_b                   8.0727(10)
_cell_length_c                   20.270(3)
_cell_angle_alpha                90
_cell_angle_beta                 90.534(2)
_cell_angle_gamma                90
_cell_volume                     3354.34
loop_
_atom_site_label
_atom_site_type_symbol
_atom_site_fract_x
_atom_site_fract_y
_atom_site_fract_z
C1 C 0.38654(19) 0.5438(6) 0.2741(2)
H1 H 0.4148 0.5726 0.3116
H2 H 0.3600 0.6400 0.2617
H3 H 0.4135 0.5106 0.2366
C2 C 0.34275(16) 0.4033(5) 0.29288(16)
C3 C 0.27959(17) 0.3983(5) 0.26524(16)
H4 H 0.2681 0.4814 0.2340
C4 C 0.23283(15) 0.2799(4) 0.28054(15)
C5 C 0.16566(16) 0.2907(4) 0.25133(15)
C6 C 0.11492(18) 0.2100(5) 0.28273(19)
H5 H 0.1239 0.1509 0.3223
C7 C 0.05205(18) 0.2126(6) 0.25859(18)
H6 H 0.0183 0.1577 0.2817
C8 C 0.03824(15) 0.2953(5) 0.20071(15)
C9 C 0.08834(18) 0.3758(6) 0.16754(18)
H7 H 0.0795 0.4312 0.1271
C10 C 0.15053(16) 0.3748(5) 0.19336(17)
H8 H 0.1840 0.4331 0.1711
C11 C -0.08128(17) 0.2483(6) 0.20715(18)
H9 H -0.0826 0.1920 0.2483
C12 C -0.13347(18) 0.2892(6) 0.16905(19)
H10 H -0.1782 0.2679 0.1776
C13 C -0.10734(17) 0.3691(5) 0.11478(19)
H11 H -0.1328 0.4122 0.0794
C14 C 0.07743(18) 0.0413(6) -0.0699(2)
H12 H 0.1107 0.0388 -0.0349
H13 H 0.0544 -0.0650 -0.0713
H14 H 0.0984 0.0610 -0.1125
C15 C 0.02983(18) 0.1776(5) -0.0565(2)
C16 C -0.03416(17) 0.1598(5) -0.0816(2)
H15 H -0.0430 0.0658 -0.1085
C17 C -0.08554(16) 0.2691(5) -0.07016(16)
C18 C -0.15175(16) 0.2310(5) -0.09684(16)
C19 C -0.16329(17) 0.1250(5) -0.15026(17)
H16 H -0.1273 0.0735 -0.1711
C20 C -0.22508(17) 0.0933(5) -0.17340(17)
H17 H -0.2314 0.0242 -0.2109
C21 C -0.27865(16) 0.1626(5) -0.14178(16)
C22 C -0.26872(16) 0.2723(5) -0.08996(16)
H18 H -0.3049 0.3236 -0.0693
C23 C -0.20611(17) 0.3066(5) -0.06854(17)
H19 H -0.1998 0.3835 -0.0336
C24 C -0.35957(18) 0.0128(5) -0.21037(19)
H20 H -0.3306 -0.0474 -0.2377
C25 C -0.4250(2) 0.0072(6) -0.2124(2)
H21 H -0.4513 -0.0575 -0.2413
C26 C -0.44648(19) 0.1137(6) -0.1642(2)
H22 H -0.4911 0.1343 -0.1547
C27 C 0.73503(17) 0.3950(5) 0.5685(2)
H23 H 0.7791 0.3592 0.5567
H24 H 0.7158 0.4574 0.5317
H25 H 0.7372 0.4657 0.6077
C28 C 0.69370(16) 0.2460(5) 0.58261(16)
C29 C 0.62813(15) 0.2484(5) 0.56128(16)
H26 H 0.6149 0.3340 0.5319
C30 C 0.58136(15) 0.1329(4) 0.58057(15)
C31 C 0.51129(15) 0.1637(4) 0.56405(15)
C32 C 0.49061(16) 0.2522(5) 0.50908(17)
H27 H 0.5220 0.3002 0.4807
C33 C 0.42471(16) 0.2717(5) 0.49480(17)
H28 H 0.4109 0.3312 0.4567
C34 C 0.37960(15) 0.2030(4) 0.53697(16)
C35 C 0.39916(17) 0.1150(5) 0.59210(18)
H29 H 0.3676 0.0688 0.6208
C36 C 0.46450(17) 0.0947(5) 0.60518(17)
H30 H 0.4780 0.0329 0.6428
C37 C 0.26472(17) 0.2600(5) 0.56834(18)
H31 H 0.2717 0.2870 0.6135
C38 C 0.20598(17) 0.2543(5) 0.53636(19)
H32 H 0.1642 0.2762 0.5543
C39 C 0.22018(15) 0.2099(5) 0.47220(18)
H33 H 0.1885 0.1957 0.4382
N1 N -0.02673(13) 0.3020(4) 0.17604(14)
N2 N -0.04267(14) 0.3785(4) 0.11786(14)
N3 N -0.34280(14) 0.1196(4) -0.16241(14)
N4 N -0.39646(15) 0.1838(5) -0.13267(16)
N5 N 0.31139(13) 0.2201(4) 0.52420(13)
N6 N 0.28441(13) 0.1895(4) 0.46418(14)
O1 O 0.36616(11) 0.2989(3) 0.33308(12)
O2 O 0.24187(11) 0.1568(3) 0.31887(12)
O3 O 0.05027(13) 0.2971(4) -0.02331(19)
O4 O -0.08074(12) 0.4012(3) -0.03627(13)
O5 O 0.72035(11) 0.1298(3) 0.61457(13)
O6 O 0.59291(11) 0.0026(3) 0.61393(12)
Zn1 Zn 0.320177(18) 0.10023(5) 0.37457(2)
Zn2 Zn -0.00631(4) 0.48089(13) 0.02039(4)
C1B C -0.38654(19) 0.4562(6) -0.2741(2)
H1B H -0.4148 0.4274 -0.3116
H2B H -0.3600 0.3600 -0.2617
H3B H -0.4135 0.4894 -0.2366
C2B C -0.34275(16) 0.5967(5) -0.29288(16)
C3B C -0.27959(17) 0.6017(5) -0.26524(16)
H4B H -0.2681 0.5186 -0.2340
C4B C -0.23283(15) 0.7201(4) -0.28054(15)
C5B C -0.16566(16) 0.7093(4) -0.25133(15)
C6B C -0.11492(18) 0.7900(5) -0.28273(19)
H5B H -0.1239 0.8491 -0.3223
C7B C -0.05205(18) 0.7874(6) -0.25859(18)
H6B H -0.0183 0.8423 -0.2817
C8B C -0.03824(15) 0.7047(5) -0.20071(15)
C9B C -0.08834(18) 0.6242(6) -0.16754(18)
H7B H -0.0795 0.5688 -0.1271
C10B C -0.15053(16) 0.6252(5) -0.19336(17)
H8B H -0.1840 0.5669 -0.1711
C11B C 0.08128(17) 0.7517(6) -0.20715(18)
H9B H 0.0826 0.8080 -0.2483
C12B C 0.13347(18) 0.7108(6) -0.16905(19)
H10B H 0.1782 0.7321 -0.1776
C13B C 0.10734(17) 0.6309(5) -0.11478(19)
H11B H 0.1328 0.5878 -0.0794
C14B C -0.07743(18) 0.9587(6) 0.0699(2)
H12B H -0.1107 0.9612 0.0349
H13B H -0.0544 1.0650 0.0713
H14B H -0.0984 0.9390 0.1125
C15B C -0.02983(18) 0.8224(5) 0.0565(2)
C16B C 0.03416(17) 0.8402(5) 0.0816(2)
H15B H 0.0430 0.9342 0.1085
C17B C 0.08554(16) 0.7309(5) 0.07016(16)
C18B C 0.15175(16) 0.7690(5) 0.09684(16)
C19B C 0.16329(17) 0.8750(5) 0.15026(17)
H16B H 0.1273 0.9265 0.1711
C20B C 0.22508(17) 0.9067(5) 0.17340(17)
H17B H 0.2314 0.9758 0.2109
C21B C 0.27865(16) 0.8374(5) 0.14178(16)
C22B C 0.26872(16) 0.7277(5) 0.08996(16)
H18B H 0.3049 0.6764 0.0693
C23B C 0.20611(17) 0.6934(5) 0.06854(17)
H19B H 0.1998 0.6165 0.0336
C24B C 0.35957(18) 0.9872(5) 0.21037(19)
H20B H 0.3306 1.0474 0.2377
C25B C 0.4250(2) 0.9928(6) 0.2124(2)
H21B H 0.4513 1.0575 0.2413
C26B C 0.44648(19) 0.8863(6) 0.1642(2)
H22B H 0.4911 0.8657 0.1547
C27B C -0.73503(17) 0.6050(5) -0.5685(2)
H23B H -0.7791 0.6408 -0.5567
H24B H -0.7158 0.5426 -0.5317
H25B H -0.7372 0.5343 -0.6077
C28B C -0.69370(16) 0.7540(5) -0.58261(16)
C29B C -0.62813(15) 0.7516(5) -0.56128(16)
H26B H -0.6149 0.6660 -0.5319
C30B C -0.58136(15) 0.8671(4) -0.58057(15)
C31B C -0.51129(15) 0.8363(4) -0.56405(15)
C32B C -0.49061(16) 0.7478(5) -0.50908(17)
H27B H -0.5220 0.6998 -0.4807
C33B C -0.42471(16) 0.7283(5) -0.49480(17)
H28B H -0.4109 0.6688 -0.4567
C34B C -0.37960(15) 0.7970(4) -0.53697(16)
C35B C -0.39916(17) 0.8850(5) -0.59210(18)
H29B H -0.3676 0.9312 -0.6208
C36B C -0.46450(17) 0.9053(5) -0.60518(17)
H30B H -0.4780 0.9671 -0.6428
C37B C -0.26472(17) 0.7400(5) -0.56834(18)
H31B H -0.2717 0.7130 -0.6135
C38B C -0.20598(17) 0.7457(5) -0.53636(19)
H32B H -0.1642 0.7238 -0.5543
C39B C -0.22018(15) 0.7901(5) -0.47220(18)
H33B H -0.1885 0.8043 -0.4382
N1B N 0.02673(13) 0.6980(4) -0.17604(14)
N2B N 0.04267(14) 0.6215(4) -0.11786(14)
N3B N 0.34280(14) 0.8804(4) 0.16241(14)
N4B N 0.39646(15) 0.8162(5) 0.13267(16)
N5B N -0.31139(13) 0.7799(4) -0.52420(13)
N6B N -0.28441(13) 0.8105(4) -0.46418(14)
O1B O -0.36616(11) 0.7011(3) -0.33308(12)
O2B O -0.24187(11) 0.8432(3) -0.31887(12)
O3B O -0.05027(13) 0.7029(4) 0.02331(19)
O4B O 0.08074(12) 0.5988(3) 0.03627(13)
O5B O 0.27965(11) -0.1298(3) 0.38543(13)
O5_2 O -0.27965(11) 1.1298(3) -0.38543(13)
O5B_2 O -0.72035(11) 0.8702(3) -0.61457(13)
O6B O 0.40709(11) -0.0026(3) 0.38607(12)
O6_2 O -0.40709(11) 1.0026(3) -0.38607(12)
O6B_2 O -0.59291(11) 0.9974(3) -0.61393(12)
Zn1B Zn 0.679823(18) -0.10023(5) 0.62543(2)
Zn1B_2 Zn -0.320177(18) 0.89977(5) -0.37457(2)
Zn1_2 Zn -0.679823(18) 1.10023(5) -0.62543(2)
Zn2B Zn 0.00631(4) 0.51911(13) -0.02039(4)
loop_
_geom_bond_atom_site_label_1
_geom_bond_atom_site_label_2
_geom_bond_site_symmetry_1
_geom_bond_site_symmetry_2
C1 H1 1_555 1_555
H2 C1 1_555 1_555
H3 C1 1_555 1_555
C2 C1 1_555 1_555
C3 C2 1_555 1_555
H4 C3 1_555 1_555
C4 C3 1_555 1_555
C5 C4 1_555 1_555
C6 C5 1_555 1_555
H5 C6 1_555 1_555
C7 C6 1_555 1_555
H6 C7 1_555 1_555
C8 C7 1_555 1_555
C9 C8 1_555 1_555
H7 C9 1_555 1_555
C10 C5 1_555 1_555
H8 C10 1_555 1_555
C11 H9 1_555 1_555
C12 C11 1_555 1_555
H10 C12 1_555 1_555
C13 C12 1_555 1_555
H11 C13 1_555 1_555
C14 H12 1_555 1_555
H13 C14 1_555 1_555
H14 C14 1_555 1_555
C15 C14 1_555 1_555
C16 C15 1_555 1_555
H15 C16 1_555 1_555
C17 C16 1_555 1_555
C18 C17 1_555 1_555
C19 C18 1_555 1_555
H16 C19 1_555 1_555
C20 C19 1_555 1_555
H17 C20 1_555 1_555
C21 C20 1_555 1_555
C22 C21 1_555 1_555
H18 C22 1_555 1_555
C23 C18 1_555 1_555
H19 C23 1_555 1_555
C24 H20 1_555 1_555
C25 C24 1_555 1_555
H21 C25 1_555 1_555
C26 C25 1_555 1_555
H22 C26 1_555 1_555
C27 H23 1_555 1_555
H24 C27 1_555 1_555
H25 C27 1_555 1_555
C28 C27 1_555 1_555
C29 C28 1_555 1_555
H26 C29 1_555 1_555
C30 C29 1_555 1_555
C31 C30 1_555 1_555
C32 C31 1_555 1_555
H27 C32 1_555 1_555
C33 C32 1_555 1_555
H28 C33 1_555 1_555
C34 C33 1_555 1_555
C35 C34 1_555 1_555
H29 C35 1_555 1_555
C36 C31 1_555 1_555
H30 C36 1_555 1_555
C37 H31 1_555 1_555
C38 C37 1_555 1_555
H32 C38 1_555 1_555
C39 C38 1_555 1_555
H33 C39 1_555 1_555
N1 C8 1_555 1_555
N2 C13 1_555 1_555
N3 C21 1_555 1_555
N4 C26 1_555 1_555
N5 C34 1_555 1_555
N6 C39 1_555 1_555
O1 C2 1_555 1_555
O2 C4 1_555 1_555
O3 C15 1_555 1_555
O4 C17 1_555 1_555
O5 C28 1_555 1_555
O6 C30 1_555 1_555
Zn1 N6 1_555 1_555
Zn2 N2 1_555 1_555
C1B H1B 1_555 1_555
H2B C1B 1_555 1_555
H3B C1B 1_555 1_555
C2B C1B 1_555 1_555
C3B C2B 1_555 1_555
H4B C3B 1_555 1_555
C4B C3B 1_555 1_555
C5B C4B 1_555 1_555
C6B C5B 1_555 1_555
H5B C6B 1_555 1_555
C7B C6B 1_555 1_555
H6B C7B 1_555 1_555
C8B C7B 1_555 1_555
C9B C8B 1_555 1_555
H7B C9B 1_555 1_555
C10B C5B 1_555 1_555
H8B C10B 1_555 1_555
C11B H9B 1_555 1_555
C12B C11B 1_555 1_555
H10B C12B 1_555 1_555
C13B C12B 1_555 1_555
H11B C13B 1_555 1_555
C14B H12B 1_555 1_555
H13B C14B 1_555 1_555
H14B C14B 1_555 1_555
C15B C14B 1_555 1_555
C16B C15B 1_555 1_555
H15B C16B 1_555 1_555
C17B C16B 1_555 1_555
C18B C17B 1_555 1_555
C19B C18B 1_555 1_555
H16B C19B 1_555 1_555
C20B C19B 1_555 1_555
H17B C20B 1_555 1_555
C21B C20B 1_555 1_555
C22B C21B 1_555 1_555
H18B C22B 1_555 1_555
C23B C18B 1_555 1_555
H19B C23B 1_555 1_555
C24B H20B 1_555 1_555
C25B C24B 1_555 1_555
H21B C25B 1_555 1_555
C26B C25B 1_555 1_555
H22B C26B 1_555 1_555
C27B H23B 1_555 1_555
H24B C27B 1_555 1_555
H25B C27B 1_555 1_555
C28B C27B 1_555 1_555
C29B C28B 1_555 1_555
H26B C29B 1_555 1_555
C30B C29B 1_555 1_555
C31B C30B 1_555 1_555
C32B C31B 1_555 1_555
H27B C32B 1_555 1_555
C33B C32B 1_555 1_555
H28B C33B 1_555 1_555
C34B C33B 1_555 1_555
C35B C34B 1_555 1_555
H29B C35B 1_555 1_555
C36B C31B 1_555 1_555
H30B C36B 1_555 1_555
C37B H31B 1_555 1_555
C38B C37B 1_555 1_555
H32B C38B 1_555 1_555
C39B C38B 1_555 1_555
H33B C39B 1_555 1_555
N1B C8B 1_555 1_555
N2B C13B 1_555 1_555
N3B C21B 1_555 1_555
N4B C26B 1_555 1_555
N5B C34B 1_555 1_555
N6B C39B 1_555 1_555
O1B C2B 1_555 1_555
O2B C4B 1_555 1_555
O3B Zn2 1_555 1_555
O4B Zn2 1_555 1_555
O5B Zn1 1_555 1_555
O5_2 Zn1B_2 1_555 1_555
O5B_2 C28B 1_555 1_555
O6B Zn1 1_555 1_555
O6_2 Zn1B_2 1_555 1_555
O6B_2 C30B 1_555 1_555
Zn1B O5 1_555 1_555
Zn1B_2 N6B 1_555 1_555
Zn1_2 O5B_2 1_555 1_555
Zn2B O3 1_555 1_555
C9 C10 1_555 1_555
C11 N1 1_555 1_555
C22 C23 1_555 1_555
C24 N3 1_555 1_555
C35 C36 1_555 1_555
C37 N5 1_555 1_555
N1 N2 1_555 1_555
N3 N4 1_555 1_555
N5 N6 1_555 1_555
O1 Zn1 1_555 1_555
O2 Zn1 1_555 1_555
O3 Zn2 1_555 1_555
O4 Zn2 1_555 1_555
O4 Zn2B 1_555 1_555
O6 Zn1B 1_555 1_555
Zn2 Zn2B 1_555 1_555
C9B C10B 1_555 1_555
C11B N1B 1_555 1_555
C15B O3B 1_555 1_555
C17B O4B 1_555 1_555
C22B C23B 1_555 1_555
C24B N3B 1_555 1_555
C35B C36B 1_555 1_555
C37B N5B 1_555 1_555
N1B N2B 1_555 1_555
N2B Zn2B 1_555 1_555
N3B N4B 1_555 1_555
N5B N6B 1_555 1_555
O1B Zn1B_2 1_555 1_555
O2B Zn1B_2 1_555 1_555
O3B Zn2B 1_555 1_555
O4B Zn2B 1_555 1_555
O6B_2 Zn1_2 1_555 1_555

#END
