
#######################################################################
#
#                 Cambridge Crystallographic Data Centre
#                                CCDC 
#
#######################################################################
#
# If this CIF has been generated from an entry in the Cambridge 
# Structural Database, then it will include bibliographic, chemical, 
# crystal, experimental, refinement or atomic coordinate data resulting 
# from the CCDC's data processing and validation procedures.
#
#######################################################################

data_YARDEC
_symmetry_cell_setting           monoclinic
_symmetry_space_group_name_H-M   'C 2/c'
_symmetry_Int_Tables_number      15
_space_group_name_Hall           '-C 2yn'
loop_
_symmetry_equiv_pos_site_id
_symmetry_equiv_pos_as_xyz
1 x,y,z
2 -x,y,1/2-z
3 1/2+x,1/2+y,z
4 1/2-x,1/2+y,1/2-z
5 -x,-y,-z
6 x,-y,1/2+z
7 1/2-x,1/2-y,-z
8 1/2+x,1/2-y,1/2+z
_cell_length_a                   20.5754(14)
_cell_length_b                   11.5480(8)
_cell_length_c                   14.0617(10)
_cell_angle_alpha                90
_cell_angle_beta                 116.5300(10)
_cell_angle_gamma                90
_cell_volume                     2989.31
loop_
_atom_site_label
_atom_site_type_symbol
_atom_site_fract_x
_atom_site_fract_y
_atom_site_fract_z
C1 C -0.03087(13) -0.13362(17) 0.05625(18)
H1 H -0.0807 -0.1357 0.0346
C2 C 0.08380(14) -0.0976(2) 0.14448(19)
H2 H 0.1279 -0.0693 0.1958
C3 C 0.07538(14) -0.1636(2) 0.0605(2)
H3 H 0.1118 -0.1892 0.0436
C4 C -0.03152(15) -0.26562(19) -0.08520(19)
H4 H -0.0118 -0.2526 -0.1354
H5 H -0.0835 -0.2521 -0.1215
C5 C -0.01665(14) -0.38931(19) -0.04475(18)
C6 C -0.05997(14) -0.4411(2) -0.0045(2)
H6 H -0.1003 -0.4022 -0.0070
C7 C 0.04312(15) -0.4489(2) -0.0396(2)
H7 H 0.0726 -0.4147 -0.0662
C8 C -0.13921(12) 0.0822(2) 0.12101(18)
C9 C -0.19723(12) 0.16877(18) 0.05982(17)
C10 C -0.18895(13) 0.28535(19) 0.08923(18)
H8 H -0.1480 0.3093 0.1493
C11 C -0.25871(12) 0.13452(19) -0.02966(18)
H9 H -0.2648 0.0570 -0.0498
N1 N 0.01704(10) -0.07846(14) 0.14251(15)
N2 N 0.00248(11) -0.18541(16) 0.00529(15)
O1 O -0.07835(8) 0.12580(13) 0.18611(12)
O2 O -0.15164(9) -0.02272(13) 0.10536(13)
Zn1 Zn 0.0000 0.01175(3) 0.2500
C1D C 0.03087(13) -0.86638(17) -0.05625(18)
H1D H 0.0807 -0.8643 -0.0346
C2D C -0.08380(14) -0.9024(2) -0.14448(19)
H2D H -0.1279 -0.9307 -0.1958
C3D C -0.07538(14) -0.8364(2) -0.0605(2)
H3D H -0.1118 -0.8108 -0.0436
C4D C 0.03152(15) -0.73438(19) 0.08520(19)
H4D H 0.0118 -0.7474 0.1354
H5D H 0.0835 -0.7479 0.1215
C5D C 0.01665(14) -0.61069(19) 0.04475(18)
C6D C 0.05997(14) -0.5589(2) 0.0045(2)
H6D H 0.1003 -0.5978 0.0070
C7D C -0.04312(15) -0.5511(2) 0.0396(2)
H7D H -0.0726 -0.5853 0.0662
C8F C -0.36079(12) 0.4178(2) -0.12101(18)
C9F C -0.30277(12) 0.33123(18) -0.05982(17)
C10F C -0.31105(13) 0.21465(19) -0.08923(18)
H8F H -0.3520 0.1907 -0.1493
C11F C -0.24129(12) 0.36548(19) 0.02966(18)
H9F H -0.2352 0.4430 0.0498
N1D N -0.01704(10) -0.92154(14) -0.14251(15)
N1A N -0.01704(10) -0.07846(14) 0.35749(15)
N2D N -0.00248(11) -0.81459(16) -0.00529(15)
O1F O -0.42165(8) 0.37420(13) -0.18611(12)
O1A O 0.07835(8) 0.12580(13) 0.31389(12)
O2F O -0.34836(9) 0.52272(13) -0.10536(13)
Zn1D Zn 0.0000 -1.01175(3) -0.2500
Zn1F Zn -0.5000 0.48825(3) -0.2500
C12 C -0.23620(19) -0.2702(3) 0.1329(3)
H10 H -0.2145 -0.2244 0.1007
C13 C -0.12068(16) -0.3695(3) 0.2200(3)
H11 H -0.1077 -0.3135 0.1809
H12 H -0.1151 -0.4460 0.1981
H13 H -0.0896 -0.3605 0.2946
C14 C -0.2245(2) -0.4239(3) 0.2550(3)
H14 H -0.2025 -0.4030 0.3289
H15 H -0.2141 -0.5036 0.2480
H16 H -0.2762 -0.4133 0.2254
N3 N -0.19585(13) -0.3519(2) 0.19921(18)
O3 O -0.29982(13) -0.2503(2) 0.1107(2)
loop_
_geom_bond_atom_site_label_1
_geom_bond_atom_site_label_2
_geom_bond_site_symmetry_1
_geom_bond_site_symmetry_2
C1 H1 1_555 1_555
C2 H2 1_555 1_555
C3 C2 1_555 1_555
H3 C3 1_555 1_555
C4 H4 1_555 1_555
H5 C4 1_555 1_555
C5 C4 1_555 1_555
C6 C5 1_555 1_555
H6 C6 1_555 1_555
C7 C5 1_555 1_555
H7 C7 1_555 1_555
C8 C9 1_555 1_555
C9 C10 1_555 1_555
C10 H8 1_555 1_555
C11 C9 1_555 1_555
H9 C11 1_555 1_555
C12 H10 1_555 1_555
C13 H11 1_555 1_555
H12 C13 1_555 1_555
H13 C13 1_555 1_555
C14 H14 1_555 1_555
H15 C14 1_555 1_555
H16 C14 1_555 1_555
N1 C1 1_555 1_555
N2 C1 1_555 1_555
N3 C12 1_555 1_555
O1 C8 1_555 1_555
O2 C8 1_555 1_555
O3 C12 1_555 1_555
Zn1 N1 1_555 1_555
C1D H1D 1_555 1_555
C2D H2D 1_555 1_555
C3D C2D 1_555 1_555
H3D C3D 1_555 1_555
C4D H4D 1_555 1_555
H5D C4D 1_555 1_555
C5D C4D 1_555 1_555
C6D C7 1_555 1_555
H6D C6D 1_555 1_555
C7D C6 1_555 1_555
H7D C7D 1_555 1_555
C8F C9F 1_555 1_555
C9F C10F 1_555 1_555
C10F C11 1_555 1_555
H8F C10F 1_555 1_555
C11F C10 1_555 1_555
H9F C11F 1_555 1_555
N1D C1D 1_555 1_555
N1A Zn1 1_555 1_555
N2D C1D 1_555 1_555
O1F C8F 1_555 1_555
O1A Zn1 1_555 1_555
O2F C8F 1_555 1_555
Zn1D N1D 1_555 1_555
Zn1F O1F 1_555 1_555
C2 N1 1_555 1_555
C3 N2 1_555 1_555
C4 N2 1_555 1_555
C13 N3 1_555 1_555
C14 N3 1_555 1_555
O1 Zn1 1_555 1_555
C2D N1D 1_555 1_555
C3D N2D 1_555 1_555
C4D N2D 1_555 1_555
C5D C6D 1_555 1_555
C5D C7D 1_555 1_555
C9F C11F 1_555 1_555

#END
