
#######################################################################
#
#                 Cambridge Crystallographic Data Centre
#                                CCDC 
#
#######################################################################
#
# If this CIF has been generated from an entry in the Cambridge 
# Structural Database, then it will include bibliographic, chemical, 
# crystal, experimental, refinement or atomic coordinate data resulting 
# from the CCDC's data processing and validation procedures.
#
#######################################################################

data_YARDIG
_symmetry_cell_setting           monoclinic
_symmetry_space_group_name_H-M   'C 2/c'
_symmetry_Int_Tables_number      15
_space_group_name_Hall           '-C 2yn'
loop_
_symmetry_equiv_pos_site_id
_symmetry_equiv_pos_as_xyz
1 x,y,z
2 -x,y,1/2-z
3 1/2+x,1/2+y,z
4 1/2-x,1/2+y,1/2-z
5 -x,-y,-z
6 x,-y,1/2+z
7 1/2-x,1/2-y,-z
8 1/2+x,1/2-y,1/2+z
_cell_length_a                   20.4671(11)
_cell_length_b                   11.4539(6)
_cell_length_c                   14.1389(8)
_cell_angle_alpha                90
_cell_angle_beta                 116.1950(10)
_cell_angle_gamma                90
_cell_volume                     2974.14
loop_
_atom_site_label
_atom_site_type_symbol
_atom_site_fract_x
_atom_site_fract_y
_atom_site_fract_z
C1 C 1.13788(12) 0.0849(2) 0.37609(17)
C2 C 1.19684(11) 0.1700(2) 0.43908(16)
C3 C 1.19013(12) 0.2875(2) 0.41151(17)
H1 H 1.1497 0.3128 0.3518
C4 C 1.24274(12) 0.3672(2) 0.47171(17)
H2 H 1.2377 0.4455 0.4525
C5 C 0.96952(13) -0.13082(19) 0.05696(17)
H3 H 0.9195 -0.1321 0.0355
C6 C 1.08432(13) -0.0965(2) 0.14452(19)
H4 H 1.1285 -0.0687 0.1956
C7 C 1.07588(13) -0.1628(2) 0.06103(19)
H5 H 1.1125 -0.1892 0.0444
C8 C 0.96835(15) -0.2644(2) -0.08389(18)
H6 H 0.9877 -0.2512 -0.1345
H7 H 0.9162 -0.2507 -0.1188
C9 C 0.98334(13) -0.3887(2) -0.04424(17)
C10 C 1.04339(15) -0.4484(2) -0.0394(2)
H8 H 1.0730 -0.4137 -0.0658
C11 C 1.06019(14) -0.5591(2) 0.0042(2)
H9 H 1.1007 -0.5983 0.0065
N1 N 1.01733(10) -0.07646(16) 0.14229(15)
N2 N 1.00292(10) -0.18365(17) 0.00576(14)
O1 O 1.07762(8) 0.13073(15) 0.31310(12)
O2 O 1.14874(10) -0.02117(15) 0.38914(15)
Co1 Co 1.0000 0.01439(4) 0.2500
C1F C 1.36212(12) 0.4151(2) 0.62391(17)
C2F C 1.30316(11) 0.3300(2) 0.56092(16)
C3F C 1.30987(12) 0.2125(2) 0.58849(17)
H1F H 1.3503 0.1872 0.6482
C4F C 1.25726(12) 0.1328(2) 0.52829(17)
H2F H 1.2623 0.0545 0.5475
C5D C 1.03048(13) -0.86918(19) -0.05696(17)
H3D H 1.0805 -0.8679 -0.0355
C6D C 0.91568(13) -0.9035(2) -0.14452(19)
H4D H 0.8715 -0.9313 -0.1956
C7D C 0.92412(13) -0.8372(2) -0.06103(19)
H5D H 0.8875 -0.8108 -0.0444
C8D C 1.03165(15) -0.7356(2) 0.08389(18)
H6D H 1.0123 -0.7488 0.1345
H7D H 1.0838 -0.7493 0.1188
C9D C 1.01666(13) -0.6113(2) 0.04424(17)
C10D C 0.95661(15) -0.5516(2) 0.0394(2)
H8D H 0.9270 -0.5863 0.0658
C11D C 0.93981(14) -0.4409(2) -0.0042(2)
H9D H 0.8993 -0.4017 -0.0065
N1D N 0.98267(10) -0.92354(16) -0.14229(15)
N1A N 0.98267(10) -0.07646(16) 0.35771(15)
N2D N 0.99708(10) -0.81635(17) -0.00576(14)
O1F O 1.42238(8) 0.36927(15) 0.68690(12)
O1A O 0.92238(8) 0.13073(15) 0.18690(12)
O2F O 1.35126(10) 0.52117(15) 0.61086(15)
Co1D Co 1.0000 -1.01439(4) -0.2500
Co1F Co 1.5000 0.48561(4) 0.7500
C12 C 1.23531(18) -0.2709(3) 0.3676(3)
H10 H 1.2135 -0.2246 0.3998
C13 C 1.2231(2) -0.4238(4) 0.2442(3)
H11 H 1.1862 -0.4770 0.1994
H12 H 1.2641 -0.4671 0.2937
H13 H 1.2382 -0.3753 0.2021
C14 C 1.11900(17) -0.3681(3) 0.2792(3)
H14 H 1.0981 -0.4299 0.2290
H15 H 1.0924 -0.2972 0.2512
H16 H 1.1165 -0.3879 0.3435
N3 N 1.19428(12) -0.3518(2) 0.30026(18)
O3 O 1.29882(13) -0.2525(3) 0.3905(2)
loop_
_geom_bond_atom_site_label_1
_geom_bond_atom_site_label_2
_geom_bond_site_symmetry_1
_geom_bond_site_symmetry_2
C1 C2 1_555 1_555
C2 C3 1_555 1_555
C3 H1 1_555 1_555
C4 C3 1_555 1_555
H2 C4 1_555 1_555
C5 H3 1_555 1_555
C6 H4 1_555 1_555
C7 C6 1_555 1_555
H5 C7 1_555 1_555
C8 H6 1_555 1_555
H7 C8 1_555 1_555
C9 C8 1_555 1_555
C10 C9 1_555 1_555
H8 C10 1_555 1_555
C11 C10 1_555 1_555
H9 C11 1_555 1_555
C12 H10 1_555 1_555
C13 H11 1_555 1_555
H12 C13 1_555 1_555
H13 C13 1_555 1_555
C14 H14 1_555 1_555
H15 C14 1_555 1_555
H16 C14 1_555 1_555
N1 C5 1_555 1_555
N2 C5 1_555 1_555
N3 C12 1_555 1_555
O1 C1 1_555 1_555
O2 C1 1_555 1_555
O3 C12 1_555 1_555
Co1 N1 1_555 1_555
C1F C2F 1_555 1_555
C2F C4 1_555 1_555
C3F C2F 1_555 1_555
H1F C3F 1_555 1_555
C4F C2 1_555 1_555
H2F C4F 1_555 1_555
C5D H3D 1_555 1_555
C6D H4D 1_555 1_555
C7D C6D 1_555 1_555
H5D C7D 1_555 1_555
C8D H6D 1_555 1_555
H7D C8D 1_555 1_555
C9D C11 1_555 1_555
C10D C9D 1_555 1_555
H8D C10D 1_555 1_555
C11D C9 1_555 1_555
H9D C11D 1_555 1_555
N1D C5D 1_555 1_555
N1A Co1 1_555 1_555
N2D C5D 1_555 1_555
O1F C1F 1_555 1_555
O1A Co1 1_555 1_555
O2F C1F 1_555 1_555
Co1D N1D 1_555 1_555
Co1F O1F 1_555 1_555
C6 N1 1_555 1_555
C7 N2 1_555 1_555
C8 N2 1_555 1_555
C13 N3 1_555 1_555
C14 N3 1_555 1_555
O1 Co1 1_555 1_555
C3F C4F 1_555 1_555
C6D N1D 1_555 1_555
C7D N2D 1_555 1_555
C8D C9D 1_555 1_555
C8D N2D 1_555 1_555
C10D C11D 1_555 1_555

#END
