
#######################################################################
#
#                 Cambridge Crystallographic Data Centre
#                                CCDC 
#
#######################################################################
#
# If this CIF has been generated from an entry in the Cambridge 
# Structural Database, then it will include bibliographic, chemical, 
# crystal, experimental, refinement or atomic coordinate data resulting 
# from the CCDC's data processing and validation procedures.
#
#######################################################################

data_YARDUS
_symmetry_cell_setting           triclinic
_symmetry_space_group_name_H-M   'P -1'
_symmetry_Int_Tables_number      2
_space_group_name_Hall           '-P 1'
loop_
_symmetry_equiv_pos_site_id
_symmetry_equiv_pos_as_xyz
1 x,y,z
2 -x,-y,-z
_cell_length_a                   12.6318(8)
_cell_length_b                   12.8249(8)
_cell_length_c                   13.5305(8)
_cell_angle_alpha                79.9720(10)
_cell_angle_beta                 70.9580(10)
_cell_angle_gamma                70.0140(10)
_cell_volume                     1942.39
loop_
_atom_site_label
_atom_site_type_symbol
_atom_site_fract_x
_atom_site_fract_y
_atom_site_fract_z
C1 C -0.0173(5) 0.3356(4) 0.8703(4)
C2 C -0.0148(4) 0.3862(4) 0.7613(4)
C3 C -0.0769(5) 0.3637(5) 0.7063(4)
H1 H -0.1241 0.3180 0.7377
C4 C -0.0707(5) 0.4077(5) 0.6049(4)
H2 H -0.1132 0.3901 0.5692
C5 C -0.0035(5) 0.4768(4) 0.5547(4)
C6 C 0.0522(9) 0.5034(7) 0.6134(6)
H3 H 0.0955 0.5528 0.5840
C7 C 0.0464(8) 0.4593(7) 0.7151(5)
H4 H 0.0851 0.4800 0.7526
C8 C 0.1146(4) 0.6942(4) -0.2452(4)
C9 C 0.2293(4) 0.6386(5) -0.3212(4)
C10 C 0.2524(5) 0.6660(5) -0.4264(5)
H5 H 0.1956 0.7216 -0.4517
C11 C 0.3567(5) 0.6140(5) -0.4959(4)
H6 H 0.3694 0.6361 -0.5669
C12 C 0.4439(5) 0.5291(5) -0.4632(4)
C13 C 0.5812(6) 0.5002(7) -0.6443(5)
H7 H 0.5255 0.5571 -0.6696
C14 C 0.6859(6) 0.4473(6) -0.7139(5)
H8 H 0.7000 0.4693 -0.7850
C15 C 0.1334(4) 0.0721(4) 0.9539(4)
H9 H 0.1346 0.1106 0.8888
C16 C 0.1169(5) 0.0338(4) 1.1175(4)
H10 H 0.1042 0.0415 1.1879
C17 C 0.1456(5) -0.0633(5) 1.0755(4)
H11 H 0.1563 -0.1336 1.1104
C18 C 0.1837(4) -0.1147(4) 0.8909(4)
H12 H 0.1626 -0.0727 0.8295
H13 H 0.1368 -0.1651 0.9180
C19 C 0.3128(4) -0.1817(4) 0.8591(4)
C20 C 0.3974(5) -0.1325(5) 0.8037(5)
H14 H 0.3757 -0.0561 0.7872
C21 C 0.5143(5) -0.1948(5) 0.7721(5)
H15 H 0.5709 -0.1598 0.7365
C22 C 0.5476(4) -0.3074(5) 0.7928(4)
C23 C 0.4638(5) -0.3575(5) 0.8476(6)
H16 H 0.4857 -0.4342 0.8624
C24 C 0.3461(5) -0.2947(5) 0.8813(6)
H17 H 0.2898 -0.3293 0.9191
C25 C -0.7984(5) 1.4300(5) 0.0271(4)
H18 H -0.8124 1.4656 -0.0355
C26 C -0.7994(4) 1.3188(5) 0.1656(4)
H19 H -0.8138 1.2633 0.2177
C27 C 0.6767(5) -0.3764(6) 0.7571(5)
H20 H 0.7154 -0.3429 0.6914
H21 H 0.6821 -0.4507 0.7450
C28 C -0.7358(5) 1.4546(5) 0.0774(5)
H22 H -0.6988 1.5097 0.0565
N1 N 0.1089(4) 0.1198(3) 1.0415(3)
N2 N 0.1560(3) -0.0376(3) 0.9708(3)
N3 N -0.8390(4) 1.3436(4) 0.0825(3)
N4 N 0.7364(4) -0.3836(4) 0.8349(3)
O1 O 0.0546(3) 0.3518(3) 0.9093(3)
O2 O -0.0861(3) 0.2808(3) 0.9155(3)
O3 O 0.1043(3) 0.6590(3) -0.1491(3)
O4 O 0.9627(3) 0.2331(3) -0.7232(3)
Zn1 Zn 0.04954(5) 0.28401(5) 1.05100(4)
C1A C 0.0173(5) 0.6644(4) 0.1297(4)
C2A C 0.0148(4) 0.6138(4) 0.2387(4)
C3A C 0.0769(5) 0.6363(5) 0.2937(4)
H1A H 0.1241 0.6820 0.2623
C4A C 0.0707(5) 0.5923(5) 0.3951(4)
H2A H 0.1132 0.6099 0.4308
C5A C 0.0035(5) 0.5232(4) 0.4453(4)
C6A C -0.0522(9) 0.4966(7) 0.3866(6)
H3A H -0.0955 0.4472 0.4160
C7A C -0.0464(8) 0.5407(7) 0.2849(5)
H4A H -0.0851 0.5200 0.2474
C8A C 0.8854(4) 0.3058(4) -0.7548(4)
C9A C 0.7707(4) 0.3614(5) -0.6788(4)
C10A C 0.7476(5) 0.3340(5) -0.5736(5)
H5A H 0.8044 0.2784 -0.5483
C11A C 0.6433(5) 0.3860(5) -0.5041(4)
H6A H 0.6306 0.3639 -0.4331
C12A C 0.5561(5) 0.4709(5) -0.5368(4)
C13A C 0.4188(6) 0.4998(7) -0.3557(5)
H7A H 0.4745 0.4429 -0.3304
C14A C 0.3141(6) 0.5527(6) -0.2861(5)
H8A H 0.3000 0.5307 -0.2150
C15A C -0.1334(4) 0.9279(4) 0.0461(4)
H9A H -0.1346 0.8894 0.1112
C16A C -0.1169(5) 0.9662(4) -0.1175(4)
H10A H -0.1042 0.9585 -0.1879
C17A C -0.1456(5) 1.0633(5) -0.0755(4)
H11A H -0.1563 1.1336 -0.1104
C18A C -0.1837(4) 1.1147(4) 0.1091(4)
H12A H -0.1626 1.0727 0.1705
H13A H -0.1368 1.1651 0.0820
C19A C -0.3128(4) 1.1817(4) 0.1409(4)
C20A C -0.3974(5) 1.1325(5) 0.1963(5)
H14A H -0.3757 1.0561 0.2128
C21A C -0.5143(5) 1.1948(5) 0.2279(5)
H15A H -0.5709 1.1598 0.2635
C22A C -0.5476(4) 1.3074(5) 0.2072(4)
C23A C -0.4638(5) 1.3575(5) 0.1524(6)
H16A H -0.4857 1.4342 0.1376
C24A C -0.3461(5) 1.2947(5) 0.1187(6)
H17A H -0.2898 1.3293 0.0809
C25A C 0.7984(5) -0.4300(5) 0.9729(4)
H18A H 0.8124 -0.4656 1.0355
C26A C 0.7994(4) -0.3188(5) 0.8344(4)
H19A H 0.8138 -0.2633 0.7823
C27A C -0.6767(5) 1.3764(6) 0.2429(5)
H20A H -0.7154 1.3429 0.3086
H21A H -0.6821 1.4507 0.2550
C28A C 0.7358(5) -0.4546(5) 0.9226(5)
H22A H 0.6988 -0.5097 0.9435
N1A N -0.1089(4) 0.8802(3) -0.0415(3)
N2A N -0.1560(3) 1.0376(3) 0.0292(3)
N3_2 N 0.1610(4) 0.3436(4) 1.0825(3)
N3A N -0.1610(4) 0.6564(4) -0.0825(3)
N3A_2 N 0.8390(4) -0.3436(4) 0.9175(3)
N4A N -0.7364(4) 1.3836(4) 0.1651(3)
O1A O -0.0546(3) 0.6482(3) 0.0907(3)
O2A O 0.0861(3) 0.7192(3) 0.0845(3)
O3A O -0.1043(3) 0.3410(3) 1.1491(3)
O3A_2 O 0.8957(3) 0.3410(3) -0.8509(3)
O4A O 0.0373(3) 0.7669(3) -0.2768(3)
Zn1A Zn -0.04954(5) 0.71599(5) -0.05100(4)
Zn1_2 Zn -0.95046(5) 1.28401(5) 0.05100(4)
Zn1_3 Zn 1.04954(5) 0.28401(5) -0.94900(4)
Zn1A_2 Zn 0.95046(5) -0.28401(5) 0.94900(4)
N5 N -0.8795(7) 0.0656(7) 0.5202(6)
C29 C -0.9952(12) 0.0862(11) 0.6031(10)
C30 C -0.7884(16) -0.0294(15) 0.5378(14)
O5 O -0.7715(6) 0.1222(6) 0.3663(5)
C31 C -0.8667(7) 0.1340(7) 0.4355(6)
N6 N -0.5876(9) 0.8135(9) 0.1605(8)
C32 C -0.6681(14) 0.8497(13) 0.2520(12)
O7 O -0.6973(17) 0.7732(16) 0.2846(15)
C34 C -0.579(3) 0.930(3) 0.128(2)
C35 C -0.505(3) 0.788(2) 0.072(2)
O8 O -0.7740(8) 0.1130(7) 0.7074(7)
N7 N -0.6512(10) 0.2207(9) 0.6036(9)
C36 C -0.7421(14) 0.1803(13) 0.6320(12)
C37 C -0.6580(15) 0.3035(14) 0.5165(13)
C38 C -0.647(2) 0.209(2) 0.724(2)
O6? O -0.6364(16) 0.6603(14) 0.2203(14)
C33? C -0.5748(17) 0.7029(16) 0.1363(15)
loop_
_geom_bond_atom_site_label_1
_geom_bond_atom_site_label_2
_geom_bond_site_symmetry_1
_geom_bond_site_symmetry_2
C1 C2 1_555 1_555
C2 C3 1_555 1_555
C3 H1 1_555 1_555
C4 C3 1_555 1_555
H2 C4 1_555 1_555
C5 C4 1_555 1_555
C6 C5 1_555 1_555
H3 C6 1_555 1_555
C7 C2 1_555 1_555
H4 C7 1_555 1_555
C8 C9 1_555 1_555
C9 C10 1_555 1_555
C10 H5 1_555 1_555
C11 C10 1_555 1_555
H6 C11 1_555 1_555
C12 C11 1_555 1_555
C13 H7 1_555 1_555
C14 C13 1_555 1_555
H8 C14 1_555 1_555
C15 H9 1_555 1_555
C16 H10 1_555 1_555
C17 C16 1_555 1_555
H11 C17 1_555 1_555
C18 H12 1_555 1_555
H13 C18 1_555 1_555
C19 C18 1_555 1_555
C20 C19 1_555 1_555
H14 C20 1_555 1_555
C21 C20 1_555 1_555
H15 C21 1_555 1_555
C22 C21 1_555 1_555
C23 C22 1_555 1_555
H16 C23 1_555 1_555
C24 C19 1_555 1_555
H17 C24 1_555 1_555
C25 H18 1_555 1_555
C26 H19 1_555 1_555
C27 C22 1_555 1_555
H20 C27 1_555 1_555
H21 C27 1_555 1_555
C28 C25 1_555 1_555
H22 C28 1_555 1_555
N1 C15 1_555 1_555
N2 C15 1_555 1_555
N3 C25 1_555 1_555
N4 C27 1_555 1_555
O1 C1 1_555 1_555
O2 C1 1_555 1_555
O3 C8 1_555 1_555
O4 C8A 1_555 1_555
Zn1 N1 1_555 1_555
N5 C29 1_555 1_555
C30 N5 1_555 1_555
O5 C31 1_555 1_555
C31 N5 1_555 1_555
N6 C32 1_555 1_555
C32 O7 1_555 1_555
C34 N6 1_555 1_555
C35 N6 1_555 1_555
O8 C36 1_555 1_555
N7 C36 1_555 1_555
C37 N7 1_555 1_555
C38 N7 1_555 1_555
C1A C2A 1_555 1_555
C2A C3A 1_555 1_555
C3A H1A 1_555 1_555
C4A C3A 1_555 1_555
H2A C4A 1_555 1_555
C5A C5 1_555 1_555
C6A C5A 1_555 1_555
H3A C6A 1_555 1_555
C7A C2A 1_555 1_555
H4A C7A 1_555 1_555
C8A C9A 1_555 1_555
C9A C14 1_555 1_555
C10A C9A 1_555 1_555
H5A C10A 1_555 1_555
C11A C10A 1_555 1_555
H6A C11A 1_555 1_555
C12A C12 1_555 1_555
C13A C12 1_555 1_555
H7A C13A 1_555 1_555
C14A C9 1_555 1_555
H8A C14A 1_555 1_555
C15A H9A 1_555 1_555
C16A H10A 1_555 1_555
C17A C16A 1_555 1_555
H11A C17A 1_555 1_555
C18A H12A 1_555 1_555
H13A C18A 1_555 1_555
C19A C18A 1_555 1_555
C20A C19A 1_555 1_555
H14A C20A 1_555 1_555
C21A C20A 1_555 1_555
H15A C21A 1_555 1_555
C22A C21A 1_555 1_555
C23A C22A 1_555 1_555
H16A C23A 1_555 1_555
C24A C19A 1_555 1_555
H17A C24A 1_555 1_555
C25A H18A 1_555 1_555
C26A N4 1_555 1_555
H19A C26A 1_555 1_555
C27A C22A 1_555 1_555
H20A C27A 1_555 1_555
H21A C27A 1_555 1_555
C28A N4 1_555 1_555
H22A C28A 1_555 1_555
N1A C15A 1_555 1_555
N2A C15A 1_555 1_555
N3_2 Zn1 1_555 1_555
N3A Zn1A 1_555 1_555
N3A_2 C25A 1_555 1_555
N4A C26 1_555 1_555
O1A C1A 1_555 1_555
O2A C1A 1_555 1_555
O3A Zn1 1_555 1_555
O3A_2 C8A 1_555 1_555
O4A C8 1_555 1_555
Zn1A O3 1_555 1_555
Zn1_2 N3 1_555 1_555
Zn1_3 O3A_2 1_555 1_555
Zn1A_2 N3A_2 1_555 1_555
C6 C7 1_555 1_555
C13 C12A 1_555 1_555
C16 N1 1_555 1_555
C17 N2 1_555 1_555
C18 N2 1_555 1_555
C23 C24 1_555 1_555
C26 N3 1_555 1_555
C28 N4A 1_555 1_555
O1 Zn1 1_555 1_555
C4A C5A 1_555 1_555
C6A C7A 1_555 1_555
C11A C12A 1_555 1_555
C13A C14A 1_555 1_555
C16A N1A 1_555 1_555
C17A N2A 1_555 1_555
C18A N2A 1_555 1_555
C23A C24A 1_555 1_555
C25A C28A 1_555 1_555
C26A N3A_2 1_555 1_555
C27A N4A 1_555 1_555
N1A Zn1A 1_555 1_555
O1A Zn1A 1_555 1_555

#END
