
#######################################################################
#
#                 Cambridge Crystallographic Data Centre
#                                CCDC 
#
#######################################################################
#
# If this CIF has been generated from an entry in the Cambridge 
# Structural Database, then it will include bibliographic, chemical, 
# crystal, experimental, refinement or atomic coordinate data resulting 
# from the CCDC's data processing and validation procedures.
#
#######################################################################

data_YARDOM
_symmetry_cell_setting           monoclinic
_symmetry_space_group_name_H-M   'P 2/c'
_symmetry_Int_Tables_number      13
_space_group_name_Hall           '-P 2yc'
loop_
_symmetry_equiv_pos_site_id
_symmetry_equiv_pos_as_xyz
1 x,y,z
2 -x,y,1/2-z
3 -x,-y,-z
4 x,-y,1/2+z
_cell_length_a                   17.3468(8)
_cell_length_b                   7.2668(3)
_cell_length_c                   24.8936(9)
_cell_angle_alpha                90
_cell_angle_beta                 111.930(2)
_cell_angle_gamma                90
_cell_volume                     2910.92
loop_
_atom_site_label
_atom_site_type_symbol
_atom_site_fract_x
_atom_site_fract_y
_atom_site_fract_z
Cd1 Cd 0.0000 -1.46621(5) 0.2500
Cd2 Cd 0.5000 -0.49882(5) 0.2500
O1 O 0.36192(16) -0.6092(4) 0.20904(13)
O2 O 0.44369(17) -0.7293(4) 0.29090(13)
O3 O 0.13608(16) -1.3603(4) 0.28211(13)
O4 O -0.04876(17) -1.2276(4) 0.29584(13)
N1 N 0.02652(18) -0.3302(4) -0.17679(13)
N2 N 0.07069(19) -0.0850(4) -0.12255(13)
N3 N 0.48230(18) -0.2945(4) 0.17842(13)
N4 N 0.44729(19) -0.0531(4) 0.12152(13)
C1 C 0.3088(2) -0.8550(5) 0.24749(16)
C2 C 0.2260(2) -0.8200(5) 0.21352(16)
H1 H 0.2116 -0.7131 0.1915
C3 C 0.1647(2) -0.9446(5) 0.21249(17)
H2 H 0.1094 -0.9198 0.1901
C4 C 0.1853(2) -1.1065(5) 0.24477(16)
C5 C 0.2684(2) -1.1404(5) 0.27897(18)
H3 H 0.2830 -1.2474 0.3010
C6 C 0.3294(2) -1.0154(5) 0.2803(2)
H4 H 0.3846 -1.0390 0.3032
C7 C 0.3756(2) -0.7218(5) 0.24919(17)
C8 C 0.1190(2) -1.2409(5) 0.24335(17)
C9 C 0.4490(2) -0.1290(5) 0.17080(16)
H5 H 0.4292 -1.9280 0.6965
C10 C 0.5026(2) -1.6746(6) 0.63092(17)
H6 H 0.5271 -1.5679 0.6241
C11 C 0.4816(3) -1.8222(6) 0.59574(17)
H7 H 0.4889 -1.8365 0.5608
C12 C 0.4131(3) 0.1301(5) 0.09830(17)
H8 H 0.4022 -2.1991 0.6281
H9 H 0.4540 -2.1975 0.5882
C13 C 0.3340(2) 0.1143(5) 0.04566(16)
C14 C 0.2586(3) 0.1152(5) 0.05191(17)
H10 H 0.2567 -2.1215 0.5887
C15 C 0.1843(3) 0.1066(5) 0.00286(17)
H11 H 0.1334 -2.1081 0.5073
C16 C 0.1868(2) 0.0961(5) -0.05203(16)
C17 C 0.2624(3) -2.0929(6) 0.44223(17)
H12 H 0.2644 -2.0848 0.4055
C18 C 0.3365(3) -2.1016(6) 0.49088(18)
H13 H 0.3874 -2.0988 0.4864
C19 C 0.1064(2) 0.1001(5) -0.10449(17)
H14 H 0.0663 -2.1752 0.4042
H15 H 0.1166 -2.1575 0.3636
C20 C 0.0607(2) -0.1663(5) -0.17285(16)
H16 H 0.0759 -0.1139 -0.2015
C21 C 0.0142(2) -0.3542(5) -0.12562(17)
H17 H -0.0087 -0.4582 -0.1156
C22 C 0.0406(3) -1.7966(5) 0.40758(17)
H18 H 0.0387 -1.8164 0.4440
Cd1B Cd 0.0000 -0.53379(5) -0.2500
Cd2B Cd 0.5000 -1.50118(5) 0.7500
Cd2_2 Cd -0.5000 -0.49882(5) 0.2500
O1A O 0.63808(16) -0.6092(4) 0.29096(13)
O1A_2 O -0.36192(16) -0.6092(4) 0.29096(13)
O2A O 0.55631(17) -0.7293(4) 0.20910(13)
O2A_2 O -0.44369(17) -0.7293(4) 0.20910(13)
O3A O -0.13608(16) -1.3603(4) 0.21789(13)
O4A O 0.04876(17) -1.2276(4) 0.20416(13)
N1C N 0.02652(18) -1.6698(4) 0.32321(13)
N1B N -0.02652(18) -1.6698(4) 0.17679(13)
N2C N 0.07069(19) -1.9150(4) 0.37745(13)
N3A N 0.51770(18) -0.2945(4) 0.32158(13)
N3C N 0.48230(18) -1.7055(4) 0.67842(13)
N4C N 0.44729(19) -1.9469(4) 0.62152(13)
C1A C -0.3088(2) -0.8550(5) 0.25251(16)
C2A C -0.2260(2) -0.8200(5) 0.28648(16)
H1A H -0.2116 -0.7131 0.3085
C3A C -0.1647(2) -0.9446(5) 0.28751(17)
H2A H -0.1094 -0.9198 0.3099
C4A C -0.1853(2) -1.1065(5) 0.25523(16)
C5A C -0.2684(2) -1.1404(5) 0.22103(18)
H3A H -0.2830 -1.2474 0.1990
C6A C -0.3294(2) -1.0154(5) 0.2197(2)
H4A H -0.3846 -1.0390 0.1968
C7A C -0.3756(2) -0.7218(5) 0.25081(17)
C8A C -0.1190(2) -1.2409(5) 0.25665(17)
C9C C 0.4490(2) -1.8710(5) 0.67080(16)
H5C H 0.4292 -0.0720 0.1965
C10C C 0.5026(2) -0.3254(6) 0.13092(17)
H6C H 0.5271 -0.4321 0.1241
C11C C 0.4816(3) -0.1778(6) 0.09574(17)
H7C H 0.4889 -0.1635 0.0608
C12C C 0.4131(3) -2.1301(5) 0.59830(17)
H8C H 0.4022 0.1991 0.1281
H9C H 0.4540 0.1975 0.0882
C13C C 0.3340(2) -2.1143(5) 0.54566(16)
C14C C 0.2586(3) -2.1152(5) 0.55191(17)
H10C H 0.2567 0.1215 0.0887
C15C C 0.1843(3) -2.1066(5) 0.50286(17)
H11C H 0.1334 0.1081 0.0073
C16C C 0.1868(2) -2.0961(5) 0.44797(16)
C17C C 0.2624(3) 0.0929(6) -0.05777(17)
H12C H 0.2644 0.0848 -0.0945
C18C C 0.3365(3) 0.1016(6) -0.00912(18)
H13C H 0.3874 0.0988 -0.0136
C19C C 0.1064(2) -2.1001(5) 0.39551(17)
H14C H 0.0663 0.1752 -0.0958
H15C H 0.1166 0.1575 -0.1364
C20C C 0.0607(2) -1.8337(5) 0.32715(16)
H16C H 0.0759 -1.8861 0.2985
C21C C 0.0142(2) -1.6458(5) 0.37438(17)
H17C H -0.0087 -1.5418 0.3844
C22C C 0.0406(3) -0.2034(5) -0.09242(17)
H18C H 0.0387 -0.1836 -0.0560
O5 O 0.0221(2) -0.2199(5) 0.03998(16)
N5 N 0.1544(2) -0.3231(5) 0.08302(17)
C23 C 0.0935(3) -0.1996(7) 0.0753(2)
C24 C 0.2381(3) -0.2899(8) 0.1241(2)
C25 C 0.1364(4) -0.4926(8) 0.0504(3)
N6 N 0.6762(3) -0.6276(6) 0.07517(18)
O6 O 0.5435(3) -0.7301(9) 0.04054(18)
C26 C 0.6061(6) -0.7261(12) 0.0784(4)
C27 C 0.7468(7) -0.6043(16) 0.1247(5)
C28 C 0.6754(7) -0.6013(16) 0.0142(5)
C29? C 0.6085(7) -0.6145(15) 0.0382(5)
C30? C 0.7029(7) -0.6789(16) 0.1374(5)
C31? C 0.7570(8) -0.5622(18) 0.0640(6)
loop_
_geom_bond_atom_site_label_1
_geom_bond_atom_site_label_2
_geom_bond_site_symmetry_1
_geom_bond_site_symmetry_2
Cd1 O3 1_555 1_555
Cd2 O1 1_555 1_555
O1 C7 1_555 1_555
O2 Cd2 1_555 1_555
O3 C8 1_555 1_555
O4 Cd1 1_555 1_555
N1 C20 1_555 1_555
N2 C19 1_555 1_555
N3 Cd2 1_555 1_555
N4 C9 1_555 1_555
C1 C2 1_555 1_555
C2 H1 1_555 1_555
C3 C2 1_555 1_555
H2 C3 1_555 1_555
C4 C3 1_555 1_555
C5 C4 1_555 1_555
H3 C5 1_555 1_555
C6 C1 1_555 1_555
H4 C6 1_555 1_555
C7 O2 1_555 1_555
C8 C4 1_555 1_555
C9 N3 1_555 1_555
H5 C9C 1_555 1_555
C10 H6 1_555 1_555
C11 C10 1_555 1_555
H7 C11 1_555 1_555
C12 N4 1_555 1_555
H8 C12C 1_555 1_555
H9 C12C 1_555 1_555
C13 C12 1_555 1_555
C14 C13 1_555 1_555
H10 C14C 1_555 1_555
C15 C14 1_555 1_555
H11 C15C 1_555 1_555
C16 C15 1_555 1_555
C17 H12 1_555 1_555
C18 C17 1_555 1_555
H13 C18 1_555 1_555
C19 C16 1_555 1_555
H14 C19C 1_555 1_555
H15 C19C 1_555 1_555
C20 N2 1_555 1_555
H16 C20 1_555 1_555
C21 N1 1_555 1_555
H17 C21 1_555 1_555
C22 H18 1_555 1_555
O5 C23 1_555 1_555
N5 C23 1_555 1_555
C24 N5 1_555 1_555
C25 N5 1_555 1_555
N6 C26 1_555 1_555
O6 C26 1_555 1_555
C27 N6 1_555 1_555
C28 N6 1_555 1_555
Cd1B N1 1_555 1_555
Cd2B N3C 1_555 1_555
Cd2_2 O1A_2 1_555 1_555
O1A Cd2 1_555 1_555
O1A_2 C7A 1_555 1_555
O2A Cd2 1_555 1_555
O2A_2 Cd2_2 1_555 1_555
O3A Cd1 1_555 1_555
O4A Cd1 1_555 1_555
N1C Cd1 1_555 1_555
N1B Cd1 1_555 1_555
N2C C22 1_555 1_555
N3A Cd2 1_555 1_555
N3C C10 1_555 1_555
N4C C11 1_555 1_555
C1A C2A 1_555 1_555
C2A H1A 1_555 1_555
C3A C2A 1_555 1_555
H2A C3A 1_555 1_555
C4A C3A 1_555 1_555
C5A C4A 1_555 1_555
H3A C5A 1_555 1_555
C6A C1A 1_555 1_555
H4A C6A 1_555 1_555
C7A O2A_2 1_555 1_555
C8A O4 1_555 1_555
C9C N3C 1_555 1_555
H5C C9 1_555 1_555
C10C N3 1_555 1_555
H6C C10C 1_555 1_555
C11C N4 1_555 1_555
H7C C11C 1_555 1_555
C12C N4C 1_555 1_555
H8C C12 1_555 1_555
H9C C12 1_555 1_555
C13C C18 1_555 1_555
C14C C13C 1_555 1_555
H10C C14 1_555 1_555
C15C C14C 1_555 1_555
H11C C15 1_555 1_555
C16C C17 1_555 1_555
C17C C16 1_555 1_555
H12C C17C 1_555 1_555
C18C C13 1_555 1_555
H13C C18C 1_555 1_555
C19C N2C 1_555 1_555
H14C C19 1_555 1_555
H15C C19 1_555 1_555
C20C N1C 1_555 1_555
H16C C20C 1_555 1_555
C21C C22 1_555 1_555
H17C C21C 1_555 1_555
C22C N2 1_555 1_555
H18C C22C 1_555 1_555
C1 C7 1_555 1_555
C5 C6 1_555 1_555
C8 O4A 1_555 1_555
C21 C22C 1_555 1_555
O3A C8A 1_555 1_555
N1C C21C 1_555 1_555
N2C C20C 1_555 1_555
N4C C9C 1_555 1_555
C1A C7A 1_555 1_555
C4A C8A 1_555 1_555
C5A C6A 1_555 1_555
C10C C11C 1_555 1_555
C12C C13C 1_555 1_555
C15C C16C 1_555 1_555
C16C C19C 1_555 1_555
C17C C18C 1_555 1_555

#END
