
#######################################################################
#
#                 Cambridge Crystallographic Data Centre
#                                CCDC 
#
#######################################################################
#
# If this CIF has been generated from an entry in the Cambridge 
# Structural Database, then it will include bibliographic, chemical, 
# crystal, experimental, refinement or atomic coordinate data resulting 
# from the CCDC's data processing and validation procedures.
#
#######################################################################

data_YARFII
_symmetry_cell_setting           orthorhombic
_symmetry_space_group_name_H-M   'P n a 21'
_symmetry_Int_Tables_number      33
_space_group_name_Hall           'P 2c -2n'
loop_
_symmetry_equiv_pos_site_id
_symmetry_equiv_pos_as_xyz
1 x,y,z
2 -x,-y,1/2+z
3 1/2+x,1/2-y,z
4 1/2-x,1/2+y,1/2+z
_cell_length_a                   18.7116(9)
_cell_length_b                   10.8977(5)
_cell_length_c                   14.6613(7)
_cell_angle_alpha                90
_cell_angle_beta                 90
_cell_angle_gamma                90
_cell_volume                     2989.64
loop_
_atom_site_label
_atom_site_type_symbol
_atom_site_fract_x
_atom_site_fract_y
_atom_site_fract_z
C1 C -0.35891(15) 0.8730(3) 0.9428(3)
C2 C 0.09660(19) -0.2691(3) 1.1690(3)
H1 H 0.0917 -0.2855 1.1043
H2 H 0.1459 -0.2843 1.1860
C3 C 0.06591(17) -0.4132(3) 1.2961(2)
H3 H 0.1114 -0.4179 1.3214
C4 C -0.04662(19) -0.4371(3) 1.2744(3)
H4 H -0.0937 -0.4620 1.2823
C5 C -0.02183(19) -0.3651(3) 1.2050(3)
H5 H -0.0484 -0.3324 1.1573
N1 N 0.00968(14) -0.4667(2) 1.3306(2)
N2 N 0.05019(14) -0.3504(2) 1.21974(19)
O1 O -0.14144(11) 0.5819(2) 0.93509(18)
O2 O -0.39956(10) 0.95186(19) 0.97952(16)
O3 O -0.37719(13) 0.7963(3) 0.8878(2)
C6 C -0.11663(14) 0.6807(3) 0.9670(2)
C7 C -0.16514(15) 0.7858(3) 0.9866(2)
C8 C -0.23539(13) 0.7824(2) 0.9580(3)
H6 H -0.2521 0.7135 0.9272
C9 C -0.28177(14) 0.8798(3) 0.9742(2)
C10 C -0.25622(18) 0.9822(3) 1.0180(3)
H7 H -0.2870 1.0474 1.0295
C11 C -0.18432(18) 0.9904(3) 1.0457(3)
H8 H -0.1672 1.0602 1.0749
C12 C -0.13917(17) 0.8903(3) 1.0282(3)
H9 H -0.0913 0.8944 1.0448
C13 C 0.02238(17) 0.3715(3) 1.1105(2)
H10 H 0.0710 0.3891 1.1106
C14 C -0.08157(18) 0.2972(3) 1.1492(3)
H11 H -0.1173 0.2555 1.1805
C15 C -0.08932(17) 0.3644(3) 1.0721(3)
H12 H -0.1319 0.3763 1.0407
C16 C 0.0240(2) 0.2377(3) 1.2488(2)
H13 H -0.0073 0.2395 1.3016
H14 H 0.0679 0.2798 1.2649
C17 C 0.04081(16) 0.1055(3) 1.2248(3)
C18 C 0.06931(19) 0.0326(3) 1.2920(3)
H15 H 0.0753 0.0649 1.3503
C19 C 0.08930(18) -0.0874(3) 1.2754(3)
H16 H 0.1097 -0.1346 1.3213
C20 C 0.07830(18) -0.1370(3) 1.1878(2)
C21 C 0.04911(17) -0.0641(3) 1.1207(3)
H17 H 0.0417 -0.0961 1.0627
C22 C 0.03090(19) 0.0555(3) 1.1391(3)
H18 H 0.0115 0.1037 1.0930
N3 N -0.02481(14) 0.4119(2) 1.0480(2)
N4 N -0.01101(14) 0.3029(2) 1.1719(2)
O4 O -0.04971(10) 0.69619(18) 0.98297(15)
Zn1 Zn -0.001427(16) 0.54085(3) 0.95376(5)
N1A N -0.00968(14) 0.4667(2) 0.8306(2)
O2B O 0.10044(10) 0.54814(19) 0.97952(16)
Zn1A Zn 0.001427(16) -0.54085(3) 1.45376(5)
Zn1B Zn -0.501427(16) 0.95915(3) 0.95376(5)
loop_
_geom_bond_atom_site_label_1
_geom_bond_atom_site_label_2
_geom_bond_site_symmetry_1
_geom_bond_site_symmetry_2
C1 O2 1_555 1_555
C2 H1 1_555 1_555
H2 C2 1_555 1_555
C3 H3 1_555 1_555
C4 H4 1_555 1_555
C5 C4 1_555 1_555
H5 C5 1_555 1_555
N1 C3 1_555 1_555
N2 C2 1_555 1_555
O1 C6 1_555 1_555
O2 Zn1B 1_555 1_555
O3 C1 1_555 1_555
C6 C7 1_555 1_555
C7 C8 1_555 1_555
C8 H6 1_555 1_555
C9 C1 1_555 1_555
C10 C9 1_555 1_555
H7 C10 1_555 1_555
C11 C10 1_555 1_555
H8 C11 1_555 1_555
C12 C7 1_555 1_555
H9 C12 1_555 1_555
C13 H10 1_555 1_555
C14 H11 1_555 1_555
C15 C14 1_555 1_555
H12 C15 1_555 1_555
C16 H13 1_555 1_555
H14 C16 1_555 1_555
C17 C16 1_555 1_555
C18 C17 1_555 1_555
H15 C18 1_555 1_555
C19 C18 1_555 1_555
H16 C19 1_555 1_555
C20 C2 1_555 1_555
C21 C20 1_555 1_555
H17 C21 1_555 1_555
C22 C17 1_555 1_555
H18 C22 1_555 1_555
N3 C13 1_555 1_555
N4 C13 1_555 1_555
O4 C6 1_555 1_555
Zn1 N3 1_555 1_555
N1A Zn1 1_555 1_555
O2B Zn1 1_555 1_555
Zn1A N1 1_555 1_555
C3 N2 1_555 1_555
C4 N1 1_555 1_555
C5 N2 1_555 1_555
C8 C9 1_555 1_555
C11 C12 1_555 1_555
C14 N4 1_555 1_555
C15 N3 1_555 1_555
C16 N4 1_555 1_555
C19 C20 1_555 1_555
C21 C22 1_555 1_555
O4 Zn1 1_555 1_555

#END
