
#######################################################################
#
#                 Cambridge Crystallographic Data Centre
#                                CCDC 
#
#######################################################################
#
# If this CIF has been generated from an entry in the Cambridge 
# Structural Database, then it will include bibliographic, chemical, 
# crystal, experimental, refinement or atomic coordinate data resulting 
# from the CCDC's data processing and validation procedures.
#
#######################################################################

data_YARFII01
_symmetry_cell_setting           monoclinic
_symmetry_space_group_name_H-M   'C 2/c'
_symmetry_Int_Tables_number      15
_space_group_name_Hall           '-C 2yn'
loop_
_symmetry_equiv_pos_site_id
_symmetry_equiv_pos_as_xyz
1 x,y,z
2 -x,y,1/2-z
3 1/2+x,1/2+y,z
4 1/2-x,1/2+y,1/2-z
5 -x,-y,-z
6 x,-y,1/2+z
7 1/2-x,1/2-y,-z
8 1/2+x,1/2-y,1/2+z
_cell_length_a                   34.7613(14)
_cell_length_b                   13.1219(5)
_cell_length_c                   27.2378(10)
_cell_angle_alpha                90
_cell_angle_beta                 105.8150(10)
_cell_angle_gamma                90
_cell_volume                     11953.8
loop_
_atom_site_label
_atom_site_type_symbol
_atom_site_fract_x
_atom_site_fract_y
_atom_site_fract_z
C1 C 0.46704(9) -0.7502(2) -0.11417(11)
C2 C 0.11410(9) -0.6874(2) -0.50519(11)
C3 C 0.38471(10) -0.5586(2) -0.34492(13)
H1 H 0.4009 -0.5674 -0.3118
C4 C 0.33390(12) -0.5384(3) -0.40935(13)
H2 H 0.3077 -0.5296 -0.4290
C5 C 0.36613(12) -0.5417(3) -0.42757(15)
H3 H 0.3664 -0.5371 -0.4615
C6 C 0.44036(12) -0.5643(3) -0.38720(18)
H4 H 0.4420 -0.6189 -0.4105
H5 H 0.4562 -0.5841 -0.3534
C7 C 0.45826(11) -0.4688(2) -0.40311(15)
C8 C 0.48786(10) -0.4779(2) -0.42718(12)
H6 H 0.4949 -0.5422 -0.4363
C9 C 0.50749(9) -0.3931(2) -0.43815(12)
H7 H 0.5270 -0.4010 -0.4553
C10 C 0.49868(10) -0.2979(2) -0.42418(12)
C11 C 0.46783(13) -0.2873(3) -0.40223(17)
H8 H 0.4604 -0.2225 -0.3944
C12 C 0.44760(14) -0.3713(3) -0.39148(18)
H9 H 0.4268 -0.3626 -0.3764
C13 C 0.52211(10) -0.2060(2) -0.43348(14)
H10 H 0.5433 -0.1915 -0.4028
H11 H 0.5344 -0.2217 -0.4605
C14 C 0.49692(10) -0.0324(2) -0.41907(12)
H12 H 0.5146 -0.0216 -0.3871
C15 C 0.44993(10) -0.0126(2) -0.48834(12)
H13 H 0.4288 0.0156 -0.5133
C16 C 0.46688(11) -0.1031(2) -0.49147(13)
H14 H 0.4596 -0.1490 -0.5185
C17 C 0.28247(9) -0.3401(2) -0.34231(11)
H15 H 0.2881 -0.3505 -0.3734
C18 C 0.27677(10) -0.3618(2) -0.26682(11)
H16 H 0.2778 -0.3918 -0.2355
C19 C 0.26260(10) -0.2682(2) -0.28111(12)
H17 H 0.2524 -0.2218 -0.2621
C20 C 0.25572(10) -0.1621(2) -0.36073(12)
H18 H 0.2292 -0.1402 -0.3603
H19 H 0.2551 -0.1773 -0.3958
C21 C 0.28468(10) -0.0772(2) -0.34162(11)
C22 C 0.32542(10) -0.0920(2) -0.33119(13)
H20 H 0.3354 -0.1562 -0.3354
C23 C 0.35150(10) -0.0111(3) -0.31435(13)
H21 H 0.3789 -0.0221 -0.3071
C24 C 0.33768(10) 0.0846(2) -0.30816(12)
C25 C 0.29685(10) 0.0986(2) -0.31897(12)
H22 H 0.2869 0.1630 -0.3151
C26 C 0.27069(10) 0.0192(2) -0.33533(11)
H23 H 0.2433 0.0304 -0.3422
C27 C 0.36522(11) 0.1706(3) -0.28591(15)
H24 H 0.3505 0.2341 -0.2929
H25 H 0.3742 0.1623 -0.2492
C28 C 0.40167(9) 0.1701(2) -0.35415(11)
H26 H 0.3795 0.1576 -0.3815
C29 C 0.46011(11) 0.2025(4) -0.30972(13)
H27 H 0.4874 0.2162 -0.3002
C30 C 0.43713(11) 0.1998(4) -0.27787(14)
H28 H 0.4452 0.2111 -0.2428
N1 N 0.34570(8) -0.55007(18) -0.35703(9)
N2 N 0.39833(9) -0.55312(19) -0.38628(11)
N3 N 0.28950(7) -0.40692(17) -0.30531(8)
N4 N 0.26626(7) -0.25503(17) -0.32981(9)
N5 N 0.43800(7) 0.18249(18) -0.35827(9)
N6 N 0.40042(8) 0.17769(18) -0.30583(9)
N7 N 0.46883(7) 0.03196(17) -0.44219(9)
N8 N 0.49676(8) -0.11536(18) -0.44772(10)
O1 O 0.49776(6) -0.74114(14) -0.07635(7)
O2 O 0.46552(6) -0.80917(17) -0.15029(8)
O3 O 0.26571(6) -0.64731(14) -0.32907(7)
O4 O 0.24752(7) -0.54748(16) -0.39731(8)
O5 O 0.08065(6) -0.73410(15) -0.51797(7)
O6 O 0.12414(6) -0.62159(17) -0.53147(8)
C31 C 0.33684(9) -0.5897(2) -0.20632(11)
C32 C 0.36754(8) -0.6153(2) -0.15730(10)
C33 C 0.40194(8) -0.6670(2) -0.15770(10)
H29 H 0.4056 -0.6880 -0.1887
C34 C 0.43161(8) -0.6889(2) -0.11257(10)
C35 C 0.42643(9) -0.6523(2) -0.06671(11)
H30 H 0.4465 -0.6613 -0.0365
C36 C 0.39149(9) -0.6029(2) -0.06631(11)
H31 H 0.3878 -0.5811 -0.0354
C37 C 0.36193(9) -0.5852(2) -0.11092(11)
H32 H 0.3383 -0.5531 -0.1099
C38 C 0.24157(9) -0.6198(2) -0.37158(11)
C39 C 0.20410(8) -0.6819(2) -0.38957(10)
C40 C 0.17692(8) -0.6594(2) -0.43611(10)
H33 H 0.1822 -0.6053 -0.4554
C41 C 0.14242(8) -0.7153(2) -0.45436(10)
C42 C 0.13423(9) -0.7955(2) -0.42525(11)
H34 H 0.1110 -0.8335 -0.4370
C43 C 0.16100(10) -0.8183(2) -0.37872(12)
H35 H 0.1558 -0.8721 -0.3593
C44 C 0.19534(9) -0.7613(2) -0.36118(11)
H36 H 0.2129 -0.7766 -0.3296
O7 O 0.34869(6) -0.59619(15) -0.24692(7)
O8 O 0.30341(6) -0.56234(16) -0.20538(8)
Zn1 Zn 0.309730(10) -0.54866(2) -0.309710(12)
Zn2 Zn 0.456340(10) 0.17183(2) -0.421440(12)
O1A O 0.50224(6) 0.25886(14) -0.42365(7)
O5F O 0.41935(6) 0.23410(15) -0.48203(7)
Zn2A Zn 0.543660(10) -0.82817(2) -0.078560(12)
Zn2F Zn 0.043660(10) -0.67183(2) -0.578560(12)
loop_
_geom_bond_atom_site_label_1
_geom_bond_atom_site_label_2
_geom_bond_site_symmetry_1
_geom_bond_site_symmetry_2
C1 O1 1_555 1_555
C2 O5 1_555 1_555
C3 H1 1_555 1_555
C4 H2 1_555 1_555
C5 C4 1_555 1_555
H3 C5 1_555 1_555
C6 H4 1_555 1_555
H5 C6 1_555 1_555
C7 C6 1_555 1_555
C8 C7 1_555 1_555
H6 C8 1_555 1_555
C9 C8 1_555 1_555
H7 C9 1_555 1_555
C10 C9 1_555 1_555
C11 C10 1_555 1_555
H8 C11 1_555 1_555
C12 C7 1_555 1_555
H9 C12 1_555 1_555
C13 C10 1_555 1_555
H10 C13 1_555 1_555
H11 C13 1_555 1_555
C14 H12 1_555 1_555
C15 H13 1_555 1_555
C16 C15 1_555 1_555
H14 C16 1_555 1_555
C17 H15 1_555 1_555
C18 H16 1_555 1_555
C19 C18 1_555 1_555
H17 C19 1_555 1_555
C20 H18 1_555 1_555
H19 C20 1_555 1_555
C21 C20 1_555 1_555
C22 C21 1_555 1_555
H20 C22 1_555 1_555
C23 C22 1_555 1_555
H21 C23 1_555 1_555
C24 C23 1_555 1_555
C25 C24 1_555 1_555
H22 C25 1_555 1_555
C26 C21 1_555 1_555
H23 C26 1_555 1_555
C27 C24 1_555 1_555
H24 C27 1_555 1_555
H25 C27 1_555 1_555
C28 H26 1_555 1_555
C29 H27 1_555 1_555
C30 C29 1_555 1_555
H28 C30 1_555 1_555
N1 C3 1_555 1_555
N2 C3 1_555 1_555
N3 C17 1_555 1_555
N4 C17 1_555 1_555
N5 C28 1_555 1_555
N6 C27 1_555 1_555
N7 C14 1_555 1_555
N8 C13 1_555 1_555
O1 Zn2A 1_555 1_555
O2 C1 1_555 1_555
O3 C38 1_555 1_555
O4 C38 1_555 1_555
O5 Zn2F 1_555 1_555
O6 C2 1_555 1_555
C31 C32 1_555 1_555
C32 C33 1_555 1_555
C33 H29 1_555 1_555
C34 C1 1_555 1_555
C35 C34 1_555 1_555
H30 C35 1_555 1_555
C36 C35 1_555 1_555
H31 C36 1_555 1_555
C37 C32 1_555 1_555
H32 C37 1_555 1_555
C38 C39 1_555 1_555
C39 C40 1_555 1_555
C40 H33 1_555 1_555
C41 C2 1_555 1_555
C42 C41 1_555 1_555
H34 C42 1_555 1_555
C43 C42 1_555 1_555
H35 C43 1_555 1_555
C44 C39 1_555 1_555
H36 C44 1_555 1_555
O7 C31 1_555 1_555
O8 C31 1_555 1_555
Zn1 N1 1_555 1_555
Zn2 N5 1_555 1_555
O1A Zn2 1_555 1_555
O5F Zn2 1_555 1_555
C4 N1 1_555 1_555
C5 N2 1_555 1_555
C6 N2 1_555 1_555
C11 C12 1_555 1_555
C14 N8 1_555 1_555
C15 N7 1_555 1_555
C16 N8 1_555 1_555
C18 N3 1_555 1_555
C19 N4 1_555 1_555
C20 N4 1_555 1_555
C25 C26 1_555 1_555
C28 N6 1_555 1_555
C29 N5 1_555 1_555
C30 N6 1_555 1_555
N3 Zn1 1_555 1_555
N7 Zn2 1_555 1_555
O3 Zn1 1_555 1_555
C33 C34 1_555 1_555
C36 C37 1_555 1_555
C40 C41 1_555 1_555
C43 C44 1_555 1_555
O7 Zn1 1_555 1_555

#END
