
#######################################################################
#
#                 Cambridge Crystallographic Data Centre
#                                CCDC 
#
#######################################################################
#
# If this CIF has been generated from an entry in the Cambridge 
# Structural Database, then it will include bibliographic, chemical, 
# crystal, experimental, refinement or atomic coordinate data resulting 
# from the CCDC's data processing and validation procedures.
#
#######################################################################

data_YARGEF
_symmetry_cell_setting           monoclinic
_symmetry_space_group_name_H-M   'P 21/n'
_symmetry_Int_Tables_number      14
_space_group_name_Hall           '-P 2yn'
loop_
_symmetry_equiv_pos_site_id
_symmetry_equiv_pos_as_xyz
1 x,y,z
2 1/2-x,1/2+y,1/2-z
3 -x,-y,-z
4 1/2+x,1/2-y,1/2+z
_cell_length_a                   15.2766(11)
_cell_length_b                   19.7010(14)
_cell_length_c                   15.5903(11)
_cell_angle_alpha                90
_cell_angle_beta                 90.00
_cell_angle_gamma                90
_cell_volume                     4692.12
loop_
_atom_site_label
_atom_site_type_symbol
_atom_site_fract_x
_atom_site_fract_y
_atom_site_fract_z
Zn1 Zn -0.36593(5) 0.32452(4) 0.88092(5)
Zn2 Zn -0.37086(5) 0.17338(4) 0.87814(5)
C1 C -0.1976(4) 0.2096(4) 1.1416(4)
C2 C -0.2876(4) 0.3037(4) 0.5961(5)
H1 H -0.3311 0.3043 0.6397
C3 C -0.0352(4) 0.2777(4) 1.1110(4)
C4 C -0.1390(4) 0.2752(4) 0.5466(4)
C5 C 0.0517(4) 0.1962(4) 0.6634(5)
H2 H 0.0956 0.1967 0.6202
C6 C -0.0341(4) 0.2218(4) 0.6449(4)
C7 C -0.0988(4) 0.2218(4) 0.7116(4)
C8 C -0.0849(5) 0.3078(4) 0.9658(5)
H3 H -0.1289 0.3084 0.9227
C9 C -0.0762(5) 0.1926(4) 0.7923(4)
H4 H -0.1193 0.1906 0.8362
C10 C -0.2784(5) 0.1766(4) 1.1612(4)
H5 H -0.3234 0.1747 1.1191
C11 C -0.3064(5) 0.3294(4) 0.5180(5)
H6 H -0.3619 0.3498 0.5084
C12 C -0.2033(4) 0.2755(3) 0.6144(4)
O1 O -0.3768(3) 0.0729(3) 0.8771(3)
C13 C -0.1017(4) 0.2752(4) 1.0469(4)
C14 C -0.1631(5) 0.3010(4) 0.4646(5)
H7 H -0.1217 0.3005 0.4191
C15 C -0.1300(4) 0.2107(4) 1.2062(4)
C16 C 0.0456(5) 0.3101(4) 1.0927(5)
H8 H 0.0900 0.3115 1.1354
C17 C -0.1479(5) 0.1792(4) 1.2879(4)
H9 H -0.1046 0.1802 1.3316
C18 C -0.2453(5) 0.3265(4) 0.4507(5)
H10 H -0.2611 0.3423 0.3952
C19 C -0.2248(5) 0.1484(4) 1.3031(5)
H11 H -0.2346 0.1269 1.3567
C20 C -0.3199(5) 0.4712(4) 0.8928(5)
C21 C 0.0706(5) 0.1711(4) 0.7428(4)
H12 H 0.1281 0.1557 0.7552
C22 C -0.2917(5) 0.1477(5) 1.2396(5)
H13 H -0.3464 0.1269 1.2520
C23 C -0.1806(4) 0.2428(3) 1.0633(4)
C24 C -0.0503(4) 0.2454(3) 1.1908(4)
C25 C -0.0058(5) 0.3376(4) 0.9509(5)
H14 H 0.0053 0.3577 0.8967
N1 N -0.4245(5) -0.0328(4) 0.8539(5)
C26 C 0.0041(5) 0.1679(4) 0.8081(5)
H15 H 0.0171 0.1483 0.8623
C27 C -0.0547(4) 0.2480(3) 0.5646(4)
C28 C -0.2497(4) 0.2485(4) 0.7650(4)
C29 C 0.0603(5) 0.3392(4) 1.0152(5)
H16 H 0.1147 0.3606 1.0037
C30 C -0.1806(4) 0.2485(4) 0.6949(4)
C31 C -0.2515(4) 0.2433(4) 0.9952(4)
C32 C -0.4390(5) 0.0316(4) 0.8755(5)
C33 C 0.0172(4) 0.2486(4) 1.2597(4)
C34 C 0.0128(4) 0.2482(4) 0.4945(4)
N2 N -0.3486(5) 0.5348(3) 0.9041(5)
C35 C -0.4416(7) 0.5477(5) 0.9009(7)
H17 H -0.4538 0.5826 0.8577
H18 H -0.4617 0.5636 0.9572
H19 H -0.4725 0.5058 0.8858
C36 C -0.3332(7) -0.0556(5) 0.8402(7)
H20 H -0.2982 -0.0176 0.8185
H21 H -0.3325 -0.0927 0.7984
H22 H -0.3086 -0.0714 0.8947
C37 C -0.4902(7) -0.0863(5) 0.8551(7)
H23 H -0.4953 -0.1047 0.9133
H24 H -0.4728 -0.1226 0.8156
H25 H -0.5468 -0.0677 0.8372
C38 C -0.2918(8) 0.5925(5) 0.9143(8)
H26 H -0.2467 0.5820 0.9569
H27 H -0.3261 0.6316 0.9336
H28 H -0.2640 0.6031 0.8593
O3 O -0.2918(3) 0.1937(3) 0.7759(3)
O4 O 0.0246(3) 0.1941(3) 0.4544(3)
O5 O 0.0517(3) 0.3038(2) 0.4816(3)
O6 O 0.0245(3) 0.3037(2) 1.3001(3)
O7 O -0.2649(3) 0.1887(3) 0.9554(3)
O8 O 0.0603(3) 0.1951(2) 1.2740(3)
O9 O -0.2591(3) 0.3035(2) 0.8064(3)
O10 O -0.2921(3) 0.2983(3) 0.9850(3)
O11 O -0.3728(3) 0.4234(2) 0.8842(3)
C42 C -0.2229(6) 0.4581(5) 0.8931(7)
H35 H -0.2121 0.4095 0.8850
H36 H -0.1982 0.4726 0.9481
H37 H -0.1953 0.4837 0.8465
C43 C -0.5308(5) 0.0524(5) 0.8960(6)
H38 H -0.5318 0.1006 0.9116
H39 H -0.5526 0.0252 0.9440
H40 H -0.5680 0.0451 0.8456
Zn1C Zn 0.13407(5) 0.17548(4) 0.38092(5)
Zn1C_2 Zn 0.13407(5) 0.17548(4) 1.38092(5)
Zn2C Zn 0.12914(5) 0.32662(4) 0.37814(5)
Zn2C_2 Zn 0.12914(5) 0.32662(4) 1.37814(5)
O4C O -0.4754(3) 0.3059(3) 0.9544(3)
O5C O -0.4483(3) 0.1962(2) 0.9816(3)
O6C O -0.4755(3) 0.1963(2) 0.8001(3)
O8C O -0.4397(3) 0.3049(2) 0.7740(3)
N3 N -0.5757(5) 0.4564(4) 0.6053(5)
C39 C -0.5493(7) 0.4085(5) 0.5379(7)
H29 H -0.5991 0.3995 0.4999
H30 H -0.5299 0.3659 0.5643
H31 H -0.5011 0.4280 0.5045
O2 O -0.6651(4) 0.5362(3) 0.6570(4)
C40 C -0.5131(7) 0.4663(6) 0.6756(7)
H32 H -0.4641 0.4942 0.6555
H33 H -0.4911 0.4221 0.6947
H34 H -0.5423 0.4891 0.7235
C41 C -0.6488(6) 0.4930(4) 0.6014(6)
C44 C -0.7093(7) 0.4809(5) 0.5282(6)
H41 H -0.7604 0.5107 0.5336
H42 H -0.7285 0.4335 0.5286
H43 H -0.6790 0.4907 0.4742
O12 O 0.1702(4) 0.4625(3) 0.9237(4)
N4 N 0.1480(7) 0.5499(5) 0.8362(6)
C45 C 0.2959(6) 0.5322(6) 0.8746(7)
H44 H 0.3134 0.5380 0.8146
H45 H 0.3316 0.4966 0.9011
H46 H 0.3045 0.5750 0.9056
C46 C 0.1942(11) 0.5109(6) 0.8789(8)
C47 C 0.0517(6) 0.5353(6) 0.8457(7)
H47 H 0.0397 0.4888 0.8266
H48 H 0.0181 0.5673 0.8106
H49 H 0.0348 0.5402 0.9060
C48 C 0.1789(6) 0.6079(4) 0.7850(6)
H50 H 0.2082 0.6406 0.8226
H51 H 0.1288 0.6299 0.7571
H52 H 0.2201 0.5919 0.7413
loop_
_geom_bond_atom_site_label_1
_geom_bond_atom_site_label_2
_geom_bond_site_symmetry_1
_geom_bond_site_symmetry_2
Zn1 O9 1_555 1_555
Zn2 O1 1_555 1_555
C1 C10 1_555 1_555
C2 H1 1_555 1_555
C3 C13 1_555 1_555
C4 C12 1_555 1_555
C5 H2 1_555 1_555
C6 C5 1_555 1_555
C7 C6 1_555 1_555
C8 H3 1_555 1_555
C9 C7 1_555 1_555
H4 C9 1_555 1_555
C10 H5 1_555 1_555
C11 C2 1_555 1_555
H6 C11 1_555 1_555
C12 C2 1_555 1_555
O1 C32 1_555 1_555
C13 C8 1_555 1_555
C14 C4 1_555 1_555
H7 C14 1_555 1_555
C15 C1 1_555 1_555
C16 C3 1_555 1_555
H8 C16 1_555 1_555
C17 C15 1_555 1_555
H9 C17 1_555 1_555
C18 C11 1_555 1_555
H10 C18 1_555 1_555
C19 C17 1_555 1_555
H11 C19 1_555 1_555
C20 N2 1_555 1_555
C21 C5 1_555 1_555
H12 C21 1_555 1_555
C22 C10 1_555 1_555
H13 C22 1_555 1_555
C23 C1 1_555 1_555
C24 C3 1_555 1_555
C25 C8 1_555 1_555
H14 C25 1_555 1_555
N1 C32 1_555 1_555
C26 C9 1_555 1_555
H15 C26 1_555 1_555
C27 C4 1_555 1_555
C28 C30 1_555 1_555
C29 C16 1_555 1_555
H16 C29 1_555 1_555
C30 C7 1_555 1_555
C31 C23 1_555 1_555
C32 C43 1_555 1_555
C33 C24 1_555 1_555
C34 C27 1_555 1_555
N2 C35 1_555 1_555
C35 H17 1_555 1_555
H18 C35 1_555 1_555
H19 C35 1_555 1_555
C36 N1 1_555 1_555
H20 C36 1_555 1_555
H21 C36 1_555 1_555
H22 C36 1_555 1_555
C37 N1 1_555 1_555
H23 C37 1_555 1_555
H24 C37 1_555 1_555
H25 C37 1_555 1_555
C38 N2 1_555 1_555
H26 C38 1_555 1_555
H27 C38 1_555 1_555
H28 C38 1_555 1_555
N3 C39 1_555 1_555
C39 H29 1_555 1_555
H30 C39 1_555 1_555
H31 C39 1_555 1_555
O2 C41 1_555 1_555
C40 N3 1_555 1_555
H32 C40 1_555 1_555
H33 C40 1_555 1_555
H34 C40 1_555 1_555
O3 Zn2 1_555 1_555
O4 C34 1_555 1_555
O5 C34 1_555 1_555
O6 C33 1_555 1_555
O7 Zn2 1_555 1_555
O8 C33 1_555 1_555
O9 C28 1_555 1_555
O10 Zn1 1_555 1_555
O11 Zn1 1_555 1_555
O12 C46 1_555 1_555
C41 N3 1_555 1_555
C42 C20 1_555 1_555
H35 C42 1_555 1_555
H36 C42 1_555 1_555
H37 C42 1_555 1_555
C43 H38 1_555 1_555
H39 C43 1_555 1_555
H40 C43 1_555 1_555
C44 C41 1_555 1_555
H41 C44 1_555 1_555
H42 C44 1_555 1_555
H43 C44 1_555 1_555
N4 C46 1_555 1_555
C45 H44 1_555 1_555
H45 C45 1_555 1_555
H46 C45 1_555 1_555
C46 C45 1_555 1_555
C47 N4 1_555 1_555
H47 C47 1_555 1_555
H48 C47 1_555 1_555
H49 C47 1_555 1_555
C48 N4 1_555 1_555
H50 C48 1_555 1_555
H51 C48 1_555 1_555
H52 C48 1_555 1_555
Zn1C O4 1_555 1_555
Zn1C_2 O8 1_555 1_555
Zn2C O5 1_555 1_555
Zn2C_2 O6 1_555 1_555
O4C Zn1 1_555 1_555
O5C Zn2 1_555 1_555
O6C Zn2 1_555 1_555
O8C Zn1 1_555 1_555
C6 C27 1_555 1_555
C12 C30 1_555 1_555
C13 C23 1_555 1_555
C14 C18 1_555 1_555
C15 C24 1_555 1_555
C19 C22 1_555 1_555
C20 O11 1_555 1_555
C21 C26 1_555 1_555
C25 C29 1_555 1_555
C28 O3 1_555 1_555
C31 O7 1_555 1_555
C31 O10 1_555 1_555

#END
