
#######################################################################
#
#                 Cambridge Crystallographic Data Centre
#                                CCDC 
#
#######################################################################
#
# If this CIF has been generated from an entry in the Cambridge 
# Structural Database, then it will include bibliographic, chemical, 
# crystal, experimental, refinement or atomic coordinate data resulting 
# from the CCDC's data processing and validation procedures.
#
#######################################################################

data_YARJEI
_symmetry_cell_setting           triclinic
_symmetry_space_group_name_H-M   'P -1'
_symmetry_Int_Tables_number      2
_space_group_name_Hall           '-P 1'
loop_
_symmetry_equiv_pos_site_id
_symmetry_equiv_pos_as_xyz
1 x,y,z
2 -x,-y,-z
_cell_length_a                   3.6084(7)
_cell_length_b                   9.9374(17)
_cell_length_c                   12.728(2)
_cell_angle_alpha                73.315(3)
_cell_angle_beta                 87.944(3)
_cell_angle_gamma                84.004(3)
_cell_volume                     434.786
loop_
_atom_site_label
_atom_site_type_symbol
_atom_site_fract_x
_atom_site_fract_y
_atom_site_fract_z
Ag1 Ag 0.20577(8) 0.02356(3) 1.08703(2)
O1 O 0.1546(8) 0.2317(3) 0.9614(2)
O2 O -0.0811(8) 0.1893(3) 0.8146(2)
N1 N 0.4614(9) 0.8771(3) 0.7985(3)
C1 C 0.4039(11) 0.9341(4) 0.6908(3)
H1 H 0.4456 1.0302 0.6590
C2 C 0.2867(11) 0.8595(4) 0.6238(3)
H2 H 0.2506 0.9036 0.5476
C3 C 0.2220(11) 0.7182(4) 0.6698(3)
H3 H 0.1416 0.6647 0.6254
C4 C 0.2772(10) 0.6578(4) 0.7810(3)
C5 C 0.3987(11) 0.7414(4) 0.8416(3)
H4 H 0.4395 0.6999 0.9179
C6 C 0.2202(10) 0.5105(4) 0.8392(3)
H5 H 0.2771 0.4794 0.9152
C7 C 0.0967(10) 0.4161(4) 0.7962(3)
H6 H 0.0336 0.4439 0.7206
C8 C 0.0546(10) 0.2678(4) 0.8632(3)
Ag1A Ag -0.20577(8) -0.02356(3) 0.91297(2)
Ag1A_2 Ag 0.79423(8) 0.97644(3) 0.91297(2)
O2A O 0.0811(8) -0.1893(3) 1.1854(2)
N1A N 0.5386(9) 0.1229(3) 1.2015(3)
O3 O 0.716(4) 0.5627(12) 0.4951(9)
O4 O 0.321(3) 0.7190(9) 0.4027(7)
O5? O 0.099(3) 0.7320(9) 0.4093(7)
loop_
_geom_bond_atom_site_label_1
_geom_bond_atom_site_label_2
_geom_bond_site_symmetry_1
_geom_bond_site_symmetry_2
Ag1 O1 1_555 1_555
O1 C8 1_555 1_555
O2 C8 1_555 1_555
N1 C1 1_555 1_555
C1 H1 1_555 1_555
C2 C1 1_555 1_555
H2 C2 1_555 1_555
C3 C2 1_555 1_555
H3 C3 1_555 1_555
C4 C3 1_555 1_555
C5 N1 1_555 1_555
H4 C5 1_555 1_555
C6 C4 1_555 1_555
H5 C6 1_555 1_555
C7 C6 1_555 1_555
H6 C7 1_555 1_555
C8 C7 1_555 1_555
Ag1A Ag1 1_555 1_555
Ag1A_2 N1 1_555 1_555
O2A Ag1 1_555 1_555
N1A Ag1 1_555 1_555
O2 Ag1A 1_555 1_555
C4 C5 1_555 1_555

#END
