
#######################################################################
#
#                 Cambridge Crystallographic Data Centre
#                                CCDC 
#
#######################################################################
#
# If this CIF has been generated from an entry in the Cambridge 
# Structural Database, then it will include bibliographic, chemical, 
# crystal, experimental, refinement or atomic coordinate data resulting 
# from the CCDC's data processing and validation procedures.
#
#######################################################################

data_YARJIM
_symmetry_cell_setting           triclinic
_symmetry_space_group_name_H-M   'P -1'
_symmetry_Int_Tables_number      2
_space_group_name_Hall           '-P 1'
loop_
_symmetry_equiv_pos_site_id
_symmetry_equiv_pos_as_xyz
1 x,y,z
2 -x,-y,-z
_cell_length_a                   9.1159(8)
_cell_length_b                   9.6256(8)
_cell_length_c                   12.3162(11)
_cell_angle_alpha                106.127(2)
_cell_angle_beta                 106.549(2)
_cell_angle_gamma                99.865(2)
_cell_volume                     957.653
loop_
_atom_site_label
_atom_site_type_symbol
_atom_site_fract_x
_atom_site_fract_y
_atom_site_fract_z
O5 O -0.7162(3) -0.4492(3) -0.4170(3)
H13 H -0.685(7) -0.508(6) -0.445(5)
H14 H -0.728(6) -0.404(6) -0.459(5)
O6 O 0.9258(4) 0.5280(3) 0.2978(3)
H15 H 1.015(8) 0.580(7) 0.338(6)
H16 H 0.882(7) 0.517(6) 0.342(5)
Ag1 Ag -0.13557(3) -0.33627(3) -0.27784(2)
Ag2 Ag -0.55254(4) -0.73212(5) -0.74829(3)
O1 O -0.2854(3) -0.5171(3) -0.2572(2)
O2 O -0.2534(3) -0.6901(3) -0.4072(2)
O3 O -0.6127(3) -0.6673(3) -0.5382(2)
O4 O -0.5828(3) -0.8816(3) -0.6431(2)
N1 N -0.5522(4) -0.7147(4) 0.0805(3)
N2 N -0.9863(4) -1.1503(3) -0.2940(3)
C1 C -0.4527(4) -0.7643(4) -0.3287(3)
H1 H -0.4081 -0.8320 -0.2907
C2 C -0.5968(4) -0.8585(4) -0.4492(3)
H2 H -0.6049 -0.9663 -0.4736
C3 C -0.7141(4) -0.8156(4) -0.3837(3)
H3 H -0.7816 -0.7614 -0.4226
C4 C -0.5675(4) -0.7034(4) -0.2696(3)
H4 H -0.5613 -0.6003 -0.2684
C5 C -0.3198(4) -0.6485(4) -0.3325(3)
C6 C -0.5990(4) -0.7975(4) -0.5506(3)
C7 C -0.4533(5) -0.7697(6) 0.0301(4)
H5 H -0.3800 -0.8092 0.0727
C8 C -0.4548(5) -0.7706(5) -0.0834(4)
H6 H -0.3851 -0.8120 -0.1158
C9 C -0.5601(4) -0.7097(4) -0.1477(3)
C10 C -0.6629(4) -0.6520(4) -0.0950(3)
H7 H -0.7363 -0.6105 -0.1351
C11 C -0.6550(4) -0.6569(4) 0.0177(3)
H8 H -0.7247 -0.6179 0.0516
C12 C -0.8532(4) -1.1661(4) -0.3151(3)
H9 H -0.8199 -1.2505 -0.3087
C13 C -0.7617(4) -1.0632(4) -0.3462(3)
H10 H -0.6693 -1.0788 -0.3592
C14 C -0.8097(4) -0.9371(4) -0.3575(3)
C15 C -0.9480(4) -0.9202(4) -0.3348(3)
H11 H -0.9840 -0.8370 -0.3408
C16 C -1.0319(4) -1.0267(4) -0.3032(3)
H12 H -1.1234 -1.0126 -0.2878
Ag1_2 Ag -1.13557(3) -1.33627(3) -0.27784(2)
Ag2_2 Ag -0.55254(4) -0.73212(5) 0.25171(3)
N1_2 N -0.5522(4) -0.7147(4) -0.9195(3)
N2_2 N 0.0137(4) -0.1503(3) -0.2940(3)
O7? O 1.0267(15) 0.5713(19) 0.0408(14)
H17? H 1.0430 0.6372 0.1051
C17? C 0.940(2) 0.425(3) 0.040(2)
H18? H 0.9780 0.4188 0.1190
H19? H 0.9567 0.3444 -0.0170
H20? H 0.8280 0.4181 0.0171
O8? O 1.053(2) 0.976(2) 0.0114(13)
O9? O 0.8608(16) 1.0485(19) -0.0284(15)
loop_
_geom_bond_atom_site_label_1
_geom_bond_atom_site_label_2
_geom_bond_site_symmetry_1
_geom_bond_site_symmetry_2
Ag1 O1 1_555 1_555
Ag2 O4 1_555 1_555
O1 C5 1_555 1_555
O2 C5 1_555 1_555
O3 C6 1_555 1_555
O4 C6 1_555 1_555
N1 C7 1_555 1_555
N2 C12 1_555 1_555
C1 H1 1_555 1_555
C2 C1 1_555 1_555
H2 C2 1_555 1_555
C3 C2 1_555 1_555
H3 C3 1_555 1_555
C4 C1 1_555 1_555
H4 C4 1_555 1_555
C5 C1 1_555 1_555
C6 C2 1_555 1_555
C7 H5 1_555 1_555
C8 C7 1_555 1_555
H6 C8 1_555 1_555
C9 C4 1_555 1_555
C10 C9 1_555 1_555
H7 C10 1_555 1_555
C11 N1 1_555 1_555
H8 C11 1_555 1_555
C12 H9 1_555 1_555
C13 C12 1_555 1_555
H10 C13 1_555 1_555
C14 C3 1_555 1_555
C15 C14 1_555 1_555
H11 C15 1_555 1_555
C16 N2 1_555 1_555
H12 C16 1_555 1_555
O5 H13 1_555 1_555
H14 O5 1_555 1_555
O6 H15 1_555 1_555
H16 O6 1_555 1_555
Ag1_2 N2 1_555 1_555
Ag2_2 N1 1_555 1_555
N1_2 Ag2 1_555 1_555
N2_2 Ag1 1_555 1_555
C3 C4 1_555 1_555
C8 C9 1_555 1_555
C10 C11 1_555 1_555
C13 C14 1_555 1_555
C15 C16 1_555 1_555

#END
