
#######################################################################
#
#                 Cambridge Crystallographic Data Centre
#                                CCDC 
#
#######################################################################
#
# If this CIF has been generated from an entry in the Cambridge 
# Structural Database, then it will include bibliographic, chemical, 
# crystal, experimental, refinement or atomic coordinate data resulting 
# from the CCDC's data processing and validation procedures.
#
#######################################################################

data_YARJOS
_symmetry_cell_setting           monoclinic
_symmetry_space_group_name_H-M   'P 21/c'
_symmetry_Int_Tables_number      14
_space_group_name_Hall           '-P 2ybc'
loop_
_symmetry_equiv_pos_site_id
_symmetry_equiv_pos_as_xyz
1 x,y,z
2 -x,1/2+y,1/2-z
3 -x,-y,-z
4 x,1/2-y,1/2+z
_cell_length_a                   9.8546(9)
_cell_length_b                   11.4723(10)
_cell_length_c                   6.9163(6)
_cell_angle_alpha                90
_cell_angle_beta                 109.346(2)
_cell_angle_gamma                90
_cell_volume                     737.771
loop_
_atom_site_label
_atom_site_type_symbol
_atom_site_fract_x
_atom_site_fract_y
_atom_site_fract_z
Ag1 Ag 0.21434(5) -0.17348(3) 0.51752(6)
O1 O 0.3428(4) -0.3746(3) 0.4717(6)
O2 O 0.1369(4) -0.3489(3) 0.5302(7)
N1 N 0.2461(4) -0.9896(3) 0.5073(6)
C1 C 0.3766(5) -0.9404(4) 0.5916(7)
H1 H 0.4556 -0.9889 0.6556
C2 C 0.3990(5) -0.8222(4) 0.5878(7)
H2 H 0.4927 -0.7919 0.6423
C3 C 0.2826(4) -0.7469(4) 0.5030(6)
C4 C 0.1474(5) -0.7980(4) 0.4179(6)
H3 H 0.0658 -0.7511 0.3586
C5 C 0.1340(5) -0.9177(4) 0.4210(7)
H4 H 0.0424 -0.9508 0.3602
C6 C 0.3066(4) -0.6208(4) 0.5072(6)
H5 H 0.3997 -0.5942 0.5216
C7 C 0.2040(4) -0.5405(3) 0.4917(6)
H6 H 0.1104 -0.5660 0.4762
C8 C 0.2328(4) -0.4136(4) 0.4979(6)
Ag1_2 Ag 0.21434(5) -1.17348(3) 0.51752(6)
N1_2 N 0.2461(4) 0.0104(3) 0.5073(6)
loop_
_geom_bond_atom_site_label_1
_geom_bond_atom_site_label_2
_geom_bond_site_symmetry_1
_geom_bond_site_symmetry_2
Ag1 O2 1_555 1_555
O1 C8 1_555 1_555
O2 C8 1_555 1_555
N1 C1 1_555 1_555
C1 H1 1_555 1_555
C2 C1 1_555 1_555
H2 C2 1_555 1_555
C3 C2 1_555 1_555
C4 C3 1_555 1_555
H3 C4 1_555 1_555
C5 N1 1_555 1_555
H4 C5 1_555 1_555
C6 C3 1_555 1_555
H5 C6 1_555 1_555
C7 C6 1_555 1_555
H6 C7 1_555 1_555
C8 C7 1_555 1_555
Ag1_2 N1 1_555 1_555
N1_2 Ag1 1_555 1_555
C4 C5 1_555 1_555

#END
