
#######################################################################
#
#                 Cambridge Crystallographic Data Centre
#                                CCDC 
#
#######################################################################
#
# If this CIF has been generated from an entry in the Cambridge 
# Structural Database, then it will include bibliographic, chemical, 
# crystal, experimental, refinement or atomic coordinate data resulting 
# from the CCDC's data processing and validation procedures.
#
#######################################################################

data_YARKUZ
_symmetry_cell_setting           monoclinic
_symmetry_space_group_name_H-M   'C 2/c'
_symmetry_Int_Tables_number      15
_space_group_name_Hall           '-C 2yn'
loop_
_symmetry_equiv_pos_site_id
_symmetry_equiv_pos_as_xyz
1 x,y,z
2 -x,y,1/2-z
3 1/2+x,1/2+y,z
4 1/2-x,1/2+y,1/2-z
5 -x,-y,-z
6 x,-y,1/2+z
7 1/2-x,1/2-y,-z
8 1/2+x,1/2-y,1/2+z
_cell_length_a                   8.251(2)
_cell_length_b                   11.315(2)
_cell_length_c                   16.222(4)
_cell_angle_alpha                90
_cell_angle_beta                 101.949(6)
_cell_angle_gamma                90
_cell_volume                     1481.67
loop_
_atom_site_label
_atom_site_type_symbol
_atom_site_fract_x
_atom_site_fract_y
_atom_site_fract_z
Ag1 Ag 0.5000 0.35848(2) 0.7500
N1 N 0.2886(2) 0.49040(18) 0.68866(12)
H1 H 0.1895 0.4642 0.6995
H2 H 0.3102 0.5634 0.7135
N2 N 0.0254(3) 0.2804(2) 0.35552(13)
C1 C 0.0934(3) 0.3474(2) 0.40236(16)
C2 C 0.1806(3) 0.4323(2) 0.46043(15)
C3 C 0.1891(3) 0.4189(2) 0.54638(15)
H3 H 0.1379 0.3533 0.5671
C4 C 0.2731(3) 0.5022(2) 0.60126(15)
C5 C 0.3481(4) 0.5966(2) 0.56907(17)
H4 H 0.4072 0.6538 0.6065
C6 C 0.2549(4) 0.5274(2) 0.42879(17)
H5 H 0.2479 0.5359 0.3699
C7 C 0.3379(4) 0.6084(3) 0.48399(19)
H6 H 0.3894 0.6739 0.4633
Ag1F Ag 0.0000 0.14152(2) 0.2500
Ag1F_2 Ag 1.0000 0.14152(2) 1.2500
N1A N 0.7114(2) 0.49040(18) 0.81134(12)
H1A H 0.8105 0.4642 0.8005
H2A H 0.6898 0.5634 0.7865
N2A N 0.9746(3) 0.2804(2) 1.14448(13)
N2F N 0.4746(3) 0.2196(2) 0.64448(13)
N2G N 0.5254(3) 0.2196(2) 0.85552(13)
C1A C 0.9066(3) 0.3474(2) 1.09764(16)
C2A C 0.8194(3) 0.4323(2) 1.03957(15)
C3A C 0.8109(3) 0.4189(2) 0.95362(15)
H3A H 0.8621 0.3533 0.9329
C4A C 0.7269(3) 0.5022(2) 0.89874(15)
C5A C 0.6519(4) 0.5966(2) 0.93093(17)
H4A H 0.5928 0.6538 0.8935
C6A C 0.7451(4) 0.5274(2) 1.07121(17)
H5A H 0.7521 0.5359 1.1301
C7A C 0.6621(4) 0.6084(3) 1.01601(19)
H6A H 0.6106 0.6739 1.0367
O1 O 0.0000 0.3986(2) 0.7500
O2 O 0.1143(2) 0.23468(16) 0.72716(13)
N3 N 0.0000 0.2877(3) 0.7500
O2A O -0.1143(2) 0.23468(16) 0.77284(13)
loop_
_geom_bond_atom_site_label_1
_geom_bond_atom_site_label_2
_geom_bond_site_symmetry_1
_geom_bond_site_symmetry_2
Ag1 N1 1_555 1_555
N1 H1 1_555 1_555
H2 N1 1_555 1_555
N2 C1 1_555 1_555
C1 C2 1_555 1_555
C2 C3 1_555 1_555
C3 H3 1_555 1_555
C4 N1 1_555 1_555
C5 C4 1_555 1_555
H4 C5 1_555 1_555
C6 C2 1_555 1_555
H5 C6 1_555 1_555
C7 C5 1_555 1_555
H6 C7 1_555 1_555
O1 N3 1_555 1_555
O2 N3 1_555 1_555
N3 O2A 1_555 1_555
Ag1F N2 1_555 1_555
Ag1F_2 N2A 1_555 1_555
N1A Ag1 1_555 1_555
H1A N1A 1_555 1_555
H2A N1A 1_555 1_555
N2A C1A 1_555 1_555
N2F Ag1 1_555 1_555
N2G Ag1 1_555 1_555
C1A C2A 1_555 1_555
C2A C3A 1_555 1_555
C3A H3A 1_555 1_555
C4A N1A 1_555 1_555
C5A C4A 1_555 1_555
H4A C5A 1_555 1_555
C6A C2A 1_555 1_555
H5A C6A 1_555 1_555
C7A C5A 1_555 1_555
H6A C7A 1_555 1_555
C3 C4 1_555 1_555
C6 C7 1_555 1_555
C3A C4A 1_555 1_555
C6A C7A 1_555 1_555

#END
