
#######################################################################
#
#                 Cambridge Crystallographic Data Centre
#                                CCDC 
#
#######################################################################
#
# If this CIF has been generated from an entry in the Cambridge 
# Structural Database, then it will include bibliographic, chemical, 
# crystal, experimental, refinement or atomic coordinate data resulting 
# from the CCDC's data processing and validation procedures.
#
#######################################################################

data_YARKAF
_symmetry_cell_setting           triclinic
_symmetry_space_group_name_H-M   'P -1'
_symmetry_Int_Tables_number      2
_space_group_name_Hall           '-P 1'
loop_
_symmetry_equiv_pos_site_id
_symmetry_equiv_pos_as_xyz
1 x,y,z
2 -x,-y,-z
_cell_length_a                   13.8606(4)
_cell_length_b                   16.9142(5)
_cell_length_c                   18.1588(5)
_cell_angle_alpha                112.895(3)
_cell_angle_beta                 96.840(2)
_cell_angle_gamma                101.840(2)
_cell_volume                     3743.76
loop_
_atom_site_label
_atom_site_type_symbol
_atom_site_fract_x
_atom_site_fract_y
_atom_site_fract_z
Zn1 Zn 0.83887(5) 0.65338(4) 0.14821(4)
Zn2 Zn 0.17854(5) -0.14901(4) -0.15318(4)
Zn3 Zn 1.85881(5) 1.07231(5) 0.40150(4)
Zn4 Zn 0.85004(5) 0.58633(5) -0.60365(4)
C1 C 1.1182(4) 0.6429(4) 0.3297(3)
C2 C 1.1057(4) 0.6268(4) 0.2472(3)
C3 C 1.1892(4) 0.6261(4) 0.2103(4)
H1 H 1.1809 0.6145 0.1551
C4 C 1.2828(4) 0.6426(4) 0.2563(4)
C5 C 1.2979(5) 0.6598(5) 0.3375(4)
H2 H 1.3625 0.6721 0.3678
C6 C 1.2159(5) 0.6586(5) 0.3737(4)
H3 H 1.2255 0.6685 0.4285
C7 C 1.0324(4) 0.6353(4) 0.3707(3)
C8 C 1.0063(4) 0.6138(4) 0.1944(4)
C9 C 1.6291(4) 0.8395(4) 0.2998(4)
C10 C 1.6267(4) 0.7519(4) 0.2586(3)
C11 C 1.5371(4) 0.6849(4) 0.2329(3)
H4 H 1.5368 0.6257 0.2049
C12 C 1.4488(4) 0.7056(4) 0.2484(4)
C13 C 1.4488(5) 0.7934(5) 0.2907(5)
H5 H 1.3891 0.8076 0.3015
C14 C 1.5380(5) 0.8596(4) 0.3165(4)
H6 H 1.5384 0.9187 0.3455
C15 C 1.7264(5) 0.9124(4) 0.3315(4)
C16 C 1.7183(4) 0.7223(4) 0.2348(3)
C17 C 0.3864(4) -0.3575(4) -0.2811(4)
C18 C 0.3906(4) -0.2692(4) -0.2531(3)
C19 C 0.4835(4) -0.2043(4) -0.2256(4)
H7 H 0.4855 -0.1443 -0.2064
C20 C 0.5712(4) -0.2290(5) -0.2270(4)
C21 C 0.5689(5) -0.3180(5) -0.2547(5)
H8 H 0.6288 -0.3348 -0.2553
C22 C 0.4773(5) -0.3817(4) -0.2814(4)
H9 H 0.4757 -0.4416 -0.3000
C23 C 0.2887(5) -0.4283(4) -0.3191(4)
C24 C 0.2987(4) -0.2340(4) -0.2431(4)
C25 C 0.8825(4) -0.1417(4) -0.3275(3)
C26 C 0.9071(4) -0.1262(4) -0.2452(3)
C27 C 0.8309(4) -0.1343(4) -0.2024(4)
H10 H 0.8479 -0.1219 -0.1472
C28 C 0.7307(4) -0.1605(4) -0.2419(4)
C29 C 0.7041(4) -0.1786(5) -0.3233(4)
H11 H 0.6363 -0.1979 -0.3500
C30 C 0.7795(4) -0.1676(5) -0.3652(4)
H12 H 0.7614 -0.1778 -0.4198
C31 C 0.9604(4) -0.1247(4) -0.3734(4)
C32 C 1.0118(4) -0.1074(4) -0.1982(4)
C33 C 0.8253(6) 0.7211(5) 0.0182(4)
H13 H 0.7915 0.7575 0.0517
C34 C 0.8320(7) 0.7232(5) -0.0556(4)
H14 H 0.8023 0.7603 -0.0715
C35 C 0.8826(5) 0.6709(4) -0.1066(4)
C36 C 0.9245(5) 0.6183(5) -0.0794(4)
H15 H 0.9597 0.5822 -0.1116
C37 C 0.9153(5) 0.6182(5) -0.0044(4)
H16 H 0.9448 0.5817 0.0126
C38 C 0.7947(8) 0.5852(7) -0.4554(5)
H17 H 0.7326 0.5822 -0.4838
C39 C 0.8006(8) 0.5861(7) -0.3774(5)
H18 H 0.7430 0.5835 -0.3559
C40 C 0.8857(8) 0.5906(7) -0.3346(5)
C41 C 0.9666(8) 0.5971(6) -0.3670(5)
H19 H 1.0294 0.6024 -0.3379
C42 C 0.9568(7) 0.5958(6) -0.4445(5)
H20 H 1.0147 0.6004 -0.4655
C43 C 0.8922(8) 0.6717(6) -0.1878(5)
H21 H 0.8388 0.6938 -0.2053
H22 H 0.9560 0.7137 -0.1801
C44 C 0.8877(8) 0.5869(6) -0.2528(5)
H23 H 0.8275 0.5428 -0.2572
H24 H 0.9459 0.5678 -0.2390
C45 C 0.7404(7) 0.4768(5) 0.1377(5)
H25 H 0.7858 0.4986 0.1876
C46 C 0.6752(7) 0.3924(6) 0.1078(5)
H26 H 0.6764 0.3599 0.1389
C47 C 0.6112(8) 0.3566(6) 0.0360(6)
C48 C 0.6154(7) 0.4105(6) -0.0083(6)
H27 H 0.5749 0.3884 -0.0605
C49 C 0.6793(7) 0.4946(6) 0.0268(5)
H28 H 0.6790 0.5299 -0.0018
C50 C 0.2728(7) 0.0254(5) -0.1481(5)
H29 H 0.2243 0.0033 -0.1965
C51 C 0.3344(7) 0.1112(6) -0.1192(5)
H30 H 0.3293 0.1442 -0.1495
C52 C 0.4012(7) 0.1469(6) -0.0480(6)
C53 C 0.4026(7) 0.0921(6) -0.0036(6)
H31 H 0.4442 0.1148 0.0482
C54 C 0.3426(7) 0.0076(6) -0.0387(5)
H32 H 0.3461 -0.0283 -0.0111
C55 C 0.5566(7) 0.2512(6) -0.0110(6)
H33 H 0.5603 0.2273 -0.0683
H34 H 0.5846 0.2180 0.0150
C56 C 0.4568(7) 0.2516(5) -0.0015(6)
H35 H 0.4290 0.2849 -0.0274
H36 H 0.4533 0.2756 0.0558
C57 C 0.1843(6) -0.2173(5) -0.0254(4)
H37 H 0.2159 -0.2553 -0.0599
C58 C 0.1763(7) -0.2215(5) 0.0472(5)
H38 H 0.2031 -0.2610 0.0616
C59 C 0.1282(6) -0.1666(4) 0.0998(4)
C60 C 0.0890(6) -0.1113(5) 0.0742(4)
H39 H 0.0537 -0.0752 0.1061
C61 C 0.1023(5) -0.1095(5) -0.0001(4)
H40 H 0.0774 -0.0701 -0.0157
C62 C 0.2183(6) -0.0667(6) 0.4594(5)
H41 H 0.2785 -0.0571 0.4944
C63 C 0.2198(7) -0.0683(6) 0.3834(5)
H42 H 0.2811 -0.0595 0.3677
C64 C 0.1324(8) -0.0827(5) 0.3302(5)
C65 C 0.0431(7) -0.0989(5) 0.3550(4)
H43 H -0.0183 -0.1110 0.3202
C66 C 0.0454(6) -0.0970(5) 0.4311(4)
H44 H -0.0155 -0.1090 0.4466
C67 C 0.1197(8) -0.1671(5) 0.1814(4)
H45 H 0.1704 -0.1929 0.1971
H46 H 0.0539 -0.2055 0.1753
C68 C 0.1318(9) -0.0803(6) 0.2470(5)
H47 H 0.1948 -0.0401 0.2502
H48 H 0.0772 -0.0567 0.2342
N1 N 0.8663(4) 0.6678(3) 0.0440(3)
N2 N 0.8714(6) 0.5885(5) -0.4904(4)
N3 N 0.7411(6) 0.5282(4) 0.0984(4)
N4 N 0.2789(5) -0.0265(4) -0.1109(4)
N5 N 0.1492(4) -0.1617(3) -0.0494(3)
N6 N 0.1305(4) -0.0788(4) 0.4839(3)
O1 O 0.9484(3) 0.5801(3) 0.3266(2)
O2 O 1.8213(4) 1.1874(3) 0.4235(3)
H55 H 1.8632 1.2299 0.4648
H56 H 1.8070 1.2121 0.3924
O3 O 0.8119(3) 0.7013(3) -0.5776(3)
H57 H 0.7921 0.7057 -0.6217
H58 H 0.8520 0.7480 -0.5388
O4 O 1.0447(3) 0.6787(3) 0.4449(3)
O5 O 0.9653(3) 0.6765(3) 0.2205(2)
O7 O 0.9739(3) 0.5474(3) 0.1290(3)
O9 O 1.7213(3) 0.9916(3) 0.3438(3)
O11 O 1.8068(3) 0.8959(3) 0.3447(3)
O13 O 1.7580(3) 0.6822(3) 0.2689(3)
O15 O 1.7447(3) 0.7309(3) 0.1734(3)
O16 O 1.3618(3) 0.6360(3) 0.2158(3)
O17 O 0.2892(3) -0.5090(3) -0.3410(3)
O18 O 0.2091(3) -0.4082(3) -0.3302(3)
O19 O 0.2636(3) -0.2313(3) -0.1819(3)
O20 O 0.2720(4) -0.1986(4) -0.2871(3)
O21 O 1.0460(3) -0.0712(3) -0.3306(2)
O22 O 0.9414(4) -0.1600(3) -0.4482(3)
O23 O 1.0551(3) -0.1692(3) -0.2265(3)
O24 O 1.0463(3) -0.0396(3) -0.1344(3)
O25 O 0.6619(3) -0.1628(3) -0.1933(3)
Zn1_2 Zn -0.16113(5) 0.65338(4) 0.14821(4)
Zn1_3 Zn 1.83887(5) 0.65338(4) 0.14821(4)
Zn2_2 Zn -0.82146(5) -0.14901(4) -0.15318(4)
Zn2_3 Zn 1.17854(5) -0.14901(4) -0.15318(4)
Zn2A Zn 1.82146(5) 1.14901(4) 1.15318(4)
Zn3_2 Zn 0.85881(5) 1.07231(5) 0.40150(4)
Zn3A Zn 0.14119(5) -0.07231(5) 0.59850(4)
Zn3A_2 Zn 1.14119(5) -0.07231(5) -0.40150(4)
Zn3A_3 Zn 0.14119(5) -0.07231(5) -0.40150(4)
Zn4_2 Zn 0.85004(5) 0.58633(5) 0.39635(4)
Zn4A Zn 0.14996(5) -0.58633(5) -0.39635(4)
Zn4_3 Zn -0.14996(5) 0.58633(5) 0.39635(4)
Zn4A_2 Zn -0.85004(5) -0.58633(5) -0.39635(4)
Zn4_4 Zn -0.14996(5) 0.58633(5) -0.60365(4)
C1_2 C 0.1182(4) 0.6429(4) 0.3297(3)
C2_2 C 0.1057(4) 0.6268(4) 0.2472(3)
C3_2 C 0.1892(4) 0.6261(4) 0.2103(4)
H1_2 H 0.1809 0.6145 0.1551
C4_2 C 0.2828(4) 0.6426(4) 0.2563(4)
C5_2 C 0.2979(5) 0.6598(5) 0.3375(4)
H2_2 H 0.3625 0.6721 0.3678
C6_2 C 0.2159(5) 0.6586(5) 0.3737(4)
H3_2 H 0.2255 0.6685 0.4285
C7_2 C 0.0324(4) 0.6353(4) 0.3707(3)
C8_2 C 0.0063(4) 0.6138(4) 0.1944(4)
C9_2 C 0.6291(4) 0.8395(4) 0.2998(4)
C10_2 C 0.6267(4) 0.7519(4) 0.2586(3)
C11_2 C 0.5371(4) 0.6849(4) 0.2329(3)
H4_2 H 0.5368 0.6257 0.2049
C12_2 C 0.4488(4) 0.7056(4) 0.2484(4)
C13_2 C 0.4488(5) 0.7934(5) 0.2907(5)
H5_2 H 0.3891 0.8076 0.3015
C14_2 C 0.5380(5) 0.8596(4) 0.3165(4)
H6_2 H 0.5384 0.9187 0.3455
C15_2 C 0.7264(5) 0.9124(4) 0.3315(4)
C16_2 C 0.7183(4) 0.7223(4) 0.2348(3)
C17_2 C -0.6136(4) -0.3575(4) -0.2811(4)
C18_2 C -0.6094(4) -0.2692(4) -0.2531(3)
C19_2 C -0.5165(4) -0.2043(4) -0.2256(4)
H7_2 H -0.5145 -0.1443 -0.2064
C20_2 C -0.4288(4) -0.2290(5) -0.2270(4)
C21_2 C -0.4311(5) -0.3180(5) -0.2547(5)
H8_2 H -0.3712 -0.3348 -0.2553
C22_2 C -0.5227(5) -0.3817(4) -0.2814(4)
H9_2 H -0.5243 -0.4416 -0.3000
C23_2 C -0.7113(5) -0.4283(4) -0.3191(4)
C24_2 C -0.7013(4) -0.2340(4) -0.2431(4)
C25_2 C -0.1175(4) -0.1417(4) -0.3275(3)
C26_2 C -0.0929(4) -0.1262(4) -0.2452(3)
C27_2 C -0.1691(4) -0.1343(4) -0.2024(4)
H10_2 H -0.1521 -0.1219 -0.1472
C28_2 C -0.2693(4) -0.1605(4) -0.2419(4)
C29_2 C -0.2959(4) -0.1786(5) -0.3233(4)
H11_2 H -0.3637 -0.1979 -0.3500
C30_2 C -0.2205(4) -0.1676(5) -0.3652(4)
H12_2 H -0.2386 -0.1778 -0.4198
C31_2 C -0.0396(4) -0.1247(4) -0.3734(4)
C32_2 C 0.0118(4) -0.1074(4) -0.1982(4)
C33_2 C -0.1747(6) 0.7211(5) 0.0182(4)
H13_2 H -0.2085 0.7575 0.0517
C34_2 C -0.1680(7) 0.7232(5) -0.0556(4)
H14_2 H -0.1977 0.7603 -0.0715
C35_2 C -0.1174(5) 0.6709(4) -0.1066(4)
C36_2 C -0.0755(5) 0.6183(5) -0.0794(4)
H15_2 H -0.0403 0.5822 -0.1116
C37_2 C -0.0847(5) 0.6182(5) -0.0044(4)
H16_2 H -0.0552 0.5817 0.0126
C38_2 C -0.2053(8) 0.5852(7) -0.4554(5)
H17_2 H -0.2674 0.5822 -0.4838
C39_2 C -0.1994(8) 0.5861(7) -0.3774(5)
H18_2 H -0.2570 0.5835 -0.3559
C40_2 C -0.1143(8) 0.5906(7) -0.3346(5)
C41_2 C -0.0334(8) 0.5971(6) -0.3670(5)
H19_2 H 0.0294 0.6024 -0.3379
C42_2 C -0.0432(7) 0.5958(6) -0.4445(5)
H20_2 H 0.0147 0.6004 -0.4655
C43_2 C -0.1078(8) 0.6717(6) -0.1878(5)
H21_2 H -0.1612 0.6938 -0.2053
H22_2 H -0.0440 0.7137 -0.1801
C44_2 C -0.1123(8) 0.5869(6) -0.2528(5)
H23_2 H -0.1725 0.5428 -0.2572
H24_2 H -0.0541 0.5678 -0.2390
C45_2 C -0.2596(7) 0.4768(5) 0.1377(5)
H25_2 H -0.2142 0.4986 0.1876
C46_2 C -0.3248(7) 0.3924(6) 0.1078(5)
H26_2 H -0.3236 0.3599 0.1389
C47_2 C -0.3888(8) 0.3566(6) 0.0360(6)
C48_2 C -0.3846(7) 0.4105(6) -0.0083(6)
H27_2 H -0.4251 0.3884 -0.0605
C49_2 C -0.3207(7) 0.4946(6) 0.0268(5)
H28_2 H -0.3210 0.5299 -0.0018
C50_2 C -0.7272(7) 0.0254(5) -0.1481(5)
H29_2 H -0.7757 0.0033 -0.1965
C51_2 C -0.6656(7) 0.1112(6) -0.1192(5)
H30_2 H -0.6707 0.1442 -0.1495
C52_2 C -0.5988(7) 0.1469(6) -0.0480(6)
C53_2 C -0.5974(7) 0.0921(6) -0.0036(6)
H31_2 H -0.5558 0.1148 0.0482
C54_2 C -0.6574(7) 0.0076(6) -0.0387(5)
H32_2 H -0.6539 -0.0283 -0.0111
C55_2 C -0.4434(7) 0.2512(6) -0.0110(6)
H33_2 H -0.4397 0.2273 -0.0683
H34_2 H -0.4154 0.2180 0.0150
C56_2 C -0.5432(7) 0.2516(5) -0.0015(6)
H35_2 H -0.5710 0.2849 -0.0274
H36_2 H -0.5467 0.2756 0.0558
C57A C 1.8157(6) 1.2173(5) 1.0254(4)
H37A H 1.7841 1.2553 1.0599
C58A C 1.8237(7) 1.2215(5) 0.9528(5)
H38A H 1.7969 1.2610 0.9384
C59A C 1.8718(6) 1.1666(4) 0.9002(4)
C60A C 1.9110(6) 1.1113(5) 0.9258(4)
H39A H 1.9463 1.0752 0.8939
C61A C 1.8977(5) 1.1095(5) 1.0001(4)
H40A H 1.9226 1.0701 1.0157
C62A C 1.7817(6) 1.0667(6) 0.5406(5)
H41A H 1.7215 1.0571 0.5056
C63A C 1.7802(7) 1.0683(6) 0.6166(5)
H42A H 1.7189 1.0595 0.6323
C64A C 1.8676(8) 1.0827(5) 0.6698(5)
C65A C 1.9569(7) 1.0989(5) 0.6450(4)
H43A H 2.0183 1.1110 0.6798
C66A C 1.9546(6) 1.0970(5) 0.5689(4)
H44A H 2.0155 1.1090 0.5534
C67A C 1.8803(8) 1.1671(5) 0.8186(4)
H45A H 1.8296 1.1929 0.8029
H46A H 1.9461 1.2055 0.8247
C68A C 1.8682(9) 1.0803(6) 0.7530(5)
H47A H 1.8052 1.0401 0.7498
H48A H 1.9228 1.0567 0.7658
N1_2 N -0.1337(4) 0.6678(3) 0.0440(3)
N2_2 N -0.1286(6) 0.5885(5) -0.4904(4)
N2_3 N 0.8714(6) 0.5885(5) 0.5096(4)
N3_2 N -0.2589(6) 0.5282(4) 0.0984(4)
N4_2 N -0.7211(5) -0.0265(4) -0.1109(4)
N5A N 1.8508(4) 1.1617(3) 1.0494(3)
N5_2 N -0.8508(4) -0.1617(3) -0.0494(3)
N6A N 1.8695(4) 1.0788(4) 0.5161(3)
N6A_2 N 0.8695(4) 1.0788(4) 0.5161(3)
O1_2 O -0.0516(3) 0.5801(3) 0.3266(2)
O1_3 O 0.9484(3) 0.5801(3) -0.6734(2)
O2_2 O 0.8213(4) 1.1874(3) 0.4235(3)
H55_2 H 0.8632 1.2299 0.4648
H56_2 H 0.8070 1.2121 0.3924
O3_2 O 0.8119(3) 0.7013(3) 0.4224(3)
H57_2 H 0.7921 0.7057 0.3783
H58_2 H 0.8520 0.7480 0.4612
O4_2 O 0.0447(3) 0.6787(3) 0.4449(3)
O5_2 O -0.0347(3) 0.6765(3) 0.2205(2)
O7_2 O -0.0261(3) 0.5474(3) 0.1290(3)
O9_2 O 0.7213(3) 0.9916(3) 0.3438(3)
O11_2 O 0.8068(3) 0.8959(3) 0.3447(3)
O13_2 O 0.7580(3) 0.6822(3) 0.2689(3)
O15_2 O 0.7447(3) 0.7309(3) 0.1734(3)
O15_3 O -0.2553(3) 0.7309(3) 0.1734(3)
O16_2 O 0.3618(3) 0.6360(3) 0.2158(3)
O17_2 O -0.7108(3) -0.5090(3) -0.3410(3)
O17A O 0.7108(3) 0.5090(3) -0.6590(3)
O17A_2 O 0.7108(3) 0.5090(3) 0.3410(3)
O18_2 O -0.7909(3) -0.4082(3) -0.3302(3)
O19_2 O -0.7364(3) -0.2313(3) -0.1819(3)
O20_2 O -0.7280(4) -0.1986(4) -0.2871(3)
O21_2 O 0.0460(3) -0.0712(3) -0.3306(2)
O21A O 1.9540(3) 1.0712(3) 0.3306(2)
O21A_2 O 0.9540(3) 1.0712(3) 0.3306(2)
O22_2 O -0.0586(4) -0.1600(3) -0.4482(3)
O23_2 O 0.0551(3) -0.1692(3) -0.2265(3)
O23_3 O -0.9449(3) -0.1692(3) -0.2265(3)
O24_2 O 0.0463(3) -0.0396(3) -0.1344(3)
O25_2 O -0.3381(3) -0.1628(3) -0.1933(3)
C69 C 0.5530(8) 1.2563(7) 0.4624(6)
H49 H 0.5925 1.2234 0.4325
C70 C 0.5630(8) 1.3417(7) 0.4679(5)
H50 H 0.6093 1.3654 0.4437
C71 C 0.5015(8) 1.3925(7) 0.5111(6)
C72 C 0.4382(7) 1.3534(7) 0.5486(5)
H51 H 0.3977 1.3843 0.5790
C73 C 0.4357(8) 1.2695(7) 0.5406(6)
H52 H 0.3929 1.2459 0.5671
C74 C 0.4963(9) 1.4815(7) 0.5193(6)
H53 H 0.4310 1.4842 0.5327
H54 H 0.5455 1.5214 0.5698
N7 N 0.4901(6) 1.2176(6) 0.4975(4)
C69A C 0.4470(8) 1.7437(7) 0.5376(6)
H49A H 0.4075 1.7766 0.5675
C70A C 0.4370(8) 1.6583(7) 0.5321(5)
H50A H 0.3907 1.6346 0.5563
C71A C 0.4985(8) 1.6075(7) 0.4889(6)
C72A C 0.5618(7) 1.6466(7) 0.4514(5)
H51A H 0.6023 1.6157 0.4210
C73A C 0.5643(8) 1.7305(7) 0.4594(6)
H52A H 0.6071 1.7541 0.4329
C74A C 0.5037(9) 1.5185(7) 0.4807(6)
H53A H 0.5690 1.5158 0.4673
H54A H 0.4545 1.4786 0.4302
N7A N 0.5099(6) 1.7824(6) 0.5025(4)
O6 O 0.5692(8) 1.0538(6) 0.2928(6)
O8 O 0.4898(9) 1.0406(7) 0.4533(8)
O10 O 0.1047(16) 0.6083(11) -0.1987(11)
O12 O 0.899(2) 0.8866(15) 0.1873(13)
O14 O 0.4009(14) 0.9622(11) 0.1508(13)
loop_
_geom_bond_atom_site_label_1
_geom_bond_atom_site_label_2
_geom_bond_site_symmetry_1
_geom_bond_site_symmetry_2
Zn1 N1 1_555 1_555
Zn2 N4 1_555 1_555
Zn3 O2 1_555 1_555
Zn4 N2 1_555 1_555
C1 C2 1_555 1_555
C2 C3 1_555 1_555
C3 H1 1_555 1_555
C4 C3 1_555 1_555
C5 C4 1_555 1_555
H2 C5 1_555 1_555
C6 C1 1_555 1_555
H3 C6 1_555 1_555
C7 C1 1_555 1_555
C8 C2 1_555 1_555
C9 C10 1_555 1_555
C10 C11 1_555 1_555
C11 H4 1_555 1_555
C12 C11 1_555 1_555
C13 C12 1_555 1_555
H5 C13 1_555 1_555
C14 C9 1_555 1_555
H6 C14 1_555 1_555
C15 C9 1_555 1_555
C16 C10 1_555 1_555
C17 C18 1_555 1_555
C18 C19 1_555 1_555
C19 H7 1_555 1_555
C20 C19 1_555 1_555
C21 C20 1_555 1_555
H8 C21 1_555 1_555
C22 C17 1_555 1_555
H9 C22 1_555 1_555
C23 C17 1_555 1_555
C24 C18 1_555 1_555
C25 C26 1_555 1_555
C26 C27 1_555 1_555
C27 H10 1_555 1_555
C28 C27 1_555 1_555
C29 C28 1_555 1_555
H11 C29 1_555 1_555
C30 C25 1_555 1_555
H12 C30 1_555 1_555
C31 C25 1_555 1_555
C32 C26 1_555 1_555
C33 H13 1_555 1_555
C34 C33 1_555 1_555
H14 C34 1_555 1_555
C35 C34 1_555 1_555
C36 C35 1_555 1_555
H15 C36 1_555 1_555
C37 C36 1_555 1_555
H16 C37 1_555 1_555
C38 H17 1_555 1_555
C39 C38 1_555 1_555
H18 C39 1_555 1_555
C40 C39 1_555 1_555
C41 C40 1_555 1_555
H19 C41 1_555 1_555
C42 C41 1_555 1_555
H20 C42 1_555 1_555
C43 C35 1_555 1_555
H21 C43 1_555 1_555
H22 C43 1_555 1_555
C44 C40 1_555 1_555
H23 C44 1_555 1_555
H24 C44 1_555 1_555
C45 H25 1_555 1_555
C46 C45 1_555 1_555
H26 C46 1_555 1_555
C47 C46 1_555 1_555
C48 C47 1_555 1_555
H27 C48 1_555 1_555
C49 C48 1_555 1_555
H28 C49 1_555 1_555
C50 H29 1_555 1_555
C51 C50 1_555 1_555
H30 C51 1_555 1_555
C52 C51 1_555 1_555
C53 C52 1_555 1_555
H31 C53 1_555 1_555
C54 C53 1_555 1_555
H32 C54 1_555 1_555
C55 C47 1_555 1_555
H33 C55 1_555 1_555
H34 C55 1_555 1_555
C56 C52 1_555 1_555
H35 C56 1_555 1_555
H36 C56 1_555 1_555
C57 H37 1_555 1_555
C58 C57 1_555 1_555
H38 C58 1_555 1_555
C59 C58 1_555 1_555
C60 C59 1_555 1_555
H39 C60 1_555 1_555
C61 C60 1_555 1_555
H40 C61 1_555 1_555
C62 H41 1_555 1_555
C63 C62 1_555 1_555
H42 C63 1_555 1_555
C64 C63 1_555 1_555
C65 C64 1_555 1_555
H43 C65 1_555 1_555
C66 C65 1_555 1_555
H44 C66 1_555 1_555
C67 C59 1_555 1_555
H45 C67 1_555 1_555
H46 C67 1_555 1_555
C68 C64 1_555 1_555
H47 C68 1_555 1_555
H48 C68 1_555 1_555
C69 H49 1_555 1_555
C70 C69 1_555 1_555
H50 C70 1_555 1_555
C71 C70 1_555 1_555
C72 C71 1_555 1_555
H51 C72 1_555 1_555
C73 C72 1_555 1_555
H52 C73 1_555 1_555
C74 C71 1_555 1_555
H53 C74 1_555 1_555
H54 C74 1_555 1_555
N1 C33 1_555 1_555
N2 C38 1_555 1_555
N3 Zn1 1_555 1_555
N4 C50 1_555 1_555
N5 Zn2 1_555 1_555
N6 C62 1_555 1_555
N7 C69 1_555 1_555
O1 C7 1_555 1_555
O2 H55 1_555 1_555
H56 O2 1_555 1_555
O3 Zn4 1_555 1_555
H57 O3 1_555 1_555
H58 O3 1_555 1_555
O4 C7 1_555 1_555
O5 Zn1 1_555 1_555
O7 C8 1_555 1_555
O9 Zn3 1_555 1_555
O11 C15 1_555 1_555
O13 C16 1_555 1_555
O15 C16 1_555 1_555
O16 C4 1_555 1_555
O17 C23 1_555 1_555
O18 C23 1_555 1_555
O19 Zn2 1_555 1_555
O20 C24 1_555 1_555
O21 C31 1_555 1_555
O22 C31 1_555 1_555
O23 C32 1_555 1_555
O24 C32 1_555 1_555
O25 C20 1_555 1_555
Zn1_2 N1_2 1_555 1_555
Zn1_3 O15 1_555 1_555
Zn2_2 N4_2 1_555 1_555
Zn2_3 O23 1_555 1_555
Zn2A N5A 1_555 1_555
Zn3_2 N6A_2 1_555 1_555
Zn3A N6 1_555 1_555
Zn3A_2 O21 1_555 1_555
Zn3A_3 O21_2 1_555 1_555
Zn4_2 O1 1_555 1_555
Zn4A O17 1_555 1_555
Zn4_3 O1_2 1_555 1_555
Zn4A_2 O17_2 1_555 1_555
Zn4_4 N2_2 1_555 1_555
C1_2 C2_2 1_555 1_555
C2_2 C3_2 1_555 1_555
C3_2 H1_2 1_555 1_555
C4_2 C3_2 1_555 1_555
C5_2 C4_2 1_555 1_555
H2_2 C5_2 1_555 1_555
C6_2 C1_2 1_555 1_555
H3_2 C6_2 1_555 1_555
C7_2 C1_2 1_555 1_555
C8_2 C2_2 1_555 1_555
C9_2 C10_2 1_555 1_555
C10_2 C11_2 1_555 1_555
C11_2 H4_2 1_555 1_555
C12_2 C11_2 1_555 1_555
C13_2 C12_2 1_555 1_555
H5_2 C13_2 1_555 1_555
C14_2 C9_2 1_555 1_555
H6_2 C14_2 1_555 1_555
C15_2 C9_2 1_555 1_555
C16_2 C10_2 1_555 1_555
C17_2 C18_2 1_555 1_555
C18_2 C19_2 1_555 1_555
C19_2 H7_2 1_555 1_555
C20_2 C19_2 1_555 1_555
C21_2 C20_2 1_555 1_555
H8_2 C21_2 1_555 1_555
C22_2 C17_2 1_555 1_555
H9_2 C22_2 1_555 1_555
C23_2 C17_2 1_555 1_555
C24_2 C18_2 1_555 1_555
C25_2 C26_2 1_555 1_555
C26_2 C27_2 1_555 1_555
C27_2 H10_2 1_555 1_555
C28_2 C27_2 1_555 1_555
C29_2 C28_2 1_555 1_555
H11_2 C29_2 1_555 1_555
C30_2 C25_2 1_555 1_555
H12_2 C30_2 1_555 1_555
C31_2 C25_2 1_555 1_555
C32_2 C26_2 1_555 1_555
C33_2 H13_2 1_555 1_555
C34_2 C33_2 1_555 1_555
H14_2 C34_2 1_555 1_555
C35_2 C34_2 1_555 1_555
C36_2 C35_2 1_555 1_555
H15_2 C36_2 1_555 1_555
C37_2 C36_2 1_555 1_555
H16_2 C37_2 1_555 1_555
C38_2 H17_2 1_555 1_555
C39_2 C38_2 1_555 1_555
H18_2 C39_2 1_555 1_555
C40_2 C39_2 1_555 1_555
C41_2 C40_2 1_555 1_555
H19_2 C41_2 1_555 1_555
C42_2 C41_2 1_555 1_555
H20_2 C42_2 1_555 1_555
C43_2 C35_2 1_555 1_555
H21_2 C43_2 1_555 1_555
H22_2 C43_2 1_555 1_555
C44_2 C40_2 1_555 1_555
H23_2 C44_2 1_555 1_555
H24_2 C44_2 1_555 1_555
C45_2 H25_2 1_555 1_555
C46_2 C45_2 1_555 1_555
H26_2 C46_2 1_555 1_555
C47_2 C46_2 1_555 1_555
C48_2 C47_2 1_555 1_555
H27_2 C48_2 1_555 1_555
C49_2 C48_2 1_555 1_555
H28_2 C49_2 1_555 1_555
C50_2 H29_2 1_555 1_555
C51_2 C50_2 1_555 1_555
H30_2 C51_2 1_555 1_555
C52_2 C51_2 1_555 1_555
C53_2 C52_2 1_555 1_555
H31_2 C53_2 1_555 1_555
C54_2 C53_2 1_555 1_555
H32_2 C54_2 1_555 1_555
C55_2 C47_2 1_555 1_555
H33_2 C55_2 1_555 1_555
H34_2 C55_2 1_555 1_555
C56_2 C52_2 1_555 1_555
H35_2 C56_2 1_555 1_555
H36_2 C56_2 1_555 1_555
C57A H37A 1_555 1_555
C58A C57A 1_555 1_555
H38A C58A 1_555 1_555
C59A C58A 1_555 1_555
C60A C59A 1_555 1_555
H39A C60A 1_555 1_555
C61A C60A 1_555 1_555
H40A C61A 1_555 1_555
C62A H41A 1_555 1_555
C63A C62A 1_555 1_555
H42A C63A 1_555 1_555
C64A C63A 1_555 1_555
C65A C64A 1_555 1_555
H43A C65A 1_555 1_555
C66A C65A 1_555 1_555
H44A C66A 1_555 1_555
C67A C59A 1_555 1_555
H45A C67A 1_555 1_555
H46A C67A 1_555 1_555
C68A C64A 1_555 1_555
H47A C68A 1_555 1_555
H48A C68A 1_555 1_555
C69A H49A 1_555 1_555
C70A C69A 1_555 1_555
H50A C70A 1_555 1_555
C71A C70A 1_555 1_555
C72A C71A 1_555 1_555
H51A C72A 1_555 1_555
C73A C72A 1_555 1_555
H52A C73A 1_555 1_555
C74A C74 1_555 1_555
H53A C74A 1_555 1_555
H54A C74A 1_555 1_555
N1_2 C33_2 1_555 1_555
N2_2 C38_2 1_555 1_555
N2_3 Zn4_2 1_555 1_555
N3_2 Zn1_2 1_555 1_555
N4_2 C50_2 1_555 1_555
N5A C57A 1_555 1_555
N5_2 Zn2_2 1_555 1_555
N6A Zn3 1_555 1_555
N7A C69A 1_555 1_555
O1_2 C7_2 1_555 1_555
O1_3 Zn4 1_555 1_555
O2_2 Zn3_2 1_555 1_555
H55_2 O2_2 1_555 1_555
H56_2 O2_2 1_555 1_555
O3_2 Zn4_2 1_555 1_555
H57_2 O3_2 1_555 1_555
H58_2 O3_2 1_555 1_555
O4_2 C7_2 1_555 1_555
O5_2 Zn1_2 1_555 1_555
O7_2 C8_2 1_555 1_555
O9_2 Zn3_2 1_555 1_555
O11_2 C15_2 1_555 1_555
O13_2 C16_2 1_555 1_555
O15_2 Zn1 1_555 1_555
O15_3 Zn1_2 1_555 1_555
O16_2 C4_2 1_555 1_555
O17_2 C23_2 1_555 1_555
O17A Zn4 1_555 1_555
O17A_2 Zn4_2 1_555 1_555
O18_2 C23_2 1_555 1_555
O19_2 Zn2_2 1_555 1_555
O20_2 C24_2 1_555 1_555
O21_2 C31_2 1_555 1_555
O21A Zn3 1_555 1_555
O21A_2 Zn3_2 1_555 1_555
O22_2 C31_2 1_555 1_555
O23_2 Zn2 1_555 1_555
O23_3 Zn2_2 1_555 1_555
O24_2 C32_2 1_555 1_555
O25_2 C20_2 1_555 1_555
C5 C6 1_555 1_555
C8 O5 1_555 1_555
C12 O16 1_555 1_555
C13 C14 1_555 1_555
C15 O9 1_555 1_555
C21 C22 1_555 1_555
C24 O19 1_555 1_555
C28 O25 1_555 1_555
C29 C30 1_555 1_555
C37 N1 1_555 1_555
C42 N2 1_555 1_555
C43 C44 1_555 1_555
C45 N3 1_555 1_555
C49 N3 1_555 1_555
C54 N4 1_555 1_555
C55 C56 1_555 1_555
C57 N5 1_555 1_555
C61 N5 1_555 1_555
C66 N6 1_555 1_555
C67 C68 1_555 1_555
C73 N7 1_555 1_555
C5_2 C6_2 1_555 1_555
C8_2 O5_2 1_555 1_555
C12_2 O16_2 1_555 1_555
C13_2 C14_2 1_555 1_555
C15_2 O9_2 1_555 1_555
C16_2 O15_2 1_555 1_555
C21_2 C22_2 1_555 1_555
C24_2 O19_2 1_555 1_555
C28_2 O25_2 1_555 1_555
C29_2 C30_2 1_555 1_555
C32_2 O23_2 1_555 1_555
C37_2 N1_2 1_555 1_555
C42_2 N2_2 1_555 1_555
C43_2 C44_2 1_555 1_555
C45_2 N3_2 1_555 1_555
C49_2 N3_2 1_555 1_555
C54_2 N4_2 1_555 1_555
C55_2 C56_2 1_555 1_555
C61A N5A 1_555 1_555
C62A N6A 1_555 1_555
C66A N6A 1_555 1_555
C67A C68A 1_555 1_555
C71A C74A 1_555 1_555
C73A N7A 1_555 1_555

#END
