
#######################################################################
#
#                 Cambridge Crystallographic Data Centre
#                                CCDC 
#
#######################################################################
#
# If this CIF has been generated from an entry in the Cambridge 
# Structural Database, then it will include bibliographic, chemical, 
# crystal, experimental, refinement or atomic coordinate data resulting 
# from the CCDC's data processing and validation procedures.
#
#######################################################################

data_YARKOT
_symmetry_cell_setting           orthorhombic
_symmetry_space_group_name_H-M   'C 2 2 21'
_symmetry_Int_Tables_number      20
_space_group_name_Hall           'C 2n 2'
loop_
_symmetry_equiv_pos_site_id
_symmetry_equiv_pos_as_xyz
1 x,y,z
2 -x,-y,1/2+z
3 -x,y,1/2-z
4 x,-y,-z
5 1/2+x,1/2+y,z
6 1/2-x,1/2-y,1/2+z
7 1/2-x,1/2+y,1/2-z
8 1/2+x,1/2-y,-z
_cell_length_a                   9.5741(8)
_cell_length_b                   11.4403(14)
_cell_length_c                   25.674(3)
_cell_angle_alpha                90
_cell_angle_beta                 90
_cell_angle_gamma                90
_cell_volume                     2812.09
loop_
_atom_site_label
_atom_site_type_symbol
_atom_site_fract_x
_atom_site_fract_y
_atom_site_fract_z
Zn1 Zn -0.84017(11) 1.0000 0.0000
O1 O -1.2026(6) 0.9129(6) 0.0560(2)
C1 C -1.0596(8) 0.8000(6) 0.1088(3)
O2 O -0.6783(6) 0.8810(5) 0.0137(2)
H1 H -0.7081 0.8257 0.0307
N1 N -0.8531(7) 0.9476(7) -0.0786(3)
Zn2 Zn -1.28686(10) 1.0000 0.0000
C2 C -1.1326(9) 0.8331(8) 0.1526(3)
H2 H -1.1991 0.8920 0.1496
O3 O -0.9931(5) 0.8630(5) 0.0243(2)
C3 C -1.1115(11) 0.7831(9) 0.2002(3)
H3 H -1.1603 0.8091 0.2293
O4 O -0.9310(6) 0.5942(4) 0.03781(19)
O5 O -0.7468(5) 0.6905(5) 0.0683(2)
C4 C -1.0158(10) 0.6930(9) 0.2042(3)
C5 C -0.9411(11) 0.6548(8) 0.1614(3)
H4 H -0.8790 0.5927 0.1643
O6 O -1.0000 0.6268(8) 0.2500
C6 C -0.9610(8) 0.7122(7) 0.1131(3)
C7 C -1.0853(8) 0.8635(6) 0.0586(3)
C8 C -0.8718(8) 0.6656(6) 0.0693(3)
C9 C -0.7791(8) 0.9996(12) -0.1157(3)
H5 H -0.7091 1.0512 -0.1057
C10 C -0.9459(10) 0.8694(10) -0.0950(3)
H6 H -0.9945 0.8257 -0.0705
C11 C -0.9730(10) 0.8507(11) -0.1466(4)
H7 H -1.0422 0.7979 -0.1562
C12 C -0.9005(10) 0.9080(10) -0.1839(4)
C13 C -0.8000(9) 0.9815(10) -0.1676(3)
H8 H -0.7446 1.0202 -0.1918
C14 C -0.9288(11) 0.8898(11) -0.2418(4)
H9 H -0.8803 0.9507 -0.2609
H10 H -0.8876 0.8158 -0.2520
H11 H -0.613(9) 0.863(5) -0.004(4)
Zn1A Zn -1.15983(11) 1.0000 -0.5000
Zn1A_2 Zn -1.15983(11) 1.0000 0.5000
O1B O -0.7974(6) 0.9129(6) 0.4440(2)
O1C O -1.2026(6) 1.0871(6) -0.0560(2)
C1B C -0.9404(8) 0.8000(6) 0.3912(3)
O2C O -0.6783(6) 1.1190(5) -0.0137(2)
H1C H -0.7081 1.1743 -0.0307
N1B N -1.1469(7) 0.9476(7) -0.4214(3)
N1C N -0.8531(7) 1.0524(7) 0.0786(3)
Zn2A Zn -0.71314(10) 1.0000 0.5000
Zn2D Zn -0.78686(10) 0.5000 0.0000
Zn2E Zn -1.21314(10) 0.5000 0.5000
C2B C -0.8674(9) 0.8331(8) 0.3474(3)
H2B H -0.8009 0.8920 0.3504
O3B O -1.0069(5) 0.8630(5) 0.4757(2)
O3C O -0.9931(5) 1.1370(5) -0.0243(2)
C3B C -0.8885(11) 0.7831(9) 0.2998(3)
H3B H -0.8397 0.8091 0.2707
O4B O -1.0690(6) 0.5942(4) 0.46219(19)
O4D O -1.4310(6) 1.0942(4) 0.03781(19)
O4G O -1.4310(6) 0.9058(4) -0.03781(19)
O5B O -1.2532(5) 0.6905(5) 0.4317(2)
C4B C -0.9842(10) 0.6930(9) 0.2958(3)
C5B C -1.0589(11) 0.6548(8) 0.3386(3)
H4B H -1.1210 0.5927 0.3357
C6B C -1.0390(8) 0.7122(7) 0.3869(3)
C7B C -0.9147(8) 0.8635(6) 0.4414(3)
C8B C -1.1282(8) 0.6656(6) 0.4307(3)
C9B C -1.2209(8) 0.9996(12) -0.3843(3)
H5B H -1.2909 1.0512 -0.3943
C10B C -1.0541(10) 0.8694(10) -0.4050(3)
H6B H -1.0055 0.8257 -0.4295
C11B C -1.0270(10) 0.8507(11) -0.3534(4)
H7B H -0.9578 0.7979 -0.3438
C12B C -1.0995(10) 0.9080(10) -0.3161(4)
C13B C -1.2000(9) 0.9815(10) -0.3324(3)
H8B H -1.2554 1.0202 -0.3082
C14B C -1.0712(11) 0.8898(11) -0.2582(4)
H9B H -1.1197 0.9507 -0.2391
H10B H -1.1124 0.8158 -0.2480
H11C H -0.613(9) 1.137(5) 0.004(4)
loop_
_geom_bond_atom_site_label_1
_geom_bond_atom_site_label_2
_geom_bond_site_symmetry_1
_geom_bond_site_symmetry_2
Zn1 O2 1_555 1_555
O1 Zn2 1_555 1_555
C1 C2 1_555 1_555
O2 H1 1_555 1_555
N1 Zn1 1_555 1_555
Zn2 O1C 1_555 1_555
C2 H2 1_555 1_555
O3 Zn1 1_555 1_555
C3 C2 1_555 1_555
H3 C3 1_555 1_555
O4 C8 1_555 1_555
O5 C8 1_555 1_555
C4 C3 1_555 1_555
C5 C4 1_555 1_555
H4 C5 1_555 1_555
O6 C4 1_555 1_555
C6 C1 1_555 1_555
C7 O1 1_555 1_555
C8 C6 1_555 1_555
C9 N1 1_555 1_555
H5 C9 1_555 1_555
C10 N1 1_555 1_555
H6 C10 1_555 1_555
C11 C10 1_555 1_555
H7 C11 1_555 1_555
C12 C11 1_555 1_555
C13 C9 1_555 1_555
H8 C13 1_555 1_555
C14 C12 1_555 1_555
H9 C14 1_555 1_555
H10 C14 1_555 1_555
H11 O2 1_555 1_555
Zn1A N1B 1_555 1_555
Zn1A_2 O3B 1_555 1_555
O1B Zn2A 1_555 1_555
C1B C2B 1_555 1_555
O2C Zn1 1_555 1_555
H1C O2C 1_555 1_555
N1B C9B 1_555 1_555
N1C Zn1 1_555 1_555
Zn2D O4 1_555 1_555
Zn2E O4B 1_555 1_555
C2B H2B 1_555 1_555
O3B C7B 1_555 1_555
O3C Zn1 1_555 1_555
C3B C2B 1_555 1_555
H3B C3B 1_555 1_555
O4B C8B 1_555 1_555
O4D Zn2 1_555 1_555
O4G Zn2 1_555 1_555
O5B C8B 1_555 1_555
C4B O6 1_555 1_555
C5B C4B 1_555 1_555
H4B C5B 1_555 1_555
C6B C1B 1_555 1_555
C7B O1B 1_555 1_555
C8B C6B 1_555 1_555
C9B H5B 1_555 1_555
C10B N1B 1_555 1_555
H6B C10B 1_555 1_555
C11B C10B 1_555 1_555
H7B C11B 1_555 1_555
C12B C11B 1_555 1_555
C13B C9B 1_555 1_555
H8B C13B 1_555 1_555
C14B C14 1_555 1_555
H9B C14B 1_555 1_555
H10B C14B 1_555 1_555
H11C O2C 1_555 1_555
C1 C7 1_555 1_555
O3 C7 1_555 1_555
C5 C6 1_555 1_555
C12 C13 1_555 1_555
C1B C7B 1_555 1_555
C3B C4B 1_555 1_555
C5B C6B 1_555 1_555
C12B C13B 1_555 1_555
C12B C14B 1_555 1_555

#END
