
#######################################################################
#
#                 Cambridge Crystallographic Data Centre
#                                CCDC 
#
#######################################################################
#
# If this CIF has been generated from an entry in the Cambridge 
# Structural Database, then it will include bibliographic, chemical, 
# crystal, experimental, refinement or atomic coordinate data resulting 
# from the CCDC's data processing and validation procedures.
#
#######################################################################

data_YARKIN
_symmetry_cell_setting           monoclinic
_symmetry_space_group_name_H-M   'C 2/c'
_symmetry_Int_Tables_number      15
_space_group_name_Hall           '-C 2yn'
loop_
_symmetry_equiv_pos_site_id
_symmetry_equiv_pos_as_xyz
1 x,y,z
2 -x,y,1/2-z
3 1/2+x,1/2+y,z
4 1/2-x,1/2+y,1/2-z
5 -x,-y,-z
6 x,-y,1/2+z
7 1/2-x,1/2-y,-z
8 1/2+x,1/2-y,1/2+z
_cell_length_a                   27.8969(13)
_cell_length_b                   7.5757(2)
_cell_length_c                   21.3408(9)
_cell_angle_alpha                90
_cell_angle_beta                 118.087(6)
_cell_angle_gamma                90
_cell_volume                     3978.99
loop_
_atom_site_label
_atom_site_type_symbol
_atom_site_fract_x
_atom_site_fract_y
_atom_site_fract_z
Zn1 Zn 0.262447(18) 0.25697(5) 0.41155(2)
N1 N 0.31058(15) 0.2513(4) 0.15949(19)
O1 O 0.22544(12) 0.3902(3) 0.31590(12)
C1 C 0.15286(16) 0.3830(4) 0.20094(17)
Zn2 Zn 0.23306(2) 0.25437(6) 0.13909(2)
C2 C 0.13630(16) 0.4926(5) 0.14234(18)
O2 O 0.23970(13) 0.2494(3) 0.23503(14)
O3 O 0.21763(11) 0.5178(4) 0.12958(13)
C3 C 0.08053(17) 0.5208(5) 0.0984(2)
H1 H 0.0693 0.5967 0.0598
C4 C 0.04198(18) 0.4382(6) 0.1113(2)
H2 H 0.0051 0.4553 0.0813
O4 O 0.16187(13) 0.7404(4) 0.09910(16)
O5 O -0.18894(11) 0.1687(4) 0.10682(13)
C5 C 0.05945(16) 0.3303(6) 0.16952(19)
O6 O -0.19737(11) 0.3318(3) 0.01587(13)
C6 C 0.11366(17) 0.3051(5) 0.21547(19)
H3 H 0.1242 0.2366 0.2560
O7 O -0.21232(11) -0.0105(3) -0.04415(12)
C7 C -0.12055(16) 0.1456(5) 0.07185(17)
O8 O -0.15980(13) -0.1857(4) -0.06517(16)
C8 C -0.07312(18) 0.2175(5) 0.1260(2)
H4 H -0.0750 0.2950 0.1585
C9 C -0.02346(17) 0.1739(5) 0.13123(19)
O9 O 0.02231(13) 0.2481(4) 0.18704(15)
C10 C -0.01876(17) 0.0549(6) 0.0854(2)
H5 H 0.0150 0.0270 0.0892
C11 C -0.06599(17) -0.0217(5) 0.0334(2)
H6 H -0.0635 -0.1048 0.0030
C12 C -0.11646(16) 0.0223(5) 0.02568(17)
C13 C 0.21056(16) 0.3408(5) 0.25342(18)
C14 C 0.17396(16) 0.5894(5) 0.12282(17)
C15 C -0.17358(16) 0.2173(5) 0.06327(18)
C16 C -0.16594(17) -0.0617(5) -0.03098(18)
C17 C 0.34769(18) 0.3113(6) 0.2212(2)
H7 H 0.3363 0.3567 0.2525
C18 C 0.4023(2) 0.3104(7) 0.2420(3)
H8 H 0.4268 0.3572 0.2858
C19 C 0.4211(2) 0.2394(6) 0.1976(3)
C20 C 0.38201(18) 0.1782(6) 0.1332(2)
H9 H 0.3923 0.1317 0.1010
C21 C 0.32811(18) 0.1846(6) 0.1156(2)
H10 H 0.3027 0.1410 0.0717
C22 C 0.4795(2) 0.2343(8) 0.2170(3)
H11 H 0.4843 0.1297 0.1944
H12 H 0.4856 0.3344 0.1934
Zn1C Zn 0.237553(18) -0.24303(5) 0.08845(2)
Zn1C_2 Zn 0.237553(18) 0.75697(5) 0.08845(2)
Zn1A Zn -0.262447(18) 0.25697(5) 0.08845(2)
Zn1G Zn -0.237553(18) 0.24303(5) -0.08845(2)
Zn1B Zn 0.762447(18) -0.24303(5) 0.41155(2)
Zn1D Zn 0.737553(18) -0.25697(5) 0.58845(2)
N1A N 0.68942(15) 0.2513(4) 0.34051(19)
N1C N 0.18942(15) -0.2487(4) 0.34051(19)
O1C O 0.27456(12) -0.1098(3) 0.18410(12)
C1C C 0.34714(16) -0.1170(4) 0.29906(17)
Zn2C Zn 0.26694(2) -0.24563(6) 0.36091(2)
Zn2D Zn -0.23306(2) -0.25437(6) -0.13909(2)
Zn2A Zn 0.76694(2) 0.25437(6) 0.36091(2)
Zn2G Zn 0.73306(2) -0.75437(6) 0.63909(2)
C2C C 0.36370(16) -0.0074(5) 0.35766(18)
O2C O 0.26030(13) -0.2506(3) 0.26497(14)
O3C O 0.28237(11) 0.0178(4) 0.37042(13)
O3_2 O 0.21763(11) -0.4822(4) 0.12958(13)
C3C C 0.41947(17) 0.0208(5) 0.4016(2)
H1C H 0.4307 0.0967 0.4402
C4C C 0.45802(18) -0.0618(6) 0.3887(2)
H2C H 0.4949 -0.0447 0.4187
O4C O 0.33813(13) 0.2404(4) 0.40090(16)
O4_2 O 0.16187(13) -0.2596(4) 0.09910(16)
O5C O 0.68894(11) -0.3313(4) 0.39318(13)
O5A O 0.18894(11) 0.1687(4) 0.39318(13)
O5B O 0.31106(11) -0.3313(4) 0.10682(13)
C5C C 0.44055(16) -0.1697(6) 0.33048(19)
O6C O 0.69737(11) -0.1682(3) 0.48413(13)
O6G O 0.30263(11) 0.1682(3) 0.51587(13)
O6D O 0.19737(11) -0.3318(3) -0.01587(13)
C6C C 0.38634(17) -0.1949(5) 0.28453(19)
H3C H 0.3758 -0.2634 0.2440
O7C O 0.71232(11) -0.5105(3) 0.54415(12)
O7G O 0.28768(11) 0.5105(3) 0.45585(12)
O7D O 0.21232(11) 0.0105(3) 0.04415(12)
C7C C 0.62055(16) -0.3544(5) 0.42815(17)
O8C O 0.65980(13) -0.6857(4) 0.56517(16)
O8D O 0.15980(13) 0.1857(4) 0.06517(16)
O8G O 0.34020(13) -0.3143(4) 0.43483(16)
C8C C 0.57312(18) -0.2825(5) 0.3740(2)
H4C H 0.5750 -0.2050 0.3415
C9C C 0.52346(17) -0.3261(5) 0.36877(19)
O9C O 0.47769(13) -0.2519(4) 0.31296(15)
C10C C 0.51876(17) -0.4451(6) 0.4146(2)
H5C H 0.4850 -0.4730 0.4108
C11C C 0.56599(17) -0.5217(5) 0.4666(2)
H6C H 0.5635 -0.6048 0.4970
C12C C 0.61646(16) -0.4777(5) 0.47432(17)
C13C C 0.28944(16) -0.1592(5) 0.24658(18)
C14C C 0.32604(16) 0.0894(5) 0.37718(17)
C15C C 0.67358(16) -0.2827(5) 0.43673(18)
C16C C 0.66594(17) -0.5617(5) 0.53098(18)
C17A C 0.65231(18) 0.3113(6) 0.2788(2)
H7A H 0.6637 0.3567 0.2475
C18A C 0.5977(2) 0.3104(7) 0.2580(3)
H8A H 0.5732 0.3572 0.2142
C19A C 0.5789(2) 0.2394(6) 0.3024(3)
C20A C 0.61799(18) 0.1782(6) 0.3668(2)
H9A H 0.6077 0.1317 0.3990
C21A C 0.67189(18) 0.1846(6) 0.3844(2)
H10A H 0.6973 0.1410 0.4283
C22A C 0.5205(2) 0.2343(8) 0.2830(3)
H11A H 0.5157 0.1297 0.3056
H12A H 0.5144 0.3344 0.3066
loop_
_geom_bond_atom_site_label_1
_geom_bond_atom_site_label_2
_geom_bond_site_symmetry_1
_geom_bond_site_symmetry_2
Zn1 O1 1_555 1_555
N1 Zn2 1_555 1_555
O1 C13 1_555 1_555
C1 C2 1_555 1_555
Zn2 O2 1_555 1_555
C2 C3 1_555 1_555
O2 C13 1_555 1_555
O3 Zn2 1_555 1_555
C3 H1 1_555 1_555
C4 C3 1_555 1_555
H2 C4 1_555 1_555
O4 C14 1_555 1_555
O5 C15 1_555 1_555
C5 C4 1_555 1_555
O6 C15 1_555 1_555
C6 C1 1_555 1_555
H3 C6 1_555 1_555
O7 C16 1_555 1_555
C7 C8 1_555 1_555
O8 C16 1_555 1_555
C8 H4 1_555 1_555
C9 C8 1_555 1_555
O9 C5 1_555 1_555
C10 C9 1_555 1_555
H5 C10 1_555 1_555
C11 C10 1_555 1_555
H6 C11 1_555 1_555
C12 C7 1_555 1_555
C13 C1 1_555 1_555
C14 C2 1_555 1_555
C15 C7 1_555 1_555
C16 C12 1_555 1_555
C17 N1 1_555 1_555
H7 C17 1_555 1_555
C18 C17 1_555 1_555
H8 C18 1_555 1_555
C19 C18 1_555 1_555
C20 C19 1_555 1_555
H9 C20 1_555 1_555
C21 N1 1_555 1_555
H10 C21 1_555 1_555
C22 C19 1_555 1_555
H11 C22 1_555 1_555
H12 C22 1_555 1_555
Zn1C O1C 1_555 1_555
Zn1C_2 O3 1_555 1_555
Zn1A O5 1_555 1_555
Zn1G O6 1_555 1_555
Zn1B O5C 1_555 1_555
Zn1D O6C 1_555 1_555
N1A Zn2A 1_555 1_555
N1C Zn2C 1_555 1_555
O1C C13C 1_555 1_555
C1C C2C 1_555 1_555
Zn2C O2C 1_555 1_555
Zn2D O8 1_555 1_555
Zn2G O8C 1_555 1_555
C2C C3C 1_555 1_555
O2C C13C 1_555 1_555
O3C Zn1 1_555 1_555
O3_2 Zn1C 1_555 1_555
C3C H1C 1_555 1_555
C4C C3C 1_555 1_555
H2C C4C 1_555 1_555
O4C Zn1 1_555 1_555
O4_2 Zn1C 1_555 1_555
O5C C15C 1_555 1_555
O5A Zn1 1_555 1_555
O5B Zn1C 1_555 1_555
C5C C4C 1_555 1_555
O6C C15C 1_555 1_555
O6G Zn1 1_555 1_555
O6D Zn1C 1_555 1_555
C6C C1C 1_555 1_555
H3C C6C 1_555 1_555
O7C Zn1D 1_555 1_555
O7G Zn1 1_555 1_555
O7D Zn1C 1_555 1_555
C7C C8C 1_555 1_555
O8C C16C 1_555 1_555
O8D Zn2 1_555 1_555
O8G Zn2C 1_555 1_555
C8C H4C 1_555 1_555
C9C C8C 1_555 1_555
O9C C5C 1_555 1_555
C10C C9C 1_555 1_555
H5C C10C 1_555 1_555
C11C C10C 1_555 1_555
H6C C11C 1_555 1_555
C12C C7C 1_555 1_555
C13C C1C 1_555 1_555
C14C C2C 1_555 1_555
C15C C7C 1_555 1_555
C16C O7C 1_555 1_555
C17A N1A 1_555 1_555
H7A C17A 1_555 1_555
C18A C17A 1_555 1_555
H8A C18A 1_555 1_555
C19A C18A 1_555 1_555
C20A C19A 1_555 1_555
H9A C20A 1_555 1_555
C21A N1A 1_555 1_555
H10A C21A 1_555 1_555
C22A C22 1_555 1_555
H11A C22A 1_555 1_555
H12A C22A 1_555 1_555
O3 C14 1_555 1_555
O4 Zn1C_2 1_555 1_555
C5 C6 1_555 1_555
O7 Zn1G 1_555 1_555
C9 O9 1_555 1_555
C11 C12 1_555 1_555
C20 C21 1_555 1_555
Zn2C O3C 1_555 1_555
O3C C14C 1_555 1_555
O4C C14C 1_555 1_555
C5C C6C 1_555 1_555
C9C O9C 1_555 1_555
C11C C12C 1_555 1_555
C12C C16C 1_555 1_555
C19A C22A 1_555 1_555
C20A C21A 1_555 1_555

#END
