
#######################################################################
#
#                 Cambridge Crystallographic Data Centre
#                                CCDC 
#
#######################################################################
#
# If this CIF has been generated from an entry in the Cambridge 
# Structural Database, then it will include bibliographic, chemical, 
# crystal, experimental, refinement or atomic coordinate data resulting 
# from the CCDC's data processing and validation procedures.
#
#######################################################################

data_YARLEK
_symmetry_cell_setting           monoclinic
_symmetry_space_group_name_H-M   'P 2/c'
_symmetry_Int_Tables_number      13
_space_group_name_Hall           '-P 2yc'
loop_
_symmetry_equiv_pos_site_id
_symmetry_equiv_pos_as_xyz
1 x,y,z
2 -x,y,1/2-z
3 -x,-y,-z
4 x,-y,1/2+z
_cell_length_a                   7.889(2)
_cell_length_b                   5.7444(17)
_cell_length_c                   16.373(5)
_cell_angle_alpha                90
_cell_angle_beta                 101.986(6)
_cell_angle_gamma                90
_cell_volume                     725.808
loop_
_atom_site_label
_atom_site_type_symbol
_atom_site_fract_x
_atom_site_fract_y
_atom_site_fract_z
Ag1 Ag 0.5000 0.25543(6) 0.2500
N1 N 0.2583(3) 0.4561(4) 0.18024(14)
H1 H 0.1604 0.3859 0.1910
H2 H 0.2620 0.6058 0.2005
N2 N 0.4923(4) 0.9611(4) 0.14937(16)
C1 C 0.1546(4) 0.2934(6) -0.0421(2)
H3 H 0.0991 0.1700 -0.0761
C2 C 0.1649(4) 0.2860(5) 0.0425(2)
H4 H 0.1158 0.1585 0.0664
C3 C 0.2467(4) 0.4639(5) 0.09369(17)
C4 C 0.3077(4) 0.6527(6) -0.02968(18)
H5 H 0.3563 0.7792 -0.0543
C5 C 0.3215(4) 0.6448(5) 0.05663(17)
C6 C 0.2239(4) 0.4776(6) -0.07880(19)
H6 H 0.2134 0.4825 -0.1376
C7 C 0.4162(4) 0.8224(5) 0.10819(18)
Ag1_2 Ag 0.5000 1.25543(6) 0.2500
N1A N 0.7417(3) 0.4561(4) 0.31976(14)
H1A H 0.8396 0.3859 0.3090
H2A H 0.7380 0.6058 0.2995
N2A N 0.5077(4) 0.9611(4) 0.35063(16)
N2_2 N 0.4923(4) -0.0389(4) 0.14937(16)
N2A_2 N 0.5077(4) -0.0389(4) 0.35063(16)
C1A C 0.8454(4) 0.2934(6) 0.5421(2)
H3A H 0.9009 0.1700 0.5761
C2A C 0.8351(4) 0.2860(5) 0.4575(2)
H4A H 0.8842 0.1585 0.4336
C3A C 0.7533(4) 0.4639(5) 0.40631(17)
C4A C 0.6923(4) 0.6527(6) 0.52968(18)
H5A H 0.6437 0.7792 0.5543
C5A C 0.6785(4) 0.6448(5) 0.44337(17)
C6A C 0.7761(4) 0.4776(6) 0.57880(19)
H6A H 0.7866 0.4825 0.6376
C7A C 0.5838(4) 0.8224(5) 0.39181(18)
O1 O 0.0000 0.2181(6) 0.2500
O2 O 0.1041(5) -0.0948(6) 0.2154(2)
N3 N 0.0000 0.0042(7) 0.2500
O2A O -0.1041(5) -0.0948(6) 0.2846(2)
loop_
_geom_bond_atom_site_label_1
_geom_bond_atom_site_label_2
_geom_bond_site_symmetry_1
_geom_bond_site_symmetry_2
Ag1 N1 1_555 1_555
N1 H1 1_555 1_555
H2 N1 1_555 1_555
N2 C7 1_555 1_555
C1 H3 1_555 1_555
C2 C1 1_555 1_555
H4 C2 1_555 1_555
C3 N1 1_555 1_555
C4 H5 1_555 1_555
C5 C3 1_555 1_555
C6 C1 1_555 1_555
H6 C6 1_555 1_555
C7 C5 1_555 1_555
O1 N3 1_555 1_555
O2 N3 1_555 1_555
N3 O2A 1_555 1_555
Ag1_2 N2 1_555 1_555
N1A Ag1 1_555 1_555
H1A N1A 1_555 1_555
H2A N1A 1_555 1_555
N2A Ag1_2 1_555 1_555
N2_2 Ag1 1_555 1_555
N2A_2 Ag1 1_555 1_555
C1A H3A 1_555 1_555
C2A C1A 1_555 1_555
H4A C2A 1_555 1_555
C3A N1A 1_555 1_555
C4A H5A 1_555 1_555
C5A C3A 1_555 1_555
C6A C1A 1_555 1_555
H6A C6A 1_555 1_555
C7A N2A 1_555 1_555
C2 C3 1_555 1_555
C4 C5 1_555 1_555
C4 C6 1_555 1_555
C2A C3A 1_555 1_555
C4A C5A 1_555 1_555
C4A C6A 1_555 1_555
C5A C7A 1_555 1_555

#END
