
#######################################################################
#
#                 Cambridge Crystallographic Data Centre
#                                CCDC 
#
#######################################################################
#
# If this CIF has been generated from an entry in the Cambridge 
# Structural Database, then it will include bibliographic, chemical, 
# crystal, experimental, refinement or atomic coordinate data resulting 
# from the CCDC's data processing and validation procedures.
#
#######################################################################

data_YARLOU
_symmetry_cell_setting           monoclinic
_symmetry_space_group_name_H-M   'C 2/c'
_symmetry_Int_Tables_number      15
_space_group_name_Hall           '-C 2yn'
loop_
_symmetry_equiv_pos_site_id
_symmetry_equiv_pos_as_xyz
1 x,y,z
2 -x,y,1/2-z
3 1/2+x,1/2+y,z
4 1/2-x,1/2+y,1/2-z
5 -x,-y,-z
6 x,-y,1/2+z
7 1/2-x,1/2-y,-z
8 1/2+x,1/2-y,1/2+z
_cell_length_a                   9.6802(19)
_cell_length_b                   16.899(3)
_cell_length_c                   10.494(2)
_cell_angle_alpha                90
_cell_angle_beta                 91.02(3)
_cell_angle_gamma                90
_cell_volume                     1716.4
loop_
_atom_site_label
_atom_site_type_symbol
_atom_site_fract_x
_atom_site_fract_y
_atom_site_fract_z
Ag1 Ag 0.5000 0.518330(16) 0.7500
C1 C 0.2559(2) 0.23626(16) 0.6889(2)
H1 H 0.2160 0.2065 0.6208
C2 C 0.2466(2) 0.31750(15) 0.6864(2)
H2 H 0.2013 0.3429 0.6166
C3 C 0.3220(2) 0.19688(15) 0.7886(2)
H3 H 0.3279 0.1408 0.7890
C4 C 0.3790(2) 0.24055(14) 0.88695(19)
H4 H 0.4245 0.2144 0.9560
C5 C 0.30293(18) 0.36266(13) 0.78509(18)
C6 C 0.4304(2) 0.36786(14) 0.98886(19)
C7 C 0.37040(19) 0.32252(13) 0.88579(18)
N1 N 0.4776(2) 0.40429(13) 1.07063(18)
N2 N 0.29644(16) 0.44634(11) 0.78433(16)
H5 H 0.2619 0.4622 0.8613
H6 H 0.2330 0.4610 0.7224
Ag1D Ag 0.5000 0.481670(16) 0.2500
Ag1D_2 Ag 0.5000 0.481670(16) 1.2500
C1A C 0.7441(2) 0.23626(16) 0.8111(2)
H1A H 0.7840 0.2065 0.8792
C2A C 0.7534(2) 0.31750(15) 0.8136(2)
H2A H 0.7987 0.3429 0.8834
C3A C 0.6780(2) 0.19688(15) 0.7114(2)
H3A H 0.6721 0.1408 0.7110
C4A C 0.6210(2) 0.24055(14) 0.61305(19)
H4A H 0.5755 0.2144 0.5440
C5A C 0.69707(18) 0.36266(13) 0.71491(18)
C6A C 0.5696(2) 0.36786(14) 0.51114(19)
C7A C 0.62960(19) 0.32252(13) 0.61421(18)
N1A N 0.5224(2) 0.40429(13) 0.42937(18)
N1D N 0.5224(2) 0.59571(13) 0.92937(18)
N1E N 0.4776(2) 0.59571(13) 0.57063(18)
N2A N 0.70356(16) 0.44634(11) 0.71567(16)
H5A H 0.7381 0.4622 0.6387
H6A H 0.7670 0.4610 0.7776
P1 P 0.0000 0.5000 0.5000
F1 F -0.0073(3) 0.4316(2) 0.6031(3)
F2 F -0.1514(2) 0.47619(16) 0.4498(2)
F3 F 0.0684(2) 0.44117(15) 0.4027(2)
F1D F 0.0073(3) 0.5684(2) 0.3969(3)
F2D F 0.1514(2) 0.52381(16) 0.5502(2)
F3D F -0.0684(2) 0.55883(15) 0.5973(2)
F4? F -0.0365(15) 0.4167(8) 0.5518(11)
F5? F -0.1604(10) 0.5220(9) 0.4942(15)
F6? F -0.0081(16) 0.4729(7) 0.3580(8)
loop_
_geom_bond_atom_site_label_1
_geom_bond_atom_site_label_2
_geom_bond_site_symmetry_1
_geom_bond_site_symmetry_2
Ag1 N2 1_555 1_555
P1 F1 1_555 1_555
C1 H1 1_555 1_555
C2 C1 1_555 1_555
H2 C2 1_555 1_555
C3 C1 1_555 1_555
H3 C3 1_555 1_555
C4 C3 1_555 1_555
H4 C4 1_555 1_555
C5 C2 1_555 1_555
C6 C7 1_555 1_555
C7 C4 1_555 1_555
N1 C6 1_555 1_555
N2 C5 1_555 1_555
H5 N2 1_555 1_555
H6 N2 1_555 1_555
F2 P1 1_555 1_555
F3 P1 1_555 1_555
Ag1D N1A 1_555 1_555
Ag1D_2 N1 1_555 1_555
C1A H1A 1_555 1_555
C2A C1A 1_555 1_555
H2A C2A 1_555 1_555
C3A C1A 1_555 1_555
H3A C3A 1_555 1_555
C4A C3A 1_555 1_555
H4A C4A 1_555 1_555
C5A C2A 1_555 1_555
C6A C7A 1_555 1_555
C7A C4A 1_555 1_555
N1A C6A 1_555 1_555
N1D Ag1 1_555 1_555
N1E Ag1 1_555 1_555
N2A Ag1 1_555 1_555
H5A N2A 1_555 1_555
H6A N2A 1_555 1_555
F1D P1 1_555 1_555
F2D P1 1_555 1_555
F3D P1 1_555 1_555
C5 C7 1_555 1_555
C5A C7A 1_555 1_555
C5A N2A 1_555 1_555

#END
