
#######################################################################
#
#                 Cambridge Crystallographic Data Centre
#                                CCDC 
#
#######################################################################
#
# If this CIF has been generated from an entry in the Cambridge 
# Structural Database, then it will include bibliographic, chemical, 
# crystal, experimental, refinement or atomic coordinate data resulting 
# from the CCDC's data processing and validation procedures.
#
#######################################################################

data_YARNIO
_symmetry_cell_setting           orthorhombic
_symmetry_space_group_name_H-M   'F d d 2'
_symmetry_Int_Tables_number      43
_space_group_name_Hall           'F 2 -2d'
loop_
_symmetry_equiv_pos_site_id
_symmetry_equiv_pos_as_xyz
1 x,y,z
2 x,1/2+y,1/2+z
3 1/2+x,y,1/2+z
4 1/2+x,1/2+y,z
5 1/4-x,1/4+y,1/4+z
6 1/4-x,3/4+y,3/4+z
7 3/4-x,1/4+y,3/4+z
8 3/4-x,3/4+y,1/4+z
9 1/4+x,1/4-y,1/4+z
10 1/4+x,3/4-y,3/4+z
11 3/4+x,1/4-y,3/4+z
12 3/4+x,3/4-y,1/4+z
13 1/2-x,-y,1/2+z
14 1/2-x,1/2-y,z
15 -x,-y,z
16 -x,1/2-y,1/2+z
_cell_length_a                   49.92(5)
_cell_length_b                   15.575(2)
_cell_length_c                   3.798(1)
_cell_angle_alpha                90
_cell_angle_beta                 90
_cell_angle_gamma                90
_cell_volume                     2952.96
loop_
_atom_site_label
_atom_site_type_symbol
_atom_site_fract_x
_atom_site_fract_y
_atom_site_fract_z
Cd1 Cd 0.00000 0.00000 0.0000
Cl1 Cl 0.03325(2) 0.04119(6) 0.4964(4)
C1 C -0.03669(6) 0.2462(2) 0.297(1)
C2 C -0.05971(8) 0.2834(2) 0.419(1)
C3 C -0.08345(7) 0.2407(3) 0.372(1)
C4 C -0.08454(7) 0.1629(3) 0.204(1)
C5 C -0.06126(7) 0.1278(2) 0.081(1)
N1 N -0.03767(6) 0.1703(2) 0.119(1)
N2 N -0.10827(7) 0.2804(3) 0.497(2)
O1 O -0.01587(5) 0.1403(2) -0.018(1)
O2 O -0.10624(8) 0.3426(3) 0.693(2)
O3 O -0.12944(7) 0.2493(3) 0.417(2)
H1 H -0.102(1) 0.134(3) 0.16(2)
H2 H -0.0200(9) 0.271(3) 0.35(1)
H3 H -0.063(1) 0.071(4) -0.04(2)
H4 H -0.063(1) 0.324(4) 0.50(3)
Cl1_2 Cl 0.03325(2) 0.04119(6) -0.5036(4)
Cl1N Cl -0.03325(2) -0.04119(6) 0.4964(4)
Cl1N_2 Cl -0.03325(2) -0.04119(6) -0.5036(4)
O1N O 0.01587(5) -0.1403(2) -0.018(1)
Cd1_2 Cd 0.00000 0.00000 1.0000
N1N N 0.03767(6) -0.1703(2) 0.119(1)
C1N C 0.03669(6) -0.2462(2) 0.297(1)
C5N C 0.06126(7) -0.1278(2) 0.081(1)
C2N C 0.05971(8) -0.2834(2) 0.419(1)
H2N H 0.0200(9) -0.271(3) 0.35(1)
C4N C 0.08454(7) -0.1629(3) 0.204(1)
H3N H 0.063(1) -0.071(4) -0.04(2)
C3N C 0.08345(7) -0.2407(3) 0.372(1)
H4N H 0.063(1) -0.324(4) 0.50(3)
H1N H 0.102(1) -0.134(3) 0.16(2)
N2N N 0.10827(7) -0.2804(3) 0.497(2)
O2N O 0.10624(8) -0.3426(3) 0.693(2)
O3N O 0.12944(7) -0.2493(3) 0.417(2)
loop_
_geom_bond_atom_site_label_1
_geom_bond_atom_site_label_2
_geom_bond_site_symmetry_1
_geom_bond_site_symmetry_2
Cd1 Cl1 1_555 1_555
Cl1 Cd1_2 1_555 1_555
C1 C2 1_555 1_555
C2 C3 1_555 1_555
C3 C4 1_555 1_555
C4 C5 1_555 1_555
C5 N1 1_555 1_555
N1 C1 1_555 1_555
N2 C3 1_555 1_555
O1 Cd1 1_555 1_555
O2 N2 1_555 1_555
O3 N2 1_555 1_555
H1 C4 1_555 1_555
H2 C1 1_555 1_555
H3 C5 1_555 1_555
H4 C2 1_555 1_555
Cl1_2 Cd1 1_555 1_555
Cl1N Cd1 1_555 1_555
Cl1N_2 Cd1 1_555 1_555
O1N Cd1 1_555 1_555
Cd1_2 Cl1N 1_555 1_555
N1N O1N 1_555 1_555
C1N N1N 1_555 1_555
C5N N1N 1_555 1_555
C2N C1N 1_555 1_555
H2N C1N 1_555 1_555
C4N C5N 1_555 1_555
H3N C5N 1_555 1_555
C3N C2N 1_555 1_555
H4N C2N 1_555 1_555
H1N C4N 1_555 1_555
N2N C3N 1_555 1_555
O2N N2N 1_555 1_555
O3N N2N 1_555 1_555
N1 O1 1_555 1_555
C4N C3N 1_555 1_555

#END
