
#######################################################################
#
#                 Cambridge Crystallographic Data Centre
#                                CCDC 
#
#######################################################################
#
# If this CIF has been generated from an entry in the Cambridge 
# Structural Database, then it will include bibliographic, chemical, 
# crystal, experimental, refinement or atomic coordinate data resulting 
# from the CCDC's data processing and validation procedures.
#
#######################################################################

data_YARRIU
_symmetry_cell_setting           monoclinic
_symmetry_space_group_name_H-M   'C 2/c'
_symmetry_Int_Tables_number      15
_space_group_name_Hall           '-C 2yn'
loop_
_symmetry_equiv_pos_site_id
_symmetry_equiv_pos_as_xyz
1 x,y,z
2 -x,y,1/2-z
3 1/2+x,1/2+y,z
4 1/2-x,1/2+y,1/2-z
5 -x,-y,-z
6 x,-y,1/2+z
7 1/2-x,1/2-y,-z
8 1/2+x,1/2-y,1/2+z
_cell_length_a                   13.022(3)
_cell_length_b                   19.354(4)
_cell_length_c                   7.3607(15)
_cell_angle_alpha                90
_cell_angle_beta                 123.63(3)
_cell_angle_gamma                90
_cell_volume                     1544.62
loop_
_atom_site_label
_atom_site_type_symbol
_atom_site_fract_x
_atom_site_fract_y
_atom_site_fract_z
Zn1 Zn 0.5000 0.69339(3) 0.7500
O1 O 0.6852(2) 0.66095(14) 0.6708(4)
O2 O 0.5797(2) 0.75493(12) 0.6491(4)
N1 N 0.3883(2) 0.62909(14) 0.4950(5)
N2 N 0.2345(2) 0.56225(15) 0.2552(5)
C1 C 0.4313(4) 0.5829(2) 0.4091(7)
H1 H 0.5122 0.5806 0.4470
C2 C 0.3380(3) 0.5416(2) 0.2615(7)
H2 H 0.3427 0.5064 0.1804
C3 C 0.2695(3) 0.61512(17) 0.3971(5)
H3 H 0.2167 0.6388 0.4229
C4 C 0.1140(3) 0.53099(17) 0.1252(5)
C5 C 0.1053(3) 0.45892(18) 0.1148(5)
H4 H 0.1760 0.4319 0.1929
C6 C -0.0093(3) 0.42813(18) -0.0127(6)
H5 H -0.0161 0.3802 -0.0228
C7 C 0.6553(3) 0.72235(19) 0.6190(6)
C8 C 0.7075(3) 0.76214(19) 0.5130(6)
H6 H 0.6779 0.8065 0.4629
Zn1D Zn -0.5000 0.30661(3) -0.7500
Zn1F Zn 1.0000 0.80661(3) 0.2500
O1F O 0.8148(2) 0.83905(14) 0.3292(4)
O2F O 0.9203(2) 0.74507(12) 0.3509(4)
O2A O 0.4203(2) 0.75493(12) 0.8509(4)
N1D N -0.3883(2) 0.37091(14) -0.4950(5)
N1A N 0.6117(2) 0.62909(14) 1.0050(5)
N2D N -0.2345(2) 0.43775(15) -0.2552(5)
C1D C -0.4313(4) 0.4171(2) -0.4091(7)
H1D H -0.5122 0.4194 -0.4470
C2D C -0.3380(3) 0.4584(2) -0.2615(7)
H2D H -0.3427 0.4936 -0.1804
C3D C -0.2695(3) 0.38488(17) -0.3971(5)
H3D H -0.2167 0.3612 -0.4229
C4D C -0.1140(3) 0.46901(17) -0.1252(5)
C5D C -0.1053(3) 0.54108(18) -0.1148(5)
H4D H -0.1760 0.5681 -0.1929
C6D C 0.0093(3) 0.57187(18) 0.0127(6)
H5D H 0.0161 0.6198 0.0228
C7F C 0.8447(3) 0.77765(19) 0.3810(6)
C8F C 0.7925(3) 0.73786(19) 0.4870(6)
H6F H 0.8221 0.6935 0.5371
loop_
_geom_bond_atom_site_label_1
_geom_bond_atom_site_label_2
_geom_bond_site_symmetry_1
_geom_bond_site_symmetry_2
Zn1 O2 1_555 1_555
O1 C7 1_555 1_555
O2 C7 1_555 1_555
N1 Zn1 1_555 1_555
N2 C2 1_555 1_555
C1 N1 1_555 1_555
H1 C1 1_555 1_555
C2 C1 1_555 1_555
H2 C2 1_555 1_555
C3 N1 1_555 1_555
H3 C3 1_555 1_555
C4 N2 1_555 1_555
C5 C4 1_555 1_555
H4 C5 1_555 1_555
C6 C5 1_555 1_555
H5 C6 1_555 1_555
C7 C8 1_555 1_555
C8 H6 1_555 1_555
Zn1D N1D 1_555 1_555
Zn1F O2F 1_555 1_555
O1F C7F 1_555 1_555
O2F C7F 1_555 1_555
O2A Zn1 1_555 1_555
N1D C1D 1_555 1_555
N1A Zn1 1_555 1_555
N2D C2D 1_555 1_555
C1D H1D 1_555 1_555
C2D C1D 1_555 1_555
H2D C2D 1_555 1_555
C3D N1D 1_555 1_555
H3D C3D 1_555 1_555
C4D C6 1_555 1_555
C5D C4D 1_555 1_555
H4D C5D 1_555 1_555
C6D C4 1_555 1_555
H5D C6D 1_555 1_555
C7F C8F 1_555 1_555
C8F C8 1_555 1_555
H6F C8F 1_555 1_555
N2 C3 1_555 1_555
N2D C3D 1_555 1_555
N2D C4D 1_555 1_555
C5D C6D 1_555 1_555

#END
