
#######################################################################
#
#                 Cambridge Crystallographic Data Centre
#                                CCDC 
#
#######################################################################
#
# If this CIF has been generated from an entry in the Cambridge 
# Structural Database, then it will include bibliographic, chemical, 
# crystal, experimental, refinement or atomic coordinate data resulting 
# from the CCDC's data processing and validation procedures.
#
#######################################################################

data_YARRUG
_symmetry_cell_setting           tetragonal
_symmetry_space_group_name_H-M   'P 43'
_symmetry_Int_Tables_number      78
_space_group_name_Hall           'P 4cw'
loop_
_symmetry_equiv_pos_site_id
_symmetry_equiv_pos_as_xyz
1 x,y,z
2 -y,x,3/4+z
3 -x,-y,1/2+z
4 y,-x,1/4+z
_cell_length_a                   8.0153(16)
_cell_length_b                   8.0153(16)
_cell_length_c                   33.532(7)
_cell_angle_alpha                90
_cell_angle_beta                 90
_cell_angle_gamma                90
_cell_volume                     2154.26
loop_
_atom_site_label
_atom_site_type_symbol
_atom_site_fract_x
_atom_site_fract_y
_atom_site_fract_z
Zn1 Zn 0.07632(14) 0.21463(14) 0.25209(3)
O1 O 0.1501(11) 0.3328(9) 0.1803(2)
O2 O -0.0621(9) 0.3767(9) 0.2209(2)
O3 O -0.1927(10) 0.9096(9) 0.04451(18)
O4 O -0.0579(11) 1.0865(11) 0.0850(2)
N1 N 0.1794(11) -0.0003(10) 0.2328(2)
N2 N 0.3110(11) -0.1861(11) 0.1948(2)
N3 N 0.5723(11) -0.5127(11) 0.0599(2)
N4 N 0.6713(11) -0.7135(11) 0.0223(2)
C1 C 0.0214(17) 0.4031(15) 0.1892(3)
C2 C -0.0385(12) 0.5466(14) 0.1625(3)
C3 C -0.0142(13) 0.5246(15) 0.1220(3)
H1 H 0.0238 0.4190 0.1120
C4 C -0.0516(14) 0.6578(15) 0.0954(3)
H2 H -0.0356 0.6417 0.0673
C5 C -0.1054(13) 0.8080(14) 0.1077(3)
C6 C -0.1441(14) 0.8331(14) 0.1495(3)
C7 C -0.1140(12) 0.6973(13) 0.1764(3)
C8 C -0.1533(15) 0.7240(16) 0.2176(3)
H3 H -0.1300 0.6383 0.2368
C9 C -0.2252(15) 0.8714(19) 0.2293(3)
H4 H -0.2604 0.8841 0.2565
C10 C -0.2537(14) 1.0016(16) 0.2034(3)
H5 H -0.2957 1.1068 0.2128
C11 C -0.2131(14) 0.9802(14) 0.1642(3)
H6 H -0.2371 1.0679 0.1455
C12 C -0.1191(14) 0.9481(16) 0.0782(3)
C13 C 0.6910(12) -0.5611(13) 0.0026(4)
H7 H 0.7379 -0.5480 -0.0235
C14 C 0.5995(14) -0.6779(13) 0.0565(3)
H8 H 0.5743 -0.7587 0.0768
C15 C 0.6267(14) -0.4392(13) 0.0259(3)
H9 H 0.6269 -0.3221 0.0200
C16 C 0.5028(13) -0.4271(15) 0.0948(3)
C17 C 0.5308(14) -0.4915(15) 0.1324(3)
H10 H 0.5937 -0.5927 0.1354
C18 C 0.4665(14) -0.4124(15) 0.1650(3)
H11 H 0.4864 -0.4557 0.1913
C19 C 0.3801(14) -0.2671(14) 0.1612(3)
C20 C 0.3577(17) -0.2009(16) 0.1230(3)
H12 H 0.2990 -0.0974 0.1197
C21 C 0.4173(17) -0.2847(17) 0.0907(3)
H13 H 0.3991 -0.2423 0.0643
C22 C 0.3172(16) -0.2396(17) 0.2334(3)
H14 H 0.3688 -0.3409 0.2424
C23 C 0.2394(15) -0.1259(14) 0.2562(4)
H15 H 0.2249 -0.1328 0.2846
C24 C 0.2289(13) -0.0367(12) 0.1971(3)
H16 H 0.2115 0.0346 0.1745
Zn1A Zn -0.21463(14) 1.07632(14) 0.00209(3)
Zn1A_2 Zn 0.78537(14) -0.92368(14) 0.00209(3)
O3C O -0.0904(9) 0.1927(10) 0.29451(18)
N4C N 0.2865(11) 0.3287(11) 0.2723(2)
O5 O 0.2664(11) 0.1937(11) 0.1082(3)
H17 H 0.283(12) 0.293(6) 0.116(4)
H18 H 0.164(5) 0.162(12) 0.107(4)
loop_
_geom_bond_atom_site_label_1
_geom_bond_atom_site_label_2
_geom_bond_site_symmetry_1
_geom_bond_site_symmetry_2
Zn1 O2 1_555 1_555
O1 C1 1_555 1_555
O2 C1 1_555 1_555
O3 C12 1_555 1_555
O4 C12 1_555 1_555
N1 Zn1 1_555 1_555
N2 C19 1_555 1_555
N3 C14 1_555 1_555
N4 C13 1_555 1_555
C1 C2 1_555 1_555
C2 C3 1_555 1_555
C3 H1 1_555 1_555
C4 C3 1_555 1_555
H2 C4 1_555 1_555
C5 C4 1_555 1_555
C6 C5 1_555 1_555
C7 C2 1_555 1_555
C8 C7 1_555 1_555
H3 C8 1_555 1_555
C9 C8 1_555 1_555
H4 C9 1_555 1_555
C10 C9 1_555 1_555
H5 C10 1_555 1_555
C11 C6 1_555 1_555
H6 C11 1_555 1_555
C12 C5 1_555 1_555
C13 H7 1_555 1_555
C14 N4 1_555 1_555
H8 C14 1_555 1_555
C15 N3 1_555 1_555
H9 C15 1_555 1_555
C16 N3 1_555 1_555
C17 C16 1_555 1_555
H10 C17 1_555 1_555
C18 C17 1_555 1_555
H11 C18 1_555 1_555
C19 C18 1_555 1_555
C20 C19 1_555 1_555
H12 C20 1_555 1_555
C21 C16 1_555 1_555
H13 C21 1_555 1_555
C22 N2 1_555 1_555
H14 C22 1_555 1_555
C23 N1 1_555 1_555
H15 C23 1_555 1_555
C24 N1 1_555 1_555
H16 C24 1_555 1_555
O5 H17 1_555 1_555
H18 O5 1_555 1_555
Zn1A O3 1_555 1_555
Zn1A_2 N4 1_555 1_555
O3C Zn1 1_555 1_555
N4C Zn1 1_555 1_555
N2 C24 1_555 1_555
C6 C7 1_555 1_555
C10 C11 1_555 1_555
C13 C15 1_555 1_555
C20 C21 1_555 1_555
C22 C23 1_555 1_555

#END
