
#######################################################################
#
#                 Cambridge Crystallographic Data Centre
#                                CCDC 
#
#######################################################################
#
# If this CIF has been generated from an entry in the Cambridge 
# Structural Database, then it will include bibliographic, chemical, 
# crystal, experimental, refinement or atomic coordinate data resulting 
# from the CCDC's data processing and validation procedures.
#
#######################################################################

data_YARROA
_symmetry_cell_setting           monoclinic
_symmetry_space_group_name_H-M   'P 21/c'
_symmetry_Int_Tables_number      14
_space_group_name_Hall           '-P 2ybc'
loop_
_symmetry_equiv_pos_site_id
_symmetry_equiv_pos_as_xyz
1 x,y,z
2 -x,1/2+y,1/2-z
3 -x,-y,-z
4 x,1/2-y,1/2+z
_cell_length_a                   8.1487(16)
_cell_length_b                   14.991(3)
_cell_length_c                   11.733(2)
_cell_angle_alpha                90
_cell_angle_beta                 109.48(3)
_cell_angle_gamma                90
_cell_volume                     1351.23
loop_
_atom_site_label
_atom_site_type_symbol
_atom_site_fract_x
_atom_site_fract_y
_atom_site_fract_z
Zn1 Zn 0.00783(11) 0.02351(6) 0.15197(8)
O1 O 0.0454(9) 0.1777(4) 0.2622(6)
O2 O 0.2012(7) 0.1061(4) 0.1713(5)
O3 O 0.7881(7) 0.4465(4) 0.5265(5)
O4 O 0.8789(7) 0.4113(4) 0.3732(5)
N1 N -0.0771(8) -0.0208(5) 0.2829(6)
N2 N -0.2371(8) -0.0340(4) 0.3997(6)
N3 N 0.2039(11) 0.3022(6) 0.4257(8)
H1 H 0.2141 0.3382 0.4848
H2 H 0.1126 0.2694 0.3983
C1 C 0.1823(12) 0.1703(6) 0.2368(8)
C2 C 0.3285(10) 0.2347(5) 0.2850(7)
C3 C 0.4690(10) 0.2296(6) 0.2421(7)
H3 H 0.4656 0.1884 0.1821
C4 C 0.6128(11) 0.2843(6) 0.2868(7)
H4 H 0.7055 0.2798 0.2576
C5 C 0.6166(10) 0.3467(5) 0.3768(7)
C6 C 0.4780(10) 0.3509(5) 0.4216(7)
H5 H 0.4831 0.3905 0.4837
C7 C 0.3337(10) 0.2971(5) 0.3752(7)
C8 C 0.7742(10) 0.4053(5) 0.4306(8)
C9 C -0.0252(10) -0.0950(6) 0.3555(7)
H6 H 0.0631 -0.1339 0.3541
C10 C -0.1204(10) -0.1029(5) 0.4277(8)
H7 H -0.1097 -0.1467 0.4859
C11 C -0.2063(11) 0.0136(6) 0.3121(8)
H8 H -0.2681 0.0643 0.2767
C12 C -0.3707(10) -0.0154(6) 0.4509(7)
C13 C -0.4563(11) -0.0873(6) 0.4810(7)
H9 H -0.4266 -0.1454 0.4679
C14 C -0.4145(11) 0.0717(6) 0.4697(8)
H10 H -0.3568 0.1194 0.4491
Zn1C Zn 1.00783(11) 0.47649(6) 0.65197(8)
Zn1A Zn 0.99217(11) 0.52351(6) 0.34803(8)
Zn1B Zn -1.00783(11) -0.02351(6) 0.84803(8)
Zn1A_2 Zn -2.00783(11) -0.47649(6) 0.34803(8)
Zn1C_2 Zn -1.99217(11) -0.52351(6) 0.65197(8)
O1B O -1.0454(9) -0.1777(4) 0.7378(6)
O2B O -1.2012(7) -0.1061(4) 0.8287(5)
O3C O -0.2119(7) 0.0535(4) 0.0265(5)
O3A O -0.7881(7) -0.0535(4) 0.9735(5)
O3B O -1.7881(7) -0.4465(4) 0.4735(5)
O4A O 0.1211(7) -0.0887(4) 0.1268(5)
O4C O -1.1211(7) 0.0887(4) 0.8732(5)
O4B O -1.8789(7) -0.4113(4) 0.6268(5)
N1B N -0.9229(8) 0.0208(5) 0.7171(6)
N2B N -0.7629(8) 0.0340(4) 0.6003(6)
N3B N -1.2039(11) -0.3022(6) 0.5743(8)
H1B H -1.2141 -0.3382 0.5152
H2B H -1.1126 -0.2694 0.6017
C1B C -1.1823(12) -0.1703(6) 0.7632(8)
C2B C -1.3285(10) -0.2347(5) 0.7150(7)
C3B C -1.4690(10) -0.2296(6) 0.7579(7)
H3B H -1.4656 -0.1884 0.8179
C4B C -1.6128(11) -0.2843(6) 0.7132(7)
H4B H -1.7055 -0.2798 0.7424
C5B C -1.6166(10) -0.3467(5) 0.6232(7)
C6B C -1.4780(10) -0.3509(5) 0.5784(7)
H5B H -1.4831 -0.3905 0.5163
C7B C -1.3337(10) -0.2971(5) 0.6248(7)
C8B C -1.7742(10) -0.4053(5) 0.5694(8)
C9B C -0.9748(10) 0.0950(6) 0.6445(7)
H6B H -1.0631 0.1339 0.6459
C10B C -0.8796(10) 0.1029(5) 0.5723(8)
H7B H -0.8903 0.1467 0.5141
C11B C -0.7937(11) -0.0136(6) 0.6879(8)
H8B H -0.7319 -0.0643 0.7233
C12B C -0.6293(10) 0.0154(6) 0.5491(7)
C13B C -0.5437(11) 0.0873(6) 0.5190(7)
H9B H -0.5734 0.1454 0.5321
C14B C -0.5855(11) -0.0717(6) 0.5303(8)
H10B H -0.6432 -0.1194 0.5509
loop_
_geom_bond_atom_site_label_1
_geom_bond_atom_site_label_2
_geom_bond_site_symmetry_1
_geom_bond_site_symmetry_2
Zn1 O2 1_555 1_555
O1 C1 1_555 1_555
O2 C1 1_555 1_555
O3 C8 1_555 1_555
O4 C8 1_555 1_555
N1 Zn1 1_555 1_555
N2 C10 1_555 1_555
N3 H1 1_555 1_555
H2 N3 1_555 1_555
C1 C2 1_555 1_555
C2 C3 1_555 1_555
C3 H3 1_555 1_555
C4 C3 1_555 1_555
H4 C4 1_555 1_555
C5 C4 1_555 1_555
C6 C5 1_555 1_555
H5 C6 1_555 1_555
C7 N3 1_555 1_555
C8 C5 1_555 1_555
C9 N1 1_555 1_555
H6 C9 1_555 1_555
C10 C9 1_555 1_555
H7 C10 1_555 1_555
C11 N1 1_555 1_555
H8 C11 1_555 1_555
C12 N2 1_555 1_555
C13 C12 1_555 1_555
H9 C13 1_555 1_555
C14 C12 1_555 1_555
H10 C14 1_555 1_555
Zn1C O3 1_555 1_555
Zn1A O4 1_555 1_555
Zn1B O2B 1_555 1_555
Zn1A_2 O3B 1_555 1_555
Zn1C_2 O4B 1_555 1_555
O1B C1B 1_555 1_555
O2B C1B 1_555 1_555
O3C Zn1 1_555 1_555
O3A Zn1B 1_555 1_555
O3B C8B 1_555 1_555
O4A Zn1 1_555 1_555
O4C Zn1B 1_555 1_555
O4B C8B 1_555 1_555
N1B Zn1B 1_555 1_555
N2B C10B 1_555 1_555
N3B H1B 1_555 1_555
H2B N3B 1_555 1_555
C1B C2B 1_555 1_555
C2B C3B 1_555 1_555
C3B H3B 1_555 1_555
C4B C3B 1_555 1_555
H4B C4B 1_555 1_555
C5B C4B 1_555 1_555
C6B C5B 1_555 1_555
H5B C6B 1_555 1_555
C7B N3B 1_555 1_555
C8B C5B 1_555 1_555
C9B N1B 1_555 1_555
H6B C9B 1_555 1_555
C10B C9B 1_555 1_555
H7B C10B 1_555 1_555
C11B N1B 1_555 1_555
H8B C11B 1_555 1_555
C12B N2B 1_555 1_555
C13B C14 1_555 1_555
H9B C13B 1_555 1_555
C14B C13 1_555 1_555
H10B C14B 1_555 1_555
N2 C11 1_555 1_555
C2 C7 1_555 1_555
C6 C7 1_555 1_555
N2B C11B 1_555 1_555
C2B C7B 1_555 1_555
C6B C7B 1_555 1_555
C12B C13B 1_555 1_555
C12B C14B 1_555 1_555

#END
