
#######################################################################
#
#                 Cambridge Crystallographic Data Centre
#                                CCDC 
#
#######################################################################
#
# If this CIF has been generated from an entry in the Cambridge 
# Structural Database, then it will include bibliographic, chemical, 
# crystal, experimental, refinement or atomic coordinate data resulting 
# from the CCDC's data processing and validation procedures.
#
#######################################################################

data_YARSIT
_symmetry_cell_setting           orthorhombic
_symmetry_space_group_name_H-M   'P c a 21'
_symmetry_Int_Tables_number      29
_space_group_name_Hall           'P 2c -2ac'
loop_
_symmetry_equiv_pos_site_id
_symmetry_equiv_pos_as_xyz
1 x,y,z
2 1/2-x,y,1/2+z
3 1/2+x,-y,z
4 -x,-y,1/2+z
_cell_length_a                   10.830(2)
_cell_length_b                   20.038(4)
_cell_length_c                   11.196(2)
_cell_angle_alpha                90
_cell_angle_beta                 90
_cell_angle_gamma                90
_cell_volume                     2429.66
loop_
_atom_site_label
_atom_site_type_symbol
_atom_site_fract_x
_atom_site_fract_y
_atom_site_fract_z
Co1 Co 0.0010(4) 0.2501(2) 0.3008(5)
O1 O -0.041(1) 0.1512(6) 0.320(1)
N1 N 0.120(1) 0.2262(6) 0.149(1)
C1 C -0.008(2) 0.108(1) 0.249(3)
C2 C -0.075(3) 0.034(1) 0.282(3)
F1 F -0.033(3) 0.0218(8) 0.385(2)
F2 F -0.191(1) 0.0469(6) 0.290(2)
F3 F -0.048(2) -0.007(1) 0.204(1)
C3 C 0.062(2) 0.1090(7) 0.148(2)
C4 C 0.123(1) 0.1660(7) 0.109(1)
C5 C 0.209(1) 0.162(1) 0.005(1)
C6 C 0.302(2) 0.104(1) 0.022(2)
C7 C 0.135(2) 0.149(1) -0.110(2)
N2 N 0.259(2) 0.2271(7) 0.010(1)
O2 O 0.336(1) 0.2515(7) -0.076(2)
C8 C 0.196(2) 0.274(1) 0.089(2)
C9 C 0.297(1) 0.3009(7) 0.175(2)
C10 C 0.128(3) 0.329(1) 0.020(1)
O3 O 0.033(1) 0.3418(8) 0.289(1)
N3 N -0.106(1) 0.2697(7) 0.452(2)
C11 C 0.023(3) 0.3941(7) 0.367(1)
C12 C 0.080(2) 0.4547(7) 0.336(2)
F4 F 0.063(2) 0.4759(6) 0.221(1)
F5 F 0.035(2) 0.5092(5) 0.388(2)
F6 F 0.197(1) 0.462(1) 0.355(2)
C13 C -0.047(1) 0.390(1) 0.470(1)
C14 C -0.113(2) 0.333(1) 0.505(2)
C15 C -0.199(3) 0.338(1) 0.621(2)
C16 C -0.308(2) 0.387(1) 0.601(2)
C17 C -0.137(2) 0.349(1) 0.738(2)
N4 N -0.257(1) 0.2707(7) 0.614(1)
O4 O -0.337(1) 0.2503(6) 0.680(1)
C18 C -0.194(1) 0.226(1) 0.520(1)
C19 C -0.120(1) 0.1736(8) 0.588(2)
C20 C -0.289(2) 0.190(1) 0.445(2)
O2A O 0.164(1) 0.2515(7) 0.424(2)
O4A O -0.163(1) 0.2503(6) 0.180(1)
Co1A Co 0.4990(4) 0.2501(2) -0.1992(5)
Co1A_2 Co -0.5010(4) 0.2501(2) 0.8008(5)
loop_
_geom_bond_atom_site_label_1
_geom_bond_atom_site_label_2
_geom_bond_site_symmetry_1
_geom_bond_site_symmetry_2
Co1 O1 1_555 1_555
O1 C1 1_555 1_555
N1 Co1 1_555 1_555
C1 C2 1_555 1_555
C2 F1 1_555 1_555
F2 C2 1_555 1_555
F3 C2 1_555 1_555
C3 C1 1_555 1_555
C4 N1 1_555 1_555
C5 C4 1_555 1_555
C6 C5 1_555 1_555
C7 C5 1_555 1_555
N2 C5 1_555 1_555
O2 N2 1_555 1_555
C8 N1 1_555 1_555
C9 C8 1_555 1_555
C10 C8 1_555 1_555
O3 Co1 1_555 1_555
N3 Co1 1_555 1_555
C11 O3 1_555 1_555
C12 C11 1_555 1_555
F4 C12 1_555 1_555
F5 C12 1_555 1_555
F6 C12 1_555 1_555
C13 C11 1_555 1_555
C14 N3 1_555 1_555
C15 C14 1_555 1_555
C16 C15 1_555 1_555
C17 C15 1_555 1_555
N4 C15 1_555 1_555
O4 N4 1_555 1_555
C18 N3 1_555 1_555
C19 C18 1_555 1_555
C20 C18 1_555 1_555
O2A Co1 1_555 1_555
O4A Co1 1_555 1_555
Co1A O2 1_555 1_555
Co1A_2 O4 1_555 1_555
C3 C4 1_555 1_555
N2 C8 1_555 1_555
C13 C14 1_555 1_555
N4 C18 1_555 1_555

#END
