
#######################################################################
#
#                 Cambridge Crystallographic Data Centre
#                                CCDC 
#
#######################################################################
#
# If this CIF has been generated from an entry in the Cambridge 
# Structural Database, then it will include bibliographic, chemical, 
# crystal, experimental, refinement or atomic coordinate data resulting 
# from the CCDC's data processing and validation procedures.
#
#######################################################################

data_YARVUI
_symmetry_cell_setting           monoclinic
_symmetry_space_group_name_H-M   'P 21/n'
_symmetry_Int_Tables_number      14
_space_group_name_Hall           '-P 2yn'
loop_
_symmetry_equiv_pos_site_id
_symmetry_equiv_pos_as_xyz
1 x,y,z
2 1/2-x,1/2+y,1/2-z
3 -x,-y,-z
4 1/2+x,1/2-y,1/2+z
_cell_length_a                   11.457(2)
_cell_length_b                   10.183(1)
_cell_length_c                   11.514(2)
_cell_angle_alpha                90
_cell_angle_beta                 94.67(1)
_cell_angle_gamma                90
_cell_volume                     1338.84
loop_
_atom_site_label
_atom_site_type_symbol
_atom_site_fract_x
_atom_site_fract_y
_atom_site_fract_z
Mn1 Mn 0.00000 0.00000 0.00000
Mn2 Mn 0.00000 0.00000 -0.5
Mn3 Mn 0.08348(2) 0.14132(2) -0.25834(2)
Cl1 Cl 0.19238(3) 0.01286(4) -0.09744(3)
Cl2 Cl -0.03987(3) 0.23110(3) -0.43545(3)
Cl3 Cl -0.05274(3) 0.21532(4) -0.11271(3)
Cl4 Cl 0.20634(3) 0.04486(4) -0.42017(3)
O1 O 0.2014(1) 0.3032(1) -0.2394(1)
O2 O 0.0729(1) 0.1148(1) 0.14223(8)
O3 O -0.02417(9) -0.0382(1) -0.31276(8)
N1 N 0.1003(1) 0.3711(1) 0.247(1)
C1 C 0.1380(2) 0.4786(2) 0.3315(2)
C2 C -0.0261(2) 0.3891(2) 0.2079(2)
C3 C 0.1728(2) 0.3817(2) 0.1463(2)
C4 C 0.1199(1) 0.2437(1) 0.3117(1)
C5 C 0.0674(1) 0.1235(1) 0.2486(1)
H1 H 0.092(2) 0.467(2) 0.387(2)
H2 H 0.128(2) 0.564(2) 0.287(2)
H3 H 0.217(2) 0.463(3) 0.360(2)
H4 H -0.040(7) 0.476(3) 0.183(2)
H5 H -0.069(2) 0.389(3) 0.288(2)
H6 H -0.042(2) 0.319(3) 0.156(2)
H7 H 0.161(2) 0.481(2) 0.115(2)
H8 H 0.245(2) 0.375(3) 0.179(2)
H9 H 0.146(2) 0.318(3) 0.086(2)
H10 H 0.200(2) 0.226(2) 0.326(2)
H11 H 0.090(2) 0.257(2) 0.386(2)
H12 H 0.221(2) 0.338(2) -0.298(2)
H13 H 0.211(2) 0.345(3) -0.183(2)
Cl2B Cl 0.03987(3) -0.23110(3) -0.56455(3)
Cl4B Cl -0.20634(3) -0.04486(4) -0.57983(3)
Cl1B Cl -0.19238(3) -0.01286(4) 0.09744(3)
Cl3B Cl 0.05274(3) -0.21532(4) 0.11271(3)
O3B O 0.02417(9) 0.0382(1) 0.31276(8)
Mn2B Mn 0.00000 0.00000 0.5
Cl2B_2 Cl 0.03987(3) -0.23110(3) 0.43545(3)
Cl4B_2 Cl -0.20634(3) -0.04486(4) 0.42017(3)
Mn3B Mn -0.08348(2) -0.14132(2) 0.25834(2)
O1B O -0.2014(1) -0.3032(1) 0.2394(1)
H12B H -0.221(2) -0.338(2) 0.298(2)
H13B H -0.211(2) -0.345(3) 0.183(2)
O2B O -0.0729(1) -0.1148(1) -0.14223(8)
O3B_2 O 0.02417(9) 0.0382(1) -0.68724(8)
C5B C -0.0674(1) -0.1235(1) -0.2486(1)
C4B C -0.1199(1) -0.2437(1) -0.3117(1)
N1B N -0.1003(1) -0.3711(1) -0.247(1)
C1B C -0.1380(2) -0.4786(2) -0.3315(2)
H1B H -0.092(2) -0.467(2) -0.387(2)
H2B H -0.128(2) -0.564(2) -0.287(2)
H3B H -0.217(2) -0.463(3) -0.360(2)
C2B C 0.0261(2) -0.3891(2) -0.2079(2)
H4B H 0.040(7) -0.476(3) -0.183(2)
H5B H 0.069(2) -0.389(3) -0.288(2)
H6B H 0.042(2) -0.319(3) -0.156(2)
C3B C -0.1728(2) -0.3817(2) -0.1463(2)
H7B H -0.161(2) -0.481(2) -0.115(2)
H8B H -0.245(2) -0.375(3) -0.179(2)
H9B H -0.146(2) -0.318(3) -0.086(2)
H10B H -0.200(2) -0.226(2) -0.326(2)
H11B H -0.090(2) -0.257(2) -0.386(2)
loop_
_geom_bond_atom_site_label_1
_geom_bond_atom_site_label_2
_geom_bond_site_symmetry_1
_geom_bond_site_symmetry_2
Mn1 Cl1 1_555 1_555
Mn2 Cl2 1_555 1_555
Mn3 Cl1 1_555 1_555
Cl2 Mn3 1_555 1_555
Cl3 Mn1 1_555 1_555
Cl4 Mn2 1_555 1_555
O1 Mn3 1_555 1_555
O2 Mn1 1_555 1_555
O3 Mn2 1_555 1_555
N1 C1 1_555 1_555
C1 H1 1_555 1_555
C2 N1 1_555 1_555
C3 N1 1_555 1_555
C4 N1 1_555 1_555
C5 O2 1_555 1_555
H2 C1 1_555 1_555
H3 C1 1_555 1_555
H4 C2 1_555 1_555
H5 C2 1_555 1_555
H6 C2 1_555 1_555
H7 C3 1_555 1_555
H8 C3 1_555 1_555
H9 C3 1_555 1_555
H10 C4 1_555 1_555
H11 C4 1_555 1_555
H12 O1 1_555 1_555
H13 O1 1_555 1_555
Cl2B Mn2 1_555 1_555
Cl4B Mn2 1_555 1_555
Cl1B Mn1 1_555 1_555
Cl3B Mn1 1_555 1_555
O3B C5 1_555 1_555
Mn2B O3B 1_555 1_555
Cl2B_2 Mn2B 1_555 1_555
Cl4B_2 Mn2B 1_555 1_555
Mn3B Cl1B 1_555 1_555
O1B Mn3B 1_555 1_555
H12B O1B 1_555 1_555
H13B O1B 1_555 1_555
O2B Mn1 1_555 1_555
O3B_2 Mn2 1_555 1_555
C5B O3 1_555 1_555
C4B C5B 1_555 1_555
N1B C4B 1_555 1_555
C1B N1B 1_555 1_555
H1B C1B 1_555 1_555
H2B C1B 1_555 1_555
H3B C1B 1_555 1_555
C2B N1B 1_555 1_555
H4B C2B 1_555 1_555
H5B C2B 1_555 1_555
H6B C2B 1_555 1_555
C3B N1B 1_555 1_555
H7B C3B 1_555 1_555
H8B C3B 1_555 1_555
H9B C3B 1_555 1_555
H10B C4B 1_555 1_555
H11B C4B 1_555 1_555
Mn3 Cl3 1_555 1_555
Mn3 Cl4 1_555 1_555
Mn3 O3 1_555 1_555
C4 C5 1_555 1_555
Cl3B Mn3B 1_555 1_555
O3B Mn3B 1_555 1_555
Cl2B_2 Mn3B 1_555 1_555
Cl4B_2 Mn3B 1_555 1_555
O2B C5B 1_555 1_555

#END
