
#######################################################################
#
#                 Cambridge Crystallographic Data Centre
#                                CCDC 
#
#######################################################################
#
# If this CIF has been generated from an entry in the Cambridge 
# Structural Database, then it will include bibliographic, chemical, 
# crystal, experimental, refinement or atomic coordinate data resulting 
# from the CCDC's data processing and validation procedures.
#
#######################################################################

data_YARXAQ
_symmetry_cell_setting           monoclinic
_symmetry_space_group_name_H-M   'P 21/a'
_symmetry_Int_Tables_number      14
_space_group_name_Hall           '-P 2yab'
loop_
_symmetry_equiv_pos_site_id
_symmetry_equiv_pos_as_xyz
1 x,y,z
2 1/2+x,1/2-y,z
3 -x,-y,-z
4 1/2-x,1/2+y,-z
_cell_length_a                   17.060(3)
_cell_length_b                   15.858(2)
_cell_length_c                   8.561(2)
_cell_angle_alpha                90.00
_cell_angle_beta                 103.30(2)
_cell_angle_gamma                90.00
_cell_volume                     2253.95
loop_
_atom_site_label
_atom_site_type_symbol
_atom_site_fract_x
_atom_site_fract_y
_atom_site_fract_z
Ag1 Ag 0.92962(3) 0.30713(2) 0.34353(6)
S1 S 0.83918(11) 0.00890(10) 0.8543(2)
S2 S 0.93038(10) 0.72948(8) 0.21761(18)
N1 N 0.9416(3) 0.4471(2) 0.3165(5)
N2 N 0.6891(3) 0.7741(2) -0.1330(5)
N3 N 0.9030(3) 0.2093(2) 0.5219(5)
N4 N 0.9679(3) -0.2302(3) 0.7528(6)
C1 C 0.9951(4) 0.4842(3) 0.2509(7)
H1 H 1.0361 0.4514 0.2272
C2 C 0.9937(4) 0.5699(3) 0.2150(7)
H2 H 1.0324 0.5935 0.1674
C3 C 0.9341(3) 0.6186(3) 0.2516(5)
C4 C 0.8794(4) 0.5813(3) 0.3263(7)
H3 H 0.8397 0.6133 0.3564
C5 C 0.8846(4) 0.4955(3) 0.3556(6)
H4 H 0.8471 0.4704 0.4045
C6 C 0.7233(4) 0.8300(3) -0.0212(6)
H5 H 0.6968 0.8810 -0.0171
C7 C 0.7947(4) 0.8171(3) 0.0876(6)
H6 H 0.8156 0.8581 0.1634
C8 C 0.8353(3) 0.7422(3) 0.0831(5)
C9 C 0.8013(4) 0.6834(3) -0.0315(6)
H7 H 0.8268 0.6321 -0.0382
C10 C 0.7296(4) 0.7016(3) -0.1347(6)
H8 H 0.7074 0.6613 -0.2110
C11 C 0.8573(4) 0.2244(3) 0.6254(7)
H9 H 0.8370 0.2786 0.6297
C12 C 0.8384(4) 0.1639(3) 0.7270(7)
H10 H 0.8064 0.1778 0.7978
C13 C 0.8670(3) 0.0825(3) 0.7229(6)
C14 C 0.9148(4) 0.0665(3) 0.6173(6)
H11 H 0.9360 0.0129 0.6116
C15 C 0.9312(4) 0.1300(3) 0.5196(6)
H12 H 0.9634 0.1174 0.4484
C16 C 0.9956(4) -0.1822(4) 0.8804(7)
H13 H 1.0431 -0.1986 0.9512
C17 C 0.9587(4) -0.1098(4) 0.9148(8)
H14 H 0.9809 -0.0784 1.0060
C18 C 0.8885(4) -0.0848(3) 0.8123(7)
C19 C 0.8563(4) -0.1354(4) 0.6833(7)
H15 H 0.8075 -0.1219 0.6141
C20 C 0.8982(4) -0.2067(4) 0.6590(8)
H16 H 0.8762 -0.2404 0.5711
N2C N 0.8109(3) 0.2741(2) 0.1330(5)
N4B N 1.0321(3) 0.2302(3) 0.2472(6)
Ag1C Ag 0.57038(3) 0.80713(2) -0.34353(6)
Ag1B Ag 1.07038(3) -0.30713(2) 0.65647(6)
B1 B 0.7754(6) 0.4950(4) -0.2969(8)
F1 F 0.8298(3) 0.4948(2) -0.1500(4)
F2 F 0.6994(3) 0.4971(2) -0.2735(6)
F3 F 0.7880(2) 0.4213(2) -0.3755(4)
F4 F 0.7899(3) 0.5640(2) -0.3835(4)
loop_
_geom_bond_atom_site_label_1
_geom_bond_atom_site_label_2
_geom_bond_site_symmetry_1
_geom_bond_site_symmetry_2
Ag1 N1 1_555 1_555
S1 C13 1_555 1_555
S2 C3 1_555 1_555
N1 C1 1_555 1_555
N2 C6 1_555 1_555
N3 Ag1 1_555 1_555
N4 C16 1_555 1_555
C1 H1 1_555 1_555
C2 C1 1_555 1_555
H2 C2 1_555 1_555
C3 C2 1_555 1_555
C4 C3 1_555 1_555
H3 C4 1_555 1_555
C5 N1 1_555 1_555
H4 C5 1_555 1_555
C6 H5 1_555 1_555
C7 C6 1_555 1_555
H6 C7 1_555 1_555
C8 S2 1_555 1_555
C9 C8 1_555 1_555
H7 C9 1_555 1_555
C10 N2 1_555 1_555
H8 C10 1_555 1_555
C11 N3 1_555 1_555
H9 C11 1_555 1_555
C12 C11 1_555 1_555
H10 C12 1_555 1_555
C13 C12 1_555 1_555
C14 C13 1_555 1_555
H11 C14 1_555 1_555
C15 N3 1_555 1_555
H12 C15 1_555 1_555
C16 H13 1_555 1_555
C17 C16 1_555 1_555
H14 C17 1_555 1_555
C18 S1 1_555 1_555
C19 C18 1_555 1_555
H15 C19 1_555 1_555
C20 N4 1_555 1_555
H16 C20 1_555 1_555
B1 F1 1_555 1_555
F2 B1 1_555 1_555
F3 B1 1_555 1_555
F4 B1 1_555 1_555
N2C Ag1 1_555 1_555
N4B Ag1 1_555 1_555
Ag1C N2 1_555 1_555
Ag1B N4 1_555 1_555
C4 C5 1_555 1_555
C7 C8 1_555 1_555
C9 C10 1_555 1_555
C14 C15 1_555 1_555
C17 C18 1_555 1_555
C19 C20 1_555 1_555

#END
