
#######################################################################
#
#                 Cambridge Crystallographic Data Centre
#                                CCDC 
#
#######################################################################
#
# If this CIF has been generated from an entry in the Cambridge 
# Structural Database, then it will include bibliographic, chemical, 
# crystal, experimental, refinement or atomic coordinate data resulting 
# from the CCDC's data processing and validation procedures.
#
#######################################################################

data_YASFAB01
_symmetry_cell_setting           monoclinic
_symmetry_space_group_name_H-M   'P 2/c'
_symmetry_Int_Tables_number      13
_space_group_name_Hall           '-P 2yc'
loop_
_symmetry_equiv_pos_site_id
_symmetry_equiv_pos_as_xyz
1 x,y,z
2 -x,y,1/2-z
3 -x,-y,-z
4 x,-y,1/2+z
_cell_length_a                   13.4961(15)
_cell_length_b                   9.3830(10)
_cell_length_c                   13.5797(15)
_cell_angle_alpha                90
_cell_angle_beta                 93.542(3)
_cell_angle_gamma                90
_cell_volume                     1716.37
loop_
_atom_site_label
_atom_site_type_symbol
_atom_site_fract_x
_atom_site_fract_y
_atom_site_fract_z
Cd1 Cd 0.113668(17) 0.30425(2) 0.199034(15)
Cd2 Cd 0.386101(17) 0.33725(2) 0.297941(15)
N1 N 0.10291(19) 0.0700(3) 0.14636(17)
N2 N 0.39581(19) 0.5678(3) 0.36387(17)
O1 O 0.16112(18) 0.4358(3) 0.07006(16)
H1 H 0.2170(17) 0.471(4) 0.079(2)
H2 H 0.154(3) 0.408(4) 0.0134(15)
O2 O 0.0000 0.4794(3) 0.2500
H3 H 0.031(2) 0.536(3) 0.289(2)
O3 O -0.05690(16) 0.2372(2) 0.14792(14)
O4 O -0.15749(17) 0.0570(2) 0.09916(15)
O5 O 0.27312(17) 0.1941(2) 0.20908(15)
O6 O 0.36043(18) 0.0037(3) 0.16406(18)
O7 O 0.32402(18) 0.2227(3) 0.42675(16)
H4 H 0.2677(17) 0.189(4) 0.418(2)
H5 H 0.325(3) 0.275(3) 0.4758(18)
O8 O 0.5000 0.1628(3) 0.2500
H6 H 0.458(2) 0.108(3) 0.221(2)
O9 O 0.22757(16) 0.4584(2) 0.27954(14)
O10 O 0.13715(16) 0.6107(2) 0.36374(15)
O11 O 0.55773(16) 0.4111(2) 0.35107(14)
O12 O 0.65588(17) 0.5836(2) 0.41725(15)
C1 C -0.0745(2) 0.1078(3) 0.1226(2)
C2 C 0.0148(2) 0.0099(3) 0.1246(2)
C3 C 0.0058(3) -0.1358(4) 0.1078(2)
H7 H -0.0575 -0.1772 0.0924
C4 C 0.0902(3) -0.2198(4) 0.1136(2)
H8 H 0.0855 -0.3196 0.1028
C5 C 0.1817(3) -0.1564(3) 0.1355(2)
H9 H 0.2407 -0.2119 0.1400
C6 C 0.1853(2) -0.0103(3) 0.1507(2)
C7 C 0.2814(2) 0.0674(3) 0.1767(2)
C8 C 0.2180(2) 0.5645(3) 0.3346(2)
C9 C 0.3121(2) 0.6434(4) 0.3673(2)
C10 C 0.3115(3) 0.7844(4) 0.3961(2)
H10 H 0.2507 0.8342 0.4007
C11 C 0.4012(3) 0.8515(4) 0.4182(3)
H11 H 0.4031 0.9496 0.4354
C12 C 0.4885(3) 0.7737(4) 0.4150(2)
H12 H 0.5510 0.8177 0.4301
C13 C 0.4829(2) 0.6307(3) 0.3893(2)
C14 C 0.5736(2) 0.5346(4) 0.3858(2)
Cd1A Cd -0.113668(17) 0.30425(2) 0.300966(15)
Cd1A_2 Cd 0.886332(17) 0.30425(2) 0.300966(15)
Cd2A Cd 0.613899(17) 0.33725(2) 0.202059(15)
Cd2A_2 Cd -0.386101(17) 0.33725(2) 0.202059(15)
N1A N -0.10291(19) 0.0700(3) 0.35364(17)
N2A N 0.60419(19) 0.5678(3) 0.13613(17)
O1A O -0.16112(18) 0.4358(3) 0.42994(16)
H1A H -0.2170(17) 0.471(4) 0.421(2)
H2A H -0.154(3) 0.408(4) 0.4866(15)
H3A H -0.031(2) 0.536(3) 0.211(2)
O3A O 0.05690(16) 0.2372(2) 0.35208(14)
O4A O 0.15749(17) 0.0570(2) 0.40084(15)
O5A O -0.27312(17) 0.1941(2) 0.29092(15)
O5A_2 O 0.72688(17) 0.1941(2) 0.29092(15)
O6A O -0.36043(18) 0.0037(3) 0.33594(18)
O7A O 0.67598(18) 0.2227(3) 0.07325(16)
H4A H 0.7323(17) 0.189(4) 0.082(2)
H5A H 0.675(3) 0.275(3) 0.0242(18)
H6A H 0.542(2) 0.108(3) 0.279(2)
O9A O 0.77243(16) 0.4584(2) 0.22046(14)
O9A_2 O -0.22757(16) 0.4584(2) 0.22046(14)
O10A O 0.86285(16) 0.6107(2) 0.13626(15)
O11A O 0.44227(16) 0.4111(2) 0.14893(14)
O12A O 0.34412(17) 0.5836(2) 0.08275(15)
C1A C 0.0745(2) 0.1078(3) 0.3774(2)
C2A C -0.0148(2) 0.0099(3) 0.3754(2)
C3A C -0.0058(3) -0.1358(4) 0.3922(2)
H7A H 0.0575 -0.1772 0.4076
C4A C -0.0902(3) -0.2198(4) 0.3864(2)
H8A H -0.0855 -0.3196 0.3972
C5A C -0.1817(3) -0.1564(3) 0.3645(2)
H9A H -0.2407 -0.2119 0.3600
C6A C -0.1853(2) -0.0103(3) 0.3493(2)
C7A C -0.2814(2) 0.0674(3) 0.3233(2)
C8A C 0.7820(2) 0.5645(3) 0.1654(2)
C9A C 0.6879(2) 0.6434(4) 0.1327(2)
C10A C 0.6885(3) 0.7844(4) 0.1039(2)
H10A H 0.7493 0.8342 0.0993
C11A C 0.5988(3) 0.8515(4) 0.0818(3)
H11A H 0.5969 0.9496 0.0646
C12A C 0.5115(3) 0.7737(4) 0.0850(2)
H12A H 0.4490 0.8177 0.0699
C13A C 0.5171(2) 0.6307(3) 0.1107(2)
C14A C 0.4264(2) 0.5346(4) 0.1142(2)
loop_
_geom_bond_atom_site_label_1
_geom_bond_atom_site_label_2
_geom_bond_site_symmetry_1
_geom_bond_site_symmetry_2
Cd1 N1 1_555 1_555
Cd2 N2 1_555 1_555
N1 C2 1_555 1_555
N2 C9 1_555 1_555
O1 Cd1 1_555 1_555
H1 O1 1_555 1_555
H2 O1 1_555 1_555
O2 Cd1 1_555 1_555
H3 O2 1_555 1_555
O3 Cd1 1_555 1_555
O4 C1 1_555 1_555
O5 Cd1 1_555 1_555
O6 C7 1_555 1_555
O7 Cd2 1_555 1_555
H4 O7 1_555 1_555
H5 O7 1_555 1_555
O8 Cd2 1_555 1_555
H6 O8 1_555 1_555
O9 Cd1 1_555 1_555
O10 C8 1_555 1_555
O11 Cd2 1_555 1_555
O12 C14 1_555 1_555
C1 O3 1_555 1_555
C2 C1 1_555 1_555
C3 C2 1_555 1_555
H7 C3 1_555 1_555
C4 C3 1_555 1_555
H8 C4 1_555 1_555
C5 C4 1_555 1_555
H9 C5 1_555 1_555
C6 N1 1_555 1_555
C7 O5 1_555 1_555
C8 O9 1_555 1_555
C9 C8 1_555 1_555
C10 C9 1_555 1_555
H10 C10 1_555 1_555
C11 C10 1_555 1_555
H11 C11 1_555 1_555
C12 C11 1_555 1_555
H12 C12 1_555 1_555
C13 N2 1_555 1_555
C14 O11 1_555 1_555
Cd1A O2 1_555 1_555
Cd1A_2 O5A_2 1_555 1_555
Cd2A O8 1_555 1_555
Cd2A_2 O5A 1_555 1_555
N1A Cd1A 1_555 1_555
N2A Cd2A 1_555 1_555
O1A Cd1A 1_555 1_555
H1A O1A 1_555 1_555
H2A O1A 1_555 1_555
H3A O2 1_555 1_555
O3A Cd1 1_555 1_555
O4A C1A 1_555 1_555
O5A Cd1A 1_555 1_555
O5A_2 Cd2A 1_555 1_555
O6A C7A 1_555 1_555
O7A Cd2A 1_555 1_555
H4A O7A 1_555 1_555
H5A O7A 1_555 1_555
H6A O8 1_555 1_555
O9A Cd1A_2 1_555 1_555
O9A_2 Cd1A 1_555 1_555
O10A C8A 1_555 1_555
O11A Cd2 1_555 1_555
O12A C14A 1_555 1_555
C1A O3A 1_555 1_555
C2A N1A 1_555 1_555
C3A C2A 1_555 1_555
H7A C3A 1_555 1_555
C4A C3A 1_555 1_555
H8A C4A 1_555 1_555
C5A C4A 1_555 1_555
H9A C5A 1_555 1_555
C6A N1A 1_555 1_555
C7A O5A 1_555 1_555
C8A O9A 1_555 1_555
C9A N2A 1_555 1_555
C10A C9A 1_555 1_555
H10A C10A 1_555 1_555
C11A C10A 1_555 1_555
H11A C11A 1_555 1_555
C12A C11A 1_555 1_555
H12A C12A 1_555 1_555
C13A N2A 1_555 1_555
C14A O11A 1_555 1_555
Cd2 O5 1_555 1_555
Cd2 O9 1_555 1_555
O3 Cd1A 1_555 1_555
O11 Cd2A 1_555 1_555
C5 C6 1_555 1_555
C6 C7 1_555 1_555
C12 C13 1_555 1_555
C13 C14 1_555 1_555
Cd1A O3A 1_555 1_555
Cd2A O9A 1_555 1_555
Cd2A O11A 1_555 1_555
Cd2A_2 O9A_2 1_555 1_555
C1A C2A 1_555 1_555
C5A C6A 1_555 1_555
C6A C7A 1_555 1_555
C8A C9A 1_555 1_555
C12A C13A 1_555 1_555
C13A C14A 1_555 1_555

#END
