
#######################################################################
#
#                 Cambridge Crystallographic Data Centre
#                                CCDC 
#
#######################################################################
#
# If this CIF has been generated from an entry in the Cambridge 
# Structural Database, then it will include bibliographic, chemical, 
# crystal, experimental, refinement or atomic coordinate data resulting 
# from the CCDC's data processing and validation procedures.
#
#######################################################################

data_YASFAB
_symmetry_cell_setting           monoclinic
_symmetry_space_group_name_H-M   'C 2/c'
_symmetry_Int_Tables_number      15
_space_group_name_Hall           '-C 2yn'
loop_
_symmetry_equiv_pos_site_id
_symmetry_equiv_pos_as_xyz
1 x,y,z
2 -x,y,1/2-z
3 1/2+x,1/2+y,z
4 1/2-x,1/2+y,1/2-z
5 -x,-y,-z
6 x,-y,1/2+z
7 1/2-x,1/2-y,-z
8 1/2+x,1/2-y,1/2+z
_cell_length_a                   25.8521(15)
_cell_length_b                   9.7306(7)
_cell_length_c                   13.3763(7)
_cell_angle_alpha                90
_cell_angle_beta                 93.750(4)
_cell_angle_gamma                90
_cell_volume                     3357.69
loop_
_atom_site_label
_atom_site_type_symbol
_atom_site_fract_x
_atom_site_fract_y
_atom_site_fract_z
Cd1 Cd 0.354896(13) 0.01457(3) 0.39878(2)
Cd2 Cd 0.409146(13) -0.01281(3) 0.67089(2)
N1 N 0.32107(14) 0.2364(3) 0.3880(2)
N2 N 0.43079(14) -0.2446(3) 0.6865(2)
O1 O 0.28980(14) -0.1142(4) 0.4469(2)
H1 H 0.2687(16) -0.161(4) 0.413(3)
H2 H 0.293(2) -0.142(5) 0.504(2)
O2 O 0.38028(12) -0.1540(3) 0.2852(2)
H3 H 0.3955(17) -0.207(4) 0.328(3)
H4 H 0.3612(16) -0.206(4) 0.250(3)
O3 O 0.35981(11) 0.1232(3) 0.55897(19)
O4 O 0.32505(13) 0.2917(3) 0.6481(2)
O5 O 0.32826(11) 0.0836(3) 0.2253(2)
O6 O 0.29732(12) 0.2533(3) 0.1250(2)
O7 O 0.47834(13) 0.1054(3) 0.6233(2)
H5 H 0.4713(18) 0.156(4) 0.572(3)
H6 H 0.5059(14) 0.061(5) 0.619(3)
O8 O 0.40400(11) -0.1228(3) 0.5130(2)
O9 O 0.41626(13) -0.3169(3) 0.4289(2)
O10 O 0.43690(11) -0.0790(3) 0.84500(19)
O11 O 0.45934(12) -0.2537(3) 0.9483(2)
C1 C 0.33617(17) 0.2366(4) 0.5687(3)
C2 C 0.32086(17) 0.3118(4) 0.4724(3)
C3 C 0.31020(19) 0.4502(5) 0.4699(3)
H7 H 0.3101 0.5014 0.5303
C4 C 0.2997(2) 0.5139(4) 0.3788(4)
H8 H 0.2937 0.6102 0.3756
C5 C 0.29783(18) 0.4359(4) 0.2921(3)
H9 H 0.2892 0.4767 0.2287
C6 C 0.30898(17) 0.2962(4) 0.2998(3)
C7 C 0.31106(17) 0.2041(4) 0.2093(3)
C8 C 0.41477(17) -0.2492(4) 0.5067(3)
C9 C 0.42609(17) -0.3242(4) 0.6053(3)
C10 C 0.42978(18) -0.4671(4) 0.6113(3)
H10 H 0.4275 -0.5217 0.5523
C11 C 0.43676(19) -0.5272(4) 0.7037(3)
H11 H 0.4386 -0.6243 0.7101
C12 C 0.44117(18) -0.4428(4) 0.7888(3)
H12 H 0.4456 -0.4822 0.8537
C13 C 0.43906(17) -0.3032(4) 0.7773(3)
C14 C 0.44584(16) -0.2061(4) 0.8651(3)
Cd1E Cd 0.354896(13) -0.01457(3) 0.89878(2)
Cd2E Cd 0.409146(13) 0.01281(3) 0.17089(2)
O2E O 0.38028(12) 0.1540(3) 0.7852(2)
H3E H 0.3955(17) 0.207(4) 0.828(3)
H4E H 0.3612(16) 0.206(4) 0.750(3)
O5E O 0.32826(11) -0.0836(3) 0.7253(2)
O10E O 0.43690(11) 0.0790(3) 0.34500(19)
loop_
_geom_bond_atom_site_label_1
_geom_bond_atom_site_label_2
_geom_bond_site_symmetry_1
_geom_bond_site_symmetry_2
Cd1 N1 1_555 1_555
Cd2 N2 1_555 1_555
N1 C2 1_555 1_555
N2 C9 1_555 1_555
O1 Cd1 1_555 1_555
H1 O1 1_555 1_555
H2 O1 1_555 1_555
O2 Cd1 1_555 1_555
H3 O2 1_555 1_555
H4 O2 1_555 1_555
O3 Cd1 1_555 1_555
O4 C1 1_555 1_555
O5 Cd1 1_555 1_555
O6 C7 1_555 1_555
O7 Cd2 1_555 1_555
H5 O7 1_555 1_555
H6 O7 1_555 1_555
O8 Cd1 1_555 1_555
O9 C8 1_555 1_555
O10 Cd2 1_555 1_555
O11 C14 1_555 1_555
C1 O3 1_555 1_555
C2 C1 1_555 1_555
C3 C2 1_555 1_555
H7 C3 1_555 1_555
C4 C3 1_555 1_555
H8 C4 1_555 1_555
C5 C4 1_555 1_555
H9 C5 1_555 1_555
C6 N1 1_555 1_555
C7 O5 1_555 1_555
C8 O8 1_555 1_555
C9 C8 1_555 1_555
C10 C9 1_555 1_555
H10 C10 1_555 1_555
C11 C10 1_555 1_555
H11 C11 1_555 1_555
C12 C11 1_555 1_555
H12 C12 1_555 1_555
C13 N2 1_555 1_555
C14 O10 1_555 1_555
Cd1E O10 1_555 1_555
Cd2E O2 1_555 1_555
O2E Cd2 1_555 1_555
H3E O2E 1_555 1_555
H4E O2E 1_555 1_555
O5E Cd2 1_555 1_555
O10E Cd1 1_555 1_555
Cd2 O3 1_555 1_555
Cd2 O8 1_555 1_555
O5 Cd2E 1_555 1_555
C5 C6 1_555 1_555
C6 C7 1_555 1_555
C12 C13 1_555 1_555
C13 C14 1_555 1_555
Cd1E O2E 1_555 1_555
Cd1E O5E 1_555 1_555
Cd2E O10E 1_555 1_555

#END
