
#######################################################################
#
#                 Cambridge Crystallographic Data Centre
#                                CCDC 
#
#######################################################################
#
# If this CIF has been generated from an entry in the Cambridge 
# Structural Database, then it will include bibliographic, chemical, 
# crystal, experimental, refinement or atomic coordinate data resulting 
# from the CCDC's data processing and validation procedures.
#
#######################################################################

data_YASFAB03
_symmetry_cell_setting           monoclinic
_symmetry_space_group_name_H-M   'C 2/c'
_symmetry_Int_Tables_number      15
_space_group_name_Hall           '-C 2yn'
loop_
_symmetry_equiv_pos_site_id
_symmetry_equiv_pos_as_xyz
1 x,y,z
2 -x,y,1/2-z
3 1/2+x,1/2+y,z
4 1/2-x,1/2+y,1/2-z
5 -x,-y,-z
6 x,-y,1/2+z
7 1/2-x,1/2-y,-z
8 1/2+x,1/2-y,1/2+z
_cell_length_a                   27.19(2)
_cell_length_b                   10.193(7)
_cell_length_c                   13.996(10)
_cell_angle_alpha                90
_cell_angle_beta                 93.654(9)
_cell_angle_gamma                90
_cell_volume                     3871.07
loop_
_atom_site_label
_atom_site_type_symbol
_atom_site_fract_x
_atom_site_fract_y
_atom_site_fract_z
Cd1 Cd 0.85517(3) -0.01419(9) 0.39886(6)
Cd2 Cd 0.90897(3) 0.01395(9) 0.67004(6)
O1 O 0.9038(3) 0.1229(8) 0.5128(6)
O2 O 0.9170(4) 0.3172(9) 0.4291(6)
O3 O 0.9361(3) 0.0794(8) 0.8438(6)
O4 O 0.9584(4) 0.2543(9) 0.9465(6)
O5 O 0.8603(3) -0.1215(8) 0.5588(5)
O6 O 0.8262(4) -0.2905(9) 0.6481(6)
O7 O 0.8287(3) -0.0834(8) 0.2248(6)
O8 O 0.7969(4) -0.2521(9) 0.1261(6)
O9 O 0.9775(3) -0.1025(10) 0.6211(6)
H1 H 0.9733 -0.1683 0.5753
H2 H 1.0089 -0.0829 0.6476
O10 O 0.8806(3) 0.1535(8) 0.2849(6)
H3 H 0.8941 0.2051 0.3301
H4 H 0.8596 0.1978 0.2461
O11 O 0.7902(4) 0.1156(11) 0.4467(6)
H5 H 0.7627 0.1451 0.4173
H6 H 0.7983 0.1609 0.4990
N1 N 0.9309(3) 0.2445(9) 0.6865(7)
N2 N 0.8211(4) -0.2341(10) 0.3883(7)
C1 C 0.9154(5) 0.2502(12) 0.5068(8)
C2 C 0.9263(5) 0.3251(11) 0.6050(8)
C3 C 0.9301(5) 0.4659(12) 0.6088(9)
H7 H 0.9287 0.5161 0.5533
C4 C 0.9362(5) 0.5266(13) 0.7026(9)
H8 H 0.9366 0.6175 0.7083
C5 C 0.9418(5) 0.4428(12) 0.7894(9)
H9 H 0.9470 0.4794 0.8500
C6 C 0.9390(4) 0.3046(12) 0.7765(8)
C7 C 0.9454(4) 0.2069(12) 0.8653(9)
C8 C 0.8112(4) -0.2028(12) 0.2104(9)
C9 C 0.8090(4) -0.2941(12) 0.3003(9)
C10 C 0.7976(5) -0.4346(14) 0.2930(8)
H10 H 0.7895 -0.4732 0.2339
C11 C 0.7992(6) -0.5106(14) 0.3787(10)
H11 H 0.7937 -0.6006 0.3756
C12 C 0.8095(5) -0.4477(14) 0.4705(10)
H12 H 0.8091 -0.4952 0.5271
C13 C 0.8207(5) -0.3081(12) 0.4719(8)
C14 C 0.8364(5) -0.2347(12) 0.5688(9)
Cd1E Cd 0.85517(3) 0.01419(9) 0.89886(6)
Cd2E Cd 0.90897(3) -0.01395(9) 0.17004(6)
O3E O 0.9361(3) -0.0794(8) 0.3438(6)
O7E O 0.8287(3) 0.0834(8) 0.7248(6)
O10E O 0.8806(3) -0.1535(8) 0.7849(6)
loop_
_geom_bond_atom_site_label_1
_geom_bond_atom_site_label_2
_geom_bond_site_symmetry_1
_geom_bond_site_symmetry_2
Cd1 O1 1_555 1_555
Cd2 O1 1_555 1_555
O1 C1 1_555 1_555
O2 C1 1_555 1_555
O3 Cd2 1_555 1_555
O4 C7 1_555 1_555
O5 Cd1 1_555 1_555
O6 C14 1_555 1_555
O7 Cd1 1_555 1_555
O8 C8 1_555 1_555
O9 Cd2 1_555 1_555
H1 O9 1_555 1_555
H2 O9 1_555 1_555
O10 Cd1 1_555 1_555
H3 O10 1_555 1_555
H4 O10 1_555 1_555
O11 Cd1 1_555 1_555
H5 O11 1_555 1_555
H6 O11 1_555 1_555
N1 Cd2 1_555 1_555
N2 Cd1 1_555 1_555
C1 C2 1_555 1_555
C2 N1 1_555 1_555
C3 C2 1_555 1_555
H7 C3 1_555 1_555
C4 C3 1_555 1_555
H8 C4 1_555 1_555
C5 C4 1_555 1_555
H9 C5 1_555 1_555
C6 N1 1_555 1_555
C7 O3 1_555 1_555
C8 O7 1_555 1_555
C9 N2 1_555 1_555
C10 C9 1_555 1_555
H10 C10 1_555 1_555
C11 C10 1_555 1_555
H11 C11 1_555 1_555
C12 C11 1_555 1_555
H12 C12 1_555 1_555
C13 N2 1_555 1_555
C14 O5 1_555 1_555
Cd1E O3 1_555 1_555
Cd2E O7 1_555 1_555
O3E Cd1 1_555 1_555
O7E Cd2 1_555 1_555
O10E Cd2 1_555 1_555
Cd2 O5 1_555 1_555
O10 Cd2E 1_555 1_555
C5 C6 1_555 1_555
C6 C7 1_555 1_555
C8 C9 1_555 1_555
C12 C13 1_555 1_555
C13 C14 1_555 1_555
Cd1E O7E 1_555 1_555
Cd1E O10E 1_555 1_555
Cd2E O3E 1_555 1_555

#END
