
#######################################################################
#
#                 Cambridge Crystallographic Data Centre
#                                CCDC 
#
#######################################################################
#
# If this CIF has been generated from an entry in the Cambridge 
# Structural Database, then it will include bibliographic, chemical, 
# crystal, experimental, refinement or atomic coordinate data resulting 
# from the CCDC's data processing and validation procedures.
#
#######################################################################

data_YASHOQ
_symmetry_cell_setting           triclinic
_symmetry_space_group_name_H-M   'P -1'
_symmetry_Int_Tables_number      2
_space_group_name_Hall           '-P 1'
loop_
_symmetry_equiv_pos_site_id
_symmetry_equiv_pos_as_xyz
1 x,y,z
2 -x,-y,-z
_cell_length_a                   7.0588(6)
_cell_length_b                   8.3638(6)
_cell_length_c                   10.5690(8)
_cell_angle_alpha                112.3010(10)
_cell_angle_beta                 94.0960(10)
_cell_angle_gamma                104.9300(10)
_cell_volume                     547.735
loop_
_atom_site_label
_atom_site_type_symbol
_atom_site_fract_x
_atom_site_fract_y
_atom_site_fract_z
Cu1 Cu -0.02079(5) 0.55892(4) 0.61873(3)
Cu2 Cu 0.5000 0.5000 0.5000
Cl1 Cl 0.38580(10) 0.56250(10) 0.68500(10)
O1 O 0.0716(3) 0.8031(2) 0.64009(16)
N1 N 0.1318(3) 0.6921(3) 0.4204(2)
N2 N 0.1079(3) 0.4013(3) 0.1938(2)
C1 C 0.1404(3) 0.8331(3) 0.5396(2)
C2 C 0.2247(3) 1.0136(3) 0.5498(2)
C3 C 0.2929(4) 1.0435(3) 0.4422(3)
C4 C 0.2833(3) 0.8939(3) 0.3153(3)
C5 C 0.3542(4) 0.9094(4) 0.1959(3)
C6 C 0.3433(4) 0.7608(4) 0.0800(3)
C7 C 0.2610(3) 0.5826(4) 0.0734(3)
C8 C 0.2450(4) 0.4200(4) -0.0416(3)
C9 C 0.1664(4) 0.2566(4) -0.0355(3)
C10 C 0.0978(4) 0.2531(3) 0.0850(3)
C11 C 0.1903(3) 0.5651(3) 0.1895(2)
C12 C 0.2019(3) 0.7223(3) 0.3115(2)
H1 H 0.2325 1.1121 0.6321
H2 H 0.3464 1.1618 0.4506
H3 H 0.4090 1.0242 0.1978
H4 H 0.3901 0.7751 0.0037
H5 H 0.2880 0.4241 -0.1218
H6 H 0.1585 0.1490 -0.1102
H7 H 0.0428 0.1412 0.0880
Cu1A Cu 1.02079(5) 0.44108(4) 0.38127(3)
Cu1A_2 Cu 0.02079(5) 0.44108(4) 0.38127(3)
Cu1_2 Cu 0.97921(5) 0.55892(4) 0.61873(3)
Cl1A Cl 0.61420(10) 0.43750(10) 0.31500(10)
O1A O -0.0716(3) 0.1969(2) 0.35991(16)
O1A_2 O 0.9284(3) 0.1969(2) 0.35991(16)
N1A N -0.1318(3) 0.3079(3) 0.5796(2)
N1_2 N 1.1318(3) 0.6921(3) 0.4204(2)
N2A N -0.1079(3) 0.5987(3) 0.8062(2)
N2_2 N 1.1079(3) 0.4013(3) 0.1938(2)
C1A C -0.1404(3) 0.1669(3) 0.4604(2)
C2A C -0.2247(3) -0.0136(3) 0.4502(2)
C3A C -0.2929(4) -0.0435(3) 0.5578(3)
C4A C -0.2833(3) 0.1061(3) 0.6847(3)
C5A C -0.3542(4) 0.0906(4) 0.8041(3)
C6A C -0.3433(4) 0.2392(4) 0.9200(3)
C7A C -0.2610(3) 0.4174(4) 0.9266(3)
C8A C -0.2450(4) 0.5800(4) 1.0416(3)
C9A C -0.1664(4) 0.7434(4) 1.0355(3)
C10A C -0.0978(4) 0.7469(3) 0.9150(3)
C11A C -0.1903(3) 0.4349(3) 0.8105(2)
C12A C -0.2019(3) 0.2777(3) 0.6885(2)
H1A H -0.2325 -0.1121 0.3679
H2A H -0.3464 -0.1618 0.5494
H3A H -0.4090 -0.0242 0.8022
H4A H -0.3901 0.2249 0.9963
H5A H -0.2880 0.5759 1.1218
H6A H -0.1585 0.8510 1.1102
H7A H -0.0428 0.8588 0.9120
loop_
_geom_bond_atom_site_label_1
_geom_bond_atom_site_label_2
_geom_bond_site_symmetry_1
_geom_bond_site_symmetry_2
Cu1 Cl1 1_555 1_555
Cu2 Cl1 1_555 1_555
O1 Cu1 1_555 1_555
N1 C1 1_555 1_555
N2 C10 1_555 1_555
C1 O1 1_555 1_555
C2 C1 1_555 1_555
C3 C2 1_555 1_555
C4 C3 1_555 1_555
C5 C4 1_555 1_555
C6 C5 1_555 1_555
C7 C6 1_555 1_555
C8 C7 1_555 1_555
C9 C8 1_555 1_555
C10 C9 1_555 1_555
C11 N2 1_555 1_555
C12 N1 1_555 1_555
H1 C2 1_555 1_555
H2 C3 1_555 1_555
H3 C5 1_555 1_555
H4 C6 1_555 1_555
H5 C8 1_555 1_555
H6 C9 1_555 1_555
H7 C10 1_555 1_555
Cu1A Cu1_2 1_555 1_555
Cu1A_2 Cu1 1_555 1_555
Cl1A Cu2 1_555 1_555
O1A Cu1A_2 1_555 1_555
O1A_2 Cu1A 1_555 1_555
N1A Cu1 1_555 1_555
N1_2 Cu1A 1_555 1_555
N2A Cu1 1_555 1_555
N2_2 Cu1A 1_555 1_555
C1A O1A 1_555 1_555
C2A C1A 1_555 1_555
C3A C2A 1_555 1_555
C4A C3A 1_555 1_555
C5A C4A 1_555 1_555
C6A C5A 1_555 1_555
C7A C6A 1_555 1_555
C8A C7A 1_555 1_555
C9A C8A 1_555 1_555
C10A N2A 1_555 1_555
C11A N2A 1_555 1_555
C12A N1A 1_555 1_555
H1A C2A 1_555 1_555
H2A C3A 1_555 1_555
H3A C5A 1_555 1_555
H4A C6A 1_555 1_555
H5A C8A 1_555 1_555
H6A C9A 1_555 1_555
H7A C10A 1_555 1_555
N1 Cu1A_2 1_555 1_555
N2 Cu1A_2 1_555 1_555
C4 C12 1_555 1_555
C7 C11 1_555 1_555
C11 C12 1_555 1_555
Cu1A Cl1A 1_555 1_555
N1A C1A 1_555 1_555
C4A C12A 1_555 1_555
C7A C11A 1_555 1_555
C9A C10A 1_555 1_555
C11A C12A 1_555 1_555

#END
