
#######################################################################
#
#                 Cambridge Crystallographic Data Centre
#                                CCDC 
#
#######################################################################
#
# If this CIF has been generated from an entry in the Cambridge 
# Structural Database, then it will include bibliographic, chemical, 
# crystal, experimental, refinement or atomic coordinate data resulting 
# from the CCDC's data processing and validation procedures.
#
#######################################################################

data_YASHEG
_symmetry_cell_setting           monoclinic
_symmetry_space_group_name_H-M   'P 21/c'
_symmetry_Int_Tables_number      14
_space_group_name_Hall           '-P 2ybc'
loop_
_symmetry_equiv_pos_site_id
_symmetry_equiv_pos_as_xyz
1 x,y,z
2 -x,1/2+y,1/2-z
3 -x,-y,-z
4 x,1/2-y,1/2+z
_cell_length_a                   9.4575(8)
_cell_length_b                   21.398(2)
_cell_length_c                   7.1568(6)
_cell_angle_alpha                90
_cell_angle_beta                 110.6390(10)
_cell_angle_gamma                90
_cell_volume                     1355.38
loop_
_atom_site_label
_atom_site_type_symbol
_atom_site_fract_x
_atom_site_fract_y
_atom_site_fract_z
Cu1 Cu 0.88949(4) 0.830210(10) 0.76404(5)
O3 O 0.6446(2) 0.82860(10) 0.6875(4)
N1 N 0.9319(2) 0.74260(10) 0.7868(3)
N2 N 1.0698(2) 0.41720(10) 0.7547(3)
C1 C 1.0714(3) 0.71910(10) 0.8628(5)
C2 C 1.1033(3) 0.65630(10) 0.8618(5)
C3 C 0.9869(2) 0.61370(10) 0.7809(3)
C4 C 0.8437(3) 0.63840(10) 0.7059(5)
C5 C 0.8201(3) 0.70130(10) 0.7116(5)
C6 C 1.1820(3) 0.45770(10) 0.8415(4)
C7 C 1.1597(3) 0.52090(10) 0.8546(4)
C8 C 1.0157(3) 0.54580(10) 0.7744(3)
C9 C 0.8989(3) 0.50330(10) 0.6865(4)
C10 C 0.9301(3) 0.44090(10) 0.6793(4)
H1 H 0.584(3) 0.8440(10) 0.582(3)
H2 H 0.593(3) 0.814(2) 0.750(4)
H5 H 1.1513 0.7466 0.9194
H6 H 1.2028 0.6425 0.9153
H7 H 0.7615 0.6119 0.6505
H8 H 0.7214 0.7161 0.6605
H9 H 1.2800 0.4422 0.8958
H10 H 1.2415 0.5469 0.9172
H11 H 0.7996 0.5174 0.6326
H12 H 0.8503 0.4137 0.6191
Cu1A Cu 1.11051(4) 1.330210(10) 0.73596(5)
Cu1A_2 Cu 1.11051(4) 0.330210(10) 0.73596(5)
O3A O 1.3554(2) 1.32860(10) 0.8125(4)
N1A N 1.0681(2) 1.24260(10) 0.7132(3)
N2A N 0.9302(2) 0.91720(10) 0.7453(3)
N2_2 N 1.0698(2) 1.41720(10) 0.7547(3)
C1A C 0.9286(3) 1.21910(10) 0.6372(5)
C2A C 0.8967(3) 1.15630(10) 0.6382(5)
C3A C 1.0131(2) 1.11370(10) 0.7191(3)
C4A C 1.1563(3) 1.13840(10) 0.7941(5)
C5A C 1.1799(3) 1.20130(10) 0.7884(5)
C6A C 0.8180(3) 0.95770(10) 0.6585(4)
C7A C 0.8403(3) 1.02090(10) 0.6454(4)
C8A C 0.9843(3) 1.04580(10) 0.7256(3)
C9A C 1.1011(3) 1.00330(10) 0.8135(4)
C10A C 1.0699(3) 0.94090(10) 0.8207(4)
H1A H 1.416(3) 1.3440(10) 0.918(3)
H2A H 1.407(3) 1.314(2) 0.750(4)
H5A H 0.8487 1.2466 0.5806
H6A H 0.7972 1.1425 0.5847
H7A H 1.2385 1.1119 0.8495
H8A H 1.2786 1.2161 0.8395
H9A H 0.7200 0.9422 0.6042
H10A H 0.7585 1.0469 0.5828
H11A H 1.2004 1.0174 0.8674
H12A H 1.1497 0.9137 0.8809
O1 O 0.4665(2) 0.90040(10) 0.3968(3)
O2 O 0.4039(3) 0.84270(10) 0.1232(4)
C11 C 0.4461(3) 0.89230(10) 0.2167(4)
C12 C 0.4735(2) 0.94810(10) 0.1024(3)
C13 C 0.5031(3) 1.00650(10) 0.1934(4)
C14 C 0.4701(3) 0.94220(10) -0.0927(4)
H13 H 0.5048 1.0112 0.3234
H14 H 0.4496 0.9036 -0.1560
O1B O 0.5335(2) 1.09960(10) -0.3968(3)
O2B O 0.5961(3) 1.15730(10) -0.1232(4)
C11B C 0.5539(3) 1.10770(10) -0.2167(4)
C12B C 0.5265(2) 1.05190(10) -0.1024(3)
C13B C 0.4969(3) 0.99350(10) -0.1934(4)
C14B C 0.5299(3) 1.05780(10) 0.0927(4)
H13B H 0.4952 0.9888 -0.3234
H14B H 0.5504 1.0964 0.1560
O4 O 0.4243(3) 0.77490(10) 0.7933(4)
H3 H 0.423(5) 0.782(2) 0.909(3)
H4 H 0.425(4) 0.7360(10) 0.784(5)
loop_
_geom_bond_atom_site_label_1
_geom_bond_atom_site_label_2
_geom_bond_site_symmetry_1
_geom_bond_site_symmetry_2
Cu1 O3 1_555 1_555
O1 C11 1_555 1_555
O2 C11 1_555 1_555
O3 H1 1_555 1_555
O4 H3 1_555 1_555
N1 Cu1 1_555 1_555
N2 C6 1_555 1_555
C1 N1 1_555 1_555
C2 C1 1_555 1_555
C3 C2 1_555 1_555
C4 C3 1_555 1_555
C5 N1 1_555 1_555
C6 C7 1_555 1_555
C7 C8 1_555 1_555
C8 C3 1_555 1_555
C9 C8 1_555 1_555
C10 N2 1_555 1_555
C11 C12 1_555 1_555
C12 C13 1_555 1_555
C13 H13 1_555 1_555
C14 C12 1_555 1_555
H2 O3 1_555 1_555
H4 O4 1_555 1_555
H5 C1 1_555 1_555
H6 C2 1_555 1_555
H7 C4 1_555 1_555
H8 C5 1_555 1_555
H9 C6 1_555 1_555
H10 C7 1_555 1_555
H11 C9 1_555 1_555
H12 C10 1_555 1_555
H14 C14 1_555 1_555
Cu1A O3A 1_555 1_555
Cu1A_2 N2 1_555 1_555
O1B C11B 1_555 1_555
O2B C11B 1_555 1_555
O3A H1A 1_555 1_555
N1A Cu1A 1_555 1_555
N2A Cu1 1_555 1_555
N2_2 Cu1A 1_555 1_555
C1A N1A 1_555 1_555
C2A C1A 1_555 1_555
C3A C2A 1_555 1_555
C4A C3A 1_555 1_555
C5A N1A 1_555 1_555
C6A N2A 1_555 1_555
C7A C6A 1_555 1_555
C8A C3A 1_555 1_555
C9A C8A 1_555 1_555
C10A N2A 1_555 1_555
C11B C12B 1_555 1_555
C12B C13B 1_555 1_555
C13B C14 1_555 1_555
C14B C13 1_555 1_555
H2A O3A 1_555 1_555
H5A C1A 1_555 1_555
H6A C2A 1_555 1_555
H7A C4A 1_555 1_555
H8A C5A 1_555 1_555
H9A C6A 1_555 1_555
H10A C7A 1_555 1_555
H11A C9A 1_555 1_555
H12A C10A 1_555 1_555
H13B C13B 1_555 1_555
H14B C14B 1_555 1_555
C4 C5 1_555 1_555
C9 C10 1_555 1_555
C4A C5A 1_555 1_555
C7A C8A 1_555 1_555
C9A C10A 1_555 1_555
C12B C14B 1_555 1_555

#END
