
#######################################################################
#
#                 Cambridge Crystallographic Data Centre
#                                CCDC 
#
#######################################################################
#
# If this CIF has been generated from an entry in the Cambridge 
# Structural Database, then it will include bibliographic, chemical, 
# crystal, experimental, refinement or atomic coordinate data resulting 
# from the CCDC's data processing and validation procedures.
#
#######################################################################

data_YASJOT
_symmetry_cell_setting           monoclinic
_symmetry_space_group_name_H-M   'P 21/c'
_symmetry_Int_Tables_number      14
_space_group_name_Hall           '-P 2ybc'
loop_
_symmetry_equiv_pos_site_id
_symmetry_equiv_pos_as_xyz
1 x,y,z
2 -x,1/2+y,1/2-z
3 -x,-y,-z
4 x,1/2-y,1/2+z
_cell_length_a                   12.429(5)
_cell_length_b                   16.447(7)
_cell_length_c                   10.574(5)
_cell_angle_alpha                90
_cell_angle_beta                 93.629(8)
_cell_angle_gamma                90
_cell_volume                     2157.2
loop_
_atom_site_label
_atom_site_type_symbol
_atom_site_fract_x
_atom_site_fract_y
_atom_site_fract_z
Ag1 Ag 0.62865(14) 0.27358(10) 1.07742(13)
Ag2 Ag 0.41549(15) -0.02127(11) 1.34632(15)
S1 S 0.5326(4) 0.1584(3) 1.3110(4)
N1 N 0.4202(13) 0.0617(9) 1.1559(13)
N2 N 0.5177(12) 0.1631(8) 1.0575(12)
N3 N 0.7187(13) 0.1497(9) 1.4289(12)
N4 N 0.7106(13) 0.0885(9) 1.2302(13)
C1 C 0.3756(18) 0.0398(11) 1.0426(18)
H1 H 0.3254 -0.0022 1.0378
C2 C 0.4027(16) 0.0783(12) 0.9314(17)
H2 H 0.3733 0.0620 0.8524
C3 C 0.4728(17) 0.1396(10) 0.9439(15)
H3 H 0.4914 0.1671 0.8716
C4 C 0.4856(14) 0.1233(10) 1.1567(14)
C5 C 0.6678(15) 0.1298(9) 1.3214(12)
C6 C 0.8125(19) 0.0676(12) 1.2497(19)
H4 H 0.8444 0.0365 1.1888
C7 C 0.8727(18) 0.0898(15) 1.3556(19)
H5 H 0.9456 0.0770 1.3652
C8 C 0.8227(17) 0.1320(11) 1.4490(16)
H6 H 0.8608 0.1475 1.5236
O1 O 0.4494(16) 0.1433(14) 1.6288(14)
O2 O 0.374(2) 0.0392(12) 1.539(2)
C9 C 0.3742(17) 0.1092(14) 1.5729(19)
C10 C 0.279(4) 0.159(3) 1.594(2)
C11 C 0.2057(19) 0.1665(17) 1.476(3)
F1 F 0.2061(17) 0.1360(17) 1.6909(19)
F2 F 0.290(3) 0.2464(18) 1.625(4)
F3 F 0.2844(19) 0.202(2) 1.418(3)
F4 F 0.1257(19) 0.2129(19) 1.518(4)
F5 F 0.192(3) 0.0876(17) 1.471(4)
O3 O 0.7738(15) 0.2890(10) 1.2260(16)
O4 O 0.7135(19) 0.4035(16) 1.281(2)
C12 C 0.774(2) 0.3505(19) 1.2879(19)
C13 C 0.873(2) 0.3704(14) 1.380(2)
C14 C 0.973(4) 0.3741(16) 1.333(3)
F6 F 0.8681(19) 0.3231(16) 1.4821(16)
F7 F 0.873(2) 0.4464(18) 1.435(3)
F8 F 0.982(3) 0.2951(14) 1.305(3)
F9 F 1.0514(17) 0.3968(15) 1.418(2)
F10 F 0.9725(16) 0.4209(15) 1.2304(17)
Ag1C Ag 0.62865(14) 0.22642(10) 1.57742(13)
Ag2A Ag 0.58451(15) 0.47873(11) 1.15368(15)
N3C N 0.7187(13) 0.3503(9) 0.9289(12)
O4A O 0.2865(19) -0.0965(16) 1.219(2)
loop_
_geom_bond_atom_site_label_1
_geom_bond_atom_site_label_2
_geom_bond_site_symmetry_1
_geom_bond_site_symmetry_2
Ag1 N2 1_555 1_555
Ag2 N1 1_555 1_555
S1 C4 1_555 1_555
N1 C1 1_555 1_555
N2 C3 1_555 1_555
N3 C5 1_555 1_555
N4 C5 1_555 1_555
C1 H1 1_555 1_555
C2 C1 1_555 1_555
H2 C2 1_555 1_555
C3 C2 1_555 1_555
H3 C3 1_555 1_555
C4 N1 1_555 1_555
C5 S1 1_555 1_555
C6 N4 1_555 1_555
H4 C6 1_555 1_555
C7 C6 1_555 1_555
H5 C7 1_555 1_555
C8 N3 1_555 1_555
H6 C8 1_555 1_555
O1 C9 1_555 1_555
O2 Ag2 1_555 1_555
C9 O2 1_555 1_555
C10 C9 1_555 1_555
C11 C10 1_555 1_555
F1 C10 1_555 1_555
F2 C10 1_555 1_555
F3 C11 1_555 1_555
F4 C11 1_555 1_555
F5 C11 1_555 1_555
O3 Ag1 1_555 1_555
O4 C12 1_555 1_555
C12 O3 1_555 1_555
C13 C12 1_555 1_555
C14 C13 1_555 1_555
F6 C13 1_555 1_555
F7 C13 1_555 1_555
F8 C14 1_555 1_555
F9 C14 1_555 1_555
F10 C14 1_555 1_555
Ag1C N3 1_555 1_555
Ag2A O4 1_555 1_555
N3C Ag1 1_555 1_555
O4A Ag2 1_555 1_555
N2 C4 1_555 1_555
C7 C8 1_555 1_555

#END
