
#######################################################################
#
#                 Cambridge Crystallographic Data Centre
#                                CCDC 
#
#######################################################################
#
# If this CIF has been generated from an entry in the Cambridge 
# Structural Database, then it will include bibliographic, chemical, 
# crystal, experimental, refinement or atomic coordinate data resulting 
# from the CCDC's data processing and validation procedures.
#
#######################################################################

data_YASKIN
_symmetry_cell_setting           orthorhombic
_symmetry_space_group_name_H-M   'P b c n'
_symmetry_Int_Tables_number      60
_space_group_name_Hall           '-P 2n 2ab'
loop_
_symmetry_equiv_pos_site_id
_symmetry_equiv_pos_as_xyz
1 x,y,z
2 1/2-x,1/2-y,1/2+z
3 1/2+x,1/2-y,-z
4 -x,y,1/2-z
5 -x,-y,-z
6 1/2+x,1/2+y,1/2-z
7 1/2-x,1/2+y,z
8 x,-y,1/2+z
_cell_length_a                   23.5785(5)
_cell_length_b                   12.1715(3)
_cell_length_c                   7.6545(2)
_cell_angle_alpha                90
_cell_angle_beta                 90
_cell_angle_gamma                90
_cell_volume                     2196.73
loop_
_atom_site_label
_atom_site_type_symbol
_atom_site_fract_x
_atom_site_fract_y
_atom_site_fract_z
Mn1 Mn 0.5000 0.62071(3) 0.2500
O1 O 0.55843(6) 0.52049(12) 0.3759(2)
O2 O 0.55714(6) 0.36152(11) 0.5183(2)
O3 O 0.63914(7) 0.22927(12) 0.4902(3)
H1 H 0.6077 0.2608 0.5350
N1 N 0.45111(7) 0.77275(13) 0.1565(2)
C1 C 0.57995(9) 0.43099(16) 0.4165(3)
C2 C 0.63737(8) 0.40402(16) 0.3457(3)
C3 C 0.66428(9) 0.30514(18) 0.3867(3)
C4 C 0.71836(11) 0.2837(2) 0.3206(4)
H2 H 0.7360 0.2172 0.3455
C5 C 0.74537(11) 0.3598(3) 0.2197(4)
H3 H 0.7815 0.3451 0.1773
C6 C 0.71973(11) 0.4581(3) 0.1799(4)
H4 H 0.7385 0.5096 0.1112
C7 C 0.66629(10) 0.4799(2) 0.2422(3)
H5 H 0.6491 0.5465 0.2149
C8 C 0.40254(9) 0.77245(17) 0.0693(3)
H6 H 0.3875 0.7053 0.0343
C9 C 0.37291(10) 0.86805(19) 0.0274(3)
H7 H 0.3385 0.8641 -0.0318
C10 C 0.39489(10) 0.96747(18) 0.0743(3)
H8 H 0.3754 1.0318 0.0480
C11 C 0.44694(9) 0.97203(15) 0.1623(3)
C12 C 0.47493(10) 1.07284(16) 0.2089(3)
H9 H 0.4578 1.1395 0.1814
C13 C 0.47352(9) 0.87126(15) 0.2032(3)
Mn1G Mn 0.5000 0.37929(3) 0.7500
Mn1G_2 Mn 0.5000 0.37929(3) -0.2500
O1C O 0.44157(6) 0.52049(12) 0.1241(2)
O2C O 0.44286(6) 0.36152(11) -0.0183(2)
O2G O 0.55714(6) 0.63848(11) 0.0183(2)
O2D O 0.44286(6) 0.63848(11) 0.4817(2)
O3C O 0.36086(7) 0.22927(12) 0.0098(3)
H1C H 0.3923 0.2608 -0.0350
N1C N 0.54889(7) 0.77275(13) 0.3435(2)
C1C C 0.42005(9) 0.43099(16) 0.0835(3)
C2C C 0.36263(8) 0.40402(16) 0.1543(3)
C3C C 0.33572(9) 0.30514(18) 0.1133(3)
C4C C 0.28164(11) 0.2837(2) 0.1794(4)
H2C H 0.2640 0.2172 0.1545
C5C C 0.25463(11) 0.3598(3) 0.2803(4)
H3C H 0.2185 0.3451 0.3227
C6C C 0.28027(11) 0.4581(3) 0.3201(4)
H4C H 0.2615 0.5096 0.3888
C7C C 0.33371(10) 0.4799(2) 0.2578(3)
H5C H 0.3509 0.5465 0.2851
C8C C 0.59746(9) 0.77245(17) 0.4307(3)
H6C H 0.6125 0.7053 0.4657
C9C C 0.62709(10) 0.86805(19) 0.4726(3)
H7C H 0.6615 0.8641 0.5318
C10C C 0.60511(10) 0.96747(18) 0.4257(3)
H8C H 0.6246 1.0318 0.4520
C11C C 0.55306(9) 0.97203(15) 0.3377(3)
C12C C 0.52507(10) 1.07284(16) 0.2911(3)
H9C H 0.5422 1.1395 0.3186
C13C C 0.52648(9) 0.87126(15) 0.2968(3)
loop_
_geom_bond_atom_site_label_1
_geom_bond_atom_site_label_2
_geom_bond_site_symmetry_1
_geom_bond_site_symmetry_2
Mn1 O1 1_555 1_555
O1 C1 1_555 1_555
O2 C1 1_555 1_555
O3 H1 1_555 1_555
N1 Mn1 1_555 1_555
C1 C2 1_555 1_555
C2 C3 1_555 1_555
C3 O3 1_555 1_555
C4 C3 1_555 1_555
H2 C4 1_555 1_555
C5 C4 1_555 1_555
H3 C5 1_555 1_555
C6 C5 1_555 1_555
H4 C6 1_555 1_555
C7 C2 1_555 1_555
H5 C7 1_555 1_555
C8 N1 1_555 1_555
H6 C8 1_555 1_555
C9 C8 1_555 1_555
H7 C9 1_555 1_555
C10 C9 1_555 1_555
H8 C10 1_555 1_555
C11 C10 1_555 1_555
C12 C11 1_555 1_555
H9 C12 1_555 1_555
C13 N1 1_555 1_555
Mn1G O2 1_555 1_555
Mn1G_2 O2C 1_555 1_555
O1C Mn1 1_555 1_555
O2C C1C 1_555 1_555
O2G Mn1 1_555 1_555
O2D Mn1 1_555 1_555
O3C H1C 1_555 1_555
N1C Mn1 1_555 1_555
C1C O1C 1_555 1_555
C2C C1C 1_555 1_555
C3C O3C 1_555 1_555
C4C C3C 1_555 1_555
H2C C4C 1_555 1_555
C5C C4C 1_555 1_555
H3C C5C 1_555 1_555
C6C C5C 1_555 1_555
H4C C6C 1_555 1_555
C7C C2C 1_555 1_555
H5C C7C 1_555 1_555
C8C N1C 1_555 1_555
H6C C8C 1_555 1_555
C9C C8C 1_555 1_555
H7C C9C 1_555 1_555
C10C C9C 1_555 1_555
H8C C10C 1_555 1_555
C11C C10C 1_555 1_555
C12C C12 1_555 1_555
H9C C12C 1_555 1_555
C13C C13 1_555 1_555
C6 C7 1_555 1_555
C11 C13 1_555 1_555
N1C C13C 1_555 1_555
C2C C3C 1_555 1_555
C6C C7C 1_555 1_555
C11C C12C 1_555 1_555
C11C C13C 1_555 1_555

#END
