
#######################################################################
#
#                 Cambridge Crystallographic Data Centre
#                                CCDC 
#
#######################################################################
#
# If this CIF has been generated from an entry in the Cambridge 
# Structural Database, then it will include bibliographic, chemical, 
# crystal, experimental, refinement or atomic coordinate data resulting 
# from the CCDC's data processing and validation procedures.
#
#######################################################################

data_YASKOT
_symmetry_cell_setting           monoclinic
_symmetry_space_group_name_H-M   'P 21'
_symmetry_Int_Tables_number      4
_space_group_name_Hall           'P 2yb'
loop_
_symmetry_equiv_pos_site_id
_symmetry_equiv_pos_as_xyz
1 x,y,z
2 -x,1/2+y,-z
_cell_length_a                   8.7097(5)
_cell_length_b                   7.2450(4)
_cell_length_c                   14.5854(8)
_cell_angle_alpha                90
_cell_angle_beta                 100.5210(10)
_cell_angle_gamma                90
_cell_volume                     904.892
loop_
_atom_site_label
_atom_site_type_symbol
_atom_site_fract_x
_atom_site_fract_y
_atom_site_fract_z
Sr1 Sr 0.932020(19) 0.16270(5) 0.417546(11)
O1 O 1.1124(3) 0.3690(3) 0.33635(17)
O2 O 1.1111(3) -0.0453(3) 0.33451(16)
O3 O 0.78680(18) 0.1907(3) 0.24323(11)
O6 O 1.1279(2) 0.3170(3) 0.55534(14)
O7 O 1.1458(2) 0.0119(3) 0.56695(14)
O8 O 1.77427(14) 0.1673(4) 0.55646(9)
O9 O 1.63131(15) 0.1599(4) 0.41515(9)
N1 N 1.3188(2) 0.0846(3) 0.75108(14)
C1 C 1.19157(19) 0.1710(5) 0.59123(12)
C2 C 1.3377(2) 0.1920(4) 0.66696(14)
C3 C 1.4835(2) 0.1268(3) 0.63076(15)
C4 C 1.4996(3) 0.2275(3) 0.54154(16)
C5 C 1.6434(2) 0.1803(5) 0.50156(14)
H1 H 1.149(4) 0.454(4) 0.368(3)
H2 H 1.090(4) 0.407(4) 0.2820(14)
H3 H 1.148(4) -0.126(4) 0.371(2)
H4 H 1.183(3) 0.002(4) 0.3135(19)
H5 H 0.850(3) 0.202(4) 0.2093(15)
H6 H 0.713(2) 0.132(4) 0.2185(16)
H11 H 1.3506 0.3227 0.6840
H12 H 1.232(2) 0.126(4) 0.7688(16)
H13 H 1.309(3) -0.034(2) 0.7405(18)
H14 H 1.401(2) 0.090(4) 0.7961(14)
H15 H 1.5755 0.1492 0.6779
H16 H 1.4762 -0.0050 0.6189
H17 H 1.4080 0.2008 0.4947
H18 H 1.5001 0.3592 0.5536
Sr1A Sr 1.067980(19) 0.66270(5) 0.582454(11)
Sr1A_2 Sr 1.067980(19) -0.33730(5) 0.582454(11)
Sr1_2 Sr 1.932020(19) 0.16270(5) 0.417546(11)
O6A O 0.8721(2) -0.1830(3) 0.44466(14)
O7A O 0.8542(2) 0.5119(3) 0.43305(14)
O8_2 O 0.77427(14) 0.1673(4) 0.55646(9)
O9_2 O 0.63131(15) 0.1599(4) 0.41515(9)
O4 O 0.35864(19) 0.1455(4) 0.28977(12)
H7 H 0.440(2) 0.148(6) 0.3264(16)
H8 H 0.308(3) 0.240(3) 0.296(2)
O5 O 1.0634(2) 0.2480(3) 0.80663(13)
H9 H 1.014(3) 0.157(4) 0.8198(19)
H10 H 1.009(3) 0.323(4) 0.7754(19)
O10 O 0.8866(2) -0.0449(3) 0.84618(12)
O11 O 1.01166(17) -0.3115(3) 0.88272(10)
O12 O 0.57147(17) -0.8159(3) 0.87965(10)
O13 O 0.42711(19) -0.5604(2) 0.86319(12)
N2 N 0.7758(2) -0.0354(3) 1.00541(14)
C6 C 0.9153(3) -0.1877(3) 0.89410(16)
C7 C 0.8221(3) -0.2185(3) 0.97207(15)
C8 C 0.6730(2) -0.3311(6) 0.93811(13)
C9 C 0.7032(3) -0.5316(3) 0.91896(17)
C10 C 0.5559(3) -0.6423(3) 0.88471(15)
H19 H 0.8875 -0.2837 1.0238
H20 H 0.715(3) -0.053(4) 1.0498(16)
H21 H 0.725(3) 0.026(4) 0.9574(14)
H22 H 0.855(2) 0.027(3) 1.0391(16)
H23 H 0.6070 -0.3246 0.9849
H24 H 0.6163 -0.2753 0.8815
H25 H 0.7592 -0.5877 0.9757
H26 H 0.7698 -0.5381 0.8726
loop_
_geom_bond_atom_site_label_1
_geom_bond_atom_site_label_2
_geom_bond_site_symmetry_1
_geom_bond_site_symmetry_2
Sr1 O1 1_555 1_555
O1 H1 1_555 1_555
O2 Sr1 1_555 1_555
O3 Sr1 1_555 1_555
O4 H7 1_555 1_555
O5 H9 1_555 1_555
O6 Sr1 1_555 1_555
O7 Sr1 1_555 1_555
O8 C5 1_555 1_555
O9 C5 1_555 1_555
O10 C6 1_555 1_555
O11 C6 1_555 1_555
O12 C10 1_555 1_555
O13 C10 1_555 1_555
N1 C2 1_555 1_555
N2 C7 1_555 1_555
C1 O6 1_555 1_555
C2 C1 1_555 1_555
C3 C2 1_555 1_555
C4 C3 1_555 1_555
C5 C4 1_555 1_555
C6 C7 1_555 1_555
C7 C8 1_555 1_555
C8 C9 1_555 1_555
C9 C10 1_555 1_555
H2 O1 1_555 1_555
H3 O2 1_555 1_555
H4 O2 1_555 1_555
H5 O3 1_555 1_555
H6 O3 1_555 1_555
H8 O4 1_555 1_555
H10 O5 1_555 1_555
H11 C2 1_555 1_555
H12 N1 1_555 1_555
H13 N1 1_555 1_555
H14 N1 1_555 1_555
H15 C3 1_555 1_555
H16 C3 1_555 1_555
H17 C4 1_555 1_555
H18 C4 1_555 1_555
H19 C7 1_555 1_555
H20 N2 1_555 1_555
H21 N2 1_555 1_555
H22 N2 1_555 1_555
H23 C8 1_555 1_555
H24 C8 1_555 1_555
H25 C9 1_555 1_555
H26 C9 1_555 1_555
Sr1A O6 1_555 1_555
Sr1A_2 O7 1_555 1_555
Sr1_2 O8 1_555 1_555
O6A Sr1 1_555 1_555
O7A Sr1 1_555 1_555
O8_2 Sr1 1_555 1_555
O9_2 Sr1 1_555 1_555
O7 C1 1_555 1_555
O9 Sr1_2 1_555 1_555
Sr1A O7A 1_555 1_555
Sr1A_2 O6A 1_555 1_555

#END
