
#######################################################################
#
#                 Cambridge Crystallographic Data Centre
#                                CCDC 
#
#######################################################################
#
# If this CIF has been generated from an entry in the Cambridge 
# Structural Database, then it will include bibliographic, chemical, 
# crystal, experimental, refinement or atomic coordinate data resulting 
# from the CCDC's data processing and validation procedures.
#
#######################################################################

data_YASMUC
_symmetry_cell_setting           triclinic
_symmetry_space_group_name_H-M   'P -1'
_symmetry_Int_Tables_number      2
_space_group_name_Hall           '-P 1'
loop_
_symmetry_equiv_pos_site_id
_symmetry_equiv_pos_as_xyz
1 x,y,z
2 -x,-y,-z
_cell_length_a                   8.6902(16)
_cell_length_b                   13.818(3)
_cell_length_c                   15.034(3)
_cell_angle_alpha                87.335(4)
_cell_angle_beta                 78.874(4)
_cell_angle_gamma                87.676(4)
_cell_volume                     1768.54
loop_
_atom_site_label
_atom_site_type_symbol
_atom_site_fract_x
_atom_site_fract_y
_atom_site_fract_z
C1 C 0.6878(6) 0.5743(4) 0.8760(4)
C2 C 0.7676(6) 0.6188(4) 0.7866(4)
C3 C 0.8034(6) 0.7146(4) 0.7748(4)
H1 H 0.7773 0.7541 0.8243
C4 C 0.8767(7) 0.7550(4) 0.6926(4)
H2 H 0.8971 0.8208 0.6875
C5 C 0.9204(6) 0.6982(4) 0.6175(4)
C6 C 0.8852(7) 0.6003(4) 0.6280(4)
H3 H 0.9129 0.5601 0.5791
C7 C 0.8092(7) 0.5628(4) 0.7111(4)
H4 H 0.7852 0.4976 0.7164
C8 C 1.0085(7) 0.7346(4) 0.5248(4)
C9 C 0.9341(8) 0.7025(4) 0.4486(4)
C10 C 1.0190(7) 0.6885(4) 0.3626(4)
H5 H 1.1275 0.6935 0.3517
C11 C 0.9467(7) 0.6673(4) 0.2926(4)
H6 H 1.0065 0.6587 0.2350
C12 C 0.7881(8) 0.6587(4) 0.3068(4)
C13 C 0.7017(7) 0.6720(4) 0.3921(4)
H7 H 0.5933 0.6664 0.4027
C14 C 0.7735(8) 0.6933(4) 0.4612(4)
H8 H 0.7128 0.7018 0.5186
C15 C 0.7051(8) 0.6358(4) 0.2292(4)
C16 C 1.0085(10) 0.8478(6) 0.5176(6)
C17 C 1.1781(9) 0.6956(7) 0.5169(5)
C18 C 0.1618(6) 0.5836(4) 0.9754(4)
H9 H 0.1357 0.5386 1.0234
C19 C 0.0747(6) 0.6697(4) 0.9767(4)
H10 H -0.0073 0.6815 1.0250
C20 C 0.1087(6) 0.7378(4) 0.9069(4)
C21 C 0.2318(7) 0.7136(4) 0.8371(4)
H11 H 0.2595 0.7565 0.7876
C22 C 0.3131(7) 0.6263(4) 0.8409(4)
H12 H 0.3946 0.6118 0.7931
C23 C 0.0201(6) 0.8330(4) 0.9060(4)
C24 C -0.1141(7) 0.8483(4) 0.9713(4)
H13 H -0.1473 0.8003 1.0154
C25 C -0.1979(7) 0.9346(4) 0.9705(5)
H14 H -0.2882 0.9434 1.0143
C26 C -0.1543(6) 1.0081(4) 0.9081(4)
C27 C -0.0229(7) 0.9910(4) 0.8425(5)
H15 H 0.0098 1.0384 0.7977
C28 C 0.0600(6) 0.9045(4) 0.8430(5)
H16 H 0.1478 0.8948 0.7976
C29 C -0.2502(6) 1.1004(4) 0.9103(4)
C30 C -0.3563(6) 1.1270(4) 0.9861(4)
H17 H -0.3692 1.0871 1.0384
C31 C -0.4428(6) 1.2118(4) 0.9851(4)
H18 H -0.5136 1.2273 1.0376
C32 C -0.3322(7) 1.2487(4) 0.8431(5)
H19 H -0.3226 1.2897 0.7916
C33 C -0.2371(7) 1.1635(4) 0.8388(5)
H20 H -0.1648 1.1508 0.7861
Cd1 Cd 0.41632(5) 0.41470(3) 0.91246(3)
F1 F 1.1918(4) 0.6021(3) 0.5031(3)
F2 F 1.2323(4) 0.7109(3) 0.5929(3)
F3 F 1.2795(4) 0.7412(3) 0.4517(3)
F4 F 1.0874(5) 0.8874(3) 0.5715(3)
F5 F 1.0682(5) 0.8795(3) 0.4326(3)
F6 F 0.8635(5) 0.8850(2) 0.5363(3)
N1 N 0.2804(5) 0.5624(3) 0.9093(3)
N2 N -0.4321(5) 1.2730(3) 0.9144(4)
O1 O 0.6409(4) 0.4911(3) 0.8780(3)
O2 O 0.6804(4) 0.6264(2) 0.9431(3)
O3 O 0.5713(5) 0.6032(3) 0.2468(3)
O4 O 0.7814(4) 0.6520(3) 0.1500(3)
Cd1_2 Cd -0.58368(5) 1.41470(3) 0.91246(3)
Cd1A Cd 0.58368(5) 0.58530(3) 1.08754(3)
Cd1A_2 Cd 0.58368(5) 0.58530(3) 0.08754(3)
N2_2 N 0.5679(5) 0.2730(3) 0.9144(4)
O2A O 0.3196(4) 0.3736(2) 1.0569(3)
O3A O 0.4287(5) 0.3968(3) 0.7532(3)
O4A O 0.2186(4) 0.3480(3) 0.8500(3)
loop_
_geom_bond_atom_site_label_1
_geom_bond_atom_site_label_2
_geom_bond_site_symmetry_1
_geom_bond_site_symmetry_2
C1 C2 1_555 1_555
C2 C3 1_555 1_555
C3 H1 1_555 1_555
C4 C3 1_555 1_555
H2 C4 1_555 1_555
C5 C4 1_555 1_555
C6 C5 1_555 1_555
H3 C6 1_555 1_555
C7 C2 1_555 1_555
H4 C7 1_555 1_555
C8 C5 1_555 1_555
C9 C8 1_555 1_555
C10 C9 1_555 1_555
H5 C10 1_555 1_555
C11 C10 1_555 1_555
H6 C11 1_555 1_555
C12 C11 1_555 1_555
C13 C12 1_555 1_555
H7 C13 1_555 1_555
C14 C9 1_555 1_555
H8 C14 1_555 1_555
C15 C12 1_555 1_555
C16 C8 1_555 1_555
C17 C8 1_555 1_555
C18 H9 1_555 1_555
C19 C18 1_555 1_555
H10 C19 1_555 1_555
C20 C19 1_555 1_555
C21 C20 1_555 1_555
H11 C21 1_555 1_555
C22 C21 1_555 1_555
H12 C22 1_555 1_555
C23 C20 1_555 1_555
C24 C23 1_555 1_555
H13 C24 1_555 1_555
C25 C24 1_555 1_555
H14 C25 1_555 1_555
C26 C25 1_555 1_555
C27 C26 1_555 1_555
H15 C27 1_555 1_555
C28 C23 1_555 1_555
H16 C28 1_555 1_555
C29 C26 1_555 1_555
C30 C29 1_555 1_555
H17 C30 1_555 1_555
C31 C30 1_555 1_555
H18 C31 1_555 1_555
C32 H19 1_555 1_555
C33 C29 1_555 1_555
H20 C33 1_555 1_555
Cd1 N1 1_555 1_555
F1 C17 1_555 1_555
F2 C17 1_555 1_555
F3 C17 1_555 1_555
F4 C16 1_555 1_555
F5 C16 1_555 1_555
F6 C16 1_555 1_555
N1 C18 1_555 1_555
N2 C31 1_555 1_555
O1 C1 1_555 1_555
O2 C1 1_555 1_555
O3 C15 1_555 1_555
O4 C15 1_555 1_555
Cd1_2 N2 1_555 1_555
Cd1A O2 1_555 1_555
Cd1A_2 O3 1_555 1_555
N2_2 Cd1 1_555 1_555
O2A Cd1 1_555 1_555
O3A Cd1 1_555 1_555
O4A Cd1 1_555 1_555
C6 C7 1_555 1_555
C13 C14 1_555 1_555
C22 N1 1_555 1_555
C27 C28 1_555 1_555
C32 C33 1_555 1_555
C32 N2 1_555 1_555
Cd1 O1 1_555 1_555
O4 Cd1A_2 1_555 1_555

#END
