
#######################################################################
#
#                 Cambridge Crystallographic Data Centre
#                                CCDC 
#
#######################################################################
#
# If this CIF has been generated from an entry in the Cambridge 
# Structural Database, then it will include bibliographic, chemical, 
# crystal, experimental, refinement or atomic coordinate data resulting 
# from the CCDC's data processing and validation procedures.
#
#######################################################################

data_YASNIQ
_symmetry_cell_setting           monoclinic
_symmetry_space_group_name_H-M   'C 2/c'
_symmetry_Int_Tables_number      15
_space_group_name_Hall           '-C 2yn'
loop_
_symmetry_equiv_pos_site_id
_symmetry_equiv_pos_as_xyz
1 x,y,z
2 1/2+x,1/2+y,z
3 -x,y,1/2-z
4 1/2-x,1/2+y,1/2-z
5 -x,-y,-z
6 1/2-x,1/2-y,-z
7 x,-y,1/2+z
8 1/2+x,1/2-y,1/2+z
_cell_length_a                   19.0297(17)
_cell_length_b                   11.0300(19)
_cell_length_c                   12.0952(19)
_cell_angle_alpha                90
_cell_angle_beta                 128.519(9)
_cell_angle_gamma                90
_cell_volume                     1986.32
loop_
_atom_site_label
_atom_site_type_symbol
_atom_site_fract_x
_atom_site_fract_y
_atom_site_fract_z
Zn1 Zn 0.2500 0.7500 0.0000
O1 O 0.06002(12) 0.13963(18) -0.34569(18)
O2 O 0.18416(13) 0.10405(17) 0.11899(19)
O3 O 0.38289(9) 0.67803(14) 0.13883(15)
N1 N 0.12302(13) 0.08967(18) -0.1156(2)
N2 N 0.19902(12) 0.58907(18) 0.02650(18)
N3 N 0.23601(12) 0.32331(17) 0.32852(18)
N4 N 0.06127(15) 0.4782(2) -0.3252(2)
C1 C 0.09485(14) 0.1697(2) -0.2248(2)
C2 C 0.11360(13) 0.2920(2) -0.1649(2)
C3 C 0.15095(12) 0.2839(2) -0.0240(2)
C4 C 0.15589(14) 0.14873(19) 0.0073(2)
C5 C 0.18260(13) 0.37114(19) 0.07975(19)
C6 C 0.21234(13) 0.34297(19) 0.2170(2)
C7 C 0.19045(12) 0.49326(19) 0.05301(19)
C8 C 0.08689(14) 0.3963(2) -0.2510(2)
H1 H 0.117(2) 0.009(4) -0.132(4)
H2 H 0.417(3) 0.707(4) 0.113(5)
H3 H 0.408(2) 0.704(3) 0.215(4)
Zn1F Zn 0.2500 0.2500 0.5000
Zn1F_2 Zn 0.2500 1.2500 -0.5000
O1E O 0.43998(12) 1.36037(18) 0.34569(18)
O2E O 0.31584(13) 1.39595(17) -0.11899(19)
O3E O 0.11711(9) 0.82197(14) -0.13883(15)
N1E N 0.37698(13) 1.41033(18) 0.1156(2)
N2E N 0.30098(12) 0.91093(18) -0.02650(18)
N3E N 0.26399(12) 1.17669(17) -0.32852(18)
N3F N 0.23601(12) 0.67669(17) -0.17148(18)
N3C N 0.26399(12) 0.82331(17) 0.17148(18)
N4E N 0.43873(15) 1.0218(2) 0.3252(2)
C1E C 0.40515(14) 1.3303(2) 0.2248(2)
C2E C 0.38640(13) 1.2080(2) 0.1649(2)
C3E C 0.34905(12) 1.2161(2) 0.0240(2)
C4E C 0.34411(14) 1.35127(19) -0.0073(2)
C5E C 0.31740(13) 1.12886(19) -0.07975(19)
C6E C 0.28766(13) 1.15703(19) -0.2170(2)
C7E C 0.30955(12) 1.00674(19) -0.05301(19)
C8E C 0.41311(14) 1.1037(2) 0.2510(2)
H1E H 0.383(2) 1.491(4) 0.132(4)
H2E H 0.083(3) 0.793(4) -0.113(5)
H3E H 0.092(2) 0.796(3) -0.215(4)
O4 O 0.49756(13) 0.76345(19) 0.0895(2)
H4 H 0.479(3) 0.721(3) 0.020(3)
H5 H 0.505(3) 0.8391(18) 0.092(5)
loop_
_geom_bond_atom_site_label_1
_geom_bond_atom_site_label_2
_geom_bond_site_symmetry_1
_geom_bond_site_symmetry_2
Zn1 O3 1_555 1_555
O1 C1 1_555 1_555
O2 C4 1_555 1_555
O3 H2 1_555 1_555
O4 H4 1_555 1_555
N1 C1 1_555 1_555
N2 Zn1 1_555 1_555
N3 C6 1_555 1_555
N4 C8 1_555 1_555
C1 C2 1_555 1_555
C2 C3 1_555 1_555
C3 C4 1_555 1_555
C4 N1 1_555 1_555
C5 C3 1_555 1_555
C6 C5 1_555 1_555
C7 N2 1_555 1_555
C8 C2 1_555 1_555
H1 N1 1_555 1_555
H3 O3 1_555 1_555
H5 O4 1_555 1_555
Zn1F N3 1_555 1_555
Zn1F_2 N3E 1_555 1_555
O1E C1E 1_555 1_555
O2E C4E 1_555 1_555
O3E Zn1 1_555 1_555
N1E C1E 1_555 1_555
N2E Zn1 1_555 1_555
N3E C6E 1_555 1_555
N3F Zn1 1_555 1_555
N3C Zn1 1_555 1_555
N4E C8E 1_555 1_555
C1E C2E 1_555 1_555
C2E C3E 1_555 1_555
C3E C4E 1_555 1_555
C4E N1E 1_555 1_555
C5E C3E 1_555 1_555
C6E C5E 1_555 1_555
C7E N2E 1_555 1_555
C8E C2E 1_555 1_555
H1E N1E 1_555 1_555
H2E O3E 1_555 1_555
H3E O3E 1_555 1_555
C5 C7 1_555 1_555
C5E C7E 1_555 1_555

#END
