
#######################################################################
#
#                 Cambridge Crystallographic Data Centre
#                                CCDC 
#
#######################################################################
#
# If this CIF has been generated from an entry in the Cambridge 
# Structural Database, then it will include bibliographic, chemical, 
# crystal, experimental, refinement or atomic coordinate data resulting 
# from the CCDC's data processing and validation procedures.
#
#######################################################################

data_YASNEN
_symmetry_cell_setting           triclinic
_symmetry_space_group_name_H-M   'P -1'
_symmetry_Int_Tables_number      2
_space_group_name_Hall           '-P 1'
loop_
_symmetry_equiv_pos_site_id
_symmetry_equiv_pos_as_xyz
1 x,y,z
2 -x,-y,-z
_cell_length_a                   15.510(2)
_cell_length_b                   15.517(2)
_cell_length_c                   19.962(3)
_cell_angle_alpha                98.381(3)
_cell_angle_beta                 93.697(3)
_cell_angle_gamma                117.220(2)
_cell_volume                     4179.34
loop_
_atom_site_label
_atom_site_type_symbol
_atom_site_fract_x
_atom_site_fract_y
_atom_site_fract_z
C25 C 0.9516(3) 0.5295(3) 0.4550(2)
H19 H 0.9193 0.5498 0.4252
C26 C 0.9139(3) 0.5031(3) 0.51508(19)
H20 H 0.8567 0.5049 0.5244
C27 C 1.0371(3) 0.5262(3) 0.4387(2)
C28 C 1.0743(3) 0.5521(3) 0.37309(19)
C29 C 1.0114(3) 0.5427(3) 0.3165(2)
H21 H 0.9453 0.5213 0.3190
C30 C 1.0480(3) 0.5657(3) 0.2557(2)
H22 H 1.0059 0.5591 0.2177
C31 C 1.2080(3) 0.6069(3) 0.3078(2)
H23 H 1.2742 0.6285 0.3051
C32 C 1.1727(3) 0.5837(3) 0.3685(2)
H24 H 1.2150 0.5894 0.4061
C33 C 1.1189(4) 0.3984(3) 0.1704(2)
H25 H 1.0627 0.4044 0.1761
C34 C 1.1185(4) 0.3096(3) 0.1727(2)
H26 H 1.0619 0.2563 0.1803
C35 C 1.2011(3) 0.2988(3) 0.1640(2)
C36 C 1.2854(3) 0.3798(3) 0.1533(2)
H27 H 1.3417 0.3740 0.1477
C37 C 1.2860(3) 0.4698(3) 0.1510(2)
H28 H 1.3423 0.5235 0.1436
C38 C 1.1989(3) 0.2010(3) 0.1647(2)
C39 C 1.1223(4) 0.1249(3) 0.1865(2)
H29 H 1.0717 0.1345 0.2023
C40 C 1.1207(4) 0.0346(4) 0.1847(2)
H30 H 1.0691 -0.0158 0.1996
C41 C 1.1955(3) 0.0185(3) 0.1610(2)
C42 C 1.2726(3) 0.0947(3) 0.1393(2)
H31 H 1.3231 0.0848 0.1233
C43 C 1.2743(4) 0.1847(3) 0.1415(3)
H32 H 1.3265 0.2354 0.1274
C44 C 1.1966(3) -0.0769(3) 0.1590(2)
C45 C 1.2201(3) -0.1002(3) 0.2196(2)
H33 H 1.2356 -0.0559 0.2607
C46 C 1.2206(3) -0.1892(3) 0.2189(2)
H34 H 1.2353 -0.2050 0.2598
C47 C 1.1758(3) -0.2318(3) 0.0966(2)
H35 H 1.1607 -0.2758 0.0553
C48 C 1.1751(3) -0.1421(3) 0.0977(2)
H36 H 1.1602 -0.1260 0.0570
C63 C 1.3791(3) 0.7076(4) 0.1427(2)
C64 C 1.4820(3) 0.7715(3) 0.1315(2)
C65 C 1.5541(3) 0.8230(3) 0.1886(3)
H45 H 1.5368 0.8185 0.2322
C66 C 1.6509(4) 0.8807(4) 0.1816(3)
H46 H 1.6984 0.9151 0.2201
C67 C 1.6763(4) 0.8866(4) 0.1163(3)
C68 C 1.6058(4) 0.8358(4) 0.0594(3)
H47 H 1.6238 0.8403 0.0160
C69 C 1.5084(4) 0.7780(3) 0.0660(3)
H48 H 1.4612 0.7440 0.0273
C70 C 1.8485(4) 0.8714(3) 0.0911(2)
C71 C 1.8545(4) 0.8193(4) 0.1414(2)
H49 H 1.8363 0.8310 0.1839
C72 C 1.8876(4) 0.7501(4) 0.1275(3)
H50 H 1.8915 0.7155 0.1609
C73 C 1.9152(4) 0.7322(4) 0.0638(2)
C74 C 1.9086(3) 0.7845(3) 0.0143(2)
H51 H 1.9268 0.7730 -0.0283
C75 C 1.8753(3) 0.8536(3) 0.0276(2)
H52 H 1.8710 0.8879 -0.0059
C76 C 1.9415(4) 0.6498(4) 0.0469(3)
N4 N 1.1459(3) 0.5982(2) 0.25156(16)
N5 N 1.2028(3) 0.4784(2) 0.15967(18)
N6 N 1.1991(3) -0.2553(2) 0.15742(19)
Ni2 Ni 1.20080(4) 0.61155(4) 0.15799(3)
O7 O 1.3522(2) 0.7000(2) 0.19986(16)
O8 O 1.3129(2) 0.6595(2) 0.08936(16)
O9 O 1.9409(2) 0.6022(2) 0.09304(17)
O10 O 1.9651(3) 0.6371(2) -0.01071(18)
O11 O 1.8589(2) 1.0207(2) 0.17579(16)
O12 O 1.8050(2) 0.9992(2) 0.04732(16)
O15 O 1.0705(2) 0.5342(2) 0.09537(17)
H57 H 1.0472 0.5788 0.0843
H58 H 1.0788 0.5003 0.0541
S2 S 1.80150(9) 0.95574(9) 0.10783(6)
C25A C 1.0484(3) 0.4705(3) 0.5450(2)
H19A H 1.0807 0.4502 0.5748
C26A C 1.0861(3) 0.4969(3) 0.48492(19)
H20A H 1.1433 0.4951 0.4756
C27A C 0.9629(3) 0.4738(3) 0.5613(2)
C28A C 0.9257(3) 0.4479(3) 0.62691(19)
C29A C 0.9886(3) 0.4573(3) 0.6835(2)
H21A H 1.0547 0.4787 0.6810
C30A C 0.9520(3) 0.4343(3) 0.7443(2)
H22A H 0.9941 0.4409 0.7823
C31A C 0.7920(3) 0.3931(3) 0.6922(2)
H23A H 0.7258 0.3715 0.6949
C32A C 0.8273(3) 0.4163(3) 0.6315(2)
H24A H 0.7850 0.4106 0.5939
C33_2 C 1.1189(4) 1.3984(3) 0.1704(2)
H25_2 H 1.0627 1.4044 0.1761
C34_2 C 1.1185(4) 1.3096(3) 0.1727(2)
H26_2 H 1.0619 1.2563 0.1803
C35_2 C 1.2011(3) 1.2988(3) 0.1640(2)
C36_2 C 1.2854(3) 1.3798(3) 0.1533(2)
H27_2 H 1.3417 1.3740 0.1477
C37_2 C 1.2860(3) 1.4698(3) 0.1510(2)
H28_2 H 1.3423 1.5235 0.1436
C38_2 C 1.1989(3) 1.2010(3) 0.1647(2)
C39_2 C 1.1223(4) 1.1249(3) 0.1865(2)
H29_2 H 1.0717 1.1345 0.2023
C40_2 C 1.1207(4) 1.0346(4) 0.1847(2)
H30_2 H 1.0691 0.9842 0.1996
C41_2 C 1.1955(3) 1.0185(3) 0.1610(2)
C42_2 C 1.2726(3) 1.0947(3) 0.1393(2)
H31_2 H 1.3231 1.0848 0.1233
C43_2 C 1.2743(4) 1.1847(3) 0.1415(3)
H32_2 H 1.3265 1.2354 0.1274
C44_2 C 1.1966(3) 0.9231(3) 0.1590(2)
C45_2 C 1.2201(3) 0.8998(3) 0.2196(2)
H33_2 H 1.2356 0.9441 0.2607
C46_2 C 1.2206(3) 0.8108(3) 0.2189(2)
H34_2 H 1.2353 0.7950 0.2598
C47_2 C 1.1758(3) 0.7682(3) 0.0966(2)
H35_2 H 1.1607 0.7242 0.0553
C48_2 C 1.1751(3) 0.8579(3) 0.0977(2)
H36_2 H 1.1602 0.8740 0.0570
C63_2 C 1.3791(3) 1.7076(4) 0.1427(2)
C64_2 C 1.4820(3) 1.7715(3) 0.1315(2)
C65_2 C 1.5541(3) 1.8230(3) 0.1886(3)
H45_2 H 1.5368 1.8185 0.2322
C66_2 C 1.6509(4) 1.8807(4) 0.1816(3)
H46_2 H 1.6984 1.9151 0.2201
C67_2 C 1.6763(4) 1.8866(4) 0.1163(3)
C68_2 C 1.6058(4) 1.8358(4) 0.0594(3)
H47_2 H 1.6238 1.8403 0.0160
C69_2 C 1.5084(4) 1.7780(3) 0.0660(3)
H48_2 H 1.4612 1.7440 0.0273
C70_2 C 1.8485(4) 1.8714(3) 0.0911(2)
C71_2 C 1.8545(4) 1.8193(4) 0.1414(2)
H49_2 H 1.8363 1.8310 0.1839
C72_2 C 1.8876(4) 1.7501(4) 0.1275(3)
H50_2 H 1.8915 1.7155 0.1609
C73_2 C 1.9152(4) 1.7322(4) 0.0638(2)
C74_2 C 1.9086(3) 1.7845(3) 0.0143(2)
H51_2 H 1.9268 1.7730 -0.0283
C75_2 C 1.8753(3) 1.8536(3) 0.0276(2)
H52_2 H 1.8710 1.8879 -0.0059
C76_2 C 1.9415(4) 1.6498(4) 0.0469(3)
N4A N 0.8541(3) 0.4018(2) 0.74844(16)
N4_2 N 1.1459(3) 1.5982(2) 0.25156(16)
N5_2 N 1.2028(3) 1.4784(2) 0.15967(18)
N6_2 N 1.1991(3) 0.7447(2) 0.15742(19)
N6_3 N 1.1991(3) 1.7447(2) 0.15742(19)
Ni2_2 Ni 1.20080(4) 1.61155(4) 0.15799(3)
Ni2_3 Ni 1.20080(4) -0.38845(4) 0.15799(3)
Ni2A Ni 0.79920(4) 0.38845(4) 0.84201(3)
O7_2 O 1.3522(2) 1.7000(2) 0.19986(16)
O8_2 O 1.3129(2) 1.6595(2) 0.08936(16)
O9_2 O 1.9409(2) 1.6022(2) 0.09304(17)
O10_2 O 1.9651(3) 1.6371(2) -0.01071(18)
O11_2 O 1.8589(2) 2.0207(2) 0.17579(16)
O12_2 O 1.8050(2) 1.9992(2) 0.04732(16)
O15_2 O 1.0705(2) 1.5342(2) 0.09537(17)
H57_2 H 1.0472 1.5788 0.0843
H58_2 H 1.0788 1.5003 0.0541
S2_2 S 1.80150(9) 1.95574(9) 0.10783(6)
C1 C 0.3731(3) 0.1376(3) 0.4294(2)
H1 H 0.3857 0.1050 0.4612
C2 C 0.2844(3) 0.1400(3) 0.4234(2)
H2 H 0.2382 0.1098 0.4514
C3 C 0.2652(3) 0.1882(3) 0.3748(2)
C4 C 0.3358(3) 0.2348(3) 0.3348(2)
H3 H 0.3240 0.2686 0.3035
C5 C 0.4239(3) 0.2317(3) 0.3408(2)
H4 H 0.4703 0.2620 0.3129
C6 C 0.1676(3) 0.1858(3) 0.3664(2)
C7 C 0.1596(3) 0.2708(3) 0.3620(2)
H5 H 0.2153 0.3294 0.3608
C8 C 0.0684(3) 0.2683(3) 0.3595(2)
H6 H 0.0632 0.3250 0.3562
C9 C -0.0146(3) 0.1809(3) 0.3618(2)
C10 C -0.0065(3) 0.0974(3) 0.3666(2)
H7 H -0.0621 0.0391 0.3686
C11 C 0.0832(3) 0.0995(3) 0.3686(2)
H8 H 0.0874 0.0423 0.3715
C12 C -0.1122(3) 0.1801(3) 0.3684(2)
C13 C -0.1160(3) 0.2588(3) 0.4086(2)
H9 H -0.0582 0.3145 0.4297
C14 C -0.2053(3) 0.2545(3) 0.4174(2)
H10 H -0.2071 0.3075 0.4446
C15 C -0.2881(3) 0.0945(3) 0.3458(2)
H11 H -0.3461 0.0389 0.3248
C16 C -0.1994(3) 0.0978(3) 0.3361(2)
H12 H -0.1977 0.0452 0.3082
C17 C 0.4756(3) 0.0342(3) 0.2556(2)
H13 H 0.4372 -0.0091 0.2821
C18 C 0.4640(3) 0.0030(3) 0.1860(2)
H14 H 0.4186 -0.0617 0.1660
C19 C 0.5192(3) 0.0667(3) 0.1452(2)
C20 C 0.5884(3) 0.1640(3) 0.1763(2)
H15 H 0.6263 0.2078 0.1498
C21 C 0.5999(3) 0.1946(3) 0.2466(2)
H16 H 0.6453 0.2592 0.2671
C22 C 0.5083(3) 0.0331(3) 0.0708(2)
C23 C 0.4217(4) -0.0359(4) 0.0348(2)
H17 H 0.3675 -0.0613 0.0574
C24 C 0.5902(4) 0.0712(3) 0.0360(2)
H18 H 0.6512 0.1190 0.0595
C49 C 0.6651(3) 0.3946(3) 0.4355(2)
C50 C 0.7077(3) 0.4953(3) 0.4164(2)
C51 C 0.7283(3) 0.5069(3) 0.3511(2)
H37 H 0.7110 0.4517 0.3170
C52 C 0.7751(3) 0.6016(3) 0.3364(2)
H38 H 0.7884 0.6095 0.2923
C53 C 0.8018(3) 0.6840(3) 0.3877(2)
C54 C 0.7804(3) 0.6719(3) 0.4534(2)
H39 H 0.7970 0.7269 0.4875
C55 C 0.7340(3) 0.5773(3) 0.4683(2)
H40 H 0.7207 0.5691 0.5124
C56 C 0.9882(3) 0.8341(3) 0.3984(2)
C57 C 1.0349(4) 0.7957(3) 0.3563(3)
H41 H 1.0019 0.7539 0.3145
C58 C 1.1329(3) 0.8209(3) 0.3779(2)
H42 H 1.1646 0.7953 0.3499
C59 C 1.1837(3) 0.8837(3) 0.4405(2)
C60 C 1.1338(3) 0.9213(3) 0.4827(3)
H43 H 1.1659 0.9632 0.5247
C61 C 1.0371(3) 0.8955(3) 0.4611(2)
H44 H 1.0044 0.9198 0.4892
C62 C 1.2903(3) 0.9146(3) 0.4631(3)
N1 N 0.4428(2) 0.1831(2) 0.38862(17)
N2 N -0.2920(2) 0.1726(2) 0.38616(16)
N3 N 0.5445(2) 0.1301(2) 0.28647(16)
Ni1 Ni 0.57290(4) 0.17325(4) 0.39289(3)
O1 O 0.64164(18) 0.32298(18) 0.38915(14)
O2 O 0.6588(2) 0.39070(19) 0.49800(15)
O3 O 1.3309(2) 0.8814(2) 0.42279(16)
O4 O 1.3306(2) 0.9722(2) 0.51819(17)
O5 O 0.8514(2) 0.7964(2) 0.29837(16)
O6 O 0.8413(2) 0.8678(2) 0.41609(16)
O13 O 0.51661(19) 0.02356(18) 0.40467(14)
H53 H 0.4599 0.0054 0.4274
H54 H 0.5659 0.0167 0.4315
O14 O 0.5893(2) 0.2052(2) 0.49927(14)
H55 H 0.6220 0.2755 0.5152
H56 H 0.6275 0.1777 0.5179
S1 S 0.86625(7) 0.80295(7) 0.37210(5)
C1_2 C 1.3731(3) 0.1376(3) 0.4294(2)
H1_2 H 1.3857 0.1050 0.4612
C2_2 C 1.2844(3) 0.1400(3) 0.4234(2)
H2_2 H 1.2382 0.1098 0.4514
C3_2 C 1.2652(3) 0.1882(3) 0.3748(2)
C4_2 C 1.3358(3) 0.2348(3) 0.3348(2)
H3_2 H 1.3240 0.2686 0.3035
C5_2 C 1.4239(3) 0.2317(3) 0.3408(2)
H4_2 H 1.4703 0.2620 0.3129
C6_2 C 1.1676(3) 0.1858(3) 0.3664(2)
C7_2 C 1.1596(3) 0.2708(3) 0.3620(2)
H5_2 H 1.2153 0.3294 0.3608
C8_2 C 1.0684(3) 0.2683(3) 0.3595(2)
H6_2 H 1.0632 0.3250 0.3562
C9_2 C 0.9854(3) 0.1809(3) 0.3618(2)
C10_2 C 0.9935(3) 0.0974(3) 0.3666(2)
H7_2 H 0.9379 0.0391 0.3686
C11_2 C 1.0832(3) 0.0995(3) 0.3686(2)
H8_2 H 1.0874 0.0423 0.3715
C12_2 C 0.8878(3) 0.1801(3) 0.3684(2)
C13_2 C 0.8840(3) 0.2588(3) 0.4086(2)
H9_2 H 0.9418 0.3145 0.4297
C14_2 C 0.7947(3) 0.2545(3) 0.4174(2)
H10_2 H 0.7929 0.3075 0.4446
C15_2 C 0.7119(3) 0.0945(3) 0.3458(2)
H11_2 H 0.6539 0.0389 0.3248
C16_2 C 0.8006(3) 0.0978(3) 0.3361(2)
H12_2 H 0.8023 0.0452 0.3082
C17A C 0.5244(3) -0.0342(3) -0.2556(2)
H13A H 0.5628 0.0091 -0.2821
C18A C 0.5360(3) -0.0030(3) -0.1860(2)
H14A H 0.5814 0.0617 -0.1660
C19A C 0.4808(3) -0.0667(3) -0.1452(2)
C20A C 0.4116(3) -0.1640(3) -0.1763(2)
H15A H 0.3737 -0.2078 -0.1498
C21A C 0.4001(3) -0.1946(3) -0.2466(2)
H16A H 0.3547 -0.2592 -0.2671
C22A C 0.4917(3) -0.0331(3) -0.0708(2)
C23A C 0.5783(4) 0.0359(4) -0.0348(2)
H17A H 0.6325 0.0613 -0.0574
C24A C 0.4098(4) -0.0712(3) -0.0360(2)
H18A H 0.3488 -0.1190 -0.0595
C49A C 0.3349(3) -0.3946(3) -0.4355(2)
C50A C 0.2923(3) -0.4953(3) -0.4164(2)
C51A C 0.2717(3) -0.5069(3) -0.3511(2)
H37A H 0.2890 -0.4517 -0.3170
C52A C 0.2249(3) -0.6016(3) -0.3364(2)
H38A H 0.2116 -0.6095 -0.2923
C53A C 0.1982(3) -0.6840(3) -0.3877(2)
C54A C 0.2196(3) -0.6719(3) -0.4534(2)
H39A H 0.2030 -0.7269 -0.4875
C55A C 0.2660(3) -0.5773(3) -0.4683(2)
H40A H 0.2793 -0.5691 -0.5124
C56A C 0.0118(3) -0.8341(3) -0.3984(2)
C57A C -0.0349(4) -0.7957(3) -0.3563(3)
H41A H -0.0019 -0.7539 -0.3145
C58A C -0.1329(3) -0.8209(3) -0.3779(2)
H42A H -0.1646 -0.7953 -0.3499
C59A C -0.1837(3) -0.8837(3) -0.4405(2)
C60A C -0.1338(3) -0.9213(3) -0.4827(3)
H43A H -0.1659 -0.9632 -0.5247
C61A C -0.0371(3) -0.8955(3) -0.4611(2)
H44A H -0.0044 -0.9198 -0.4892
C62A C -0.2903(3) -0.9146(3) -0.4631(3)
N1_2 N 1.4428(2) 0.1831(2) 0.38862(17)
N1A N 0.5572(2) -0.1831(2) -0.38862(17)
N2_2 N 0.7080(2) 0.1726(2) 0.38616(16)
N2A N 0.2920(2) -0.1726(2) -0.38616(16)
N3A N 0.4555(2) -0.1301(2) -0.28647(16)
Ni1A Ni 0.42710(4) -0.17325(4) -0.39289(3)
Ni1_2 Ni -0.42710(4) 0.17325(4) 0.39289(3)
Ni1_3 Ni 1.57290(4) 0.17325(4) 0.39289(3)
O1A O 0.35836(18) -0.32298(18) -0.38915(14)
O2A O 0.3412(2) -0.39070(19) -0.49800(15)
O3A O -0.3309(2) -0.8814(2) -0.42279(16)
O4A O -0.3306(2) -0.9722(2) -0.51819(17)
O5A O 0.1486(2) -0.7964(2) -0.29837(16)
O6A O 0.1587(2) -0.8678(2) -0.41609(16)
O13A O 0.48339(19) -0.02356(18) -0.40467(14)
H53A H 0.5401 -0.0054 -0.4274
H54A H 0.4341 -0.0167 -0.4315
O14A O 0.4107(2) -0.2052(2) -0.49927(14)
H55A H 0.3780 -0.2755 -0.5152
H56A H 0.3725 -0.1777 -0.5179
S1A S 0.13375(7) -0.80295(7) -0.37210(5)
loop_
_geom_bond_atom_site_label_1
_geom_bond_atom_site_label_2
_geom_bond_site_symmetry_1
_geom_bond_site_symmetry_2
C1 H1 1_555 1_555
C2 C1 1_555 1_555
H2 C2 1_555 1_555
C3 C2 1_555 1_555
C4 C3 1_555 1_555
H3 C4 1_555 1_555
C5 C4 1_555 1_555
H4 C5 1_555 1_555
C6 C3 1_555 1_555
C7 C6 1_555 1_555
H5 C7 1_555 1_555
C8 C7 1_555 1_555
H6 C8 1_555 1_555
C9 C8 1_555 1_555
C10 C9 1_555 1_555
H7 C10 1_555 1_555
C11 C6 1_555 1_555
H8 C11 1_555 1_555
C12 C9 1_555 1_555
C13 C12 1_555 1_555
H9 C13 1_555 1_555
C14 C13 1_555 1_555
H10 C14 1_555 1_555
C15 H11 1_555 1_555
C16 C12 1_555 1_555
H12 C16 1_555 1_555
C17 H13 1_555 1_555
C18 C17 1_555 1_555
H14 C18 1_555 1_555
C19 C18 1_555 1_555
C20 C19 1_555 1_555
H15 C20 1_555 1_555
C21 C20 1_555 1_555
H16 C21 1_555 1_555
C22 C19 1_555 1_555
C23 C22 1_555 1_555
H17 C23 1_555 1_555
C24 C22 1_555 1_555
H18 C24 1_555 1_555
C25 H19 1_555 1_555
C26 C25 1_555 1_555
H20 C26 1_555 1_555
C27 C25 1_555 1_555
C28 C27 1_555 1_555
C29 C28 1_555 1_555
H21 C29 1_555 1_555
C30 C29 1_555 1_555
H22 C30 1_555 1_555
C31 H23 1_555 1_555
C32 C28 1_555 1_555
H24 C32 1_555 1_555
C33 H25 1_555 1_555
C34 C33 1_555 1_555
H26 C34 1_555 1_555
C35 C34 1_555 1_555
C36 C35 1_555 1_555
H27 C36 1_555 1_555
C37 C36 1_555 1_555
H28 C37 1_555 1_555
C38 C35 1_555 1_555
C39 C38 1_555 1_555
H29 C39 1_555 1_555
C40 C39 1_555 1_555
H30 C40 1_555 1_555
C41 C40 1_555 1_555
C42 C41 1_555 1_555
H31 C42 1_555 1_555
C43 C38 1_555 1_555
H32 C43 1_555 1_555
C44 C41 1_555 1_555
C45 C44 1_555 1_555
H33 C45 1_555 1_555
C46 C45 1_555 1_555
H34 C46 1_555 1_555
C47 H35 1_555 1_555
C48 C44 1_555 1_555
H36 C48 1_555 1_555
C49 C50 1_555 1_555
C50 C51 1_555 1_555
C51 H37 1_555 1_555
C52 C51 1_555 1_555
H38 C52 1_555 1_555
C53 C52 1_555 1_555
C54 C53 1_555 1_555
H39 C54 1_555 1_555
C55 C50 1_555 1_555
H40 C55 1_555 1_555
C56 C57 1_555 1_555
C57 H41 1_555 1_555
C58 C57 1_555 1_555
H42 C58 1_555 1_555
C59 C58 1_555 1_555
C60 C59 1_555 1_555
H43 C60 1_555 1_555
C61 C56 1_555 1_555
H44 C61 1_555 1_555
C62 C59 1_555 1_555
C63 C64 1_555 1_555
C64 C65 1_555 1_555
C65 H45 1_555 1_555
C66 C65 1_555 1_555
H46 C66 1_555 1_555
C67 C66 1_555 1_555
C68 C67 1_555 1_555
H47 C68 1_555 1_555
C69 C64 1_555 1_555
H48 C69 1_555 1_555
C70 C71 1_555 1_555
C71 H49 1_555 1_555
C72 C71 1_555 1_555
H50 C72 1_555 1_555
C73 C72 1_555 1_555
C74 C73 1_555 1_555
H51 C74 1_555 1_555
C75 C70 1_555 1_555
H52 C75 1_555 1_555
C76 C73 1_555 1_555
N1 C1 1_555 1_555
N2 C14 1_555 1_555
N3 C17 1_555 1_555
N4 C30 1_555 1_555
N5 C33 1_555 1_555
N6 C46 1_555 1_555
Ni1 N1 1_555 1_555
Ni2 N4 1_555 1_555
O1 C49 1_555 1_555
O2 C49 1_555 1_555
O3 C62 1_555 1_555
O4 C62 1_555 1_555
O5 S1 1_555 1_555
O6 S1 1_555 1_555
O7 C63 1_555 1_555
O8 C63 1_555 1_555
O9 C76 1_555 1_555
O10 C76 1_555 1_555
O11 S2 1_555 1_555
O12 S2 1_555 1_555
O13 Ni1 1_555 1_555
H53 O13 1_555 1_555
H54 O13 1_555 1_555
O14 Ni1 1_555 1_555
H55 O14 1_555 1_555
H56 O14 1_555 1_555
O15 Ni2 1_555 1_555
H57 O15 1_555 1_555
H58 O15 1_555 1_555
S1 C53 1_555 1_555
S2 C67 1_555 1_555
C1_2 H1_2 1_555 1_555
C2_2 C1_2 1_555 1_555
H2_2 C2_2 1_555 1_555
C3_2 C2_2 1_555 1_555
C4_2 C3_2 1_555 1_555
H3_2 C4_2 1_555 1_555
C5_2 C4_2 1_555 1_555
H4_2 C5_2 1_555 1_555
C6_2 C3_2 1_555 1_555
C7_2 C6_2 1_555 1_555
H5_2 C7_2 1_555 1_555
C8_2 C7_2 1_555 1_555
H6_2 C8_2 1_555 1_555
C9_2 C8_2 1_555 1_555
C10_2 C9_2 1_555 1_555
H7_2 C10_2 1_555 1_555
C11_2 C6_2 1_555 1_555
H8_2 C11_2 1_555 1_555
C12_2 C9_2 1_555 1_555
C13_2 C12_2 1_555 1_555
H9_2 C13_2 1_555 1_555
C14_2 C13_2 1_555 1_555
H10_2 C14_2 1_555 1_555
C15_2 H11_2 1_555 1_555
C16_2 C12_2 1_555 1_555
H12_2 C16_2 1_555 1_555
C17A H13A 1_555 1_555
C18A C17A 1_555 1_555
H14A C18A 1_555 1_555
C19A C18A 1_555 1_555
C20A C19A 1_555 1_555
H15A C20A 1_555 1_555
C21A C20A 1_555 1_555
H16A C21A 1_555 1_555
C22A C19A 1_555 1_555
C23A C24 1_555 1_555
H17A C23A 1_555 1_555
C24A C23 1_555 1_555
H18A C24A 1_555 1_555
C25A H19A 1_555 1_555
C26A C27 1_555 1_555
H20A C26A 1_555 1_555
C27A C26 1_555 1_555
C28A C27A 1_555 1_555
C29A C28A 1_555 1_555
H21A C29A 1_555 1_555
C30A C29A 1_555 1_555
H22A C30A 1_555 1_555
C31A H23A 1_555 1_555
C32A C28A 1_555 1_555
H24A C32A 1_555 1_555
C33_2 H25_2 1_555 1_555
C34_2 C33_2 1_555 1_555
H26_2 C34_2 1_555 1_555
C35_2 C34_2 1_555 1_555
C36_2 C35_2 1_555 1_555
H27_2 C36_2 1_555 1_555
C37_2 C36_2 1_555 1_555
H28_2 C37_2 1_555 1_555
C38_2 C35_2 1_555 1_555
C39_2 C38_2 1_555 1_555
H29_2 C39_2 1_555 1_555
C40_2 C39_2 1_555 1_555
H30_2 C40_2 1_555 1_555
C41_2 C40_2 1_555 1_555
C42_2 C41_2 1_555 1_555
H31_2 C42_2 1_555 1_555
C43_2 C38_2 1_555 1_555
H32_2 C43_2 1_555 1_555
C44_2 C41_2 1_555 1_555
C45_2 C44_2 1_555 1_555
H33_2 C45_2 1_555 1_555
C46_2 C45_2 1_555 1_555
H34_2 C46_2 1_555 1_555
C47_2 H35_2 1_555 1_555
C48_2 C44_2 1_555 1_555
H36_2 C48_2 1_555 1_555
C49A C50A 1_555 1_555
C50A C51A 1_555 1_555
C51A H37A 1_555 1_555
C52A C51A 1_555 1_555
H38A C52A 1_555 1_555
C53A C52A 1_555 1_555
C54A C53A 1_555 1_555
H39A C54A 1_555 1_555
C55A C50A 1_555 1_555
H40A C55A 1_555 1_555
C56A C57A 1_555 1_555
C57A H41A 1_555 1_555
C58A C57A 1_555 1_555
H42A C58A 1_555 1_555
C59A C58A 1_555 1_555
C60A C59A 1_555 1_555
H43A C60A 1_555 1_555
C61A C56A 1_555 1_555
H44A C61A 1_555 1_555
C62A C59A 1_555 1_555
C63_2 C64_2 1_555 1_555
C64_2 C65_2 1_555 1_555
C65_2 H45_2 1_555 1_555
C66_2 C65_2 1_555 1_555
H46_2 C66_2 1_555 1_555
C67_2 C66_2 1_555 1_555
C68_2 C67_2 1_555 1_555
H47_2 C68_2 1_555 1_555
C69_2 C64_2 1_555 1_555
H48_2 C69_2 1_555 1_555
C70_2 C71_2 1_555 1_555
C71_2 H49_2 1_555 1_555
C72_2 C71_2 1_555 1_555
H50_2 C72_2 1_555 1_555
C73_2 C72_2 1_555 1_555
C74_2 C73_2 1_555 1_555
H51_2 C74_2 1_555 1_555
C75_2 C70_2 1_555 1_555
H52_2 C75_2 1_555 1_555
C76_2 C73_2 1_555 1_555
N1_2 C1_2 1_555 1_555
N1A Ni1A 1_555 1_555
N2_2 Ni1 1_555 1_555
N2A Ni1A 1_555 1_555
N3A C17A 1_555 1_555
N4A C30A 1_555 1_555
N4_2 Ni2_2 1_555 1_555
N5_2 C33_2 1_555 1_555
N6_2 Ni2 1_555 1_555
N6_3 Ni2_2 1_555 1_555
Ni1A N3A 1_555 1_555
Ni1_2 N2 1_555 1_555
Ni1_3 N1_2 1_555 1_555
Ni2_2 N5_2 1_555 1_555
Ni2_3 N6 1_555 1_555
Ni2A N4A 1_555 1_555
O1A C49A 1_555 1_555
O2A C49A 1_555 1_555
O3A C62A 1_555 1_555
O4A C62A 1_555 1_555
O5A S1A 1_555 1_555
O6A S1A 1_555 1_555
O7_2 C63_2 1_555 1_555
O8_2 C63_2 1_555 1_555
O9_2 C76_2 1_555 1_555
O10_2 C76_2 1_555 1_555
O11_2 S2_2 1_555 1_555
O12_2 S2_2 1_555 1_555
O13A Ni1A 1_555 1_555
H53A O13A 1_555 1_555
H54A O13A 1_555 1_555
O14A Ni1A 1_555 1_555
H55A O14A 1_555 1_555
H56A O14A 1_555 1_555
O15_2 Ni2_2 1_555 1_555
H57_2 O15_2 1_555 1_555
H58_2 O15_2 1_555 1_555
S1A C53A 1_555 1_555
S2_2 C67_2 1_555 1_555
C5 N1 1_555 1_555
C10 C11 1_555 1_555
C15 C16 1_555 1_555
C15 N2 1_555 1_555
C21 N3 1_555 1_555
C31 C32 1_555 1_555
C31 N4 1_555 1_555
C37 N5 1_555 1_555
C42 C43 1_555 1_555
C47 C48 1_555 1_555
C47 N6 1_555 1_555
C54 C55 1_555 1_555
C56 S1 1_555 1_555
C60 C61 1_555 1_555
C68 C69 1_555 1_555
C70 S2 1_555 1_555
C74 C75 1_555 1_555
N3 Ni1 1_555 1_555
N5 Ni2 1_555 1_555
Ni1 O1 1_555 1_555
Ni2 O7 1_555 1_555
Ni2 O8 1_555 1_555
C5_2 N1_2 1_555 1_555
C10_2 C11_2 1_555 1_555
C14_2 N2_2 1_555 1_555
C15_2 C16_2 1_555 1_555
C15_2 N2_2 1_555 1_555
C21A N3A 1_555 1_555
C22A C23A 1_555 1_555
C22A C24A 1_555 1_555
C25A C26A 1_555 1_555
C25A C27A 1_555 1_555
C31A C32A 1_555 1_555
C31A N4A 1_555 1_555
C37_2 N5_2 1_555 1_555
C42_2 C43_2 1_555 1_555
C46_2 N6_2 1_555 1_555
C47_2 C48_2 1_555 1_555
C47_2 N6_2 1_555 1_555
C54A C55A 1_555 1_555
C56A S1A 1_555 1_555
C60A C61A 1_555 1_555
C68_2 C69_2 1_555 1_555
C70_2 S2_2 1_555 1_555
C74_2 C75_2 1_555 1_555
Ni1A O1A 1_555 1_555
Ni2_2 O7_2 1_555 1_555
Ni2_2 O8_2 1_555 1_555

#END
