
#######################################################################
#
#                 Cambridge Crystallographic Data Centre
#                                CCDC 
#
#######################################################################
#
# If this CIF has been generated from an entry in the Cambridge 
# Structural Database, then it will include bibliographic, chemical, 
# crystal, experimental, refinement or atomic coordinate data resulting 
# from the CCDC's data processing and validation procedures.
#
#######################################################################

data_YASPUF
_symmetry_cell_setting           monoclinic
_symmetry_space_group_name_H-M   'C 2/c'
_symmetry_Int_Tables_number      15
_space_group_name_Hall           '-C 2yn'
loop_
_symmetry_equiv_pos_site_id
_symmetry_equiv_pos_as_xyz
1 x,y,z
2 -x,y,1/2-z
3 1/2+x,1/2+y,z
4 1/2-x,1/2+y,1/2-z
5 -x,-y,-z
6 x,-y,1/2+z
7 1/2-x,1/2-y,-z
8 1/2+x,1/2-y,1/2+z
_cell_length_a                   25.142(11)
_cell_length_b                   10.672(5)
_cell_length_c                   16.359(7)
_cell_angle_alpha                90
_cell_angle_beta                 121.642(5)
_cell_angle_gamma                90
_cell_volume                     3736.86
loop_
_atom_site_label
_atom_site_type_symbol
_atom_site_fract_x
_atom_site_fract_y
_atom_site_fract_z
Co1 Co 0.206171(19) 0.17020(4) 0.36324(3)
O1 O 0.15224(14) -0.0059(3) 0.2657(2)
O2 O 0.15753(13) 0.1763(3) 0.21381(18)
O3 O 0.25667(12) -0.1556(2) 0.11615(19)
O4 O 0.23034(11) -0.0634(2) -0.02163(17)
N1 N 0.12633(12) 0.2354(3) 0.36735(19)
N2 N -0.21309(12) 0.6025(3) 0.3641(2)
C1 C 0.10878(16) 0.0962(3) 0.0238(2)
C2 C 0.16312(15) 0.1147(3) 0.0221(2)
C3 C 0.1599(2) 0.1871(4) -0.0500(3)
H1 H 0.1960 0.1993 -0.0517
C4 C 0.1050(2) 0.2419(5) -0.1196(3)
H2 H 0.1040 0.2903 -0.1677
C5 C 0.0520(2) 0.2243(5) -0.1174(3)
H3 H 0.0147 0.2612 -0.1640
C6 C 0.05366(18) 0.1524(4) -0.0466(3)
H4 H 0.0173 0.1411 -0.0457
C7 C 0.10809(18) 0.0140(4) 0.0981(3)
H5 H 0.1267 -0.0659 0.0988
H6 H 0.0649 -0.0018 0.0780
C8 C 0.14137(16) 0.0643(4) 0.1991(3)
C9 C 0.22403(16) 0.0550(3) 0.0949(2)
H7 H 0.2234 0.0374 0.1526
H8 H 0.2576 0.1139 0.1118
C10 C 0.23763(14) -0.0660(3) 0.0598(2)
C11 C 0.08652(16) 0.1551(3) 0.3682(3)
H9 H 0.0933 0.0699 0.3658
C12 C 0.03510(17) 0.1919(4) 0.3723(3)
H10 H 0.0082 0.1318 0.3719
C13 C 0.02373(15) 0.3172(3) 0.3772(3)
C14 C 0.06618(16) 0.4000(4) 0.3775(3)
H11 H 0.0611 0.4857 0.3812
C15 C 0.11520(16) 0.3570(4) 0.3724(3)
H12 H 0.1427 0.4154 0.3725
C16 C -0.03156(15) 0.3574(4) 0.3781(3)
H13 H -0.0562 0.2950 0.3813
C17 C -0.04939(17) 0.4733(4) 0.3749(3)
H14 H -0.0234 0.5352 0.3747
C18 C -0.19423(16) 0.4840(3) 0.3858(3)
H15 H -0.2177 0.4300 0.3992
C19 C -0.14257(17) 0.4368(3) 0.3894(3)
H16 H -0.1320 0.3527 0.4037
C20 C -0.10595(15) 0.5163(3) 0.3716(3)
C21 C -0.12573(17) 0.6381(4) 0.3483(3)
H17 H -0.1028 0.6945 0.3354
C22 C -0.17925(17) 0.6773(3) 0.3440(3)
H18 H -0.1923 0.7596 0.3263
Co1C Co 0.293829(19) -0.32980(4) 0.13676(3)
Co1E Co 0.206171(19) -0.17020(4) -0.13676(3)
Co1B Co -0.293829(19) 0.67020(4) 0.36324(3)
O3C O 0.24333(12) 0.3444(2) 0.38385(19)
O4E O 0.23034(11) 0.0634(2) 0.47837(17)
N2B N 0.28691(12) 0.1025(3) 0.3641(2)
loop_
_geom_bond_atom_site_label_1
_geom_bond_atom_site_label_2
_geom_bond_site_symmetry_1
_geom_bond_site_symmetry_2
Co1 O1 1_555 1_555
O1 C8 1_555 1_555
O2 Co1 1_555 1_555
O3 C10 1_555 1_555
O4 C10 1_555 1_555
N1 Co1 1_555 1_555
N2 C18 1_555 1_555
C1 C2 1_555 1_555
C2 C3 1_555 1_555
C3 H1 1_555 1_555
C4 C3 1_555 1_555
H2 C4 1_555 1_555
C5 C4 1_555 1_555
H3 C5 1_555 1_555
C6 C1 1_555 1_555
H4 C6 1_555 1_555
C7 C1 1_555 1_555
H5 C7 1_555 1_555
H6 C7 1_555 1_555
C8 O2 1_555 1_555
C9 C2 1_555 1_555
H7 C9 1_555 1_555
H8 C9 1_555 1_555
C10 C9 1_555 1_555
C11 N1 1_555 1_555
H9 C11 1_555 1_555
C12 C11 1_555 1_555
H10 C12 1_555 1_555
C13 C12 1_555 1_555
C14 C13 1_555 1_555
H11 C14 1_555 1_555
C15 N1 1_555 1_555
H12 C15 1_555 1_555
C16 C13 1_555 1_555
H13 C16 1_555 1_555
C17 C16 1_555 1_555
H14 C17 1_555 1_555
C18 H15 1_555 1_555
C19 C18 1_555 1_555
H16 C19 1_555 1_555
C20 C17 1_555 1_555
C21 C20 1_555 1_555
H17 C21 1_555 1_555
C22 N2 1_555 1_555
H18 C22 1_555 1_555
Co1C O3 1_555 1_555
Co1E O4 1_555 1_555
Co1B N2 1_555 1_555
O3C Co1 1_555 1_555
O4E Co1 1_555 1_555
N2B Co1 1_555 1_555
C5 C6 1_555 1_555
C7 C8 1_555 1_555
C14 C15 1_555 1_555
C19 C20 1_555 1_555
C21 C22 1_555 1_555

#END
