
#######################################################################
#
#                 Cambridge Crystallographic Data Centre
#                                CCDC 
#
#######################################################################
#
# If this CIF has been generated from an entry in the Cambridge 
# Structural Database, then it will include bibliographic, chemical, 
# crystal, experimental, refinement or atomic coordinate data resulting 
# from the CCDC's data processing and validation procedures.
#
#######################################################################

data_YASPOZ
_symmetry_cell_setting           monoclinic
_symmetry_space_group_name_H-M   'P 21/n'
_symmetry_Int_Tables_number      14
_space_group_name_Hall           '-P 2yn'
loop_
_symmetry_equiv_pos_site_id
_symmetry_equiv_pos_as_xyz
1 x,y,z
2 1/2-x,1/2+y,1/2-z
3 -x,-y,-z
4 1/2+x,1/2-y,1/2+z
_cell_length_a                   8.6406(7)
_cell_length_b                   17.6956(15)
_cell_length_c                   13.3812(11)
_cell_angle_alpha                90
_cell_angle_beta                 106.3610(10)
_cell_angle_gamma                90
_cell_volume                     1963.14
loop_
_atom_site_label
_atom_site_type_symbol
_atom_site_fract_x
_atom_site_fract_y
_atom_site_fract_z
Co1 Co 0.83747(3) 0.124518(13) 0.508946(17)
N1 N 1.00939(18) 0.11668(8) 0.66297(11)
N2 N 1.67398(17) 0.11920(8) 1.35459(11)
O1 O 0.60816(19) 0.09158(8) 0.65975(12)
O2 O 0.66531(14) 0.18165(7) 0.55911(9)
O3 O -0.01450(14) 0.21516(7) 0.47521(10)
O4 O 0.04297(15) 0.09892(7) 0.44402(10)
O5 O 0.75115(15) 0.01804(7) 0.53884(10)
H1 H 0.8243 -0.0153 0.5578
H2 H 0.7016 0.0333 0.5816
C1 C 0.5855(2) 0.15423(11) 0.61692(13)
C2 C 0.4522(2) 0.20303(12) 0.63912(15)
H3 H 0.3575 0.1715 0.6304
H4 H 0.4875 0.2181 0.7117
C3 C 0.4015(2) 0.27330(11) 0.57455(14)
C4 C 0.4527(2) 0.34417(13) 0.61586(18)
H5 H 0.5216 0.3474 0.6831
C5 C 0.4044(3) 0.40981(13) 0.5600(2)
H6 H 0.4395 0.4565 0.5897
C6 C 0.3049(3) 0.40558(14) 0.4612(2)
H7 H 0.2726 0.4495 0.4227
C7 C 0.2522(2) 0.33622(13) 0.41824(17)
H8 H 0.1848 0.3340 0.3505
C8 C 0.2968(2) 0.26944(11) 0.47337(14)
C9 C 0.2306(2) 0.19484(12) 0.42565(15)
H9 H 0.3129 0.1565 0.4496
H10 H 0.2087 0.1987 0.3506
C10 C 0.0775(2) 0.16869(10) 0.45023(13)
C11 C 1.0056(2) 0.16338(12) 0.74063(14)
H11 H 0.9243 0.1995 0.7283
C12 C 1.1155(2) 0.16112(12) 0.83826(14)
H12 H 1.1066 0.1950 0.8895
C13 C 1.2390(2) 0.10839(10) 0.85977(13)
C14 C 1.2414(2) 0.05912(11) 0.77983(14)
H13 H 1.3205 0.0220 0.7904
C15 C 1.1270(2) 0.06486(11) 0.68453(14)
H14 H 1.1319 0.0309 0.6325
C16 C 1.3677(2) 0.10411(12) 0.96263(14)
H15 H 1.4566 0.1366 0.9594
H16 H 1.4084 0.0527 0.9727
C17 C 1.3122(2) 0.12677(11) 1.05645(13)
H17 H 1.2728 0.1783 1.0469
H18 H 1.2227 0.0946 1.0594
C18 C 1.4409(2) 0.12153(10) 1.15895(13)
C19 C 1.5868(2) 0.15929(12) 1.17651(14)
H19 H 1.6103 0.1861 1.1228
C20 C 1.6970(2) 0.15702(12) 1.27348(14)
H20 H 1.7932 0.1834 1.2831
C21 C 1.5350(2) 0.08110(11) 1.33709(14)
H21 H 1.5161 0.0534 1.3916
C22 C 1.4182(2) 0.08082(11) 1.24226(14)
H22 H 1.3239 0.0532 1.2342
Co1_2 Co -0.16253(3) 0.124518(13) 0.508946(17)
Co1_3 Co 1.83747(3) 0.124518(13) 1.508946(17)
N2_2 N 0.67398(17) 0.11920(8) 0.35459(11)
O3_2 O 0.98550(14) 0.21516(7) 0.47521(10)
O4_2 O 1.04297(15) 0.09892(7) 0.44402(10)
loop_
_geom_bond_atom_site_label_1
_geom_bond_atom_site_label_2
_geom_bond_site_symmetry_1
_geom_bond_site_symmetry_2
Co1 N1 1_555 1_555
N1 C11 1_555 1_555
N2 C20 1_555 1_555
O1 C1 1_555 1_555
O2 Co1 1_555 1_555
O3 C10 1_555 1_555
O4 C10 1_555 1_555
O5 Co1 1_555 1_555
H1 O5 1_555 1_555
H2 O5 1_555 1_555
C1 O2 1_555 1_555
C2 C1 1_555 1_555
H3 C2 1_555 1_555
H4 C2 1_555 1_555
C3 C2 1_555 1_555
C4 C3 1_555 1_555
H5 C4 1_555 1_555
C5 C4 1_555 1_555
H6 C5 1_555 1_555
C6 C5 1_555 1_555
H7 C6 1_555 1_555
C7 C6 1_555 1_555
H8 C7 1_555 1_555
C8 C3 1_555 1_555
C9 C8 1_555 1_555
H9 C9 1_555 1_555
H10 C9 1_555 1_555
C10 C9 1_555 1_555
C11 H11 1_555 1_555
C12 C11 1_555 1_555
H12 C12 1_555 1_555
C13 C12 1_555 1_555
C14 C13 1_555 1_555
H13 C14 1_555 1_555
C15 N1 1_555 1_555
H14 C15 1_555 1_555
C16 C13 1_555 1_555
H15 C16 1_555 1_555
H16 C16 1_555 1_555
C17 C16 1_555 1_555
H17 C17 1_555 1_555
H18 C17 1_555 1_555
C18 C17 1_555 1_555
C19 C18 1_555 1_555
H19 C19 1_555 1_555
C20 C19 1_555 1_555
H20 C20 1_555 1_555
C21 N2 1_555 1_555
H21 C21 1_555 1_555
C22 C18 1_555 1_555
H22 C22 1_555 1_555
Co1_2 O3 1_555 1_555
Co1_3 N2 1_555 1_555
N2_2 Co1 1_555 1_555
O3_2 Co1 1_555 1_555
O4_2 Co1 1_555 1_555
O4 Co1_2 1_555 1_555
C7 C8 1_555 1_555
C14 C15 1_555 1_555
C21 C22 1_555 1_555

#END
