
#######################################################################
#
#                 Cambridge Crystallographic Data Centre
#                                CCDC 
#
#######################################################################
#
# If this CIF has been generated from an entry in the Cambridge 
# Structural Database, then it will include bibliographic, chemical, 
# crystal, experimental, refinement or atomic coordinate data resulting 
# from the CCDC's data processing and validation procedures.
#
#######################################################################

data_YASPIT
_symmetry_cell_setting           monoclinic
_symmetry_space_group_name_H-M   'P c'
_symmetry_Int_Tables_number      7
_space_group_name_Hall           'P -2yc'
loop_
_symmetry_equiv_pos_site_id
_symmetry_equiv_pos_as_xyz
1 x,y,z
2 x,-y,1/2+z
_cell_length_a                   14.2155(12)
_cell_length_b                   11.8409(10)
_cell_length_c                   12.0213(10)
_cell_angle_alpha                90
_cell_angle_beta                 94.9980(10)
_cell_angle_gamma                90
_cell_volume                     2015.78
loop_
_atom_site_label
_atom_site_type_symbol
_atom_site_fract_x
_atom_site_fract_y
_atom_site_fract_z
Zn1 Zn -0.41486(2) 0.26523(3) -0.20076(2)
Zn2 Zn 0.11750(2) -0.26925(3) 0.61309(2)
N1 N -0.3314(2) 0.1675(3) -0.0928(3)
N2 N 0.0306(2) -0.1728(3) 0.5043(3)
N3 N 0.1943(2) -0.3476(3) 0.4992(2)
N4 N 0.5294(2) -0.6415(3) -0.0730(3)
O1 O -0.36691(18) 0.3933(2) -0.2744(2)
O2 O -0.2394(2) 0.2963(3) -0.3044(3)
O3 O -0.0088(2) 0.5621(3) -0.4161(3)
O4 O 0.0663(2) 0.6427(3) -0.2718(3)
O5 O 0.1823(2) -0.1410(2) 0.6819(3)
O6 O 0.3097(2) -0.2119(2) 0.7718(3)
O7 O 0.4749(2) 0.1690(2) 0.7554(2)
O8 O 0.5289(3) 0.1769(3) 0.5919(3)
C1 C -0.2844(3) 0.3836(3) -0.3090(3)
C2 C -0.2452(3) 0.4929(4) -0.3540(3)
H3 H -0.1894 0.4764 -0.3922
H4 H -0.2919 0.5269 -0.4073
C3 C -0.2203(2) 0.5734(3) -0.2602(3)
C4 C -0.2905(3) 0.6458(4) -0.2253(4)
H5 H -0.3499 0.6458 -0.2642
C5 C -0.2737(5) 0.7157(4) -0.1364(6)
H6 H -0.3216 0.7623 -0.1151
C6 C -0.1864(4) 0.7179(5) -0.0778(5)
H7 H -0.1752 0.7647 -0.0160
C7 C -0.1175(4) 0.6517(4) -0.1106(4)
H8 H -0.0581 0.6556 -0.0718
C8 C -0.1310(3) 0.5769(3) -0.2012(3)
C9 C -0.0501(3) 0.5080(4) -0.2336(4)
H9 H -0.0735 0.4385 -0.2686
H10 H -0.0093 0.4885 -0.1675
C10 C 0.0062(3) 0.5738(4) -0.3147(4)
C11 C 0.2566(3) -0.1335(3) 0.7446(3)
C12 C 0.2771(3) -0.0153(3) 0.7935(3)
H11 H 0.2461 -0.0070 0.8618
H12 H 0.3445 -0.0070 0.8120
C13 C 0.2427(2) 0.0772(3) 0.7116(2)
C14 C 0.1543(2) 0.1250(3) 0.7201(3)
H13 H 0.1193 0.1033 0.7784
C15 C 0.1173(3) 0.2038(3) 0.6441(3)
H14 H 0.0583 0.2355 0.6513
C16 C 0.1688(3) 0.2351(3) 0.5575(4)
H15 H 0.1441 0.2870 0.5047
C17 C 0.2574(3) 0.1892(3) 0.5489(3)
H16 H 0.2923 0.2119 0.4908
C18 C 0.2953(2) 0.1100(3) 0.6253(3)
C19 C 0.3927(3) 0.0632(3) 0.6115(3)
H17 H 0.3982 0.0488 0.5329
H18 H 0.3997 -0.0085 0.6504
C20 C 0.4722(3) 0.1409(3) 0.6551(4)
C21 C -0.3487(3) 0.0594(3) -0.0738(3)
H19 H -0.3941 0.0223 -0.1209
C22 C -0.3024(3) -0.0002(3) 0.0126(3)
H20 H -0.3160 -0.0763 0.0218
C23 C -0.2359(3) 0.0521(4) 0.0858(3)
C24 C -0.2181(3) 0.1653(4) 0.0659(3)
H21 H -0.1735 0.2044 0.1123
C25 C -0.2662(3) 0.2190(3) -0.0219(4)
H22 H -0.2533 0.2949 -0.0336
C26 C -0.1854(3) -0.0134(4) 0.1759(3)
H23 H -0.1997 -0.0899 0.1791
C27 C -0.1220(3) 0.0253(4) 0.2522(4)
H24 H -0.1082 0.1020 0.2509
C28 C -0.0710(3) -0.0439(3) 0.3400(3)
C29 C -0.0767(3) -0.1619(3) 0.3407(3)
H25 H -0.1148 -0.1996 0.2858
C30 C -0.0257(3) -0.2212(3) 0.4231(4)
H26 H -0.0305 -0.2995 0.4225
C31 C 0.0355(3) -0.0580(4) 0.5040(3)
H27 H 0.0733 -0.0221 0.5604
C32 C -0.0130(3) 0.0063(4) 0.4238(3)
H28 H -0.0068 0.0845 0.4257
C33 C 0.2462(3) -0.2874(3) 0.4350(3)
H29 H 0.2517 -0.2101 0.4479
C34 C 0.2923(3) -0.3339(3) 0.3501(3)
H30 H 0.3277 -0.2880 0.3068
C35 C 0.2864(2) -0.4478(3) 0.3288(3)
C36 C 0.2316(3) -0.5100(3) 0.3962(3)
H31 H 0.2248 -0.5874 0.3849
C37 C 0.1876(3) -0.4590(3) 0.4791(4)
H32 H 0.1515 -0.5030 0.5234
C38 C 0.3357(2) -0.5066(3) 0.2432(3)
H33 H 0.3263 -0.5842 0.2371
C39 C 0.3921(3) -0.4606(3) 0.1740(3)
H34 H 0.4005 -0.3828 0.1773
C40 C 0.4422(2) -0.5237(3) 0.0924(3)
C41 C 0.4481(3) -0.6415(3) 0.0929(3)
H35 H 0.4226 -0.6826 0.1489
C42 C 0.4909(3) -0.6961(3) 0.0119(3)
H36 H 0.4942 -0.7745 0.0144
C43 C 0.5276(3) -0.5289(3) -0.0705(3)
H37 H 0.5566 -0.4893 -0.1250
C44 C 0.4849(3) -0.4688(3) 0.0088(3)
H38 H 0.4846 -0.3903 0.0062
Zn1_2 Zn 0.58514(2) -0.73477(3) -0.20076(2)
Zn1_3 Zn 0.58514(2) 0.26523(3) 0.79924(2)
Zn2_2 Zn 0.11750(2) 0.73075(3) -0.38691(2)
N4_2 N -0.4706(2) 0.3585(3) -0.0730(3)
O4_2 O 0.0663(2) -0.3573(3) 0.7282(3)
O7_2 O -0.5251(2) 0.1690(2) -0.2446(2)
O9 O 0.4985(3) 0.8287(4) 0.8557(4)
H1 H 0.5175 0.8403 0.9238
H2 H 0.4404 0.8106 0.8508
loop_
_geom_bond_atom_site_label_1
_geom_bond_atom_site_label_2
_geom_bond_site_symmetry_1
_geom_bond_site_symmetry_2
Zn1 N1 1_555 1_555
Zn2 N2 1_555 1_555
N1 C21 1_555 1_555
N2 C30 1_555 1_555
N3 Zn2 1_555 1_555
N4 C42 1_555 1_555
O1 Zn1 1_555 1_555
O2 C1 1_555 1_555
O3 C10 1_555 1_555
O4 C10 1_555 1_555
O5 Zn2 1_555 1_555
O6 C11 1_555 1_555
O7 C20 1_555 1_555
O8 C20 1_555 1_555
O9 H1 1_555 1_555
H2 O9 1_555 1_555
C1 O1 1_555 1_555
C2 C1 1_555 1_555
H3 C2 1_555 1_555
H4 C2 1_555 1_555
C3 C2 1_555 1_555
C4 C3 1_555 1_555
H5 C4 1_555 1_555
C5 C4 1_555 1_555
H6 C5 1_555 1_555
C6 C5 1_555 1_555
H7 C6 1_555 1_555
C7 C6 1_555 1_555
H8 C7 1_555 1_555
C8 C3 1_555 1_555
C9 C8 1_555 1_555
H9 C9 1_555 1_555
H10 C9 1_555 1_555
C10 C9 1_555 1_555
C11 O5 1_555 1_555
C12 C11 1_555 1_555
H11 C12 1_555 1_555
H12 C12 1_555 1_555
C13 C12 1_555 1_555
C14 C13 1_555 1_555
H13 C14 1_555 1_555
C15 C14 1_555 1_555
H14 C15 1_555 1_555
C16 C15 1_555 1_555
H15 C16 1_555 1_555
C17 C16 1_555 1_555
H16 C17 1_555 1_555
C18 C13 1_555 1_555
C19 C18 1_555 1_555
H17 C19 1_555 1_555
H18 C19 1_555 1_555
C20 C19 1_555 1_555
C21 H19 1_555 1_555
C22 C21 1_555 1_555
H20 C22 1_555 1_555
C23 C22 1_555 1_555
C24 C23 1_555 1_555
H21 C24 1_555 1_555
C25 N1 1_555 1_555
H22 C25 1_555 1_555
C26 C23 1_555 1_555
H23 C26 1_555 1_555
C27 C26 1_555 1_555
H24 C27 1_555 1_555
C28 C27 1_555 1_555
C29 C28 1_555 1_555
H25 C29 1_555 1_555
C30 C29 1_555 1_555
H26 C30 1_555 1_555
C31 N2 1_555 1_555
H27 C31 1_555 1_555
C32 C28 1_555 1_555
H28 C32 1_555 1_555
C33 N3 1_555 1_555
H29 C33 1_555 1_555
C34 C33 1_555 1_555
H30 C34 1_555 1_555
C35 C34 1_555 1_555
C36 C35 1_555 1_555
H31 C36 1_555 1_555
C37 N3 1_555 1_555
H32 C37 1_555 1_555
C38 C35 1_555 1_555
H33 C38 1_555 1_555
C39 C38 1_555 1_555
H34 C39 1_555 1_555
C40 C39 1_555 1_555
C41 C40 1_555 1_555
H35 C41 1_555 1_555
C42 C41 1_555 1_555
H36 C42 1_555 1_555
C43 N4 1_555 1_555
H37 C43 1_555 1_555
C44 C40 1_555 1_555
H38 C44 1_555 1_555
Zn1_2 N4 1_555 1_555
Zn1_3 O7 1_555 1_555
Zn2_2 O4 1_555 1_555
N4_2 Zn1 1_555 1_555
O4_2 Zn2 1_555 1_555
O7_2 Zn1 1_555 1_555
C7 C8 1_555 1_555
C17 C18 1_555 1_555
C24 C25 1_555 1_555
C31 C32 1_555 1_555
C36 C37 1_555 1_555
C43 C44 1_555 1_555

#END
