
#######################################################################
#
#                 Cambridge Crystallographic Data Centre
#                                CCDC 
#
#######################################################################
#
# If this CIF has been generated from an entry in the Cambridge 
# Structural Database, then it will include bibliographic, chemical, 
# crystal, experimental, refinement or atomic coordinate data resulting 
# from the CCDC's data processing and validation procedures.
#
#######################################################################

data_YASQAM
_symmetry_cell_setting           monoclinic
_symmetry_space_group_name_H-M   'C 2/c'
_symmetry_Int_Tables_number      15
_space_group_name_Hall           '-C 2yn'
loop_
_symmetry_equiv_pos_site_id
_symmetry_equiv_pos_as_xyz
1 x,y,z
2 -x,y,1/2-z
3 1/2+x,1/2+y,z
4 1/2-x,1/2+y,1/2-z
5 -x,-y,-z
6 x,-y,1/2+z
7 1/2-x,1/2-y,-z
8 1/2+x,1/2-y,1/2+z
_cell_length_a                   13.3501(19)
_cell_length_b                   18.330(3)
_cell_length_c                   8.5877(12)
_cell_angle_alpha                90
_cell_angle_beta                 104.481(2)
_cell_angle_gamma                90
_cell_volume                     2034.71
loop_
_atom_site_label
_atom_site_type_symbol
_atom_site_fract_x
_atom_site_fract_y
_atom_site_fract_z
Mn1 Mn 0.5000 0.61416(2) 0.7500
N1 N 0.33816(12) 0.61074(9) 0.57716(19)
O1 O 0.43836(12) 0.59622(8) 0.99255(18)
O2 O 0.45074(12) 0.70438(8) 0.89470(17)
O3 O 0.5000 0.49469(11) 0.7500
H1 H 0.4923 0.4750 0.8359
C1 C 0.43102(14) 0.66416(11) 1.0002(2)
C2 C 0.39593(16) 0.69847(12) 1.1388(2)
H2 H 0.3221 0.7075 1.1046
H3 H 0.4078 0.6640 1.2273
C3 C 0.45033(15) 0.76904(11) 1.1982(2)
C4 C 0.40309(19) 0.83561(13) 1.1498(3)
H4 H 0.3369 0.8361 1.0816
C5 C 0.4514(2) 0.90066(13) 1.2000(3)
H5 H 0.4181 0.9445 1.1659
C6 C 0.26393(16) 0.65793(12) 0.5847(3)
H6 H 0.2765 0.6909 0.6697
C7 C 0.16908(16) 0.66083(13) 0.4736(3)
H7 H 0.1196 0.6946 0.4856
C8 C 0.14807(14) 0.61331(11) 0.3443(2)
C9 C 0.22503(15) 0.56449(12) 0.3362(3)
H8 H 0.2148 0.5313 0.2517
C10 C 0.31743(16) 0.56458(12) 0.4531(3)
H9 H 0.3677 0.5307 0.4449
C11 C 0.04705(14) 0.61543(13) 0.2164(3)
H10 H 0.0458 0.6589 0.1514
H11 H 0.0437 0.5734 0.1465
Mn1_2 Mn -0.5000 0.61416(2) -0.2500
Mn1_3 Mn 0.5000 0.61416(2) 1.7500
N1A N -0.33816(12) 0.61074(9) -0.07716(19)
N1A_2 N 0.66184(12) 0.61074(9) 0.92284(19)
O1A O 0.56164(12) 0.59622(8) 1.50745(18)
O1A_2 O 0.56164(12) 0.59622(8) 0.50745(18)
O2A O 0.54926(12) 0.70438(8) 1.60530(17)
O2A_2 O 0.54926(12) 0.70438(8) 0.60530(17)
H1A H 0.5077 0.4750 0.6641
C1A C 0.56898(14) 0.66416(11) 1.4998(2)
C2A C 0.60407(16) 0.69847(12) 1.3612(2)
H2A H 0.6779 0.7075 1.3954
H3A H 0.5922 0.6640 1.2727
C3A C 0.54967(15) 0.76904(11) 1.3018(2)
C4A C 0.59691(19) 0.83561(13) 1.3502(3)
H4A H 0.6631 0.8361 1.4184
C5A C 0.5486(2) 0.90066(13) 1.3000(3)
H5A H 0.5819 0.9445 1.3341
C6A C -0.26393(16) 0.65793(12) -0.0847(3)
H6A H -0.2765 0.6909 -0.1697
C7A C -0.16908(16) 0.66083(13) 0.0264(3)
H7A H -0.1196 0.6946 0.0144
C8A C -0.14807(14) 0.61331(11) 0.1557(2)
C9A C -0.22503(15) 0.56449(12) 0.1638(3)
H8A H -0.2148 0.5313 0.2483
C10A C -0.31743(16) 0.56458(12) 0.0469(3)
H9A H -0.3677 0.5307 0.0551
C11A C -0.04705(14) 0.61543(13) 0.2836(3)
H10A H -0.0458 0.6589 0.3486
H11A H -0.0437 0.5734 0.3535
loop_
_geom_bond_atom_site_label_1
_geom_bond_atom_site_label_2
_geom_bond_site_symmetry_1
_geom_bond_site_symmetry_2
Mn1 N1 1_555 1_555
N1 C6 1_555 1_555
O1 Mn1 1_555 1_555
O2 Mn1 1_555 1_555
O3 Mn1 1_555 1_555
H1 O3 1_555 1_555
C1 O1 1_555 1_555
C2 C1 1_555 1_555
H2 C2 1_555 1_555
H3 C2 1_555 1_555
C3 C2 1_555 1_555
C4 C3 1_555 1_555
H4 C4 1_555 1_555
C5 C4 1_555 1_555
H5 C5 1_555 1_555
C6 H6 1_555 1_555
C7 C6 1_555 1_555
H7 C7 1_555 1_555
C8 C7 1_555 1_555
C9 C8 1_555 1_555
H8 C9 1_555 1_555
C10 N1 1_555 1_555
H9 C10 1_555 1_555
C11 C8 1_555 1_555
H10 C11 1_555 1_555
H11 C11 1_555 1_555
Mn1_2 N1A 1_555 1_555
Mn1_3 O1A 1_555 1_555
N1A C6A 1_555 1_555
N1A_2 Mn1 1_555 1_555
O1A C1A 1_555 1_555
O1A_2 Mn1 1_555 1_555
O2A Mn1_3 1_555 1_555
O2A_2 Mn1 1_555 1_555
H1A O3 1_555 1_555
C1A O2A 1_555 1_555
C2A C1A 1_555 1_555
H2A C2A 1_555 1_555
H3A C2A 1_555 1_555
C3A C3 1_555 1_555
C4A C3A 1_555 1_555
H4A C4A 1_555 1_555
C5A C5 1_555 1_555
H5A C5A 1_555 1_555
C6A H6A 1_555 1_555
C7A C6A 1_555 1_555
H7A C7A 1_555 1_555
C8A C7A 1_555 1_555
C9A C8A 1_555 1_555
H8A C9A 1_555 1_555
C10A N1A 1_555 1_555
H9A C10A 1_555 1_555
C11A C11 1_555 1_555
H10A C11A 1_555 1_555
H11A C11A 1_555 1_555
O2 C1 1_555 1_555
C9 C10 1_555 1_555
C2A C3A 1_555 1_555
C4A C5A 1_555 1_555
C8A C11A 1_555 1_555
C9A C10A 1_555 1_555

#END
