
#######################################################################
#
#                 Cambridge Crystallographic Data Centre
#                                CCDC 
#
#######################################################################
#
# If this CIF has been generated from an entry in the Cambridge 
# Structural Database, then it will include bibliographic, chemical, 
# crystal, experimental, refinement or atomic coordinate data resulting 
# from the CCDC's data processing and validation procedures.
#
#######################################################################

data_YASQEQ
_symmetry_cell_setting           triclinic
_symmetry_space_group_name_H-M   'P -1'
_symmetry_Int_Tables_number      2
_space_group_name_Hall           '-P 1'
loop_
_symmetry_equiv_pos_site_id
_symmetry_equiv_pos_as_xyz
1 x,y,z
2 -x,-y,-z
_cell_length_a                   7.6663(10)
_cell_length_b                   8.2370(10)
_cell_length_c                   13.7367(17)
_cell_angle_alpha                79.7120(10)
_cell_angle_beta                 76.3090(10)
_cell_angle_gamma                63.4310(10)
_cell_volume                     751.142
loop_
_atom_site_label
_atom_site_type_symbol
_atom_site_fract_x
_atom_site_fract_y
_atom_site_fract_z
Mn1 Mn 0.26391(3) 0.66870(3) 0.928760(15)
N1 N 0.51818(18) 0.63249(17) 0.79594(9)
O1 O 0.12916(15) 0.96863(14) 0.88257(8)
O2 O 0.05527(16) 0.79635(14) 0.80995(9)
O3 O -0.40730(19) 1.29244(19) 0.96888(9)
O4 O -0.68962(15) 1.39487(14) 0.91415(9)
O5 O 0.01081(16) 0.70302(16) 1.04817(9)
H1 H -0.0696 0.6600 1.0575
H2 H -0.0371 0.8059 1.0668
C1 C -0.2282(2) 1.11087(19) 0.70890(11)
C2 C -0.4067(2) 1.10858(19) 0.76438(11)
C3 C -0.5469(2) 1.1169(2) 0.71299(13)
H3 H -0.6663 1.1178 0.7492
C4 C -0.5126(3) 1.1240(3) 0.60844(14)
H4 H -0.6088 1.1310 0.5754
C5 C -0.3352(3) 1.1206(3) 0.55442(13)
H5 H -0.3097 1.1225 0.4847
C6 C -0.1952(2) 1.1144(2) 0.60443(12)
H6 H -0.0759 1.1124 0.5674
C7 C -0.0778(2) 1.1197(2) 0.75887(11)
H7 H -0.1465 1.2187 0.8024
H8 H 0.0153 1.1510 0.7070
C8 C 0.0404(2) 0.9493(2) 0.82078(11)
C9 C -0.4487(2) 1.0932(2) 0.87878(11)
H9 H -0.5488 1.0468 0.9022
H10 H -0.3289 1.0054 0.9029
C10 C -0.5192(2) 1.2724(2) 0.92435(10)
C11 C 0.5023(2) 0.5936(2) 0.70820(12)
H11 H 0.3863 0.5869 0.7043
C12 C 0.6482(2) 0.5634(2) 0.62383(12)
H12 H 0.6293 0.5377 0.5649
C13 C 0.8254(2) 0.5715(2) 0.62722(11)
C14 C 0.8400(2) 0.6153(2) 0.71735(12)
H13 H 0.9532 0.6256 0.7229
C15 C 0.6863(2) 0.6435(2) 0.79866(12)
H14 H 0.7003 0.6715 0.8582
C16 C 0.9921(2) 0.5322(2) 0.54276(12)
H15 H 1.0973 0.5543 0.5495
Mn1A Mn 1.73609(3) 0.33130(3) 0.071240(15)
Mn1A_2 Mn -0.26391(3) 1.33130(3) 1.071240(15)
Mn1_2 Mn -0.73609(3) 1.66870(3) 0.928760(15)
Mn1A_3 Mn 0.73609(3) 0.33130(3) 1.071240(15)
N1A N 1.48182(18) 0.36751(17) 0.20406(9)
O1A O -0.12916(15) 1.03137(14) 1.11743(8)
O1A_2 O 1.87084(15) 0.03137(14) 0.11743(8)
O2A O -0.05527(16) 1.20365(14) 1.19005(9)
O2A_2 O 1.94473(16) 0.20365(14) 0.19005(9)
O3A O 0.40730(19) 0.70756(19) 1.03112(9)
O3_2 O 1.59270(19) 0.29244(19) -0.03112(9)
O4A O 0.68962(15) 0.60513(14) 1.08585(9)
O4_2 O 0.31038(15) 0.39487(14) 0.91415(9)
O4A_2 O 1.68962(15) 0.60513(14) 0.08585(9)
O5A O 1.98919(16) 0.29698(16) -0.04817(9)
H1A H 2.0696 0.3400 -0.0575
H2A H 2.0371 0.1941 -0.0668
C1A C 0.2282(2) 0.88913(19) 1.29110(11)
C2A C 0.4067(2) 0.89142(19) 1.23562(11)
C3A C 0.5469(2) 0.8831(2) 1.28701(13)
H3A H 0.6663 0.8822 1.2508
C4A C 0.5126(3) 0.8760(3) 1.39156(14)
H4A H 0.6088 0.8690 1.4246
C5A C 0.3352(3) 0.8794(3) 1.44558(13)
H5A H 0.3097 0.8775 1.5153
C6A C 0.1952(2) 0.8856(2) 1.39557(12)
H6A H 0.0759 0.8876 1.4326
C7A C 0.0778(2) 0.8803(2) 1.24113(11)
H7A H 0.1465 0.7813 1.1976
H8A H -0.0153 0.8490 1.2930
C8A C -0.0404(2) 1.0507(2) 1.17922(11)
C9A C 0.4487(2) 0.9068(2) 1.12122(11)
H9A H 0.5488 0.9532 1.0978
H10A H 0.3289 0.9946 1.0971
C10A C 0.5192(2) 0.7276(2) 1.07565(10)
C11A C 1.4977(2) 0.4064(2) 0.29180(12)
H11A H 1.6137 0.4131 0.2957
C12A C 1.3518(2) 0.4366(2) 0.37617(12)
H12A H 1.3707 0.4623 0.4351
C13A C 1.1746(2) 0.4285(2) 0.37278(11)
C14A C 1.1600(2) 0.3847(2) 0.28265(12)
H13A H 1.0468 0.3744 0.2771
C15A C 1.3137(2) 0.3565(2) 0.20134(12)
H14A H 1.2997 0.3285 0.1418
C16A C 1.0079(2) 0.4678(2) 0.45724(12)
H15A H 0.9027 0.4457 0.4505
loop_
_geom_bond_atom_site_label_1
_geom_bond_atom_site_label_2
_geom_bond_site_symmetry_1
_geom_bond_site_symmetry_2
Mn1 N1 1_555 1_555
N1 C11 1_555 1_555
O1 Mn1 1_555 1_555
O2 Mn1 1_555 1_555
O3 C10 1_555 1_555
O4 C10 1_555 1_555
O5 Mn1 1_555 1_555
H1 O5 1_555 1_555
H2 O5 1_555 1_555
C1 C2 1_555 1_555
C2 C3 1_555 1_555
C3 H3 1_555 1_555
C4 C3 1_555 1_555
H4 C4 1_555 1_555
C5 C4 1_555 1_555
H5 C5 1_555 1_555
C6 C1 1_555 1_555
H6 C6 1_555 1_555
C7 C1 1_555 1_555
H7 C7 1_555 1_555
H8 C7 1_555 1_555
C8 O1 1_555 1_555
C9 C2 1_555 1_555
H9 C9 1_555 1_555
H10 C9 1_555 1_555
C10 C9 1_555 1_555
C11 H11 1_555 1_555
C12 C11 1_555 1_555
H12 C12 1_555 1_555
C13 C12 1_555 1_555
C14 C13 1_555 1_555
H13 C14 1_555 1_555
C15 N1 1_555 1_555
H14 C15 1_555 1_555
C16 C13 1_555 1_555
H15 C16 1_555 1_555
Mn1A N1A 1_555 1_555
Mn1A_2 O3 1_555 1_555
Mn1_2 O4 1_555 1_555
Mn1A_3 O4A 1_555 1_555
N1A C11A 1_555 1_555
O1A Mn1A_2 1_555 1_555
O1A_2 Mn1A 1_555 1_555
O2A Mn1A_2 1_555 1_555
O2A_2 Mn1A 1_555 1_555
O3A Mn1 1_555 1_555
O3_2 Mn1A 1_555 1_555
O4A C10A 1_555 1_555
O4_2 Mn1 1_555 1_555
O4A_2 Mn1A 1_555 1_555
O5A Mn1A 1_555 1_555
H1A O5A 1_555 1_555
H2A O5A 1_555 1_555
C1A C2A 1_555 1_555
C2A C3A 1_555 1_555
C3A H3A 1_555 1_555
C4A C3A 1_555 1_555
H4A C4A 1_555 1_555
C5A C4A 1_555 1_555
H5A C5A 1_555 1_555
C6A C1A 1_555 1_555
H6A C6A 1_555 1_555
C7A C1A 1_555 1_555
H7A C7A 1_555 1_555
H8A C7A 1_555 1_555
C8A O1A 1_555 1_555
C9A C2A 1_555 1_555
H9A C9A 1_555 1_555
H10A C9A 1_555 1_555
C10A O3A 1_555 1_555
C11A H11A 1_555 1_555
C12A C11A 1_555 1_555
H12A C12A 1_555 1_555
C13A C12A 1_555 1_555
C14A C13A 1_555 1_555
H13A C14A 1_555 1_555
C15A N1A 1_555 1_555
H14A C15A 1_555 1_555
C16A C16 1_555 1_555
H15A C16A 1_555 1_555
O2 C8 1_555 1_555
C5 C6 1_555 1_555
C7 C8 1_555 1_555
C14 C15 1_555 1_555
O2A C8A 1_555 1_555
C5A C6A 1_555 1_555
C7A C8A 1_555 1_555
C9A C10A 1_555 1_555
C13A C16A 1_555 1_555
C14A C15A 1_555 1_555

#END
