
#######################################################################
#
#                 Cambridge Crystallographic Data Centre
#                                CCDC 
#
#######################################################################
#
# If this CIF has been generated from an entry in the Cambridge 
# Structural Database, then it will include bibliographic, chemical, 
# crystal, experimental, refinement or atomic coordinate data resulting 
# from the CCDC's data processing and validation procedures.
#
#######################################################################

data_YATHOR01
_symmetry_cell_setting           monoclinic
_symmetry_space_group_name_H-M   'P c'
_symmetry_Int_Tables_number      7
_space_group_name_Hall           'P -2yc'
loop_
_symmetry_equiv_pos_site_id
_symmetry_equiv_pos_as_xyz
1 x,y,z
2 x,-y,1/2+z
_cell_length_a                   12.043(3)
_cell_length_b                   9.9555(12)
_cell_length_c                   18.611(3)
_cell_angle_alpha                90
_cell_angle_beta                 102.008(12)
_cell_angle_gamma                90
_cell_volume                     2182.52
loop_
_atom_site_label
_atom_site_type_symbol
_atom_site_fract_x
_atom_site_fract_y
_atom_site_fract_z
Pr1 Pr 0.47540(3) 0.09307(3) 0.327335(19)
Pr2 Pr -0.02617(2) 0.23944(3) 0.321030(16)
O1 O 0.6516(6) 0.0171(7) 0.2878(3)
O2 O 0.2992(6) 0.0244(8) 0.3652(4)
O3 O 0.5232(6) -0.1094(6) 0.4046(3)
O4 O 0.4236(6) -0.1127(6) 0.2506(3)
O5 O 0.5667(7) 0.3038(7) 0.2920(3)
O6 O 0.3899(7) 0.2959(7) 0.3656(3)
O7 O -0.1217(7) 0.4417(6) 0.3581(4)
O8 O -0.0072(8) -0.0113(5) 0.3361(4)
O9 O 0.1127(6) 0.4321(7) 0.3485(3)
O10 O -0.0328(5) 0.3925(6) 0.2122(3)
C1 C 0.1840(7) 0.1624(7) 0.2160(3)
O17 O 0.1335(6) 0.1661(7) 0.2694(3)
N1 N 0.1262(6) 0.1661(7) 0.1442(3)
H1 H 0.0536 0.1693 0.1298
N2 N 0.2041(7) 0.1638(8) 0.0983(4)
C2 C 0.2978(8) 0.1593(9) 0.1465(4)
N3 N 0.2976(6) 0.1569(7) 0.2191(3)
N4 N 0.4049(7) 0.1496(9) 0.1225(4)
O18 O 0.4044(7) 0.1515(11) 0.0574(3)
O19 O 0.4902(6) 0.1351(8) 0.1721(3)
C3 C 0.7689(7) 0.1762(7) 0.4353(4)
O20 O 0.8167(5) 0.1712(6) 0.3813(3)
N5 N 0.8198(6) 0.1951(7) 0.5068(4)
H2 H 0.8917 0.2070 0.5214
N6 N 0.7467(7) 0.1935(9) 0.5526(4)
C4 C 0.6511(8) 0.1722(8) 0.5056(4)
N7 N 0.6561(6) 0.1589(7) 0.4339(3)
N8 N 0.5474(7) 0.1549(9) 0.5305(4)
O21 O 0.4619(6) 0.1286(8) 0.4837(3)
O22 O 0.5482(7) 0.1728(13) 0.5956(4)
C5 C 0.1306(8) 0.1864(8) 0.5028(4)
O23 O 0.1047(6) 0.1960(8) 0.4348(3)
N9 N 0.2348(7) 0.1602(8) 0.5417(4)
H3 H 0.2933 0.1484 0.5226
N10 N 0.2371(7) 0.1546(8) 0.6153(3)
C6 C 0.1334(7) 0.1789(8) 0.6162(4)
N11 N 0.0607(6) 0.1989(8) 0.5505(3)
N12 N 0.0959(8) 0.1828(10) 0.6847(4)
O24 O 0.1616(8) 0.1759(10) 0.7406(3)
O25 O -0.0101(9) 0.1933(19) 0.6792(5)
C7 C -0.1827(7) 0.1317(8) 0.1558(4)
O26 O -0.1581(6) 0.1381(7) 0.2249(3)
N13 N -0.2935(7) 0.1251(8) 0.1150(4)
H4 H -0.3531 0.1192 0.1335
N14 N -0.2941(6) 0.1292(7) 0.0413(4)
C8 C -0.1854(7) 0.1350(8) 0.0432(4)
N15 N -0.1133(7) 0.1391(7) 0.1084(4)
N16 N -0.1443(7) 0.1473(9) -0.0244(4)
O27 O -0.0442(7) 0.1464(13) -0.0195(4)
O28 O -0.2146(8) 0.1569(10) -0.0818(3)
Pr2_2 Pr 0.97383(2) 0.23944(3) 0.321030(16)
O20_2 O -0.1833(5) 0.1712(6) 0.3813(3)
O11 O 0.3950(8) 0.5514(12) -0.0171(5)
O12 O 0.1753(9) -0.1660(11) 0.4304(4)
O13 O 0.7454(8) -0.2169(9) 0.2222(5)
O14 O 0.9530(9) 0.6869(7) 0.3271(6)
O15 O 0.3597(8) 0.3025(7) 0.9041(4)
O16 O 0.5609(6) -0.3390(6) 0.2653(3)
C9 C 0.6907(8) 0.4875(8) -0.0437(4)
O29 O 0.6730(6) 0.5065(6) -0.1118(3)
N17 N 0.7981(7) 0.4705(8) 0.0001(4)
H5 H 0.8601 0.4711 -0.0160
N18 N 0.7929(7) 0.4526(8) 0.0717(4)
C10 C 0.6848(8) 0.4595(9) 0.0678(5)
N19 N 0.6158(7) 0.4805(9) 0.0011(4)
N20 N 0.6403(9) 0.4378(9) 0.1340(4)
O30 O 0.7056(8) 0.4166(9) 0.1901(4)
O31 O 0.5405(9) 0.4360(13) 0.1274(5)
C11 C 0.2728(8) 0.4833(7) 0.7271(4)
O32 O 0.2927(6) 0.4814(6) 0.7958(3)
N21 N 0.3511(7) 0.4565(7) 0.6859(4)
H6 H 0.4202 0.4333 0.7034
N22 N 0.3048(7) 0.4715(8) 0.6127(4)
C12 C 0.2011(7) 0.5080(7) 0.6145(4)
N23 N 0.1732(7) 0.5137(7) 0.6803(3)
N24 N 0.1222(7) 0.5333(8) 0.5475(4)
O33 O 0.1549(8) 0.5274(11) 0.4914(4)
O34 O 0.0272(8) 0.5623(11) 0.5521(5)
loop_
_geom_bond_atom_site_label_1
_geom_bond_atom_site_label_2
_geom_bond_site_symmetry_1
_geom_bond_site_symmetry_2
Pr1 O1 1_555 1_555
Pr2 O7 1_555 1_555
O2 Pr1 1_555 1_555
O3 Pr1 1_555 1_555
O4 Pr1 1_555 1_555
O5 Pr1 1_555 1_555
O6 Pr1 1_555 1_555
O8 Pr2 1_555 1_555
O9 Pr2 1_555 1_555
O10 Pr2 1_555 1_555
C1 O17 1_555 1_555
O17 Pr2 1_555 1_555
N1 C1 1_555 1_555
H1 N1 1_555 1_555
N2 N1 1_555 1_555
C2 N2 1_555 1_555
N3 Pr1 1_555 1_555
N4 C2 1_555 1_555
O18 N4 1_555 1_555
O19 Pr1 1_555 1_555
C3 O20 1_555 1_555
O20 Pr2_2 1_555 1_555
N5 C3 1_555 1_555
H2 N5 1_555 1_555
N6 N5 1_555 1_555
C4 N6 1_555 1_555
N7 Pr1 1_555 1_555
N8 C4 1_555 1_555
O21 Pr1 1_555 1_555
O22 N8 1_555 1_555
C5 O23 1_555 1_555
O23 Pr2 1_555 1_555
N9 C5 1_555 1_555
H3 N9 1_555 1_555
N10 N9 1_555 1_555
C6 N10 1_555 1_555
N11 C5 1_555 1_555
N12 C6 1_555 1_555
O24 N12 1_555 1_555
O25 N12 1_555 1_555
C7 O26 1_555 1_555
O26 Pr2 1_555 1_555
N13 C7 1_555 1_555
H4 N13 1_555 1_555
N14 N13 1_555 1_555
C8 N14 1_555 1_555
N15 C7 1_555 1_555
N16 C8 1_555 1_555
O27 N16 1_555 1_555
O28 N16 1_555 1_555
C9 O29 1_555 1_555
N17 C9 1_555 1_555
H5 N17 1_555 1_555
N18 N17 1_555 1_555
C10 N18 1_555 1_555
N19 C9 1_555 1_555
N20 C10 1_555 1_555
O30 N20 1_555 1_555
O31 N20 1_555 1_555
C11 O32 1_555 1_555
N21 C11 1_555 1_555
H6 N21 1_555 1_555
N22 N21 1_555 1_555
C12 N22 1_555 1_555
N23 C11 1_555 1_555
N24 C12 1_555 1_555
O33 N24 1_555 1_555
O34 N24 1_555 1_555
O20_2 Pr2 1_555 1_555
C1 N3 1_555 1_555
C2 N3 1_555 1_555
N4 O19 1_555 1_555
C3 N7 1_555 1_555
C4 N7 1_555 1_555
N8 O21 1_555 1_555
C6 N11 1_555 1_555
C8 N15 1_555 1_555
C10 N19 1_555 1_555
C12 N23 1_555 1_555

#END
