
#######################################################################
#
#                 Cambridge Crystallographic Data Centre
#                                CCDC 
#
#######################################################################
#
# If this CIF has been generated from an entry in the Cambridge 
# Structural Database, then it will include bibliographic, chemical, 
# crystal, experimental, refinement or atomic coordinate data resulting 
# from the CCDC's data processing and validation procedures.
#
#######################################################################

data_YATHOR
_symmetry_cell_setting           monoclinic
_symmetry_space_group_name_H-M   'P c'
_symmetry_Int_Tables_number      7
_space_group_name_Hall           'P -2yc'
loop_
_symmetry_equiv_pos_site_id
_symmetry_equiv_pos_as_xyz
1 x,y,z
2 x,-y,1/2+z
_cell_length_a                   12.034(3)
_cell_length_b                   9.9555(12)
_cell_length_c                   18.611(3)
_cell_angle_alpha                90
_cell_angle_beta                 102.008(12)
_cell_angle_gamma                90
_cell_volume                     2180.89
loop_
_atom_site_label
_atom_site_type_symbol
_atom_site_fract_x
_atom_site_fract_y
_atom_site_fract_z
Pr1 Pr 0.4755(1) 0.0931(1) 0.3273(1)
Pr2 Pr -0.0261(1) 0.2394(1) 0.3210(1)
O1 O 0.6507(6) 0.0170(6) 0.2878(3)
O2 O 0.2982(5) 0.0245(7) 0.3650(3)
O3 O 0.5224(6) -0.1095(6) 0.4044(3)
O4 O 0.4227(6) -0.1126(6) 0.2506(3)
O5 O 0.5657(6) 0.3037(6) 0.2920(3)
O6 O 0.3890(7) 0.2958(7) 0.3657(3)
O7 O -0.1224(6) 0.4416(6) 0.3581(3)
O8 O -0.0080(7) -0.0114(5) 0.3361(3)
O9 O 0.1119(6) 0.4319(7) 0.3486(3)
O10 O -0.0338(5) 0.3925(5) 0.2122(3)
O17 O 0.1330(6) 0.1662(7) 0.2694(3)
C1 C 0.1823(6) 0.1625(7) 0.2159(3)
N1 N 0.1255(5) 0.1662(7) 0.1442(3)
N2 N 0.2032(6) 0.1636(7) 0.0983(3)
C2 C 0.2970(7) 0.1594(8) 0.1464(4)
N3 N 0.2975(6) 0.1569(6) 0.2192(3)
N4 N 0.4036(6) 0.1500(8) 0.1224(3)
O18 O 0.4040(6) 0.1516(11) 0.0575(3)
O19 O 0.4894(5) 0.1354(7) 0.1721(3)
O20 O 0.8161(5) 0.1711(6) 0.3813(3)
C3 C 0.7680(3) 0.1764(7) 0.4352(3)
N5 N 0.8193(5) 0.1952(7) 0.5068(3)
N6 N 0.7457(6) 0.1936(8) 0.5526(3)
C4 C 0.6507(7) 0.1722(8) 0.5055(4)
N7 N 0.6553(5) 0.1589(6) 0.4340(3)
N8 N 0.5462(6) 0.1546(8) 0.5305(4)
O21 O 0.4612(5) 0.1286(8) 0.4837(3)
O22 O 0.5475(6) 0.1728(12) 0.5956(3)
O23 O 0.1037(6) 0.1961(7) 0.4348(3)
C5 C 0.1292(7) 0.1866(8) 0.5028(4)
N9 N 0.2345(6) 0.1598(8) 0.5417(3)
N10 N 0.2368(6) 0.1544(7) 0.6154(3)
C6 C 0.1323(6) 0.1789(7) 0.6162(4)
N11 N 0.0600(5) 0.1991(7) 0.5504(3)
N12 N 0.0951(7) 0.1828(9) 0.6848(4)
O24 O 0.1610(7) 0.1761(10) 0.7407(3)
O25 O -0.0102(8) 0.1919(18) 0.6793(5)
C7 C -0.1840(6) 0.1320(8) 0.1558(4)
O26 O -0.1593(6) 0.1382(6) 0.2249(3)
N13 N -0.2943(6) 0.1251(8) 0.1152(4)
N14 N -0.2947(6) 0.1293(7) 0.0413(3)
C8 C -0.1861(6) 0.1351(7) 0.0433(4)
N15 N -0.1138(6) 0.1392(6) 0.1085(3)
N16 N -0.1452(7) 0.1475(8) -0.0245(4)
O27 O -0.0443(7) 0.1462(13) -0.0193(4)
O28 O -0.2154(8) 0.1569(9) -0.0817(3)
Pr2_2 Pr 0.9739(1) 0.2394(1) 0.3210(1)
O20_2 O -0.1839(5) 0.1711(6) 0.3813(3)
O11 O 0.3937(8) 0.5511(12) -0.0171(4)
O12 O 0.1743(8) -0.1660(10) 0.4305(4)
O13 O 0.7448(7) -0.2166(9) 0.2222(4)
O14 O 0.9526(8) 0.6869(6) 0.3272(5)
O15 O 0.3591(7) 0.3025(7) 0.9042(3)
O16 O 0.5604(5) -0.3391(6) 0.2654(3)
O29 O 0.6718(5) 0.5062(6) -0.1119(3)
C9 C 0.6901(7) 0.4876(7) -0.0437(4)
N17 N 0.7973(6) 0.4704(7) 0.0002(3)
N18 N 0.7925(6) 0.4528(7) 0.0718(4)
C10 C 0.6837(8) 0.4594(8) 0.0680(4)
N19 N 0.6150(7) 0.4803(8) 0.0013(4)
N20 N 0.6403(8) 0.4380(9) 0.1341(4)
O30 O 0.7049(7) 0.4168(8) 0.1901(4)
O31 O 0.5398(8) 0.4359(12) 0.1274(5)
O32 O 0.2920(5) 0.4814(6) 0.7958(3)
C11 C 0.2716(7) 0.4833(7) 0.7270(4)
N21 N 0.3499(6) 0.4565(7) 0.6857(3)
N22 N 0.3038(6) 0.4713(7) 0.6127(4)
C12 C 0.2012(6) 0.5076(7) 0.6145(4)
N23 N 0.1725(6) 0.5138(7) 0.6805(3)
N24 N 0.1216(6) 0.5333(7) 0.5474(3)
O33 O 0.1545(8) 0.5275(10) 0.4914(4)
O34 O 0.0264(7) 0.5621(10) 0.5522(4)
loop_
_geom_bond_atom_site_label_1
_geom_bond_atom_site_label_2
_geom_bond_site_symmetry_1
_geom_bond_site_symmetry_2
Pr1 O1 1_555 1_555
Pr2 O7 1_555 1_555
O2 Pr1 1_555 1_555
O3 Pr1 1_555 1_555
O4 Pr1 1_555 1_555
O5 Pr1 1_555 1_555
O6 Pr1 1_555 1_555
O8 Pr2 1_555 1_555
O9 Pr2 1_555 1_555
O10 Pr2 1_555 1_555
O17 Pr2 1_555 1_555
C1 O17 1_555 1_555
N1 C1 1_555 1_555
N2 N1 1_555 1_555
C2 N2 1_555 1_555
N3 Pr1 1_555 1_555
N4 C2 1_555 1_555
O18 N4 1_555 1_555
O19 N4 1_555 1_555
O20 C3 1_555 1_555
C3 N5 1_555 1_555
N5 N6 1_555 1_555
N6 C4 1_555 1_555
C4 N7 1_555 1_555
N7 Pr1 1_555 1_555
N8 C4 1_555 1_555
O21 N8 1_555 1_555
O22 N8 1_555 1_555
O23 Pr2 1_555 1_555
C5 O23 1_555 1_555
N9 C5 1_555 1_555
N10 N9 1_555 1_555
C6 N10 1_555 1_555
N11 C5 1_555 1_555
N12 C6 1_555 1_555
O24 N12 1_555 1_555
O25 N12 1_555 1_555
C7 O26 1_555 1_555
O26 Pr2 1_555 1_555
N13 C7 1_555 1_555
N14 N13 1_555 1_555
C8 N14 1_555 1_555
N15 C7 1_555 1_555
N16 C8 1_555 1_555
O27 N16 1_555 1_555
O28 N16 1_555 1_555
O29 C9 1_555 1_555
C9 N17 1_555 1_555
N17 N18 1_555 1_555
N18 C10 1_555 1_555
C10 N19 1_555 1_555
N19 C9 1_555 1_555
N20 C10 1_555 1_555
O30 N20 1_555 1_555
O31 N20 1_555 1_555
O32 C11 1_555 1_555
C11 N21 1_555 1_555
N21 N22 1_555 1_555
N22 C12 1_555 1_555
C12 N23 1_555 1_555
N23 C11 1_555 1_555
N24 C12 1_555 1_555
O33 N24 1_555 1_555
O34 N24 1_555 1_555
Pr2_2 O20 1_555 1_555
O20_2 Pr2 1_555 1_555
C1 N3 1_555 1_555
C2 N3 1_555 1_555
C3 N7 1_555 1_555
C6 N11 1_555 1_555
C8 N15 1_555 1_555

#END
