
#######################################################################
#
#                 Cambridge Crystallographic Data Centre
#                                CCDC 
#
#######################################################################
#
# If this CIF has been generated from an entry in the Cambridge 
# Structural Database, then it will include bibliographic, chemical, 
# crystal, experimental, refinement or atomic coordinate data resulting 
# from the CCDC's data processing and validation procedures.
#
#######################################################################

data_YATHAE
_symmetry_cell_setting           monoclinic
_symmetry_space_group_name_H-M   'P 21/n'
_symmetry_Int_Tables_number      14
_space_group_name_Hall           '-P 2yn'
loop_
_symmetry_equiv_pos_site_id
_symmetry_equiv_pos_as_xyz
1 x,y,z
2 1/2-x,1/2+y,1/2-z
3 -x,-y,-z
4 1/2+x,1/2-y,1/2+z
_cell_length_a                   9.8904(13)
_cell_length_b                   11.0782(16)
_cell_length_c                   18.321(3)
_cell_angle_alpha                90
_cell_angle_beta                 96.664(2)
_cell_angle_gamma                90
_cell_volume                     1993.83
loop_
_atom_site_label
_atom_site_type_symbol
_atom_site_fract_x
_atom_site_fract_y
_atom_site_fract_z
C1 C 1.2567(4) 0.2851(4) 0.1650(2)
H1 H 1.1939 0.2282 0.1449
C2 C 1.3667(4) 0.2465(4) 0.2119(2)
H2 H 1.3776 0.1649 0.2230
C3 C 1.4597(4) 0.3284(4) 0.2420(2)
H3 H 1.5337 0.3039 0.2747
C4 C 1.4420(4) 0.4479(4) 0.2232(2)
H4 H 1.5049 0.5052 0.2426
C5 C 1.3299(4) 0.4825(4) 0.1750(2)
C6 C 1.3023(4) 0.6086(3) 0.1494(2)
C7 C 1.3882(4) 0.7046(4) 0.1690(2)
H5 H 1.4689 0.6928 0.1997
C8 C 1.3525(4) 0.8175(4) 0.1426(2)
H6 H 1.4081 0.8835 0.1559
C9 C 1.2338(4) 0.8324(4) 0.0961(2)
H7 H 1.2080 0.9081 0.0775
C10 C 1.1539(4) 0.7325(3) 0.0778(2)
H8 H 1.0748 0.7422 0.0456
C11 C 0.9293(4) 0.2943(3) 0.1454(2)
C12 C 0.8590(3) 0.1744(3) 0.14833(19)
C13 C 0.7750(4) 0.1533(3) 0.2029(2)
H9 H 0.7620 0.2135 0.2368
C14 C 0.7110(4) 0.0431(3) 0.2067(2)
H10 H 0.6555 0.0293 0.2435
C15 C 0.7284(4) -0.0467(3) 0.1564(2)
H11 H 0.6850 -0.1208 0.1590
C16 C 0.8115(4) -0.0248(3) 0.1019(2)
C17 C 0.8766(3) 0.0846(3) 0.09748(19)
H12 H 0.9320 0.0982 0.0606
C18 C 0.7209(4) -0.1810(3) 0.0232(2)
C19 C 0.6105(4) -0.1239(3) -0.0145(2)
H13 H 0.6101 -0.0404 -0.0198
C20 C 0.5006(4) -0.1913(4) -0.0444(2)
H14 H 0.4246 -0.1530 -0.0687
C21 C 0.5034(4) -0.3148(4) -0.0385(2)
H15 H 0.4298 -0.3602 -0.0594
C22 C 0.6152(4) -0.3717(3) -0.0015(2)
H16 H 0.6169 -0.4555 0.0017
C23 C 0.7256(4) -0.3048(3) 0.03097(19)
C24 C 0.8442(4) -0.3674(3) 0.0748(2)
Cu1 Cu 1.07050(4) 0.47243(4) 0.08760(2)
N1 N 1.2362(3) 0.4015(3) 0.14711(16)
N2 N 1.1850(3) 0.6223(3) 0.10423(16)
O1 O 0.9758(3) 0.3194(2) 0.08470(14)
O2 O 0.9430(3) 0.3600(2) 0.19975(15)
O3 O 0.8349(2) -0.1125(2) 0.05010(14)
O4 O 0.8749(3) -0.3422(2) 0.13953(14)
O5 O 0.9078(2) -0.4457(2) 0.03855(13)
Cu1_2 Cu 1.07050(4) -0.52757(4) 0.08760(2)
Cu1B Cu 0.92950(4) -0.47243(4) -0.08760(2)
O5_2 O 0.9078(2) 0.5543(2) 0.03855(13)
O5B O 1.0922(2) 0.4457(2) -0.03855(13)
loop_
_geom_bond_atom_site_label_1
_geom_bond_atom_site_label_2
_geom_bond_site_symmetry_1
_geom_bond_site_symmetry_2
C1 H1 1_555 1_555
C2 C1 1_555 1_555
H2 C2 1_555 1_555
C3 C2 1_555 1_555
H3 C3 1_555 1_555
C4 C3 1_555 1_555
H4 C4 1_555 1_555
C5 C4 1_555 1_555
C6 C5 1_555 1_555
C7 C6 1_555 1_555
H5 C7 1_555 1_555
C8 C7 1_555 1_555
H6 C8 1_555 1_555
C9 C8 1_555 1_555
H7 C9 1_555 1_555
C10 C9 1_555 1_555
H8 C10 1_555 1_555
C11 C12 1_555 1_555
C12 C13 1_555 1_555
C13 H9 1_555 1_555
C14 C13 1_555 1_555
H10 C14 1_555 1_555
C15 C14 1_555 1_555
H11 C15 1_555 1_555
C16 C15 1_555 1_555
C17 C12 1_555 1_555
H12 C17 1_555 1_555
C18 C19 1_555 1_555
C19 H13 1_555 1_555
C20 C19 1_555 1_555
H14 C20 1_555 1_555
C21 C20 1_555 1_555
H15 C21 1_555 1_555
C22 C21 1_555 1_555
H16 C22 1_555 1_555
C23 C18 1_555 1_555
C24 C23 1_555 1_555
Cu1 N1 1_555 1_555
N1 C1 1_555 1_555
N2 C6 1_555 1_555
O1 C11 1_555 1_555
O2 C11 1_555 1_555
O3 C16 1_555 1_555
O4 C24 1_555 1_555
O5 C24 1_555 1_555
Cu1_2 O5 1_555 1_555
Cu1B O5 1_555 1_555
O5_2 Cu1 1_555 1_555
O5B Cu1 1_555 1_555
C5 N1 1_555 1_555
C10 N2 1_555 1_555
C16 C17 1_555 1_555
C18 O3 1_555 1_555
C22 C23 1_555 1_555
Cu1 N2 1_555 1_555
Cu1 O1 1_555 1_555

#END
