
#######################################################################
#
#                 Cambridge Crystallographic Data Centre
#                                CCDC 
#
#######################################################################
#
# If this CIF has been generated from an entry in the Cambridge 
# Structural Database, then it will include bibliographic, chemical, 
# crystal, experimental, refinement or atomic coordinate data resulting 
# from the CCDC's data processing and validation procedures.
#
#######################################################################

data_YATHEI
_symmetry_cell_setting           orthorhombic
_symmetry_space_group_name_H-M   'P b c a'
_symmetry_Int_Tables_number      61
_space_group_name_Hall           '-P 2ac 2ab'
loop_
_symmetry_equiv_pos_site_id
_symmetry_equiv_pos_as_xyz
1 x,y,z
2 1/2-x,-y,1/2+z
3 1/2+x,1/2-y,-z
4 -x,1/2+y,1/2-z
5 -x,-y,-z
6 1/2+x,y,1/2-z
7 1/2-x,1/2+y,z
8 x,1/2-y,1/2+z
_cell_length_a                   17.560(8)
_cell_length_b                   10.528(5)
_cell_length_c                   30.613(15)
_cell_angle_alpha                90
_cell_angle_beta                 90
_cell_angle_gamma                90
_cell_volume                     5659.48
loop_
_atom_site_label
_atom_site_type_symbol
_atom_site_fract_x
_atom_site_fract_y
_atom_site_fract_z
C1 C 0.9047(4) 0.2064(7) 0.3162(2)
H1 H 0.9524 0.2340 0.3071
C2 C 0.8392(7) 0.2436(10) 0.2927(3)
H2 H 0.8451 0.2941 0.2680
C3 C 0.7698(6) 0.2067(13) 0.3054(4)
H3 H 0.7268 0.2318 0.2899
C4 C 0.7633(5) 0.1331(15) 0.3430(4)
C5 C 0.8290(4) 0.0970(9) 0.3652(3)
C6 C 0.8259(5) 0.0149(9) 0.4028(3)
C7 C 0.7540(7) -0.0294(15) 0.4182(4)
C8 C 0.6902(18) -0.005(2) 0.3977(8)
H4 H 0.6431 -0.0289 0.4091
C9 C 0.6899(13) 0.0777(19) 0.3600(7)
H5 H 0.6451 0.0923 0.3446
C10 C 0.7544(12) -0.1099(15) 0.4564(5)
H6 H 0.7091 -0.1411 0.4679
C11 C 0.8181(7) -0.1311(13) 0.4748(4)
H7 H 0.8184 -0.1821 0.4996
C12 C 0.8893(6) -0.0880(8) 0.4573(3)
H8 H 0.9346 -0.1109 0.4709
C13 C 1.0001(4) 0.3473(6) 0.4149(2)
H9 H 1.0090 0.3556 0.3851
C14 C 1.0072(4) 0.4525(6) 0.4406(2)
H10 H 1.0216 0.5294 0.4281
C15 C 0.9952(4) 0.4455(6) 0.4853(2)
C16 C 0.9702(5) 0.3278(7) 0.5011(2)
H11 H 0.9575 0.3182 0.5304
C17 C 0.9644(5) 0.2258(6) 0.4728(2)
H12 H 0.9493 0.1481 0.4843
C18 C 1.1329(4) 0.1853(6) 0.3660(2)
C19 C 1.1768(4) 0.2806(6) 0.3377(2)
C20 C 1.2559(5) 0.2813(9) 0.3417(3)
H13 H 1.2798 0.2230 0.3599
C21 C 1.3006(5) 0.3685(9) 0.3182(3)
H14 H 1.3533 0.3678 0.3209
C22 C 1.2646(5) 0.4560(8) 0.2909(3)
H15 H 1.2934 0.5162 0.2759
C23 C 1.1874(5) 0.4549(7) 0.2865(3)
H16 H 1.1642 0.5121 0.2676
C24 C 1.1439(4) 0.3687(6) 0.3098(2)
C25 C 1.0309(4) 0.4883(6) 0.30011(19)
C26 C 0.9844(4) 0.5078(6) 0.2643(2)
H17 H 0.9783 0.4445 0.2434
H18 H 0.9152 0.6366 0.2362
C27 C 0.9474(4) 0.6231(6) 0.25993(19)
C28 C 0.9572(4) 0.7174(6) 0.29154(19)
H19 H 0.9323 0.7948 0.2883
C29 C 1.0037(3) 0.6978(6) 0.32760(19)
C30 C 1.0412(4) 0.5820(5) 0.3315(2)
H20 H 1.0734 0.5675 0.3551
C31 C 1.0146(4) 0.7994(6) 0.36122(19)
N1 N 0.9804(3) 0.2314(5) 0.43063(15)
N2 N 0.8910(4) -0.0138(6) 0.42220(18)
N3 N 0.8991(3) 0.1329(5) 0.35155(16)
Ni1 Ni 0.98574(5) 0.06619(7) 0.39080(2)
O1 O 1.0627(3) -0.0097(4) 0.43562(14)
O2 O 1.1662(3) 0.1489(6) 0.39967(17)
O3 O 1.0687(2) 0.1515(4) 0.35312(12)
O4 O 1.0483(4) 0.7698(4) 0.39618(14)
O5 O 0.9896(3) 0.9069(4) 0.35153(14)
O6 O 1.0651(3) 0.3707(4) 0.30505(14)
H21 H 1.1022(16) 0.032(4) 0.436(2)
H22 H 1.068(3) -0.0855(15) 0.430(2)
C1D C 1.0953(4) 0.7936(7) 0.6838(2)
H1D H 1.0476 0.7660 0.6929
C2D C 1.1608(7) 0.7564(10) 0.7073(3)
H2D H 1.1549 0.7059 0.7320
C3D C 1.2302(6) 0.7933(13) 0.6946(4)
H3D H 1.2732 0.7682 0.7101
C4D C 1.2367(5) 0.8669(15) 0.6570(4)
C5D C 1.1710(4) 0.9030(9) 0.6348(3)
C6D C 1.1741(5) 0.9851(9) 0.5972(3)
C7D C 1.2460(7) 1.0294(15) 0.5818(4)
C8D C 1.3098(18) 1.005(2) 0.6023(8)
H4D H 1.3569 1.0289 0.5909
C9D C 1.3101(13) 0.9223(19) 0.6400(7)
H5D H 1.3549 0.9077 0.6554
C10D C 1.2456(12) 1.1099(15) 0.5436(5)
H6D H 1.2909 1.1411 0.5321
C11D C 1.1819(7) 1.1311(13) 0.5252(4)
H7D H 1.1816 1.1821 0.5004
C12D C 1.1107(6) 1.0880(8) 0.5427(3)
H8D H 1.0654 1.1109 0.5291
C13D C 0.9999(4) 0.6527(6) 0.5851(2)
H9D H 0.9910 0.6444 0.6149
C14D C 0.9928(4) 0.5475(6) 0.5594(2)
H10D H 0.9784 0.4706 0.5719
C15D C 1.0048(4) 0.5545(6) 0.5147(2)
C16D C 1.0298(5) 0.6722(7) 0.4989(2)
H11D H 1.0425 0.6818 0.4696
C17D C 1.0356(5) 0.7742(6) 0.5272(2)
H12D H 1.0507 0.8519 0.5157
C18_2 C 1.1329(4) -0.8147(6) 0.3660(2)
C19_2 C 1.1768(4) -0.7194(6) 0.3377(2)
C20_2 C 1.2559(5) -0.7187(9) 0.3417(3)
H13_2 H 1.2798 -0.7770 0.3599
C21_2 C 1.3006(5) -0.6315(9) 0.3182(3)
H14_2 H 1.3533 -0.6322 0.3209
C22_2 C 1.2646(5) -0.5440(8) 0.2909(3)
H15_2 H 1.2934 -0.4838 0.2759
C23_2 C 1.1874(5) -0.5451(7) 0.2865(3)
H16_2 H 1.1642 -0.4879 0.2676
C24_2 C 1.1439(4) -0.6313(6) 0.3098(2)
C25_2 C 1.0309(4) -0.5117(6) 0.30011(19)
C26_2 C 0.9844(4) -0.4922(6) 0.2643(2)
H17_2 H 0.9783 -0.5555 0.2434
H18_2 H 0.9152 -0.3634 0.2362
C27_2 C 0.9474(4) -0.3769(6) 0.25993(19)
C28_2 C 0.9572(4) -0.2826(6) 0.29154(19)
H19_2 H 0.9323 -0.2052 0.2883
C29_2 C 1.0037(3) -0.3022(6) 0.32760(19)
C30_2 C 1.0412(4) -0.4180(5) 0.3315(2)
H20_2 H 1.0734 -0.4325 0.3551
C31_2 C 1.0146(4) -0.2006(6) 0.36122(19)
N1D N 1.0196(3) 0.7686(5) 0.56937(15)
N2D N 1.1090(4) 1.0138(6) 0.57780(18)
N3D N 1.1009(3) 0.8671(5) 0.64845(16)
Ni1D Ni 1.01426(5) 0.93381(7) 0.60920(2)
Ni1_2 Ni 0.98574(5) 1.06619(7) 0.39080(2)
Ni1_3 Ni 0.98574(5) -0.93381(7) 0.39080(2)
O1D O 0.9373(3) 1.0097(4) 0.56438(14)
O2_2 O 1.1662(3) -0.8511(6) 0.39967(17)
O3_2 O 1.0687(2) -0.8485(4) 0.35312(12)
O3D O 0.9313(2) 0.8485(4) 0.64688(12)
O4_2 O 1.0483(4) -0.2302(4) 0.39618(14)
O5_2 O 0.9896(3) -0.0931(4) 0.35153(14)
O5D O 1.0104(3) 1.0931(4) 0.64847(14)
O6_2 O 1.0651(3) -0.6293(4) 0.30505(14)
H21D H 0.8978(16) 0.968(4) 0.564(2)
H22D H 0.932(3) 1.0855(15) 0.570(2)
O7 O 0.744(2) 0.428(3) 0.054(3)
H23 H 0.741(3) 0.353(4) 0.047(3)
H24 H 0.705(3) 0.458(5) 0.063(3)
loop_
_geom_bond_atom_site_label_1
_geom_bond_atom_site_label_2
_geom_bond_site_symmetry_1
_geom_bond_site_symmetry_2
C1 H1 1_555 1_555
C2 C1 1_555 1_555
H2 C2 1_555 1_555
C3 C2 1_555 1_555
H3 C3 1_555 1_555
C4 C3 1_555 1_555
C5 C4 1_555 1_555
C6 C5 1_555 1_555
C7 C6 1_555 1_555
C8 C7 1_555 1_555
H4 C8 1_555 1_555
C9 C4 1_555 1_555
H5 C9 1_555 1_555
C10 C7 1_555 1_555
H6 C10 1_555 1_555
C11 C10 1_555 1_555
H7 C11 1_555 1_555
C12 C11 1_555 1_555
H8 C12 1_555 1_555
C13 H9 1_555 1_555
C14 C13 1_555 1_555
H10 C14 1_555 1_555
C15 C14 1_555 1_555
C16 C15 1_555 1_555
H11 C16 1_555 1_555
C17 C16 1_555 1_555
H12 C17 1_555 1_555
C18 C19 1_555 1_555
C19 C20 1_555 1_555
C20 H13 1_555 1_555
C21 C20 1_555 1_555
H14 C21 1_555 1_555
C22 C21 1_555 1_555
H15 C22 1_555 1_555
C23 C22 1_555 1_555
H16 C23 1_555 1_555
C24 C19 1_555 1_555
C25 C26 1_555 1_555
C26 H17 1_555 1_555
H18 C27 1_555 1_555
C27 C26 1_555 1_555
C28 C27 1_555 1_555
H19 C28 1_555 1_555
C29 C28 1_555 1_555
C30 C25 1_555 1_555
H20 C30 1_555 1_555
C31 C29 1_555 1_555
N1 C13 1_555 1_555
N2 C6 1_555 1_555
N3 C1 1_555 1_555
Ni1 N1 1_555 1_555
O1 Ni1 1_555 1_555
O2 C18 1_555 1_555
O3 C18 1_555 1_555
O4 C31 1_555 1_555
O5 C31 1_555 1_555
O6 C24 1_555 1_555
O7 H23 1_555 1_555
H21 O1 1_555 1_555
H22 O1 1_555 1_555
H24 O7 1_555 1_555
C1D H1D 1_555 1_555
C2D C1D 1_555 1_555
H2D C2D 1_555 1_555
C3D C2D 1_555 1_555
H3D C3D 1_555 1_555
C4D C3D 1_555 1_555
C5D C4D 1_555 1_555
C6D C5D 1_555 1_555
C7D C6D 1_555 1_555
C8D C7D 1_555 1_555
H4D C8D 1_555 1_555
C9D C4D 1_555 1_555
H5D C9D 1_555 1_555
C10D C7D 1_555 1_555
H6D C10D 1_555 1_555
C11D C10D 1_555 1_555
H7D C11D 1_555 1_555
C12D C11D 1_555 1_555
H8D C12D 1_555 1_555
C13D H9D 1_555 1_555
C14D C13D 1_555 1_555
H10D C14D 1_555 1_555
C15D C15 1_555 1_555
C16D C15D 1_555 1_555
H11D C16D 1_555 1_555
C17D C16D 1_555 1_555
H12D C17D 1_555 1_555
C18_2 C19_2 1_555 1_555
C19_2 C20_2 1_555 1_555
C20_2 H13_2 1_555 1_555
C21_2 C20_2 1_555 1_555
H14_2 C21_2 1_555 1_555
C22_2 C21_2 1_555 1_555
H15_2 C22_2 1_555 1_555
C23_2 C22_2 1_555 1_555
H16_2 C23_2 1_555 1_555
C24_2 C19_2 1_555 1_555
C25_2 C26_2 1_555 1_555
C26_2 H17_2 1_555 1_555
H18_2 C27_2 1_555 1_555
C27_2 C26_2 1_555 1_555
C28_2 C27_2 1_555 1_555
H19_2 C28_2 1_555 1_555
C29_2 C28_2 1_555 1_555
C30_2 C25_2 1_555 1_555
H20_2 C30_2 1_555 1_555
C31_2 C29_2 1_555 1_555
N1D C13D 1_555 1_555
N2D C6D 1_555 1_555
N3D C1D 1_555 1_555
Ni1D N1D 1_555 1_555
Ni1_2 O5 1_555 1_555
Ni1_3 O3_2 1_555 1_555
O1D Ni1D 1_555 1_555
O2_2 C18_2 1_555 1_555
O3_2 C18_2 1_555 1_555
O3D Ni1D 1_555 1_555
O4_2 C31_2 1_555 1_555
O5_2 Ni1 1_555 1_555
O5D Ni1D 1_555 1_555
O6_2 C24_2 1_555 1_555
H21D O1D 1_555 1_555
H22D O1D 1_555 1_555
C5 N3 1_555 1_555
C8 C9 1_555 1_555
C12 N2 1_555 1_555
C17 N1 1_555 1_555
C23 C24 1_555 1_555
C25 O6 1_555 1_555
C29 C30 1_555 1_555
N2 Ni1 1_555 1_555
N3 Ni1 1_555 1_555
Ni1 O3 1_555 1_555
C5D N3D 1_555 1_555
C8D C9D 1_555 1_555
C12D N2D 1_555 1_555
C14D C15D 1_555 1_555
C17D N1D 1_555 1_555
C23_2 C24_2 1_555 1_555
C25_2 O6_2 1_555 1_555
C29_2 C30_2 1_555 1_555
C31_2 O5_2 1_555 1_555
N2D Ni1D 1_555 1_555
N3D Ni1D 1_555 1_555

#END
