
#######################################################################
#
#                 Cambridge Crystallographic Data Centre
#                                CCDC 
#
#######################################################################
#
# If this CIF has been generated from an entry in the Cambridge 
# Structural Database, then it will include bibliographic, chemical, 
# crystal, experimental, refinement or atomic coordinate data resulting 
# from the CCDC's data processing and validation procedures.
#
#######################################################################

data_YATHUY
_symmetry_cell_setting           monoclinic
_symmetry_space_group_name_H-M   'P 21/c'
_symmetry_Int_Tables_number      14
_space_group_name_Hall           '-P 2ybc'
loop_
_symmetry_equiv_pos_site_id
_symmetry_equiv_pos_as_xyz
1 x,y,z
2 -x,1/2+y,1/2-z
3 -x,-y,-z
4 x,1/2-y,1/2+z
_cell_length_a                   3.730(3)
_cell_length_b                   13.973(12)
_cell_length_c                   12.380(11)
_cell_angle_alpha                90
_cell_angle_beta                 97.953(18)
_cell_angle_gamma                90
_cell_volume                     639.031
loop_
_atom_site_label
_atom_site_type_symbol
_atom_site_fract_x
_atom_site_fract_y
_atom_site_fract_z
Cd1 Cd 0.5000 0.5000 0.0000
C1 C 0.2941(8) 0.3626(2) -0.4253(2)
H1 H 0.3593 0.3548 -0.4946
C2 C 0.2285(8) 0.2857(2) -0.3635(2)
H2 H 0.2447 0.2242 -0.3911
C3 C 0.1346(7) 0.56763(18) -0.2391(2)
C4 C 0.2606(7) 0.4529(2) -0.3816(2)
H3 H 0.2978 0.5065 -0.4232
C5 C 0.1121(6) 0.38468(18) -0.21477(19)
C6 C 0.1726(7) 0.46528(18) -0.2770(2)
O1 O -0.0257(7) 0.62247(14) -0.30941(16)
O2 O 0.2669(6) 0.59189(13) -0.14446(15)
S1 S 0.00425(17) 0.38023(5) -0.08290(5)
N1 N 0.1405(6) 0.29800(15) -0.26292(18)
H4 H 0.0993 0.2477 -0.2265
Cd1_2 Cd -0.5000 0.5000 0.0000
Cd1_3 Cd 1.5000 0.5000 0.0000
C1B C 0.7059(8) 0.6374(2) 0.4253(2)
H1B H 0.6407 0.6452 0.4946
C2B C 0.7715(8) 0.7143(2) 0.3635(2)
H2B H 0.7553 0.7758 0.3911
C3B C 0.8654(7) 0.43237(18) 0.2391(2)
C4B C 0.7394(7) 0.5471(2) 0.3816(2)
H3B H 0.7022 0.4935 0.4232
C5B C 0.8879(6) 0.61532(18) 0.21477(19)
C6B C 0.8274(7) 0.53472(18) 0.2770(2)
O1B O 1.0257(7) 0.37753(14) 0.30941(16)
O2B O 0.7331(6) 0.40811(13) 0.14446(15)
S1B S 0.99575(17) 0.61977(5) 0.08290(5)
S1_2 S 1.00425(17) 0.38023(5) -0.08290(5)
S1B_2 S -0.00425(17) 0.61977(5) 0.08290(5)
N1B N 0.8595(6) 0.70200(15) 0.26292(18)
H4B H 0.9007 0.7523 0.2265
loop_
_geom_bond_atom_site_label_1
_geom_bond_atom_site_label_2
_geom_bond_site_symmetry_1
_geom_bond_site_symmetry_2
Cd1 O2 1_555 1_555
C1 H1 1_555 1_555
C2 C1 1_555 1_555
H2 C2 1_555 1_555
C3 C6 1_555 1_555
C4 C1 1_555 1_555
H3 C4 1_555 1_555
C5 C6 1_555 1_555
C6 C4 1_555 1_555
O1 C3 1_555 1_555
O2 C3 1_555 1_555
S1 Cd1 1_555 1_555
N1 C2 1_555 1_555
H4 N1 1_555 1_555
Cd1_2 S1 1_555 1_555
Cd1_3 S1B 1_555 1_555
C1B H1B 1_555 1_555
C2B C1B 1_555 1_555
H2B C2B 1_555 1_555
C3B C6B 1_555 1_555
C4B C1B 1_555 1_555
H3B C4B 1_555 1_555
C5B C6B 1_555 1_555
C6B C4B 1_555 1_555
O1B C3B 1_555 1_555
O2B Cd1 1_555 1_555
S1B Cd1 1_555 1_555
S1_2 Cd1 1_555 1_555
S1B_2 Cd1 1_555 1_555
N1B C2B 1_555 1_555
H4B N1B 1_555 1_555
C5 S1 1_555 1_555
C5 N1 1_555 1_555
Cd1_2 S1B_2 1_555 1_555
Cd1_3 S1_2 1_555 1_555
C3B O2B 1_555 1_555
C5B S1B 1_555 1_555
C5B N1B 1_555 1_555

#END
