
#######################################################################
#
#                 Cambridge Crystallographic Data Centre
#                                CCDC 
#
#######################################################################
#
# If this CIF has been generated from an entry in the Cambridge 
# Structural Database, then it will include bibliographic, chemical, 
# crystal, experimental, refinement or atomic coordinate data resulting 
# from the CCDC's data processing and validation procedures.
#
#######################################################################

data_YATMEN
_symmetry_cell_setting           monoclinic
_symmetry_space_group_name_H-M   'P 21/n'
_symmetry_Int_Tables_number      14
_space_group_name_Hall           '-P 2yn'
loop_
_symmetry_equiv_pos_site_id
_symmetry_equiv_pos_as_xyz
1 x,y,z
2 1/2-x,1/2+y,1/2-z
3 -x,-y,-z
4 1/2+x,1/2-y,1/2+z
_cell_length_a                   10.1761(6)
_cell_length_b                   16.5092(9)
_cell_length_c                   12.0372(7)
_cell_angle_alpha                90
_cell_angle_beta                 103.8440(10)
_cell_angle_gamma                90
_cell_volume                     1963.5
loop_
_atom_site_label
_atom_site_type_symbol
_atom_site_fract_x
_atom_site_fract_y
_atom_site_fract_z
Cu1 Cu 0.80636(2) 0.241362(13) 0.801507(19)
V1 V 0.61028(3) 0.417383(18) 0.91849(3)
O1 O 0.64852(14) 0.33438(8) 0.85877(11)
V2 V 1.03439(3) 0.086000(19) 0.67529(3)
O2 O 0.75077(14) 0.46664(8) 0.97220(12)
O3 O 0.50084(14) 0.47895(8) 0.80807(11)
O4 O 0.52159(14) 0.39271(8) 1.02790(11)
O5 O 1.18772(14) 0.10726(9) 0.75481(12)
O6 O 0.92507(14) 0.14149(8) 0.71994(12)
N1 N 0.82168(16) 0.18449(10) 0.95274(13)
C1 C 0.9253(2) 0.14465(12) 1.01605(17)
H1 H 1.0126 0.1424 1.0008
N2 N 0.89173(18) 0.10785(10) 1.10445(14)
H2 H 0.9454 0.0780 1.1569
C2 C 0.7591(2) 0.12508(13) 1.09835(18)
H3 H 0.7072 0.1075 1.1498
C3 C 0.7157(2) 0.17227(13) 1.00442(17)
H4 H 0.6268 0.1935 0.9784
N3 N 0.78124(16) 0.31036(10) 0.66093(13)
C4 C 0.77206(19) 0.28959(12) 0.55363(16)
H5 H 0.7719 0.2353 0.5274
N4 N 0.76290(17) 0.35500(10) 0.48635(14)
H6 H 0.7556 0.3550 0.4120
C5 C 0.7670(2) 0.42209(13) 0.55468(18)
H7 H 0.7627 0.4772 0.5312
C6 C 0.7783(2) 0.39402(12) 0.66188(18)
H8 H 0.7835 0.4267 0.7277
N5 N 0.97998(16) 0.30136(10) 0.86210(13)
C7 C 1.0025(2) 0.35656(12) 0.94453(16)
H9 H 0.9438 0.3674 0.9933
N6 N 1.11982(16) 0.39489(10) 0.94927(14)
H10 H 1.1552 0.4333 0.9979
C8 C 1.1751(2) 0.36370(12) 0.86493(17)
H11 H 1.2579 0.3793 0.8477
C9 C 1.08746(19) 0.30603(12) 0.81122(16)
H12 H 1.0985 0.2740 0.7485
N7 N 0.64268(16) 0.17312(9) 0.73864(13)
C10 C 0.51402(19) 0.19205(12) 0.72905(16)
H13 H 0.4809 0.2457 0.7312
N8 N 0.43677(17) 0.12534(10) 0.71599(14)
H14 H 0.3485 0.1239 0.7076
C11 C 0.5198(2) 0.06006(12) 0.71797(17)
H15 H 0.4937 0.0047 0.7113
C12 C 0.6465(2) 0.08987(11) 0.73137(17)
H16 H 0.7256 0.0584 0.7352
V2A V 0.46561(3) 0.586000(19) 0.82471(3)
V2C V 0.53439(3) 0.414000(19) 1.17529(3)
O3A O 0.99916(14) -0.02105(8) 0.69193(11)
O4C O 1.02159(14) 0.10729(8) 0.52790(11)
loop_
_geom_bond_atom_site_label_1
_geom_bond_atom_site_label_2
_geom_bond_site_symmetry_1
_geom_bond_site_symmetry_2
Cu1 O1 1_555 1_555
V1 O1 1_555 1_555
V2 O5 1_555 1_555
O2 V1 1_555 1_555
O3 V1 1_555 1_555
O4 V1 1_555 1_555
O6 Cu1 1_555 1_555
N1 Cu1 1_555 1_555
C1 N1 1_555 1_555
H1 C1 1_555 1_555
N2 C1 1_555 1_555
H2 N2 1_555 1_555
C2 N2 1_555 1_555
H3 C2 1_555 1_555
C3 N1 1_555 1_555
H4 C3 1_555 1_555
N3 Cu1 1_555 1_555
C4 N3 1_555 1_555
H5 C4 1_555 1_555
N4 C4 1_555 1_555
H6 N4 1_555 1_555
C5 N4 1_555 1_555
H7 C5 1_555 1_555
C6 N3 1_555 1_555
H8 C6 1_555 1_555
N5 Cu1 1_555 1_555
C7 N5 1_555 1_555
H9 C7 1_555 1_555
N6 C7 1_555 1_555
H10 N6 1_555 1_555
C8 N6 1_555 1_555
H11 C8 1_555 1_555
C9 N5 1_555 1_555
H12 C9 1_555 1_555
N7 Cu1 1_555 1_555
C10 N7 1_555 1_555
H13 C10 1_555 1_555
N8 C10 1_555 1_555
H14 N8 1_555 1_555
C11 N8 1_555 1_555
H15 C11 1_555 1_555
C12 N7 1_555 1_555
H16 C12 1_555 1_555
V2A O3 1_555 1_555
V2C O4 1_555 1_555
O3A V2 1_555 1_555
O4C V2 1_555 1_555
V2 O6 1_555 1_555
C2 C3 1_555 1_555
C5 C6 1_555 1_555
C8 C9 1_555 1_555
C11 C12 1_555 1_555

#END
