
#######################################################################
#
#                 Cambridge Crystallographic Data Centre
#                                CCDC 
#
#######################################################################
#
# If this CIF has been generated from an entry in the Cambridge 
# Structural Database, then it will include bibliographic, chemical, 
# crystal, experimental, refinement or atomic coordinate data resulting 
# from the CCDC's data processing and validation procedures.
#
#######################################################################

data_YATNEO
_symmetry_cell_setting           monoclinic
_symmetry_space_group_name_H-M   'P 21/c'
_symmetry_Int_Tables_number      14
_space_group_name_Hall           '-P 2ybc'
loop_
_symmetry_equiv_pos_site_id
_symmetry_equiv_pos_as_xyz
1 x,y,z
2 -x,1/2+y,1/2-z
3 -x,-y,-z
4 x,1/2-y,1/2+z
_cell_length_a                   18.0696(7)
_cell_length_b                   3.98660(10)
_cell_length_c                   11.3189(5)
_cell_angle_alpha                90
_cell_angle_beta                 107.188(2)
_cell_angle_gamma                90
_cell_volume                     778.957
loop_
_atom_site_label
_atom_site_type_symbol
_atom_site_fract_x
_atom_site_fract_y
_atom_site_fract_z
K1 K -0.062276(12) 0.69576(6) -0.14996(2)
O1 O 0.10069(4) 0.8108(2) 0.01861(7)
O2 O 0.08101(4) 0.6705(2) -0.17911(7)
O3 O 0.41949(4) 1.2442(2) -0.07832(8)
C1 C 0.12233(6) 0.7855(2) -0.07712(9)
C2 C 0.20252(5) 0.9047(3) -0.07224(9)
C3 C 0.23052(6) 0.8522(3) -0.17345(10)
H1 H 0.1997 0.7410 -0.2428
C4 C 0.30339(6) 0.9630(3) -0.17205(10)
H2 H 0.3215 0.9234 -0.2396
C5 C 0.34944(6) 1.1339(3) -0.06932(10)
C6 C 0.32378(6) 1.1810(3) 0.03393(10)
H3 H 0.3552 1.2870 0.1040
C7 C 0.25020(6) 1.0670(3) 0.03085(9)
H4 H 0.2327 1.1005 0.0994
C8 C 0.46737(6) 1.4328(3) 0.02248(11)
H5 H 0.4875 1.2908 0.0944
H6 H 0.4383 1.6153 0.0442
K1B K 1.062276(12) 2.30424(6) 0.14996(2)
K1B_2 K 0.062276(12) 0.30424(6) 0.14996(2)
K1B_3 K 0.062276(12) 1.30424(6) 0.14996(2)
K1A K 0.062276(12) 1.19576(6) -0.35004(2)
K1A_2 K 0.062276(12) 0.19576(6) -0.35004(2)
K1_2 K 0.937724(12) 2.69576(6) -0.14996(2)
K1_3 K 0.937724(12) 1.69576(6) -0.14996(2)
K1C K 0.937724(12) 1.80424(6) 0.35004(2)
K1C_2 K 0.937724(12) 2.80424(6) 0.35004(2)
O1B O 0.89931(4) 2.1892(2) -0.01861(7)
O1B_2 O -0.10069(4) 0.1892(2) -0.01861(7)
O1B_3 O -0.10069(4) 1.1892(2) -0.01861(7)
O1_2 O 1.10069(4) 2.8108(2) 0.01861(7)
O1_3 O 1.10069(4) 1.8108(2) 0.01861(7)
O2B O 0.91899(4) 2.3295(2) 0.17911(7)
O2A O -0.08101(4) 0.1705(2) -0.32089(7)
O2A_2 O -0.08101(4) 1.1705(2) -0.32089(7)
O2C O 1.08101(4) 2.8295(2) 0.32089(7)
O2C_2 O 1.08101(4) 1.8295(2) 0.32089(7)
O3B O 0.58051(4) 1.7558(2) 0.07832(8)
C1B C 0.87767(6) 2.2145(2) 0.07712(9)
C2B C 0.79748(5) 2.0953(3) 0.07224(9)
C3B C 0.76948(6) 2.1478(3) 0.17345(10)
H1B H 0.8003 2.2590 0.2428
C4B C 0.69661(6) 2.0370(3) 0.17205(10)
H2B H 0.6785 2.0766 0.2396
C5B C 0.65056(6) 1.8661(3) 0.06932(10)
C6B C 0.67622(6) 1.8190(3) -0.03393(10)
H3B H 0.6448 1.7130 -0.1040
C7B C 0.74980(6) 1.9330(3) -0.03085(9)
H4B H 0.7673 1.8995 -0.0994
C8B C 0.53263(6) 1.5672(3) -0.02248(11)
H5B H 0.5125 1.7092 -0.0944
H6B H 0.5617 1.3847 -0.0442
loop_
_geom_bond_atom_site_label_1
_geom_bond_atom_site_label_2
_geom_bond_site_symmetry_1
_geom_bond_site_symmetry_2
K1 O1 1_555 1_555
O1 C1 1_555 1_555
O2 K1 1_555 1_555
O3 C5 1_555 1_555
C1 O2 1_555 1_555
C2 C1 1_555 1_555
C3 C2 1_555 1_555
H1 C3 1_555 1_555
C4 C3 1_555 1_555
H2 C4 1_555 1_555
C5 C4 1_555 1_555
C6 C5 1_555 1_555
H3 C6 1_555 1_555
C7 C2 1_555 1_555
H4 C7 1_555 1_555
C8 O3 1_555 1_555
H5 C8 1_555 1_555
H6 C8 1_555 1_555
K1B O1B 1_555 1_555
K1B_2 O1 1_555 1_555
K1B_3 O1 1_555 1_555
K1A O2 1_555 1_555
K1A_2 O2 1_555 1_555
K1_2 O1B 1_555 1_555
K1_3 O1B 1_555 1_555
K1C O2B 1_555 1_555
K1C_2 O2B 1_555 1_555
O1B C1B 1_555 1_555
O1B_2 K1 1_555 1_555
O1B_3 K1 1_555 1_555
O1_2 K1B 1_555 1_555
O1_3 K1B 1_555 1_555
O2B K1B 1_555 1_555
O2A K1 1_555 1_555
O2A_2 K1 1_555 1_555
O2C K1B 1_555 1_555
O2C_2 K1B 1_555 1_555
O3B C5B 1_555 1_555
C1B O2B 1_555 1_555
C2B C1B 1_555 1_555
C3B C2B 1_555 1_555
H1B C3B 1_555 1_555
C4B C3B 1_555 1_555
H2B C4B 1_555 1_555
C5B C4B 1_555 1_555
C6B C5B 1_555 1_555
H3B C6B 1_555 1_555
C7B C2B 1_555 1_555
H4B C7B 1_555 1_555
C8B C8 1_555 1_555
H5B C8B 1_555 1_555
H6B C8B 1_555 1_555
C6 C7 1_555 1_555
K1B_2 O1B_2 1_555 1_555
K1B_3 O1B_3 1_555 1_555
K1A O2A_2 1_555 1_555
K1A_2 O2A 1_555 1_555
K1_2 O1_2 1_555 1_555
K1_3 O1_3 1_555 1_555
K1C O2C_2 1_555 1_555
K1C_2 O2C 1_555 1_555
O3B C8B 1_555 1_555
C6B C7B 1_555 1_555

#END
