
#######################################################################
#
#                 Cambridge Crystallographic Data Centre
#                                CCDC 
#
#######################################################################
#
# If this CIF has been generated from an entry in the Cambridge 
# Structural Database, then it will include bibliographic, chemical, 
# crystal, experimental, refinement or atomic coordinate data resulting 
# from the CCDC's data processing and validation procedures.
#
#######################################################################

data_YATPAM01
_symmetry_cell_setting           monoclinic
_symmetry_space_group_name_H-M   'C 2'
_symmetry_Int_Tables_number      5
_space_group_name_Hall           'C 2y'
loop_
_symmetry_equiv_pos_site_id
_symmetry_equiv_pos_as_xyz
1 x,y,z
2 -x,y,-z
3 1/2+x,1/2+y,z
4 1/2-x,1/2+y,-z
_cell_length_a                   12.157
_cell_length_b                   4.588
_cell_length_c                   17.668
_cell_angle_alpha                90
_cell_angle_beta                 104.86
_cell_angle_gamma                90
_cell_volume                     952.498
loop_
_atom_site_label
_atom_site_type_symbol
_atom_site_fract_x
_atom_site_fract_y
_atom_site_fract_z
K1 K 0.37835(3) 0.47202(11) 0.06851(2)
O1 O 0.75938(11) 0.4876(4) 0.08722(7)
O2 O 0.5000 0.8518(5) 0.0000
H1 H 0.5413 0.9805 0.0334
O3 O 0.60715(14) 0.2575(3) 0.10647(10)
N1 N 0.62326(13) 0.5233(4) 0.24656(9)
N2 N 0.51504(16) 0.6250(5) 0.22609(11)
N3 N 0.45942(15) 0.5098(7) 0.27316(11)
C1 C 0.68769(14) 0.4326(4) 0.12503(10)
C2 C 0.70195(19) 0.6062(5) 0.20082(12)
H2 H 0.7791 0.5805 0.2327
H3 H 0.6916 0.8116 0.1879
C3 C 0.63785(16) 0.3359(5) 0.30785(11)
C4 C 0.53148(17) 0.3322(5) 0.32474(12)
C5 C 0.5150(2) 0.1630(7) 0.38668(16)
H4 H 0.4450 0.1598 0.3990
C6 C 0.6038(3) 0.0042(8) 0.42812(15)
H5 H 0.5945 -0.1116 0.4692
C7 C 0.7104(2) 0.0109(7) 0.41021(15)
H6 H 0.7695 -0.1007 0.4403
C8 C 0.7303(2) 0.1747(6) 0.35038(13)
H7 H 0.8008 0.1783 0.3389
H1A H 0.4587 0.9805 -0.0334
K1A K 0.62165(3) 0.47202(11) -0.06851(2)
O1A O 0.24062(11) 0.4876(4) -0.08722(7)
O3A O 0.39285(14) 0.2575(3) -0.10647(10)
N1A N 0.37674(13) 0.5233(4) -0.24656(9)
N2A N 0.48496(16) 0.6250(5) -0.22609(11)
N3A N 0.54058(15) 0.5098(7) -0.27316(11)
C1A C 0.31231(14) 0.4326(4) -0.12503(10)
C2A C 0.29805(19) 0.6062(5) -0.20082(12)
H2A H 0.2209 0.5805 -0.2327
H3A H 0.3084 0.8116 -0.1879
C3A C 0.36215(16) 0.3359(5) -0.30785(11)
C4A C 0.46852(17) 0.3322(5) -0.32474(12)
C5A C 0.4850(2) 0.1630(7) -0.38668(16)
H4A H 0.5550 0.1598 -0.3990
C6A C 0.3962(3) 0.0042(8) -0.42812(15)
H5A H 0.4055 -0.1116 -0.4692
C7A C 0.2896(2) 0.0109(7) -0.41021(15)
H6A H 0.2305 -0.1007 -0.4403
C8A C 0.2697(2) 0.1747(6) -0.35038(13)
H7A H 0.1992 0.1783 -0.3389
K1B K 0.87835(3) -0.02798(11) 0.06851(2)
K1B_2 K 0.87835(3) 0.97202(11) 0.06851(2)
K1C K 0.12165(3) -0.02798(11) -0.06851(2)
K1C_2 K 0.12165(3) 0.97202(11) -0.06851(2)
O1B O 0.25938(11) -0.0124(4) 0.08722(7)
O1B_2 O 0.25938(11) 0.9876(4) 0.08722(7)
O1C O 0.74062(11) -0.0124(4) -0.08722(7)
O1C_2 O 0.74062(11) 0.9876(4) -0.08722(7)
loop_
_geom_bond_atom_site_label_1
_geom_bond_atom_site_label_2
_geom_bond_site_symmetry_1
_geom_bond_site_symmetry_2
K1 O2 1_555 1_555
O1 C1 1_555 1_555
O2 H1 1_555 1_555
O3 K1 1_555 1_555
N1 N2 1_555 1_555
N2 K1 1_555 1_555
N3 N2 1_555 1_555
C1 O3 1_555 1_555
C2 N1 1_555 1_555
H2 C2 1_555 1_555
H3 C2 1_555 1_555
C3 N1 1_555 1_555
C4 N3 1_555 1_555
C5 C4 1_555 1_555
H4 C5 1_555 1_555
C6 C5 1_555 1_555
H5 C6 1_555 1_555
C7 C6 1_555 1_555
H6 C7 1_555 1_555
C8 C3 1_555 1_555
H7 C8 1_555 1_555
H1A O2 1_555 1_555
K1A O1 1_555 1_555
O1A K1 1_555 1_555
O3A K1 1_555 1_555
N1A N2A 1_555 1_555
N2A K1A 1_555 1_555
N3A N2A 1_555 1_555
C1A O1A 1_555 1_555
C2A N1A 1_555 1_555
H2A C2A 1_555 1_555
H3A C2A 1_555 1_555
C3A N1A 1_555 1_555
C4A N3A 1_555 1_555
C5A C4A 1_555 1_555
H4A C5A 1_555 1_555
C6A C5A 1_555 1_555
H5A C6A 1_555 1_555
C7A C6A 1_555 1_555
H6A C7A 1_555 1_555
C8A C3A 1_555 1_555
H7A C8A 1_555 1_555
K1B O1 1_555 1_555
K1B_2 O1 1_555 1_555
K1C O1A 1_555 1_555
K1C_2 O1A 1_555 1_555
O1B K1 1_555 1_555
O1B_2 K1 1_555 1_555
O1C K1A 1_555 1_555
O1C_2 K1A 1_555 1_555
O2 K1A 1_555 1_555
O3 K1A 1_555 1_555
C1 C2 1_555 1_555
C3 C4 1_555 1_555
C7 C8 1_555 1_555
K1A O3A 1_555 1_555
O3A C1A 1_555 1_555
C1A C2A 1_555 1_555
C3A C4A 1_555 1_555
C7A C8A 1_555 1_555
K1B O1C 1_555 1_555
K1B_2 O1C_2 1_555 1_555
K1C O1B 1_555 1_555
K1C_2 O1B_2 1_555 1_555

#END
