
#######################################################################
#
#                 Cambridge Crystallographic Data Centre
#                                CCDC 
#
#######################################################################
#
# If this CIF has been generated from an entry in the Cambridge 
# Structural Database, then it will include bibliographic, chemical, 
# crystal, experimental, refinement or atomic coordinate data resulting 
# from the CCDC's data processing and validation procedures.
#
#######################################################################

data_YATRER
_symmetry_cell_setting           rhombohedral
_symmetry_space_group_name_H-M   'R -3 c'
_symmetry_Int_Tables_number      167
_space_group_name_Hall           '-R 3 2"c'
loop_
_symmetry_equiv_pos_site_id
_symmetry_equiv_pos_as_xyz
1 x,y,z
2 -y,x-y,z
3 -x+y,-x,z
4 y,x,1/2-z
5 2/3+x,1/3+y,1/3+z
6 2/3-y,1/3+x-y,1/3+z
7 2/3-x+y,1/3-x,1/3+z
8 2/3+y,1/3+x,5/6-z
9 1/3+x,2/3+y,2/3+z
10 1/3+y,2/3+x,1/6-z
11 x-y,-y,1/2-z
12 -x,-x+y,1/2-z
13 1/3-y,2/3+x-y,2/3+z
14 1/3-x+y,2/3-x,2/3+z
15 1/3+x-y,2/3-y,1/6-z
16 1/3-x,2/3-x+y,1/6-z
17 2/3+x-y,1/3-y,5/6-z
18 2/3-x,1/3-x+y,5/6-z
19 -x,-y,-z
20 y,-x+y,-z
21 x-y,x,-z
22 -y,-x,1/2+z
23 1/3-x,2/3-y,2/3-z
24 1/3+y,2/3-x+y,2/3-z
25 1/3+x-y,2/3+x,2/3-z
26 1/3-y,2/3-x,1/6+z
27 2/3-x,1/3-y,1/3-z
28 2/3-y,1/3-x,5/6+z
29 -x+y,y,1/2+z
30 x,x-y,1/2+z
31 2/3+y,1/3-x+y,1/3-z
32 2/3+x-y,1/3+x,1/3-z
33 2/3-x+y,1/3+y,5/6+z
34 2/3+x,1/3+x-y,5/6+z
35 1/3-x+y,2/3+y,1/6+z
36 1/3+x,2/3+x-y,1/6+z
_cell_length_a                   14.130(2)
_cell_length_b                   14.130(2)
_cell_length_c                   49.480(14)
_cell_angle_alpha                90
_cell_angle_beta                 90
_cell_angle_gamma                120
_cell_volume                     8555.49
loop_
_atom_site_label
_atom_site_type_symbol
_atom_site_fract_x
_atom_site_fract_y
_atom_site_fract_z
Nd1 Nd 0.0000 0.0000 0.061575(11)
Cu1 Cu 0.39176(8) 0.39176(8) 0.2500
N1 N 0.3154(4) 0.2687(5) 0.22385(11)
C1 C 0.2915(6) 0.1671(6) 0.23020(14)
H1 H 0.3121 0.1538 0.2474
C2 C 0.2383(7) 0.0823(6) 0.21267(15)
H2 H 0.2253 0.0115 0.2173
C3 C 0.2035(7) 0.0997(6) 0.18815(14)
H3 H 0.1638 0.0405 0.1761
C4 C 0.2268(5) 0.2038(5) 0.18133(13)
C5 C 0.2853(5) 0.2860(6) 0.19985(13)
H4 H 0.3050 0.3588 0.1951
C6 C 0.1933(5) 0.2322(6) 0.15643(13)
H5 H 0.2033 0.3038 0.1555
C7 C 0.1500(6) 0.1695(6) 0.13480(14)
H6 H 0.1414 0.0984 0.1344
C8 C 0.1152(5) 0.2094(6) 0.11128(13)
O1 O 0.0594(4) 0.1444(4) 0.09312(9)
O2 O 0.1390(4) 0.3075(4) 0.11098(9)
N2 N 0.2014(5) 0.1563(4) 0.03293(12)
O3 O 0.2017(4) 0.1023(4) 0.05381(10)
O4 O 0.1101(4) 0.1408(4) 0.02572(9)
O5 O 0.2858(4) 0.2177(4) 0.02155(11)
Nd1C Nd 0.0000 0.0000 0.438425(11)
Nd1DA Nd 0.6667 0.3333 0.271758(11)
Nd1HA Nd 0.3333 0.6667 0.228242(11)
Cu1A Cu -0.39176(8) 0.00000(11) 0.2500
Cu1B Cu 0.00000(11) -0.39176(8) 0.2500
Cu1DA Cu 0.05843(8) 0.33333(11) 0.0833
Cu1EA Cu -0.33333(11) -0.27491(8) 0.0833
Cu1Z Cu 0.27491(8) -0.05843(8) 0.0833
Cu1HA Cu 0.33333(11) 0.05843(8) 0.4167
Cu1EA_2 Cu 0.66667(11) 0.72509(8) 0.0833
Cu1IA Cu 0.72509(8) 0.66667(11) 0.4167
N1A N -0.2687(5) 0.0467(6) 0.22385(11)
N1B N -0.0467(6) -0.3154(4) 0.22385(11)
N1C N 0.2687(5) 0.3154(4) 0.27615(11)
N1EA N 0.7134(6) 0.6487(4) 0.10948(11)
N1IA N 0.6487(4) 0.7134(6) 0.39052(11)
N1K N -0.3154(4) -0.0467(6) 0.27615(11)
N1J N 0.0467(6) -0.2687(5) 0.27615(11)
C1A C -0.1671(6) 0.1244(8) 0.23020(14)
C1B C -0.1244(8) -0.2915(6) 0.23020(14)
C1C C 0.1671(6) 0.2915(6) 0.26980(14)
C1EA C 0.7911(8) 0.6248(6) 0.10313(14)
C1IA C 0.6248(6) 0.7911(8) 0.39687(14)
H1A H -0.1538 0.1583 0.2474
H1B H -0.1583 -0.3121 0.2474
H1C H 0.1538 0.3121 0.2526
H1EA H 0.8250 0.6454 0.0859
H1IA H 0.6454 0.8250 0.4141
C2A C -0.0823(6) 0.1560(9) 0.21267(15)
C2B C -0.1560(9) -0.2383(7) 0.21267(15)
C2C C 0.0823(6) 0.2383(7) 0.28733(15)
C2EA C 0.8227(9) 0.5716(7) 0.12066(15)
C2IA C 0.5716(7) 0.8227(9) 0.37934(15)
H2A H -0.0115 0.2138 0.2173
H2B H -0.2138 -0.2253 0.2173
H2C H 0.0115 0.2253 0.2827
H2EA H 0.8805 0.5586 0.1160
H2IA H 0.5586 0.8805 0.3840
C3A C -0.0997(6) 0.1038(9) 0.18815(14)
C3B C -0.1038(9) -0.2035(7) 0.18815(14)
C3C C 0.0997(6) 0.2035(7) 0.31185(14)
C3EA C 0.7705(9) 0.5368(7) 0.14518(14)
C3IA C 0.5368(7) 0.7705(9) 0.35482(14)
H3A H -0.0405 0.1233 0.1761
H3B H -0.1233 -0.1638 0.1761
H3C H 0.0405 0.1638 0.3239
H3EA H 0.7900 0.4971 0.1572
H3IA H 0.4971 0.7900 0.3428
C4A C -0.2038(5) 0.0230(7) 0.18133(13)
C4B C -0.0230(7) -0.2268(5) 0.18133(13)
C4C C 0.2038(5) 0.2268(5) 0.31867(13)
C4EA C 0.6897(7) 0.5601(5) 0.15200(13)
C4IA C 0.5601(5) 0.6897(7) 0.34800(13)
C5A C -0.2860(6) -0.0007(8) 0.19985(13)
C5B C 0.0007(8) -0.2853(5) 0.19985(13)
C5C C 0.2860(6) 0.2853(5) 0.30015(13)
C5EA C 0.6660(8) 0.6186(5) 0.13348(13)
C5IA C 0.6186(5) 0.6660(8) 0.36652(13)
H4A H -0.3588 -0.0538 0.1951
H4B H 0.0538 -0.3050 0.1951
H4C H 0.3588 0.3050 0.3049
H4EA H 0.6129 0.6383 0.1382
H4IA H 0.6383 0.6129 0.3618
C6A C -0.2322(6) -0.0389(8) 0.15643(13)
C6B C 0.0389(8) -0.1933(5) 0.15643(13)
C6C C 0.2322(6) 0.1933(5) 0.34357(13)
C6EA C 0.6278(8) 0.5266(5) 0.17690(13)
C6IA C 0.5266(5) 0.6278(8) 0.32310(13)
H5A H -0.3038 -0.1005 0.1555
H5B H 0.1005 -0.2033 0.1555
H5C H 0.3038 0.2033 0.3445
H5EA H 0.5662 0.5366 0.1778
H5IA H 0.5366 0.5662 0.3222
C7A C -0.1695(6) -0.0195(8) 0.13480(14)
C7B C 0.0195(8) -0.1500(6) 0.13480(14)
C7C C 0.1695(6) 0.1500(6) 0.36520(14)
C7EA C 0.6472(8) 0.4833(6) 0.19853(14)
C7IA C 0.4833(6) 0.6472(8) 0.30147(14)
H6A H -0.0984 0.0430 0.1344
H6B H -0.0430 -0.1414 0.1344
H6C H 0.0984 0.1414 0.3656
H6EA H 0.7097 0.4747 0.1989
H6IA H 0.4747 0.7097 0.3011
C8A C -0.2094(6) -0.0942(8) 0.11128(13)
C8B C 0.0942(8) -0.1152(5) 0.11128(13)
C8C C 0.2094(6) 0.1152(5) 0.38872(13)
C8EA C 0.5725(8) 0.4485(5) 0.22205(13)
C8IA C 0.4485(5) 0.5725(8) 0.27795(13)
O1A O -0.1444(4) -0.0850(6) 0.09312(9)
O1B O 0.0850(6) -0.0594(4) 0.09312(9)
O1C O 0.1444(4) 0.0594(4) 0.40688(9)
O1EA O 0.5817(6) 0.3927(4) 0.24021(9)
O1IA O 0.3927(4) 0.5817(6) 0.25979(9)
O1J O -0.0850(6) -0.1444(4) 0.40688(9)
O1K O -0.0594(4) 0.0850(6) 0.40688(9)
O2A O -0.3075(4) -0.1685(6) 0.11098(9)
O2B O 0.1685(6) -0.1390(4) 0.11098(9)
O2C O 0.3075(4) 0.1390(4) 0.38902(9)
O2EA O 0.4982(6) 0.4723(4) 0.22235(9)
O2IA O 0.4723(4) 0.4982(6) 0.27765(9)
O2HA O -0.4982(6) -0.0258(4) 0.27765(9)
O2Z O -0.4723(4) 0.0258(4) 0.22235(9)
O2DA O -0.0258(4) -0.4982(6) 0.22235(9)
O2Y O 0.0258(4) -0.4723(4) 0.27765(9)
N2A N -0.1563(4) 0.0451(6) 0.03293(12)
N2B N -0.0451(6) -0.2014(5) 0.03293(12)
N2C N 0.1563(4) 0.2014(5) 0.46707(12)
N2J N 0.0451(6) -0.1563(4) 0.46707(12)
N2K N -0.2014(5) -0.0451(6) 0.46707(12)
O3A O -0.1023(4) 0.0994(6) 0.05381(10)
O3B O -0.0994(6) -0.2017(4) 0.05381(10)
O3C O 0.1023(4) 0.2017(4) 0.44619(10)
O3J O 0.0994(6) -0.1023(4) 0.44619(10)
O3K O -0.2017(4) -0.0994(6) 0.44619(10)
O4A O -0.1408(4) -0.0307(6) 0.02572(9)
O4B O 0.0307(6) -0.1101(4) 0.02572(9)
O4C O 0.1408(4) 0.1101(4) 0.47428(9)
O4J O -0.0307(6) -0.1408(4) 0.47428(9)
O4K O -0.1101(4) 0.0307(6) 0.47428(9)
O5A O -0.2177(4) 0.0681(6) 0.02155(11)
O5B O -0.0681(6) -0.2858(4) 0.02155(11)
O5C O 0.2177(4) 0.2858(4) 0.47845(11)
O5J O 0.0681(6) -0.2177(4) 0.47845(11)
O5K O -0.2858(4) -0.0681(6) 0.47845(11)
loop_
_geom_bond_atom_site_label_1
_geom_bond_atom_site_label_2
_geom_bond_site_symmetry_1
_geom_bond_site_symmetry_2
Nd1 O1 1_555 1_555
Cu1 N1 1_555 1_555
N1 C1 1_555 1_555
C1 H1 1_555 1_555
C2 C1 1_555 1_555
H2 C2 1_555 1_555
C3 C2 1_555 1_555
H3 C3 1_555 1_555
C4 C3 1_555 1_555
C5 N1 1_555 1_555
H4 C5 1_555 1_555
C6 C4 1_555 1_555
H5 C6 1_555 1_555
C7 C6 1_555 1_555
H6 C7 1_555 1_555
C8 C7 1_555 1_555
O1 C8 1_555 1_555
O2 C8 1_555 1_555
N2 O3 1_555 1_555
O3 Nd1 1_555 1_555
O4 Nd1 1_555 1_555
O5 N2 1_555 1_555
Nd1C O1C 1_555 1_555
Nd1DA O1EA 1_555 1_555
Nd1HA O1IA 1_555 1_555
Cu1A N1A 1_555 1_555
Cu1B N1B 1_555 1_555
Cu1DA O2 1_555 1_555
Cu1EA O2A 1_555 1_555
Cu1Z O2B 1_555 1_555
Cu1HA O2C 1_555 1_555
Cu1EA_2 N1EA 1_555 1_555
Cu1IA N1IA 1_555 1_555
N1A C1A 1_555 1_555
N1B C1B 1_555 1_555
N1C Cu1 1_555 1_555
N1EA C1EA 1_555 1_555
N1IA C1IA 1_555 1_555
N1K Cu1A 1_555 1_555
N1J Cu1B 1_555 1_555
C1A H1A 1_555 1_555
C1B H1B 1_555 1_555
C1C N1C 1_555 1_555
C1EA H1EA 1_555 1_555
C1IA H1IA 1_555 1_555
H1C C1C 1_555 1_555
C2A C1A 1_555 1_555
C2B C1B 1_555 1_555
C2C C1C 1_555 1_555
C2EA C1EA 1_555 1_555
C2IA C1IA 1_555 1_555
H2A C2A 1_555 1_555
H2B C2B 1_555 1_555
H2C C2C 1_555 1_555
H2EA C2EA 1_555 1_555
H2IA C2IA 1_555 1_555
C3A C2A 1_555 1_555
C3B C2B 1_555 1_555
C3C C2C 1_555 1_555
C3EA C2EA 1_555 1_555
C3IA C2IA 1_555 1_555
H3A C3A 1_555 1_555
H3B C3B 1_555 1_555
H3C C3C 1_555 1_555
H3EA C3EA 1_555 1_555
H3IA C3IA 1_555 1_555
C4A C3A 1_555 1_555
C4B C3B 1_555 1_555
C4C C3C 1_555 1_555
C4EA C3EA 1_555 1_555
C4IA C3IA 1_555 1_555
C5A N1A 1_555 1_555
C5B N1B 1_555 1_555
C5C N1C 1_555 1_555
C5EA N1EA 1_555 1_555
C5IA N1IA 1_555 1_555
H4A C5A 1_555 1_555
H4B C5B 1_555 1_555
H4C C5C 1_555 1_555
H4EA C5EA 1_555 1_555
H4IA C5IA 1_555 1_555
C6A C4A 1_555 1_555
C6B C4B 1_555 1_555
C6C C4C 1_555 1_555
C6EA C4EA 1_555 1_555
C6IA C4IA 1_555 1_555
H5A C6A 1_555 1_555
H5B C6B 1_555 1_555
H5C C6C 1_555 1_555
H5EA C6EA 1_555 1_555
H5IA C6IA 1_555 1_555
C7A C6A 1_555 1_555
C7B C6B 1_555 1_555
C7C C6C 1_555 1_555
C7EA C6EA 1_555 1_555
C7IA C6IA 1_555 1_555
H6A C7A 1_555 1_555
H6B C7B 1_555 1_555
H6C C7C 1_555 1_555
H6EA C7EA 1_555 1_555
H6IA C7IA 1_555 1_555
C8A C7A 1_555 1_555
C8B C7B 1_555 1_555
C8C C7C 1_555 1_555
C8EA C7EA 1_555 1_555
C8IA C7IA 1_555 1_555
O1A Nd1 1_555 1_555
O1B Nd1 1_555 1_555
O1C C8C 1_555 1_555
O1EA C8EA 1_555 1_555
O1IA C8IA 1_555 1_555
O1J Nd1C 1_555 1_555
O1K Nd1C 1_555 1_555
O2A C8A 1_555 1_555
O2B C8B 1_555 1_555
O2C C8C 1_555 1_555
O2EA Cu1 1_555 1_555
O2IA Cu1 1_555 1_555
O2HA Cu1A 1_555 1_555
O2Z Cu1A 1_555 1_555
O2DA Cu1B 1_555 1_555
O2Y Cu1B 1_555 1_555
N2A O3A 1_555 1_555
N2B O3B 1_555 1_555
N2C O3C 1_555 1_555
N2J O3J 1_555 1_555
N2K O3K 1_555 1_555
O3A Nd1 1_555 1_555
O3B Nd1 1_555 1_555
O3C Nd1C 1_555 1_555
O3J Nd1C 1_555 1_555
O3K Nd1C 1_555 1_555
O4A Nd1 1_555 1_555
O4B Nd1 1_555 1_555
O4C Nd1C 1_555 1_555
O4J Nd1C 1_555 1_555
O4K Nd1C 1_555 1_555
O5A N2A 1_555 1_555
O5B N2B 1_555 1_555
O5C N2C 1_555 1_555
O5J N2J 1_555 1_555
O5K N2K 1_555 1_555
C4 C5 1_555 1_555
N2 O4 1_555 1_555
C4A C5A 1_555 1_555
C4B C5B 1_555 1_555
C4C C5C 1_555 1_555
C4EA C5EA 1_555 1_555
C4IA C5IA 1_555 1_555
C8A O1A 1_555 1_555
C8B O1B 1_555 1_555
C8EA O2EA 1_555 1_555
C8IA O2IA 1_555 1_555
N2A O4A 1_555 1_555
N2B O4B 1_555 1_555
N2C O4C 1_555 1_555
N2J O4J 1_555 1_555
N2K O4K 1_555 1_555

#END
