
#######################################################################
#
#                 Cambridge Crystallographic Data Centre
#                                CCDC 
#
#######################################################################
#
# If this CIF has been generated from an entry in the Cambridge 
# Structural Database, then it will include bibliographic, chemical, 
# crystal, experimental, refinement or atomic coordinate data resulting 
# from the CCDC's data processing and validation procedures.
#
#######################################################################

data_YATRIV
_symmetry_cell_setting           monoclinic
_symmetry_space_group_name_H-M   'P 21/c'
_symmetry_Int_Tables_number      14
_space_group_name_Hall           '-P 2ybc'
loop_
_symmetry_equiv_pos_site_id
_symmetry_equiv_pos_as_xyz
1 x,y,z
2 -x,1/2+y,1/2-z
3 -x,-y,-z
4 x,1/2-y,1/2+z
_cell_length_a                   7.4035(11)
_cell_length_b                   12.2381(18)
_cell_length_c                   8.9320(13)
_cell_angle_alpha                90
_cell_angle_beta                 106.190(2)
_cell_angle_gamma                90
_cell_volume                     777.188
loop_
_atom_site_label
_atom_site_type_symbol
_atom_site_fract_x
_atom_site_fract_y
_atom_site_fract_z
Cu1 Cu 0.5000 0.5000 0.5000
C1 C 0.4925(3) 0.34575(15) 0.2475(2)
O1 O 0.59021(19) 0.40440(11) 0.35834(15)
O2 O 0.3446(2) 0.29594(11) 0.24710(15)
C2 C 0.5586(3) 0.34074(15) 0.1042(2)
H1 H 0.4743 0.3129 0.0115
C3 C 0.7269(3) 0.37257(15) 0.0981(2)
H2 H 0.8174 0.3910 0.1931
C4 C 0.7825(3) 0.38113(15) -0.0477(2)
C5 C 0.6512(3) 0.41598(14) -0.1832(2)
H3 H 0.5259 0.4288 -0.1797
N1 N 0.6923(2) 0.43241(12) -0.31848(18)
C6 C 0.8680(3) 0.41082(15) -0.3249(2)
H4 H 0.8977 0.4202 -0.4209
C7 C 1.0065(3) 0.37549(17) -0.1963(2)
H5 H 1.1291 0.3600 -0.2045
C8 C 0.9658(3) 0.36271(17) -0.0548(2)
H6 H 1.0614 0.3417 0.0358
Cu1_2 Cu 0.5000 0.5000 -0.5000
Cu1_3 Cu 0.5000 0.5000 1.5000
C1B C 0.5075(3) 0.65425(15) 0.7525(2)
O1B O 0.40979(19) 0.59560(11) 0.64166(15)
O2B O 0.6554(2) 0.70406(11) 0.75290(15)
C2B C 0.4414(3) 0.65926(15) 0.8958(2)
H1B H 0.5257 0.6871 0.9885
C3B C 0.2731(3) 0.62743(15) 0.9019(2)
H2B H 0.1826 0.6090 0.8069
C4B C 0.2175(3) 0.61887(15) 1.0477(2)
C5B C 0.3488(3) 0.58402(14) 1.1832(2)
H3B H 0.4741 0.5712 1.1797
N1B N 0.3077(2) 0.56759(12) 1.31848(18)
N1_2 N 0.6923(2) 0.43241(12) 0.68152(18)
N1B_2 N 0.3077(2) 0.56759(12) 0.31848(18)
C6B C 0.1320(3) 0.58918(15) 1.3249(2)
H4B H 0.1023 0.5798 1.4209
C7B C -0.0065(3) 0.62451(17) 1.1963(2)
H5B H -0.1291 0.6400 1.2045
C8B C 0.0342(3) 0.63729(17) 1.0548(2)
H6B H -0.0614 0.6583 0.9642
O3 O 0.2472(2) 0.37171(12) 0.51209(17)
H7 H 0.256(3) 0.348(2) 0.430(2)
H8 H 0.273(3) 0.3225(17) 0.575(3)
loop_
_geom_bond_atom_site_label_1
_geom_bond_atom_site_label_2
_geom_bond_site_symmetry_1
_geom_bond_site_symmetry_2
Cu1 O1 1_555 1_555
C1 O1 1_555 1_555
O2 C1 1_555 1_555
C2 C1 1_555 1_555
H1 C2 1_555 1_555
C3 C2 1_555 1_555
H2 C3 1_555 1_555
C4 C3 1_555 1_555
C5 C4 1_555 1_555
H3 C5 1_555 1_555
N1 C5 1_555 1_555
C6 N1 1_555 1_555
H4 C6 1_555 1_555
C7 C6 1_555 1_555
H5 C7 1_555 1_555
C8 C4 1_555 1_555
H6 C8 1_555 1_555
O3 H7 1_555 1_555
H8 O3 1_555 1_555
Cu1_2 N1 1_555 1_555
Cu1_3 N1B 1_555 1_555
C1B O1B 1_555 1_555
O1B Cu1 1_555 1_555
O2B C1B 1_555 1_555
C2B C1B 1_555 1_555
H1B C2B 1_555 1_555
C3B C2B 1_555 1_555
H2B C3B 1_555 1_555
C4B C3B 1_555 1_555
C5B C4B 1_555 1_555
H3B C5B 1_555 1_555
N1B C5B 1_555 1_555
N1_2 Cu1 1_555 1_555
N1B_2 Cu1 1_555 1_555
C6B N1B 1_555 1_555
H4B C6B 1_555 1_555
C7B C6B 1_555 1_555
H5B C7B 1_555 1_555
C8B C4B 1_555 1_555
H6B C8B 1_555 1_555
C7 C8 1_555 1_555
C7B C8B 1_555 1_555

#END
