
#######################################################################
#
#                 Cambridge Crystallographic Data Centre
#                                CCDC 
#
#######################################################################
#
# If this CIF has been generated from an entry in the Cambridge 
# Structural Database, then it will include bibliographic, chemical, 
# crystal, experimental, refinement or atomic coordinate data resulting 
# from the CCDC's data processing and validation procedures.
#
#######################################################################

data_YATRIV01
_symmetry_cell_setting           monoclinic
_symmetry_space_group_name_H-M   'P 21/c'
_symmetry_Int_Tables_number      14
_space_group_name_Hall           '-P 2ybc'
loop_
_symmetry_equiv_pos_site_id
_symmetry_equiv_pos_as_xyz
1 x,y,z
2 -x,1/2+y,1/2-z
3 -x,-y,-z
4 x,1/2-y,1/2+z
_cell_length_a                   7.43250(12)
_cell_length_b                   12.34721(13)
_cell_length_c                   8.93409(13)
_cell_angle_alpha                90
_cell_angle_beta                 106.2150(10)
_cell_angle_gamma                90
_cell_volume                     787.273
loop_
_atom_site_label
_atom_site_type_symbol
_atom_site_fract_x
_atom_site_fract_y
_atom_site_fract_z
O1 O 0.2471(11) 0.1319(4) 0.0139(9)
C1 C 0.2228(10) -0.1201(5) -0.4521(7)
C2 C 0.0398(11) -0.1432(5) -0.4457(8)
C3 C 0.3555(8) -0.0845(6) -0.3178(10)
C4 C 0.2740(11) -0.1280(6) -0.6015(7)
C5 C -0.0074(9) -0.1271(6) -0.3047(11)
C6 C 0.5025(8) -0.1545(5) -0.7409(7)
C7 C 0.4451(11) -0.1603(6) -0.5991(7)
C8 C 0.1290(13) -0.0915(6) -0.1744(9)
N1 N 0.3063(11) -0.0742(5) -0.1825(7)
O2 O 0.6462(10) -0.2011(4) -0.7498(8)
O3 O 0.4053(9) -0.0939(5) -0.8562(7)
Cu1 Cu 0.5000 0.0000 0.0000
O1B O 0.7529(11) -0.1319(4) -0.0139(9)
C1B C 0.7772(10) 0.1201(5) 0.4521(7)
C2B C 0.9602(11) 0.1432(5) 0.4457(8)
C3B C 0.6445(8) 0.0845(6) 0.3178(10)
C4B C 0.7260(11) 0.1280(6) 0.6015(7)
C5B C 1.0074(9) 0.1271(6) 0.3047(11)
C6B C 0.4975(8) 0.1545(5) 0.7409(7)
C7B C 0.5549(11) 0.1603(6) 0.5991(7)
C8B C 0.8710(13) 0.0915(6) 0.1744(9)
N1B N 0.6937(11) 0.0742(5) 0.1825(7)
O2B O 0.3538(10) 0.2011(4) 0.7498(8)
O3B O 0.5947(9) 0.0939(5) 0.8562(7)
O3_2 O 0.4053(9) -0.0939(5) 0.1438(7)
O3B_2 O 0.5947(9) 0.0939(5) -0.1438(7)
Cu1_2 Cu 0.5000 0.0000 -1.0000
Cu1_3 Cu 0.5000 0.0000 1.0000
loop_
_geom_bond_atom_site_label_1
_geom_bond_atom_site_label_2
_geom_bond_site_symmetry_1
_geom_bond_site_symmetry_2
O1 Cu1 1_555 1_555
C1 C2 1_555 1_555
C2 C5 1_555 1_555
C3 C1 1_555 1_555
C4 C1 1_555 1_555
C5 C8 1_555 1_555
C6 C7 1_555 1_555
C7 C4 1_555 1_555
C8 N1 1_555 1_555
N1 C3 1_555 1_555
O2 C6 1_555 1_555
O3 C6 1_555 1_555
Cu1 N1 1_555 1_555
O1B Cu1 1_555 1_555
C1B C2B 1_555 1_555
C2B C5B 1_555 1_555
C3B C1B 1_555 1_555
C4B C1B 1_555 1_555
C5B C8B 1_555 1_555
C6B C7B 1_555 1_555
C7B C4B 1_555 1_555
C8B N1B 1_555 1_555
N1B Cu1 1_555 1_555
O2B C6B 1_555 1_555
O3B C6B 1_555 1_555
O3_2 Cu1 1_555 1_555
O3B_2 Cu1 1_555 1_555
Cu1_2 O3 1_555 1_555
Cu1_3 O3B 1_555 1_555
C3B N1B 1_555 1_555

#END
