
#######################################################################
#
#                 Cambridge Crystallographic Data Centre
#                                CCDC 
#
#######################################################################
#
# If this CIF has been generated from an entry in the Cambridge 
# Structural Database, then it will include bibliographic, chemical, 
# crystal, experimental, refinement or atomic coordinate data resulting 
# from the CCDC's data processing and validation procedures.
#
#######################################################################

data_YATSET
_symmetry_cell_setting           orthorhombic
_symmetry_space_group_name_H-M   'P b c a'
_symmetry_Int_Tables_number      61
_space_group_name_Hall           '-P 2ac 2ab'
loop_
_symmetry_equiv_pos_site_id
_symmetry_equiv_pos_as_xyz
1 x,y,z
2 1/2-x,-y,1/2+z
3 -x,1/2+y,1/2-z
4 1/2+x,1/2-y,-z
5 -x,-y,-z
6 1/2+x,y,1/2-z
7 x,1/2-y,1/2+z
8 1/2-x,1/2+y,z
_cell_length_a                   15.3105(8)
_cell_length_b                   7.2983(4)
_cell_length_c                   29.5679(15)
_cell_angle_alpha                90
_cell_angle_beta                 90
_cell_angle_gamma                90
_cell_volume                     3303.94
loop_
_atom_site_label
_atom_site_type_symbol
_atom_site_fract_x
_atom_site_fract_y
_atom_site_fract_z
C1 C 0.64689(18) 0.1531(4) 0.11609(9)
C2 C 0.69797(18) 0.0972(4) 0.15690(8)
C3 C 0.65262(17) 0.0449(4) 0.19532(9)
H1 H 0.5899 0.0458 0.1951
C4 C 0.69635(17) -0.0086(4) 0.23421(8)
C5 C 0.78763(17) -0.0105(4) 0.23556(8)
C6 C 0.83264(19) 0.0454(4) 0.19657(9)
H2 H 0.8953 0.0471 0.1969
C7 C 0.78842(19) 0.0987(4) 0.15843(9)
H3 H 0.8207 0.1367 0.1323
C8 C 0.79744(17) -0.0200(4) 0.31735(8)
C9 C 0.70693(17) -0.0173(4) 0.32467(8)
C10 C 0.67305(17) 0.0274(4) 0.36651(9)
H4 H 0.6109 0.0300 0.3708
C11 C 0.72820(17) 0.0696(3) 0.40252(8)
C12 C 0.69238(17) 0.1164(4) 0.44740(8)
C13 C 0.81794(18) 0.0699(4) 0.39510(9)
H5 H 0.8563 0.1008 0.4196
C14 C 0.85212(17) 0.0271(4) 0.35350(9)
H6 H 0.9142 0.0295 0.3491
C15 C 0.92396(18) -0.1018(4) 0.27125(10)
H7 H 0.9461 -0.1404 0.3001
H8 H 0.9348 -0.1955 0.2492
H9 H 0.9527 0.0093 0.2622
Co1 Co 0.63098(2) 0.19466(5) 0.523713(12)
N1 N 0.83090(14) -0.0684(3) 0.27475(7)
O1 O 0.74252(13) 0.1653(3) 0.47923(6)
O2 O 0.61043(12) 0.1094(3) 0.45464(6)
O3 O 0.56576(13) 0.1431(3) 0.11768(7)
O4 O 0.68927(13) 0.2090(3) 0.08152(6)
O5 O 0.64958(14) -0.0747(3) 0.54390(8)
H10 H 0.6117 -0.1448 0.5558
H11 H 0.7035 -0.1014 0.5420
O6 O 0.61132(15) 0.4686(3) 0.50278(7)
H12 H 0.6603 0.5165 0.4962
H13 H 0.5731 0.5414 0.5134
O7 O 0.50146(14) 0.1985(3) 0.54566(7)
H14 H 0.4691 0.1071 0.5516
H15 H 0.4990 0.2478 0.5717
S1 S 0.63643(4) -0.08955(10) 0.28101(2)
Co1F Co 0.63098(2) 0.30534(5) 0.023713(12)
O4F O 0.68927(13) 0.2910(3) 0.58152(6)
O8 O 0.53016(16) 0.7045(4) 0.58142(10)
H16 H 0.5528 0.6002 0.5865
H17 H 0.4840 0.7002 0.5655
loop_
_geom_bond_atom_site_label_1
_geom_bond_atom_site_label_2
_geom_bond_site_symmetry_1
_geom_bond_site_symmetry_2
C1 C2 1_555 1_555
C2 C3 1_555 1_555
C3 H1 1_555 1_555
C4 C3 1_555 1_555
C5 C4 1_555 1_555
C6 C5 1_555 1_555
H2 C6 1_555 1_555
C7 C2 1_555 1_555
H3 C7 1_555 1_555
C8 C9 1_555 1_555
C9 C10 1_555 1_555
C10 H4 1_555 1_555
C11 C10 1_555 1_555
C12 C11 1_555 1_555
C13 C11 1_555 1_555
H5 C13 1_555 1_555
C14 C8 1_555 1_555
H6 C14 1_555 1_555
C15 H7 1_555 1_555
H8 C15 1_555 1_555
H9 C15 1_555 1_555
Co1 O1 1_555 1_555
N1 C5 1_555 1_555
O1 C12 1_555 1_555
O2 C12 1_555 1_555
O3 C1 1_555 1_555
O4 C1 1_555 1_555
O5 Co1 1_555 1_555
H10 O5 1_555 1_555
H11 O5 1_555 1_555
O6 Co1 1_555 1_555
H12 O6 1_555 1_555
H13 O6 1_555 1_555
O7 Co1 1_555 1_555
H14 O7 1_555 1_555
H15 O7 1_555 1_555
O8 H16 1_555 1_555
H17 O8 1_555 1_555
S1 C4 1_555 1_555
Co1F O4 1_555 1_555
O4F Co1 1_555 1_555
C6 C7 1_555 1_555
C8 N1 1_555 1_555
C9 S1 1_555 1_555
C13 C14 1_555 1_555
C15 N1 1_555 1_555
Co1 O2 1_555 1_555

#END
