
#######################################################################
#
#                 Cambridge Crystallographic Data Centre
#                                CCDC 
#
#######################################################################
#
# If this CIF has been generated from an entry in the Cambridge 
# Structural Database, then it will include bibliographic, chemical, 
# crystal, experimental, refinement or atomic coordinate data resulting 
# from the CCDC's data processing and validation procedures.
#
#######################################################################

data_YATSUJ
_symmetry_cell_setting           monoclinic
_symmetry_space_group_name_H-M   'P 21/n'
_symmetry_Int_Tables_number      14
_space_group_name_Hall           '-P 2yn'
loop_
_symmetry_equiv_pos_site_id
_symmetry_equiv_pos_as_xyz
1 x,y,z
2 1/2-x,1/2+y,1/2-z
3 -x,-y,-z
4 1/2+x,1/2-y,1/2+z
_cell_length_a                   8.1565(16)
_cell_length_b                   12.554(3)
_cell_length_c                   18.411(4)
_cell_angle_alpha                90
_cell_angle_beta                 101.08(3)
_cell_angle_gamma                90
_cell_volume                     1850.08
loop_
_atom_site_label
_atom_site_type_symbol
_atom_site_fract_x
_atom_site_fract_y
_atom_site_fract_z
N1 N 0.1785(4) 0.2607(2) 0.64336(16)
C1 C 0.2231(5) 0.3586(3) 0.6299(2)
H1 H 0.2570 0.4097 0.6663
N2 N 0.2135(4) 0.3755(2) 0.55687(16)
C2 C 0.2497(5) 0.4730(3) 0.5231(2)
C3 C 0.3472(6) 0.5486(3) 0.5650(2)
H2 H 0.3939 0.5347 0.6143
C4 C 0.3752(6) 0.6452(3) 0.5337(2)
H3 H 0.4387 0.6964 0.5630
C5 C 0.3122(5) 0.6681(3) 0.4604(2)
Zn1 Zn 0.67056(5) 1.30302(3) 0.24360(2)
N3 N 0.5135(4) 1.2116(2) 0.28937(16)
N4 N 0.4081(4) 1.0778(2) 0.34273(17)
C6 C 0.5385(5) 1.1127(3) 0.3145(2)
H4 H 0.6337 1.0728 0.3128
C7 C 0.3587(5) 1.2400(3) 0.3021(2)
H5 H 0.3073 1.3055 0.2900
C8 C 0.2931(5) 1.1594(3) 0.3345(2)
H6 H 0.1897 1.1585 0.3488
C9 C 0.3885(4) 0.9745(3) 0.3733(2)
C10 C 0.4253(5) 0.8852(3) 0.3368(2)
H7 H 0.4660 0.8918 0.2931
C11 C 0.4018(5) 0.7850(3) 0.3650(2)
H8 H 0.4273 0.7245 0.3402
C12 C 0.3404(5) 0.7745(3) 0.4297(2)
C13 C 0.3060(5) 0.8666(3) 0.4660(2)
H9 H 0.2670 0.8609 0.5101
C14 C 0.3285(5) 0.9661(3) 0.4380(2)
H10 H 0.3033 1.0269 0.4625
C15 C 0.1364(6) 0.2126(3) 0.5758(2)
H11 H 0.0996 0.1427 0.5680
C16 C 0.1562(6) 0.2820(3) 0.5223(2)
H12 H 0.1352 0.2690 0.4716
C17 C 0.1883(5) 0.4928(3) 0.4495(2)
H13 H 0.1239 0.4417 0.4205
C18 C 0.2221(5) 0.5887(3) 0.4187(2)
H14 H 0.1832 0.6001 0.3684
Cl1 Cl 0.56577(14) 1.46719(8) 0.22217(6)
Cl2 Cl 0.91696(13) 1.29605(10) 0.32170(6)
N1C N 0.6785(4) 1.2393(2) 0.14336(16)
Zn1C Zn 0.17056(5) 0.19698(3) 0.74360(2)
O1 O 0.0484(16) 0.9183(11) 0.5755(7)
H15 H 0.0526 0.9507 0.6164
H16 H 0.0731 0.8530 0.5831
loop_
_geom_bond_atom_site_label_1
_geom_bond_atom_site_label_2
_geom_bond_site_symmetry_1
_geom_bond_site_symmetry_2
N1 C1 1_555 1_555
C1 H1 1_555 1_555
N2 C1 1_555 1_555
C2 N2 1_555 1_555
C3 C2 1_555 1_555
H2 C3 1_555 1_555
C4 C3 1_555 1_555
H3 C4 1_555 1_555
C5 C4 1_555 1_555
Zn1 N3 1_555 1_555
N3 C6 1_555 1_555
N4 C6 1_555 1_555
C6 H4 1_555 1_555
C7 N3 1_555 1_555
H5 C7 1_555 1_555
C8 N4 1_555 1_555
H6 C8 1_555 1_555
C9 N4 1_555 1_555
C10 C9 1_555 1_555
H7 C10 1_555 1_555
C11 C10 1_555 1_555
H8 C11 1_555 1_555
C12 C5 1_555 1_555
C13 C12 1_555 1_555
H9 C13 1_555 1_555
C14 C9 1_555 1_555
H10 C14 1_555 1_555
C15 N1 1_555 1_555
H11 C15 1_555 1_555
C16 N2 1_555 1_555
H12 C16 1_555 1_555
C17 C2 1_555 1_555
H13 C17 1_555 1_555
C18 C5 1_555 1_555
H14 C18 1_555 1_555
Cl1 Zn1 1_555 1_555
Cl2 Zn1 1_555 1_555
O1 H15 1_555 1_555
H16 O1 1_555 1_555
N1C Zn1 1_555 1_555
Zn1C N1 1_555 1_555
C7 C8 1_555 1_555
C11 C12 1_555 1_555
C13 C14 1_555 1_555
C15 C16 1_555 1_555
C17 C18 1_555 1_555

#END
