
#######################################################################
#
#                 Cambridge Crystallographic Data Centre
#                                CCDC 
#
#######################################################################
#
# If this CIF has been generated from an entry in the Cambridge 
# Structural Database, then it will include bibliographic, chemical, 
# crystal, experimental, refinement or atomic coordinate data resulting 
# from the CCDC's data processing and validation procedures.
#
#######################################################################

data_YATSOD
_symmetry_cell_setting           monoclinic
_symmetry_space_group_name_H-M   'C 2/c'
_symmetry_Int_Tables_number      15
_space_group_name_Hall           '-C 2yn'
loop_
_symmetry_equiv_pos_site_id
_symmetry_equiv_pos_as_xyz
1 x,y,z
2 -x,y,1/2-z
3 1/2+x,1/2+y,z
4 1/2-x,1/2+y,1/2-z
5 -x,-y,-z
6 x,-y,1/2+z
7 1/2-x,1/2-y,-z
8 1/2+x,1/2-y,1/2+z
_cell_length_a                   10.617(2)
_cell_length_b                   12.108(2)
_cell_length_c                   14.652(3)
_cell_angle_alpha                90
_cell_angle_beta                 95.07(3)
_cell_angle_gamma                90
_cell_volume                     1876.15
loop_
_atom_site_label
_atom_site_type_symbol
_atom_site_fract_x
_atom_site_fract_y
_atom_site_fract_z
Cu1 Cu 0.2500 0.2500 0.5000
F1 F 0.3887(2) -0.0988(2) 0.4884(2)
F2 F 0.5087(3) 0.0006(2) 0.38606(17)
F3 F 0.3866(2) 0.09883(19) 0.48968(18)
Si1 Si 0.5000 0.0000 0.5000
N1 N 0.2744(3) 0.2900(3) 0.3698(2)
N2 N 0.2000(3) 0.3633(3) 0.3217(3)
H1 H 0.1452 0.4044 0.3451
N3 N 0.1011(3) 0.1589(3) 0.4510(2)
N4 N -0.0206(4) 0.1865(3) 0.4494(3)
H2 H -0.0480 0.2459 0.4730
C1 C 0.2212(5) 0.3646(4) 0.2340(3)
H3 H 0.1801 0.4084 0.1885
C2 C 0.3147(5) 0.2895(4) 0.2227(3)
H4 H 0.3503 0.2723 0.1687
C3 C 0.3449(4) 0.2448(4) 0.3085(3)
H5 H 0.4059 0.1907 0.3219
C4 C -0.0944(5) 0.1099(4) 0.4063(4)
H6 H -0.1822 0.1118 0.3971
C5 C -0.0190(5) 0.0291(4) 0.3785(3)
H7 H -0.0430 -0.0351 0.3467
C6 C 0.1020(4) 0.0633(4) 0.4078(3)
H8 H 0.1749 0.0238 0.3984
Cu1B Cu 0.7500 -0.2500 0.5000
F1D F 0.6113(2) 0.0988(2) 0.5116(2)
F2D F 0.4913(3) -0.0006(2) 0.61394(17)
F3D F 0.6134(2) -0.09883(19) 0.51032(18)
F3F F 0.1134(2) 0.40117(19) 0.51032(18)
N1F N 0.2256(3) 0.2100(3) 0.6302(2)
N2F N 0.3000(3) 0.1367(3) 0.6783(3)
H1F H 0.3548 0.0956 0.6549
N3F N 0.3989(3) 0.3411(3) 0.5490(2)
N4F N 0.5206(4) 0.3135(3) 0.5506(3)
H2F H 0.5480 0.2541 0.5270
C1F C 0.2788(5) 0.1354(4) 0.7660(3)
H3F H 0.3199 0.0916 0.8115
C2F C 0.1853(5) 0.2105(4) 0.7773(3)
H4F H 0.1497 0.2277 0.8313
C3F C 0.1551(4) 0.2552(4) 0.6915(3)
H5F H 0.0941 0.3093 0.6781
C4F C 0.5944(5) 0.3901(4) 0.5937(4)
H6F H 0.6822 0.3882 0.6029
C5F C 0.5190(5) 0.4709(4) 0.6215(3)
H7F H 0.5430 0.5351 0.6533
C6F C 0.3980(4) 0.4367(4) 0.5922(3)
H8F H 0.3251 0.4762 0.6016
loop_
_geom_bond_atom_site_label_1
_geom_bond_atom_site_label_2
_geom_bond_site_symmetry_1
_geom_bond_site_symmetry_2
Cu1 F3 1_555 1_555
F1 Si1 1_555 1_555
F2 Si1 1_555 1_555
F3 Si1 1_555 1_555
Si1 F1D 1_555 1_555
N1 Cu1 1_555 1_555
N2 N1 1_555 1_555
H1 N2 1_555 1_555
N3 Cu1 1_555 1_555
N4 N3 1_555 1_555
H2 N4 1_555 1_555
C1 N2 1_555 1_555
H3 C1 1_555 1_555
C2 C1 1_555 1_555
H4 C2 1_555 1_555
C3 N1 1_555 1_555
H5 C3 1_555 1_555
C4 N4 1_555 1_555
H6 C4 1_555 1_555
C5 C4 1_555 1_555
H7 C5 1_555 1_555
C6 N3 1_555 1_555
H8 C6 1_555 1_555
Cu1B F3D 1_555 1_555
F2D Si1 1_555 1_555
F3D Si1 1_555 1_555
F3F Cu1 1_555 1_555
N1F Cu1 1_555 1_555
N2F N1F 1_555 1_555
H1F N2F 1_555 1_555
N3F Cu1 1_555 1_555
N4F N3F 1_555 1_555
H2F N4F 1_555 1_555
C1F N2F 1_555 1_555
H3F C1F 1_555 1_555
C2F C1F 1_555 1_555
H4F C2F 1_555 1_555
C3F N1F 1_555 1_555
H5F C3F 1_555 1_555
C4F N4F 1_555 1_555
H6F C4F 1_555 1_555
C5F C4F 1_555 1_555
H7F C5F 1_555 1_555
C6F N3F 1_555 1_555
H8F C6F 1_555 1_555
C2 C3 1_555 1_555
C5 C6 1_555 1_555
C2F C3F 1_555 1_555
C5F C6F 1_555 1_555

#END
