
#######################################################################
#
#                 Cambridge Crystallographic Data Centre
#                                CCDC 
#
#######################################################################
#
# If this CIF has been generated from an entry in the Cambridge 
# Structural Database, then it will include bibliographic, chemical, 
# crystal, experimental, refinement or atomic coordinate data resulting 
# from the CCDC's data processing and validation procedures.
#
#######################################################################

data_YATTUK
_symmetry_cell_setting           monoclinic
_symmetry_space_group_name_H-M   'P 21/n'
_symmetry_Int_Tables_number      14
_space_group_name_Hall           '-P 2yn'
loop_
_symmetry_equiv_pos_site_id
_symmetry_equiv_pos_as_xyz
1 x,y,z
2 1/2-x,1/2+y,1/2-z
3 -x,-y,-z
4 1/2+x,1/2-y,1/2+z
_cell_length_a                   10.8924(6)
_cell_length_b                   16.7740(9)
_cell_length_c                   10.9631(6)
_cell_angle_alpha                90
_cell_angle_beta                 102.2540(10)
_cell_angle_gamma                90
_cell_volume                     1957.42
loop_
_atom_site_label
_atom_site_type_symbol
_atom_site_fract_x
_atom_site_fract_y
_atom_site_fract_z
Tb1 Tb 0.65099(3) 0.112365(17) -0.08321(3)
C1 C 0.6570(6) 0.2120(4) 0.1214(6)
C2 C 0.6452(6) 0.2784(4) 0.2122(6)
C3 C 0.7451(6) 0.3279(3) 0.2632(6)
H1 H 0.8227 0.3194 0.2428
C4 C 0.7325(5) 0.3896(4) 0.3438(5)
C5 C 0.6154(5) 0.4017(3) 0.3746(5)
H2 H 0.6065 0.4423 0.4298
C6 C 0.5112(6) 0.3539(4) 0.3241(6)
C7 C 0.5287(6) 0.2932(4) 0.2434(6)
H3 H 0.4607 0.2610 0.2087
C8 C 0.8415(6) 0.4454(4) 0.3953(6)
C9 C 0.3875(6) 0.3652(4) 0.3574(6)
C10 C 0.5469(7) 0.2846(5) -0.2411(8)
C11 C 0.5890(9) 0.2864(5) -0.3628(8)
H4 H 0.6323 0.2377 -0.3727
H5 H 0.6446 0.3307 -0.3633
H6 H 0.5172 0.2918 -0.4302
C12 C 0.4520(11) 0.3475(6) -0.0923(11)
H7 H 0.4480 0.2935 -0.0647
H8 H 0.3688 0.3694 -0.1135
H9 H 0.5023 0.3786 -0.0267
C13 C 0.4954(11) 0.4249(6) -0.2661(10)
H10 H 0.5156 0.4176 -0.3464
H11 H 0.5519 0.4630 -0.2189
H12 H 0.4107 0.4440 -0.2767
C14 C 0.6376(9) -0.0207(8) -0.3242(9)
C15 C 0.5893(11) -0.0955(5) -0.2590(11)
H13 H 0.6059 -0.1434 -0.3006
H14 H 0.5005 -0.0907 -0.2640
H15 H 0.6321 -0.0977 -0.1730
C16 C 0.6552(11) -0.1129(6) -0.4926(10)
H16 H 0.6042 -0.1519 -0.4627
H17 H 0.7388 -0.1334 -0.4849
H18 H 0.6200 -0.1013 -0.5787
C17 C 0.7101(10) 0.0352(7) -0.4836(10)
H19 H 0.6452 0.0544 -0.5505
H20 H 0.7820 0.0201 -0.5159
H21 H 0.7332 0.0764 -0.4224
N1 N 0.5073(8) 0.3492(5) -0.1998(8)
N2 N 0.6593(8) -0.0410(5) -0.4200(8)
O1 O 0.7562(4) 0.2041(3) 0.0827(4)
O2 O 0.5632(4) 0.1690(3) 0.0810(4)
O3 O 0.3021(4) 0.3156(2) 0.3202(4)
O4 O 0.3703(4) 0.4242(2) 0.4224(4)
O5 O 0.8182(4) 0.5022(2) 0.4600(4)
O6 O 0.9428(4) 0.4319(2) 0.3650(4)
O7 O 0.5483(4) 0.2215(3) -0.1834(5)
O8 O 0.6406(5) 0.0438(3) -0.2719(5)
Tb1A Tb 0.84901(3) 0.612365(17) 0.58321(3)
Tb1C Tb 0.15099(3) 0.387635(17) 0.41679(3)
Tb1C_2 Tb 1.15099(3) 0.387635(17) 0.41679(3)
O3C O 0.8021(4) 0.1844(2) -0.1798(4)
O4C O 0.8703(4) 0.0758(2) -0.0776(4)
O5A O 0.6818(4) 0.0022(2) 0.0400(4)
O6C O 0.4428(4) 0.0681(2) -0.1350(4)
loop_
_geom_bond_atom_site_label_1
_geom_bond_atom_site_label_2
_geom_bond_site_symmetry_1
_geom_bond_site_symmetry_2
Tb1 O1 1_555 1_555
C1 C2 1_555 1_555
C2 C3 1_555 1_555
C3 H1 1_555 1_555
C4 C3 1_555 1_555
C5 C4 1_555 1_555
H2 C5 1_555 1_555
C6 C5 1_555 1_555
C7 C2 1_555 1_555
H3 C7 1_555 1_555
C8 C4 1_555 1_555
C9 C6 1_555 1_555
C10 C11 1_555 1_555
C11 H4 1_555 1_555
H5 C11 1_555 1_555
H6 C11 1_555 1_555
C12 H7 1_555 1_555
H8 C12 1_555 1_555
H9 C12 1_555 1_555
C13 H10 1_555 1_555
H11 C13 1_555 1_555
H12 C13 1_555 1_555
C14 C15 1_555 1_555
C15 H13 1_555 1_555
H14 C15 1_555 1_555
H15 C15 1_555 1_555
C16 H16 1_555 1_555
H17 C16 1_555 1_555
H18 C16 1_555 1_555
C17 H19 1_555 1_555
H20 C17 1_555 1_555
H21 C17 1_555 1_555
N1 C10 1_555 1_555
N2 C14 1_555 1_555
O1 C1 1_555 1_555
O2 Tb1 1_555 1_555
O3 C9 1_555 1_555
O4 C9 1_555 1_555
O5 C8 1_555 1_555
O6 C8 1_555 1_555
O7 Tb1 1_555 1_555
O8 Tb1 1_555 1_555
Tb1A O5 1_555 1_555
Tb1C O3 1_555 1_555
Tb1C_2 O6 1_555 1_555
O3C Tb1 1_555 1_555
O4C Tb1 1_555 1_555
O5A Tb1 1_555 1_555
O6C Tb1 1_555 1_555
C1 O2 1_555 1_555
C6 C7 1_555 1_555
C10 O7 1_555 1_555
C12 N1 1_555 1_555
C13 N1 1_555 1_555
C14 O8 1_555 1_555
C16 N2 1_555 1_555
C17 N2 1_555 1_555
O4 Tb1C 1_555 1_555

#END
