
#######################################################################
#
#                 Cambridge Crystallographic Data Centre
#                                CCDC 
#
#######################################################################
#
# If this CIF has been generated from an entry in the Cambridge 
# Structural Database, then it will include bibliographic, chemical, 
# crystal, experimental, refinement or atomic coordinate data resulting 
# from the CCDC's data processing and validation procedures.
#
#######################################################################

data_YATVUM
_symmetry_cell_setting           monoclinic
_symmetry_space_group_name_H-M   'P 21/n'
_symmetry_Int_Tables_number      14
_space_group_name_Hall           '-P 2yn'
loop_
_symmetry_equiv_pos_site_id
_symmetry_equiv_pos_as_xyz
1 x,y,z
2 1/2-x,1/2+y,1/2-z
3 -x,-y,-z
4 1/2+x,1/2-y,1/2+z
_cell_length_a                   11.1706(8)
_cell_length_b                   8.6735(6)
_cell_length_c                   19.0956(14)
_cell_angle_alpha                90
_cell_angle_beta                 100.9780(10)
_cell_angle_gamma                90
_cell_volume                     1816.28
loop_
_atom_site_label
_atom_site_type_symbol
_atom_site_fract_x
_atom_site_fract_y
_atom_site_fract_z
Cu1 Cu 0.40542(4) 0.22472(5) 0.23431(3)
S1 S 0.39013(7) 0.38008(9) 0.11883(4)
S2 S 0.51157(8) 0.14604(12) 0.39459(5)
S3 S 0.05933(8) 0.47654(10) 0.29022(5)
N1 N 0.4820(3) 0.2133(3) 0.02977(15)
N2 N 0.6034(2) 0.4274(3) 0.07782(14)
N3 N 0.5545(2) 0.3694(3) 0.26678(12)
N4 N 0.6536(3) 0.3205(4) 0.49195(15)
N5 N 0.4632(3) 0.2354(4) 0.51544(18)
N6 N 0.2579(3) 0.3150(3) 0.25756(16)
C1 C 0.5066(3) 0.3375(4) 0.07088(15)
C2 C 0.5642(3) 0.1795(4) -0.00998(18)
H1 H 0.5505 0.0949 -0.0404
C3 C 0.6680(3) 0.2642(4) -0.00794(18)
H2 H 0.7248 0.2391 -0.0360
C4 C 0.6842(3) 0.3875(4) 0.03729(18)
H3 H 0.7544 0.4465 0.0401
C5 C 0.4517(3) 0.5411(4) 0.17298(17)
H4 H 0.4792 0.6173 0.1424
H5 H 0.3865 0.5875 0.1928
C6 C 0.5557(3) 0.5052(3) 0.23334(15)
C7 C 0.6469(3) 0.6129(4) 0.25452(18)
H6 H 0.6454 0.7066 0.2307
C8 C 0.7392(3) 0.5806(5) 0.31075(19)
H7 H 0.8015 0.6513 0.3254
C9 C 0.7378(3) 0.4420(4) 0.34490(18)
H8 H 0.7993 0.4179 0.3834
C10 C 0.6455(3) 0.3388(4) 0.32216(16)
C11 C 0.6440(3) 0.1836(4) 0.35597(19)
H9 H 0.7163 0.1736 0.3930
H10 H 0.6487 0.1055 0.3202
C12 C 0.5486(3) 0.2465(4) 0.47565(18)
C13 C 0.6736(4) 0.3913(5) 0.5549(2)
H11 H 0.7461 0.4454 0.5686
C14 C 0.5936(4) 0.3884(6) 0.5997(2)
H12 H 0.6095 0.4388 0.6435
C15 C 0.4898(4) 0.3090(7) 0.5780(2)
H13 H 0.4334 0.3051 0.6080
C16 C 0.1773(3) 0.3838(3) 0.26969(16)
Cu1A Cu 0.09458(4) 0.72472(5) 0.26569(3)
S3A S 0.44067(8) -0.02346(10) 0.20978(5)
loop_
_geom_bond_atom_site_label_1
_geom_bond_atom_site_label_2
_geom_bond_site_symmetry_1
_geom_bond_site_symmetry_2
Cu1 S1 1_555 1_555
S1 C1 1_555 1_555
S2 C11 1_555 1_555
S3 C16 1_555 1_555
N1 C1 1_555 1_555
N2 C1 1_555 1_555
N3 Cu1 1_555 1_555
N4 C12 1_555 1_555
N5 C12 1_555 1_555
N6 Cu1 1_555 1_555
C2 N1 1_555 1_555
H1 C2 1_555 1_555
C3 C2 1_555 1_555
H2 C3 1_555 1_555
C4 N2 1_555 1_555
H3 C4 1_555 1_555
C5 S1 1_555 1_555
H4 C5 1_555 1_555
H5 C5 1_555 1_555
C6 N3 1_555 1_555
C7 C6 1_555 1_555
H6 C7 1_555 1_555
C8 C7 1_555 1_555
H7 C8 1_555 1_555
C9 C8 1_555 1_555
H8 C9 1_555 1_555
C10 N3 1_555 1_555
C11 C10 1_555 1_555
H9 C11 1_555 1_555
H10 C11 1_555 1_555
C12 S2 1_555 1_555
C13 N4 1_555 1_555
H11 C13 1_555 1_555
C14 C13 1_555 1_555
H12 C14 1_555 1_555
C15 N5 1_555 1_555
H13 C15 1_555 1_555
C16 N6 1_555 1_555
Cu1A S3 1_555 1_555
S3A Cu1 1_555 1_555
C3 C4 1_555 1_555
C5 C6 1_555 1_555
C9 C10 1_555 1_555
C14 C15 1_555 1_555

#END
