
#######################################################################
#
#                 Cambridge Crystallographic Data Centre
#                                CCDC 
#
#######################################################################
#
# If this CIF has been generated from an entry in the Cambridge 
# Structural Database, then it will include bibliographic, chemical, 
# crystal, experimental, refinement or atomic coordinate data resulting 
# from the CCDC's data processing and validation procedures.
#
#######################################################################

data_YATVIA
_symmetry_cell_setting           monoclinic
_symmetry_space_group_name_H-M   'P 21/c'
_symmetry_Int_Tables_number      14
_space_group_name_Hall           '-P 2ybc'
loop_
_symmetry_equiv_pos_site_id
_symmetry_equiv_pos_as_xyz
1 x,y,z
2 -x,1/2+y,1/2-z
3 -x,-y,-z
4 x,1/2-y,1/2+z
_cell_length_a                   17.7718(11)
_cell_length_b                   5.9088(4)
_cell_length_c                   13.6268(8)
_cell_angle_alpha                90
_cell_angle_beta                 105.5720(10)
_cell_angle_gamma                90
_cell_volume                     1378.43
loop_
_atom_site_label
_atom_site_type_symbol
_atom_site_fract_x
_atom_site_fract_y
_atom_site_fract_z
Cu1 Cu 0.568231(15) 0.14812(5) 0.04093(2)
O1 O 1.03390(11) -0.2157(4) 0.16936(16)
O2 O 0.58494(10) 0.4687(3) 0.08870(12)
O3 O 0.54446(11) -0.1523(3) -0.02081(14)
O4 O 0.59173(11) 0.0905(4) 0.22324(14)
O5 O 0.47452(11) 0.0938(4) 0.24387(14)
O6 O 0.57569(13) 0.1084(4) 0.37477(14)
N1 N 0.98046(13) 0.1098(4) 0.10703(16)
N2 N 0.95355(13) -0.2348(5) 0.1616(2)
N3 N 0.68350(13) 0.1057(4) 0.06699(16)
N4 N 1.20685(16) 0.3615(4) 0.1113(2)
N5 N 0.54702(13) 0.0982(4) 0.28059(16)
C1 C 0.73297(14) 0.2588(4) 0.04712(19)
H1 H 0.7129 0.3968 0.0190
C2 C 0.81232(15) 0.2217(5) 0.06637(19)
H2 H 0.8449 0.3335 0.0528
C3 C 0.84262(14) 0.0141(4) 0.10637(17)
C4 C 0.79131(16) -0.1452(4) 0.1275(2)
H3 H 0.8097 -0.2849 0.1551
C5 C 0.71365(14) -0.0937(5) 0.10707(19)
H4 H 0.6800 -0.2015 0.1215
C6 C 0.92614(14) -0.0393(4) 0.12543(18)
C7 C 1.04446(14) -0.0069(4) 0.13676(18)
C8 C 1.12382(14) 0.0631(5) 0.13945(18)
C9 C 1.18772(15) -0.0806(5) 0.1720(2)
H5 H 1.1814 -0.2285 0.1918
C10 C 1.26094(16) 0.0024(5) 0.1741(2)
H6 H 1.3049 -0.0888 0.1957
C11 C 1.26778(16) 0.2211(6) 0.1440(2)
H7 H 1.3174 0.2750 0.1464
C12 C 1.13696(16) 0.2822(5) 0.1103(2)
H8 H 1.0942 0.3783 0.0889
H9 H 0.5678(18) 0.504(6) 0.1398(16)
H10 H 0.5559(17) -0.160(4) -0.0774(13)
H11 H 0.5725(15) 0.576(4) 0.0449(17)
Cu1B Cu 0.431769(15) -0.14812(5) -0.04093(2)
Cu1C Cu 0.568231(15) 0.35188(5) 0.54093(2)
O3B O 0.45554(11) 0.1523(3) 0.02081(14)
O6C O 0.57569(13) 0.3916(4) -0.12523(14)
H10B H 0.4441(17) 0.160(4) 0.0774(13)
loop_
_geom_bond_atom_site_label_1
_geom_bond_atom_site_label_2
_geom_bond_site_symmetry_1
_geom_bond_site_symmetry_2
Cu1 O2 1_555 1_555
O1 N2 1_555 1_555
O2 H9 1_555 1_555
O3 Cu1 1_555 1_555
O4 Cu1 1_555 1_555
O5 N5 1_555 1_555
O6 N5 1_555 1_555
N1 C6 1_555 1_555
N2 C6 1_555 1_555
N3 Cu1 1_555 1_555
N4 C11 1_555 1_555
N5 O4 1_555 1_555
C1 N3 1_555 1_555
H1 C1 1_555 1_555
C2 C1 1_555 1_555
H2 C2 1_555 1_555
C3 C2 1_555 1_555
C4 C3 1_555 1_555
H3 C4 1_555 1_555
C5 N3 1_555 1_555
H4 C5 1_555 1_555
C6 C3 1_555 1_555
C7 O1 1_555 1_555
C8 C7 1_555 1_555
C9 C8 1_555 1_555
H5 C9 1_555 1_555
C10 C9 1_555 1_555
H6 C10 1_555 1_555
C11 C10 1_555 1_555
H7 C11 1_555 1_555
C12 N4 1_555 1_555
H8 C12 1_555 1_555
H10 O3 1_555 1_555
H11 O2 1_555 1_555
Cu1B O3 1_555 1_555
Cu1C O6 1_555 1_555
O3B Cu1 1_555 1_555
O6C Cu1 1_555 1_555
H10B O3B 1_555 1_555
N1 C7 1_555 1_555
C4 C5 1_555 1_555
C8 C12 1_555 1_555
Cu1B O3B 1_555 1_555

#END
