
#######################################################################
#
#                 Cambridge Crystallographic Data Centre
#                                CCDC 
#
#######################################################################
#
# If this CIF has been generated from an entry in the Cambridge 
# Structural Database, then it will include bibliographic, chemical, 
# crystal, experimental, refinement or atomic coordinate data resulting 
# from the CCDC's data processing and validation procedures.
#
#######################################################################

data_YATWUM
_symmetry_cell_setting           monoclinic
_symmetry_space_group_name_H-M   'P 21/n'
_symmetry_Int_Tables_number      14
_space_group_name_Hall           '-P 2yn'
loop_
_symmetry_equiv_pos_site_id
_symmetry_equiv_pos_as_xyz
1 x,y,z
2 1/2-x,1/2+y,1/2-z
3 -x,-y,-z
4 1/2+x,1/2-y,1/2+z
_cell_length_a                   5.812(1)
_cell_length_b                   15.091(2)
_cell_length_c                   16.824(2)
_cell_angle_alpha                90
_cell_angle_beta                 93.56(1)
_cell_angle_gamma                90
_cell_volume                     1472.77
loop_
_atom_site_label
_atom_site_type_symbol
_atom_site_fract_x
_atom_site_fract_y
_atom_site_fract_z
Zn1 Zn 0.10639(16) 0.73214(6) 0.42130(6)
Br1 Br -0.13170(16) 0.66415(7) 0.51241(6)
Br2 Br -0.07170(17) 0.80643(7) 0.31074(6)
N1 N 0.3202(12) 0.6373(5) 0.3837(4)
C1 C 0.3654(15) 0.5589(6) 0.4216(5)
H1 H 0.2888 0.5408 0.4657
N2 N 0.5245(13) 0.5110(5) 0.3910(4)
N3 N 0.5833(11) 0.5606(4) 0.3284(4)
C2 C 0.4624(15) 0.6368(6) 0.3257(5)
H2 H 0.4769 0.6819 0.2887
N4 N 0.7632(11) 0.5769(4) 0.2113(4)
C3 C 0.7653(14) 0.5353(5) 0.2797(5)
C4 C 0.9233(15) 0.4722(6) 0.3065(5)
H3 H 0.9139 0.4443 0.3554
C5 C 1.0961(15) 0.4526(6) 0.2566(5)
H4 H 1.2064 0.4101 0.2715
C6 C 1.1057(15) 0.4951(6) 0.1859(5)
H5 H 1.2238 0.4836 0.1525
C7 C 0.9339(13) 0.5562(5) 0.1648(5)
N5 N 0.8081(12) 0.6828(5) -0.0096(4)
C8 C 1.0165(15) 0.6444(6) -0.0210(5)
H6 H 1.0960 0.6532 -0.0667
N6 N 1.0948(12) 0.5938(5) 0.0387(4)
N7 N 0.9246(11) 0.6012(5) 0.0907(4)
C9 C 0.7601(16) 0.6546(7) 0.0601(5)
H7 H 0.6279 0.6696 0.0855
Zn1C Zn 0.60639(16) 0.76786(6) -0.07870(6)
N5C N 0.3081(12) 0.8172(5) 0.4904(4)
loop_
_geom_bond_atom_site_label_1
_geom_bond_atom_site_label_2
_geom_bond_site_symmetry_1
_geom_bond_site_symmetry_2
Zn1 Br1 1_555 1_555
Br2 Zn1 1_555 1_555
N1 Zn1 1_555 1_555
C1 N1 1_555 1_555
H1 C1 1_555 1_555
N2 C1 1_555 1_555
N3 N2 1_555 1_555
C2 N1 1_555 1_555
H2 C2 1_555 1_555
N4 C3 1_555 1_555
C3 N3 1_555 1_555
C4 C3 1_555 1_555
H3 C4 1_555 1_555
C5 C4 1_555 1_555
H4 C5 1_555 1_555
C6 C5 1_555 1_555
H5 C6 1_555 1_555
C7 N4 1_555 1_555
N5 C8 1_555 1_555
C8 H6 1_555 1_555
N6 C8 1_555 1_555
N7 C7 1_555 1_555
C9 N5 1_555 1_555
H7 C9 1_555 1_555
Zn1C N5 1_555 1_555
N5C Zn1 1_555 1_555
N3 C2 1_555 1_555
C6 C7 1_555 1_555
N6 N7 1_555 1_555
N7 C9 1_555 1_555

#END
