
#######################################################################
#
#                 Cambridge Crystallographic Data Centre
#                                CCDC 
#
#######################################################################
#
# If this CIF has been generated from an entry in the Cambridge 
# Structural Database, then it will include bibliographic, chemical, 
# crystal, experimental, refinement or atomic coordinate data resulting 
# from the CCDC's data processing and validation procedures.
#
#######################################################################

data_YATWOG
_symmetry_cell_setting           orthorhombic
_symmetry_space_group_name_H-M   'P n n a'
_symmetry_Int_Tables_number      52
_space_group_name_Hall           '-P 2a 2bc'
loop_
_symmetry_equiv_pos_site_id
_symmetry_equiv_pos_as_xyz
1 x,y,z
2 1/2-x,-y,z
3 1/2-x,1/2+y,1/2-z
4 x,1/2-y,1/2-z
5 -x,-y,-z
6 1/2+x,y,-z
7 1/2+x,1/2-y,1/2+z
8 -x,1/2+y,1/2+z
_cell_length_a                   18.544(4)
_cell_length_b                   14.408(3)
_cell_length_c                   4.6646(9)
_cell_angle_alpha                90
_cell_angle_beta                 90
_cell_angle_gamma                90
_cell_volume                     1246.3
loop_
_atom_site_label
_atom_site_type_symbol
_atom_site_fract_x
_atom_site_fract_y
_atom_site_fract_z
Zn1 Zn 0.7500 0.5000 0.03293(8)
Cl1 Cl 0.70372(3) 0.61844(4) -0.22067(14)
N1 N 0.65872(9) 0.44763(13) 0.2156(4)
N2 N 0.57241(9) 0.36884(13) 0.4138(4)
N3 N 0.53840(10) 0.43125(15) 0.2381(4)
N4 N 0.56939(13) 0.2500 0.7500
C1 C 0.64413(11) 0.37936(16) 0.3963(5)
H1 H 0.6789 0.3436 0.4972
C2 C 0.59237(13) 0.47682(18) 0.1240(6)
H2 H 0.5860 0.5257 -0.0102
C3 C 0.53093(12) 0.30707(16) 0.5869(5)
C4 C 0.45647(12) 0.31024(17) 0.5739(5)
H3 H 0.4322 0.3520 0.4494
C5 C 0.41891(16) 0.2500 0.7500
H4 H 0.3677 0.2500 0.7500
Zn1B Zn 0.7500 0.0000 1.46707(8)
Cl1A Cl 0.79628(3) 0.38156(4) -0.22067(14)
N1C N 0.65872(9) 0.05237(13) 1.2844(4)
N1A N 0.84128(9) 0.55237(13) 0.2156(4)
N2C N 0.57241(9) 0.13116(13) 1.0862(4)
N3C N 0.53840(10) 0.06875(15) 1.2619(4)
C1C C 0.64413(11) 0.12064(16) 1.1037(5)
H1C H 0.6789 0.1564 1.0028
C2C C 0.59237(13) 0.02318(18) 1.3760(6)
H2C H 0.5860 -0.0257 1.5102
C3C C 0.53093(12) 0.19293(16) 0.9131(5)
C4C C 0.45647(12) 0.18976(17) 0.9261(5)
H3C H 0.4322 0.1480 1.0506
loop_
_geom_bond_atom_site_label_1
_geom_bond_atom_site_label_2
_geom_bond_site_symmetry_1
_geom_bond_site_symmetry_2
Zn1 Cl1 1_555 1_555
N1 Zn1 1_555 1_555
N2 N3 1_555 1_555
N3 C2 1_555 1_555
N4 C3 1_555 1_555
C1 N1 1_555 1_555
H1 C1 1_555 1_555
C2 N1 1_555 1_555
H2 C2 1_555 1_555
C3 N2 1_555 1_555
C4 C3 1_555 1_555
H3 C4 1_555 1_555
C5 C4 1_555 1_555
H4 C5 1_555 1_555
Zn1B N1C 1_555 1_555
Cl1A Zn1 1_555 1_555
N1C C1C 1_555 1_555
N1A Zn1 1_555 1_555
N2C N3C 1_555 1_555
N3C C2C 1_555 1_555
C1C N2C 1_555 1_555
H1C C1C 1_555 1_555
C2C N1C 1_555 1_555
H2C C2C 1_555 1_555
C3C N4 1_555 1_555
C4C C5 1_555 1_555
H3C C4C 1_555 1_555
N2 C1 1_555 1_555
N2C C3C 1_555 1_555
C3C C4C 1_555 1_555

#END
