
#######################################################################
#
#                 Cambridge Crystallographic Data Centre
#                                CCDC 
#
#######################################################################
#
# If this CIF has been generated from an entry in the Cambridge 
# Structural Database, then it will include bibliographic, chemical, 
# crystal, experimental, refinement or atomic coordinate data resulting 
# from the CCDC's data processing and validation procedures.
#
#######################################################################

data_YATWAT
_symmetry_cell_setting           monoclinic
_symmetry_space_group_name_H-M   'P 21/c'
_symmetry_Int_Tables_number      14
_space_group_name_Hall           '-P 2ybc'
loop_
_symmetry_equiv_pos_site_id
_symmetry_equiv_pos_as_xyz
1 x,y,z
2 -x,1/2+y,1/2-z
3 -x,-y,-z
4 x,1/2-y,1/2+z
_cell_length_a                   10.298(7)
_cell_length_b                   17.649(12)
_cell_length_c                   18.009(9)
_cell_angle_alpha                90
_cell_angle_beta                 123.94(3)
_cell_angle_gamma                90
_cell_volume                     2715.46
loop_
_atom_site_label
_atom_site_type_symbol
_atom_site_fract_x
_atom_site_fract_y
_atom_site_fract_z
Cu1 Cu -0.45394(8) 0.04466(4) 0.43168(4)
Cu2 Cu -0.15464(7) 0.07255(4) 0.62081(4)
Cl1 Cl -0.30501(14) -0.03659(7) 0.56069(8)
Cl2 Cl -0.32846(15) 0.15805(7) 0.51454(9)
P1 P -0.52339(15) 0.01608(8) 0.29527(8)
P2 P -0.07631(15) -0.08176(7) 0.25371(8)
N1 N -0.2438(4) -0.0268(2) 0.3202(2)
C1 C -0.1055(6) 0.0562(3) 0.4500(3)
H1 H -0.1767 0.0948 0.4172
C2 C -0.1233(5) -0.0133(3) 0.4094(3)
C3 C -0.0155(6) -0.0698(3) 0.4619(3)
H2 H -0.0251 -0.1175 0.4372
C4 C -0.3712(5) 0.0258(3) 0.2699(3)
H3 H -0.4193 0.0173 0.2064
H4 H -0.3304 0.0771 0.2835
C5 C -0.5742(6) -0.0830(3) 0.2617(3)
C6 C -0.6482(7) -0.1100(4) 0.1736(4)
H5 H -0.6962 -0.0752 0.1269
C7 C -0.6531(8) -0.1842(4) 0.1535(5)
H6 H -0.7037 -0.1999 0.0943
C8 C -0.5818(8) -0.2361(4) 0.2222(5)
H7 H -0.5802 -0.2870 0.2094
C9 C -0.5123(8) -0.2134(4) 0.3103(4)
H8 H -0.4684 -0.2490 0.3562
C10 C -0.5089(7) -0.1380(3) 0.3292(4)
H9 H -0.4619 -0.1230 0.3884
C11 C -0.6787(6) 0.0772(3) 0.2085(3)
C12 C -0.7157(8) 0.0836(4) 0.1220(4)
H10 H -0.6607 0.0545 0.1053
C13 C -0.8307(9) 0.1312(4) 0.0603(4)
H11 H -0.8583 0.1319 0.0015
C14 C -0.9051(8) 0.1783(4) 0.0868(5)
H12 H -0.9836 0.2108 0.0454
C15 C -0.8645(7) 0.1776(4) 0.1730(5)
H13 H -0.9118 0.2110 0.1910
C16 C -0.7513(7) 0.1263(3) 0.2341(4)
H14 H -0.7245 0.1253 0.2927
C17 C -0.2353(5) -0.0931(3) 0.2727(3)
H15 H -0.3346 -0.0990 0.2156
H16 H -0.2165 -0.1385 0.3077
C18 C -0.1096(5) -0.1626(2) 0.1820(3)
C19 C -0.2520(6) -0.1996(3) 0.1284(3)
H17 H -0.3385 -0.1823 0.1271
C20 C -0.2680(7) -0.2612(3) 0.0773(4)
H18 H -0.3647 -0.2849 0.0418
C21 C -0.1420(7) -0.2879(3) 0.0785(4)
H19 H -0.1526 -0.3296 0.0441
C22 C -0.0008(7) -0.2525(3) 0.1307(4)
H20 H 0.0849 -0.2699 0.1312
C23 C 0.0160(6) -0.1911(3) 0.1827(3)
H21 H 0.1138 -0.1685 0.2190
C24 C -0.1553(6) 0.0012(3) 0.1797(3)
C25 C -0.1172(7) 0.0719(3) 0.2188(4)
H22 H -0.0423 0.0769 0.2798
C26 C -0.1918(8) 0.1364(3) 0.1661(5)
H23 H -0.1672 0.1840 0.1928
C27 C -0.2981(8) 0.1301(4) 0.0776(4)
H24 H -0.3477 0.1732 0.0435
C28 C -0.3334(8) 0.0610(4) 0.0378(4)
H25 H -0.4057 0.0570 -0.0237
C29 C -0.2629(7) -0.0035(3) 0.0880(4)
H26 H -0.2878 -0.0505 0.0599
Cu1B Cu -0.54606(8) -0.04466(4) 0.56832(4)
Cu1B_2 Cu 0.45394(8) -0.04466(4) 0.56832(4)
Cu2B Cu -0.84536(7) -0.07255(4) 0.37919(4)
Cu2B_2 Cu 0.15464(7) -0.07255(4) 0.37919(4)
Cl1B Cl -0.69499(14) 0.03659(7) 0.43931(8)
Cl2B Cl -0.67154(15) -0.15805(7) 0.48546(9)
P1B P 0.52339(15) -0.01608(8) 0.70473(8)
P1B_2 P -0.47661(15) -0.01608(8) 0.70473(8)
P2B P 0.07631(15) 0.08176(7) 0.74629(8)
P2_2 P -1.07631(15) -0.08176(7) 0.25371(8)
N1B N 0.2438(4) 0.0268(2) 0.6798(2)
C1B C 0.1055(6) -0.0562(3) 0.5500(3)
H1B H 0.1767 -0.0948 0.5828
C2B C 0.1233(5) 0.0133(3) 0.5906(3)
C3B C 0.0155(6) 0.0698(3) 0.5381(3)
H2B H 0.0251 0.1175 0.5628
C4B C 0.3712(5) -0.0258(3) 0.7301(3)
H3B H 0.4193 -0.0173 0.7936
H4B H 0.3304 -0.0771 0.7165
C5B C 0.5742(6) 0.0830(3) 0.7383(3)
C6B C 0.6482(7) 0.1100(4) 0.8264(4)
H5B H 0.6962 0.0752 0.8731
C7B C 0.6531(8) 0.1842(4) 0.8465(5)
H6B H 0.7037 0.1999 0.9057
C8B C 0.5818(8) 0.2361(4) 0.7778(5)
H7B H 0.5802 0.2870 0.7906
C9B C 0.5123(8) 0.2134(4) 0.6897(4)
H8B H 0.4684 0.2490 0.6438
C10B C 0.5089(7) 0.1380(3) 0.6708(4)
H9B H 0.4619 0.1230 0.6116
C11B C 0.6787(6) -0.0772(3) 0.7915(3)
C12B C 0.7157(8) -0.0836(4) 0.8780(4)
H10B H 0.6607 -0.0545 0.8947
C13B C 0.8307(9) -0.1312(4) 0.9397(4)
H11B H 0.8583 -0.1319 0.9985
C14B C 0.9051(8) -0.1783(4) 0.9132(5)
H12B H 0.9836 -0.2108 0.9546
C15B C 0.8645(7) -0.1776(4) 0.8270(5)
H13B H 0.9118 -0.2110 0.8090
C16B C 0.7513(7) -0.1263(3) 0.7659(4)
H14B H 0.7245 -0.1253 0.7073
C17B C 0.2353(5) 0.0931(3) 0.7273(3)
H15B H 0.3346 0.0990 0.7844
H16B H 0.2165 0.1385 0.6923
C18B C 0.1096(5) 0.1626(2) 0.8180(3)
C19B C 0.2520(6) 0.1996(3) 0.8716(3)
H17B H 0.3385 0.1823 0.8729
C20B C 0.2680(7) 0.2612(3) 0.9227(4)
H18B H 0.3647 0.2849 0.9582
C21B C 0.1420(7) 0.2879(3) 0.9215(4)
H19B H 0.1526 0.3296 0.9559
C22B C 0.0008(7) 0.2525(3) 0.8693(4)
H20B H -0.0849 0.2699 0.8688
C23B C -0.0160(6) 0.1911(3) 0.8173(3)
H21B H -0.1138 0.1685 0.7810
C24B C 0.1553(6) -0.0012(3) 0.8203(3)
C25B C 0.1172(7) -0.0719(3) 0.7812(4)
H22B H 0.0423 -0.0769 0.7202
C26B C 0.1918(8) -0.1364(3) 0.8339(5)
H23B H 0.1672 -0.1840 0.8072
C27B C 0.2981(8) -0.1301(4) 0.9224(4)
H24B H 0.3477 -0.1732 0.9565
C28B C 0.3334(8) -0.0610(4) 0.9622(4)
H25B H 0.4057 -0.0570 1.0237
C29B C 0.2629(7) 0.0035(3) 0.9120(4)
H26B H 0.2878 0.0505 0.9401
loop_
_geom_bond_atom_site_label_1
_geom_bond_atom_site_label_2
_geom_bond_site_symmetry_1
_geom_bond_site_symmetry_2
Cu1 Cl1 1_555 1_555
Cu2 Cl1 1_555 1_555
Cl1 Cu1B 1_555 1_555
Cl2 Cu1 1_555 1_555
P1 Cu1 1_555 1_555
P2 C17 1_555 1_555
N1 C2 1_555 1_555
C1 H1 1_555 1_555
C2 C1 1_555 1_555
C3 C2 1_555 1_555
H2 C3 1_555 1_555
C4 P1 1_555 1_555
H3 C4 1_555 1_555
H4 C4 1_555 1_555
C5 P1 1_555 1_555
C6 C5 1_555 1_555
H5 C6 1_555 1_555
C7 C6 1_555 1_555
H6 C7 1_555 1_555
C8 C7 1_555 1_555
H7 C8 1_555 1_555
C9 C8 1_555 1_555
H8 C9 1_555 1_555
C10 C5 1_555 1_555
H9 C10 1_555 1_555
C11 P1 1_555 1_555
C12 C11 1_555 1_555
H10 C12 1_555 1_555
C13 C12 1_555 1_555
H11 C13 1_555 1_555
C14 C13 1_555 1_555
H12 C14 1_555 1_555
C15 C14 1_555 1_555
H13 C15 1_555 1_555
C16 C11 1_555 1_555
H14 C16 1_555 1_555
C17 N1 1_555 1_555
H15 C17 1_555 1_555
H16 C17 1_555 1_555
C18 P2 1_555 1_555
C19 C18 1_555 1_555
H17 C19 1_555 1_555
C20 C19 1_555 1_555
H18 C20 1_555 1_555
C21 C20 1_555 1_555
H19 C21 1_555 1_555
C22 C21 1_555 1_555
H20 C22 1_555 1_555
C23 C18 1_555 1_555
H21 C23 1_555 1_555
C24 P2 1_555 1_555
C25 C24 1_555 1_555
H22 C25 1_555 1_555
C26 C25 1_555 1_555
H23 C26 1_555 1_555
C27 C26 1_555 1_555
H24 C27 1_555 1_555
C28 C27 1_555 1_555
H25 C28 1_555 1_555
C29 C24 1_555 1_555
H26 C29 1_555 1_555
Cu1B Cl1B 1_555 1_555
Cu1B_2 P1B 1_555 1_555
Cu2B Cl1B 1_555 1_555
Cu2B_2 P2 1_555 1_555
Cl1B Cu1 1_555 1_555
Cl2B Cu1B 1_555 1_555
P1B C4B 1_555 1_555
P1B_2 Cu1B 1_555 1_555
P2B Cu2 1_555 1_555
P2_2 Cu2B 1_555 1_555
N1B C2B 1_555 1_555
C1B C3 1_555 1_555
H1B C1B 1_555 1_555
C2B C1B 1_555 1_555
C3B C1 1_555 1_555
H2B C3B 1_555 1_555
C4B N1B 1_555 1_555
H3B C4B 1_555 1_555
H4B C4B 1_555 1_555
C5B P1B 1_555 1_555
C6B C5B 1_555 1_555
H5B C6B 1_555 1_555
C7B C6B 1_555 1_555
H6B C7B 1_555 1_555
C8B C7B 1_555 1_555
H7B C8B 1_555 1_555
C9B C8B 1_555 1_555
H8B C9B 1_555 1_555
C10B C5B 1_555 1_555
H9B C10B 1_555 1_555
C11B P1B 1_555 1_555
C12B C11B 1_555 1_555
H10B C12B 1_555 1_555
C13B C12B 1_555 1_555
H11B C13B 1_555 1_555
C14B C13B 1_555 1_555
H12B C14B 1_555 1_555
C15B C14B 1_555 1_555
H13B C15B 1_555 1_555
C16B C11B 1_555 1_555
H14B C16B 1_555 1_555
C17B P2B 1_555 1_555
H15B C17B 1_555 1_555
H16B C17B 1_555 1_555
C18B P2B 1_555 1_555
C19B C18B 1_555 1_555
H17B C19B 1_555 1_555
C20B C19B 1_555 1_555
H18B C20B 1_555 1_555
C21B C20B 1_555 1_555
H19B C21B 1_555 1_555
C22B C21B 1_555 1_555
H20B C22B 1_555 1_555
C23B C18B 1_555 1_555
H21B C23B 1_555 1_555
C24B P2B 1_555 1_555
C25B C24B 1_555 1_555
H22B C25B 1_555 1_555
C26B C25B 1_555 1_555
H23B C26B 1_555 1_555
C27B C26B 1_555 1_555
H24B C27B 1_555 1_555
C28B C27B 1_555 1_555
H25B C28B 1_555 1_555
C29B C24B 1_555 1_555
H26B C29B 1_555 1_555
Cu2 Cl2 1_555 1_555
N1 C4 1_555 1_555
C9 C10 1_555 1_555
C15 C16 1_555 1_555
C22 C23 1_555 1_555
C28 C29 1_555 1_555
Cu2B Cl2B 1_555 1_555
N1B C17B 1_555 1_555
C2B C3B 1_555 1_555
C9B C10B 1_555 1_555
C15B C16B 1_555 1_555
C22B C23B 1_555 1_555
C28B C29B 1_555 1_555

#END
