
#######################################################################
#
#                 Cambridge Crystallographic Data Centre
#                                CCDC 
#
#######################################################################
#
# If this CIF has been generated from an entry in the Cambridge 
# Structural Database, then it will include bibliographic, chemical, 
# crystal, experimental, refinement or atomic coordinate data resulting 
# from the CCDC's data processing and validation procedures.
#
#######################################################################

data_YATYAV
_symmetry_cell_setting           orthorhombic
_symmetry_space_group_name_H-M   'P 21 21 21'
_symmetry_Int_Tables_number      19
_space_group_name_Hall           'P 2ac 2ab'
loop_
_symmetry_equiv_pos_site_id
_symmetry_equiv_pos_as_xyz
1 x,y,z
2 1/2-x,-y,1/2+z
3 -x,1/2+y,1/2-z
4 1/2+x,1/2-y,-z
_cell_length_a                   8.6358(17)
_cell_length_b                   9.5356(19)
_cell_length_c                   16.885(3)
_cell_angle_alpha                90
_cell_angle_beta                 90
_cell_angle_gamma                90
_cell_volume                     1390.44
loop_
_atom_site_label
_atom_site_type_symbol
_atom_site_fract_x
_atom_site_fract_y
_atom_site_fract_z
Pr1 Pr 0.37510(4) 0.75389(2) 0.143154(14)
Pr2 Pr -0.12589(4) 0.26126(3) 0.137142(14)
O1 O 0.3263(5) 0.4984(4) 0.1336(3)
O2 O 0.1023(5) 0.6852(4) 0.1081(2)
O3 O 0.1479(5) 0.3304(5) 0.1473(3)
O4 O -0.0761(5) 0.5159(5) 0.1102(3)
O5 O 0.5734(5) 0.8913(4) 0.0744(2)
O6 O 0.4832(5) 0.9677(5) 0.2184(2)
O7 O 0.6490(5) 1.1490(4) 0.2172(2)
O8 O 0.7467(5) 1.0643(5) 0.0716(3)
O9 O 0.0572(5) 1.0999(5) 0.0683(2)
O10 O -0.0198(5) 1.0560(4) 0.2191(2)
O11 O 0.1596(4) 0.8845(4) 0.2289(2)
O12 O 0.2521(5) 0.9516(4) 0.0791(2)
O13 O 0.4097(7) 0.6778(5) 0.0052(2)
H1 H 0.4747 0.7253 -0.0215
H2 H 0.3561 0.6140 -0.0168
O14 O 0.6418(6) 0.6597(5) 0.1743(3)
H3 H 0.7010 0.6599 0.1341
H4 H 0.6369 0.5950 0.2088
O15 O -0.1196(7) 0.3125(5) -0.0081(2)
H5 H -0.1447 0.3960 -0.0200
H6 H -0.1567 0.2530 -0.0404
O16 O -0.3828(6) 0.3679(5) 0.0986(2)
H7 H -0.4443 0.4093 0.1304
H8 H -0.4120 0.3834 0.0513
C1 C 0.1907(7) 0.4536(6) 0.1341(4)
C2 C 0.0597(7) 0.5610(6) 0.1160(3)
C3 C 0.6393(7) 0.9949(6) 0.1035(3)
C4 C 0.5861(6) 1.0398(6) 0.1870(3)
C5 C 0.1355(7) 1.0127(5) 0.1057(3)
C6 C 0.0863(6) 0.9810(6) 0.1925(3)
Pr1B Pr 0.62490(4) 1.25389(2) 0.356846(14)
Pr2_2 Pr 0.87411(4) 1.26126(3) 0.137142(14)
Pr2_3 Pr -0.12589(4) 1.26126(3) 0.137142(14)
Pr2B Pr 0.12589(4) 0.76126(3) 0.362858(14)
O7B O 0.3510(5) 0.6490(4) 0.2828(2)
O7_2 O -0.3510(5) 0.1490(4) 0.2172(2)
O8_2 O -0.2533(5) 0.0643(5) 0.0716(3)
O9_2 O 0.0572(5) 0.0999(5) 0.0683(2)
O10_2 O -0.0198(5) 0.0560(4) 0.2191(2)
O11B O -0.1596(4) 0.3845(4) 0.2711(2)
loop_
_geom_bond_atom_site_label_1
_geom_bond_atom_site_label_2
_geom_bond_site_symmetry_1
_geom_bond_site_symmetry_2
Pr1 O1 1_555 1_555
Pr2 O3 1_555 1_555
O1 C1 1_555 1_555
O2 Pr1 1_555 1_555
O3 C1 1_555 1_555
O4 Pr2 1_555 1_555
O5 Pr1 1_555 1_555
O6 Pr1 1_555 1_555
O7 C4 1_555 1_555
O8 C3 1_555 1_555
O9 C5 1_555 1_555
O10 C6 1_555 1_555
O11 Pr1 1_555 1_555
O12 Pr1 1_555 1_555
O13 Pr1 1_555 1_555
H1 O13 1_555 1_555
H2 O13 1_555 1_555
O14 Pr1 1_555 1_555
H3 O14 1_555 1_555
H4 O14 1_555 1_555
O15 Pr2 1_555 1_555
H5 O15 1_555 1_555
H6 O15 1_555 1_555
O16 Pr2 1_555 1_555
H7 O16 1_555 1_555
H8 O16 1_555 1_555
C1 C2 1_555 1_555
C2 O2 1_555 1_555
C3 O5 1_555 1_555
C4 O6 1_555 1_555
C5 O12 1_555 1_555
C6 O11 1_555 1_555
Pr1B O7 1_555 1_555
Pr2_2 O7 1_555 1_555
Pr2_3 O9 1_555 1_555
Pr2B O11 1_555 1_555
O7B Pr1 1_555 1_555
O7_2 Pr2 1_555 1_555
O8_2 Pr2 1_555 1_555
O9_2 Pr2 1_555 1_555
O10_2 Pr2 1_555 1_555
O11B Pr2 1_555 1_555
O4 C2 1_555 1_555
O8 Pr2_2 1_555 1_555
O10 Pr2_3 1_555 1_555
C3 C4 1_555 1_555
C5 C6 1_555 1_555
Pr2B O7B 1_555 1_555

#END
