
#######################################################################
#
#                 Cambridge Crystallographic Data Centre
#                                CCDC 
#
#######################################################################
#
# If this CIF has been generated from an entry in the Cambridge 
# Structural Database, then it will include bibliographic, chemical, 
# crystal, experimental, refinement or atomic coordinate data resulting 
# from the CCDC's data processing and validation procedures.
#
#######################################################################

data_YATYEY
_symmetry_cell_setting           monoclinic
_symmetry_space_group_name_H-M   'P 21/c'
_symmetry_Int_Tables_number      14
_space_group_name_Hall           '-P 2ybc'
loop_
_symmetry_equiv_pos_site_id
_symmetry_equiv_pos_as_xyz
1 x,y,z
2 -x,1/2+y,1/2-z
3 -x,-y,-z
4 x,1/2-y,1/2+z
_cell_length_a                   7.1753(3)
_cell_length_b                   20.8504(9)
_cell_length_c                   8.8844(4)
_cell_angle_alpha                90
_cell_angle_beta                 93.2888(10)
_cell_angle_gamma                90
_cell_volume                     1326.99
loop_
_atom_site_label
_atom_site_type_symbol
_atom_site_fract_x
_atom_site_fract_y
_atom_site_fract_z
Cu1 Cu 0.25298(11) 0.39046(4) 0.17127(8)
O1 O 0.0068(6) 0.3149(2) 0.1519(5)
O2 O 0.1147(6) 0.3669(2) 0.3491(5)
O3 O -0.5653(6) 0.3219(2) 0.2295(6)
O4 O -0.3491(7) 0.3941(2) 0.2674(5)
N1 N 0.3003(6) 0.3968(2) -0.0429(5)
N2 N 0.2788(7) 0.5088(2) -0.0613(5)
H1 H 0.2959 0.5404 -0.1211
N3 N 0.2078(6) 0.4836(2) 0.1882(5)
C1 C 0.3203(9) 0.3403(3) -0.1144(8)
H2 H 0.3135 0.3028 -0.0583
C2 C 0.3497(9) 0.3350(3) -0.2630(8)
H3 H 0.3598 0.2951 -0.3084
C3 C 0.3640(9) 0.3906(3) -0.3450(7)
H4 H 0.3883 0.3885 -0.4465
C4 C 0.3429(8) 0.4488(3) -0.2785(6)
H5 H 0.3527 0.4865 -0.3333
C5 C 0.3058(7) 0.4504(3) -0.1242(6)
C6 C 0.2291(7) 0.5273(3) 0.0802(6)
C7 C 0.2030(9) 0.5930(3) 0.1048(7)
H6 H 0.2148 0.6223 0.0270
C8 C 0.1600(9) 0.6133(3) 0.2445(7)
H7 H 0.1435 0.6568 0.2634
C9 C 0.1411(9) 0.5686(3) 0.3583(7)
H8 H 0.1134 0.5813 0.4548
C10 C 0.1641(9) 0.5061(3) 0.3244(7)
H9 H 0.1488 0.4763 0.4005
C11 C 0.0063(8) 0.3249(3) 0.2860(6)
C12 C -0.1180(8) 0.2887(3) 0.3846(6)
H10 H -0.0623 0.2603 0.4544
C13 C -0.3005(9) 0.2939(3) 0.3798(7)
H11 H -0.3660 0.2665 0.4401
C14 C -0.4094(8) 0.3408(3) 0.2844(6)
Cu1_2 Cu -0.74702(11) 0.39046(4) 0.17127(8)
O3_2 O 0.4347(6) 0.3219(2) 0.2295(6)
loop_
_geom_bond_atom_site_label_1
_geom_bond_atom_site_label_2
_geom_bond_site_symmetry_1
_geom_bond_site_symmetry_2
Cu1 O1 1_555 1_555
O1 C11 1_555 1_555
O2 Cu1 1_555 1_555
O3 C14 1_555 1_555
O4 C14 1_555 1_555
N1 Cu1 1_555 1_555
N2 H1 1_555 1_555
N3 Cu1 1_555 1_555
C1 N1 1_555 1_555
H2 C1 1_555 1_555
C2 C1 1_555 1_555
H3 C2 1_555 1_555
C3 C2 1_555 1_555
H4 C3 1_555 1_555
C4 C3 1_555 1_555
H5 C4 1_555 1_555
C5 N1 1_555 1_555
C6 N2 1_555 1_555
C7 C6 1_555 1_555
H6 C7 1_555 1_555
C8 C7 1_555 1_555
H7 C8 1_555 1_555
C9 C8 1_555 1_555
H8 C9 1_555 1_555
C10 N3 1_555 1_555
H9 C10 1_555 1_555
C11 O2 1_555 1_555
C12 C11 1_555 1_555
H10 C12 1_555 1_555
C13 C12 1_555 1_555
H11 C13 1_555 1_555
C14 C13 1_555 1_555
Cu1_2 O3 1_555 1_555
O3_2 Cu1 1_555 1_555
N2 C5 1_555 1_555
N3 C6 1_555 1_555
C4 C5 1_555 1_555
C9 C10 1_555 1_555

#END
