
#######################################################################
#
#                 Cambridge Crystallographic Data Centre
#                                CCDC 
#
#######################################################################
#
# If this CIF has been generated from an entry in the Cambridge 
# Structural Database, then it will include bibliographic, chemical, 
# crystal, experimental, refinement or atomic coordinate data resulting 
# from the CCDC's data processing and validation procedures.
#
#######################################################################

data_YAVBOM
_symmetry_cell_setting           triclinic
_symmetry_space_group_name_H-M   'P -1'
_symmetry_Int_Tables_number      2
_space_group_name_Hall           '-P 1'
loop_
_symmetry_equiv_pos_site_id
_symmetry_equiv_pos_as_xyz
1 x,y,z
2 -x,-y,-z
_cell_length_a                   10.281(5)
_cell_length_b                   10.346(5)
_cell_length_c                   11.994(6)
_cell_angle_alpha                84.82(2)
_cell_angle_beta                 67.07(3)
_cell_angle_gamma                76.01(2)
_cell_volume                     1140.1
loop_
_atom_site_label
_atom_site_type_symbol
_atom_site_fract_x
_atom_site_fract_y
_atom_site_fract_z
Pr1 Pr 0.432238 0.448117 0.687514
Pr2 Pr 0.393328 0.088462 0.867391
O1 O 0.640175 0.504685 0.499576
O2 O 0.199814 0.585677 0.671760
C1 C 0.762480 0.433937 0.439744
C2 C 0.868190 0.374640 0.499950
O3 O 0.521390 0.266470 0.826060
O4 O 0.610640 0.443800 0.786780
C3 C 0.582921 0.343740 0.852540
C4 C 0.610922 0.320529 0.968084
O5 O 0.258660 0.476490 0.902140
O6 O 0.225040 0.281020 0.992270
C5 C 0.205200 0.405090 0.992270
C6 C 0.107500 0.478660 1.112300
O7 O 0.583856 0.255362 0.563631
O8 O 0.553201 0.060887 0.657577
C7 C 0.604451 0.132234 0.566473
C8 C 0.703803 0.057928 0.446967
O9 O 0.292030 0.271770 0.731520
O10 O 0.168430 0.118330 0.813650
C9 C 0.189375 0.220251 0.743877
C10 C 0.095426 0.273404 0.675383
O11 O 0.375000 0.020660 1.097250
O12 O 0.194180 0.004530 1.050340
C11 C 0.246410 0.007430 1.127350
C12 C 0.155460 -0.004670 1.260220
O13 O 0.417400 0.678000 0.731530
O14 O 0.406890 -0.134390 0.810660
C13 C 0.479463 0.762001 0.745901
C14 C 0.6411(9) 0.7411(8) 0.6874(8)
Pr1A Pr 0.567762 0.551883 0.312486
O1A O 0.359825 0.495315 0.500424
C1A C 0.237520 0.566063 0.560256
O14_2 O 0.406890 0.865610 0.810660
Pr2_2 Pr 0.393328 1.088462 0.867391
O11A O 0.625000 -0.020660 0.902750
O2A O 0.800186 0.414323 0.328240
Pr2A Pr 0.606672 -0.088462 1.132609
Cs1 Cs 0.101697 0.802932 0.902527
loop_
_geom_bond_atom_site_label_1
_geom_bond_atom_site_label_2
_geom_bond_site_symmetry_1
_geom_bond_site_symmetry_2
Pr1 O1 1_555 1_555
Pr2 O3 1_555 1_555
O1 C1 1_555 1_555
O2 Pr1 1_555 1_555
C1 C2 1_555 1_555
O3 Pr1 1_555 1_555
O4 Pr1 1_555 1_555
C3 O3 1_555 1_555
C4 C3 1_555 1_555
O5 Pr1 1_555 1_555
O6 Pr2 1_555 1_555
C5 O5 1_555 1_555
C6 C5 1_555 1_555
O7 Pr1 1_555 1_555
O8 Pr2 1_555 1_555
C7 O7 1_555 1_555
C8 C7 1_555 1_555
O9 Pr1 1_555 1_555
O10 Pr2 1_555 1_555
C9 O9 1_555 1_555
C10 C9 1_555 1_555
O11 Pr2 1_555 1_555
O12 Pr2 1_555 1_555
C11 O11 1_555 1_555
C12 C11 1_555 1_555
O13 Pr1 1_555 1_555
O14 Pr2 1_555 1_555
C13 O13 1_555 1_555
C14 C13 1_555 1_555
Pr1A O1 1_555 1_555
O1A Pr1 1_555 1_555
C1A O2 1_555 1_555
O14_2 C13 1_555 1_555
Pr2_2 O14_2 1_555 1_555
O11A Pr2 1_555 1_555
O2A C1 1_555 1_555
Pr2A O11 1_555 1_555
Pr2 O9 1_555 1_555
O4 C3 1_555 1_555
O6 C5 1_555 1_555
O8 C7 1_555 1_555
O10 C9 1_555 1_555
O12 C11 1_555 1_555
Pr1A O1A 1_555 1_555
Pr1A O2A 1_555 1_555
O1A C1A 1_555 1_555
O11A Pr2A 1_555 1_555

#END
