
#######################################################################
#
#                 Cambridge Crystallographic Data Centre
#                                CCDC 
#
#######################################################################
#
# If this CIF has been generated from an entry in the Cambridge 
# Structural Database, then it will include bibliographic, chemical, 
# crystal, experimental, refinement or atomic coordinate data resulting 
# from the CCDC's data processing and validation procedures.
#
#######################################################################

data_YAVGAE
_symmetry_cell_setting           monoclinic
_symmetry_space_group_name_H-M   'P 2/c'
_symmetry_Int_Tables_number      13
_space_group_name_Hall           '-P 2yc'
loop_
_symmetry_equiv_pos_site_id
_symmetry_equiv_pos_as_xyz
1 x,y,z
2 -x,y,1/2-z
3 -x,-y,-z
4 x,-y,1/2+z
_cell_length_a                   9.6811(6)
_cell_length_b                   8.1066(5)
_cell_length_c                   12.6643(9)
_cell_angle_alpha                90
_cell_angle_beta                 121.3020(10)
_cell_angle_gamma                90
_cell_volume                     849.232
loop_
_atom_site_label
_atom_site_type_symbol
_atom_site_fract_x
_atom_site_fract_y
_atom_site_fract_z
Ag1 Ag 0.5000 0.0000 0.0000
C1 C 0.7444(9) 0.2657(9) 0.0419(8)
C2 C 0.8369(9) 0.4073(10) 0.0875(8)
C3 C 0.8128(7) 0.5211(7) 0.1597(6)
C4 C 0.6920(9) 0.4728(8) 0.1836(7)
C5 C 0.6058(9) 0.3295(10) 0.1374(8)
C6 C 0.9077(7) 0.6714(8) 0.2079(6)
C7 C 0.8462(9) 0.8232(9) 0.2371(8)
C8 C 0.8678(9) 0.8244(9) 0.1285(7)
C9 C 0.9793(11) 0.9015(10) 0.3538(9)
N1 N 0.6299(7) 0.2265(7) 0.0664(5)
H1 H 0.994(7) 1.022(8) 0.351(6)
H2 H 0.667(7) 0.539(7) 0.227(5)
H3 H 0.755(11) 0.820(11) 0.233(8)
H4 H 0.752(10) 0.205(11) -0.009(8)
H5 H 0.980(10) 0.863(10) 0.424(8)
H6 H 0.902(10) 0.426(10) 0.073(8)
H7 H 0.527(11) 0.305(11) 0.159(8)
H8 H 0.778(8) 0.834(8) 0.050(6)
Ag1C Ag 1.5000 0.0000 0.5000
C1A C 1.2556(9) 0.2657(9) 0.4581(8)
C2A C 1.1631(9) 0.4073(10) 0.4125(8)
C3A C 1.1872(7) 0.5211(7) 0.3403(6)
C4A C 1.3080(9) 0.4728(8) 0.3164(7)
C5A C 1.3942(9) 0.3295(10) 0.3626(8)
C6A C 1.0923(7) 0.6714(8) 0.2921(6)
C7A C 1.1538(9) 0.8232(9) 0.2629(8)
C8A C 1.1322(9) 0.8244(9) 0.3715(7)
C9A C 1.0207(11) 0.9015(10) 0.1462(9)
N1A N 1.3701(7) 0.2265(7) 0.4336(5)
N1B N 0.3701(7) -0.2265(7) -0.0664(5)
H1A H 1.006(7) 1.022(8) 0.149(6)
H2A H 1.333(7) 0.539(7) 0.273(5)
H3A H 1.245(11) 0.820(11) 0.267(8)
H4A H 1.248(10) 0.205(11) 0.509(8)
H5A H 1.020(10) 0.863(10) 0.076(8)
H6A H 1.098(10) 0.426(10) 0.427(8)
H7A H 1.473(11) 0.305(11) 0.341(8)
H8A H 1.222(8) 0.834(8) 0.450(6)
N2 N 0.5000 0.9616(10) 0.2500
O1 O 0.5000 0.8095(9) 0.2500
O2 O 0.3860(6) 1.0401(6) 0.1633(5)
O2A O 0.6140(6) 1.0401(6) 0.3367(5)
loop_
_geom_bond_atom_site_label_1
_geom_bond_atom_site_label_2
_geom_bond_site_symmetry_1
_geom_bond_site_symmetry_2
Ag1 N1 1_555 1_555
C1 C2 1_555 1_555
C2 C3 1_555 1_555
C3 C4 1_555 1_555
C4 C5 1_555 1_555
C5 N1 1_555 1_555
C6 C3 1_555 1_555
C7 C6 1_555 1_555
C8 C6 1_555 1_555
C9 C7 1_555 1_555
N1 C1 1_555 1_555
N2 O1 1_555 1_555
O2 N2 1_555 1_555
H1 C9 1_555 1_555
H2 C4 1_555 1_555
H3 C7 1_555 1_555
H4 C1 1_555 1_555
H5 C9 1_555 1_555
H6 C2 1_555 1_555
H7 C5 1_555 1_555
H8 C8 1_555 1_555
Ag1C N1A 1_555 1_555
C1A C2A 1_555 1_555
C2A C3A 1_555 1_555
C3A C4A 1_555 1_555
C4A C5A 1_555 1_555
C5A N1A 1_555 1_555
C6A C6 1_555 1_555
C7A C6A 1_555 1_555
C8A C9 1_555 1_555
C9A C8 1_555 1_555
N1A C1A 1_555 1_555
N1B Ag1 1_555 1_555
O2A N2 1_555 1_555
H1A C9A 1_555 1_555
H2A C4A 1_555 1_555
H3A C7A 1_555 1_555
H4A C1A 1_555 1_555
H5A C9A 1_555 1_555
H6A C2A 1_555 1_555
H7A C5A 1_555 1_555
H8A C8A 1_555 1_555
C7 C8 1_555 1_555
C3A C6A 1_555 1_555
C6A C8A 1_555 1_555
C7A C8A 1_555 1_555
C7A C9A 1_555 1_555

#END
