
#######################################################################
#
#                 Cambridge Crystallographic Data Centre
#                                CCDC 
#
#######################################################################
#
# If this CIF has been generated from an entry in the Cambridge 
# Structural Database, then it will include bibliographic, chemical, 
# crystal, experimental, refinement or atomic coordinate data resulting 
# from the CCDC's data processing and validation procedures.
#
#######################################################################

data_YAVGEI
_symmetry_cell_setting           orthorhombic
_symmetry_space_group_name_H-M   'P c c n'
_symmetry_Int_Tables_number      56
_space_group_name_Hall           '-P 2ab 2ac'
loop_
_symmetry_equiv_pos_site_id
_symmetry_equiv_pos_as_xyz
1 x,y,z
2 1/2-x,1/2-y,z
3 -x,1/2+y,1/2-z
4 1/2+x,-y,1/2-z
5 -x,-y,-z
6 1/2+x,1/2+y,-z
7 x,1/2-y,1/2+z
8 1/2-x,y,1/2+z
_cell_length_a                   34.8648(17)
_cell_length_b                   10.9050(5)
_cell_length_c                   15.1589(7)
_cell_angle_alpha                90
_cell_angle_beta                 90
_cell_angle_gamma                90
_cell_volume                     5763.42
loop_
_atom_site_label
_atom_site_type_symbol
_atom_site_fract_x
_atom_site_fract_y
_atom_site_fract_z
Ag1 Ag 0.10642(2) 0.74317(8) 0.47975(6)
C1 C 0.1616(3) 0.6348(10) 0.3353(7)
H1 H 0.1476 0.5633 0.3510
C2 C 0.1847(3) 0.6296(12) 0.2585(8)
H2 H 0.1854 0.5578 0.2230
C3 C 0.2057(3) 0.7291(11) 0.2370(7)
C4 C 0.2031(3) 0.8304(11) 0.2912(6)
H3 H 0.2179 0.9016 0.2788
C5 C 0.1786(3) 0.8277(11) 0.3649(6)
H4 H 0.1766 0.8986 0.4011
C6 C 0.2286(3) 0.7341(14) 0.1538(7)
C7 C 0.2124(3) 0.7903(18) 0.0702(7)
H5 H 0.1848 0.8154 0.0701
C8 C 0.2212(3) 0.659(2) 0.0723(8)
H6 H 0.1996 0.5991 0.0725
C9 C 0.2412(4) 0.877(2) 0.0309(9)
H7 H 0.2422 0.8677 -0.0341
H8 H 0.2347 0.9630 0.0453
C10 C 0.0569(3) 0.6816(11) 0.3082(8)
H9 H 0.0786 0.6303 0.3000
C11 C 0.0269(3) 0.6739(10) 0.2474(7)
H10 H 0.0282 0.6174 0.1998
C12 C -0.0040(3) 0.7473(9) 0.2567(7)
C13 C -0.0047(3) 0.8288(9) 0.3288(6)
H11 H -0.0257 0.8826 0.3380
C14 C 0.0266(3) 0.8279(9) 0.3866(6)
H12 H 0.0262 0.8818 0.4358
C15 C -0.0367(3) 0.7385(8) 0.1942(6)
C16 C -0.0535(4) 0.8545(10) 0.1506(7)
H13 H -0.0419 0.9358 0.1655
C17 C -0.0299(4) 0.7642(11) 0.0962(7)
H14 H -0.0036 0.7889 0.0763
C18 C -0.0517(4) 0.6740(11) 0.0426(6)
H15 H -0.0344 0.6098 0.0193
H16 H -0.0645 0.7152 -0.0076
C19 C -0.0668(4) 0.4807(11) 0.4215(7)
H17 H -0.0545 0.4890 0.4771
C20 C -0.0578(3) 0.5636(11) 0.3573(6)
H18 H -0.0401 0.6276 0.3695
C21 C -0.0746(3) 0.5546(9) 0.2732(5)
C22 C -0.0986(3) 0.4525(12) 0.2615(7)
H19 H -0.1094 0.4365 0.2051
C23 C -0.1063(3) 0.3769(12) 0.3297(7)
H20 H -0.1232 0.3102 0.3197
C24 C -0.0687(3) 0.6459(9) 0.2010(6)
C25 C -0.1054(4) 0.7038(13) 0.1593(8)
H21 H -0.1313 0.6778 0.1806
C26 C -0.0818(3) 0.6174(10) 0.1054(6)
H22 H -0.0923 0.5343 0.0918
C27 C -0.0964(4) 0.8444(13) 0.1464(8)
H23 H -0.1084 0.8936 0.1938
H24 H -0.1061 0.8735 0.0887
N1 N 0.1582(2) 0.7297(8) 0.3851(5)
N2 N 0.0564(3) 0.7564(8) 0.3763(7)
N3 N -0.0913(2) 0.3901(8) 0.4115(5)
N4 N 0.0997(3) 0.9692(10) 0.5945(6)
O1 O 0.1298(3) 0.9355(11) 0.5570(7)
O2 O 0.0689(3) 0.9223(9) 0.5704(6)
O3 O 0.0985(3) 1.0492(13) 0.6514(8)
Ag1A Ag 0.39358(2) 0.75683(8) 0.47975(6)
Ag1D Ag -0.10642(2) 0.25683(8) 0.52025(6)
C1A C 0.3384(3) 0.8652(10) 0.3353(7)
H1A H 0.3524 0.9367 0.3510
C2A C 0.3153(3) 0.8704(12) 0.2585(8)
H2A H 0.3146 0.9422 0.2230
C3A C 0.2943(3) 0.7709(11) 0.2370(7)
C4A C 0.2969(3) 0.6696(11) 0.2912(6)
H3A H 0.2821 0.5984 0.2788
C5A C 0.3214(3) 0.6723(11) 0.3649(6)
H4A H 0.3234 0.6014 0.4011
C6A C 0.2714(3) 0.7659(14) 0.1538(7)
C7A C 0.2876(3) 0.7097(18) 0.0702(7)
H5A H 0.3152 0.6846 0.0701
C8A C 0.2788(3) 0.841(2) 0.0723(8)
H6A H 0.3004 0.9009 0.0725
C9A C 0.2588(4) 0.623(2) 0.0309(9)
H7A H 0.2578 0.6323 -0.0341
H8A H 0.2653 0.5370 0.0453
C10D C -0.0569(3) 0.3184(11) 0.6918(8)
H9D H -0.0786 0.3697 0.7000
C11D C -0.0269(3) 0.3261(10) 0.7526(7)
H10D H -0.0282 0.3826 0.8002
C12D C 0.0040(3) 0.2527(9) 0.7433(7)
C13D C 0.0047(3) 0.1712(9) 0.6712(6)
H11D H 0.0257 0.1174 0.6620
C14D C -0.0266(3) 0.1721(9) 0.6134(6)
H12D H -0.0262 0.1182 0.5642
C15D C 0.0367(3) 0.2615(8) 0.8058(6)
C16D C 0.0535(4) 0.1455(10) 0.8494(7)
H13D H 0.0419 0.0642 0.8345
C17D C 0.0299(4) 0.2358(11) 0.9038(7)
H14D H 0.0036 0.2111 0.9237
C18D C 0.0517(4) 0.3260(11) 0.9574(6)
H15D H 0.0344 0.3902 0.9807
H16D H 0.0645 0.2848 1.0076
C19D C 0.0668(4) 0.5193(11) 0.5785(7)
H17D H 0.0545 0.5110 0.5229
C20D C 0.0578(3) 0.4364(11) 0.6427(6)
H18D H 0.0401 0.3724 0.6305
C21D C 0.0746(3) 0.4454(9) 0.7268(5)
C22D C 0.0986(3) 0.5475(12) 0.7385(7)
H19D H 0.1094 0.5635 0.7949
C23D C 0.1063(3) 0.6231(12) 0.6703(7)
H20D H 0.1232 0.6898 0.6803
C24D C 0.0687(3) 0.3541(9) 0.7990(6)
C25D C 0.1054(4) 0.2962(13) 0.8407(8)
H21D H 0.1313 0.3222 0.8194
C26D C 0.0818(3) 0.3826(10) 0.8946(6)
H22D H 0.0923 0.4657 0.9082
C27D C 0.0964(4) 0.1556(13) 0.8536(8)
H23D H 0.1084 0.1064 0.8062
H24D H 0.1061 0.1265 0.9113
N1A N 0.3418(2) 0.7703(8) 0.3851(5)
N2D N -0.0564(3) 0.2436(8) 0.6237(7)
N2A N 0.4436(3) 0.7436(8) 0.3763(7)
N3D N 0.0913(2) 0.6099(8) 0.5885(5)
N3E N 0.4087(2) 0.8901(8) 0.5885(5)
N4A N 0.4003(3) 0.5308(10) 0.5945(6)
O1A O 0.3702(3) 0.5645(11) 0.5570(7)
O2A O 0.4311(3) 0.5777(9) 0.5704(6)
O3A O 0.4015(3) 0.4508(13) 0.6514(8)
loop_
_geom_bond_atom_site_label_1
_geom_bond_atom_site_label_2
_geom_bond_site_symmetry_1
_geom_bond_site_symmetry_2
Ag1 N1 1_555 1_555
C1 H1 1_555 1_555
C2 C1 1_555 1_555
H2 C2 1_555 1_555
C3 C2 1_555 1_555
C4 C3 1_555 1_555
H3 C4 1_555 1_555
C5 C4 1_555 1_555
H4 C5 1_555 1_555
C6 C3 1_555 1_555
C7 C6 1_555 1_555
H5 C7 1_555 1_555
C8 C6 1_555 1_555
H6 C8 1_555 1_555
C9 C7 1_555 1_555
H7 C9 1_555 1_555
H8 C9 1_555 1_555
C10 H9 1_555 1_555
C11 C10 1_555 1_555
H10 C11 1_555 1_555
C12 C11 1_555 1_555
C13 C12 1_555 1_555
H11 C13 1_555 1_555
C14 C13 1_555 1_555
H12 C14 1_555 1_555
C15 C12 1_555 1_555
C16 C15 1_555 1_555
H13 C16 1_555 1_555
C17 C15 1_555 1_555
H14 C17 1_555 1_555
C18 C17 1_555 1_555
H15 C18 1_555 1_555
H16 C18 1_555 1_555
C19 H17 1_555 1_555
C20 C19 1_555 1_555
H18 C20 1_555 1_555
C21 C20 1_555 1_555
C22 C21 1_555 1_555
H19 C22 1_555 1_555
C23 C22 1_555 1_555
H20 C23 1_555 1_555
C24 C15 1_555 1_555
C25 C24 1_555 1_555
H21 C25 1_555 1_555
C26 C18 1_555 1_555
H22 C26 1_555 1_555
C27 C16 1_555 1_555
H23 C27 1_555 1_555
H24 C27 1_555 1_555
N1 C1 1_555 1_555
N2 Ag1 1_555 1_555
N3 C19 1_555 1_555
N4 O1 1_555 1_555
O1 Ag1 1_555 1_555
O2 N4 1_555 1_555
O3 N4 1_555 1_555
Ag1A N1A 1_555 1_555
Ag1D N3 1_555 1_555
C1A H1A 1_555 1_555
C2A C1A 1_555 1_555
H2A C2A 1_555 1_555
C3A C2A 1_555 1_555
C4A C3A 1_555 1_555
H3A C4A 1_555 1_555
C5A C4A 1_555 1_555
H4A C5A 1_555 1_555
C6A C6 1_555 1_555
C7A C6A 1_555 1_555
H5A C7A 1_555 1_555
C8A C9 1_555 1_555
H6A C8A 1_555 1_555
C9A C8 1_555 1_555
H7A C9A 1_555 1_555
H8A C9A 1_555 1_555
C10D H9D 1_555 1_555
C11D C10D 1_555 1_555
H10D C11D 1_555 1_555
C12D C11D 1_555 1_555
C13D C12D 1_555 1_555
H11D C13D 1_555 1_555
C14D C13D 1_555 1_555
H12D C14D 1_555 1_555
C15D C12D 1_555 1_555
C16D C15D 1_555 1_555
H13D C16D 1_555 1_555
C17D C15D 1_555 1_555
H14D C17D 1_555 1_555
C18D C17D 1_555 1_555
H15D C18D 1_555 1_555
H16D C18D 1_555 1_555
C19D H17D 1_555 1_555
C20D C19D 1_555 1_555
H18D C20D 1_555 1_555
C21D C20D 1_555 1_555
C22D C21D 1_555 1_555
H19D C22D 1_555 1_555
C23D C22D 1_555 1_555
H20D C23D 1_555 1_555
C24D C15D 1_555 1_555
C25D C24D 1_555 1_555
H21D C25D 1_555 1_555
C26D C18D 1_555 1_555
H22D C26D 1_555 1_555
C27D C16D 1_555 1_555
H23D C27D 1_555 1_555
H24D C27D 1_555 1_555
N1A C1A 1_555 1_555
N2D Ag1D 1_555 1_555
N2A Ag1A 1_555 1_555
N3D Ag1 1_555 1_555
N3E Ag1A 1_555 1_555
N4A O1A 1_555 1_555
O1A Ag1A 1_555 1_555
O2A N4A 1_555 1_555
O3A N4A 1_555 1_555
C5 N1 1_555 1_555
C7 C8 1_555 1_555
C10 N2 1_555 1_555
C14 N2 1_555 1_555
C16 C17 1_555 1_555
C21 C24 1_555 1_555
C23 N3 1_555 1_555
C24 C26 1_555 1_555
C25 C26 1_555 1_555
C25 C27 1_555 1_555
C3A C6A 1_555 1_555
C5A N1A 1_555 1_555
C6A C8A 1_555 1_555
C7A C8A 1_555 1_555
C7A C9A 1_555 1_555
C10D N2D 1_555 1_555
C14D N2D 1_555 1_555
C16D C17D 1_555 1_555
C19D N3D 1_555 1_555
C21D C24D 1_555 1_555
C23D N3D 1_555 1_555
C24D C26D 1_555 1_555
C25D C26D 1_555 1_555
C25D C27D 1_555 1_555

#END
