
#######################################################################
#
#                 Cambridge Crystallographic Data Centre
#                                CCDC 
#
#######################################################################
#
# If this CIF has been generated from an entry in the Cambridge 
# Structural Database, then it will include bibliographic, chemical, 
# crystal, experimental, refinement or atomic coordinate data resulting 
# from the CCDC's data processing and validation procedures.
#
#######################################################################

data_YAVGAF
_symmetry_cell_setting           triclinic
_symmetry_space_group_name_H-M   'P -1'
_symmetry_Int_Tables_number      2
_space_group_name_Hall           '-P 1'
loop_
_symmetry_equiv_pos_site_id
_symmetry_equiv_pos_as_xyz
1 x,y,z
2 -x,-y,-z
_cell_length_a                   5.1912(10)
_cell_length_b                   7.3362(15)
_cell_length_c                   8.0760(16)
_cell_angle_alpha                72.38(3)
_cell_angle_beta                 73.35(3)
_cell_angle_gamma                72.06(3)
_cell_volume                     272.472
loop_
_atom_site_label
_atom_site_type_symbol
_atom_site_fract_x
_atom_site_fract_y
_atom_site_fract_z
Cu1 Cu 0.5000 0.5000 0.5000
O1 O 0.2209(2) 0.6273(2) 0.35621(16)
O2 O -0.2197(3) 0.7996(2) 0.3757(2)
N1 N 0.2291(3) 0.6433(2) 0.67259(18)
N2 N -0.1986(4) 0.8650(3) 0.8789(3)
C1 C -0.1986(4) 0.8650(3) 0.8789(3)
H1 H -0.3423 0.9394 0.9485
C2 C 0.2491(4) 0.6471(3) 0.8334(2)
C3 C 0.0365(5) 0.7570(4) 0.9378(3)
C4 C -0.2176(4) 0.8611(3) 0.7148(3)
C5 C -0.0027(3) 0.7483(2) 0.6142(2)
C6 C -0.0066(3) 0.7277(3) 0.4335(2)
H2 H 0.410(5) 0.577(4) 0.867(3)
H3 H 0.053(6) 0.752(5) 1.042(4)
H4 H -0.372(5) 0.935(4) 0.668(3)
Cu1_2 Cu -0.5000 0.5000 0.5000
Cu1_3 Cu 1.5000 0.5000 0.5000
O1_2 O 1.2209(2) 0.6273(2) 0.35621(16)
O1A O 0.7791(2) 0.3727(2) 0.64379(16)
O2_2 O 0.7803(3) 0.7996(2) 0.3757(2)
O2A O 0.2197(3) 0.2004(2) 0.6243(2)
N1_2 N 1.2291(3) 0.6433(2) 0.67259(18)
N1A N 0.7709(3) 0.3567(2) 0.32741(18)
N2_2 N 0.8014(4) 0.8650(3) 0.8789(3)
H1_2 H 0.6577 0.9394 0.9485
C2_2 C 1.2491(4) 0.6471(3) 0.8334(2)
C3_2 C 1.0365(5) 0.7570(4) 0.9378(3)
C4_2 C 0.7824(4) 0.8611(3) 0.7148(3)
C5_2 C 0.9973(3) 0.7483(2) 0.6142(2)
C6_2 C 0.9934(3) 0.7277(3) 0.4335(2)
H2_2 H 1.410(5) 0.577(4) 0.867(3)
H3_2 H 1.053(6) 0.752(5) 1.042(4)
H4_2 H 0.628(5) 0.935(4) 0.668(3)
loop_
_geom_bond_atom_site_label_1
_geom_bond_atom_site_label_2
_geom_bond_site_symmetry_1
_geom_bond_site_symmetry_2
Cu1 O1 1_555 1_555
O1 C6 1_555 1_555
O2 C6 1_555 1_555
N1 Cu1 1_555 1_555
N2 H1 1_555 1_555
C1 H1 1_555 1_555
C2 N1 1_555 1_555
C3 N2 1_555 1_555
C4 N2 1_555 1_555
C5 N1 1_555 1_555
C6 C5 1_555 1_555
H2 C2 1_555 1_555
H3 C3 1_555 1_555
H4 C4 1_555 1_555
Cu1_2 O2 1_555 1_555
Cu1_3 O1_2 1_555 1_555
O1_2 C6_2 1_555 1_555
O1A Cu1 1_555 1_555
O2_2 Cu1 1_555 1_555
O2A Cu1 1_555 1_555
N1_2 Cu1_3 1_555 1_555
N1A Cu1 1_555 1_555
N2_2 H1_2 1_555 1_555
C2_2 N1_2 1_555 1_555
C3_2 N2_2 1_555 1_555
C4_2 N2_2 1_555 1_555
C5_2 N1_2 1_555 1_555
C6_2 O2_2 1_555 1_555
H2_2 C2_2 1_555 1_555
H3_2 C3_2 1_555 1_555
H4_2 C4_2 1_555 1_555
C1 C3 1_555 1_555
C1 C4 1_555 1_555
C2 C3 1_555 1_555
C4 C5 1_555 1_555
C2_2 C3_2 1_555 1_555
C4_2 C5_2 1_555 1_555
C5_2 C6_2 1_555 1_555

#END
