
#######################################################################
#
#                 Cambridge Crystallographic Data Centre
#                                CCDC 
#
#######################################################################
#
# If this CIF has been generated from an entry in the Cambridge 
# Structural Database, then it will include bibliographic, chemical, 
# crystal, experimental, refinement or atomic coordinate data resulting 
# from the CCDC's data processing and validation procedures.
#
#######################################################################

data_YAVJIQ
_symmetry_cell_setting           tetragonal
_symmetry_space_group_name_H-M   'P 42/n'
_symmetry_Int_Tables_number      86
_space_group_name_Hall           '-P 4bc'
loop_
_symmetry_equiv_pos_site_id
_symmetry_equiv_pos_as_xyz
1 x,y,z
2 1/2-x,1/2-y,z
3 -y,1/2+x,1/2+z
4 1/2+y,-x,1/2+z
5 -x,-y,-z
6 1/2+x,1/2+y,-z
7 y,1/2-x,1/2-z
8 1/2-y,x,1/2-z
_cell_length_a                   16.08220(10)
_cell_length_b                   16.08220(10)
_cell_length_c                   9.0114(2)
_cell_angle_alpha                90
_cell_angle_beta                 90
_cell_angle_gamma                90
_cell_volume                     2330.68
loop_
_atom_site_label
_atom_site_type_symbol
_atom_site_fract_x
_atom_site_fract_y
_atom_site_fract_z
Zn1 Zn 0.885173(13) 0.359714(13) 0.23661(2)
Cl1 Cl 0.98564(3) 0.32498(3) 0.08256(5)
N1 N 0.77639(9) 0.36431(10) 0.13125(16)
N2 N 0.54000(9) 0.39656(9) -0.12543(16)
N3 N 0.70033(10) 0.37375(9) -0.06425(16)
C1 C 0.56126(11) 0.38790(11) 0.01738(19)
N4 N 0.49454(9) 0.38891(9) 0.10836(16)
N5 N 0.77765(10) 0.36571(10) -0.01789(16)
C2 C 0.42444(11) 0.39630(11) 0.0191(2)
C3 C 0.49483(13) 0.37849(12) 0.2694(2)
H1 H 0.4956 0.3203 0.2931
H2 H 0.4458 0.4035 0.3106
H3 H 0.5433 0.4048 0.3102
C4 C 0.64827(11) 0.37783(11) 0.0545(2)
C5 C 0.45381(11) 0.40207(11) -0.1272(2)
C6 C 0.34009(13) 0.39762(12) 0.0530(2)
H4 H 0.3210 0.3937 0.1501
C7 C 0.69687(12) 0.37145(11) 0.1796(2)
H5 H 0.6788 0.3719 0.2776
C8 C 0.28615(14) 0.40506(13) -0.0658(2)
H6 H 0.2292 0.4049 -0.0481
C9 C 0.31471(14) 0.41287(13) -0.2123(2)
H7 H 0.2763 0.4187 -0.2887
C10 C 0.39841(12) 0.41205(12) -0.2457(2)
H8 H 0.4172 0.4179 -0.3427
Zn1B Zn 0.640286(13) 0.385173(13) -0.26339(2)
N2C N 0.89656(9) 0.46000(9) 0.37457(16)
N3C N 0.87375(9) 0.29967(10) 0.43575(16)
loop_
_geom_bond_atom_site_label_1
_geom_bond_atom_site_label_2
_geom_bond_site_symmetry_1
_geom_bond_site_symmetry_2
Zn1 Cl1 1_555 1_555
N1 Zn1 1_555 1_555
N2 C1 1_555 1_555
N3 N5 1_555 1_555
C1 N4 1_555 1_555
N4 C2 1_555 1_555
N5 N1 1_555 1_555
C2 C5 1_555 1_555
C3 N4 1_555 1_555
H1 C3 1_555 1_555
H2 C3 1_555 1_555
H3 C3 1_555 1_555
C4 N3 1_555 1_555
C5 N2 1_555 1_555
C6 C2 1_555 1_555
H4 C6 1_555 1_555
C7 N1 1_555 1_555
H5 C7 1_555 1_555
C8 C6 1_555 1_555
H6 C8 1_555 1_555
C9 C8 1_555 1_555
H7 C9 1_555 1_555
C10 C5 1_555 1_555
H8 C10 1_555 1_555
Zn1B N2 1_555 1_555
N2C Zn1 1_555 1_555
N3C Zn1 1_555 1_555
N3 Zn1B 1_555 1_555
C1 C4 1_555 1_555
C4 C7 1_555 1_555
C9 C10 1_555 1_555

#END
