
#######################################################################
#
#                 Cambridge Crystallographic Data Centre
#                                CCDC 
#
#######################################################################
#
# If this CIF has been generated from an entry in the Cambridge 
# Structural Database, then it will include bibliographic, chemical, 
# crystal, experimental, refinement or atomic coordinate data resulting 
# from the CCDC's data processing and validation procedures.
#
#######################################################################

data_YAVJAI
_symmetry_cell_setting           triclinic
_symmetry_space_group_name_H-M   'P -1'
_symmetry_Int_Tables_number      2
_space_group_name_Hall           '-P 1'
loop_
_symmetry_equiv_pos_site_id
_symmetry_equiv_pos_as_xyz
1 x,y,z
2 -x,-y,-z
_cell_length_a                   3.8298(5)
_cell_length_b                   6.5626(9)
_cell_length_c                   14.5831(18)
_cell_angle_alpha                98.001(10)
_cell_angle_beta                 95.315(11)
_cell_angle_gamma                92.963(11)
_cell_volume                     360.619
loop_
_atom_site_label
_atom_site_type_symbol
_atom_site_fract_x
_atom_site_fract_y
_atom_site_fract_z
C1 C 0.5737(16) 0.5901(8) 0.3289(4)
H1 H 0.6553 0.5307 0.3805
C2 C 0.5746(17) 0.4781(8) 0.2408(4)
H2 H 0.6561 0.3463 0.2338
C3 C 0.4531(16) 0.5643(8) 0.1635(4)
H3 H 0.4528 0.4926 0.1038
C4 C 0.3308(14) 0.7624(7) 0.1775(3)
C5 C 0.1917(15) 0.8656(8) 0.0996(3)
C6 C 0.3410(14) 0.8644(7) 0.2680(3)
H4 H 0.2618 0.9966 0.2770
N1 N 0.4590(13) 0.7817(7) 0.3425(3)
O1 O 0.0639(17) 1.0378(8) 0.1165(3)
O2 O 0.2082(19) 0.7727(9) 0.0170(3)
H5 H 0.1115 0.8387 -0.0208
Cl1 Cl 0.9257(3) 0.77277(19) 0.56211(9)
Hg1 Hg 0.5000 1.0000 0.5000
C1A C 0.4263(16) 1.4099(8) 0.6711(4)
H1A H 0.3447 1.4693 0.6195
C2A C 0.4254(17) 1.5219(8) 0.7592(4)
H2A H 0.3439 1.6537 0.7662
C3A C 0.5469(16) 1.4357(8) 0.8365(4)
H3A H 0.5472 1.5074 0.8962
C4A C 0.6692(14) 1.2376(7) 0.8225(3)
C5A C 0.8083(15) 1.1344(8) 0.9004(3)
C6A C 0.6590(14) 1.1356(7) 0.7320(3)
H4A H 0.7382 1.0034 0.7230
N1A N 0.5410(13) 1.2183(7) 0.6575(3)
O1A O 0.9361(17) 0.9622(8) 0.8835(3)
O2A O 0.7918(19) 1.2273(9) 0.9830(3)
H5A H 0.8885 1.1613 1.0208
Cl1_2 Cl -0.0743(3) 0.77277(19) 0.56211(9)
Cl1A Cl 0.0743(3) 1.22723(19) 0.43789(9)
Cl1A_2 Cl 1.0743(3) 1.22723(19) 0.43789(9)
Hg1_2 Hg 1.5000 1.0000 0.5000
Hg1_3 Hg -0.5000 1.0000 0.5000
loop_
_geom_bond_atom_site_label_1
_geom_bond_atom_site_label_2
_geom_bond_site_symmetry_1
_geom_bond_site_symmetry_2
C1 H1 1_555 1_555
C2 C1 1_555 1_555
H2 C2 1_555 1_555
C3 C2 1_555 1_555
H3 C3 1_555 1_555
C4 C3 1_555 1_555
C5 C4 1_555 1_555
C6 C4 1_555 1_555
H4 C6 1_555 1_555
N1 C1 1_555 1_555
O1 C5 1_555 1_555
O2 C5 1_555 1_555
H5 O2 1_555 1_555
Cl1 Hg1 1_555 1_555
Hg1 N1 1_555 1_555
C1A H1A 1_555 1_555
C2A C1A 1_555 1_555
H2A C2A 1_555 1_555
C3A C2A 1_555 1_555
H3A C3A 1_555 1_555
C4A C3A 1_555 1_555
C5A C4A 1_555 1_555
C6A C4A 1_555 1_555
H4A C6A 1_555 1_555
N1A Hg1 1_555 1_555
O1A C5A 1_555 1_555
O2A C5A 1_555 1_555
H5A O2A 1_555 1_555
Cl1_2 Hg1 1_555 1_555
Cl1A Hg1 1_555 1_555
Cl1A_2 Hg1 1_555 1_555
Hg1_2 Cl1 1_555 1_555
Hg1_3 Cl1_2 1_555 1_555
C6 N1 1_555 1_555
C1A N1A 1_555 1_555
C6A N1A 1_555 1_555
Cl1A Hg1_3 1_555 1_555
Cl1A_2 Hg1_2 1_555 1_555

#END
