
#######################################################################
#
#                 Cambridge Crystallographic Data Centre
#                                CCDC 
#
#######################################################################
#
# If this CIF has been generated from an entry in the Cambridge 
# Structural Database, then it will include bibliographic, chemical, 
# crystal, experimental, refinement or atomic coordinate data resulting 
# from the CCDC's data processing and validation procedures.
#
#######################################################################

data_YAVJUC
_symmetry_cell_setting           triclinic
_symmetry_space_group_name_H-M   'P -1'
_symmetry_Int_Tables_number      2
_space_group_name_Hall           '-P 1'
loop_
_symmetry_equiv_pos_site_id
_symmetry_equiv_pos_as_xyz
1 x,y,z
2 -x,-y,-z
_cell_length_a                   7.6210(6)
_cell_length_b                   8.0589(7)
_cell_length_c                   9.1641(9)
_cell_angle_alpha                102.7830(10)
_cell_angle_beta                 97.5440(10)
_cell_angle_gamma                106.036(2)
_cell_volume                     516.288
loop_
_atom_site_label
_atom_site_type_symbol
_atom_site_fract_x
_atom_site_fract_y
_atom_site_fract_z
Sr1 Sr 0.50000 0.50000 0.50000
O1 O 0.3110(6) 0.2631(5) 0.5968(5)
N1 N -0.0566(7) -0.7449(6) -0.3419(5)
N2 N -0.2033(7) -0.8777(6) -0.4402(6)
N3 N -0.3273(6) -0.8089(6) -0.4930(6)
N4 N -0.2656(6) -0.6290(6) -0.4306(5)
N5 N 0.3031(6) 0.1033(6) 0.0479(5)
N6 N 0.4352(6) 0.3262(6) 0.2555(5)
C1 C -0.0992(7) -0.5942(7) -0.3381(6)
C2 C 0.0161(7) -0.4150(7) -0.2417(6)
C3 C 0.1352(8) -0.3925(8) -0.1057(7)
C4 C 0.2324(8) -0.2232(7) -0.0114(7)
C5 C 0.2105(7) -0.0735(7) -0.0516(6)
C6 C 0.0955(8) -0.0935(7) -0.1875(6)
C7 C -0.0003(8) -0.2634(7) -0.2825(6)
C8 C 0.3753(8) 0.1501(7) 0.1989(6)
C9 C 0.4015(8) 0.3956(7) 0.1358(6)
C10 C 0.3208(8) 0.2604(7) 0.0071(6)
H1 H 0.20900 0.27310 0.61930
H2 H 0.29230 0.15410 0.55030
H3 H 0.14980 -0.49270 -0.07760
H4 H 0.31260 -0.21000 0.07910
H5 H 0.08210 0.00710 -0.21560
H6 H -0.07670 -0.27600 -0.37480
H7 H 0.38200 0.06900 0.25590
H8 H 0.42970 0.51710 0.14180
H9 H 0.28420 0.27160 -0.09020
Sr1_2 Sr -0.50000 -0.50000 -0.50000
O1A O 0.6890(6) 0.7369(5) 0.4032(5)
N1A N 0.0566(7) 0.7449(6) 0.3419(5)
N2A N 0.2033(7) 0.8777(6) 0.4402(6)
N3A N 0.3273(6) 0.8089(6) 0.4930(6)
N4_2 N 0.7344(6) 0.3710(6) 0.5694(5)
N4A N 0.2656(6) 0.6290(6) 0.4306(5)
N5A N -0.3031(6) -0.1033(6) -0.0479(5)
N6A N 0.5648(6) 0.6738(6) 0.7445(5)
N6A_2 N -0.4352(6) -0.3262(6) -0.2555(5)
C1A C 0.0992(7) 0.5942(7) 0.3381(6)
C2A C -0.0161(7) 0.4150(7) 0.2417(6)
C3A C -0.1352(8) 0.3925(8) 0.1057(7)
C4A C -0.2324(8) 0.2232(7) 0.0114(7)
C5A C -0.2105(7) 0.0735(7) 0.0516(6)
C6A C -0.0955(8) 0.0935(7) 0.1875(6)
C7A C 0.0003(8) 0.2634(7) 0.2825(6)
C8A C -0.3753(8) -0.1501(7) -0.1989(6)
C9A C -0.4015(8) -0.3956(7) -0.1358(6)
C10A C -0.3208(8) -0.2604(7) -0.0071(6)
H1A H 0.79100 0.72690 0.38070
H2A H 0.70770 0.84590 0.44970
H3A H -0.14980 0.49270 0.07760
H4A H -0.31260 0.21000 -0.07910
H5A H -0.08210 -0.00710 0.21560
H6A H 0.07670 0.27600 0.37480
H7A H -0.38200 -0.06900 -0.25590
H8A H -0.42970 -0.51710 -0.14180
H9A H -0.28420 -0.27160 0.09020
loop_
_geom_bond_atom_site_label_1
_geom_bond_atom_site_label_2
_geom_bond_site_symmetry_1
_geom_bond_site_symmetry_2
Sr1 O1 1_555 1_555
O1 H1 1_555 1_555
N1 N2 1_555 1_555
N2 N3 1_555 1_555
N3 N4 1_555 1_555
N4 C1 1_555 1_555
N5 C5 1_555 1_555
N6 Sr1 1_555 1_555
C1 N1 1_555 1_555
C2 C1 1_555 1_555
C3 C2 1_555 1_555
C4 C3 1_555 1_555
C5 C4 1_555 1_555
C6 C5 1_555 1_555
C7 C2 1_555 1_555
C8 N5 1_555 1_555
C9 N6 1_555 1_555
C10 N5 1_555 1_555
H2 O1 1_555 1_555
H3 C3 1_555 1_555
H4 C4 1_555 1_555
H5 C6 1_555 1_555
H6 C7 1_555 1_555
H7 C8 1_555 1_555
H8 C9 1_555 1_555
H9 C10 1_555 1_555
Sr1_2 N4 1_555 1_555
O1A Sr1 1_555 1_555
N1A N2A 1_555 1_555
N2A N3A 1_555 1_555
N3A N4A 1_555 1_555
N4_2 Sr1 1_555 1_555
N4A Sr1 1_555 1_555
N5A C5A 1_555 1_555
N6A Sr1 1_555 1_555
N6A_2 Sr1_2 1_555 1_555
C1A N1A 1_555 1_555
C2A C1A 1_555 1_555
C3A C2A 1_555 1_555
C4A C3A 1_555 1_555
C5A C4A 1_555 1_555
C6A C5A 1_555 1_555
C7A C2A 1_555 1_555
C8A N5A 1_555 1_555
C9A N6A_2 1_555 1_555
C10A N5A 1_555 1_555
H1A O1A 1_555 1_555
H2A O1A 1_555 1_555
H3A C3A 1_555 1_555
H4A C4A 1_555 1_555
H5A C6A 1_555 1_555
H6A C7A 1_555 1_555
H7A C8A 1_555 1_555
H8A C9A 1_555 1_555
H9A C10A 1_555 1_555
N6 C8 1_555 1_555
C6 C7 1_555 1_555
C9 C10 1_555 1_555
N4A C1A 1_555 1_555
N6A_2 C8A 1_555 1_555
C6A C7A 1_555 1_555
C9A C10A 1_555 1_555

#END
