
#######################################################################
#
#                 Cambridge Crystallographic Data Centre
#                                CCDC 
#
#######################################################################
#
# If this CIF has been generated from an entry in the Cambridge 
# Structural Database, then it will include bibliographic, chemical, 
# crystal, experimental, refinement or atomic coordinate data resulting 
# from the CCDC's data processing and validation procedures.
#
#######################################################################

data_YAVKOX
_symmetry_cell_setting           monoclinic
_symmetry_space_group_name_H-M   'C 2/c'
_symmetry_Int_Tables_number      15
_space_group_name_Hall           '-C 2yn'
loop_
_symmetry_equiv_pos_site_id
_symmetry_equiv_pos_as_xyz
1 x,y,z
2 -x,y,1/2-z
3 1/2+x,1/2+y,z
4 1/2-x,1/2+y,1/2-z
5 -x,-y,-z
6 x,-y,1/2+z
7 1/2-x,1/2-y,-z
8 1/2+x,1/2-y,1/2+z
_cell_length_a                   18.646(4)
_cell_length_b                   12.068(2)
_cell_length_c                   10.741(2)
_cell_angle_alpha                90
_cell_angle_beta                 120.76(3)
_cell_angle_gamma                90
_cell_volume                     2076.92
loop_
_atom_site_label
_atom_site_type_symbol
_atom_site_fract_x
_atom_site_fract_y
_atom_site_fract_z
Co1 Co 0.5000 0.5000 0.5000
Cl1 Cl 0.40036(3) 0.13509(5) 0.26222(6)
Cl2 Cl 0.29749(4) 0.00958(5) -0.03453(6)
O1 O 0.40828(7) 0.41632(11) 0.30419(12)
O2 O 0.31637(9) 0.35243(14) 0.36131(15)
O3 O 0.58228(8) 0.50886(12) 0.42281(15)
H1 H 0.5784 0.4877 0.3441
H2 H 0.6151 0.5642 0.4520
N1 N 0.44543(10) 0.65072(14) 0.40112(17)
C1 C 0.34446(11) 0.36395(17) 0.27926(18)
C2 C 0.29635(11) 0.30562(17) 0.13275(19)
C3 C 0.31676(11) 0.19887(17) 0.11602(19)
C4 C 0.27131(11) 0.14324(17) -0.0150(2)
C5 C 0.48095(13) 0.7461(2) 0.3896(3)
H3 H 0.5380 0.7575 0.4302
C6 C 0.42110(16) 0.8213(2) 0.3105(3)
H4 H 0.4289 0.8929 0.2873
N2 N 0.34743(11) 0.77162(18) 0.27174(19)
H5 H 0.2986 0.8004 0.2202
C7 C 0.36442(13) 0.6702(2) 0.3279(2)
H6 H 0.3242 0.6193 0.3170
Co1B Co 0.0000 0.0000 -0.5000
Cl1F Cl 0.09964(3) 0.36491(5) -0.26222(6)
Cl2F Cl 0.20251(4) 0.49042(5) 0.03453(6)
O1F O 0.09172(7) 0.08368(11) -0.30419(12)
O1D O 0.59172(7) 0.58368(11) 0.69581(12)
O2F O 0.18363(9) 0.14757(14) -0.36131(15)
O3D O 0.41772(8) 0.49114(12) 0.57719(15)
H1D H 0.4216 0.5123 0.6559
H2D H 0.3849 0.4358 0.5480
N1D N 0.55457(10) 0.34928(14) 0.59888(17)
C1F C 0.15554(11) 0.13605(17) -0.27926(18)
C2F C 0.20365(11) 0.19438(17) -0.13275(19)
C3F C 0.18324(11) 0.30113(17) -0.11602(19)
C4F C 0.22869(11) 0.35676(17) 0.0150(2)
C5D C 0.51905(13) 0.2539(2) 0.6104(3)
H3D H 0.4620 0.2425 0.5698
C6D C 0.57890(16) 0.1787(2) 0.6895(3)
H4D H 0.5711 0.1071 0.7127
N2D N 0.65257(11) 0.22838(18) 0.72826(19)
H5D H 0.7014 0.1996 0.7798
C7D C 0.63558(13) 0.3298(2) 0.6721(2)
H6D H 0.6758 0.3807 0.6830
loop_
_geom_bond_atom_site_label_1
_geom_bond_atom_site_label_2
_geom_bond_site_symmetry_1
_geom_bond_site_symmetry_2
Co1 O1 1_555 1_555
Cl1 C3 1_555 1_555
Cl2 C4 1_555 1_555
O1 C1 1_555 1_555
O2 C1 1_555 1_555
O3 Co1 1_555 1_555
H1 O3 1_555 1_555
H2 O3 1_555 1_555
N1 Co1 1_555 1_555
C1 C2 1_555 1_555
C2 C3 1_555 1_555
C3 C4 1_555 1_555
C4 C2F 1_555 1_555
C5 N1 1_555 1_555
H3 C5 1_555 1_555
C6 C5 1_555 1_555
H4 C6 1_555 1_555
N2 C6 1_555 1_555
H5 N2 1_555 1_555
C7 N1 1_555 1_555
H6 C7 1_555 1_555
Co1B O1F 1_555 1_555
Cl1F C3F 1_555 1_555
Cl2F C4F 1_555 1_555
O1F C1F 1_555 1_555
O1D Co1 1_555 1_555
O2F C1F 1_555 1_555
O3D Co1 1_555 1_555
H1D O3D 1_555 1_555
H2D O3D 1_555 1_555
N1D Co1 1_555 1_555
C1F C2F 1_555 1_555
C2F C3F 1_555 1_555
C3F C4F 1_555 1_555
C4F C2 1_555 1_555
C5D N1D 1_555 1_555
H3D C5D 1_555 1_555
C6D C5D 1_555 1_555
H4D C6D 1_555 1_555
N2D C6D 1_555 1_555
H5D N2D 1_555 1_555
C7D N1D 1_555 1_555
H6D C7D 1_555 1_555
N2 C7 1_555 1_555
N2D C7D 1_555 1_555

#END
