
#######################################################################
#
#                 Cambridge Crystallographic Data Centre
#                                CCDC 
#
#######################################################################
#
# If this CIF has been generated from an entry in the Cambridge 
# Structural Database, then it will include bibliographic, chemical, 
# crystal, experimental, refinement or atomic coordinate data resulting 
# from the CCDC's data processing and validation procedures.
#
#######################################################################

data_YAVMIT
_symmetry_cell_setting           orthorhombic
_symmetry_space_group_name_H-M   'P 21 21 21'
_symmetry_Int_Tables_number      19
_space_group_name_Hall           'P 2ac 2ab'
loop_
_symmetry_equiv_pos_site_id
_symmetry_equiv_pos_as_xyz
1 x,y,z
2 1/2+x,1/2-y,-z
3 -x,1/2+y,1/2-z
4 1/2-x,-y,1/2+z
_cell_length_a                   9.2332(5)
_cell_length_b                   10.1337(6)
_cell_length_c                   12.4186(6)
_cell_angle_alpha                90
_cell_angle_beta                 90
_cell_angle_gamma                90
_cell_volume                     1161.96
loop_
_atom_site_label
_atom_site_type_symbol
_atom_site_fract_x
_atom_site_fract_y
_atom_site_fract_z
Zn1 Zn 0.05827(3) 0.83956(3) 0.63470(2)
N1 N 0.2523(2) 0.7592(2) 0.60162(16)
N2 N 0.4385(2) 0.68773(19) 0.49821(15)
N3 N -0.0333(2) 0.7247(2) 0.74592(16)
N4 N 0.5678(3) 0.5657(2) 0.6360(2)
N5 N -0.0775(2) 0.5294(2) 0.82910(16)
N6 N -0.1801(3) 0.8634(2) 0.86182(19)
N7 N -0.3055(3) 0.7441(3) 1.0014(2)
C1 C 0.3147(3) 0.7551(3) 0.5048(2)
H1 H 0.2743 0.7967 0.4452
C2 C 0.4593(3) 0.6422(2) 0.60104(19)
C3 C 0.3449(3) 0.6859(2) 0.66539(19)
C4 C 0.3445(3) 0.6495(4) 0.7715(2)
H2 H 0.2716 0.6791 0.8173
C5 C -0.1262(3) 0.7481(3) 0.8310(2)
C6 C -0.0102(3) 0.5927(3) 0.7499(2)
H3 H 0.0487 0.5494 0.7005
C7 C 0.5542(4) 0.5335(3) 0.7397(3)
H4 H 0.6256 0.4784 0.7676
N8 N 0.4497(4) 0.5711(3) 0.80890(19)
C8 C -0.2668(4) 0.8533(3) 0.9476(2)
H5 H -0.3052 0.9321 0.9733
C9 C -0.2476(3) 0.6293(3) 0.9686(2)
H6 H -0.2709 0.5512 1.0039
C10 C -0.1542(3) 0.6274(2) 0.88269(19)
Zn1A Zn 0.55827(3) 0.66044(3) 0.36530(2)
Zn1B Zn -0.05827(3) 0.33956(3) 0.86530(2)
N2A N -0.0615(2) 0.81227(19) 0.50179(15)
N5B N 0.0775(2) 1.0294(2) 0.67090(16)
loop_
_geom_bond_atom_site_label_1
_geom_bond_atom_site_label_2
_geom_bond_site_symmetry_1
_geom_bond_site_symmetry_2
Zn1 N1 1_555 1_555
N1 C1 1_555 1_555
N2 C1 1_555 1_555
N3 Zn1 1_555 1_555
N4 C2 1_555 1_555
N5 C6 1_555 1_555
N6 C5 1_555 1_555
N7 C8 1_555 1_555
C1 H1 1_555 1_555
C2 N2 1_555 1_555
C3 N1 1_555 1_555
C4 C3 1_555 1_555
H2 C4 1_555 1_555
C5 N3 1_555 1_555
C6 N3 1_555 1_555
H3 C6 1_555 1_555
C7 N4 1_555 1_555
H4 C7 1_555 1_555
N8 C4 1_555 1_555
C8 N6 1_555 1_555
H5 C8 1_555 1_555
C9 N7 1_555 1_555
H6 C9 1_555 1_555
C10 N5 1_555 1_555
Zn1A N2 1_555 1_555
Zn1B N5 1_555 1_555
N2A Zn1 1_555 1_555
N5B Zn1 1_555 1_555
C2 C3 1_555 1_555
C5 C10 1_555 1_555
C7 N8 1_555 1_555
C9 C10 1_555 1_555

#END
