
#######################################################################
#
#                 Cambridge Crystallographic Data Centre
#                                CCDC 
#
#######################################################################
#
# If this CIF has been generated from an entry in the Cambridge 
# Structural Database, then it will include bibliographic, chemical, 
# crystal, experimental, refinement or atomic coordinate data resulting 
# from the CCDC's data processing and validation procedures.
#
#######################################################################

data_YAVMIS
_symmetry_cell_setting           triclinic
_symmetry_space_group_name_H-M   'P -1'
_symmetry_Int_Tables_number      2
_space_group_name_Hall           '-P 1'
loop_
_symmetry_equiv_pos_site_id
_symmetry_equiv_pos_as_xyz
1 x,y,z
2 -x,-y,-z
_cell_length_a                   9.6477(19)
_cell_length_b                   11.410(2)
_cell_length_c                   12.980(3)
_cell_angle_alpha                98.34(3)
_cell_angle_beta                 96.44(3)
_cell_angle_gamma                111.36(3)
_cell_volume                     1295.34
loop_
_atom_site_label
_atom_site_type_symbol
_atom_site_fract_x
_atom_site_fract_y
_atom_site_fract_z
Zn1 Zn 0.32373(2) 0.475092(19) 0.901986(15)
C1 C 0.4167(3) 0.7481(2) 0.86242(18)
H1 H 0.4789 0.7208 0.8240
C2 C 0.4128(2) 0.8668(2) 0.85599(18)
H2 H 0.4720 0.9174 0.8147
C3 C 0.3199(2) 0.91008(18) 0.91159(14)
C4 C 0.2393(3) 0.8305(2) 0.97409(17)
H3 H 0.1775 0.8561 1.0143
C5 C 0.2503(2) 0.7132(2) 0.97694(16)
H4 H 0.1956 0.6621 1.0198
C6 C 0.3100(2) 1.03510(18) 0.90424(15)
C7 C 0.3802(3) 1.1076(2) 0.83388(17)
H5 H 0.4299 1.0753 0.7870
C8 C 0.3766(3) 1.2278(2) 0.83321(16)
H6 H 0.4262 1.2749 0.7861
C9 C 0.2312(3) 1.2068(2) 0.96126(19)
H7 H 0.1766 1.2388 1.0039
C10 C 0.2312(3) 1.0872(2) 0.96766(19)
H8 H 0.1787 1.0414 1.0143
C11 C -0.0432(2) 0.30904(19) 0.64018(14)
C12 C 0.0422(2) 0.35577(19) 0.56390(14)
H9 H 0.1436 0.4096 0.5861
C13 C -0.0183(2) 0.3250(2) 0.45598(15)
C14 C -0.1696(2) 0.2443(2) 0.42504(16)
H10 H -0.2131 0.2215 0.3537
C15 C -0.2568(2) 0.1974(2) 0.49891(17)
H11 H -0.3580 0.1437 0.4757
C16 C -0.1980(2) 0.2280(2) 0.60715(15)
C17 C 0.3221(2) 0.44821(19) 0.32253(14)
C18 C 0.2330(2) 0.4102(2) 0.39815(14)
H12 H 0.2790 0.4105 0.4652
C19 C 0.0767(2) 0.3718(2) 0.37599(14)
C20 C 0.0112(2) 0.3754(2) 0.27514(15)
H13 H -0.0926 0.3536 0.2592
C21 C 0.0988(2) 0.4108(2) 0.19923(15)
H14 H 0.0527 0.4112 0.1325
C22 C 0.2546(2) 0.44601(18) 0.22042(14)
C23 C -0.3159(2) 0.1648(3) 0.67217(17)
C24 C 0.0463(2) 0.3506(2) 0.75292(14)
C25 C 0.4913(2) 0.4999(2) 0.35691(14)
C26 C 0.3447(2) 0.47200(17) 0.13326(14)
N1 N 0.33646(18) 0.67052(15) 0.92050(12)
N2 N 0.30530(19) 1.27930(16) 0.89709(13)
O1 O 0.17960(16) 0.42870(14) 0.76594(11)
O2 O -0.0106(2) 0.3059(2) 0.82757(13)
O3 O -0.2754(2) 0.1711(3) 0.77158(15)
H19 H -0.1838 0.2117 0.7889
O4 O -0.4461(2) 0.1062(2) 0.63099(15)
O5 O 0.56642(17) 0.61363(17) 0.37689(13)
O6 O 0.55224(17) 0.41612(17) 0.37206(13)
H20 H 0.4857 0.3438 0.3600
O7 O 0.27800(16) 0.48418(14) 0.04882(10)
O8 O 0.47625(15) 0.47404(13) 0.14881(11)
Zn1_2 Zn 0.32373(2) -0.524908(19) 0.901986(15)
Zn1_3 Zn 0.32373(2) 1.475092(19) 0.901986(15)
Zn1_4 Zn 0.32373(2) 0.475092(19) -0.098014(15)
Zn1A Zn 0.67627(2) 0.524908(19) 0.098014(15)
Zn1_5 Zn 0.32373(2) 0.475092(19) 1.901986(15)
Zn1A_2 Zn 0.67627(2) 0.524908(19) 1.098014(15)
C1_2 C 0.4167(3) -0.2519(2) 0.86242(18)
H1_2 H 0.4789 -0.2792 0.8240
C2_2 C 0.4128(2) -0.1332(2) 0.85599(18)
H2_2 H 0.4720 -0.0826 0.8147
C3_2 C 0.3199(2) -0.08992(18) 0.91159(14)
C4_2 C 0.2393(3) -0.1695(2) 0.97409(17)
H3_2 H 0.1775 -0.1439 1.0143
C5_2 C 0.2503(2) -0.2868(2) 0.97694(16)
H4_2 H 0.1956 -0.3379 1.0198
C6_2 C 0.3100(2) 0.03510(18) 0.90424(15)
C7_2 C 0.3802(3) 0.1076(2) 0.83388(17)
H5_2 H 0.4299 0.0753 0.7870
C8_2 C 0.3766(3) 0.2278(2) 0.83321(16)
H6_2 H 0.4262 0.2749 0.7861
C9_2 C 0.2312(3) 0.2068(2) 0.96126(19)
H7_2 H 0.1766 0.2388 1.0039
C10_2 C 0.2312(3) 0.0872(2) 0.96766(19)
H8_2 H 0.1787 0.0414 1.0143
C11_2 C -0.0432(2) 0.30904(19) 1.64018(14)
C12_2 C 0.0422(2) 0.35577(19) 1.56390(14)
H9_2 H 0.1436 0.4096 1.5861
C13_2 C -0.0183(2) 0.3250(2) 1.45598(15)
C14_2 C -0.1696(2) 0.2443(2) 1.42504(16)
H10_2 H -0.2131 0.2215 1.3537
C15_2 C -0.2568(2) 0.1974(2) 1.49891(17)
H11_2 H -0.3580 0.1437 1.4757
C16_2 C -0.1980(2) 0.2280(2) 1.60715(15)
C17_2 C 0.3221(2) 0.44821(19) 1.32253(14)
C18_2 C 0.2330(2) 0.4102(2) 1.39815(14)
H12_2 H 0.2790 0.4105 1.4652
C19_2 C 0.0767(2) 0.3718(2) 1.37599(14)
C20_2 C 0.0112(2) 0.3754(2) 1.27514(15)
H13_2 H -0.0926 0.3536 1.2592
C21_2 C 0.0988(2) 0.4108(2) 1.19923(15)
H14_2 H 0.0527 0.4112 1.1325
C22_2 C 0.2546(2) 0.44601(18) 1.22042(14)
C23_2 C -0.3159(2) 0.1648(3) 1.67217(17)
C24_2 C 0.0463(2) 0.3506(2) 1.75292(14)
C25_2 C 0.4913(2) 0.4999(2) 1.35691(14)
C26_2 C 0.3447(2) 0.47200(17) 1.13326(14)
N1_2 N 0.33646(18) -0.32948(15) 0.92050(12)
N2_2 N 0.30530(19) 0.27930(16) 0.89709(13)
N2_3 N 0.30530(19) -0.72070(16) 0.89709(13)
O1_2 O 0.17960(16) 0.42870(14) 1.76594(11)
O1_3 O 0.17960(16) -0.57130(14) 0.76594(11)
O2_2 O -0.0106(2) 0.3059(2) 1.82757(13)
O3_2 O -0.2754(2) 0.1711(3) 1.77158(15)
H19_2 H -0.1838 0.2117 1.7889
O4_2 O -0.4461(2) 0.1062(2) 1.63099(15)
O5_2 O 0.56642(17) 0.61363(17) 1.37689(13)
O6_2 O 0.55224(17) 0.41612(17) 1.37206(13)
H20_2 H 0.4857 0.3438 1.3600
O7_2 O 0.27800(16) 0.48418(14) 1.04882(10)
O7_3 O 0.27800(16) -0.51582(14) 1.04882(10)
O8_2 O 0.47625(15) 0.47404(13) 1.14881(11)
O8A O 0.52375(15) 0.52596(13) 0.85119(11)
O8A_2 O 0.52375(15) -0.47404(13) 0.85119(11)
C27 C 0.0576(3) 0.0272(2) 0.46770(18)
C28 C 0.2075(3) 0.0953(3) 0.5122(2)
H15 H 0.2377 0.1068 0.5848
C29 C 0.3131(3) 0.1464(3) 0.4516(2)
H16 H 0.4138 0.1923 0.4835
C30 C 0.1287(4) 0.0651(4) 0.3012(2)
H17 H 0.1015 0.0547 0.2284
C31 C 0.0207(3) 0.0128(3) 0.3592(2)
H18 H -0.0791 -0.0331 0.3254
N3 N 0.2728(2) 0.1310(2) 0.34756(18)
O9 O 0.3739(2) 0.1824(2) 0.28922(18)
C27A C -0.0576(3) -0.0272(2) 0.53230(18)
C28A C -0.2075(3) -0.0953(3) 0.4878(2)
H15A H -0.2377 -0.1068 0.4152
C29A C -0.3131(3) -0.1464(3) 0.5484(2)
H16A H -0.4138 -0.1923 0.5165
C30A C -0.1287(4) -0.0651(4) 0.6988(2)
H17A H -0.1015 -0.0547 0.7716
C31A C -0.0207(3) -0.0128(3) 0.6408(2)
H18A H 0.0791 0.0331 0.6746
N3A N -0.2728(2) -0.1310(2) 0.65244(18)
O9A O -0.3739(2) -0.1824(2) 0.71078(18)
loop_
_geom_bond_atom_site_label_1
_geom_bond_atom_site_label_2
_geom_bond_site_symmetry_1
_geom_bond_site_symmetry_2
Zn1 N1 1_555 1_555
C1 H1 1_555 1_555
C2 C1 1_555 1_555
H2 C2 1_555 1_555
C3 C2 1_555 1_555
C4 C3 1_555 1_555
H3 C4 1_555 1_555
C5 C4 1_555 1_555
H4 C5 1_555 1_555
C6 C3 1_555 1_555
C7 C6 1_555 1_555
H5 C7 1_555 1_555
C8 C7 1_555 1_555
H6 C8 1_555 1_555
C9 H7 1_555 1_555
C10 C6 1_555 1_555
H8 C10 1_555 1_555
C11 C12 1_555 1_555
C12 H9 1_555 1_555
C13 C12 1_555 1_555
C14 C13 1_555 1_555
H10 C14 1_555 1_555
C15 C14 1_555 1_555
H11 C15 1_555 1_555
C16 C11 1_555 1_555
C17 C18 1_555 1_555
C18 H12 1_555 1_555
C19 C13 1_555 1_555
C20 C19 1_555 1_555
H13 C20 1_555 1_555
C21 C20 1_555 1_555
H14 C21 1_555 1_555
C22 C17 1_555 1_555
C23 C16 1_555 1_555
C24 C11 1_555 1_555
C25 C17 1_555 1_555
C26 C22 1_555 1_555
C27 C28 1_555 1_555
C28 H15 1_555 1_555
C29 C28 1_555 1_555
H16 C29 1_555 1_555
C30 H17 1_555 1_555
C31 C27 1_555 1_555
H18 C31 1_555 1_555
N1 C1 1_555 1_555
N2 C8 1_555 1_555
N3 C29 1_555 1_555
O1 Zn1 1_555 1_555
O2 C24 1_555 1_555
O3 C23 1_555 1_555
H19 O3 1_555 1_555
O4 C23 1_555 1_555
O5 C25 1_555 1_555
O6 C25 1_555 1_555
H20 O6 1_555 1_555
O7 C26 1_555 1_555
O8 C26 1_555 1_555
O9 N3 1_555 1_555
Zn1_2 N1_2 1_555 1_555
Zn1_3 N2 1_555 1_555
Zn1_4 O7 1_555 1_555
Zn1A O8 1_555 1_555
Zn1_5 O1_2 1_555 1_555
Zn1A_2 O8_2 1_555 1_555
C1_2 H1_2 1_555 1_555
C2_2 C1_2 1_555 1_555
H2_2 C2_2 1_555 1_555
C3_2 C2_2 1_555 1_555
C4_2 C3_2 1_555 1_555
H3_2 C4_2 1_555 1_555
C5_2 C4_2 1_555 1_555
H4_2 C5_2 1_555 1_555
C6_2 C3_2 1_555 1_555
C7_2 C6_2 1_555 1_555
H5_2 C7_2 1_555 1_555
C8_2 C7_2 1_555 1_555
H6_2 C8_2 1_555 1_555
C9_2 H7_2 1_555 1_555
C10_2 C6_2 1_555 1_555
H8_2 C10_2 1_555 1_555
C11_2 C12_2 1_555 1_555
C12_2 H9_2 1_555 1_555
C13_2 C12_2 1_555 1_555
C14_2 C13_2 1_555 1_555
H10_2 C14_2 1_555 1_555
C15_2 C14_2 1_555 1_555
H11_2 C15_2 1_555 1_555
C16_2 C11_2 1_555 1_555
C17_2 C18_2 1_555 1_555
C18_2 H12_2 1_555 1_555
C19_2 C13_2 1_555 1_555
C20_2 C19_2 1_555 1_555
H13_2 C20_2 1_555 1_555
C21_2 C20_2 1_555 1_555
H14_2 C21_2 1_555 1_555
C22_2 C17_2 1_555 1_555
C23_2 C16_2 1_555 1_555
C24_2 C11_2 1_555 1_555
C25_2 C17_2 1_555 1_555
C26_2 C22_2 1_555 1_555
C27A C27 1_555 1_555
C28A C27A 1_555 1_555
H15A C28A 1_555 1_555
C29A C28A 1_555 1_555
H16A C29A 1_555 1_555
C30A H17A 1_555 1_555
C31A C27A 1_555 1_555
H18A C31A 1_555 1_555
N1_2 C1_2 1_555 1_555
N2_2 Zn1 1_555 1_555
N2_3 Zn1_2 1_555 1_555
N3A C29A 1_555 1_555
O1_2 C24_2 1_555 1_555
O1_3 Zn1_2 1_555 1_555
O2_2 C24_2 1_555 1_555
O3_2 C23_2 1_555 1_555
H19_2 O3_2 1_555 1_555
O4_2 C23_2 1_555 1_555
O5_2 C25_2 1_555 1_555
O6_2 C25_2 1_555 1_555
H20_2 O6_2 1_555 1_555
O7_2 Zn1 1_555 1_555
O7_3 Zn1_2 1_555 1_555
O8_2 C26_2 1_555 1_555
O8A Zn1 1_555 1_555
O8A_2 Zn1_2 1_555 1_555
O9A N3A 1_555 1_555
C5 N1 1_555 1_555
C9 C10 1_555 1_555
C9 N2 1_555 1_555
C15 C16 1_555 1_555
C18 C19 1_555 1_555
C21 C22 1_555 1_555
C24 O1 1_555 1_555
C30 C31 1_555 1_555
C30 N3 1_555 1_555
C5_2 N1_2 1_555 1_555
C8_2 N2_2 1_555 1_555
C9_2 C10_2 1_555 1_555
C9_2 N2_2 1_555 1_555
C15_2 C16_2 1_555 1_555
C18_2 C19_2 1_555 1_555
C21_2 C22_2 1_555 1_555
C26_2 O7_2 1_555 1_555
C30A C31A 1_555 1_555
C30A N3A 1_555 1_555

#END
