
#######################################################################
#
#                 Cambridge Crystallographic Data Centre
#                                CCDC 
#
#######################################################################
#
# If this CIF has been generated from an entry in the Cambridge 
# Structural Database, then it will include bibliographic, chemical, 
# crystal, experimental, refinement or atomic coordinate data resulting 
# from the CCDC's data processing and validation procedures.
#
#######################################################################

data_YAVNUF01
_symmetry_cell_setting           orthorhombic
_symmetry_space_group_name_H-M   'P n a 21'
_symmetry_Int_Tables_number      33
_space_group_name_Hall           'P 2c -2n'
loop_
_symmetry_equiv_pos_site_id
_symmetry_equiv_pos_as_xyz
1 x,y,z
2 -x,-y,1/2+z
3 1/2+x,1/2-y,z
4 1/2-x,1/2+y,1/2+z
_cell_length_a                   7.3427(4)
_cell_length_b                   16.7084(8)
_cell_length_c                   10.4712(5)
_cell_angle_alpha                90
_cell_angle_beta                 90
_cell_angle_gamma                90
_cell_volume                     1284.66
loop_
_atom_site_label
_atom_site_type_symbol
_atom_site_fract_x
_atom_site_fract_y
_atom_site_fract_z
Pr1 Pr 0.89111(10) 0.58171(5) 1.14829(17)
O1 O 0.762(2) 0.6415(9) 0.9429(15)
O2 O 0.568(2) 0.5499(9) 0.8295(14)
O3 O 0.4474(17) 0.6683(8) 0.9292(13)
O4 O 0.793(2) 0.5830(7) 0.3736(13)
O5 O 0.759(2) 0.6973(7) 0.2748(13)
O6 O 0.599(2) 0.9409(11) 0.7288(16)
O7 O 0.658(2) 0.9479(11) 0.5265(16)
O8 O 1.174(2) 0.5531(10) 1.0150(16)
H1 H 1.2534 0.5865 0.9896
H2 H 1.1842 0.5108 0.9704
O9 O 1.164(2) 0.5835(8) 1.2810(17)
H3 H 1.2438 0.5473 1.2700
H4 H 1.1384 0.5850 1.3601
O10 O 0.5562(17) 0.5493(8) 1.148(2)
H5 H 0.4907 0.5871 1.1187
H6 H 0.5174 0.5340 1.2203
O11 O 1.058(2) 0.7084(8) 1.0964(14)
H7 H 1.0204 0.7426 1.0423
H8 H 1.1198 0.7330 1.1528
S1 S 0.6009(6) 0.6330(3) 0.8665(5)
C1 C 0.637(3) 0.6915(12) 0.722(2)
C2 C 0.680(3) 0.6533(11) 0.6094(17)
H9 H 0.6924 0.5979 0.6085
C3 C 0.706(3) 0.6954(11) 0.4993(19)
C4 C 0.694(3) 0.7804(11) 0.5046(18)
H10 H 0.7146 0.8104 0.4311
C5 C 0.652(2) 0.8192(10) 0.619(2)
C6 C 0.626(2) 0.7723(12) 0.732(2)
H11 H 0.6032 0.7965 0.8106
C7 C 0.754(3) 0.6550(11) 0.377(2)
C8 C 0.631(3) 0.9082(11) 0.626(3)
Pr1_2 Pr 0.89111(10) 0.58171(5) 0.14829(17)
Pr1C Pr 0.60889(10) 1.08171(5) 0.64829(17)
O4_2 O 0.793(2) 0.5830(7) 1.3736(13)
O5_2 O 0.759(2) 0.6973(7) 1.2748(13)
O6C O 0.901(2) 0.4409(11) 1.2288(16)
O7C O 0.842(2) 0.4479(11) 1.0265(16)
loop_
_geom_bond_atom_site_label_1
_geom_bond_atom_site_label_2
_geom_bond_site_symmetry_1
_geom_bond_site_symmetry_2
Pr1 O1 1_555 1_555
O1 S1 1_555 1_555
O2 S1 1_555 1_555
O3 S1 1_555 1_555
O4 C7 1_555 1_555
O5 C7 1_555 1_555
O6 C8 1_555 1_555
O7 C8 1_555 1_555
O8 Pr1 1_555 1_555
H1 O8 1_555 1_555
H2 O8 1_555 1_555
O9 Pr1 1_555 1_555
H3 O9 1_555 1_555
H4 O9 1_555 1_555
O10 Pr1 1_555 1_555
H5 O10 1_555 1_555
H6 O10 1_555 1_555
O11 Pr1 1_555 1_555
H7 O11 1_555 1_555
H8 O11 1_555 1_555
S1 C1 1_555 1_555
C1 C2 1_555 1_555
C2 H9 1_555 1_555
C3 C2 1_555 1_555
C4 C3 1_555 1_555
H10 C4 1_555 1_555
C5 C4 1_555 1_555
C6 C1 1_555 1_555
H11 C6 1_555 1_555
C7 C3 1_555 1_555
C8 C5 1_555 1_555
Pr1_2 O4 1_555 1_555
Pr1C O6 1_555 1_555
O4_2 Pr1 1_555 1_555
O5_2 Pr1 1_555 1_555
O6C Pr1 1_555 1_555
O7C Pr1 1_555 1_555
O5 Pr1_2 1_555 1_555
O7 Pr1C 1_555 1_555
C5 C6 1_555 1_555

#END
