
#######################################################################
#
#                 Cambridge Crystallographic Data Centre
#                                CCDC 
#
#######################################################################
#
# If this CIF has been generated from an entry in the Cambridge 
# Structural Database, then it will include bibliographic, chemical, 
# crystal, experimental, refinement or atomic coordinate data resulting 
# from the CCDC's data processing and validation procedures.
#
#######################################################################

data_YAVNUF
_symmetry_cell_setting           orthorhombic
_symmetry_space_group_name_H-M   'P n a 21'
_symmetry_Int_Tables_number      33
_space_group_name_Hall           'P 2c -2n'
loop_
_symmetry_equiv_pos_site_id
_symmetry_equiv_pos_as_xyz
1 x,y,z
2 -x,-y,1/2+z
3 1/2+x,1/2-y,z
4 1/2-x,1/2+y,1/2+z
_cell_length_a                   7.1969(17)
_cell_length_b                   16.695(4)
_cell_length_c                   10.489(3)
_cell_angle_alpha                90
_cell_angle_beta                 90
_cell_angle_gamma                90
_cell_volume                     1260.28
loop_
_atom_site_label
_atom_site_type_symbol
_atom_site_fract_x
_atom_site_fract_y
_atom_site_fract_z
Pr1 Pr 0.10868(2) 0.081714(10) 0.24271(11)
S1 S 0.09650(13) -0.36529(6) 0.01789(15)
O1 O 0.0925(5) -0.0589(2) 0.1564(4)
O2 O 0.1662(5) -0.0507(2) 0.3595(3)
O3 O 0.2890(4) -0.41835(15) 0.5112(3)
O4 O 0.2506(4) -0.30365(16) 0.6092(3)
O5 O 0.2650(4) -0.3588(2) -0.0592(4)
O6 O 0.0588(4) -0.44816(17) 0.0544(3)
O7 O -0.0619(4) -0.32730(17) -0.0454(3)
O8 O 0.4539(4) 0.05155(17) 0.2302(4)
H1 H 0.510(7) 0.040(3) 0.296(3)
H2 H 0.467(8) 0.014(2) 0.181(4)
O9 O -0.1790(5) 0.0527(2) 0.3707(3)
H3 H -0.220(8) 0.093(2) 0.406(6)
H4 H -0.176(7) 0.016(2) 0.423(4)
O10 O -0.1692(6) 0.0883(2) 0.1051(3)
H5 H -0.275(3) 0.082(3) 0.133(6)
H6 H -0.170(9) 0.072(3) 0.0314(18)
O11 O -0.0588(5) 0.20829(18) 0.2882(3)
H7 H -0.120(6) 0.232(3) 0.235(4)
H8 H -0.024(7) 0.246(2) 0.331(4)
C1 C 0.1506(5) -0.1826(2) 0.2654(4)
C2 C 0.1930(6) -0.2213(2) 0.3795(4)
H9 H 0.2146 -0.1915 0.4530
C3 C 0.2029(6) -0.3047(2) 0.3831(5)
C4 C 0.1794(5) -0.3487(2) 0.2726(4)
H10 H 0.1930 -0.4041 0.2739
C5 C 0.1358(6) -0.3099(3) 0.1602(5)
C6 C 0.1207(5) -0.2261(3) 0.1536(5)
H11 H 0.0919 -0.2006 0.0774
C7 C 0.1349(5) -0.0923(2) 0.2603(7)
C8 C 0.2491(6) -0.3446(2) 0.5087(5)
Pr1C Pr 0.39132(2) -0.418286(10) 0.74271(11)
Pr1C_2 Pr 0.39132(2) -0.418286(10) -0.25729(11)
O3C O 0.2110(4) 0.08165(15) 0.0112(3)
O4C O 0.2494(4) 0.19635(16) 0.1092(3)
O5C O 0.2350(4) 0.1412(2) 0.4408(4)
loop_
_geom_bond_atom_site_label_1
_geom_bond_atom_site_label_2
_geom_bond_site_symmetry_1
_geom_bond_site_symmetry_2
Pr1 O1 1_555 1_555
S1 O5 1_555 1_555
O1 C7 1_555 1_555
O2 Pr1 1_555 1_555
O3 C8 1_555 1_555
O4 C8 1_555 1_555
O5 Pr1C_2 1_555 1_555
O6 S1 1_555 1_555
O7 S1 1_555 1_555
O8 Pr1 1_555 1_555
H1 O8 1_555 1_555
H2 O8 1_555 1_555
O9 Pr1 1_555 1_555
H3 O9 1_555 1_555
H4 O9 1_555 1_555
O10 Pr1 1_555 1_555
H5 O10 1_555 1_555
H6 O10 1_555 1_555
O11 Pr1 1_555 1_555
H7 O11 1_555 1_555
H8 O11 1_555 1_555
C1 C2 1_555 1_555
C2 H9 1_555 1_555
C3 C2 1_555 1_555
C4 C3 1_555 1_555
H10 C4 1_555 1_555
C5 S1 1_555 1_555
C6 C1 1_555 1_555
H11 C6 1_555 1_555
C7 O2 1_555 1_555
C8 C3 1_555 1_555
Pr1C O3 1_555 1_555
O3C Pr1 1_555 1_555
O4C Pr1 1_555 1_555
O5C Pr1 1_555 1_555
O4 Pr1C 1_555 1_555
C1 C7 1_555 1_555
C4 C5 1_555 1_555
C5 C6 1_555 1_555

#END
