
#######################################################################
#
#                 Cambridge Crystallographic Data Centre
#                                CCDC 
#
#######################################################################
#
# If this CIF has been generated from an entry in the Cambridge 
# Structural Database, then it will include bibliographic, chemical, 
# crystal, experimental, refinement or atomic coordinate data resulting 
# from the CCDC's data processing and validation procedures.
#
#######################################################################

data_YAVPIV
_symmetry_cell_setting           orthorhombic
_symmetry_space_group_name_H-M   'P n a 21'
_symmetry_Int_Tables_number      33
_space_group_name_Hall           'P 2c -2n'
loop_
_symmetry_equiv_pos_site_id
_symmetry_equiv_pos_as_xyz
1 x,y,z
2 -x,-y,1/2+z
3 1/2+x,1/2-y,z
4 1/2-x,1/2+y,1/2+z
_cell_length_a                   7.3006(7)
_cell_length_b                   16.6036(15)
_cell_length_c                   10.4270(10)
_cell_angle_alpha                90
_cell_angle_beta                 90
_cell_angle_gamma                90
_cell_volume                     1263.92
loop_
_atom_site_label
_atom_site_type_symbol
_atom_site_fract_x
_atom_site_fract_y
_atom_site_fract_z
Dy1 Dy 0.10945(8) 0.91822(3) 0.6310(5)
S1 S 0.1021(5) 1.3664(2) 0.8558(5)
C1 C 0.151(2) 1.1811(9) 0.6098(19)
C2 C 0.195(2) 1.2212(9) 0.4923(16)
H1 H 0.2183 1.1913 0.4187
C3 C 0.203(2) 1.3038(9) 0.4883(16)
C4 C 0.1810(19) 1.3495(8) 0.5979(12)
H2 H 0.1929 1.4053 0.5950
C5 C 0.140(2) 1.3102(9) 0.7137(16)
C6 C 0.126(2) 1.2268(9) 0.7216(16)
H3 H 0.1014 1.2018 0.7995
C7 C 0.1343(15) 1.0920(7) 0.616(2)
C8 C 0.253(2) 1.3438(10) 0.3614(18)
O1 O 0.0949(18) 1.0568(7) 0.7158(12)
O2 O 0.1610(17) 1.0503(8) 0.5136(13)
O3 O 0.2553(16) 1.3023(6) 0.2607(11)
O4 O 0.2912(16) 1.4173(6) 0.3578(10)
O5 O 0.2657(15) 1.3596(7) 0.9342(12)
O6 O -0.0556(16) 1.3309(6) 0.9189(11)
O7 O 0.0696(18) 1.4496(7) 0.8190(12)
O8 O -0.162(2) 0.9151(7) 0.7656(15)
H4 H -0.1335 0.9264 0.8395
H5 H -0.18(3) 0.964(3) 0.76(2)
O9 O -0.167(2) 0.9464(9) 0.5027(16)
H6 H -0.1551 0.9897 0.4658
H7 H -0.24(3) 0.909(9) 0.49(2)
O10 O 0.4432(14) 0.9484(6) 0.6372(18)
H8 H 0.4647 0.9793 0.6966
H9 H 0.41(2) 0.993(5) 0.61(2)
O11 O -0.0554(18) 0.7932(7) 0.5850(9)
H10 H -0.0986 0.7751 0.6516
H11 H -0.01(3) 0.752(7) 0.552(18)
Dy1C Dy 0.39055(8) 1.41822(3) 0.1310(5)
Dy1C_2 Dy 0.39055(8) 1.41822(3) 1.1310(5)
O3C O 0.2447(16) 0.8023(6) 0.7607(11)
O4C O 0.2088(16) 0.9173(6) 0.8578(10)
O5C O 0.2343(15) 0.8596(7) 0.4342(12)
loop_
_geom_bond_atom_site_label_1
_geom_bond_atom_site_label_2
_geom_bond_site_symmetry_1
_geom_bond_site_symmetry_2
Dy1 O1 1_555 1_555
S1 C5 1_555 1_555
C1 C2 1_555 1_555
C2 H1 1_555 1_555
C3 C2 1_555 1_555
C4 C3 1_555 1_555
H2 C4 1_555 1_555
C5 C4 1_555 1_555
C6 C1 1_555 1_555
H3 C6 1_555 1_555
C7 C1 1_555 1_555
C8 C3 1_555 1_555
O1 C7 1_555 1_555
O2 Dy1 1_555 1_555
O3 C8 1_555 1_555
O4 C8 1_555 1_555
O5 S1 1_555 1_555
O6 S1 1_555 1_555
O7 S1 1_555 1_555
O8 Dy1 1_555 1_555
H4 O8 1_555 1_555
H5 O8 1_555 1_555
O9 Dy1 1_555 1_555
H6 O9 1_555 1_555
H7 O9 1_555 1_555
O10 Dy1 1_555 1_555
H8 O10 1_555 1_555
H9 O10 1_555 1_555
O11 Dy1 1_555 1_555
H10 O11 1_555 1_555
H11 O11 1_555 1_555
Dy1C O3 1_555 1_555
Dy1C_2 O5 1_555 1_555
O3C Dy1 1_555 1_555
O4C Dy1 1_555 1_555
O5C Dy1 1_555 1_555
C5 C6 1_555 1_555
C7 O2 1_555 1_555
O4 Dy1C 1_555 1_555

#END
