
#######################################################################
#
#                 Cambridge Crystallographic Data Centre
#                                CCDC 
#
#######################################################################
#
# If this CIF has been generated from an entry in the Cambridge 
# Structural Database, then it will include bibliographic, chemical, 
# crystal, experimental, refinement or atomic coordinate data resulting 
# from the CCDC's data processing and validation procedures.
#
#######################################################################

data_YAVPUH
_symmetry_cell_setting           monoclinic
_symmetry_space_group_name_H-M   'P 21/n'
_symmetry_Int_Tables_number      14
_space_group_name_Hall           '-P 2yn'
loop_
_symmetry_equiv_pos_site_id
_symmetry_equiv_pos_as_xyz
1 x,y,z
2 1/2-x,1/2+y,1/2-z
3 -x,-y,-z
4 1/2+x,1/2-y,1/2+z
_cell_length_a                   9.422(4)
_cell_length_b                   10.526(4)
_cell_length_c                   17.102(7)
_cell_angle_alpha                90
_cell_angle_beta                 101.312(4)
_cell_angle_gamma                90
_cell_volume                     1663.16
loop_
_atom_site_label
_atom_site_type_symbol
_atom_site_fract_x
_atom_site_fract_y
_atom_site_fract_z
Er1 Er 0.702693(19) 0.060265(16) 0.171128(10)
S1 S 1.35926(11) -0.20208(9) 0.46949(6)
O1 O 0.8455(3) 0.1465(3) 0.29229(17)
O3 O 0.8962(3) -0.0489(2) 0.26279(17)
O5 O 1.1437(3) 0.3530(3) 0.53482(16)
O7 O 1.2501(3) 0.2259(3) 0.63039(16)
O8 O 1.4633(3) -0.1854(3) 0.54395(18)
O9 O 1.2647(3) -0.3120(3) 0.47329(17)
O10 O 1.4239(3) -0.2064(3) 0.39948(18)
O11 O 0.7115(4) -0.1413(3) 0.11862(17)
H7 H 0.700(5) -0.183(4) 0.1575(18)
H8 H 0.725(5) -0.161(5) 0.0744(13)
O12 O 0.5427(3) 0.1994(3) 0.21446(18)
H9 H 0.497(5) 0.174(5) 0.247(2)
H10 H 0.569(5) 0.2733(16) 0.222(3)
O13 O 0.9214(4) 0.0712(3) 0.1204(2)
H11 H 0.963(6) 0.139(3) 0.120(3)
H12 H 0.991(4) 0.025(5) 0.118(3)
O14 O 0.4535(3) 0.0074(3) 0.10588(18)
H13 H 0.399(4) 0.066(3) 0.089(3)
H14 H 0.430(6) -0.047(3) 0.071(2)
O15 O 0.6005(3) -0.0613(3) 0.25969(18)
H15 H 0.5137(11) -0.078(4) 0.249(3)
H16 H 0.650(4) -0.106(4) 0.294(2)
C1 C 1.0428(5) 0.0424(4) 0.3792(2)
C2 C 1.0665(5) 0.1425(4) 0.4329(2)
H17 H 1.0088 0.2148 0.4234
C3 C 1.1748(4) 0.1366(4) 0.5006(2)
C4 C 1.2663(4) 0.0310(4) 0.5143(2)
H18 H 1.3396 0.0266 0.5594
C5 C 1.2453(4) -0.0670(3) 0.4590(2)
C6 C 1.1334(5) -0.0626(4) 0.3926(2)
H19 H 1.1191 -0.1304 0.3571
C7 C 0.9216(5) 0.0469(4) 0.3079(2)
C8 C 1.1921(4) 0.2445(4) 0.5582(2)
Er1C Er 1.202693(19) 0.439735(16) 0.671128(10)
O5C O 0.6437(3) 0.1470(3) 0.03482(16)
O7C O 0.7501(3) 0.2741(3) 0.13039(16)
O2 O 1.1256(4) -0.0975(3) 0.0843(2)
H1 H 1.119(7) -0.060(5) 0.1255(19)
H2 H 1.084(6) -0.157(4) 0.058(3)
O4 O 0.3106(4) -0.1173(4) 0.2348(2)
H3 H 0.260(5) -0.111(6) 0.1901(15)
H4 H 0.306(7) -0.188(2) 0.254(3)
O6 O 0.3487(4) 0.1278(3) 0.3033(2)
H5 H 0.323(7) 0.056(2) 0.287(3)
H6 H 0.394(5) 0.119(6) 0.3490(13)
loop_
_geom_bond_atom_site_label_1
_geom_bond_atom_site_label_2
_geom_bond_site_symmetry_1
_geom_bond_site_symmetry_2
Er1 O1 1_555 1_555
S1 O8 1_555 1_555
O1 C7 1_555 1_555
O2 H1 1_555 1_555
H2 O2 1_555 1_555
O3 Er1 1_555 1_555
O4 H3 1_555 1_555
H4 O4 1_555 1_555
O5 C8 1_555 1_555
O6 H5 1_555 1_555
H6 O6 1_555 1_555
O7 C8 1_555 1_555
O9 S1 1_555 1_555
O10 S1 1_555 1_555
O11 Er1 1_555 1_555
H7 O11 1_555 1_555
H8 O11 1_555 1_555
O12 Er1 1_555 1_555
H9 O12 1_555 1_555
H10 O12 1_555 1_555
O13 Er1 1_555 1_555
H11 O13 1_555 1_555
H12 O13 1_555 1_555
O14 Er1 1_555 1_555
H13 O14 1_555 1_555
H14 O14 1_555 1_555
O15 Er1 1_555 1_555
H15 O15 1_555 1_555
H16 O15 1_555 1_555
C1 C2 1_555 1_555
C2 H17 1_555 1_555
C3 C2 1_555 1_555
C4 C3 1_555 1_555
H18 C4 1_555 1_555
C5 S1 1_555 1_555
C6 C1 1_555 1_555
H19 C6 1_555 1_555
C7 O3 1_555 1_555
C8 C3 1_555 1_555
Er1C O5 1_555 1_555
O5C Er1 1_555 1_555
O7C Er1 1_555 1_555
O7 Er1C 1_555 1_555
C1 C7 1_555 1_555
C4 C5 1_555 1_555
C5 C6 1_555 1_555

#END
