
#######################################################################
#
#                 Cambridge Crystallographic Data Centre
#                                CCDC 
#
#######################################################################
#
# If this CIF has been generated from an entry in the Cambridge 
# Structural Database, then it will include bibliographic, chemical, 
# crystal, experimental, refinement or atomic coordinate data resulting 
# from the CCDC's data processing and validation procedures.
#
#######################################################################

data_YAVPER
_symmetry_cell_setting           orthorhombic
_symmetry_space_group_name_H-M   'P n a 21'
_symmetry_Int_Tables_number      33
_space_group_name_Hall           'P 2c -2n'
loop_
_symmetry_equiv_pos_site_id
_symmetry_equiv_pos_as_xyz
1 x,y,z
2 -x,-y,1/2+z
3 1/2+x,1/2-y,z
4 1/2-x,1/2+y,1/2+z
_cell_length_a                   7.260(2)
_cell_length_b                   16.508(5)
_cell_length_c                   10.353(3)
_cell_angle_alpha                90
_cell_angle_beta                 90
_cell_angle_gamma                90
_cell_volume                     1240.79
loop_
_atom_site_label
_atom_site_type_symbol
_atom_site_fract_x
_atom_site_fract_y
_atom_site_fract_z
Tb1 Tb 0.89041(3) 0.918029(12) 0.5889(2)
S1 S 0.90032(19) 1.36678(8) 0.8158(2)
O1 O 0.9117(7) 1.0558(3) 0.6733(5)
O2 O 0.8348(8) 1.0479(3) 0.4702(5)
O3 O 0.7499(7) 1.3036(2) 0.2164(4)
O4 O 0.7059(7) 1.4183(2) 0.3169(4)
O5 O 0.7354(7) 1.3601(3) 0.8944(5)
O6 O 0.9344(7) 1.4501(3) 0.7780(5)
O7 O 1.0597(6) 1.3302(3) 0.8781(5)
O8 O 1.1590(8) 0.9461(4) 0.4608(5)
H1 H 1.247(8) 0.915(4) 0.462(9)
H2 H 1.160(11) 0.989(3) 0.420(7)
O9 O 1.1588(9) 0.9138(3) 0.7215(5)
H3 H 1.154(11) 0.929(5) 0.797(3)
H4 H 1.206(12) 0.954(3) 0.690(8)
O10 O 0.5633(6) 0.9499(3) 0.5963(6)
H5 H 0.554(12) 0.989(3) 0.645(6)
H6 H 0.496(9) 0.938(5) 0.536(5)
O11 O 1.0526(7) 0.7945(3) 0.5441(4)
H7 H 1.016(10) 0.758(3) 0.498(6)
H8 H 1.117(8) 0.774(4) 0.601(5)
C1 C 0.8487(7) 1.1810(3) 0.5652(6)
C2 C 0.8084(9) 1.2202(4) 0.4508(6)
H9 H 0.7895 1.1900 0.3761
C3 C 0.7953(8) 1.3048(4) 0.4456(6)
C4 C 0.8180(8) 1.3491(3) 0.5576(5)
H10 H 0.8046 1.4051 0.5562
C5 C 0.8609(8) 1.3099(4) 0.6724(6)
C6 C 0.8773(8) 1.2260(4) 0.6771(6)
H11 H 0.9070 1.2002 0.7542
C7 C 0.8669(8) 1.0894(3) 0.5699(10)
C8 C 0.7494(10) 1.3443(4) 0.3183(7)
Tb1C Tb 0.60959(3) 1.418029(12) 0.0889(2)
Tb1C_2 Tb 0.60959(3) 1.418029(12) 1.0889(2)
O3C O 0.7501(7) 0.8036(2) 0.7164(4)
O4C O 0.7941(7) 0.9183(2) 0.8169(4)
O5C O 0.7646(7) 0.8601(3) 0.3944(5)
loop_
_geom_bond_atom_site_label_1
_geom_bond_atom_site_label_2
_geom_bond_site_symmetry_1
_geom_bond_site_symmetry_2
Tb1 O1 1_555 1_555
S1 O5 1_555 1_555
O1 C7 1_555 1_555
O2 Tb1 1_555 1_555
O3 C8 1_555 1_555
O4 C8 1_555 1_555
O5 Tb1C_2 1_555 1_555
O6 S1 1_555 1_555
O7 S1 1_555 1_555
O8 Tb1 1_555 1_555
H1 O8 1_555 1_555
H2 O8 1_555 1_555
O9 Tb1 1_555 1_555
H3 O9 1_555 1_555
H4 O9 1_555 1_555
O10 Tb1 1_555 1_555
H5 O10 1_555 1_555
H6 O10 1_555 1_555
O11 Tb1 1_555 1_555
H7 O11 1_555 1_555
H8 O11 1_555 1_555
C1 C2 1_555 1_555
C2 H9 1_555 1_555
C3 C2 1_555 1_555
C4 C3 1_555 1_555
H10 C4 1_555 1_555
C5 S1 1_555 1_555
C6 C1 1_555 1_555
H11 C6 1_555 1_555
C7 O2 1_555 1_555
C8 C3 1_555 1_555
Tb1C O3 1_555 1_555
O3C Tb1 1_555 1_555
O4C Tb1 1_555 1_555
O5C Tb1 1_555 1_555
O4 Tb1C 1_555 1_555
C1 C7 1_555 1_555
C4 C5 1_555 1_555
C5 C6 1_555 1_555

#END
