
#######################################################################
#
#                 Cambridge Crystallographic Data Centre
#                                CCDC 
#
#######################################################################
#
# If this CIF has been generated from an entry in the Cambridge 
# Structural Database, then it will include bibliographic, chemical, 
# crystal, experimental, refinement or atomic coordinate data resulting 
# from the CCDC's data processing and validation procedures.
#
#######################################################################

data_YAVPAN
_symmetry_cell_setting           orthorhombic
_symmetry_space_group_name_H-M   'P n a 21'
_symmetry_Int_Tables_number      33
_space_group_name_Hall           'P 2c -2n'
loop_
_symmetry_equiv_pos_site_id
_symmetry_equiv_pos_as_xyz
1 x,y,z
2 -x,-y,1/2+z
3 1/2+x,1/2-y,z
4 1/2-x,1/2+y,1/2+z
_cell_length_a                   7.2839(6)
_cell_length_b                   16.5781(14)
_cell_length_c                   10.3919(8)
_cell_angle_alpha                90
_cell_angle_beta                 90
_cell_angle_gamma                90
_cell_volume                     1254.86
loop_
_atom_site_label
_atom_site_type_symbol
_atom_site_fract_x
_atom_site_fract_y
_atom_site_fract_z
Sm1 Sm 0.10951(12) 0.08172(5) 0.4171(12)
S1 S 0.1002(8) -0.3671(3) 0.6418(13)
C1 C 0.149(2) -0.1816(10) 0.393(2)
C2 C 0.197(3) -0.2202(13) 0.281(3)
H1 H 0.2210 -0.1903 0.2075
C3 C 0.210(3) -0.3050(12) 0.278(3)
C4 C 0.180(3) -0.3500(12) 0.390(2)
H2 H 0.1853 -0.4060 0.3862
C5 C 0.144(3) -0.3138(11) 0.500(2)
C6 C 0.124(3) -0.2261(11) 0.508(2)
H3 H 0.0960 -0.2007 0.5858
C7 C 0.135(3) -0.0903(11) 0.401(4)
C8 C 0.248(3) -0.3458(14) 0.152(3)
O1 O 0.164(2) -0.0513(9) 0.3022(19)
O2 O 0.087(3) -0.0578(10) 0.507(2)
O3 O 0.251(2) -0.3031(8) 0.046(2)
O4 O 0.295(2) -0.4179(10) 0.1456(19)
O5 O 0.266(2) -0.3597(10) 0.718(2)
O6 O -0.055(2) -0.3291(9) 0.702(2)
O7 O 0.066(3) -0.4488(9) 0.602(2)
O8 O -0.160(3) 0.0844(12) 0.5509(11)
H4 H -0.1314 0.0728 0.6250
H5 H -0.22(3) 0.070(18) 0.613(17)
O9 O -0.166(2) 0.0533(12) 0.2868(19)
H6 H -0.1540 0.0096 0.2506
H7 H -0.272(12) 0.070(14) 0.29(3)
O10 O 0.443(2) 0.0479(8) 0.420(4)
H8 H 0.4645 0.0168 0.4792
H9 H 0.45(3) 0.096(6) 0.40(4)
O11 O -0.058(3) 0.2059(9) 0.3724(14)
H10 H -0.0002 0.2333 0.3208
H11 H -0.08(4) 0.236(12) 0.433(15)
Sm1C Sm 0.39049(12) -0.41828(5) -0.0829(12)
Sm1C_2 Sm 0.39049(12) -0.41828(5) 0.9171(12)
O3C O 0.249(2) 0.1969(8) 0.546(2)
O4C O 0.205(2) 0.0821(10) 0.6456(19)
O5C O 0.234(2) 0.1403(10) 0.218(2)
loop_
_geom_bond_atom_site_label_1
_geom_bond_atom_site_label_2
_geom_bond_site_symmetry_1
_geom_bond_site_symmetry_2
Sm1 O1 1_555 1_555
S1 C5 1_555 1_555
C1 C2 1_555 1_555
C2 H1 1_555 1_555
C3 C2 1_555 1_555
C4 C3 1_555 1_555
H2 C4 1_555 1_555
C5 C4 1_555 1_555
C6 C1 1_555 1_555
H3 C6 1_555 1_555
C7 C1 1_555 1_555
C8 C3 1_555 1_555
O1 C7 1_555 1_555
O2 Sm1 1_555 1_555
O3 C8 1_555 1_555
O4 C8 1_555 1_555
O5 S1 1_555 1_555
O6 S1 1_555 1_555
O7 S1 1_555 1_555
O8 Sm1 1_555 1_555
H4 O8 1_555 1_555
H5 O8 1_555 1_555
O9 Sm1 1_555 1_555
H6 O9 1_555 1_555
H7 O9 1_555 1_555
O10 Sm1 1_555 1_555
H8 O10 1_555 1_555
H9 O10 1_555 1_555
O11 Sm1 1_555 1_555
H10 O11 1_555 1_555
H11 O11 1_555 1_555
Sm1C O3 1_555 1_555
Sm1C_2 O5 1_555 1_555
O3C Sm1 1_555 1_555
O4C Sm1 1_555 1_555
O5C Sm1 1_555 1_555
C5 C6 1_555 1_555
C7 O2 1_555 1_555
O4 Sm1C 1_555 1_555

#END
