
#######################################################################
#
#                 Cambridge Crystallographic Data Centre
#                                CCDC 
#
#######################################################################
#
# If this CIF has been generated from an entry in the Cambridge 
# Structural Database, then it will include bibliographic, chemical, 
# crystal, experimental, refinement or atomic coordinate data resulting 
# from the CCDC's data processing and validation procedures.
#
#######################################################################

data_YAVQES
_symmetry_cell_setting           monoclinic
_symmetry_space_group_name_H-M   'P 21/n'
_symmetry_Int_Tables_number      14
_space_group_name_Hall           '-P 2yn'
loop_
_symmetry_equiv_pos_site_id
_symmetry_equiv_pos_as_xyz
1 x,y,z
2 1/2-x,1/2+y,1/2-z
3 -x,-y,-z
4 1/2+x,1/2-y,1/2+z
_cell_length_a                   9.4630(5)
_cell_length_b                   10.5142(5)
_cell_length_c                   17.2285(10)
_cell_angle_alpha                90
_cell_angle_beta                 101.779(2)
_cell_angle_gamma                90
_cell_volume                     1678.07
loop_
_atom_site_label
_atom_site_type_symbol
_atom_site_fract_x
_atom_site_fract_y
_atom_site_fract_z
Yb1 Yb 0.70548(2) 0.93713(2) 0.172017(12)
S1 S 1.35643(14) 1.20303(14) 0.47061(8)
O1 O 0.8976(4) 1.0469(4) 0.2632(2)
O3 O 0.8474(4) 0.8512(4) 0.2921(2)
O5 O 1.2489(4) 0.7753(4) 0.6307(2)
O7 O 1.1454(5) 0.6469(4) 0.5363(2)
O8 O 1.4597(4) 1.1862(4) 0.5442(3)
O9 O 1.4224(5) 1.2070(5) 0.4020(3)
O10 O 1.2609(4) 1.3119(4) 0.4731(2)
O11 O 0.6046(4) 1.0587(4) 0.2585(2)
H7 H 0.641(6) 1.108(5) 0.294(3)
H8 H 0.5180(15) 1.074(6) 0.245(4)
O12 O 0.9222(5) 0.9267(4) 0.1236(3)
H9 H 0.9584 0.8561 0.1327
H10 H 0.985(6) 0.979(6) 0.120(5)
O13 O 0.5473(4) 0.8002(4) 0.2146(2)
H11 H 0.563(7) 0.723(7) 0.220(4)
H12 H 0.501(6) 0.812(7) 0.249(3)
O14 O 0.4561(4) 0.9909(4) 0.1062(2)
H13 H 0.451(8) 1.050(4) 0.074(3)
H14 H 0.397(6) 0.935(5) 0.090(4)
O15 O 0.7142(5) 1.1369(4) 0.1200(2)
H15 H 0.697(7) 1.187(5) 0.153(3)
H16 H 0.739(7) 1.150(7) 0.0777(19)
C1 C 1.0428(6) 0.9559(5) 0.3796(3)
C2 C 1.0662(6) 0.8559(6) 0.4331(3)
H17 H 1.0093 0.7832 0.4235
C3 C 1.1745(6) 0.8635(5) 0.5012(3)
C4 C 1.2645(6) 0.9691(6) 0.5146(3)
H18 H 1.3377 0.9742 0.5596
C5 C 1.2425(6) 1.0671(5) 0.4592(3)
C6 C 1.1326(6) 1.0610(5) 0.3929(3)
H19 H 1.1188 1.1280 0.3569
C7 C 0.9232(6) 0.9508(5) 0.3077(3)
C8 C 1.1917(6) 0.7561(6) 0.5585(3)
Yb1C Yb 1.20548(2) 0.56287(2) 0.672017(12)
O5C O 0.7489(4) 0.7247(4) 0.1307(2)
O7C O 0.6454(5) 0.8531(4) 0.0363(2)
O2 O 1.1264(6) 1.0927(6) 0.0865(4)
H1 H 1.1340 1.1249 0.1305
H2 H 1.073(8) 1.149(6) 0.064(5)
O4 O 0.3175(6) 1.1191(6) 0.2384(3)
H3 H 0.252(7) 1.107(7) 0.200(3)
H4 H 0.346(9) 1.185(4) 0.262(5)
O6 O 1.6480(6) 1.1287(6) 0.6971(3)
H5 H 1.6455 1.2007 0.6785
H6 H 1.596(7) 1.066(4) 0.687(4)
loop_
_geom_bond_atom_site_label_1
_geom_bond_atom_site_label_2
_geom_bond_site_symmetry_1
_geom_bond_site_symmetry_2
Yb1 O1 1_555 1_555
S1 O8 1_555 1_555
O1 C7 1_555 1_555
O2 H1 1_555 1_555
H2 O2 1_555 1_555
O3 Yb1 1_555 1_555
O4 H3 1_555 1_555
H4 O4 1_555 1_555
O5 C8 1_555 1_555
O6 H5 1_555 1_555
H6 O6 1_555 1_555
O7 C8 1_555 1_555
O9 S1 1_555 1_555
O10 S1 1_555 1_555
O11 Yb1 1_555 1_555
H7 O11 1_555 1_555
H8 O11 1_555 1_555
O12 Yb1 1_555 1_555
H9 O12 1_555 1_555
H10 O12 1_555 1_555
O13 Yb1 1_555 1_555
H11 O13 1_555 1_555
H12 O13 1_555 1_555
O14 Yb1 1_555 1_555
H13 O14 1_555 1_555
H14 O14 1_555 1_555
O15 Yb1 1_555 1_555
H15 O15 1_555 1_555
H16 O15 1_555 1_555
C1 C2 1_555 1_555
C2 H17 1_555 1_555
C3 C2 1_555 1_555
C4 C3 1_555 1_555
H18 C4 1_555 1_555
C5 S1 1_555 1_555
C6 C1 1_555 1_555
H19 C6 1_555 1_555
C7 O3 1_555 1_555
C8 C3 1_555 1_555
Yb1C O5 1_555 1_555
O5C Yb1 1_555 1_555
O7C Yb1 1_555 1_555
O7 Yb1C 1_555 1_555
C1 C7 1_555 1_555
C4 C5 1_555 1_555
C5 C6 1_555 1_555

#END
