
#######################################################################
#
#                 Cambridge Crystallographic Data Centre
#                                CCDC 
#
#######################################################################
#
# If this CIF has been generated from an entry in the Cambridge 
# Structural Database, then it will include bibliographic, chemical, 
# crystal, experimental, refinement or atomic coordinate data resulting 
# from the CCDC's data processing and validation procedures.
#
#######################################################################

data_YAVQES01
_symmetry_cell_setting           monoclinic
_symmetry_space_group_name_H-M   'P 21/n'
_symmetry_Int_Tables_number      14
_space_group_name_Hall           '-P 2yn'
loop_
_symmetry_equiv_pos_site_id
_symmetry_equiv_pos_as_xyz
1 x,y,z
2 1/2-x,1/2+y,1/2-z
3 -x,-y,-z
4 1/2+x,1/2-y,1/2+z
_cell_length_a                   9.4571(2)
_cell_length_b                   10.5132(2)
_cell_length_c                   17.2398(3)
_cell_angle_alpha                90
_cell_angle_beta                 101.8030(10)
_cell_angle_gamma                90
_cell_volume                     1677.82
loop_
_atom_site_label
_atom_site_type_symbol
_atom_site_fract_x
_atom_site_fract_y
_atom_site_fract_z
C1 C 0.9234(4) 0.5497(3) 0.8083(2)
C2 C 1.0430(4) 0.5437(3) 0.8796(2)
C3 C 1.1334(4) 0.4390(3) 0.8924(2)
H1 H 1.1200 0.3723 0.8562
C4 C 1.2439(4) 0.4331(3) 0.9591(2)
C5 C 1.2649(4) 0.5308(3) 1.0149(2)
H2 H 1.3374 0.5256 1.0603
C6 C 1.1743(4) 0.6366(3) 1.0011(2)
C7 C 1.0666(4) 0.6440(3) 0.9335(2)
H3 H 1.0096 0.7166 0.9240
C8 C 1.1916(4) 0.7444(3) 1.0593(2)
O1 O 0.8476(3) 0.6491(2) 0.79222(15)
O2 O 0.8974(3) 0.4541(2) 0.76336(15)
O3 O 1.1445(3) 0.8531(2) 1.03676(15)
O4 O 1.2492(3) 0.7245(2) 1.13100(14)
O5 O 0.5481(3) 0.7006(2) 0.71532(16)
H4 H 0.4717 0.6697 0.7266
H5 H 0.5411 0.7763 0.6976
O6 O 0.9245(4) 0.5735(3) 0.6249(2)
H6 H 0.9339 0.6381 0.5968
H7 H 0.9482 0.5048 0.6049
O7 O 0.4570(3) 0.5092(3) 0.60573(16)
H8 H 0.4420 0.4610 0.5653
H9 H 0.3860 0.5511 0.6159
O8 O 0.7141(3) 0.3629(2) 0.62050(15)
H10 H 0.7472 0.3564 0.5784
H11 H 0.6459 0.3116 0.6236
O9 O 0.6045(3) 0.4411(2) 0.75839(16)
H12 H 0.5689 0.3699 0.7410
H13 H 0.5496 0.4821 0.7828
O10 O 1.4220(4) 0.2925(3) 0.9022(2)
O11 O 1.2611(3) 0.1885(2) 0.97378(18)
O12 O 1.4592(3) 0.3130(3) 1.04464(18)
S1 S 1.35644(9) 0.29670(8) 0.97080(5)
Yb1 Yb 0.705475(15) 0.562952(12) 0.672056(8)
O3C O 0.6445(3) 0.6469(2) 0.53676(15)
O4C O 0.7492(3) 0.7755(2) 0.63100(14)
Yb1C Yb 1.205475(15) 0.937048(12) 1.172056(8)
O13 O 0.3539(4) 0.6310(4) 0.8034(2)
H14 H 0.3411 0.6396 0.8505
H15 H 0.3051 0.5679 0.7817
O14 O 0.1268(4) 0.4035(4) 0.5889(3)
H16 H 0.0866 0.4745 0.5749
H17 H 0.1304 0.3595 0.5480
O15 O 0.3168(4) 0.3808(4) 0.7395(2)
H18 H 0.2923 0.3032 0.7323
H19 H 0.2942 0.4206 0.6958
loop_
_geom_bond_atom_site_label_1
_geom_bond_atom_site_label_2
_geom_bond_site_symmetry_1
_geom_bond_site_symmetry_2
C1 C2 1_555 1_555
C2 C3 1_555 1_555
C3 H1 1_555 1_555
C4 C3 1_555 1_555
C5 C4 1_555 1_555
H2 C5 1_555 1_555
C6 C5 1_555 1_555
C7 C2 1_555 1_555
H3 C7 1_555 1_555
C8 C6 1_555 1_555
O1 C1 1_555 1_555
O2 C1 1_555 1_555
O3 C8 1_555 1_555
O4 C8 1_555 1_555
O5 H4 1_555 1_555
H5 O5 1_555 1_555
O6 H6 1_555 1_555
H7 O6 1_555 1_555
O7 H8 1_555 1_555
H9 O7 1_555 1_555
O8 H10 1_555 1_555
H11 O8 1_555 1_555
O9 H12 1_555 1_555
H13 O9 1_555 1_555
O10 S1 1_555 1_555
O11 S1 1_555 1_555
O12 S1 1_555 1_555
S1 C4 1_555 1_555
Yb1 O1 1_555 1_555
O13 H14 1_555 1_555
H15 O13 1_555 1_555
O14 H16 1_555 1_555
H17 O14 1_555 1_555
O15 H18 1_555 1_555
H19 O15 1_555 1_555
O3C Yb1 1_555 1_555
O4C Yb1 1_555 1_555
Yb1C O3 1_555 1_555
C6 C7 1_555 1_555
O2 Yb1 1_555 1_555
O4 Yb1C 1_555 1_555
O5 Yb1 1_555 1_555
O6 Yb1 1_555 1_555
O7 Yb1 1_555 1_555
O8 Yb1 1_555 1_555
O9 Yb1 1_555 1_555

#END
