
#######################################################################
#
#                 Cambridge Crystallographic Data Centre
#                                CCDC 
#
#######################################################################
#
# If this CIF has been generated from an entry in the Cambridge 
# Structural Database, then it will include bibliographic, chemical, 
# crystal, experimental, refinement or atomic coordinate data resulting 
# from the CCDC's data processing and validation procedures.
#
#######################################################################

data_YAVQAO
_symmetry_cell_setting           monoclinic
_symmetry_space_group_name_H-M   'P 21/n'
_symmetry_Int_Tables_number      14
_space_group_name_Hall           '-P 2yn'
loop_
_symmetry_equiv_pos_site_id
_symmetry_equiv_pos_as_xyz
1 x,y,z
2 1/2-x,1/2+y,1/2-z
3 -x,-y,-z
4 1/2+x,1/2-y,1/2+z
_cell_length_a                   9.4681(17)
_cell_length_b                   10.5316(18)
_cell_length_c                   17.252(3)
_cell_angle_alpha                90
_cell_angle_beta                 101.8150(10)
_cell_angle_gamma                90
_cell_volume                     1683.82
loop_
_atom_site_label
_atom_site_type_symbol
_atom_site_fract_x
_atom_site_fract_y
_atom_site_fract_z
Tm1 Tm 0.705522(14) 0.937206(12) 0.171869(8)
S1 S 0.85615(9) 0.29696(7) -0.02941(5)
O1 O 0.7492(3) 0.7243(2) 0.13050(14)
O3 O 0.6451(3) 0.8525(2) 0.03606(15)
O5 O 0.3478(3) 0.6489(2) -0.20764(14)
O7 O 0.3975(3) 0.4540(2) -0.23663(14)
O8 O 0.9219(3) 0.2926(3) -0.09780(18)
O9 O 0.7613(3) 0.1889(2) -0.02654(16)
O10 O 0.9592(3) 0.3133(3) 0.04449(17)
O11 O 0.4561(3) 0.9908(2) 0.10573(16)
H7 H 0.413(5) 0.928(3) 0.085(3)
H8 H 0.431(5) 1.049(3) 0.074(2)
O12 O 0.5472(3) 0.7997(2) 0.21489(16)
H9 H 0.498(4) 0.814(4) 0.2479(19)
H10 H 0.568(5) 0.7247(12) 0.224(3)
O13 O 0.7145(3) 1.1379(2) 0.11972(15)
H11 H 0.703(5) 1.185(4) 0.1557(19)
H12 H 0.726(5) 1.162(4) 0.0763(12)
O14 O 0.6037(3) 1.0590(2) 0.25829(16)
H13 H 0.5182(12) 1.079(4) 0.248(3)
H14 H 0.653(4) 1.101(4) 0.2934(19)
O15 O 0.9234(3) 0.9269(2) 0.1233(2)
H15 H 0.960(5) 0.856(2) 0.124(3)
H16 H 0.985(4) 0.980(4) 0.120(3)
C1 C 0.6742(3) 0.6369(3) 0.00099(19)
C2 C 0.5668(4) 0.6440(3) -0.0666(2)
H17 H 0.5097 0.7164 -0.0763
C3 C 0.5433(3) 0.5437(3) -0.1205(2)
C4 C 0.6332(4) 0.4386(3) -0.1075(2)
H18 H 0.6196 0.3719 -0.1436
C5 C 0.7436(3) 0.4329(3) -0.0409(2)
C6 C 0.7646(3) 0.5301(3) 0.01464(19)
H19 H 0.8370 0.5246 0.0599
C7 C 0.6918(3) 0.7438(3) 0.05899(19)
C8 C 0.4233(4) 0.5495(3) -0.1917(2)
Tm1C Tm 0.205522(14) 0.562794(12) -0.328131(8)
O5C O 0.8478(3) 0.8511(2) 0.29236(14)
O7C O 0.8975(3) 1.0460(2) 0.26337(14)
O2 O 1.1259(4) 0.0946(3) 0.0869(2)
H1 H 1.1591 0.0992 0.1346
H2 H 1.082(6) 0.159(3) 0.069(4)
O4 O 0.3160(4) 1.1176(4) 0.2384(3)
H3 H 0.325(8) 1.190(3) 0.257(4)
H4 H 0.270(7) 1.156(6) 0.200(3)
O6 O 0.3531(4) 0.8698(4) 0.3039(2)
H5 H 0.299(6) 0.910(5) 0.270(3)
H6 H 0.401(6) 0.879(7) 0.3488(15)
loop_
_geom_bond_atom_site_label_1
_geom_bond_atom_site_label_2
_geom_bond_site_symmetry_1
_geom_bond_site_symmetry_2
Tm1 O1 1_555 1_555
S1 O8 1_555 1_555
O1 C7 1_555 1_555
O2 H1 1_555 1_555
H2 O2 1_555 1_555
O3 Tm1 1_555 1_555
O4 H3 1_555 1_555
H4 O4 1_555 1_555
O5 C8 1_555 1_555
O6 H5 1_555 1_555
H6 O6 1_555 1_555
O7 C8 1_555 1_555
O9 S1 1_555 1_555
O10 S1 1_555 1_555
O11 Tm1 1_555 1_555
H7 O11 1_555 1_555
H8 O11 1_555 1_555
O12 Tm1 1_555 1_555
H9 O12 1_555 1_555
H10 O12 1_555 1_555
O13 Tm1 1_555 1_555
H11 O13 1_555 1_555
H12 O13 1_555 1_555
O14 Tm1 1_555 1_555
H13 O14 1_555 1_555
H14 O14 1_555 1_555
O15 Tm1 1_555 1_555
H15 O15 1_555 1_555
H16 O15 1_555 1_555
C1 C2 1_555 1_555
C2 H17 1_555 1_555
C3 C2 1_555 1_555
C4 C3 1_555 1_555
H18 C4 1_555 1_555
C5 S1 1_555 1_555
C6 C1 1_555 1_555
H19 C6 1_555 1_555
C7 O3 1_555 1_555
C8 C3 1_555 1_555
Tm1C O5 1_555 1_555
O5C Tm1 1_555 1_555
O7C Tm1 1_555 1_555
O7 Tm1C 1_555 1_555
C1 C7 1_555 1_555
C4 C5 1_555 1_555
C5 C6 1_555 1_555

#END
