
#######################################################################
#
#                 Cambridge Crystallographic Data Centre
#                                CCDC 
#
#######################################################################
#
# If this CIF has been generated from an entry in the Cambridge 
# Structural Database, then it will include bibliographic, chemical, 
# crystal, experimental, refinement or atomic coordinate data resulting 
# from the CCDC's data processing and validation procedures.
#
#######################################################################

data_YAVQIW
_symmetry_cell_setting           monoclinic
_symmetry_space_group_name_H-M   'P 21/n'
_symmetry_Int_Tables_number      14
_space_group_name_Hall           '-P 2yn'
loop_
_symmetry_equiv_pos_site_id
_symmetry_equiv_pos_as_xyz
1 x,y,z
2 1/2-x,1/2+y,1/2-z
3 -x,-y,-z
4 1/2+x,1/2-y,1/2+z
_cell_length_a                   9.44700(10)
_cell_length_b                   10.4895(4)
_cell_length_c                   17.1948(4)
_cell_angle_alpha                90
_cell_angle_beta                 101.8210(10)
_cell_angle_gamma                90
_cell_volume                     1667.77
loop_
_atom_site_label
_atom_site_type_symbol
_atom_site_fract_x
_atom_site_fract_y
_atom_site_fract_z
Lu1 Lu 0.20537(8) 0.06292(6) 0.17197(4)
S1 S 0.8566(5) -0.2030(4) 0.4704(3)
C1 C 0.5446(16) 0.0439(15) 0.3794(9)
C2 C 0.5663(18) 0.1433(14) 0.4325(10)
H1 H 0.5074 0.2150 0.4227
C3 C 0.6749(18) 0.1385(16) 0.5007(10)
C4 C 0.7633(18) 0.0303(16) 0.5147(10)
H2 H 0.8354 0.0252 0.5604
C5 C 0.7436(17) -0.0690(16) 0.4607(10)
C6 C 0.6347(17) -0.0606(17) 0.3924(9)
H3 H 0.6228 -0.1264 0.3554
C7 C 0.4197(19) 0.0489(17) 0.3068(10)
C8 C 0.6911(19) 0.2403(17) 0.5590(11)
O1 O 0.3475(13) 0.1495(10) 0.2915(7)
O3 O 0.3979(13) -0.0482(11) 0.2634(7)
O6 O 0.6466(16) 0.3527(12) 0.5367(7)
O7 O 0.7485(13) 0.2254(11) 0.6307(7)
O8 O 0.9593(15) -0.1875(14) 0.5446(9)
O9 O 0.7608(15) -0.3117(13) 0.4723(8)
O10 O 0.9219(17) -0.2063(13) 0.4020(9)
O11 O 0.2139(15) -0.1357(14) 0.1183(8)
H10 H 0.24(2) -0.15(2) 0.076(6)
H11 H 0.21(2) -0.175(18) 0.159(7)
O12 O 0.0463(14) 0.1984(11) 0.2147(8)
H12 H 0.0480 0.1855 0.2619
H13 H 0.03(2) 0.275(5) 0.215(13)
O13 O 0.4203(15) 0.0723(14) 0.1227(9)
H14 H 0.4851 0.0351 0.1534
H15 H 0.47(2) 0.136(13) 0.121(15)
O14 O -0.0431(15) 0.0072(13) 0.1068(8)
H16 H -0.06(2) 0.083(6) 0.095(13)
H17 H -0.07(2) -0.02(2) 0.060(4)
O15 O 0.1038(12) -0.0552(13) 0.2586(7)
H18 H 0.1138 -0.1313 0.2502
H19 H 0.12(2) -0.07(2) 0.306(3)
Lu1C Lu 0.70537(8) 0.43708(6) 0.67197(4)
O6C O 0.1466(16) 0.1473(12) 0.0367(7)
O7C O 0.2485(13) 0.2746(11) 0.1307(7)
O2 O 0.626(2) -0.0935(14) 0.0875(13)
H4 H 0.59(3) -0.160(17) 0.10(2)
H5 H 0.63(3) -0.15(2) 0.057(15)
O4 O -0.1830(19) -0.121(2) 0.2389(13)
H6 H -0.21(3) -0.18(2) 0.266(15)
H7 H -0.100(11) -0.12(3) 0.232(17)
O5 O -0.1454(19) 0.1300(18) 0.3029(10)
H8 H -0.11(3) 0.09(2) 0.343(10)
H9 H -0.20(3) 0.10(3) 0.265(11)
loop_
_geom_bond_atom_site_label_1
_geom_bond_atom_site_label_2
_geom_bond_site_symmetry_1
_geom_bond_site_symmetry_2
Lu1 O1 1_555 1_555
S1 C5 1_555 1_555
C1 C2 1_555 1_555
C2 H1 1_555 1_555
C3 C2 1_555 1_555
C4 C3 1_555 1_555
H2 C4 1_555 1_555
C5 C4 1_555 1_555
C6 C1 1_555 1_555
H3 C6 1_555 1_555
C7 C1 1_555 1_555
C8 C3 1_555 1_555
O1 C7 1_555 1_555
O2 H4 1_555 1_555
H5 O2 1_555 1_555
O3 Lu1 1_555 1_555
O4 H6 1_555 1_555
H7 O4 1_555 1_555
O5 H8 1_555 1_555
H9 O5 1_555 1_555
O6 C8 1_555 1_555
O7 C8 1_555 1_555
O8 S1 1_555 1_555
O9 S1 1_555 1_555
O10 S1 1_555 1_555
O11 Lu1 1_555 1_555
H10 O11 1_555 1_555
H11 O11 1_555 1_555
O12 Lu1 1_555 1_555
H12 O12 1_555 1_555
H13 O12 1_555 1_555
O13 Lu1 1_555 1_555
H14 O13 1_555 1_555
H15 O13 1_555 1_555
O14 Lu1 1_555 1_555
H16 O14 1_555 1_555
H17 O14 1_555 1_555
O15 Lu1 1_555 1_555
H18 O15 1_555 1_555
H19 O15 1_555 1_555
Lu1C O6 1_555 1_555
O6C Lu1 1_555 1_555
O7C Lu1 1_555 1_555
C5 C6 1_555 1_555
C7 O3 1_555 1_555
O7 Lu1C 1_555 1_555

#END
