
#######################################################################
#
#                 Cambridge Crystallographic Data Centre
#                                CCDC 
#
#######################################################################
#
# If this CIF has been generated from an entry in the Cambridge 
# Structural Database, then it will include bibliographic, chemical, 
# crystal, experimental, refinement or atomic coordinate data resulting 
# from the CCDC's data processing and validation procedures.
#
#######################################################################

data_YAVSOE
_symmetry_cell_setting           monoclinic
_symmetry_space_group_name_H-M   'P 21/c'
_symmetry_Int_Tables_number      14
_space_group_name_Hall           '-P 2ybc'
loop_
_symmetry_equiv_pos_site_id
_symmetry_equiv_pos_as_xyz
1 x,y,z
2 -x,1/2+y,1/2-z
3 -x,-y,-z
4 x,1/2-y,1/2+z
_cell_length_a                   5.7200(7)
_cell_length_b                   15.5327(17)
_cell_length_c                   7.8528(9)
_cell_angle_alpha                90
_cell_angle_beta                 110.332(3)
_cell_angle_gamma                90
_cell_volume                     654.228
loop_
_atom_site_label
_atom_site_type_symbol
_atom_site_fract_x
_atom_site_fract_y
_atom_site_fract_z
Zn1 Zn 0.2357(2) 0.63606(8) 0.97947(16)
P1 P -0.5231(5) 0.68075(17) 0.6632(3)
O1 O -0.0417(14) 0.6282(5) 1.1123(9)
H1 H -0.024(15) 0.563(6) 1.162(11)
H2 H -0.208(18) 0.631(6) 1.033(13)
O2 O 0.0259(12) 0.5482(5) 0.7868(9)
O3 O 0.4487(13) 0.5447(4) 1.1537(9)
H3 H 0.473(15) 0.466(6) 1.169(11)
H4 H 0.528(17) 0.542(6) 1.281(14)
O4 O -0.038(2) 0.7161(6) 0.7879(12)
H5 H 0.03(2) 0.734(8) 0.774(18)
O5 O -0.4999(13) 0.6362(4) 0.8411(9)
O6 O -0.5829(14) 0.7746(5) 0.6558(9)
O7 O -0.7207(13) 0.6354(5) 0.4981(10)
H6 H -0.7080 0.5830 0.5118
O8 O -0.2591(12) 0.5304(5) 0.5115(9)
C1 C -0.2161(19) 0.6705(7) 0.6390(14)
H7 H -0.221(15) 0.675(6) 0.533(14)
C2 C -0.1395(19) 0.5759(7) 0.6458(14)
Zn1_2 Zn -0.7643(2) 0.63606(8) 0.97947(16)
Zn1C Zn -0.7643(2) 0.86394(8) 0.47947(16)
O5_2 O 0.5001(13) 0.6362(4) 0.8411(9)
O6C O 0.4171(14) 0.7254(5) 1.1558(9)
loop_
_geom_bond_atom_site_label_1
_geom_bond_atom_site_label_2
_geom_bond_site_symmetry_1
_geom_bond_site_symmetry_2
Zn1 O1 1_555 1_555
P1 O5 1_555 1_555
O1 H1 1_555 1_555
H2 O1 1_555 1_555
O2 Zn1 1_555 1_555
O3 Zn1 1_555 1_555
H3 O3 1_555 1_555
H4 O3 1_555 1_555
O4 Zn1 1_555 1_555
H5 O4 1_555 1_555
O5 Zn1_2 1_555 1_555
O6 P1 1_555 1_555
O7 P1 1_555 1_555
H6 O7 1_555 1_555
O8 C2 1_555 1_555
C1 P1 1_555 1_555
H7 C1 1_555 1_555
C2 O2 1_555 1_555
Zn1C O6 1_555 1_555
O5_2 Zn1 1_555 1_555
O6C Zn1 1_555 1_555
O4 C1 1_555 1_555
C1 C2 1_555 1_555

#END
