
#######################################################################
#
#                 Cambridge Crystallographic Data Centre
#                                CCDC 
#
#######################################################################
#
# If this CIF has been generated from an entry in the Cambridge 
# Structural Database, then it will include bibliographic, chemical, 
# crystal, experimental, refinement or atomic coordinate data resulting 
# from the CCDC's data processing and validation procedures.
#
#######################################################################

data_YAVSIY
_symmetry_cell_setting           monoclinic
_symmetry_space_group_name_H-M   'P 21/c'
_symmetry_Int_Tables_number      14
_space_group_name_Hall           '-P 2ybc'
loop_
_symmetry_equiv_pos_site_id
_symmetry_equiv_pos_as_xyz
1 x,y,z
2 -x,1/2+y,1/2-z
3 -x,-y,-z
4 x,1/2-y,1/2+z
_cell_length_a                   5.678(2)
_cell_length_b                   15.469(6)
_cell_length_c                   7.846(3)
_cell_angle_alpha                90
_cell_angle_beta                 109.522(3)
_cell_angle_gamma                90
_cell_volume                     649.521
loop_
_atom_site_label
_atom_site_type_symbol
_atom_site_fract_x
_atom_site_fract_y
_atom_site_fract_z
Co1 Co 0.27180(4) 0.364480(15) 0.52417(3)
P1 P 1.02496(8) 0.31831(3) 0.83568(6)
O1 O 0.5447(2) 0.37357(8) 0.39099(18)
H1 H 0.691(5) 0.3692(17) 0.463(4)
H2 H 0.536(4) 0.4229(17) 0.348(3)
O2 O 0.4765(2) 0.45277(8) 0.71554(17)
O3 O 0.0485(2) 0.45480(9) 0.34717(19)
H3 H -0.029(5) 0.4436(17) 0.250(4)
H4 H 0.047(5) 0.508(2) 0.357(4)
O4 O 0.5373(2) 0.28346(8) 0.71446(17)
H5 H 0.520(5) 0.236(2) 0.751(4)
O5 O 1.0028(2) 0.36323(8) 0.65777(17)
O6 O 1.0843(2) 0.22394(8) 0.84113(17)
O7 O 1.2219(2) 0.36403(9) 0.99911(17)
H6 H 1.233(5) 0.417(2) 1.004(4)
O8 O 0.7593(2) 0.46884(9) 0.99110(17)
C1 C 0.7154(3) 0.32913(11) 0.8622(2)
H7 H 0.725(4) 0.3067(15) 0.978(3)
C2 C 0.6407(3) 0.42423(11) 0.8563(2)
Co1_2 Co 1.27180(4) 0.364480(15) 0.52417(3)
Co1C Co 1.27180(4) 0.135520(15) 1.02417(3)
O5_2 O 0.0028(2) 0.36323(8) 0.65777(17)
O6C O 0.0843(2) 0.27606(8) 0.34113(17)
loop_
_geom_bond_atom_site_label_1
_geom_bond_atom_site_label_2
_geom_bond_site_symmetry_1
_geom_bond_site_symmetry_2
Co1 O1 1_555 1_555
P1 O5 1_555 1_555
O1 H1 1_555 1_555
H2 O1 1_555 1_555
O2 Co1 1_555 1_555
O3 Co1 1_555 1_555
H3 O3 1_555 1_555
H4 O3 1_555 1_555
O4 Co1 1_555 1_555
H5 O4 1_555 1_555
O5 Co1_2 1_555 1_555
O6 P1 1_555 1_555
O7 P1 1_555 1_555
H6 O7 1_555 1_555
O8 C2 1_555 1_555
C1 P1 1_555 1_555
H7 C1 1_555 1_555
C2 O2 1_555 1_555
Co1C O6 1_555 1_555
O5_2 Co1 1_555 1_555
O6C Co1 1_555 1_555
O4 C1 1_555 1_555
C1 C2 1_555 1_555

#END
