
#######################################################################
#
#                 Cambridge Crystallographic Data Centre
#                                CCDC 
#
#######################################################################
#
# If this CIF has been generated from an entry in the Cambridge 
# Structural Database, then it will include bibliographic, chemical, 
# crystal, experimental, refinement or atomic coordinate data resulting 
# from the CCDC's data processing and validation procedures.
#
#######################################################################

data_YAVSUK
_symmetry_cell_setting           orthorhombic
_symmetry_space_group_name_H-M   'P c c a'
_symmetry_Int_Tables_number      54
_space_group_name_Hall           '-P 2a 2ac'
loop_
_symmetry_equiv_pos_site_id
_symmetry_equiv_pos_as_xyz
1 x,y,z
2 1/2-x,-y,z
3 -x,y,1/2-z
4 1/2+x,-y,1/2-z
5 -x,-y,-z
6 1/2+x,y,-z
7 x,-y,1/2+z
8 1/2-x,y,1/2+z
_cell_length_a                   14.268(4)
_cell_length_b                   5.0065(12)
_cell_length_c                   15.557(4)
_cell_angle_alpha                90
_cell_angle_beta                 90
_cell_angle_gamma                90
_cell_volume                     1111.28
loop_
_atom_site_label
_atom_site_type_symbol
_atom_site_fract_x
_atom_site_fract_y
_atom_site_fract_z
Ag1 Ag 0.0000 1.0000 0.0000
N1 N -0.0399(2) 1.3090(6) 0.08288(19)
N2 N -0.0356(2) 1.6209(6) 0.18095(18)
C1 C 0.0143(2) 1.4494(7) 0.1333(3)
H1 H 0.0792 1.4325 0.1357
C2 C -0.1287(3) 1.3991(11) 0.0983(3)
H2 H -0.1825 1.3385 0.0708
C3 C -0.1263(3) 1.5884(11) 0.1592(3)
H3 H -0.1773 1.6796 0.1820
C4 C 0.0000 1.7874(11) 0.2500
H4 H -0.0498 1.9010 0.2716
H5 H 0.0498 1.9010 0.2284
Ag1F Ag 0.0000 1.0000 0.5000
N1B N 0.0399(2) 1.3090(6) 0.41712(19)
N1D N 0.0399(2) 0.6910(6) -0.08288(19)
N2B N 0.0356(2) 1.6209(6) 0.31905(18)
C1B C -0.0143(2) 1.4494(7) 0.3667(3)
H1B H -0.0792 1.4325 0.3643
C2B C 0.1287(3) 1.3991(11) 0.4017(3)
H2B H 0.1825 1.3385 0.4292
C3B C 0.1263(3) 1.5884(11) 0.3408(3)
H3B H 0.1773 1.6796 0.3180
Cl1 Cl -0.2500 1.0000 0.37749(12)
O3 O -0.1594(4) 0.9212(19) 0.3853(6)
O4 O -0.2093(6) 1.106(2) 0.2998(5)
O3A O -0.3406(4) 1.0788(19) 0.3853(6)
O4A O -0.2907(6) 0.894(2) 0.2998(5)
O1? O -0.2413(8) 0.7122(16) 0.3729(11)
O2? O -0.1945(6) 1.099(2) 0.4471(6)
loop_
_geom_bond_atom_site_label_1
_geom_bond_atom_site_label_2
_geom_bond_site_symmetry_1
_geom_bond_site_symmetry_2
Ag1 N1 1_555 1_555
Cl1 O3 1_555 1_555
N1 C1 1_555 1_555
N2 C1 1_555 1_555
C1 H1 1_555 1_555
C2 N1 1_555 1_555
H2 C2 1_555 1_555
C3 N2 1_555 1_555
H3 C3 1_555 1_555
C4 N2 1_555 1_555
H4 C4 1_555 1_555
H5 C4 1_555 1_555
O4 Cl1 1_555 1_555
Ag1F N1B 1_555 1_555
N1B C1B 1_555 1_555
N1D Ag1 1_555 1_555
N2B C4 1_555 1_555
C1B N2B 1_555 1_555
H1B C1B 1_555 1_555
C2B N1B 1_555 1_555
H2B C2B 1_555 1_555
C3B N2B 1_555 1_555
H3B C3B 1_555 1_555
O3A Cl1 1_555 1_555
O4A Cl1 1_555 1_555
C2 C3 1_555 1_555
C2B C3B 1_555 1_555

#END
