
#######################################################################
#
#                 Cambridge Crystallographic Data Centre
#                                CCDC 
#
#######################################################################
#
# If this CIF has been generated from an entry in the Cambridge 
# Structural Database, then it will include bibliographic, chemical, 
# crystal, experimental, refinement or atomic coordinate data resulting 
# from the CCDC's data processing and validation procedures.
#
#######################################################################

data_YAVSEU
_symmetry_cell_setting           monoclinic
_symmetry_space_group_name_H-M   'P 21/c'
_symmetry_Int_Tables_number      14
_space_group_name_Hall           '-P 2ybc'
loop_
_symmetry_equiv_pos_site_id
_symmetry_equiv_pos_as_xyz
1 x,y,z
2 -x,1/2+y,1/2-z
3 -x,-y,-z
4 x,1/2-y,1/2+z
_cell_length_a                   5.731(2)
_cell_length_b                   15.504(6)
_cell_length_c                   7.861(3)
_cell_angle_alpha                90
_cell_angle_beta                 109.287(4)
_cell_angle_gamma                90
_cell_volume                     659.275
loop_
_atom_site_label
_atom_site_type_symbol
_atom_site_fract_x
_atom_site_fract_y
_atom_site_fract_z
Fe1 Fe 0.23424(5) 0.635362(18) -0.02303(4)
P1 P -0.52002(10) 0.68071(3) -0.33672(7)
O1 O -0.0443(3) 0.62651(10) 0.1095(2)
H1 H -0.036(5) 0.574(2) 0.157(4)
H2 H -0.185(7) 0.632(2) 0.048(5)
O2 O 0.0216(3) 0.54608(9) -0.21645(19)
O3 O 0.4564(3) 0.54505(10) 0.1575(2)
H3 H 0.464(5) 0.486(2) 0.149(4)
H4 H 0.535(6) 0.558(2) 0.260(5)
O4 O -0.0345(3) 0.71537(10) -0.2179(2)
H5 H -0.023(6) 0.767(2) -0.249(5)
O5 O -0.4999(3) 0.63507(9) -0.16023(19)
O6 O -0.5744(3) 0.77492(10) -0.3395(2)
O7 O -0.7163(3) 0.63663(11) -0.4993(2)
H6 H -0.718(6) 0.586(3) -0.507(4)
O8 O -0.2585(3) 0.53004(11) -0.4907(2)
C1 C -0.2140(4) 0.66937(13) -0.3645(3)
H7 H -0.2185 0.6942 -0.4801
C2 C -0.1410(4) 0.57451(14) -0.3571(3)
Fe1_2 Fe -0.76576(5) 0.635362(18) -0.02303(4)
Fe1C Fe -0.76576(5) 0.864638(18) -0.52303(4)
O5_2 O 0.5001(3) 0.63507(9) -0.16023(19)
O6C O 0.4256(3) 0.72508(10) 0.1605(2)
loop_
_geom_bond_atom_site_label_1
_geom_bond_atom_site_label_2
_geom_bond_site_symmetry_1
_geom_bond_site_symmetry_2
Fe1 O1 1_555 1_555
P1 O5 1_555 1_555
O1 H1 1_555 1_555
H2 O1 1_555 1_555
O2 Fe1 1_555 1_555
O3 Fe1 1_555 1_555
H3 O3 1_555 1_555
H4 O3 1_555 1_555
O4 Fe1 1_555 1_555
H5 O4 1_555 1_555
O5 Fe1_2 1_555 1_555
O6 P1 1_555 1_555
O7 P1 1_555 1_555
H6 O7 1_555 1_555
O8 C2 1_555 1_555
C1 P1 1_555 1_555
H7 C1 1_555 1_555
C2 O2 1_555 1_555
Fe1C O6 1_555 1_555
O5_2 Fe1 1_555 1_555
O6C Fe1 1_555 1_555
O4 C1 1_555 1_555
C1 C2 1_555 1_555

#END
