
#######################################################################
#
#                 Cambridge Crystallographic Data Centre
#                                CCDC 
#
#######################################################################
#
# If this CIF has been generated from an entry in the Cambridge 
# Structural Database, then it will include bibliographic, chemical, 
# crystal, experimental, refinement or atomic coordinate data resulting 
# from the CCDC's data processing and validation procedures.
#
#######################################################################

data_YAVSAQ
_symmetry_cell_setting           monoclinic
_symmetry_space_group_name_H-M   'P 21/c'
_symmetry_Int_Tables_number      14
_space_group_name_Hall           '-P 2ybc'
loop_
_symmetry_equiv_pos_site_id
_symmetry_equiv_pos_as_xyz
1 x,y,z
2 -x,1/2+y,1/2-z
3 -x,-y,-z
4 x,1/2-y,1/2+z
_cell_length_a                   5.7997(18)
_cell_length_b                   15.664(5)
_cell_length_c                   7.911(2)
_cell_angle_alpha                90
_cell_angle_beta                 109.729(2)
_cell_angle_gamma                90
_cell_volume                     676.5
loop_
_atom_site_label
_atom_site_type_symbol
_atom_site_fract_x
_atom_site_fract_y
_atom_site_fract_z
Mn1 Mn 0.26147(4) 0.364222(13) 0.51832(3)
P1 P 1.01570(7) 0.32148(2) 0.83677(5)
O1 O 0.5503(2) 0.37190(7) 0.38495(15)
H1 H 0.689(5) 0.3693(15) 0.461(3)
H2 H 0.538(4) 0.4207(17) 0.335(3)
O2 O 0.48094(19) 0.45384(6) 0.71862(13)
O3 O 0.0432(2) 0.45716(7) 0.34010(14)
H3 H -0.034(4) 0.4484(16) 0.240(3)
H4 H 0.040(4) 0.5117(16) 0.350(3)
O4 O 0.53858(19) 0.28645(7) 0.72273(14)
H5 H 0.533(4) 0.2370(16) 0.759(3)
O5 O 0.99307(19) 0.36657(6) 0.66096(13)
O6 O 1.07163(19) 0.22824(6) 0.83950(14)
O7 O 1.2122(2) 0.36514(7) 0.99923(14)
H6 H 1.227(5) 0.420(2) 1.004(3)
O8 O 0.75935(18) 0.47045(7) 0.99141(13)
C1 C 0.7153(3) 0.33231(9) 0.86623(19)
H7 H 0.7227 0.3080 0.9820
C2 C 0.6420(3) 0.42638(9) 0.85813(19)
Mn1_2 Mn 1.26147(4) 0.364222(13) 0.51832(3)
Mn1C Mn 1.26147(4) 0.135778(13) 1.01832(3)
O5_2 O -0.00693(19) 0.36657(6) 0.66096(13)
O6C O 0.07163(19) 0.27176(6) 0.33950(14)
loop_
_geom_bond_atom_site_label_1
_geom_bond_atom_site_label_2
_geom_bond_site_symmetry_1
_geom_bond_site_symmetry_2
Mn1 O1 1_555 1_555
P1 O5 1_555 1_555
O1 H1 1_555 1_555
H2 O1 1_555 1_555
O2 Mn1 1_555 1_555
O3 Mn1 1_555 1_555
H3 O3 1_555 1_555
H4 O3 1_555 1_555
O4 Mn1 1_555 1_555
H5 O4 1_555 1_555
O5 Mn1_2 1_555 1_555
O6 P1 1_555 1_555
O7 P1 1_555 1_555
H6 O7 1_555 1_555
O8 C2 1_555 1_555
C1 P1 1_555 1_555
H7 C1 1_555 1_555
C2 O2 1_555 1_555
Mn1C O6 1_555 1_555
O5_2 Mn1 1_555 1_555
O6C Mn1 1_555 1_555
O4 C1 1_555 1_555
C1 C2 1_555 1_555

#END
