
#######################################################################
#
#                 Cambridge Crystallographic Data Centre
#                                CCDC 
#
#######################################################################
#
# If this CIF has been generated from an entry in the Cambridge 
# Structural Database, then it will include bibliographic, chemical, 
# crystal, experimental, refinement or atomic coordinate data resulting 
# from the CCDC's data processing and validation procedures.
#
#######################################################################

data_YAVTIZ
_symmetry_cell_setting           monoclinic
_symmetry_space_group_name_H-M   'P 21/n'
_symmetry_Int_Tables_number      14
_space_group_name_Hall           '-P 2yn'
loop_
_symmetry_equiv_pos_site_id
_symmetry_equiv_pos_as_xyz
1 x,y,z
2 1/2-x,1/2+y,1/2-z
3 -x,-y,-z
4 1/2+x,1/2-y,1/2+z
_cell_length_a                   9.131(3)
_cell_length_b                   9.253(3)
_cell_length_c                   12.435(4)
_cell_angle_alpha                90
_cell_angle_beta                 92.580(5)
_cell_angle_gamma                90
_cell_volume                     1049.56
loop_
_atom_site_label
_atom_site_type_symbol
_atom_site_fract_x
_atom_site_fract_y
_atom_site_fract_z
Cu1 Cu 0.0000 0.5000 0.5000
N1 N 0.0338(3) 0.2917(3) 0.5372(2)
N2 N 0.0518(3) 0.0966(3) 0.6365(2)
N3 N 0.2970(3) 0.0402(3) 0.9369(2)
N4 N 0.1106(3) 0.0324(3) 0.8202(2)
C1 C 0.1415(4) 0.2033(4) 0.4980(3)
H1 H 0.1969 0.2231 0.4388
C2 C -0.0171(3) 0.2236(3) 0.6202(3)
H2 H -0.0910 0.2586 0.6622
C3 C 0.1526(4) 0.0843(4) 0.5595(3)
H3 H 0.2170 0.0078 0.5511
C4 C 0.1951(4) 0.1384(5) 0.9653(3)
H4 H 0.2037 0.1989 1.0250
C5 C 0.2421(4) -0.0214(3) 0.8489(3)
H5 H 0.2890 -0.0935 0.8113
C6 C 0.0802(4) 0.1348(5) 0.8942(3)
H6 H -0.0039 0.1915 0.8954
C7 C 0.0244(4) -0.0038(4) 0.7226(3)
H7 H 0.0488 -0.1010 0.7001
H8 H -0.0789 -0.0020 0.7375
Cu1C Cu 0.5000 0.0000 1.0000
Cu1C_2 Cu -0.5000 1.0000 0.0000
N1B N -0.0338(3) 0.7083(3) 0.4628(2)
N2B N -0.0518(3) 0.9034(3) 0.3635(2)
N3B N -0.2970(3) 0.9598(3) 0.0631(2)
N3C N -0.2030(3) 0.4598(3) 0.4369(2)
N3A N 0.2030(3) 0.5402(3) 0.5631(2)
N4B N -0.1106(3) 0.9676(3) 0.1798(2)
C1B C -0.1415(4) 0.7967(4) 0.5020(3)
H1B H -0.1969 0.7769 0.5612
C2B C 0.0171(3) 0.7764(3) 0.3798(3)
H2B H 0.0910 0.7414 0.3378
C3B C -0.1526(4) 0.9157(4) 0.4405(3)
H3B H -0.2170 0.9922 0.4489
C4B C -0.1951(4) 0.8616(5) 0.0347(3)
H4B H -0.2037 0.8011 -0.0250
C5B C -0.2421(4) 1.0214(3) 0.1511(3)
H5B H -0.2890 1.0935 0.1887
C6B C -0.0802(4) 0.8652(5) 0.1058(3)
H6B H 0.0039 0.8085 0.1046
C7B C -0.0244(4) 1.0038(4) 0.2774(3)
H7B H -0.0488 1.1010 0.2999
H8B H 0.0789 1.0020 0.2625
Cl1 Cl 0.08188(11) 0.42369(11) 0.21353(8)
O1 O 0.1218(4) 0.4700(4) 0.3190(2)
O2 O -0.0388(5) 0.3348(5) 0.2086(4)
O3 O -0.0067(8) 0.5570(7) 0.1717(5)
O5 O 0.1909(10) 0.4092(16) 0.1440(8)
O4? O 0.143(2) 0.4961(17) 0.1391(10)
O6? O 0.1791(9) 0.2812(8) 0.2260(8)
loop_
_geom_bond_atom_site_label_1
_geom_bond_atom_site_label_2
_geom_bond_site_symmetry_1
_geom_bond_site_symmetry_2
Cu1 N1 1_555 1_555
N1 C1 1_555 1_555
N2 C2 1_555 1_555
N3 C4 1_555 1_555
N4 C5 1_555 1_555
Cl1 O1 1_555 1_555
O2 Cl1 1_555 1_555
O3 Cl1 1_555 1_555
O5 Cl1 1_555 1_555
C1 H1 1_555 1_555
C2 N1 1_555 1_555
H2 C2 1_555 1_555
C3 N2 1_555 1_555
H3 C3 1_555 1_555
C4 H4 1_555 1_555
C5 N3 1_555 1_555
H5 C5 1_555 1_555
C6 N4 1_555 1_555
H6 C6 1_555 1_555
C7 N2 1_555 1_555
H7 C7 1_555 1_555
H8 C7 1_555 1_555
Cu1C N3 1_555 1_555
Cu1C_2 N3B 1_555 1_555
N1B Cu1 1_555 1_555
N2B C2B 1_555 1_555
N3B C4B 1_555 1_555
N3C Cu1 1_555 1_555
N3A Cu1 1_555 1_555
N4B C5B 1_555 1_555
C1B N1B 1_555 1_555
H1B C1B 1_555 1_555
C2B N1B 1_555 1_555
H2B C2B 1_555 1_555
C3B N2B 1_555 1_555
H3B C3B 1_555 1_555
C4B H4B 1_555 1_555
C5B N3B 1_555 1_555
H5B C5B 1_555 1_555
C6B N4B 1_555 1_555
H6B C6B 1_555 1_555
C7B N2B 1_555 1_555
H7B C7B 1_555 1_555
H8B C7B 1_555 1_555
N4 C7 1_555 1_555
C1 C3 1_555 1_555
C4 C6 1_555 1_555
N4B C7B 1_555 1_555
C1B C3B 1_555 1_555
C4B C6B 1_555 1_555

#END
