
#######################################################################
#
#                 Cambridge Crystallographic Data Centre
#                                CCDC 
#
#######################################################################
#
# If this CIF has been generated from an entry in the Cambridge 
# Structural Database, then it will include bibliographic, chemical, 
# crystal, experimental, refinement or atomic coordinate data resulting 
# from the CCDC's data processing and validation procedures.
#
#######################################################################

data_YAVTOF
_symmetry_cell_setting           monoclinic
_symmetry_space_group_name_H-M   'C 2/c'
_symmetry_Int_Tables_number      15
_space_group_name_Hall           '-C 2yn'
loop_
_symmetry_equiv_pos_site_id
_symmetry_equiv_pos_as_xyz
1 x,y,z
2 1/2+x,1/2+y,z
3 -x,y,1/2-z
4 1/2-x,1/2+y,1/2-z
5 -x,-y,-z
6 1/2-x,1/2-y,-z
7 x,-y,1/2+z
8 1/2+x,1/2-y,1/2+z
_cell_length_a                   12.348(5)
_cell_length_b                   12.115(5)
_cell_length_c                   18.837(8)
_cell_angle_alpha                90
_cell_angle_beta                 100.775(6)
_cell_angle_gamma                90
_cell_volume                     2768.26
loop_
_atom_site_label
_atom_site_type_symbol
_atom_site_fract_x
_atom_site_fract_y
_atom_site_fract_z
Zn1 Zn 0.2500 0.7500 0.0000
N1 N 0.4777(3) 0.6106(3) 0.18397(18)
N2 N -0.1420(3) 0.5563(3) 0.1013(2)
N3 N 0.0041(3) 0.6883(3) 0.13079(19)
N4 N 0.3868(3) 0.6929(3) 0.08661(18)
C1 C 0.3784(4) 0.6463(4) 0.1480(2)
H1 H 0.3126 0.6387 0.1648
C2 C 0.5529(4) 0.6374(5) 0.1421(3)
H2 H 0.6283 0.6236 0.1525
N5 N 0.1327(3) 0.7474(3) 0.07431(19)
C3 C -0.0694(4) 0.6129(4) 0.1593(2)
H3 H -0.0259 0.5590 0.1905
H4 H -0.1131 0.6539 0.1880
C4 C -0.2227(4) 0.6016(4) 0.0497(3)
H5 H -0.2438 0.6754 0.0452
C5 C 0.0841(4) 0.6603(4) 0.0951(2)
H6 H 0.1028 0.5879 0.0862
C6 C 0.4967(4) 0.6876(4) 0.0830(2)
H7 H 0.5276 0.7149 0.0452
C7 C 0.0007(5) 0.8015(4) 0.1321(3)
H8 H -0.0472 0.8453 0.1526
C8 C 0.0803(4) 0.8361(4) 0.0980(3)
H9 H 0.0976 0.9096 0.0913
C9 C -0.1392(4) 0.4477(4) 0.0880(2)
H10 H -0.0916 0.3981 0.1157
N6 N -0.2122(3) 0.4205(3) 0.0311(2)
C10 C 0.5000 0.5454(5) 0.2500
H11 H 0.4371 0.4982 0.2515
H12 H 0.5629 0.4982 0.2485
C11 C -0.2655(4) 0.5169(4) 0.0067(3)
H13 H -0.3221 0.5228 -0.0333
Zn1A Zn -0.2500 0.2500 0.0000
Zn1G Zn 0.7500 0.7500 0.5000
Zn1A_2 Zn 0.7500 1.2500 0.0000
N1B N 0.5223(3) 0.6106(3) 0.31603(18)
N2E N 0.6420(3) 0.9437(3) -0.1013(2)
N3E N 0.4959(3) 0.8117(3) -0.13079(19)
N4B N 0.6132(3) 0.6929(3) 0.41339(18)
N4E N 0.1132(3) 0.8071(3) -0.08661(18)
C1B C 0.6216(4) 0.6463(4) 0.3520(2)
H1B H 0.6874 0.6387 0.3352
C2B C 0.4471(4) 0.6374(5) 0.3579(3)
H2B H 0.3717 0.6236 0.3475
N5E N 0.3673(3) 0.7526(3) -0.07431(19)
C3E C 0.5694(4) 0.8871(4) -0.1593(2)
H3E H 0.5259 0.9410 -0.1905
H4E H 0.6131 0.8461 -0.1880
C4E C 0.7227(4) 0.8984(4) -0.0497(3)
H5E H 0.7438 0.8246 -0.0452
C5E C 0.4159(4) 0.8397(4) -0.0951(2)
H6E H 0.3972 0.9121 -0.0862
C6B C 0.5033(4) 0.6876(4) 0.4170(2)
H7B H 0.4724 0.7149 0.4548
C7E C 0.4993(5) 0.6985(4) -0.1321(3)
H8E H 0.5472 0.6547 -0.1526
C8E C 0.4197(4) 0.6639(4) -0.0980(3)
H9E H 0.4024 0.5904 -0.0913
C9E C 0.6392(4) 1.0523(4) -0.0880(2)
H10E H 0.5916 1.1019 -0.1157
N6E N 0.7122(3) 1.0795(3) -0.0311(2)
N6A N 0.2878(3) 0.9205(3) 0.0311(2)
N6D N 0.2122(3) 0.5795(3) -0.0311(2)
C11E C 0.7655(4) 0.9831(4) -0.0067(3)
H13E H 0.8221 0.9772 0.0333
Cl1 Cl 0.29975(10) 0.89686(10) 0.28732(7)
O1 O 0.2641(4) 0.9958(4) 0.2494(3)
O2 O 0.2141(10) 0.8702(12) 0.3249(8)
O5 O 0.2332(7) 0.8023(7) 0.2629(5)
O6 O 0.4075(7) 0.8751(8) 0.2743(5)
O3? O 0.3885(9) 0.9172(10) 0.3471(6)
O4? O 0.3413(12) 0.8213(11) 0.2407(7)
O7? O 0.3078(10) 0.9066(10) 0.3637(4)
loop_
_geom_bond_atom_site_label_1
_geom_bond_atom_site_label_2
_geom_bond_site_symmetry_1
_geom_bond_site_symmetry_2
Zn1 N4 1_555 1_555
Cl1 O1 1_555 1_555
N1 C1 1_555 1_555
N2 C3 1_555 1_555
N3 C3 1_555 1_555
N4 C1 1_555 1_555
C1 H1 1_555 1_555
C2 N1 1_555 1_555
H2 C2 1_555 1_555
N5 Zn1 1_555 1_555
C3 H3 1_555 1_555
H4 C3 1_555 1_555
C4 N2 1_555 1_555
H5 C4 1_555 1_555
C5 N3 1_555 1_555
H6 C5 1_555 1_555
C6 N4 1_555 1_555
H7 C6 1_555 1_555
C7 N3 1_555 1_555
H8 C7 1_555 1_555
C8 N5 1_555 1_555
H9 C8 1_555 1_555
C9 N2 1_555 1_555
H10 C9 1_555 1_555
N6 C9 1_555 1_555
C10 N1 1_555 1_555
H11 C10 1_555 1_555
H12 C10 1_555 1_555
C11 C4 1_555 1_555
H13 C11 1_555 1_555
O2 Cl1 1_555 1_555
O5 Cl1 1_555 1_555
O6 Cl1 1_555 1_555
Zn1A N6 1_555 1_555
Zn1G N4B 1_555 1_555
Zn1A_2 N6E 1_555 1_555
N1B C10 1_555 1_555
N2E C3E 1_555 1_555
N3E C3E 1_555 1_555
N4B C1B 1_555 1_555
N4E Zn1 1_555 1_555
C1B N1B 1_555 1_555
H1B C1B 1_555 1_555
C2B N1B 1_555 1_555
H2B C2B 1_555 1_555
N5E Zn1 1_555 1_555
C3E H3E 1_555 1_555
H4E C3E 1_555 1_555
C4E N2E 1_555 1_555
H5E C4E 1_555 1_555
C5E N3E 1_555 1_555
H6E C5E 1_555 1_555
C6B N4B 1_555 1_555
H7B C6B 1_555 1_555
C7E N3E 1_555 1_555
H8E C7E 1_555 1_555
C8E N5E 1_555 1_555
H9E C8E 1_555 1_555
C9E N2E 1_555 1_555
H10E C9E 1_555 1_555
N6E C9E 1_555 1_555
N6A Zn1 1_555 1_555
N6D Zn1 1_555 1_555
C11E C4E 1_555 1_555
H13E C11E 1_555 1_555
C2 C6 1_555 1_555
N5 C5 1_555 1_555
C7 C8 1_555 1_555
N6 C11 1_555 1_555
C2B C6B 1_555 1_555
N5E C5E 1_555 1_555
C7E C8E 1_555 1_555
N6E C11E 1_555 1_555

#END
