
#######################################################################
#
#                 Cambridge Crystallographic Data Centre
#                                CCDC 
#
#######################################################################
#
# If this CIF has been generated from an entry in the Cambridge 
# Structural Database, then it will include bibliographic, chemical, 
# crystal, experimental, refinement or atomic coordinate data resulting 
# from the CCDC's data processing and validation procedures.
#
#######################################################################

data_YAVVEX
_symmetry_cell_setting           tetragonal
_symmetry_space_group_name_H-M   'I 41/a c d'
_symmetry_Int_Tables_number      142
_space_group_name_Hall           '-I 4bd 2c'
loop_
_symmetry_equiv_pos_site_id
_symmetry_equiv_pos_as_xyz
1 x,y,z
2 1/4-y,3/4+x,1/4+z
3 1/4+y,1/4-x,3/4+z
4 1/4+y,3/4+x,3/4-z
5 1/4-y,1/4-x,1/4-z
6 1/2+x,1/2+y,1/2+z
7 3/4-y,1/4+x,3/4+z
8 3/4+y,3/4-x,1/4+z
9 3/4+y,1/4+x,1/4-z
10 1/2-x,-y,1/2+z
11 1/2-x,y,-z
12 x,-y,1/2-z
13 -x,1/2-y,z
14 -x,1/2+y,1/2-z
15 1/2+x,1/2-y,-z
16 3/4-y,3/4-x,3/4-z
17 -x,-y,-z
18 3/4+y,1/4-x,3/4-z
19 3/4-y,3/4+x,1/4-z
20 3/4-y,1/4-x,1/4+z
21 3/4+y,3/4+x,3/4+z
22 1/2-x,1/2-y,1/2-z
23 1/4+y,3/4-x,1/4-z
24 1/4-y,1/4+x,3/4-z
25 1/4-y,3/4-x,3/4+z
26 1/2+x,y,1/2-z
27 1/2+x,-y,z
28 -x,y,1/2+z
29 x,1/2+y,-z
30 x,1/2-y,1/2+z
31 1/2-x,1/2+y,z
32 1/4+y,1/4+x,1/4+z
_cell_length_a                   15.9751(10)
_cell_length_b                   15.9751(10)
_cell_length_c                   21.701(3)
_cell_angle_alpha                90
_cell_angle_beta                 90
_cell_angle_gamma                90
_cell_volume                     5538.18
loop_
_atom_site_label
_atom_site_type_symbol
_atom_site_fract_x
_atom_site_fract_y
_atom_site_fract_z
Zn1 Zn 0.5000 0.2500 0.1250
N1 N 0.4609(2) 0.3404(2) 0.06778(16)
N2 N 0.4435(3) 0.4129(2) -0.01607(17)
C1 C 0.4904(3) 0.3552(3) 0.0125(2)
H1 H 0.5372 0.3294 -0.0045
C2 C 0.3933(3) 0.3921(4) 0.0748(3)
H2 H 0.3603 0.3965 0.1099
C3 C 0.3825(4) 0.4353(3) 0.0222(3)
H3 H 0.3402 0.4738 0.0141
C4 C 0.4568(5) 0.4409(4) -0.0810(3)
H4 H 0.4450 0.5003 -0.0840
H5 H 0.5149 0.4323 -0.0921
C5 C 0.4044(13) 0.3964(11) -0.1233(4)
H6 H 0.3776 0.4423 -0.1449
H7 H 0.4455 0.3752 -0.1523
Zn1C Zn 0.5000 0.2500 -0.3750
Zn1C_2 Zn 0.5000 0.2500 0.6250
N1O N 0.4096(2) 0.2891(2) -0.31778(16)
N1R N 0.4096(2) 0.2109(2) 0.18222(16)
N1CA N 0.4609(2) 0.1596(2) 0.56778(16)
N1V N 0.5904(2) 0.2891(2) 0.18222(16)
N1L N 0.5391(2) 0.1596(2) 0.06778(16)
N2O N 0.3371(2) 0.3065(3) -0.23393(17)
N2R N 0.3371(2) 0.1935(3) 0.26607(17)
N2CA N 0.4435(3) 0.0871(2) 0.48393(17)
C1O C 0.3948(3) 0.2596(3) -0.2625(2)
C1R C 0.3948(3) 0.2404(3) 0.2375(2)
C1CA C 0.4904(3) 0.1448(3) 0.5125(2)
H1O H 0.4206 0.2128 -0.2455
H1R H 0.4206 0.2872 0.2545
H1CA H 0.5372 0.1706 0.4955
C2O C 0.3579(4) 0.3567(3) -0.3248(3)
C2R C 0.3579(4) 0.1433(3) 0.1752(3)
C2CA C 0.3933(3) 0.1079(4) 0.5748(3)
H2O H 0.3535 0.3897 -0.3599
H2R H 0.3535 0.1103 0.1401
H2CA H 0.3603 0.1035 0.6099
C3O C 0.3147(3) 0.3675(4) -0.2722(3)
C3R C 0.3147(3) 0.1325(4) 0.2278(3)
C3CA C 0.3825(4) 0.0647(3) 0.5222(3)
H3O H 0.2762 0.4098 -0.2641
H3R H 0.2762 0.0902 0.2359
H3CA H 0.3402 0.0262 0.5141
C4O C 0.3091(4) 0.2932(5) -0.1690(3)
C4R C 0.3091(4) 0.2068(5) 0.3310(3)
C4CA C 0.4568(5) 0.0591(4) 0.4190(3)
H4O H 0.2497 0.3050 -0.1660
H4R H 0.2497 0.1950 0.3340
H4CA H 0.4450 -0.0003 0.4160
H5O H 0.3177 0.2351 -0.1579
H5R H 0.3177 0.2649 0.3421
H5CA H 0.5149 0.0677 0.4079
C5O C 0.3536(11) 0.3456(13) -0.1267(4)
C5R C 0.3536(11) 0.1544(13) 0.3733(4)
C5CA C 0.4044(13) 0.1036(11) 0.3767(4)
H6O H 0.3077 0.3724 -0.1051
H6R H 0.3077 0.1276 0.3949
H6CA H 0.3776 0.0577 0.3551
H7O H 0.3748 0.3045 -0.0977
H7R H 0.3748 0.1955 0.4023
H7CA H 0.4455 0.1248 0.3477
Cl1 Cl 0.7500 0.33844(16) 0.0000
O1 O 0.7545(18) 0.3897(11) 0.0443(5)
O2 O 0.6919(6) 0.2864(9) 0.0274(7)
O1J O 0.7455(18) 0.3897(11) -0.0443(5)
O2J O 0.8081(6) 0.2864(9) -0.0274(7)
loop_
_geom_bond_atom_site_label_1
_geom_bond_atom_site_label_2
_geom_bond_site_symmetry_1
_geom_bond_site_symmetry_2
Zn1 N1 1_555 1_555
N1 C1 1_555 1_555
N2 C1 1_555 1_555
C1 H1 1_555 1_555
C2 N1 1_555 1_555
H2 C2 1_555 1_555
C3 N2 1_555 1_555
H3 C3 1_555 1_555
C4 N2 1_555 1_555
H4 C4 1_555 1_555
H5 C4 1_555 1_555
C5 C4 1_555 1_555
H6 C5 1_555 1_555
H7 C5 1_555 1_555
Cl1 O1 1_555 1_555
O2 Cl1 1_555 1_555
Zn1C N1O 1_555 1_555
Zn1C_2 N1CA 1_555 1_555
N1O C1O 1_555 1_555
N1R Zn1 1_555 1_555
N1CA C1CA 1_555 1_555
N1V Zn1 1_555 1_555
N1L Zn1 1_555 1_555
N2O C1O 1_555 1_555
N2R C1R 1_555 1_555
N2CA C1CA 1_555 1_555
C1O H1O 1_555 1_555
C1R N1R 1_555 1_555
C1CA H1CA 1_555 1_555
H1R C1R 1_555 1_555
C2O N1O 1_555 1_555
C2R N1R 1_555 1_555
C2CA N1CA 1_555 1_555
H2O C2O 1_555 1_555
H2R C2R 1_555 1_555
H2CA C2CA 1_555 1_555
C3O N2O 1_555 1_555
C3R N2R 1_555 1_555
C3CA N2CA 1_555 1_555
H3O C3O 1_555 1_555
H3R C3R 1_555 1_555
H3CA C3CA 1_555 1_555
C4O N2O 1_555 1_555
C4R N2R 1_555 1_555
C4CA N2CA 1_555 1_555
H4O C4O 1_555 1_555
H4R C4R 1_555 1_555
H4CA C4CA 1_555 1_555
H5O C4O 1_555 1_555
H5R C4R 1_555 1_555
H5CA C4CA 1_555 1_555
C5O C5 1_555 1_555
C5R C4R 1_555 1_555
C5CA C4CA 1_555 1_555
H6O C5O 1_555 1_555
H6R C5R 1_555 1_555
H6CA C5CA 1_555 1_555
H7O C5O 1_555 1_555
H7R C5R 1_555 1_555
H7CA C5CA 1_555 1_555
O1J Cl1 1_555 1_555
O2J Cl1 1_555 1_555
C2 C3 1_555 1_555
C2O C3O 1_555 1_555
C2R C3R 1_555 1_555
C2CA C3CA 1_555 1_555
C4O C5O 1_555 1_555
C5R C5CA 1_555 1_555

#END
