
#######################################################################
#
#                 Cambridge Crystallographic Data Centre
#                                CCDC 
#
#######################################################################
#
# If this CIF has been generated from an entry in the Cambridge 
# Structural Database, then it will include bibliographic, chemical, 
# crystal, experimental, refinement or atomic coordinate data resulting 
# from the CCDC's data processing and validation procedures.
#
#######################################################################

data_YAVVAT
_symmetry_cell_setting           monoclinic
_symmetry_space_group_name_H-M   'C 2/m'
_symmetry_Int_Tables_number      12
_space_group_name_Hall           '-C 2y'
loop_
_symmetry_equiv_pos_site_id
_symmetry_equiv_pos_as_xyz
1 x,y,z
2 1/2+x,1/2+y,z
3 -x,y,-z
4 1/2-x,1/2+y,-z
5 -x,-y,-z
6 1/2-x,1/2-y,-z
7 x,-y,z
8 1/2+x,1/2-y,z
_cell_length_a                   16.347(6)
_cell_length_b                   9.346(3)
_cell_length_c                   7.156(2)
_cell_angle_alpha                90
_cell_angle_beta                 111.551(4)
_cell_angle_gamma                90
_cell_volume                     1016.86
loop_
_atom_site_label
_atom_site_type_symbol
_atom_site_fract_x
_atom_site_fract_y
_atom_site_fract_z
Cd1 Cd -0.5000 -0.5000 0.5000
N1 N -0.41560(12) -0.31967(19) 0.4287(3)
N2 N -0.33551(12) -0.12844(18) 0.4460(3)
N3 N -0.4097(2) -0.5000 0.8382(4)
N4 N -0.33331(19) -0.5000 0.9065(4)
N5 N -0.2572(2) -0.5000 0.9824(6)
C1 C -0.40406(15) -0.3019(3) 0.2497(3)
H1 H -0.4270 -0.3617 0.1388
C2 C -0.35473(16) -0.1851(3) 0.2581(3)
H2 H -0.3372 -0.1500 0.1570
C3 C -0.37333(15) -0.2134(2) 0.5427(3)
H3 H -0.3699 -0.1986 0.6739
C4 C -0.2847(2) 0.0000 0.5235(5)
H4 H -0.2331 0.0000 0.4870
H5 H -0.2648 0.0000 0.6690
Cd1_2 Cd -0.5000 0.5000 0.5000
Cd1_3 Cd -0.5000 -1.5000 0.5000
N1F N -0.41560(12) 0.31967(19) 0.4287(3)
N1F_2 N -0.41560(12) -0.68033(19) 0.4287(3)
N1_2 N -0.41560(12) -1.31967(19) 0.4287(3)
N1D N -0.58440(12) -0.68033(19) 0.5713(3)
N1B N -0.58440(12) -0.31967(19) 0.5713(3)
N2F N -0.33551(12) 0.12844(18) 0.4460(3)
N2F_2 N -0.33551(12) -0.87156(18) 0.4460(3)
N2_2 N -0.33551(12) -1.12844(18) 0.4460(3)
N3D N -0.5903(2) -0.5000 0.1618(4)
N4D N -0.66669(19) -0.5000 0.0935(4)
N5D N -0.7428(2) -0.5000 0.0176(6)
C1F C -0.40406(15) 0.3019(3) 0.2497(3)
C1F_2 C -0.40406(15) -0.6981(3) 0.2497(3)
C1_2 C -0.40406(15) -1.3019(3) 0.2497(3)
H1F H -0.4270 0.3617 0.1388
H1F_2 H -0.4270 -0.6383 0.1388
H1_2 H -0.4270 -1.3617 0.1388
C2F C -0.35473(16) 0.1851(3) 0.2581(3)
C2F_2 C -0.35473(16) -0.8149(3) 0.2581(3)
C2_2 C -0.35473(16) -1.1851(3) 0.2581(3)
H2F H -0.3372 0.1500 0.1570
H2F_2 H -0.3372 -0.8500 0.1570
H2_2 H -0.3372 -1.1500 0.1570
C3F C -0.37333(15) 0.2134(2) 0.5427(3)
C3F_2 C -0.37333(15) -0.7866(2) 0.5427(3)
C3_2 C -0.37333(15) -1.2134(2) 0.5427(3)
H3F H -0.3699 0.1986 0.6739
H3F_2 H -0.3699 -0.8014 0.6739
H3_2 H -0.3699 -1.1986 0.6739
C4_2 C -0.2847(2) -1.0000 0.5235(5)
H4_2 H -0.2331 -1.0000 0.4870
H5_2 H -0.2648 -1.0000 0.6690
loop_
_geom_bond_atom_site_label_1
_geom_bond_atom_site_label_2
_geom_bond_site_symmetry_1
_geom_bond_site_symmetry_2
Cd1 N1 1_555 1_555
N1 C1 1_555 1_555
N2 C2 1_555 1_555
N3 Cd1 1_555 1_555
N4 N3 1_555 1_555
N5 N4 1_555 1_555
C1 H1 1_555 1_555
C2 C1 1_555 1_555
H2 C2 1_555 1_555
C3 N1 1_555 1_555
H3 C3 1_555 1_555
C4 N2 1_555 1_555
H4 C4 1_555 1_555
H5 C4 1_555 1_555
Cd1_2 N1F 1_555 1_555
Cd1_3 N1_2 1_555 1_555
N1F C1F 1_555 1_555
N1F_2 Cd1 1_555 1_555
N1_2 C1_2 1_555 1_555
N1D Cd1 1_555 1_555
N1B Cd1 1_555 1_555
N2F C4 1_555 1_555
N2F_2 C2F_2 1_555 1_555
N2_2 C2_2 1_555 1_555
N3D Cd1 1_555 1_555
N4D N3D 1_555 1_555
N5D N4D 1_555 1_555
C1F H1F 1_555 1_555
C1F_2 N1F_2 1_555 1_555
C1_2 H1_2 1_555 1_555
H1F_2 C1F_2 1_555 1_555
C2F N2F 1_555 1_555
C2F_2 C1F_2 1_555 1_555
C2_2 C1_2 1_555 1_555
H2F C2F 1_555 1_555
H2F_2 C2F_2 1_555 1_555
H2_2 C2_2 1_555 1_555
C3F N1F 1_555 1_555
C3F_2 N1F_2 1_555 1_555
C3_2 N1_2 1_555 1_555
H3F C3F 1_555 1_555
H3F_2 C3F_2 1_555 1_555
H3_2 C3_2 1_555 1_555
C4_2 N2F_2 1_555 1_555
H4_2 C4_2 1_555 1_555
H5_2 C4_2 1_555 1_555
N2 C3 1_555 1_555
N2F C3F 1_555 1_555
N2F_2 C3F_2 1_555 1_555
N2_2 C3_2 1_555 1_555
N2_2 C4_2 1_555 1_555
C1F C2F 1_555 1_555

#END
