
#######################################################################
#
#                 Cambridge Crystallographic Data Centre
#                                CCDC 
#
#######################################################################
#
# If this CIF has been generated from an entry in the Cambridge 
# Structural Database, then it will include bibliographic, chemical, 
# crystal, experimental, refinement or atomic coordinate data resulting 
# from the CCDC's data processing and validation procedures.
#
#######################################################################

data_YAVVIB
_symmetry_cell_setting           triclinic
_symmetry_space_group_name_H-M   'P -1'
_symmetry_Int_Tables_number      2
_space_group_name_Hall           '-P 1'
loop_
_symmetry_equiv_pos_site_id
_symmetry_equiv_pos_as_xyz
1 x,y,z
2 -x,-y,-z
_cell_length_a                   11.073(4)
_cell_length_b                   12.632(4)
_cell_length_c                   13.262(4)
_cell_angle_alpha                77.177(6)
_cell_angle_beta                 75.261(6)
_cell_angle_gamma                67.690(5)
_cell_volume                     1643.31
loop_
_atom_site_label
_atom_site_type_symbol
_atom_site_fract_x
_atom_site_fract_y
_atom_site_fract_z
Mn1 Mn 1.0000 0.0000 0.0000
S1 S 0.82264(17) 0.55163(11) 0.10563(12)
S2 S 0.62455(14) 0.82667(12) 0.11148(12)
O1 O 0.9301(4) -0.0619(3) 0.1622(3)
H1 H 0.9670 -0.1242 0.2009
H2 H 0.8536 -0.0229 0.1946
N1 N 0.9270(4) 0.1847(3) 0.0431(3)
N2 N 0.2113(4) 0.9426(3) 0.0353(3)
C1 C 0.8720(6) 0.2743(4) -0.0246(4)
H3 H 0.8564 0.2590 -0.0846
C2 C 0.8364(6) 0.3883(5) -0.0125(4)
H4 H 0.7992 0.4474 -0.0633
C3 C 0.8575(5) 0.4131(4) 0.0777(4)
C4 C 0.9098(5) 0.3212(4) 0.1502(4)
H5 H 0.9227 0.3340 0.2124
C5 C 0.9435(5) 0.2091(4) 0.1302(4)
H6 H 0.9793 0.1481 0.1801
C6 C 0.7638(6) 0.6460(4) -0.0102(4)
H7 H 0.8278 0.6223 -0.0734
H8 H 0.6799 0.6416 -0.0150
C7 C 0.7461(5) 0.7684(4) -0.0005(5)
H9 H 0.7202 0.8182 -0.0642
H10 H 0.8312 0.7707 0.0039
C8 C 0.4705(5) 0.8665(4) 0.0763(4)
C9 C 0.3594(5) 0.9107(4) 0.1516(4)
H11 H 0.3694 0.9163 0.2175
C10 C 0.2353(5) 0.9461(4) 0.1288(4)
H12 H 0.1627 0.9744 0.1812
C11 C 0.3194(6) 0.8999(5) -0.0358(4)
H13 H 0.3066 0.8965 -0.1015
C12 C 0.4476(5) 0.8605(4) -0.0205(4)
H14 H 0.5182 0.8304 -0.0737
Mn1_2 Mn 0.0000 1.0000 0.0000
Mn1_3 Mn 2.0000 -1.0000 0.0000
S1A S 1.17736(17) -0.55163(11) -0.10563(12)
S2A S 1.37545(14) -0.82667(12) -0.11148(12)
O1A O 1.0699(4) 0.0619(3) -0.1622(3)
H1A H 1.0330 0.1242 -0.2009
H2A H 1.1464 0.0229 -0.1946
N1A N 1.0730(4) -0.1847(3) -0.0431(3)
N2A N 1.7887(4) -0.9426(3) -0.0353(3)
N2_2 N 1.2113(4) -0.0574(3) 0.0353(3)
N2A_2 N 0.7887(4) 0.0574(3) -0.0353(3)
C1A C 1.1280(6) -0.2743(4) 0.0246(4)
H3A H 1.1436 -0.2590 0.0846
C2A C 1.1636(6) -0.3883(5) 0.0125(4)
H4A H 1.2008 -0.4474 0.0633
C3A C 1.1425(5) -0.4131(4) -0.0777(4)
C4A C 1.0902(5) -0.3212(4) -0.1502(4)
H5A H 1.0773 -0.3340 -0.2124
C5A C 1.0565(5) -0.2091(4) -0.1302(4)
H6A H 1.0207 -0.1481 -0.1801
C6A C 1.2362(6) -0.6460(4) 0.0102(4)
H7A H 1.1722 -0.6223 0.0734
H8A H 1.3201 -0.6416 0.0150
C7A C 1.2539(5) -0.7684(4) 0.0005(5)
H9A H 1.2798 -0.8182 0.0642
H10A H 1.1688 -0.7707 -0.0039
C8A C 1.5295(5) -0.8665(4) -0.0763(4)
C9A C 1.6406(5) -0.9107(4) -0.1516(4)
H11A H 1.6306 -0.9163 -0.2175
C10A C 1.7647(5) -0.9461(4) -0.1288(4)
H12A H 1.8373 -0.9744 -0.1812
C11A C 1.6806(6) -0.8999(5) 0.0358(4)
H13A H 1.6934 -0.8965 0.1015
C12A C 1.5524(5) -0.8605(4) 0.0205(4)
H14A H 1.4818 -0.8304 0.0737
S3 S 0.48016(17) 0.21349(16) 0.60421(13)
S4 S 0.2288(2) 0.47308(14) 0.55637(14)
N3 N 0.7356(5) 0.0558(5) 0.3111(4)
N4 N 0.0397(6) 0.7424(5) 0.2996(5)
C13 C 0.6065(6) 0.0732(5) 0.3337(5)
H15 H 0.5708 0.0522 0.2881
C14 C 0.5213(6) 0.1209(5) 0.4211(4)
H16 H 0.4314 0.1310 0.4332
C15 C 0.5707(6) 0.1528(5) 0.4894(4)
C16 C 0.7081(7) 0.1317(6) 0.4688(5)
H17 H 0.7465 0.1499 0.5143
C17 C 0.7841(7) 0.0839(6) 0.3810(6)
H18 H 0.8751 0.0698 0.3685
C18 C 0.3103(6) 0.2376(5) 0.6011(4)
H19 H 0.3057 0.1673 0.5868
H20 H 0.2575 0.2516 0.6705
C19 C 0.2478(6) 0.3356(5) 0.5222(4)
H21 H 0.1614 0.3346 0.5200
H22 H 0.3029 0.3262 0.4528
C20 C 0.1537(6) 0.5707(5) 0.4565(5)
C21 C 0.1266(8) 0.6880(6) 0.4552(6)
H23 H 0.1460 0.7124 0.5085
C22 C 0.0723(9) 0.7668(6) 0.3771(6)
H24 H 0.0572 0.8440 0.3788
C23 C 0.0600(6) 0.6310(5) 0.3004(5)
H25 H 0.0345 0.6112 0.2476
C24 C 0.1168(6) 0.5436(5) 0.3756(4)
H26 H 0.1302 0.4672 0.3720
Cl1 Cl 0.17991(18) 0.17042(15) 0.33336(13)
O2 O 0.1042(7) 0.1069(6) 0.3247(5)
O3 O 0.3041(6) 0.1344(7) 0.2632(5)
O4 O 0.2037(5) 0.1479(5) 0.4377(4)
O5 O 0.1137(8) 0.2915(5) 0.3092(6)
C25 C 0.4926(13) 0.4640(12) 0.2057(10)
H27 H 0.5768 0.4397 0.1558
Cl2 Cl 0.5414(7) 0.4467(7) 0.3238(5)
Cl3 Cl 0.4248(5) 0.5980(4) 0.1625(6)
Cl4 Cl 0.4238(8) 0.3708(4) 0.2063(4)
loop_
_geom_bond_atom_site_label_1
_geom_bond_atom_site_label_2
_geom_bond_site_symmetry_1
_geom_bond_site_symmetry_2
Mn1 O1 1_555 1_555
S1 C3 1_555 1_555
S2 C7 1_555 1_555
S3 C15 1_555 1_555
S4 C19 1_555 1_555
O1 H1 1_555 1_555
H2 O1 1_555 1_555
N1 Mn1 1_555 1_555
N2 C10 1_555 1_555
N3 C13 1_555 1_555
N4 C22 1_555 1_555
C1 N1 1_555 1_555
H3 C1 1_555 1_555
C2 C1 1_555 1_555
H4 C2 1_555 1_555
C3 C2 1_555 1_555
C4 C3 1_555 1_555
H5 C4 1_555 1_555
C5 N1 1_555 1_555
H6 C5 1_555 1_555
C6 S1 1_555 1_555
H7 C6 1_555 1_555
H8 C6 1_555 1_555
C7 C6 1_555 1_555
H9 C7 1_555 1_555
H10 C7 1_555 1_555
C8 S2 1_555 1_555
C9 C8 1_555 1_555
H11 C9 1_555 1_555
C10 C9 1_555 1_555
H12 C10 1_555 1_555
C11 N2 1_555 1_555
H13 C11 1_555 1_555
C12 C8 1_555 1_555
H14 C12 1_555 1_555
C13 H15 1_555 1_555
C14 C13 1_555 1_555
H16 C14 1_555 1_555
C15 C14 1_555 1_555
C16 C15 1_555 1_555
H17 C16 1_555 1_555
C17 N3 1_555 1_555
H18 C17 1_555 1_555
C18 S3 1_555 1_555
H19 C18 1_555 1_555
H20 C18 1_555 1_555
C19 C18 1_555 1_555
H21 C19 1_555 1_555
H22 C19 1_555 1_555
C20 S4 1_555 1_555
C21 C20 1_555 1_555
H23 C21 1_555 1_555
C22 C21 1_555 1_555
H24 C22 1_555 1_555
C23 N4 1_555 1_555
H25 C23 1_555 1_555
C24 C20 1_555 1_555
H26 C24 1_555 1_555
Cl1 O2 1_555 1_555
O3 Cl1 1_555 1_555
O4 Cl1 1_555 1_555
O5 Cl1 1_555 1_555
C25 H27 1_555 1_555
Cl2 C25 1_555 1_555
Cl3 C25 1_555 1_555
Cl4 C25 1_555 1_555
Mn1_2 N2 1_555 1_555
Mn1_3 N2A 1_555 1_555
S1A C3A 1_555 1_555
S2A C7A 1_555 1_555
O1A Mn1 1_555 1_555
H1A O1A 1_555 1_555
H2A O1A 1_555 1_555
N1A Mn1 1_555 1_555
N2A C10A 1_555 1_555
N2_2 Mn1 1_555 1_555
N2A_2 Mn1 1_555 1_555
C1A N1A 1_555 1_555
H3A C1A 1_555 1_555
C2A C1A 1_555 1_555
H4A C2A 1_555 1_555
C3A C2A 1_555 1_555
C4A C3A 1_555 1_555
H5A C4A 1_555 1_555
C5A N1A 1_555 1_555
H6A C5A 1_555 1_555
C6A S1A 1_555 1_555
H7A C6A 1_555 1_555
H8A C6A 1_555 1_555
C7A C6A 1_555 1_555
H9A C7A 1_555 1_555
H10A C7A 1_555 1_555
C8A S2A 1_555 1_555
C9A C8A 1_555 1_555
H11A C9A 1_555 1_555
C10A C9A 1_555 1_555
H12A C10A 1_555 1_555
C11A N2A 1_555 1_555
H13A C11A 1_555 1_555
C12A C8A 1_555 1_555
H14A C12A 1_555 1_555
C4 C5 1_555 1_555
C11 C12 1_555 1_555
C16 C17 1_555 1_555
C23 C24 1_555 1_555
C4A C5A 1_555 1_555
C11A C12A 1_555 1_555

#END
