
#######################################################################
#
#                 Cambridge Crystallographic Data Centre
#                                CCDC 
#
#######################################################################
#
# If this CIF has been generated from an entry in the Cambridge 
# Structural Database, then it will include bibliographic, chemical, 
# crystal, experimental, refinement or atomic coordinate data resulting 
# from the CCDC's data processing and validation procedures.
#
#######################################################################

data_YAVXEY
_symmetry_cell_setting           triclinic
_symmetry_space_group_name_H-M   'P -1'
_symmetry_Int_Tables_number      2
_space_group_name_Hall           '-P 1'
loop_
_symmetry_equiv_pos_site_id
_symmetry_equiv_pos_as_xyz
1 x,y,z
2 -x,-y,-z
_cell_length_a                   9.856(6)
_cell_length_b                   19.020(15)
_cell_length_c                   24.712(16)
_cell_angle_alpha                105.21(7)
_cell_angle_beta                 97.96(5)
_cell_angle_gamma                100.59(8)
_cell_volume                     4308.17
loop_
_atom_site_label
_atom_site_type_symbol
_atom_site_fract_x
_atom_site_fract_y
_atom_site_fract_z
Eu1 Eu 0.0288(1) 0.1333(1) 0.0627(1)
Eu2 Eu 0.0751(1) 0.3703(1) 0.1867(1)
Eu3 Eu 0.2027(1) 0.6310(1) 0.3181(1)
Eu4 Eu 0.3882(1) 0.8749(1) 0.4274(1)
Se1 Se -0.0898(2) -0.0336(1) 0.0477(1)
C1 C -0.160(2) -0.068(1) 0.108(1)
C2 C -0.159(2) -0.140(1) 0.108(1)
C3 C -0.215(2) -0.166(1) 0.150(1)
C4 C -0.271(2) -0.119(1) 0.190(1)
C5 C -0.270(2) -0.046(1) 0.188(1)
C6 C -0.216(2) -0.021(1) 0.147(1)
Se2 Se -0.0706(2) 0.2056(1) 0.1755(1)
C7 C 0.041(2) 0.174(1) 0.230(1)
C8 C 0.088(2) 0.111(1) 0.216(1)
C9 C 0.173(2) 0.089(1) 0.255(1)
C10 C 0.204(2) 0.134(1) 0.311(1)
C11 C 0.152(2) 0.195(1) 0.328(1)
C12 C 0.073(2) 0.216(1) 0.288(1)
Se3 Se 0.1703(2) 0.2960(1) 0.0735(1)
C13 C 0.107(2) 0.328(1) 0.008(1)
C14 C 0.190(2) 0.327(1) -0.032(1)
C15 C 0.152(2) 0.353(1) -0.080(1)
C16 C 0.030(2) 0.378(1) -0.084(1)
C17 C -0.049(2) 0.381(1) -0.042(1)
C18 C -0.012(2) 0.356(1) 0.003(1)
Se4 Se -0.0072(2) 0.4762(1) 0.2930(1)
C19 C 0.067(2) 0.433(1) 0.349(1)
C20 C 0.206(2) 0.432(1) 0.360(1)
C21 C 0.256(2) 0.396(1) 0.399(1)
C22 C 0.165(2) 0.366(1) 0.429(1)
C23 C 0.024(2) 0.367(1) 0.419(1)
C24 C -0.024(2) 0.402(1) 0.380(1)
Se5 Se 0.1931(2) 0.5349(1) 0.1963(1)
C25 C 0.300(2) 0.564(1) 0.145(1)
C26 C 0.304(2) 0.512(1) 0.093(1)
C27 C 0.384(2) 0.534(1) 0.054(1)
C28 C 0.452(2) 0.606(1) 0.067(1)
C29 C 0.450(2) 0.659(1) 0.118(1)
C30 C 0.373(2) 0.637(1) 0.155(1)
Se6 Se 0.1648(2) 0.7375(1) 0.4309(1)
C31 C 0.240(2) 0.685(1) 0.480(1)
C32 C 0.181(2) 0.612(1) 0.472(1)
C33 C 0.236(2) 0.574(1) 0.508(1)
C34 C 0.350(2) 0.610(1) 0.553(1)
C35 C 0.411(2) 0.684(1) 0.560(1)
C36 C 0.361(2) 0.722(1) 0.525(1)
Se7 Se 0.4092(2) 0.7716(1) 0.3106(1)
C37 C 0.331(2) 0.819(1) 0.258(1)
C38 C 0.403(2) 0.889(1) 0.258(1)
C39 C 0.346(2) 0.924(1) 0.221(1)
C40 C 0.220(2) 0.889(1) 0.183(1)
C41 C 0.156(2) 0.820(1) 0.182(1)
C42 C 0.210(2) 0.783(1) 0.221(1)
Se8 Se 0.5984(2) 1.0249(1) 0.4499(1)
C43 C 0.638(2) 1.079(1) 0.398(1)
C44 C 0.772(2) 1.121(1) 0.402(1)
C45 C 0.804(3) 1.161(1) 0.366(1)
C46 C 0.707(2) 1.161(1) 0.321(1)
C47 C 0.571(2) 1.116(1) 0.314(1)
C48 C 0.536(2) 1.078(1) 0.351(1)
N1 N -0.220(2) 0.138(1) 0.010(1)
C49 C -0.342(2) 0.107(1) 0.022(1)
C50 C -0.468(2) 0.116(1) -0.005(1)
C51 C -0.472(2) 0.156(1) -0.042(1)
C52 C -0.345(2) 0.188(1) -0.056(1)
C53 C -0.227(2) 0.177(1) -0.027(1)
N2 N 0.278(2) 0.118(1) 0.111(1)
C54 C 0.378(2) 0.177(1) 0.141(1)
C55 C 0.509(2) 0.172(1) 0.165(1)
C56 C 0.537(2) 0.103(1) 0.160(1)
C57 C 0.439(2) 0.045(1) 0.129(1)
C58 C 0.307(2) 0.051(1) 0.104(1)
N3 N -0.174(2) 0.372(1) 0.127(1)
C59 C -0.284(2) 0.313(1) 0.110(1)
C60 C -0.416(2) 0.319(1) 0.086(1)
C61 C -0.433(2) 0.386(1) 0.079(1)
C62 C -0.319(2) 0.447(1) 0.096(1)
C63 C -0.192(2) 0.437(1) 0.119(1)
N4 N 0.340(2) 0.363(1) 0.229(1)
C64 C 0.372(2) 0.324(1) 0.264(1)
C65 C 0.506(2) 0.321(1) 0.283(1)
C66 C 0.614(2) 0.364(1) 0.267(1)
C67 C 0.585(2) 0.402(1) 0.229(1)
C68 C 0.444(2) 0.404(1) 0.212(1)
N5 N -0.030(2) 0.670(1) 0.276(1)
C69 C -0.061(2) 0.732(1) 0.303(1)
C70 C -0.189(2) 0.752(1) 0.290(1)
C71 C -0.288(2) 0.700(1) 0.244(1)
C72 C -0.260(2) 0.638(1) 0.218(1)
C73 C -0.129(2) 0.624(1) 0.234(1)
N6 N 0.444(2) 0.600(1) 0.359(1)
C74 C 0.538(2) 0.590(1) 0.325(1)
C75 C 0.664(2) 0.571(1) 0.337(1)
C76 C 0.694(2) 0.561(1) 0.389(1)
C77 C 0.605(2) 0.570(1) 0.428(1)
C78 C 0.481(2) 0.590(1) 0.408(1)
N7 N 0.155(2) 0.919(1) 0.391(1)
C79 C 0.062(2) 0.926(1) 0.426(1)
C80 C -0.063(2) 0.945(1) 0.412(1)
C81 C -0.093(2) 0.959(1) 0.361(1)
C82 C 0.001(2) 0.955(1) 0.325(1)
C83 C 0.128(2) 0.934(1) 0.341(1)
N8 N 0.620(2) 0.834(1) 0.467(1)
C84 C 0.671(2) 0.781(1) 0.433(1)
C85 C 0.793(2) 0.764(1) 0.450(1)
C86 C 0.872(2) 0.803(1) 0.504(1)
C87 C 0.822(2) 0.854(1) 0.540(1)
C88 C 0.696(2) 0.872(1) 0.519(1)
H1 H -0.120 -0.171 0.081
H2 H -0.216 -0.215 0.152
H3 H -0.310 -0.136 0.219
H4 H -0.308 -0.014 0.215
H5 H -0.217 0.028 0.145
H6 H 0.063 0.080 0.178
H7 H 0.208 0.045 0.244
H8 H 0.264 0.121 0.339
H9 H 0.170 0.224 0.367
H10 H 0.039 0.260 0.300
H11 H 0.273 0.309 -0.027
H12 H 0.209 0.352 -0.109
H13 H 0.000 0.394 -0.116
H14 H -0.130 0.401 -0.045
H15 H -0.068 0.358 0.032
H16 H 0.270 0.456 0.342
H17 H 0.352 0.392 0.405
H18 H 0.199 0.345 0.458
H19 H -0.039 0.344 0.438
H20 H -0.119 0.405 0.374
H21 H 0.275 0.473 0.061
H22 H 0.346 0.482 0.037
H23 H 0.502 0.622 0.041
H24 H 0.502 0.710 0.127
H25 H 0.369 0.673 0.190
H26 H 0.102 0.587 0.442
H27 H 0.195 0.523 0.502
H28 H 0.385 0.584 0.578
H29 H 0.489 0.710 0.591
H30 H 0.406 0.773 0.530
H31 H 0.490 0.913 0.283
H32 H 0.395 0.972 0.221
H33 H 0.180 0.913 0.158
H34 H 0.072 0.795 0.154
H35 H 0.162 0.734 0.221
H36 H 0.845 1.122 0.432
H37 H 0.897 1.190 0.371
H38 H 0.729 1.190 0.296
H39 H 0.503 1.113 0.281
H40 H 0.442 1.051 0.346
H41 H -0.342 0.079 0.048
H42 H -0.553 0.094 0.004
H43 H -0.559 0.163 -0.059
H44 H -0.343 0.215 -0.084
H45 H -0.140 0.199 -0.035
H46 H 0.359 0.226 0.145
H47 H 0.579 0.216 0.186
H48 H 0.624 0.098 0.178
H49 H 0.458 -0.004 0.122
H50 H 0.237 0.007 0.083
H51 H -0.271 0.267 0.115
H52 H -0.494 0.276 0.075
H53 H -0.523 0.390 0.063
H54 H -0.329 0.494 0.090
H55 H -0.113 0.479 0.131
H56 H 0.298 0.298 0.276
H57 H 0.525 0.291 0.307
H58 H 0.709 0.366 0.282
H59 H 0.658 0.427 0.215
H60 H 0.422 0.434 0.188
H61 H 0.009 0.766 0.334
H62 H -0.208 0.798 0.311
H63 H -0.375 0.711 0.231
H64 H -0.328 0.601 0.187
H65 H -0.110 0.578 0.214
H66 H 0.515 0.597 0.288
H67 H 0.726 0.566 0.311
H68 H 0.779 0.546 0.400
H69 H 0.626 0.564 0.465
H70 H 0.417 0.596 0.433
H71 H 0.084 0.917 0.462
H72 H -0.127 0.948 0.437
H73 H -0.179 0.972 0.350
H74 H -0.018 0.966 0.290
H75 H 0.193 0.931 0.316
H76 H 0.619 0.756 0.395
H77 H 0.824 0.725 0.426
H78 H 0.961 0.793 0.515
H79 H 0.872 0.879 0.578
H80 H 0.664 0.911 0.543
Se1A Se 0.0898(2) 0.0336(1) -0.0477(1)
Se8A Se 0.4016(2) 0.9751(1) 0.5501(1)
Eu1A Eu -0.0288(1) -0.1333(1) -0.0627(1)
Eu4A Eu 0.6118(1) 1.1251(1) 0.5726(1)
loop_
_geom_bond_atom_site_label_1
_geom_bond_atom_site_label_2
_geom_bond_site_symmetry_1
_geom_bond_site_symmetry_2
Eu1 Se1 1_555 1_555
Eu2 Se2 1_555 1_555
Eu3 Se4 1_555 1_555
Eu4 Se6 1_555 1_555
Se1 C1 1_555 1_555
C1 C2 1_555 1_555
C2 C3 1_555 1_555
C3 C4 1_555 1_555
C4 C5 1_555 1_555
C5 C6 1_555 1_555
C6 C1 1_555 1_555
Se2 Eu1 1_555 1_555
C7 Se2 1_555 1_555
C8 C7 1_555 1_555
C9 C8 1_555 1_555
C10 C9 1_555 1_555
C11 C10 1_555 1_555
C12 C7 1_555 1_555
Se3 Eu1 1_555 1_555
C13 Se3 1_555 1_555
C14 C13 1_555 1_555
C15 C14 1_555 1_555
C16 C15 1_555 1_555
C17 C16 1_555 1_555
C18 C13 1_555 1_555
Se4 Eu2 1_555 1_555
C19 Se4 1_555 1_555
C20 C19 1_555 1_555
C21 C20 1_555 1_555
C22 C21 1_555 1_555
C23 C22 1_555 1_555
C24 C19 1_555 1_555
Se5 Eu2 1_555 1_555
C25 Se5 1_555 1_555
C26 C25 1_555 1_555
C27 C26 1_555 1_555
C28 C27 1_555 1_555
C29 C28 1_555 1_555
C30 C25 1_555 1_555
Se6 Eu3 1_555 1_555
C31 Se6 1_555 1_555
C32 C31 1_555 1_555
C33 C32 1_555 1_555
C34 C33 1_555 1_555
C35 C34 1_555 1_555
C36 C31 1_555 1_555
Se7 Eu3 1_555 1_555
C37 Se7 1_555 1_555
C38 C37 1_555 1_555
C39 C38 1_555 1_555
C40 C39 1_555 1_555
C41 C40 1_555 1_555
C42 C37 1_555 1_555
Se8 Eu4 1_555 1_555
C43 Se8 1_555 1_555
C44 C43 1_555 1_555
C45 C44 1_555 1_555
C46 C45 1_555 1_555
C47 C46 1_555 1_555
C48 C43 1_555 1_555
N1 Eu1 1_555 1_555
C49 N1 1_555 1_555
C50 C49 1_555 1_555
C51 C50 1_555 1_555
C52 C51 1_555 1_555
C53 N1 1_555 1_555
N2 Eu1 1_555 1_555
C54 N2 1_555 1_555
C55 C54 1_555 1_555
C56 C55 1_555 1_555
C57 C56 1_555 1_555
C58 N2 1_555 1_555
N3 Eu2 1_555 1_555
C59 N3 1_555 1_555
C60 C59 1_555 1_555
C61 C60 1_555 1_555
C62 C61 1_555 1_555
C63 N3 1_555 1_555
N4 Eu2 1_555 1_555
C64 N4 1_555 1_555
C65 C64 1_555 1_555
C66 C65 1_555 1_555
C67 C66 1_555 1_555
C68 N4 1_555 1_555
N5 Eu3 1_555 1_555
C69 N5 1_555 1_555
C70 C69 1_555 1_555
C71 C70 1_555 1_555
C72 C71 1_555 1_555
C73 N5 1_555 1_555
N6 Eu3 1_555 1_555
C74 N6 1_555 1_555
C75 C74 1_555 1_555
C76 C75 1_555 1_555
C77 C76 1_555 1_555
C78 N6 1_555 1_555
N7 Eu4 1_555 1_555
C79 N7 1_555 1_555
C80 C79 1_555 1_555
C81 C80 1_555 1_555
C82 C81 1_555 1_555
C83 N7 1_555 1_555
N8 Eu4 1_555 1_555
C84 N8 1_555 1_555
C85 C84 1_555 1_555
C86 C85 1_555 1_555
C87 C86 1_555 1_555
C88 N8 1_555 1_555
H1 C2 1_555 1_555
H2 C3 1_555 1_555
H3 C4 1_555 1_555
H4 C5 1_555 1_555
H5 C6 1_555 1_555
H6 C8 1_555 1_555
H7 C9 1_555 1_555
H8 C10 1_555 1_555
H9 C11 1_555 1_555
H10 C12 1_555 1_555
H11 C14 1_555 1_555
H12 C15 1_555 1_555
H13 C16 1_555 1_555
H14 C17 1_555 1_555
H15 C18 1_555 1_555
H16 C20 1_555 1_555
H17 C21 1_555 1_555
H18 C22 1_555 1_555
H19 C23 1_555 1_555
H20 C24 1_555 1_555
H21 C26 1_555 1_555
H22 C27 1_555 1_555
H23 C28 1_555 1_555
H24 C29 1_555 1_555
H25 C30 1_555 1_555
H26 C32 1_555 1_555
H27 C33 1_555 1_555
H28 C34 1_555 1_555
H29 C35 1_555 1_555
H30 C36 1_555 1_555
H31 C38 1_555 1_555
H32 C39 1_555 1_555
H33 C40 1_555 1_555
H34 C41 1_555 1_555
H35 C42 1_555 1_555
H36 C44 1_555 1_555
H37 C45 1_555 1_555
H38 C46 1_555 1_555
H39 C47 1_555 1_555
H40 C48 1_555 1_555
H41 C49 1_555 1_555
H42 C50 1_555 1_555
H43 C51 1_555 1_555
H44 C52 1_555 1_555
H45 C53 1_555 1_555
H46 C54 1_555 1_555
H47 C55 1_555 1_555
H48 C56 1_555 1_555
H49 C57 1_555 1_555
H50 C58 1_555 1_555
H51 C59 1_555 1_555
H52 C60 1_555 1_555
H53 C61 1_555 1_555
H54 C62 1_555 1_555
H55 C63 1_555 1_555
H56 C64 1_555 1_555
H57 C65 1_555 1_555
H58 C66 1_555 1_555
H59 C67 1_555 1_555
H60 C68 1_555 1_555
H61 C69 1_555 1_555
H62 C70 1_555 1_555
H63 C71 1_555 1_555
H64 C72 1_555 1_555
H65 C73 1_555 1_555
H66 C74 1_555 1_555
H67 C75 1_555 1_555
H68 C76 1_555 1_555
H69 C77 1_555 1_555
H70 C78 1_555 1_555
H71 C79 1_555 1_555
H72 C80 1_555 1_555
H73 C81 1_555 1_555
H74 C82 1_555 1_555
H75 C83 1_555 1_555
H76 C84 1_555 1_555
H77 C85 1_555 1_555
H78 C86 1_555 1_555
H79 C87 1_555 1_555
H80 C88 1_555 1_555
Se1A Eu1 1_555 1_555
Se8A Eu4 1_555 1_555
Eu1A Se1 1_555 1_555
Eu4A Se8 1_555 1_555
Eu2 Se3 1_555 1_555
Eu3 Se5 1_555 1_555
Eu4 Se7 1_555 1_555
C11 C12 1_555 1_555
C17 C18 1_555 1_555
C23 C24 1_555 1_555
C29 C30 1_555 1_555
C35 C36 1_555 1_555
C41 C42 1_555 1_555
C47 C48 1_555 1_555
C52 C53 1_555 1_555
C57 C58 1_555 1_555
C62 C63 1_555 1_555
C67 C68 1_555 1_555
C72 C73 1_555 1_555
C77 C78 1_555 1_555
C82 C83 1_555 1_555
C87 C88 1_555 1_555
Se1A Eu1A 1_555 1_555
Se8A Eu4A 1_555 1_555

#END
