
#######################################################################
#
#                 Cambridge Crystallographic Data Centre
#                                CCDC 
#
#######################################################################
#
# If this CIF has been generated from an entry in the Cambridge 
# Structural Database, then it will include bibliographic, chemical, 
# crystal, experimental, refinement or atomic coordinate data resulting 
# from the CCDC's data processing and validation procedures.
#
#######################################################################

data_YAWBUU
_symmetry_cell_setting           monoclinic
_symmetry_space_group_name_H-M   'P 21/c'
_symmetry_Int_Tables_number      14
_space_group_name_Hall           '-P 2ybc'
loop_
_symmetry_equiv_pos_site_id
_symmetry_equiv_pos_as_xyz
1 x,y,z
2 -x,1/2+y,1/2-z
3 -x,-y,-z
4 x,1/2-y,1/2+z
_cell_length_a                   12.026(2)
_cell_length_b                   9.3967(17)
_cell_length_c                   13.227(3)
_cell_angle_alpha                90
_cell_angle_beta                 107.569(4)
_cell_angle_gamma                90
_cell_volume                     1424.99
loop_
_atom_site_label
_atom_site_type_symbol
_atom_site_fract_x
_atom_site_fract_y
_atom_site_fract_z
H1 H 0.993(3) 0.406(4) 0.401(3)
H2 H 0.896(2) 0.470(3) 0.391(2)
Co1 Co 0.90023(2) 0.48136(2) 0.206657(19)
O1 O 0.75787(11) 0.60951(13) 0.22038(11)
O2 O 0.94035(12) 0.90800(13) 0.28798(11)
O3 O 0.96987(11) 0.68323(13) 0.25131(10)
O4 O 0.92211(14) 0.41607(16) 0.36545(11)
O5 O 0.87493(16) 0.54522(19) 0.04962(13)
N1 N 0.75063(14) 0.35008(16) 0.14900(12)
C1 C 0.74830(19) 0.2193(2) 0.11180(17)
H3 H 0.8198 0.1761 0.1122
C2 C 0.6448(2) 0.1415(2) 0.0717(2)
H4 H 0.6470 0.0478 0.0455
C3 C 0.5415(2) 0.2006(2) 0.07055(19)
H5 H 0.4713 0.1476 0.0447
C4 C 0.53844(17) 0.3417(2) 0.10803(15)
C5 C 0.43529(18) 0.4142(3) 0.10734(17)
H6 H 0.3620 0.3680 0.0806
C6 C 0.44010(18) 0.5502(3) 0.14479(18)
H7 H 0.3700 0.5973 0.1442
C7 C 0.54790(17) 0.6221(2) 0.18450(16)
H8 H 0.5505 0.7166 0.2106
C8 C 0.64790(15) 0.5537(2) 0.18474(14)
C9 C 0.64652(15) 0.4118(2) 0.14732(14)
C10 C 0.77618(15) 0.75806(18) 0.24036(15)
H9 H 0.7518 0.7865 0.3026
H10 H 0.7308 0.8140 0.1782
C11 C 0.90584(16) 0.78271(19) 0.26156(14)
H11 H 0.872(2) 0.624(3) 0.031(2)
H12 H 0.868(3) 0.493(3) 0.006(2)
Co1A Co 1.09977(2) 0.98136(2) 0.293343(19)
O2A O 1.05965(12) 0.40800(13) 0.21202(11)
O6 O 0.83528(14) 0.12669(19) 0.37593(13)
H13 H 0.860(3) 0.206(4) 0.372(2)
H14 H 0.863(3) 0.076(4) 0.342(2)
Cl1 Cl 0.82142(4) 0.62955(5) 0.49566(4)
loop_
_geom_bond_atom_site_label_1
_geom_bond_atom_site_label_2
_geom_bond_site_symmetry_1
_geom_bond_site_symmetry_2
H1 O4 1_555 1_555
H2 O4 1_555 1_555
Co1 O1 1_555 1_555
O1 C8 1_555 1_555
O2 C11 1_555 1_555
O3 Co1 1_555 1_555
O4 Co1 1_555 1_555
O5 Co1 1_555 1_555
O6 H13 1_555 1_555
N1 Co1 1_555 1_555
C1 N1 1_555 1_555
H3 C1 1_555 1_555
C2 C1 1_555 1_555
H4 C2 1_555 1_555
C3 C2 1_555 1_555
H5 C3 1_555 1_555
C4 C3 1_555 1_555
C5 C4 1_555 1_555
H6 C5 1_555 1_555
C6 C5 1_555 1_555
H7 C6 1_555 1_555
C7 C6 1_555 1_555
H8 C7 1_555 1_555
C8 C7 1_555 1_555
C9 N1 1_555 1_555
C10 O1 1_555 1_555
H9 C10 1_555 1_555
H10 C10 1_555 1_555
C11 O3 1_555 1_555
H11 O5 1_555 1_555
H12 O5 1_555 1_555
H14 O6 1_555 1_555
Co1A O2 1_555 1_555
O2A Co1 1_555 1_555
C4 C9 1_555 1_555
C8 C9 1_555 1_555
C10 C11 1_555 1_555

#END
