
#######################################################################
#
#                 Cambridge Crystallographic Data Centre
#                                CCDC 
#
#######################################################################
#
# If this CIF has been generated from an entry in the Cambridge 
# Structural Database, then it will include bibliographic, chemical, 
# crystal, experimental, refinement or atomic coordinate data resulting 
# from the CCDC's data processing and validation procedures.
#
#######################################################################

data_YAWBOO
_symmetry_cell_setting           monoclinic
_symmetry_space_group_name_H-M   'P 21/c'
_symmetry_Int_Tables_number      14
_space_group_name_Hall           '-P 2ybc'
loop_
_symmetry_equiv_pos_site_id
_symmetry_equiv_pos_as_xyz
1 x,y,z
2 -x,1/2+y,1/2-z
3 -x,-y,-z
4 x,1/2-y,1/2+z
_cell_length_a                   11.967(5)
_cell_length_b                   9.405(3)
_cell_length_c                   13.105(6)
_cell_angle_alpha                90
_cell_angle_beta                 106.876(5)
_cell_angle_gamma                90
_cell_volume                     1411.44
loop_
_atom_site_label
_atom_site_type_symbol
_atom_site_fract_x
_atom_site_fract_y
_atom_site_fract_z
Ni1 Ni 0.60612(2) 0.51840(3) 0.29357(2)
O1 O 0.73869(13) 0.39152(16) 0.27522(14)
O2 O 0.54601(14) 0.10270(16) 0.20284(13)
O3 O 0.52247(13) 0.32831(16) 0.24291(13)
O4 O 0.63673(18) 0.4515(2) 0.44735(15)
O5 O 0.58055(15) 0.58708(18) 0.13668(13)
N1 N 0.74986(16) 0.6523(2) 0.34668(15)
C1 C 0.7545(2) 0.7838(3) 0.3833(2)
H1 H 0.6836 0.8301 0.3823
C2 C 0.8601(2) 0.8579(3) 0.4237(2)
H2 H 0.8597 0.9523 0.4494
C3 C 0.9628(2) 0.7943(3) 0.4260(2)
H3 H 1.0342 0.8448 0.4521
C4 C 0.9632(2) 0.6528(3) 0.38926(19)
C5 C 1.0652(2) 0.5762(3) 0.3912(2)
H4 H 1.1394 0.6200 0.4185
C6 C 1.0584(2) 0.4393(3) 0.3543(2)
H5 H 1.1279 0.3895 0.3558
C7 C 0.9490(2) 0.3711(3) 0.31399(19)
H6 H 0.9447 0.2762 0.2883
C8 C 0.84987(19) 0.4435(2) 0.31255(17)
C9 C 0.85356(18) 0.5862(2) 0.34942(17)
C10 C 0.71472(18) 0.2442(2) 0.25284(18)
H7 H 0.7574 0.1854 0.3145
H8 H 0.7390 0.2151 0.1898
C11 C 0.58345(18) 0.2258(2) 0.23113(17)
H9 H 0.636(3) 0.508(3) 0.494(2)
H10 H 0.5108(10) 0.597(3) 0.106(2)
H11 H 0.629(3) 0.3697(15) 0.464(2)
H12 H 0.614(3) 0.534(3) 0.106(2)
Ni1A Ni 0.39388(2) 0.01840(3) 0.20643(2)
O2A O 0.45399(14) 0.60270(16) 0.29716(13)
Cl1 Cl 0.32168(5) 0.62533(7) 0.00058(5)
O6 O 0.65855(17) 0.6180(2) 0.62042(16)
H13 H 0.634(3) 0.6984(17) 0.623(3)
H14 H 0.625(3) 0.570(3) 0.654(3)
loop_
_geom_bond_atom_site_label_1
_geom_bond_atom_site_label_2
_geom_bond_site_symmetry_1
_geom_bond_site_symmetry_2
Ni1 O1 1_555 1_555
O1 C8 1_555 1_555
O2 C11 1_555 1_555
O3 Ni1 1_555 1_555
O4 Ni1 1_555 1_555
O5 Ni1 1_555 1_555
N1 Ni1 1_555 1_555
C1 N1 1_555 1_555
H1 C1 1_555 1_555
C2 C1 1_555 1_555
H2 C2 1_555 1_555
C3 C2 1_555 1_555
H3 C3 1_555 1_555
C4 C3 1_555 1_555
C5 C4 1_555 1_555
H4 C5 1_555 1_555
C6 C5 1_555 1_555
H5 C6 1_555 1_555
C7 C6 1_555 1_555
H6 C7 1_555 1_555
C8 C7 1_555 1_555
C9 N1 1_555 1_555
C10 O1 1_555 1_555
H7 C10 1_555 1_555
H8 C10 1_555 1_555
C11 O3 1_555 1_555
H9 O4 1_555 1_555
H10 O5 1_555 1_555
H11 O4 1_555 1_555
H12 O5 1_555 1_555
O6 H13 1_555 1_555
H14 O6 1_555 1_555
Ni1A O2 1_555 1_555
O2A Ni1 1_555 1_555
C4 C9 1_555 1_555
C8 C9 1_555 1_555
C10 C11 1_555 1_555

#END
