
#######################################################################
#
#                 Cambridge Crystallographic Data Centre
#                                CCDC 
#
#######################################################################
#
# If this CIF has been generated from an entry in the Cambridge 
# Structural Database, then it will include bibliographic, chemical, 
# crystal, experimental, refinement or atomic coordinate data resulting 
# from the CCDC's data processing and validation procedures.
#
#######################################################################

data_YAWBAA01
_symmetry_cell_setting           monoclinic
_symmetry_space_group_name_H-M   'P 21/n'
_symmetry_Int_Tables_number      14
_space_group_name_Hall           '-P 2yn'
loop_
_symmetry_equiv_pos_site_id
_symmetry_equiv_pos_as_xyz
1 x,y,z
2 1/2-x,1/2+y,1/2-z
3 -x,-y,-z
4 1/2+x,1/2-y,1/2+z
_cell_length_a                   11.0632(6)
_cell_length_b                   15.0159(8)
_cell_length_c                   16.7772(9)
_cell_angle_alpha                90
_cell_angle_beta                 95.3940(10)
_cell_angle_gamma                90
_cell_volume                     2774.75
loop_
_atom_site_label
_atom_site_type_symbol
_atom_site_fract_x
_atom_site_fract_y
_atom_site_fract_z
Zn1 Zn 0.21938(3) 0.11652(2) -0.033322(18)
Zn2 Zn 0.61296(3) 0.13881(2) 0.134581(19)
C1 C 0.3995(2) 0.62129(18) -0.31447(17)
C2 C 0.4734(3) 0.57399(18) -0.24623(17)
C3 C 0.5263(3) 0.49268(18) -0.26004(16)
H1 H 0.5254 0.4714 -0.3122
C4 C 0.5809(3) 0.44214(18) -0.19682(17)
C5 C 0.5802(3) 0.47280(19) -0.11896(17)
H2 H 0.6119 0.4379 -0.0763
C6 C 0.5316(3) 0.55608(19) -0.10514(18)
H3 H 0.5344 0.5778 -0.0531
C7 C 0.4792(3) 0.60715(18) -0.16793(17)
C8 C 0.4382(3) 0.7005(2) -0.15070(19)
C9 C 0.6505(3) 0.36081(18) -0.21652(17)
C10 C 0.4716(3) 0.15184(17) -0.02695(16)
C11 C 0.5824(2) 0.18194(17) -0.06552(15)
C12 C 0.5691(3) 0.25527(18) -0.11700(16)
H4 H 0.4953 0.2854 -0.1229
C13 C 0.6637(3) 0.28402(17) -0.15939(16)
C14 C 0.7721(3) 0.23661(19) -0.15330(17)
H5 H 0.8344 0.2534 -0.1837
C15 C 0.7872(3) 0.16445(19) -0.10198(17)
H6 H 0.8601 0.1332 -0.0979
C16 C 0.6947(2) 0.13822(17) -0.05642(16)
C17 C 0.7255(2) 0.05994(18) -0.00129(16)
C18 C 0.4328(3) 0.0253(2) 0.20610(19)
H7 H 0.3785 0.0665 0.1818
C19 C 0.3896(3) -0.0397(2) 0.2535(2)
H8 H 0.3073 -0.0413 0.2609
C20 C 0.6228(3) -0.0316(2) 0.2250(2)
H9 H 0.7035 -0.0306 0.2138
C21 C 0.5864(3) -0.0983(2) 0.2734(2)
H10 H 0.6422 -0.1403 0.2946
C22 C 0.4669(3) -0.10292(18) 0.29054(17)
C23 C 0.4246(3) -0.17018(18) 0.34688(17)
C24 C 0.5007(3) -0.2356(2) 0.3822(2)
H11 H 0.5808 -0.2394 0.3700
C25 C 0.4573(3) -0.2949(2) 0.4353(2)
H12 H 0.5099 -0.3384 0.4579
C26 C 0.3066(3) -0.1699(2) 0.3678(2)
H13 H 0.2518 -0.1277 0.3457
C27 C 0.2702(3) -0.2315(2) 0.4210(2)
H14 H 0.1899 -0.2302 0.4332
N1 N 0.5495(2) 0.03141(15) 0.19357(13)
N2 N 0.3439(2) -0.29323(15) 0.45600(14)
O1 O 0.41504(18) 0.59468(14) -0.38461(12)
O2 O 0.3250(2) 0.67813(14) -0.29860(13)
O3 O 0.4927(2) 0.76355(14) -0.18211(15)
O4 O 0.3579(2) 0.71243(17) -0.10549(14)
O5 O 0.7006(2) 0.35943(14) -0.27748(13)
O6 O 0.37195(17) 0.16136(14) -0.06834(12)
O7 O 0.47999(19) 0.12133(15) 0.04222(12)
O8 O 0.7231(2) 0.06669(14) 0.07249(12)
O9 O 0.76117(19) -0.00877(13) -0.03455(11)
O10 O 0.75580(19) 0.16798(15) 0.22614(13)
H15 H 0.7454 0.2206 0.2429
H16 H 0.7660 0.1340 0.2668
Zn1A Zn 0.28062(3) -0.38348(2) 0.533322(18)
Zn1A_2 Zn 0.28062(3) 0.61652(2) -0.466678(18)
Zn1B Zn 0.78062(3) -0.11652(2) 0.033322(18)
Zn2B Zn 0.38704(3) 0.86119(2) -0.134581(19)
N2A N 0.1561(2) 0.20677(15) 0.04400(14)
O1A O 0.08496(18) 0.09468(14) -0.11539(12)
O3B O 0.5073(2) 0.23645(14) 0.18211(15)
O4B O 0.6421(2) 0.28757(17) 0.10549(14)
O9B O 0.23883(19) 0.00877(13) 0.03455(11)
C28 C 0.1027(5) 0.3682(3) 0.8847(3)
H17 H 0.0823 0.3161 0.8566
C29 C 0.0189(5) 0.4033(3) 0.9322(3)
H18 H -0.0552 0.3749 0.9350
C30 C 0.0443(3) 0.4797(2) 0.97490(19)
C31 C 0.1556(4) 0.5183(3) 0.9672(3)
H19 H 0.1776 0.5707 0.9944
C32 C 0.2340(4) 0.4788(4) 0.9189(3)
H20 H 0.3088 0.5060 0.9152
N3 N 0.2106(4) 0.4041(3) 0.8768(2)
C28B C -0.1027(5) 0.6318(3) 1.1153(3)
H17B H -0.0823 0.6839 1.1434
C29B C -0.0189(5) 0.5967(3) 1.0678(3)
H18B H 0.0552 0.6251 1.0650
C30B C -0.0443(3) 0.5203(2) 1.02510(19)
C31B C -0.1556(4) 0.4817(3) 1.0328(3)
H19B H -0.1776 0.4293 1.0056
C32B C -0.2340(4) 0.5212(4) 1.0811(3)
H20B H -0.3088 0.4940 1.0848
N3B N -0.2106(4) 0.5959(3) 1.1232(2)
loop_
_geom_bond_atom_site_label_1
_geom_bond_atom_site_label_2
_geom_bond_site_symmetry_1
_geom_bond_site_symmetry_2
Zn1 O6 1_555 1_555
Zn2 N1 1_555 1_555
C1 C2 1_555 1_555
C2 C3 1_555 1_555
C3 H1 1_555 1_555
C4 C3 1_555 1_555
C5 C4 1_555 1_555
H2 C5 1_555 1_555
C6 C5 1_555 1_555
H3 C6 1_555 1_555
C7 C2 1_555 1_555
C8 C7 1_555 1_555
C9 C4 1_555 1_555
C10 C11 1_555 1_555
C11 C12 1_555 1_555
C12 H4 1_555 1_555
C13 C9 1_555 1_555
C14 C13 1_555 1_555
H5 C14 1_555 1_555
C15 C14 1_555 1_555
H6 C15 1_555 1_555
C16 C11 1_555 1_555
C17 C16 1_555 1_555
C18 H7 1_555 1_555
C19 C18 1_555 1_555
H8 C19 1_555 1_555
C20 H9 1_555 1_555
C21 C20 1_555 1_555
H10 C21 1_555 1_555
C22 C19 1_555 1_555
C23 C22 1_555 1_555
C24 C23 1_555 1_555
H11 C24 1_555 1_555
C25 C24 1_555 1_555
H12 C25 1_555 1_555
C26 C23 1_555 1_555
H13 C26 1_555 1_555
C27 C26 1_555 1_555
H14 C27 1_555 1_555
N1 C18 1_555 1_555
N2 C25 1_555 1_555
O1 C1 1_555 1_555
O2 C1 1_555 1_555
O3 C8 1_555 1_555
O4 C8 1_555 1_555
O5 C9 1_555 1_555
O6 C10 1_555 1_555
O7 Zn2 1_555 1_555
O8 Zn2 1_555 1_555
O9 C17 1_555 1_555
O10 Zn2 1_555 1_555
H15 O10 1_555 1_555
H16 O10 1_555 1_555
C28 H17 1_555 1_555
C29 C28 1_555 1_555
H18 C29 1_555 1_555
C30 C29 1_555 1_555
C31 C30 1_555 1_555
H19 C31 1_555 1_555
C32 C31 1_555 1_555
H20 C32 1_555 1_555
N3 C28 1_555 1_555
Zn1A N2 1_555 1_555
Zn1A_2 O1 1_555 1_555
Zn1B O9 1_555 1_555
Zn2B O3 1_555 1_555
N2A Zn1 1_555 1_555
O1A Zn1 1_555 1_555
O3B Zn2 1_555 1_555
O4B Zn2 1_555 1_555
O9B Zn1 1_555 1_555
C28B H17B 1_555 1_555
C29B C28B 1_555 1_555
H18B C29B 1_555 1_555
C30B C30 1_555 1_555
C31B C30B 1_555 1_555
H19B C31B 1_555 1_555
C32B C31B 1_555 1_555
H20B C32B 1_555 1_555
N3B C28B 1_555 1_555
C6 C7 1_555 1_555
C10 O7 1_555 1_555
C12 C13 1_555 1_555
C15 C16 1_555 1_555
C17 O8 1_555 1_555
C20 N1 1_555 1_555
C21 C22 1_555 1_555
C27 N2 1_555 1_555
O4 Zn2B 1_555 1_555
C32 N3 1_555 1_555
C29B C30B 1_555 1_555
C32B N3B 1_555 1_555

#END
