
#######################################################################
#
#                 Cambridge Crystallographic Data Centre
#                                CCDC 
#
#######################################################################
#
# If this CIF has been generated from an entry in the Cambridge 
# Structural Database, then it will include bibliographic, chemical, 
# crystal, experimental, refinement or atomic coordinate data resulting 
# from the CCDC's data processing and validation procedures.
#
#######################################################################

data_YAWBAA
_symmetry_cell_setting           monoclinic
_symmetry_space_group_name_H-M   'P 21/n'
_symmetry_Int_Tables_number      14
_space_group_name_Hall           '-P 2yn'
loop_
_symmetry_equiv_pos_site_id
_symmetry_equiv_pos_as_xyz
1 x,y,z
2 1/2-x,1/2+y,1/2-z
3 -x,-y,-z
4 1/2+x,1/2-y,1/2+z
_cell_length_a                   11.020(2)
_cell_length_b                   15.073(3)
_cell_length_c                   16.768(3)
_cell_angle_alpha                90
_cell_angle_beta                 95.53(3)
_cell_angle_gamma                90
_cell_volume                     2772.28
loop_
_atom_site_label
_atom_site_type_symbol
_atom_site_fract_x
_atom_site_fract_y
_atom_site_fract_z
Zn1 Zn 0.21999(3) 0.615627(18) 0.465933(17)
Zn2 Zn -0.11405(3) 1.13647(2) 0.865010(18)
C1 C 0.4169(2) 0.31893(15) 0.56728(14)
C2 C 0.3039(2) 0.36167(15) 0.55730(15)
C3 C 0.2102(2) 0.33496(18) 0.60274(17)
H1 H 0.1368 0.3659 0.5985
C4 C 0.2258(3) 0.26268(18) 0.65404(17)
H2 H 0.1632 0.2453 0.6841
C5 C 0.3356(3) 0.21645(16) 0.66025(15)
C6 C 0.4310(2) 0.24566(16) 0.61869(15)
H3 H 0.5054 0.2161 0.6251
C7 C 0.5277(2) 0.35048(16) 0.52876(15)
C8 C 0.2721(2) 0.43939(16) 0.50175(15)
C9 C 0.5285(2) -0.07278(16) 0.74477(16)
C10 C 0.5237(3) -0.10456(17) 0.66622(17)
C11 C 0.4700(3) -0.05339(18) 0.60383(17)
H4 H 0.4674 -0.0744 0.5515
C12 C 0.4202(3) 0.02890(18) 0.61850(16)
H5 H 0.3878 0.0639 0.5760
C13 C 0.4186(3) 0.05876(16) 0.69658(16)
C14 C 0.4739(3) 0.00752(17) 0.75926(16)
H6 H 0.4741 0.0277 0.8117
C15 C 0.6007(2) -0.12047(16) 0.81308(16)
C16 C 0.5705(3) -0.1959(2) 0.6464(2)
C17 C 0.3485(3) 0.13921(16) 0.71667(16)
C18 C 0.0435(3) 0.7038(2) 0.56424(19)
H7 H -0.0091 0.6603 0.5420
C19 C -0.0001(3) 0.7633(2) 0.61706(19)
H8 H -0.0803 0.7594 0.6296
C20 C 0.0764(3) 0.82911(16) 0.65147(16)
C21 C 0.1951(3) 0.82926(19) 0.63069(19)
H9 H 0.2502 0.8714 0.6527
C22 C 0.2315(3) 0.76745(19) 0.57775(19)
H10 H 0.3119 0.7689 0.5653
C23 C -0.1241(3) 0.96981(19) 0.7698(2)
H11 H -0.2060 0.9726 0.7788
C24 C -0.0873(3) 0.9023(2) 0.7218(2)
H12 H -0.1436 0.8612 0.6995
C25 C 0.0337(3) 0.89665(16) 0.70737(16)
C26 C 0.1126(3) 0.9580(2) 0.74631(19)
H13 H 0.1957 0.9550 0.7409
C27 C 0.0678(3) 1.0233(2) 0.79304(19)
H14 H 0.1223 1.0639 0.8182
N1 N 0.1578(2) 0.70559(14) 0.54333(13)
N2 N -0.0493(2) 1.03082(14) 0.80379(13)
O1 O 0.23854(19) 0.50861(12) 0.53440(11)
O2 O 0.2714(2) 0.43046(14) 0.42771(12)
O3 O 0.5180(2) 0.38372(16) 0.46127(12)
O4 O 0.62814(17) 0.33977(14) 0.56993(12)
O5 O 0.58586(18) -0.09344(13) 0.88322(11)
O6 O 0.6733(2) -0.17865(14) 0.79775(13)
O7 O 0.5136(2) -0.26063(14) 0.67320(18)
O8 O 0.6559(3) -0.20314(19) 0.60476(17)
O9 O 0.2979(2) 0.14005(13) 0.77789(13)
O10 O -0.2603(2) 1.16867(14) 0.77229(13)
H15 H -0.2465 1.2184 0.7553
H16 H -0.2616 1.1379 0.7315
Zn1B Zn 0.78001(3) 0.384373(18) 0.534067(17)
Zn1C Zn 0.71999(3) -0.115627(18) 0.965933(17)
Zn1A Zn 0.28001(3) 1.115627(18) 0.034067(17)
Zn2C Zn 0.38595(3) 0.36353(2) 0.365010(18)
Zn2A Zn 0.61405(3) -0.36353(2) 0.634990(18)
Zn2A_2 Zn 0.61405(3) 0.63647(2) 0.634990(18)
Zn2C_2 Zn 0.38595(3) 1.36353(2) 0.365010(18)
Zn2B Zn 1.11405(3) -0.13647(2) 0.134990(18)
C1B C 0.5831(2) 0.68107(15) 0.43272(14)
C2B C 0.6961(2) 0.63833(15) 0.44270(15)
C3B C 0.7898(2) 0.66504(18) 0.39726(17)
H1B H 0.8632 0.6341 0.4015
C4B C 0.7742(3) 0.73732(18) 0.34596(17)
H2B H 0.8368 0.7547 0.3159
C5B C 0.6644(3) 0.78355(16) 0.33975(15)
C6B C 0.5690(2) 0.75434(16) 0.38131(15)
H3B H 0.4946 0.7839 0.3749
C7B C 0.4723(2) 0.64952(16) 0.47124(15)
C8B C 0.7279(2) 0.56061(16) 0.49825(15)
C9B C 0.4715(2) 1.07278(16) 0.25523(16)
C10B C 0.4763(3) 1.10456(17) 0.33378(17)
C11B C 0.5300(3) 1.05339(18) 0.39617(17)
H4B H 0.5326 1.0744 0.4485
C12B C 0.5798(3) 0.97110(18) 0.38150(16)
H5B H 0.6122 0.9361 0.4240
C13B C 0.5814(3) 0.94124(16) 0.30342(16)
C14B C 0.5261(3) 0.99248(17) 0.24074(16)
H6B H 0.5259 0.9723 0.1883
C15B C 0.3993(2) 1.12047(16) 0.18692(16)
C16B C 0.4295(3) 1.1959(2) 0.3536(2)
C17B C 0.6515(3) 0.86079(16) 0.28333(16)
C18B C 0.9565(3) 0.2962(2) 0.43576(19)
H7B H 1.0091 0.3397 0.4580
C19B C 1.0001(3) 0.2367(2) 0.38294(19)
H8B H 1.0803 0.2406 0.3704
C20B C 0.9236(3) 0.17089(16) 0.34853(16)
C21B C 0.8049(3) 0.17074(19) 0.36931(19)
H9B H 0.7498 0.1286 0.3473
C22B C 0.7685(3) 0.23255(19) 0.42225(19)
H10B H 0.6881 0.2311 0.4347
C23B C 1.1241(3) 0.03019(19) 0.2302(2)
H11B H 1.2060 0.0274 0.2212
C24B C 1.0873(3) 0.0977(2) 0.2782(2)
H12B H 1.1436 0.1388 0.3005
C25B C 0.9663(3) 0.10335(16) 0.29263(16)
C26B C 0.8874(3) 0.0420(2) 0.25369(19)
H13B H 0.8043 0.0450 0.2591
C27B C 0.9322(3) -0.0233(2) 0.20696(19)
H14B H 0.8777 -0.0639 0.1818
N1B N 0.8422(2) 0.29441(14) 0.45667(13)
N2B N 1.0493(2) -0.03082(14) 0.19621(13)
N2C N 0.4507(2) 0.46918(14) 0.30379(13)
O1B O 0.76146(19) 0.49139(12) 0.46560(11)
O2B O 0.7286(2) 0.56954(14) 0.57229(12)
O2C O -0.2286(2) 1.06954(14) 0.92771(12)
O3B O 0.4820(2) 0.61628(16) 0.53873(12)
O3C O 0.0180(2) 1.11628(16) 0.96127(12)
O4B O 0.37186(17) 0.66023(14) 0.43007(12)
O5B O 0.41414(18) 1.09344(13) 0.11678(11)
O5C O 0.08586(18) 0.59344(13) 0.38322(11)
O5A O 0.91414(18) 0.40656(13) 0.61678(11)
O6B O 0.3267(2) 1.17865(14) 0.20225(13)
O7B O 0.4864(2) 1.26063(14) 0.32680(18)
O7A O -0.0136(2) 1.23937(14) 0.82680(18)
O7B_2 O 0.4864(2) 0.26063(14) 0.32680(18)
O8B O 0.3441(3) 1.20314(19) 0.39524(17)
O8A O -0.1559(3) 1.29686(19) 0.89524(17)
O8B_2 O 0.3441(3) 0.20314(19) 0.39524(17)
O9B O 0.7021(2) 0.85995(13) 0.22211(13)
O10C O 0.2397(2) 0.33133(14) 0.27229(13)
H15C H 0.2535 0.2816 0.2553
H16C H 0.2384 0.3621 0.2315
C28 C 0.8962(5) 0.1335(3) 0.6120(3)
H17 H 0.9171 0.1861 0.6388
C29 C 0.9812(5) 0.0965(3) 0.5668(3)
H18 H 1.0569 0.1234 0.5651
C30 C 0.9548(4) 0.0220(3) 0.5253(2)
C31 C 0.8467(4) -0.0174(3) 0.5304(3)
H19 H 0.8261 -0.0698 0.5031
C32 C 0.7650(5) 0.0243(4) 0.5792(3)
H20 H 0.6902 -0.0033 0.5828
N3 N 0.7862(4) 0.0997(2) 0.6203(2)
C28B C 1.1038(5) -0.1335(3) 0.3880(3)
H17B H 1.0829 -0.1861 0.3612
C29B C 1.0188(5) -0.0965(3) 0.4332(3)
H18B H 0.9431 -0.1234 0.4349
C30B C 1.0452(4) -0.0220(3) 0.4747(2)
C31B C 1.1533(4) 0.0174(3) 0.4696(3)
H19B H 1.1739 0.0698 0.4969
C32B C 1.2350(5) -0.0243(4) 0.4208(3)
H20B H 1.3098 0.0033 0.4172
N3B N 1.2138(4) -0.0997(2) 0.3797(2)
loop_
_geom_bond_atom_site_label_1
_geom_bond_atom_site_label_2
_geom_bond_site_symmetry_1
_geom_bond_site_symmetry_2
Zn1 N1 1_555 1_555
Zn2 N2 1_555 1_555
C1 C2 1_555 1_555
C2 C3 1_555 1_555
C3 H1 1_555 1_555
C4 C3 1_555 1_555
H2 C4 1_555 1_555
C5 C4 1_555 1_555
C6 C1 1_555 1_555
H3 C6 1_555 1_555
C7 C1 1_555 1_555
C8 C2 1_555 1_555
C9 C10 1_555 1_555
C10 C11 1_555 1_555
C11 H4 1_555 1_555
C12 C11 1_555 1_555
H5 C12 1_555 1_555
C13 C12 1_555 1_555
C14 C9 1_555 1_555
H6 C14 1_555 1_555
C15 C9 1_555 1_555
C16 C10 1_555 1_555
C17 C5 1_555 1_555
C18 H7 1_555 1_555
C19 C18 1_555 1_555
H8 C19 1_555 1_555
C20 C19 1_555 1_555
C21 C20 1_555 1_555
H9 C21 1_555 1_555
C22 C21 1_555 1_555
H10 C22 1_555 1_555
C23 H11 1_555 1_555
C24 C23 1_555 1_555
H12 C24 1_555 1_555
C25 C20 1_555 1_555
C26 C25 1_555 1_555
H13 C26 1_555 1_555
C27 C26 1_555 1_555
H14 C27 1_555 1_555
N1 C18 1_555 1_555
N2 C23 1_555 1_555
O1 Zn1 1_555 1_555
O2 C8 1_555 1_555
O3 C7 1_555 1_555
O4 C7 1_555 1_555
O5 C15 1_555 1_555
O6 C15 1_555 1_555
O7 C16 1_555 1_555
O8 C16 1_555 1_555
O9 C17 1_555 1_555
O10 Zn2 1_555 1_555
H15 O10 1_555 1_555
H16 O10 1_555 1_555
C28 H17 1_555 1_555
C29 C28 1_555 1_555
H18 C29 1_555 1_555
C30 C29 1_555 1_555
C31 C30 1_555 1_555
H19 C31 1_555 1_555
C32 C31 1_555 1_555
H20 C32 1_555 1_555
N3 C28 1_555 1_555
Zn1B O4 1_555 1_555
Zn1C O5 1_555 1_555
Zn1A O5B 1_555 1_555
Zn2C O2 1_555 1_555
Zn2A O7 1_555 1_555
Zn2A_2 O2B 1_555 1_555
Zn2C_2 O7B 1_555 1_555
Zn2B N2B 1_555 1_555
C1B C2B 1_555 1_555
C2B C3B 1_555 1_555
C3B H1B 1_555 1_555
C4B C3B 1_555 1_555
H2B C4B 1_555 1_555
C5B C4B 1_555 1_555
C6B C1B 1_555 1_555
H3B C6B 1_555 1_555
C7B C1B 1_555 1_555
C8B C2B 1_555 1_555
C9B C10B 1_555 1_555
C10B C11B 1_555 1_555
C11B H4B 1_555 1_555
C12B C11B 1_555 1_555
H5B C12B 1_555 1_555
C13B C12B 1_555 1_555
C14B C9B 1_555 1_555
H6B C14B 1_555 1_555
C15B C9B 1_555 1_555
C16B C10B 1_555 1_555
C17B C5B 1_555 1_555
C18B H7B 1_555 1_555
C19B C18B 1_555 1_555
H8B C19B 1_555 1_555
C20B C19B 1_555 1_555
C21B C20B 1_555 1_555
H9B C21B 1_555 1_555
C22B C21B 1_555 1_555
H10B C22B 1_555 1_555
C23B H11B 1_555 1_555
C24B C23B 1_555 1_555
H12B C24B 1_555 1_555
C25B C20B 1_555 1_555
C26B C25B 1_555 1_555
H13B C26B 1_555 1_555
C27B C26B 1_555 1_555
H14B C27B 1_555 1_555
N1B Zn1B 1_555 1_555
N2B C23B 1_555 1_555
N2C Zn2C 1_555 1_555
O1B Zn1B 1_555 1_555
O2B C8B 1_555 1_555
O2C Zn2 1_555 1_555
O3B Zn2A_2 1_555 1_555
O3C Zn2 1_555 1_555
O4B Zn1 1_555 1_555
O5B C15B 1_555 1_555
O5C Zn1 1_555 1_555
O5A Zn1B 1_555 1_555
O6B C15B 1_555 1_555
O7B C16B 1_555 1_555
O7A Zn2 1_555 1_555
O7B_2 Zn2C 1_555 1_555
O8B Zn2C_2 1_555 1_555
O8A Zn2 1_555 1_555
O8B_2 Zn2C 1_555 1_555
O9B C17B 1_555 1_555
O10C Zn2C 1_555 1_555
H15C O10C 1_555 1_555
H16C O10C 1_555 1_555
C28B H17B 1_555 1_555
C29B C28B 1_555 1_555
H18B C29B 1_555 1_555
C30B C30 1_555 1_555
C31B C30B 1_555 1_555
H19B C31B 1_555 1_555
C32B C31B 1_555 1_555
H20B C32B 1_555 1_555
N3B C28B 1_555 1_555
C5 C6 1_555 1_555
C8 O1 1_555 1_555
C13 C14 1_555 1_555
C13 C17 1_555 1_555
C22 N1 1_555 1_555
C24 C25 1_555 1_555
C27 N2 1_555 1_555
O3 Zn2C 1_555 1_555
O8 Zn2A 1_555 1_555
C32 N3 1_555 1_555
C5B C6B 1_555 1_555
C7B O3B 1_555 1_555
C7B O4B 1_555 1_555
C8B O1B 1_555 1_555
C13B C14B 1_555 1_555
C13B C17B 1_555 1_555
C16B O8B 1_555 1_555
C18B N1B 1_555 1_555
C22B N1B 1_555 1_555
C24B C25B 1_555 1_555
C27B N2B 1_555 1_555
C29B C30B 1_555 1_555
C32B N3B 1_555 1_555

#END
