
#######################################################################
#
#                 Cambridge Crystallographic Data Centre
#                                CCDC 
#
#######################################################################
#
# If this CIF has been generated from an entry in the Cambridge 
# Structural Database, then it will include bibliographic, chemical, 
# crystal, experimental, refinement or atomic coordinate data resulting 
# from the CCDC's data processing and validation procedures.
#
#######################################################################

data_YAWCUV
_symmetry_cell_setting           tetragonal
_symmetry_space_group_name_H-M   'P 4/n c c'
_symmetry_Int_Tables_number      130
_space_group_name_Hall           '-P 4a 2ac'
loop_
_symmetry_equiv_pos_site_id
_symmetry_equiv_pos_as_xyz
1 x,y,z
2 1/2-y,x,z
3 y,1/2-x,z
4 1/2+y,1/2+x,1/2-z
5 1/2+x,-y,1/2-z
6 -x,1/2+y,1/2-z
7 -y,-x,1/2-z
8 1/2-x,1/2-y,z
9 -x,-y,-z
10 1/2+y,-x,-z
11 -y,1/2+x,-z
12 1/2-y,1/2-x,1/2+z
13 1/2-x,y,1/2+z
14 x,1/2-y,1/2+z
15 y,x,1/2+z
16 1/2+x,1/2+y,-z
_cell_length_a                   14.7990(9)
_cell_length_b                   14.7990(9)
_cell_length_c                   17.114(1)
_cell_angle_alpha                90
_cell_angle_beta                 90
_cell_angle_gamma                90
_cell_volume                     3748.14
loop_
_atom_site_label
_atom_site_type_symbol
_atom_site_fract_x
_atom_site_fract_y
_atom_site_fract_z
Ru1 Ru 0.54242(4) 1.0424 0.2500
Mn1 Mn 0.2500 1.2500 0.2227(1)
O1 O 0.6169(4) 1.0959(4) 0.1623(3)
O2 O 0.2500 1.2500 0.0889(7)
O3 O 0.2500 1.2500 0.364(1)
N1 N 0.4841(4) 0.9552(5) 0.1757(4)
N2 N 0.3848(5) 1.1853(5) 0.2216(4)
C1 C 0.6383(5) 1.0511(6) 0.0975(5)
C2 C 0.7070(6) 1.0880(7) 0.0500(6)
C3 C 0.7298(6) 1.0465(8) -0.0196(6)
C4 C 0.6874(7) 0.9702(8) -0.0453(6)
C5 C 0.6201(8) 0.9346(7) -0.0025(6)
C6 C 0.5932(6) 0.9729(6) 0.0704(5)
C7 C 0.4443(6) 1.1373(6) 0.2306(4)
C8 C 0.5164(7) 0.9319(6) 0.1068(6)
C9 C 0.4029(7) 0.9143(8) 0.2064(5)
H1 H 0.7376 1.1414 0.0658
H2 H 0.7767 1.0719 -0.0506
H3 H 0.7052 0.9425 -0.0930
H4 H 0.5895 0.8825 -0.0213
H5 H 0.4867 0.8846 0.0795
H6 H 0.3525 0.9521 0.1960
H7 H 0.3937 0.8570 0.1827
Ru1A Ru 0.4576 1.54242(4) 0.2500
Ru1B Ru 0.0424 0.95758(4) 0.2500
Ru1F Ru -0.0424 1.45758(4) 0.2500
O1C O 0.5959(4) 1.1169(4) 0.3377(3)
O1A O 0.4041(4) 1.6169(4) 0.1623(3)
O1E O 0.3831(4) 1.5959(4) 0.3377(3)
N1C N 0.4552(5) 0.9841(4) 0.3243(4)
N1A N 0.5448(5) 1.4841(4) 0.1757(4)
N1E N 0.5159(4) 1.4552(5) 0.3243(4)
N2A N 0.3147(5) 1.3848(5) 0.2216(4)
N2B N 0.1853(5) 1.1152(5) 0.2216(4)
N2G N 0.1152(5) 1.3147(5) 0.2216(4)
C1C C 0.5511(6) 1.1383(5) 0.4025(5)
C1A C 0.4489(6) 1.6383(5) 0.0975(5)
C1E C 0.3617(5) 1.5511(6) 0.4025(5)
C2C C 0.5880(7) 1.2070(6) 0.4500(6)
C2A C 0.4120(7) 1.7070(6) 0.0500(6)
C2E C 0.2930(6) 1.5880(7) 0.4500(6)
C3C C 0.5465(8) 1.2298(6) 0.5196(6)
C3A C 0.4535(8) 1.7298(6) -0.0196(6)
C3E C 0.2702(6) 1.5465(8) 0.5196(6)
C4C C 0.4702(8) 1.1874(7) 0.5453(6)
C4A C 0.5298(8) 1.6874(7) -0.0453(6)
C4E C 0.3126(7) 1.4702(8) 0.5453(6)
C5C C 0.4346(7) 1.1201(8) 0.5025(6)
C5A C 0.5654(7) 1.6201(8) -0.0025(6)
C5E C 0.3799(8) 1.4346(7) 0.5025(6)
C6C C 0.4729(6) 1.0932(6) 0.4296(5)
C6A C 0.5271(6) 1.5932(6) 0.0704(5)
C6E C 0.4068(6) 1.4729(6) 0.4296(5)
C7A C 0.3627(6) 1.4443(6) 0.2306(4)
C7B C 0.1373(6) 1.0557(6) 0.2306(4)
C7G C 0.0557(6) 1.3627(6) 0.2306(4)
C7C C 0.6373(6) 0.9443(6) 0.2694(4)
C7E C 0.5557(6) 1.6373(6) 0.2694(4)
C8C C 0.4319(6) 1.0164(7) 0.3932(6)
C8A C 0.5681(6) 1.5164(7) 0.1068(6)
C8E C 0.4836(7) 1.4319(6) 0.3932(6)
C9C C 0.4143(8) 0.9029(7) 0.2936(5)
C9A C 0.5857(8) 1.4029(7) 0.2064(5)
C9E C 0.5971(7) 1.4143(8) 0.2936(5)
H1C H 0.6414 1.2376 0.4342
H1A H 0.3586 1.7376 0.0658
H1E H 0.2624 1.6414 0.4342
H2C H 0.5719 1.2767 0.5506
H2A H 0.4281 1.7767 -0.0506
H2E H 0.2233 1.5719 0.5506
H3C H 0.4425 1.2052 0.5930
H3A H 0.5575 1.7052 -0.0930
H3E H 0.2948 1.4425 0.5930
H4C H 0.3825 1.0895 0.5213
H4A H 0.6175 1.5895 -0.0213
H4E H 0.4105 1.3825 0.5213
H5C H 0.3846 0.9867 0.4205
H5A H 0.6154 1.4867 0.0795
H5E H 0.5133 1.3846 0.4205
H6C H 0.4521 0.8525 0.3040
H6A H 0.5479 1.3525 0.1960
H6E H 0.6475 1.4521 0.3040
H7C H 0.3570 0.8937 0.3173
H7A H 0.6430 1.3937 0.1827
H7E H 0.6063 1.3570 0.3173
O4 O 0.7500 1.2500 0.2500
loop_
_geom_bond_atom_site_label_1
_geom_bond_atom_site_label_2
_geom_bond_site_symmetry_1
_geom_bond_site_symmetry_2
Ru1 O1 1_555 1_555
Mn1 O2 1_555 1_555
O1 C1 1_555 1_555
O3 Mn1 1_555 1_555
N1 Ru1 1_555 1_555
N2 Mn1 1_555 1_555
C1 C2 1_555 1_555
C2 C3 1_555 1_555
C3 C4 1_555 1_555
C4 C5 1_555 1_555
C5 C6 1_555 1_555
C6 C1 1_555 1_555
C7 Ru1 1_555 1_555
C8 N1 1_555 1_555
C9 N1 1_555 1_555
H1 C2 1_555 1_555
H2 C3 1_555 1_555
H3 C4 1_555 1_555
H4 C5 1_555 1_555
H5 C8 1_555 1_555
H6 C9 1_555 1_555
H7 C9 1_555 1_555
Ru1A O1A 1_555 1_555
Ru1B C7B 1_555 1_555
Ru1F C7G 1_555 1_555
O1C Ru1 1_555 1_555
O1A C1A 1_555 1_555
O1E Ru1A 1_555 1_555
N1C Ru1 1_555 1_555
N1A Ru1A 1_555 1_555
N1E Ru1A 1_555 1_555
N2A Mn1 1_555 1_555
N2B Mn1 1_555 1_555
N2G Mn1 1_555 1_555
C1C O1C 1_555 1_555
C1A C2A 1_555 1_555
C1E O1E 1_555 1_555
C2C C1C 1_555 1_555
C2A C3A 1_555 1_555
C2E C1E 1_555 1_555
C3C C2C 1_555 1_555
C3A C4A 1_555 1_555
C3E C2E 1_555 1_555
C4C C3C 1_555 1_555
C4A C5A 1_555 1_555
C4E C3E 1_555 1_555
C5C C4C 1_555 1_555
C5A C6A 1_555 1_555
C5E C4E 1_555 1_555
C6C C1C 1_555 1_555
C6A C1A 1_555 1_555
C6E C1E 1_555 1_555
C7A Ru1A 1_555 1_555
C7B N2B 1_555 1_555
C7G N2G 1_555 1_555
C7C Ru1 1_555 1_555
C7E Ru1A 1_555 1_555
C8C N1C 1_555 1_555
C8A N1A 1_555 1_555
C8E N1E 1_555 1_555
C9C C9 1_555 1_555
C9A N1A 1_555 1_555
C9E N1E 1_555 1_555
H1C C2C 1_555 1_555
H1A C2A 1_555 1_555
H1E C2E 1_555 1_555
H2C C3C 1_555 1_555
H2A C3A 1_555 1_555
H2E C3E 1_555 1_555
H3C C4C 1_555 1_555
H3A C4A 1_555 1_555
H3E C4E 1_555 1_555
H4C C5C 1_555 1_555
H4A C5A 1_555 1_555
H4E C5E 1_555 1_555
H5C C8C 1_555 1_555
H5A C8A 1_555 1_555
H5E C8E 1_555 1_555
H6C C9C 1_555 1_555
H6A C9A 1_555 1_555
H6E C9E 1_555 1_555
H7C C9C 1_555 1_555
H7A C9A 1_555 1_555
H7E C9E 1_555 1_555
N2 C7 1_555 1_555
C6 C8 1_555 1_555
N1C C9C 1_555 1_555
N2A C7A 1_555 1_555
C5C C6C 1_555 1_555
C5E C6E 1_555 1_555
C6C C8C 1_555 1_555
C6A C8A 1_555 1_555
C6E C8E 1_555 1_555
C9A C9E 1_555 1_555

#END
