
#######################################################################
#
#                 Cambridge Crystallographic Data Centre
#                                CCDC 
#
#######################################################################
#
# If this CIF has been generated from an entry in the Cambridge 
# Structural Database, then it will include bibliographic, chemical, 
# crystal, experimental, refinement or atomic coordinate data resulting 
# from the CCDC's data processing and validation procedures.
#
#######################################################################

data_YAWFOS
_symmetry_cell_setting           monoclinic
_symmetry_space_group_name_H-M   'P 21/c'
_symmetry_Int_Tables_number      14
_space_group_name_Hall           '-P 2ybc'
loop_
_symmetry_equiv_pos_site_id
_symmetry_equiv_pos_as_xyz
1 x,y,z
2 -x,1/2+y,1/2-z
3 -x,-y,-z
4 x,1/2-y,1/2+z
_cell_length_a                   8.8965(10)
_cell_length_b                   11.7193(14)
_cell_length_c                   52.414(6)
_cell_angle_alpha                90
_cell_angle_beta                 97.734(5)
_cell_angle_gamma                90
_cell_volume                     5415.01
loop_
_atom_site_label
_atom_site_type_symbol
_atom_site_fract_x
_atom_site_fract_y
_atom_site_fract_z
Cd1 Cd 0.32424(10) 0.11561(8) 0.069171(18)
Cd2 Cd 0.36123(11) 0.15717(8) 0.179368(18)
Cd3 Cd -0.11339(11) 0.44135(8) 0.183230(19)
Cd4 Cd 0.83484(11) 0.41036(8) 0.072676(19)
Cd5 Cd -0.12490(11) -0.09623(8) 0.210590(19)
Cd6 Cd -0.21714(11) -0.13440(8) 0.038950(18)
C1 C 0.3469(14) 0.1238(10) 0.1356(2)
N1 N 0.3402(15) 0.1160(10) 0.1140(3)
C2 C 0.6408(17) 0.2926(12) 0.0686(3)
N2 N 0.5361(12) 0.2323(9) 0.0698(2)
C3 C -0.0048(16) -0.0477(12) 0.0548(3)
N3 N 0.1044(14) -0.0022(10) 0.0629(2)
C4 C 0.2705(15) 0.1312(12) 0.0031(3)
N4 N 0.2958(14) 0.1265(11) 0.0253(2)
C5 C 0.5904(16) -0.0785(12) 0.0590(3)
N5 N 0.4881(14) -0.0413(10) 0.0675(2)
C6 C 0.0524(19) 0.3277(12) 0.0684(3)
N6 N 0.1599(13) 0.2769(10) 0.0676(2)
C7 C 0.1052(17) 0.3740(12) 0.1746(3)
N7 N 0.2131(14) 0.3245(10) 0.1710(2)
C8 C 0.0436(17) 0.0015(12) 0.1912(3)
N8 N 0.1406(14) 0.0538(10) 0.1844(2)
C9 C 0.6412(18) -0.0286(12) 0.2013(3)
N9 N 0.5283(14) 0.0130(10) 0.1940(2)
C10 C 0.6878(16) 0.3317(12) 0.1803(3)
N10 N 0.5783(14) 0.2716(11) 0.1783(2)
C11 C 0.8358(15) 0.4530(11) 0.1145(3)
N11 N 0.8253(13) 0.4664(10) 0.1361(2)
C12 C -0.1263(17) 0.6267(11) 0.1910(3)
N12 N -0.1277(15) 0.7218(12) 0.1963(2)
C13 C 0.0269(16) 0.3977(13) 0.2489(3)
N13 N -0.0372(16) 0.4036(12) 0.2280(3)
C14 C 0.8144(15) 0.5811(11) 0.0543(3)
N14 N 0.8099(13) 0.6779(10) 0.0488(2)
N18 N 0.3541(15) 0.2295(12) 0.2225(3)
H22 H 0.2642 0.2030 0.2182
H23 H 0.3867 0.2846 0.2139
C33 C 0.4507(17) 0.1814(14) 0.2444(3)
C34 C 0.398(2) 0.0937(15) 0.2580(3)
H24 H 0.2991 0.0673 0.2541
C35 C 0.500(3) 0.0436(17) 0.2786(4)
H25 H 0.4650 -0.0127 0.2888
C36 C 0.651(3) 0.0796(18) 0.2831(4)
H26 H 0.7186 0.0454 0.2958
C37 C 0.695(3) 0.164(2) 0.2686(4)
H27 H 0.7950 0.1902 0.2721
C38 C 0.600(2) 0.2146(16) 0.2491(4)
H28 H 0.6363 0.2709 0.2390
Cd3_2 Cd 0.88661(11) 0.44135(8) 0.183230(19)
Cd4_2 Cd -0.16516(11) 0.41036(8) 0.072676(19)
Cd5_2 Cd 0.87510(11) -0.09623(8) 0.210590(19)
Cd5_3 Cd -0.12490(11) 0.90377(8) 0.210590(19)
Cd5A Cd 0.12490(11) 0.40377(8) 0.289410(19)
Cd6B Cd 0.21714(11) 0.13440(8) -0.038950(18)
Cd6_2 Cd 0.78286(11) -0.13440(8) 0.038950(18)
Cd6_3 Cd 0.78286(11) 0.86560(8) 0.038950(18)
C4B C -0.2705(15) -0.1312(12) -0.0031(3)
C5_2 C -0.4096(16) -0.0785(12) 0.0590(3)
C6_2 C 1.0524(19) 0.3277(12) 0.0684(3)
C9_2 C -0.3588(18) -0.0286(12) 0.2013(3)
C10_2 C -0.3122(16) 0.3317(12) 0.1803(3)
N11_2 N -0.1747(13) 0.4664(10) 0.1361(2)
N12_2 N -0.1277(15) -0.2782(12) 0.1963(2)
C13A C -0.0269(16) -0.1023(13) 0.2511(3)
N14_2 N -0.1901(13) -0.3221(10) 0.0488(2)
N15 N 0.4667(14) 0.5210(9) 0.1195(2)
C15 C 0.4955(15) 0.5732(12) 0.1427(3)
H1 H 0.4667 0.5378 0.1572
C16 C 0.5669(16) 0.6781(12) 0.1453(3)
H2 H 0.5795 0.7161 0.1610
C17 C 0.6199(15) 0.7260(11) 0.1238(3)
C18 C 0.5863(15) 0.6707(11) 0.1003(3)
H3 H 0.6144 0.7033 0.0854
C19 C 0.5112(14) 0.5672(11) 0.0989(2)
H4 H 0.4917 0.5297 0.0832
N16 N 0.8465(12) 1.0456(9) 0.1276(2)
C20 C 0.7216(16) 1.0339(12) 0.1390(3)
H5 H 0.6859 1.0956 0.1476
C21 C 0.6457(15) 0.9314(11) 0.1381(3)
H6 H 0.5575 0.9239 0.1457
C22 C 0.7028(15) 0.8389(12) 0.1257(3)
C23 C 0.8313(16) 0.8508(12) 0.1141(3)
H7 H 0.8676 0.7900 0.1053
C24 C 0.9083(16) 0.9582(12) 0.1158(3)
H8 H 0.9985 0.9677 0.1089
C25 C 0.3928(17) 0.4074(12) 0.1183(3)
H9 H 0.3414 0.3945 0.1013
H10 H 0.3209 0.4047 0.1304
H11 H 0.4683 0.3494 0.1225
C26 C 0.9237(18) 1.1601(13) 0.1280(3)
H12 H 0.8555 1.2181 0.1324
H13 H 0.9520 1.1759 0.1114
H14 H 1.0128 1.1592 0.1406
N17 N 0.2341(15) 0.7201(11) 0.0745(2)
H15 H 0.2074 0.6588 0.0660
H16 H 0.2771 0.7746 0.0672
C27 C 0.2076(15) 0.7313(11) 0.1002(3)
C28 C 0.1391(16) 0.6461(12) 0.1126(3)
H17 H 0.1052 0.5807 0.1036
C29 C 0.1197(17) 0.6557(13) 0.1383(3)
H18 H 0.0679 0.5987 0.1458
C30 C 0.1754(17) 0.7480(13) 0.1529(3)
H19 H 0.1672 0.7519 0.1704
C31 C 0.2445(16) 0.8353(12) 0.1406(3)
H20 H 0.2803 0.8995 0.1500
C32 C 0.2609(16) 0.8280(11) 0.1145(3)
H21 H 0.3070 0.8871 0.1065
N19 N 0.3863(16) 0.4694(13) 0.0369(3)
H29 H 0.3317 0.4189 0.0432
H30 H 0.4836 0.4636 0.0393
C39 C 0.3179(17) 0.5597(13) 0.0230(3)
C40 C 0.405(2) 0.6431(17) 0.0127(4)
H31 H 0.5104 0.6368 0.0154
C41 C 0.341(2) 0.7346(17) -0.0015(3)
H32 H 0.4007 0.7860 -0.0091
C42 C 0.1832(19) 0.7482(14) -0.0041(3)
H33 H 0.1391 0.8131 -0.0122
C43 C 0.0933(17) 0.6670(15) 0.0050(3)
H34 H -0.0117 0.6741 0.0022
C44 C 0.1618(19) 0.5717(13) 0.0188(3)
H35 H 0.1009 0.5168 0.0251
loop_
_geom_bond_atom_site_label_1
_geom_bond_atom_site_label_2
_geom_bond_site_symmetry_1
_geom_bond_site_symmetry_2
Cd1 N1 1_555 1_555
Cd2 C1 1_555 1_555
Cd3 C7 1_555 1_555
Cd4 C2 1_555 1_555
Cd5 C8 1_555 1_555
Cd6 C3 1_555 1_555
C1 N1 1_555 1_555
C2 N2 1_555 1_555
N2 Cd1 1_555 1_555
C3 N3 1_555 1_555
N3 Cd1 1_555 1_555
C4 N4 1_555 1_555
N4 Cd1 1_555 1_555
C5 N5 1_555 1_555
N5 Cd1 1_555 1_555
C6 N6 1_555 1_555
N6 Cd1 1_555 1_555
C7 N7 1_555 1_555
N7 Cd2 1_555 1_555
C8 N8 1_555 1_555
N8 Cd2 1_555 1_555
C9 N9 1_555 1_555
N9 Cd2 1_555 1_555
C10 N10 1_555 1_555
N10 Cd2 1_555 1_555
C11 Cd4 1_555 1_555
N11 C11 1_555 1_555
C12 Cd3 1_555 1_555
N12 C12 1_555 1_555
C13 N13 1_555 1_555
N13 Cd3 1_555 1_555
C14 Cd4 1_555 1_555
N14 C14 1_555 1_555
N15 C15 1_555 1_555
C15 H1 1_555 1_555
C16 C15 1_555 1_555
H2 C16 1_555 1_555
C17 C16 1_555 1_555
C18 C17 1_555 1_555
H3 C18 1_555 1_555
C19 N15 1_555 1_555
H4 C19 1_555 1_555
N16 C20 1_555 1_555
C20 H5 1_555 1_555
C21 C20 1_555 1_555
H6 C21 1_555 1_555
C22 C17 1_555 1_555
C23 C22 1_555 1_555
H7 C23 1_555 1_555
C24 N16 1_555 1_555
H8 C24 1_555 1_555
C25 N15 1_555 1_555
H9 C25 1_555 1_555
H10 C25 1_555 1_555
H11 C25 1_555 1_555
C26 N16 1_555 1_555
H12 C26 1_555 1_555
H13 C26 1_555 1_555
H14 C26 1_555 1_555
N17 H15 1_555 1_555
H16 N17 1_555 1_555
C27 N17 1_555 1_555
C28 C27 1_555 1_555
H17 C28 1_555 1_555
C29 C28 1_555 1_555
H18 C29 1_555 1_555
C30 C29 1_555 1_555
H19 C30 1_555 1_555
C31 C30 1_555 1_555
H20 C31 1_555 1_555
C32 C27 1_555 1_555
H21 C32 1_555 1_555
N18 Cd2 1_555 1_555
H22 N18 1_555 1_555
H23 N18 1_555 1_555
C33 N18 1_555 1_555
C34 C33 1_555 1_555
H24 C34 1_555 1_555
C35 C34 1_555 1_555
H25 C35 1_555 1_555
C36 C35 1_555 1_555
H26 C36 1_555 1_555
C37 C36 1_555 1_555
H27 C37 1_555 1_555
C38 C33 1_555 1_555
H28 C38 1_555 1_555
N19 H29 1_555 1_555
H30 N19 1_555 1_555
C39 N19 1_555 1_555
C40 C39 1_555 1_555
H31 C40 1_555 1_555
C41 C40 1_555 1_555
H32 C41 1_555 1_555
C42 C41 1_555 1_555
H33 C42 1_555 1_555
C43 C42 1_555 1_555
H34 C43 1_555 1_555
C44 C39 1_555 1_555
H35 C44 1_555 1_555
Cd3_2 C10 1_555 1_555
Cd4_2 C6 1_555 1_555
Cd5_2 C9 1_555 1_555
Cd5_3 N12 1_555 1_555
Cd5A C13 1_555 1_555
Cd6B C4 1_555 1_555
Cd6_2 C5 1_555 1_555
Cd6_3 N14 1_555 1_555
C4B Cd6 1_555 1_555
C5_2 Cd6 1_555 1_555
C6_2 Cd4 1_555 1_555
C9_2 Cd5 1_555 1_555
C10_2 Cd3 1_555 1_555
N11_2 Cd3 1_555 1_555
N12_2 Cd5 1_555 1_555
C13A Cd5 1_555 1_555
N14_2 Cd6 1_555 1_555
N11 Cd3_2 1_555 1_555
C18 C19 1_555 1_555
C21 C22 1_555 1_555
C23 C24 1_555 1_555
C31 C32 1_555 1_555
C37 C38 1_555 1_555
C43 C44 1_555 1_555

#END
