
#######################################################################
#
#                 Cambridge Crystallographic Data Centre
#                                CCDC 
#
#######################################################################
#
# If this CIF has been generated from an entry in the Cambridge 
# Structural Database, then it will include bibliographic, chemical, 
# crystal, experimental, refinement or atomic coordinate data resulting 
# from the CCDC's data processing and validation procedures.
#
#######################################################################

data_YAWKOX
_symmetry_cell_setting           orthorhombic
_symmetry_space_group_name_H-M   'P n m a'
_symmetry_Int_Tables_number      62
_space_group_name_Hall           '-P 2ac 2n'
loop_
_symmetry_equiv_pos_site_id
_symmetry_equiv_pos_as_xyz
1 x,y,z
2 1/2-x,-y,1/2+z
3 1/2+x,1/2-y,1/2-z
4 -x,1/2+y,-z
5 -x,-y,-z
6 1/2+x,y,1/2-z
7 1/2-x,1/2+y,1/2+z
8 x,1/2-y,z
_cell_length_a                   8.717(4)
_cell_length_b                   31.05(2)
_cell_length_c                   13.083(9)
_cell_angle_alpha                90
_cell_angle_beta                 90
_cell_angle_gamma                90
_cell_volume                     3541.08
loop_
_atom_site_label
_atom_site_type_symbol
_atom_site_fract_x
_atom_site_fract_y
_atom_site_fract_z
Pr1 Pr 0.33122(4) 0.093304(10) 0.76085(2)
O1 O 0.2125(5) 0.08462(15) 0.9421(4)
O2 O 0.4523(5) 0.10492(15) 0.9352(3)
C1 C 0.3323(8) 0.09612(19) 0.9869(5)
C2 C 0.3419(10) 0.0984(2) 1.1036(5)
H1 H 0.3829 0.1262 1.1239
H2 H 0.2400 0.0956 1.1325
C3 C 0.4459(9) 0.0622(2) 1.1452(5)
H3 H 0.4664 0.0674 1.2170
H4 H 0.5430 0.0627 1.1091
C4 C 0.3720(8) 0.0180(2) 1.1326(5)
H5 H 0.3551 0.0127 1.0604
H6 H 0.2725 0.0183 1.1659
C5 C 0.4646(8) -0.0185(2) 1.1757(5)
O3 O 0.6085(5) -0.01751(14) 1.1738(4)
O4 O 0.3944(5) -0.05114(14) 1.2130(3)
O5 O 0.2681(5) 0.16865(13) 0.8238(4)
O6 O 0.0568(5) 0.13472(14) 0.7838(4)
C6 C 0.1264(7) 0.16907(19) 0.8125(5)
C7 C 0.0359(8) 0.2091(2) 0.8361(6)
H7 H 0.0044 0.2084 0.9072
H8 H -0.0561 0.2094 0.7944
C8 C 0.1254(11) 0.2500 0.8169(9)
H9 H 0.2155 0.2500 0.8604
H10 H 0.1604 0.2500 0.7465
O7 O 0.2459(6) 0.13140(16) 0.5976(4)
O8 O 0.4327(5) 0.05091(17) 0.6013(4)
Pr1D Pr 0.66878(4) -0.093304(10) 1.23915(2)
Pr1A Pr 0.16878(4) -0.093304(10) 1.26085(2)
Pr1E Pr -0.16878(4) 0.093304(10) 0.73915(2)
Pr1G Pr 0.33122(4) 0.406696(10) 0.76085(2)
Pr1B Pr -0.16878(4) 0.406696(10) 0.73915(2)
Pr1E_2 Pr 0.83122(4) 0.093304(10) 0.73915(2)
O1D O 0.7875(5) -0.08462(15) 1.0579(4)
O2D O 0.5477(5) -0.10492(15) 1.0648(3)
C1D C 0.6677(8) -0.09612(19) 1.0131(5)
C2D C 0.6581(10) -0.0984(2) 0.8964(5)
H1D H 0.6171 -0.1262 0.8761
H2D H 0.7600 -0.0956 0.8675
C3D C 0.5541(9) -0.0622(2) 0.8548(5)
H3D H 0.5336 -0.0674 0.7830
H4D H 0.4570 -0.0627 0.8909
C4D C 0.6280(8) -0.0180(2) 0.8674(5)
H5D H 0.6449 -0.0127 0.9396
H6D H 0.7275 -0.0183 0.8341
C5D C 0.5354(8) 0.0185(2) 0.8243(5)
O3D O 0.3915(5) 0.01751(14) 0.8262(4)
O4D O 0.6056(5) 0.05114(14) 0.7870(3)
O4A O 0.1056(5) 0.05114(14) 0.7130(3)
O4E O 0.8944(5) -0.05114(14) 1.2870(3)
O5G O 0.2681(5) 0.33135(13) 0.8238(4)
O5D O 0.7319(5) -0.16865(13) 1.1762(4)
O6G O 0.0568(5) 0.36528(14) 0.7838(4)
O6E O 0.5568(5) 0.13472(14) 0.7162(4)
O6D O 0.9432(5) -0.13472(14) 1.2162(4)
O6A O 0.4432(5) -0.13472(14) 1.2838(4)
C6G C 0.1264(7) 0.33093(19) 0.8125(5)
C7G C 0.0359(8) 0.2909(2) 0.8361(6)
H7G H 0.0044 0.2916 0.9072
H8G H -0.0561 0.2906 0.7944
O7D O 0.7541(6) -0.13140(16) 1.4024(4)
O8D O 0.5673(5) -0.05091(17) 1.3987(4)
O9 O 0.3559(6) 0.02724(18) 0.4014(4)
O10 O 0.3832(14) 0.1218(3) 0.4051(8)
O11 O 0.432(2) 0.2063(3) 0.9851(14)
O12 O 0.1421(18) 0.1865(6) 0.3558(15)
O13 O 0.9106(19) 0.8103(6) 0.8508(14)
O14 O 0.862(4) 0.2500 0.112(4)
loop_
_geom_bond_atom_site_label_1
_geom_bond_atom_site_label_2
_geom_bond_site_symmetry_1
_geom_bond_site_symmetry_2
Pr1 O1 1_555 1_555
O1 C1 1_555 1_555
O2 Pr1 1_555 1_555
C1 O2 1_555 1_555
C2 C1 1_555 1_555
H1 C2 1_555 1_555
H2 C2 1_555 1_555
C3 C2 1_555 1_555
H3 C3 1_555 1_555
H4 C3 1_555 1_555
C4 C3 1_555 1_555
H5 C4 1_555 1_555
H6 C4 1_555 1_555
C5 C4 1_555 1_555
O3 C5 1_555 1_555
O4 C5 1_555 1_555
O5 Pr1 1_555 1_555
O6 Pr1 1_555 1_555
C6 O5 1_555 1_555
C7 C6 1_555 1_555
H7 C7 1_555 1_555
H8 C7 1_555 1_555
C8 C7 1_555 1_555
H9 C8 1_555 1_555
H10 C8 1_555 1_555
O7 Pr1 1_555 1_555
O8 Pr1 1_555 1_555
Pr1D O3 1_555 1_555
Pr1A O4 1_555 1_555
Pr1E O6 1_555 1_555
Pr1G O5G 1_555 1_555
Pr1B O6G 1_555 1_555
Pr1E_2 O4D 1_555 1_555
O1D Pr1D 1_555 1_555
O2D Pr1D 1_555 1_555
C1D O1D 1_555 1_555
C2D C1D 1_555 1_555
H1D C2D 1_555 1_555
H2D C2D 1_555 1_555
C3D C2D 1_555 1_555
H3D C3D 1_555 1_555
H4D C3D 1_555 1_555
C4D C3D 1_555 1_555
H5D C4D 1_555 1_555
H6D C4D 1_555 1_555
C5D C4D 1_555 1_555
O3D Pr1 1_555 1_555
O4D Pr1 1_555 1_555
O4A Pr1 1_555 1_555
O4E Pr1D 1_555 1_555
O5G C6G 1_555 1_555
O5D Pr1D 1_555 1_555
O6G Pr1G 1_555 1_555
O6E Pr1 1_555 1_555
O6D Pr1D 1_555 1_555
O6A Pr1D 1_555 1_555
C6G O6G 1_555 1_555
C7G C8 1_555 1_555
H7G C7G 1_555 1_555
H8G C7G 1_555 1_555
O7D Pr1D 1_555 1_555
O8D Pr1D 1_555 1_555
O4 Pr1D 1_555 1_555
O6 C6 1_555 1_555
Pr1A O6A 1_555 1_555
Pr1E O4A 1_555 1_555
Pr1E_2 O6E 1_555 1_555
O2D C1D 1_555 1_555
C5D O3D 1_555 1_555
C5D O4D 1_555 1_555
C6G C7G 1_555 1_555

#END
