
#######################################################################
#
#                 Cambridge Crystallographic Data Centre
#                                CCDC 
#
#######################################################################
#
# If this CIF has been generated from an entry in the Cambridge 
# Structural Database, then it will include bibliographic, chemical, 
# crystal, experimental, refinement or atomic coordinate data resulting 
# from the CCDC's data processing and validation procedures.
#
#######################################################################

data_YAWKEN
_symmetry_cell_setting           monoclinic
_symmetry_space_group_name_H-M   'P 21/a'
_symmetry_Int_Tables_number      14
_space_group_name_Hall           '-P 2yab'
loop_
_symmetry_equiv_pos_site_id
_symmetry_equiv_pos_as_xyz
1 x,y,z
2 1/2-x,1/2+y,-z
3 -x,-y,-z
4 1/2+x,1/2-y,z
_cell_length_a                   8.8236(14)
_cell_length_b                   13.7529(15)
_cell_length_c                   12.674(2)
_cell_angle_alpha                90
_cell_angle_beta                 107.134(13)
_cell_angle_gamma                90
_cell_volume                     1469.73
loop_
_atom_site_label
_atom_site_type_symbol
_atom_site_fract_x
_atom_site_fract_y
_atom_site_fract_z
Er1 Er 0.02028(3) 0.39455(2) 0.11703(3)
C1 C -0.2114(7) 0.4775(6) 0.2031(6)
O1 O -0.1260(6) 0.5253(4) 0.1575(5)
O2 O -0.1963(5) 0.3860(5) 0.2096(4)
C2 C -0.3334(7) 0.5301(6) 0.2428(6)
H1 H -0.2901 0.5916 0.2758
H2 H -0.3598 0.4915 0.2990
C3 C -0.4823(8) 0.5487(6) 0.1480(6)
H3 H -0.5235 0.4869 0.1149
H4 H -0.4544 0.5869 0.0922
C4 C -0.6130(6) 0.6016(7) 0.1820(5)
H5 H -0.5801 0.6678 0.2039
H6 H -0.6331 0.5688 0.2442
C5 C -0.7613(6) 0.6025(7) 0.0855(5)
O3 O -0.8618(5) 0.5326(4) 0.0721(4)
O4 O -0.7846(5) 0.6667(4) 0.0124(4)
C6 C 0.2850(7) 0.3887(8) 0.3072(6)
O5 O 0.2967(5) 0.3605(3) 0.2149(4)
O6 O 0.1523(6) 0.4236(4) 0.3088(4)
C7 C 0.4203(9) 0.3823(9) 0.4092(6)
H7 H 0.4493 0.4476 0.4367
H8 H 0.5103 0.3547 0.3905
C8 C 0.3896(11) 0.3224(7) 0.5002(7)
H9 H 0.4736 0.3336 0.5683
H10 H 0.2903 0.3427 0.5116
C9 C 0.3817(12) 0.2185(7) 0.4734(8)
H11 H 0.4782 0.2004 0.4564
H12 H 0.2939 0.2079 0.4073
C10 C 0.3619(16) 0.1529(10) 0.5613(10)
O7 O 0.3694(13) 0.0622(9) 0.5444(9)
O8 O 0.3251(15) 0.1785(8) 0.6412(10)
O9 O 0.0367(6) 0.2330(4) 0.1710(4)
O10 O 0.1210(6) 0.3310(4) -0.0186(4)
Er1_2 Er -0.97972(3) 0.39455(2) 0.11703(3)
Er1B Er -1.02028(3) 0.60545(2) -0.11703(3)
O3_2 O 0.1382(5) 0.5326(4) 0.0721(4)
O3B O -0.1382(5) 0.4674(4) -0.0721(4)
O4B O -0.2154(5) 0.3333(4) -0.0124(4)
loop_
_geom_bond_atom_site_label_1
_geom_bond_atom_site_label_2
_geom_bond_site_symmetry_1
_geom_bond_site_symmetry_2
Er1 O1 1_555 1_555
C1 O1 1_555 1_555
O2 Er1 1_555 1_555
C2 C1 1_555 1_555
H1 C2 1_555 1_555
H2 C2 1_555 1_555
C3 C2 1_555 1_555
H3 C3 1_555 1_555
H4 C3 1_555 1_555
C4 C3 1_555 1_555
H5 C4 1_555 1_555
H6 C4 1_555 1_555
C5 C4 1_555 1_555
O3 C5 1_555 1_555
O4 C5 1_555 1_555
C6 O5 1_555 1_555
O5 Er1 1_555 1_555
O6 Er1 1_555 1_555
C7 C6 1_555 1_555
H7 C7 1_555 1_555
H8 C7 1_555 1_555
C8 C7 1_555 1_555
H9 C8 1_555 1_555
H10 C8 1_555 1_555
C9 C8 1_555 1_555
H11 C9 1_555 1_555
H12 C9 1_555 1_555
C10 C9 1_555 1_555
O7 C10 1_555 1_555
O8 C10 1_555 1_555
O9 Er1 1_555 1_555
O10 Er1 1_555 1_555
Er1_2 O3 1_555 1_555
Er1B O3 1_555 1_555
O3_2 Er1 1_555 1_555
O3B Er1 1_555 1_555
O4B Er1 1_555 1_555
C1 O2 1_555 1_555
O4 Er1B 1_555 1_555
C6 O6 1_555 1_555

#END
