
#######################################################################
#
#                 Cambridge Crystallographic Data Centre
#                                CCDC 
#
#######################################################################
#
# If this CIF has been generated from an entry in the Cambridge 
# Structural Database, then it will include bibliographic, chemical, 
# crystal, experimental, refinement or atomic coordinate data resulting 
# from the CCDC's data processing and validation procedures.
#
#######################################################################

data_YAWKIR
_symmetry_cell_setting           monoclinic
_symmetry_space_group_name_H-M   'I 2/a'
_symmetry_Int_Tables_number      15
_space_group_name_Hall           '-I 2ya'
loop_
_symmetry_equiv_pos_site_id
_symmetry_equiv_pos_as_xyz
1 x,y,z
2 1/2+x,1/2+y,1/2+z
3 1/2-x,y,-z
4 -x,1/2+y,1/2-z
5 -x,-y,-z
6 1/2-x,1/2-y,1/2-z
7 1/2+x,-y,z
8 x,1/2-y,1/2+z
_cell_length_a                   7.8616(11)
_cell_length_b                   15.276(2)
_cell_length_c                   8.0117(10)
_cell_angle_alpha                90
_cell_angle_beta                 99.783(11)
_cell_angle_gamma                90
_cell_volume                     948.164
loop_
_atom_site_label
_atom_site_type_symbol
_atom_site_fract_x
_atom_site_fract_y
_atom_site_fract_z
Pr1 Pr 0.2500 0.294487(11) 0.0000
Cl1 Cl 0.2500 0.48025(6) 0.0000
O1 O 0.1251(3) 0.31198(12) -0.2966(2)
O2 O 0.0272(3) 0.33051(14) -0.5654(2)
O3 O -0.0266(3) 0.34753(15) 0.0865(3)
H1 H -0.019(8) 0.346(4) 0.199(8)
H2 H -0.058(5) 0.391(3) 0.063(5)
C1 C 0.0133(3) 0.34433(15) -0.4143(3)
C2 C -0.1338(4) 0.3954(2) -0.3632(4)
H3 H -0.075(6) 0.436(3) -0.271(6)
H4 H -0.199(6) 0.356(3) -0.316(6)
C3 C -0.2500 0.4468(3) -0.5000
H5 H -0.318(6) 0.483(3) -0.441(6)
Pr1G Pr 0.2500 0.205513(11) -0.5000
Pr1_2 Pr -0.7500 0.294487(11) -1.0000
Pr1G_2 Pr -0.7500 0.205513(11) -0.5000
O1B O -0.6251(3) 0.31198(12) -0.7034(2)
O1G O 0.1251(3) 0.18802(12) 0.2034(2)
O1E O 0.3749(3) 0.18802(12) -0.2034(2)
O1B_2 O 0.3749(3) 0.31198(12) 0.2966(2)
O2B O -0.5272(3) 0.33051(14) -0.4346(2)
O2G O 0.0272(3) 0.16949(14) -0.0654(2)
O2E O 0.4728(3) 0.16949(14) 0.0654(2)
O3B O 0.5266(3) 0.34753(15) -0.0865(3)
H1B H 0.519(8) 0.346(4) -0.199(8)
H2B H 0.558(5) 0.391(3) -0.063(5)
C1B C -0.5133(3) 0.34433(15) -0.5857(3)
C2B C -0.3662(4) 0.3954(2) -0.6368(4)
H3B H -0.425(6) 0.436(3) -0.729(6)
H4B H -0.301(6) 0.356(3) -0.684(6)
H5B H -0.182(6) 0.483(3) -0.559(6)
loop_
_geom_bond_atom_site_label_1
_geom_bond_atom_site_label_2
_geom_bond_site_symmetry_1
_geom_bond_site_symmetry_2
Pr1 Cl1 1_555 1_555
O1 Pr1 1_555 1_555
O2 C1 1_555 1_555
O3 Pr1 1_555 1_555
H1 O3 1_555 1_555
H2 O3 1_555 1_555
C1 O1 1_555 1_555
C2 C1 1_555 1_555
H3 C2 1_555 1_555
H4 C2 1_555 1_555
C3 C2 1_555 1_555
H5 C3 1_555 1_555
Pr1G O1 1_555 1_555
Pr1_2 O1B 1_555 1_555
Pr1G_2 O1B 1_555 1_555
O1B C1B 1_555 1_555
O1G Pr1 1_555 1_555
O1E Pr1 1_555 1_555
O1B_2 Pr1 1_555 1_555
O2B Pr1G_2 1_555 1_555
O2G Pr1 1_555 1_555
O2E Pr1 1_555 1_555
O3B Pr1 1_555 1_555
H1B O3B 1_555 1_555
H2B O3B 1_555 1_555
C1B O2B 1_555 1_555
C2B C3 1_555 1_555
H3B C2B 1_555 1_555
H4B C2B 1_555 1_555
H5B C3 1_555 1_555
O2 Pr1G 1_555 1_555
Pr1G O1E 1_555 1_555
C1B C2B 1_555 1_555

#END
