
#######################################################################
#
#                 Cambridge Crystallographic Data Centre
#                                CCDC 
#
#######################################################################
#
# If this CIF has been generated from an entry in the Cambridge 
# Structural Database, then it will include bibliographic, chemical, 
# crystal, experimental, refinement or atomic coordinate data resulting 
# from the CCDC's data processing and validation procedures.
#
#######################################################################

data_YAWLOX
_symmetry_cell_setting           triclinic
_symmetry_space_group_name_H-M   'P 1'
_symmetry_Int_Tables_number      1
_space_group_name_Hall           'P 1'
loop_
_symmetry_equiv_pos_site_id
_symmetry_equiv_pos_as_xyz
1 x,y,z
_cell_length_a                   9.906
_cell_length_b                   13.052(5)
_cell_length_c                   13.703(5)
_cell_angle_alpha                109.63(3)
_cell_angle_beta                 110.31(2)
_cell_angle_gamma                100.73(3)
_cell_volume                     1470.17
loop_
_atom_site_label
_atom_site_type_symbol
_atom_site_fract_x
_atom_site_fract_y
_atom_site_fract_z
Gd1 Gd 0.6950 0.7663 0.3017
Gd2 Gd 1.2064(1) 0.8105(1) 0.2967(1)
O1 O 0.9392(19) 0.8964(14) 0.3885(14)
O2 O 1.1877(23) 0.9748(17) 0.4352(16)
N1 N 1.2454(18) 1.1555(14) 0.6277(14)
C1 C 1.0701(23) 0.9739(15) 0.4522(15)
C2 C 1.0842(18) 1.0751(13) 0.5539(13)
C3 C 0.9883(26) 1.1478(18) 0.5202(22)
C4 C 1.0915(38) 1.2744(24) 0.5961(34)
C5 C 1.2527(45) 1.2702(27) 0.6231(43)
O3 O 0.7316(18) 0.6036(13) 0.1788(13)
O4 O 0.9668(22) 0.6654(16) 0.1985(16)
N2 N 0.6816(19) 0.3825(14) 0.0643(14)
C6 C 0.8477(21) 0.5892(13) 0.1702(15)
C7 C 0.8413(18) 0.4666(12) 0.1150(14)
C8 C 0.8958(23) 0.4383(15) 0.0203(16)
C9 C 0.8134(22) 0.3059(15) -0.0492(20)
C10 C 0.6549(23) 0.2928(18) -0.0522(17)
O5 O 0.5914(15) 0.9117(11) 0.3062(11)
O6 O 1.3694(13) 0.9458(10) 0.2718(10)
N3 N 0.6457(16) 1.0399(12) 0.1908(11)
C11 C 0.5007(17) 0.9649(12) 0.2791(13)
C12 C 0.5670(18) 1.0712(13) 0.2668(14)
C13 C 0.4423(22) 1.1084(17) 0.1985(15)
C14 C 0.3943(25) 1.0282(20) 0.0725(17)
C15 C 0.5307(23) 0.9906(22) 0.0672(16)
O7 O 0.5264(14) 0.6103(10) 0.3036(10)
O8 O 1.3493(13) 0.6883(10) 0.3055(10)
N4 N 0.3794(18) 0.4166(12) 0.3019(13)
C16 C 0.4038(20) 0.6078(14) 0.3062(15)
C17 C 0.3254(21) 0.5165(13) 0.3317(14)
C18 C 0.3556(27) 0.5559(17) 0.4589(15)
C19 C 0.3458(38) 0.4462(22) 0.4780(26)
C20 C 0.4193(30) 0.3857(22) 0.4022(18)
O9 O 1.1867(23) 0.7101(18) 0.1002(17)
O10 O 0.9996(18) 0.7439(13) -0.0179(13)
N5 N 0.9237(18) 0.5503(16) -0.2011(13)
C21 C 1.0918(23) 0.6935(16) 0.0008(15)
C22 C 1.0812(20) 0.5988(18) -0.1027(15)
C23 C 1.1929(27) 0.6399(24) -0.1479(20)
C24 C 1.1069(26) 0.6042(30) -0.2773(21)
C25 C 0.9403(25) 0.5658(22) -0.3002(18)
O11 O 0.7123(19) 0.8562(14) 0.4977(14)
O12 O 0.8004(17) 0.7589(13) 0.5942(12)
N6 N 0.7326(20) 0.8617(16) 0.7680(14)
C26 C 0.7422(24) 0.8316(17) 0.5805(15)
C27 C 0.7206(25) 0.9090(15) 0.6799(15)
C28 C 0.8490(29) 1.0281(21) 0.7492(25)
C29 C 0.9747(35) 1.0147(31) 0.8412(32)
C30 C 0.8877(25) 0.9251(22) 0.8678(20)
O13 O 0.8604(20) 0.6858(15) 0.4165(14)
O14 O 0.7474(22) 0.8321(17) 0.1620(16)
O15 O 0.4640(21) 0.6774(15) 0.1161(15)
O16 O 1.0373(22) 0.8830(16) 0.1770(16)
O17 O 1.1634(23) 0.7482(17) 0.4369(17)
O18 O 1.4427(20) 0.9124(15) 0.4792(15)
O6_2 O 0.3694(13) 0.9458(10) 0.2718(10)
Gd2_2 Gd 0.2064(1) 0.8105(1) 0.2967(1)
O8_2 O 0.3493(13) 0.6883(10) 0.3055(10)
Cl1 Cl 0.2844(11) 0.3388(8) 0.9715(9)
O19 O 0.3892(26) 0.4289(19) 0.9703(19)
O20 O 0.3787(32) 0.3270(24) 1.0747(23)
O21 O 0.1343(48) 0.3350(34) 0.9327(35)
O22 O 0.2519(33) 0.2323(24) 0.8741(24)
Cl2 Cl 0.6319(11) 0.2336(9) 0.6147(8)
O23 O 0.5569(27) 0.1581(20) 0.6526(20)
O24 O 0.5671(50) 0.3088(35) 0.5818(36)
O25 O 0.6730(31) 0.1615(22) 0.5350(23)
O26 O 0.7864(38) 0.3077(29) 0.7152(28)
Cl3 Cl 0.3618(10) 0.9218(7) 0.7465(6)
O27 O 0.3023(32) 0.9743(23) 0.6756(23)
O28 O 0.3706(29) 0.8160(21) 0.6644(21)
O29 O 0.2765(30) 0.8860(22) 0.8027(22)
O30 O 0.5246(26) 0.9863(19) 0.8312(19)
Cl4 Cl 0.5891(7) 0.6212(6) 0.8358(6)
O31 O 0.6638(30) 0.5637(22) 0.8978(22)
O32 O 0.4329(23) 0.5488(17) 0.7649(17)
O33 O 0.6601(19) 0.6334(15) 0.7648(14)
O34 O 0.6045(26) 0.7383(20) 0.9108(19)
Cl5 Cl 0.0082(8) 0.1586(6) 0.1784(7)
O35 O 0.0573(21) 0.2709(15) 0.1912(15)
O36 O 0.0032(40) 0.1611(28) 0.2860(29)
O37 O 0.1088(27) 0.1009(19) 0.1552(20)
O38 O -0.1445(25) 0.1014(18) 0.0902(18)
Cl6 Cl 0.8159(7) 0.3851(5) 0.3512(6)
O39 O 0.8054(24) 0.3382(18) 0.4304(17)
O40 O 0.9578(25) 0.4609(19) 0.3785(19)
O41 O 0.7105(22) 0.4469(16) 0.3359(16)
O42 O 0.7602(20) 0.2890(14) 0.2376(14)
loop_
_geom_bond_atom_site_label_1
_geom_bond_atom_site_label_2
_geom_bond_site_symmetry_1
_geom_bond_site_symmetry_2
Gd1 O1 1_555 1_555
Gd2 O2 1_555 1_555
O1 C1 1_555 1_555
O2 C1 1_555 1_555
N1 C2 1_555 1_555
C1 C2 1_555 1_555
C2 C3 1_555 1_555
C3 C4 1_555 1_555
C4 C5 1_555 1_555
C5 N1 1_555 1_555
O3 Gd1 1_555 1_555
O4 Gd2 1_555 1_555
N2 C7 1_555 1_555
C6 O3 1_555 1_555
C7 C6 1_555 1_555
C8 C7 1_555 1_555
C9 C8 1_555 1_555
C10 N2 1_555 1_555
O5 Gd1 1_555 1_555
O6 Gd2 1_555 1_555
N3 C12 1_555 1_555
C11 O5 1_555 1_555
C12 C11 1_555 1_555
C13 C12 1_555 1_555
C14 C13 1_555 1_555
C15 N3 1_555 1_555
O7 Gd1 1_555 1_555
O8 Gd2 1_555 1_555
N4 C17 1_555 1_555
C16 O7 1_555 1_555
C17 C16 1_555 1_555
C18 C17 1_555 1_555
C19 C18 1_555 1_555
C20 N4 1_555 1_555
O9 Gd2 1_555 1_555
O10 C21 1_555 1_555
N5 C22 1_555 1_555
C21 O9 1_555 1_555
C22 C21 1_555 1_555
C23 C22 1_555 1_555
C24 C23 1_555 1_555
C25 N5 1_555 1_555
O11 Gd1 1_555 1_555
O12 C26 1_555 1_555
N6 C27 1_555 1_555
C26 O11 1_555 1_555
C27 C26 1_555 1_555
C28 C27 1_555 1_555
C29 C28 1_555 1_555
C30 N6 1_555 1_555
O13 Gd1 1_555 1_555
O14 Gd1 1_555 1_555
O15 Gd1 1_555 1_555
O16 Gd2 1_555 1_555
O17 Gd2 1_555 1_555
O18 Gd2 1_555 1_555
Cl1 O19 1_555 1_555
O20 Cl1 1_555 1_555
O21 Cl1 1_555 1_555
O22 Cl1 1_555 1_555
Cl2 O23 1_555 1_555
O24 Cl2 1_555 1_555
O25 Cl2 1_555 1_555
O26 Cl2 1_555 1_555
Cl3 O27 1_555 1_555
O28 Cl3 1_555 1_555
O29 Cl3 1_555 1_555
O30 Cl3 1_555 1_555
Cl4 O31 1_555 1_555
O32 Cl4 1_555 1_555
O33 Cl4 1_555 1_555
O34 Cl4 1_555 1_555
Cl5 O35 1_555 1_555
O36 Cl5 1_555 1_555
O37 Cl5 1_555 1_555
O38 Cl5 1_555 1_555
Cl6 O39 1_555 1_555
O40 Cl6 1_555 1_555
O41 Cl6 1_555 1_555
O42 Cl6 1_555 1_555
O6_2 C11 1_555 1_555
Gd2_2 O6_2 1_555 1_555
O8_2 C16 1_555 1_555
O4 C6 1_555 1_555
C9 C10 1_555 1_555
C14 C15 1_555 1_555
C19 C20 1_555 1_555
C24 C25 1_555 1_555
C29 C30 1_555 1_555
Gd2_2 O8_2 1_555 1_555

#END
