
#######################################################################
#
#                 Cambridge Crystallographic Data Centre
#                                CCDC 
#
#######################################################################
#
# If this CIF has been generated from an entry in the Cambridge 
# Structural Database, then it will include bibliographic, chemical, 
# crystal, experimental, refinement or atomic coordinate data resulting 
# from the CCDC's data processing and validation procedures.
#
#######################################################################

data_YAWQET
_symmetry_cell_setting           monoclinic
_symmetry_space_group_name_H-M   'P 21/c'
_symmetry_Int_Tables_number      14
_space_group_name_Hall           '-P 2ybc'
loop_
_symmetry_equiv_pos_site_id
_symmetry_equiv_pos_as_xyz
1 x,y,z
2 -x,1/2+y,1/2-z
3 -x,-y,-z
4 x,1/2-y,1/2+z
_cell_length_a                   17.133(5)
_cell_length_b                   22.219(5)
_cell_length_c                   19.058(5)
_cell_angle_alpha                90
_cell_angle_beta                 112.408(5)
_cell_angle_gamma                90
_cell_volume                     6707.16
loop_
_atom_site_label
_atom_site_type_symbol
_atom_site_fract_x
_atom_site_fract_y
_atom_site_fract_z
Cu1 Cu 0.84794(4) -0.16715(2) 0.67511(3)
Cu2 Cu 0.92237(4) 0.01683(2) 0.62373(3)
Cu3 Cu 0.55665(4) -0.03902(3) 0.45609(4)
Cu4 Cu 1.06104(4) -0.02607(2) 0.95097(3)
Cl1 Cl 0.84035(8) -0.05153(5) 0.68049(7)
Cl2 Cl 0.59604(8) -0.00406(6) 0.58072(8)
Cl3 Cl 0.91796(9) -0.00438(5) 0.90829(7)
O1 O 0.5430(3) -0.07950(15) 0.34591(19)
O2 O 1.19472(16) -0.05089(11) 0.97074(17)
N1 N 0.7192(2) -0.17316(17) 0.6481(2)
H1 H 0.7067 -0.2131 0.6439
N2 N 0.8800(2) -0.17244(15) 0.7907(2)
H2 H 0.8861 -0.2123 0.8023
N3 N 0.8133(3) -0.18158(17) 0.5629(2)
N4 N 0.7077(5) -0.1846(2) 0.4512(3)
H3 H 0.6580 -0.1826 0.4161
N5 N 0.9718(3) -0.18103(17) 0.7095(2)
N6 N 1.0947(3) -0.1827(2) 0.8050(4)
H4 H 1.1336 -0.1789 0.8495
N7 N 0.5459(4) -0.2137(3) 0.5342(4)
H5 H 0.5689 -0.2454 0.5595
N8 N 0.5322(2) -0.11852(19) 0.4871(3)
N9 N 1.0194(3) -0.21179(16) 0.9429(2)
H6 H 1.0049 -0.2460 0.9204
N10 N 1.0395(3) -0.11300(15) 0.9624(2)
N11 N 0.8152(2) 0.06549(16) 0.5634(2)
H7 H 0.8302 0.0927 0.5351
N12 N 0.9605(3) 0.07544(16) 0.7165(2)
H8 H 0.9920 0.1046 0.7063
N13 N 0.8897(3) -0.02261(18) 0.5211(2)
N14 N 0.7916(4) -0.0415(2) 0.4116(3)
N15 N 1.0377(3) -0.01598(18) 0.6778(2)
N16 N 1.1504(3) -0.0132(3) 0.7849(3)
N17 N 0.6049(3) 0.03428(19) 0.4259(2)
N18 N 0.6870(4) 0.0999(3) 0.4061(3)
H9 H 0.7306 0.1203 0.4086
N19 N 1.0873(3) 0.05576(16) 0.9199(2)
N20 N 1.1060(3) 0.12808(18) 0.8514(3)
H10 H 1.1035 0.1483 0.8121
C1 C 0.4594(4) -0.1438(3) 0.4611(4)
H11 H 0.4100 -0.1251 0.4293
C2 C 0.4642(5) -0.2051(4) 0.4878(6)
H12 H 0.4204 -0.2329 0.4755
C3 C 0.5848(4) -0.1569(2) 0.5310(4)
C4 C 0.6783(3) -0.1475(2) 0.5699(3)
H13 H 0.6881 -0.1039 0.5742
C5 C 0.7315(4) -0.1731(2) 0.5285(3)
C6 C 0.7868(6) -0.2009(3) 0.4439(5)
H14 H 0.7935 -0.2102 0.3989
C7 C 0.8462(5) -0.2003(3) 0.5113(3)
H15 H 0.9023 -0.2108 0.5227
C8 C 0.6828(3) -0.1482(2) 0.7018(3)
H16 H 0.6235 -0.1587 0.6845
H17 H 0.6873 -0.1047 0.7029
C9 C 0.7308(3) -0.1740(2) 0.7830(3)
H18 H 0.6974 -0.1661 0.8133
H19 H 0.7352 -0.2173 0.7793
C10 C 0.8191(3) -0.1484(2) 0.8246(3)
H20 H 0.8171 -0.1049 0.8211
H21 H 0.8390 -0.1593 0.8778
C11 C 0.9644(3) -0.14602(18) 0.8273(2)
H22 H 0.9588 -0.1024 0.8190
C12 C 1.0144(3) -0.1704(2) 0.7823(3)
C13 C 1.0256(4) -0.2029(3) 0.6766(5)
H23 H 1.0116 -0.2135 0.6260
C14 C 1.1019(6) -0.2056(3) 0.7327(5)
H24 H 1.1511 -0.2193 0.7282
C15 C 1.0075(3) -0.15602(18) 0.9091(3)
C16 C 1.0582(4) -0.2022(2) 1.0182(3)
H25 H 1.0725 -0.2315 1.0558
C17 C 1.0724(4) -0.14242(19) 1.0293(3)
H26 H 1.1008 -0.1243 1.0761
C18 C 0.5538(5) 0.0670(3) 0.3694(4)
H27 H 0.4963 0.0612 0.3426
C19 C 0.5997(5) 0.1081(5) 0.3591(4)
H28 H 0.5792 0.1398 0.3252
C20 C 0.6810(3) 0.0500(2) 0.4462(3)
C21 C 0.7556(3) 0.0245(2) 0.5103(3)
H29 H 0.7335 -0.0017 0.5397
C22 C 0.8109(3) -0.0148(2) 0.4807(3)
C23 C 0.8658(4) -0.0716(3) 0.4146(4)
H30 H 0.8723 -0.0942 0.3761
C24 C 0.9241(4) -0.0613(2) 0.4832(3)
H31 H 0.9785 -0.0771 0.5025
C25 C 0.7714(3) 0.0999(2) 0.6048(3)
H32 H 0.7442 0.0722 0.6277
H33 H 0.7282 0.1253 0.5695
C26 C 0.8372(4) 0.1403(3) 0.6689(3)
H34 H 0.8712 0.1621 0.6466
H35 H 0.8061 0.1698 0.6854
C27 C 0.8950(3) 0.1074(2) 0.7368(3)
H36 H 0.8633 0.0785 0.7536
H37 H 0.9220 0.1355 0.7779
C28 C 1.0179(3) 0.04123(18) 0.7796(2)
H38 H 0.9829 0.0126 0.7939
C29 C 1.0718(3) 0.0038(2) 0.7491(3)
C30 C 1.0972(4) -0.0524(3) 0.6677(4)
H39 H 1.0907 -0.0740 0.6241
C31 C 1.1669(4) -0.0512(3) 0.7322(4)
H40 H 1.2170 -0.0716 0.7408
C32 C 1.0686(3) 0.07492(18) 0.8508(3)
C33 C 1.1385(4) 0.0969(2) 0.9676(3)
H41 H 1.1627 0.0935 1.0201
C34 C 1.1491(4) 0.1447(3) 0.9260(4)
H42 H 1.1787 0.1802 0.9442
Cu3B Cu 0.44335(4) 0.03902(3) 0.54391(4)
Cu4B Cu 0.93896(4) 0.02607(2) 1.04903(3)
Cl2B Cl 0.40396(8) 0.00406(6) 0.41928(8)
Cl3B Cl 1.08204(9) 0.00438(5) 1.09171(7)
Cl4 Cl 0.92857(11) -0.31269(5) 0.81379(9)
Cl5 Cl 0.87342(12) 0.15565(6) 0.46440(10)
O3 O 0.67558(19) -0.31472(14) 0.61069(17)
O4 O 1.2341(5) -0.1728(4) 0.9350(5)
O5 O 1.3029(8) 0.0407(6) 0.8989(7)
O6 O 0.6484(6) -0.0404(4) 0.2782(5)
O7 O 0.5508(7) -0.2223(5) 0.3319(6)
loop_
_geom_bond_atom_site_label_1
_geom_bond_atom_site_label_2
_geom_bond_site_symmetry_1
_geom_bond_site_symmetry_2
Cu1 Cl1 1_555 1_555
Cu2 Cl1 1_555 1_555
Cu3 Cl2 1_555 1_555
Cu4 Cl3 1_555 1_555
Cl2 Cu3B 1_555 1_555
Cl3 Cu4B 1_555 1_555
O1 Cu3 1_555 1_555
O2 Cu4 1_555 1_555
N1 Cu1 1_555 1_555
H1 N1 1_555 1_555
N2 Cu1 1_555 1_555
H2 N2 1_555 1_555
N3 Cu1 1_555 1_555
N4 H3 1_555 1_555
N5 Cu1 1_555 1_555
N6 H4 1_555 1_555
N7 H5 1_555 1_555
N8 Cu3 1_555 1_555
N9 H6 1_555 1_555
N10 Cu4 1_555 1_555
N11 Cu2 1_555 1_555
H7 N11 1_555 1_555
N12 Cu2 1_555 1_555
H8 N12 1_555 1_555
N13 Cu2 1_555 1_555
N14 C22 1_555 1_555
N15 Cu2 1_555 1_555
N16 C29 1_555 1_555
N17 Cu3 1_555 1_555
N18 H9 1_555 1_555
N19 Cu4 1_555 1_555
N20 H10 1_555 1_555
C1 N8 1_555 1_555
H11 C1 1_555 1_555
C2 N7 1_555 1_555
H12 C2 1_555 1_555
C3 N7 1_555 1_555
C4 N1 1_555 1_555
H13 C4 1_555 1_555
C5 N3 1_555 1_555
C6 N4 1_555 1_555
H14 C6 1_555 1_555
C7 N3 1_555 1_555
H15 C7 1_555 1_555
C8 N1 1_555 1_555
H16 C8 1_555 1_555
H17 C8 1_555 1_555
C9 C8 1_555 1_555
H18 C9 1_555 1_555
H19 C9 1_555 1_555
C10 N2 1_555 1_555
H20 C10 1_555 1_555
H21 C10 1_555 1_555
C11 N2 1_555 1_555
H22 C11 1_555 1_555
C12 N5 1_555 1_555
C13 N5 1_555 1_555
H23 C13 1_555 1_555
C14 N6 1_555 1_555
H24 C14 1_555 1_555
C15 N9 1_555 1_555
C16 N9 1_555 1_555
H25 C16 1_555 1_555
C17 N10 1_555 1_555
H26 C17 1_555 1_555
C18 N17 1_555 1_555
H27 C18 1_555 1_555
C19 N18 1_555 1_555
H28 C19 1_555 1_555
C20 N17 1_555 1_555
C21 N11 1_555 1_555
H29 C21 1_555 1_555
C22 N13 1_555 1_555
C23 N14 1_555 1_555
H30 C23 1_555 1_555
C24 N13 1_555 1_555
H31 C24 1_555 1_555
C25 N11 1_555 1_555
H32 C25 1_555 1_555
H33 C25 1_555 1_555
C26 C25 1_555 1_555
H34 C26 1_555 1_555
H35 C26 1_555 1_555
C27 N12 1_555 1_555
H36 C27 1_555 1_555
H37 C27 1_555 1_555
C28 N12 1_555 1_555
H38 C28 1_555 1_555
C29 N15 1_555 1_555
C30 N15 1_555 1_555
H39 C30 1_555 1_555
C31 N16 1_555 1_555
H40 C31 1_555 1_555
C32 N19 1_555 1_555
C33 N19 1_555 1_555
H41 C33 1_555 1_555
C34 N20 1_555 1_555
H42 C34 1_555 1_555
Cu3B Cl2B 1_555 1_555
Cu4B Cl3B 1_555 1_555
Cl2B Cu3 1_555 1_555
Cl3B Cu4 1_555 1_555
N4 C5 1_555 1_555
N6 C12 1_555 1_555
N8 C3 1_555 1_555
N10 C15 1_555 1_555
N18 C20 1_555 1_555
N20 C32 1_555 1_555
C1 C2 1_555 1_555
C3 C4 1_555 1_555
C4 C5 1_555 1_555
C6 C7 1_555 1_555
C9 C10 1_555 1_555
C11 C12 1_555 1_555
C11 C15 1_555 1_555
C13 C14 1_555 1_555
C16 C17 1_555 1_555
C18 C19 1_555 1_555
C20 C21 1_555 1_555
C21 C22 1_555 1_555
C23 C24 1_555 1_555
C26 C27 1_555 1_555
C28 C29 1_555 1_555
C28 C32 1_555 1_555
C30 C31 1_555 1_555
C33 C34 1_555 1_555

#END
