
#######################################################################
#
#                 Cambridge Crystallographic Data Centre
#                                CCDC 
#
#######################################################################
#
# If this CIF has been generated from an entry in the Cambridge 
# Structural Database, then it will include bibliographic, chemical, 
# crystal, experimental, refinement or atomic coordinate data resulting 
# from the CCDC's data processing and validation procedures.
#
#######################################################################

data_YAWSUL
_symmetry_cell_setting           monoclinic
_symmetry_space_group_name_H-M   'P 21/c'
_symmetry_Int_Tables_number      14
_space_group_name_Hall           '-P 2ybc'
loop_
_symmetry_equiv_pos_site_id
_symmetry_equiv_pos_as_xyz
1 x,y,z
2 -x,1/2+y,1/2-z
3 -x,-y,-z
4 x,1/2-y,1/2+z
_cell_length_a                   7.3681(9)
_cell_length_b                   11.329(2)
_cell_length_c                   23.190(7)
_cell_angle_alpha                90
_cell_angle_beta                 91.517(17)
_cell_angle_gamma                90
_cell_volume                     1935.07
loop_
_atom_site_label
_atom_site_type_symbol
_atom_site_fract_x
_atom_site_fract_y
_atom_site_fract_z
Cu1 Cu 0.15891(6) 0.28215(4) 0.250080(18)
S1 S 0.33753(13) 0.02229(8) 0.32037(4)
O1 O 0.1563(4) 0.4658(3) 0.19803(14)
O2 O -0.0929(4) 0.2993(3) 0.27525(13)
O3 O 0.4123(4) 0.2453(2) 0.22634(12)
O4 O 0.3475(4) -0.0857(3) 0.28494(16)
O5 O 0.3237(5) -0.0083(4) 0.38116(14)
O6 O 0.1771(4) 0.0902(2) 0.30050(12)
O7 O 0.5039(4) 0.0917(3) 0.31157(13)
N1 N 0.0727(4) 0.2018(3) 0.17619(14)
N2 N 0.2562(4) 0.3624(3) 0.32287(13)
C1 C -0.0244(6) 0.2581(4) 0.1353(2)
H1 H -0.0714 0.3322 0.1437
C2 C -0.0583(6) 0.2112(4) 0.08107(19)
H2 H -0.1253 0.2542 0.0538
C3 C 0.0073(5) 0.1004(3) 0.06719(15)
C4 C 0.1009(6) 0.0402(4) 0.11067(16)
H3 H 0.1438 -0.0357 0.1040
C5 C 0.1309(6) 0.0923(4) 0.16384(17)
H4 H 0.1939 0.0501 0.1923
C6 C -0.0246(5) 0.0526(4) 0.00878(16)
H5 H -0.0847 0.1009 -0.0179
C7 C 0.3389(6) 0.4667(4) 0.32127(17)
H6 H 0.3459 0.5050 0.2859
C8 C 0.4154(6) 0.5211(4) 0.36985(17)
H7 H 0.4704 0.5947 0.3668
C9 C 0.4093(5) 0.4655(4) 0.42260(16)
C10 C 0.3220(6) 0.3567(4) 0.42448(16)
H8 H 0.3148 0.3162 0.4592
C11 C 0.2464(6) 0.3092(4) 0.37476(17)
H9 H 0.1860 0.2373 0.3770
C12 C 0.4923(6) 0.5239(4) 0.47376(18)
H10 H 0.550(6) 0.609(4) 0.4664(19)
Cu1B Cu -0.15891(6) -0.28215(4) -0.250080(18)
Cu1B_2 Cu 0.84109(6) 0.71785(4) 0.749920(18)
S1B S -0.33753(13) -0.02229(8) -0.32037(4)
O1B O -0.1563(4) -0.4658(3) -0.19803(14)
O2B O 0.0929(4) -0.2993(3) -0.27525(13)
O3B O -0.4123(4) -0.2453(2) -0.22634(12)
O4B O -0.3475(4) 0.0857(3) -0.28494(16)
O5B O -0.3237(5) 0.0083(4) -0.38116(14)
O6B O -0.1771(4) -0.0902(2) -0.30050(12)
O7B O -0.5039(4) -0.0917(3) -0.31157(13)
N1B N -0.0727(4) -0.2018(3) -0.17619(14)
N2B N 0.7438(4) 0.6376(3) 0.67713(13)
N2B_2 N -0.2562(4) -0.3624(3) -0.32287(13)
C1B C 0.0244(6) -0.2581(4) -0.1353(2)
H1B H 0.0714 -0.3322 -0.1437
C2B C 0.0583(6) -0.2112(4) -0.08107(19)
H2B H 0.1253 -0.2542 -0.0538
C3B C -0.0073(5) -0.1004(3) -0.06719(15)
C4B C -0.1009(6) -0.0402(4) -0.11067(16)
H3B H -0.1438 0.0357 -0.1040
C5B C -0.1309(6) -0.0923(4) -0.16384(17)
H4B H -0.1939 -0.0501 -0.1923
C6B C 0.0246(5) -0.0526(4) -0.00878(16)
H5B H 0.0847 -0.1009 0.0179
C7B C 0.6611(6) 0.5333(4) 0.67873(17)
H6B H 0.6541 0.4950 0.7141
C8B C 0.5846(6) 0.4789(4) 0.63015(17)
H7B H 0.5296 0.4053 0.6332
C9B C 0.5907(5) 0.5345(4) 0.57740(16)
C10B C 0.6780(6) 0.6433(4) 0.57552(16)
H8B H 0.6852 0.6838 0.5408
C11B C 0.7536(6) 0.6908(4) 0.62524(17)
H9B H 0.8140 0.7627 0.6230
C12B C 0.5077(6) 0.4761(4) 0.52624(18)
H10B H 0.450(6) 0.391(4) 0.5336(19)
O8 O 0.160(4) 0.0686(13) 0.4758(10)
O9 O 0.5932(15) -0.1605(10) 0.4311(5)
O10 O -0.101(4) 0.1087(17) 0.4537(7)
O11 O -0.2430(7) 0.2401(4) 0.37496(19)
loop_
_geom_bond_atom_site_label_1
_geom_bond_atom_site_label_2
_geom_bond_site_symmetry_1
_geom_bond_site_symmetry_2
Cu1 O1 1_555 1_555
S1 O4 1_555 1_555
O2 Cu1 1_555 1_555
O3 Cu1 1_555 1_555
O5 S1 1_555 1_555
O6 Cu1 1_555 1_555
O7 S1 1_555 1_555
N1 Cu1 1_555 1_555
N2 Cu1 1_555 1_555
C1 N1 1_555 1_555
H1 C1 1_555 1_555
C2 C1 1_555 1_555
H2 C2 1_555 1_555
C3 C2 1_555 1_555
C4 C3 1_555 1_555
H3 C4 1_555 1_555
C5 N1 1_555 1_555
H4 C5 1_555 1_555
C6 C3 1_555 1_555
H5 C6 1_555 1_555
C7 N2 1_555 1_555
H6 C7 1_555 1_555
C8 C7 1_555 1_555
H7 C8 1_555 1_555
C9 C8 1_555 1_555
C10 C9 1_555 1_555
H8 C10 1_555 1_555
C11 N2 1_555 1_555
H9 C11 1_555 1_555
C12 C9 1_555 1_555
H10 C12 1_555 1_555
Cu1B O1B 1_555 1_555
Cu1B_2 N2B 1_555 1_555
S1B O4B 1_555 1_555
O2B Cu1B 1_555 1_555
O3B Cu1B 1_555 1_555
O5B S1B 1_555 1_555
O6B Cu1B 1_555 1_555
O7B S1B 1_555 1_555
N1B Cu1B 1_555 1_555
N2B C7B 1_555 1_555
N2B_2 Cu1B 1_555 1_555
C1B N1B 1_555 1_555
H1B C1B 1_555 1_555
C2B C1B 1_555 1_555
H2B C2B 1_555 1_555
C3B C2B 1_555 1_555
C4B C3B 1_555 1_555
H3B C4B 1_555 1_555
C5B N1B 1_555 1_555
H4B C5B 1_555 1_555
C6B C6 1_555 1_555
H5B C6B 1_555 1_555
C7B H6B 1_555 1_555
C8B C7B 1_555 1_555
H7B C8B 1_555 1_555
C9B C8B 1_555 1_555
C10B C9B 1_555 1_555
H8B C10B 1_555 1_555
C11B N2B 1_555 1_555
H9B C11B 1_555 1_555
C12B C12 1_555 1_555
H10B C12B 1_555 1_555
S1 O6 1_555 1_555
C4 C5 1_555 1_555
C10 C11 1_555 1_555
S1B O6B 1_555 1_555
C3B C6B 1_555 1_555
C4B C5B 1_555 1_555
C9B C12B 1_555 1_555
C10B C11B 1_555 1_555

#END
