
#######################################################################
#
#                 Cambridge Crystallographic Data Centre
#                                CCDC 
#
#######################################################################
#
# If this CIF has been generated from an entry in the Cambridge 
# Structural Database, then it will include bibliographic, chemical, 
# crystal, experimental, refinement or atomic coordinate data resulting 
# from the CCDC's data processing and validation procedures.
#
#######################################################################

data_YAWTIA
_symmetry_cell_setting           trigonal
_symmetry_space_group_name_H-M   'P 3 1 c'
_symmetry_Int_Tables_number      159
_space_group_name_Hall           "P 3 -2'c"
loop_
_symmetry_equiv_pos_site_id
_symmetry_equiv_pos_as_xyz
1 x,y,z
2 -y,x-y,z
3 -x+y,-x,z
4 y,x,1/2+z
5 x-y,-y,1/2+z
6 -x,-x+y,1/2+z
_cell_length_a                   13.0370(11)
_cell_length_b                   13.0370(11)
_cell_length_c                   9.1886(6)
_cell_angle_alpha                90
_cell_angle_beta                 90
_cell_angle_gamma                120
_cell_volume                     1352.49
loop_
_atom_site_label
_atom_site_type_symbol
_atom_site_fract_x
_atom_site_fract_y
_atom_site_fract_z
Ce1 Ce 0.6667 0.3333 0.74971(3)
N1 N 0.8890(2) 0.42376(19) 0.7473(3)
O1 O 0.7729(2) 0.4874(2) 0.9168(3)
O2 O 0.9372(3) 0.6454(2) 0.9990(3)
O3 O 0.74518(19) 0.2550(2) 0.5793(3)
O4 O 0.8849(3) 0.2227(3) 0.4908(3)
C1 C 0.8850(3) 0.5549(3) 0.9246(4)
C2 C 0.9554(3) 0.5168(3) 0.8312(3)
C3 C 1.0784(3) 0.5726(3) 0.8293(4)
H1 H 1.1240 0.6378 0.8882
C4 C 1.1311(3) 0.5281(3) 0.7370(4)
H2 H 1.2131 0.5637 0.7333
C5 C 1.0612(3) 0.4304(3) 0.6503(4)
H3 H 1.0952 0.3994 0.5882
C6 C 0.9389(3) 0.3803(3) 0.6588(4)
C7 C 0.8512(3) 0.2769(3) 0.5693(3)
N1A N 0.57624(19) 0.46524(28) 0.7473(3)
N1B N 0.53476(28) 0.1110(2) 0.7473(3)
O1A O 0.5126(2) 0.2855(3) 0.9168(3)
O1B O 0.7145(3) 0.2271(2) 0.9168(3)
O2A O 0.3546(2) 0.2918(4) 0.9990(3)
O2B O 0.7082(4) 0.0628(3) 0.9990(3)
O3A O 0.7450(2) 0.49018(28) 0.5793(3)
O3B O 0.50982(28) 0.25482(19) 0.5793(3)
O4A O 0.7773(3) 0.6622(4) 0.4908(3)
O4B O 0.3378(4) 0.1151(3) 0.4908(3)
C1A C 0.4451(3) 0.3301(4) 0.9246(4)
C1B C 0.6699(4) 0.1150(3) 0.9246(4)
C2A C 0.4832(3) 0.4386(4) 0.8312(3)
C2B C 0.5614(4) 0.0446(3) 0.8312(3)
C3A C 0.4274(3) 0.5058(4) 0.8293(4)
C3B C 0.4942(4) -0.0784(3) 0.8293(4)
H1A H 0.3622 0.4862 0.8882
H1B H 0.5138 -0.1240 0.8882
C4A C 0.4719(3) 0.6030(4) 0.7370(4)
C4B C 0.3970(4) -0.1311(3) 0.7370(4)
H2A H 0.4363 0.6494 0.7333
H2B H 0.3506 -0.2131 0.7333
C5A C 0.5696(3) 0.6308(4) 0.6503(4)
C5B C 0.3692(4) -0.0612(3) 0.6503(4)
H3A H 0.6006 0.6958 0.5882
H3B H 0.3042 -0.0952 0.5882
C6A C 0.6197(3) 0.5586(4) 0.6588(4)
C6B C 0.4414(4) 0.0611(3) 0.6588(4)
C7A C 0.7231(3) 0.5743(4) 0.5693(3)
C7B C 0.4257(4) 0.1488(3) 0.5693(3)
Ba1 Ba 1.0000 1.0000 0.70917(3)
O5 O 0.7644(2) 0.9349(3) 0.7481(3)
H4 H 0.7039 0.8646 0.7516
H5 H 0.7477 0.9688 0.6795
O6 O 0.8447(2) 0.8938(2) 0.4528(3)
H6 H 0.8391 0.8754 0.3621
H7 H 0.7806 0.8950 0.4707
Ba1C Ba 1.0000 1.0000 0.20917(3)
O5A O 1.0651(3) 0.8295(4) 0.7481(3)
O5B O 1.1705(4) 1.2356(2) 0.7481(3)
H4A H 1.1354 0.8393 0.7516
H4B H 1.1607 1.2961 0.7516
H5A H 1.0312 0.7789 0.6795
H5B H 1.2211 1.2523 0.6795
O6A O 1.1062(2) 0.9509(3) 0.4528(3)
O6B O 1.0491(3) 1.1553(2) 0.4528(3)
O6C O 0.8938(2) 0.8447(2) 0.9528(3)
O6D O 0.9509(3) 1.1062(2) 0.9528(3)
O6E O 1.1553(2) 1.0491(3) 0.9528(3)
H6A H 1.1246 0.9637 0.3621
H6B H 1.0363 1.1609 0.3621
H6C H 0.8754 0.8391 0.8621
H6D H 0.9637 1.1246 0.8621
H6E H 1.1609 1.0363 0.8621
H7A H 1.1050 0.8856 0.4707
H7B H 1.1144 1.2194 0.4707
H7C H 0.8950 0.7806 0.9707
H7D H 0.8856 1.1050 0.9707
H7E H 1.2194 1.1144 0.9707
loop_
_geom_bond_atom_site_label_1
_geom_bond_atom_site_label_2
_geom_bond_site_symmetry_1
_geom_bond_site_symmetry_2
Ce1 N1 1_555 1_555
N1 C2 1_555 1_555
O1 Ce1 1_555 1_555
O2 C1 1_555 1_555
O3 Ce1 1_555 1_555
O4 C7 1_555 1_555
C1 O1 1_555 1_555
C2 C1 1_555 1_555
C3 C2 1_555 1_555
H1 C3 1_555 1_555
C4 C3 1_555 1_555
H2 C4 1_555 1_555
C5 C4 1_555 1_555
H3 C5 1_555 1_555
C6 N1 1_555 1_555
C7 O3 1_555 1_555
Ba1 O5 1_555 1_555
O5 H4 1_555 1_555
H5 O5 1_555 1_555
O6 Ba1 1_555 1_555
H6 O6 1_555 1_555
H7 O6 1_555 1_555
N1A Ce1 1_555 1_555
N1B Ce1 1_555 1_555
O1A Ce1 1_555 1_555
O1B Ce1 1_555 1_555
O2A C1A 1_555 1_555
O2B C1B 1_555 1_555
O3A Ce1 1_555 1_555
O3B Ce1 1_555 1_555
O4A C7A 1_555 1_555
O4B C7B 1_555 1_555
C1A O1A 1_555 1_555
C1B O1B 1_555 1_555
C2A N1A 1_555 1_555
C2B N1B 1_555 1_555
C3A C2A 1_555 1_555
C3B C2B 1_555 1_555
H1A C3A 1_555 1_555
H1B C3B 1_555 1_555
C4A C3A 1_555 1_555
C4B C3B 1_555 1_555
H2A C4A 1_555 1_555
H2B C4B 1_555 1_555
C5A C4A 1_555 1_555
C5B C4B 1_555 1_555
H3A C5A 1_555 1_555
H3B C5B 1_555 1_555
C6A N1A 1_555 1_555
C6B N1B 1_555 1_555
C7A O3A 1_555 1_555
C7B O3B 1_555 1_555
Ba1C O6 1_555 1_555
O5A Ba1 1_555 1_555
O5B Ba1 1_555 1_555
H4A O5A 1_555 1_555
H4B O5B 1_555 1_555
H5A O5A 1_555 1_555
H5B O5B 1_555 1_555
O6A Ba1 1_555 1_555
O6B Ba1 1_555 1_555
O6C Ba1 1_555 1_555
O6D Ba1 1_555 1_555
O6E Ba1 1_555 1_555
H6A O6A 1_555 1_555
H6B O6B 1_555 1_555
H6C O6C 1_555 1_555
H6D O6D 1_555 1_555
H6E O6E 1_555 1_555
H7A O6A 1_555 1_555
H7B O6B 1_555 1_555
H7C O6C 1_555 1_555
H7D O6D 1_555 1_555
H7E O6E 1_555 1_555
C5 C6 1_555 1_555
C6 C7 1_555 1_555
C1A C2A 1_555 1_555
C1B C2B 1_555 1_555
C5A C6A 1_555 1_555
C5B C6B 1_555 1_555
C6A C7A 1_555 1_555
C6B C7B 1_555 1_555
Ba1C O6A 1_555 1_555
Ba1C O6B 1_555 1_555

#END
