
#######################################################################
#
#                 Cambridge Crystallographic Data Centre
#                                CCDC 
#
#######################################################################
#
# If this CIF has been generated from an entry in the Cambridge 
# Structural Database, then it will include bibliographic, chemical, 
# crystal, experimental, refinement or atomic coordinate data resulting 
# from the CCDC's data processing and validation procedures.
#
#######################################################################

data_YAWZIG
_symmetry_cell_setting           triclinic
_symmetry_space_group_name_H-M   'P -1'
_symmetry_Int_Tables_number      2
_space_group_name_Hall           '-P 1'
loop_
_symmetry_equiv_pos_site_id
_symmetry_equiv_pos_as_xyz
1 x,y,z
2 -x,-y,-z
_cell_length_a                   7.1912(3)
_cell_length_b                   13.9627(6)
_cell_length_c                   14.1582(6)
_cell_angle_alpha                67.723(2)
_cell_angle_beta                 79.058(2)
_cell_angle_gamma                79.926(3)
_cell_volume                     1283.26
loop_
_atom_site_label
_atom_site_type_symbol
_atom_site_fract_x
_atom_site_fract_y
_atom_site_fract_z
Cu1 Cu -0.00676(8) 0.76205(5) 0.66045(5)
Cu2 Cu -0.70858(8) 0.75166(5) 1.17498(5)
O1 O -0.1714(5) 0.8339(3) 0.7792(2)
O2 O -0.2564(4) 0.7438(2) 0.6366(2)
O3 O -0.8935(5) 0.9674(3) 0.6003(3)
O4 O -0.7752(5) 0.8029(3) 0.6778(3)
O5 O -0.6656(6) 0.8585(3) 0.9133(3)
O6 O -0.6715(5) 0.7047(3) 1.0406(3)
O7 O 0.4479(4) 0.2025(2) 0.8578(2)
O8 O 0.6136(4) 0.3866(3) 0.7214(2)
O9 O 0.1503(6) 0.5546(3) 0.6464(3)
O10 O 0.0258(5) 0.6189(3) 0.7693(3)
O11 O -0.0510(5) 0.2539(3) 0.6355(3)
O12 O -0.0357(5) 0.2886(3) 0.7752(3)
O13 O 0.0414(5) 0.8304(3) 0.5070(3)
H1 H 0.003(10) 0.9017(19) 0.484(5)
H2 H 0.033(11) 0.804(4) 0.456(4)
O14 O -0.8059(6) 0.8987(4) 1.1110(4)
H3 H -0.754(8) 0.914(6) 1.041(2)
H4 H -0.939(3) 0.905(6) 1.116(5)
N1 N -0.3097(5) 0.9036(3) 0.7348(3)
N2 N -0.3707(5) 0.6960(3) 0.7232(3)
N3 N 0.3122(5) 0.2736(3) 0.8797(3)
N4 N 0.5090(5) 0.3732(3) 0.6592(3)
C1 C -0.2904(7) 1.0055(4) 0.7003(4)
H5 H -0.1866 1.0281 0.7129
C2 C -0.4254(8) 1.0758(4) 0.6462(5)
H6 H -0.4138 1.1466 0.6223
C3 C -0.5788(8) 1.0421(4) 0.6270(4)
H7 H -0.6666 1.0900 0.5872
C4 C -0.6018(7) 0.9375(4) 0.6667(4)
C5 C -0.4669(7) 0.8686(4) 0.7245(4)
C6 C -0.4724(6) 0.7551(4) 0.7760(4)
C7 C -0.5706(7) 0.7053(4) 0.8732(4)
C8 C -0.5794(6) 0.6001(4) 0.9040(4)
H8 H -0.6485 0.5660 0.9672
C9 C -0.4885(7) 0.5439(4) 0.8435(4)
H9 H -0.5022 0.4737 0.8634
C10 C -0.3774(7) 0.5931(4) 0.7535(4)
H10 H -0.3075 0.5556 0.7139
C11 C -0.7723(7) 0.9007(4) 0.6467(4)
C12 C -0.6468(7) 0.7625(4) 0.9476(4)
C13 C 0.2363(7) 0.2585(4) 0.9785(4)
H11 H 0.2734 0.1976 1.0311
C14 C 0.1046(7) 0.3331(4) 1.0008(4)
H12 H 0.0455 0.3216 1.0679
C15 C 0.0604(7) 0.4257(4) 0.9224(4)
H13 H -0.0223 0.4785 0.9379
C16 C 0.1368(6) 0.4412(4) 0.8214(4)
C17 C 0.2566(6) 0.3593(4) 0.8004(3)
C18 C 0.3263(6) 0.3534(3) 0.6969(3)
C19 C 0.2213(7) 0.3266(4) 0.6403(4)
C20 C 0.3008(7) 0.3302(4) 0.5416(4)
H14 H 0.2325 0.3130 0.5018
C21 C 0.4803(7) 0.3592(4) 0.5036(4)
H15 H 0.5305 0.3657 0.4362
C22 C 0.5873(7) 0.3788(4) 0.5633(4)
H16 H 0.7112 0.3955 0.5381
C23 C 0.1012(7) 0.5460(4) 0.7365(4)
C24 C 0.0268(7) 0.2871(4) 0.6861(4)
Cu1_2 Cu -1.00676(8) 0.76205(5) 0.66045(5)
Cu2A Cu 0.70858(8) 0.24834(5) 0.82502(5)
Cu2A_2 Cu -0.29142(8) 0.24834(5) 0.82502(5)
O4_2 O 0.2248(5) 0.8029(3) 0.6778(3)
O7A O -0.4479(4) 0.7975(2) 1.1422(2)
O8A O -0.6136(4) 0.6134(3) 1.2786(2)
O12A O -0.9643(5) 0.7114(3) 1.2248(3)
O16 O 1.1904(11) 0.0672(6) 0.8438(7)
O15? O 1.1987(17) 0.0483(9) 0.9052(10)
O17? O 1.010(5) -0.039(3) 0.847(3)
loop_
_geom_bond_atom_site_label_1
_geom_bond_atom_site_label_2
_geom_bond_site_symmetry_1
_geom_bond_site_symmetry_2
Cu1 O1 1_555 1_555
Cu2 O6 1_555 1_555
O1 N1 1_555 1_555
O2 Cu1 1_555 1_555
O3 C11 1_555 1_555
O4 C11 1_555 1_555
O5 C12 1_555 1_555
O6 C12 1_555 1_555
O7 N3 1_555 1_555
O8 N4 1_555 1_555
O9 C23 1_555 1_555
O10 Cu1 1_555 1_555
O11 C24 1_555 1_555
O12 C24 1_555 1_555
O13 Cu1 1_555 1_555
H1 O13 1_555 1_555
H2 O13 1_555 1_555
O14 Cu2 1_555 1_555
H3 O14 1_555 1_555
H4 O14 1_555 1_555
N1 C1 1_555 1_555
N2 O2 1_555 1_555
N3 C13 1_555 1_555
N4 C18 1_555 1_555
C1 H5 1_555 1_555
C2 C1 1_555 1_555
H6 C2 1_555 1_555
C3 C2 1_555 1_555
H7 C3 1_555 1_555
C4 C3 1_555 1_555
C5 N1 1_555 1_555
C6 N2 1_555 1_555
C7 C6 1_555 1_555
C8 C7 1_555 1_555
H8 C8 1_555 1_555
C9 C8 1_555 1_555
H9 C9 1_555 1_555
C10 N2 1_555 1_555
H10 C10 1_555 1_555
C11 C4 1_555 1_555
C12 C7 1_555 1_555
C13 H11 1_555 1_555
C14 C13 1_555 1_555
H12 C14 1_555 1_555
C15 C14 1_555 1_555
H13 C15 1_555 1_555
C16 C15 1_555 1_555
C17 N3 1_555 1_555
C18 C17 1_555 1_555
C19 C18 1_555 1_555
C20 C19 1_555 1_555
H14 C20 1_555 1_555
C21 C20 1_555 1_555
H15 C21 1_555 1_555
C22 N4 1_555 1_555
H16 C22 1_555 1_555
C23 O10 1_555 1_555
C24 C19 1_555 1_555
Cu1_2 O4 1_555 1_555
Cu2A O7 1_555 1_555
Cu2A_2 O12 1_555 1_555
O4_2 Cu1 1_555 1_555
O7A Cu2 1_555 1_555
O8A Cu2 1_555 1_555
O12A Cu2 1_555 1_555
O8 Cu2A 1_555 1_555
C4 C5 1_555 1_555
C5 C6 1_555 1_555
C9 C10 1_555 1_555
C16 C17 1_555 1_555
C16 C23 1_555 1_555
C21 C22 1_555 1_555

#END
