
#######################################################################
#
#                 Cambridge Crystallographic Data Centre
#                                CCDC 
#
#######################################################################
#
# If this CIF has been generated from an entry in the Cambridge 
# Structural Database, then it will include bibliographic, chemical, 
# crystal, experimental, refinement or atomic coordinate data resulting 
# from the CCDC's data processing and validation procedures.
#
#######################################################################

data_YAXBOP
_symmetry_cell_setting           monoclinic
_symmetry_space_group_name_H-M   'I 2/a'
_symmetry_Int_Tables_number      15
_space_group_name_Hall           '-I 2ya'
loop_
_symmetry_equiv_pos_site_id
_symmetry_equiv_pos_as_xyz
1 x,y,z
2 1/2+x,1/2+y,1/2+z
3 1/2-x,y,-z
4 -x,1/2+y,1/2-z
5 -x,-y,-z
6 1/2-x,1/2-y,1/2-z
7 1/2+x,-y,z
8 x,1/2-y,1/2+z
_cell_length_a                   6.889(2)
_cell_length_b                   11.073(3)
_cell_length_c                   18.280(6)
_cell_angle_alpha                90.00
_cell_angle_beta                 92.655(6)
_cell_angle_gamma                90.00
_cell_volume                     1392.94
loop_
_atom_site_label
_atom_site_type_symbol
_atom_site_fract_x
_atom_site_fract_y
_atom_site_fract_z
Fe1 Fe 0.0000 0.0000 0.0000
O1 O -0.2500 0.0818(7) 0.0000
O2 O 0.1103(7) 0.1260(5) 0.0712(3)
O3 O 0.4325(7) 0.1006(5) 0.0888(3)
C1 C 0.2596(11) 0.1946(8) 0.1815(4)
C2 C 0.4262(11) 0.2157(9) 0.2252(5)
H1 H 0.5462 0.1919 0.2088
C3 C 0.2650(12) 0.1340(7) 0.1085(4)
C4 C 0.0825(11) 0.2295(9) 0.2085(5)
H2 H -0.0317 0.2151 0.1807
Fe1F Fe -0.5000 0.0000 0.0000
Fe1F_2 Fe 0.5000 0.0000 0.0000
Fe1A Fe 0.5000 0.5000 0.5000
Fe1G Fe 0.0000 0.5000 0.5000
O1F O 0.2500 -0.0818(7) 0.0000
O2E O 0.3897(7) 0.3740(5) 0.4288(3)
O2D O -0.1103(7) -0.1260(5) -0.0712(3)
O3E O 0.0675(7) 0.3994(5) 0.4112(3)
O3F O -0.0675(7) -0.1006(5) 0.0888(3)
O3B O 0.0675(7) 0.1006(5) -0.0888(3)
C1E C 0.2404(11) 0.3054(8) 0.3185(4)
C2E C 0.0738(11) 0.2843(9) 0.2748(5)
H1E H -0.0462 0.3081 0.2912
C3E C 0.2350(12) 0.3660(7) 0.3915(4)
C4E C 0.4175(11) 0.2705(9) 0.2915(5)
H2E H 0.5317 0.2849 0.3193
N1 N 0.7500 0.3242(17) 0.0000
C5 C 0.7500 0.587(4) 0.0000
H3 H 0.7500 0.6705 0.0000
C6 C 0.789(6) 0.514(2) -0.0594(16)
H4 H 0.8088 0.5495 -0.1044
C7 C 0.798(4) 0.388(2) -0.0535(14)
H5 H 0.8455 0.3468 -0.0933
C6B C 0.711(6) 0.514(2) 0.0594(16)
H4B H 0.6912 0.5495 0.1044
C7B C 0.702(4) 0.388(2) 0.0535(14)
H5B H 0.6545 0.3468 0.0933
loop_
_geom_bond_atom_site_label_1
_geom_bond_atom_site_label_2
_geom_bond_site_symmetry_1
_geom_bond_site_symmetry_2
Fe1 O1 1_555 1_555
O1 Fe1F 1_555 1_555
O2 Fe1 1_555 1_555
O3 C3 1_555 1_555
C1 C2 1_555 1_555
C2 H1 1_555 1_555
C3 O2 1_555 1_555
C4 C1 1_555 1_555
H2 C4 1_555 1_555
N1 C7 1_555 1_555
C5 H3 1_555 1_555
C6 C5 1_555 1_555
H4 C6 1_555 1_555
C7 C6 1_555 1_555
H5 C7 1_555 1_555
Fe1F_2 O3 1_555 1_555
Fe1A O2E 1_555 1_555
Fe1G O3E 1_555 1_555
O1F Fe1 1_555 1_555
O2E C3E 1_555 1_555
O2D Fe1 1_555 1_555
O3E C3E 1_555 1_555
O3F Fe1 1_555 1_555
O3B Fe1 1_555 1_555
C1E C2E 1_555 1_555
C2E C4 1_555 1_555
H1E C2E 1_555 1_555
C3E C1E 1_555 1_555
C4E C2 1_555 1_555
H2E C4E 1_555 1_555
C6B C5 1_555 1_555
H4B C6B 1_555 1_555
C7B N1 1_555 1_555
H5B C7B 1_555 1_555
C1 C3 1_555 1_555
Fe1F_2 O1F 1_555 1_555
C1E C4E 1_555 1_555
C6B C7B 1_555 1_555

#END
