
#######################################################################
#
#                 Cambridge Crystallographic Data Centre
#                                CCDC 
#
#######################################################################
#
# If this CIF has been generated from an entry in the Cambridge 
# Structural Database, then it will include bibliographic, chemical, 
# crystal, experimental, refinement or atomic coordinate data resulting 
# from the CCDC's data processing and validation procedures.
#
#######################################################################

data_YAXBUV02
_symmetry_cell_setting           orthorhombic
_symmetry_space_group_name_H-M   'P n m a'
_symmetry_Int_Tables_number      62
_space_group_name_Hall           '-P 2ac 2n'
loop_
_symmetry_equiv_pos_site_id
_symmetry_equiv_pos_as_xyz
1 x,y,z
2 1/2+x,1/2-y,1/2-z
3 -x,1/2+y,-z
4 1/2-x,-y,1/2+z
5 -x,-y,-z
6 1/2-x,1/2+y,1/2+z
7 x,1/2-y,z
8 1/2+x,y,1/2-z
_cell_length_a                   19.4768(5)
_cell_length_b                   7.2563(2)
_cell_length_c                   8.7726(2)
_cell_angle_alpha                90
_cell_angle_beta                 90
_cell_angle_gamma                90
_cell_volume                     1239.83
loop_
_atom_site_label
_atom_site_type_symbol
_atom_site_fract_x
_atom_site_fract_y
_atom_site_fract_z
Fe1 Fe 0.5000 0.5000 0.5000
O1 O 0.41668(7) 0.4043(2) 0.37853(19)
C1 C 0.38867(16) 0.2500 0.3614(4)
C2 C 0.31406(16) 0.2500 0.3112(4)
C3 C 0.27974(12) 0.0853(4) 0.2902(3)
C4 C 0.21107(11) 0.0854(3) 0.2448(3)
C5 C 0.17668(16) 0.2500 0.2225(4)
C6 C 0.10211(16) 0.2500 0.1738(4)
O2 O 0.07407(8) 0.0952(2) 0.15582(19)
O3 O 0.49541(11) 0.7500 0.3605(2)
C7 C 0.5242(2) 0.750000(7) 0.2319(4)
N1 N 0.49286(16) 0.7500 0.1026(3)
C8 C 0.5277(3) 0.750000(7) -0.0437(5)
C9 C 0.4173(2) 0.750000(7) 0.0970(5)
H1 H 0.3021 -0.0272 0.3087
H2 H 0.1888 -0.0258 0.2262
H3 H 0.5748 0.7500 0.2253
H4 H 0.5777 0.7500 -0.0235
H5 H 0.5141 0.8588 -0.1027
H6 H 0.4000 0.7500 0.2003
H7 H 0.4022 0.8600 0.0427
Fe1A Fe 0.0000 0.0000 0.0000
Fe1B Fe 0.5000 0.0000 0.5000
Fe1B_2 Fe 0.5000 1.0000 0.5000
Fe1C Fe 0.0000 0.5000 0.0000
O1F O 0.41668(7) 0.0957(2) 0.37853(19)
O1D O 0.58332(7) 0.5957(2) 0.62147(19)
C3F C 0.27974(12) 0.4147(4) 0.2902(3)
C4F C 0.21107(11) 0.4146(3) 0.2448(3)
O2F O 0.07407(8) 0.4048(2) 0.15582(19)
O2E O 0.42593(8) 0.5952(2) 0.65582(19)
O2A O 0.57407(8) 0.4048(2) 0.34418(19)
O3B O 0.50459(11) 0.2500 0.6395(2)
H1F H 0.3021 0.5272 0.3087
H2F H 0.1888 0.5258 0.2262
H5F H 0.5141 0.6412 -0.1027
H7F H 0.4022 0.6400 0.0427
loop_
_geom_bond_atom_site_label_1
_geom_bond_atom_site_label_2
_geom_bond_site_symmetry_1
_geom_bond_site_symmetry_2
Fe1 O1 1_555 1_555
O1 C1 1_555 1_555
C1 C2 1_555 1_555
C2 C3 1_555 1_555
C3 C4 1_555 1_555
C4 C5 1_555 1_555
C5 C6 1_555 1_555
C6 O2 1_555 1_555
O2 Fe1A 1_555 1_555
O3 Fe1 1_555 1_555
C7 O3 1_555 1_555
N1 C7 1_555 1_555
C8 N1 1_555 1_555
C9 N1 1_555 1_555
H1 C3 1_555 1_555
H2 C4 1_555 1_555
H3 C7 1_555 1_555
H4 C8 1_555 1_555
H5 C8 1_555 1_555
H6 C9 1_555 1_555
H7 C9 1_555 1_555
Fe1B O1F 1_555 1_555
Fe1B_2 O3 1_555 1_555
Fe1C O2F 1_555 1_555
O1F C1 1_555 1_555
O1D Fe1 1_555 1_555
C3F C2 1_555 1_555
C4F C5 1_555 1_555
O2F C6 1_555 1_555
O2E Fe1 1_555 1_555
O2A Fe1 1_555 1_555
O3B Fe1 1_555 1_555
H1F C3F 1_555 1_555
H2F C4F 1_555 1_555
H5F C8 1_555 1_555
H7F C9 1_555 1_555
Fe1B O3B 1_555 1_555
C3F C4F 1_555 1_555

#END
