
#######################################################################
#
#                 Cambridge Crystallographic Data Centre
#                                CCDC 
#
#######################################################################
#
# If this CIF has been generated from an entry in the Cambridge 
# Structural Database, then it will include bibliographic, chemical, 
# crystal, experimental, refinement or atomic coordinate data resulting 
# from the CCDC's data processing and validation procedures.
#
#######################################################################

data_YAXTEW
_symmetry_cell_setting           monoclinic
_symmetry_space_group_name_H-M   'P 21/n'
_symmetry_Int_Tables_number      14
_space_group_name_Hall           '-P 2yn'
loop_
_symmetry_equiv_pos_site_id
_symmetry_equiv_pos_as_xyz
1 x,y,z
2 1/2-x,1/2+y,1/2-z
3 -x,-y,-z
4 1/2+x,1/2-y,1/2+z
_cell_length_a                   10.071(2)
_cell_length_b                   6.376(1)
_cell_length_c                   11.617(2)
_cell_angle_alpha                90
_cell_angle_beta                 95.93(1)
_cell_angle_gamma                90
_cell_volume                     741.967
loop_
_atom_site_label
_atom_site_type_symbol
_atom_site_fract_x
_atom_site_fract_y
_atom_site_fract_z
Cu1 Cu 0.1279(1) 0.0825(1) 0.2169(1)
N1 N 0.1633(2) 0.0977(3) 0.0452(2)
C1 C 0.2721(3) 0.1570(5) -0.0038(2)
C2 C 0.2748(3) 0.1507(5) -0.1222(2)
C3 C 0.1625(3) 0.0837(4) -0.1897(2)
N2 N 0.0539(2) 0.0207(3) -0.1412(2)
C4 C 0.0596(2) 0.0322(3) -0.0264(2)
N3 N 0.3034(2) 0.2091(4) 0.2684(2)
N4 N 0.3905(3) 0.0884(4) 0.2986(3)
N5 N 0.4756(3) -0.0242(5) 0.3271(4)
N6 N 0.0613(3) 0.0860(4) 0.3686(2)
N7 N 0.1341(3) 0.1326(4) 0.4524(2)
N8 N 0.2043(4) 0.1703(6) 0.5344(2)
C4B C -0.0596(2) -0.0322(3) 0.0264(2)
N1B N -0.1633(2) -0.0977(3) -0.0452(2)
C1B C -0.2721(3) -0.1570(5) 0.0038(2)
C2B C -0.2748(3) -0.1507(5) 0.1222(2)
C3B C -0.1625(3) -0.0837(4) 0.1897(2)
N2B N -0.0539(2) -0.0207(3) 0.1412(2)
N3A N 0.1966(2) -0.2909(4) 0.2316(2)
N4A N 0.1095(3) -0.4116(4) 0.2014(3)
N5A N 0.0244(3) -0.5242(5) 0.1729(4)
Cu1B Cu -0.1279(1) -0.0825(1) -0.2169(1)
N6B N -0.0613(3) -0.0860(4) -0.3686(2)
N7B N -0.1341(3) -0.1326(4) -0.4524(2)
N8B N -0.2043(4) -0.1703(6) -0.5344(2)
N5A_2 N 0.0244(3) 0.4758(5) 0.1729(4)
Cu1A Cu 0.3721(1) 0.5825(1) 0.2831(1)
Cu1A_2 Cu 0.3721(1) -0.4175(1) 0.2831(1)
Cu1_2 Cu 0.1279(1) -0.9175(1) 0.2169(1)
N3B N -0.3034(2) -0.2091(4) -0.2684(2)
N3C N -0.1966(2) 0.2909(4) -0.2316(2)
N5C N -0.0244(3) -0.4758(5) -0.1729(4)
loop_
_geom_bond_atom_site_label_1
_geom_bond_atom_site_label_2
_geom_bond_site_symmetry_1
_geom_bond_site_symmetry_2
Cu1 N1 1_555 1_555
N1 C1 1_555 1_555
C1 C2 1_555 1_555
C2 C3 1_555 1_555
C3 N2 1_555 1_555
N2 C4 1_555 1_555
C4 N1 1_555 1_555
N3 Cu1 1_555 1_555
N4 N3 1_555 1_555
N5 N4 1_555 1_555
N6 Cu1 1_555 1_555
N7 N6 1_555 1_555
N8 N7 1_555 1_555
C4B C4 1_555 1_555
N1B C4B 1_555 1_555
C1B N1B 1_555 1_555
C2B C1B 1_555 1_555
C3B C2B 1_555 1_555
N2B Cu1 1_555 1_555
N3A Cu1 1_555 1_555
N4A N3A 1_555 1_555
N5A N4A 1_555 1_555
Cu1B N2 1_555 1_555
N6B Cu1B 1_555 1_555
N7B N6B 1_555 1_555
N8B N7B 1_555 1_555
N5A_2 Cu1 1_555 1_555
Cu1A N3 1_555 1_555
Cu1A_2 N5 1_555 1_555
Cu1_2 N5A 1_555 1_555
N3B Cu1B 1_555 1_555
N3C Cu1B 1_555 1_555
N5C Cu1B 1_555 1_555
C4B N2B 1_555 1_555
N1B Cu1B 1_555 1_555
C3B N2B 1_555 1_555
N3A Cu1A_2 1_555 1_555

#END
