
#######################################################################
#
#                 Cambridge Crystallographic Data Centre
#                                CCDC 
#
#######################################################################
#
# If this CIF has been generated from an entry in the Cambridge 
# Structural Database, then it will include bibliographic, chemical, 
# crystal, experimental, refinement or atomic coordinate data resulting 
# from the CCDC's data processing and validation procedures.
#
#######################################################################

data_YAYBOQ
_symmetry_cell_setting           triclinic
_symmetry_space_group_name_H-M   'P -1'
_symmetry_Int_Tables_number      2
_space_group_name_Hall           '-P 1'
loop_
_symmetry_equiv_pos_site_id
_symmetry_equiv_pos_as_xyz
1 x,y,z
2 -x,-y,-z
_cell_length_a                   10.132(2)
_cell_length_b                   12.106(2)
_cell_length_c                   13.283(3)
_cell_angle_alpha                114.43(3)
_cell_angle_beta                 107.76(3)
_cell_angle_gamma                90.76(3)
_cell_volume                     1394.32
loop_
_atom_site_label
_atom_site_type_symbol
_atom_site_fract_x
_atom_site_fract_y
_atom_site_fract_z
Mo1 Mo 0.80799(6) 1.16122(5) 0.76082(4)
Mo2 Mo 0.66591(6) 1.21246(5) 0.53233(4)
Mo3 Mo 0.44928(5) 1.07544(4) 0.62540(4)
Ag1 Ag 0.5000 1.5000 0.5000
Mo4 Mo 0.30877(6) 1.13252(5) 0.40369(4)
Ag2 Ag 0.48706(7) 1.30224(5) 0.93099(4)
C1 C 0.5816(8) 1.1979(6) 1.1209(5)
O1 O 0.3002(5) 1.0928(4) 0.6592(4)
O2 O 0.4540(4) 1.1961(3) 0.5644(3)
O3 O 0.6355(5) 1.3427(4) 0.5160(4)
O4 O 0.3285(5) 1.2554(4) 0.3751(4)
O5 O 0.5841(5) 1.1583(4) 0.7607(3)
O6 O 0.8104(5) 1.1758(4) 0.4927(4)
O7 O 0.5254(4) 1.0868(4) 0.3828(3)
O8 O 0.9524(5) 1.1387(5) 0.7192(4)
O9 O 0.1641(5) 1.1446(4) 0.4438(4)
O10 O 0.6425(4) 1.0374(3) 0.5595(3)
O11 O 0.7638(5) 0.9995(4) 0.7483(4)
O12 O 0.7420(5) 1.2748(4) 0.6971(4)
O13 O 0.8721(6) 1.2497(5) 0.9079(4)
N1 N 0.4693(6) 1.4174(5) 0.8357(4)
N2 N 0.4752(6) 1.5108(5) 0.6750(5)
C2 C 0.3568(8) 1.0771(7) 1.0891(6)
H1 H 0.4026 1.0599 1.1519
C3 C 0.4293(8) 1.1487(6) 1.0591(6)
N3 N 0.3633(7) 1.1734(5) 0.9672(5)
N4 N 0.6412(7) 1.2650(5) 1.0832(5)
C4 C 0.6600(9) 1.1724(7) 1.2132(6)
H2 H 0.6168 1.1270 1.2397
C5 C 0.7792(8) 1.3056(7) 1.1336(6)
H3 H 0.8208 1.3519 1.1069
C6 C 0.3536(8) 1.4602(6) 0.6704(6)
C7 C 0.5881(8) 1.4780(6) 0.8455(5)
C8 C 0.3511(7) 1.4122(5) 0.7520(5)
C9 C 0.5915(7) 1.5262(6) 0.7642(6)
C10 C 0.2171(9) 1.0311(8) 1.0262(7)
H4 H 0.1675 0.9833 1.0466
C11 C 0.7124(8) 1.4964(6) 0.9388(6)
H5 H 0.7123 1.4643 0.9914
C12 C 0.7191(8) 1.5897(7) 0.7794(7)
H6 H 0.7237 1.6183 0.7253
C13 C 0.2253(8) 1.4529(7) 0.5841(6)
H7 H 0.2258 1.4823 0.5297
C14 C 0.8619(9) 1.2817(8) 1.2230(6)
H8 H 0.9579 1.3104 1.2554
C15 C 0.1514(9) 1.0562(7) 0.9333(7)
H9 H 0.0573 1.0248 0.8887
C16 C 0.8333(8) 1.5612(7) 0.9524(7)
H10 H 0.9148 1.5736 1.0146
C17 C 0.8346(8) 1.6090(7) 0.8726(7)
H11 H 0.9168 1.6548 0.8842
C18 C 0.1039(9) 1.4042(8) 0.5805(7)
H12 H 0.0206 1.4008 0.5239
C19 C 0.1003(9) 1.3575(7) 0.6621(7)
H13 H 0.0145 1.3250 0.6588
C20 C 0.2278(8) 1.1288(8) 0.9074(7)
H14 H 0.1829 1.1475 0.8454
C21 C 0.8017(9) 1.2153(8) 1.2641(7)
H15 H 0.8560 1.1995 1.3256
C22 C 0.2203(8) 1.3598(6) 0.7449(6)
H16 H 0.2169 1.3272 0.7966
Mo1A Mo 0.19201(6) 0.83878(5) 0.23918(4)
Mo2A Mo 0.33409(6) 0.78754(5) 0.46767(4)
Mo3A Mo 0.55072(5) 0.92456(4) 0.37460(4)
Ag1_2 Ag 0.5000 0.5000 0.5000
Mo4A Mo 0.69123(6) 0.86748(5) 0.59631(4)
Ag2A Ag 0.51294(7) 1.69776(5) 0.06901(4)
C1A C 0.4184(8) 1.8021(6) -0.1209(5)
O1A O 0.6998(5) 0.9072(4) 0.3408(4)
O2A O 0.5460(4) 0.8039(3) 0.4356(3)
O3A O 0.3645(5) 1.6573(4) 0.4840(4)
O3A_2 O 0.3645(5) 0.6573(4) 0.4840(4)
O4A O 0.6715(5) 0.7446(4) 0.6249(4)
O5A O 0.4159(5) 0.8417(4) 0.2393(3)
O6A O 0.1896(5) 0.8242(4) 0.5073(4)
O7A O 0.4746(4) 0.9132(4) 0.6172(3)
O8A O 0.0476(5) 0.8613(5) 0.2808(4)
O9A O 0.8359(5) 0.8554(4) 0.5562(4)
O10A O 0.3575(4) 0.9626(3) 0.4405(3)
O11A O 0.2362(5) 1.0005(4) 0.2517(4)
O12A O 0.2580(5) 0.7252(4) 0.3029(4)
O13A O 0.1279(6) 0.7503(5) 0.0921(4)
N1A N 0.5307(6) 1.5826(5) 0.1643(4)
N2A N 0.5248(6) 1.4892(5) 0.3250(5)
C2A C 0.6432(8) 1.9229(7) -0.0891(6)
H1A H 0.5974 1.9401 -0.1519
C3A C 0.5707(8) 1.8513(6) -0.0591(6)
N3A N 0.6367(7) 1.8266(5) 0.0328(5)
N4A N 0.3588(7) 1.7350(5) -0.0832(5)
C4A C 0.3400(9) 1.8276(7) -0.2132(6)
H2A H 0.3832 1.8730 -0.2397
C5A C 0.2208(8) 1.6944(7) -0.1336(6)
H3A H 0.1792 1.6481 -0.1069
C6A C 0.6464(8) 1.5398(6) 0.3296(6)
C7A C 0.4119(8) 1.5220(6) 0.1545(5)
C8A C 0.6489(7) 1.5878(5) 0.2480(5)
C9A C 0.4085(7) 1.4738(6) 0.2358(6)
C10A C 0.7829(9) 1.9689(8) -0.0262(7)
H4A H 0.8325 2.0167 -0.0466
C11A C 0.2876(8) 1.5036(6) 0.0612(6)
H5A H 0.2877 1.5357 0.0086
C12A C 0.2809(8) 1.4103(7) 0.2206(7)
H6A H 0.2763 1.3817 0.2747
C13A C 0.7747(8) 1.5471(7) 0.4159(6)
H7A H 0.7742 1.5177 0.4703
C14A C 0.1381(9) 1.7183(8) -0.2230(6)
H8A H 0.0421 1.6896 -0.2554
C15A C 0.8486(9) 1.9438(7) 0.0667(7)
H9A H 0.9427 1.9752 0.1113
C16A C 0.1667(8) 1.4388(7) 0.0476(7)
H10A H 0.0852 1.4264 -0.0146
C17A C 0.1654(8) 1.3910(7) 0.1274(7)
H11A H 0.0832 1.3452 0.1158
C18A C 0.8961(9) 1.5958(8) 0.4195(7)
H12A H 0.9794 1.5992 0.4761
C19A C 0.8997(9) 1.6425(7) 0.3379(7)
H13A H 0.9855 1.6750 0.3412
C20A C 0.7722(8) 1.8712(8) 0.0926(7)
H14A H 0.8171 1.8525 0.1546
C21A C 0.1983(9) 1.7847(8) -0.2641(7)
H15A H 0.1440 1.8005 -0.3256
C22A C 0.7797(8) 1.6402(6) 0.2551(6)
H16A H 0.7831 1.6728 0.2034
O14 O 0.0000 1.0000 0.5000
loop_
_geom_bond_atom_site_label_1
_geom_bond_atom_site_label_2
_geom_bond_site_symmetry_1
_geom_bond_site_symmetry_2
Mo1 O5 1_555 1_555
Mo2 O2 1_555 1_555
Mo3 O1 1_555 1_555
Ag1 O3 1_555 1_555
Mo4 O2 1_555 1_555
Ag2 N1 1_555 1_555
C1 C3 1_555 1_555
O2 Mo3 1_555 1_555
O3 Mo2 1_555 1_555
O4 Mo4 1_555 1_555
O5 Mo3 1_555 1_555
O6 Mo2 1_555 1_555
O7 Mo2 1_555 1_555
O8 Mo1 1_555 1_555
O9 Mo4 1_555 1_555
O10 Mo1 1_555 1_555
O11 Mo1 1_555 1_555
O12 Mo1 1_555 1_555
O13 Mo1 1_555 1_555
N1 C7 1_555 1_555
N2 Ag1 1_555 1_555
C2 H1 1_555 1_555
C3 C2 1_555 1_555
N3 Ag2 1_555 1_555
N4 Ag2 1_555 1_555
C4 C1 1_555 1_555
H2 C4 1_555 1_555
C5 N4 1_555 1_555
H3 C5 1_555 1_555
C6 N2 1_555 1_555
C7 C9 1_555 1_555
C8 N1 1_555 1_555
C9 N2 1_555 1_555
C10 C2 1_555 1_555
H4 C10 1_555 1_555
C11 C7 1_555 1_555
H5 C11 1_555 1_555
C12 C9 1_555 1_555
H6 C12 1_555 1_555
C13 C6 1_555 1_555
H7 C13 1_555 1_555
C14 C5 1_555 1_555
H8 C14 1_555 1_555
C15 C10 1_555 1_555
H9 C15 1_555 1_555
C16 C11 1_555 1_555
H10 C16 1_555 1_555
C17 C12 1_555 1_555
H11 C17 1_555 1_555
C18 C13 1_555 1_555
H12 C18 1_555 1_555
C19 C18 1_555 1_555
H13 C19 1_555 1_555
C20 N3 1_555 1_555
H14 C20 1_555 1_555
C21 C4 1_555 1_555
H15 C21 1_555 1_555
C22 C8 1_555 1_555
H16 C22 1_555 1_555
Mo1A O5A 1_555 1_555
Mo2A O2A 1_555 1_555
Mo3A O7 1_555 1_555
Ag1_2 O3A_2 1_555 1_555
Mo4A O10 1_555 1_555
Ag2A N1A 1_555 1_555
C1A C3A 1_555 1_555
O1A Mo3A 1_555 1_555
O2A Mo3A 1_555 1_555
O3A Ag1 1_555 1_555
O3A_2 Mo2A 1_555 1_555
O4A Mo4A 1_555 1_555
O5A Mo3A 1_555 1_555
O6A Mo2A 1_555 1_555
O7A Mo3 1_555 1_555
O8A Mo1A 1_555 1_555
O9A Mo4A 1_555 1_555
O10A Mo3 1_555 1_555
O11A Mo4 1_555 1_555
O12A Mo1A 1_555 1_555
O13A Mo1A 1_555 1_555
N1A C7A 1_555 1_555
N2A Ag1 1_555 1_555
C2A H1A 1_555 1_555
C3A C2A 1_555 1_555
N3A Ag2A 1_555 1_555
N4A Ag2A 1_555 1_555
C4A C1A 1_555 1_555
H2A C4A 1_555 1_555
C5A N4A 1_555 1_555
H3A C5A 1_555 1_555
C6A N2A 1_555 1_555
C7A C9A 1_555 1_555
C8A N1A 1_555 1_555
C9A N2A 1_555 1_555
C10A C2A 1_555 1_555
H4A C10A 1_555 1_555
C11A C7A 1_555 1_555
H5A C11A 1_555 1_555
C12A C9A 1_555 1_555
H6A C12A 1_555 1_555
C13A C6A 1_555 1_555
H7A C13A 1_555 1_555
C14A C5A 1_555 1_555
H8A C14A 1_555 1_555
C15A C10A 1_555 1_555
H9A C15A 1_555 1_555
C16A C11A 1_555 1_555
H10A C16A 1_555 1_555
C17A C12A 1_555 1_555
H11A C17A 1_555 1_555
C18A C13A 1_555 1_555
H12A C18A 1_555 1_555
C19A C18A 1_555 1_555
H13A C19A 1_555 1_555
C20A N3A 1_555 1_555
H14A C20A 1_555 1_555
C21A C4A 1_555 1_555
H15A C21A 1_555 1_555
C22A C8A 1_555 1_555
H16A C22A 1_555 1_555
Mo2 O10 1_555 1_555
Mo2 O12 1_555 1_555
Mo3 O10 1_555 1_555
Mo4 O7 1_555 1_555
Mo4 O10A 1_555 1_555
C1 N4 1_555 1_555
O10 Mo3A 1_555 1_555
O11 Mo4A 1_555 1_555
C3 N3 1_555 1_555
C6 C8 1_555 1_555
C14 C21 1_555 1_555
C15 C20 1_555 1_555
C16 C17 1_555 1_555
C19 C22 1_555 1_555
Mo1A O10A 1_555 1_555
Mo1A O11A 1_555 1_555
Mo2A O7A 1_555 1_555
Mo2A O10A 1_555 1_555
Mo2A O12A 1_555 1_555
Mo3A O10A 1_555 1_555
Mo4A O2A 1_555 1_555
Mo4A O7A 1_555 1_555
C1A N4A 1_555 1_555
C3A N3A 1_555 1_555
C6A C8A 1_555 1_555
C14A C21A 1_555 1_555
C15A C20A 1_555 1_555
C16A C17A 1_555 1_555
C19A C22A 1_555 1_555

#END
