
#######################################################################
#
#                 Cambridge Crystallographic Data Centre
#                                CCDC 
#
#######################################################################
#
# If this CIF has been generated from an entry in the Cambridge 
# Structural Database, then it will include bibliographic, chemical, 
# crystal, experimental, refinement or atomic coordinate data resulting 
# from the CCDC's data processing and validation procedures.
#
#######################################################################

data_YAYLUH
_symmetry_cell_setting           triclinic
_symmetry_space_group_name_H-M   'P -1'
_symmetry_Int_Tables_number      2
_space_group_name_Hall           '-P 1'
loop_
_symmetry_equiv_pos_site_id
_symmetry_equiv_pos_as_xyz
1 x,y,z
2 -x,-y,-z
_cell_length_a                   14.1785(10)
_cell_length_b                   14.3084(12)
_cell_length_c                   14.7510(12)
_cell_angle_alpha                104.088(2)
_cell_angle_beta                 98.284(3)
_cell_angle_gamma                94.186(4)
_cell_volume                     2854
loop_
_atom_site_label
_atom_site_type_symbol
_atom_site_fract_x
_atom_site_fract_y
_atom_site_fract_z
Cu4 Cu 0.17521(7) 0.17676(6) 0.15700(6)
O23 O 0.1751(7) 0.0548(5) 0.0556(5)
O24 O 0.1433(4) 0.0977(4) 0.2407(4)
O25 O 0.2010(3) 0.2561(4) 0.0680(3)
O26 O 0.1716(4) 0.2977(4) 0.2562(3)
O27 O 0.0048(7) 0.1695(7) 0.1123(6)
O28 O 0.3340(4) 0.1808(4) 0.2046(3)
O29 O 0.7417(8) 0.3154(12) -0.2710(8)
O30 O 0.7136(9) 0.1415(8) 0.5684(8)
O31 O 0.2220(9) -0.0834(8) 0.1698(16)
O32 O 0.2543(10) 0.0123(9) 0.3593(16)
O33 O 0.2206(4) 0.4623(5) 0.2026(4)
O34 O 0.8389(10) 0.9275(7) 0.4212(9)
O35 O 1.0460(17) 0.9219(12) 0.3967(17)
O36 O 0.7965(2) 0.70813(19) 0.56064(19)
O37 O 0.5663(2) 0.29474(19) -0.22797(19)
O38 O 0.7949(2) 0.94444(19) 0.12844(19)
Cu1 Cu 0.93923(10) -0.34978(9) 0.36857(9)
Cu2 Cu 0.70795(5) -0.31781(4) 0.19663(4)
Cu3 Cu 0.5000 -1.0000 0.0000
S1 S 1.01465(9) -0.48240(10) 0.29887(9)
S2 S 0.77307(10) -0.53208(11) 0.55004(8)
S3 S 0.45724(9) -0.49774(8) 0.29782(8)
S4 S 0.69804(8) -0.44326(8) 0.05051(8)
S5 S 0.91870(12) -0.84358(12) 0.34226(14)
S6 S 0.44808(11) -0.78568(9) 0.48119(9)
S7 S 0.44441(8) -0.77511(7) -0.03413(7)
S8 S 0.95405(10) -0.69456(10) -0.06854(10)
O1 O 0.8886(3) -0.4226(3) 0.4400(3)
O2 O 0.6673(3) -0.4591(3) 0.3970(3)
O3 O 0.6158(3) -0.4014(2) 0.2305(2)
O4 O 0.8291(3) -0.4094(3) 0.2384(2)
O5 O 1.0192(4) -0.8553(4) 0.3641(5)
O6 O 0.8613(5) -0.8852(4) 0.3989(6)
O7 O 0.8824(6) -0.8748(4) 0.2425(5)
O8 O 0.5172(4) -0.8367(4) 0.5239(4)
O9 O 0.3772(5) -0.7482(4) 0.5367(4)
O10 O 0.4011(4) -0.8439(3) 0.3877(3)
O11 O 0.5154(3) -0.8436(2) -0.0331(2)
O12 O 0.3594(2) -0.8032(2) 0.0020(2)
O13 O 0.4217(3) -0.7555(2) -0.1268(2)
O14 O 0.9156(3) -0.6783(3) -0.1589(3)
O15 O 0.9114(4) -0.7837(3) -0.0549(4)
O16 O 1.0578(3) -0.6882(3) -0.0522(3)
O17 O 0.8065(3) -0.2323(3) 0.1667(3)
O18 O 0.7113(3) -0.2220(3) 0.3198(3)
O19 O 0.9027(8) -0.2329(6) 0.4515(6)
O20 O 1.0096(11) -0.2580(7) 0.3135(9)
O21 O 0.4574(2) -0.9423(2) 0.1192(2)
O22 O 0.6350(3) -0.9711(2) 0.0675(2)
N1 N 0.6583(3) -0.8778(3) 0.1177(3)
N2 N 0.5006(3) -0.9682(3) 0.1960(3)
C1 C 0.8937(4) -0.5177(4) 0.4208(3)
C2 C 0.9519(4) -0.5596(4) 0.3541(3)
C3 C 0.9596(4) -0.6572(4) 0.3322(4)
H1 H 0.9980 -0.6832 0.2884
C4 C 0.9103(4) -0.7176(4) 0.3751(4)
C5 C 0.8550(4) -0.6777(4) 0.4426(4)
H2 H 0.8243 -0.7176 0.4732
C6 C 0.8452(4) -0.5794(4) 0.4648(3)
C7 C 0.6558(4) -0.5745(4) 0.4858(3)
C8 C 0.6049(4) -0.6515(4) 0.5051(3)
H3 H 0.6337 -0.6818 0.5492
C9 C 0.5113(4) -0.6844(3) 0.4595(3)
C10 C 0.4673(4) -0.6369(3) 0.3964(3)
H4 H 0.4038 -0.6567 0.3679
C11 C 0.5170(3) -0.5604(3) 0.3754(3)
C12 C 0.6129(3) -0.5299(3) 0.4182(3)
C13 C 0.5044(3) -0.5423(3) 0.1919(3)
C14 C 0.4655(3) -0.6307(3) 0.1308(3)
H5 H 0.4180 -0.6685 0.1474
C15 C 0.4973(3) -0.6636(3) 0.0439(3)
C16 C 0.5686(3) -0.6069(3) 0.0198(3)
H6 H 0.5891 -0.6279 -0.0382
C17 C 0.6095(3) -0.5187(3) 0.0818(3)
C18 C 0.5785(3) -0.4839(3) 0.1704(3)
C19 C 0.8053(3) -0.4962(3) 0.0760(3)
C20 C 0.8364(4) -0.5604(3) 0.0019(3)
H7 H 0.8009 -0.5758 -0.0590
C21 C 0.9218(4) -0.6016(3) 0.0199(3)
C22 C 0.9755(4) -0.5779(4) 0.1104(3)
H8 H 1.0319 -0.6056 0.1218
C23 C 0.9450(3) -0.5129(3) 0.1839(3)
C24 C 0.8590(3) -0.4707(3) 0.1684(3)
C25 C 0.7092(4) -0.8179(4) 0.0804(4)
H9 H 0.7252 -0.8404 0.0205
C26 C 0.7376(4) -0.7232(4) 0.1310(4)
H10 H 0.7739 -0.6821 0.1059
C27 C 0.7124(4) -0.6896(4) 0.2183(4)
H11 H 0.7303 -0.6255 0.2524
C28 C 0.6594(4) -0.7530(4) 0.2556(4)
H12 H 0.6412 -0.7312 0.3146
C29 C 0.6340(4) -0.8485(3) 0.2042(3)
C30 C 0.5856(4) -0.9214(4) 0.2427(3)
C31 C 0.6262(5) -0.9418(5) 0.3257(4)
H13 H 0.6846 -0.9090 0.3595
C32 C 0.5778(6) -1.0128(5) 0.3582(5)
H14 H 0.6042 -1.0276 0.4138
C33 C 0.4931(6) -1.0594(4) 0.3092(4)
H15 H 0.4616 -1.1066 0.3311
C34 C 0.4518(2) -1.03794(19) 0.22527(19)
H16 H 0.3933 -1.0701 0.1910
H17 H 0.6374 -0.4353 0.3502
Cu1A Cu 0.06077(10) -1.65022(9) -0.36857(9)
Cu2A Cu 0.29205(5) -1.68219(4) -0.19663(4)
Cu2A_2 Cu 0.29205(5) -0.68219(4) -0.19663(4)
Cu2_2 Cu 0.70795(5) -1.31781(4) 0.19663(4)
S1A S -0.01465(9) -1.51760(10) -0.29887(9)
S2A S 0.22693(10) -1.46792(11) -0.55004(8)
S3A S 0.54276(9) -1.50226(8) -0.29782(8)
S4A S 0.30196(8) -1.55674(8) -0.05051(8)
S5A S 0.08130(12) -1.15642(12) -0.34226(14)
S6A S 0.55192(11) -1.21432(9) -0.48119(9)
S7A S 0.55559(8) -1.22489(7) 0.03413(7)
S8A S 0.04595(10) -1.30544(10) 0.06854(10)
O1A O 0.1114(3) -1.5774(3) -0.4400(3)
O2A O 0.3327(3) -1.5409(3) -0.3970(3)
O3A O 0.3842(3) -1.5986(2) -0.2305(2)
O4A O 0.1709(3) -1.5906(3) -0.2384(2)
O5A O -0.0192(4) -1.1447(4) -0.3641(5)
O6A O 0.1387(5) -1.1148(4) -0.3989(6)
O7A O 0.1176(6) -1.1252(4) -0.2425(5)
O8A O 0.4828(4) -1.1633(4) -0.5239(4)
O9A O 0.6228(5) -1.2518(4) -0.5367(4)
O10A O 0.5989(4) -1.1561(3) -0.3877(3)
O11A O 0.4846(3) -1.1564(2) 0.0331(2)
O12A O 0.6406(2) -1.1968(2) -0.0020(2)
O13A O 0.5783(3) -1.2445(2) 0.1268(2)
O13A_2 O 0.5783(3) -0.2445(2) 0.1268(2)
O13_2 O 0.4217(3) -1.7555(2) -0.1268(2)
O14A O 0.0844(3) -1.3217(3) 0.1589(3)
O15A O 0.0886(4) -1.2163(3) 0.0549(4)
O16A O -0.0578(3) -1.3118(3) 0.0522(3)
O17A O 0.1935(3) -1.7677(3) -0.1667(3)
O18A O 0.2887(3) -1.7780(3) -0.3198(3)
O19A O 0.0973(8) -1.7671(6) -0.4515(6)
O20A O -0.0096(11) -1.7420(7) -0.3135(9)
O21A O 0.5426(2) -1.0577(2) -0.1192(2)
O22A O 0.3650(3) -1.0289(2) -0.0675(2)
N1A N 0.3417(3) -1.1222(3) -0.1177(3)
N2A N 0.4994(3) -1.0318(3) -0.1960(3)
C1A C 0.1063(4) -1.4823(4) -0.4208(3)
C2A C 0.0481(4) -1.4404(4) -0.3541(3)
C3A C 0.0404(4) -1.3428(4) -0.3322(4)
H1A H 0.0020 -1.3168 -0.2884
C4A C 0.0897(4) -1.2824(4) -0.3751(4)
C5A C 0.1450(4) -1.3223(4) -0.4426(4)
H2A H 0.1757 -1.2824 -0.4732
C6A C 0.1548(4) -1.4206(4) -0.4648(3)
C7A C 0.3442(4) -1.4255(4) -0.4858(3)
C8A C 0.3951(4) -1.3485(4) -0.5051(3)
H3A H 0.3663 -1.3182 -0.5492
C9A C 0.4887(4) -1.3156(3) -0.4595(3)
C10A C 0.5327(4) -1.3631(3) -0.3964(3)
H4A H 0.5962 -1.3433 -0.3679
C11A C 0.4830(3) -1.4396(3) -0.3754(3)
C12A C 0.3871(3) -1.4701(3) -0.4182(3)
C13A C 0.4956(3) -1.4577(3) -0.1919(3)
C14A C 0.5345(3) -1.3693(3) -0.1308(3)
H5A H 0.5820 -1.3315 -0.1474
C15A C 0.5027(3) -1.3364(3) -0.0439(3)
C16A C 0.4314(3) -1.3931(3) -0.0198(3)
H6A H 0.4109 -1.3721 0.0382
C17A C 0.3905(3) -1.4813(3) -0.0818(3)
C18A C 0.4215(3) -1.5161(3) -0.1704(3)
C19A C 0.1947(3) -1.5038(3) -0.0760(3)
C20A C 0.1636(4) -1.4396(3) -0.0019(3)
H7A H 0.1991 -1.4242 0.0590
C21A C 0.0782(4) -1.3984(3) -0.0199(3)
C22A C 0.0245(4) -1.4221(4) -0.1104(3)
H8A H -0.0319 -1.3944 -0.1218
C23A C 0.0550(3) -1.4871(3) -0.1839(3)
C24A C 0.1410(3) -1.5293(3) -0.1684(3)
C25A C 0.2908(4) -1.1821(4) -0.0804(4)
H9A H 0.2748 -1.1596 -0.0205
C26A C 0.2624(4) -1.2768(4) -0.1310(4)
H10A H 0.2261 -1.3179 -0.1059
C27A C 0.2876(4) -1.3104(4) -0.2183(4)
H11A H 0.2697 -1.3745 -0.2524
C28A C 0.3406(4) -1.2470(4) -0.2556(4)
H12A H 0.3588 -1.2688 -0.3146
C29A C 0.3660(4) -1.1515(3) -0.2042(3)
C30A C 0.4144(4) -1.0786(4) -0.2427(3)
C31A C 0.3738(5) -1.0582(5) -0.3257(4)
H13A H 0.3154 -1.0910 -0.3595
C32A C 0.4222(6) -0.9872(5) -0.3582(5)
H14A H 0.3958 -0.9724 -0.4138
C33A C 0.5069(6) -0.9406(4) -0.3092(4)
H15A H 0.5384 -0.8934 -0.3311
C34A C 0.5482(2) -0.96206(19) -0.22527(19)
H16A H 0.6067 -0.9299 -0.1910
H17A H 0.3626 -1.5647 -0.3502
loop_
_geom_bond_atom_site_label_1
_geom_bond_atom_site_label_2
_geom_bond_site_symmetry_1
_geom_bond_site_symmetry_2
Cu1 S1 1_555 1_555
Cu2 S4 1_555 1_555
Cu3 O11 1_555 1_555
Cu4 O23 1_555 1_555
S1 C2 1_555 1_555
S2 C6 1_555 1_555
S3 C11 1_555 1_555
S4 C17 1_555 1_555
S5 O5 1_555 1_555
S6 O8 1_555 1_555
S7 O11 1_555 1_555
S8 O14 1_555 1_555
O1 Cu1 1_555 1_555
O2 C12 1_555 1_555
O3 Cu2 1_555 1_555
O4 Cu1 1_555 1_555
O6 S5 1_555 1_555
O7 S5 1_555 1_555
O9 S6 1_555 1_555
O10 S6 1_555 1_555
O12 S7 1_555 1_555
O13 S7 1_555 1_555
O15 S8 1_555 1_555
O16 S8 1_555 1_555
O17 Cu2 1_555 1_555
O18 Cu2 1_555 1_555
O19 Cu1 1_555 1_555
O20 Cu1 1_555 1_555
O21 Cu3 1_555 1_555
O22 Cu3 1_555 1_555
O24 Cu4 1_555 1_555
O25 Cu4 1_555 1_555
O26 Cu4 1_555 1_555
O27 Cu4 1_555 1_555
O28 Cu4 1_555 1_555
N1 O22 1_555 1_555
N2 O21 1_555 1_555
C1 O1 1_555 1_555
C2 C1 1_555 1_555
C3 C2 1_555 1_555
H1 C3 1_555 1_555
C4 S5 1_555 1_555
C5 C4 1_555 1_555
H2 C5 1_555 1_555
C6 C1 1_555 1_555
C7 S2 1_555 1_555
C8 C7 1_555 1_555
H3 C8 1_555 1_555
C9 S6 1_555 1_555
C10 C9 1_555 1_555
H4 C10 1_555 1_555
C11 C10 1_555 1_555
C12 C7 1_555 1_555
C13 S3 1_555 1_555
C14 C13 1_555 1_555
H5 C14 1_555 1_555
C15 S7 1_555 1_555
C16 C15 1_555 1_555
H6 C16 1_555 1_555
C17 C16 1_555 1_555
C18 O3 1_555 1_555
C19 S4 1_555 1_555
C20 C19 1_555 1_555
H7 C20 1_555 1_555
C21 S8 1_555 1_555
C22 C21 1_555 1_555
H8 C22 1_555 1_555
C23 S1 1_555 1_555
C24 O4 1_555 1_555
C25 N1 1_555 1_555
H9 C25 1_555 1_555
C26 C25 1_555 1_555
H10 C26 1_555 1_555
C27 C26 1_555 1_555
H11 C27 1_555 1_555
C28 C27 1_555 1_555
H12 C28 1_555 1_555
C29 N1 1_555 1_555
C30 N2 1_555 1_555
C31 C30 1_555 1_555
H13 C31 1_555 1_555
C32 C31 1_555 1_555
H14 C32 1_555 1_555
C33 C32 1_555 1_555
H15 C33 1_555 1_555
C34 N2 1_555 1_555
H16 C34 1_555 1_555
H17 O2 1_555 1_555
Cu1A S1A 1_555 1_555
Cu2A S4A 1_555 1_555
Cu2A_2 O13 1_555 1_555
Cu2_2 O13A 1_555 1_555
S1A C2A 1_555 1_555
S2A C6A 1_555 1_555
S3A C11A 1_555 1_555
S4A C17A 1_555 1_555
S5A O5A 1_555 1_555
S6A O8A 1_555 1_555
S7A O11A 1_555 1_555
S8A O14A 1_555 1_555
O1A Cu1A 1_555 1_555
O2A C12A 1_555 1_555
O3A Cu2A 1_555 1_555
O4A Cu1A 1_555 1_555
O6A S5A 1_555 1_555
O7A S5A 1_555 1_555
O9A S6A 1_555 1_555
O10A S6A 1_555 1_555
O11A Cu3 1_555 1_555
O12A S7A 1_555 1_555
O13A S7A 1_555 1_555
O13A_2 Cu2 1_555 1_555
O13_2 Cu2A 1_555 1_555
O15A S8A 1_555 1_555
O16A S8A 1_555 1_555
O17A Cu2A 1_555 1_555
O18A Cu2A 1_555 1_555
O19A Cu1A 1_555 1_555
O20A Cu1A 1_555 1_555
O21A Cu3 1_555 1_555
O22A Cu3 1_555 1_555
N1A O22A 1_555 1_555
N2A O21A 1_555 1_555
C1A O1A 1_555 1_555
C2A C1A 1_555 1_555
C3A C2A 1_555 1_555
H1A C3A 1_555 1_555
C4A S5A 1_555 1_555
C5A C4A 1_555 1_555
H2A C5A 1_555 1_555
C6A C1A 1_555 1_555
C7A S2A 1_555 1_555
C8A C7A 1_555 1_555
H3A C8A 1_555 1_555
C9A S6A 1_555 1_555
C10A C9A 1_555 1_555
H4A C10A 1_555 1_555
C11A C10A 1_555 1_555
C12A C7A 1_555 1_555
C13A S3A 1_555 1_555
C14A C13A 1_555 1_555
H5A C14A 1_555 1_555
C15A S7A 1_555 1_555
C16A C15A 1_555 1_555
H6A C16A 1_555 1_555
C17A C16A 1_555 1_555
C18A O3A 1_555 1_555
C19A S4A 1_555 1_555
C20A C19A 1_555 1_555
H7A C20A 1_555 1_555
C21A S8A 1_555 1_555
C22A C21A 1_555 1_555
H8A C22A 1_555 1_555
C23A S1A 1_555 1_555
C24A O4A 1_555 1_555
C25A N1A 1_555 1_555
H9A C25A 1_555 1_555
C26A C25A 1_555 1_555
H10A C26A 1_555 1_555
C27A C26A 1_555 1_555
H11A C27A 1_555 1_555
C28A C27A 1_555 1_555
H12A C28A 1_555 1_555
C29A N1A 1_555 1_555
C30A N2A 1_555 1_555
C31A C30A 1_555 1_555
H13A C31A 1_555 1_555
C32A C31A 1_555 1_555
H14A C32A 1_555 1_555
C33A C32A 1_555 1_555
H15A C33A 1_555 1_555
C34A N2A 1_555 1_555
H16A C34A 1_555 1_555
H17A O2A 1_555 1_555
Cu2 O4 1_555 1_555
C3 C4 1_555 1_555
C5 C6 1_555 1_555
C8 C9 1_555 1_555
C11 C12 1_555 1_555
C13 C18 1_555 1_555
C14 C15 1_555 1_555
C17 C18 1_555 1_555
C19 C24 1_555 1_555
C20 C21 1_555 1_555
C22 C23 1_555 1_555
C23 C24 1_555 1_555
C28 C29 1_555 1_555
C29 C30 1_555 1_555
C33 C34 1_555 1_555
Cu2A O4A 1_555 1_555
C3A C4A 1_555 1_555
C5A C6A 1_555 1_555
C8A C9A 1_555 1_555
C11A C12A 1_555 1_555
C13A C18A 1_555 1_555
C14A C15A 1_555 1_555
C17A C18A 1_555 1_555
C19A C24A 1_555 1_555
C20A C21A 1_555 1_555
C22A C23A 1_555 1_555
C23A C24A 1_555 1_555
C28A C29A 1_555 1_555
C29A C30A 1_555 1_555
C33A C34A 1_555 1_555

#END
