
#######################################################################
#
#                 Cambridge Crystallographic Data Centre
#                                CCDC 
#
#######################################################################
#
# If this CIF has been generated from an entry in the Cambridge 
# Structural Database, then it will include bibliographic, chemical, 
# crystal, experimental, refinement or atomic coordinate data resulting 
# from the CCDC's data processing and validation procedures.
#
#######################################################################

data_YAYMOC
_symmetry_cell_setting           orthorhombic
_symmetry_space_group_name_H-M   'P 21 21 21'
_symmetry_Int_Tables_number      19
_space_group_name_Hall           'P 2ac 2ab'
loop_
_symmetry_equiv_pos_site_id
_symmetry_equiv_pos_as_xyz
1 x,y,z
2 1/2-x,-y,1/2+z
3 -x,1/2+y,1/2-z
4 1/2+x,1/2-y,-z
_cell_length_a                   11.129(7)
_cell_length_b                   17.624(11)
_cell_length_c                   19.353(12)
_cell_angle_alpha                90
_cell_angle_beta                 90
_cell_angle_gamma                90
_cell_volume                     3795.85
loop_
_atom_site_label
_atom_site_type_symbol
_atom_site_fract_x
_atom_site_fract_y
_atom_site_fract_z
Cu1 Cu 0.02140(8) 0.88598(5) 0.81055(5)
C1 C 0.7782(7) 0.8638(6) 0.8687(5)
H1 H 0.8208 0.8519 0.9086
C2 C 0.6551(8) 0.8642(6) 0.8722(5)
H2 H 0.6159 0.8547 0.9137
C3 C 0.5894(6) 0.8793(5) 0.8119(5)
C4 C 0.6539(7) 0.8929(6) 0.7511(5)
H3 H 0.6136 0.9033 0.7101
C5 C 0.7785(7) 0.8906(6) 0.7527(5)
H4 H 0.8210 0.8971 0.7117
C6 C 0.2646(7) 0.8717(6) 0.7560(5)
H5 H 0.2222 0.8651 0.7150
C7 C 0.3867(7) 0.8707(5) 0.7523(4)
H6 H 0.4246 0.8639 0.7100
C8 C 0.4550(6) 0.8799(5) 0.8121(4)
C9 C 0.3896(7) 0.8881(7) 0.8742(5)
H7 H 0.4303 0.8930 0.9159
C10 C 0.2647(7) 0.8889(6) 0.8733(4)
H8 H 0.2236 0.8948 0.9148
C11 C 0.0090(8) 0.7402(4) 0.7777(5)
C12 C 0.0093(6) 0.9621(5) 0.9393(5)
C13 C -0.0137(10) 0.6709(5) 0.7320(5)
H9 H 0.0267 0.6778 0.6875
C14 C -0.1498(12) 0.6579(7) 0.7199(9)
H10 H -0.1967 0.6886 0.7515
H11 H -0.1714 0.6715 0.6730
C15 C -0.1726(9) 0.5758(6) 0.7323(5)
H12 H -0.1935 0.5505 0.6894
H13 H -0.2383 0.5692 0.7647
C16 C -0.0573(8) 0.5429(5) 0.7618(4)
C17 C 0.0043(9) 1.0368(5) 0.9813(4)
H14 H -0.0455 1.0752 0.9585
C18 C 0.1299(9) 1.0673(6) 0.9989(6)
H15 H 0.1863 1.0557 0.9621
H16 H 0.1276 1.1219 1.0054
C19 C 0.1655(9) 1.0281(8) 1.0647(6)
H17 H 0.2118 1.0617 1.0940
H18 H 0.2129 0.9831 1.0550
C20 C 0.0483(10) 1.0072(6) 1.0984(6)
C21 C 0.1477(8) 0.5895(5) 0.7915(5)
H19 H 0.1566 0.5365 0.8043
H20 H 0.1546 0.6192 0.8335
C22 C 0.2482(8) 0.6101(6) 0.7455(5)
C23 C 0.3413(10) 0.6569(7) 0.7693(6)
H21 H 0.3375 0.6777 0.8134
C24 C 0.4404(10) 0.6725(8) 0.7267(7)
H22 H 0.5018 0.7038 0.7426
C25 C 0.4465(11) 0.6428(9) 0.6642(7)
C26 C 0.3590(12) 0.5963(9) 0.6375(6)
H23 H 0.3655 0.5759 0.5933
C27 C 0.2584(10) 0.5806(6) 0.6800(6)
H24 H 0.1976 0.5494 0.6631
C28 C -0.1643(9) 0.9916(6) 1.0638(6)
H25 H -0.1676 0.9685 1.1093
H26 H -0.1810 0.9520 1.0303
C29 C -0.2627(8) 1.0499(5) 1.0592(5)
C30 C -0.2377(8) 1.1277(5) 1.0604(6)
H27 H -0.1587 1.1449 1.0605
C31 C -0.3349(9) 1.1799(6) 1.0615(6)
H28 H -0.3211 1.2319 1.0600
C32 C -0.4481(8) 1.1522(6) 1.0646(5)
C33 C -0.4758(9) 1.0765(5) 1.0623(5)
H29 H -0.5553 1.0601 1.0623
C34 C -0.3807(8) 1.0248(5) 1.0599(5)
H30 H -0.3968 0.9730 1.0588
N1 N 0.2004(5) 0.8815(4) 0.8141(4)
N2 N 0.8398(5) 0.8792(4) 0.8119(4)
N3 N 0.0261(7) 0.6003(4) 0.7633(4)
N4 N -0.0400(7) 1.0189(4) 1.0521(4)
N5 N 0.5514(13) 0.6597(15) 0.6220(9)
N6 N -0.5499(8) 1.2078(6) 1.0666(5)
O1 O 0.0097(8) 0.7336(4) 0.8414(4)
O2 O 0.0188(6) 0.9000(3) 0.9654(3)
O3 O 0.0197(5) 0.8019(3) 0.7440(3)
O4 O 0.0136(5) 0.9741(3) 0.8730(3)
O5 O -0.0379(6) 0.4778(3) 0.7804(3)
O6 O 0.0335(9) 0.9811(5) 1.1565(4)
O7 O 0.6034(14) 0.7200(11) 0.6325(10)
O8 O 0.5872(12) 0.6107(14) 0.5809(7)
O9 O -0.6509(8) 1.1833(5) 1.0784(5)
O10 O -0.5268(9) 1.2740(5) 1.0580(5)
Cu1_2 Cu 1.02140(8) 0.88598(5) 0.81055(5)
Cu1B Cu -0.02140(8) 0.38598(5) 0.68945(5)
N2_2 N -0.1602(5) 0.8792(4) 0.8119(4)
O5B O 0.0379(6) 0.9778(3) 0.7196(3)
O11 O 0.1753(17) 0.7015(10) 0.9586(6)
O12 O -0.0752(18) 0.7783(8) 1.0418(7)
O13 O -0.1316(18) 0.6540(10) 0.9414(9)
O14 O -0.3658(16) 0.6717(10) 0.8706(13)
loop_
_geom_bond_atom_site_label_1
_geom_bond_atom_site_label_2
_geom_bond_site_symmetry_1
_geom_bond_site_symmetry_2
Cu1 N1 1_555 1_555
C1 H1 1_555 1_555
C2 C1 1_555 1_555
H2 C2 1_555 1_555
C3 C2 1_555 1_555
C4 C3 1_555 1_555
H3 C4 1_555 1_555
C5 C4 1_555 1_555
H4 C5 1_555 1_555
C6 H5 1_555 1_555
C7 C6 1_555 1_555
H6 C7 1_555 1_555
C8 C3 1_555 1_555
C9 C8 1_555 1_555
H7 C9 1_555 1_555
C10 C9 1_555 1_555
H8 C10 1_555 1_555
C11 C13 1_555 1_555
C12 C17 1_555 1_555
C13 H9 1_555 1_555
C14 C13 1_555 1_555
H10 C14 1_555 1_555
H11 C14 1_555 1_555
C15 C14 1_555 1_555
H12 C15 1_555 1_555
H13 C15 1_555 1_555
C16 C15 1_555 1_555
C17 H14 1_555 1_555
C18 C17 1_555 1_555
H15 C18 1_555 1_555
H16 C18 1_555 1_555
C19 C18 1_555 1_555
H17 C19 1_555 1_555
H18 C19 1_555 1_555
C20 C19 1_555 1_555
C21 H19 1_555 1_555
H20 C21 1_555 1_555
C22 C21 1_555 1_555
C23 C22 1_555 1_555
H21 C23 1_555 1_555
C24 C23 1_555 1_555
H22 C24 1_555 1_555
C25 C24 1_555 1_555
C26 C25 1_555 1_555
H23 C26 1_555 1_555
C27 C22 1_555 1_555
H24 C27 1_555 1_555
C28 H25 1_555 1_555
H26 C28 1_555 1_555
C29 C28 1_555 1_555
C30 C29 1_555 1_555
H27 C30 1_555 1_555
C31 C30 1_555 1_555
H28 C31 1_555 1_555
C32 C31 1_555 1_555
C33 C32 1_555 1_555
H29 C33 1_555 1_555
C34 C29 1_555 1_555
H30 C34 1_555 1_555
N1 C6 1_555 1_555
N2 C1 1_555 1_555
N3 C13 1_555 1_555
N4 C17 1_555 1_555
N5 C25 1_555 1_555
N6 C32 1_555 1_555
O1 C11 1_555 1_555
O2 C12 1_555 1_555
O3 Cu1 1_555 1_555
O4 Cu1 1_555 1_555
O5 C16 1_555 1_555
O6 C20 1_555 1_555
O7 N5 1_555 1_555
O8 N5 1_555 1_555
O9 N6 1_555 1_555
O10 N6 1_555 1_555
Cu1_2 N2 1_555 1_555
Cu1B O5 1_555 1_555
N2_2 Cu1 1_555 1_555
O5B Cu1 1_555 1_555
C5 N2 1_555 1_555
C7 C8 1_555 1_555
C10 N1 1_555 1_555
C11 O3 1_555 1_555
C12 O4 1_555 1_555
C16 N3 1_555 1_555
C20 N4 1_555 1_555
C21 N3 1_555 1_555
C26 C27 1_555 1_555
C28 N4 1_555 1_555
C33 C34 1_555 1_555

#END
