
#######################################################################
#
#                 Cambridge Crystallographic Data Centre
#                                CCDC 
#
#######################################################################
#
# If this CIF has been generated from an entry in the Cambridge 
# Structural Database, then it will include bibliographic, chemical, 
# crystal, experimental, refinement or atomic coordinate data resulting 
# from the CCDC's data processing and validation procedures.
#
#######################################################################

data_YAYMES
_symmetry_cell_setting           monoclinic
_symmetry_space_group_name_H-M   'P 21'
_symmetry_Int_Tables_number      4
_space_group_name_Hall           'P 2yb'
loop_
_symmetry_equiv_pos_site_id
_symmetry_equiv_pos_as_xyz
1 x,y,z
2 -x,1/2+y,-z
_cell_length_a                   7.2547(14)
_cell_length_b                   7.3221(11)
_cell_length_c                   13.748(3)
_cell_angle_alpha                90
_cell_angle_beta                 100.432(13)
_cell_angle_gamma                90
_cell_volume                     718.217
loop_
_atom_site_label
_atom_site_type_symbol
_atom_site_fract_x
_atom_site_fract_y
_atom_site_fract_z
Cu1 Cu 0.95955(7) 0.22495(8) 0.67359(4)
C1 C 1.7313(7) -0.0975(6) 0.6583(4)
C2 C 1.5273(7) -0.1557(6) 0.6295(4)
H1 H 1.4889 -0.2140 0.6860
H2 H 1.5174 -0.2457 0.5770
C3 C 1.3923(8) 0.0021(7) 0.5946(4)
H3 H 1.4483 0.0786 0.5502
H4 H 1.2778 -0.0486 0.5568
C4 C 1.3413(8) 0.1219(7) 0.6762(4)
H5 H 1.4486 0.1217 0.7309
C5 C 1.3046(8) 0.3188(8) 0.6437(4)
C6 C 1.2082(7) 0.0169(7) 0.8247(4)
H6 H 1.0923 -0.0223 0.8440
H7 H 1.2470 0.1300 0.8592
C7 C 1.3577(8) -0.1274(7) 0.8553(4)
C8 C 1.5405(9) -0.0787(8) 0.8956(5)
H8 H 1.5697 0.0433 0.9096
C9 C 1.6791(10) -0.2093(9) 0.9151(5)
H9 H 1.8017 -0.1754 0.9410
C10 C 1.6353(9) -0.3901(9) 0.8963(5)
C11 C 1.4505(9) -0.4408(8) 0.8590(5)
H10 H 1.4200 -0.5632 0.8473
C12 C 1.3146(7) -0.3096(7) 0.8396(4)
H11 H 1.1913 -0.3438 0.8156
C13 C 1.7800(11) -0.5311(11) 0.9137(5)
N1 N 1.1744(6) 0.0506(5) 0.7157(3)
H12 H 1.1416 -0.0581 0.6854
N2 N 1.8908(10) -0.6413(11) 0.9266(6)
O1 O 1.1513(5) 0.3932(5) 0.6571(3)
O2 O 1.4195(6) 0.4014(5) 0.6039(3)
O3 O 1.7566(6) 0.0683(5) 0.6857(3)
O4 O 1.8577(5) -0.2076(5) 0.6546(3)
O5 O 0.7843(6) 0.4292(5) 0.6707(3)
H13 H 0.6781 0.3948 0.6471
O6 O 0.9322(6) 0.1608(5) 0.5007(3)
H14 H 1.0108 0.2200 0.4781
Cu1_2 Cu 1.95955(7) 0.22495(8) 0.67359(4)
O3_2 O 0.7566(6) 0.0683(5) 0.6857(3)
loop_
_geom_bond_atom_site_label_1
_geom_bond_atom_site_label_2
_geom_bond_site_symmetry_1
_geom_bond_site_symmetry_2
Cu1 N1 1_555 1_555
C1 C2 1_555 1_555
C2 H1 1_555 1_555
H2 C2 1_555 1_555
C3 C2 1_555 1_555
H3 C3 1_555 1_555
H4 C3 1_555 1_555
C4 C3 1_555 1_555
H5 C4 1_555 1_555
C5 C4 1_555 1_555
C6 H6 1_555 1_555
H7 C6 1_555 1_555
C7 C6 1_555 1_555
C8 C7 1_555 1_555
H8 C8 1_555 1_555
C9 C8 1_555 1_555
H9 C9 1_555 1_555
C10 C9 1_555 1_555
C11 C10 1_555 1_555
H10 C11 1_555 1_555
C12 C7 1_555 1_555
H11 C12 1_555 1_555
C13 C10 1_555 1_555
N1 C4 1_555 1_555
H12 N1 1_555 1_555
N2 C13 1_555 1_555
O1 Cu1 1_555 1_555
O2 C5 1_555 1_555
O3 C1 1_555 1_555
O4 C1 1_555 1_555
O5 Cu1 1_555 1_555
H13 O5 1_555 1_555
O6 Cu1 1_555 1_555
H14 O6 1_555 1_555
Cu1_2 O3 1_555 1_555
O3_2 Cu1 1_555 1_555
C5 O1 1_555 1_555
C6 N1 1_555 1_555
C11 C12 1_555 1_555

#END
