
#######################################################################
#
#                 Cambridge Crystallographic Data Centre
#                                CCDC 
#
#######################################################################
#
# If this CIF has been generated from an entry in the Cambridge 
# Structural Database, then it will include bibliographic, chemical, 
# crystal, experimental, refinement or atomic coordinate data resulting 
# from the CCDC's data processing and validation procedures.
#
#######################################################################

data_YAYMUI
_symmetry_cell_setting           monoclinic
_symmetry_space_group_name_H-M   'P 21'
_symmetry_Int_Tables_number      4
_space_group_name_Hall           'P 2yb'
loop_
_symmetry_equiv_pos_site_id
_symmetry_equiv_pos_as_xyz
1 x,y,z
2 -x,1/2+y,-z
_cell_length_a                   11.759(7)
_cell_length_b                   8.819(5)
_cell_length_c                   18.246(11)
_cell_angle_alpha                90
_cell_angle_beta                 104.066(10)
_cell_angle_gamma                90
_cell_volume                     1835.42
loop_
_atom_site_label
_atom_site_type_symbol
_atom_site_fract_x
_atom_site_fract_y
_atom_site_fract_z
Cd1 Cd 0.65501(2) 0.05662(3) 0.207796(16)
C1 C -0.0776(6) 0.1839(8) 0.2325(5)
H1 H -0.1127 0.2703 0.2464
C2 C 0.0425(5) 0.1859(8) 0.2397(4)
H2 H 0.0869 0.2696 0.2605
C3 C 0.0951(3) 0.0624(12) 0.2157(2)
C4 C 0.0273(5) -0.0642(7) 0.1931(4)
H3 H 0.0612 -0.1530 0.1809
C5 C -0.0923(5) -0.0579(7) 0.1888(4)
H4 H -0.1375 -0.1436 0.1725
C6 C 0.4221(5) 0.1157(9) 0.2734(4)
H5 H 0.4775 0.1529 0.3149
C7 C 0.3050(5) 0.1229(9) 0.2750(4)
H6 H 0.2833 0.1687 0.3155
C8 C 0.2225(3) 0.0632(12) 0.2175(2)
C9 C 0.2611(4) 0.0014(7) 0.1593(3)
H7 H 0.2078 -0.0399 0.1179
C10 C 0.3795(4) 0.0004(7) 0.1620(3)
H8 H 0.4039 -0.0449 0.1224
C11 C 0.6211(4) -0.2750(6) 0.0963(3)
C12 C 0.6850(6) -0.3279(7) 0.0387(3)
H9 H 0.6411 -0.3039 -0.0122
H10 H 0.7621 -0.2821 0.0475
C13 C 0.6935(6) -0.4955(7) 0.0510(4)
H11 H 0.7660 -0.5221 0.0871
H12 H 0.6900 -0.5486 0.0040
C14 C 0.5870(5) -0.5342(6) 0.0821(3)
H13 H 0.5181 -0.5497 0.0401
C15 C 0.6096(5) -0.6756(7) 0.1305(3)
C16 C 0.4949(4) -0.3816(6) 0.1718(3)
H14 H 0.5037 -0.2815 0.1945
H15 H 0.5181 -0.4552 0.2122
C17 C 0.3679(4) -0.4063(5) 0.1332(3)
C18 C 0.2935(5) -0.450(2) 0.1757(3)
H16 H 0.3217 -0.4716 0.2269
C19 C 0.1754(6) -0.463(2) 0.1417(5)
H17 H 0.1222 -0.4818 0.1709
C20 C 0.1385(5) -0.448(2) 0.0684(5)
C21 C 0.2084(5) -0.3968(9) 0.0251(4)
H18 H 0.1781 -0.3750 -0.0258
C22 C 0.3266(5) -0.3777(7) 0.0586(3)
H19 H 0.3774 -0.3454 0.0298
C23 C 0.7338(4) -0.0804(6) 0.3450(3)
C24 C 0.7799(5) -0.1720(6) 0.4163(3)
H20 H 0.8317 -0.2528 0.4068
C25 C 0.6743(6) -0.2413(9) 0.4422(4)
H21 H 0.6044 -0.1798 0.4254
H22 H 0.6578 -0.3437 0.4232
C26 C 0.7162(8) -0.2401(11) 0.5273(5)
H23 H 0.6522 -0.2143 0.5500
H24 H 0.7461 -0.3391 0.5456
C27 C 0.8096(8) -0.1256(9) 0.5467(4)
C28 C 0.9366(5) 0.0175(7) 0.4809(4)
H25 H 0.9521 0.0794 0.5262
H26 H 0.9136 0.0850 0.4379
C29 C 1.0477(5) -0.0612(7) 0.4767(3)
C30 C 1.0668(7) -0.1022(9) 0.4084(5)
H27 H 1.0085 -0.0806 0.3652
C31 C 1.1655(9) -0.1723(12) 0.3995(7)
H28 H 1.1761 -0.1970 0.3520
C32 C 1.2466(10) -0.2036(14) 0.4629(9)
C33 C 1.2370(7) -0.1649(10) 0.5334(7)
H29 H 1.2976 -0.1852 0.5756
C34 C 1.1328(6) -0.0933(8) 0.5414(4)
H30 H 1.1222 -0.0686 0.5888
N1 N 0.4593(3) 0.0600(11) 0.21737(18)
N2 N -0.1451(3) 0.0655(9) 0.2070(2)
N3 N 0.5733(3) -0.3943(4) 0.1216(2)
N4 N 0.8387(4) -0.0834(6) 0.4819(3)
N5 N 0.0121(6) -0.466(3) 0.0292(8)
N6 N 1.3587(13) -0.2797(19) 0.4646(14)
O1 O 0.6104(4) -0.1390(5) 0.1141(2)
O2 O 0.6536(3) -0.6670(4) 0.2009(2)
O3 O 0.5854(4) -0.7993(5) 0.0965(2)
O4 O -0.0277(7) -0.437(4) -0.0253(7)
O5 O -0.0464(9) -0.498(4) 0.0656(11)
O6 O 0.7055(3) -0.1575(4) 0.2845(2)
O7 O 0.7212(3) 0.0603(7) 0.34521(16)
O8 O 0.8551(7) -0.0775(8) 0.6093(3)
O9 O 1.3698(11) -0.302(2) 0.3964(12)
O10 O 1.4271(9) -0.3129(18) 0.5170(10)
Cd1_2 Cd -0.34499(2) 0.05662(3) 0.207796(16)
Cd1_3 Cd 0.65501(2) -0.94338(3) 0.207796(16)
N2_2 N 0.8549(3) 0.0655(9) 0.2070(2)
O2_2 O 0.6536(3) 0.3330(4) 0.2009(2)
O3_2 O 0.5854(4) 0.2007(5) 0.0965(2)
O11 O 0.7977(4) -0.4427(10) 0.2762(3)
O12 O 0.9726(6) 0.0835(10) 0.7342(4)
loop_
_geom_bond_atom_site_label_1
_geom_bond_atom_site_label_2
_geom_bond_site_symmetry_1
_geom_bond_site_symmetry_2
Cd1 N1 1_555 1_555
C1 H1 1_555 1_555
C2 C1 1_555 1_555
H2 C2 1_555 1_555
C3 C2 1_555 1_555
C4 C3 1_555 1_555
H3 C4 1_555 1_555
C5 C4 1_555 1_555
H4 C5 1_555 1_555
C6 H5 1_555 1_555
C7 C6 1_555 1_555
H6 C7 1_555 1_555
C8 C3 1_555 1_555
C9 C8 1_555 1_555
H7 C9 1_555 1_555
C10 C9 1_555 1_555
H8 C10 1_555 1_555
C11 C12 1_555 1_555
C12 H9 1_555 1_555
H10 C12 1_555 1_555
C13 C12 1_555 1_555
H11 C13 1_555 1_555
H12 C13 1_555 1_555
C14 C13 1_555 1_555
H13 C14 1_555 1_555
C15 C14 1_555 1_555
C16 H14 1_555 1_555
H15 C16 1_555 1_555
C17 C16 1_555 1_555
C18 C17 1_555 1_555
H16 C18 1_555 1_555
C19 C18 1_555 1_555
H17 C19 1_555 1_555
C20 C19 1_555 1_555
C21 C20 1_555 1_555
H18 C21 1_555 1_555
C22 C17 1_555 1_555
H19 C22 1_555 1_555
C23 C24 1_555 1_555
C24 H20 1_555 1_555
C25 C24 1_555 1_555
H21 C25 1_555 1_555
H22 C25 1_555 1_555
C26 C25 1_555 1_555
H23 C26 1_555 1_555
H24 C26 1_555 1_555
C27 C26 1_555 1_555
C28 H25 1_555 1_555
H26 C28 1_555 1_555
C29 C28 1_555 1_555
C30 C29 1_555 1_555
H27 C30 1_555 1_555
C31 C30 1_555 1_555
H28 C31 1_555 1_555
C32 C31 1_555 1_555
C33 C32 1_555 1_555
H29 C33 1_555 1_555
C34 C29 1_555 1_555
H30 C34 1_555 1_555
N1 C6 1_555 1_555
N2 C1 1_555 1_555
N3 C11 1_555 1_555
N4 C24 1_555 1_555
N5 C20 1_555 1_555
N6 C32 1_555 1_555
O1 Cd1 1_555 1_555
O2 C15 1_555 1_555
O3 C15 1_555 1_555
O4 N5 1_555 1_555
O5 N5 1_555 1_555
O6 Cd1 1_555 1_555
O7 Cd1 1_555 1_555
O8 C27 1_555 1_555
O9 N6 1_555 1_555
O10 N6 1_555 1_555
Cd1_2 N2 1_555 1_555
Cd1_3 O2 1_555 1_555
N2_2 Cd1 1_555 1_555
O2_2 Cd1 1_555 1_555
O3_2 Cd1 1_555 1_555
C5 N2 1_555 1_555
C7 C8 1_555 1_555
C10 N1 1_555 1_555
C11 O1 1_555 1_555
C14 N3 1_555 1_555
C16 N3 1_555 1_555
C21 C22 1_555 1_555
C23 O6 1_555 1_555
C23 O7 1_555 1_555
C27 N4 1_555 1_555
C28 N4 1_555 1_555
C33 C34 1_555 1_555
O3 Cd1_3 1_555 1_555

#END
