
#######################################################################
#
#                 Cambridge Crystallographic Data Centre
#                                CCDC 
#
#######################################################################
#
# If this CIF has been generated from an entry in the Cambridge 
# Structural Database, then it will include bibliographic, chemical, 
# crystal, experimental, refinement or atomic coordinate data resulting 
# from the CCDC's data processing and validation procedures.
#
#######################################################################

data_YAYNAP
_symmetry_cell_setting           monoclinic
_symmetry_space_group_name_H-M   'C 2'
_symmetry_Int_Tables_number      5
_space_group_name_Hall           'C 2y'
loop_
_symmetry_equiv_pos_site_id
_symmetry_equiv_pos_as_xyz
1 x,y,z
2 -x,y,-z
3 1/2+x,1/2+y,z
4 1/2-x,1/2+y,-z
_cell_length_a                   15.444(11)
_cell_length_b                   11.308(7)
_cell_length_c                   10.076(7)
_cell_angle_alpha                90
_cell_angle_beta                 104.115(9)
_cell_angle_gamma                90
_cell_volume                     1706.55
loop_
_atom_site_label
_atom_site_type_symbol
_atom_site_fract_x
_atom_site_fract_y
_atom_site_fract_z
Ni1 Ni 1.0000 0.99277(4) 0.0000
C1 C 0.9253(3) 0.7450(3) -0.0097(4)
H1 H 0.8721 0.7859 -0.0171
C2 C 0.9222(3) 0.6228(3) -0.0094(4)
H2 H 0.8684 0.5837 -0.0155
C3 C 1.0000 0.5595(4) 0.0000
C4 C 0.9256(3) 0.2403(3) -0.0059(4)
H3 H 0.8730 0.1987 -0.0109
C5 C 0.9224(3) 0.3625(3) -0.0051(4)
H4 H 0.8687 0.4011 -0.0079
C6 C 1.0000 0.4279(4) 0.0000
C7 C 0.84134(16) 0.9996(4) 0.1288(3)
C8 C 0.8090(2) 1.0235(2) 0.2573(3)
H5 H 0.7445 1.0379 0.2313
C9 C 0.8552(3) 1.1275(3) 0.3447(4)
H6 H 0.9155 1.1382 0.3341
H7 H 0.8220 1.2002 0.3193
C10 C 0.8560(3) 1.0922(3) 0.4908(4)
H8 H 0.9116 1.1155 0.5536
H9 H 0.8067 1.1284 0.5196
C11 C 0.8467(2) 0.9600(3) 0.4851(3)
C12 C 0.7944(2) 0.8067(3) 0.3148(4)
H10 H 0.7564 0.8097 0.2227
H11 H 0.7575 0.7821 0.3752
C13 C 0.86560(19) 0.7140(3) 0.3191(3)
C14 C 0.8404(2) 0.5955(3) 0.3125(3)
H12 H 0.7807 0.5764 0.3031
C15 C 0.9015(2) 0.5064(4) 0.3194(3)
H13 H 0.8841 0.4275 0.3150
C16 C 0.9893(2) 0.5373(3) 0.3330(3)
C17 C 1.0186(3) 0.6534(3) 0.3391(4)
H14 H 1.0785 0.6715 0.3486
C18 C 0.9548(2) 0.7416(2) 0.3305(3)
H15 H 0.9721 0.8205 0.3325
N1 N 1.0000 0.8084(3) 0.0000
N2 N 1.0000 0.1792(3) 0.0000
N3 N 0.82750(16) 0.9250(2) 0.3537(3)
N4 N 1.0569(2) 0.4423(3) 0.3468(3)
O1 O 0.92510(10) 0.9944(3) 0.14360(17)
O2 O 0.78374(12) 0.9900(3) 0.0184(2)
O3 O 0.85281(17) 0.8921(2) 0.5845(3)
O4 O 1.0310(3) 0.3402(3) 0.3472(4)
O5 O 1.13437(17) 0.4697(3) 0.3561(3)
O6 O 0.88510(10) 0.9982(3) -0.16022(18)
Ni1_2 Ni 1.0000 -0.00723(4) 0.0000
C1A C 1.0747(3) 0.7450(3) 0.0097(4)
H1A H 1.1279 0.7859 0.0171
C2A C 1.0778(3) 0.6228(3) 0.0094(4)
H2A H 1.1316 0.5837 0.0155
C4A C 1.0744(3) 0.2403(3) 0.0059(4)
H3A H 1.1270 0.1987 0.0109
C5A C 1.0776(3) 0.3625(3) 0.0051(4)
H4A H 1.1313 0.4011 0.0079
C7A C 1.15866(16) 0.9996(4) -0.1288(3)
C8A C 1.1910(2) 1.0235(2) -0.2573(3)
H5A H 1.2555 1.0379 -0.2313
C9A C 1.1448(3) 1.1275(3) -0.3447(4)
H6A H 1.0845 1.1382 -0.3341
H7A H 1.1780 1.2002 -0.3193
C10A C 1.1440(3) 1.0922(3) -0.4908(4)
H8A H 1.0884 1.1155 -0.5536
H9A H 1.1933 1.1284 -0.5196
C11A C 1.1533(2) 0.9600(3) -0.4851(3)
C12A C 1.2056(2) 0.8067(3) -0.3148(4)
H10A H 1.2436 0.8097 -0.2227
H11A H 1.2425 0.7821 -0.3752
C13A C 1.13440(19) 0.7140(3) -0.3191(3)
C14A C 1.1596(2) 0.5955(3) -0.3125(3)
H12A H 1.2193 0.5764 -0.3031
C15A C 1.0985(2) 0.5064(4) -0.3194(3)
H13A H 1.1159 0.4275 -0.3150
C16A C 1.0107(2) 0.5373(3) -0.3330(3)
C17A C 0.9814(3) 0.6534(3) -0.3391(4)
H14A H 0.9215 0.6715 -0.3486
C18A C 1.0452(2) 0.7416(2) -0.3305(3)
H15A H 1.0279 0.8205 -0.3325
N2_2 N 1.0000 1.1792(3) 0.0000
N3A N 1.17250(16) 0.9250(2) -0.3537(3)
N4A N 0.9431(2) 0.4423(3) -0.3468(3)
O1A O 1.07490(10) 0.9944(3) -0.14360(17)
O2A O 1.21626(12) 0.9900(3) -0.0184(2)
O3A O 1.14719(17) 0.8921(2) -0.5845(3)
O4A O 0.9690(3) 0.3402(3) -0.3472(4)
O5A O 0.86563(17) 0.4697(3) -0.3561(3)
O6A O 1.11490(10) 0.9982(3) 0.16022(18)
loop_
_geom_bond_atom_site_label_1
_geom_bond_atom_site_label_2
_geom_bond_site_symmetry_1
_geom_bond_site_symmetry_2
Ni1 N1 1_555 1_555
C1 H1 1_555 1_555
C2 C1 1_555 1_555
H2 C2 1_555 1_555
C3 C2 1_555 1_555
C4 H3 1_555 1_555
C5 C4 1_555 1_555
H4 C5 1_555 1_555
C6 C3 1_555 1_555
C7 C8 1_555 1_555
C8 H5 1_555 1_555
C9 C8 1_555 1_555
H6 C9 1_555 1_555
H7 C9 1_555 1_555
C10 C9 1_555 1_555
H8 C10 1_555 1_555
H9 C10 1_555 1_555
C11 C10 1_555 1_555
C12 H10 1_555 1_555
H11 C12 1_555 1_555
C13 C12 1_555 1_555
C14 C13 1_555 1_555
H12 C14 1_555 1_555
C15 C14 1_555 1_555
H13 C15 1_555 1_555
C16 C15 1_555 1_555
C17 C16 1_555 1_555
H14 C17 1_555 1_555
C18 C13 1_555 1_555
H15 C18 1_555 1_555
N1 C1 1_555 1_555
N2 C4 1_555 1_555
N3 C8 1_555 1_555
N4 C16 1_555 1_555
O1 Ni1 1_555 1_555
O2 C7 1_555 1_555
O3 C11 1_555 1_555
O4 N4 1_555 1_555
O5 N4 1_555 1_555
O6 Ni1 1_555 1_555
Ni1_2 N2 1_555 1_555
C1A N1 1_555 1_555
H1A C1A 1_555 1_555
C2A C3 1_555 1_555
H2A C2A 1_555 1_555
C4A N2 1_555 1_555
H3A C4A 1_555 1_555
C5A C6 1_555 1_555
H4A C5A 1_555 1_555
C7A C8A 1_555 1_555
C8A H5A 1_555 1_555
C9A C8A 1_555 1_555
H6A C9A 1_555 1_555
H7A C9A 1_555 1_555
C10A C9A 1_555 1_555
H8A C10A 1_555 1_555
H9A C10A 1_555 1_555
C11A C10A 1_555 1_555
C12A H10A 1_555 1_555
H11A C12A 1_555 1_555
C13A C12A 1_555 1_555
C14A C13A 1_555 1_555
H12A C14A 1_555 1_555
C15A C14A 1_555 1_555
H13A C15A 1_555 1_555
C16A C15A 1_555 1_555
C17A C16A 1_555 1_555
H14A C17A 1_555 1_555
C18A C13A 1_555 1_555
H15A C18A 1_555 1_555
N2_2 Ni1 1_555 1_555
N3A C8A 1_555 1_555
N4A C16A 1_555 1_555
O1A Ni1 1_555 1_555
O2A C7A 1_555 1_555
O3A C11A 1_555 1_555
O4A N4A 1_555 1_555
O5A N4A 1_555 1_555
O6A Ni1 1_555 1_555
C5 C6 1_555 1_555
C7 O1 1_555 1_555
C11 N3 1_555 1_555
C12 N3 1_555 1_555
C17 C18 1_555 1_555
C1A C2A 1_555 1_555
C4A C5A 1_555 1_555
C7A O1A 1_555 1_555
C11A N3A 1_555 1_555
C12A N3A 1_555 1_555
C17A C18A 1_555 1_555

#END
