
#######################################################################
#
#                 Cambridge Crystallographic Data Centre
#                                CCDC 
#
#######################################################################
#
# If this CIF has been generated from an entry in the Cambridge 
# Structural Database, then it will include bibliographic, chemical, 
# crystal, experimental, refinement or atomic coordinate data resulting 
# from the CCDC's data processing and validation procedures.
#
#######################################################################

data_YAYPAR
_symmetry_cell_setting           monoclinic
_symmetry_space_group_name_H-M   'P 21/c'
_symmetry_Int_Tables_number      14
_space_group_name_Hall           '-P 2ybc'
loop_
_symmetry_equiv_pos_site_id
_symmetry_equiv_pos_as_xyz
1 x,y,z
2 -x,1/2+y,1/2-z
3 -x,-y,-z
4 x,1/2-y,1/2+z
_cell_length_a                   10.1611(7)
_cell_length_b                   20.5782(13)
_cell_length_c                   10.2490(7)
_cell_angle_alpha                90
_cell_angle_beta                 95.863(1)
_cell_angle_gamma                90
_cell_volume                     2131.83
loop_
_atom_site_label
_atom_site_type_symbol
_atom_site_fract_x
_atom_site_fract_y
_atom_site_fract_z
Th1 Th 0.00082(3) 0.593098(14) 0.87186(3)
Th2 Th 0.00681(3) 0.812476(15) 0.82855(3)
P1 P 0.19881(19) 0.69143(10) 0.6691(2)
P2 P -0.19607(19) 0.56469(10) 1.1280(2)
P3 P 0.81775(19) 0.69370(10) 0.60962(19)
P4 P -0.81615(19) 0.56297(10) 1.1985(2)
F1 F -0.0019(5) 0.7044(2) 0.9082(5)
O1 O 0.1706(5) 0.7564(3) 0.7335(5)
O2 O 0.1716(5) 0.6326(3) 0.7559(5)
O3 O 0.1258(5) 0.6846(3) 0.5319(6)
O4 O -0.1765(6) 0.6010(3) 1.0034(6)
O5 O -0.1453(5) 0.4952(3) 1.1217(6)
O6 O -0.1308(5) 0.6001(3) 1.2492(6)
O7 O 0.8724(5) 0.7567(3) 0.6701(5)
O8 O 0.8769(5) 0.6343(3) 0.6869(5)
O9 O 0.8356(5) 0.6877(3) 0.4644(5)
O10 O -0.8631(5) 0.4935(3) 1.2090(6)
O11 O -0.8903(5) 0.5994(3) 1.0833(6)
O12 O -0.8313(5) 0.6016(3) 1.3233(6)
C1 C -0.3714(7) 0.5626(4) 1.1457(8)
C2 C -0.4425(8) 0.6210(4) 1.1457(9)
H1 H -0.3990 0.6611 1.1343
C3 C -0.5757(8) 0.6201(4) 1.1624(9)
H2 H -0.6229 0.6599 1.1635
C4 C -0.6412(7) 0.5621(4) 1.1774(8)
C5 C -0.5711(8) 0.5038(4) 1.1785(8)
H3 H -0.6154 0.4640 1.1908
C6 C -0.4365(8) 0.5035(4) 1.1616(8)
H4 H -0.3895 0.4636 1.1609
C7 C 0.3727(8) 0.6902(4) 0.6493(7)
C8 C 0.4646(8) 0.6808(4) 0.7600(8)
H5 H 0.4344 0.6741 0.8436
C9 C 0.5985(8) 0.6814(4) 0.7472(8)
H6 H 0.6601 0.6745 0.8220
C10 C 0.6441(7) 0.6922(4) 0.6235(8)
C11 C 0.5525(9) 0.7002(5) 0.5152(9)
H7 H 0.5822 0.7057 0.4309
C12 C 0.4175(8) 0.7001(5) 0.5279(9)
H8 H 0.3559 0.7068 0.4530
Th1B Th -0.00082(3) 0.406902(14) 1.12814(3)
Th1_2 Th 1.00082(3) 0.593098(14) 0.87186(3)
Th1B_2 Th -1.00082(3) 0.406902(14) 1.12814(3)
Th1_3 Th -0.99918(3) 0.593098(14) 0.87186(3)
Th2C Th 0.00681(3) 0.687524(15) 0.32855(3)
Th2C_2 Th 0.00681(3) 0.687524(15) 1.32855(3)
Th2_2 Th 1.00681(3) 0.812476(15) 0.82855(3)
Th2C_3 Th 1.00681(3) 0.687524(15) 0.32855(3)
Th2C_4 Th -0.99319(3) 0.687524(15) 1.32855(3)
O3C O 0.1258(5) 0.8154(3) 1.0319(6)
O5B O 0.1453(5) 0.5048(3) 0.8783(6)
O6C O -0.1308(5) 0.8999(3) 0.7492(6)
O7_2 O -0.1276(5) 0.7567(3) 0.6701(5)
O8_2 O -0.1231(5) 0.6343(3) 0.6869(5)
O9C O -0.1644(5) 0.8123(3) 0.9644(5)
O10B O -0.1369(5) 0.5065(3) 0.7910(6)
O11_2 O 0.1097(5) 0.5994(3) 1.0833(6)
O12C O 0.1687(5) 0.8984(3) 0.8233(6)
O13 O -0.172(3) 0.5320(15) 1.485(3)
loop_
_geom_bond_atom_site_label_1
_geom_bond_atom_site_label_2
_geom_bond_site_symmetry_1
_geom_bond_site_symmetry_2
Th1 F1 1_555 1_555
Th2 F1 1_555 1_555
P1 O1 1_555 1_555
P2 O4 1_555 1_555
P3 O7 1_555 1_555
P4 O10 1_555 1_555
O1 Th2 1_555 1_555
O2 Th1 1_555 1_555
O3 P1 1_555 1_555
O4 Th1 1_555 1_555
O5 P2 1_555 1_555
O6 P2 1_555 1_555
O7 Th2_2 1_555 1_555
O8 P3 1_555 1_555
O9 P3 1_555 1_555
O10 Th1B_2 1_555 1_555
O11 P4 1_555 1_555
O12 P4 1_555 1_555
C1 P2 1_555 1_555
C2 C1 1_555 1_555
H1 C2 1_555 1_555
C3 C2 1_555 1_555
H2 C3 1_555 1_555
C4 P4 1_555 1_555
C5 C4 1_555 1_555
H3 C5 1_555 1_555
C6 C1 1_555 1_555
H4 C6 1_555 1_555
C7 P1 1_555 1_555
C8 C7 1_555 1_555
H5 C8 1_555 1_555
C9 C8 1_555 1_555
H6 C9 1_555 1_555
C10 P3 1_555 1_555
C11 C10 1_555 1_555
H7 C11 1_555 1_555
C12 C7 1_555 1_555
H8 C12 1_555 1_555
Th1B O5 1_555 1_555
Th1_2 O8 1_555 1_555
Th1_3 O11 1_555 1_555
Th2C O3 1_555 1_555
Th2C_2 O6 1_555 1_555
Th2C_3 O9 1_555 1_555
Th2C_4 O12 1_555 1_555
O3C Th2 1_555 1_555
O5B Th1 1_555 1_555
O6C Th2 1_555 1_555
O7_2 Th2 1_555 1_555
O8_2 Th1 1_555 1_555
O9C Th2 1_555 1_555
O10B Th1 1_555 1_555
O11_2 Th1 1_555 1_555
O12C Th2 1_555 1_555
P1 O2 1_555 1_555
C3 C4 1_555 1_555
C5 C6 1_555 1_555
C9 C10 1_555 1_555
C11 C12 1_555 1_555

#END
