
#######################################################################
#
#                 Cambridge Crystallographic Data Centre
#                                CCDC 
#
#######################################################################
#
# If this CIF has been generated from an entry in the Cambridge 
# Structural Database, then it will include bibliographic, chemical, 
# crystal, experimental, refinement or atomic coordinate data resulting 
# from the CCDC's data processing and validation procedures.
#
#######################################################################

data_YAYPEV
_symmetry_cell_setting           triclinic
_symmetry_space_group_name_H-M   'P -1'
_symmetry_Int_Tables_number      2
_space_group_name_Hall           '-P 1'
loop_
_symmetry_equiv_pos_site_id
_symmetry_equiv_pos_as_xyz
1 x,y,z
2 -x,-y,-z
_cell_length_a                   5.2623(4)
_cell_length_b                   11.4968(8)
_cell_length_c                   12.4799(9)
_cell_angle_alpha                64.803(1)
_cell_angle_beta                 84.129(1)
_cell_angle_gamma                81.595(1)
_cell_volume                     675.173
loop_
_atom_site_label
_atom_site_type_symbol
_atom_site_fract_x
_atom_site_fract_y
_atom_site_fract_z
Th1 Th 0.76391(3) 0.218028(13) -0.187907(12)
P1 P 0.2650(2) 0.13556(10) 0.03809(9)
P2 P 1.3026(2) 0.21220(10) -0.40034(9)
P3 P -0.2042(2) 0.52136(10) 0.27417(9)
O1 O 0.5383(6) 0.1657(3) -0.0057(2)
O2 O 0.0993(6) 0.1614(3) -0.0653(2)
O3 O 0.2564(6) -0.0013(3) 0.1333(2)
O4 O 1.0597(6) 0.1748(3) -0.3281(3)
O5 O 1.5138(6) 0.2326(3) -0.3399(2)
O6 O 1.2241(6) 0.3436(3) -0.5128(2)
O7 O 0.0057(6) 0.5981(3) 0.2719(2)
O8 O -0.4503(6) 0.5956(3) 0.2183(2)
O9 O -0.2852(6) 0.4330(3) 0.4090(2)
C1 C 0.1316(8) 0.2432(4) 0.1052(3)
C2 C 0.2514(9) 0.3511(4) 0.0864(4)
H1 H 0.4045 0.3679 0.0376
C3 C 0.1505(9) 0.4334(4) 0.1376(4)
H2 H 0.2353 0.5063 0.1239
C4 C -0.0743(8) 0.4117(4) 0.2094(3)
C5 C -0.1966(8) 0.3037(4) 0.2289(4)
H3 H -0.3500 0.2873 0.2775
C6 C -0.0936(8) 0.2207(4) 0.1772(3)
H4 H -0.1775 0.1476 0.1908
C7 C 1.4179(8) 0.0944(4) -0.4578(3)
C8 C 1.2862(9) 0.0859(4) -0.5455(4)
H5 H 1.1400 0.1462 -0.5775
C9 C 1.6360(9) 0.0076(4) -0.4137(4)
H6 H 1.7305 0.0132 -0.3555
Th1_2 Th 1.76391(3) 0.218028(13) -0.187907(12)
Th1_3 Th -0.23609(3) 0.218028(13) -0.187907(12)
Th1A Th 0.23609(3) -0.218028(13) 0.187907(12)
Th1A_2 Th 0.23609(3) 0.781972(13) 0.187907(12)
Th1A_3 Th -0.76391(3) 0.781972(13) 0.187907(12)
Th1A_4 Th 2.23609(3) -0.218028(13) -0.812093(12)
Th1A_5 Th 1.23609(3) -0.218028(13) -0.812093(12)
Th1A_6 Th 1.23609(3) -0.218028(13) 0.187907(12)
Th1A_7 Th 1.23609(3) 0.781972(13) 0.187907(12)
P1_2 P 1.2650(2) 0.13556(10) 0.03809(9)
P2A P 1.6974(2) -0.21220(10) -0.59966(9)
P3_2 P 0.7958(2) 0.52136(10) 0.27417(9)
O1_2 O 1.5383(6) 0.1657(3) -0.0057(2)
O2_2 O 1.0993(6) 0.1614(3) -0.0653(2)
O2_3 O 2.0993(6) 0.1614(3) -0.0653(2)
O3_2 O 1.2564(6) -0.0013(3) 0.1333(2)
O3A O 0.7436(6) 0.0013(3) -0.1333(2)
O3A_2 O 1.7436(6) 0.0013(3) -0.1333(2)
O4A O 1.9403(6) -0.1748(3) -0.6719(3)
O4_2 O 2.0597(6) 0.1748(3) -0.3281(3)
O5A O 1.4862(6) -0.2326(3) -0.6601(2)
O5_2 O 0.5138(6) 0.2326(3) -0.3399(2)
O6A O 1.7759(6) -0.3436(3) -0.4872(2)
O7_2 O 1.0057(6) 0.5981(3) 0.2719(2)
O7A O 0.9943(6) 0.4019(3) -0.2719(2)
O7A_2 O 1.9943(6) 0.4019(3) -0.2719(2)
O8_2 O 0.5497(6) 0.5956(3) 0.2183(2)
O8A O 0.4503(6) 0.4044(3) -0.2183(2)
O8A_2 O 1.4503(6) 0.4044(3) -0.2183(2)
O9_2 O 0.7148(6) 0.4330(3) 0.4090(2)
C1_2 C 1.1316(8) 0.2432(4) 0.1052(3)
C2_2 C 1.2514(9) 0.3511(4) 0.0864(4)
H1_2 H 1.4045 0.3679 0.0376
C3_2 C 1.1505(9) 0.4334(4) 0.1376(4)
H2_2 H 1.2353 0.5063 0.1239
C4_2 C 0.9257(8) 0.4117(4) 0.2094(3)
C5_2 C 0.8034(8) 0.3037(4) 0.2289(4)
H3_2 H 0.6500 0.2873 0.2775
C6_2 C 0.9064(8) 0.2207(4) 0.1772(3)
H4_2 H 0.8225 0.1476 0.1908
C7A C 1.5821(8) -0.0944(4) -0.5422(3)
C8A C 1.7138(9) -0.0859(4) -0.4545(4)
H5A H 1.8600 -0.1462 -0.4225
C9A C 1.3640(9) -0.0076(4) -0.5863(4)
H6A H 1.2695 -0.0132 -0.6445
loop_
_geom_bond_atom_site_label_1
_geom_bond_atom_site_label_2
_geom_bond_site_symmetry_1
_geom_bond_site_symmetry_2
Th1 O1 1_555 1_555
P1 O1 1_555 1_555
P2 O4 1_555 1_555
P3 O7 1_555 1_555
O2 P1 1_555 1_555
O3 P1 1_555 1_555
O4 Th1 1_555 1_555
O5 P2 1_555 1_555
O6 P2 1_555 1_555
O7 Th1A_2 1_555 1_555
O8 P3 1_555 1_555
O9 P3 1_555 1_555
C1 P1 1_555 1_555
C2 C1 1_555 1_555
H1 C2 1_555 1_555
C3 C2 1_555 1_555
H2 C3 1_555 1_555
C4 P3 1_555 1_555
C5 C4 1_555 1_555
H3 C5 1_555 1_555
C6 C1 1_555 1_555
H4 C6 1_555 1_555
C7 P2 1_555 1_555
C8 C7 1_555 1_555
H5 C8 1_555 1_555
C9 C7 1_555 1_555
H6 C9 1_555 1_555
Th1_2 O5 1_555 1_555
Th1_3 O2 1_555 1_555
Th1A O3 1_555 1_555
Th1A_2 O8_2 1_555 1_555
Th1A_3 O8 1_555 1_555
Th1A_4 O4A 1_555 1_555
Th1A_5 O5A 1_555 1_555
Th1A_6 O3_2 1_555 1_555
Th1A_7 O7_2 1_555 1_555
P1_2 O1_2 1_555 1_555
P2A O4A 1_555 1_555
P3_2 O7_2 1_555 1_555
O1_2 Th1_2 1_555 1_555
O2_2 Th1 1_555 1_555
O2_3 Th1_2 1_555 1_555
O3_2 P1_2 1_555 1_555
O3A Th1 1_555 1_555
O3A_2 Th1_2 1_555 1_555
O4_2 Th1_2 1_555 1_555
O5A P2A 1_555 1_555
O5_2 Th1 1_555 1_555
O6A P2A 1_555 1_555
O7A Th1 1_555 1_555
O7A_2 Th1_2 1_555 1_555
O8_2 P3_2 1_555 1_555
O8A Th1 1_555 1_555
O8A_2 Th1_2 1_555 1_555
O9_2 P3_2 1_555 1_555
C1_2 P1_2 1_555 1_555
C2_2 C1_2 1_555 1_555
H1_2 C2_2 1_555 1_555
C3_2 C2_2 1_555 1_555
H2_2 C3_2 1_555 1_555
C4_2 P3_2 1_555 1_555
C5_2 C4_2 1_555 1_555
H3_2 C5_2 1_555 1_555
C6_2 C1_2 1_555 1_555
H4_2 C6_2 1_555 1_555
C7A P2A 1_555 1_555
C8A C9 1_555 1_555
H5A C8A 1_555 1_555
C9A C8 1_555 1_555
H6A C9A 1_555 1_555
C3 C4 1_555 1_555
C5 C6 1_555 1_555
P1_2 O2_2 1_555 1_555
C3_2 C4_2 1_555 1_555
C5_2 C6_2 1_555 1_555
C7A C8A 1_555 1_555
C7A C9A 1_555 1_555

#END
