
#######################################################################
#
#                 Cambridge Crystallographic Data Centre
#                                CCDC 
#
#######################################################################
#
# If this CIF has been generated from an entry in the Cambridge 
# Structural Database, then it will include bibliographic, chemical, 
# crystal, experimental, refinement or atomic coordinate data resulting 
# from the CCDC's data processing and validation procedures.
#
#######################################################################

data_YAYPUJ
_symmetry_cell_setting           triclinic
_symmetry_space_group_name_H-M   'P -1'
_symmetry_Int_Tables_number      2
_space_group_name_Hall           '-P 1'
loop_
_symmetry_equiv_pos_site_id
_symmetry_equiv_pos_as_xyz
1 x,y,z
2 -x,-y,-z
_cell_length_a                   8.642(1)
_cell_length_b                   9.197(1)
_cell_length_c                   10.645(2)
_cell_angle_alpha                67.14(1)
_cell_angle_beta                 62.28(1)
_cell_angle_gamma                73.95(1)
_cell_volume                     685.368
loop_
_atom_site_label
_atom_site_type_symbol
_atom_site_fract_x
_atom_site_fract_y
_atom_site_fract_z
Cu1 Cu -0.01136(3) 0.23788(3) 0.46710(2)
Co1 Co 0.25478(3) 0.14610(3) -0.06703(2)
O1 O 0.3279(2) 0.2070(2) 0.0653(1)
O2 O 0.0208(2) 0.1226(2) 0.1303(1)
O3 O 0.0905(2) 0.3069(2) 0.5635(1)
O4 O -0.2124(2) 0.1693(2) 0.6541(1)
O5 O 0.2106(2) 0.4867(2) 0.5666(1)
O6 O -0.4908(2) 0.1483(2) 0.7873(2)
O7 O 0.3081(2) -0.1083(2) 0.0198(1)
O8 O 0.1800(2) 0.3956(2) -0.1503(2)
O9 O 0.1417(2) 0.1164(2) -0.1831(1)
N1 N 0.2026(2) 0.2631(2) 0.2882(2)
N2 N -0.0890(2) 0.1647(2) 0.3591(2)
C1 C 0.0299(2) 0.1619(2) 0.2283(2)
C2 C 0.2042(2) 0.2147(2) 0.1886(2)
C3 C 0.3555(2) 0.3266(2) 0.2619(2)
C4 C 0.2965(3) 0.4606(2) 0.3297(2)
C5 C 0.1937(2) 0.4154(2) 0.4978(2)
C6 C -0.2621(2) 0.1165(2) 0.4154(2)
C7 C -0.3986(2) 0.1999(2) 0.5284(2)
C8 C -0.3656(2) 0.1700(2) 0.6643(2)
H1 H 0.418(3) 0.363(2) 0.163(2)
H2 H 0.433(3) 0.248(2) 0.296(2)
H3 H 0.224(3) 0.542(2) 0.289(2)
H4 H 0.396(3) 0.510(3) 0.296(2)
H5 H -0.261(3) 0.002(2) 0.459(2)
H6 H -0.301(3) 0.141(2) 0.343(2)
H7 H -0.407(2) 0.306(2) 0.483(2)
H8 H -0.503(3) 0.180(3) 0.552(2)
H9 H 0.275(3) -0.126(3) 0.095(3)
H10 H 0.399(3) -0.139(3) -0.010(2)
H11 H 0.194(4) 0.432(3) -0.230(3)
H12 H 0.242(4) 0.431(4) -0.153(3)
H13 H 0.110(3) 0.181(3) -0.242(3)
H14 H 0.105(3) 0.049(3) -0.165(2)
O5A O -0.2106(2) 0.5133(2) 0.4334(1)
O6_2 O 0.5092(2) 0.1483(2) -0.2127(2)
Cu1A Cu 0.01136(3) 0.76212(3) 0.53290(2)
Co1_2 Co -0.74522(3) 0.14610(3) 0.93297(2)
O10 O 0.2138(2) 0.5962(2) -0.0214(2)
H15 H 0.131(4) 0.612(4) 0.018(3)
H16 H 0.242(4) 0.661(3) -0.040(3)
loop_
_geom_bond_atom_site_label_1
_geom_bond_atom_site_label_2
_geom_bond_site_symmetry_1
_geom_bond_site_symmetry_2
Cu1 O3 1_555 1_555
Co1 O1 1_555 1_555
O1 C2 1_555 1_555
O2 Co1 1_555 1_555
O3 C5 1_555 1_555
O4 Cu1 1_555 1_555
O5 C5 1_555 1_555
O6 C8 1_555 1_555
O7 Co1 1_555 1_555
O8 Co1 1_555 1_555
O9 Co1 1_555 1_555
O10 H15 1_555 1_555
N1 Cu1 1_555 1_555
N2 Cu1 1_555 1_555
C1 O2 1_555 1_555
C2 N1 1_555 1_555
C3 N1 1_555 1_555
C4 C3 1_555 1_555
C5 C4 1_555 1_555
C6 N2 1_555 1_555
C7 C6 1_555 1_555
C8 O4 1_555 1_555
H1 C3 1_555 1_555
H2 C3 1_555 1_555
H3 C4 1_555 1_555
H4 C4 1_555 1_555
H5 C6 1_555 1_555
H6 C6 1_555 1_555
H7 C7 1_555 1_555
H8 C7 1_555 1_555
H9 O7 1_555 1_555
H10 O7 1_555 1_555
H11 O8 1_555 1_555
H12 O8 1_555 1_555
H13 O9 1_555 1_555
H14 O9 1_555 1_555
H16 O10 1_555 1_555
O5A Cu1 1_555 1_555
O6_2 Co1 1_555 1_555
Cu1A O5 1_555 1_555
Co1_2 O6 1_555 1_555
N2 C1 1_555 1_555
C1 C2 1_555 1_555
C7 C8 1_555 1_555

#END
