
#######################################################################
#
#                 Cambridge Crystallographic Data Centre
#                                CCDC 
#
#######################################################################
#
# If this CIF has been generated from an entry in the Cambridge 
# Structural Database, then it will include bibliographic, chemical, 
# crystal, experimental, refinement or atomic coordinate data resulting 
# from the CCDC's data processing and validation procedures.
#
#######################################################################

data_YAYPOF
_symmetry_cell_setting           monoclinic
_symmetry_space_group_name_H-M   'P 21/n'
_symmetry_Int_Tables_number      14
_space_group_name_Hall           '-P 2yn'
loop_
_symmetry_equiv_pos_site_id
_symmetry_equiv_pos_as_xyz
1 x,y,z
2 1/2-x,1/2+y,1/2-z
3 -x,-y,-z
4 1/2+x,1/2-y,1/2+z
_cell_length_a                   11.2480(6)
_cell_length_b                   20.8734(11)
_cell_length_c                   14.6641(8)
_cell_angle_alpha                90
_cell_angle_beta                 105.318(1)
_cell_angle_gamma                90
_cell_volume                     3320.59
loop_
_atom_site_label
_atom_site_type_symbol
_atom_site_fract_x
_atom_site_fract_y
_atom_site_fract_z
U1 U 0.777224(17) 0.225222(9) 0.558790(13)
U2 U 0.874672(17) 0.014830(9) 0.372840(13)
U3 U 0.923440(17) 0.418890(9) 0.536330(14)
P1 P 0.60186(12) 0.11596(6) 0.38537(9)
P2 P 0.20442(12) 0.44694(6) 0.62824(9)
P3 P 0.12637(12) -0.05370(6) 0.37640(9)
P4 P 0.61711(12) 0.36435(6) 0.42487(9)
F1 F 0.8665(3) 0.32695(14) 0.5944(2)
O1 O 0.8729(3) 0.21319(18) 0.4783(3)
O2 O 0.6820(4) 0.23780(17) 0.6383(3)
O3 O 0.8043(3) -0.06023(17) 0.3866(2)
O4 O 0.9487(3) 0.08917(16) 0.3591(2)
O5 O 0.8847(3) 0.46137(18) 0.6291(3)
O6 O 0.9665(3) 0.37521(18) 0.4456(3)
O7 O 0.9597(4) 0.23107(17) 0.6996(3)
O8 O 0.6191(3) 0.16124(16) 0.4683(2)
O9 O 0.7060(3) 0.06967(16) 0.3892(2)
O10 O 0.5805(3) 0.15786(16) 0.2928(2)
O11 O 0.2662(3) 0.48246(17) 0.7170(2)
O12 O 0.1269(3) 0.38875(16) 0.6431(2)
O13 O 0.1078(3) 0.48780(16) 0.5574(2)
O14 O 0.0156(3) -0.03792(15) 0.2914(2)
O15 O 0.0790(3) -0.03052(16) 0.4606(2)
O16 O 0.1645(3) -0.12251(16) 0.3799(2)
O17 O 0.5574(3) 0.36661(16) 0.3152(2)
O18 O 0.6551(3) 0.29606(16) 0.4490(2)
O19 O 0.7207(3) 0.41297(16) 0.4541(2)
C1 C 0.4651(5) 0.0698(2) 0.3766(4)
C2 C 0.3568(5) 0.0976(3) 0.3818(6)
H1 H 0.3523 0.1429 0.3866
C3 C 0.2537(6) 0.0610(3) 0.3804(5)
H2 H 0.1798 0.0815 0.3844
C4 C 0.2574(5) -0.0052(2) 0.3732(4)
C5 C 0.3651(5) -0.0332(3) 0.3687(5)
H3 H 0.3698 -0.0786 0.3647
C6 C 0.4686(5) 0.0040(3) 0.3701(5)
H4 H 0.5427 -0.0164 0.3664
C7 C 0.3192(5) 0.4228(2) 0.5706(4)
C8 C 0.2875(5) 0.3921(3) 0.4846(4)
H5 H 0.2033 0.3827 0.4558
C9 C 0.3768(5) 0.3745(3) 0.4390(4)
H6 H 0.3529 0.3535 0.3794
C10 C 0.4996(5) 0.3873(2) 0.4799(4)
C11 C 0.5322(5) 0.4188(3) 0.5656(4)
H7 H 0.6164 0.4286 0.5938
C12 C 0.4433(5) 0.4365(3) 0.6116(4)
H8 H 0.4672 0.4579 0.6708
U1B U 0.222776(17) -0.225222(9) 0.441210(13)
U2C U 0.374672(17) 0.485170(9) 0.872840(13)
U2_2 U -0.125328(17) 0.014830(9) 0.372840(13)
U2B U 0.125328(17) -0.014830(9) 0.627160(13)
U3_2 U -0.076560(17) 0.418890(9) 0.536330(14)
U3B U 0.076560(17) 0.581110(9) 0.463670(14)
O11C O 0.7662(3) 0.01754(17) 0.2170(2)
O12_2 O 1.1269(3) 0.38875(16) 0.6431(2)
O13_2 O 1.1078(3) 0.48780(16) 0.5574(2)
O13B O 0.8922(3) 0.51220(16) 0.4426(2)
O14_2 O 1.0156(3) -0.03792(15) 0.2914(2)
O15_2 O 1.0790(3) -0.03052(16) 0.4606(2)
O15B O 0.9210(3) 0.03052(16) 0.5394(2)
O16B O 0.8355(3) 0.12251(16) 0.6201(2)
N1 N 0.3676(6) 0.2183(3) -0.3041(6)
C13 C 0.260(2) 0.2343(8) -0.4031(13)
H9 H 0.2074 0.1966 -0.4222
H10 H 0.2991 0.2455 -0.4532
H11 H 0.2094 0.2704 -0.3923
C14 C 0.4341(11) 0.1625(5) -0.3214(13)
H12 H 0.4978 0.1515 -0.2638
H13 H 0.4727 0.1717 -0.3725
H14 H 0.3768 0.1265 -0.3396
C15 C 0.2931(9) 0.2027(5) -0.2394(7)
H15 H 0.3472 0.1906 -0.1778
H16 H 0.2382 0.1668 -0.2651
H17 H 0.2438 0.2400 -0.2320
C16 C 0.4482(17) 0.2748(5) -0.2711(17)
H18 H 0.4005 0.3090 -0.2499
H19 H 0.4786 0.2919 -0.3237
C17 C 0.585(3) 0.2501(11) -0.1689(17)
H20 H 0.6388 0.2871 -0.1485
H21 H 0.6306 0.2158 -0.1898
H22 H 0.5542 0.2349 -0.1160
loop_
_geom_bond_atom_site_label_1
_geom_bond_atom_site_label_2
_geom_bond_site_symmetry_1
_geom_bond_site_symmetry_2
U1 F1 1_555 1_555
U2 O3 1_555 1_555
U3 F1 1_555 1_555
P1 O8 1_555 1_555
P2 O11 1_555 1_555
P3 O14 1_555 1_555
P4 O17 1_555 1_555
O1 U1 1_555 1_555
O2 U1 1_555 1_555
O4 U2 1_555 1_555
O5 U3 1_555 1_555
O6 U3 1_555 1_555
O7 U1 1_555 1_555
O8 U1 1_555 1_555
O9 U2 1_555 1_555
O10 P1 1_555 1_555
O11 U2C 1_555 1_555
O12 P2 1_555 1_555
O13 P2 1_555 1_555
O14 U2_2 1_555 1_555
O15 P3 1_555 1_555
O16 P3 1_555 1_555
O18 U1 1_555 1_555
O19 U3 1_555 1_555
N1 C13 1_555 1_555
C1 P1 1_555 1_555
C2 C1 1_555 1_555
H1 C2 1_555 1_555
C3 C2 1_555 1_555
H2 C3 1_555 1_555
C4 P3 1_555 1_555
C5 C4 1_555 1_555
H3 C5 1_555 1_555
C6 C1 1_555 1_555
H4 C6 1_555 1_555
C7 P2 1_555 1_555
C8 C7 1_555 1_555
H5 C8 1_555 1_555
C9 C8 1_555 1_555
H6 C9 1_555 1_555
C10 P4 1_555 1_555
C11 C10 1_555 1_555
H7 C11 1_555 1_555
C12 C7 1_555 1_555
H8 C12 1_555 1_555
C13 H9 1_555 1_555
H10 C13 1_555 1_555
H11 C13 1_555 1_555
C14 N1 1_555 1_555
H12 C14 1_555 1_555
H13 C14 1_555 1_555
H14 C14 1_555 1_555
C15 N1 1_555 1_555
H15 C15 1_555 1_555
H16 C15 1_555 1_555
H17 C15 1_555 1_555
C16 N1 1_555 1_555
H18 C16 1_555 1_555
H19 C16 1_555 1_555
C17 C16 1_555 1_555
H20 C17 1_555 1_555
H21 C17 1_555 1_555
H22 C17 1_555 1_555
U1B O16 1_555 1_555
U2_2 O15 1_555 1_555
U2B O15 1_555 1_555
U3_2 O12 1_555 1_555
U3B O13 1_555 1_555
O11C U2 1_555 1_555
O12_2 U3 1_555 1_555
O13_2 U3 1_555 1_555
O13B U3 1_555 1_555
O14_2 U2 1_555 1_555
O15_2 U2 1_555 1_555
O15B U2 1_555 1_555
O16B U1 1_555 1_555
P1 O9 1_555 1_555
P4 O18 1_555 1_555
P4 O19 1_555 1_555
O13 U3_2 1_555 1_555
C3 C4 1_555 1_555
C5 C6 1_555 1_555
C9 C10 1_555 1_555
C11 C12 1_555 1_555

#END
