
#######################################################################
#
#                 Cambridge Crystallographic Data Centre
#                                CCDC 
#
#######################################################################
#
# If this CIF has been generated from an entry in the Cambridge 
# Structural Database, then it will include bibliographic, chemical, 
# crystal, experimental, refinement or atomic coordinate data resulting 
# from the CCDC's data processing and validation procedures.
#
#######################################################################

data_YAYRAT
_symmetry_cell_setting           rhombohedral
_symmetry_space_group_name_H-M   'R 3 c'
_symmetry_Int_Tables_number      161
_space_group_name_Hall           'R 3 -2"c'
loop_
_symmetry_equiv_pos_site_id
_symmetry_equiv_pos_as_xyz
1 x,y,z
2 -y,x-y,z
3 -x+y,-x,z
4 -y,-x,1/2+z
5 -x+y,y,1/2+z
6 x,x-y,1/2+z
7 2/3+x,1/3+y,1/3+z
8 2/3-y,1/3+x-y,1/3+z
9 2/3-x+y,1/3-x,1/3+z
10 2/3-y,1/3-x,5/6+z
11 2/3-x+y,1/3+y,5/6+z
12 2/3+x,1/3+x-y,5/6+z
13 1/3+x,2/3+y,2/3+z
14 1/3-y,2/3+x-y,2/3+z
15 1/3-x+y,2/3-x,2/3+z
16 1/3-y,2/3-x,1/6+z
17 1/3-x+y,2/3+y,1/6+z
18 1/3+x,2/3+x-y,1/6+z
_cell_length_a                   27.943(4)
_cell_length_b                   27.943(4)
_cell_length_c                   17.707(4)
_cell_angle_alpha                90
_cell_angle_beta                 90
_cell_angle_gamma                120
_cell_volume                     11973.5
loop_
_atom_site_label
_atom_site_type_symbol
_atom_site_fract_x
_atom_site_fract_y
_atom_site_fract_z
Ga1 Ga 0.881433(18) 0.387693(19) 0.85568(3)
O1 O 0.92293(13) 0.44915(13) 0.79610(17)
O2 O 0.86026(16) 0.40910(15) 0.7058(2)
O3 O 0.90388(13) 0.49299(13) 0.45337(18)
O4 O 0.98381(14) 0.56985(17) 0.43021(18)
O5 O 1.10677(13) 0.66710(13) 0.64647(15)
O6 O 1.09182(16) 0.62371(14) 0.7567(2)
O7 O 0.80512(13) 0.35455(15) 0.85929(19)
O8 O 0.81433(16) 0.43685(17) 0.8657(3)
C1 C 0.94128(18) 0.49381(19) 0.6790(3)
C2 C 0.92849(19) 0.49335(19) 0.6024(3)
H1 H 0.8963 0.4639 0.5828
C3 C 0.96373(18) 0.53670(18) 0.5555(2)
C4 C 1.01106(18) 0.58087(18) 0.5855(3)
H2 H 1.0341 0.6103 0.5544
C5 C 1.02449(18) 0.58194(19) 0.6601(3)
C6 C 0.99009(19) 0.53875(19) 0.7073(2)
H3 H 0.9993 0.5395 0.7579
C7 C 0.9045(2) 0.4470(2) 0.7289(3)
C8 C 0.9512(2) 0.53465(19) 0.4731(2)
C9 C 1.0770(2) 0.62630(19) 0.6928(3)
C10 C 0.72369(19) 0.3580(2) 0.8608(3)
C11 C 0.6979(2) 0.3895(2) 0.8600(3)
H4 H 0.7195 0.4279 0.8588
C12 C 0.7857(2) 0.3867(2) 0.8625(4)
Ga1E Ga 0.881433(18) 0.493740(26) 1.35568(3)
Ga1P Ga 0.839593(26) 0.054360(19) 1.02235(3)
Ga1E_2 Ga 0.881433(18) 0.493740(26) 0.35568(3)
Ga1J Ga 1.172927(26) 0.721026(19) 0.68901(3)
Ga1B Ga 0.506260(26) 0.118567(18) 0.85568(3)
Ga1A Ga 0.612307(19) 0.493740(26) 0.85568(3)
Ga1H Ga 1.172927(26) 0.451900(18) 1.18901(3)
Ga1M Ga 0.945640(19) 0.160407(26) 0.52235(3)
O1E O 0.92293(13) 0.47378(18) 1.29610(17)
O1P O 0.85955(18) 0.11582(13) 0.96277(17)
O2E O 0.86026(16) 0.45116(22) 1.2058(2)
O2P O 0.88217(22) 0.07577(15) 0.8725(2)
O3E O 0.90388(13) 0.41089(18) 0.95337(18)
O3P O 0.92244(18) 0.15966(13) 0.62004(18)
O3_2 O 0.90388(13) 0.49299(13) 1.45337(18)
O3M O 0.84034(13) 0.07756(18) 1.12004(18)
O4E O 0.98381(14) 0.41396(22) 0.93021(18)
O4P O 0.91937(22) 0.23652(17) 0.59688(18)
O5E O 1.10677(13) 0.43967(18) 1.14647(15)
O5P O 0.89366(18) 0.33377(13) 0.81314(15)
O5N O 0.89366(18) 0.55990(13) 1.31314(15)
O5F O 0.77344(13) 0.00043(13) 0.97980(15)
O6E O 1.09182(16) 0.46811(21) 1.2567(2)
O6P O 0.86522(21) 0.29038(14) 0.9234(2)
O7B O 0.54943(20) 0.19488(13) 0.85929(19)
O7A O 0.64545(15) 0.45057(20) 0.85929(19)
O7E O 0.80512(13) 0.45057(20) 1.35929(19)
O7P O 0.88276(20) 0.02122(15) 1.02596(19)
O8B O 0.62252(23) 0.18567(16) 0.8657(3)
O8A O 0.56315(17) 0.37748(23) 0.8657(3)
C1E C 0.94128(18) 0.44747(26) 1.1790(3)
C1P C 0.88586(26) 0.16048(19) 0.8457(3)
C2E C 0.92849(19) 0.43514(27) 1.1024(3)
C2P C 0.89819(27) 0.16002(19) 0.7691(3)
H1E H 0.8963 0.4324 1.0828
H1P H 0.9009 0.1306 0.7495
C3E C 0.96373(18) 0.42703(25) 1.0555(2)
C3P C 0.90630(25) 0.20337(18) 0.7222(2)
C4E C 1.01106(18) 0.43019(25) 1.0855(3)
C4P C 0.90314(25) 0.24754(18) 0.7522(3)
H2E H 1.0341 0.4238 1.0544
H2P H 0.9095 0.2770 0.7211
C5E C 1.02449(18) 0.44255(26) 1.1601(3)
C5P C 0.89078(26) 0.24861(19) 0.8268(3)
C6E C 0.99009(19) 0.45134(27) 1.2073(2)
C6P C 0.88199(27) 0.20542(19) 0.8740(2)
H3E H 0.9993 0.4598 1.2579
H3P H 0.8735 0.2062 0.9246
C7E C 0.9045(2) 0.4575(3) 1.2289(3)
C7P C 0.8758(3) 0.1137(2) 0.8956(3)
C8E C 0.9512(2) 0.41655(28) 0.9731(2)
C8P C 0.91678(28) 0.20132(19) 0.6398(2)
C9E C 1.0770(2) 0.45070(28) 1.1928(3)
C9P C 0.88263(28) 0.29297(19) 0.8595(3)
C10A C 0.6420(2) 0.36569(28) 0.8608(3)
C10B C 0.63431(28) 0.27631(19) 0.8608(3)
C11A C 0.6105(2) 0.3084(3) 0.8600(3)
C11B C 0.6916(3) 0.3021(2) 0.8600(3)
H4B H 0.7084 0.2805 0.8588
H4A H 0.5721 0.2916 0.8588
C12B C 0.6010(3) 0.2143(2) 0.8625(4)
C12A C 0.6133(2) 0.3990(3) 0.8625(4)
N1 N 0.8030(2) 0.25752(17) 0.1423(2)
C13 C 0.7870(2) 0.3028(2) 0.1375(3)
H5 H 0.7528 0.2903 0.1651
H6 H 0.8154 0.3356 0.1627
C14 C 0.7796(3) 0.3185(3) 0.0594(5)
H7 H 0.7505 0.2867 0.0333
H8 H 0.8136 0.3323 0.0308
C15 C 0.7640(3) 0.3638(3) 0.0679(5)
H9 H 0.7579 0.3744 0.0189
H10 H 0.7935 0.3953 0.0927
H11 H 0.7309 0.3499 0.0975
C16 C 0.7622(3) 0.2062(2) 0.0988(3)
H12 H 0.7658 0.2157 0.0457
H13 H 0.7733 0.1786 0.1049
C17 C 0.7051(3) 0.1812(3) 0.1185(4)
H14 H 0.6935 0.2086 0.1168
H15 H 0.6995 0.1666 0.1694
C18 C 0.6695(3) 0.1330(3) 0.0614(5)
H16 H 0.6312 0.116 0.075
H17 H 0.6811 0.106 0.0632
H18 H 0.6746 0.1478 0.0112
C19 C 0.8030(3) 0.2430(2) 0.2245(3)
H19 H 0.7666 0.2311 0.2451
H20 H 0.8091 0.2118 0.2272
C20 C 0.8449(3) 0.2881(3) 0.2738(4)
H21 H 0.8377 0.3187 0.2755
H22 H 0.8817 0.3016 0.2533
C21 C 0.8417(4) 0.2656(3) 0.3534(4)
H23 H 0.8682 0.2945 0.3853
H24 H 0.8496 0.2359 0.3516
H25 H 0.8052 0.2522 0.3734
C22 C 0.8598(3) 0.2794(2) 0.1071(3)
H26 H 0.858 0.29 0.0554
H27 H 0.8855 0.3128 0.134
C23 C 0.8833(3) 0.2415(3) 0.1058(4)
H28 H 0.8828 0.2281 0.1565
H29 H 0.8605 0.2099 0.0741
C24 C 0.9403(3) 0.2698(4) 0.0771(5)
H30 H 0.9547 0.245 0.0788
H31 H 0.9627 0.3016 0.1078
H32 H 0.9406 0.2813 0.0259
loop_
_geom_bond_atom_site_label_1
_geom_bond_atom_site_label_2
_geom_bond_site_symmetry_1
_geom_bond_site_symmetry_2
Ga1 O1 1_555 1_555
O1 C7 1_555 1_555
O2 C7 1_555 1_555
O3 C8 1_555 1_555
O4 C8 1_555 1_555
O5 C9 1_555 1_555
O6 C9 1_555 1_555
O7 Ga1 1_555 1_555
O8 C12 1_555 1_555
N1 C13 1_555 1_555
C1 C2 1_555 1_555
C2 H1 1_555 1_555
C3 C2 1_555 1_555
C4 C3 1_555 1_555
H2 C4 1_555 1_555
C5 C4 1_555 1_555
C6 C1 1_555 1_555
H3 C6 1_555 1_555
C7 C1 1_555 1_555
C8 C3 1_555 1_555
C9 C5 1_555 1_555
C10 C11 1_555 1_555
C11 H4 1_555 1_555
C12 O7 1_555 1_555
C13 H5 1_555 1_555
H6 C13 1_555 1_555
C14 C13 1_555 1_555
H7 C14 1_555 1_555
H8 C14 1_555 1_555
C15 C14 1_555 1_555
H9 C15 1_555 1_555
H10 C15 1_555 1_555
H11 C15 1_555 1_555
C16 N1 1_555 1_555
H12 C16 1_555 1_555
H13 C16 1_555 1_555
C17 C16 1_555 1_555
H14 C17 1_555 1_555
H15 C17 1_555 1_555
C18 C17 1_555 1_555
H16 C18 1_555 1_555
H17 C18 1_555 1_555
H18 C18 1_555 1_555
C19 N1 1_555 1_555
H19 C19 1_555 1_555
H20 C19 1_555 1_555
C20 C19 1_555 1_555
H21 C20 1_555 1_555
H22 C20 1_555 1_555
C21 C20 1_555 1_555
H23 C21 1_555 1_555
H24 C21 1_555 1_555
H25 C21 1_555 1_555
C22 N1 1_555 1_555
H26 C22 1_555 1_555
H27 C22 1_555 1_555
C23 C22 1_555 1_555
H28 C23 1_555 1_555
H29 C23 1_555 1_555
C24 C23 1_555 1_555
H30 C24 1_555 1_555
H31 C24 1_555 1_555
H32 C24 1_555 1_555
Ga1E O1E 1_555 1_555
Ga1P O1P 1_555 1_555
Ga1E_2 O3 1_555 1_555
Ga1J O5 1_555 1_555
Ga1B O7B 1_555 1_555
Ga1A O7A 1_555 1_555
Ga1H O5E 1_555 1_555
Ga1M O3P 1_555 1_555
O1E C7E 1_555 1_555
O1P C7P 1_555 1_555
O2E C7E 1_555 1_555
O2P C7P 1_555 1_555
O3E Ga1 1_555 1_555
O3P C8P 1_555 1_555
O3_2 Ga1E 1_555 1_555
O3M Ga1P 1_555 1_555
O4E C8E 1_555 1_555
O4P C8P 1_555 1_555
O5E C9E 1_555 1_555
O5P Ga1 1_555 1_555
O5N Ga1E 1_555 1_555
O5F Ga1P 1_555 1_555
O6E C9E 1_555 1_555
O6P C9P 1_555 1_555
O7B C12B 1_555 1_555
O7A C12A 1_555 1_555
O7E Ga1E 1_555 1_555
O7P Ga1P 1_555 1_555
O8B C12B 1_555 1_555
O8A C12A 1_555 1_555
C1E C2E 1_555 1_555
C1P C2P 1_555 1_555
C2E H1E 1_555 1_555
C2P H1P 1_555 1_555
C3E C2E 1_555 1_555
C3P C2P 1_555 1_555
C4E C3E 1_555 1_555
C4P C3P 1_555 1_555
H2E C4E 1_555 1_555
H2P C4P 1_555 1_555
C5E C4E 1_555 1_555
C5P C4P 1_555 1_555
C6E C1E 1_555 1_555
C6P C1P 1_555 1_555
H3E C6E 1_555 1_555
H3P C6P 1_555 1_555
C7E C1E 1_555 1_555
C7P C1P 1_555 1_555
C8E O3E 1_555 1_555
C8P C3P 1_555 1_555
C9E C5E 1_555 1_555
C9P O5P 1_555 1_555
C10A C11 1_555 1_555
C10B C11A 1_555 1_555
C11A C10A 1_555 1_555
C11B C10 1_555 1_555
H4B C11B 1_555 1_555
H4A C11A 1_555 1_555
C12B C10B 1_555 1_555
C12A C10A 1_555 1_555
C5 C6 1_555 1_555
C10 C12 1_555 1_555
C3E C8E 1_555 1_555
C5E C6E 1_555 1_555
C5P C6P 1_555 1_555
C5P C9P 1_555 1_555
C10B C11B 1_555 1_555

#END
