
#######################################################################
#
#                 Cambridge Crystallographic Data Centre
#                                CCDC 
#
#######################################################################
#
# If this CIF has been generated from an entry in the Cambridge 
# Structural Database, then it will include bibliographic, chemical, 
# crystal, experimental, refinement or atomic coordinate data resulting 
# from the CCDC's data processing and validation procedures.
#
#######################################################################

data_YAYVEZ
_symmetry_cell_setting           orthorhombic
_symmetry_space_group_name_H-M   'P b c a'
_symmetry_Int_Tables_number      61
_space_group_name_Hall           '-P 2ac 2ab'
loop_
_symmetry_equiv_pos_site_id
_symmetry_equiv_pos_as_xyz
1 x,y,z
2 1/2-x,-y,1/2+z
3 1/2+x,1/2-y,-z
4 -x,1/2+y,1/2-z
5 -x,-y,-z
6 1/2+x,y,1/2-z
7 1/2-x,1/2+y,z
8 x,1/2-y,1/2+z
_cell_length_a                   11.999(2)
_cell_length_b                   8.158(1)
_cell_length_c                   15.536(4)
_cell_angle_alpha                90
_cell_angle_beta                 90
_cell_angle_gamma                90
_cell_volume                     1520.79
loop_
_atom_site_label
_atom_site_type_symbol
_atom_site_fract_x
_atom_site_fract_y
_atom_site_fract_z
Fe1 Fe 0.12599(3) 0.11815(3) 0.18563(2)
O1 O 0.1358(2) 0.3071(2) 0.2803(1)
O2 O 0.1163(1) -0.0272(2) 0.30486(9)
O3 O 0.1371(2) 0.2899(2) 0.08301(9)
O4 O 0.1111(1) -0.0915(2) 0.1132(1)
O5 O -0.0503(1) 0.1543(2) 0.1821(1)
O6 O 0.3058(1) 0.1035(2) 0.1758(1)
O7 O 0.1201(2) -0.0993(2) 0.4957(1)
O8 O 0.1328(1) 0.4768(2) 0.4512(1)
C1 C 0.1318(2) 0.2443(3) 0.3545(1)
C2 C 0.1233(2) 0.0700(2) 0.3673(1)
C3 C 0.1245(2) 0.0348(2) 0.4594(1)
C4 C 0.1320(2) 0.3049(3) 0.0033(1)
C5 C 0.1330(2) 0.3256(3) 0.4380(1)
H1 H 0.126 -0.178 0.115
H2 H 0.098 -0.082 0.060
H3 H -0.080 0.260 0.178
H4 H -0.047 0.115 0.133
H5 H 0.342 0.079 0.220
H6 H 0.330 0.031 0.134
C4G C 0.1320(2) 0.1951(3) 0.5033(1)
C3G C 0.1245(2) 0.4652(2) -0.0406(1)
C5G C 0.1330(2) 0.1744(3) -0.0620(1)
O3G O 0.1371(2) 0.2101(2) 0.58301(9)
O7G O 0.1201(2) 0.5993(2) -0.0043(1)
C2G C 0.1233(2) 0.4300(2) -0.1327(1)
O8G O 0.1328(1) 0.0232(2) -0.0488(1)
C1G C 0.1318(2) 0.2557(3) -0.1455(1)
Fe1G Fe 0.12599(3) 0.38185(3) 0.68563(2)
O2G O 0.1163(1) 0.5272(2) -0.19514(9)
O1G O 0.1358(2) 0.1929(2) -0.2197(1)
O1G_2 O 0.1358(2) 0.1929(2) 0.7803(1)
O2G_2 O 0.1163(1) 0.5272(2) 0.80486(9)
O4G O 0.1111(1) 0.5915(2) 0.6132(1)
O5G O -0.0503(1) 0.3457(2) 0.6821(1)
O6G O 0.3058(1) 0.3965(2) 0.6758(1)
Fe1G_2 Fe 0.12599(3) 0.38185(3) -0.31437(2)
H1G H 0.126 0.678 0.615
H2G H 0.098 0.582 0.560
H3G H -0.080 0.240 0.678
H4G H -0.047 0.385 0.633
H5G H 0.342 0.421 0.720
H6G H 0.330 0.469 0.634
loop_
_geom_bond_atom_site_label_1
_geom_bond_atom_site_label_2
_geom_bond_site_symmetry_1
_geom_bond_site_symmetry_2
Fe1 O1 1_555 1_555
O1 C1 1_555 1_555
O2 Fe1 1_555 1_555
O3 Fe1 1_555 1_555
O4 Fe1 1_555 1_555
O5 Fe1 1_555 1_555
O6 Fe1 1_555 1_555
O7 C3 1_555 1_555
O8 C5 1_555 1_555
C1 C2 1_555 1_555
C2 O2 1_555 1_555
C3 C2 1_555 1_555
C4 O3 1_555 1_555
C5 C1 1_555 1_555
H1 O4 1_555 1_555
H2 O4 1_555 1_555
H3 O5 1_555 1_555
H4 O5 1_555 1_555
H5 O6 1_555 1_555
H6 O6 1_555 1_555
C4G C3 1_555 1_555
C3G C4 1_555 1_555
C5G C4 1_555 1_555
O3G C4G 1_555 1_555
O7G C3G 1_555 1_555
C2G C3G 1_555 1_555
O8G C5G 1_555 1_555
C1G C5G 1_555 1_555
Fe1G O3G 1_555 1_555
O2G C2G 1_555 1_555
O1G C1G 1_555 1_555
O1G_2 Fe1G 1_555 1_555
O2G_2 Fe1G 1_555 1_555
O4G Fe1G 1_555 1_555
O5G Fe1G 1_555 1_555
O6G Fe1G 1_555 1_555
Fe1G_2 O2G 1_555 1_555
H1G O4G 1_555 1_555
H2G O4G 1_555 1_555
H3G O5G 1_555 1_555
H4G O5G 1_555 1_555
H5G O6G 1_555 1_555
H6G O6G 1_555 1_555
C5 C4G 1_555 1_555
C2G C1G 1_555 1_555
O1G Fe1G_2 1_555 1_555

#END
