
#######################################################################
#
#                 Cambridge Crystallographic Data Centre
#                                CCDC 
#
#######################################################################
#
# If this CIF has been generated from an entry in the Cambridge 
# Structural Database, then it will include bibliographic, chemical, 
# crystal, experimental, refinement or atomic coordinate data resulting 
# from the CCDC's data processing and validation procedures.
#
#######################################################################

data_YAYWUQ
_symmetry_cell_setting           orthorhombic
_symmetry_space_group_name_H-M   'P b c n'
_symmetry_Int_Tables_number      60
_space_group_name_Hall           '-P 2n 2ab'
loop_
_symmetry_equiv_pos_site_id
_symmetry_equiv_pos_as_xyz
1 x,y,z
2 1/2+x,1/2+y,1/2-z
3 x,-y,1/2+z
4 1/2-x,1/2+y,z
5 -x,-y,-z
6 1/2-x,1/2-y,1/2+z
7 -x,y,1/2-z
8 1/2+x,1/2-y,-z
_cell_length_a                   14.3831(11)
_cell_length_b                   5.8131(4)
_cell_length_c                   32.891(2)
_cell_angle_alpha                90
_cell_angle_beta                 90
_cell_angle_gamma                90
_cell_volume                     2750.03
loop_
_atom_site_label
_atom_site_type_symbol
_atom_site_fract_x
_atom_site_fract_y
_atom_site_fract_z
S1 S 0.90025(3) 0.03165(7) 0.446553(12)
Na1 Na 0.69000(5) 0.03327(12) 0.49844(2)
O1 O 0.83229(9) 0.1686(2) 0.46878(4)
O2 O 0.88751(9) -0.2148(2) 0.45249(4)
O3 O 0.99610(9) 0.1022(2) 0.45441(4)
O4 O 0.85353(10) 0.7427(3) 0.10166(4)
H1 H 0.8851(19) 0.667(5) 0.0852(9)
N1 N 0.87768(11) 0.2596(3) 0.27053(5)
N2 N 0.86887(11) 0.4699(3) 0.26318(5)
C1 C 0.88194(11) 0.0908(3) 0.39436(5)
C2 C 0.84408(12) 0.3011(3) 0.38296(5)
H2 H 0.8210 0.4038 0.4030
C3 C 0.84021(13) 0.3603(3) 0.34218(6)
H3 H 0.8146 0.5039 0.3341
C4 C 0.87422(12) 0.2076(3) 0.31300(5)
C5 C 0.90820(13) -0.0065(3) 0.32440(6)
H4 H 0.9280 -0.1130 0.3043
C6 C 0.91326(13) -0.0647(3) 0.36532(6)
H5 H 0.9379 -0.2094 0.3734
C7 C 0.87202(12) 0.5291(3) 0.22138(5)
C8 C 0.84007(13) 0.7479(3) 0.21167(6)
H6 H 0.8219 0.8504 0.2327
C9 C 0.83455(12) 0.8171(3) 0.17146(6)
H7 H 0.8111 0.9651 0.1648
C10 C 0.86356(12) 0.6689(3) 0.14088(5)
C11 C 0.90045(12) 0.4535(3) 0.15032(6)
H8 H 0.9230 0.3558 0.1294
C12 C 0.90389(12) 0.3835(3) 0.19054(6)
H9 H 0.9280 0.2360 0.1972
O5 O 0.79691(10) -0.1549(2) 0.54528(4)
H10 H 0.842(2) -0.090(5) 0.5511(9)
H11 H 0.769(2) -0.176(6) 0.5697(10)
O6 O 0.55819(9) -0.0431(3) 0.54116(4)
H12 H 0.513(2) -0.129(6) 0.5400(9)
H13 H 0.534(2) 0.079(6) 0.5441(10)
O1C O 0.66771(9) -0.3314(2) 0.46878(4)
O2C O 0.61249(9) 0.2852(2) 0.45249(4)
O5C O 0.70309(10) 0.3451(2) 0.54528(4)
Na1C Na 0.81000(5) 0.53327(12) 0.49844(2)
Na1C_2 Na 0.81000(5) -0.46673(12) 0.49844(2)
loop_
_geom_bond_atom_site_label_1
_geom_bond_atom_site_label_2
_geom_bond_site_symmetry_1
_geom_bond_site_symmetry_2
S1 O1 1_555 1_555
Na1 O1 1_555 1_555
O1 Na1C 1_555 1_555
O2 S1 1_555 1_555
O3 S1 1_555 1_555
O4 H1 1_555 1_555
N1 N2 1_555 1_555
N2 C7 1_555 1_555
C1 S1 1_555 1_555
C2 C1 1_555 1_555
H2 C2 1_555 1_555
C3 C2 1_555 1_555
H3 C3 1_555 1_555
C4 N1 1_555 1_555
C5 C4 1_555 1_555
H4 C5 1_555 1_555
C6 C1 1_555 1_555
H5 C6 1_555 1_555
C7 C8 1_555 1_555
C8 H6 1_555 1_555
C9 C8 1_555 1_555
H7 C9 1_555 1_555
C10 O4 1_555 1_555
C11 C10 1_555 1_555
H8 C11 1_555 1_555
C12 C7 1_555 1_555
H9 C12 1_555 1_555
O5 Na1 1_555 1_555
H10 O5 1_555 1_555
H11 O5 1_555 1_555
O6 Na1 1_555 1_555
H12 O6 1_555 1_555
H13 O6 1_555 1_555
O1C Na1 1_555 1_555
O2C Na1 1_555 1_555
O5C Na1 1_555 1_555
Na1C O5C 1_555 1_555
Na1C_2 O2 1_555 1_555
C3 C4 1_555 1_555
C5 C6 1_555 1_555
C9 C10 1_555 1_555
C11 C12 1_555 1_555
O5 Na1C_2 1_555 1_555
O1C Na1C_2 1_555 1_555

#END
