
#######################################################################
#
#                 Cambridge Crystallographic Data Centre
#                                CCDC 
#
#######################################################################
#
# If this CIF has been generated from an entry in the Cambridge 
# Structural Database, then it will include bibliographic, chemical, 
# crystal, experimental, refinement or atomic coordinate data resulting 
# from the CCDC's data processing and validation procedures.
#
#######################################################################

data_YAZBAD
_symmetry_cell_setting           monoclinic
_symmetry_space_group_name_H-M   'P 21/a'
_symmetry_Int_Tables_number      14
_space_group_name_Hall           '-P 2yab'
loop_
_symmetry_equiv_pos_site_id
_symmetry_equiv_pos_as_xyz
1 x,y,z
2 1/2-x,1/2+y,-z
3 -x,-y,-z
4 1/2+x,1/2-y,z
_cell_length_a                   7.8357(8)
_cell_length_b                   8.2543(8)
_cell_length_c                   14.7908(15)
_cell_angle_alpha                90
_cell_angle_beta                 95.76(1)
_cell_angle_gamma                90
_cell_volume                     951.813
loop_
_atom_site_label
_atom_site_type_symbol
_atom_site_fract_x
_atom_site_fract_y
_atom_site_fract_z
Zn1 Zn -0.28171(6) -0.53434(5) 0.43754(3)
Zn2 Zn -0.72264(6) -0.54137(5) 0.05836(3)
P1 P 0.08918(13) -0.61103(13) 0.38719(6)
H1 H 0.161(5) -0.653(5) 0.313(3)
O1 O -0.0892(4) -0.5421(4) 0.36553(18)
O2 O 0.2124(4) -0.4854(4) 0.43222(17)
O3 O 0.0888(4) -0.7664(4) 0.44121(19)
P2 P -0.90967(13) -0.39349(13) -0.11323(6)
H2 H -0.844(5) -0.361(5) -0.192(3)
O4 O -0.7874(4) -0.5233(4) -0.07117(18)
O5 O -0.9057(4) -0.2420(4) -0.0558(2)
O6 O -1.0904(4) -0.4595(4) -0.13411(19)
N1 N -0.4333(6) -0.3574(6) 0.3807(2)
H3 H -0.398(7) -0.272(8) 0.404(4)
H4 H -0.520(7) -0.378(8) 0.387(4)
C1 C -0.4305(6) -0.3194(6) 0.2827(3)
H5 H -0.4712 -0.2096 0.2713
H6 H -0.3133 -0.3252 0.2671
C2 C -0.5359(6) -0.4297(6) 0.2255(3)
H7 H -0.6478 -0.4365 0.2480
H8 H -0.4846 -0.5367 0.2307
N2 N -0.5599(6) -0.3828(5) 0.1262(2)
H9 H -0.477(6) -0.383(6) 0.108(3)
H10 H -0.591(7) -0.269(7) 0.132(3)
Zn1B Zn 0.28171(6) -0.46566(5) 0.56246(3)
Zn1C Zn 0.21829(6) -0.96566(5) 0.43754(3)
Zn2A Zn -0.77736(6) -0.04137(5) -0.05836(3)
Zn2B Zn -1.27736(6) -0.45863(5) -0.05836(3)
O2B O -0.2124(4) -0.5146(4) 0.56778(17)
O3C O -0.4112(4) -0.7336(4) 0.44121(19)
O5A O -0.5943(4) -0.7420(4) 0.0558(2)
O6B O -0.9096(4) -0.5405(4) 0.13411(19)
loop_
_geom_bond_atom_site_label_1
_geom_bond_atom_site_label_2
_geom_bond_site_symmetry_1
_geom_bond_site_symmetry_2
Zn1 O1 1_555 1_555
Zn2 O4 1_555 1_555
P1 H1 1_555 1_555
O1 P1 1_555 1_555
O2 P1 1_555 1_555
O3 P1 1_555 1_555
P2 H2 1_555 1_555
O4 P2 1_555 1_555
O5 P2 1_555 1_555
O6 P2 1_555 1_555
N1 Zn1 1_555 1_555
H3 N1 1_555 1_555
H4 N1 1_555 1_555
C1 N1 1_555 1_555
H5 C1 1_555 1_555
H6 C1 1_555 1_555
C2 C1 1_555 1_555
H7 C2 1_555 1_555
H8 C2 1_555 1_555
N2 Zn2 1_555 1_555
H9 N2 1_555 1_555
H10 N2 1_555 1_555
Zn1B O2 1_555 1_555
Zn1C O3 1_555 1_555
Zn2A O5 1_555 1_555
Zn2B O6 1_555 1_555
O2B Zn1 1_555 1_555
O3C Zn1 1_555 1_555
O5A Zn2 1_555 1_555
O6B Zn2 1_555 1_555
C2 N2 1_555 1_555

#END
