
#######################################################################
#
#                 Cambridge Crystallographic Data Centre
#                                CCDC 
#
#######################################################################
#
# If this CIF has been generated from an entry in the Cambridge 
# Structural Database, then it will include bibliographic, chemical, 
# crystal, experimental, refinement or atomic coordinate data resulting 
# from the CCDC's data processing and validation procedures.
#
#######################################################################

data_YAZCEI
_symmetry_cell_setting           orthorhombic
_symmetry_space_group_name_H-M   'P c a n'
_symmetry_Int_Tables_number      60
_space_group_name_Hall           '-P 2n 2c'
loop_
_symmetry_equiv_pos_site_id
_symmetry_equiv_pos_as_xyz
1 x,y,z
2 1/2-x,1/2-y,1/2+z
3 x,-y,1/2-z
4 1/2-x,1/2+y,-z
5 -x,-y,-z
6 1/2+x,1/2+y,1/2-z
7 -x,y,1/2+z
8 1/2+x,1/2-y,z
_cell_length_a                   14.035(5)
_cell_length_b                   14.625(5)
_cell_length_c                   21.424(5)
_cell_angle_alpha                90
_cell_angle_beta                 90
_cell_angle_gamma                90
_cell_volume                     4397.53
loop_
_atom_site_label
_atom_site_type_symbol
_atom_site_fract_x
_atom_site_fract_y
_atom_site_fract_z
Cu1 Cu 0.373688(18) 0.145624(18) 0.110193(13)
N1 N 0.43763(12) 0.26086(12) 0.08433(8)
N2 N 0.39648(19) 0.17244(16) 0.21258(10)
N3 N 0.81264(13) 0.52283(13) 0.38328(8)
O1 O 0.74288(11) 0.30244(12) 0.11129(7)
O2 O 0.73792(13) 0.33247(14) 0.00932(9)
O3 O 0.49886(12) 0.09221(11) 0.09165(10)
O4 O 0.64749(13) 0.13081(12) 0.06637(9)
C1 C 0.39951(17) 0.34442(16) 0.08258(12)
H1 H 0.3343 0.3514 0.0888
C2 C 0.45535(18) 0.42103(16) 0.07168(13)
H2 H 0.4280 0.4789 0.0700
C3 C 0.55221(17) 0.40994(16) 0.06333(12)
H3 H 0.5907 0.4607 0.0564
C4 C 0.59248(15) 0.32257(15) 0.06532(10)
C5 C 0.53210(14) 0.24892(14) 0.07588(9)
C6 C 0.56377(15) 0.14948(14) 0.07806(11)
C7 C 0.69998(15) 0.31587(14) 0.05986(10)
C8 C 0.4551(3) 0.1201(2) 0.24553(15)
H4 H 0.4835 0.0704 0.2258
C9 C 0.4764(3) 0.1357(2) 0.30803(16)
H5 H 0.5171 0.0964 0.3293
C10 C 0.4371(3) 0.2092(3) 0.33815(13)
C11 C 0.3761(2) 0.2636(3) 0.30419(17)
H6 H 0.3473 0.3139 0.3228
C12 C 0.3579(3) 0.2432(2) 0.24254(16)
H7 H 0.3163 0.2809 0.2206
C13 C 0.4624(3) 0.2336(3) 0.40467(14)
H8 H 0.4885 0.1802 0.4254
H9 H 0.4051 0.2517 0.4268
C14 C 0.5353(2) 0.3118(3) 0.40726(14)
H10 H 0.5115 0.3628 0.3829
H11 H 0.5415 0.3322 0.4501
C15 C 0.6337(2) 0.2849(2) 0.38274(14)
H12 H 0.6604 0.2372 0.4089
H13 H 0.6278 0.2610 0.3407
C16 C 0.69880(18) 0.36604(16) 0.38258(11)
C17 C 0.69790(19) 0.42764(17) 0.33312(11)
H14 H 0.6594 0.4168 0.2986
C18 C 0.75425(17) 0.50491(18) 0.33548(11)
H15 H 0.7515 0.5462 0.3025
C19 C 0.81528(15) 0.46325(15) 0.43072(10)
H16 H 0.8564 0.4745 0.4639
C20 C 0.75890(16) 0.38514(16) 0.43220(11)
H17 H 0.7615 0.3459 0.4663
Cu1E Cu 0.873688(18) 0.645624(18) 0.389807(13)
Cu1G Cu 0.873688(18) 0.354376(18) 0.110193(13)
N3E N 0.31264(13) 0.02283(13) 0.11672(8)
O1G O 0.24288(11) 0.19756(12) 0.11129(7)
O5 O 0.7388(3) -0.0397(2) 0.09251(15)
O6 O 0.6269(3) 0.2576(5) 0.2163(2)
O7 O 0.6955(6) 0.0810(6) 0.2755(4)
O8 O 0.5095(6) 0.4213(9) 0.2263(4)
O9 O 0.3222(13) 0.4932(10) 0.2029(5)
loop_
_geom_bond_atom_site_label_1
_geom_bond_atom_site_label_2
_geom_bond_site_symmetry_1
_geom_bond_site_symmetry_2
Cu1 N1 1_555 1_555
N1 C1 1_555 1_555
N2 Cu1 1_555 1_555
N3 C18 1_555 1_555
O1 C7 1_555 1_555
O2 C7 1_555 1_555
O3 Cu1 1_555 1_555
O4 C6 1_555 1_555
C1 H1 1_555 1_555
C2 C1 1_555 1_555
H2 C2 1_555 1_555
C3 C2 1_555 1_555
H3 C3 1_555 1_555
C4 C3 1_555 1_555
C5 N1 1_555 1_555
C6 O3 1_555 1_555
C7 C4 1_555 1_555
C8 N2 1_555 1_555
H4 C8 1_555 1_555
C9 C8 1_555 1_555
H5 C9 1_555 1_555
C10 C9 1_555 1_555
C11 C10 1_555 1_555
H6 C11 1_555 1_555
C12 N2 1_555 1_555
H7 C12 1_555 1_555
C13 C10 1_555 1_555
H8 C13 1_555 1_555
H9 C13 1_555 1_555
C14 C13 1_555 1_555
H10 C14 1_555 1_555
H11 C14 1_555 1_555
C15 C14 1_555 1_555
H12 C15 1_555 1_555
H13 C15 1_555 1_555
C16 C15 1_555 1_555
C17 C16 1_555 1_555
H14 C17 1_555 1_555
C18 C17 1_555 1_555
H15 C18 1_555 1_555
C19 N3 1_555 1_555
H16 C19 1_555 1_555
C20 C16 1_555 1_555
H17 C20 1_555 1_555
Cu1E N3 1_555 1_555
Cu1G O1 1_555 1_555
N3E Cu1 1_555 1_555
O1G Cu1 1_555 1_555
C4 C5 1_555 1_555
C5 C6 1_555 1_555
C11 C12 1_555 1_555
C19 C20 1_555 1_555

#END
