
#######################################################################
#
#                 Cambridge Crystallographic Data Centre
#                                CCDC 
#
#######################################################################
#
# If this CIF has been generated from an entry in the Cambridge 
# Structural Database, then it will include bibliographic, chemical, 
# crystal, experimental, refinement or atomic coordinate data resulting 
# from the CCDC's data processing and validation procedures.
#
#######################################################################

data_YAZJAL
_symmetry_cell_setting           triclinic
_symmetry_space_group_name_H-M   'P -1'
_symmetry_Int_Tables_number      2
_space_group_name_Hall           '-P 1'
loop_
_symmetry_equiv_pos_site_id
_symmetry_equiv_pos_as_xyz
1 x,y,z
2 -x,-y,-z
_cell_length_a                   10.613(4)
_cell_length_b                   10.828(10)
_cell_length_c                   13.333(9)
_cell_angle_alpha                85.25(9)
_cell_angle_beta                 82.59(6)
_cell_angle_gamma                60.37(5)
_cell_volume                     1320.4
loop_
_atom_site_label
_atom_site_type_symbol
_atom_site_fract_x
_atom_site_fract_y
_atom_site_fract_z
Cu1 Cu 0.13514(3) 0.16193(3) 0.24495(2)
O1 O -0.0489(2) 0.3422(2) 0.2456(1)
O2 O -0.1571(2) 0.2133(2) 0.2876(2)
O3 O -0.6852(2) 0.9775(2) 0.2530(1)
O4 O -0.8168(2) 0.8748(2) 0.2358(2)
N1 N 0.1378(2) 0.1330(2) 0.0952(1)
N2 N 0.1254(2) 0.1750(2) -0.6029(1)
N3 N 0.2560(2) 0.2925(2) 0.1986(2)
C1 C 0.2639(3) 0.0818(3) 0.0363(2)
C2 C 0.2760(3) 0.0592(3) -0.0656(2)
C3 C 0.1527(3) 0.0902(3) -0.1117(2)
C4 C 0.0231(3) 0.1409(3) -0.0498(2)
C5 C 0.0196(3) 0.1611(3) 0.0520(2)
C6 C 0.1597(4) 0.0698(3) -0.2223(2)
C7 C 0.0969(3) 0.2081(3) -0.2805(2)
C8 C 0.1204(3) 0.2856(2) -0.5619(2)
C9 C 0.1133(3) 0.2976(3) -0.4591(2)
C10 C 0.1092(3) 0.1939(2) -0.3931(2)
C11 C 0.1154(3) 0.0779(3) -0.4367(2)
C12 C 0.1233(3) 0.0734(3) -0.5401(2)
C13 C 0.3935(3) 0.2506(3) 0.2122(2)
C14 C 0.4718(4) 0.3120(4) 0.1639(2)
C15 C 0.4052(5) 0.4268(5) 0.1007(3)
C16 C 0.2628(5) 0.4706(5) 0.0845(3)
C17 C 0.1925(3) 0.4015(3) 0.1352(3)
C18 C 0.4798(7) 0.5096(8) 0.0506(4)
C19 C -0.1623(2) 0.3289(2) 0.2716(2)
C20 C -0.3051(2) 0.4668(2) 0.2757(2)
C21 C -0.3063(2) 0.5811(2) 0.2222(2)
C22 C -0.4359(3) 0.7116(2) 0.2166(2)
C23 C -0.5660(2) 0.7274(2) 0.2624(2)
C24 C -0.5698(2) 0.6127(2) 0.3206(2)
C25 C -0.4375(2) 0.4809(2) 0.3291(2)
C26 C -0.4431(3) 0.3718(2) 0.3932(2)
C27 C -0.5712(3) 0.3901(3) 0.4441(2)
C28 C -0.7011(3) 0.5190(3) 0.4348(2)
C29 C -0.7014(2) 0.6266(3) 0.3748(2)
C30 C -0.7021(2) 0.8688(2) 0.2492(2)
H1 H 0.3494 0.0599 0.0662
H2 H 0.3682 0.0221 -0.1043
H3 H -0.0641 0.1631 -0.0773
H4 H -0.0709 0.1960 0.0927
H5 H 0.1221 0.3589 -0.6053
H6 H 0.1111 0.3777 -0.4335
H7 H 0.1139 0.0030 -0.3956
H8 H 0.1271 -0.0063 -0.5683
H9 H 0.4402 0.1740 0.2584
H10 H 0.5707 0.2751 0.1744
H11 H 0.2139 0.5471 0.0389
H12 H 0.0943 0.4338 0.1242
H13 H -0.2178 0.5724 0.1885
H14 H -0.4329 0.7895 0.1803
H15 H -0.3559 0.2840 0.4007
H16 H -0.5727 0.3156 0.4863
H17 H -0.7892 0.5304 0.4706
H18 H -0.7903 0.7123 0.3689
H19 H 0.1004 0.0261 -0.2401
H20 H 0.2501 -0.0142 -0.2486
H21 H -0.0058 0.2757 -0.2539
H22 H 0.1574 0.2571 -0.2684
H23 H 0.4125 0.6105 0.0594
H24 H 0.5631 0.4863 0.0839
Cu1_2 Cu 1.13514(3) -0.83807(3) 0.24495(2)
Cu1_3 Cu -0.86486(3) 1.16193(3) 0.24495(2)
Cu1_4 Cu 0.13514(3) 0.16193(3) -0.75505(2)
Cu1A Cu 0.86486(3) 0.83807(3) -0.24495(2)
Cu1_5 Cu 0.13514(3) 0.16193(3) 1.24495(2)
O1_2 O 0.9511(2) -0.6578(2) 0.2456(1)
O2_2 O 0.8429(2) -0.7867(2) 0.2876(2)
O3_2 O 0.3148(2) -0.0225(2) 0.2530(1)
O3_3 O 1.3148(2) -1.0225(2) 0.2530(1)
O4_2 O 0.1832(2) -0.1252(2) 0.2358(2)
N1_2 N 0.1378(2) 0.1330(2) 1.0952(1)
N1_3 N 1.1378(2) -0.8670(2) 0.0952(1)
N2_2 N 0.1254(2) 0.1750(2) 0.3971(1)
N2_3 N 1.1254(2) -0.8250(2) 0.3971(1)
N3A N 0.7440(2) 0.7075(2) -0.1986(2)
N3_2 N 1.2560(2) -0.7075(2) 0.1986(2)
C1_2 C 0.2639(3) 0.0818(3) 1.0363(2)
C2_2 C 0.2760(3) 0.0592(3) 0.9344(2)
C3_2 C 0.1527(3) 0.0902(3) 0.8883(2)
C4_2 C 0.0231(3) 0.1409(3) 0.9502(2)
C5_2 C 0.0196(3) 0.1611(3) 1.0520(2)
C6_2 C 0.1597(4) 0.0698(3) 0.7777(2)
C7_2 C 0.0969(3) 0.2081(3) 0.7195(2)
C8_2 C 0.1204(3) 0.2856(2) 0.4381(2)
C9_2 C 0.1133(3) 0.2976(3) 0.5409(2)
C10_2 C 0.1092(3) 0.1939(2) 0.6069(2)
C11_2 C 0.1154(3) 0.0779(3) 0.5633(2)
C12_2 C 0.1233(3) 0.0734(3) 0.4599(2)
C13A C 0.6065(3) 0.7494(3) -0.2122(2)
C14A C 0.5282(4) 0.6880(4) -0.1639(2)
C15A C 0.5948(5) 0.5732(5) -0.1007(3)
C16A C 0.7372(5) 0.5294(5) -0.0845(3)
C17A C 0.8075(3) 0.5985(3) -0.1352(3)
C18A C 0.5202(7) 0.4904(8) -0.0506(4)
C19_2 C 0.8377(2) -0.6711(2) 0.2716(2)
C20_2 C 0.6949(2) -0.5332(2) 0.2757(2)
C21_2 C 0.6937(2) -0.4189(2) 0.2222(2)
C22_2 C 0.5641(3) -0.2884(2) 0.2166(2)
C23_2 C 0.4340(2) -0.2726(2) 0.2624(2)
C24_2 C 0.4302(2) -0.3873(2) 0.3206(2)
C25_2 C 0.5625(2) -0.5191(2) 0.3291(2)
C26_2 C 0.5569(3) -0.6282(2) 0.3932(2)
C27_2 C 0.4288(3) -0.6099(3) 0.4441(2)
C28_2 C 0.2989(3) -0.4810(3) 0.4348(2)
C29_2 C 0.2986(2) -0.3734(3) 0.3748(2)
C30_2 C 0.2979(2) -0.1312(2) 0.2492(2)
H1_2 H 0.3494 0.0599 1.0662
H2_2 H 0.3682 0.0221 0.8957
H3_2 H -0.0641 0.1631 0.9227
H4_2 H -0.0709 0.1960 1.0927
H5_2 H 0.1221 0.3589 0.3947
H6_2 H 0.1111 0.3777 0.5665
H7_2 H 0.1139 0.0030 0.6044
H8_2 H 0.1271 -0.0063 0.4317
H9A H 0.5598 0.8260 -0.2584
H10A H 0.4293 0.7249 -0.1744
H11A H 0.7861 0.4529 -0.0389
H12A H 0.9057 0.5662 -0.1242
H13_2 H 0.7822 -0.4276 0.1885
H14_2 H 0.5671 -0.2105 0.1803
H15_2 H 0.6441 -0.7160 0.4007
H16_2 H 0.4273 -0.6844 0.4863
H17_2 H 0.2108 -0.4696 0.4706
H18_2 H 0.2097 -0.2877 0.3689
H19_2 H 0.1004 0.0261 0.7599
H20_2 H 0.2501 -0.0142 0.7514
H21_2 H -0.0058 0.2757 0.7461
H22_2 H 0.1574 0.2571 0.7316
H23A H 0.5875 0.3895 -0.0594
H24A H 0.4369 0.5137 -0.0839
O5 O 0.4834(6) 0.0390(6) 0.6054(4)
loop_
_geom_bond_atom_site_label_1
_geom_bond_atom_site_label_2
_geom_bond_site_symmetry_1
_geom_bond_site_symmetry_2
Cu1 O1 1_555 1_555
O1 C19 1_555 1_555
O2 C19 1_555 1_555
O3 C30 1_555 1_555
O4 C30 1_555 1_555
N1 Cu1 1_555 1_555
N2 C8 1_555 1_555
N3 Cu1 1_555 1_555
C1 N1 1_555 1_555
C2 C1 1_555 1_555
C3 C2 1_555 1_555
C4 C3 1_555 1_555
C5 N1 1_555 1_555
C6 C3 1_555 1_555
C7 C6 1_555 1_555
C8 C9 1_555 1_555
C9 C10 1_555 1_555
C10 C7 1_555 1_555
C11 C10 1_555 1_555
C12 N2 1_555 1_555
C13 N3 1_555 1_555
C14 C13 1_555 1_555
C15 C14 1_555 1_555
C16 C15 1_555 1_555
C17 N3 1_555 1_555
C18 C15 1_555 1_555
C19 C20 1_555 1_555
C20 C21 1_555 1_555
C21 C22 1_555 1_555
C22 C23 1_555 1_555
C23 C24 1_555 1_555
C24 C25 1_555 1_555
C25 C20 1_555 1_555
C26 C25 1_555 1_555
C27 C26 1_555 1_555
C28 C27 1_555 1_555
C29 C24 1_555 1_555
C30 C23 1_555 1_555
H1 C1 1_555 1_555
H2 C2 1_555 1_555
H3 C4 1_555 1_555
H4 C5 1_555 1_555
H5 C8 1_555 1_555
H6 C9 1_555 1_555
H7 C11 1_555 1_555
H8 C12 1_555 1_555
H9 C13 1_555 1_555
H10 C14 1_555 1_555
H11 C16 1_555 1_555
H12 C17 1_555 1_555
H13 C21 1_555 1_555
H14 C22 1_555 1_555
H15 C26 1_555 1_555
H16 C27 1_555 1_555
H17 C28 1_555 1_555
H18 C29 1_555 1_555
H19 C6 1_555 1_555
H20 C6 1_555 1_555
H21 C7 1_555 1_555
H22 C7 1_555 1_555
H23 C18 1_555 1_555
H24 C18 1_555 1_555
Cu1_2 O1_2 1_555 1_555
Cu1_3 O3 1_555 1_555
Cu1_4 N2 1_555 1_555
Cu1A N3A 1_555 1_555
Cu1_5 N1_2 1_555 1_555
O1_2 C19_2 1_555 1_555
O2_2 C19_2 1_555 1_555
O3_2 Cu1 1_555 1_555
O3_3 Cu1_2 1_555 1_555
O4_2 C30_2 1_555 1_555
N1_2 C1_2 1_555 1_555
N1_3 Cu1_2 1_555 1_555
N2_2 Cu1 1_555 1_555
N2_3 Cu1_2 1_555 1_555
N3A C13A 1_555 1_555
N3_2 Cu1_2 1_555 1_555
C1_2 C2_2 1_555 1_555
C2_2 C3_2 1_555 1_555
C3_2 C4_2 1_555 1_555
C4_2 C5_2 1_555 1_555
C5_2 N1_2 1_555 1_555
C6_2 C3_2 1_555 1_555
C7_2 C6_2 1_555 1_555
C8_2 N2_2 1_555 1_555
C9_2 C8_2 1_555 1_555
C10_2 C7_2 1_555 1_555
C11_2 C10_2 1_555 1_555
C12_2 N2_2 1_555 1_555
C13A C14A 1_555 1_555
C14A C15A 1_555 1_555
C15A C16A 1_555 1_555
C16A C17A 1_555 1_555
C17A N3A 1_555 1_555
C18A C18 1_555 1_555
C19_2 C20_2 1_555 1_555
C20_2 C21_2 1_555 1_555
C21_2 C22_2 1_555 1_555
C22_2 C23_2 1_555 1_555
C23_2 C24_2 1_555 1_555
C24_2 C25_2 1_555 1_555
C25_2 C20_2 1_555 1_555
C26_2 C25_2 1_555 1_555
C27_2 C26_2 1_555 1_555
C28_2 C27_2 1_555 1_555
C29_2 C24_2 1_555 1_555
C30_2 O3_2 1_555 1_555
H1_2 C1_2 1_555 1_555
H2_2 C2_2 1_555 1_555
H3_2 C4_2 1_555 1_555
H4_2 C5_2 1_555 1_555
H5_2 C8_2 1_555 1_555
H6_2 C9_2 1_555 1_555
H7_2 C11_2 1_555 1_555
H8_2 C12_2 1_555 1_555
H9A C13A 1_555 1_555
H10A C14A 1_555 1_555
H11A C16A 1_555 1_555
H12A C17A 1_555 1_555
H13_2 C21_2 1_555 1_555
H14_2 C22_2 1_555 1_555
H15_2 C26_2 1_555 1_555
H16_2 C27_2 1_555 1_555
H17_2 C28_2 1_555 1_555
H18_2 C29_2 1_555 1_555
H19_2 C6_2 1_555 1_555
H20_2 C6_2 1_555 1_555
H21_2 C7_2 1_555 1_555
H22_2 C7_2 1_555 1_555
H23A C18A 1_555 1_555
H24A C18A 1_555 1_555
C4 C5 1_555 1_555
C11 C12 1_555 1_555
C16 C17 1_555 1_555
C28 C29 1_555 1_555
C9_2 C10_2 1_555 1_555
C11_2 C12_2 1_555 1_555
C15A C18A 1_555 1_555
C23_2 C30_2 1_555 1_555
C28_2 C29_2 1_555 1_555

#END
