
#######################################################################
#
#                 Cambridge Crystallographic Data Centre
#                                CCDC 
#
#######################################################################
#
# If this CIF has been generated from an entry in the Cambridge 
# Structural Database, then it will include bibliographic, chemical, 
# crystal, experimental, refinement or atomic coordinate data resulting 
# from the CCDC's data processing and validation procedures.
#
#######################################################################

data_YAZPEU
_symmetry_cell_setting           triclinic
_symmetry_space_group_name_H-M   'P -1'
_symmetry_Int_Tables_number      2
_space_group_name_Hall           '-P 1'
loop_
_symmetry_equiv_pos_site_id
_symmetry_equiv_pos_as_xyz
1 x,y,z
2 -x,-y,-z
_cell_length_a                   13.258(4)
_cell_length_b                   14.242(5)
_cell_length_c                   20.152(5)
_cell_angle_alpha                75.25(2)
_cell_angle_beta                 82.74(2)
_cell_angle_gamma                63.45(2)
_cell_volume                     3291.32
loop_
_atom_site_label
_atom_site_type_symbol
_atom_site_fract_x
_atom_site_fract_y
_atom_site_fract_z
Cu1 Cu 0.0971(1) 0.3007(1) -0.0001(1)
Cu2 Cu 0.5071(1) 0.1627(1) 0.4144(1)
P1 P 0.1968(1) 0.2537(1) -0.0959(1)
P2 P -0.0054(1) 0.2247(1) 0.0727(1)
P3 P 0.6805(1) 0.1586(1) 0.4087(1)
P4 P 0.3650(1) 0.3066(1) 0.4482(1)
N1 N 0.2300(3) 0.2535(3) 0.0649(2)
N2 N 0.3587(3) 0.4177(3) 0.1656(2)
N3 N 0.3806(3) -0.0229(3) 0.2098(2)
N4 N 0.4734(3) 0.1549(3) 0.3217(2)
C1 C 0.2720(3) 0.1109(3) -0.0959(2)
C2 C 0.3438(4) 0.0451(3) -0.0404(2)
C3 C 0.4081(4) -0.0635(3) -0.0374(3)
C4 C 0.4014(4) -0.1084(4) -0.0880(3)
C5 C 0.3313(4) -0.0454(4) -0.1431(3)
C6 C 0.2667(3) 0.0647(3) -0.1477(2)
C7 C 0.1195(3) 0.3188(3) -0.1766(2)
C8 C 0.0031(3) 0.3676(4) -0.1729(2)
C9 C -0.0608(4) 0.4206(4) -0.2317(2)
C10 C -0.0088(4) 0.4242(4) -0.2949(2)
C11 C 0.1072(4) 0.3770(3) -0.3001(2)
C12 C 0.1721(3) 0.3243(3) -0.2412(2)
C13 C 0.3157(3) 0.2891(3) -0.1100(2)
C14 C 0.4145(3) 0.2342(3) -0.1448(2)
C15 C 0.5041(4) 0.2607(3) -0.1519(2)
C16 C 0.4960(4) 0.3436(4) -0.1241(2)
C17 C 0.3993(4) 0.3991(3) -0.0896(2)
C18 C 0.3088(3) 0.3732(3) -0.0825(2)
C19 C -0.1579(3) 0.2839(3) 0.0625(2)
C20 C -0.2299(3) 0.2703(3) 0.1171(2)
C21 C -0.3444(3) 0.3120(3) 0.1068(2)
C22 C -0.3888(3) 0.3673(3) 0.0426(2)
C23 C -0.3189(4) 0.3839(3) -0.0113(2)
C24 C -0.2040(3) 0.3432(3) -0.0010(2)
C25 C 0.0059(3) 0.2470(3) 0.1566(2)
C26 C -0.0514(3) 0.3519(3) 0.1651(2)
C27 C -0.0379(4) 0.3791(3) 0.2234(2)
C28 C 0.0338(4) 0.3007(4) 0.2741(2)
C29 C 0.0912(4) 0.1960(4) 0.2663(2)
C30 C 0.0777(3) 0.1686(3) 0.2078(2)
C31 C 0.0374(3) 0.0805(3) 0.0861(2)
C32 C 0.1528(4) 0.0148(3) 0.0895(2)
C33 C 0.1942(4) -0.0959(4) 0.0980(3)
C34 C 0.1212(4) -0.1421(3) 0.1033(2)
C35 C 0.0075(4) -0.0783(3) 0.0975(2)
C36 C -0.0340(3) 0.0331(3) 0.0891(2)
C37 C 0.6880(3) 0.2835(3) 0.3630(2)
C38 C 0.6502(4) 0.3227(3) 0.2958(2)
C39 C 0.6488(4) 0.4187(3) 0.2571(2)
C40 C 0.6827(4) 0.4782(3) 0.2851(2)
C41 C 0.7198(4) 0.4406(4) 0.3521(3)
C42 C 0.7223(4) 0.3438(3) 0.3912(2)
C43 C 0.7487(3) 0.1218(3) 0.4906(2)
C44 C 0.8574(3) 0.1101(3) 0.4958(2)
C45 C 0.9038(3) 0.0837(3) 0.5599(2)
C46 C 0.8429(4) 0.0676(3) 0.6188(2)
C47 C 0.7352(3) 0.0769(3) 0.6144(2)
C48 C 0.6886(3) 0.1038(3) 0.5503(2)
C49 C 0.7805(3) 0.0588(3) 0.3616(2)
C50 C 0.7763(3) -0.0401(3) 0.3763(2)
C51 C 0.8457(4) -0.1199(3) 0.3422(2)
C52 C 0.9193(3) -0.1009(3) 0.2917(2)
C53 C 0.9243(3) -0.0032(3) 0.2761(2)
C54 C 0.8568(3) 0.0764(3) 0.3112(2)
C55 C 0.2312(3) 0.2948(3) 0.4651(2)
C56 C 0.1421(3) 0.3602(3) 0.5012(2)
C57 C 0.0423(3) 0.3493(3) 0.5115(2)
C58 C 0.0302(3) 0.2733(3) 0.4859(2)
C59 C 0.1186(3) 0.2068(3) 0.4513(2)
C60 C 0.2190(3) 0.2169(3) 0.4407(2)
C61 C 0.4019(3) 0.3084(3) 0.5320(2)
C62 C 0.4625(3) 0.3656(3) 0.5365(2)
C63 C 0.5046(4) 0.3538(4) 0.5990(2)
C64 C 0.4901(4) 0.2842(4) 0.6567(2)
C65 C 0.4310(4) 0.2276(4) 0.6521(2)
C66 C 0.3876(3) 0.2382(3) 0.5905(2)
C67 C 0.3227(3) 0.4451(3) 0.3986(2)
C68 C 0.3509(3) 0.4599(3) 0.3298(2)
C69 C 0.3185(4) 0.5633(4) 0.2885(2)
C70 C 0.2572(4) 0.6523(3) 0.3165(2)
C71 C 0.2281(3) 0.6385(3) 0.3855(2)
C72 C 0.2610(3) 0.5359(3) 0.4266(2)
C73 C 0.0217(3) 0.4552(3) -0.0021(2)
N5 N 0.5021(3) 0.0361(3) 0.4797(2)
C74 C 0.2779(3) 0.2500(3) 0.1096(2)
C75 C 0.3356(3) 0.2488(3) 0.1650(2)
C76 C 0.3473(3) 0.3424(3) 0.1658(2)
C77 C 0.3833(3) 0.1535(3) 0.2168(2)
C78 C 0.3818(3) 0.0559(3) 0.2122(2)
C79 C 0.4341(3) 0.1529(3) 0.2748(2)
H1 H 0.3470 0.0762 -0.0042
H2 H 0.4576 -0.1076 0.0005
H3 H 0.4466 -0.1838 -0.0858
H4 H 0.3262 -0.0780 -0.1781
H5 H 0.2187 0.1087 -0.1863
H6 H -0.0334 0.3647 -0.1286
H7 H -0.1416 0.4540 -0.2282
H8 H -0.0530 0.4605 -0.3357
H9 H 0.1434 0.3809 -0.3444
H10 H 0.2529 0.2901 -0.2449
H11 H 0.4197 0.1772 -0.1641
H12 H 0.5718 0.2214 -0.1755
H13 H 0.5577 0.3629 -0.1293
H14 H 0.3944 0.4559 -0.0702
H15 H 0.2412 0.4122 -0.0589
H16 H -0.1996 0.2319 0.1619
H17 H -0.3933 0.3011 0.1443
H18 H -0.4681 0.3945 0.0355
H19 H -0.3501 0.4239 -0.0557
H20 H -0.1562 0.3565 -0.0385
H21 H -0.1016 0.4064 0.1301
H22 H -0.0780 0.4521 0.2287
H23 H 0.0435 0.3190 0.3148
H24 H 0.1416 0.1419 0.3013
H25 H 0.1168 0.0953 0.2030
H26 H 0.2054 0.0453 0.0860
H27 H 0.2736 -0.1423 0.1004
H28 H 0.1490 -0.2185 0.1091
H29 H -0.0436 -0.1106 0.1022
H30 H -0.1137 0.0770 0.0838
H31 H 0.6246 0.2823 0.2765
H32 H 0.6238 0.4434 0.2105
H33 H 0.6807 0.5451 0.2581
H34 H 0.7446 0.4815 0.3717
H35 H 0.7466 0.3185 0.4380
H36 H 0.9001 0.1210 0.4548
H37 H 0.9790 0.0756 0.5633
H38 H 0.8747 0.0502 0.6630
H39 H 0.6930 0.0652 0.6556
H40 H 0.6142 0.1096 0.5474
H41 H 0.7237 -0.0524 0.4107
H42 H 0.8431 -0.1885 0.3540
H43 H 0.9660 -0.1552 0.2669
H44 H 0.9753 0.0102 0.2409
H45 H 0.8621 0.1437 0.3012
H46 H 0.1501 0.4128 0.5191
H47 H -0.0191 0.3947 0.5363
H48 H -0.0398 0.2671 0.4921
H49 H 0.1113 0.1526 0.4348
H50 H 0.2806 0.1706 0.4165
H51 H 0.4755 0.4119 0.4961
H52 H 0.5439 0.3949 0.6026
H53 H 0.5215 0.2747 0.6997
C73A C -0.0217(3) 0.5448(3) 0.0021(2)
N5A N 0.4979(3) -0.0361(3) 0.5203(2)
Cu1A Cu -0.0971(1) 0.6993(1) 0.0001(1)
P1A P -0.1968(1) 0.7463(1) 0.0959(1)
C1A C -0.2720(3) 0.8891(3) 0.0959(2)
C2A C -0.3438(4) 0.9549(3) 0.0404(2)
C3A C -0.4081(4) 1.0635(3) 0.0374(3)
C4A C -0.4014(4) 1.1084(4) 0.0880(3)
C5A C -0.3313(4) 1.0454(4) 0.1431(3)
C6A C -0.2667(3) 0.9353(3) 0.1477(2)
C7A C -0.1195(3) 0.6812(3) 0.1766(2)
C8A C -0.0031(3) 0.6324(4) 0.1729(2)
C9A C 0.0608(4) 0.5794(4) 0.2317(2)
C10A C 0.0088(4) 0.5758(4) 0.2949(2)
C11A C -0.1072(4) 0.6230(3) 0.3001(2)
C12A C -0.1721(3) 0.6757(3) 0.2412(2)
C13A C -0.3157(3) 0.7109(3) 0.1100(2)
C14A C -0.4145(3) 0.7658(3) 0.1448(2)
C15A C -0.5041(4) 0.7393(3) 0.1519(2)
C16A C -0.4960(4) 0.6564(4) 0.1241(2)
C17A C -0.3993(4) 0.6009(3) 0.0896(2)
C18A C -0.3088(3) 0.6268(3) 0.0825(2)
H1A H -0.3470 0.9238 0.0042
H2A H -0.4576 1.1076 -0.0005
H3A H -0.4466 1.1838 0.0858
H4A H -0.3262 1.0780 0.1781
H5A H -0.2187 0.8913 0.1863
H6A H 0.0334 0.6353 0.1286
H7A H 0.1416 0.5460 0.2282
H8A H 0.0530 0.5395 0.3357
H9A H -0.1434 0.6191 0.3444
H10A H -0.2529 0.7099 0.2449
H11A H -0.4197 0.8228 0.1641
H12A H -0.5718 0.7786 0.1755
H13A H -0.5577 0.6371 0.1293
H14A H -0.3944 0.5441 0.0702
H15A H -0.2412 0.5878 0.0589
P2A P 0.0054(1) 0.7753(1) -0.0727(1)
C19A C 0.1579(3) 0.7161(3) -0.0625(2)
C20A C 0.2299(3) 0.7297(3) -0.1171(2)
C21A C 0.3444(3) 0.6880(3) -0.1068(2)
C22A C 0.3888(3) 0.6327(3) -0.0426(2)
C23A C 0.3189(4) 0.6161(3) 0.0113(2)
C24A C 0.2040(3) 0.6568(3) 0.0010(2)
C25A C -0.0059(3) 0.7530(3) -0.1566(2)
C26A C 0.0514(3) 0.6481(3) -0.1651(2)
C27A C 0.0379(4) 0.6209(3) -0.2234(2)
C28A C -0.0338(4) 0.6993(4) -0.2741(2)
C29A C -0.0912(4) 0.8040(4) -0.2663(2)
C30A C -0.0777(3) 0.8314(3) -0.2078(2)
C31A C -0.0374(3) 0.9195(3) -0.0861(2)
C32A C -0.1528(4) 0.9852(3) -0.0895(2)
C33A C -0.1942(4) 1.0959(4) -0.0980(3)
C34A C -0.1212(4) 1.1421(3) -0.1033(2)
C35A C -0.0075(4) 1.0783(3) -0.0975(2)
C36A C 0.0340(3) 0.9669(3) -0.0891(2)
H16A H 0.1996 0.7681 -0.1619
H17A H 0.3933 0.6989 -0.1443
H18A H 0.4681 0.6055 -0.0355
H19A H 0.3501 0.5761 0.0557
H20A H 0.1562 0.6435 0.0385
H21A H 0.1016 0.5936 -0.1301
H22A H 0.0780 0.5479 -0.2287
H23A H -0.0435 0.6810 -0.3148
H24A H -0.1416 0.8581 -0.3013
H25A H -0.1168 0.9047 -0.2030
H26A H -0.2054 0.9547 -0.0860
H27A H -0.2736 1.1423 -0.1004
H28A H -0.1490 1.2185 -0.1091
H29A H 0.0436 1.1106 -0.1022
H30A H 0.1137 0.9230 -0.0838
N1A N -0.2300(3) 0.7465(3) -0.0649(2)
N2A N -0.3587(3) 0.5823(3) -0.1656(2)
N3A N -0.3806(3) 1.0229(3) -0.2098(2)
N4A N -0.4734(3) 0.8451(3) -0.3217(2)
C74A C -0.2779(3) 0.7500(3) -0.1096(2)
C75A C -0.3356(3) 0.7512(3) -0.1650(2)
C76A C -0.3473(3) 0.6576(3) -0.1658(2)
C77A C -0.3833(3) 0.8465(3) -0.2168(2)
C78A C -0.3818(3) 0.9441(3) -0.2122(2)
C79A C -0.4341(3) 0.8471(3) -0.2748(2)
Cu2A Cu -0.5071(1) 0.8373(1) -0.4144(1)
P3A P -0.6805(1) 0.8414(1) -0.4087(1)
C37A C -0.6880(3) 0.7165(3) -0.3630(2)
C38A C -0.6502(4) 0.6773(3) -0.2958(2)
C39A C -0.6488(4) 0.5813(3) -0.2571(2)
C40A C -0.6827(4) 0.5218(3) -0.2851(2)
C41A C -0.7198(4) 0.5594(4) -0.3521(3)
C42A C -0.7223(4) 0.6562(3) -0.3912(2)
C43A C -0.7487(3) 0.8782(3) -0.4906(2)
C44A C -0.8574(3) 0.8899(3) -0.4958(2)
C45A C -0.9038(3) 0.9163(3) -0.5599(2)
C46A C -0.8429(4) 0.9324(3) -0.6188(2)
C47A C -0.7352(3) 0.9231(3) -0.6144(2)
C48A C -0.6886(3) 0.8962(3) -0.5503(2)
C49A C -0.7805(3) 0.9412(3) -0.3616(2)
C50A C -0.7763(3) 1.0401(3) -0.3763(2)
C51A C -0.8457(4) 1.1199(3) -0.3422(2)
C52A C -0.9193(3) 1.1009(3) -0.2917(2)
C53A C -0.9243(3) 1.0032(3) -0.2761(2)
C54A C -0.8568(3) 0.9236(3) -0.3112(2)
H31A H -0.6246 0.7177 -0.2765
H32A H -0.6238 0.5566 -0.2105
H33A H -0.6807 0.4549 -0.2581
H34A H -0.7446 0.5185 -0.3717
H35A H -0.7466 0.6815 -0.4380
H36A H -0.9001 0.8790 -0.4548
H37A H -0.9790 0.9244 -0.5633
H38A H -0.8747 0.9498 -0.6630
H39A H -0.6930 0.9348 -0.6556
H40A H -0.6142 0.8904 -0.5474
H41A H -0.7237 1.0524 -0.4107
H42A H -0.8431 1.1885 -0.3540
H43A H -0.9660 1.1552 -0.2669
H44A H -0.9753 0.9898 -0.2409
H45A H -0.8621 0.8563 -0.3012
P4A P -0.3650(1) 0.6934(1) -0.4482(1)
C55A C -0.2312(3) 0.7052(3) -0.4651(2)
C56A C -0.1421(3) 0.6398(3) -0.5012(2)
C57A C -0.0423(3) 0.6507(3) -0.5115(2)
C58A C -0.0302(3) 0.7267(3) -0.4859(2)
C59A C -0.1186(3) 0.7932(3) -0.4513(2)
C60A C -0.2190(3) 0.7831(3) -0.4407(2)
C61A C -0.4019(3) 0.6916(3) -0.5320(2)
C62A C -0.4625(3) 0.6344(3) -0.5365(2)
C63A C -0.5046(4) 0.6462(4) -0.5990(2)
C64A C -0.4901(4) 0.7158(4) -0.6567(2)
C65A C -0.4310(4) 0.7724(4) -0.6521(2)
C66A C -0.3876(3) 0.7618(3) -0.5905(2)
C67A C -0.3227(3) 0.5549(3) -0.3986(2)
C68A C -0.3509(3) 0.5401(3) -0.3298(2)
C69A C -0.3185(4) 0.4367(4) -0.2885(2)
C70A C -0.2572(4) 0.3477(3) -0.3165(2)
C71A C -0.2281(3) 0.3615(3) -0.3855(2)
C72A C -0.2610(3) 0.4641(3) -0.4266(2)
H46A H -0.1501 0.5872 -0.5191
H47A H 0.0191 0.6053 -0.5363
H48A H 0.0398 0.7329 -0.4921
H49A H -0.1113 0.8474 -0.4348
H50A H -0.2806 0.8294 -0.4165
H51A H -0.4755 0.5881 -0.4961
H52A H -0.5439 0.6051 -0.6026
H53A H -0.5215 0.7253 -0.6997
Cu2A_2 Cu 0.4929(1) -0.1627(1) 0.5856(1)
N5A_2 N -0.5021(3) 0.9639(3) -0.4797(2)
loop_
_geom_bond_atom_site_label_1
_geom_bond_atom_site_label_2
_geom_bond_site_symmetry_1
_geom_bond_site_symmetry_2
Cu1 P1 1_555 1_555
Cu2 P3 1_555 1_555
P1 C1 1_555 1_555
P2 Cu1 1_555 1_555
P3 C37 1_555 1_555
P4 Cu2 1_555 1_555
N1 Cu1 1_555 1_555
N2 C76 1_555 1_555
N3 C78 1_555 1_555
N4 Cu2 1_555 1_555
C1 C2 1_555 1_555
C2 C3 1_555 1_555
C3 C4 1_555 1_555
C4 C5 1_555 1_555
C5 C6 1_555 1_555
C6 C1 1_555 1_555
C7 P1 1_555 1_555
C8 C7 1_555 1_555
C9 C8 1_555 1_555
C10 C9 1_555 1_555
C11 C10 1_555 1_555
C12 C7 1_555 1_555
C13 P1 1_555 1_555
C14 C13 1_555 1_555
C15 C14 1_555 1_555
C16 C15 1_555 1_555
C17 C16 1_555 1_555
C18 C13 1_555 1_555
C19 P2 1_555 1_555
C20 C19 1_555 1_555
C21 C20 1_555 1_555
C22 C21 1_555 1_555
C23 C22 1_555 1_555
C24 C19 1_555 1_555
C25 P2 1_555 1_555
C26 C25 1_555 1_555
C27 C26 1_555 1_555
C28 C27 1_555 1_555
C29 C28 1_555 1_555
C30 C25 1_555 1_555
C31 P2 1_555 1_555
C32 C31 1_555 1_555
C33 C32 1_555 1_555
C34 C33 1_555 1_555
C35 C34 1_555 1_555
C36 C31 1_555 1_555
C37 C38 1_555 1_555
C38 C39 1_555 1_555
C39 C40 1_555 1_555
C40 C41 1_555 1_555
C41 C42 1_555 1_555
C42 C37 1_555 1_555
C43 P3 1_555 1_555
C44 C43 1_555 1_555
C45 C44 1_555 1_555
C46 C45 1_555 1_555
C47 C46 1_555 1_555
C48 C43 1_555 1_555
C49 P3 1_555 1_555
C50 C49 1_555 1_555
C51 C50 1_555 1_555
C52 C51 1_555 1_555
C53 C52 1_555 1_555
C54 C49 1_555 1_555
C55 P4 1_555 1_555
C56 C55 1_555 1_555
C57 C56 1_555 1_555
C58 C57 1_555 1_555
C59 C58 1_555 1_555
C60 C55 1_555 1_555
C61 P4 1_555 1_555
C62 C61 1_555 1_555
C63 C62 1_555 1_555
C64 C63 1_555 1_555
C65 C64 1_555 1_555
C66 C61 1_555 1_555
C67 P4 1_555 1_555
C68 C67 1_555 1_555
C69 C68 1_555 1_555
C70 C69 1_555 1_555
C71 C70 1_555 1_555
C72 C67 1_555 1_555
C73 Cu1 1_555 1_555
N5 Cu2 1_555 1_555
C74 N1 1_555 1_555
C75 C74 1_555 1_555
C76 C75 1_555 1_555
C77 C75 1_555 1_555
C78 C77 1_555 1_555
C79 N4 1_555 1_555
H1 C2 1_555 1_555
H2 C3 1_555 1_555
H3 C4 1_555 1_555
H4 C5 1_555 1_555
H5 C6 1_555 1_555
H6 C8 1_555 1_555
H7 C9 1_555 1_555
H8 C10 1_555 1_555
H9 C11 1_555 1_555
H10 C12 1_555 1_555
H11 C14 1_555 1_555
H12 C15 1_555 1_555
H13 C16 1_555 1_555
H14 C17 1_555 1_555
H15 C18 1_555 1_555
H16 C20 1_555 1_555
H17 C21 1_555 1_555
H18 C22 1_555 1_555
H19 C23 1_555 1_555
H20 C24 1_555 1_555
H21 C26 1_555 1_555
H22 C27 1_555 1_555
H23 C28 1_555 1_555
H24 C29 1_555 1_555
H25 C30 1_555 1_555
H26 C32 1_555 1_555
H27 C33 1_555 1_555
H28 C34 1_555 1_555
H29 C35 1_555 1_555
H30 C36 1_555 1_555
H31 C38 1_555 1_555
H32 C39 1_555 1_555
H33 C40 1_555 1_555
H34 C41 1_555 1_555
H35 C42 1_555 1_555
H36 C44 1_555 1_555
H37 C45 1_555 1_555
H38 C46 1_555 1_555
H39 C47 1_555 1_555
H40 C48 1_555 1_555
H41 C50 1_555 1_555
H42 C51 1_555 1_555
H43 C52 1_555 1_555
H44 C53 1_555 1_555
H45 C54 1_555 1_555
H46 C56 1_555 1_555
H47 C57 1_555 1_555
H48 C58 1_555 1_555
H49 C59 1_555 1_555
H50 C60 1_555 1_555
H51 C62 1_555 1_555
H52 C63 1_555 1_555
H53 C64 1_555 1_555
C73A C73 1_555 1_555
N5A N5 1_555 1_555
Cu1A C73A 1_555 1_555
P1A Cu1A 1_555 1_555
C1A P1A 1_555 1_555
C2A C1A 1_555 1_555
C3A C2A 1_555 1_555
C4A C3A 1_555 1_555
C5A C4A 1_555 1_555
C6A C1A 1_555 1_555
C7A P1A 1_555 1_555
C8A C7A 1_555 1_555
C9A C8A 1_555 1_555
C10A C9A 1_555 1_555
C11A C10A 1_555 1_555
C12A C7A 1_555 1_555
C13A P1A 1_555 1_555
C14A C13A 1_555 1_555
C15A C14A 1_555 1_555
C16A C15A 1_555 1_555
C17A C16A 1_555 1_555
C18A C13A 1_555 1_555
H1A C2A 1_555 1_555
H2A C3A 1_555 1_555
H3A C4A 1_555 1_555
H4A C5A 1_555 1_555
H5A C6A 1_555 1_555
H6A C8A 1_555 1_555
H7A C9A 1_555 1_555
H8A C10A 1_555 1_555
H9A C11A 1_555 1_555
H10A C12A 1_555 1_555
H11A C14A 1_555 1_555
H12A C15A 1_555 1_555
H13A C16A 1_555 1_555
H14A C17A 1_555 1_555
H15A C18A 1_555 1_555
P2A Cu1A 1_555 1_555
C19A P2A 1_555 1_555
C20A C19A 1_555 1_555
C21A C20A 1_555 1_555
C22A C21A 1_555 1_555
C23A C22A 1_555 1_555
C24A C19A 1_555 1_555
C25A P2A 1_555 1_555
C26A C25A 1_555 1_555
C27A C26A 1_555 1_555
C28A C27A 1_555 1_555
C29A C28A 1_555 1_555
C30A C25A 1_555 1_555
C31A P2A 1_555 1_555
C32A C31A 1_555 1_555
C33A C32A 1_555 1_555
C34A C33A 1_555 1_555
C35A C34A 1_555 1_555
C36A C31A 1_555 1_555
H16A C20A 1_555 1_555
H17A C21A 1_555 1_555
H18A C22A 1_555 1_555
H19A C23A 1_555 1_555
H20A C24A 1_555 1_555
H21A C26A 1_555 1_555
H22A C27A 1_555 1_555
H23A C28A 1_555 1_555
H24A C29A 1_555 1_555
H25A C30A 1_555 1_555
H26A C32A 1_555 1_555
H27A C33A 1_555 1_555
H28A C34A 1_555 1_555
H29A C35A 1_555 1_555
H30A C36A 1_555 1_555
N1A Cu1A 1_555 1_555
N2A C76A 1_555 1_555
N3A C78A 1_555 1_555
N4A C79A 1_555 1_555
C74A N1A 1_555 1_555
C75A C74A 1_555 1_555
C76A C75A 1_555 1_555
C77A C75A 1_555 1_555
C78A C77A 1_555 1_555
C79A C77A 1_555 1_555
Cu2A N4A 1_555 1_555
P3A Cu2A 1_555 1_555
C37A P3A 1_555 1_555
C38A C37A 1_555 1_555
C39A C38A 1_555 1_555
C40A C39A 1_555 1_555
C41A C40A 1_555 1_555
C42A C37A 1_555 1_555
C43A P3A 1_555 1_555
C44A C43A 1_555 1_555
C45A C44A 1_555 1_555
C46A C45A 1_555 1_555
C47A C46A 1_555 1_555
C48A C43A 1_555 1_555
C49A P3A 1_555 1_555
C50A C49A 1_555 1_555
C51A C50A 1_555 1_555
C52A C51A 1_555 1_555
C53A C52A 1_555 1_555
C54A C49A 1_555 1_555
H31A C38A 1_555 1_555
H32A C39A 1_555 1_555
H33A C40A 1_555 1_555
H34A C41A 1_555 1_555
H35A C42A 1_555 1_555
H36A C44A 1_555 1_555
H37A C45A 1_555 1_555
H38A C46A 1_555 1_555
H39A C47A 1_555 1_555
H40A C48A 1_555 1_555
H41A C50A 1_555 1_555
H42A C51A 1_555 1_555
H43A C52A 1_555 1_555
H44A C53A 1_555 1_555
H45A C54A 1_555 1_555
P4A Cu2A 1_555 1_555
C55A P4A 1_555 1_555
C56A C55A 1_555 1_555
C57A C56A 1_555 1_555
C58A C57A 1_555 1_555
C59A C58A 1_555 1_555
C60A C55A 1_555 1_555
C61A P4A 1_555 1_555
C62A C61A 1_555 1_555
C63A C62A 1_555 1_555
C64A C63A 1_555 1_555
C65A C64A 1_555 1_555
C66A C61A 1_555 1_555
C67A P4A 1_555 1_555
C68A C67A 1_555 1_555
C69A C68A 1_555 1_555
C70A C69A 1_555 1_555
C71A C70A 1_555 1_555
C72A C67A 1_555 1_555
H46A C56A 1_555 1_555
H47A C57A 1_555 1_555
H48A C58A 1_555 1_555
H49A C59A 1_555 1_555
H50A C60A 1_555 1_555
H51A C62A 1_555 1_555
H52A C63A 1_555 1_555
H53A C64A 1_555 1_555
Cu2A_2 N5A 1_555 1_555
N5A_2 Cu2A 1_555 1_555
C11 C12 1_555 1_555
C17 C18 1_555 1_555
C23 C24 1_555 1_555
C29 C30 1_555 1_555
C35 C36 1_555 1_555
C47 C48 1_555 1_555
C53 C54 1_555 1_555
C59 C60 1_555 1_555
C65 C66 1_555 1_555
C71 C72 1_555 1_555
C77 C79 1_555 1_555
C5A C6A 1_555 1_555
C11A C12A 1_555 1_555
C17A C18A 1_555 1_555
C23A C24A 1_555 1_555
C29A C30A 1_555 1_555
C35A C36A 1_555 1_555
C41A C42A 1_555 1_555
C47A C48A 1_555 1_555
C53A C54A 1_555 1_555
C59A C60A 1_555 1_555
C65A C66A 1_555 1_555
C71A C72A 1_555 1_555

#END
