
#######################################################################
#
#                 Cambridge Crystallographic Data Centre
#                                CCDC 
#
#######################################################################
#
# If this CIF has been generated from an entry in the Cambridge 
# Structural Database, then it will include bibliographic, chemical, 
# crystal, experimental, refinement or atomic coordinate data resulting 
# from the CCDC's data processing and validation procedures.
#
#######################################################################

data_YAZQAR
_symmetry_cell_setting           monoclinic
_symmetry_space_group_name_H-M   'P 21'
_symmetry_Int_Tables_number      4
_space_group_name_Hall           'P 2yb'
loop_
_symmetry_equiv_pos_site_id
_symmetry_equiv_pos_as_xyz
1 x,y,z
2 -x,1/2+y,-z
_cell_length_a                   7.829(3)
_cell_length_b                   5.784(5)
_cell_length_c                   16.486(3)
_cell_angle_alpha                90
_cell_angle_beta                 98.62(2)
_cell_angle_gamma                90
_cell_volume                     738.102
loop_
_atom_site_label
_atom_site_type_symbol
_atom_site_fract_x
_atom_site_fract_y
_atom_site_fract_z
S1 S -0.16391(7) -0.0108 -0.86274(3)
Na1 Na -0.18920(13) -0.3318(2) -1.04687(6)
O1 O -0.2704(2) -0.1810(4) -0.91296(12)
O2 O 0.0187(2) -0.0306(4) -0.86985(10)
O3 O -0.2292(2) 0.2260(3) -0.87823(12)
O4 O -0.3703(3) -0.6579(4) -1.04347(14)
O5 O -0.0210(2) 0.0010(4) -1.06160(12)
N1 N -0.2637(3) -0.1932(4) -0.51781(15)
N2 N -0.2216(3) -0.0352(5) -0.46706(13)
N3 N -0.4050(3) -0.1262(5) -0.15163(14)
C1 C -0.1836(3) -0.0699(5) -0.75945(14)
C2 C -0.1219(4) 0.0958(5) -0.69992(16)
H1 H -0.0661 0.2316 -0.7150
C3 C -0.1430(4) 0.0597(5) -0.61932(17)
H2 H -0.1026 0.1713 -0.5787
C4 C -0.2244(3) -0.1429(5) -0.59750(17)
C5 C -0.2795(4) -0.3096(6) -0.65683(17)
H3 H -0.3307 -0.4487 -0.6415
C6 C -0.2596(4) -0.2728(5) -0.73834(17)
H4 H -0.2977 -0.3856 -0.7789
C7 C -0.2682(3) -0.0743(5) -0.38827(15)
C8 C -0.2236(4) 0.1000(5) -0.33074(16)
H5 H -0.1619 0.2315 -0.3452
C9 C -0.2681(4) 0.0840(5) -0.25250(16)
H6 H -0.2372 0.2042 -0.2138
C10 C -0.3585(3) -0.1092(5) -0.23081(15)
C11 C -0.3995(3) -0.2887(5) -0.28768(16)
H7 H -0.4572 -0.4230 -0.2726
C12 C -0.3561(4) -0.2702(5) -0.36593(17)
H8 H -0.3860 -0.3907 -0.4046
H9 H -0.521(6) -0.189(8) -0.157(3)
H10 H -0.403(6) 0.002(10) -0.129(3)
H11 H -0.450(8) -0.631(12) -1.051(4)
H12 H -0.343(6) -0.707(8) -0.995(3)
H13 H 0.033(5) -0.048(8) -1.092(2)
H14 H -0.069(5) 0.123(9) -1.095(3)
O2A O -0.0187(2) -0.5306(4) -1.13015(10)
O5A O 0.0210(2) -0.4990(4) -0.93840(12)
N3_2 N -0.4050(3) -0.1262(5) -1.15163(14)
Na1A Na 0.18920(13) 0.1682(2) -0.95313(6)
Na1_2 Na -0.18920(13) -0.3318(2) -0.04687(6)
H13A H -0.033(5) -0.548(8) -0.908(2)
H14A H 0.069(5) -0.377(9) -0.905(3)
H9_2 H -0.521(6) -0.189(8) -1.157(3)
H10_2 H -0.403(6) 0.002(10) -1.129(3)
loop_
_geom_bond_atom_site_label_1
_geom_bond_atom_site_label_2
_geom_bond_site_symmetry_1
_geom_bond_site_symmetry_2
S1 O1 1_555 1_555
Na1 O1 1_555 1_555
O2 S1 1_555 1_555
O3 S1 1_555 1_555
O4 Na1 1_555 1_555
O5 Na1 1_555 1_555
N1 N2 1_555 1_555
N2 C7 1_555 1_555
N3 C10 1_555 1_555
C1 S1 1_555 1_555
C2 C1 1_555 1_555
H1 C2 1_555 1_555
C3 C2 1_555 1_555
H2 C3 1_555 1_555
C4 N1 1_555 1_555
C5 C4 1_555 1_555
H3 C5 1_555 1_555
C6 C1 1_555 1_555
H4 C6 1_555 1_555
C7 C8 1_555 1_555
C8 H5 1_555 1_555
C9 C8 1_555 1_555
H6 C9 1_555 1_555
C10 C9 1_555 1_555
C11 C10 1_555 1_555
H7 C11 1_555 1_555
C12 C7 1_555 1_555
H8 C12 1_555 1_555
H9 N3 1_555 1_555
H10 N3 1_555 1_555
H11 O4 1_555 1_555
H12 O4 1_555 1_555
H13 O5 1_555 1_555
H14 O5 1_555 1_555
O2A Na1 1_555 1_555
O5A Na1 1_555 1_555
N3_2 Na1 1_555 1_555
Na1A O2 1_555 1_555
Na1_2 N3 1_555 1_555
H13A O5A 1_555 1_555
H14A O5A 1_555 1_555
H9_2 N3_2 1_555 1_555
H10_2 N3_2 1_555 1_555
O5 Na1A 1_555 1_555
C3 C4 1_555 1_555
C5 C6 1_555 1_555
C11 C12 1_555 1_555

#END
