
#######################################################################
#
#                 Cambridge Crystallographic Data Centre
#                                CCDC 
#
#######################################################################
#
# If this CIF has been generated from an entry in the Cambridge 
# Structural Database, then it will include bibliographic, chemical, 
# crystal, experimental, refinement or atomic coordinate data resulting 
# from the CCDC's data processing and validation procedures.
#
#######################################################################

data_YAZYIJ
_symmetry_cell_setting           monoclinic
_symmetry_space_group_name_H-M   'C 2/c'
_symmetry_Int_Tables_number      15
_space_group_name_Hall           '-C 2yn'
loop_
_symmetry_equiv_pos_site_id
_symmetry_equiv_pos_as_xyz
1 x,y,z
2 -x,y,1/2-z
3 1/2+x,1/2+y,z
4 1/2-x,1/2+y,1/2-z
5 -x,-y,-z
6 x,-y,1/2+z
7 1/2-x,1/2-y,-z
8 1/2+x,1/2-y,1/2+z
_cell_length_a                   29.844(7)
_cell_length_b                   13.113(3)
_cell_length_c                   6.7951(16)
_cell_angle_alpha                90
_cell_angle_beta                 101.574(3)
_cell_angle_gamma                90
_cell_volume                     2605.15
loop_
_atom_site_label
_atom_site_type_symbol
_atom_site_fract_x
_atom_site_fract_y
_atom_site_fract_z
Pr1 Pr 0.401728(12) 0.70269(2) 0.72795(5)
O1 O 0.38270(18) 0.5422(4) 0.8823(9)
O2 O 0.35714(17) 0.3872(4) 0.9327(8)
O3 O 0.13873(17) 0.5085(4) 0.4020(9)
O4 O 0.15324(18) 0.6733(4) 0.4631(9)
O5 O 0.31924(18) 0.6855(4) 0.8097(8)
H1 H 0.3058 0.7401 0.8092
O6 O 0.19783(17) 0.3721(4) 0.5534(8)
H2 H 0.1729 0.3936 0.4955
O7 O 0.47757(18) 0.7209(4) 0.9387(8)
O8 O 0.55221(16) 0.7488(4) 1.0268(7)
O9 O 0.42542(16) 0.8862(3) 0.8131(7)
H3 H 0.4062 0.9251 0.7502
O10 O 0.4516(2) 0.5517(4) 0.6580(9)
H4 H 0.4360 0.5208 0.5635
H5 H 0.4692 0.5769 0.5931
O11 O 0.3918(2) 0.7411(5) 1.0892(8)
H6 H 0.4124 0.7479 1.1882
H7 H 0.3746 0.6999 1.1263
C1 C 0.3031(2) 0.5070(5) 0.7672(9)
C2 C 0.2881(2) 0.6097(5) 0.7408(10)
C3 C 0.2436(2) 0.6322(5) 0.6520(10)
H8 H 0.2341 0.6998 0.6377
C4 C 0.2122(2) 0.5535(5) 0.5826(10)
C5 C 0.2266(2) 0.4519(5) 0.6110(10)
C6 C 0.2716(2) 0.4300(5) 0.7022(10)
H9 H 0.2808 0.3623 0.7201
C7 C 0.3510(2) 0.4775(5) 0.8672(10)
C8 C 0.1651(2) 0.5810(5) 0.4772(11)
C9 C 0.5037(2) 0.8928(5) 0.9976(10)
C10 C 0.4621(2) 0.9406(5) 0.9089(10)
C11 C 0.5407(2) 0.9538(5) 1.0853(10)
H10 H 0.5683 0.9225 1.1418
C12 C 0.5108(2) 0.7807(5) 0.9871(10)
Pr1A Pr 0.598272(12) 0.70269(2) 0.77205(5)
Pr1D Pr 0.598272(12) 0.29731(2) 0.27205(5)
Pr1D_2 Pr 0.598272(12) 1.29731(2) 1.27205(5)
Pr1E Pr 0.401728(12) 0.29731(2) 1.22795(5)
Pr1E_2 Pr 0.401728(12) 1.29731(2) 1.22795(5)
Pr1F Pr 0.098272(12) 0.79731(2) 0.27205(5)
Pr1G Pr 0.901728(12) 0.79731(2) 1.22795(5)
O1A O 0.61730(18) 0.5422(4) 0.6177(9)
O2A O 0.64286(17) 0.3872(4) 0.5673(8)
O2D O 0.64286(17) 0.6128(4) 1.0673(8)
O2E O 0.35714(17) 0.6128(4) 0.4327(8)
O3A O 0.86127(17) 0.5085(4) 1.0980(9)
O4A O 0.84676(18) 0.6733(4) 1.0369(9)
O4F O 0.34676(18) 0.8267(4) 0.5369(9)
O4G O 0.65324(18) 0.8267(4) 0.9631(9)
O5A O 0.68076(18) 0.6855(4) 0.6903(8)
H1A H 0.6942 0.7401 0.6908
O6A O 0.80217(17) 0.3721(4) 0.9466(8)
H2A H 0.8271 0.3936 1.0045
O7D O 0.52243(18) 1.2791(4) 1.0613(8)
O7A O 0.52243(18) 0.7209(4) 0.5613(8)
O8D O 0.44779(16) 1.2512(4) 0.9732(7)
O8A O 0.44779(16) 0.7488(4) 0.4732(7)
O9D O 0.57458(16) 1.1138(3) 1.1869(7)
O9A O 0.57458(16) 0.8862(3) 0.6869(7)
H3D H 0.5938 1.0749 1.2498
O10A O 0.5484(2) 0.5517(4) 0.8420(9)
H4A H 0.5640 0.5208 0.9365
H5A H 0.5308 0.5769 0.9069
O11A O 0.6082(2) 0.7411(5) 0.4108(8)
H6A H 0.5876 0.7479 0.3118
H7A H 0.6254 0.6999 0.3737
C1A C 0.6969(2) 0.5070(5) 0.7328(9)
C2A C 0.7119(2) 0.6097(5) 0.7592(10)
C3A C 0.7564(2) 0.6322(5) 0.8480(10)
H8A H 0.7659 0.6998 0.8623
C4A C 0.7878(2) 0.5535(5) 0.9174(10)
C5A C 0.7734(2) 0.4519(5) 0.8890(10)
C6A C 0.7284(2) 0.4300(5) 0.7978(10)
H9A H 0.7192 0.3623 0.7799
C7A C 0.6490(2) 0.4775(5) 0.6328(10)
C8A C 0.8349(2) 0.5810(5) 1.0228(11)
C9D C 0.4963(2) 1.1072(5) 1.0024(10)
C10D C 0.5379(2) 1.0594(5) 1.0911(10)
C11D C 0.4593(2) 1.0462(5) 0.9147(10)
H10D H 0.4317 1.0775 0.8582
C12D C 0.4892(2) 1.2193(5) 1.0129(10)
loop_
_geom_bond_atom_site_label_1
_geom_bond_atom_site_label_2
_geom_bond_site_symmetry_1
_geom_bond_site_symmetry_2
Pr1 O1 1_555 1_555
O1 C7 1_555 1_555
O2 C7 1_555 1_555
O3 C8 1_555 1_555
O4 C8 1_555 1_555
O5 Pr1 1_555 1_555
H1 O5 1_555 1_555
O6 H2 1_555 1_555
O7 Pr1 1_555 1_555
O8 C12 1_555 1_555
O9 Pr1 1_555 1_555
H3 O9 1_555 1_555
O10 Pr1 1_555 1_555
H4 O10 1_555 1_555
H5 O10 1_555 1_555
O11 Pr1 1_555 1_555
H6 O11 1_555 1_555
H7 O11 1_555 1_555
C1 C2 1_555 1_555
C2 O5 1_555 1_555
C3 C2 1_555 1_555
H8 C3 1_555 1_555
C4 C3 1_555 1_555
C5 O6 1_555 1_555
C6 C1 1_555 1_555
H9 C6 1_555 1_555
C7 C1 1_555 1_555
C8 C4 1_555 1_555
C9 C10 1_555 1_555
C10 O9 1_555 1_555
C11 C9 1_555 1_555
H10 C11 1_555 1_555
C12 O7 1_555 1_555
Pr1A O8 1_555 1_555
Pr1D O2A 1_555 1_555
Pr1D_2 O7D 1_555 1_555
Pr1E O2 1_555 1_555
Pr1E_2 O8D 1_555 1_555
Pr1F O4 1_555 1_555
Pr1G O4A 1_555 1_555
O1A Pr1A 1_555 1_555
O2A C7A 1_555 1_555
O2D Pr1A 1_555 1_555
O2E Pr1 1_555 1_555
O3A C8A 1_555 1_555
O4A C8A 1_555 1_555
O4F Pr1 1_555 1_555
O4G Pr1A 1_555 1_555
O5A Pr1A 1_555 1_555
H1A O5A 1_555 1_555
O6A H2A 1_555 1_555
O7D C12D 1_555 1_555
O7A Pr1A 1_555 1_555
O8D C12D 1_555 1_555
O8A Pr1 1_555 1_555
O9D Pr1D_2 1_555 1_555
O9A Pr1A 1_555 1_555
H3D O9D 1_555 1_555
O10A Pr1A 1_555 1_555
H4A O10A 1_555 1_555
H5A O10A 1_555 1_555
O11A Pr1A 1_555 1_555
H6A O11A 1_555 1_555
H7A O11A 1_555 1_555
C1A C2A 1_555 1_555
C2A O5A 1_555 1_555
C3A C2A 1_555 1_555
H8A C3A 1_555 1_555
C4A C3A 1_555 1_555
C5A O6A 1_555 1_555
C6A C1A 1_555 1_555
H9A C6A 1_555 1_555
C7A O1A 1_555 1_555
C8A C4A 1_555 1_555
C9D C10D 1_555 1_555
C10D C11 1_555 1_555
C11D C10 1_555 1_555
H10D C11D 1_555 1_555
C12D C9D 1_555 1_555
C4 C5 1_555 1_555
C5 C6 1_555 1_555
C9 C12 1_555 1_555
O9D C10D 1_555 1_555
C1A C7A 1_555 1_555
C4A C5A 1_555 1_555
C5A C6A 1_555 1_555
C9D C11D 1_555 1_555

#END
