
#######################################################################
#
#                 Cambridge Crystallographic Data Centre
#                                CCDC 
#
#######################################################################
#
# If this CIF has been generated from an entry in the Cambridge 
# Structural Database, then it will include bibliographic, chemical, 
# crystal, experimental, refinement or atomic coordinate data resulting 
# from the CCDC's data processing and validation procedures.
#
#######################################################################

data_YAZYUU
_symmetry_cell_setting           cubic
_symmetry_space_group_name_H-M   'P a 3'
_symmetry_Int_Tables_number      205
_space_group_name_Hall           '-P 2ac 2ab 3'
loop_
_symmetry_equiv_pos_site_id
_symmetry_equiv_pos_as_xyz
1 x,y,z
2 z,x,y
3 y,z,x
4 1/2-x,-y,1/2+z
5 -x,1/2+y,1/2-z
6 1/2+x,1/2-y,-z
7 1/2+z,1/2-x,-y
8 1/2-z,-x,1/2+y
9 -z,1/2+x,1/2-y
10 -y,1/2+z,1/2-x
11 1/2+y,1/2-z,-x
12 1/2-y,-z,1/2+x
13 -x,-y,-z
14 -z,-x,-y
15 -y,-z,-x
16 1/2+x,y,1/2-z
17 x,1/2-y,1/2+z
18 1/2-x,1/2+y,z
19 1/2-z,1/2+x,y
20 1/2+z,x,1/2-y
21 z,1/2-x,1/2+y
22 y,1/2-z,1/2+x
23 1/2-y,1/2+z,x
24 1/2+y,z,1/2-x
_cell_length_a                   23.3019(10)
_cell_length_b                   23.3019(10)
_cell_length_c                   23.3019(10)
_cell_angle_alpha                90
_cell_angle_beta                 90
_cell_angle_gamma                90
_cell_volume                     12652.4
loop_
_atom_site_label
_atom_site_type_symbol
_atom_site_fract_x
_atom_site_fract_y
_atom_site_fract_z
Cu1 Cu 0.26791(4) 0.14492(4) -0.06450(4)
O1 O 0.2065(3) 0.1042(2) -0.0288(2)
N1 N 0.3407(2) 0.1736(3) -0.0964(3)
N2 N 0.2840(3) 0.0836(2) -0.1193(3)
C1 C 0.3565(3) 0.1435(3) -0.1435(3)
C2 C 0.2571(3) 0.0347(3) -0.1229(3)
H1 H 0.2673 0.0096 -0.1534
C3 C 0.2130(3) 0.0159(3) -0.0836(3)
C4 C 0.1901(3) 0.0505(3) -0.0382(3)
C5 C 0.1468(3) 0.0279(4) -0.0030(4)
H2 H 0.1305 0.0507 0.0265
C6 C 0.1275(4) -0.0289(5) -0.0117(4)
H3 H 0.0993 -0.0444 0.0133
C7 C 0.1487(4) -0.0622(4) -0.0554(5)
H4 H 0.1350 -0.1002 -0.0610
C8 C 0.1909(4) -0.0393(4) -0.0914(4)
H5 H 0.2049 -0.0620 -0.1223
Cu2 Cu 0.21730(4) 0.15836(4) 0.05151(4)
Cl1 Cl 0.3122(3) 0.1339(3) 0.0589(3)
O3 O 0.2914(2) 0.0131(2) -0.2602(2)
N3 N 0.3883(3) -0.1133(3) -0.3167(3)
N4 N 0.2977(3) -0.0663(3) -0.3529(3)
C9 C 0.3634(3) -0.1366(3) -0.3634(3)
C10 C 0.2542(4) -0.0364(4) -0.3717(3)
H6 H 0.4087 -0.2603 -0.4544
C11 C 0.2266(4) 0.0092(4) -0.3408(4)
C12 C 0.2456(4) 0.0324(3) -0.2874(3)
C13 C 0.2633(4) -0.2859(4) -0.5783(4)
H7 H 0.2287 -0.2729 -0.5954
C14 C 0.2889(5) -0.3350(4) -0.5986(4)
H8 H 0.2704 -0.3568 -0.6276
C15 C 0.3430(6) -0.3534(5) -0.5765(5)
H9 H 0.3623 -0.3857 -0.5924
C16 C 0.3663(5) -0.3234(4) -0.5318(5)
H10 H 0.4011 -0.3368 -0.5154
Cu1F Cu 0.43550(4) 0.23209(4) -0.14492(4)
Cu1K Cu 0.35508(4) 0.06450(4) -0.23209(4)
Cu1G Cu 0.56450(4) -0.26791(4) -0.35508(4)
Cu1C Cu 0.23209(4) -0.14492(4) -0.56450(4)
O1F O 0.4712(2) 0.2935(3) -0.1042(2)
O1K O 0.3958(2) 0.0288(2) -0.2935(3)
N1F N 0.4036(3) 0.1593(2) -0.1736(3)
N1K N 0.3264(3) 0.0964(3) -0.1593(2)
N2F N 0.3807(3) 0.2160(3) -0.0836(2)
N2K N 0.4164(2) 0.1193(3) -0.2160(3)
C2F C 0.3771(3) 0.2429(3) -0.0347(3)
C2K C 0.4653(3) 0.1229(3) -0.2429(3)
H1F H 0.3466 0.2327 -0.0096
H1K H 0.4904 0.1534 -0.2327
C3F C 0.4164(3) 0.2870(3) -0.0159(3)
C3K C 0.4841(3) 0.0836(3) -0.2870(3)
C4F C 0.4618(3) 0.3099(3) -0.0505(3)
C4K C 0.4495(3) 0.0382(3) -0.3099(3)
C5F C 0.4970(4) 0.3532(3) -0.0279(4)
C5K C 0.4721(4) 0.0030(4) -0.3532(3)
H2F H 0.5265 0.3695 -0.0507
H2K H 0.4493 -0.0265 -0.3695
C6F C 0.4883(4) 0.3725(4) 0.0289(5)
C6K C 0.5289(5) 0.0117(4) -0.3725(4)
H3F H 0.5133 0.4007 0.0444
H3K H 0.5444 -0.0133 -0.4007
C7F C 0.4446(5) 0.3513(4) 0.0622(4)
C7K C 0.5622(4) 0.0554(5) -0.3513(4)
H4F H 0.4390 0.3650 0.1002
H4K H 0.6002 0.0610 -0.3650
C8F C 0.4086(4) 0.3091(4) 0.0393(4)
C8K C 0.5393(4) 0.0914(4) -0.3091(4)
H5F H 0.3777 0.2951 0.0620
H5K H 0.5620 0.1223 -0.2951
Cu2F Cu 0.55151(4) 0.28270(4) -0.15836(4)
Cu2K Cu 0.34164(4) -0.05151(4) -0.28270(4)
Cu2G Cu 0.44849(4) -0.21730(4) -0.34164(4)
Cu2C Cu 0.28270(4) -0.15836(4) -0.44849(4)
Cl1F Cl 0.5589(3) 0.1878(3) -0.1339(3)
Cl1K Cl 0.3661(3) -0.0589(3) -0.1878(3)
O3K O 0.4869(2) 0.2602(2) -0.2086(2)
O3F O 0.2398(2) 0.2086(2) -0.0131(2)
O3J O 0.5131(2) -0.2398(2) -0.2914(2)
O3H O 0.2602(2) -0.2086(2) -0.5131(2)
N3F N 0.1833(3) 0.1117(3) 0.1133(3)
N3J N 0.3867(3) -0.1833(3) -0.3883(3)
N3H N 0.3167(3) -0.1117(3) -0.3867(3)
N3K N 0.6133(3) 0.3167(3) -0.1117(3)
N4F N 0.1471(3) 0.2023(3) 0.0663(3)
N4J N 0.4337(3) -0.1471(3) -0.2977(3)
N4H N 0.3529(3) -0.2023(3) -0.4337(3)
N4K N 0.5663(3) 0.3529(3) -0.2023(3)
C10H C 0.3717(3) -0.2458(4) -0.4636(4)
C10J C 0.4636(4) -0.1283(3) -0.2542(4)
H6H H 0.4544 -0.0913 -0.2397
H6J H 0.2397 -0.0456 -0.4087
C11H C 0.3408(4) -0.2734(4) -0.5092(4)
C11J C 0.5092(4) -0.1592(4) -0.2266(4)
C12H C 0.2874(3) -0.2544(4) -0.5324(3)
C12J C 0.5324(3) -0.2126(3) -0.2456(4)
C13H C 0.5783(4) -0.2367(4) -0.2141(4)
C13J C 0.2141(4) 0.0783(4) -0.2633(4)
H7H H 0.5954 -0.2713 -0.2271
H7J H 0.2271 0.0954 -0.2287
C14H C 0.5986(4) -0.2111(5) -0.1650(4)
C14J C 0.1650(4) 0.0986(4) -0.2889(5)
H8H H 0.6276 -0.2296 -0.1432
H8J H 0.1432 0.1276 -0.2704
C15H C 0.5765(5) -0.1570(6) -0.1466(5)
C15J C 0.1466(5) 0.0765(5) -0.3430(6)
H9H H 0.5924 -0.1377 -0.1143
H9J H 0.1143 0.0924 -0.3623
C16H C 0.5318(5) -0.1337(5) -0.1766(4)
C16J C 0.1766(4) 0.0318(5) -0.3663(5)
H10H H 0.5154 -0.0989 -0.1632
H10J H 0.1632 0.0154 -0.4011
O4 O 0.1993(4) 0.1741(3) -0.1447(3)
N5 N 0.1135(5) 0.2221(4) -0.1519(5)
C17 C 0.1504(5) 0.1859(5) -0.1283(6)
H11 H 0.1376 0.1668 -0.0946
C18 C 0.1292(7) 0.2519(7) -0.2047(7)
H12 H 0.1672 0.2392 -0.2172
H13 H 0.1299 0.2934 -0.1977
H14 H 0.1009 0.2433 -0.2346
C19 C 0.0581(5) 0.2332(7) -0.1260(8)
H15 H 0.0535 0.2092 -0.0918
H16 H 0.0276 0.2242 -0.1536
H17 H 0.0556 0.2738 -0.1151
O5 O 0.2775(6) 0.2225(6) -0.2225(6)
N6 N 0.4609(13) 0.0391(13) -0.0391(13)
C20 C 0.4098(14) 0.015(2) -0.0662(17)
H18 H 0.4220 -0.0179 -0.0908
H19 H 0.3928 0.0440 -0.0917
C21 C 0.3631(12) -0.0069(18) -0.0259(17)
H20 H 0.3321 -0.0244 -0.0483
H21 H 0.3479 0.0254 -0.0036
H22 H 0.3793 -0.0355 0.0003
C20F C 0.4338(17) 0.0902(14) -0.015(2)
C20K C 0.485(2) 0.0662(17) -0.0902(14)
H18F H 0.4092 0.0780 0.0179
H18K H 0.5179 0.0908 -0.0780
H19F H 0.4083 0.1072 -0.0440
H19K H 0.4560 0.0917 -0.1072
C21F C 0.4741(17) 0.1369(12) 0.0069(18)
C21K C 0.5069(18) 0.0259(17) -0.1369(12)
H20F H 0.4517 0.1679 0.0244
H20K H 0.5244 0.0483 -0.1679
H21F H 0.4964 0.1521 -0.0254
H21K H 0.4746 0.0036 -0.1521
H22F H 0.5003 0.1207 0.0355
H22K H 0.5355 -0.0003 -0.1207
O2? O 0.3113(11) 0.1412(9) 0.0473(9)
loop_
_geom_bond_atom_site_label_1
_geom_bond_atom_site_label_2
_geom_bond_site_symmetry_1
_geom_bond_site_symmetry_2
Cu1 O1 1_555 1_555
O1 C4 1_555 1_555
N1 Cu1 1_555 1_555
N2 Cu1 1_555 1_555
C1 N1 1_555 1_555
C2 N2 1_555 1_555
H1 C2 1_555 1_555
C3 C2 1_555 1_555
C4 C3 1_555 1_555
C5 C4 1_555 1_555
H2 C5 1_555 1_555
C6 C5 1_555 1_555
H3 C6 1_555 1_555
C7 C6 1_555 1_555
H4 C7 1_555 1_555
C8 C3 1_555 1_555
H5 C8 1_555 1_555
Cu2 O1 1_555 1_555
Cl1 Cu2 1_555 1_555
O3 C12 1_555 1_555
N3 C9 1_555 1_555
N4 C10 1_555 1_555
C9 N3J 1_555 1_555
C10 C11 1_555 1_555
H6 C10H 1_555 1_555
C11 C12 1_555 1_555
C12 C13J 1_555 1_555
C13 H7 1_555 1_555
C14 C13 1_555 1_555
H8 C14 1_555 1_555
C15 C14 1_555 1_555
H9 C15 1_555 1_555
C16 C15 1_555 1_555
H10 C16 1_555 1_555
O4 C17 1_555 1_555
N5 C17 1_555 1_555
C17 H11 1_555 1_555
C18 N5 1_555 1_555
H12 C18 1_555 1_555
H13 C18 1_555 1_555
H14 C18 1_555 1_555
C19 N5 1_555 1_555
H15 C19 1_555 1_555
H16 C19 1_555 1_555
H17 C19 1_555 1_555
N6 C20 1_555 1_555
C20 H18 1_555 1_555
H19 C20 1_555 1_555
C21 C20 1_555 1_555
H20 C21 1_555 1_555
H21 C21 1_555 1_555
H22 C21 1_555 1_555
Cu1F O1F 1_555 1_555
Cu1K O3 1_555 1_555
Cu1G O3J 1_555 1_555
Cu1C O3H 1_555 1_555
O1F C4F 1_555 1_555
O1K Cu1K 1_555 1_555
N1F C1 1_555 1_555
N1K N2 1_555 1_555
N2F N1 1_555 1_555
N2K Cu1K 1_555 1_555
C2F N2F 1_555 1_555
C2K N2K 1_555 1_555
H1F C2F 1_555 1_555
H1K C2K 1_555 1_555
C3F C2F 1_555 1_555
C3K C2K 1_555 1_555
C4F C3F 1_555 1_555
C4K O1K 1_555 1_555
C5F C4F 1_555 1_555
C5K C4K 1_555 1_555
H2F C5F 1_555 1_555
H2K C5K 1_555 1_555
C6F C5F 1_555 1_555
C6K C5K 1_555 1_555
H3F C6F 1_555 1_555
H3K C6K 1_555 1_555
C7F C6F 1_555 1_555
C7K C6K 1_555 1_555
H4F C7F 1_555 1_555
H4K C7K 1_555 1_555
C8F C3F 1_555 1_555
C8K C3K 1_555 1_555
H5F C8F 1_555 1_555
H5K C8K 1_555 1_555
Cu2F O1F 1_555 1_555
Cu2K O3 1_555 1_555
Cu2G O3J 1_555 1_555
Cu2C O3H 1_555 1_555
Cl1F Cu2F 1_555 1_555
Cl1K Cu2K 1_555 1_555
O3K Cu1F 1_555 1_555
O3F Cu1 1_555 1_555
O3J C12J 1_555 1_555
O3H C12H 1_555 1_555
N3F Cu2 1_555 1_555
N3J Cu2G 1_555 1_555
N3H N4 1_555 1_555
N3K Cu2F 1_555 1_555
N4F Cu2 1_555 1_555
N4J N3 1_555 1_555
N4H Cu2C 1_555 1_555
N4K Cu2F 1_555 1_555
C10H N4H 1_555 1_555
C10J N4J 1_555 1_555
H6H C10J 1_555 1_555
H6J C10 1_555 1_555
C11H C16 1_555 1_555
C11J C10J 1_555 1_555
C12H C13 1_555 1_555
C12J C11J 1_555 1_555
C13H C12J 1_555 1_555
C13J H7J 1_555 1_555
H7H C13H 1_555 1_555
C14H C13H 1_555 1_555
C14J C13J 1_555 1_555
H8H C14H 1_555 1_555
H8J C14J 1_555 1_555
C15H C14H 1_555 1_555
C15J C14J 1_555 1_555
H9H C15H 1_555 1_555
H9J C15J 1_555 1_555
C16H C11J 1_555 1_555
C16J C11 1_555 1_555
H10H C16H 1_555 1_555
H10J C16J 1_555 1_555
C20F N6 1_555 1_555
C20K N6 1_555 1_555
H18F C20F 1_555 1_555
H18K C20K 1_555 1_555
H19F C20F 1_555 1_555
H19K C20K 1_555 1_555
C21F C20F 1_555 1_555
C21K C20K 1_555 1_555
H20F C21F 1_555 1_555
H20K C21K 1_555 1_555
H21F C21F 1_555 1_555
H21K C21K 1_555 1_555
H22F C21F 1_555 1_555
H22K C21K 1_555 1_555
C1 N1K 1_555 1_555
C7 C8 1_555 1_555
Cu2 O3F 1_555 1_555
N3 Cu2K 1_555 1_555
N4 Cu2K 1_555 1_555
C9 N3H 1_555 1_555
Cu1F N1F 1_555 1_555
Cu1F N2F 1_555 1_555
Cu1K N1K 1_555 1_555
O1K Cu2K 1_555 1_555
N1F N2K 1_555 1_555
C3K C4K 1_555 1_555
C7F C8F 1_555 1_555
C7K C8K 1_555 1_555
Cu2F O3K 1_555 1_555
Cu2G N4J 1_555 1_555
Cu2C N3H 1_555 1_555
N3J N4H 1_555 1_555
C10H C11H 1_555 1_555
C11H C12H 1_555 1_555
C15H C16H 1_555 1_555
C15J C16J 1_555 1_555

#END
