
#######################################################################
#
#                 Cambridge Crystallographic Data Centre
#                                CCDC 
#
#######################################################################
#
# If this CIF has been generated from an entry in the Cambridge 
# Structural Database, then it will include bibliographic, chemical, 
# crystal, experimental, refinement or atomic coordinate data resulting 
# from the CCDC's data processing and validation procedures.
#
#######################################################################

data_YAZYAA
_symmetry_cell_setting           triclinic
_symmetry_space_group_name_H-M   'P -1'
_symmetry_Int_Tables_number      2
_space_group_name_Hall           '-P 1'
loop_
_symmetry_equiv_pos_site_id
_symmetry_equiv_pos_as_xyz
1 x,y,z
2 -x,-y,-z
_cell_length_a                   13.933(5)
_cell_length_b                   14.171(3)
_cell_length_c                   17.069(6)
_cell_angle_alpha                102.18(3)
_cell_angle_beta                 108.00(3)
_cell_angle_gamma                92.24(3)
_cell_volume                     3113.31
loop_
_atom_site_label
_atom_site_type_symbol
_atom_site_fract_x
_atom_site_fract_y
_atom_site_fract_z
Ce1 Ce 0.232586(19) 0.786087(17) 0.020105(15)
Sr1 Sr 0.09711(4) 0.29952(3) -0.16707(4)
Sr2 Sr 0.56452(4) 0.77287(3) -0.14587(3)
C1 C 0.1433(4) 0.7850(4) -0.1872(3)
C2 C 0.0961(5) 0.7541(4) -0.2735(4)
H1 H 0.0842 0.7980 -0.3080
C3 C 0.0671(6) 0.6564(5) -0.3071(4)
H2 H 0.0360 0.6337 -0.3653
C4 C 0.0838(5) 0.5915(4) -0.2554(4)
H3 H 0.0640 0.5253 -0.2775
C5 C 0.1306(4) 0.6284(3) -0.1703(3)
C6 C 0.1579(4) 0.5674(3) -0.1057(3)
C7 C 0.1807(4) 0.8897(4) -0.1420(3)
C8 C 0.3723(4) 0.6940(3) 0.1812(3)
C9 C 0.4516(4) 0.6591(4) 0.2342(3)
H4 H 0.4474 0.6459 0.2842
C10 C 0.5366(4) 0.6444(4) 0.2116(4)
H5 H 0.5913 0.6217 0.2469
C11 C 0.5422(4) 0.6630(4) 0.1360(4)
H6 H 0.5988 0.6510 0.1190
C12 C 0.4593(4) 0.7002(3) 0.0871(3)
C13 C 0.4525(4) 0.7282(3) 0.0050(3)
C14 C 0.2723(4) 0.7102(4) 0.1968(3)
C15 C 0.0646(4) 0.9188(4) 0.0840(3)
C16 C 0.0229(5) 0.9929(5) 0.1257(5)
H7 H -0.0463 0.9886 0.1180
C17 C 0.0875(5) 1.0728(5) 0.1788(5)
H8 H 0.0617 1.1241 0.2066
C18 C 0.1901(5) 1.0772(4) 0.1909(4)
H9 H 0.2346 1.1294 0.2287
C19 C 0.2250(4) 1.0022(3) 0.1456(3)
C20 C 0.0060(4) 0.8232(5) 0.0302(4)
C21 C 0.3341(4) 0.9985(3) 0.1508(3)
N1 N 0.1585(3) 0.7233(3) -0.1366(2)
N2 N 0.3764(3) 0.7144(3) 0.1100(2)
N3 N 0.1628(3) 0.9248(3) 0.0934(2)
O1 O 0.2175(3) 0.9036(2) -0.0613(2)
O2 O 0.1719(4) 0.9523(3) -0.1825(3)
O3 O 0.1946(3) 0.6157(2) -0.0284(2)
O4 O 0.1450(3) 0.4793(3) -0.1283(3)
O5 O 0.2094(3) 0.7440(3) 0.1394(2)
O6 O 0.2584(4) 0.6942(4) 0.2598(3)
O7 O 0.3709(3) 0.7621(3) -0.0292(2)
O8 O 0.5241(3) 0.7179(3) -0.0227(2)
O9 O 0.0546(3) 0.7707(2) -0.0091(2)
O10 O -0.0789(3) 0.8010(4) 0.0328(4)
O11 O 0.3534(2) 0.9169(2) 0.1133(2)
O12 O 0.3960(3) 1.0695(2) 0.1885(2)
O13 O 0.2631(4) 0.3230(4) -0.0508(3)
H10 H 0.2727 0.3620 -0.0052
H11 H 0.2908 0.2756 -0.0382
O14 O -0.0203(3) 0.3885(3) -0.0935(3)
H12 H -0.0290 0.4449 -0.0944
H13 H -0.0738 0.3618 -0.0944
O15 O 0.1611(4) 0.1396(3) -0.2155(3)
H14 H 0.1973 0.1353 -0.2463
H15 H 0.1567 0.0853 -0.2066
O16 O -0.0653(4) 0.1878(4) -0.2206(4)
H16 H -0.1205 0.1883 -0.2091
H17 H -0.0783 0.1352 -0.2586
O17 O -0.0357(6) 0.3474(6) -0.3007(5)
H18 H -0.0218 0.3297 -0.3524
H19 H -0.0908 0.3368 -0.2908
O18 O 0.1961(4) 0.3280(4) -0.2640(3)
H20 H 0.2140 0.2951 -0.3016
H21 H 0.2108 0.3842 -0.2651
O19 O 0.7498(3) 0.7475(3) -0.1147(3)
H22 H 0.7993 0.7757 -0.0756
H23 H 0.7714 0.7175 -0.1515
O20 O 0.5673(4) 0.5851(3) -0.1712(3)
H24 H 0.5373 0.5491 -0.2177
H25 H 0.6214 0.5627 -0.1543
O21 O 0.6659(4) 0.8892(4) 0.0023(3)
H26 H 0.6366 0.8819 0.0357
H27 H 0.7057 0.9380 0.0252
O22 O 0.3769(5) 0.6899(6) -0.2299(5)
H28 H 0.3772 0.7153 -0.1726
H29 H 0.3623 0.6991 -0.2779
O23 O 0.5794(4) 0.7105(3) -0.2919(3)
H30 H 0.5581 0.6547 -0.3205
H31 H 0.5616 0.7343 -0.3339
O24 O 0.4268(4) 0.8801(4) -0.1230(4)
H32 H 0.4392 0.9426 -0.1121
H33 H 0.4034 0.8748 -0.0852
Sr1A Sr -0.09711(4) 0.70048(3) 0.16707(4)
Sr2A Sr 0.43548(4) 1.22713(3) 0.14587(3)
O10A O 0.0789(3) 0.1990(4) -0.0328(4)
O12A O 0.6040(3) 0.9305(2) -0.1885(2)
Ce2 Ce 0.71591(2) 0.753712(19) 0.507687(16)
C22 C 0.4922(4) 0.8536(4) 0.4592(3)
C23 C 0.4155(5) 0.9047(4) 0.4237(4)
H34 H 0.3602 0.9120 0.4432
C24 C 0.4222(5) 0.9453(5) 0.3580(4)
H35 H 0.3713 0.9804 0.3328
C25 C 0.5046(5) 0.9330(4) 0.3310(4)
H36 H 0.5114 0.9614 0.2883
C26 C 0.5773(4) 0.8783(3) 0.3677(3)
C27 C 0.6687(4) 0.8553(4) 0.3420(3)
C28 C 0.4979(5) 0.8100(4) 0.5335(4)
C29 C 0.9589(5) 0.7782(6) 0.5134(4)
C30 C 1.0577(7) 0.8206(7) 0.5282(5)
H37 H 1.1042 0.7852 0.5091
C31 C 1.0837(7) 0.9172(8) 0.5726(6)
H38 H 1.1493 0.9464 0.5849
C32 C 1.0150(7) 0.9693(7) 0.5981(5)
H39 H 1.0326 1.0338 0.6280
C33 C 0.9181(5) 0.9244(5) 0.5786(4)
C34 C 0.8314(6) 0.9727(4) 0.5978(4)
C35 C 0.9198(6) 0.6740(6) 0.4698(4)
C36 C 0.6304(4) 0.5202(4) 0.4919(3)
C37 C 0.6176(5) 0.4316(4) 0.5096(4)
H40 H 0.5756 0.3799 0.4688
C38 C 0.6698(6) 0.4216(5) 0.5910(4)
H41 H 0.6622 0.3627 0.6055
C39 C 0.7317(5) 0.4983(4) 0.6491(4)
H42 H 0.7677 0.4922 0.7033
C40 C 0.7402(4) 0.5848(4) 0.6264(3)
C41 C 0.8042(4) 0.6759(4) 0.6834(3)
C42 C 0.5798(5) 0.5431(4) 0.4070(3)
N4 N 0.5708(3) 0.8400(3) 0.4313(2)
N5 N 0.8934(4) 0.8309(4) 0.5379(3)
N6 N 0.6902(4) 0.5953(3) 0.5485(2)
O25 O 0.5794(3) 0.7706(3) 0.5615(2)
O26 O 0.4271(4) 0.8133(4) 0.5616(3)
O27 O 0.7274(3) 0.8030(3) 0.3836(2)
O28 O 0.6817(3) 0.8850(3) 0.2828(3)
O29 O 0.8293(4) 0.6518(3) 0.4655(3)
O30 O 0.9743(5) 0.6205(5) 0.4428(4)
O31 O 0.7482(3) 0.9175(3) 0.5731(3)
O32 O 0.8439(5) 1.0589(4) 0.6317(4)
O33 O 0.6021(3) 0.6310(3) 0.4040(2)
O34 O 0.5234(4) 0.4808(3) 0.3489(2)
O35 O 0.8058(3) 0.7465(3) 0.6462(2)
O36 O 0.8501(3) 0.6793(3) 0.7578(2)
O37 O 0.2893(9) 0.7487(15) 0.6334(9)
H43 H 0.2491 0.7067 0.5955
H44 H 0.3401 0.7784 0.6173
O38 O 0.9266(3) 0.5814(3) 0.8907(3)
H45 H 0.8996 0.6060 0.8512
H46 H 0.9593 0.6270 0.9294
O39 O 0.1591(7) 0.5581(7) 0.5229(8)
H47 H 0.1609 0.5109 0.5445
H48 H 0.0983 0.5681 0.5100
O40 O 0.5637(3) 0.9252(3) 0.1270(2)
H49 H 0.5912 0.9194 0.1754
H50 H 0.5028 0.9209 0.1202
O41 O 0.2513(4) 0.4811(3) 0.0769(3)
H51 H 0.2234 0.5184 0.0496
H52 H 0.2194 0.4399 0.0934
O42 O 0.2799(11) 0.5012(8) 0.7275(14)
H53 H 0.3282 0.5052 0.7074
H54 H 0.2822 0.5621 0.7345
loop_
_geom_bond_atom_site_label_1
_geom_bond_atom_site_label_2
_geom_bond_site_symmetry_1
_geom_bond_site_symmetry_2
Ce1 N1 1_555 1_555
Sr1 O4 1_555 1_555
Sr2 O8 1_555 1_555
C1 C2 1_555 1_555
C2 H1 1_555 1_555
C3 C2 1_555 1_555
H2 C3 1_555 1_555
C4 C3 1_555 1_555
H3 C4 1_555 1_555
C5 C4 1_555 1_555
C6 C5 1_555 1_555
C7 C1 1_555 1_555
C8 C9 1_555 1_555
C9 H4 1_555 1_555
C10 C9 1_555 1_555
H5 C10 1_555 1_555
C11 C10 1_555 1_555
H6 C11 1_555 1_555
C12 C11 1_555 1_555
C13 C12 1_555 1_555
C14 C8 1_555 1_555
C15 C16 1_555 1_555
C16 H7 1_555 1_555
C17 C16 1_555 1_555
H8 C17 1_555 1_555
C18 C17 1_555 1_555
H9 C18 1_555 1_555
C19 C18 1_555 1_555
C20 C15 1_555 1_555
C21 C19 1_555 1_555
N1 C1 1_555 1_555
N2 Ce1 1_555 1_555
N3 Ce1 1_555 1_555
O1 Ce1 1_555 1_555
O2 C7 1_555 1_555
O3 Ce1 1_555 1_555
O4 C6 1_555 1_555
O5 Ce1 1_555 1_555
O6 C14 1_555 1_555
O7 Ce1 1_555 1_555
O8 C13 1_555 1_555
O9 Ce1 1_555 1_555
O10 C20 1_555 1_555
O11 Ce1 1_555 1_555
O12 C21 1_555 1_555
O13 Sr1 1_555 1_555
H10 O13 1_555 1_555
H11 O13 1_555 1_555
O14 Sr1 1_555 1_555
H12 O14 1_555 1_555
H13 O14 1_555 1_555
O15 Sr1 1_555 1_555
H14 O15 1_555 1_555
H15 O15 1_555 1_555
O16 Sr1 1_555 1_555
H16 O16 1_555 1_555
H17 O16 1_555 1_555
O17 Sr1 1_555 1_555
H18 O17 1_555 1_555
H19 O17 1_555 1_555
O18 Sr1 1_555 1_555
H20 O18 1_555 1_555
H21 O18 1_555 1_555
O19 Sr2 1_555 1_555
H22 O19 1_555 1_555
H23 O19 1_555 1_555
O20 Sr2 1_555 1_555
H24 O20 1_555 1_555
H25 O20 1_555 1_555
O21 Sr2 1_555 1_555
H26 O21 1_555 1_555
H27 O21 1_555 1_555
O22 Sr2 1_555 1_555
H28 O22 1_555 1_555
H29 O22 1_555 1_555
O23 Sr2 1_555 1_555
H30 O23 1_555 1_555
H31 O23 1_555 1_555
O24 Sr2 1_555 1_555
H32 O24 1_555 1_555
H33 O24 1_555 1_555
Ce2 N4 1_555 1_555
C22 C23 1_555 1_555
C23 H34 1_555 1_555
C24 C23 1_555 1_555
H35 C24 1_555 1_555
C25 C24 1_555 1_555
H36 C25 1_555 1_555
C26 C25 1_555 1_555
C27 C26 1_555 1_555
C28 C22 1_555 1_555
C29 C30 1_555 1_555
C30 H37 1_555 1_555
C31 C30 1_555 1_555
H38 C31 1_555 1_555
C32 C31 1_555 1_555
H39 C32 1_555 1_555
C33 C32 1_555 1_555
C34 C33 1_555 1_555
C35 C29 1_555 1_555
C36 C37 1_555 1_555
C37 H40 1_555 1_555
C38 C37 1_555 1_555
H41 C38 1_555 1_555
C39 C38 1_555 1_555
H42 C39 1_555 1_555
C40 C39 1_555 1_555
C41 C40 1_555 1_555
C42 C36 1_555 1_555
N4 C22 1_555 1_555
N5 Ce2 1_555 1_555
N6 Ce2 1_555 1_555
O25 Ce2 1_555 1_555
O26 C28 1_555 1_555
O27 Ce2 1_555 1_555
O28 C27 1_555 1_555
O29 Ce2 1_555 1_555
O30 C35 1_555 1_555
O31 Ce2 1_555 1_555
O32 C34 1_555 1_555
O33 Ce2 1_555 1_555
O34 C42 1_555 1_555
O35 Ce2 1_555 1_555
O36 C41 1_555 1_555
O37 H43 1_555 1_555
H44 O37 1_555 1_555
O38 H45 1_555 1_555
H46 O38 1_555 1_555
O39 H47 1_555 1_555
H48 O39 1_555 1_555
O40 H49 1_555 1_555
H50 O40 1_555 1_555
O41 H51 1_555 1_555
H52 O41 1_555 1_555
O42 H53 1_555 1_555
H54 O42 1_555 1_555
Sr1A O10 1_555 1_555
Sr2A O12 1_555 1_555
O10A Sr1 1_555 1_555
O12A Sr2 1_555 1_555
C5 N1 1_555 1_555
C6 O3 1_555 1_555
C7 O1 1_555 1_555
C8 N2 1_555 1_555
C12 N2 1_555 1_555
C13 O7 1_555 1_555
C14 O5 1_555 1_555
C15 N3 1_555 1_555
C19 N3 1_555 1_555
C20 O9 1_555 1_555
C21 O11 1_555 1_555
C26 N4 1_555 1_555
C27 O27 1_555 1_555
C28 O25 1_555 1_555
C29 N5 1_555 1_555
C33 N5 1_555 1_555
C34 O31 1_555 1_555
C35 O29 1_555 1_555
C36 N6 1_555 1_555
C40 N6 1_555 1_555
C41 O35 1_555 1_555
C42 O33 1_555 1_555

#END
