
#######################################################################
#
#                 Cambridge Crystallographic Data Centre
#                                CCDC 
#
#######################################################################
#
# If this CIF has been generated from an entry in the Cambridge 
# Structural Database, then it will include bibliographic, chemical, 
# crystal, experimental, refinement or atomic coordinate data resulting 
# from the CCDC's data processing and validation procedures.
#
#######################################################################

data_YAZYOP
_symmetry_cell_setting           triclinic
_symmetry_space_group_name_H-M   'P -1'
_symmetry_Int_Tables_number      2
_space_group_name_Hall           '-P 1'
loop_
_symmetry_equiv_pos_site_id
_symmetry_equiv_pos_as_xyz
1 x,y,z
2 -x,-y,-z
_cell_length_a                   8.1061(15)
_cell_length_b                   9.9258(18)
_cell_length_c                   10.6687(19)
_cell_angle_alpha                76.061(2)
_cell_angle_beta                 74.789(2)
_cell_angle_gamma                74.686(2)
_cell_volume                     785.218
loop_
_atom_site_label
_atom_site_type_symbol
_atom_site_fract_x
_atom_site_fract_y
_atom_site_fract_z
Nd1 Nd 0.54325(2) 0.303462(18) 0.144966(16)
O1 O 0.7301(4) 0.2218(3) -0.0598(3)
O2 O 0.6095(3) 0.4459(3) -0.1070(3)
O3 O 1.2819(3) 0.2925(3) -0.6880(3)
O4 O 1.0429(3) 0.3810(3) -0.7687(3)
O5 O 0.5607(4) 0.4656(4) -0.3756(4)
H1 H 0.5208 0.4793 -0.2996
O6 O 1.2647(3) 0.2149(3) -0.4369(3)
H2 H 1.3135 0.2202 -0.5151
O7 O 0.6180(3) 0.2022(3) 0.3636(3)
O8 O 0.8314(3) 0.1517(3) 0.1960(3)
O9 O 0.6494(3) 0.0900(3) 0.6021(3)
H3 H 0.5955 0.1235 0.5426
O10 O 0.5314(4) 0.0495(3) 0.1717(3)
H4 H 0.6180 -0.0152 0.1617
H5 H 0.4818 0.0104 0.2432
O11 O 0.2993(3) 0.3010(3) 0.0336(3)
H6 H 0.2114 0.3157 0.0920
H7 H 0.2893 0.2275 0.0167
O12 O 0.7354(4) 0.4553(4) 0.1503(4)
H8 H 0.7132 0.5364 0.1085
H9 H 0.8252 0.4258 0.1793
C1 C 0.8124(5) 0.3377(4) -0.2815(4)
C2 C 0.7362(4) 0.4026(4) -0.3900(4)
C3 C 0.8361(4) 0.3999(4) -0.5147(4)
H10 H 0.7839 0.4405 -0.5868
C4 C 1.0145(4) 0.3380(4) -0.5366(3)
C5 C 1.0916(4) 0.2760(4) -0.4266(4)
C6 C 0.9887(5) 0.2733(4) -0.3005(4)
H11 H 1.0382 0.2278 -0.2278
C7 C 0.7116(4) 0.3343(4) -0.1428(3)
C8 C 1.1180(4) 0.3384(4) -0.6739(4)
C9 C 0.8216(4) 0.0468(4) 0.5493(4)
C10 C 0.8900(5) 0.0683(4) 0.4125(4)
C11 C 1.0673(4) 0.0212(4) 0.3659(4)
H12 H 1.1125 0.0358 0.2753
C12 C 0.7761(4) 0.1431(4) 0.3178(4)
Nd1A Nd 0.45675(2) 0.696538(18) -0.144966(16)
Nd1_2 Nd 1.54325(2) 0.303462(18) -0.855034(16)
Nd1A_2 Nd 1.45675(2) -0.303462(18) 0.855034(16)
Nd1A_3 Nd -0.54325(2) 0.696538(18) 0.855034(16)
O1A O 0.2699(4) 0.7782(3) 0.0598(3)
O2A O 0.3905(3) 0.5541(3) 0.1070(3)
O3A O -0.2819(3) 0.7075(3) 0.6880(3)
O3_2 O 0.2819(3) 0.2925(3) 0.3120(3)
O3A_2 O 0.7181(3) 0.7075(3) -0.3120(3)
O4A O -0.0429(3) 0.6190(3) 0.7687(3)
O5A O 0.4393(4) 0.5344(4) 0.3756(4)
H1A H 0.4792 0.5207 0.2996
O6A O -0.2647(3) 0.7851(3) 0.4369(3)
H2A H -0.3135 0.7798 0.5151
O7A O 1.3820(3) -0.2022(3) 0.6364(3)
O7A_2 O 0.3820(3) 0.7978(3) -0.3636(3)
O8A O 1.1686(3) -0.1517(3) 0.8040(3)
O8A_2 O 0.1686(3) 0.8483(3) -0.1960(3)
O9A O 1.3506(3) -0.0900(3) 0.3979(3)
H3A H 1.4045 -0.1235 0.4574
O10A O 0.4686(4) 0.9505(3) -0.1717(3)
H4A H 0.3820 1.0152 -0.1617
H5A H 0.5182 0.9896 -0.2432
O11A O 0.7007(3) 0.6990(3) -0.0336(3)
H6A H 0.7886 0.6843 -0.0920
H7A H 0.7107 0.7725 -0.0167
O12A O 0.2646(4) 0.5447(4) -0.1503(4)
H8A H 0.2868 0.4636 -0.1085
H9A H 0.1748 0.5742 -0.1793
C1A C 0.1876(5) 0.6623(4) 0.2815(4)
C2A C 0.2638(4) 0.5974(4) 0.3900(4)
C3A C 0.1639(4) 0.6001(4) 0.5147(4)
H10A H 0.2161 0.5595 0.5868
C4A C -0.0145(4) 0.6620(4) 0.5366(3)
C5A C -0.0916(4) 0.7240(4) 0.4266(4)
C6A C 0.0113(5) 0.7267(4) 0.3005(4)
H11A H -0.0382 0.7722 0.2278
C7A C 0.2884(4) 0.6657(4) 0.1428(3)
C8A C -0.1180(4) 0.6616(4) 0.6739(4)
C9A C 1.1784(4) -0.0468(4) 0.4507(4)
C10A C 1.1100(5) -0.0683(4) 0.5875(4)
C11A C 0.9327(4) -0.0212(4) 0.6341(4)
H12A H 0.8875 -0.0358 0.7247
C12A C 1.2239(4) -0.1431(4) 0.6822(4)
O13 O 0.1624(4) 0.0774(3) 0.0130(3)
H13 H 0.0689 0.1156 0.0552
H14 H 0.1978 -0.0091 0.0284
loop_
_geom_bond_atom_site_label_1
_geom_bond_atom_site_label_2
_geom_bond_site_symmetry_1
_geom_bond_site_symmetry_2
Nd1 O1 1_555 1_555
O1 C7 1_555 1_555
O2 Nd1 1_555 1_555
O3 C8 1_555 1_555
O4 C8 1_555 1_555
O5 H1 1_555 1_555
O6 H2 1_555 1_555
O7 Nd1 1_555 1_555
O8 Nd1 1_555 1_555
O9 H3 1_555 1_555
O10 Nd1 1_555 1_555
H4 O10 1_555 1_555
H5 O10 1_555 1_555
O11 Nd1 1_555 1_555
H6 O11 1_555 1_555
H7 O11 1_555 1_555
O12 Nd1 1_555 1_555
H8 O12 1_555 1_555
H9 O12 1_555 1_555
C1 C2 1_555 1_555
C2 O5 1_555 1_555
C3 C2 1_555 1_555
H10 C3 1_555 1_555
C4 C3 1_555 1_555
C5 O6 1_555 1_555
C6 C1 1_555 1_555
H11 C6 1_555 1_555
C7 O2 1_555 1_555
C8 C4 1_555 1_555
C9 O9 1_555 1_555
C10 C9 1_555 1_555
C11 C10 1_555 1_555
H12 C11 1_555 1_555
C12 O7 1_555 1_555
O13 H13 1_555 1_555
H14 O13 1_555 1_555
Nd1A O2 1_555 1_555
Nd1_2 O3 1_555 1_555
Nd1A_2 O7A 1_555 1_555
Nd1A_3 O3A 1_555 1_555
O1A Nd1A 1_555 1_555
O2A Nd1 1_555 1_555
O3A C8A 1_555 1_555
O3_2 Nd1 1_555 1_555
O3A_2 Nd1A 1_555 1_555
O4A C8A 1_555 1_555
O5A H1A 1_555 1_555
O6A H2A 1_555 1_555
O7A C12A 1_555 1_555
O7A_2 Nd1A 1_555 1_555
O8A Nd1A_2 1_555 1_555
O8A_2 Nd1A 1_555 1_555
O9A H3A 1_555 1_555
O10A Nd1A 1_555 1_555
H4A O10A 1_555 1_555
H5A O10A 1_555 1_555
O11A Nd1A 1_555 1_555
H6A O11A 1_555 1_555
H7A O11A 1_555 1_555
O12A Nd1A 1_555 1_555
H8A O12A 1_555 1_555
H9A O12A 1_555 1_555
C1A C2A 1_555 1_555
C2A O5A 1_555 1_555
C3A C2A 1_555 1_555
H10A C3A 1_555 1_555
C4A C3A 1_555 1_555
C5A O6A 1_555 1_555
C6A C1A 1_555 1_555
H11A C6A 1_555 1_555
C7A O1A 1_555 1_555
C8A C4A 1_555 1_555
C9A C11 1_555 1_555
C10A C9A 1_555 1_555
C11A C9 1_555 1_555
H12A C11A 1_555 1_555
C12A O8A 1_555 1_555
O8 C12 1_555 1_555
C1 C7 1_555 1_555
C4 C5 1_555 1_555
C5 C6 1_555 1_555
C10 C12 1_555 1_555
Nd1A O2A 1_555 1_555
O2A C7A 1_555 1_555
O9A C9A 1_555 1_555
C1A C7A 1_555 1_555
C4A C5A 1_555 1_555
C5A C6A 1_555 1_555
C10A C11A 1_555 1_555
C10A C12A 1_555 1_555

#END
