
#######################################################################
#
#                 Cambridge Crystallographic Data Centre
#                                CCDC 
#
#######################################################################
#
# If this CIF has been generated from an entry in the Cambridge 
# Structural Database, then it will include bibliographic, chemical, 
# crystal, experimental, refinement or atomic coordinate data resulting 
# from the CCDC's data processing and validation procedures.
#
#######################################################################

data_YEBFIV
_symmetry_cell_setting           monoclinic
_symmetry_space_group_name_H-M   'P 21/n'
_symmetry_Int_Tables_number      14
_space_group_name_Hall           '-P 2yn'
loop_
_symmetry_equiv_pos_site_id
_symmetry_equiv_pos_as_xyz
1 x,y,z
2 1/2-x,1/2+y,1/2-z
3 -x,-y,-z
4 1/2+x,1/2-y,1/2+z
_cell_length_a                   12.112(3)
_cell_length_b                   12.420(3)
_cell_length_c                   19.217(4)
_cell_angle_alpha                90
_cell_angle_beta                 104.611(4)
_cell_angle_gamma                90
_cell_volume                     2797.35
loop_
_atom_site_label
_atom_site_type_symbol
_atom_site_fract_x
_atom_site_fract_y
_atom_site_fract_z
Cu1 Cu 0.53974(5) 0.05020(4) 0.11032(3)
Cu2 Cu 0.70259(5) 0.15591(4) -0.03036(3)
C1 C 0.3651(5) 0.1033(5) 0.1993(3)
H1 H 0.3746 0.0326 0.2156
C2 C 0.2948(5) 0.1677(5) 0.2251(3)
H2 H 0.2575 0.1425 0.2587
C3 C 0.2802(6) 0.2720(6) 0.2001(4)
H3 H 0.2318 0.3182 0.2164
C4 C 0.3364(5) 0.3075(5) 0.1514(3)
H4 H 0.3268 0.3778 0.1341
C5 C 0.4074(4) 0.2376(4) 0.1283(3)
C6 C 0.4733(4) 0.2664(4) 0.0772(3)
C7 C 0.4783(5) 0.3560(4) 0.0359(3)
H5 H 0.4380 0.4200 0.0343
C8 C 0.5557(5) 0.3296(4) -0.0023(3)
H6 H 0.5773 0.3745 -0.0352
C9 C 0.7565(5) 0.1210(5) 0.2477(3)
H7 H 0.7696 0.1774 0.2190
C10 C 0.8268(5) 0.1117(5) 0.3149(3)
H8 H 0.8852 0.1609 0.3318
C11 C 0.8091(6) 0.0284(5) 0.3564(3)
H9 H 0.8556 0.0196 0.4026
C12 C 0.7215(5) -0.0430(5) 0.3296(3)
H10 H 0.7086 -0.1008 0.3573
C13 C 0.6535(4) -0.0278(4) 0.2613(3)
C14 C 0.5597(4) -0.0995(4) 0.2274(2)
C15 C 0.5122(4) -0.1885(4) 0.2519(3)
H11 H 0.5335 -0.2203 0.2971
C16 C 0.4263(4) -0.2191(4) 0.1939(3)
H12 H 0.3787 -0.2778 0.1939
C17 C 0.8808(5) 0.1117(5) -0.1131(3)
H13 H 0.8684 0.1822 -0.1295
C18 C 0.9597(5) 0.0516(5) -0.1358(3)
H14 H 0.9997 0.0809 -0.1667
C19 C 0.9789(5) -0.0533(5) -0.1121(3)
H15 H 1.0325 -0.0960 -0.1263
C20 C 0.9166(5) -0.0930(5) -0.0668(3)
H16 H 0.9270 -0.1638 -0.0507
C21 C 0.8390(4) -0.0279(4) -0.0454(3)
C22 C 0.7684(4) -0.0600(4) 0.0017(3)
C23 C 0.7588(5) -0.1529(4) 0.0387(3)
H17 H 0.7985 -0.2171 0.0391
C24 C 0.6781(5) -0.1299(4) 0.0750(3)
H18 H 0.6540 -0.1774 0.1055
C25 C 0.8543(4) 0.3167(4) 0.0085(3)
C26 C 0.9166(5) 0.4710(4) -0.0587(3)
H19 H 0.8602 0.4516 -0.0993
C27 C 0.9289(4) 0.4132(4) 0.0034(3)
C28 C 1.0142(5) 0.4428(4) 0.0622(3)
H20 H 1.0251 0.4040 0.1047
N1 N 0.4225(4) 0.1354(3) 0.1512(2)
N2 N 0.5443(3) 0.1908(3) 0.0641(2)
N3 N 0.5957(3) 0.2302(3) 0.0146(2)
N4 N 0.6705(4) 0.0549(3) 0.2206(2)
N5 N 0.5033(3) -0.0802(3) 0.1586(2)
N6 N 0.5804(3) 0.1542(3) -0.1375(2)
N7 N 0.8211(3) 0.0750(3) -0.0691(2)
N8 N 0.6950(3) 0.0133(3) 0.0146(2)
N9 N 0.6383(3) -0.0295(3) 0.0604(2)
O1 O 0.7753(3) 0.2964(2) -0.04774(17)
O2 O 0.8734(3) 0.2639(3) 0.06431(18)
Cu1B Cu 0.46026(5) -0.05020(4) -0.11032(3)
Cu2B Cu 0.29741(5) -0.15591(4) 0.03036(3)
Cu2B_2 Cu 1.29741(5) 0.84409(4) 0.03036(3)
C1B C 0.6349(5) -0.1033(5) -0.1993(3)
H1B H 0.6254 -0.0326 -0.2156
C2B C 0.7052(5) -0.1677(5) -0.2251(3)
H2B H 0.7425 -0.1425 -0.2587
C3B C 0.7198(6) -0.2720(6) -0.2001(4)
H3B H 0.7682 -0.3182 -0.2164
C4B C 0.6636(5) -0.3075(5) -0.1514(3)
H4B H 0.6732 -0.3778 -0.1341
C5B C 0.5926(4) -0.2376(4) -0.1283(3)
C6B C 0.5267(4) -0.2664(4) -0.0772(3)
C7B C 0.5217(5) -0.3560(4) -0.0359(3)
H5B H 0.5620 -0.4200 -0.0343
C8B C 0.4443(5) -0.3296(4) 0.0023(3)
H6B H 0.4227 -0.3745 0.0352
C9B C 0.2435(5) -0.1210(5) -0.2477(3)
H7B H 0.2304 -0.1774 -0.2190
C10B C 0.1732(5) -0.1117(5) -0.3149(3)
H8B H 0.1148 -0.1609 -0.3318
C11B C 0.1909(6) -0.0284(5) -0.3564(3)
H9B H 0.1444 -0.0196 -0.4026
C12B C 0.2785(5) 0.0430(5) -0.3296(3)
H10B H 0.2914 0.1008 -0.3573
C13B C 0.3465(4) 0.0278(4) -0.2613(3)
C14B C 0.4403(4) 0.0995(4) -0.2274(2)
C15B C 0.4878(4) 0.1885(4) -0.2519(3)
H11B H 0.4665 0.2203 -0.2971
C16B C 0.5737(4) 0.2191(4) -0.1939(3)
H12B H 0.6213 0.2778 -0.1939
C17B C 0.1192(5) -0.1117(5) 0.1131(3)
H13B H 0.1316 -0.1822 0.1295
C18B C 0.0403(5) -0.0516(5) 0.1358(3)
H14B H 0.0003 -0.0809 0.1667
C19B C 0.0211(5) 0.0533(5) 0.1121(3)
H15B H -0.0325 0.0960 0.1263
C20B C 0.0834(5) 0.0930(5) 0.0668(3)
H16B H 0.0730 0.1638 0.0507
C21B C 0.1610(4) 0.0279(4) 0.0454(3)
C22B C 0.2316(4) 0.0600(4) -0.0017(3)
C23B C 0.2412(5) 0.1529(4) -0.0387(3)
H17B H 0.2015 0.2171 -0.0391
C24B C 0.3219(5) 0.1299(4) -0.0750(3)
H18B H 0.3460 0.1774 -0.1055
C25B C 1.1457(4) 0.6833(4) -0.0085(3)
C26B C 1.0834(5) 0.5290(4) 0.0587(3)
H19B H 1.1398 0.5484 0.0993
C27B C 1.0711(4) 0.5868(4) -0.0034(3)
C28B C 0.9858(5) 0.5572(4) -0.0622(3)
H20B H 0.9749 0.5960 -0.1047
N1B N 0.5775(4) -0.1354(3) -0.1512(2)
N2B N 0.4557(3) -0.1908(3) -0.0641(2)
N3B N 0.4043(3) -0.2302(3) -0.0146(2)
N4B N 0.3295(4) -0.0549(3) -0.2206(2)
N5B N 0.4967(3) 0.0802(3) -0.1586(2)
N6B N 0.4196(3) -0.1542(3) 0.1375(2)
N7B N 0.1789(3) -0.0750(3) 0.0691(2)
N8B N 0.3050(3) -0.0133(3) -0.0146(2)
N9B N 0.3617(3) 0.0295(3) -0.0604(2)
O1B O 1.2247(3) 0.7036(2) 0.04774(17)
O1B_2 O 0.2247(3) -0.2964(2) 0.04774(17)
O2B O 1.1266(3) 0.7361(3) -0.06431(18)
loop_
_geom_bond_atom_site_label_1
_geom_bond_atom_site_label_2
_geom_bond_site_symmetry_1
_geom_bond_site_symmetry_2
Cu1 N1 1_555 1_555
Cu2 N3 1_555 1_555
C1 H1 1_555 1_555
C2 C1 1_555 1_555
H2 C2 1_555 1_555
C3 C2 1_555 1_555
H3 C3 1_555 1_555
C4 C3 1_555 1_555
H4 C4 1_555 1_555
C5 C4 1_555 1_555
C6 C5 1_555 1_555
C7 C6 1_555 1_555
H5 C7 1_555 1_555
C8 C7 1_555 1_555
H6 C8 1_555 1_555
C9 H7 1_555 1_555
C10 C9 1_555 1_555
H8 C10 1_555 1_555
C11 C10 1_555 1_555
H9 C11 1_555 1_555
C12 C11 1_555 1_555
H10 C12 1_555 1_555
C13 C12 1_555 1_555
C14 C13 1_555 1_555
C15 C14 1_555 1_555
H11 C15 1_555 1_555
C16 C15 1_555 1_555
H12 C16 1_555 1_555
C17 H13 1_555 1_555
C18 C17 1_555 1_555
H14 C18 1_555 1_555
C19 C18 1_555 1_555
H15 C19 1_555 1_555
C20 C19 1_555 1_555
H16 C20 1_555 1_555
C21 C20 1_555 1_555
C22 C21 1_555 1_555
C23 C22 1_555 1_555
H17 C23 1_555 1_555
C24 C23 1_555 1_555
H18 C24 1_555 1_555
C25 C27 1_555 1_555
C26 H19 1_555 1_555
C27 C26 1_555 1_555
C28 C27 1_555 1_555
H20 C28 1_555 1_555
N1 C1 1_555 1_555
N2 Cu1 1_555 1_555
N3 C8 1_555 1_555
N4 Cu1 1_555 1_555
N5 Cu1 1_555 1_555
N6 Cu2 1_555 1_555
N7 Cu2 1_555 1_555
N8 Cu2 1_555 1_555
N9 Cu1 1_555 1_555
O1 Cu2 1_555 1_555
O2 C25 1_555 1_555
Cu1B N1B 1_555 1_555
Cu2B N3B 1_555 1_555
Cu2B_2 O1B 1_555 1_555
C1B H1B 1_555 1_555
C2B C1B 1_555 1_555
H2B C2B 1_555 1_555
C3B C2B 1_555 1_555
H3B C3B 1_555 1_555
C4B C3B 1_555 1_555
H4B C4B 1_555 1_555
C5B C4B 1_555 1_555
C6B C5B 1_555 1_555
C7B C6B 1_555 1_555
H5B C7B 1_555 1_555
C8B C7B 1_555 1_555
H6B C8B 1_555 1_555
C9B H7B 1_555 1_555
C10B C9B 1_555 1_555
H8B C10B 1_555 1_555
C11B C10B 1_555 1_555
H9B C11B 1_555 1_555
C12B C11B 1_555 1_555
H10B C12B 1_555 1_555
C13B C12B 1_555 1_555
C14B C13B 1_555 1_555
C15B C14B 1_555 1_555
H11B C15B 1_555 1_555
C16B N6 1_555 1_555
H12B C16B 1_555 1_555
C17B H13B 1_555 1_555
C18B C17B 1_555 1_555
H14B C18B 1_555 1_555
C19B C18B 1_555 1_555
H15B C19B 1_555 1_555
C20B C19B 1_555 1_555
H16B C20B 1_555 1_555
C21B C20B 1_555 1_555
C22B C21B 1_555 1_555
C23B C22B 1_555 1_555
H17B C23B 1_555 1_555
C24B C23B 1_555 1_555
H18B C24B 1_555 1_555
C25B C27B 1_555 1_555
C26B C28 1_555 1_555
H19B C26B 1_555 1_555
C27B C26B 1_555 1_555
C28B C26 1_555 1_555
H20B C28B 1_555 1_555
N1B C1B 1_555 1_555
N2B Cu1B 1_555 1_555
N3B C8B 1_555 1_555
N4B Cu1B 1_555 1_555
N5B N6 1_555 1_555
N6B C16 1_555 1_555
N7B Cu2B 1_555 1_555
N8B Cu2B 1_555 1_555
N9B Cu1B 1_555 1_555
O1B C25B 1_555 1_555
O1B_2 Cu2B 1_555 1_555
O2B C25B 1_555 1_555
C5 N1 1_555 1_555
C6 N2 1_555 1_555
C9 N4 1_555 1_555
C13 N4 1_555 1_555
C14 N5 1_555 1_555
C17 N7 1_555 1_555
C21 N7 1_555 1_555
C22 N8 1_555 1_555
C24 N9 1_555 1_555
C25 O1 1_555 1_555
N2 N3 1_555 1_555
N5 N6B 1_555 1_555
N8 N9 1_555 1_555
Cu1B N5B 1_555 1_555
Cu2B N6B 1_555 1_555
C5B N1B 1_555 1_555
C6B N2B 1_555 1_555
C9B N4B 1_555 1_555
C13B N4B 1_555 1_555
C14B N5B 1_555 1_555
C15B C16B 1_555 1_555
C17B N7B 1_555 1_555
C21B N7B 1_555 1_555
C22B N8B 1_555 1_555
C24B N9B 1_555 1_555
C27B C28B 1_555 1_555
N2B N3B 1_555 1_555
N8B N9B 1_555 1_555

#END
