
#######################################################################
#
#                 Cambridge Crystallographic Data Centre
#                                CCDC 
#
#######################################################################
#
# If this CIF has been generated from an entry in the Cambridge 
# Structural Database, then it will include bibliographic, chemical, 
# crystal, experimental, refinement or atomic coordinate data resulting 
# from the CCDC's data processing and validation procedures.
#
#######################################################################

data_YEBFER
_symmetry_cell_setting           monoclinic
_symmetry_space_group_name_H-M   'C 2/c'
_symmetry_Int_Tables_number      15
_space_group_name_Hall           '-C 2yn'
loop_
_symmetry_equiv_pos_site_id
_symmetry_equiv_pos_as_xyz
1 x,y,z
2 1/2+x,1/2+y,z
3 -x,y,1/2-z
4 1/2-x,1/2+y,1/2-z
5 -x,-y,-z
6 1/2-x,1/2-y,-z
7 x,-y,1/2+z
8 1/2+x,1/2-y,1/2+z
_cell_length_a                   19.674(6)
_cell_length_b                   12.787(4)
_cell_length_c                   21.570(7)
_cell_angle_alpha                90
_cell_angle_beta                 97.964(5)
_cell_angle_gamma                90
_cell_volume                     5374.06
loop_
_atom_site_label
_atom_site_type_symbol
_atom_site_fract_x
_atom_site_fract_y
_atom_site_fract_z
C1 C -0.2166(3) 0.5295(3) 0.1464(2)
H1 H -0.1692 0.5289 0.1470
C2 C -0.2433(3) 0.5762(3) 0.1949(2)
H2 H -0.2854 -0.1076 -0.2276
C3 C -0.3130(3) 0.5756(4) 0.1944(2)
H3 H -0.1680 -0.1058 -0.2273
C4 C -0.3549(3) 0.5310(3) 0.1456(2)
H4 H -0.0977 -0.0302 -0.1448
C5 C -0.3246(2) 0.4865(3) 0.0972(2)
C6 C -0.3631(2) 0.4392(3) 0.0418(2)
C7 C -0.4316(2) 0.4204(4) 0.0230(2)
H5 H -0.0318 0.0632 -0.0443
C8 C -0.4338(2) 0.3724(4) -0.0336(2)
H6 H -0.0263 0.1496 0.0584
C9 C -0.2111(3) 0.6524(4) -0.0414(2)
H7 H -0.2570 0.6459 -0.0584
C10 C -0.1765(3) 0.7420(4) -0.0527(2)
H8 H -0.1987 0.7954 -0.0768
C11 C -0.1093(3) 0.7519(4) -0.0283(3)
H9 H -0.0852 0.8120 -0.0360
C12 C -0.0772(3) 0.6727(4) 0.0077(2)
H10 H -0.0312 0.6784 0.0247
C13 C -0.1149(2) 0.5838(3) 0.0180(2)
C14 C -0.0872(2) 0.4956(3) 0.05686(19)
C15 C -0.0253(2) 0.4771(4) 0.0932(2)
H11 H 0.0135 0.5196 0.0983
C16 C -0.0338(3) 0.3808(4) 0.1205(2)
H12 H -0.0004 0.3469 0.1481
C17 C -0.3593(3) 0.1743(4) -0.2466(2)
H13 H -0.4066 0.1789 -0.2471
C18 C -0.3348(4) 0.1251(5) -0.2952(2)
H14 H -0.3648 0.0957 -0.3276
C19 C -0.2651(4) 0.1200(4) -0.2952(2)
H15 H -0.2472 0.0864 -0.3276
C20 C -0.2219(3) 0.1650(4) -0.2469(2)
H16 H -0.1746 0.1634 -0.2466
C21 C -0.2501(3) 0.2125(3) -0.19907(19)
C22 C -0.2097(2) 0.2631(3) -0.14463(19)
C23 C -0.1412(2) 0.2824(3) -0.1278(2)
H17 H -0.1052 0.2657 -0.1497
C24 C -0.1380(2) 0.3320(3) -0.0712(2)
H18 H -0.0977 0.3555 -0.0477
C25 C -0.5458(3) 0.4312(4) -0.3113(2)
C26 C -0.5428(2) 0.5479(4) -0.29877(19)
C27 C -0.5000 0.5986(4) -0.2500
C28 C -0.5000 0.7105(6) -0.2500
C29 C -0.5424(4) 0.7648(5) -0.2968(4)
H19 H -0.5425 0.8375 -0.2961
C30 C -0.5822(5) 0.7152(8) -0.3420(4)
H20 H -0.6095 0.7528 -0.3729
C31 C -0.5828(3) 0.6073(6) -0.3429(3)
H21 H -0.6114 0.5733 -0.3746
Cu1 Cu -0.22575(2) 0.41457(4) 0.02011(2)
Cu2 Cu -0.34851(3) 0.28809(4) -0.12291(2)
N1 N -0.25632(18) 0.4845(2) 0.09792(15)
N2 N -0.32595(17) 0.4034(2) -0.00130(16)
N3 N -0.37034(18) 0.3615(3) -0.04835(16)
N4 N -0.18113(18) 0.5741(3) -0.00664(16)
N5 N -0.12948(17) 0.4139(3) 0.06254(15)
N6 N -0.09649(18) 0.3435(3) 0.10180(16)
N7 N -0.3180(2) 0.2163(3) -0.19810(16)
N8 N -0.24544(17) 0.2991(2) -0.10056(15)
N9 N -0.20053(17) 0.3420(3) -0.05436(15)
O1 O -0.6064(2) 0.3954(3) -0.31731(17)
O2 O -0.4934(2) 0.3851(3) -0.31918(17)
C1E C -0.2834(3) -0.0295(3) -0.1464(2)
H1E H -0.3308 -0.0289 -0.1470
C2E C -0.2567(3) -0.0762(3) -0.1949(2)
H2E H -0.2146 0.6076 0.2276
C3E C -0.1870(3) -0.0756(4) -0.1944(2)
H3E H -0.3320 0.6058 0.2273
C4E C -0.1451(3) -0.0310(3) -0.1456(2)
H4E H -0.4023 0.5302 0.1448
C5E C -0.1754(2) 0.0135(3) -0.0972(2)
C6E C -0.1369(2) 0.0608(3) -0.0418(2)
C7E C -0.0684(2) 0.0796(4) -0.0230(2)
H5E H -0.4682 0.4368 0.0443
C8E C -0.0662(2) 0.1276(4) 0.0336(2)
H6E H -0.4737 0.3504 -0.0584
C9E C -0.2889(3) -0.1524(4) 0.0414(2)
H7E H -0.2430 -0.1459 0.0584
C10E C -0.3235(3) -0.2420(4) 0.0527(2)
H8E H -0.3013 -0.2954 0.0768
C11E C -0.3907(3) -0.2519(4) 0.0283(3)
H9E H -0.4148 -0.3120 0.0360
C12E C -0.4228(3) -0.1727(4) -0.0077(2)
H10E H -0.4688 -0.1784 -0.0247
C13E C -0.3851(2) -0.0838(3) -0.0180(2)
C14E C -0.4128(2) 0.0044(3) -0.05686(19)
C15E C -0.4747(2) 0.0229(4) -0.0932(2)
H11E H -0.5135 -0.0196 -0.0983
C16E C -0.4662(3) 0.1192(4) -0.1205(2)
H12E H -0.4996 0.1531 -0.1481
C17E C -0.1407(3) 0.3257(4) 0.2466(2)
H13E H -0.0934 0.3211 0.2471
C18E C -0.1652(4) 0.3749(5) 0.2952(2)
H14E H -0.1352 0.4043 0.3276
C19E C -0.2349(4) 0.3800(4) 0.2952(2)
H15E H -0.2528 0.4136 0.3276
C20E C -0.2781(3) 0.3350(4) 0.2469(2)
H16E H -0.3254 0.3366 0.2466
C21E C -0.2499(3) 0.2875(3) 0.19907(19)
C22E C -0.2903(2) 0.2369(3) 0.14463(19)
C23E C -0.3588(2) 0.2176(3) 0.1278(2)
H17E H -0.3948 0.2343 0.1497
C24E C -0.3620(2) 0.1680(3) 0.0712(2)
H18E H -0.4023 0.1445 0.0477
C25B C -0.4542(3) 0.4312(4) -0.1887(2)
C26B C -0.4572(2) 0.5479(4) -0.20123(19)
C29B C -0.4576(4) 0.7648(5) -0.2032(4)
H19B H -0.4575 0.8375 -0.2039
C30B C -0.4178(5) 0.7152(8) -0.1580(4)
H20B H -0.3905 0.7528 -0.1271
C31B C -0.4172(3) 0.6073(6) -0.1571(3)
H21B H -0.3886 0.5733 -0.1254
Cu1E Cu -0.27425(2) 0.08543(4) -0.02011(2)
Cu2B Cu -0.65149(3) 0.28809(4) -0.37709(2)
Cu2E Cu -0.15149(3) 0.21191(4) 0.12291(2)
N1E N -0.24368(18) 0.0155(2) -0.09792(15)
N2E N -0.17405(17) 0.0966(2) 0.00130(16)
N3E N -0.12966(18) 0.1385(3) 0.04835(16)
N4E N -0.31887(18) -0.0741(3) 0.00664(16)
N5E N -0.37052(17) 0.0861(3) -0.06254(15)
N6E N -0.40351(18) 0.1565(3) -0.10180(16)
N7E N -0.1820(2) 0.2837(3) 0.19810(16)
N8E N -0.25456(17) 0.2009(2) 0.10056(15)
N9E N -0.29947(17) 0.1580(3) 0.05436(15)
O1B O -0.3936(2) 0.3954(3) -0.18269(17)
O1G O -0.1064(2) 0.1046(3) 0.18269(17)
O2B O -0.5066(2) 0.3851(3) -0.18082(17)
loop_
_geom_bond_atom_site_label_1
_geom_bond_atom_site_label_2
_geom_bond_site_symmetry_1
_geom_bond_site_symmetry_2
C1 H1 1_555 1_555
C2 C1 1_555 1_555
H2 C2E 1_555 1_555
C3 C2 1_555 1_555
H3 C3E 1_555 1_555
C4 C3 1_555 1_555
H4 C4E 1_555 1_555
C5 C4 1_555 1_555
C6 C5 1_555 1_555
C7 C6 1_555 1_555
H5 C7E 1_555 1_555
C8 C7 1_555 1_555
H6 C8E 1_555 1_555
C9 H7 1_555 1_555
C10 C9 1_555 1_555
H8 C10 1_555 1_555
C11 C10 1_555 1_555
H9 C11 1_555 1_555
C12 C11 1_555 1_555
H10 C12 1_555 1_555
C13 C12 1_555 1_555
C14 C13 1_555 1_555
C15 C14 1_555 1_555
H11 C15 1_555 1_555
C16 C15 1_555 1_555
H12 C16 1_555 1_555
C17 H13 1_555 1_555
C18 C17 1_555 1_555
H14 C18 1_555 1_555
C19 C18 1_555 1_555
H15 C19 1_555 1_555
C20 C19 1_555 1_555
H16 C20 1_555 1_555
C21 C20 1_555 1_555
C22 C21 1_555 1_555
C23 C22 1_555 1_555
H17 C23 1_555 1_555
C24 C23 1_555 1_555
H18 C24 1_555 1_555
C25 C26 1_555 1_555
C26 C27 1_555 1_555
C27 C28 1_555 1_555
C28 C29 1_555 1_555
C29 H19 1_555 1_555
C30 C29 1_555 1_555
H20 C30 1_555 1_555
C31 C26 1_555 1_555
H21 C31 1_555 1_555
Cu1 N1 1_555 1_555
Cu2 N3 1_555 1_555
N1 C1 1_555 1_555
N2 C6 1_555 1_555
N3 C8 1_555 1_555
N4 C9 1_555 1_555
N5 C14 1_555 1_555
N6 C16 1_555 1_555
N7 C17 1_555 1_555
N8 C22 1_555 1_555
N9 C24 1_555 1_555
O1 C25 1_555 1_555
O2 C25 1_555 1_555
C1E H1E 1_555 1_555
C2E C1E 1_555 1_555
H2E C2 1_555 1_555
C3E C2E 1_555 1_555
H3E C3 1_555 1_555
C4E C3E 1_555 1_555
H4E C4 1_555 1_555
C5E C4E 1_555 1_555
C6E C5E 1_555 1_555
C7E C6E 1_555 1_555
H5E C7 1_555 1_555
C8E C7E 1_555 1_555
H6E C8 1_555 1_555
C9E H7E 1_555 1_555
C10E C9E 1_555 1_555
H8E C10E 1_555 1_555
C11E C10E 1_555 1_555
H9E C11E 1_555 1_555
C12E C11E 1_555 1_555
H10E C12E 1_555 1_555
C13E C12E 1_555 1_555
C14E C13E 1_555 1_555
C15E C14E 1_555 1_555
H11E C15E 1_555 1_555
C16E C15E 1_555 1_555
H12E C16E 1_555 1_555
C17E H13E 1_555 1_555
C18E C17E 1_555 1_555
H14E C18E 1_555 1_555
C19E C18E 1_555 1_555
H15E C19E 1_555 1_555
C20E C19E 1_555 1_555
H16E C20E 1_555 1_555
C21E C20E 1_555 1_555
C22E C21E 1_555 1_555
C23E C22E 1_555 1_555
H17E C23E 1_555 1_555
C24E C23E 1_555 1_555
H18E C24E 1_555 1_555
C25B C26B 1_555 1_555
C26B C27 1_555 1_555
C29B C28 1_555 1_555
H19B C29B 1_555 1_555
C30B C29B 1_555 1_555
H20B C30B 1_555 1_555
C31B C26B 1_555 1_555
H21B C31B 1_555 1_555
Cu1E N1E 1_555 1_555
Cu2B O1 1_555 1_555
Cu2E N6 1_555 1_555
N1E C1E 1_555 1_555
N2E C6E 1_555 1_555
N3E C8E 1_555 1_555
N4E C9E 1_555 1_555
N5E C14E 1_555 1_555
N6E Cu2 1_555 1_555
N7E C17E 1_555 1_555
N8E C22E 1_555 1_555
N9E C24E 1_555 1_555
O1B Cu2 1_555 1_555
O1G Cu2E 1_555 1_555
O2B C25B 1_555 1_555
C5 N1 1_555 1_555
C13 N4 1_555 1_555
C21 N7 1_555 1_555
C30 C31 1_555 1_555
Cu1 N2 1_555 1_555
Cu1 N4 1_555 1_555
Cu1 N5 1_555 1_555
Cu1 N9 1_555 1_555
Cu2 N7 1_555 1_555
Cu2 N8 1_555 1_555
N2 N3 1_555 1_555
N5 N6 1_555 1_555
N8 N9 1_555 1_555
C5E N1E 1_555 1_555
C13E N4E 1_555 1_555
C16E N6E 1_555 1_555
C21E N7E 1_555 1_555
C25B O1B 1_555 1_555
C30B C31B 1_555 1_555
Cu1E N2E 1_555 1_555
Cu1E N4E 1_555 1_555
Cu1E N5E 1_555 1_555
Cu1E N9E 1_555 1_555
Cu2E N3E 1_555 1_555
Cu2E N7E 1_555 1_555
Cu2E N8E 1_555 1_555
N2E N3E 1_555 1_555
N5E N6E 1_555 1_555
N8E N9E 1_555 1_555

#END
