
#######################################################################
#
#                 Cambridge Crystallographic Data Centre
#                                CCDC 
#
#######################################################################
#
# If this CIF has been generated from an entry in the Cambridge 
# Structural Database, then it will include bibliographic, chemical, 
# crystal, experimental, refinement or atomic coordinate data resulting 
# from the CCDC's data processing and validation procedures.
#
#######################################################################

data_YEBHET
_symmetry_cell_setting           monoclinic
_symmetry_space_group_name_H-M   'P 21/c'
_symmetry_Int_Tables_number      14
_space_group_name_Hall           '-P 2ybc'
loop_
_symmetry_equiv_pos_site_id
_symmetry_equiv_pos_as_xyz
1 x,y,z
2 -x,1/2+y,1/2-z
3 -x,-y,-z
4 x,1/2-y,1/2+z
_cell_length_a                   18.936(4)
_cell_length_b                   14.500(3)
_cell_length_c                   19.897(4)
_cell_angle_alpha                90
_cell_angle_beta                 118.12(3)
_cell_angle_gamma                90
_cell_volume                     4818.3
loop_
_atom_site_label
_atom_site_type_symbol
_atom_site_fract_x
_atom_site_fract_y
_atom_site_fract_z
Au1 Au 0.32004(2) 0.70264(3) 0.28018(2)
Au2 Au 0.19474(2) 0.84102(3) 0.23858(2)
Hg1 Hg 0.05933(3) 0.51008(3) 0.26801(3)
Hg2 Hg 0.56460(3) 0.53554(3) 0.27723(3)
N1 N 0.1685(5) 0.7950(6) 0.1274(5)
N2 N 0.3482(5) 0.7441(6) 0.3911(5)
N3 N 0.2858(5) 0.7092(6) 0.1639(5)
N4 N 0.2340(5) 0.8360(6) 0.3576(5)
C1 C 0.4779(7) 0.5767(8) 0.2997(6)
N5 N 0.2926(6) 0.9619(8) 0.2461(6)
C2 C 0.3212(6) 0.5709(8) 0.1141(6)
C3 C 0.0948(6) 0.8261(9) 0.0607(6)
C4 C 0.3460(7) 0.9898(8) 0.2403(6)
C5 C 0.4225(6) 0.7117(7) 0.4518(5)
C6 C 0.2178(6) 0.7466(7) 0.1138(6)
H1 H 0.2037 0.7372 0.0627
C7 C 0.3347(6) 0.6635(8) 0.1354(5)
C8 C 0.1859(6) 0.8835(8) 0.3869(6)
C9 C 0.1251(6) 0.8295(8) 0.3910(6)
C10 C 0.2997(6) 0.7959(7) 0.4069(6)
H2 H 0.3141 0.8042 0.4581
C11 C 0.1965(7) 0.9763(8) 0.4044(6)
C12 C 0.3982(6) 0.7138(8) 0.1357(6)
C13 C 0.4921(6) 0.7607(8) 0.4669(6)
C14 C 0.4243(6) 0.6305(8) 0.4900(6)
C15 C 0.0979(7) 0.9007(9) 0.0184(6)
C16 C 0.4892(7) 0.8473(8) 0.4249(7)
H3 H 0.5422 0.8724 0.4448
H4 H 0.4550 0.8913 0.4314
H5 H 0.4686 0.8338 0.3717
C17 C 0.2566(7) 0.5165(8) 0.1205(7)
H6 H 0.2706 0.5091 0.1733
H7 H 0.2515 0.4569 0.0976
H8 H 0.2066 0.5488 0.0947
C18 C 0.0242(7) 0.7805(9) 0.0456(7)
C19 C 0.4127(7) 0.8119(7) 0.1631(7)
H9 H 0.3658 0.8481 0.1329
H10 H 0.4573 0.8364 0.1585
H11 H 0.4243 0.8140 0.2156
C20 C 0.1124(7) 0.7304(8) 0.3688(7)
H12 H 0.0702 0.7060 0.3774
H13 H 0.1609 0.6967 0.3988
H14 H 0.0980 0.7246 0.3158
C21 C 0.2580(7) 1.0321(9) 0.3948(7)
H15 H 0.3090 1.0018 0.4203
H16 H 0.2619 1.0923 0.4163
H17 H 0.2424 1.0378 0.3415
C22 C 0.5676(6) 0.6463(9) 0.5612(6)
H18 H 0.6168 0.6243 0.5981
C23 C 0.5646(6) 0.7253(9) 0.5231(6)
H19 H 0.6119 0.7565 0.5347
C24 C 0.1722(7) 0.9525(9) 0.0380(7)
H20 H 0.2084 0.9144 0.0292
H21 H 0.1966 0.9700 0.0908
H22 H 0.1597 1.0068 0.0069
C25 C 0.0256(7) 0.7016(11) 0.0930(8)
H23 H -0.0278 0.6786 0.0751
H24 H 0.0468 0.7210 0.1450
H25 H 0.0588 0.6536 0.0896
C26 C 0.3484(7) 0.5782(8) 0.4714(7)
H26 H 0.3127 0.6170 0.4805
H27 H 0.3611 0.5244 0.5031
H28 H 0.3232 0.5600 0.4188
C27 C 0.4331(7) 0.5764(8) 0.0875(6)
H29 H 0.4662 0.5469 0.0716
C28 C 0.4468(6) 0.6678(8) 0.1104(6)
H30 H 0.4888 0.6994 0.1090
C29 C 0.0763(7) 0.8729(9) 0.4156(6)
H31 H 0.0373 0.8394 0.4207
C30 C 0.3699(7) 0.5290(8) 0.0885(6)
H32 H 0.3601 0.4682 0.0716
C31 C 0.1452(7) 1.0173(9) 0.4285(6)
H33 H 0.1512 1.0793 0.4419
C32 C 0.4987(6) 0.5985(8) 0.5457(6)
H34 H 0.5017 0.5448 0.5724
C33 C 0.0855(7) 0.9658(10) 0.4326(7)
H35 H 0.0508 0.9946 0.4471
C34 C 0.0260(8) 0.9254(10) -0.0430(7)
H36 H 0.0254 0.9753 -0.0726
C35 C -0.0445(8) 0.8799(11) -0.0625(7)
H37 H -0.0913 0.8979 -0.1051
C36 C -0.0448(7) 0.8072(11) -0.0180(8)
H38 H -0.0923 0.7757 -0.0312
N6 N 0.4271(6) 0.5995(7) 0.3116(5)
N7 N 0.2110(6) 0.5910(7) 0.2648(5)
C37 C 0.0327(7) 0.9621(8) 0.2205(6)
C38 C 0.1541(7) 0.5594(8) 0.2638(6)
N8 N 0.0833(5) 0.9339(7) 0.2116(5)
Hg1A Hg -0.05933(3) 1.01008(3) 0.23199(3)
Hg2A Hg 0.43540(3) 1.03554(3) 0.22277(3)
C4A C 0.6540(7) 0.4898(8) 0.2597(6)
C37A C -0.0327(7) 0.4621(8) 0.2795(6)
O1 O 0.3340(5) 0.2984(7) 0.0942(5)
C39 C 0.2791(8) 0.2279(10) 0.0885(7)
H39 H 0.3008 0.1675 0.0881
H40 H 0.2288 0.2352 0.0421
C41 C 0.3920(7) 0.2976(10) 0.1733(7)
H43 H 0.4185 0.3570 0.1883
H44 H 0.4322 0.2506 0.1830
C42 C 0.3472(7) 0.2769(10) 0.2180(7)
H45 H 0.3398 0.3323 0.2412
H46 H 0.3754 0.2314 0.2575
C43 C 0.2671(8) 0.2392(11) 0.1573(8)
H47 H 0.2549 0.1805 0.1728
H48 H 0.2240 0.2822 0.1473
O2 O 0.1532(5) 0.2494(7) 0.3852(5)
C40 C 0.2042(8) 0.3177(11) 0.3821(7)
H41 H 0.2563 0.3147 0.4269
H42 H 0.1817 0.3785 0.3796
C44 C 0.2115(8) 0.2986(11) 0.3107(8)
H49 H 0.2553 0.2565 0.3210
H50 H 0.2197 0.3551 0.2892
C45 C 0.0932(9) 0.2339(11) 0.3079(8)
H51 H 0.0475 0.2739 0.2951
H52 H 0.0750 0.1704 0.3013
C46 C 0.1302(9) 0.2546(13) 0.2574(10)
H53 H 0.0971 0.2969 0.2170
H54 H 0.1374 0.1985 0.2347
loop_
_geom_bond_atom_site_label_1
_geom_bond_atom_site_label_2
_geom_bond_site_symmetry_1
_geom_bond_site_symmetry_2
Au1 Au2 1_555 1_555
Au2 N1 1_555 1_555
Hg1 C38 1_555 1_555
Hg2 C1 1_555 1_555
N1 C3 1_555 1_555
N2 Au1 1_555 1_555
N3 Au1 1_555 1_555
N4 Au2 1_555 1_555
C1 N6 1_555 1_555
N5 Au2 1_555 1_555
C2 C7 1_555 1_555
C3 C15 1_555 1_555
C4 N5 1_555 1_555
C5 N2 1_555 1_555
C6 N1 1_555 1_555
H1 C6 1_555 1_555
C7 N3 1_555 1_555
C8 N4 1_555 1_555
C9 C8 1_555 1_555
C10 N2 1_555 1_555
H2 C10 1_555 1_555
C11 C8 1_555 1_555
C12 C7 1_555 1_555
C13 C5 1_555 1_555
C14 C5 1_555 1_555
C15 C24 1_555 1_555
C16 C13 1_555 1_555
H3 C16 1_555 1_555
H4 C16 1_555 1_555
H5 C16 1_555 1_555
C17 C2 1_555 1_555
H6 C17 1_555 1_555
H7 C17 1_555 1_555
H8 C17 1_555 1_555
C18 C3 1_555 1_555
C19 C12 1_555 1_555
H9 C19 1_555 1_555
H10 C19 1_555 1_555
H11 C19 1_555 1_555
C20 C9 1_555 1_555
H12 C20 1_555 1_555
H13 C20 1_555 1_555
H14 C20 1_555 1_555
C21 C11 1_555 1_555
H15 C21 1_555 1_555
H16 C21 1_555 1_555
H17 C21 1_555 1_555
C22 H18 1_555 1_555
C23 C13 1_555 1_555
H19 C23 1_555 1_555
C24 H20 1_555 1_555
H21 C24 1_555 1_555
H22 C24 1_555 1_555
C25 C18 1_555 1_555
H23 C25 1_555 1_555
H24 C25 1_555 1_555
H25 C25 1_555 1_555
C26 C14 1_555 1_555
H26 C26 1_555 1_555
H27 C26 1_555 1_555
H28 C26 1_555 1_555
C27 H29 1_555 1_555
C28 C12 1_555 1_555
H30 C28 1_555 1_555
C29 C9 1_555 1_555
H31 C29 1_555 1_555
C30 C2 1_555 1_555
H32 C30 1_555 1_555
C31 C11 1_555 1_555
H33 C31 1_555 1_555
C32 C14 1_555 1_555
H34 C32 1_555 1_555
C33 C29 1_555 1_555
H35 C33 1_555 1_555
C34 C15 1_555 1_555
H36 C34 1_555 1_555
C35 C34 1_555 1_555
H37 C35 1_555 1_555
C36 C18 1_555 1_555
H38 C36 1_555 1_555
N6 Au1 1_555 1_555
N7 Au1 1_555 1_555
C37 N8 1_555 1_555
C38 N7 1_555 1_555
N8 Au2 1_555 1_555
O1 C39 1_555 1_555
O2 C40 1_555 1_555
C39 H39 1_555 1_555
H40 C39 1_555 1_555
C40 H41 1_555 1_555
H42 C40 1_555 1_555
C41 O1 1_555 1_555
H43 C41 1_555 1_555
H44 C41 1_555 1_555
C42 C41 1_555 1_555
H45 C42 1_555 1_555
H46 C42 1_555 1_555
C43 C39 1_555 1_555
H47 C43 1_555 1_555
H48 C43 1_555 1_555
C44 C40 1_555 1_555
H49 C44 1_555 1_555
H50 C44 1_555 1_555
C45 O2 1_555 1_555
H51 C45 1_555 1_555
H52 C45 1_555 1_555
C46 C44 1_555 1_555
H53 C46 1_555 1_555
H54 C46 1_555 1_555
Hg1A C37 1_555 1_555
Hg2A C4 1_555 1_555
C4A Hg2 1_555 1_555
C37A Hg1 1_555 1_555
N3 C6 1_555 1_555
N4 C10 1_555 1_555
C22 C23 1_555 1_555
C22 C32 1_555 1_555
C27 C28 1_555 1_555
C27 C30 1_555 1_555
C31 C33 1_555 1_555
C35 C36 1_555 1_555
C42 C43 1_555 1_555
C45 C46 1_555 1_555

#END
