
#######################################################################
#
#                 Cambridge Crystallographic Data Centre
#                                CCDC 
#
#######################################################################
#
# If this CIF has been generated from an entry in the Cambridge 
# Structural Database, then it will include bibliographic, chemical, 
# crystal, experimental, refinement or atomic coordinate data resulting 
# from the CCDC's data processing and validation procedures.
#
#######################################################################

data_YEBKIB
_symmetry_cell_setting           triclinic
_symmetry_space_group_name_H-M   'P -1'
_symmetry_Int_Tables_number      2
_space_group_name_Hall           '-P 1'
loop_
_symmetry_equiv_pos_site_id
_symmetry_equiv_pos_as_xyz
1 x,y,z
2 -x,-y,-z
_cell_length_a                   7.0536(2)
_cell_length_b                   9.9532(3)
_cell_length_c                   16.8140(6)
_cell_angle_alpha                85.7949(13)
_cell_angle_beta                 84.6438(12)
_cell_angle_gamma                73.233(2)
_cell_volume                     1123.99
loop_
_atom_site_label
_atom_site_type_symbol
_atom_site_fract_x
_atom_site_fract_y
_atom_site_fract_z
Ag1 Ag 0.7137(10) 0.0039(9) 0.9237(4)
Ag2 Ag 0.3819(10) 0.3674(9) 1.1501(4)
Ag3 Ag 0.1006(10) 0.6115(9) 0.4254(4)
Ag4 Ag 0.5116(10) 0.2773(9) 0.6481(4)
C1 C 0.3174(10) 0.4347(9) 0.5841(4)
N1 N 0.2176(10) 0.5135(9) 0.5443(4)
N2 N 0.6272(10) 0.1544(9) 0.7515(4)
C2 C 0.2106(10) 0.5313(9) 1.3133(4)
N3 N 0.6141(10) 0.1104(9) 1.0422(4)
C3 C 0.6655(10) 0.0977(9) 0.8102(4)
C4 C 0.5340(10) 0.1972(9) 1.0829(4)
C5 C 1.2833(10) -0.5288(9) 0.8539(4)
C6 C 1.2946(10) -0.5313(9) 0.9345(4)
C7 C 1.0393(10) -0.3014(9) 0.8554(4)
C8 C 1.1791(10) -0.4168(9) 0.9799(4)
N4 N 0.9356(10) -0.1887(9) 0.9818(4)
C9 C 0.9530(10) -0.1965(9) 1.0593(4)
C10 C 1.0486(10) -0.3012(9) 0.9396(4)
C11 C 1.0834(10) -0.3105(9) 1.0984(4)
N5 N 1.1926(10) -0.4205(9) 1.0600(4)
N6 N 0.2697(10) 0.4767(9) 1.2551(4)
C12 C 1.1538(10) -0.4121(9) 0.8138(4)
N7 N 0.8999(10) -0.1861(9) 0.4830(4)
N8 N 0.6890(10) 0.0619(9) 0.5603(4)
C13 C 0.8329(10) -0.0626(9) 0.3546(4)
C14 C 0.7094(10) 0.0595(9) 0.4785(4)
C15 C 0.8156(10) -0.0652(9) 0.4395(4)
C16 C 0.8721(10) -0.1802(9) 0.5616(4)
C17 C 0.7676(10) -0.0585(9) 0.6001(4)
C18 C 0.6274(10) 0.1825(9) 0.4323(4)
C19 C 0.6489(10) 0.1803(9) 0.3507(4)
C20 C 0.7499(10) 0.0565(9) 0.3121(4)
H1 H 1.362970 -0.606000 0.823520
H2 H 1.382020 -0.610720 0.960930
H3 H 0.951790 -0.222340 0.828650
H4 H 0.873510 -0.121470 1.091250
H5 H 1.097480 -0.309040 1.154510
H6 H 1.145930 -0.412190 0.757100
H7 H 0.901940 -0.147230 0.328220
H8 H 0.926640 -0.263050 0.594360
H9 H 0.752720 -0.061730 0.657510
H10 H 0.557330 0.266370 0.459210
H11 H 0.593710 0.264050 0.318720
H12 H 0.762320 0.057480 0.254720
Ag2_2 Ag 1.3819(10) -0.6326(9) 1.1501(4)
Ag3_2 Ag 0.1006(10) 0.6115(9) 1.4254(4)
Ag3_3 Ag 1.1006(10) -0.3885(9) 0.4254(4)
C2_2 C 0.2106(10) 0.5313(9) 0.3133(4)
N5_2 N 0.1926(10) 0.5795(9) 1.0600(4)
N7_2 N -0.1001(10) 0.8139(9) 0.4830(4)
loop_
_geom_bond_atom_site_label_1
_geom_bond_atom_site_label_2
_geom_bond_site_symmetry_1
_geom_bond_site_symmetry_2
Ag1 N3 1_555 1_555
Ag2 C4 1_555 1_555
Ag3 N1 1_555 1_555
Ag4 C1 1_555 1_555
C1 N1 1_555 1_555
N2 Ag4 1_555 1_555
C2 N6 1_555 1_555
N3 C4 1_555 1_555
C3 Ag1 1_555 1_555
C5 C6 1_555 1_555
C6 C8 1_555 1_555
C7 C10 1_555 1_555
C8 C10 1_555 1_555
N4 Ag1 1_555 1_555
C9 N4 1_555 1_555
C10 N4 1_555 1_555
C11 C9 1_555 1_555
N5 C8 1_555 1_555
N6 Ag2 1_555 1_555
C12 C5 1_555 1_555
N7 C15 1_555 1_555
N8 Ag4 1_555 1_555
C13 C15 1_555 1_555
C14 N8 1_555 1_555
C15 C14 1_555 1_555
C16 N7 1_555 1_555
C17 N8 1_555 1_555
C18 C14 1_555 1_555
C19 C18 1_555 1_555
C20 C13 1_555 1_555
H1 C5 1_555 1_555
H2 C6 1_555 1_555
H3 C7 1_555 1_555
H4 C9 1_555 1_555
H5 C11 1_555 1_555
H6 C12 1_555 1_555
H7 C13 1_555 1_555
H8 C16 1_555 1_555
H9 C17 1_555 1_555
H10 C18 1_555 1_555
H11 C19 1_555 1_555
H12 C20 1_555 1_555
Ag2_2 N5 1_555 1_555
Ag3_2 C2 1_555 1_555
Ag3_3 N7 1_555 1_555
C2_2 Ag3 1_555 1_555
N5_2 Ag2 1_555 1_555
N7_2 Ag3 1_555 1_555
N2 C3 1_555 1_555
C7 C12 1_555 1_555
C11 N5 1_555 1_555
C16 C17 1_555 1_555
C19 C20 1_555 1_555

#END
