
#######################################################################
#
#                 Cambridge Crystallographic Data Centre
#                                CCDC 
#
#######################################################################
#
# If this CIF has been generated from an entry in the Cambridge 
# Structural Database, then it will include bibliographic, chemical, 
# crystal, experimental, refinement or atomic coordinate data resulting 
# from the CCDC's data processing and validation procedures.
#
#######################################################################

data_YEBKOG
_symmetry_cell_setting           triclinic
_symmetry_space_group_name_H-M   'P -1'
_symmetry_Int_Tables_number      2
_space_group_name_Hall           '-P 1'
loop_
_symmetry_equiv_pos_site_id
_symmetry_equiv_pos_as_xyz
1 x,y,z
2 -x,-y,-z
_cell_length_a                   7.8130(5)
_cell_length_b                   11.8800(6)
_cell_length_c                   12.9940(8)
_cell_angle_alpha                93.092(5)
_cell_angle_beta                 93.938(6)
_cell_angle_gamma                108.359(5)
_cell_volume                     1138.35
loop_
_atom_site_label
_atom_site_type_symbol
_atom_site_fract_x
_atom_site_fract_y
_atom_site_fract_z
O19 O 0.7191(6) 0.8746(4) 0.2267(3)
H5 H 0.5855 0.8586 0.2147
H6 H 0.7816 0.9546 0.2574
O20 O 0.7601(7) 0.9332(4) 0.7404(4)
H7 H 0.7323 0.9223 0.8054
H8 H 0.8748 0.9184 0.7366
O21 O 0.5577(9) 0.6263(6) -0.0008(5)
H9 H 0.6680 0.6223 -0.0367
H10 H 0.5427 0.7063 0.0126
N1 N 0.6040(8) 0.6882(5) 0.3797(5)
H11 H 0.5382 0.7384 0.3933
H12 H 0.7014 0.7268 0.3488
H13 H 0.6393 0.6631 0.4401
N2 N 0.6489(8) 0.5182(5) 0.1832(4)
H14 H 0.6692 0.4482 0.1638
H15 H 0.7565 0.5755 0.2031
H16 H 0.5931 0.5408 0.1301
C9 C 0.4874(17) 0.5923(12) 0.3017(10)
H17 H 0.3959 0.5517 0.3458
H18 H 0.4230 0.6225 0.2492
C10 C 0.5398(13) 0.4975(8) 0.2724(7)
H19 H 0.6195 0.4773 0.3247
C11 C 0.3841(12) 0.3850(8) 0.2527(7)
H20 H 0.4268 0.3246 0.2221
H21 H 0.2875 0.3942 0.2076
H22 H 0.3407 0.3623 0.3182
Nd1 Nd 0.15004(3) 0.77776(2) 0.031900(17)
Nd2 Nd 0.15651(3) 0.78215(2) 0.532070(17)
O1 O -0.0153(5) 0.7271(4) 0.3578(3)
O2 O -0.0177(5) 0.7188(3) 0.1868(2)
O3 O 0.3412(5) 0.8254(3) 0.2036(2)
O4 O 0.3446(5) 0.8216(3) 0.3765(2)
O5 O 0.2117(5) 0.6802(3) -0.3094(3)
O6 O 0.1992(5) 0.6697(3) -0.1385(3)
O7 O 0.1085(6) 0.8733(3) -0.2991(3)
O8 O 0.0813(6) 0.8585(4) -0.1305(3)
O9 O 0.4688(5) 0.8481(3) -0.0103(3)
O10 O 0.7011(5) 0.9994(3) -0.0507(3)
O11 O -0.1152(5) 0.8520(3) 0.5169(3)
O12 O -0.2220(5) 1.0028(3) 0.4920(3)
O13 O -0.1118(5) 0.6038(3) -0.0225(3)
O14 O -0.2007(5) 0.4087(3) -0.0693(3)
O15 O 0.2127(5) 0.5956(3) 0.4778(3)
O16 O 0.1095(5) 0.3974(3) 0.4638(3)
O17 O -0.0967(5) 0.8639(3) 0.0510(3)
H1 H -0.1265 0.9040 0.0041
H2 H -0.1593 0.8614 0.1096
O18 O 0.4834(5) 0.8619(4) 0.5837(3)
H3 H 0.5555 0.8958 0.5412
H4 H 0.5299 0.8787 0.6585
C1 C 0.0598(6) 0.7456(4) 0.2762(4)
C2 C 0.2685(6) 0.8044(4) 0.2862(4)
C3 C 0.1818(7) 0.7143(5) -0.2217(4)
C4 C 0.1184(7) 0.8261(5) -0.2159(4)
C5 C 0.5477(6) 0.9551(4) -0.0173(3)
C6 C -0.0974(6) 0.9572(4) 0.5025(3)
C7 C -0.0910(6) 0.5036(4) -0.0264(3)
C8 C 0.0939(7) 0.4978(4) 0.4832(4)
C5A C 0.4523(6) 1.0449(4) 0.0173(3)
O9A O 0.5312(5) 1.1519(3) 0.0103(3)
O10A O 0.2989(5) 1.0006(3) 0.0507(3)
C6A C 0.0974(6) 1.0428(4) 0.4975(3)
O11A O 0.1152(5) 1.1480(3) 0.4831(3)
O12A O 0.2220(5) 0.9972(3) 0.5080(3)
C7A C 0.0910(6) 0.4964(4) 0.0264(3)
O13A O 0.1118(5) 0.3962(3) 0.0225(3)
O14A O 0.2007(5) 0.5913(3) 0.0693(3)
C8A C -0.0939(7) 0.5022(4) 0.5168(4)
O15A O -0.2127(5) 0.4044(3) 0.5222(3)
O16A O -0.1095(5) 0.6026(3) 0.5362(3)
Nd1A Nd 0.84996(3) 1.22224(2) -0.031900(17)
Nd2_2 Nd 0.15651(3) 0.78215(2) -0.467930(17)
O5_2 O 0.2117(5) 0.6802(3) 0.6906(3)
O6_2 O 0.1992(5) 0.6697(3) 0.8615(3)
O7_2 O 0.1085(6) 0.8733(3) 0.7009(3)
O8_2 O 0.0813(6) 0.8585(4) 0.8695(3)
C3_2 C 0.1818(7) 0.7143(5) 0.7783(4)
C4_2 C 0.1184(7) 0.8261(5) 0.7841(4)
O1A O 1.0153(5) 1.2729(4) -0.3578(3)
O2A O 1.0177(5) 1.2812(3) -0.1868(2)
O3A O 0.6588(5) 1.1746(3) -0.2036(2)
O4A O 0.6554(5) 1.1784(3) -0.3765(2)
C1A C 0.9402(6) 1.2544(4) -0.2762(4)
C2A C 0.7315(6) 1.1956(4) -0.2862(4)
O17A O 1.0967(5) 1.1361(3) -0.0510(3)
H1A H 1.1265 1.0960 -0.0041
H2A H 1.1593 1.1386 -0.1096
O18_2 O 0.4834(5) 0.8619(4) -0.4163(3)
H3_2 H 0.5555 0.8958 -0.4588
H4_2 H 0.5299 0.8787 -0.3415
Nd2A Nd -0.15651(3) 1.21785(2) 0.467930(17)
Nd1A_2 Nd -0.15004(3) 0.22224(2) -0.031900(17)
Nd2A_2 Nd -0.15651(3) 0.21785(2) 0.467930(17)
O6A O 0.8008(5) 1.3303(3) 0.1385(3)
O8A O 0.9187(6) 1.1415(4) 0.1305(3)
O13A_2 O 1.1118(5) 1.3962(3) 0.0225(3)
O14_2 O 0.7993(5) 1.4087(3) -0.0693(3)
O1_2 O -0.0153(5) 0.7271(4) -0.6422(3)
O4_2 O 0.3446(5) 0.8216(3) -0.6235(2)
O11_2 O -0.1152(5) 0.8520(3) -0.4831(3)
O12A_2 O 0.2220(5) 0.9972(3) -0.4920(3)
O15_2 O 0.2127(5) 0.5956(3) -0.5222(3)
O16A_2 O -0.1095(5) 0.6026(3) -0.4638(3)
Nd1_2 Nd 0.15004(3) 0.77776(2) 1.031900(17)
Nd2A_3 Nd 0.84349(3) 1.21785(2) -0.532070(17)
loop_
_geom_bond_atom_site_label_1
_geom_bond_atom_site_label_2
_geom_bond_site_symmetry_1
_geom_bond_site_symmetry_2
Nd1 O2 1_555 1_555
Nd2 O1 1_555 1_555
O1 C1 1_555 1_555
O2 C1 1_555 1_555
O3 Nd1 1_555 1_555
O4 Nd2 1_555 1_555
O5 C3 1_555 1_555
O6 Nd1 1_555 1_555
O7 C4 1_555 1_555
O8 Nd1 1_555 1_555
O9 Nd1 1_555 1_555
O10 C5 1_555 1_555
O11 Nd2 1_555 1_555
O12 C6 1_555 1_555
O13 Nd1 1_555 1_555
O14 C7 1_555 1_555
O15 Nd2 1_555 1_555
O16 C8 1_555 1_555
O17 Nd1 1_555 1_555
H1 O17 1_555 1_555
H2 O17 1_555 1_555
O18 Nd2 1_555 1_555
H3 O18 1_555 1_555
H4 O18 1_555 1_555
O19 H5 1_555 1_555
H6 O19 1_555 1_555
O20 H7 1_555 1_555
H8 O20 1_555 1_555
O21 H9 1_555 1_555
H10 O21 1_555 1_555
C1 C2 1_555 1_555
C2 O3 1_555 1_555
C3 O6 1_555 1_555
C4 O8 1_555 1_555
C5 O9 1_555 1_555
C6 O11 1_555 1_555
C7 O13 1_555 1_555
C8 O15 1_555 1_555
N1 H11 1_555 1_555
H12 N1 1_555 1_555
H13 N1 1_555 1_555
N2 H14 1_555 1_555
H15 N2 1_555 1_555
H16 N2 1_555 1_555
C9 N1 1_555 1_555
H17 C9 1_555 1_555
H18 C9 1_555 1_555
C10 N2 1_555 1_555
H19 C10 1_555 1_555
C11 C10 1_555 1_555
H20 C11 1_555 1_555
H21 C11 1_555 1_555
H22 C11 1_555 1_555
C5A C5 1_555 1_555
O9A C5A 1_555 1_555
O10A Nd1 1_555 1_555
C6A C6 1_555 1_555
O11A C6A 1_555 1_555
O12A Nd2 1_555 1_555
C7A C7 1_555 1_555
O13A C7A 1_555 1_555
O14A Nd1 1_555 1_555
C8A C8 1_555 1_555
O15A C8A 1_555 1_555
O16A Nd2 1_555 1_555
Nd1A O10 1_555 1_555
Nd2_2 O5 1_555 1_555
O5_2 Nd2 1_555 1_555
O6_2 C3_2 1_555 1_555
O7_2 Nd2 1_555 1_555
O8_2 C4_2 1_555 1_555
C3_2 O5_2 1_555 1_555
C4_2 O7_2 1_555 1_555
O1A C1A 1_555 1_555
O2A Nd1A 1_555 1_555
O3A Nd1A 1_555 1_555
O4A C2A 1_555 1_555
C1A O2A 1_555 1_555
C2A O3A 1_555 1_555
O17A Nd1A 1_555 1_555
H1A O17A 1_555 1_555
H2A O17A 1_555 1_555
O18_2 Nd2_2 1_555 1_555
H3_2 O18_2 1_555 1_555
H4_2 O18_2 1_555 1_555
Nd2A O12 1_555 1_555
Nd1A_2 O14 1_555 1_555
Nd2A_2 O16 1_555 1_555
O6A Nd1A 1_555 1_555
O8A Nd1A 1_555 1_555
O13A_2 Nd1A 1_555 1_555
O14_2 Nd1A 1_555 1_555
O1_2 Nd2_2 1_555 1_555
O4_2 Nd2_2 1_555 1_555
O11_2 Nd2_2 1_555 1_555
O12A_2 Nd2_2 1_555 1_555
O15_2 Nd2_2 1_555 1_555
O16A_2 Nd2_2 1_555 1_555
Nd1_2 O6_2 1_555 1_555
Nd2A_3 O1A 1_555 1_555
O4 C2 1_555 1_555
O7 Nd2_2 1_555 1_555
C3 C4 1_555 1_555
C9 C10 1_555 1_555
C5A O10A 1_555 1_555
O9A Nd1A 1_555 1_555
C6A O12A 1_555 1_555
O11A Nd2A 1_555 1_555
C7A O14A 1_555 1_555
O13A Nd1A_2 1_555 1_555
C8A O16A 1_555 1_555
O15A Nd2A_2 1_555 1_555
O8_2 Nd1_2 1_555 1_555
C3_2 C4_2 1_555 1_555
O4A Nd2A_3 1_555 1_555
C1A C2A 1_555 1_555

#END
