
#######################################################################
#
#                 Cambridge Crystallographic Data Centre
#                                CCDC 
#
#######################################################################
#
# If this CIF has been generated from an entry in the Cambridge 
# Structural Database, then it will include bibliographic, chemical, 
# crystal, experimental, refinement or atomic coordinate data resulting 
# from the CCDC's data processing and validation procedures.
#
#######################################################################

data_YEBKUM
_symmetry_cell_setting           orthorhombic
_symmetry_space_group_name_H-M   'F 2 d d'
_symmetry_Int_Tables_number      43
_space_group_name_Hall           'F -2d 2'
loop_
_symmetry_equiv_pos_site_id
_symmetry_equiv_pos_as_xyz
1 x,y,z
2 x,-y,-z
3 1/4+x,1/4-y,1/4+z
4 1/4+x,1/4+y,1/4-z
5 x,1/2+y,1/2+z
6 x,1/2-y,1/2-z
7 1/4+x,3/4-y,3/4+z
8 1/4+x,3/4+y,3/4-z
9 1/2+x,y,1/2+z
10 1/2+x,-y,1/2-z
11 3/4+x,1/4-y,3/4+z
12 3/4+x,1/4+y,3/4-z
13 1/2+x,1/2+y,z
14 1/2+x,1/2-y,-z
15 3/4+x,3/4-y,1/4+z
16 3/4+x,3/4+y,1/4-z
_cell_length_a                   8.7970(4)
_cell_length_b                   16.1550(8)
_cell_length_c                   32.170(2)
_cell_angle_alpha                90
_cell_angle_beta                 90
_cell_angle_gamma                90
_cell_volume                     4571.86
loop_
_atom_site_label
_atom_site_type_symbol
_atom_site_fract_x
_atom_site_fract_y
_atom_site_fract_z
N1 N 0.4408(7) 0.2446(4) 0.2022(2)
H1 H 0.3522 0.2486 0.2173
H2 H 0.4551 0.1856 0.1941
H3 H 0.4345 0.2760 0.1791
C5 C 0.5700(10) 0.2709(6) 0.2282(3)
C6 C 0.7204(18) 0.2670(10) 0.2056(5)
N1E N 0.4408(7) 0.2554(4) 0.2978(2)
H1E H 0.3522 0.2514 0.2827
H2E H 0.4551 0.3144 0.3059
H3E H 0.4345 0.2240 0.3209
C5E C 0.5700(10) 0.2291(6) 0.2718(3)
C6E C 0.7204(18) 0.2330(10) 0.2944(5)
O9 O 0.9094(11) 0.0000 0.0000
H4 H 0.8449 0.0439 0.0063
H4A H 0.8449 -0.0439 -0.0063
O10 O 0.390(4) 0.2313(6) 0.0611(3)
O11 O 0.2540(11) 0.0991(7) 0.1199(3)
Yb1 Yb 0.88979(8) 0.231597(16) 0.064067(7)
O1 O 1.0608(5) 0.1669(3) 0.02173(16)
O2 O 1.2215(6) 0.1833(3) -0.03079(17)
O3 O 1.2384(5) 0.3438(3) -0.01577(15)
O4 O 1.0545(5) 0.3298(3) 0.03274(16)
O5 O 0.8396(4) 0.3527(3) 0.10199(14)
O6 O 0.9411(5) 0.4477(3) 0.14352(15)
O7 O 1.0691(5) 0.2502(3) 0.11683(15)
O8 O 1.1709(4) 0.3463(3) 0.15965(13)
C1 C 1.1421(12) 0.2103(4) -0.00177(19)
C2 C 1.1457(11) 0.3037(4) 0.00601(18)
C3 C 0.9386(6) 0.3797(4) 0.12594(19)
C4 C 1.0715(7) 0.3200(4) 0.13491(19)
Yb1M Yb 0.38979(8) 0.268403(16) -0.064067(7)
Yb1M_2 Yb 1.38979(8) 0.268403(16) -0.064067(7)
Yb1C Yb 1.13979(8) 0.481597(16) 0.185933(7)
Yb1O Yb 0.63979(8) -0.018403(16) 0.185933(7)
O1M O 0.5608(5) 0.3331(3) -0.02173(16)
O2M O 0.7215(6) 0.3167(3) 0.03079(17)
O2_2 O 0.2215(6) 0.1833(3) -0.03079(17)
O3M O 0.7384(5) 0.1562(3) 0.01577(15)
O3_2 O 0.2384(5) 0.3438(3) -0.01577(15)
O4M O 0.5545(5) 0.1702(3) -0.03274(16)
O5O O 0.5896(4) 0.1027(3) 0.14801(14)
O5M O 0.3396(4) 0.1473(3) -0.10199(14)
O6O O 0.6911(5) 0.1977(3) 0.10648(15)
O6F O 0.1911(5) 0.3023(3) -0.10648(15)
O7O O 0.8191(5) 0.0002(3) 0.13317(15)
O7M O 0.5691(5) 0.2498(3) -0.11683(15)
O8O O 0.9209(4) 0.0963(3) 0.09035(13)
O8F O 0.4209(4) 0.4037(3) -0.09035(13)
C1M C 0.6421(12) 0.2897(4) 0.00177(19)
C2M C 0.6457(11) 0.1963(4) -0.00601(18)
C3O C 0.6886(6) 0.1297(4) 0.12406(19)
C4O C 0.8215(7) 0.0700(4) 0.11509(19)
loop_
_geom_bond_atom_site_label_1
_geom_bond_atom_site_label_2
_geom_bond_site_symmetry_1
_geom_bond_site_symmetry_2
Yb1 O1 1_555 1_555
O1 C1 1_555 1_555
O2 C1 1_555 1_555
O3 C2 1_555 1_555
O4 Yb1 1_555 1_555
O5 Yb1 1_555 1_555
O6 C3 1_555 1_555
O7 Yb1 1_555 1_555
O8 C4 1_555 1_555
C1 C2 1_555 1_555
C2 O4 1_555 1_555
C3 O5 1_555 1_555
C4 O7 1_555 1_555
N1 H1 1_555 1_555
H2 N1 1_555 1_555
H3 N1 1_555 1_555
C5 N1 1_555 1_555
C6 C5 1_555 1_555
O9 H4 1_555 1_555
Yb1M O1M 1_555 1_555
Yb1M_2 O2 1_555 1_555
Yb1C O6 1_555 1_555
Yb1O O5O 1_555 1_555
O1M C1M 1_555 1_555
O2M Yb1 1_555 1_555
O2_2 Yb1M 1_555 1_555
O3M Yb1 1_555 1_555
O3_2 Yb1M 1_555 1_555
O4M Yb1M 1_555 1_555
O5O C3O 1_555 1_555
O5M Yb1M 1_555 1_555
O6O Yb1 1_555 1_555
O6F Yb1M 1_555 1_555
O7O Yb1O 1_555 1_555
O7M Yb1M 1_555 1_555
O8O Yb1 1_555 1_555
O8F Yb1M 1_555 1_555
C1M O2M 1_555 1_555
C2M O3M 1_555 1_555
C3O O6O 1_555 1_555
C4O O7O 1_555 1_555
N1E H1E 1_555 1_555
H2E N1E 1_555 1_555
H3E N1E 1_555 1_555
C5E C5 1_555 1_555
C6E C5E 1_555 1_555
H4A O9 1_555 1_555
O3 Yb1M_2 1_555 1_555
O8 Yb1C 1_555 1_555
C3 C4 1_555 1_555
O4M C2M 1_555 1_555
O8O C4O 1_555 1_555
C1M C2M 1_555 1_555
C3O C4O 1_555 1_555
N1E C5E 1_555 1_555

#END
