
#######################################################################
#
#                 Cambridge Crystallographic Data Centre
#                                CCDC 
#
#######################################################################
#
# If this CIF has been generated from an entry in the Cambridge 
# Structural Database, then it will include bibliographic, chemical, 
# crystal, experimental, refinement or atomic coordinate data resulting 
# from the CCDC's data processing and validation procedures.
#
#######################################################################

data_YEBLAT
_symmetry_cell_setting           triclinic
_symmetry_space_group_name_H-M   'P -1'
_symmetry_Int_Tables_number      2
_space_group_name_Hall           '-P 1'
loop_
_symmetry_equiv_pos_site_id
_symmetry_equiv_pos_as_xyz
1 x,y,z
2 -x,-y,-z
_cell_length_a                   11.6650(9)
_cell_length_b                   11.9240(6)
_cell_length_c                   13.2230(7)
_cell_angle_alpha                104.585(4)
_cell_angle_beta                 108.268(5)
_cell_angle_gamma                111.132(5)
_cell_volume                     1484.48
loop_
_atom_site_label
_atom_site_type_symbol
_atom_site_fract_x
_atom_site_fract_y
_atom_site_fract_z
N1 N 0.4106(9) 0.3418(8) 0.1509(7)
C11 C 0.432(2) 0.3882(17) 0.0580(15)
C12 C 0.2865(13) 0.3610(11) -0.0311(10)
C13 C 0.249(2) 0.4608(17) 0.0222(15)
N2 N 0.1097(17) 0.4158(14) -0.0692(13)
N3 N 0.7713(13) 0.0513(11) 0.2733(10)
C14 C 0.961(3) 0.026(2) 0.3817(19)
C15 C 0.8992(17) 0.1033(15) 0.3799(13)
C16 C 1.0343(17) 0.0341(14) 0.3205(13)
N4 N 1.1826(12) 0.1760(10) 0.3871(9)
O21 O 0.6784(11) 0.3935(9) 0.1986(8)
O22 O 0.5917(14) 0.7827(12) 0.1872(11)
O23 O 0.9294(14) 0.7039(11) 0.2968(10)
O24 O 0.7162(14) 0.6833(12) 0.3546(10)
O25 O 0.6805(16) 0.9499(13) 0.4653(12)
La1 La -0.25002(4) 0.08746(4) -0.07496(3)
La2 La 0.25888(4) 0.59055(4) 0.42086(3)
O1 O 0.0943(6) 0.5019(5) 0.2004(5)
O2 O -0.0867(6) 0.3369(5) 0.0397(5)
O3 O 0.0900(6) 0.3368(5) 0.3065(4)
O4 O -0.1024(6) 0.1746(5) 0.1495(4)
O5 O -0.3777(6) 0.3068(6) -0.3038(5)
O6 O -0.3530(6) 0.2205(6) -0.1706(5)
O7 O -0.1746(7) 0.1607(6) -0.2254(5)
O8 O -0.2187(7) 0.2250(6) -0.3705(5)
O9 O -0.5132(6) -0.0537(6) -0.2236(5)
O10 O -0.6777(6) -0.2251(5) -0.3908(5)
O11 O -0.4812(6) -0.2398(6) -0.4501(5)
O12 O -0.3254(6) -0.1116(6) -0.2638(5)
O13 O 0.0038(6) 0.1369(6) -0.0278(5)
O14 O 0.1714(6) 0.0852(5) 0.0332(5)
O15 O -0.3887(6) 0.1580(5) 0.0199(5)
O16 O -0.5983(6) 0.0797(6) 0.0137(5)
O17 O 0.3970(6) 0.4785(6) 0.3605(5)
O18 O 0.5993(7) 0.4803(7) 0.4297(5)
O19 O 0.0187(6) 0.5594(6) 0.3960(5)
O20 O -0.1532(6) 0.5066(6) 0.4468(5)
C1 C 0.0011(8) 0.3845(8) 0.1428(7)
C2 C -0.0050(8) 0.2907(8) 0.2043(7)
C3 C -0.3294(8) 0.2491(7) -0.2494(7)
C4 C -0.2329(9) 0.2080(8) -0.2852(7)
C5 C -0.5545(8) -0.1463(8) -0.3187(7)
C6 C -0.4438(9) -0.1674(8) -0.3463(7)
C7 C 0.0509(8) 0.0637(8) 0.0012(6)
C8 C -0.4973(8) 0.0684(8) 0.0093(6)
C9 C 0.4991(8) 0.4884(8) 0.4398(7)
C10 C -0.0380(8) 0.5199(8) 0.4560(7)
C7A C -0.0509(8) -0.0637(8) -0.0012(6)
O13A O -0.0038(6) -0.1369(6) 0.0278(5)
O14A O -0.1714(6) -0.0852(5) -0.0332(5)
C8A C -0.5027(8) -0.0684(8) -0.0093(6)
O15A O -0.6113(6) -0.1580(5) -0.0199(5)
O16A O -0.4017(6) -0.0797(6) -0.0137(5)
C9A C 0.5009(8) 0.5116(8) 0.5602(7)
O17A O 0.6030(6) 0.5215(6) 0.6395(5)
O18A O 0.4007(7) 0.5197(7) 0.5703(5)
C10A C 0.0380(8) 0.4801(8) 0.5440(7)
O19A O -0.0187(6) 0.4406(6) 0.6040(5)
O20A O 0.1532(6) 0.4934(6) 0.5532(5)
La1A La 0.25002(4) -0.08746(4) 0.07496(3)
La2A La -0.25888(4) 0.40945(4) -0.42086(3)
O5A O 0.3777(6) 0.6932(6) 0.3038(5)
O6A O 0.3530(6) 0.7795(6) 0.1706(5)
O7A O 0.1746(7) 0.8393(6) 0.2254(5)
O8A O 0.2187(7) 0.7750(6) 0.3705(5)
C3A C 0.3294(8) 0.7509(7) 0.2494(7)
C4A C 0.2329(9) 0.7920(8) 0.2852(7)
O9_2 O 0.4868(6) 0.9463(6) 0.7764(5)
O10_2 O 0.3223(6) 0.7749(5) 0.6092(5)
O11_2 O 0.5188(6) 0.7602(6) 0.5499(5)
O12_2 O 0.6746(6) 0.8884(6) 0.7362(5)
C5_2 C 0.4455(8) 0.8537(8) 0.6813(7)
C6_2 C 0.5562(9) 0.8326(8) 0.6537(7)
O1A O -0.0943(6) -0.5019(5) -0.2004(5)
O2A O 0.0867(6) -0.3369(5) -0.0397(5)
O3A O -0.0900(6) -0.3368(5) -0.3065(4)
O4A O 0.1024(6) -0.1746(5) -0.1495(4)
C1A C -0.0011(8) -0.3845(8) -0.1428(7)
C2A C 0.0050(8) -0.2907(8) -0.2043(7)
La2_2 La -0.74112(4) -0.40945(4) -0.57914(3)
La1A_2 La -0.74998(4) -0.08746(4) 0.07496(3)
La2A_2 La 0.74112(4) 0.40945(4) 0.57914(3)
La2A_3 La -0.25888(4) 0.40945(4) 0.57914(3)
O6A_2 O 0.3530(6) -0.2205(6) 0.1706(5)
O7A_2 O 0.1746(7) -0.1607(6) 0.2254(5)
O9A O 0.5132(6) 0.0537(6) 0.2236(5)
O12A O 0.3254(6) 0.1116(6) 0.2638(5)
O15A_2 O 0.3887(6) -0.1580(5) -0.0199(5)
O16_2 O 0.4017(6) 0.0797(6) 0.0137(5)
O1A_2 O -0.0943(6) 0.4981(5) -0.2004(5)
O3A_2 O -0.0900(6) 0.6632(5) -0.3065(4)
O10A O -0.3223(6) 0.2251(5) -0.6092(5)
O11A O -0.5188(6) 0.2398(6) -0.5499(5)
O17A_2 O -0.3970(6) 0.5215(6) -0.3605(5)
O18_2 O -0.4007(7) 0.4803(7) -0.5703(5)
O19A_2 O -0.0187(6) 0.4406(6) -0.3960(5)
O20_2 O -0.1532(6) 0.5066(6) -0.5532(5)
La1A_3 La 0.25002(4) 0.91254(4) 0.07496(3)
La1_2 La 0.74998(4) 1.08746(4) 0.92504(3)
La2A_4 La -0.25888(4) -0.59055(4) -0.42086(3)
loop_
_geom_bond_atom_site_label_1
_geom_bond_atom_site_label_2
_geom_bond_site_symmetry_1
_geom_bond_site_symmetry_2
La1 O2 1_555 1_555
La2 O1 1_555 1_555
O1 C1 1_555 1_555
O2 C1 1_555 1_555
O3 La2 1_555 1_555
O4 La1 1_555 1_555
O5 C3 1_555 1_555
O6 La1 1_555 1_555
O7 La1 1_555 1_555
O8 C4 1_555 1_555
O9 La1 1_555 1_555
O10 C5 1_555 1_555
O11 C6 1_555 1_555
O12 La1 1_555 1_555
O13 La1 1_555 1_555
O14 C7 1_555 1_555
O15 La1 1_555 1_555
O16 C8 1_555 1_555
O17 La2 1_555 1_555
O18 C9 1_555 1_555
O19 La2 1_555 1_555
O20 C10 1_555 1_555
C1 C2 1_555 1_555
C2 O3 1_555 1_555
C3 O6 1_555 1_555
C4 O7 1_555 1_555
C5 O9 1_555 1_555
C6 O12 1_555 1_555
C7 O13 1_555 1_555
C8 O15 1_555 1_555
C9 O17 1_555 1_555
C10 O19 1_555 1_555
N1 C11 1_555 1_555
C11 C12 1_555 1_555
C12 C13 1_555 1_555
C13 N2 1_555 1_555
N3 C15 1_555 1_555
C14 C15 1_555 1_555
C16 C14 1_555 1_555
N4 C16 1_555 1_555
C7A C7 1_555 1_555
O13A C7A 1_555 1_555
O14A La1 1_555 1_555
C8A C8 1_555 1_555
O15A C8A 1_555 1_555
O16A La1 1_555 1_555
C9A C9 1_555 1_555
O17A C9A 1_555 1_555
O18A La2 1_555 1_555
C10A C10 1_555 1_555
O19A C10A 1_555 1_555
O20A La2 1_555 1_555
La1A O14 1_555 1_555
La2A O5 1_555 1_555
O5A La2 1_555 1_555
O6A C3A 1_555 1_555
O7A C4A 1_555 1_555
O8A La2 1_555 1_555
C3A O5A 1_555 1_555
C4A O8A 1_555 1_555
O9_2 C5_2 1_555 1_555
O10_2 La2 1_555 1_555
O11_2 La2 1_555 1_555
O12_2 C6_2 1_555 1_555
C5_2 O10_2 1_555 1_555
C6_2 O11_2 1_555 1_555
O1A C1A 1_555 1_555
O2A La1A 1_555 1_555
O3A C2A 1_555 1_555
O4A La1A 1_555 1_555
C1A O2A 1_555 1_555
C2A O4A 1_555 1_555
La2_2 O10 1_555 1_555
La1A_2 O16 1_555 1_555
La2A_2 O18 1_555 1_555
La2A_3 O20 1_555 1_555
O6A_2 La1A 1_555 1_555
O7A_2 La1A 1_555 1_555
O9A La1A 1_555 1_555
O12A La1A 1_555 1_555
O15A_2 La1A 1_555 1_555
O16_2 La1A 1_555 1_555
O1A_2 La2A 1_555 1_555
O3A_2 La2A 1_555 1_555
O10A La2A 1_555 1_555
O11A La2A 1_555 1_555
O17A_2 La2A 1_555 1_555
O18_2 La2A 1_555 1_555
O19A_2 La2A 1_555 1_555
O20_2 La2A 1_555 1_555
La1A_3 O6A 1_555 1_555
La1_2 O9_2 1_555 1_555
La2A_4 O1A 1_555 1_555
O4 C2 1_555 1_555
O8 La2A 1_555 1_555
O11 La2_2 1_555 1_555
C3 C4 1_555 1_555
C5 C6 1_555 1_555
C7A O14A 1_555 1_555
O13A La1A 1_555 1_555
C8A O16A 1_555 1_555
O15A La1A_2 1_555 1_555
C9A O18A 1_555 1_555
O17A La2A_2 1_555 1_555
C10A O20A 1_555 1_555
O19A La2A_3 1_555 1_555
O7A La1A_3 1_555 1_555
C3A C4A 1_555 1_555
O12_2 La1_2 1_555 1_555
C5_2 C6_2 1_555 1_555
O3A La2A_4 1_555 1_555
C1A C2A 1_555 1_555

#END
