
#######################################################################
#
#                 Cambridge Crystallographic Data Centre
#                                CCDC 
#
#######################################################################
#
# If this CIF has been generated from an entry in the Cambridge 
# Structural Database, then it will include bibliographic, chemical, 
# crystal, experimental, refinement or atomic coordinate data resulting 
# from the CCDC's data processing and validation procedures.
#
#######################################################################

data_YEBMOI
_symmetry_cell_setting           monoclinic
_symmetry_space_group_name_H-M   'P 2/n'
_symmetry_Int_Tables_number      13
_space_group_name_Hall           '-P 2yac'
loop_
_symmetry_equiv_pos_site_id
_symmetry_equiv_pos_as_xyz
1 x,y,z
2 1/2-x,y,1/2-z
3 -x,-y,-z
4 1/2+x,-y,1/2+z
_cell_length_a                   7.6465(9)
_cell_length_b                   7.1888(5)
_cell_length_c                   19.1421(16)
_cell_angle_alpha                90
_cell_angle_beta                 100.284(8)
_cell_angle_gamma                90
_cell_volume                     1035.32
loop_
_atom_site_label
_atom_site_type_symbol
_atom_site_fract_x
_atom_site_fract_y
_atom_site_fract_z
Ag1 Ag 0.67648(3) 0.44824(4) 0.068220(13)
Ag2 Ag 0.75000 0.50221(5) 0.25000
Mo1 Mo 1.19194(4) 0.48274(4) 0.139630(16)
F1 F 1.25000 0.4041(4) 0.25000
F2 F 1.1786(2) 0.2175(3) 0.12478(10)
F3 F 1.4513(2) 0.4402(3) 0.15235(11)
F4 F 1.2541(3) 0.7249(3) 0.17616(10)
O1 O 0.8280(3) 0.4558(4) -0.05253(15)
O2 O 0.9718(3) 0.4977(3) 0.15274(14)
N1 N 0.6681(3) 0.7550(5) 0.06488(13)
N2 N 0.6806(3) 1.1421(4) 0.06974(12)
N3 N 0.75000 0.1952(6) 0.25000
N4 N 0.75000 -0.1913(6) 0.25000
C1 C 0.8059(4) 0.8495(5) 0.04769(17)
C2 C 0.8115(5) 1.0409(5) 0.05064(19)
C3 C 0.5451(4) 1.0480(5) 0.08880(17)
C4 C 0.5391(4) 0.8540(5) 0.08625(16)
C5 C 0.6079(4) 0.0975(5) 0.26217(17)
C6 C 0.6084(4) -0.0955(5) 0.26246(17)
H1 H 0.902 0.783 0.033
H2 H 0.913 1.104 0.039
H3 H 0.451 1.116 0.104
H4 H 0.441 0.790 0.100
H5 H 0.504 0.163 0.271
H6 H 0.506 -0.162 0.272
Ag1A Ag 0.82352(3) 0.44824(4) 0.431780(13)
Ag1_2 Ag 0.67648(3) 1.44824(4) 0.068220(13)
Ag1_3 Ag 0.67648(3) -0.55176(4) 0.068220(13)
Ag1B Ag 1.32352(3) 0.55176(4) -0.068220(13)
Ag2_2 Ag 0.75000 -0.49779(5) 0.25000
Mo1A Mo 0.30806(4) 0.48274(4) 0.360370(16)
Mo1A_2 Mo 1.30806(4) 0.48274(4) 0.360370(16)
Mo1B Mo 0.80806(4) 0.51726(4) -0.139630(16)
F1_2 F 0.25000 0.4041(4) 0.25000
F2A F 0.3214(2) 0.2175(3) 0.37522(10)
F3A F 0.0487(2) 0.4402(3) 0.34765(11)
F4A F 0.2459(3) 0.7249(3) 0.32384(10)
O1B O 1.1720(3) 0.5442(4) 0.05253(15)
O1A O 0.6720(3) 0.4558(4) 0.55253(15)
O1C O 0.3280(3) 0.5442(4) 0.44747(15)
O2A O 0.5282(3) 0.4977(3) 0.34726(14)
N1_2 N 0.6681(3) -0.2450(5) 0.06488(13)
N1A N 0.8319(3) 0.7550(5) 0.43512(13)
N2_2 N 0.6806(3) 0.1421(4) 0.06974(12)
N2A N 0.8194(3) 0.1421(4) 0.43026(12)
N4_2 N 0.75000 0.8087(6) 0.25000
C1_2 C 0.8059(4) -0.1505(5) 0.04769(17)
C2_2 C 0.8115(5) 0.0409(5) 0.05064(19)
C3_2 C 0.5451(4) 0.0480(5) 0.08880(17)
C4_2 C 0.5391(4) -0.1460(5) 0.08625(16)
C5A C 0.8921(4) 0.0975(5) 0.23783(17)
C6A C 0.8916(4) -0.0955(5) 0.23754(17)
H1_2 H 0.902 -0.217 0.033
H2_2 H 0.913 0.104 0.039
H3_2 H 0.451 0.116 0.104
H4_2 H 0.441 -0.210 0.100
H5A H 0.996 0.163 0.229
H6A H 0.994 -0.162 0.228
loop_
_geom_bond_atom_site_label_1
_geom_bond_atom_site_label_2
_geom_bond_site_symmetry_1
_geom_bond_site_symmetry_2
Ag1 O1 1_555 1_555
Ag2 O2 1_555 1_555
Mo1 F1 1_555 1_555
F1 Mo1A_2 1_555 1_555
F2 Mo1 1_555 1_555
F3 Mo1 1_555 1_555
F4 Mo1 1_555 1_555
O1 Mo1B 1_555 1_555
O2 Ag1 1_555 1_555
N1 Ag1 1_555 1_555
N2 C2 1_555 1_555
N3 Ag2 1_555 1_555
N4 C6 1_555 1_555
C1 N1 1_555 1_555
C2 C1 1_555 1_555
C3 N2 1_555 1_555
C4 N1 1_555 1_555
C5 N3 1_555 1_555
C6 C5 1_555 1_555
H1 C1 1_555 1_555
H2 C2 1_555 1_555
H3 C3 1_555 1_555
H4 C4 1_555 1_555
H5 C5 1_555 1_555
H6 C6 1_555 1_555
Ag1A O1A 1_555 1_555
Ag1_2 N2 1_555 1_555
Ag1_3 N1_2 1_555 1_555
Ag1B O1B 1_555 1_555
Ag2_2 N4 1_555 1_555
Mo1A F1_2 1_555 1_555
F2A Mo1A 1_555 1_555
F3A Mo1A 1_555 1_555
F4A Mo1A 1_555 1_555
O1B Mo1 1_555 1_555
O1C Mo1A 1_555 1_555
O2A Ag2 1_555 1_555
N1_2 C1_2 1_555 1_555
N1A Ag1A 1_555 1_555
N2_2 Ag1 1_555 1_555
N2A Ag1A 1_555 1_555
N4_2 Ag2 1_555 1_555
C1_2 C2_2 1_555 1_555
C2_2 N2_2 1_555 1_555
C3_2 N2_2 1_555 1_555
C4_2 N1_2 1_555 1_555
C5A N3 1_555 1_555
C6A N4 1_555 1_555
H1_2 C1_2 1_555 1_555
H2_2 C2_2 1_555 1_555
H3_2 C3_2 1_555 1_555
H4_2 C4_2 1_555 1_555
H5A C5A 1_555 1_555
H6A C6A 1_555 1_555
Mo1 O2 1_555 1_555
C3 C4 1_555 1_555
Ag1A O2A 1_555 1_555
Mo1A O2A 1_555 1_555
C3_2 C4_2 1_555 1_555
C5A C6A 1_555 1_555

#END
