
#######################################################################
#
#                 Cambridge Crystallographic Data Centre
#                                CCDC 
#
#######################################################################
#
# If this CIF has been generated from an entry in the Cambridge 
# Structural Database, then it will include bibliographic, chemical, 
# crystal, experimental, refinement or atomic coordinate data resulting 
# from the CCDC's data processing and validation procedures.
#
#######################################################################

data_YEBNUP
_symmetry_cell_setting           orthorhombic
_symmetry_space_group_name_H-M   'P 21 21 21'
_symmetry_Int_Tables_number      19
_space_group_name_Hall           'P 2ac 2ab'
loop_
_symmetry_equiv_pos_site_id
_symmetry_equiv_pos_as_xyz
1 x,y,z
2 1/2-x,-y,1/2+z
3 -x,1/2+y,1/2-z
4 1/2+x,1/2-y,-z
_cell_length_a                   8.592(2)
_cell_length_b                   15.872(3)
_cell_length_c                   20.296(4)
_cell_angle_alpha                90
_cell_angle_beta                 90
_cell_angle_gamma                90
_cell_volume                     2767.81
loop_
_atom_site_label
_atom_site_type_symbol
_atom_site_fract_x
_atom_site_fract_y
_atom_site_fract_z
Sm1 Sm 0.63960(2) 0.112747(12) 0.430904(9)
Cu1 Cu 0.75993(6) -0.04105(3) 0.31465(3)
N1 N 0.7363(5) -0.1649(2) 0.30740(19)
N2 N 0.8988(4) -0.0280(2) 0.23790(18)
O1 O 0.6156(3) -0.03156(16) 0.38812(13)
O2 O 0.7576(3) 0.08261(15) 0.32559(12)
O3 O 0.4460(4) 0.0122(2) 0.48775(16)
O4 O 0.6368(4) 0.23115(15) 0.34485(13)
O5 O 0.7231(4) 0.08066(19) 0.55028(13)
O6 O 0.8526(4) 0.01964(17) 0.47058(14)
O7 O 1.1556(4) -0.0758(2) 0.67217(16)
O8 O 1.0322(4) 0.00769(19) 0.74683(15)
O9 O 0.5052(3) 0.21303(17) 0.49466(14)
O10 O 0.8996(3) 0.37765(18) 0.62580(13)
O11 O 0.7479(3) 0.47237(18) 0.67483(15)
C1 C 0.6615(6) -0.2075(3) 0.3498(2)
H1 H 0.6636 -0.2668 0.3433
C2 C 0.5732(5) -0.1796(3) 0.4066(2)
C3 C 0.5045(6) -0.2404(3) 0.4472(3)
H2 H 0.5195 -0.2982 0.4368
C4 C 0.4191(4) -0.2207(3) 0.4998(2)
H3 H 0.3760 -0.2641 0.5264
C5 C 0.3917(4) -0.1330(3) 0.5165(2)
H4 H 0.3292 -0.1175 0.5531
C6 C 0.4592(5) -0.0734(3) 0.4766(2)
C7 C 0.5526(5) -0.0929(2) 0.4221(2)
C8 C 0.7613(4) 0.1357(2) 0.2754(2)
C9 C 0.6951(4) 0.2166(2) 0.2825(2)
C10 C 0.6925(5) 0.2741(3) 0.2321(2)
H5 H 0.6434 0.3273 0.2379
C11 C 0.7627(6) 0.2538(3) 0.1720(2)
H6 H 0.7629 0.2934 0.1369
C12 C 0.8303(5) 0.1775(3) 0.1642(2)
H7 H 0.8783 0.1644 0.1233
C13 C 0.8316(4) 0.1169(3) 0.21489(19)
C14 C 0.9114(6) 0.0390(3) 0.2039(2)
H8 H 0.9808 0.0371 0.1675
C15 C 0.9971(6) -0.0995(3) 0.2182(3)
H9 H 1.0726 -0.1120 0.2537
H10 H 1.0565 -0.0844 0.1781
C16 C 0.9024(7) -0.1750(3) 0.2050(3)
H11 H 0.8187 -0.1589 0.1739
H12 H 0.9692 -0.2167 0.1823
C17 C 0.8308(8) -0.2164(3) 0.2610(3)
H13 H 0.9147 -0.2437 0.2868
H14 H 0.7632 -0.2619 0.2439
C18 C 0.3330(5) 0.0401(3) 0.5345(2)
H15 H 0.2300 0.0192 0.5218
H16 H 0.3316 0.1018 0.5357
H17 H 0.3599 0.0183 0.5783
C19 C 0.5657(6) 0.3120(2) 0.35576(17)
H18 H 0.6457 0.3560 0.3544
H19 H 0.5147 0.3124 0.3990
H20 H 0.4882 0.3227 0.3213
C20 C 0.8316(4) 0.03191(19) 0.53149(17)
C21 C 0.9331(5) -0.0092(2) 0.5776(2)
H21 H 1.0037 -0.0501 0.5611
C22 C 0.9342(6) 0.0060(3) 0.6395(2)
H22 H 0.8542 0.0411 0.6565
C23 C 1.0530(6) -0.0278(3) 0.6878(2)
C24 C 0.7696(4) 0.4093(2) 0.63860(18)
O12 O 0.3559(3) 0.29605(15) 0.55436(12)
C25 C 0.4881(4) 0.2706(2) 0.53728(18)
C26 C 0.6312(4) 0.30785(19) 0.56581(18)
H23 H 0.7292 0.2865 0.5521
C27 C 0.6280(4) 0.3700(2) 0.60990(17)
H24 H 0.5294 0.3905 0.6238
O13 O 0.9984(4) -0.0738(2) 0.37727(18)
H25 H 1.086(6) -0.043(3) 0.367(3)
H26 H 0.972(6) -0.049(3) 0.415(3)
Sm1C Sm 1.13960(2) 0.387253(12) 0.569096(9)
Sm1C_2 Sm 0.13960(2) 0.387253(12) 0.569096(9)
O10C O 0.3996(3) 0.12235(18) 0.37420(13)
O12C O 0.8559(3) 0.20395(15) 0.44564(12)
loop_
_geom_bond_atom_site_label_1
_geom_bond_atom_site_label_2
_geom_bond_site_symmetry_1
_geom_bond_site_symmetry_2
Sm1 O1 1_555 1_555
Cu1 N1 1_555 1_555
N1 C1 1_555 1_555
N2 Cu1 1_555 1_555
O1 Cu1 1_555 1_555
O2 Sm1 1_555 1_555
O3 Sm1 1_555 1_555
O4 Sm1 1_555 1_555
O5 Sm1 1_555 1_555
O6 Sm1 1_555 1_555
O7 C23 1_555 1_555
O8 C23 1_555 1_555
O9 Sm1 1_555 1_555
O10 C24 1_555 1_555
O11 C24 1_555 1_555
C1 H1 1_555 1_555
C2 C1 1_555 1_555
C3 C2 1_555 1_555
H2 C3 1_555 1_555
C4 C3 1_555 1_555
H3 C4 1_555 1_555
C5 C4 1_555 1_555
H4 C5 1_555 1_555
C6 O3 1_555 1_555
C7 O1 1_555 1_555
C8 O2 1_555 1_555
C9 O4 1_555 1_555
C10 C9 1_555 1_555
H5 C10 1_555 1_555
C11 C10 1_555 1_555
H6 C11 1_555 1_555
C12 C11 1_555 1_555
H7 C12 1_555 1_555
C13 C8 1_555 1_555
C14 N2 1_555 1_555
H8 C14 1_555 1_555
C15 N2 1_555 1_555
H9 C15 1_555 1_555
H10 C15 1_555 1_555
C16 C15 1_555 1_555
H11 C16 1_555 1_555
H12 C16 1_555 1_555
C17 N1 1_555 1_555
H13 C17 1_555 1_555
H14 C17 1_555 1_555
C18 O3 1_555 1_555
H15 C18 1_555 1_555
H16 C18 1_555 1_555
H17 C18 1_555 1_555
C19 O4 1_555 1_555
H18 C19 1_555 1_555
H19 C19 1_555 1_555
H20 C19 1_555 1_555
C20 O5 1_555 1_555
C21 C20 1_555 1_555
H21 C21 1_555 1_555
C22 C21 1_555 1_555
H22 C22 1_555 1_555
C23 C22 1_555 1_555
C24 C27 1_555 1_555
O12 C25 1_555 1_555
C25 O9 1_555 1_555
C26 C25 1_555 1_555
H23 C26 1_555 1_555
C27 C26 1_555 1_555
H24 C27 1_555 1_555
O13 Cu1 1_555 1_555
H25 O13 1_555 1_555
H26 O13 1_555 1_555
Sm1C O10 1_555 1_555
Sm1C_2 O12 1_555 1_555
O10C Sm1 1_555 1_555
O12C Sm1 1_555 1_555
Cu1 O2 1_555 1_555
O6 C20 1_555 1_555
C2 C7 1_555 1_555
C5 C6 1_555 1_555
C6 C7 1_555 1_555
C8 C9 1_555 1_555
C12 C13 1_555 1_555
C13 C14 1_555 1_555
C16 C17 1_555 1_555

#END
