
#######################################################################
#
#                 Cambridge Crystallographic Data Centre
#                                CCDC 
#
#######################################################################
#
# If this CIF has been generated from an entry in the Cambridge 
# Structural Database, then it will include bibliographic, chemical, 
# crystal, experimental, refinement or atomic coordinate data resulting 
# from the CCDC's data processing and validation procedures.
#
#######################################################################

data_YEBNID
_symmetry_cell_setting           triclinic
_symmetry_space_group_name_H-M   'P -1'
_symmetry_Int_Tables_number      2
_space_group_name_Hall           '-P 1'
loop_
_symmetry_equiv_pos_site_id
_symmetry_equiv_pos_as_xyz
1 x,y,z
2 -x,-y,-z
_cell_length_a                   12.492(2)
_cell_length_b                   15.593(3)
_cell_length_c                   30.232(6)
_cell_angle_alpha                93.85(3)
_cell_angle_beta                 97.79(3)
_cell_angle_gamma                101.02(3)
_cell_volume                     5700.62
loop_
_atom_site_label
_atom_site_type_symbol
_atom_site_fract_x
_atom_site_fract_y
_atom_site_fract_z
Gd1 Gd 0.21272(3) 0.87092(2) 0.105929(11)
Cu1 Cu 0.48484(6) 0.93345(5) 0.15956(3)
N1 N 0.6186(4) 0.9926(4) 0.13875(19)
N2 N 0.5542(5) 0.9035(4) 0.2175(2)
O1 O 0.3900(3) 0.9564(3) 0.10670(14)
O2 O 0.3375(4) 0.8968(3) 0.17465(15)
O3 O 0.2322(4) 0.9648(3) 0.04177(15)
O4 O 0.1267(4) 0.8618(3) 0.17806(15)
O5 O 0.1900(4) 1.0264(3) 0.13093(16)
O6 O 0.0430(4) 0.9336(3) 0.09483(16)
O7 O 0.0827(4) 0.7769(3) 0.05390(16)
O8 O -0.0689(5) 0.7804(4) 0.00695(19)
O9 O 0.2081(4) 0.7331(3) 0.13309(16)
O10 O 0.3399(4) 0.6642(3) 0.16138(18)
O11 O 0.3104(4) 0.7968(3) 0.05524(16)
C1 C 0.6181(6) 1.0400(4) 0.1050(2)
H1 H 0.6884 1.0696 0.0998
C2 C 0.5256(5) 1.0533(4) 0.0747(2)
C3 C 0.5472(6) 1.1079(5) 0.0405(2)
H2 H 0.6205 1.1387 0.0403
C4 C 0.4652(6) 1.1179(5) 0.0076(2)
H3 H 0.4809 1.1568 -0.0146
C5 C 0.3574(6) 1.0697(4) 0.0069(2)
H4 H 0.3002 1.0744 -0.0164
C6 C 0.3352(5) 1.0159(4) 0.0402(2)
C7 C 0.4177(5) 1.0080(4) 0.0749(2)
C8 C 0.1951(6) 0.8540(4) 0.2169(2)
C9 C 0.1596(6) 0.8324(5) 0.2563(2)
H5 H 0.0831 0.8222 0.2585
C10 C 0.2355(7) 0.8254(5) 0.2931(3)
H6 H 0.2107 0.8091 0.3203
C11 C 0.3470(7) 0.8418(5) 0.2905(3)
H7 H 0.3982 0.8372 0.3160
C12 C 0.3854(6) 0.8653(5) 0.2507(2)
C13 C 0.3093(6) 0.8738(4) 0.2139(2)
C14 C 0.5024(6) 0.8784(5) 0.2496(3)
H8 H 0.5464 0.8670 0.2759
C15 C 0.6761(7) 0.9137(7) 0.2282(3)
H9 H 0.7065 0.9698 0.2469
H10 H 0.6929 0.8656 0.2460
C16 C 0.7310(7) 0.9128(6) 0.1884(3)
H11 H 0.6956 0.8588 0.1686
H12 H 0.8088 0.9089 0.1981
C17 C 0.7302(6) 0.9887(5) 0.1616(3)
H13 H 0.7795 0.9857 0.1388
H14 H 0.7601 1.0434 0.1816
C18 C 0.1493(6) 0.9576(6) 0.0027(3)
H15 H 0.1271 1.0142 -0.0001
H16 H 0.0850 0.9127 0.0059
H17 H 0.1796 0.9410 -0.0241
C19 C 0.0132(6) 0.8142(5) 0.1748(2)
H18 H 0.0126 0.7524 0.1792
H19 H -0.0271 0.8183 0.1451
H20 H -0.0224 0.8399 0.1979
C20 C 0.0908(6) 1.0086(4) 0.1130(2)
C21 C 0.0264(6) 1.0781(4) 0.1117(3)
C22 C -0.0262(6) 1.1338(5) 0.1095(2)
C23 C -0.0868(5) 1.2069(4) 0.1117(2)
C24 C -0.0167(6) 0.7517(5) 0.0374(2)
C25 C -0.0792(6) 0.6783(5) 0.0588(2)
C26 C 0.2425(6) 0.6748(4) 0.1537(2)
C27 C 0.1587(5) 0.6125(4) 0.1718(2)
Gd2 Gd -0.1928 0.3521 0.1313
Cu2 Cu -0.4722 0.3030 0.0839
N3 N -0.5471 0.3459 0.0295
N4 N -0.6045 0.2409 0.1053
O12 O -0.3272 0.3425 0.0666
O13 O -0.3734 0.2687 0.1320
O14 O -0.1202 0.3666 0.0563
O15 O -0.2100 0.2524 0.1925
O16 O -0.0351 1.2780 0.1320
O17 O -0.1864 1.1947 0.0949
O18 O -0.0358 0.4300 0.1795
O19 O 0.0035 0.5124 0.2450
O20 O -0.1757 0.4961 0.1102
O21 O -0.3107 0.5698 0.0940
O22 O -0.2703 0.4255 0.1877
C28 C -0.4975 0.3795 -0.0015
H21 H -0.5422 0.3993 -0.0250
C29 C -0.3817 0.3909 -0.0049
C30 C -0.3482 0.4231 -0.0448
H22 H -0.4015 0.4366 -0.0674
C31 C -0.2394 0.4349 -0.0513
C32 C -0.1616 0.4154 -0.0176
H23 H -0.0866 0.4226 -0.0219
C33 C -0.1915 0.3863 0.0216
C34 C -0.3027 0.3721 0.0285
C35 C -0.3154 0.2135 0.1997
C36 C -0.3353 0.1685 0.2362
H24 H -0.2762 0.1634 0.2585
C37 C -0.4444 0.1302 0.2399
H25 H -0.4598 0.0979 0.2646
C38 C -0.5284 0.1396 0.2078
H26 H -0.6021 0.1134 0.2106
C39 C -0.5090 0.1868 0.1706
C40 C -0.3998 0.2239 0.1666
C41 C -0.6024 0.1976 0.1405
H27 H -0.6722 0.1695 0.1470
C42 C -0.7151 0.2413 0.0811
H28 H -0.7701 0.2289 0.1017
H29 H -0.7340 0.1940 0.0561
C43 C -0.7213 0.3268 0.0628
H30 H -0.6843 0.3749 0.0862
H31 H -0.7998 0.3312 0.0561
C44 C -0.6694 0.3398 0.0211
H32 H -0.7033 0.2901 -0.0018
H33 H -0.6851 0.3942 0.0089
C45 C -0.0065 0.4107 0.0587
H34 H 0.0242 0.3876 0.0333
H35 H 0.0361 0.4004 0.0868
H36 H -0.0026 0.4738 0.0575
C46 C -0.1189 0.2441 0.2255
H37 H -0.1276 0.2707 0.2548
H38 H -0.0497 0.2741 0.2167
H39 H -0.1174 0.1819 0.2274
C47 C 0.0112 0.4969 0.2048
C48 C 0.0906 0.5619 0.1862
C49 C -0.2143 0.5585 0.0948
C50 C -0.1374 0.6241 0.0757
O46 O 0.4754 0.7864 0.1210
O49 O -0.4514 0.4435 0.1298
H80 H 0.3028 0.8237 0.0313
H81 H 0.2730 0.7445 0.0482
H82 H -0.2325 0.4774 0.1933
H83 H -0.3210 0.4198 0.2038
H92 H 0.4407 0.7474 0.1355
H93 H 0.4291 0.8190 0.1125
H98 H -0.5180 0.4399 0.1170
H99 H -0.4113 0.4844 0.1187
Gd2_2 Gd -0.1928 1.3521 0.1313
O16_2 O -0.0351 0.2780 0.1320
O17_2 O -0.1864 0.1947 0.0949
Gd3 Gd 0.1867 0.3796 0.6073
Cu3 Cu 0.4623 0.4295 0.6551
N5 N 0.5978 0.4939 0.6357
N6 N 0.5335 0.3922 0.7108
O23 O 0.3671 0.4582 0.6041
O24 O 0.2081 0.4700 0.5406
O25 O 0.1080 0.3717 0.6806
O26 O 0.1791 0.5390 0.6348
O27 O 0.0296 0.4557 0.5964
O28 O 0.0222 0.2923 0.5661
O29 O 0.0460 0.1729 0.5277
O30 O 0.1753 0.2385 0.6316
O31 O 0.3089 0.1675 0.6551
O32 O 0.2535 0.2946 0.5498
O33 O 0.4384 0.2886 0.6125
C51 C 0.5956 0.5424 0.6026
H40 H 0.6652 0.5746 0.5981
C52 C 0.5027 0.5544 0.5718
C53 C 0.5253 0.6093 0.5373
H41 H 0.5980 0.6415 0.5373
C54 C 0.4433 0.6157 0.5044
H42 H 0.4593 0.6519 0.4811
C55 C 0.3356 0.5700 0.5039
H43 H 0.2787 0.5750 0.4806
C56 C 0.3130 0.5178 0.5377
C57 C 0.3952 0.5091 0.5728
C58 C 0.2905 0.3742 0.7125
C59 C 0.1787 0.3593 0.7182
C60 C 0.1463 0.3363 0.7579
H44 H 0.0706 0.3274 0.7613
C61 C 0.2246 0.3259 0.7931
H45 H 0.2022 0.3106 0.8208
C62 C 0.3338 0.3374 0.7885
H46 H 0.3865 0.3290 0.8127
C63 C 0.3682 0.3619 0.7476
C64 C 0.4839 0.3685 0.7443
H47 H 0.5285 0.3538 0.7695
C65 C 0.6508 0.3878 0.7149
H48 H 0.6768 0.3758 0.7458
H49 H 0.6593 0.3384 0.6942
C66 C 0.7191 0.4682 0.7047
H50 H 0.7971 0.4660 0.7152
H51 H 0.7017 0.5177 0.7227
C67 C 0.7103 0.4890 0.6570
H52 H 0.7602 0.5459 0.6556
H53 H 0.7366 0.4436 0.6393
C68 C 0.1326 0.4464 0.4996
H54 H 0.1099 0.4991 0.4888
H55 H 0.0675 0.4044 0.5049
H56 H 0.1686 0.4196 0.4770
C69 C -0.0056 0.3274 0.6786
H57 H -0.0086 0.2652 0.6827
H58 H -0.0473 0.3328 0.6494
H59 H -0.0379 0.3543 0.7025
C70 C 0.0800 0.5282 0.6164
C71 C 0.0188 0.5991 0.6173
C72 C -0.0378 0.6527 0.6158
C73 C -0.1035 0.7208 0.6178
C74 C -0.0013 0.2112 0.5529
C75 C -0.0961 0.1610 0.5704
C76 C -0.1690 0.1183 0.5857
C77 C -0.2587 0.0635 0.6038
C78 C 0.2131 0.1797 0.6516
C79 C 0.1337 0.1185 0.6720
C80 C 0.0700 0.0679 0.6897
C81 C -0.0033 0.0059 0.7115
Gd4 Gd -0.2152 -0.1389 0.6389
Cu4 Cu -0.4927 -0.1996 0.5901
N7 N -0.5703 -0.1677 0.5338
N8 N -0.6233 -0.2604 0.6139
O34 O -0.3483 -0.1548 0.5739
O35 O -0.3917 -0.2252 0.6408
O36 O -0.1389 -0.1027 0.5692
O37 O -0.2264 -0.2396 0.6999
O38 O -0.2308 0.0054 0.6269
O39 O -0.3537 0.0778 0.5959
O40 O -0.0643 -0.0569 0.6862
O41 O 0.0022 0.0175 0.7529
O42 O -0.0543 0.7949 0.6378
O43 O -0.2027 0.7055 0.6013
O44 O -0.2964 -0.0679 0.7003
C82 C -0.5201 -0.1288 0.5039
H60 H -0.5666 -0.1131 0.4796
C83 C -0.4039 -0.1057 0.5022
C84 C -0.3716 -0.0685 0.4637
H61 H -0.4261 -0.0625 0.4396
C85 C -0.2629 -0.0410 0.4608
H62 H -0.2420 -0.0150 0.4349
C86 C -0.1817 -0.0507 0.4956
H63 H -0.1059 -0.0314 0.4935
C87 C -0.2120 -0.0880 0.5326
C88 C -0.3237 -0.1185 0.5366
C89 C -0.3304 -0.2802 0.7077
C90 C -0.3486 -0.3254 0.7443
H64 H -0.2883 -0.3307 0.7660
C91 C -0.4565 -0.3636 0.7493
H65 H -0.4700 -0.3958 0.7742
C92 C -0.5419 -0.3544 0.7181
H66 H -0.6152 -0.3796 0.7219
C93 C -0.5240 -0.3080 0.6802
C94 C -0.4167 -0.2698 0.6750
C95 C -0.6193 -0.2972 0.6505
H67 H -0.6885 -0.3204 0.6591
C96 C -0.7372 -0.2639 0.5904
H68 H -0.7599 -0.3175 0.5691
H69 H -0.7885 -0.2681 0.6128
C97 C -0.7469 -0.1864 0.5656
H70 H -0.7125 -0.1324 0.5855
H71 H -0.8259 -0.1853 0.5569
C98 C -0.6922 -0.1866 0.5238
H72 H -0.7175 -0.2448 0.5063
H73 H -0.7159 -0.1422 0.5048
C99 C -0.0238 -0.0628 0.5708
H74 H 0.0067 -0.0927 0.5474
H75 H 0.0170 -0.0680 0.6002
H76 H -0.0170 -0.0006 0.5659
C100 C -0.1317 -0.2518 0.7302
H77 H -0.1374 -0.2301 0.7608
H78 H -0.0642 -0.2191 0.7212
H79 H -0.1294 -0.3143 0.7291
O53 O -0.4856 -0.0558 0.6344
H84 H 0.2397 0.2516 0.5295
H85 H 0.2660 0.3415 0.5364
H86 H 0.4002 0.2532 0.6273
H87 H 0.3974 0.3243 0.6030
H88 H -0.2815 -0.0118 0.6997
H89 H -0.3562 -0.0799 0.7114
H106 H -0.5531 -0.0609 0.6225
H107 H -0.4475 -0.0176 0.6206
O58 O 0.3163 0.4019 0.6730
Gd4_2 Gd -0.2152 0.8611 0.6389
O42_2 O -0.0543 -0.2051 0.6378
O43_2 O -0.2027 -0.2945 0.6013
O45 O -0.1819 0.8646 0.0674
H90 H -0.1748 0.8321 0.0445
H91 H -0.1178 0.8952 0.0776
O47 O 0.6552 0.7394 0.0956
H94 H 0.7031 0.7574 0.1190
H95 H 0.6222 0.7815 0.0900
O48 O 0.3715 0.4918 0.1615
H96 H 0.3731 0.5393 0.1773
H97 H 0.3684 0.4510 0.1792
O50 O 0.1758 1.3699 0.1675
H100 H 0.1569 1.4029 0.1875
H101 H 0.1178 1.3331 0.1555
O51 O 0.1653 -0.1477 0.6772
H102 H 0.2309 -0.1604 0.6805
H103 H 0.1668 -0.1102 0.6994
O52 O 0.3237 0.9898 0.6584
H104 H 0.3390 1.0389 0.6749
H105 H 0.2676 0.9929 0.6388
O54 O 0.1807 0.5805 0.7285
H108 H 0.1914 0.5535 0.7045
H109 H 0.1117 0.5815 0.7256
O55 O 0.8161 0.9206 0.7784
H110 H 0.8178 0.9354 0.8061
H111 H 0.8810 0.9403 0.7723
O56 O 0.8228 0.3544 0.5736
H112 H 0.8503 0.4069 0.5854
H113 H 0.8775 0.3313 0.5686
O57 O 0.6355 0.2548 0.5974
H114 H 0.5737 0.2598 0.5819
H115 H 0.6315 0.1996 0.5987
loop_
_geom_bond_atom_site_label_1
_geom_bond_atom_site_label_2
_geom_bond_site_symmetry_1
_geom_bond_site_symmetry_2
Gd1 O1 1_555 1_555
Cu1 N1 1_555 1_555
N1 C1 1_555 1_555
N2 Cu1 1_555 1_555
O1 Cu1 1_555 1_555
O2 Gd1 1_555 1_555
O3 Gd1 1_555 1_555
O4 Gd1 1_555 1_555
O5 Gd1 1_555 1_555
O6 Gd1 1_555 1_555
O7 Gd1 1_555 1_555
O8 C24 1_555 1_555
O9 Gd1 1_555 1_555
O10 C26 1_555 1_555
O11 Gd1 1_555 1_555
C1 H1 1_555 1_555
C2 C1 1_555 1_555
C3 C2 1_555 1_555
H2 C3 1_555 1_555
C4 C3 1_555 1_555
H3 C4 1_555 1_555
C5 C4 1_555 1_555
H4 C5 1_555 1_555
C6 O3 1_555 1_555
C7 O1 1_555 1_555
C8 O4 1_555 1_555
C9 C8 1_555 1_555
H5 C9 1_555 1_555
C10 C9 1_555 1_555
H6 C10 1_555 1_555
C11 C10 1_555 1_555
H7 C11 1_555 1_555
C12 C11 1_555 1_555
C13 O2 1_555 1_555
C14 N2 1_555 1_555
H8 C14 1_555 1_555
C15 N2 1_555 1_555
H9 C15 1_555 1_555
H10 C15 1_555 1_555
C16 C15 1_555 1_555
H11 C16 1_555 1_555
H12 C16 1_555 1_555
C17 N1 1_555 1_555
H13 C17 1_555 1_555
H14 C17 1_555 1_555
C18 O3 1_555 1_555
H15 C18 1_555 1_555
H16 C18 1_555 1_555
H17 C18 1_555 1_555
C19 O4 1_555 1_555
H18 C19 1_555 1_555
H19 C19 1_555 1_555
H20 C19 1_555 1_555
C20 O5 1_555 1_555
C21 C20 1_555 1_555
C22 C21 1_555 1_555
C23 C22 1_555 1_555
C24 O7 1_555 1_555
C25 C24 1_555 1_555
C26 O9 1_555 1_555
C27 C26 1_555 1_555
Gd2 O12 1_555 1_555
Cu2 N3 1_555 1_555
N3 C28 1_555 1_555
N4 Cu2 1_555 1_555
O12 Cu2 1_555 1_555
O13 Gd2 1_555 1_555
O14 Gd2 1_555 1_555
O15 Gd2 1_555 1_555
O16 C23 1_555 1_555
O17 C23 1_555 1_555
O18 Gd2 1_555 1_555
O19 C47 1_555 1_555
O20 Gd2 1_555 1_555
O21 C49 1_555 1_555
O22 Gd2 1_555 1_555
C28 H21 1_555 1_555
C29 C28 1_555 1_555
C30 C29 1_555 1_555
H22 C30 1_555 1_555
C31 C30 1_555 1_555
C32 C31 1_555 1_555
H23 C32 1_555 1_555
C33 O14 1_555 1_555
C34 O12 1_555 1_555
C35 O15 1_555 1_555
C36 C35 1_555 1_555
H24 C36 1_555 1_555
C37 C36 1_555 1_555
H25 C37 1_555 1_555
C38 C37 1_555 1_555
H26 C38 1_555 1_555
C39 C38 1_555 1_555
C40 O13 1_555 1_555
C41 N4 1_555 1_555
H27 C41 1_555 1_555
C42 N4 1_555 1_555
H28 C42 1_555 1_555
H29 C42 1_555 1_555
C43 C42 1_555 1_555
H30 C43 1_555 1_555
H31 C43 1_555 1_555
C44 N3 1_555 1_555
H32 C44 1_555 1_555
H33 C44 1_555 1_555
C45 O14 1_555 1_555
H34 C45 1_555 1_555
H35 C45 1_555 1_555
H36 C45 1_555 1_555
C46 O15 1_555 1_555
H37 C46 1_555 1_555
H38 C46 1_555 1_555
H39 C46 1_555 1_555
C47 O18 1_555 1_555
C48 C27 1_555 1_555
C49 O20 1_555 1_555
C50 C25 1_555 1_555
Gd3 O23 1_555 1_555
Cu3 N5 1_555 1_555
N5 C51 1_555 1_555
N6 Cu3 1_555 1_555
O23 Cu3 1_555 1_555
O24 Gd3 1_555 1_555
O25 Gd3 1_555 1_555
O26 Gd3 1_555 1_555
O27 Gd3 1_555 1_555
O28 Gd3 1_555 1_555
O29 C74 1_555 1_555
O30 Gd3 1_555 1_555
O31 C78 1_555 1_555
O32 Gd3 1_555 1_555
O33 Cu3 1_555 1_555
C51 H40 1_555 1_555
C52 C51 1_555 1_555
C53 C52 1_555 1_555
H41 C53 1_555 1_555
C54 C53 1_555 1_555
H42 C54 1_555 1_555
C55 C54 1_555 1_555
H43 C55 1_555 1_555
C56 O24 1_555 1_555
C57 O23 1_555 1_555
C58 C59 1_555 1_555
C59 O25 1_555 1_555
C60 C59 1_555 1_555
H44 C60 1_555 1_555
C61 C60 1_555 1_555
H45 C61 1_555 1_555
C62 C61 1_555 1_555
H46 C62 1_555 1_555
C63 C58 1_555 1_555
C64 N6 1_555 1_555
H47 C64 1_555 1_555
C65 N6 1_555 1_555
H48 C65 1_555 1_555
H49 C65 1_555 1_555
C66 C65 1_555 1_555
H50 C66 1_555 1_555
H51 C66 1_555 1_555
C67 N5 1_555 1_555
H52 C67 1_555 1_555
H53 C67 1_555 1_555
C68 O24 1_555 1_555
H54 C68 1_555 1_555
H55 C68 1_555 1_555
H56 C68 1_555 1_555
C69 O25 1_555 1_555
H57 C69 1_555 1_555
H58 C69 1_555 1_555
H59 C69 1_555 1_555
C70 O26 1_555 1_555
C71 C70 1_555 1_555
C72 C71 1_555 1_555
C73 C72 1_555 1_555
C74 O28 1_555 1_555
C75 C74 1_555 1_555
C76 C75 1_555 1_555
C77 C76 1_555 1_555
C78 O30 1_555 1_555
C79 C78 1_555 1_555
C80 C79 1_555 1_555
C81 C80 1_555 1_555
Gd4 O34 1_555 1_555
Cu4 N7 1_555 1_555
N7 C82 1_555 1_555
N8 Cu4 1_555 1_555
O34 Cu4 1_555 1_555
O35 Gd4 1_555 1_555
O36 Gd4 1_555 1_555
O37 Gd4 1_555 1_555
O38 C77 1_555 1_555
O39 C77 1_555 1_555
O40 C81 1_555 1_555
O41 C81 1_555 1_555
O42 C73 1_555 1_555
O43 C73 1_555 1_555
O44 Gd4 1_555 1_555
C82 H60 1_555 1_555
C83 C82 1_555 1_555
C84 C83 1_555 1_555
H61 C84 1_555 1_555
C85 C84 1_555 1_555
H62 C85 1_555 1_555
C86 C85 1_555 1_555
H63 C86 1_555 1_555
C87 O36 1_555 1_555
C88 O34 1_555 1_555
C89 O37 1_555 1_555
C90 C89 1_555 1_555
H64 C90 1_555 1_555
C91 C90 1_555 1_555
H65 C91 1_555 1_555
C92 C91 1_555 1_555
H66 C92 1_555 1_555
C93 C92 1_555 1_555
C94 O35 1_555 1_555
C95 N8 1_555 1_555
H67 C95 1_555 1_555
C96 N8 1_555 1_555
H68 C96 1_555 1_555
H69 C96 1_555 1_555
C97 C96 1_555 1_555
H70 C97 1_555 1_555
H71 C97 1_555 1_555
C98 N7 1_555 1_555
H72 C98 1_555 1_555
H73 C98 1_555 1_555
C99 O36 1_555 1_555
H74 C99 1_555 1_555
H75 C99 1_555 1_555
H76 C99 1_555 1_555
C100 O37 1_555 1_555
H77 C100 1_555 1_555
H78 C100 1_555 1_555
H79 C100 1_555 1_555
O45 H90 1_555 1_555
O46 Cu1 1_555 1_555
O47 H94 1_555 1_555
O48 H96 1_555 1_555
O49 Cu2 1_555 1_555
O50 H100 1_555 1_555
O51 H102 1_555 1_555
O52 H104 1_555 1_555
O53 Cu4 1_555 1_555
O54 H108 1_555 1_555
O55 H110 1_555 1_555
O56 H112 1_555 1_555
O57 H114 1_555 1_555
H80 O11 1_555 1_555
H81 O11 1_555 1_555
H82 O22 1_555 1_555
H83 O22 1_555 1_555
H84 O32 1_555 1_555
H85 O32 1_555 1_555
H86 O33 1_555 1_555
H87 O33 1_555 1_555
H88 O44 1_555 1_555
H89 O44 1_555 1_555
H91 O45 1_555 1_555
H92 O46 1_555 1_555
H93 O46 1_555 1_555
H95 O47 1_555 1_555
H97 O48 1_555 1_555
H98 O49 1_555 1_555
H99 O49 1_555 1_555
H101 O50 1_555 1_555
H103 O51 1_555 1_555
H105 O52 1_555 1_555
H106 O53 1_555 1_555
H107 O53 1_555 1_555
H109 O54 1_555 1_555
H111 O55 1_555 1_555
H113 O56 1_555 1_555
H115 O57 1_555 1_555
O58 Gd3 1_555 1_555
Gd2_2 O16 1_555 1_555
O16_2 Gd2 1_555 1_555
O17_2 Gd2 1_555 1_555
Gd4_2 O42 1_555 1_555
O42_2 Gd4 1_555 1_555
O43_2 Gd4 1_555 1_555
Cu1 O2 1_555 1_555
O6 C20 1_555 1_555
C2 C7 1_555 1_555
C5 C6 1_555 1_555
C6 C7 1_555 1_555
C8 C13 1_555 1_555
C12 C13 1_555 1_555
C12 C14 1_555 1_555
C16 C17 1_555 1_555
Cu2 O13 1_555 1_555
O17 Gd2_2 1_555 1_555
C29 C34 1_555 1_555
C32 C33 1_555 1_555
C33 C34 1_555 1_555
C35 C40 1_555 1_555
C39 C40 1_555 1_555
C39 C41 1_555 1_555
C43 C44 1_555 1_555
C47 C48 1_555 1_555
C49 C50 1_555 1_555
Cu3 O58 1_555 1_555
O27 C70 1_555 1_555
C52 C57 1_555 1_555
C55 C56 1_555 1_555
C56 C57 1_555 1_555
C58 O58 1_555 1_555
C62 C63 1_555 1_555
C63 C64 1_555 1_555
C66 C67 1_555 1_555
Gd4 O38 1_555 1_555
Gd4 O40 1_555 1_555
Cu4 O35 1_555 1_555
O43 Gd4_2 1_555 1_555
C83 C88 1_555 1_555
C86 C87 1_555 1_555
C87 C88 1_555 1_555
C89 C94 1_555 1_555
C93 C94 1_555 1_555
C93 C95 1_555 1_555
C97 C98 1_555 1_555

#END
