
#######################################################################
#
#                 Cambridge Crystallographic Data Centre
#                                CCDC 
#
#######################################################################
#
# If this CIF has been generated from an entry in the Cambridge 
# Structural Database, then it will include bibliographic, chemical, 
# crystal, experimental, refinement or atomic coordinate data resulting 
# from the CCDC's data processing and validation procedures.
#
#######################################################################

data_YEBPEA
_symmetry_cell_setting           orthorhombic
_symmetry_space_group_name_H-M   'C m c 21'
_symmetry_Int_Tables_number      36
_space_group_name_Hall           'C 2n -2'
loop_
_symmetry_equiv_pos_site_id
_symmetry_equiv_pos_as_xyz
1 x,y,z
2 1/2+x,1/2+y,z
3 -x,y,z
4 1/2-x,1/2+y,z
5 x,-y,1/2+z
6 1/2+x,1/2-y,1/2+z
7 -x,-y,1/2+z
8 1/2-x,1/2-y,1/2+z
_cell_length_a                   17.682(5)
_cell_length_b                   10.299(5)
_cell_length_c                   9.435(5)
_cell_angle_alpha                90
_cell_angle_beta                 90
_cell_angle_gamma                90
_cell_volume                     1718.18
loop_
_atom_site_label
_atom_site_type_symbol
_atom_site_fract_x
_atom_site_fract_y
_atom_site_fract_z
Co1 Co 0.0000 0.24975(9) -0.0610
B1 B -0.2513(1) 0.5272(1) -0.3082(2)
N1 N -0.1792(1) 0.4375(2) -0.2920(2)
N2 N -0.1532(1) 0.3615(2) -0.3931(2)
N3 N -0.0969(1) 0.2919(2) -0.3426(2)
N4 N -0.0868(1) 0.3221(2) -0.2023(2)
C1 C -0.1399(1) 0.4075(2) -0.1713(2)
N5 N -0.3189(1) 0.4343(1) -0.3364(2)
N6 N -0.3450(1) 0.3635(2) -0.22271(2)
N7 N -0.4050(1) 0.3005(2) -0.2824(2)
N8 N -0.0878(1) 0.1741(1) 0.0795(2)
C2 C -0.3589(1) 0.4124(2) -0.4458(2)
O1 O 0.0000 0.4282(2) 0.0422(2)
O2 O 0.0000 0.0748(2) -0.1671(2)
H1 H -0.2562(2) 0.5761(2) -0.2145(2)
H2 H -0.2437(2) 0.5915(2) -0.4061(2)
H3 H -0.1459(2) 0.4592(2) -0.0863(2)
H4 H -0.3499(2) 0.4335(2) -0.5393(2)
H5 H 0.0000 0.4287 0.1376
H6 H 0.0000 0.4941 -0.0054
H7 H 0.0000 0.0710 -0.2660
H8 H 0.0000 0.0107 -0.1146
N4B N 0.0868(1) 0.3221(2) -0.2023(2)
N8B N 0.0878(1) 0.1741(1) 0.0795(2)
N8G N -0.4122(1) 0.3259(1) -0.4205(2)
N7G N -0.0950(1) 0.1995(2) 0.2176(2)
C2G C -0.1411(1) 0.0876(2) 0.0542(2)
Co1E Co -0.5000 0.25025(9) -0.5610
N6G N -0.1550(1) 0.1365(2) 0.27729(2)
N5G N -0.1811(1) 0.0657(1) 0.1636(2)
H4G H -0.1501(2) 0.0665(2) -0.0393(2)
B1G B -0.2487(1) -0.0272(1) 0.1918(2)
N1G N -0.3208(1) 0.0625(2) 0.2080(2)
H1G H -0.2438(2) -0.0761(2) 0.2855(2)
H2G H -0.2563(2) -0.0915(2) 0.0939(2)
N2G N -0.3468(1) 0.1385(2) 0.1069(2)
C1G C -0.3601(1) 0.0925(2) 0.3287(2)
N3G N -0.4031(1) 0.2081(2) 0.1574(2)
N4G N -0.4132(1) 0.1779(2) 0.2977(2)
H3G H -0.3541(2) 0.0408(2) 0.4137(2)
Co1E_2 Co -0.5000 0.25025(9) 0.4390
O3 O 0.0000 0.1122(2) 0.5351(2)
O4 O 0.0000 0.3921(2) 0.3435(2)
H9? H 0.0410 0.1673 0.5597
H10? H 0.0000 0.1503 0.4404
H11? H 0.0000 0.1804 0.5507
H12? H 0.0410 0.3306 0.3209
H13? H 0.0000 0.3479 0.4288
H14? H 0.0000 0.4433 0.4057
loop_
_geom_bond_atom_site_label_1
_geom_bond_atom_site_label_2
_geom_bond_site_symmetry_1
_geom_bond_site_symmetry_2
Co1 N4 1_555 1_555
B1 N1 1_555 1_555
N1 N2 1_555 1_555
N2 N3 1_555 1_555
N3 N4 1_555 1_555
N4 C1 1_555 1_555
C1 N1 1_555 1_555
N5 B1 1_555 1_555
N6 N5 1_555 1_555
N7 N6 1_555 1_555
N8 Co1 1_555 1_555
C2 N5 1_555 1_555
O1 Co1 1_555 1_555
O2 Co1 1_555 1_555
H1 B1 1_555 1_555
H2 B1 1_555 1_555
H3 C1 1_555 1_555
H4 C2 1_555 1_555
H5 O1 1_555 1_555
H6 O1 1_555 1_555
H7 O2 1_555 1_555
H8 O2 1_555 1_555
N4B Co1 1_555 1_555
N8B Co1 1_555 1_555
N8G N7 1_555 1_555
N7G N8 1_555 1_555
C2G N8 1_555 1_555
Co1E N8G 1_555 1_555
N6G N7G 1_555 1_555
N5G C2G 1_555 1_555
H4G C2G 1_555 1_555
B1G N5G 1_555 1_555
N1G B1G 1_555 1_555
H1G B1G 1_555 1_555
H2G B1G 1_555 1_555
N2G N1G 1_555 1_555
C1G N1G 1_555 1_555
N3G N2G 1_555 1_555
N4G C1G 1_555 1_555
H3G C1G 1_555 1_555
Co1E_2 N4G 1_555 1_555
C2 N8G 1_555 1_555
N6G N5G 1_555 1_555
N3G N4G 1_555 1_555

#END
