
#######################################################################
#
#                 Cambridge Crystallographic Data Centre
#                                CCDC 
#
#######################################################################
#
# If this CIF has been generated from an entry in the Cambridge 
# Structural Database, then it will include bibliographic, chemical, 
# crystal, experimental, refinement or atomic coordinate data resulting 
# from the CCDC's data processing and validation procedures.
#
#######################################################################

data_YEBPOK
_symmetry_cell_setting           orthorhombic
_symmetry_space_group_name_H-M   'C m c 21'
_symmetry_Int_Tables_number      36
_space_group_name_Hall           'C 2n -2'
loop_
_symmetry_equiv_pos_site_id
_symmetry_equiv_pos_as_xyz
1 x,y,z
2 1/2+x,1/2+y,z
3 -x,y,z
4 1/2-x,1/2+y,z
5 x,-y,1/2+z
6 1/2+x,1/2-y,1/2+z
7 -x,-y,1/2+z
8 1/2-x,1/2-y,1/2+z
_cell_length_a                   18.366(5)
_cell_length_b                   10.207(2)
_cell_length_c                   9.650(2)
_cell_angle_alpha                90
_cell_angle_beta                 90
_cell_angle_gamma                90
_cell_volume                     1809.01
loop_
_atom_site_label
_atom_site_type_symbol
_atom_site_fract_x
_atom_site_fract_y
_atom_site_fract_z
Cd1 Cd 0.0000 0.2511(1) 0.1481
B1 B 0.2428(2) -0.0360(3) -0.0943(3)
N1 N 0.1821(2) 0.0566(3) -0.0821(3)
N2 N 0.1550(3) 0.1293(3) -0.1896(3)
N3 N 0.1021(3) 0.1923(3) -0.1381(3)
N4 N 0.0907(3) 0.1658(3) 0.0011(3)
C1 C 0.1407(3) 0.0872(3) 0.0293(3)
N5 N 0.3179(2) 0.0585(3) -0.1214(3)
N6 N 0.3441(3) 0.1324(3) -0.0217(3)
N7 N 0.3991(2) 0.2043(3) -0.0726(3)
N8 N 0.4061(2) 0.1730(3) -0.2052(3)
C2 C 0.3543(3) 0.0801(3) -0.2339(3)
O1 O 0.0000 0.4448(3) 0.0285(3)
O2 O 0.0000 0.0517(3) 0.2575(3)
H1 H 0.2529(3) -0.0821(3) 0.0001(3)
H2 H 0.2457(3) -0.0860(3) -0.1977(3)
H3 H 0.1522(3) 0.0393(3) 0.1120(3)
H4 H 0.3457(3) 0.0488(3) -0.3226(3)
H5 H 0.0000 0.5201 0.1053
H6 H 0.0000 0.4372 -0.0633
H7 H 0.0000 -0.0209 0.1905
H8 H 0.0000 0.0124 0.3397
N4B N -0.0907(3) 0.1658(3) 0.0011(3)
N8G N 0.0939(2) 0.3270(3) 0.2948(3)
N8E N -0.0939(2) 0.3270(3) 0.2948(3)
N3B N -0.1021(3) 0.1923(3) -0.1381(3)
C1B C -0.1407(3) 0.0872(3) 0.0293(3)
Cd1E Cd 0.5000 0.2489(1) -0.3519
N2B N -0.1550(3) 0.1293(3) -0.1896(3)
N1B N -0.1821(2) 0.0566(3) -0.0821(3)
H3B H -0.1522(3) 0.0393(3) 0.1120(3)
B1B B -0.2428(2) -0.0360(3) -0.0943(3)
N5B N -0.3179(2) 0.0585(3) -0.1214(3)
H1B H -0.2529(3) -0.0821(3) 0.0001(3)
H2B H -0.2457(3) -0.0860(3) -0.1977(3)
N6B N -0.3441(3) 0.1324(3) -0.0217(3)
C2B C -0.3543(3) 0.0801(3) -0.2339(3)
N7B N -0.3991(2) 0.2043(3) -0.0726(3)
N8B N -0.4061(2) 0.1730(3) -0.2052(3)
H4B H -0.3457(3) 0.0488(3) -0.3226(3)
Cd1E_2 Cd -0.5000 0.2489(1) -0.3519
O3 O 0.5000 0.1159(3) 0.2420
H9 H 0.4636 0.1593 0.2754
H9B H 0.5364 0.1593 0.2754
O4 O 0.5000 0.3780(3) 0.0447
H10 H 0.4639 0.3213 0.0415
H10B H 0.5361 0.3213 0.0415
loop_
_geom_bond_atom_site_label_1
_geom_bond_atom_site_label_2
_geom_bond_site_symmetry_1
_geom_bond_site_symmetry_2
Cd1 N4 1_555 1_555
B1 N1 1_555 1_555
N1 N2 1_555 1_555
N2 N3 1_555 1_555
N3 N4 1_555 1_555
N4 C1 1_555 1_555
C1 N1 1_555 1_555
N5 B1 1_555 1_555
N6 N5 1_555 1_555
N7 N6 1_555 1_555
N8 N7 1_555 1_555
C2 N5 1_555 1_555
O1 Cd1 1_555 1_555
O2 Cd1 1_555 1_555
H1 B1 1_555 1_555
H2 B1 1_555 1_555
H3 C1 1_555 1_555
H4 C2 1_555 1_555
H5 O1 1_555 1_555
H6 O1 1_555 1_555
H7 O2 1_555 1_555
H8 O2 1_555 1_555
O3 H9 1_555 1_555
O4 H10 1_555 1_555
N4B Cd1 1_555 1_555
N8G Cd1 1_555 1_555
N8E Cd1 1_555 1_555
N3B N4B 1_555 1_555
C1B N4B 1_555 1_555
Cd1E N8 1_555 1_555
N2B N3B 1_555 1_555
N1B C1B 1_555 1_555
H3B C1B 1_555 1_555
B1B N1B 1_555 1_555
N5B B1B 1_555 1_555
H1B B1B 1_555 1_555
H2B B1B 1_555 1_555
N6B N5B 1_555 1_555
C2B N5B 1_555 1_555
N7B N6B 1_555 1_555
N8B C2B 1_555 1_555
H4B C2B 1_555 1_555
Cd1E_2 N8B 1_555 1_555
H9B O3 1_555 1_555
H10B O4 1_555 1_555
N8 C2 1_555 1_555
N2B N1B 1_555 1_555
N7B N8B 1_555 1_555

#END
