
#######################################################################
#
#                 Cambridge Crystallographic Data Centre
#                                CCDC 
#
#######################################################################
#
# If this CIF has been generated from an entry in the Cambridge 
# Structural Database, then it will include bibliographic, chemical, 
# crystal, experimental, refinement or atomic coordinate data resulting 
# from the CCDC's data processing and validation procedures.
#
#######################################################################

data_YEBPOL
_symmetry_cell_setting           orthorhombic
_symmetry_space_group_name_H-M   'P b c a'
_symmetry_Int_Tables_number      61
_space_group_name_Hall           '-P 2ac 2ab'
loop_
_symmetry_equiv_pos_site_id
_symmetry_equiv_pos_as_xyz
1 x,y,z
2 1/2-x,-y,1/2+z
3 -x,1/2+y,1/2-z
4 1/2+x,1/2-y,-z
5 -x,-y,-z
6 1/2+x,y,1/2-z
7 x,1/2-y,1/2+z
8 1/2-x,1/2+y,z
_cell_length_a                   15.1886(10)
_cell_length_b                   23.6194(13)
_cell_length_c                   25.9627(14)
_cell_angle_alpha                90
_cell_angle_beta                 90
_cell_angle_gamma                90
_cell_volume                     9314
loop_
_atom_site_label
_atom_site_type_symbol
_atom_site_fract_x
_atom_site_fract_y
_atom_site_fract_z
Pr1 Pr 0.52617(2) 0.365555(12) 0.000984(12)
Cu1 Cu 0.40183(5) 0.36966(3) -0.11353(3)
Cu2 Cu 0.64820(5) 0.34746(3) 0.11861(3)
N1 N 0.4499(4) 0.3902(2) -0.18253(19)
N2 N 0.2788(4) 0.3860(3) -0.1280(2)
N3 N 0.6025(4) 0.3137(2) 0.18307(18)
N4 N 0.7444(4) 0.3904(2) 0.15006(19)
N5 N 0.2404(4) 0.2326(3) -0.1082(2)
N6 N 0.3715(4) 0.2731(2) -0.1496(2)
N7 N 0.4050(5) 0.2586(4) -0.2401(3)
O1 O 0.5180(2) 0.34611(16) -0.08996(14)
O2 O 0.3759(3) 0.35754(16) -0.04018(15)
O3 O 0.3824(3) 0.36302(17) 0.06080(15)
O4 O 0.6436(3) 0.29704(16) -0.04173(14)
O5 O 0.5539(3) 0.31112(16) 0.07865(14)
O6 O 0.6648(3) 0.38211(16) 0.05097(14)
O7 O 0.4793(3) 0.25664(15) 0.00411(14)
O8 O 0.6628(3) 0.42219(16) -0.04300(14)
O9 O 0.4770(3) 0.45199(15) -0.04859(14)
O10 O 0.4830(3) 0.54626(15) -0.05107(14)
C1 C 0.3995(6) 0.4237(3) -0.2210(3)
H1 H 0.3969 0.4021 -0.2537
H2 H 0.4315 0.4594 -0.2280
C2 C 0.3047(6) 0.4382(4) -0.2040(4)
H3 H 0.3080 0.4692 -0.1784
H4 H 0.2726 0.4531 -0.2343
C3 C 0.2538(6) 0.3938(4) -0.1824(3)
H5 H 0.2643 0.3583 -0.2017
H6 H 0.1904 0.4031 -0.1848
C4 C 0.2157(5) 0.3883(3) -0.0947(3)
H7 H 0.1581 0.3939 -0.1080
C5 C 0.2231(4) 0.3835(3) -0.0408(3)
C6 C 0.1461(5) 0.3947(3) -0.0115(3)
H8 H 0.0922 0.4017 -0.0290
C7 C 0.1474(5) 0.3956(3) 0.0408(3)
H9 H 0.0952 0.4032 0.0597
C8 C 0.2259(4) 0.3853(3) 0.0658(3)
H10 H 0.2277 0.3863 0.1024
C9 C 0.3016(4) 0.3738(2) 0.0387(2)
C10 C 0.3011(4) 0.3715(2) -0.0154(3)
C11 C 0.5842(4) 0.3274(2) -0.1189(2)
C12 C 0.6543(4) 0.3001(2) -0.0941(2)
C13 C 0.7255(4) 0.2801(3) -0.1215(2)
H11 H 0.7718 0.2607 -0.1043
C14 C 0.7291(5) 0.2887(3) -0.1750(3)
H12 H 0.7777 0.2749 -0.1944
C15 C 0.6620(5) 0.3172(3) -0.1992(3)
H13 H 0.6656 0.3236 -0.2353
C16 C 0.5881(4) 0.3373(3) -0.1721(2)
C17 C 0.5230(5) 0.3709(3) -0.1995(2)
H14 H 0.5364 0.3795 -0.2343
C18 C 0.7038(4) 0.2617(3) -0.0139(2)
H15 H 0.6876 0.2614 0.0226
H16 H 0.7637 0.2766 -0.0177
H17 H 0.7012 0.2231 -0.0276
C19 C 0.3888(4) 0.3682(2) 0.11565(18)
H18 H 0.4501 0.3627 0.1263
H19 H 0.3516 0.3395 0.1320
H20 H 0.3691 0.4060 0.1261
C20 C 0.7415(4) 0.4279(2) -0.0164(2)
C21 C 0.8164(4) 0.4515(2) -0.0358(2)
H21 H 0.8181 0.4634 -0.0708
C22 C 0.8906(4) 0.4582(3) -0.0047(3)
H22 H 0.9435 0.4731 -0.0188
C23 C 0.8866(4) 0.4431(3) 0.0459(3)
H23 H 0.9364 0.4494 0.0673
C24 C 0.8100(4) 0.4185(2) 0.0674(2)
C25 C 0.7370(4) 0.4080(2) 0.0354(2)
C26 C 0.8069(5) 0.4118(3) 0.1225(3)
H24 H 0.8572 0.4247 0.1409
C27 C 0.7521(6) 0.3995(3) 0.2065(2)
H25 H 0.7169 0.4332 0.2162
H26 H 0.8143 0.4075 0.2152
C28 C 0.7210(6) 0.3493(3) 0.2374(2)
H27 H 0.7533 0.3153 0.2256
H28 H 0.7361 0.3556 0.2740
C29 C 0.6243(5) 0.3381(3) 0.2334(3)
H29 H 0.6062 0.3116 0.2610
H30 H 0.5915 0.3739 0.2381
C30 C 0.5585(5) 0.2673(3) 0.1833(3)
H31 H 0.5476 0.2511 0.2162
C31 C 0.5235(4) 0.2368(3) 0.1398(2)
C32 C 0.4864(5) 0.1832(3) 0.1476(3)
H32 H 0.4872 0.1673 0.1811
C33 C 0.4492(5) 0.1533(3) 0.1085(3)
H33 H 0.4255 0.1167 0.1149
C34 C 0.4461(4) 0.1762(3) 0.0596(3)
H34 H 0.4205 0.1553 0.0322
C35 C 0.4798(4) 0.2289(2) 0.0506(2)
C36 C 0.5212(4) 0.2603(2) 0.0903(2)
C37 C 0.4579(5) 0.2233(3) -0.0404(2)
H35 H 0.4688 0.2455 -0.0717
H36 H 0.3957 0.2124 -0.0391
H37 H 0.4946 0.1891 -0.0409
C38 C 0.6612(4) 0.4486(3) -0.0935(2)
H38 H 0.6022 0.4447 -0.1085
H39 H 0.7043 0.4300 -0.1159
H40 H 0.6758 0.4888 -0.0902
C39 C 0.3002(5) 0.2504(3) -0.1290(2)
C40 C 0.3882(5) 0.2620(4) -0.1964(3)
C41 C 0.4879(4) 0.4992(2) -0.0291(2)
Pr1D Pr 0.47383(2) 0.634445(12) -0.000984(12)
Cu1D Cu 0.59817(5) 0.63034(3) 0.11353(3)
Cu1C Cu 0.90183(5) 0.13034(3) 0.11353(3)
Cu2D Cu 0.35180(5) 0.65254(3) -0.11861(3)
Cu2C Cu 0.14820(5) 0.15254(3) -0.11861(3)
N1D N 0.5501(4) 0.6098(2) 0.18253(19)
N2D N 0.7212(4) 0.6140(3) 0.1280(2)
N3D N 0.3975(4) 0.6863(2) -0.18307(18)
N4D N 0.2556(4) 0.6096(2) -0.15006(19)
N5C N 0.7404(4) 0.2674(3) 0.1082(2)
N5G N 0.2596(4) 0.7326(3) -0.1082(2)
N6C N 0.8715(4) 0.2269(2) 0.1496(2)
N6D N 0.6285(4) 0.7269(2) 0.1496(2)
N7C N 0.9050(5) 0.2414(4) 0.2401(3)
O1D O 0.4820(2) 0.65389(16) 0.08996(14)
O2D O 0.6241(3) 0.64246(16) 0.04018(15)
O3D O 0.6176(3) 0.63698(17) -0.06080(15)
O4D O 0.3564(3) 0.70296(16) 0.04173(14)
O5D O 0.4461(3) 0.68888(16) -0.07865(14)
O6D O 0.3352(3) 0.61789(16) -0.05097(14)
O7D O 0.5207(3) 0.74336(15) -0.00411(14)
O8D O 0.3372(3) 0.57781(16) 0.04300(14)
O9D O 0.5230(3) 0.54801(15) 0.04859(14)
O10D O 0.5170(3) 0.45374(15) 0.05107(14)
C1D C 0.6005(6) 0.5763(3) 0.2210(3)
H1D H 0.6031 0.5979 0.2537
H2D H 0.5685 0.5406 0.2280
C2D C 0.6953(6) 0.5618(4) 0.2040(4)
H3D H 0.6920 0.5308 0.1784
H4D H 0.7274 0.5469 0.2343
C3D C 0.7462(6) 0.6062(4) 0.1824(3)
H5D H 0.7357 0.6417 0.2017
H6D H 0.8096 0.5969 0.1848
C4D C 0.7843(5) 0.6117(3) 0.0947(3)
H7D H 0.8419 0.6061 0.1080
C5D C 0.7769(4) 0.6165(3) 0.0408(3)
C6D C 0.8539(5) 0.6053(3) 0.0115(3)
H8D H 0.9078 0.5983 0.0290
C7D C 0.8526(5) 0.6044(3) -0.0408(3)
H9D H 0.9048 0.5968 -0.0597
C8D C 0.7741(4) 0.6147(3) -0.0658(3)
H10D H 0.7723 0.6137 -0.1024
C9D C 0.6984(4) 0.6262(2) -0.0387(2)
C10D C 0.6989(4) 0.6285(2) 0.0154(3)
C11D C 0.4158(4) 0.6726(2) 0.1189(2)
C12D C 0.3457(4) 0.6999(2) 0.0941(2)
C13D C 0.2745(4) 0.7199(3) 0.1215(2)
H11D H 0.2282 0.7393 0.1043
C14D C 0.2709(5) 0.7113(3) 0.1750(3)
H12D H 0.2223 0.7251 0.1944
C15D C 0.3380(5) 0.6828(3) 0.1992(3)
H13D H 0.3344 0.6764 0.2353
C16D C 0.4119(4) 0.6627(3) 0.1721(2)
C17D C 0.4770(5) 0.6291(3) 0.1995(2)
H14D H 0.4636 0.6205 0.2343
C18D C 0.2962(4) 0.7383(3) 0.0139(2)
H15D H 0.3124 0.7386 -0.0226
H16D H 0.2363 0.7234 0.0177
H17D H 0.2988 0.7769 0.0276
C19D C 0.6112(4) 0.6318(2) -0.11565(18)
H18D H 0.5499 0.6373 -0.1263
H19D H 0.6484 0.6605 -0.1320
H20D H 0.6309 0.5940 -0.1261
C20D C 0.2585(4) 0.5721(2) 0.0164(2)
C21D C 0.1836(4) 0.5485(2) 0.0358(2)
H21D H 0.1819 0.5366 0.0708
C22D C 0.1094(4) 0.5418(3) 0.0047(3)
H22D H 0.0565 0.5269 0.0188
C23D C 0.1134(4) 0.5569(3) -0.0459(3)
H23D H 0.0636 0.5506 -0.0673
C24D C 0.1900(4) 0.5815(2) -0.0674(2)
C25D C 0.2630(4) 0.5920(2) -0.0354(2)
C26D C 0.1931(5) 0.5882(3) -0.1225(3)
H24D H 0.1428 0.5753 -0.1409
C27D C 0.2479(6) 0.6005(3) -0.2065(2)
H25D H 0.2831 0.5668 -0.2162
H26D H 0.1857 0.5925 -0.2152
C28D C 0.2790(6) 0.6507(3) -0.2374(2)
H27D H 0.2467 0.6847 -0.2256
H28D H 0.2639 0.6444 -0.2740
C29D C 0.3757(5) 0.6619(3) -0.2334(3)
H29D H 0.3938 0.6884 -0.2610
H30D H 0.4085 0.6261 -0.2381
C30D C 0.4415(5) 0.7327(3) -0.1833(3)
H31D H 0.4524 0.7489 -0.2162
C31D C 0.4765(4) 0.7632(3) -0.1398(2)
C32D C 0.5136(5) 0.8168(3) -0.1476(3)
H32D H 0.5128 0.8327 -0.1811
C33D C 0.5508(5) 0.8467(3) -0.1085(3)
H33D H 0.5745 0.8833 -0.1149
C34D C 0.5539(4) 0.8238(3) -0.0596(3)
H34D H 0.5795 0.8447 -0.0322
C35D C 0.5202(4) 0.7711(2) -0.0506(2)
C36D C 0.4788(4) 0.7397(2) -0.0903(2)
C37D C 0.5421(5) 0.7767(3) 0.0404(2)
H35D H 0.5312 0.7545 0.0717
H36D H 0.6043 0.7876 0.0391
H37D H 0.5054 0.8109 0.0409
C38D C 0.3388(4) 0.5514(3) 0.0935(2)
H38D H 0.3978 0.5553 0.1085
H39D H 0.2957 0.5700 0.1159
H40D H 0.3242 0.5112 0.0902
C39C C 0.8002(5) 0.2496(3) 0.1290(2)
C40C C 0.8882(5) 0.2380(4) 0.1964(3)
C41D C 0.5121(4) 0.5008(2) 0.0291(2)
N8 N 0.9333(5) 0.5243(4) 0.1888(3)
N9 N 1.2093(5) 0.4705(3) 0.1784(2)
N10 N 1.0620(6) 0.4894(4) 0.1435(3)
C42 C 0.9952(6) 0.5079(3) 0.1693(3)
C43 C 1.1396(6) 0.4801(3) 0.1644(3)
O11 O 0.5560(4) 0.4506(2) 0.15878(19)
H41 H 0.5560 0.4682 0.1300
H42 H 0.5054 0.4347 0.1615
O12 O 0.3906(4) 0.4907(3) 0.2060(2)
H43 H 0.3761 0.5265 0.2051
H44 H 0.3445 0.4742 0.2189
loop_
_geom_bond_atom_site_label_1
_geom_bond_atom_site_label_2
_geom_bond_site_symmetry_1
_geom_bond_site_symmetry_2
Pr1 O1 1_555 1_555
Cu1 N1 1_555 1_555
Cu2 N3 1_555 1_555
N1 C1 1_555 1_555
N2 Cu1 1_555 1_555
N3 C29 1_555 1_555
N4 Cu2 1_555 1_555
N5 C39 1_555 1_555
N6 Cu1 1_555 1_555
N7 C40 1_555 1_555
N8 C42 1_555 1_555
N9 C43 1_555 1_555
N10 C42 1_555 1_555
O1 Cu1 1_555 1_555
O2 Pr1 1_555 1_555
O3 Pr1 1_555 1_555
O4 Pr1 1_555 1_555
O5 Pr1 1_555 1_555
O6 Pr1 1_555 1_555
O7 Pr1 1_555 1_555
O8 Pr1 1_555 1_555
O9 Pr1 1_555 1_555
O10 C41 1_555 1_555
C1 H1 1_555 1_555
H2 C1 1_555 1_555
C2 C1 1_555 1_555
H3 C2 1_555 1_555
H4 C2 1_555 1_555
C3 N2 1_555 1_555
H5 C3 1_555 1_555
H6 C3 1_555 1_555
C4 N2 1_555 1_555
H7 C4 1_555 1_555
C5 C4 1_555 1_555
C6 C5 1_555 1_555
H8 C6 1_555 1_555
C7 C6 1_555 1_555
H9 C7 1_555 1_555
C8 C7 1_555 1_555
H10 C8 1_555 1_555
C9 O3 1_555 1_555
C10 O2 1_555 1_555
C11 O1 1_555 1_555
C12 O4 1_555 1_555
C13 C12 1_555 1_555
H11 C13 1_555 1_555
C14 C13 1_555 1_555
H12 C14 1_555 1_555
C15 C14 1_555 1_555
H13 C15 1_555 1_555
C16 C11 1_555 1_555
C17 N1 1_555 1_555
H14 C17 1_555 1_555
C18 O4 1_555 1_555
H15 C18 1_555 1_555
H16 C18 1_555 1_555
H17 C18 1_555 1_555
C19 O3 1_555 1_555
H18 C19 1_555 1_555
H19 C19 1_555 1_555
H20 C19 1_555 1_555
C20 O8 1_555 1_555
C21 C20 1_555 1_555
H21 C21 1_555 1_555
C22 C21 1_555 1_555
H22 C22 1_555 1_555
C23 C22 1_555 1_555
H23 C23 1_555 1_555
C24 C23 1_555 1_555
C25 O6 1_555 1_555
C26 N4 1_555 1_555
H24 C26 1_555 1_555
C27 N4 1_555 1_555
H25 C27 1_555 1_555
H26 C27 1_555 1_555
C28 C27 1_555 1_555
H27 C28 1_555 1_555
H28 C28 1_555 1_555
C29 C28 1_555 1_555
H29 C29 1_555 1_555
H30 C29 1_555 1_555
C30 N3 1_555 1_555
H31 C30 1_555 1_555
C31 C30 1_555 1_555
C32 C31 1_555 1_555
H32 C32 1_555 1_555
C33 C32 1_555 1_555
H33 C33 1_555 1_555
C34 C33 1_555 1_555
H34 C34 1_555 1_555
C35 O7 1_555 1_555
C36 O5 1_555 1_555
C37 O7 1_555 1_555
H35 C37 1_555 1_555
H36 C37 1_555 1_555
H37 C37 1_555 1_555
C38 O8 1_555 1_555
H38 C38 1_555 1_555
H39 C38 1_555 1_555
H40 C38 1_555 1_555
C39 N6 1_555 1_555
C40 N6 1_555 1_555
C41 O9 1_555 1_555
C43 N10 1_555 1_555
O11 H41 1_555 1_555
O12 H43 1_555 1_555
H42 O11 1_555 1_555
H44 O12 1_555 1_555
Pr1D O10 1_555 1_555
Cu1D N1D 1_555 1_555
Cu1C N6C 1_555 1_555
Cu2D N3D 1_555 1_555
Cu2C N5 1_555 1_555
N1D C1D 1_555 1_555
N2D Cu1D 1_555 1_555
N3D C29D 1_555 1_555
N4D Cu2D 1_555 1_555
N5C Cu2 1_555 1_555
N5G Cu2D 1_555 1_555
N6C C39C 1_555 1_555
N6D Cu1D 1_555 1_555
N7C C40C 1_555 1_555
O1D Pr1D 1_555 1_555
O2D Pr1D 1_555 1_555
O3D Pr1D 1_555 1_555
O4D Pr1D 1_555 1_555
O5D Pr1D 1_555 1_555
O6D Pr1D 1_555 1_555
O7D Pr1D 1_555 1_555
O8D Pr1D 1_555 1_555
O9D Pr1D 1_555 1_555
O10D Pr1 1_555 1_555
C1D H1D 1_555 1_555
H2D C1D 1_555 1_555
C2D C1D 1_555 1_555
H3D C2D 1_555 1_555
H4D C2D 1_555 1_555
C3D N2D 1_555 1_555
H5D C3D 1_555 1_555
H6D C3D 1_555 1_555
C4D N2D 1_555 1_555
H7D C4D 1_555 1_555
C5D C4D 1_555 1_555
C6D C5D 1_555 1_555
H8D C6D 1_555 1_555
C7D C6D 1_555 1_555
H9D C7D 1_555 1_555
C8D C7D 1_555 1_555
H10D C8D 1_555 1_555
C9D O3D 1_555 1_555
C10D O2D 1_555 1_555
C11D O1D 1_555 1_555
C12D O4D 1_555 1_555
C13D C12D 1_555 1_555
H11D C13D 1_555 1_555
C14D C13D 1_555 1_555
H12D C14D 1_555 1_555
C15D C14D 1_555 1_555
H13D C15D 1_555 1_555
C16D C11D 1_555 1_555
C17D N1D 1_555 1_555
H14D C17D 1_555 1_555
C18D O4D 1_555 1_555
H15D C18D 1_555 1_555
H16D C18D 1_555 1_555
H17D C18D 1_555 1_555
C19D O3D 1_555 1_555
H18D C19D 1_555 1_555
H19D C19D 1_555 1_555
H20D C19D 1_555 1_555
C20D O8D 1_555 1_555
C21D C20D 1_555 1_555
H21D C21D 1_555 1_555
C22D C21D 1_555 1_555
H22D C22D 1_555 1_555
C23D C22D 1_555 1_555
H23D C23D 1_555 1_555
C24D C23D 1_555 1_555
C25D O6D 1_555 1_555
C26D N4D 1_555 1_555
H24D C26D 1_555 1_555
C27D N4D 1_555 1_555
H25D C27D 1_555 1_555
H26D C27D 1_555 1_555
C28D C27D 1_555 1_555
H27D C28D 1_555 1_555
H28D C28D 1_555 1_555
C29D C28D 1_555 1_555
H29D C29D 1_555 1_555
H30D C29D 1_555 1_555
C30D N3D 1_555 1_555
H31D C30D 1_555 1_555
C31D C30D 1_555 1_555
C32D C31D 1_555 1_555
H32D C32D 1_555 1_555
C33D C32D 1_555 1_555
H33D C33D 1_555 1_555
C34D C33D 1_555 1_555
H34D C34D 1_555 1_555
C35D O7D 1_555 1_555
C36D O5D 1_555 1_555
C37D O7D 1_555 1_555
H35D C37D 1_555 1_555
H36D C37D 1_555 1_555
H37D C37D 1_555 1_555
C38D O8D 1_555 1_555
H38D C38D 1_555 1_555
H39D C38D 1_555 1_555
H40D C38D 1_555 1_555
C39C N5C 1_555 1_555
C40C N6C 1_555 1_555
C41D C41 1_555 1_555
Cu1 O2 1_555 1_555
Cu2 O5 1_555 1_555
Cu2 O6 1_555 1_555
C2 C3 1_555 1_555
C5 C10 1_555 1_555
C8 C9 1_555 1_555
C9 C10 1_555 1_555
C11 C12 1_555 1_555
C15 C16 1_555 1_555
C16 C17 1_555 1_555
C20 C25 1_555 1_555
C24 C25 1_555 1_555
C24 C26 1_555 1_555
C31 C36 1_555 1_555
C34 C35 1_555 1_555
C35 C36 1_555 1_555
Cu1D O1D 1_555 1_555
Cu1D O2D 1_555 1_555
Cu2D O5D 1_555 1_555
Cu2D O6D 1_555 1_555
O9D C41D 1_555 1_555
O10D C41D 1_555 1_555
C2D C3D 1_555 1_555
C5D C10D 1_555 1_555
C8D C9D 1_555 1_555
C9D C10D 1_555 1_555
C11D C12D 1_555 1_555
C15D C16D 1_555 1_555
C16D C17D 1_555 1_555
C20D C25D 1_555 1_555
C24D C25D 1_555 1_555
C24D C26D 1_555 1_555
C31D C36D 1_555 1_555
C34D C35D 1_555 1_555
C35D C36D 1_555 1_555

#END
