
#######################################################################
#
#                 Cambridge Crystallographic Data Centre
#                                CCDC 
#
#######################################################################
#
# If this CIF has been generated from an entry in the Cambridge 
# Structural Database, then it will include bibliographic, chemical, 
# crystal, experimental, refinement or atomic coordinate data resulting 
# from the CCDC's data processing and validation procedures.
#
#######################################################################

data_YEBPAX
_symmetry_cell_setting           triclinic
_symmetry_space_group_name_H-M   'P -1'
_symmetry_Int_Tables_number      2
_space_group_name_Hall           '-P 1'
loop_
_symmetry_equiv_pos_site_id
_symmetry_equiv_pos_as_xyz
1 x,y,z
2 -x,-y,-z
_cell_length_a                   10.3753(7)
_cell_length_b                   10.5726(6)
_cell_length_c                   14.7142(8)
_cell_angle_alpha                85.914(5)
_cell_angle_beta                 86.741(5)
_cell_angle_gamma                66.319(6)
_cell_volume                     1473.69
loop_
_atom_site_label
_atom_site_type_symbol
_atom_site_fract_x
_atom_site_fract_y
_atom_site_fract_z
Er1 Er 0.772828(11) 0.265433(11) 0.745396(7)
Cu1 Cu 0.72760(3) 0.57767(3) 0.83080(2)
N1 N 0.5761(3) 0.7048(2) 0.90942(15)
N2 N 0.8637(3) 0.6651(2) 0.83353(17)
O1 O 0.63276(19) 0.45198(19) 0.82823(12)
O2 O 0.86441(19) 0.42862(19) 0.75971(13)
O3 O 0.5315(2) 0.2840(2) 0.76956(13)
O4 O 0.9630(2) 0.2446(2) 0.63596(13)
O5 O 0.7498(2) 0.1621(2) 0.89349(13)
O6 O 0.9580(2) 0.1572(2) 0.85214(14)
O7 O 0.6828(2) 0.2433(2) 0.60073(13)
O8 O 0.6560(2) 0.4510(2) 0.63507(13)
C1 C 0.5833(4) 0.8298(3) 0.9453(2)
H1 H 0.6111 0.8091 1.0097
H2 H 0.4881 0.9054 0.9441
C2 C 0.6846(4) 0.8795(3) 0.8932(2)
H3 H 0.6772 0.9667 0.9183
H4 H 0.6572 0.9001 0.8287
C3 C 0.8362(4) 0.7760(3) 0.8970(2)
H5 H 0.8996 0.8240 0.8806
H6 H 0.8565 0.7349 0.9598
C4 C 0.9667(3) 0.6443(3) 0.7760(2)
H7 H 1.0163 0.7023 0.7786
C5 C 1.0160(3) 0.5424(3) 0.7075(2)
C6 C 1.1222(3) 0.5469(4) 0.6447(2)
H8 H 1.1582 0.6160 0.6483
C7 C 1.1735(4) 0.4531(4) 0.5789(2)
H9 H 1.2441 0.4582 0.5365
C8 C 1.1232(3) 0.3495(4) 0.5733(2)
H10 H 1.1592 0.2844 0.5274
C9 C 1.0207(3) 0.3427(3) 0.6351(2)
C10 C 0.9638(3) 0.4395(3) 0.70348(18)
C11 C 0.5016(3) 0.4737(3) 0.85429(17)
C12 C 0.4166(3) 0.5844(3) 0.90703(18)
C13 C 0.2811(3) 0.5952(3) 0.9360(2)
H11 H 0.2238 0.6691 0.9725
C14 C 0.2305(3) 0.5010(3) 0.9124(2)
H12 H 0.1402 0.5081 0.9347
C15 C 0.3102(3) 0.3948(3) 0.85581(19)
H13 H 0.2734 0.3320 0.8372
C16 C 0.4436(3) 0.3825(3) 0.82734(18)
C17 C 0.4608(3) 0.6908(3) 0.93197(19)
H14 H 0.3963 0.7588 0.9698
C18 C 0.4772(3) 0.1888(3) 0.7384(2)
H15 H 0.4551 0.1380 0.7910
H16 H 0.5481 0.1235 0.6987
H17 H 0.3916 0.2406 0.7044
C19 C 1.0049(4) 0.1545(3) 0.5603(2)
H18 H 0.9864 0.2106 0.5028
H19 H 0.9510 0.0964 0.5638
H20 H 1.1057 0.0956 0.5632
C20 C 0.8776(3) 0.1243(3) 0.90784(18)
C21 C 0.9328(3) 0.0358(3) 0.9934(2)
H21 H 0.8671 0.0319 1.0400
C22 C 0.6320(3) 0.3728(3) 0.58391(17)
C23 C 0.5392(3) 0.4332(3) 0.50466(18)
H22 H 0.5364 0.3740 0.4599
O12 O 0.8673(2) 0.0259(2) 0.72055(14)
O13 O 0.6262(2) 0.7040(2) 0.69042(14)
H23 H 0.9502 -0.0127 0.7408
H24 H 0.8155 -0.0057 0.7537
H25 H 0.5407 0.7472 0.7079
H26 H 0.6305 0.6345 0.6626
Er1A Er 1.227172(11) -0.265433(11) 1.254604(7)
Er1A_2 Er 0.227172(11) 0.734567(11) 0.254604(7)
Cu1A Cu 1.27240(3) -0.57767(3) 1.16920(2)
N1A N 1.4239(3) -0.7048(2) 1.09058(15)
N2A N 1.1363(3) -0.6651(2) 1.16647(17)
O1A O 1.36724(19) -0.45198(19) 1.17177(12)
O2A O 1.13559(19) -0.42862(19) 1.24029(13)
O3A O 1.4685(2) -0.2840(2) 1.23044(13)
O4A O 1.0370(2) -0.2446(2) 1.36404(13)
O5A O 1.2502(2) -0.1621(2) 1.10651(13)
O6A O 1.0420(2) -0.1572(2) 1.14786(14)
O7A O 0.3172(2) 0.7567(2) 0.39927(13)
O7A_2 O 1.3172(2) -0.2433(2) 1.39927(13)
O8A O 0.3440(2) 0.5490(2) 0.36493(13)
O8A_2 O 1.3440(2) -0.4510(2) 1.36493(13)
C1A C 1.4167(4) -0.8298(3) 1.0547(2)
H1A H 1.3889 -0.8091 0.9903
H2A H 1.5119 -0.9054 1.0559
C2A C 1.3154(4) -0.8795(3) 1.1068(2)
H3A H 1.3228 -0.9667 1.0817
H4A H 1.3428 -0.9001 1.1713
C3A C 1.1638(4) -0.7760(3) 1.1030(2)
H5A H 1.1004 -0.8240 1.1194
H6A H 1.1435 -0.7349 1.0402
C4A C 1.0333(3) -0.6443(3) 1.2240(2)
H7A H 0.9837 -0.7023 1.2214
C5A C 0.9840(3) -0.5424(3) 1.2925(2)
C6A C 0.8778(3) -0.5469(4) 1.3553(2)
H8A H 0.8418 -0.6160 1.3517
C7A C 0.8265(4) -0.4531(4) 1.4211(2)
H9A H 0.7559 -0.4582 1.4635
C8A C 0.8768(3) -0.3495(4) 1.4267(2)
H10A H 0.8408 -0.2844 1.4726
C9A C 0.9793(3) -0.3427(3) 1.3649(2)
C10A C 1.0362(3) -0.4395(3) 1.29652(18)
C11A C 1.4984(3) -0.4737(3) 1.14571(17)
C12A C 1.5834(3) -0.5844(3) 1.09297(18)
C13A C 1.7189(3) -0.5952(3) 1.0640(2)
H11A H 1.7762 -0.6691 1.0275
C14A C 1.7695(3) -0.5010(3) 1.0876(2)
H12A H 1.8598 -0.5081 1.0653
C15A C 1.6898(3) -0.3948(3) 1.14419(19)
H13A H 1.7266 -0.3320 1.1628
C16A C 1.5564(3) -0.3825(3) 1.17266(18)
C17A C 1.5392(3) -0.6908(3) 1.06803(19)
H14A H 1.6037 -0.7588 1.0302
C18A C 1.5228(3) -0.1888(3) 1.2616(2)
H15A H 1.5449 -0.1380 1.2090
H16A H 1.4519 -0.1235 1.3013
H17A H 1.6084 -0.2406 1.2956
C19A C 0.9951(4) -0.1545(3) 1.4397(2)
H18A H 1.0136 -0.2106 1.4972
H19A H 1.0490 -0.0964 1.4362
H20A H 0.8943 -0.0956 1.4368
C20A C 1.1224(3) -0.1243(3) 1.09216(18)
C21A C 1.0672(3) -0.0358(3) 1.0066(2)
H21A H 1.1329 -0.0319 0.9600
C22A C 0.3680(3) 0.6272(3) 0.41609(17)
C23A C 0.4608(3) 0.5668(3) 0.49534(18)
H22A H 0.4636 0.6260 0.5401
O12A O 1.1327(2) -0.0259(2) 1.27945(14)
O13A O 1.3738(2) -0.7040(2) 1.30958(14)
H23A H 1.0498 0.0127 1.2592
H24A H 1.1845 0.0057 1.2463
H25A H 1.4593 -0.7472 1.2921
H26A H 1.3695 -0.6345 1.3374
N3 N 0.2479(3) 0.8536(3) 0.7120(2)
O9 O 0.3500(3) 0.8813(4) 0.7306(4)
O10 O 0.2477(5) 0.8097(4) 0.6377(3)
O11 O 0.1493(3) 0.8745(3) 0.76747(18)
O14 O 0.6102(5) 0.0655(5) 0.4969(3)
O16 O 0.7626(3) -0.1177(2) 0.62876(16)
H27 H 0.8386 -0.1547 0.5960
H28 H 0.7451 -0.1863 0.6501
O17 O 0.7516(3) 0.8996(3) 0.14229(19)
H29 H 0.8403 0.8784 0.1398
H30 H 0.7169 0.9535 0.1855
O15? O 0.6260(9) -0.0064(10) 0.4679(6)
loop_
_geom_bond_atom_site_label_1
_geom_bond_atom_site_label_2
_geom_bond_site_symmetry_1
_geom_bond_site_symmetry_2
Er1 O1 1_555 1_555
Cu1 N1 1_555 1_555
N1 C1 1_555 1_555
N2 Cu1 1_555 1_555
N3 O9 1_555 1_555
O1 Cu1 1_555 1_555
O2 Er1 1_555 1_555
O3 Er1 1_555 1_555
O4 Er1 1_555 1_555
O5 Er1 1_555 1_555
O6 Er1 1_555 1_555
O7 Er1 1_555 1_555
O8 Er1 1_555 1_555
O10 N3 1_555 1_555
O11 N3 1_555 1_555
C1 H1 1_555 1_555
H2 C1 1_555 1_555
C2 C1 1_555 1_555
H3 C2 1_555 1_555
H4 C2 1_555 1_555
C3 N2 1_555 1_555
H5 C3 1_555 1_555
H6 C3 1_555 1_555
C4 N2 1_555 1_555
H7 C4 1_555 1_555
C5 C4 1_555 1_555
C6 C5 1_555 1_555
H8 C6 1_555 1_555
C7 C6 1_555 1_555
H9 C7 1_555 1_555
C8 C7 1_555 1_555
H10 C8 1_555 1_555
C9 O4 1_555 1_555
C10 O2 1_555 1_555
C11 O1 1_555 1_555
C12 C11 1_555 1_555
C13 C12 1_555 1_555
H11 C13 1_555 1_555
C14 C13 1_555 1_555
H12 C14 1_555 1_555
C15 C14 1_555 1_555
H13 C15 1_555 1_555
C16 O3 1_555 1_555
C17 N1 1_555 1_555
H14 C17 1_555 1_555
C18 O3 1_555 1_555
H15 C18 1_555 1_555
H16 C18 1_555 1_555
H17 C18 1_555 1_555
C19 O4 1_555 1_555
H18 C19 1_555 1_555
H19 C19 1_555 1_555
H20 C19 1_555 1_555
C20 O5 1_555 1_555
C21 C20 1_555 1_555
H21 C21 1_555 1_555
C22 O7 1_555 1_555
C23 C22 1_555 1_555
H22 C23 1_555 1_555
O12 Er1 1_555 1_555
O13 Cu1 1_555 1_555
O16 H27 1_555 1_555
O17 H29 1_555 1_555
H23 O12 1_555 1_555
H24 O12 1_555 1_555
H25 O13 1_555 1_555
H26 O13 1_555 1_555
H28 O16 1_555 1_555
H30 O17 1_555 1_555
Er1A O1A 1_555 1_555
Er1A_2 O7A 1_555 1_555
Cu1A N1A 1_555 1_555
N1A C1A 1_555 1_555
N2A Cu1A 1_555 1_555
O1A Cu1A 1_555 1_555
O2A Er1A 1_555 1_555
O3A Er1A 1_555 1_555
O4A Er1A 1_555 1_555
O5A Er1A 1_555 1_555
O6A Er1A 1_555 1_555
O7A C22A 1_555 1_555
O7A_2 Er1A 1_555 1_555
O8A Er1A_2 1_555 1_555
O8A_2 Er1A 1_555 1_555
C1A H1A 1_555 1_555
H2A C1A 1_555 1_555
C2A C1A 1_555 1_555
H3A C2A 1_555 1_555
H4A C2A 1_555 1_555
C3A N2A 1_555 1_555
H5A C3A 1_555 1_555
H6A C3A 1_555 1_555
C4A N2A 1_555 1_555
H7A C4A 1_555 1_555
C5A C4A 1_555 1_555
C6A C5A 1_555 1_555
H8A C6A 1_555 1_555
C7A C6A 1_555 1_555
H9A C7A 1_555 1_555
C8A C7A 1_555 1_555
H10A C8A 1_555 1_555
C9A O4A 1_555 1_555
C10A O2A 1_555 1_555
C11A O1A 1_555 1_555
C12A C11A 1_555 1_555
C13A C12A 1_555 1_555
H11A C13A 1_555 1_555
C14A C13A 1_555 1_555
H12A C14A 1_555 1_555
C15A C14A 1_555 1_555
H13A C15A 1_555 1_555
C16A O3A 1_555 1_555
C17A N1A 1_555 1_555
H14A C17A 1_555 1_555
C18A O3A 1_555 1_555
H15A C18A 1_555 1_555
H16A C18A 1_555 1_555
H17A C18A 1_555 1_555
C19A O4A 1_555 1_555
H18A C19A 1_555 1_555
H19A C19A 1_555 1_555
H20A C19A 1_555 1_555
C20A O5A 1_555 1_555
C21A C21 1_555 1_555
H21A C21A 1_555 1_555
C22A O8A 1_555 1_555
C23A C23 1_555 1_555
H22A C23A 1_555 1_555
O12A Er1A 1_555 1_555
O13A Cu1A 1_555 1_555
H23A O12A 1_555 1_555
H24A O12A 1_555 1_555
H25A O13A 1_555 1_555
H26A O13A 1_555 1_555
Cu1 O2 1_555 1_555
O6 C20 1_555 1_555
O8 C22 1_555 1_555
C2 C3 1_555 1_555
C5 C10 1_555 1_555
C8 C9 1_555 1_555
C9 C10 1_555 1_555
C11 C16 1_555 1_555
C12 C17 1_555 1_555
C15 C16 1_555 1_555
Cu1A O2A 1_555 1_555
O6A C20A 1_555 1_555
C2A C3A 1_555 1_555
C5A C10A 1_555 1_555
C8A C9A 1_555 1_555
C9A C10A 1_555 1_555
C11A C16A 1_555 1_555
C12A C17A 1_555 1_555
C15A C16A 1_555 1_555
C20A C21A 1_555 1_555
C22A C23A 1_555 1_555

#END
