
#######################################################################
#
#                 Cambridge Crystallographic Data Centre
#                                CCDC 
#
#######################################################################
#
# If this CIF has been generated from an entry in the Cambridge 
# Structural Database, then it will include bibliographic, chemical, 
# crystal, experimental, refinement or atomic coordinate data resulting 
# from the CCDC's data processing and validation procedures.
#
#######################################################################

data_YEBPIE
_symmetry_cell_setting           orthorhombic
_symmetry_space_group_name_H-M   'C m c 21'
_symmetry_Int_Tables_number      36
_space_group_name_Hall           'C 2n -2'
loop_
_symmetry_equiv_pos_site_id
_symmetry_equiv_pos_as_xyz
1 x,y,z
2 1/2+x,1/2+y,z
3 -x,y,z
4 1/2-x,1/2+y,z
5 x,-y,1/2+z
6 1/2+x,1/2-y,1/2+z
7 -x,-y,1/2+z
8 1/2-x,1/2-y,1/2+z
_cell_length_a                   17.772(3)
_cell_length_b                   10.261(2)
_cell_length_c                   9.444(4)
_cell_angle_alpha                90
_cell_angle_beta                 90
_cell_angle_gamma                90
_cell_volume                     1722.19
loop_
_atom_site_label
_atom_site_type_symbol
_atom_site_fract_x
_atom_site_fract_y
_atom_site_fract_z
Zn1 Zn 0.0000 0.2504(2) -0.0818
B1 B -0.2520(3) 0.5286(3) -0.3391(3)
N1 N -0.1786(2) 0.4336(3) -0.3186(3)
N2 N -0.1546(3) 0.3686(3) -0.4102(3)
N3 N -0.0962(3) 0.2988(3) -0.3616(3)
N4 N -0.0902(3) 0.3237(3) -0.2280(3)
C1 C -0.1398(3) 0.4050(3) -0.1920(3)
N5 N -0.3174(3) 0.4398(3) -0.3645(3)
N6 N -0.3500(3) 0.3562(3) -0.2466(3)
N7 N -0.4019(3) 0.2913(3) -0.3035(3)
N8 N -0.4135(3) 0.3247(3) -0.4470(3)
C2 C -0.3586(3) 0.4157(3) -0.4681(3)
O1 O 0.0000 0.4319(3) 0.0195(3)
O2 O 0.0000 0.0739(3) -0.1920(3)
H1 H -0.2706(4) 0.5869(4) -0.2248(4)
H2 H -0.2558(4) 0.5892(4) -0.4180(4)
H3 H -0.1489 0.4484 -0.0992
H4 H -0.3559 0.4596 -0.5621
H5 H 0.0000 0.4920 -0.0638
H6 H 0.0000 0.4415 0.1321
H7 H 0.0000 0.0673 -0.2868
H8 H 0.0000 -0.0146 -0.1430
N4B N 0.0902(3) 0.3237(3) -0.2280(3)
N8G N -0.0865(3) 0.1753(3) 0.0530(3)
N8E N 0.0865(3) 0.1753(3) 0.0530(3)
Zn1E Zn -0.5000 0.2496(2) -0.5818
N3B N 0.0962(3) 0.2988(3) -0.3616(3)
C1B C 0.1398(3) 0.4050(3) -0.1920(3)
N2B N 0.1546(3) 0.3686(3) -0.4102(3)
N1B N 0.1786(2) 0.4336(3) -0.3186(3)
H3B H 0.1489 0.4484 -0.0992
B1B B 0.2520(3) 0.5286(3) -0.3391(3)
N5B N 0.3174(3) 0.4398(3) -0.3645(3)
H1B H 0.2706(4) 0.5869(4) -0.2248(4)
H2B H 0.2558(4) 0.5892(4) -0.4180(4)
N6B N 0.3500(3) 0.3562(3) -0.2466(3)
C2B C 0.3586(3) 0.4157(3) -0.4681(3)
N7B N 0.4019(3) 0.2913(3) -0.3035(3)
N8B N 0.4135(3) 0.3247(3) -0.4470(3)
H4B H 0.3559 0.4596 -0.5621
Zn1E_2 Zn 0.5000 0.2496(2) -0.5818
O3 O 0.0000 0.3867(3) 0.3241
H9 H 0.0466 0.3555 0.3008
H9B H -0.0466 0.3555 0.3008
O4 O 0.0000 0.1090(3) 0.5145
H10 H -0.0447 0.1492 0.5379
H10B H 0.0447 0.1492 0.5379
loop_
_geom_bond_atom_site_label_1
_geom_bond_atom_site_label_2
_geom_bond_site_symmetry_1
_geom_bond_site_symmetry_2
Zn1 N4 1_555 1_555
B1 N1 1_555 1_555
N1 N2 1_555 1_555
N2 N3 1_555 1_555
N3 N4 1_555 1_555
N4 C1 1_555 1_555
C1 N1 1_555 1_555
N5 B1 1_555 1_555
N6 N5 1_555 1_555
N7 N6 1_555 1_555
N8 N7 1_555 1_555
C2 N5 1_555 1_555
O1 Zn1 1_555 1_555
O2 Zn1 1_555 1_555
H1 B1 1_555 1_555
H2 B1 1_555 1_555
H3 C1 1_555 1_555
H4 C2 1_555 1_555
H5 O1 1_555 1_555
H6 O1 1_555 1_555
H7 O2 1_555 1_555
H8 O2 1_555 1_555
O3 H9 1_555 1_555
O4 H10 1_555 1_555
N4B Zn1 1_555 1_555
N8G Zn1 1_555 1_555
N8E Zn1 1_555 1_555
Zn1E N8 1_555 1_555
N3B N4B 1_555 1_555
C1B N4B 1_555 1_555
N2B N3B 1_555 1_555
N1B C1B 1_555 1_555
H3B C1B 1_555 1_555
B1B N1B 1_555 1_555
N5B B1B 1_555 1_555
H1B B1B 1_555 1_555
H2B B1B 1_555 1_555
N6B N5B 1_555 1_555
C2B N5B 1_555 1_555
N7B N6B 1_555 1_555
N8B C2B 1_555 1_555
H4B C2B 1_555 1_555
Zn1E_2 N8B 1_555 1_555
H9B O3 1_555 1_555
H10B O4 1_555 1_555
N8 C2 1_555 1_555
N2B N1B 1_555 1_555
N7B N8B 1_555 1_555

#END
