
#######################################################################
#
#                 Cambridge Crystallographic Data Centre
#                                CCDC 
#
#######################################################################
#
# If this CIF has been generated from an entry in the Cambridge 
# Structural Database, then it will include bibliographic, chemical, 
# crystal, experimental, refinement or atomic coordinate data resulting 
# from the CCDC's data processing and validation procedures.
#
#######################################################################

data_YEBPUR
_symmetry_cell_setting           triclinic
_symmetry_space_group_name_H-M   'P -1'
_symmetry_Int_Tables_number      2
_space_group_name_Hall           '-P 1'
loop_
_symmetry_equiv_pos_site_id
_symmetry_equiv_pos_as_xyz
1 x,y,z
2 -x,-y,-z
_cell_length_a                   10.7392(6)
_cell_length_b                   14.3927(8)
_cell_length_c                   17.1400(9)
_cell_angle_alpha                86.807(5)
_cell_angle_beta                 75.860(5)
_cell_angle_gamma                71.679(5)
_cell_volume                     2438.13
loop_
_atom_site_label
_atom_site_type_symbol
_atom_site_fract_x
_atom_site_fract_y
_atom_site_fract_z
Gd1 Gd 0.816446(15) 0.408371(13) 0.433245(10)
Cu1 Cu 0.88318(4) 0.20190(3) 0.30915(2)
N1 N 0.9263(3) 0.1871(2) 0.18933(18)
N2 N 0.9366(3) 0.0614(2) 0.33218(18)
O1 O 0.7427(2) 0.53257(16) 0.33036(14)
O2 O 0.8305(2) 0.34456(16) 0.30438(13)
O3 O 0.8610(2) 0.23727(16) 0.42409(13)
O4 O 0.7399(2) 0.32659(17) 0.56403(13)
O5 O 0.9666(2) 0.38883(17) 0.52075(14)
O6 O 0.5897(2) 0.40140(16) 0.43358(13)
O7 O 0.3665(2) 0.46784(17) 0.48132(13)
O8 O 1.1093(2) 0.44955(17) 0.56153(14)
C1 C 0.8026(3) 0.5016(3) 0.2510(2)
C2 C 0.8188(3) 0.5635(3) 0.1880(2)
H1 H 0.7891 0.6324 0.1969
C3 C 0.8800(4) 0.5228(3) 0.1104(2)
H2 H 0.8939 0.5644 0.0663
C4 C 0.9194(3) 0.4250(3) 0.0977(2)
H3 H 0.9591 0.3990 0.0444
C5 C 0.9028(3) 0.3609(3) 0.1617(2)
C6 C 0.8463(3) 0.3991(3) 0.2402(2)
C7 C 0.9363(3) 0.2583(3) 0.1417(2)
H4 H 0.9702 0.2411 0.0861
C8 C 0.9629(4) 0.0920(3) 0.1457(2)
H5 H 1.0605 0.0718 0.1191
H6 H 0.9126 0.1015 0.1031
C9 C 0.9335(4) 0.0110(3) 0.1989(3)
H7 H 0.9596 -0.0492 0.1655
H8 H 0.8351 0.0292 0.2228
C10 C 1.0069(4) -0.0103(3) 0.2654(2)
H9 H 1.0122 -0.0770 0.2853
H10 H 1.1002 -0.0078 0.2444
C11 C 0.9087(3) 0.0273(3) 0.4021(2)
H11 H 0.9358 -0.0420 0.4055
C12 C 0.8411(3) 0.0813(3) 0.4768(2)
C13 C 0.7962(4) 0.0295(3) 0.5434(2)
H12 H 0.8120 -0.0389 0.5379
C14 C 0.7299(4) 0.0755(3) 0.6165(2)
H13 H 0.6983 0.0395 0.6609
C15 C 0.7090(3) 0.1748(3) 0.6256(2)
H14 H 0.6629 0.2070 0.6762
C16 C 0.7551(3) 0.2269(3) 0.5609(2)
C17 C 0.8207(3) 0.1827(3) 0.4848(2)
C18 C 0.6846(3) 0.6372(2) 0.3451(2)
H15 H 0.6405 0.6503 0.4024
H16 H 0.6178 0.6639 0.3130
H17 H 0.7561 0.6681 0.3299
C19 C 0.7136(4) 0.3682(3) 0.6439(2)
H18 H 0.7206 0.4347 0.6394
H19 H 0.7801 0.3276 0.6722
H20 H 0.6226 0.3705 0.6742
C20 C 1.0228(3) 0.4527(2) 0.5238(2)
C21 C 0.4879(3) 0.4620(2) 0.47516(19)
O17 O 0.6483(2) 0.22435(18) 0.33865(15)
O18 O 1.0416(2) 0.37371(19) 0.34625(15)
H29 H 0.6185 0.1874 0.3717
H30 H 0.6317 0.2784 0.3697
H31 H 1.0776 0.3173 0.3134
H32 H 1.1019 0.3942 0.3510
Gd1A Gd 1.183554(15) 0.591629(13) 0.566755(10)
Gd1A_2 Gd 0.183554(15) 0.591629(13) 0.566755(10)
Cu1A Cu 1.11682(4) 0.79810(3) 0.69085(2)
N1A N 1.0737(3) 0.8129(2) 0.81067(18)
N2A N 1.0634(3) 0.9386(2) 0.66782(18)
O1A O 1.2573(2) 0.46743(16) 0.66964(14)
O2A O 1.1695(2) 0.65544(16) 0.69562(13)
O3A O 1.1390(2) 0.76273(16) 0.57591(13)
O4A O 1.2601(2) 0.67341(17) 0.43597(13)
O5A O 1.0334(2) 0.61117(17) 0.47925(14)
O6A O 0.4103(2) 0.59860(16) 0.56642(13)
O6A_2 O 1.4103(2) 0.59860(16) 0.56642(13)
O7A O 0.6335(2) 0.53216(17) 0.51868(13)
O7_2 O 1.3665(2) 0.46784(17) 0.48132(13)
O8A O 0.8907(2) 0.55045(17) 0.43847(14)
C1A C 1.1974(3) 0.4984(3) 0.7490(2)
C2A C 1.1812(3) 0.4365(3) 0.8120(2)
H1A H 1.2109 0.3676 0.8031
C3A C 1.1200(4) 0.4772(3) 0.8896(2)
H2A H 1.1061 0.4356 0.9337
C4A C 1.0806(3) 0.5750(3) 0.9023(2)
H3A H 1.0409 0.6010 0.9556
C5A C 1.0972(3) 0.6391(3) 0.8383(2)
C6A C 1.1537(3) 0.6009(3) 0.7598(2)
C7A C 1.0637(3) 0.7417(3) 0.8583(2)
H4A H 1.0298 0.7589 0.9139
C8A C 1.0371(4) 0.9080(3) 0.8543(2)
H5A H 0.9395 0.9282 0.8809
H6A H 1.0874 0.8985 0.8969
C9A C 1.0665(4) 0.9890(3) 0.8011(3)
H7A H 1.0404 1.0492 0.8345
H8A H 1.1649 0.9708 0.7772
C10A C 0.9931(4) 1.0103(3) 0.7346(2)
H9A H 0.9878 1.0770 0.7147
H10A H 0.8998 1.0078 0.7556
C11A C 1.0913(3) 0.9727(3) 0.5979(2)
H11A H 1.0642 1.0420 0.5945
C12A C 1.1589(3) 0.9187(3) 0.5232(2)
C13A C 1.2038(4) 0.9705(3) 0.4566(2)
H12A H 1.1880 1.0389 0.4621
C14A C 1.2701(4) 0.9245(3) 0.3835(2)
H13A H 1.3017 0.9605 0.3391
C15A C 1.2910(3) 0.8252(3) 0.3744(2)
H14A H 1.3371 0.7930 0.3238
C16A C 1.2449(3) 0.7731(3) 0.4391(2)
C17A C 1.1793(3) 0.8173(3) 0.5152(2)
C18A C 1.3154(3) 0.3628(2) 0.6549(2)
H15A H 1.3595 0.3497 0.5976
H16A H 1.3822 0.3361 0.6870
H17A H 1.2439 0.3319 0.6701
C19A C 1.2864(4) 0.6318(3) 0.3561(2)
H18A H 1.2794 0.5653 0.3606
H19A H 1.2199 0.6724 0.3278
H20A H 1.3774 0.6295 0.3258
C20A C 0.9772(3) 0.5473(2) 0.4762(2)
C21A C 0.5121(3) 0.5380(2) 0.52484(19)
O17A O 1.3517(2) 0.77565(18) 0.66135(15)
O18A O 0.9584(2) 0.62629(19) 0.65375(15)
H29A H 1.3815 0.8126 0.6283
H30A H 1.3683 0.7216 0.6303
H31A H 0.9224 0.6827 0.6866
H32A H 0.8981 0.6058 0.6490
Cr1 Cr 0.77540(5) 0.29273(4) 0.90351(3)
N3 N 0.7566(3) 0.4382(2) 0.90829(18)
N4 N 0.6722(3) 0.3266(2) 1.02106(18)
O9 O 0.6169(2) 0.32816(19) 0.85911(15)
O10 O 0.7574(2) 0.16103(18) 0.90301(16)
O11 O 0.4927(3) 0.2611(2) 0.80810(17)
O12 O 0.6379(3) 0.0829(2) 0.8577(2)
O13 O 0.9433(2) 0.25237(18) 0.94024(15)
O14 O 0.8987(2) 0.27132(18) 0.79674(14)
O15 O 1.1657(3) 0.2123(2) 0.89008(17)
O16 O 1.1186(2) 0.2176(2) 0.73912(16)
C22 C 0.5823(3) 0.2559(3) 0.8420(2)
C23 C 0.6657(4) 0.1558(3) 0.8692(2)
C24 C 1.0503(4) 0.2336(3) 0.8829(2)
C25 C 1.0239(4) 0.2406(3) 0.7978(2)
C26 C 0.7978(4) 0.4904(3) 0.8459(2)
H21 H 0.8449 0.4577 0.7956
C27 C 0.7745(4) 0.5899(3) 0.8517(3)
H22 H 0.8054 0.6250 0.8065
C28 C 0.7054(4) 0.6372(3) 0.9245(3)
H23 H 0.6874 0.7058 0.9300
C29 C 0.6628(3) 0.5848(3) 0.9891(2)
H24 H 0.6163 0.6168 1.0397
C30 C 0.6879(3) 0.4851(3) 0.9803(2)
C31 C 0.5867(3) 0.4511(3) 1.1240(2)
H25 H 0.5664 0.5175 1.1398
C32 C 0.5580(4) 0.3837(3) 1.1801(2)
H26 H 0.5182 0.4033 1.2349
C33 C 0.5874(4) 0.2877(3) 1.1564(2)
H27 H 0.5699 0.2401 1.1945
C34 C 0.6425(4) 0.2626(3) 1.0762(2)
H28 H 0.6602 0.1969 1.0594
C35 C 0.6456(3) 0.4211(3) 1.0444(2)
O19 O 0.3972(2) 0.1200(2) 0.75269(16)
H33 H 0.4751 0.1515 0.7483
H34 H 0.3262 0.1546 0.7679
O20 O 0.1079(3) 0.20438(19) 0.58076(17)
H35 H 0.0834 0.2259 0.6362
H36 H 0.0717 0.2461 0.5512
O21 O 0.5341(3) 0.0931(2) 0.43423(17)
H37 H 0.5788 0.0264 0.4238
H38 H 0.4911 0.1008 0.4850
O22 O 0.2888(2) 0.3730(2) 0.36415(17)
H39 H 0.3315 0.3188 0.3472
H40 H 0.3194 0.3995 0.4053
O23 O 0.3677(3) 0.1675(2) 0.3326(2)
H41 H 0.3941 0.1507 0.3788
H42 H 0.4446 0.1386 0.2810
O24 O 0.4613(3) 0.9268(2) 0.8096(2)
H43 H 0.5412 0.9141 0.8316
H44 H 0.4243 0.9893 0.7882
O25 O 0.1432(2) 0.1934(2) 0.27481(17)
H45 H 0.2137 0.2023 0.2996
H46 H 0.1862 0.1907 0.2207
O26 O 0.3662(3) 0.1519(3) 0.9695(2)
H47 H 0.2830 0.1838 0.9518
H48 H 0.4442 0.1130 0.9309
O27 O 0.6968(3) 0.8868(2) 0.87418(19)
H49 H 0.6938 0.8717 0.9318
H50 H 0.6837 0.9564 0.8738
O28 O 0.6226(3) 0.8915(2) 0.40953(17)
H51 H 0.6946 0.8581 0.4171
H52 H 0.6248 0.8769 0.3569
loop_
_geom_bond_atom_site_label_1
_geom_bond_atom_site_label_2
_geom_bond_site_symmetry_1
_geom_bond_site_symmetry_2
Gd1 O1 1_555 1_555
Cu1 N1 1_555 1_555
Cr1 N3 1_555 1_555
N1 C7 1_555 1_555
N2 Cu1 1_555 1_555
N3 C26 1_555 1_555
N4 Cr1 1_555 1_555
O1 C1 1_555 1_555
O2 Gd1 1_555 1_555
O3 Gd1 1_555 1_555
O4 Gd1 1_555 1_555
O5 Gd1 1_555 1_555
O6 Gd1 1_555 1_555
O7 C21 1_555 1_555
O8 C20 1_555 1_555
O9 Cr1 1_555 1_555
O10 Cr1 1_555 1_555
O11 C22 1_555 1_555
O12 C23 1_555 1_555
O13 Cr1 1_555 1_555
O14 Cr1 1_555 1_555
O15 C24 1_555 1_555
O16 C25 1_555 1_555
C1 C2 1_555 1_555
C2 H1 1_555 1_555
C3 C2 1_555 1_555
H2 C3 1_555 1_555
C4 C3 1_555 1_555
H3 C4 1_555 1_555
C5 C4 1_555 1_555
C6 O2 1_555 1_555
C7 C5 1_555 1_555
H4 C7 1_555 1_555
C8 N1 1_555 1_555
H5 C8 1_555 1_555
H6 C8 1_555 1_555
C9 C8 1_555 1_555
H7 C9 1_555 1_555
H8 C9 1_555 1_555
C10 N2 1_555 1_555
H9 C10 1_555 1_555
H10 C10 1_555 1_555
C11 N2 1_555 1_555
H11 C11 1_555 1_555
C12 C11 1_555 1_555
C13 C12 1_555 1_555
H12 C13 1_555 1_555
C14 C13 1_555 1_555
H13 C14 1_555 1_555
C15 C14 1_555 1_555
H14 C15 1_555 1_555
C16 O4 1_555 1_555
C17 O3 1_555 1_555
C18 O1 1_555 1_555
H15 C18 1_555 1_555
H16 C18 1_555 1_555
H17 C18 1_555 1_555
C19 O4 1_555 1_555
H18 C19 1_555 1_555
H19 C19 1_555 1_555
H20 C19 1_555 1_555
C20 O5 1_555 1_555
C21 O6 1_555 1_555
C22 O9 1_555 1_555
C23 O10 1_555 1_555
C24 O13 1_555 1_555
C25 O14 1_555 1_555
C26 H21 1_555 1_555
C27 C26 1_555 1_555
H22 C27 1_555 1_555
C28 C27 1_555 1_555
H23 C28 1_555 1_555
C29 C28 1_555 1_555
H24 C29 1_555 1_555
C30 N3 1_555 1_555
C31 H25 1_555 1_555
C32 C31 1_555 1_555
H26 C32 1_555 1_555
C33 C32 1_555 1_555
H27 C33 1_555 1_555
C34 N4 1_555 1_555
H28 C34 1_555 1_555
C35 N4 1_555 1_555
O17 Cu1 1_555 1_555
O18 Gd1 1_555 1_555
O19 H33 1_555 1_555
O20 H35 1_555 1_555
O21 H37 1_555 1_555
O22 H39 1_555 1_555
O23 H41 1_555 1_555
O24 H43 1_555 1_555
O25 H45 1_555 1_555
O26 H47 1_555 1_555
O27 H49 1_555 1_555
O28 H51 1_555 1_555
H29 O17 1_555 1_555
H30 O17 1_555 1_555
H31 O18 1_555 1_555
H32 O18 1_555 1_555
H34 O19 1_555 1_555
H36 O20 1_555 1_555
H38 O21 1_555 1_555
H40 O22 1_555 1_555
H42 O23 1_555 1_555
H44 O24 1_555 1_555
H46 O25 1_555 1_555
H48 O26 1_555 1_555
H50 O27 1_555 1_555
H52 O28 1_555 1_555
Gd1A O8 1_555 1_555
Gd1A_2 O7 1_555 1_555
Cu1A N1A 1_555 1_555
N1A C7A 1_555 1_555
N2A Cu1A 1_555 1_555
O1A Gd1A 1_555 1_555
O2A Gd1A 1_555 1_555
O3A Gd1A 1_555 1_555
O4A Gd1A 1_555 1_555
O5A Gd1A 1_555 1_555
O6A Gd1A_2 1_555 1_555
O6A_2 Gd1A 1_555 1_555
O7A Gd1 1_555 1_555
O7_2 Gd1A 1_555 1_555
O8A Gd1 1_555 1_555
C1A O1A 1_555 1_555
C2A C1A 1_555 1_555
H1A C2A 1_555 1_555
C3A C2A 1_555 1_555
H2A C3A 1_555 1_555
C4A C3A 1_555 1_555
H3A C4A 1_555 1_555
C5A C4A 1_555 1_555
C6A O2A 1_555 1_555
C7A C5A 1_555 1_555
H4A C7A 1_555 1_555
C8A N1A 1_555 1_555
H5A C8A 1_555 1_555
H6A C8A 1_555 1_555
C9A C8A 1_555 1_555
H7A C9A 1_555 1_555
H8A C9A 1_555 1_555
C10A N2A 1_555 1_555
H9A C10A 1_555 1_555
H10A C10A 1_555 1_555
C11A N2A 1_555 1_555
H11A C11A 1_555 1_555
C12A C11A 1_555 1_555
C13A C12A 1_555 1_555
H12A C13A 1_555 1_555
C14A C13A 1_555 1_555
H13A C14A 1_555 1_555
C15A C14A 1_555 1_555
H14A C15A 1_555 1_555
C16A O4A 1_555 1_555
C17A O3A 1_555 1_555
C18A O1A 1_555 1_555
H15A C18A 1_555 1_555
H16A C18A 1_555 1_555
H17A C18A 1_555 1_555
C19A O4A 1_555 1_555
H18A C19A 1_555 1_555
H19A C19A 1_555 1_555
H20A C19A 1_555 1_555
C20A C20 1_555 1_555
C21A C21 1_555 1_555
O17A Cu1A 1_555 1_555
O18A Gd1A 1_555 1_555
H29A O17A 1_555 1_555
H30A O17A 1_555 1_555
H31A O18A 1_555 1_555
H32A O18A 1_555 1_555
Cu1 O2 1_555 1_555
Cu1 O3 1_555 1_555
C1 C6 1_555 1_555
C5 C6 1_555 1_555
C9 C10 1_555 1_555
C12 C17 1_555 1_555
C15 C16 1_555 1_555
C16 C17 1_555 1_555
C22 C23 1_555 1_555
C24 C25 1_555 1_555
C29 C30 1_555 1_555
C30 C35 1_555 1_555
C31 C35 1_555 1_555
C33 C34 1_555 1_555
Cu1A O2A 1_555 1_555
Cu1A O3A 1_555 1_555
O5A C20A 1_555 1_555
O6A C21A 1_555 1_555
O7A C21A 1_555 1_555
O8A C20A 1_555 1_555
C1A C6A 1_555 1_555
C5A C6A 1_555 1_555
C9A C10A 1_555 1_555
C12A C17A 1_555 1_555
C15A C16A 1_555 1_555
C16A C17A 1_555 1_555

#END
