
#######################################################################
#
#                 Cambridge Crystallographic Data Centre
#                                CCDC 
#
#######################################################################
#
# If this CIF has been generated from an entry in the Cambridge 
# Structural Database, then it will include bibliographic, chemical, 
# crystal, experimental, refinement or atomic coordinate data resulting 
# from the CCDC's data processing and validation procedures.
#
#######################################################################

data_YEBQAY
_symmetry_cell_setting           orthorhombic
_symmetry_space_group_name_H-M   'P 21 21 21'
_symmetry_Int_Tables_number      19
_space_group_name_Hall           'P 2ac 2ab'
loop_
_symmetry_equiv_pos_site_id
_symmetry_equiv_pos_as_xyz
1 x,y,z
2 1/2-x,-y,1/2+z
3 1/2+x,1/2-y,-z
4 -x,1/2+y,1/2-z
_cell_length_a                   13.2745(7)
_cell_length_b                   15.1858(8)
_cell_length_c                   16.9909(9)
_cell_angle_alpha                90
_cell_angle_beta                 90
_cell_angle_gamma                90
_cell_volume                     3425.09
loop_
_atom_site_label
_atom_site_type_symbol
_atom_site_fract_x
_atom_site_fract_y
_atom_site_fract_z
Gd1 Gd 0.585935(13) 0.094781(11) 0.408723(10)
Cu1 Cu 0.79100(3) -0.04995(3) 0.40324(3)
Cr1 Cr 0.16036(4) 0.10286(4) 0.39886(3)
N1 N 0.8625(3) -0.1091(2) 0.31563(19)
N2 N 0.8693(3) -0.1074(2) 0.48753(19)
N3 N 0.4008(2) 0.1239(2) 0.4135(2)
N4 N 0.1798(3) 0.0095(3) 0.5675(2)
N5 N 0.6080(3) 0.2194(2) 0.5060(2)
N6 N 0.9204(3) 0.0716(2) 0.39352(19)
N7 N 0.1671(4) 0.1782(3) 0.2231(2)
N8 N 0.2120(3) -0.0798(3) 0.3113(2)
O1 O 0.6930(2) 0.00344(18) 0.33096(15)
O2 O 0.6995(2) 0.00544(18) 0.48142(15)
O3 O 0.5283(2) 0.06616(19) 0.26678(16)
O4 O 0.5301(2) 0.0542(2) 0.54821(16)
C1 C 0.9671(3) -0.1405(3) 0.3244(3)
H1 H 1.0133 -0.0893 0.3232
H2 H 0.9841 -0.1789 0.2792
C2 C 0.9836(3) -0.1915(3) 0.4004(3)
H3 H 0.9340 -0.2400 0.4030
H4 H 1.0516 -0.2183 0.3990
C3 C 0.9746(3) -0.1373(3) 0.4736(3)
H5 H 0.9975 -0.1725 0.5192
H6 H 1.0191 -0.0852 0.4692
C4 C 0.8316(4) -0.1244(3) 0.5553(2)
H7 H 0.8726 -0.1580 0.5899
C5 C 0.7344(3) -0.0985(3) 0.5852(2)
C6 C 0.7028(4) -0.1380(3) 0.6563(3)
H8 H 0.7447 -0.1803 0.6813
C7 C 0.6121(4) -0.1158(3) 0.6896(3)
H9 H 0.5906 -0.1439 0.7366
C8 C 0.5521(4) -0.0525(3) 0.6547(2)
H10 H 0.4895 -0.0369 0.6778
C9 C 0.5838(3) -0.0117(3) 0.5853(2)
C10 C 0.6745(3) -0.0344(3) 0.5487(2)
C11 C 0.6669(3) -0.0290(3) 0.2608(2)
C12 C 0.5784(3) 0.0006(2) 0.2253(2)
C13 C 0.5455(3) -0.0324(3) 0.1542(2)
H11 H 0.4836 -0.0126 0.1325
C14 C 0.6033(3) -0.0951(3) 0.1140(2)
H12 H 0.5808 -0.1181 0.0650
C15 C 0.6931(4) -0.1232(3) 0.1461(2)
H13 H 0.7335 -0.1643 0.1183
C16 C 0.7256(3) -0.0916(3) 0.2199(2)
C17 C 0.8240(3) -0.1209(3) 0.2472(2)
H14 H 0.8640 -0.1522 0.2103
C18 C 0.4458(3) 0.0914(4) 0.5899(3)
H15 H 0.3911 0.0482 0.5923
H16 H 0.4223 0.1443 0.5624
H17 H 0.4666 0.1071 0.6435
C19 C 0.4376(3) 0.0996(4) 0.2302(2)
H18 H 0.4529 0.1187 0.1764
H19 H 0.4121 0.1496 0.2607
H20 H 0.3866 0.0530 0.2287
C20 C 0.3156(3) 0.1220(2) 0.4086(2)
C21 C 0.1696(3) 0.0417(3) 0.5069(2)
C22 C 0.6280(3) 0.2803(3) 0.5429(2)
C23 C 1.0059(3) 0.0832(3) 0.3948(2)
C24 C 0.1619(4) 0.1561(3) 0.2875(2)
C25 C 0.1916(3) -0.0159(3) 0.3432(2)
O5 O 0.5494(2) 0.2365(2) 0.33853(17)
O6 O 0.5127(2) -0.05087(18) 0.40626(19)
O7 O 0.7409(2) 0.1702(2) 0.3775(2)
Cr1B Cr 0.66036(4) 0.39714(4) 0.60114(3)
Cr1_2 Cr 1.16036(4) 0.10286(4) 0.39886(3)
C22B C 0.1280(3) 0.2197(3) 0.4571(2)
C23_2 C 0.0059(3) 0.0832(3) 0.3948(2)
O8 O 0.2538(3) 0.8342(2) 0.5736(2)
O9 O 0.2186(3) 0.1595(2) 0.67182(18)
O10 O 0.3521(3) -0.1571(2) 0.4292(2)
O11 O 0.1493(4) 0.6875(3) 0.6121(3)
loop_
_geom_bond_atom_site_label_1
_geom_bond_atom_site_label_2
_geom_bond_site_symmetry_1
_geom_bond_site_symmetry_2
Gd1 N3 1_555 1_555
Cu1 N1 1_555 1_555
Cr1 C20 1_555 1_555
N1 C1 1_555 1_555
N2 Cu1 1_555 1_555
N3 C20 1_555 1_555
N4 C21 1_555 1_555
N5 Gd1 1_555 1_555
N6 Cu1 1_555 1_555
N7 C24 1_555 1_555
N8 C25 1_555 1_555
O1 Gd1 1_555 1_555
O2 Gd1 1_555 1_555
O3 Gd1 1_555 1_555
O4 Gd1 1_555 1_555
C1 H1 1_555 1_555
H2 C1 1_555 1_555
C2 C1 1_555 1_555
H3 C2 1_555 1_555
H4 C2 1_555 1_555
C3 N2 1_555 1_555
H5 C3 1_555 1_555
H6 C3 1_555 1_555
C4 N2 1_555 1_555
H7 C4 1_555 1_555
C5 C4 1_555 1_555
C6 C5 1_555 1_555
H8 C6 1_555 1_555
C7 C6 1_555 1_555
H9 C7 1_555 1_555
C8 C7 1_555 1_555
H10 C8 1_555 1_555
C9 O4 1_555 1_555
C10 O2 1_555 1_555
C11 O1 1_555 1_555
C12 O3 1_555 1_555
C13 C12 1_555 1_555
H11 C13 1_555 1_555
C14 C13 1_555 1_555
H12 C14 1_555 1_555
C15 C14 1_555 1_555
H13 C15 1_555 1_555
C16 C11 1_555 1_555
C17 N1 1_555 1_555
H14 C17 1_555 1_555
C18 O4 1_555 1_555
H15 C18 1_555 1_555
H16 C18 1_555 1_555
H17 C18 1_555 1_555
C19 O3 1_555 1_555
H18 C19 1_555 1_555
H19 C19 1_555 1_555
H20 C19 1_555 1_555
C21 Cr1 1_555 1_555
C22 N5 1_555 1_555
C23 N6 1_555 1_555
C24 Cr1 1_555 1_555
C25 Cr1 1_555 1_555
O5 Gd1 1_555 1_555
O6 Gd1 1_555 1_555
O7 Gd1 1_555 1_555
Cr1B C22 1_555 1_555
Cr1_2 C23 1_555 1_555
C22B Cr1 1_555 1_555
C23_2 Cr1 1_555 1_555
Cu1 O1 1_555 1_555
Cu1 O2 1_555 1_555
C2 C3 1_555 1_555
C5 C10 1_555 1_555
C8 C9 1_555 1_555
C9 C10 1_555 1_555
C11 C12 1_555 1_555
C15 C16 1_555 1_555
C16 C17 1_555 1_555

#END
