
#######################################################################
#
#                 Cambridge Crystallographic Data Centre
#                                CCDC 
#
#######################################################################
#
# If this CIF has been generated from an entry in the Cambridge 
# Structural Database, then it will include bibliographic, chemical, 
# crystal, experimental, refinement or atomic coordinate data resulting 
# from the CCDC's data processing and validation procedures.
#
#######################################################################

data_YECBUF
_symmetry_cell_setting           monoclinic
_symmetry_space_group_name_H-M   'C 2/c'
_symmetry_Int_Tables_number      15
_space_group_name_Hall           '-C 2yn'
loop_
_symmetry_equiv_pos_site_id
_symmetry_equiv_pos_as_xyz
1 x,y,z
2 -x,y,1/2-z
3 1/2+x,1/2+y,z
4 1/2-x,1/2+y,1/2-z
5 -x,-y,-z
6 x,-y,1/2+z
7 1/2-x,1/2-y,-z
8 1/2+x,1/2-y,1/2+z
_cell_length_a                   13.543(2)
_cell_length_b                   12.358(2)
_cell_length_c                   7.188(1)
_cell_angle_alpha                90
_cell_angle_beta                 112.65(1)
_cell_angle_gamma                90
_cell_volume                     1110.23
loop_
_atom_site_label
_atom_site_type_symbol
_atom_site_fract_x
_atom_site_fract_y
_atom_site_fract_z
Na1 Na 0.0000 0.04280(10) 0.2500
O1 O 0.0000 0.72261(16) 0.2500
O2 O 0.18330(13) 0.69143(13) 0.1739(3)
O3 O 0.27392(13) 0.58912(15) 0.4241(3)
O4 O 0.18224(12) 0.39617(12) 0.2717(3)
O5 O 0.07878(11) 0.22507(12) 0.2461(2)
O6 O 0.08014(14) -0.08793(13) 0.1190(3)
N1 N 0.19019(13) 0.61672(14) 0.2900(3)
N2 N 0.0000 0.27738(19) 0.2500
C1 C 0.0000 0.6222(2) 0.2500
C2 C 0.09227(15) 0.55849(16) 0.2668(3)
C3 C 0.09449(15) 0.44745(16) 0.2642(3)
C4 C 0.0000 0.3891(2) 0.2500
H1 H 0.171(2) 0.3307(10) 0.272(5)
H2 H 0.066(2) -0.1477(13) 0.149(5)
H3 H 0.1444(10) -0.082(3) 0.149(6)
Na1D Na 0.0000 -0.04280(10) -0.2500
Na1D_2 Na 0.0000 -0.04280(10) 0.7500
O2A O -0.18330(13) 0.69143(13) 0.3261(3)
O3A O -0.27392(13) 0.58912(15) 0.0759(3)
O4A O -0.18224(12) 0.39617(12) 0.2283(3)
O5A O -0.07878(11) 0.22507(12) 0.2539(2)
O6A O -0.08014(14) -0.08793(13) 0.3810(3)
O6D O -0.08014(14) 0.08793(13) -0.1190(3)
O6E O 0.08014(14) 0.08793(13) 0.6190(3)
N1A N -0.19019(13) 0.61672(14) 0.2100(3)
C2A C -0.09227(15) 0.55849(16) 0.2332(3)
C3A C -0.09449(15) 0.44745(16) 0.2358(3)
H1A H -0.171(2) 0.3307(10) 0.228(5)
H2A H -0.066(2) -0.1477(13) 0.351(5)
H2E H 0.066(2) 0.1477(13) 0.649(5)
H2D H -0.066(2) 0.1477(13) -0.149(5)
H3A H -0.1444(10) -0.082(3) 0.351(6)
H3E H 0.1444(10) 0.082(3) 0.649(6)
H3D H -0.1444(10) 0.082(3) -0.149(6)
loop_
_geom_bond_atom_site_label_1
_geom_bond_atom_site_label_2
_geom_bond_site_symmetry_1
_geom_bond_site_symmetry_2
Na1 O5 1_555 1_555
O1 C1 1_555 1_555
O2 N1 1_555 1_555
O3 N1 1_555 1_555
O4 C3 1_555 1_555
O5 N2 1_555 1_555
O6 Na1 1_555 1_555
N1 C2 1_555 1_555
N2 C4 1_555 1_555
C1 C2 1_555 1_555
C2 C3 1_555 1_555
C3 C4 1_555 1_555
C4 C3A 1_555 1_555
H1 O4 1_555 1_555
H2 O6 1_555 1_555
H3 O6 1_555 1_555
Na1D O6 1_555 1_555
Na1D_2 O6A 1_555 1_555
O2A N1A 1_555 1_555
O3A N1A 1_555 1_555
O4A C3A 1_555 1_555
O5A Na1 1_555 1_555
O6A Na1 1_555 1_555
O6D Na1 1_555 1_555
O6E Na1 1_555 1_555
N1A C2A 1_555 1_555
C2A C1 1_555 1_555
C3A C2A 1_555 1_555
H1A O4A 1_555 1_555
H2A O6A 1_555 1_555
H2E O6E 1_555 1_555
H2D O6D 1_555 1_555
H3A O6A 1_555 1_555
H3E O6E 1_555 1_555
H3D O6D 1_555 1_555
N2 O5A 1_555 1_555
Na1D O6D 1_555 1_555
Na1D_2 O6E 1_555 1_555

#END
