
#######################################################################
#
#                 Cambridge Crystallographic Data Centre
#                                CCDC 
#
#######################################################################
#
# If this CIF has been generated from an entry in the Cambridge 
# Structural Database, then it will include bibliographic, chemical, 
# crystal, experimental, refinement or atomic coordinate data resulting 
# from the CCDC's data processing and validation procedures.
#
#######################################################################

data_YECBEP
_symmetry_cell_setting           triclinic
_symmetry_space_group_name_H-M   'P -1'
_symmetry_Int_Tables_number      2
_space_group_name_Hall           '-P 1'
loop_
_symmetry_equiv_pos_site_id
_symmetry_equiv_pos_as_xyz
1 x,y,z
2 -x,-y,-z
_cell_length_a                   11.2497(7)
_cell_length_b                   14.6138(8)
_cell_length_c                   15.2418(9)
_cell_angle_alpha                85.752(2)
_cell_angle_beta                 73.7830(10)
_cell_angle_gamma                72.581(3)
_cell_volume                     2295.6
loop_
_atom_site_label
_atom_site_type_symbol
_atom_site_fract_x
_atom_site_fract_y
_atom_site_fract_z
Ag1 Ag 0.01213(2) 0.333674(17) 0.075466(14)
O1 O -0.16269(17) 0.37856(14) 0.45878(12)
O2 O -0.20434(19) 0.42081(18) 0.60550(13)
O3 O -0.7973(2) 0.35718(18) 0.53877(14)
O4 O -0.83470(17) 0.40580(14) 0.68274(12)
N1 N 0.0788(2) 0.31028(17) 0.19802(15)
N2 N -1.0504(2) 0.40180(17) 0.95818(16)
C1 C 0.2056(3) 0.2686(2) 0.18887(18)
H1 H 0.2583 0.2427 0.1324
C2 C 0.2603(3) 0.2629(2) 0.26016(19)
H2 H 0.3486 0.2343 0.2514
C3 C 0.1829(3) 0.3001(2) 0.34487(18)
H3 H 0.2182 0.2968 0.3938
C4 C 0.0511(2) 0.34271(18) 0.35556(17)
C5 C 0.0028(3) 0.34679(19) 0.28040(18)
H4 H -0.0850 0.3757 0.2871
C6 C -0.0326(2) 0.3835(2) 0.44747(18)
H5 H 0.0023 0.3474 0.4952
H6 H -0.0339 0.4497 0.4521
C7 C -0.2407(2) 0.40010(19) 0.54433(17)
C8 C -0.3738(2) 0.39402(18) 0.55476(17)
C9 C -0.4598(3) 0.4124(2) 0.64173(18)
H7 H -0.4323 0.4264 0.6900
C10 C -0.5856(3) 0.40982(19) 0.65633(18)
H8 H -0.6431 0.4221 0.7143
C11 C -0.6259(2) 0.38868(18) 0.58372(17)
C12 C -0.5399(2) 0.37010(18) 0.49637(17)
H9 H -0.5673 0.3559 0.4482
C13 C -0.4134(2) 0.37302(18) 0.48184(17)
H10 H -0.3558 0.3610 0.4239
C14 C -0.7596(2) 0.38202(18) 0.59727(17)
C15 C -0.9608(2) 0.3894(2) 0.70094(18)
H11 H -0.9502 0.3221 0.6919
H12 H -1.0079 0.4267 0.6594
C16 C -1.0342(2) 0.41892(19) 0.79777(18)
C17 C -1.1572(3) 0.4847(2) 0.8171(2)
H13 H -1.1939 0.5120 0.7702
C18 C -1.2240(3) 0.5087(2) 0.9075(2)
H14 H -1.3060 0.5527 0.9221
C19 C -1.1677(3) 0.4667(2) 0.9755(2)
H15 H -1.2127 0.4839 1.0359
C20 C -0.9856(3) 0.3787(2) 0.87051(18)
H16 H -0.9043 0.3337 0.8581
Ag1_2 Ag -0.98787(2) 0.333674(17) 1.075466(14)
N2_2 N -0.0504(2) 0.40180(17) -0.04182(16)
Ag2 Ag 0.00810(2) 0.115844(16) 0.021180(13)
O5 O 0.16790(17) 0.14079(14) -0.36753(12)
O6 O 0.20363(19) 0.11051(16) -0.51667(13)
O7 O 0.80279(18) 0.15245(16) -0.44158(13)
O8 O 0.84253(17) 0.10956(14) -0.58789(12)
N3 N -0.0617(2) 0.16840(17) -0.09874(15)
N4 N 1.0782(2) 0.07802(17) -0.85676(16)
C21 C -0.1832(3) 0.2274(2) -0.08520(19)
H17 H -0.2317 0.2463 -0.0258
C22 C -0.2384(3) 0.2608(2) -0.1560(2)
H18 H -0.3220 0.3023 -0.1443
C23 C -0.1679(3) 0.2317(2) -0.24473(19)
H19 H -0.2041 0.2522 -0.2932
C24 C -0.0418(2) 0.17125(18) -0.26007(17)
C25 C 0.0072(3) 0.1416(2) -0.18528(18)
H20 H 0.0914 0.1013 -0.1953
C26 C 0.0358(2) 0.1390(2) -0.35574(18)
H21 H 0.0351 0.0745 -0.3663
H22 H -0.0015 0.1813 -0.3994
C27 C 0.2424(2) 0.12517(18) -0.45429(17)
C28 C 0.3772(2) 0.12747(18) -0.46460(17)
C29 C 0.4610(3) 0.11634(19) -0.55249(17)
H23 H 0.4317 0.1085 -0.6020
C30 C 0.5882(2) 0.11695(19) -0.56625(17)
H24 H 0.6442 0.1096 -0.6248
C31 C 0.6309(2) 0.12868(18) -0.49151(17)
C32 C 0.5471(2) 0.14041(19) -0.40361(18)
H25 H 0.5762 0.1487 -0.3542
C33 C 0.4198(2) 0.13965(19) -0.38996(17)
H26 H 0.3636 0.1472 -0.3315
C34 C 0.7657(2) 0.13214(18) -0.50271(17)
C35 C 0.9728(2) 0.1147(2) -0.60023(17)
H27 H 1.0110 0.0744 -0.5559
H28 H 0.9706 0.1802 -0.5907
C36 C 1.0531(2) 0.08168(18) -0.69542(17)
C37 C 1.1834(3) 0.0315(2) -0.70897(19)
H29 H 1.2188 0.0159 -0.6596
C38 C 1.2598(3) 0.0049(2) -0.7971(2)
H30 H 1.3468 -0.0293 -0.8077
C39 C 1.2042(3) 0.0301(2) -0.86866(19)
H31 H 1.2560 0.0133 -0.9278
C40 C 1.0044(3) 0.10304(19) -0.77111(18)
H32 H 0.9172 0.1360 -0.7623
Ag2_2 Ag 1.00810(2) 0.115844(16) -0.978820(13)
N4_2 N 0.0782(2) 0.07802(17) 0.14324(16)
S1 S 0.69556(7) 0.31783(5) 0.20007(5)
F1 F 0.5249(3) 0.3194(4) 0.1158(2)
F2 F 0.44908(19) 0.41083(17) 0.23116(18)
F3 F 0.5683(3) 0.4536(4) 0.1135(4)
O9 O 0.7919(2) 0.27834(19) 0.11809(15)
O10 O 0.7209(3) 0.3935(3) 0.2385(3)
O11 O 0.6533(4) 0.2515(3) 0.2621(3)
C41 C 0.5528(3) 0.3809(3) 0.1629(3)
S2 S 0.32640(7) 0.17368(5) -0.09313(5)
F4 F 0.49984(19) 0.25420(17) -0.18831(13)
F5 F 0.4488(2) 0.27871(18) -0.04264(14)
F6 F 0.3170(2) 0.35446(15) -0.12017(16)
O12 O 0.2824(2) 0.1759(2) -0.17343(15)
O13 O 0.4287(3) 0.09037(19) -0.0843(2)
O14 O 0.2232(2) 0.20476(16) -0.01064(14)
C42 C 0.4022(3) 0.2699(2) -0.1117(2)
N5 N 0.1879(3) -0.0346(2) -0.0793(2)
C43 C 0.4156(6) -0.0777(5) -0.1890(4)
H33 H 0.4221 -0.1275 -0.2293
H34 H 0.4848 -0.0981 -0.1601
H35 H 0.4214 -0.0207 -0.2234
C44 C 0.2889(4) -0.0572(3) -0.1178(4)
loop_
_geom_bond_atom_site_label_1
_geom_bond_atom_site_label_2
_geom_bond_site_symmetry_1
_geom_bond_site_symmetry_2
Ag1 N1 1_555 1_555
Ag2 N3 1_555 1_555
S1 O9 1_555 1_555
S2 O12 1_555 1_555
F1 C41 1_555 1_555
F2 C41 1_555 1_555
F3 C41 1_555 1_555
F4 C42 1_555 1_555
F5 C42 1_555 1_555
F6 C42 1_555 1_555
O1 C6 1_555 1_555
O2 C7 1_555 1_555
O3 C14 1_555 1_555
O4 C14 1_555 1_555
O5 C26 1_555 1_555
O6 C27 1_555 1_555
O7 C34 1_555 1_555
O8 C34 1_555 1_555
O10 S1 1_555 1_555
O11 S1 1_555 1_555
O13 S2 1_555 1_555
O14 S2 1_555 1_555
N1 C1 1_555 1_555
N2 C19 1_555 1_555
N3 C21 1_555 1_555
N4 C39 1_555 1_555
N5 C44 1_555 1_555
C1 H1 1_555 1_555
C2 C1 1_555 1_555
H2 C2 1_555 1_555
C3 C2 1_555 1_555
H3 C3 1_555 1_555
C4 C3 1_555 1_555
C5 N1 1_555 1_555
H4 C5 1_555 1_555
C6 C4 1_555 1_555
H5 C6 1_555 1_555
H6 C6 1_555 1_555
C7 O1 1_555 1_555
C8 C7 1_555 1_555
C9 C8 1_555 1_555
H7 C9 1_555 1_555
C10 C9 1_555 1_555
H8 C10 1_555 1_555
C11 C10 1_555 1_555
C12 C11 1_555 1_555
H9 C12 1_555 1_555
C13 C8 1_555 1_555
H10 C13 1_555 1_555
C14 C11 1_555 1_555
C15 O4 1_555 1_555
H11 C15 1_555 1_555
H12 C15 1_555 1_555
C16 C15 1_555 1_555
C17 C16 1_555 1_555
H13 C17 1_555 1_555
C18 C17 1_555 1_555
H14 C18 1_555 1_555
C19 C18 1_555 1_555
H15 C19 1_555 1_555
C20 N2 1_555 1_555
H16 C20 1_555 1_555
C21 H17 1_555 1_555
C22 C21 1_555 1_555
H18 C22 1_555 1_555
C23 C22 1_555 1_555
H19 C23 1_555 1_555
C24 C23 1_555 1_555
C25 N3 1_555 1_555
H20 C25 1_555 1_555
C26 C24 1_555 1_555
H21 C26 1_555 1_555
H22 C26 1_555 1_555
C27 O5 1_555 1_555
C28 C27 1_555 1_555
C29 C28 1_555 1_555
H23 C29 1_555 1_555
C30 C29 1_555 1_555
H24 C30 1_555 1_555
C31 C30 1_555 1_555
C32 C31 1_555 1_555
H25 C32 1_555 1_555
C33 C28 1_555 1_555
H26 C33 1_555 1_555
C34 C31 1_555 1_555
C35 O8 1_555 1_555
H27 C35 1_555 1_555
H28 C35 1_555 1_555
C36 C35 1_555 1_555
C37 C36 1_555 1_555
H29 C37 1_555 1_555
C38 C37 1_555 1_555
H30 C38 1_555 1_555
C39 C38 1_555 1_555
H31 C39 1_555 1_555
C40 N4 1_555 1_555
H32 C40 1_555 1_555
C41 S1 1_555 1_555
C42 S2 1_555 1_555
C43 H33 1_555 1_555
H34 C43 1_555 1_555
H35 C43 1_555 1_555
C44 C43 1_555 1_555
Ag1_2 N2 1_555 1_555
Ag2_2 N4 1_555 1_555
N2_2 Ag1 1_555 1_555
N4_2 Ag2 1_555 1_555
C4 C5 1_555 1_555
C12 C13 1_555 1_555
C16 C20 1_555 1_555
C24 C25 1_555 1_555
C32 C33 1_555 1_555
C36 C40 1_555 1_555

#END
