
#######################################################################
#
#                 Cambridge Crystallographic Data Centre
#                                CCDC 
#
#######################################################################
#
# If this CIF has been generated from an entry in the Cambridge 
# Structural Database, then it will include bibliographic, chemical, 
# crystal, experimental, refinement or atomic coordinate data resulting 
# from the CCDC's data processing and validation procedures.
#
#######################################################################

data_YECFAN
_symmetry_cell_setting           monoclinic
_symmetry_space_group_name_H-M   'C 2/c'
_symmetry_Int_Tables_number      15
_space_group_name_Hall           '-C 2yn'
loop_
_symmetry_equiv_pos_site_id
_symmetry_equiv_pos_as_xyz
1 x,y,z
2 1/2+x,1/2+y,z
3 -x,y,1/2-z
4 1/2-x,1/2+y,1/2-z
5 -x,-y,-z
6 1/2-x,1/2-y,-z
7 x,-y,1/2+z
8 1/2+x,1/2-y,1/2+z
_cell_length_a                   21.828(4)
_cell_length_b                   11.769(2)
_cell_length_c                   13.878(2)
_cell_angle_alpha                90
_cell_angle_beta                 100.54(1)
_cell_angle_gamma                90
_cell_volume                     3505.02
loop_
_atom_site_label
_atom_site_type_symbol
_atom_site_fract_x
_atom_site_fract_y
_atom_site_fract_z
Cd1 Cd 0.00000 0.20490(6) 0.25000
N1 N -0.1006(3) 0.2180(6) 0.1504(6)
C1 C -0.1436(5) 0.2846(9) 0.1758(9)
C2 C -0.2026(4) 0.2996(8) 0.1190(8)
C3 C -0.2190(3) 0.2432(6) 0.0308(7)
C4 C -0.1735(4) 0.1712(8) 0.0041(8)
C5 C -0.1161(4) 0.1620(8) 0.0654(8)
N2 N 0.00000 0.4053(7) 0.25000
C6 C -0.0205(4) 0.4629(7) 0.1690(8)
C7 C -0.0232(5) 0.5799(7) 0.1667(8)
C8 C 0.00000 0.6404(9) 0.25000
C9 C 0.00000 0.7673(9) 0.25000
C10 C -0.0143(5) 0.8291(8) 0.329(1)
C11 C -0.0130(5) 0.9454(8) 0.3267(9)
N3 N 0.00000 1.0049(8) 0.25000
N4 N 0.0711(6) 0.203(1) 0.0643(7)
O1 O 0.0988(6) 0.237(1) 0.010(1)
O2 O 0.0262(7) 0.223(1) 0.084(1)
O3 O 0.097(1) 0.117(2) 0.096(2)
H1 H -0.141(6) 0.34(1) 0.22(1)
H2 H -0.240(5) 0.34(1) 0.158(9)
H3 H -0.193(5) 0.10(1) -0.050(9)
H4 H -0.083(5) 0.13(1) 0.018(9)
H5 H -0.027(6) 0.43(1) 0.110(9)
H6 H -0.049(5) 0.58(1) 0.087(9)
H7 H -0.029(6) 0.78(1) 0.40(1)
H8 H -0.028(5) 0.98(1) 0.388(9)
C3E C -0.2810(3) 0.2568(6) -0.0308(7)
C2E C -0.2974(4) 0.2004(8) -0.1190(8)
C1E C -0.3564(5) 0.2154(9) -0.1758(9)
N1E N -0.3994(3) 0.2820(6) -0.1504(6)
C5E C -0.3839(4) 0.3380(8) -0.0654(8)
C4E C -0.3265(4) 0.3288(8) -0.0041(8)
H3E H -0.307(5) 0.40(1) 0.050(9)
H4E H -0.417(5) 0.37(1) -0.018(9)
H1E H -0.359(6) 0.16(1) -0.22(1)
H2E H -0.260(5) 0.16(1) -0.158(9)
C7B C 0.0232(5) 0.5799(7) 0.3333(8)
C6B C 0.0205(4) 0.4629(7) 0.3310(8)
H5B H 0.027(6) 0.43(1) 0.390(9)
H6B H 0.049(5) 0.58(1) 0.413(9)
C11B C 0.0130(5) 0.9454(8) 0.1733(9)
C10B C 0.0143(5) 0.8291(8) 0.171(1)
H7B H 0.029(6) 0.78(1) 0.10(1)
H8B H 0.028(5) 0.98(1) 0.112(9)
N4B N -0.0711(6) 0.203(1) 0.4357(7)
O1B O -0.0988(6) 0.237(1) 0.490(1)
O2B O -0.0262(7) 0.223(1) 0.416(1)
O3B O -0.097(1) 0.117(2) 0.404(2)
N1B N 0.1006(3) 0.2180(6) 0.3496(6)
N3_2 N 0.00000 0.0049(8) 0.25000
Cd1_2 Cd 0.00000 1.20490(6) 0.25000
Cd1E Cd -0.50000 0.29510(6) -0.25000
C12 C 0.2977(6) 0.0047(9) -0.1234(8)
C13 C 0.2567(7) -0.032(1) -0.2029(9)
C14 C 0.1975(8) 0.003(2) -0.221(1)
C15 C 0.1780(6) 0.088(1) -0.141(2)
C16 C 0.2157(8) 0.111(1) -0.070(1)
C17 C 0.2778(7) 0.079(1) -0.055(1)
Br1 Br 0.38190(8) -0.0419(2) -0.0972(2)
Br2 Br 0.2818(2) -0.1367(2) -0.2899(2)
loop_
_geom_bond_atom_site_label_1
_geom_bond_atom_site_label_2
_geom_bond_site_symmetry_1
_geom_bond_site_symmetry_2
Cd1 N1 1_555 1_555
N1 C1 1_555 1_555
C1 C2 1_555 1_555
C2 C3 1_555 1_555
C3 C4 1_555 1_555
C4 C5 1_555 1_555
C5 N1 1_555 1_555
N2 Cd1 1_555 1_555
C6 N2 1_555 1_555
C7 C6 1_555 1_555
C8 C7 1_555 1_555
C9 C8 1_555 1_555
C10 C9 1_555 1_555
C11 C10 1_555 1_555
N3 C11 1_555 1_555
N4 O1 1_555 1_555
O2 Cd1 1_555 1_555
O3 N4 1_555 1_555
H1 C1 1_555 1_555
H2 C2 1_555 1_555
H3 C4 1_555 1_555
H4 C5 1_555 1_555
H5 C6 1_555 1_555
H6 C7 1_555 1_555
H7 C10 1_555 1_555
H8 C11 1_555 1_555
C12 C13 1_555 1_555
C13 C14 1_555 1_555
C14 C15 1_555 1_555
C15 C16 1_555 1_555
C16 C17 1_555 1_555
C17 C12 1_555 1_555
Br1 C12 1_555 1_555
Br2 C13 1_555 1_555
C3E C3 1_555 1_555
C2E C3E 1_555 1_555
C1E C2E 1_555 1_555
N1E C1E 1_555 1_555
C5E N1E 1_555 1_555
C4E C3E 1_555 1_555
H3E C4E 1_555 1_555
H4E C5E 1_555 1_555
H1E C1E 1_555 1_555
H2E C2E 1_555 1_555
C7B C8 1_555 1_555
C6B N2 1_555 1_555
H5B C6B 1_555 1_555
H6B C7B 1_555 1_555
C11B N3 1_555 1_555
C10B C9 1_555 1_555
H7B C10B 1_555 1_555
H8B C11B 1_555 1_555
N4B O1B 1_555 1_555
O2B Cd1 1_555 1_555
O3B N4B 1_555 1_555
N1B Cd1 1_555 1_555
N3_2 Cd1 1_555 1_555
Cd1_2 N3 1_555 1_555
Cd1E N1E 1_555 1_555
N4 O2 1_555 1_555
C5E C4E 1_555 1_555
C7B C6B 1_555 1_555
C11B C10B 1_555 1_555
N4B O2B 1_555 1_555

#END
