
#######################################################################
#
#                 Cambridge Crystallographic Data Centre
#                                CCDC 
#
#######################################################################
#
# If this CIF has been generated from an entry in the Cambridge 
# Structural Database, then it will include bibliographic, chemical, 
# crystal, experimental, refinement or atomic coordinate data resulting 
# from the CCDC's data processing and validation procedures.
#
#######################################################################

data_YECGOE
_symmetry_cell_setting           monoclinic
_symmetry_space_group_name_H-M   'P 21/n'
_symmetry_Int_Tables_number      14
_space_group_name_Hall           '-P 2yn'
loop_
_symmetry_equiv_pos_site_id
_symmetry_equiv_pos_as_xyz
1 x,y,z
2 1/2-x,1/2+y,1/2-z
3 -x,-y,-z
4 1/2+x,1/2-y,1/2+z
_cell_length_a                   12.4856(10)
_cell_length_b                   7.5314(6)
_cell_length_c                   12.7061(10)
_cell_angle_alpha                90
_cell_angle_beta                 98.516(4)
_cell_angle_gamma                90
_cell_volume                     1181.63
loop_
_atom_site_label
_atom_site_type_symbol
_atom_site_fract_x
_atom_site_fract_y
_atom_site_fract_z
Cu1 Cu 0.781465(16) 0.81599(3) 0.567429(14)
O1 O 0.88579(10) 1.00949(17) 0.60136(10)
N1 N 0.68662(10) 0.63993(17) 0.47671(10)
N2 N 0.75983(10) 0.94305(16) 0.43495(9)
N3 N 0.81448(11) 1.10129(17) 0.43149(10)
C1 C 0.65739(14) 0.4774(2) 0.50213(14)
H1 H 0.6854 0.4304 0.5700
C2 C 0.58733(16) 0.3747(2) 0.43258(16)
H2 H 0.5690 0.2578 0.4517
C3 C 0.54474(14) 0.4443(2) 0.33555(15)
H3 H 0.4946 0.3773 0.2877
C4 C 0.57520(13) 0.6126(2) 0.30773(13)
H4 H 0.5470 0.6621 0.2405
C5 C 0.64757(12) 0.70769(19) 0.37956(11)
C6 C 0.69129(12) 0.8835(2) 0.35707(11)
C7 C 0.65987(14) 0.9751(2) 0.25384(12)
H5 H 0.6901 1.0954 0.2579
H6 H 0.5807 0.9816 0.2378
H7 H 0.6880 0.9087 0.1975
C8 C 0.87851(13) 1.1194(2) 0.52380(13)
C9 C 0.94757(14) 1.28286(16) 0.53894(9)
H8 H 0.9196 1.3626 0.5895
H9 H 0.9460 1.3435 0.4705
H10 H 1.0222 1.2493 0.5668
N4 N 0.82413(3) 0.67106(6) 0.69039(3)
C10 C 0.85188(3) 0.59201(6) 0.76682(3)
S1 S 0.89627(3) 0.48304(6) 0.87460(3)
Cu1A Cu 0.718535(16) 0.31599(3) 0.932571(14)
S1A S 0.60373(3) 0.98304(6) 0.62540(3)
loop_
_geom_bond_atom_site_label_1
_geom_bond_atom_site_label_2
_geom_bond_site_symmetry_1
_geom_bond_site_symmetry_2
Cu1 O1 1_555 1_555
O1 C8 1_555 1_555
N1 Cu1 1_555 1_555
N2 Cu1 1_555 1_555
N3 N2 1_555 1_555
C1 N1 1_555 1_555
H1 C1 1_555 1_555
C2 C1 1_555 1_555
H2 C2 1_555 1_555
C3 C2 1_555 1_555
H3 C3 1_555 1_555
C4 C3 1_555 1_555
H4 C4 1_555 1_555
C5 N1 1_555 1_555
C6 N2 1_555 1_555
C7 C6 1_555 1_555
H5 C7 1_555 1_555
H6 C7 1_555 1_555
H7 C7 1_555 1_555
C8 N3 1_555 1_555
C9 C8 1_555 1_555
H8 C9 1_555 1_555
H9 C9 1_555 1_555
H10 C9 1_555 1_555
N4 Cu1 1_555 1_555
C10 N4 1_555 1_555
S1 C10 1_555 1_555
Cu1A S1 1_555 1_555
S1A Cu1 1_555 1_555
C4 C5 1_555 1_555
C5 C6 1_555 1_555

#END
