
#######################################################################
#
#                 Cambridge Crystallographic Data Centre
#                                CCDC 
#
#######################################################################
#
# If this CIF has been generated from an entry in the Cambridge 
# Structural Database, then it will include bibliographic, chemical, 
# crystal, experimental, refinement or atomic coordinate data resulting 
# from the CCDC's data processing and validation procedures.
#
#######################################################################

data_YECJIB
_symmetry_cell_setting           monoclinic
_symmetry_space_group_name_H-M   'C 2/c'
_symmetry_Int_Tables_number      15
_space_group_name_Hall           '-C 2yn'
loop_
_symmetry_equiv_pos_site_id
_symmetry_equiv_pos_as_xyz
1 x,y,z
2 -x,y,1/2-z
3 1/2+x,1/2+y,z
4 1/2-x,1/2+y,1/2-z
5 -x,-y,-z
6 x,-y,1/2+z
7 1/2-x,1/2-y,-z
8 1/2+x,1/2-y,1/2+z
_cell_length_a                   12.599(3)
_cell_length_b                   11.533(3)
_cell_length_c                   29.814(9)
_cell_angle_alpha                90
_cell_angle_beta                 100.667(6)
_cell_angle_gamma                90
_cell_volume                     4257.24
loop_
_atom_site_label
_atom_site_type_symbol
_atom_site_fract_x
_atom_site_fract_y
_atom_site_fract_z
Cu1 Cu 0.12041(4) 0.24114(6) 0.176970(18)
Cu2 Cu 0.03277(4) -0.00745(6) 0.072228(18)
S1 S 0.0000 0.11954(15) 0.2500
O1 O -0.0038(2) 0.1951(3) 0.20885(10)
O2 O -0.0999(3) 0.0487(4) 0.24344(13)
O3 O 0.2239(3) 0.2439(3) 0.24366(11)
H1 H 0.209(5) 0.282(6) 0.259(2)
H2 H 0.207(5) 0.194(6) 0.250(2)
N1 N 0.1030(3) -0.1840(4) 0.07866(12)
N2 N 0.2074(3) -0.3988(4) 0.09800(14)
N3 N 0.1526(3) 0.0028(3) 0.13301(12)
N4 N 0.1892(3) 0.0764(4) 0.16751(11)
N5 N 0.2636(3) 0.0228(4) 0.19834(12)
N6 N 0.2757(3) -0.0869(4) 0.18508(12)
N7 N 0.4146(3) 0.4230(4) 0.11038(12)
N8 N 0.2503(3) 0.3181(4) 0.14789(12)
N9 N 0.4023(3) 0.4436(4) 0.01926(11)
N10 N 0.2318(3) 0.3824(4) 0.00052(12)
N11 N 0.2672(3) 0.4162(4) -0.03742(12)
N12 N 0.0129(3) 0.2363(3) 0.11358(12)
N13 N -0.0253(3) 0.1632(4) 0.07865(12)
N14 N -0.0983(3) 0.2175(4) 0.04816(13)
N15 N -0.1090(3) 0.3280(4) 0.06169(12)
N16 N 0.0550(3) 0.4176(4) 0.17130(11)
N17 N -0.0352(3) 0.6387(4) 0.14922(13)
N18 N 0.3690(3) 0.4524(4) -0.02637(11)
C1 C 0.0768(4) -0.2761(5) 0.05157(15)
H3 H 0.0222 -0.2694 0.0260
C2 C 0.1298(4) -0.3818(5) 0.06095(16)
H4 H 0.1109 -0.4431 0.0408
C3 C 0.2345(4) -0.3058(5) 0.12524(15)
H5 H 0.2890 -0.3129 0.1508
C4 C 0.1827(3) -0.1996(4) 0.11586(14)
C5 C 0.2061(3) -0.0966(4) 0.14462(13)
C6 C 0.3174(3) 0.3986(4) 0.03424(14)
C7 C 0.3242(3) 0.3794(4) 0.08369(14)
C8 C 0.2442(3) 0.3242(4) 0.10214(13)
H6 H 0.1858 0.2909 0.0828
C9 C 0.4204(3) 0.4159(4) 0.15531(14)
H7 H 0.4808 0.4456 0.1746
C10 C 0.3380(3) 0.3649(4) 0.17431(14)
H8 H 0.3440 0.3634 0.2059
C11 C -0.0393(3) 0.3371(4) 0.10182(14)
C12 C -0.0165(3) 0.4374(4) 0.13211(14)
C13 C -0.0613(3) 0.5475(4) 0.12118(14)
H9 H -0.1100 0.5576 0.0940
C14 C 0.0345(4) 0.6173(5) 0.18845(15)
H10 H 0.0532 0.6778 0.2090
C15 C 0.0797(4) 0.5088(5) 0.19943(16)
H11 H 0.1280 0.4990 0.2268
Cu1A Cu -0.12041(4) 0.24114(6) 0.323030(18)
Cu1B Cu -0.37959(4) -0.25886(6) 0.176970(18)
Cu2B Cu 0.53277(4) 0.49255(6) 0.072228(18)
Cu2F Cu 0.46723(4) 0.50745(6) -0.072228(18)
Cu2D Cu -0.03277(4) 0.00745(6) -0.072228(18)
Cu2A Cu -0.03277(4) -0.00745(6) 0.427772(18)
O1A O 0.0038(2) 0.1951(3) 0.29115(10)
O2A O 0.0999(3) 0.0487(4) 0.25656(13)
O3A O -0.2239(3) 0.2439(3) 0.25634(11)
H1A H -0.209(5) 0.282(6) 0.241(2)
H2A H -0.207(5) 0.194(6) 0.250(2)
N1A N -0.1030(3) -0.1840(4) 0.42134(12)
N1B N 0.6030(3) 0.3160(4) 0.07866(12)
N2A N -0.2074(3) -0.3988(4) 0.40200(14)
N3A N -0.1526(3) 0.0028(3) 0.36699(12)
N3B N 0.6526(3) 0.5028(3) 0.13301(12)
N4A N -0.1892(3) 0.0764(4) 0.33249(11)
N5A N -0.2636(3) 0.0228(4) 0.30166(12)
N6A N -0.2757(3) -0.0869(4) 0.31492(12)
N7B N -0.0854(3) -0.0770(4) 0.11038(12)
N8B N -0.2497(3) -0.1819(4) 0.14789(12)
N8A N -0.2503(3) 0.3181(4) 0.35211(12)
N9B N -0.0977(3) -0.0564(4) 0.01926(11)
N10B N -0.2682(3) -0.1176(4) 0.00052(12)
N11B N -0.2328(3) -0.0838(4) -0.03742(12)
N12A N -0.0129(3) 0.2363(3) 0.38642(12)
N13A N 0.0253(3) 0.1632(4) 0.42135(12)
N13B N 0.4747(3) 0.6632(4) 0.07865(12)
N14A N 0.0983(3) 0.2175(4) 0.45184(13)
N15A N 0.1090(3) 0.3280(4) 0.43831(12)
N16A N -0.0550(3) 0.4176(4) 0.32870(11)
N17A N 0.0352(3) 0.6387(4) 0.35078(13)
N18B N -0.1310(3) -0.0476(4) -0.02637(11)
N18F N 0.1310(3) 0.0476(4) 0.02637(11)
N18D N 0.6310(3) 0.5476(4) 0.02637(11)
C1A C -0.0768(4) -0.2761(5) 0.44843(15)
H3A H -0.0222 -0.2694 0.4740
C2A C -0.1298(4) -0.3818(5) 0.43905(16)
H4A H -0.1109 -0.4431 0.4592
C3A C -0.2345(4) -0.3058(5) 0.37476(15)
H5A H -0.2890 -0.3129 0.3492
C4A C -0.1827(3) -0.1996(4) 0.38414(14)
C5A C -0.2061(3) -0.0966(4) 0.35538(13)
C6B C -0.1826(3) -0.1014(4) 0.03424(14)
C7B C -0.1758(3) -0.1206(4) 0.08369(14)
C8B C -0.2558(3) -0.1758(4) 0.10214(13)
H6B H -0.3142 -0.2091 0.0828
C9B C -0.0796(3) -0.0841(4) 0.15531(14)
H7B H -0.0192 -0.0544 0.1746
C10B C -0.1620(3) -0.1351(4) 0.17431(14)
H8B H -0.1560 -0.1366 0.2059
C11A C 0.0393(3) 0.3371(4) 0.39818(14)
C12A C 0.0165(3) 0.4374(4) 0.36789(14)
C13A C 0.0613(3) 0.5475(4) 0.37882(14)
H9A H 0.1100 0.5576 0.4060
C14A C -0.0345(4) 0.6173(5) 0.31155(15)
H10A H -0.0532 0.6778 0.2910
C15A C -0.0797(4) 0.5088(5) 0.30057(16)
H11A H -0.1280 0.4990 0.2732
loop_
_geom_bond_atom_site_label_1
_geom_bond_atom_site_label_2
_geom_bond_site_symmetry_1
_geom_bond_site_symmetry_2
Cu1 O1 1_555 1_555
Cu2 N1 1_555 1_555
S1 O1 1_555 1_555
O2 S1 1_555 1_555
O3 Cu1 1_555 1_555
H1 O3 1_555 1_555
H2 O3 1_555 1_555
N1 C1 1_555 1_555
N2 C2 1_555 1_555
N3 Cu2 1_555 1_555
N4 Cu1 1_555 1_555
N5 N4 1_555 1_555
N6 N5 1_555 1_555
N7 C7 1_555 1_555
N8 Cu1 1_555 1_555
N9 N18 1_555 1_555
N10 N11 1_555 1_555
N11 N18 1_555 1_555
N12 Cu1 1_555 1_555
N13 Cu2 1_555 1_555
N14 N13 1_555 1_555
N15 N14 1_555 1_555
N16 Cu1 1_555 1_555
N17 C13 1_555 1_555
N18 Cu2F 1_555 1_555
C1 H3 1_555 1_555
C2 C1 1_555 1_555
H4 C2 1_555 1_555
C3 N2 1_555 1_555
H5 C3 1_555 1_555
C4 N1 1_555 1_555
C5 N3 1_555 1_555
C6 N9 1_555 1_555
C7 C6 1_555 1_555
C8 N8 1_555 1_555
H6 C8 1_555 1_555
C9 N7 1_555 1_555
H7 C9 1_555 1_555
C10 N8 1_555 1_555
H8 C10 1_555 1_555
C11 N12 1_555 1_555
C12 N16 1_555 1_555
C13 C12 1_555 1_555
H9 C13 1_555 1_555
C14 N17 1_555 1_555
H10 C14 1_555 1_555
C15 N16 1_555 1_555
H11 C15 1_555 1_555
Cu1A O1A 1_555 1_555
Cu1B N8B 1_555 1_555
Cu2B N7 1_555 1_555
Cu2D N18B 1_555 1_555
Cu2A N1A 1_555 1_555
O1A S1 1_555 1_555
O2A S1 1_555 1_555
O3A Cu1A 1_555 1_555
H1A O3A 1_555 1_555
H2A O3A 1_555 1_555
N1A C1A 1_555 1_555
N1B Cu2B 1_555 1_555
N2A C2A 1_555 1_555
N3A Cu2A 1_555 1_555
N3B Cu2B 1_555 1_555
N4A Cu1A 1_555 1_555
N5A N4A 1_555 1_555
N6A N5A 1_555 1_555
N7B Cu2 1_555 1_555
N8B C8B 1_555 1_555
N8A Cu1A 1_555 1_555
N9B Cu2 1_555 1_555
N10B N11B 1_555 1_555
N11B N18B 1_555 1_555
N12A Cu1A 1_555 1_555
N13A Cu2A 1_555 1_555
N13B Cu2B 1_555 1_555
N14A N13A 1_555 1_555
N15A N14A 1_555 1_555
N16A Cu1A 1_555 1_555
N17A C13A 1_555 1_555
N18B N9B 1_555 1_555
N18F Cu2 1_555 1_555
N18D Cu2B 1_555 1_555
C1A H3A 1_555 1_555
C2A C1A 1_555 1_555
H4A C2A 1_555 1_555
C3A N2A 1_555 1_555
H5A C3A 1_555 1_555
C4A N1A 1_555 1_555
C5A N3A 1_555 1_555
C6B N9B 1_555 1_555
C7B N7B 1_555 1_555
C8B C7B 1_555 1_555
H6B C8B 1_555 1_555
C9B N7B 1_555 1_555
H7B C9B 1_555 1_555
C10B N8B 1_555 1_555
H8B C10B 1_555 1_555
C11A N12A 1_555 1_555
C12A N16A 1_555 1_555
C13A C12A 1_555 1_555
H9A C13A 1_555 1_555
C14A N17A 1_555 1_555
H10A C14A 1_555 1_555
C15A N16A 1_555 1_555
H11A C15A 1_555 1_555
N3 N4 1_555 1_555
N6 C5 1_555 1_555
N9 Cu2B 1_555 1_555
N10 C6 1_555 1_555
N12 N13 1_555 1_555
N15 C11 1_555 1_555
C3 C4 1_555 1_555
C4 C5 1_555 1_555
C7 C8 1_555 1_555
C9 C10 1_555 1_555
C11 C12 1_555 1_555
C14 C15 1_555 1_555
N3A N4A 1_555 1_555
N6A C5A 1_555 1_555
N10B C6B 1_555 1_555
N12A N13A 1_555 1_555
N15A C11A 1_555 1_555
C3A C4A 1_555 1_555
C4A C5A 1_555 1_555
C6B C7B 1_555 1_555
C9B C10B 1_555 1_555
C11A C12A 1_555 1_555
C14A C15A 1_555 1_555

#END
