
#######################################################################
#
#                 Cambridge Crystallographic Data Centre
#                                CCDC 
#
#######################################################################
#
# If this CIF has been generated from an entry in the Cambridge 
# Structural Database, then it will include bibliographic, chemical, 
# crystal, experimental, refinement or atomic coordinate data resulting 
# from the CCDC's data processing and validation procedures.
#
#######################################################################

data_YECJEX
_symmetry_cell_setting           monoclinic
_symmetry_space_group_name_H-M   'P 21/n'
_symmetry_Int_Tables_number      14
_space_group_name_Hall           '-P 2yn'
loop_
_symmetry_equiv_pos_site_id
_symmetry_equiv_pos_as_xyz
1 x,y,z
2 1/2-x,1/2+y,1/2-z
3 -x,-y,-z
4 1/2+x,1/2-y,1/2+z
_cell_length_a                   11.3959(9)
_cell_length_b                   10.4591(8)
_cell_length_c                   12.0996(9)
_cell_angle_alpha                90
_cell_angle_beta                 117.5060(10)
_cell_angle_gamma                90
_cell_volume                     1279.14
loop_
_atom_site_label
_atom_site_type_symbol
_atom_site_fract_x
_atom_site_fract_y
_atom_site_fract_z
Cu1 Cu 0.12293(3) 0.39665(3) 0.15303(3)
S1 S 0.22777(7) 0.14116(6) 0.14886(6)
O1 O 0.26591(19) 0.27106(18) 0.20930(18)
O2 O 0.0882(2) 0.1498(2) 0.05248(19)
O3 O 0.2365(2) 0.0497(2) 0.24661(19)
O4 O 0.3163(2) 0.1049(2) 0.0984(2)
C1 C 0.1478(3) 0.2667(3) 0.3874(3)
H1 H 0.2260 0.2279 0.3936
C2 C 0.1093(3) 0.2421(3) 0.4788(3)
H2 H 0.1595 0.1854 0.5455
C3 C -0.0030(4) 0.3011(3) 0.4721(3)
H3 H -0.0300 0.2862 0.5345
C4 C -0.0747(3) 0.3814(3) 0.3736(3)
H4 H -0.1515 0.4235 0.3671
C5 C -0.0327(3) 0.3995(3) 0.2844(3)
C6 C -0.1023(3) 0.4778(3) 0.1728(3)
N1 N 0.0773(2) 0.3436(2) 0.2907(2)
N2 N -0.0506(2) 0.4887(2) 0.0948(2)
N3 N -0.2175(3) 0.5379(3) 0.1319(3)
N4 N -0.1387(2) 0.5601(2) 0.0001(2)
N5 N -0.2384(3) 0.5891(3) 0.0223(2)
Cu1A Cu 0.37707(3) -0.10335(3) 0.34697(3)
Cu1B Cu -0.12293(3) 0.60335(3) -0.15303(3)
O3A O 0.2635(2) 0.5497(2) 0.25339(19)
N4B N 0.1387(2) 0.4399(2) -0.0001(2)
C7 C 0.1092(4) -0.0656(3) 0.8458(4)
H5 H 0.1027 -0.0949 0.7662
H6 H 0.0802 -0.1341 0.8829
H7 H 0.2012 -0.0432 0.9025
C8 C 0.0530(4) 0.1511(4) 0.7578(4)
H8 H 0.1432 0.1826 0.8093
H9 H -0.0100 0.2214 0.7407
H10 H 0.0454 0.1179 0.6790
N6 N 0.0237(3) 0.0484(3) 0.8245(3)
H11 H -0.049(4) 0.029(4) 0.792(4)
H12 H 0.031(4) 0.083(4) 0.893(4)
loop_
_geom_bond_atom_site_label_1
_geom_bond_atom_site_label_2
_geom_bond_site_symmetry_1
_geom_bond_site_symmetry_2
Cu1 O1 1_555 1_555
S1 O1 1_555 1_555
O2 S1 1_555 1_555
O3 S1 1_555 1_555
O4 S1 1_555 1_555
C1 H1 1_555 1_555
C2 C1 1_555 1_555
H2 C2 1_555 1_555
C3 C2 1_555 1_555
H3 C3 1_555 1_555
C4 C3 1_555 1_555
H4 C4 1_555 1_555
C5 C4 1_555 1_555
C6 C5 1_555 1_555
C7 H5 1_555 1_555
H6 C7 1_555 1_555
H7 C7 1_555 1_555
C8 H8 1_555 1_555
H9 C8 1_555 1_555
H10 C8 1_555 1_555
N1 Cu1 1_555 1_555
N2 Cu1 1_555 1_555
N3 C6 1_555 1_555
N4 N2 1_555 1_555
N5 N3 1_555 1_555
N6 C7 1_555 1_555
H11 N6 1_555 1_555
H12 N6 1_555 1_555
Cu1A O3 1_555 1_555
Cu1B N4 1_555 1_555
O3A Cu1 1_555 1_555
N4B Cu1 1_555 1_555
C1 N1 1_555 1_555
C5 N1 1_555 1_555
C6 N2 1_555 1_555
C8 N6 1_555 1_555
N4 N5 1_555 1_555

#END
