
#######################################################################
#
#                 Cambridge Crystallographic Data Centre
#                                CCDC 
#
#######################################################################
#
# If this CIF has been generated from an entry in the Cambridge 
# Structural Database, then it will include bibliographic, chemical, 
# crystal, experimental, refinement or atomic coordinate data resulting 
# from the CCDC's data processing and validation procedures.
#
#######################################################################

data_YECJAT
_symmetry_cell_setting           orthorhombic
_symmetry_space_group_name_H-M   'P n m a'
_symmetry_Int_Tables_number      62
_space_group_name_Hall           '-P 2ac 2n'
loop_
_symmetry_equiv_pos_site_id
_symmetry_equiv_pos_as_xyz
1 x,y,z
2 1/2-x,-y,1/2+z
3 1/2+x,1/2-y,1/2-z
4 -x,1/2+y,-z
5 -x,-y,-z
6 1/2+x,y,1/2-z
7 1/2-x,1/2+y,1/2+z
8 x,1/2-y,z
_cell_length_a                   13.721(5)
_cell_length_b                   20.601(8)
_cell_length_c                   7.034(3)
_cell_angle_alpha                90
_cell_angle_beta                 90
_cell_angle_gamma                90
_cell_volume                     1988.27
loop_
_atom_site_label
_atom_site_type_symbol
_atom_site_fract_x
_atom_site_fract_y
_atom_site_fract_z
Cu1 Cu 0.17603(4) 0.17731(3) 0.44337(10)
Cu2 Cu 0.39254(6) 0.2500 0.49056(13)
S1 S 0.29861(13) 0.2500 0.0738(3)
O1 O 0.2533(4) 0.2500 0.5338(8)
H1 H 0.2500 0.2500 0.6446
O2 O 0.0882(4) 0.2500 0.3788(8)
H2 H 0.0359 0.2500 0.4213
O3 O 0.5336(4) 0.2500 0.4824(8)
H3 H 0.5486 0.2500 0.3638
H4 H 0.5520 0.2500 0.5735
O4 O 0.3903(4) 0.2500 0.1877(8)
O5 O 0.2419(3) 0.19072(19) 0.1213(6)
O6 O 0.3249(4) 0.2500 -0.1266(8)
N1 N 0.4125(3) -0.1064(2) 0.8618(6)
N2 N 0.2959(3) 0.1221(2) 0.5140(7)
N3 N 0.3806(3) 0.1524(2) 0.5345(6)
N4 N 0.4453(3) 0.1122(2) 0.6117(6)
N5 N 0.3027(3) 0.0614(2) 0.5774(7)
C1 C 0.5087(4) -0.1100(2) 0.9008(8)
H7 H 0.5325 -0.1466 0.9626
C2 C 0.5730(4) -0.0611(3) 0.8520(8)
H8 H 0.6391 -0.0654 0.8783
C3 C 0.5381(4) -0.0056(2) 0.7634(8)
H9 H 0.5799 0.0282 0.7316
C4 C 0.3786(4) -0.0535(2) 0.7747(8)
H10 H 0.3124 -0.0512 0.7474
C5 C 0.4378(4) -0.0017(2) 0.7231(7)
C6 C 0.3954(4) 0.0567(3) 0.6369(8)
Cu1A Cu 0.32397(4) -0.17731(3) 0.94337(10)
Cu1G Cu 0.17603(4) 0.32269(3) 0.44337(10)
Cu1F Cu 0.32397(4) 0.67731(3) 0.94337(10)
O1A O 0.2467(4) -0.2500 1.0338(8)
H1A H 0.2500 -0.2500 1.1446
O2A O 0.4118(4) -0.2500 0.8788(8)
H2A H 0.4641 -0.2500 0.9213
O5G O 0.2419(3) 0.30928(19) 0.1213(6)
N1G N 0.4125(3) 0.6064(2) 0.8618(6)
N1A N 0.0875(3) 0.1064(2) 0.3618(6)
N2G N 0.2959(3) 0.3779(2) 0.5140(7)
N2A N 0.2041(3) -0.1221(2) 1.0140(7)
N3G N 0.3806(3) 0.3476(2) 0.5345(6)
N4G N 0.4453(3) 0.3878(2) 0.6117(6)
N5G N 0.3027(3) 0.4386(2) 0.5774(7)
C1G C 0.5087(4) 0.6100(2) 0.9008(8)
H7G H 0.5325 0.6466 0.9626
C2G C 0.5730(4) 0.5611(3) 0.8520(8)
H8G H 0.6391 0.5654 0.8783
C3G C 0.5381(4) 0.5056(2) 0.7634(8)
H9G H 0.5799 0.4718 0.7316
C4G C 0.3786(4) 0.5535(2) 0.7747(8)
H10G H 0.3124 0.5512 0.7474
C5G C 0.4378(4) 0.5017(2) 0.7231(7)
C6G C 0.3954(4) 0.4433(3) 0.6369(8)
O7 O 0.1355(3) 0.1571(3) 0.7823(7)
H5 H 0.1743 0.1531 0.8982
H6 H 0.0852 0.1443 0.8096
loop_
_geom_bond_atom_site_label_1
_geom_bond_atom_site_label_2
_geom_bond_site_symmetry_1
_geom_bond_site_symmetry_2
Cu1 O1 1_555 1_555
Cu2 O1 1_555 1_555
S1 O4 1_555 1_555
O1 H1 1_555 1_555
O2 Cu1 1_555 1_555
H2 O2 1_555 1_555
O3 Cu2 1_555 1_555
H3 O3 1_555 1_555
H4 O3 1_555 1_555
O4 Cu2 1_555 1_555
O5 S1 1_555 1_555
O6 S1 1_555 1_555
O7 H5 1_555 1_555
H6 O7 1_555 1_555
N1 C1 1_555 1_555
N2 Cu1 1_555 1_555
N3 Cu2 1_555 1_555
N4 N3 1_555 1_555
N5 N2 1_555 1_555
C1 H7 1_555 1_555
C2 C1 1_555 1_555
H8 C2 1_555 1_555
C3 C2 1_555 1_555
H9 C3 1_555 1_555
C4 N1 1_555 1_555
H10 C4 1_555 1_555
C5 C3 1_555 1_555
C6 N4 1_555 1_555
Cu1A N1 1_555 1_555
Cu1G O1 1_555 1_555
Cu1F N1G 1_555 1_555
O1A Cu1A 1_555 1_555
H1A O1A 1_555 1_555
O2A Cu1A 1_555 1_555
H2A O2A 1_555 1_555
O5G S1 1_555 1_555
N1G C1G 1_555 1_555
N1A Cu1 1_555 1_555
N2G Cu1G 1_555 1_555
N2A Cu1A 1_555 1_555
N3G Cu2 1_555 1_555
N4G N3G 1_555 1_555
N5G N2G 1_555 1_555
C1G H7G 1_555 1_555
C2G C1G 1_555 1_555
H8G C2G 1_555 1_555
C3G C2G 1_555 1_555
H9G C3G 1_555 1_555
C4G N1G 1_555 1_555
H10G C4G 1_555 1_555
C5G C3G 1_555 1_555
C6G N4G 1_555 1_555
O2 Cu1G 1_555 1_555
N2 N3 1_555 1_555
N5 C6 1_555 1_555
C4 C5 1_555 1_555
C5 C6 1_555 1_555
N2G N3G 1_555 1_555
N5G C6G 1_555 1_555
C4G C5G 1_555 1_555
C5G C6G 1_555 1_555

#END
