
#######################################################################
#
#                 Cambridge Crystallographic Data Centre
#                                CCDC 
#
#######################################################################
#
# If this CIF has been generated from an entry in the Cambridge 
# Structural Database, then it will include bibliographic, chemical, 
# crystal, experimental, refinement or atomic coordinate data resulting 
# from the CCDC's data processing and validation procedures.
#
#######################################################################

data_YECNIE
_symmetry_cell_setting           monoclinic
_symmetry_space_group_name_H-M   'P 21/c'
_symmetry_Int_Tables_number      14
_space_group_name_Hall           '-P 2ybc'
loop_
_symmetry_equiv_pos_site_id
_symmetry_equiv_pos_as_xyz
1 x,y,z
2 -x,1/2+y,1/2-z
3 -x,-y,-z
4 x,1/2-y,1/2+z
_cell_length_a                   21.271(3)
_cell_length_b                   11.375(2)
_cell_length_c                   26.372(4)
_cell_angle_alpha                90
_cell_angle_beta                 104.908(2)
_cell_angle_gamma                90
_cell_volume                     6166.13
loop_
_atom_site_label
_atom_site_type_symbol
_atom_site_fract_x
_atom_site_fract_y
_atom_site_fract_z
Yb1 Yb 0.071198(5) 0.536041(9) -0.109230(4)
Na1 Na 0.08720(5) 0.46370(9) 0.41281(4)
O1 O 0.08058(10) 0.53065(16) -0.02003(7)
H1 H 0.08223 0.46314 -0.00592
H2 H 0.09819 0.57808 0.00441
O2 O -0.01449(9) 0.64710(17) -0.10005(7)
H3 H -0.04281 0.67510 -0.12606
H4 H -0.03188 0.64667 -0.07441
O3 O 0.03896(9) 0.66221(15) -0.18080(7)
H5 H 0.04812 0.64678 -0.20962
H6 H 0.03885 0.73669 -0.17819
O4 O 0.16544(9) 0.54353(16) -0.13830(7)
H7 H 0.16670 0.51347 -0.16753
H8 H 0.18566 0.60858 -0.13595
O5 O 0.13362(9) 0.37310(16) -0.07896(7)
H9 H 0.12733 0.31524 -0.06047
H10 H 0.15680 0.34736 -0.09842
O6 O -0.00383(9) 0.39823(16) -0.09905(8)
H11 H -0.00106 0.32569 -0.10591
H12 H -0.04017 0.40678 -0.09166
O7 O 0.04515(9) 0.42437(16) -0.18606(7)
H13 H 0.00524 0.40866 -0.19935
H14 H 0.06677 0.37659 -0.19975
O8 O -0.00239(9) 0.33511(17) 0.38104(7)
H15 H -0.02292 0.34448 0.34910
H16 H -0.02835 0.35538 0.39917
O9 O 0.02939(9) 0.60791(16) 0.45149(7)
H17 H -0.01177 0.60883 0.44602
H18 H 0.03940 0.67087 0.43807
O10 O 0.03300(10) 0.59529(17) 0.33060(8)
H19 H -0.00625 0.57188 0.32166
H20 H 0.05140 0.56557 0.30855
O16 O 0.36772(9) 0.47933(16) 0.23026(7)
H31 H 0.3682 0.5531 0.2286
C1 C 0.31827(12) 0.4446(2) 0.25035(9)
C2 C 0.29519(11) 0.3283(2) 0.24078(9)
C3 C 0.24525(12) 0.2912(2) 0.26197(9)
H32 H 0.2302 0.2124 0.2568
C4 C 0.21706(12) 0.3680(2) 0.29062(9)
C5 C 0.23923(12) 0.4818(2) 0.29971(9)
H33 H 0.2191 0.5338 0.3190
C6 C 0.29107(12) 0.5211(2) 0.28078(9)
S1 S 0.15754(3) 0.31379(5) 0.32032(2)
O17 O 0.13952(10) 0.41023(17) 0.34951(7)
O18 O 0.10292(9) 0.27133(17) 0.27870(7)
O19 O 0.19064(10) 0.21840(17) 0.35350(7)
C7 C 0.32253(12) 0.2463(2) 0.20665(9)
H34 H 0.3115 0.1642 0.2134
H35 H 0.3705 0.2532 0.2162
O20 O 0.39401(8) 0.37551(17) 0.14584(7)
H36 H 0.3948 0.4083 0.1745
C8 C 0.33150(12) 0.3430(2) 0.12160(10)
C9 C 0.30438(12) 0.3779(2) 0.06975(9)
C10 C 0.24289(12) 0.3376(2) 0.04437(9)
H37 H 0.2239 0.3604 0.0091
C11 C 0.20875(12) 0.2642(2) 0.06983(9)
C12 C 0.23498(12) 0.2328(2) 0.12185(9)
H38 H 0.2109 0.1838 0.1392
C13 C 0.29641(12) 0.2728(2) 0.14878(9)
S2 S 0.12991(3) 0.21664(5) 0.03580(2)
O21 O 0.11092(9) 0.12708(15) 0.06817(7)
O22 O 0.08791(8) 0.32034(15) 0.03009(7)
O23 O 0.13433(9) 0.17397(16) -0.01525(7)
C14 C 0.33940(12) 0.4614(2) 0.04121(9)
H39 H 0.3860 0.4660 0.0603
H40 H 0.3366 0.4309 0.0055
O24 O 0.37788(9) 0.62761(17) 0.12019(7)
H41 H 0.3735 0.6587 0.1480
C15 C 0.32853(12) 0.6613(2) 0.07974(9)
C16 C 0.29829(12) 0.7711(2) 0.07914(9)
C17 C 0.25078(12) 0.8031(2) 0.03451(10)
H42 H 0.2292 0.8765 0.0336
C18 C 0.23447(11) 0.7292(2) -0.00864(9)
C19 C 0.26275(12) 0.6185(2) -0.00684(9)
H43 H 0.2500 0.5672 -0.0361
C20 C 0.30946(12) 0.5828(2) 0.03741(9)
S3 S 0.18102(3) 0.77973(5) -0.06665(2)
O25 O 0.16787(8) 0.90124(15) -0.05810(7)
O26 O 0.21298(8) 0.76004(16) -0.10869(7)
O27 O 0.12156(8) 0.70759(15) -0.07457(7)
C21 C 0.31849(12) 0.8556(2) 0.12472(9)
H44 H 0.3072 0.9365 0.1117
H45 H 0.3663 0.8518 0.1386
O28 O 0.37003(8) 0.69356(16) 0.20889(7)
C22 C 0.31545(12) 0.7503(2) 0.20903(9)
C23 C 0.28564(12) 0.7314(2) 0.25048(9)
C24 C 0.22950(12) 0.7905(2) 0.25143(9)
H46 H 0.2098 0.7772 0.2794
C25 C 0.20142(12) 0.8695(2) 0.21189(9)
C26 C 0.23060(12) 0.8901(2) 0.17133(9)
H47 H 0.2115 0.9448 0.1446
C27 C 0.28730(12) 0.8319(2) 0.16924(9)
S4 S 0.13470(3) 0.95246(5) 0.21887(2)
O29 O 0.10960(9) 1.01820(16) 0.17049(7)
O30 O 0.08628(9) 0.86792(16) 0.22788(7)
O31 O 0.15964(9) 1.02833(15) 0.26395(7)
C28 C 0.31581(12) 0.6450(2) 0.29339(9)
H48 H 0.3062 0.6704 0.3265
H49 H 0.3636 0.6458 0.2989
Na1C Na 0.08720(5) 0.03630(9) -0.08719(4)
Na1C_2 Na 0.08720(5) 1.03630(9) -0.08719(4)
O23C O 0.13433(9) 0.32603(16) 0.48475(7)
O25C O 0.16787(8) 0.59876(15) 0.44190(7)
O11 O -0.08948(10) 0.11900(17) -0.05941(8)
H21 H -0.10470 0.05088 -0.06846
H22 H -0.06965 0.11442 -0.02708
O12 O -0.10718(9) 0.73367(17) -0.17587(7)
H23 H -0.10505 0.72696 -0.20748
H24 H -0.11152 0.80665 -0.17073
O13 O -0.08317(10) 0.38416(18) -0.23109(8)
H25 H -0.08732 0.31024 -0.22851
H26 H -0.10787 0.41506 -0.21406
O14 O 0.16264(11) 0.5011(2) 0.16873(9)
H27 H 0.20160 0.49978 0.18761
H28 H 0.15006 0.43000 0.16501
O15 O 0.12294(10) 0.64161(18) 0.07474(8)
H29 H 0.14724 0.61040 0.10212
H30 H 0.13298 0.71406 0.07576
P1 P 0.54734(3) 0.78953(6) 0.08191(3)
C29 C 0.52693(13) 0.9024(3) 0.12254(10)
C30 C 0.52896(15) 1.0202(3) 0.10765(12)
H50 H 0.5447 1.0402 0.0782
C31 C 0.50802(16) 1.1074(3) 0.13590(14)
H51 H 0.5095 1.1874 0.1260
C32 C 0.48487(16) 1.0776(3) 0.17865(14)
H52 H 0.4701 1.1376 0.1978
C33 C 0.48305(16) 0.9626(4) 0.19366(13)
H53 H 0.4673 0.9435 0.2232
C34 C 0.50411(14) 0.8736(3) 0.16583(11)
H54 H 0.5029 0.7939 0.1763
C35 C 0.57520(12) 0.6596(2) 0.12000(10)
C36 C 0.52890(13) 0.5882(3) 0.13350(11)
H55 H 0.4840 0.6063 0.1211
C37 C 0.54850(15) 0.4910(3) 0.16504(12)
H56 H 0.5170 0.4414 0.1739
C38 C 0.61420(15) 0.4662(3) 0.18370(11)
H57 H 0.6277 0.4005 0.2061
C39 C 0.66017(14) 0.5364(3) 0.16984(11)
H58 H 0.7051 0.5180 0.1824
C40 C 0.64128(13) 0.6333(3) 0.13783(11)
H59 H 0.6729 0.6813 0.1281
C41 C 0.60833(13) 0.8428(2) 0.05216(11)
C42 C 0.66587(14) 0.8872(2) 0.08455(11)
H60 H 0.6707 0.8942 0.1213
C43 C 0.71616(14) 0.9210(3) 0.06290(12)
H61 H 0.7558 0.9501 0.0849
C44 C 0.70847(14) 0.9125(2) 0.00969(12)
H62 H 0.7431 0.9346 -0.0050
C45 C 0.65072(15) 0.8719(2) -0.02267(12)
H63 H 0.6455 0.8685 -0.0595
C46 C 0.60048(14) 0.8362(2) -0.00168(11)
H64 H 0.5610 0.8074 -0.0239
C47 C 0.47700(12) 0.7548(2) 0.03035(10)
C48 C 0.42506(12) 0.8321(2) 0.01628(10)
H65 H 0.4236 0.8997 0.0371
C49 C 0.37507(12) 0.8104(2) -0.02837(10)
H66 H 0.3397 0.8638 -0.0383
C50 C 0.37670(13) 0.7111(2) -0.05834(11)
H67 H 0.3424 0.6961 -0.0887
C51 C 0.42845(14) 0.6334(3) -0.04405(11)
H68 H 0.4296 0.5654 -0.0647
C52 C 0.47860(13) 0.6548(2) 0.00029(11)
H69 H 0.5140 0.6013 0.0101
loop_
_geom_bond_atom_site_label_1
_geom_bond_atom_site_label_2
_geom_bond_site_symmetry_1
_geom_bond_site_symmetry_2
Yb1 O1 1_555 1_555
Na1 O8 1_555 1_555
O1 H1 1_555 1_555
H2 O1 1_555 1_555
O2 Yb1 1_555 1_555
H3 O2 1_555 1_555
H4 O2 1_555 1_555
O3 Yb1 1_555 1_555
H5 O3 1_555 1_555
H6 O3 1_555 1_555
O4 Yb1 1_555 1_555
H7 O4 1_555 1_555
H8 O4 1_555 1_555
O5 Yb1 1_555 1_555
H9 O5 1_555 1_555
H10 O5 1_555 1_555
O6 Yb1 1_555 1_555
H11 O6 1_555 1_555
H12 O6 1_555 1_555
O7 Yb1 1_555 1_555
H13 O7 1_555 1_555
H14 O7 1_555 1_555
O8 H15 1_555 1_555
H16 O8 1_555 1_555
O9 Na1 1_555 1_555
H17 O9 1_555 1_555
H18 O9 1_555 1_555
O10 Na1 1_555 1_555
H19 O10 1_555 1_555
H20 O10 1_555 1_555
O11 H21 1_555 1_555
H22 O11 1_555 1_555
O12 H23 1_555 1_555
H24 O12 1_555 1_555
O13 H25 1_555 1_555
H26 O13 1_555 1_555
O14 H27 1_555 1_555
H28 O14 1_555 1_555
O15 H29 1_555 1_555
H30 O15 1_555 1_555
O16 H31 1_555 1_555
C1 O16 1_555 1_555
C2 C1 1_555 1_555
C3 C2 1_555 1_555
H32 C3 1_555 1_555
C4 C3 1_555 1_555
C5 C4 1_555 1_555
H33 C5 1_555 1_555
C6 C1 1_555 1_555
S1 C4 1_555 1_555
O17 Na1 1_555 1_555
O18 S1 1_555 1_555
O19 S1 1_555 1_555
C7 C2 1_555 1_555
H34 C7 1_555 1_555
H35 C7 1_555 1_555
O20 H36 1_555 1_555
C8 O20 1_555 1_555
C9 C8 1_555 1_555
C10 C9 1_555 1_555
H37 C10 1_555 1_555
C11 C10 1_555 1_555
C12 C11 1_555 1_555
H38 C12 1_555 1_555
C13 C7 1_555 1_555
S2 C11 1_555 1_555
O21 S2 1_555 1_555
O22 S2 1_555 1_555
O23 S2 1_555 1_555
C14 C9 1_555 1_555
H39 C14 1_555 1_555
H40 C14 1_555 1_555
O24 H41 1_555 1_555
C15 O24 1_555 1_555
C16 C15 1_555 1_555
C17 C16 1_555 1_555
H42 C17 1_555 1_555
C18 C17 1_555 1_555
C19 C18 1_555 1_555
H43 C19 1_555 1_555
C20 C14 1_555 1_555
S3 C18 1_555 1_555
O25 S3 1_555 1_555
O26 S3 1_555 1_555
O27 Yb1 1_555 1_555
C21 C16 1_555 1_555
H44 C21 1_555 1_555
H45 C21 1_555 1_555
O28 C22 1_555 1_555
C22 C23 1_555 1_555
C23 C24 1_555 1_555
C24 H46 1_555 1_555
C25 C24 1_555 1_555
C26 C25 1_555 1_555
H47 C26 1_555 1_555
C27 C21 1_555 1_555
S4 C25 1_555 1_555
O29 S4 1_555 1_555
O30 S4 1_555 1_555
O31 S4 1_555 1_555
C28 C6 1_555 1_555
H48 C28 1_555 1_555
H49 C28 1_555 1_555
P1 C29 1_555 1_555
C29 C30 1_555 1_555
C30 H50 1_555 1_555
C31 C30 1_555 1_555
H51 C31 1_555 1_555
C32 C31 1_555 1_555
H52 C32 1_555 1_555
C33 C32 1_555 1_555
H53 C33 1_555 1_555
C34 C29 1_555 1_555
H54 C34 1_555 1_555
C35 P1 1_555 1_555
C36 C35 1_555 1_555
H55 C36 1_555 1_555
C37 C36 1_555 1_555
H56 C37 1_555 1_555
C38 C37 1_555 1_555
H57 C38 1_555 1_555
C39 C38 1_555 1_555
H58 C39 1_555 1_555
C40 C35 1_555 1_555
H59 C40 1_555 1_555
C41 P1 1_555 1_555
C42 C41 1_555 1_555
H60 C42 1_555 1_555
C43 C42 1_555 1_555
H61 C43 1_555 1_555
C44 C43 1_555 1_555
H62 C44 1_555 1_555
C45 C44 1_555 1_555
H63 C45 1_555 1_555
C46 C41 1_555 1_555
H64 C46 1_555 1_555
C47 P1 1_555 1_555
C48 C47 1_555 1_555
H65 C48 1_555 1_555
C49 C48 1_555 1_555
H66 C49 1_555 1_555
C50 C49 1_555 1_555
H67 C50 1_555 1_555
C51 C50 1_555 1_555
H68 C51 1_555 1_555
C52 C47 1_555 1_555
H69 C52 1_555 1_555
Na1C O23 1_555 1_555
Na1C_2 O25 1_555 1_555
O23C Na1 1_555 1_555
O25C Na1 1_555 1_555
C5 C6 1_555 1_555
S1 O17 1_555 1_555
C8 C13 1_555 1_555
C12 C13 1_555 1_555
C15 C20 1_555 1_555
C19 C20 1_555 1_555
S3 O27 1_555 1_555
C22 C27 1_555 1_555
C23 C28 1_555 1_555
C26 C27 1_555 1_555
C33 C34 1_555 1_555
C39 C40 1_555 1_555
C45 C46 1_555 1_555
C51 C52 1_555 1_555

#END
