
#######################################################################
#
#                 Cambridge Crystallographic Data Centre
#                                CCDC 
#
#######################################################################
#
# If this CIF has been generated from an entry in the Cambridge 
# Structural Database, then it will include bibliographic, chemical, 
# crystal, experimental, refinement or atomic coordinate data resulting 
# from the CCDC's data processing and validation procedures.
#
#######################################################################

data_YECNEB
_symmetry_cell_setting           orthorhombic
_symmetry_space_group_name_H-M   'F d d d'
_symmetry_Int_Tables_number      70
_space_group_name_Hall           '-F 2uv 2vw'
loop_
_symmetry_equiv_pos_site_id
_symmetry_equiv_pos_as_xyz
1 x,y,z
2 3/4-x,3/4-y,z
3 3/4-x,y,3/4-z
4 x,3/4-y,3/4-z
5 x,1/2+y,1/2+z
6 3/4-x,1/4-y,1/2+z
7 3/4-x,1/2+y,1/4-z
8 x,1/4-y,1/4-z
9 1/2+x,y,1/2+z
10 1/4-x,3/4-y,1/2+z
11 1/4-x,y,1/4-z
12 1/2+x,3/4-y,1/4-z
13 1/2+x,1/2+y,z
14 1/4-x,1/4-y,z
15 1/4-x,1/2+y,3/4-z
16 1/2+x,1/4-y,3/4-z
17 -x,-y,-z
18 1/4+x,1/4+y,-z
19 1/4+x,-y,1/4+z
20 -x,1/4+y,1/4+z
21 -x,1/2-y,1/2-z
22 1/4+x,3/4+y,1/2-z
23 1/4+x,1/2-y,3/4+z
24 -x,3/4+y,3/4+z
25 1/2-x,-y,1/2-z
26 3/4+x,1/4+y,1/2-z
27 3/4+x,-y,3/4+z
28 1/2-x,1/4+y,3/4+z
29 1/2-x,1/2-y,-z
30 3/4+x,3/4+y,-z
31 3/4+x,1/2-y,1/4+z
32 1/2-x,3/4+y,1/4+z
_cell_length_a                   12.580(2)
_cell_length_b                   24.563(5)
_cell_length_c                   33.566(7)
_cell_angle_alpha                90
_cell_angle_beta                 90
_cell_angle_gamma                90
_cell_volume                     10372
loop_
_atom_site_label
_atom_site_type_symbol
_atom_site_fract_x
_atom_site_fract_y
_atom_site_fract_z
Ag1 Ag 0.71854(3) 0.669168(17) 0.513202(14)
N1 N 0.8606(4) 0.62317(18) 0.50525(14)
N2 N 1.3401(4) 0.47462(18) 0.49109(14)
C1 C 1.0537(4) 0.5660(2) 0.49930(17)
C2 C 1.1531(4) 0.5357(2) 0.49602(16)
O1 O 0.6989(5) 0.6483(3) 0.58572(17)
C3 C 0.9057(5) 0.6121(3) 0.47022(18)
H1 H 0.8723 0.6247 0.4473
C4 C 0.9967(5) 0.5839(3) 0.4660(2)
H2 H 1.0221 0.5762 0.4406
C5 C 1.2867(5) 0.4918(3) 0.4590(2)
H3 H 1.3126 0.4818 0.4340
C6 C 0.9134(5) 0.6062(3) 0.5368(2)
H4 H 0.8856 0.6139 0.5619
C7 C 0.6250 0.6250 0.6021(3)
C8 C 1.1988(6) 0.5222(3) 0.4602(2)
H5 H 1.1682 0.5343 0.4366
C9 C 1.0068(6) 0.5779(3) 0.5346(2)
H6 H 1.0392 0.5664 0.5581
C10 C 1.2987(6) 0.4911(4) 0.5255(2)
H7 H 1.3347 0.4823 0.5489
C11 C 1.2068(5) 0.5200(3) 0.5286(2)
H8 H 1.1808 0.5290 0.5537
Ag1Q Ag -0.03146(3) 0.919168(17) 0.486798(14)
Ag1CA Ag 1.46854(3) 0.419168(17) 0.486798(14)
Ag1M Ag 0.53146(3) 0.580832(17) 0.513202(14)
Ag1G Ag 0.71854(3) 0.580832(17) 0.736798(14)
Ag1J Ag 0.53146(3) 0.669168(17) 0.736798(14)
Ag1L Ag -0.78146(3) 1.169168(17) 0.513202(14)
Ag1L_2 Ag 2.21854(3) 0.169168(17) 0.513202(14)
N1Q N 0.1106(4) 0.87317(18) 0.49475(14)
N1L N -0.6394(4) 1.12317(18) 0.50525(14)
N1CA N 1.6106(4) 0.37317(18) 0.49475(14)
N1M N 0.3894(4) 0.62683(18) 0.50525(14)
N2Q N 0.5901(4) 0.72462(18) 0.50891(14)
N2L N -0.1599(4) 0.97462(18) 0.49109(14)
N2CA N 2.0901(4) 0.22462(18) 0.50891(14)
N2P N 0.6599(4) 0.52538(18) 0.50891(14)
C1Q C 0.3037(4) 0.8160(2) 0.50070(17)
C1L C -0.4463(4) 1.0660(2) 0.49930(17)
C1CA C 1.8037(4) 0.3160(2) 0.50070(17)
C2Q C 0.4031(4) 0.7857(2) 0.50398(16)
C2L C -0.3469(4) 1.0357(2) 0.49602(16)
C2CA C 1.9031(4) 0.2857(2) 0.50398(16)
O1M O 0.5511(5) 0.6017(3) 0.58572(17)
O1G O 0.6989(5) 0.6017(3) 0.66428(17)
O1J O 0.5511(5) 0.6483(3) 0.66428(17)
O1Q O -0.0511(5) 0.8983(3) 0.41428(17)
O1CA O 1.4489(5) 0.3983(3) 0.41428(17)
C3Q C 0.1557(5) 0.8621(3) 0.52978(18)
C3L C -0.5943(5) 1.1121(3) 0.47022(18)
C3CA C 1.6557(5) 0.3621(3) 0.52978(18)
H1Q H 0.1223 0.8747 0.5527
H1L H -0.6277 1.1247 0.4473
H1CA H 1.6223 0.3747 0.5527
C4Q C 0.2467(5) 0.8339(3) 0.5340(2)
C4L C -0.5033(5) 1.0839(3) 0.4660(2)
C4CA C 1.7467(5) 0.3339(3) 0.5340(2)
H2Q H 0.2721 0.8262 0.5594
H2L H -0.4779 1.0762 0.4406
H2CA H 1.7721 0.3262 0.5594
C5Q C 0.5367(5) 0.7418(3) 0.5410(2)
C5L C -0.2133(5) 0.9918(3) 0.4590(2)
C5CA C 2.0367(5) 0.2418(3) 0.5410(2)
H3Q H 0.5626 0.7318 0.5660
H3L H -0.1874 0.9818 0.4340
H3CA H 2.0626 0.2318 0.5660
C6Q C 0.1634(5) 0.8562(3) 0.4632(2)
C6L C -0.5866(5) 1.1062(3) 0.5368(2)
C6CA C 1.6634(5) 0.3562(3) 0.4632(2)
H4Q H 0.1356 0.8639 0.4381
H4L H -0.6144 1.1139 0.5619
H4CA H 1.6356 0.3639 0.4381
C7G C 0.6250 0.6250 0.6479(3)
C8Q C 0.4488(6) 0.7722(3) 0.5398(2)
C8L C -0.3012(6) 1.0222(3) 0.4602(2)
C8CA C 1.9488(6) 0.2722(3) 0.5398(2)
H5Q H 0.4182 0.7843 0.5634
H5L H -0.3318 1.0343 0.4366
H5CA H 1.9182 0.2843 0.5634
C9Q C 0.2568(6) 0.8279(3) 0.4654(2)
C9L C -0.4932(6) 1.0779(3) 0.5346(2)
C9CA C 1.7568(6) 0.3279(3) 0.4654(2)
H6Q H 0.2892 0.8164 0.4419
H6L H -0.4608 1.0664 0.5581
H6CA H 1.7892 0.3164 0.4419
C10Q C 0.5487(6) 0.7411(4) 0.4745(2)
C10L C -0.2013(6) 0.9911(4) 0.5255(2)
C10CA C 2.0487(6) 0.2411(4) 0.4745(2)
H7Q H 0.5847 0.7323 0.4511
H7L H -0.1653 0.9823 0.5489
H7CA H 2.0847 0.2323 0.4511
C11Q C 0.4568(5) 0.7700(3) 0.4714(2)
C11L C -0.2932(5) 1.0200(3) 0.5286(2)
C11CA C 1.9568(5) 0.2700(3) 0.4714(2)
H8Q H 0.4308 0.7790 0.4463
H8L H -0.3192 1.0290 0.5537
H8CA H 1.9308 0.2790 0.4463
loop_
_geom_bond_atom_site_label_1
_geom_bond_atom_site_label_2
_geom_bond_site_symmetry_1
_geom_bond_site_symmetry_2
Ag1 N1 1_555 1_555
N1 C3 1_555 1_555
N2 C5 1_555 1_555
C1 C2 1_555 1_555
C2 C8 1_555 1_555
O1 Ag1 1_555 1_555
C3 H1 1_555 1_555
C4 C1 1_555 1_555
H2 C4 1_555 1_555
C5 H3 1_555 1_555
C6 N1 1_555 1_555
H4 C6 1_555 1_555
C7 O1 1_555 1_555
C8 C5 1_555 1_555
H5 C8 1_555 1_555
C9 C1 1_555 1_555
H6 C9 1_555 1_555
C10 N2 1_555 1_555
H7 C10 1_555 1_555
C11 C2 1_555 1_555
H8 C11 1_555 1_555
Ag1Q N1Q 1_555 1_555
Ag1CA N2 1_555 1_555
Ag1M N1M 1_555 1_555
Ag1G O1G 1_555 1_555
Ag1J O1J 1_555 1_555
Ag1L N1L 1_555 1_555
Ag1L_2 N2CA 1_555 1_555
N1Q C3Q 1_555 1_555
N1L C3L 1_555 1_555
N1CA Ag1CA 1_555 1_555
N2Q Ag1 1_555 1_555
N2L Ag1Q 1_555 1_555
N2CA C5CA 1_555 1_555
N2P Ag1M 1_555 1_555
C1Q C2Q 1_555 1_555
C1L C2L 1_555 1_555
C1CA C2CA 1_555 1_555
C2Q C8Q 1_555 1_555
C2L C8L 1_555 1_555
C2CA C8CA 1_555 1_555
O1M C7 1_555 1_555
O1G C7G 1_555 1_555
O1J C7G 1_555 1_555
O1Q Ag1Q 1_555 1_555
O1CA Ag1CA 1_555 1_555
C3Q H1Q 1_555 1_555
C3L H1L 1_555 1_555
C3CA N1CA 1_555 1_555
H1CA C3CA 1_555 1_555
C4Q C1Q 1_555 1_555
C4L C1L 1_555 1_555
C4CA C1CA 1_555 1_555
H2Q C4Q 1_555 1_555
H2L C4L 1_555 1_555
H2CA C4CA 1_555 1_555
C5Q N2Q 1_555 1_555
C5L N2L 1_555 1_555
C5CA H3CA 1_555 1_555
H3Q C5Q 1_555 1_555
H3L C5L 1_555 1_555
C6Q N1Q 1_555 1_555
C6L N1L 1_555 1_555
C6CA N1CA 1_555 1_555
H4Q C6Q 1_555 1_555
H4L C6L 1_555 1_555
H4CA C6CA 1_555 1_555
C7G C7 1_555 1_555
C8Q C5Q 1_555 1_555
C8L C5L 1_555 1_555
C8CA C5CA 1_555 1_555
H5Q C8Q 1_555 1_555
H5L C8L 1_555 1_555
H5CA C8CA 1_555 1_555
C9Q C1Q 1_555 1_555
C9L C1L 1_555 1_555
C9CA C1CA 1_555 1_555
H6Q C9Q 1_555 1_555
H6L C9L 1_555 1_555
H6CA C9CA 1_555 1_555
C10Q N2Q 1_555 1_555
C10L N2L 1_555 1_555
C10CA N2CA 1_555 1_555
H7Q C10Q 1_555 1_555
H7L C10L 1_555 1_555
H7CA C10CA 1_555 1_555
C11Q C2Q 1_555 1_555
C11L C2L 1_555 1_555
C11CA C2CA 1_555 1_555
H8Q C11Q 1_555 1_555
H8L C11L 1_555 1_555
H8CA C11CA 1_555 1_555
C3 C4 1_555 1_555
C6 C9 1_555 1_555
C10 C11 1_555 1_555
Ag1M O1M 1_555 1_555
C3Q C4Q 1_555 1_555
C3L C4L 1_555 1_555
C3CA C4CA 1_555 1_555
C6Q C9Q 1_555 1_555
C6L C9L 1_555 1_555
C6CA C9CA 1_555 1_555
C10Q C11Q 1_555 1_555
C10L C11L 1_555 1_555
C10CA C11CA 1_555 1_555

#END
