
#######################################################################
#
#                 Cambridge Crystallographic Data Centre
#                                CCDC 
#
#######################################################################
#
# If this CIF has been generated from an entry in the Cambridge 
# Structural Database, then it will include bibliographic, chemical, 
# crystal, experimental, refinement or atomic coordinate data resulting 
# from the CCDC's data processing and validation procedures.
#
#######################################################################

data_YECNAW
_symmetry_cell_setting           triclinic
_symmetry_space_group_name_H-M   'P -1'
_symmetry_Int_Tables_number      2
_space_group_name_Hall           '-P 1'
loop_
_symmetry_equiv_pos_site_id
_symmetry_equiv_pos_as_xyz
1 x,y,z
2 -x,-y,-z
_cell_length_a                   9.529(3)
_cell_length_b                   10.386(4)
_cell_length_c                   10.680(4)
_cell_angle_alpha                78.50(6)
_cell_angle_beta                 73.16(5)
_cell_angle_gamma                70.91(5)
_cell_volume                     949.602
loop_
_atom_site_label
_atom_site_type_symbol
_atom_site_fract_x
_atom_site_fract_y
_atom_site_fract_z
O1 O 0.530(2) 0.6203(13) -0.0314(18)
C20 C 0.5000 0.5000 0.0000
O1A O 0.470(2) 0.3797(13) 0.0314(18)
Fe1 Fe 0.46544(4) 0.30398(4) 0.54015(4)
S1 S 0.83174(11) 0.09037(9) 0.15827(9)
N1 N 0.5762(2) 0.1383(2) 0.6834(2)
N2 N 0.6093(2) 0.3866(2) 0.5941(2)
N3 N 0.6407(2) 0.5089(2) 0.5596(2)
N4 N 0.7224(2) 0.7358(2) 0.5177(2)
N5 N 0.2872(2) 0.3678(2) 0.7237(2)
N6 N 0.6246(2) 0.2095(2) 0.3783(2)
C1 C 0.5461(3) 0.0186(2) 0.7345(2)
C2 C 0.6127(4) -0.0703(3) 0.8296(3)
C3 C 0.7158(4) -0.0360(3) 0.8728(3)
C4 C 0.7498(4) 0.0859(3) 0.8212(3)
C5 C 0.6770(3) 0.1722(2) 0.7286(2)
C6 C 0.6987(3) 0.3077(2) 0.6745(2)
C7 C 0.7902(3) 0.3786(2) 0.6921(2)
C8 C 0.7498(3) 0.5055(2) 0.6179(2)
C9 C 0.8023(3) 0.6282(2) 0.5900(2)
C10 C 0.9240(3) 0.6358(3) 0.6308(3)
C11 C 0.9686(3) 0.7553(3) 0.5960(3)
C12 C 0.8892(3) 0.8637(3) 0.5228(3)
C13 C 0.7683(3) 0.8503(2) 0.4869(2)
C14 C 0.2689(3) 0.4892(2) 0.7575(2)
C15 C 0.1592(3) 0.5439(2) 0.8641(2)
C16 C 0.0604(2) 0.4714(2) 0.9430(2)
C17 C 0.0815(3) 0.3422(2) 0.9077(2)
C18 C 0.1945(3) 0.2958(2) 0.7999(2)
C19 C 0.7112(3) 0.1622(2) 0.2858(2)
H1 H 0.4755 -0.0062 0.7037
H2 H 0.5873 -0.1537 0.8642
H3 H 0.7638 -0.0956 0.9379
H4 H 0.8227 0.1103 0.8491
H5 H 0.8641 0.3478 0.7432
H6 H 0.9768 0.5599 0.6821
H7 H 1.0527 0.7620 0.6225
H8 H 0.9177 0.9464 0.4974
H9 H 0.7134 0.9264 0.4373
H10 H 0.3351 0.5414 0.7052
H11 H 0.1514 0.6317 0.8836
H12 H 0.0179 0.2869 0.9583
H13 H 0.2074 0.2075 0.7784
Fe1A Fe 0.53456(4) 0.69602(4) 0.45985(4)
Fe1A_2 Fe -0.46544(4) 0.69602(4) 1.45985(4)
S1A S 0.16826(11) 0.90963(9) 0.84173(9)
N1A N 0.4238(2) 0.8617(2) 0.3166(2)
N2A N 0.3907(2) 0.6134(2) 0.4059(2)
N3A N 0.3593(2) 0.4911(2) 0.4404(2)
N4A N 0.2776(2) 0.2642(2) 0.4823(2)
N5A N -0.2872(2) 0.6322(2) 1.2763(2)
N5A_2 N 0.7128(2) 0.6322(2) 0.2763(2)
N6A N 0.3754(2) 0.7905(2) 0.6217(2)
C1A C 0.4539(3) 0.9814(2) 0.2655(2)
C2A C 0.3873(4) 1.0703(3) 0.1704(3)
C3A C 0.2842(4) 1.0360(3) 0.1272(3)
C4A C 0.2502(4) 0.9141(3) 0.1788(3)
C5A C 0.3230(3) 0.8278(2) 0.2714(2)
C6A C 0.3013(3) 0.6923(2) 0.3255(2)
C7A C 0.2098(3) 0.6214(2) 0.3079(2)
C8A C 0.2502(3) 0.4945(2) 0.3821(2)
C9A C 0.1977(3) 0.3718(2) 0.4100(2)
C10A C 0.0760(3) 0.3642(3) 0.3692(3)
C11A C 0.0314(3) 0.2447(3) 0.4040(3)
C12A C 0.1108(3) 0.1363(3) 0.4772(3)
C13A C 0.2317(3) 0.1497(2) 0.5131(2)
C14A C -0.2689(3) 0.5108(2) 1.2425(2)
C15A C -0.1592(3) 0.4561(2) 1.1359(2)
C16A C -0.0604(2) 0.5286(2) 1.0570(2)
C17A C -0.0815(3) 0.6578(2) 1.0923(2)
C18A C -0.1945(3) 0.7042(2) 1.2001(2)
C19A C 0.2888(3) 0.8378(2) 0.7142(2)
H1A H 0.5245 1.0062 0.2963
H2A H 0.4127 1.1537 0.1358
H3A H 0.2362 1.0956 0.0621
H4A H 0.1773 0.8897 0.1509
H5A H 0.1359 0.6522 0.2568
H6A H 0.0232 0.4401 0.3179
H7A H -0.0527 0.2380 0.3775
H8A H 0.0823 0.0536 0.5026
H9A H 0.2866 0.0736 0.5627
H10A H -0.3351 0.4586 1.2948
H11A H -0.1514 0.3683 1.1164
H12A H -0.0179 0.7131 1.0417
H13A H -0.2074 0.7925 1.2216
loop_
_geom_bond_atom_site_label_1
_geom_bond_atom_site_label_2
_geom_bond_site_symmetry_1
_geom_bond_site_symmetry_2
Fe1 N1 1_555 1_555
S1 C19 1_555 1_555
O1 C20 1_555 1_555
N1 C1 1_555 1_555
N2 Fe1 1_555 1_555
N3 N2 1_555 1_555
N4 C9 1_555 1_555
N5 Fe1 1_555 1_555
N6 Fe1 1_555 1_555
C1 C2 1_555 1_555
C2 C3 1_555 1_555
C3 C4 1_555 1_555
C4 C5 1_555 1_555
C5 N1 1_555 1_555
C6 N2 1_555 1_555
C7 C6 1_555 1_555
C8 N3 1_555 1_555
C9 C8 1_555 1_555
C10 C9 1_555 1_555
C11 C10 1_555 1_555
C12 C11 1_555 1_555
C13 N4 1_555 1_555
C14 N5 1_555 1_555
C15 C14 1_555 1_555
C16 C15 1_555 1_555
C17 C16 1_555 1_555
C18 N5 1_555 1_555
C19 N6 1_555 1_555
C20 O1A 1_555 1_555
H1 C1 1_555 1_555
H2 C2 1_555 1_555
H3 C3 1_555 1_555
H4 C4 1_555 1_555
H5 C7 1_555 1_555
H6 C10 1_555 1_555
H7 C11 1_555 1_555
H8 C12 1_555 1_555
H9 C13 1_555 1_555
H10 C14 1_555 1_555
H11 C15 1_555 1_555
H12 C17 1_555 1_555
H13 C18 1_555 1_555
Fe1A N3 1_555 1_555
Fe1A_2 N5A 1_555 1_555
S1A C19A 1_555 1_555
N1A Fe1A 1_555 1_555
N2A Fe1A 1_555 1_555
N3A Fe1 1_555 1_555
N4A Fe1 1_555 1_555
N5A C14A 1_555 1_555
N5A_2 Fe1A 1_555 1_555
N6A Fe1A 1_555 1_555
C1A N1A 1_555 1_555
C2A C1A 1_555 1_555
C3A C2A 1_555 1_555
C4A C3A 1_555 1_555
C5A N1A 1_555 1_555
C6A N2A 1_555 1_555
C7A C6A 1_555 1_555
C8A N3A 1_555 1_555
C9A N4A 1_555 1_555
C10A C9A 1_555 1_555
C11A C10A 1_555 1_555
C12A C11A 1_555 1_555
C13A N4A 1_555 1_555
C14A C15A 1_555 1_555
C15A C16A 1_555 1_555
C16A C16 1_555 1_555
C17A C16A 1_555 1_555
C18A N5A 1_555 1_555
C19A N6A 1_555 1_555
H1A C1A 1_555 1_555
H2A C2A 1_555 1_555
H3A C3A 1_555 1_555
H4A C4A 1_555 1_555
H5A C7A 1_555 1_555
H6A C10A 1_555 1_555
H7A C11A 1_555 1_555
H8A C12A 1_555 1_555
H9A C13A 1_555 1_555
H10A C14A 1_555 1_555
H11A C15A 1_555 1_555
H12A C17A 1_555 1_555
H13A C18A 1_555 1_555
N4 Fe1A 1_555 1_555
C5 C6 1_555 1_555
C7 C8 1_555 1_555
C12 C13 1_555 1_555
C17 C18 1_555 1_555
N2A N3A 1_555 1_555
C4A C5A 1_555 1_555
C5A C6A 1_555 1_555
C7A C8A 1_555 1_555
C8A C9A 1_555 1_555
C12A C13A 1_555 1_555
C17A C18A 1_555 1_555

#END
