
#######################################################################
#
#                 Cambridge Crystallographic Data Centre
#                                CCDC 
#
#######################################################################
#
# If this CIF has been generated from an entry in the Cambridge 
# Structural Database, then it will include bibliographic, chemical, 
# crystal, experimental, refinement or atomic coordinate data resulting 
# from the CCDC's data processing and validation procedures.
#
#######################################################################

data_YECNAW01
_symmetry_cell_setting           triclinic
_symmetry_space_group_name_H-M   'P -1'
_symmetry_Int_Tables_number      2
_space_group_name_Hall           '-P 1'
loop_
_symmetry_equiv_pos_site_id
_symmetry_equiv_pos_as_xyz
1 x,y,z
2 -x,-y,-z
_cell_length_a                   9.2371(9)
_cell_length_b                   10.273(2)
_cell_length_c                   10.2499(10)
_cell_angle_alpha                78.43(4)
_cell_angle_beta                 73.91(4)
_cell_angle_gamma                71.16(4)
_cell_volume                     877.849
loop_
_atom_site_label
_atom_site_type_symbol
_atom_site_fract_x
_atom_site_fract_y
_atom_site_fract_z
O1 O 0.505(2) 0.640(2) 0.9863(17)
C20 C 0.5000 0.5000 1.0000
O1A O 0.495(2) 0.360(2) 1.0137(17)
Fe1 Fe 0.45773(6) 0.31275(6) 0.54987(6)
S1 S 0.81562(16) 0.10018(12) 0.17005(13)
N1 N 0.5615(4) 0.1515(3) 0.6810(3)
N2 N 0.6023(3) 0.3913(3) 0.5920(3)
N3 N 0.6310(3) 0.5139(3) 0.5578(3)
N4 N 0.7087(3) 0.7402(3) 0.5103(3)
N5 N 0.2946(3) 0.3750(3) 0.7151(3)
N6 N 0.6117(4) 0.2304(3) 0.3927(3)
C1 C 0.5252(5) 0.0331(4) 0.7363(4)
C2 C 0.5983(6) -0.0612(5) 0.8275(5)
C3 C 0.7157(7) -0.0377(5) 0.8662(5)
C4 C 0.7556(6) 0.0847(4) 0.8115(5)
C5 C 0.6741(5) 0.1766(4) 0.7222(4)
C6 C 0.6993(4) 0.3107(4) 0.6697(3)
C7 C 0.7957(5) 0.3816(4) 0.6851(4)
C8 C 0.7487(4) 0.5099(4) 0.6125(4)
C9 C 0.7949(4) 0.6354(4) 0.5844(3)
C10 C 0.9170(5) 0.6480(4) 0.6275(4)
C11 C 0.9534(5) 0.7712(5) 0.5951(5)
C12 C 0.8649(5) 0.8790(5) 0.5228(4)
C13 C 0.7439(5) 0.8598(4) 0.4838(4)
C14 C 0.2733(4) 0.4982(4) 0.7530(4)
C15 C 0.1613(4) 0.5486(4) 0.8630(4)
C16 C 0.0622(4) 0.4736(3) 0.9411(3)
C17 C 0.0858(4) 0.3447(3) 0.9034(3)
C18 C 0.2009(4) 0.3001(4) 0.7933(4)
C19 C 0.6968(5) 0.1764(4) 0.3000(4)
H1 H 0.4438 0.0142 0.7100
H2 H 0.5676 -0.1433 0.8641
H3 H 0.7693 -0.1031 0.9292
H4 H 0.8379 0.1042 0.8356
H5 H 0.8763 0.3494 0.7344
H6 H 0.9756 0.5721 0.6793
H7 H 1.0388 0.7816 0.6225
H8 H 0.8871 0.9659 0.4999
H9 H 0.6818 0.9360 0.4352
H10 H 0.3396 0.5533 0.7006
H11 H 0.1518 0.6367 0.8859
H12 H 0.0214 0.2875 0.9547
H13 H 0.2155 0.2108 0.7706
Fe1A Fe 0.54227(6) 0.68725(6) 0.45013(6)
Fe1A_2 Fe -0.45773(6) 0.68725(6) 1.45013(6)
S1A S 0.18438(16) 0.89982(12) 0.82995(13)
N1A N 0.4385(4) 0.8485(3) 0.3190(3)
N2A N 0.3977(3) 0.6087(3) 0.4080(3)
N3A N 0.3690(3) 0.4861(3) 0.4422(3)
N4A N 0.2913(3) 0.2598(3) 0.4897(3)
N5A N -0.2946(3) 0.6250(3) 1.2849(3)
N5A_2 N 0.7054(3) 0.6250(3) 0.2849(3)
N6A N 0.3883(4) 0.7696(3) 0.6073(3)
C1A C 0.4748(5) 0.9669(4) 0.2637(4)
C2A C 0.4017(6) 1.0612(5) 0.1725(5)
C3A C 0.2843(7) 1.0377(5) 0.1338(5)
C4A C 0.2444(6) 0.9153(4) 0.1885(5)
C5A C 0.3259(5) 0.8234(4) 0.2778(4)
C6A C 0.3007(4) 0.6893(4) 0.3303(3)
C7A C 0.2043(5) 0.6184(4) 0.3149(4)
C8A C 0.2513(4) 0.4901(4) 0.3875(4)
C9A C 0.2051(4) 0.3646(4) 0.4156(3)
C10A C 0.0830(5) 0.3520(4) 0.3725(4)
C11A C 0.0466(5) 0.2288(5) 0.4049(5)
C12A C 0.1351(5) 0.1210(5) 0.4772(4)
C13A C 0.2561(5) 0.1402(4) 0.5162(4)
C14A C -0.2733(4) 0.5018(4) 1.2470(4)
C15A C -0.1613(4) 0.4514(4) 1.1370(4)
C16A C -0.0622(4) 0.5264(3) 1.0589(3)
C17A C -0.0858(4) 0.6553(3) 1.0966(3)
C18A C -0.2009(4) 0.6999(4) 1.2067(4)
C19A C 0.3032(5) 0.8236(4) 0.7000(4)
H1A H 0.5562 0.9858 0.2900
H2A H 0.4324 1.1433 0.1359
H3A H 0.2307 1.1031 0.0708
H4A H 0.1621 0.8958 0.1644
H5A H 0.1237 0.6506 0.2656
H6A H 0.0244 0.4279 0.3207
H7A H -0.0388 0.2184 0.3775
H8A H 0.1129 0.0341 0.5001
H9A H 0.3182 0.0640 0.5648
H10A H -0.3396 0.4467 1.2994
H11A H -0.1518 0.3633 1.1141
H12A H -0.0214 0.7125 1.0453
H13A H -0.2155 0.7892 1.2294
loop_
_geom_bond_atom_site_label_1
_geom_bond_atom_site_label_2
_geom_bond_site_symmetry_1
_geom_bond_site_symmetry_2
Fe1 N1 1_555 1_555
S1 C19 1_555 1_555
O1 C20 1_555 1_555
N1 C1 1_555 1_555
N2 Fe1 1_555 1_555
N3 N2 1_555 1_555
N4 C9 1_555 1_555
N5 Fe1 1_555 1_555
N6 Fe1 1_555 1_555
C1 C2 1_555 1_555
C2 C3 1_555 1_555
C3 C4 1_555 1_555
C4 C5 1_555 1_555
C5 N1 1_555 1_555
C6 N2 1_555 1_555
C7 C6 1_555 1_555
C8 N3 1_555 1_555
C9 C8 1_555 1_555
C10 C9 1_555 1_555
C11 C10 1_555 1_555
C12 C11 1_555 1_555
C13 N4 1_555 1_555
C14 N5 1_555 1_555
C15 C14 1_555 1_555
C16 C15 1_555 1_555
C17 C16 1_555 1_555
C18 N5 1_555 1_555
C19 N6 1_555 1_555
C20 O1A 1_555 1_555
H1 C1 1_555 1_555
H2 C2 1_555 1_555
H3 C3 1_555 1_555
H4 C4 1_555 1_555
H5 C7 1_555 1_555
H6 C10 1_555 1_555
H7 C11 1_555 1_555
H8 C12 1_555 1_555
H9 C13 1_555 1_555
H10 C14 1_555 1_555
H11 C15 1_555 1_555
H12 C17 1_555 1_555
H13 C18 1_555 1_555
Fe1A N3 1_555 1_555
Fe1A_2 N5A 1_555 1_555
S1A C19A 1_555 1_555
N1A Fe1A 1_555 1_555
N2A Fe1A 1_555 1_555
N3A Fe1 1_555 1_555
N4A Fe1 1_555 1_555
N5A C14A 1_555 1_555
N5A_2 Fe1A 1_555 1_555
N6A Fe1A 1_555 1_555
C1A N1A 1_555 1_555
C2A C1A 1_555 1_555
C3A C2A 1_555 1_555
C4A C3A 1_555 1_555
C5A N1A 1_555 1_555
C6A N2A 1_555 1_555
C7A C6A 1_555 1_555
C8A N3A 1_555 1_555
C9A N4A 1_555 1_555
C10A C9A 1_555 1_555
C11A C10A 1_555 1_555
C12A C11A 1_555 1_555
C13A N4A 1_555 1_555
C14A C15A 1_555 1_555
C15A C16A 1_555 1_555
C16A C16 1_555 1_555
C17A C16A 1_555 1_555
C18A N5A 1_555 1_555
C19A N6A 1_555 1_555
H1A C1A 1_555 1_555
H2A C2A 1_555 1_555
H3A C3A 1_555 1_555
H4A C4A 1_555 1_555
H5A C7A 1_555 1_555
H6A C10A 1_555 1_555
H7A C11A 1_555 1_555
H8A C12A 1_555 1_555
H9A C13A 1_555 1_555
H10A C14A 1_555 1_555
H11A C15A 1_555 1_555
H12A C17A 1_555 1_555
H13A C18A 1_555 1_555
N4 Fe1A 1_555 1_555
C5 C6 1_555 1_555
C7 C8 1_555 1_555
C12 C13 1_555 1_555
C17 C18 1_555 1_555
N2A N3A 1_555 1_555
C4A C5A 1_555 1_555
C5A C6A 1_555 1_555
C7A C8A 1_555 1_555
C8A C9A 1_555 1_555
C12A C13A 1_555 1_555
C17A C18A 1_555 1_555

#END
