
#######################################################################
#
#                 Cambridge Crystallographic Data Centre
#                                CCDC 
#
#######################################################################
#
# If this CIF has been generated from an entry in the Cambridge 
# Structural Database, then it will include bibliographic, chemical, 
# crystal, experimental, refinement or atomic coordinate data resulting 
# from the CCDC's data processing and validation procedures.
#
#######################################################################

data_YECQIH
_symmetry_cell_setting           monoclinic
_symmetry_space_group_name_H-M   'P 21/n'
_symmetry_Int_Tables_number      14
_space_group_name_Hall           '-P 2yn'
loop_
_symmetry_equiv_pos_site_id
_symmetry_equiv_pos_as_xyz
1 x,y,z
2 1/2-x,1/2+y,1/2-z
3 -x,-y,-z
4 1/2+x,1/2-y,1/2+z
_cell_length_a                   8.5992(7)
_cell_length_b                   23.2386(18)
_cell_length_c                   20.7890(12)
_cell_angle_alpha                90
_cell_angle_beta                 98.961(6)
_cell_angle_gamma                90
_cell_volume                     4103.63
loop_
_atom_site_label
_atom_site_type_symbol
_atom_site_fract_x
_atom_site_fract_y
_atom_site_fract_z
Co1 Co 0.07924(5) 0.081377(19) 0.21826(2)
Co2 Co -0.05900(5) -0.065065(19) 0.31151(2)
P1 P 0.26740(10) -0.02327(4) 0.27237(4)
H1 H 0.419(4) -0.0289(15) 0.2990(16)
P2 P -0.24927(10) 0.04285(4) 0.24974(4)
H2 H -0.374(5) 0.0727(17) 0.2646(18)
O1 O -0.1101(3) 0.08508(10) 0.25650(11)
O2 O -0.2938(3) 0.02087(11) 0.18125(11)
O3 O -0.2192(3) -0.00379(10) 0.30170(10)
O4 O 0.1705(3) -0.05121(10) 0.31914(10)
O5 O -0.0717(3) -0.06595(11) 0.20167(11)
H3 H 0.026(5) -0.0586(17) 0.1929(18)
H4 H -0.142(6) -0.035(2) 0.189(2)
O6 O 0.2506(3) 0.04268(10) 0.27205(10)
O7 O 0.2343(3) -0.04867(10) 0.20478(11)
N1 N 0.0382(3) 0.06498(12) 0.12270(12)
N2 N -0.0747(3) 0.07190(11) 0.01898(12)
N3 N -0.1643(3) -0.14388(12) 0.29521(13)
N4 N -0.4091(3) -0.42397(12) 0.01513(12)
N5 N -0.3200(3) 0.33970(12) -0.27857(13)
N6 N -0.5320(3) -0.43227(12) -0.08705(12)
N7 N -0.3176(3) -0.20760(12) 0.23548(13)
N8 N -0.1684(3) 0.27169(12) -0.22693(13)
C1 C -0.0958(4) 0.06849(13) 0.08146(14)
H7 H -0.1965 0.0686 0.0948
C2 C -0.1982(4) 0.08161(15) -0.03677(15)
H8 H -0.3004 0.0682 -0.0261
H9 H -0.1746 0.0591 -0.0745
C3 C 0.0872(4) 0.07119(14) 0.01834(15)
C4 C -0.1381(4) 0.22332(14) -0.12008(15)
C5 C -0.1271(4) -0.19891(14) 0.31994(15)
C6 C -0.5679(4) -0.42711(13) 0.01896(15)
C7 C 0.1569(4) 0.06635(14) 0.08352(15)
C8 C -0.2200(4) -0.23941(14) 0.28212(15)
C9 C -0.0155(4) -0.21698(15) 0.37202(16)
H10 H 0.0484 -0.1901 0.3986
C10 C 0.3188(4) 0.06173(14) 0.10061(15)
H11 H 0.3665 0.0582 0.1448
C11 C -0.2098(4) 0.14453(14) -0.05451(15)
C12 C -0.2208(4) -0.24863(16) 0.03750(16)
H12 H -0.1752 -0.2252 0.0079
C13 C -0.4358(4) -0.22998(15) 0.18252(16)
H13 H -0.5049 -0.1981 0.1639
H14 H -0.5021 -0.2589 0.2003
C14 C -0.4712(4) 0.27429(15) -0.36354(16)
H15 H -0.5333 0.3034 -0.3871
C15 C -0.2065(4) -0.29831(15) 0.29306(16)
H16 H -0.2710 -0.3253 0.2668
C16 C -0.0016(4) -0.27545(15) 0.38346(17)
H17 H 0.0728 -0.2889 0.4189
C17 C -0.4867(4) 0.21709(16) -0.38154(17)
H18 H -0.5610 0.2069 -0.4185
C18 C 0.3367(4) 0.06818(15) -0.01480(17)
H19 H 0.4012 0.0690 -0.0480
C19 C -0.0939(4) -0.31544(16) 0.34433(16)
H20 H -0.0789 -0.3553 0.3532
C20 C -0.2808(4) 0.18294(16) -0.01785(16)
H21 H -0.3295 0.1692 0.0172
C21 C -0.3604(4) 0.28723(14) -0.30933(16)
C22 C -0.1400(4) 0.16506(14) -0.10605(15)
H22 H -0.0928 0.1387 -0.1321
C23 C -0.8075(4) -0.43835(15) -0.06005(16)
H23 H -0.8598 -0.4422 -0.1036
C24 C -0.2092(4) 0.26161(16) -0.08219(16)
H24 H -0.2077 0.3017 -0.0911
C25 C -0.2685(4) 0.24375(14) -0.27619(15)
C26 C -0.2848(4) 0.18634(15) -0.29346(17)
H25 H -0.2228 0.1572 -0.2699
C27 C -0.3956(4) -0.42703(14) -0.04851(15)
H26 H -0.2975 -0.4256 -0.0641
C28 C 0.4079(4) 0.06248(15) 0.05082(16)
H27 H 0.5192 0.0591 0.0609
C29 C -0.6511(4) -0.42833(14) 0.07137(16)
H28 H -0.5996 -0.4254 0.1151
C30 C -0.2796(4) -0.15167(14) 0.24590(16)
H29 H -0.3303 -0.1211 0.2205
C31 C -0.8128(4) -0.43409(16) 0.05617(17)
H30 H -0.8738 -0.4352 0.0905
C32 C -0.3590(4) -0.25730(14) 0.12934(15)
C33 C -0.2948(4) -0.22302(16) 0.08555(16)
H31 H -0.3011 -0.1823 0.0882
C34 C -0.2822(4) 0.24180(15) -0.03155(16)
H32 H -0.3326 0.2680 -0.0064
C35 C -0.2138(4) -0.30791(16) 0.03295(16)
H33 H -0.1632 -0.3251 0.0003
C36 C -0.3969(4) 0.17372(15) -0.34723(17)
H34 H -0.4128 0.1349 -0.3609
C37 C 0.1749(4) 0.07265(14) -0.03186(16)
H35 H 0.1266 0.0765 -0.0760
C38 C -0.0571(4) 0.24472(15) -0.17512(16)
H36 H 0.0250 0.2730 -0.1578
H37 H -0.0047 0.2120 -0.1935
C39 C -0.6439(4) -0.43243(14) -0.04572(15)
C40 C -0.2044(4) 0.32754(15) -0.23072(16)
H38 H -0.1524 0.3557 -0.2020
C41 C -0.8891(4) -0.43835(16) -0.00798(17)
H39 H -1.0006 -0.4413 -0.0160
C42 C -0.3522(4) -0.31659(14) 0.12408(15)
H40 H -0.3974 -0.3399 0.1538
C43 C -0.2805(4) -0.34258(15) 0.07605(15)
C44 C -0.2842(4) -0.40736(14) 0.06825(16)
H41 H -0.3034 -0.4256 0.1093
H42 H -0.1813 -0.4210 0.0586
Co1C Co -0.42076(5) 0.418623(19) -0.28174(2)
Co2C Co -0.55900(5) -0.434935(19) -0.18849(2)
N5C N 0.1800(3) 0.16030(12) 0.22143(13)
N6C N -0.0320(3) -0.06773(12) 0.41295(12)
O8 O 0.5009(3) -0.07204(12) 0.14859(12)
H5 H 0.555(6) -0.045(2) 0.158(2)
H6 H 0.422(5) -0.0663(19) 0.165(2)
loop_
_geom_bond_atom_site_label_1
_geom_bond_atom_site_label_2
_geom_bond_site_symmetry_1
_geom_bond_site_symmetry_2
Co1 O1 1_555 1_555
Co2 O3 1_555 1_555
P1 H1 1_555 1_555
P2 H2 1_555 1_555
O1 P2 1_555 1_555
O2 P2 1_555 1_555
O3 P2 1_555 1_555
O4 Co2 1_555 1_555
O5 Co2 1_555 1_555
H3 O5 1_555 1_555
H4 O5 1_555 1_555
O6 Co1 1_555 1_555
O7 P1 1_555 1_555
O8 H5 1_555 1_555
H6 O8 1_555 1_555
N1 Co1 1_555 1_555
N2 C1 1_555 1_555
N3 Co2 1_555 1_555
N4 C6 1_555 1_555
N5 C21 1_555 1_555
N6 C27 1_555 1_555
N7 C8 1_555 1_555
N8 C25 1_555 1_555
C1 N1 1_555 1_555
H7 C1 1_555 1_555
C2 N2 1_555 1_555
H8 C2 1_555 1_555
H9 C2 1_555 1_555
C3 N2 1_555 1_555
C4 C22 1_555 1_555
C5 N3 1_555 1_555
C6 C29 1_555 1_555
C7 N1 1_555 1_555
C8 C5 1_555 1_555
C9 C5 1_555 1_555
H10 C9 1_555 1_555
C10 C7 1_555 1_555
H11 C10 1_555 1_555
C11 C2 1_555 1_555
C12 H12 1_555 1_555
C13 N7 1_555 1_555
H13 C13 1_555 1_555
H14 C13 1_555 1_555
C14 H15 1_555 1_555
C15 C8 1_555 1_555
H16 C15 1_555 1_555
C16 C9 1_555 1_555
H17 C16 1_555 1_555
C17 C14 1_555 1_555
H18 C17 1_555 1_555
C18 H19 1_555 1_555
C19 C15 1_555 1_555
H20 C19 1_555 1_555
C20 C11 1_555 1_555
H21 C20 1_555 1_555
C21 C14 1_555 1_555
C22 C11 1_555 1_555
H22 C22 1_555 1_555
C23 H23 1_555 1_555
C24 C4 1_555 1_555
H24 C24 1_555 1_555
C25 C21 1_555 1_555
C26 C25 1_555 1_555
H25 C26 1_555 1_555
C27 N4 1_555 1_555
H26 C27 1_555 1_555
C28 C10 1_555 1_555
H27 C28 1_555 1_555
C29 H28 1_555 1_555
C30 N3 1_555 1_555
H29 C30 1_555 1_555
C31 C29 1_555 1_555
H30 C31 1_555 1_555
C32 C13 1_555 1_555
C33 C12 1_555 1_555
H31 C33 1_555 1_555
C34 C20 1_555 1_555
H32 C34 1_555 1_555
C35 C12 1_555 1_555
H33 C35 1_555 1_555
C36 C17 1_555 1_555
H34 C36 1_555 1_555
C37 C3 1_555 1_555
H35 C37 1_555 1_555
C38 N8 1_555 1_555
H36 C38 1_555 1_555
H37 C38 1_555 1_555
C39 N6 1_555 1_555
C40 N5 1_555 1_555
H38 C40 1_555 1_555
C41 C23 1_555 1_555
H39 C41 1_555 1_555
C42 C32 1_555 1_555
H40 C42 1_555 1_555
C43 C35 1_555 1_555
C44 N4 1_555 1_555
H41 C44 1_555 1_555
H42 C44 1_555 1_555
Co1C N5 1_555 1_555
Co2C N6 1_555 1_555
N5C Co1 1_555 1_555
N6C Co2 1_555 1_555
P1 O4 1_555 1_555
P1 O6 1_555 1_555
N7 C30 1_555 1_555
N8 C40 1_555 1_555
C3 C7 1_555 1_555
C4 C38 1_555 1_555
C6 C39 1_555 1_555
C16 C19 1_555 1_555
C18 C28 1_555 1_555
C18 C37 1_555 1_555
C23 C39 1_555 1_555
C24 C34 1_555 1_555
C26 C36 1_555 1_555
C31 C41 1_555 1_555
C32 C33 1_555 1_555
C42 C43 1_555 1_555
C43 C44 1_555 1_555

#END
