
#######################################################################
#
#                 Cambridge Crystallographic Data Centre
#                                CCDC 
#
#######################################################################
#
# If this CIF has been generated from an entry in the Cambridge 
# Structural Database, then it will include bibliographic, chemical, 
# crystal, experimental, refinement or atomic coordinate data resulting 
# from the CCDC's data processing and validation procedures.
#
#######################################################################

data_YECQUT
_symmetry_cell_setting           monoclinic
_symmetry_space_group_name_H-M   'P 21/n'
_symmetry_Int_Tables_number      14
_space_group_name_Hall           '-P 2yn'
loop_
_symmetry_equiv_pos_site_id
_symmetry_equiv_pos_as_xyz
1 x,y,z
2 1/2-x,1/2+y,1/2-z
3 -x,-y,-z
4 1/2+x,1/2-y,1/2+z
_cell_length_a                   11.173(2)
_cell_length_b                   5.2242(9)
_cell_length_c                   17.6690(19)
_cell_angle_alpha                90
_cell_angle_beta                 100.432(12)
_cell_angle_gamma                90
_cell_volume                     1014.29
loop_
_atom_site_label
_atom_site_type_symbol
_atom_site_fract_x
_atom_site_fract_y
_atom_site_fract_z
Co1 Co 0.47816(5) 0.19720(11) 0.08784(3)
P1 P 0.34088(11) -0.2760(2) 0.02793(7)
H1 H 0.2278 -0.2413 0.0240
O1 O 0.3982(3) -0.1317(6) 0.10100(17)
O3 O 0.3654(3) -0.5606(6) 0.03370(17)
O4 O 0.3739(3) -0.1544(6) -0.04402(18)
N1 N 0.5433(4) 0.3078(7) 0.1974(2)
N2 N 0.6112(3) 0.2845(7) 0.3217(2)
C1 C 0.5390(4) 0.1773(9) 0.2606(3)
H4 H 0.4925 0.0308 0.2628
C2 C 0.6196(4) 0.5097(9) 0.2192(3)
H5 H 0.6392 0.6355 0.1863
C3 C 0.6623(4) 0.4994(9) 0.2958(2)
H6 H 0.7154 0.6140 0.3249
C4 C 0.6261(4) 0.1937(8) 0.4016(3)
H7 H 0.7121 0.1924 0.4239
H8 H 0.5967 0.0190 0.4015
C5 C 0.5597(4) 0.3547(9) 0.4513(2)
C6 C 0.5833(4) 0.3167(8) 0.5306(3)
H9 H 0.6384 0.1911 0.5516
C7 C 0.4742(4) 0.5369(9) 0.4214(3)
H10 H 0.455(5) 0.567(10) 0.373(3)
Co1_2 Co 0.47816(5) 1.19720(11) 0.08784(3)
Co1_3 Co 0.47816(5) -0.80280(11) 0.08784(3)
Co1B Co 0.52184(5) -0.19720(11) -0.08784(3)
Co1B_2 Co 0.52184(5) 0.80280(11) 0.91216(3)
Co1B_3 Co 0.52184(5) 0.80280(11) -0.08784(3)
P1_2 P 0.34088(11) 0.7240(2) 0.02793(7)
H1_2 H 0.2278 0.7587 0.0240
O1_2 O 0.3982(3) 0.8683(6) 0.10100(17)
O3_2 O 0.3654(3) 0.4394(6) 0.03370(17)
O3_3 O 0.3654(3) 1.4394(6) 0.03370(17)
O4_2 O 0.3739(3) 0.8456(6) -0.04402(18)
O4B O 0.6261(3) 0.1544(6) 0.04402(18)
O4B_2 O 0.6261(3) 1.1544(6) 0.04402(18)
N1B N 0.4567(4) 0.6922(7) 0.8026(2)
N1_2 N 0.5433(4) 1.3078(7) 0.1974(2)
N2B N 0.3888(3) 0.7155(7) 0.6783(2)
C1B C 0.4610(4) 0.8227(9) 0.7394(3)
H4B H 0.5075 0.9692 0.7372
C2B C 0.3804(4) 0.4903(9) 0.7808(3)
H5B H 0.3608 0.3645 0.8137
C3B C 0.3377(4) 0.5006(9) 0.7042(2)
H6B H 0.2846 0.3860 0.6751
C4B C 0.3739(4) 0.8063(8) 0.5984(3)
H7B H 0.2879 0.8076 0.5761
H8B H 0.4033 0.9810 0.5985
C5B C 0.4403(4) 0.6453(9) 0.5487(2)
C6B C 0.4167(4) 0.6833(8) 0.4694(3)
H9B H 0.3616 0.8089 0.4484
C7B C 0.5258(4) 0.4631(9) 0.5786(3)
H10B H 0.545(5) 0.433(10) 0.627(3)
O2 O 0.3013(4) 0.7835(7) 0.2388(2)
H2 H 0.285(4) 0.629(10) 0.241(2)
H3 H 0.315(7) 0.793(12) 0.191(5)
loop_
_geom_bond_atom_site_label_1
_geom_bond_atom_site_label_2
_geom_bond_site_symmetry_1
_geom_bond_site_symmetry_2
Co1 O1 1_555 1_555
P1 H1 1_555 1_555
O1 P1 1_555 1_555
O2 H2 1_555 1_555
H3 O2 1_555 1_555
O3 P1 1_555 1_555
O4 P1 1_555 1_555
N1 Co1 1_555 1_555
N2 C1 1_555 1_555
C1 N1 1_555 1_555
H4 C1 1_555 1_555
C2 N1 1_555 1_555
H5 C2 1_555 1_555
C3 N2 1_555 1_555
H6 C3 1_555 1_555
C4 N2 1_555 1_555
H7 C4 1_555 1_555
H8 C4 1_555 1_555
C5 C4 1_555 1_555
C6 C5 1_555 1_555
H9 C6 1_555 1_555
C7 C5 1_555 1_555
H10 C7 1_555 1_555
Co1_2 O1_2 1_555 1_555
Co1_3 O3 1_555 1_555
Co1B O4 1_555 1_555
Co1B_2 N1B 1_555 1_555
Co1B_3 O4_2 1_555 1_555
P1_2 H1_2 1_555 1_555
O1_2 P1_2 1_555 1_555
O3_2 Co1 1_555 1_555
O3_3 Co1_2 1_555 1_555
O4_2 P1_2 1_555 1_555
O4B Co1 1_555 1_555
O4B_2 Co1_2 1_555 1_555
N1B C1B 1_555 1_555
N1_2 Co1_2 1_555 1_555
N2B C1B 1_555 1_555
C1B H4B 1_555 1_555
C2B N1B 1_555 1_555
H5B C2B 1_555 1_555
C3B N2B 1_555 1_555
H6B C3B 1_555 1_555
C4B N2B 1_555 1_555
H7B C4B 1_555 1_555
H8B C4B 1_555 1_555
C5B C4B 1_555 1_555
C6B C7 1_555 1_555
H9B C6B 1_555 1_555
C7B C6 1_555 1_555
H10B C7B 1_555 1_555
C2 C3 1_555 1_555
P1_2 O3_2 1_555 1_555
C2B C3B 1_555 1_555
C5B C6B 1_555 1_555
C5B C7B 1_555 1_555

#END
