
#######################################################################
#
#                 Cambridge Crystallographic Data Centre
#                                CCDC 
#
#######################################################################
#
# If this CIF has been generated from an entry in the Cambridge 
# Structural Database, then it will include bibliographic, chemical, 
# crystal, experimental, refinement or atomic coordinate data resulting 
# from the CCDC's data processing and validation procedures.
#
#######################################################################

data_YECQED
_symmetry_cell_setting           triclinic
_symmetry_space_group_name_H-M   'P -1'
_symmetry_Int_Tables_number      2
_space_group_name_Hall           '-P 1'
loop_
_symmetry_equiv_pos_site_id
_symmetry_equiv_pos_as_xyz
1 x,y,z
2 -x,-y,-z
_cell_length_a                   10.1338(10)
_cell_length_b                   10.5093(10)
_cell_length_c                   11.1176(10)
_cell_angle_alpha                71.871(8)
_cell_angle_beta                 78.973(8)
_cell_angle_gamma                86.705(8)
_cell_volume                     1104.46
loop_
_atom_site_label
_atom_site_type_symbol
_atom_site_fract_x
_atom_site_fract_y
_atom_site_fract_z
Co1 Co 0.59526(3) 0.89757(3) 0.37856(3)
P1 P 0.67022(6) 0.92808(6) 0.63518(5)
H1 H 0.672(3) 0.835(3) 0.749(3)
O1 O 0.61106(17) 0.85595(16) 0.55678(16)
O3 O 0.81032(18) 0.97902(19) 0.57816(18)
O4 O 0.57475(18) 1.03475(19) 0.66849(18)
N1 N 0.48204(19) 0.55558(19) 0.31336(18)
N2 N 0.5867(2) 0.7210(2) 0.34292(19)
N3 N 0.9260(2) 1.1397(2) 0.1643(2)
N4 N 0.7436(2) 1.01227(19) 0.25246(19)
C1 C 0.4271(2) 0.6070(2) 0.0252(2)
H4 H 0.3768 0.6806 0.0423
C2 C 0.4448(2) 0.4936(2) 0.1274(2)
C3 C 0.5185(2) 0.3864(2) 0.1001(2)
H5 H 0.5313 0.3084 0.1684
C4 C 0.3886(2) 0.4897(2) 0.2654(2)
H6 H 0.3006 0.5357 0.2694
H7 H 0.3745 0.3955 0.3205
C5 C 0.4803(2) 0.6855(2) 0.3081(2)
H8 H 0.4099 0.7454 0.2820
C6 C 0.6652(2) 0.6059(2) 0.3726(2)
C7 C 0.7877(2) 0.5842(3) 0.4157(2)
H9 H 0.8344 0.6548 0.4262
C8 C 0.8381(3) 0.4551(3) 0.4426(3)
H10 H 0.9218 0.4371 0.4710
C9 C 0.7685(3) 0.3496(3) 0.4288(2)
H11 H 0.8051 0.2619 0.4509
C10 C 0.6490(2) 0.3702(2) 0.3842(2)
H12 H 0.6029 0.2993 0.3735
C11 C 0.5988(2) 0.5008(2) 0.3556(2)
C12 C 1.1261(2) 1.4420(3) -0.0112(2)
H13 H 1.2130 1.4030 -0.0190
C13 C 1.0187(2) 1.3677(2) 0.0742(2)
C14 C 0.8929(3) 1.4274(3) 0.0851(3)
H14 H 0.8189 1.3781 0.1438
C15 C 1.0400(3) 1.2247(3) 0.1541(3)
H15 H 1.1235 1.1891 0.1137
H16 H 1.0505 1.2230 0.2413
C16 C 0.8439(2) 1.0733(2) 0.2733(2)
H17 H 0.8565 1.0704 0.3566
C17 C 0.7619(3) 1.0422(2) 0.1183(2)
C18 C 0.6856(3) 1.0057(3) 0.0425(3)
H18 H 0.6072 0.9518 0.0794
C19 C 0.7298(3) 1.0521(3) -0.0896(3)
H19 H 0.6802 1.0294 -0.1444
C20 C 0.8451(3) 1.1312(3) -0.1447(3)
H20 H 0.8717 1.1603 -0.2358
C21 C 0.9217(3) 1.1684(3) -0.0706(3)
H21 H 1.0002 1.2222 -0.1077
C22 C 0.8764(3) 1.1220(2) 0.0621(2)
Co1A Co 0.40474(3) 1.10243(3) 0.62144(3)
Co1A_2 Co 0.40474(3) 0.10243(3) -0.37856(3)
Co1A_3 Co 1.40474(3) 2.10243(3) -0.37856(3)
P1A P 0.32978(6) 1.07192(6) 0.36482(5)
H1A H 0.328(3) 1.165(3) 0.251(3)
O1A O 0.38894(17) 1.14405(16) 0.44322(16)
O3A O 0.18968(18) 1.02098(19) 0.42184(18)
O4A O 0.42525(18) 0.96525(19) 0.33151(18)
N1A N 0.51796(19) 0.44442(19) -0.31336(18)
N2A N 0.4133(2) 0.2790(2) -0.34292(19)
N2A_2 N 0.4133(2) 1.2790(2) 0.65708(19)
N3A N 1.0740(2) 1.8603(2) -0.1643(2)
N4A N 1.2564(2) 1.98773(19) -0.25246(19)
N4A_2 N 0.2564(2) 0.98773(19) 0.74754(19)
C1A C 0.5729(2) 0.3930(2) -0.0252(2)
H4A H 0.6232 0.3194 -0.0423
C2A C 0.5552(2) 0.5064(2) -0.1274(2)
C3A C 0.4815(2) 0.6136(2) -0.1001(2)
H5A H 0.4687 0.6916 -0.1684
C4A C 0.6114(2) 0.5103(2) -0.2654(2)
H6A H 0.6994 0.4643 -0.2694
H7A H 0.6255 0.6045 -0.3205
C5A C 0.5197(2) 0.3145(2) -0.3081(2)
H8A H 0.5901 0.2546 -0.2820
C6A C 0.3348(2) 0.3941(2) -0.3726(2)
C7A C 0.2123(2) 0.4158(3) -0.4157(2)
H9A H 0.1656 0.3452 -0.4262
C8A C 0.1619(3) 0.5449(3) -0.4426(3)
H10A H 0.0782 0.5629 -0.4710
C9A C 0.2315(3) 0.6504(3) -0.4288(2)
H11A H 0.1949 0.7381 -0.4509
C10A C 0.3510(2) 0.6298(2) -0.3842(2)
H12A H 0.3971 0.7007 -0.3735
C11A C 0.4012(2) 0.4992(2) -0.3556(2)
C12A C 0.8739(2) 1.5580(3) 0.0112(2)
H13A H 0.7870 1.5970 0.0190
C13A C 0.9813(2) 1.6323(2) -0.0742(2)
C14A C 1.1071(3) 1.5726(3) -0.0851(3)
H14A H 1.1811 1.6219 -0.1438
C15A C 0.9600(3) 1.7753(3) -0.1541(3)
H15A H 0.8765 1.8109 -0.1137
H16A H 0.9495 1.7770 -0.2413
C16A C 1.1561(2) 1.9267(2) -0.2733(2)
H17A H 1.1435 1.9296 -0.3566
C17A C 1.2381(3) 1.9578(2) -0.1183(2)
C18A C 1.3144(3) 1.9943(3) -0.0425(3)
H18A H 1.3928 2.0482 -0.0794
C19A C 1.2702(3) 1.9479(3) 0.0896(3)
H19A H 1.3198 1.9706 0.1444
C20A C 1.1549(3) 1.8688(3) 0.1447(3)
H20A H 1.1283 1.8397 0.2358
C21A C 1.0783(3) 1.8316(3) 0.0706(3)
H21A H 0.9998 1.7778 0.1077
C22A C 1.1236(3) 1.8780(2) -0.0621(2)
O2 O 0.9904(2) 0.8310(2) 0.4566(2)
H2 H 0.925(4) 0.872(3) 0.492(3)
H3 H 1.045(4) 0.882(3) 0.446(3)
loop_
_geom_bond_atom_site_label_1
_geom_bond_atom_site_label_2
_geom_bond_site_symmetry_1
_geom_bond_site_symmetry_2
Co1 O1 1_555 1_555
P1 H1 1_555 1_555
O1 P1 1_555 1_555
O2 H2 1_555 1_555
H3 O2 1_555 1_555
O3 P1 1_555 1_555
O4 P1 1_555 1_555
N1 C4 1_555 1_555
N2 Co1 1_555 1_555
N3 C15 1_555 1_555
N4 Co1 1_555 1_555
C1 H4 1_555 1_555
C2 C1 1_555 1_555
C3 C2 1_555 1_555
H5 C3 1_555 1_555
C4 C2 1_555 1_555
H6 C4 1_555 1_555
H7 C4 1_555 1_555
C5 N1 1_555 1_555
H8 C5 1_555 1_555
C6 N2 1_555 1_555
C7 C6 1_555 1_555
H9 C7 1_555 1_555
C8 C7 1_555 1_555
H10 C8 1_555 1_555
C9 C8 1_555 1_555
H11 C9 1_555 1_555
C10 C9 1_555 1_555
H12 C10 1_555 1_555
C11 N1 1_555 1_555
C12 H13 1_555 1_555
C13 C12 1_555 1_555
C14 C13 1_555 1_555
H14 C14 1_555 1_555
C15 C13 1_555 1_555
H15 C15 1_555 1_555
H16 C15 1_555 1_555
C16 N3 1_555 1_555
H17 C16 1_555 1_555
C17 N4 1_555 1_555
C18 C17 1_555 1_555
H18 C18 1_555 1_555
C19 C18 1_555 1_555
H19 C19 1_555 1_555
C20 C19 1_555 1_555
H20 C20 1_555 1_555
C21 C20 1_555 1_555
H21 C21 1_555 1_555
C22 N3 1_555 1_555
Co1A O4 1_555 1_555
Co1A_2 N2A 1_555 1_555
Co1A_3 N4A 1_555 1_555
P1A H1A 1_555 1_555
O1A Co1A 1_555 1_555
O3A P1A 1_555 1_555
O4A Co1 1_555 1_555
N1A C4A 1_555 1_555
N2A C5A 1_555 1_555
N2A_2 Co1A 1_555 1_555
N3A C15A 1_555 1_555
N4A C16A 1_555 1_555
N4A_2 Co1A 1_555 1_555
C1A C3 1_555 1_555
H4A C1A 1_555 1_555
C2A C1A 1_555 1_555
C3A C1 1_555 1_555
H5A C3A 1_555 1_555
C4A C2A 1_555 1_555
H6A C4A 1_555 1_555
H7A C4A 1_555 1_555
C5A N1A 1_555 1_555
H8A C5A 1_555 1_555
C6A N2A 1_555 1_555
C7A C6A 1_555 1_555
H9A C7A 1_555 1_555
C8A C7A 1_555 1_555
H10A C8A 1_555 1_555
C9A C8A 1_555 1_555
H11A C9A 1_555 1_555
C10A C9A 1_555 1_555
H12A C10A 1_555 1_555
C11A N1A 1_555 1_555
C12A C14 1_555 1_555
H13A C12A 1_555 1_555
C13A C12A 1_555 1_555
C14A C12 1_555 1_555
H14A C14A 1_555 1_555
C15A C13A 1_555 1_555
H15A C15A 1_555 1_555
H16A C15A 1_555 1_555
C16A N3A 1_555 1_555
H17A C16A 1_555 1_555
C17A N4A 1_555 1_555
C18A C17A 1_555 1_555
H18A C18A 1_555 1_555
C19A C18A 1_555 1_555
H19A C19A 1_555 1_555
C20A C19A 1_555 1_555
H20A C20A 1_555 1_555
C21A C20A 1_555 1_555
H21A C21A 1_555 1_555
C22A N3A 1_555 1_555
N2 C5 1_555 1_555
N4 C16 1_555 1_555
C6 C11 1_555 1_555
C10 C11 1_555 1_555
C17 C22 1_555 1_555
C21 C22 1_555 1_555
P1A O1A 1_555 1_555
P1A O4A 1_555 1_555
C2A C3A 1_555 1_555
C6A C11A 1_555 1_555
C10A C11A 1_555 1_555
C13A C14A 1_555 1_555
C17A C22A 1_555 1_555
C21A C22A 1_555 1_555

#END
