
#######################################################################
#
#                 Cambridge Crystallographic Data Centre
#                                CCDC 
#
#######################################################################
#
# If this CIF has been generated from an entry in the Cambridge 
# Structural Database, then it will include bibliographic, chemical, 
# crystal, experimental, refinement or atomic coordinate data resulting 
# from the CCDC's data processing and validation procedures.
#
#######################################################################

data_YECRIJ
_symmetry_cell_setting           monoclinic
_symmetry_space_group_name_H-M   'P 2/c'
_symmetry_Int_Tables_number      13
_space_group_name_Hall           '-P 2yc'
loop_
_symmetry_equiv_pos_site_id
_symmetry_equiv_pos_as_xyz
1 x,y,z
2 -x,y,1/2-z
3 -x,-y,-z
4 x,-y,1/2+z
_cell_length_a                   9.318(5)
_cell_length_b                   10.767(5)
_cell_length_c                   19.004(5)
_cell_angle_alpha                90
_cell_angle_beta                 96.258(5)
_cell_angle_gamma                90
_cell_volume                     1895.25
loop_
_atom_site_label
_atom_site_type_symbol
_atom_site_fract_x
_atom_site_fract_y
_atom_site_fract_z
Cd1 Cd 0.13525(5) 0.32031(4) 0.67782(2)
C1 C -0.2035(7) 0.4531(5) 0.6877(3)
C2 C -0.2909(6) 0.5228(5) 0.6294(3)
C3 C -0.2387(6) 0.5405(5) 0.5651(3)
H1 H -0.1484 0.5091 0.5581
C4 C -0.3179(6) 0.6040(5) 0.5109(3)
C5 C -0.4518(7) 0.6497(5) 0.5218(3)
H2 H -0.5050 0.6940 0.4860
C6 C -0.5078(7) 0.6309(6) 0.5847(4)
H3 H -0.5992 0.6605 0.5912
C7 C -0.4266(7) 0.5672(6) 0.6383(3)
H4 H -0.4641 0.5541 0.6811
C8 C -0.2594(8) 0.6291(6) 0.4419(3)
C9 C -0.0634(7) 0.0917(7) 0.5991(3)
C10 C -0.1675(7) 0.1568(6) 0.5534(3)
H5 H -0.1764 0.2428 0.5554
C11 C -0.2536(8) 0.0873(7) 0.5067(3)
H6 H -0.3244 0.1265 0.4762
C12 C -0.2393(9) -0.0385(8) 0.5031(4)
H7 H -0.3010 -0.0812 0.4697
C13 C -0.1414(9) -0.1050(7) 0.5449(4)
H8 H -0.1334 -0.1908 0.5414
C14 C -0.0563(8) -0.0371(6) 0.5919(4)
C15 C 0.1089(7) 0.0298(6) 0.6775(3)
C16 C 0.2267(7) 0.0431(6) 0.7369(3)
C17 C 0.2835(8) -0.0568(7) 0.7733(4)
H9 H 0.2507 -0.1370 0.7629
C18 C 0.3981(9) -0.0318(10) 0.8295(4)
H10 H 0.4390 -0.0960 0.8576
C19 C 0.4446(8) 0.0864(9) 0.8402(4)
H11 H 0.5220 0.1048 0.8737
C20 C 0.3748(7) 0.1776(8) 0.8003(3)
H12 H 0.4033 0.2592 0.8100
C21 C 0.1183(11) -0.2031(10) 0.6477(5)
H13 H 0.1185 -0.2344 0.5999
H14 H 0.2179 -0.1996 0.6688
C22 C 0.0415(14) -0.2898(10) 0.6874(5)
H15 H 0.1025 -0.3601 0.7021
H16 H -0.0438 -0.3200 0.6586
N1 N 0.0385(6) 0.1295(5) 0.6517(3)
N2 N 0.0584(7) -0.0733(5) 0.6440(3)
N3 N 0.2681(6) 0.1588(5) 0.7483(3)
O1 O -0.1002(5) 0.3896(4) 0.6743(2)
O2 O -0.2452(5) 0.4599(4) 0.7493(2)
O3 O -0.1435(5) 0.5789(5) 0.4302(2)
O4 O -0.3258(5) 0.6995(4) 0.3981(2)
O5 O 0.0000 -0.2224(8) 0.7500
Cd1A Cd -0.13525(5) 0.32031(4) 0.82218(2)
Cd1B Cd -0.13525(5) 0.67969(4) 0.32218(2)
Cd1C Cd 0.13525(5) 0.67969(4) 1.17782(2)
C1A C 0.2035(7) 0.4531(5) 0.8123(3)
C2A C 0.2909(6) 0.5228(5) 0.8706(3)
C3A C 0.2387(6) 0.5405(5) 0.9349(3)
H1A H 0.1484 0.5091 0.9419
C4A C 0.3179(6) 0.6040(5) 0.9891(3)
C5A C 0.4518(7) 0.6497(5) 0.9782(3)
H2A H 0.5050 0.6940 1.0140
C6A C 0.5078(7) 0.6309(6) 0.9153(4)
H3A H 0.5992 0.6605 0.9088
C7A C 0.4266(7) 0.5672(6) 0.8617(3)
H4A H 0.4641 0.5541 0.8189
C8A C 0.2594(8) 0.6291(6) 1.0581(3)
C9A C 0.0634(7) 0.0917(7) 0.9009(3)
C10A C 0.1675(7) 0.1568(6) 0.9466(3)
H5A H 0.1764 0.2428 0.9446
C11A C 0.2536(8) 0.0873(7) 0.9933(3)
H6A H 0.3244 0.1265 1.0238
C12A C 0.2393(9) -0.0385(8) 0.9969(4)
H7A H 0.3010 -0.0812 1.0303
C13A C 0.1414(9) -0.1050(7) 0.9551(4)
H8A H 0.1334 -0.1908 0.9586
C14A C 0.0563(8) -0.0371(6) 0.9081(4)
C15A C -0.1089(7) 0.0298(6) 0.8225(3)
C16A C -0.2267(7) 0.0431(6) 0.7631(3)
C17A C -0.2835(8) -0.0568(7) 0.7267(4)
H9A H -0.2507 -0.1370 0.7371
C18A C -0.3981(9) -0.0318(10) 0.6705(4)
H10A H -0.4390 -0.0960 0.6424
C19A C -0.4446(8) 0.0864(9) 0.6598(4)
H11A H -0.5220 0.1048 0.6263
C20A C -0.3748(7) 0.1776(8) 0.6997(3)
H12A H -0.4033 0.2592 0.6900
C21A C -0.1183(11) -0.2031(10) 0.8523(5)
H13A H -0.1185 -0.2344 0.9001
H14A H -0.2179 -0.1996 0.8312
C22A C -0.0415(14) -0.2898(10) 0.8126(5)
H15A H -0.1025 -0.3601 0.7979
H16A H 0.0438 -0.3200 0.8414
N1A N -0.0385(6) 0.1295(5) 0.8483(3)
N2A N -0.0584(7) -0.0733(5) 0.8560(3)
N3A N -0.2681(6) 0.1588(5) 0.7517(3)
O1A O 0.1002(5) 0.3896(4) 0.8257(2)
O2A O 0.2452(5) 0.4599(4) 0.7507(2)
O3A O 0.1435(5) 0.5789(5) 1.0698(2)
O3B O 0.1435(5) 0.4211(5) 0.5698(2)
O3C O -0.1435(5) 0.4211(5) 0.9302(2)
O4A O 0.3258(5) 0.6995(4) 1.1019(2)
O4B O 0.3258(5) 0.3005(4) 0.6019(2)
O4C O -0.3258(5) 0.3005(4) 0.8981(2)
loop_
_geom_bond_atom_site_label_1
_geom_bond_atom_site_label_2
_geom_bond_site_symmetry_1
_geom_bond_site_symmetry_2
Cd1 N1 1_555 1_555
C1 C2 1_555 1_555
C2 C3 1_555 1_555
C3 H1 1_555 1_555
C4 C3 1_555 1_555
C5 C4 1_555 1_555
H2 C5 1_555 1_555
C6 C5 1_555 1_555
H3 C6 1_555 1_555
C7 C2 1_555 1_555
H4 C7 1_555 1_555
C8 C4 1_555 1_555
C9 C10 1_555 1_555
C10 H5 1_555 1_555
C11 C10 1_555 1_555
H6 C11 1_555 1_555
C12 C11 1_555 1_555
H7 C12 1_555 1_555
C13 C12 1_555 1_555
H8 C13 1_555 1_555
C14 C9 1_555 1_555
C15 C16 1_555 1_555
C16 C17 1_555 1_555
C17 H9 1_555 1_555
C18 C17 1_555 1_555
H10 C18 1_555 1_555
C19 C18 1_555 1_555
H11 C19 1_555 1_555
C20 C19 1_555 1_555
H12 C20 1_555 1_555
C21 H13 1_555 1_555
H14 C21 1_555 1_555
C22 C21 1_555 1_555
H15 C22 1_555 1_555
H16 C22 1_555 1_555
N1 C9 1_555 1_555
N2 C14 1_555 1_555
N3 Cd1 1_555 1_555
O1 Cd1 1_555 1_555
O2 C1 1_555 1_555
O3 C8 1_555 1_555
O4 C8 1_555 1_555
O5 C22 1_555 1_555
Cd1A O2 1_555 1_555
Cd1B O3 1_555 1_555
Cd1C O3A 1_555 1_555
C1A C2A 1_555 1_555
C2A C3A 1_555 1_555
C3A H1A 1_555 1_555
C4A C3A 1_555 1_555
C5A C4A 1_555 1_555
H2A C5A 1_555 1_555
C6A C5A 1_555 1_555
H3A C6A 1_555 1_555
C7A C2A 1_555 1_555
H4A C7A 1_555 1_555
C8A C4A 1_555 1_555
C9A C10A 1_555 1_555
C10A H5A 1_555 1_555
C11A C10A 1_555 1_555
H6A C11A 1_555 1_555
C12A C11A 1_555 1_555
H7A C12A 1_555 1_555
C13A C12A 1_555 1_555
H8A C13A 1_555 1_555
C14A C9A 1_555 1_555
C15A C16A 1_555 1_555
C16A C17A 1_555 1_555
C17A H9A 1_555 1_555
C18A C17A 1_555 1_555
H10A C18A 1_555 1_555
C19A C18A 1_555 1_555
H11A C19A 1_555 1_555
C20A C19A 1_555 1_555
H12A C20A 1_555 1_555
C21A H13A 1_555 1_555
H14A C21A 1_555 1_555
C22A O5 1_555 1_555
H15A C22A 1_555 1_555
H16A C22A 1_555 1_555
N1A Cd1A 1_555 1_555
N2A C14A 1_555 1_555
N3A Cd1A 1_555 1_555
O1A Cd1A 1_555 1_555
O2A Cd1 1_555 1_555
O3A C8A 1_555 1_555
O3B Cd1 1_555 1_555
O3C Cd1A 1_555 1_555
O4A Cd1C 1_555 1_555
O4B Cd1 1_555 1_555
O4C Cd1A 1_555 1_555
C1 O1 1_555 1_555
C6 C7 1_555 1_555
C13 C14 1_555 1_555
C15 N1 1_555 1_555
C15 N2 1_555 1_555
C16 N3 1_555 1_555
C20 N3 1_555 1_555
C21 N2 1_555 1_555
O4 Cd1B 1_555 1_555
C1A O1A 1_555 1_555
C1A O2A 1_555 1_555
C6A C7A 1_555 1_555
C8A O4A 1_555 1_555
C9A N1A 1_555 1_555
C13A C14A 1_555 1_555
C15A N1A 1_555 1_555
C15A N2A 1_555 1_555
C16A N3A 1_555 1_555
C20A N3A 1_555 1_555
C21A C22A 1_555 1_555
C21A N2A 1_555 1_555

#END
