
#######################################################################
#
#                 Cambridge Crystallographic Data Centre
#                                CCDC 
#
#######################################################################
#
# If this CIF has been generated from an entry in the Cambridge 
# Structural Database, then it will include bibliographic, chemical, 
# crystal, experimental, refinement or atomic coordinate data resulting 
# from the CCDC's data processing and validation procedures.
#
#######################################################################

data_YECREE
_symmetry_cell_setting           monoclinic
_symmetry_space_group_name_H-M   'C 2/c'
_symmetry_Int_Tables_number      15
_space_group_name_Hall           '-C 2yn'
loop_
_symmetry_equiv_pos_site_id
_symmetry_equiv_pos_as_xyz
1 x,y,z
2 1/2+x,1/2+y,z
3 -x,y,1/2-z
4 1/2-x,1/2+y,1/2-z
5 -x,-y,-z
6 1/2-x,1/2-y,-z
7 x,-y,1/2+z
8 1/2+x,1/2-y,1/2+z
_cell_length_a                   23.535(5)
_cell_length_b                   9.1145(11)
_cell_length_c                   9.8127(19)
_cell_angle_alpha                90
_cell_angle_beta                 91.56(3)
_cell_angle_gamma                90
_cell_volume                     2104.14
loop_
_atom_site_label
_atom_site_type_symbol
_atom_site_fract_x
_atom_site_fract_y
_atom_site_fract_z
Co1 Co 0.26647(3) 0.05883(7) 0.92145(7)
P1 P 0.19522(6) 0.31432(14) 0.79726(14)
H1 H 0.1549 0.2186 0.7862
O1 O 0.25149(16) 0.2315(4) 0.8097(4)
O2 O 0.19158(16) 0.4087(4) 0.6713(4)
O3 O 0.18229(16) 0.3966(4) 0.9268(4)
N1 N 0.1908(2) -0.0281(5) 0.9727(5)
N2 N 0.12131(19) -0.1889(4) 0.9779(4)
C1 C 0.1740(2) -0.1606(6) 0.9326(6)
H2 H 0.1958 -0.2261 0.8798
C2 C 0.1472(2) 0.0298(6) 1.0464(5)
H3 H 0.1473 0.1237 1.0883
C3 C 0.1044(2) -0.0681(5) 1.0496(6)
H4 H 0.0692 -0.0558 1.0932
C4 C 0.0921(2) -0.3287(5) 0.9572(6)
H5 H 0.0762 -0.3602 1.0450
H6 H 0.1203 -0.4033 0.9306
C5 C 0.0446(2) -0.3253(5) 0.8505(6)
C6 C 0.0223(2) -0.1972(6) 0.7995(6)
H7 H 0.0400 -0.1006 0.8313
C7 C 0.0219(2) -0.4614(5) 0.8016(5)
C8 C 0.0428(2) -0.5980(6) 0.8517(5)
H8 H 0.0740 -0.5959 0.9211
C9 C 0.0208(2) -0.7280(6) 0.8014(6)
H9 H 0.0343 -0.8152 0.8340
Co1C Co 0.23353(3) -0.44117(7) 0.57855(7)
Co1C_2 Co 0.23353(3) 0.55883(7) 0.57855(7)
Co1E Co 0.23353(3) 0.44117(7) 1.07855(7)
Co1B Co -0.26647(3) 0.05883(7) 0.57855(7)
Co1F Co 0.26647(3) -0.05883(7) 0.42145(7)
P1C P 0.30478(6) -0.18568(14) 0.70274(14)
H1C H 0.3451 -0.2814 0.7138
O1C O 0.24851(16) -0.2685(4) 0.6903(4)
O2C O 0.30842(16) -0.0913(4) 0.8287(4)
O2_2 O 0.19158(16) -0.5913(4) 0.6713(4)
O3C O 0.31771(16) -0.1034(4) 0.5732(4)
O3E O 0.31771(16) 0.1034(4) 1.0732(4)
O3F O 0.18229(16) -0.3966(4) 0.4268(4)
N1B N -0.1908(2) -0.0281(5) 0.5273(5)
N1C N 0.3092(2) -0.5281(5) 0.5273(5)
N2B N -0.12131(19) -0.1889(4) 0.5221(4)
C1B C -0.1740(2) -0.1606(6) 0.5674(6)
H2B H -0.1958 -0.2261 0.6202
C2B C -0.1472(2) 0.0298(6) 0.4536(5)
H3B H -0.1473 0.1237 0.4117
C3B C -0.1044(2) -0.0681(5) 0.4504(6)
H4B H -0.0692 -0.0558 0.4068
C4B C -0.0921(2) -0.3287(5) 0.5428(6)
H5B H -0.0762 -0.3602 0.4550
H6B H -0.1203 -0.4033 0.5694
C5B C -0.0446(2) -0.3253(5) 0.6495(6)
C6B C -0.0223(2) -0.1972(6) 0.7005(6)
H7B H -0.0400 -0.1006 0.6687
C7B C -0.0219(2) -0.4614(5) 0.6984(5)
C8B C -0.0428(2) -0.5980(6) 0.6483(5)
H8B H -0.0740 -0.5959 0.5789
C9B C -0.0208(2) -0.7280(6) 0.6986(6)
H9B H -0.0343 -0.8152 0.6660
loop_
_geom_bond_atom_site_label_1
_geom_bond_atom_site_label_2
_geom_bond_site_symmetry_1
_geom_bond_site_symmetry_2
Co1 O1 1_555 1_555
P1 H1 1_555 1_555
O1 P1 1_555 1_555
O2 P1 1_555 1_555
O3 P1 1_555 1_555
N1 Co1 1_555 1_555
N2 C1 1_555 1_555
C1 N1 1_555 1_555
H2 C1 1_555 1_555
C2 N1 1_555 1_555
H3 C2 1_555 1_555
C3 N2 1_555 1_555
H4 C3 1_555 1_555
C4 N2 1_555 1_555
H5 C4 1_555 1_555
H6 C4 1_555 1_555
C5 C4 1_555 1_555
C6 C5 1_555 1_555
H7 C6 1_555 1_555
C7 C5 1_555 1_555
C8 C7 1_555 1_555
H8 C8 1_555 1_555
C9 C8 1_555 1_555
H9 C9 1_555 1_555
Co1C O1C 1_555 1_555
Co1C_2 O2 1_555 1_555
Co1E O3 1_555 1_555
Co1B N1B 1_555 1_555
Co1F O3C 1_555 1_555
P1C H1C 1_555 1_555
O1C P1C 1_555 1_555
O2C Co1 1_555 1_555
O2_2 Co1C 1_555 1_555
O3C P1C 1_555 1_555
O3E Co1 1_555 1_555
O3F Co1C 1_555 1_555
N1B C1B 1_555 1_555
N1C Co1C 1_555 1_555
N2B C1B 1_555 1_555
C1B H2B 1_555 1_555
C2B N1B 1_555 1_555
H3B C2B 1_555 1_555
C3B N2B 1_555 1_555
H4B C3B 1_555 1_555
C4B N2B 1_555 1_555
H5B C4B 1_555 1_555
H6B C4B 1_555 1_555
C5B C4B 1_555 1_555
C6B C6 1_555 1_555
H7B C6B 1_555 1_555
C7B C7 1_555 1_555
C8B C7B 1_555 1_555
H8B C8B 1_555 1_555
C9B C9 1_555 1_555
H9B C9B 1_555 1_555
C2 C3 1_555 1_555
P1C O2C 1_555 1_555
C2B C3B 1_555 1_555
C5B C6B 1_555 1_555
C5B C7B 1_555 1_555
C8B C9B 1_555 1_555

#END
