
#######################################################################
#
#                 Cambridge Crystallographic Data Centre
#                                CCDC 
#
#######################################################################
#
# If this CIF has been generated from an entry in the Cambridge 
# Structural Database, then it will include bibliographic, chemical, 
# crystal, experimental, refinement or atomic coordinate data resulting 
# from the CCDC's data processing and validation procedures.
#
#######################################################################

data_YECRAA
_symmetry_cell_setting           monoclinic
_symmetry_space_group_name_H-M   'C 2/c'
_symmetry_Int_Tables_number      15
_space_group_name_Hall           '-C 2yn'
loop_
_symmetry_equiv_pos_site_id
_symmetry_equiv_pos_as_xyz
1 x,y,z
2 1/2+x,1/2+y,z
3 -x,y,1/2-z
4 1/2-x,1/2+y,1/2-z
5 -x,-y,-z
6 1/2-x,1/2-y,-z
7 x,-y,1/2+z
8 1/2+x,1/2-y,1/2+z
_cell_length_a                   24.250(3)
_cell_length_b                   9.3609(9)
_cell_length_c                   9.9408(9)
_cell_angle_alpha                90
_cell_angle_beta                 94.973(13)
_cell_angle_gamma                90
_cell_volume                     2248.09
loop_
_atom_site_label
_atom_site_type_symbol
_atom_site_fract_x
_atom_site_fract_y
_atom_site_fract_z
Co1 Co 0.264269(13) 0.06940(3) 0.38948(3)
P1 P 0.31056(2) -0.16578(7) 0.18732(6)
H1 H 0.3542(10) -0.229(3) 0.225(3)
O1 O 0.31123(7) -0.0324(2) 0.2736(2)
O2 O 0.26268(7) -0.2635(2) 0.21292(17)
O3 O 0.31499(7) -0.1336(2) 0.03886(17)
N1 N 0.19888(9) -0.0379(2) 0.4520(2)
N2 N 0.13370(8) -0.1976(2) 0.4740(2)
C1 C 0.18244(10) -0.1709(3) 0.4250(2)
H2 H 0.2026 -0.2383 0.3772
C2 C 0.15856(11) 0.0224(3) 0.5245(3)
H3 H 0.1592 0.1169 0.5595
C3 C 0.11812(11) -0.0749(3) 0.5375(3)
H4 H 0.0853 -0.0614 0.5818
C4 C 0.10481(11) -0.3357(3) 0.4686(3)
H5 H 0.1069 -0.3773 0.5605
H6 H 0.1238 -0.4018 0.4102
C5 C 0.04454(10) -0.3230(3) 0.4150(2)
C6 C 0.00458(11) -0.3208(3) 0.5044(3)
H7 H 0.0178(12) -0.332(3) 0.600(3)
C7 C 0.02896(10) -0.3184(3) 0.2726(3)
C8 C 0.06847(11) -0.3175(3) 0.1754(3)
H8 H 0.1066(13) -0.318(3) 0.196(3)
C9 C -0.05198(11) -0.3168(3) 0.4598(3)
H9 H -0.0745(11) -0.322(3) 0.513(3)
Co1C Co 0.235731(13) 0.56940(3) 0.11052(3)
Co1C_2 Co 0.235731(13) -0.43060(3) 0.11052(3)
Co1F Co 0.264269(13) -0.06940(3) -0.11052(3)
Co1B Co -0.264269(13) 0.06940(3) 0.11052(3)
Co1E Co 0.235731(13) 0.43060(3) 0.61052(3)
P1C P 0.18944(2) 0.33422(7) 0.31268(6)
H1C H 0.1458(10) 0.271(3) 0.275(3)
O1C O 0.18877(7) 0.4676(2) 0.2264(2)
O2C O 0.23732(7) 0.2365(2) 0.28708(17)
O2_2 O 0.26268(7) 0.7365(2) 0.21292(17)
O3C O 0.18501(7) 0.3664(2) 0.46114(17)
O3F O 0.31499(7) 0.1336(2) 0.53886(17)
O3E O 0.18501(7) 0.6336(2) -0.03886(17)
N1B N -0.19888(9) -0.0379(2) 0.0480(2)
N1C N 0.30112(9) 0.4621(2) 0.0480(2)
N2B N -0.13370(8) -0.1976(2) 0.0260(2)
C1B C -0.18244(10) -0.1709(3) 0.0750(2)
H2B H -0.2026 -0.2383 0.1228
C2B C -0.15856(11) 0.0224(3) -0.0245(3)
H3B H -0.1592 0.1169 -0.0595
C3B C -0.11812(11) -0.0749(3) -0.0375(3)
H4B H -0.0853 -0.0614 -0.0818
C4B C -0.10481(11) -0.3357(3) 0.0314(3)
H5B H -0.1069 -0.3773 -0.0605
H6B H -0.1238 -0.4018 0.0898
C5B C -0.04454(10) -0.3230(3) 0.0850(2)
C6B C -0.00458(11) -0.3208(3) -0.0044(3)
H7B H -0.0178(12) -0.332(3) -0.100(3)
C7B C -0.02896(10) -0.3184(3) 0.2274(3)
C8B C -0.06847(11) -0.3175(3) 0.3246(3)
H8B H -0.1066(13) -0.318(3) 0.304(3)
C9B C 0.05198(11) -0.3168(3) 0.0402(3)
H9B H 0.0745(11) -0.322(3) -0.013(3)
loop_
_geom_bond_atom_site_label_1
_geom_bond_atom_site_label_2
_geom_bond_site_symmetry_1
_geom_bond_site_symmetry_2
Co1 O1 1_555 1_555
P1 H1 1_555 1_555
O1 P1 1_555 1_555
O2 P1 1_555 1_555
O3 P1 1_555 1_555
N1 Co1 1_555 1_555
N2 C1 1_555 1_555
C1 N1 1_555 1_555
H2 C1 1_555 1_555
C2 N1 1_555 1_555
H3 C2 1_555 1_555
C3 N2 1_555 1_555
H4 C3 1_555 1_555
C4 N2 1_555 1_555
H5 C4 1_555 1_555
H6 C4 1_555 1_555
C5 C4 1_555 1_555
C6 C5 1_555 1_555
H7 C6 1_555 1_555
C7 C5 1_555 1_555
C8 C7 1_555 1_555
H8 C8 1_555 1_555
C9 C6 1_555 1_555
H9 C9 1_555 1_555
Co1C O1C 1_555 1_555
Co1C_2 O2 1_555 1_555
Co1F O3 1_555 1_555
Co1B N1B 1_555 1_555
Co1E O3C 1_555 1_555
P1C H1C 1_555 1_555
O1C P1C 1_555 1_555
O2C Co1 1_555 1_555
O2_2 Co1C 1_555 1_555
O3C P1C 1_555 1_555
O3F Co1 1_555 1_555
O3E Co1C 1_555 1_555
N1B C1B 1_555 1_555
N1C Co1C 1_555 1_555
N2B C1B 1_555 1_555
C1B H2B 1_555 1_555
C2B N1B 1_555 1_555
H3B C2B 1_555 1_555
C3B N2B 1_555 1_555
H4B C3B 1_555 1_555
C4B N2B 1_555 1_555
H5B C4B 1_555 1_555
H6B C4B 1_555 1_555
C5B C4B 1_555 1_555
C6B C5B 1_555 1_555
H7B C6B 1_555 1_555
C7B C7 1_555 1_555
C8B C9 1_555 1_555
H8B C8B 1_555 1_555
C9B C8 1_555 1_555
H9B C9B 1_555 1_555
C2 C3 1_555 1_555
P1C O2C 1_555 1_555
C2B C3B 1_555 1_555
C5B C7B 1_555 1_555
C6B C9B 1_555 1_555
C7B C8B 1_555 1_555

#END
