
#######################################################################
#
#                 Cambridge Crystallographic Data Centre
#                                CCDC 
#
#######################################################################
#
# If this CIF has been generated from an entry in the Cambridge 
# Structural Database, then it will include bibliographic, chemical, 
# crystal, experimental, refinement or atomic coordinate data resulting 
# from the CCDC's data processing and validation procedures.
#
#######################################################################

data_YECTUW
_symmetry_cell_setting           orthorhombic
_symmetry_space_group_name_H-M   'P 21 21 21'
_symmetry_Int_Tables_number      19
_space_group_name_Hall           'P 2ac 2ab'
loop_
_symmetry_equiv_pos_site_id
_symmetry_equiv_pos_as_xyz
1 x,y,z
2 1/2-x,-y,1/2+z
3 -x,1/2+y,1/2-z
4 1/2+x,1/2-y,-z
_cell_length_a                   23.500(5)
_cell_length_b                   23.828(5)
_cell_length_c                   26.897(5)
_cell_angle_alpha                90
_cell_angle_beta                 90
_cell_angle_gamma                90
_cell_volume                     15061.2
loop_
_atom_site_label
_atom_site_type_symbol
_atom_site_fract_x
_atom_site_fract_y
_atom_site_fract_z
Ag1 Ag 0.20300(3) 1.36828(3) -0.53096(3)
N1 N 0.2537(4) 1.3884(3) -0.5960(3)
C9 C 0.2345(4) 1.4271(5) -0.6295(4)
H1 H 0.1998 1.4464 -0.6236
C10 C 0.2667(4) 1.4383(4) -0.6732(4)
H2 H 0.2533 1.4654 -0.6962
C11 C 0.3166(4) 1.4106(4) -0.6826(3)
C12 C 0.3348(4) 1.3713(4) -0.6476(3)
H3 H 0.3688 1.3507 -0.6532
C13 C 0.3036(5) 1.3623(4) -0.6049(3)
H4 H 0.3178 1.3366 -0.5808
C14 C 0.3484(4) 1.4249(4) -0.7300(3)
O9 O 0.3349(3) 1.4657(3) -0.7552(2)
N2 N 0.3920(3) 1.3896(3) -0.7410(3)
H5 H 0.3989 1.3613 -0.7209
C15 C 0.4272(4) 1.3966(4) -0.7842(3)
C16 C 0.4259(4) 1.3538(4) -0.8196(3)
H6 H 0.4013 1.3225 -0.8152
C17 C 0.4600(4) 1.3573(4) -0.8604(3)
H7 H 0.4603 1.3274 -0.8838
C18 C 0.4943(4) 1.4041(4) -0.8683(3)
C19 C 0.5273(4) 1.4099(4) -0.9113(3)
H8 H 0.5257 1.3811 -0.9357
C20 C 0.5607(4) 1.4540(5) -0.9195(4)
H9 H 0.5837 1.4554 -0.9485
C21 C 0.5622(4) 1.4999(4) -0.8841(4)
H10 H 0.5849 1.5322 -0.8902
C22 C 0.5304(4) 1.4960(4) -0.8418(3)
H11 H 0.5314 1.5258 -0.8184
C23 C 0.4957(4) 1.4481(4) -0.8319(3)
C24 C 0.4608(4) 1.4430(4) -0.7880(3)
C25 C 0.4640(4) 1.4867(3) -0.7478(3)
C26 C 0.4897(4) 1.4731(4) -0.7006(3)
C27 C 0.5116(4) 1.4187(4) -0.6894(3)
H12 H 0.5104 1.3902 -0.7142
C28 C 0.5343(4) 1.4067(4) -0.6440(4)
H13 H 0.5481 1.3701 -0.6372
C29 C 0.5371(4) 1.4489(5) -0.6069(4)
H14 H 0.5528 1.4407 -0.5752
C30 C 0.5181(4) 1.4991(4) -0.6166(3)
H15 H 0.5215 1.5269 -0.5915
C31 C 0.4924(4) 1.5147(4) -0.6628(3)
C32 C 0.4721(4) 1.5688(4) -0.6731(3)
H16 H 0.4760 1.5976 -0.6489
C33 C 0.4472(4) 1.5801(4) -0.7169(3)
H17 H 0.4324 1.6165 -0.7229
C34 C 0.4429(4) 1.5392(3) -0.7536(3)
N3 N 0.4134(3) 1.5536(3) -0.7977(3)
H18 H 0.3852 1.5321 -0.8078
C35 C 0.4274(4) 1.5997(4) -0.8249(4)
O10 O 0.4699(3) 1.6287(3) -0.8153(2)
C36 C 0.3916(4) 1.6125(3) -0.8691(3)
C37 C 0.4175(4) 1.6422(4) -0.9091(4)
H19 H 0.4558 1.6548 -0.9073
C38 C 0.3844(5) 1.6520(4) -0.9506(4)
H20 H 0.4014 1.6720 -0.9773
C39 C 0.3065(4) 1.6105(4) -0.9174(4)
H21 H 0.2674 1.6008 -0.9197
C40 C 0.3359(4) 1.5976(4) -0.8731(4)
H22 H 0.3171 1.5788 -0.8466
N4 N 0.3308(3) 1.6358(3) -0.9563(3)
Ag1A Ag 0.29700(3) 1.63172(3) -1.03096(3)
N4A N 0.1692(3) 1.3642(3) -0.4563(3)
Ag2 Ag 0.12509(3) 1.06919(3) -0.26157(3)
N5 N 0.1139(4) 1.1389(3) -0.2102(3)
C41 C 0.0761(4) 1.1803(4) -0.2154(4)
H23 H 0.0550 1.1821 -0.2454
C42 C 0.0659(4) 1.2206(4) -0.1795(3)
H24 H 0.0376 1.2485 -0.1846
C43 C 0.0974(4) 1.2199(4) -0.1360(3)
C44 C 0.1371(4) 1.1768(4) -0.1306(3)
H25 H 0.1587 1.1750 -0.1008
C45 C 0.1464(4) 1.1358(4) -0.1673(4)
H26 H 0.1740 1.1071 -0.1629
C46 C 0.0904(5) 1.2623(4) -0.0952(3)
O11 O 0.1310(3) 1.2742(2) -0.0686(2)
N6 N 0.0383(3) 1.2830(3) -0.0904(2)
H27 H 0.0119 1.2691 -0.1100
C47 C 0.0214(4) 1.3252(3) -0.0569(3)
C48 C 0.0585(4) 1.3715(4) -0.0461(3)
H28 H 0.0963 1.3722 -0.0587
C49 C 0.0383(5) 1.4150(4) -0.0173(3)
H29 H 0.0631 1.4453 -0.0099
C50 C -0.0169(4) 1.4162(4) 0.0012(3)
C51 C -0.0379(5) 1.4622(4) 0.0282(3)
H30 H -0.0132 1.4929 0.0352
C52 C -0.0905(5) 1.4639(4) 0.0439(4)
H31 H -0.1035 1.4962 0.0613
C53 C -0.1285(4) 1.4191(4) 0.0357(3)
H32 H -0.1665 1.4213 0.0476
C54 C -0.1102(4) 1.3718(4) 0.0102(3)
H33 H -0.1354 1.3412 0.0049
C55 C -0.0538(4) 1.3695(3) -0.0077(3)
C56 C -0.0325(4) 1.3222(3) -0.0356(3)
C57 C -0.0675(4) 1.2702(3) -0.0402(3)
C58 C -0.0506(4) 1.2225(3) -0.0106(3)
C59 C -0.0008(4) 1.2199(4) 0.0178(3)
H34 H 0.0237 1.2516 0.0186
C60 C 0.0135(4) 1.1732(4) 0.0441(3)
H35 H 0.0487 1.1721 0.0615
C61 C -0.0231(5) 1.1270(4) 0.0459(3)
H36 H -0.0134 1.0950 0.0651
C62 C -0.0733(5) 1.1282(4) 0.0194(3)
H37 H -0.0983 1.0969 0.0204
C63 C -0.0874(4) 1.1754(3) -0.0088(3)
C64 C -0.1398(4) 1.1767(4) -0.0353(3)
H38 H -0.1653 1.1459 -0.0324
C65 C -0.1542(4) 1.2207(4) -0.0644(3)
H39 H -0.1885 1.2207 -0.0830
C66 C -0.1157(4) 1.2672(3) -0.0661(3)
N7 N -0.1315(3) 1.3138(3) -0.0980(3)
H40 H -0.1625 1.3332 -0.0912
C67 C -0.0997(4) 1.3282(4) -0.1381(3)
O12 O -0.0576(3) 1.3019(2) -0.1524(2)
C68 C -0.1171(4) 1.3805(3) -0.1632(3)
C69 C -0.1421(4) 1.4259(4) -0.1381(4)
H41 H -0.1538 1.4221 -0.1045
C70 C -0.1493(4) 1.4753(4) -0.1624(3)
H42 H -0.1658 1.5058 -0.1448
C71 C -0.1116(4) 1.4397(4) -0.2342(4)
H43 H -0.1018 1.4444 -0.2682
C72 C -0.1018(4) 1.3895(4) -0.2132(3)
H44 H -0.0847 1.3603 -0.2319
N8 N -0.1342(3) 1.4832(3) -0.2105(3)
O27 O 0.1736(3) 1.1174(3) -0.3347(2)
H151 H 0.1565 1.1493 -0.3338
H152 H 0.2102 1.1203 -0.3338
Ag2B Ag -0.12509(3) 1.56919(3) -0.23843(3)
N8B N 0.1342(3) 0.9832(3) -0.2895(3)
Ag3 Ag -0.11339(4) 1.37046(4) 0.12864(3)
O5 O -0.1546(4) 1.4539(4) 0.1560(3)
O6 O -0.2315(4) 1.4065(4) 0.1318(4)
C5 C -0.2062(7) 1.4484(6) 0.1492(5)
C6 C -0.2464(6) 1.4944(6) 0.1572(5)
F7 F -0.2189(7) 1.5354(6) 0.1884(6)
F8 F -0.2517(9) 1.5264(8) 0.1169(6)
F9 F -0.2985(6) 1.4894(5) 0.1747(6)
N9 N -0.0169(3) 1.3771(3) 0.1336(3)
C73 C 0.0055(4) 1.4189(4) 0.1609(4)
H45 H -0.0193 1.4411 0.1807
C74 C 0.0629(5) 1.4308(4) 0.1613(4)
H46 H 0.0776 1.4592 0.1826
C75 C 0.0987(4) 1.4008(4) 0.1303(3)
C76 C 0.0756(4) 1.3572(4) 0.1020(3)
H47 H 0.0991 1.3352 0.0808
C77 C 0.0184(4) 1.3468(4) 0.1056(3)
H48 H 0.0030 1.3163 0.0871
C78 C 0.1605(4) 1.4188(4) 0.1305(4)
O13 O 0.1789(3) 1.4463(3) 0.1645(3)
N10 N 0.1889(3) 1.4068(3) 0.0892(3)
H49 H 0.1728 1.3850 0.0669
C79 C 0.2453(4) 1.4282(3) 0.0798(3)
C80 C 0.2871(4) 1.4256(4) 0.1184(3)
H50 H 0.2782 1.4090 0.1495
C81 C 0.3392(4) 1.4471(4) 0.1097(4)
H51 H 0.3669 1.4447 0.1353
C82 C 0.3547(4) 1.4730(4) 0.0645(3)
C83 C 0.4082(4) 1.4950(4) 0.0544(4)
H52 H 0.4365 1.4928 0.0795
C84 C 0.4222(4) 1.5198(4) 0.0097(4)
H53 H 0.4590 1.5353 0.0048
C85 C 0.3813(4) 1.5221(3) -0.0288(3)
H54 H 0.3907 1.5388 -0.0599
C86 C 0.3287(4) 1.5005(3) -0.0212(3)
H55 H 0.3018 1.5023 -0.0475
C87 C 0.3122(4) 1.4753(3) 0.0240(3)
C88 C 0.2567(4) 1.4536(3) 0.0356(3)
C89 C 0.2116(4) 1.4651(3) -0.0032(3)
C90 C 0.1740(4) 1.5101(4) 0.0038(3)
C91 C 0.1709(4) 1.5405(4) 0.0486(4)
H56 H 0.1934 1.5291 0.0761
C92 C 0.1357(5) 1.5866(4) 0.0532(4)
H57 H 0.1353 1.6076 0.0832
C93 C 0.0998(4) 1.6027(4) 0.0123(4)
H58 H 0.0749 1.6339 0.0155
C94 C 0.1015(4) 1.5741(4) -0.0295(4)
H59 H 0.0769 1.5848 -0.0559
C95 C 0.1386(4) 1.5279(4) -0.0367(3)
C96 C 0.1404(4) 1.4971(4) -0.0815(3)
H60 H 0.1166 1.5082 -0.1083
C97 C 0.1752(4) 1.4519(4) -0.0875(3)
H61 H 0.1765 1.4323 -0.1183
C98 C 0.2095(4) 1.4347(4) -0.0465(3)
N11 N 0.2441(3) 1.3863(3) -0.0523(3)
H62 H 0.2414 1.3596 -0.0298
C99 C 0.2811(4) 1.3785(4) -0.0906(4)
O14 O 0.2938(3) 1.4168(3) -0.1198(2)
C100 C 0.3060(4) 1.3217(4) -0.0948(3)
C101 C 0.2755(4) 1.2729(4) -0.0813(3)
H63 H 0.2394 1.2754 -0.0655
C102 C 0.3005(4) 1.2199(4) -0.0919(3)
H64 H 0.2794 1.1868 -0.0850
C103 C 0.3821(4) 1.2618(4) -0.1219(3)
H65 H 0.4197 1.2582 -0.1343
C104 C 0.3595(4) 1.3158(4) -0.1155(3)
H66 H 0.3807 1.3479 -0.1253
N12 N 0.3526(4) 1.2150(3) -0.1112(3)
Ag3C Ag 0.38661(4) 1.12954(4) -0.12864(3)
N12C N -0.1474(4) 1.2850(3) 0.1112(3)
Ag4 Ag 0.17045(4) 1.18992(4) -0.54173(3)
O7 O 0.1645(5) 1.2835(4) -0.5844(4)
O8 O 0.1150(5) 1.3577(5) -0.5887(4)
C7 C 0.1280(6) 1.3118(5) -0.6018(5)
C8 C 0.0947(6) 1.2865(5) -0.6443(5)
F13 F 0.0935(5) 1.3192(4) -0.6837(4)
F14 F 0.0396(4) 1.2759(5) -0.6342(4)
F15 F 0.1146(5) 1.2389(3) -0.6618(3)
N13 N 0.2238(4) 1.2234(3) -0.4838(3)
C105 C 0.2090(5) 1.2194(5) -0.4358(4)
H67 H 0.1713 1.2087 -0.4272
C106 C 0.2488(5) 1.2309(4) -0.3980(4)
H68 H 0.2382 1.2266 -0.3642
C107 C 0.3018(4) 1.2481(4) -0.4095(4)
C108 C 0.3148(4) 1.2550(4) -0.4590(4)
H69 H 0.3509 1.2691 -0.4687
C109 C 0.2752(5) 1.2414(5) -0.4941(4)
H70 H 0.2856 1.2451 -0.5280
C110 C 0.3481(4) 1.2592(4) -0.3714(4)
O15 O 0.3879(3) 1.2896(3) -0.3830(2)
N14 N 0.3412(3) 1.2336(3) -0.3289(3)
H71 H 0.3098 1.2147 -0.3227
C111 C 0.3864(4) 1.2367(4) -0.2920(3)
C112 C 0.4209(4) 1.1878(4) -0.2869(4)
H72 H 0.4122 1.1544 -0.3046
C113 C 0.4664(4) 1.1904(4) -0.2558(3)
H73 H 0.4884 1.1574 -0.2509
C114 C 0.4822(4) 1.2382(4) -0.2315(3)
C115 C 0.5313(5) 1.2427(6) -0.2007(4)
H74 H 0.5548 1.2106 -0.1967
C116 C 0.5461(5) 1.2906(5) -0.1768(4)
H75 H 0.5799 1.2921 -0.1574
C117 C 0.5108(5) 1.3379(5) -0.1811(4)
H76 H 0.5205 1.3713 -0.1638
C118 C 0.4629(4) 1.3368(5) -0.2095(3)
H77 H 0.4399 1.3694 -0.2118
C119 C 0.4471(4) 1.2882(4) -0.2352(3)
C120 C 0.3974(4) 1.2854(4) -0.2671(3)
C121 C 0.3585(4) 1.3345(3) -0.2708(3)
C122 C 0.3035(4) 1.3359(4) -0.2478(3)
C123 C 0.2813(4) 1.2890(4) -0.2213(3)
H78 H 0.3034 1.2558 -0.2181
C124 C 0.2286(4) 1.2915(4) -0.2006(3)
H79 H 0.2130 1.2596 -0.1844
C125 C 0.1967(4) 1.3430(5) -0.2036(4)
H80 H 0.1605 1.3453 -0.1880
C126 C 0.2168(4) 1.3871(4) -0.2278(3)
H81 H 0.1949 1.4206 -0.2293
C127 C 0.2697(4) 1.3847(4) -0.2509(3)
C128 C 0.2917(4) 1.4324(4) -0.2767(3)
H82 H 0.2693 1.4655 -0.2783
C129 C 0.3436(4) 1.4320(4) -0.2990(3)
H83 H 0.3579 1.4643 -0.3154
C130 C 0.3766(4) 1.3804(4) -0.2970(3)
N15 N 0.4275(3) 1.3755(3) -0.3230(2)
H84 H 0.4311 1.3450 -0.3412
C131 C 0.4715(4) 1.4107(5) -0.3239(3)
O16 O 0.4757(3) 1.4545(3) -0.2980(3)
C132 C 0.5188(4) 1.3946(4) -0.3590(3)
C133 C 0.5092(4) 1.3596(5) -0.3990(4)
H85 H 0.4720 1.3459 -0.4056
C134 C 0.5542(5) 1.3443(5) -0.4296(4)
H86 H 0.5467 1.3222 -0.4582
C135 C 0.6156(5) 1.3935(4) -0.3842(4)
H87 H 0.6534 1.4062 -0.3788
C136 C 0.5742(5) 1.4134(4) -0.3521(4)
H88 H 0.5834 1.4391 -0.3263
N16 N 0.6077(4) 1.3599(4) -0.4200(3)
Ag4C Ag 0.67045(4) 1.31008(4) -0.45827(3)
N16C N 0.1077(4) 1.1401(4) -0.5800(3)
O1 O 0.0601(3) 1.2098(4) -0.4549(3)
O2 O 0.0238(3) 1.2305(3) -0.3794(3)
C1 C 0.0235(5) 1.2246(4) -0.4264(5)
C2 C -0.0341(6) 1.2404(5) -0.4497(4)
F1 F -0.0471(4) 1.2949(3) -0.4413(3)
F2 F -0.0774(3) 1.2101(4) -0.4316(3)
F3 F -0.0362(3) 1.2348(3) -0.4994(3)
O3 O -0.2790(4) 1.2816(4) -0.0652(4)
O4 O -0.2325(4) 1.3627(3) -0.0691(3)
C3 C -0.2677(6) 1.3334(6) -0.0551(5)
C4 C -0.3138(6) 1.3606(6) -0.0196(5)
F4 F -0.3520(3) 1.3246(4) -0.0009(3)
F5 F -0.2874(4) 1.3810(4) 0.0207(4)
F6 F -0.3419(4) 1.4000(4) -0.0421(4)
O17 O 0.2785(4) 1.1422(4) -0.2985(4)
H89 H 0.2977 1.1201 -0.3161
C137 C 0.2842(7) 1.1276(7) -0.2491(6)
H90 H 0.2957 1.1606 -0.2298
H91 H 0.3132 1.0983 -0.2458
H92 H 0.2477 1.1135 -0.2365
O18 O 0.1208(3) 1.2168(3) -0.3338(3)
H93 H 0.0887 1.2060 -0.3241
C138 C 0.1396(5) 1.2613(4) -0.3039(4)
H94 H 0.1409 1.2492 -0.2691
H95 H 0.1132 1.2930 -0.3072
H96 H 0.1777 1.2730 -0.3145
O19 O -0.0514(3) 1.2088(3) -0.3046(3)
H97 H -0.0315 1.1850 -0.2895
C139 C -0.0514(6) 1.2593(4) -0.2781(4)
H98 H -0.0130 1.2753 -0.2783
H99 H -0.0633 1.2522 -0.2438
H100 H -0.0779 1.2857 -0.2938
O20 O -0.151(2) 1.5909(14) 0.289(2)
C140 C -0.1147(15) 1.5475(19) 0.2866(18)
H101 H -0.0811 1.5552 0.3079
H102 H -0.1013 1.5435 0.2519
C141 C -0.1410(19) 1.4960(13) 0.3023(18)
H103 H -0.1179 1.4768 0.3279
H104 H -0.1469 1.4703 0.2739
C142 C -0.1952(17) 1.5155(16) 0.3227(19)
H105 H -0.2272 1.4966 0.3055
H106 H -0.1974 1.5065 0.3585
C143 C -0.1990(18) 1.5754(16) 0.3155(18)
H107 H -0.2336 1.5850 0.2964
H108 H -0.2004 1.5949 0.3479
O21 O 0.2826(7) 1.2986(7) -0.7640(6)
C144 C 0.2267(9) 1.3140(9) -0.7502(8)
H109 H 0.2237 1.3548 -0.7437
H110 H 0.2138 1.2930 -0.7205
C145 C 0.1942(8) 1.2974(11) -0.7953(9)
H111 H 0.1532 1.2922 -0.7880
H112 H 0.1987 1.3251 -0.8225
C146 C 0.2225(11) 1.2435(11) -0.8071(12)
H113 H 0.2174 1.2335 -0.8426
H114 H 0.2074 1.2127 -0.7862
C147 C 0.2838(9) 1.2546(10) -0.7956(9)
H115 H 0.3017 1.2215 -0.7797
H116 H 0.3052 1.2641 -0.8262
O22 O 0.3969(13) 1.1140(13) -0.4064(10)
C148 C 0.413(2) 1.0571(12) -0.4162(13)
H117 H 0.3809 1.0312 -0.4101
H118 H 0.4457 1.0458 -0.3952
C149 C 0.4293(13) 1.0576(10) -0.4703(10)
H119 H 0.4613 1.0316 -0.4772
H120 H 0.3967 1.0479 -0.4919
C150 C 0.4457(16) 1.1140(11) -0.4762(10)
H121 H 0.4213 1.1324 -0.5014
H122 H 0.4857 1.1161 -0.4876
C151 C 0.4400(13) 1.1417(9) -0.4297(10)
H123 H 0.4756 1.1391 -0.4103
H124 H 0.4302 1.1818 -0.4345
O23 O 0.2628(4) 1.1690(4) -0.5995(3)
C152 C 0.2603(7) 1.1967(7) -0.6451(5)
H125 H 0.2511 1.2369 -0.6401
H126 H 0.2305 1.1798 -0.6665
C153 C 0.3161(8) 1.1907(8) -0.6681(7)
H127 H 0.3378 1.2262 -0.6652
H128 H 0.3119 1.1816 -0.7039
C154 C 0.3459(6) 1.1455(6) -0.6425(5)
H129 H 0.3868 1.1545 -0.6384
H130 H 0.3422 1.1096 -0.6608
C155 C 0.3164(6) 1.1425(6) -0.5931(5)
H131 H 0.3112 1.1029 -0.5828
H132 H 0.3389 1.1621 -0.5673
O24 O 0.2009(4) 1.0722(4) -0.4226(3)
C156 C 0.2610(8) 1.0704(11) -0.4282(8)
H133 H 0.2784 1.0498 -0.4001
H134 H 0.2768 1.1089 -0.4287
C157 C 0.2734(8) 1.0420(13) -0.4747(9)
H135 H 0.2869 1.0033 -0.4685
H136 H 0.3029 1.0625 -0.4936
C158 C 0.2198(8) 1.0412(9) -0.5023(6)
H137 H 0.2139 1.0040 -0.5180
H138 H 0.2200 1.0702 -0.5286
C159 C 0.1746(5) 1.0526(6) -0.4661(5)
H139 H 0.1481 1.0813 -0.4792
H140 H 0.1528 1.0180 -0.4591
O25 O 0.1055(7) 1.5134(8) -0.6741(7)
C160 C 0.1001(8) 1.4583(8) -0.6952(8)
H141 H 0.1145 1.4290 -0.6724
H142 H 0.1203 1.4554 -0.7275
C161 C 0.0376(10) 1.4544(10) -0.7017(10)
H143 H 0.0277 1.4630 -0.7366
H144 H 0.0250 1.4156 -0.6945
C162 C 0.0078(9) 1.4934(17) -0.6688(19)
H145 H -0.0098 1.4733 -0.6405
H146 H -0.0221 1.5142 -0.6870
C163 C 0.0530(8) 1.5313(7) -0.6517(7)
H147 H 0.0442 1.5704 -0.6616
H148 H 0.0560 1.5299 -0.6150
O26 O -0.3189(3) 1.1881(3) -0.0189(2)
H149 H -0.3469 1.1681 -0.0189
H150 H -0.2909 1.1681 -0.0189
F10? F -0.2796(6) 1.4878(6) 0.1967(5)
F11? F -0.2305(7) 1.5461(6) 0.1542(7)
F12? F -0.2881(9) 1.4913(9) 0.1191(7)
loop_
_geom_bond_atom_site_label_1
_geom_bond_atom_site_label_2
_geom_bond_site_symmetry_1
_geom_bond_site_symmetry_2
Ag1 N1 1_555 1_555
Ag2 N5 1_555 1_555
Ag3 O5 1_555 1_555
Ag4 O7 1_555 1_555
O1 C1 1_555 1_555
O2 C1 1_555 1_555
C1 C2 1_555 1_555
C2 F1 1_555 1_555
F2 C2 1_555 1_555
F3 C2 1_555 1_555
O3 C3 1_555 1_555
O4 C3 1_555 1_555
C3 C4 1_555 1_555
C4 F4 1_555 1_555
F5 C4 1_555 1_555
F6 C4 1_555 1_555
O5 C5 1_555 1_555
O6 C5 1_555 1_555
C5 C6 1_555 1_555
C6 F7 1_555 1_555
F8 C6 1_555 1_555
F9 C6 1_555 1_555
O7 C7 1_555 1_555
O8 C7 1_555 1_555
C7 C8 1_555 1_555
C8 F13 1_555 1_555
F14 C8 1_555 1_555
F15 C8 1_555 1_555
N1 C9 1_555 1_555
C9 H1 1_555 1_555
C10 C9 1_555 1_555
H2 C10 1_555 1_555
C11 C10 1_555 1_555
C12 C11 1_555 1_555
H3 C12 1_555 1_555
C13 N1 1_555 1_555
H4 C13 1_555 1_555
C14 C11 1_555 1_555
O9 C14 1_555 1_555
N2 C14 1_555 1_555
H5 N2 1_555 1_555
C15 N2 1_555 1_555
C16 C15 1_555 1_555
H6 C16 1_555 1_555
C17 C16 1_555 1_555
H7 C17 1_555 1_555
C18 C17 1_555 1_555
C19 C18 1_555 1_555
H8 C19 1_555 1_555
C20 C19 1_555 1_555
H9 C20 1_555 1_555
C21 C20 1_555 1_555
H10 C21 1_555 1_555
C22 C21 1_555 1_555
H11 C22 1_555 1_555
C23 C18 1_555 1_555
C24 C15 1_555 1_555
C25 C24 1_555 1_555
C26 C25 1_555 1_555
C27 C26 1_555 1_555
H12 C27 1_555 1_555
C28 C27 1_555 1_555
H13 C28 1_555 1_555
C29 C28 1_555 1_555
H14 C29 1_555 1_555
C30 C29 1_555 1_555
H15 C30 1_555 1_555
C31 C26 1_555 1_555
C32 C31 1_555 1_555
H16 C32 1_555 1_555
C33 C32 1_555 1_555
H17 C33 1_555 1_555
C34 C25 1_555 1_555
N3 C34 1_555 1_555
H18 N3 1_555 1_555
C35 N3 1_555 1_555
O10 C35 1_555 1_555
C36 C35 1_555 1_555
C37 C36 1_555 1_555
H19 C37 1_555 1_555
C38 C37 1_555 1_555
H20 C38 1_555 1_555
C39 H21 1_555 1_555
C40 C36 1_555 1_555
H22 C40 1_555 1_555
N4 C38 1_555 1_555
N5 C41 1_555 1_555
C41 H23 1_555 1_555
C42 C41 1_555 1_555
H24 C42 1_555 1_555
C43 C42 1_555 1_555
C44 C43 1_555 1_555
H25 C44 1_555 1_555
C45 N5 1_555 1_555
H26 C45 1_555 1_555
C46 C43 1_555 1_555
O11 C46 1_555 1_555
N6 C46 1_555 1_555
H27 N6 1_555 1_555
C47 N6 1_555 1_555
C48 C47 1_555 1_555
H28 C48 1_555 1_555
C49 C48 1_555 1_555
H29 C49 1_555 1_555
C50 C49 1_555 1_555
C51 C50 1_555 1_555
H30 C51 1_555 1_555
C52 C51 1_555 1_555
H31 C52 1_555 1_555
C53 C52 1_555 1_555
H32 C53 1_555 1_555
C54 C53 1_555 1_555
H33 C54 1_555 1_555
C55 C50 1_555 1_555
C56 C47 1_555 1_555
C57 C56 1_555 1_555
C58 C57 1_555 1_555
C59 C58 1_555 1_555
H34 C59 1_555 1_555
C60 C59 1_555 1_555
H35 C60 1_555 1_555
C61 C60 1_555 1_555
H36 C61 1_555 1_555
C62 C61 1_555 1_555
H37 C62 1_555 1_555
C63 C58 1_555 1_555
C64 C63 1_555 1_555
H38 C64 1_555 1_555
C65 C64 1_555 1_555
H39 C65 1_555 1_555
C66 C57 1_555 1_555
N7 C66 1_555 1_555
H40 N7 1_555 1_555
C67 N7 1_555 1_555
O12 C67 1_555 1_555
C68 C67 1_555 1_555
C69 C68 1_555 1_555
H41 C69 1_555 1_555
C70 C69 1_555 1_555
H42 C70 1_555 1_555
C71 H43 1_555 1_555
C72 C68 1_555 1_555
H44 C72 1_555 1_555
N8 C70 1_555 1_555
N9 Ag3 1_555 1_555
C73 N9 1_555 1_555
H45 C73 1_555 1_555
C74 C73 1_555 1_555
H46 C74 1_555 1_555
C75 C74 1_555 1_555
C76 C75 1_555 1_555
H47 C76 1_555 1_555
C77 N9 1_555 1_555
H48 C77 1_555 1_555
C78 C75 1_555 1_555
O13 C78 1_555 1_555
N10 C78 1_555 1_555
H49 N10 1_555 1_555
C79 N10 1_555 1_555
C80 C79 1_555 1_555
H50 C80 1_555 1_555
C81 C80 1_555 1_555
H51 C81 1_555 1_555
C82 C81 1_555 1_555
C83 C82 1_555 1_555
H52 C83 1_555 1_555
C84 C83 1_555 1_555
H53 C84 1_555 1_555
C85 C84 1_555 1_555
H54 C85 1_555 1_555
C86 C85 1_555 1_555
H55 C86 1_555 1_555
C87 C82 1_555 1_555
C88 C79 1_555 1_555
C89 C88 1_555 1_555
C90 C89 1_555 1_555
C91 C90 1_555 1_555
H56 C91 1_555 1_555
C92 C91 1_555 1_555
H57 C92 1_555 1_555
C93 C92 1_555 1_555
H58 C93 1_555 1_555
C94 C93 1_555 1_555
H59 C94 1_555 1_555
C95 C90 1_555 1_555
C96 C95 1_555 1_555
H60 C96 1_555 1_555
C97 C96 1_555 1_555
H61 C97 1_555 1_555
C98 C89 1_555 1_555
N11 C98 1_555 1_555
H62 N11 1_555 1_555
C99 N11 1_555 1_555
O14 C99 1_555 1_555
C100 C99 1_555 1_555
C101 C100 1_555 1_555
H63 C101 1_555 1_555
C102 C101 1_555 1_555
H64 C102 1_555 1_555
C103 H65 1_555 1_555
C104 C100 1_555 1_555
H66 C104 1_555 1_555
N12 C102 1_555 1_555
N13 Ag4 1_555 1_555
C105 N13 1_555 1_555
H67 C105 1_555 1_555
C106 C105 1_555 1_555
H68 C106 1_555 1_555
C107 C106 1_555 1_555
C108 C107 1_555 1_555
H69 C108 1_555 1_555
C109 N13 1_555 1_555
H70 C109 1_555 1_555
C110 C107 1_555 1_555
O15 C110 1_555 1_555
N14 C110 1_555 1_555
H71 N14 1_555 1_555
C111 N14 1_555 1_555
C112 C111 1_555 1_555
H72 C112 1_555 1_555
C113 C112 1_555 1_555
H73 C113 1_555 1_555
C114 C113 1_555 1_555
C115 C114 1_555 1_555
H74 C115 1_555 1_555
C116 C115 1_555 1_555
H75 C116 1_555 1_555
C117 C116 1_555 1_555
H76 C117 1_555 1_555
C118 C117 1_555 1_555
H77 C118 1_555 1_555
C119 C114 1_555 1_555
C120 C111 1_555 1_555
C121 C120 1_555 1_555
C122 C121 1_555 1_555
C123 C122 1_555 1_555
H78 C123 1_555 1_555
C124 C123 1_555 1_555
H79 C124 1_555 1_555
C125 C124 1_555 1_555
H80 C125 1_555 1_555
C126 C125 1_555 1_555
H81 C126 1_555 1_555
C127 C122 1_555 1_555
C128 C127 1_555 1_555
H82 C128 1_555 1_555
C129 C128 1_555 1_555
H83 C129 1_555 1_555
C130 C121 1_555 1_555
N15 C130 1_555 1_555
H84 N15 1_555 1_555
C131 N15 1_555 1_555
O16 C131 1_555 1_555
C132 C131 1_555 1_555
C133 C132 1_555 1_555
H85 C133 1_555 1_555
C134 C133 1_555 1_555
H86 C134 1_555 1_555
C135 H87 1_555 1_555
C136 C132 1_555 1_555
H88 C136 1_555 1_555
N16 C134 1_555 1_555
O17 H89 1_555 1_555
C137 O17 1_555 1_555
H90 C137 1_555 1_555
H91 C137 1_555 1_555
H92 C137 1_555 1_555
O18 H93 1_555 1_555
C138 O18 1_555 1_555
H94 C138 1_555 1_555
H95 C138 1_555 1_555
H96 C138 1_555 1_555
O19 H97 1_555 1_555
C139 O19 1_555 1_555
H98 C139 1_555 1_555
H99 C139 1_555 1_555
H100 C139 1_555 1_555
O20 C140 1_555 1_555
C140 H101 1_555 1_555
H102 C140 1_555 1_555
C141 C140 1_555 1_555
H103 C141 1_555 1_555
H104 C141 1_555 1_555
C142 C141 1_555 1_555
H105 C142 1_555 1_555
H106 C142 1_555 1_555
C143 O20 1_555 1_555
H107 C143 1_555 1_555
H108 C143 1_555 1_555
O21 C144 1_555 1_555
C144 H109 1_555 1_555
H110 C144 1_555 1_555
C145 C144 1_555 1_555
H111 C145 1_555 1_555
H112 C145 1_555 1_555
C146 C145 1_555 1_555
H113 C146 1_555 1_555
H114 C146 1_555 1_555
C147 O21 1_555 1_555
H115 C147 1_555 1_555
H116 C147 1_555 1_555
O22 C148 1_555 1_555
C148 H117 1_555 1_555
H118 C148 1_555 1_555
C149 C148 1_555 1_555
H119 C149 1_555 1_555
H120 C149 1_555 1_555
C150 C149 1_555 1_555
H121 C150 1_555 1_555
H122 C150 1_555 1_555
C151 O22 1_555 1_555
H123 C151 1_555 1_555
H124 C151 1_555 1_555
O23 C152 1_555 1_555
C152 H125 1_555 1_555
H126 C152 1_555 1_555
C153 C152 1_555 1_555
H127 C153 1_555 1_555
H128 C153 1_555 1_555
C154 C153 1_555 1_555
H129 C154 1_555 1_555
H130 C154 1_555 1_555
C155 O23 1_555 1_555
H131 C155 1_555 1_555
H132 C155 1_555 1_555
O24 C156 1_555 1_555
C156 H133 1_555 1_555
H134 C156 1_555 1_555
C157 C156 1_555 1_555
H135 C157 1_555 1_555
H136 C157 1_555 1_555
C158 C157 1_555 1_555
H137 C158 1_555 1_555
H138 C158 1_555 1_555
C159 O24 1_555 1_555
H139 C159 1_555 1_555
H140 C159 1_555 1_555
O25 C160 1_555 1_555
C160 H141 1_555 1_555
H142 C160 1_555 1_555
C161 C160 1_555 1_555
H143 C161 1_555 1_555
H144 C161 1_555 1_555
C162 C161 1_555 1_555
H145 C162 1_555 1_555
H146 C162 1_555 1_555
C163 O25 1_555 1_555
H147 C163 1_555 1_555
H148 C163 1_555 1_555
O26 H149 1_555 1_555
H150 O26 1_555 1_555
O27 Ag2 1_555 1_555
H151 O27 1_555 1_555
H152 O27 1_555 1_555
Ag1A N4 1_555 1_555
Ag2B N8 1_555 1_555
Ag3C N12 1_555 1_555
Ag4C N16 1_555 1_555
N4A Ag1 1_555 1_555
N8B Ag2 1_555 1_555
N12C Ag3 1_555 1_555
N16C Ag4 1_555 1_555
C12 C13 1_555 1_555
C22 C23 1_555 1_555
C23 C24 1_555 1_555
C30 C31 1_555 1_555
C33 C34 1_555 1_555
C39 C40 1_555 1_555
C39 N4 1_555 1_555
C44 C45 1_555 1_555
C54 C55 1_555 1_555
C55 C56 1_555 1_555
C62 C63 1_555 1_555
C65 C66 1_555 1_555
C71 C72 1_555 1_555
C71 N8 1_555 1_555
C76 C77 1_555 1_555
C86 C87 1_555 1_555
C87 C88 1_555 1_555
C94 C95 1_555 1_555
C97 C98 1_555 1_555
C103 C104 1_555 1_555
C103 N12 1_555 1_555
C108 C109 1_555 1_555
C118 C119 1_555 1_555
C119 C120 1_555 1_555
C126 C127 1_555 1_555
C129 C130 1_555 1_555
C135 C136 1_555 1_555
C135 N16 1_555 1_555
C142 C143 1_555 1_555
C146 C147 1_555 1_555
C150 C151 1_555 1_555
C154 C155 1_555 1_555
C158 C159 1_555 1_555
C162 C163 1_555 1_555

#END
