
#######################################################################
#
#                 Cambridge Crystallographic Data Centre
#                                CCDC 
#
#######################################################################
#
# If this CIF has been generated from an entry in the Cambridge 
# Structural Database, then it will include bibliographic, chemical, 
# crystal, experimental, refinement or atomic coordinate data resulting 
# from the CCDC's data processing and validation procedures.
#
#######################################################################

data_YECTEG
_symmetry_cell_setting           monoclinic
_symmetry_space_group_name_H-M   'P 21/n'
_symmetry_Int_Tables_number      14
_space_group_name_Hall           '-P 2yn'
loop_
_symmetry_equiv_pos_site_id
_symmetry_equiv_pos_as_xyz
1 x,y,z
2 1/2-x,1/2+y,1/2-z
3 -x,-y,-z
4 1/2+x,1/2-y,1/2+z
_cell_length_a                   14.291(3)
_cell_length_b                   10.937(2)
_cell_length_c                   24.711(5)
_cell_angle_alpha                90
_cell_angle_beta                 92.77(3)
_cell_angle_gamma                90
_cell_volume                     3857.83
loop_
_atom_site_label
_atom_site_type_symbol
_atom_site_fract_x
_atom_site_fract_y
_atom_site_fract_z
Ag1 Ag 1.42951(5) 0.07969(7) 1.03202(3)
O1 O 1.4215(4) -0.1663(6) 1.0298(3)
O2 O 1.4399(5) -0.2880(7) 1.1026(3)
C1 C 1.3927(7) -0.2291(9) 1.0656(5)
C2 C 1.2885(10) -0.2318(12) 1.0705(5)
F1 F 1.2592(4) -0.3237(6) 1.1020(3)
F2 F 1.2438(7) -0.2472(12) 1.0209(4)
F3 F 1.2638(8) -0.1224(9) 1.0895(5)
N1 N 1.3270(5) 0.1088(6) 0.9656(3)
C4 C 1.3500(5) 0.1777(8) 0.9236(3)
H1 H 1.4106 0.2136 0.9244
C5 C 1.2900(6) 0.1993(8) 0.8792(3)
C6 C 1.2011(6) 0.1478(10) 0.8787(4)
H2 H 1.1576 0.1614 0.8491
C7 C 1.1767(6) 0.0753(11) 0.9227(4)
H3 H 1.1165 0.0386 0.9233
C8 C 1.2413(6) 0.0585(8) 0.9647(4)
H4 H 1.2248 0.0093 0.9944
C9 C 1.3144(6) 0.2782(8) 0.8328(4)
O3 O 1.2560(4) 0.3040(6) 0.7965(2)
N2 N 1.4043(5) 0.3150(6) 0.8315(3)
H5 H 1.4470 0.2792 0.8529
C10 C 1.4323(6) 0.4114(8) 0.7961(4)
C11 C 1.4243(7) 0.5307(10) 0.8155(4)
H6 H 1.3976 0.5451 0.8494
C12 C 1.4551(7) 0.6274(9) 0.7853(4)
H7 H 1.4520 0.7080 0.7994
C13 C 1.4905(6) 0.6093(8) 0.7348(4)
C14 C 1.5205(6) 0.7091(8) 0.7033(4)
H8 H 1.5170 0.7906 0.7164
C15 C 1.5551(6) 0.6850(10) 0.6529(4)
H9 H 1.5741 0.7510 0.6310
C16 C 1.5623(6) 0.5676(9) 0.6340(4)
H10 H 1.5887 0.5535 0.6000
C17 C 1.5325(6) 0.4713(9) 0.6631(4)
H11 H 1.5358 0.3909 0.6488
C18 C 1.4961(5) 0.4904(8) 0.7152(4)
C19 C 1.4665(5) 0.3877(8) 0.7468(4)
C20 C 1.4745(6) 0.2636(8) 0.7242(3)
C21 C 1.5604(6) 0.1957(8) 0.7318(4)
C22 C 1.6331(6) 0.2360(8) 0.7686(4)
H12 H 1.6257 0.3099 0.7881
C23 C 1.7133(6) 0.1701(10) 0.7762(5)
H13 H 1.7611 0.1963 0.8017
C24 C 1.7248(7) 0.0603(10) 0.7454(5)
H14 H 1.7813 0.0150 0.7503
C25 C 1.6582(6) 0.0200(9) 0.7100(4)
H15 H 1.6688 -0.0521 0.6897
C26 C 1.5719(6) 0.0833(8) 0.7021(4)
C27 C 1.4968(6) 0.0426(9) 0.6678(4)
H16 H 1.5039 -0.0305 0.6477
C28 C 1.4157(6) 0.1038(8) 0.6628(4)
H17 H 1.3663 0.0729 0.6396
C29 C 1.4028(6) 0.2134(8) 0.6913(3)
N3 N 1.3161(5) 0.2781(6) 0.6864(3)
H18 H 1.2940 0.3081 0.7162
C30 C 1.2654(6) 0.2969(8) 0.6399(4)
O4 O 1.2886(5) 0.2620(7) 0.5962(3)
C31 C 1.1752(6) 0.3665(8) 0.6457(4)
C32 C 1.1527(6) 0.4329(8) 0.6910(4)
H19 H 1.1952 0.4363 0.7218
C33 C 1.0682(6) 0.4943(8) 0.6912(4)
H20 H 1.0524 0.5416 0.7217
C34 C 1.0074(6) 0.4855(8) 0.6464(4)
H21 H 0.9484 0.5254 0.6470
C35 C 1.1112(5) 0.3645(8) 0.6019(3)
H22 H 1.1264 0.3201 0.5704
N4 N 1.0284(4) 0.4229(6) 0.6020(3)
Ag1C Ag 1.92951(5) 0.42031(7) 1.53202(3)
Ag1C_2 Ag 0.92951(5) 0.42031(7) 0.53202(3)
O1C O 1.9215(4) 0.6663(6) 1.5298(3)
O2C O 1.9399(5) 0.7880(7) 1.6026(3)
C1C C 1.8927(7) 0.7291(9) 1.5656(5)
C2C C 1.7885(10) 0.7318(12) 1.5705(5)
F1C F 1.7592(4) 0.8237(6) 1.6020(3)
F2C F 1.7438(7) 0.7472(12) 1.5209(4)
F3C F 1.7638(8) 0.6224(9) 1.5895(5)
N1C N 1.8270(5) 0.3912(6) 1.4656(3)
C4C C 1.8500(5) 0.3223(8) 1.4236(3)
H1C H 1.9106 0.2864 1.4244
C5C C 1.7900(6) 0.3007(8) 1.3792(3)
C6C C 1.7011(6) 0.3522(10) 1.3787(4)
H2C H 1.6576 0.3386 1.3491
C7C C 1.6767(6) 0.4247(11) 1.4227(4)
H3C H 1.6165 0.4614 1.4233
C8C C 1.7413(6) 0.4415(8) 1.4647(4)
H4C H 1.7248 0.4907 1.4944
C9C C 1.8144(6) 0.2218(8) 1.3328(4)
O3C O 1.7560(4) 0.1960(6) 1.2965(2)
N2C N 1.9043(5) 0.1850(6) 1.3315(3)
H5C H 1.9470 0.2208 1.3529
C10C C 1.9323(6) 0.0886(8) 1.2961(4)
C11C C 1.9243(7) -0.0307(10) 1.3155(4)
H6C H 1.8976 -0.0451 1.3494
C12C C 1.9551(7) -0.1274(9) 1.2853(4)
H7C H 1.9520 -0.2080 1.2994
C13C C 1.9905(6) -0.1093(8) 1.2348(4)
C14C C 2.0205(6) -0.2091(8) 1.2033(4)
H8C H 2.0170 -0.2906 1.2164
C15C C 2.0551(6) -0.1850(10) 1.1529(4)
H9C H 2.0741 -0.2510 1.1310
C16C C 2.0623(6) -0.0676(9) 1.1340(4)
H10C H 2.0887 -0.0535 1.1000
C17C C 2.0325(6) 0.0287(9) 1.1631(4)
H11C H 2.0358 0.1091 1.1488
C18C C 1.9961(5) 0.0096(8) 1.2152(4)
C19C C 1.9665(5) 0.1123(8) 1.2468(4)
C20C C 1.9745(6) 0.2364(8) 1.2242(3)
C21C C 2.0604(6) 0.3043(8) 1.2318(4)
C22C C 2.1331(6) 0.2640(8) 1.2686(4)
H12C H 2.1257 0.1901 1.2881
C23C C 2.2133(6) 0.3299(10) 1.2762(5)
H13C H 2.2611 0.3037 1.3017
C24C C 2.2248(7) 0.4397(10) 1.2454(5)
H14C H 2.2813 0.4850 1.2503
C25C C 2.1582(6) 0.4800(9) 1.2100(4)
H15C H 2.1688 0.5521 1.1897
C26C C 2.0719(6) 0.4167(8) 1.2021(4)
C27C C 1.9968(6) 0.4574(9) 1.1678(4)
H16C H 2.0039 0.5305 1.1477
C28C C 1.9157(6) 0.3962(8) 1.1628(4)
H17C H 1.8663 0.4271 1.1396
C29C C 1.9028(6) 0.2866(8) 1.1913(3)
N3C N 1.8161(5) 0.2219(6) 1.1864(3)
H18C H 1.7940 0.1919 1.2162
C30C C 1.7654(6) 0.2031(8) 1.1399(4)
O4C O 1.7886(5) 0.2380(7) 1.0962(3)
C31C C 1.6752(6) 0.1335(8) 1.1457(4)
C32C C 1.6527(6) 0.0671(8) 1.1910(4)
H19C H 1.6952 0.0637 1.2218
C33C C 1.5682(6) 0.0057(8) 1.1912(4)
H20C H 1.5524 -0.0416 1.2217
C34C C 1.5074(6) 0.0145(8) 1.1464(4)
H21C H 1.4484 -0.0254 1.1470
C35C C 1.6112(5) 0.1355(8) 1.1019(3)
H22C H 1.6264 0.1799 1.0704
N4C N 1.5284(4) 0.0771(6) 1.1020(3)
N4_2 N 2.0284(4) 0.4229(6) 1.6020(3)
C36 C 0.9967(14) 0.2007(18) 1.0257(8)
H23 H 1.0027 0.1258 1.0043
H24 H 0.9370 0.1994 1.0436
H25 H 1.0485 0.2056 1.0530
C37 C 0.987(3) 0.445(3) 1.0178(14)
H26 H 0.9215 0.4534 1.0282
H27 H 1.0279 0.4453 1.0514
C38 C 0.9995(17) 0.317(2) 0.9865(9)
H28 H 0.9489 0.3091 0.9579
H29 H 1.0600 0.3176 0.9686
C36B C 1.0033(14) 0.7993(18) 0.9743(8)
H23B H 0.9973 0.8742 0.9957
H24B H 1.0630 0.8006 0.9564
H25B H 0.9515 0.7944 0.9470
C37B C 1.013(3) 0.555(3) 0.9822(14)
H26B H 1.0785 0.5466 0.9718
H27B H 0.9721 0.5547 0.9486
C38B C 1.0005(17) 0.683(2) 1.0135(9)
H28B H 1.0511 0.6909 1.0421
H29B H 0.9400 0.6824 1.0314
O5 O 1.2692(13) 0.1489(18) 1.0940(8)
C39 C 1.2767(13) 0.1812(16) 1.1462(7)
H30 H 1.2995 0.1123 1.1693
H31 H 1.2160 0.2102 1.1590
C40 C 1.345(3) 0.279(3) 1.1460(15)
H32 H 1.4093 0.2468 1.1453
H33 H 1.3396 0.3329 1.1779
C41 C 1.317(4) 0.345(4) 1.095(2)
H34 H 1.3699 0.3498 1.0704
H35 H 1.2934 0.4277 1.1019
C42 C 1.241(3) 0.262(3) 1.0726(16)
H36 H 1.1795 0.2871 1.0852
H37 H 1.2391 0.2615 1.0325
C43 C 1.493(2) 0.532(3) 0.9738(12)
H38 H 1.5227 0.4913 0.9432
H39 H 1.5062 0.6204 0.9750
C44 C 1.387(2) 0.498(4) 0.9793(16)
H40 H 1.3731 0.5351 1.0145
H41 H 1.3901 0.4087 0.9865
C45 C 1.290(3) 0.511(4) 0.9457(18)
H42 H 1.2407 0.4694 0.9649
H43 H 1.2950 0.4742 0.9098
H44 H 1.2741 0.5979 0.9416
C43B C 1.507(2) 0.468(3) 1.0262(12)
H38B H 1.4773 0.5087 1.0568
H39B H 1.4938 0.3796 1.0250
C44B C 1.613(2) 0.502(4) 1.0207(16)
H40B H 1.6269 0.4649 0.9855
H41B H 1.6099 0.5913 1.0135
C45B C 1.710(3) 0.489(4) 1.0543(18)
H42B H 1.7593 0.5306 1.0351
H43B H 1.7050 0.5258 1.0902
H44B H 1.7259 0.4021 1.0584
C3? C 1.2930(12) 0.721(2) 1.0577(6)
F4? F 1.2731(15) 0.642(2) 1.0181(8)
F5? F 1.2307(19) 0.812(3) 1.0567(13)
F6? F 1.2592(4) 0.6763(6) 1.1020(3)
loop_
_geom_bond_atom_site_label_1
_geom_bond_atom_site_label_2
_geom_bond_site_symmetry_1
_geom_bond_site_symmetry_2
Ag1 O1 1_555 1_555
O1 C1 1_555 1_555
O2 C1 1_555 1_555
C1 C2 1_555 1_555
C2 F1 1_555 1_555
F2 C2 1_555 1_555
F3 C2 1_555 1_555
N1 Ag1 1_555 1_555
C4 N1 1_555 1_555
H1 C4 1_555 1_555
C5 C4 1_555 1_555
C6 C5 1_555 1_555
H2 C6 1_555 1_555
C7 C6 1_555 1_555
H3 C7 1_555 1_555
C8 N1 1_555 1_555
H4 C8 1_555 1_555
C9 C5 1_555 1_555
O3 C9 1_555 1_555
N2 C9 1_555 1_555
H5 N2 1_555 1_555
C10 N2 1_555 1_555
C11 C10 1_555 1_555
H6 C11 1_555 1_555
C12 C11 1_555 1_555
H7 C12 1_555 1_555
C13 C12 1_555 1_555
C14 C13 1_555 1_555
H8 C14 1_555 1_555
C15 C14 1_555 1_555
H9 C15 1_555 1_555
C16 C15 1_555 1_555
H10 C16 1_555 1_555
C17 C16 1_555 1_555
H11 C17 1_555 1_555
C18 C13 1_555 1_555
C19 C10 1_555 1_555
C20 C19 1_555 1_555
C21 C20 1_555 1_555
C22 C21 1_555 1_555
H12 C22 1_555 1_555
C23 C22 1_555 1_555
H13 C23 1_555 1_555
C24 C23 1_555 1_555
H14 C24 1_555 1_555
C25 C24 1_555 1_555
H15 C25 1_555 1_555
C26 C21 1_555 1_555
C27 C26 1_555 1_555
H16 C27 1_555 1_555
C28 C27 1_555 1_555
H17 C28 1_555 1_555
C29 C20 1_555 1_555
N3 C29 1_555 1_555
H18 N3 1_555 1_555
C30 N3 1_555 1_555
O4 C30 1_555 1_555
C31 C30 1_555 1_555
C32 C31 1_555 1_555
H19 C32 1_555 1_555
C33 C32 1_555 1_555
H20 C33 1_555 1_555
C34 C33 1_555 1_555
H21 C34 1_555 1_555
C35 C31 1_555 1_555
H22 C35 1_555 1_555
N4 C34 1_555 1_555
C36 H23 1_555 1_555
H24 C36 1_555 1_555
H25 C36 1_555 1_555
C37 H26 1_555 1_555
H27 C37 1_555 1_555
C38 C36 1_555 1_555
H28 C38 1_555 1_555
H29 C38 1_555 1_555
O5 C39 1_555 1_555
C39 H30 1_555 1_555
H31 C39 1_555 1_555
C40 C39 1_555 1_555
H32 C40 1_555 1_555
H33 C40 1_555 1_555
C41 C40 1_555 1_555
H34 C41 1_555 1_555
H35 C41 1_555 1_555
C42 O5 1_555 1_555
H36 C42 1_555 1_555
H37 C42 1_555 1_555
C43 H38 1_555 1_555
H39 C43 1_555 1_555
C44 C43 1_555 1_555
H40 C44 1_555 1_555
H41 C44 1_555 1_555
C45 C44 1_555 1_555
H42 C45 1_555 1_555
H43 C45 1_555 1_555
H44 C45 1_555 1_555
Ag1C O1C 1_555 1_555
Ag1C_2 N4 1_555 1_555
O1C C1C 1_555 1_555
O2C C1C 1_555 1_555
C1C C2C 1_555 1_555
C2C F1C 1_555 1_555
F2C C2C 1_555 1_555
F3C C2C 1_555 1_555
N1C Ag1C 1_555 1_555
C4C N1C 1_555 1_555
H1C C4C 1_555 1_555
C5C C4C 1_555 1_555
C6C C5C 1_555 1_555
H2C C6C 1_555 1_555
C7C C6C 1_555 1_555
H3C C7C 1_555 1_555
C8C N1C 1_555 1_555
H4C C8C 1_555 1_555
C9C C5C 1_555 1_555
O3C C9C 1_555 1_555
N2C C9C 1_555 1_555
H5C N2C 1_555 1_555
C10C N2C 1_555 1_555
C11C C10C 1_555 1_555
H6C C11C 1_555 1_555
C12C C11C 1_555 1_555
H7C C12C 1_555 1_555
C13C C12C 1_555 1_555
C14C C13C 1_555 1_555
H8C C14C 1_555 1_555
C15C C14C 1_555 1_555
H9C C15C 1_555 1_555
C16C C15C 1_555 1_555
H10C C16C 1_555 1_555
C17C C16C 1_555 1_555
H11C C17C 1_555 1_555
C18C C13C 1_555 1_555
C19C C10C 1_555 1_555
C20C C19C 1_555 1_555
C21C C20C 1_555 1_555
C22C C21C 1_555 1_555
H12C C22C 1_555 1_555
C23C C22C 1_555 1_555
H13C C23C 1_555 1_555
C24C C23C 1_555 1_555
H14C C24C 1_555 1_555
C25C C24C 1_555 1_555
H15C C25C 1_555 1_555
C26C C21C 1_555 1_555
C27C C26C 1_555 1_555
H16C C27C 1_555 1_555
C28C C27C 1_555 1_555
H17C C28C 1_555 1_555
C29C C20C 1_555 1_555
N3C C29C 1_555 1_555
H18C N3C 1_555 1_555
C30C N3C 1_555 1_555
O4C C30C 1_555 1_555
C31C C30C 1_555 1_555
C32C C31C 1_555 1_555
H19C C32C 1_555 1_555
C33C C32C 1_555 1_555
H20C C33C 1_555 1_555
C34C C33C 1_555 1_555
H21C C34C 1_555 1_555
C35C C31C 1_555 1_555
H22C C35C 1_555 1_555
N4C Ag1 1_555 1_555
N4_2 Ag1C 1_555 1_555
C36B H23B 1_555 1_555
H24B C36B 1_555 1_555
H25B C36B 1_555 1_555
C37B C37 1_555 1_555
H26B C37B 1_555 1_555
H27B C37B 1_555 1_555
C38B C36B 1_555 1_555
H28B C38B 1_555 1_555
H29B C38B 1_555 1_555
C43B C43 1_555 1_555
H38B C43B 1_555 1_555
H39B C43B 1_555 1_555
C44B C43B 1_555 1_555
H40B C44B 1_555 1_555
H41B C44B 1_555 1_555
C45B C44B 1_555 1_555
H42B C45B 1_555 1_555
H43B C45B 1_555 1_555
H44B C45B 1_555 1_555
C7 C8 1_555 1_555
C17 C18 1_555 1_555
C18 C19 1_555 1_555
C25 C26 1_555 1_555
C28 C29 1_555 1_555
C35 N4 1_555 1_555
C37 C38 1_555 1_555
C41 C42 1_555 1_555
C7C C8C 1_555 1_555
C17C C18C 1_555 1_555
C18C C19C 1_555 1_555
C25C C26C 1_555 1_555
C28C C29C 1_555 1_555
C34C N4C 1_555 1_555
C35C N4C 1_555 1_555
C37B C38B 1_555 1_555

#END
