
#######################################################################
#
#                 Cambridge Crystallographic Data Centre
#                                CCDC 
#
#######################################################################
#
# If this CIF has been generated from an entry in the Cambridge 
# Structural Database, then it will include bibliographic, chemical, 
# crystal, experimental, refinement or atomic coordinate data resulting 
# from the CCDC's data processing and validation procedures.
#
#######################################################################

data_YEDLAV
_symmetry_cell_setting           hexagonal
_symmetry_space_group_name_H-M   'P -6 2 c'
_symmetry_Int_Tables_number      190
_space_group_name_Hall           "P -6c -2'c"
loop_
_symmetry_equiv_pos_site_id
_symmetry_equiv_pos_as_xyz
1 x,y,z
2 -x+y,-x,1/2-z
3 y,x,1/2+z
4 -y,x-y,z
5 x-y,-y,-z
6 x,y,1/2-z
7 -x,-x+y,1/2+z
8 -x+y,-x,z
9 y,x,-z
10 -y,x-y,1/2-z
11 x-y,-y,1/2+z
12 -x,-x+y,-z
_cell_length_a                   10.1751(10)
_cell_length_b                   10.1751(10)
_cell_length_c                   23.7722(10)
_cell_angle_alpha                90
_cell_angle_beta                 90
_cell_angle_gamma                120
_cell_volume                     2131.46
loop_
_atom_site_label
_atom_site_type_symbol
_atom_site_fract_x
_atom_site_fract_y
_atom_site_fract_z
O5 O 0.2349 0.5304 0.1646
C9 C 0.2193 0.6340 0.1863
O5G O 0.2955 0.7651 0.1646
O5C O 0.4696 0.7045 0.1646
C9G C 0.4147 0.7807 0.1863
C9C C 0.3660 0.5853 0.1863
O6 O 0.0000 0.0000 0.0000
O7 O 0.1111 0.1425 0.4001
C10 C 0.2336 0.1784 0.4393
Fe1 Fe 0.7271 0.1639 0.2500
O1 O 0.6667 0.3333 0.2500
O2 O 0.8755 0.2727 0.1894
O3 O 0.9317 0.5046 0.1916
O4 O 0.8067 0.0326 0.2500
C1 C 0.9187 0.3817 0.1037
C2 C 1.0652 0.4344 0.1023
C3 C 1.1356 0.5229 0.0582
C4 C 1.0762 0.4600 0.0017
C5 C 0.8469 0.3660 0.0490
C6 C 0.8603 0.3762 0.1662
C7 C 0.7885 -0.0743 0.2946
Fe1C Fe 0.8361 0.5632 0.2500
Fe1A Fe 0.4368 0.2729 0.2500
Fe1F Fe 1.2729 0.4368 -0.2500
Fe1B Fe 1.1639 0.7271 -0.2500
Fe1F_2 Fe 1.2729 0.4368 0.7500
Fe1B_2 Fe 1.1639 0.7271 0.7500
Fe1B_3 Fe 0.1639 -0.2729 -0.2500
Fe1D Fe 0.5632 -0.1639 -0.2500
O2K O 1.1245 0.3972 -0.1894
O2E O 0.8755 0.2727 0.3106
O2F O 1.1245 0.3972 0.6894
O2G O 0.3972 0.1245 0.1894
O2H O 0.2727 -0.1245 -0.1894
O2C O 0.7273 0.6028 0.1894
O2I O 0.7273 0.6028 0.3106
O2A O 0.3972 0.1245 0.3106
O3K O 1.0683 0.5729 -0.1916
O3E O 0.9317 0.5046 0.3084
O3F O 1.0683 0.5729 0.6916
O3G O 0.5729 0.0683 0.1916
O3H O 0.5046 -0.0683 -0.1916
O3A O 0.5729 0.0683 0.3084
O3C O 0.4954 0.4271 0.1916
O3I O 0.4954 0.4271 0.3084
O4C O 0.9674 0.7741 0.2500
O4A O 0.2259 0.1933 0.2500
C1K C 1.0813 0.4630 -0.1037
C1E C 0.9187 0.3817 0.3963
C1F C 1.0813 0.4630 0.6037
C1G C 0.4630 0.0813 0.1037
C1H C 0.3817 -0.0813 -0.1037
C2K C 0.9348 0.3692 -0.1023
C2E C 1.0652 0.4344 0.3977
C2F C 0.9348 0.3692 0.6023
C2G C 0.3692 -0.0652 0.1023
C2H C 0.4344 0.0652 -0.1023
C3K C 0.8644 0.3873 -0.0582
C3E C 1.1356 0.5229 0.4418
C3F C 0.8644 0.3873 0.5582
C3G C 0.3873 -0.1356 0.0582
C3H C 0.5229 0.1356 -0.0582
C4K C 0.9238 0.3838 -0.0017
C4E C 1.0762 0.4600 0.4983
C4F C 0.9238 0.3838 0.5017
C4G C 0.3838 -0.0762 0.0017
C4H C 0.4600 0.0762 -0.0017
C5K C 1.1531 0.5191 -0.0490
C5E C 0.8469 0.3660 0.4510
C5F C 1.1531 0.5191 0.5490
C5G C 0.5191 0.1531 0.0490
C5H C 0.3660 -0.1531 -0.0490
C6K C 1.1397 0.5159 -0.1662
C6E C 0.8603 0.3762 0.3338
C6F C 1.1397 0.5159 0.6662
C6G C 0.5159 0.1397 0.1662
C6H C 0.3762 -0.1397 -0.1662
C7E C 0.7885 -0.0743 0.2054
C7I C 1.0743 0.8628 0.2054
C7C C 1.0743 0.8628 0.2946
C7G C 0.1372 0.2115 0.2946
C7A C 0.1372 0.2115 0.2054
C8? C 0.4076 -0.2308 0.2500
loop_
_geom_bond_atom_site_label_1
_geom_bond_atom_site_label_2
_geom_bond_site_symmetry_1
_geom_bond_site_symmetry_2
Fe1 O1 1_555 1_555
O1 Fe1C 1_555 1_555
O2 Fe1 1_555 1_555
O3 C6 1_555 1_555
O4 Fe1 1_555 1_555
O5 C9 1_555 1_555
C1 C2 1_555 1_555
C2 C3 1_555 1_555
C3 C4 1_555 1_555
C4 C4K 1_555 1_555
C5 C1 1_555 1_555
C6 O2 1_555 1_555
C7 O4 1_555 1_555
C9 O5G 1_555 1_555
O7 C10 1_555 1_555
Fe1C O3 1_555 1_555
Fe1A O1 1_555 1_555
Fe1F O2K 1_555 1_555
Fe1B O3K 1_555 1_555
Fe1F_2 O2F 1_555 1_555
Fe1B_2 O3F 1_555 1_555
Fe1B_3 O2H 1_555 1_555
Fe1D O3H 1_555 1_555
O2K C6K 1_555 1_555
O2E Fe1 1_555 1_555
O2F C6F 1_555 1_555
O2G Fe1A 1_555 1_555
O2H C6H 1_555 1_555
O2C Fe1C 1_555 1_555
O2I Fe1C 1_555 1_555
O2A Fe1A 1_555 1_555
O3K C6K 1_555 1_555
O3E Fe1C 1_555 1_555
O3F C6F 1_555 1_555
O3G Fe1 1_555 1_555
O3H C6H 1_555 1_555
O3A Fe1 1_555 1_555
O3C Fe1A 1_555 1_555
O3I Fe1A 1_555 1_555
O4C Fe1C 1_555 1_555
O4A Fe1A 1_555 1_555
O5G C9G 1_555 1_555
O5C C9G 1_555 1_555
C1K C2K 1_555 1_555
C1E C2E 1_555 1_555
C1F C2F 1_555 1_555
C1G C2G 1_555 1_555
C1H C2H 1_555 1_555
C2K C3K 1_555 1_555
C2E C3E 1_555 1_555
C2F C3F 1_555 1_555
C2G C3G 1_555 1_555
C2H C3H 1_555 1_555
C3K C4K 1_555 1_555
C3E C4E 1_555 1_555
C3F C4F 1_555 1_555
C3G C4G 1_555 1_555
C3H C4H 1_555 1_555
C4K C5 1_555 1_555
C4E C4F 1_555 1_555
C4F C5E 1_555 1_555
C4G C4H 1_555 1_555
C4H C5G 1_555 1_555
C5K C4 1_555 1_555
C5E C1E 1_555 1_555
C5F C1F 1_555 1_555
C5G C1G 1_555 1_555
C5H C1H 1_555 1_555
C6K C1K 1_555 1_555
C6E O2E 1_555 1_555
C6F C1F 1_555 1_555
C6G O2G 1_555 1_555
C6H C1H 1_555 1_555
C7E O4 1_555 1_555
C7I O4C 1_555 1_555
C7C O4C 1_555 1_555
C7G O4A 1_555 1_555
C7A O4A 1_555 1_555
C9C O5 1_555 1_555
C1 C6 1_555 1_555
O3E C6E 1_555 1_555
O3G C6G 1_555 1_555
O5C C9C 1_555 1_555
C1K C5K 1_555 1_555
C1E C6E 1_555 1_555
C1G C6G 1_555 1_555
C4E C5F 1_555 1_555
C4G C5H 1_555 1_555

#END
