
#######################################################################
#
#                 Cambridge Crystallographic Data Centre
#                                CCDC 
#
#######################################################################
#
# If this CIF has been generated from an entry in the Cambridge 
# Structural Database, then it will include bibliographic, chemical, 
# crystal, experimental, refinement or atomic coordinate data resulting 
# from the CCDC's data processing and validation procedures.
#
#######################################################################

data_YEDPED
_symmetry_cell_setting           triclinic
_symmetry_space_group_name_H-M   'P -1'
_symmetry_Int_Tables_number      2
_space_group_name_Hall           '-P 1'
loop_
_symmetry_equiv_pos_site_id
_symmetry_equiv_pos_as_xyz
1 x,y,z
2 -x,-y,-z
_cell_length_a                   6.8344(13)
_cell_length_b                   7.5389(14)
_cell_length_c                   10.595(2)
_cell_angle_alpha                84.628(3)
_cell_angle_beta                 74.975(4)
_cell_angle_gamma                69.953(4)
_cell_volume                     495.282
loop_
_atom_site_label
_atom_site_type_symbol
_atom_site_fract_x
_atom_site_fract_y
_atom_site_fract_z
Cd1 Cd 0.25192(8) 0.82110(7) -0.04427(5)
P1 P 0.2044(3) 1.2099(3) 0.12372(18)
O1 O 0.1053(7) 1.1064(6) 0.0539(4)
O2 O 0.3409(8) 0.5315(7) -0.1405(6)
H1 H 0.250(13) 0.537(11) -0.199(8)
H2 H 0.344(12) 0.468(11) -0.057(7)
O3 O 0.4062(7) 1.2377(6) 0.0360(4)
O4 O 0.1823(11) 0.6825(8) 0.1582(5)
H3 H 0.0954 0.6230 0.1620
H4 H 0.3026 0.6085 0.1689
O5 O 0.0411(7) 1.3917(7) 0.1843(5)
O6 O 0.1164(9) 0.9851(8) 0.3275(5)
H5 H 0.1177 0.8942 0.2900
O7 O 0.6963(8) 1.0361(7) 0.2397(5)
N1 N 0.5445(10) 1.1322(9) 0.3396(6)
C1 C 0.3387(12) 1.1455(10) 0.3553(7)
C2 C 0.1881(13) 1.2417(11) 0.4628(7)
H6 H 0.0444 1.2539 0.4744
C3 C 0.2488(14) 1.3195(11) 0.5525(8)
H7 H 0.1473 1.3857 0.6240
C4 C 0.4627(15) 1.2974(12) 0.5342(8)
H8 H 0.5078 1.3452 0.5951
C5 C 0.6064(13) 1.2064(12) 0.4281(8)
H9 H 0.7503 1.1941 0.4153
C6 C 0.2849(12) 1.0504(10) 0.2564(7)
H10 H 0.4102 0.9420 0.2195
Cd1A Cd -0.25192(8) 1.17890(7) 0.04427(5)
Cd1A_2 Cd 0.74808(8) 1.17890(7) 0.04427(5)
O1A O -0.1053(7) 0.8936(6) -0.0539(4)
O3A O 0.5938(7) 0.7623(6) -0.0360(4)
O7A O 0.3037(8) 0.9639(7) -0.2397(5)
loop_
_geom_bond_atom_site_label_1
_geom_bond_atom_site_label_2
_geom_bond_site_symmetry_1
_geom_bond_site_symmetry_2
Cd1 O1 1_555 1_555
P1 O1 1_555 1_555
O1 Cd1A 1_555 1_555
O2 Cd1 1_555 1_555
H1 O2 1_555 1_555
H2 O2 1_555 1_555
O3 P1 1_555 1_555
O4 Cd1 1_555 1_555
H3 O4 1_555 1_555
H4 O4 1_555 1_555
O5 P1 1_555 1_555
O6 H5 1_555 1_555
O7 N1 1_555 1_555
N1 C1 1_555 1_555
C1 C2 1_555 1_555
C2 H6 1_555 1_555
C3 C2 1_555 1_555
H7 C3 1_555 1_555
C4 C3 1_555 1_555
H8 C4 1_555 1_555
C5 N1 1_555 1_555
H9 C5 1_555 1_555
C6 P1 1_555 1_555
H10 C6 1_555 1_555
Cd1A O1A 1_555 1_555
Cd1A_2 O3 1_555 1_555
O1A Cd1 1_555 1_555
O3A Cd1 1_555 1_555
O7A Cd1 1_555 1_555
O6 C6 1_555 1_555
O7 Cd1A_2 1_555 1_555
C1 C6 1_555 1_555
C4 C5 1_555 1_555

#END
