
#######################################################################
#
#                 Cambridge Crystallographic Data Centre
#                                CCDC 
#
#######################################################################
#
# If this CIF has been generated from an entry in the Cambridge 
# Structural Database, then it will include bibliographic, chemical, 
# crystal, experimental, refinement or atomic coordinate data resulting 
# from the CCDC's data processing and validation procedures.
#
#######################################################################

data_YEDSUX
_symmetry_cell_setting           monoclinic
_symmetry_space_group_name_H-M   'C 2/c'
_symmetry_Int_Tables_number      15
_space_group_name_Hall           '-C 2yn'
loop_
_symmetry_equiv_pos_site_id
_symmetry_equiv_pos_as_xyz
1 x,y,z
2 -x,y,1/2-z
3 1/2+x,1/2+y,z
4 1/2-x,1/2+y,1/2-z
5 -x,-y,-z
6 x,-y,1/2+z
7 1/2-x,1/2-y,-z
8 1/2+x,1/2-y,1/2+z
_cell_length_a                   22.064(2)
_cell_length_b                   8.5408(8)
_cell_length_c                   12.1315(11)
_cell_angle_alpha                90
_cell_angle_beta                 122.805(2)
_cell_angle_gamma                90
_cell_volume                     1921.52
loop_
_atom_site_label
_atom_site_type_symbol
_atom_site_fract_x
_atom_site_fract_y
_atom_site_fract_z
Mn1 Mn 0.5000 0.5000 0.5000
Na1 Na 0.5000 0.34504(13) 0.2500
O1 O 0.45345(8) 0.33745(16) 0.38014(14)
C1 C 0.38713(11) 0.2824(2) 0.3367(2)
C2 C 0.35058(11) 0.3028(2) 0.4011(2)
C3 C 0.28173(12) 0.2364(2) 0.3471(2)
H1 H 0.2569 0.2493 0.3904
C4 C 0.25035(12) 0.1533(2) 0.2326(2)
H2 H 0.2036 0.1103 0.1967
C5 C 0.28609(12) 0.1308(2) 0.1677(2)
H3 H 0.2640 0.0724 0.0885
C6 C 0.35367(12) 0.1942(2) 0.2197(2)
C7 C 0.38160(12) 0.3928(2) 0.5258(2)
O2 O 0.43903(8) 0.47780(15) 0.56767(14)
O3 O 0.35221(8) 0.38584(18) 0.58830(15)
O4 O 0.39526(8) 0.17620(17) 0.16729(15)
C8 C 0.36555(13) 0.0799(3) 0.0524(2)
H4 H 0.3549 -0.0244 0.0714
H5 H 0.4004 0.0708 0.0263
H6 H 0.3210 0.1276 -0.0191
O5 O 0.57625(9) 0.33314(18) 0.65456(16)
H7 H 0.5984(13) 0.363(3) 0.728(2)
C9 C 0.55878(15) 0.1726(3) 0.6555(3)
H8 H 0.5390 0.1598 0.7104
H9 H 0.6024 0.1087 0.6908
H10 H 0.5229 0.1388 0.5658
Na1D Na 0.5000 0.65496(13) 0.7500
O1D O 0.54655(8) 0.66255(16) 0.61986(14)
O1A O 0.54655(8) 0.33745(16) 0.11986(14)
C1D C 0.61287(11) 0.7176(2) 0.6633(2)
C2D C 0.64942(11) 0.6972(2) 0.5989(2)
C3D C 0.71827(12) 0.7636(2) 0.6529(2)
H1D H 0.7431 0.7507 0.6096
C4D C 0.74965(12) 0.8467(2) 0.7674(2)
H2D H 0.7964 0.8897 0.8033
C5D C 0.71391(12) 0.8692(2) 0.8323(2)
H3D H 0.7360 0.9276 0.9115
C6D C 0.64633(12) 0.8058(2) 0.7803(2)
C7D C 0.61840(12) 0.6072(2) 0.4742(2)
O2D O 0.56097(8) 0.52220(15) 0.43233(14)
O2E O 0.43903(8) 0.52220(15) 0.06767(14)
O3D O 0.64779(8) 0.61416(18) 0.41170(15)
O4D O 0.60474(8) 0.82380(17) 0.83271(15)
O4A O 0.60474(8) 0.17620(17) 0.33271(15)
C8D C 0.63445(13) 0.9201(3) 0.9476(2)
H4D H 0.6451 1.0244 0.9286
H5D H 0.5996 0.9292 0.9737
H6D H 0.6790 0.8724 1.0191
O5D O 0.42375(9) 0.66686(18) 0.34544(16)
H7D H 0.4016(13) 0.637(3) 0.272(2)
C9D C 0.44122(15) 0.8274(3) 0.3445(3)
H8D H 0.4610 0.8402 0.2896
H9D H 0.3976 0.8913 0.3092
H10D H 0.4771 0.8612 0.4342
loop_
_geom_bond_atom_site_label_1
_geom_bond_atom_site_label_2
_geom_bond_site_symmetry_1
_geom_bond_site_symmetry_2
Mn1 O1 1_555 1_555
Na1 O1 1_555 1_555
O1 C1 1_555 1_555
C1 C2 1_555 1_555
C2 C3 1_555 1_555
C3 H1 1_555 1_555
C4 C3 1_555 1_555
H2 C4 1_555 1_555
C5 C4 1_555 1_555
H3 C5 1_555 1_555
C6 C1 1_555 1_555
C7 C2 1_555 1_555
O2 Mn1 1_555 1_555
O3 C7 1_555 1_555
O4 Na1 1_555 1_555
C8 O4 1_555 1_555
H4 C8 1_555 1_555
H5 C8 1_555 1_555
H6 C8 1_555 1_555
O5 Mn1 1_555 1_555
H7 O5 1_555 1_555
C9 O5 1_555 1_555
H8 C9 1_555 1_555
H9 C9 1_555 1_555
H10 C9 1_555 1_555
Na1D O2 1_555 1_555
O1D Mn1 1_555 1_555
O1A Na1 1_555 1_555
C1D O1D 1_555 1_555
C2D C1D 1_555 1_555
C3D C2D 1_555 1_555
H1D C3D 1_555 1_555
C4D C3D 1_555 1_555
H2D C4D 1_555 1_555
C5D C4D 1_555 1_555
H3D C5D 1_555 1_555
C6D C1D 1_555 1_555
C7D C2D 1_555 1_555
O2D Mn1 1_555 1_555
O2E Na1 1_555 1_555
O3D C7D 1_555 1_555
O4D Na1D 1_555 1_555
O4A Na1 1_555 1_555
C8D O4D 1_555 1_555
H4D C8D 1_555 1_555
H5D C8D 1_555 1_555
H6D C8D 1_555 1_555
O5D Mn1 1_555 1_555
H7D O5D 1_555 1_555
C9D O5D 1_555 1_555
H8D C9D 1_555 1_555
H9D C9D 1_555 1_555
H10D C9D 1_555 1_555
Na1 O2D 1_555 1_555
C5 C6 1_555 1_555
C6 O4 1_555 1_555
C7 O2 1_555 1_555
Na1D O1D 1_555 1_555
C5D C6D 1_555 1_555
C6D O4D 1_555 1_555
C7D O2D 1_555 1_555

#END
