
#######################################################################
#
#                 Cambridge Crystallographic Data Centre
#                                CCDC 
#
#######################################################################
#
# If this CIF has been generated from an entry in the Cambridge 
# Structural Database, then it will include bibliographic, chemical, 
# crystal, experimental, refinement or atomic coordinate data resulting 
# from the CCDC's data processing and validation procedures.
#
#######################################################################

data_YEDXEK
_symmetry_cell_setting           orthorhombic
_symmetry_space_group_name_H-M   'P 21 21 21'
_symmetry_Int_Tables_number      19
_space_group_name_Hall           'P 2ac 2ab'
loop_
_symmetry_equiv_pos_site_id
_symmetry_equiv_pos_as_xyz
1 x,y,z
2 1/2+x,1/2-y,-z
3 -x,1/2+y,1/2-z
4 1/2-x,-y,1/2+z
_cell_length_a                   10.018(2)
_cell_length_b                   18.730(5)
_cell_length_c                   22.378(4)
_cell_angle_alpha                90
_cell_angle_beta                 90
_cell_angle_gamma                90
_cell_volume                     4198.94
loop_
_atom_site_label
_atom_site_type_symbol
_atom_site_fract_x
_atom_site_fract_y
_atom_site_fract_z
Sn1 Sn -0.29573(2) -0.468750(10) 0.289360(8)
Sn2 Sn -0.06733(2) -0.412470(10) 0.151130(8)
S1 S -0.43345(8) -0.54959(4) 0.42148(3)
S2 S -0.63846(7) -0.54719(4) 0.50372(3)
N1 N -0.5872(3) -0.55848(15) 0.43706(11)
O1 O -0.3654(2) -0.49419(13) 0.45414(9)
O2 O -0.4284(2) -0.54326(11) 0.35624(8)
O3 O -0.7733(2) -0.57362(13) 0.50660(10)
O4 O -0.5472(2) -0.57792(12) 0.54767(8)
O5 O -0.1770(2) -0.40355(11) 0.23184(9)
H1 H -0.2069(50) -0.3613(14) 0.2348(23)
C1 C -0.3554(4) -0.6312(2) 0.4387(2)
H2 H -0.3991(16) -0.6702(3) 0.4162(8)
H3 H -0.3634(21) -0.6406(7) 0.4821(2)
H4 H -0.2599(6) -0.6287(5) 0.4276(10)
C2 C -0.6432(3) -0.4546(2) 0.51581(15)
H5 H -0.5561(8) -0.4334(2) 0.5048(9)
H6 H -0.6617(22) -0.4449(2) 0.5585(2)
H7 H -0.7145(15) -0.4331(2) 0.4910(8)
C3 C -0.4191(3) -0.5166(2) 0.22353(12)
C4 C -0.5407(3) -0.4866(2) 0.2060(2)
H8 H -0.5671(3) -0.4424(2) 0.2220(2)
C5 C -0.6226(4) -0.5211(2) 0.1655(2)
H9 H -0.7035(4) -0.5000(2) 0.1535(2)
C6 C -0.5851(4) -0.5865(2) 0.1427(2)
H10 H -0.6420(4) -0.6107(2) 0.1162(2)
C7 C -0.4644(4) -0.6167(2) 0.1586(2)
H11 H -0.4387(4) -0.6610(2) 0.1425(2)
C8 C -0.3818(3) -0.5814(2) 0.19819(14)
H12 H -0.2989(3) -0.6016(2) 0.20823(14)
C9 C -0.3627(3) -0.3818(2) 0.34279(14)
C10 C -0.4966(4) -0.3744(2) 0.3579(2)
H13 H -0.5608(4) -0.4044(2) 0.3404(2)
C11 C -0.5357(5) -0.3223(2) 0.3992(2)
H14 H -0.6264(5) -0.3171(2) 0.4091(2)
C12 C -0.4419(6) -0.2790(2) 0.4252(2)
H15 H -0.4683(6) -0.2449(2) 0.4536(2)
C13 C -0.3088(6) -0.2852(2) 0.4098(2)
H16 H -0.2451(6) -0.2547(2) 0.4272(2)
C14 C -0.2695(4) -0.3363(2) 0.3688(2)
H17 H -0.1790(4) -0.3404(2) 0.3583(2)
C15 C -0.1304(3) -0.5297(2) 0.31958(12)
C16 C -0.0129(3) -0.4964(2) 0.33771(15)
H18 H -0.0045(3) -0.4467(2) 0.33401(15)
C17 C 0.0917(4) -0.5360(2) 0.3612(2)
H19 H 0.1700(4) -0.5127(2) 0.3738(2)
C18 C 0.0814(4) -0.6094(2) 0.3661(2)
H20 H 0.1514(4) -0.6361(2) 0.3829(2)
C19 C -0.0323(4) -0.6430(2) 0.3461(2)
H21 H -0.0385(4) -0.6930(2) 0.3477(2)
C20 C -0.1378(3) -0.6035(2) 0.32354(14)
H22 H -0.2156(3) -0.6271(2) 0.31074(14)
C21 C -0.0636(3) -0.52545(15) 0.14409(11)
C22 C 0.0126(4) -0.5684(2) 0.1817(2)
H23 H 0.0604(4) -0.5474(2) 0.2133(2)
C23 C 0.0191(5) -0.6415(2) 0.1732(2)
H24 H 0.0707(5) -0.6699(2) 0.1990(2)
C24 C -0.0504(5) -0.6728(2) 0.1265(2)
H25 H -0.0460(5) -0.7224(2) 0.1207(2)
C25 C -0.1261(4) -0.6311(2) 0.0887(2)
H26 H -0.1737(4) -0.6523(2) 0.0571(2)
C26 C -0.1320(4) -0.5580(2) 0.09728(15)
H27 H -0.1829(4) -0.5299(2) 0.07105(15)
C27 C -0.2113(3) -0.3572(2) 0.09918(12)
C28 C -0.1848(4) -0.2884(2) 0.07843(14)
H28 H -0.1027(4) -0.2668(2) 0.08752(14)
C29 C -0.2783(4) -0.2515(2) 0.04451(15)
H29 H -0.2599(4) -0.2050(2) 0.03108(15)
C30 C -0.3984(4) -0.2837(2) 0.0307(2)
H30 H -0.4613(4) -0.2592(2) 0.0071(2)
C31 C -0.4265(4) -0.3510(2) 0.0511(2)
H31 H -0.5087(4) -0.3724(2) 0.0417(2)
C32 C -0.3344(3) -0.3877(2) 0.0855(2)
H32 H -0.3551(3) -0.4336(2) 0.0998(2)
C33 C 0.1041(3) -0.3551(2) 0.18242(14)
C34 C 0.1059(4) -0.3324(2) 0.2418(2)
H33 H 0.0313(4) -0.3407(2) 0.2663(2)
C35 C 0.2163(4) -0.2977(2) 0.2652(2)
H34 H 0.2160(4) -0.2829(2) 0.3053(2)
C36 C 0.3254(3) -0.2849(2) 0.2304(2)
H35 H 0.4005(3) -0.2619(2) 0.2466(2)
C37 C 0.3251(4) -0.3058(2) 0.1715(2)
H36 H 0.3998(4) -0.2966(2) 0.1472(2)
C38 C 0.2146(3) -0.3407(2) 0.1476(2)
H37 H 0.2152(3) -0.3547(2) 0.1073(2)
Sn2C Sn -0.43267(2) -0.587530(10) 0.651130(8)
O4C O 0.0472(2) -0.42208(12) 0.04767(8)
C39 C -0.8806(5) -0.3514(2) -0.1984(2)
H38 H -0.8420(21) -0.3945(3) -0.2173(12)
H39 H -0.9753(8) -0.3465(8) -0.2104(13)
H40 H -0.8750(28) -0.3560(10) -0.1544(2)
C40 C -0.8073(4) -0.2892(2) -0.21729(15)
N2 N -0.7512(4) -0.2400(2) -0.2311(2)
C41 C -0.4453(5) -0.5498(3) -0.0096(2)
H41 H -0.3584(16) -0.5447(12) -0.0301(11)
H42 H -0.4300(31) -0.5601(9) 0.0333(4)
H43 H -0.4968(17) -0.5050(5) -0.0136(14)
C42 C -0.5199(4) -0.6083(3) -0.0364(2)
N3 N -0.5796(5) -0.6523(2) -0.0575(2)
loop_
_geom_bond_atom_site_label_1
_geom_bond_atom_site_label_2
_geom_bond_site_symmetry_1
_geom_bond_site_symmetry_2
Sn1 O2 1_555 1_555
Sn2 O5 1_555 1_555
S1 N1 1_555 1_555
S2 N1 1_555 1_555
O1 S1 1_555 1_555
O2 S1 1_555 1_555
O3 S2 1_555 1_555
O4 S2 1_555 1_555
O5 Sn1 1_555 1_555
H1 O5 1_555 1_555
C1 S1 1_555 1_555
H2 C1 1_555 1_555
H3 C1 1_555 1_555
H4 C1 1_555 1_555
C2 S2 1_555 1_555
H5 C2 1_555 1_555
H6 C2 1_555 1_555
H7 C2 1_555 1_555
C3 Sn1 1_555 1_555
C4 C3 1_555 1_555
H8 C4 1_555 1_555
C5 C4 1_555 1_555
H9 C5 1_555 1_555
C6 C5 1_555 1_555
H10 C6 1_555 1_555
C7 C6 1_555 1_555
H11 C7 1_555 1_555
C8 C3 1_555 1_555
H12 C8 1_555 1_555
C9 Sn1 1_555 1_555
C10 C9 1_555 1_555
H13 C10 1_555 1_555
C11 C10 1_555 1_555
H14 C11 1_555 1_555
C12 C11 1_555 1_555
H15 C12 1_555 1_555
C13 C12 1_555 1_555
H16 C13 1_555 1_555
C14 C9 1_555 1_555
H17 C14 1_555 1_555
C15 Sn1 1_555 1_555
C16 C15 1_555 1_555
H18 C16 1_555 1_555
C17 C16 1_555 1_555
H19 C17 1_555 1_555
C18 C17 1_555 1_555
H20 C18 1_555 1_555
C19 C18 1_555 1_555
H21 C19 1_555 1_555
C20 C15 1_555 1_555
H22 C20 1_555 1_555
C21 Sn2 1_555 1_555
C22 C21 1_555 1_555
H23 C22 1_555 1_555
C23 C22 1_555 1_555
H24 C23 1_555 1_555
C24 C23 1_555 1_555
H25 C24 1_555 1_555
C25 C24 1_555 1_555
H26 C25 1_555 1_555
C26 C21 1_555 1_555
H27 C26 1_555 1_555
C27 Sn2 1_555 1_555
C28 C27 1_555 1_555
H28 C28 1_555 1_555
C29 C28 1_555 1_555
H29 C29 1_555 1_555
C30 C29 1_555 1_555
H30 C30 1_555 1_555
C31 C30 1_555 1_555
H31 C31 1_555 1_555
C32 C27 1_555 1_555
H32 C32 1_555 1_555
C33 Sn2 1_555 1_555
C34 C33 1_555 1_555
H33 C34 1_555 1_555
C35 C34 1_555 1_555
H34 C35 1_555 1_555
C36 C35 1_555 1_555
H35 C36 1_555 1_555
C37 C36 1_555 1_555
H36 C37 1_555 1_555
C38 C33 1_555 1_555
H37 C38 1_555 1_555
C39 H38 1_555 1_555
H39 C39 1_555 1_555
H40 C39 1_555 1_555
C40 C39 1_555 1_555
N2 C40 1_555 1_555
C41 H41 1_555 1_555
H42 C41 1_555 1_555
H43 C41 1_555 1_555
C42 C41 1_555 1_555
N3 C42 1_555 1_555
Sn2C O4 1_555 1_555
O4C Sn2 1_555 1_555
C7 C8 1_555 1_555
C13 C14 1_555 1_555
C19 C20 1_555 1_555
C25 C26 1_555 1_555
C31 C32 1_555 1_555
C37 C38 1_555 1_555

#END
