
#######################################################################
#
#                 Cambridge Crystallographic Data Centre
#                                CCDC 
#
#######################################################################
#
# If this CIF has been generated from an entry in the Cambridge 
# Structural Database, then it will include bibliographic, chemical, 
# crystal, experimental, refinement or atomic coordinate data resulting 
# from the CCDC's data processing and validation procedures.
#
#######################################################################

data_YEDXAG
_symmetry_cell_setting           orthorhombic
_symmetry_space_group_name_H-M   'P n a 21'
_symmetry_Int_Tables_number      33
_space_group_name_Hall           'P 2c -2n'
loop_
_symmetry_equiv_pos_site_id
_symmetry_equiv_pos_as_xyz
1 x,y,z
2 1/2-x,1/2+y,1/2+z
3 1/2+x,1/2-y,z
4 -x,-y,1/2+z
_cell_length_a                   14.609(5)
_cell_length_b                   10.863(4)
_cell_length_c                   13.448(4)
_cell_angle_alpha                90
_cell_angle_beta                 90
_cell_angle_gamma                90
_cell_volume                     2134.16
loop_
_atom_site_label
_atom_site_type_symbol
_atom_site_fract_x
_atom_site_fract_y
_atom_site_fract_z
Sn1 Sn 0.105150(12) -0.407260(15) -0.49999(2)
S1 S 0.35246(5) -0.36324(7) -0.54528(7)
S2 S 0.37558(5) -0.12513(7) -0.47744(7)
O1 O 0.4028(2) -0.4753(2) -0.5354(2)
O2 O 0.26172(13) -0.3631(2) -0.4990(2)
O3 O 0.3012(2) -0.0834(2) -0.5377(2)
O4 O 0.45622(14) -0.0430(2) -0.4795(2)
C1 C 0.3359(3) -0.3311(4) -0.6720(3)
H1 H 0.3027(17) -0.2532(13) -0.6790(3)
H2 H 0.3003(16) -0.3976(13) -0.7025(5)
H3 H 0.3954(3) -0.3245(25) -0.7051(5)
C2 C 0.3390(3) -0.1268(4) -0.3530(3)
H4 H 0.3900(6) -0.1512(24) -0.3100(4)
H5 H 0.2886(13) -0.1857(18) -0.3456(5)
H6 H 0.3178(17) -0.0444(7) -0.3341(7)
N1 N 0.41436(14) -0.2566(2) -0.5013(4)
C3 C 0.1319(2) -0.5993(2) -0.5021(4)
C4 C 0.2075(2) -0.6483(3) -0.4526(3)
H7 H 0.2514(2) -0.5946(3) -0.4237(3)
C5 C 0.2190(3) -0.7748(3) -0.4452(3)
H8 H 0.2700(3) -0.8073(3) -0.4100(3)
C6 C 0.1567(2) -0.8536(3) -0.4889(4)
H9 H 0.1643(2) -0.9402(3) -0.4832(4)
C7 C 0.0834(3) -0.8060(3) -0.5407(3)
H10 H 0.0413(3) -0.8603(3) -0.5720(3)
C8 C 0.0703(2) -0.6809(3) -0.5478(3)
H11 H 0.0194(2) -0.6495(3) -0.5838(3)
C9 C 0.0887(3) -0.3081(4) -0.6351(3)
C10 C 0.0512(3) -0.3628(3) -0.7182(3)
H12 H 0.0322(3) -0.4464(3) -0.7151(3)
C11 C 0.0408(3) -0.2978(4) -0.8061(3)
H13 H 0.0150(3) -0.3370(4) -0.8627(3)
C12 C 0.0678(3) -0.1762(4) -0.8114(3)
H14 H 0.0616(3) -0.1317(4) -0.8718(3)
C13 C 0.1039(3) -0.1198(5) -0.7281(4)
H15 H 0.1217(3) -0.0357(5) -0.7310(4)
C14 C 0.1143(3) -0.1848(4) -0.6407(3)
H16 H 0.1391(3) -0.1451(4) -0.5838(3)
C15 C 0.1117(2) -0.3210(4) -0.3597(3)
C16 C 0.0823(3) -0.2017(4) -0.3429(3)
H17 H 0.0541(3) -0.1566(4) -0.3950(3)
C17 C 0.0940(3) -0.1466(5) -0.2491(4)
H18 H 0.0736(3) -0.0648(5) -0.2377(4)
C18 C 0.1352(3) -0.2120(4) -0.1742(3)
H19 H 0.1436(3) -0.1748(4) -0.1109(3)
C19 C 0.1642(3) -0.3303(4) -0.1896(3)
H20 H 0.1931(3) -0.3746(4) -0.1374(3)
C20 C 0.1512(3) -0.3852(3) -0.2814(3)
H21 H 0.1697(3) -0.4682(3) -0.2910(3)
O4B O -0.04378(14) -0.4570(2) -0.4795(2)
Sn1B Sn 0.605150(12) -0.092740(15) -0.49999(2)
loop_
_geom_bond_atom_site_label_1
_geom_bond_atom_site_label_2
_geom_bond_site_symmetry_1
_geom_bond_site_symmetry_2
Sn1 O2 1_555 1_555
S1 O1 1_555 1_555
S2 O3 1_555 1_555
O2 S1 1_555 1_555
O4 S2 1_555 1_555
C1 S1 1_555 1_555
H1 C1 1_555 1_555
H2 C1 1_555 1_555
H3 C1 1_555 1_555
C2 S2 1_555 1_555
H4 C2 1_555 1_555
H5 C2 1_555 1_555
H6 C2 1_555 1_555
N1 S1 1_555 1_555
C3 Sn1 1_555 1_555
C4 C3 1_555 1_555
H7 C4 1_555 1_555
C5 C4 1_555 1_555
H8 C5 1_555 1_555
C6 C5 1_555 1_555
H9 C6 1_555 1_555
C7 C6 1_555 1_555
H10 C7 1_555 1_555
C8 C3 1_555 1_555
H11 C8 1_555 1_555
C9 Sn1 1_555 1_555
C10 C9 1_555 1_555
H12 C10 1_555 1_555
C11 C10 1_555 1_555
H13 C11 1_555 1_555
C12 C11 1_555 1_555
H14 C12 1_555 1_555
C13 C12 1_555 1_555
H15 C13 1_555 1_555
C14 C9 1_555 1_555
H16 C14 1_555 1_555
C15 Sn1 1_555 1_555
C16 C15 1_555 1_555
H17 C16 1_555 1_555
C17 C16 1_555 1_555
H18 C17 1_555 1_555
C18 C17 1_555 1_555
H19 C18 1_555 1_555
C19 C18 1_555 1_555
H20 C19 1_555 1_555
C20 C15 1_555 1_555
H21 C20 1_555 1_555
O4B Sn1 1_555 1_555
Sn1B O4 1_555 1_555
S2 N1 1_555 1_555
C7 C8 1_555 1_555
C13 C14 1_555 1_555
C19 C20 1_555 1_555

#END
