
#######################################################################
#
#                 Cambridge Crystallographic Data Centre
#                                CCDC 
#
#######################################################################
#
# If this CIF has been generated from an entry in the Cambridge 
# Structural Database, then it will include bibliographic, chemical, 
# crystal, experimental, refinement or atomic coordinate data resulting 
# from the CCDC's data processing and validation procedures.
#
#######################################################################

data_YEDZOY
_symmetry_cell_setting           triclinic
_symmetry_space_group_name_H-M   'P -1'
_symmetry_Int_Tables_number      2
_space_group_name_Hall           '-P 1'
loop_
_symmetry_equiv_pos_site_id
_symmetry_equiv_pos_as_xyz
1 x,y,z
2 -x,-y,-z
_cell_length_a                   9.2220(9)
_cell_length_b                   9.5374(9)
_cell_length_c                   13.5591(13)
_cell_angle_alpha                75.528(4)
_cell_angle_beta                 87.210(5)
_cell_angle_gamma                67.492(4)
_cell_volume                     1065.3
loop_
_atom_site_label
_atom_site_type_symbol
_atom_site_fract_x
_atom_site_fract_y
_atom_site_fract_z
Ag1 Ag 0.05743(3) 0.20295(3) 0.505428(17)
C1 C 0.3751(4) 0.1475(4) 0.9812(2)
C2 C 0.4185(4) 0.0541(4) 1.0801(2)
H1 H 0.3641 0.0895 1.1343
C3 C -0.4793(4) 0.3872(4) 0.0915(2)
H2 H -0.4661 0.3122 0.1529
C4 C -0.3732(4) 0.3547(4) 0.0157(2)
C5 C -0.6043(4) 0.5303(4) 0.0760(2)
H3 H -0.6744 0.5505 0.1272
C6 C 0.4578(4) 0.0920(4) 0.9011(3)
H4 H 0.4302 0.1529 0.8345
N1 N 0.1390(3) 0.3318(3) 0.8761(2)
H5 H 0.1385 0.2516 0.8582
C7 C 0.2430(4) 0.3069(4) 0.9624(3)
H6 H 0.1832 0.3151 1.0230
H7 H 0.2863 0.3875 0.9484
O1 O 0.0319(3) 0.5968(3) 0.84593(18)
C8 C 0.0448(4) 0.4749(4) 0.8241(2)
N2 N -0.1299(3) 0.1675(3) 0.1150(2)
H8 H -0.1245 0.2447 0.1345
C9 C -0.2392(4) 0.1975(4) 0.0301(3)
H9 H -0.2809 0.1158 0.0432
H10 H -0.1829 0.1940 -0.0321
O2 O -0.0432(3) -0.0949(3) 0.13848(19)
C10 C -0.0392(4) 0.0210(4) 0.1620(2)
N3 N -0.0578(3) 0.3738(3) 0.5918(2)
C11 C 0.0189(4) 0.3712(4) 0.6748(2)
H11 H 0.1183 0.2935 0.6942
C12 C -0.0450(4) 0.4801(4) 0.7325(2)
C13 C -0.1915(4) 0.5998(4) 0.7017(3)
H12 H -0.2349 0.6772 0.7369
C14 C -0.2715(4) 0.6007(4) 0.6167(3)
H13 H -0.3709 0.6773 0.5953
C15 C -0.2009(4) 0.4863(4) 0.5649(2)
H14 H -0.2554 0.4874 0.5086
N4 N 0.1328(3) 0.0649(3) 0.3942(2)
C16 C 0.0353(4) 0.0930(4) 0.3138(2)
H15 H -0.0594 0.1794 0.3028
C17 C 0.0729(4) -0.0037(4) 0.2471(2)
C18 C 0.2146(4) -0.1325(4) 0.2632(3)
H16 H 0.2405 -0.2012 0.2212
C19 C 0.3167(4) -0.1568(4) 0.3432(3)
H17 H 0.4142 -0.2396 0.3541
C20 C 0.2712(4) -0.0557(4) 0.4066(3)
H18 H 0.3400 -0.0725 0.4601
N5 N 0.3711(3) -0.0022(3) 0.6502(2)
O3 O 0.3497(3) 0.1387(3) 0.6174(2)
O4 O 0.4981(3) -0.1001(3) 0.6914(2)
O5 O 0.2597(3) -0.0449(3) 0.6398(2)
Ag1A Ag 0.94257(3) -0.20295(3) 1.494572(17)
Ag1A_2 Ag -1.05743(3) 0.79705(3) -0.505428(17)
C1A C 0.6249(4) -0.1475(4) 1.0188(2)
C2A C 0.5815(4) -0.0541(4) 0.9199(2)
H1A H 0.6359 -0.0895 0.8657
C3A C -0.5207(4) 0.6128(4) -0.0915(2)
H2A H -0.5339 0.6878 -0.1529
C4A C -0.6268(4) 0.6453(4) -0.0157(2)
C5A C -0.3957(4) 0.4697(4) -0.0760(2)
H3A H -0.3256 0.4495 -0.1272
C6A C 0.5422(4) -0.0920(4) 1.0989(3)
H4A H 0.5698 -0.1529 1.1655
N1A N 0.8610(3) -0.3318(3) 1.1239(2)
H5A H 0.8615 -0.2516 1.1418
C7A C 0.7570(4) -0.3069(4) 1.0376(3)
H6A H 0.8168 -0.3151 0.9770
H7A H 0.7137 -0.3875 1.0516
O1A O 0.9681(3) -0.5968(3) 1.15407(18)
C8A C 0.9552(4) -0.4749(4) 1.1759(2)
N2A N -0.8701(3) 0.8325(3) -0.1150(2)
H8A H -0.8755 0.7553 -0.1345
C9A C -0.7608(4) 0.8025(4) -0.0301(3)
H9A H -0.7191 0.8842 -0.0432
H10A H -0.8171 0.8060 0.0321
O2A O -0.9568(3) 1.0949(3) -0.13848(19)
C10A C -0.9608(4) 0.9790(4) -0.1620(2)
N3A N 1.0578(3) -0.3738(3) 1.4082(2)
C11A C 0.9811(4) -0.3712(4) 1.3252(2)
H11A H 0.8817 -0.2935 1.3058
C12A C 1.0450(4) -0.4801(4) 1.2675(2)
C13A C 1.1915(4) -0.5998(4) 1.2983(3)
H12A H 1.2349 -0.6772 1.2631
C14A C 1.2715(4) -0.6007(4) 1.3833(3)
H13A H 1.3709 -0.6773 1.4047
C15A C 1.2009(4) -0.4863(4) 1.4351(2)
H14A H 1.2554 -0.4874 1.4914
N4A N -1.1328(3) 0.9351(3) -0.3942(2)
N4A_2 N 0.8672(3) -0.0649(3) 1.6058(2)
C16A C -1.0353(4) 0.9070(4) -0.3138(2)
H15A H -0.9406 0.8206 -0.3028
C17A C -1.0729(4) 1.0037(4) -0.2471(2)
C18A C -1.2146(4) 1.1325(4) -0.2632(3)
H16A H -1.2405 1.2012 -0.2212
C19A C -1.3167(4) 1.1568(4) -0.3432(3)
H17A H -1.4142 1.2396 -0.3541
C20A C -1.2712(4) 1.0557(4) -0.4066(3)
H18A H -1.3400 1.0725 -0.4601
N5A N 0.6289(3) 0.0022(3) 1.3498(2)
O3A O 0.6503(3) -0.1387(3) 1.3826(2)
O4A O 0.5019(3) 0.1001(3) 1.3086(2)
O5A O 0.7403(3) 0.0449(3) 1.3602(2)
O6 O 0.6962(4) 0.3408(3) 0.3920(2)
H19 H 0.7106 0.2600 0.3749
C21 C 0.6382(5) 0.4695(5) 0.3074(3)
H20 H 0.5271 0.4987 0.2973
H21 H 0.6899 0.4418 0.2478
H22 H 0.6578 0.5560 0.3190
loop_
_geom_bond_atom_site_label_1
_geom_bond_atom_site_label_2
_geom_bond_site_symmetry_1
_geom_bond_site_symmetry_2
Ag1 N3 1_555 1_555
C1 C2 1_555 1_555
C2 H1 1_555 1_555
C3 H2 1_555 1_555
C4 C3 1_555 1_555
C5 C3 1_555 1_555
H3 C5 1_555 1_555
C6 C1 1_555 1_555
H4 C6 1_555 1_555
N1 H5 1_555 1_555
C7 C1 1_555 1_555
H6 C7 1_555 1_555
H7 C7 1_555 1_555
O1 C8 1_555 1_555
C8 N1 1_555 1_555
N2 H8 1_555 1_555
C9 C4 1_555 1_555
H9 C9 1_555 1_555
H10 C9 1_555 1_555
O2 C10 1_555 1_555
C10 N2 1_555 1_555
N3 C11 1_555 1_555
C11 H11 1_555 1_555
C12 C8 1_555 1_555
C13 C12 1_555 1_555
H12 C13 1_555 1_555
C14 C13 1_555 1_555
H13 C14 1_555 1_555
C15 N3 1_555 1_555
H14 C15 1_555 1_555
N4 Ag1 1_555 1_555
C16 N4 1_555 1_555
H15 C16 1_555 1_555
C17 C10 1_555 1_555
C18 C17 1_555 1_555
H16 C18 1_555 1_555
C19 C18 1_555 1_555
H17 C19 1_555 1_555
C20 N4 1_555 1_555
H18 C20 1_555 1_555
N5 O3 1_555 1_555
O4 N5 1_555 1_555
O5 Ag1 1_555 1_555
O6 H19 1_555 1_555
C21 O6 1_555 1_555
H20 C21 1_555 1_555
H21 C21 1_555 1_555
H22 C21 1_555 1_555
Ag1A N3A 1_555 1_555
Ag1A_2 N4A 1_555 1_555
C1A C2A 1_555 1_555
C2A C6 1_555 1_555
H1A C2A 1_555 1_555
C3A H2A 1_555 1_555
C4A C5 1_555 1_555
C5A C4 1_555 1_555
H3A C5A 1_555 1_555
C6A C2 1_555 1_555
H4A C6A 1_555 1_555
N1A H5A 1_555 1_555
C7A C1A 1_555 1_555
H6A C7A 1_555 1_555
H7A C7A 1_555 1_555
O1A C8A 1_555 1_555
C8A N1A 1_555 1_555
N2A H8A 1_555 1_555
C9A C4A 1_555 1_555
H9A C9A 1_555 1_555
H10A C9A 1_555 1_555
O2A C10A 1_555 1_555
C10A N2A 1_555 1_555
N3A C11A 1_555 1_555
C11A H11A 1_555 1_555
C12A C8A 1_555 1_555
C13A C12A 1_555 1_555
H12A C13A 1_555 1_555
C14A C13A 1_555 1_555
H13A C14A 1_555 1_555
C15A N3A 1_555 1_555
H14A C15A 1_555 1_555
N4A C16A 1_555 1_555
N4A_2 Ag1A 1_555 1_555
C16A H15A 1_555 1_555
C17A C10A 1_555 1_555
C18A C17A 1_555 1_555
H16A C18A 1_555 1_555
C19A C18A 1_555 1_555
H17A C19A 1_555 1_555
C20A N4A 1_555 1_555
H18A C20A 1_555 1_555
N5A O3A 1_555 1_555
O4A N5A 1_555 1_555
O5A Ag1A 1_555 1_555
N1 C7 1_555 1_555
N2 C9 1_555 1_555
C11 C12 1_555 1_555
C14 C15 1_555 1_555
C16 C17 1_555 1_555
C19 C20 1_555 1_555
N5 O5 1_555 1_555
C1A C6A 1_555 1_555
C3A C4A 1_555 1_555
C3A C5A 1_555 1_555
N1A C7A 1_555 1_555
N2A C9A 1_555 1_555
C11A C12A 1_555 1_555
C14A C15A 1_555 1_555
C16A C17A 1_555 1_555
C19A C20A 1_555 1_555
N5A O5A 1_555 1_555

#END
