
#######################################################################
#
#                 Cambridge Crystallographic Data Centre
#                                CCDC 
#
#######################################################################
#
# If this CIF has been generated from an entry in the Cambridge 
# Structural Database, then it will include bibliographic, chemical, 
# crystal, experimental, refinement or atomic coordinate data resulting 
# from the CCDC's data processing and validation procedures.
#
#######################################################################

data_YEDZEN
_symmetry_cell_setting           monoclinic
_symmetry_space_group_name_H-M   'P 21/c'
_symmetry_Int_Tables_number      14
_space_group_name_Hall           '-P 2ybc'
loop_
_symmetry_equiv_pos_site_id
_symmetry_equiv_pos_as_xyz
1 x,y,z
2 -x,1/2+y,1/2-z
3 -x,-y,-z
4 x,1/2-y,1/2+z
_cell_length_a                   8.9269(4)
_cell_length_b                   9.6590(5)
_cell_length_c                   14.4390(8)
_cell_angle_alpha                90
_cell_angle_beta                 91.073(4)
_cell_angle_gamma                90
_cell_volume                     1244.78
loop_
_atom_site_label
_atom_site_type_symbol
_atom_site_fract_x
_atom_site_fract_y
_atom_site_fract_z
Ni1 Ni 0.5000 0.0000 0.5000
S1 S 0.28322(9) 0.42071(8) 0.38006(5)
N1 N 0.5693(2) 0.0604(2) 0.63466(13)
N2 N 0.6514(2) 0.0421(2) 0.77939(13)
N3 N 1.2849(2) -0.0528(2) 0.55146(14)
N4 N 1.0816(2) -0.0377(2) 0.63661(15)
N5 N 0.4252(3) 0.2023(2) 0.47402(15)
C1 C 0.6019(3) -0.0255(3) 0.70324(17)
H1 H 0.5920 -0.1212 0.6994
C2 C 0.6495(3) 0.1804(3) 0.75906(18)
H2 H 0.6771 0.2526 0.7984
C3 C 0.5991(3) 0.1913(3) 0.66956(18)
H3 H 0.5867 0.2737 0.6371
C4 C 0.7077(3) -0.0248(3) 0.86476(17)
H4 H 0.6675 -0.1179 0.8681
H5 H 0.6723 0.0264 0.9179
C5 C 0.8788(3) -0.0317(3) 0.86943(18)
H6 H 0.9083 -0.0859 0.9233
H7 H 0.9171 0.0614 0.8787
C6 C 0.9540(3) -0.0937(3) 0.78461(19)
H8 H 1.0497 -0.1331 0.8035
H9 H 0.8919 -0.1681 0.7602
C7 C 0.9792(3) 0.0119(3) 0.70837(19)
H10 H 0.8835 0.0350 0.6794
H11 H 1.0201 0.0958 0.7358
C8 C 1.2193(3) 0.0124(3) 0.62003(17)
H12 H 1.2632 0.0848 0.6532
C9 C 1.0558(3) -0.1422(3) 0.57463(19)
H13 H 0.9701 -0.1965 0.5691
C10 C 1.1815(3) -0.1506(3) 0.52251(18)
H14 H 1.1955 -0.2132 0.4745
C11 C 0.3674(3) 0.2937(3) 0.43572(17)
Ni1_2 Ni 1.5000 0.0000 0.5000
Ni1_3 Ni -0.5000 0.0000 0.5000
S1B S 0.71678(9) -0.42071(8) 0.61994(5)
N1B N 0.4307(2) -0.0604(2) 0.36534(13)
N2B N 0.3486(2) -0.0421(2) 0.22061(13)
N3B N -0.2849(2) 0.0528(2) 0.44854(14)
N3_2 N 0.2849(2) -0.0528(2) 0.55146(14)
N3B_2 N 0.7151(2) 0.0528(2) 0.44854(14)
N4B N -0.0816(2) 0.0377(2) 0.36339(15)
N5B N 0.5748(3) -0.2023(2) 0.52598(15)
C1B C 0.3981(3) 0.0255(3) 0.29676(17)
H1B H 0.4080 0.1212 0.3006
C2B C 0.3505(3) -0.1804(3) 0.24094(18)
H2B H 0.3229 -0.2526 0.2016
C3B C 0.4009(3) -0.1913(3) 0.33044(18)
H3B H 0.4133 -0.2737 0.3629
C4B C 0.2923(3) 0.0248(3) 0.13524(17)
H4B H 0.3325 0.1179 0.1319
H5B H 0.3277 -0.0264 0.0821
C5B C 0.1212(3) 0.0317(3) 0.13057(18)
H6B H 0.0917 0.0859 0.0767
H7B H 0.0829 -0.0614 0.1213
C6B C 0.0460(3) 0.0937(3) 0.21539(19)
H8B H -0.0497 0.1331 0.1965
H9B H 0.1081 0.1681 0.2398
C7B C 0.0208(3) -0.0119(3) 0.29163(19)
H10B H 0.1165 -0.0350 0.3206
H11B H -0.0201 -0.0958 0.2642
C8B C -0.2193(3) -0.0124(3) 0.37997(17)
H12B H -0.2632 -0.0848 0.3468
C9B C -0.0558(3) 0.1422(3) 0.42537(19)
H13B H 0.0299 0.1965 0.4309
C10B C -0.1815(3) 0.1506(3) 0.47749(18)
H14B H -0.1955 0.2132 0.5255
C11B C 0.6326(3) -0.2937(3) 0.56428(17)
loop_
_geom_bond_atom_site_label_1
_geom_bond_atom_site_label_2
_geom_bond_site_symmetry_1
_geom_bond_site_symmetry_2
Ni1 N1 1_555 1_555
S1 C11 1_555 1_555
N1 C1 1_555 1_555
N2 C1 1_555 1_555
N3 C8 1_555 1_555
N4 C7 1_555 1_555
N5 Ni1 1_555 1_555
C1 H1 1_555 1_555
C2 N2 1_555 1_555
H2 C2 1_555 1_555
C3 N1 1_555 1_555
H3 C3 1_555 1_555
C4 N2 1_555 1_555
H4 C4 1_555 1_555
H5 C4 1_555 1_555
C5 C4 1_555 1_555
H6 C5 1_555 1_555
H7 C5 1_555 1_555
C6 C5 1_555 1_555
H8 C6 1_555 1_555
H9 C6 1_555 1_555
C7 C6 1_555 1_555
H10 C7 1_555 1_555
H11 C7 1_555 1_555
C8 N4 1_555 1_555
H12 C8 1_555 1_555
C9 N4 1_555 1_555
H13 C9 1_555 1_555
C10 N3 1_555 1_555
H14 C10 1_555 1_555
C11 N5 1_555 1_555
Ni1_2 N3 1_555 1_555
Ni1_3 N3B 1_555 1_555
S1B C11B 1_555 1_555
N1B Ni1 1_555 1_555
N2B C1B 1_555 1_555
N3B C8B 1_555 1_555
N3_2 Ni1 1_555 1_555
N3B_2 Ni1 1_555 1_555
N4B C7B 1_555 1_555
N5B Ni1 1_555 1_555
C1B N1B 1_555 1_555
H1B C1B 1_555 1_555
C2B N2B 1_555 1_555
H2B C2B 1_555 1_555
C3B N1B 1_555 1_555
H3B C3B 1_555 1_555
C4B N2B 1_555 1_555
H4B C4B 1_555 1_555
H5B C4B 1_555 1_555
C5B C4B 1_555 1_555
H6B C5B 1_555 1_555
H7B C5B 1_555 1_555
C6B C5B 1_555 1_555
H8B C6B 1_555 1_555
H9B C6B 1_555 1_555
C7B C6B 1_555 1_555
H10B C7B 1_555 1_555
H11B C7B 1_555 1_555
C8B N4B 1_555 1_555
H12B C8B 1_555 1_555
C9B N4B 1_555 1_555
H13B C9B 1_555 1_555
C10B N3B 1_555 1_555
H14B C10B 1_555 1_555
C11B N5B 1_555 1_555
C2 C3 1_555 1_555
C9 C10 1_555 1_555
C2B C3B 1_555 1_555
C9B C10B 1_555 1_555

#END
