
#######################################################################
#
#                 Cambridge Crystallographic Data Centre
#                                CCDC 
#
#######################################################################
#
# If this CIF has been generated from an entry in the Cambridge 
# Structural Database, then it will include bibliographic, chemical, 
# crystal, experimental, refinement or atomic coordinate data resulting 
# from the CCDC's data processing and validation procedures.
#
#######################################################################

data_YEDZUD
_symmetry_cell_setting           orthorhombic
_symmetry_space_group_name_H-M   'P n m a'
_symmetry_Int_Tables_number      62
_space_group_name_Hall           '-P 2ac 2n'
loop_
_symmetry_equiv_pos_site_id
_symmetry_equiv_pos_as_xyz
1 x,y,z
2 1/2-x,-y,1/2+z
3 -x,1/2+y,-z
4 1/2+x,1/2-y,1/2-z
5 -x,-y,-z
6 1/2+x,y,1/2-z
7 x,1/2-y,z
8 1/2-x,1/2+y,1/2+z
_cell_length_a                   12.5812(3)
_cell_length_b                   11.0509(3)
_cell_length_c                   12.6024(3)
_cell_angle_alpha                90
_cell_angle_beta                 90
_cell_angle_gamma                90
_cell_volume                     1752.16
loop_
_atom_site_label
_atom_site_type_symbol
_atom_site_fract_x
_atom_site_fract_y
_atom_site_fract_z
Cs1 Cs 0.68069(3) 0.2500 0.66245(3)
Cs2 Cs 0.95906(2) 0.00768(2) 0.66158(2)
Na1 Na 0.5000 0.0000 0.5000
Na2 Na 0.73486(12) 0.00181(12) 0.41754(11)
C1 C 0.6791(3) -0.0706(4) 0.6696(3)
H1 H 0.6570 -0.1525 0.6762
O1 O 0.6608(3) -0.0238(3) 0.5840(2)
O2 O 0.7211(3) -0.0284(4) 0.7467(3)
C2 C 0.8986(5) -0.2500 0.8641(5)
H2 H 0.8783 -0.2500 0.7914
O3 O 0.9093(2) -0.1489(3) 0.9025(3)
C3 C 0.4057(4) 0.2500 0.5962(4)
H3 H 0.3742 0.2500 0.5277
O4 O 0.4236(3) 0.1483(3) 0.6353(2)
C4 C 0.8688(5) 0.2500 0.4418(5)
H4 H 0.8835 0.2500 0.3679
O5 O 0.8606(2) 0.1491(3) 0.4830(3)
C5 C 1.1395(5) 0.2500 0.5225(6)
H5 H 1.1458 0.2500 0.4474
O6 O 1.1363(3) 0.1506(3) 0.5604(4)
Cs1E Cs 1.18069(3) 0.2500 0.83755(3)
Cs1D Cs 0.31931(3) -0.2500 0.33755(3)
Cs2F Cs 0.95906(2) 0.49232(2) 0.66158(2)
Cs2E Cs 0.45906(2) 0.00768(2) 0.83842(2)
Cs2C Cs 0.45906(2) 0.49232(2) 0.83842(2)
Cs2D Cs 1.04094(2) -0.00768(2) 0.33842(2)
Cs2A Cs 0.54094(2) -0.00768(2) 0.16158(2)
Cs2F_2 Cs 0.95906(2) -0.50768(2) 0.66158(2)
Cs2B Cs 1.04094(2) 0.50768(2) 0.33842(2)
Cs2G Cs 0.54094(2) 0.50768(2) 0.16158(2)
Na1F Na 0.5000 0.5000 0.5000
Na1E Na 1.0000 0.0000 1.0000
Na1G Na 1.0000 -0.5000 1.0000
Na2F Na 0.73486(12) 0.49819(12) 0.41754(11)
Na2D Na 1.26514(12) -0.00181(12) 0.58246(11)
Na2A Na 0.76514(12) -0.00181(12) 0.91754(11)
Na2D_2 Na 0.26514(12) -0.00181(12) 0.58246(11)
Na2G Na 0.76514(12) -0.49819(12) 0.91754(11)
Na2B Na 0.26514(12) 0.50181(12) 0.58246(11)
Na2B_2 Na 1.26514(12) 0.50181(12) 0.58246(11)
Na2G_2 Na 0.76514(12) 0.50181(12) 0.91754(11)
C1F C 0.6791(3) 0.5706(4) 0.6696(3)
H1F H 0.6570 0.6525 0.6762
O1F O 0.6608(3) 0.5238(3) 0.5840(2)
O1D O 0.3392(3) 0.0238(3) 0.4160(2)
O2F O 0.7211(3) 0.5284(4) 0.7467(3)
O2E O 1.2211(3) -0.0284(4) 0.7533(3)
O2A O 0.7789(3) 0.0284(4) 0.2467(3)
O2C O 1.2211(3) 0.5284(4) 0.7533(3)
O2G O 0.7789(3) 0.4716(4) 0.2467(3)
O3F O 0.9093(2) -0.3511(3) 0.9025(3)
O3E O 0.4093(2) -0.1489(3) 0.5975(3)
O3A O 0.5907(2) 0.1489(3) 0.4025(3)
O3F_2 O 0.9093(2) 0.6489(3) 0.9025(3)
O3G O 0.5907(2) 0.3511(3) 0.4025(3)
O4F O 0.4236(3) 0.3517(3) 0.6353(2)
O4E O 0.9236(3) 0.1483(3) 0.8647(2)
O4D O 0.5764(3) -0.1483(3) 0.3647(2)
O4C O 0.9236(3) 0.3517(3) 0.8647(2)
O4B O 0.5764(3) 0.6483(3) 0.3647(2)
O5F O 0.8606(2) 0.3509(3) 0.4830(3)
O5D O 1.1394(2) -0.1491(3) 0.5170(3)
O5B O 1.1394(2) 0.6491(3) 0.5170(3)
O6F O 1.1363(3) 0.3494(3) 0.5604(4)
O6D O 0.8637(3) -0.1506(3) 0.4396(4)
O6B O 0.8637(3) 0.6506(3) 0.4396(4)
loop_
_geom_bond_atom_site_label_1
_geom_bond_atom_site_label_2
_geom_bond_site_symmetry_1
_geom_bond_site_symmetry_2
Cs1 O1 1_555 1_555
Cs2 O2 1_555 1_555
Na1 O1 1_555 1_555
Na2 O1 1_555 1_555
C1 H1 1_555 1_555
O1 C1 1_555 1_555
O2 Cs1 1_555 1_555
C2 H2 1_555 1_555
O3 Cs2 1_555 1_555
C3 H3 1_555 1_555
O4 Cs1 1_555 1_555
C4 H4 1_555 1_555
O5 Cs1 1_555 1_555
C5 H5 1_555 1_555
O6 Cs2 1_555 1_555
Cs1E O2E 1_555 1_555
Cs1D O1D 1_555 1_555
Cs2F O2F 1_555 1_555
Cs2E O2 1_555 1_555
Cs2C O2F 1_555 1_555
Cs2D O5 1_555 1_555
Cs2A O2A 1_555 1_555
Cs2F_2 O3F 1_555 1_555
Cs2B O2G 1_555 1_555
Cs2G O2G 1_555 1_555
Na1F O1F 1_555 1_555
Na1E O3 1_555 1_555
Na1G O3F 1_555 1_555
Na2F O1F 1_555 1_555
Na2D O6 1_555 1_555
Na2A O2 1_555 1_555
Na2D_2 O4 1_555 1_555
Na2G O3F 1_555 1_555
Na2B O4F 1_555 1_555
Na2B_2 O2C 1_555 1_555
Na2G_2 O2F 1_555 1_555
C1F H1F 1_555 1_555
O1F Cs1 1_555 1_555
O1D Na1 1_555 1_555
O2F Cs1 1_555 1_555
O2E Cs2 1_555 1_555
O2A Na2 1_555 1_555
O2C Cs1E 1_555 1_555
O2G Na2F 1_555 1_555
O3F C2 1_555 1_555
O3E Na1 1_555 1_555
O3A Na1 1_555 1_555
O3F_2 Cs2F 1_555 1_555
O3G Cs2G 1_555 1_555
O4F Cs1 1_555 1_555
O4E Cs2 1_555 1_555
O4D Na1 1_555 1_555
O4C Cs1E 1_555 1_555
O4B Cs2G 1_555 1_555
O5F Cs1 1_555 1_555
O5D Cs2 1_555 1_555
O5B Cs2F 1_555 1_555
O6F C5 1_555 1_555
O6D Cs2 1_555 1_555
O6B Cs2F 1_555 1_555
Cs2 O5 1_555 1_555
Na1 O4 1_555 1_555
Na2 O5 1_555 1_555
Na2 O3A 1_555 1_555
Na2 O4D 1_555 1_555
Na2 O6D 1_555 1_555
C1 O2 1_555 1_555
C2 O3 1_555 1_555
O3 Na2A 1_555 1_555
C3 O4 1_555 1_555
C3 O4F 1_555 1_555
O4 Cs2E 1_555 1_555
C4 O5 1_555 1_555
C4 O5F 1_555 1_555
C5 O6 1_555 1_555
O6 Cs2D 1_555 1_555
Cs1E O4E 1_555 1_555
Cs1D O4D 1_555 1_555
Cs2F O2C 1_555 1_555
Cs2F O4C 1_555 1_555
Cs2F O5F 1_555 1_555
Cs2F O6F 1_555 1_555
Cs2E O3E 1_555 1_555
Cs2C O4F 1_555 1_555
Cs2D O2A 1_555 1_555
Cs2D O5D 1_555 1_555
Cs2D O6D 1_555 1_555
Cs2A O3A 1_555 1_555
Cs2A O4D 1_555 1_555
Cs2B O5F 1_555 1_555
Cs2B O5B 1_555 1_555
Cs2B O6F 1_555 1_555
Cs2B O6B 1_555 1_555
Na1F O3G 1_555 1_555
Na1F O4F 1_555 1_555
Na1F O4B 1_555 1_555
Na1E O4E 1_555 1_555
Na2F O3G 1_555 1_555
Na2F O4B 1_555 1_555
Na2F O5F 1_555 1_555
Na2F O6B 1_555 1_555
Na2D O2E 1_555 1_555
Na2D O5D 1_555 1_555
Na2A O4E 1_555 1_555
Na2D_2 O1D 1_555 1_555
Na2D_2 O3E 1_555 1_555
Na2B_2 O5B 1_555 1_555
Na2B_2 O6F 1_555 1_555
Na2G_2 O3F_2 1_555 1_555
Na2G_2 O4C 1_555 1_555
C1F O1F 1_555 1_555
C1F O2F 1_555 1_555

#END
