
#######################################################################
#
#                 Cambridge Crystallographic Data Centre
#                                CCDC 
#
#######################################################################
#
# If this CIF has been generated from an entry in the Cambridge 
# Structural Database, then it will include bibliographic, chemical, 
# crystal, experimental, refinement or atomic coordinate data resulting 
# from the CCDC's data processing and validation procedures.
#
#######################################################################

data_YEFLIF02
_symmetry_cell_setting           monoclinic
_symmetry_space_group_name_H-M   'C 2/c'
_symmetry_Int_Tables_number      15
_space_group_name_Hall           '-C 2yn'
loop_
_symmetry_equiv_pos_site_id
_symmetry_equiv_pos_as_xyz
1 x,y,z
2 -x,y,1/2-z
3 1/2+x,1/2+y,z
4 1/2-x,1/2+y,1/2-z
5 -x,-y,-z
6 x,-y,1/2+z
7 1/2-x,1/2-y,-z
8 1/2+x,1/2-y,1/2+z
_cell_length_a                   10.1529(4)
_cell_length_b                   17.6677(6)
_cell_length_c                   7.0408(3)
_cell_angle_alpha                90
_cell_angle_beta                 133.0340(11)
_cell_angle_gamma                90
_cell_volume                     923.165
loop_
_atom_site_label
_atom_site_type_symbol
_atom_site_fract_x
_atom_site_fract_y
_atom_site_fract_z
C1 C 0.5000 0.86899(6) 0.2500
C2 C 0.5000 0.78294(6) 0.2500
C3 C 0.43623(11) 0.74346(5) 0.02996(15)
H1 H 0.3950 0.7692 -0.1173
C4 C 0.43523(12) 0.66514(5) 0.03413(16)
C5 C 0.5000 0.62365(7) 0.2500
H2 H 0.5000 0.5710 0.2500
N1 N 0.35818(13) 0.62389(5) -0.20365(17)
O1 O 0.52790(14) 0.90074(4) 0.43224(16)
O2 O 0.29487(14) 0.66054(5) -0.39705(16)
O3 O 0.35660(18) 0.55481(5) -0.1993(2)
K1 K 0.5000 1.045422(14) 0.2500
C3A C 0.56377(11) 0.74346(5) 0.47004(15)
H1A H 0.6050 0.7692 0.6173
C4A C 0.56477(12) 0.66514(5) 0.46587(16)
N1A N 0.64182(13) 0.62389(5) 0.70365(17)
O1A O 0.47210(14) 0.90074(4) 0.06776(16)
O2A O 0.70513(14) 0.66054(5) 0.89705(16)
O3A O 0.64340(18) 0.55481(5) 0.6993(2)
O1D O 0.47210(14) 1.09926(4) 0.56776(16)
O1E O 0.52790(14) 1.09926(4) -0.06776(16)
O2B O 0.79487(14) 1.16054(5) 0.60295(16)
O2C O 0.20513(14) 1.16054(5) -0.10295(16)
O3B O 0.85660(18) 1.05481(5) 0.8007(2)
O3C O 0.14340(18) 1.05481(5) -0.3007(2)
K1B K 0.0000 0.545422(14) -0.7500
K1B_2 K 1.0000 0.545422(14) 1.2500
K1D K 0.5000 0.954578(14) -0.2500
K1D_2 K 0.5000 0.954578(14) 0.7500
loop_
_geom_bond_atom_site_label_1
_geom_bond_atom_site_label_2
_geom_bond_site_symmetry_1
_geom_bond_site_symmetry_2
C1 C2 1_555 1_555
C2 C3 1_555 1_555
C3 H1 1_555 1_555
C4 C3 1_555 1_555
C5 C4 1_555 1_555
H2 C5 1_555 1_555
N1 C4 1_555 1_555
O1 C1 1_555 1_555
O2 N1 1_555 1_555
O3 N1 1_555 1_555
K1 O1 1_555 1_555
C3A C2 1_555 1_555
H1A C3A 1_555 1_555
C4A C5 1_555 1_555
N1A C4A 1_555 1_555
O1A C1 1_555 1_555
O2A N1A 1_555 1_555
O3A N1A 1_555 1_555
O1D K1 1_555 1_555
O1E K1 1_555 1_555
O2B K1 1_555 1_555
O2C K1 1_555 1_555
O3B K1 1_555 1_555
O3C K1 1_555 1_555
K1B O2 1_555 1_555
K1B_2 O2A 1_555 1_555
K1D O1A 1_555 1_555
K1D_2 O1 1_555 1_555
O3 K1B 1_555 1_555
K1 O1A 1_555 1_555
C3A C4A 1_555 1_555
O3A K1B_2 1_555 1_555
O1D K1D_2 1_555 1_555
O1E K1D 1_555 1_555

#END
