
#######################################################################
#
#                 Cambridge Crystallographic Data Centre
#                                CCDC 
#
#######################################################################
#
# If this CIF has been generated from an entry in the Cambridge 
# Structural Database, then it will include bibliographic, chemical, 
# crystal, experimental, refinement or atomic coordinate data resulting 
# from the CCDC's data processing and validation procedures.
#
#######################################################################

data_YEFLIF
_symmetry_cell_setting           monoclinic
_symmetry_space_group_name_H-M   'C 2/c'
_symmetry_Int_Tables_number      15
_space_group_name_Hall           '-C 2yn'
loop_
_symmetry_equiv_pos_site_id
_symmetry_equiv_pos_as_xyz
1 x,y,z
2 1/2+x,1/2+y,z
3 -x,y,1/2-z
4 1/2-x,1/2+y,1/2-z
5 -x,-y,-z
6 1/2-x,1/2-y,-z
7 x,-y,1/2+z
8 1/2+x,1/2-y,1/2+z
_cell_length_a                   10.150(3)
_cell_length_b                   17.715(4)
_cell_length_c                   7.066(2)
_cell_angle_alpha                90
_cell_angle_beta                 133.075(3)
_cell_angle_gamma                90
_cell_volume                     928.063
loop_
_atom_site_label
_atom_site_type_symbol
_atom_site_fract_x
_atom_site_fract_y
_atom_site_fract_z
K1 K 0.5000 0.54552(4) 0.2500
N1 N 0.3593(4) 0.12417(16) -0.2004(5)
O1 O 0.4719(4) 0.40028(12) 0.0686(5)
O2 O 0.2967(4) 0.16050(15) -0.3929(5)
O3 O 0.3584(4) 0.05531(14) -0.1966(6)
C1 C 0.5000 0.3686(2) 0.2500
C2 C 0.5000 0.2828(2) 0.2500
C3 C 0.4371(4) 0.24349(17) 0.0323(5)
H1 H 0.3964 0.2693 -0.1140
C4 C 0.4355(4) 0.16532(16) 0.0351(5)
C5 C 0.5000 0.1243(2) 0.2500
H2 H 0.5000 0.0718 0.2500
K1F K 0.5000 0.45448(4) -0.2500
K1F_2 K 0.5000 0.45448(4) 0.7500
K1A K 0.0000 0.04552(4) -0.7500
K1A_2 K 1.0000 0.04552(4) 1.2500
N1B N 0.6407(4) 0.12417(16) 0.7004(5)
O1B O 0.5281(4) 0.40028(12) 0.4314(5)
O1F O 0.4719(4) 0.59972(12) 0.5686(5)
O1D O 0.5281(4) 0.59972(12) -0.0686(5)
O2B O 0.7033(4) 0.16050(15) 0.8929(5)
O2A O 0.7967(4) 0.66050(15) 0.6071(5)
O2C O 0.2033(4) 0.66050(15) -0.1071(5)
O3B O 0.6416(4) 0.05531(14) 0.6966(6)
O3A O 0.8584(4) 0.55531(14) 0.8034(6)
O3C O 0.1416(4) 0.55531(14) -0.3034(6)
C3B C 0.5629(4) 0.24349(17) 0.4677(5)
H1B H 0.6036 0.2693 0.6140
C4B C 0.5645(4) 0.16532(16) 0.4649(5)
loop_
_geom_bond_atom_site_label_1
_geom_bond_atom_site_label_2
_geom_bond_site_symmetry_1
_geom_bond_site_symmetry_2
K1 O1 1_555 1_555
N1 O2 1_555 1_555
O1 C1 1_555 1_555
O2 K1A 1_555 1_555
O3 N1 1_555 1_555
C1 C2 1_555 1_555
C2 C3 1_555 1_555
C3 H1 1_555 1_555
C4 N1 1_555 1_555
C5 C4 1_555 1_555
H2 C5 1_555 1_555
K1F O1 1_555 1_555
K1F_2 O1B 1_555 1_555
K1A O3 1_555 1_555
K1A_2 O2B 1_555 1_555
N1B O2B 1_555 1_555
O1B K1 1_555 1_555
O1F K1 1_555 1_555
O1D K1 1_555 1_555
O2A K1 1_555 1_555
O2C K1 1_555 1_555
O3B K1A_2 1_555 1_555
O3A K1 1_555 1_555
O3C K1 1_555 1_555
C3B C2 1_555 1_555
H1B C3B 1_555 1_555
C4B C5 1_555 1_555
C1 O1B 1_555 1_555
C3 C4 1_555 1_555
K1F O1D 1_555 1_555
K1F_2 O1F 1_555 1_555
N1B O3B 1_555 1_555
N1B C4B 1_555 1_555
C3B C4B 1_555 1_555

#END
