
#######################################################################
#
#                 Cambridge Crystallographic Data Centre
#                                CCDC 
#
#######################################################################
#
# If this CIF has been generated from an entry in the Cambridge 
# Structural Database, then it will include bibliographic, chemical, 
# crystal, experimental, refinement or atomic coordinate data resulting 
# from the CCDC's data processing and validation procedures.
#
#######################################################################

data_YEGBAP
_symmetry_cell_setting           triclinic
_symmetry_space_group_name_H-M   'P -1'
_symmetry_Int_Tables_number      2
_space_group_name_Hall           '-P 1'
loop_
_symmetry_equiv_pos_site_id
_symmetry_equiv_pos_as_xyz
1 x,y,z
2 -x,-y,-z
_cell_length_a                   9.0129(3)
_cell_length_b                   10.0591(4)
_cell_length_c                   10.1818(4)
_cell_angle_alpha                85.3710(10)
_cell_angle_beta                 81.9850(10)
_cell_angle_gamma                77.6700(10)
_cell_volume                     891.759
loop_
_atom_site_label
_atom_site_type_symbol
_atom_site_fract_x
_atom_site_fract_y
_atom_site_fract_z
Pb1 Pb 0.41443(3) 0.10368(3) 0.65429(3)
Pb2 Pb 0.51033(3) 0.21104(3) 1.00416(3)
Pb3 Pb 0.32059(3) -0.37354(3) 0.65153(3)
O1 O 0.2919(6) -0.0975(6) 0.6995(6)
O2 O 0.1005(6) -0.1874(6) 0.6586(6)
O3 O 0.3103(6) 0.3564(6) 0.6241(6)
O4 O 0.1071(7) 0.5239(6) 0.6459(6)
O5 O 0.3449(6) 0.1581(6) 0.8816(5)
O6 O 0.4217(7) 0.4339(6) 0.9014(6)
O7 O 0.2369(8) 0.6203(6) 0.8968(6)
O8 O 0.3060(7) 0.1053(6) 1.4152(5)
O9 O 0.4050(6) 0.0733(6) 1.2041(5)
N1 N 0.1200(7) 0.1638(6) 0.7031(6)
N2 N 0.2520(7) 0.3171(7) 1.1138(6)
C1 C 0.1584(9) -0.0869(8) 0.6739(7)
C2 C 0.0584(9) 0.0552(8) 0.6534(8)
H1 H -0.053(11) 0.062(10) 0.697(10)
H2 H 0.067(11) 0.070(10) 0.554(10)
C3 C 0.1679(9) 0.3983(8) 0.6368(7)
C4 C 0.0611(9) 0.2982(8) 0.6395(8)
H3 H -0.0397 0.3379 0.6880
H4 H 0.0455 0.2859 0.5473
C5 C 0.0844(9) 0.1632(9) 0.8505(8)
H5 H -0.021(11) 0.202(10) 0.874(9)
H6 H 0.077(11) 0.069(10) 0.876(9)
C6 C 0.1922(9) 0.2343(8) 0.9096(8)
H7 H 0.172(11) 0.328(10) 0.876(9)
C7 C 0.1492(9) 0.2443(9) 1.0575(8)
H8 H 0.174(11) 0.153(10) 1.099(9)
H9 H 0.031(11) 0.281(10) 1.075(9)
C8 C 0.2983(10) 0.5085(8) 0.9494(8)
C9 C 0.2168(11) 0.4652(8) 1.0809(8)
H10 H 0.250(12) 0.499(11) 1.141(10)
H11 H 0.091(12) 0.498(10) 1.080(10)
C10 C 0.3222(9) 0.1455(8) 1.2968(8)
C11 C 0.2424(9) 0.2869(8) 1.2607(7)
H12 H 0.301(11) 0.357(10) 1.291(9)
H13 H 0.134(11) 0.286(10) 1.295(9)
O10 O 0.3239(8) -0.2231(7) 0.4175(6)
O11 O 0.2922(7) -0.2710(7) 0.2221(6)
O12 O 0.3280(8) -0.4304(7) 0.3777(6)
N3 N 0.3164(8) -0.3085(7) 0.3378(7)
Pb1_2 Pb 0.41443(3) 0.10368(3) 1.65429(3)
Pb1A Pb 0.58557(3) -0.10368(3) 1.34571(3)
Pb3_2 Pb 0.32059(3) 0.62646(3) 0.65153(3)
O4_2 O 0.1071(7) -0.4761(6) 0.6459(6)
O7_2 O 0.2369(8) -0.3797(6) 0.8968(6)
O8_2 O 0.3060(7) 0.1053(6) 0.4152(5)
O9A O 0.5950(6) -0.0733(6) 0.7959(5)
loop_
_geom_bond_atom_site_label_1
_geom_bond_atom_site_label_2
_geom_bond_site_symmetry_1
_geom_bond_site_symmetry_2
Pb1 O1 1_555 1_555
Pb2 O5 1_555 1_555
Pb3 O2 1_555 1_555
O1 C1 1_555 1_555
O2 C1 1_555 1_555
O3 Pb1 1_555 1_555
O4 C3 1_555 1_555
O5 Pb1 1_555 1_555
O6 Pb2 1_555 1_555
O7 C8 1_555 1_555
O8 C10 1_555 1_555
O9 Pb2 1_555 1_555
N1 Pb1 1_555 1_555
N2 Pb2 1_555 1_555
C1 C2 1_555 1_555
C2 N1 1_555 1_555
H1 C2 1_555 1_555
H2 C2 1_555 1_555
C3 O3 1_555 1_555
C4 N1 1_555 1_555
H3 C4 1_555 1_555
H4 C4 1_555 1_555
C5 N1 1_555 1_555
H5 C5 1_555 1_555
H6 C5 1_555 1_555
C6 O5 1_555 1_555
H7 C6 1_555 1_555
C7 N2 1_555 1_555
H8 C7 1_555 1_555
H9 C7 1_555 1_555
C8 O6 1_555 1_555
C9 N2 1_555 1_555
H10 C9 1_555 1_555
H11 C9 1_555 1_555
C10 O9 1_555 1_555
C11 N2 1_555 1_555
H12 C11 1_555 1_555
H13 C11 1_555 1_555
O10 Pb3 1_555 1_555
O11 N3 1_555 1_555
O12 N3 1_555 1_555
N3 O10 1_555 1_555
Pb1_2 O8 1_555 1_555
Pb1A O9 1_555 1_555
Pb3_2 O4 1_555 1_555
O4_2 Pb3 1_555 1_555
O7_2 Pb3 1_555 1_555
O8_2 Pb1 1_555 1_555
O9A Pb1 1_555 1_555
O7 Pb3_2 1_555 1_555
C3 C4 1_555 1_555
C5 C6 1_555 1_555
C6 C7 1_555 1_555
C8 C9 1_555 1_555
C10 C11 1_555 1_555

#END
