
#######################################################################
#
#                 Cambridge Crystallographic Data Centre
#                                CCDC 
#
#######################################################################
#
# If this CIF has been generated from an entry in the Cambridge 
# Structural Database, then it will include bibliographic, chemical, 
# crystal, experimental, refinement or atomic coordinate data resulting 
# from the CCDC's data processing and validation procedures.
#
#######################################################################

data_YEGCIY
_symmetry_cell_setting           triclinic
_symmetry_space_group_name_H-M   'P -1'
_symmetry_Int_Tables_number      2
_space_group_name_Hall           '-P 1'
loop_
_symmetry_equiv_pos_site_id
_symmetry_equiv_pos_as_xyz
1 x,y,z
2 -x,-y,-z
_cell_length_a                   9.6461(14)
_cell_length_b                   14.257(2)
_cell_length_c                   14.544(2)
_cell_angle_alpha                109.208(2)
_cell_angle_beta                 105.505(2)
_cell_angle_gamma                92.453(2)
_cell_volume                     1801.18
loop_
_atom_site_label
_atom_site_type_symbol
_atom_site_fract_x
_atom_site_fract_y
_atom_site_fract_z
Mn1 Mn 0.5000 0.0000 0.5000
Mn2 Mn 0.48888(5) 0.19312(3) 0.38438(4)
N1 N 0.4158(3) 0.1251(2) 0.2125(2)
N2 N 0.2721(4) 0.0800(3) 0.0551(2)
N3 N 0.5548(3) 0.3445(2) 0.3846(2)
N4 N 0.7068(5) 0.4848(2) 0.4428(3)
O1 O 0.5411(3) 0.26088(17) 0.54501(17)
O2 O 0.5250(3) 0.14456(16) 0.61556(18)
O3 O 0.8156(4) 0.6539(2) 0.9166(2)
O4 O 0.8402(3) 0.57833(19) 0.7626(2)
H1 H 0.8705 0.6357 0.7698
O5 O 0.3574(2) 0.05416(16) 0.38364(17)
O6 O 0.2412(2) 0.18049(16) 0.36955(18)
O7 O -0.3285(3) 0.04088(19) 0.4511(2)
O8 O -0.2988(2) 0.15084(18) 0.37827(19)
C1 C 0.6094(3) 0.3127(2) 0.7243(2)
C2 C 0.6700(4) 0.4069(2) 0.7346(3)
H6 H 0.6702 0.4218 0.6770
C3 C 0.7302(4) 0.4789(2) 0.8307(3)
C4 C 0.7260(4) 0.4577(3) 0.9163(3)
H7 H 0.7635 0.5073 0.9804
C5 C 0.6665(4) 0.3632(3) 0.9085(3)
C6 C 0.6097(4) 0.2918(3) 0.8107(3)
H8 H 0.5708 0.2280 0.8033
C7 C 0.5527(3) 0.2329(2) 0.6198(3)
C8 C 0.7996(4) 0.5793(3) 0.8431(3)
C9 C 0.6694(7) 0.3352(5) 1.0018(4)
C10 C 0.7344(8) 0.4190(5) 1.1006(4)
H9 H 0.6698 0.4684 1.1090
H10 H 0.8258 0.4491 1.1013
H11 H 0.7498 0.3935 1.1555
C11 C 0.7856(7) 0.2576(5) 1.0050(4)
H12 H 0.7970 0.2401 1.0647
H13 H 0.8775 0.2883 1.0071
H14 H 0.7516 0.1982 0.9452
C12 C 0.5330(7) 0.2779(5) 0.9912(4)
H15 H 0.5429 0.2597 1.0504
H16 H 0.5105 0.2182 0.9315
H17 H 0.4561 0.3181 0.9848
C13 C 0.1010(3) 0.0336(2) 0.3602(2)
C14 C 0.0886(3) -0.0698(2) 0.3323(2)
H18 H 0.1668 -0.1019 0.3190
C15 C -0.0389(3) -0.1273(2) 0.3236(3)
C16 C -0.1494(3) -0.0758(2) 0.3500(3)
H19 H -0.2325 -0.1116 0.3498
C17 C -0.1395(3) 0.0278(2) 0.3768(2)
C18 C -0.0150(3) 0.0826(2) 0.3797(2)
H20 H -0.0094 0.1516 0.3945
C19 C 0.2405(3) 0.0931(2) 0.3720(2)
C20 C -0.2645(3) 0.0766(2) 0.4041(2)
C21 C -0.0515(4) -0.2425(2) 0.2888(3)
C22 C -0.0246(6) -0.2828(3) 0.1848(3)
H21 H -0.0985 -0.2669 0.1354
H22 H -0.0274 -0.3543 0.1642
H23 H 0.0691 -0.2525 0.1895
C23 C -0.1997(5) -0.2910(3) 0.2825(4)
H24 H -0.2148 -0.2668 0.3485
H25 H -0.2029 -0.3626 0.2605
H26 H -0.2747 -0.2741 0.2346
C24 C 0.0643(5) -0.2717(3) 0.3657(3)
H27 H 0.1587 -0.2404 0.3730
H28 H 0.0612 -0.3433 0.3417
H29 H 0.0456 -0.2498 0.4305
C25 C 0.4497(5) 0.0384(3) 0.1542(3)
H30 H 0.5227 0.0042 0.1780
C26 C 0.3633(5) 0.0091(4) 0.0576(3)
H31 H 0.3650 -0.0477 0.0035
C27 C 0.3079(4) 0.1468(3) 0.1492(3)
H32 H 0.2616 0.2028 0.1683
C28 C 0.1460(5) 0.0752(4) -0.0299(4)
H33 H 0.1740 0.0580 -0.0921
H34 H 0.1140 0.1406 -0.0171
C29 C 0.0229(6) -0.0009(5) -0.0441(4)
H35 H -0.0608 0.0058 -0.0948
H36 H 0.0492 -0.0669 -0.0728
C30 C 0.5336(5) 0.3882(3) 0.3121(4)
H37 H 0.4649 0.3624 0.2481
C31 C 0.6263(5) 0.4735(3) 0.3470(4)
H38 H 0.6338 0.5167 0.3121
C32 C 0.6607(6) 0.4055(3) 0.4613(3)
H39 H 0.6993 0.3945 0.5220
C33 C 0.8284(7) 0.5644(4) 0.5118(4)
H40 H 0.8389 0.5698 0.5816
H41 H 0.8057 0.6280 0.5055
C34 C 0.9697(8) 0.5449(5) 0.4897(5)
H42 H 1.0412 0.6041 0.5306
H43 H 0.9566 0.5355 0.4186
Mn1_2 Mn -0.5000 0.0000 0.5000
Mn1_3 Mn 1.5000 0.0000 0.5000
Mn2A Mn 0.51112(5) -0.19312(3) 0.61562(4)
Mn2_2 Mn -0.51112(5) 0.19312(3) 0.38438(4)
Mn2A_2 Mn -0.48888(5) -0.19312(3) -0.38438(4)
Mn2A_3 Mn 1.51112(5) 0.80688(3) 0.61562(4)
Mn2A_4 Mn 1.51112(5) -0.19312(3) 0.61562(4)
N1A N -0.4158(3) -0.1251(2) -0.2125(2)
N1A_2 N 0.5842(3) -0.1251(2) 0.7875(2)
N2A N -0.2721(4) -0.0800(3) -0.0551(2)
N3A N 1.4452(3) 0.6555(2) 0.6154(2)
N3A_2 N 0.4452(3) -0.3445(2) 0.6154(2)
N4A N 1.2932(5) 0.5152(2) 0.5572(3)
O1A O 0.4589(3) -0.26088(17) 0.45499(17)
O2A O 0.4750(3) -0.14456(16) 0.38444(18)
O3A O 0.1844(4) -0.6539(2) 0.0834(2)
O4A O 0.1598(3) -0.57833(19) 0.2374(2)
H1A H 0.1295 -0.6357 0.2302
O5A O 0.6426(2) -0.05416(16) 0.61636(17)
O6A O 0.7588(2) -0.18049(16) 0.63045(18)
O7A O 1.3285(3) -0.04088(19) 0.5489(2)
O7_2 O 0.6715(3) 0.04088(19) 0.4511(2)
O7A_2 O 0.3285(3) -0.04088(19) 0.5489(2)
O8A O 1.2988(2) -0.15084(18) 0.62173(19)
O8_2 O 0.7012(2) 0.15084(18) 0.37827(19)
O8A_2 O 0.2988(2) -0.15084(18) 0.62173(19)
C1A C 0.3906(3) -0.3127(2) 0.2757(2)
C2A C 0.3300(4) -0.4069(2) 0.2654(3)
H6A H 0.3298 -0.4218 0.3230
C3A C 0.2698(4) -0.4789(2) 0.1693(3)
C4A C 0.2740(4) -0.4577(3) 0.0837(3)
H7A H 0.2365 -0.5073 0.0196
C5A C 0.3335(4) -0.3632(3) 0.0915(3)
C6A C 0.3903(4) -0.2918(3) 0.1893(3)
H8A H 0.4292 -0.2280 0.1967
C7A C 0.4473(3) -0.2329(2) 0.3802(3)
C8A C 0.2004(4) -0.5793(3) 0.1569(3)
C9A C 0.3306(7) -0.3352(5) -0.0018(4)
C10A C 0.2656(8) -0.4190(5) -0.1006(4)
H9A H 0.3302 -0.4684 -0.1090
H10A H 0.1742 -0.4491 -0.1013
H11A H 0.2502 -0.3935 -0.1555
C11A C 0.2144(7) -0.2576(5) -0.0050(4)
H12A H 0.2030 -0.2401 -0.0647
H13A H 0.1225 -0.2883 -0.0071
H14A H 0.2484 -0.1982 0.0548
C12A C 0.4670(7) -0.2779(5) 0.0088(4)
H15A H 0.4571 -0.2597 -0.0504
H16A H 0.4895 -0.2182 0.0685
H17A H 0.5439 -0.3181 0.0152
C13A C 0.8990(3) -0.0336(2) 0.6398(2)
C14A C 0.9114(3) 0.0698(2) 0.6677(2)
H18A H 0.8332 0.1019 0.6810
C15A C 1.0389(3) 0.1273(2) 0.6764(3)
C16A C 1.1494(3) 0.0758(2) 0.6500(3)
H19A H 1.2325 0.1116 0.6502
C17A C 1.1395(3) -0.0278(2) 0.6232(2)
C18A C 1.0150(3) -0.0826(2) 0.6203(2)
H20A H 1.0094 -0.1516 0.6055
C19A C 0.7595(3) -0.0931(2) 0.6280(2)
C20A C 1.2645(3) -0.0766(2) 0.5959(2)
C21A C 1.0515(4) 0.2425(2) 0.7112(3)
C22A C 1.0246(6) 0.2828(3) 0.8152(3)
H21A H 1.0985 0.2669 0.8646
H22A H 1.0274 0.3543 0.8358
H23A H 0.9309 0.2525 0.8105
C23A C 1.1997(5) 0.2910(3) 0.7175(4)
H24A H 1.2148 0.2668 0.6515
H25A H 1.2029 0.3626 0.7395
H26A H 1.2747 0.2741 0.7654
C24A C 0.9357(5) 0.2717(3) 0.6343(3)
H27A H 0.8413 0.2404 0.6270
H28A H 0.9388 0.3433 0.6583
H29A H 0.9544 0.2498 0.5695
C25A C -0.4497(5) -0.0384(3) -0.1542(3)
H30A H -0.5227 -0.0042 -0.1780
C26A C -0.3633(5) -0.0091(4) -0.0576(3)
H31A H -0.3650 0.0477 -0.0035
C27A C -0.3079(4) -0.1468(3) -0.1492(3)
H32A H -0.2616 -0.2028 -0.1683
C28A C -0.1460(5) -0.0752(4) 0.0299(4)
H33A H -0.1740 -0.0580 0.0921
H34A H -0.1140 -0.1406 0.0171
C29A C -0.0229(6) 0.0009(5) 0.0441(4)
H35A H 0.0608 -0.0058 0.0948
H36A H -0.0492 0.0669 0.0728
C30A C 1.4664(5) 0.6118(3) 0.6879(4)
H37A H 1.5351 0.6376 0.7519
C31A C 1.3737(5) 0.5265(3) 0.6530(4)
H38A H 1.3662 0.4833 0.6879
C32A C 1.3393(6) 0.5945(3) 0.5387(3)
H39A H 1.3007 0.6055 0.4780
C33A C 1.1716(7) 0.4356(4) 0.4882(4)
H40A H 1.1611 0.4302 0.4184
H41A H 1.1943 0.3720 0.4945
C34A C 1.0303(8) 0.4551(5) 0.5103(5)
H42A H 0.9588 0.3959 0.4694
H43A H 1.0434 0.4645 0.5814
O9 O 0.7686(4) 0.2129(4) 0.2357(4)
H2 H 0.6881 0.2339 0.2183
H3 H 0.7581 0.1878 0.2793
O10 O 0.9508(3) 0.7455(2) 0.7573(2)
H4 H 0.8905 0.7638 0.7143
H5 H 1.0392 0.7522 0.7581
loop_
_geom_bond_atom_site_label_1
_geom_bond_atom_site_label_2
_geom_bond_site_symmetry_1
_geom_bond_site_symmetry_2
Mn1 O2 1_555 1_555
Mn2 N1 1_555 1_555
N1 C25 1_555 1_555
N2 C26 1_555 1_555
N3 Mn2 1_555 1_555
N4 C31 1_555 1_555
O1 Mn2 1_555 1_555
O2 C7 1_555 1_555
O3 C8 1_555 1_555
O4 H1 1_555 1_555
O5 Mn1 1_555 1_555
O6 Mn2 1_555 1_555
O7 C20 1_555 1_555
O8 C20 1_555 1_555
O9 H2 1_555 1_555
H3 O9 1_555 1_555
O10 H4 1_555 1_555
H5 O10 1_555 1_555
C1 C2 1_555 1_555
C2 H6 1_555 1_555
C3 C2 1_555 1_555
C4 C3 1_555 1_555
H7 C4 1_555 1_555
C5 C4 1_555 1_555
C6 C1 1_555 1_555
H8 C6 1_555 1_555
C7 O1 1_555 1_555
C8 O4 1_555 1_555
C9 C5 1_555 1_555
C10 C9 1_555 1_555
H9 C10 1_555 1_555
H10 C10 1_555 1_555
H11 C10 1_555 1_555
C11 C9 1_555 1_555
H12 C11 1_555 1_555
H13 C11 1_555 1_555
H14 C11 1_555 1_555
C12 C9 1_555 1_555
H15 C12 1_555 1_555
H16 C12 1_555 1_555
H17 C12 1_555 1_555
C13 C14 1_555 1_555
C14 H18 1_555 1_555
C15 C14 1_555 1_555
C16 C15 1_555 1_555
H19 C16 1_555 1_555
C17 C16 1_555 1_555
C18 C13 1_555 1_555
H20 C18 1_555 1_555
C19 O5 1_555 1_555
C20 C17 1_555 1_555
C21 C15 1_555 1_555
C22 C21 1_555 1_555
H21 C22 1_555 1_555
H22 C22 1_555 1_555
H23 C22 1_555 1_555
C23 C21 1_555 1_555
H24 C23 1_555 1_555
H25 C23 1_555 1_555
H26 C23 1_555 1_555
C24 C21 1_555 1_555
H27 C24 1_555 1_555
H28 C24 1_555 1_555
H29 C24 1_555 1_555
C25 H30 1_555 1_555
C26 C25 1_555 1_555
H31 C26 1_555 1_555
C27 N1 1_555 1_555
H32 C27 1_555 1_555
C28 N2 1_555 1_555
H33 C28 1_555 1_555
H34 C28 1_555 1_555
C29 C28 1_555 1_555
H35 C29 1_555 1_555
H36 C29 1_555 1_555
C30 N3 1_555 1_555
H37 C30 1_555 1_555
C31 C30 1_555 1_555
H38 C31 1_555 1_555
C32 N3 1_555 1_555
H39 C32 1_555 1_555
C33 N4 1_555 1_555
H40 C33 1_555 1_555
H41 C33 1_555 1_555
C34 C33 1_555 1_555
H42 C34 1_555 1_555
H43 C34 1_555 1_555
Mn1_2 O7 1_555 1_555
Mn1_3 O7A 1_555 1_555
Mn2A N1A_2 1_555 1_555
Mn2_2 O8 1_555 1_555
Mn2A_2 N1A 1_555 1_555
Mn2A_3 N3A 1_555 1_555
Mn2A_4 O8A 1_555 1_555
N1A C25A 1_555 1_555
N2A C26A 1_555 1_555
N3A C30A 1_555 1_555
N3A_2 Mn2A 1_555 1_555
N4A C31A 1_555 1_555
O1A Mn2A 1_555 1_555
O2A Mn1 1_555 1_555
O3A C8A 1_555 1_555
O4A H1A 1_555 1_555
O5A Mn1 1_555 1_555
O6A Mn2A 1_555 1_555
O7A C20A 1_555 1_555
O7_2 Mn1 1_555 1_555
O7A_2 Mn1 1_555 1_555
O8A C20A 1_555 1_555
O8_2 Mn2 1_555 1_555
O8A_2 Mn2A 1_555 1_555
C1A C2A 1_555 1_555
C2A H6A 1_555 1_555
C3A C2A 1_555 1_555
C4A C3A 1_555 1_555
H7A C4A 1_555 1_555
C5A C4A 1_555 1_555
C6A C1A 1_555 1_555
H8A C6A 1_555 1_555
C7A O1A 1_555 1_555
C8A O4A 1_555 1_555
C9A C5A 1_555 1_555
C10A C9A 1_555 1_555
H9A C10A 1_555 1_555
H10A C10A 1_555 1_555
H11A C10A 1_555 1_555
C11A C9A 1_555 1_555
H12A C11A 1_555 1_555
H13A C11A 1_555 1_555
H14A C11A 1_555 1_555
C12A C9A 1_555 1_555
H15A C12A 1_555 1_555
H16A C12A 1_555 1_555
H17A C12A 1_555 1_555
C13A C14A 1_555 1_555
C14A H18A 1_555 1_555
C15A C14A 1_555 1_555
C16A C15A 1_555 1_555
H19A C16A 1_555 1_555
C17A C16A 1_555 1_555
C18A C13A 1_555 1_555
H20A C18A 1_555 1_555
C19A O5A 1_555 1_555
C20A C17A 1_555 1_555
C21A C15A 1_555 1_555
C22A C21A 1_555 1_555
H21A C22A 1_555 1_555
H22A C22A 1_555 1_555
H23A C22A 1_555 1_555
C23A C21A 1_555 1_555
H24A C23A 1_555 1_555
H25A C23A 1_555 1_555
H26A C23A 1_555 1_555
C24A C21A 1_555 1_555
H27A C24A 1_555 1_555
H28A C24A 1_555 1_555
H29A C24A 1_555 1_555
C25A H30A 1_555 1_555
C26A C25A 1_555 1_555
H31A C26A 1_555 1_555
C27A N1A 1_555 1_555
H32A C27A 1_555 1_555
C28A N2A 1_555 1_555
H33A C28A 1_555 1_555
H34A C28A 1_555 1_555
C29A C29 1_555 1_555
H35A C29A 1_555 1_555
H36A C29A 1_555 1_555
C30A H37A 1_555 1_555
C31A C30A 1_555 1_555
H38A C31A 1_555 1_555
C32A N3A 1_555 1_555
H39A C32A 1_555 1_555
C33A N4A 1_555 1_555
H40A C33A 1_555 1_555
H41A C33A 1_555 1_555
C34A C34 1_555 1_555
H42A C34A 1_555 1_555
H43A C34A 1_555 1_555
Mn2 O5 1_555 1_555
N2 C27 1_555 1_555
N4 C32 1_555 1_555
O6 C19 1_555 1_555
C1 C7 1_555 1_555
C3 C8 1_555 1_555
C5 C6 1_555 1_555
C13 C19 1_555 1_555
C17 C18 1_555 1_555
Mn2A O5A 1_555 1_555
N2A C27A 1_555 1_555
N4A C32A 1_555 1_555
O2A C7A 1_555 1_555
O6A C19A 1_555 1_555
C1A C7A 1_555 1_555
C3A C8A 1_555 1_555
C5A C6A 1_555 1_555
C13A C19A 1_555 1_555
C17A C18A 1_555 1_555
C28A C29A 1_555 1_555
C33A C34A 1_555 1_555

#END
