
#######################################################################
#
#                 Cambridge Crystallographic Data Centre
#                                CCDC 
#
#######################################################################
#
# If this CIF has been generated from an entry in the Cambridge 
# Structural Database, then it will include bibliographic, chemical, 
# crystal, experimental, refinement or atomic coordinate data resulting 
# from the CCDC's data processing and validation procedures.
#
#######################################################################

data_YEGCEU
_symmetry_cell_setting           tetragonal
_symmetry_space_group_name_H-M   'P 42/n'
_symmetry_Int_Tables_number      86
_space_group_name_Hall           '-P 4bc'
loop_
_symmetry_equiv_pos_site_id
_symmetry_equiv_pos_as_xyz
1 x,y,z
2 1/2-x,1/2-y,z
3 -y,1/2+x,1/2+z
4 1/2+y,-x,1/2+z
5 -x,-y,-z
6 1/2+x,1/2+y,-z
7 y,1/2-x,1/2-z
8 1/2-y,x,1/2-z
_cell_length_a                   20.0641(8)
_cell_length_b                   20.0641(8)
_cell_length_c                   8.8106(7)
_cell_angle_alpha                90
_cell_angle_beta                 90
_cell_angle_gamma                90
_cell_volume                     3546.87
loop_
_atom_site_label
_atom_site_type_symbol
_atom_site_fract_x
_atom_site_fract_y
_atom_site_fract_z
Mn1 Mn 0.991127(13) 0.476018(14) 0.18526(3)
O1 O 0.95503(8) 0.41717(7) 0.36859(18)
O2 O 1.00414(9) 0.36018(8) 0.18989(17)
O3 O 0.98277(7) 0.06436(6) 0.47587(15)
O4 O 1.01630(8) 0.10532(7) 0.26118(17)
N1 N 0.94173(8) 0.56410(8) 0.2697(2)
N2 N 0.88543(9) 0.62939(9) 0.4237(2)
C1 C 0.96747(9) 0.30081(9) 0.4110(2)
C2 C 0.98623(10) 0.23864(9) 0.3565(2)
H1 H 1.0045 0.2343 0.2601
C3 C 0.97726(9) 0.18285(9) 0.4483(2)
C4 C 0.95020(10) 0.18989(9) 0.5916(2)
H2 H 0.9453 0.1523 0.6523
C5 C 0.92999(11) 0.25162(10) 0.6481(2)
C6 C 0.93960(10) 0.30665(9) 0.5550(2)
H3 H 0.9271 0.3486 0.5899
C7 C 0.97610(10) 0.36264(10) 0.3161(2)
C8 C 0.99360(9) 0.11459(9) 0.3903(2)
C9 C 0.89705(14) 0.25501(11) 0.8046(3)
C10 C 0.83463(15) 0.21113(14) 0.8012(3)
H4 H 0.8055 0.2261 0.7218
H5 H 0.8120 0.2141 0.8970
H6 H 0.8473 0.1657 0.7825
C11 C 0.94442(18) 0.22800(15) 0.9256(3)
H7 H 0.9540 0.1820 0.9050
H8 H 0.9239 0.2318 1.0237
H9 H 0.9851 0.2532 0.9242
C12 C 0.8766(2) 0.32609(13) 0.8463(4)
H10 H 0.9153 0.3542 0.8469
H11 H 0.8565 0.3262 0.9451
H12 H 0.8452 0.3424 0.7729
C13 C 0.92646(14) 0.62246(12) 0.1957(3)
H13 H 0.9380 0.6325 0.0960
C14 C 0.89229(16) 0.66284(13) 0.2893(3)
H14 H 0.8764 0.7053 0.2671
C15 C 0.91578(10) 0.57066(10) 0.4063(2)
H15 H 0.9183 0.5383 0.4816
C16 C 0.85765(14) 0.65408(15) 0.5675(3)
H16 H 0.8930 0.6751 0.6254
H17 H 0.8415 0.6164 0.6260
C17 C 0.80143(11) 0.70343(12) 0.5478(2)
C18 C 0.73589(13) 0.68291(12) 0.5459(3)
H18 H 0.7259 0.6377 0.5447
C19 C 0.81511(11) 0.77062(13) 0.5459(3)
H19 H 0.8592 0.7850 0.5445
Mn1B Mn 0.523982(14) 0.491127(13) -0.31474(3)
Mn1C Mn 0.976018(14) 0.008873(13) 0.68526(3)
Mn1G Mn 1.023982(14) -0.008873(13) 0.31474(3)
Mn1A Mn 0.508873(13) 1.023982(14) 0.18526(3)
Mn1D Mn 1.008873(13) 0.523982(14) -0.18526(3)
O1B O 0.58283(7) 0.45503(8) -0.13141(18)
O2B O 0.63982(8) 0.50414(9) -0.31011(17)
O3B O 0.93564(6) 0.48277(7) -0.02413(15)
O3F O 1.06436(6) 0.51723(7) 0.02413(15)
O3A O 0.51723(7) 0.43564(6) -0.52413(15)
O3E O 0.48277(7) 0.56436(6) -0.47587(15)
O4B O 0.89468(7) 0.51630(8) -0.23882(17)
O4F O 1.10532(7) 0.48370(8) 0.23882(17)
O4E O 0.51630(8) 0.60532(7) -0.26118(17)
N1A N 0.55827(8) 0.93590(8) 0.2697(2)
N1B N 0.43590(8) 0.44173(8) -0.2303(2)
N2A N 0.61457(9) 0.87061(9) 0.4237(2)
C1B C 0.69919(9) 0.46747(9) -0.0890(2)
C2B C 0.76136(9) 0.48623(10) -0.1435(2)
H1B H 0.7657 0.5045 -0.2399
C3B C 0.81715(9) 0.47726(9) -0.0517(2)
C4B C 0.81011(9) 0.45020(10) 0.0916(2)
H2B H 0.8477 0.4453 0.1523
C5B C 0.74838(10) 0.42999(11) 0.1481(2)
C6B C 0.69335(9) 0.43960(10) 0.0550(2)
H3B H 0.6514 0.4271 0.0899
C7B C 0.63736(10) 0.47610(10) -0.1839(2)
C8B C 0.88541(9) 0.49360(9) -0.1097(2)
C9B C 0.74499(11) 0.39705(14) 0.3046(3)
C10B C 0.78887(14) 0.33463(15) 0.3012(3)
H4B H 0.7739 0.3055 0.2218
H5B H 0.7859 0.3120 0.3970
H6B H 0.8343 0.3473 0.2825
C11B C 0.77200(15) 0.44442(18) 0.4256(3)
H7B H 0.8180 0.4540 0.4050
H8B H 0.7682 0.4239 0.5237
H9B H 0.7468 0.4851 0.4242
C12B C 0.67391(13) 0.3766(2) 0.3463(4)
H10B H 0.6458 0.4153 0.3469
H11B H 0.6738 0.3565 0.4451
H12B H 0.6576 0.3452 0.2729
C13A C 0.57354(14) 0.87754(12) 0.1957(3)
H13A H 0.5620 0.8675 0.0960
C14A C 0.60771(16) 0.83716(13) 0.2893(3)
H14A H 0.6236 0.7947 0.2671
C15A C 0.58422(10) 0.92934(10) 0.4063(2)
H15A H 0.5817 0.9617 0.4816
C16A C 0.64235(14) 0.84592(15) 0.5675(3)
H16A H 0.6070 0.8249 0.6254
H17A H 0.6585 0.8836 0.6260
C17A C 0.69857(11) 0.79657(12) 0.5478(2)
C18A C 0.76411(13) 0.81709(12) 0.5459(3)
H18A H 0.7741 0.8623 0.5447
C19A C 0.68489(11) 0.72938(13) 0.5459(3)
H19A H 0.6408 0.7150 0.5445
loop_
_geom_bond_atom_site_label_1
_geom_bond_atom_site_label_2
_geom_bond_site_symmetry_1
_geom_bond_site_symmetry_2
Mn1 O1 1_555 1_555
O1 C7 1_555 1_555
O2 Mn1 1_555 1_555
O3 C8 1_555 1_555
O4 C8 1_555 1_555
N1 Mn1 1_555 1_555
N2 C14 1_555 1_555
C1 C2 1_555 1_555
C2 H1 1_555 1_555
C3 C2 1_555 1_555
C4 C3 1_555 1_555
H2 C4 1_555 1_555
C5 C4 1_555 1_555
C6 C1 1_555 1_555
H3 C6 1_555 1_555
C7 O2 1_555 1_555
C8 C3 1_555 1_555
C9 C5 1_555 1_555
C10 C9 1_555 1_555
H4 C10 1_555 1_555
H5 C10 1_555 1_555
H6 C10 1_555 1_555
C11 C9 1_555 1_555
H7 C11 1_555 1_555
H8 C11 1_555 1_555
H9 C11 1_555 1_555
C12 C9 1_555 1_555
H10 C12 1_555 1_555
H11 C12 1_555 1_555
H12 C12 1_555 1_555
C13 N1 1_555 1_555
H13 C13 1_555 1_555
C14 C13 1_555 1_555
H14 C14 1_555 1_555
C15 N1 1_555 1_555
H15 C15 1_555 1_555
C16 N2 1_555 1_555
H16 C16 1_555 1_555
H17 C16 1_555 1_555
C17 C16 1_555 1_555
C18 C17 1_555 1_555
H18 C18 1_555 1_555
C19 C17 1_555 1_555
H19 C19 1_555 1_555
Mn1B O1B 1_555 1_555
Mn1C O3 1_555 1_555
Mn1G O3 1_555 1_555
Mn1A N1A 1_555 1_555
Mn1D O3B 1_555 1_555
O1B C7B 1_555 1_555
O2B Mn1B 1_555 1_555
O3B Mn1 1_555 1_555
O3F Mn1 1_555 1_555
O3A Mn1B 1_555 1_555
O3E Mn1B 1_555 1_555
O4B Mn1D 1_555 1_555
O4F Mn1 1_555 1_555
O4E Mn1B 1_555 1_555
N1A C13A 1_555 1_555
N1B Mn1B 1_555 1_555
N2A C14A 1_555 1_555
C1B C2B 1_555 1_555
C2B H1B 1_555 1_555
C3B C2B 1_555 1_555
C4B C3B 1_555 1_555
H2B C4B 1_555 1_555
C5B C4B 1_555 1_555
C6B C1B 1_555 1_555
H3B C6B 1_555 1_555
C7B O2B 1_555 1_555
C8B O3B 1_555 1_555
C9B C5B 1_555 1_555
C10B C9B 1_555 1_555
H4B C10B 1_555 1_555
H5B C10B 1_555 1_555
H6B C10B 1_555 1_555
C11B C9B 1_555 1_555
H7B C11B 1_555 1_555
H8B C11B 1_555 1_555
H9B C11B 1_555 1_555
C12B C9B 1_555 1_555
H10B C12B 1_555 1_555
H11B C12B 1_555 1_555
H12B C12B 1_555 1_555
C13A H13A 1_555 1_555
C14A C13A 1_555 1_555
H14A C14A 1_555 1_555
C15A N1A 1_555 1_555
H15A C15A 1_555 1_555
C16A N2A 1_555 1_555
H16A C16A 1_555 1_555
H17A C16A 1_555 1_555
C17A C16A 1_555 1_555
C18A C19 1_555 1_555
H18A C18A 1_555 1_555
C19A C18 1_555 1_555
H19A C19A 1_555 1_555
O4 Mn1G 1_555 1_555
N2 C15 1_555 1_555
C1 C7 1_555 1_555
C5 C6 1_555 1_555
Mn1D O3F 1_555 1_555
O4B C8B 1_555 1_555
N2A C15A 1_555 1_555
C1B C7B 1_555 1_555
C3B C8B 1_555 1_555
C5B C6B 1_555 1_555
C17A C18A 1_555 1_555
C17A C19A 1_555 1_555

#END
