
#######################################################################
#
#                 Cambridge Crystallographic Data Centre
#                                CCDC 
#
#######################################################################
#
# If this CIF has been generated from an entry in the Cambridge 
# Structural Database, then it will include bibliographic, chemical, 
# crystal, experimental, refinement or atomic coordinate data resulting 
# from the CCDC's data processing and validation procedures.
#
#######################################################################

data_YEGHID
_symmetry_cell_setting           monoclinic
_symmetry_space_group_name_H-M   'P 21/c'
_symmetry_Int_Tables_number      14
_space_group_name_Hall           '-P 2ybc'
loop_
_symmetry_equiv_pos_site_id
_symmetry_equiv_pos_as_xyz
1 x,y,z
2 -x,1/2+y,1/2-z
3 -x,-y,-z
4 x,1/2-y,1/2+z
_cell_length_a                   7.8809(3)
_cell_length_b                   11.4483(5)
_cell_length_c                   11.5662(4)
_cell_angle_alpha                90
_cell_angle_beta                 100.146(4)
_cell_angle_gamma                90
_cell_volume                     1027.22
loop_
_atom_site_label
_atom_site_type_symbol
_atom_site_fract_x
_atom_site_fract_y
_atom_site_fract_z
Fe1 Fe 1.00000 0.50000 0.50000
O1 O 0.7400(9) 0.4454(6) 0.4587(3)
N1 N 1.0246(8) 0.4365(3) 0.3434(4)
N2 N 1.0686(5) 0.1718(3) 0.0704(5)
N3 N 1.2092(7) 0.6680(4) 0.1647(3)
N4 N 1.2930(6) 0.4111(3) -0.09046(19)
C1 C 1.0906(7) 0.4880(3) 0.0440(3)
C2 C 1.0664(3) 0.3871(3) 0.1334(3)
C3 C 1.0430(6) 0.4158(3) 0.2511(3)
C4 C 1.0678(4) 0.2665(3) 0.0971(4)
C5 C 1.1572(6) 0.5886(4) 0.1126(3)
C6 C 1.2044(8) 0.4440(3) -0.0310(3)
C7 C 0.6101(6) 0.3888(4) 0.4382(4)
C8 C 0.5042(9) 0.3912(4) 0.3206(6)
C9 C 0.5573(9) 0.3171(5) 0.5307(7)
H1 H 0.414 0.440 0.321
H2 H 0.569 0.417 0.2690
H3 H 0.466 0.3185 0.301
H4 H 0.623 0.253 0.541
H5 H 0.571 0.359 0.5977
H6 H 0.4458 0.297 0.509
Fe1A Fe 1.00000 0.00000 0.00000
Fe1_2 Fe 1.00000 0.50000 -0.50000
Fe1A_2 Fe 1.00000 1.00000 0.00000
O1B O 1.2600(9) 0.5546(6) 0.5413(3)
N1B N 0.9754(8) 0.5635(3) -0.3434(4)
N1B_2 N 0.9754(8) 0.5635(3) 0.6566(4)
N2B N 0.9314(5) 0.8282(3) -0.0704(5)
N2A N 0.9314(5) 0.6718(3) 0.4296(5)
N2C N 1.0686(5) 0.3282(3) 0.5704(5)
N3B N 0.7908(7) 0.3320(4) -0.1647(3)
N4B N 0.7070(6) 0.5889(3) 0.09046(19)
C1B C 0.9094(7) 0.5120(3) -0.0440(3)
C2B C 0.9336(3) 0.6129(3) -0.1334(3)
C3B C 0.9570(6) 0.5842(3) -0.2511(3)
C4B C 0.9322(4) 0.7335(3) -0.0971(4)
C5B C 0.8428(6) 0.4114(4) -0.1126(3)
C6B C 0.7956(8) 0.5560(3) 0.0310(3)
C7B C 1.3899(6) 0.6112(4) 0.5618(4)
C8B C 1.4958(9) 0.6088(4) 0.6794(6)
C9B C 1.4427(9) 0.6829(5) 0.4693(7)
H1B H 1.586 0.560 0.679
H2B H 1.431 0.583 0.7310
H3B H 1.534 0.6815 0.699
H4B H 1.377 0.747 0.459
H5B H 1.429 0.641 0.4023
H6B H 1.5542 0.703 0.491
loop_
_geom_bond_atom_site_label_1
_geom_bond_atom_site_label_2
_geom_bond_site_symmetry_1
_geom_bond_site_symmetry_2
Fe1 O1 1_555 1_555
O1 C7 1_555 1_555
N1 Fe1 1_555 1_555
N2 C4 1_555 1_555
N3 C5 1_555 1_555
N4 C6 1_555 1_555
C1 C2 1_555 1_555
C2 C3 1_555 1_555
C3 N1 1_555 1_555
C4 C2 1_555 1_555
C5 C1 1_555 1_555
C6 C1 1_555 1_555
C7 C8 1_555 1_555
C8 H1 1_555 1_555
C9 C7 1_555 1_555
H2 C8 1_555 1_555
H3 C8 1_555 1_555
H4 C9 1_555 1_555
H5 C9 1_555 1_555
H6 C9 1_555 1_555
Fe1A N2 1_555 1_555
Fe1_2 N1B 1_555 1_555
Fe1A_2 N2B 1_555 1_555
O1B Fe1 1_555 1_555
N1B C3B 1_555 1_555
N1B_2 Fe1 1_555 1_555
N2B C4B 1_555 1_555
N2A Fe1 1_555 1_555
N2C Fe1 1_555 1_555
N3B C5B 1_555 1_555
N4B C6B 1_555 1_555
C1B C1 1_555 1_555
C2B C1B 1_555 1_555
C3B C2B 1_555 1_555
C4B C2B 1_555 1_555
C5B C1B 1_555 1_555
C6B C1B 1_555 1_555
C7B O1B 1_555 1_555
C8B C7B 1_555 1_555
C9B C7B 1_555 1_555
H1B C8B 1_555 1_555
H2B C8B 1_555 1_555
H3B C8B 1_555 1_555
H4B C9B 1_555 1_555
H5B C9B 1_555 1_555
H6B C9B 1_555 1_555

#END
