
#######################################################################
#
#                 Cambridge Crystallographic Data Centre
#                                CCDC 
#
#######################################################################
#
# If this CIF has been generated from an entry in the Cambridge 
# Structural Database, then it will include bibliographic, chemical, 
# crystal, experimental, refinement or atomic coordinate data resulting 
# from the CCDC's data processing and validation procedures.
#
#######################################################################

data_YEGHUP
_symmetry_cell_setting           monoclinic
_symmetry_space_group_name_H-M   'P 21/c'
_symmetry_Int_Tables_number      14
_space_group_name_Hall           '-P 2ybc'
loop_
_symmetry_equiv_pos_site_id
_symmetry_equiv_pos_as_xyz
1 x,y,z
2 -x,1/2+y,1/2-z
3 -x,-y,-z
4 x,1/2-y,1/2+z
_cell_length_a                   7.9191(2)
_cell_length_b                   11.3882(3)
_cell_length_c                   11.4825(3)
_cell_angle_alpha                90
_cell_angle_beta                 100.558(3)
_cell_angle_gamma                90
_cell_volume                     1018.01
loop_
_atom_site_label
_atom_site_type_symbol
_atom_site_fract_x
_atom_site_fract_y
_atom_site_fract_z
Co1 Co 0.00000 0.50000 0.50000
O1 O 0.2528(5) 0.4430(6) 0.5362(4)
N1 N 0.0214(7) 0.5618(5) 0.3438(4)
N2 N 0.0687(10) 0.8299(4) 0.0676(5)
N3 N 0.2167(8) 0.3363(5) 0.1690(4)
N4 N 0.2901(6) 0.5938(5) -0.0893(4)
C1 C 0.0892(6) 0.5130(3) 0.0439(3)
C2 C 0.0647(3) 0.6145(3) 0.1337(2)
C3 C 0.0408(4) 0.5863(3) 0.2494(3)
C4 C 0.0667(6) 0.7332(3) 0.0981(3)
C5 C 0.1593(5) 0.4155(4) 0.1120(4)
C6 C 0.1996(5) 0.5568(4) -0.0297(3)
C7 C 0.3887(6) 0.3901(3) 0.5646(3)
C8 C 0.4870(11) 0.4029(8) 0.6818(4)
C9 C 0.4495(12) 0.3154(4) 0.4806(7)
H1 H 0.563 0.344 0.6960
H2 H 0.4154 0.401 0.7342
H3 H 0.543 0.472 0.6869
H4 H 0.391 0.331 0.4076
H5 H 0.433 0.2400 0.499
H6 H 0.562 0.329 0.484
Co1_2 Co 0.00000 0.50000 -0.50000
Co1A Co 0.00000 0.00000 0.00000
Co1A_2 Co 0.00000 1.00000 0.00000
O1B O -0.2528(5) 0.5570(6) 0.4638(4)
N1B N -0.0214(7) 0.4382(5) -0.3438(4)
N1B_2 N -0.0214(7) 0.4382(5) 0.6562(4)
N2B N -0.0687(10) 0.1701(4) -0.0676(5)
N2A N -0.0687(10) 0.3299(4) 0.4324(5)
N2C N 0.0687(10) 0.6701(4) 0.5676(5)
N3B N -0.2167(8) 0.6637(5) -0.1690(4)
N4B N -0.2901(6) 0.4062(5) 0.0893(4)
C1B C -0.0892(6) 0.4870(3) -0.0439(3)
C2B C -0.0647(3) 0.3855(3) -0.1337(2)
C3B C -0.0408(4) 0.4137(3) -0.2494(3)
C4B C -0.0667(6) 0.2668(3) -0.0981(3)
C5B C -0.1593(5) 0.5845(4) -0.1120(4)
C6B C -0.1996(5) 0.4432(4) 0.0297(3)
C7B C -0.3887(6) 0.6099(3) 0.4354(3)
C8B C -0.4870(11) 0.5971(8) 0.3182(4)
C9B C -0.4495(12) 0.6846(4) 0.5194(7)
H1B H -0.563 0.656 0.3040
H2B H -0.4154 0.599 0.2658
H3B H -0.543 0.528 0.3131
H4B H -0.391 0.669 0.5924
H5B H -0.433 0.7600 0.501
H6B H -0.562 0.671 0.516
loop_
_geom_bond_atom_site_label_1
_geom_bond_atom_site_label_2
_geom_bond_site_symmetry_1
_geom_bond_site_symmetry_2
Co1 O1 1_555 1_555
O1 C7 1_555 1_555
N1 Co1 1_555 1_555
N2 C4 1_555 1_555
N3 C5 1_555 1_555
N4 C6 1_555 1_555
C1 C2 1_555 1_555
C2 C3 1_555 1_555
C3 N1 1_555 1_555
C4 C2 1_555 1_555
C5 C1 1_555 1_555
C6 C1 1_555 1_555
C7 C8 1_555 1_555
C8 H1 1_555 1_555
C9 C7 1_555 1_555
H2 C8 1_555 1_555
H3 C8 1_555 1_555
H4 C9 1_555 1_555
H5 C9 1_555 1_555
H6 C9 1_555 1_555
Co1_2 N1B 1_555 1_555
Co1A N2B 1_555 1_555
Co1A_2 N2 1_555 1_555
O1B Co1 1_555 1_555
N1B C3B 1_555 1_555
N1B_2 Co1 1_555 1_555
N2B C4B 1_555 1_555
N2A Co1 1_555 1_555
N2C Co1 1_555 1_555
N3B C5B 1_555 1_555
N4B C6B 1_555 1_555
C1B C1 1_555 1_555
C2B C1B 1_555 1_555
C3B C2B 1_555 1_555
C4B C2B 1_555 1_555
C5B C1B 1_555 1_555
C6B C1B 1_555 1_555
C7B O1B 1_555 1_555
C8B C7B 1_555 1_555
C9B C7B 1_555 1_555
H1B C8B 1_555 1_555
H2B C8B 1_555 1_555
H3B C8B 1_555 1_555
H4B C9B 1_555 1_555
H5B C9B 1_555 1_555
H6B C9B 1_555 1_555

#END
