
#######################################################################
#
#                 Cambridge Crystallographic Data Centre
#                                CCDC 
#
#######################################################################
#
# If this CIF has been generated from an entry in the Cambridge 
# Structural Database, then it will include bibliographic, chemical, 
# crystal, experimental, refinement or atomic coordinate data resulting 
# from the CCDC's data processing and validation procedures.
#
#######################################################################

data_YEGJIF
_symmetry_cell_setting           triclinic
_symmetry_space_group_name_H-M   'P -1'
_symmetry_Int_Tables_number      2
_space_group_name_Hall           '-P 1'
loop_
_symmetry_equiv_pos_site_id
_symmetry_equiv_pos_as_xyz
1 x,y,z
2 -x,-y,-z
_cell_length_a                   8.604(5)
_cell_length_b                   15.769(5)
_cell_length_c                   17.344(5)
_cell_angle_alpha                87.030(5)
_cell_angle_beta                 83.939(5)
_cell_angle_gamma                80.751(5)
_cell_volume                     2308.14
loop_
_atom_site_label
_atom_site_type_symbol
_atom_site_fract_x
_atom_site_fract_y
_atom_site_fract_z
Cd1 Cd 1.02511(4) 0.23235(2) 0.091043(19)
Cd2 Cd -0.21199(4) 0.53247(2) 0.450928(18)
O1 O 1.7396(4) 0.4279(3) -0.4603(2)
O2 O -0.4398(4) 0.4926(3) 0.39815(19)
H1 H -0.4983 0.5361 0.3852
H2 H -0.4684 0.4443 0.4115
O3 O 1.9983(4) 0.4041(2) -0.48550(19)
N1 N 0.8516(4) 0.3532(3) 0.1046(2)
O4 O 1.6186(4) -0.3728(2) 0.5355(2)
N2 N 0.6726(4) 0.4607(3) 0.1461(2)
O5 O 1.6375(5) -0.3278(3) 0.4133(2)
N3 N -0.0871(4) 0.5165(3) 0.3314(2)
N4 N 0.0526(4) 0.4795(3) 0.2218(2)
C1 C -0.0362(6) 0.5581(4) 0.2083(3)
H3 H -0.0373 0.5901 0.1618
O6 O 1.0815(8) 0.2084(4) 0.2200(3)
C2 C 0.7545(5) 0.3834(3) 0.1649(3)
C3 C 1.7694(6) 0.2596(3) -0.2648(3)
C4 C 1.8845(6) 0.3186(3) -0.3850(3)
C5 C 1.8758(6) 0.3871(3) -0.4477(3)
C6 C 1.4866(8) -0.2327(4) 0.5050(3)
C7 C 1.4813(7) 0.2592(3) -0.2222(3)
H4 H 1.4635 0.2557 -0.2738
C8 C 1.6337(7) 0.2613(3) -0.2028(3)
C9 C 1.7572(6) 0.3164(3) -0.3281(3)
H5 H 1.6630 0.3536 -0.3330
C10 C -0.1202(6) 0.5793(4) 0.2749(3)
H6 H -0.1918 0.6297 0.2825
C11 C 1.3808(7) 0.2686(3) -0.0876(3)
O7 O 1.2674(5) 0.2727(4) 0.0433(2)
C12 C 1.5858(6) -0.3161(4) 0.4822(3)
C13 C 0.7195(7) 0.4798(4) 0.0703(3)
H7 H 0.6827 0.5290 0.0415
C14 C 0.7369(7) 0.3388(4) 0.2422(3)
H8 H 0.6440 0.3117 0.2464
H9 H 0.7270 0.3798 0.2821
H10 H 0.8282 0.2960 0.2479
C15 C 0.0196(5) 0.4566(4) 0.2972(3)
C16 C 0.5528(6) 0.5139(3) 0.1973(3)
H11 H 0.5371 0.5722 0.1755
H12 H 0.5926 0.5156 0.2474
C17 C 1.4400(7) -0.1726(4) 0.4488(3)
H13 H 1.4706 -0.1851 0.3971
N5 N 0.8893(6) 0.1416(3) 0.0417(4)
C18 C 1.6577(7) 0.2666(4) -0.1251(3)
H14 H 1.7590 0.2678 -0.1116
C19 C 0.8281(6) 0.4145(3) 0.0456(3)
H15 H 0.8804 0.4107 -0.0041
C20 C 2.0319(8) 0.2027(4) -0.3171(4)
H16 H 2.1232 0.1625 -0.3144
C21 C 1.3562(7) 0.2625(3) -0.1644(3)
H17 H 1.2548 0.2605 -0.1775
C22 C 2.0208(6) 0.2606(4) -0.3786(3)
H18 H 2.1059 0.2608 -0.4164
C23 C 1.2979(10) -0.0310(4) 0.4025(4)
O8 O 1.1853(14) 0.1111(4) 0.1458(4)
C24 C 0.6759(13) -0.0386(7) 0.0515(9)
H19 H 0.7256 -0.0887 0.0229
H20 H 0.6816 -0.0533 0.1063
C25 C 1.1997(10) 0.0804(4) 0.2797(4)
C26 C 0.1649(6) 0.4316(4) 0.1641(3)
H21 H 0.1183 0.4344 0.1153
H22 H 0.1855 0.3717 0.1813
N6 N 0.7684(8) 0.0326(4) 0.0301(6)
C27 C 1.9090(8) 0.2032(4) -0.2589(4)
H23 H 1.9200 0.1658 -0.2160
C28 C 0.8415(11) 0.0507(5) -0.0418(6)
H24 H 0.8390 0.0225 -0.0874
C29 C 1.286(2) 0.0031(6) 0.2683(7)
H25 H 1.3206 -0.0138 0.2180
C30 C 1.5314(7) 0.2703(4) -0.0679(3)
H26 H 1.5484 0.2739 -0.0161
C31 C 0.3971(8) 0.4826(6) 0.2090(6)
H27 H 0.4126 0.4299 0.2405
H28 H 0.3260 0.5244 0.2403
C32 C 0.9163(9) 0.1163(4) -0.0331(4)
H29 H 0.9781 0.1414 -0.0724
C33 C 1.324(2) -0.0517(6) 0.3300(7)
H30 H 1.3719 -0.1076 0.3192
C34 C 1.3481(10) -0.0928(5) 0.4662(4)
C35 C 1.3108(18) -0.0725(8) 0.5434(5)
H31 H 1.2546 -0.0190 0.5568
C36 C 0.3206(8) 0.4669(7) 0.1513(5)
H32 H 0.3930 0.4269 0.1187
H33 H 0.3006 0.5202 0.1209
C37 C 0.0929(7) 0.3759(4) 0.3353(3)
H34 H 0.1918 0.3840 0.3524
H35 H 0.1109 0.3306 0.2990
H36 H 0.0233 0.3609 0.3791
C38 C 1.1813(18) 0.1031(7) 0.3489(5)
H37 H 1.1354 0.1593 0.3598
C39 C 1.1455(11) 0.1378(5) 0.2129(4)
C40 C 1.360(2) -0.1341(8) 0.6009(5)
H38 H 1.3334 -0.1211 0.6528
C41 C 0.749(2) 0.0892(12) 0.1642(10)
H39 H 0.8221 0.1139 0.1911
H40 H 0.7453 0.0314 0.1835
H41 H 0.6458 0.1228 0.1723
C42 C 1.228(2) 0.0459(8) 0.4110(5)
H42 H 1.2068 0.0659 0.4612
C43 C 0.8029(12) 0.0887(6) 0.0795(7)
C44 C 1.4473(16) -0.2154(7) 0.5820(5)
H43 H 1.4775 -0.2559 0.6207
C45 C 0.5319(18) -0.0227(9) 0.039(2)
H44 H 0.4782 0.0121 0.0812
H45 H 0.4928 -0.0773 0.0451
C46 C 1.2423(6) 0.2696(3) -0.0260(3)
O10 O 1.1119(6) 0.2672(3) -0.0457(3)
Cd1A Cd -0.02511(4) -0.23235(2) -0.091043(19)
Cd1_2 Cd -0.97489(4) 0.23235(2) 1.091043(19)
Cd1_3 Cd -0.97489(4) 1.23235(2) 0.091043(19)
Cd2_2 Cd 1.78801(4) 0.53247(2) -0.549072(18)
Cd2A Cd 2.21199(4) 0.46753(2) -0.450928(18)
Cd2_3 Cd 1.78801(4) -0.46753(2) 0.450928(18)
Cd2A_2 Cd 0.21199(4) 0.46753(2) 0.549072(18)
Cd2A_3 Cd 1.21199(4) -0.53247(2) -0.450928(18)
O1_2 O -0.2604(4) 0.4279(3) 0.5397(2)
O2_2 O 1.5602(4) 0.4926(3) -0.60185(19)
H1_2 H 1.5017 0.5361 -0.6148
H2_2 H 1.5316 0.4443 -0.5885
O3_2 O -0.0017(4) 0.4041(2) 0.51450(19)
O3A O 0.0017(4) 0.5959(2) 0.48550(19)
O3A_2 O 2.0017(4) 0.5959(2) -0.51450(19)
N1A N 0.1484(4) -0.3532(3) -0.1046(2)
O4_2 O -0.3814(4) 0.6272(2) 0.5355(2)
O4_3 O 1.6186(4) 0.6272(2) -0.4645(2)
N2A N 0.3274(4) -0.4607(3) -0.1461(2)
O5_2 O -0.3625(5) 0.6722(3) 0.4133(2)
O5_3 O 1.6375(5) 0.6722(3) -0.5867(2)
N3A N 1.0871(4) -0.5165(3) -0.3314(2)
N3_2 N 1.9129(4) 0.5165(3) -0.6686(2)
N4A N 0.9474(4) -0.4795(3) -0.2218(2)
C1A C 1.0362(6) -0.5581(4) -0.2083(3)
H3A H 1.0373 -0.5901 -0.1618
O6_2 O -0.9185(8) 1.2084(4) 0.2200(3)
O6A O -0.0815(8) -0.2084(4) -0.2200(3)
C2A C 0.2455(5) -0.3834(3) -0.1649(3)
C3_2 C -0.2306(6) 0.2596(3) 0.7352(3)
C4_2 C -0.1155(6) 0.3186(3) 0.6150(3)
C5_2 C -0.1242(6) 0.3871(3) 0.5523(3)
C6_2 C -0.5134(8) 0.7673(4) 0.5050(3)
C7_2 C -0.5187(7) 0.2592(3) 0.7778(3)
H4_2 H -0.5365 0.2557 0.7262
C8_2 C -0.3663(7) 0.2613(3) 0.7972(3)
C9_2 C -0.2428(6) 0.3164(3) 0.6719(3)
H5_2 H -0.3370 0.3536 0.6670
C10A C 1.1202(6) -0.5793(4) -0.2749(3)
H6A H 1.1918 -0.6297 -0.2825
C11_2 C -0.6192(7) 0.2686(3) 0.9124(3)
O7_2 O -0.7326(5) 0.2727(4) 1.0433(2)
O7A O -0.2674(5) -0.2727(4) -0.0433(2)
C12_2 C -0.4142(6) 0.6839(4) 0.4822(3)
C13A C 0.2805(7) -0.4798(4) -0.0703(3)
H7A H 0.3173 -0.5290 -0.0415
C14A C 0.2631(7) -0.3388(4) -0.2422(3)
H8A H 0.3560 -0.3117 -0.2464
H9A H 0.2730 -0.3798 -0.2821
H10A H 0.1718 -0.2960 -0.2479
C15A C 0.9804(5) -0.4566(4) -0.2972(3)
C16A C 0.4472(6) -0.5139(3) -0.1973(3)
H11A H 0.4629 -0.5722 -0.1755
H12A H 0.4074 -0.5156 -0.2474
C17_2 C -0.5600(7) 0.8274(4) 0.4488(3)
H13_2 H -0.5294 0.8149 0.3971
N5A N 0.1107(6) -0.1416(3) -0.0417(4)
C18_2 C -0.3423(7) 0.2666(4) 0.8749(3)
H14_2 H -0.2410 0.2678 0.8884
C19A C 0.1719(6) -0.4145(3) -0.0456(3)
H15A H 0.1196 -0.4107 0.0041
C20_2 C 0.0319(8) 0.2027(4) 0.6829(4)
H16_2 H 0.1232 0.1625 0.6856
C21_2 C -0.6438(7) 0.2625(3) 0.8356(3)
H17_2 H -0.7452 0.2605 0.8225
C22_2 C 0.0208(6) 0.2606(4) 0.6214(3)
H18_2 H 0.1059 0.2608 0.5836
C23_2 C -0.7021(10) 0.9690(4) 0.4025(4)
O8_2 O -0.8147(14) 1.1111(4) 0.1458(4)
O8A O -0.1853(14) -0.1111(4) -0.1458(4)
C24A C 0.3241(13) 0.0386(7) -0.0515(9)
H19A H 0.2744 0.0887 -0.0229
H20A H 0.3184 0.0533 -0.1063
C25_2 C -0.8003(10) 1.0804(4) 0.2797(4)
C26A C 0.8351(6) -0.4316(4) -0.1641(3)
H21A H 0.8817 -0.4344 -0.1153
H22A H 0.8145 -0.3717 -0.1813
N6A N 0.2316(8) -0.0326(4) -0.0301(6)
C27_2 C -0.0910(8) 0.2032(4) 0.7411(4)
H23_2 H -0.0800 0.1658 0.7840
C28A C 0.1585(11) -0.0507(5) 0.0418(6)
H24A H 0.1610 -0.0225 0.0874
C29_2 C -0.714(2) 1.0031(6) 0.2683(7)
H25_2 H -0.6794 0.9862 0.2180
C30_2 C -0.4686(7) 0.2703(4) 0.9321(3)
H26_2 H -0.4516 0.2739 0.9839
C31A C 0.6029(8) -0.4826(6) -0.2090(6)
H27A H 0.5874 -0.4299 -0.2405
H28A H 0.6740 -0.5244 -0.2403
C32A C 0.0837(9) -0.1163(4) 0.0331(4)
H29A H 0.0219 -0.1414 0.0724
C33_2 C -0.676(2) 0.9483(6) 0.3300(7)
H30_2 H -0.6281 0.8924 0.3192
C34_2 C -0.6519(10) 0.9072(5) 0.4662(4)
C35_2 C -0.6892(18) 0.9275(8) 0.5434(5)
H31_2 H -0.7454 0.9810 0.5568
C36A C 0.6794(8) -0.4669(7) -0.1513(5)
H32A H 0.6070 -0.4269 -0.1187
H33A H 0.6994 -0.5202 -0.1209
C37A C 0.9071(7) -0.3759(4) -0.3353(3)
H34A H 0.8082 -0.3840 -0.3524
H35A H 0.8891 -0.3306 -0.2990
H36A H 0.9767 -0.3609 -0.3791
C38_2 C -0.8187(18) 1.1031(7) 0.3489(5)
H37_2 H -0.8646 1.1593 0.3598
C39_2 C -0.8545(11) 1.1378(5) 0.2129(4)
C40_2 C -0.640(2) 0.8659(8) 0.6009(5)
H38_2 H -0.6666 0.8789 0.6528
C41A C 0.251(2) -0.0892(12) -0.1642(10)
H39A H 0.1779 -0.1139 -0.1911
H40A H 0.2547 -0.0314 -0.1835
H41A H 0.3542 -0.1228 -0.1723
C42_2 C -0.772(2) 1.0459(8) 0.4110(5)
H42_2 H -0.7932 1.0659 0.4612
C43A C 0.1971(12) -0.0887(6) -0.0795(7)
C44_2 C -0.5527(16) 0.7846(7) 0.5820(5)
H43_2 H -0.5225 0.7441 0.6207
C45A C 0.4681(18) 0.0227(9) -0.039(2)
H44A H 0.5218 -0.0121 -0.0812
H45A H 0.5072 0.0773 -0.0451
C46_2 C -0.7577(6) 0.2696(3) 0.9740(3)
O10_2 O -0.8881(6) 0.2672(3) 0.9543(3)
O10A O -0.1119(6) -0.2672(3) 0.0457(3)
O9 O 0.457(3) 0.2280(17) 0.1680(14)
loop_
_geom_bond_atom_site_label_1
_geom_bond_atom_site_label_2
_geom_bond_site_symmetry_1
_geom_bond_site_symmetry_2
Cd1 N1 1_555 1_555
Cd2 O2 1_555 1_555
O1 C5 1_555 1_555
O2 H1 1_555 1_555
H2 O2 1_555 1_555
O3 C5 1_555 1_555
N1 C2 1_555 1_555
O4 C12 1_555 1_555
N2 C2 1_555 1_555
O5 C12 1_555 1_555
N3 Cd2 1_555 1_555
N4 C1 1_555 1_555
C1 H3 1_555 1_555
O6 Cd1 1_555 1_555
C2 C14 1_555 1_555
C3 C8 1_555 1_555
C4 C5 1_555 1_555
C6 C12 1_555 1_555
C7 H4 1_555 1_555
C8 C7 1_555 1_555
C9 C3 1_555 1_555
H5 C9 1_555 1_555
C10 N3 1_555 1_555
H6 C10 1_555 1_555
C11 C21 1_555 1_555
O7 Cd1 1_555 1_555
C13 N2 1_555 1_555
H7 C13 1_555 1_555
C14 H8 1_555 1_555
H9 C14 1_555 1_555
H10 C14 1_555 1_555
C15 N3 1_555 1_555
C16 N2 1_555 1_555
H11 C16 1_555 1_555
H12 C16 1_555 1_555
C17 C6 1_555 1_555
H13 C17 1_555 1_555
N5 Cd1 1_555 1_555
C18 C8 1_555 1_555
H14 C18 1_555 1_555
C19 N1 1_555 1_555
H15 C19 1_555 1_555
C20 H16 1_555 1_555
C21 C7 1_555 1_555
H17 C21 1_555 1_555
C22 C4 1_555 1_555
H18 C22 1_555 1_555
C23 C33 1_555 1_555
O8 Cd1 1_555 1_555
C24 H19 1_555 1_555
H20 C24 1_555 1_555
C25 C29 1_555 1_555
C26 N4 1_555 1_555
H21 C26 1_555 1_555
H22 C26 1_555 1_555
N6 C24 1_555 1_555
C27 C3 1_555 1_555
H23 C27 1_555 1_555
C28 N6 1_555 1_555
H24 C28 1_555 1_555
C29 H25 1_555 1_555
C30 C11 1_555 1_555
H26 C30 1_555 1_555
C31 C16 1_555 1_555
H27 C31 1_555 1_555
H28 C31 1_555 1_555
C32 N5 1_555 1_555
H29 C32 1_555 1_555
C33 C29 1_555 1_555
H30 C33 1_555 1_555
C34 C17 1_555 1_555
C35 C34 1_555 1_555
H31 C35 1_555 1_555
C36 C26 1_555 1_555
H32 C36 1_555 1_555
H33 C36 1_555 1_555
C37 C15 1_555 1_555
H34 C37 1_555 1_555
H35 C37 1_555 1_555
H36 C37 1_555 1_555
C38 C25 1_555 1_555
H37 C38 1_555 1_555
C39 O6 1_555 1_555
C40 C35 1_555 1_555
H38 C40 1_555 1_555
C41 H39 1_555 1_555
H40 C41 1_555 1_555
H41 C41 1_555 1_555
C42 C23 1_555 1_555
H42 C42 1_555 1_555
C43 N5 1_555 1_555
C44 C6 1_555 1_555
H43 C44 1_555 1_555
C45 C24 1_555 1_555
H44 C45 1_555 1_555
H45 C45 1_555 1_555
C46 C11 1_555 1_555
O10 Cd1 1_555 1_555
Cd1A N1A 1_555 1_555
Cd1_2 O7_2 1_555 1_555
Cd1_3 O6_2 1_555 1_555
Cd2_2 O1 1_555 1_555
Cd2A O3 1_555 1_555
Cd2_3 O4 1_555 1_555
Cd2A_2 O3_2 1_555 1_555
Cd2A_3 N3A 1_555 1_555
O1_2 Cd2 1_555 1_555
O2_2 Cd2_2 1_555 1_555
H1_2 O2_2 1_555 1_555
H2_2 O2_2 1_555 1_555
O3_2 C5_2 1_555 1_555
O3A Cd2 1_555 1_555
O3A_2 Cd2_2 1_555 1_555
N1A C2A 1_555 1_555
O4_2 Cd2 1_555 1_555
O4_3 Cd2_2 1_555 1_555
N2A C2A 1_555 1_555
O5_2 Cd2 1_555 1_555
O5_3 Cd2_2 1_555 1_555
N3A C10A 1_555 1_555
N3_2 Cd2_2 1_555 1_555
N4A C1A 1_555 1_555
C1A H3A 1_555 1_555
O6_2 C39_2 1_555 1_555
O6A Cd1A 1_555 1_555
C2A C14A 1_555 1_555
C3_2 C8_2 1_555 1_555
C4_2 C5_2 1_555 1_555
C5_2 O1_2 1_555 1_555
C6_2 C12_2 1_555 1_555
C7_2 H4_2 1_555 1_555
C8_2 C7_2 1_555 1_555
C9_2 C3_2 1_555 1_555
H5_2 C9_2 1_555 1_555
C10A C1A 1_555 1_555
H6A C10A 1_555 1_555
C11_2 C21_2 1_555 1_555
O7_2 C46_2 1_555 1_555
O7A Cd1A 1_555 1_555
C12_2 O4_2 1_555 1_555
C13A N2A 1_555 1_555
H7A C13A 1_555 1_555
C14A H8A 1_555 1_555
H9A C14A 1_555 1_555
H10A C14A 1_555 1_555
C15A N3A 1_555 1_555
C16A N2A 1_555 1_555
H11A C16A 1_555 1_555
H12A C16A 1_555 1_555
C17_2 C6_2 1_555 1_555
H13_2 C17_2 1_555 1_555
N5A Cd1A 1_555 1_555
C18_2 C8_2 1_555 1_555
H14_2 C18_2 1_555 1_555
C19A N1A 1_555 1_555
H15A C19A 1_555 1_555
C20_2 H16_2 1_555 1_555
C21_2 C7_2 1_555 1_555
H17_2 C21_2 1_555 1_555
C22_2 C4_2 1_555 1_555
H18_2 C22_2 1_555 1_555
C23_2 C33_2 1_555 1_555
O8_2 Cd1_3 1_555 1_555
O8A Cd1A 1_555 1_555
C24A H19A 1_555 1_555
H20A C24A 1_555 1_555
C25_2 C29_2 1_555 1_555
C26A N4A 1_555 1_555
H21A C26A 1_555 1_555
H22A C26A 1_555 1_555
N6A C24A 1_555 1_555
C27_2 C3_2 1_555 1_555
H23_2 C27_2 1_555 1_555
C28A N6A 1_555 1_555
H24A C28A 1_555 1_555
C29_2 H25_2 1_555 1_555
C30_2 C11_2 1_555 1_555
H26_2 C30_2 1_555 1_555
C31A C16A 1_555 1_555
H27A C31A 1_555 1_555
H28A C31A 1_555 1_555
C32A N5A 1_555 1_555
H29A C32A 1_555 1_555
C33_2 C29_2 1_555 1_555
H30_2 C33_2 1_555 1_555
C34_2 C17_2 1_555 1_555
C35_2 C34_2 1_555 1_555
H31_2 C35_2 1_555 1_555
C36A C26A 1_555 1_555
H32A C36A 1_555 1_555
H33A C36A 1_555 1_555
C37A C15A 1_555 1_555
H34A C37A 1_555 1_555
H35A C37A 1_555 1_555
H36A C37A 1_555 1_555
C38_2 C25_2 1_555 1_555
H37_2 C38_2 1_555 1_555
C39_2 O8_2 1_555 1_555
C40_2 C35_2 1_555 1_555
H38_2 C40_2 1_555 1_555
C41A H39A 1_555 1_555
H40A C41A 1_555 1_555
H41A C41A 1_555 1_555
C42_2 C23_2 1_555 1_555
H42_2 C42_2 1_555 1_555
C43A N5A 1_555 1_555
C44_2 C6_2 1_555 1_555
H43_2 C44_2 1_555 1_555
C45A C45 1_555 1_555
H44A C45A 1_555 1_555
H45A C45A 1_555 1_555
C46_2 C11_2 1_555 1_555
O10_2 Cd1_2 1_555 1_555
O10A Cd1A 1_555 1_555
O5 Cd2_3 1_555 1_555
N4 C15 1_555 1_555
C1 C10 1_555 1_555
C4 C9 1_555 1_555
O7 C46 1_555 1_555
C13 C19 1_555 1_555
C18 C30 1_555 1_555
C20 C22 1_555 1_555
C20 C27 1_555 1_555
C23 C34 1_555 1_555
O8 C39 1_555 1_555
C25 C39 1_555 1_555
N6 C43 1_555 1_555
C28 C32 1_555 1_555
C31 C36 1_555 1_555
C38 C42 1_555 1_555
C40 C44 1_555 1_555
C41 C43 1_555 1_555
C46 O10 1_555 1_555
O5_2 C12_2 1_555 1_555
N4A C15A 1_555 1_555
C4_2 C9_2 1_555 1_555
C13A C19A 1_555 1_555
C18_2 C30_2 1_555 1_555
C20_2 C22_2 1_555 1_555
C20_2 C27_2 1_555 1_555
C23_2 C34_2 1_555 1_555
C24A C45A 1_555 1_555
C25_2 C39_2 1_555 1_555
N6A C43A 1_555 1_555
C28A C32A 1_555 1_555
C31A C36A 1_555 1_555
C38_2 C42_2 1_555 1_555
C40_2 C44_2 1_555 1_555
C41A C43A 1_555 1_555
C46_2 O10_2 1_555 1_555

#END
