
#######################################################################
#
#                 Cambridge Crystallographic Data Centre
#                                CCDC 
#
#######################################################################
#
# If this CIF has been generated from an entry in the Cambridge 
# Structural Database, then it will include bibliographic, chemical, 
# crystal, experimental, refinement or atomic coordinate data resulting 
# from the CCDC's data processing and validation procedures.
#
#######################################################################

data_YEGMOM
_symmetry_cell_setting           monoclinic
_symmetry_space_group_name_H-M   'P 21/c'
_symmetry_Int_Tables_number      14
_space_group_name_Hall           '-P 2ybc'
loop_
_symmetry_equiv_pos_site_id
_symmetry_equiv_pos_as_xyz
1 x,y,z
2 -x,1/2+y,1/2-z
3 -x,-y,-z
4 x,1/2-y,1/2+z
_cell_length_a                   12.101(1)
_cell_length_b                   7.886(1)
_cell_length_c                   17.737(2)
_cell_angle_alpha                90
_cell_angle_beta                 109.51(1)
_cell_angle_gamma                90
_cell_volume                     1595.43
loop_
_atom_site_label
_atom_site_type_symbol
_atom_site_fract_x
_atom_site_fract_y
_atom_site_fract_z
Tl1 Tl 0.42288(3) 0.19882(5) 0.20446(2)
S1 S 0.6664(2) 0.0863(3) 0.2543(1)
P1 P 0.7121(2) 0.2623(3) 0.3399(1)
O1 O 0.6227(6) 0.3947(9) 0.3355(4)
C1 C 0.430(1) 0.258(2) 0.0871(6)
C2 C 0.375(1) 0.153(2) 0.3082(7)
C3 C 0.8475(8) 0.363(1) 0.3417(5)
C4 C 0.9159(8) 0.301(1) 0.2989(5)
C5 C 1.0212(9) 0.378(2) 0.3049(6)
C6 C 1.061(1) 0.514(2) 0.3535(6)
C7 C 0.994(1) 0.578(2) 0.3957(7)
C8 C 0.889(1) 0.503(1) 0.3905(6)
C9 C 0.7524(7) 0.157(1) 0.4367(5)
C10 C 0.8300(8) 0.025(1) 0.4549(5)
C11 C 0.8630(9) -0.054(1) 0.5290(6)
C12 C 0.8163(9) 0.004(2) 0.5852(6)
C13 C 0.7392(9) 0.134(2) 0.5683(6)
C14 C 0.7047(8) 0.214(1) 0.4941(5)
H1 H 0.5081 0.2467 0.0859
H2 H 0.3804 0.1824 0.0475
H3 H 0.4040 0.3714 0.0719
H4 H 0.4417 0.1199 0.3538
H5 H 0.3414 0.2520 0.3242
H6 H 0.3178 0.0630 0.2998
H7 H 0.8877 0.2030 0.2644
H8 H 1.0666 0.3334 0.2734
H9 H 1.1350 0.5662 0.3585
H10 H 1.0172 0.6781 0.4305
H11 H 0.8417 0.5454 0.4222
H12 H 0.8638 -0.0127 0.4144
H13 H 0.9183 -0.1494 0.5398
H14 H 0.8393 -0.0480 0.6376
H15 H 0.7067 0.1724 0.6090
H16 H 0.6472 0.3068 0.4805
S1A S 0.3336(2) 0.5863(3) 0.2457(1)
O1A O 0.3773(6) -0.1053(9) 0.1645(4)
Tl1A Tl 0.57712(3) -0.30118(5) 0.29554(2)
Tl1A_2 Tl 0.57712(3) 0.69882(5) 0.29554(2)
loop_
_geom_bond_atom_site_label_1
_geom_bond_atom_site_label_2
_geom_bond_site_symmetry_1
_geom_bond_site_symmetry_2
Tl1 S1 1_555 1_555
S1 P1 1_555 1_555
P1 O1 1_555 1_555
O1 Tl1 1_555 1_555
C1 Tl1 1_555 1_555
C2 Tl1 1_555 1_555
C3 P1 1_555 1_555
C4 C3 1_555 1_555
C5 C4 1_555 1_555
C6 C5 1_555 1_555
C7 C6 1_555 1_555
C8 C3 1_555 1_555
C9 P1 1_555 1_555
C10 C9 1_555 1_555
C11 C10 1_555 1_555
C12 C11 1_555 1_555
C13 C12 1_555 1_555
C14 C9 1_555 1_555
H1 C1 1_555 1_555
H2 C1 1_555 1_555
H3 C1 1_555 1_555
H4 C2 1_555 1_555
H5 C2 1_555 1_555
H6 C2 1_555 1_555
H7 C4 1_555 1_555
H8 C5 1_555 1_555
H9 C6 1_555 1_555
H10 C7 1_555 1_555
H11 C8 1_555 1_555
H12 C10 1_555 1_555
H13 C11 1_555 1_555
H14 C12 1_555 1_555
H15 C13 1_555 1_555
H16 C14 1_555 1_555
S1A Tl1 1_555 1_555
O1A Tl1 1_555 1_555
Tl1A S1 1_555 1_555
Tl1A_2 O1 1_555 1_555
C7 C8 1_555 1_555
C13 C14 1_555 1_555
S1A Tl1A_2 1_555 1_555
O1A Tl1A 1_555 1_555

#END
