
#######################################################################
#
#                 Cambridge Crystallographic Data Centre
#                                CCDC 
#
#######################################################################
#
# If this CIF has been generated from an entry in the Cambridge 
# Structural Database, then it will include bibliographic, chemical, 
# crystal, experimental, refinement or atomic coordinate data resulting 
# from the CCDC's data processing and validation procedures.
#
#######################################################################

data_YEGMEE
_symmetry_cell_setting           triclinic
_symmetry_space_group_name_H-M   'P -1'
_symmetry_Int_Tables_number      2
_space_group_name_Hall           '-P 1'
loop_
_symmetry_equiv_pos_site_id
_symmetry_equiv_pos_as_xyz
1 x,y,z
2 -x,-y,-z
_cell_length_a                   8.459(3)
_cell_length_b                   8.936(4)
_cell_length_c                   9.816(6)
_cell_angle_alpha                97.416(4)
_cell_angle_beta                 96.918(5)
_cell_angle_gamma                95.602(6)
_cell_volume                     725.582
loop_
_atom_site_label
_atom_site_type_symbol
_atom_site_fract_x
_atom_site_fract_y
_atom_site_fract_z
Co1 Co 0.0000 0.5000 0.0000
S1 S -0.28859(16) 0.01358(13) -0.02812(12)
N1 N -0.2547(4) 0.6419(4) -0.3564(3)
N2 N -0.1594(6) 0.5604(5) -0.4259(4)
N3 N -0.1030(4) 0.5548(3) -0.1980(3)
N4 N -0.3816(4) 0.6603(4) -0.7894(3)
N5 N -0.4306(4) 0.5098(4) -0.7983(4)
N6 N -0.2129(4) 0.5467(3) -0.9050(3)
N7 N -0.0899(4) 0.2717(4) -0.0565(3)
C1 C -0.3151(5) 0.8573(5) -0.4801(4)
C2 C -0.3641(5) 0.8868(5) -0.6149(4)
C3 C -0.3101(6) 1.0238(6) -0.6527(5)
H1 H -0.3443 1.0447 -0.7412
C4 C -0.2061(7) 1.1313(6) -0.5618(6)
H2 H -0.1713 1.2236 -0.5887
C5 C -0.1551(7) 1.0999(6) -0.4317(6)
H3 H -0.0831 1.1701 -0.3706
C6 C -0.2099(6) 0.9661(6) -0.3921(5)
H4 H -0.1756 0.9472 -0.3030
C7 C -0.3805(6) 0.7166(6) -0.4293(5)
H5 H -0.4576 0.7424 -0.3671
H6 H -0.4365 0.6461 -0.5076
C8 C -0.4706(5) 0.7765(5) -0.7219(4)
H7 H -0.5547 0.7269 -0.6787
H8 H -0.5209 0.8308 -0.7916
C9 C -0.0708(7) 0.5093(5) -0.3264(4)
H9 H 0.0081 0.4466 -0.3436
C10 C -0.2201(5) 0.6378(5) -0.2222(4)
H10 H -0.2718 0.6871 -0.1541
C11 C -0.3274(5) 0.4482(5) -0.8695(5)
H11 H -0.3321 0.3437 -0.8942
C12 C -0.2525(5) 0.6788(4) -0.8524(4)
H12 H -0.1973 0.7724 -0.8586
C13 C -0.1674(5) 0.1610(4) -0.0443(4)
Co1_2 Co 0.0000 0.5000 -1.0000
S1A S 0.28859(16) 0.98642(13) 0.02812(12)
N1A N 0.2547(4) 0.3581(4) -0.6436(3)
N2A N 0.1594(6) 0.4396(5) -0.5741(4)
N3A N 0.1030(4) 0.4452(3) -0.8020(3)
N3A_2 N 0.1030(4) 0.4452(3) 0.1980(3)
N4A N 0.3816(4) 0.3397(4) -0.2106(3)
N5A N 0.4306(4) 0.4902(4) -0.2017(4)
N6A N 0.2129(4) 0.4533(3) -0.0950(3)
N6_2 N -0.2129(4) 0.5467(3) 0.0950(3)
N7A N 0.0899(4) 0.7283(4) 0.0565(3)
C1A C 0.3151(5) 0.1427(5) -0.5199(4)
C2A C 0.3641(5) 0.1132(5) -0.3851(4)
C3A C 0.3101(6) -0.0238(6) -0.3473(5)
H1A H 0.3443 -0.0447 -0.2588
C4A C 0.2061(7) -0.1313(6) -0.4382(6)
H2A H 0.1713 -0.2236 -0.4113
C5A C 0.1551(7) -0.0999(6) -0.5683(6)
H3A H 0.0831 -0.1701 -0.6294
C6A C 0.2099(6) 0.0339(6) -0.6079(5)
H4A H 0.1756 0.0528 -0.6970
C7A C 0.3805(6) 0.2834(6) -0.5707(5)
H5A H 0.4576 0.2576 -0.6329
H6A H 0.4365 0.3539 -0.4924
C8A C 0.4706(5) 0.2235(5) -0.2781(4)
H7A H 0.5547 0.2731 -0.3213
H8A H 0.5209 0.1692 -0.2084
C9A C 0.0708(7) 0.4907(5) -0.6736(4)
H9A H -0.0081 0.5534 -0.6564
C10A C 0.2201(5) 0.3622(5) -0.7778(4)
H10A H 0.2718 0.3129 -0.8459
C11A C 0.3274(5) 0.5518(5) -0.1305(5)
H11A H 0.3321 0.6563 -0.1058
C12A C 0.2525(5) 0.3212(4) -0.1476(4)
H12A H 0.1973 0.2276 -0.1414
C13A C 0.1674(5) 0.8390(4) 0.0443(4)
loop_
_geom_bond_atom_site_label_1
_geom_bond_atom_site_label_2
_geom_bond_site_symmetry_1
_geom_bond_site_symmetry_2
Co1 N3 1_555 1_555
S1 C13 1_555 1_555
N1 N2 1_555 1_555
N2 C9 1_555 1_555
N3 C9 1_555 1_555
N4 N5 1_555 1_555
N5 C11 1_555 1_555
N6 C11 1_555 1_555
N7 Co1 1_555 1_555
C1 C2 1_555 1_555
C2 C3 1_555 1_555
C3 H1 1_555 1_555
C4 C3 1_555 1_555
H2 C4 1_555 1_555
C5 C4 1_555 1_555
H3 C5 1_555 1_555
C6 C1 1_555 1_555
H4 C6 1_555 1_555
C7 N1 1_555 1_555
H5 C7 1_555 1_555
H6 C7 1_555 1_555
C8 N4 1_555 1_555
H7 C8 1_555 1_555
H8 C8 1_555 1_555
C9 H9 1_555 1_555
C10 N1 1_555 1_555
H10 C10 1_555 1_555
C11 H11 1_555 1_555
C12 N4 1_555 1_555
H12 C12 1_555 1_555
C13 N7 1_555 1_555
Co1_2 N6 1_555 1_555
S1A C13A 1_555 1_555
N1A N2A 1_555 1_555
N2A C9A 1_555 1_555
N3A Co1_2 1_555 1_555
N3A_2 Co1 1_555 1_555
N4A N5A 1_555 1_555
N5A C11A 1_555 1_555
N6A Co1 1_555 1_555
N6_2 Co1 1_555 1_555
N7A Co1 1_555 1_555
C1A C2A 1_555 1_555
C2A C3A 1_555 1_555
C3A H1A 1_555 1_555
C4A C3A 1_555 1_555
H2A C4A 1_555 1_555
C5A C4A 1_555 1_555
H3A C5A 1_555 1_555
C6A C1A 1_555 1_555
H4A C6A 1_555 1_555
C7A N1A 1_555 1_555
H5A C7A 1_555 1_555
H6A C7A 1_555 1_555
C8A N4A 1_555 1_555
H7A C8A 1_555 1_555
H8A C8A 1_555 1_555
C9A N3A 1_555 1_555
H9A C9A 1_555 1_555
C10A N1A 1_555 1_555
H10A C10A 1_555 1_555
C11A N6A 1_555 1_555
H11A C11A 1_555 1_555
C12A N4A 1_555 1_555
H12A C12A 1_555 1_555
C13A N7A 1_555 1_555
N3 C10 1_555 1_555
N6 C12 1_555 1_555
C1 C7 1_555 1_555
C2 C8 1_555 1_555
C5 C6 1_555 1_555
N3A C10A 1_555 1_555
N6A C12A 1_555 1_555
C1A C7A 1_555 1_555
C2A C8A 1_555 1_555
C5A C6A 1_555 1_555

#END
