
#######################################################################
#
#                 Cambridge Crystallographic Data Centre
#                                CCDC 
#
#######################################################################
#
# If this CIF has been generated from an entry in the Cambridge 
# Structural Database, then it will include bibliographic, chemical, 
# crystal, experimental, refinement or atomic coordinate data resulting 
# from the CCDC's data processing and validation procedures.
#
#######################################################################

data_YEGNOO
_symmetry_cell_setting           hexagonal
_symmetry_space_group_name_H-M   'P 63'
_symmetry_Int_Tables_number      173
_space_group_name_Hall           'P 6c'
loop_
_symmetry_equiv_pos_site_id
_symmetry_equiv_pos_as_xyz
1 x,y,z
2 -y,x-y,z
3 -x+y,-x,z
4 -x,-y,1/2+z
5 y,-x+y,1/2+z
6 x-y,x,1/2+z
_cell_length_a                   29.3977(7)
_cell_length_b                   29.3977(7)
_cell_length_c                   92.802(4)
_cell_angle_alpha                90
_cell_angle_beta                 90
_cell_angle_gamma                120
_cell_volume                     69456.8
loop_
_atom_site_label
_atom_site_type_symbol
_atom_site_fract_x
_atom_site_fract_y
_atom_site_fract_z
Cd1 Cd 0.75515(4) 0.90592(4) 0.801843(11)
Cd2 Cd 0.63531(4) 0.97616(4) 0.886600(13)
Cd3 Cd 0.65332(3) 0.66599(3) 0.880104(10)
Cd4 Cd 0.54411(3) 0.75782(4) 0.722059(10)
N1 N 0.8403(5) 0.9518(5) 0.79106(13)
C1 C 0.8782(6) 0.9679(6) 0.80039(18)
C2 C 0.9295(7) 1.0087(7) 0.7980(2)
H1 H 0.9564 1.0169 0.8045
C3 C 0.9382(9) 1.0369(10) 0.7848(3)
H2 H 0.9702 1.0674 0.7832
C4 C 0.8992(7) 1.0191(8) 0.7744(2)
H3 H 0.9056 1.0340 0.7653
C5 C 0.8487(7) 0.9769(7) 0.77832(18)
H4 H 0.8209 0.9663 0.7719
N2 N 0.8155(4) 0.8965(4) 0.81567(13)
C6 C 0.8662(7) 0.9346(7) 0.8140(2)
C7 C 0.8952(8) 0.9360(7) 0.8256(2)
H5 H 0.9306 0.9601 0.8271
C8 C 0.8644(7) 0.8970(7) 0.8343(2)
H6 H 0.8738 0.8871 0.8428
N3 N 0.8159(5) 0.8745(5) 0.82812(14)
C9 C 0.7697(6) 0.8253(6) 0.83209(19)
H7 H 0.7388 0.8281 0.8301
H8 H 0.7708 0.8204 0.8424
C10 C 0.7637(6) 0.7782(6) 0.82474(18)
C11 C 0.8068(7) 0.7859(7) 0.81603(19)
H9 H 0.8376 0.8182 0.8160
C12 C 0.8030(9) 0.7461(9) 0.8078(3)
H10 H 0.8300 0.7543 0.8012
C13 C 0.7622(7) 0.6940(7) 0.8081(2)
H11 H 0.7630 0.6666 0.8034
C14 C 0.7194(6) 0.6877(6) 0.81671(19)
C15 C 0.6761(7) 0.6344(7) 0.8162(2)
H12 H 0.6782 0.6090 0.8107
C16 C 0.6307(7) 0.6216(7) 0.8243(2)
H13 H 0.6015 0.5881 0.8235
C17 C 0.6287(7) 0.6586(6) 0.83331(19)
H14 H 0.5989 0.6492 0.8388
C18 C 0.6717(5) 0.7101(5) 0.83412(17)
C19 C 0.7180(6) 0.7254(6) 0.82578(18)
N4 N 0.6158(4) 0.7056(4) 0.86642(11)
C20 C 0.5663(5) 0.6898(5) 0.87117(15)
C21 C 0.5377(5) 0.6992(4) 0.86006(13)
H15 H 0.5034 0.6929 0.8606
C22 C 0.5708(5) 0.7191(5) 0.84881(15)
H16 H 0.5630 0.7279 0.8399
N5 N 0.6183(4) 0.7242(4) 0.85289(12)
C23 C 0.6690(4) 0.7488(4) 0.84470(14)
H17 H 0.6980 0.7611 0.8515
H18 H 0.6728 0.7789 0.8394
N6 N 0.5806(4) 0.6535(4) 0.89233(12)
C24 C 0.5495(5) 0.6698(5) 0.88556(14)
C25 C 0.5099(6) 0.6710(6) 0.89235(17)
H19 H 0.4893 0.6816 0.8874
C26 C 0.4991(6) 0.6560(6) 0.90721(18)
H20 H 0.4724 0.6574 0.9122
C27 C 0.5296(6) 0.6397(6) 0.91348(18)
H21 H 0.5246 0.6303 0.9232
C28 C 0.5688(6) 0.6367(6) 0.90571(17)
H22 H 0.5871 0.6224 0.9101
N7 N 0.6955(4) 0.6375(4) 0.89593(13)
C29 C 0.7394(5) 0.6753(5) 0.90234(15)
C30 C 0.7737(6) 0.6645(6) 0.90963(17)
H23 H 0.8039 0.6917 0.9138
C31 C 0.7637(6) 0.6135(6) 0.91084(19)
H24 H 0.7872 0.6062 0.9156
C32 C 0.7170(6) 0.5726(7) 0.90477(19)
H25 H 0.7087 0.5378 0.9058
C33 C 0.6828(6) 0.5846(6) 0.89708(17)
H26 H 0.6524 0.5580 0.8929
N8 N 0.7074(4) 0.7333(4) 0.89622(11)
C34 C 0.7455(5) 0.7280(5) 0.90107(15)
C35 C 0.7884(6) 0.7759(6) 0.90539(18)
H27 H 0.8201 0.7819 0.9093
C36 C 0.7725(6) 0.8127(6) 0.90239(17)
H28 H 0.7920 0.8488 0.9037
N9 N 0.7232(4) 0.7848(4) 0.89712(13)
C37 C 0.6851(5) 0.8037(5) 0.89480(16)
H29 H 0.6638 0.7868 0.8864
H30 H 0.7040 0.8413 0.8932
C38 C 0.6505(5) 0.7906(5) 0.90800(16)
C39 C 0.6677(6) 0.7777(6) 0.92056(17)
H31 H 0.7002 0.7797 0.9208
C40 C 0.6336(7) 0.7608(7) 0.9336(2)
H32 H 0.6429 0.7480 0.9415
C41 C 0.5903(6) 0.7639(6) 0.93387(19)
H33 H 0.5714 0.7567 0.9424
C42 C 0.5718(6) 0.7780(6) 0.92127(18)
C43 C 0.5229(6) 0.7763(6) 0.92200(17)
H34 H 0.5027 0.7648 0.9303
C44 C 0.5058(6) 0.7915(6) 0.91055(18)
H35 H 0.4735 0.7900 0.9111
C45 C 0.5354(5) 0.8096(5) 0.89780(17)
H36 H 0.5229 0.8212 0.8903
C46 C 0.5817(5) 0.8104(5) 0.89624(16)
C47 C 0.6021(6) 0.7948(5) 0.90786(16)
N10 N 0.6006(4) 0.9022(4) 0.87160(12)
C48 C 0.5731(5) 0.9052(5) 0.86053(14)
C49 C 0.5381(5) 0.8559(5) 0.85464(15)
H37 H 0.5137 0.8480 0.8473
C50 C 0.5484(5) 0.8218(5) 0.86231(15)
H38 H 0.5325 0.7857 0.8610
N11 N 0.5857(4) 0.8506(4) 0.87210(12)
C51 C 0.6117(5) 0.8314(5) 0.88225(14)
H39 H 0.6467 0.8599 0.8844
H40 H 0.6152 0.8038 0.8776
N12 N 0.6030(4) 0.9954(4) 0.86638(13)
C52 C 0.5789(5) 0.9578(5) 0.85645(14)
C53 C 0.5630(5) 0.9655(5) 0.84376(17)
H41 H 0.5461 0.9380 0.8373
C54 C 0.5720(5) 1.0161(5) 0.84025(17)
H42 H 0.5606 1.0223 0.8315
C55 C 0.5973(6) 1.0548(6) 0.84983(17)
H43 H 0.6028 1.0883 0.8480
C56 C 0.6150(6) 1.0445(6) 0.86252(19)
H44 H 0.6360 1.0723 0.8686
N13 N 0.6780(5) 1.0525(5) 0.90140(14)
C57 C 0.7310(6) 1.0682(6) 0.90228(19)
C58 C 0.7579(6) 1.0995(6) 0.91472(19)
H45 H 0.7935 1.1112 0.9159
C59 C 0.7327(7) 1.1126(7) 0.9249(2)
H46 H 0.7496 1.1301 0.9333
C60 C 0.6838(6) 1.0997(6) 0.92230(18)
H47 H 0.6668 1.1109 0.9286
C61 C 0.6570(6) 1.0697(6) 0.91047(18)
H48 H 0.6225 1.0617 0.9090
N14 N 0.7235(4) 1.0263(4) 0.88009(14)
C62 C 0.7551(5) 1.0566(5) 0.89048(16)
C63 C 0.8053(6) 1.0686(6) 0.8877(2)
H49 H 0.8344 1.0879 0.8935
C64 C 0.8053(7) 1.0472(6) 0.8747(2)
H50 H 0.8342 1.0502 0.8698
N15 N 0.7546(5) 1.0208(5) 0.87027(14)
C65 C 0.7334(6) 0.9968(6) 0.85654(17)
H51 H 0.7002 0.9647 0.8581
H52 H 0.7573 0.9873 0.8520
C66 C 0.7249(5) 1.0329(5) 0.84648(16)
C67 C 0.7494(6) 1.0871(6) 0.8500(2)
H53 H 0.7704 1.0989 0.8582
C68 C 0.7433(7) 1.1229(7) 0.8418(2)
H54 H 0.7578 1.1578 0.8446
C69 C 0.7159(6) 1.1051(6) 0.82965(18)
H55 H 0.7144 1.1298 0.8237
C70 C 0.6901(6) 1.0551(6) 0.82514(18)
C71 C 0.6590(6) 1.0402(7) 0.8126(2)
H56 H 0.6547 1.0654 0.8077
C72 C 0.6357(6) 0.9918(6) 0.80744(18)
H57 H 0.6159 0.9834 0.7990
C73 C 0.6412(6) 0.9526(6) 0.81501(18)
H58 H 0.6241 0.9185 0.8114
C74 C 0.6705(5) 0.9630(5) 0.82730(15)
C75 C 0.6961(5) 1.0161(5) 0.83330(15)
N16 N 0.6804(4) 0.8600(4) 0.81627(12)
C76 C 0.6474(5) 0.8125(5) 0.81060(14)
C77 C 0.5955(5) 0.7920(5) 0.81688(14)
H59 H 0.5653 0.7600 0.8151
C78 C 0.6017(5) 0.8313(5) 0.82605(15)
H60 H 0.5752 0.8307 0.8317
N17 N 0.6510(4) 0.8702(4) 0.82568(11)
C79 C 0.6730(5) 0.9175(5) 0.83398(15)
H61 H 0.7096 0.9286 0.8359
H62 H 0.6551 0.9096 0.8432
N18 N 0.7137(5) 0.8207(5) 0.79430(14)
C80 C 0.6654(5) 0.7867(6) 0.80098(17)
C81 C 0.6394(5) 0.7336(5) 0.79835(16)
H63 H 0.6080 0.7115 0.8030
C82 C 0.6601(6) 0.7135(6) 0.78882(18)
H64 H 0.6417 0.6779 0.7866
C83 C 0.7109(6) 0.7478(6) 0.78198(19)
H65 H 0.7268 0.7347 0.7759
C84 C 0.7333(6) 0.7993(6) 0.78512(18)
H66 H 0.7650 0.8219 0.7806
N19 N 0.7821(4) 0.9925(4) 0.81024(13)
C85 C 0.7728(5) 1.0214(5) 0.80109(17)
C86 C 0.7910(6) 1.0759(6) 0.80366(18)
H67 H 0.7846 1.0965 0.7973
C87 C 0.8194(7) 1.0956(8) 0.8166(2)
H68 H 0.8299 1.1300 0.8192
C88 C 0.8321(6) 1.0677(6) 0.82521(19)
H69 H 0.8539 1.0831 0.8331
C89 C 0.8112(6) 1.0135(6) 0.82201(17)
H70 H 0.8178 0.9926 0.8282
N20 N 0.7226(4) 0.9458(4) 0.78648(13)
C90 C 0.7425(6) 0.9967(6) 0.78851(18)
C91 C 0.7269(7) 1.0184(7) 0.7771(2)
H71 H 0.7346 1.0530 0.7763
C92 C 0.6983(7) 0.9780(7) 0.7677(2)
H72 H 0.6833 0.9801 0.7590
N21 N 0.6963(5) 0.9334(5) 0.77359(15)
C93 C 0.6674(6) 0.8819(6) 0.76827(19)
H73 H 0.6872 0.8641 0.7698
H74 H 0.6625 0.8832 0.7580
C94 C 0.6129(5) 0.8499(5) 0.77557(16)
C95 C 0.5939(6) 0.8775(6) 0.78254(17)
H75 H 0.6119 0.9140 0.7821
C96 C 0.5467(6) 0.8507(6) 0.79048(18)
H76 H 0.5339 0.8697 0.7953
C97 C 0.5207(6) 0.7992(6) 0.79110(18)
H77 H 0.4900 0.7823 0.7965
C98 C 0.5390(5) 0.7676(5) 0.78351(16)
C99 C 0.5091(6) 0.7134(6) 0.78473(18)
H78 H 0.4791 0.6977 0.7904
C100 C 0.5255(6) 0.6826(6) 0.77710(17)
H79 H 0.5088 0.6464 0.7784
C101 C 0.5665(6) 0.7076(6) 0.76784(17)
H80 H 0.5758 0.6869 0.7624
C102 C 0.5944(5) 0.7595(5) 0.76584(15)
C103 C 0.5825(6) 0.7920(6) 0.77447(19)
N22 N 0.5902(4) 0.7232(4) 0.73370(13)
C104 C 0.5913(5) 0.6844(5) 0.72651(15)
C105 C 0.6299(7) 0.6745(7) 0.7328(2)
H81 H 0.6369 0.6479 0.7304
C106 C 0.6542(7) 0.7126(7) 0.7429(2)
H82 H 0.6828 0.7180 0.7485
N23 N 0.6304(5) 0.7410(5) 0.74360(16)
C107 C 0.6367(5) 0.7804(5) 0.75448(16)
H83 H 0.6366 0.8096 0.7496
H84 H 0.6705 0.7938 0.7591
N24 N 0.5254(4) 0.6804(4) 0.71038(12)
C108 C 0.5558(5) 0.6597(5) 0.71461(16)
C109 C 0.5536(6) 0.6149(5) 0.70824(16)
H85 H 0.5720 0.5993 0.7118
C110 C 0.5201(7) 0.5952(7) 0.6957(2)
H86 H 0.5183 0.5671 0.6906
C111 C 0.4908(6) 0.6171(6) 0.69093(18)
H87 H 0.4701 0.6051 0.6827
C112 C 0.4937(5) 0.6583(5) 0.69923(15)
H88 H 0.4717 0.6711 0.6967
N25 N 0.5523(4) 0.8239(4) 0.73644(11)
C113 C 0.5146(5) 0.8112(5) 0.74646(15)
C114 C 0.5107(6) 0.8498(6) 0.75489(17)
H89 H 0.4846 0.8401 0.7618
C115 C 0.5462(7) 0.9005(7) 0.7525(2)
H90 H 0.5443 0.9263 0.7578
C116 C 0.5875(6) 0.9163(6) 0.74174(17)
H91 H 0.6125 0.9511 0.7400
C117 C 0.5860(6) 0.8749(6) 0.73445(18)
H92 H 0.6114 0.8835 0.7274
N26 N 0.4681(4) 0.7225(4) 0.73663(11)
C118 C 0.4740(4) 0.7556(4) 0.74741(13)
C119 C 0.4388(5) 0.7280(5) 0.75868(16)
H93 H 0.4360 0.7414 0.7675
C120 C 0.4105(5) 0.6788(5) 0.75412(16)
H94 H 0.3830 0.6514 0.7591
N27 N 0.4292(4) 0.6756(4) 0.74054(12)
C121 C 0.4075(5) 0.6295(5) 0.73106(16)
H95 H 0.4124 0.6410 0.7211
H96 H 0.3701 0.6080 0.7328
C122 C 0.4340(5) 0.5963(5) 0.73361(14)
C123 C 0.4682(6) 0.6084(6) 0.74496(18)
H97 H 0.4752 0.6372 0.7507
C124 C 0.4929(7) 0.5800(6) 0.7484(2)
H98 H 0.5157 0.5901 0.7562
C125 C 0.4844(7) 0.5396(7) 0.7408(2)
H99 H 0.5002 0.5201 0.7433
C126 C 0.4499(6) 0.5246(6) 0.72817(18)
C127 C 0.4437(7) 0.4806(7) 0.7206(2)
H100 H 0.4610 0.4631 0.7237
C128 C 0.4107(6) 0.4629(6) 0.70816(19)
H101 H 0.4092 0.4371 0.7021
C129 C 0.3798(6) 0.4881(6) 0.70569(19)
H102 H 0.3536 0.4739 0.6987
C130 C 0.3867(5) 0.5312(5) 0.71298(14)
C131 C 0.4210(5) 0.5514(5) 0.72472(16)
N28 N 0.2692(4) 0.4792(4) 0.70206(11)
C132 C 0.2467(5) 0.4515(5) 0.68978(15)
C133 C 0.2768(5) 0.4773(5) 0.67772(15)
H103 H 0.2700 0.4667 0.6681
C134 C 0.3171(6) 0.5202(6) 0.68292(18)
H104 H 0.3439 0.5458 0.6773
N29 N 0.3146(4) 0.5224(4) 0.69755(12)
C135 C 0.3511(6) 0.5527(6) 0.70790(17)
H105 H 0.3326 0.5556 0.7162
H106 H 0.3731 0.5877 0.7041
N30 N 0.1793(4) 0.3863(4) 0.70483(12)
C136 C 0.1973(4) 0.4020(4) 0.69134(13)
C137 C 0.1697(6) 0.3723(5) 0.67938(17)
H107 H 0.1829 0.3830 0.6701
C138 C 0.1210(7) 0.3253(7) 0.6816(2)
H108 H 0.1005 0.3051 0.6739
C139 C 0.1055(6) 0.3111(6) 0.69597(17)
H109 H 0.0742 0.2803 0.6978
C140 C 0.1346(5) 0.3406(5) 0.70726(17)
H110 H 0.1237 0.3293 0.7166
N31 N 0.7231(4) 0.6840(4) 0.86446(11)
C141 C 0.7182(5) 0.6436(5) 0.85697(14)
C142 C 0.7599(5) 0.6489(5) 0.84880(16)
H111 H 0.7567 0.6201 0.8437
C143 C 0.8069(6) 0.6968(6) 0.84811(19)
H112 H 0.8343 0.7007 0.8423
C144 C 0.8116(6) 0.7362(5) 0.85585(16)
H113 H 0.8435 0.7677 0.8560
C145 C 0.7690(5) 0.7314(5) 0.86389(16)
H114 H 0.7719 0.7603 0.8688
N32 N 0.6307(4) 0.5927(4) 0.86623(12)
C146 C 0.6691(5) 0.5947(5) 0.85773(14)
C147 C 0.6544(6) 0.5453(6) 0.85187(18)
H115 H 0.6747 0.5365 0.8461
C148 C 0.6040(6) 0.5127(6) 0.85643(17)
H116 H 0.5827 0.4775 0.8540
N33 N 0.5903(4) 0.5427(5) 0.86556(13)
C149 C 0.5394(5) 0.5258(5) 0.87256(15)
H117 H 0.5451 0.5411 0.8821
H118 H 0.5204 0.4879 0.8736
C150 C 0.5075(5) 0.5422(5) 0.86391(16)
C151 C 0.5186(6) 0.5538(5) 0.84956(17)
H119 H 0.5454 0.5500 0.8454
C152 C 0.4910(6) 0.5712(6) 0.84088(19)
H120 H 0.4977 0.5768 0.8311
C153 C 0.4543(6) 0.5795(6) 0.84729(18)
H121 H 0.4378 0.5931 0.8417
C154 C 0.4398(6) 0.5691(6) 0.86149(17)
C155 C 0.4027(5) 0.5815(5) 0.86774(15)
H122 H 0.3882 0.5973 0.8621
C156 C 0.3890(5) 0.5708(5) 0.88144(17)
H123 H 0.3658 0.5801 0.8854
C157 C 0.4081(6) 0.5462(6) 0.88988(19)
H124 H 0.3963 0.5385 0.8993
C158 C 0.4444(5) 0.5318(5) 0.88518(16)
C159 C 0.4644(5) 0.5470(5) 0.87015(15)
N34 N 0.3760(5) 0.4314(5) 0.90367(14)
C160 C 0.3519(6) 0.4191(5) 0.91680(17)
C161 C 0.3840(7) 0.4538(7) 0.9272(2)
H125 H 0.3765 0.4539 0.9369
C162 C 0.4323(7) 0.4903(7) 0.9196(2)
H126 H 0.4623 0.5185 0.9235
N35 N 0.4246(5) 0.4751(5) 0.90623(14)
C163 C 0.4619(6) 0.4995(6) 0.89441(18)
H127 H 0.4628 0.4727 0.8885
H128 H 0.4968 0.5222 0.8982
N36 N 0.2826(5) 0.3426(5) 0.90601(15)
C164 C 0.3013(6) 0.3746(6) 0.91790(17)
C165 C 0.2713(7) 0.3635(7) 0.9306(2)
H129 H 0.2845 0.3864 0.9384
C166 C 0.2235(7) 0.3200(7) 0.9316(2)
H130 H 0.2038 0.3127 0.9400
C167 C 0.2037(7) 0.2854(7) 0.9195(2)
H131 H 0.1718 0.2540 0.9200
C168 C 0.2342(6) 0.3005(6) 0.90681(19)
H132 H 0.2202 0.2803 0.8986
Cd2B Cd 0.34085(6) 0.36469(4) 0.886600(13)
Cd4B Cd 0.21371(5) 0.45589(3) 0.722059(10)
N28A N 0.5208(4) 0.7900(6) 0.70206(11)
N30A N 0.6137(4) 0.7930(6) 0.70483(12)
N34A N 0.5686(5) 0.9446(7) 0.90367(14)
N36A N 0.6574(5) 0.9400(7) 0.90601(15)
Cd5 Cd 0.59407(3) 0.87610(4) 0.576653(10)
Cd6 Cd 0.64984(3) 0.75035(3) 0.489117(10)
Cd7 Cd 0.74498(4) 1.10853(4) 0.497335(13)
Cd8 Cd 0.79730(4) 0.95801(4) 0.656052(10)
N37 N 0.6580(5) 0.9573(5) 0.58451(15)
C169 C 0.7030(5) 0.9767(5) 0.57771(16)
C170 C 0.7437(6) 1.0328(6) 0.57896(18)
H133 H 0.7749 1.0469 0.5737
C171 C 0.7333(6) 1.0637(7) 0.58832(19)
H134 H 0.7581 1.0990 0.5895
C172 C 0.6864(7) 1.0419(7) 0.5958(2)
H135 H 0.6799 1.0618 0.6023
C173 C 0.6482(7) 0.9884(6) 0.5931(2)
H136 H 0.6155 0.9745 0.5975
N38 N 0.6670(4) 0.9023(4) 0.56167(12)
C174 C 0.7093(5) 0.9440(5) 0.56697(15)
C175 C 0.7555(5) 0.9498(5) 0.56088(16)
H137 H 0.7898 0.9757 0.5629
C176 C 0.7394(5) 0.9090(5) 0.55112(15)
H138 H 0.7607 0.9017 0.5453
N39 N 0.6862(4) 0.8818(4) 0.55181(11)
C177 C 0.6506(5) 0.8353(5) 0.54366(15)
H139 H 0.6646 0.8388 0.5340
H140 H 0.6172 0.8342 0.5428
C178 C 0.6409(5) 0.7849(5) 0.54965(15)
C179 C 0.6711(5) 0.7866(5) 0.56153(16)
H141 H 0.6957 0.8192 0.5652
C180 C 0.6662(7) 0.7423(7) 0.5681(2)
H142 H 0.6885 0.7459 0.5756
C181 C 0.6294(5) 0.6933(6) 0.56372(17)
H143 H 0.6248 0.6635 0.5685
C182 C 0.5992(5) 0.6895(5) 0.55204(15)
C183 C 0.5600(6) 0.6346(6) 0.54739(17)
H144 H 0.5561 0.6057 0.5526
C184 C 0.5309(6) 0.6280(6) 0.53568(17)
H145 H 0.5067 0.5943 0.5326
C185 C 0.5365(5) 0.6724(5) 0.52795(16)
H146 H 0.5148 0.6664 0.5201
C186 C 0.5717(5) 0.7228(5) 0.53142(15)
C187 C 0.6034(5) 0.7334(5) 0.54459(15)
N40 N 0.5667(4) 0.7259(4) 0.49796(13)
C188 C 0.5281(5) 0.6971(5) 0.48875(16)
C189 C 0.4837(7) 0.6983(6) 0.49283(19)
H147 H 0.4514 0.6820 0.4881
C190 C 0.4963(7) 0.7292(6) 0.5057(2)
H148 H 0.4746 0.7368 0.5112
N41 N 0.5475(4) 0.7448(4) 0.50782(13)
C191 C 0.5757(5) 0.7659(5) 0.52140(14)
H149 H 0.5615 0.7852 0.5262
H150 H 0.6124 0.7902 0.5193
N42 N 0.5853(4) 0.6778(4) 0.47592(13)
C192 C 0.5375(5) 0.6704(6) 0.47710(17)
C193 C 0.4944(6) 0.6374(7) 0.46843(19)
H151 H 0.4611 0.6332 0.4697
C194 C 0.5064(8) 0.6111(9) 0.4576(2)
H152 H 0.4805 0.5906 0.4509
C195 C 0.5558(7) 0.6147(7) 0.4564(2)
H153 H 0.5620 0.5937 0.4502
C196 C 0.5950(6) 0.6523(6) 0.46533(16)
H154 H 0.6295 0.6601 0.4639
N43 N 0.6708(4) 0.7147(4) 0.50797(12)
C197 C 0.7024(4) 0.7475(4) 0.51837(13)
C198 C 0.7119(6) 0.7288(6) 0.53111(17)
H155 H 0.7353 0.7521 0.5379
C199 C 0.6861(6) 0.6751(6) 0.5337(2)
H156 H 0.6903 0.6617 0.5423
C200 C 0.6540(6) 0.6422(6) 0.52294(19)
H157 H 0.6375 0.6060 0.5242
C201 C 0.6464(6) 0.6620(6) 0.51075(18)
H158 H 0.6236 0.6388 0.5039
N44 N 0.7039(4) 0.8199(4) 0.50496(12)
C202 C 0.7266(5) 0.8044(5) 0.51526(15)
C203 C 0.7661(5) 0.8454(5) 0.52176(14)
H159 H 0.7870 0.8440 0.5290
C204 C 0.7705(5) 0.8905(5) 0.51582(15)
H160 H 0.7943 0.9250 0.5184
N45 N 0.7333(4) 0.8741(4) 0.50549(11)
C205 C 0.7206(5) 0.9062(5) 0.49631(15)
H161 H 0.7268 0.9373 0.5016
H162 H 0.6836 0.8866 0.4938
C206 C 0.7534(5) 0.9231(5) 0.48241(15)
C207 C 0.7945(6) 0.9139(6) 0.48109(18)
H163 H 0.8017 0.8983 0.4888
C208 C 0.8252(5) 0.9261(5) 0.46931(16)
H164 H 0.8530 0.9194 0.4691
C209 C 0.8152(6) 0.9487(6) 0.45742(19)
H165 H 0.8359 0.9565 0.4492
C210 C 0.7738(5) 0.9599(5) 0.45784(16)
C211 C 0.7644(5) 0.9807(5) 0.44564(16)
H166 H 0.7850 0.9870 0.4375
C212 C 0.7254(6) 0.9919(6) 0.44563(19)
H167 H 0.7170 1.0031 0.4372
C213 C 0.6970(5) 0.9867(5) 0.45841(16)
H168 H 0.6726 0.9981 0.4585
C214 C 0.7043(5) 0.9659(5) 0.47026(14)
C215 C 0.7438(5) 0.9503(5) 0.47078(15)
N46 N 0.6788(5) 1.0489(5) 0.48221(15)
C216 C 0.6510(6) 1.0687(6) 0.47614(18)
C217 C 0.5993(8) 1.0270(8) 0.4725(2)
H169 H 0.5718 1.0300 0.4685
C218 C 0.5995(7) 0.9791(7) 0.4762(2)
H170 H 0.5727 0.9447 0.4748
N47 N 0.6482(5) 0.9956(5) 0.48241(14)
C219 C 0.6724(6) 0.9640(6) 0.48389(17)
H171 H 0.6455 0.9279 0.4857
H172 H 0.6958 0.9761 0.4922
N48 N 0.7194(5) 1.1537(5) 0.48126(15)
C220 C 0.6754(6) 1.1255(6) 0.4741(2)
C221 C 0.6548(8) 1.1441(8) 0.4633(2)
H173 H 0.6266 1.1218 0.4575
C222 C 0.6806(9) 1.1996(9) 0.4622(3)
H174 H 0.6656 1.2152 0.4567
C223 C 0.7277(9) 1.2306(8) 0.4691(3)
H175 H 0.7472 1.2664 0.4672
C224 C 0.7460(7) 1.2062(6) 0.4792(2)
H176 H 0.7766 1.2269 0.4843
N49 N 0.8082(5) 1.1007(5) 0.48480(14)
C225 C 0.8269(5) 1.0714(5) 0.49061(15)
C226 C 0.8583(5) 1.0584(5) 0.48373(15)
H177 H 0.8708 1.0386 0.4883
C227 C 0.8727(5) 1.0756(5) 0.46909(15)
H178 H 0.8948 1.0676 0.4639
C228 C 0.8529(6) 1.1040(6) 0.46309(18)
H179 H 0.8605 1.1148 0.4535
C229 C 0.8217(5) 1.1170(5) 0.47105(16)
H180 H 0.8094 1.1376 0.4669
N50 N 0.7643(4) 1.0523(4) 0.51053(12)
C230 C 0.8075(5) 1.0522(5) 0.50568(16)
C231 C 0.8279(5) 1.0327(5) 0.51603(14)
H181 H 0.8577 1.0295 0.5151
C232 C 0.7964(5) 1.0194(5) 0.52753(15)
H182 H 0.7999 1.0054 0.5362
N51 N 0.7573(4) 1.0308(4) 0.52386(12)
C233 C 0.7126(6) 1.0237(6) 0.53300(17)
H183 H 0.6996 0.9912 0.5383
H184 H 0.6846 1.0200 0.5267
C234 C 0.7248(5) 1.0673(5) 0.54361(16)
C235 C 0.7756(7) 1.1102(6) 0.5437(2)
H185 H 0.7998 1.1101 0.5373
C236 C 0.7919(7) 1.1525(7) 0.55266(19)
H186 H 0.8272 1.1780 0.5532
C237 C 0.7556(7) 1.1562(7) 0.5606(2)
H187 H 0.7663 1.1860 0.5663
C238 C 0.7017(6) 1.1167(6) 0.56076(18)
C239 C 0.6668(6) 1.1221(7) 0.56876(19)
H188 H 0.6784 1.1535 0.5737
C240 C 0.6160(9) 1.0849(9) 0.5701(3)
H189 H 0.5931 1.0900 0.5758
C241 C 0.5989(7) 1.0372(7) 0.5623(2)
H190 H 0.5638 1.0112 0.5628
C242 C 0.6336(6) 1.0285(6) 0.55397(19)
C243 C 0.6867(5) 1.0698(5) 0.55246(17)
N52 N 0.5525(5) 0.9131(5) 0.56443(14)
C244 C 0.5010(7) 0.8930(7) 0.5688(2)
C245 C 0.4742(7) 0.8997(7) 0.5564(2)
H191 H 0.4382 0.8855 0.5554
C246 C 0.5108(6) 0.9297(6) 0.5469(2)
H192 H 0.5056 0.9429 0.5384
N53 N 0.5543(4) 0.9369(4) 0.55177(13)
C247 C 0.6102(5) 0.9763(5) 0.54617(17)
H193 H 0.6328 0.9614 0.5475
H194 H 0.6085 0.9820 0.5359
N54 N 0.5187(5) 0.8604(5) 0.58972(15)
C248 C 0.4844(7) 0.8685(8) 0.5827(2)
C249 C 0.4330(9) 0.8509(13) 0.5879(3)
H195 H 0.4133 0.8665 0.5854
C250 C 0.4143(13) 0.807(4) 0.5974(12)
H196 H 0.3788 0.7819 0.5976
C251 C 0.4495(12) 0.8022(16) 0.6065(4)
H197 H 0.4389 0.7808 0.6146
C252 C 0.5035(9) 0.8331(9) 0.6022(2)
H198 H 0.5292 0.8343 0.6083
N55 N 0.5411(4) 0.7922(4) 0.56670(12)
C253 C 0.5394(6) 0.7526(6) 0.57441(17)
C254 C 0.5071(6) 0.7019(7) 0.57093(19)
H199 H 0.5050 0.6751 0.5767
C255 C 0.4756(6) 0.6900(6) 0.55782(18)
H200 H 0.4555 0.6558 0.5544
C256 C 0.4773(6) 0.7309(6) 0.55103(19)
H201 H 0.4559 0.7249 0.5431
C257 C 0.5089(5) 0.7798(5) 0.55541(16)
H202 H 0.5086 0.8069 0.5503
N56 N 0.6022(4) 0.8152(4) 0.59072(13)
C258 C 0.5708(6) 0.7662(6) 0.58794(18)
C259 C 0.5748(7) 0.7339(7) 0.5987(2)
H203 H 0.5561 0.6974 0.5990
C260 C 0.6082(7) 0.7638(7) 0.6077(2)
H204 H 0.6200 0.7534 0.6157
N57 N 0.6241(5) 0.8136(5) 0.60374(15)
C261 C 0.6665(6) 0.8642(6) 0.6100(2)
H205 H 0.6694 0.8598 0.6202
H206 H 0.6571 0.8912 0.6087
C262 C 0.7189(6) 0.8816(5) 0.60283(16)
C263 C 0.7259(6) 0.8448(6) 0.59512(17)
H207 H 0.6999 0.8095 0.5952
C264 C 0.7730(6) 0.8611(7) 0.58702(19)
H208 H 0.7765 0.8360 0.5818
C265 C 0.8110(6) 0.9095(6) 0.58667(17)
H209 H 0.8412 0.9185 0.5814
C266 C 0.8062(6) 0.9498(6) 0.59466(18)
C267 C 0.8465(7) 1.0025(6) 0.5929(2)
H210 H 0.8738 1.0108 0.5865
C268 C 0.8453(6) 1.0407(6) 0.60069(18)
H211 H 0.8720 1.0754 0.5998
C269 C 0.8033(6) 1.0275(6) 0.61012(18)
H212 H 0.8028 1.0542 0.6154
C270 C 0.7631(6) 0.9772(6) 0.61195(17)
C271 C 0.7611(5) 0.9338(5) 0.60323(16)
N58 N 0.7728(4) 1.0121(4) 0.64462(13)
C272 C 0.7847(6) 1.0573(6) 0.65157(18)
C273 C 0.7638(7) 1.0842(8) 0.6453(2)
H213 H 0.7679 1.1167 0.6478
C274 C 0.7345(9) 1.0506(9) 0.6342(3)
H214 H 0.7141 1.0571 0.6278
N59 N 0.7393(5) 1.0081(5) 0.63402(15)
C275 C 0.7216(7) 0.9669(7) 0.6237(2)
H215 H 0.6900 0.9625 0.6191
H216 H 0.7126 0.9343 0.6286
N60 N 0.8376(4) 1.0381(4) 0.66803(12)
C276 C 0.8213(6) 1.0728(6) 0.66378(18)
C277 C 0.8364(6) 1.1185(6) 0.67173(19)
H217 H 0.8231 1.1403 0.6693
C278 C 0.8696(6) 1.1313(7) 0.68281(19)
H218 H 0.8818 1.1634 0.6874
C279 C 0.8864(6) 1.0971(6) 0.68758(18)
H219 H 0.9076 1.1046 0.6957
C280 C 0.8700(5) 1.0516(5) 0.67970(17)
H220 H 0.8818 1.0289 0.6825
N61 N 0.7301(4) 0.9369(4) 0.67321(11)
C281 C 0.7435(5) 0.9294(5) 0.68702(15)
C282 C 0.7150(6) 0.9304(6) 0.69897(19)
H221 H 0.7255 0.9271 0.7082
C283 C 0.6708(6) 0.9364(6) 0.69722(19)
H222 H 0.6511 0.9362 0.7051
C284 C 0.6575(6) 0.9426(6) 0.68306(18)
H223 H 0.6286 0.9467 0.6813
C285 C 0.6887(5) 0.9425(5) 0.67175(16)
H224 H 0.6795 0.9468 0.6625
N62 N 0.8111(4) 0.9163(4) 0.67581(11)
C286 C 0.7892(5) 0.9219(5) 0.68808(16)
C287 C 0.8121(5) 0.9125(5) 0.69985(17)
H225 H 0.8023 0.9114 0.7094
C288 C 0.8513(5) 0.9052(5) 0.69489(16)
H226 H 0.8755 0.9008 0.7003
N63 N 0.8478(4) 0.9056(4) 0.67996(12)
C289 C 0.8748(5) 0.8902(5) 0.66994(15)
H227 H 0.9067 0.8945 0.6743
H228 H 0.8843 0.9122 0.6614
C290 C 0.8382(5) 0.8317(5) 0.66567(16)
C291 C 0.7965(6) 0.8021(6) 0.67343(17)
H229 H 0.7901 0.8173 0.6814
C292 C 0.7612(6) 0.7495(6) 0.67056(18)
H230 H 0.7328 0.7303 0.6767
C293 C 0.7681(6) 0.7263(6) 0.65882(18)
H231 H 0.7434 0.6920 0.6564
C294 C 0.8141(5) 0.7555(5) 0.65036(16)
C295 C 0.8169(6) 0.7296(7) 0.63855(19)
H232 H 0.7910 0.6950 0.6370
C296 C 0.8573(7) 0.7538(7) 0.6290(2)
H233 H 0.8586 0.7370 0.6206
C297 C 0.8985(5) 0.8075(5) 0.63238(15)
H234 H 0.9280 0.8244 0.6265
C298 C 0.8944(5) 0.8315(5) 0.64348(15)
C299 C 0.8502(6) 0.8095(6) 0.65337(17)
N64 N 1.0271(4) 0.8964(4) 0.64128(11)
C300 C 1.0624(5) 0.9173(5) 0.63051(14)
C301 C 1.0428(5) 0.9361(5) 0.61966(16)
H235 H 1.0588 0.9515 0.6110
C302 C 0.9964(5) 0.9271(5) 0.62449(15)
H236 H 0.9741 0.9360 0.6197
N65 N 0.9872(4) 0.9035(4) 0.63719(12)
C303 C 0.9409(5) 0.8872(5) 0.64660(15)
H237 H 0.9289 0.9123 0.6455
H238 H 0.9517 0.8886 0.6565
N66 N 1.1143(4) 0.8838(4) 0.64142(12)
C304 C 1.1612(5) 0.8868(5) 0.64304(16)
H239 H 1.1638 0.8642 0.6496
C305 C 1.2039(6) 0.9202(6) 0.63589(18)
H240 H 1.2350 0.9202 0.6377
C306 C 1.2040(6) 0.9552(6) 0.62578(18)
H241 H 1.2337 0.9781 0.6205
C307 C 1.1548(6) 0.9530(6) 0.62425(17)
H242 H 1.1516 0.9754 0.6178
C308 C 1.1136(5) 0.9195(5) 0.63189(14)
N67 N 0.6904(5) 1.1149(5) 0.51394(14)
C309 C 0.7099(6) 1.1609(6) 0.52158(17)
C310 C 0.6793(7) 1.1685(7) 0.5310(2)
H243 H 0.6940 1.1987 0.5366
C311 C 0.6275(8) 1.1330(8) 0.5324(2)
H244 H 0.6066 1.1405 0.5383
C312 C 0.6063(7) 1.0873(7) 0.5253(2)
H245 H 0.5712 1.0619 0.5266
C313 C 0.6393(7) 1.0786(7) 0.5156(2)
H246 H 0.6251 1.0474 0.5104
N68 N 0.7947(4) 1.1864(4) 0.50983(12)
C314 C 0.7669(7) 1.2000(7) 0.5186(2)
C315 C 0.7946(6) 1.2502(6) 0.52360(19)
H247 H 0.7836 1.2682 0.5296
C316 C 0.8432(8) 1.2672(8) 0.5174(2)
H248 H 0.8723 1.3005 0.5188
N69 N 0.8430(4) 1.2294(4) 0.50912(13)
C317 C 0.8849(6) 1.2259(6) 0.50255(17)
H249 H 0.9129 1.2611 0.5003
H250 H 0.8724 1.2068 0.4935
C318 C 0.9074(5) 1.1990(5) 0.51172(15)
C319 C 0.8935(5) 1.1914(5) 0.52525(16)
H251 H 0.8730 1.2047 0.5288
C320 C 0.9093(6) 1.1626(6) 0.53495(19)
H252 H 0.9024 1.1608 0.5448
C321 C 0.9341(6) 1.1387(6) 0.52926(17)
H253 H 0.9404 1.1166 0.5350
C322 C 0.9506(5) 1.1464(5) 0.51486(16)
C323 C 0.9743(5) 1.1183(5) 0.50967(16)
H254 H 0.9774 1.0946 0.5156
C324 C 0.9930(5) 1.1259(5) 0.49566(16)
H255 H 1.0098 1.1084 0.4922
C325 C 0.9860(5) 1.1610(5) 0.48666(15)
H256 H 0.9971 1.1647 0.4771
C326 C 0.9636(5) 1.1898(5) 0.49134(16)
C327 C 0.9396(6) 1.1794(6) 0.50584(18)
N70 N 1.0529(4) 1.2847(4) 0.47267(12)
C328 C 1.0810(5) 1.2865(5) 0.46081(14)
C329 C 1.0466(5) 1.2495(5) 0.45046(17)
H257 H 1.0553 1.2442 0.4412
C330 C 0.9972(5) 1.2230(5) 0.45702(15)
H258 H 0.9670 1.1947 0.4532
N71 N 1.0018(4) 1.2465(4) 0.47001(12)
C331 C 0.9635(6) 1.2303(6) 0.48115(17)
H259 H 0.9291 1.2157 0.4768
H260 H 0.9698 1.2609 0.4867
N72 N 1.1588(4) 1.3549(4) 0.47136(11)
C332 C 1.1351(4) 1.3194(4) 0.45994(13)
C333 C 1.1667(5) 1.3226(5) 0.44870(16)
H261 H 1.1519 1.2991 0.4411
C334 C 1.2198(5) 1.3594(5) 0.44822(16)
H262 H 1.2403 1.3615 0.4404
C335 C 1.2413(5) 1.3934(5) 0.46010(16)
H263 H 1.2770 1.4179 0.4604
C336 C 1.2093(5) 1.3900(5) 0.47117(15)
H264 H 1.2235 1.4132 0.4789
Cd6B Cd 1.10051(4) 1.35016(3) 0.489117(10)
Cd8A Cd 1.04199(4) 0.83929(6) 0.656052(10)
N64B N 0.8693(6) 0.9729(4) 0.64128(11)
N66B N 0.7695(6) 0.8857(4) 0.64142(12)
N70A N 0.7153(4) 0.7682(6) 0.47267(12)
N72A N 0.6451(4) 0.8039(6) 0.47136(11)
B1 B 0.2646(6) 0.1216(6) 0.36260(16)
F1 F 0.2613(4) 0.0914(4) 0.37428(11)
F2 F 0.2300(4) 0.0890(4) 0.35204(11)
F3 F 0.2480(4) 0.1570(3) 0.36679(11)
F4 F 0.3144(3) 0.1484(3) 0.35755(10)
B2 B 0.5180(8) 0.9293(8) 0.0460(2)
F5 F 0.5142(5) 0.9684(5) 0.04015(16)
F6 F 0.5661(6) 0.9488(6) 0.05348(19)
F7 F 0.4772(5) 0.8989(6) 0.05496(17)
F8 F 0.5170(5) 0.8969(5) 0.03502(16)
B3 B 0.5899(10) 0.8737(10) 0.6409(3)
F9 F 0.5869(7) 0.9007(7) 0.6516(2)
F10 F 0.5442(6) 0.8272(6) 0.64099(19)
F11 F 0.6324(6) 0.8659(6) 0.64345(17)
F12 F 0.5969(6) 0.8961(6) 0.62723(19)
B4 B 0.8957(9) 0.3060(9) 0.4718(3)
F13 F 0.9402(6) 0.3233(5) 0.48040(17)
F14 F 0.8612(6) 0.3059(6) 0.47979(17)
F15 F 0.9137(7) 0.3419(7) 0.4606(2)
F16 F 0.8802(5) 0.2555(5) 0.46680(17)
B5 B 0.9186(5) 0.0793(5) 0.42971(16)
F17 F 0.9138(8) 0.0367(8) 0.4363(2)
F18 F 0.9314(4) 0.0856(4) 0.41573(12)
F19 F 0.8723(5) 0.0812(5) 0.43168(15)
F20 F 0.9531(6) 0.1238(6) 0.43740(17)
B6 B 0.8550(11) 0.7512(11) 0.2383(3)
F21 F 0.8089(5) 0.7013(5) 0.23541(16)
F22 F 0.8588(6) 0.7601(6) 0.25354(17)
F23 F 0.8953(6) 0.7473(6) 0.23311(18)
F24 F 0.8486(5) 0.7918(5) 0.23178(16)
B7 B 0.5487(10) 0.4577(9) 0.9051(3)
F25 F 0.5626(4) 0.5101(4) 0.90620(13)
F26 F 0.5959(8) 0.4595(8) 0.9038(2)
F27 F 0.5293(8) 0.4392(8) 0.9189(2)
F28 F 0.5178(5) 0.4338(5) 0.89396(14)
B8 B 0.6038(7) 0.8971(7) 0.5160(2)
F29 F 0.6545(3) 0.9125(3) 0.52041(9)
F30 F 0.6028(4) 0.9437(4) 0.51202(11)
F31 F 0.5902(3) 0.8650(3) 0.50389(10)
F32 F 0.5694(4) 0.8720(4) 0.52673(11)
B9 B 0.4532(8) 0.7241(8) 0.8351(2)
F33 F 0.4808(7) 0.7035(7) 0.82816(19)
F34 F 0.4049(7) 0.6791(7) 0.8339(2)
F35 F 0.4521(6) 0.7247(6) 0.85035(16)
F36 F 0.4746(8) 0.7740(7) 0.8302(2)
B10 B 0.8876(9) 0.9516(10) 0.5444(3)
F37 F 0.8441(6) 0.9059(6) 0.54791(18)
F38 F 0.9065(8) 0.9789(8) 0.5572(2)
F39 F 0.8664(8) 0.9758(8) 0.5365(2)
F40 F 0.9256(7) 0.9473(7) 0.5378(2)
B11 B 0.4013(7) 0.7807(7) 0.5277(2)
F41 F 0.3460(9) 0.7494(9) 0.5260(3)
F42 F 0.4227(7) 0.7556(7) 0.5227(2)
F43 F 0.4067(7) 0.7862(7) 0.5423(2)
F44 F 0.4125(7) 0.8266(7) 0.5238(2)
B12 B 0.6667 0.3333 0.2047(3)
F45 F 0.6667 0.3333 0.22055(16)
F46 F 0.6178(3) 0.3237(4) 0.20059(11)
F46A F 0.6763(4) 0.2941(5) 0.20059(11)
F46B F 0.7059(5) 0.3822(3) 0.20059(11)
B13 B 0.0000 1.0000 0.0098(2)
F47 F 0.0000 1.0000 0.0259(3)
F48 F 0.0390(7) 0.9934(9) 0.0056(2)
F48A F 0.0066(9) 1.0456(11) 0.0056(2)
F48B F -0.0456(11) 0.9610(7) 0.0056(2)
B14 B 0.0000 0.0000 0.1732(4)
F49 F 0.0000 0.0000 0.15893(17)
F50 F 0.0034(3) 0.0469(3) 0.17857(9)
F50A F -0.0469(3) -0.0435(4) 0.17857(9)
F50B F 0.0435(4) -0.0034(3) 0.17857(9)
B15 B 0.8354(12) 0.2514(12) 0.6590(3)
F51 F 0.8517(14) 0.2401(15) 0.6716(3)
F52 F 0.7975(11) 0.2023(10) 0.6545(4)
F53 F 0.8110(14) 0.2808(13) 0.6619(4)
F54 F 0.8744(13) 0.2755(14) 0.6494(4)
B18 B 0.7355(11) 0.9398(11) 0.0913(3)
F59 F 0.7054(13) 0.8862(10) 0.0917(4)
F60 F 0.7835(11) 0.9513(14) 0.0969(4)
F61 F 0.7410(15) 0.9516(15) 0.0767(3)
F62 F 0.7157(14) 0.9654(14) 0.0986(4)
B19 B 0.9376(11) 0.0735(11) 0.8639(3)
F63 F 0.8998(9) 0.0635(9) 0.8538(3)
F64 F 0.9512(13) 0.0361(12) 0.8599(4)
F65 F 0.9139(14) 0.0596(14) 0.8774(3)
F66 F 0.9760(10) 0.1239(9) 0.8646(3)
B20 B 1.0000 1.0000 0.0909(5)
F67 F 1.0000 1.0000 0.0748(4)
F68 F 0.9487(6) 0.9887(9) 0.0935(2)
F68A F 1.0113(9) 0.9600(11) 0.0935(2)
F68B F 1.0400(11) 1.0513(6) 0.0935(2)
B21 B 0.6667 0.3333 0.2948(4)
F69 F 0.6667 0.3333 0.2789(3)
F70 F 0.6173(6) 0.3097(6) 0.2995(2)
F70A F 0.6903(6) 0.3076(8) 0.2995(2)
F70B F 0.6924(8) 0.3827(6) 0.2995(2)
C337 C 0.9765(7) 0.9094(7) 0.7178(2)
H265 H 0.9585 0.9291 0.7179
H266 H 0.9882 0.9088 0.7081
H267 H 1.0063 0.9255 0.7241
C338 C 0.9422(6) 0.8577(7) 0.7224(2)
H268 H 0.9432 0.8556 0.7328
H269 H 0.9529 0.8341 0.7183
O1 O 0.8894(4) 0.8425(4) 0.71767(14)
C339 C 0.8495(7) 0.7917(8) 0.7234(3)
H270 H 0.8470 0.7944 0.7338
H271 H 0.8596 0.7656 0.7215
C340 C 0.7969(7) 0.7749(8) 0.7166(2)
H272 H 0.7887 0.8024 0.7176
H273 H 0.7704 0.7438 0.7213
H274 H 0.7981 0.7676 0.7066
C341 C 0.8863(11) 0.1300(15) 0.7696(5)
H275 H 0.8705 0.1105 0.7610
H276 H 0.8783 0.1577 0.7706
H277 H 0.8728 0.1069 0.7778
C342 C 0.9408(12) 0.1514(17) 0.7689(6)
H278 H 0.9544 0.1539 0.7786
H279 H 0.9565 0.1868 0.7651
O2 O 0.9562(8) 0.1214(9) 0.7602(3)
C343 C 1.0130(8) 0.1430(10) 0.7591(3)
H280 H 1.0258 0.1381 0.7683
H281 H 1.0294 0.1805 0.7574
C344 C 1.0303(11) 0.1196(12) 0.7475(3)
H282 H 1.0341 0.0915 0.7514
H283 H 1.0633 0.1461 0.7436
H284 H 1.0045 0.1062 0.7399
C345 C 0.3429(8) 0.7504(8) 0.6618(3)
H285 H 0.3432 0.7181 0.6632
H286 H 0.3122 0.7436 0.6565
H287 H 0.3426 0.7650 0.6710
C346 C 0.3884(8) 0.7863(7) 0.6541(2)
H288 H 0.3785 0.7918 0.6446
H289 H 0.4116 0.7720 0.6530
O3 O 0.4149(4) 0.8349(4) 0.66156(13)
C347 C 0.4618(8) 0.8761(8) 0.6541(3)
H290 H 0.4514 0.8830 0.6448
H291 H 0.4862 0.8636 0.6524
C348 C 0.4886(11) 0.9259(9) 0.6625(3)
H292 H 0.4870 0.9179 0.6726
H293 H 0.4715 0.9459 0.6608
H294 H 0.5247 0.9459 0.6595
C349 C 0.6970(16) 0.6391(13) 0.6980(4)
H295 H 0.6870 0.6577 0.7046
H296 H 0.6825 0.6383 0.6887
H297 H 0.7346 0.6566 0.6973
C350 C 0.678(2) 0.5885(15) 0.7029(5)
H298 H 0.7071 0.5822 0.7045
H299 H 0.6552 0.5637 0.6956
O4 O 0.6497(8) 0.5811(7) 0.7159(2)
C351 C 0.619(2) 0.5262(12) 0.7203(5)
H300 H 0.6411 0.5107 0.7198
H301 H 0.5908 0.5080 0.7133
C352 C 0.5947(18) 0.5161(17) 0.7348(4)
H302 H 0.6219 0.5296 0.7420
H303 H 0.5723 0.4790 0.7362
H304 H 0.5744 0.5333 0.7357
C353 C 0.863(2) 0.419(4) 0.4901(9)
H305 H 0.8608 0.3951 0.4827
H306 H 0.8703 0.4516 0.4858
H307 H 0.8310 0.4043 0.4954
C354 C 0.9042(14) 0.4284(16) 0.4995(5)
H308 H 0.9092 0.3981 0.4994
H309 H 0.8944 0.4323 0.5092
O5 O 0.9523(13) 0.4736(14) 0.4959(5)
C355 C 1.0007(16) 0.477(2) 0.5013(9)
H310 H 1.0101 0.4568 0.4950
H311 H 0.9939 0.4614 0.5108
C356 C 1.0462(18) 0.532(2) 0.5022(9)
H312 H 1.0744 0.5347 0.4963
H313 H 1.0577 0.5395 0.5121
H314 H 1.0358 0.5561 0.4989
C357 C 0.609(3) 0.6366(17) 0.6640(8)
H315 H 0.5772 0.6351 0.6607
H316 H 0.6382 0.6625 0.6586
H317 H 0.6138 0.6458 0.6740
C358 C 0.605(2) 0.5877(16) 0.6621(5)
H318 H 0.6398 0.5919 0.6621
H319 H 0.5887 0.5733 0.6529
O6 O 0.5748(11) 0.5520(11) 0.6731(3)
C359 C 0.569(2) 0.5002(16) 0.6740(6)
H320 H 0.6033 0.5037 0.6754
H321 H 0.5548 0.4819 0.6650
C360 C 0.534(2) 0.468(2) 0.6861(7)
H322 H 0.5293 0.4331 0.6857
H323 H 0.5002 0.4656 0.6851
H324 H 0.5492 0.4838 0.6951
N73 N 0.8804(5) 0.0983(5) 0.92081(14)
C361 C 0.9026(6) 0.0783(6) 0.91869(18)
C362 C 0.9323(9) 0.0542(9) 0.9136(3)
H325 H 0.9112 0.0167 0.9143
H326 H 0.9635 0.0663 0.9193
H327 H 0.9419 0.0637 0.9037
N74 N 0.4094(11) 0.8105(11) 0.9298(3)
C363 C 0.4241(8) 0.8101(8) 0.9405(2)
C364 C 0.4524(13) 0.8080(14) 0.9528(3)
H328 H 0.4805 0.8025 0.9497
H329 H 0.4290 0.7796 0.9590
H330 H 0.4667 0.8406 0.9580
N75 N 0.7892(10) 0.8667(9) 0.0625(3)
C365 C 0.8182(8) 0.9062(7) 0.0665(3)
C366 C 0.8543(8) 0.9607(7) 0.0693(2)
H331 H 0.8874 0.9708 0.0648
H332 H 0.8594 0.9662 0.0795
H333 H 0.8404 0.9817 0.0656
N76 N 0.4959(11) 0.8575(11) 0.4697(3)
C367 C 0.4775(10) 0.8371(10) 0.4798(3)
C368 C 0.4604(18) 0.8306(18) 0.4947(3)
H334 H 0.4748 0.8644 0.4992
H335 H 0.4725 0.8100 0.4997
H336 H 0.4228 0.8130 0.4951
N77 N 0.4117(13) 0.8120(13) 0.7799(4)
C369 C 0.4123(13) 0.8167(12) 0.7930(4)
C370 C 0.4114(8) 0.8195(8) 0.8077(2)
H337 H 0.3879 0.8318 0.8105
H338 H 0.4461 0.8434 0.8112
H339 H 0.3994 0.7853 0.8117
O7 O 0.6667 0.3333 0.32166(16)
O8 O 0.3333 0.6667 0.51696(15)
O9 O 0.5065(11) 0.0609(11) 0.4649(3)
O10 O 0.0000 0.0000 0.05318(14)
O11 O 0.3333 0.6667 0.8652(4)
O12 O 0.7447(10) 0.4978(10) 0.8822(3)
O13 O 0.7474(10) 0.5291(10) 0.8332(3)
B16? B 0.3333 0.6667 0.4790(7)
F55? F 0.330(2) 0.6855(16) 0.4937(4)
F56? F 0.3672(6) 0.6502(6) 0.47419(18)
B17? B 0.6667 0.3333 0.4596(5)
F57? F 0.7003(16) 0.3452(17) 0.4727(4)
F58? F 0.6824(9) 0.3026(9) 0.4526(3)
loop_
_geom_bond_atom_site_label_1
_geom_bond_atom_site_label_2
_geom_bond_site_symmetry_1
_geom_bond_site_symmetry_2
Cd1 N1 1_555 1_555
Cd2 N10 1_555 1_555
Cd3 N4 1_555 1_555
Cd4 N22 1_555 1_555
N1 C1 1_555 1_555
C1 C2 1_555 1_555
C2 H1 1_555 1_555
C3 C2 1_555 1_555
H2 C3 1_555 1_555
C4 C3 1_555 1_555
H3 C4 1_555 1_555
C5 N1 1_555 1_555
H4 C5 1_555 1_555
N2 Cd1 1_555 1_555
C6 C1 1_555 1_555
C7 C6 1_555 1_555
H5 C7 1_555 1_555
C8 C7 1_555 1_555
H6 C8 1_555 1_555
N3 N2 1_555 1_555
C9 N3 1_555 1_555
H7 C9 1_555 1_555
H8 C9 1_555 1_555
C10 C9 1_555 1_555
C11 C10 1_555 1_555
H9 C11 1_555 1_555
C12 C11 1_555 1_555
H10 C12 1_555 1_555
C13 C12 1_555 1_555
H11 C13 1_555 1_555
C14 C13 1_555 1_555
C15 C14 1_555 1_555
H12 C15 1_555 1_555
C16 C15 1_555 1_555
H13 C16 1_555 1_555
C17 C16 1_555 1_555
H14 C17 1_555 1_555
C18 C17 1_555 1_555
C19 C10 1_555 1_555
N4 C20 1_555 1_555
C20 C21 1_555 1_555
C21 H15 1_555 1_555
C22 C21 1_555 1_555
H16 C22 1_555 1_555
N5 N4 1_555 1_555
C23 C18 1_555 1_555
H17 C23 1_555 1_555
H18 C23 1_555 1_555
N6 Cd3 1_555 1_555
C24 C20 1_555 1_555
C25 C24 1_555 1_555
H19 C25 1_555 1_555
C26 C25 1_555 1_555
H20 C26 1_555 1_555
C27 C26 1_555 1_555
H21 C27 1_555 1_555
C28 N6 1_555 1_555
H22 C28 1_555 1_555
N7 Cd3 1_555 1_555
C29 N7 1_555 1_555
C30 C29 1_555 1_555
H23 C30 1_555 1_555
C31 C30 1_555 1_555
H24 C31 1_555 1_555
C32 C31 1_555 1_555
H25 C32 1_555 1_555
C33 N7 1_555 1_555
H26 C33 1_555 1_555
N8 Cd3 1_555 1_555
C34 C29 1_555 1_555
C35 C34 1_555 1_555
H27 C35 1_555 1_555
C36 C35 1_555 1_555
H28 C36 1_555 1_555
N9 N8 1_555 1_555
C37 N9 1_555 1_555
H29 C37 1_555 1_555
H30 C37 1_555 1_555
C38 C37 1_555 1_555
C39 C38 1_555 1_555
H31 C39 1_555 1_555
C40 C39 1_555 1_555
H32 C40 1_555 1_555
C41 C40 1_555 1_555
H33 C41 1_555 1_555
C42 C41 1_555 1_555
C43 C42 1_555 1_555
H34 C43 1_555 1_555
C44 C43 1_555 1_555
H35 C44 1_555 1_555
C45 C44 1_555 1_555
H36 C45 1_555 1_555
C46 C45 1_555 1_555
C47 C38 1_555 1_555
N10 C48 1_555 1_555
C48 C49 1_555 1_555
C49 H37 1_555 1_555
C50 C49 1_555 1_555
H38 C50 1_555 1_555
N11 N10 1_555 1_555
C51 C46 1_555 1_555
H39 C51 1_555 1_555
H40 C51 1_555 1_555
N12 Cd2 1_555 1_555
C52 C48 1_555 1_555
C53 C52 1_555 1_555
H41 C53 1_555 1_555
C54 C53 1_555 1_555
H42 C54 1_555 1_555
C55 C54 1_555 1_555
H43 C55 1_555 1_555
C56 N12 1_555 1_555
H44 C56 1_555 1_555
N13 Cd2 1_555 1_555
C57 N13 1_555 1_555
C58 C57 1_555 1_555
H45 C58 1_555 1_555
C59 C58 1_555 1_555
H46 C59 1_555 1_555
C60 C59 1_555 1_555
H47 C60 1_555 1_555
C61 N13 1_555 1_555
H48 C61 1_555 1_555
N14 Cd2 1_555 1_555
C62 C57 1_555 1_555
C63 C62 1_555 1_555
H49 C63 1_555 1_555
C64 C63 1_555 1_555
H50 C64 1_555 1_555
N15 N14 1_555 1_555
C65 N15 1_555 1_555
H51 C65 1_555 1_555
H52 C65 1_555 1_555
C66 C65 1_555 1_555
C67 C66 1_555 1_555
H53 C67 1_555 1_555
C68 C67 1_555 1_555
H54 C68 1_555 1_555
C69 C68 1_555 1_555
H55 C69 1_555 1_555
C70 C69 1_555 1_555
C71 C70 1_555 1_555
H56 C71 1_555 1_555
C72 C71 1_555 1_555
H57 C72 1_555 1_555
C73 C72 1_555 1_555
H58 C73 1_555 1_555
C74 C73 1_555 1_555
C75 C66 1_555 1_555
N16 Cd1 1_555 1_555
C76 N16 1_555 1_555
C77 C76 1_555 1_555
H59 C77 1_555 1_555
C78 C77 1_555 1_555
H60 C78 1_555 1_555
N17 N16 1_555 1_555
C79 C74 1_555 1_555
H61 C79 1_555 1_555
H62 C79 1_555 1_555
N18 Cd1 1_555 1_555
C80 C76 1_555 1_555
C81 C80 1_555 1_555
H63 C81 1_555 1_555
C82 C81 1_555 1_555
H64 C82 1_555 1_555
C83 C82 1_555 1_555
H65 C83 1_555 1_555
C84 N18 1_555 1_555
H66 C84 1_555 1_555
N19 Cd1 1_555 1_555
C85 N19 1_555 1_555
C86 C85 1_555 1_555
H67 C86 1_555 1_555
C87 C86 1_555 1_555
H68 C87 1_555 1_555
C88 C87 1_555 1_555
H69 C88 1_555 1_555
C89 N19 1_555 1_555
H70 C89 1_555 1_555
N20 Cd1 1_555 1_555
C90 C85 1_555 1_555
C91 C90 1_555 1_555
H71 C91 1_555 1_555
C92 C91 1_555 1_555
H72 C92 1_555 1_555
N21 N20 1_555 1_555
C93 N21 1_555 1_555
H73 C93 1_555 1_555
H74 C93 1_555 1_555
C94 C93 1_555 1_555
C95 C94 1_555 1_555
H75 C95 1_555 1_555
C96 C95 1_555 1_555
H76 C96 1_555 1_555
C97 C96 1_555 1_555
H77 C97 1_555 1_555
C98 C97 1_555 1_555
C99 C98 1_555 1_555
H78 C99 1_555 1_555
C100 C99 1_555 1_555
H79 C100 1_555 1_555
C101 C100 1_555 1_555
H80 C101 1_555 1_555
C102 C101 1_555 1_555
C103 C94 1_555 1_555
N22 C104 1_555 1_555
C104 C105 1_555 1_555
C105 H81 1_555 1_555
C106 C105 1_555 1_555
H82 C106 1_555 1_555
N23 N22 1_555 1_555
C107 C102 1_555 1_555
H83 C107 1_555 1_555
H84 C107 1_555 1_555
N24 Cd4 1_555 1_555
C108 C104 1_555 1_555
C109 C108 1_555 1_555
H85 C109 1_555 1_555
C110 C109 1_555 1_555
H86 C110 1_555 1_555
C111 C110 1_555 1_555
H87 C111 1_555 1_555
C112 N24 1_555 1_555
H88 C112 1_555 1_555
N25 Cd4 1_555 1_555
C113 N25 1_555 1_555
C114 C113 1_555 1_555
H89 C114 1_555 1_555
C115 C114 1_555 1_555
H90 C115 1_555 1_555
C116 C115 1_555 1_555
H91 C116 1_555 1_555
C117 N25 1_555 1_555
H92 C117 1_555 1_555
N26 Cd4 1_555 1_555
C118 C113 1_555 1_555
C119 C118 1_555 1_555
H93 C119 1_555 1_555
C120 C119 1_555 1_555
H94 C120 1_555 1_555
N27 N26 1_555 1_555
C121 N27 1_555 1_555
H95 C121 1_555 1_555
H96 C121 1_555 1_555
C122 C121 1_555 1_555
C123 C122 1_555 1_555
H97 C123 1_555 1_555
C124 C123 1_555 1_555
H98 C124 1_555 1_555
C125 C124 1_555 1_555
H99 C125 1_555 1_555
C126 C125 1_555 1_555
C127 C126 1_555 1_555
H100 C127 1_555 1_555
C128 C127 1_555 1_555
H101 C128 1_555 1_555
C129 C128 1_555 1_555
H102 C129 1_555 1_555
C130 C129 1_555 1_555
C131 C122 1_555 1_555
N28 C132 1_555 1_555
C132 C133 1_555 1_555
C133 H103 1_555 1_555
C134 C133 1_555 1_555
H104 C134 1_555 1_555
N29 N28 1_555 1_555
C135 C130 1_555 1_555
H105 C135 1_555 1_555
H106 C135 1_555 1_555
N30 C136 1_555 1_555
C136 C132 1_555 1_555
C137 C136 1_555 1_555
H107 C137 1_555 1_555
C138 C137 1_555 1_555
H108 C138 1_555 1_555
C139 C138 1_555 1_555
H109 C139 1_555 1_555
C140 N30 1_555 1_555
H110 C140 1_555 1_555
N31 Cd3 1_555 1_555
C141 N31 1_555 1_555
C142 C141 1_555 1_555
H111 C142 1_555 1_555
C143 C142 1_555 1_555
H112 C143 1_555 1_555
C144 C143 1_555 1_555
H113 C144 1_555 1_555
C145 N31 1_555 1_555
H114 C145 1_555 1_555
N32 Cd3 1_555 1_555
C146 C141 1_555 1_555
C147 C146 1_555 1_555
H115 C147 1_555 1_555
C148 C147 1_555 1_555
H116 C148 1_555 1_555
N33 N32 1_555 1_555
C149 N33 1_555 1_555
H117 C149 1_555 1_555
H118 C149 1_555 1_555
C150 C149 1_555 1_555
C151 C150 1_555 1_555
H119 C151 1_555 1_555
C152 C151 1_555 1_555
H120 C152 1_555 1_555
C153 C152 1_555 1_555
H121 C153 1_555 1_555
C154 C153 1_555 1_555
C155 C154 1_555 1_555
H122 C155 1_555 1_555
C156 C155 1_555 1_555
H123 C156 1_555 1_555
C157 C156 1_555 1_555
H124 C157 1_555 1_555
C158 C157 1_555 1_555
C159 C150 1_555 1_555
N34 C160 1_555 1_555
C160 C161 1_555 1_555
C161 H125 1_555 1_555
C162 C161 1_555 1_555
H126 C162 1_555 1_555
N35 N34 1_555 1_555
C163 C158 1_555 1_555
H127 C163 1_555 1_555
H128 C163 1_555 1_555
N36 C164 1_555 1_555
C164 C160 1_555 1_555
C165 C164 1_555 1_555
H129 C165 1_555 1_555
C166 C165 1_555 1_555
H130 C166 1_555 1_555
C167 C166 1_555 1_555
H131 C167 1_555 1_555
C168 N36 1_555 1_555
H132 C168 1_555 1_555
Cd5 N37 1_555 1_555
Cd6 N40 1_555 1_555
Cd7 N46 1_555 1_555
Cd8 N58 1_555 1_555
N37 C169 1_555 1_555
C169 C170 1_555 1_555
C170 H133 1_555 1_555
C171 C170 1_555 1_555
H134 C171 1_555 1_555
C172 C171 1_555 1_555
H135 C172 1_555 1_555
C173 N37 1_555 1_555
H136 C173 1_555 1_555
N38 Cd5 1_555 1_555
C174 C169 1_555 1_555
C175 C174 1_555 1_555
H137 C175 1_555 1_555
C176 C175 1_555 1_555
H138 C176 1_555 1_555
N39 N38 1_555 1_555
C177 N39 1_555 1_555
H139 C177 1_555 1_555
H140 C177 1_555 1_555
C178 C177 1_555 1_555
C179 C178 1_555 1_555
H141 C179 1_555 1_555
C180 C179 1_555 1_555
H142 C180 1_555 1_555
C181 C180 1_555 1_555
H143 C181 1_555 1_555
C182 C181 1_555 1_555
C183 C182 1_555 1_555
H144 C183 1_555 1_555
C184 C183 1_555 1_555
H145 C184 1_555 1_555
C185 C184 1_555 1_555
H146 C185 1_555 1_555
C186 C185 1_555 1_555
C187 C178 1_555 1_555
N40 C188 1_555 1_555
C188 C189 1_555 1_555
C189 H147 1_555 1_555
C190 C189 1_555 1_555
H148 C190 1_555 1_555
N41 N40 1_555 1_555
C191 C186 1_555 1_555
H149 C191 1_555 1_555
H150 C191 1_555 1_555
N42 Cd6 1_555 1_555
C192 C188 1_555 1_555
C193 C192 1_555 1_555
H151 C193 1_555 1_555
C194 C193 1_555 1_555
H152 C194 1_555 1_555
C195 C194 1_555 1_555
H153 C195 1_555 1_555
C196 N42 1_555 1_555
H154 C196 1_555 1_555
N43 Cd6 1_555 1_555
C197 N43 1_555 1_555
C198 C197 1_555 1_555
H155 C198 1_555 1_555
C199 C198 1_555 1_555
H156 C199 1_555 1_555
C200 C199 1_555 1_555
H157 C200 1_555 1_555
C201 N43 1_555 1_555
H158 C201 1_555 1_555
N44 Cd6 1_555 1_555
C202 C197 1_555 1_555
C203 C202 1_555 1_555
H159 C203 1_555 1_555
C204 C203 1_555 1_555
H160 C204 1_555 1_555
N45 N44 1_555 1_555
C205 N45 1_555 1_555
H161 C205 1_555 1_555
H162 C205 1_555 1_555
C206 C205 1_555 1_555
C207 C206 1_555 1_555
H163 C207 1_555 1_555
C208 C207 1_555 1_555
H164 C208 1_555 1_555
C209 C208 1_555 1_555
H165 C209 1_555 1_555
C210 C209 1_555 1_555
C211 C210 1_555 1_555
H166 C211 1_555 1_555
C212 C211 1_555 1_555
H167 C212 1_555 1_555
C213 C212 1_555 1_555
H168 C213 1_555 1_555
C214 C213 1_555 1_555
C215 C206 1_555 1_555
N46 C216 1_555 1_555
C216 C217 1_555 1_555
C217 H169 1_555 1_555
C218 C217 1_555 1_555
H170 C218 1_555 1_555
N47 N46 1_555 1_555
C219 C214 1_555 1_555
H171 C219 1_555 1_555
H172 C219 1_555 1_555
N48 Cd7 1_555 1_555
C220 C216 1_555 1_555
C221 C220 1_555 1_555
H173 C221 1_555 1_555
C222 C221 1_555 1_555
H174 C222 1_555 1_555
C223 C222 1_555 1_555
H175 C223 1_555 1_555
C224 N48 1_555 1_555
H176 C224 1_555 1_555
N49 Cd7 1_555 1_555
C225 N49 1_555 1_555
C226 C225 1_555 1_555
H177 C226 1_555 1_555
C227 C226 1_555 1_555
H178 C227 1_555 1_555
C228 C227 1_555 1_555
H179 C228 1_555 1_555
C229 N49 1_555 1_555
H180 C229 1_555 1_555
N50 Cd7 1_555 1_555
C230 C225 1_555 1_555
C231 C230 1_555 1_555
H181 C231 1_555 1_555
C232 C231 1_555 1_555
H182 C232 1_555 1_555
N51 N50 1_555 1_555
C233 N51 1_555 1_555
H183 C233 1_555 1_555
H184 C233 1_555 1_555
C234 C233 1_555 1_555
C235 C234 1_555 1_555
H185 C235 1_555 1_555
C236 C235 1_555 1_555
H186 C236 1_555 1_555
C237 C236 1_555 1_555
H187 C237 1_555 1_555
C238 C237 1_555 1_555
C239 C238 1_555 1_555
H188 C239 1_555 1_555
C240 C239 1_555 1_555
H189 C240 1_555 1_555
C241 C240 1_555 1_555
H190 C241 1_555 1_555
C242 C241 1_555 1_555
C243 C234 1_555 1_555
N52 Cd5 1_555 1_555
C244 N52 1_555 1_555
C245 C244 1_555 1_555
H191 C245 1_555 1_555
C246 C245 1_555 1_555
H192 C246 1_555 1_555
N53 N52 1_555 1_555
C247 C242 1_555 1_555
H193 C247 1_555 1_555
H194 C247 1_555 1_555
N54 Cd5 1_555 1_555
C248 C244 1_555 1_555
C249 C248 1_555 1_555
H195 C249 1_555 1_555
C250 C249 1_555 1_555
H196 C250 1_555 1_555
C251 C250 1_555 1_555
H197 C251 1_555 1_555
C252 N54 1_555 1_555
H198 C252 1_555 1_555
N55 Cd5 1_555 1_555
C253 N55 1_555 1_555
C254 C253 1_555 1_555
H199 C254 1_555 1_555
C255 C254 1_555 1_555
H200 C255 1_555 1_555
C256 C255 1_555 1_555
H201 C256 1_555 1_555
C257 N55 1_555 1_555
H202 C257 1_555 1_555
N56 Cd5 1_555 1_555
C258 C253 1_555 1_555
C259 C258 1_555 1_555
H203 C259 1_555 1_555
C260 C259 1_555 1_555
H204 C260 1_555 1_555
N57 N56 1_555 1_555
C261 N57 1_555 1_555
H205 C261 1_555 1_555
H206 C261 1_555 1_555
C262 C261 1_555 1_555
C263 C262 1_555 1_555
H207 C263 1_555 1_555
C264 C263 1_555 1_555
H208 C264 1_555 1_555
C265 C264 1_555 1_555
H209 C265 1_555 1_555
C266 C265 1_555 1_555
C267 C266 1_555 1_555
H210 C267 1_555 1_555
C268 C267 1_555 1_555
H211 C268 1_555 1_555
C269 C268 1_555 1_555
H212 C269 1_555 1_555
C270 C269 1_555 1_555
C271 C262 1_555 1_555
N58 C272 1_555 1_555
C272 C273 1_555 1_555
C273 H213 1_555 1_555
C274 C273 1_555 1_555
H214 C274 1_555 1_555
N59 N58 1_555 1_555
C275 C270 1_555 1_555
H215 C275 1_555 1_555
H216 C275 1_555 1_555
N60 Cd8 1_555 1_555
C276 C272 1_555 1_555
C277 C276 1_555 1_555
H217 C277 1_555 1_555
C278 C277 1_555 1_555
H218 C278 1_555 1_555
C279 C278 1_555 1_555
H219 C279 1_555 1_555
C280 N60 1_555 1_555
H220 C280 1_555 1_555
N61 Cd8 1_555 1_555
C281 N61 1_555 1_555
C282 C281 1_555 1_555
H221 C282 1_555 1_555
C283 C282 1_555 1_555
H222 C283 1_555 1_555
C284 C283 1_555 1_555
H223 C284 1_555 1_555
C285 N61 1_555 1_555
H224 C285 1_555 1_555
N62 Cd8 1_555 1_555
C286 C281 1_555 1_555
C287 C286 1_555 1_555
H225 C287 1_555 1_555
C288 C287 1_555 1_555
H226 C288 1_555 1_555
N63 N62 1_555 1_555
C289 N63 1_555 1_555
H227 C289 1_555 1_555
H228 C289 1_555 1_555
C290 C289 1_555 1_555
C291 C290 1_555 1_555
H229 C291 1_555 1_555
C292 C291 1_555 1_555
H230 C292 1_555 1_555
C293 C292 1_555 1_555
H231 C293 1_555 1_555
C294 C293 1_555 1_555
C295 C294 1_555 1_555
H232 C295 1_555 1_555
C296 C295 1_555 1_555
H233 C296 1_555 1_555
C297 C296 1_555 1_555
H234 C297 1_555 1_555
C298 C297 1_555 1_555
C299 C290 1_555 1_555
N64 C300 1_555 1_555
C300 C301 1_555 1_555
C301 H235 1_555 1_555
C302 C301 1_555 1_555
H236 C302 1_555 1_555
N65 N64 1_555 1_555
C303 C298 1_555 1_555
H237 C303 1_555 1_555
H238 C303 1_555 1_555
N66 C304 1_555 1_555
C304 H239 1_555 1_555
C305 C304 1_555 1_555
H240 C305 1_555 1_555
C306 C305 1_555 1_555
H241 C306 1_555 1_555
C307 C306 1_555 1_555
H242 C307 1_555 1_555
C308 C300 1_555 1_555
N67 Cd7 1_555 1_555
C309 N67 1_555 1_555
C310 C309 1_555 1_555
H243 C310 1_555 1_555
C311 C310 1_555 1_555
H244 C311 1_555 1_555
C312 C311 1_555 1_555
H245 C312 1_555 1_555
C313 N67 1_555 1_555
H246 C313 1_555 1_555
N68 Cd7 1_555 1_555
C314 C309 1_555 1_555
C315 C314 1_555 1_555
H247 C315 1_555 1_555
C316 C315 1_555 1_555
H248 C316 1_555 1_555
N69 N68 1_555 1_555
C317 N69 1_555 1_555
H249 C317 1_555 1_555
H250 C317 1_555 1_555
C318 C317 1_555 1_555
C319 C318 1_555 1_555
H251 C319 1_555 1_555
C320 C319 1_555 1_555
H252 C320 1_555 1_555
C321 C320 1_555 1_555
H253 C321 1_555 1_555
C322 C321 1_555 1_555
C323 C322 1_555 1_555
H254 C323 1_555 1_555
C324 C323 1_555 1_555
H255 C324 1_555 1_555
C325 C324 1_555 1_555
H256 C325 1_555 1_555
C326 C325 1_555 1_555
C327 C318 1_555 1_555
N70 C328 1_555 1_555
C328 C329 1_555 1_555
C329 H257 1_555 1_555
C330 C329 1_555 1_555
H258 C330 1_555 1_555
N71 N70 1_555 1_555
C331 C326 1_555 1_555
H259 C331 1_555 1_555
H260 C331 1_555 1_555
N72 C332 1_555 1_555
C332 C328 1_555 1_555
C333 C332 1_555 1_555
H261 C333 1_555 1_555
C334 C333 1_555 1_555
H262 C334 1_555 1_555
C335 C334 1_555 1_555
H263 C335 1_555 1_555
C336 N72 1_555 1_555
H264 C336 1_555 1_555
B1 F1 1_555 1_555
F2 B1 1_555 1_555
F3 B1 1_555 1_555
F4 B1 1_555 1_555
B2 F5 1_555 1_555
F6 B2 1_555 1_555
F7 B2 1_555 1_555
F8 B2 1_555 1_555
B3 F9 1_555 1_555
F10 B3 1_555 1_555
F11 B3 1_555 1_555
F12 B3 1_555 1_555
B4 F13 1_555 1_555
F14 B4 1_555 1_555
F15 B4 1_555 1_555
F16 B4 1_555 1_555
B5 F17 1_555 1_555
F18 B5 1_555 1_555
F19 B5 1_555 1_555
F20 B5 1_555 1_555
B6 F21 1_555 1_555
F22 B6 1_555 1_555
F23 B6 1_555 1_555
F24 B6 1_555 1_555
B7 F25 1_555 1_555
F26 B7 1_555 1_555
F27 B7 1_555 1_555
F28 B7 1_555 1_555
B8 F29 1_555 1_555
F30 B8 1_555 1_555
F31 B8 1_555 1_555
F32 B8 1_555 1_555
B9 F33 1_555 1_555
F34 B9 1_555 1_555
F35 B9 1_555 1_555
F36 B9 1_555 1_555
B10 F37 1_555 1_555
F38 B10 1_555 1_555
F39 B10 1_555 1_555
F40 B10 1_555 1_555
B11 F41 1_555 1_555
F42 B11 1_555 1_555
F43 B11 1_555 1_555
F44 B11 1_555 1_555
B12 F45 1_555 1_555
F46 B12 1_555 1_555
B13 F47 1_555 1_555
F48 B13 1_555 1_555
B14 F49 1_555 1_555
F50 B14 1_555 1_555
B15 F51 1_555 1_555
F52 B15 1_555 1_555
F53 B15 1_555 1_555
F54 B15 1_555 1_555
B18 F59 1_555 1_555
F60 B18 1_555 1_555
F61 B18 1_555 1_555
F62 B18 1_555 1_555
B19 F63 1_555 1_555
F64 B19 1_555 1_555
F65 B19 1_555 1_555
F66 B19 1_555 1_555
B20 F67 1_555 1_555
F68 B20 1_555 1_555
B21 F69 1_555 1_555
F70 B21 1_555 1_555
C337 H265 1_555 1_555
H266 C337 1_555 1_555
H267 C337 1_555 1_555
C338 C337 1_555 1_555
H268 C338 1_555 1_555
H269 C338 1_555 1_555
O1 C338 1_555 1_555
C339 O1 1_555 1_555
H270 C339 1_555 1_555
H271 C339 1_555 1_555
C340 C339 1_555 1_555
H272 C340 1_555 1_555
H273 C340 1_555 1_555
H274 C340 1_555 1_555
C341 H275 1_555 1_555
H276 C341 1_555 1_555
H277 C341 1_555 1_555
C342 C341 1_555 1_555
H278 C342 1_555 1_555
H279 C342 1_555 1_555
O2 C342 1_555 1_555
C343 O2 1_555 1_555
H280 C343 1_555 1_555
H281 C343 1_555 1_555
C344 C343 1_555 1_555
H282 C344 1_555 1_555
H283 C344 1_555 1_555
H284 C344 1_555 1_555
C345 H285 1_555 1_555
H286 C345 1_555 1_555
H287 C345 1_555 1_555
C346 C345 1_555 1_555
H288 C346 1_555 1_555
H289 C346 1_555 1_555
O3 C346 1_555 1_555
C347 O3 1_555 1_555
H290 C347 1_555 1_555
H291 C347 1_555 1_555
C348 C347 1_555 1_555
H292 C348 1_555 1_555
H293 C348 1_555 1_555
H294 C348 1_555 1_555
C349 H295 1_555 1_555
H296 C349 1_555 1_555
H297 C349 1_555 1_555
C350 C349 1_555 1_555
H298 C350 1_555 1_555
H299 C350 1_555 1_555
O4 C350 1_555 1_555
C351 O4 1_555 1_555
H300 C351 1_555 1_555
H301 C351 1_555 1_555
C352 C351 1_555 1_555
H302 C352 1_555 1_555
H303 C352 1_555 1_555
H304 C352 1_555 1_555
C353 H305 1_555 1_555
H306 C353 1_555 1_555
H307 C353 1_555 1_555
C354 C353 1_555 1_555
H308 C354 1_555 1_555
H309 C354 1_555 1_555
O5 C354 1_555 1_555
C355 O5 1_555 1_555
H310 C355 1_555 1_555
H311 C355 1_555 1_555
C356 C355 1_555 1_555
H312 C356 1_555 1_555
H313 C356 1_555 1_555
H314 C356 1_555 1_555
C357 H315 1_555 1_555
H316 C357 1_555 1_555
H317 C357 1_555 1_555
C358 C357 1_555 1_555
H318 C358 1_555 1_555
H319 C358 1_555 1_555
O6 C358 1_555 1_555
C359 O6 1_555 1_555
H320 C359 1_555 1_555
H321 C359 1_555 1_555
C360 C359 1_555 1_555
H322 C360 1_555 1_555
H323 C360 1_555 1_555
H324 C360 1_555 1_555
N73 C361 1_555 1_555
C361 C362 1_555 1_555
C362 H325 1_555 1_555
H326 C362 1_555 1_555
H327 C362 1_555 1_555
N74 C363 1_555 1_555
C363 C364 1_555 1_555
C364 H328 1_555 1_555
H329 C364 1_555 1_555
H330 C364 1_555 1_555
N75 C365 1_555 1_555
C365 C366 1_555 1_555
C366 H331 1_555 1_555
H332 C366 1_555 1_555
H333 C366 1_555 1_555
N76 C367 1_555 1_555
C367 C368 1_555 1_555
C368 H334 1_555 1_555
H335 C368 1_555 1_555
H336 C368 1_555 1_555
N77 C369 1_555 1_555
C369 C370 1_555 1_555
C370 H337 1_555 1_555
H338 C370 1_555 1_555
H339 C370 1_555 1_555
Cd2B N34 1_555 1_555
Cd4B N28 1_555 1_555
N28A Cd4 1_555 1_555
N30A Cd4 1_555 1_555
N34A Cd2 1_555 1_555
N36A Cd2 1_555 1_555
Cd6B N70 1_555 1_555
Cd8A N64 1_555 1_555
N64B Cd8 1_555 1_555
N66B Cd8 1_555 1_555
N70A Cd6 1_555 1_555
N72A Cd6 1_555 1_555
F46A B12 1_555 1_555
F46B B12 1_555 1_555
F48A B13 1_555 1_555
F48B B13 1_555 1_555
F50A B14 1_555 1_555
F50B B14 1_555 1_555
F68A B20 1_555 1_555
F68B B20 1_555 1_555
F70A B21 1_555 1_555
F70B B21 1_555 1_555
C4 C5 1_555 1_555
N2 C6 1_555 1_555
C8 N3 1_555 1_555
C14 C19 1_555 1_555
C18 C19 1_555 1_555
C22 N5 1_555 1_555
N5 C23 1_555 1_555
N6 C24 1_555 1_555
C27 C28 1_555 1_555
C32 C33 1_555 1_555
N8 C34 1_555 1_555
C36 N9 1_555 1_555
C42 C47 1_555 1_555
C46 C47 1_555 1_555
C50 N11 1_555 1_555
N11 C51 1_555 1_555
N12 C52 1_555 1_555
C55 C56 1_555 1_555
C60 C61 1_555 1_555
N14 C62 1_555 1_555
C64 N15 1_555 1_555
C70 C75 1_555 1_555
C74 C75 1_555 1_555
C78 N17 1_555 1_555
N17 C79 1_555 1_555
N18 C80 1_555 1_555
C83 C84 1_555 1_555
C88 C89 1_555 1_555
N20 C90 1_555 1_555
C92 N21 1_555 1_555
C98 C103 1_555 1_555
C102 C103 1_555 1_555
C106 N23 1_555 1_555
N23 C107 1_555 1_555
N24 C108 1_555 1_555
C111 C112 1_555 1_555
C116 C117 1_555 1_555
N26 C118 1_555 1_555
C120 N27 1_555 1_555
C126 C131 1_555 1_555
C130 C131 1_555 1_555
C134 N29 1_555 1_555
N29 C135 1_555 1_555
N30 Cd4B 1_555 1_555
C139 C140 1_555 1_555
C144 C145 1_555 1_555
N32 C146 1_555 1_555
C148 N33 1_555 1_555
C154 C159 1_555 1_555
C158 C159 1_555 1_555
C162 N35 1_555 1_555
N35 C163 1_555 1_555
N36 Cd2B 1_555 1_555
C167 C168 1_555 1_555
C172 C173 1_555 1_555
N38 C174 1_555 1_555
C176 N39 1_555 1_555
C182 C187 1_555 1_555
C186 C187 1_555 1_555
C190 N41 1_555 1_555
N41 C191 1_555 1_555
N42 C192 1_555 1_555
C195 C196 1_555 1_555
C200 C201 1_555 1_555
N44 C202 1_555 1_555
C204 N45 1_555 1_555
C210 C215 1_555 1_555
C214 C215 1_555 1_555
C218 N47 1_555 1_555
N47 C219 1_555 1_555
N48 C220 1_555 1_555
C223 C224 1_555 1_555
C228 C229 1_555 1_555
N50 C230 1_555 1_555
C232 N51 1_555 1_555
C238 C243 1_555 1_555
C242 C243 1_555 1_555
C246 N53 1_555 1_555
N53 C247 1_555 1_555
N54 C248 1_555 1_555
C251 C252 1_555 1_555
C256 C257 1_555 1_555
N56 C258 1_555 1_555
C260 N57 1_555 1_555
C266 C271 1_555 1_555
C270 C271 1_555 1_555
C274 N59 1_555 1_555
N59 C275 1_555 1_555
N60 C276 1_555 1_555
C279 C280 1_555 1_555
C284 C285 1_555 1_555
N62 C286 1_555 1_555
C288 N63 1_555 1_555
C294 C299 1_555 1_555
C298 C299 1_555 1_555
C302 N65 1_555 1_555
N65 C303 1_555 1_555
N66 C308 1_555 1_555
N66 Cd8A 1_555 1_555
C307 C308 1_555 1_555
C312 C313 1_555 1_555
N68 C314 1_555 1_555
C316 N69 1_555 1_555
C322 C327 1_555 1_555
C326 C327 1_555 1_555
C330 N71 1_555 1_555
N71 C331 1_555 1_555
N72 Cd6B 1_555 1_555
C335 C336 1_555 1_555

#END
