
#######################################################################
#
#                 Cambridge Crystallographic Data Centre
#                                CCDC 
#
#######################################################################
#
# If this CIF has been generated from an entry in the Cambridge 
# Structural Database, then it will include bibliographic, chemical, 
# crystal, experimental, refinement or atomic coordinate data resulting 
# from the CCDC's data processing and validation procedures.
#
#######################################################################

data_YEGNOP
_symmetry_cell_setting           monoclinic
_symmetry_space_group_name_H-M   'P 21/c'
_symmetry_Int_Tables_number      14
_space_group_name_Hall           '-P 2ybc'
loop_
_symmetry_equiv_pos_site_id
_symmetry_equiv_pos_as_xyz
1 x,y,z
2 -x,1/2+y,1/2-z
3 -x,-y,-z
4 x,1/2-y,1/2+z
_cell_length_a                   17.430(7)
_cell_length_b                   8.081(3)
_cell_length_c                   28.932(10)
_cell_angle_alpha                90
_cell_angle_beta                 112.083(19)
_cell_angle_gamma                90
_cell_volume                     3776.17
loop_
_atom_site_label
_atom_site_type_symbol
_atom_site_fract_x
_atom_site_fract_y
_atom_site_fract_z
C1 C 0.5388(5) 0.4591(10) 0.3396(3)
C2 C 0.5690(5) 0.5111(11) 0.3039(3)
C3 C 0.6352(5) 0.4370(13) 0.2989(3)
H1 H 0.6539 0.4719 0.2743
C4 C 0.6752(6) 0.3081(15) 0.3308(4)
C5 C 0.6470(6) 0.2541(14) 0.3664(3)
H2 H 0.6730 0.1667 0.3873
C6 C 0.5782(5) 0.3327(11) 0.3707(3)
H3 H 0.5591 0.2980 0.3951
C7 C 0.4261(5) 0.4649(11) 0.3672(3)
H4 H 0.4253 0.3462 0.3621
H5 H 0.3692 0.5036 0.3534
C8 C 0.4612(4) 0.4993(8) 0.4232(3)
C9 C 0.2869(5) -0.0077(10) 0.3027(3)
C10 C 0.2184(6) 0.0711(15) 0.2679(3)
C11 C 0.1427(7) -0.0080(19) 0.2522(4)
H6 H 0.0958 0.0451 0.2303
C12 C 0.1359(7) -0.169(2) 0.2692(4)
C13 C 0.2003(8) -0.2372(16) 0.3033(4)
H7 H 0.1952 -0.3407 0.3160
C14 C 0.2762(6) -0.1574(13) 0.3210(3)
H8 H 0.3208 -0.2072 0.3459
C15 C 0.4328(5) -0.0067(10) 0.3458(3)
H9 H 0.4784 0.0396 0.3385
H10 H 0.4282 -0.1226 0.3364
C16 C 0.4541(5) 0.0041(10) 0.4012(3)
C17 C 0.8173(5) 0.2143(10) 0.5314(3)
C18 C 0.8809(5) 0.1654(13) 0.5169(3)
C19 C 0.9533(5) 0.1061(15) 0.5495(4)
H11 H 0.9956 0.0775 0.5389
C20 C 0.9636(5) 0.0883(17) 0.5988(4)
C21 C 0.9018(6) 0.1269(16) 0.6141(4)
H12 H 0.9089 0.1121 0.6473
C22 C 0.8287(5) 0.1877(14) 0.5810(3)
H13 H 0.7860 0.2115 0.5918
C23 C 0.6804(5) 0.3230(9) 0.5079(3)
H14 H 0.6984 0.3748 0.5405
H15 H 0.6457 0.4015 0.4837
C24 C 0.6305(4) 0.1724(9) 0.5079(3)
C25 C 0.3349(6) 0.2404(11) 0.5883(3)
H16 H 0.3900 0.2168 0.6074
C26 C 0.2786(6) 0.2530(13) 0.6122(3)
H17 H 0.2964 0.2385 0.6466
C27 C 0.2016(6) 0.2849(14) 0.5861(4)
H18 H 0.1639 0.2896 0.6018
C28 C 0.1740(5) 0.3129(12) 0.5342(4)
C29 C 0.0904(6) 0.3508(18) 0.5030(4)
H19 H 0.0516 0.3704 0.5174
C30 C 0.0673(5) 0.3585(15) 0.4536(4)
H20 H 0.0119 0.3786 0.4344
C31 C 0.1235(5) 0.3374(12) 0.4292(4)
C32 C 0.1030(5) 0.3418(13) 0.3783(4)
H21 H 0.0484 0.3627 0.3576
C33 C 0.1597(5) 0.3169(12) 0.3576(3)
H22 H 0.1451 0.3225 0.3233
C34 C 0.2408(5) 0.2825(12) 0.3893(3)
H23 H 0.2796 0.2602 0.3751
C35 C 0.2331(5) 0.2911(9) 0.5126(3)
C36 C 0.2078(5) 0.3039(11) 0.4596(3)
Cl1 Cl 0.5218(2) 0.6753(4) 0.26553(10)
Cl2 Cl 0.7580(2) 0.2120(6) 0.32349(14)
Cl3 Cl 0.2286(3) 0.2612(5) 0.24524(14)
Cl4 Cl 0.0392(3) -0.2607(8) 0.24860(15)
Cl5 Cl 0.86787(17) 0.1877(5) 0.45508(10)
Cl6 Cl 1.05607(18) 0.0047(6) 0.64067(11)
N1 N 0.2659(4) 0.2799(7) 0.4393(2)
N2 N 0.3127(4) 0.2609(8) 0.5391(2)
O1 O 0.4193(3) 0.4377(6) 0.44572(18)
O2 O 0.5250(3) 0.5837(6) 0.44136(18)
O3 O 0.4710(3) 0.5410(7) 0.34033(19)
O4 O 0.4079(3) 0.0900(7) 0.41638(18)
O5 O 0.5186(3) -0.0689(7) 0.42698(18)
O6 O 0.3586(4) 0.0749(7) 0.31526(18)
O7 O 0.5569(3) 0.1934(8) 0.5045(2)
O8 O 0.6619(3) 0.0311(6) 0.5104(2)
O9 O 0.7507(3) 0.2861(7) 0.4964(2)
Eu1 Eu 0.41918(2) 0.20964(4) 0.495973(12)
O2B O 0.4750(3) 0.4163(6) 0.55864(18)
O5B O 0.4814(3) 0.0689(7) 0.57302(18)
O8B O 0.3381(3) -0.0311(6) 0.4896(2)
Eu1B Eu 0.58082(2) 0.79036(4) 0.504027(12)
Eu1B_2 Eu 0.58082(2) -0.20964(4) 0.504027(12)
loop_
_geom_bond_atom_site_label_1
_geom_bond_atom_site_label_2
_geom_bond_site_symmetry_1
_geom_bond_site_symmetry_2
C1 C2 1_555 1_555
C2 C3 1_555 1_555
C3 H1 1_555 1_555
C4 C3 1_555 1_555
C5 C4 1_555 1_555
H2 C5 1_555 1_555
C6 C1 1_555 1_555
H3 C6 1_555 1_555
C7 H4 1_555 1_555
H5 C7 1_555 1_555
C8 C7 1_555 1_555
C9 C10 1_555 1_555
C10 C11 1_555 1_555
C11 H6 1_555 1_555
C12 C11 1_555 1_555
C13 C12 1_555 1_555
H7 C13 1_555 1_555
C14 C9 1_555 1_555
H8 C14 1_555 1_555
C15 H9 1_555 1_555
H10 C15 1_555 1_555
C16 C15 1_555 1_555
C17 C18 1_555 1_555
C18 C19 1_555 1_555
C19 H11 1_555 1_555
C20 C19 1_555 1_555
C21 C20 1_555 1_555
H12 C21 1_555 1_555
C22 C17 1_555 1_555
H13 C22 1_555 1_555
C23 H14 1_555 1_555
H15 C23 1_555 1_555
C24 C23 1_555 1_555
C25 H16 1_555 1_555
C26 C25 1_555 1_555
H17 C26 1_555 1_555
C27 C26 1_555 1_555
H18 C27 1_555 1_555
C28 C27 1_555 1_555
C29 C28 1_555 1_555
H19 C29 1_555 1_555
C30 C29 1_555 1_555
H20 C30 1_555 1_555
C31 C30 1_555 1_555
C32 C31 1_555 1_555
H21 C32 1_555 1_555
C33 C32 1_555 1_555
H22 C33 1_555 1_555
C34 C33 1_555 1_555
H23 C34 1_555 1_555
C35 C28 1_555 1_555
C36 C31 1_555 1_555
Cl1 C2 1_555 1_555
Cl2 C4 1_555 1_555
Cl3 C10 1_555 1_555
Cl4 C12 1_555 1_555
Cl5 C18 1_555 1_555
Cl6 C20 1_555 1_555
N1 C34 1_555 1_555
N2 C25 1_555 1_555
O1 C8 1_555 1_555
O2 C8 1_555 1_555
O3 C1 1_555 1_555
O4 C16 1_555 1_555
O5 C16 1_555 1_555
O6 C9 1_555 1_555
O7 C24 1_555 1_555
O8 C24 1_555 1_555
O9 C17 1_555 1_555
Eu1 N1 1_555 1_555
O2B Eu1 1_555 1_555
O5B Eu1 1_555 1_555
O8B Eu1 1_555 1_555
Eu1B O2 1_555 1_555
Eu1B_2 O5 1_555 1_555
C5 C6 1_555 1_555
C7 O3 1_555 1_555
C13 C14 1_555 1_555
C15 O6 1_555 1_555
C21 C22 1_555 1_555
C23 O9 1_555 1_555
C35 C36 1_555 1_555
C35 N2 1_555 1_555
C36 N1 1_555 1_555
N2 Eu1 1_555 1_555
O1 Eu1 1_555 1_555
O4 Eu1 1_555 1_555
O7 Eu1 1_555 1_555
O8 Eu1B_2 1_555 1_555

#END
