
#######################################################################
#
#                 Cambridge Crystallographic Data Centre
#                                CCDC 
#
#######################################################################
#
# If this CIF has been generated from an entry in the Cambridge 
# Structural Database, then it will include bibliographic, chemical, 
# crystal, experimental, refinement or atomic coordinate data resulting 
# from the CCDC's data processing and validation procedures.
#
#######################################################################

data_YEGNUV
_symmetry_cell_setting           monoclinic
_symmetry_space_group_name_H-M   'P 21/c'
_symmetry_Int_Tables_number      14
_space_group_name_Hall           '-P 2ybc'
loop_
_symmetry_equiv_pos_site_id
_symmetry_equiv_pos_as_xyz
1 x,y,z
2 -x,1/2+y,1/2-z
3 -x,-y,-z
4 x,1/2-y,1/2+z
_cell_length_a                   17.454(4)
_cell_length_b                   8.1139(18)
_cell_length_c                   28.933(5)
_cell_angle_alpha                90
_cell_angle_beta                 112.051(11)
_cell_angle_gamma                90
_cell_volume                     3797.76
loop_
_atom_site_label
_atom_site_type_symbol
_atom_site_fract_x
_atom_site_fract_y
_atom_site_fract_z
C1 C 0.5388(3) 0.4595(8) 0.33990(19)
C2 C 0.5685(4) 0.5127(9) 0.3037(2)
C3 C 0.6354(4) 0.4376(10) 0.2990(2)
H1 H 0.6549 0.4734 0.2749
C4 C 0.6744(4) 0.3060(10) 0.3306(3)
C5 C 0.6461(4) 0.2526(9) 0.3665(2)
H2 H 0.6720 0.1657 0.3875
C6 C 0.5780(4) 0.3308(8) 0.3708(2)
H3 H 0.5586 0.2954 0.3950
C7 C 0.4268(3) 0.4675(8) 0.36790(19)
H4 H 0.4252 0.3494 0.3625
H5 H 0.3702 0.5071 0.3542
C8 C 0.4611(3) 0.4990(7) 0.42340(19)
C9 C 0.2881(4) -0.0065(9) 0.3030(2)
C10 C 0.2192(5) 0.0701(12) 0.2678(2)
C11 C 0.1432(5) -0.0086(16) 0.2507(3)
H6 H 0.0979 0.0408 0.2263
C12 C 0.1348(5) -0.1564(18) 0.2693(3)
C13 C 0.1997(6) -0.2369(12) 0.3034(3)
H7 H 0.1934 -0.3418 0.3145
C14 C 0.2764(4) -0.1572(11) 0.3214(3)
H8 H 0.3207 -0.2071 0.3465
C15 C 0.4339(3) -0.0084(8) 0.3465(2)
H9 H 0.4801 0.0351 0.3395
H10 H 0.4280 -0.1239 0.3372
C16 C 0.4537(3) 0.0046(7) 0.40220(19)
C17 C 0.8173(3) 0.2108(8) 0.5314(2)
C18 C 0.8821(4) 0.1636(10) 0.5170(2)
C19 C 0.9537(4) 0.1005(11) 0.5499(2)
H11 H 0.9957 0.0706 0.5391
C20 C 0.9644(4) 0.0806(11) 0.5988(3)
C21 C 0.9015(4) 0.1233(12) 0.6143(2)
H12 H 0.9084 0.1094 0.6475
C22 C 0.8285(4) 0.1860(10) 0.5811(2)
H13 H 0.7861 0.2121 0.5919
C23 C 0.6806(3) 0.3210(7) 0.5075(2)
H14 H 0.6986 0.3729 0.5401
H15 H 0.6470 0.4000 0.4832
C24 C 0.6286(3) 0.1724(7) 0.50729(19)
C25 C 0.3379(4) 0.2388(8) 0.5889(2)
H16 H 0.3929 0.2153 0.6079
C26 C 0.2815(5) 0.2512(9) 0.6129(3)
H17 H 0.2993 0.2368 0.6473
C27 C 0.2017(4) 0.2842(11) 0.5858(3)
H18 H 0.1639 0.2906 0.6014
C28 C 0.1751(4) 0.3090(9) 0.5343(3)
C29 C 0.0927(4) 0.3480(13) 0.5035(3)
H19 H 0.0541 0.3653 0.5181
C30 C 0.0687(4) 0.3609(12) 0.4540(3)
H20 H 0.0137 0.3841 0.4348
C31 C 0.1258(3) 0.3395(9) 0.4303(3)
C32 C 0.1038(4) 0.3492(11) 0.3783(3)
H21 H 0.0501 0.3768 0.3577
C33 C 0.1615(4) 0.3178(10) 0.3584(3)
H22 H 0.1470 0.3187 0.3240
C34 C 0.2430(4) 0.2844(9) 0.3901(2)
H23 H 0.2822 0.2663 0.3760
C35 C 0.2346(3) 0.2880(8) 0.5127(2)
C36 C 0.2095(3) 0.3024(8) 0.4594(2)
Cl1 Cl 0.52127(14) 0.6747(3) 0.26540(7)
Cl2 Cl 0.75782(16) 0.2111(4) 0.32326(10)
Cl3 Cl 0.23037(19) 0.2623(4) 0.24533(10)
Cl4 Cl 0.03869(18) -0.2550(5) 0.24839(11)
Cl5 Cl 0.86883(12) 0.1892(3) 0.45509(7)
Cl6 Cl 1.05623(13) 0.0010(4) 0.64103(8)
N1 N 0.2665(3) 0.2773(6) 0.43919(17)
N2 N 0.3155(3) 0.2594(6) 0.53981(17)
O1 O 0.4197(2) 0.4372(5) 0.44630(13)
O2 O 0.5250(2) 0.5835(5) 0.44185(13)
O3 O 0.4708(2) 0.5410(5) 0.34079(14)
O4 O 0.4084(2) 0.0905(5) 0.41749(13)
O5 O 0.5176(2) -0.0710(5) 0.42803(13)
O6 O 0.3605(2) 0.0768(6) 0.31618(13)
O7 O 0.5551(2) 0.1991(6) 0.50383(14)
O8 O 0.6591(2) 0.0285(5) 0.51074(14)
O9 O 0.7506(2) 0.2812(5) 0.49653(15)
Tb1 Tb 0.419426(14) 0.21104(3) 0.495930(9)
O2B O 0.4750(2) 0.4165(5) 0.55815(13)
O5B O 0.4824(2) 0.0710(5) 0.57197(13)
O8B O 0.3409(2) -0.0285(5) 0.48926(14)
Tb1B Tb 0.580574(14) 0.78896(3) 0.504070(9)
Tb1B_2 Tb 0.580574(14) -0.21104(3) 0.504070(9)
loop_
_geom_bond_atom_site_label_1
_geom_bond_atom_site_label_2
_geom_bond_site_symmetry_1
_geom_bond_site_symmetry_2
C1 C2 1_555 1_555
C2 C3 1_555 1_555
C3 H1 1_555 1_555
C4 C3 1_555 1_555
C5 C4 1_555 1_555
H2 C5 1_555 1_555
C6 C1 1_555 1_555
H3 C6 1_555 1_555
C7 H4 1_555 1_555
H5 C7 1_555 1_555
C8 C7 1_555 1_555
C9 C10 1_555 1_555
C10 C11 1_555 1_555
C11 H6 1_555 1_555
C12 C11 1_555 1_555
C13 C12 1_555 1_555
H7 C13 1_555 1_555
C14 C9 1_555 1_555
H8 C14 1_555 1_555
C15 H9 1_555 1_555
H10 C15 1_555 1_555
C16 C15 1_555 1_555
C17 C18 1_555 1_555
C18 C19 1_555 1_555
C19 H11 1_555 1_555
C20 C19 1_555 1_555
C21 C20 1_555 1_555
H12 C21 1_555 1_555
C22 C17 1_555 1_555
H13 C22 1_555 1_555
C23 H14 1_555 1_555
H15 C23 1_555 1_555
C24 C23 1_555 1_555
C25 H16 1_555 1_555
C26 C25 1_555 1_555
H17 C26 1_555 1_555
C27 C26 1_555 1_555
H18 C27 1_555 1_555
C28 C27 1_555 1_555
C29 C28 1_555 1_555
H19 C29 1_555 1_555
C30 C29 1_555 1_555
H20 C30 1_555 1_555
C31 C30 1_555 1_555
C32 C31 1_555 1_555
H21 C32 1_555 1_555
C33 C32 1_555 1_555
H22 C33 1_555 1_555
C34 C33 1_555 1_555
H23 C34 1_555 1_555
C35 C28 1_555 1_555
C36 C31 1_555 1_555
Cl1 C2 1_555 1_555
Cl2 C4 1_555 1_555
Cl3 C10 1_555 1_555
Cl4 C12 1_555 1_555
Cl5 C18 1_555 1_555
Cl6 C20 1_555 1_555
N1 C34 1_555 1_555
N2 C25 1_555 1_555
O1 C8 1_555 1_555
O2 C8 1_555 1_555
O3 C1 1_555 1_555
O4 C16 1_555 1_555
O5 C16 1_555 1_555
O6 C9 1_555 1_555
O7 C24 1_555 1_555
O8 C24 1_555 1_555
O9 C17 1_555 1_555
Tb1 N1 1_555 1_555
O2B Tb1 1_555 1_555
O5B Tb1 1_555 1_555
O8B Tb1 1_555 1_555
Tb1B O2 1_555 1_555
Tb1B_2 O5 1_555 1_555
C5 C6 1_555 1_555
C7 O3 1_555 1_555
C13 C14 1_555 1_555
C15 O6 1_555 1_555
C21 C22 1_555 1_555
C23 O9 1_555 1_555
C35 C36 1_555 1_555
C35 N2 1_555 1_555
C36 N1 1_555 1_555
N2 Tb1 1_555 1_555
O1 Tb1 1_555 1_555
O4 Tb1 1_555 1_555
O7 Tb1 1_555 1_555
O8 Tb1B_2 1_555 1_555

#END
