
#######################################################################
#
#                 Cambridge Crystallographic Data Centre
#                                CCDC 
#
#######################################################################
#
# If this CIF has been generated from an entry in the Cambridge 
# Structural Database, then it will include bibliographic, chemical, 
# crystal, experimental, refinement or atomic coordinate data resulting 
# from the CCDC's data processing and validation procedures.
#
#######################################################################

data_YEGQOS
_symmetry_cell_setting           monoclinic
_symmetry_space_group_name_H-M   'P 2/c'
_symmetry_Int_Tables_number      13
_space_group_name_Hall           '-P 2yc'
loop_
_symmetry_equiv_pos_site_id
_symmetry_equiv_pos_as_xyz
1 x,y,z
2 -x,y,1/2-z
3 -x,-y,-z
4 x,-y,1/2+z
_cell_length_a                   17.416(2)
_cell_length_b                   10.8685(13)
_cell_length_c                   14.9765(18)
_cell_angle_alpha                90
_cell_angle_beta                 110.532(2)
_cell_angle_gamma                90
_cell_volume                     2654.76
loop_
_atom_site_label
_atom_site_type_symbol
_atom_site_fract_x
_atom_site_fract_y
_atom_site_fract_z
U1 U 0.87054(3) 0.31624(5) 0.50784(4)
U2 U 0.62646(3) 0.19640(5) 0.46433(4)
C1 C 1.0844(10) 0.2982(15) 0.5555(12)
H1 H 1.0807 0.3676 0.5902
C2 C 1.1614(10) 0.2553(16) 0.5652(13)
H2 H 1.2084 0.2958 0.6038
C3 C 1.1665(10) 0.1505(14) 0.5159(12)
H3 H 1.2172 0.1161 0.5229
C4 C 1.0956(9) 0.0978(13) 0.4566(11)
H4 H 1.0983 0.0284 0.4215
C5 C 1.0190(9) 0.1475(12) 0.4481(10)
C6 C 0.9427(9) 0.0949(12) 0.3832(10)
C7 C 0.9412(11) -0.0044(15) 0.3286(12)
H5 H 0.9898 -0.0440 0.3335
C8 C 0.8663(13) -0.0483(19) 0.2643(12)
H6 H 0.8643 -0.1182 0.2277
C9 C 0.7983(13) 0.0135(19) 0.2575(11)
H7 H 0.7482 -0.0105 0.2130
C10 C 0.8022(11) 0.1122(17) 0.3159(12)
H8 H 0.7537 0.1521 0.3113
C11 C 0.7053(10) 0.3768(15) 0.6644(11)
H9 H 0.7518 0.3390 0.6602
C12 C 0.7151(12) 0.4653(17) 0.7317(12)
H10 H 0.7671 0.4878 0.7725
C13 C 0.6462(14) 0.5204(17) 0.7380(12)
H11 H 0.6509 0.5821 0.7826
C14 C 0.5716(11) 0.4839(15) 0.6785(11)
H12 H 0.5248 0.5204 0.6829
C15 C 0.5638(9) 0.3929(12) 0.6109(10)
C16 C 0.4850(8) 0.3440(12) 0.5475(10)
C17 C 0.4107(10) 0.3982(13) 0.5422(10)
H13 H 0.4095 0.4683 0.5772
C18 C 0.3380(10) 0.3431(16) 0.4821(12)
H14 H 0.2875 0.3780 0.4751
C19 C 0.3419(11) 0.2392(18) 0.4347(13)
H15 H 0.2940 0.1998 0.3973
C20 C 0.4173(9) 0.1917(15) 0.4419(11)
H16 H 0.4194 0.1213 0.4076
C21 C 0.9253(9) 0.5031(12) 0.6502(9)
C22 C 0.9541(8) 0.6053(12) 0.7221(10)
H17 H 0.9252 0.5992 0.7667
H18 H 0.9394 0.6833 0.6891
C23 C 0.5746(9) -0.0090(12) 0.3417(9)
C24 C 0.5454(8) -0.1166(12) 0.2744(10)
H19 H 0.5715 -0.1135 0.2268
H20 H 0.5620 -0.1926 0.3099
O1 O 0.9757(6) 0.4457(9) 0.6228(7)
O2 O 0.8511(6) 0.4797(10) 0.6121(8)
O3 O 0.6430(7) 0.0379(10) 0.3541(9)
O4 O 0.5296(6) 0.0348(9) 0.3829(7)
O5 O 0.7345(7) 0.3404(13) 0.4881(10)
O6 O 0.7390(8) 0.2474(12) 0.4181(10)
O7 O 0.8604(8) 0.4274(10) 0.4175(8)
O8 O 0.8865(8) 0.2109(12) 0.5902(8)
O9 O 0.5732(8) 0.3001(9) 0.3693(8)
O10 O 0.6727(9) 0.1005(12) 0.5523(9)
N1 N 1.0144(7) 0.2463(10) 0.4991(8)
N2 N 0.8733(8) 0.1543(11) 0.3799(9)
N3 N 0.6316(7) 0.3418(11) 0.6038(8)
N4 N 0.4880(7) 0.2443(11) 0.4971(8)
U1A U 1.12946(3) 0.31624(5) 0.99216(4)
U2A U 0.37354(3) 0.19640(5) 0.03567(4)
U2A_2 U 1.37354(3) 0.19640(5) 1.03567(4)
C1A C 0.9156(10) 0.2982(15) 0.9445(12)
H1A H 0.9193 0.3676 0.9098
C2A C 0.8386(10) 0.2553(16) 0.9348(13)
H2A H 0.7916 0.2958 0.8962
C3A C 0.8335(10) 0.1505(14) 0.9841(12)
H3A H 0.7828 0.1161 0.9771
C4A C 0.9044(9) 0.0978(13) 1.0434(11)
H4A H 0.9017 0.0284 1.0785
C5A C 0.9810(9) 0.1475(12) 1.0519(10)
C6A C 1.0573(9) 0.0949(12) 1.1168(10)
C7A C 1.0588(11) -0.0044(15) 1.1714(12)
H5A H 1.0102 -0.0440 1.1665
C8A C 1.1337(13) -0.0483(19) 1.2357(12)
H6A H 1.1357 -0.1182 1.2723
C9A C 1.2017(13) 0.0135(19) 1.2425(11)
H7A H 1.2518 -0.0105 1.2870
C10A C 1.1978(11) 0.1122(17) 1.1841(12)
H8A H 1.2463 0.1521 1.1887
C11A C 0.2947(10) 0.3768(15) -0.1644(11)
H9A H 0.2482 0.3390 -0.1602
C12A C 0.2849(12) 0.4653(17) -0.2317(12)
H10A H 0.2329 0.4878 -0.2725
C13A C 0.3538(14) 0.5204(17) -0.2380(12)
H11A H 0.3491 0.5821 -0.2826
C14A C 0.4284(11) 0.4839(15) -0.1785(11)
H12A H 0.4752 0.5204 -0.1829
C15A C 0.4362(9) 0.3929(12) -0.1109(10)
C16A C 0.5150(8) 0.3440(12) -0.0475(10)
C17A C 0.5893(10) 0.3982(13) -0.0422(10)
H13A H 0.5905 0.4683 -0.0772
C18A C 0.6620(10) 0.3431(16) 0.0179(12)
H14A H 0.7125 0.3780 0.0249
C19A C 0.6581(11) 0.2392(18) 0.0653(13)
H15A H 0.7060 0.1998 0.1027
C20A C 0.5827(9) 0.1917(15) 0.0581(11)
H16A H 0.5806 0.1213 0.0924
C21A C 1.0747(9) 0.5031(12) 0.8498(9)
C22A C 1.0459(8) 0.6053(12) 0.7779(10)
H17A H 1.0748 0.5992 0.7333
H18A H 1.0606 0.6833 0.8109
C23A C 0.4254(9) -0.0090(12) 0.1583(9)
C24A C 0.4546(8) -0.1166(12) 0.2256(10)
H19A H 0.4285 -0.1135 0.2732
H20A H 0.4380 -0.1926 0.1901
O1A O 1.0243(6) 0.4457(9) 0.8772(7)
O2A O 1.1489(6) 0.4797(10) 0.8879(8)
O3A O 0.3570(7) 0.0379(10) 0.1459(9)
O4A O 0.4704(6) 0.0348(9) 0.1171(7)
O5A O 1.2655(7) 0.3404(13) 1.0119(10)
O5A_2 O 0.2655(7) 0.3404(13) 0.0119(10)
O6A O 1.2610(8) 0.2474(12) 1.0819(10)
O6A_2 O 0.2610(8) 0.2474(12) 0.0819(10)
O7A O 1.1396(8) 0.4274(10) 1.0825(8)
O8A O 1.1135(8) 0.2109(12) 0.9098(8)
O9A O 0.4268(8) 0.3001(9) 0.1307(8)
O10A O 0.3273(9) 0.1005(12) -0.0523(9)
N1A N 0.9856(7) 0.2463(10) 1.0009(8)
N2A N 1.1267(8) 0.1543(11) 1.1201(9)
N3A N 0.3684(7) 0.3418(11) -0.1038(8)
N4A N 0.5120(7) 0.2443(11) 0.0029(8)
loop_
_geom_bond_atom_site_label_1
_geom_bond_atom_site_label_2
_geom_bond_site_symmetry_1
_geom_bond_site_symmetry_2
U1 O1 1_555 1_555
U2 O3 1_555 1_555
C1 H1 1_555 1_555
C2 C1 1_555 1_555
H2 C2 1_555 1_555
C3 C2 1_555 1_555
H3 C3 1_555 1_555
C4 C3 1_555 1_555
H4 C4 1_555 1_555
C5 C4 1_555 1_555
C6 C5 1_555 1_555
C7 C6 1_555 1_555
H5 C7 1_555 1_555
C8 C7 1_555 1_555
H6 C8 1_555 1_555
C9 C8 1_555 1_555
H7 C9 1_555 1_555
C10 C9 1_555 1_555
H8 C10 1_555 1_555
C11 H9 1_555 1_555
C12 C11 1_555 1_555
H10 C12 1_555 1_555
C13 C12 1_555 1_555
H11 C13 1_555 1_555
C14 C13 1_555 1_555
H12 C14 1_555 1_555
C15 C14 1_555 1_555
C16 C15 1_555 1_555
C17 C16 1_555 1_555
H13 C17 1_555 1_555
C18 C17 1_555 1_555
H14 C18 1_555 1_555
C19 C18 1_555 1_555
H15 C19 1_555 1_555
C20 C19 1_555 1_555
H16 C20 1_555 1_555
C21 C22 1_555 1_555
C22 H17 1_555 1_555
H18 C22 1_555 1_555
C23 C24 1_555 1_555
C24 H19 1_555 1_555
H20 C24 1_555 1_555
O1 C21 1_555 1_555
O2 U1 1_555 1_555
O3 C23 1_555 1_555
O4 U2 1_555 1_555
O5 U1 1_555 1_555
O6 U1 1_555 1_555
O7 U1 1_555 1_555
O8 U1 1_555 1_555
O9 U2 1_555 1_555
O10 U2 1_555 1_555
N1 U1 1_555 1_555
N2 U1 1_555 1_555
N3 U2 1_555 1_555
N4 U2 1_555 1_555
U1A O1A 1_555 1_555
U2A O3A 1_555 1_555
U2A_2 O5A 1_555 1_555
C1A H1A 1_555 1_555
C2A C1A 1_555 1_555
H2A C2A 1_555 1_555
C3A C2A 1_555 1_555
H3A C3A 1_555 1_555
C4A C3A 1_555 1_555
H4A C4A 1_555 1_555
C5A C4A 1_555 1_555
C6A C5A 1_555 1_555
C7A C6A 1_555 1_555
H5A C7A 1_555 1_555
C8A C7A 1_555 1_555
H6A C8A 1_555 1_555
C9A C8A 1_555 1_555
H7A C9A 1_555 1_555
C10A C9A 1_555 1_555
H8A C10A 1_555 1_555
C11A H9A 1_555 1_555
C12A C11A 1_555 1_555
H10A C12A 1_555 1_555
C13A C12A 1_555 1_555
H11A C13A 1_555 1_555
C14A C13A 1_555 1_555
H12A C14A 1_555 1_555
C15A C14A 1_555 1_555
C16A C15A 1_555 1_555
C17A C16A 1_555 1_555
H13A C17A 1_555 1_555
C18A C17A 1_555 1_555
H14A C18A 1_555 1_555
C19A C18A 1_555 1_555
H15A C19A 1_555 1_555
C20A C19A 1_555 1_555
H16A C20A 1_555 1_555
C21A C22A 1_555 1_555
C22A C22 1_555 1_555
H17A C22A 1_555 1_555
H18A C22A 1_555 1_555
C23A C24A 1_555 1_555
C24A C24 1_555 1_555
H19A C24A 1_555 1_555
H20A C24A 1_555 1_555
O1A C21A 1_555 1_555
O2A U1A 1_555 1_555
O3A C23A 1_555 1_555
O4A U2A 1_555 1_555
O5A U1A 1_555 1_555
O5A_2 U2A 1_555 1_555
O6A U1A 1_555 1_555
O6A_2 U2A 1_555 1_555
O7A U1A 1_555 1_555
O8A U1A 1_555 1_555
O9A U2A 1_555 1_555
O10A U2A 1_555 1_555
N1A U1A 1_555 1_555
N2A U1A 1_555 1_555
N3A U2A 1_555 1_555
N4A U2A 1_555 1_555
U2 O5 1_555 1_555
U2 O6 1_555 1_555
C1 N1 1_555 1_555
C5 N1 1_555 1_555
C6 N2 1_555 1_555
C10 N2 1_555 1_555
C11 N3 1_555 1_555
C15 N3 1_555 1_555
C16 N4 1_555 1_555
C20 N4 1_555 1_555
C21 O2 1_555 1_555
C23 O4 1_555 1_555
O5 O6 1_555 1_555
U2A_2 O6A 1_555 1_555
C1A N1A 1_555 1_555
C5A N1A 1_555 1_555
C6A N2A 1_555 1_555
C10A N2A 1_555 1_555
C11A N3A 1_555 1_555
C15A N3A 1_555 1_555
C16A N4A 1_555 1_555
C20A N4A 1_555 1_555
C21A O2A 1_555 1_555
C23A O4A 1_555 1_555
O5A O6A 1_555 1_555
O5A_2 O6A_2 1_555 1_555

#END
