
#######################################################################
#
#                 Cambridge Crystallographic Data Centre
#                                CCDC 
#
#######################################################################
#
# If this CIF has been generated from an entry in the Cambridge 
# Structural Database, then it will include bibliographic, chemical, 
# crystal, experimental, refinement or atomic coordinate data resulting 
# from the CCDC's data processing and validation procedures.
#
#######################################################################

data_YEGRUX
_symmetry_cell_setting           monoclinic
_symmetry_space_group_name_H-M   'P 21/n'
_symmetry_Int_Tables_number      14
_space_group_name_Hall           '-P 2yn'
loop_
_symmetry_equiv_pos_site_id
_symmetry_equiv_pos_as_xyz
1 x,y,z
2 1/2-x,1/2+y,1/2-z
3 -x,-y,-z
4 1/2+x,1/2-y,1/2+z
_cell_length_a                   10.219(5)
_cell_length_b                   7.843(2)
_cell_length_c                   14.045(8)
_cell_angle_alpha                90
_cell_angle_beta                 94.70(3)
_cell_angle_gamma                90
_cell_volume                     1121.89
loop_
_atom_site_label
_atom_site_type_symbol
_atom_site_fract_x
_atom_site_fract_y
_atom_site_fract_z
La1 La -0.39283(2) 0.25931(3) -0.49516(2)
O1 O -0.6072(3) 0.0796(4) -0.4818(3)
O2 O -0.7409(3) -0.0603(4) -0.3972(2)
O3 O -0.5949(3) 0.4239(4) -0.4582(3)
O4 O -0.7723(4) 0.5315(4) -0.4051(3)
O5 O -0.3351(3) 0.4326(4) -0.3384(2)
O6 O -0.4008(4) 0.1706(4) -0.3175(2)
O7 O -0.5466(4) 0.4094(5) -0.1825(3)
O8 O -0.4492(4) 0.3235(5) -0.0426(3)
O9 O -0.5022(4) 0.2788(5) -0.6604(3)
O10 O -0.1547(4) 0.2228(5) -0.4290(3)
C1 C -0.6905(5) 0.0794(5) -0.4202(3)
C2 C -0.7289(5) 0.2377(5) -0.3699(4)
C3 C -0.6991(5) 0.4088(6) -0.4147(3)
C4 C -0.3539(4) 0.3096(6) -0.2843(3)
C5 C -0.3250(5) 0.3250(7) -0.1781(3)
C6 C -0.4461(5) 0.3511(6) -0.1269(3)
H1 H -0.826 0.233 -0.365
H2 H -0.682 0.236 -0.304
H3 H -0.265 0.425 -0.165
H4 H -0.280 0.218 -0.154
H5 H -0.625 0.413 -0.160
H6 H -0.546 0.364 -0.688
H7 H -0.456 0.238 -0.709
H8 H -0.083 0.189 -0.461
H9 H -0.106 0.317 -0.396
O1B O -0.3928(3) -0.0796(4) -0.5182(3)
O3B O -0.4051(3) 0.5761(4) -0.5418(3)
La1B La -0.60717(2) -0.25931(3) -0.50484(2)
La1B_2 La -0.60717(2) 0.74069(3) -0.50484(2)
O2B O -0.2591(3) 0.0603(4) -0.6028(2)
O4B O -0.2277(4) 0.4685(4) -0.5949(3)
O11 O -0.5002(4) -0.0548(5) -0.1896(3)
H10 H -0.580 -0.032 -0.171
H11 H -0.463 -0.019 -0.242
loop_
_geom_bond_atom_site_label_1
_geom_bond_atom_site_label_2
_geom_bond_site_symmetry_1
_geom_bond_site_symmetry_2
La1 O1 1_555 1_555
O1 C1 1_555 1_555
O2 C1 1_555 1_555
O3 La1 1_555 1_555
O4 C3 1_555 1_555
O5 La1 1_555 1_555
O6 La1 1_555 1_555
O7 C6 1_555 1_555
O8 C6 1_555 1_555
O9 La1 1_555 1_555
O10 La1 1_555 1_555
O11 H10 1_555 1_555
C1 C2 1_555 1_555
C2 C3 1_555 1_555
C3 O3 1_555 1_555
C4 O5 1_555 1_555
C5 C4 1_555 1_555
C6 C5 1_555 1_555
H1 C2 1_555 1_555
H2 C2 1_555 1_555
H3 C5 1_555 1_555
H4 C5 1_555 1_555
H5 O7 1_555 1_555
H6 O9 1_555 1_555
H7 O9 1_555 1_555
H8 O10 1_555 1_555
H9 O10 1_555 1_555
H11 O11 1_555 1_555
O1B La1 1_555 1_555
O3B La1 1_555 1_555
La1B O1 1_555 1_555
La1B_2 O3 1_555 1_555
O2B La1 1_555 1_555
O4B La1 1_555 1_555
O2 La1B 1_555 1_555
O4 La1B_2 1_555 1_555
O6 C4 1_555 1_555
O1B La1B 1_555 1_555
O3B La1B_2 1_555 1_555

#END
