
#######################################################################
#
#                 Cambridge Crystallographic Data Centre
#                                CCDC 
#
#######################################################################
#
# If this CIF has been generated from an entry in the Cambridge 
# Structural Database, then it will include bibliographic, chemical, 
# crystal, experimental, refinement or atomic coordinate data resulting 
# from the CCDC's data processing and validation procedures.
#
#######################################################################

data_YEGRUZ
_symmetry_cell_setting           monoclinic
_symmetry_space_group_name_H-M   'C 2/c'
_symmetry_Int_Tables_number      15
_space_group_name_Hall           '-C 2yn'
loop_
_symmetry_equiv_pos_site_id
_symmetry_equiv_pos_as_xyz
1 x,y,z
2 -x,y,1/2-z
3 1/2+x,1/2+y,z
4 1/2-x,1/2+y,1/2-z
5 -x,-y,-z
6 x,-y,1/2+z
7 1/2-x,1/2-y,-z
8 1/2+x,1/2-y,1/2+z
_cell_length_a                   26.632(5)
_cell_length_b                   9.0982(18)
_cell_length_c                   15.738(3)
_cell_angle_alpha                90
_cell_angle_beta                 100.77(3)
_cell_angle_gamma                90
_cell_volume                     3746.2
loop_
_atom_site_label
_atom_site_type_symbol
_atom_site_fract_x
_atom_site_fract_y
_atom_site_fract_z
Pb1 Pb 0.149426(9) 0.82170(3) 0.409797(14)
N1 N 0.2170(2) 1.0015(6) 0.4900(3)
N2 N 0.1151(2) 1.0457(6) 0.4798(3)
N3 N 0.0677(2) 1.0985(7) 0.4852(3)
N4 N 0.1266(2) 1.2217(6) 0.5811(3)
N5 N -0.0501(3) 1.2904(7) 0.6032(4)
N6 N 0.2408(2) 0.8152(6) 0.3678(3)
N7 N 0.3249(2) 0.8265(6) 0.4199(3)
N8 N 0.2637(2) 0.7196(6) 0.3200(3)
N9 N 0.3757(2) 0.4840(6) 0.2152(3)
C1 C 0.2666(2) 0.9786(6) 0.4915(3)
C2 C 0.3049(3) 1.0491(7) 0.5491(4)
H1 H 0.3393 1.0336 0.5477
C3 C 0.2901(3) 1.1423(8) 0.6080(4)
H2 H 0.3150 1.1872 0.6491
C4 C 0.2402(3) 1.1710(7) 0.6083(4)
H3 H 0.2305 1.2368 0.6475
C5 C 0.2038(3) 1.0975(7) 0.5469(4)
C6 C 0.1486(3) 1.1233(7) 0.5373(4)
C7 C 0.0770(3) 1.2032(7) 0.5463(4)
C8 C 0.0353(3) 1.2854(7) 0.5748(4)
C9 C -0.0121(3) 1.2214(8) 0.5744(5)
H4 H -0.0177 1.1263 0.5531
C10 C 0.0432(3) 1.4295(8) 0.6061(4)
H5 H 0.0744 1.4761 0.6075
C11 C 0.0038(3) 1.5007(9) 0.6350(5)
H6 H 0.0078 1.5967 0.6554
C12 C -0.0415(3) 1.4264(9) 0.6327(5)
H7 H -0.0677 1.4745 0.6531
C13 C 0.2777(2) 0.8731(7) 0.4268(4)
C14 C 0.3135(2) 0.7320(7) 0.3527(4)
C15 C 0.3534(2) 0.6517(7) 0.3197(4)
C16 C 0.3412(3) 0.5545(7) 0.2508(4)
H8 H 0.3068 0.5379 0.2283
C17 C 0.4047(3) 0.6699(7) 0.3537(4)
H9 H 0.4146 0.7344 0.3996
C18 C 0.4414(3) 0.5937(8) 0.3205(5)
H10 H 0.4759 0.6027 0.3448
C19 C 0.4254(3) 0.5037(8) 0.2503(4)
H11 H 0.4500 0.4545 0.2261
Pb1C Pb 0.350574(9) 0.32170(3) 0.090203(14)
N9C N 0.1243(2) 0.9840(6) 0.2848(3)
O1 O 0.3466(2) 0.1362(7) 0.2443(3)
H12 H 0.358(3) 0.164(9) 0.296(2)
H13 H 0.3142(5) 0.133(10) 0.237(5)
loop_
_geom_bond_atom_site_label_1
_geom_bond_atom_site_label_2
_geom_bond_site_symmetry_1
_geom_bond_site_symmetry_2
Pb1 N1 1_555 1_555
N1 C1 1_555 1_555
N2 Pb1 1_555 1_555
N3 N2 1_555 1_555
N4 C6 1_555 1_555
N5 C9 1_555 1_555
N6 Pb1 1_555 1_555
N7 C13 1_555 1_555
N8 N6 1_555 1_555
N9 C16 1_555 1_555
C1 C2 1_555 1_555
C2 H1 1_555 1_555
C3 C2 1_555 1_555
H2 C3 1_555 1_555
C4 C3 1_555 1_555
H3 C4 1_555 1_555
C5 N1 1_555 1_555
C6 N2 1_555 1_555
C7 N3 1_555 1_555
C8 C7 1_555 1_555
C9 C8 1_555 1_555
H4 C9 1_555 1_555
C10 C8 1_555 1_555
H5 C10 1_555 1_555
C11 C10 1_555 1_555
H6 C11 1_555 1_555
C12 N5 1_555 1_555
H7 C12 1_555 1_555
C13 N6 1_555 1_555
C14 N7 1_555 1_555
C15 C14 1_555 1_555
C16 C15 1_555 1_555
H8 C16 1_555 1_555
C17 C15 1_555 1_555
H9 C17 1_555 1_555
C18 C17 1_555 1_555
H10 C18 1_555 1_555
C19 N9 1_555 1_555
H11 C19 1_555 1_555
O1 H12 1_555 1_555
H13 O1 1_555 1_555
Pb1C N9 1_555 1_555
N9C Pb1 1_555 1_555
N4 C7 1_555 1_555
N8 C14 1_555 1_555
C1 C13 1_555 1_555
C4 C5 1_555 1_555
C5 C6 1_555 1_555
C11 C12 1_555 1_555
C18 C19 1_555 1_555

#END
