
#######################################################################
#
#                 Cambridge Crystallographic Data Centre
#                                CCDC 
#
#######################################################################
#
# If this CIF has been generated from an entry in the Cambridge 
# Structural Database, then it will include bibliographic, chemical, 
# crystal, experimental, refinement or atomic coordinate data resulting 
# from the CCDC's data processing and validation procedures.
#
#######################################################################

data_YEGREJ
_symmetry_cell_setting           orthorhombic
_symmetry_space_group_name_H-M   'P 21 21 21'
_symmetry_Int_Tables_number      19
_space_group_name_Hall           'P 2ac 2ab'
loop_
_symmetry_equiv_pos_site_id
_symmetry_equiv_pos_as_xyz
1 x,y,z
2 1/2-x,-y,1/2+z
3 1/2+x,1/2-y,-z
4 -x,1/2+y,1/2-z
_cell_length_a                   8.6711(3)
_cell_length_b                   11.0292(4)
_cell_length_c                   14.4819(5)
_cell_angle_alpha                90
_cell_angle_beta                 90
_cell_angle_gamma                90
_cell_volume                     1384.98
loop_
_atom_site_label
_atom_site_type_symbol
_atom_site_fract_x
_atom_site_fract_y
_atom_site_fract_z
O1 O 0.7367(3) 0.2698(2) 0.03023(15)
O2 O 0.5044(3) 0.2373(2) 0.08093(17)
O3 O 0.6879(3) 0.2839(2) 0.17761(16)
N1 N 0.6405(3) 0.2634(2) 0.0978(2)
Cu1 Cu 0.94654(5) 0.31893(4) 0.07390(3)
S1 S 1.21117(11) 0.00502(9) 0.19423(6)
C1 C 0.9213(4) 0.0471(3) 0.0645(3)
H1 H 0.8767 0.0739 0.005
H2 H 0.8351 0.0213 0.1048
O4 O 0.8763(3) 0.4854(2) 0.05573(16)
O5 O 1.0682(3) 0.5165(2) -0.03915(16)
N2 N 0.9510(4) 0.5541(2) -0.00087(19)
N3 N 1.1282(3) 0.3517(2) 0.15249(19)
N4 N 1.1860(3) 0.2466(3) 0.1910(2)
C2 C 1.2068(4) 0.4422(3) 0.1903(2)
N5 N 1.0008(3) 0.1506(2) 0.10807(17)
C3 C 1.1191(4) 0.1381(3) 0.1591(2)
O6 O 0.8992(3) 0.6585(2) -0.01326(17)
C4 C 1.3148(4) 0.3956(3) 0.2533(2)
H3 H 1.3851 0.442 0.2891
C5 C 1.3880(4) 0.1843(4) 0.3112(2)
H4 H 1.4554 0.2278 0.3543
H5 H 1.4505 0.1324 0.271
H6 H 1.3151 0.1342 0.3461
C6 C 1.3015(4) 0.2730(3) 0.2541(2)
C7 C 1.1786(5) 0.5721(3) 0.1671(3)
H7 H 1.2196 0.5894 0.1054
H8 H 1.2302 0.6238 0.2126
H9 H 1.0675 0.5883 0.168
C8 C 1.0944(4) -0.1086(3) 0.1353(2)
H10 H 1.1593 -0.18 0.121
H11 H 1.0104 -0.1354 0.1769
C9 C 1.0255(5) -0.0606(3) 0.0471(2)
H12 H 0.9656 -0.1257 0.0167
H13 H 1.1095 -0.0362 0.0047
O2B O 1.0044(3) 0.2627(2) -0.08093(17)
Cu1B Cu 0.44654(5) 0.18107(4) -0.07390(3)
loop_
_geom_bond_atom_site_label_1
_geom_bond_atom_site_label_2
_geom_bond_site_symmetry_1
_geom_bond_site_symmetry_2
O1 N1 1_555 1_555
O2 N1 1_555 1_555
O3 N1 1_555 1_555
Cu1 O1 1_555 1_555
S1 C3 1_555 1_555
C1 H1 1_555 1_555
H2 C1 1_555 1_555
O4 Cu1 1_555 1_555
O5 N2 1_555 1_555
N2 O4 1_555 1_555
N3 Cu1 1_555 1_555
N4 N3 1_555 1_555
C2 N3 1_555 1_555
N5 Cu1 1_555 1_555
C3 N4 1_555 1_555
O6 N2 1_555 1_555
C4 C2 1_555 1_555
H3 C4 1_555 1_555
C5 H4 1_555 1_555
H5 C5 1_555 1_555
H6 C5 1_555 1_555
C6 N4 1_555 1_555
C7 C2 1_555 1_555
H7 C7 1_555 1_555
H8 C7 1_555 1_555
H9 C7 1_555 1_555
C8 S1 1_555 1_555
H10 C8 1_555 1_555
H11 C8 1_555 1_555
C9 C1 1_555 1_555
H12 C9 1_555 1_555
H13 C9 1_555 1_555
O2B Cu1 1_555 1_555
Cu1B O2 1_555 1_555
C1 N5 1_555 1_555
N5 C3 1_555 1_555
C4 C6 1_555 1_555
C5 C6 1_555 1_555
C8 C9 1_555 1_555

#END
