
#######################################################################
#
#                 Cambridge Crystallographic Data Centre
#                                CCDC 
#
#######################################################################
#
# If this CIF has been generated from an entry in the Cambridge 
# Structural Database, then it will include bibliographic, chemical, 
# crystal, experimental, refinement or atomic coordinate data resulting 
# from the CCDC's data processing and validation procedures.
#
#######################################################################

data_YEGSAE
_symmetry_cell_setting           monoclinic
_symmetry_space_group_name_H-M   'P 21/n'
_symmetry_Int_Tables_number      14
_space_group_name_Hall           '-P 2yn'
loop_
_symmetry_equiv_pos_site_id
_symmetry_equiv_pos_as_xyz
1 x,y,z
2 1/2-x,1/2+y,1/2-z
3 -x,-y,-z
4 1/2+x,1/2-y,1/2+z
_cell_length_a                   10.054(5)
_cell_length_b                   11.327(8)
_cell_length_c                   10.476(7)
_cell_angle_alpha                90
_cell_angle_beta                 100.03(5)
_cell_angle_gamma                90
_cell_volume                     1174.79
loop_
_atom_site_label
_atom_site_type_symbol
_atom_site_fract_x
_atom_site_fract_y
_atom_site_fract_z
Cu1 Cu 0.0522(1) 0.0171(1) 0.2138(1)
O1 O 0.4025(3) -0.3239(2) 0.2229(3)
O2 O 0.5397(3) -0.2900(3) 0.0798(3)
O3 O 0.2647(3) -0.4187(2) -0.0926(3)
O4 O 0.2754(3) -0.2297(2) -0.1513(3)
O5 O 0.1195(4) -0.0636(3) 0.3997(3)
O6 O -0.1456(3) 0.0249(2) 0.2095(3)
N1 N 0.0340(3) -0.1434(3) 0.1297(3)
N2 N 0.2290(3) 0.0102(3) 0.1436(3)
C1 C 0.1441(3) -0.1801(3) 0.0819(3)
C2 C 0.1361(4) -0.2791(3) 0.0003(3)
C3 C 0.0170(4) -0.3447(3) -0.0173(3)
C4 C -0.0900(4) -0.3107(3) 0.0389(4)
C5 C -0.0800(4) -0.2066(3) 0.1081(4)
C6 C 0.2630(3) -0.1027(3) 0.1195(3)
C7 C 0.3990(4) -0.1352(3) 0.1308(3)
C8 C 0.4956(4) -0.0453(3) 0.1463(3)
C9 C 0.4575(4) 0.0707(3) 0.1576(4)
C10 C 0.3240(4) 0.0949(3) 0.1620(4)
C11 C 0.4515(4) -0.2618(3) 0.1410(3)
C12 C 0.2362(4) -0.3109(3) -0.0866(3)
H1 H 0.0844(64) -0.0977(55) 0.4186(62)
H2 H 0.1448(63) -0.0202(49) 0.4441(57)
H3 H -0.1630(63) 0.0714(50) 0.2040(63)
H4 H -0.1771(57) -0.0095(43) 0.2889(56)
H5 H 0.0101 -0.4143 -0.0704
H6 H -0.1699 -0.3585 0.0310
H7 H -0.1569 -0.1782 0.1419
H8 H 0.5890 -0.0645 0.1490
H9 H 0.5228 0.1330 0.1625
H10 H 0.2981 0.1742 0.1786
O1A O 0.0975(3) 0.1761(2) 0.2771(3)
Cu1A Cu 0.4478(1) -0.4829(1) 0.2862(1)
loop_
_geom_bond_atom_site_label_1
_geom_bond_atom_site_label_2
_geom_bond_site_symmetry_1
_geom_bond_site_symmetry_2
Cu1 O5 1_555 1_555
O1 C11 1_555 1_555
O2 C11 1_555 1_555
O3 C12 1_555 1_555
O4 C12 1_555 1_555
O5 H1 1_555 1_555
O6 Cu1 1_555 1_555
N1 Cu1 1_555 1_555
N2 Cu1 1_555 1_555
C1 N1 1_555 1_555
C2 C1 1_555 1_555
C3 C2 1_555 1_555
C4 C3 1_555 1_555
C5 N1 1_555 1_555
C6 N2 1_555 1_555
C7 C6 1_555 1_555
C8 C7 1_555 1_555
C9 C8 1_555 1_555
C10 N2 1_555 1_555
C11 C7 1_555 1_555
C12 C2 1_555 1_555
H2 O5 1_555 1_555
H3 O6 1_555 1_555
H4 O6 1_555 1_555
H5 C3 1_555 1_555
H6 C4 1_555 1_555
H7 C5 1_555 1_555
H8 C8 1_555 1_555
H9 C9 1_555 1_555
H10 C10 1_555 1_555
O1A Cu1 1_555 1_555
Cu1A O1 1_555 1_555
C1 C6 1_555 1_555
C4 C5 1_555 1_555
C9 C10 1_555 1_555

#END
