
#######################################################################
#
#                 Cambridge Crystallographic Data Centre
#                                CCDC 
#
#######################################################################
#
# If this CIF has been generated from an entry in the Cambridge 
# Structural Database, then it will include bibliographic, chemical, 
# crystal, experimental, refinement or atomic coordinate data resulting 
# from the CCDC's data processing and validation procedures.
#
#######################################################################

data_YEGSAE01
_symmetry_cell_setting           monoclinic
_symmetry_space_group_name_H-M   'P 21/n'
_symmetry_Int_Tables_number      14
_space_group_name_Hall           '-P 2yn'
loop_
_symmetry_equiv_pos_site_id
_symmetry_equiv_pos_as_xyz
1 x,y,z
2 1/2-x,1/2+y,1/2-z
3 -x,-y,-z
4 1/2+x,1/2-y,1/2+z
_cell_length_a                   10.076(1)
_cell_length_b                   11.372(1)
_cell_length_c                   10.571(1)
_cell_angle_alpha                90
_cell_angle_beta                 100.33(2)
_cell_angle_gamma                90
_cell_volume                     1191.64
loop_
_atom_site_label
_atom_site_type_symbol
_atom_site_fract_x
_atom_site_fract_y
_atom_site_fract_z
Cu1 Cu 0.0520(1) 0.0170(1) 0.2137(1)
O1 O 0.4026(4) -0.3246(3) 0.2222(4)
O2 O 0.5402(4) -0.2893(3) 0.0802(5)
O3 O 0.2759(4) -0.2306(4) -0.1491(4)
O4 O 0.2650(4) -0.4184(3) -0.0926(4)
N1 N 0.2300(5) 0.0095(4) 0.1431(5)
N2 N 0.0345(5) -0.1442(4) 0.1296(5)
C1 C -0.0800(7) -0.2075(5) 0.1086(7)
C2 C -0.0910(7) -0.3104(5) 0.0382(6)
C3 C 0.0150(7) -0.3445(5) -0.0160(7)
C4 C 0.1358(7) -0.2785(5) 0.0017(6)
C5 C 0.1451(6) -0.1811(5) 0.0833(6)
C6 C 0.2643(7) -0.1028(5) 0.1187(6)
C7 C 0.3988(7) -0.1363(5) 0.1302(7)
C8 C 0.4941(6) -0.0455(5) 0.1463(6)
C9 C 0.4568(7) 0.0698(5) 0.1591(7)
C10 C 0.3237(6) 0.0945(5) 0.1621(6)
C11 C 0.4524(7) -0.2617(5) 0.1419(7)
C12 C 0.2372(6) -0.3100(5) -0.0857(6)
O5 O 0.1184(4) -0.0639(4) 0.3990(3)
O6 O -0.1447(4) 0.0259(3) 0.2107(4)
H1 H -0.15573(69) -0.17997(48) 0.14394(68)
H2 H -0.17160(68) -0.35702(51) 0.02877(62)
H3 H 0.00766(68) -0.41392(48) -0.06834(67)
H4 H 0.58738(61) -0.06405(47) 0.14828(62)
H5 H 0.52226(66) 0.13184(50) 0.16537(66)
H6 H 0.29767(60) 0.17363(46) 0.17762(64)
H7 H 0.07869(38) -0.11610(37) 0.43037(34)
H8 H 0.15864(38) -0.00979(37) 0.45850(34)
H9 H -0.18346(39) 0.01438(35) 0.26772(39)
H10 H -0.19237(39) 0.09587(35) 0.19430(39)
O1A O 0.0974(4) 0.1754(3) 0.2778(4)
Cu1A Cu 0.4480(1) -0.4830(1) 0.2863(1)
loop_
_geom_bond_atom_site_label_1
_geom_bond_atom_site_label_2
_geom_bond_site_symmetry_1
_geom_bond_site_symmetry_2
Cu1 N1 1_555 1_555
O1 C11 1_555 1_555
O2 C11 1_555 1_555
O3 C12 1_555 1_555
O4 C12 1_555 1_555
N1 C6 1_555 1_555
N2 Cu1 1_555 1_555
C1 N2 1_555 1_555
C2 C1 1_555 1_555
C3 C2 1_555 1_555
C4 C3 1_555 1_555
C5 N2 1_555 1_555
C6 C5 1_555 1_555
C7 C6 1_555 1_555
C8 C7 1_555 1_555
C9 C8 1_555 1_555
C10 N1 1_555 1_555
C11 C7 1_555 1_555
C12 C4 1_555 1_555
O5 Cu1 1_555 1_555
O6 Cu1 1_555 1_555
H1 C1 1_555 1_555
H2 C2 1_555 1_555
H3 C3 1_555 1_555
H4 C8 1_555 1_555
H5 C9 1_555 1_555
H6 C10 1_555 1_555
H7 O5 1_555 1_555
H8 O5 1_555 1_555
H9 O6 1_555 1_555
H10 O6 1_555 1_555
O1A Cu1 1_555 1_555
Cu1A O1 1_555 1_555
C4 C5 1_555 1_555
C9 C10 1_555 1_555

#END
