
#######################################################################
#
#                 Cambridge Crystallographic Data Centre
#                                CCDC 
#
#######################################################################
#
# If this CIF has been generated from an entry in the Cambridge 
# Structural Database, then it will include bibliographic, chemical, 
# crystal, experimental, refinement or atomic coordinate data resulting 
# from the CCDC's data processing and validation procedures.
#
#######################################################################

data_YEGSIO
_symmetry_cell_setting           triclinic
_symmetry_space_group_name_H-M   'P -1'
_symmetry_Int_Tables_number      2
_space_group_name_Hall           '-P 1'
loop_
_symmetry_equiv_pos_site_id
_symmetry_equiv_pos_as_xyz
1 x,y,z
2 -x,-y,-z
_cell_length_a                   11.3881(14)
_cell_length_b                   13.8523(18)
_cell_length_c                   15.613(2)
_cell_angle_alpha                91.455(2)
_cell_angle_beta                 91.979(2)
_cell_angle_gamma                113.687(2)
_cell_volume                     2252.06
loop_
_atom_site_label
_atom_site_type_symbol
_atom_site_fract_x
_atom_site_fract_y
_atom_site_fract_z
Ag1 Ag 0.49861(7) 0.37760(7) 0.35420(5)
Ag2 Ag -0.77866(8) 0.10266(7) 0.44350(4)
Ag3 Ag -1.01404(7) 0.12529(7) -0.51170(5)
Ag4 Ag 0.23097(7) 0.32951(7) -0.59096(4)
Ag5 Ag -0.17179(7) 0.41151(7) 0.02317(5)
Ag6 Ag -0.31397(7) 0.35804(7) -0.13556(5)
Ag7 Ag -0.32534(7) 0.09710(7) 0.01218(5)
Ag8 Ag -0.24190(8) 0.13902(8) -0.15512(5)
C1 C 0.7475(10) 0.3772(7) 0.2445(6)
H1 H 0.6952 0.3755 0.1952
C2 C 0.8658(9) 0.3739(8) 0.2329(6)
H2 H 0.8927 0.3672 0.1770
C3 C 0.9428(9) 0.3806(8) 0.3036(6)
H3 H 1.0256 0.3809 0.2971
C4 C 0.9009(10) 0.3869(8) 0.3848(6)
H4 H 0.9537 0.3903 0.4342
C5 C 0.7795(8) 0.3882(7) 0.3932(5)
C6 C 0.7266(9) 0.3933(8) 0.4770(6)
C7 C 0.7966(9) 0.4037(9) 0.5539(6)
H5 H 0.8824 0.4092 0.5528
C8 C 0.7447(10) 0.4063(9) 0.6308(6)
H6 H 0.7924 0.4112 0.6831
C9 C 0.6232(9) 0.4016(9) 0.6311(6)
H7 H 0.5856 0.4049 0.6839
C10 C 0.5555(10) 0.3921(8) 0.5555(6)
H8 H 0.4703 0.3880 0.5568
C11 C -0.6964(9) 0.1275(8) 0.2742(6)
C12 C -0.6981(8) 0.1212(8) 0.1775(5)
C13 C -0.5907(9) 0.1868(8) 0.1343(6)
H9 H -0.5156 0.2312 0.1670
C14 C -0.5906(8) 0.1892(7) 0.0448(6)
C15 C -0.4720(9) 0.2652(7) 0.0060(6)
C16 C -0.7015(9) 0.1224(7) -0.0031(6)
C17 C -0.8061(8) 0.0537(7) 0.0401(5)
H10 H -0.8789 0.0045 0.0079
C18 C -0.8055(9) 0.0559(7) 0.1294(6)
H11 H -0.8800 0.0120 0.1573
C19 C -0.7239(9) 0.1201(7) -0.1000(5)
C20 C -0.6394(9) 0.1142(7) -0.1614(5)
C21 C -0.5164(9) 0.1029(7) -0.1375(5)
C22 C -0.6660(8) 0.1212(7) -0.2485(6)
H12 H -0.6035 0.1254 -0.2886
C23 C -0.7817(9) 0.1223(7) -0.2772(6)
C24 C -0.8166(9) 0.1195(7) -0.3704(6)
C25 C -0.8670(9) 0.1245(7) -0.2168(6)
H13 H -0.9466 0.1263 -0.2348
C26 C -0.8362(9) 0.1241(7) -0.1305(6)
H14 H -0.8957 0.1268 -0.0903
C27 C -1.2620(11) 0.1142(9) -0.3952(6)
H15 H -1.2119 0.1075 -0.3477
C28 C -1.3728(10) 0.1259(9) -0.3809(6)
H16 H -1.3990 0.1270 -0.3239
C29 C -1.4465(11) 0.1359(9) -0.4480(6)
H17 H -1.5249 0.1426 -0.4387
C30 C -1.4041(9) 0.1361(8) -0.5294(6)
H18 H -1.4524 0.1445 -0.5772
C31 C -1.2929(9) 0.1243(7) -0.5413(6)
C32 C -1.2398(9) 0.1251(7) -0.6276(6)
C33 C -1.3097(9) 0.1277(8) -0.7004(6)
H19 H -1.3925 0.1281 -0.6964
C34 C -1.2574(9) 0.1297(7) -0.7806(6)
H20 H -1.3038 0.1329 -0.8315
C35 C -1.1393(9) 0.1271(8) -0.7851(6)
H21 H -1.1025 0.1280 -0.8389
C36 C -1.0748(9) 0.1232(7) -0.7105(6)
H22 H -0.9936 0.1194 -0.7139
C37 C 0.1609(9) 0.3496(7) -0.4201(6)
C38 C 0.1702(8) 0.3638(7) -0.3243(5)
C39 C 0.0673(9) 0.3676(7) -0.2813(6)
H23 H -0.0076 0.3624 -0.3133
C40 C 0.0716(8) 0.3792(7) -0.1903(5)
C41 C -0.0374(8) 0.3946(7) -0.1520(5)
C42 C 0.1768(8) 0.3788(7) -0.1423(5)
C43 C 0.2788(8) 0.3751(7) -0.1868(5)
H24 H 0.3518 0.3755 -0.1551
C44 C 0.2777(9) 0.3707(7) -0.2753(6)
H25 H 0.3515 0.3725 -0.3031
C45 C 0.1889(8) 0.3804(7) -0.0448(5)
C46 C 0.0941(8) 0.3168(7) 0.0102(6)
C47 C -0.0384(9) 0.2437(8) -0.0207(6)
C48 C 0.1285(9) 0.3198(7) 0.0969(6)
H26 H 0.0649 0.2782 0.1339
C49 C 0.2507(9) 0.3804(8) 0.1322(6)
C50 C 0.2869(9) 0.3721(7) 0.2249(6)
C51 C 0.3405(9) 0.4444(8) 0.0800(5)
H27 H 0.4244 0.4873 0.1028
C52 C 0.3092(8) 0.4468(7) -0.0065(6)
H28 H 0.3713 0.4950 -0.0411
N1 N 0.7033(7) 0.3828(6) 0.3229(5)
N2 N 0.6049(7) 0.3881(6) 0.4781(5)
N3 N -1.2211(8) 0.1120(7) -0.4750(5)
N4 N -1.1218(7) 0.1244(6) -0.6317(5)
O1 O -0.5944(6) 0.1774(5) 0.3150(4)
O2 O -0.8043(6) 0.0782(5) 0.3068(4)
O3 O -0.3668(6) 0.2798(5) 0.0454(4)
O4 O -0.4841(6) 0.3072(5) -0.0613(4)
O5 O -0.5137(6) 0.0491(5) -0.0746(4)
O6 O -0.4234(6) 0.1475(5) -0.1848(4)
O7 O -0.7314(6) 0.1240(5) -0.4218(4)
O8 O -0.9279(6) 0.1100(5) -0.3907(4)
O9 O 0.2610(6) 0.3519(5) -0.4549(4)
O10 O 0.0586(6) 0.3359(6) -0.4591(4)
O11 O -0.0186(6) 0.4516(5) -0.0829(4)
O12 O -0.1482(6) 0.3518(5) -0.1916(4)
O13 O -0.1267(6) 0.2304(5) 0.0300(4)
O14 O -0.0523(6) 0.1976(5) -0.0930(4)
O15 O 0.1983(6) 0.3207(5) 0.2730(4)
O16 O 0.4024(6) 0.4179(6) 0.2458(4)
Ag2_2 Ag -0.77866(8) 0.10266(7) -0.55650(4)
Ag4_2 Ag 0.23097(7) 0.32951(7) 0.40904(4)
Ag5A Ag 0.17179(7) 0.58849(7) -0.02317(5)
Ag7A Ag -0.67466(7) -0.09710(7) -0.01218(5)
O5A O -0.4863(6) -0.0491(5) 0.0746(4)
O7_2 O -0.7314(6) 0.1240(5) 0.5782(4)
O11A O 0.0186(6) 0.5484(5) 0.0829(4)
O15_2 O 0.1983(6) 0.3207(5) -0.7270(4)
loop_
_geom_bond_atom_site_label_1
_geom_bond_atom_site_label_2
_geom_bond_site_symmetry_1
_geom_bond_site_symmetry_2
Ag1 N1 1_555 1_555
Ag2 O2 1_555 1_555
Ag3 N3 1_555 1_555
Ag4 O9 1_555 1_555
Ag5 O3 1_555 1_555
Ag6 O4 1_555 1_555
Ag7 O5 1_555 1_555
Ag8 O6 1_555 1_555
C1 H1 1_555 1_555
C2 C1 1_555 1_555
H2 C2 1_555 1_555
C3 C2 1_555 1_555
H3 C3 1_555 1_555
C4 C3 1_555 1_555
H4 C4 1_555 1_555
C5 C4 1_555 1_555
C6 C5 1_555 1_555
C7 C6 1_555 1_555
H5 C7 1_555 1_555
C8 C7 1_555 1_555
H6 C8 1_555 1_555
C9 C8 1_555 1_555
H7 C9 1_555 1_555
C10 C9 1_555 1_555
H8 C10 1_555 1_555
C11 C12 1_555 1_555
C12 C13 1_555 1_555
C13 H9 1_555 1_555
C14 C13 1_555 1_555
C15 C14 1_555 1_555
C16 C14 1_555 1_555
C17 C16 1_555 1_555
H10 C17 1_555 1_555
C18 C12 1_555 1_555
H11 C18 1_555 1_555
C19 C16 1_555 1_555
C20 C19 1_555 1_555
C21 C20 1_555 1_555
C22 C20 1_555 1_555
H12 C22 1_555 1_555
C23 C22 1_555 1_555
C24 C23 1_555 1_555
C25 C23 1_555 1_555
H13 C25 1_555 1_555
C26 C19 1_555 1_555
H14 C26 1_555 1_555
C27 H15 1_555 1_555
C28 C27 1_555 1_555
H16 C28 1_555 1_555
C29 C28 1_555 1_555
H17 C29 1_555 1_555
C30 C29 1_555 1_555
H18 C30 1_555 1_555
C31 C30 1_555 1_555
C32 C31 1_555 1_555
C33 C32 1_555 1_555
H19 C33 1_555 1_555
C34 C33 1_555 1_555
H20 C34 1_555 1_555
C35 C34 1_555 1_555
H21 C35 1_555 1_555
C36 C35 1_555 1_555
H22 C36 1_555 1_555
C37 C38 1_555 1_555
C38 C39 1_555 1_555
C39 H23 1_555 1_555
C40 C39 1_555 1_555
C41 C40 1_555 1_555
C42 C40 1_555 1_555
C43 C42 1_555 1_555
H24 C43 1_555 1_555
C44 C38 1_555 1_555
H25 C44 1_555 1_555
C45 C42 1_555 1_555
C46 C45 1_555 1_555
C47 C46 1_555 1_555
C48 C46 1_555 1_555
H26 C48 1_555 1_555
C49 C48 1_555 1_555
C50 C49 1_555 1_555
C51 C49 1_555 1_555
H27 C51 1_555 1_555
C52 C45 1_555 1_555
H28 C52 1_555 1_555
N1 C1 1_555 1_555
N2 Ag1 1_555 1_555
N3 C27 1_555 1_555
N4 Ag3 1_555 1_555
O1 C11 1_555 1_555
O2 C11 1_555 1_555
O3 C15 1_555 1_555
O4 C15 1_555 1_555
O5 C21 1_555 1_555
O6 C21 1_555 1_555
O7 C24 1_555 1_555
O8 Ag3 1_555 1_555
O9 C37 1_555 1_555
O10 C37 1_555 1_555
O11 Ag5 1_555 1_555
O12 Ag6 1_555 1_555
O13 Ag7 1_555 1_555
O14 Ag8 1_555 1_555
O15 C50 1_555 1_555
O16 Ag1 1_555 1_555
Ag2_2 O7 1_555 1_555
Ag4_2 O15 1_555 1_555
Ag5A O11 1_555 1_555
Ag7A O5 1_555 1_555
O5A Ag7 1_555 1_555
O7_2 Ag2 1_555 1_555
O11A Ag5 1_555 1_555
O15_2 Ag4 1_555 1_555
C5 N1 1_555 1_555
C6 N2 1_555 1_555
C10 N2 1_555 1_555
C17 C18 1_555 1_555
C24 O8 1_555 1_555
C25 C26 1_555 1_555
C31 N3 1_555 1_555
C32 N4 1_555 1_555
C36 N4 1_555 1_555
C41 O11 1_555 1_555
C41 O12 1_555 1_555
C43 C44 1_555 1_555
C47 O13 1_555 1_555
C47 O14 1_555 1_555
C50 O16 1_555 1_555
C51 C52 1_555 1_555
Ag5A O11A 1_555 1_555
Ag7A O5A 1_555 1_555

#END
