
#######################################################################
#
#                 Cambridge Crystallographic Data Centre
#                                CCDC 
#
#######################################################################
#
# If this CIF has been generated from an entry in the Cambridge 
# Structural Database, then it will include bibliographic, chemical, 
# crystal, experimental, refinement or atomic coordinate data resulting 
# from the CCDC's data processing and validation procedures.
#
#######################################################################

data_YEGTEK
_symmetry_cell_setting           monoclinic
_symmetry_space_group_name_H-M   'P 21/c'
_symmetry_Int_Tables_number      14
_space_group_name_Hall           '-P 2ybc'
loop_
_symmetry_equiv_pos_site_id
_symmetry_equiv_pos_as_xyz
1 x,y,z
2 -x,1/2+y,1/2-z
3 -x,-y,-z
4 x,1/2-y,1/2+z
_cell_length_a                   11.344(3)
_cell_length_b                   39.266(6)
_cell_length_c                   8.1324(18)
_cell_angle_alpha                90
_cell_angle_beta                 102.908(18)
_cell_angle_gamma                90
_cell_volume                     3530.9
loop_
_atom_site_label
_atom_site_type_symbol
_atom_site_fract_x
_atom_site_fract_y
_atom_site_fract_z
Cd1 Cd 1.51854(3) 0.052126(7) 1.24072(4)
Cd2 Cd 0.40456(3) -0.299490(8) 0.90496(4)
Cd3 Cd 1.19049(3) -0.122390(7) 0.98874(4)
O1 O 1.3828(3) 0.01312(7) 1.3485(4)
O2 O 1.3465(3) 0.06782(8) 1.3297(4)
O3 O 1.0406(3) -0.10655(8) 1.1114(4)
O4 O 1.2097(3) -0.09462(7) 1.2923(4)
O5 O 0.6649(3) 0.02236(7) 1.1636(4)
O6 O 0.7320(3) 0.07315(7) 1.1203(4)
O7 O 0.5972(3) -0.30000(8) 1.0646(5)
O8 O 0.5313(3) -0.24785(8) 1.0120(4)
O9 O 1.2534(3) -0.22589(7) 1.2211(4)
O10 O 1.2232(3) -0.17166(7) 1.1637(4)
O11 O 1.0335(3) -0.37243(8) 1.2508(4)
O12 O 1.1960(3) -0.34363(8) 1.2404(4)
O13 O 1.4014(3) 0.04304(9) 0.9731(4)
H1 H 1.3901 0.0226 0.9576
H2 H 1.4220 0.0554 0.8881
O14 O 1.6084(2) 0.05207(7) 1.5324(4)
H3 H 1.6221 0.0324 1.5650
H4 H 1.6682 0.0637 1.5707
O15 O 1.5361(3) 0.11009(8) 1.2372(4)
H5 H 1.4687 0.1186 1.2073
H6 H 1.5609 0.1157 1.1762
O16 O 0.3901(3) -0.35690(8) 0.9498(4)
H7 H 0.3981 -0.3605 1.0510
H8 H 0.3302 -0.3698 0.8944
O17 O 0.5004(3) -0.31072(8) 0.6811(4)
H9 H 0.4968 -0.2937 0.6215
H10 H 0.5643 -0.3213 0.7166
O18 O 0.3341(3) -0.29268(8) 1.1469(4)
H11 H 0.2937 -0.3094 1.1604
H12 H 0.3019 -0.2739 1.1581
O19 O 1.3950(2) -0.12892(7) 1.0524(4)
H13 H 1.4254 -0.1153 1.1262
H14 H 1.4144 -0.1498 1.0638
C1 C 1.1179(3) 0.01415(10) 1.3761(5)
C2 C 1.1118(3) -0.01995(10) 1.4145(5)
H27 H 1.1708 -0.0294 1.5004
C3 C 1.0188(3) -0.04033(9) 1.3266(5)
C4 C 0.9292(3) -0.02561(10) 1.2015(5)
H28 H 0.8665 -0.0390 1.1420
C5 C 0.9323(3) 0.00874(9) 1.1646(5)
C6 C 1.0280(3) 0.02844(10) 1.2522(5)
H29 H 1.0315 0.0515 1.2271
C7 C 1.2234(4) 0.03491(12) 1.4722(6)
H30 H 1.1949 0.0574 1.4939
H31 H 1.2556 0.0241 1.5802
C8 C 1.3234(3) 0.03849(11) 1.3778(5)
C9 C 1.0214(4) -0.07804(10) 1.3612(6)
H32 H 1.0574 -0.0824 1.4791
H33 H 0.9398 -0.0872 1.3357
C10 C 1.0962(4) -0.09472(9) 1.2496(5)
C11 C 0.8320(4) 0.02490(11) 1.0318(5)
H34 H 0.8668 0.0418 0.9693
H35 H 0.7938 0.0075 0.9529
C12 C 0.7375(3) 0.04174(9) 1.1096(5)
C13 C 0.8406(3) -0.26243(10) 1.1277(5)
C14 C 0.9097(4) -0.23534(10) 1.0937(5)
H36 H 0.8863 -0.2133 1.1129
C15 C 1.0126(4) -0.24023(11) 1.0318(5)
C16 C 1.0452(3) -0.27334(10) 1.0012(5)
H37 H 1.1123 -0.2770 0.9555
C17 C 0.9802(3) -0.30092(10) 1.0370(5)
C18 C 0.8775(4) -0.29510(10) 1.1004(5)
H38 H 0.8330 -0.3136 1.1248
C19 C 0.7288(4) -0.25569(12) 1.1948(6)
H39 H 0.7224 -0.2314 1.2114
H40 H 0.7389 -0.2665 1.3043
C20 C 0.6109(4) -0.26820(12) 1.0823(6)
C21 C 1.0876(4) -0.21067(11) 0.9950(6)
H41 H 1.0362 -0.1907 0.9714
H42 H 1.1165 -0.2158 0.8942
C22 C 1.1948(3) -0.20222(10) 1.1356(5)
C23 C 1.0224(4) -0.33672(10) 1.0098(5)
H43 H 0.9532 -0.3508 0.9610
H44 H 1.0756 -0.3361 0.9316
C24 C 1.0888(4) -0.35196(9) 1.1756(5)
Cd1_2 Cd 0.51854(3) 0.052126(7) 1.24072(4)
Cd2C Cd 1.40456(3) -0.200510(8) 1.40496(4)
Cd3B Cd 0.80951(3) 0.122390(7) 1.01126(4)
Cd3C Cd 1.19049(3) -0.377610(7) 1.48874(4)
O5_2 O 1.6649(3) 0.02236(7) 1.1636(4)
O6B O 1.2680(3) -0.07315(7) 0.8797(4)
O9C O 0.2534(3) -0.27411(7) 0.7211(4)
O11C O 1.0335(3) -0.12757(8) 0.7508(4)
O12C O 1.1960(3) -0.15637(8) 0.7404(4)
O20 O 0.4620(4) 0.08440(10) 0.7365(5)
H15 H 0.405(5) 0.0978(14) 0.683(7)
H16 H 0.501(5) 0.0785(14) 0.668(7)
O21 O 0.3200(4) 0.14316(13) 0.6881(7)
H17 H 0.273(6) 0.1433(17) 0.766(9)
H18 H 0.275(6) 0.1501(18) 0.600(9)
O22 O 0.2113(4) 0.12284(12) 0.3599(8)
H19 H 0.135(7) 0.1248(19) 0.289(10)
H20 H 0.247(7) 0.1011(19) 0.339(10)
O23 O 0.1676(7) 0.1468(3) 0.8941(10)
H21 H 0.104(5) 0.137(2) 0.895(12)
H22 H 0.207(7) 0.1339(14) 0.965(7)
O25 O 0.3407(19) 0.1506(5) 0.191(3)
H24 H 0.309(12) 0.140(3) 0.258(14)
H25 H 0.315(4) 0.1620(19) 0.106(6)
O24? O 0.208(3) 0.1138(17) 0.931(5)
H23? H 0.16(3) 0.110(12) 0.98(5)
O26? O 0.386(4) 0.1638(13) 0.151(3)
H26? H 0.385(19) 0.171(5) 0.246(11)
loop_
_geom_bond_atom_site_label_1
_geom_bond_atom_site_label_2
_geom_bond_site_symmetry_1
_geom_bond_site_symmetry_2
Cd1 O1 1_555 1_555
Cd2 O7 1_555 1_555
Cd3 O3 1_555 1_555
O1 C8 1_555 1_555
O2 Cd1 1_555 1_555
O3 C10 1_555 1_555
O4 Cd3 1_555 1_555
O5 C12 1_555 1_555
O6 C12 1_555 1_555
O7 C20 1_555 1_555
O8 Cd2 1_555 1_555
O9 C22 1_555 1_555
O10 Cd3 1_555 1_555
O11 C24 1_555 1_555
O12 C24 1_555 1_555
O13 Cd1 1_555 1_555
H1 O13 1_555 1_555
H2 O13 1_555 1_555
O14 Cd1 1_555 1_555
H3 O14 1_555 1_555
H4 O14 1_555 1_555
O15 Cd1 1_555 1_555
H5 O15 1_555 1_555
H6 O15 1_555 1_555
O16 Cd2 1_555 1_555
H7 O16 1_555 1_555
H8 O16 1_555 1_555
O17 Cd2 1_555 1_555
H9 O17 1_555 1_555
H10 O17 1_555 1_555
O18 Cd2 1_555 1_555
H11 O18 1_555 1_555
H12 O18 1_555 1_555
O19 Cd3 1_555 1_555
H13 O19 1_555 1_555
H14 O19 1_555 1_555
O20 H15 1_555 1_555
H16 O20 1_555 1_555
O21 H17 1_555 1_555
H18 O21 1_555 1_555
O22 H19 1_555 1_555
H20 O22 1_555 1_555
O23 H21 1_555 1_555
H22 O23 1_555 1_555
O25 H24 1_555 1_555
H25 O25 1_555 1_555
C1 C2 1_555 1_555
C2 H27 1_555 1_555
C3 C2 1_555 1_555
C4 C3 1_555 1_555
H28 C4 1_555 1_555
C5 C4 1_555 1_555
C6 C1 1_555 1_555
H29 C6 1_555 1_555
C7 C1 1_555 1_555
H30 C7 1_555 1_555
H31 C7 1_555 1_555
C8 O2 1_555 1_555
C9 C3 1_555 1_555
H32 C9 1_555 1_555
H33 C9 1_555 1_555
C10 O4 1_555 1_555
C11 C5 1_555 1_555
H34 C11 1_555 1_555
H35 C11 1_555 1_555
C12 C11 1_555 1_555
C13 C14 1_555 1_555
C14 H36 1_555 1_555
C15 C14 1_555 1_555
C16 C15 1_555 1_555
H37 C16 1_555 1_555
C17 C16 1_555 1_555
C18 C13 1_555 1_555
H38 C18 1_555 1_555
C19 C13 1_555 1_555
H39 C19 1_555 1_555
H40 C19 1_555 1_555
C20 O8 1_555 1_555
C21 C15 1_555 1_555
H41 C21 1_555 1_555
H42 C21 1_555 1_555
C22 O10 1_555 1_555
C23 C17 1_555 1_555
H43 C23 1_555 1_555
H44 C23 1_555 1_555
C24 C23 1_555 1_555
Cd1_2 O5 1_555 1_555
Cd2C O9 1_555 1_555
Cd3B O6 1_555 1_555
Cd3C O11 1_555 1_555
O5_2 Cd1 1_555 1_555
O6B Cd3 1_555 1_555
O9C Cd2 1_555 1_555
O11C Cd3 1_555 1_555
O12C Cd3 1_555 1_555
O12 Cd3C 1_555 1_555
C5 C6 1_555 1_555
C7 C8 1_555 1_555
C9 C10 1_555 1_555
C17 C18 1_555 1_555
C19 C20 1_555 1_555
C21 C22 1_555 1_555

#END
