
#######################################################################
#
#                 Cambridge Crystallographic Data Centre
#                                CCDC 
#
#######################################################################
#
# If this CIF has been generated from an entry in the Cambridge 
# Structural Database, then it will include bibliographic, chemical, 
# crystal, experimental, refinement or atomic coordinate data resulting 
# from the CCDC's data processing and validation procedures.
#
#######################################################################

data_YEGTAH
_symmetry_cell_setting           monoclinic
_symmetry_space_group_name_H-M   'P 21/n'
_symmetry_Int_Tables_number      14
_space_group_name_Hall           '-P 2yn'
loop_
_symmetry_equiv_pos_site_id
_symmetry_equiv_pos_as_xyz
1 x,y,z
2 1/2-x,1/2+y,1/2-z
3 -x,-y,-z
4 1/2+x,1/2-y,1/2+z
_cell_length_a                   15.698(10)
_cell_length_b                   8.738(6)
_cell_length_c                   18.973(13)
_cell_angle_alpha                90
_cell_angle_beta                 90.209(7)
_cell_angle_gamma                90
_cell_volume                     2602.49
loop_
_atom_site_label
_atom_site_type_symbol
_atom_site_fract_x
_atom_site_fract_y
_atom_site_fract_z
O1 O 1.1188(7) 0.7471(14) 0.1905(6)
H1 H 1.1036 0.8209 0.1641
H2 H 1.1651 0.7726 0.2106
O2 O 1.1643(8) 0.291(2) 0.2561(7)
H3 H 1.1174 0.2630 0.2742
H4 H 1.1875 0.2129 0.2378
Pb1 Pb 1.06277(2) 0.48053(5) 0.18116(2)
Ni1 Ni 0.82012(6) 0.43853(10) 0.39048(5)
C1 C 0.6474(5) 0.4576(8) 0.4112(5)
N1 N 0.8640(4) 0.2956(7) 0.3274(3)
C2 C 0.6043(5) 0.1389(8) 0.3792(5)
C3 C 0.8168(6) 0.6632(8) 0.4984(4)
N2 N 0.9268(4) 0.5341(7) 0.3864(4)
O3 O 0.9603(4) 0.3082(7) 0.2354(3)
C4 C 0.9669(6) 0.4958(9) 0.3268(5)
C5 C 0.8896(7) 0.0331(10) 0.2909(5)
H5 H 0.9422 0.0617 0.2727
O4 O 1.0316(4) 0.5537(8) 0.2993(4)
C6 C 0.8356(5) 0.1448(8) 0.3189(4)
O5 O 0.5802(5) 0.0996(7) 0.4377(4)
C7 C 0.7329(6) -0.0564(9) 0.3409(5)
H6 H 0.6796 -0.0872 0.3568
C8 C 0.5624(6) 0.4567(9) 0.3935(5)
H7 H 0.5397 0.3771 0.3668
N3 N 0.7123(4) 0.3484(7) 0.3894(3)
C9 C 0.9280(5) 0.3568(9) 0.2907(4)
C10 C 0.6831(6) 0.5808(9) 0.4484(4)
C11 C 0.5444(6) 0.6956(10) 0.4524(5)
H8 H 0.5087 0.7747 0.4667
C12 C 0.6940(5) 0.2060(8) 0.3723(4)
C13 C 0.7561(5) 0.1009(8) 0.3442(4)
C14 C 0.6294(6) 0.7016(9) 0.4685(5)
H9 H 0.6515 0.7853 0.4927
C15 C 0.9606(6) 0.6383(8) 0.4359(4)
N4 N 0.7742(4) 0.5825(6) 0.4532(3)
C16 C 0.9092(6) 0.6925(8) 0.4914(4)
C17 C 0.9487(7) 0.7888(10) 0.5428(5)
H10 H 0.9166 0.8225 0.5809
C18 C 0.5113(6) 0.5750(10) 0.4157(5)
H11 H 0.4533 0.5728 0.4056
C19 C 0.8658(7) -0.1187(10) 0.2899(5)
H12 H 0.9034 -0.1914 0.2722
C20 C 1.0804(8) 0.7820(12) 0.4827(6)
H13 H 1.1365 0.8143 0.4782
C21 C 1.0455(6) 0.6826(11) 0.4342(5)
H14 H 1.0802 0.6437 0.3989
O6 O 0.7581(7) 0.6447(13) 0.6106(5)
O7 O 0.7639(7) 0.8759(11) 0.5645(6)
C22 C 0.7889(7) -0.1643(9) 0.3141(5)
H15 H 0.7738 -0.2672 0.3129
C23 C 0.7747(8) 0.7341(15) 0.5636(6)
C24 C 1.0314(7) 0.8328(10) 0.5379(6)
H16 H 1.0548 0.8972 0.5718
O8 O 0.5657(4) 0.1232(7) 0.3208(4)
Pb1A Pb 0.43723(2) -0.01947(5) 0.31884(2)
O8A O 0.9343(4) 0.6232(7) 0.1792(4)
O9 O 0.6757(7) 1.1329(11) 0.5556(6)
H17 H 0.6590 1.0654 0.5848
H18 H 0.6435 1.1279 0.5196
O10 O 1.2469(9) 0.1718(17) 0.1405(7)
H19 H 1.2630 0.1996 0.1823
H20 H 1.2088 0.1023 0.1432
O11 O 1.1183(15) 0.948(2) 0.2988(12)
H21 H 1.0986 0.8998 0.2634
H22 H 1.1192 0.8866 0.3336
loop_
_geom_bond_atom_site_label_1
_geom_bond_atom_site_label_2
_geom_bond_site_symmetry_1
_geom_bond_site_symmetry_2
O1 H1 1_555 1_555
H2 O1 1_555 1_555
O2 H3 1_555 1_555
H4 O2 1_555 1_555
Pb1 O1 1_555 1_555
Ni1 N1 1_555 1_555
C1 C8 1_555 1_555
N1 C6 1_555 1_555
C2 O5 1_555 1_555
C3 N4 1_555 1_555
N2 Ni1 1_555 1_555
O3 Pb1 1_555 1_555
C4 N2 1_555 1_555
C5 H5 1_555 1_555
O4 Pb1 1_555 1_555
C6 C5 1_555 1_555
C7 H6 1_555 1_555
C8 H7 1_555 1_555
N3 Ni1 1_555 1_555
C9 N1 1_555 1_555
C10 C1 1_555 1_555
C11 H8 1_555 1_555
C12 C2 1_555 1_555
C13 C6 1_555 1_555
C14 C10 1_555 1_555
H9 C14 1_555 1_555
C15 N2 1_555 1_555
N4 Ni1 1_555 1_555
C16 C3 1_555 1_555
C17 C16 1_555 1_555
H10 C17 1_555 1_555
C18 C8 1_555 1_555
H11 C18 1_555 1_555
C19 C5 1_555 1_555
H12 C19 1_555 1_555
C20 H13 1_555 1_555
C21 C15 1_555 1_555
H14 C21 1_555 1_555
O6 C23 1_555 1_555
O7 C23 1_555 1_555
C22 C7 1_555 1_555
H15 C22 1_555 1_555
C23 C3 1_555 1_555
C24 C17 1_555 1_555
H16 C24 1_555 1_555
O8 C2 1_555 1_555
O9 H17 1_555 1_555
H18 O9 1_555 1_555
O10 H19 1_555 1_555
H20 O10 1_555 1_555
O11 H21 1_555 1_555
H22 O11 1_555 1_555
Pb1A O8 1_555 1_555
O8A Pb1 1_555 1_555
O2 Pb1 1_555 1_555
C1 N3 1_555 1_555
O3 C9 1_555 1_555
C4 O4 1_555 1_555
C4 C9 1_555 1_555
C7 C13 1_555 1_555
N3 C12 1_555 1_555
C10 N4 1_555 1_555
C11 C14 1_555 1_555
C11 C18 1_555 1_555
C12 C13 1_555 1_555
C15 C16 1_555 1_555
C19 C22 1_555 1_555
C20 C21 1_555 1_555
C20 C24 1_555 1_555

#END
