
#######################################################################
#
#                 Cambridge Crystallographic Data Centre
#                                CCDC 
#
#######################################################################
#
# If this CIF has been generated from an entry in the Cambridge 
# Structural Database, then it will include bibliographic, chemical, 
# crystal, experimental, refinement or atomic coordinate data resulting 
# from the CCDC's data processing and validation procedures.
#
#######################################################################

data_YEGWAK
_symmetry_cell_setting           triclinic
_symmetry_space_group_name_H-M   'P -1'
_symmetry_Int_Tables_number      2
_space_group_name_Hall           '-P 1'
loop_
_symmetry_equiv_pos_site_id
_symmetry_equiv_pos_as_xyz
1 x,y,z
2 -x,-y,-z
_cell_length_a                   10.276(2)
_cell_length_b                   11.448(2)
_cell_length_c                   17.029(3)
_cell_angle_alpha                85.27(3)
_cell_angle_beta                 86.55(3)
_cell_angle_gamma                63.39(3)
_cell_volume                     1784.38
loop_
_atom_site_label
_atom_site_type_symbol
_atom_site_fract_x
_atom_site_fract_y
_atom_site_fract_z
C1 C 0.3920(4) 1.0712(4) 0.4460(2)
H1 H 0.3206 1.1190 0.4095
O3 O 0.3096(3) 1.0814(3) 0.08726(16)
O4 O 0.3448(3) 1.0709(3) -0.04282(16)
C7 C 0.2698(4) 1.1249(4) 0.0173(3)
C8 C 0.1233(4) 1.2397(4) 0.0061(2)
C9 C 0.0385(4) 1.3015(4) 0.0704(2)
H5 H 0.0734 1.2726 0.1210
C10 C -0.0986(4) 1.4066(4) 0.0599(3)
H6 H -0.1551 1.4486 0.1030
C11 C 0.0717(4) 1.2844(4) -0.0694(2)
H7 H 0.1296 1.2444 -0.1126
Zn1 Zn 0.49422(5) 0.92082(4) 0.10745(3)
O7 O -0.4598(3) 1.2290(2) -0.09512(16)
N1 N 0.5480(3) 0.9593(3) 0.21164(18)
O8 O -0.2854(3) 1.5561(2) -0.02408(18)
N3 N 0.5655(3) 0.9806(3) 0.33728(18)
C14 C 0.5318(4) 0.9903(4) 0.4210(2)
C17 C -0.1491(4) 1.4472(4) -0.0157(3)
C20 C 0.4889(4) 0.9613(4) 0.2830(2)
H11 H 0.4050 0.9507 0.2942
C21 C -0.5394(4) 1.3328(4) -0.1380(3)
C22 C 0.3586(4) 1.0810(4) 0.5260(2)
H12 H 0.2646 1.1343 0.5438
C23 C -0.5075(4) 1.4493(4) -0.1343(2)
O9 O -0.6374(4) 1.3398(3) -0.1790(2)
C24 C 0.6810(4) 0.9913(4) 0.2985(2)
H13 H 0.7532 1.0048 0.3208
C25 C 0.6692(4) 0.9782(4) 0.2212(2)
H14 H 0.7330 0.9814 0.1809
C28 C -0.4077(4) 1.4468(4) -0.0814(2)
H17 H -0.3603 1.3732 -0.0476
C29 C -0.3792(4) 1.5538(4) -0.0791(3)
C32 C -0.0654(4) 1.3882(4) -0.0810(3)
H19 H -0.1003 1.4175 -0.1316
C35 C -0.4503(5) 1.6652(4) -0.1283(3)
H21 H -0.4313 1.7371 -0.1267
C36 C -0.5783(5) 1.5601(4) -0.1833(3)
H22 H -0.6452 1.5629 -0.2188
C40 C -0.5505(5) 1.6668(4) -0.1800(3)
H26 H -0.5998 1.7410 -0.2129
C1A C 0.6080(4) 0.9288(4) 0.5540(2)
H1A H 0.6794 0.8810 0.5905
O3A O -0.3096(3) 0.9186(3) -0.08726(16)
O4A O 0.6552(3) 0.9291(3) 0.04282(16)
O4_2 O -0.6552(3) 1.0709(3) -0.04282(16)
O4A_2 O -0.3448(3) 0.9291(3) 0.04282(16)
C7A C -0.2698(4) 0.8751(4) -0.0173(3)
C8A C -0.1233(4) 0.7603(4) -0.0061(2)
C9A C -0.0385(4) 0.6985(4) -0.0704(2)
H5A H -0.0734 0.7274 -0.1210
C10A C 0.0986(4) 0.5934(4) -0.0599(3)
H6A H 0.1551 0.5514 -0.1030
C11A C -0.0717(4) 0.7156(4) 0.0694(2)
H7A H -0.1296 0.7556 0.1126
Zn1A Zn 0.50578(5) 1.07918(4) -0.10745(3)
Zn1A_2 Zn -0.49422(5) 1.07918(4) -0.10745(3)
Zn1A_3 Zn 0.50578(5) 1.07918(4) 0.89255(3)
Zn1_2 Zn -0.50578(5) 0.92082(4) 0.10745(3)
O7A O 0.4598(3) 0.7710(2) 0.09512(16)
N1A N 0.4520(3) 1.0407(3) 0.78836(18)
N1A_2 N -0.5480(3) 1.0407(3) -0.21164(18)
O8A O 0.2854(3) 0.4439(2) 0.02408(18)
N3A N 0.4345(3) 1.0194(3) 0.66272(18)
C14A C 0.4682(4) 1.0097(4) 0.5790(2)
C17A C 0.1491(4) 0.5528(4) 0.0157(3)
C20A C 0.5111(4) 1.0387(4) 0.7170(2)
H11A H 0.5950 1.0493 0.7058
C21A C 0.5394(4) 0.6672(4) 0.1380(3)
C22A C 0.6414(4) 0.9190(4) 0.4740(2)
H12A H 0.7354 0.8657 0.4562
C23A C 0.5075(4) 0.5507(4) 0.1343(2)
O9A O 0.6374(4) 0.6602(3) 0.1790(2)
C24A C 0.3190(4) 1.0087(4) 0.7015(2)
H13A H 0.2468 0.9952 0.6792
C25A C 0.3308(4) 1.0218(4) 0.7788(2)
H14A H 0.2670 1.0186 0.8191
C28A C 0.4077(4) 0.5532(4) 0.0814(2)
H17A H 0.3603 0.6268 0.0476
C29A C 0.3792(4) 0.4462(4) 0.0791(3)
C32A C 0.0654(4) 0.6118(4) 0.0810(3)
H19A H 0.1003 0.5825 0.1316
C35A C 0.4503(5) 0.3348(4) 0.1283(3)
H21A H 0.4313 0.2629 0.1267
C36A C 0.5783(5) 0.4399(4) 0.1833(3)
H22A H 0.6452 0.4371 0.2188
C40A C 0.5505(5) 0.3332(4) 0.1800(3)
H26A H 0.5998 0.2590 0.2129
O1 O 0.9373(3) 0.7976(3) 0.59587(18)
O2 O 1.0986(4) 0.7166(3) 0.6909(2)
C2 C 1.0169(5) 0.7040(4) 0.6454(3)
C3 C 1.0052(4) 0.5785(4) 0.6436(3)
C4 C 1.0957(5) 0.4690(4) 0.6901(3)
H2 H 1.1581 0.4754 0.7250
C5 C 1.0920(6) 0.3511(5) 0.6839(3)
H3 H 1.1560 0.2768 0.7126
C6 C 0.9080(4) 0.5689(4) 0.5945(3)
H4 H 0.8477 0.6416 0.5632
O5 O 0.1904(3) 0.8919(3) 0.43994(16)
Zn2 Zn 0.97097(5) 0.94812(4) 0.60687(3)
O6 O 0.1671(3) 0.9155(3) 0.56960(16)
N2 N 0.9348(3) 1.0496(3) 0.83922(18)
C12 C 0.9683(4) 1.0226(4) 0.9216(2)
C13 C 1.1071(4) 0.9311(4) 0.9441(2)
H8 H 1.1777 0.8859 0.9065
N4 N 0.9316(4) 1.0239(3) 0.71263(18)
C15 C 0.8622(4) 1.0912(4) 0.9763(2)
H9 H 0.7704 1.1522 0.9598
C16 C 0.9858(4) 0.9649(4) 0.7816(2)
H10 H 1.0504 0.8767 0.7892
C18 C 0.3856(4) 0.7477(4) 0.5186(2)
C19 C 0.2377(4) 0.8585(4) 0.5089(3)
O10 O 0.8029(3) 0.4388(3) 0.5438(2)
C26 C 0.4399(5) 0.6984(4) 0.5937(3)
H15 H 0.3824 0.7337 0.6380
C27 C 0.8394(4) 1.1526(4) 0.7275(2)
H16 H 0.7845 1.2174 0.6900
C30 C 0.8415(4) 1.1695(4) 0.8050(2)
H18 H 0.7900 1.2468 0.8303
C31 C 0.6637(5) 0.5453(4) 0.5372(3)
C33 C 0.5787(5) 0.5977(4) 0.6027(3)
H20 H 0.6143 0.5654 0.6528
C34 C 0.9004(5) 0.4523(4) 0.5919(3)
C37 C 0.6128(5) 0.5894(5) 0.4625(3)
H23 H 0.6702 0.5518 0.4186
C38 C 0.9943(5) 0.3422(4) 0.6355(3)
H24 H 0.9915 0.2627 0.6322
C39 C 0.4732(5) 0.6917(4) 0.4539(3)
H25 H 0.4381 0.7230 0.4035
O1A O 0.0627(3) 1.2024(3) 0.40413(18)
O2A O -0.0986(4) 1.2834(3) 0.3091(2)
C2A C -0.0169(5) 1.2960(4) 0.3546(3)
C3A C -0.0052(4) 1.4215(4) 0.3564(3)
C4A C -0.0957(5) 1.5310(4) 0.3099(3)
H2A H -0.1581 1.5246 0.2750
C5A C -0.0920(6) 1.6489(5) 0.3161(3)
H3A H -0.1560 1.7232 0.2874
C6A C 0.0920(4) 1.4311(4) 0.4055(3)
H4A H 0.1523 1.3584 0.4368
O5A O 0.8096(3) 1.1081(3) 0.56006(16)
Zn2A Zn 0.02903(5) 1.05188(4) 0.39313(3)
Zn2_2 Zn -0.02903(5) 0.94812(4) 0.60687(3)
Zn2A_2 Zn 1.02903(5) 1.05188(4) 1.39313(3)
Zn2A_3 Zn 1.02903(5) 1.05188(4) 0.39313(3)
O6A O 0.8329(3) 1.0845(3) 0.43040(16)
O6_2 O 1.1671(3) 0.9155(3) 0.56960(16)
O6A_2 O -0.1671(3) 1.0845(3) 0.43040(16)
N2A N 1.0652(3) 0.9504(3) 1.16078(18)
C12A C 1.0317(4) 0.9774(4) 1.0784(2)
C13A C 0.8929(4) 1.0689(4) 1.0559(2)
H8A H 0.8223 1.1141 1.0935
N4A N 1.0684(4) 0.9761(3) 1.28737(18)
N4A_2 N 0.0684(4) 0.9761(3) 0.28737(18)
C15A C 1.1378(4) 0.9088(4) 1.0237(2)
H9A H 1.2296 0.8478 1.0402
C16A C 1.0142(4) 1.0351(4) 1.2184(2)
H10A H 0.9496 1.1233 1.2108
C18A C 0.6144(4) 1.2523(4) 0.4814(2)
C19A C 0.7623(4) 1.1415(4) 0.4911(3)
O10A O 0.1971(3) 1.5612(3) 0.4562(2)
C26A C 0.5601(5) 1.3016(4) 0.4063(3)
H15A H 0.6176 1.2663 0.3620
C27A C 1.1606(4) 0.8474(4) 1.2725(2)
H16A H 1.2155 0.7826 1.3100
C30A C 1.1585(4) 0.8305(4) 1.1950(2)
H18A H 1.2100 0.7532 1.1697
C31A C 0.3363(5) 1.4547(4) 0.4628(3)
C33A C 0.4213(5) 1.4023(4) 0.3973(3)
H20A H 0.3857 1.4346 0.3472
C34A C 0.0996(5) 1.5477(4) 0.4081(3)
C37A C 0.3872(5) 1.4106(5) 0.5375(3)
H23A H 0.3298 1.4482 0.5814
C38A C 0.0057(5) 1.6578(4) 0.3645(3)
H24A H 0.0085 1.7373 0.3678
C39A C 0.5268(5) 1.3083(4) 0.5461(3)
H25A H 0.5619 1.2770 0.5965
loop_
_geom_bond_atom_site_label_1
_geom_bond_atom_site_label_2
_geom_bond_site_symmetry_1
_geom_bond_site_symmetry_2
C1 H1 1_555 1_555
O1 C2 1_555 1_555
O2 C2 1_555 1_555
C2 C3 1_555 1_555
C3 C4 1_555 1_555
C4 H2 1_555 1_555
C5 C4 1_555 1_555
H3 C5 1_555 1_555
C6 C3 1_555 1_555
H4 C6 1_555 1_555
O3 C7 1_555 1_555
O4 C7 1_555 1_555
C7 C8 1_555 1_555
C8 C9 1_555 1_555
C9 H5 1_555 1_555
C10 C9 1_555 1_555
H6 C10 1_555 1_555
C11 C8 1_555 1_555
H7 C11 1_555 1_555
O5 C19 1_555 1_555
Zn1 O3 1_555 1_555
Zn2 O1 1_555 1_555
O6 C19 1_555 1_555
O7 C21 1_555 1_555
N1 Zn1 1_555 1_555
O8 C17 1_555 1_555
N2 C12 1_555 1_555
C12 C13 1_555 1_555
C13 H8 1_555 1_555
N3 C14 1_555 1_555
N4 Zn2 1_555 1_555
C14 C1 1_555 1_555
C15 C12 1_555 1_555
H9 C15 1_555 1_555
C16 N2 1_555 1_555
H10 C16 1_555 1_555
C17 C10 1_555 1_555
C18 C19 1_555 1_555
C20 N1 1_555 1_555
H11 C20 1_555 1_555
C21 C23 1_555 1_555
C22 C1 1_555 1_555
H12 C22 1_555 1_555
C23 C28 1_555 1_555
O9 C21 1_555 1_555
C24 N3 1_555 1_555
H13 C24 1_555 1_555
O10 C31 1_555 1_555
C25 N1 1_555 1_555
H14 C25 1_555 1_555
C26 C18 1_555 1_555
H15 C26 1_555 1_555
C27 N4 1_555 1_555
H16 C27 1_555 1_555
C28 H17 1_555 1_555
C29 O8 1_555 1_555
C30 N2 1_555 1_555
H18 C30 1_555 1_555
C31 C33 1_555 1_555
C32 C11 1_555 1_555
H19 C32 1_555 1_555
C33 C26 1_555 1_555
H20 C33 1_555 1_555
C34 C6 1_555 1_555
C35 C29 1_555 1_555
H21 C35 1_555 1_555
C36 C23 1_555 1_555
H22 C36 1_555 1_555
C37 C31 1_555 1_555
H23 C37 1_555 1_555
C38 C5 1_555 1_555
H24 C38 1_555 1_555
C39 C18 1_555 1_555
H25 C39 1_555 1_555
C40 C35 1_555 1_555
H26 C40 1_555 1_555
C1A H1A 1_555 1_555
O1A C2A 1_555 1_555
O2A C2A 1_555 1_555
C2A C3A 1_555 1_555
C3A C4A 1_555 1_555
C4A H2A 1_555 1_555
C5A C4A 1_555 1_555
H3A C5A 1_555 1_555
C6A C3A 1_555 1_555
H4A C6A 1_555 1_555
O3A C7A 1_555 1_555
O4A Zn1 1_555 1_555
O4_2 Zn1A_2 1_555 1_555
O4A_2 C7A 1_555 1_555
C7A C8A 1_555 1_555
C8A C9A 1_555 1_555
C9A H5A 1_555 1_555
C10A C9A 1_555 1_555
H6A C10A 1_555 1_555
C11A C8A 1_555 1_555
H7A C11A 1_555 1_555
O5A Zn2 1_555 1_555
Zn1A O4 1_555 1_555
Zn1A_2 O7 1_555 1_555
Zn1A_3 N1A 1_555 1_555
Zn1_2 O4A_2 1_555 1_555
Zn2A O5 1_555 1_555
Zn2_2 O6 1_555 1_555
Zn2A_2 N4A 1_555 1_555
Zn2A_3 O6A 1_555 1_555
O6A C19A 1_555 1_555
O6_2 Zn2 1_555 1_555
O6A_2 Zn2A 1_555 1_555
O7A Zn1 1_555 1_555
N1A C20A 1_555 1_555
N1A_2 Zn1A_2 1_555 1_555
O8A C17A 1_555 1_555
N2A C12A 1_555 1_555
C12A C13A 1_555 1_555
C13A C15 1_555 1_555
H8A C13A 1_555 1_555
N3A C14A 1_555 1_555
N4A C16A 1_555 1_555
N4A_2 Zn2A 1_555 1_555
C14A C22 1_555 1_555
C15A C13 1_555 1_555
H9A C15A 1_555 1_555
C16A N2A 1_555 1_555
H10A C16A 1_555 1_555
C17A C10A 1_555 1_555
C18A C19A 1_555 1_555
C19A O5A 1_555 1_555
C20A N3A 1_555 1_555
H11A C20A 1_555 1_555
C21A O7A 1_555 1_555
C22A C14 1_555 1_555
H12A C22A 1_555 1_555
C23A C21A 1_555 1_555
O9A C21A 1_555 1_555
C24A N3A 1_555 1_555
H13A C24A 1_555 1_555
O10A C31A 1_555 1_555
C25A N1A 1_555 1_555
H14A C25A 1_555 1_555
C26A C18A 1_555 1_555
H15A C26A 1_555 1_555
C27A N4A 1_555 1_555
H16A C27A 1_555 1_555
C28A C23A 1_555 1_555
H17A C28A 1_555 1_555
C29A O8A 1_555 1_555
C30A N2A 1_555 1_555
H18A C30A 1_555 1_555
C31A C33A 1_555 1_555
C32A C11A 1_555 1_555
H19A C32A 1_555 1_555
C33A C26A 1_555 1_555
H20A C33A 1_555 1_555
C34A C6A 1_555 1_555
C35A C29A 1_555 1_555
H21A C35A 1_555 1_555
C36A C23A 1_555 1_555
H22A C36A 1_555 1_555
C37A C31A 1_555 1_555
H23A C37A 1_555 1_555
C38A C5A 1_555 1_555
H24A C38A 1_555 1_555
C39A C18A 1_555 1_555
H25A C39A 1_555 1_555
C40A C35A 1_555 1_555
H26A C40A 1_555 1_555
N3 C20 1_555 1_555
N4 C16 1_555 1_555
C17 C32 1_555 1_555
C24 C25 1_555 1_555
O10 C34 1_555 1_555
C27 C30 1_555 1_555
C28 C29 1_555 1_555
C34 C38 1_555 1_555
C36 C40 1_555 1_555
C37 C39 1_555 1_555
C1A C14A 1_555 1_555
C1A C22A 1_555 1_555
O1A Zn2A 1_555 1_555
O3A Zn1A_2 1_555 1_555
C12A C15A 1_555 1_555
C17A C32A 1_555 1_555
C24A C25A 1_555 1_555
O10A C34A 1_555 1_555
C27A C30A 1_555 1_555
C28A C29A 1_555 1_555
C34A C38A 1_555 1_555
C36A C40A 1_555 1_555
C37A C39A 1_555 1_555

#END
