
#######################################################################
#
#                 Cambridge Crystallographic Data Centre
#                                CCDC 
#
#######################################################################
#
# If this CIF has been generated from an entry in the Cambridge 
# Structural Database, then it will include bibliographic, chemical, 
# crystal, experimental, refinement or atomic coordinate data resulting 
# from the CCDC's data processing and validation procedures.
#
#######################################################################

data_YEGWEO
_symmetry_cell_setting           monoclinic
_symmetry_space_group_name_H-M   'C 2/c'
_symmetry_Int_Tables_number      15
_space_group_name_Hall           '-C 2yn'
loop_
_symmetry_equiv_pos_site_id
_symmetry_equiv_pos_as_xyz
1 x,y,z
2 -x,y,1/2-z
3 1/2+x,1/2+y,z
4 1/2-x,1/2+y,1/2-z
5 -x,-y,-z
6 x,-y,1/2+z
7 1/2-x,1/2-y,-z
8 1/2+x,1/2-y,1/2+z
_cell_length_a                   19.756(4)
_cell_length_b                   9.754(2)
_cell_length_c                   11.908(2)
_cell_angle_alpha                90
_cell_angle_beta                 97.09(3)
_cell_angle_gamma                90
_cell_volume                     2277.13
loop_
_atom_site_label
_atom_site_type_symbol
_atom_site_fract_x
_atom_site_fract_y
_atom_site_fract_z
N1 N 0.61302(19) 0.4696(4) 0.5278(3)
C1 C 0.6481(2) 0.4112(5) 0.4550(4)
H1 H 0.6307 0.3452 0.4029
N2 N 0.71284(19) 0.4589(4) 0.4647(3)
C2 C 0.6571(2) 0.5588(5) 0.5886(4)
H2 H 0.6461 0.6145 0.6471
C3 C 0.7186(2) 0.5538(5) 0.5513(4)
H3 H 0.7571 0.6041 0.5784
C4 C 0.7639(2) 0.4208(5) 0.3972(4)
C5 C 0.8153(2) 0.5116(5) 0.3813(4)
H4 H 0.8166 0.5972 0.4159
Zn1 Zn 1.0000 0.0000 0.0000
S1 S 1.0000 0.19075(14) -0.2500
N3 N 0.91060(19) 0.3156(4) 0.1887(3)
C6 C 0.8102(2) 0.2595(5) 0.2771(4)
H5 H 0.8083 0.1748 0.2410
C7 C 0.8617(2) 0.3503(4) 0.2622(4)
N4 N 0.9723(2) 0.1905(4) 0.0872(3)
C8 C 0.9322(2) 0.1888(5) 0.1668(4)
H6 H 0.9202 0.1100 0.2035
C9 C 0.7613(2) 0.2939(5) 0.3457(4)
H7 H 0.7270 0.2321 0.3570
C10 C 0.9395(3) 0.4038(5) 0.1184(4)
H8 H 0.9344 0.4985 0.1142
C11 C 0.8648(2) 0.4761(5) 0.3142(4)
H9 H 0.8998 0.5369 0.3043
C12 C 0.9767(3) 0.3246(5) 0.0566(4)
H10 H 1.0019 0.3568 0.0011
O1 O 1.0599(2) 0.2736(4) -0.2185(4)
O2 O 0.9898(2) 0.1012(5) -0.1561(3)
N1C N 0.88698(19) -0.0304(4) -0.0278(3)
N1G N 1.11302(19) 0.0304(4) 0.0278(3)
C1C C 0.8519(2) -0.0888(5) 0.0450(4)
H1C H 0.8693 -0.1548 0.0971
N2C N 0.78716(19) -0.0411(4) 0.0353(3)
C2C C 0.8429(2) 0.0588(5) -0.0886(4)
H2C H 0.8539 0.1145 -0.1471
C3C C 0.7814(2) 0.0538(5) -0.0513(4)
H3C H 0.7429 0.1041 -0.0784
C4C C 0.7361(2) -0.0792(5) 0.1028(4)
C5C C 0.6847(2) 0.0116(5) 0.1187(4)
H4C H 0.6834 0.0972 0.0841
Zn1C Zn 0.5000 -0.5000 0.5000
Zn1C_2 Zn 0.5000 0.5000 0.5000
Zn1A Zn 1.0000 0.0000 -0.5000
N3C N 0.58940(19) -0.1844(4) 0.3113(3)
C6C C 0.6898(2) -0.2405(5) 0.2229(4)
H5C H 0.6917 -0.3252 0.2590
C7C C 0.6383(2) -0.1497(4) 0.2378(4)
N4C N 0.5277(2) -0.3095(4) 0.4128(3)
N4D N 1.0277(2) -0.1905(4) -0.0872(3)
C8C C 0.5678(2) -0.3112(5) 0.3332(4)
H6C H 0.5798 -0.3900 0.2965
C9C C 0.7387(2) -0.2061(5) 0.1543(4)
H7C H 0.7730 -0.2679 0.1430
C10C C 0.5605(3) -0.0962(5) 0.3816(4)
H8C H 0.5656 -0.0015 0.3858
C11C C 0.6352(2) -0.0239(5) 0.1858(4)
H9C H 0.6002 0.0369 0.1957
C12C C 0.5233(3) -0.1754(5) 0.4434(4)
H10C H 0.4981 -0.1432 0.4989
O1A O 0.9401(2) 0.2736(4) -0.2815(4)
O2A O 1.0102(2) 0.1012(5) -0.3439(3)
O2D O 1.0102(2) -0.1012(5) 0.1561(3)
loop_
_geom_bond_atom_site_label_1
_geom_bond_atom_site_label_2
_geom_bond_site_symmetry_1
_geom_bond_site_symmetry_2
N1 C1 1_555 1_555
C1 H1 1_555 1_555
N2 C1 1_555 1_555
C2 N1 1_555 1_555
H2 C2 1_555 1_555
C3 N2 1_555 1_555
H3 C3 1_555 1_555
C4 N2 1_555 1_555
C5 C4 1_555 1_555
H4 C5 1_555 1_555
Zn1 N4 1_555 1_555
S1 O1 1_555 1_555
N3 C7 1_555 1_555
C6 H5 1_555 1_555
C7 C6 1_555 1_555
N4 C8 1_555 1_555
C8 N3 1_555 1_555
H6 C8 1_555 1_555
C9 C4 1_555 1_555
H7 C9 1_555 1_555
C10 N3 1_555 1_555
H8 C10 1_555 1_555
C11 C5 1_555 1_555
H9 C11 1_555 1_555
C12 N4 1_555 1_555
H10 C12 1_555 1_555
O2 Zn1 1_555 1_555
N1C Zn1 1_555 1_555
N1G Zn1 1_555 1_555
C1C N1C 1_555 1_555
H1C C1C 1_555 1_555
N2C C1C 1_555 1_555
C2C N1C 1_555 1_555
H2C C2C 1_555 1_555
C3C N2C 1_555 1_555
H3C C3C 1_555 1_555
C4C N2C 1_555 1_555
C5C C4C 1_555 1_555
H4C C5C 1_555 1_555
Zn1C N4C 1_555 1_555
Zn1C_2 N1 1_555 1_555
Zn1A O2A 1_555 1_555
N3C C7C 1_555 1_555
C6C H5C 1_555 1_555
C7C C6C 1_555 1_555
N4C C8C 1_555 1_555
N4D Zn1 1_555 1_555
C8C N3C 1_555 1_555
H6C C8C 1_555 1_555
C9C C4C 1_555 1_555
H7C C9C 1_555 1_555
C10C N3C 1_555 1_555
H8C C10C 1_555 1_555
C11C C5C 1_555 1_555
H9C C11C 1_555 1_555
C12C N4C 1_555 1_555
H10C C12C 1_555 1_555
O1A S1 1_555 1_555
O2A S1 1_555 1_555
O2D Zn1 1_555 1_555
C2 C3 1_555 1_555
S1 O2 1_555 1_555
C6 C9 1_555 1_555
C7 C11 1_555 1_555
C10 C12 1_555 1_555
C2C C3C 1_555 1_555
C6C C9C 1_555 1_555
C7C C11C 1_555 1_555
C10C C12C 1_555 1_555

#END
