
#######################################################################
#
#                 Cambridge Crystallographic Data Centre
#                                CCDC 
#
#######################################################################
#
# If this CIF has been generated from an entry in the Cambridge 
# Structural Database, then it will include bibliographic, chemical, 
# crystal, experimental, refinement or atomic coordinate data resulting 
# from the CCDC's data processing and validation procedures.
#
#######################################################################

data_YEGXUF
_symmetry_cell_setting           monoclinic
_symmetry_space_group_name_H-M   'P 21/n'
_symmetry_Int_Tables_number      14
_space_group_name_Hall           '-P 2yn'
loop_
_symmetry_equiv_pos_site_id
_symmetry_equiv_pos_as_xyz
1 x,y,z
2 1/2-x,1/2+y,1/2-z
3 -x,-y,-z
4 1/2+x,1/2-y,1/2+z
_cell_length_a                   7.5417(15)
_cell_length_b                   9.0526(18)
_cell_length_c                   13.336(3)
_cell_angle_alpha                90
_cell_angle_beta                 95.06(3)
_cell_angle_gamma                90
_cell_volume                     906.927
loop_
_atom_site_label
_atom_site_type_symbol
_atom_site_fract_x
_atom_site_fract_y
_atom_site_fract_z
Co1 Co 0.0000 1.0000 1.0000
O1 O -0.0015(6) 0.6964(5) 0.8192(3)
O2 O 0.4476(5) 0.5460(5) 0.7539(3)
O3 O 0.3074(5) 0.4872(5) 0.6046(3)
O4 O -0.1956(5) 0.9126(5) 0.8960(3)
N1 N 0.1042(6) 0.7799(6) 1.0437(3)
N2 N 0.2744(6) 0.6205(6) 1.1362(4)
H1 H 0.3368 0.5827 1.1889
N3 N 0.3088(6) 0.4261(6) 1.0143(4)
N4 N 0.1640(6) 0.4869(6) 0.8545(3)
C1 C 0.1889(7) 0.7525(7) 1.1319(4)
H2 H 0.1902 0.8186 1.1873
C2 C 0.2453(7) 0.5580(7) 1.0435(4)
C3 C 0.1395(6) 0.6556(6) 0.9859(4)
C4 C 0.0908(7) 0.6229(6) 0.8821(4)
C5 C 0.2646(7) 0.3991(7) 0.9200(4)
H3 H 0.3065 0.3092 0.8940
C6 C 0.1517(7) 0.4503(7) 0.7472(4)
H4 H 0.0454 0.4986 0.7128
H5 H 0.1375 0.3421 0.7388
C7 C 0.3194(7) 0.5013(6) 0.6987(4)
H6 H -0.145(8) 0.839(5) 0.873(5)
H8 H -0.296(4) 0.900(8) 0.918(5)
Co1A Co -0.5000 1.5000 1.5000
Co1A_2 Co 0.5000 0.5000 0.5000
O1B O 0.0015(6) 1.3036(5) 1.1808(3)
O2B O -0.4476(5) 1.4540(5) 1.2461(3)
O3B O -0.3074(5) 1.5128(5) 1.3954(3)
O3A O 0.1926(5) 0.9872(5) 0.8954(3)
O3C O -0.1926(5) 1.0128(5) 1.1046(3)
O4B O 0.1956(5) 1.0874(5) 1.1040(3)
N1B N -0.1042(6) 1.2201(6) 0.9563(3)
N2B N -0.2744(6) 1.3795(6) 0.8638(4)
H1B H -0.3368 1.4173 0.8111
N3B N -0.3088(6) 1.5739(6) 0.9857(4)
N4B N -0.1640(6) 1.5131(6) 1.1455(3)
C1B C -0.1889(7) 1.2475(7) 0.8681(4)
H2B H -0.1902 1.1814 0.8127
C2B C -0.2453(7) 1.4420(7) 0.9565(4)
C3B C -0.1395(6) 1.3444(6) 1.0141(4)
C4B C -0.0908(7) 1.3771(6) 1.1179(4)
C5B C -0.2646(7) 1.6009(7) 1.0800(4)
H3B H -0.3065 1.6908 1.1060
C6B C -0.1517(7) 1.5497(7) 1.2528(4)
H4B H -0.0454 1.5014 1.2872
H5B H -0.1375 1.6579 1.2612
C7B C -0.3194(7) 1.4987(6) 1.3013(4)
H6B H 0.145(8) 1.161(5) 1.127(5)
H8B H 0.296(4) 1.100(8) 1.082(5)
O5 O 0.5002(6) 0.1567(6) 1.0230(4)
H7 H 0.596(5) 0.144(4) 1.058(4)
H9 H 0.463(6) 0.244(3) 1.030(5)
loop_
_geom_bond_atom_site_label_1
_geom_bond_atom_site_label_2
_geom_bond_site_symmetry_1
_geom_bond_site_symmetry_2
Co1 O4 1_555 1_555
O1 C4 1_555 1_555
O2 C7 1_555 1_555
O3 C7 1_555 1_555
O4 H6 1_555 1_555
O5 H7 1_555 1_555
N1 Co1 1_555 1_555
N2 H1 1_555 1_555
N3 C2 1_555 1_555
N4 C4 1_555 1_555
C1 N1 1_555 1_555
H2 C1 1_555 1_555
C2 N2 1_555 1_555
C3 N1 1_555 1_555
C4 C3 1_555 1_555
C5 N3 1_555 1_555
H3 C5 1_555 1_555
C6 N4 1_555 1_555
H4 C6 1_555 1_555
H5 C6 1_555 1_555
C7 C6 1_555 1_555
H8 O4 1_555 1_555
H9 O5 1_555 1_555
Co1A O3B 1_555 1_555
Co1A_2 O3 1_555 1_555
O1B C4B 1_555 1_555
O2B C7B 1_555 1_555
O3B C7B 1_555 1_555
O3A Co1 1_555 1_555
O3C Co1 1_555 1_555
O4B Co1 1_555 1_555
N1B Co1 1_555 1_555
N2B H1B 1_555 1_555
N3B C2B 1_555 1_555
N4B C4B 1_555 1_555
C1B N1B 1_555 1_555
H2B C1B 1_555 1_555
C2B N2B 1_555 1_555
C3B N1B 1_555 1_555
C4B C3B 1_555 1_555
C5B N3B 1_555 1_555
H3B C5B 1_555 1_555
C6B N4B 1_555 1_555
H4B C6B 1_555 1_555
H5B C6B 1_555 1_555
C7B C6B 1_555 1_555
H6B O4B 1_555 1_555
H8B O4B 1_555 1_555
N2 C1 1_555 1_555
N4 C5 1_555 1_555
C2 C3 1_555 1_555
N2B C1B 1_555 1_555
N4B C5B 1_555 1_555
C2B C3B 1_555 1_555

#END
