
#######################################################################
#
#                 Cambridge Crystallographic Data Centre
#                                CCDC 
#
#######################################################################
#
# If this CIF has been generated from an entry in the Cambridge 
# Structural Database, then it will include bibliographic, chemical, 
# crystal, experimental, refinement or atomic coordinate data resulting 
# from the CCDC's data processing and validation procedures.
#
#######################################################################

data_YEGXOZ
_symmetry_cell_setting           monoclinic
_symmetry_space_group_name_H-M   'P 21/c'
_symmetry_Int_Tables_number      14
_space_group_name_Hall           '-P 2ybc'
loop_
_symmetry_equiv_pos_site_id
_symmetry_equiv_pos_as_xyz
1 x,y,z
2 -x,1/2+y,1/2-z
3 -x,-y,-z
4 x,1/2-y,1/2+z
_cell_length_a                   7.7510(2)
_cell_length_b                   21.9450(6)
_cell_length_c                   9.7380(3)
_cell_angle_alpha                90
_cell_angle_beta                 105.113(3)
_cell_angle_gamma                90
_cell_volume                     1599.1
loop_
_atom_site_label
_atom_site_type_symbol
_atom_site_fract_x
_atom_site_fract_y
_atom_site_fract_z
Mn1 Mn 0.42928(5) 0.067260(16) -0.07484(4)
C1 C 0.5900(3) 0.28631(12) 0.1708(3)
H1 H 0.5442 0.3192 0.2102
C2 C 0.7684(4) 0.28099(13) 0.1906(3)
H2 H 0.8461 0.3106 0.2402
C3 C 0.8332(3) 0.22966(12) 0.1345(3)
H3 H 0.9560 0.2250 0.1501
C4 C 0.7230(3) 0.18623(11) 0.0576(2)
C5 C 0.5332(3) 0.19455(10) 0.0294(2)
C6 C 0.8055(3) 0.13033(12) 0.0099(3)
C7 C 0.2830(3) 0.24931(12) 0.0798(3)
H4 H 0.2639 0.2771 0.1520
H5 H 0.2368 0.2097 0.0968
C8 C 0.1800(3) 0.27211(12) -0.0658(3)
H6 H 0.0531 0.2680 -0.0742
H7 H 0.2086 0.2465 -0.1381
C9 C 0.2201(3) 0.33811(12) -0.0942(3)
H8 H 0.3443 0.3470 -0.0482
H9 H 0.2015 0.3442 -0.1957
C10 C 0.1016(3) 0.38104(11) -0.0394(3)
H10 H -0.0174 0.3805 -0.1035
H11 H 0.0929 0.3672 0.0531
C11 C 0.1332(4) 0.48014(13) -0.1439(3)
H12 H 0.0617 0.4650 -0.2290
C12 C 0.1966(4) 0.53724(13) -0.1398(3)
H13 H 0.1740 0.5612 -0.2213
C13 C 0.2977(4) 0.55953(12) -0.0089(3)
H14 H 0.3391 0.5995 -0.0037
C14 C 0.3376(3) 0.52486(11) 0.1114(2)
C15 C 0.2816(3) 0.46219(11) 0.1031(3)
C16 C 0.4357(3) 0.55533(11) 0.2496(3)
O1 O 0.9711(2) 0.12757(10) 0.0446(3)
O2 O 0.7062(2) 0.08949(8) -0.0600(2)
O3 O 0.1626(2) 0.04083(9) -0.0470(2)
O4 O 0.4143(2) 0.16190(7) -0.04823(18)
O5 O 0.4756(3) 0.60889(9) 0.2451(2)
O6 O 0.4694(2) 0.52415(7) 0.36405(17)
O7 O 0.3220(3) 0.42281(8) 0.19931(18)
N1 N 0.4765(3) 0.24410(9) 0.0936(2)
N2 N 0.1710(3) 0.44408(9) -0.0269(2)
Mn1A Mn 0.57072(5) 0.567260(16) 0.57484(4)
Mn1C Mn 0.42928(5) 0.432740(16) 0.42516(4)
O6A O 0.5306(2) 0.02415(7) 0.13595(17)
O6C O 0.4694(2) -0.02415(7) -0.13595(17)
O7C O 0.3220(3) 0.07719(8) -0.30069(18)
loop_
_geom_bond_atom_site_label_1
_geom_bond_atom_site_label_2
_geom_bond_site_symmetry_1
_geom_bond_site_symmetry_2
Mn1 O2 1_555 1_555
C1 H1 1_555 1_555
C2 C1 1_555 1_555
H2 C2 1_555 1_555
C3 C2 1_555 1_555
H3 C3 1_555 1_555
C4 C3 1_555 1_555
C5 C4 1_555 1_555
C6 C4 1_555 1_555
C7 H4 1_555 1_555
H5 C7 1_555 1_555
C8 C7 1_555 1_555
H6 C8 1_555 1_555
H7 C8 1_555 1_555
C9 C8 1_555 1_555
H8 C9 1_555 1_555
H9 C9 1_555 1_555
C10 C9 1_555 1_555
H10 C10 1_555 1_555
H11 C10 1_555 1_555
C11 H12 1_555 1_555
C12 C11 1_555 1_555
H13 C12 1_555 1_555
C13 C12 1_555 1_555
H14 C13 1_555 1_555
C14 C13 1_555 1_555
C15 C14 1_555 1_555
C16 C14 1_555 1_555
O1 C6 1_555 1_555
O2 C6 1_555 1_555
O3 Mn1 1_555 1_555
O4 Mn1 1_555 1_555
O5 C16 1_555 1_555
O6 C16 1_555 1_555
O7 C15 1_555 1_555
N1 C1 1_555 1_555
N2 C10 1_555 1_555
Mn1A O6 1_555 1_555
Mn1C O6 1_555 1_555
O6A Mn1 1_555 1_555
O6C Mn1 1_555 1_555
O7C Mn1 1_555 1_555
C5 O4 1_555 1_555
C5 N1 1_555 1_555
C7 N1 1_555 1_555
C11 N2 1_555 1_555
C15 N2 1_555 1_555
O7 Mn1C 1_555 1_555

#END
