
#######################################################################
#
#                 Cambridge Crystallographic Data Centre
#                                CCDC 
#
#######################################################################
#
# If this CIF has been generated from an entry in the Cambridge 
# Structural Database, then it will include bibliographic, chemical, 
# crystal, experimental, refinement or atomic coordinate data resulting 
# from the CCDC's data processing and validation procedures.
#
#######################################################################

data_YEGXIT
_symmetry_cell_setting           monoclinic
_symmetry_space_group_name_H-M   'P 21/c'
_symmetry_Int_Tables_number      14
_space_group_name_Hall           '-P 2ybc'
loop_
_symmetry_equiv_pos_site_id
_symmetry_equiv_pos_as_xyz
1 x,y,z
2 -x,1/2+y,1/2-z
3 -x,-y,-z
4 x,1/2-y,1/2+z
_cell_length_a                   7.7450(3)
_cell_length_b                   21.3690(7)
_cell_length_c                   9.7730(4)
_cell_angle_alpha                90
_cell_angle_beta                 105.887(4)
_cell_angle_gamma                90
_cell_volume                     1555.68
loop_
_atom_site_label
_atom_site_type_symbol
_atom_site_fract_x
_atom_site_fract_y
_atom_site_fract_z
Ni1 Ni 0.92960(5) 0.062342(16) -0.08068(4)
C1 C 0.7882(4) 0.03829(14) -0.3884(3)
C2 C 0.8491(4) -0.02485(13) -0.3810(3)
C3 C 0.8088(5) -0.06016(14) -0.5025(3)
H1 H 0.8542 -0.1006 -0.4983
C4 C 0.7026(5) -0.03797(16) -0.6319(3)
H2 H 0.6790 -0.0626 -0.7134
C5 C 0.6352(5) 0.02002(15) -0.6357(3)
H3 H 0.5615 0.0354 -0.7208
C6 C 0.9554(4) -0.05615(13) -0.2447(3)
C7 C 0.5975(4) 0.12065(14) -0.5292(3)
H4 H 0.5950 0.1350 -0.4356
H5 H 0.4749 0.1198 -0.5892
C8 C 0.7052(5) 0.16581(14) -0.5904(4)
H6 H 0.6794 0.1591 -0.6922
H7 H 0.8321 0.1582 -0.5484
C9 C 0.6613(4) 0.23354(14) -0.5621(3)
H8 H 0.6856 0.2601 -0.6352
H9 H 0.5342 0.2366 -0.5693
C10 C 0.7671(4) 0.25771(15) -0.4174(3)
H10 H 0.7221 0.2987 -0.4020
H11 H 0.7485 0.2299 -0.3443
C11 C 1.0172(4) 0.31289(13) -0.4681(3)
C12 C 1.2077(4) 0.31998(14) -0.4451(3)
C13 C 1.3177(4) 0.27487(15) -0.3680(3)
H12 H 1.4410 0.2790 -0.3534
C14 C 1.2538(4) 0.22309(16) -0.3105(4)
H13 H 1.3321 0.1925 -0.2614
C15 C 1.0752(4) 0.21843(15) -0.3278(3)
H14 H 1.0297 0.1850 -0.2876
C16 C 1.2897(4) 0.37537(14) -0.5007(3)
O1 O 0.8272(3) 0.07899(9) -0.2916(2)
O2 O 0.9693(3) -0.02849(9) -0.12566(19)
O3 O 0.6727(3) 0.03719(10) -0.0632(2)
O4 O 1.0189(4) -0.10789(11) -0.2537(3)
O5 O 0.8958(3) 0.34726(9) -0.5435(2)
O6 O 1.1898(3) 0.41678(10) -0.5746(2)
O7 O 1.4564(3) 0.37690(12) -0.4706(3)
N1 N 0.6723(4) 0.05692(11) -0.5176(3)
N2 N 0.9614(3) 0.26227(11) -0.4037(3)
Ni1B Ni 1.07040(5) -0.062342(16) 0.08068(4)
Ni1C Ni 0.92960(5) 0.437658(16) -0.58068(4)
O2B O 1.0307(3) 0.02849(9) 0.12566(19)
O5C O 0.8958(3) 0.15274(9) -0.0435(2)
O6C O 1.1898(3) 0.08322(10) -0.0746(2)
loop_
_geom_bond_atom_site_label_1
_geom_bond_atom_site_label_2
_geom_bond_site_symmetry_1
_geom_bond_site_symmetry_2
Ni1 O1 1_555 1_555
C1 C2 1_555 1_555
C2 C3 1_555 1_555
C3 H1 1_555 1_555
C4 C3 1_555 1_555
H2 C4 1_555 1_555
C5 C4 1_555 1_555
H3 C5 1_555 1_555
C6 C2 1_555 1_555
C7 H4 1_555 1_555
H5 C7 1_555 1_555
C8 C7 1_555 1_555
H6 C8 1_555 1_555
H7 C8 1_555 1_555
C9 C8 1_555 1_555
H8 C9 1_555 1_555
H9 C9 1_555 1_555
C10 C9 1_555 1_555
H10 C10 1_555 1_555
H11 C10 1_555 1_555
C11 C12 1_555 1_555
C12 C13 1_555 1_555
C13 H12 1_555 1_555
C14 C13 1_555 1_555
H13 C14 1_555 1_555
C15 C14 1_555 1_555
H14 C15 1_555 1_555
C16 C12 1_555 1_555
O1 C1 1_555 1_555
O2 Ni1 1_555 1_555
O3 Ni1 1_555 1_555
O4 C6 1_555 1_555
O5 C11 1_555 1_555
O6 C16 1_555 1_555
O7 C16 1_555 1_555
N1 C1 1_555 1_555
N2 C10 1_555 1_555
Ni1B O2 1_555 1_555
Ni1C O5 1_555 1_555
O2B Ni1 1_555 1_555
O5C Ni1 1_555 1_555
O6C Ni1 1_555 1_555
C5 N1 1_555 1_555
C6 O2 1_555 1_555
C7 N1 1_555 1_555
C11 N2 1_555 1_555
C15 N2 1_555 1_555
O6 Ni1C 1_555 1_555
Ni1B O2B 1_555 1_555

#END
