
#######################################################################
#
#                 Cambridge Crystallographic Data Centre
#                                CCDC 
#
#######################################################################
#
# If this CIF has been generated from an entry in the Cambridge 
# Structural Database, then it will include bibliographic, chemical, 
# crystal, experimental, refinement or atomic coordinate data resulting 
# from the CCDC's data processing and validation procedures.
#
#######################################################################

data_YEGYAM
_symmetry_cell_setting           monoclinic
_symmetry_space_group_name_H-M   'P 21/n'
_symmetry_Int_Tables_number      14
_space_group_name_Hall           '-P 2yn'
loop_
_symmetry_equiv_pos_site_id
_symmetry_equiv_pos_as_xyz
1 x,y,z
2 1/2-x,1/2+y,1/2-z
3 -x,-y,-z
4 1/2+x,1/2-y,1/2+z
_cell_length_a                   7.4845(15)
_cell_length_b                   8.7900(18)
_cell_length_c                   13.355(3)
_cell_angle_alpha                90
_cell_angle_beta                 95.24(3)
_cell_angle_gamma                90
_cell_volume                     874.937
loop_
_atom_site_label
_atom_site_type_symbol
_atom_site_fract_x
_atom_site_fract_y
_atom_site_fract_z
Ni1 Ni 0.0000 0.0000 1.0000
O1 O -0.0008(4) 0.3001(3) 0.81642(18)
O2 O 0.4529(3) 0.4540(3) 0.75362(19)
O3 O 0.3097(3) 0.5073(3) 0.60322(19)
O4 O 0.1965(3) -0.0873(3) 1.10208(18)
N1 N 0.1030(4) 0.2174(3) 1.0414(2)
N2 N 0.2740(4) 0.3787(3) 1.1334(2)
H1 H 0.3371 0.4188 1.1857
N3 N 0.3073(4) 0.5736(3) 1.0117(2)
N4 N 0.1623(4) 0.5113(3) 0.8520(2)
C1 C 0.1877(5) 0.2445(4) 1.1301(2)
H2 H 0.1879 0.1769 1.1856
C2 C 0.2447(5) 0.4400(4) 1.0404(3)
C3 C 0.1376(4) 0.3408(4) 0.9832(2)
C4 C 0.0904(4) 0.3744(4) 0.8796(2)
C5 C 0.2639(5) 0.6013(4) 0.9174(3)
H3 H 0.3073 0.6935 0.8914
C6 C 0.1526(5) 0.5486(4) 0.7451(3)
H4 H 0.1372 0.6598 0.7364
H5 H 0.0467 0.4979 0.7098
C7 C 0.3223(5) 0.4978(3) 0.6978(3)
H6 H 0.153(5) -0.163(3) 1.128(3)
H8 H 0.283(4) -0.125(5) 1.075(3)
Ni1A Ni -0.5000 -0.5000 1.5000
Ni1A_2 Ni 0.5000 0.5000 0.5000
O1B O 0.0008(4) -0.3001(3) 1.18358(18)
O2B O -0.4529(3) -0.4540(3) 1.24638(19)
O3B O -0.3097(3) -0.5073(3) 1.39678(19)
O3A O 0.1903(3) 0.0073(3) 0.89678(19)
O3C O -0.1903(3) -0.0073(3) 1.10322(19)
O4B O -0.1965(3) 0.0873(3) 0.89792(18)
N1B N -0.1030(4) -0.2174(3) 0.9586(2)
N2B N -0.2740(4) -0.3787(3) 0.8666(2)
H1B H -0.3371 -0.4188 0.8143
N3B N -0.3073(4) -0.5736(3) 0.9883(2)
N4B N -0.1623(4) -0.5113(3) 1.1480(2)
C1B C -0.1877(5) -0.2445(4) 0.8699(2)
H2B H -0.1879 -0.1769 0.8144
C2B C -0.2447(5) -0.4400(4) 0.9596(3)
C3B C -0.1376(4) -0.3408(4) 1.0168(2)
C4B C -0.0904(4) -0.3744(4) 1.1204(2)
C5B C -0.2639(5) -0.6013(4) 1.0826(3)
H3B H -0.3073 -0.6935 1.1086
C6B C -0.1526(5) -0.5486(4) 1.2549(3)
H4B H -0.1372 -0.6598 1.2636
H5B H -0.0467 -0.4979 1.2902
C7B C -0.3223(5) -0.4978(3) 1.3022(3)
H6B H -0.153(5) 0.163(3) 0.872(3)
H8B H -0.283(4) 0.125(5) 0.925(3)
O5 O 0.4994(4) 0.8456(5) 1.0194(3)
H7 H 0.480(3) 0.7507(15) 1.015(3)
H9 H 0.605(2) 0.865(3) 1.041(3)
loop_
_geom_bond_atom_site_label_1
_geom_bond_atom_site_label_2
_geom_bond_site_symmetry_1
_geom_bond_site_symmetry_2
Ni1 O4 1_555 1_555
O1 C4 1_555 1_555
O2 C7 1_555 1_555
O3 C7 1_555 1_555
O4 H6 1_555 1_555
O5 H7 1_555 1_555
N1 Ni1 1_555 1_555
N2 H1 1_555 1_555
N3 C2 1_555 1_555
N4 C4 1_555 1_555
C1 N1 1_555 1_555
H2 C1 1_555 1_555
C2 N2 1_555 1_555
C3 N1 1_555 1_555
C4 C3 1_555 1_555
C5 N3 1_555 1_555
H3 C5 1_555 1_555
C6 N4 1_555 1_555
H4 C6 1_555 1_555
H5 C6 1_555 1_555
C7 C6 1_555 1_555
H8 O4 1_555 1_555
H9 O5 1_555 1_555
Ni1A O3B 1_555 1_555
Ni1A_2 O3 1_555 1_555
O1B C4B 1_555 1_555
O2B C7B 1_555 1_555
O3B C7B 1_555 1_555
O3A Ni1 1_555 1_555
O3C Ni1 1_555 1_555
O4B Ni1 1_555 1_555
N1B Ni1 1_555 1_555
N2B H1B 1_555 1_555
N3B C2B 1_555 1_555
N4B C4B 1_555 1_555
C1B N1B 1_555 1_555
H2B C1B 1_555 1_555
C2B N2B 1_555 1_555
C3B N1B 1_555 1_555
C4B C3B 1_555 1_555
C5B N3B 1_555 1_555
H3B C5B 1_555 1_555
C6B N4B 1_555 1_555
H4B C6B 1_555 1_555
H5B C6B 1_555 1_555
C7B C6B 1_555 1_555
H6B O4B 1_555 1_555
H8B O4B 1_555 1_555
N2 C1 1_555 1_555
N4 C5 1_555 1_555
C2 C3 1_555 1_555
N2B C1B 1_555 1_555
N4B C5B 1_555 1_555
C2B C3B 1_555 1_555

#END
