
#######################################################################
#
#                 Cambridge Crystallographic Data Centre
#                                CCDC 
#
#######################################################################
#
# If this CIF has been generated from an entry in the Cambridge 
# Structural Database, then it will include bibliographic, chemical, 
# crystal, experimental, refinement or atomic coordinate data resulting 
# from the CCDC's data processing and validation procedures.
#
#######################################################################

data_YEGYIS
_symmetry_cell_setting           monoclinic
_symmetry_space_group_name_H-M   'P 21/c'
_symmetry_Int_Tables_number      14
_space_group_name_Hall           '-P 2ybc'
loop_
_symmetry_equiv_pos_site_id
_symmetry_equiv_pos_as_xyz
1 x,y,z
2 -x,1/2+y,1/2-z
3 -x,-y,-z
4 x,1/2-y,1/2+z
_cell_length_a                   22.620(7)
_cell_length_b                   10.550(4)
_cell_length_c                   9.480(3)
_cell_angle_alpha                90
_cell_angle_beta                 97.00(3)
_cell_angle_gamma                90
_cell_volume                     2245.45
loop_
_atom_site_label
_atom_site_type_symbol
_atom_site_fract_x
_atom_site_fract_y
_atom_site_fract_z
Ag1 Ag 0.3560(1) 0.7607(1) 0.0975(1)
S1 S 0.3283(1) 0.7853(3) 0.3429(3)
C1 C 0.2550(4) 0.8557(9) 0.3248(9)
C2 C 0.2496(4) 0.9914(9) 0.3236(10)
C3 C 0.1923(5) 1.0420(10) 0.3062(10)
C4 C 0.1415(5) 0.9711(10) 0.2913(11)
C5 C 0.1483(5) 0.8407(10) 0.2915(12)
C6 C 0.2024(4) 0.7799(8) 0.3091(9)
C7 C 0.3015(5) 1.0888(10) 0.3380(11)
C8 C 0.2795(6) 1.2264(10) 0.3399(17)
C9 C 0.3365(5) 1.0829(11) 0.2142(10)
C10 C 0.3417(6) 1.0732(12) 0.4814(11)
C11 C 0.0788(5) 1.0340(12) 0.2726(12)
C12 C 0.0296(7) 0.9388(19) 0.2598(26)
C13 C 0.0743(8) 1.1137(21) 0.1381(18)
C14 C 0.0725(9) 1.1118(22) 0.4047(16)
C15 C 0.2011(5) 0.6321(9) 0.3074(10)
C16 C 0.2291(6) 0.5776(11) 0.1848(12)
C17 C 0.2307(6) 0.5767(11) 0.4469(12)
C18 C 0.1378(6) 0.5792(12) 0.2855(17)
N1 N 0.4611(4) 0.8339(10) 0.1492(10)
C19 C 0.4770(7) 0.9134(13) 0.2542(13)
C20 C 0.5296(7) 0.9793(15) 0.2700(17)
C21 C 0.5691(6) 0.9648(16) 0.1728(18)
C22 C 0.5566(6) 0.8816(15) 0.0669(17)
C23 C 0.5012(7) 0.8179(13) 0.0564(15)
S1C S 0.3283(1) 0.7147(3) -0.1571(3)
Ag1C Ag 0.3560(1) 0.7393(1) 0.5975(1)
Ag1C_2 Ag 0.3560(1) 0.7393(1) -0.4025(1)
C1C C 0.2550(4) 0.6443(9) -0.1752(9)
S1C_2 S 0.3283(1) 0.7147(3) 0.8429(3)
N1C N 0.4611(4) 0.6661(10) 0.6492(10)
C2C C 0.2496(4) 0.5086(9) -0.1764(10)
C6C C 0.2024(4) 0.7201(8) -0.1909(9)
C19C C 0.4770(7) 0.5866(13) 0.7542(13)
C23C C 0.5012(7) 0.6821(13) 0.5564(15)
C3C C 0.1923(5) 0.4580(10) -0.1938(10)
C7C C 0.3015(5) 0.4112(10) -0.1620(11)
C5C C 0.1483(5) 0.6593(10) -0.2085(12)
C15C C 0.2011(5) 0.8679(9) -0.1926(10)
C20C C 0.5296(7) 0.5207(15) 0.7700(17)
C22C C 0.5566(6) 0.6184(15) 0.5669(17)
C4C C 0.1415(5) 0.5289(10) -0.2087(11)
C8C C 0.2795(6) 0.2736(10) -0.1601(17)
C9C C 0.3365(5) 0.4171(11) -0.2858(10)
C10C C 0.3417(6) 0.4268(12) -0.0186(11)
C16C C 0.2291(6) 0.9224(11) -0.3152(12)
C17C C 0.2307(6) 0.9233(11) -0.0531(12)
C18C C 0.1378(6) 0.9208(12) -0.2145(17)
C21C C 0.5691(6) 0.5352(16) 0.6728(18)
C11C C 0.0788(5) 0.4660(12) -0.2274(12)
C12C C 0.0296(7) 0.5612(19) -0.2402(26)
C13C C 0.0743(8) 0.3863(21) -0.3619(18)
C14C C 0.0725(9) 0.3882(22) -0.0953(16)
loop_
_geom_bond_atom_site_label_1
_geom_bond_atom_site_label_2
_geom_bond_site_symmetry_1
_geom_bond_site_symmetry_2
Ag1 S1 1_555 1_555
S1 C1 1_555 1_555
C1 C2 1_555 1_555
C2 C3 1_555 1_555
C3 C4 1_555 1_555
C4 C5 1_555 1_555
C5 C6 1_555 1_555
C6 C1 1_555 1_555
C7 C2 1_555 1_555
C8 C7 1_555 1_555
C9 C7 1_555 1_555
C10 C7 1_555 1_555
C11 C4 1_555 1_555
C12 C11 1_555 1_555
C13 C11 1_555 1_555
C14 C11 1_555 1_555
C15 C6 1_555 1_555
C16 C15 1_555 1_555
C17 C15 1_555 1_555
C18 C15 1_555 1_555
N1 Ag1 1_555 1_555
C19 N1 1_555 1_555
C20 C19 1_555 1_555
C21 C20 1_555 1_555
C22 C21 1_555 1_555
C23 N1 1_555 1_555
S1C Ag1 1_555 1_555
Ag1C S1 1_555 1_555
Ag1C_2 S1C 1_555 1_555
C1C S1C 1_555 1_555
S1C_2 Ag1C 1_555 1_555
N1C Ag1C 1_555 1_555
C2C C1C 1_555 1_555
C6C C1C 1_555 1_555
C19C N1C 1_555 1_555
C23C N1C 1_555 1_555
C3C C2C 1_555 1_555
C7C C2C 1_555 1_555
C5C C6C 1_555 1_555
C15C C6C 1_555 1_555
C20C C19C 1_555 1_555
C22C C23C 1_555 1_555
C4C C3C 1_555 1_555
C8C C7C 1_555 1_555
C9C C7C 1_555 1_555
C10C C7C 1_555 1_555
C16C C15C 1_555 1_555
C17C C15C 1_555 1_555
C18C C15C 1_555 1_555
C21C C20C 1_555 1_555
C11C C4C 1_555 1_555
C12C C11C 1_555 1_555
C13C C11C 1_555 1_555
C14C C11C 1_555 1_555
C22 C23 1_555 1_555
C5C C4C 1_555 1_555
C22C C21C 1_555 1_555

#END
