
#######################################################################
#
#                 Cambridge Crystallographic Data Centre
#                                CCDC 
#
#######################################################################
#
# If this CIF has been generated from an entry in the Cambridge 
# Structural Database, then it will include bibliographic, chemical, 
# crystal, experimental, refinement or atomic coordinate data resulting 
# from the CCDC's data processing and validation procedures.
#
#######################################################################

data_YEGZUH
_symmetry_cell_setting           monoclinic
_symmetry_space_group_name_H-M   'P 21/n'
_symmetry_Int_Tables_number      14
_space_group_name_Hall           '-P 2yn'
loop_
_symmetry_equiv_pos_site_id
_symmetry_equiv_pos_as_xyz
1 x,y,z
2 1/2-x,1/2+y,1/2-z
3 -x,-y,-z
4 1/2+x,1/2-y,1/2+z
_cell_length_a                   7.9724(6)
_cell_length_b                   13.7910(4)
_cell_length_c                   10.8841(4)
_cell_angle_alpha                90
_cell_angle_beta                 90.968(4)
_cell_angle_gamma                90
_cell_volume                     1196.51
loop_
_atom_site_label
_atom_site_type_symbol
_atom_site_fract_x
_atom_site_fract_y
_atom_site_fract_z
Cu1 Cu 0.0000 0.5000 0.5000
C1 C 0.1911(3) 0.44838(17) 0.2720(3)
H1 H 0.1158 0.4806 0.2201
C2 C 0.3155(3) 0.3899(2) 0.4266(3)
H2 H 0.3411 0.3748 0.5080
C3 C 0.3910(3) 0.38725(17) 0.1132(3)
H3 H 0.5095 0.4033 0.1140
H4 H 0.3341 0.4313 0.0569
C4 C 0.4723(3) 0.21303(17) 0.0832(3)
H5 H 0.5752 0.2147 0.1246
C5 C 0.2596(3) 0.16897(19) -0.0186(3)
H6 H 0.1853 0.1300 -0.0631
N1 N 0.1801(2) 0.44420(13) 0.3920(2)
N2 N 0.3253(2) 0.39994(13) 0.2353(2)
N3 N 0.4063(3) 0.36094(17) 0.3344(2)
N4 N 0.3686(2) 0.28791(14) 0.0701(2)
N5 N 0.2310(3) 0.26091(17) 0.0043(3)
N6 N 0.4072(2) 0.13605(13) 0.0285(2)
O1 O 0.1780(3) 0.48352(14) 0.6772(2)
H7 H 0.2384 0.4362 0.7004
H8 H 0.1796 0.5283 0.7305
Cu1A Cu -0.5000 1.0000 1.0000
Cu1A_2 Cu 0.5000 0.0000 0.0000
C1B C -0.1911(3) 0.55162(17) 0.7280(3)
H1B H -0.1158 0.5194 0.7799
C2B C -0.3155(3) 0.6101(2) 0.5734(3)
H2B H -0.3411 0.6252 0.4920
C3B C -0.3910(3) 0.61275(17) 0.8868(3)
H3B H -0.5095 0.5967 0.8860
H4B H -0.3341 0.5687 0.9431
C4B C -0.4723(3) 0.78697(17) 0.9168(3)
H5B H -0.5752 0.7853 0.8754
C5B C -0.2596(3) 0.83103(19) 1.0186(3)
H6B H -0.1853 0.8700 1.0631
N1B N -0.1801(2) 0.55580(13) 0.6080(2)
N2B N -0.3253(2) 0.60006(13) 0.7647(2)
N3B N -0.4063(3) 0.63906(17) 0.6656(2)
N4B N -0.3686(2) 0.71209(14) 0.9299(2)
N5B N -0.2310(3) 0.73909(17) 0.9957(3)
N6B N -0.4072(2) 0.86395(13) 0.9715(2)
N6A N 0.0928(2) 0.63605(13) 0.4715(2)
N6C N -0.0928(2) 0.36395(13) 0.5285(2)
O1B O -0.1780(3) 0.51648(14) 0.3228(2)
H7B H -0.2384 0.5638 0.2996
H8B H -0.1796 0.4717 0.2695
N7 N 0.9951(4) 0.83904(17) 0.7146(3)
O2 O 0.9963(4) 0.91537(16) 0.6571(3)
O3 O 0.8824(4) 0.7808(2) 0.7006(3)
O4 O 1.1178(3) 0.81813(17) 0.7842(3)
O5 O 0.1873(3) 0.62764(16) 0.8483(2)
H9 H 0.1454 0.6147 0.9189
H10 H 0.1535 0.6840 0.8263
O6 O 0.0819(3) 0.62283(17) 0.0902(3)
H11 H 0.1717 0.6507 0.1151
H12 H -0.0047 0.6584 0.0919
loop_
_geom_bond_atom_site_label_1
_geom_bond_atom_site_label_2
_geom_bond_site_symmetry_1
_geom_bond_site_symmetry_2
Cu1 N1 1_555 1_555
C1 H1 1_555 1_555
C2 H2 1_555 1_555
C3 H3 1_555 1_555
H4 C3 1_555 1_555
C4 H5 1_555 1_555
C5 H6 1_555 1_555
N1 C1 1_555 1_555
N2 C1 1_555 1_555
N3 C2 1_555 1_555
N4 C3 1_555 1_555
N5 C5 1_555 1_555
N6 C4 1_555 1_555
N7 O2 1_555 1_555
O1 Cu1 1_555 1_555
H7 O1 1_555 1_555
H8 O1 1_555 1_555
O3 N7 1_555 1_555
O4 N7 1_555 1_555
O5 H9 1_555 1_555
H10 O5 1_555 1_555
O6 H11 1_555 1_555
H12 O6 1_555 1_555
Cu1A N6B 1_555 1_555
Cu1A_2 N6 1_555 1_555
C1B H1B 1_555 1_555
C2B H2B 1_555 1_555
C3B H3B 1_555 1_555
H4B C3B 1_555 1_555
C4B H5B 1_555 1_555
C5B H6B 1_555 1_555
N1B Cu1 1_555 1_555
N2B C1B 1_555 1_555
N3B C2B 1_555 1_555
N4B C3B 1_555 1_555
N5B C5B 1_555 1_555
N6B C4B 1_555 1_555
N6A Cu1 1_555 1_555
N6C Cu1 1_555 1_555
O1B Cu1 1_555 1_555
H7B O1B 1_555 1_555
H8B O1B 1_555 1_555
C2 N1 1_555 1_555
C3 N2 1_555 1_555
C4 N4 1_555 1_555
C5 N6 1_555 1_555
N2 N3 1_555 1_555
N4 N5 1_555 1_555
C1B N1B 1_555 1_555
C2B N1B 1_555 1_555
C3B N2B 1_555 1_555
C4B N4B 1_555 1_555
C5B N6B 1_555 1_555
N2B N3B 1_555 1_555
N4B N5B 1_555 1_555

#END
