
#######################################################################
#
#                 Cambridge Crystallographic Data Centre
#                                CCDC 
#
#######################################################################
#
# If this CIF has been generated from an entry in the Cambridge 
# Structural Database, then it will include bibliographic, chemical, 
# crystal, experimental, refinement or atomic coordinate data resulting 
# from the CCDC's data processing and validation procedures.
#
#######################################################################

data_YEHBAQ
_symmetry_cell_setting           triclinic
_symmetry_space_group_name_H-M   'P 1'
_symmetry_Int_Tables_number      1
_space_group_name_Hall           'P 1'
loop_
_symmetry_equiv_pos_site_id
_symmetry_equiv_pos_as_xyz
1 x,y,z
_cell_length_a                   7.5888(8)
_cell_length_b                   8.7339(10)
_cell_length_c                   9.1187(14)
_cell_angle_alpha                79.001(11)
_cell_angle_beta                 75.737(11)
_cell_angle_gamma                64.706(11)
_cell_volume                     527.069
loop_
_atom_site_label
_atom_site_type_symbol
_atom_site_fract_x
_atom_site_fract_y
_atom_site_fract_z
Cu1 Cu 0.6378(4) 0.2849(3) 0.9694(3)
C1 C 0.463(3) 0.131(2) 1.266(2)
H1 H 0.4544 0.2131 1.3220
C2 C 0.499(3) -0.009(2) 1.086(2)
H2 H 0.5323 -0.0434 0.9885
C3 C 0.276(3) -0.007(2) 1.468(2)
H3 H 0.1499 -0.0018 1.4554
H4 H 0.2492 0.0833 1.5283
C4 C 0.396(3) -0.185(2) 1.549(2)
H5 H 0.4559 -0.2702 1.4766
H6 H 0.5002 -0.1790 1.5876
C5 C 0.254(3) -0.234(3) 1.678(3)
H7 H 0.1641 -0.2571 1.6358
H8 H 0.3306 -0.3384 1.7338
C6 C -0.051(3) -0.014(2) 1.808(2)
H9 H -0.1417 -0.0231 1.7615
C7 C 0.076(3) 0.069(3) 1.944(3)
H10 H 0.0924 0.1308 2.0088
C8 C 0.811(3) 0.438(2) 0.674(2)
H11 H 0.8051 0.3651 0.6152
C9 C 0.761(3) 0.578(2) 0.854(2)
H12 H 0.7202 0.6153 0.9505
C10 C 0.990(3) 0.588(2) 0.471(2)
H13 H 1.1183 0.5822 0.4775
H14 H 1.0140 0.4982 0.4107
C11 C 0.885(3) 0.753(2) 0.387(2)
H15 H 0.7809 0.7453 0.3499
H16 H 0.8230 0.8395 0.4583
C12 C 1.011(3) 0.811(2) 0.257(2)
H17 H 0.9273 0.9107 0.2016
H18 H 1.0984 0.8423 0.2953
C13 C 1.326(3) 0.584(2) 0.136(2)
H19 H 1.4136 0.5979 0.1828
C14 C 1.194(3) 0.506(2) 0.007(2)
H20 H 1.1849 0.4478 -0.0645
N1 N 0.546(2) 0.1203(17) 1.1218(18)
N2 N 0.394(2) 0.0143(18) 1.3209(19)
N3 N 0.4086(19) -0.0707(16) 1.1988(15)
N4 N 0.138(2) -0.107(2) 1.785(2)
N5 N 0.229(2) -0.0691(16) 1.8695(18)
N6 N -0.095(2) 0.0958(19) 1.9075(18)
N7 N 0.741(2) 0.4477(17) 0.8246(18)
N8 N 0.888(2) 0.552(2) 0.627(2)
N9 N 0.847(2) 0.6558(17) 0.7297(16)
N10 N 1.131(2) 0.676(2) 0.154(2)
N11 N 1.044(2) 0.6167(18) 0.0710(19)
N12 N 1.375(3) 0.469(2) 0.041(2)
N13 N 0.8061(17) 0.3597(14) 1.2691(14)
N14 N 0.481(3) 0.232(2) 0.658(2)
O1 O 0.778(2) 0.3035(18) 1.1685(18)
O2 O 0.941(2) 0.2676(19) 1.3414(18)
O3 O 0.651(2) 0.4482(19) 1.3625(19)
O4 O 0.500(2) 0.2192(16) 0.7948(17)
O5 O 0.299(2) 0.293(2) 0.6438(19)
O6 O 0.587(2) 0.0857(16) 0.6112(16)
Cu1_2 Cu -0.3622(4) 0.2849(3) 1.9694(3)
Cu1_3 Cu 1.6378(4) 0.2849(3) -0.0306(3)
N6_2 N 0.905(2) 0.0958(19) 0.9075(18)
N12_2 N 0.375(3) 0.469(2) 1.041(2)
loop_
_geom_bond_atom_site_label_1
_geom_bond_atom_site_label_2
_geom_bond_site_symmetry_1
_geom_bond_site_symmetry_2
Cu1 N1 1_555 1_555
C1 H1 1_555 1_555
C2 H2 1_555 1_555
C3 H3 1_555 1_555
H4 C3 1_555 1_555
C4 C3 1_555 1_555
H5 C4 1_555 1_555
H6 C4 1_555 1_555
C5 C4 1_555 1_555
H7 C5 1_555 1_555
H8 C5 1_555 1_555
C6 H9 1_555 1_555
C7 H10 1_555 1_555
C8 H11 1_555 1_555
C9 H12 1_555 1_555
C10 H13 1_555 1_555
H14 C10 1_555 1_555
C11 C10 1_555 1_555
H15 C11 1_555 1_555
H16 C11 1_555 1_555
C12 C11 1_555 1_555
H17 C12 1_555 1_555
H18 C12 1_555 1_555
C13 H19 1_555 1_555
C14 H20 1_555 1_555
N1 C1 1_555 1_555
N2 C1 1_555 1_555
N3 C2 1_555 1_555
N4 C5 1_555 1_555
N5 C7 1_555 1_555
N6 C6 1_555 1_555
N7 Cu1 1_555 1_555
N8 C8 1_555 1_555
N9 C9 1_555 1_555
N10 C12 1_555 1_555
N11 C14 1_555 1_555
N12 C13 1_555 1_555
N13 O1 1_555 1_555
N14 O4 1_555 1_555
O1 Cu1 1_555 1_555
O2 N13 1_555 1_555
O3 N13 1_555 1_555
O4 Cu1 1_555 1_555
O5 N14 1_555 1_555
O6 N14 1_555 1_555
Cu1_2 N6 1_555 1_555
Cu1_3 N12 1_555 1_555
N6_2 Cu1 1_555 1_555
N12_2 Cu1 1_555 1_555
C2 N1 1_555 1_555
C3 N2 1_555 1_555
C6 N4 1_555 1_555
C7 N6 1_555 1_555
C8 N7 1_555 1_555
C9 N7 1_555 1_555
C10 N8 1_555 1_555
C13 N10 1_555 1_555
C14 N12 1_555 1_555
N2 N3 1_555 1_555
N4 N5 1_555 1_555
N8 N9 1_555 1_555
N10 N11 1_555 1_555

#END
