
#######################################################################
#
#                 Cambridge Crystallographic Data Centre
#                                CCDC 
#
#######################################################################
#
# If this CIF has been generated from an entry in the Cambridge 
# Structural Database, then it will include bibliographic, chemical, 
# crystal, experimental, refinement or atomic coordinate data resulting 
# from the CCDC's data processing and validation procedures.
#
#######################################################################

data_YEHCAR
_symmetry_cell_setting           monoclinic
_symmetry_space_group_name_H-M   'C 2'
_symmetry_Int_Tables_number      5
_space_group_name_Hall           'C 2y'
loop_
_symmetry_equiv_pos_site_id
_symmetry_equiv_pos_as_xyz
1 x,y,z
2 -x,y,-z
3 1/2+x,1/2+y,z
4 1/2-x,1/2+y,-z
_cell_length_a                   16.678(9)
_cell_length_b                   11.236(7)
_cell_length_c                   7.815(4)
_cell_angle_alpha                90
_cell_angle_beta                 105.58(2)
_cell_angle_gamma                90
_cell_volume                     1410.67
loop_
_atom_site_label
_atom_site_type_symbol
_atom_site_fract_x
_atom_site_fract_y
_atom_site_fract_z
Bi1 Bi 0.5000 0.98609(4) 0.0000
Ag1 Ag 0.5000 0.83469(15) 0.5000
I1 I 0.39244(5) 1.01000(7) 0.26071(9)
I2 I 0.62486(5) 0.82272(7) 0.23838(11)
N1 N 0.5700(6) 1.1728(10) 0.1353(14)
N2 N 0.4291(6) 0.6557(11) 0.3614(11)
C1 C 0.6429(7) 1.1858(16) 0.2653(18)
H1 H 0.6670 1.1140 0.3112
C2 C 0.6845(10) 1.276(3) 0.336(2)
H2 H 0.7327 1.2689 0.4285
C3 C 0.6575(11) 1.3767(18) 0.275(2)
H3 H 0.6885 1.4444 0.3187
C4 C 0.5804(8) 1.3892(14) 0.1411(18)
C5 C 0.5382(9) 1.2792(11) 0.0702(15)
C6 C 0.534(2) 1.5011(12) 0.057(4)
H4 H 0.5576 1.5744 0.0951
C7 C 0.3607(8) 0.6662(19) 0.231(2)
H5 H 0.3385 0.7380 0.1813
C8 C 0.3232(11) 0.5456(19) 0.174(2)
H6 H 0.2742 0.5394 0.0836
C9 C 0.3583(12) 0.4538(19) 0.250(2)
H7 H 0.3285 0.3844 0.2120
C10 C 0.4284(10) 0.4352(14) 0.373(2)
C11 C 0.4630(7) 0.5497(12) 0.4311(15)
C12 C 0.4699(8) 0.3340(16) 0.4498(17)
H8 H 0.4450 0.2609 0.4139
Ag1_2 Ag 0.5000 0.83469(15) -0.5000
I1A I 0.60756(5) 1.01000(7) -0.26071(9)
I1A_2 I 0.60756(5) 1.01000(7) 0.73929(9)
I2A I 0.37514(5) 0.82272(7) -0.23838(11)
N1A N 0.4300(6) 1.1728(10) -0.1353(14)
N2A N 0.5709(6) 0.6557(11) 0.6386(11)
C1A C 0.3571(7) 1.1858(16) -0.2653(18)
H1A H 0.3330 1.1140 -0.3112
C2A C 0.3155(10) 1.276(3) -0.336(2)
H2A H 0.2673 1.2689 -0.4285
C3A C 0.3425(11) 1.3767(18) -0.275(2)
H3A H 0.3115 1.4444 -0.3187
C4A C 0.4196(8) 1.3892(14) -0.1411(18)
C5A C 0.4618(9) 1.2792(11) -0.0702(15)
C6A C 0.466(2) 1.5011(12) -0.057(4)
H4A H 0.4424 1.5744 -0.0951
C7A C 0.6393(8) 0.6662(19) 0.769(2)
H5A H 0.6615 0.7380 0.8187
C8A C 0.6768(11) 0.5456(19) 0.826(2)
H6A H 0.7258 0.5394 0.9164
C9A C 0.6417(12) 0.4538(19) 0.750(2)
H7A H 0.6715 0.3844 0.7880
C10A C 0.5716(10) 0.4352(14) 0.627(2)
C11A C 0.5370(7) 0.5497(12) 0.5689(15)
C12A C 0.5301(8) 0.3340(16) 0.5502(17)
H8A H 0.5550 0.2609 0.5861
loop_
_geom_bond_atom_site_label_1
_geom_bond_atom_site_label_2
_geom_bond_site_symmetry_1
_geom_bond_site_symmetry_2
Bi1 I1 1_555 1_555
Ag1 I1 1_555 1_555
I2 Bi1 1_555 1_555
N1 Bi1 1_555 1_555
N2 Ag1 1_555 1_555
C1 N1 1_555 1_555
H1 C1 1_555 1_555
C2 C1 1_555 1_555
H2 C2 1_555 1_555
C3 C2 1_555 1_555
H3 C3 1_555 1_555
C4 C3 1_555 1_555
C5 N1 1_555 1_555
C6 C4 1_555 1_555
H4 C6 1_555 1_555
C7 N2 1_555 1_555
H5 C7 1_555 1_555
C8 C7 1_555 1_555
H6 C8 1_555 1_555
C9 C8 1_555 1_555
H7 C9 1_555 1_555
C10 C9 1_555 1_555
C11 N2 1_555 1_555
C12 C10 1_555 1_555
H8 C12 1_555 1_555
Ag1_2 I1A 1_555 1_555
I1A Bi1 1_555 1_555
I1A_2 Ag1 1_555 1_555
I2A Bi1 1_555 1_555
N1A Bi1 1_555 1_555
N2A Ag1 1_555 1_555
C1A N1A 1_555 1_555
H1A C1A 1_555 1_555
C2A C1A 1_555 1_555
H2A C2A 1_555 1_555
C3A C2A 1_555 1_555
H3A C3A 1_555 1_555
C4A C3A 1_555 1_555
C5A C5 1_555 1_555
C6A C6 1_555 1_555
H4A C6A 1_555 1_555
C7A N2A 1_555 1_555
H5A C7A 1_555 1_555
C8A C7A 1_555 1_555
H6A C8A 1_555 1_555
C9A C8A 1_555 1_555
H7A C9A 1_555 1_555
C10A C9A 1_555 1_555
C11A C11 1_555 1_555
C12A C12 1_555 1_555
H8A C12A 1_555 1_555
C4 C5 1_555 1_555
C10 C11 1_555 1_555
N1A C5A 1_555 1_555
N2A C11A 1_555 1_555
C4A C5A 1_555 1_555
C4A C6A 1_555 1_555
C10A C11A 1_555 1_555
C10A C12A 1_555 1_555

#END
