
#######################################################################
#
#                 Cambridge Crystallographic Data Centre
#                                CCDC 
#
#######################################################################
#
# If this CIF has been generated from an entry in the Cambridge 
# Structural Database, then it will include bibliographic, chemical, 
# crystal, experimental, refinement or atomic coordinate data resulting 
# from the CCDC's data processing and validation procedures.
#
#######################################################################

data_YEHDUL
_symmetry_cell_setting           orthorhombic
_symmetry_space_group_name_H-M   'P n a 21'
_symmetry_Int_Tables_number      33
_space_group_name_Hall           'P 2c -2n'
loop_
_symmetry_equiv_pos_site_id
_symmetry_equiv_pos_as_xyz
1 x,y,z
2 -x,-y,1/2+z
3 1/2+x,1/2-y,z
4 1/2-x,1/2+y,1/2+z
_cell_length_a                   19.0972(12)
_cell_length_b                   7.8864(5)
_cell_length_c                   13.7586(8)
_cell_angle_alpha                90
_cell_angle_beta                 90
_cell_angle_gamma                90
_cell_volume                     2072.16
loop_
_atom_site_label
_atom_site_type_symbol
_atom_site_fract_x
_atom_site_fract_y
_atom_site_fract_z
Zn1 Zn -0.11266(3) -0.45299(8) 1.34601(7)
C1 C 0.0779(3) -0.6964(8) 1.2750(5)
C2 C 0.1366(3) -0.7511(7) 1.3277(5)
H1 H 0.1341 -0.7597 1.3950
C3 C 0.1983(3) -0.7924(8) 1.2803(5)
C4 C 0.2008(3) -0.7794(8) 1.1792(5)
H2 H 0.2412 -0.8125 1.1466
C5 C 0.1446(3) -0.7185(8) 1.1265(5)
C6 C 0.0825(3) -0.6767(8) 1.1766(5)
H3 H 0.0443 -0.6351 1.1423
C7 C 0.0104(3) -0.6572(8) 1.3291(5)
C8 C 0.2609(3) -0.8471(8) 1.3371(7)
C9 C 0.1490(3) -0.6922(9) 1.0199(5)
C10 C -0.1168(3) -0.0830(9) 1.2839(6)
H4 H -0.1261 -0.0608 1.3491
C11 C -0.1103(3) 0.0526(9) 1.2209(7)
H5 H -0.1168 0.1628 1.2433
C12 C -0.0940(4) 0.0231(10) 1.1233(6)
C13 C -0.0871(4) -0.1441(10) 1.0959(6)
H6 H -0.0763 -0.1713 1.0318
C14 C -0.0963(4) -0.2698(9) 1.1630(6)
H7 H -0.0924 -0.3814 1.1419
C15 C -0.0846(5) 0.1664(12) 1.0516(7)
H8 H -0.1070 0.2664 1.0784
H9 H -0.0350 0.1907 1.0469
C16 C -0.1119(4) 0.1410(12) 0.9518(7)
H10 H -0.0900 0.0412 0.9239
H11 H -0.1619 0.1200 0.9551
C17 C -0.0992(7) 0.2866(15) 0.8873(8)
H12 H -0.0492 0.3079 0.8858
H13 H -0.1212 0.3854 0.9159
C18 C -0.1247(4) 0.2703(11) 0.7834(8)
C19 C -0.1934(4) 0.2977(13) 0.7625(7)
H14 H -0.2257 0.3149 0.8122
C20 C -0.2151(5) 0.2999(14) 0.6653(8)
H15 H -0.2616 0.3210 0.6497
C21 C -0.1034(5) 0.2391(15) 0.6133(8)
H16 H -0.0726 0.2179 0.5624
C22 C -0.0803(5) 0.2366(14) 0.7099(8)
H17 H -0.0337 0.2113 0.7234
N1 N -0.1105(3) -0.2438(7) 1.2560(5)
N2 N -0.1692(4) 0.2718(8) 0.5966(5)
H18 H -0.1832 0.2752 0.5372
O1 O -0.0318(2) -0.5607(5) 1.2851(4)
O2 O -0.0001(3) -0.7194(8) 1.4099(4)
O3 O 0.2646(3) -0.8091(8) 1.4234(5)
O4 O 0.3070(2) -0.9283(6) 1.2915(4)
O5 O 0.1993(3) -0.7499(8) 0.9735(4)
O6 O 0.1000(2) -0.6062(7) 0.9804(4)
Zn1B Zn 0.38734(3) -1.04701(8) 1.34601(7)
Zn1A Zn 0.11266(3) -0.54701(8) 0.84601(7)
O4B O -0.1930(2) -0.5717(6) 1.2915(4)
O6A O -0.1000(2) -0.3938(7) 1.4804(4)
O7 O 0.2932(7) -1.0166(16) 1.0122(10)
loop_
_geom_bond_atom_site_label_1
_geom_bond_atom_site_label_2
_geom_bond_site_symmetry_1
_geom_bond_site_symmetry_2
Zn1 N1 1_555 1_555
C1 C2 1_555 1_555
C2 H1 1_555 1_555
C3 C2 1_555 1_555
C4 C3 1_555 1_555
H2 C4 1_555 1_555
C5 C4 1_555 1_555
C6 C1 1_555 1_555
H3 C6 1_555 1_555
C7 C1 1_555 1_555
C8 C3 1_555 1_555
C9 C5 1_555 1_555
C10 H4 1_555 1_555
C11 C10 1_555 1_555
H5 C11 1_555 1_555
C12 C11 1_555 1_555
C13 C12 1_555 1_555
H6 C13 1_555 1_555
C14 C13 1_555 1_555
H7 C14 1_555 1_555
C15 C12 1_555 1_555
H8 C15 1_555 1_555
H9 C15 1_555 1_555
C16 C15 1_555 1_555
H10 C16 1_555 1_555
H11 C16 1_555 1_555
C17 C16 1_555 1_555
H12 C17 1_555 1_555
H13 C17 1_555 1_555
C18 C17 1_555 1_555
C19 C18 1_555 1_555
H14 C19 1_555 1_555
C20 C19 1_555 1_555
H15 C20 1_555 1_555
C21 H16 1_555 1_555
C22 C18 1_555 1_555
H17 C22 1_555 1_555
N1 C10 1_555 1_555
N2 C20 1_555 1_555
H18 N2 1_555 1_555
O1 Zn1 1_555 1_555
O2 C7 1_555 1_555
O3 C8 1_555 1_555
O4 C8 1_555 1_555
O5 C9 1_555 1_555
O6 C9 1_555 1_555
Zn1B O4 1_555 1_555
Zn1A O6 1_555 1_555
O4B Zn1 1_555 1_555
O6A Zn1 1_555 1_555
C5 C6 1_555 1_555
C7 O1 1_555 1_555
C14 N1 1_555 1_555
C21 C22 1_555 1_555
C21 N2 1_555 1_555

#END
