
#######################################################################
#
#                 Cambridge Crystallographic Data Centre
#                                CCDC 
#
#######################################################################
#
# If this CIF has been generated from an entry in the Cambridge 
# Structural Database, then it will include bibliographic, chemical, 
# crystal, experimental, refinement or atomic coordinate data resulting 
# from the CCDC's data processing and validation procedures.
#
#######################################################################

data_YEHDAS
_symmetry_cell_setting           monoclinic
_symmetry_space_group_name_H-M   'P 21/c'
_symmetry_Int_Tables_number      14
_space_group_name_Hall           '-P 2ybc'
loop_
_symmetry_equiv_pos_site_id
_symmetry_equiv_pos_as_xyz
1 x,y,z
2 -x,1/2+y,1/2-z
3 -x,-y,-z
4 x,1/2-y,1/2+z
_cell_length_a                   15.338(6)
_cell_length_b                   15.748(6)
_cell_length_c                   14.128(6)
_cell_angle_alpha                90
_cell_angle_beta                 95.826(7)
_cell_angle_gamma                90
_cell_volume                     3394.89
loop_
_atom_site_label
_atom_site_type_symbol
_atom_site_fract_x
_atom_site_fract_y
_atom_site_fract_z
O1 O 0.9271(11) 0.4140(16) 0.5174(11)
C1 C 0.9735(15) 0.4485(16) 0.433(3)
H1 H 0.9368 0.4903 0.4000
H2 H 0.9860 0.4040 0.3902
H3 H 1.0274 0.4745 0.4591
C2 C 0.3382(12) 0.279(2) 0.720(2)
H4 H 0.3440 0.3157 0.6662
H5 H 0.3475 0.2214 0.7020
H6 H 0.2804 0.2852 0.7394
C3 C 1.2263(12) 0.2248(11) 0.9748(18)
H7 H 1.2147 0.2378 0.9083
H8 H 1.2719 0.2613 1.0029
H9 H 1.2446 0.1667 0.9823
C4 C 0.8505(10) 0.5375(11) 0.7473(11)
H10 H 0.8576 0.5754 0.8007
H11 H 0.9049 0.5087 0.7412
H12 H 0.8338 0.5693 0.6904
C5 C 0.6391(9) 0.0154(7) 0.9953(10)
H13 H 0.6393 0.0123 0.9275
H14 H 0.6972 0.0055 1.0252
H15 H 0.6000 -0.0268 1.0159
Ba1 Ba 0.85323(3) 0.27570(3) 1.00839(3)
Ba2 Ba 0.68585(3) 0.22526(3) 0.75146(3)
Ba3 Ba 0.60958(3) 0.40352(3) 0.99390(3)
Ba4 Ba 1.0000 0.5000 1.0000
C6 C 0.6684(5) 0.1742(5) 1.0027(5)
C7 C 0.6089(7) 0.1017(6) 1.0223(8)
H16 H 0.5517 0.1122 0.9883
H17 H 0.6017 0.1015 1.0897
C8 C 0.7980(5) 0.4187(5) 0.8465(5)
C9 C 0.7823(7) 0.4749(7) 0.7618(7)
H18 H 0.7278 0.5052 0.7663
H19 H 0.7740 0.4392 0.7057
C10 C 0.8251(6) 0.4382(5) 1.1478(6)
C11 C 0.8083(11) 0.5110(9) 1.2196(11)
H20 H 0.8609 0.5438 1.2332
H21 H 0.7621 0.5471 1.1920
H22 H 0.7917 0.4867 1.2774
C12 C 0.8999(6) 0.2534(7) 1.2588(6)
C13 C 0.9990(8) 0.2487(12) 1.2582(9)
H23 H 1.0160 0.1910 1.2478
H24 H 1.0168 0.2840 1.2081
H25 H 1.0268 0.2681 1.3183
C14 C 0.4918(5) 0.2899(6) 0.7831(7)
C15 C 0.3958(7) 0.2962(12) 0.7935(9)
H26 H 0.3835 0.2584 0.8447
H27 H 0.3845 0.3535 0.8143
C16 C 0.5261(5) 0.0396(5) 0.6843(5)
C17 C 0.4734(8) 0.0196(9) 0.7673(8)
H28 H 0.5100 -0.0093 0.8162
H29 H 0.4245 -0.0159 0.7457
H30 H 0.4523 0.0715 0.7924
C18 C 1.1040(5) 0.3192(6) 1.0094(6)
C19 C 1.1511(8) 0.2373(8) 1.0192(13)
H31 H 1.1099 0.1933 0.9967
H32 H 1.1662 0.2275 1.0866
O2 O 0.6709(4) 0.2382(3) 1.0561(4)
O3 O 0.7130(4) 0.1682(4) 0.9334(4)
O4 O 0.7357(3) 0.3698(3) 0.8649(4)
O5 O 0.8704(4) 0.4198(4) 0.8936(4)
O6 O 0.7614(4) 0.3921(4) 1.1180(4)
O7 O 0.8995(4) 0.4285(4) 1.1212(4)
O8 O 0.8510(4) 0.2228(4) 1.1913(4)
O9 O 0.8683(4) 0.2880(4) 1.3290(4)
O10 O 0.5187(4) 0.2872(4) 0.7028(4)
O11 O 0.5410(4) 0.2843(4) 0.8591(4)
O12 O 0.5814(4) 0.0972(4) 0.6932(4)
O13 O 0.5104(4) -0.0025(4) 0.6103(4)
O14 O 1.0229(4) 0.3178(4) 1.0080(5)
O15 O 1.1445(4) 0.3864(4) 1.0038(6)
O16 O 0.4584(4) 0.3024(4) 1.0377(5)
O17 O 0.6816(4) 0.5621(4) 0.9718(6)
H33 H 0.462(5) 0.266(4) 0.990(3)
H34 H 0.471(7) 0.274(4) 1.092(3)
H35 H 0.736(3) 0.576(6) 0.959(10)
H36 H 0.652(5) 0.611(3) 0.976(7)
C2B C 1.6618(12) 0.721(2) 1.280(2)
H4B H 1.6560 0.6843 1.3338
H5B H 1.6525 0.7786 1.2980
H6B H 1.7196 0.7148 1.2606
C3B C 0.7737(12) 0.7752(11) 1.0252(18)
H7B H 0.7853 0.7622 1.0917
H8B H 0.7281 0.7387 0.9971
H9B H 0.7554 0.8333 1.0177
C4B C 1.1495(10) 0.4625(11) 1.2527(11)
H10B H 1.1424 0.4246 1.1993
H11B H 1.0951 0.4913 1.2588
H12B H 1.1662 0.4307 1.3096
C5C C 0.6391(9) 0.4846(7) 0.4953(10)
H13C H 0.6393 0.4877 0.4275
H14C H 0.6972 0.4945 0.5252
H15C H 0.6000 0.5268 0.5159
Ba1B Ba 1.14677(3) 0.72430(3) 0.99161(3)
Ba1C Ba 0.85323(3) 0.22430(3) 1.50839(3)
Ba1C_2 Ba 0.85323(3) 0.22430(3) 0.50839(3)
Ba2B Ba 1.31415(3) 0.77474(3) 1.24854(3)
Ba2C Ba 0.68585(3) 0.27474(3) 1.25146(3)
Ba2A Ba 1.31415(3) 0.72526(3) 0.74854(3)
Ba2C_2 Ba 0.68585(3) 0.27474(3) 0.25146(3)
Ba3B Ba 1.39042(3) 0.59648(3) 1.00610(3)
Ba3C Ba 0.60958(3) 0.09648(3) 0.49390(3)
Ba3A Ba 0.39042(3) -0.09648(3) 0.50610(3)
Ba3B_2 Ba 0.39042(3) 0.59648(3) 1.00610(3)
C6C C 0.6684(5) 0.3258(5) 0.5027(5)
C7C C 0.6089(7) 0.3983(6) 0.5223(8)
H16C H 0.5517 0.3878 0.4883
H17C H 0.6017 0.3985 0.5897
C8B C 1.2020(5) 0.5813(5) 1.1535(5)
C9B C 1.2177(7) 0.5251(7) 1.2382(7)
H18B H 1.2722 0.4948 1.2337
H19B H 1.2260 0.5608 1.2943
C10B C 1.1749(6) 0.5618(5) 0.8522(6)
C11B C 1.1917(11) 0.4890(9) 0.7804(11)
H20B H 1.1391 0.4562 0.7668
H21B H 1.2379 0.4529 0.8080
H22B H 1.2083 0.5133 0.7226
C12C C 0.8999(6) 0.2466(7) 0.7588(6)
C13C C 0.9990(8) 0.2513(12) 0.7582(9)
H23C H 1.0160 0.3090 0.7478
H24C H 1.0168 0.2160 0.7081
H25C H 1.0268 0.2319 0.8183
C14B C 1.5082(5) 0.7101(6) 1.2169(7)
C15B C 1.6042(7) 0.7038(12) 1.2065(9)
H26B H 1.6165 0.7416 1.1553
H27B H 1.6155 0.6465 1.1857
C16C C 0.5261(5) 0.4604(5) 1.1843(5)
C17C C 0.4734(8) 0.4804(9) 1.2673(8)
H28C H 0.5100 0.5093 1.3162
H29C H 0.4245 0.5159 1.2457
H30C H 0.4523 0.4285 1.2924
C18B C 0.8960(5) 0.6808(6) 0.9906(6)
C19B C 0.8489(8) 0.7627(8) 0.9808(13)
H31B H 0.8901 0.8067 1.0033
H32B H 0.8338 0.7725 0.9134
O2C O 0.6709(4) 0.2618(3) 0.5561(4)
O2A O 1.3291(4) 0.7382(3) 1.4439(4)
O2B O 1.3291(4) 0.7618(3) 0.9439(4)
O3C O 0.7130(4) 0.3318(4) 0.4334(4)
O3B O 1.2870(4) 0.8318(4) 1.0666(4)
O4B O 1.2643(3) 0.6302(3) 1.1351(4)
O5B O 1.1296(4) 0.5802(4) 1.1064(4)
O6B O 1.2386(4) 0.6079(4) 0.8820(4)
O6C O 0.7614(4) 0.1079(4) 0.6180(4)
O6A O 1.2386(4) 0.8921(4) 1.3820(4)
O7B O 1.1005(4) 0.5715(4) 0.8788(4)
O8C O 0.8510(4) 0.2772(4) 0.6913(4)
O8B O 1.1490(4) 0.7772(4) 0.8087(4)
O8A O 1.1490(4) 0.7228(4) 1.3087(4)
O9C O 0.8683(4) 0.2120(4) 0.8290(4)
O9A O 1.1317(4) 0.7880(4) 1.1710(4)
O10B O 1.4813(4) 0.7128(4) 1.2972(4)
O11B O 1.4590(4) 0.7157(4) 1.1409(4)
O12C O 0.5814(4) 0.4028(4) 1.1932(4)
O12B O 1.4186(4) 0.9028(4) 1.3068(4)
O12A O 1.4186(4) 0.5972(4) 0.8068(4)
O13C O 0.5104(4) 0.5025(4) 1.1103(4)
O13A O 0.4896(4) 0.4975(4) 0.8897(4)
O13A_2 O 1.4896(4) 0.4975(4) 0.8897(4)
O13C_2 O 1.5104(4) 0.5025(4) 1.1103(4)
O14B O 0.9771(4) 0.6822(4) 0.9920(5)
O15B O 0.8555(4) 0.6136(4) 0.9962(6)
O16B O 1.5416(4) 0.6976(4) 0.9623(5)
O17B O 1.3184(4) 0.4379(4) 1.0282(6)
H33B H 1.538(5) 0.734(4) 1.010(3)
H34B H 1.529(7) 0.726(4) 0.908(3)
H35B H 1.264(3) 0.424(6) 1.041(10)
H36B H 1.348(5) 0.389(3) 1.024(7)
loop_
_geom_bond_atom_site_label_1
_geom_bond_atom_site_label_2
_geom_bond_site_symmetry_1
_geom_bond_site_symmetry_2
O1 C1 1_555 1_555
C1 H1 1_555 1_555
H2 C1 1_555 1_555
H3 C1 1_555 1_555
C2 H4 1_555 1_555
H5 C2 1_555 1_555
H6 C2 1_555 1_555
C3 H7 1_555 1_555
H8 C3 1_555 1_555
H9 C3 1_555 1_555
C4 H10 1_555 1_555
H11 C4 1_555 1_555
H12 C4 1_555 1_555
C5 H13 1_555 1_555
H14 C5 1_555 1_555
H15 C5 1_555 1_555
Ba1 O3 1_555 1_555
Ba2 O3 1_555 1_555
Ba3 O2 1_555 1_555
Ba4 O5 1_555 1_555
C6 C7 1_555 1_555
C7 C5 1_555 1_555
H16 C7 1_555 1_555
H17 C7 1_555 1_555
C8 C9 1_555 1_555
C9 C4 1_555 1_555
H18 C9 1_555 1_555
H19 C9 1_555 1_555
C10 C11 1_555 1_555
C11 H20 1_555 1_555
H21 C11 1_555 1_555
H22 C11 1_555 1_555
C12 C13 1_555 1_555
C13 H23 1_555 1_555
H24 C13 1_555 1_555
H25 C13 1_555 1_555
C14 C15 1_555 1_555
C15 C2 1_555 1_555
H26 C15 1_555 1_555
H27 C15 1_555 1_555
C16 C17 1_555 1_555
C17 H28 1_555 1_555
H29 C17 1_555 1_555
H30 C17 1_555 1_555
C18 C19 1_555 1_555
C19 C3 1_555 1_555
H31 C19 1_555 1_555
H32 C19 1_555 1_555
O2 C6 1_555 1_555
O3 C6 1_555 1_555
O4 Ba1 1_555 1_555
O5 Ba1 1_555 1_555
O6 Ba1 1_555 1_555
O7 Ba1 1_555 1_555
O8 Ba1 1_555 1_555
O9 C12 1_555 1_555
O10 Ba2 1_555 1_555
O11 Ba2 1_555 1_555
O12 Ba2 1_555 1_555
O13 C16 1_555 1_555
O14 Ba1 1_555 1_555
O15 Ba4 1_555 1_555
O16 Ba3 1_555 1_555
O17 Ba3 1_555 1_555
H33 O16 1_555 1_555
H34 O16 1_555 1_555
H35 O17 1_555 1_555
H36 O17 1_555 1_555
C2B H4B 1_555 1_555
H5B C2B 1_555 1_555
H6B C2B 1_555 1_555
C3B H7B 1_555 1_555
H8B C3B 1_555 1_555
H9B C3B 1_555 1_555
C4B H10B 1_555 1_555
H11B C4B 1_555 1_555
H12B C4B 1_555 1_555
C5C H13C 1_555 1_555
H14C C5C 1_555 1_555
H15C C5C 1_555 1_555
Ba1B O3B 1_555 1_555
Ba1C O9 1_555 1_555
Ba1C_2 O3C 1_555 1_555
Ba2B O2A 1_555 1_555
Ba2C O2 1_555 1_555
Ba2A O2B 1_555 1_555
Ba2C_2 O3C 1_555 1_555
Ba3B O2B 1_555 1_555
Ba3C O12 1_555 1_555
Ba3A O13 1_555 1_555
Ba3B_2 O13C 1_555 1_555
C6C C7C 1_555 1_555
C7C C5C 1_555 1_555
H16C C7C 1_555 1_555
H17C C7C 1_555 1_555
C8B C9B 1_555 1_555
C9B C4B 1_555 1_555
H18B C9B 1_555 1_555
H19B C9B 1_555 1_555
C10B C11B 1_555 1_555
C11B H20B 1_555 1_555
H21B C11B 1_555 1_555
H22B C11B 1_555 1_555
C12C C13C 1_555 1_555
C13C H23C 1_555 1_555
H24C C13C 1_555 1_555
H25C C13C 1_555 1_555
C14B C15B 1_555 1_555
C15B C2B 1_555 1_555
H26B C15B 1_555 1_555
H27B C15B 1_555 1_555
C16C C17C 1_555 1_555
C17C H28C 1_555 1_555
H29C C17C 1_555 1_555
H30C C17C 1_555 1_555
C18B C19B 1_555 1_555
C19B C3B 1_555 1_555
H31B C19B 1_555 1_555
H32B C19B 1_555 1_555
O2C Ba2 1_555 1_555
O3C C6C 1_555 1_555
O3B Ba2B 1_555 1_555
O4B Ba1B 1_555 1_555
O5B Ba4 1_555 1_555
O6B Ba1B 1_555 1_555
O6C Ba2 1_555 1_555
O6A Ba2B 1_555 1_555
O7B Ba4 1_555 1_555
O8C Ba2 1_555 1_555
O8B Ba1B 1_555 1_555
O8A Ba2B 1_555 1_555
O9C Ba1 1_555 1_555
O9A Ba1B 1_555 1_555
O10B Ba2B 1_555 1_555
O11B Ba2B 1_555 1_555
O12C Ba3 1_555 1_555
O12B Ba2B 1_555 1_555
O12A Ba2A 1_555 1_555
O13C Ba3 1_555 1_555
O13A Ba3 1_555 1_555
O13A_2 Ba3B 1_555 1_555
O13C_2 Ba3B 1_555 1_555
O14B Ba4 1_555 1_555
O15B Ba4 1_555 1_555
O16B Ba3B 1_555 1_555
O17B Ba3B 1_555 1_555
H33B O16B 1_555 1_555
H34B O16B 1_555 1_555
H35B O17B 1_555 1_555
H36B O17B 1_555 1_555
Ba2 O4 1_555 1_555
Ba2 O9C 1_555 1_555
Ba3 O4 1_555 1_555
Ba3 O6 1_555 1_555
Ba3 O11 1_555 1_555
Ba4 O7 1_555 1_555
Ba4 O14 1_555 1_555
C8 O4 1_555 1_555
C8 O5 1_555 1_555
C10 O6 1_555 1_555
C10 O7 1_555 1_555
C12 O8 1_555 1_555
C14 O10 1_555 1_555
C14 O11 1_555 1_555
C16 O12 1_555 1_555
C18 O14 1_555 1_555
C18 O15 1_555 1_555
O6 Ba2C 1_555 1_555
O8 Ba2C 1_555 1_555
O9 Ba2C 1_555 1_555
O13 Ba3C 1_555 1_555
Ba1B O5B 1_555 1_555
Ba1B O7B 1_555 1_555
Ba1B O14B 1_555 1_555
Ba1C_2 O6C 1_555 1_555
Ba1C_2 O8C 1_555 1_555
Ba2B O4B 1_555 1_555
Ba2B O9A 1_555 1_555
Ba2C O12C 1_555 1_555
Ba2A O6B 1_555 1_555
Ba2A O8B 1_555 1_555
Ba3B O4B 1_555 1_555
Ba3B O6B 1_555 1_555
Ba3B O11B 1_555 1_555
Ba3B O12A 1_555 1_555
Ba3C O2C 1_555 1_555
Ba3C O6C 1_555 1_555
Ba3B_2 O13A 1_555 1_555
C6C O2C 1_555 1_555
C8B O4B 1_555 1_555
C8B O5B 1_555 1_555
C10B O6B 1_555 1_555
C10B O7B 1_555 1_555
C12C O8C 1_555 1_555
C12C O9C 1_555 1_555
C14B O10B 1_555 1_555
C14B O11B 1_555 1_555
C16C O12C 1_555 1_555
C16C O13C 1_555 1_555
C18B O14B 1_555 1_555
C18B O15B 1_555 1_555

#END
