
#######################################################################
#
#                 Cambridge Crystallographic Data Centre
#                                CCDC 
#
#######################################################################
#
# If this CIF has been generated from an entry in the Cambridge 
# Structural Database, then it will include bibliographic, chemical, 
# crystal, experimental, refinement or atomic coordinate data resulting 
# from the CCDC's data processing and validation procedures.
#
#######################################################################

data_YEHGID
_symmetry_cell_setting           orthorhombic
_symmetry_space_group_name_H-M   'P 21 21 21'
_symmetry_Int_Tables_number      19
_space_group_name_Hall           'P 2ac 2ab'
loop_
_symmetry_equiv_pos_site_id
_symmetry_equiv_pos_as_xyz
1 x,y,z
2 1/2-x,-y,1/2+z
3 -x,1/2+y,1/2-z
4 1/2+x,1/2-y,-z
_cell_length_a                   22.661(19)
_cell_length_b                   32.05(3)
_cell_length_c                   41.94(3)
_cell_angle_alpha                90
_cell_angle_beta                 90
_cell_angle_gamma                90
_cell_volume                     30460.4
loop_
_atom_site_label
_atom_site_type_symbol
_atom_site_fract_x
_atom_site_fract_y
_atom_site_fract_z
C1 C 0.6211(8) 0.6991(5) 0.9808(4)
C2 C 0.6492(7) 0.7413(5) 0.9798(4)
C3 C 0.6124(8) 0.7731(6) 0.9880(4)
H1 H 0.5741 0.7644 0.9924
C4 C 0.6200(8) 0.8160(6) 0.9911(4)
H2 H 0.5936 0.8353 0.9995
C5 C 0.6753(9) 0.8233(6) 0.9791(4)
H3 H 0.6837 0.8517 0.9795
C6 C 0.7242(10) 0.8005(7) 0.9660(5)
H4 H 0.7598 0.8109 0.9582
C7 C 0.7051(9) 0.7586(6) 0.9677(4)
H5 H 0.7319 0.7390 0.9600
C8 C 0.5554(7) 0.6308(5) 0.9186(4)
C9 C 0.5307(8) 0.6298(5) 0.8851(4)
C10 C 0.4748(9) 0.6426(5) 0.8858(4)
H6 H 0.4559 0.6521 0.9041
C11 C 0.4462(12) 0.6399(9) 0.8542(8)
H7 H 0.4063 0.6463 0.8524
C12 C 0.4767(13) 0.6282(8) 0.8274(6)
H8 H 0.4596 0.6334 0.8077
C13 C 0.5311(13) 0.6091(8) 0.8280(7)
H9 H 0.5491 0.5980 0.8099
C14 C 0.5589(8) 0.6081(6) 0.8609(5)
H10 H 0.5937 0.5935 0.8646
C15 C 0.2240(8) 0.9183(6) 0.9870(5)
C16 C 0.2840(8) 0.9206(6) 0.9624(5)
C17 C 0.3264(10) 0.8916(7) 0.9693(5)
H11 H 0.3159 0.8706 0.9835
C18 C 0.3896(11) 0.8901(8) 0.9560(6)
H12 H 0.4193 0.8720 0.9625
C19 C 0.3945(11) 0.9211(8) 0.9324(6)
H13 H 0.4293 0.9238 0.9209
C20 C 0.3468(13) 0.9480(8) 0.9262(7)
H14 H 0.3502 0.9633 0.9074
C21 C 0.2930(8) 0.9558(6) 0.9441(4)
H15 H 0.2697 0.9797 0.9435
C22 C 0.1557(7) 0.9862(5) 1.0397(4)
C23 C 0.1783(6) 1.0249(5) 1.0583(4)
C24 C 0.1971(6) 1.0242(5) 1.0887(4)
H16 H 0.2055 0.9981 1.0972
C25 C 0.2059(8) 1.0591(7) 1.1094(5)
H17 H 0.2165 1.0561 1.1307
C26 C 0.1988(8) 1.0907(6) 1.0978(5)
H18 H 0.2107 1.1138 1.1096
C27 C 0.1727(7) 1.0995(6) 1.0661(4)
H19 H 0.1654 1.1266 1.0593
C28 C 0.1588(7) 1.0631(5) 1.0459(4)
H20 H 0.1389 1.0654 1.0266
C29 C 0.5543(6) 0.6186(5) 1.0569(3)
C30 C 0.5478(7) 0.6362(5) 1.0925(4)
C31 C 0.5287(8) 0.6759(6) 1.0998(5)
H21 H 0.5125 0.6907 1.0829
C32 C 0.5298(11) 0.6959(8) 1.1273(6)
H22 H 0.5174 0.7231 1.1313
C33 C 0.5536(9) 0.6676(7) 1.1489(5)
H23 H 0.5565 0.6794 1.1691
C34 C 0.5741(10) 0.6272(8) 1.1489(6)
H24 H 0.5827 0.6105 1.1664
C35 C 0.5790(7) 0.6172(5) 1.1170(4)
H25 H 0.6052 0.5961 1.1114
C36 C 0.4718(8) 0.5582(6) 0.9916(4)
C37 C 0.4264(8) 0.5289(6) 0.9824(4)
C38 C 0.3808(9) 0.5409(6) 0.9628(4)
H26 H 0.3802 0.5695 0.9590
C39 C 0.3373(10) 0.5208(7) 0.9483(5)
H27 H 0.3134 0.5326 0.9326
C40 C 0.3319(10) 0.4820(8) 0.9586(5)
H28 H 0.3014 0.4658 0.9505
C41 C 0.3684(10) 0.4647(6) 0.9804(5)
H29 H 0.3643 0.4371 0.9869
C42 C 0.4103(8) 0.4893(6) 0.9919(4)
H30 H 0.4319 0.4783 1.0087
C43 C 0.2398(7) 0.8974(5) 1.1016(4)
H31 H 0.2094 0.9155 1.1072
C44 C 0.2816(7) 0.8925(5) 1.1238(4)
H32 H 0.2803 0.9033 1.1443
C45 C 0.3237(8) 0.8706(5) 1.1123(4)
H33 H 0.3573 0.8694 1.1249
C46 C 0.3273(7) 0.8487(5) 1.0843(4)
C47 C 0.2778(7) 0.8555(4) 1.0646(3)
H34 H 0.2764 0.8414 1.0451
C48 C 0.3793(8) 0.8192(5) 1.0705(4)
C49 C 0.4775(8) 0.8043(5) 1.0768(4)
C50 C 0.4558(7) 0.7107(5) 1.0109(4)
H35 H 0.4866 0.7142 1.0253
C51 C 0.4096(6) 0.7380(4) 1.0149(3)
C52 C 0.3616(6) 0.7327(4) 0.9991(3)
H36 H 0.3287 0.7496 1.0020
C53 C 0.3623(7) 0.7010(5) 0.9783(4)
H37 H 0.3284 0.6960 0.9663
C54 C 0.4129(8) 0.6738(5) 0.9732(4)
H38 H 0.4092 0.6523 0.9585
C55 C 0.5799(8) 0.4644(6) 1.0438(5)
H39 H 0.5606 0.4598 1.0245
C56 C 0.5826(7) 0.4317(5) 1.0652(4)
H40 H 0.5669 0.4058 1.0600
C57 C 0.6106(8) 0.4385(6) 1.0965(4)
H41 H 0.6164 0.4174 1.1115
C58 C 0.6278(7) 0.4808(6) 1.1016(4)
C59 C 0.6281(8) 0.5050(6) 1.0778(5)
H42 H 0.6495 0.5294 1.0811
C60 C 0.6638(8) 0.4857(6) 1.1329(5)
C61 C 0.7251(7) 0.5300(5) 1.1569(4)
C62 C 0.6952(8) 0.4697(6) 1.1792(4)
C63 C 0.7657(7) 0.5605(5) 1.1553(4)
C64 C 0.7737(6) 0.5959(4) 1.1325(3)
H43 H 0.7493 0.5949 1.1147
C65 C 0.8087(7) 0.6275(5) 1.1332(4)
H44 H 0.8094 0.6463 1.1163
C66 C 0.8459(7) 0.6338(5) 1.1595(4)
H45 H 0.8705 0.6570 1.1602
C67 C 0.8065(7) 0.5736(5) 1.1798(4)
H46 H 0.8061 0.5557 1.1973
C68 C 1.0132(8) 0.6224(5) 1.1909(4)
C69 C 1.0464(8) 0.6383(4) 1.1610(4)
C70 C 1.0147(8) 0.6404(4) 1.1330(4)
H47 H 0.9742 0.6355 1.1332
C71 C 1.0449(10) 0.6504(5) 1.1025(5)
H48 H 1.0239 0.6525 1.0835
C72 C 1.0984(14) 0.6557(7) 1.1033(5)
H49 H 1.1181 0.6614 1.0843
C73 C 1.1298(8) 0.6535(6) 1.1308(5)
H50 H 1.1688 0.6627 1.1308
C74 C 1.1064(7) 0.6385(5) 1.1581(3)
H51 H 1.1304 0.6287 1.1745
C75 C 0.9587(11) 0.5248(7) 1.2291(5)
C76 C 0.9537(12) 0.4766(8) 1.2245(5)
C77 C 0.9016(10) 0.4521(10) 1.2203(8)
H52 H 0.8671 0.4670 1.2166
C78 C 0.8952(11) 0.4078(9) 1.2210(5)
H53 H 0.8608 0.3926 1.2177
C79 C 0.9524(14) 0.3919(8) 1.2277(5)
H54 H 0.9543 0.3629 1.2278
C80 C 1.0058(11) 0.4112(9) 1.2341(6)
H55 H 1.0387 0.3956 1.2399
C81 C 1.0094(11) 0.4552(9) 1.2316(6)
H56 H 1.0447 0.4696 1.2344
C82 C 0.9965(7) 0.5634(5) 1.3246(4)
C83 C 1.0036(8) 0.5305(5) 1.3509(4)
C84 C 0.9568(8) 0.5202(5) 1.3705(4)
H57 H 0.9204 0.5331 1.3679
C85 C 0.9646(9) 0.4903(5) 1.3944(4)
H58 H 0.9323 0.4855 1.4075
C86 C 1.0139(8) 0.4672(5) 1.4008(4)
H59 H 1.0182 0.4448 1.4147
C87 C 1.0554(7) 0.4852(4) 1.3814(4)
H60 H 1.0932 0.4792 1.3888
C88 C 1.0584(8) 0.5112(5) 1.3525(4)
H61 H 1.0899 0.5140 1.3385
C89 C 1.1113(8) 0.6851(5) 1.3228(4)
C90 C 1.0993(11) 0.7078(6) 1.3518(6)
H62 H 1.0601 0.7136 1.3567
C91 C 1.1468(14) 0.7230(6) 1.3750(5)
H63 H 1.1395 0.7381 1.3935
C92 C 1.2032(11) 0.7109(7) 1.3644(6)
H64 H 1.2349 0.7160 1.3779
C93 C 1.2153(9) 0.6917(8) 1.3350(7)
H65 H 1.2544 0.6900 1.3283
C94 C 1.1680(11) 0.6738(5) 1.3138(4)
H66 H 1.1760 0.6567 1.2964
C95 C 0.8036(9) 0.5957(6) 1.2800(5)
C96 C 0.7476(6) 0.5827(4) 1.2861(3)
C97 C 0.7096(8) 0.5571(5) 1.2652(4)
H67 H 0.7248 0.5526 1.2449
C98 C 0.6594(8) 0.5399(5) 1.2701(5)
H68 H 0.6400 0.5227 1.2556
C99 C 0.6380(7) 0.5502(5) 1.2997(4)
H69 H 0.6036 0.5374 1.3068
C100 C 0.6666(8) 0.5802(5) 1.3204(4)
H70 H 0.6463 0.5921 1.3374
C101 C 0.7218(8) 0.5903(5) 1.3146(4)
H71 H 0.7438 0.6030 1.3306
C102 C 0.8748(8) 0.6946(6) 1.2493(5)
C103 C 0.8605(6) 0.7382(5) 1.2435(4)
C104 C 0.8427(6) 0.7494(5) 1.2151(3)
H72 H 0.8423 0.7295 1.1990
C105 C 0.8235(9) 0.7914(8) 1.2075(6)
H73 H 0.8138 0.7993 1.1869
C106 C 0.8203(9) 0.8184(7) 1.2324(6)
H74 H 0.8006 0.8436 1.2295
C107 C 0.8452(11) 0.8102(8) 1.2621(5)
H75 H 0.8528 0.8309 1.2771
C108 C 0.8581(8) 0.7671(7) 1.2675(4)
H76 H 0.8652 0.7583 1.2882
C109 C 0.8595(7) 0.6882(4) 1.3495(4)
H77 H 0.8337 0.6922 1.3326
C110 C 0.8436(10) 0.7107(6) 1.3777(5)
H78 H 0.8075 0.7239 1.3808
C111 C 0.8913(7) 0.7100(4) 1.4008(3)
H79 H 0.8908 0.7274 1.4185
C112 C 0.9359(6) 0.6837(4) 1.3957(3)
C113 C 0.9416(6) 0.6612(4) 1.3674(3)
H80 H 0.9737 0.6435 1.3645
C114 C 0.9853(6) 0.6815(4) 1.4203(3)
C115 C 1.0335(7) 0.7030(4) 1.4591(3)
C116 C 1.0777(8) 0.6593(5) 1.4318(4)
C117 C 1.0336(9) 0.7297(5) 1.4892(4)
C118 C 1.0821(9) 0.7327(5) 1.5113(5)
H81 H 1.1153 0.7164 1.5074
C119 C 1.0831(9) 0.7591(6) 1.5390(5)
H82 H 1.1124 0.7573 1.5545
C120 C 1.0376(11) 0.7869(7) 1.5408(6)
H83 H 1.0335 0.8021 1.5596
C121 C 0.9978(7) 0.7623(5) 1.4949(4)
H84 H 0.9663 0.7614 1.4808
C122 C 1.0063(9) 0.9178(7) 1.5029(4)
C123 C 1.1794(7) 0.6355(5) 1.4372(4)
H85 H 1.1768 0.6498 1.4564
C124 C 1.1303(7) 0.6353(5) 1.4177(4)
C125 C 1.1251(8) 0.6071(6) 1.3913(4)
H86 H 1.0899 0.6046 1.3802
C126 C 1.1710(11) 0.5850(7) 1.3834(5)
H87 H 1.1693 0.5643 1.3678
C127 C 1.2314(9) 0.5958(6) 1.4025(5)
H88 H 1.2668 0.5875 1.3932
C128 C 0.8411(7) 1.0720(5) 1.2265(4)
H89 H 0.8456 1.0908 1.2098
C129 C 0.7871(9) 1.0484(6) 1.2286(5)
H90 H 0.7610 1.0458 1.2116
C130 C 0.7775(8) 1.0301(5) 1.2578(4)
H91 H 0.7404 1.0185 1.2612
C131 C 0.8158(8) 1.0271(5) 1.2816(4)
C132 C 0.8702(7) 1.0495(5) 1.2746(4)
H92 H 0.8984 1.0509 1.2906
C133 C 0.8126(8) 0.9974(6) 1.3074(5)
C134 C 0.7768(6) 0.9414(5) 1.3286(4)
C135 C 0.8265(8) 0.9854(6) 1.3620(5)
C136 C 0.8578(9) 0.9693(7) 1.4155(5)
H93 H 0.8348 0.9453 1.4144
C137 C 0.8584(8) 0.9961(5) 1.3864(4)
C138 C 0.8960(9) 1.0304(7) 1.3956(5)
H94 H 0.9063 1.0490 1.3795
C139 C 0.9194(9) 1.0393(6) 1.4267(5)
H95 H 0.9350 1.0655 1.4313
C140 C 0.9184(7) 1.0099(5) 1.4483(4)
H96 H 0.9401 1.0135 1.4669
C141 C 0.6870(8) 0.8298(6) 1.3162(4)
H97 H 0.6713 0.8041 1.3102
C142 C 0.7311(7) 0.8287(5) 1.3394(4)
H98 H 0.7417 0.8046 1.3504
C143 C 0.7574(6) 0.8670(5) 1.3445(3)
H99 H 0.7870 0.8686 1.3598
C144 C 0.7440(7) 0.8998(5) 1.3298(4)
C145 C 0.6957(7) 0.8974(5) 1.3064(4)
H100 H 0.6863 0.9210 1.2945
C146 C 0.6748(9) 0.8920(6) 1.2108(5)
C147 C 0.7334(7) 0.9098(5) 1.1992(4)
C148 C 0.7681(7) 0.9322(5) 1.2242(4)
H101 H 0.7556 0.9401 1.2444
C149 C 0.8273(8) 0.9392(6) 1.2095(5)
H102 H 0.8519 0.9522 1.2243
C150 C 0.8604(11) 0.9325(8) 1.1792(6)
H103 H 0.8995 0.9393 1.1750
C151 C 0.8184(14) 0.9131(9) 1.1578(7)
H104 H 0.8296 0.9078 1.1368
C152 C 0.7589(8) 0.9017(5) 1.1682(4)
H105 H 0.7352 0.8879 1.1535
C153 C 0.4598(11) 0.4483(7) 1.2302(5)
C154 C 0.4589(17) 0.4945(7) 1.2366(6)
C155 C 0.4030(13) 0.5127(10) 1.2286(4)
H106 H 0.3742 0.4966 1.2187
C156 C 0.3919(9) 0.5547(12) 1.2357(6)
H107 H 0.3543 0.5648 1.2314
C157 C 0.4349(18) 0.5839(6) 1.2494(8)
H108 H 0.4284 0.6124 1.2518
C158 C 0.4881(12) 0.5630(11) 1.2585(6)
H109 H 0.5162 0.5786 1.2693
C159 C 0.5017(9) 0.5204(11) 1.2523(7)
H110 H 0.5380 0.5094 1.2584
C160 C 0.6316(7) 0.7868(5) 1.2288(4)
C161 C 0.6661(7) 0.7480(5) 1.2274(4)
C162 C 0.7039(8) 0.7310(6) 1.2530(4)
H111 H 0.7096 0.7485 1.2704
C163 C 0.7306(7) 0.6946(5) 1.2545(4)
H112 H 0.7511 0.6861 1.2726
C164 C 0.7266(7) 0.6705(5) 1.2285(4)
H113 H 0.7439 0.6443 1.2304
C165 C 0.7010(8) 0.6785(6) 1.1996(5)
H114 H 0.6999 0.6601 1.1824
C166 C 0.6757(8) 0.7206(6) 1.2000(4)
H115 H 0.6642 0.7312 1.1804
C167 C 0.5038(10) 0.3397(6) 1.1920(5)
C168 C 0.5128(10) 0.3266(6) 1.1563(5)
C169 C 0.4767(8) 0.3070(6) 1.1408(5)
H116 H 0.4408 0.3000 1.1502
C170 C 0.4879(10) 0.2947(6) 1.1093(5)
H117 H 0.4596 0.2814 1.0969
C171 C 0.5444(13) 0.3036(8) 1.0980(6)
H118 H 0.5545 0.2958 1.0774
C172 C 0.5898(11) 0.3258(7) 1.1187(6)
H119 H 0.6276 0.3315 1.1112
C173 C 0.5721(8) 0.3375(5) 1.1498(4)
H120 H 0.5967 0.3509 1.1643
C174 C 0.4372(8) 0.8103(5) 1.2027(4)
C175 C 0.3859(11) 0.7854(7) 1.1883(5)
C176 C 0.4015(7) 0.7687(6) 1.1569(5)
H121 H 0.4382 0.7741 1.1479
C177 C 0.3583(11) 0.7439(6) 1.1405(4)
H122 H 0.3691 0.7264 1.1238
C178 C 0.2993(10) 0.7469(6) 1.1505(5)
H123 H 0.2702 0.7318 1.1399
C179 C 0.2840(9) 0.7725(7) 1.1765(6)
H124 H 0.2444 0.7748 1.1822
C180 C 0.3245(13) 0.7941(7) 1.1935(5)
H125 H 0.3128 0.8142 1.2082
C181 C 0.4734(9) 0.9149(6) 1.1766(5)
C182 C 0.4407(6) 0.9398(4) 1.1497(4)
C183 C 0.4664(8) 0.9406(5) 1.1211(5)
H126 H 0.4994 0.9242 1.1171
C184 C 0.4445(9) 0.9648(6) 1.0987(5)
H127 H 0.4654 0.9696 1.0800
C185 C 0.3852(10) 0.9845(6) 1.1040(5)
H128 H 0.3655 0.9994 1.0881
C186 C 0.3626(8) 0.9791(6) 1.1335(5)
H129 H 0.3256 0.9905 1.1376
C187 C 0.3897(7) 0.9582(5) 1.1579(4)
H130 H 0.3742 0.9568 1.1783
C188 C 0.6697(9) 0.4046(5) 1.2659(4)
H131 H 0.6601 0.3946 1.2860
C189 C 0.7241(9) 0.4219(6) 1.2622(4)
H132 H 0.7546 0.4179 1.2767
C190 C 0.7297(7) 0.4449(6) 1.2361(4)
H133 H 0.7634 0.4612 1.2338
C191 C 0.6853(8) 0.4459(5) 1.2110(4)
C192 C 0.6336(7) 0.4279(5) 1.2154(3)
H134 H 0.6020 0.4323 1.2016
C193 C 0.6263(7) 0.8136(5) 1.1345(4)
H135 H 0.6601 0.8173 1.1467
C194 C 0.6290(8) 0.7877(6) 1.1037(5)
H136 H 0.6607 0.7708 1.0981
C195 C 0.5800(10) 0.7923(6) 1.0859(5)
H137 H 0.5809 0.7792 1.0661
C196 C 0.5332(8) 0.8118(5) 1.0922(4)
C197 C 0.5251(7) 0.8289(5) 1.1242(4)
H138 H 0.4885 0.8382 1.1313
C198 C 0.8430(9) 0.9718(7) 1.5353(6)
C199 C 0.8481(8) 1.0138(5) 1.5565(4)
C200 C 0.8299(9) 1.0205(7) 1.5856(5)
H139 H 0.8085 0.9992 1.5954
C201 C 0.8398(8) 1.0572(6) 1.6035(4)
H140 H 0.8179 1.0609 1.6220
C202 C 0.8788(12) 1.0873(8) 1.5954(6)
H141 H 0.8864 1.1112 1.6072
C203 C 0.9018(9) 1.0783(7) 1.5710(5)
H142 H 0.9334 1.0948 1.5646
C204 C 0.8865(8) 1.0463(6) 1.5514(4)
H143 H 0.9048 1.0463 1.5316
C205 C 1.3986(10) 0.6503(6) 1.4154(5)
C206 C 1.4102(7) 0.6609(5) 1.3834(4)
C207 C 1.3810(7) 0.6423(5) 1.3570(5)
H144 H 1.3514 0.6238 1.3631
C208 C 1.3864(7) 0.6454(5) 1.3252(4)
H145 H 1.3680 0.6292 1.3097
C209 C 1.4270(11) 0.6791(7) 1.3207(7)
H146 H 1.4257 0.6911 1.3005
C210 C 1.4703(9) 0.6983(6) 1.3424(5)
H147 H 1.5001 0.7166 1.3363
C211 C 1.4589(8) 0.6836(5) 1.3765(5)
H148 H 1.4855 0.6903 1.3926
C212 C 1.0647(8) 0.9402(6) 1.5080(4)
C213 C 1.0687(9) 0.9784(6) 1.5028(4)
H149 H 1.0358 0.9921 1.4947
C214 C 1.1237(10) 1.0037(6) 1.5086(5)
H150 H 1.1256 1.0321 1.5044
C215 C 1.1741(8) 0.9805(6) 1.5216(4)
H151 H 1.2116 0.9919 1.5239
C216 C 1.1602(9) 0.9401(6) 1.5300(4)
H152 H 1.1894 0.9278 1.5424
C217 C 1.1117(8) 0.9125(6) 1.5242(4)
H153 H 1.1091 0.8842 1.5290
C218 C 0.9236(8) 0.8571(6) 1.4436(4)
C219 C 0.9470(9) 0.8095(9) 1.4054(5)
H154 H 0.9543 0.7938 1.4236
C220 C 0.9273(9) 0.8499(9) 1.4091(5)
C221 C 0.9175(11) 0.8737(6) 1.3820(8)
H155 H 0.9061 0.9014 1.3837
C222 C 0.9254(13) 0.8544(9) 1.3507(6)
H156 H 0.9156 0.8691 1.3323
C223 C 0.9479(8) 0.8134(7) 1.3486(4)
H157 H 0.9567 0.8022 1.3287
C224 C 0.9569(11) 0.7903(7) 1.3752(7)
H158 H 0.9691 0.7627 1.3738
C225 C 1.3246(7) 0.7106(5) 1.4736(4)
C226 C 1.3068(8) 0.7574(6) 1.4715(3)
C227 C 1.2480(11) 0.7472(7) 1.4685(5)
H159 H 1.2368 0.7193 1.4686
C228 C 1.2037(10) 0.7791(11) 1.4653(7)
H160 H 1.1632 0.7771 1.4622
C229 C 1.2419(16) 0.8156(15) 1.4686(9)
H161 H 1.2188 0.8395 1.4694
C230 C 1.3029(12) 0.8270(8) 1.4710(6)
H162 H 1.3151 0.8547 1.4703
C231 C 1.3450(9) 0.7925(7) 1.4745(4)
H163 H 1.3856 0.7933 1.4778
C232 C 0.7464(6) 0.9067(4) 1.4751(3)
C233 C 0.6960(7) 0.8974(5) 1.4536(4)
C234 C 0.6961(7) 0.9151(5) 1.4237(4)
H164 H 0.7247 0.9349 1.4188
C235 C 0.6549(9) 0.9043(6) 1.4008(5)
H165 H 0.6600 0.9075 1.3789
C236 C 0.6080(9) 0.8891(6) 1.4144(5)
H166 H 0.5740 0.8910 1.4020
C237 C 0.5991(8) 0.8703(5) 1.4443(4)
H167 H 0.5656 0.8556 1.4505
C238 C 0.6457(9) 0.8770(6) 1.4621(5)
H168 H 0.6443 0.8667 1.4828
N1 N 0.4644(6) 0.6779(4) 0.9884(4)
N2 N 0.2344(5) 0.8797(4) 1.0715(3)
N3 N 0.6036(5) 0.5024(4) 1.0489(3)
N4 N 0.3692(5) 0.7898(4) 1.0486(3)
N5 N 0.4286(6) 0.8251(4) 1.0869(3)
N6 N 0.4723(6) 0.7732(4) 1.0536(3)
N7 N 0.7000(5) 0.5238(4) 1.1309(3)
N8 N 0.6571(5) 0.4617(3) 1.1557(3)
N9 N 0.7302(6) 0.5021(4) 1.1812(3)
N10 N 0.8461(5) 0.6060(3) 1.1839(2)
N11 N 0.8995(6) 0.6652(4) 1.3435(3)
N12 N 0.8828(6) 1.0683(4) 1.2467(3)
N13 N 0.9831(5) 0.7058(3) 1.4436(3)
N14 N 1.0270(6) 0.6538(4) 1.4106(3)
N15 N 1.0832(5) 0.6824(3) 1.4563(3)
N16 N 0.8378(7) 1.0119(5) 1.3336(4)
N17 N 0.8074(7) 0.9501(5) 1.3568(4)
N18 N 0.7750(5) 0.9678(4) 1.3062(3)
N19 N 0.8882(7) 0.9762(5) 1.4447(4)
N20 N 0.6652(5) 0.8626(4) 1.3020(3)
N21 N 1.2344(6) 0.6152(4) 1.4298(3)
N22 N 0.5756(7) 0.8306(4) 1.1436(3)
N23 N 0.6290(5) 0.4007(4) 1.2431(3)
N24 N 0.9922(6) 0.7949(4) 1.5137(4)
O1 O 0.5774(5) 0.6905(3) 0.9908(2)
O2 O 0.5994(4) 0.5996(3) 0.9879(2)
O3 O 0.6671(4) 0.6739(3) 0.9651(2)
O4 O 0.9520(3) 0.6140(3) 1.26142(18)
O5 O 0.5263(5) 0.6429(3) 0.9409(2)
O6 O 0.8741(4) 0.8838(3) 1.5099(2)
O7 O 0.6104(5) 0.6179(3) 0.9217(2)
O8 O 0.5421(5) 0.8624(3) 1.2323(2)
O9 O 0.2257(4) 0.8924(3) 1.0072(3)
O10 O 0.1862(6) 0.9426(3) 0.9737(3)
O11 O 0.1735(4) 0.9495(3) 1.0517(2)
O12 O 0.1236(4) 0.9913(3) 1.0161(2)
O13 O 0.5824(5) 0.5863(3) 1.0555(2)
O14 O 0.5300(4) 0.6409(3) 1.0364(2)
O15 O 0.5128(4) 0.5357(3) 1.0074(2)
O16 O 0.4707(4) 0.5946(3) 0.9870(2)
O17 O 0.8285(4) 0.5924(3) 1.2488(2)
O18 O 0.8402(5) 0.6168(3) 1.3004(3)
O19 O 0.8764(4) 0.6708(3) 1.2271(2)
O20 O 0.8929(4) 0.6912(3) 1.2797(2)
O21 O 0.9504(5) 0.5885(3) 1.3241(2)
O22 O 1.0344(5) 0.5673(3) 1.3020(3)
O23 O 1.0058(5) 0.6667(4) 1.3057(3)
O24 O 1.0760(4) 0.6427(3) 1.2739(2)
C239 C 1.0658(7) 0.6731(5) 1.2979(4)
O25 O 1.0073(5) 0.5398(3) 1.2384(3)
O26 O 0.9114(5) 0.5451(3) 1.2185(3)
O27 O 1.0517(5) 0.6180(3) 1.2123(3)
O28 O 0.9578(5) 0.6265(3) 1.1898(2)
O29 O 0.8123(4) 0.9430(3) 1.5493(2)
O30 O 0.8635(4) 0.9772(3) 1.5085(3)
O31 O 0.7442(4) 0.8871(3) 1.5025(2)
O32 O 0.7927(4) 0.9259(3) 1.4655(2)
O33 O 0.9648(5) 0.9398(3) 1.4876(3)
O34 O 1.0000(4) 0.8836(4) 1.5137(3)
O35 O 0.8992(4) 0.8922(3) 1.4427(2)
O36 O 0.9402(5) 0.8362(4) 1.4666(3)
O37 O 1.3767(5) 0.7060(3) 1.4864(3)
O38 O 1.2937(5) 0.6796(3) 1.4646(2)
O39 O 1.4357(5) 0.6592(3) 1.4358(3)
O40 O 1.3512(5) 0.6244(4) 1.4203(3)
O41 O 0.6598(4) 0.8908(3) 1.2405(2)
O42 O 0.6402(5) 0.8785(3) 1.1876(2)
O43 O 0.6336(5) 0.8073(3) 1.2530(3)
O44 O 0.6066(5) 0.7959(3) 1.2050(3)
O45 O 0.4474(5) 0.3369(3) 1.2010(2)
O46 O 0.5388(6) 0.3550(4) 1.2095(3)
O47 O 0.4187(6) 0.4226(4) 1.2188(3)
O48 O 0.5114(5) 0.4365(3) 1.2369(3)
O49 O 0.4443(5) 0.9076(3) 1.2032(3)
O50 O 0.5209(5) 0.8941(3) 1.1707(2)
O51 O 0.4214(4) 0.8306(3) 1.2264(2)
O52 O 0.4841(5) 0.8143(3) 1.1861(2)
Fe1 Fe 0.53407(10) 0.63743(7) 0.98855(5)
Fe2 Fe 0.16245(10) 0.89035(7) 1.04002(6)
Fe3 Fe 0.60003(9) 0.55239(7) 1.01540(5)
Fe4 Fe 0.90150(10) 0.61027(7) 1.22462(5)
Fe5 Fe 0.92457(10) 0.63737(8) 1.29851(5)
Fe6 Fe 0.96858(11) 1.09350(8) 1.24242(6)
Fe7 Fe 1.30676(9) 0.61624(7) 1.46184(5)
Fe8 Fe 0.92967(11) 0.84265(7) 1.51305(5)
Fe9 Fe 0.87943(10) 0.92837(7) 1.47971(5)
Fe10 Fe 0.56094(11) 0.84749(7) 1.19241(6)
Fe11 Fe 0.53702(11) 0.38022(7) 1.25500(6)
Fe12 Fe 0.60182(10) 0.86342(7) 1.26523(5)
C240 C 0.4179(6) 0.7687(4) 1.0375(3)
O2C O 0.0994(4) 0.9004(3) 1.0121(2)
O3C O 0.1671(4) 0.8261(3) 1.0349(2)
O4B O 1.0480(3) 1.1140(3) 1.23858(18)
O6C O 1.3741(4) 0.6162(3) 1.4901(2)
O7C O 0.1104(5) 0.8821(3) 1.0783(2)
O8B O 0.4579(5) 0.3624(3) 1.2677(2)
O10C O 0.6862(6) 0.5574(3) 1.0263(3)
O12C O 0.6236(4) 0.5087(3) 0.9839(2)
O22B O 0.9656(5) 1.0673(3) 1.1980(3)
O24B O 0.9240(4) 1.1427(3) 1.2261(2)
O25B O 0.9927(5) 1.0398(3) 1.2616(3)
O27B O 0.9483(5) 1.1180(3) 1.2877(3)
O29C O 1.3123(4) 0.5570(3) 1.4507(2)
O31C O 1.2442(4) 0.6129(3) 1.4975(2)
O37C O 0.8767(5) 0.7940(3) 1.5136(3)
O39C O 0.9357(5) 0.8408(3) 1.5642(3)
O45B O 0.5526(5) 0.8369(3) 1.2990(2)
O47B O 0.5813(6) 0.9226(4) 1.2812(3)
O49B O 0.5557(5) 0.4076(3) 1.2968(3)
O51B O 0.5786(4) 0.3306(3) 1.2736(2)
Fe2C Fe 0.66245(10) 0.60965(7) 0.95998(6)
Fe3C Fe 0.10003(9) 0.94761(7) 0.98460(5)
Fe6B Fe 1.03142(11) 0.59350(8) 1.25758(6)
Fe7C Fe 0.80676(9) 0.88376(7) 1.53816(5)
Fe8C Fe 1.42967(11) 0.65735(7) 1.48695(5)
Fe11B Fe 0.46298(11) 0.88022(7) 1.24500(6)
Fe12B Fe 0.39818(10) 0.36342(7) 1.23477(5)
loop_
_geom_bond_atom_site_label_1
_geom_bond_atom_site_label_2
_geom_bond_site_symmetry_1
_geom_bond_site_symmetry_2
C1 C2 1_555 1_555
C2 C3 1_555 1_555
C3 H1 1_555 1_555
C4 C3 1_555 1_555
H2 C4 1_555 1_555
C5 C4 1_555 1_555
H3 C5 1_555 1_555
C6 C5 1_555 1_555
H4 C6 1_555 1_555
C7 C2 1_555 1_555
H5 C7 1_555 1_555
C8 C9 1_555 1_555
C9 C10 1_555 1_555
C10 H6 1_555 1_555
C11 C10 1_555 1_555
H7 C11 1_555 1_555
C12 C11 1_555 1_555
H8 C12 1_555 1_555
C13 C12 1_555 1_555
H9 C13 1_555 1_555
C14 C9 1_555 1_555
H10 C14 1_555 1_555
C15 C16 1_555 1_555
C16 C17 1_555 1_555
C17 H11 1_555 1_555
C18 C17 1_555 1_555
H12 C18 1_555 1_555
C19 C18 1_555 1_555
H13 C19 1_555 1_555
C20 C19 1_555 1_555
H14 C20 1_555 1_555
C21 C16 1_555 1_555
H15 C21 1_555 1_555
C22 C23 1_555 1_555
C23 C24 1_555 1_555
C24 H16 1_555 1_555
C25 C24 1_555 1_555
H17 C25 1_555 1_555
C26 C25 1_555 1_555
H18 C26 1_555 1_555
C27 C26 1_555 1_555
H19 C27 1_555 1_555
C28 C23 1_555 1_555
H20 C28 1_555 1_555
C29 C30 1_555 1_555
C30 C31 1_555 1_555
C31 H21 1_555 1_555
C32 C31 1_555 1_555
H22 C32 1_555 1_555
C33 C32 1_555 1_555
H23 C33 1_555 1_555
C34 C33 1_555 1_555
H24 C34 1_555 1_555
C35 C30 1_555 1_555
H25 C35 1_555 1_555
C36 C37 1_555 1_555
C37 C38 1_555 1_555
C38 H26 1_555 1_555
C39 C38 1_555 1_555
H27 C39 1_555 1_555
C40 C39 1_555 1_555
H28 C40 1_555 1_555
C41 C40 1_555 1_555
H29 C41 1_555 1_555
C42 C37 1_555 1_555
H30 C42 1_555 1_555
C43 H31 1_555 1_555
C44 C43 1_555 1_555
H32 C44 1_555 1_555
C45 C44 1_555 1_555
H33 C45 1_555 1_555
C46 C45 1_555 1_555
C47 C46 1_555 1_555
H34 C47 1_555 1_555
C48 C46 1_555 1_555
C49 C196 1_555 1_555
C50 H35 1_555 1_555
C51 C50 1_555 1_555
C52 C51 1_555 1_555
H36 C52 1_555 1_555
C53 C52 1_555 1_555
H37 C53 1_555 1_555
C54 C53 1_555 1_555
H38 C54 1_555 1_555
C55 H39 1_555 1_555
C56 C55 1_555 1_555
H40 C56 1_555 1_555
C57 C56 1_555 1_555
H41 C57 1_555 1_555
C58 C57 1_555 1_555
C59 C58 1_555 1_555
H42 C59 1_555 1_555
C60 C58 1_555 1_555
C61 C63 1_555 1_555
C62 C191 1_555 1_555
C63 C64 1_555 1_555
C64 H43 1_555 1_555
C65 C64 1_555 1_555
H44 C65 1_555 1_555
C66 C65 1_555 1_555
H45 C66 1_555 1_555
C67 C63 1_555 1_555
H46 C67 1_555 1_555
C68 C69 1_555 1_555
C69 C70 1_555 1_555
C70 H47 1_555 1_555
C71 C70 1_555 1_555
H48 C71 1_555 1_555
C72 C71 1_555 1_555
H49 C72 1_555 1_555
C73 C72 1_555 1_555
H50 C73 1_555 1_555
C74 C69 1_555 1_555
H51 C74 1_555 1_555
C75 C76 1_555 1_555
C76 C77 1_555 1_555
C77 H52 1_555 1_555
C78 C77 1_555 1_555
H53 C78 1_555 1_555
C79 C78 1_555 1_555
H54 C79 1_555 1_555
C80 C79 1_555 1_555
H55 C80 1_555 1_555
C81 C76 1_555 1_555
H56 C81 1_555 1_555
C82 C83 1_555 1_555
C83 C84 1_555 1_555
C84 H57 1_555 1_555
C85 C84 1_555 1_555
H58 C85 1_555 1_555
C86 C85 1_555 1_555
H59 C86 1_555 1_555
C87 C86 1_555 1_555
H60 C87 1_555 1_555
C88 C83 1_555 1_555
H61 C88 1_555 1_555
C89 C90 1_555 1_555
C90 H62 1_555 1_555
C91 C90 1_555 1_555
H63 C91 1_555 1_555
C92 C91 1_555 1_555
H64 C92 1_555 1_555
C93 C92 1_555 1_555
H65 C93 1_555 1_555
C94 C89 1_555 1_555
H66 C94 1_555 1_555
C95 C96 1_555 1_555
C96 C97 1_555 1_555
C97 H67 1_555 1_555
C98 C97 1_555 1_555
H68 C98 1_555 1_555
C99 C98 1_555 1_555
H69 C99 1_555 1_555
C100 C99 1_555 1_555
H70 C100 1_555 1_555
C101 C96 1_555 1_555
H71 C101 1_555 1_555
C102 C103 1_555 1_555
C103 C104 1_555 1_555
C104 H72 1_555 1_555
C105 C104 1_555 1_555
H73 C105 1_555 1_555
C106 C105 1_555 1_555
H74 C106 1_555 1_555
C107 C106 1_555 1_555
H75 C107 1_555 1_555
C108 C103 1_555 1_555
H76 C108 1_555 1_555
C109 H77 1_555 1_555
C110 C109 1_555 1_555
H78 C110 1_555 1_555
C111 C110 1_555 1_555
H79 C111 1_555 1_555
C112 C111 1_555 1_555
C113 C112 1_555 1_555
H80 C113 1_555 1_555
C114 C112 1_555 1_555
C115 C117 1_555 1_555
C116 C124 1_555 1_555
C117 C118 1_555 1_555
C118 H81 1_555 1_555
C119 C118 1_555 1_555
H82 C119 1_555 1_555
C120 C119 1_555 1_555
H83 C120 1_555 1_555
C121 C117 1_555 1_555
H84 C121 1_555 1_555
C122 C212 1_555 1_555
C123 H85 1_555 1_555
C124 C123 1_555 1_555
C125 C124 1_555 1_555
H86 C125 1_555 1_555
C126 C125 1_555 1_555
H87 C126 1_555 1_555
C127 C126 1_555 1_555
H88 C127 1_555 1_555
C128 H89 1_555 1_555
C129 C128 1_555 1_555
H90 C129 1_555 1_555
C130 C129 1_555 1_555
H91 C130 1_555 1_555
C131 C130 1_555 1_555
C132 C131 1_555 1_555
H92 C132 1_555 1_555
C133 C131 1_555 1_555
C134 C144 1_555 1_555
C135 C137 1_555 1_555
C136 H93 1_555 1_555
C137 C136 1_555 1_555
C138 C137 1_555 1_555
H94 C138 1_555 1_555
C139 C138 1_555 1_555
H95 C139 1_555 1_555
C140 C139 1_555 1_555
H96 C140 1_555 1_555
C141 H97 1_555 1_555
C142 C141 1_555 1_555
H98 C142 1_555 1_555
C143 C142 1_555 1_555
H99 C143 1_555 1_555
C144 C143 1_555 1_555
C145 C144 1_555 1_555
H100 C145 1_555 1_555
C146 C147 1_555 1_555
C147 C148 1_555 1_555
C148 H101 1_555 1_555
C149 C148 1_555 1_555
H102 C149 1_555 1_555
C150 C149 1_555 1_555
H103 C150 1_555 1_555
C151 C150 1_555 1_555
H104 C151 1_555 1_555
C152 C147 1_555 1_555
H105 C152 1_555 1_555
C153 C154 1_555 1_555
C154 C155 1_555 1_555
C155 H106 1_555 1_555
C156 C155 1_555 1_555
H107 C156 1_555 1_555
C157 C156 1_555 1_555
H108 C157 1_555 1_555
C158 C157 1_555 1_555
H109 C158 1_555 1_555
C159 C154 1_555 1_555
H110 C159 1_555 1_555
C160 C161 1_555 1_555
C161 C162 1_555 1_555
C162 H111 1_555 1_555
C163 C162 1_555 1_555
H112 C163 1_555 1_555
C164 C163 1_555 1_555
H113 C164 1_555 1_555
C165 C164 1_555 1_555
H114 C165 1_555 1_555
C166 C161 1_555 1_555
H115 C166 1_555 1_555
C167 C168 1_555 1_555
C168 C169 1_555 1_555
C169 H116 1_555 1_555
C170 C169 1_555 1_555
H117 C170 1_555 1_555
C171 C170 1_555 1_555
H118 C171 1_555 1_555
C172 C171 1_555 1_555
H119 C172 1_555 1_555
C173 C168 1_555 1_555
H120 C173 1_555 1_555
C174 C175 1_555 1_555
C175 C176 1_555 1_555
C176 H121 1_555 1_555
C177 C176 1_555 1_555
H122 C177 1_555 1_555
C178 C177 1_555 1_555
H123 C178 1_555 1_555
C179 C178 1_555 1_555
H124 C179 1_555 1_555
C180 C175 1_555 1_555
H125 C180 1_555 1_555
C181 C182 1_555 1_555
C182 C183 1_555 1_555
C183 H126 1_555 1_555
C184 C183 1_555 1_555
H127 C184 1_555 1_555
C185 C184 1_555 1_555
H128 C185 1_555 1_555
C186 C185 1_555 1_555
H129 C186 1_555 1_555
C187 C182 1_555 1_555
H130 C187 1_555 1_555
C188 H131 1_555 1_555
C189 C188 1_555 1_555
H132 C189 1_555 1_555
C190 C189 1_555 1_555
H133 C190 1_555 1_555
C191 C190 1_555 1_555
C192 C191 1_555 1_555
H134 C192 1_555 1_555
C193 H135 1_555 1_555
C194 C193 1_555 1_555
H136 C194 1_555 1_555
C195 C194 1_555 1_555
H137 C195 1_555 1_555
C196 C195 1_555 1_555
C197 C196 1_555 1_555
H138 C197 1_555 1_555
C198 C199 1_555 1_555
C199 C200 1_555 1_555
C200 H139 1_555 1_555
C201 C200 1_555 1_555
H140 C201 1_555 1_555
C202 C201 1_555 1_555
H141 C202 1_555 1_555
C203 C202 1_555 1_555
H142 C203 1_555 1_555
C204 C199 1_555 1_555
H143 C204 1_555 1_555
C205 C206 1_555 1_555
C206 C207 1_555 1_555
C207 H144 1_555 1_555
C208 C207 1_555 1_555
H145 C208 1_555 1_555
C209 C208 1_555 1_555
H146 C209 1_555 1_555
C210 C209 1_555 1_555
H147 C210 1_555 1_555
C211 C206 1_555 1_555
H148 C211 1_555 1_555
C212 C213 1_555 1_555
C213 H149 1_555 1_555
C214 C213 1_555 1_555
H150 C214 1_555 1_555
C215 C214 1_555 1_555
H151 C215 1_555 1_555
C216 C215 1_555 1_555
H152 C216 1_555 1_555
C217 C212 1_555 1_555
H153 C217 1_555 1_555
C218 C220 1_555 1_555
C219 H154 1_555 1_555
C220 C219 1_555 1_555
C221 C220 1_555 1_555
H155 C221 1_555 1_555
C222 C221 1_555 1_555
H156 C222 1_555 1_555
C223 C222 1_555 1_555
H157 C223 1_555 1_555
C224 C219 1_555 1_555
H158 C224 1_555 1_555
C225 C226 1_555 1_555
C226 C227 1_555 1_555
C227 H159 1_555 1_555
C228 C227 1_555 1_555
H160 C228 1_555 1_555
C229 C228 1_555 1_555
H161 C229 1_555 1_555
C230 C229 1_555 1_555
H162 C230 1_555 1_555
C231 C226 1_555 1_555
H163 C231 1_555 1_555
C232 C233 1_555 1_555
C233 C234 1_555 1_555
C234 H164 1_555 1_555
C235 C234 1_555 1_555
H165 C235 1_555 1_555
C236 C235 1_555 1_555
H166 C236 1_555 1_555
C237 C236 1_555 1_555
H167 C237 1_555 1_555
C238 C233 1_555 1_555
H168 C238 1_555 1_555
N1 C50 1_555 1_555
N2 C43 1_555 1_555
N3 C55 1_555 1_555
N4 C48 1_555 1_555
N5 C48 1_555 1_555
N6 C49 1_555 1_555
N7 C60 1_555 1_555
N8 C60 1_555 1_555
N9 C61 1_555 1_555
N10 C66 1_555 1_555
N11 C109 1_555 1_555
N12 C128 1_555 1_555
N13 C114 1_555 1_555
N14 C114 1_555 1_555
N15 C115 1_555 1_555
N16 C133 1_555 1_555
N17 C134 1_555 1_555
N18 C133 1_555 1_555
N19 C136 1_555 1_555
N20 C141 1_555 1_555
N21 C123 1_555 1_555
N22 C193 1_555 1_555
N23 C188 1_555 1_555
N24 C120 1_555 1_555
O1 C1 1_555 1_555
O2 Fe1 1_555 1_555
O3 C1 1_555 1_555
O4 Fe4 1_555 1_555
O5 C8 1_555 1_555
O6 Fe8 1_555 1_555
O7 C8 1_555 1_555
O8 Fe10 1_555 1_555
O9 C15 1_555 1_555
O10 C15 1_555 1_555
O11 C22 1_555 1_555
O12 C22 1_555 1_555
O13 C29 1_555 1_555
O14 C29 1_555 1_555
O15 C36 1_555 1_555
O16 C36 1_555 1_555
O17 C95 1_555 1_555
O18 C95 1_555 1_555
O19 C102 1_555 1_555
O20 C102 1_555 1_555
O21 C82 1_555 1_555
O22 C82 1_555 1_555
O23 C239 1_555 1_555
O24 C239 1_555 1_555
C239 C89 1_555 1_555
O25 C75 1_555 1_555
O26 C75 1_555 1_555
O27 C68 1_555 1_555
O28 C68 1_555 1_555
O29 C198 1_555 1_555
O30 C198 1_555 1_555
O31 C232 1_555 1_555
O32 C232 1_555 1_555
O33 C122 1_555 1_555
O34 C122 1_555 1_555
O35 C218 1_555 1_555
O36 C218 1_555 1_555
O37 C225 1_555 1_555
O38 C225 1_555 1_555
O39 C205 1_555 1_555
O40 C205 1_555 1_555
O41 C146 1_555 1_555
O42 C146 1_555 1_555
O43 C160 1_555 1_555
O44 C160 1_555 1_555
O45 C167 1_555 1_555
O46 C167 1_555 1_555
O47 C153 1_555 1_555
O48 C153 1_555 1_555
O49 C181 1_555 1_555
O50 C181 1_555 1_555
O51 C174 1_555 1_555
O52 C174 1_555 1_555
Fe1 N1 1_555 1_555
Fe2 N2 1_555 1_555
Fe3 N3 1_555 1_555
Fe4 N10 1_555 1_555
Fe5 N11 1_555 1_555
Fe6 N12 1_555 1_555
Fe7 N21 1_555 1_555
Fe8 N24 1_555 1_555
Fe9 N19 1_555 1_555
Fe10 N22 1_555 1_555
Fe11 N23 1_555 1_555
Fe12 N20 1_555 1_555
C240 C51 1_555 1_555
O2C Fe2 1_555 1_555
O3C Fe2 1_555 1_555
O4B Fe6 1_555 1_555
O6C Fe7 1_555 1_555
O7C Fe2 1_555 1_555
O8B Fe11 1_555 1_555
O10C Fe3 1_555 1_555
O12C Fe3 1_555 1_555
O22B Fe6 1_555 1_555
O24B Fe6 1_555 1_555
O25B Fe6 1_555 1_555
O27B Fe6 1_555 1_555
O29C Fe7 1_555 1_555
O31C Fe7 1_555 1_555
O37C Fe8 1_555 1_555
O39C Fe8 1_555 1_555
O45B Fe12 1_555 1_555
O47B Fe12 1_555 1_555
O49B Fe11 1_555 1_555
O51B Fe11 1_555 1_555
Fe2C O2 1_555 1_555
Fe3C O10 1_555 1_555
Fe6B O4 1_555 1_555
Fe7C O6 1_555 1_555
Fe8C O37 1_555 1_555
Fe11B O8 1_555 1_555
Fe12B O45 1_555 1_555
C6 C7 1_555 1_555
C13 C14 1_555 1_555
C20 C21 1_555 1_555
C27 C28 1_555 1_555
C34 C35 1_555 1_555
C41 C42 1_555 1_555
C47 N2 1_555 1_555
C49 N5 1_555 1_555
C54 N1 1_555 1_555
C59 N3 1_555 1_555
C61 N7 1_555 1_555
C62 N8 1_555 1_555
C62 N9 1_555 1_555
C67 N10 1_555 1_555
C73 C74 1_555 1_555
C80 C81 1_555 1_555
C87 C88 1_555 1_555
C93 C94 1_555 1_555
C100 C101 1_555 1_555
C107 C108 1_555 1_555
C113 N11 1_555 1_555
C115 N13 1_555 1_555
C116 N14 1_555 1_555
C116 N15 1_555 1_555
C121 N24 1_555 1_555
C127 N21 1_555 1_555
C132 N12 1_555 1_555
C134 N18 1_555 1_555
C135 N16 1_555 1_555
C135 N17 1_555 1_555
C140 N19 1_555 1_555
C145 N20 1_555 1_555
C151 C152 1_555 1_555
C158 C159 1_555 1_555
C165 C166 1_555 1_555
C172 C173 1_555 1_555
C179 C180 1_555 1_555
C186 C187 1_555 1_555
C192 N23 1_555 1_555
C197 N22 1_555 1_555
C203 C204 1_555 1_555
C210 C211 1_555 1_555
C216 C217 1_555 1_555
C223 C224 1_555 1_555
C230 C231 1_555 1_555
C237 C238 1_555 1_555
N4 C240 1_555 1_555
N6 C240 1_555 1_555
O1 Fe1 1_555 1_555
O2 Fe3 1_555 1_555
O3 Fe2C 1_555 1_555
O4 Fe5 1_555 1_555
O5 Fe1 1_555 1_555
O6 Fe9 1_555 1_555
O7 Fe2C 1_555 1_555
O8 Fe12 1_555 1_555
O9 Fe2 1_555 1_555
O11 Fe2 1_555 1_555
O12 Fe3C 1_555 1_555
O13 Fe3 1_555 1_555
O14 Fe1 1_555 1_555
O15 Fe3 1_555 1_555
O16 Fe1 1_555 1_555
O17 Fe4 1_555 1_555
O18 Fe5 1_555 1_555
O19 Fe4 1_555 1_555
O20 Fe5 1_555 1_555
O21 Fe5 1_555 1_555
O22 Fe6B 1_555 1_555
O23 Fe5 1_555 1_555
O24 Fe6B 1_555 1_555
O25 Fe6B 1_555 1_555
O26 Fe4 1_555 1_555
O27 Fe6B 1_555 1_555
O28 Fe4 1_555 1_555
O29 Fe7C 1_555 1_555
O30 Fe9 1_555 1_555
O31 Fe7C 1_555 1_555
O32 Fe9 1_555 1_555
O33 Fe9 1_555 1_555
O34 Fe8 1_555 1_555
O35 Fe9 1_555 1_555
O36 Fe8 1_555 1_555
O38 Fe7 1_555 1_555
O39 Fe8C 1_555 1_555
O40 Fe7 1_555 1_555
O41 Fe12 1_555 1_555
O42 Fe10 1_555 1_555
O43 Fe12 1_555 1_555
O44 Fe10 1_555 1_555
O46 Fe11 1_555 1_555
O47 Fe12B 1_555 1_555
O48 Fe11 1_555 1_555
O49 Fe11B 1_555 1_555
O50 Fe10 1_555 1_555
O51 Fe11B 1_555 1_555
O52 Fe10 1_555 1_555
O2C Fe3C 1_555 1_555
O6C Fe8C 1_555 1_555
O8B Fe12B 1_555 1_555

#END
