
#######################################################################
#
#                 Cambridge Crystallographic Data Centre
#                                CCDC 
#
#######################################################################
#
# If this CIF has been generated from an entry in the Cambridge 
# Structural Database, then it will include bibliographic, chemical, 
# crystal, experimental, refinement or atomic coordinate data resulting 
# from the CCDC's data processing and validation procedures.
#
#######################################################################

data_YEHNAB
_symmetry_cell_setting           orthorhombic
_symmetry_space_group_name_H-M   'P b c a'
_symmetry_Int_Tables_number      61
_space_group_name_Hall           '-P 2ac 2ab'
loop_
_symmetry_equiv_pos_site_id
_symmetry_equiv_pos_as_xyz
1 x,y,z
2 1/2-x,-y,1/2+z
3 1/2+x,1/2-y,-z
4 -x,1/2+y,1/2-z
5 -x,-y,-z
6 1/2+x,y,1/2-z
7 1/2-x,1/2+y,z
8 x,1/2-y,1/2+z
_cell_length_a                   15.101(3)
_cell_length_b                   10.3517(17)
_cell_length_c                   16.997(3)
_cell_angle_alpha                90
_cell_angle_beta                 90
_cell_angle_gamma                90
_cell_volume                     2656.99
loop_
_atom_site_label
_atom_site_type_symbol
_atom_site_fract_x
_atom_site_fract_y
_atom_site_fract_z
Cu1 Cu 0.07538(3) 0.78735(4) 0.21668(2)
P1 P 0.23622(6) 0.67593(9) 0.29629(5)
P2 P -0.01406(6) 0.52398(8) 0.17558(5)
O1 O 0.15565(16) 0.7597(2) 0.30872(12)
O2 O 0.26717(14) 0.59998(19) 0.36720(11)
O3 O 0.31211(13) 0.7584(2) 0.25899(12)
H1 H 0.3602 0.7297 0.2729
O4 O -0.03260(16) 0.6534(2) 0.21182(12)
O5 O -0.00124(16) 0.41518(19) 0.23396(13)
O6 O -0.08303(14) 0.49226(17) 0.11055(11)
H2 H -0.1311 0.5234 0.1225
N1 N 0.14789(17) 0.6384(3) 0.15809(15)
N2 N 0.10665(18) 0.8801(2) 0.11859(16)
N3 N 0.18495(18) 0.8909(2) 0.00913(14)
H3 H 0.2215 0.8684 -0.0271
C1 C 0.1999(2) 0.5637(3) 0.22000(17)
H4 H 0.2508 0.5225 0.1960
H5 H 0.1628 0.4971 0.2429
C2 C 0.0846(2) 0.5484(3) 0.11678(19)
H6 H 0.1134 0.4660 0.1076
H7 H 0.0684 0.5846 0.0662
C3 C 0.2061(2) 0.7024(3) 0.09983(18)
H8 H 0.2631 0.7212 0.1234
H9 H 0.2155 0.6458 0.0551
C4 C 0.1643(2) 0.8212(3) 0.07413(19)
C5 C 0.0884(3) 0.9979(3) 0.07976(19)
C6 C 0.0329(2) 1.0999(3) 0.09963(18)
H10 H -0.0013 1.0971 0.1451
C7 C 0.0300(2) 1.2046(3) 0.05049(19)
H11 H -0.0065 1.2739 0.0631
C8 C 0.0809(2) 1.2096(3) -0.0183(2)
H12 H 0.0778 1.2820 -0.0506
C9 C 0.1358(2) 1.1077(3) -0.0389(2)
H13 H 0.1700 1.1099 -0.0844
C10 C 0.1376(2) 1.0029(3) 0.01129(19)
Cu1C Cu -0.07538(3) 0.28735(4) 0.28332(2)
O5C O 0.00124(16) 0.91518(19) 0.26604(13)
loop_
_geom_bond_atom_site_label_1
_geom_bond_atom_site_label_2
_geom_bond_site_symmetry_1
_geom_bond_site_symmetry_2
Cu1 O1 1_555 1_555
P1 O1 1_555 1_555
P2 O4 1_555 1_555
O2 P1 1_555 1_555
O3 P1 1_555 1_555
H1 O3 1_555 1_555
O4 Cu1 1_555 1_555
O5 P2 1_555 1_555
O6 P2 1_555 1_555
H2 O6 1_555 1_555
N1 Cu1 1_555 1_555
N2 Cu1 1_555 1_555
N3 H3 1_555 1_555
C1 P1 1_555 1_555
H4 C1 1_555 1_555
H5 C1 1_555 1_555
C2 P2 1_555 1_555
H6 C2 1_555 1_555
H7 C2 1_555 1_555
C3 N1 1_555 1_555
H8 C3 1_555 1_555
H9 C3 1_555 1_555
C4 N2 1_555 1_555
C5 N2 1_555 1_555
C6 C5 1_555 1_555
H10 C6 1_555 1_555
C7 C6 1_555 1_555
H11 C7 1_555 1_555
C8 C7 1_555 1_555
H12 C8 1_555 1_555
C9 C8 1_555 1_555
H13 C9 1_555 1_555
C10 N3 1_555 1_555
Cu1C O5 1_555 1_555
O5C Cu1 1_555 1_555
N1 C1 1_555 1_555
N1 C2 1_555 1_555
N3 C4 1_555 1_555
C3 C4 1_555 1_555
C5 C10 1_555 1_555
C9 C10 1_555 1_555

#END
