
#######################################################################
#
#                 Cambridge Crystallographic Data Centre
#                                CCDC 
#
#######################################################################
#
# If this CIF has been generated from an entry in the Cambridge 
# Structural Database, then it will include bibliographic, chemical, 
# crystal, experimental, refinement or atomic coordinate data resulting 
# from the CCDC's data processing and validation procedures.
#
#######################################################################

data_YEHNEF
_symmetry_cell_setting           orthorhombic
_symmetry_space_group_name_H-M   'P b c a'
_symmetry_Int_Tables_number      61
_space_group_name_Hall           '-P 2ac 2ab'
loop_
_symmetry_equiv_pos_site_id
_symmetry_equiv_pos_as_xyz
1 x,y,z
2 1/2-x,-y,1/2+z
3 -x,1/2+y,1/2-z
4 1/2+x,1/2-y,-z
5 -x,-y,-z
6 1/2+x,y,1/2-z
7 x,1/2-y,1/2+z
8 1/2-x,1/2+y,z
_cell_length_a                   15.320(3)
_cell_length_b                   10.477(2)
_cell_length_c                   16.764(3)
_cell_angle_alpha                90
_cell_angle_beta                 90
_cell_angle_gamma                90
_cell_volume                     2690.75
loop_
_atom_site_label
_atom_site_type_symbol
_atom_site_fract_x
_atom_site_fract_y
_atom_site_fract_z
Fe1 Fe 0.07318(4) -0.21453(5) 0.21576(3)
P1 P 0.24316(8) -0.32732(11) 0.28193(7)
P2 P -0.00912(7) -0.47627(9) 0.16937(6)
O1 O 0.1701(2) -0.2334(3) 0.29296(16)
O2 O 0.2722(2) -0.3975(3) 0.35478(16)
O3 O 0.3215(2) -0.2533(3) 0.24332(19)
H1 H 0.3677 -0.2827 0.2600
O4 O -0.02426(18) -0.3446(3) 0.20543(15)
O5 O 0.00204(19) -0.5813(3) 0.22883(17)
O6 O -0.08223(18) -0.5066(3) 0.10761(17)
H2 H -0.1275 -0.4709 0.1210
N1 N 0.1520(2) -0.3742(3) 0.14681(18)
N2 N 0.1104(2) -0.1252(3) 0.11123(19)
N3 N 0.1846(2) -0.1188(3) -0.00193(19)
H3 H 0.2190 -0.1422 -0.0397
C1 C 0.2040(3) -0.4403(4) 0.2078(2)
H4 H 0.2533 -0.4825 0.1828
H5 H 0.1685 -0.5050 0.2336
C2 C 0.0876(3) -0.4611(4) 0.1081(2)
H6 H 0.1137 -0.5445 0.1004
H7 H 0.0716 -0.4275 0.0562
C3 C 0.2057(3) -0.3102(4) 0.0851(2)
H8 H 0.2097 -0.3640 0.0382
H9 H 0.2642 -0.2961 0.1053
C4 C 0.1649(3) -0.1859(4) 0.0636(2)
C5 C 0.0931(3) -0.0085(4) 0.0735(2)
C6 C 0.0410(3) 0.0919(4) 0.0967(3)
H10 H 0.0089 0.0890 0.1437
C7 C 0.0384(3) 0.1966(4) 0.0473(3)
H11 H 0.0046 0.2667 0.0617
C8 C 0.0853(3) 0.1998(4) -0.0240(3)
H12 H 0.0818 0.2722 -0.0560
C9 C 0.1361(3) 0.1005(4) -0.0484(3)
H13 H 0.1669 0.1028 -0.0962
C10 C 0.1394(3) -0.0050(4) 0.0023(2)
Fe1B Fe -0.07318(4) -0.71453(5) 0.28424(3)
O5B O -0.00204(19) -0.0813(3) 0.27117(17)
loop_
_geom_bond_atom_site_label_1
_geom_bond_atom_site_label_2
_geom_bond_site_symmetry_1
_geom_bond_site_symmetry_2
Fe1 O1 1_555 1_555
P1 O1 1_555 1_555
P2 O4 1_555 1_555
O2 P1 1_555 1_555
O3 P1 1_555 1_555
H1 O3 1_555 1_555
O4 Fe1 1_555 1_555
O5 P2 1_555 1_555
O6 P2 1_555 1_555
H2 O6 1_555 1_555
N1 Fe1 1_555 1_555
N2 Fe1 1_555 1_555
N3 H3 1_555 1_555
C1 P1 1_555 1_555
H4 C1 1_555 1_555
H5 C1 1_555 1_555
C2 P2 1_555 1_555
H6 C2 1_555 1_555
H7 C2 1_555 1_555
C3 N1 1_555 1_555
H8 C3 1_555 1_555
H9 C3 1_555 1_555
C4 N2 1_555 1_555
C5 N2 1_555 1_555
C6 C5 1_555 1_555
H10 C6 1_555 1_555
C7 C6 1_555 1_555
H11 C7 1_555 1_555
C8 C7 1_555 1_555
H12 C8 1_555 1_555
C9 C8 1_555 1_555
H13 C9 1_555 1_555
C10 N3 1_555 1_555
Fe1B O5 1_555 1_555
O5B Fe1 1_555 1_555
N1 C1 1_555 1_555
N1 C2 1_555 1_555
N3 C4 1_555 1_555
C3 C4 1_555 1_555
C5 C10 1_555 1_555
C9 C10 1_555 1_555

#END
