
#######################################################################
#
#                 Cambridge Crystallographic Data Centre
#                                CCDC 
#
#######################################################################
#
# If this CIF has been generated from an entry in the Cambridge 
# Structural Database, then it will include bibliographic, chemical, 
# crystal, experimental, refinement or atomic coordinate data resulting 
# from the CCDC's data processing and validation procedures.
#
#######################################################################

data_YEHTOV
_symmetry_cell_setting           triclinic
_symmetry_space_group_name_H-M   'P -1'
_symmetry_Int_Tables_number      2
_space_group_name_Hall           '-P 1'
loop_
_symmetry_equiv_pos_site_id
_symmetry_equiv_pos_as_xyz
1 x,y,z
2 -x,-y,-z
_cell_length_a                   8.98370(10)
_cell_length_b                   9.504
_cell_length_c                   10.489
_cell_angle_alpha                65.706(9)
_cell_angle_beta                 77.856(10)
_cell_angle_gamma                73.184(10)
_cell_volume                     777.058
loop_
_atom_site_label
_atom_site_type_symbol
_atom_site_fract_x
_atom_site_fract_y
_atom_site_fract_z
Cd1 Cd 0.5000 0.0000 0.5000
S1 S 0.46802(9) -0.21854(8) 0.76336(7)
S2 S 0.70477(8) -0.28057(8) 0.48887(8)
O1 O 0.7709(2) -0.4249(2) 0.7872(2)
O2 O 0.5791(3) -0.5226(2) 0.7174(2)
P1 P 0.63198(8) -0.36684(8) 0.69171(7)
C1 C 0.1898(3) 0.0334(3) 0.3607(3)
H1 H 0.1809 0.1447 0.3184
C2 C 0.2711(3) -0.2141(3) 0.4774(3)
H2 H 0.3322 -0.3115 0.5341
C3 C 0.1410(3) -0.1986(3) 0.4236(3)
H3 H 0.0942 -0.2815 0.4351
C4 C -0.0474(3) 0.0348(3) 0.2698(3)
H4 H -0.0760 0.1495 0.2523
H5 H -0.1366 -0.0111 0.3277
C5 C -0.0211(3) 0.0144(3) 0.1308(2)
C6 C -0.1338(3) -0.0257(3) 0.0894(3)
H6 H -0.2267 -0.0437 0.1502
C7 C 0.1131(3) 0.0402(3) 0.0397(3)
H7 H 0.1920 0.0681 0.0662
C8 C 0.9098(5) -0.5428(5) 0.7682(5)
H8 H 0.8919 -0.6503 0.8257
H9 H 0.9291 -0.5313 0.6683
C9 C 1.0446(5) -0.5255(5) 0.8083(6)
H10 H 1.1361 -0.6056 0.7936
H11 H 1.0268 -0.5397 0.9079
H12 H 1.0630 -0.4195 0.7510
C10 C 0.5128(6) -0.6127(4) 0.8543(4)
H13 H 0.4120 -0.5481 0.8799
H14 H 0.5843 -0.6401 0.9252
C11 C 0.4874(4) -0.7578(4) 0.8540(4)
H15 H 0.4421 -0.8181 0.9475
H16 H 0.5875 -0.8223 0.8300
H17 H 0.4157 -0.7304 0.7844
N1 N 0.3022(2) -0.0671(2) 0.4378(2)
N2 N 0.0894(2) -0.0401(2) 0.3489(2)
Cd1_2 Cd -0.5000 0.0000 -0.5000
S1A S 0.53198(9) 0.21854(8) 0.23664(7)
S2A S 0.29523(8) 0.28057(8) 0.51113(8)
O1A O 0.2291(2) 0.4249(2) 0.2128(2)
O2A O 0.4209(3) 0.5226(2) 0.2826(2)
P1A P 0.36802(8) 0.36684(8) 0.30829(7)
C1A C -0.1898(3) -0.0334(3) -0.3607(3)
H1A H -0.1809 -0.1447 -0.3184
C2A C -0.2711(3) 0.2141(3) -0.4774(3)
H2A H -0.3322 0.3115 -0.5341
C3A C -0.1410(3) 0.1986(3) -0.4236(3)
H3A H -0.0942 0.2815 -0.4351
C4A C 0.0474(3) -0.0348(3) -0.2698(3)
H4A H 0.0760 -0.1495 -0.2523
H5A H 0.1366 0.0111 -0.3277
C5A C 0.0211(3) -0.0144(3) -0.1308(2)
C6A C 0.1338(3) 0.0257(3) -0.0894(3)
H6A H 0.2267 0.0437 -0.1502
C7A C -0.1131(3) -0.0402(3) -0.0397(3)
H7A H -0.1920 -0.0681 -0.0662
C8A C 0.0902(5) 0.5428(5) 0.2318(5)
H8A H 0.1081 0.6503 0.1743
H9A H 0.0709 0.5313 0.3317
C9A C -0.0446(5) 0.5255(5) 0.1917(6)
H10A H -0.1361 0.6056 0.2064
H11A H -0.0268 0.5397 0.0921
H12A H -0.0630 0.4195 0.2490
C10A C 0.4872(6) 0.6127(4) 0.1457(4)
H13A H 0.5880 0.5481 0.1201
H14A H 0.4157 0.6401 0.0748
C11A C 0.5126(4) 0.7578(4) 0.1460(4)
H15A H 0.5579 0.8181 0.0525
H16A H 0.4125 0.8223 0.1700
H17A H 0.5843 0.7304 0.2156
N1A N -0.3022(2) 0.0671(2) -0.4378(2)
N1A_2 N 0.6978(2) 0.0671(2) 0.5622(2)
N2A N -0.0894(2) 0.0401(2) -0.3489(2)
loop_
_geom_bond_atom_site_label_1
_geom_bond_atom_site_label_2
_geom_bond_site_symmetry_1
_geom_bond_site_symmetry_2
Cd1 S1 1_555 1_555
S1 P1 1_555 1_555
S2 Cd1 1_555 1_555
O1 P1 1_555 1_555
O2 P1 1_555 1_555
P1 S2 1_555 1_555
C1 H1 1_555 1_555
C2 H2 1_555 1_555
C3 C2 1_555 1_555
H3 C3 1_555 1_555
C4 H4 1_555 1_555
H5 C4 1_555 1_555
C5 C4 1_555 1_555
C6 C5 1_555 1_555
H6 C6 1_555 1_555
C7 C5 1_555 1_555
H7 C7 1_555 1_555
C8 O1 1_555 1_555
H8 C8 1_555 1_555
H9 C8 1_555 1_555
C9 C8 1_555 1_555
H10 C9 1_555 1_555
H11 C9 1_555 1_555
H12 C9 1_555 1_555
C10 O2 1_555 1_555
H13 C10 1_555 1_555
H14 C10 1_555 1_555
C11 C10 1_555 1_555
H15 C11 1_555 1_555
H16 C11 1_555 1_555
H17 C11 1_555 1_555
N1 Cd1 1_555 1_555
N2 C1 1_555 1_555
Cd1_2 N1A 1_555 1_555
S1A Cd1 1_555 1_555
S2A Cd1 1_555 1_555
O1A P1A 1_555 1_555
O2A P1A 1_555 1_555
P1A S1A 1_555 1_555
C1A H1A 1_555 1_555
C2A H2A 1_555 1_555
C3A C2A 1_555 1_555
H3A C3A 1_555 1_555
C4A H4A 1_555 1_555
H5A C4A 1_555 1_555
C5A C4A 1_555 1_555
C6A C7 1_555 1_555
H6A C6A 1_555 1_555
C7A C6 1_555 1_555
H7A C7A 1_555 1_555
C8A O1A 1_555 1_555
H8A C8A 1_555 1_555
H9A C8A 1_555 1_555
C9A C8A 1_555 1_555
H10A C9A 1_555 1_555
H11A C9A 1_555 1_555
H12A C9A 1_555 1_555
C10A O2A 1_555 1_555
H13A C10A 1_555 1_555
H14A C10A 1_555 1_555
C11A C10A 1_555 1_555
H15A C11A 1_555 1_555
H16A C11A 1_555 1_555
H17A C11A 1_555 1_555
N1A C1A 1_555 1_555
N1A_2 Cd1 1_555 1_555
N2A C1A 1_555 1_555
C1 N1 1_555 1_555
C2 N1 1_555 1_555
C3 N2 1_555 1_555
C4 N2 1_555 1_555
S2A P1A 1_555 1_555
C2A N1A 1_555 1_555
C3A N2A 1_555 1_555
C4A N2A 1_555 1_555
C5A C6A 1_555 1_555
C5A C7A 1_555 1_555

#END
