
#######################################################################
#
#                 Cambridge Crystallographic Data Centre
#                                CCDC 
#
#######################################################################
#
# If this CIF has been generated from an entry in the Cambridge 
# Structural Database, then it will include bibliographic, chemical, 
# crystal, experimental, refinement or atomic coordinate data resulting 
# from the CCDC's data processing and validation procedures.
#
#######################################################################

data_YEHTIP
_symmetry_cell_setting           monoclinic
_symmetry_space_group_name_H-M   'C 2/c'
_symmetry_Int_Tables_number      15
_space_group_name_Hall           '-C 2yn'
loop_
_symmetry_equiv_pos_site_id
_symmetry_equiv_pos_as_xyz
1 x,y,z
2 1/2+x,1/2+y,z
3 -x,y,1/2-z
4 1/2-x,1/2+y,1/2-z
5 -x,-y,-z
6 1/2-x,1/2-y,-z
7 x,-y,1/2+z
8 1/2+x,1/2-y,1/2+z
_cell_length_a                   18.5196(7)
_cell_length_b                   10.2337(3)
_cell_length_c                   14.0241(11)
_cell_angle_alpha                90.00
_cell_angle_beta                 90.190(18)
_cell_angle_gamma                90.00
_cell_volume                     2657.89
loop_
_atom_site_label
_atom_site_type_symbol
_atom_site_fract_x
_atom_site_fract_y
_atom_site_fract_z
Cd1 Cd 0.5000 -0.16124(3) 0.7500
P1 P 0.58607(4) -0.29184(7) 0.57204(5)
S1 S 0.50512(4) -0.16915(8) 0.55284(5)
S2 S 0.60059(4) -0.34757(8) 0.70568(5)
N1 N 0.58555(12) 0.0028(2) 0.76054(16)
N2 N 0.65001(14) 0.1770(2) 0.72569(17)
C1 C 0.5660(2) -0.4109(4) 0.4076(2)
H1 H 0.5625 -0.4989 0.3805
H2 H 0.6063 -0.3642 0.3778
H3 H 0.5210 -0.3633 0.3956
C2 C 0.68742(19) -0.1125(3) 0.5580(3)
H4 H 0.7321 -0.0936 0.5235
H5 H 0.6975 -0.1153 0.6267
H6 H 0.6518 -0.0439 0.5447
C3 C 0.59048(16) 0.1067(3) 0.7054(2)
H7 H 0.5564 0.1291 0.6574
C4 C 0.64511(17) 0.0074(3) 0.8184(2)
H8 H 0.6565 -0.0548 0.8665
C5 C 0.68517(18) 0.1131(3) 0.7973(2)
H9 H 0.7294 0.1382 0.8266
C6 C 0.6735(2) 0.2971(3) 0.6775(3)
H10 H 0.7058 0.3467 0.7208
H11 H 0.6308 0.3522 0.6640
C7 C 0.71288(15) 0.2708(3) 0.5852(2)
C8 C 0.68747(17) 0.3196(3) 0.5016(3)
H12 H 0.6440 0.3689 0.5013
C9 C 0.77625(19) 0.2009(4) 0.5833(2)
H13 H 0.7954 0.1663 0.6409
O1 O 0.57841(12) -0.4199(2) 0.50897(15)
O2 O 0.65944(11) -0.2360(2) 0.52774(15)
Cd1G Cd 1.0000 0.66124(3) 0.2500
P1B P 0.41393(4) -0.29184(7) 0.92796(5)
S1B S 0.49488(4) -0.16915(8) 0.94716(5)
S2B S 0.39941(4) -0.34757(8) 0.79432(5)
N1E N 0.91445(12) 0.4972(2) 0.23946(16)
N1B N 0.41445(12) 0.0028(2) 0.73946(16)
N2E N 0.84999(14) 0.3230(2) 0.27431(17)
C1B C 0.4340(2) -0.4109(4) 1.0924(2)
H1B H 0.4375 -0.4989 1.1195
H2B H 0.3937 -0.3642 1.1222
H3B H 0.4790 -0.3633 1.1044
C2B C 0.31258(19) -0.1125(3) 0.9420(3)
H4B H 0.2679 -0.0936 0.9765
H5B H 0.3025 -0.1153 0.8733
H6B H 0.3482 -0.0439 0.9553
C3E C 0.90952(16) 0.3933(3) 0.2946(2)
H7E H 0.9436 0.3709 0.3426
C4E C 0.85489(17) 0.4926(3) 0.1816(2)
H8E H 0.8435 0.5548 0.1335
C5E C 0.81483(18) 0.3869(3) 0.2027(2)
H9E H 0.7706 0.3618 0.1734
C6E C 0.8265(2) 0.2029(3) 0.3225(3)
H10E H 0.7942 0.1533 0.2792
H11E H 0.8692 0.1478 0.3360
C7E C 0.78712(15) 0.2292(3) 0.4148(2)
C8E C 0.81253(17) 0.1804(3) 0.4984(3)
H12E H 0.8560 0.1311 0.4987
C9E C 0.72375(19) 0.2991(4) 0.4167(2)
H13E H 0.7046 0.3337 0.3591
O1B O 0.42159(12) -0.4199(2) 0.99103(15)
O2B O 0.34056(11) -0.2360(2) 0.97226(15)
loop_
_geom_bond_atom_site_label_1
_geom_bond_atom_site_label_2
_geom_bond_site_symmetry_1
_geom_bond_site_symmetry_2
Cd1 S1 1_555 1_555
P1 S1 1_555 1_555
S2 Cd1 1_555 1_555
N1 Cd1 1_555 1_555
N2 C3 1_555 1_555
C1 H1 1_555 1_555
H2 C1 1_555 1_555
H3 C1 1_555 1_555
C2 H4 1_555 1_555
H5 C2 1_555 1_555
H6 C2 1_555 1_555
C3 N1 1_555 1_555
H7 C3 1_555 1_555
C4 N1 1_555 1_555
H8 C4 1_555 1_555
C5 N2 1_555 1_555
H9 C5 1_555 1_555
C6 N2 1_555 1_555
H10 C6 1_555 1_555
H11 C6 1_555 1_555
C7 C6 1_555 1_555
C8 C7 1_555 1_555
H12 C8 1_555 1_555
C9 C7 1_555 1_555
H13 C9 1_555 1_555
O1 P1 1_555 1_555
O2 P1 1_555 1_555
Cd1G N1E 1_555 1_555
P1B S1B 1_555 1_555
S1B Cd1 1_555 1_555
S2B Cd1 1_555 1_555
N1E C3E 1_555 1_555
N1B Cd1 1_555 1_555
N2E C3E 1_555 1_555
C1B H1B 1_555 1_555
H2B C1B 1_555 1_555
H3B C1B 1_555 1_555
C2B H4B 1_555 1_555
H5B C2B 1_555 1_555
H6B C2B 1_555 1_555
C3E H7E 1_555 1_555
C4E N1E 1_555 1_555
H8E C4E 1_555 1_555
C5E N2E 1_555 1_555
H9E C5E 1_555 1_555
C6E N2E 1_555 1_555
H10E C6E 1_555 1_555
H11E C6E 1_555 1_555
C7E C6E 1_555 1_555
C8E C9 1_555 1_555
H12E C8E 1_555 1_555
C9E C8 1_555 1_555
H13E C9E 1_555 1_555
O1B P1B 1_555 1_555
O2B P1B 1_555 1_555
P1 S2 1_555 1_555
C1 O1 1_555 1_555
C2 O2 1_555 1_555
C4 C5 1_555 1_555
P1B S2B 1_555 1_555
C1B O1B 1_555 1_555
C2B O2B 1_555 1_555
C4E C5E 1_555 1_555
C7E C8E 1_555 1_555
C7E C9E 1_555 1_555

#END
