
#######################################################################
#
#                 Cambridge Crystallographic Data Centre
#                                CCDC 
#
#######################################################################
#
# If this CIF has been generated from an entry in the Cambridge 
# Structural Database, then it will include bibliographic, chemical, 
# crystal, experimental, refinement or atomic coordinate data resulting 
# from the CCDC's data processing and validation procedures.
#
#######################################################################

data_YEHYOB
_symmetry_cell_setting           monoclinic
_symmetry_space_group_name_H-M   'P 21/c'
_symmetry_Int_Tables_number      14
_space_group_name_Hall           '-P 2ybc'
loop_
_symmetry_equiv_pos_site_id
_symmetry_equiv_pos_as_xyz
1 x,y,z
2 -x,1/2+y,1/2-z
3 -x,-y,-z
4 x,1/2-y,1/2+z
_cell_length_a                   7.9282(7)
_cell_length_b                   31.309(3)
_cell_length_c                   11.0598(10)
_cell_angle_alpha                90
_cell_angle_beta                 95.9580(10)
_cell_angle_gamma                90
_cell_volume                     2730.48
loop_
_atom_site_label
_atom_site_type_symbol
_atom_site_fract_x
_atom_site_fract_y
_atom_site_fract_z
Zn1 Zn 1.02012(3) 0.618159(7) 0.85702(2)
N1 N 0.8536(2) 0.62875(5) 0.67787(15)
N2 N 0.98187(18) 0.55823(5) 0.77149(13)
N3 N 1.16882(19) 0.56943(5) 0.97701(14)
N4 N 0.7957(2) 0.43867(6) 0.50739(16)
O1 O 0.83293(17) 0.63353(5) 0.95088(13)
O2 O 1.03550(18) 0.66348(5) 1.07487(14)
O3 O 0.0801(2) 0.79482(5) 1.31324(17)
O4 O 0.23018(17) 0.85456(4) 1.31838(13)
C1 C 0.8848(2) 0.65737(6) 1.04164(18)
C2 C 0.7510(2) 0.67885(6) 1.10764(18)
C3 C 0.7976(3) 0.70935(7) 1.19596(19)
H1 H 0.9116 0.7161 1.2145
C4 C 0.6772(3) 0.72979(7) 1.2566(2)
H2 H 0.7113 0.7500 1.3158
C5 C 0.5067(3) 0.72075(6) 1.2308(2)
C6 C 0.4592(3) 0.69050(8) 1.1432(2)
H3 H 0.3450 0.6840 1.1245
C7 C 0.5806(3) 0.66954(7) 1.0826(2)
H4 H 0.5465 0.6490 1.0245
C8 C 0.3733(3) 0.74405(7) 1.2942(2)
H5 H 0.2629 0.7319 1.2682
H6 H 0.3957 0.7397 1.3812
C9 C 0.3692(3) 0.79092(7) 1.2684(2)
H7 H 0.3759 0.7951 1.1822
H8 H 0.4690 0.8039 1.3116
C10 C 0.2137(3) 0.81397(6) 1.30363(18)
C11 C 0.7902(3) 0.66602(7) 0.6357(2)
H9 H 0.8185 0.6907 0.6800
C12 C 0.6846(3) 0.66928(8) 0.5291(2)
H10 H 0.6421 0.6957 0.5024
C13 C 0.6428(3) 0.63329(9) 0.4629(2)
H11 H 0.5731 0.6350 0.3901
C14 C 0.7052(3) 0.59416(8) 0.5052(2)
H12 H 0.6773 0.5691 0.4625
C15 C 0.8102(2) 0.59354(6) 0.61302(17)
C16 C 0.8849(2) 0.55367(6) 0.66585(16)
N5 N 0.8546(2) 0.51641(5) 0.61038(14)
C17 C 0.9299(2) 0.48269(6) 0.66718(17)
N6 N 1.0329(2) 0.48428(5) 0.77132(14)
C18 C 1.0547(2) 0.52279(6) 0.81963(16)
C19 C 0.8946(3) 0.43971(7) 0.61360(18)
C20 C 0.9577(3) 0.40360(7) 0.6718(2)
H13 H 1.0265 0.4054 0.7451
C21 C 0.9170(4) 0.36437(8) 0.6193(3)
H14 H 0.9572 0.3394 0.6574
C22 C 0.8185(4) 0.36262(9) 0.5123(3)
H15 H 0.7903 0.3365 0.4753
C23 C 0.7606(3) 0.40049(9) 0.4590(2)
H16 H 0.6933 0.3992 0.3851
C24 C 1.1636(2) 0.52894(6) 0.93547(16)
C25 C 1.2519(2) 0.49585(6) 0.99523(18)
H17 H 1.2429 0.4681 0.9649
C26 C 1.3538(3) 0.50487(7) 1.10109(19)
H18 H 1.4156 0.4833 1.1432
C27 C 1.3625(3) 0.54605(7) 1.14306(19)
H19 H 1.4316 0.5529 1.2135
C28 C 1.2672(3) 0.57725(7) 1.07936(18)
H20 H 1.2722 0.6050 1.1095
Zn1C Zn 0.02012(3) 0.881841(7) 1.35702(2)
O4C O 1.23018(17) 0.64544(4) 0.81838(13)
O5 O 0.4715(2) 0.40624(6) 0.17849(19)
H21 H 0.5521 0.3886 0.1748
H22 H 0.4012 0.3942 0.1259
O6 O 0.0603(4) 0.73525(7) 0.5046(2)
H23 H 0.0486 0.7564 0.5510
H24 H 0.0650 0.7478 0.4369
O7 O 0.5822(4) 0.49771(10) 0.3652(3)
H25 H 0.6048 0.4956 0.4215
H26 H 0.5355 0.4741 0.3149
loop_
_geom_bond_atom_site_label_1
_geom_bond_atom_site_label_2
_geom_bond_site_symmetry_1
_geom_bond_site_symmetry_2
Zn1 N1 1_555 1_555
N1 C11 1_555 1_555
N2 Zn1 1_555 1_555
N3 Zn1 1_555 1_555
N4 C19 1_555 1_555
O1 Zn1 1_555 1_555
O2 C1 1_555 1_555
O3 C10 1_555 1_555
O4 C10 1_555 1_555
C1 O1 1_555 1_555
C2 C1 1_555 1_555
C3 C2 1_555 1_555
H1 C3 1_555 1_555
C4 C3 1_555 1_555
H2 C4 1_555 1_555
C5 C4 1_555 1_555
C6 C5 1_555 1_555
H3 C6 1_555 1_555
C7 C2 1_555 1_555
H4 C7 1_555 1_555
C8 C5 1_555 1_555
H5 C8 1_555 1_555
H6 C8 1_555 1_555
C9 C8 1_555 1_555
H7 C9 1_555 1_555
H8 C9 1_555 1_555
C10 C9 1_555 1_555
C11 H9 1_555 1_555
C12 C11 1_555 1_555
H10 C12 1_555 1_555
C13 C12 1_555 1_555
H11 C13 1_555 1_555
C14 C13 1_555 1_555
H12 C14 1_555 1_555
C15 N1 1_555 1_555
C16 N2 1_555 1_555
N5 C16 1_555 1_555
C17 N5 1_555 1_555
N6 C17 1_555 1_555
C18 N2 1_555 1_555
C19 C17 1_555 1_555
C20 C19 1_555 1_555
H13 C20 1_555 1_555
C21 C20 1_555 1_555
H14 C21 1_555 1_555
C22 C21 1_555 1_555
H15 C22 1_555 1_555
C23 N4 1_555 1_555
H16 C23 1_555 1_555
C24 N3 1_555 1_555
C25 C24 1_555 1_555
H17 C25 1_555 1_555
C26 C25 1_555 1_555
H18 C26 1_555 1_555
C27 C26 1_555 1_555
H19 C27 1_555 1_555
C28 N3 1_555 1_555
H20 C28 1_555 1_555
O5 H21 1_555 1_555
H22 O5 1_555 1_555
O6 H23 1_555 1_555
H24 O6 1_555 1_555
O7 H25 1_555 1_555
H26 O7 1_555 1_555
Zn1C O4 1_555 1_555
O4C Zn1 1_555 1_555
C6 C7 1_555 1_555
C14 C15 1_555 1_555
C15 C16 1_555 1_555
N6 C18 1_555 1_555
C18 C24 1_555 1_555
C22 C23 1_555 1_555
C27 C28 1_555 1_555

#END
