
#######################################################################
#
#                 Cambridge Crystallographic Data Centre
#                                CCDC 
#
#######################################################################
#
# If this CIF has been generated from an entry in the Cambridge 
# Structural Database, then it will include bibliographic, chemical, 
# crystal, experimental, refinement or atomic coordinate data resulting 
# from the CCDC's data processing and validation procedures.
#
#######################################################################

data_YEJBIA
_symmetry_cell_setting           tetragonal
_symmetry_space_group_name_H-M   'I 41/a'
_symmetry_Int_Tables_number      88
_space_group_name_Hall           '-I 4ad'
loop_
_symmetry_equiv_pos_site_id
_symmetry_equiv_pos_as_xyz
1 x,y,z
2 3/4-y,1/4+x,1/4+z
3 1/2-x,-y,1/2+z
4 3/4+y,3/4-x,3/4+z
5 1/2+x,1/2+y,1/2+z
6 1/4-y,3/4+x,3/4+z
7 -x,1/2-y,z
8 1/4+y,1/4-x,1/4+z
9 -x,-y,-z
10 1/4+y,3/4-x,3/4-z
11 1/2+x,y,1/2-z
12 1/4-y,1/4+x,1/4-z
13 1/2-x,1/2-y,1/2-z
14 3/4+y,1/4-x,1/4-z
15 x,1/2+y,-z
16 3/4-y,3/4+x,3/4-z
_cell_length_a                   20.1422(13)
_cell_length_b                   20.1422(13)
_cell_length_c                   33.803(2)
_cell_angle_alpha                90
_cell_angle_beta                 90
_cell_angle_gamma                90
_cell_volume                     13714.2
loop_
_atom_site_label
_atom_site_type_symbol
_atom_site_fract_x
_atom_site_fract_y
_atom_site_fract_z
O19 O 0.6885(4) 0.9202(5) 0.1037(2)
H3 H 0.6932 0.9200 0.0787
H4 H 0.6474 0.9186 0.1094
O20 O 0.1342(13) 0.8143(9) 0.2551(6)
H5 H 0.1641 0.7847 0.2571
H6 H 0.1404 0.8439 0.2726
H1 H -0.317(5) 0.917(5) 0.164(3)
H2 H -0.316(7) 0.959(8) 0.184(4)
Pb1 Pb -0.156210(16) 0.487370(15) 0.000690(9)
Pb2 Pb -0.008880(16) 0.652610(15) -0.003790(9)
Pb3 Pb -0.221840(18) 0.88364(2) 0.228800(11)
S1 S -0.24010(14) 0.7337(2) 0.17601(9)
S2 S 0.00494(11) 0.51536(11) -0.06207(6)
O1 O -0.1865(3) 0.5675(3) 0.05844(19)
O2 O -0.1315(3) 0.6234(3) 0.01285(17)
O3 O -0.1191(3) 0.8708(3) 0.02422(17)
O4 O -0.1888(4) 0.9185(3) 0.06479(19)
O5 O -0.1909(7) 0.7619(7) 0.1995(4)
O6 O -0.2928(6) 0.7783(10) 0.1785(4)
O7 O -0.2548(4) 0.6670(5) 0.1851(2)
O8 O 0.0184(3) 0.4457(4) -0.06328(18)
O9 O -0.0503(3) 0.5316(3) -0.03582(17)
O10 O 0.0624(3) 0.5566(3) -0.05218(17)
O11 O 0.0731(3) 0.6880(3) -0.17888(18)
O12 O -0.0061(3) 0.6800(3) -0.22311(15)
O13 O -0.1734(3) 0.5007(3) -0.21596(18)
O14 O -0.1547(3) 0.4200(4) -0.1729(2)
O15 O -0.2722(4) 0.5319(3) -0.0220(2)
O16 O 0.0000 0.7500 0.0532(3)
O17 O -0.1047(9) 0.8741(7) 0.2534(5)
O18 O -0.3101(5) 0.9270(5) 0.1851(3)
N1 N -0.2756(4) 0.6049(5) -0.0724(3)
N2 N 0.0000 0.7500 0.1176(4)
N3 N -0.0228(11) 0.8712(12) 0.2943(6)
C1 C -0.1630(4) 0.6201(4) 0.0451(2)
C2 C -0.1731(4) 0.6828(4) 0.0684(2)
C3 C -0.1594(4) 0.7441(4) 0.0513(2)
H7 H -0.1418 0.7461 0.0259
C4 C -0.1719(4) 0.8023(4) 0.0720(3)
C5 C -0.1984(5) 0.7978(5) 0.1103(3)
H8 H -0.2084 0.8363 0.1243
C6 C -0.2095(5) 0.7366(6) 0.1271(3)
C7 C -0.1991(5) 0.6790(5) 0.1067(3)
H9 H -0.2091 0.6381 0.1180
C8 C -0.1591(4) 0.8686(4) 0.0526(2)
C9 C -0.0208(4) 0.5393(4) -0.1099(2)
C10 C 0.0087(4) 0.5923(4) -0.1294(2)
H10 H 0.0428 0.6161 -0.1176
C11 C -0.0136(4) 0.6092(4) -0.1671(2)
C12 C -0.0645(4) 0.5731(4) -0.1846(2)
H11 H -0.0796 0.5848 -0.2096
C13 C -0.0932(4) 0.5189(4) -0.1648(2)
C14 C -0.0711(4) 0.5023(4) -0.1276(2)
H12 H -0.0896 0.4663 -0.1144
C15 C 0.0199(4) 0.6633(4) -0.1905(2)
C16 C -0.1447(4) 0.4768(4) -0.1851(3)
C17 C -0.2985(5) 0.5783(5) -0.0404(3)
H13 H -0.3380 0.5954 -0.0303
C18 C -0.2168(6) 0.5803(7) -0.0925(4)
H14 H -0.1781 0.5926 -0.0776
H15 H -0.2143 0.5992 -0.1185
H16 H -0.2191 0.5328 -0.0945
C19 C -0.3109(8) 0.6603(8) -0.0914(5)
H17 H -0.3542 0.6649 -0.0799
H18 H -0.3151 0.6518 -0.1192
H19 H -0.2862 0.7006 -0.0874
C20 C -0.0045(8) 0.7807(11) 0.0832(3)
H20 H -0.0106 0.8280 0.0823
C21 C 0.0232(13) 0.6967(19) 0.1429(8)
H21 H -0.0077 0.6604 0.1432
H22 H 0.0282 0.7141 0.1692
H23 H 0.0655 0.6814 0.1334
C22 C -0.0833(15) 0.8590(11) 0.2829(8)
H24 H -0.1108 0.8361 0.3003
C23 C 0.021(2) 0.908(2) 0.2696(12)
H25 H 0.0404 0.8778 0.2507
H26 H 0.0556 0.9258 0.2861
H27 H -0.0012 0.9430 0.2560
C24 C 0.0081(13) 0.8564(14) 0.3325(8)
H28 H 0.0166 0.8967 0.3469
H29 H 0.0492 0.8335 0.3280
H30 H -0.0211 0.8286 0.3477
H1N H -0.317(5) 0.417(5) -0.164(3)
H2N H -0.316(7) 0.459(8) -0.184(4)
Pb1N Pb -0.156210(16) -0.012630(15) -0.000690(9)
Pb1N_2 Pb -0.156210(16) 0.987370(15) -0.000690(9)
Pb1H Pb 0.156210(16) 0.512630(15) -0.000690(9)
Pb1E Pb -0.237370(15) 0.593790(16) -0.249310(9)
Pb1M Pb 0.237370(15) 0.406210(16) 0.249310(9)
Pb1K Pb -0.237370(15) 1.093790(16) 0.249310(9)
Pb2N Pb -0.008880(16) 0.152610(15) 0.003790(9)
Pb2O Pb 0.097390(15) 0.741120(16) -0.246210(9)
Pb2I Pb -0.097390(15) 0.758880(16) -0.246210(9)
Pb2F Pb 0.008880(16) 0.847390(15) -0.003790(9)
Pb2G Pb -0.097390(15) 0.258880(16) 0.246210(9)
Pb2A Pb 0.097390(15) 0.241120(16) 0.246210(9)
Pb3N Pb -0.221840(18) 0.38364(2) -0.228800(11)
Pb3M Pb -0.36636(2) 0.471840(18) 0.021200(11)
Pb3F Pb 0.221840(18) 0.61636(2) 0.228800(11)
S1N S -0.24010(14) 0.2337(2) -0.17601(9)
S2H S -0.00494(11) 0.48464(11) 0.06207(6)
O1N O -0.1865(3) 0.0675(3) -0.05844(19)
O2N O -0.1315(3) 0.1234(3) -0.01285(17)
O3N O -0.1191(3) 0.3708(3) -0.02422(17)
O3_2 O -0.1191(3) -0.1292(3) 0.02422(17)
O4N O -0.1888(4) 0.4185(3) -0.06479(19)
O4_2 O -0.1888(4) -0.0815(3) 0.06479(19)
O5N O -0.1909(7) 0.2619(7) -0.1995(4)
O6N O -0.2928(6) 0.2783(10) -0.1785(4)
O7N O -0.2548(4) 0.1670(5) -0.1851(2)
O8H O -0.0184(3) 0.5543(4) 0.06328(18)
O9H O 0.0503(3) 0.4684(3) 0.03582(17)
O9N O -0.0503(3) 0.0316(3) 0.03582(17)
O10H O -0.0624(3) 0.4434(3) 0.05218(17)
O10F O -0.0624(3) -0.0566(3) -0.05218(17)
O11H O -0.0731(3) 0.3120(3) 0.17888(18)
O11I O -0.0620(3) 0.6769(3) -0.07112(18)
O11G O -0.0620(3) 0.1769(3) 0.07112(18)
O12H O 0.0061(3) 0.3200(3) 0.22311(15)
O12O O 0.0700(3) 0.7439(3) -0.02689(15)
O12I O -0.0700(3) 0.7561(3) -0.02689(15)
O12A O 0.0700(3) 0.2439(3) 0.02689(15)
O12G O -0.0700(3) 0.2561(3) 0.02689(15)
O13H O 0.1734(3) 0.4993(3) 0.21596(18)
O13G O -0.2493(3) 0.4234(3) 0.03404(18)
O13N O -0.1734(3) 1.0007(3) 0.21596(18)
O13I O -0.2493(3) -0.0766(3) -0.03404(18)
O14H O 0.1547(3) 0.5800(4) 0.1729(2)
O14N O -0.1547(3) 0.9200(4) 0.1729(2)
O15K O -0.2819(3) 0.9778(4) 0.2720(2)
O15N O -0.2722(4) 0.0319(3) 0.0220(2)
O15E O -0.2819(3) 0.4778(4) -0.2720(2)
O16H O 0.0000 0.2500 -0.0532(3)
O17N O -0.1047(9) 0.3741(7) -0.2534(5)
O18N O -0.3101(5) 0.4270(5) -0.1851(3)
N1K N -0.3549(5) 0.9744(4) 0.3224(3)
N3N N -0.0228(11) 0.3712(12) -0.2943(6)
C1N C -0.1630(4) 0.1201(4) -0.0451(2)
C2N C -0.1731(4) 0.1828(4) -0.0684(2)
C3N C -0.1594(4) 0.2441(4) -0.0513(2)
H7N H -0.1418 0.2461 -0.0259
C4N C -0.1719(4) 0.3023(4) -0.0720(3)
C5N C -0.1984(5) 0.2978(5) -0.1103(3)
H8N H -0.2084 0.3363 -0.1243
C6N C -0.2095(5) 0.2366(6) -0.1271(3)
C7N C -0.1991(5) 0.1790(5) -0.1067(3)
H9N H -0.2091 0.1381 -0.1180
C8N C -0.1591(4) 0.3686(4) -0.0526(2)
C9H C 0.0208(4) 0.4607(4) 0.1099(2)
C10H C -0.0087(4) 0.4077(4) 0.1294(2)
H10H H -0.0428 0.3839 0.1176
C11H C 0.0136(4) 0.3908(4) 0.1671(2)
C12H C 0.0645(4) 0.4269(4) 0.1846(2)
H11H H 0.0796 0.4152 0.2096
C13H C 0.0932(4) 0.4811(4) 0.1648(2)
C14H C 0.0711(4) 0.4977(4) 0.1276(2)
H12H H 0.0896 0.5337 0.1144
C15H C -0.0199(4) 0.3367(4) 0.1905(2)
C16H C 0.1447(4) 0.5232(4) 0.1851(3)
C17K C -0.3283(5) 0.9515(5) 0.2904(3)
H13K H -0.3454 0.9120 0.2803
C18K C -0.3303(7) 1.0332(6) 0.3425(4)
H14K H -0.3426 1.0719 0.3276
H15K H -0.3492 1.0357 0.3685
H16K H -0.2828 1.0309 0.3445
C19K C -0.4103(8) 0.9391(8) 0.3414(5)
H17K H -0.4149 0.8958 0.3299
H18K H -0.4018 0.9349 0.3692
H19K H -0.4506 0.9638 0.3374
C20F C 0.0045(8) 0.7193(11) 0.0832(3)
H20F H 0.0106 0.6720 0.0823
C21F C -0.0232(13) 0.8033(19) 0.1429(8)
H21F H 0.0077 0.8396 0.1432
H22F H -0.0282 0.7859 0.1692
H23F H -0.0655 0.8186 0.1334
C22N C -0.0833(15) 0.3590(11) -0.2829(8)
H24N H -0.1108 0.3361 -0.3003
C23N C 0.021(2) 0.408(2) -0.2696(12)
H25N H 0.0404 0.3778 -0.2507
H26N H 0.0556 0.4258 -0.2861
H27N H -0.0012 0.4430 -0.2560
C24N C 0.0081(13) 0.3564(14) -0.3325(8)
H28N H 0.0166 0.3967 -0.3469
H29N H 0.0492 0.3335 -0.3280
H30N H -0.0211 0.3286 -0.3477
loop_
_geom_bond_atom_site_label_1
_geom_bond_atom_site_label_2
_geom_bond_site_symmetry_1
_geom_bond_site_symmetry_2
H1 O18 1_555 1_555
H2 O18 1_555 1_555
Pb1 O1 1_555 1_555
Pb2 O2 1_555 1_555
Pb3 O5 1_555 1_555
S1 O5 1_555 1_555
S2 O8 1_555 1_555
O1 C1 1_555 1_555
O2 C1 1_555 1_555
O3 C8 1_555 1_555
O4 C8 1_555 1_555
O6 S1 1_555 1_555
O7 S1 1_555 1_555
O9 Pb1 1_555 1_555
O10 S2 1_555 1_555
O11 C15 1_555 1_555
O12 C15 1_555 1_555
O13 C16 1_555 1_555
O14 C16 1_555 1_555
O15 Pb1 1_555 1_555
O16 Pb2 1_555 1_555
O17 Pb3 1_555 1_555
O18 Pb3 1_555 1_555
O19 H3 1_555 1_555
H4 O19 1_555 1_555
O20 H5 1_555 1_555
H6 O20 1_555 1_555
N1 C17 1_555 1_555
N2 C20 1_555 1_555
N3 C22 1_555 1_555
C1 C2 1_555 1_555
C2 C3 1_555 1_555
C3 H7 1_555 1_555
C4 C3 1_555 1_555
C5 C4 1_555 1_555
H8 C5 1_555 1_555
C6 S1 1_555 1_555
C7 C2 1_555 1_555
H9 C7 1_555 1_555
C8 C4 1_555 1_555
C9 S2 1_555 1_555
C10 C9 1_555 1_555
H10 C10 1_555 1_555
C11 C10 1_555 1_555
C12 C11 1_555 1_555
H11 C12 1_555 1_555
C13 C12 1_555 1_555
C14 C9 1_555 1_555
H12 C14 1_555 1_555
C15 C11 1_555 1_555
C16 C13 1_555 1_555
C17 O15 1_555 1_555
H13 C17 1_555 1_555
C18 N1 1_555 1_555
H14 C18 1_555 1_555
H15 C18 1_555 1_555
H16 C18 1_555 1_555
C19 N1 1_555 1_555
H17 C19 1_555 1_555
H18 C19 1_555 1_555
H19 C19 1_555 1_555
C20 O16 1_555 1_555
H20 C20 1_555 1_555
C21 N2 1_555 1_555
H21 C21 1_555 1_555
H22 C21 1_555 1_555
H23 C21 1_555 1_555
C22 O17 1_555 1_555
H24 C22 1_555 1_555
C23 N3 1_555 1_555
H25 C23 1_555 1_555
H26 C23 1_555 1_555
H27 C23 1_555 1_555
C24 N3 1_555 1_555
H28 C24 1_555 1_555
H29 C24 1_555 1_555
H30 C24 1_555 1_555
H1N O18N 1_555 1_555
H2N O18N 1_555 1_555
Pb1N O1N 1_555 1_555
Pb1N_2 O3 1_555 1_555
Pb1H O10 1_555 1_555
Pb1E O13 1_555 1_555
Pb1M O13H 1_555 1_555
Pb1K O13N 1_555 1_555
Pb2N O2N 1_555 1_555
Pb2O O11 1_555 1_555
Pb2I O12 1_555 1_555
Pb2F O16 1_555 1_555
Pb2G O11H 1_555 1_555
Pb2A O12H 1_555 1_555
Pb3N O13 1_555 1_555
Pb3M O15 1_555 1_555
Pb3F O13H 1_555 1_555
S1N O5N 1_555 1_555
S2H O8H 1_555 1_555
O1N C1N 1_555 1_555
O2N C1N 1_555 1_555
O3N Pb1 1_555 1_555
O3_2 Pb1N 1_555 1_555
O4N Pb1 1_555 1_555
O4_2 Pb1N 1_555 1_555
O5N Pb3N 1_555 1_555
O6N S1N 1_555 1_555
O7N S1N 1_555 1_555
O9H Pb1H 1_555 1_555
O9N Pb1N 1_555 1_555
O10H Pb1 1_555 1_555
O10F Pb1N 1_555 1_555
O11H C15H 1_555 1_555
O11I Pb2 1_555 1_555
O11G Pb2N 1_555 1_555
O12H Pb2G 1_555 1_555
O12O Pb2 1_555 1_555
O12I Pb2 1_555 1_555
O12A Pb2N 1_555 1_555
O12G Pb2N 1_555 1_555
O13H C16H 1_555 1_555
O13G Pb1 1_555 1_555
O13N Pb3 1_555 1_555
O13I Pb1N 1_555 1_555
O14H Pb3F 1_555 1_555
O14N Pb3 1_555 1_555
O15K Pb3 1_555 1_555
O15N Pb1N 1_555 1_555
O15E Pb1E 1_555 1_555
O16H Pb2N 1_555 1_555
O17N Pb3N 1_555 1_555
O18N Pb3N 1_555 1_555
N1K C17K 1_555 1_555
N3N C22N 1_555 1_555
C1N C2N 1_555 1_555
C2N C3N 1_555 1_555
C3N H7N 1_555 1_555
C4N C3N 1_555 1_555
C5N C4N 1_555 1_555
H8N C5N 1_555 1_555
C6N S1N 1_555 1_555
C7N C2N 1_555 1_555
H9N C7N 1_555 1_555
C8N O3N 1_555 1_555
C9H S2H 1_555 1_555
C10H C9H 1_555 1_555
H10H C10H 1_555 1_555
C11H C10H 1_555 1_555
C12H C11H 1_555 1_555
H11H C12H 1_555 1_555
C13H C12H 1_555 1_555
C14H C9H 1_555 1_555
H12H C14H 1_555 1_555
C15H O12H 1_555 1_555
C16H O14H 1_555 1_555
C17K O15K 1_555 1_555
H13K C17K 1_555 1_555
C18K N1K 1_555 1_555
H14K C18K 1_555 1_555
H15K C18K 1_555 1_555
H16K C18K 1_555 1_555
C19K N1K 1_555 1_555
H17K C19K 1_555 1_555
H18K C19K 1_555 1_555
H19K C19K 1_555 1_555
C20F O16 1_555 1_555
H20F C20F 1_555 1_555
C21F N2 1_555 1_555
H21F C21F 1_555 1_555
H22F C21F 1_555 1_555
H23F C21F 1_555 1_555
C22N O17N 1_555 1_555
H24N C22N 1_555 1_555
C23N N3N 1_555 1_555
H25N C23N 1_555 1_555
H26N C23N 1_555 1_555
H27N C23N 1_555 1_555
C24N N3N 1_555 1_555
H28N C24N 1_555 1_555
H29N C24N 1_555 1_555
H30N C24N 1_555 1_555
S2 O9 1_555 1_555
O4 Pb1N_2 1_555 1_555
O12 Pb2O 1_555 1_555
O14 Pb3N 1_555 1_555
N2 C20F 1_555 1_555
C5 C6 1_555 1_555
C6 C7 1_555 1_555
C13 C14 1_555 1_555
C20 C20F 1_555 1_555
Pb1K O15K 1_555 1_555
Pb2F O12O 1_555 1_555
Pb2F O12I 1_555 1_555
Pb3N O15E 1_555 1_555
Pb3M O13G 1_555 1_555
S2H O9H 1_555 1_555
S2H O10H 1_555 1_555
O4N C8N 1_555 1_555
C4N C8N 1_555 1_555
C5N C6N 1_555 1_555
C6N C7N 1_555 1_555
C11H C15H 1_555 1_555
C13H C14H 1_555 1_555
C13H C16H 1_555 1_555

#END
