
#######################################################################
#
#                 Cambridge Crystallographic Data Centre
#                                CCDC 
#
#######################################################################
#
# If this CIF has been generated from an entry in the Cambridge 
# Structural Database, then it will include bibliographic, chemical, 
# crystal, experimental, refinement or atomic coordinate data resulting 
# from the CCDC's data processing and validation procedures.
#
#######################################################################

data_YEJBOG
_symmetry_cell_setting           triclinic
_symmetry_space_group_name_H-M   'P -1'
_symmetry_Int_Tables_number      2
_space_group_name_Hall           '-P 1'
loop_
_symmetry_equiv_pos_site_id
_symmetry_equiv_pos_as_xyz
1 x,y,z
2 -x,-y,-z
_cell_length_a                   8.316(3)
_cell_length_b                   14.081(5)
_cell_length_c                   15.541(6)
_cell_angle_alpha                96.045(7)
_cell_angle_beta                 94.660(7)
_cell_angle_gamma                91.155(6)
_cell_volume                     1802.96
loop_
_atom_site_label
_atom_site_type_symbol
_atom_site_fract_x
_atom_site_fract_y
_atom_site_fract_z
C1 C 0.6694(8) 0.2292(4) 0.4088(4)
H1 H 0.7580 0.2713 0.4207
C2 C 0.6890(8) 0.1333(5) 0.4225(4)
H2 H 0.7889 0.1122 0.4427
C3 C 0.5595(8) 0.0715(5) 0.4060(4)
H3 H 0.5704 0.0080 0.4163
C4 C 0.4097(7) 0.1030(4) 0.3736(4)
C5 C 0.4002(7) 0.2003(4) 0.3603(4)
C6 C 0.2472(8) 0.2366(4) 0.3243(4)
C7 C 0.1148(9) 0.3648(5) 0.2718(5)
H4 H 0.1155 0.4279 0.2591
C8 C -0.0243(8) 0.3100(5) 0.2518(5)
H5 H -0.1161 0.3369 0.2273
C9 C -0.0292(8) 0.2166(5) 0.2677(4)
H6 H -0.1238 0.1797 0.2546
C10 C 0.1110(7) 0.1768(4) 0.3040(4)
C11 C 0.1251(8) 0.0787(4) 0.3200(4)
C12 C 0.2691(8) 0.0435(4) 0.3522(4)
C13 C 0.1008(8) -0.0725(4) 0.3268(4)
C14 C 0.0333(9) -0.1720(5) 0.3179(4)
C15 C 0.0771(10) -0.2374(5) 0.2521(5)
C16 C -0.0670(8) -0.2079(5) 0.3749(4)
C17 C 0.0318(11) -0.3334(6) 0.2434(6)
H7 H 0.0660 -0.3755 0.1988
C18 C -0.0656(10) -0.3648(6) 0.3033(6)
H8 H -0.0979 -0.4288 0.2992
C19 C -0.1136(10) -0.3033(6) 0.3671(6)
H9 H -0.1795 -0.3252 0.4068
C20 C 0.4192(9) 0.6527(5) 0.3825(4)
H10 H 0.3743 0.6391 0.4328
C21 C 0.4410(10) 0.7502(5) 0.3678(5)
H11 H 0.4124 0.7994 0.4079
C22 C 0.5043(9) 0.7689(5) 0.2942(5)
H12 H 0.5199 0.8319 0.2831
C23 C 0.5464(8) 0.6953(4) 0.2348(4)
C24 C 0.5241(7) 0.5999(4) 0.2534(4)
C25 C 0.5657(7) 0.5195(4) 0.1935(4)
C26 C 0.5653(8) 0.3552(5) 0.1602(4)
H13 H 0.5431 0.2944 0.1751
C27 C 0.6261(9) 0.3637(5) 0.0815(5)
H14 H 0.6438 0.3100 0.0436
C28 C 0.6588(9) 0.4516(5) 0.0610(4)
H15 H 0.7028 0.4580 0.0087
C29 C 0.6296(8) 0.5340(5) 0.1150(4)
C30 C 0.6580(8) 0.6307(5) 0.0982(4)
C31 C 0.6194(9) 0.7059(5) 0.1553(4)
C32 C 0.7217(9) 0.7590(5) 0.0442(5)
C33 C 0.9253(8) 0.8442(5) -0.0327(4)
C34 C 0.7651(9) 0.8316(4) -0.0160(3)
C35 C 0.6481(8) 0.8901(5) -0.0492(4)
C36 C 0.6914(11) 0.9612(4) -0.0993(4)
H16 H 0.6132 1.0003 -0.1215
C37 C 0.8517(12) 0.9738(4) -0.1161(4)
H17 H 0.8806 1.0213 -0.1496
C38 C 0.9686(9) 0.9153(6) -0.0828(4)
H18 H 1.0758 0.9237 -0.0940
C39 C 0.7684(8) 0.5054(5) 0.4775(4)
C40 C 0.9389(8) 0.5235(5) 0.5133(4)
H19 H 0.9595 0.5725 0.5581
N1 N 0.5285(6) 0.2626(4) 0.3792(3)
N2 N 0.2494(7) 0.3307(4) 0.3088(3)
N3 N 0.0167(6) 0.0029(4) 0.3034(3)
H20 H -0.0823 0.0034 0.2827
N4 N 0.2528(7) -0.0529(3) 0.3576(3)
N5 N 0.4600(7) 0.5813(4) 0.3278(3)
N6 N 0.5370(6) 0.4305(4) 0.2159(3)
N7 N 0.6620(8) 0.7900(4) 0.1210(3)
N8 N 0.7247(7) 0.6649(4) 0.0273(3)
O1 O 0.7421(6) 0.4491(3) 0.4103(4)
O2 O 0.6616(6) 0.5502(4) 0.5148(4)
F1 F 0.1726(7) -0.2053(3) 0.1932(3)
F2 F 0.4873(6) 0.8795(3) -0.0396(3)
Cl1 Cl -0.1278(3) -0.13084(16) 0.45962(14)
Cl2 Cl 1.0595(5) 0.7807(3) 0.0017(3)
Cd1 Cd 0.47762(6) 0.42439(3) 0.36337(3)
C1A C 1.3306(8) 0.7708(4) 0.5912(4)
H1A H 1.2420 0.7287 0.5793
C2A C 1.3110(8) 0.8667(5) 0.5775(4)
H2A H 1.2111 0.8878 0.5573
C3A C 1.4405(8) 0.9285(5) 0.5940(4)
H3A H 1.4296 0.9920 0.5837
C4A C 1.5903(7) 0.8970(4) 0.6264(4)
C5A C 1.5998(7) 0.7997(4) 0.6397(4)
C6A C 1.7528(8) 0.7634(4) 0.6757(4)
C7A C 1.8852(9) 0.6352(5) 0.7282(5)
H4A H 1.8845 0.5721 0.7409
C8A C 2.0243(8) 0.6900(5) 0.7482(5)
H5A H 2.1161 0.6631 0.7727
C9A C 2.0292(8) 0.7834(5) 0.7323(4)
H6A H 2.1238 0.8203 0.7454
C10A C 1.8890(7) 0.8232(4) 0.6960(4)
C11A C 1.8749(8) 0.9213(4) 0.6800(4)
C12A C 1.7309(8) 0.9565(4) 0.6478(4)
C13A C 1.8992(8) 1.0725(4) 0.6732(4)
C14A C 1.9667(9) 1.1720(5) 0.6821(4)
C15A C 1.9229(10) 1.2374(5) 0.7479(5)
C16A C 2.0670(8) 1.2079(5) 0.6251(4)
C17A C 1.9682(11) 1.3334(6) 0.7566(6)
H7A H 1.9340 1.3755 0.8012
C18A C 2.0656(10) 1.3648(6) 0.6967(6)
H8A H 2.0979 1.4288 0.7008
C19A C 2.1136(10) 1.3033(6) 0.6329(6)
H9A H 2.1795 1.3252 0.5932
C20A C 1.5808(9) 0.3473(5) 0.6175(4)
H10A H 1.6257 0.3609 0.5672
C21A C 1.5590(10) 0.2498(5) 0.6322(5)
H11A H 1.5876 0.2006 0.5921
C22A C 1.4957(9) 0.2311(5) 0.7058(5)
H12A H 1.4801 0.1681 0.7169
C23A C 1.4536(8) 0.3047(4) 0.7652(4)
C24A C 1.4759(7) 0.4001(4) 0.7466(4)
C25A C 1.4343(7) 0.4805(4) 0.8065(4)
C26A C 1.4347(8) 0.6448(5) 0.8398(4)
H13A H 1.4569 0.7056 0.8249
C27A C 1.3739(9) 0.6363(5) 0.9185(5)
H14A H 1.3562 0.6900 0.9564
C28A C 1.3412(9) 0.5484(5) 0.9390(4)
H15A H 1.2972 0.5420 0.9913
C29A C 1.3704(8) 0.4660(5) 0.8850(4)
C30A C 1.3420(8) 0.3693(5) 0.9018(4)
C31A C 1.3806(9) 0.2941(5) 0.8447(4)
C32A C 1.2783(9) 0.2410(5) 0.9558(5)
C33A C 1.0747(8) 0.1558(5) 1.0327(4)
C34A C 1.2349(9) 0.1684(4) 1.0160(3)
C35A C 1.3519(8) 0.1099(5) 1.0492(4)
C36A C 1.3086(11) 0.0388(4) 1.0993(4)
H16A H 1.3868 -0.0003 1.1215
C37A C 1.1483(12) 0.0262(4) 1.1161(4)
H17A H 1.1194 -0.0213 1.1496
C38A C 1.0314(9) 0.0847(6) 1.0828(4)
H18A H 0.9242 0.0763 1.0940
C39A C 1.2316(8) 0.4946(5) 0.5225(4)
C40A C 1.0611(8) 0.4765(5) 0.4867(4)
H19A H 1.0405 0.4275 0.4419
N1A N 1.4715(6) 0.7374(4) 0.6208(3)
N2A N 1.7506(7) 0.6693(4) 0.6912(3)
N3A N 1.9833(6) 0.9971(4) 0.6966(3)
H20A H 2.0823 0.9966 0.7173
N4A N 1.7472(7) 1.0529(3) 0.6424(3)
N5A N 1.5400(7) 0.4187(4) 0.6722(3)
N6A N 1.4630(6) 0.5695(4) 0.7841(3)
N7A N 1.3380(8) 0.2100(4) 0.8790(3)
N8A N 1.2753(7) 0.3351(4) 0.9727(3)
O1A O 1.2579(6) 0.5509(3) 0.5897(4)
O2A O 1.3384(6) 0.4498(4) 0.4852(4)
O2A_2 O 0.3384(6) 0.4498(4) 0.4852(4)
O2_2 O 1.6616(6) 0.5502(4) 0.5148(4)
F1A F 1.8274(7) 1.2053(3) 0.8068(3)
F2A F 1.5127(6) 0.1205(3) 1.0396(3)
Cl1A Cl 2.1278(3) 1.13084(16) 0.54038(14)
Cl2A Cl 0.9405(5) 0.2193(3) 0.9983(3)
Cd1A Cd 1.52238(6) 0.57561(3) 0.63663(3)
Cd1A_2 Cd 0.52238(6) 0.57561(3) 0.63663(3)
Cd1_2 Cd 1.47762(6) 0.42439(3) 0.36337(3)
O3 O -0.2859(6) -0.0274(4) 0.2136(3)
H21 H -0.3184 -0.0752 0.1785
H22 H -0.2947 0.0209 0.1918
O4 O 0.9158(10) 0.5401(5) -0.0858(4)
H23 H 0.9540 0.5694 -0.0373
H24 H 0.8139 0.5400 -0.0836
loop_
_geom_bond_atom_site_label_1
_geom_bond_atom_site_label_2
_geom_bond_site_symmetry_1
_geom_bond_site_symmetry_2
C1 H1 1_555 1_555
C2 C1 1_555 1_555
H2 C2 1_555 1_555
C3 C2 1_555 1_555
H3 C3 1_555 1_555
C4 C3 1_555 1_555
C5 C4 1_555 1_555
C6 C5 1_555 1_555
C7 H4 1_555 1_555
C8 C7 1_555 1_555
H5 C8 1_555 1_555
C9 C8 1_555 1_555
H6 C9 1_555 1_555
C10 C6 1_555 1_555
C11 C10 1_555 1_555
C12 C4 1_555 1_555
C13 C14 1_555 1_555
C14 C15 1_555 1_555
C15 C17 1_555 1_555
C16 C14 1_555 1_555
C17 H7 1_555 1_555
C18 C17 1_555 1_555
H8 C18 1_555 1_555
C19 C16 1_555 1_555
H9 C19 1_555 1_555
C20 H10 1_555 1_555
C21 C20 1_555 1_555
H11 C21 1_555 1_555
C22 C21 1_555 1_555
H12 C22 1_555 1_555
C23 C22 1_555 1_555
C24 C23 1_555 1_555
C25 C24 1_555 1_555
C26 H13 1_555 1_555
C27 C26 1_555 1_555
H14 C27 1_555 1_555
C28 C27 1_555 1_555
H15 C28 1_555 1_555
C29 C25 1_555 1_555
C30 C29 1_555 1_555
C31 C23 1_555 1_555
C32 C34 1_555 1_555
C33 C34 1_555 1_555
C34 C35 1_555 1_555
C35 C36 1_555 1_555
C36 H16 1_555 1_555
C37 C36 1_555 1_555
H17 C37 1_555 1_555
C38 C33 1_555 1_555
H18 C38 1_555 1_555
C39 C40 1_555 1_555
C40 H19 1_555 1_555
N1 C1 1_555 1_555
N2 C6 1_555 1_555
N3 C11 1_555 1_555
H20 N3 1_555 1_555
N4 C12 1_555 1_555
N5 C20 1_555 1_555
N6 C25 1_555 1_555
N7 C31 1_555 1_555
N8 C30 1_555 1_555
O1 C39 1_555 1_555
O2 C39 1_555 1_555
O3 H21 1_555 1_555
H22 O3 1_555 1_555
O4 H23 1_555 1_555
H24 O4 1_555 1_555
F1 C15 1_555 1_555
F2 C35 1_555 1_555
Cl1 C16 1_555 1_555
Cl2 C33 1_555 1_555
Cd1 N1 1_555 1_555
C1A H1A 1_555 1_555
C2A C1A 1_555 1_555
H2A C2A 1_555 1_555
C3A C2A 1_555 1_555
H3A C3A 1_555 1_555
C4A C3A 1_555 1_555
C5A C4A 1_555 1_555
C6A C5A 1_555 1_555
C7A H4A 1_555 1_555
C8A C7A 1_555 1_555
H5A C8A 1_555 1_555
C9A C8A 1_555 1_555
H6A C9A 1_555 1_555
C10A C6A 1_555 1_555
C11A C10A 1_555 1_555
C12A C4A 1_555 1_555
C13A C14A 1_555 1_555
C14A C15A 1_555 1_555
C15A C17A 1_555 1_555
C16A C14A 1_555 1_555
C17A H7A 1_555 1_555
C18A C17A 1_555 1_555
H8A C18A 1_555 1_555
C19A C16A 1_555 1_555
H9A C19A 1_555 1_555
C20A H10A 1_555 1_555
C21A C20A 1_555 1_555
H11A C21A 1_555 1_555
C22A C21A 1_555 1_555
H12A C22A 1_555 1_555
C23A C22A 1_555 1_555
C24A C23A 1_555 1_555
C25A C24A 1_555 1_555
C26A H13A 1_555 1_555
C27A C26A 1_555 1_555
H14A C27A 1_555 1_555
C28A C27A 1_555 1_555
H15A C28A 1_555 1_555
C29A C25A 1_555 1_555
C30A C29A 1_555 1_555
C31A C23A 1_555 1_555
C32A C34A 1_555 1_555
C33A C34A 1_555 1_555
C34A C35A 1_555 1_555
C35A C36A 1_555 1_555
C36A H16A 1_555 1_555
C37A C36A 1_555 1_555
H17A C37A 1_555 1_555
C38A C33A 1_555 1_555
H18A C38A 1_555 1_555
C39A C40A 1_555 1_555
C40A C40 1_555 1_555
H19A C40A 1_555 1_555
N1A C1A 1_555 1_555
N2A C6A 1_555 1_555
N3A C11A 1_555 1_555
H20A N3A 1_555 1_555
N4A C12A 1_555 1_555
N5A C20A 1_555 1_555
N6A C25A 1_555 1_555
N7A C31A 1_555 1_555
N8A C30A 1_555 1_555
O1A C39A 1_555 1_555
O2A C39A 1_555 1_555
O2A_2 Cd1 1_555 1_555
O2_2 Cd1A 1_555 1_555
F1A C15A 1_555 1_555
F2A C35A 1_555 1_555
Cl1A C16A 1_555 1_555
Cl2A C33A 1_555 1_555
Cd1A N1A 1_555 1_555
Cd1A_2 O2 1_555 1_555
Cd1_2 O2A 1_555 1_555
C5 N1 1_555 1_555
C7 N2 1_555 1_555
C9 C10 1_555 1_555
C11 C12 1_555 1_555
C13 N3 1_555 1_555
C13 N4 1_555 1_555
C18 C19 1_555 1_555
C24 N5 1_555 1_555
C26 N6 1_555 1_555
C28 C29 1_555 1_555
C30 C31 1_555 1_555
C32 N7 1_555 1_555
C32 N8 1_555 1_555
C37 C38 1_555 1_555
N2 Cd1 1_555 1_555
N5 Cd1 1_555 1_555
N6 Cd1 1_555 1_555
O1 Cd1 1_555 1_555
C5A N1A 1_555 1_555
C7A N2A 1_555 1_555
C9A C10A 1_555 1_555
C11A C12A 1_555 1_555
C13A N3A 1_555 1_555
C13A N4A 1_555 1_555
C18A C19A 1_555 1_555
C24A N5A 1_555 1_555
C26A N6A 1_555 1_555
C28A C29A 1_555 1_555
C30A C31A 1_555 1_555
C32A N7A 1_555 1_555
C32A N8A 1_555 1_555
C37A C38A 1_555 1_555
N2A Cd1A 1_555 1_555
N5A Cd1A 1_555 1_555
N6A Cd1A 1_555 1_555
O1A Cd1A 1_555 1_555

#END
