
#######################################################################
#
#                 Cambridge Crystallographic Data Centre
#                                CCDC 
#
#######################################################################
#
# If this CIF has been generated from an entry in the Cambridge 
# Structural Database, then it will include bibliographic, chemical, 
# crystal, experimental, refinement or atomic coordinate data resulting 
# from the CCDC's data processing and validation procedures.
#
#######################################################################

data_YEJDAU
_symmetry_cell_setting           monoclinic
_symmetry_space_group_name_H-M   'C 2/c'
_symmetry_Int_Tables_number      15
_space_group_name_Hall           '-C 2yn'
loop_
_symmetry_equiv_pos_site_id
_symmetry_equiv_pos_as_xyz
1 x,y,z
2 -x,y,1/2-z
3 1/2+x,1/2+y,z
4 1/2-x,1/2+y,1/2-z
5 -x,-y,-z
6 x,-y,1/2+z
7 1/2-x,1/2-y,-z
8 1/2+x,1/2-y,1/2+z
_cell_length_a                   12.317(2)
_cell_length_b                   9.8677(15)
_cell_length_c                   10.9466(17)
_cell_angle_alpha                90
_cell_angle_beta                 92.373(15)
_cell_angle_gamma                90
_cell_volume                     1329.31
loop_
_atom_site_label
_atom_site_type_symbol
_atom_site_fract_x
_atom_site_fract_y
_atom_site_fract_z
Zn1 Zn 0.5000 0.44980(4) 0.2500
Cl1 Cl 0.34197(5) 0.55114(6) 0.21146(6)
S1 S 0.56869(5) 0.01630(7) -0.19645(5)
N1 N 0.52105(17) 0.3214(2) 0.10596(17)
C1 C 0.6109(2) 0.2460(3) 0.0991(2)
H1 H 0.6672 0.2576 0.1601
C2 C 0.6255(2) 0.1524(3) 0.0078(2)
H2 H 0.6901 0.0997 0.0064
C3 C 0.5439(2) 0.1371(2) -0.0816(2)
C4 C 0.4513(2) 0.2148(3) -0.0766(2)
H3 H 0.3944 0.2062 -0.1375
C5 C 0.4429(2) 0.3050(3) 0.0183(2)
H4 H 0.3788 0.3581 0.0219
Zn1_2 Zn 0.5000 0.44980(4) -0.7500
Cl1A Cl 0.65803(5) 0.55114(6) 0.28854(6)
S1A S 0.43131(5) 0.01630(7) -0.30355(5)
N1A N 0.47895(17) 0.3214(2) -0.60596(17)
N1A_2 N 0.47895(17) 0.3214(2) 0.39404(17)
C1A C 0.3891(2) 0.2460(3) -0.5991(2)
H1A H 0.3328 0.2576 -0.6601
C2A C 0.3745(2) 0.1524(3) -0.5078(2)
H2A H 0.3099 0.0997 -0.5064
C3A C 0.4561(2) 0.1371(2) -0.4184(2)
C4A C 0.5487(2) 0.2148(3) -0.4234(2)
H3A H 0.6056 0.2062 -0.3625
C5A C 0.5571(2) 0.3050(3) -0.5183(2)
H4A H 0.6212 0.3581 -0.5219
loop_
_geom_bond_atom_site_label_1
_geom_bond_atom_site_label_2
_geom_bond_site_symmetry_1
_geom_bond_site_symmetry_2
Zn1 Cl1 1_555 1_555
S1 C3 1_555 1_555
N1 Zn1 1_555 1_555
C1 N1 1_555 1_555
H1 C1 1_555 1_555
C2 C1 1_555 1_555
H2 C2 1_555 1_555
C3 C2 1_555 1_555
C4 C3 1_555 1_555
H3 C4 1_555 1_555
C5 N1 1_555 1_555
H4 C5 1_555 1_555
Zn1_2 N1A 1_555 1_555
Cl1A Zn1 1_555 1_555
S1A S1 1_555 1_555
N1A C1A 1_555 1_555
N1A_2 Zn1 1_555 1_555
C1A H1A 1_555 1_555
C2A C1A 1_555 1_555
H2A C2A 1_555 1_555
C3A S1A 1_555 1_555
C4A C3A 1_555 1_555
H3A C4A 1_555 1_555
C5A N1A 1_555 1_555
H4A C5A 1_555 1_555
C4 C5 1_555 1_555
C2A C3A 1_555 1_555
C4A C5A 1_555 1_555

#END
