
#######################################################################
#
#                 Cambridge Crystallographic Data Centre
#                                CCDC 
#
#######################################################################
#
# If this CIF has been generated from an entry in the Cambridge 
# Structural Database, then it will include bibliographic, chemical, 
# crystal, experimental, refinement or atomic coordinate data resulting 
# from the CCDC's data processing and validation procedures.
#
#######################################################################

data_YEJDOI
_symmetry_cell_setting           triclinic
_symmetry_space_group_name_H-M   'P -1'
_symmetry_Int_Tables_number      2
_space_group_name_Hall           '-P 1'
loop_
_symmetry_equiv_pos_site_id
_symmetry_equiv_pos_as_xyz
1 x,y,z
2 -x,-y,-z
_cell_length_a                   10.5731(6)
_cell_length_b                   15.3421(10)
_cell_length_c                   16.8666(11)
_cell_angle_alpha                108.053(6)
_cell_angle_beta                 93.184(5)
_cell_angle_gamma                108.118(5)
_cell_volume                     2437.13
loop_
_atom_site_label
_atom_site_type_symbol
_atom_site_fract_x
_atom_site_fract_y
_atom_site_fract_z
C1 C 0.4701(4) 0.2419(3) 0.2596(3)
C2 C 0.1065(4) 0.3531(3) 0.1655(3)
C3 C 0.0168(4) 0.1468(3) 0.3534(3)
C4 C 0.3285(4) 0.2457(3) 0.2605(3)
C5 C 0.2827(4) 0.2952(3) 0.2164(3)
H1 H 0.3409 0.3285 0.1877
C6 C 0.1514(4) 0.2964(3) 0.2137(3)
C7 C 0.0664(4) 0.2478(3) 0.2568(3)
H2 H -0.0216 0.2478 0.2550
C8 C 0.1101(4) 0.1983(3) 0.3034(3)
C9 C 0.2411(4) 0.1970(3) 0.3029(3)
H3 H 0.2704 0.1623 0.3320
O1 O 0.5016(3) 0.1882(2) 0.2940(2)
O3 O 0.5479(3) 0.2937(3) 0.2260(2)
O5 O 0.1913(3) 0.4026(3) 0.1342(2)
O7 O -0.0156(3) 0.3475(2) 0.1618(2)
O9 O -0.0948(3) 0.1576(3) 0.3567(2)
O11 O 0.0559(3) 0.0959(3) 0.3863(2)
O2 O 0.7300(4) 0.0994(3) 0.4598(2)
H34 H 0.7589 0.0720 0.4891
H35 H 0.7941 0.1128 0.4240
O4 O 0.4871(4) 0.1210(3) 0.4291(2)
H36 H 0.5080 0.1468 0.3918
H37 H 0.5600 0.1029 0.4353
O6 O 0.2326(4) 0.0228(3) 0.4469(3)
H38 H 0.3150 0.0505 0.4478
H39 H 0.1824 0.0264 0.4080
O8 O 0.5518(5) 0.3158(4) 0.0694(3)
H40 H 0.5503 0.3087 0.1173
H41 H 0.5393 0.3704 0.0776
O10 O 0.4456(10) 0.4549(8) 0.0683(6)
H42 H 0.3937 0.4838 0.0902
H43 H 0.5442 0.5053 0.0672
O12 O 0.1149(14) 0.4689(6) 0.0084(5)
H44 H 0.1226 0.5158 -0.0096
H45 H 0.1261 0.4465 0.0467
O13 O 0.1765(4) 0.6225(3) 0.9537(3)
H46 H 0.1276 0.6331 0.9190
H47 H 0.2578 0.6403 0.9460
O14 O 0.8696(4) 0.9218(3) 0.3910(2)
H48 H 0.8643 0.9376 0.4438
H49 H 0.9255 0.9744 0.3893
O15 O 0.6844(4) 0.0988(3) 0.2244(3)
H50 H 0.6344 0.1325 0.2404
H51 H 0.7494 0.1129 0.2632
O16 O 1.8241(4) 0.3887(3) 0.2841(2)
H52 H 1.8729 0.3758 0.2469
H53 H 1.7407 0.3759 0.2673
Ag1 Ag 0.75523(3) 0.75705(3) 0.25539(2)
Ag2 Ag 1.90390(3) 0.55901(3) 0.39784(3)
Ag3 Ag -0.41132(4) 0.92640(4) 0.09217(3)
C10 C 1.6264(5) 0.5438(4) 0.3167(3)
H4 H 1.6321 0.4869 0.2789
C11 C 1.5122(5) 0.5653(3) 0.3049(3)
H5 H 1.4432 0.5234 0.2600
C12 C 1.4988(4) 0.6506(3) 0.3603(3)
C13 C 1.6090(5) 0.7093(3) 0.4245(3)
H6 H 1.6064 0.7670 0.4627
C14 C 1.7205(5) 0.6840(4) 0.4325(3)
H7 H 1.7922 0.7260 0.4757
C15 C 1.3818(4) 0.6793(3) 0.3545(3)
H8 H 1.3833 0.7368 0.3952
C16 C 1.2703(4) 0.6291(3) 0.2945(3)
H9 H 1.2686 0.5714 0.2540
C17 C 1.1528(4) 0.6582(3) 0.2883(3)
C18 C 1.0446(5) 0.6017(3) 0.2225(3)
H10 H 1.0471 0.5443 0.1834
C19 C 0.9347(5) 0.6292(4) 0.2143(3)
H11 H 0.8647 0.5897 0.1693
C20 C 1.0273(5) 0.7654(4) 0.3334(3)
H12 H 1.0215 0.8216 0.3724
C21 C 1.1393(5) 0.7428(3) 0.3447(3)
H13 H 1.2079 0.7835 0.3902
C22 C 2.1281(4) 0.4743(3) 0.4040(3)
H14 H 2.0660 0.4235 0.3596
C23 C 2.2473(4) 0.4646(3) 0.4256(3)
H15 H 2.2649 0.4087 0.3958
C24 C 2.3441(4) 0.5385(3) 0.4926(3)
C25 C 2.4760(4) 0.5354(3) 0.5196(3)
H16 H 2.5306 0.5860 0.5672
C26 C 2.3073(4) 0.6183(3) 0.5339(3)
H17 H 2.3664 0.6689 0.5798
C27 C 2.1850(5) 0.6241(3) 0.5084(3)
H18 H 2.1648 0.6791 0.5373
C28 C 0.4755(5) 0.7299(4) 0.1656(3)
H19 H 0.4845 0.6740 0.1282
C29 C 0.3605(5) 0.7497(4) 0.1516(3)
H20 H 0.2949 0.7083 0.1046
C30 C 0.3401(5) 0.8317(3) 0.2072(3)
C31 C 0.4450(5) 0.8898(4) 0.2739(3)
H21 H 0.4382 0.9456 0.3128
C32 C 0.5576(5) 0.8669(4) 0.2837(4)
H22 H 0.6255 0.9086 0.3293
C33 C 0.2205(5) 0.8574(4) 0.1985(3)
H23 H 0.2179 0.9132 0.2398
C34 C 0.1135(4) 0.8085(4) 0.1367(3)
H24 H 0.1152 0.7526 0.0951
C35 C -0.0056(4) 0.8360(3) 0.1296(3)
C36 C -0.0246(5) 0.9172(4) 0.1872(3)
H25 H 0.0408 0.9570 0.2347
C37 C -0.1380(5) 0.9382(4) 0.1740(3)
H26 H -0.1466 0.9930 0.2135
C38 C -0.2212(5) 0.8066(4) 0.0527(3)
H27 H -0.2888 0.7677 0.0062
C39 C -0.1101(5) 0.7807(4) 0.0611(3)
H28 H -0.1041 0.7256 0.0207
C40 C -0.9744(4) 0.9662(3) -0.0214(3)
H29 H -1.0262 0.9193 -0.0719
C41 C -0.8447(4) 0.9610(3) 0.0052(3)
C42 C -0.7525(5) 1.0268(4) 0.0775(3)
H30 H -0.7720 1.0797 0.1119
C43 C -0.6355(5) 1.0145(4) 0.0982(3)
H31 H -0.5774 1.0599 0.1471
C44 C -0.6847(5) 0.8774(3) -0.0172(3)
H32 H -0.6626 0.8250 -0.0505
C45 C -0.8054(4) 0.8858(3) -0.0422(3)
H33 H -0.8614 0.8400 -0.0918
N1 N 2.0938(4) 0.5532(3) 0.4432(2)
N2 N 1.7318(4) 0.6006(3) 0.3803(2)
N3 N 0.9228(4) 0.7109(3) 0.2685(2)
N4 N 0.5770(4) 0.7878(3) 0.2315(2)
N5 N -0.2388(4) 0.8850(3) 0.1077(3)
N6 N -0.5976(4) 0.9407(3) 0.0524(3)
Ag1A Ag -2.75523(3) 1.24295(3) -0.25539(2)
Ag2A Ag -3.90390(3) 1.44099(3) -0.39784(3)
Ag3A Ag -1.58868(4) 1.07360(4) -0.09217(3)
C10A C -3.6264(5) 1.4562(4) -0.3167(3)
H4A H -3.6321 1.5131 -0.2789
C11A C -3.5122(5) 1.4347(3) -0.3049(3)
H5A H -3.4432 1.4766 -0.2600
C12A C -3.4988(4) 1.3494(3) -0.3603(3)
C13A C -3.6090(5) 1.2907(3) -0.4245(3)
H6A H -3.6064 1.2330 -0.4627
C14A C -3.7205(5) 1.3160(4) -0.4325(3)
H7A H -3.7922 1.2740 -0.4757
C15A C -3.3818(4) 1.3207(3) -0.3545(3)
H8A H -3.3833 1.2632 -0.3952
C16A C -3.2703(4) 1.3709(3) -0.2945(3)
H9A H -3.2686 1.4286 -0.2540
C17A C -3.1528(4) 1.3418(3) -0.2883(3)
C18A C -3.0446(5) 1.3983(3) -0.2225(3)
H10A H -3.0471 1.4557 -0.1834
C19A C -2.9347(5) 1.3708(4) -0.2143(3)
H11A H -2.8647 1.4103 -0.1693
C20A C -3.0273(5) 1.2346(4) -0.3334(3)
H12A H -3.0215 1.1784 -0.3724
C21A C -3.1393(5) 1.2572(3) -0.3447(3)
H13A H -3.2079 1.2165 -0.3902
C22A C -4.1281(4) 1.5257(3) -0.4040(3)
H14A H -4.0660 1.5765 -0.3596
C23A C -4.2473(4) 1.5354(3) -0.4256(3)
H15A H -4.2649 1.5913 -0.3958
C24A C -4.3441(4) 1.4615(3) -0.4926(3)
C25A C -4.4760(4) 1.4646(3) -0.5196(3)
H16A H -4.5306 1.4140 -0.5672
C26A C -4.3073(4) 1.3817(3) -0.5339(3)
H17A H -4.3664 1.3311 -0.5798
C27A C -4.1850(5) 1.3759(3) -0.5084(3)
H18A H -4.1648 1.3209 -0.5373
C28A C -2.4755(5) 1.2701(4) -0.1656(3)
H19A H -2.4845 1.3260 -0.1282
C29A C -2.3605(5) 1.2503(4) -0.1516(3)
H20A H -2.2949 1.2917 -0.1046
C30A C -2.3401(5) 1.1683(3) -0.2072(3)
C31A C -2.4450(5) 1.1102(4) -0.2739(3)
H21A H -2.4382 1.0544 -0.3128
C32A C -2.5576(5) 1.1331(4) -0.2837(4)
H22A H -2.6255 1.0914 -0.3293
C33A C -2.2205(5) 1.1426(4) -0.1985(3)
H23A H -2.2179 1.0868 -0.2398
C34A C -2.1135(4) 1.1915(4) -0.1367(3)
H24A H -2.1152 1.2474 -0.0951
C35A C -1.9944(4) 1.1640(3) -0.1296(3)
C36A C -1.9754(5) 1.0828(4) -0.1872(3)
H25A H -2.0408 1.0430 -0.2347
C37A C -1.8620(5) 1.0618(4) -0.1740(3)
H26A H -1.8534 1.0070 -0.2135
C38A C -1.7788(5) 1.1934(4) -0.0527(3)
H27A H -1.7112 1.2323 -0.0062
C39A C -1.8899(5) 1.2193(4) -0.0611(3)
H28A H -1.8959 1.2744 -0.0207
C40A C -1.0256(4) 1.0338(3) 0.0214(3)
H29A H -0.9738 1.0807 0.0719
C41A C -1.1553(4) 1.0390(3) -0.0052(3)
C42A C -1.2475(5) 0.9732(4) -0.0775(3)
H30A H -1.2280 0.9203 -0.1119
C43A C -1.3645(5) 0.9855(4) -0.0982(3)
H31A H -1.4226 0.9401 -0.1471
C44A C -1.3153(5) 1.1226(3) 0.0172(3)
H32A H -1.3374 1.1750 0.0505
C45A C -1.1946(4) 1.1142(3) 0.0422(3)
H33A H -1.1386 1.1600 0.0918
N1A N -4.0938(4) 1.4468(3) -0.4432(2)
N2A N -3.7318(4) 1.3994(3) -0.3803(2)
N3A N -2.9228(4) 1.2891(3) -0.2685(2)
N4A N -2.5770(4) 1.2122(3) -0.2315(2)
N5A N -1.7612(4) 1.1150(3) -0.1077(3)
N6A N -1.4024(4) 1.0593(3) -0.0524(3)
loop_
_geom_bond_atom_site_label_1
_geom_bond_atom_site_label_2
_geom_bond_site_symmetry_1
_geom_bond_site_symmetry_2
Ag1 N3 1_555 1_555
Ag2 N1 1_555 1_555
Ag3 N5 1_555 1_555
C1 C4 1_555 1_555
C2 C6 1_555 1_555
C3 C8 1_555 1_555
C4 C5 1_555 1_555
C5 H1 1_555 1_555
C6 C5 1_555 1_555
C7 C6 1_555 1_555
H2 C7 1_555 1_555
C8 C7 1_555 1_555
C9 C4 1_555 1_555
H3 C9 1_555 1_555
C10 H4 1_555 1_555
C11 C10 1_555 1_555
H5 C11 1_555 1_555
C12 C11 1_555 1_555
C13 C12 1_555 1_555
H6 C13 1_555 1_555
C14 C13 1_555 1_555
H7 C14 1_555 1_555
C15 C12 1_555 1_555
H8 C15 1_555 1_555
C16 C15 1_555 1_555
H9 C16 1_555 1_555
C17 C16 1_555 1_555
C18 C17 1_555 1_555
H10 C18 1_555 1_555
C19 C18 1_555 1_555
H11 C19 1_555 1_555
C20 H12 1_555 1_555
C21 C17 1_555 1_555
H13 C21 1_555 1_555
C22 H14 1_555 1_555
C23 C22 1_555 1_555
H15 C23 1_555 1_555
C24 C23 1_555 1_555
C25 C24 1_555 1_555
H16 C25 1_555 1_555
C26 C24 1_555 1_555
H17 C26 1_555 1_555
C27 C26 1_555 1_555
H18 C27 1_555 1_555
C28 H19 1_555 1_555
C29 C28 1_555 1_555
H20 C29 1_555 1_555
C30 C29 1_555 1_555
C31 C30 1_555 1_555
H21 C31 1_555 1_555
C32 C31 1_555 1_555
H22 C32 1_555 1_555
C33 C30 1_555 1_555
H23 C33 1_555 1_555
C34 C33 1_555 1_555
H24 C34 1_555 1_555
C35 C34 1_555 1_555
C36 C35 1_555 1_555
H25 C36 1_555 1_555
C37 C36 1_555 1_555
H26 C37 1_555 1_555
C38 H27 1_555 1_555
C39 C35 1_555 1_555
H28 C39 1_555 1_555
C40 H29 1_555 1_555
C41 C40 1_555 1_555
C42 C41 1_555 1_555
H30 C42 1_555 1_555
C43 C42 1_555 1_555
H31 C43 1_555 1_555
C44 H32 1_555 1_555
C45 C41 1_555 1_555
H33 C45 1_555 1_555
N1 C22 1_555 1_555
N2 Ag2 1_555 1_555
N3 C19 1_555 1_555
N4 Ag1 1_555 1_555
N5 C37 1_555 1_555
N6 Ag3 1_555 1_555
O1 C1 1_555 1_555
O2 H34 1_555 1_555
H35 O2 1_555 1_555
O3 C1 1_555 1_555
O4 H36 1_555 1_555
H37 O4 1_555 1_555
O5 C2 1_555 1_555
O6 H38 1_555 1_555
H39 O6 1_555 1_555
O7 C2 1_555 1_555
O8 H40 1_555 1_555
H41 O8 1_555 1_555
O9 C3 1_555 1_555
O10 H42 1_555 1_555
H43 O10 1_555 1_555
O11 C3 1_555 1_555
O12 H44 1_555 1_555
H45 O12 1_555 1_555
O13 H46 1_555 1_555
H47 O13 1_555 1_555
O14 H48 1_555 1_555
H49 O14 1_555 1_555
O15 H50 1_555 1_555
H51 O15 1_555 1_555
O16 H52 1_555 1_555
H53 O16 1_555 1_555
Ag1A N3A 1_555 1_555
Ag2A N1A 1_555 1_555
Ag3A N5A 1_555 1_555
C10A H4A 1_555 1_555
C11A C10A 1_555 1_555
H5A C11A 1_555 1_555
C12A C11A 1_555 1_555
C13A C12A 1_555 1_555
H6A C13A 1_555 1_555
C14A C13A 1_555 1_555
H7A C14A 1_555 1_555
C15A C12A 1_555 1_555
H8A C15A 1_555 1_555
C16A C15A 1_555 1_555
H9A C16A 1_555 1_555
C17A C16A 1_555 1_555
C18A C17A 1_555 1_555
H10A C18A 1_555 1_555
C19A C18A 1_555 1_555
H11A C19A 1_555 1_555
C20A H12A 1_555 1_555
C21A C17A 1_555 1_555
H13A C21A 1_555 1_555
C22A H14A 1_555 1_555
C23A C22A 1_555 1_555
H15A C23A 1_555 1_555
C24A C23A 1_555 1_555
C25A C24A 1_555 1_555
H16A C25A 1_555 1_555
C26A C24A 1_555 1_555
H17A C26A 1_555 1_555
C27A C26A 1_555 1_555
H18A C27A 1_555 1_555
C28A H19A 1_555 1_555
C29A C28A 1_555 1_555
H20A C29A 1_555 1_555
C30A C29A 1_555 1_555
C31A C30A 1_555 1_555
H21A C31A 1_555 1_555
C32A C31A 1_555 1_555
H22A C32A 1_555 1_555
C33A C30A 1_555 1_555
H23A C33A 1_555 1_555
C34A C33A 1_555 1_555
H24A C34A 1_555 1_555
C35A C34A 1_555 1_555
C36A C35A 1_555 1_555
H25A C36A 1_555 1_555
C37A C36A 1_555 1_555
H26A C37A 1_555 1_555
C38A H27A 1_555 1_555
C39A C35A 1_555 1_555
H28A C39A 1_555 1_555
C40A C40 1_555 1_555
H29A C40A 1_555 1_555
C41A C40A 1_555 1_555
C42A C41A 1_555 1_555
H30A C42A 1_555 1_555
C43A C42A 1_555 1_555
H31A C43A 1_555 1_555
C44A H32A 1_555 1_555
C45A C41A 1_555 1_555
H33A C45A 1_555 1_555
N1A C22A 1_555 1_555
N2A Ag2A 1_555 1_555
N3A C19A 1_555 1_555
N4A Ag1A 1_555 1_555
N5A C37A 1_555 1_555
N6A Ag3A 1_555 1_555
C8 C9 1_555 1_555
C10 N2 1_555 1_555
C14 N2 1_555 1_555
C20 C21 1_555 1_555
C20 N3 1_555 1_555
C27 N1 1_555 1_555
C28 N4 1_555 1_555
C32 N4 1_555 1_555
C38 C39 1_555 1_555
C38 N5 1_555 1_555
C43 N6 1_555 1_555
C44 C45 1_555 1_555
C44 N6 1_555 1_555
C10A N2A 1_555 1_555
C14A N2A 1_555 1_555
C20A C21A 1_555 1_555
C20A N3A 1_555 1_555
C27A N1A 1_555 1_555
C28A N4A 1_555 1_555
C32A N4A 1_555 1_555
C38A C39A 1_555 1_555
C38A N5A 1_555 1_555
C43A N6A 1_555 1_555
C44A C45A 1_555 1_555
C44A N6A 1_555 1_555

#END
