
#######################################################################
#
#                 Cambridge Crystallographic Data Centre
#                                CCDC 
#
#######################################################################
#
# If this CIF has been generated from an entry in the Cambridge 
# Structural Database, then it will include bibliographic, chemical, 
# crystal, experimental, refinement or atomic coordinate data resulting 
# from the CCDC's data processing and validation procedures.
#
#######################################################################

data_YEJDEY
_symmetry_cell_setting           triclinic
_symmetry_space_group_name_H-M   'P -1'
_symmetry_Int_Tables_number      2
_space_group_name_Hall           '-P 1'
loop_
_symmetry_equiv_pos_site_id
_symmetry_equiv_pos_as_xyz
1 x,y,z
2 -x,-y,-z
_cell_length_a                   9.2299(12)
_cell_length_b                   10.1908(13)
_cell_length_c                   10.2483(13)
_cell_angle_alpha                65.6990(10)
_cell_angle_beta                 65.8960(10)
_cell_angle_gamma                79.4590(10)
_cell_volume                     801.813
loop_
_atom_site_label
_atom_site_type_symbol
_atom_site_fract_x
_atom_site_fract_y
_atom_site_fract_z
Cd1 Cd 0.43038(2) 0.595964(17) 0.248038(19)
O1 O 0.4159(2) 0.84827(19) 0.2441(2)
O2 O 0.6106(2) 0.69957(16) 0.2845(2)
O3 O 0.4252(2) 1.35301(18) 0.2394(2)
O4 O 0.5866(2) 1.38607(17) 0.3307(2)
O5 O 0.9347(2) 0.9528(2) 0.4045(3)
O6 O 0.6139(2) 0.67018(19) -0.00062(19)
H1 H 0.5908 0.6687 -0.0722
H2 H 0.6590 0.7504 -0.0387
O7 O 0.2791(2) 0.53416(19) 0.51393(19)
H3 H 0.3090 0.4492 0.5581
H4 H 0.3169 0.5808 0.5449
N1 N 0.2241(2) 0.6441(2) 0.1664(2)
N2 N 0.0458(2) 0.5943(2) 0.1014(2)
C1 C 0.5402(3) 0.8194(2) 0.2726(3)
C2 C 0.6085(3) 0.9280(2) 0.2960(3)
C3 C 0.7418(3) 0.8879(2) 0.3357(3)
H7 H 0.7893 0.7977 0.3430
C4 C 0.8037(3) 0.9829(3) 0.3645(3)
C5 C 0.7358(3) 1.1182(2) 0.3495(3)
H8 H 0.7788 1.1818 0.3676
C6 C 0.6042(3) 1.1603(2) 0.3079(3)
C7 C 0.5396(3) 1.0635(2) 0.2825(3)
H9 H 0.4502 1.0899 0.2564
C8 C 0.5343(3) 1.3085(2) 0.2919(3)
C9 C 0.9738(4) 0.8061(3) 0.4749(4)
H10 H 0.8800 0.7563 0.5555
H11 H 1.0511 0.8001 0.5177
H12 H 1.0169 0.7628 0.3991
C10 C 0.1555(3) 0.7705(3) 0.0959(3)
H13 H 0.1812 0.8621 0.0778
C11 C 0.0453(3) 0.7416(3) 0.0569(3)
H14 H -0.0187 0.8082 0.0092
C12 C 0.1540(3) 0.5415(3) 0.1667(3)
H15 H 0.1773 0.4439 0.2077
C13 C -0.0449(3) 0.5095(3) 0.0763(3)
H16 H -0.1461 0.5574 0.0770
H17 H -0.0659 0.4157 0.1596
Cd1_2 Cd 0.43038(2) 1.595964(17) 0.248038(19)
Cd1A Cd -0.43038(2) 0.404036(17) -0.248038(19)
Cd1A_2 Cd -0.43038(2) -0.595964(17) -0.248038(19)
O1A O -0.4159(2) 0.15173(19) -0.2441(2)
O2A O -0.6106(2) 0.30043(16) -0.2845(2)
O3_2 O 0.4252(2) 0.35301(18) 0.2394(2)
O3A O -0.4252(2) 0.64699(18) -0.2394(2)
O3A_2 O -0.4252(2) -0.35301(18) -0.2394(2)
O4_2 O 0.5866(2) 0.38607(17) 0.3307(2)
O4A O -0.5866(2) 0.61393(17) -0.3307(2)
O4A_2 O -0.5866(2) -0.38607(17) -0.3307(2)
O5A O -0.9347(2) 0.0472(2) -0.4045(3)
O6A O -0.6139(2) 0.32982(19) 0.00062(19)
H1A H -0.5908 0.3313 0.0722
H2A H -0.6590 0.2496 0.0387
O7A O -0.2791(2) 0.46584(19) -0.51393(19)
H3A H -0.3090 0.5508 -0.5581
H4A H -0.3169 0.4192 -0.5449
N1A N -0.2241(2) 0.3559(2) -0.1664(2)
N2A N -0.0458(2) 0.4057(2) -0.1014(2)
C1A C -0.5402(3) 0.1806(2) -0.2726(3)
C2A C -0.6085(3) 0.0720(2) -0.2960(3)
C3A C -0.7418(3) 0.1121(2) -0.3357(3)
H7A H -0.7893 0.2023 -0.3430
C4A C -0.8037(3) 0.0171(3) -0.3645(3)
C5A C -0.7358(3) -0.1182(2) -0.3495(3)
H8A H -0.7788 -0.1818 -0.3676
C6A C -0.6042(3) -0.1603(2) -0.3079(3)
C7A C -0.5396(3) -0.0635(2) -0.2825(3)
H9A H -0.4502 -0.0899 -0.2564
C8A C -0.5343(3) -0.3085(2) -0.2919(3)
C9A C -0.9738(4) 0.1939(3) -0.4749(4)
H10A H -0.8800 0.2437 -0.5555
H11A H -1.0511 0.1999 -0.5177
H12A H -1.0169 0.2372 -0.3991
C10A C -0.1555(3) 0.2295(3) -0.0959(3)
H13A H -0.1812 0.1379 -0.0778
C11A C -0.0453(3) 0.2584(3) -0.0569(3)
H14A H 0.0187 0.1918 -0.0092
C12A C -0.1540(3) 0.4585(3) -0.1667(3)
H15A H -0.1773 0.5561 -0.2077
C13A C 0.0449(3) 0.4905(3) -0.0763(3)
H16A H 0.1461 0.4426 -0.0770
H17A H 0.0659 0.5843 -0.1596
O8 O 0.2267(3) 0.0763(2) 0.1448(3)
H5 H 0.2864 0.0049 0.1719
H6 H 0.1417 0.0402 0.2198
loop_
_geom_bond_atom_site_label_1
_geom_bond_atom_site_label_2
_geom_bond_site_symmetry_1
_geom_bond_site_symmetry_2
Cd1 O1 1_555 1_555
O1 C1 1_555 1_555
O2 Cd1 1_555 1_555
O3 C8 1_555 1_555
O4 C8 1_555 1_555
O5 C4 1_555 1_555
O6 Cd1 1_555 1_555
H1 O6 1_555 1_555
H2 O6 1_555 1_555
O7 Cd1 1_555 1_555
H3 O7 1_555 1_555
H4 O7 1_555 1_555
O8 H5 1_555 1_555
H6 O8 1_555 1_555
N1 Cd1 1_555 1_555
N2 C11 1_555 1_555
C1 O2 1_555 1_555
C2 C1 1_555 1_555
C3 C2 1_555 1_555
H7 C3 1_555 1_555
C4 C3 1_555 1_555
C5 C4 1_555 1_555
H8 C5 1_555 1_555
C6 C5 1_555 1_555
C7 C2 1_555 1_555
H9 C7 1_555 1_555
C8 C6 1_555 1_555
C9 O5 1_555 1_555
H10 C9 1_555 1_555
H11 C9 1_555 1_555
H12 C9 1_555 1_555
C10 N1 1_555 1_555
H13 C10 1_555 1_555
C11 C10 1_555 1_555
H14 C11 1_555 1_555
C12 N1 1_555 1_555
H15 C12 1_555 1_555
C13 N2 1_555 1_555
H16 C13 1_555 1_555
H17 C13 1_555 1_555
Cd1_2 O3 1_555 1_555
Cd1A O1A 1_555 1_555
Cd1A_2 O3A_2 1_555 1_555
O1A C1A 1_555 1_555
O2A Cd1A 1_555 1_555
O3_2 Cd1 1_555 1_555
O3A Cd1A 1_555 1_555
O3A_2 C8A 1_555 1_555
O4_2 Cd1 1_555 1_555
O4A Cd1A 1_555 1_555
O4A_2 Cd1A_2 1_555 1_555
O5A C4A 1_555 1_555
O6A Cd1A 1_555 1_555
H1A O6A 1_555 1_555
H2A O6A 1_555 1_555
O7A Cd1A 1_555 1_555
H3A O7A 1_555 1_555
H4A O7A 1_555 1_555
N1A Cd1A 1_555 1_555
N2A C11A 1_555 1_555
C1A O2A 1_555 1_555
C2A C1A 1_555 1_555
C3A C2A 1_555 1_555
H7A C3A 1_555 1_555
C4A C3A 1_555 1_555
C5A C4A 1_555 1_555
H8A C5A 1_555 1_555
C6A C5A 1_555 1_555
C7A C2A 1_555 1_555
H9A C7A 1_555 1_555
C8A O4A_2 1_555 1_555
C9A O5A 1_555 1_555
H10A C9A 1_555 1_555
H11A C9A 1_555 1_555
H12A C9A 1_555 1_555
C10A N1A 1_555 1_555
H13A C10A 1_555 1_555
C11A C10A 1_555 1_555
H14A C11A 1_555 1_555
C12A N1A 1_555 1_555
H15A C12A 1_555 1_555
C13A C13 1_555 1_555
H16A C13A 1_555 1_555
H17A C13A 1_555 1_555
O4 Cd1_2 1_555 1_555
N2 C12 1_555 1_555
C6 C7 1_555 1_555
N2A C12A 1_555 1_555
N2A C13A 1_555 1_555
C6A C7A 1_555 1_555
C6A C8A 1_555 1_555

#END
