
#######################################################################
#
#                 Cambridge Crystallographic Data Centre
#                                CCDC 
#
#######################################################################
#
# If this CIF has been generated from an entry in the Cambridge 
# Structural Database, then it will include bibliographic, chemical, 
# crystal, experimental, refinement or atomic coordinate data resulting 
# from the CCDC's data processing and validation procedures.
#
#######################################################################

data_YEJJEC
_symmetry_cell_setting           monoclinic
_symmetry_space_group_name_H-M   'P 21/m'
_symmetry_Int_Tables_number      11
_space_group_name_Hall           '-P 2yb'
loop_
_symmetry_equiv_pos_site_id
_symmetry_equiv_pos_as_xyz
1 x,y,z
2 x,1/2-y,z
3 -x,-y,-z
4 -x,1/2+y,-z
_cell_length_a                   4.9640(15)
_cell_length_b                   6.346(2)
_cell_length_c                   7.336(2)
_cell_angle_alpha                90
_cell_angle_beta                 107.25(2)
_cell_angle_gamma                90
_cell_volume                     220.701
loop_
_atom_site_label
_atom_site_type_symbol
_atom_site_fract_x
_atom_site_fract_y
_atom_site_fract_z
Na1 Na 0.5000 0.5000 0.5000
O1 O 1.0402(7) 0.7500 -0.2181(6)
O2 O 0.6608(6) 0.7500 0.3103(5)
O3 O 1.1278(6) 0.7500 0.4454(4)
N1 N 0.7565(8) 0.7500 -0.2246(6)
N2 N 0.9105(8) 0.7500 0.2873(6)
C1 C 0.7297(10) 0.7500 -0.0538(8)
C2 C 0.9554(10) 0.7500 0.1189(7)
H1 H 1.030(14) 0.7500 -0.371(10)
H2 H 0.5434 0.7500 -0.0435
H3 H 1.1439 0.7500 0.1129
O2B O 0.3392(6) 0.2500 0.6897(5)
O3_2 O 0.1278(6) 0.7500 0.4454(4)
O3B O 0.8722(6) 0.2500 0.5546(4)
N1_2 N 0.7565(8) 0.7500 0.7754(6)
N1B N 0.2435(8) 0.2500 0.2246(6)
Na1A Na 0.5000 1.0000 0.5000
Na1_2 Na 1.5000 0.5000 0.5000
Na1A_2 Na 1.5000 1.0000 0.5000
Na1_3 Na 0.5000 0.5000 -0.5000
Na1A_3 Na 0.5000 1.0000 -0.5000
loop_
_geom_bond_atom_site_label_1
_geom_bond_atom_site_label_2
_geom_bond_site_symmetry_1
_geom_bond_site_symmetry_2
Na1 O2 1_555 1_555
O1 N1 1_555 1_555
O2 N2 1_555 1_555
O3 N2 1_555 1_555
N1 C1 1_555 1_555
N2 C2 1_555 1_555
C1 C2 1_555 1_555
C2 H3 1_555 1_555
H1 O1 1_555 1_555
H2 C1 1_555 1_555
O2B Na1 1_555 1_555
O3_2 Na1 1_555 1_555
O3B Na1 1_555 1_555
N1_2 Na1 1_555 1_555
N1B Na1 1_555 1_555
Na1A O2 1_555 1_555
Na1_2 O3 1_555 1_555
Na1A_2 O3 1_555 1_555
Na1_3 N1 1_555 1_555
Na1A_3 N1 1_555 1_555
O3_2 Na1A 1_555 1_555
N1_2 Na1A 1_555 1_555

#END
