
#######################################################################
#
#                 Cambridge Crystallographic Data Centre
#                                CCDC 
#
#######################################################################
#
# If this CIF has been generated from an entry in the Cambridge 
# Structural Database, then it will include bibliographic, chemical, 
# crystal, experimental, refinement or atomic coordinate data resulting 
# from the CCDC's data processing and validation procedures.
#
#######################################################################

data_YEJMEG
_symmetry_cell_setting           trigonal
_symmetry_space_group_name_H-M   'P -3'
_symmetry_Int_Tables_number      147
_space_group_name_Hall           '-P 3'
loop_
_symmetry_equiv_pos_site_id
_symmetry_equiv_pos_as_xyz
1 x,y,z
2 -y,x-y,z
3 -x+y,-x,z
4 -x,-y,-z
5 y,-x+y,-z
6 x-y,x,-z
_cell_length_a                   14.2146(10)
_cell_length_b                   14.2146(10)
_cell_length_c                   8.1976(8)
_cell_angle_alpha                90
_cell_angle_beta                 90
_cell_angle_gamma                120
_cell_volume                     1434.45
loop_
_atom_site_label
_atom_site_type_symbol
_atom_site_fract_x
_atom_site_fract_y
_atom_site_fract_z
Mn1 Mn 0.236412(14) 0.013324(14) 0.10241(2)
O1 O 0.37941(7) 0.12843(8) -0.01726(14)
O2 O 0.10369(8) -0.08873(8) 0.26914(13)
O3 O 0.39143(7) 0.28772(7) -0.07516(14)
O4 O -0.04798(7) -0.18505(8) 0.12349(12)
O5 O 0.33136(9) 0.07367(10) 0.33220(14)
N1 N 0.39848(12) 0.03879(13) 0.55949(17)
C1 C 0.43155(10) 0.22911(10) -0.03995(16)
C2 C 0.00414(10) -0.14532(11) 0.25408(18)
C3 C 0.32637(14) 0.01127(14) 0.4409(2)
C4 C 0.48942(19) 0.1488(2) 0.5686(3)
C5 C 0.3838(2) -0.0358(2) 0.6921(3)
C6 C 0.55352(9) 0.28336(9) -0.02947(15)
C7 C 0.61688(9) 0.39629(9) -0.02874(16)
H1 H -0.0411(16) -0.1624(15) 0.352(2)
H2 H 0.506(2) 0.181(2) 0.463(3)
H3 H 0.2658(18) -0.0684(18) 0.444(2)
H4 H 0.383(2) 0.000(2) 0.795(3)
H5 H 0.455(2) -0.040(2) 0.697(3)
H6 H 0.322(3) -0.110(3) 0.669(4)
H7 H 0.472(2) 0.194(3) 0.633(4)
H8 H 0.560(2) 0.150(3) 0.609(4)
H9 H 0.5835(14) 0.4396(14) -0.0292(19)
Mn1B Mn 0.776912(20) 0.763588(14) 0.10241(2)
Mn1A Mn 0.986676(14) 0.223088(20) 0.10241(2)
Mn1E Mn 0.223088(20) 0.236412(14) -0.10241(2)
Mn1B_2 Mn -0.223088(20) -0.236412(14) 0.10241(2)
Mn1D Mn 0.013324(14) -0.223088(20) -0.10241(2)
Mn1D_2 Mn 1.013324(14) 0.776912(20) -0.10241(2)
Mn1C Mn 0.763588(14) -0.013324(14) -0.10241(2)
Mn1A_2 Mn -0.013324(14) 0.223088(20) 0.10241(2)
O1B O 0.74902(11) 0.62059(7) -0.01726(14)
O1A O 0.87157(8) 0.25098(11) -0.01726(14)
O2A O 0.08873(8) 0.19242(11) 0.26914(13)
O2E O 0.19242(11) 0.10369(8) -0.26914(13)
O2B O 0.80758(11) 0.89631(8) 0.26914(13)
O2A_2 O 1.08873(8) 0.19242(11) 0.26914(13)
O3B O 0.89629(10) 0.60857(7) -0.07516(14)
O3A O 0.71228(7) 0.10371(10) -0.07516(14)
O3D O 0.28772(7) -0.10371(10) 0.07516(14)
O3C O 0.60857(7) 0.71228(7) 0.07516(14)
O3E O 1.10371(10) 0.39143(7) 0.07516(14)
O4A O 0.18505(8) 0.13707(11) 0.12349(12)
O4E O 0.13707(11) -0.04798(7) -0.12349(12)
O4_2 O 0.95202(7) 0.81495(8) 0.12349(12)
O4D O 0.81495(8) 0.86293(11) -0.12349(12)
O4B O 0.86293(11) 0.04798(7) 0.12349(12)
O4C O 1.04798(7) 0.18505(8) -0.12349(12)
O5B O 0.74231(13) 0.66864(9) 0.33220(14)
O5A O 0.92633(10) 0.25769(13) 0.33220(14)
N1B N 0.64031(18) 0.60152(12) 0.55949(17)
N1A N 0.96121(13) 0.35969(18) 0.55949(17)
C1B C 0.79756(14) 0.56845(10) -0.03995(16)
C1A C 0.77089(10) 0.20244(14) -0.03995(16)
C2A C 0.14532(11) 0.14946(15) 0.25408(18)
C2E C 0.14946(15) 0.00414(10) -0.25408(18)
C3B C 0.68490(20) 0.67363(14) 0.4409(2)
C3A C 0.98873(14) 0.31510(20) 0.4409(2)
C4B C 0.65938(28) 0.51058(19) 0.5686(3)
C4A C 0.8512(2) 0.34062(28) 0.5686(3)
C5B C 0.5804(3) 0.6162(2) 0.6921(3)
C5A C 1.0358(2) 0.4196(3) 0.6921(3)
C6B C 0.72984(13) 0.44648(9) -0.02947(15)
C6A C 0.71664(9) 0.27016(13) -0.02947(15)
C7B C 0.77941(13) 0.38312(9) -0.02874(16)
C7A C 0.60371(9) 0.22059(13) -0.02874(16)
H1A H 0.1624(15) 0.1213(22) 0.352(2)
H1E H 0.1213(22) -0.0411(16) -0.352(2)
H2B H 0.675(3) 0.494(2) 0.463(3)
H2A H 0.819(2) 0.325(3) 0.463(3)
H3B H 0.6658(25) 0.7342(18) 0.444(2)
H3A H 1.0684(18) 0.3342(25) 0.444(2)
H4B H 0.617(3) 0.617(2) 0.795(3)
H4A H 1.000(2) 0.383(3) 0.795(3)
H5B H 0.505(3) 0.545(2) 0.697(3)
H5A H 1.040(2) 0.495(3) 0.697(3)
H6B H 0.568(4) 0.678(3) 0.669(4)
H6A H 1.110(3) 0.432(4) 0.669(4)
H7B H 0.722(4) 0.528(2) 0.633(4)
H7A H 0.806(3) 0.278(4) 0.633(4)
H8B H 0.590(4) 0.440(2) 0.609(4)
H8A H 0.850(3) 0.410(4) 0.609(4)
H9A H 0.5604(14) 0.1439(20) -0.0292(19)
H9B H 0.8561(20) 0.4165(14) -0.0292(19)
loop_
_geom_bond_atom_site_label_1
_geom_bond_atom_site_label_2
_geom_bond_site_symmetry_1
_geom_bond_site_symmetry_2
Mn1 O1 1_555 1_555
O1 C1 1_555 1_555
O2 Mn1 1_555 1_555
O3 C1 1_555 1_555
O4 C2 1_555 1_555
O5 Mn1 1_555 1_555
N1 C3 1_555 1_555
C1 C6 1_555 1_555
C2 O2 1_555 1_555
C3 O5 1_555 1_555
C4 N1 1_555 1_555
C5 N1 1_555 1_555
C6 C7 1_555 1_555
C7 H9 1_555 1_555
H1 C2 1_555 1_555
H2 C4 1_555 1_555
H3 C3 1_555 1_555
H4 C5 1_555 1_555
H5 C5 1_555 1_555
H6 C5 1_555 1_555
H7 C4 1_555 1_555
H8 C4 1_555 1_555
Mn1B O1B 1_555 1_555
Mn1A O1A 1_555 1_555
Mn1E O3 1_555 1_555
Mn1B_2 O4 1_555 1_555
Mn1D O4 1_555 1_555
Mn1D_2 O3B 1_555 1_555
Mn1C O3A 1_555 1_555
Mn1A_2 O2A 1_555 1_555
O1B C1B 1_555 1_555
O1A C1A 1_555 1_555
O2A C2A 1_555 1_555
O2E Mn1E 1_555 1_555
O2B Mn1B 1_555 1_555
O2A_2 Mn1A 1_555 1_555
O3B C1B 1_555 1_555
O3A C1A 1_555 1_555
O3D Mn1 1_555 1_555
O3C Mn1B 1_555 1_555
O3E Mn1A 1_555 1_555
O4A Mn1 1_555 1_555
O4E Mn1 1_555 1_555
O4_2 Mn1B 1_555 1_555
O4D Mn1B 1_555 1_555
O4B Mn1A 1_555 1_555
O4C Mn1A 1_555 1_555
O5B Mn1B 1_555 1_555
O5A Mn1A 1_555 1_555
N1B C3B 1_555 1_555
N1A C3A 1_555 1_555
C1B C6B 1_555 1_555
C1A C6A 1_555 1_555
C2A O4A 1_555 1_555
C2E O2E 1_555 1_555
C3B O5B 1_555 1_555
C3A O5A 1_555 1_555
C4B N1B 1_555 1_555
C4A N1A 1_555 1_555
C5B N1B 1_555 1_555
C5A N1A 1_555 1_555
C6B C7 1_555 1_555
C6A C7B 1_555 1_555
C7B C6B 1_555 1_555
C7A C6 1_555 1_555
H1A C2A 1_555 1_555
H1E C2E 1_555 1_555
H2B C4B 1_555 1_555
H2A C4A 1_555 1_555
H3B C3B 1_555 1_555
H3A C3A 1_555 1_555
H4B C5B 1_555 1_555
H4A C5A 1_555 1_555
H5B C5B 1_555 1_555
H5A C5A 1_555 1_555
H6B C5B 1_555 1_555
H6A C5A 1_555 1_555
H7B C4B 1_555 1_555
H7A C4A 1_555 1_555
H8B C4B 1_555 1_555
H8A C4A 1_555 1_555
H9A C7A 1_555 1_555
H9B C7B 1_555 1_555
Mn1E O4A 1_555 1_555
Mn1D O4E 1_555 1_555
Mn1D_2 O4_2 1_555 1_555
Mn1C O4B 1_555 1_555
O4E C2E 1_555 1_555
C6A C7A 1_555 1_555

#END
