
#######################################################################
#
#                 Cambridge Crystallographic Data Centre
#                                CCDC 
#
#######################################################################
#
# If this CIF has been generated from an entry in the Cambridge 
# Structural Database, then it will include bibliographic, chemical, 
# crystal, experimental, refinement or atomic coordinate data resulting 
# from the CCDC's data processing and validation procedures.
#
#######################################################################

data_YEJMAC01
_symmetry_cell_setting           orthorhombic
_symmetry_space_group_name_H-M   'P c a 21'
_symmetry_Int_Tables_number      29
_space_group_name_Hall           'P 2c -2ac'
loop_
_symmetry_equiv_pos_site_id
_symmetry_equiv_pos_as_xyz
1 x,y,z
2 1/2-x,y,1/2+z
3 1/2+x,-y,z
4 -x,-y,1/2+z
_cell_length_a                   24.839(7)
_cell_length_b                   13.914(3)
_cell_length_c                   23.883(5)
_cell_angle_alpha                90
_cell_angle_beta                 90
_cell_angle_gamma                90
_cell_volume                     8254.2
loop_
_atom_site_label
_atom_site_type_symbol
_atom_site_fract_x
_atom_site_fract_y
_atom_site_fract_z
Fe1 Fe 0.53663(2) -0.06135(3) 0.58782(2)
O1 O 0.54929(9) -0.0434(2) 0.51058(9)
O2 O 0.57546(8) 0.0530(2) 0.60354(8)
N1 N 0.4956(1) -0.1779(2) 0.5756(1)
N2 N 0.5202(1) -0.0824(2) 0.6662(1)
N3 N 0.4672(1) 0.0179(2) 0.5799(1)
N4 N 0.1069(1) 0.1381(2) 0.5947(1)
C1 C 0.5588(2) -0.0745(3) 0.4133(1)
C2 C 0.5383(1) -0.1028(3) 0.4695(1)
C3 C 0.5102(1) -0.1873(3) 0.4762(1)
C4 C 0.4882(1) -0.2231(3) 0.5274(1)
C5 C 0.4557(2) -0.3136(3) 0.5249(2)
C6 C 0.4677(2) -0.2106(3) 0.6253(1)
C7 C 0.4923(2) -0.1736(3) 0.6770(1)
C8 C 0.5141(1) -0.0516(3) 0.7674(1)
C9 C 0.5336(1) -0.0268(3) 0.7090(1)
C10 C 0.5650(1) 0.0564(3) 0.7024(1)
C11 C 0.5833(1) 0.0929(3) 0.6522(1)
C12 C 0.6150(1) 0.1840(3) 0.6502(1)
C13 C 0.4304(1) 0.0012(2) 0.5384(1)
C14 C 0.3831(1) 0.0530(3) 0.5345(1)
C15 C 0.3702(1) 0.1251(3) 0.5726(1)
C16 C 0.4089(1) 0.1439(3) 0.6139(1)
C17 C 0.4555(1) 0.0899(3) 0.6161(1)
C18 C 0.1387(1) 0.1315(3) 0.6405(1)
C19 C 0.1860(1) 0.1809(3) 0.6466(1)
C20 C 0.2034(1) 0.2450(3) 0.6057(1)
C21 C 0.1704(1) 0.2541(3) 0.5588(1)
C22 C 0.1236(1) 0.2007(3) 0.5554(1)
C23 C 0.3175(1) 0.1784(3) 0.5686(1)
C24 C 0.3049(1) 0.2447(3) 0.6180(1)
C25 C 0.2543(1) 0.3027(3) 0.6114(1)
H1 H 0.5595 -0.0063 0.4119
H2 H 0.5361 -0.0983 0.3845
H3 H 0.5942 -0.0987 0.4082
H4 H 0.5047 -0.2250 0.4435
H5 H 0.4189 -0.2980 0.5188
H6 H 0.4682 -0.3534 0.4953
H7 H 0.4593 -0.3467 0.5595
H8 H 0.4320 -0.1862 0.6239
H9 H 0.4666 -0.2788 0.6261
H10 H 0.4662 -0.1650 0.7056
H11 H 0.5183 -0.2194 0.6888
H12 H 0.4812 -0.0862 0.7652
H13 H 0.5406 -0.0903 0.7852
H14 H 0.5088 0.0055 0.7885
H15 H 0.5745 0.0893 0.7359
H16 H 0.6344 0.1914 0.6841
H17 H 0.5909 0.2365 0.6456
H18 H 0.6394 0.1824 0.6196
H19 H 0.4370 -0.0485 0.5120
H20 H 0.3590 0.0379 0.5049
H21 H 0.4028 0.1933 0.6407
H22 H 0.4815 0.1046 0.6440
H23 H 0.1797 0.2979 0.5300
H24 H 0.1018 0.2080 0.5229
H25 H 0.1275 0.0900 0.6698
H26 H 0.2073 0.1732 0.6793
H27 H 0.3178 0.2165 0.5356
H28 H 0.2894 0.1323 0.5662
H29 H 0.3344 0.2874 0.6225
H30 H 0.3012 0.2062 0.6506
H31 H 0.2503 0.3443 0.6426
H32 H 0.2578 0.3398 0.5782
Fe1B Fe 0.03663(2) 0.06135(3) 0.58782(2)
N4B N 0.6069(1) -0.1381(2) 0.5947(1)
Fe2 Fe 0.71166(2) 0.43974(4) 0.47080(2)
O3 O 0.67085(9) 0.5540(2) 0.45708(8)
O4 O 0.7049(1) 0.4458(2) 0.5496(1)
N5 N 0.7245(1) 0.4225(2) 0.3891(1)
N6 N 0.7575(1) 0.3224(2) 0.4772(1)
N7 N 0.6398(1) 0.3554(2) 0.4652(1)
N8 N 0.2828(1) 0.4753(3) 0.4767(1)
C26 C 0.6273(1) 0.6865(3) 0.4131(1)
C27 C 0.6600(1) 0.5958(3) 0.4093(1)
C28 C 0.6774(1) 0.5618(2) 0.3584(1)
C29 C 0.7085(1) 0.4781(3) 0.3480(1)
C30 C 0.7220(1) 0.4547(3) 0.2878(1)
C31 C 0.7511(1) 0.3305(3) 0.3752(1)
C32 C 0.7857(1) 0.2985(3) 0.4239(1)
C33 C 0.8041(2) 0.1846(3) 0.5203(2)
C34 C 0.7679(1) 0.2724(3) 0.5223(1)
C35 C 0.7461(1) 0.2980(3) 0.5746(1)
C36 C 0.7179(1) 0.3820(3) 0.5870(1)
C37 C 0.7009(2) 0.4021(4) 0.6462(1)
C38 C 0.6042(1) 0.3692(3) 0.4233(1)
C39 C 0.5584(1) 0.3175(3) 0.4165(1)
C40 C 0.5451(1) 0.2446(3) 0.4547(1)
C41 C 0.5806(1) 0.2311(3) 0.4990(1)
C42 C 0.6268(1) 0.2861(3) 0.5019(1)
C43 C 0.3198(2) 0.4894(3) 0.5170(2)
C44 C 0.3664(1) 0.4366(3) 0.5211(1)
C45 C 0.3788(1) 0.3661(3) 0.4821(1)
C46 C 0.3408(1) 0.3503(3) 0.4405(1)
C47 C 0.2943(1) 0.4050(3) 0.4394(1)
C48 C 0.4950(1) 0.1851(3) 0.4486(2)
C49 C 0.4427(1) 0.2424(3) 0.4382(1)
C50 C 0.4315(1) 0.3119(3) 0.4855(1)
H33 H 0.6991 0.4698 0.6508
H34 H 0.6663 0.3750 0.6521
H35 H 0.7256 0.3760 0.6724
H36 H 0.7519 0.2542 0.6045
H37 H 0.7935 0.1385 0.5475
H38 H 0.8400 0.2049 0.5276
H39 H 0.8023 0.1567 0.4840
H40 H 0.7913 0.2311 0.4222
H41 H 0.8194 0.3306 0.4222
H42 H 0.7241 0.2837 0.3683
H43 H 0.7727 0.3382 0.3427
H44 H 0.7561 0.4236 0.2867
H45 H 0.7237 0.5126 0.2667
H46 H 0.6954 0.4136 0.2722
H47 H 0.6675 0.5992 0.3268
H48 H 0.6500 0.7410 0.4172
H49 H 0.6061 0.6935 0.3803
H50 H 0.6045 0.6812 0.4448
H51 H 0.6513 0.2750 0.5317
H52 H 0.5732 0.1839 0.5267
H53 H 0.5342 0.3330 0.3871
H54 H 0.6126 0.4158 0.3956
H55 H 0.3467 0.3018 0.4131
H56 H 0.2684 0.3931 0.4110
H57 H 0.3910 0.4478 0.5509
H58 H 0.3117 0.5350 0.5453
H59 H 0.5001 0.1435 0.4175
H60 H 0.4902 0.1479 0.4816
H61 H 0.4469 0.2781 0.4046
H62 H 0.4128 0.2002 0.4348
H63 H 0.4599 0.3576 0.4863
H64 H 0.4315 0.2763 0.5194
Fe2B Fe 0.21166(2) 0.56026(4) 0.47080(2)
N8B N 0.7828(1) 0.5247(3) 0.4767(1)
C51 C 0.4878(1) 0.5114(3) 0.1747(1)
C52 C 0.4538(1) 0.4314(3) 0.1696(1)
C53 C 0.4233(2) 0.4128(3) 0.1229(2)
C54 C 0.4251(2) 0.4741(4) 0.0773(1)
C55 C 0.4579(2) 0.5524(3) 0.0800(2)
C56 C 0.4885(1) 0.5716(3) 0.1276(1)
C57 C 0.4910(1) 0.5173(3) 0.2890(1)
C58 C 0.4349(1) 0.5153(3) 0.2928(2)
C59 C 0.4086(2) 0.5202(3) 0.3442(2)
C60 C 0.4371(2) 0.5302(3) 0.3930(1)
C61 C 0.4917(2) 0.5352(3) 0.3909(1)
C62 C 0.5187(1) 0.5273(3) 0.3397(1)
C63 C 0.5702(1) 0.4397(3) 0.2242(1)
C64 C 0.5755(1) 0.3628(3) 0.2612(1)
C65 C 0.6130(2) 0.2876(3) 0.2527(2)
C66 C 0.6463(1) 0.2908(3) 0.2065(2)
C67 C 0.6424(2) 0.3641(3) 0.1691(2)
C68 C 0.6049(1) 0.4366(3) 0.1778(1)
C69 C 0.5527(1) 0.6321(3) 0.2342(1)
C70 C 0.6069(1) 0.6529(3) 0.2346(1)
C71 C 0.6276(1) 0.7426(3) 0.2486(1)
C72 C 0.5929(2) 0.8159(3) 0.2637(1)
C73 C 0.5390(2) 0.7995(3) 0.2611(1)
C74 C 0.5192(1) 0.7110(3) 0.2459(1)
B1 B 0.5253(2) 0.5241(3) 0.2299(1)
H85 H 0.4514 0.3895 0.2008
H86 H 0.4010 0.3573 0.1220
H87 H 0.4041 0.4623 0.0448
H88 H 0.4608 0.5928 0.0481
H89 H 0.5093 0.6289 0.1287
H90 H 0.4814 0.7014 0.2446
H91 H 0.5144 0.8501 0.2691
H92 H 0.6064 0.8766 0.2752
H93 H 0.6653 0.7531 0.2482
H94 H 0.6310 0.6025 0.2248
H95 H 0.5570 0.5264 0.3391
H96 H 0.5115 0.5468 0.4243
H97 H 0.4189 0.5317 0.4280
H98 H 0.3705 0.5177 0.3463
H99 H 0.4142 0.5100 0.2595
H100 H 0.5524 0.3606 0.2929
H101 H 0.6152 0.2370 0.2793
H102 H 0.6719 0.2409 0.2011
H103 H 0.6647 0.3639 0.1368
H104 H 0.6040 0.4886 0.1520
C75 C 0.2449(2) -0.0142(3) 0.2609(1)
C76 C 0.2715(2) -0.0320(3) 0.2103(1)
C77 C 0.2440(2) -0.0440(3) 0.1595(1)
C78 C 0.1896(2) -0.0402(3) 0.1582(2)
C79 C 0.1613(2) -0.0242(4) 0.2065(2)
C80 C 0.1895(2) -0.0111(3) 0.2564(2)
C81 C 0.3024(1) 0.1188(3) 0.3077(1)
C82 C 0.2664(1) 0.1975(3) 0.3066(1)
C83 C 0.2822(2) 0.2891(3) 0.2927(1)
C84 C 0.3349(2) 0.3098(3) 0.2800(1)
C85 C 0.3711(1) 0.2356(3) 0.2817(1)
C86 C 0.3551(1) 0.1427(3) 0.2948(1)
C87 C 0.3279(1) -0.0680(3) 0.3283(1)
C88 C 0.3677(1) -0.0515(3) 0.3690(1)
C89 C 0.4082(1) -0.1166(3) 0.3806(1)
C90 C 0.4104(1) -0.2036(3) 0.3526(1)
C91 C 0.3715(1) -0.2243(3) 0.3131(1)
C92 C 0.3316(1) -0.1584(3) 0.3021(1)
C93 C 0.2422(1) 0.0019(2) 0.3743(2)
C94 C 0.2089(1) -0.0770(3) 0.3820(2)
C95 C 0.1795(2) -0.0929(4) 0.4303(2)
C96 C 0.1825(2) -0.0295(4) 0.4743(2)
C97 C 0.2156(2) 0.0483(4) 0.4686(2)
C98 C 0.2452(1) 0.0658(3) 0.4195(1)
B2 B 0.2801(2) 0.0093(3) 0.3173(2)
H65 H 0.1699 -0.0006 0.2900
H66 H 0.1231 -0.0217 0.2066
H67 H 0.1706 -0.0500 0.1241
H68 H 0.2635 -0.0530 0.1257
H69 H 0.3095 -0.0381 0.2108
H70 H 0.3049 -0.1746 0.2752
H71 H 0.3720 -0.2842 0.2940
H72 H 0.4387 -0.2479 0.3599
H73 H 0.4342 -0.1023 0.4086
H74 H 0.3663 0.0078 0.3887
H75 H 0.3812 0.0929 0.2946
H76 H 0.4080 0.2482 0.2741
H77 H 0.3458 0.3727 0.2695
H78 H 0.2566 0.3399 0.2937
H79 H 0.2295 0.1857 0.3143
H80 H 0.2672 0.1213 0.4166
H81 H 0.2188 0.0927 0.4987
H82 H 0.1629 -0.0378 0.5081
H83 H 0.1572 -0.1481 0.4337
H84 H 0.2066 -0.1223 0.3524
loop_
_geom_bond_atom_site_label_1
_geom_bond_atom_site_label_2
_geom_bond_site_symmetry_1
_geom_bond_site_symmetry_2
Fe1 O1 1_555 1_555
Fe2 O3 1_555 1_555
O1 C2 1_555 1_555
O2 Fe1 1_555 1_555
O3 C27 1_555 1_555
O4 Fe2 1_555 1_555
N1 Fe1 1_555 1_555
N2 Fe1 1_555 1_555
N3 Fe1 1_555 1_555
N4 C18 1_555 1_555
N5 Fe2 1_555 1_555
N6 Fe2 1_555 1_555
N7 Fe2 1_555 1_555
N8 C43 1_555 1_555
C1 C2 1_555 1_555
C2 C3 1_555 1_555
C3 C4 1_555 1_555
C4 N1 1_555 1_555
C5 C4 1_555 1_555
C6 N1 1_555 1_555
C7 N2 1_555 1_555
C8 C9 1_555 1_555
C9 N2 1_555 1_555
C10 C9 1_555 1_555
C11 O2 1_555 1_555
C12 C11 1_555 1_555
C13 N3 1_555 1_555
C14 C13 1_555 1_555
C15 C14 1_555 1_555
C16 C15 1_555 1_555
C17 N3 1_555 1_555
C18 C19 1_555 1_555
C19 C20 1_555 1_555
C20 C21 1_555 1_555
C21 C22 1_555 1_555
C22 N4 1_555 1_555
C23 C15 1_555 1_555
C24 C23 1_555 1_555
C25 C20 1_555 1_555
C26 C27 1_555 1_555
C27 C28 1_555 1_555
C28 C29 1_555 1_555
C29 N5 1_555 1_555
C30 C29 1_555 1_555
C31 N5 1_555 1_555
C32 N6 1_555 1_555
C33 C34 1_555 1_555
C34 N6 1_555 1_555
C35 C34 1_555 1_555
C36 O4 1_555 1_555
C37 C36 1_555 1_555
C38 N7 1_555 1_555
C39 C38 1_555 1_555
C40 C39 1_555 1_555
C41 C40 1_555 1_555
C42 N7 1_555 1_555
C43 C44 1_555 1_555
C44 C45 1_555 1_555
C45 C46 1_555 1_555
C46 C47 1_555 1_555
C47 N8 1_555 1_555
C48 C40 1_555 1_555
C49 C48 1_555 1_555
C50 C45 1_555 1_555
C51 C52 1_555 1_555
C52 C53 1_555 1_555
C53 C54 1_555 1_555
C54 C55 1_555 1_555
C55 C56 1_555 1_555
C56 C51 1_555 1_555
C57 C58 1_555 1_555
C58 C59 1_555 1_555
C59 C60 1_555 1_555
C60 C61 1_555 1_555
C61 C62 1_555 1_555
C62 C57 1_555 1_555
C63 C64 1_555 1_555
C64 C65 1_555 1_555
C65 C66 1_555 1_555
C66 C67 1_555 1_555
C67 C68 1_555 1_555
C68 C63 1_555 1_555
C69 C70 1_555 1_555
C70 C71 1_555 1_555
C71 C72 1_555 1_555
C72 C73 1_555 1_555
C73 C74 1_555 1_555
C74 C69 1_555 1_555
C75 C76 1_555 1_555
C76 C77 1_555 1_555
C77 C78 1_555 1_555
C78 C79 1_555 1_555
C79 C80 1_555 1_555
C80 C75 1_555 1_555
C81 C82 1_555 1_555
C82 C83 1_555 1_555
C83 C84 1_555 1_555
C84 C85 1_555 1_555
C85 C86 1_555 1_555
C86 C81 1_555 1_555
C87 C88 1_555 1_555
C88 C89 1_555 1_555
C89 C90 1_555 1_555
C90 C91 1_555 1_555
C91 C92 1_555 1_555
C92 C87 1_555 1_555
C93 C94 1_555 1_555
C94 C95 1_555 1_555
C95 C96 1_555 1_555
C96 C97 1_555 1_555
C97 C98 1_555 1_555
C98 C93 1_555 1_555
B1 C51 1_555 1_555
B2 C75 1_555 1_555
H1 C1 1_555 1_555
H2 C1 1_555 1_555
H3 C1 1_555 1_555
H4 C3 1_555 1_555
H5 C5 1_555 1_555
H6 C5 1_555 1_555
H7 C5 1_555 1_555
H8 C6 1_555 1_555
H9 C6 1_555 1_555
H10 C7 1_555 1_555
H11 C7 1_555 1_555
H12 C8 1_555 1_555
H13 C8 1_555 1_555
H14 C8 1_555 1_555
H15 C10 1_555 1_555
H16 C12 1_555 1_555
H17 C12 1_555 1_555
H18 C12 1_555 1_555
H19 C13 1_555 1_555
H20 C14 1_555 1_555
H21 C16 1_555 1_555
H22 C17 1_555 1_555
H23 C21 1_555 1_555
H24 C22 1_555 1_555
H25 C18 1_555 1_555
H26 C19 1_555 1_555
H27 C23 1_555 1_555
H28 C23 1_555 1_555
H29 C24 1_555 1_555
H30 C24 1_555 1_555
H31 C25 1_555 1_555
H32 C25 1_555 1_555
H33 C37 1_555 1_555
H34 C37 1_555 1_555
H35 C37 1_555 1_555
H36 C35 1_555 1_555
H37 C33 1_555 1_555
H38 C33 1_555 1_555
H39 C33 1_555 1_555
H40 C32 1_555 1_555
H41 C32 1_555 1_555
H42 C31 1_555 1_555
H43 C31 1_555 1_555
H44 C30 1_555 1_555
H45 C30 1_555 1_555
H46 C30 1_555 1_555
H47 C28 1_555 1_555
H48 C26 1_555 1_555
H49 C26 1_555 1_555
H50 C26 1_555 1_555
H51 C42 1_555 1_555
H52 C41 1_555 1_555
H53 C39 1_555 1_555
H54 C38 1_555 1_555
H55 C46 1_555 1_555
H56 C47 1_555 1_555
H57 C44 1_555 1_555
H58 C43 1_555 1_555
H59 C48 1_555 1_555
H60 C48 1_555 1_555
H61 C49 1_555 1_555
H62 C49 1_555 1_555
H63 C50 1_555 1_555
H64 C50 1_555 1_555
H65 C80 1_555 1_555
H66 C79 1_555 1_555
H67 C78 1_555 1_555
H68 C77 1_555 1_555
H69 C76 1_555 1_555
H70 C92 1_555 1_555
H71 C91 1_555 1_555
H72 C90 1_555 1_555
H73 C89 1_555 1_555
H74 C88 1_555 1_555
H75 C86 1_555 1_555
H76 C85 1_555 1_555
H77 C84 1_555 1_555
H78 C83 1_555 1_555
H79 C82 1_555 1_555
H80 C98 1_555 1_555
H81 C97 1_555 1_555
H82 C96 1_555 1_555
H83 C95 1_555 1_555
H84 C94 1_555 1_555
H85 C52 1_555 1_555
H86 C53 1_555 1_555
H87 C54 1_555 1_555
H88 C55 1_555 1_555
H89 C56 1_555 1_555
H90 C74 1_555 1_555
H91 C73 1_555 1_555
H92 C72 1_555 1_555
H93 C71 1_555 1_555
H94 C70 1_555 1_555
H95 C62 1_555 1_555
H96 C61 1_555 1_555
H97 C60 1_555 1_555
H98 C59 1_555 1_555
H99 C58 1_555 1_555
H100 C64 1_555 1_555
H101 C65 1_555 1_555
H102 C66 1_555 1_555
H103 C67 1_555 1_555
H104 C68 1_555 1_555
Fe1B N4 1_555 1_555
Fe2B N8 1_555 1_555
N4B Fe1 1_555 1_555
N8B Fe2 1_555 1_555
C6 C7 1_555 1_555
C10 C11 1_555 1_555
C16 C17 1_555 1_555
C24 C25 1_555 1_555
C31 C32 1_555 1_555
C35 C36 1_555 1_555
C41 C42 1_555 1_555
C49 C50 1_555 1_555
C57 B1 1_555 1_555
C63 B1 1_555 1_555
C69 B1 1_555 1_555
C81 B2 1_555 1_555
C87 B2 1_555 1_555
C93 B2 1_555 1_555

#END
