
#######################################################################
#
#                 Cambridge Crystallographic Data Centre
#                                CCDC 
#
#######################################################################
#
# If this CIF has been generated from an entry in the Cambridge 
# Structural Database, then it will include bibliographic, chemical, 
# crystal, experimental, refinement or atomic coordinate data resulting 
# from the CCDC's data processing and validation procedures.
#
#######################################################################

data_YEJMAC
_symmetry_cell_setting           orthorhombic
_symmetry_space_group_name_H-M   'P c a 21'
_symmetry_Int_Tables_number      29
_space_group_name_Hall           'P 2c -2ac'
loop_
_symmetry_equiv_pos_site_id
_symmetry_equiv_pos_as_xyz
1 x,y,z
2 1/2-x,y,1/2+z
3 1/2+x,-y,z
4 -x,-y,1/2+z
_cell_length_a                   24.708(3)
_cell_length_b                   13.893(2)
_cell_length_c                   23.704(3)
_cell_angle_alpha                90
_cell_angle_beta                 90
_cell_angle_gamma                90
_cell_volume                     8136.83
loop_
_atom_site_label
_atom_site_type_symbol
_atom_site_fract_x
_atom_site_fract_y
_atom_site_fract_z
Fe1 Fe 0.53734(2) -0.06222(2) 0.59780(2)
O1 O 0.55126(8) -0.0411(1) 0.52029(8)
O2 O 0.57740(7) 0.0528(1) 0.61172(8)
N1 N 0.49671(9) -0.1767(1) 0.5857(1)
N2 N 0.52168(9) -0.0821(1) 0.6762(1)
N3 N 0.4684(1) 0.0172(2) 0.5899(1)
N4 N 0.10753(9) 0.1382(1) 0.6050(1)
C1 C 0.5600(1) -0.0707(2) 0.4228(1)
C2 C 0.5396(1) -0.0990(2) 0.4793(1)
C3 C 0.5113(1) -0.1848(2) 0.4854(1)
C4 C 0.4895(1) -0.2204(2) 0.5365(1)
C5 C 0.4555(1) -0.3106(2) 0.5336(1)
C6 C 0.4671(1) -0.2076(2) 0.6356(1)
C7 C 0.4956(1) -0.1751(2) 0.6876(1)
C8 C 0.5152(1) -0.0495(2) 0.7779(1)
C9 C 0.5346(1) -0.0259(2) 0.7186(1)
C10 C 0.5668(1) 0.0584(2) 0.7112(1)
C11 C 0.5853(1) 0.0933(2) 0.6604(1)
C12 C 0.6172(1) 0.1854(2) 0.6588(1)
C13 C 0.4319(1) -0.0002(2) 0.5488(1)
C14 C 0.3853(1) 0.0517(2) 0.5429(1)
C15 C 0.3727(1) 0.1248(2) 0.5812(1)
C16 C 0.4104(1) 0.1437(2) 0.6230(1)
C17 C 0.4575(1) 0.0896(2) 0.6259(1)
C18 C 0.1236(1) 0.2001(2) 0.5642(1)
C19 C 0.1707(1) 0.2528(2) 0.5682(1)
C20 C 0.2039(1) 0.2447(2) 0.6146(1)
C21 C 0.1875(1) 0.1810(2) 0.6572(1)
C22 C 0.1388(1) 0.1300(2) 0.6503(1)
C23 C 0.3190(1) 0.1784(2) 0.5773(1)
C24 C 0.3067(1) 0.2452(2) 0.6270(1)
C25 C 0.2545(1) 0.3040(2) 0.6203(1)
H1 H 0.5336 -0.0323 0.4043
H2 H 0.5675 -0.1261 0.4007
H3 H 0.5923 -0.0343 0.4275
H4 H 0.5060 -0.2226 0.4524
H5 H 0.4779 -0.3655 0.5386
H6 H 0.4382 -0.3141 0.4979
H7 H 0.4289 -0.3089 0.5625
H8 H 0.4319 -0.1801 0.6347
H9 H 0.4642 -0.2758 0.6358
H10 H 0.5223 -0.2213 0.6977
H11 H 0.4706 -0.1680 0.7177
H12 H 0.4812 -0.0192 0.7842
H13 H 0.5408 -0.0262 0.8045
H14 H 0.5113 -0.1171 0.7821
H15 H 0.5757 0.0936 0.7443
H16 H 0.6547 0.1714 0.6627
H17 H 0.6060 0.2259 0.6889
H18 H 0.6111 0.2171 0.6238
H19 H 0.4397 -0.0491 0.5220
H20 H 0.3609 0.0373 0.5132
H21 H 0.4041 0.1936 0.6496
H22 H 0.4835 0.1043 0.6542
H23 H 0.1013 0.2079 0.5318
H24 H 0.1804 0.2957 0.5386
H25 H 0.2092 0.1729 0.6898
H26 H 0.1279 0.0876 0.6796
H27 H 0.3197 0.2165 0.5440
H28 H 0.2907 0.1323 0.5746
H29 H 0.3034 0.2067 0.6599
H30 H 0.3362 0.2884 0.6314
H31 H 0.2580 0.3426 0.5874
H32 H 0.2504 0.3444 0.6524
Fe1B Fe 0.03734(2) 0.06222(2) 0.59780(2)
N4B N 0.60753(9) -0.1382(1) 0.6050(1)
Fe2 Fe 0.71054(2) 0.43702(3) 0.47797(2)
O3 O 0.66899(8) 0.5513(1) 0.46862(8)
O4 O 0.70069(8) 0.4507(1) 0.55731(9)
N5 N 0.7227(1) 0.4212(1) 0.3989(1)
N6 N 0.7534(1) 0.3233(1) 0.4866(1)
N7 N 0.64088(9) 0.3574(1) 0.4739(1)
N8 N 0.2785(1) 0.4819(2) 0.4841(1)
C26 C 0.6255(1) 0.6852(2) 0.4250(1)
C27 C 0.6586(1) 0.5937(2) 0.4209(1)
C28 C 0.6755(1) 0.5622(2) 0.3683(1)
C29 C 0.7065(1) 0.4787(2) 0.3583(1)
C30 C 0.7205(1) 0.4560(2) 0.2973(1)
C31 C 0.7486(1) 0.3284(2) 0.3846(1)
C32 C 0.7819(1) 0.2959(2) 0.4345(1)
C33 C 0.8005(1) 0.1895(2) 0.5332(2)
C34 C 0.7644(1) 0.2764(2) 0.5334(1)
C35 C 0.7426(1) 0.3063(2) 0.5862(1)
C36 C 0.7134(1) 0.3904(2) 0.5957(1)
C37 C 0.6962(2) 0.4156(3) 0.6549(1)
C38 C 0.6042(1) 0.3732(2) 0.4326(1)
C39 C 0.5568(1) 0.3229(2) 0.4275(1)
C40 C 0.5435(1) 0.2501(2) 0.4664(1)
C41 C 0.5807(1) 0.2340(2) 0.5095(1)
C42 C 0.6280(1) 0.2883(2) 0.5110(1)
C43 C 0.2907(1) 0.4113(2) 0.4472(1)
C44 C 0.3375(1) 0.3568(2) 0.4497(1)
C45 C 0.3757(1) 0.3730(2) 0.4922(1)
C46 C 0.3624(1) 0.4451(2) 0.5305(1)
C47 C 0.3152(1) 0.4970(2) 0.5262(1)
C48 C 0.4924(1) 0.1914(2) 0.4611(1)
C49 C 0.4409(1) 0.2480(2) 0.4500(1)
C50 C 0.4282(1) 0.3197(2) 0.4967(1)
H33 H 0.5881 0.6694 0.4228
H34 H 0.6346 0.7277 0.3951
H35 H 0.6328 0.7156 0.4601
H36 H 0.6657 0.6006 0.3368
H37 H 0.7538 0.4864 0.2880
H38 H 0.6927 0.4799 0.2735
H39 H 0.7239 0.3885 0.2922
H40 H 0.7214 0.2819 0.3770
H41 H 0.7709 0.3357 0.3522
H42 H 0.8163 0.3265 0.4331
H43 H 0.7866 0.2280 0.4334
H44 H 0.7796 0.1333 0.5266
H45 H 0.8188 0.1838 0.5683
H46 H 0.8262 0.1970 0.5037
H47 H 0.7486 0.2651 0.6175
H48 H 0.7235 0.4527 0.6728
H49 H 0.6898 0.3587 0.6761
H50 H 0.6638 0.4521 0.6526
H51 H 0.6126 0.4203 0.4049
H52 H 0.5320 0.3388 0.3983
H53 H 0.5739 0.1865 0.5375
H54 H 0.6531 0.2764 0.5405
H55 H 0.2657 0.3988 0.4176
H56 H 0.3433 0.3069 0.4230
H57 H 0.3862 0.4579 0.5611
H58 H 0.3082 0.5465 0.5528
H59 H 0.4971 0.1471 0.4310
H60 H 0.4878 0.1571 0.4954
H61 H 0.4448 0.2821 0.4155
H62 H 0.4111 0.2050 0.4473
H63 H 0.4565 0.3659 0.4966
H64 H 0.4284 0.2857 0.5314
Fe2B Fe 0.21054(2) 0.56298(3) 0.47797(2)
N8B N 0.7785(1) 0.5181(2) 0.4841(1)
C51 C 0.5523(1) 0.6318(2) 0.2424(1)
C52 C 0.5177(1) 0.7104(2) 0.2548(1)
C53 C 0.5380(1) 0.8002(2) 0.2702(1)
C54 C 0.5922(1) 0.8154(2) 0.2732(1)
C55 C 0.6271(1) 0.7426(2) 0.2591(1)
C56 C 0.6067(1) 0.6528(2) 0.2436(1)
C57 C 0.5703(1) 0.4387(2) 0.2342(1)
C58 C 0.6059(1) 0.4356(2) 0.1875(1)
C59 C 0.6429(1) 0.3629(2) 0.1790(1)
C60 C 0.6471(1) 0.2880(2) 0.2167(1)
C61 C 0.6129(1) 0.2857(2) 0.2631(1)
C62 C 0.5756(1) 0.3619(2) 0.2712(1)
C63 C 0.4902(1) 0.5176(2) 0.2986(1)
C64 C 0.5178(1) 0.5296(2) 0.3502(1)
C65 C 0.4914(1) 0.5366(2) 0.4013(1)
C66 C 0.4357(1) 0.5322(2) 0.4034(1)
C67 C 0.4068(1) 0.5212(2) 0.3540(1)
C68 C 0.4339(1) 0.5149(2) 0.3023(1)
C69 C 0.4867(1) 0.5088(2) 0.1837(1)
C70 C 0.4538(1) 0.4277(2) 0.1793(1)
C71 C 0.4231(1) 0.4062(2) 0.1324(1)
C72 C 0.4254(1) 0.4654(3) 0.0855(1)
C73 C 0.4578(1) 0.5466(2) 0.0873(1)
C74 C 0.4877(1) 0.5684(2) 0.1357(1)
B1 B 0.5247(1) 0.5235(2) 0.2386(1)
H65 H 0.4797 0.7005 0.2524
H66 H 0.5134 0.8507 0.2789
H67 H 0.6057 0.8763 0.2847
H68 H 0.6651 0.7536 0.2593
H69 H 0.6312 0.6029 0.2338
H70 H 0.6046 0.4872 0.1612
H71 H 0.6659 0.3638 0.1470
H72 H 0.6724 0.2374 0.2113
H73 H 0.6150 0.2346 0.2897
H74 H 0.5525 0.3594 0.3032
H75 H 0.5562 0.5309 0.3496
H76 H 0.5115 0.5455 0.4350
H77 H 0.4172 0.5373 0.4384
H78 H 0.3684 0.5167 0.3555
H79 H 0.4133 0.5088 0.2686
H80 H 0.4515 0.3867 0.2113
H81 H 0.4013 0.3499 0.1320
H82 H 0.4045 0.4509 0.0530
H83 H 0.4600 0.5875 0.0553
H84 H 0.5087 0.6256 0.1365
C75 C 0.2442(1) -0.0152(2) 0.2698(1)
C76 C 0.2711(1) -0.0323(2) 0.2185(1)
C77 C 0.2437(1) -0.0456(2) 0.1681(1)
C78 C 0.1880(1) -0.0401(2) 0.1657(1)
C79 C 0.1599(1) -0.0220(3) 0.2157(2)
C80 C 0.1875(1) -0.0101(2) 0.2657(2)
C81 C 0.2415(1) 0.0003(2) 0.3843(2)
C82 C 0.2062(1) -0.0784(2) 0.3912(1)
C83 C 0.1766(1) -0.0958(2) 0.4394(2)
C84 C 0.1802(1) -0.0344(3) 0.4844(2)
C85 C 0.2150(1) 0.0439(2) 0.4800(2)
C86 C 0.2438(1) 0.0620(2) 0.4310(1)
C87 C 0.3013(1) 0.1193(2) 0.3180(1)
C88 C 0.2645(1) 0.1971(2) 0.3182(1)
C89 C 0.2803(1) 0.2897(2) 0.3043(1)
C90 C 0.3335(1) 0.3095(2) 0.2903(1)
C91 C 0.3702(1) 0.2359(2) 0.2909(1)
C92 C 0.3544(1) 0.1420(2) 0.3038(1)
C93 C 0.3275(1) -0.0691(2) 0.3376(1)
C94 C 0.3675(1) -0.0517(2) 0.3779(1)
C95 C 0.4081(1) -0.1175(2) 0.3904(1)
C96 C 0.4094(1) -0.2056(2) 0.3624(1)
C97 C 0.3703(1) -0.2268(2) 0.3236(1)
C98 C 0.3296(1) -0.1601(2) 0.3114(1)
B2 B 0.2780(1) 0.0082(2) 0.3271(1)
H85 H 0.3095 -0.0366 0.2189
H86 H 0.2636 -0.0569 0.1344
H87 H 0.1690 -0.0481 0.1312
H88 H 0.1215 -0.0199 0.2155
H89 H 0.1677 0.0022 0.2993
H90 H 0.2034 -0.1235 0.3613
H91 H 0.1531 -0.1499 0.4411
H92 H 0.1601 -0.0451 0.5180
H93 H 0.2189 0.0865 0.5111
H94 H 0.2661 0.1176 0.4291
H95 H 0.2278 0.1850 0.3275
H96 H 0.2547 0.3407 0.3052
H97 H 0.3444 0.3727 0.2799
H98 H 0.4071 0.2487 0.2823
H99 H 0.3806 0.0920 0.3039
H100 H 0.3668 0.0082 0.3973
H101 H 0.4348 -0.1023 0.4178
H102 H 0.4371 -0.2511 0.3700
H103 H 0.3703 -0.2872 0.3047
H104 H 0.3027 -0.1763 0.2844
loop_
_geom_bond_atom_site_label_1
_geom_bond_atom_site_label_2
_geom_bond_site_symmetry_1
_geom_bond_site_symmetry_2
Fe1 O1 1_555 1_555
Fe2 O3 1_555 1_555
O1 C2 1_555 1_555
O2 Fe1 1_555 1_555
O3 C27 1_555 1_555
O4 Fe2 1_555 1_555
N1 Fe1 1_555 1_555
N2 Fe1 1_555 1_555
N3 Fe1 1_555 1_555
N4 C18 1_555 1_555
N5 Fe2 1_555 1_555
N6 Fe2 1_555 1_555
N7 Fe2 1_555 1_555
N8 C43 1_555 1_555
C1 C2 1_555 1_555
C2 C3 1_555 1_555
C3 C4 1_555 1_555
C4 N1 1_555 1_555
C5 C4 1_555 1_555
C6 N1 1_555 1_555
C7 N2 1_555 1_555
C8 C9 1_555 1_555
C9 N2 1_555 1_555
C10 C9 1_555 1_555
C11 O2 1_555 1_555
C12 C11 1_555 1_555
C13 N3 1_555 1_555
C14 C13 1_555 1_555
C15 C14 1_555 1_555
C16 C15 1_555 1_555
C17 N3 1_555 1_555
C18 C19 1_555 1_555
C19 C20 1_555 1_555
C20 C21 1_555 1_555
C21 C22 1_555 1_555
C22 N4 1_555 1_555
C23 C15 1_555 1_555
C24 C23 1_555 1_555
C25 C20 1_555 1_555
C26 C27 1_555 1_555
C27 C28 1_555 1_555
C28 C29 1_555 1_555
C29 N5 1_555 1_555
C30 C29 1_555 1_555
C31 N5 1_555 1_555
C32 N6 1_555 1_555
C33 C34 1_555 1_555
C34 N6 1_555 1_555
C35 C34 1_555 1_555
C36 O4 1_555 1_555
C37 C36 1_555 1_555
C38 N7 1_555 1_555
C39 C38 1_555 1_555
C40 C39 1_555 1_555
C41 C40 1_555 1_555
C42 N7 1_555 1_555
C43 C44 1_555 1_555
C44 C45 1_555 1_555
C45 C46 1_555 1_555
C46 C47 1_555 1_555
C47 N8 1_555 1_555
C48 C40 1_555 1_555
C49 C48 1_555 1_555
C50 C45 1_555 1_555
C51 C52 1_555 1_555
C52 C53 1_555 1_555
C53 C54 1_555 1_555
C54 C55 1_555 1_555
C55 C56 1_555 1_555
C56 C51 1_555 1_555
C57 C58 1_555 1_555
C58 C59 1_555 1_555
C59 C60 1_555 1_555
C60 C61 1_555 1_555
C61 C62 1_555 1_555
C62 C57 1_555 1_555
C63 C64 1_555 1_555
C64 C65 1_555 1_555
C65 C66 1_555 1_555
C66 C67 1_555 1_555
C67 C68 1_555 1_555
C68 C63 1_555 1_555
C69 C70 1_555 1_555
C70 C71 1_555 1_555
C71 C72 1_555 1_555
C72 C73 1_555 1_555
C73 C74 1_555 1_555
C74 C69 1_555 1_555
C75 C76 1_555 1_555
C76 C77 1_555 1_555
C77 C78 1_555 1_555
C78 C79 1_555 1_555
C79 C80 1_555 1_555
C80 C75 1_555 1_555
C81 C82 1_555 1_555
C82 C83 1_555 1_555
C83 C84 1_555 1_555
C84 C85 1_555 1_555
C85 C86 1_555 1_555
C86 C81 1_555 1_555
C87 C88 1_555 1_555
C88 C89 1_555 1_555
C89 C90 1_555 1_555
C90 C91 1_555 1_555
C91 C92 1_555 1_555
C92 C87 1_555 1_555
C93 C94 1_555 1_555
C94 C95 1_555 1_555
C95 C96 1_555 1_555
C96 C97 1_555 1_555
C97 C98 1_555 1_555
C98 C93 1_555 1_555
B1 C51 1_555 1_555
B2 C75 1_555 1_555
H1 C1 1_555 1_555
H2 C1 1_555 1_555
H3 C1 1_555 1_555
H4 C3 1_555 1_555
H5 C5 1_555 1_555
H6 C5 1_555 1_555
H7 C5 1_555 1_555
H8 C6 1_555 1_555
H9 C6 1_555 1_555
H10 C7 1_555 1_555
H11 C7 1_555 1_555
H12 C8 1_555 1_555
H13 C8 1_555 1_555
H14 C8 1_555 1_555
H15 C10 1_555 1_555
H16 C12 1_555 1_555
H17 C12 1_555 1_555
H18 C12 1_555 1_555
H19 C13 1_555 1_555
H20 C14 1_555 1_555
H21 C16 1_555 1_555
H22 C17 1_555 1_555
H23 C18 1_555 1_555
H24 C19 1_555 1_555
H25 C21 1_555 1_555
H26 C22 1_555 1_555
H27 C23 1_555 1_555
H28 C23 1_555 1_555
H29 C24 1_555 1_555
H30 C24 1_555 1_555
H31 C25 1_555 1_555
H32 C25 1_555 1_555
H33 C26 1_555 1_555
H34 C26 1_555 1_555
H35 C26 1_555 1_555
H36 C28 1_555 1_555
H37 C30 1_555 1_555
H38 C30 1_555 1_555
H39 C30 1_555 1_555
H40 C31 1_555 1_555
H41 C31 1_555 1_555
H42 C32 1_555 1_555
H43 C32 1_555 1_555
H44 C33 1_555 1_555
H45 C33 1_555 1_555
H46 C33 1_555 1_555
H47 C35 1_555 1_555
H48 C37 1_555 1_555
H49 C37 1_555 1_555
H50 C37 1_555 1_555
H51 C38 1_555 1_555
H52 C39 1_555 1_555
H53 C41 1_555 1_555
H54 C42 1_555 1_555
H55 C43 1_555 1_555
H56 C44 1_555 1_555
H57 C46 1_555 1_555
H58 C47 1_555 1_555
H59 C48 1_555 1_555
H60 C48 1_555 1_555
H61 C49 1_555 1_555
H62 C49 1_555 1_555
H63 C50 1_555 1_555
H64 C50 1_555 1_555
H65 C52 1_555 1_555
H66 C53 1_555 1_555
H67 C54 1_555 1_555
H68 C55 1_555 1_555
H69 C56 1_555 1_555
H70 C58 1_555 1_555
H71 C59 1_555 1_555
H72 C60 1_555 1_555
H73 C61 1_555 1_555
H74 C62 1_555 1_555
H75 C64 1_555 1_555
H76 C65 1_555 1_555
H77 C66 1_555 1_555
H78 C67 1_555 1_555
H79 C68 1_555 1_555
H80 C70 1_555 1_555
H81 C71 1_555 1_555
H82 C72 1_555 1_555
H83 C73 1_555 1_555
H84 C74 1_555 1_555
H85 C76 1_555 1_555
H86 C77 1_555 1_555
H87 C78 1_555 1_555
H88 C79 1_555 1_555
H89 C80 1_555 1_555
H90 C82 1_555 1_555
H91 C83 1_555 1_555
H92 C84 1_555 1_555
H93 C85 1_555 1_555
H94 C86 1_555 1_555
H95 C88 1_555 1_555
H96 C89 1_555 1_555
H97 C90 1_555 1_555
H98 C91 1_555 1_555
H99 C92 1_555 1_555
H100 C94 1_555 1_555
H101 C95 1_555 1_555
H102 C96 1_555 1_555
H103 C97 1_555 1_555
H104 C98 1_555 1_555
Fe1B N4 1_555 1_555
Fe2B N8 1_555 1_555
N4B Fe1 1_555 1_555
N8B Fe2 1_555 1_555
C6 C7 1_555 1_555
C10 C11 1_555 1_555
C16 C17 1_555 1_555
C24 C25 1_555 1_555
C31 C32 1_555 1_555
C35 C36 1_555 1_555
C41 C42 1_555 1_555
C49 C50 1_555 1_555
C57 B1 1_555 1_555
C63 B1 1_555 1_555
C69 B1 1_555 1_555
C81 B2 1_555 1_555
C87 B2 1_555 1_555
C93 B2 1_555 1_555

#END
