
#######################################################################
#
#                 Cambridge Crystallographic Data Centre
#                                CCDC 
#
#######################################################################
#
# If this CIF has been generated from an entry in the Cambridge 
# Structural Database, then it will include bibliographic, chemical, 
# crystal, experimental, refinement or atomic coordinate data resulting 
# from the CCDC's data processing and validation procedures.
#
#######################################################################

data_YEJMIK
_symmetry_cell_setting           trigonal
_symmetry_space_group_name_H-M   'P -3'
_symmetry_Int_Tables_number      147
_space_group_name_Hall           '-P 3'
loop_
_symmetry_equiv_pos_site_id
_symmetry_equiv_pos_as_xyz
1 x,y,z
2 -y,x-y,z
3 -x+y,-x,z
4 -x,-y,-z
5 y,-x+y,-z
6 x-y,x,-z
_cell_length_a                   16.0568(11)
_cell_length_b                   16.0568(11)
_cell_length_c                   7.6324(10)
_cell_angle_alpha                90
_cell_angle_beta                 90
_cell_angle_gamma                120
_cell_volume                     1704.16
loop_
_atom_site_label
_atom_site_type_symbol
_atom_site_fract_x
_atom_site_fract_y
_atom_site_fract_z
Zn1 Zn 0.87264(3) 0.09940(3) 0.89703(6)
Br1 Br 0.80431(4) 0.34146(4) 0.79837(9)
O1 O 0.90397(19) 0.23949(19) 0.9205(4)
O2 O 1.06269(19) 0.31353(19) 0.9649(4)
O3 O 0.7891(2) 0.0855(2) 0.6682(4)
O4 O 0.98716(19) 0.13566(19) 0.7202(4)
O5 O 1.11581(18) 0.16064(19) 0.8776(4)
N1 N 0.7722(3) 0.1686(3) 0.4462(5)
C1 C 0.9840(3) 0.3115(3) 0.9496(5)
C2 C 0.9886(3) 0.4074(3) 0.9700(5)
C3 C 0.9304(3) 0.5200(3) 0.9455(6)
H1 H 0.8827 0.5327 0.9080
C4 C 0.9189(3) 0.4299(3) 0.9158(6)
C5 C 0.8234(4) 0.1518(3) 0.5603(6)
H2 H 0.8897 0.1925 0.5598
C6 C 0.8172(6) 0.2467(5) 0.3195(8)
H3 H 0.8857 0.2792 0.3337
H4 H 0.7948 0.2913 0.3384
H5 H 0.8007 0.2210 0.2030
C7 C 0.6684(5) 0.1097(7) 0.4485(9)
H6 H 0.6494 0.0618 0.5386
H7 H 0.6464 0.0787 0.3370
H8 H 0.6406 0.1494 0.4716
C8 C 1.0687(3) 0.1468(3) 0.7360(5)
H9 H 1.0989 0.1448 0.6335
Zn1C Zn 1.12736(3) 0.90060(3) 1.10297(6)
Zn1D Zn 1.09940(3) 0.22676(4) 1.10297(6)
Zn1B Zn 1.22676(4) 0.12736(3) 0.89703(6)
Zn1A Zn 0.90060(3) 0.77324(4) 0.89703(6)
Zn1A_2 Zn 0.90060(3) -0.22676(4) 0.89703(6)
Zn1E Zn 0.77324(4) -0.12736(3) 1.10297(6)
Br1C Br 1.19569(4) 0.65854(4) 1.20163(9)
O1C O 1.09603(19) 0.76051(19) 1.0795(4)
O2C O 0.93731(19) 0.68647(19) 1.0351(4)
O2E O 0.74916(27) 0.06269(19) 1.0351(4)
O2B O 1.25084(27) 0.93731(19) 0.9649(4)
O3C O 1.2109(2) 0.9145(2) 1.3318(4)
O4A O 0.86434(19) -0.14850(27) 0.7202(4)
O4C O 1.01284(19) 0.86434(19) 1.2798(4)
O5A O 0.83936(19) -0.04483(26) 0.8776(4)
O5E O 0.95517(26) 0.11581(18) 1.1224(4)
O5B O 1.04483(26) 0.88419(18) 0.8776(4)
O5D O 1.16064(19) 1.04483(26) 1.1224(4)
N1C N 1.2278(3) 0.8314(3) 1.5538(5)
C1C C 1.0160(3) 0.6885(3) 1.0504(5)
C2C C 1.0114(3) 0.5926(3) 1.0300(5)
C3C C 1.0696(3) 0.4800(3) 1.0545(6)
H1C H 1.1173 0.4673 1.0920
C4C C 1.0811(3) 0.5701(3) 1.0842(6)
C5C C 1.1766(4) 0.8482(3) 1.4397(6)
H2C H 1.1103 0.8075 1.4402
C6C C 1.1828(6) 0.7533(5) 1.6805(8)
H3C H 1.1143 0.7208 1.6663
H4C H 1.2052 0.7087 1.6616
H5C H 1.1993 0.7790 1.7970
C7C C 1.3316(5) 0.8903(7) 1.5515(9)
H6C H 1.3506 0.9382 1.4614
H7C H 1.3536 0.9213 1.6630
H8C H 1.3594 0.8506 1.5284
C8A C 0.8532(3) -0.0781(4) 0.7360(5)
H9A H 0.8552 -0.0459 0.6335
loop_
_geom_bond_atom_site_label_1
_geom_bond_atom_site_label_2
_geom_bond_site_symmetry_1
_geom_bond_site_symmetry_2
Zn1 O1 1_555 1_555
Br1 C4 1_555 1_555
O1 C1 1_555 1_555
O2 C1 1_555 1_555
O3 Zn1 1_555 1_555
O4 Zn1 1_555 1_555
O5 C8 1_555 1_555
N1 C5 1_555 1_555
C1 C2 1_555 1_555
C2 C4 1_555 1_555
C3 H1 1_555 1_555
C4 C3 1_555 1_555
C5 O3 1_555 1_555
H2 C5 1_555 1_555
C6 N1 1_555 1_555
H3 C6 1_555 1_555
H4 C6 1_555 1_555
H5 C6 1_555 1_555
C7 N1 1_555 1_555
H6 C7 1_555 1_555
H7 C7 1_555 1_555
H8 C7 1_555 1_555
C8 O4 1_555 1_555
H9 C8 1_555 1_555
Zn1C O1C 1_555 1_555
Zn1D O2 1_555 1_555
Zn1B O5 1_555 1_555
Zn1A O2C 1_555 1_555
Zn1A_2 O4A 1_555 1_555
Zn1E O5A 1_555 1_555
Br1C C4C 1_555 1_555
O1C C1C 1_555 1_555
O2C C1C 1_555 1_555
O2E Zn1 1_555 1_555
O2B Zn1C 1_555 1_555
O3C Zn1C 1_555 1_555
O4A C8A 1_555 1_555
O4C Zn1C 1_555 1_555
O5A Zn1 1_555 1_555
O5E Zn1 1_555 1_555
O5B Zn1C 1_555 1_555
O5D Zn1C 1_555 1_555
N1C C5C 1_555 1_555
C1C C2C 1_555 1_555
C2C C3 1_555 1_555
C3C C2 1_555 1_555
H1C C3C 1_555 1_555
C4C C2C 1_555 1_555
C5C O3C 1_555 1_555
H2C C5C 1_555 1_555
C6C N1C 1_555 1_555
H3C C6C 1_555 1_555
H4C C6C 1_555 1_555
H5C C6C 1_555 1_555
C7C N1C 1_555 1_555
H6C C7C 1_555 1_555
H7C C7C 1_555 1_555
H8C C7C 1_555 1_555
C8A O5A 1_555 1_555
H9A C8A 1_555 1_555
O5 Zn1D 1_555 1_555
Zn1D O5E 1_555 1_555
Zn1A O5B 1_555 1_555
C3C C4C 1_555 1_555

#END
