
#######################################################################
#
#                 Cambridge Crystallographic Data Centre
#                                CCDC 
#
#######################################################################
#
# If this CIF has been generated from an entry in the Cambridge 
# Structural Database, then it will include bibliographic, chemical, 
# crystal, experimental, refinement or atomic coordinate data resulting 
# from the CCDC's data processing and validation procedures.
#
#######################################################################

data_YEJMAC02
_symmetry_cell_setting           orthorhombic
_symmetry_space_group_name_H-M   'P c a 21'
_symmetry_Int_Tables_number      29
_space_group_name_Hall           'P 2c -2ac'
loop_
_symmetry_equiv_pos_site_id
_symmetry_equiv_pos_as_xyz
1 x,y,z
2 1/2-x,y,1/2+z
3 1/2+x,-y,z
4 -x,-y,1/2+z
_cell_length_a                   25.132(2)
_cell_length_b                   13.925(4)
_cell_length_c                   24.136(3)
_cell_angle_alpha                90
_cell_angle_beta                 90
_cell_angle_gamma                90
_cell_volume                     8446.71
loop_
_atom_site_label
_atom_site_type_symbol
_atom_site_fract_x
_atom_site_fract_y
_atom_site_fract_z
Fe1 Fe 0.53600(1) -0.05525(2) 0.57907(2)
O1 O 0.54519(8) -0.0474(1) 0.50026(8)
O2 O 0.57272(7) 0.0601(1) 0.59985(7)
N1 N 0.49236(9) -0.1777(1) 0.5694(1)
N2 N 0.51766(9) -0.0789(1) 0.66043(9)
N3 N 0.4630(1) 0.0296(2) 0.5712(1)
N4 N 0.10896(8) 0.1372(1) 0.58744(9)
C1 C 0.5544(1) -0.0873(2) 0.4056(1)
C2 C 0.5346(1) -0.1116(2) 0.4624(1)
C3 C 0.5071(1) -0.1942(2) 0.4718(1)
C4 C 0.4860(1) -0.2257(2) 0.5235(1)
C5 C 0.4549(1) -0.3189(2) 0.5219(2)
C6 C 0.4667(2) -0.2091(3) 0.6200(1)
C7 C 0.4878(2) -0.1668(2) 0.6684(1)
C8 C 0.5114(1) -0.0499(2) 0.7604(1)
C9 C 0.5310(1) -0.0255(2) 0.7024(1)
C10 C 0.5627(1) 0.0575(2) 0.6968(1)
C11 C 0.5808(1) 0.0961(2) 0.6485(1)
C12 C 0.6119(1) 0.1876(2) 0.6488(1)
C13 C 0.4252(1) 0.0122(2) 0.5317(1)
C14 C 0.3782(1) 0.0613(2) 0.5288(1)
C15 C 0.3666(1) 0.1328(2) 0.5675(1)
C16 C 0.4046(1) 0.1516(2) 0.6070(1)
C17 C 0.4511(1) 0.1000(2) 0.6071(1)
C18 C 0.1254(1) 0.2000(2) 0.5488(1)
C19 C 0.1704(1) 0.2550(2) 0.5541(1)
C20 C 0.2016(1) 0.2486(2) 0.6008(1)
C21 C 0.1841(1) 0.1848(2) 0.6412(1)
C22 C 0.1387(1) 0.1327(2) 0.6332(1)
C23 C 0.3136(1) 0.1858(2) 0.5650(1)
C24 C 0.3015(1) 0.2509(2) 0.6136(1)
C25 C 0.2506(1) 0.3085(2) 0.6082(1)
H1 H 0.5282 -0.0517 0.3860
H2 H 0.5628 -0.1439 0.3855
H3 H 0.5855 -0.0494 0.4100
H4 H 0.5017 -0.2347 0.4407
H5 H 0.4379 -0.3258 0.4869
H6 H 0.4783 -0.3715 0.5278
H7 H 0.4287 -0.3178 0.5503
H8 H 0.4683 -0.2771 0.6225
H9 H 0.4306 -0.1892 0.6181
H10 H 0.5119 -0.2126 0.6834
H11 H 0.4601 -0.1552 0.6943
H12 H 0.5087 -0.1177 0.7633
H13 H 0.5365 -0.0268 0.7866
H14 H 0.4776 -0.0218 0.7676
H15 H 0.5726 0.0885 0.7304
H16 H 0.6056 0.2205 0.6149
H17 H 0.6012 0.2270 0.6789
H18 H 0.6487 0.1734 0.6520
H19 H 0.4327 -0.0335 0.5035
H20 H 0.3526 0.0461 0.5012
H21 H 0.3988 0.2013 0.6333
H22 H 0.4769 0.1147 0.6345
H23 H 0.1276 0.0891 0.6612
H24 H 0.2043 0.1782 0.6743
H25 H 0.1802 0.2981 0.5254
H26 H 0.1050 0.2061 0.5159
H27 H 0.2856 0.1403 0.5621
H28 H 0.3140 0.2253 0.5329
H29 H 0.3307 0.2937 0.6181
H30 H 0.2987 0.2111 0.6454
H31 H 0.2461 0.3456 0.6409
H32 H 0.2543 0.3500 0.5772
Fe1B Fe 0.03600(1) 0.05525(2) 0.57907(2)
N4B N 0.60896(8) -0.1372(1) 0.58744(9)
Fe2 Fe 0.71431(1) 0.44303(2) 0.46697(2)
O3 O 0.67516(7) 0.5576(1) 0.44951(7)
O4 O 0.70962(7) 0.4434(1) 0.54627(8)
N5 N 0.72834(9) 0.4227(1) 0.38391(9)
N6 N 0.76113(9) 0.3219(1) 0.4716(1)
N7 N 0.64103(8) 0.3555(1) 0.46020(9)
N8 N 0.2883(1) 0.4685(2) 0.4725(1)
C26 C 0.6317(1) 0.6870(2) 0.4038(1)
C27 C 0.6643(1) 0.5961(2) 0.4014(1)
C28 C 0.6809(1) 0.5601(2) 0.3520(1)
C29 C 0.7117(1) 0.4761(2) 0.3424(1)
C30 C 0.7246(1) 0.4528(2) 0.2832(1)
C31 C 0.7562(1) 0.3314(2) 0.3714(1)
C32 C 0.7868(1) 0.2977(2) 0.4194(1)
C33 C 0.8055(1) 0.1821(2) 0.5137(2)
C34 C 0.7707(1) 0.2702(2) 0.5161(1)
C35 C 0.7498(1) 0.2960(2) 0.5685(1)
C36 C 0.7220(1) 0.3781(2) 0.5818(1)
C37 C 0.7042(1) 0.3984(3) 0.6406(1)
C38 C 0.6074(1) 0.3675(2) 0.4182(1)
C39 C 0.5617(1) 0.3151(2) 0.4109(1)
C40 C 0.5484(1) 0.2445(2) 0.4472(1)
C41 C 0.5820(1) 0.2313(2) 0.4915(1)
C42 C 0.6269(1) 0.2868(2) 0.4961(1)
C43 C 0.2992(1) 0.4001(2) 0.4347(1)
C44 C 0.3448(1) 0.3469(2) 0.4345(1)
C45 C 0.3832(1) 0.3622(2) 0.4750(1)
C46 C 0.3714(1) 0.4315(2) 0.5145(1)
C47 C 0.3247(1) 0.4828(2) 0.5114(2)
C48 C 0.4986(1) 0.1844(2) 0.4399(1)
C49 C 0.4470(1) 0.2417(2) 0.4306(1)
C50 C 0.4356(1) 0.3097(2) 0.4783(1)
H33 H 0.7284 0.3704 0.6661
H34 H 0.6696 0.3726 0.6464
H35 H 0.7033 0.4660 0.6460
H36 H 0.7548 0.2504 0.5973
H37 H 0.7953 0.1351 0.5401
H38 H 0.8413 0.2006 0.5201
H39 H 0.8024 0.1561 0.4774
H40 H 0.8211 0.3262 0.4186
H41 H 0.7902 0.2299 0.4170
H42 H 0.7306 0.2843 0.3614
H43 H 0.7796 0.3423 0.3411
H44 H 0.7586 0.4231 0.2812
H45 H 0.7250 0.5107 0.2624
H46 H 0.6985 0.4106 0.2683
H47 H 0.6716 0.5967 0.3202
H48 H 0.6094 0.6837 0.4355
H49 H 0.6104 0.6914 0.3714
H50 H 0.6539 0.7420 0.4063
H51 H 0.6160 0.4143 0.3910
H52 H 0.5386 0.3290 0.3808
H53 H 0.5746 0.1829 0.5181
H54 H 0.6499 0.2778 0.5269
H55 H 0.3185 0.5330 0.5373
H56 H 0.3955 0.4423 0.5441
H57 H 0.3506 0.3001 0.4065
H58 H 0.2730 0.3884 0.4072
H59 H 0.4936 0.1484 0.4729
H60 H 0.5039 0.1419 0.4096
H61 H 0.4520 0.2789 0.3981
H62 H 0.4175 0.1999 0.4257
H63 H 0.4633 0.3562 0.4799
H64 H 0.4358 0.2726 0.5113
Fe2B Fe 0.21431(1) 0.55697(2) 0.46697(2)
N8B N 0.7883(1) 0.5315(2) 0.4725(1)
C51 C 0.4894(1) 0.5120(2) 0.1701(2)
C52 C 0.4890(1) 0.5739(2) 0.1248(1)
C53 C 0.4584(1) 0.5573(3) 0.0783(2)
C54 C 0.4260(2) 0.4777(4) 0.0753(2)
C55 C 0.4247(1) 0.4162(3) 0.1185(2)
C56 C 0.4556(1) 0.4320(2) 0.1639(1)
C57 C 0.4934(2) 0.5164(2) 0.2830(2)
C58 C 0.4378(2) 0.5140(2) 0.2872(2)
C59 C 0.4118(2) 0.5190(2) 0.3372(2)
C60 C 0.4398(2) 0.5286(3) 0.3857(2)
C61 C 0.4944(2) 0.5325(3) 0.3841(1)
C62 C 0.5198(2) 0.5273(2) 0.3342(1)
C63 C 0.5705(1) 0.4372(2) 0.2189(1)
C64 C 0.5755(1) 0.3619(2) 0.2551(1)
C65 C 0.6138(2) 0.2875(3) 0.2475(2)
C66 C 0.6461(1) 0.2887(3) 0.2017(2)
C67 C 0.6418(1) 0.3623(3) 0.1649(2)
C68 C 0.6049(1) 0.4348(2) 0.1734(1)
C69 C 0.5546(1) 0.6297(2) 0.2289(1)
C70 C 0.6081(1) 0.6480(2) 0.2296(1)
C71 C 0.6296(1) 0.7373(3) 0.2431(1)
C72 C 0.5962(2) 0.8111(3) 0.2564(1)
C73 C 0.5424(2) 0.7976(2) 0.2546(1)
C74 C 0.5226(1) 0.7095(2) 0.2407(1)
B1 B 0.5264(2) 0.5229(3) 0.2246(2)
H65 H 0.5117 0.6285 0.1253
H66 H 0.4593 0.6008 0.0480
H67 H 0.4060 0.4652 0.0427
H68 H 0.4015 0.3624 0.1174
H69 H 0.4555 0.3859 0.1930
H70 H 0.4178 0.5067 0.2541
H71 H 0.3741 0.5187 0.3392
H72 H 0.4222 0.5309 0.4205
H73 H 0.5140 0.5393 0.4175
H74 H 0.5576 0.5301 0.3334
H75 H 0.5517 0.3594 0.2856
H76 H 0.6170 0.2376 0.2741
H77 H 0.6712 0.2387 0.1958
H78 H 0.6651 0.3629 0.1339
H79 H 0.6029 0.4851 0.1470
H80 H 0.6311 0.5964 0.2200
H81 H 0.6671 0.7467 0.2439
H82 H 0.6096 0.8721 0.2671
H83 H 0.5185 0.8493 0.2611
H84 H 0.4852 0.7002 0.2407
C75 C 0.2469(2) -0.0140(2) 0.2546(2)
C76 C 0.2736(1) -0.0302(2) 0.2059(1)
C77 C 0.2471(2) -0.0448(2) 0.1553(1)
C78 C 0.1930(2) -0.0386(3) 0.1532(2)
C79 C 0.1666(2) -0.0207(3) 0.1994(2)
C80 C 0.1928(2) -0.0093(2) 0.2499(2)
C81 C 0.2435(2) 0.0031(2) 0.3670(2)
C82 C 0.2098(1) -0.0731(2) 0.3753(2)
C83 C 0.1794(2) -0.0877(3) 0.4218(2)
C84 C 0.1834(2) -0.0235(4) 0.4648(2)
C85 C 0.2164(2) 0.0531(3) 0.4603(2)
C86 C 0.2458(1) 0.0675(2) 0.4112(1)
C87 C 0.3040(1) 0.1186(2) 0.3021(1)
C88 C 0.2689(1) 0.1974(2) 0.3002(1)
C89 C 0.2855(1) 0.2890(2) 0.2875(1)
C90 C 0.3376(1) 0.3085(2) 0.2751(1)
C91 C 0.3725(1) 0.2330(3) 0.2770(2)
C92 C 0.3553(1) 0.1414(2) 0.2884(1)
C93 C 0.3278(1) -0.0681(2) 0.3225(1)
C94 C 0.3666(1) -0.0511(2) 0.3635(1)
C95 C 0.4066(1) -0.1162(2) 0.3750(1)
C96 C 0.4092(1) -0.2021(2) 0.3472(1)
C97 C 0.3718(1) -0.2237(2) 0.3083(1)
C98 C 0.3323(1) -0.1578(2) 0.2965(1)
B2 B 0.2809(1) 0.0096(2) 0.3116(2)
H85 H 0.3113 -0.0316 0.2071
H86 H 0.2671 -0.0579 0.1228
H87 H 0.1740 -0.0474 0.1196
H88 H 0.1289 -0.0141 0.1990
H89 H 0.1729 -0.0003 0.2830
H90 H 0.2072 -0.1176 0.3455
H91 H 0.1570 -0.1423 0.4250
H92 H 0.1623 -0.0307 0.4973
H93 H 0.2207 0.0963 0.4905
H94 H 0.2667 0.1239 0.4073
H95 H 0.2321 0.1858 0.3068
H96 H 0.2608 0.3407 0.2883
H97 H 0.3495 0.3712 0.2658
H98 H 0.4092 0.2435 0.2698
H99 H 0.3805 0.0906 0.2866
H100 H 0.3651 0.0084 0.3827
H101 H 0.4322 -0.1023 0.4028
H102 H 0.4368 -0.2470 0.3547
H103 H 0.3722 -0.2841 0.2900
H104 H 0.3074 -0.1724 0.2681
loop_
_geom_bond_atom_site_label_1
_geom_bond_atom_site_label_2
_geom_bond_site_symmetry_1
_geom_bond_site_symmetry_2
Fe1 O1 1_555 1_555
Fe2 O3 1_555 1_555
O1 C2 1_555 1_555
O2 Fe1 1_555 1_555
O3 C27 1_555 1_555
O4 Fe2 1_555 1_555
N1 Fe1 1_555 1_555
N2 Fe1 1_555 1_555
N3 Fe1 1_555 1_555
N4 C18 1_555 1_555
N5 Fe2 1_555 1_555
N6 Fe2 1_555 1_555
N7 Fe2 1_555 1_555
N8 C43 1_555 1_555
C1 C2 1_555 1_555
C2 C3 1_555 1_555
C3 C4 1_555 1_555
C4 N1 1_555 1_555
C5 C4 1_555 1_555
C6 N1 1_555 1_555
C7 N2 1_555 1_555
C8 C9 1_555 1_555
C9 N2 1_555 1_555
C10 C9 1_555 1_555
C11 O2 1_555 1_555
C12 C11 1_555 1_555
C13 N3 1_555 1_555
C14 C13 1_555 1_555
C15 C14 1_555 1_555
C16 C15 1_555 1_555
C17 N3 1_555 1_555
C18 C19 1_555 1_555
C19 C20 1_555 1_555
C20 C21 1_555 1_555
C21 C22 1_555 1_555
C22 N4 1_555 1_555
C23 C15 1_555 1_555
C24 C23 1_555 1_555
C25 C20 1_555 1_555
C26 C27 1_555 1_555
C27 C28 1_555 1_555
C28 C29 1_555 1_555
C29 N5 1_555 1_555
C30 C29 1_555 1_555
C31 N5 1_555 1_555
C32 N6 1_555 1_555
C33 C34 1_555 1_555
C34 N6 1_555 1_555
C35 C34 1_555 1_555
C36 O4 1_555 1_555
C37 C36 1_555 1_555
C38 N7 1_555 1_555
C39 C38 1_555 1_555
C40 C39 1_555 1_555
C41 C40 1_555 1_555
C42 N7 1_555 1_555
C43 C44 1_555 1_555
C44 C45 1_555 1_555
C45 C46 1_555 1_555
C46 C47 1_555 1_555
C47 N8 1_555 1_555
C48 C40 1_555 1_555
C49 C48 1_555 1_555
C50 C45 1_555 1_555
C51 C52 1_555 1_555
C52 C53 1_555 1_555
C53 C54 1_555 1_555
C54 C55 1_555 1_555
C55 C56 1_555 1_555
C56 C51 1_555 1_555
C57 C58 1_555 1_555
C58 C59 1_555 1_555
C59 C60 1_555 1_555
C60 C61 1_555 1_555
C61 C62 1_555 1_555
C62 C57 1_555 1_555
C63 C64 1_555 1_555
C64 C65 1_555 1_555
C65 C66 1_555 1_555
C66 C67 1_555 1_555
C67 C68 1_555 1_555
C68 C63 1_555 1_555
C69 C70 1_555 1_555
C70 C71 1_555 1_555
C71 C72 1_555 1_555
C72 C73 1_555 1_555
C73 C74 1_555 1_555
C74 C69 1_555 1_555
C75 C76 1_555 1_555
C76 C77 1_555 1_555
C77 C78 1_555 1_555
C78 C79 1_555 1_555
C79 C80 1_555 1_555
C80 C75 1_555 1_555
C81 C82 1_555 1_555
C82 C83 1_555 1_555
C83 C84 1_555 1_555
C84 C85 1_555 1_555
C85 C86 1_555 1_555
C86 C81 1_555 1_555
C87 C88 1_555 1_555
C88 C89 1_555 1_555
C89 C90 1_555 1_555
C90 C91 1_555 1_555
C91 C92 1_555 1_555
C92 C87 1_555 1_555
C93 C94 1_555 1_555
C94 C95 1_555 1_555
C95 C96 1_555 1_555
C96 C97 1_555 1_555
C97 C98 1_555 1_555
C98 C93 1_555 1_555
B1 C51 1_555 1_555
B2 C75 1_555 1_555
H1 C1 1_555 1_555
H2 C1 1_555 1_555
H3 C1 1_555 1_555
H4 C3 1_555 1_555
H5 C5 1_555 1_555
H6 C5 1_555 1_555
H7 C5 1_555 1_555
H8 C6 1_555 1_555
H9 C6 1_555 1_555
H10 C7 1_555 1_555
H11 C7 1_555 1_555
H12 C8 1_555 1_555
H13 C8 1_555 1_555
H14 C8 1_555 1_555
H15 C10 1_555 1_555
H16 C12 1_555 1_555
H17 C12 1_555 1_555
H18 C12 1_555 1_555
H19 C13 1_555 1_555
H20 C14 1_555 1_555
H21 C16 1_555 1_555
H22 C17 1_555 1_555
H23 C22 1_555 1_555
H24 C21 1_555 1_555
H25 C19 1_555 1_555
H26 C18 1_555 1_555
H27 C23 1_555 1_555
H28 C23 1_555 1_555
H29 C24 1_555 1_555
H30 C24 1_555 1_555
H31 C25 1_555 1_555
H32 C25 1_555 1_555
H33 C37 1_555 1_555
H34 C37 1_555 1_555
H35 C37 1_555 1_555
H36 C35 1_555 1_555
H37 C33 1_555 1_555
H38 C33 1_555 1_555
H39 C33 1_555 1_555
H40 C32 1_555 1_555
H41 C32 1_555 1_555
H42 C31 1_555 1_555
H43 C31 1_555 1_555
H44 C30 1_555 1_555
H45 C30 1_555 1_555
H46 C30 1_555 1_555
H47 C28 1_555 1_555
H48 C26 1_555 1_555
H49 C26 1_555 1_555
H50 C26 1_555 1_555
H51 C38 1_555 1_555
H52 C39 1_555 1_555
H53 C41 1_555 1_555
H54 C42 1_555 1_555
H55 C47 1_555 1_555
H56 C46 1_555 1_555
H57 C44 1_555 1_555
H58 C43 1_555 1_555
H59 C48 1_555 1_555
H60 C48 1_555 1_555
H61 C49 1_555 1_555
H62 C49 1_555 1_555
H63 C50 1_555 1_555
H64 C50 1_555 1_555
H65 C52 1_555 1_555
H66 C53 1_555 1_555
H67 C54 1_555 1_555
H68 C55 1_555 1_555
H69 C56 1_555 1_555
H70 C58 1_555 1_555
H71 C59 1_555 1_555
H72 C60 1_555 1_555
H73 C61 1_555 1_555
H74 C62 1_555 1_555
H75 C64 1_555 1_555
H76 C65 1_555 1_555
H77 C66 1_555 1_555
H78 C67 1_555 1_555
H79 C68 1_555 1_555
H80 C70 1_555 1_555
H81 C71 1_555 1_555
H82 C72 1_555 1_555
H83 C73 1_555 1_555
H84 C74 1_555 1_555
H85 C76 1_555 1_555
H86 C77 1_555 1_555
H87 C78 1_555 1_555
H88 C79 1_555 1_555
H89 C80 1_555 1_555
H90 C82 1_555 1_555
H91 C83 1_555 1_555
H92 C84 1_555 1_555
H93 C85 1_555 1_555
H94 C86 1_555 1_555
H95 C88 1_555 1_555
H96 C89 1_555 1_555
H97 C90 1_555 1_555
H98 C91 1_555 1_555
H99 C92 1_555 1_555
H100 C94 1_555 1_555
H101 C95 1_555 1_555
H102 C96 1_555 1_555
H103 C97 1_555 1_555
H104 C98 1_555 1_555
Fe1B N4 1_555 1_555
Fe2B N8 1_555 1_555
N4B Fe1 1_555 1_555
N8B Fe2 1_555 1_555
C6 C7 1_555 1_555
C10 C11 1_555 1_555
C16 C17 1_555 1_555
C24 C25 1_555 1_555
C31 C32 1_555 1_555
C35 C36 1_555 1_555
C41 C42 1_555 1_555
C49 C50 1_555 1_555
C57 B1 1_555 1_555
C63 B1 1_555 1_555
C69 B1 1_555 1_555
C81 B2 1_555 1_555
C87 B2 1_555 1_555
C93 B2 1_555 1_555

#END
