
#######################################################################
#
#                 Cambridge Crystallographic Data Centre
#                                CCDC 
#
#######################################################################
#
# If this CIF has been generated from an entry in the Cambridge 
# Structural Database, then it will include bibliographic, chemical, 
# crystal, experimental, refinement or atomic coordinate data resulting 
# from the CCDC's data processing and validation procedures.
#
#######################################################################

data_YEJPEJ
_symmetry_cell_setting           triclinic
_symmetry_space_group_name_H-M   'P -1'
_symmetry_Int_Tables_number      2
_space_group_name_Hall           '-P 1'
loop_
_symmetry_equiv_pos_site_id
_symmetry_equiv_pos_as_xyz
1 x,y,z
2 -x,-y,-z
_cell_length_a                   8.230(2)
_cell_length_b                   11.155(3)
_cell_length_c                   24.355(5)
_cell_angle_alpha                90.471(11)
_cell_angle_beta                 48.223(11)
_cell_angle_gamma                74.567(8)
_cell_volume                     1552.86
loop_
_atom_site_label
_atom_site_type_symbol
_atom_site_fract_x
_atom_site_fract_y
_atom_site_fract_z
C1 C -0.2515(3) 0.80301(17) 0.03930(10)
C2 C 0.2934(3) 0.68060(18) -0.07893(10)
C3 C -0.2500(3) 0.61466(18) 0.16382(11)
H1 H -0.3831 0.6111 0.1749
C4 C -0.2763(3) 0.65448(18) 0.22434(11)
H2 H -0.4243 0.6782 0.2753
C5 C -0.0825(3) 0.65923(18) 0.20940(10)
C6 C 0.1268(4) 0.6280(2) 0.13287(11)
H3 H 0.2618 0.633 0.1199
C7 C 0.1373(3) 0.5899(2) 0.07620(11)
H4 H 0.2817 0.569 0.0246
C8 C -0.0893(3) 0.69280(19) 0.27012(11)
C9 C -0.2886(3) 0.78267(19) 0.33956(11)
H5 H -0.4267 0.8208 0.3496
C10 C -0.2859(3) 0.81666(19) 0.39404(11)
H6 H -0.421 0.8789 0.4407
C11 C -0.0850(3) 0.75936(19) 0.38001(10)
C12 C 0.1117(3) 0.66589(19) 0.31204(11)
H7 H 0.2469 0.6244 0.3032
C13 C 0.1093(3) 0.63377(19) 0.25756(11)
H8 H 0.2441 0.5709 0.2111
C14 C -0.0708(3) 0.79881(19) 0.43457(11)
C15 C -0.1965(3) 1.02209(19) -0.07004(11)
H9 H -0.3349 1.0312 -0.019
C16 C -0.2001(3) 1.01433(19) -0.12590(11)
H10 H -0.3384 1.0165 -0.1129
C17 C -0.0014(3) 1.00328(17) -0.20121(10)
C18 C 0.1950(3) 1.00262(19) -0.21628(11)
H11 H 0.3335 0.9974 -0.2664
C19 C 0.1856(3) 1.00961(19) -0.15719(11)
H12 H 0.3206 1.0089 -0.1683
C20 C -0.0015(3) 0.98539(18) -0.26163(10)
C21 C -0.2051(3) 1.04808(19) -0.24596(11)
H13 H -0.3386 1.1082 -0.1982
C22 C -0.2126(3) 1.02264(19) -0.30002(11)
H14 H -0.3505 1.0659 -0.2893
C23 C -0.0180(3) 0.93378(18) -0.36986(11)
C24 C 0.1876(3) 0.87355(19) -0.38672(11)
H15 H 0.3218 0.8146 -0.4349
C25 C 0.1954(3) 0.90014(19) -0.33282(11)
H16 H 0.3359 0.8599 -0.3446
C26 C -0.0327(3) 0.90213(19) -0.42551(11)
N1 N -0.1962(3) 0.88875(15) 0.03909(9)
N2 N 0.2271(3) 0.59521(15) -0.06763(9)
N3 N -0.0458(3) 0.58077(15) 0.09022(9)
N4 N -0.0052(3) 1.01732(15) -0.08503(9)
O1 O -0.2646(3) 0.87387(16) 0.50059(8)
H17 H -0.239 0.8908 0.5273
O2 O 0.1212(3) 0.76198(15) 0.41532(8)
O3 O -0.2228(3) 0.94800(16) -0.40772(9)
O4 O 0.1585(3) 0.82458(16) -0.49066(8)
H18 H 0.1344 0.8121 -0.5184
S1 S -0.33775(9) 0.68443(5) 0.04099(3)
S2 S 0.38565(8) 0.80273(5) -0.09436(3)
Ni1 Ni 0.00000 0.50000 0.00000
Ni2 Ni 0.00000 1.00000 0.00000
C1A C 0.2515(3) 0.19699(17) -0.03930(10)
C2A C -0.2934(3) 0.31940(18) 0.07893(10)
C3A C 0.2500(3) 0.38534(18) -0.16382(11)
H1A H 0.3831 0.3889 -0.1749
C4A C 0.2763(3) 0.34552(18) -0.22434(11)
H2A H 0.4243 0.3218 -0.2753
C5A C 0.0825(3) 0.34077(18) -0.20940(10)
C6A C -0.1268(4) 0.3720(2) -0.13287(11)
H3A H -0.2618 0.367 -0.1199
C7A C -0.1373(3) 0.4101(2) -0.07620(11)
H4A H -0.2817 0.431 -0.0246
C8A C 0.0893(3) 0.30720(19) -0.27012(11)
C9A C 0.2886(3) 0.21733(19) -0.33956(11)
H5A H 0.4267 0.1792 -0.3496
C10A C 0.2859(3) 0.18334(19) -0.39404(11)
H6A H 0.421 0.1211 -0.4407
C11A C 0.0850(3) 0.24064(19) -0.38001(10)
C12A C -0.1117(3) 0.33411(19) -0.31204(11)
H7A H -0.2469 0.3756 -0.3032
C13A C -0.1093(3) 0.36623(19) -0.25756(11)
H8A H -0.2441 0.4291 -0.2111
C14A C 0.0708(3) 0.20119(19) -0.43457(11)
C15A C 0.1965(3) 0.97791(19) 0.07004(11)
H9A H 0.3349 0.9688 0.019
C16A C 0.2001(3) 0.98567(19) 0.12590(11)
H10A H 0.3384 0.9835 0.1129
C17A C 0.0014(3) 0.99672(17) 0.20121(10)
C18A C -0.1950(3) 0.99738(19) 0.21628(11)
H11A H -0.3335 1.0026 0.2664
C19A C -0.1856(3) 0.99039(19) 0.15719(11)
H12A H -0.3206 0.9911 0.1683
C20A C 0.0015(3) 1.01461(18) 0.26163(10)
C21A C 0.2051(3) 0.95192(19) 0.24596(11)
H13A H 0.3386 0.8918 0.1982
C22A C 0.2126(3) 0.97736(19) 0.30002(11)
H14A H 0.3505 0.9341 0.2893
C23A C 0.0180(3) 1.06622(18) 0.36986(11)
C24A C -0.1876(3) 1.12645(19) 0.38672(11)
H15A H -0.3218 1.1854 0.4349
C25A C -0.1954(3) 1.09986(19) 0.33282(11)
H16A H -0.3359 1.1401 0.3446
C26A C 0.0327(3) 1.09787(19) 0.42551(11)
N1A N 0.1962(3) 0.11125(15) -0.03909(9)
N1A_2 N 0.1962(3) 1.11125(15) -0.03909(9)
N2A N -0.2271(3) 0.40479(15) 0.06763(9)
N3A N 0.0458(3) 0.41923(15) -0.09022(9)
N4A N 0.0052(3) 0.98268(15) 0.08503(9)
O1A O 0.2646(3) 0.12613(16) -0.50059(8)
H17A H 0.239 0.1092 -0.5273
O2A O -0.1212(3) 0.23802(15) -0.41532(8)
O3A O 0.2228(3) 1.05200(16) 0.40772(9)
O4A O -0.1585(3) 1.17542(16) 0.49066(8)
H18A H -0.1344 1.1879 0.5184
S1A S 0.33775(9) 0.31557(5) -0.04099(3)
S2A S -0.38565(8) 0.19727(5) 0.09436(3)
S2A_2 S -0.38565(8) 1.19727(5) 0.09436(3)
Ni2_2 Ni 0.00000 0.00000 0.00000
C27 C 0.2344(5) 0.6870(2) 0.78343(14)
H19 H 0.1995 0.7256 0.8267
C28 C 0.0577(5) 0.6724(2) 0.79213(15)
H20 H -0.0981 0.7017 0.8408
C29 C 0.1108(5) 0.6141(2) 0.72849(15)
H21 H -0.0109 0.6052 0.7341
C30 C 0.3374(5) 0.5690(2) 0.65741(15)
H22 H 0.3699 0.5272 0.6153
C31 C 0.5212(4) 0.5844(2) 0.64661(14)
C32 C 0.4655(4) 0.6456(2) 0.71148(14)
C33 C 0.6446(5) 0.6674(3) 0.70175(16)
H23 H 0.607 0.7107 0.7447
C34 C 0.8694(5) 0.6278(3) 0.63234(16)
H24 H 0.9839 0.6442 0.6284
C35 C 0.9385(5) 0.5621(2) 0.56497(14)
C36 C 0.7625(4) 0.5416(2) 0.57207(14)
C37 C 1.1702(4) 0.5198(2) 0.49430(14)
H25 H 1.2855 0.5331 0.491
C27A C 1.7656(5) 0.3130(2) 0.21657(14)
H19A H 1.8005 0.2744 0.1733
C28A C 1.9423(5) 0.3276(2) 0.20787(15)
H20A H 2.0981 0.2983 0.1592
C29A C 1.8892(5) 0.3859(2) 0.27151(15)
H21A H 2.0109 0.3948 0.2659
C30A C 1.6626(5) 0.4310(2) 0.34259(15)
H22A H 1.6301 0.4728 0.3847
C31A C 1.4788(4) 0.4156(2) 0.35339(14)
C32A C 1.5345(4) 0.3544(2) 0.28852(14)
C33A C 1.3554(5) 0.3326(3) 0.29825(16)
H23A H 1.393 0.2893 0.2553
C34A C 1.1306(5) 0.3722(3) 0.36766(16)
H24A H 1.0161 0.3558 0.3716
C35A C 1.0615(5) 0.4379(2) 0.43503(14)
C36A C 1.2375(4) 0.4584(2) 0.42793(14)
C37A C 0.8298(4) 0.4802(2) 0.50570(14)
H25A H 0.7145 0.4669 0.509
loop_
_geom_bond_atom_site_label_1
_geom_bond_atom_site_label_2
_geom_bond_site_symmetry_1
_geom_bond_site_symmetry_2
C1 N1 1_555 1_555
C2 N2 1_555 1_555
C3 H1 1_555 1_555
C4 C3 1_555 1_555
H2 C4 1_555 1_555
C5 C4 1_555 1_555
C6 C5 1_555 1_555
H3 C6 1_555 1_555
C7 C6 1_555 1_555
H4 C7 1_555 1_555
C8 C5 1_555 1_555
C9 C8 1_555 1_555
H5 C9 1_555 1_555
C10 C9 1_555 1_555
H6 C10 1_555 1_555
C11 C10 1_555 1_555
C12 C11 1_555 1_555
H7 C12 1_555 1_555
C13 C8 1_555 1_555
H8 C13 1_555 1_555
C14 C11 1_555 1_555
C15 H9 1_555 1_555
C16 C15 1_555 1_555
H10 C16 1_555 1_555
C17 C16 1_555 1_555
C18 C17 1_555 1_555
H11 C18 1_555 1_555
C19 C18 1_555 1_555
H12 C19 1_555 1_555
C20 C17 1_555 1_555
C21 C20 1_555 1_555
H13 C21 1_555 1_555
C22 C21 1_555 1_555
H14 C22 1_555 1_555
C23 C22 1_555 1_555
C24 C23 1_555 1_555
H15 C24 1_555 1_555
C25 C20 1_555 1_555
H16 C25 1_555 1_555
C26 C23 1_555 1_555
N1 Ni2 1_555 1_555
N2 Ni1 1_555 1_555
N3 C3 1_555 1_555
N4 C15 1_555 1_555
O1 C14 1_555 1_555
H17 O1 1_555 1_555
O2 C14 1_555 1_555
O3 C26 1_555 1_555
O4 C26 1_555 1_555
H18 O4 1_555 1_555
S1 C1 1_555 1_555
S2 C2 1_555 1_555
Ni1 N3 1_555 1_555
Ni2 N4 1_555 1_555
C27 H19 1_555 1_555
C28 C27 1_555 1_555
H20 C28 1_555 1_555
C29 C28 1_555 1_555
H21 C29 1_555 1_555
C30 C29 1_555 1_555
H22 C30 1_555 1_555
C31 C30 1_555 1_555
C32 C27 1_555 1_555
C33 C32 1_555 1_555
H23 C33 1_555 1_555
C34 C33 1_555 1_555
H24 C34 1_555 1_555
C35 C34 1_555 1_555
C36 C31 1_555 1_555
C37 C35 1_555 1_555
H25 C37 1_555 1_555
C1A N1A 1_555 1_555
C2A N2A 1_555 1_555
C3A H1A 1_555 1_555
C4A C3A 1_555 1_555
H2A C4A 1_555 1_555
C5A C4A 1_555 1_555
C6A C5A 1_555 1_555
H3A C6A 1_555 1_555
C7A C6A 1_555 1_555
H4A C7A 1_555 1_555
C8A C5A 1_555 1_555
C9A C8A 1_555 1_555
H5A C9A 1_555 1_555
C10A C9A 1_555 1_555
H6A C10A 1_555 1_555
C11A C10A 1_555 1_555
C12A C11A 1_555 1_555
H7A C12A 1_555 1_555
C13A C8A 1_555 1_555
H8A C13A 1_555 1_555
C14A C11A 1_555 1_555
C15A H9A 1_555 1_555
C16A C15A 1_555 1_555
H10A C16A 1_555 1_555
C17A C16A 1_555 1_555
C18A C17A 1_555 1_555
H11A C18A 1_555 1_555
C19A C18A 1_555 1_555
H12A C19A 1_555 1_555
C20A C17A 1_555 1_555
C21A C20A 1_555 1_555
H13A C21A 1_555 1_555
C22A C21A 1_555 1_555
H14A C22A 1_555 1_555
C23A C22A 1_555 1_555
C24A C23A 1_555 1_555
H15A C24A 1_555 1_555
C25A C20A 1_555 1_555
H16A C25A 1_555 1_555
C26A C23A 1_555 1_555
N1A Ni2_2 1_555 1_555
N1A_2 Ni2 1_555 1_555
N2A Ni1 1_555 1_555
N3A Ni1 1_555 1_555
N4A Ni2 1_555 1_555
O1A C14A 1_555 1_555
H17A O1A 1_555 1_555
O2A C14A 1_555 1_555
O3A C26A 1_555 1_555
O4A C26A 1_555 1_555
H18A O4A 1_555 1_555
S1A Ni1 1_555 1_555
S2A C2A 1_555 1_555
S2A_2 Ni2 1_555 1_555
Ni2_2 S2A 1_555 1_555
C27A H19A 1_555 1_555
C28A C27A 1_555 1_555
H20A C28A 1_555 1_555
C29A C28A 1_555 1_555
H21A C29A 1_555 1_555
C30A C29A 1_555 1_555
H22A C30A 1_555 1_555
C31A C30A 1_555 1_555
C32A C27A 1_555 1_555
C33A C32A 1_555 1_555
H23A C33A 1_555 1_555
C34A C33A 1_555 1_555
H24A C34A 1_555 1_555
C35A C34A 1_555 1_555
C36A C37 1_555 1_555
C37A C36 1_555 1_555
H25A C37A 1_555 1_555
C7 N3 1_555 1_555
C12 C13 1_555 1_555
C19 N4 1_555 1_555
C24 C25 1_555 1_555
S1 Ni1 1_555 1_555
S2 Ni2 1_555 1_555
C31 C32 1_555 1_555
C35 C36 1_555 1_555
C1A S1A 1_555 1_555
C3A N3A 1_555 1_555
C7A N3A 1_555 1_555
C12A C13A 1_555 1_555
C15A N4A 1_555 1_555
C19A N4A 1_555 1_555
C24A C25A 1_555 1_555
C31A C32A 1_555 1_555
C31A C36A 1_555 1_555
C35A C36A 1_555 1_555
C35A C37A 1_555 1_555

#END
