
#######################################################################
#
#                 Cambridge Crystallographic Data Centre
#                                CCDC 
#
#######################################################################
#
# If this CIF has been generated from an entry in the Cambridge 
# Structural Database, then it will include bibliographic, chemical, 
# crystal, experimental, refinement or atomic coordinate data resulting 
# from the CCDC's data processing and validation procedures.
#
#######################################################################

data_YEJPIN
_symmetry_cell_setting           triclinic
_symmetry_space_group_name_H-M   'P -1'
_symmetry_Int_Tables_number      2
_space_group_name_Hall           '-P 1'
loop_
_symmetry_equiv_pos_site_id
_symmetry_equiv_pos_as_xyz
1 x,y,z
2 -x,-y,-z
_cell_length_a                   8.314(2)
_cell_length_b                   11.074(3)
_cell_length_c                   24.363(5)
_cell_angle_alpha                90.775(10)
_cell_angle_beta                 48.647(11)
_cell_angle_gamma                74.420(9)
_cell_volume                     1564.31
loop_
_atom_site_label
_atom_site_type_symbol
_atom_site_fract_x
_atom_site_fract_y
_atom_site_fract_z
C1 C 0.2860(4) 0.6797(2) -0.07819(12)
C2 C 0.2525(4) 1.1950(2) -0.03984(13)
C3 C 0.1368(4) 0.5947(2) 0.07507(14)
H1 H 0.2781 0.5741 0.0238
C4 C 0.1267(4) 0.6353(3) 0.13108(14)
H2 H 0.2591 0.6425 0.1179
C5 C -0.0760(4) 0.6659(2) 0.20684(13)
C6 C -0.2654(4) 0.6584(2) 0.22129(13)
H3 H -0.4107 0.6822 0.272
C7 C -0.2408(4) 0.6164(2) 0.16176(13)
H4 H -0.3716 0.611 0.173
C8 C -0.0826(4) 0.7011(2) 0.26724(13)
C9 C 0.1168(4) 0.6482(3) 0.25358(14)
H5 H 0.2535 0.5885 0.2062
C10 C 0.1175(4) 0.6817(3) 0.30786(14)
H6 H 0.2547 0.6453 0.2978
C11 C -0.0812(4) 0.7684(2) 0.37747(13)
C12 C -0.2832(4) 0.8203(2) 0.39268(13)
H7 H -0.42 0.8791 0.4403
C13 C -0.2830(4) 0.7857(2) 0.33792(13)
H8 H -0.4213 0.8199 0.3486
C14 C -0.0708(4) 0.8059(3) 0.43348(14)
C15 C 0.1792(4) 1.0062(2) -0.15605(13)
H9 H 0.3133 1.0042 -0.1672
C16 C 0.1884(4) 0.9977(2) -0.21473(14)
H10 H 0.3252 0.9908 -0.2647
C17 C -0.0057(4) 0.9993(2) -0.19978(13)
C18 C -0.2014(4) 1.0134(2) -0.12501(13)
H11 H -0.3387 1.0167 -0.112
C19 C -0.1964(4) 1.0227(2) -0.06991(13)
H12 H -0.3331 1.0337 -0.0191
C20 C -0.0058(4) 0.9795(2) -0.25997(13)
C21 C 0.1902(4) 0.8965(2) -0.33184(13)
H13 H 0.3304 0.8578 -0.344
C22 C 0.1825(4) 0.8699(2) -0.38545(14)
H14 H 0.3166 0.8124 -0.434
C23 C -0.0216(4) 0.9274(2) -0.36849(13)
C24 C -0.2159(4) 1.0141(3) -0.29782(14)
H15 H -0.3539 1.0558 -0.2866
C25 C -0.2085(4) 1.0393(2) -0.24429(14)
H16 H -0.3422 1.098 -0.1961
C26 C -0.0359(4) 0.8975(3) -0.42416(14)
N1 N 0.2220(3) 0.59456(19) -0.06728(11)
N2 N 0.1957(3) 1.11010(19) -0.03915(11)
N3 N -0.0425(3) 0.58274(19) 0.08907(11)
N4 N -0.0077(3) 1.01696(18) -0.08438(11)
O1 O 0.1174(3) 0.7694(2) 0.41540(10)
O2 O -0.2642(3) 0.8778(2) 0.49968(10)
H17 H -0.2412 0.8939 0.5273
O3 O -0.2220(3) 0.9426(2) -0.40716(10)
O4 O 0.1556(3) 0.8222(2) -0.48991(10)
H18 H 0.1328 0.8101 -0.518
S1 S 0.37620(10) 0.80200(6) -0.09361(3)
S2 S 0.33652(10) 1.31449(6) -0.04197(4)
Ni1 Ni 0.00000 1.00000 0.00000
Ni2 Ni 0.00000 0.50000 0.00000
C1A C -0.2860(4) 1.3203(2) 0.07819(12)
C2A C -0.2525(4) 0.8050(2) 0.03984(13)
C3A C -0.1368(4) 0.4053(2) -0.07507(14)
H1A H -0.2781 0.4259 -0.0238
C4A C -0.1267(4) 0.3647(3) -0.13108(14)
H2A H -0.2591 0.3575 -0.1179
C5A C 0.0760(4) 0.3341(2) -0.20684(13)
C6A C 0.2654(4) 0.3416(2) -0.22129(13)
H3A H 0.4107 0.3178 -0.272
C7A C 0.2408(4) 0.3836(2) -0.16176(13)
H4A H 0.3716 0.389 -0.173
C8A C 0.0826(4) 0.2989(2) -0.26724(13)
C9A C -0.1168(4) 0.3518(3) -0.25358(14)
H5A H -0.2535 0.4115 -0.2062
C10A C -0.1175(4) 0.3183(3) -0.30786(14)
H6A H -0.2547 0.3547 -0.2978
C11A C 0.0812(4) 0.2316(2) -0.37747(13)
C12A C 0.2832(4) 0.1797(2) -0.39268(13)
H7A H 0.42 0.1209 -0.4403
C13A C 0.2830(4) 0.2143(2) -0.33792(13)
H8A H 0.4213 0.1801 -0.3486
C14A C 0.0708(4) 0.1941(3) -0.43348(14)
C15A C -0.1792(4) 0.9938(2) 0.15605(13)
H9A H -0.3133 0.9958 0.1672
C16A C -0.1884(4) 1.0023(2) 0.21473(14)
H10A H -0.3252 1.0092 0.2647
C17A C 0.0057(4) 1.0007(2) 0.19978(13)
C18A C 0.2014(4) 0.9866(2) 0.12501(13)
H11A H 0.3387 0.9833 0.112
C19A C 0.1964(4) 0.9773(2) 0.06991(13)
H12A H 0.3331 0.9663 0.0191
C20A C 0.0058(4) 1.0205(2) 0.25997(13)
C21A C -0.1902(4) 1.1035(2) 0.33184(13)
H13A H -0.3304 1.1422 0.344
C22A C -0.1825(4) 1.1301(2) 0.38545(14)
H14A H -0.3166 1.1876 0.434
C23A C 0.0216(4) 1.0726(2) 0.36849(13)
C24A C 0.2159(4) 0.9859(3) 0.29782(14)
H15A H 0.3539 0.9442 0.2866
C25A C 0.2085(4) 0.9607(2) 0.24429(14)
H16A H 0.3422 0.902 0.1961
C26A C 0.0359(4) 1.1025(3) 0.42416(14)
N1A N -0.2220(3) 1.40544(19) 0.06728(11)
N1A_2 N -0.2220(3) 0.40544(19) 0.06728(11)
N2A N -0.1957(3) 0.88990(19) 0.03915(11)
N3A N 0.0425(3) 0.41726(19) -0.08907(11)
N4A N 0.0077(3) 0.98304(18) 0.08438(11)
O1A O -0.1174(3) 0.2306(2) -0.41540(10)
O2A O 0.2642(3) 0.1222(2) -0.49968(10)
H17A H 0.2412 0.1061 -0.5273
O3A O 0.2220(3) 1.0574(2) 0.40716(10)
O4A O -0.1556(3) 1.1778(2) 0.48991(10)
H18A H -0.1328 1.1899 0.518
S1A S -0.37620(10) 1.19800(6) 0.09361(3)
S2A S -0.33652(10) 0.68551(6) 0.04197(4)
S2_2 S 0.33652(10) 0.31449(6) -0.04197(4)
Ni2_2 Ni 0.00000 1.50000 0.00000
C27 C 0.3660(14) 0.4992(7) 0.5701(4)
H19 H 0.4415 0.459 0.52
C28 C 0.1235(13) 0.5571(7) 0.6269(4)
H20 H 0.0357 0.5556 0.615
C29 C 0.0142(12) 0.6152(6) 0.6987(4)
H21 H -0.1493 0.6545 0.7366
C30 C 0.1430(17) 0.6170(11) 0.7165(6)
C31 C 0.3910(16) 0.5620(13) 0.6581(6)
C32 C 0.4927(12) 0.5012(6) 0.5875(4)
H22 H 0.6557 0.4591 0.5493
C33 C 0.5120(13) 0.5729(8) 0.6781(5)
H23 H 0.6757 0.5374 0.6399
C34 C 0.4072(14) 0.6314(8) 0.7491(5)
H24 H 0.4952 0.6378 0.7602
C35 C 0.158(3) 0.684(3) 0.8072(11)
H25 H 0.0772 0.7247 0.8578
C36 C 0.044(4) 0.672(3) 0.7874(9)
H26 H -0.1197 0.7051 0.8263
C37? C 0.6095(15) 0.6560(8) 0.7015(5)
H27? H 0.5903 0.6994 0.7405
C38? C 0.8249(15) 0.6077(8) 0.6275(5)
H28? H 0.9557 0.6169 0.6147
C39? C 0.8417(16) 0.5459(10) 0.5734(5)
H29? H 0.9893 0.5127 0.5231
C40? C 0.6666(17) 0.5287(10) 0.5861(5)
H30? H 0.691 0.4852 0.546
C41? C 0.453(2) 0.5753(14) 0.6578(7)
C42? C 0.4148(15) 0.6395(7) 0.7185(5)
C43? C 0.252(2) 0.5664(9) 0.6758(7)
H31? H 0.2686 0.5251 0.6371
C44? C 0.0458(18) 0.6161(10) 0.7464(7)
H32? H -0.0837 0.6099 0.7571
C45? C 0.200(3) 0.683(3) 0.7923(12)
H33? H 0.1823 0.7166 0.8329
C46? C 0.013(4) 0.678(2) 0.8059(10)
H34? H -0.1375 0.7152 0.8552
loop_
_geom_bond_atom_site_label_1
_geom_bond_atom_site_label_2
_geom_bond_site_symmetry_1
_geom_bond_site_symmetry_2
C1 N1 1_555 1_555
C2 N2 1_555 1_555
C3 H1 1_555 1_555
C4 C3 1_555 1_555
H2 C4 1_555 1_555
C5 C4 1_555 1_555
C6 C5 1_555 1_555
H3 C6 1_555 1_555
C7 C6 1_555 1_555
H4 C7 1_555 1_555
C8 C5 1_555 1_555
C9 C8 1_555 1_555
H5 C9 1_555 1_555
C10 C9 1_555 1_555
H6 C10 1_555 1_555
C11 C10 1_555 1_555
C12 C11 1_555 1_555
H7 C12 1_555 1_555
C13 C8 1_555 1_555
H8 C13 1_555 1_555
C14 C11 1_555 1_555
C15 H9 1_555 1_555
C16 C15 1_555 1_555
H10 C16 1_555 1_555
C17 C16 1_555 1_555
C18 C17 1_555 1_555
H11 C18 1_555 1_555
C19 C18 1_555 1_555
H12 C19 1_555 1_555
C20 C17 1_555 1_555
C21 C20 1_555 1_555
H13 C21 1_555 1_555
C22 C21 1_555 1_555
H14 C22 1_555 1_555
C23 C22 1_555 1_555
C24 C23 1_555 1_555
H15 C24 1_555 1_555
C25 C20 1_555 1_555
H16 C25 1_555 1_555
C26 C23 1_555 1_555
N1 Ni2 1_555 1_555
N2 Ni1 1_555 1_555
N3 C3 1_555 1_555
N4 C15 1_555 1_555
O1 C14 1_555 1_555
O2 C14 1_555 1_555
H17 O2 1_555 1_555
O3 C26 1_555 1_555
O4 C26 1_555 1_555
H18 O4 1_555 1_555
S1 C1 1_555 1_555
S2 C2 1_555 1_555
Ni1 N4 1_555 1_555
Ni2 N3 1_555 1_555
C27 H19 1_555 1_555
C28 C27 1_555 1_555
H20 C28 1_555 1_555
C29 C28 1_555 1_555
H21 C29 1_555 1_555
C30 C29 1_555 1_555
C31 C30 1_555 1_555
C32 C27 1_555 1_555
H22 C32 1_555 1_555
C33 C31 1_555 1_555
H23 C33 1_555 1_555
C34 C33 1_555 1_555
H24 C34 1_555 1_555
C35 C34 1_555 1_555
H25 C35 1_555 1_555
C36 C30 1_555 1_555
H26 C36 1_555 1_555
C1A N1A 1_555 1_555
C2A N2A 1_555 1_555
C3A H1A 1_555 1_555
C4A C3A 1_555 1_555
H2A C4A 1_555 1_555
C5A C4A 1_555 1_555
C6A C5A 1_555 1_555
H3A C6A 1_555 1_555
C7A C6A 1_555 1_555
H4A C7A 1_555 1_555
C8A C5A 1_555 1_555
C9A C8A 1_555 1_555
H5A C9A 1_555 1_555
C10A C9A 1_555 1_555
H6A C10A 1_555 1_555
C11A C10A 1_555 1_555
C12A C11A 1_555 1_555
H7A C12A 1_555 1_555
C13A C8A 1_555 1_555
H8A C13A 1_555 1_555
C14A C11A 1_555 1_555
C15A H9A 1_555 1_555
C16A C15A 1_555 1_555
H10A C16A 1_555 1_555
C17A C16A 1_555 1_555
C18A C17A 1_555 1_555
H11A C18A 1_555 1_555
C19A C18A 1_555 1_555
H12A C19A 1_555 1_555
C20A C17A 1_555 1_555
C21A C20A 1_555 1_555
H13A C21A 1_555 1_555
C22A C21A 1_555 1_555
H14A C22A 1_555 1_555
C23A C22A 1_555 1_555
C24A C23A 1_555 1_555
H15A C24A 1_555 1_555
C25A C20A 1_555 1_555
H16A C25A 1_555 1_555
C26A C23A 1_555 1_555
N1A Ni2_2 1_555 1_555
N1A_2 Ni2 1_555 1_555
N2A Ni1 1_555 1_555
N3A Ni2 1_555 1_555
N4A Ni1 1_555 1_555
O1A C14A 1_555 1_555
O2A C14A 1_555 1_555
H17A O2A 1_555 1_555
O3A C26A 1_555 1_555
O4A C26A 1_555 1_555
H18A O4A 1_555 1_555
S1A Ni1 1_555 1_555
S2A Ni2 1_555 1_555
S2_2 Ni2 1_555 1_555
Ni2_2 S2 1_555 1_555
C7 N3 1_555 1_555
C12 C13 1_555 1_555
C19 N4 1_555 1_555
C24 C25 1_555 1_555
S1 Ni1 1_555 1_555
C31 C32 1_555 1_555
C35 C36 1_555 1_555
C1A S1A 1_555 1_555
C2A S2A 1_555 1_555
C3A N3A 1_555 1_555
C7A N3A 1_555 1_555
C12A C13A 1_555 1_555
C15A N4A 1_555 1_555
C19A N4A 1_555 1_555
C24A C25A 1_555 1_555

#END
