
#######################################################################
#
#                 Cambridge Crystallographic Data Centre
#                                CCDC 
#
#######################################################################
#
# If this CIF has been generated from an entry in the Cambridge 
# Structural Database, then it will include bibliographic, chemical, 
# crystal, experimental, refinement or atomic coordinate data resulting 
# from the CCDC's data processing and validation procedures.
#
#######################################################################

data_YEJQUA
_symmetry_cell_setting           tetragonal
_symmetry_space_group_name_H-M   'P -4 21 c'
_symmetry_Int_Tables_number      114
_space_group_name_Hall           'P -4 2n'
loop_
_symmetry_equiv_pos_site_id
_symmetry_equiv_pos_as_xyz
1 x,y,z
2 1/2-x,1/2+y,1/2-z
3 -x,-y,z
4 1/2+x,1/2-y,1/2-z
5 -y,x,-z
6 1/2+y,1/2+x,1/2+z
7 y,-x,-z
8 1/2-y,1/2-x,1/2+z
_cell_length_a                   17.1609(5)
_cell_length_b                   17.1609(5)
_cell_length_c                   16.6007(10)
_cell_angle_alpha                90
_cell_angle_beta                 90
_cell_angle_gamma                90
_cell_volume                     4888.85
loop_
_atom_site_label
_atom_site_type_symbol
_atom_site_fract_x
_atom_site_fract_y
_atom_site_fract_z
Br1 Br 0.5000 0.0000 0.18374(9)
Br2 Br 0.41920(6) -0.20767(6) 0.20912(6)
Cu1 Cu -0.07254(6) 0.15106(6) -0.02096(5)
Cu2 Cu 0.39235(6) -0.09700(6) 0.12623(6)
O1 O 0.0250(3) 0.1137(3) 0.0400(3)
O2 O 0.3047(4) -0.0561(4) 0.1899(4)
N1 N -0.1817(4) 0.1971(4) -0.0369(4)
N2 N -0.1056(4) 0.1626(4) 0.0892(4)
N3 N -0.0564(4) 0.1366(4) 0.1504(4)
N4 N 0.1338(4) 0.0498(4) 0.1366(4)
N5 N 0.2675(4) -0.0015(4) 0.0679(4)
N6 N 0.3334(4) -0.0395(4) 0.0435(4)
N7 N 0.4544(4) -0.1250(4) 0.0272(5)
C1 C -0.2209(6) 0.2086(7) -0.1040(5)
C2 C -0.2973(6) 0.2407(7) -0.1064(6)
C3 C -0.3294(6) 0.2621(6) -0.0332(7)
C4 C -0.2899(5) 0.2487(6) 0.0359(5)
C5 C -0.2163(5) 0.2148(5) 0.0338(5)
C6 C -0.1694(5) 0.1970(5) 0.1047(5)
C7 C -0.1959(6) 0.2167(7) 0.1889(6)
C8 C 0.0092(5) 0.1115(4) 0.1150(4)
C9 C 0.0679(5) 0.0789(5) 0.1716(5)
C10 C 0.0563(5) 0.0780(5) 0.2545(5)
C11 C 0.1126(6) 0.0439(6) 0.3026(5)
C12 C 0.1768(5) 0.0105(6) 0.2670(5)
C13 C 0.1874(5) 0.0157(5) 0.1848(5)
C14 C 0.2576(5) -0.0159(5) 0.1450(4)
C15 C 0.3605(5) -0.0374(5) -0.0264(5)
C16 C 0.3232(6) 0.0082(6) -0.0955(5)
C17 C 0.4298(5) -0.0875(5) -0.0402(5)
C18 C 0.4662(6) -0.0965(6) -0.1153(5)
C19 C 0.5287(6) -0.1476(6) -0.1200(6)
C20 C 0.5556(6) -0.1858(6) -0.0503(7)
C21 C 0.5163(6) -0.1705(6) 0.0225(7)
H1 H -0.1975 0.1938 -0.1533
H2 H -0.3250 0.2471 -0.1548
H3 H -0.3797 0.2849 -0.0323
H4 H -0.3126 0.2625 0.0861
H5 H -0.1621 0.1924 0.2268
H6 H -0.1937 0.2717 0.1961
H7 H -0.2474 0.1990 0.1968
H8 H 0.0108 0.1007 0.2780
H9 H 0.1085 0.0453 0.3597
H10 H 0.2133 -0.0165 0.2992
H11 H 0.2910 0.0483 -0.0733
H12 H 0.3623 0.0305 -0.1278
H13 H 0.2917 -0.0259 -0.1267
H14 H 0.4479 -0.0691 -0.1615
H15 H 0.5540 -0.1569 -0.1700
H16 H 0.5979 -0.2210 -0.0529
H17 H 0.5354 -0.1943 0.0694
Br1D Br 0.0000 0.5000 -0.18374(9)
Br2D Br 0.20767(6) 0.41920(6) -0.20912(6)
Br2B Br 0.58080(6) 0.20767(6) 0.20912(6)
Br2F Br -0.20767(6) 0.58080(6) -0.20912(6)
Cu1D Cu -0.15106(6) -0.07254(6) 0.02096(5)
Cu1F Cu 0.15106(6) 0.07254(6) 0.02096(5)
Cu1B Cu 0.07254(6) -0.15106(6) -0.02096(5)
Cu2D Cu 0.09700(6) 0.39235(6) -0.12623(6)
Cu2B Cu 0.60765(6) 0.09700(6) 0.12623(6)
Cu2F Cu -0.09700(6) 0.60765(6) -0.12623(6)
Cu2B_2 Cu -0.39235(6) 0.09700(6) 0.12623(6)
Cu2F_2 Cu -0.09700(6) -0.39235(6) -0.12623(6)
O1D O -0.1137(3) 0.0250(3) -0.0400(3)
O1B O -0.0250(3) -0.1137(3) 0.0400(3)
O1F O 0.1137(3) -0.0250(3) -0.0400(3)
O2D O 0.0561(4) 0.3047(4) -0.1899(4)
O2B O -0.3047(4) 0.0561(4) 0.1899(4)
O2F O -0.0561(4) -0.3047(4) -0.1899(4)
O2B_2 O 0.6953(4) 0.0561(4) 0.1899(4)
O2F_2 O -0.0561(4) 0.6953(4) -0.1899(4)
N1D N -0.1971(4) -0.1817(4) 0.0369(4)
N1B N 0.1817(4) -0.1971(4) -0.0369(4)
N1F N 0.1971(4) 0.1817(4) 0.0369(4)
N2D N -0.1626(4) -0.1056(4) -0.0892(4)
N2B N 0.1056(4) -0.1626(4) 0.0892(4)
N2F N 0.1626(4) 0.1056(4) -0.0892(4)
N3D N -0.1366(4) -0.0564(4) -0.1504(4)
N3B N 0.0564(4) -0.1366(4) 0.1504(4)
N3F N 0.1366(4) 0.0564(4) -0.1504(4)
N4D N -0.0498(4) 0.1338(4) -0.1366(4)
N4B N -0.1338(4) -0.0498(4) 0.1366(4)
N4F N 0.0498(4) -0.1338(4) -0.1366(4)
N5D N 0.0015(4) 0.2675(4) -0.0679(4)
N5B N -0.2675(4) 0.0015(4) 0.0679(4)
N5F N -0.0015(4) -0.2675(4) -0.0679(4)
N6D N 0.0395(4) 0.3334(4) -0.0435(4)
N6B N -0.3334(4) 0.0395(4) 0.0435(4)
N6F N -0.0395(4) -0.3334(4) -0.0435(4)
N6B_2 N 0.6666(4) 0.0395(4) 0.0435(4)
N6F_2 N -0.0395(4) 0.6666(4) -0.0435(4)
N7D N 0.1250(4) 0.4544(4) -0.0272(5)
N7B N -0.4544(4) 0.1250(4) 0.0272(5)
N7F N -0.1250(4) -0.4544(4) -0.0272(5)
N7B_2 N 0.5456(4) 0.1250(4) 0.0272(5)
N7F_2 N -0.1250(4) 0.5456(4) -0.0272(5)
C1D C -0.2086(7) -0.2209(6) 0.1040(5)
C1B C 0.2209(6) -0.2086(7) -0.1040(5)
C1F C 0.2086(7) 0.2209(6) 0.1040(5)
C2D C -0.2407(7) -0.2973(6) 0.1064(6)
C2B C 0.2973(6) -0.2407(7) -0.1064(6)
C2F C 0.2407(7) 0.2973(6) 0.1064(6)
C3D C -0.2621(6) -0.3294(6) 0.0332(7)
C3B C 0.3294(6) -0.2621(6) -0.0332(7)
C3F C 0.2621(6) 0.3294(6) 0.0332(7)
C4D C -0.2487(6) -0.2899(5) -0.0359(5)
C4B C 0.2899(5) -0.2487(6) 0.0359(5)
C4F C 0.2487(6) 0.2899(5) -0.0359(5)
C5D C -0.2148(5) -0.2163(5) -0.0338(5)
C5B C 0.2163(5) -0.2148(5) 0.0338(5)
C5F C 0.2148(5) 0.2163(5) -0.0338(5)
C6D C -0.1970(5) -0.1694(5) -0.1047(5)
C6B C 0.1694(5) -0.1970(5) 0.1047(5)
C6F C 0.1970(5) 0.1694(5) -0.1047(5)
C7D C -0.2167(7) -0.1959(6) -0.1889(6)
C7B C 0.1959(6) -0.2167(7) 0.1889(6)
C7F C 0.2167(7) 0.1959(6) -0.1889(6)
C8D C -0.1115(4) 0.0092(5) -0.1150(4)
C8B C -0.0092(5) -0.1115(4) 0.1150(4)
C8F C 0.1115(4) -0.0092(5) -0.1150(4)
C9D C -0.0789(5) 0.0679(5) -0.1716(5)
C9B C -0.0679(5) -0.0789(5) 0.1716(5)
C9F C 0.0789(5) -0.0679(5) -0.1716(5)
C10D C -0.0780(5) 0.0563(5) -0.2545(5)
C10B C -0.0563(5) -0.0780(5) 0.2545(5)
C10F C 0.0780(5) -0.0563(5) -0.2545(5)
C11D C -0.0439(6) 0.1126(6) -0.3026(5)
C11B C -0.1126(6) -0.0439(6) 0.3026(5)
C11F C 0.0439(6) -0.1126(6) -0.3026(5)
C12D C -0.0105(6) 0.1768(5) -0.2670(5)
C12B C -0.1768(5) -0.0105(6) 0.2670(5)
C12F C 0.0105(6) -0.1768(5) -0.2670(5)
C13D C -0.0157(5) 0.1874(5) -0.1848(5)
C13B C -0.1874(5) -0.0157(5) 0.1848(5)
C13F C 0.0157(5) -0.1874(5) -0.1848(5)
C14D C 0.0159(5) 0.2576(5) -0.1450(4)
C14B C -0.2576(5) 0.0159(5) 0.1450(4)
C14F C -0.0159(5) -0.2576(5) -0.1450(4)
C15D C 0.0374(5) 0.3605(5) 0.0264(5)
C15B C -0.3605(5) 0.0374(5) -0.0264(5)
C15F C -0.0374(5) -0.3605(5) 0.0264(5)
C16D C -0.0082(6) 0.3232(6) 0.0955(5)
C16B C -0.3232(6) -0.0082(6) -0.0955(5)
C16F C 0.0082(6) -0.3232(6) 0.0955(5)
C17D C 0.0875(5) 0.4298(5) 0.0402(5)
C17B C -0.4298(5) 0.0875(5) -0.0402(5)
C17F C -0.0875(5) -0.4298(5) 0.0402(5)
C18D C 0.0965(6) 0.4662(6) 0.1153(5)
C18B C -0.4662(6) 0.0965(6) -0.1153(5)
C18F C -0.0965(6) -0.4662(6) 0.1153(5)
C19D C 0.1476(6) 0.5287(6) 0.1200(6)
C19B C -0.5287(6) 0.1476(6) -0.1200(6)
C19F C -0.1476(6) -0.5287(6) 0.1200(6)
C20D C 0.1858(6) 0.5556(6) 0.0503(7)
C20B C -0.5556(6) 0.1858(6) -0.0503(7)
C20F C -0.1858(6) -0.5556(6) 0.0503(7)
C21D C 0.1705(6) 0.5163(6) -0.0225(7)
C21B C -0.5163(6) 0.1705(6) 0.0225(7)
C21F C -0.1705(6) -0.5163(6) -0.0225(7)
H1D H -0.1938 -0.1975 0.1533
H1B H 0.1975 -0.1938 -0.1533
H1F H 0.1938 0.1975 0.1533
H2D H -0.2471 -0.3250 0.1548
H2B H 0.3250 -0.2471 -0.1548
H2F H 0.2471 0.3250 0.1548
H3D H -0.2849 -0.3797 0.0323
H3B H 0.3797 -0.2849 -0.0323
H3F H 0.2849 0.3797 0.0323
H4D H -0.2625 -0.3126 -0.0861
H4B H 0.3126 -0.2625 0.0861
H4F H 0.2625 0.3126 -0.0861
H5D H -0.1924 -0.1621 -0.2268
H5B H 0.1621 -0.1924 0.2268
H5F H 0.1924 0.1621 -0.2268
H6D H -0.2717 -0.1937 -0.1961
H6B H 0.1937 -0.2717 0.1961
H6F H 0.2717 0.1937 -0.1961
H7D H -0.1990 -0.2474 -0.1968
H7B H 0.2474 -0.1990 0.1968
H7F H 0.1990 0.2474 -0.1968
H8D H -0.1007 0.0108 -0.2780
H8B H -0.0108 -0.1007 0.2780
H8F H 0.1007 -0.0108 -0.2780
H9D H -0.0453 0.1085 -0.3597
H9B H -0.1085 -0.0453 0.3597
H9F H 0.0453 -0.1085 -0.3597
H10D H 0.0165 0.2133 -0.2992
H10B H -0.2133 0.0165 0.2992
H10F H -0.0165 -0.2133 -0.2992
H11D H -0.0483 0.2910 0.0733
H11B H -0.2910 -0.0483 -0.0733
H11F H 0.0483 -0.2910 0.0733
H12D H -0.0305 0.3623 0.1278
H12B H -0.3623 -0.0305 -0.1278
H12F H 0.0305 -0.3623 0.1278
H13D H 0.0259 0.2917 0.1267
H13B H -0.2917 0.0259 -0.1267
H13F H -0.0259 -0.2917 0.1267
H14D H 0.0691 0.4479 0.1615
H14B H -0.4479 0.0691 -0.1615
H14F H -0.0691 -0.4479 0.1615
H15D H 0.1569 0.5540 0.1700
H15B H -0.5540 0.1569 -0.1700
H15F H -0.1569 -0.5540 0.1700
H16D H 0.2210 0.5979 0.0529
H16B H -0.5979 0.2210 -0.0529
H16F H -0.2210 -0.5979 0.0529
H17D H 0.1943 0.5354 -0.0694
H17B H -0.5354 0.1943 0.0694
H17F H -0.1943 -0.5354 -0.0694
Br3 Br 0.53470(10) -0.37557(9) 0.04747(11)
Cu3 Cu 0.5000 -0.5000 0.0000
Br3B Br 0.46530(10) -0.62443(9) 0.04747(11)
Br3D Br 0.37557(9) -0.46530(10) -0.04747(11)
Br3F Br 0.62443(9) -0.53470(10) -0.04747(11)
O3 O -0.1335(11) 0.3661(9) 0.2970(9)
H18 H -0.1072 0.3635 0.3471
H19 H -0.1458 0.3093 0.2868
O4 O -0.0855(12) 0.207(2) 0.3394(15)
H20 H -0.0768 0.1602 0.3792
H21 H -0.0392 0.2025 0.3089
loop_
_geom_bond_atom_site_label_1
_geom_bond_atom_site_label_2
_geom_bond_site_symmetry_1
_geom_bond_site_symmetry_2
Br1 Cu2 1_555 1_555
Br2 Cu2 1_555 1_555
Br3 Cu3 1_555 1_555
Cu1 O1 1_555 1_555
Cu2 O2 1_555 1_555
Cu3 Br3B 1_555 1_555
O1 C8 1_555 1_555
O2 C14 1_555 1_555
O3 H18 1_555 1_555
O4 H20 1_555 1_555
N1 Cu1 1_555 1_555
N2 Cu1 1_555 1_555
N3 N2 1_555 1_555
N4 C9 1_555 1_555
N5 N6 1_555 1_555
N6 Cu2 1_555 1_555
N7 Cu2 1_555 1_555
C1 N1 1_555 1_555
C2 C1 1_555 1_555
C3 C2 1_555 1_555
C4 C3 1_555 1_555
C5 N1 1_555 1_555
C6 N2 1_555 1_555
C7 C6 1_555 1_555
C8 N3 1_555 1_555
C9 C8 1_555 1_555
C10 C9 1_555 1_555
C11 C10 1_555 1_555
C12 C11 1_555 1_555
C13 N4 1_555 1_555
C14 N5 1_555 1_555
C15 N6 1_555 1_555
C16 C15 1_555 1_555
C17 N7 1_555 1_555
C18 C17 1_555 1_555
C19 C18 1_555 1_555
C20 C19 1_555 1_555
C21 N7 1_555 1_555
H1 C1 1_555 1_555
H2 C2 1_555 1_555
H3 C3 1_555 1_555
H4 C4 1_555 1_555
H5 C7 1_555 1_555
H6 C7 1_555 1_555
H7 C7 1_555 1_555
H8 C10 1_555 1_555
H9 C11 1_555 1_555
H10 C12 1_555 1_555
H11 C16 1_555 1_555
H12 C16 1_555 1_555
H13 C16 1_555 1_555
H14 C18 1_555 1_555
H15 C19 1_555 1_555
H16 C20 1_555 1_555
H17 C21 1_555 1_555
H19 O3 1_555 1_555
H21 O4 1_555 1_555
Br1D Cu2D 1_555 1_555
Br2D Cu2D 1_555 1_555
Br2B Cu2B 1_555 1_555
Br2F Cu2F 1_555 1_555
Br3D Cu3 1_555 1_555
Br3F Cu3 1_555 1_555
Cu1D O1D 1_555 1_555
Cu1F O1 1_555 1_555
Cu1B O1B 1_555 1_555
Cu2D O2D 1_555 1_555
Cu2B Br1 1_555 1_555
Cu2F Br1D 1_555 1_555
Cu2B_2 O2B 1_555 1_555
Cu2F_2 O2F 1_555 1_555
O1D Cu1 1_555 1_555
O1B Cu1D 1_555 1_555
O1F Cu1F 1_555 1_555
O2D C14D 1_555 1_555
O2B C14B 1_555 1_555
O2F C14F 1_555 1_555
O2B_2 Cu2B 1_555 1_555
O2F_2 Cu2F 1_555 1_555
N1D Cu1D 1_555 1_555
N1B Cu1B 1_555 1_555
N1F Cu1F 1_555 1_555
N2D Cu1D 1_555 1_555
N2B Cu1B 1_555 1_555
N2F Cu1F 1_555 1_555
N3D N2D 1_555 1_555
N3B N2B 1_555 1_555
N3F N2F 1_555 1_555
N4D Cu1 1_555 1_555
N4B Cu1D 1_555 1_555
N4F Cu1B 1_555 1_555
N5D Cu1 1_555 1_555
N5B Cu1D 1_555 1_555
N5F Cu1B 1_555 1_555
N6D Cu2D 1_555 1_555
N6B Cu2B_2 1_555 1_555
N6F Cu2F_2 1_555 1_555
N6B_2 Cu2B 1_555 1_555
N6F_2 Cu2F 1_555 1_555
N7D Cu2D 1_555 1_555
N7B Cu2B_2 1_555 1_555
N7F Cu2F_2 1_555 1_555
N7B_2 Cu2B 1_555 1_555
N7F_2 Cu2F 1_555 1_555
C1D N1D 1_555 1_555
C1B N1B 1_555 1_555
C1F N1F 1_555 1_555
C2D C1D 1_555 1_555
C2B C1B 1_555 1_555
C2F C1F 1_555 1_555
C3D C2D 1_555 1_555
C3B C2B 1_555 1_555
C3F C2F 1_555 1_555
C4D C3D 1_555 1_555
C4B C3B 1_555 1_555
C4F C3F 1_555 1_555
C5D N1D 1_555 1_555
C5B N1B 1_555 1_555
C5F N1F 1_555 1_555
C6D N2D 1_555 1_555
C6B N2B 1_555 1_555
C6F N2F 1_555 1_555
C7D C6D 1_555 1_555
C7B C6B 1_555 1_555
C7F C6F 1_555 1_555
C8D O1D 1_555 1_555
C8B O1B 1_555 1_555
C8F O1F 1_555 1_555
C9D N4D 1_555 1_555
C9B N4B 1_555 1_555
C9F N4F 1_555 1_555
C10D C9D 1_555 1_555
C10B C9B 1_555 1_555
C10F C9F 1_555 1_555
C11D C10D 1_555 1_555
C11B C10B 1_555 1_555
C11F C10F 1_555 1_555
C12D C11D 1_555 1_555
C12B C11B 1_555 1_555
C12F C11F 1_555 1_555
C13D N4D 1_555 1_555
C13B N4B 1_555 1_555
C13F N4F 1_555 1_555
C14D N5D 1_555 1_555
C14B N5B 1_555 1_555
C14F N5F 1_555 1_555
C15D N6D 1_555 1_555
C15B N6B 1_555 1_555
C15F N6F 1_555 1_555
C16D C15D 1_555 1_555
C16B C15B 1_555 1_555
C16F C15F 1_555 1_555
C17D N7D 1_555 1_555
C17B N7B 1_555 1_555
C17F N7F 1_555 1_555
C18D C17D 1_555 1_555
C18B C17B 1_555 1_555
C18F C17F 1_555 1_555
C19D C18D 1_555 1_555
C19B C18B 1_555 1_555
C19F C18F 1_555 1_555
C20D C19D 1_555 1_555
C20B C19B 1_555 1_555
C20F C19F 1_555 1_555
C21D N7D 1_555 1_555
C21B N7B 1_555 1_555
C21F N7F 1_555 1_555
H1D C1D 1_555 1_555
H1B C1B 1_555 1_555
H1F C1F 1_555 1_555
H2D C2D 1_555 1_555
H2B C2B 1_555 1_555
H2F C2F 1_555 1_555
H3D C3D 1_555 1_555
H3B C3B 1_555 1_555
H3F C3F 1_555 1_555
H4D C4D 1_555 1_555
H4B C4B 1_555 1_555
H4F C4F 1_555 1_555
H5D C7D 1_555 1_555
H5B C7B 1_555 1_555
H5F C7F 1_555 1_555
H6D C7D 1_555 1_555
H6B C7B 1_555 1_555
H6F C7F 1_555 1_555
H7D C7D 1_555 1_555
H7B C7B 1_555 1_555
H7F C7F 1_555 1_555
H8D C10D 1_555 1_555
H8B C10B 1_555 1_555
H8F C10F 1_555 1_555
H9D C11D 1_555 1_555
H9B C11B 1_555 1_555
H9F C11F 1_555 1_555
H10D C12D 1_555 1_555
H10B C12B 1_555 1_555
H10F C12F 1_555 1_555
H11D C16D 1_555 1_555
H11B C16B 1_555 1_555
H11F C16F 1_555 1_555
H12D C16D 1_555 1_555
H12B C16B 1_555 1_555
H12F C16F 1_555 1_555
H13D C16D 1_555 1_555
H13B C16B 1_555 1_555
H13F C16F 1_555 1_555
H14D C18D 1_555 1_555
H14B C18B 1_555 1_555
H14F C18F 1_555 1_555
H15D C19D 1_555 1_555
H15B C19B 1_555 1_555
H15F C19F 1_555 1_555
H16D C20D 1_555 1_555
H16B C20B 1_555 1_555
H16F C20F 1_555 1_555
H17D C21D 1_555 1_555
H17B C21B 1_555 1_555
H17F C21F 1_555 1_555
N4 Cu1F 1_555 1_555
N5 Cu1F 1_555 1_555
C4 C5 1_555 1_555
C5 C6 1_555 1_555
C12 C13 1_555 1_555
C13 C14 1_555 1_555
C15 C17 1_555 1_555
C20 C21 1_555 1_555
Cu1B O1F 1_555 1_555
N3D C8D 1_555 1_555
N3B C8B 1_555 1_555
N3F C8F 1_555 1_555
N5D N6D 1_555 1_555
N5B N6B 1_555 1_555
N5F N6F 1_555 1_555
C4D C5D 1_555 1_555
C4B C5B 1_555 1_555
C4F C5F 1_555 1_555
C5D C6D 1_555 1_555
C5B C6B 1_555 1_555
C5F C6F 1_555 1_555
C8D C9D 1_555 1_555
C8B C9B 1_555 1_555
C8F C9F 1_555 1_555
C12D C13D 1_555 1_555
C12B C13B 1_555 1_555
C12F C13F 1_555 1_555
C13D C14D 1_555 1_555
C13B C14B 1_555 1_555
C13F C14F 1_555 1_555
C15D C17D 1_555 1_555
C15B C17B 1_555 1_555
C15F C17F 1_555 1_555
C20D C21D 1_555 1_555
C20B C21B 1_555 1_555
C20F C21F 1_555 1_555

#END
