
#######################################################################
#
#                 Cambridge Crystallographic Data Centre
#                                CCDC 
#
#######################################################################
#
# If this CIF has been generated from an entry in the Cambridge 
# Structural Database, then it will include bibliographic, chemical, 
# crystal, experimental, refinement or atomic coordinate data resulting 
# from the CCDC's data processing and validation procedures.
#
#######################################################################

data_YEJQEK
_symmetry_cell_setting           triclinic
_symmetry_space_group_name_H-M   'P -1'
_symmetry_Int_Tables_number      2
_space_group_name_Hall           '-P 1'
loop_
_symmetry_equiv_pos_site_id
_symmetry_equiv_pos_as_xyz
1 x,y,z
2 -x,-y,-z
_cell_length_a                   13.7251(14)
_cell_length_b                   18.1828(16)
_cell_length_c                   20.7849(16)
_cell_angle_alpha                109.059(4)
_cell_angle_beta                 98.172(5)
_cell_angle_gamma                94.173(4)
_cell_volume                     4813.43
loop_
_atom_site_label
_atom_site_type_symbol
_atom_site_fract_x
_atom_site_fract_y
_atom_site_fract_z
C1 C 0.9573(9) 0.7995(7) 0.2280(6)
C2 C 1.0380(10) 0.7637(8) 0.2500(7)
H1 H 1.0688 0.7284 0.2167
C3 C 1.0721(10) 0.7805(8) 0.3201(7)
C4 C 1.0293(10) 0.8337(7) 0.3683(7)
H2 H 1.0541 0.8456 0.4161
C5 C 0.9484(10) 0.8714(7) 0.3481(7)
C6 C 0.9162(10) 0.8520(7) 0.2784(6)
H3 H 0.8624 0.8762 0.2638
C7 C 0.3916(10) 0.1634(7) 0.1192(7)
C8 C 0.3848(11) 0.2319(8) 0.1049(7)
H4 H 0.3238 0.2421 0.0835
C9 C 0.4698(11) 0.2854(8) 0.1228(7)
H5 H 0.4673 0.3321 0.1119
C10 C 0.5587(10) 0.2726(7) 0.1562(7)
C11 C 0.5641(10) 0.2052(8) 0.1726(7)
H6 H 0.6233 0.1969 0.1975
C12 C 0.4777(11) 0.1482(8) 0.1508(8)
H7 H 0.4806 0.0997 0.1585
C13 C 0.7677(10) 0.7209(7) 0.1483(7)
C14 C 0.6765(10) 0.7464(8) 0.1608(7)
H8 H 0.6625 0.7951 0.1563
C15 C 0.6072(11) 0.7038(8) 0.1791(6)
H9 H 0.5450 0.7223 0.1854
C16 C 0.6254(10) 0.6320(7) 0.1890(7)
C17 C 0.7183(11) 0.6094(9) 0.1799(8)
H10 H 0.7345 0.5633 0.1888
C18 C 0.7880(10) 0.6500(7) 0.1588(7)
H11 H 0.8494 0.6307 0.1513
C19 C 0.3230(11) 0.4282(8) 0.2401(8)
C20 C 0.2290(10) 0.4066(7) 0.1991(7)
H12 H 0.2142 0.4220 0.1597
C21 C 0.1560(10) 0.3616(7) 0.2167(7)
H13 H 0.0923 0.3450 0.1882
C22 C 0.1772(10) 0.3413(8) 0.2760(7)
C23 C 0.2712(10) 0.3630(8) 0.3158(7)
H14 H 0.2871 0.3496 0.3562
C24 C 0.3416(11) 0.4049(8) 0.2951(8)
H15 H 0.4068 0.4179 0.3214
C25 C 0.2529(10) 0.1760(8) 0.3472(7)
H16 H 0.2408 0.1939 0.3933
C26 C 0.1926(11) 0.1944(8) 0.2958(8)
C27 C 0.2088(10) 0.1641(7) 0.2294(7)
H17 H 0.1706 0.1780 0.1943
C28 C 0.2816(10) 0.1123(7) 0.2114(7)
C29 C 0.3450(10) 0.1002(7) 0.2631(7)
H18 H 0.3983 0.0705 0.2525
C30 C 0.3311(10) 0.1316(7) 0.3313(8)
C31 C 0.3898(10) 0.1140(9) 0.3889(7)
C32 C 0.5347(12) 0.1378(9) 0.4821(9)
H19 H 0.6062 0.1530 0.4844
H20 H 0.5235 0.0805 0.4725
C33 C 0.5037(13) 0.1814(10) 0.5504(10)
H21 H 0.5005 0.2364 0.5546
H22 H 0.5523 0.1786 0.5887
H23 H 0.4383 0.1572 0.5520
C34 C 0.5087(12) 0.2322(9) 0.4192(8)
C35 C 0.4641(12) 0.2985(10) 0.4428(7)
H24 H 0.4030 0.2952 0.4589
C36 C 0.5073(14) 0.3717(9) 0.4437(7)
H25 H 0.4734 0.4164 0.4580
C37 C 0.5982(13) 0.3789(9) 0.4240(8)
C38 C 0.6434(13) 0.3140(9) 0.3990(7)
H26 H 0.7046 0.3186 0.3834
C39 C 0.6000(13) 0.2395(8) 0.3961(8)
H27 H 0.6321 0.1945 0.3786
C40 C 0.6427(14) 0.4581(9) 0.4288(7)
C41 C 0.7449(13) 0.4803(8) 0.4470(7)
H28 H 0.7870 0.4453 0.4579
C42 C 0.7860(12) 0.5547(8) 0.4493(7)
H29 H 0.8556 0.5692 0.4632
C43 C 0.7293(12) 0.6069(9) 0.4323(8)
C44 C 0.6272(13) 0.5846(8) 0.4133(8)
H30 H 0.5860 0.6190 0.4002
C45 C 0.5834(13) 0.5105(9) 0.4133(8)
H31 H 0.5133 0.4974 0.4025
C46 C 0.7691(11) 0.6851(8) 0.4339(7)
C47 C 0.8423(10) 0.7323(8) 0.4883(7)
H32 H 0.8700 0.7120 0.5225
C48 C 0.8760(10) 0.8094(8) 0.4938(7)
H33 H 0.9245 0.8414 0.5319
C49 C 0.8375(10) 0.8378(8) 0.4427(7)
C50 C 0.7652(11) 0.7897(8) 0.3854(7)
H34 H 0.7400 0.8086 0.3497
C51 C 0.7318(11) 0.7138(8) 0.3827(7)
H35 H 0.6827 0.6815 0.3451
C52 C 0.8386(11) 0.9809(8) 0.5029(7)
H36 H 0.8883 1.0279 0.5162
H37 H 0.8375 0.9648 0.5440
C53 C 0.7371(11) 1.0015(8) 0.4806(7)
H38 H 0.7362 1.0132 0.4377
H39 H 0.7231 1.0476 0.5169
H40 H 0.6865 0.9572 0.4728
C54 C 0.9139(11) 0.9352(9) 0.4001(8)
C55 C 0.1087(10) 0.2375(8) 0.3140(7)
C56 C 0.0132(10) 0.3462(8) 0.3136(7)
H41 H -0.0399 0.3112 0.3206
H42 H -0.0135 0.3618 0.2738
C57 C 0.0402(12) 0.4180(9) 0.3768(8)
H43 H 0.0659 0.4029 0.4165
H44 H -0.0188 0.4444 0.3857
H45 H 0.0912 0.4537 0.3696
C58 C 0.4022(11) 0.4788(8) 0.2246(7)
C59 C 0.3754(10) 0.5332(7) 0.1927(7)
H46 H 0.3072 0.5355 0.1782
C60 C 0.4471(11) 0.5837(8) 0.1821(7)
H47 H 0.4274 0.6198 0.1600
C61 C 0.5484(10) 0.5823(8) 0.2036(7)
C62 C 0.5728(10) 0.5255(8) 0.2329(7)
H48 H 0.6407 0.5212 0.2463
C63 C 0.5001(10) 0.4755(8) 0.2427(7)
H49 H 0.5195 0.4376 0.2627
C64 C 0.8059(10) 0.7591(8) 0.0487(7)
H50 H 0.7333 0.7597 0.0390
H51 H 0.8388 0.8066 0.0433
C65 C 0.8325(12) 0.6896(9) -0.0009(7)
H52 H 0.9047 0.6898 0.0076
H53 H 0.8110 0.6897 -0.0479
H54 H 0.7999 0.6425 0.0041
C66 C 0.9314(11) 0.7905(8) 0.1578(7)
C67 C 0.2746(9) 0.0689(8) 0.1375(8)
C68 C 0.2823(11) 0.0620(8) 0.0191(8)
H55 H 0.2767 0.1029 -0.0025
H56 H 0.2165 0.0301 0.0078
C69 C 0.3576(11) 0.0092(9) -0.0120(8)
H57 H 0.4248 0.0368 0.0069
H58 H 0.3451 -0.0042 -0.0624
H59 H 0.3510 -0.0390 -0.0007
C70 C 0.6515(10) 0.3318(7) 0.1765(8)
C71 C 0.6985(11) 0.3586(8) 0.2433(8)
H60 H 0.6727 0.3393 0.2756
C72 C 0.7844(10) 0.4141(8) 0.2665(8)
H61 H 0.8165 0.4321 0.3135
C73 C 0.8220(10) 0.4426(7) 0.2165(7)
C74 C 0.7732(11) 0.4146(8) 0.1508(8)
H62 H 0.7992 0.4330 0.1180
C75 C 0.6868(10) 0.3604(7) 0.1270(7)
H63 H 0.6537 0.3437 0.0803
C76 C 0.9089(10) 0.5034(8) 0.2428(7)
C77 C 0.9205(10) 0.5623(8) 0.3084(8)
H64 H 0.8697 0.5637 0.3353
C78 C 1.0028(10) 0.6175(8) 0.3347(7)
H65 H 1.0087 0.6568 0.3789
C79 C 1.0781(10) 0.6147(7) 0.2948(7)
C80 C 1.0683(9) 0.5602(8) 0.2305(8)
H66 H 1.1187 0.5596 0.2034
C81 C 0.9830(11) 0.5047(7) 0.2046(7)
H67 H 0.9761 0.4670 0.1595
C82 C 1.2624(10) 0.6417(8) 0.3367(7)
H68 H 1.2644 0.5915 0.2995
H69 H 1.3174 0.6798 0.3364
C83 C 1.2767(11) 0.6292(10) 0.4044(8)
H70 H 1.2817 0.6797 0.4417
H71 H 1.3379 0.6055 0.4101
H72 H 1.2202 0.5941 0.4060
C84 C 1.1635(12) 0.7496(8) 0.3440(7)
C85 C 1.1194(18) 0.5907(11) 0.0478(12)
C86 C 1.1065(13) 0.8140(10) -0.1290(9)
F4 F 1.2013(7) 0.8418(6) -0.1099(5)
F5 F 1.1002(7) 0.7345(5) -0.1523(5)
F6 F 1.0723(7) 0.8308(5) -0.1863(4)
F7 F 1.1011(11) 0.5876(8) -0.0126(6)
F8 F 1.1512(10) 0.5245(6) 0.0532(6)
F9 F 1.0369(7) 0.5999(5) 0.0776(5)
La1 La 1.14705(6) 0.87791(5) 0.11533(5)
N1 N 0.4749(9) 0.1581(7) 0.4261(6)
N2 N 0.0966(8) 0.3036(6) 0.2975(6)
N3 N 0.3083(8) 0.1005(6) 0.0950(6)
N4 N 0.8362(7) 0.7612(6) 0.1215(5)
N5 N 0.8680(9) 0.9179(6) 0.4484(6)
N6 N 1.1659(8) 0.6715(6) 0.3224(5)
O1 O 0.3622(8) 0.0563(6) 0.4052(5)
O2 O 0.9265(7) 1.0042(5) 0.4006(5)
O3 O 0.0480(7) 0.2133(5) 0.3444(4)
O4 O 0.9930(6) 0.8078(5) 0.1229(4)
O5 O 0.2234(6) 0.0022(5) 0.1119(4)
O6 O 1.2375(7) 0.7963(5) 0.3782(5)
O7 O 1.1682(7) 0.7409(5) 0.1016(6)
O8 O 1.2268(8) 0.6641(6) 0.1714(6)
O9 O 1.3011(10) 0.6637(8) 0.0728(8)
O10 O 1.0788(7) 0.8207(5) -0.0105(5)
O11 O 0.9325(7) 0.8102(6) -0.0947(5)
O12 O 1.0489(8) 0.9317(5) -0.0470(5)
O13 O 1.0062(6) 0.9573(5) 0.1036(5)
O14 O 1.1263(7) 0.9504(5) 0.2377(5)
O15 O 1.3082(8) 0.8892(6) 0.1983(6)
S1 S 1.0319(3) 0.8478(2) -0.0642(2)
S2 S 1.2167(3) 0.6728(2) 0.1049(3)
O20 O 1.3136(11) 0.8429(8) 0.0515(6)
La1_2 La 0.14705(6) -0.12209(5) 0.11533(5)
O5_2 O 1.2234(6) 1.0022(5) 0.1119(4)
C87 C 0.3906(16) 0.0424(13) 0.7192(12)
F1 F 0.2955(10) 0.0456(9) 0.6929(6)
F2 F 0.4312(10) 0.0005(7) 0.6679(6)
F3 F 0.4389(11) 0.1194(8) 0.7335(6)
O16 O 0.5126(7) 0.0309(6) 0.8188(6)
O17 O 0.3632(10) -0.0629(7) 0.7658(8)
O18 O 0.3503(8) 0.0698(6) 0.8383(5)
S3 S 0.4064(3) 0.0202(3) 0.7935(3)
Cl1 Cl 0.9078(6) 0.3258(5) 0.4607(5)
Cl2 Cl 0.8284(8) 0.1874(6) 0.4714(6)
Cl3 Cl 0.8074(8) 0.1862(6) 0.3340(6)
C88 C 0.8791(15) 0.2346(19) 0.4362(16)
H73 H 0.9450 0.2147 0.4345
O19 O 0.2519(9) 0.9225(8) 0.3292(7)
loop_
_geom_bond_atom_site_label_1
_geom_bond_atom_site_label_2
_geom_bond_site_symmetry_1
_geom_bond_site_symmetry_2
C1 C2 1_555 1_555
C2 H1 1_555 1_555
C3 C2 1_555 1_555
C4 C3 1_555 1_555
H2 C4 1_555 1_555
C5 C4 1_555 1_555
C6 C1 1_555 1_555
H3 C6 1_555 1_555
C7 C8 1_555 1_555
C8 H4 1_555 1_555
C9 C8 1_555 1_555
H5 C9 1_555 1_555
C10 C9 1_555 1_555
C11 C10 1_555 1_555
H6 C11 1_555 1_555
C12 C7 1_555 1_555
H7 C12 1_555 1_555
C13 C14 1_555 1_555
C14 H8 1_555 1_555
C15 C14 1_555 1_555
H9 C15 1_555 1_555
C16 C15 1_555 1_555
C17 C16 1_555 1_555
H10 C17 1_555 1_555
C18 C13 1_555 1_555
H11 C18 1_555 1_555
C19 C20 1_555 1_555
C20 H12 1_555 1_555
C21 C20 1_555 1_555
H13 C21 1_555 1_555
C22 C21 1_555 1_555
C23 C22 1_555 1_555
H14 C23 1_555 1_555
C24 C19 1_555 1_555
H15 C24 1_555 1_555
C25 H16 1_555 1_555
C26 C25 1_555 1_555
C27 C26 1_555 1_555
H17 C27 1_555 1_555
C28 C27 1_555 1_555
C29 C28 1_555 1_555
H18 C29 1_555 1_555
C30 C25 1_555 1_555
C31 C30 1_555 1_555
C32 H19 1_555 1_555
H20 C32 1_555 1_555
C33 C32 1_555 1_555
H21 C33 1_555 1_555
H22 C33 1_555 1_555
H23 C33 1_555 1_555
C34 C35 1_555 1_555
C35 H24 1_555 1_555
C36 C35 1_555 1_555
H25 C36 1_555 1_555
C37 C36 1_555 1_555
C38 C37 1_555 1_555
H26 C38 1_555 1_555
C39 C34 1_555 1_555
H27 C39 1_555 1_555
C40 C37 1_555 1_555
C41 C40 1_555 1_555
H28 C41 1_555 1_555
C42 C41 1_555 1_555
H29 C42 1_555 1_555
C43 C42 1_555 1_555
C44 C43 1_555 1_555
H30 C44 1_555 1_555
C45 C40 1_555 1_555
H31 C45 1_555 1_555
C46 C43 1_555 1_555
C47 C46 1_555 1_555
H32 C47 1_555 1_555
C48 C47 1_555 1_555
H33 C48 1_555 1_555
C49 C48 1_555 1_555
C50 C49 1_555 1_555
H34 C50 1_555 1_555
C51 C46 1_555 1_555
H35 C51 1_555 1_555
C52 H36 1_555 1_555
H37 C52 1_555 1_555
C53 C52 1_555 1_555
H38 C53 1_555 1_555
H39 C53 1_555 1_555
H40 C53 1_555 1_555
C54 C5 1_555 1_555
C55 C26 1_555 1_555
C56 H41 1_555 1_555
H42 C56 1_555 1_555
C57 C56 1_555 1_555
H43 C57 1_555 1_555
H44 C57 1_555 1_555
H45 C57 1_555 1_555
C58 C19 1_555 1_555
C59 C58 1_555 1_555
H46 C59 1_555 1_555
C60 C59 1_555 1_555
H47 C60 1_555 1_555
C61 C16 1_555 1_555
C62 C61 1_555 1_555
H48 C62 1_555 1_555
C63 C58 1_555 1_555
H49 C63 1_555 1_555
C64 H50 1_555 1_555
H51 C64 1_555 1_555
C65 C64 1_555 1_555
H52 C65 1_555 1_555
H53 C65 1_555 1_555
H54 C65 1_555 1_555
C66 C1 1_555 1_555
C67 C28 1_555 1_555
C68 H55 1_555 1_555
H56 C68 1_555 1_555
C69 C68 1_555 1_555
H57 C69 1_555 1_555
H58 C69 1_555 1_555
H59 C69 1_555 1_555
C70 C10 1_555 1_555
C71 C70 1_555 1_555
H60 C71 1_555 1_555
C72 C71 1_555 1_555
H61 C72 1_555 1_555
C73 C72 1_555 1_555
C74 C73 1_555 1_555
H62 C74 1_555 1_555
C75 C70 1_555 1_555
H63 C75 1_555 1_555
C76 C73 1_555 1_555
C77 C76 1_555 1_555
H64 C77 1_555 1_555
C78 C77 1_555 1_555
H65 C78 1_555 1_555
C79 C78 1_555 1_555
C80 C79 1_555 1_555
H66 C80 1_555 1_555
C81 C76 1_555 1_555
H67 C81 1_555 1_555
C82 H68 1_555 1_555
H69 C82 1_555 1_555
C83 C82 1_555 1_555
H70 C83 1_555 1_555
H71 C83 1_555 1_555
H72 C83 1_555 1_555
C84 C3 1_555 1_555
C85 F7 1_555 1_555
C86 F4 1_555 1_555
C87 F1 1_555 1_555
Cl1 C88 1_555 1_555
Cl2 C88 1_555 1_555
Cl3 C88 1_555 1_555
F2 C87 1_555 1_555
F3 C87 1_555 1_555
F5 C86 1_555 1_555
F6 C86 1_555 1_555
F8 C85 1_555 1_555
F9 C85 1_555 1_555
La1 O4 1_555 1_555
N1 C31 1_555 1_555
N2 C22 1_555 1_555
N3 C7 1_555 1_555
N4 C13 1_555 1_555
N5 C49 1_555 1_555
N6 C79 1_555 1_555
O1 C31 1_555 1_555
O2 C54 1_555 1_555
O3 C55 1_555 1_555
O4 C66 1_555 1_555
O5 C67 1_555 1_555
O6 C84 1_555 1_555
O7 La1 1_555 1_555
O8 S2 1_555 1_555
O9 S2 1_555 1_555
O10 La1 1_555 1_555
O11 S1 1_555 1_555
O12 S1 1_555 1_555
O13 La1 1_555 1_555
O14 La1 1_555 1_555
O15 La1 1_555 1_555
O16 S3 1_555 1_555
O17 S3 1_555 1_555
O18 S3 1_555 1_555
S1 C86 1_555 1_555
S2 C85 1_555 1_555
S3 C87 1_555 1_555
O20 La1 1_555 1_555
C88 H73 1_555 1_555
La1_2 O5 1_555 1_555
O5_2 La1 1_555 1_555
C5 C6 1_555 1_555
C11 C12 1_555 1_555
C17 C18 1_555 1_555
C23 C24 1_555 1_555
C29 C30 1_555 1_555
C32 N1 1_555 1_555
C34 N1 1_555 1_555
C38 C39 1_555 1_555
C44 C45 1_555 1_555
C50 C51 1_555 1_555
C52 N5 1_555 1_555
C54 N5 1_555 1_555
C55 N2 1_555 1_555
C56 N2 1_555 1_555
C60 C61 1_555 1_555
C62 C63 1_555 1_555
C64 N4 1_555 1_555
C66 N4 1_555 1_555
C67 N3 1_555 1_555
C68 N3 1_555 1_555
C74 C75 1_555 1_555
C80 C81 1_555 1_555
C82 N6 1_555 1_555
C84 N6 1_555 1_555
O7 S2 1_555 1_555
O10 S1 1_555 1_555

#END
