
#######################################################################
#
#                 Cambridge Crystallographic Data Centre
#                                CCDC 
#
#######################################################################
#
# If this CIF has been generated from an entry in the Cambridge 
# Structural Database, then it will include bibliographic, chemical, 
# crystal, experimental, refinement or atomic coordinate data resulting 
# from the CCDC's data processing and validation procedures.
#
#######################################################################

data_YEJXIW
_symmetry_cell_setting           monoclinic
_symmetry_space_group_name_H-M   'P 21/c'
_symmetry_Int_Tables_number      14
_space_group_name_Hall           '-P 2ybc'
loop_
_symmetry_equiv_pos_site_id
_symmetry_equiv_pos_as_xyz
1 x,y,z
2 -x,1/2+y,1/2-z
3 -x,-y,-z
4 x,1/2-y,1/2+z
_cell_length_a                   9.09424(16)
_cell_length_b                   5.011819(67)
_cell_length_c                   16.06675(35)
_cell_angle_alpha                90
_cell_angle_beta                 90.3819(16)
_cell_angle_gamma                90
_cell_volume                     732.285
loop_
_atom_site_label
_atom_site_type_symbol
_atom_site_fract_x
_atom_site_fract_y
_atom_site_fract_z
Zn1 Zn 0.65284(24) 0.20581(38) 0.55104(16)
P1 P 0.30643(35) 0.27445(61) 0.55509(22)
O1 O 0.44788(49) 0.1747(16) 0.58719(46)
N1 N -0.2292(11) 0.3386(27) 0.64882(76)
C1 C 0.1587(11) 0.2092(31) 0.63500(78)
O2 O 0.25992(80) 0.1597(15) 0.47322(29)
O4 O 0.30885(90) 0.57485(85) 0.54457(68)
C2 C -0.0889(10) 0.2407(36) 0.67426(71)
C3 C 0.0155(11) 0.3016(30) 0.60529(68)
Zn1_2 Zn -0.34716(24) 0.20581(38) 0.55104(16)
Zn1B Zn 0.34716(24) -0.20581(38) 0.44896(16)
Zn1B_2 Zn 0.34716(24) 0.79419(38) 0.44896(16)
N1_2 N 0.7708(11) 0.3386(27) 0.64882(76)
O2B O 0.74008(80) -0.1597(15) 0.52678(29)
O4B O 0.69115(90) 0.42515(85) 0.45543(68)
O3 O 0.53730(75) 0.2640(23) 0.28317(49)
loop_
_geom_bond_atom_site_label_1
_geom_bond_atom_site_label_2
_geom_bond_site_symmetry_1
_geom_bond_site_symmetry_2
Zn1 O1 1_555 1_555
P1 O1 1_555 1_555
N1 C2 1_555 1_555
C1 P1 1_555 1_555
O2 P1 1_555 1_555
O4 P1 1_555 1_555
C2 C3 1_555 1_555
C3 C1 1_555 1_555
Zn1_2 N1 1_555 1_555
Zn1B O2 1_555 1_555
Zn1B_2 O4 1_555 1_555
N1_2 Zn1 1_555 1_555
O2B Zn1 1_555 1_555
O4B Zn1 1_555 1_555

#END
