
#######################################################################
#
#                 Cambridge Crystallographic Data Centre
#                                CCDC 
#
#######################################################################
#
# If this CIF has been generated from an entry in the Cambridge 
# Structural Database, then it will include bibliographic, chemical, 
# crystal, experimental, refinement or atomic coordinate data resulting 
# from the CCDC's data processing and validation procedures.
#
#######################################################################

data_YEJYUJ
_symmetry_cell_setting           triclinic
_symmetry_space_group_name_H-M   'P -1'
_symmetry_Int_Tables_number      2
_space_group_name_Hall           '-P 1'
loop_
_symmetry_equiv_pos_site_id
_symmetry_equiv_pos_as_xyz
1 x,y,z
2 -x,-y,-z
_cell_length_a                   9.1516(9)
_cell_length_b                   9.7894(10)
_cell_length_c                   11.4609(12)
_cell_angle_alpha                82.963(2)
_cell_angle_beta                 74.813(2)
_cell_angle_gamma                65.347(2)
_cell_volume                     900.485
loop_
_atom_site_label
_atom_site_type_symbol
_atom_site_fract_x
_atom_site_fract_y
_atom_site_fract_z
Zn1 Zn 1.07617(4) 0.09451(4) 0.30946(3)
O1 O 0.9434(2) 0.2780(2) 0.40446(18)
O2 O 0.3205(3) 0.7968(2) 0.2593(2)
O3 O 0.2327(3) 0.9625(2) 0.40371(19)
O4 O 0.8359(3) 0.3480(2) 0.24525(19)
O5 O 0.5985(3) 0.7156(3) 0.6906(2)
H1 H 0.6407 0.6393 0.7294
N1 N 0.9348(3) -0.0056(3) 0.2854(2)
N2 N 0.8009(3) -0.1308(3) -0.1420(2)
N3 N 0.7464(3) -0.0449(3) 0.2276(2)
N4 N 0.6833(3) -0.0932(3) 0.0505(2)
C1 C 0.3290(4) 0.8365(3) 0.3552(3)
C2 C 0.8373(4) 0.3696(3) 0.3495(3)
C3 C 0.4732(4) 0.7735(3) 0.5250(3)
H2 H 0.3966 0.8636 0.5615
C4 C 0.6167(4) -0.0194(4) 0.1666(3)
H3 H 0.5583 0.0878 0.1545
H4 H 0.5381 -0.0572 0.2171
C5 C 0.8251(4) 0.0456(3) 0.2191(3)
H5 H 0.8047 0.1333 0.1724
C6 C 0.5812(3) 0.6030(3) 0.3610(3)
H6 H 0.5740 0.5764 0.2882
C7 C 0.7355(4) -0.0333(3) -0.0547(3)
H7 H 0.7265 0.0654 -0.0647
C8 C 0.7090(3) 0.5097(3) 0.4132(3)
C9 C 0.4634(3) 0.7359(3) 0.4156(3)
C10 C 0.7167(4) 0.5465(3) 0.5237(3)
H8 H 0.8021 0.4837 0.5597
C11 C 0.5975(4) 0.6766(3) 0.5801(3)
C12 C 0.9254(4) -0.1355(4) 0.3388(3)
H9 H 0.9892 -0.1967 0.3912
C13 C 0.7182(5) -0.2388(4) 0.0280(3)
H10 H 0.6959 -0.3091 0.0838
C14 C 0.7902(5) -0.2607(4) -0.0892(3)
H11 H 0.8275 -0.3505 -0.1291
C15 C 0.8104(4) -0.1613(4) 0.3041(3)
H12 H 0.7801 -0.2420 0.3273
Zn1A Zn 0.92383(4) -0.09451(4) -0.30946(3)
Zn1_2 Zn 0.07617(4) 1.09451(4) 0.30946(3)
Zn1A_2 Zn 1.92383(4) -1.09451(4) -0.30946(3)
O1A O 1.0566(2) -0.2780(2) -0.40446(18)
O2A O 1.6795(3) -0.7968(2) -0.2593(2)
O3A O 1.7673(3) -0.9625(2) -0.40371(19)
O3_2 O 1.2327(3) -0.0375(2) 0.40371(19)
O3A_2 O 0.7673(3) 0.0375(2) -0.40371(19)
O4A O 1.1641(3) -0.3480(2) -0.24525(19)
O5A O 1.4015(3) -0.7156(3) -0.6906(2)
H1A H 1.3593 -0.6393 -0.7294
N1A N 1.0652(3) 0.0056(3) -0.2854(2)
N2A N 1.1991(3) 0.1308(3) 0.1420(2)
N3A N 1.2536(3) 0.0449(3) -0.2276(2)
N4A N 1.3167(3) 0.0932(3) -0.0505(2)
C1A C 1.6710(4) -0.8365(3) -0.3552(3)
C2A C 1.1627(4) -0.3696(3) -0.3495(3)
C3A C 1.5268(4) -0.7735(3) -0.5250(3)
H2A H 1.6034 -0.8636 -0.5615
C4A C 1.3833(4) 0.0194(4) -0.1666(3)
H3A H 1.4417 -0.0878 -0.1545
H4A H 1.4619 0.0572 -0.2171
C5A C 1.1749(4) -0.0456(3) -0.2191(3)
H5A H 1.1953 -0.1333 -0.1724
C6A C 1.4188(3) -0.6030(3) -0.3610(3)
H6A H 1.4260 -0.5764 -0.2882
C7A C 1.2645(4) 0.0333(3) 0.0547(3)
H7A H 1.2735 -0.0654 0.0647
C8A C 1.2910(3) -0.5097(3) -0.4132(3)
C9A C 1.5366(3) -0.7359(3) -0.4156(3)
C10A C 1.2833(4) -0.5465(3) -0.5237(3)
H8A H 1.1979 -0.4837 -0.5597
C11A C 1.4025(4) -0.6766(3) -0.5801(3)
C12A C 1.0746(4) 0.1355(4) -0.3388(3)
H9A H 1.0108 0.1967 -0.3912
C13A C 1.2818(5) 0.2388(4) -0.0280(3)
H10A H 1.3041 0.3091 -0.0838
C14A C 1.2098(5) 0.2607(4) 0.0892(3)
H11A H 1.1725 0.3505 0.1291
C15A C 1.1896(4) 0.1613(4) -0.3041(3)
H12A H 1.2199 0.2420 -0.3273
O6 O 0.6808(5) 0.4563(3) 0.8257(3)
H13 H 0.706(7) 0.428(6) 0.894(3)
H14 H 0.699(8) 0.378(4) 0.789(4)
O7 O 0.6786(5) 0.3901(5) 0.0647(3)
H15 H 0.581(3) 0.433(7) 0.109(5)
H16 H 0.753(5) 0.370(7) 0.105(5)
loop_
_geom_bond_atom_site_label_1
_geom_bond_atom_site_label_2
_geom_bond_site_symmetry_1
_geom_bond_site_symmetry_2
Zn1 O1 1_555 1_555
O1 C2 1_555 1_555
O2 C1 1_555 1_555
O3 C1 1_555 1_555
O4 C2 1_555 1_555
O5 H1 1_555 1_555
N1 Zn1 1_555 1_555
N2 C7 1_555 1_555
N3 C4 1_555 1_555
N4 C4 1_555 1_555
C1 C9 1_555 1_555
C2 C8 1_555 1_555
C3 H2 1_555 1_555
C4 H3 1_555 1_555
H4 C4 1_555 1_555
C5 N1 1_555 1_555
H5 C5 1_555 1_555
C6 H6 1_555 1_555
C7 N4 1_555 1_555
H7 C7 1_555 1_555
C8 C6 1_555 1_555
C9 C3 1_555 1_555
C10 C8 1_555 1_555
H8 C10 1_555 1_555
C11 O5 1_555 1_555
C12 N1 1_555 1_555
H9 C12 1_555 1_555
C13 N4 1_555 1_555
H10 C13 1_555 1_555
C14 N2 1_555 1_555
H11 C14 1_555 1_555
C15 N3 1_555 1_555
H12 C15 1_555 1_555
O6 H13 1_555 1_555
H14 O6 1_555 1_555
O7 H15 1_555 1_555
H16 O7 1_555 1_555
Zn1A N2 1_555 1_555
Zn1_2 O3 1_555 1_555
Zn1A_2 O3A 1_555 1_555
O1A Zn1A 1_555 1_555
O2A C1A 1_555 1_555
O3A C1A 1_555 1_555
O3_2 Zn1 1_555 1_555
O3A_2 Zn1A 1_555 1_555
O4A C2A 1_555 1_555
O5A H1A 1_555 1_555
N1A Zn1A 1_555 1_555
N2A Zn1 1_555 1_555
N3A C4A 1_555 1_555
N4A C4A 1_555 1_555
C1A C9A 1_555 1_555
C2A O1A 1_555 1_555
C3A H2A 1_555 1_555
C4A H3A 1_555 1_555
H4A C4A 1_555 1_555
C5A N1A 1_555 1_555
H5A C5A 1_555 1_555
C6A H6A 1_555 1_555
C7A N2A 1_555 1_555
H7A C7A 1_555 1_555
C8A C2A 1_555 1_555
C9A C3A 1_555 1_555
C10A C8A 1_555 1_555
H8A C10A 1_555 1_555
C11A O5A 1_555 1_555
C12A N1A 1_555 1_555
H9A C12A 1_555 1_555
C13A N4A 1_555 1_555
H10A C13A 1_555 1_555
C14A N2A 1_555 1_555
H11A C14A 1_555 1_555
C15A N3A 1_555 1_555
H12A C15A 1_555 1_555
N3 C5 1_555 1_555
C3 C11 1_555 1_555
C6 C9 1_555 1_555
C10 C11 1_555 1_555
C12 C15 1_555 1_555
C13 C14 1_555 1_555
N3A C5A 1_555 1_555
N4A C7A 1_555 1_555
C3A C11A 1_555 1_555
C6A C8A 1_555 1_555
C6A C9A 1_555 1_555
C10A C11A 1_555 1_555
C12A C15A 1_555 1_555
C13A C14A 1_555 1_555

#END
