
#######################################################################
#
#                 Cambridge Crystallographic Data Centre
#                                CCDC 
#
#######################################################################
#
# If this CIF has been generated from an entry in the Cambridge 
# Structural Database, then it will include bibliographic, chemical, 
# crystal, experimental, refinement or atomic coordinate data resulting 
# from the CCDC's data processing and validation procedures.
#
#######################################################################

data_YEJYAP
_symmetry_cell_setting           monoclinic
_symmetry_space_group_name_H-M   'P 2/c'
_symmetry_Int_Tables_number      13
_space_group_name_Hall           '-P 2yc'
loop_
_symmetry_equiv_pos_site_id
_symmetry_equiv_pos_as_xyz
1 x,y,z
2 -x,y,1/2-z
3 -x,-y,-z
4 x,-y,1/2+z
_cell_length_a                   12.158(2)
_cell_length_b                   5.0315(10)
_cell_length_c                   13.952(3)
_cell_angle_alpha                90
_cell_angle_beta                 113.23(3)
_cell_angle_gamma                90
_cell_volume                     784.292
loop_
_atom_site_label
_atom_site_type_symbol
_atom_site_fract_x
_atom_site_fract_y
_atom_site_fract_z
Zn1 Zn 0.00917(4) 0.18342(8) 0.38359(3)
O1 O 0.0000 0.3064(8) 0.2500
H1 H 0.0000 0.4694 0.2500
P1 P -0.14550(8) 0.31866(17) 0.50585(6)
O2 O -0.1426(2) 0.2206(6) 0.40260(19)
O3 O -0.0472(3) 0.1950(5) 0.6002(2)
O4 O -0.1398(2) 0.6203(5) 0.51197(19)
C1 C -0.2906(4) 0.2238(8) 0.5028(3)
H2 H -0.3523 0.2965 0.4403
H3 H -0.2974 0.0317 0.4986
C2 C -0.3128(4) 0.3189(9) 0.5984(3)
H4 H -0.2957 0.5076 0.6081
H5 H -0.3967 0.2939 0.5850
C3 C -0.2380(4) 0.1751(9) 0.6970(3)
H6 H -0.2530 -0.0143 0.6870
H7 H -0.1540 0.2054 0.7122
N1 N -0.2648(3) 0.2650(7) 0.7867(2)
H8 H -0.3412 0.2318 0.7739
H9 H -0.2511 0.4388 0.7960
H10 H -0.2181 0.1784 0.8439
Zn1B Zn -0.00917(4) -0.18342(8) 0.61641(3)
Zn1A Zn -0.00917(4) 0.18342(8) 0.11641(3)
Zn1B_2 Zn -0.00917(4) 0.81658(8) 0.61641(3)
Zn1_2 Zn 0.00917(4) -0.81658(8) 0.38359(3)
O1B O 0.0000 -0.3064(8) 0.7500
H1B H 0.0000 -0.4694 0.7500
P1B P 0.14550(8) -0.31866(17) 0.49415(6)
O2B O 0.1426(2) -0.2206(6) 0.59740(19)
O3B O 0.0472(3) -0.1950(5) 0.3998(2)
O4B O 0.1398(2) -0.6203(5) 0.48803(19)
O4B_2 O 0.1398(2) 0.3797(5) 0.48803(19)
O4_2 O -0.1398(2) -0.3797(5) 0.51197(19)
C1B C 0.2906(4) -0.2238(8) 0.4972(3)
H2B H 0.3523 -0.2965 0.5597
H3B H 0.2974 -0.0317 0.5014
C2B C 0.3128(4) -0.3189(9) 0.4016(3)
H4B H 0.2957 -0.5076 0.3919
H5B H 0.3967 -0.2939 0.4150
C3B C 0.2380(4) -0.1751(9) 0.3030(3)
H6B H 0.2530 0.0143 0.3130
H7B H 0.1540 -0.2054 0.2878
N1B N 0.2648(3) -0.2650(7) 0.2133(2)
H8B H 0.3412 -0.2318 0.2261
H9B H 0.2511 -0.4388 0.2040
H10B H 0.2181 -0.1784 0.1561
N2 N -0.5000 0.8525(11) 0.7500
O5 O -0.4236(4) 0.7355(8) 0.7296(4)
O6 O -0.5000 1.1026(11) 0.7500
O5A O -0.5764(4) 0.7355(8) 0.7704(4)
loop_
_geom_bond_atom_site_label_1
_geom_bond_atom_site_label_2
_geom_bond_site_symmetry_1
_geom_bond_site_symmetry_2
Zn1 O1 1_555 1_555
O1 H1 1_555 1_555
P1 O2 1_555 1_555
O2 Zn1 1_555 1_555
O3 P1 1_555 1_555
O4 P1 1_555 1_555
C1 P1 1_555 1_555
H2 C1 1_555 1_555
H3 C1 1_555 1_555
C2 C1 1_555 1_555
H4 C2 1_555 1_555
H5 C2 1_555 1_555
C3 C2 1_555 1_555
H6 C3 1_555 1_555
H7 C3 1_555 1_555
N1 C3 1_555 1_555
H8 N1 1_555 1_555
H9 N1 1_555 1_555
H10 N1 1_555 1_555
N2 O5 1_555 1_555
O6 N2 1_555 1_555
Zn1B O3 1_555 1_555
Zn1A O1 1_555 1_555
Zn1B_2 O4 1_555 1_555
Zn1_2 O4B 1_555 1_555
O1B Zn1B 1_555 1_555
H1B O1B 1_555 1_555
P1B O2B 1_555 1_555
O2B Zn1B 1_555 1_555
O3B Zn1 1_555 1_555
O4B P1B 1_555 1_555
O4B_2 Zn1 1_555 1_555
O4_2 Zn1B 1_555 1_555
C1B P1B 1_555 1_555
H2B C1B 1_555 1_555
H3B C1B 1_555 1_555
C2B C1B 1_555 1_555
H4B C2B 1_555 1_555
H5B C2B 1_555 1_555
C3B C2B 1_555 1_555
H6B C3B 1_555 1_555
H7B C3B 1_555 1_555
N1B C3B 1_555 1_555
H8B N1B 1_555 1_555
H9B N1B 1_555 1_555
H10B N1B 1_555 1_555
O5A N2 1_555 1_555
P1B O3B 1_555 1_555

#END
