
#######################################################################
#
#                 Cambridge Crystallographic Data Centre
#                                CCDC 
#
#######################################################################
#
# If this CIF has been generated from an entry in the Cambridge 
# Structural Database, then it will include bibliographic, chemical, 
# crystal, experimental, refinement or atomic coordinate data resulting 
# from the CCDC's data processing and validation procedures.
#
#######################################################################

data_YEKDID
_symmetry_cell_setting           triclinic
_symmetry_space_group_name_H-M   'P -1'
_symmetry_Int_Tables_number      2
_space_group_name_Hall           '-P 1'
loop_
_symmetry_equiv_pos_site_id
_symmetry_equiv_pos_as_xyz
1 x,y,z
2 -x,-y,-z
_cell_length_a                   7.9963(16)
_cell_length_b                   9.1871(18)
_cell_length_c                   16.060(3)
_cell_angle_alpha                81.96(3)
_cell_angle_beta                 89.16(3)
_cell_angle_gamma                74.82(3)
_cell_volume                     1127.16
loop_
_atom_site_label
_atom_site_type_symbol
_atom_site_fract_x
_atom_site_fract_y
_atom_site_fract_z
O1 O 2.0112(5) 1.0299(5) 0.1845(3)
O2 O 2.0186(5) 0.7547(4) 0.4952(2)
C1 C 2.0594(6) 0.7667(6) 0.5689(3)
Nd1 Nd 1.80272(3) 0.91979(3) 0.396920(16)
Cu1 Cu 2.24091(8) 1.09213(7) 0.12627(4)
C2 C 1.6350(8) 1.2270(7) 0.0855(4)
H1 H 1.6128 1.2860 0.1290
N1 N 1.7430(6) 0.7527(5) 0.8003(3)
O3 O 2.0791(5) 0.8183(4) 0.3264(2)
C3 C 1.6443(6) 0.7342(6) 0.6627(3)
N2 N 2.2107(6) 0.3471(5) 0.6488(3)
C4 C 2.1528(6) 0.4806(6) 0.5997(3)
H2 H 2.1220 0.4797 0.5442
O4 O 1.8830(5) 0.7721(4) -0.0297(2)
O5 O 1.7622(5) 1.0131(5) 0.2453(2)
C5 C 1.6601(6) 0.8189(6) 0.7259(3)
C6 C 1.7767(6) 0.9975(6) 0.0326(3)
O6 O 1.6576(5) 0.8168(5) 0.5165(2)
C7 C 2.1359(6) 0.6210(6) 0.6267(3)
C8 C 1.8816(7) 0.8317(6) 0.0387(4)
N3 N 1.6954(6) 1.0526(5) -0.0431(3)
C9 C 1.5850(8) 1.1911(7) -0.0552(4)
H3 H 1.5311 1.2279 -0.1077
O7 O 1.9495(7) 0.7652(5) 0.1055(3)
C10 C 1.8053(8) 0.6019(6) 0.8143(4)
H4 H 1.8609 0.5570 0.8656
C11 C 2.2581(8) 0.3515(6) 0.7283(4)
H5 H 2.2999 0.2597 0.7633
C12 C 2.2480(9) 0.4848(7) 0.7605(4)
H6 H 2.2816 0.4820 0.8160
C13 C 1.7547(7) 1.0846(6) 0.0983(3)
C14 C 1.7899(8) 0.5093(7) 0.7550(4)
H7 H 1.8320 0.4040 0.7666
C15 C 1.5885(6) 0.9878(6) 0.7205(3)
C16 C 2.1873(9) 0.6227(6) 0.7095(4)
C17 C 1.7101(8) 0.5782(6) 0.6780(4)
H8 H 1.7010 0.5190 0.6366
C18 C 1.5489(9) 1.2814(7) 0.0087(4)
H9 H 1.4687 1.3762 0.0002
O8 O 1.5034(4) 1.0600(4) 0.6553(2)
O9 O 1.3954(4) 0.8451(4) 0.5725(2)
O10 O 1.6193(5) 1.0492(4) 0.7825(2)
O11 O 2.0389(5) 0.8919(4) 0.5974(3)
C19 C 1.5581(7) 0.8093(5) 0.5766(3)
C20 C 1.8528(7) 1.0354(6) 0.1821(3)
Nd1A Nd 2.19728(3) 0.08021(3) 0.603080(16)
Nd1A_2 Nd 1.19728(3) 1.08021(3) 0.603080(16)
Nd1A_3 Nd 2.19728(3) 1.08021(3) 0.603080(16)
Cu1A Cu 1.75909(8) 0.90787(7) 0.87373(4)
Cu1A_2 Cu 1.75909(8) 0.90787(7) -0.12627(4)
N1A N 2.2570(6) 1.2473(5) 0.1997(3)
N2A N 1.7893(6) 0.6529(5) 0.3512(3)
O4A O 2.1170(5) 1.2279(4) 0.0297(2)
N3A N 2.3046(6) 0.9474(5) 0.0431(3)
O8A O 1.4966(4) 0.9400(4) 0.3447(2)
O9A O 1.6046(4) 1.1549(4) 0.4275(2)
O10A O 2.3807(5) 0.9508(4) 0.2175(2)
O11A O 1.9611(5) 1.1081(4) 0.4026(3)
O12 O 0.3823(6) 0.6843(5) 0.4199(3)
O13 O 0.8198(10) 0.4798(8) 0.0350(5)
loop_
_geom_bond_atom_site_label_1
_geom_bond_atom_site_label_2
_geom_bond_site_symmetry_1
_geom_bond_site_symmetry_2
O1 Cu1 1_555 1_555
O2 C1 1_555 1_555
C1 C7 1_555 1_555
Nd1 O2 1_555 1_555
Cu1 N1A 1_555 1_555
C2 H1 1_555 1_555
N1 C5 1_555 1_555
O3 Nd1 1_555 1_555
C3 C5 1_555 1_555
N2 C4 1_555 1_555
C4 H2 1_555 1_555
O4 C8 1_555 1_555
O5 Nd1 1_555 1_555
C5 C15 1_555 1_555
C6 C8 1_555 1_555
O6 Nd1 1_555 1_555
C7 C4 1_555 1_555
C8 O7 1_555 1_555
N3 C6 1_555 1_555
C9 N3 1_555 1_555
H3 C9 1_555 1_555
C10 N1 1_555 1_555
H4 C10 1_555 1_555
C11 N2 1_555 1_555
H5 C11 1_555 1_555
C12 C11 1_555 1_555
H6 C12 1_555 1_555
C13 C2 1_555 1_555
C14 C10 1_555 1_555
H7 C14 1_555 1_555
C15 O8 1_555 1_555
C16 C7 1_555 1_555
C17 C3 1_555 1_555
H8 C17 1_555 1_555
C18 C2 1_555 1_555
H9 C18 1_555 1_555
O8 Nd1A_2 1_555 1_555
O9 C19 1_555 1_555
O10 C15 1_555 1_555
O11 C1 1_555 1_555
C19 C3 1_555 1_555
C20 O1 1_555 1_555
Nd1A N2 1_555 1_555
Nd1A_2 O9 1_555 1_555
Nd1A_3 O11 1_555 1_555
Cu1A N1 1_555 1_555
Cu1A_2 O4 1_555 1_555
N2A Nd1 1_555 1_555
O4A Cu1 1_555 1_555
N3A Cu1 1_555 1_555
O8A Nd1 1_555 1_555
O9A Nd1 1_555 1_555
O10A Cu1 1_555 1_555
O11A Nd1 1_555 1_555
O5 C20 1_555 1_555
C6 C13 1_555 1_555
O6 C19 1_555 1_555
N3 Cu1A_2 1_555 1_555
C9 C18 1_555 1_555
C12 C16 1_555 1_555
C13 C20 1_555 1_555
C14 C17 1_555 1_555
O10 Cu1A 1_555 1_555

#END
