
#######################################################################
#
#                 Cambridge Crystallographic Data Centre
#                                CCDC 
#
#######################################################################
#
# If this CIF has been generated from an entry in the Cambridge 
# Structural Database, then it will include bibliographic, chemical, 
# crystal, experimental, refinement or atomic coordinate data resulting 
# from the CCDC's data processing and validation procedures.
#
#######################################################################

data_YEKMOS01
_symmetry_cell_setting           orthorhombic
_symmetry_space_group_name_H-M   'P n a 21'
_symmetry_Int_Tables_number      33
_space_group_name_Hall           'P 2c -2n'
loop_
_symmetry_equiv_pos_site_id
_symmetry_equiv_pos_as_xyz
1 x,y,z
2 -x,-y,1/2+z
3 1/2-x,1/2+y,1/2+z
4 1/2+x,1/2-y,z
_cell_length_a                   8.6979(2)
_cell_length_b                   16.2111(4)
_cell_length_c                   15.9561(4)
_cell_angle_alpha                90
_cell_angle_beta                 90
_cell_angle_gamma                90
_cell_volume                     2249.85
loop_
_atom_site_label
_atom_site_type_symbol
_atom_site_fract_x
_atom_site_fract_y
_atom_site_fract_z
Cr1 Cr 0.173011(17) 0.022825(9) 0.450366(10)
Mn1 Mn 0.333408(16) -0.107140(10) 0.758231(10)
O1 O 0.26922(10) -0.07688(5) 0.49693(5)
O2 O 0.12228(9) 0.04539(5) 0.56917(5)
O3 O 0.25542(9) -0.00373(5) 0.33706(5)
O4 O 0.36440(9) 0.08693(5) 0.46074(5)
O5 O -0.02818(9) -0.02873(5) 0.42765(5)
O6 O 0.07208(9) 0.12094(5) 0.40160(5)
O7 O 0.34490(10) -0.12557(6) 0.62139(5)
O8 O 0.18674(9) -0.00322(5) 0.69649(5)
O9 O 0.45718(9) 0.02953(5) 0.25638(5)
O10 O 0.54364(9) 0.13977(5) 0.37566(5)
O11 O -0.12251(9) 0.15000(5) 0.31633(5)
O12 O -0.25380(9) 0.00152(5) 0.36728(5)
O13 O 0.38663(11) -0.24041(5) 0.74104(6)
H1 H 0.438(2) -0.2633(11) 0.7736(11)
C1 C 0.27596(12) -0.07589(6) 0.57678(7)
C2 C 0.18724(11) -0.00521(6) 0.61952(7)
C3 C 0.37951(11) 0.03469(6) 0.32127(6)
C4 C 0.43594(11) 0.09302(6) 0.39152(6)
C5 C -0.12083(12) 0.01817(6) 0.38752(6)
C6 C -0.05437(11) 0.10390(6) 0.36589(6)
C7 C 0.28182(16) -0.29652(8) 0.70149(10)
H2 H 0.2153 -0.2652 0.6625
H3 H 0.2149 -0.3213 0.7449
C8 C 0.3594(2) -0.36421(11) 0.65406(12)
H4 H 0.4306 -0.3404 0.6131
H5 H 0.2819 -0.3973 0.6248
H6 H 0.4165 -0.3994 0.6932
Mn1A Mn -0.333408(16) 0.107140(10) 0.258231(10)
Mn1A_2 Mn 0.666592(16) 0.107140(10) 0.258231(10)
O9A O 0.54282(9) -0.02953(5) 0.75638(5)
O10A O 0.45636(9) -0.13977(5) 0.87566(5)
O11A O 0.12251(9) -0.15000(5) 0.81633(5)
C9 C 0.19837(14) 0.78553(7) 0.17085(7)
O14 O 0.24970(14) 0.67141(7) 0.44690(8)
H7 H 0.239(3) 0.6233(17) 0.4365(17)
C10 C 0.12183(15) 0.67007(7) 0.25669(8)
H8 H 0.1207 0.6123 0.2665
C11 C 0.19190(16) 0.69961(7) 0.18620(8)
H9 H 0.2365 0.6623 0.1473
N1 N 0.05396(12) 0.72086(6) 0.31301(6)
C12 C 0.05696(15) 0.80331(7) 0.29988(8)
H10 H 0.0093 0.8386 0.3397
C13 C 0.12604(15) 0.83735(7) 0.23153(8)
H11 H 0.1261 0.8955 0.2242
C14 C -0.01019(17) 0.68738(8) 0.39138(8)
H12 H -0.0297 0.6276 0.3847
H13 H -0.1095 0.7147 0.4037
C15 C 0.09953(17) 0.70107(8) 0.46347(8)
H14 H 0.1050 0.7608 0.4758
H15 H 0.0588 0.6730 0.5139
N2 N 0.26869(13) 0.81601(6) 0.10318(6)
C16 C 0.33366(18) 0.76024(8) 0.04045(8)
H16 H 0.4106 0.7246 0.0669
H17 H 0.3824 0.7926 -0.0041
H18 H 0.2516 0.7262 0.0165
C17 C 0.28014(17) 0.90503(7) 0.08988(8)
H19 H 0.1769 0.9283 0.0833
H20 H 0.3404 0.9159 0.0392
H21 H 0.3308 0.9306 0.1382
loop_
_geom_bond_atom_site_label_1
_geom_bond_atom_site_label_2
_geom_bond_site_symmetry_1
_geom_bond_site_symmetry_2
Cr1 O1 1_555 1_555
Mn1 O7 1_555 1_555
O1 C1 1_555 1_555
O2 Cr1 1_555 1_555
O3 Cr1 1_555 1_555
O4 Cr1 1_555 1_555
O5 Cr1 1_555 1_555
O6 Cr1 1_555 1_555
O7 C1 1_555 1_555
O8 Mn1 1_555 1_555
O9 C3 1_555 1_555
O10 C4 1_555 1_555
O11 C6 1_555 1_555
O12 C5 1_555 1_555
O13 Mn1 1_555 1_555
H1 O13 1_555 1_555
C1 C2 1_555 1_555
C2 O2 1_555 1_555
C3 O3 1_555 1_555
C4 O4 1_555 1_555
C5 O5 1_555 1_555
C6 O6 1_555 1_555
C7 O13 1_555 1_555
H2 C7 1_555 1_555
H3 C7 1_555 1_555
C8 C7 1_555 1_555
H4 C8 1_555 1_555
H5 C8 1_555 1_555
H6 C8 1_555 1_555
C9 C11 1_555 1_555
O14 H7 1_555 1_555
C10 H8 1_555 1_555
C11 C10 1_555 1_555
H9 C11 1_555 1_555
N1 C10 1_555 1_555
C12 N1 1_555 1_555
H10 C12 1_555 1_555
C13 C9 1_555 1_555
H11 C13 1_555 1_555
C14 N1 1_555 1_555
H12 C14 1_555 1_555
H13 C14 1_555 1_555
C15 O14 1_555 1_555
H14 C15 1_555 1_555
H15 C15 1_555 1_555
N2 C9 1_555 1_555
C16 N2 1_555 1_555
H16 C16 1_555 1_555
H17 C16 1_555 1_555
H18 C16 1_555 1_555
C17 N2 1_555 1_555
H19 C17 1_555 1_555
H20 C17 1_555 1_555
H21 C17 1_555 1_555
Mn1A O11 1_555 1_555
Mn1A_2 O9 1_555 1_555
O9A Mn1 1_555 1_555
O10A Mn1 1_555 1_555
O11A Mn1 1_555 1_555
O8 C2 1_555 1_555
O10 Mn1A_2 1_555 1_555
C3 C4 1_555 1_555
C5 C6 1_555 1_555
C12 C13 1_555 1_555
C14 C15 1_555 1_555

#END
