
#######################################################################
#
#                 Cambridge Crystallographic Data Centre
#                                CCDC 
#
#######################################################################
#
# If this CIF has been generated from an entry in the Cambridge 
# Structural Database, then it will include bibliographic, chemical, 
# crystal, experimental, refinement or atomic coordinate data resulting 
# from the CCDC's data processing and validation procedures.
#
#######################################################################

data_YEKNOT
_symmetry_cell_setting           monoclinic
_symmetry_space_group_name_H-M   'C 2/c'
_symmetry_Int_Tables_number      15
_space_group_name_Hall           '-C 2yn'
loop_
_symmetry_equiv_pos_site_id
_symmetry_equiv_pos_as_xyz
1 x,y,z
2 -x,y,1/2-z
3 1/2+x,1/2+y,z
4 1/2-x,1/2+y,1/2-z
5 -x,-y,-z
6 x,-y,1/2+z
7 1/2-x,1/2-y,-z
8 1/2+x,1/2-y,1/2+z
_cell_length_a                   20.03(3)
_cell_length_b                   18.87(2)
_cell_length_c                   18.81(2)
_cell_angle_alpha                90
_cell_angle_beta                 106.64(2)
_cell_angle_gamma                90
_cell_volume                     6811.82
loop_
_atom_site_label
_atom_site_type_symbol
_atom_site_fract_x
_atom_site_fract_y
_atom_site_fract_z
O1 O 0.5990(6) 0.1320(7) 0.1043(10)
O2 O 0.6613(4) 0.2072(5) 0.1863(5)
C1 C 0.6073(6) 0.1870(10) 0.1367(9)
C2 C 0.5478(6) 0.2387(9) 0.1221(8)
C3 C 0.5491(7) 0.2961(9) 0.1662(8)
H1 H 0.5872 0.3012 0.2080
C4 C 0.4976(7) 0.3477(9) 0.1533(9)
H2 H 0.5006 0.3871 0.1837
C5 C 0.4925(7) 0.2257(12) 0.0590(9)
H3 H 0.4913 0.1865 0.0287
C6 C 0.4363(6) 0.2784(10) 0.0439(8)
H4 H 0.3979 0.2728 0.0026
C7 C 0.4394(6) 0.3354(9) 0.0893(8)
C8 C 0.3808(8) 0.3834(10) 0.0707(9)
H5 H 0.3479 0.3679 0.0248
H6 H 0.3971 0.4302 0.0623
N1 N 0.3439(6) 0.3883(9) 0.1298(8)
C9 C 0.3450(7) 0.4455(10) 0.1681(9)
H7 H 0.3687 0.4857 0.1601
C10 C 0.3082(8) 0.4441(10) 0.2233(9)
H8 H 0.3099 0.4835 0.2535
C11 C 0.3088(7) 0.3293(9) 0.1367(9)
H9 H 0.3084 0.2904 0.1063
C12 C 0.2723(7) 0.3273(10) 0.1909(9)
H10 H 0.2494 0.2864 0.1984
C13 C 0.2714(6) 0.3872(7) 0.2322(7)
C14 C 0.2323(6) 0.3864(8) 0.2887(8)
C15 C 0.1806(7) 0.4347(10) 0.2840(9)
H11 H 0.1729 0.4721 0.2505
C16 C 0.1414(6) 0.4251(11) 0.3308(10)
H12 H 0.1036 0.4549 0.3271
C17 C 0.2466(6) 0.3371(8) 0.3415(8)
H13 H 0.2843 0.3068 0.3464
C18 C 0.2062(7) 0.3310(9) 0.3886(8)
H14 H 0.2159 0.2958 0.4247
N2 N 0.1554(5) 0.3731(8) 0.3833(6)
C19 C 0.1078(6) 0.3670(9) 0.4288(8)
H15 H 0.0875 0.4128 0.4332
H16 H 0.1329 0.3507 0.4781
C20 C 0.0492(6) 0.3131(9) 0.3917(7)
C21 C -0.0171(7) 0.3452(10) 0.3639(11)
H17 H -0.0246 0.3933 0.3691
C22 C -0.0711(7) 0.2978(10) 0.3272(10)
H18 H -0.1162 0.3152 0.3085
C23 C 0.0623(7) 0.2459(9) 0.3818(9)
H19 H 0.1081 0.2298 0.3958
C24 C 0.0075(7) 0.1981(10) 0.3502(9)
H20 H 0.0156 0.1495 0.3509
C25 C -0.0586(6) 0.2249(9) 0.3183(7)
C26 C -0.1158(6) 0.1807(8) 0.2787(7)
O3 O -0.1062(5) 0.1178(7) 0.2718(6)
O4 O -0.1774(4) 0.2073(5) 0.2565(5)
Zn1 Zn -0.25778(7) 0.14730(9) 0.21838(8)
O5 O -0.2654(4) 0.0879(5) 0.2991(4)
O6 O -0.2629(6) 0.1736(7) 0.3787(7)
C27 C -0.2610(6) 0.1124(10) 0.3620(9)
C28 C -0.2531(6) 0.0585(8) 0.4222(7)
C29 C -0.2981(7) 0.0585(8) 0.4639(7)
H21 H -0.3323 0.0933 0.4555
C30 C -0.2003(6) 0.0081(7) 0.4386(6)
C31 C -0.1457(6) 0.0142(8) 0.4050(7)
H22 H -0.1477 0.0492 0.3696
C32 C -0.0894(7) -0.0316(10) 0.4243(9)
H23 H -0.0538 -0.0281 0.4018
C33 C -0.0872(8) -0.0823(9) 0.4776(9)
H24 H -0.0491 -0.1127 0.4915
C34 C -0.1377(7) -0.0891(10) 0.5098(9)
H25 H -0.1355 -0.1253 0.5439
C35 C -0.1941(6) -0.0426(8) 0.4930(7)
C36 C -0.2949(6) 0.0081(8) 0.5190(7)
H26 H -0.3259 0.0102 0.5476
C37 C -0.2453(6) -0.0451(8) 0.5309(7)
C38 C -0.2430(6) -0.1047(11) 0.5824(7)
O7 O -0.2498(5) -0.0793(5) 0.6441(5)
O8 O -0.2411(6) -0.1634(7) 0.5692(6)
O2_2 O -0.3387(4) 0.2072(5) 0.1863(5)
Zn1_2 Zn 0.74222(7) 0.14730(9) 0.21838(8)
Zn1E Zn -0.25778(7) -0.14730(9) 0.71838(8)
O7E O -0.2498(5) 0.0793(5) 0.1441(5)
O9 O 0.0000 0.0230(10) 0.2500
O10 O 0.5000 0.0132(14) 0.2500
C39 C 0.5000 0.068(3) 0.2500
C40 C 0.4389(9) 0.1224(15) 0.2047(11)
H27 H 0.3983 0.0958 0.1788
H28 H 0.4553 0.1491 0.1696
H29 H 0.4271 0.1542 0.2391
C40A C 0.5611(9) 0.1224(15) 0.2953(11)
H27A H 0.6017 0.0958 0.3212
H28A H 0.5447 0.1491 0.3304
H29A H 0.5729 0.1542 0.2609
loop_
_geom_bond_atom_site_label_1
_geom_bond_atom_site_label_2
_geom_bond_site_symmetry_1
_geom_bond_site_symmetry_2
O1 C1 1_555 1_555
O2 C1 1_555 1_555
C1 C2 1_555 1_555
C2 C3 1_555 1_555
C3 H1 1_555 1_555
C4 C3 1_555 1_555
H2 C4 1_555 1_555
C5 C2 1_555 1_555
H3 C5 1_555 1_555
C6 C5 1_555 1_555
H4 C6 1_555 1_555
C7 C4 1_555 1_555
C8 C7 1_555 1_555
H5 C8 1_555 1_555
H6 C8 1_555 1_555
N1 C8 1_555 1_555
C9 N1 1_555 1_555
H7 C9 1_555 1_555
C10 C9 1_555 1_555
H8 C10 1_555 1_555
C11 N1 1_555 1_555
H9 C11 1_555 1_555
C12 C11 1_555 1_555
H10 C12 1_555 1_555
C13 C10 1_555 1_555
C14 C13 1_555 1_555
C15 C14 1_555 1_555
H11 C15 1_555 1_555
C16 C15 1_555 1_555
H12 C16 1_555 1_555
C17 C14 1_555 1_555
H13 C17 1_555 1_555
C18 C17 1_555 1_555
H14 C18 1_555 1_555
N2 C16 1_555 1_555
C19 N2 1_555 1_555
H15 C19 1_555 1_555
H16 C19 1_555 1_555
C20 C19 1_555 1_555
C21 C20 1_555 1_555
H17 C21 1_555 1_555
C22 C21 1_555 1_555
H18 C22 1_555 1_555
C23 C20 1_555 1_555
H19 C23 1_555 1_555
C24 C23 1_555 1_555
H20 C24 1_555 1_555
C25 C22 1_555 1_555
C26 C25 1_555 1_555
O3 C26 1_555 1_555
O4 C26 1_555 1_555
Zn1 O4 1_555 1_555
O5 Zn1 1_555 1_555
O6 C27 1_555 1_555
C27 O5 1_555 1_555
C28 C27 1_555 1_555
C29 C28 1_555 1_555
H21 C29 1_555 1_555
C30 C28 1_555 1_555
C31 C30 1_555 1_555
H22 C31 1_555 1_555
C32 C31 1_555 1_555
H23 C32 1_555 1_555
C33 C32 1_555 1_555
H24 C33 1_555 1_555
C34 C33 1_555 1_555
H25 C34 1_555 1_555
C35 C30 1_555 1_555
C36 C29 1_555 1_555
H26 C36 1_555 1_555
C37 C35 1_555 1_555
C38 C37 1_555 1_555
O7 C38 1_555 1_555
O8 C38 1_555 1_555
O10 C39 1_555 1_555
C39 C40 1_555 1_555
C40 H27 1_555 1_555
H28 C40 1_555 1_555
H29 C40 1_555 1_555
O2_2 Zn1 1_555 1_555
Zn1_2 O2 1_555 1_555
Zn1E O7 1_555 1_555
O7E Zn1 1_555 1_555
C40A C39 1_555 1_555
H27A C40A 1_555 1_555
H28A C40A 1_555 1_555
H29A C40A 1_555 1_555
C6 C7 1_555 1_555
C12 C13 1_555 1_555
C18 N2 1_555 1_555
C24 C25 1_555 1_555
C34 C35 1_555 1_555
C36 C37 1_555 1_555

#END
