
#######################################################################
#
#                 Cambridge Crystallographic Data Centre
#                                CCDC 
#
#######################################################################
#
# If this CIF has been generated from an entry in the Cambridge 
# Structural Database, then it will include bibliographic, chemical, 
# crystal, experimental, refinement or atomic coordinate data resulting 
# from the CCDC's data processing and validation procedures.
#
#######################################################################

data_YEKNIN
_symmetry_cell_setting           monoclinic
_symmetry_space_group_name_H-M   'C 2/c'
_symmetry_Int_Tables_number      15
_space_group_name_Hall           '-C 2yn'
loop_
_symmetry_equiv_pos_site_id
_symmetry_equiv_pos_as_xyz
1 x,y,z
2 -x,y,1/2-z
3 1/2+x,1/2+y,z
4 1/2-x,1/2+y,1/2-z
5 -x,-y,-z
6 x,-y,1/2+z
7 1/2-x,1/2-y,-z
8 1/2+x,1/2-y,1/2+z
_cell_length_a                   19.683(4)
_cell_length_b                   20.195(4)
_cell_length_c                   19.360(4)
_cell_angle_alpha                90
_cell_angle_beta                 110.789(3)
_cell_angle_gamma                90
_cell_volume                     7194.54
loop_
_atom_site_label
_atom_site_type_symbol
_atom_site_fract_x
_atom_site_fract_y
_atom_site_fract_z
N3 N 0.0000 0.0830(3) 0.7500
C39 C -0.0260(3) 0.0490(4) 0.7989(4)
O9 O -0.0189(4) -0.0124(4) 0.7979(5)
C40 C 0.0000 0.1568(5) 0.7500
C39A C 0.0260(3) 0.0490(4) 0.7011(4)
O9A O 0.0189(4) -0.0124(4) 0.7021(5)
O10 O 0.0000 0.4914(2) 0.2500
O11 O 0.2155(3) 0.1921(2) 0.9769(2)
O12 O 0.1139(3) 0.0296(3) 0.1131(3)
O13 O 0.1034(6) 0.1291(3) 0.0164(6)
Zn1 Zn 0.221383(19) 0.133977(18) 0.687454(19)
O1 O 0.21307(14) 0.07207(12) 0.76342(12)
O2 O -0.61733(13) 0.09624(13) 0.75135(15)
O3 O 0.14389(13) 0.20084(12) 0.65742(15)
O4 O -0.69064(12) 0.18355(13) 0.73823(14)
O5 O 0.22111(14) -0.07093(12) 1.11071(13)
N1 N -0.34601(15) 0.34489(15) 0.87449(16)
C1 C 0.24094(17) -0.09470(17) 1.05902(18)
O6 O 0.25961(14) -0.15252(12) 1.05578(14)
C2 C 0.23875(18) -0.04560(16) 0.99996(17)
C3 C -0.26886(18) 0.36899(16) 0.7840(2)
O7 O 0.2036(2) 0.15483(14) 0.83540(15)
C4 C 0.22418(18) 0.04693(16) 0.88602(18)
C5 C -0.23094(18) 0.37852(17) 0.73147(19)
C6 C -0.45182(18) 0.28415(18) 0.88178(19)
C7 C -0.28782(19) 0.30723(18) 0.8805(2)
H1 H -0.2738 0.2732 0.9158
C8 C -0.62832(18) 0.15476(18) 0.76236(19)
C9 C 0.2134(2) 0.09612(17) 0.82431(19)
C10 C 0.03305(18) 0.25498(18) 0.5947(2)
C11 C -0.32833(19) 0.40864(17) 0.7800(2)
H2 H -0.3420 0.4443 0.7467
N2 N -0.16015(17) 0.39619(17) 0.63283(18)
C12 C 0.08383(19) 0.19733(18) 0.6031(2)
C13 C -0.21235(19) 0.44186(18) 0.7149(2)
H3 H -0.2247 0.4793 0.7369
C14 C 0.28870(18) 0.00647(16) 0.91299(17)
C15 C -0.56672(17) 0.19903(17) 0.80706(18)
C16 C -0.24868(18) 0.31822(17) 0.8351(2)
H4 H -0.2085 0.2914 0.8388
C17 C 0.3478(2) 0.0143(2) 0.8877(2)
H5 H 0.3442 0.0454 0.8504
O8 O 0.06504(19) 0.15100(16) 0.55865(19)
C18 C -0.2130(2) 0.32400(19) 0.6961(2)
H6 H -0.2246 0.2808 0.7063
C19 C 0.29555(18) -0.04012(16) 0.97004(18)
C20 C -0.49550(18) 0.17493(19) 0.8375(2)
H7 H -0.4860 0.1298 0.8330
C21 C 0.36038(19) -0.0781(2) 0.9978(2)
H8 H 0.3655 -0.1097 1.0350
C22 C 0.1792(2) -0.00396(18) 0.97367(19)
H9 H 0.1427 -0.0061 0.9944
C23 C -0.1761(2) 0.4493(2) 0.6668(2)
H10 H -0.1622 0.4918 0.6572
C24 C 0.17230(19) 0.04142(17) 0.91665(19)
H11 H 0.1309 0.0685 0.8994
C25 C -0.39004(19) 0.3294(2) 0.9217(2)
H12 H -0.4091 0.3706 0.9345
H13 H -0.3589 0.3084 0.9676
C26 C -0.57913(18) 0.26527(18) 0.8168(2)
H14 H -0.6269 0.2817 0.7986
C27 C -0.5221(2) 0.30781(19) 0.8532(2)
H15 H -0.5314 0.3528 0.8583
C28 C 0.0421(2) 0.2984(2) 0.6526(2)
H16 H 0.0824 0.2939 0.6966
C29 C -0.36632(19) 0.39469(18) 0.8254(2)
H17 H -0.4072 0.4203 0.8221
C30 C -0.0674(2) 0.3550(2) 0.5828(2)
C31 C -0.1784(2) 0.3344(2) 0.6464(2)
H18 H -0.1673 0.2982 0.6218
C32 C -0.43937(19) 0.21743(19) 0.8739(2)
H19 H -0.3917 0.2009 0.8938
C33 C -0.0076(2) 0.3480(2) 0.6461(2)
H20 H -0.0006 0.3776 0.6856
C34 C 0.4156(2) -0.0693(2) 0.9710(3)
H21 H 0.4580 -0.0950 0.9895
C35 C -0.0251(2) 0.2650(2) 0.5298(2)
H22 H -0.0306 0.2377 0.4888
C36 C -0.0755(2) 0.3146(3) 0.5243(2)
H23 H -0.1153 0.3204 0.4801
C37 C 0.4087(2) -0.0219(2) 0.9163(2)
H24 H 0.4473 -0.0152 0.8992
C38 C -0.1245(3) 0.4074(3) 0.5775(3)
H25 H -0.1016 0.4512 0.5856
H26 H -0.1614 0.4068 0.5278
Zn1_2 Zn -0.778617(19) 0.133977(18) 0.687454(19)
Zn1E Zn 0.221383(19) -0.133977(18) 1.187454(19)
O4_2 O 0.30936(12) 0.18355(13) 0.73823(14)
O5E O 0.22111(14) 0.07093(12) 0.61071(13)
loop_
_geom_bond_atom_site_label_1
_geom_bond_atom_site_label_2
_geom_bond_site_symmetry_1
_geom_bond_site_symmetry_2
Zn1 O1 1_555 1_555
O1 C9 1_555 1_555
O2 C8 1_555 1_555
O3 Zn1 1_555 1_555
O4 C8 1_555 1_555
O5 C1 1_555 1_555
N1 C7 1_555 1_555
C1 O6 1_555 1_555
C2 C1 1_555 1_555
C3 C5 1_555 1_555
O7 C9 1_555 1_555
C4 C9 1_555 1_555
C5 C13 1_555 1_555
C6 C25 1_555 1_555
C7 H1 1_555 1_555
C8 C15 1_555 1_555
C10 C12 1_555 1_555
C11 C3 1_555 1_555
H2 C11 1_555 1_555
N2 C23 1_555 1_555
C12 O3 1_555 1_555
C13 H3 1_555 1_555
C14 C4 1_555 1_555
C15 C20 1_555 1_555
C16 C3 1_555 1_555
H4 C16 1_555 1_555
C17 C14 1_555 1_555
H5 C17 1_555 1_555
O8 C12 1_555 1_555
C18 C5 1_555 1_555
H6 C18 1_555 1_555
C19 C2 1_555 1_555
C20 H7 1_555 1_555
C21 C19 1_555 1_555
H8 C21 1_555 1_555
C22 C2 1_555 1_555
H9 C22 1_555 1_555
C23 C13 1_555 1_555
H10 C23 1_555 1_555
C24 C4 1_555 1_555
H11 C24 1_555 1_555
C25 N1 1_555 1_555
H12 C25 1_555 1_555
H13 C25 1_555 1_555
C26 C15 1_555 1_555
H14 C26 1_555 1_555
C27 C6 1_555 1_555
H15 C27 1_555 1_555
C28 C10 1_555 1_555
H16 C28 1_555 1_555
C29 N1 1_555 1_555
H17 C29 1_555 1_555
C30 C33 1_555 1_555
C31 N2 1_555 1_555
H18 C31 1_555 1_555
C32 C6 1_555 1_555
H19 C32 1_555 1_555
C33 C28 1_555 1_555
H20 C33 1_555 1_555
C34 C21 1_555 1_555
H21 C34 1_555 1_555
C35 C10 1_555 1_555
H22 C35 1_555 1_555
C36 C30 1_555 1_555
H23 C36 1_555 1_555
C37 C17 1_555 1_555
H24 C37 1_555 1_555
C38 N2 1_555 1_555
H25 C38 1_555 1_555
H26 C38 1_555 1_555
N3 C39 1_555 1_555
C39 O9 1_555 1_555
C40 N3 1_555 1_555
Zn1_2 O4 1_555 1_555
Zn1E O5 1_555 1_555
O4_2 Zn1 1_555 1_555
O5E Zn1 1_555 1_555
C39A N3 1_555 1_555
O9A C39A 1_555 1_555
C7 C16 1_555 1_555
C11 C29 1_555 1_555
C14 C19 1_555 1_555
C18 C31 1_555 1_555
C20 C32 1_555 1_555
C22 C24 1_555 1_555
C26 C27 1_555 1_555
C30 C38 1_555 1_555
C34 C37 1_555 1_555
C35 C36 1_555 1_555

#END
