
#######################################################################
#
#                 Cambridge Crystallographic Data Centre
#                                CCDC 
#
#######################################################################
#
# If this CIF has been generated from an entry in the Cambridge 
# Structural Database, then it will include bibliographic, chemical, 
# crystal, experimental, refinement or atomic coordinate data resulting 
# from the CCDC's data processing and validation procedures.
#
#######################################################################

data_YEKRUC
_symmetry_cell_setting           triclinic
_symmetry_space_group_name_H-M   'P -1'
_symmetry_Int_Tables_number      2
_space_group_name_Hall           '-P 1'
loop_
_symmetry_equiv_pos_site_id
_symmetry_equiv_pos_as_xyz
1 x,y,z
2 -x,-y,-z
_cell_length_a                   7.5003(9)
_cell_length_b                   9.7682(9)
_cell_length_c                   10.4550(9)
_cell_angle_alpha                67.415(5)
_cell_angle_beta                 70.174(5)
_cell_angle_gamma                86.450(5)
_cell_volume                     663.255
loop_
_atom_site_label
_atom_site_type_symbol
_atom_site_fract_x
_atom_site_fract_y
_atom_site_fract_z
C1 C -0.1357(3) -0.2338(3) 0.7915(2)
C2 C -0.2974(2) -0.3038(2) 0.93514(19)
C3 C -0.4731(3) -0.2419(2) 0.97288(19)
C4 C -0.5868(3) -0.4434(2) 1.1921(2)
H1 H -0.6871 -0.4918 1.2826
C5 C -0.4235(3) -0.5152(2) 1.1630(2)
H2 H -0.4117 -0.6112 1.2296
C6 C -0.2770(3) -0.4416(2) 1.0326(2)
H3 H -0.1607 -0.4866 1.0098
C7 C -0.7685(5) -0.0654(4) 0.9483(4)
H4 H -0.8155 0.0248 0.8908
H5 H -0.7811 -0.0630 1.0438
H6 H -0.8429 -0.1531 0.9640
C8 C -0.3091(2) -0.15659(19) 0.48082(18)
H7 H -0.3894 -0.1117 0.5434
C9 C -0.3916(2) -0.24420(18) 0.43485(19)
C10 C -0.2718(3) -0.3134(2) 0.3480(2)
H8 H -0.3236 -0.3749 0.3155
C11 C -0.0774(3) -0.2926(3) 0.3091(3)
H9 H 0.0059 -0.3417 0.2523
C12 C -0.0065(3) -0.1993(2) 0.3543(2)
H10 H 0.1274 -0.1813 0.3238
C13 C -0.6033(3) -0.2625(2) 0.4697(2)
H11 H -0.6282 -0.2440 0.3776
H12 H -0.6501 -0.3665 0.5376
N1 N -0.6135(2) -0.31043(19) 1.10158(17)
N2 N -0.1193(2) -0.13306(18) 0.43980(16)
O1 O -0.1567(2) -0.10755(17) 0.70622(14)
O2 O 0.0027(3) -0.3071(3) 0.7668(3)
O3 O -0.7048(2) -0.16683(17) 0.53390(18)
H13 H -0.8213 -0.1815 0.5511
S1 S -0.52268(9) -0.07438(7) 0.84979(6)
Cu1 Cu 0.0000 0.0000 0.5000
C1A C 0.1357(3) 0.2338(3) 0.2085(2)
C2A C 0.2974(2) 0.3038(2) 0.06486(19)
C3A C 0.4731(3) 0.2419(2) 0.02712(19)
C4A C 0.5868(3) 0.4434(2) -0.1921(2)
H1A H 0.6871 0.4918 -0.2826
C5A C 0.4235(3) 0.5152(2) -0.1630(2)
H2A H 0.4117 0.6112 -0.2296
C6A C 0.2770(3) 0.4416(2) -0.0326(2)
H3A H 0.1607 0.4866 -0.0098
C7A C 0.7685(5) 0.0654(4) 0.0517(4)
H4A H 0.8155 -0.0248 0.1092
H5A H 0.7811 0.0630 -0.0438
H6A H 0.8429 0.1531 0.0360
C8A C 0.3091(2) 0.15659(19) 0.51918(18)
H7A H 0.3894 0.1117 0.4566
C9A C 0.3916(2) 0.24420(18) 0.56515(19)
C10A C 0.2718(3) 0.3134(2) 0.6520(2)
H8A H 0.3236 0.3749 0.6845
C11A C 0.0774(3) 0.2926(3) 0.6909(3)
H9A H -0.0059 0.3417 0.7477
C12A C 0.0065(3) 0.1993(2) 0.6457(2)
H10A H -0.1274 0.1813 0.6762
C13A C 0.6033(3) 0.2625(2) 0.5303(2)
H11A H 0.6282 0.2440 0.6224
H12A H 0.6501 0.3665 0.4624
N1A N 0.6135(2) 0.31043(19) -0.10158(17)
N2A N 0.1193(2) 0.13306(18) 0.56020(16)
O1A O 0.1567(2) 0.10755(17) 0.29378(14)
O2A O -0.0027(3) 0.3071(3) 0.2332(3)
O3A O 0.7048(2) 0.16683(17) 0.46610(18)
O3_2 O 0.2952(2) -0.16683(17) 0.53390(18)
O3A_2 O -0.2952(2) 0.16683(17) 0.46610(18)
H13A H 0.8213 0.1815 0.4489
H13_2 H 0.1787 -0.1815 0.5511
H13A_2 H -0.1787 0.1815 0.4489
S1A S 0.52268(9) 0.07438(7) 0.15021(6)
Cu1_2 Cu -1.0000 0.0000 0.5000
Cu1_3 Cu 1.0000 0.0000 0.5000
loop_
_geom_bond_atom_site_label_1
_geom_bond_atom_site_label_2
_geom_bond_site_symmetry_1
_geom_bond_site_symmetry_2
C1 C2 1_555 1_555
C2 C3 1_555 1_555
C3 N1 1_555 1_555
C4 H1 1_555 1_555
C5 C4 1_555 1_555
H2 C5 1_555 1_555
C6 C2 1_555 1_555
H3 C6 1_555 1_555
C7 H4 1_555 1_555
H5 C7 1_555 1_555
H6 C7 1_555 1_555
C8 H7 1_555 1_555
C9 C8 1_555 1_555
C10 C9 1_555 1_555
H8 C10 1_555 1_555
C11 C10 1_555 1_555
H9 C11 1_555 1_555
C12 C11 1_555 1_555
H10 C12 1_555 1_555
C13 C9 1_555 1_555
H11 C13 1_555 1_555
H12 C13 1_555 1_555
N1 C4 1_555 1_555
N2 C8 1_555 1_555
O1 C1 1_555 1_555
O2 C1 1_555 1_555
O3 C13 1_555 1_555
H13 O3 1_555 1_555
S1 C3 1_555 1_555
Cu1 N2 1_555 1_555
C1A C2A 1_555 1_555
C2A C3A 1_555 1_555
C3A N1A 1_555 1_555
C4A H1A 1_555 1_555
C5A C4A 1_555 1_555
H2A C5A 1_555 1_555
C6A C2A 1_555 1_555
H3A C6A 1_555 1_555
C7A H4A 1_555 1_555
H5A C7A 1_555 1_555
H6A C7A 1_555 1_555
C8A H7A 1_555 1_555
C9A C8A 1_555 1_555
C10A C9A 1_555 1_555
H8A C10A 1_555 1_555
C11A C10A 1_555 1_555
H9A C11A 1_555 1_555
C12A C11A 1_555 1_555
H10A C12A 1_555 1_555
C13A C9A 1_555 1_555
H11A C13A 1_555 1_555
H12A C13A 1_555 1_555
N1A C4A 1_555 1_555
N2A Cu1 1_555 1_555
O1A Cu1 1_555 1_555
O2A C1A 1_555 1_555
O3A C13A 1_555 1_555
O3_2 Cu1 1_555 1_555
O3A_2 Cu1 1_555 1_555
H13A O3A 1_555 1_555
H13_2 O3_2 1_555 1_555
H13A_2 O3A_2 1_555 1_555
S1A C3A 1_555 1_555
Cu1_2 O3 1_555 1_555
Cu1_3 O3A 1_555 1_555
C5 C6 1_555 1_555
C7 S1 1_555 1_555
C12 N2 1_555 1_555
O1 Cu1 1_555 1_555
C1A O1A 1_555 1_555
C5A C6A 1_555 1_555
C7A S1A 1_555 1_555
C8A N2A 1_555 1_555
C12A N2A 1_555 1_555

#END
