
#######################################################################
#
#                 Cambridge Crystallographic Data Centre
#                                CCDC 
#
#######################################################################
#
# If this CIF has been generated from an entry in the Cambridge 
# Structural Database, then it will include bibliographic, chemical, 
# crystal, experimental, refinement or atomic coordinate data resulting 
# from the CCDC's data processing and validation procedures.
#
#######################################################################

data_YEKSEN
_symmetry_cell_setting           triclinic
_symmetry_space_group_name_H-M   'P -1'
_symmetry_Int_Tables_number      2
_space_group_name_Hall           '-P 1'
loop_
_symmetry_equiv_pos_site_id
_symmetry_equiv_pos_as_xyz
1 x,y,z
2 -x,-y,-z
_cell_length_a                   8.656(2)
_cell_length_b                   11.947(2)
_cell_length_c                   19.014(4)
_cell_angle_alpha                101.98(3)
_cell_angle_beta                 101.98(3)
_cell_angle_gamma                90.43(3)
_cell_volume                     1878.95
loop_
_atom_site_label
_atom_site_type_symbol
_atom_site_fract_x
_atom_site_fract_y
_atom_site_fract_z
Cu1 Cu 0.0000 0.5000 0.5000
Cu2 Cu 0.64161(8) 0.30374(6) 0.82560(4)
Cl1 Cl -0.2418(3) 0.13637(16) 0.51709(14)
Cl2 Cl 0.3978(3) 0.66656(16) 0.80658(12)
Cl3 Cl 0.9064(3) -0.05717(18) 0.85535(15)
O1 O -0.1870(4) 0.3913(3) 0.4605(2)
O2 O -0.3278(6) 0.4263(5) 0.5488(3)
O3 O 0.5030(5) 0.4152(3) 0.8685(2)
O4 O 0.2779(6) 0.3800(5) 0.7847(3)
O5 O 0.7847(5) 0.1944(4) 0.7852(3)
O6 O 0.9782(7) 0.2308(5) 0.8830(3)
O7 O 0.4687(5) 0.2573(4) 0.7104(2)
O8 O -0.0596(5) 0.5466(4) 0.6212(2)
O9 O 0.2225(7) 0.2468(6) 1.0012(3)
N1 N -0.4858(8) 0.0767(5) 0.4102(4)
N2 N 0.2597(7) 0.7349(5) 0.9164(4)
N3 N 1.0625(7) -0.1124(5) 0.7516(4)
N4 N 0.1351(5) 0.3675(4) 0.5193(2)
N5 N -0.2323(6) 0.4367(4) 0.8109(3)
N6 N 0.5336(6) 0.1778(4) 0.8575(3)
C1 C -0.4160(7) 0.2777(5) 0.4439(3)
C2 C -0.3984(8) 0.1660(5) 0.4496(4)
C3 C -0.6073(10) 0.0973(7) 0.3602(5)
H1 H -0.6737 0.0356 0.3318
C4 C -0.6409(10) 0.2049(9) 0.3480(5)
H2 H -0.7259 0.2153 0.3114
C5 C -0.5450(8) 0.2973(7) 0.3915(4)
H3 H -0.5665 0.3714 0.3858
C6 C -0.2996(7) 0.3736(5) 0.4900(3)
C7 C 0.2971(7) 0.5339(5) 0.8877(3)
C8 C 0.3088(7) 0.6442(5) 0.8767(4)
C9 C 0.1887(8) 0.7181(6) 0.9692(4)
H4 H 0.1524 0.7813 0.9975
C10 C 0.1659(9) 0.6127(7) 0.9841(4)
H5 H 0.1137 0.6045 1.0210
C11 C 0.2225(9) 0.5191(6) 0.9431(4)
H6 H 0.2106 0.4465 0.9526
C12 C 0.3623(7) 0.4333(5) 0.8414(3)
C13 C 1.0033(7) 0.0870(5) 0.7806(3)
C14 C 0.9995(8) -0.0250(5) 0.7886(4)
C15 C 1.1376(9) -0.0883(7) 0.7016(4)
H7 H 1.1819 -0.1480 0.6739
C16 C 1.1530(10) 0.0180(8) 0.6891(5)
H8 H 1.2071 0.0305 0.6538
C17 C 1.0873(9) 0.1084(6) 0.7296(4)
H9 H 1.0993 0.1825 0.7226
C18 C 0.9181(7) 0.1782(5) 0.8216(4)
C19 C 0.3530(7) 0.2907(5) 0.5911(3)
C20 C 0.2631(6) 0.3794(5) 0.5739(3)
H10 H 0.2934 0.4526 0.6021
C21 C 0.0946(7) 0.2634(5) 0.4772(3)
H11 H 0.0081 0.2539 0.4378
C22 C 0.1783(8) 0.1688(5) 0.4906(4)
H12 H 0.1478 0.0965 0.4609
C23 C 0.3073(8) 0.1834(5) 0.5486(4)
H13 H 0.3635 0.1205 0.5588
C24 C 0.4947(7) 0.3104(6) 0.6543(4)
H14 H 0.5867 0.2799 0.6369
H15 H 0.5158 0.3920 0.6738
C25 C -0.0725(7) 0.5113(5) 0.7403(3)
C26 C -0.1523(7) 0.4224(5) 0.7559(3)
H16 H -0.1511 0.3493 0.7273
C27 C -0.2278(7) 0.5432(5) 0.8535(3)
H17 H -0.2795 0.5545 0.8924
C28 C -0.1500(7) 0.6344(5) 0.8411(3)
H18 H -0.1496 0.7063 0.8715
C29 C -0.0732(8) 0.6212(5) 0.7847(3)
H19 H -0.0218 0.6837 0.7756
C30 C 0.0116(8) 0.4911(6) 0.6776(3)
H20 H 0.1211 0.5193 0.6958
H21 H 0.0104 0.4095 0.6577
C31 C 0.3852(8) 0.1158(6) 0.9375(4)
C32 C 0.4628(7) 0.1992(6) 0.9148(3)
H22 H 0.4659 0.2745 0.9408
C33 C 0.5284(8) 0.0709(5) 0.8194(4)
H23 H 0.5742 0.0550 0.7785
C34 C 0.4547(9) -0.0183(6) 0.8401(5)
H24 H 0.4561 -0.0934 0.8143
C35 C 0.3810(8) 0.0046(6) 0.8978(5)
H25 H 0.3284 -0.0540 0.9104
C36 C 0.3067(10) 0.1484(8) 1.0012(5)
H26 H 0.2351 0.0854 1.0010
H27 H 0.3868 0.1598 1.0464
H28 H 0.392(6) 0.277(7) 0.728(4)
H29 H -0.154(3) 0.526(6) 0.604(4)
H30 H 0.153(8) 0.224(7) 0.963(3)
Cu2A Cu -0.64161(8) 0.69626(6) 0.17440(4)
Cu2_2 Cu -0.35839(8) 0.30374(6) 0.82560(4)
Cu2A_2 Cu 0.35839(8) 0.69626(6) 0.17440(4)
Cl1A Cl 0.2418(3) 0.86363(16) 0.48291(14)
Cl2A Cl -0.3978(3) 0.33344(16) 0.19342(12)
Cl3A Cl -0.9064(3) 1.05717(18) 0.14465(15)
O1A O 0.1870(4) 0.6087(3) 0.5395(2)
O2A O 0.3278(6) 0.5737(5) 0.4512(3)
O3A O -0.5030(5) 0.5848(3) 0.1315(2)
O4A O -0.2779(6) 0.6200(5) 0.2153(3)
O5A O -0.7847(5) 0.8056(4) 0.2148(3)
O6A O -0.9782(7) 0.7692(5) 0.1170(3)
O7A O -0.4687(5) 0.7427(4) 0.2896(2)
O8A O 0.0596(5) 0.4534(4) 0.3788(2)
O9A O -0.2225(7) 0.7532(6) -0.0012(3)
N1A N 0.4858(8) 0.9233(5) 0.5898(4)
N2A N -0.2597(7) 0.2651(5) 0.0836(4)
N3A N -1.0625(7) 1.1124(5) 0.2484(4)
N4A N -0.1351(5) 0.6325(4) 0.4807(2)
N5A N 0.2323(6) 0.5633(4) 0.1891(3)
N5_2 N 0.7677(6) 0.4367(4) 0.8109(3)
N5A_2 N -0.7677(6) 0.5633(4) 0.1891(3)
N6A N -0.5336(6) 0.8222(4) 0.1425(3)
C1A C 0.4160(7) 0.7223(5) 0.5561(3)
C2A C 0.3984(8) 0.8340(5) 0.5504(4)
C3A C 0.6073(10) 0.9027(7) 0.6398(5)
H1A H 0.6737 0.9644 0.6682
C4A C 0.6409(10) 0.7951(9) 0.6520(5)
H2A H 0.7259 0.7847 0.6886
C5A C 0.5450(8) 0.7027(7) 0.6085(4)
H3A H 0.5665 0.6286 0.6142
C6A C 0.2996(7) 0.6264(5) 0.5100(3)
C7A C -0.2971(7) 0.4661(5) 0.1123(3)
C8A C -0.3088(7) 0.3558(5) 0.1233(4)
C9A C -0.1887(8) 0.2819(6) 0.0308(4)
H4A H -0.1524 0.2187 0.0025
C10A C -0.1659(9) 0.3873(7) 0.0159(4)
H5A H -0.1137 0.3955 -0.0210
C11A C -0.2225(9) 0.4809(6) 0.0569(4)
H6A H -0.2106 0.5535 0.0474
C12A C -0.3623(7) 0.5667(5) 0.1586(3)
C13A C -1.0033(7) 0.9130(5) 0.2194(3)
C14A C -0.9995(8) 1.0250(5) 0.2114(4)
C15A C -1.1376(9) 1.0883(7) 0.2984(4)
H7A H -1.1819 1.1480 0.3261
C16A C -1.1530(10) 0.9820(8) 0.3109(5)
H8A H -1.2071 0.9695 0.3462
C17A C -1.0873(9) 0.8916(6) 0.2704(4)
H9A H -1.0993 0.8175 0.2774
C18A C -0.9181(7) 0.8218(5) 0.1784(4)
C19A C -0.3530(7) 0.7093(5) 0.4089(3)
C20A C -0.2631(6) 0.6206(5) 0.4261(3)
H10A H -0.2934 0.5474 0.3979
C21A C -0.0946(7) 0.7366(5) 0.5228(3)
H11A H -0.0081 0.7461 0.5622
C22A C -0.1783(8) 0.8312(5) 0.5094(4)
H12A H -0.1478 0.9035 0.5391
C23A C -0.3073(8) 0.8166(5) 0.4514(4)
H13A H -0.3635 0.8795 0.4412
C24A C -0.4947(7) 0.6896(6) 0.3457(4)
H14A H -0.5867 0.7201 0.3631
H15A H -0.5158 0.6080 0.3262
C25A C 0.0725(7) 0.4887(5) 0.2597(3)
C26A C 0.1523(7) 0.5776(5) 0.2441(3)
H16A H 0.1511 0.6507 0.2727
C27A C 0.2278(7) 0.4568(5) 0.1465(3)
H17A H 0.2795 0.4455 0.1076
C28A C 0.1500(7) 0.3656(5) 0.1589(3)
H18A H 0.1496 0.2937 0.1285
C29A C 0.0732(8) 0.3788(5) 0.2153(3)
H19A H 0.0218 0.3163 0.2244
C30A C -0.0116(8) 0.5089(6) 0.3224(3)
H20A H -0.1211 0.4807 0.3042
H21A H -0.0104 0.5905 0.3423
C31A C -0.3852(8) 0.8842(6) 0.0625(4)
C32A C -0.4628(7) 0.8008(6) 0.0852(3)
H22A H -0.4659 0.7255 0.0592
C33A C -0.5284(8) 0.9291(5) 0.1806(4)
H23A H -0.5742 0.9450 0.2215
C34A C -0.4547(9) 1.0183(6) 0.1599(5)
H24A H -0.4561 1.0934 0.1857
C35A C -0.3810(8) 0.9954(6) 0.1022(5)
H25A H -0.3284 1.0540 0.0896
C36A C -0.3067(10) 0.8516(8) -0.0012(5)
H26A H -0.2351 0.9146 -0.0010
H27A H -0.3868 0.8402 -0.0464
H28A H -0.392(6) 0.723(7) 0.272(4)
H29A H 0.154(3) 0.474(6) 0.396(4)
H30A H -0.153(8) 0.776(7) 0.037(3)
loop_
_geom_bond_atom_site_label_1
_geom_bond_atom_site_label_2
_geom_bond_site_symmetry_1
_geom_bond_site_symmetry_2
Cu1 O1 1_555 1_555
Cu2 O3 1_555 1_555
Cl1 C2 1_555 1_555
Cl2 C8 1_555 1_555
Cl3 C14 1_555 1_555
O1 C6 1_555 1_555
O2 C6 1_555 1_555
O3 C12 1_555 1_555
O4 C12 1_555 1_555
O5 Cu2 1_555 1_555
O6 C18 1_555 1_555
O7 Cu2 1_555 1_555
O8 Cu1 1_555 1_555
O9 C36 1_555 1_555
N1 C2 1_555 1_555
N2 C8 1_555 1_555
N3 C14 1_555 1_555
N4 Cu1 1_555 1_555
N5 C26 1_555 1_555
N6 Cu2 1_555 1_555
C1 C2 1_555 1_555
C3 N1 1_555 1_555
H1 C3 1_555 1_555
C4 C3 1_555 1_555
H2 C4 1_555 1_555
C5 C1 1_555 1_555
H3 C5 1_555 1_555
C6 C1 1_555 1_555
C7 C8 1_555 1_555
C9 N2 1_555 1_555
H4 C9 1_555 1_555
C10 C9 1_555 1_555
H5 C10 1_555 1_555
C11 C7 1_555 1_555
H6 C11 1_555 1_555
C12 C7 1_555 1_555
C13 C14 1_555 1_555
C15 N3 1_555 1_555
H7 C15 1_555 1_555
C16 C15 1_555 1_555
H8 C16 1_555 1_555
C17 C13 1_555 1_555
H9 C17 1_555 1_555
C18 O5 1_555 1_555
C19 C20 1_555 1_555
C20 N4 1_555 1_555
H10 C20 1_555 1_555
C21 N4 1_555 1_555
H11 C21 1_555 1_555
C22 C21 1_555 1_555
H12 C22 1_555 1_555
C23 C19 1_555 1_555
H13 C23 1_555 1_555
C24 O7 1_555 1_555
H14 C24 1_555 1_555
H15 C24 1_555 1_555
C25 C26 1_555 1_555
C26 H16 1_555 1_555
C27 N5 1_555 1_555
H17 C27 1_555 1_555
C28 C27 1_555 1_555
H18 C28 1_555 1_555
C29 C25 1_555 1_555
H19 C29 1_555 1_555
C30 O8 1_555 1_555
H20 C30 1_555 1_555
H21 C30 1_555 1_555
C31 C32 1_555 1_555
C32 N6 1_555 1_555
H22 C32 1_555 1_555
C33 N6 1_555 1_555
H23 C33 1_555 1_555
C34 C33 1_555 1_555
H24 C34 1_555 1_555
C35 C31 1_555 1_555
H25 C35 1_555 1_555
C36 C31 1_555 1_555
H26 C36 1_555 1_555
H27 C36 1_555 1_555
H28 O7 1_555 1_555
H29 O8 1_555 1_555
H30 O9 1_555 1_555
Cu2A O3A 1_555 1_555
Cu2_2 N5 1_555 1_555
Cu2A_2 N5A 1_555 1_555
Cl1A C2A 1_555 1_555
Cl2A C8A 1_555 1_555
Cl3A C14A 1_555 1_555
O1A Cu1 1_555 1_555
O2A C6A 1_555 1_555
O3A C12A 1_555 1_555
O4A C12A 1_555 1_555
O5A Cu2A 1_555 1_555
O6A C18A 1_555 1_555
O7A Cu2A 1_555 1_555
O8A Cu1 1_555 1_555
O9A C36A 1_555 1_555
N1A C2A 1_555 1_555
N2A C8A 1_555 1_555
N3A C14A 1_555 1_555
N4A Cu1 1_555 1_555
N5A C26A 1_555 1_555
N5_2 Cu2 1_555 1_555
N5A_2 Cu2A 1_555 1_555
N6A Cu2A 1_555 1_555
C1A C2A 1_555 1_555
C3A N1A 1_555 1_555
H1A C3A 1_555 1_555
C4A C3A 1_555 1_555
H2A C4A 1_555 1_555
C5A C1A 1_555 1_555
H3A C5A 1_555 1_555
C6A O1A 1_555 1_555
C7A C8A 1_555 1_555
C9A N2A 1_555 1_555
H4A C9A 1_555 1_555
C10A C9A 1_555 1_555
H5A C10A 1_555 1_555
C11A C7A 1_555 1_555
H6A C11A 1_555 1_555
C12A C7A 1_555 1_555
C13A C14A 1_555 1_555
C15A N3A 1_555 1_555
H7A C15A 1_555 1_555
C16A C15A 1_555 1_555
H8A C16A 1_555 1_555
C17A C13A 1_555 1_555
H9A C17A 1_555 1_555
C18A O5A 1_555 1_555
C19A C20A 1_555 1_555
C20A N4A 1_555 1_555
H10A C20A 1_555 1_555
C21A N4A 1_555 1_555
H11A C21A 1_555 1_555
C22A C21A 1_555 1_555
H12A C22A 1_555 1_555
C23A C19A 1_555 1_555
H13A C23A 1_555 1_555
C24A O7A 1_555 1_555
H14A C24A 1_555 1_555
H15A C24A 1_555 1_555
C25A C26A 1_555 1_555
C26A H16A 1_555 1_555
C27A N5A 1_555 1_555
H17A C27A 1_555 1_555
C28A C27A 1_555 1_555
H18A C28A 1_555 1_555
C29A C25A 1_555 1_555
H19A C29A 1_555 1_555
C30A O8A 1_555 1_555
H20A C30A 1_555 1_555
H21A C30A 1_555 1_555
C31A C32A 1_555 1_555
C32A N6A 1_555 1_555
H22A C32A 1_555 1_555
C33A N6A 1_555 1_555
H23A C33A 1_555 1_555
C34A C33A 1_555 1_555
H24A C34A 1_555 1_555
C35A C31A 1_555 1_555
H25A C35A 1_555 1_555
C36A C31A 1_555 1_555
H26A C36A 1_555 1_555
H27A C36A 1_555 1_555
H28A O7A 1_555 1_555
H29A O8A 1_555 1_555
H30A O9A 1_555 1_555
C4 C5 1_555 1_555
C10 C11 1_555 1_555
C13 C18 1_555 1_555
C16 C17 1_555 1_555
C19 C24 1_555 1_555
C22 C23 1_555 1_555
C25 C30 1_555 1_555
C28 C29 1_555 1_555
C34 C35 1_555 1_555
C1A C6A 1_555 1_555
C4A C5A 1_555 1_555
C10A C11A 1_555 1_555
C13A C18A 1_555 1_555
C16A C17A 1_555 1_555
C19A C24A 1_555 1_555
C22A C23A 1_555 1_555
C25A C30A 1_555 1_555
C28A C29A 1_555 1_555
C34A C35A 1_555 1_555

#END
