
#######################################################################
#
#                 Cambridge Crystallographic Data Centre
#                                CCDC 
#
#######################################################################
#
# If this CIF has been generated from an entry in the Cambridge 
# Structural Database, then it will include bibliographic, chemical, 
# crystal, experimental, refinement or atomic coordinate data resulting 
# from the CCDC's data processing and validation procedures.
#
#######################################################################

data_YEKTEN
_symmetry_cell_setting           monoclinic
_symmetry_space_group_name_H-M   'C 2/c'
_symmetry_Int_Tables_number      15
_space_group_name_Hall           '-C 2yn'
loop_
_symmetry_equiv_pos_site_id
_symmetry_equiv_pos_as_xyz
1 x,y,z
2 1/2+x,1/2+y,z
3 -x,y,1/2-z
4 1/2-x,1/2+y,1/2-z
5 -x,-y,-z
6 1/2-x,1/2-y,-z
7 x,-y,1/2+z
8 1/2+x,1/2-y,1/2+z
_cell_length_a                   16.835(2)
_cell_length_b                   14.218(2)
_cell_length_c                   18.680(2)
_cell_angle_alpha                90
_cell_angle_beta                 113.35(1)
_cell_angle_gamma                90
_cell_volume                     4105.05
loop_
_atom_site_label
_atom_site_type_symbol
_atom_site_fract_x
_atom_site_fract_y
_atom_site_fract_z
C15 C -0.5000 0.5000 0.0000
C16 C -0.5374(25) 0.4334(28) 0.0311(22)
N3 N -0.5698(20) 0.3754(23) 0.0530(18)
C16D C -0.4626(25) 0.5666(28) -0.0311(22)
N3D N -0.4302(20) 0.6246(23) -0.0530(18)
Rh1 Rh -0.2244(1) 0.3777(1) 0.1565(1)
Rh2 Rh -0.2128(1) 0.2562(1) 0.2500(1)
O1 O -0.3033(6) 0.4480(6) 0.1976(5)
C1 C -0.3263(8) 0.4100(8) 0.2476(7)
O2 O -0.2964(5) 0.3324(6) 0.2811(5)
C2 C -0.3908(9) 0.4592(10) 0.2682(8)
O3 O -0.1167(6) 0.4370(6) 0.2389(5)
C3 C -0.0841(9) 0.4044(9) 0.3074(8)
O4 O -0.1113(5) 0.3295(6) 0.3294(5)
C4 C -0.0108(9) 0.4565(10) 0.3663(8)
O5 O -0.1314(5) 0.1878(6) 0.2123(5)
C5 C -0.1164(8) 0.2201(8) 0.1559(7)
O6 O -0.1473(5) 0.2959(6) 0.1199(5)
C6 C -0.0579(9) 0.1658(10) 0.1260(8)
O7 O -0.3153(5) 0.1917(6) 0.1657(5)
C7 C -0.3542(8) 0.2325(9) 0.1011(8)
O8 O -0.3311(6) 0.3108(6) 0.0804(5)
C8 C -0.4347(10) 0.1880(11) 0.0420(9)
N1 N -0.2290(7) 0.4890(8) 0.0693(6)
C9 C -0.2320(8) 0.4542(10) 0.0010(8)
C10 C -0.2138(9) 0.5043(10) -0.0539(8)
C11 C -0.1904(9) 0.5984(10) -0.0386(8)
C12 C -0.1886(9) 0.6364(10) 0.0307(8)
C13 C -0.2085(8) 0.5835(9) 0.0826(7)
N2 N -0.2952(7) 0.6476(7) 0.1553(6)
C14 C -0.2078(8) 0.6277(8) 0.1555(7)
H1 H -0.378 0.525 0.273
H2 H -0.447 0.449 0.229
H3 H -0.389 0.435 0.316
H4 H 0.041 0.423 0.377
H5 H -0.007 0.517 0.347
H6 H -0.020 0.463 0.413
H7 H -0.059 0.101 0.138
H8 H -0.078 0.174 0.071
H9 H 0.000 0.189 0.151
H10 H -0.484 0.222 0.040
H11 H -0.432 0.188 -0.008
H12 H -0.439 0.125 0.057
H13 H -0.248 0.390 -0.010
H14 H -0.217 0.475 -0.101
H15 H -0.176 0.635 -0.074
H16 H -0.173 0.701 0.042
H17 H -0.177 0.685 0.163
H18 H -0.178 0.587 0.198
N2C N -0.2048(7) 0.1476(7) 0.3447(6)
Rh2C Rh -0.2872(1) 0.7562(1) 0.2500(1)
loop_
_geom_bond_atom_site_label_1
_geom_bond_atom_site_label_2
_geom_bond_site_symmetry_1
_geom_bond_site_symmetry_2
Rh1 Rh2 1_555 1_555
Rh2 O2 1_555 1_555
O1 Rh1 1_555 1_555
C1 O1 1_555 1_555
O2 C1 1_555 1_555
C2 C1 1_555 1_555
O3 Rh1 1_555 1_555
C3 O3 1_555 1_555
O4 Rh2 1_555 1_555
C4 C3 1_555 1_555
O5 Rh2 1_555 1_555
C5 O5 1_555 1_555
O6 Rh1 1_555 1_555
C6 C5 1_555 1_555
O7 Rh2 1_555 1_555
C7 O7 1_555 1_555
O8 Rh1 1_555 1_555
C8 C7 1_555 1_555
N1 Rh1 1_555 1_555
C9 N1 1_555 1_555
C10 C9 1_555 1_555
C11 C10 1_555 1_555
C12 C11 1_555 1_555
C13 N1 1_555 1_555
N2 C14 1_555 1_555
C14 C13 1_555 1_555
C15 C16 1_555 1_555
C16 N3 1_555 1_555
H1 C2 1_555 1_555
H2 C2 1_555 1_555
H3 C2 1_555 1_555
H4 C4 1_555 1_555
H5 C4 1_555 1_555
H6 C4 1_555 1_555
H7 C6 1_555 1_555
H8 C6 1_555 1_555
H9 C6 1_555 1_555
H10 C8 1_555 1_555
H11 C8 1_555 1_555
H12 C8 1_555 1_555
H13 C9 1_555 1_555
H14 C10 1_555 1_555
H15 C11 1_555 1_555
H16 C12 1_555 1_555
H17 C14 1_555 1_555
H18 C14 1_555 1_555
N2C Rh2 1_555 1_555
Rh2C N2 1_555 1_555
C16D C15 1_555 1_555
N3D C16D 1_555 1_555
C3 O4 1_555 1_555
C5 O6 1_555 1_555
C7 O8 1_555 1_555
C12 C13 1_555 1_555

#END
