
#######################################################################
#
#                 Cambridge Crystallographic Data Centre
#                                CCDC 
#
#######################################################################
#
# If this CIF has been generated from an entry in the Cambridge 
# Structural Database, then it will include bibliographic, chemical, 
# crystal, experimental, refinement or atomic coordinate data resulting 
# from the CCDC's data processing and validation procedures.
#
#######################################################################

data_YEKWAM
_symmetry_cell_setting           monoclinic
_symmetry_space_group_name_H-M   'P 21/c'
_symmetry_Int_Tables_number      14
_space_group_name_Hall           '-P 2ybc'
loop_
_symmetry_equiv_pos_site_id
_symmetry_equiv_pos_as_xyz
1 x,y,z
2 -x,1/2+y,1/2-z
3 -x,-y,-z
4 x,1/2-y,1/2+z
_cell_length_a                   9.451(1)
_cell_length_b                   14.340(2)
_cell_length_c                   21.952(1)
_cell_angle_alpha                90
_cell_angle_beta                 94.90(1)
_cell_angle_gamma                90
_cell_volume                     2964.22
loop_
_atom_site_label
_atom_site_type_symbol
_atom_site_fract_x
_atom_site_fract_y
_atom_site_fract_z
Ni1 Ni 0.0574(1) 0.1450 0.2364
O1 O -0.1468(3) 0.1784(2) 0.2624(2)
O2 O 0.1349(3) 0.1942(2) 0.3183(1)
N1 N 0.0429(3) 0.0110(2) 0.2758(1)
O3 O -0.0878(3) -0.2156(2) 0.2929(1)
N2 N -0.0075(4) -0.1442(2) 0.2934(2)
C1 C 0.1560(4) 0.1486(3) 0.3677(2)
C2 C 0.2096(7) 0.2084(4) 0.4223(2)
F1 F 0.2415(6) 0.1647(3) 0.4731(1)
F2 F 0.3200(6) 0.2570(4) 0.4121(2)
F3 F 0.1185(6) 0.2709(4) 0.4351(2)
C3 C 0.1396(6) 0.0561(3) 0.3776(2)
H1 H 0.160(5) 0.031(3) 0.414(2)
C4 C 0.0834(4) -0.0082(3) 0.3325(2)
C5 C 0.0696(5) -0.1094(3) 0.3498(2)
C6 C 0.2160(6) -0.1565(4) 0.3587(3)
C7 C -0.0182(7) -0.1262(4) 0.4040(2)
C8 C -0.0182(4) -0.0728(3) 0.2435(2)
C9 C 0.0712(5) -0.1023(3) 0.1922(2)
C10 C -0.1737(5) -0.0595(3) 0.2218(2)
O4 O -0.0530(2) 0.1194(2) 0.1563(1)
N3 N 0.2481(3) 0.1260(2) 0.1950(1)
O5 O 0.6164(3) 0.1263(3) 0.1800(1)
N4 N 0.4820(3) 0.1214(2) 0.1743(1)
C11 C -0.0023(4) 0.1080(3) 0.1050(2)
C12 C -0.1174(4) 0.0946(3) 0.0524(2)
F4 F -0.0693(2) 0.0928(2) -0.0028(1)
F5 F -0.2144(3) 0.1616(2) 0.0509(1)
F6 F -0.1863(3) 0.0147(2) 0.0579(1)
C13 C 0.1350(4) 0.1051(3) 0.0920(2)
H2 H 0.153(5) 0.099(3) 0.051(2)
C14 C 0.2525(4) 0.1134(3) 0.1369(2)
C15 C 0.4006(4) 0.1067(3) 0.1156(2)
C16 C 0.4327(6) 0.0108(5) 0.0907(3)
C17 C 0.4324(6) 0.1855(6) 0.0719(3)
C18 C 0.3932(4) 0.1337(3) 0.2261(2)
C19 C 0.4216(5) 0.2296(4) 0.2532(2)
C20 C 0.4245(5) 0.0554(4) 0.2717(2)
H3 H -0.173(5) 0.153(4) 0.296(3)
H4 H -0.205(6) 0.166(4) 0.241(2)
H5 H 0.269(7) -0.136(5) 0.394(3)
H6 H 0.275(5) -0.145(3) 0.325(2)
H7 H 0.203(6) -0.221(5) 0.361(3)
H8 H 0.027(6) -0.104(4) 0.441(3)
H9 H -0.038(5) -0.198(3) 0.410(2)
H10 H -0.113(6) -0.093(4) 0.399(2)
H11 H 0.035(5) -0.158(4) 0.174(2)
H12 H 0.175(6) -0.110(4) 0.205(2)
H13 H 0.077(5) -0.057(4) 0.161(2)
H14 H -0.185(5) -0.015(4) 0.190(2)
H15 H -0.231(5) -0.044(4) 0.256(2)
H16 H -0.206(6) -0.113(4) 0.204(2)
H17 H 0.372(7) -0.002(5) 0.048(3)
H18 H 0.404(5) -0.042(4) 0.120(2)
H19 H 0.521(6) 0.007(3) 0.085(2)
H20 H 0.374(7) 0.173(5) 0.032(3)
H21 H 0.527(5) 0.193(3) 0.065(2)
H22 H 0.393(6) 0.246(4) 0.091(3)
H23 H 0.374(5) 0.242(4) 0.286(2)
H24 H 0.395(5) 0.279(4) 0.220(2)
H25 H 0.528(6) 0.236(4) 0.274(2)
H26 H 0.374(5) 0.061(4) 0.303(2)
H27 H 0.535(6) 0.060(4) 0.289(3)
H28 H 0.406(5) -0.005(4) 0.251(2)
O3A O 0.0878(3) 0.2844(2) 0.2071(1)
Ni1A Ni -0.0574(1) -0.3550 0.2636
O6 O 0.2421(4) -0.0865(4) -0.3654(2)
C21 C 0.2920(7) -0.1230(7) -0.4076(3)
C22 C 0.366(2) -0.053(1) -0.4513(6)
C23 C 0.294(2) -0.227(1) -0.4141(6)
H29 H 0.38(2) -0.10(1) -0.473(7)
H32 H 0.29(2) -0.22(2) -0.465(9)
H33 H 0.19(1) -0.244(9) -0.423(6)
H30? H 0.41(2) -0.05(1) -0.440(7)
H31? H 0.24(2) -0.02(1) -0.480(7)
H34? H 0.16(5) -0.22(3) -0.46(2)
loop_
_geom_bond_atom_site_label_1
_geom_bond_atom_site_label_2
_geom_bond_site_symmetry_1
_geom_bond_site_symmetry_2
Ni1 O1 1_555 1_555
O1 H3 1_555 1_555
O2 Ni1 1_555 1_555
N1 Ni1 1_555 1_555
O3 N2 1_555 1_555
N2 C5 1_555 1_555
C1 O2 1_555 1_555
C2 C1 1_555 1_555
F1 C2 1_555 1_555
F2 C2 1_555 1_555
F3 C2 1_555 1_555
C3 C1 1_555 1_555
H1 C3 1_555 1_555
C4 N1 1_555 1_555
C5 C4 1_555 1_555
C6 C5 1_555 1_555
C7 C5 1_555 1_555
C8 N1 1_555 1_555
C9 C8 1_555 1_555
C10 C8 1_555 1_555
O4 Ni1 1_555 1_555
N3 Ni1 1_555 1_555
O5 N4 1_555 1_555
N4 C15 1_555 1_555
C11 O4 1_555 1_555
C12 C11 1_555 1_555
F4 C12 1_555 1_555
F5 C12 1_555 1_555
F6 C12 1_555 1_555
C13 C11 1_555 1_555
H2 C13 1_555 1_555
C14 N3 1_555 1_555
C15 C14 1_555 1_555
C16 C15 1_555 1_555
C17 C15 1_555 1_555
C18 N3 1_555 1_555
C19 C18 1_555 1_555
C20 C18 1_555 1_555
O6 C21 1_555 1_555
C21 C22 1_555 1_555
C22 H29 1_555 1_555
C23 C21 1_555 1_555
H4 O1 1_555 1_555
H5 C6 1_555 1_555
H6 C6 1_555 1_555
H7 C6 1_555 1_555
H8 C7 1_555 1_555
H9 C7 1_555 1_555
H10 C7 1_555 1_555
H11 C9 1_555 1_555
H12 C9 1_555 1_555
H13 C9 1_555 1_555
H14 C10 1_555 1_555
H15 C10 1_555 1_555
H16 C10 1_555 1_555
H17 C16 1_555 1_555
H18 C16 1_555 1_555
H19 C16 1_555 1_555
H20 C17 1_555 1_555
H21 C17 1_555 1_555
H22 C17 1_555 1_555
H23 C19 1_555 1_555
H24 C19 1_555 1_555
H25 C19 1_555 1_555
H26 C20 1_555 1_555
H27 C20 1_555 1_555
H28 C20 1_555 1_555
H32 C23 1_555 1_555
H33 C23 1_555 1_555
O3A Ni1 1_555 1_555
Ni1A O3 1_555 1_555
N2 C8 1_555 1_555
C3 C4 1_555 1_555
N4 C18 1_555 1_555
C13 C14 1_555 1_555

#END
