
#######################################################################
#
#                 Cambridge Crystallographic Data Centre
#                                CCDC 
#
#######################################################################
#
# If this CIF has been generated from an entry in the Cambridge 
# Structural Database, then it will include bibliographic, chemical, 
# crystal, experimental, refinement or atomic coordinate data resulting 
# from the CCDC's data processing and validation procedures.
#
#######################################################################

data_YELNUY
_symmetry_cell_setting           monoclinic
_symmetry_space_group_name_H-M   'P 21'
_symmetry_Int_Tables_number      4
_space_group_name_Hall           'P 2yb'
loop_
_symmetry_equiv_pos_site_id
_symmetry_equiv_pos_as_xyz
1 x,y,z
2 -x,1/2+y,-z
_cell_length_a                   6.031(2)
_cell_length_b                   8.4532(8)
_cell_length_c                   7.249(2)
_cell_angle_alpha                90
_cell_angle_beta                 110.10(2)
_cell_angle_gamma                90
_cell_volume                     347.055
loop_
_atom_site_label
_atom_site_type_symbol
_atom_site_fract_x
_atom_site_fract_y
_atom_site_fract_z
Ag1 Ag -0.21177(4) -0.2500 -0.32463(3)
O1 O -0.0251(6) -0.5008(4) -0.2806(4)
O2 O -0.2284(6) -0.0246(4) -0.1054(5)
O3 O -0.6753(6) 0.1427(6) -0.3060(5)
O4 O -0.2252(6) -0.0002(5) -0.4712(5)
O5 O -0.2980(5) 0.2562(8) -0.4849(4)
O6 O -0.2995(5) 0.2794(5) 0.1648(4)
O7 O -0.6258(5) 0.1317(5) 0.0752(4)
C1 C -0.2583(6) 0.1251(5) -0.3974(5)
C2 C -0.2478(8) 0.1296(6) -0.1821(5)
C3 C -0.4713(8) 0.2119(5) -0.1734(6)
C4 C -0.4739(7) 0.2034(5) 0.0382(6)
H1 H -0.141(10) -0.569(7) -0.337(7)
H2 H 0.052(8) -0.493(7) -0.332(7)
H3 H -0.437(10) 0.324(7) -0.199(8)
H4 H -0.154(9) -0.033(9) 0.007(9)
H5 H -0.718(8) 0.081(7) -0.243(8)
H6 H -0.314(10) 0.275(12) 0.294(9)
H7 H -0.105(11) 0.191(9) -0.094(10)
O5A O -0.7020(5) -0.2438(8) -0.5151(4)
Ag1A Ag -0.78823(4) 0.2500 -0.67537(3)
O3A O -0.3247(6) -0.3573(6) -0.6940(5)
H5A H -0.282(8) -0.419(7) -0.757(8)
O7A O -0.3742(5) -0.3683(5) -0.0752(4)
Ag1A_2 Ag -0.78823(4) 0.2500 0.32463(3)
loop_
_geom_bond_atom_site_label_1
_geom_bond_atom_site_label_2
_geom_bond_site_symmetry_1
_geom_bond_site_symmetry_2
Ag1 O1 1_555 1_555
O1 H1 1_555 1_555
O2 Ag1 1_555 1_555
O3 C3 1_555 1_555
O4 Ag1 1_555 1_555
O5 C1 1_555 1_555
O6 C4 1_555 1_555
O7 C4 1_555 1_555
C1 O4 1_555 1_555
C2 O2 1_555 1_555
C3 C2 1_555 1_555
C4 C3 1_555 1_555
H2 O1 1_555 1_555
H3 C3 1_555 1_555
H4 O2 1_555 1_555
H5 O3 1_555 1_555
H6 O6 1_555 1_555
H7 C2 1_555 1_555
O5A Ag1 1_555 1_555
Ag1A O3 1_555 1_555
O3A Ag1 1_555 1_555
H5A O3A 1_555 1_555
O7A Ag1 1_555 1_555
Ag1A_2 O7 1_555 1_555
O5 Ag1A 1_555 1_555
C1 C2 1_555 1_555

#END
