
#######################################################################
#
#                 Cambridge Crystallographic Data Centre
#                                CCDC 
#
#######################################################################
#
# If this CIF has been generated from an entry in the Cambridge 
# Structural Database, then it will include bibliographic, chemical, 
# crystal, experimental, refinement or atomic coordinate data resulting 
# from the CCDC's data processing and validation procedures.
#
#######################################################################

data_YELVUH
_symmetry_cell_setting           monoclinic
_symmetry_space_group_name_H-M   'P 21/c'
_symmetry_Int_Tables_number      14
_space_group_name_Hall           '-P 2ybc'
loop_
_symmetry_equiv_pos_site_id
_symmetry_equiv_pos_as_xyz
1 x,y,z
2 -x,1/2+y,1/2-z
3 -x,-y,-z
4 x,1/2-y,1/2+z
_cell_length_a                   8.5786(12)
_cell_length_b                   10.4460(13)
_cell_length_c                   24.323(4)
_cell_angle_alpha                90
_cell_angle_beta                 98.270(8)
_cell_angle_gamma                90
_cell_volume                     2156.97
loop_
_atom_site_label
_atom_site_type_symbol
_atom_site_fract_x
_atom_site_fract_y
_atom_site_fract_z
Cd1 Cd 0.76033(4) 0.36712(3) 0.071114(15)
O1 O 0.4976(5) 0.4339(5) 0.08256(18)
N1 N 0.6674(6) 0.2152(4) 0.00075(18)
C1 C 0.5597(8) 0.2392(6) -0.0425(2)
H1 H 0.5163 0.3228 -0.0468
O2 O 0.6172(5) 0.3044(5) 0.1450(2)
N2 N 0.8841(6) 0.1663(5) 0.0920(2)
C2 C 0.5071(10) 0.1457(8) -0.0825(3)
H2 H 0.4301 0.1665 -0.1133
O3 O 0.0398(5) 0.4314(4) 0.06173(16)
C3 C 0.5675(10) 0.0245(8) -0.0767(3)
H3 H 0.5330 -0.0399 -0.1033
O4 O -0.0708(5) 0.4880(5) 0.13395(18)
C4 C 0.6809(8) -0.0030(6) -0.0309(3)
C5 C 0.7529(12) -0.1285(7) -0.0213(4)
H4 H 0.7222 -0.1956 -0.0469
C6 C 0.8617(11) -0.1518(6) 0.0229(5)
H5 H 0.9088 -0.2342 0.0274
O5 O 0.7358(5) 0.5281(4) 0.00531(16)
C7 C 0.9082(8) -0.0548(6) 0.0636(3)
C8 C 1.0167(11) -0.0744(8) 0.1115(5)
H6 H 1.0619 -0.1567 0.1190
C9 C 1.0583(9) 0.0242(8) 0.1479(4)
H7 H 1.1338 0.0116 0.1800
C10 C 0.9881(8) 0.1424(6) 0.1368(3)
H8 H 1.0156 0.2099 0.1625
C11 C 0.7286(7) 0.0964(5) 0.0071(2)
C12 C 0.8429(7) 0.0703(5) 0.0556(3)
C13 C 0.3001(6) 0.4990(5) 0.1775(2)
C14 C 0.4381(7) 0.5866(6) 0.2015(3)
H9 H 0.4025 0.6764 0.2033
H10 H 0.5239 0.5827 0.1784
C15 C 0.4942(9) 0.5341(8) 0.2603(3)
H11 H 0.5794 0.4704 0.2595
H12 H 0.5337 0.6042 0.2859
C16 C 0.3485(9) 0.4713(9) 0.2785(3)
H13 H 0.3716 0.3814 0.2897
H14 H 0.3166 0.5180 0.3106
C17 C 0.2170(7) 0.4765(6) 0.2290(2)
H15 H 0.1431 0.5474 0.2335
H16 H 0.1574 0.3951 0.2255
C18 C 0.3601(7) 0.3679(5) 0.1585(2)
H17 H 0.3884 0.3140 0.1919
H18 H 0.2713 0.3252 0.1350
C19 C 0.4993(7) 0.3694(5) 0.1267(2)
C20 C 0.1905(7) 0.5667(5) 0.1304(2)
H19 H 0.1575 0.6498 0.1446
H20 H 0.2516 0.5852 0.0997
C21 C 0.0445(7) 0.4924(5) 0.1071(2)
H21 H 0.8297 0.5308 -0.0138
H22 H 0.6667 0.5311 -0.0165
Cd1_2 Cd -0.23967(4) 0.36712(3) 0.071114(15)
O3_2 O 1.0398(5) 0.4314(4) 0.06173(16)
O4_2 O 0.9292(5) 0.4880(5) 0.13395(18)
O6 O 0.1433(12) 0.1820(12) 0.2883(6)
H23 H 0.1316 0.1237 0.2801
H24 H 0.1417 0.2078 0.3227
O7 O 0.8487(8) 0.3268(7) 0.2406(3)
H25 H 0.8755 0.4068 0.2367
H26 H 0.7698 0.3115 0.2078
loop_
_geom_bond_atom_site_label_1
_geom_bond_atom_site_label_2
_geom_bond_site_symmetry_1
_geom_bond_site_symmetry_2
Cd1 O1 1_555 1_555
O1 C19 1_555 1_555
N1 Cd1 1_555 1_555
C1 N1 1_555 1_555
H1 C1 1_555 1_555
O2 Cd1 1_555 1_555
N2 Cd1 1_555 1_555
C2 C1 1_555 1_555
H2 C2 1_555 1_555
O3 C21 1_555 1_555
C3 C2 1_555 1_555
H3 C3 1_555 1_555
O4 C21 1_555 1_555
C4 C3 1_555 1_555
C5 C4 1_555 1_555
H4 C5 1_555 1_555
C6 C5 1_555 1_555
H5 C6 1_555 1_555
O5 Cd1 1_555 1_555
C7 C6 1_555 1_555
C8 C7 1_555 1_555
H6 C8 1_555 1_555
C9 C8 1_555 1_555
H7 C9 1_555 1_555
C10 N2 1_555 1_555
H8 C10 1_555 1_555
C11 N1 1_555 1_555
C12 N2 1_555 1_555
C13 C14 1_555 1_555
C14 H9 1_555 1_555
H10 C14 1_555 1_555
C15 C14 1_555 1_555
H11 C15 1_555 1_555
H12 C15 1_555 1_555
C16 C15 1_555 1_555
H13 C16 1_555 1_555
H14 C16 1_555 1_555
C17 C13 1_555 1_555
H15 C17 1_555 1_555
H16 C17 1_555 1_555
C18 C13 1_555 1_555
H17 C18 1_555 1_555
H18 C18 1_555 1_555
C19 O2 1_555 1_555
C20 C13 1_555 1_555
H19 C20 1_555 1_555
H20 C20 1_555 1_555
C21 C20 1_555 1_555
H21 O5 1_555 1_555
H22 O5 1_555 1_555
O6 H23 1_555 1_555
H24 O6 1_555 1_555
O7 H25 1_555 1_555
H26 O7 1_555 1_555
Cd1_2 O3 1_555 1_555
O3_2 Cd1 1_555 1_555
O4_2 Cd1 1_555 1_555
O4 Cd1_2 1_555 1_555
C4 C11 1_555 1_555
C7 C12 1_555 1_555
C9 C10 1_555 1_555
C11 C12 1_555 1_555
C16 C17 1_555 1_555
C18 C19 1_555 1_555

#END
