
#######################################################################
#
#                 Cambridge Crystallographic Data Centre
#                                CCDC 
#
#######################################################################
#
# If this CIF has been generated from an entry in the Cambridge 
# Structural Database, then it will include bibliographic, chemical, 
# crystal, experimental, refinement or atomic coordinate data resulting 
# from the CCDC's data processing and validation procedures.
#
#######################################################################

data_YELYIY
_symmetry_cell_setting           orthorhombic
_symmetry_space_group_name_H-M   'P b c a'
_symmetry_Int_Tables_number      61
_space_group_name_Hall           '-P 2ac 2ab'
loop_
_symmetry_equiv_pos_site_id
_symmetry_equiv_pos_as_xyz
1 x,y,z
2 1/2-x,-y,1/2+z
3 -x,1/2+y,1/2-z
4 1/2+x,1/2-y,-z
5 -x,-y,-z
6 1/2+x,y,1/2-z
7 x,1/2-y,1/2+z
8 1/2-x,1/2+y,z
_cell_length_a                   7.1581(9)
_cell_length_b                   13.6854(18)
_cell_length_c                   14.7668(19)
_cell_angle_alpha                90
_cell_angle_beta                 90
_cell_angle_gamma                90
_cell_volume                     1446.58
loop_
_atom_site_label
_atom_site_type_symbol
_atom_site_fract_x
_atom_site_fract_y
_atom_site_fract_z
Cd1 Cd 0.08116(3) 0.636897(12) 0.414541(11)
O1 O 0.2237(3) 0.71816(13) 0.29558(12)
O2 O 0.3111(2) 0.71077(12) 0.15228(11)
O3 O 0.2110(2) 0.40643(13) 0.02360(12)
O4 O 0.3303(2) 0.55617(13) 0.02277(11)
N1 N 0.1495(3) 0.40966(14) 0.20402(14)
H1 H 0.1383 0.3526 0.1801
N2 N 0.1477(3) 0.52602(14) 0.30524(13)
C1 C 0.1236(4) 0.43144(19) 0.29116(17)
H2 H 0.0928 0.3863 0.3358
C2 C 0.1960(3) 0.56620(17) 0.22354(16)
C3 C 0.1973(3) 0.49414(17) 0.15875(16)
C4 C 0.2460(3) 0.67306(17) 0.22347(16)
C5 C 0.2500(3) 0.48722(17) 0.06079(16)
O5 O 0.0550(3) 0.76699(16) 0.50500(15)
H3 H -0.0042 0.8170 0.4867
H4 H 0.1332 0.7778 0.5472
Cd1E Cd 0.58116(3) 0.636897(12) 0.085459(11)
Cd1A Cd 0.41884(3) 0.363103(12) -0.085459(11)
O2E O -0.1889(2) 0.71077(12) 0.34772(11)
O3A O 0.2890(2) 0.59357(13) 0.52360(12)
O4E O -0.1697(2) 0.55617(13) 0.47723(11)
loop_
_geom_bond_atom_site_label_1
_geom_bond_atom_site_label_2
_geom_bond_site_symmetry_1
_geom_bond_site_symmetry_2
Cd1 O1 1_555 1_555
O1 C4 1_555 1_555
O2 C4 1_555 1_555
O3 C5 1_555 1_555
O4 C5 1_555 1_555
N1 H1 1_555 1_555
N2 Cd1 1_555 1_555
C1 N1 1_555 1_555
H2 C1 1_555 1_555
C2 N2 1_555 1_555
C3 N1 1_555 1_555
C4 C2 1_555 1_555
C5 C3 1_555 1_555
O5 Cd1 1_555 1_555
H3 O5 1_555 1_555
H4 O5 1_555 1_555
Cd1E O2 1_555 1_555
Cd1A O3 1_555 1_555
O2E Cd1 1_555 1_555
O3A Cd1 1_555 1_555
O4E Cd1 1_555 1_555
O4 Cd1E 1_555 1_555
N2 C1 1_555 1_555
C2 C3 1_555 1_555

#END
