
#######################################################################
#
#                 Cambridge Crystallographic Data Centre
#                                CCDC 
#
#######################################################################
#
# If this CIF has been generated from an entry in the Cambridge 
# Structural Database, then it will include bibliographic, chemical, 
# crystal, experimental, refinement or atomic coordinate data resulting 
# from the CCDC's data processing and validation procedures.
#
#######################################################################

data_YELYIY02
_symmetry_cell_setting           orthorhombic
_symmetry_space_group_name_H-M   'P b c a'
_symmetry_Int_Tables_number      61
_space_group_name_Hall           '-P 2ac 2ab'
loop_
_symmetry_equiv_pos_site_id
_symmetry_equiv_pos_as_xyz
1 x,y,z
2 1/2-x,-y,1/2+z
3 -x,1/2+y,1/2-z
4 1/2+x,1/2-y,-z
5 -x,-y,-z
6 1/2+x,y,1/2-z
7 x,1/2-y,1/2+z
8 1/2-x,1/2+y,z
_cell_length_a                   7.1721(12)
_cell_length_b                   13.702(2)
_cell_length_c                   14.774(3)
_cell_angle_alpha                90
_cell_angle_beta                 90
_cell_angle_gamma                90
_cell_volume                     1451.87
loop_
_atom_site_label
_atom_site_type_symbol
_atom_site_fract_x
_atom_site_fract_y
_atom_site_fract_z
Cd1 Cd 0.08055(3) 0.863187(13) 0.085600(12)
O1 O 0.2233(3) 0.78195(13) 0.20450(13)
O2 O 0.3111(3) 0.78926(13) 0.34778(12)
O3 O 0.3307(3) 0.94418(13) 0.47728(12)
O4 O 0.2117(3) 1.09381(13) 0.47650(13)
O5 O 0.0547(3) 0.73259(16) -0.00478(17)
H1 H -0.010(5) 0.6840(17) 0.010(2)
H2 H 0.138(4) 0.723(2) -0.044(2)
N1 N 0.1465(3) 0.97419(15) 0.19480(14)
N2 N 0.1492(3) 1.09023(15) 0.29618(15)
H3 H 0.1384 1.1473 0.3199
C1 C 0.2452(4) 0.82761(18) 0.27654(16)
C2 C 0.1954(3) 0.93371(18) 0.27647(16)
C3 C 0.1971(3) 1.00625(18) 0.34165(17)
C4 C 0.2497(4) 1.01300(18) 0.43910(17)
C5 C 0.1222(4) 1.06835(19) 0.20905(18)
H4 H 0.0905 1.1134 0.1645
Cd1E Cd 0.58055(3) 0.863187(13) 0.414400(12)
Cd1A Cd 0.41945(3) 1.136813(13) 0.585600(12)
O2E O -0.1889(3) 0.78926(13) 0.15222(12)
O3E O -0.1693(3) 0.94418(13) 0.02272(12)
O4A O 0.2883(3) 0.90619(13) -0.02350(13)
loop_
_geom_bond_atom_site_label_1
_geom_bond_atom_site_label_2
_geom_bond_site_symmetry_1
_geom_bond_site_symmetry_2
Cd1 O1 1_555 1_555
O1 C1 1_555 1_555
O2 C1 1_555 1_555
O3 C4 1_555 1_555
O4 C4 1_555 1_555
O5 Cd1 1_555 1_555
H1 O5 1_555 1_555
H2 O5 1_555 1_555
N1 Cd1 1_555 1_555
N2 H3 1_555 1_555
C1 C2 1_555 1_555
C2 N1 1_555 1_555
C3 N2 1_555 1_555
C4 C3 1_555 1_555
C5 N1 1_555 1_555
H4 C5 1_555 1_555
Cd1E O2 1_555 1_555
Cd1A O4 1_555 1_555
O2E Cd1 1_555 1_555
O3E Cd1 1_555 1_555
O4A Cd1 1_555 1_555
O3 Cd1E 1_555 1_555
N2 C5 1_555 1_555
C2 C3 1_555 1_555

#END
