
#######################################################################
#
#                 Cambridge Crystallographic Data Centre
#                                CCDC 
#
#######################################################################
#
# If this CIF has been generated from an entry in the Cambridge 
# Structural Database, then it will include bibliographic, chemical, 
# crystal, experimental, refinement or atomic coordinate data resulting 
# from the CCDC's data processing and validation procedures.
#
#######################################################################

data_YELYIY01
_symmetry_cell_setting           monoclinic
_symmetry_space_group_name_H-M   'P 21/n'
_symmetry_Int_Tables_number      14
_space_group_name_Hall           '-P 2yn'
loop_
_symmetry_equiv_pos_site_id
_symmetry_equiv_pos_as_xyz
1 x,y,z
2 1/2-x,1/2+y,1/2-z
3 -x,-y,-z
4 1/2+x,1/2-y,1/2+z
_cell_length_a                   6.5915(13)
_cell_length_b                   9.950(2)
_cell_length_c                   10.546(2)
_cell_angle_alpha                90
_cell_angle_beta                 105.73(3)
_cell_angle_gamma                90
_cell_volume                     665.761
loop_
_atom_site_label
_atom_site_type_symbol
_atom_site_fract_x
_atom_site_fract_y
_atom_site_fract_z
Cd1 Cd 0.11652(2) 0.569624(15) 0.168205(14)
O1 O 0.2553(3) 0.78125(16) 0.27063(15)
O2 O 0.3852(3) 0.6144(2) 0.07243(17)
H1 H 0.362(4) 0.619(4) -0.0107(10)
H2 H 0.5164(19) 0.609(4) 0.108(3)
O3 O 0.4111(3) 0.88051(15) 0.45851(14)
O4 O 0.3167(2) 0.82876(16) 0.70993(15)
O5 O 0.2760(4) 0.6353(2) 0.80767(18)
N1 N 0.2408(3) 0.54092(17) 0.38604(17)
N2 N 0.2487(3) 0.48812(17) 0.58876(17)
H3 H 0.2433 0.4404 0.6557
C1 C 0.2237(3) 0.4427(2) 0.4666(2)
H4 H 0.1975 0.3534 0.4413
C2 C 0.2821(3) 0.6558(2) 0.46193(19)
C3 C 0.2849(3) 0.6246(2) 0.5896(2)
C4 C 0.3169(3) 0.78106(19) 0.3924(2)
C5 C 0.2968(3) 0.7015(2) 0.7130(2)
O3A O 0.0889(3) 0.38051(15) 0.04149(14)
O3C O -0.0889(3) 0.61949(15) -0.04149(14)
O4C O -0.1833(2) 0.67124(16) 0.20993(15)
Cd1A Cd 0.38348(2) 1.069624(15) 0.331795(14)
Cd1C Cd 0.61652(2) 0.930376(15) 0.668205(14)
loop_
_geom_bond_atom_site_label_1
_geom_bond_atom_site_label_2
_geom_bond_site_symmetry_1
_geom_bond_site_symmetry_2
Cd1 O1 1_555 1_555
O1 C4 1_555 1_555
O2 Cd1 1_555 1_555
H1 O2 1_555 1_555
H2 O2 1_555 1_555
O3 C4 1_555 1_555
O4 C5 1_555 1_555
O5 C5 1_555 1_555
N1 Cd1 1_555 1_555
N2 H3 1_555 1_555
C1 N1 1_555 1_555
H4 C1 1_555 1_555
C2 N1 1_555 1_555
C3 N2 1_555 1_555
C4 C2 1_555 1_555
C5 C3 1_555 1_555
O3A Cd1 1_555 1_555
O3C Cd1 1_555 1_555
O4C Cd1 1_555 1_555
Cd1A O3 1_555 1_555
Cd1C O3 1_555 1_555
O4 Cd1C 1_555 1_555
N2 C1 1_555 1_555
C2 C3 1_555 1_555

#END
