
#######################################################################
#
#                 Cambridge Crystallographic Data Centre
#                                CCDC 
#
#######################################################################
#
# If this CIF has been generated from an entry in the Cambridge 
# Structural Database, then it will include bibliographic, chemical, 
# crystal, experimental, refinement or atomic coordinate data resulting 
# from the CCDC's data processing and validation procedures.
#
#######################################################################

data_YEMGIH
_symmetry_cell_setting           monoclinic
_symmetry_space_group_name_H-M   'P 21/c'
_symmetry_Int_Tables_number      14
_space_group_name_Hall           '-P 2ybc'
loop_
_symmetry_equiv_pos_site_id
_symmetry_equiv_pos_as_xyz
1 x,y,z
2 -x,1/2+y,1/2-z
3 -x,-y,-z
4 x,1/2-y,1/2+z
_cell_length_a                   12.663(3)
_cell_length_b                   3.9531(5)
_cell_length_c                   11.873(3)
_cell_angle_alpha                90
_cell_angle_beta                 111.87(3)
_cell_angle_gamma                90
_cell_volume                     551.566
loop_
_atom_site_label
_atom_site_type_symbol
_atom_site_fract_x
_atom_site_fract_y
_atom_site_fract_z
Rb1 Rb 0.65483(4) 0.79622(13) 0.18263(4)
O1 O 0.7052(3) 0.3109(10) 0.3821(3)
O2 O 0.7521(3) 0.2016(11) 0.5772(3)
O3 O 0.4564(3) 0.2658(11) 0.1041(4)
C1 C 0.7751(4) 0.2159(12) 0.4845(4)
C2 C 0.8917(4) 0.1065(12) 0.4916(4)
C3 C 0.9264(4) 0.1514(13) 0.3939(4)
H1 H 0.8775 0.2528 0.3230
C4 C 0.9664(4) -0.0449(14) 0.5975(4)
H2 H 0.9442 -0.0748 0.6632
H3 H 0.402(4) 0.095(12) 0.095(5)
H4 H 0.409(5) 0.459(12) 0.085(6)
Rb1B Rb 1.34517(4) -0.79622(13) 0.81737(4)
Rb1_2 Rb 0.65483(4) -0.20378(13) 0.18263(4)
Rb1C Rb 0.65483(4) -0.29622(13) 0.68263(4)
Rb1C_2 Rb 0.65483(4) 0.70378(13) 0.68263(4)
Rb1B_2 Rb 0.34517(4) 0.20378(13) -0.18263(4)
Rb1A Rb 0.34517(4) 0.29622(13) 0.31737(4)
Rb1B_3 Rb 1.34517(4) 0.20378(13) 0.81737(4)
Rb1A_2 Rb 1.34517(4) -0.70378(13) 0.31737(4)
Rb1A_3 Rb 1.34517(4) 0.29622(13) 0.31737(4)
Rb1_3 Rb 0.65483(4) 1.79622(13) 0.18263(4)
Rb1B_4 Rb 0.34517(4) 1.20378(13) -0.18263(4)
Rb1A_4 Rb 0.34517(4) 1.29622(13) 0.31737(4)
Rb1B_5 Rb 1.34517(4) -1.79622(13) 0.81737(4)
O1B O 1.2948(3) -0.3109(10) 0.6179(3)
O1_2 O 0.7052(3) 1.3109(10) 0.3821(3)
O1B_2 O 1.2948(3) -1.3109(10) 0.6179(3)
O2B O 1.2479(3) -0.2016(11) 0.4228(3)
O2C O 0.7521(3) 0.2984(11) 0.0772(3)
O2C_2 O 0.7521(3) 1.2984(11) 0.0772(3)
O2A O 1.2479(3) -1.2984(11) 0.9228(3)
O2A_2 O 1.2479(3) -0.2984(11) 0.9228(3)
O3_2 O 0.4564(3) 1.2658(11) 0.1041(4)
O3B O 0.5436(3) 0.7342(11) -0.1041(4)
O3A O 0.5436(3) 0.7658(11) 0.3959(4)
O3_3 O 1.4564(3) -0.7342(11) 1.1041(4)
O3C O 1.4564(3) -0.7658(11) 0.6041(4)
O3B_2 O 1.5436(3) -1.2658(11) 0.8959(4)
O3B_3 O 1.5436(3) -0.2658(11) 0.8959(4)
C1B C 1.2249(4) -0.2159(12) 0.5155(4)
C2B C 1.1083(4) -0.1065(12) 0.5084(4)
C3B C 1.0736(4) -0.1514(13) 0.6061(4)
H1B H 1.1225 -0.2528 0.6770
C4B C 1.0336(4) 0.0449(14) 0.4025(4)
H2B H 1.0558 0.0748 0.3368
H3_2 H 0.402(4) 1.095(12) 0.095(5)
H3B H 0.598(4) 0.905(12) -0.095(5)
H3A H 0.598(4) 0.595(12) 0.405(5)
H3_3 H 1.402(4) -0.905(12) 1.095(5)
H3C H 1.402(4) -0.595(12) 0.595(5)
H3B_2 H 1.598(4) -1.095(12) 0.905(5)
H3B_3 H 1.598(4) -0.095(12) 0.905(5)
H4_2 H 0.409(5) 1.459(12) 0.085(6)
H4B H 0.591(5) 0.541(12) -0.085(6)
H4A H 0.591(5) 0.959(12) 0.415(6)
H4_3 H 1.409(5) -0.541(12) 1.085(6)
H4C H 1.409(5) -0.959(12) 0.585(6)
H4B_2 H 1.591(5) -1.459(12) 0.915(6)
H4B_3 H 1.591(5) -0.459(12) 0.915(6)
loop_
_geom_bond_atom_site_label_1
_geom_bond_atom_site_label_2
_geom_bond_site_symmetry_1
_geom_bond_site_symmetry_2
Rb1 O1 1_555 1_555
O1 C1 1_555 1_555
O2 C1 1_555 1_555
O3 Rb1 1_555 1_555
C1 C2 1_555 1_555
C2 C3 1_555 1_555
C3 H1 1_555 1_555
C4 C2 1_555 1_555
H2 C4 1_555 1_555
H3 O3 1_555 1_555
H4 O3 1_555 1_555
Rb1B O1B 1_555 1_555
Rb1_2 O1 1_555 1_555
Rb1C O2 1_555 1_555
Rb1C_2 O2 1_555 1_555
Rb1B_2 O3 1_555 1_555
Rb1A O3 1_555 1_555
Rb1B_3 O1B 1_555 1_555
Rb1A_2 O2B 1_555 1_555
Rb1A_3 O2B 1_555 1_555
Rb1_3 O1_2 1_555 1_555
Rb1B_4 O3_2 1_555 1_555
Rb1A_4 O3_2 1_555 1_555
Rb1B_5 O1B_2 1_555 1_555
O1B C1B 1_555 1_555
O1_2 Rb1 1_555 1_555
O1B_2 Rb1B 1_555 1_555
O2B C1B 1_555 1_555
O2C Rb1 1_555 1_555
O2C_2 Rb1 1_555 1_555
O2A Rb1B 1_555 1_555
O2A_2 Rb1B 1_555 1_555
O3_2 Rb1 1_555 1_555
O3B Rb1 1_555 1_555
O3A Rb1 1_555 1_555
O3_3 Rb1B 1_555 1_555
O3C Rb1B 1_555 1_555
O3B_2 Rb1B 1_555 1_555
O3B_3 Rb1B 1_555 1_555
C1B C2B 1_555 1_555
C2B C3B 1_555 1_555
C3B C4 1_555 1_555
H1B C3B 1_555 1_555
C4B C3 1_555 1_555
H2B C4B 1_555 1_555
H3_2 O3_2 1_555 1_555
H3B O3B 1_555 1_555
H3A O3A 1_555 1_555
H3_3 O3_3 1_555 1_555
H3C O3C 1_555 1_555
H3B_2 O3B_2 1_555 1_555
H3B_3 O3B_3 1_555 1_555
H4_2 O3_2 1_555 1_555
H4B O3B 1_555 1_555
H4A O3A 1_555 1_555
H4_3 O3_3 1_555 1_555
H4C O3C 1_555 1_555
H4B_2 O3B_2 1_555 1_555
H4B_3 O3B_3 1_555 1_555
O3 Rb1_2 1_555 1_555
Rb1_2 O2C 1_555 1_555
Rb1C_2 O3A 1_555 1_555
Rb1B_2 O3B 1_555 1_555
Rb1A O3A 1_555 1_555
Rb1B_3 O2A_2 1_555 1_555
Rb1B_3 O3B_3 1_555 1_555
Rb1A_2 O3C 1_555 1_555
Rb1_3 O2C_2 1_555 1_555
Rb1_3 O3_2 1_555 1_555
Rb1B_4 O3B 1_555 1_555
Rb1A_4 O3A 1_555 1_555
Rb1B_5 O2A 1_555 1_555
Rb1B_5 O3B_2 1_555 1_555
C2B C4B 1_555 1_555

#END
