
#######################################################################
#
#                 Cambridge Crystallographic Data Centre
#                                CCDC 
#
#######################################################################
#
# If this CIF has been generated from an entry in the Cambridge 
# Structural Database, then it will include bibliographic, chemical, 
# crystal, experimental, refinement or atomic coordinate data resulting 
# from the CCDC's data processing and validation procedures.
#
#######################################################################

data_YEMHUU
_symmetry_cell_setting           rhombohedral
_symmetry_space_group_name_H-M   'R -3 c'
_symmetry_Int_Tables_number      167
_space_group_name_Hall           '-R 3 2"c'
loop_
_symmetry_equiv_pos_site_id
_symmetry_equiv_pos_as_xyz
1 x,y,z
2 -y,x-y,z
3 -x+y,-x,z
4 y,x,1/2-z
5 2/3+x,1/3+y,1/3+z
6 2/3-y,1/3+x-y,1/3+z
7 2/3-x+y,1/3-x,1/3+z
8 2/3+y,1/3+x,5/6-z
9 1/3+x,2/3+y,2/3+z
10 1/3+y,2/3+x,1/6-z
11 x-y,-y,1/2-z
12 -x,-x+y,1/2-z
13 1/3-y,2/3+x-y,2/3+z
14 1/3-x+y,2/3-x,2/3+z
15 1/3+x-y,2/3-y,1/6-z
16 1/3-x,2/3-x+y,1/6-z
17 2/3+x-y,1/3-y,5/6-z
18 2/3-x,1/3-x+y,5/6-z
19 -x,-y,-z
20 y,-x+y,-z
21 x-y,x,-z
22 -y,-x,1/2+z
23 1/3-x,2/3-y,2/3-z
24 1/3+y,2/3-x+y,2/3-z
25 1/3+x-y,2/3+x,2/3-z
26 1/3-y,2/3-x,1/6+z
27 2/3-x,1/3-y,1/3-z
28 2/3-y,1/3-x,5/6+z
29 -x+y,y,1/2+z
30 x,x-y,1/2+z
31 2/3+y,1/3-x+y,1/3-z
32 2/3+x-y,1/3+x,1/3-z
33 2/3-x+y,1/3+y,5/6+z
34 2/3+x,1/3+x-y,5/6+z
35 1/3-x+y,2/3+y,1/6+z
36 1/3+x,2/3+x-y,1/6+z
_cell_length_a                   26.0100(10)
_cell_length_b                   26.0100(10)
_cell_length_c                   20.8538(16)
_cell_angle_alpha                90
_cell_angle_beta                 90
_cell_angle_gamma                120.00
_cell_volume                     12217.9
loop_
_atom_site_label
_atom_site_type_symbol
_atom_site_fract_x
_atom_site_fract_y
_atom_site_fract_z
Cd1 Cd 0.751816(14) 0.915572(13) -0.054146(14)
O1 O 0.71700(16) 0.97417(15) -0.01688(17)
O2 O 0.73364(15) 0.94128(15) 0.0734(2)
O3 O 0.82196(15) 1.08215(15) 0.0675(2)
O4 O 0.82103(14) 1.16044(14) 0.03071(15)
O5 O 0.76720(16) 1.12988(19) 0.17415(17)
O6 O 0.69325(16) 1.14611(17) 0.18825(16)
O7 O 0.8669(2) 0.9326(2) -0.0812(2)
O8 O 0.8347(2) 0.9514(2) 0.0070(2)
C1 C 0.70117(18) 1.01250(18) 0.0818(2)
H1 H 0.7169 1.0170 0.1264
C2 C 0.72623(18) 1.07427(18) 0.0525(2)
H2 H 0.7128 1.0685 0.0068
C3 C 0.70076(17) 1.10993(17) 0.08524(19)
H3 H 0.7148 1.1472 0.0598
C4 C 0.71931(19) 0.97363(19) 0.0436(2)
C5 C 0.79412(19) 1.10833(19) 0.0514(2)
C6 C 0.72191(19) 1.12876(18) 0.1542(2)
C7 C 0.93500(17) 0.97339(16) 0.0102(2)
H4 H 0.9292 0.9710 0.0578
C8 C 0.87411(17) 0.95105(16) -0.0243(2)
Cd1O Cd 0.581517(14) 0.830423(19) 0.220813(14)
Cd1T Cd 0.836244(19) 0.751816(14) 0.054146(14)
Cd1AA Cd 0.751095(13) 0.581517(14) -0.220813(14)
Cd1M Cd 0.497089(19) 0.914851(14) -0.387479(14)
Cd1G Cd 0.582239(13) 1.085149(14) -0.112521(14)
Cd1S Cd 0.915572(13) 1.163756(19) 0.054146(14)
Cd1E Cd 0.751095(13) 1.169577(19) 0.279187(14)
Cd1Y Cd 0.417761(13) 0.914851(14) 0.112521(14)
Cd1A Cd 1.084428(13) 0.836244(19) -0.054146(14)
Cd1R Cd 1.248184(14) 1.084428(13) 0.054146(14)
Cd1B Cd 1.163756(19) 1.248184(14) -0.054146(14)
Cd1V Cd 0.581517(14) 0.751095(13) -0.279187(14)
Cd1HA Cd 0.497089(19) 0.582239(13) 0.112521(14)
Cd1P Cd 0.502911(19) 0.417761(13) -0.112521(14)
Cd1J Cd 0.836244(19) 1.084428(13) -0.445854(14)
Cd1FA Cd 0.830423(19) 1.248905(13) -0.220813(14)
O1O O 0.61633(16) 0.92384(22) 0.18355(17)
O1T O 0.74283(22) 0.71700(16) 0.01688(17)
O1AA O 0.69250(15) 0.61633(16) -0.18355(17)
O1M O 0.59050(22) 0.94967(16) -0.35021(17)
O1G O 0.64084(15) 1.05033(16) -0.14979(17)
O2O O 0.59969(15) 0.87431(21) 0.0933(2)
O2T O 0.79236(21) 0.73364(15) -0.0734(2)
O2AA O 0.72539(15) 0.59969(15) -0.0933(2)
O2M O 0.54097(21) 0.93303(15) -0.2599(2)
O2G O 0.60795(15) 1.06697(15) -0.2401(2)
O3O O 0.51137(15) 0.92686(21) 0.0992(2)
O3T O 0.73981(21) 0.82196(15) -0.0675(2)
O3AA O 0.58452(15) 0.51137(15) -0.0992(2)
O3M O 0.59352(21) 0.84471(15) -0.2658(2)
O3G O 0.74882(15) 1.15529(15) -0.2342(2)
O3HA O 0.59352(21) 0.74882(15) 0.2342(2)
O3A O 0.91785(15) 0.73981(21) 0.0675(2)
O3Q O 0.84471(15) 0.59352(21) -0.2342(2)
O3W O 0.41548(15) 0.92686(21) -0.4008(2)
O3GA O 0.48863(15) 1.07314(21) -0.0992(2)
O4O O 0.51230(14) 1.00608(20) 0.13596(15)
O4T O 0.66059(20) 0.82103(14) -0.03071(15)
O4AA O 0.50623(14) 0.51230(14) -0.13596(15)
O4M O 0.67274(20) 0.84564(14) -0.30262(15)
O4G O 0.82711(14) 1.15436(14) -0.19738(15)
O4HA O 0.67274(20) 0.82711(14) 0.19738(15)
O4A O 0.83956(14) 0.66059(20) 0.03071(15)
O4Q O 0.84564(14) 0.67274(20) -0.19738(15)
O4W O 0.49377(14) 1.00608(20) -0.36404(15)
O4GA O 0.48770(14) 0.99392(20) -0.13596(15)
O5O O 0.56613(16) 1.02935(25) -0.00748(17)
O5T O 0.63732(25) 0.76720(16) -0.17415(17)
O5AA O 0.53679(19) 0.56613(16) 0.00748(17)
O5M O 0.69601(25) 0.89947(16) -0.15918(17)
O5G O 0.79655(19) 1.10053(16) -0.34082(17)
O5J O 0.63732(25) 0.87012(19) 0.32585(17)
O5DA O 0.79655(19) 0.69601(25) 0.15918(17)
O5CA O 0.76720(16) 0.63732(25) -0.32585(17)
O5E O 0.53679(19) 0.97065(25) -0.49252(17)
O6O O 0.64008(16) 1.11953(23) -0.02158(16)
O6T O 0.54714(23) 0.69325(16) -0.18825(16)
O6AA O 0.52056(17) 0.64008(16) 0.02158(16)
O6M O 0.78619(23) 0.97342(16) -0.14508(16)
O6G O 0.81278(17) 1.02658(16) -0.35492(16)
O6J O 0.54714(23) 0.85389(17) 0.31175(16)
O6DA O 0.81278(17) 0.78619(23) 0.14508(16)
O6CA O 0.69325(16) 0.54714(23) -0.31175(16)
O6E O 0.52056(17) 0.88047(23) -0.47842(16)
O7T O 0.9343(3) 0.8669(2) 0.0812(2)
O7A O 1.0674(2) 0.9343(3) -0.0812(2)
O7R O 1.1331(2) 1.0674(2) 0.0812(2)
O7B O 1.0657(3) 1.1331(2) -0.0812(2)
O7S O 0.9326(2) 1.0657(3) 0.0812(2)
O8T O 0.8833(3) 0.8347(2) -0.0070(2)
O8A O 1.0486(2) 0.8833(3) 0.0070(2)
O8R O 1.1653(2) 1.0486(2) -0.0070(2)
O8B O 1.1167(3) 1.1653(2) 0.0070(2)
O8S O 0.9514(2) 1.1167(3) -0.0070(2)
O8O O 0.4986(2) 0.7834(3) 0.1597(2)
O8AA O 0.7153(2) 0.4986(2) -0.1597(2)
O8M O 0.4500(3) 0.8320(2) -0.3263(2)
O8G O 0.6181(2) 1.1680(2) -0.1737(2)
C1O C 0.63216(18) 0.97800(25) 0.0849(2)
C1T C 0.68867(25) 0.70117(18) -0.0818(2)
C1AA C 0.65417(18) 0.63216(18) -0.0849(2)
C1M C 0.64466(25) 0.96550(18) -0.2515(2)
C1G C 0.67917(18) 1.03450(18) -0.2485(2)
H1O H 0.6164 0.9668 0.0403
H1T H 0.6999 0.7169 -0.1264
H1AA H 0.6497 0.6164 -0.0403
H1M H 0.6334 0.9498 -0.2069
H1G H 0.6837 1.0502 -0.2931
C2O C 0.60710(18) 1.01471(25) 0.1142(2)
C2T C 0.65196(25) 0.72623(18) -0.0525(2)
C2AA C 0.59240(18) 0.60710(18) -0.1142(2)
C2M C 0.68137(25) 0.94044(18) -0.2808(2)
C2G C 0.74094(18) 1.05956(18) -0.2192(2)
H2O H 0.6205 1.0224 0.1599
H2T H 0.6443 0.7128 -0.0068
H2AA H 0.5982 0.6205 -0.1599
H2M H 0.6890 0.9539 -0.3265
H2G H 0.7352 1.0461 -0.1735
C3O C 0.63257(17) 1.07584(24) 0.08143(19)
C3T C 0.59083(24) 0.70076(17) -0.08524(19)
C3AA C 0.55674(17) 0.63257(17) -0.08143(19)
C3M C 0.74250(24) 0.96591(17) -0.24809(19)
C3G C 0.77660(17) 1.03409(17) -0.25191(19)
H3O H 0.6185 1.0991 0.1069
H3T H 0.5676 0.7148 -0.0598
H3AA H 0.5195 0.6185 -0.1069
H3M H 0.7657 0.9519 -0.2735
H3G H 0.8139 1.0481 -0.2265
C4O C 0.61402(19) 0.92099(27) 0.1231(2)
C4T C 0.74568(27) 0.71931(19) -0.0436(2)
C4AA C 0.69304(19) 0.61402(19) -0.1231(2)
C4M C 0.58765(27) 0.94736(19) -0.2897(2)
C4G C 0.64030(19) 1.05264(19) -0.2103(2)
C5O C 0.53921(19) 0.98088(27) 0.1153(2)
C5T C 0.68579(27) 0.79412(19) -0.0514(2)
C5AA C 0.55834(19) 0.53921(19) -0.1153(2)
C5M C 0.64754(27) 0.87255(19) -0.2819(2)
C5G C 0.77500(19) 1.12745(19) -0.2181(2)
C6O C 0.61142(19) 1.07352(26) 0.0125(2)
C6T C 0.59315(26) 0.72191(19) -0.1542(2)
C6AA C 0.53791(18) 0.61142(19) -0.0125(2)
C6M C 0.74018(26) 0.94476(19) -0.1791(2)
C6G C 0.79543(18) 1.05524(19) -0.3209(2)
C7S C 0.97339(16) 1.03839(23) -0.0102(2)
C7B C 1.03839(23) 1.06500(17) 0.0102(2)
C7R C 1.06500(17) 1.02661(16) -0.0102(2)
C7A C 1.02661(16) 0.96161(23) 0.0102(2)
C7T C 0.96161(23) 0.93500(17) -0.0102(2)
H4T H 0.9582 0.9292 -0.0578
H4A H 1.0290 0.9582 0.0578
H4R H 1.0708 1.0290 -0.0578
H4B H 1.0418 1.0708 0.0578
H4S H 0.9710 1.0418 -0.0578
C8T C 0.92306(23) 0.87411(17) 0.0243(2)
C8A C 1.04895(16) 0.92306(23) -0.0243(2)
C8R C 1.12589(17) 1.04895(16) 0.0243(2)
C8B C 1.07694(23) 1.12589(17) -0.0243(2)
C8S C 0.95105(16) 1.07694(23) 0.0243(2)
Na1 Na 0.83320(10) 1.00433(11) 0.11123(12)
Na2 Na 0.6667 0.83822(9) 0.0833
Na3 Na 0.8833(6) 0.8961(5) 0.1688(5)
Na4 Na 0.8219(4) 1.0988(4) 0.2078(6)
O9 O 0.7571(2) 0.8391(2) 0.0841(2)
O10 O 0.8084(3) 0.9252(3) 0.1826(3)
O14 O 0.7163(3) 1.0000 0.2500
O11? O 0.8273(3) 1.0620(3) 0.2041(3)
O12? O 0.8967(8) 0.8924(8) 0.2905(9)
O13? O 0.9675(10) 0.9917(14) 0.1817(10)
loop_
_geom_bond_atom_site_label_1
_geom_bond_atom_site_label_2
_geom_bond_site_symmetry_1
_geom_bond_site_symmetry_2
Cd1 O1 1_555 1_555
O1 C4 1_555 1_555
O2 C4 1_555 1_555
O3 C5 1_555 1_555
O4 C5 1_555 1_555
O5 C6 1_555 1_555
O6 C6 1_555 1_555
O7 C8 1_555 1_555
O8 Cd1 1_555 1_555
C1 H1 1_555 1_555
C2 C1 1_555 1_555
H2 C2 1_555 1_555
C3 C2 1_555 1_555
H3 C3 1_555 1_555
C4 C1 1_555 1_555
C5 C2 1_555 1_555
C6 C3 1_555 1_555
C7 H4 1_555 1_555
C8 O8 1_555 1_555
Cd1O O1O 1_555 1_555
Cd1T O1T 1_555 1_555
Cd1AA O1AA 1_555 1_555
Cd1M O1M 1_555 1_555
Cd1G O1G 1_555 1_555
Cd1S O3 1_555 1_555
Cd1E O5 1_555 1_555
Cd1Y O3O 1_555 1_555
Cd1A O8A 1_555 1_555
Cd1R O8R 1_555 1_555
Cd1B O8B 1_555 1_555
Cd1V O3M 1_555 1_555
Cd1HA O5AA 1_555 1_555
Cd1P O3AA 1_555 1_555
Cd1J O5G 1_555 1_555
Cd1FA O3G 1_555 1_555
O1O C4O 1_555 1_555
O1T C4T 1_555 1_555
O1AA C4AA 1_555 1_555
O1M C4M 1_555 1_555
O1G C4G 1_555 1_555
O2O C4O 1_555 1_555
O2T C4T 1_555 1_555
O2AA C4AA 1_555 1_555
O2M C4M 1_555 1_555
O2G C4G 1_555 1_555
O3O C5O 1_555 1_555
O3T Cd1 1_555 1_555
O3AA C5AA 1_555 1_555
O3M C5M 1_555 1_555
O3G C5G 1_555 1_555
O3HA Cd1O 1_555 1_555
O3A Cd1T 1_555 1_555
O3Q Cd1AA 1_555 1_555
O3W Cd1M 1_555 1_555
O3GA Cd1G 1_555 1_555
O4O Cd1Y 1_555 1_555
O4T Cd1 1_555 1_555
O4AA Cd1P 1_555 1_555
O4M Cd1V 1_555 1_555
O4G Cd1FA 1_555 1_555
O4HA Cd1O 1_555 1_555
O4A Cd1T 1_555 1_555
O4Q Cd1AA 1_555 1_555
O4W Cd1M 1_555 1_555
O4GA Cd1G 1_555 1_555
O5O Cd1G 1_555 1_555
O5T Cd1V 1_555 1_555
O5AA C6AA 1_555 1_555
O5M Cd1 1_555 1_555
O5G C6G 1_555 1_555
O5J Cd1O 1_555 1_555
O5DA Cd1T 1_555 1_555
O5CA Cd1AA 1_555 1_555
O5E Cd1M 1_555 1_555
O6O Cd1G 1_555 1_555
O6T Cd1V 1_555 1_555
O6AA Cd1HA 1_555 1_555
O6M Cd1 1_555 1_555
O6G Cd1J 1_555 1_555
O6J Cd1O 1_555 1_555
O6DA Cd1T 1_555 1_555
O6CA Cd1AA 1_555 1_555
O6E Cd1M 1_555 1_555
O7T C8T 1_555 1_555
O7A C8A 1_555 1_555
O7R C8R 1_555 1_555
O7B C8B 1_555 1_555
O7S C8S 1_555 1_555
O8T Cd1T 1_555 1_555
O8A C8A 1_555 1_555
O8R C8R 1_555 1_555
O8B C8B 1_555 1_555
O8S Cd1S 1_555 1_555
O8O Cd1O 1_555 1_555
O8AA Cd1AA 1_555 1_555
O8M Cd1M 1_555 1_555
O8G Cd1G 1_555 1_555
C1O C1 1_555 1_555
C1T C1AA 1_555 1_555
C1AA H1AA 1_555 1_555
C1M C1G 1_555 1_555
C1G H1G 1_555 1_555
H1O C1O 1_555 1_555
H1T C1T 1_555 1_555
H1M C1M 1_555 1_555
C2O C1O 1_555 1_555
C2T C1T 1_555 1_555
C2AA C1AA 1_555 1_555
C2M C1M 1_555 1_555
C2G C1G 1_555 1_555
H2O C2O 1_555 1_555
H2T C2T 1_555 1_555
H2AA C2AA 1_555 1_555
H2M C2M 1_555 1_555
H2G C2G 1_555 1_555
C3O C3 1_555 1_555
C3T C2T 1_555 1_555
C3AA C2AA 1_555 1_555
C3M C2M 1_555 1_555
C3G C2G 1_555 1_555
H3O C3O 1_555 1_555
H3T C3T 1_555 1_555
H3AA C3AA 1_555 1_555
H3M C3M 1_555 1_555
H3G C3G 1_555 1_555
C4O C1O 1_555 1_555
C4T C1T 1_555 1_555
C4AA C1AA 1_555 1_555
C4M C1M 1_555 1_555
C4G C1G 1_555 1_555
C5O O4O 1_555 1_555
C5T O3T 1_555 1_555
C5AA O4AA 1_555 1_555
C5M O4M 1_555 1_555
C5G O4G 1_555 1_555
C6O O5O 1_555 1_555
C6T O5T 1_555 1_555
C6AA O6AA 1_555 1_555
C6M O5M 1_555 1_555
C6G O6G 1_555 1_555
C7S C7 1_555 1_555
C7B C7S 1_555 1_555
C7R C7B 1_555 1_555
C7A C7R 1_555 1_555
C7T C7 1_555 1_555
H4T C7T 1_555 1_555
H4A C7A 1_555 1_555
H4R C7R 1_555 1_555
H4B C7B 1_555 1_555
H4S C7S 1_555 1_555
C8T O8T 1_555 1_555
C8A C7A 1_555 1_555
C8R C7R 1_555 1_555
C8B C7B 1_555 1_555
C8S O8S 1_555 1_555
O4 Cd1S 1_555 1_555
O6 Cd1E 1_555 1_555
C7 C8 1_555 1_555
O4T C5T 1_555 1_555
O6O C6O 1_555 1_555
O6T C6T 1_555 1_555
O6M C6M 1_555 1_555
C2O C3O 1_555 1_555
C2O C5O 1_555 1_555
C2T C5T 1_555 1_555
C2AA C5AA 1_555 1_555
C2M C5M 1_555 1_555
C2G C5G 1_555 1_555
C3O C6O 1_555 1_555
C3T C3AA 1_555 1_555
C3T C6T 1_555 1_555
C3AA C6AA 1_555 1_555
C3M C3G 1_555 1_555
C3M C6M 1_555 1_555
C3G C6G 1_555 1_555
C7S C8S 1_555 1_555
C7A C7T 1_555 1_555
C7T C8T 1_555 1_555

#END
