
#######################################################################
#
#                 Cambridge Crystallographic Data Centre
#                                CCDC 
#
#######################################################################
#
# If this CIF has been generated from an entry in the Cambridge 
# Structural Database, then it will include bibliographic, chemical, 
# crystal, experimental, refinement or atomic coordinate data resulting 
# from the CCDC's data processing and validation procedures.
#
#######################################################################

data_YEMHII
_symmetry_cell_setting           monoclinic
_symmetry_space_group_name_H-M   'P 21/n'
_symmetry_Int_Tables_number      14
_space_group_name_Hall           '-P 2yn'
loop_
_symmetry_equiv_pos_site_id
_symmetry_equiv_pos_as_xyz
1 x,y,z
2 1/2-x,1/2+y,1/2-z
3 -x,-y,-z
4 1/2+x,1/2-y,1/2+z
_cell_length_a                   9.185(3)
_cell_length_b                   19.488(6)
_cell_length_c                   25.892(9)
_cell_angle_alpha                90
_cell_angle_beta                 99.74(2)
_cell_angle_gamma                90
_cell_volume                     4567.79
loop_
_atom_site_label
_atom_site_type_symbol
_atom_site_fract_x
_atom_site_fract_y
_atom_site_fract_z
Pt1 Pt 0.70001(2) 0.214335(10) 0.297622(7)
Ag1 Ag 0.83662(5) -0.03655(2) 0.267267(18)
S1 S 0.6897(3) 0.00494(9) 0.37619(8)
S2 S 0.5282(2) 0.42135(8) 0.34421(6)
P1 P 0.80679(15) 0.13085(7) 0.25836(5)
P2 P 0.71552(16) 0.29822(7) 0.24017(5)
N1 N 0.7851(5) 0.0605(2) 0.29415(19)
N2 N 0.6841(5) 0.1339(2) 0.35015(18)
N3 N 0.6416(5) 0.3673(2) 0.26532(18)
N4 N 0.5980(5) 0.2926(2) 0.33318(17)
C1 C 0.7232(6) 0.0733(3) 0.3357(2)
C2 C 0.6086(8) 0.1314(3) 0.3963(3)
H1 H 0.5002 0.1328 0.3848
H2 H 0.6380 0.1713 0.4193
C3 C 0.6525(12) 0.0648(4) 0.4260(3)
H3 H 0.5713 0.0479 0.4433
H4 H 0.7416 0.0717 0.4529
C4 C 0.5954(6) 0.3533(3) 0.3105(2)
C5 C 0.5514(8) 0.2960(3) 0.3850(2)
H5 H 0.6393 0.2956 0.4130
H6 H 0.4898 0.2556 0.3898
C6 C 0.4635(11) 0.3614(4) 0.3885(3)
H7 H 0.4812 0.3795 0.4248
H8 H 0.3564 0.3527 0.3779
C7 C 1.0032(6) 0.1385(3) 0.2598(2)
C8 C 1.0846(7) 0.1862(3) 0.2922(3)
H9 H 1.0359 0.2180 0.3112
C9 C 1.2380(8) 0.1878(4) 0.2969(3)
H10 H 1.2933 0.2213 0.3185
C10 C 1.3092(8) 0.1412(5) 0.2704(3)
H11 H 1.4139 0.1421 0.2744
C11 C 1.2302(8) 0.0929(5) 0.2380(3)
H12 H 1.2805 0.0607 0.2197
C12 C 1.0771(7) 0.0915(3) 0.2323(3)
H13 H 1.0224 0.0587 0.2098
C13 C 0.7280(6) 0.1068(3) 0.1923(2)
C14 C 0.7830(7) 0.1319(3) 0.1492(2)
H14 H 0.8661 0.1617 0.1541
C15 C 0.7160(8) 0.1135(4) 0.0988(3)
H15 H 0.7530 0.1310 0.0694
C16 C 0.5977(9) 0.0703(4) 0.0916(3)
H16 H 0.5529 0.0581 0.0571
C17 C 0.5417(8) 0.0440(4) 0.1341(3)
H17 H 0.4600 0.0134 0.1287
C18 C 0.6059(6) 0.0627(3) 0.1843(2)
H18 H 0.5669 0.0456 0.2135
C19 C 0.8997(6) 0.3265(3) 0.2338(2)
C20 C 0.9772(7) 0.3663(3) 0.2741(3)
H19 H 0.9306 0.3803 0.3025
C21 C 1.1204(8) 0.3852(4) 0.2730(3)
H20 H 1.1726 0.4120 0.3008
C22 C 1.1896(8) 0.3655(4) 0.2318(4)
H21 H 1.2887 0.3792 0.2312
C23 C 1.1145(8) 0.3261(4) 0.1915(3)
H22 H 1.1620 0.3121 0.1633
C24 C 0.9690(7) 0.3070(3) 0.1924(3)
H23 H 0.9167 0.2804 0.1645
C25 C 0.6072(6) 0.2888(3) 0.1755(2)
C26 C 0.6255(8) 0.3336(4) 0.1350(3)
H24 H 0.7051 0.3653 0.1391
C27 C 0.5244(10) 0.3308(5) 0.0885(3)
H25 H 0.5357 0.3611 0.0608
C28 C 0.4107(9) 0.2859(5) 0.0818(3)
H26 H 0.3436 0.2848 0.0496
C29 C 0.3921(7) 0.2419(4) 0.1216(3)
H27 H 0.3116 0.2107 0.1168
C30 C 0.4888(7) 0.2427(3) 0.1682(2)
H28 H 0.4753 0.2120 0.1955
Ag1A Ag 0.66338(5) 0.46345(2) 0.232733(18)
N3A N 0.8584(5) -0.1327(2) 0.23468(18)
Cl1 Cl 0.2181(5) 0.0010(4) 0.0117(2)
Cl2 Cl 0.1335(4) 0.0564(2) 0.10197(14)
C32 C 0.1639(15) 0.0742(7) 0.0398(5)
H29 H 0.0723 0.0922 0.0185
H30 H 0.2416 0.1097 0.0412
Cl3 Cl 0.9605(4) 0.22676(19) 0.42765(14)
Cl4 Cl 0.9502(6) 0.3742(2) 0.4331(2)
C33 C 1.0141(14) 0.2993(6) 0.4643(4)
H31 H 0.9769 0.2961 0.4980
H32 H 1.1233 0.3008 0.4723
Cl5 Cl 0.2216(14) -0.0070(5) 0.3703(4)
Cl6 Cl 0.1186(12) 0.0249(4) 0.4565(3)
C34 C 0.1193(17) 0.0504(9) 0.3958(6)
H33 H 0.1630 0.0968 0.3954
H34 H 0.0176 0.0516 0.3757
S3 S 0.9812(3) 0.23989(15) 0.02623(8)
F1 F 1.0064(17) 0.3686(5) 0.0350(5)
F2 F 0.7939(13) 0.3342(7) 0.0374(4)
F3 F 0.8707(9) 0.3352(7) -0.0358(4)
O1 O 0.8686(9) 0.1979(5) -0.0016(3)
O2 O 1.1112(7) 0.2425(4) 0.0035(2)
O3 O 1.0029(8) 0.2317(4) 0.0820(2)
C31 C 0.9141(17) 0.3152(15) 0.0138(7)
loop_
_geom_bond_atom_site_label_1
_geom_bond_atom_site_label_2
_geom_bond_site_symmetry_1
_geom_bond_site_symmetry_2
Pt1 P1 1_555 1_555
Ag1 N1 1_555 1_555
Cl1 C32 1_555 1_555
Cl2 C32 1_555 1_555
Cl3 C33 1_555 1_555
Cl4 C33 1_555 1_555
Cl5 C34 1_555 1_555
Cl6 C34 1_555 1_555
S1 C1 1_555 1_555
S2 C4 1_555 1_555
S3 O1 1_555 1_555
P1 N1 1_555 1_555
P2 Pt1 1_555 1_555
F1 C31 1_555 1_555
F2 C31 1_555 1_555
F3 C31 1_555 1_555
O2 S3 1_555 1_555
O3 S3 1_555 1_555
N1 C1 1_555 1_555
N2 Pt1 1_555 1_555
N3 P2 1_555 1_555
N4 Pt1 1_555 1_555
C1 N2 1_555 1_555
C2 N2 1_555 1_555
H1 C2 1_555 1_555
H2 C2 1_555 1_555
C3 S1 1_555 1_555
H3 C3 1_555 1_555
H4 C3 1_555 1_555
C4 N3 1_555 1_555
C5 N4 1_555 1_555
H5 C5 1_555 1_555
H6 C5 1_555 1_555
C6 S2 1_555 1_555
H7 C6 1_555 1_555
H8 C6 1_555 1_555
C7 P1 1_555 1_555
C8 C7 1_555 1_555
H9 C8 1_555 1_555
C9 C8 1_555 1_555
H10 C9 1_555 1_555
C10 C9 1_555 1_555
H11 C10 1_555 1_555
C11 C10 1_555 1_555
H12 C11 1_555 1_555
C12 C7 1_555 1_555
H13 C12 1_555 1_555
C13 P1 1_555 1_555
C14 C13 1_555 1_555
H14 C14 1_555 1_555
C15 C14 1_555 1_555
H15 C15 1_555 1_555
C16 C15 1_555 1_555
H16 C16 1_555 1_555
C17 C16 1_555 1_555
H17 C17 1_555 1_555
C18 C13 1_555 1_555
H18 C18 1_555 1_555
C19 P2 1_555 1_555
C20 C19 1_555 1_555
H19 C20 1_555 1_555
C21 C20 1_555 1_555
H20 C21 1_555 1_555
C22 C21 1_555 1_555
H21 C22 1_555 1_555
C23 C22 1_555 1_555
H22 C23 1_555 1_555
C24 C19 1_555 1_555
H23 C24 1_555 1_555
C25 P2 1_555 1_555
C26 C25 1_555 1_555
H24 C26 1_555 1_555
C27 C26 1_555 1_555
H25 C27 1_555 1_555
C28 C27 1_555 1_555
H26 C28 1_555 1_555
C29 C28 1_555 1_555
H27 C29 1_555 1_555
C30 C25 1_555 1_555
H28 C30 1_555 1_555
C31 S3 1_555 1_555
C32 H29 1_555 1_555
H30 C32 1_555 1_555
C33 H31 1_555 1_555
H32 C33 1_555 1_555
C34 H33 1_555 1_555
H34 C34 1_555 1_555
Ag1A N3 1_555 1_555
N3A Ag1 1_555 1_555
N4 C4 1_555 1_555
C2 C3 1_555 1_555
C5 C6 1_555 1_555
C11 C12 1_555 1_555
C17 C18 1_555 1_555
C23 C24 1_555 1_555
C29 C30 1_555 1_555

#END
