
#######################################################################
#
#                 Cambridge Crystallographic Data Centre
#                                CCDC 
#
#######################################################################
#
# If this CIF has been generated from an entry in the Cambridge 
# Structural Database, then it will include bibliographic, chemical, 
# crystal, experimental, refinement or atomic coordinate data resulting 
# from the CCDC's data processing and validation procedures.
#
#######################################################################

data_YEMHOO
_symmetry_cell_setting           rhombohedral
_symmetry_space_group_name_H-M   'R -3'
_symmetry_Int_Tables_number      148
_space_group_name_Hall           '-R 3'
loop_
_symmetry_equiv_pos_site_id
_symmetry_equiv_pos_as_xyz
1 x,y,z
2 -y,x-y,z
3 -x+y,-x,z
4 2/3+x,1/3+y,1/3+z
5 2/3-y,1/3+x-y,1/3+z
6 2/3-x+y,1/3-x,1/3+z
7 1/3+x,2/3+y,2/3+z
8 1/3-y,2/3+x-y,2/3+z
9 1/3-x+y,2/3-x,2/3+z
10 -x,-y,-z
11 y,-x+y,-z
12 x-y,x,-z
13 1/3-x,2/3-y,2/3-z
14 1/3+y,2/3-x+y,2/3-z
15 1/3+x-y,2/3+x,2/3-z
16 2/3-x,1/3-y,1/3-z
17 2/3+y,1/3-x+y,1/3-z
18 2/3+x-y,1/3+x,1/3-z
_cell_length_a                   17.7971(14)
_cell_length_b                   17.7971(14)
_cell_length_c                   22.961(4)
_cell_angle_alpha                90
_cell_angle_beta                 90
_cell_angle_gamma                120.00
_cell_volume                     6298.25
loop_
_atom_site_label
_atom_site_type_symbol
_atom_site_fract_x
_atom_site_fract_y
_atom_site_fract_z
Cd1 Cd 0.42043(3) 0.38541(3) 0.02161(2)
Cd2 Cd 0.33461(3) 0.17186(3) -0.08064(2)
O1 O 0.3907(4) 0.2443(3) 0.0238(2)
O2 O 0.2694(4) 0.1233(4) 0.0060(2)
O3 O 0.3048(3) 0.3397(3) 0.0816(2)
O4 O 0.1963(3) 0.2469(3) 0.1345(2)
O5 O 0.2611(4) -0.0287(4) 0.1020(3)
O6 O 0.3870(4) 0.0396(5) 0.0549(3)
O7 O 0.4746(3) 0.2481(3) -0.0972(2)
O8 O 0.4163(3) 0.2084(4) -0.1841(2)
O9 O 0.4533(3) 0.5351(4) 0.0345(2)
H1 H 0.421(4) 0.555(5) 0.023(3)
H2 H 0.456(6) 0.538(7) 0.0716(6)
O10 O 0.5216(4) 0.4252(4) 0.0935(2)
H3 H 0.5549 0.4789 0.1002
H4 H 0.5532 0.4033 0.0851
C1 C 0.3048(5) 0.1580(4) 0.1057(3)
H5 H 0.2430 0.1159 0.1108
C2 C 0.3270(4) 0.2400(4) 0.1413(3)
H6 H 0.3887 0.2823 0.1363
C3 C 0.3577(5) 0.1165(4) 0.1267(3)
H7 H 0.4196 0.1579 0.1214
C4 C 0.3228(5) 0.1782(5) 0.0407(3)
C5 C 0.2734(5) 0.2789(5) 0.1181(3)
C6 C 0.3333(6) 0.0347(5) 0.0920(3)
C7 C 0.5719(4) 0.2886(4) -0.1772(3)
H8 H 0.5689 0.2872 -0.2199
C8 C 0.4802(5) 0.2454(4) -0.1517(3)
Cd1O Cd 0.24624(3) -0.05208(3) 0.31172(2)
Cd1K Cd 0.03502(4) 0.42043(3) -0.02161(2)
Cd1H Cd 0.29831(4) 0.24624(3) -0.31172(2)
Cd1J Cd 0.38541(3) -0.03502(4) -0.02161(2)
Cd1D Cd 0.28126(3) 0.36835(4) 0.35494(2)
Cd1I Cd 0.57957(3) 0.61459(3) -0.02161(2)
Cd1L Cd -0.08710(3) 0.28126(3) -0.35494(2)
Cd1B Cd -0.03502(4) -0.42043(3) 0.02161(2)
Cd1G Cd -0.05208(3) -0.29831(4) -0.31172(2)
Cd1N Cd 0.36835(4) 0.08710(3) -0.35494(2)
Cd1C Cd 0.08710(3) -0.28126(3) 0.35494(2)
Cd1B_2 Cd -0.03502(4) 0.57957(3) 0.02161(2)
Cd2O Cd 0.33206(3) 0.16147(3) 0.41397(2)
Cd2K Cd 0.16275(4) 0.33461(3) 0.08064(2)
Cd2H Cd 0.17058(4) 0.33206(3) -0.41397(2)
Cd2E Cd 0.50392(4) -0.00128(3) 0.25269(2)
Cd2A Cd -0.17186(3) 0.16275(4) -0.08064(2)
Cd2J Cd 0.17186(3) -0.16275(4) 0.08064(2)
Cd2D Cd 0.49481(3) 0.49608(4) 0.25269(2)
Cd2N Cd 0.49608(4) 0.00128(3) -0.25269(2)
Cd2A_2 Cd 0.82814(3) 0.16275(4) -0.08064(2)
Cd2L Cd 0.99872(3) 0.49481(3) -0.25269(2)
Cd2B Cd 0.83725(4) 0.66539(3) -0.08064(2)
Cd2M Cd 0.50519(3) 0.50392(4) -0.25269(2)
Cd2L_2 Cd -0.00128(3) 0.49481(3) -0.25269(2)
Cd2B_2 Cd -0.16275(4) -0.33461(3) -0.08064(2)
Cd2L_3 Cd -0.00128(3) -0.50519(3) -0.25269(2)
Cd2G Cd 0.16147(3) -0.17058(4) -0.41397(2)
O1O O 0.2760(4) 0.0890(3) 0.3095(2)
O1K O 0.1464(5) 0.3907(4) -0.0238(2)
O1H O 0.1869(5) 0.2760(4) -0.3095(2)
O1J O 0.2443(3) -0.1464(5) -0.0238(2)
O1G O 0.0890(3) -0.1869(5) -0.3095(2)
O1D O 0.4224(3) 0.4797(5) 0.3571(2)
O2O O 0.3973(4) 0.2100(4) 0.3273(2)
O2K O 0.1461(6) 0.2694(4) -0.0060(2)
O2H O 0.1872(6) 0.3973(4) -0.3273(2)
O2J O 0.1233(4) -0.1461(6) -0.0060(2)
O2G O 0.2100(4) -0.1872(6) -0.3273(2)
O2E O 0.5206(6) 0.0639(4) 0.3393(2)
O2A O -0.1233(4) 0.1461(6) 0.0060(2)
O3O O 0.3619(3) -0.0064(3) 0.2517(2)
O3K O -0.0349(4) 0.3048(3) -0.0816(2)
O3H O 0.3682(4) 0.3619(3) -0.2517(2)
O3J O 0.3397(3) 0.0349(4) -0.0816(2)
O3G O -0.0064(3) -0.3682(4) -0.2517(2)
O3D O 0.3270(3) 0.2984(4) 0.4149(2)
O3L O 0.0285(3) 0.3270(3) -0.4149(2)
O4O O 0.4704(3) 0.0864(3) 0.1988(2)
O4K O -0.0506(4) 0.1963(3) -0.1345(2)
O4H O 0.3839(4) 0.4704(3) -0.1988(2)
O4J O 0.2469(3) 0.0506(4) -0.1345(2)
O4G O 0.0864(3) -0.3839(4) -0.1988(2)
O4D O 0.4198(3) 0.2827(4) 0.4678(2)
O4L O 0.1370(3) 0.4198(3) -0.4678(2)
O5O O 0.4056(4) 0.3620(4) 0.2313(3)
O5K O 0.2898(6) 0.2611(4) -0.1020(3)
O5H O 0.0435(6) 0.4056(4) -0.2313(3)
O5J O -0.0287(4) -0.2898(6) -0.1020(3)
O5G O 0.3620(4) -0.0435(6) -0.2313(3)
O5E O 0.3769(6) 0.0722(4) 0.4353(3)
O5A O 0.0287(4) 0.2898(6) 0.1020(3)
O5M O 0.3046(4) 0.3769(6) -0.4353(3)
O5P O 0.6380(4) 0.0435(6) 0.2313(3)
O5I O -0.2611(4) 0.0287(4) -0.1020(3)
O6O O 0.2797(4) 0.2937(5) 0.2784(3)
O6K O 0.3474(6) 0.3870(4) -0.0549(3)
O6H O -0.0141(6) 0.2797(4) -0.2784(3)
O6J O 0.0396(5) -0.3474(6) -0.0549(3)
O6G O 0.2937(5) 0.0141(6) -0.2784(3)
O6E O 0.3193(6) -0.0537(4) 0.3882(3)
O6A O -0.0396(5) 0.3474(6) 0.0549(3)
O6M O 0.3729(5) 0.3193(6) -0.3882(3)
O7N O 0.5598(4) 0.1413(3) -0.2361(2)
O7A O 0.7519(3) 0.2265(4) -0.0972(2)
O7L O 0.8587(3) 0.4186(3) -0.2361(2)
O7B O 0.7735(4) 0.5254(3) -0.0972(2)
O7M O 0.5814(3) 0.4402(4) -0.2361(2)
O7O O 0.1921(3) 0.0852(3) 0.4305(2)
O7K O 0.2265(4) 0.4746(3) 0.0972(2)
O7H O 0.1068(4) 0.1921(3) -0.4305(2)
O7E O 0.4402(4) -0.1413(3) 0.2361(2)
O7A_2 O -0.2481(3) 0.2265(4) -0.0972(2)
O8N O 0.5412(5) 0.0830(3) -0.1492(2)
O8A O 0.7916(4) 0.2079(5) -0.1841(2)
O8L O 0.9170(3) 0.4583(4) -0.1492(2)
O8B O 0.7921(5) 0.5837(3) -0.1841(2)
O8M O 0.5417(4) 0.4588(5) -0.1492(2)
O9I O 0.5467(3) 0.4649(4) -0.0345(2)
O9O O 0.2134(3) -0.2018(4) 0.2988(2)
O9C O 0.1200(3) -0.1316(4) 0.3678(2)
O9K O -0.0818(5) 0.4533(3) -0.0345(2)
O9B O 0.0818(5) 0.5467(3) 0.0345(2)
O9N O 0.2515(5) 0.1200(3) -0.3678(2)
O9H O 0.4151(5) 0.2134(3) -0.2988(2)
O9A O 0.4649(4) -0.0818(5) 0.0345(2)
O9J O 0.5351(4) 0.0818(5) -0.0345(2)
O9D O 0.1316(4) 0.2515(5) 0.3678(2)
O9P O 0.2018(4) 0.4151(5) 0.2988(2)
H1I H 0.579(4) 0.445(5) -0.023(3)
H1O H 0.246(4) -0.222(5) 0.310(3)
H1C H 0.088(4) -0.112(5) 0.356(3)
H1K H -0.134(6) 0.421(4) -0.023(3)
H1B H 0.134(6) 0.579(4) 0.023(3)
H1N H 0.199(6) 0.088(4) -0.356(3)
H1H H 0.467(6) 0.246(4) -0.310(3)
H1A H 0.445(5) -0.134(6) 0.023(3)
H1J H 0.555(5) 0.134(6) -0.023(3)
H1D H 0.112(5) 0.199(6) 0.356(3)
H1P H 0.222(5) 0.467(6) 0.310(3)
H2I H 0.544(6) 0.462(7) -0.0716(6)
H2O H 0.211(6) -0.205(7) 0.2617(6)
H2C H 0.123(6) -0.129(7) 0.4049(6)
H2K H -0.082(9) 0.456(6) -0.0716(6)
H2B H 0.082(9) 0.544(6) 0.0716(6)
H2N H 0.251(9) 0.123(6) -0.4049(6)
H2H H 0.415(9) 0.211(6) -0.2617(6)
H2A H 0.462(7) -0.082(9) 0.0716(6)
H2J H 0.538(7) 0.082(9) -0.0716(6)
H2D H 0.129(7) 0.251(9) 0.4049(6)
H2P H 0.205(7) 0.415(9) 0.2617(6)
O10O O 0.1451(4) -0.0919(4) 0.2398(2)
O10K O 0.0964(6) 0.5216(4) -0.0935(2)
O10H O 0.2369(6) 0.1451(4) -0.2398(2)
O10J O 0.4252(4) -0.0964(6) -0.0935(2)
O10D O 0.2415(4) 0.4297(6) 0.4268(2)
H3O H 0.1118 -0.1456 0.2331
H3K H 0.0760 0.5549 -0.1002
H3H H 0.2573 0.1118 -0.2331
H3J H 0.4789 -0.0760 -0.1002
H3D H 0.1878 0.4093 0.4335
H4O H 0.1135 -0.0700 0.2482
H4K H 0.1499 0.5532 -0.0851
H4H H 0.1834 0.1135 -0.2482
H4J H 0.4033 -0.1499 -0.0851
H4D H 0.2634 0.4832 0.4184
C1O C 0.3619(5) 0.1753(4) 0.2276(3)
C1K C 0.1468(6) 0.3048(5) -0.1057(3)
C1H C 0.1865(6) 0.3619(5) -0.2276(3)
C1J C 0.1580(4) -0.1468(6) -0.1057(3)
C1G C 0.1753(4) -0.1865(6) -0.2276(3)
H5O H 0.4237 0.2174 0.2225
H5K H 0.1271 0.2430 -0.1108
H5H H 0.2062 0.4237 -0.2225
H5J H 0.1159 -0.1271 -0.1108
H5G H 0.2174 -0.2062 -0.2225
C2O C 0.3397(4) 0.0933(4) 0.1920(3)
C2K C 0.0870(6) 0.3270(4) -0.1413(3)
C2H C 0.2463(6) 0.3397(4) -0.1920(3)
C2J C 0.2400(4) -0.0870(6) -0.1413(3)
C2G C 0.0933(4) -0.2463(6) -0.1920(3)
H6O H 0.2780 0.0510 0.1970
H6K H 0.1064 0.3887 -0.1363
H6H H 0.2269 0.2780 -0.1970
H6J H 0.2823 -0.1064 -0.1363
H6G H 0.0510 -0.2269 -0.1970
C3O C 0.3090(5) 0.2168(4) 0.2066(3)
C3K C 0.2412(6) 0.3577(5) -0.1267(3)
C3H C 0.0921(6) 0.3090(5) -0.2066(3)
C3J C 0.1165(4) -0.2412(6) -0.1267(3)
C3G C 0.2168(4) -0.0921(6) -0.2066(3)
H7O H 0.2471 0.1754 0.2119
H7K H 0.2617 0.4196 -0.1214
H7H H 0.0716 0.2471 -0.2119
H7J H 0.1579 -0.2617 -0.1214
H7G H 0.1754 -0.0716 -0.2119
C4O C 0.3439(5) 0.1551(5) 0.2926(3)
C4K C 0.1446(7) 0.3228(5) -0.0407(3)
C4H C 0.1887(7) 0.3439(5) -0.2926(3)
C4J C 0.1782(5) -0.1446(7) -0.0407(3)
C4G C 0.1551(5) -0.1887(7) -0.2926(3)
C5O C 0.3933(5) 0.0544(5) 0.2152(3)
C5K C -0.0055(7) 0.2734(5) -0.1181(3)
C5H C 0.3388(7) 0.3933(5) -0.2152(3)
C5J C 0.2789(5) 0.0055(7) -0.1181(3)
C5G C 0.0544(5) -0.3388(7) -0.2152(3)
C6O C 0.3334(6) 0.2986(5) 0.2413(3)
C6K C 0.2986(8) 0.3333(6) -0.0920(3)
C6H C 0.0347(8) 0.3334(6) -0.2413(3)
C6J C 0.0347(5) -0.2986(8) -0.0920(3)
C6G C 0.2986(5) -0.0347(8) -0.2413(3)
C7M C 0.6219(4) 0.3834(6) -0.1561(3)
C7B C 0.7167(6) 0.4281(4) -0.1772(3)
C7L C 0.7614(4) 0.3781(4) -0.1561(3)
C7A C 0.7114(4) 0.2833(6) -0.1772(3)
C7N C 0.6166(6) 0.2386(4) -0.1561(3)
H8N H 0.6150 0.2356 -0.1134
H8A H 0.7128 0.2817 -0.2199
H8L H 0.7644 0.3795 -0.1134
H8B H 0.7183 0.4311 -0.2199
H8M H 0.6205 0.3850 -0.1134
C8N C 0.5681(6) 0.1469(5) -0.1816(3)
C8A C 0.7546(4) 0.2348(6) -0.1517(3)
C8L C 0.8531(5) 0.4213(4) -0.1816(3)
C8B C 0.7652(6) 0.5198(5) -0.1517(3)
C8M C 0.5787(4) 0.4319(6) -0.1816(3)
O11 O 0.3251(5) 0.5605(5) -0.0055(4)
H9 H 0.286(4) 0.553(6) 0.019(4)
H10 H 0.306(6) 0.515(4) -0.027(4)
O12 O 0.5730(16) 0.3340(18) 0.1637(11)
O14 O 0.0000 0.0000 0.0000
O15 O 0.0939(14) -0.0063(15) 0.0548(10)
O13? O 0.582(3) 0.300(3) 0.117(2)
loop_
_geom_bond_atom_site_label_1
_geom_bond_atom_site_label_2
_geom_bond_site_symmetry_1
_geom_bond_site_symmetry_2
Cd1 O1 1_555 1_555
Cd2 O2 1_555 1_555
O1 C4 1_555 1_555
O2 C4 1_555 1_555
O3 Cd1 1_555 1_555
O4 C5 1_555 1_555
O5 C6 1_555 1_555
O6 C6 1_555 1_555
O7 Cd2 1_555 1_555
O8 C8 1_555 1_555
O9 Cd1 1_555 1_555
H1 O9 1_555 1_555
H2 O9 1_555 1_555
O10 Cd1 1_555 1_555
H3 O10 1_555 1_555
H4 O10 1_555 1_555
C1 H5 1_555 1_555
C2 C1 1_555 1_555
H6 C2 1_555 1_555
C3 C1 1_555 1_555
H7 C3 1_555 1_555
C4 C1 1_555 1_555
C5 O3 1_555 1_555
C6 C3 1_555 1_555
C7 H8 1_555 1_555
C8 O7 1_555 1_555
O11 H9 1_555 1_555
H10 O11 1_555 1_555
Cd1O O1O 1_555 1_555
Cd1K O1K 1_555 1_555
Cd1H O1H 1_555 1_555
Cd1J O6 1_555 1_555
Cd1D O1D 1_555 1_555
Cd1I O9 1_555 1_555
Cd1L O3L 1_555 1_555
Cd1B O6J 1_555 1_555
Cd1G O1G 1_555 1_555
Cd1N O6G 1_555 1_555
Cd1C O9O 1_555 1_555
Cd1B_2 O9K 1_555 1_555
Cd2O O2O 1_555 1_555
Cd2K O3 1_555 1_555
Cd2H O2H 1_555 1_555
Cd2E O2E 1_555 1_555
Cd2A O2A 1_555 1_555
Cd2J O5 1_555 1_555
Cd2D O5O 1_555 1_555
Cd2N O5G 1_555 1_555
Cd2A_2 O7A 1_555 1_555
Cd2L O7L 1_555 1_555
Cd2B O7B 1_555 1_555
Cd2M O3H 1_555 1_555
Cd2L_2 O5H 1_555 1_555
Cd2B_2 O5J 1_555 1_555
Cd2L_3 O3G 1_555 1_555
Cd2G O2G 1_555 1_555
O1O C4O 1_555 1_555
O1K C4K 1_555 1_555
O1H C4H 1_555 1_555
O1J Cd1J 1_555 1_555
O1G C4G 1_555 1_555
O2O C4O 1_555 1_555
O2K Cd2K 1_555 1_555
O2H C4H 1_555 1_555
O2J Cd2J 1_555 1_555
O2G C4G 1_555 1_555
O3O Cd1O 1_555 1_555
O3K Cd1K 1_555 1_555
O3H Cd1H 1_555 1_555
O3J Cd2 1_555 1_555
O3G Cd1G 1_555 1_555
O3D Cd1D 1_555 1_555
O3L Cd2H 1_555 1_555
O4O Cd2E 1_555 1_555
O4K Cd2A 1_555 1_555
O4H Cd2M 1_555 1_555
O4J Cd2 1_555 1_555
O4G Cd2L_3 1_555 1_555
O4D Cd2O 1_555 1_555
O4L Cd2H 1_555 1_555
O5O C6O 1_555 1_555
O5K Cd2 1_555 1_555
O5H C6H 1_555 1_555
O5J C6J 1_555 1_555
O5G C6G 1_555 1_555
O5E Cd2O 1_555 1_555
O5A Cd2K 1_555 1_555
O5M Cd2H 1_555 1_555
O5P Cd2E 1_555 1_555
O5I Cd2A 1_555 1_555
O6O Cd1D 1_555 1_555
O6K Cd1 1_555 1_555
O6H Cd1L 1_555 1_555
O6J C6J 1_555 1_555
O6G C6G 1_555 1_555
O6E Cd1O 1_555 1_555
O6A Cd1K 1_555 1_555
O6M Cd1H 1_555 1_555
O7N Cd2N 1_555 1_555
O7A C8A 1_555 1_555
O7L C8L 1_555 1_555
O7B C8B 1_555 1_555
O7M Cd2M 1_555 1_555
O7O Cd2O 1_555 1_555
O7K Cd2K 1_555 1_555
O7H Cd2H 1_555 1_555
O7E Cd2E 1_555 1_555
O7A_2 Cd2A 1_555 1_555
O8N C8N 1_555 1_555
O8A C8A 1_555 1_555
O8L C8L 1_555 1_555
O8B C8B 1_555 1_555
O8M C8M 1_555 1_555
O9I Cd1 1_555 1_555
O9O Cd1O 1_555 1_555
O9C Cd1O 1_555 1_555
O9K Cd1K 1_555 1_555
O9B Cd1K 1_555 1_555
O9N Cd1H 1_555 1_555
O9H Cd1H 1_555 1_555
O9A Cd1J 1_555 1_555
O9J Cd1J 1_555 1_555
O9D Cd1D 1_555 1_555
O9P Cd1D 1_555 1_555
H1I O9I 1_555 1_555
H1O O9O 1_555 1_555
H1C O9C 1_555 1_555
H1K O9K 1_555 1_555
H1B O9B 1_555 1_555
H1N O9N 1_555 1_555
H1H O9H 1_555 1_555
H1A O9A 1_555 1_555
H1J O9J 1_555 1_555
H1D O9D 1_555 1_555
H1P O9P 1_555 1_555
H2I O9I 1_555 1_555
H2O O9O 1_555 1_555
H2C O9C 1_555 1_555
H2K O9K 1_555 1_555
H2B O9B 1_555 1_555
H2N O9N 1_555 1_555
H2H O9H 1_555 1_555
H2A O9A 1_555 1_555
H2J O9J 1_555 1_555
H2D O9D 1_555 1_555
H2P O9P 1_555 1_555
O10O Cd1O 1_555 1_555
O10K Cd1K 1_555 1_555
O10H Cd1H 1_555 1_555
O10J Cd1J 1_555 1_555
O10D Cd1D 1_555 1_555
H3O O10O 1_555 1_555
H3K O10K 1_555 1_555
H3H O10H 1_555 1_555
H3J O10J 1_555 1_555
H3D O10D 1_555 1_555
H4O O10O 1_555 1_555
H4K O10K 1_555 1_555
H4H O10H 1_555 1_555
H4J O10J 1_555 1_555
H4D O10D 1_555 1_555
C1O H5O 1_555 1_555
C1K H5K 1_555 1_555
C1H H5H 1_555 1_555
C1J H5J 1_555 1_555
C1G H5G 1_555 1_555
C2O C3 1_555 1_555
C2K C1K 1_555 1_555
C2H C1H 1_555 1_555
C2J C1J 1_555 1_555
C2G C1G 1_555 1_555
H6O C2O 1_555 1_555
H6K C2K 1_555 1_555
H6H C2H 1_555 1_555
H6J C2J 1_555 1_555
H6G C2G 1_555 1_555
C3O C2 1_555 1_555
C3K C1K 1_555 1_555
C3H C1H 1_555 1_555
C3J C1J 1_555 1_555
C3G C1G 1_555 1_555
H7O C3O 1_555 1_555
H7K C3K 1_555 1_555
H7H C3H 1_555 1_555
H7J C3J 1_555 1_555
H7G C3G 1_555 1_555
C4O C1O 1_555 1_555
C4K O2K 1_555 1_555
C4H C1H 1_555 1_555
C4J O1J 1_555 1_555
C4G C1G 1_555 1_555
C5O O3O 1_555 1_555
C5K O3K 1_555 1_555
C5H O3H 1_555 1_555
C5J O3J 1_555 1_555
C5G O3G 1_555 1_555
C6O O6O 1_555 1_555
C6K O5K 1_555 1_555
C6H O6H 1_555 1_555
C6J C3J 1_555 1_555
C6G C3G 1_555 1_555
C7M C7 1_555 1_555
C7B C7M 1_555 1_555
C7L C7B 1_555 1_555
C7A C7L 1_555 1_555
C7N C7 1_555 1_555
H8N C7N 1_555 1_555
H8A C7A 1_555 1_555
H8L C7L 1_555 1_555
H8B C7B 1_555 1_555
H8M C7M 1_555 1_555
C8N O7N 1_555 1_555
C8A C7A 1_555 1_555
C8L C7L 1_555 1_555
C8B C7B 1_555 1_555
C8M O7M 1_555 1_555
O4 Cd2K 1_555 1_555
C2 C5 1_555 1_555
C7 C8 1_555 1_555
Cd1J O3J 1_555 1_555
Cd1I O9I 1_555 1_555
Cd1N O9N 1_555 1_555
Cd1N O9H 1_555 1_555
Cd1C O9C 1_555 1_555
Cd1B_2 O9B 1_555 1_555
Cd2O O3D 1_555 1_555
Cd2E O3O 1_555 1_555
Cd2A O3K 1_555 1_555
O2J C4J 1_555 1_555
O4O C5O 1_555 1_555
O4K C5K 1_555 1_555
O4H C5H 1_555 1_555
O4J C5J 1_555 1_555
O4G C5G 1_555 1_555
O6K C6K 1_555 1_555
C1O C2O 1_555 1_555
C1O C3O 1_555 1_555
C1K C4K 1_555 1_555
C1J C4J 1_555 1_555
C2O C5O 1_555 1_555
C2K C3H 1_555 1_555
C2K C5K 1_555 1_555
C2H C3K 1_555 1_555
C2H C5H 1_555 1_555
C2J C3G 1_555 1_555
C2J C5J 1_555 1_555
C2G C3J 1_555 1_555
C2G C5G 1_555 1_555
C3O C6O 1_555 1_555
C3K C6K 1_555 1_555
C3H C6H 1_555 1_555
C7M C8M 1_555 1_555
C7A C7N 1_555 1_555
C7N C8N 1_555 1_555

#END
