
#######################################################################
#
#                 Cambridge Crystallographic Data Centre
#                                CCDC 
#
#######################################################################
#
# If this CIF has been generated from an entry in the Cambridge 
# Structural Database, then it will include bibliographic, chemical, 
# crystal, experimental, refinement or atomic coordinate data resulting 
# from the CCDC's data processing and validation procedures.
#
#######################################################################

data_YEMMAF
_symmetry_cell_setting           rhombohedral
_symmetry_space_group_name_H-M   'R -3'
_symmetry_Int_Tables_number      148
_space_group_name_Hall           '-R 3'
loop_
_symmetry_equiv_pos_site_id
_symmetry_equiv_pos_as_xyz
1 x,y,z
2 -y,x-y,z
3 -x+y,-x,z
4 1/3+x,2/3+y,2/3+z
5 2/3+x,1/3+y,1/3+z
6 2/3-y,1/3+x-y,1/3+z
7 2/3-x+y,1/3-x,1/3+z
8 1/3-y,2/3+x-y,2/3+z
9 1/3-x+y,2/3-x,2/3+z
10 -x,-y,-z
11 y,-x+y,-z
12 x-y,x,-z
13 2/3-x,1/3-y,1/3-z
14 1/3-x,2/3-y,2/3-z
15 1/3+y,2/3-x+y,2/3-z
16 1/3+x-y,2/3+x,2/3-z
17 2/3+y,1/3-x+y,1/3-z
18 2/3+x-y,1/3+x,1/3-z
_cell_length_a                   27.9486(4)
_cell_length_b                   27.9486(4)
_cell_length_c                   6.23018(14)
_cell_angle_alpha                90
_cell_angle_beta                 90
_cell_angle_gamma                120.0
_cell_volume                     4214.55
loop_
_atom_site_label
_atom_site_type_symbol
_atom_site_fract_x
_atom_site_fract_y
_atom_site_fract_z
Ni1 Ni 0.63786(19) 0.02840(21) 0.0517(7)
P1 P 0.61355(32) 0.03959(32) 0.5729(13)
O1 O 0.6141(6) 0.0947(5) 0.5185(23)
O2 O 0.6306(7) 0.0104(6) 0.3692(26)
O3 O 0.6611(6) 0.0472(7) 0.7288(25)
O4 O 0.6566(5) 0.1098(6) 0.1253(24)
N1 N 0.5567(9) 0.0062(8) 0.9706(31)
C1 C 0.5437(9) 0.0568(9) 0.986(4)
C2 C 0.5180(10) -0.0387(9) 1.084(4)
C3 C 0.5468(11) -0.0115(8) 0.7300(32)
Ni1I Ni 0.36214(19) -0.02840(21) 1.9483(7)
Ni1E Ni 0.63827(21) -0.05721(28) 0.3850(7)
Ni1_2 Ni 0.63786(19) 0.02840(21) 1.0517(7)
Ni1H Ni 0.72387(28) 0.02881(19) 0.7184(7)
Ni1I_2 Ni 0.36214(19) -0.02840(21) 0.9483(7)
Ni1N Ni 0.36173(21) 0.05721(28) 1.6150(7)
Ni1Q Ni 0.27613(28) -0.02881(19) 1.2816(7)
P1I P 0.38645(32) -0.03959(32) 1.4271(13)
O1I O 0.3859(6) -0.0947(5) 1.4815(23)
O2I O 0.3694(7) -0.0104(6) 1.6308(26)
O2H O 0.7131(9) 0.0361(7) 0.0359(26)
O2Q O 0.2869(9) -0.0361(7) 1.9641(26)
O3I O 0.3389(6) -0.0472(7) 1.2712(25)
O3_2 O 0.6611(6) 0.0472(7) -0.2712(25)
O3E O 0.6195(7) -0.0528(9) 0.0621(25)
O3I_2 O 0.3389(6) -0.0472(7) 2.2712(25)
O3N O 0.3805(7) 0.0528(9) 1.9379(25)
O4I O 0.3434(5) -0.1098(6) 1.8747(24)
N1I N 0.4433(9) -0.0062(8) 1.0294(31)
N1_2 N 0.5567(9) 0.0062(8) -0.0294(31)
N1I_2 N 0.4433(9) -0.0062(8) 2.0294(31)
C1I C 0.4563(9) -0.0568(9) 1.014(4)
C2I C 0.4820(10) 0.0387(9) 0.916(4)
C3I C 0.4532(11) 0.0115(8) 1.2700(32)
O5 O 0.1950(6) 0.0835(6) 0.1743(27)
O6 O 0.0375(6) 0.0745(6) 0.1830(26)
O7 O 0.1422(7) 0.1488(6) 0.4453(25)
loop_
_geom_bond_atom_site_label_1
_geom_bond_atom_site_label_2
_geom_bond_site_symmetry_1
_geom_bond_site_symmetry_2
Ni1 O2 1_555 1_555
P1 O1 1_555 1_555
O2 P1 1_555 1_555
O3 P1 1_555 1_555
O4 Ni1 1_555 1_555
N1 C1 1_555 1_555
C1 C2I 1_555 1_555
C2 N1 1_555 1_555
C3 P1 1_555 1_555
Ni1I O2I 1_555 1_555
Ni1E O2 1_555 1_555
Ni1_2 O3 1_555 1_555
Ni1H O3 1_555 1_555
Ni1I_2 O3I 1_555 1_555
Ni1N O2I 1_555 1_555
Ni1Q O3I 1_555 1_555
P1I O1I 1_555 1_555
O2I P1I 1_555 1_555
O2H Ni1 1_555 1_555
O2Q Ni1I 1_555 1_555
O3I P1I 1_555 1_555
O3_2 Ni1 1_555 1_555
O3E Ni1 1_555 1_555
O3I_2 Ni1I 1_555 1_555
O3N Ni1I 1_555 1_555
O4I Ni1I 1_555 1_555
N1I Ni1I_2 1_555 1_555
N1_2 Ni1 1_555 1_555
N1I_2 Ni1I 1_555 1_555
C1I C2 1_555 1_555
C2I N1I 1_555 1_555
C3I P1I 1_555 1_555
N1 C3 1_555 1_555
N1 Ni1_2 1_555 1_555
Ni1E O3E 1_555 1_555
Ni1N O3N 1_555 1_555
N1I C1I 1_555 1_555
N1I C3I 1_555 1_555

#END
