
#######################################################################
#
#                 Cambridge Crystallographic Data Centre
#                                CCDC 
#
#######################################################################
#
# If this CIF has been generated from an entry in the Cambridge 
# Structural Database, then it will include bibliographic, chemical, 
# crystal, experimental, refinement or atomic coordinate data resulting 
# from the CCDC's data processing and validation procedures.
#
#######################################################################

data_YEMNUA
_symmetry_cell_setting           triclinic
_symmetry_space_group_name_H-M   'P 1'
_symmetry_Int_Tables_number      1
_space_group_name_Hall           'P 1'
loop_
_symmetry_equiv_pos_site_id
_symmetry_equiv_pos_as_xyz
1 x,y,z
_cell_length_a                   4.955(2)
_cell_length_b                   9.904(4)
_cell_length_c                   12.252(5)
_cell_angle_alpha                99.657(6)
_cell_angle_beta                 97.299(6)
_cell_angle_gamma                97.077(5)
_cell_volume                     581.479
loop_
_atom_site_label
_atom_site_type_symbol
_atom_site_fract_x
_atom_site_fract_y
_atom_site_fract_z
Sn1 Sn 0.6440(2) 0.24337(16) 0.03514(13)
F1 F 0.8852(19) 0.5682(9) 0.2650(8)
F2 F 0.842(3) 0.6645(17) 0.4706(17)
F3 F 1.102(4) 0.5739(19) 0.6385(12)
F4 F 1.454(3) 0.3744(19) 0.5980(12)
F5 F -0.1854(18) 0.2134(8) -0.3242(6)
F6 F -0.069(3) 0.1200(16) -0.5267(10)
F7 F 0.246(4) -0.0601(19) -0.5661(12)
F8 F 0.511(3) -0.1640(19) -0.3922(19)
O1 O 1.034(3) 0.3785(14) 0.1208(12)
O2 O 1.441(2) 0.3136(15) 0.1846(12)
O3 O 0.230(3) 0.1260(13) -0.0455(12)
O4 O -0.191(3) 0.1513(17) -0.1186(13)
C1 C 1.227(4) 0.366(2) 0.1981(18)
C2 C 1.187(4) 0.414(2) 0.3139(18)
C3 C 1.019(4) 0.514(2) 0.3449(15)
C4 C 0.983(5) 0.558(3) 0.4462(15)
C5 C 1.135(4) 0.506(2) 0.5344(14)
C6 C 1.270(5) 0.407(2) 0.5163(15)
C7 C 1.319(5) 0.358(2) 0.4045(13)
H1 H 1.4339 0.2921 0.3907
C8 C 0.056(5) 0.122(2) -0.1266(17)
C9 C 0.107(4) 0.069(2) -0.2468(17)
C10 C -0.028(5) 0.110(2) -0.3345(13)
C11 C 0.006(5) 0.063(2) -0.4402(13)
C12 C 0.212(4) -0.034(2) -0.4580(14)
C13 C 0.317(5) -0.080(3) -0.3764(16)
C14 C 0.284(5) -0.027(2) -0.2583(15)
H2 H 0.3763 -0.0563 -0.1976
C15 C 0.529(3) 0.4094(16) -0.0397(16)
H3 H 0.3968 0.3709 -0.1064
H4 H 0.4353 0.4653 0.0118
C16 C 0.752(4) 0.5026(17) -0.0717(16)
H5 H 0.8632 0.4444 -0.1126
H6 H 0.8675 0.5511 -0.0031
C17 C 0.681(4) 0.6107(18) -0.1409(16)
H7 H 0.6503 0.5677 -0.2195
H8 H 0.5095 0.6401 -0.1230
C18 C 0.896(5) 0.738(2) -0.124(2)
H9 H 0.8338 0.8006 -0.1699
H10 H 1.0651 0.7107 -0.1446
H11 H 0.9266 0.7824 -0.0467
C19 C 0.733(3) 0.0907(17) 0.1281(14)
H12 H 0.9004 0.0590 0.1074
H13 H 0.7739 0.1348 0.2064
C20 C 0.521(3) -0.0358(14) 0.1187(12)
H14 H 0.4674 -0.0786 0.0404
H15 H 0.3590 -0.0079 0.1475
C21 C 0.631(3) -0.1411(15) 0.1833(14)
H16 H 0.7701 -0.1816 0.1450
H17 H 0.7207 -0.0929 0.2571
C22 C 0.416(4) -0.256(2) 0.197(2)
H18 H 0.5007 -0.3170 0.2391
H19 H 0.3313 -0.3068 0.1244
H20 H 0.2789 -0.2171 0.2358
Sn1_2 Sn 1.6440(2) 0.24337(16) 0.03514(13)
Sn1_3 Sn -0.3560(2) 0.24337(16) 0.03514(13)
O2_2 O 0.441(2) 0.3136(15) 0.1846(12)
O4_2 O 0.809(3) 0.1513(17) -0.1186(13)
loop_
_geom_bond_atom_site_label_1
_geom_bond_atom_site_label_2
_geom_bond_site_symmetry_1
_geom_bond_site_symmetry_2
Sn1 O1 1_555 1_555
F1 C3 1_555 1_555
F2 C4 1_555 1_555
F3 C5 1_555 1_555
F4 C6 1_555 1_555
F5 C10 1_555 1_555
F6 C11 1_555 1_555
F7 C12 1_555 1_555
F8 C13 1_555 1_555
O1 C1 1_555 1_555
O2 C1 1_555 1_555
O3 Sn1 1_555 1_555
O4 C8 1_555 1_555
C1 C2 1_555 1_555
C2 C3 1_555 1_555
C3 C4 1_555 1_555
C4 C5 1_555 1_555
C5 C6 1_555 1_555
C6 C7 1_555 1_555
C7 C2 1_555 1_555
H1 C7 1_555 1_555
C8 O3 1_555 1_555
C9 C8 1_555 1_555
C10 C9 1_555 1_555
C11 C10 1_555 1_555
C12 C11 1_555 1_555
C13 C12 1_555 1_555
C14 C9 1_555 1_555
H2 C14 1_555 1_555
C15 Sn1 1_555 1_555
H3 C15 1_555 1_555
H4 C15 1_555 1_555
C16 C15 1_555 1_555
H5 C16 1_555 1_555
H6 C16 1_555 1_555
C17 C16 1_555 1_555
H7 C17 1_555 1_555
H8 C17 1_555 1_555
C18 C17 1_555 1_555
H9 C18 1_555 1_555
H10 C18 1_555 1_555
H11 C18 1_555 1_555
C19 Sn1 1_555 1_555
H12 C19 1_555 1_555
H13 C19 1_555 1_555
C20 C19 1_555 1_555
H14 C20 1_555 1_555
H15 C20 1_555 1_555
C21 C20 1_555 1_555
H16 C21 1_555 1_555
H17 C21 1_555 1_555
C22 C21 1_555 1_555
H18 C22 1_555 1_555
H19 C22 1_555 1_555
H20 C22 1_555 1_555
Sn1_2 O2 1_555 1_555
Sn1_3 O4 1_555 1_555
O2_2 Sn1 1_555 1_555
O4_2 Sn1 1_555 1_555
C13 C14 1_555 1_555

#END
