
#######################################################################
#
#                 Cambridge Crystallographic Data Centre
#                                CCDC 
#
#######################################################################
#
# If this CIF has been generated from an entry in the Cambridge 
# Structural Database, then it will include bibliographic, chemical, 
# crystal, experimental, refinement or atomic coordinate data resulting 
# from the CCDC's data processing and validation procedures.
#
#######################################################################

data_YEMQAJ
_symmetry_cell_setting           triclinic
_symmetry_space_group_name_H-M   'P -1'
_symmetry_Int_Tables_number      2
_space_group_name_Hall           '-P 1'
loop_
_symmetry_equiv_pos_site_id
_symmetry_equiv_pos_as_xyz
1 x,y,z
2 -x,-y,-z
_cell_length_a                   5.8905(8)
_cell_length_b                   9.8972(14)
_cell_length_c                   10.1573(16)
_cell_angle_alpha                112.947(16)
_cell_angle_beta                 101.240(17)
_cell_angle_gamma                105.142(16)
_cell_volume                     496.172
loop_
_atom_site_label
_atom_site_type_symbol
_atom_site_fract_x
_atom_site_fract_y
_atom_site_fract_z
V1 V 0.81109(6) 0.62979(4) 0.51960(4)
Cl1 Cl 0.38703(8) 0.51673(5) 0.35739(5)
Cl2 Cl 0.93756(10) 0.71374(6) 0.36315(6)
Cl3 Cl 1.18254(8) 0.64917(5) 0.66190(5)
N1 N 0.8042(3) 0.80000(18) 0.63531(19)
C1 C 0.7769(4) 0.9385(2) 0.7162(2)
C2 C 0.5656(4) 0.9633(2) 0.6557(2)
H1 H 0.4479 0.8875 0.5602
C3 C 0.5329(4) 1.1017(3) 0.7391(3)
H2 H 0.3915 1.1190 0.6992
C4 C 0.7059(5) 1.2157(2) 0.8807(3)
C5 C 0.9178(5) 1.1899(2) 0.9380(2)
H3 H 1.0363 1.2669 1.0328
C6 C 0.9565(4) 1.0532(2) 0.8576(2)
H4 H 1.0999 1.0374 0.8969
C7 C 0.6622(7) 1.3636(3) 0.9686(3)
H5 H 0.5127 1.3356 0.9945
H6 H 0.6418 1.4167 0.9072
H7 H 0.8040 1.4335 1.0608
V1A V 0.18891(6) 0.37021(4) 0.48040(4)
V1A_2 V 1.18891(6) 0.37021(4) 0.48040(4)
Cl1A Cl 0.61297(8) 0.48327(5) 0.64261(5)
Cl3A Cl 0.81746(8) 0.35083(5) 0.33810(5)
loop_
_geom_bond_atom_site_label_1
_geom_bond_atom_site_label_2
_geom_bond_site_symmetry_1
_geom_bond_site_symmetry_2
V1 Cl1 1_555 1_555
Cl1 V1A 1_555 1_555
Cl2 V1 1_555 1_555
Cl3 V1 1_555 1_555
N1 V1 1_555 1_555
C1 N1 1_555 1_555
C2 C1 1_555 1_555
H1 C2 1_555 1_555
C3 C2 1_555 1_555
H2 C3 1_555 1_555
C4 C3 1_555 1_555
C5 C4 1_555 1_555
H3 C5 1_555 1_555
C6 C1 1_555 1_555
H4 C6 1_555 1_555
C7 C4 1_555 1_555
H5 C7 1_555 1_555
H6 C7 1_555 1_555
H7 C7 1_555 1_555
V1A Cl1A 1_555 1_555
V1A_2 Cl3 1_555 1_555
Cl1A V1 1_555 1_555
Cl3A V1 1_555 1_555
C5 C6 1_555 1_555
V1A_2 Cl3A 1_555 1_555

#END
