
#######################################################################
#
#                 Cambridge Crystallographic Data Centre
#                                CCDC 
#
#######################################################################
#
# If this CIF has been generated from an entry in the Cambridge 
# Structural Database, then it will include bibliographic, chemical, 
# crystal, experimental, refinement or atomic coordinate data resulting 
# from the CCDC's data processing and validation procedures.
#
#######################################################################

data_YEMTIT
_symmetry_cell_setting           triclinic
_symmetry_space_group_name_H-M   'P -1'
_symmetry_Int_Tables_number      2
_space_group_name_Hall           '-P 1'
loop_
_symmetry_equiv_pos_site_id
_symmetry_equiv_pos_as_xyz
1 x,y,z
2 -x,-y,-z
_cell_length_a                   8.248(3)
_cell_length_b                   8.408(3)
_cell_length_c                   9.993(4)
_cell_angle_alpha                83.89(4)
_cell_angle_beta                 69.73(3)
_cell_angle_gamma                86.02(3)
_cell_volume                     646.003
loop_
_atom_site_label
_atom_site_type_symbol
_atom_site_fract_x
_atom_site_fract_y
_atom_site_fract_z
Y1 Y 0.99488(9) -0.24140(8) 0.93145(8)
Cl1 Cl 0.89944(27) 0.07161(20) 0.89515(22)
Cl2 Cl 0.92866(29) -0.53830(20) 0.87731(23)
Cl3 Cl 1.30343(27) -0.24011(31) 0.75606(26)
O1 O 0.9168(7) -0.2113(6) 0.7193(6)
O2 O 0.7091(7) -0.2554(6) 1.0911(6)
C1 C 0.7488(13) -0.1611(15) 0.7135(11)
C2 C 0.7642(14) -0.1659(15) 0.5592(11)
C3 C 0.9141(18) -0.2647(21) 0.4962(14)
C4 C 1.0211(14) -0.2746(12) 0.5832(10)
C5 C 0.6643(16) -0.2001(19) 1.2299(14)
C6 C 0.5144(17) -0.2811(21) 1.3231(13)
C7 C 0.4410(13) -0.3534(15) 1.2352(12)
C8 C 0.5582(13) -0.3232(19) 1.0889(12)
H1 H 0.6519(13) -0.2419(15) 0.7821(11)
H2 H 0.7151(13) -0.0413(15) 0.7459(11)
H3 H 0.7795(14) -0.0467(15) 0.5051(11)
H4 H 0.6506(14) -0.2165(15) 0.5527(11)
H5 H 0.8753(18) -0.3831(21) 0.4902(14)
H6 H 0.9852(18) -0.2132(21) 0.3899(14)
H7 H 1.0610(14) -0.3975(12) 0.6019(10)
H8 H 1.1340(14) -0.2039(12) 0.5311(10)
H9 H 0.7701(16) -0.2259(19) 1.2698(14)
H10 H 0.6366(16) -0.0726(19) 1.2240(14)
H11 H 0.4221(17) -0.1967(21) 1.3860(13)
H12 H 0.5504(17) -0.3719(21) 1.3937(10)
H13 H 0.4304(13) -0.4806(15) 1.2650(12)
H14 H 0.3145(13) -0.3003(15) 1.2461(12)
H15 H 0.4964(13) -0.2414(19) 1.0291(12)
H16 H 0.5921(13) -0.4344(19) 1.0391(12)
Cl1A Cl 1.10056(27) -0.07161(20) 1.10485(22)
Cl2A Cl 1.07134(29) -0.46170(20) 1.12269(23)
Y1A Y 1.00512(9) 0.24140(8) 1.06855(8)
Y1A_2 Y 1.00512(9) -0.75860(8) 1.06855(8)
loop_
_geom_bond_atom_site_label_1
_geom_bond_atom_site_label_2
_geom_bond_site_symmetry_1
_geom_bond_site_symmetry_2
Y1 Cl1 1_555 1_555
Cl1 Y1A 1_555 1_555
Cl2 Y1 1_555 1_555
Cl3 Y1 1_555 1_555
O1 Y1 1_555 1_555
O2 Y1 1_555 1_555
C1 O1 1_555 1_555
C2 C1 1_555 1_555
C3 C2 1_555 1_555
C4 O1 1_555 1_555
C5 O2 1_555 1_555
C6 C5 1_555 1_555
C7 C6 1_555 1_555
C8 O2 1_555 1_555
H1 C1 1_555 1_555
H2 C1 1_555 1_555
H3 C2 1_555 1_555
H4 C2 1_555 1_555
H5 C3 1_555 1_555
H6 C3 1_555 1_555
H7 C4 1_555 1_555
H8 C4 1_555 1_555
H9 C5 1_555 1_555
H10 C5 1_555 1_555
H11 C6 1_555 1_555
H12 C6 1_555 1_555
H13 C7 1_555 1_555
H14 C7 1_555 1_555
H15 C8 1_555 1_555
H16 C8 1_555 1_555
Cl1A Y1 1_555 1_555
Cl2A Y1 1_555 1_555
Y1A Cl1A 1_555 1_555
Y1A_2 Cl2 1_555 1_555
C3 C4 1_555 1_555
C7 C8 1_555 1_555
Cl2A Y1A_2 1_555 1_555

#END
