
#######################################################################
#
#                 Cambridge Crystallographic Data Centre
#                                CCDC 
#
#######################################################################
#
# If this CIF has been generated from an entry in the Cambridge 
# Structural Database, then it will include bibliographic, chemical, 
# crystal, experimental, refinement or atomic coordinate data resulting 
# from the CCDC's data processing and validation procedures.
#
#######################################################################

data_YEMYIZ
_symmetry_cell_setting           orthorhombic
_symmetry_space_group_name_H-M   'P b c a'
_symmetry_Int_Tables_number      61
_space_group_name_Hall           '-P 2ac 2ab'
loop_
_symmetry_equiv_pos_site_id
_symmetry_equiv_pos_as_xyz
1 x,y,z
2 1/2-x,-y,1/2+z
3 -x,1/2+y,1/2-z
4 1/2+x,1/2-y,-z
5 -x,-y,-z
6 1/2+x,y,1/2-z
7 x,1/2-y,1/2+z
8 1/2-x,1/2+y,z
_cell_length_a                   11.1798(4)
_cell_length_b                   11.3646(3)
_cell_length_c                   16.9315(6)
_cell_angle_alpha                90
_cell_angle_beta                 90
_cell_angle_gamma                90
_cell_volume                     2151.21
loop_
_atom_site_label
_atom_site_type_symbol
_atom_site_fract_x
_atom_site_fract_y
_atom_site_fract_z
Ag1 Ag 0.08142(3) 0.67325(3) 0.33659(2)
P1 P 0.08019(12) 0.46584(11) 0.35695(8)
C1 C 0.2260(4) 0.3931(4) 0.3448(3)
H1 H 0.2635 0.4212 0.2953
H2 H 0.2788 0.4160 0.3891
C2 C -0.0020(5) 0.3876(4) 0.2787(3)
H3 H -0.0881 0.4071 0.2831
H4 H 0.0262 0.4162 0.2267
C3 C 0.0241(5) 0.3791(4) 0.4415(3)
H5 H 0.0694 0.4009 0.4895
H6 H -0.0611 0.3985 0.4507
N1 N 0.0360(4) 0.2509(4) 0.4276(3)
O1 O 0.0092(4) 0.8326(3) 0.4135(2)
H7 H 0.008(6) 0.809(5) 0.454(4)
H8 H -0.057(6) 0.858(5) 0.407(4)
N2 N 0.0122(4) 0.2548(3) 0.2816(2)
C4 C -0.0330(5) 0.2101(4) 0.3589(3)
H9 H -0.1172 0.2352 0.3653
H10 H -0.0318 0.1230 0.3579
N3 N 0.2170(4) 0.2615(3) 0.3422(3)
C5 C 0.1423(5) 0.2224(4) 0.2756(3)
H11 H 0.1486 0.1357 0.2713
H12 H 0.1750 0.2565 0.2264
C6 C 0.1635(5) 0.2174(4) 0.4164(3)
H13 H 0.2106 0.2479 0.4614
H14 H 0.1697 0.1305 0.4171
Ag1G Ag 0.41858(3) 0.17325(3) 0.33659(2)
Ag1B Ag -0.08142(3) 0.17325(3) 0.16341(2)
N2B N -0.0122(4) 0.7548(3) 0.2184(2)
N3G N 0.2830(4) 0.7615(3) 0.3422(3)
N4 N 0.7583(4) 0.0133(4) 0.4047(3)
O2 O 0.7982(5) 0.0155(5) 0.4716(3)
O3 O 0.6825(4) 0.0860(4) 0.3826(3)
O4 O 0.7943(5) -0.0652(5) 0.3571(3)
loop_
_geom_bond_atom_site_label_1
_geom_bond_atom_site_label_2
_geom_bond_site_symmetry_1
_geom_bond_site_symmetry_2
Ag1 P1 1_555 1_555
P1 C1 1_555 1_555
C1 H1 1_555 1_555
H2 C1 1_555 1_555
C2 P1 1_555 1_555
H3 C2 1_555 1_555
H4 C2 1_555 1_555
C3 P1 1_555 1_555
H5 C3 1_555 1_555
H6 C3 1_555 1_555
N1 C3 1_555 1_555
O1 Ag1 1_555 1_555
H7 O1 1_555 1_555
H8 O1 1_555 1_555
N2 C2 1_555 1_555
C4 N1 1_555 1_555
H9 C4 1_555 1_555
H10 C4 1_555 1_555
N3 C1 1_555 1_555
C5 N2 1_555 1_555
H11 C5 1_555 1_555
H12 C5 1_555 1_555
C6 N1 1_555 1_555
H13 C6 1_555 1_555
H14 C6 1_555 1_555
N4 O2 1_555 1_555
O3 N4 1_555 1_555
O4 N4 1_555 1_555
Ag1G N3 1_555 1_555
Ag1B N2 1_555 1_555
N2B Ag1 1_555 1_555
N3G Ag1 1_555 1_555
N2 C4 1_555 1_555
N3 C5 1_555 1_555
N3 C6 1_555 1_555

#END
