
#######################################################################
#
#                 Cambridge Crystallographic Data Centre
#                                CCDC 
#
#######################################################################
#
# If this CIF has been generated from an entry in the Cambridge 
# Structural Database, then it will include bibliographic, chemical, 
# crystal, experimental, refinement or atomic coordinate data resulting 
# from the CCDC's data processing and validation procedures.
#
#######################################################################

data_YENFEC
_symmetry_cell_setting           monoclinic
_symmetry_space_group_name_H-M   'P 21/n'
_symmetry_Int_Tables_number      14
_space_group_name_Hall           '-P 2yn'
loop_
_symmetry_equiv_pos_site_id
_symmetry_equiv_pos_as_xyz
1 x,y,z
2 1/2-x,1/2+y,1/2-z
3 -x,-y,-z
4 1/2+x,1/2-y,1/2+z
_cell_length_a                   8.269(1)
_cell_length_b                   8.559(1)
_cell_length_c                   15.814(2)
_cell_angle_alpha                90
_cell_angle_beta                 101.27(1)
_cell_angle_gamma                90
_cell_volume                     1097.64
loop_
_atom_site_label
_atom_site_type_symbol
_atom_site_fract_x
_atom_site_fract_y
_atom_site_fract_z
Ni1 Ni 0.0000 0.0000 -0.5000
N1 N 0.1168(5) 0.2104(5) -0.5054(3)
N2 N -0.1708(5) 0.0815(6) -0.6030(3)
N3 N 0.3039(5) 0.1750(7) -0.3674(3)
N4 N 0.8482(5) 0.0961(6) -0.4159(3)
C1 C 0.1886(7) 0.2772(7) -0.4194(4)
C2 C -0.0040(8) 0.3107(7) -0.5622(5)
C3 C -0.0902(8) 0.2146(8) -0.6377(4)
C4 C -0.2368(7) -0.0407(8) -0.6677(3)
C5 C 0.4526(7) 0.1505(10) -0.4029(4)
C6 C 0.6055(7) 0.1602(10) -0.3391(5)
C7 C 0.7463(7) 0.1260(8) -0.3806(4)
H1 H 0.2018(5) 0.1934(5) -0.5331(3)
H2 H -0.2574(5) 0.1202(6) -0.5818(3)
H3 H 0.2435(7) 0.3747(7) -0.4273(4)
H4 H 0.1001(7) 0.3004(7) -0.3891(4)
H5 H 0.0521(8) 0.3984(7) -0.5826(5)
H6 H -0.0840(8) 0.3513(7) -0.5304(5)
H7 H -0.1718(8) 0.2776(8) -0.6752(4)
H8 H -0.0111(8) 0.1769(8) -0.6709(4)
H9 H -0.3221(7) 0.0056(8) -0.7114(3)
H10 H -0.1487(7) -0.0747(8) -0.6959(3)
H11 H 0.4555(7) 0.2281(10) -0.4473(4)
H12 H 0.4462(7) 0.0485(10) -0.4300(4)
H13 H 0.6172(7) 0.2641(10) -0.3141(5)
H14 H 0.6029(7) 0.0857(10) -0.2932(5)
N1B N -0.1168(5) -0.2104(5) -0.4946(3)
N2B N 0.1708(5) -0.0815(6) -0.3970(3)
N4_2 N -0.1518(5) 0.0961(6) -0.4159(3)
C4B C 0.2368(7) 0.0407(8) -0.3323(3)
N3B N -0.3039(5) -0.1750(7) -0.6326(3)
H9B H 0.3221(7) -0.0056(8) -0.2886(3)
H10B H 0.1487(7) 0.0747(8) -0.3041(3)
C1B C -0.1886(7) -0.2772(7) -0.5806(4)
C5B C -0.4526(7) -0.1505(10) -0.5971(4)
C3B C 0.0902(8) -0.2146(8) -0.3623(4)
H2B H 0.2574(5) -0.1202(6) -0.4182(3)
N4B N 0.1518(5) -0.0961(6) -0.5841(3)
H3B H -0.2435(7) -0.3747(7) -0.5727(4)
H4B H -0.1001(7) -0.3004(7) -0.6109(4)
C6B C -0.6055(7) -0.1602(10) -0.6609(5)
H11B H -0.4555(7) -0.2281(10) -0.5527(4)
H12B H -0.4462(7) -0.0485(10) -0.5700(4)
C2B C 0.0040(8) -0.3107(7) -0.4378(5)
H7B H 0.1718(8) -0.2776(8) -0.3248(4)
H8B H 0.0111(8) -0.1769(8) -0.3291(4)
Ni1_2 Ni 1.0000 0.0000 -0.5000
C7B C -0.7463(7) -0.1260(8) -0.6194(4)
H13B H -0.6172(7) -0.2641(10) -0.6859(5)
H14B H -0.6029(7) -0.0857(10) -0.7068(5)
H5B H -0.0521(8) -0.3984(7) -0.4174(5)
H6B H 0.0840(8) -0.3513(7) -0.4696(5)
N4B_2 N -0.8482(5) -0.0961(6) -0.5841(3)
Ni1_3 Ni -1.0000 0.0000 -0.5000
H1B H -0.2018(5) -0.1934(5) -0.4669(3)
B1 B 0.5522(11) 0.6662(13) -0.3568(7)
F1 F 0.5169(9) 0.7475(12) -0.2815(5)
F2 F 0.4323(20) 0.6909(25) -0.4226(7)
F3 F 0.6901(18) 0.7077(45) -0.3630(12)
F4 F 0.5473(25) 0.5390(15) -0.3118(8)
F5? F 0.4161(22) 0.6313(33) 0.5947(20)
F6? F 0.6234(35) 0.7843(18) 0.6179(17)
F7? F 0.6553(21) 0.5500(20) 0.6310(21)
loop_
_geom_bond_atom_site_label_1
_geom_bond_atom_site_label_2
_geom_bond_site_symmetry_1
_geom_bond_site_symmetry_2
Ni1 N1 1_555 1_555
N1 C1 1_555 1_555
N2 Ni1 1_555 1_555
N3 C1 1_555 1_555
N4 C7 1_555 1_555
C1 H3 1_555 1_555
C2 N1 1_555 1_555
C3 N2 1_555 1_555
C4 N2 1_555 1_555
C5 N3 1_555 1_555
C6 C5 1_555 1_555
C7 C6 1_555 1_555
B1 F1 1_555 1_555
F2 B1 1_555 1_555
F3 B1 1_555 1_555
F4 B1 1_555 1_555
H1 N1 1_555 1_555
H2 N2 1_555 1_555
H4 C1 1_555 1_555
H5 C2 1_555 1_555
H6 C2 1_555 1_555
H7 C3 1_555 1_555
H8 C3 1_555 1_555
H9 C4 1_555 1_555
H10 C4 1_555 1_555
H11 C5 1_555 1_555
H12 C5 1_555 1_555
H13 C6 1_555 1_555
H14 C6 1_555 1_555
N1B Ni1 1_555 1_555
N2B Ni1 1_555 1_555
N4_2 Ni1 1_555 1_555
C4B N3 1_555 1_555
N3B C4 1_555 1_555
H9B C4B 1_555 1_555
H10B C4B 1_555 1_555
C1B N1B 1_555 1_555
C5B N3B 1_555 1_555
C3B N2B 1_555 1_555
H2B N2B 1_555 1_555
N4B Ni1 1_555 1_555
H3B C1B 1_555 1_555
H4B C1B 1_555 1_555
C6B C5B 1_555 1_555
H11B C5B 1_555 1_555
H12B C5B 1_555 1_555
C2B N1B 1_555 1_555
H7B C3B 1_555 1_555
H8B C3B 1_555 1_555
Ni1_2 N4 1_555 1_555
C7B C6B 1_555 1_555
H13B C6B 1_555 1_555
H14B C6B 1_555 1_555
H5B C2B 1_555 1_555
H6B C2B 1_555 1_555
N4B_2 C7B 1_555 1_555
Ni1_3 N4B_2 1_555 1_555
H1B N1B 1_555 1_555
C2 C3 1_555 1_555
N2B C4B 1_555 1_555
N3B C1B 1_555 1_555
C3B C2B 1_555 1_555

#END
