
#######################################################################
#
#                 Cambridge Crystallographic Data Centre
#                                CCDC 
#
#######################################################################
#
# If this CIF has been generated from an entry in the Cambridge 
# Structural Database, then it will include bibliographic, chemical, 
# crystal, experimental, refinement or atomic coordinate data resulting 
# from the CCDC's data processing and validation procedures.
#
#######################################################################

data_YENJUW
_symmetry_cell_setting           monoclinic
_symmetry_space_group_name_H-M   'P 21/n'
_symmetry_Int_Tables_number      14
_space_group_name_Hall           '-P 2yn'
loop_
_symmetry_equiv_pos_site_id
_symmetry_equiv_pos_as_xyz
1 x,y,z
2 1/2-x,1/2+y,1/2-z
3 -x,-y,-z
4 1/2+x,1/2-y,1/2+z
_cell_length_a                   12.868(2)
_cell_length_b                   18.454(3)
_cell_length_c                   21.319(4)
_cell_angle_alpha                90
_cell_angle_beta                 93.89(2)
_cell_angle_gamma                90
_cell_volume                     5050.88
loop_
_atom_site_label
_atom_site_type_symbol
_atom_site_fract_x
_atom_site_fract_y
_atom_site_fract_z
Nd1 Nd 0.05850(4) 0.24794(2) 0.25733(3)
Nd2 Nd 0.22475(4) 0.23629(3) 0.09016(2)
Nd3 Nd -0.11380(4) 0.23394(2) 0.42356(2)
O1 O 0.2450(5) 0.2845(4) 0.3010(3)
O2 O 0.2383(5) 0.2587(3) 0.2010(3)
O3 O -0.1287(5) 0.2833(4) 0.2119(3)
O4 O -0.1174(4) 0.2731(3) 0.3142(3)
O5 O 0.0441(5) 0.1796(3) 0.0475(3)
O6 O 0.0614(4) 0.1969(3) 0.1495(3)
O7 O 0.4061(5) 0.1918(3) 0.1336(3)
O8 O 0.3937(4) 0.2140(3) 0.0325(3)
O9 O -0.0312(5) 0.3583(3) 0.4252(3)
O10 O -0.2008(5) 0.3614(3) 0.4187(3)
O11 O 0.0656(5) 0.2017(4) 0.4706(3)
O12 O 0.0673(5) 0.2270(3) 0.3712(3)
O13 O 0.2010(5) 0.3031(4) -0.1147(3)
O14 O 0.2029(5) 0.2578(3) -0.0208(3)
O15 O 0.0628(5) 0.3533(3) 0.1881(3)
O16 O 0.1118(5) 0.3369(3) 0.0902(3)
O17 O -0.0500(5) 0.1387(3) 0.2636(3)
O18 O -0.1055(5) 0.1238(3) 0.3606(3)
O19 O 0.3337(5) 0.3445(3) 0.0940(3)
O20 O 0.3661(5) 0.3657(3) -0.0057(3)
O21 O 0.0615(5) 0.3693(3) 0.3121(3)
O22 O 0.1662(5) 0.1351(3) 0.2700(4)
O23 O 0.2310(5) 0.1021(4) 0.0767(4)
N1 N 0.4938(7) 0.3296(5) 0.3534(5)
N2 N -0.3869(7) 0.3410(6) 0.1655(5)
N3 N -0.1910(12) 0.0836(11) 0.0208(6)
N4 N 0.6499(8) 0.1344(6) 0.1809(5)
N5 N 0.0684(8) 0.5297(5) 0.4252(5)
N6 N 0.3181(8) 0.1823(7) 0.5341(5)
N7 N -0.0402(9) 0.3715(6) -0.1589(5)
N8 N 0.1721(12) 0.5013(6) 0.0321(7)
N9 N -0.1298(9) -0.0085(5) 0.1723(5)
N10 N 0.4061(9) 0.4988(5) 0.1791(6)
C1 C 0.2865(7) 0.2823(5) 0.2513(4)
C2 C 0.3960(8) 0.3097(6) 0.2462(5)
H1 H 0.3930 0.3566 0.2227
H2 H 0.4357 0.2732 0.2226
C3 C 0.4502(8) 0.3214(5) 0.3075(5)
C4 C -0.1675(6) 0.2853(4) 0.2627(4)
C5 C -0.2827(8) 0.3050(6) 0.2675(5)
H3 H -0.2860 0.3467 0.2972
H4 H -0.3185 0.2621 0.2849
C6 C -0.3393(7) 0.3254(5) 0.2089(5)
C7 C 0.0075(7) 0.1813(4) 0.1001(4)
C8 C -0.1060(7) 0.1651(6) 0.1065(5)
H5 H -0.1447 0.2121 0.1060
H6 H -0.1127 0.1403 0.1477
C9 C -0.1531(10) 0.1198(9) 0.0577(6)
C10 C 0.4471(6) 0.1988(4) 0.0825(4)
C11 C 0.5643(7) 0.1905(5) 0.0793(4)
H7 H 0.5955 0.2394 0.0728
H8 H 0.5783 0.1584 0.0430
C12 C 0.6118(7) 0.1594(5) 0.1364(5)
C13 C -0.1148(6) 0.3919(4) 0.4207(4)
C14 C -0.1162(7) 0.4741(5) 0.4181(5)
H9 H -0.1541 0.4896 0.3778
H10 H -0.1537 0.4928 0.4544
C15 C -0.0124(8) 0.5051(5) 0.4211(5)
C16 C 0.1123(7) 0.2070(5) 0.4229(4)
C17 C 0.2273(8) 0.1892(7) 0.4228(5)
H11 H 0.2353 0.1415 0.4013
H12 H 0.2624 0.2279 0.3991
C18 C 0.2775(8) 0.1847(6) 0.4864(6)
C19 C 0.1596(6) 0.2915(4) -0.0661(4)
C20 C 0.0515(7) 0.3203(6) -0.0562(5)
H13 H 0.0573 0.3599 -0.0241
H14 H 0.0081 0.2800 -0.0405
C21 C 0.0009(8) 0.3489(6) -0.1145(5)
C22 C 0.0852(7) 0.3745(5) 0.1361(5)
C23 C 0.0809(11) 0.4565(5) 0.1276(6)
H15 H 0.1155 0.4793 0.1661
H16 H 0.0060 0.4715 0.1232
C24 C 0.1303(11) 0.4826(6) 0.0748(6)
C25 C -0.0994(6) 0.1075(4) 0.3038(4)
C26 C -0.1630(8) 0.0413(5) 0.2825(5)
H17 H -0.2384 0.0543 0.2832
H18 H -0.1462 0.0014 0.3132
C27 C -0.1457(8) 0.0143(5) 0.2203(5)
C28 C 0.3735(7) 0.3791(4) 0.0516(4)
C29 C 0.4411(8) 0.4448(5) 0.0708(5)
H19 H 0.4283 0.4833 0.0382
H20 H 0.5158 0.4295 0.0722
C30 C 0.4215(9) 0.4753(5) 0.1307(6)
H21 H 0.029(8) 0.373(7) 0.350(3)
H22 H 0.230(4) 0.123(6) 0.253(5)
H23 H 0.118(6) 0.099(5) 0.255(5)
H24 H 0.206(8) 0.070(5) 0.107(5)
H25 H 0.292(5) 0.080(5) 0.063(5)
O8C O -0.1063(4) 0.2860(3) 0.5325(3)
O14C O -0.2971(5) 0.2422(3) 0.4792(3)
Nd3C Nd 0.38620(4) 0.26606(2) -0.07644(2)
O20C O -0.1339(5) 0.1343(3) 0.4943(3)
O13C O -0.2990(5) 0.1969(4) 0.3853(3)
K1 K 0.1037(2) 0.0903(2) -0.0519(2)
O24 O -0.0882(10) -0.0042(7) -0.1137(9)
O25 O 0.3627(7) 0.0899(4) 0.2261(4)
O26 O -0.1552(8) 0.4309(5) 0.1546(5)
H26 H -0.215(6) 0.434(4) 0.126(5)
H27 H -0.156(9) 0.367(4) 0.151(4)
O27 O 0.2558(10) 0.4551(6) 0.3057(7)
H28 H 0.206(9) 0.479(7) 0.277(6)
O28 O -0.0724(8) 0.4753(5) 0.2672(4)
H29 H -0.090(10) 0.469(7) 0.224(2)
O29 O -0.1960(8) -0.0041(5) 0.4277(4)
H30 H -0.158(8) 0.039(4) 0.421(5)
H31 H -0.231(8) 0.004(6) 0.465(4)
loop_
_geom_bond_atom_site_label_1
_geom_bond_atom_site_label_2
_geom_bond_site_symmetry_1
_geom_bond_site_symmetry_2
Nd1 O1 1_555 1_555
Nd2 O2 1_555 1_555
Nd3 O4 1_555 1_555
O1 C1 1_555 1_555
O2 Nd1 1_555 1_555
O3 Nd1 1_555 1_555
O4 Nd1 1_555 1_555
O5 Nd2 1_555 1_555
O6 Nd1 1_555 1_555
O7 Nd2 1_555 1_555
O8 Nd2 1_555 1_555
O9 Nd3 1_555 1_555
O10 Nd3 1_555 1_555
O11 Nd3 1_555 1_555
O12 Nd1 1_555 1_555
O13 C19 1_555 1_555
O14 Nd2 1_555 1_555
O15 Nd1 1_555 1_555
O16 Nd2 1_555 1_555
O17 Nd1 1_555 1_555
O18 Nd3 1_555 1_555
O19 Nd2 1_555 1_555
O20 C28 1_555 1_555
O21 Nd1 1_555 1_555
O22 Nd1 1_555 1_555
O23 Nd2 1_555 1_555
O26 H26 1_555 1_555
O27 H28 1_555 1_555
O28 H29 1_555 1_555
O29 H30 1_555 1_555
N1 C3 1_555 1_555
N2 C6 1_555 1_555
N3 C9 1_555 1_555
N4 C12 1_555 1_555
N5 C15 1_555 1_555
N6 C18 1_555 1_555
N7 C21 1_555 1_555
N8 C24 1_555 1_555
N9 C27 1_555 1_555
N10 C30 1_555 1_555
C1 O2 1_555 1_555
C2 C1 1_555 1_555
H1 C2 1_555 1_555
H2 C2 1_555 1_555
C3 C2 1_555 1_555
C4 O3 1_555 1_555
C5 C4 1_555 1_555
H3 C5 1_555 1_555
H4 C5 1_555 1_555
C6 C5 1_555 1_555
C7 O5 1_555 1_555
C8 C7 1_555 1_555
H5 C8 1_555 1_555
H6 C8 1_555 1_555
C9 C8 1_555 1_555
C10 O7 1_555 1_555
C11 C10 1_555 1_555
H7 C11 1_555 1_555
H8 C11 1_555 1_555
C12 C11 1_555 1_555
C13 O9 1_555 1_555
C14 C13 1_555 1_555
H9 C14 1_555 1_555
H10 C14 1_555 1_555
C15 C14 1_555 1_555
C16 O11 1_555 1_555
C17 C16 1_555 1_555
H11 C17 1_555 1_555
H12 C17 1_555 1_555
C18 C17 1_555 1_555
C19 O14 1_555 1_555
C20 C19 1_555 1_555
H13 C20 1_555 1_555
H14 C20 1_555 1_555
C21 C20 1_555 1_555
C22 O15 1_555 1_555
C23 C22 1_555 1_555
H15 C23 1_555 1_555
H16 C23 1_555 1_555
C24 C23 1_555 1_555
C25 O17 1_555 1_555
C26 C25 1_555 1_555
H17 C26 1_555 1_555
H18 C26 1_555 1_555
C27 C26 1_555 1_555
C28 O19 1_555 1_555
C29 C28 1_555 1_555
H19 C29 1_555 1_555
H20 C29 1_555 1_555
C30 C29 1_555 1_555
H21 O21 1_555 1_555
H22 O22 1_555 1_555
H23 O22 1_555 1_555
H24 O23 1_555 1_555
H25 O23 1_555 1_555
H27 O26 1_555 1_555
H31 O29 1_555 1_555
O8C Nd3 1_555 1_555
O14C Nd3 1_555 1_555
Nd3C O8 1_555 1_555
O20C Nd3 1_555 1_555
O13C Nd3 1_555 1_555
Nd2 O6 1_555 1_555
Nd3 O12 1_555 1_555
O4 C4 1_555 1_555
O6 C7 1_555 1_555
O8 C10 1_555 1_555
O10 C13 1_555 1_555
O12 C16 1_555 1_555
O13 Nd3C 1_555 1_555
O14 Nd3C 1_555 1_555
O16 C22 1_555 1_555
O18 C25 1_555 1_555
O20 Nd3C 1_555 1_555

#END
