
#######################################################################
#
#                 Cambridge Crystallographic Data Centre
#                                CCDC 
#
#######################################################################
#
# If this CIF has been generated from an entry in the Cambridge 
# Structural Database, then it will include bibliographic, chemical, 
# crystal, experimental, refinement or atomic coordinate data resulting 
# from the CCDC's data processing and validation procedures.
#
#######################################################################

data_YENLEK
_symmetry_cell_setting           monoclinic
_symmetry_space_group_name_H-M   'P 21/c'
_symmetry_Int_Tables_number      14
_space_group_name_Hall           '-P 2ybc'
loop_
_symmetry_equiv_pos_site_id
_symmetry_equiv_pos_as_xyz
1 x,y,z
2 -x,1/2+y,1/2-z
3 -x,-y,-z
4 x,1/2-y,1/2+z
_cell_length_a                   7.5754(2)
_cell_length_b                   11.4839(3)
_cell_length_c                   11.1083(3)
_cell_angle_alpha                90
_cell_angle_beta                 107.101(3)
_cell_angle_gamma                90
_cell_volume                     923.643
loop_
_atom_site_label
_atom_site_type_symbol
_atom_site_fract_x
_atom_site_fract_y
_atom_site_fract_z
Co1 Co 1.00000 0.00000 0.00000
N1 N 0.9624(10) 0.1642(3) 0.0607(4)
N2 N 0.8742(13) 0.4477(3) 0.3141(3)
N3 N 0.7536(8) 0.3708(3) -0.2184(2)
N4 N 0.6568(4) 0.6259(4) 0.0067(3)
N5 N 0.7516(6) -0.06159(14) 0.02489(6)
C1 C 0.9027(9) 0.4738(3) -0.0056(4)
C2 C 0.9112(6) 0.3819(2) 0.10011(18)
C3 C 0.9402(7) 0.2584(3) 0.0778(3)
C4 C 0.8902(9) 0.4192(3) 0.2214(4)
C5 C 0.8181(4) 0.4154(3) -0.1262(3)
C6 C 0.7633(6) 0.5601(4) 0.0014(2)
C7 C 0.6537(7) -0.09242(19) 0.0765(2)
C8 C 0.5168(5) -0.14498(17) 0.13704(14)
H1 H 0.5765 -0.193 0.200
H2 H 0.462 -0.0877 0.169
H3 H 0.431 -0.185 0.0789
Co1C Co 1.00000 0.50000 0.50000
Co1_2 Co 1.00000 1.00000 0.00000
Co1C_2 Co 1.00000 0.50000 -0.50000
N1B N 1.0376(10) 0.8358(3) -0.0607(4)
N1B_2 N 1.0376(10) -0.1642(3) -0.0607(4)
N2B N 1.1258(13) 0.5523(3) -0.3141(3)
N2C N 0.8742(13) 0.0523(3) -0.1859(3)
N2A N 1.1258(13) -0.0523(3) 0.1859(3)
N3B N 1.2464(8) 0.6292(3) 0.2184(2)
N4B N 1.3432(4) 0.3741(4) -0.0067(3)
N5B N 1.2484(6) 0.06159(14) -0.02489(6)
C1B C 1.0973(9) 0.5262(3) 0.0056(4)
C2B C 1.0888(6) 0.6181(2) -0.10011(18)
C3B C 1.0598(7) 0.7416(3) -0.0778(3)
C4B C 1.1098(9) 0.5808(3) -0.2214(4)
C5B C 1.1819(4) 0.5846(3) 0.1262(3)
C6B C 1.2367(6) 0.4399(4) -0.0014(2)
C7B C 1.3463(7) 0.09242(19) -0.0765(2)
C8B C 1.4832(5) 0.14498(17) -0.13704(14)
H1B H 1.4235 0.193 -0.200
H2B H 1.538 0.0877 -0.169
H3B H 1.569 0.185 -0.0789
loop_
_geom_bond_atom_site_label_1
_geom_bond_atom_site_label_2
_geom_bond_site_symmetry_1
_geom_bond_site_symmetry_2
Co1 N1 1_555 1_555
N1 C3 1_555 1_555
N2 C4 1_555 1_555
N3 C5 1_555 1_555
N4 C6 1_555 1_555
N5 Co1 1_555 1_555
C1 C2 1_555 1_555
C2 C3 1_555 1_555
C4 C2 1_555 1_555
C5 C1 1_555 1_555
C6 C1 1_555 1_555
C7 N5 1_555 1_555
C8 C7 1_555 1_555
H1 C8 1_555 1_555
H2 C8 1_555 1_555
H3 C8 1_555 1_555
Co1C N2 1_555 1_555
Co1_2 N1B 1_555 1_555
Co1C_2 N2B 1_555 1_555
N1B C3B 1_555 1_555
N1B_2 Co1 1_555 1_555
N2B C4B 1_555 1_555
N2C Co1 1_555 1_555
N2A Co1 1_555 1_555
N3B C5B 1_555 1_555
N4B C6B 1_555 1_555
N5B Co1 1_555 1_555
C1B C1 1_555 1_555
C2B C1B 1_555 1_555
C3B C2B 1_555 1_555
C4B C2B 1_555 1_555
C5B C1B 1_555 1_555
C6B C1B 1_555 1_555
C7B N5B 1_555 1_555
C8B C7B 1_555 1_555
H1B C8B 1_555 1_555
H2B C8B 1_555 1_555
H3B C8B 1_555 1_555

#END
