
#######################################################################
#
#                 Cambridge Crystallographic Data Centre
#                                CCDC 
#
#######################################################################
#
# If this CIF has been generated from an entry in the Cambridge 
# Structural Database, then it will include bibliographic, chemical, 
# crystal, experimental, refinement or atomic coordinate data resulting 
# from the CCDC's data processing and validation procedures.
#
#######################################################################

data_YENTIV
_symmetry_cell_setting           triclinic
_symmetry_space_group_name_H-M   'P -1'
_symmetry_Int_Tables_number      2
_space_group_name_Hall           '-P 1'
loop_
_symmetry_equiv_pos_site_id
_symmetry_equiv_pos_as_xyz
1 x,y,z
2 -x,-y,-z
_cell_length_a                   10.9790(4)
_cell_length_b                   11.5830(6)
_cell_length_c                   12.4140(6)
_cell_angle_alpha                109.140(2)
_cell_angle_beta                 93.870(2)
_cell_angle_gamma                107.819(2)
_cell_volume                     1394.93
loop_
_atom_site_label
_atom_site_type_symbol
_atom_site_fract_x
_atom_site_fract_y
_atom_site_fract_z
Cu1 Cu 0.47708(5) 0.11007(5) 0.98097(5)
V1 V -0.03529(7) 0.18066(8) 1.01024(7)
V2 V 0.20431(7) 0.13928(8) 1.15363(7)
O1 O 0.3977(3) -0.0761(3) 0.9285(3)
O3 O 0.1296(3) 0.1969(4) 1.0598(3)
O4 O -0.1191(3) 0.1890(4) 1.1160(3)
N2 N 0.5923(4) 0.2840(4) 0.9849(3)
C1 C 0.5342(4) 0.3329(4) 0.9199(4)
O5 O -0.0285(3) 0.3005(3) 0.9682(3)
C2 C 0.4015(5) 0.4278(5) 0.7878(4)
H1 H 0.3576 0.4590 0.7436
N3 N 0.3471(3) 0.1467(4) 0.8831(3)
O6 O 0.1169(3) -0.0298(4) 1.1117(3)
O7 O 0.1969(3) 0.2151(4) 1.2890(3)
C3 C 0.2226(4) 0.0801(5) 0.8387(4)
H2 H 0.1840 0.0025 0.8500
C5 C 0.5989(5) 0.4495(5) 0.9048(4)
O8 O 0.3589(3) 0.1685(4) 1.1410(3)
C6 C 0.4009(4) 0.2609(4) 0.8670(4)
C11 C 0.3335(5) 0.3085(5) 0.8026(4)
C13 C 0.7172(4) 0.3495(5) 1.0345(4)
H5 H 0.7582 0.3166 1.0790
C16 C 0.7884(5) 0.4648(5) 1.0225(5)
H8 H 0.8754 0.5073 1.0584
C17 C 0.5272(5) 0.4952(5) 0.8365(4)
H9 H 0.5688 0.5726 0.8259
C18 C 0.1460(5) 0.1220(5) 0.7748(4)
H10 H 0.0584 0.0727 0.7454
C19 C 0.7303(5) 0.5159(5) 0.9576(4)
H11 H 0.7772 0.5930 0.9488
C22 C 0.2000(5) 0.2337(5) 0.7562(4)
H14 H 0.1501 0.2614 0.7134
Cu1A Cu 0.52292(5) -0.11007(5) 1.01903(5)
Cu1A_2 Cu -0.47708(5) -0.11007(5) 1.01903(5)
V1A V 0.03529(7) -0.18066(8) 0.98976(7)
V2A V -0.20431(7) -0.13928(8) 0.84637(7)
O1A O 0.6023(3) 0.0761(3) 1.0715(3)
O3A O -0.1296(3) -0.1969(4) 0.9402(3)
O4A O 0.1191(3) -0.1890(4) 0.8840(3)
N2A N 0.4077(4) -0.2840(4) 1.0151(3)
C1A C 0.4658(4) -0.3329(4) 1.0801(4)
O5A O 0.0285(3) -0.3005(3) 1.0318(3)
C2A C 0.5985(5) -0.4278(5) 1.2122(4)
H1A H 0.6424 -0.4590 1.2564
N3A N 0.6529(3) -0.1467(4) 1.1169(3)
O6A O -0.1169(3) 0.0298(4) 0.8883(3)
O7A O -0.1969(3) -0.2151(4) 0.7110(3)
C3A C 0.7774(4) -0.0801(5) 1.1613(4)
H2A H 0.8160 -0.0025 1.1500
C5A C 0.4011(5) -0.4495(5) 1.0952(4)
O8A O 0.6411(3) -0.1685(4) 0.8590(3)
O8A_2 O -0.3589(3) -0.1685(4) 0.8590(3)
C6A C 0.5991(4) -0.2609(4) 1.1330(4)
C11A C 0.6665(5) -0.3085(5) 1.1974(4)
C13A C 0.2828(4) -0.3495(5) 0.9655(4)
H5A H 0.2418 -0.3166 0.9210
C16A C 0.2116(5) -0.4648(5) 0.9775(5)
H8A H 0.1246 -0.5073 0.9416
C17A C 0.4728(5) -0.4952(5) 1.1635(4)
H9A H 0.4312 -0.5726 1.1741
C18A C 0.8540(5) -0.1220(5) 1.2252(4)
H10A H 0.9416 -0.0727 1.2546
C19A C 0.2697(5) -0.5159(5) 1.0424(4)
H11A H 0.2228 -0.5930 1.0512
C22A C 0.8000(5) -0.2337(5) 1.2438(4)
H14A H 0.8499 -0.2614 1.2866
Cu2 Cu 0.53216(5) 0.39648(6) 1.52348(5)
O2 O 0.3784(3) 0.4280(3) 1.4723(3)
N1 N 0.4386(4) 0.2250(4) 1.5398(3)
C4 C 0.5177(5) 0.1908(5) 1.6035(4)
N4 N 0.6832(4) 0.3835(4) 1.6138(3)
C7 C 0.2636(6) 0.0339(5) 1.5256(5)
H3 H 0.1764 -0.0180 1.4977
O9 O 0.5604(4) 0.2925(4) 1.3369(3)
C8 C 0.6909(6) 0.1338(6) 1.7378(5)
H4 H 0.7478 0.1147 1.7826
C9 C 0.7379(5) 0.2484(5) 1.7090(4)
C10 C 0.4742(5) 0.0800(5) 1.6326(4)
C12 C 0.6495(5) 0.2760(5) 1.6424(4)
C14 C 0.8660(5) 0.3358(6) 1.7441(5)
H6 H 0.9281 0.3196 1.7859
C15 C 0.3143(5) 0.1473(5) 1.5014(4)
H7 H 0.2596 0.1691 1.4572
C20 C 0.8058(5) 0.4660(6) 1.6517(5)
H12 H 0.8296 0.5408 1.6336
C21 C 0.3418(6) -0.0008(5) 1.5899(5)
H13 H 0.3085 -0.0765 1.6054
C23 C 0.5661(6) 0.0541(6) 1.7009(5)
H15 H 0.5384 -0.0198 1.7201
C24 C 0.9000(5) 0.4455(7) 1.7171(5)
H16 H 0.9845 0.5054 1.7419
Cu2A Cu 0.46784(5) 0.60352(6) 1.47652(5)
O2A O 0.6216(3) 0.5720(3) 1.5277(3)
N1A N 0.5614(4) 0.7750(4) 1.4602(3)
C4A C 0.4823(5) 0.8092(5) 1.3965(4)
N4A N 0.3168(4) 0.6165(4) 1.3862(3)
C7A C 0.7364(6) 0.9661(5) 1.4744(5)
H3A H 0.8236 1.0180 1.5023
O9A O 0.4396(4) 0.7075(4) 1.6631(3)
C8A C 0.3091(6) 0.8662(6) 1.2622(5)
H4A H 0.2522 0.8853 1.2174
C9A C 0.2621(5) 0.7516(5) 1.2910(4)
C10A C 0.5258(5) 0.9200(5) 1.3674(4)
C12A C 0.3505(5) 0.7240(5) 1.3576(4)
C14A C 0.1340(5) 0.6642(6) 1.2559(5)
H6A H 0.0719 0.6804 1.2141
C15A C 0.6857(5) 0.8527(5) 1.4986(4)
H7A H 0.7404 0.8309 1.5428
C20A C 0.1942(5) 0.5340(6) 1.3483(5)
H12A H 0.1704 0.4592 1.3664
C21A C 0.6582(6) 1.0008(5) 1.4101(5)
H13A H 0.6915 1.0765 1.3946
C23A C 0.4339(6) 0.9459(6) 1.2991(5)
H15A H 0.4616 1.0198 1.2799
C24A C 0.1000(5) 0.5545(7) 1.2829(5)
H16A H 0.0155 0.4946 1.2581
O10 O 0.8226(4) 0.2971(5) 1.3293(4)
O11 O 0.8252(4) 0.5593(4) 1.4039(3)
O12 O 1.0027(4) 0.7835(5) 1.5663(4)
loop_
_geom_bond_atom_site_label_1
_geom_bond_atom_site_label_2
_geom_bond_site_symmetry_1
_geom_bond_site_symmetry_2
Cu1 O1 1_555 1_555
Cu2 O2 1_555 1_555
V1 O3 1_555 1_555
V2 O3 1_555 1_555
O1 Cu1A 1_555 1_555
O2 Cu2A 1_555 1_555
N1 Cu2 1_555 1_555
O4 V1 1_555 1_555
N2 Cu1 1_555 1_555
C1 N2 1_555 1_555
O5 V1 1_555 1_555
C2 H1 1_555 1_555
N3 Cu1 1_555 1_555
O6 V2 1_555 1_555
O7 V2 1_555 1_555
C3 N3 1_555 1_555
H2 C3 1_555 1_555
C4 N1 1_555 1_555
C5 C1 1_555 1_555
N4 Cu2 1_555 1_555
O8 Cu1 1_555 1_555
C6 C1 1_555 1_555
C7 H3 1_555 1_555
O9 Cu2 1_555 1_555
C8 H4 1_555 1_555
C9 C8 1_555 1_555
C10 C4 1_555 1_555
C11 C2 1_555 1_555
C12 C4 1_555 1_555
C13 N2 1_555 1_555
H5 C13 1_555 1_555
C14 C9 1_555 1_555
H6 C14 1_555 1_555
C15 N1 1_555 1_555
H7 C15 1_555 1_555
C16 C13 1_555 1_555
H8 C16 1_555 1_555
C17 C2 1_555 1_555
H9 C17 1_555 1_555
C18 C3 1_555 1_555
H10 C18 1_555 1_555
C19 C5 1_555 1_555
H11 C19 1_555 1_555
C20 N4 1_555 1_555
H12 C20 1_555 1_555
C21 C7 1_555 1_555
H13 C21 1_555 1_555
C22 C11 1_555 1_555
H14 C22 1_555 1_555
C23 C8 1_555 1_555
H15 C23 1_555 1_555
C24 C14 1_555 1_555
H16 C24 1_555 1_555
Cu1A O1A 1_555 1_555
Cu1A_2 O8A_2 1_555 1_555
Cu2A O2A 1_555 1_555
V1A O6 1_555 1_555
V2A O3A 1_555 1_555
O1A Cu1 1_555 1_555
O2A Cu2 1_555 1_555
O3A V1A 1_555 1_555
N1A Cu2A 1_555 1_555
O4A V1A 1_555 1_555
N2A Cu1A 1_555 1_555
C1A N2A 1_555 1_555
O5A V1A 1_555 1_555
C2A H1A 1_555 1_555
N3A Cu1A 1_555 1_555
O6A V1 1_555 1_555
O7A V2A 1_555 1_555
C3A N3A 1_555 1_555
H2A C3A 1_555 1_555
C4A N1A 1_555 1_555
C5A C1A 1_555 1_555
N4A Cu2A 1_555 1_555
O8A Cu1A 1_555 1_555
O8A_2 V2A 1_555 1_555
C6A C1A 1_555 1_555
C7A H3A 1_555 1_555
O9A Cu2A 1_555 1_555
C8A H4A 1_555 1_555
C9A C8A 1_555 1_555
C10A C4A 1_555 1_555
C11A C2A 1_555 1_555
C12A C4A 1_555 1_555
C13A N2A 1_555 1_555
H5A C13A 1_555 1_555
C14A C9A 1_555 1_555
H6A C14A 1_555 1_555
C15A N1A 1_555 1_555
H7A C15A 1_555 1_555
C16A C13A 1_555 1_555
H8A C16A 1_555 1_555
C17A C2A 1_555 1_555
H9A C17A 1_555 1_555
C18A C3A 1_555 1_555
H10A C18A 1_555 1_555
C19A C5A 1_555 1_555
H11A C19A 1_555 1_555
C20A N4A 1_555 1_555
H12A C20A 1_555 1_555
C21A C7A 1_555 1_555
H13A C21A 1_555 1_555
C22A C11A 1_555 1_555
H14A C22A 1_555 1_555
C23A C8A 1_555 1_555
H15A C23A 1_555 1_555
C24A C14A 1_555 1_555
H16A C24A 1_555 1_555
V2 O8 1_555 1_555
N3 C6 1_555 1_555
C5 C17 1_555 1_555
N4 C12 1_555 1_555
C6 C11 1_555 1_555
C7 C15 1_555 1_555
C9 C12 1_555 1_555
C10 C21 1_555 1_555
C10 C23 1_555 1_555
C16 C19 1_555 1_555
C18 C22 1_555 1_555
C20 C24 1_555 1_555
V2A O6A 1_555 1_555
N3A C6A 1_555 1_555
C5A C17A 1_555 1_555
N4A C12A 1_555 1_555
C6A C11A 1_555 1_555
C7A C15A 1_555 1_555
C9A C12A 1_555 1_555
C10A C21A 1_555 1_555
C10A C23A 1_555 1_555
C16A C19A 1_555 1_555
C18A C22A 1_555 1_555
C20A C24A 1_555 1_555

#END
