
#######################################################################
#
#                 Cambridge Crystallographic Data Centre
#                                CCDC 
#
#######################################################################
#
# If this CIF has been generated from an entry in the Cambridge 
# Structural Database, then it will include bibliographic, chemical, 
# crystal, experimental, refinement or atomic coordinate data resulting 
# from the CCDC's data processing and validation procedures.
#
#######################################################################

data_YENTER
_symmetry_cell_setting           triclinic
_symmetry_space_group_name_H-M   'P -1'
_symmetry_Int_Tables_number      2
_space_group_name_Hall           '-P 1'
loop_
_symmetry_equiv_pos_site_id
_symmetry_equiv_pos_as_xyz
1 x,y,z
2 -x,-y,-z
_cell_length_a                   11.0850(5)
_cell_length_b                   16.0390(6)
_cell_length_c                   17.4260(6)
_cell_angle_alpha                94.130(2)
_cell_angle_beta                 106.592(2)
_cell_angle_gamma                98.8500(19)
_cell_volume                     2911.78
loop_
_atom_site_label
_atom_site_type_symbol
_atom_site_fract_x
_atom_site_fract_y
_atom_site_fract_z
Cu1 Cu 0.51664(5) 0.27202(3) 0.01924(3)
N1 N 0.4101(4) 0.3377(3) -0.0640(2)
C1 C 0.2866(5) 0.3202(4) -0.1056(3)
H1 H 0.2362 0.2712 -0.0983
C2 C 0.2297(7) 0.3734(5) -0.1604(4)
H2 H 0.1426 0.3602 -0.1880
C3 C 0.3022(7) 0.4438(5) -0.1724(4)
H3 H 0.2649 0.4792 -0.2085
C4 C 0.4343(6) 0.4639(4) -0.1307(3)
C5 C 0.5211(8) 0.5352(4) -0.1401(4)
H4 H 0.4906 0.5723 -0.1766
C6 C 0.6442(8) 0.5499(4) -0.0983(4)
H5 H 0.6974 0.5975 -0.1054
C7 C 0.6978(6) 0.4943(3) -0.0422(4)
C8 C 0.8263(6) 0.5051(4) 0.0043(4)
H6 H 0.8849 0.5513 0.0001
C9 C 0.8659(6) 0.4474(4) 0.0560(4)
H7 H 0.9514 0.4540 0.0864
C10 C 0.7779(5) 0.3792(4) 0.0626(3)
H8 H 0.8058 0.3405 0.0979
N2 N 0.6548(4) 0.3672(2) 0.0201(2)
C11 C 0.4831(5) 0.4077(3) -0.0768(3)
C12 C 0.6155(5) 0.4241(3) -0.0320(3)
C13 C 0.2733(5) 0.1845(3) 0.0416(3)
H9 H 0.2734 0.2350 0.0714
N3 N 0.3690(4) 0.1794(2) 0.0096(2)
C14 C 0.1745(6) 0.1165(4) 0.0313(4)
H10 H 0.1088 0.1216 0.0537
C15 C 0.1735(6) 0.0421(4) -0.0117(4)
H11 H 0.1076 -0.0038 -0.0180
C16 C 0.2711(6) 0.0340(3) -0.0464(3)
C17 C 0.2815(7) -0.0414(4) -0.0900(4)
H12 H 0.2182 -0.0893 -0.0984
C18 C 0.3788(8) -0.0455(4) -0.1192(4)
H13 H 0.3819 -0.0963 -0.1473
C19 C 0.4799(6) 0.0265(4) -0.1088(3)
C20 C 0.5858(8) 0.0263(5) -0.1366(4)
H14 H 0.5944 -0.0228 -0.1649
C21 C 0.6763(8) 0.0975(5) -0.1227(4)
H15 H 0.7469 0.0976 -0.1414
C22 C 0.6626(6) 0.1705(4) -0.0799(3)
H16 H 0.7251 0.2191 -0.0706
N4 N 0.5646(4) 0.1732(3) -0.0522(2)
C23 C 0.4739(5) 0.1024(3) -0.0665(3)
C24 C 0.3688(5) 0.1058(3) -0.0338(3)
Cu2 Cu 0.44916(6) 0.22458(4) 0.47813(3)
N5 N 0.5531(4) 0.1608(3) 0.5645(3)
C25 C 0.6720(6) 0.1825(4) 0.6121(3)
H17 H 0.7198 0.2348 0.6098
C26 C 0.7285(7) 0.1282(5) 0.6663(4)
H18 H 0.8133 0.1441 0.6981
C27 C 0.6592(7) 0.0531(4) 0.6721(4)
H19 H 0.6960 0.0173 0.7079
C28 C 0.5321(6) 0.0297(4) 0.6238(3)
C29 C 0.4501(7) -0.0472(4) 0.6268(4)
H20 H 0.4816 -0.0851 0.6620
C30 C 0.3291(7) -0.0651(4) 0.5797(4)
H21 H 0.2778 -0.1153 0.5835
C31 C 0.2743(6) -0.0094(3) 0.5229(4)
C32 C 0.1502(6) -0.0244(4) 0.4709(4)
H22 H 0.0937 -0.0735 0.4712
C33 C 0.1109(6) 0.0332(4) 0.4192(4)
H23 H 0.0277 0.0240 0.3846
C34 C 0.1976(5) 0.1056(3) 0.4194(4)
H24 H 0.1708 0.1437 0.3832
N6 N 0.3151(4) 0.1231(3) 0.4678(2)
C35 C 0.3550(5) 0.0661(3) 0.5197(3)
C36 C 0.4834(5) 0.0861(3) 0.5707(3)
C37 C 0.2800(6) 0.3168(4) 0.5680(4)
H25 H 0.2168 0.2682 0.5521
N7 N 0.3851(4) 0.3177(3) 0.5471(2)
C38 C 0.2591(7) 0.3860(5) 0.6131(4)
H26 H 0.1836 0.3828 0.6269
C39 C 0.3482(7) 0.4569(4) 0.6360(4)
H27 H 0.3340 0.5034 0.6651
C40 C 0.4625(6) 0.4611(3) 0.6165(3)
C41 C 0.5644(7) 0.5337(4) 0.6376(4)
H28 H 0.5573 0.5812 0.6686
C42 C 0.6702(7) 0.5351(4) 0.6138(4)
H29 H 0.7348 0.5830 0.6293
C43 C 0.6842(5) 0.4642(3) 0.5652(3)
C44 C 0.7899(6) 0.4630(4) 0.5354(3)
H30 H 0.8569 0.5093 0.5490
C45 C 0.7928(6) 0.3942(4) 0.4873(4)
H31 H 0.8615 0.3935 0.4668
C46 C 0.6929(5) 0.3238(4) 0.4680(3)
H32 H 0.6967 0.2768 0.4347
N8 N 0.5923(4) 0.3224(2) 0.4961(2)
C47 C 0.5871(5) 0.3913(3) 0.5439(3)
C48 C 0.4758(5) 0.3893(3) 0.5699(3)
V1 V 1.05132(11) 0.26144(10) 0.18398(8)
V2 V 0.92513(8) 0.39321(6) 0.29365(5)
V3 V 0.63138(7) 0.27640(5) 0.22885(4)
V4 V 0.35300(7) 0.23634(5) 0.26929(5)
O1 O 1.0095(10) 0.2560(9) 0.0910(4)
O2 O 1.0006(7) 0.1670(5) 0.2118(9)
O3 O 0.9821(4) 0.3411(3) 0.2215(3)
O4 O 0.9662(4) 0.4946(3) 0.2965(3)
O5 O 0.9888(4) 0.3671(3) 0.3827(2)
O6 O 0.7506(3) 0.3692(2) 0.2631(2)
O7 O 0.6777(4) 0.1966(2) 0.2739(2)
O8 O 0.6002(3) 0.2527(2) 0.12998(19)
O9 O 0.4891(3) 0.2963(2) 0.2498(2)
O10 O 0.3771(4) 0.2448(3) 0.3678(2)
O11 O 0.3311(4) 0.1375(2) 0.2332(2)
O12 O 0.2203(4) 0.2816(3) 0.2219(3)
V1_2 V 0.05132(11) 0.26144(10) 0.18398(8)
O12_2 O 1.2203(4) 0.2816(3) 0.2219(3)
O13 O 0.8657(7) 0.0985(5) 1.3023(4)
O14 O 0.9681(6) 0.2173(4) 1.4484(4)
O15 O -0.0131(7) 0.2685(5) 0.9318(4)
O16 O 0.0074(10) 0.2241(5) 0.6127(6)
O17 O 0.0211(6) 0.1425(4) 0.8250(4)
O18 O 1.0838(6) 0.6591(4) 1.3085(4)
O19 O 1.0889(5) 0.0275(3) 1.1845(3)
O20 O 0.1652(9) 0.4908(8) 0.1968(6)
O21 O 0.582(3) 0.810(2) 0.2655(11)
O22 O 0.1801(12) 0.6590(7) 0.1744(6)
O23 O 0.8351(18) 0.8813(15) 0.2814(9)
O24? O 0.4319(19) 0.6794(13) 0.2332(9)
loop_
_geom_bond_atom_site_label_1
_geom_bond_atom_site_label_2
_geom_bond_site_symmetry_1
_geom_bond_site_symmetry_2
Cu1 N1 1_555 1_555
N1 C1 1_555 1_555
C1 H1 1_555 1_555
C2 C1 1_555 1_555
H2 C2 1_555 1_555
C3 C2 1_555 1_555
H3 C3 1_555 1_555
C4 C3 1_555 1_555
C5 C4 1_555 1_555
H4 C5 1_555 1_555
C6 C5 1_555 1_555
H5 C6 1_555 1_555
C7 C6 1_555 1_555
C8 C7 1_555 1_555
H6 C8 1_555 1_555
C9 C8 1_555 1_555
H7 C9 1_555 1_555
C10 C9 1_555 1_555
H8 C10 1_555 1_555
N2 Cu1 1_555 1_555
C11 N1 1_555 1_555
C12 C7 1_555 1_555
C13 H9 1_555 1_555
N3 Cu1 1_555 1_555
C14 C13 1_555 1_555
H10 C14 1_555 1_555
C15 C14 1_555 1_555
H11 C15 1_555 1_555
C16 C15 1_555 1_555
C17 C16 1_555 1_555
H12 C17 1_555 1_555
C18 C17 1_555 1_555
H13 C18 1_555 1_555
C19 C18 1_555 1_555
C20 C19 1_555 1_555
H14 C20 1_555 1_555
C21 C20 1_555 1_555
H15 C21 1_555 1_555
C22 C21 1_555 1_555
H16 C22 1_555 1_555
N4 Cu1 1_555 1_555
C23 C19 1_555 1_555
C24 N3 1_555 1_555
Cu2 N5 1_555 1_555
N5 C25 1_555 1_555
C25 H17 1_555 1_555
C26 C25 1_555 1_555
H18 C26 1_555 1_555
C27 C26 1_555 1_555
H19 C27 1_555 1_555
C28 C27 1_555 1_555
C29 C28 1_555 1_555
H20 C29 1_555 1_555
C30 C29 1_555 1_555
H21 C30 1_555 1_555
C31 C30 1_555 1_555
C32 C31 1_555 1_555
H22 C32 1_555 1_555
C33 C32 1_555 1_555
H23 C33 1_555 1_555
C34 C33 1_555 1_555
H24 C34 1_555 1_555
N6 Cu2 1_555 1_555
C35 C31 1_555 1_555
C36 N5 1_555 1_555
C37 H25 1_555 1_555
N7 Cu2 1_555 1_555
C38 C37 1_555 1_555
H26 C38 1_555 1_555
C39 C38 1_555 1_555
H27 C39 1_555 1_555
C40 C39 1_555 1_555
C41 C40 1_555 1_555
H28 C41 1_555 1_555
C42 C41 1_555 1_555
H29 C42 1_555 1_555
C43 C42 1_555 1_555
C44 C43 1_555 1_555
H30 C44 1_555 1_555
C45 C44 1_555 1_555
H31 C45 1_555 1_555
C46 C45 1_555 1_555
H32 C46 1_555 1_555
N8 Cu2 1_555 1_555
C47 C43 1_555 1_555
C48 N7 1_555 1_555
V1 O1 1_555 1_555
V2 O3 1_555 1_555
V3 O6 1_555 1_555
V4 O9 1_555 1_555
O2 V1 1_555 1_555
O3 V1 1_555 1_555
O4 V2 1_555 1_555
O5 V2 1_555 1_555
O6 V2 1_555 1_555
O7 V3 1_555 1_555
O8 Cu1 1_555 1_555
O9 V3 1_555 1_555
O10 Cu2 1_555 1_555
O11 V4 1_555 1_555
O12 V4 1_555 1_555
V1_2 O12 1_555 1_555
O12_2 V1 1_555 1_555
C4 C11 1_555 1_555
C10 N2 1_555 1_555
N2 C12 1_555 1_555
C11 C12 1_555 1_555
C13 N3 1_555 1_555
C16 C24 1_555 1_555
C22 N4 1_555 1_555
N4 C23 1_555 1_555
C23 C24 1_555 1_555
C28 C36 1_555 1_555
C34 N6 1_555 1_555
N6 C35 1_555 1_555
C35 C36 1_555 1_555
C37 N7 1_555 1_555
C40 C48 1_555 1_555
C46 N8 1_555 1_555
N8 C47 1_555 1_555
C47 C48 1_555 1_555
V3 O8 1_555 1_555
V4 O10 1_555 1_555

#END
