
#######################################################################
#
#                 Cambridge Crystallographic Data Centre
#                                CCDC 
#
#######################################################################
#
# If this CIF has been generated from an entry in the Cambridge 
# Structural Database, then it will include bibliographic, chemical, 
# crystal, experimental, refinement or atomic coordinate data resulting 
# from the CCDC's data processing and validation procedures.
#
#######################################################################

data_YENVAP
_symmetry_cell_setting           monoclinic
_symmetry_space_group_name_H-M   'C 2/c'
_symmetry_Int_Tables_number      15
_space_group_name_Hall           '-C 2yn'
loop_
_symmetry_equiv_pos_site_id
_symmetry_equiv_pos_as_xyz
1 x,y,z
2 1/2+x,1/2+y,z
3 -x,y,1/2-z
4 1/2-x,1/2+y,1/2-z
5 -x,-y,-z
6 1/2-x,1/2-y,-z
7 x,-y,1/2+z
8 1/2+x,1/2-y,1/2+z
_cell_length_a                   17.992(2)
_cell_length_b                   17.224(2)
_cell_length_c                   18.549(2)
_cell_angle_alpha                90
_cell_angle_beta                 88.817(6)
_cell_angle_gamma                90
_cell_volume                     5747
loop_
_atom_site_label
_atom_site_type_symbol
_atom_site_fract_x
_atom_site_fract_y
_atom_site_fract_z
Rh1 Rh 0.79950(1) 0.20601(1) 0.51099(1)
S1 S 0.92578(7) -0.18348(7) 0.64554(6)
O1 O 0.8663(1) 0.2742(1) 0.4474(1)
O2 O 0.7723(1) 0.3565(1) 0.4264(1)
O3 O 0.7652(1) 0.1446(1) 0.4241(1)
O4 O 0.6713(1) 0.2275(1) 0.4033(1)
N1 N 0.8860(2) 0.1202(2) 0.5277(2)
C1 C 0.9778(2) -0.1097(2) 0.6102(2)
C2 C 0.9390(2) -0.0718(2) 0.5577(2)
C3 C 0.8656(2) -0.1018(2) 0.5463(2)
C4 C 0.8487(3) -0.1652(3) 0.5898(2)
C5 C 0.9672(2) -0.0024(2) 0.5192(2)
C6 C 0.9231(2) 0.0667(2) 0.5235(2)
C7 C 1.0524(2) -0.0932(3) 0.6403(2)
C8 C 0.8130(3) -0.0700(3) 0.4921(3)
C9 C 0.7842(4) -0.2146(4) 0.5946(4)
C10 C 0.8392(2) 0.3347(2) 0.4193(2)
C11 C 0.8907(2) 0.3836(3) 0.3719(3)
C12 C 0.8992(4) 0.3388(5) 0.2992(3)
C13 C 0.9662(3) 0.3900(4) 0.4056(4)
C14 C 0.8571(3) 0.4616(3) 0.3565(4)
C15 C 0.7089(2) 0.1666(2) 0.3896(2)
C16 C 0.6848(2) 0.1146(2) 0.3280(2)
C17 C 0.6238(5) 0.1523(4) 0.2851(4)
C18 C 0.6583(5) 0.0391(4) 0.3605(4)
C19 C 0.7512(4) 0.1006(5) 0.2792(3)
H1 H 1.0632 -0.1303 0.6765
H2 H 1.0891 -0.0962 0.6028
H3 H 1.0525 -0.0426 0.6607
H4 H 0.8355 -0.0271 0.4679
H5 H 0.8017 -0.1092 0.4580
H6 H 0.7686 -0.0535 0.5160
H7 H 0.7417 -0.1843 0.6070
H8 H 0.7768 -0.2390 0.5494
H9 H 0.7914 -0.2531 0.6305
H10 H 0.8517 0.3329 0.2783
H11 H 0.9309 0.3671 0.2672
H12 H 0.9200 0.2891 0.3078
H13 H 0.9868 0.3396 0.4111
H14 H 0.9981 0.4204 0.3755
H15 H 0.9611 0.4141 0.4516
H16 H 0.8516 0.4900 0.4002
H17 H 0.8888 0.4894 0.3240
H18 H 0.8098 0.4547 0.3356
H19 H 0.6413 0.2001 0.2656
H20 H 0.6101 0.1187 0.2469
H21 H 0.5818 0.1615 0.3157
H22 H 0.6177 0.0489 0.3929
H23 H 0.6427 0.0053 0.3233
H24 H 0.6976 0.0155 0.3859
H25 H 0.7893 0.0762 0.3057
H26 H 0.7373 0.0680 0.2404
H27 H 0.7688 0.1488 0.2607
Rh1E Rh 0.70050(1) 0.29399(1) 0.48901(1)
Rh1D Rh 1.20050(1) -0.20601(1) 0.48901(1)
S1D S 1.07422(7) 0.18348(7) 0.35446(6)
O1E O 0.6337(1) 0.2258(1) 0.5526(1)
O2E O 0.7277(1) 0.1435(1) 0.5736(1)
O3E O 0.7348(1) 0.3554(1) 0.5759(1)
O4E O 0.8287(1) 0.2725(1) 0.5967(1)
N1D N 1.1140(2) -0.1202(2) 0.4723(2)
N1E N 0.6140(2) 0.3798(2) 0.4723(2)
C1D C 1.0222(2) 0.1097(2) 0.3898(2)
C2D C 1.0610(2) 0.0718(2) 0.4423(2)
C3D C 1.1344(2) 0.1018(2) 0.4537(2)
C4D C 1.1513(3) 0.1652(3) 0.4102(2)
C5D C 1.0328(2) 0.0024(2) 0.4808(2)
C6D C 1.0769(2) -0.0667(2) 0.4765(2)
C7D C 0.9476(2) 0.0932(3) 0.3597(2)
C8D C 1.1870(3) 0.0700(3) 0.5079(3)
C9D C 1.2158(4) 0.2146(4) 0.4054(4)
C10E C 0.6608(2) 0.1653(2) 0.5807(2)
C11E C 0.6093(2) 0.1164(3) 0.6281(3)
C12E C 0.6008(4) 0.1612(5) 0.7008(3)
C13E C 0.5338(3) 0.1100(4) 0.5944(4)
C14E C 0.6429(3) 0.0384(3) 0.6435(4)
C15E C 0.7911(2) 0.3334(2) 0.6104(2)
C16E C 0.8152(2) 0.3854(2) 0.6720(2)
C17E C 0.8762(5) 0.3477(4) 0.7149(4)
C18E C 0.8417(5) 0.4609(4) 0.6395(4)
C19E C 0.7488(4) 0.3994(5) 0.7208(3)
H1D H 0.9368 0.1303 0.3235
H2D H 0.9109 0.0962 0.3972
H3D H 0.9475 0.0426 0.3393
H4D H 1.1645 0.0271 0.5321
H5D H 1.1983 0.1092 0.5420
H6D H 1.2314 0.0535 0.4840
H7D H 1.2583 0.1843 0.3930
H8D H 1.2232 0.2390 0.4506
H9D H 1.2086 0.2531 0.3695
H10E H 0.6483 0.1671 0.7217
H11E H 0.5691 0.1329 0.7328
H12E H 0.5800 0.2109 0.6922
H13E H 0.5132 0.1604 0.5889
H14E H 0.5019 0.0796 0.6245
H15E H 0.5389 0.0859 0.5484
H16E H 0.6484 0.0100 0.5998
H17E H 0.6112 0.0106 0.6760
H18E H 0.6902 0.0453 0.6644
H19E H 0.8587 0.2999 0.7344
H20E H 0.8899 0.3813 0.7531
H21E H 0.9182 0.3385 0.6843
H22E H 0.8823 0.4511 0.6071
H23E H 0.8573 0.4947 0.6767
H24E H 0.8024 0.4845 0.6141
H25E H 0.7107 0.4238 0.6943
H26E H 0.7627 0.4320 0.7596
H27E H 0.7312 0.3512 0.7393
Cl1 Cl 1.0724(1) 0.3385(1) 0.5660(1)
Cl2 Cl 1.0381(1) 0.1871(1) 0.62574(9)
C20 C 1.0194(3) 0.2539(3) 0.5572(3)
H28 H 0.9682 0.2671 0.5596
H29 H 1.0308 0.2306 0.5119
Cl3 Cl 0.79360(8) 0.1344(1) 0.78288(8)
Cl4 Cl 0.8872(3) 0.0312(2) 0.7015(2)
C21 C 0.8512(3) 0.1214(3) 0.7064(3)
H30 H 0.8229 0.1305 0.6646
H31 H 0.8909 0.1577 0.7081
Cl5? Cl 0.9140(6) 0.0503(5) 0.7228(6)
Cl6? Cl 0.941(1) 0.072(2) 0.716(1)
loop_
_geom_bond_atom_site_label_1
_geom_bond_atom_site_label_2
_geom_bond_site_symmetry_1
_geom_bond_site_symmetry_2
Rh1 O1 1_555 1_555
Cl1 C20 1_555 1_555
Cl2 C20 1_555 1_555
Cl3 C21 1_555 1_555
Cl4 C21 1_555 1_555
S1 C1 1_555 1_555
O1 C10 1_555 1_555
O2 C10 1_555 1_555
O3 Rh1 1_555 1_555
O4 C15 1_555 1_555
N1 Rh1 1_555 1_555
C1 C2 1_555 1_555
C2 C3 1_555 1_555
C3 C4 1_555 1_555
C4 S1 1_555 1_555
C5 C2 1_555 1_555
C6 N1 1_555 1_555
C7 C1 1_555 1_555
C8 C3 1_555 1_555
C9 C4 1_555 1_555
C10 C11 1_555 1_555
C11 C12 1_555 1_555
C12 H10 1_555 1_555
C13 C11 1_555 1_555
C14 C11 1_555 1_555
C15 O3 1_555 1_555
C16 C15 1_555 1_555
C17 C16 1_555 1_555
C18 C16 1_555 1_555
C19 C16 1_555 1_555
C20 H28 1_555 1_555
C21 H30 1_555 1_555
H1 C7 1_555 1_555
H2 C7 1_555 1_555
H3 C7 1_555 1_555
H4 C8 1_555 1_555
H5 C8 1_555 1_555
H6 C8 1_555 1_555
H7 C9 1_555 1_555
H8 C9 1_555 1_555
H9 C9 1_555 1_555
H11 C12 1_555 1_555
H12 C12 1_555 1_555
H13 C13 1_555 1_555
H14 C13 1_555 1_555
H15 C13 1_555 1_555
H16 C14 1_555 1_555
H17 C14 1_555 1_555
H18 C14 1_555 1_555
H19 C17 1_555 1_555
H20 C17 1_555 1_555
H21 C17 1_555 1_555
H22 C18 1_555 1_555
H23 C18 1_555 1_555
H24 C18 1_555 1_555
H25 C19 1_555 1_555
H26 C19 1_555 1_555
H27 C19 1_555 1_555
H29 C20 1_555 1_555
H31 C21 1_555 1_555
Rh1E Rh1 1_555 1_555
Rh1D N1D 1_555 1_555
S1D C1D 1_555 1_555
O1E Rh1E 1_555 1_555
O2E Rh1 1_555 1_555
O3E Rh1E 1_555 1_555
O4E Rh1 1_555 1_555
N1D C6D 1_555 1_555
N1E Rh1E 1_555 1_555
C1D C2D 1_555 1_555
C2D C3D 1_555 1_555
C3D C4D 1_555 1_555
C4D S1D 1_555 1_555
C5D C5 1_555 1_555
C6D C5D 1_555 1_555
C7D C1D 1_555 1_555
C8D C3D 1_555 1_555
C9D C4D 1_555 1_555
C10E O1E 1_555 1_555
C11E C10E 1_555 1_555
C12E C11E 1_555 1_555
C13E C11E 1_555 1_555
C14E C11E 1_555 1_555
C15E O3E 1_555 1_555
C16E C15E 1_555 1_555
C17E C16E 1_555 1_555
C18E C16E 1_555 1_555
C19E C16E 1_555 1_555
H1D C7D 1_555 1_555
H2D C7D 1_555 1_555
H3D C7D 1_555 1_555
H4D C8D 1_555 1_555
H5D C8D 1_555 1_555
H6D C8D 1_555 1_555
H7D C9D 1_555 1_555
H8D C9D 1_555 1_555
H9D C9D 1_555 1_555
H10E C12E 1_555 1_555
H11E C12E 1_555 1_555
H12E C12E 1_555 1_555
H13E C13E 1_555 1_555
H14E C13E 1_555 1_555
H15E C13E 1_555 1_555
H16E C14E 1_555 1_555
H17E C14E 1_555 1_555
H18E C14E 1_555 1_555
H19E C17E 1_555 1_555
H20E C17E 1_555 1_555
H21E C17E 1_555 1_555
H22E C18E 1_555 1_555
H23E C18E 1_555 1_555
H24E C18E 1_555 1_555
H25E C19E 1_555 1_555
H26E C19E 1_555 1_555
H27E C19E 1_555 1_555
O2 Rh1E 1_555 1_555
O4 Rh1E 1_555 1_555
C5 C6 1_555 1_555
O2E C10E 1_555 1_555
O4E C15E 1_555 1_555
C2D C5D 1_555 1_555

#END
