
#######################################################################
#
#                 Cambridge Crystallographic Data Centre
#                                CCDC 
#
#######################################################################
#
# If this CIF has been generated from an entry in the Cambridge 
# Structural Database, then it will include bibliographic, chemical, 
# crystal, experimental, refinement or atomic coordinate data resulting 
# from the CCDC's data processing and validation procedures.
#
#######################################################################

data_YENVET
_symmetry_cell_setting           orthorhombic
_symmetry_space_group_name_H-M   'F d d 2'
_symmetry_Int_Tables_number      43
_space_group_name_Hall           'F 2 -2d'
loop_
_symmetry_equiv_pos_site_id
_symmetry_equiv_pos_as_xyz
1 x,y,z
2 -x,-y,z
3 1/4-x,1/4+y,1/4+z
4 1/4+x,1/4-y,1/4+z
5 x,1/2+y,1/2+z
6 -x,1/2-y,1/2+z
7 1/4-x,3/4+y,3/4+z
8 1/4+x,3/4-y,3/4+z
9 1/2+x,y,1/2+z
10 1/2-x,-y,1/2+z
11 3/4-x,1/4+y,3/4+z
12 3/4+x,1/4-y,3/4+z
13 1/2+x,1/2+y,z
14 1/2-x,1/2-y,z
15 3/4-x,3/4+y,1/4+z
16 3/4+x,3/4-y,1/4+z
_cell_length_a                   36.112(3)
_cell_length_b                   51.701(5)
_cell_length_c                   11.379(1)
_cell_angle_alpha                90
_cell_angle_beta                 90
_cell_angle_gamma                90
_cell_volume                     21244.9
loop_
_atom_site_label
_atom_site_type_symbol
_atom_site_fract_x
_atom_site_fract_y
_atom_site_fract_z
Rh1 Rh 0.32822(2) 0.31113(1) 0.42585(5)
Rh2 Rh 0.34822(2) 0.35317(1) 0.36323(6)
S1 S 0.30512(6) 0.26719(3) 0.5057(2)
S2 S 0.33421(7) 0.23126(4) 0.2577(2)
O1 O 0.3697(2) 0.2964(1) 0.3243(5)
O2 O 0.3873(2) 0.3360(1) 0.2628(6)
O3 O 0.2954(2) 0.3099(1) 0.2797(5)
O4 O 0.3124(2) 0.3499(1) 0.2242(6)
O5 O 0.2863(2) 0.3295(1) 0.5137(5)
O6 O 0.3067(2) 0.3684(1) 0.4606(6)
O7 O 0.3616(2) 0.3148(1) 0.5674(5)
O8 O 0.3824(2) 0.3538(1) 0.5041(6)
N1 N 0.3389(4) 0.1754(2) 0.8289(8)
N2 N 0.3823(2) 0.1412(1) 0.5675(7)
C1 C 0.3406(2) 0.2008(2) 0.6327(7)
C2 C 0.3525(3) 0.1858(2) 0.5298(8)
C3 C 0.3400(3) 0.1875(2) 0.7430(8)
C4 C 0.3689(2) 0.1608(2) 0.5499(8)
C5 C 0.3359(2) 0.2384(2) 0.5005(7)
C6 C 0.3308(2) 0.2261(1) 0.6212(8)
C7 C 0.3173(3) 0.2443(2) 0.7097(7)
C8 C 0.3040(3) 0.2665(2) 0.6611(8)
C9 C 0.3230(2) 0.2196(2) 0.4076(7)
C10 C 0.3456(2) 0.1946(1) 0.4183(8)
C11 C 0.3551(3) 0.1835(2) 0.3075(8)
C12 C 0.3509(3) 0.2003(2) 0.2145(8)
C13 C 0.3764(3) 0.2475(2) 0.4904(9)
C14 C 0.3167(4) 0.2387(2) 0.8395(8)
C15 C 0.2870(4) 0.2891(2) 0.7210(9)
C16 C 0.2824(2) 0.2127(1) 0.4110(7)
C17 C 0.3684(4) 0.1563(2) 0.2877(9)
C18 C 0.3581(4) 0.1965(2) 0.0893(9)
C19 C 0.3884(3) 0.3114(2) 0.2581(8)
C20 C 0.4128(3) 0.2982(2) 0.169(1)
C21 C 0.4353(6) 0.2779(3) 0.221(2)
C22 C 0.3856(4) 0.2870(3) 0.072(1)
C23 C 0.4393(4) 0.3176(2) 0.104(1)
C24 C 0.2952(2) 0.3291(2) 0.2117(7)
C25 C 0.2708(3) 0.3273(2) 0.1007(8)
C26 C 0.2597(4) 0.2996(3) 0.0748(10)
C27 C 0.2356(4) 0.3428(3) 0.122(1)
C28 C 0.2913(5) 0.3389(3) -0.005(1)
C29 C 0.2846(3) 0.3542(2) 0.5110(8)
C30 C 0.2497(4) 0.3666(2) 0.5664(10)
C31 C 0.2330(4) 0.3501(2) 0.659(1)
C32 C 0.2595(4) 0.3937(2) 0.605(1)
C33 C 0.2197(4) 0.3686(2) 0.463(1)
C34 C 0.3820(3) 0.3356(2) 0.5782(8)
C35 C 0.4035(4) 0.3385(2) 0.6901(10)
C36 C 0.4145(8) 0.3128(3) 0.745(2)
C37 C 0.4374(6) 0.3555(4) 0.668(2)
C38 C 0.377(1) 0.3510(7) 0.777(1)
H1 H 0.3925 0.2331 0.4992
H2 H 0.3803 0.2552 0.4155
H3 H 0.3815 0.2598 0.5501
H4 H 0.2919 0.2388 0.8668
H5 H 0.3274 0.2223 0.8536
H6 H 0.3305 0.2516 0.8799
H7 H 0.3042 0.2963 0.7749
H8 H 0.2804 0.3018 0.6642
H9 H 0.2655 0.2837 0.7622
H10 H 0.2680 0.2280 0.4049
H11 H 0.2768 0.2015 0.3473
H12 H 0.2769 0.2042 0.4830
H13 H 0.3695 0.1475 0.3608
H14 H 0.3518 0.1476 0.2367
H15 H 0.3924 0.1567 0.2531
H16 H 0.3431 0.1828 0.0607
H17 H 0.3523 0.2120 0.0479
H18 H 0.3835 0.1924 0.0780
H19 H 0.4198 0.2659 0.2604
H20 H 0.4488 0.2692 0.1611
H21 H 0.4521 0.2853 0.2756
H22 H 0.3721 0.3007 0.0376
H23 H 0.3995 0.2782 0.0138
H24 H 0.3688 0.2752 0.1083
H25 H 0.4562 0.3248 0.1589
H26 H 0.4526 0.3087 0.0443
H27 H 0.4251 0.3311 0.0694
H28 H 0.2465 0.2927 0.1400
H29 H 0.2444 0.2992 0.0069
H30 H 0.2813 0.2895 0.0613
H31 H 0.2418 0.3603 0.1389
H32 H 0.2203 0.3421 0.0542
H33 H 0.2226 0.3356 0.1871
H34 H 0.3133 0.3293 -0.0187
H35 H 0.2759 0.3382 -0.0721
H36 H 0.2975 0.3564 0.0117
H37 H 0.2108 0.3579 0.6865
H38 H 0.2277 0.3335 0.6274
H39 H 0.2499 0.3484 0.7224
H40 H 0.2788 0.3930 0.6619
H41 H 0.2674 0.4035 0.5394
H42 H 0.2383 0.4017 0.6392
H43 H 0.1975 0.3760 0.4921
H44 H 0.2292 0.3792 0.4013
H45 H 0.2147 0.3518 0.4328
H46 H 0.3930 0.3025 0.7560
H47 H 0.4311 0.3041 0.6938
H48 H 0.4261 0.3158 0.8181
H49 H 0.4511 0.3572 0.7391
H50 H 0.4526 0.3478 0.6098
H51 H 0.4296 0.3721 0.6423
H52 H 0.3894 0.3534 0.8501
H53 H 0.3694 0.3673 0.7474
H54 H 0.3562 0.3402 0.7878
Rh2N Rh 0.40178(2) 0.10317(1) 0.61323(6)
N2J N 0.3677(2) 0.3912(1) 0.3175(7)
loop_
_geom_bond_atom_site_label_1
_geom_bond_atom_site_label_2
_geom_bond_site_symmetry_1
_geom_bond_site_symmetry_2
Rh1 Rh2 1_555 1_555
Rh2 O2 1_555 1_555
S1 Rh1 1_555 1_555
S2 C9 1_555 1_555
O1 Rh1 1_555 1_555
O2 C19 1_555 1_555
O3 Rh1 1_555 1_555
O4 Rh2 1_555 1_555
O5 Rh1 1_555 1_555
O6 Rh2 1_555 1_555
O7 Rh1 1_555 1_555
O8 Rh2 1_555 1_555
N1 C3 1_555 1_555
N2 C4 1_555 1_555
C1 C2 1_555 1_555
C2 C4 1_555 1_555
C3 C1 1_555 1_555
C5 S1 1_555 1_555
C6 C1 1_555 1_555
C7 C6 1_555 1_555
C8 S1 1_555 1_555
C9 C5 1_555 1_555
C10 C2 1_555 1_555
C11 C10 1_555 1_555
C12 S2 1_555 1_555
C13 C5 1_555 1_555
C14 C7 1_555 1_555
C15 C8 1_555 1_555
C16 C9 1_555 1_555
C17 C11 1_555 1_555
C18 C12 1_555 1_555
C19 O1 1_555 1_555
C20 C19 1_555 1_555
C21 C20 1_555 1_555
C22 C20 1_555 1_555
C23 C20 1_555 1_555
C24 O3 1_555 1_555
C25 C24 1_555 1_555
C26 C25 1_555 1_555
C27 C25 1_555 1_555
C28 C25 1_555 1_555
C29 O5 1_555 1_555
C30 C29 1_555 1_555
C31 C30 1_555 1_555
C32 C30 1_555 1_555
C33 C30 1_555 1_555
C34 O7 1_555 1_555
C35 C34 1_555 1_555
C36 C35 1_555 1_555
C37 C35 1_555 1_555
C38 C35 1_555 1_555
H1 C13 1_555 1_555
H2 C13 1_555 1_555
H3 C13 1_555 1_555
H4 C14 1_555 1_555
H5 C14 1_555 1_555
H6 C14 1_555 1_555
H7 C15 1_555 1_555
H8 C15 1_555 1_555
H9 C15 1_555 1_555
H10 C16 1_555 1_555
H11 C16 1_555 1_555
H12 C16 1_555 1_555
H13 C17 1_555 1_555
H14 C17 1_555 1_555
H15 C17 1_555 1_555
H16 C18 1_555 1_555
H17 C18 1_555 1_555
H18 C18 1_555 1_555
H19 C21 1_555 1_555
H20 C21 1_555 1_555
H21 C21 1_555 1_555
H22 C22 1_555 1_555
H23 C22 1_555 1_555
H24 C22 1_555 1_555
H25 C23 1_555 1_555
H26 C23 1_555 1_555
H27 C23 1_555 1_555
H28 C26 1_555 1_555
H29 C26 1_555 1_555
H30 C26 1_555 1_555
H31 C27 1_555 1_555
H32 C27 1_555 1_555
H33 C27 1_555 1_555
H34 C28 1_555 1_555
H35 C28 1_555 1_555
H36 C28 1_555 1_555
H37 C31 1_555 1_555
H38 C31 1_555 1_555
H39 C31 1_555 1_555
H40 C32 1_555 1_555
H41 C32 1_555 1_555
H42 C32 1_555 1_555
H43 C33 1_555 1_555
H44 C33 1_555 1_555
H45 C33 1_555 1_555
H46 C36 1_555 1_555
H47 C36 1_555 1_555
H48 C36 1_555 1_555
H49 C37 1_555 1_555
H50 C37 1_555 1_555
H51 C37 1_555 1_555
H52 C38 1_555 1_555
H53 C38 1_555 1_555
H54 C38 1_555 1_555
Rh2N N2 1_555 1_555
N2J Rh2 1_555 1_555
O4 C24 1_555 1_555
O6 C29 1_555 1_555
O8 C34 1_555 1_555
C5 C6 1_555 1_555
C7 C8 1_555 1_555
C9 C10 1_555 1_555
C11 C12 1_555 1_555

#END
