
#######################################################################
#
#                 Cambridge Crystallographic Data Centre
#                                CCDC 
#
#######################################################################
#
# If this CIF has been generated from an entry in the Cambridge 
# Structural Database, then it will include bibliographic, chemical, 
# crystal, experimental, refinement or atomic coordinate data resulting 
# from the CCDC's data processing and validation procedures.
#
#######################################################################

data_YEPCUS
_symmetry_cell_setting           cubic
_symmetry_space_group_name_H-M   'P 41 3 2'
_symmetry_Int_Tables_number      213
_space_group_name_Hall           'P 4bd 2ab 3'
loop_
_symmetry_equiv_pos_site_id
_symmetry_equiv_pos_as_xyz
1 x,y,z
2 1/2-x,-y,1/2+z
3 -x,1/2+y,1/2-z
4 1/2+x,1/2-y,-z
5 z,x,y
6 1/2+z,1/2-x,-y
7 1/2-z,-x,1/2+y
8 -z,1/2+x,1/2-y
9 y,z,x
10 -y,1/2+z,1/2-x
11 1/2+y,1/2-z,-x
12 1/2-y,-z,1/2+x
13 3/4+y,1/4+x,1/4-z
14 3/4-y,3/4-x,3/4-z
15 1/4+y,1/4-x,3/4+z
16 1/4-y,3/4+x,1/4+z
17 3/4+x,1/4+z,1/4-y
18 1/4-x,3/4+z,1/4+y
19 3/4-x,3/4-z,3/4-y
20 1/4+x,1/4-z,3/4+y
21 3/4+z,1/4+y,1/4-x
22 1/4+z,1/4-y,3/4+x
23 1/4-z,3/4+y,1/4+x
24 3/4-z,3/4-y,3/4-x
_cell_length_a                   15.6289(5)
_cell_length_b                   15.6289(5)
_cell_length_c                   15.6289(5)
_cell_angle_alpha                90
_cell_angle_beta                 90
_cell_angle_gamma                90
_cell_volume                     3817.55
loop_
_atom_site_label
_atom_site_type_symbol
_atom_site_fract_x
_atom_site_fract_y
_atom_site_fract_z
Cl2 Cl 0.6250 0.8750 0.1250
O3 O 0.6250 0.8151(3) 0.0651(3)
O4 O 0.5688(5) 0.9312(5) 0.0688(5)
O3E O 0.5651(3) 0.8750 0.1849(3)
O3K O 0.6849(3) 0.9349(3) 0.1250
O4L O 0.6812(5) 0.8188(5) 0.1812(5)
Ag1 Ag 0.6250 0.64128(3) 0.89128(3)
Cl1 Cl 0.59008(6) 0.40992(6) 0.90992(6)
O1 O 0.5811(8) 0.4847(4) 0.8698(6)
O2 O 0.6356(4) 0.3644(4) 0.8644(4)
N1 N 0.5002(2) 0.6996(2) 0.8793(2)
N2 N 0.42971(19) 0.67322(19) 0.9223(2)
C1 C 0.4719(3) 0.7520(3) 0.8212(3)
H1 H 0.5069 0.7794 0.7816
C2 C 0.3831(3) 0.7627(3) 0.8247(3)
H2 H 0.3488 0.7968 0.7901
C3 C 0.3586(3) 0.7111(3) 0.8912(3)
H3 H 0.3031 0.7036 0.9113
C4 C 0.4357(2) 0.6152(2) 0.9923(2)
C5 C 0.5018(2) 0.6235(2) 1.0501(2)
H4 H 0.537(2) 0.6678(19) 1.039(3)
Ag1F Ag 0.60872(3) 0.3750 1.14128(3)
Ag1I Ag 0.35872(3) 0.39128(3) 0.8750
Ag1H Ag 0.64128(3) 0.89128(3) 0.6250
Ag1D Ag 0.89128(3) 0.6250 0.64128(3)
Cl1N Cl 0.65992(6) 0.65992(6) 0.65992(6)
O1F O 0.6302(6) 0.4189(8) 0.9847(4)
O1I O 0.5153(4) 0.3698(6) 0.9189(8)
O1Q O 0.6689(8) 0.6198(6) 0.7347(4)
O1T O 0.6198(6) 0.7347(4) 0.6689(8)
O1N O 0.7347(4) 0.6689(8) 0.6198(6)
O1O O 0.7653(4) 0.3311(8) 1.1198(6)
O1V O 0.3802(6) 0.2347(4) 0.8311(8)
O2N O 0.6144(4) 0.6144(4) 0.6144(4)
N1F N 0.6207(2) 0.4998(2) 1.1996(2)
N1I N 0.3004(2) 0.3793(2) 0.9998(2)
N1Q N 0.7498(2) 0.6293(2) 0.9496(2)
N1T N 0.6293(2) 0.9496(2) 0.7498(2)
N1N N 0.9496(2) 0.7498(2) 0.6293(2)
N1O N 0.5504(2) 0.2502(2) 1.1293(2)
N1V N 0.3707(2) 0.4496(2) 0.7502(2)
N2F N 0.5777(2) 0.57029(19) 1.17322(19)
N2I N 0.32678(19) 0.4223(2) 1.07029(19)
N2Q N 0.82029(19) 0.6723(2) 0.92322(19)
N2T N 0.6723(2) 0.92322(19) 0.82029(19)
N2N N 0.92322(19) 0.82029(19) 0.6723(2)
C1F C 0.6788(3) 0.5281(3) 1.2520(3)
C1I C 0.2480(3) 0.3212(3) 1.0281(3)
C1Q C 0.7781(3) 0.5712(3) 1.0020(3)
C1T C 0.5712(3) 1.0020(3) 0.7781(3)
C1N C 1.0020(3) 0.7781(3) 0.5712(3)
H1F H 0.7184 0.4931 1.2794
H1I H 0.2206 0.2816 0.9931
H1Q H 0.7431 0.5316 1.0294
H1T H 0.5316 1.0294 0.7431
H1N H 1.0294 0.7431 0.5316
C2F C 0.6753(3) 0.6169(3) 1.2627(3)
C2I C 0.2373(3) 0.3247(3) 1.1169(3)
C2Q C 0.8669(3) 0.5747(3) 1.0127(3)
C2T C 0.5747(3) 1.0127(3) 0.8669(3)
C2N C 1.0127(3) 0.8669(3) 0.5747(3)
H2F H 0.7099 0.6512 1.2968
H2I H 0.2032 0.2901 1.1512
H2Q H 0.9012 0.5401 1.0468
H2T H 0.5401 1.0468 0.9012
H2N H 1.0468 0.9012 0.5401
C3F C 0.6088(3) 0.6414(3) 1.2111(3)
C3I C 0.2889(3) 0.3912(3) 1.1414(3)
C3Q C 0.8914(3) 0.6412(3) 0.9611(3)
C3T C 0.6412(3) 0.9611(3) 0.8914(3)
C3N C 0.9611(3) 0.8914(3) 0.6412(3)
H3F H 0.5887 0.6969 1.2036
H3I H 0.2964 0.4113 1.1969
H3Q H 0.9469 0.6613 0.9536
H3T H 0.6613 0.9536 0.9469
H3N H 0.9536 0.9469 0.6613
C4F C 0.5077(2) 0.5643(2) 1.1152(2)
C4I C 0.3848(2) 0.4923(2) 1.0643(2)
C4Q C 0.8143(2) 0.7423(2) 0.8652(2)
C4T C 0.7423(2) 0.8652(2) 0.8143(2)
C4N C 0.8652(2) 0.8143(2) 0.7423(2)
C5F C 0.4499(2) 0.4982(2) 1.1235(2)
C5I C 0.3765(2) 0.5501(2) 0.9982(2)
C5Q C 0.7482(2) 0.8001(2) 0.8735(2)
C5T C 0.8001(2) 0.8735(2) 0.7482(2)
C5N C 0.8735(2) 0.7482(2) 0.8001(2)
H4I H 0.3322(19) 0.539(3) 0.963(2)
H4F H 0.461(3) 0.463(2) 1.1678(19)
H4Q H 0.713(2) 0.789(3) 0.9178(19)
H4N H 0.9178(19) 0.713(2) 0.789(3)
H4T H 0.789(3) 0.9178(19) 0.713(2)
loop_
_geom_bond_atom_site_label_1
_geom_bond_atom_site_label_2
_geom_bond_site_symmetry_1
_geom_bond_site_symmetry_2
Ag1 O1 1_555 1_555
Cl1 O1 1_555 1_555
Cl2 O3 1_555 1_555
O2 Cl1 1_555 1_555
O4 Cl2 1_555 1_555
N1 Ag1 1_555 1_555
N2 N1 1_555 1_555
C1 N1 1_555 1_555
H1 C1 1_555 1_555
C2 C1 1_555 1_555
H2 C2 1_555 1_555
C3 N2 1_555 1_555
H3 C3 1_555 1_555
C4 N2 1_555 1_555
C5 C4 1_555 1_555
H4 C5 1_555 1_555
Ag1F O1F 1_555 1_555
Ag1I O1I 1_555 1_555
Ag1H O1T 1_555 1_555
Ag1D O1N 1_555 1_555
Cl1N O1Q 1_555 1_555
O1F Cl1 1_555 1_555
O1I Cl1 1_555 1_555
O1Q Ag1 1_555 1_555
O1T Cl1N 1_555 1_555
O1N Cl1N 1_555 1_555
O1O Ag1F 1_555 1_555
O1V Ag1I 1_555 1_555
O2N Cl1N 1_555 1_555
O3E Cl2 1_555 1_555
O3K Cl2 1_555 1_555
O4L Cl2 1_555 1_555
N1F Ag1F 1_555 1_555
N1I Ag1I 1_555 1_555
N1Q Ag1 1_555 1_555
N1T Ag1H 1_555 1_555
N1N Ag1D 1_555 1_555
N1O Ag1F 1_555 1_555
N1V Ag1I 1_555 1_555
N2F N1F 1_555 1_555
N2I N1I 1_555 1_555
N2Q N1Q 1_555 1_555
N2T N1T 1_555 1_555
N2N N1N 1_555 1_555
C1F N1F 1_555 1_555
C1I N1I 1_555 1_555
C1Q N1Q 1_555 1_555
C1T N1T 1_555 1_555
C1N N1N 1_555 1_555
H1F C1F 1_555 1_555
H1I C1I 1_555 1_555
H1Q C1Q 1_555 1_555
H1T C1T 1_555 1_555
H1N C1N 1_555 1_555
C2F C1F 1_555 1_555
C2I C1I 1_555 1_555
C2Q C1Q 1_555 1_555
C2T C1T 1_555 1_555
C2N C1N 1_555 1_555
H2F C2F 1_555 1_555
H2I C2I 1_555 1_555
H2Q C2Q 1_555 1_555
H2T C2T 1_555 1_555
H2N C2N 1_555 1_555
C3F N2F 1_555 1_555
C3I N2I 1_555 1_555
C3Q N2Q 1_555 1_555
C3T N2T 1_555 1_555
C3N N2N 1_555 1_555
H3F C3F 1_555 1_555
H3I C3I 1_555 1_555
H3Q C3Q 1_555 1_555
H3T C3T 1_555 1_555
H3N C3N 1_555 1_555
C4F C5 1_555 1_555
C4I N2I 1_555 1_555
C4Q N2Q 1_555 1_555
C4T N2T 1_555 1_555
C4N N2N 1_555 1_555
C5F C4F 1_555 1_555
C5I C4 1_555 1_555
C5Q C4Q 1_555 1_555
C5T C4T 1_555 1_555
C5N C4Q 1_555 1_555
H4I C5I 1_555 1_555
H4F C5F 1_555 1_555
H4Q C5Q 1_555 1_555
H4N C5N 1_555 1_555
H4T C5T 1_555 1_555
C2 C3 1_555 1_555
N2F C4F 1_555 1_555
C2F C3F 1_555 1_555
C2I C3I 1_555 1_555
C2Q C3Q 1_555 1_555
C2T C3T 1_555 1_555
C2N C3N 1_555 1_555
C4I C5F 1_555 1_555
C4I C5I 1_555 1_555
C4T C5Q 1_555 1_555
C4N C5T 1_555 1_555
C4N C5N 1_555 1_555

#END
