
#######################################################################
#
#                 Cambridge Crystallographic Data Centre
#                                CCDC 
#
#######################################################################
#
# If this CIF has been generated from an entry in the Cambridge 
# Structural Database, then it will include bibliographic, chemical, 
# crystal, experimental, refinement or atomic coordinate data resulting 
# from the CCDC's data processing and validation procedures.
#
#######################################################################

data_YEPDED
_symmetry_cell_setting           triclinic
_symmetry_space_group_name_H-M   'P -1'
_symmetry_Int_Tables_number      2
_space_group_name_Hall           '-P 1'
loop_
_symmetry_equiv_pos_site_id
_symmetry_equiv_pos_as_xyz
1 x,y,z
2 -x,-y,-z
_cell_length_a                   8.9621(7)
_cell_length_b                   14.0878(11)
_cell_length_c                   14.5858(11)
_cell_angle_alpha                65.0430(10)
_cell_angle_beta                 82.3580(10)
_cell_angle_gamma                86.3600(10)
_cell_volume                     1654.71
loop_
_atom_site_label
_atom_site_type_symbol
_atom_site_fract_x
_atom_site_fract_y
_atom_site_fract_z
Ag1 Ag 1.27077(4) -0.31754(3) 1.01613(2)
Ag2 Ag 1.61476(5) -0.40718(3) 1.29207(3)
O1 O 1.6290(4) -0.2109(3) 1.2331(3)
O2 O 1.8238(4) -0.2747(3) 1.1776(2)
O3 O 1.8263(4) -0.1170(3) 1.1638(3)
O4 O 1.4404(4) -0.4127(2) 1.1795(2)
O5 O 1.5165(5) -0.5703(3) 1.2402(3)
O6 O 1.3849(5) -0.5143(3) 1.1157(3)
O7 O 1.1475(5) -0.2435(3) 1.1556(3)
N1 N 1.0465(4) -0.3905(2) 1.0552(2)
N2 N 0.9220(4) -0.3639(2) 1.0062(2)
N3 N 0.5381(4) 0.2079(3) 0.0484(2)
N4 N 0.5228(4) 0.1218(2) 0.1357(2)
N5 N 1.3504(4) 0.5463(3) 0.5596(3)
N6 N 1.2893(4) 0.5471(3) 0.4809(2)
N7 N 1.7601(5) -0.1997(3) 1.1912(3)
N8 N 1.4470(4) -0.5004(3) 1.1781(3)
C1 C 0.8878(4) 0.0093(3) 0.6401(3)
C2 C 0.9652(4) 0.0979(3) 0.6225(3)
H1 H 1.0186 0.0977 0.6731
C3 C 0.9664(4) 0.1875(3) 0.5318(3)
C4 C 0.8875(4) 0.1867(3) 0.4572(3)
H2 H 0.8901 0.2454 0.3955
C5 C 0.8047(4) 0.1013(3) 0.4715(3)
C6 C 0.8055(4) 0.0129(3) 0.5633(3)
H3 H 0.7500 -0.0452 0.5741
C7 C 0.7198(4) 0.1037(3) 0.3888(3)
C8 C 0.6941(4) 0.0143(3) 0.3767(3)
H4 H 0.7206 -0.0506 0.4252
C9 C 0.6297(4) 0.0200(3) 0.2935(3)
H5 H 0.6153 -0.0407 0.2853
C10 C 0.5871(4) 0.1152(3) 0.2230(3)
C11 C 0.6028(5) 0.2055(3) 0.2360(3)
H6 H 0.5690 0.2696 0.1900
C12 C 0.6703(5) 0.1988(3) 0.3192(3)
H7 H 0.6823 0.2593 0.3282
C13 C 0.8969(4) -0.0884(3) 0.7352(3)
C14 C 0.9823(4) -0.0927(3) 0.8098(3)
H8 H 1.0363 -0.0340 0.7993
C15 C 0.9893(4) -0.1820(3) 0.8994(3)
H9 H 1.0437 -0.1819 0.9494
C16 C 0.9150(4) -0.2707(3) 0.9140(3)
C17 C 0.8305(5) -0.2703(3) 0.8416(3)
H10 H 0.7803 -0.3302 0.8513
C18 C 0.8217(5) -0.1793(3) 0.7541(3)
H11 H 0.7631 -0.1788 0.7059
C19 C 1.0493(4) 0.2817(3) 0.5171(3)
C20 C 1.1278(5) 0.3450(3) 0.4242(3)
H12 H 1.1280 0.3283 0.3689
C21 C 1.2054(5) 0.4319(3) 0.4118(3)
H13 H 1.2576 0.4727 0.3490
C22 C 1.2056(4) 0.4579(3) 0.4922(3)
C23 C 1.1245(4) 0.3985(3) 0.5852(3)
H14 H 1.1204 0.4178 0.6390
C24 C 1.0502(4) 0.3108(3) 0.5972(3)
H15 H 0.9992 0.2698 0.6604
C25 C 1.0105(6) -0.4768(3) 1.1377(3)
H16 H 1.0748 -0.5125 1.1867
C26 C 0.8649(5) -0.5076(3) 1.1420(3)
H17 H 0.8145 -0.5660 1.1918
C27 C 0.8119(5) -0.4330(3) 1.0568(3)
H18 H 0.7165 -0.4307 1.0375
C28 C 0.4317(5) 0.0536(3) 0.1308(3)
H19 H 0.4047 -0.0115 0.1826
C29 C 0.3851(5) 0.0962(4) 0.0364(3)
H20 H 0.3209 0.0669 0.0104
C30 C 0.4540(5) 0.1920(3) -0.0118(3)
H21 H 0.4430 0.2395 -0.0782
C31 C 1.3173(5) 0.6338(3) 0.3981(3)
H22 H 1.2860 0.6500 0.3348
C32 C 1.4004(5) 0.6955(4) 0.4222(4)
H23 H 1.4368 0.7621 0.3800
C33 C 1.4187(5) 0.6375(3) 0.5230(3)
H24 H 1.4724 0.6597 0.5606
C34 C 1.1955(7) -0.1429(5) 1.1310(5)
H25 H 1.1593 -0.1230 1.1855
H26 H 1.3035 -0.1412 1.1210
H27 H 1.1568 -0.0949 1.0696
H28 H 1.051(8) -0.230(5) 1.148(5)
Ag1A Ag 0.72923(4) 0.31754(3) -0.01613(2)
Ag2A Ag 1.38524(5) 0.40718(3) 0.70793(3)
N3A N 1.4619(4) -0.2079(3) 0.9516(2)
N5A N 1.6496(4) -0.5463(3) 1.4404(3)
loop_
_geom_bond_atom_site_label_1
_geom_bond_atom_site_label_2
_geom_bond_site_symmetry_1
_geom_bond_site_symmetry_2
Ag1 O4 1_555 1_555
Ag2 O1 1_555 1_555
O1 N7 1_555 1_555
O2 Ag2 1_555 1_555
O3 N7 1_555 1_555
O4 Ag2 1_555 1_555
O5 N8 1_555 1_555
O6 Ag1 1_555 1_555
O7 Ag1 1_555 1_555
N1 Ag1 1_555 1_555
N2 N1 1_555 1_555
N3 N4 1_555 1_555
N4 C10 1_555 1_555
N5 N6 1_555 1_555
N6 C22 1_555 1_555
N7 O2 1_555 1_555
N8 O4 1_555 1_555
C1 C2 1_555 1_555
C2 H1 1_555 1_555
C3 C2 1_555 1_555
C4 C3 1_555 1_555
H2 C4 1_555 1_555
C5 C4 1_555 1_555
C6 C1 1_555 1_555
H3 C6 1_555 1_555
C7 C5 1_555 1_555
C8 C7 1_555 1_555
H4 C8 1_555 1_555
C9 C8 1_555 1_555
H5 C9 1_555 1_555
C10 C9 1_555 1_555
C11 C10 1_555 1_555
H6 C11 1_555 1_555
C12 C7 1_555 1_555
H7 C12 1_555 1_555
C13 C1 1_555 1_555
C14 C13 1_555 1_555
H8 C14 1_555 1_555
C15 C14 1_555 1_555
H9 C15 1_555 1_555
C16 N2 1_555 1_555
C17 C16 1_555 1_555
H10 C17 1_555 1_555
C18 C13 1_555 1_555
H11 C18 1_555 1_555
C19 C3 1_555 1_555
C20 C19 1_555 1_555
H12 C20 1_555 1_555
C21 C20 1_555 1_555
H13 C21 1_555 1_555
C22 C21 1_555 1_555
C23 C22 1_555 1_555
H14 C23 1_555 1_555
C24 C19 1_555 1_555
H15 C24 1_555 1_555
C25 N1 1_555 1_555
H16 C25 1_555 1_555
C26 C25 1_555 1_555
H17 C26 1_555 1_555
C27 N2 1_555 1_555
H18 C27 1_555 1_555
C28 N4 1_555 1_555
H19 C28 1_555 1_555
C29 C28 1_555 1_555
H20 C29 1_555 1_555
C30 N3 1_555 1_555
H21 C30 1_555 1_555
C31 N6 1_555 1_555
H22 C31 1_555 1_555
C32 C31 1_555 1_555
H23 C32 1_555 1_555
C33 N5 1_555 1_555
H24 C33 1_555 1_555
C34 O7 1_555 1_555
H25 C34 1_555 1_555
H26 C34 1_555 1_555
H27 C34 1_555 1_555
H28 O7 1_555 1_555
Ag1A N3 1_555 1_555
Ag2A N5 1_555 1_555
N3A Ag1 1_555 1_555
N5A Ag2 1_555 1_555
O6 N8 1_555 1_555
C5 C6 1_555 1_555
C11 C12 1_555 1_555
C15 C16 1_555 1_555
C17 C18 1_555 1_555
C23 C24 1_555 1_555
C26 C27 1_555 1_555
C29 C30 1_555 1_555
C32 C33 1_555 1_555

#END
