
#######################################################################
#
#                 Cambridge Crystallographic Data Centre
#                                CCDC 
#
#######################################################################
#
# If this CIF has been generated from an entry in the Cambridge 
# Structural Database, then it will include bibliographic, chemical, 
# crystal, experimental, refinement or atomic coordinate data resulting 
# from the CCDC's data processing and validation procedures.
#
#######################################################################

data_YEPDON
_symmetry_cell_setting           monoclinic
_symmetry_space_group_name_H-M   'C 2/c'
_symmetry_Int_Tables_number      15
_space_group_name_Hall           '-C 2yn'
loop_
_symmetry_equiv_pos_site_id
_symmetry_equiv_pos_as_xyz
1 x,y,z
2 1/2+x,1/2+y,z
3 -x,y,1/2-z
4 1/2-x,1/2+y,1/2-z
5 -x,-y,-z
6 1/2-x,1/2-y,-z
7 x,-y,1/2+z
8 1/2+x,1/2-y,1/2+z
_cell_length_a                   28.4154(16)
_cell_length_b                   7.3477(4)
_cell_length_c                   17.0939(10)
_cell_angle_alpha                90
_cell_angle_beta                 108.4690(10)
_cell_angle_gamma                90
_cell_volume                     3385.18
loop_
_atom_site_label
_atom_site_type_symbol
_atom_site_fract_x
_atom_site_fract_y
_atom_site_fract_z
Zn1 Zn 0.0000 1.00513(3) 0.2500
Zn2 Zn 0.2500 -0.2500 0.5000
N1 N 0.21818(4) -0.15917(16) 0.37276(7)
C1 C 0.19058(5) -0.00813(18) 0.35517(8)
C2 C 0.16752(5) 0.05243(19) 0.27501(8)
C3 C 0.17400(5) -0.0456(2) 0.20969(8)
C4 C 0.20337(5) -0.2010(2) 0.22769(9)
C5 C 0.22439(5) -0.25372(18) 0.30934(9)
N2 N 0.13746(5) 0.21010(17) 0.26550(7)
C6 C 0.13705(5) 0.34898(19) 0.21351(8)
O1 O 0.16088(4) 0.35430(14) 0.16500(6)
C7 C 0.10522(5) 0.50657(18) 0.22230(8)
C8 C 0.11230(5) 0.58959(19) 0.29837(8)
C9 C 0.08342(5) 0.73926(19) 0.30238(9)
N3 N 0.04861(4) 0.80626(16) 0.23570(7)
C10 C 0.04189(5) 0.7252(2) 0.16232(9)
C11 C 0.06933(5) 0.5757(2) 0.15315(8)
O2 O 0.05377(4) 1.17485(15) 0.31772(6)
C12 C 0.03588(5) 1.21541(19) 0.37512(8)
O3 O -0.00226(4) 1.13928(16) 0.37951(7)
C13 C 0.05990(5) 1.36488(19) 0.43323(8)
C14 C 0.10550(5) 1.36126(19) 0.48633(9)
C15 C 0.13999(5) 1.2031(2) 0.49929(8)
O4 O 0.12219(4) 1.04507(14) 0.48590(6)
O5 O 0.18603(4) 1.23918(13) 0.52359(6)
O6 O 0.31954(4) -0.25818(14) 0.48183(7)
O7 O 0.23528(4) -0.51818(14) 0.45743(6)
H1 H 0.1868(7) 0.057(3) 0.3992(12)
H2 H 0.1595(7) -0.010(2) 0.1564(11)
H3 H 0.2077(7) -0.271(2) 0.1841(11)
H4 H 0.2450(7) -0.359(3) 0.3235(11)
H5 H 0.1170(8) 0.211(3) 0.2899(13)
H6 H 0.1362(7) 0.545(3) 0.3471(11)
H7 H 0.0867(7) 0.800(3) 0.3548(12)
H8 H 0.0167(7) 0.779(2) 0.1168(11)
H9 H 0.0625(7) 0.522(3) 0.1002(12)
H10 H 0.0406(7) 1.470(3) 0.4297(12)
H11 H 0.1170(7) 1.459(3) 0.5176(12)
H12 H 0.3231(8) -0.214(3) 0.4406(15)
H13 H 0.3355(8) -0.353(3) 0.4928(12)
H14 H 0.2164(8) -0.584(3) 0.4779(13)
H15 H 0.2592(8) -0.581(3) 0.4593(12)
Zn2G Zn -0.2500 -0.2500 0.0000
N1B N -0.21818(4) -0.15917(16) 0.12724(7)
N1E N 0.28182(4) -0.34083(16) 0.62724(7)
C1B C -0.19058(5) -0.00813(18) 0.14483(8)
C2B C -0.16752(5) 0.05243(19) 0.22499(8)
C3B C -0.17400(5) -0.0456(2) 0.29031(8)
C4B C -0.20337(5) -0.2010(2) 0.27231(9)
C5B C -0.22439(5) -0.25372(18) 0.19066(9)
N2B N -0.13746(5) 0.21010(17) 0.23450(7)
C6B C -0.13705(5) 0.34898(19) 0.28649(8)
O1B O -0.16088(4) 0.35430(14) 0.33500(6)
C7B C -0.10522(5) 0.50657(18) 0.27770(8)
C8B C -0.11230(5) 0.58959(19) 0.20163(8)
C9B C -0.08342(5) 0.73926(19) 0.19762(9)
N3B N -0.04861(4) 0.80626(16) 0.26430(7)
C10B C -0.04189(5) 0.7252(2) 0.33768(9)
C11B C -0.06933(5) 0.5757(2) 0.34685(8)
O2B O -0.05377(4) 1.17485(15) 0.18228(6)
C12B C -0.03588(5) 1.21541(19) 0.12488(8)
O3B O 0.00226(4) 1.13928(16) 0.12049(7)
C13B C -0.05990(5) 1.36488(19) 0.06677(8)
C14B C -0.10550(5) 1.36126(19) 0.01367(9)
C15B C -0.13999(5) 1.2031(2) 0.00071(8)
O4B O -0.12219(4) 1.04507(14) 0.01410(6)
O5B O -0.18603(4) 1.23918(13) -0.02359(6)
O6E O 0.18046(4) -0.24182(14) 0.51817(7)
O7E O 0.26472(4) 0.01818(14) 0.54257(6)
H1B H -0.1868(7) 0.057(3) 0.1008(12)
H2B H -0.1595(7) -0.010(2) 0.3436(11)
H3B H -0.2077(7) -0.271(2) 0.3159(11)
H4B H -0.2450(7) -0.359(3) 0.1765(11)
H5B H -0.1170(8) 0.211(3) 0.2101(13)
H6B H -0.1362(7) 0.545(3) 0.1529(11)
H7B H -0.0867(7) 0.800(3) 0.1452(12)
H8B H -0.0167(7) 0.779(2) 0.3832(11)
H9B H -0.0625(7) 0.522(3) 0.3998(12)
H10B H -0.0406(7) 1.470(3) 0.0703(12)
H11B H -0.1170(7) 1.459(3) -0.0176(12)
H12E H 0.1769(8) -0.286(3) 0.5594(15)
H13E H 0.1645(8) -0.147(3) 0.5072(12)
H14E H 0.2836(8) 0.084(3) 0.5221(13)
H15E H 0.2408(8) 0.081(3) 0.5407(12)
O8 O 0.05325(5) 0.22154(16) 0.00885(8)
H16 H 0.0379(10) 0.187(4) 0.0420(16)
H17 H 0.0677(8) 0.132(3) 0.0018(12)
loop_
_geom_bond_atom_site_label_1
_geom_bond_atom_site_label_2
_geom_bond_site_symmetry_1
_geom_bond_site_symmetry_2
Zn1 N3 1_555 1_555
Zn2 N1 1_555 1_555
N1 C1 1_555 1_555
C1 C2 1_555 1_555
C2 C3 1_555 1_555
C3 C4 1_555 1_555
C4 C5 1_555 1_555
C5 N1 1_555 1_555
N2 C2 1_555 1_555
C6 N2 1_555 1_555
O1 C6 1_555 1_555
C7 C6 1_555 1_555
C8 C7 1_555 1_555
C9 C8 1_555 1_555
N3 C9 1_555 1_555
C10 N3 1_555 1_555
C11 C7 1_555 1_555
O2 Zn1 1_555 1_555
C12 O2 1_555 1_555
O3 Zn1 1_555 1_555
C13 C12 1_555 1_555
C14 C13 1_555 1_555
C15 C14 1_555 1_555
O4 C15 1_555 1_555
O5 C15 1_555 1_555
O6 Zn2 1_555 1_555
O7 Zn2 1_555 1_555
O8 H16 1_555 1_555
H1 C1 1_555 1_555
H2 C3 1_555 1_555
H3 C4 1_555 1_555
H4 C5 1_555 1_555
H5 N2 1_555 1_555
H6 C8 1_555 1_555
H7 C9 1_555 1_555
H8 C10 1_555 1_555
H9 C11 1_555 1_555
H10 C13 1_555 1_555
H11 C14 1_555 1_555
H12 O6 1_555 1_555
H13 O6 1_555 1_555
H14 O7 1_555 1_555
H15 O7 1_555 1_555
H17 O8 1_555 1_555
Zn2G N1B 1_555 1_555
N1B C1B 1_555 1_555
N1E Zn2 1_555 1_555
C1B C2B 1_555 1_555
C2B C3B 1_555 1_555
C3B C4B 1_555 1_555
C4B C5B 1_555 1_555
C5B N1B 1_555 1_555
N2B C2B 1_555 1_555
C6B N2B 1_555 1_555
O1B C6B 1_555 1_555
C7B C6B 1_555 1_555
C8B C7B 1_555 1_555
C9B C8B 1_555 1_555
N3B Zn1 1_555 1_555
C10B N3B 1_555 1_555
C11B C7B 1_555 1_555
O2B Zn1 1_555 1_555
C12B O2B 1_555 1_555
O3B Zn1 1_555 1_555
C13B C12B 1_555 1_555
C14B C13B 1_555 1_555
C15B C14B 1_555 1_555
O4B C15B 1_555 1_555
O5B C15B 1_555 1_555
O6E Zn2 1_555 1_555
O7E Zn2 1_555 1_555
H1B C1B 1_555 1_555
H2B C3B 1_555 1_555
H3B C4B 1_555 1_555
H4B C5B 1_555 1_555
H5B N2B 1_555 1_555
H6B C8B 1_555 1_555
H7B C9B 1_555 1_555
H8B C10B 1_555 1_555
H9B C11B 1_555 1_555
H10B C13B 1_555 1_555
H11B C14B 1_555 1_555
H12E O6E 1_555 1_555
H13E O6E 1_555 1_555
H14E O7E 1_555 1_555
H15E O7E 1_555 1_555
C10 C11 1_555 1_555
C12 O3 1_555 1_555
C9B N3B 1_555 1_555
C10B C11B 1_555 1_555
C12B O3B 1_555 1_555

#END
