
#######################################################################
#
#                 Cambridge Crystallographic Data Centre
#                                CCDC 
#
#######################################################################
#
# If this CIF has been generated from an entry in the Cambridge 
# Structural Database, then it will include bibliographic, chemical, 
# crystal, experimental, refinement or atomic coordinate data resulting 
# from the CCDC's data processing and validation procedures.
#
#######################################################################

data_YEPDIH
_symmetry_cell_setting           monoclinic
_symmetry_space_group_name_H-M   'P 21/c'
_symmetry_Int_Tables_number      14
_space_group_name_Hall           '-P 2ybc'
loop_
_symmetry_equiv_pos_site_id
_symmetry_equiv_pos_as_xyz
1 x,y,z
2 -x,1/2+y,1/2-z
3 -x,-y,-z
4 x,1/2-y,1/2+z
_cell_length_a                   9.1935(9)
_cell_length_b                   8.8044(9)
_cell_length_c                   19.555(2)
_cell_angle_alpha                90
_cell_angle_beta                 91.111(2)
_cell_angle_gamma                90
_cell_volume                     1582.55
loop_
_atom_site_label
_atom_site_type_symbol
_atom_site_fract_x
_atom_site_fract_y
_atom_site_fract_z
Zn1 Zn 0.625665(19) 0.76980(2) 0.786077(9)
N1 N 0.44841(16) 0.73492(16) 0.85506(7)
C1 C 0.3125(2) 0.7833(2) 0.84238(9)
C2 C 0.2021(2) 0.7735(2) 0.88877(9)
C3 C 0.23019(19) 0.7062(2) 0.95205(8)
C4 C 0.3703(2) 0.6526(2) 0.96508(9)
C5 C 0.4744(2) 0.6708(2) 0.91584(9)
N2 N 0.11660(17) 0.70388(19) 0.99902(8)
C6 C 0.12307(19) 0.6313(2) 1.06008(9)
O1 O 0.22111(14) 0.54549(18) 1.07687(7)
C7 C 0.00079(18) 0.6606(2) 1.10879(8)
C8 C -0.0804(2) 0.7926(2) 1.11011(10)
C9 C -0.1820(2) 0.8099(2) 1.16119(10)
N3 N -0.20582(16) 0.70548(17) 1.20914(7)
C10 C -0.12677(19) 0.5784(2) 1.20683(9)
C11 C -0.0234(2) 0.5508(2) 1.15796(10)
O2 O 0.78235(13) 0.80836(16) 0.85944(6)
C12 C 0.78915(17) 0.89146(19) 0.91164(8)
O3 O 0.89378(15) 0.89490(19) 0.95260(7)
C13 C 0.6682(2) 0.9975(2) 0.93072(8)
C14 C 0.5804(2) 1.0865(2) 0.89384(8)
C15 C 0.56169(16) 1.10615(18) 0.81812(8)
O4 O 0.51315(14) 1.23444(13) 0.80003(6)
O5 O 0.58592(13) 0.99989(13) 0.77710(6)
O6 O 0.67730(15) 0.53315(14) 0.79455(6)
H1 H 0.295(2) 0.829(3) 0.7993(11)
H2 H 0.110(3) 0.810(3) 0.8783(12)
H3 H 0.399(3) 0.609(3) 1.0033(12)
H4 H 0.568(2) 0.642(2) 0.9256(11)
H5 H 0.036(3) 0.753(3) 0.9894(13)
H6 H -0.074(3) 0.875(3) 1.0810(13)
H7 H -0.237(3) 0.894(3) 1.1633(12)
H8 H 0.033(2) 0.456(3) 1.1599(11)
H9 H -0.148(2) 0.499(3) 1.2408(11)
H10 H 0.662(2) 1.006(3) 0.9778(12)
H11 H 0.523(2) 1.150(3) 0.9168(12)
H12 H 0.606(3) 0.480(3) 0.7900(13)
H13 H 0.712(3) 0.510(3) 0.8320(14)
Zn1C Zn -0.374335(19) 0.73020(2) 1.286077(9)
Zn1A Zn 0.374335(19) 1.26980(2) 0.713923(9)
N3C N 0.79418(16) 0.79452(17) 0.70914(7)
O4A O 0.48685(14) 0.73444(13) 0.69997(6)
loop_
_geom_bond_atom_site_label_1
_geom_bond_atom_site_label_2
_geom_bond_site_symmetry_1
_geom_bond_site_symmetry_2
Zn1 N1 1_555 1_555
N1 C1 1_555 1_555
C1 C2 1_555 1_555
C2 C3 1_555 1_555
C3 C4 1_555 1_555
C4 C5 1_555 1_555
C5 N1 1_555 1_555
N2 C3 1_555 1_555
C6 N2 1_555 1_555
O1 C6 1_555 1_555
C7 C6 1_555 1_555
C8 C7 1_555 1_555
C9 C8 1_555 1_555
N3 C9 1_555 1_555
C10 N3 1_555 1_555
C11 C7 1_555 1_555
O2 Zn1 1_555 1_555
C12 O2 1_555 1_555
O3 C12 1_555 1_555
C13 C12 1_555 1_555
C14 C13 1_555 1_555
C15 C14 1_555 1_555
O4 C15 1_555 1_555
O5 Zn1 1_555 1_555
O6 Zn1 1_555 1_555
H1 C1 1_555 1_555
H2 C2 1_555 1_555
H3 C4 1_555 1_555
H4 C5 1_555 1_555
H5 N2 1_555 1_555
H6 C8 1_555 1_555
H7 C9 1_555 1_555
H8 C11 1_555 1_555
H9 C10 1_555 1_555
H10 C13 1_555 1_555
H11 C14 1_555 1_555
H12 O6 1_555 1_555
H13 O6 1_555 1_555
Zn1C N3 1_555 1_555
Zn1A O4 1_555 1_555
N3C Zn1 1_555 1_555
O4A Zn1 1_555 1_555
C10 C11 1_555 1_555
C15 O5 1_555 1_555

#END
