
#######################################################################
#
#                 Cambridge Crystallographic Data Centre
#                                CCDC 
#
#######################################################################
#
# If this CIF has been generated from an entry in the Cambridge 
# Structural Database, then it will include bibliographic, chemical, 
# crystal, experimental, refinement or atomic coordinate data resulting 
# from the CCDC's data processing and validation procedures.
#
#######################################################################

data_YEPDAZ
_symmetry_cell_setting           cubic
_symmetry_space_group_name_H-M   'P 41 3 2'
_symmetry_Int_Tables_number      213
_space_group_name_Hall           'P 4bd 2ab 3'
loop_
_symmetry_equiv_pos_site_id
_symmetry_equiv_pos_as_xyz
1 x,y,z
2 1/2-x,-y,1/2+z
3 -x,1/2+y,1/2-z
4 1/2+x,1/2-y,-z
5 z,x,y
6 1/2+z,1/2-x,-y
7 1/2-z,-x,1/2+y
8 -z,1/2+x,1/2-y
9 y,z,x
10 -y,1/2+z,1/2-x
11 1/2+y,1/2-z,-x
12 1/2-y,-z,1/2+x
13 3/4+y,1/4+x,1/4-z
14 3/4-y,3/4-x,3/4-z
15 1/4+y,1/4-x,3/4+z
16 1/4-y,3/4+x,1/4+z
17 3/4+x,1/4+z,1/4-y
18 1/4-x,3/4+z,1/4+y
19 3/4-x,3/4-z,3/4-y
20 1/4+x,1/4-z,3/4+y
21 3/4+z,1/4+y,1/4-x
22 1/4+z,1/4-y,3/4+x
23 1/4-z,3/4+y,1/4+x
24 3/4-z,3/4-y,3/4-x
_cell_length_a                   15.1880(5)
_cell_length_b                   15.1880(5)
_cell_length_c                   15.1880(5)
_cell_angle_alpha                90
_cell_angle_beta                 90
_cell_angle_gamma                90
_cell_volume                     3503.5
loop_
_atom_site_label
_atom_site_type_symbol
_atom_site_fract_x
_atom_site_fract_y
_atom_site_fract_z
Ag1 Ag 0.87058(2) 0.87942(2) 0.3750
O1 O 1.0268(3) 0.8624(4) 0.4271(5)
N1 N 0.8759(2) 0.9532(2) 0.2488(2)
N2 N 0.83304(18) 0.9255(2) 0.17620(18)
N3 N 1.0817(3) 0.9183(3) 0.4183(3)
C1 C 0.9338(3) 1.0104(3) 0.2184(3)
H1 H 0.9734 1.0410 0.2537
C2 C 0.9290(3) 1.0195(3) 0.1288(3)
H2 H 0.9630 1.0560 0.0933
C3 C 0.8643(3) 0.9643(3) 0.1032(2)
H3 H 0.8450 0.9548 0.0459
C4 C 0.7612(2) 0.8650(2) 0.1842(2)
C5 C 0.7531(2) 0.7974(2) 0.1243(3)
H4 H 0.784(3) 0.794(3) 0.0740(19)
Ag1I Ag 1.12058(2) 0.8750 0.62942(2)
Ag1F Ag 1.1250 1.12942(2) 0.37942(2)
Ag1E Ag 0.8750 0.62942(2) 0.12058(2)
Ag1K Ag 0.62058(2) 0.6250 0.37058(2)
O1I O 1.1376(4) 0.9271(5) 0.4732(3)
O1F O 1.0729(5) 0.9732(3) 0.3624(4)
O1M O 0.8876(4) 0.7232(3) 0.3229(5)
O1V O 0.8229(5) 0.6124(4) 0.2768(3)
O1P O 0.7768(3) 0.6771(5) 0.3876(4)
O1S O 1.2768(3) 0.8229(5) 0.6124(4)
O1T O 1.1771(5) 1.1124(4) 0.2232(3)
N1E N 0.7488(2) 0.6241(2) 0.0468(2)
N1K N 0.5468(2) 0.7512(2) 0.3759(2)
N1M N 0.7968(2) 0.8741(2) 0.5012(2)
N1S N 1.1259(2) 1.0012(2) 0.7032(2)
N1T N 0.9988(2) 1.2032(2) 0.3741(2)
N1I N 1.0468(2) 0.7488(2) 0.6241(2)
N1F N 1.2512(2) 1.1241(2) 0.4532(2)
N2E N 0.67620(18) 0.66696(18) 0.0745(2)
N2K N 0.5745(2) 0.82380(18) 0.33304(18)
N2M N 0.8245(2) 0.91696(18) 0.57380(18)
N2S N 1.08304(18) 1.07380(18) 0.6755(2)
N2T N 0.92620(18) 1.1755(2) 0.41696(18)
N3M N 0.8317(3) 0.6683(3) 0.3317(3)
C1E C 0.7184(3) 0.5662(3) -0.0104(3)
C1K C 0.4896(3) 0.7816(3) 0.4338(3)
C1M C 0.7396(3) 0.8162(3) 0.5316(3)
C1S C 1.1838(3) 1.0316(3) 0.7604(3)
C1T C 0.9684(3) 1.2604(3) 0.3162(3)
H1E H 0.7537 0.5266 -0.0410
H1K H 0.4590 0.7463 0.4734
H1M H 0.7090 0.7766 0.4963
H1S H 1.2234 0.9963 0.7910
H1T H 1.0037 1.2910 0.2766
C2E C 0.6288(3) 0.5710(3) -0.0195(3)
C2K C 0.4805(3) 0.8712(3) 0.4290(3)
C2M C 0.7305(3) 0.8210(3) 0.6212(3)
C2S C 1.1790(3) 1.1212(3) 0.7695(3)
C2T C 0.8788(3) 1.2695(3) 0.3210(3)
H2E H 0.5933 0.5370 -0.0560
H2K H 0.4440 0.9067 0.4630
H2M H 0.6940 0.7870 0.6567
H2S H 1.2130 1.1567 0.8060
H2T H 0.8433 1.3060 0.2870
C3E C 0.6032(2) 0.6357(3) 0.0357(3)
C3K C 0.5357(3) 0.8968(2) 0.3643(3)
C3M C 0.7857(3) 0.8857(3) 0.6468(2)
C3S C 1.1143(3) 1.1468(2) 0.7143(3)
C3T C 0.8532(2) 1.2143(3) 0.3857(3)
H3E H 0.5459 0.6550 0.0452
H3K H 0.5452 0.9541 0.3450
H3M H 0.7952 0.9050 0.7041
H3S H 1.0950 1.2041 0.7048
H3T H 0.7959 1.2048 0.4050
C4E C 0.6842(2) 0.7388(2) 0.1350(2)
C4K C 0.6350(2) 0.8158(2) 0.2612(2)
C4M C 0.8850(2) 0.9888(2) 0.5658(2)
C4S C 1.0112(2) 1.0658(2) 0.6150(2)
C4T C 0.9342(2) 1.1150(2) 0.4888(2)
C5E C 0.6243(3) 0.7469(2) 0.2026(2)
C5K C 0.7026(2) 0.8757(3) 0.2531(2)
C5M C 0.9526(2) 0.9969(2) 0.6257(3)
C5S C 1.0031(2) 1.1257(3) 0.5474(2)
C5T C 0.8743(3) 1.0474(2) 0.4969(2)
H4K H 0.706(3) 0.9260(19) 0.284(3)
H4E H 0.5740(19) 0.716(3) 0.206(3)
H4M H 0.956(3) 0.966(3) 0.6760(19)
H4T H 0.8240(19) 1.044(3) 0.466(3)
H4S H 1.034(3) 1.1760(19) 0.544(3)
O2 O 0.8750 0.81774(19) 0.93226(19)
N4 N 0.8750 0.8750 0.8750
O2H O 0.81774(19) 0.93226(19) 0.8750
O2D O 0.93226(19) 0.8750 0.81774(19)
loop_
_geom_bond_atom_site_label_1
_geom_bond_atom_site_label_2
_geom_bond_site_symmetry_1
_geom_bond_site_symmetry_2
Ag1 O1 1_555 1_555
O1 N3 1_555 1_555
O2 N4 1_555 1_555
N1 Ag1 1_555 1_555
N2 N1 1_555 1_555
N3 O1I 1_555 1_555
N4 O2H 1_555 1_555
C1 N1 1_555 1_555
H1 C1 1_555 1_555
C2 C1 1_555 1_555
H2 C2 1_555 1_555
C3 N2 1_555 1_555
H3 C3 1_555 1_555
C4 N2 1_555 1_555
C5 C4 1_555 1_555
H4 C5 1_555 1_555
Ag1I O1I 1_555 1_555
Ag1F O1F 1_555 1_555
Ag1E O1V 1_555 1_555
Ag1K O1P 1_555 1_555
O1F N3 1_555 1_555
O1M Ag1 1_555 1_555
O1V N3M 1_555 1_555
O1P N3M 1_555 1_555
O1S Ag1I 1_555 1_555
O1T Ag1F 1_555 1_555
O2D N4 1_555 1_555
N1E Ag1E 1_555 1_555
N1K Ag1K 1_555 1_555
N1M Ag1 1_555 1_555
N1S Ag1I 1_555 1_555
N1T Ag1F 1_555 1_555
N1I Ag1I 1_555 1_555
N1F Ag1F 1_555 1_555
N2E N1E 1_555 1_555
N2K N1K 1_555 1_555
N2M N1M 1_555 1_555
N2S N1S 1_555 1_555
N2T N1T 1_555 1_555
N3M O1M 1_555 1_555
C1E N1E 1_555 1_555
C1K N1K 1_555 1_555
C1M N1M 1_555 1_555
C1S N1S 1_555 1_555
C1T N1T 1_555 1_555
H1E C1E 1_555 1_555
H1K C1K 1_555 1_555
H1M C1M 1_555 1_555
H1S C1S 1_555 1_555
H1T C1T 1_555 1_555
C2E C1E 1_555 1_555
C2K C1K 1_555 1_555
C2M C1M 1_555 1_555
C2S C1S 1_555 1_555
C2T C1T 1_555 1_555
H2E C2E 1_555 1_555
H2K C2K 1_555 1_555
H2M C2M 1_555 1_555
H2S C2S 1_555 1_555
H2T C2T 1_555 1_555
C3E N2E 1_555 1_555
C3K N2K 1_555 1_555
C3M N2M 1_555 1_555
C3S N2S 1_555 1_555
C3T N2T 1_555 1_555
H3E C3E 1_555 1_555
H3K C3K 1_555 1_555
H3M C3M 1_555 1_555
H3S C3S 1_555 1_555
H3T C3T 1_555 1_555
C4E C5 1_555 1_555
C4K N2K 1_555 1_555
C4M N2M 1_555 1_555
C4S N2S 1_555 1_555
C4T N2T 1_555 1_555
C5E C4E 1_555 1_555
C5K C4 1_555 1_555
C5M C4M 1_555 1_555
C5S C4S 1_555 1_555
C5T C4M 1_555 1_555
H4K C5K 1_555 1_555
H4E C5E 1_555 1_555
H4M C5M 1_555 1_555
H4T C5T 1_555 1_555
H4S C5S 1_555 1_555
C2 C3 1_555 1_555
N2E C4E 1_555 1_555
C2E C3E 1_555 1_555
C2K C3K 1_555 1_555
C2M C3M 1_555 1_555
C2S C3S 1_555 1_555
C2T C3T 1_555 1_555
C4K C5E 1_555 1_555
C4K C5K 1_555 1_555
C4S C5M 1_555 1_555
C4T C5S 1_555 1_555
C4T C5T 1_555 1_555

#END
