
#######################################################################
#
#                 Cambridge Crystallographic Data Centre
#                                CCDC 
#
#######################################################################
#
# If this CIF has been generated from an entry in the Cambridge 
# Structural Database, then it will include bibliographic, chemical, 
# crystal, experimental, refinement or atomic coordinate data resulting 
# from the CCDC's data processing and validation procedures.
#
#######################################################################

data_YEPDUT
_symmetry_cell_setting           triclinic
_symmetry_space_group_name_H-M   'P -1'
_symmetry_Int_Tables_number      2
_space_group_name_Hall           '-P 1'
loop_
_symmetry_equiv_pos_site_id
_symmetry_equiv_pos_as_xyz
1 x,y,z
2 -x,-y,-z
_cell_length_a                   7.8921(11)
_cell_length_b                   10.2130(14)
_cell_length_c                   11.6733(15)
_cell_angle_alpha                104.831(2)
_cell_angle_beta                 95.276(3)
_cell_angle_gamma                90.161(3)
_cell_volume                     905.353
loop_
_atom_site_label
_atom_site_type_symbol
_atom_site_fract_x
_atom_site_fract_y
_atom_site_fract_z
Co1 Co 0.0000 1.5000 0.5000
Co2 Co 0.5000 0.5000 0.0000
C1 C 0.1291(9) 1.1117(7) 0.1646(6)
N1 N 0.0264(8) 1.3260(6) 0.3464(5)
C2 C 0.0411(10) 1.3369(7) 0.2354(7)
H1 H 0.0138 1.4194 0.2193
C3 C 0.0926(10) 1.2372(7) 0.1445(7)
H2 H 0.1031 1.2529 0.0704
C4 C 0.1115(11) 1.0969(7) 0.2775(7)
H3 H 0.1349 1.0146 0.2950
C5 C 0.0599(12) 1.2030(8) 0.3630(7)
H4 H 0.0471 1.1892 0.4375
N2 N 0.1907(7) 1.0021(5) 0.0811(5)
H5 H 0.1893 0.9250 0.0980
C6 C 0.2527(8) 1.0042(7) -0.0242(6)
O1 O 0.2421(7) 1.1008(5) -0.0664(5)
C7 C 0.3380(9) 0.8782(6) -0.0842(6)
C8 C 0.3776(10) 0.8640(7) -0.2001(7)
H6 H 0.3514 0.9316 -0.2386
C9 C 0.4562(10) 0.7488(7) -0.2576(7)
H7 H 0.4875 0.7390 -0.3341
C10 C 0.4883(9) 0.6467(7) -0.1988(6)
H8 H 0.5365 0.5672 -0.2391
N3 N 0.4520(8) 0.6594(5) -0.0865(5)
C11 C 0.3827(8) 0.7736(6) -0.0314(6)
H9 H 0.3626 0.7848 0.0477
O2 O 0.2438(6) 0.5021(5) 0.0385(5)
H10 H 0.2164 0.5805 0.0657
O3 O 0.4518(6) 0.3503(5) -0.1619(4)
C12 C 0.3105(9) 0.3064(6) -0.2143(6)
O4 O 0.1695(6) 0.3592(5) -0.1896(4)
C13 C 0.3022(9) 0.1836(7) -0.3166(6)
H11 H 0.2132 0.1214 -0.3232
C14 C 0.5598(8) 0.2421(7) -0.4052(6)
C15 C 0.4104(9) 0.1558(7) -0.3983(7)
H12 H 0.3919 0.0750 -0.4572
O5 O 0.7047(6) 0.1966(5) -0.3904(5)
O6 O 0.5304(7) 0.3521(5) -0.4311(5)
O8 O 0.2620(6) 1.5049(5) 0.5320(6)
H13 H 0.2925 1.4365 0.5518
O9 O 0.0318(6) 1.6363(5) 0.3932(4)
H14 H 0.1211 1.6802 0.4165
H15 H -0.027(10) 1.650(8) 0.320(8)
H16 H 0.326(17) 1.563(13) 0.502(12)
H17 H 0.214(8) 0.480(6) -0.028(6)
Co2_2 Co -0.5000 2.5000 1.0000
C1A C -0.1291(9) 1.8883(7) 0.8354(6)
N1A N -0.0264(8) 1.6740(6) 0.6536(5)
C2A C -0.0411(10) 1.6631(7) 0.7646(7)
H1A H -0.0138 1.5806 0.7807
C3A C -0.0926(10) 1.7628(7) 0.8555(7)
H2A H -0.1031 1.7471 0.9296
C4A C -0.1115(11) 1.9031(7) 0.7225(7)
H3A H -0.1349 1.9854 0.7050
C5A C -0.0599(12) 1.7970(8) 0.6370(7)
H4A H -0.0471 1.8108 0.5625
N2A N -0.1907(7) 1.9979(5) 0.9189(5)
H5A H -0.1893 2.0750 0.9020
C6A C -0.2527(8) 1.9958(7) 1.0242(6)
O1A O -0.2421(7) 1.8992(5) 1.0664(5)
C7A C -0.3380(9) 2.1218(6) 1.0842(6)
C8A C -0.3776(10) 2.1360(7) 1.2001(7)
H6A H -0.3514 2.0684 1.2386
C9A C -0.4562(10) 2.2512(7) 1.2576(7)
H7A H -0.4875 2.2610 1.3341
C10A C -0.4883(9) 2.3533(7) 1.1988(6)
H8A H -0.5365 2.4328 1.2391
N3A N -0.4520(8) 2.3406(5) 1.0865(5)
N3A_2 N 0.5480(8) 0.3406(5) 0.0865(5)
C11A C -0.3827(8) 2.2264(6) 1.0314(6)
H9A H -0.3626 2.2152 0.9523
O2A O 0.7562(6) 0.4979(5) -0.0385(5)
H10A H 0.7836 0.4195 -0.0657
O3A O 0.5482(6) 0.6497(5) 0.1619(4)
C12A C 0.6895(9) 0.6936(6) 0.2143(6)
O4A O 0.8305(6) 0.6408(5) 0.1896(4)
C13A C 0.6978(9) 0.8164(7) 0.3166(6)
H11A H 0.7868 0.8786 0.3232
C14A C 0.4402(8) 0.7579(7) 0.4052(6)
C15A C 0.5896(9) 0.8442(7) 0.3983(7)
H12A H 0.6081 0.9250 0.4572
O5A O 0.2953(6) 0.8034(5) 0.3904(5)
O6A O 0.4696(7) 0.6479(5) 0.4311(5)
O8A O -0.2620(6) 1.4951(5) 0.4680(6)
H13A H -0.2925 1.5635 0.4482
O9A O -0.0318(6) 1.3637(5) 0.6068(4)
H14A H -0.1211 1.3198 0.5835
H15A H 0.027(10) 1.350(8) 0.680(8)
H16A H -0.326(17) 1.437(13) 0.498(12)
H17A H 0.786(8) 0.520(6) 0.028(6)
O7 O 0.8650(8) 0.2440(6) 0.8397(6)
H18 H 0.802(11) 0.241(8) 0.783(8)
H19 H 0.958(13) 0.259(10) 0.840(9)
loop_
_geom_bond_atom_site_label_1
_geom_bond_atom_site_label_2
_geom_bond_site_symmetry_1
_geom_bond_site_symmetry_2
Co1 N1 1_555 1_555
Co2 N3 1_555 1_555
C1 C3 1_555 1_555
N1 C2 1_555 1_555
C2 H1 1_555 1_555
C3 C2 1_555 1_555
H2 C3 1_555 1_555
C4 C1 1_555 1_555
H3 C4 1_555 1_555
C5 N1 1_555 1_555
H4 C5 1_555 1_555
N2 C1 1_555 1_555
H5 N2 1_555 1_555
C6 N2 1_555 1_555
O1 C6 1_555 1_555
C7 C6 1_555 1_555
C8 C7 1_555 1_555
H6 C8 1_555 1_555
C9 C8 1_555 1_555
H7 C9 1_555 1_555
C10 C9 1_555 1_555
H8 C10 1_555 1_555
N3 C10 1_555 1_555
C11 C7 1_555 1_555
H9 C11 1_555 1_555
O2 Co2 1_555 1_555
H10 O2 1_555 1_555
O3 Co2 1_555 1_555
C12 O3 1_555 1_555
O4 C12 1_555 1_555
C13 C12 1_555 1_555
H11 C13 1_555 1_555
C14 C15 1_555 1_555
C15 C13 1_555 1_555
H12 C15 1_555 1_555
O5 C14 1_555 1_555
O6 C14 1_555 1_555
O7 H18 1_555 1_555
O8 Co1 1_555 1_555
H13 O8 1_555 1_555
O9 Co1 1_555 1_555
H14 O9 1_555 1_555
H15 O9 1_555 1_555
H16 O8 1_555 1_555
H17 O2 1_555 1_555
H19 O7 1_555 1_555
Co2_2 N3A 1_555 1_555
C1A C3A 1_555 1_555
N1A Co1 1_555 1_555
C2A N1A 1_555 1_555
H1A C2A 1_555 1_555
C3A C2A 1_555 1_555
H2A C3A 1_555 1_555
C4A C1A 1_555 1_555
H3A C4A 1_555 1_555
C5A N1A 1_555 1_555
H4A C5A 1_555 1_555
N2A C1A 1_555 1_555
H5A N2A 1_555 1_555
C6A N2A 1_555 1_555
O1A C6A 1_555 1_555
C7A C6A 1_555 1_555
C8A C7A 1_555 1_555
H6A C8A 1_555 1_555
C9A C8A 1_555 1_555
H7A C9A 1_555 1_555
C10A C9A 1_555 1_555
H8A C10A 1_555 1_555
N3A C10A 1_555 1_555
N3A_2 Co2 1_555 1_555
C11A C7A 1_555 1_555
H9A C11A 1_555 1_555
O2A Co2 1_555 1_555
H10A O2A 1_555 1_555
O3A Co2 1_555 1_555
C12A O3A 1_555 1_555
O4A C12A 1_555 1_555
C13A C12A 1_555 1_555
H11A C13A 1_555 1_555
C14A C15A 1_555 1_555
C15A C13A 1_555 1_555
H12A C15A 1_555 1_555
O5A C14A 1_555 1_555
O6A C14A 1_555 1_555
O8A Co1 1_555 1_555
H13A O8A 1_555 1_555
O9A Co1 1_555 1_555
H14A O9A 1_555 1_555
H15A O9A 1_555 1_555
H16A O8A 1_555 1_555
H17A O2A 1_555 1_555
C4 C5 1_555 1_555
N3 C11 1_555 1_555
C4A C5A 1_555 1_555
N3A C11A 1_555 1_555

#END
