
#######################################################################
#
#                 Cambridge Crystallographic Data Centre
#                                CCDC 
#
#######################################################################
#
# If this CIF has been generated from an entry in the Cambridge 
# Structural Database, then it will include bibliographic, chemical, 
# crystal, experimental, refinement or atomic coordinate data resulting 
# from the CCDC's data processing and validation procedures.
#
#######################################################################

data_YEPFOP
_symmetry_cell_setting           monoclinic
_symmetry_space_group_name_H-M   'P 21/c'
_symmetry_Int_Tables_number      14
_space_group_name_Hall           '-P 2ybc'
loop_
_symmetry_equiv_pos_site_id
_symmetry_equiv_pos_as_xyz
1 x,y,z
2 -x,1/2+y,1/2-z
3 -x,-y,-z
4 x,1/2-y,1/2+z
_cell_length_a                   9.1790(7)
_cell_length_b                   8.7296(7)
_cell_length_c                   19.4811(15)
_cell_angle_alpha                90
_cell_angle_beta                 91.3150(10)
_cell_angle_gamma                90
_cell_volume                     1560.59
loop_
_atom_site_label
_atom_site_type_symbol
_atom_site_fract_x
_atom_site_fract_y
_atom_site_fract_z
Co1 Co 0.12763(4) 0.22945(4) 0.785957(17)
N1 N -0.0487(2) 0.2621(3) 0.85513(11)
C1 C -0.1863(3) 0.2161(3) 0.84199(14)
C2 C -0.2969(3) 0.2272(3) 0.88829(15)
C3 C -0.2682(3) 0.2932(3) 0.95206(14)
C4 C -0.1266(3) 0.3457(3) 0.96581(14)
C5 C -0.0217(3) 0.3258(3) 0.91680(14)
N2 N -0.3823(3) 0.2956(3) 0.99915(12)
H1 H -0.4613 0.2473 0.9884
C6 C -0.3752(3) 0.3692(3) 1.06017(14)
O1 O -0.2769(2) 0.4570(2) 1.07687(10)
C7 C -0.4980(3) 0.3396(3) 1.10919(14)
C8 C -0.5789(3) 0.2058(4) 1.11111(15)
C9 C -0.6802(3) 0.1887(3) 1.16249(15)
N3 N -0.7035(2) 0.2953(3) 1.21056(11)
C10 C -0.6239(3) 0.4238(3) 1.20781(15)
C11 C -0.5204(3) 0.4506(4) 1.15865(15)
O2 O 0.08877(19) -0.0012(2) 0.77689(9)
C12 C 0.0613(3) -0.1080(3) 0.81803(13)
O3 O 0.0101(2) -0.2362(2) 0.79960(10)
C13 C 0.0794(3) -0.0883(3) 0.89432(13)
C14 C 0.1677(3) 0.0009(3) 0.93146(14)
C15 C 0.2904(3) 0.1065(3) 0.91232(13)
O4 O 0.3956(2) 0.1021(2) 0.95382(10)
O5 O 0.2833(2) 0.1915(2) 0.85991(10)
O6 O 0.1757(2) 0.4671(2) 0.79451(10)
H2 H -0.644(4) 0.502(4) 1.2438(17)
H3 H -0.466(4) 0.544(4) 1.1586(17)
H4 H -0.734(3) 0.105(3) 1.1636(15)
H5 H -0.211(3) 0.173(4) 0.7983(17)
H6 H 0.075(4) 0.350(4) 0.9251(16)
H7 H -0.099(4) 0.393(4) 1.0045(18)
H8 H 0.164(3) -0.010(4) 0.9752(18)
H9 H 0.017(4) -0.155(4) 0.9160(18)
H10 H 0.209(4) 0.491(4) 0.830(2)
H11 H 0.101(4) 0.513(5) 0.7906(19)
H12 H -0.574(4) 0.127(4) 1.0821(19)
H13 H -0.389(4) 0.195(4) 0.8786(17)
Co1C Co -0.87237(4) 0.27055(4) 1.285957(17)
Co1A Co -0.12763(4) -0.27055(4) 0.714043(17)
N3C N 0.2965(2) 0.2047(3) 0.71056(11)
O3A O -0.0101(2) 0.2638(2) 0.70040(10)
loop_
_geom_bond_atom_site_label_1
_geom_bond_atom_site_label_2
_geom_bond_site_symmetry_1
_geom_bond_site_symmetry_2
Co1 N1 1_555 1_555
N1 C1 1_555 1_555
C1 C2 1_555 1_555
C2 C3 1_555 1_555
C3 C4 1_555 1_555
C4 C5 1_555 1_555
C5 N1 1_555 1_555
N2 C3 1_555 1_555
H1 N2 1_555 1_555
C6 N2 1_555 1_555
O1 C6 1_555 1_555
C7 C6 1_555 1_555
C8 C7 1_555 1_555
C9 C8 1_555 1_555
N3 C9 1_555 1_555
C10 N3 1_555 1_555
C11 C7 1_555 1_555
O2 Co1 1_555 1_555
C12 O2 1_555 1_555
O3 C12 1_555 1_555
C13 C12 1_555 1_555
C14 C13 1_555 1_555
C15 C14 1_555 1_555
O4 C15 1_555 1_555
O5 Co1 1_555 1_555
O6 Co1 1_555 1_555
H2 C10 1_555 1_555
H3 C11 1_555 1_555
H4 C9 1_555 1_555
H5 C1 1_555 1_555
H6 C5 1_555 1_555
H7 C4 1_555 1_555
H8 C14 1_555 1_555
H9 C13 1_555 1_555
H10 O6 1_555 1_555
H11 O6 1_555 1_555
H12 C8 1_555 1_555
H13 C2 1_555 1_555
Co1C N3 1_555 1_555
Co1A O3 1_555 1_555
N3C Co1 1_555 1_555
O3A Co1 1_555 1_555
C10 C11 1_555 1_555
C15 O5 1_555 1_555

#END
