
#######################################################################
#
#                 Cambridge Crystallographic Data Centre
#                                CCDC 
#
#######################################################################
#
# If this CIF has been generated from an entry in the Cambridge 
# Structural Database, then it will include bibliographic, chemical, 
# crystal, experimental, refinement or atomic coordinate data resulting 
# from the CCDC's data processing and validation procedures.
#
#######################################################################

data_YEPFIJ
_symmetry_cell_setting           triclinic
_symmetry_space_group_name_H-M   'P -1'
_symmetry_Int_Tables_number      2
_space_group_name_Hall           '-P 1'
loop_
_symmetry_equiv_pos_site_id
_symmetry_equiv_pos_as_xyz
1 x,y,z
2 -x,-y,-z
_cell_length_a                   8.0039(5)
_cell_length_b                   10.7289(7)
_cell_length_c                   11.3359(8)
_cell_angle_alpha                78.3630(10)
_cell_angle_beta                 87.1160(10)
_cell_angle_gamma                79.8900(10)
_cell_volume                     938.523
loop_
_atom_site_label
_atom_site_type_symbol
_atom_site_fract_x
_atom_site_fract_y
_atom_site_fract_z
Co1 Co 0.0000 1.0000 -0.5000
Co2 Co 0.5000 0.0000 0.0000
N1 N 0.04477(18) 0.83698(14) -0.34620(13)
C1 C 0.0289(3) 0.71602(18) -0.35349(17)
C2 C 0.0736(3) 0.61041(18) -0.26300(17)
C3 C 0.1389(2) 0.62623(16) -0.15594(15)
C4 C 0.1530(2) 0.75059(17) -0.14550(16)
C5 C 0.1060(2) 0.85038(17) -0.24217(16)
N2 N 0.19167(18) 0.51458(14) -0.06884(13)
C6 C 0.2678(2) 0.50857(16) 0.03797(14)
O1 O 0.27921(18) 0.60252(12) 0.08060(11)
C7 C 0.3404(2) 0.37516(15) 0.10263(14)
C8 C 0.3826(2) 0.27149(15) 0.04431(14)
N3 N 0.44800(17) 0.15150(13) 0.10123(12)
C9 C 0.4757(2) 0.13268(16) 0.21952(15)
C10 C 0.4426(3) 0.23213(17) 0.28388(16)
C11 C 0.3741(2) 0.35454(17) 0.22506(15)
O2 O 0.47312(15) -0.14159(11) 0.15171(10)
C12 C 0.3411(2) -0.17044(15) 0.20773(14)
O3 O 0.19193(16) -0.11237(13) 0.18176(11)
C13 C 0.3603(2) -0.28403(16) 0.31429(15)
C14 C 0.5427(2) -0.34525(16) 0.34218(15)
C15 C 0.6486(2) -0.25433(16) 0.37809(14)
O4 O 0.80790(15) -0.28342(12) 0.36565(11)
O5 O 0.57533(15) -0.15989(11) 0.42164(10)
O6 O 0.23738(15) 0.02497(12) -0.03839(11)
O7 O 0.26707(17) 0.99859(13) -0.51852(13)
O8 O -0.00848(16) 1.12337(12) -0.38530(11)
H1 H -0.018(3) 0.703(2) -0.424(2)
H2 H 0.064(3) 0.525(2) -0.274(2)
H3 H 0.191(3) 0.773(2) -0.085(2)
H4 H 0.121(3) 0.935(2) -0.2355(19)
H5 H 0.174(3) 0.443(2) -0.085(2)
H6 H 0.373(2) 0.2771(17) -0.0389(17)
H7 H 0.520(2) 0.048(2) 0.2574(18)
H8 H 0.350(3) 0.419(2) 0.2656(19)
H9 H 0.464(3) 0.222(2) 0.365(2)
H10 H 0.295(3) -0.338(2) 0.2906(18)
H11 H 0.307(3) -0.256(2) 0.385(2)
H12 H 0.600(3) -0.3857(19) 0.2729(19)
H13 H 0.548(2) -0.4170(17) 0.4111(17)
H14 H 0.200(3) -0.004(2) 0.029(2)
H15 H 0.188(3) 0.097(3) -0.060(2)
H16 H 0.337(4) 0.956(3) -0.541(3)
H17 H 0.312(3) 1.055(3) -0.491(2)
H18 H -0.062(3) 1.123(2) -0.323(3)
H19 H 0.065(3) 1.174(2) -0.383(2)
Co2_2 Co -0.5000 2.0000 -1.0000
N1A N -0.04477(18) 1.16302(14) -0.65380(13)
C1A C -0.0289(3) 1.28398(18) -0.64651(17)
C2A C -0.0736(3) 1.38959(18) -0.73700(17)
C3A C -0.1389(2) 1.37377(16) -0.84406(15)
C4A C -0.1530(2) 1.24941(17) -0.85450(16)
C5A C -0.1060(2) 1.14962(17) -0.75783(16)
N2A N -0.19167(18) 1.48542(14) -0.93116(13)
C6A C -0.2678(2) 1.49143(16) -1.03797(14)
O1A O -0.27921(18) 1.39748(12) -1.08060(11)
C7A C -0.3404(2) 1.62484(15) -1.10263(14)
C8A C -0.3826(2) 1.72851(15) -1.04431(14)
N3A N -0.44800(17) 1.84850(13) -1.10123(12)
N3A_2 N 0.55200(17) -0.15150(13) -0.10123(12)
C9A C -0.4757(2) 1.86732(16) -1.21952(15)
C10A C -0.4426(3) 1.76787(17) -1.28388(16)
C11A C -0.3741(2) 1.64546(17) -1.22506(15)
O2A O 0.52688(15) 0.14159(11) -0.15171(10)
C12A C 0.6589(2) 0.17044(15) -0.20773(14)
O3A O 0.80807(16) 0.11237(13) -0.18176(11)
C13A C 0.6397(2) 0.28403(16) -0.31429(15)
C14A C 0.4573(2) 0.34525(16) -0.34218(15)
C15A C 0.3514(2) 0.25433(16) -0.37809(14)
O4A O 0.19210(15) 0.28342(12) -0.36565(11)
O5A O 0.42467(15) 0.15989(11) -0.42164(10)
O6A O 0.76262(15) -0.02497(12) 0.03839(11)
O7A O -0.26707(17) 1.00141(13) -0.48148(13)
O8A O 0.00848(16) 0.87663(12) -0.61470(11)
H1A H 0.018(3) 1.297(2) -0.576(2)
H2A H -0.064(3) 1.475(2) -0.726(2)
H3A H -0.191(3) 1.227(2) -0.915(2)
H4A H -0.121(3) 1.065(2) -0.7645(19)
H5A H -0.174(3) 1.557(2) -0.915(2)
H6A H -0.373(2) 1.7229(17) -0.9611(17)
H7A H -0.520(2) 1.952(2) -1.2574(18)
H8A H -0.350(3) 1.581(2) -1.2656(19)
H9A H -0.464(3) 1.778(2) -1.365(2)
H10A H 0.705(3) 0.338(2) -0.2906(18)
H11A H 0.693(3) 0.256(2) -0.385(2)
H12A H 0.400(3) 0.3857(19) -0.2729(19)
H13A H 0.452(2) 0.4170(17) -0.4111(17)
H14A H 0.800(3) 0.004(2) -0.029(2)
H15A H 0.812(3) -0.097(3) 0.060(2)
H16A H -0.337(4) 1.044(3) -0.459(3)
H17A H -0.312(3) 0.945(3) -0.509(2)
H18A H 0.062(3) 0.877(2) -0.677(3)
H19A H -0.065(3) 0.826(2) -0.617(2)
O9 O 0.08131(17) 0.28597(12) 0.86672(12)
H20 H 0.110(4) 0.282(3) 0.798(3)
H21 H -0.022(4) 0.297(3) 0.867(3)
O10 O 0.8885(8) 0.4870(6) 0.5552(5)
loop_
_geom_bond_atom_site_label_1
_geom_bond_atom_site_label_2
_geom_bond_site_symmetry_1
_geom_bond_site_symmetry_2
Co1 N1 1_555 1_555
Co2 N3 1_555 1_555
N1 C1 1_555 1_555
C1 C2 1_555 1_555
C2 C3 1_555 1_555
C3 C4 1_555 1_555
C4 C5 1_555 1_555
C5 N1 1_555 1_555
N2 C3 1_555 1_555
C6 N2 1_555 1_555
O1 C6 1_555 1_555
C7 C6 1_555 1_555
C8 C7 1_555 1_555
N3 C8 1_555 1_555
C9 N3 1_555 1_555
C10 C9 1_555 1_555
C11 C7 1_555 1_555
O2 Co2 1_555 1_555
C12 O2 1_555 1_555
O3 C12 1_555 1_555
C13 C12 1_555 1_555
C14 C13 1_555 1_555
C15 C14 1_555 1_555
O4 C15 1_555 1_555
O5 C15 1_555 1_555
O6 Co2 1_555 1_555
O7 Co1 1_555 1_555
O8 Co1 1_555 1_555
O9 H20 1_555 1_555
H1 C1 1_555 1_555
H2 C2 1_555 1_555
H3 C4 1_555 1_555
H4 C5 1_555 1_555
H5 N2 1_555 1_555
H6 C8 1_555 1_555
H7 C9 1_555 1_555
H8 C11 1_555 1_555
H9 C10 1_555 1_555
H10 C13 1_555 1_555
H11 C13 1_555 1_555
H12 C14 1_555 1_555
H13 C14 1_555 1_555
H14 O6 1_555 1_555
H15 O6 1_555 1_555
H16 O7 1_555 1_555
H17 O7 1_555 1_555
H18 O8 1_555 1_555
H19 O8 1_555 1_555
H21 O9 1_555 1_555
Co2_2 N3A 1_555 1_555
N1A Co1 1_555 1_555
C1A N1A 1_555 1_555
C2A C1A 1_555 1_555
C3A C2A 1_555 1_555
C4A C3A 1_555 1_555
C5A N1A 1_555 1_555
N2A C3A 1_555 1_555
C6A N2A 1_555 1_555
O1A C6A 1_555 1_555
C7A C6A 1_555 1_555
C8A C7A 1_555 1_555
N3A C8A 1_555 1_555
N3A_2 Co2 1_555 1_555
C9A N3A 1_555 1_555
C10A C9A 1_555 1_555
C11A C7A 1_555 1_555
O2A Co2 1_555 1_555
C12A O2A 1_555 1_555
O3A C12A 1_555 1_555
C13A C12A 1_555 1_555
C14A C13A 1_555 1_555
C15A C14A 1_555 1_555
O4A C15A 1_555 1_555
O5A C15A 1_555 1_555
O6A Co2 1_555 1_555
O7A Co1 1_555 1_555
O8A Co1 1_555 1_555
H1A C1A 1_555 1_555
H2A C2A 1_555 1_555
H3A C4A 1_555 1_555
H4A C5A 1_555 1_555
H5A N2A 1_555 1_555
H6A C8A 1_555 1_555
H7A C9A 1_555 1_555
H8A C11A 1_555 1_555
H9A C10A 1_555 1_555
H10A C13A 1_555 1_555
H11A C13A 1_555 1_555
H12A C14A 1_555 1_555
H13A C14A 1_555 1_555
H14A O6A 1_555 1_555
H15A O6A 1_555 1_555
H16A O7A 1_555 1_555
H17A O7A 1_555 1_555
H18A O8A 1_555 1_555
H19A O8A 1_555 1_555
C10 C11 1_555 1_555
C4A C5A 1_555 1_555
C10A C11A 1_555 1_555

#END
