
#######################################################################
#
#                 Cambridge Crystallographic Data Centre
#                                CCDC 
#
#######################################################################
#
# If this CIF has been generated from an entry in the Cambridge 
# Structural Database, then it will include bibliographic, chemical, 
# crystal, experimental, refinement or atomic coordinate data resulting 
# from the CCDC's data processing and validation procedures.
#
#######################################################################

data_YEPFAB
_symmetry_cell_setting           monoclinic
_symmetry_space_group_name_H-M   'P 21/n'
_symmetry_Int_Tables_number      14
_space_group_name_Hall           '-P 2yn'
loop_
_symmetry_equiv_pos_site_id
_symmetry_equiv_pos_as_xyz
1 x,y,z
2 1/2-x,1/2+y,1/2-z
3 -x,-y,-z
4 1/2+x,1/2-y,1/2+z
_cell_length_a                   7.2357(4)
_cell_length_b                   19.1593(11)
_cell_length_c                   10.7206(7)
_cell_angle_alpha                90
_cell_angle_beta                 104.7290(10)
_cell_angle_gamma                90
_cell_volume                     1437.37
loop_
_atom_site_label
_atom_site_type_symbol
_atom_site_fract_x
_atom_site_fract_y
_atom_site_fract_z
Zn1 Zn 0.68411(3) 0.779566(10) 0.914611(18)
N1 N 0.5135(2) 0.85756(7) 0.82300(14)
C1 C 0.4500(3) 0.91026(9) 0.88398(17)
C2 C 0.3569(2) 0.96763(9) 0.82098(17)
C3 C 0.3274(2) 0.97295(9) 0.68631(17)
C4 C 0.3911(2) 0.91809(9) 0.62295(17)
C5 C 0.4804(2) 0.86218(9) 0.69364(17)
N2 N 0.2371(2) 1.03276(8) 0.62624(14)
C6 C 0.1976(2) 1.04633(9) 0.49596(17)
O1 O 0.2359(2) 1.00604(7) 0.41890(12)
C7 C 0.0989(2) 1.11373(9) 0.44833(17)
C8 C 0.0358(2) 1.16236(9) 0.52366(17)
N3 N -0.0593(2) 1.22037(7) 0.47324(15)
C9 C -0.0915(3) 1.23211(9) 0.34565(17)
C10 C -0.0326(2) 1.18647(9) 0.26424(17)
C11 C 0.0624(2) 1.12640(9) 0.31582(17)
O2 O 0.91764(18) 0.82789(7) 0.99820(12)
C12 C 0.9380(2) 0.86830(9) 1.09523(16)
O3 O 0.81665(18) 0.87898(6) 1.15640(12)
C13 C 1.1211(3) 0.90902(9) 1.12565(17)
C14 C 1.2822(3) 0.89278(9) 1.21076(18)
C15 C 1.3090(2) 0.83100(9) 1.29820(17)
O4 O 1.45234(19) 0.82711(7) 1.38906(13)
O5 O 1.17287(18) 0.78536(6) 1.27340(12)
H1 H 0.475(3) 0.9052(11) 0.975(2)
H2 H 0.313(3) 1.0029(12) 0.866(2)
H3 H 0.377(3) 0.9185(11) 0.536(2)
H4 H 0.524(3) 0.8265(11) 0.653(2)
H5 H 0.203(3) 1.0621(12) 0.672(2)
H6 H 0.053(3) 1.1562(11) 0.612(2)
H7 H -0.156(3) 1.2736(10) 0.314(2)
H8 H -0.058(3) 1.1958(11) 0.175(2)
H9 H 0.104(3) 1.0946(11) 0.264(2)
H10 H 1.115(3) 0.9490(11) 1.076(2)
H11 H 1.390(3) 0.9229(12) 1.224(2)
Zn1A Zn -0.18411(3) 1.279566(10) 0.585389(18)
Zn1C Zn 1.18411(3) 0.720434(10) 1.414611(18)
N3A N 0.5593(2) 0.72037(7) 1.02676(15)
O5C O 0.67287(18) 0.71464(6) 0.77340(12)
loop_
_geom_bond_atom_site_label_1
_geom_bond_atom_site_label_2
_geom_bond_site_symmetry_1
_geom_bond_site_symmetry_2
Zn1 N1 1_555 1_555
N1 C1 1_555 1_555
C1 C2 1_555 1_555
C2 C3 1_555 1_555
C3 C4 1_555 1_555
C4 C5 1_555 1_555
C5 N1 1_555 1_555
N2 C3 1_555 1_555
C6 N2 1_555 1_555
O1 C6 1_555 1_555
C7 C6 1_555 1_555
C8 C7 1_555 1_555
N3 C8 1_555 1_555
C9 N3 1_555 1_555
C10 C9 1_555 1_555
C11 C7 1_555 1_555
O2 Zn1 1_555 1_555
C12 O2 1_555 1_555
O3 C12 1_555 1_555
C13 C12 1_555 1_555
C14 C13 1_555 1_555
C15 C14 1_555 1_555
O4 C15 1_555 1_555
O5 C15 1_555 1_555
H1 C1 1_555 1_555
H2 C2 1_555 1_555
H3 C4 1_555 1_555
H4 C5 1_555 1_555
H5 N2 1_555 1_555
H6 C8 1_555 1_555
H7 C9 1_555 1_555
H8 C10 1_555 1_555
H9 C11 1_555 1_555
H10 C13 1_555 1_555
H11 C14 1_555 1_555
Zn1A N3 1_555 1_555
Zn1C O5 1_555 1_555
N3A Zn1 1_555 1_555
O5C Zn1 1_555 1_555
C10 C11 1_555 1_555

#END
