
#######################################################################
#
#                 Cambridge Crystallographic Data Centre
#                                CCDC 
#
#######################################################################
#
# If this CIF has been generated from an entry in the Cambridge 
# Structural Database, then it will include bibliographic, chemical, 
# crystal, experimental, refinement or atomic coordinate data resulting 
# from the CCDC's data processing and validation procedures.
#
#######################################################################

data_YEPFUV
_symmetry_cell_setting           monoclinic
_symmetry_space_group_name_H-M   'C c'
_symmetry_Int_Tables_number      9
_space_group_name_Hall           'C -2yc'
loop_
_symmetry_equiv_pos_site_id
_symmetry_equiv_pos_as_xyz
1 x,y,z
2 x,-y,1/2+z
3 1/2+x,1/2+y,z
4 1/2+x,1/2-y,1/2+z
_cell_length_a                   17.418(5)
_cell_length_b                   10.740(3)
_cell_length_c                   16.615(5)
_cell_angle_alpha                90
_cell_angle_beta                 111.952(5)
_cell_angle_gamma                90
_cell_volume                     2882.81
loop_
_atom_site_label
_atom_site_type_symbol
_atom_site_fract_x
_atom_site_fract_y
_atom_site_fract_z
Sb1 Sb 0.84391(4) 0.13353(5) 0.84238(5)
F1 F 0.8142(5) 0.0833(8) 0.7276(5)
F2 F 0.8726(7) 0.1861(10) 0.9559(6)
F3 F 0.8788(6) -0.0255(7) 0.8809(6)
F4 F 0.8065(7) 0.2902(6) 0.8048(8)
F5 F 0.9501(5) 0.1706(11) 0.8504(7)
F6 F 0.7409(5) 0.0851(8) 0.8373(6)
Ag1 Ag 0.38982(4) 1.00078(8) 0.50654(5)
O1 O 0.7240(4) 0.4245(6) 0.3657(4)
O2 O 0.5695(4) 0.5788(5) 0.5131(4)
O3 O 0.7194(5) -0.0829(6) 0.5193(5)
O4 O 0.5545(4) 0.0698(6) 0.6546(4)
N1 N 0.4511(5) 0.9386(7) 0.4248(5)
N2 N 0.4968(5) 0.8185(7) 0.3471(5)
N3 N 0.6438(4) 0.5310(6) 0.4280(4)
N4 N 0.6367(4) -0.0363(6) 0.5957(4)
N5 N 0.8306(5) -0.4439(8) 0.5911(4)
N6 N 0.7900(4) -0.3238(6) 0.6755(4)
C1 C 0.4627(5) 0.8222(9) 0.4069(6)
H1 H 0.4491 0.7527 0.4322
C2 C 0.4801(7) 1.0103(9) 0.3758(6)
H2 H 0.4809 1.0969 0.3759
C3 C 0.5074(6) 0.9382(9) 0.3274(7)
H3 H 0.5296 0.9648 0.2874
C4 C 0.5094(6) 0.7057(9) 0.3025(6)
H4 H 0.4747 0.7107 0.2414
H5 H 0.4924 0.6332 0.3264
C5 C 0.5991(6) 0.6902(9) 0.3120(6)
H6 H 0.6019 0.6257 0.2723
H7 H 0.6177 0.7672 0.2948
C6 C 0.6576(6) 0.6570(7) 0.4020(6)
H8 H 0.7140 0.6633 0.4045
H9 H 0.6510 0.7165 0.4428
C7 C 0.6062(6) 0.5039(7) 0.4851(6)
C8 C 0.6188(5) 0.3695(7) 0.5058(5)
C9 C 0.5924(5) 0.2968(7) 0.5589(5)
H10 H 0.5606 0.3283 0.5885
C10 C 0.6167(5) 0.1742(7) 0.5645(5)
C11 C 0.5974(5) 0.0683(7) 0.6129(5)
C12 C 0.6787(6) -0.0074(7) 0.5416(6)
C13 C 0.6649(5) 0.1267(7) 0.5202(5)
C14 C 0.6909(5) 0.1980(7) 0.4672(5)
H11 H 0.7231 0.1670 0.4378
C15 C 0.6647(5) 0.3220(7) 0.4611(5)
C16 C 0.6826(5) 0.4276(7) 0.4109(5)
C17 C 0.6262(6) -0.1611(6) 0.6242(6)
H12 H 0.6299 -0.2206 0.5819
H13 H 0.5711 -0.1678 0.6255
C18 C 0.6885(6) -0.1962(8) 0.7122(5)
H14 H 0.6881 -0.1322 0.7532
H15 H 0.6705 -0.2731 0.7302
C19 C 0.7754(6) -0.2131(8) 0.7183(6)
H16 H 0.7912 -0.1406 0.6932
H17 H 0.8113 -0.2164 0.7791
C20 C 0.8184(6) -0.3296(8) 0.6112(6)
H18 H 0.8284 -0.2598 0.5835
C21 C 0.7852(6) -0.4427(9) 0.6989(6)
H19 H 0.7680 -0.4694 0.7427
C22 C 0.8096(6) -0.5152(8) 0.6476(7)
H20 H 0.8119 -0.6016 0.6501
Ag1B Ag 0.88982(4) -0.49922(8) 0.50654(5)
N5B N 0.3306(5) 1.0561(8) 0.5911(4)
Cl1 Cl 0.4006(4) 0.2710(5) 0.0782(5)
Cl2 Cl 0.5114(7) 0.4426(9) 0.1853(6)
C23 C 0.4240(14) 0.422(2) 0.1011(16)
H21 H 0.4284 0.4618 0.0507
H22 H 0.3792 0.4613 0.1128
loop_
_geom_bond_atom_site_label_1
_geom_bond_atom_site_label_2
_geom_bond_site_symmetry_1
_geom_bond_site_symmetry_2
Sb1 F1 1_555 1_555
Ag1 N1 1_555 1_555
O1 C16 1_555 1_555
O2 C7 1_555 1_555
O3 C12 1_555 1_555
O4 C11 1_555 1_555
N1 C1 1_555 1_555
N2 C1 1_555 1_555
N3 C6 1_555 1_555
N4 C11 1_555 1_555
N5 C20 1_555 1_555
N6 C19 1_555 1_555
C1 H1 1_555 1_555
C2 N1 1_555 1_555
H2 C2 1_555 1_555
C3 N2 1_555 1_555
H3 C3 1_555 1_555
C4 N2 1_555 1_555
H4 C4 1_555 1_555
H5 C4 1_555 1_555
C5 C4 1_555 1_555
H6 C5 1_555 1_555
H7 C5 1_555 1_555
C6 C5 1_555 1_555
H8 C6 1_555 1_555
H9 C6 1_555 1_555
C7 N3 1_555 1_555
C8 C7 1_555 1_555
C9 C8 1_555 1_555
H10 C9 1_555 1_555
C10 C9 1_555 1_555
C11 C10 1_555 1_555
C12 N4 1_555 1_555
C13 C10 1_555 1_555
C14 C13 1_555 1_555
H11 C14 1_555 1_555
C15 C8 1_555 1_555
C16 N3 1_555 1_555
C17 N4 1_555 1_555
H12 C17 1_555 1_555
H13 C17 1_555 1_555
C18 C17 1_555 1_555
H14 C18 1_555 1_555
H15 C18 1_555 1_555
C19 C18 1_555 1_555
H16 C19 1_555 1_555
H17 C19 1_555 1_555
C20 N6 1_555 1_555
H18 C20 1_555 1_555
C21 N6 1_555 1_555
H19 C21 1_555 1_555
C22 N5 1_555 1_555
H20 C22 1_555 1_555
F2 Sb1 1_555 1_555
F3 Sb1 1_555 1_555
F4 Sb1 1_555 1_555
F5 Sb1 1_555 1_555
F6 Sb1 1_555 1_555
Cl1 C23 1_555 1_555
Cl2 C23 1_555 1_555
C23 H21 1_555 1_555
H22 C23 1_555 1_555
Ag1B N5 1_555 1_555
N5B Ag1 1_555 1_555
C2 C3 1_555 1_555
C12 C13 1_555 1_555
C14 C15 1_555 1_555
C15 C16 1_555 1_555
C21 C22 1_555 1_555

#END
