
#######################################################################
#
#                 Cambridge Crystallographic Data Centre
#                                CCDC 
#
#######################################################################
#
# If this CIF has been generated from an entry in the Cambridge 
# Structural Database, then it will include bibliographic, chemical, 
# crystal, experimental, refinement or atomic coordinate data resulting 
# from the CCDC's data processing and validation procedures.
#
#######################################################################

data_YEPLAG02
_symmetry_cell_setting           monoclinic
_symmetry_space_group_name_H-M   'P 21'
_symmetry_Int_Tables_number      4
_space_group_name_Hall           'P 2yb'
loop_
_symmetry_equiv_pos_site_id
_symmetry_equiv_pos_as_xyz
1 x,y,z
2 -x,1/2+y,-z
_cell_length_a                   5.029(1)
_cell_length_b                   5.228(1)
_cell_length_c                   6.437(1)
_cell_angle_alpha                90
_cell_angle_beta                 108.82
_cell_angle_gamma                90
_cell_volume                     160.191
loop_
_atom_site_label
_atom_site_type_symbol
_atom_site_fract_x
_atom_site_fract_y
_atom_site_fract_z
Hg1 Hg -0.506(3) -0.250 -0.247(2)
C1 C 0.068(4) -0.120(4) 0.229(3)
C2 C -0.038(4) -0.393(4) 0.304(3)
O1 O -0.126(4) 0.042(4) 0.111(3)
O2 O 0.298(4) -0.063(4) 0.331(3)
O3 O -0.321(4) -0.406(4) 0.139(3)
O4 O 0.104(4) -0.509(4) 0.422(3)
O3A O -0.679(4) 0.094(4) -0.139(3)
Hg1A Hg -0.494(3) 0.250 0.247(2)
O1A O -0.874(4) -0.458(4) -0.111(3)
O2_2 O -0.702(4) -0.063(4) -0.669(3)
O2A O -0.298(4) -0.563(4) -0.331(3)
O4_2 O -0.896(4) -0.509(4) -0.578(3)
O4A O -0.104(4) -0.009(4) -0.422(3)
Hg1A_2 Hg 0.506(3) 0.250 0.247(2)
Hg1_2 Hg 0.494(3) -0.250 0.753(2)
Hg1A_3 Hg -0.494(3) -0.750 0.247(2)
Hg1A_4 Hg 0.506(3) -0.750 0.247(2)
loop_
_geom_bond_atom_site_label_1
_geom_bond_atom_site_label_2
_geom_bond_site_symmetry_1
_geom_bond_site_symmetry_2
Hg1 O1 1_555 1_555
C1 C2 1_555 1_555
C2 O3 1_555 1_555
O1 C1 1_555 1_555
O2 C1 1_555 1_555
O3 Hg1 1_555 1_555
O4 C2 1_555 1_555
O3A Hg1 1_555 1_555
Hg1A O1 1_555 1_555
O1A Hg1 1_555 1_555
O2_2 Hg1 1_555 1_555
O2A Hg1 1_555 1_555
O4_2 Hg1 1_555 1_555
O4A Hg1 1_555 1_555
Hg1A_2 O2 1_555 1_555
Hg1_2 O2 1_555 1_555
Hg1A_3 O3 1_555 1_555
Hg1A_4 O4 1_555 1_555
O4 Hg1_2 1_555 1_555
O3A Hg1A 1_555 1_555
O1A Hg1A_3 1_555 1_555

#END
