
#######################################################################
#
#                 Cambridge Crystallographic Data Centre
#                                CCDC 
#
#######################################################################
#
# If this CIF has been generated from an entry in the Cambridge 
# Structural Database, then it will include bibliographic, chemical, 
# crystal, experimental, refinement or atomic coordinate data resulting 
# from the CCDC's data processing and validation procedures.
#
#######################################################################

data_YEPLAG01
_symmetry_cell_setting           monoclinic
_symmetry_space_group_name_H-M   'P 21'
_symmetry_Int_Tables_number      4
_space_group_name_Hall           'P 2yb'
loop_
_symmetry_equiv_pos_site_id
_symmetry_equiv_pos_as_xyz
1 x,y,z
2 -x,1/2+y,-z
_cell_length_a                   5.023(1)
_cell_length_b                   5.224(1)
_cell_length_c                   6.430(1)
_cell_angle_alpha                90
_cell_angle_beta                 108.66(1)
_cell_angle_gamma                90
_cell_volume                     159.855
loop_
_atom_site_label
_atom_site_type_symbol
_atom_site_fract_x
_atom_site_fract_y
_atom_site_fract_z
Hg1 Hg -0.493(3) -0.250 -0.246(1)
C1 C 0.052(3) -0.120(3) 0.219(2)
C2 C -0.061(3) -0.384(4) 0.280(3)
O1 O -0.122(2) 0.025(3) 0.099(2)
O2 O 0.305(3) -0.082(3) 0.313(2)
O3 O -0.314(4) -0.425(4) 0.162(2)
O4 O 0.095(2) -0.510(3) 0.426(2)
O3A O -0.686(4) 0.075(4) -0.162(2)
Hg1A Hg -0.507(3) 0.250 0.246(1)
O1A O -0.878(2) -0.475(3) -0.099(2)
O2_2 O -0.695(3) -0.082(3) -0.687(2)
O2A O -0.305(3) -0.582(3) -0.313(2)
O4_2 O -0.905(2) -0.510(3) -0.574(2)
O4A O -0.095(2) -0.010(3) -0.426(2)
Hg1A_2 Hg 0.493(3) 0.250 0.246(1)
Hg1_2 Hg 0.507(3) -0.250 0.754(1)
Hg1A_3 Hg -0.507(3) -0.750 0.246(1)
Hg1A_4 Hg 0.493(3) -0.750 0.246(1)
loop_
_geom_bond_atom_site_label_1
_geom_bond_atom_site_label_2
_geom_bond_site_symmetry_1
_geom_bond_site_symmetry_2
Hg1 O1 1_555 1_555
C1 C2 1_555 1_555
C2 O3 1_555 1_555
O1 C1 1_555 1_555
O2 C1 1_555 1_555
O3 Hg1 1_555 1_555
O4 C2 1_555 1_555
O3A Hg1 1_555 1_555
Hg1A O1 1_555 1_555
O1A Hg1 1_555 1_555
O2_2 Hg1 1_555 1_555
O2A Hg1 1_555 1_555
O4_2 Hg1 1_555 1_555
O4A Hg1 1_555 1_555
Hg1A_2 O2 1_555 1_555
Hg1_2 O2 1_555 1_555
Hg1A_3 O3 1_555 1_555
Hg1A_4 O4 1_555 1_555
O4 Hg1_2 1_555 1_555
O3A Hg1A 1_555 1_555
O1A Hg1A_3 1_555 1_555

#END
