
#######################################################################
#
#                 Cambridge Crystallographic Data Centre
#                                CCDC 
#
#######################################################################
#
# If this CIF has been generated from an entry in the Cambridge 
# Structural Database, then it will include bibliographic, chemical, 
# crystal, experimental, refinement or atomic coordinate data resulting 
# from the CCDC's data processing and validation procedures.
#
#######################################################################

data_YEPLAG
_symmetry_cell_setting           monoclinic
_symmetry_space_group_name_H-M   'P 21'
_symmetry_Int_Tables_number      4
_space_group_name_Hall           'P 2yb'
loop_
_symmetry_equiv_pos_site_id
_symmetry_equiv_pos_as_xyz
1 x,y,z
2 -x,1/2+y,-z
_cell_length_a                   5.013(1)
_cell_length_b                   5.224(1)
_cell_length_c                   6.359(1)
_cell_angle_alpha                90
_cell_angle_beta                 108.39(1)
_cell_angle_gamma                90
_cell_volume                     158.024
loop_
_atom_site_label
_atom_site_type_symbol
_atom_site_fract_x
_atom_site_fract_y
_atom_site_fract_z
Hg1 Hg -0.494(2) -0.250 -0.253(1)
C1 C 0.042(1) -0.126(2) 0.217(1)
C2 C -0.098(3) -0.389(4) 0.267(3)
O1 O -0.107(3) -0.010(2) 0.094(2)
O2 O 0.323(2) -0.106(2) 0.332(2)
O3 O -0.320(4) -0.455(3) 0.160(3)
O4 O 0.113(3) -0.552(3) 0.423(2)
O3A O -0.680(4) 0.045(3) -0.160(3)
Hg1A Hg -0.506(2) 0.250 0.253(1)
Hg1A_2 Hg 0.494(2) 0.250 0.253(1)
Hg1_2 Hg 0.506(2) -0.250 0.747(1)
Hg1A_3 Hg 0.494(2) -0.750 0.253(1)
Hg1A_4 Hg -0.506(2) -0.750 0.253(1)
O1A O -0.893(3) -0.510(2) -0.094(2)
O2_2 O -0.677(2) -0.106(2) -0.668(2)
O2A O -0.323(2) -0.606(2) -0.332(2)
O4_2 O -0.887(3) -0.552(3) -0.577(2)
O4A O -0.113(3) -0.052(3) -0.423(2)
loop_
_geom_bond_atom_site_label_1
_geom_bond_atom_site_label_2
_geom_bond_site_symmetry_1
_geom_bond_site_symmetry_2
Hg1 O1 1_555 1_555
C1 C2 1_555 1_555
C2 O3 1_555 1_555
O1 C1 1_555 1_555
O2 C1 1_555 1_555
O3 Hg1 1_555 1_555
O4 C2 1_555 1_555
O3A Hg1 1_555 1_555
Hg1A O1 1_555 1_555
Hg1A_2 O2 1_555 1_555
Hg1_2 O2 1_555 1_555
Hg1A_3 O4 1_555 1_555
Hg1A_4 O3 1_555 1_555
O1A Hg1 1_555 1_555
O2_2 Hg1 1_555 1_555
O2A Hg1 1_555 1_555
O4_2 Hg1 1_555 1_555
O4A Hg1 1_555 1_555
O4 Hg1_2 1_555 1_555
O3A Hg1A 1_555 1_555
Hg1A_4 O1A 1_555 1_555

#END
