
#######################################################################
#
#                 Cambridge Crystallographic Data Centre
#                                CCDC 
#
#######################################################################
#
# If this CIF has been generated from an entry in the Cambridge 
# Structural Database, then it will include bibliographic, chemical, 
# crystal, experimental, refinement or atomic coordinate data resulting 
# from the CCDC's data processing and validation procedures.
#
#######################################################################

data_YEPQIT
_symmetry_cell_setting           triclinic
_symmetry_space_group_name_H-M   'P -1'
_symmetry_Int_Tables_number      2
_space_group_name_Hall           '-P 1'
loop_
_symmetry_equiv_pos_site_id
_symmetry_equiv_pos_as_xyz
1 x,y,z
2 -x,-y,-z
_cell_length_a                   9.6798(5)
_cell_length_b                   11.0018(5)
_cell_length_c                   12.7679(2)
_cell_angle_alpha                103.087(3)
_cell_angle_beta                 102.613(3)
_cell_angle_gamma                97.914(3)
_cell_volume                     1267.15
loop_
_atom_site_label
_atom_site_type_symbol
_atom_site_fract_x
_atom_site_fract_y
_atom_site_fract_z
Ni1 Ni 0.5000 0.5000 0.5000
Ni2 Ni 0.0000 0.5000 0.0000
O1 O 0.35053(16) 0.56077(14) 0.38363(12)
O2 O 0.39261(17) 0.51175(16) 0.21371(13)
O3 O 0.22101(19) 0.73867(15) 0.25931(14)
O4 O 0.08689(16) 0.54284(15) 0.17718(12)
N1 N 0.35735(19) 0.32946(17) 0.46995(15)
H1 H 0.3971 0.2858 0.5198
N2 N 0.42756(19) 0.59850(17) 0.62999(14)
H2 H 0.4764 0.5748 0.6911
N3 N 0.20446(19) 0.49362(17) -0.02101(15)
H3 H 0.2693 0.5155 0.0489
N4 N 0.01997(19) 0.69843(17) 0.02488(15)
H4 H 0.0706 0.7311 0.0993
C1 C 0.2755(3) 0.1155(2) 0.32845(19)
H5 H 0.3216 0.0756 0.3856
H6 H 0.1734 0.1123 0.3303
C2 C 0.3526(2) 0.2549(2) 0.35619(18)
H7 H 0.2992 0.2956 0.3016
C3 C 0.2141(2) 0.3467(2) 0.48701(19)
H8 H 0.1519 0.2622 0.4726
H9 H 0.1679 0.3904 0.4331
C4 C 0.2257(2) 0.4247(2) 0.60556(19)
H10 H 0.1299 0.4072 0.6208
H11 H 0.2939 0.3929 0.6578
C5 C 0.2743(2) 0.5690(2) 0.63272(19)
H12 H 0.2713 0.6044 0.7114
C6 C 0.5076(2) 0.2644(2) 0.34537(19)
H13 H 0.5628 0.2284 0.4029
C7 C 0.5125(3) 0.1880(2) 0.23068(19)
H14 H 0.6144 0.1910 0.2282
H15 H 0.4658 0.2273 0.1733
C8 C 0.4364(3) 0.0499(2) 0.2042(2)
H16 H 0.4896 0.0078 0.2565
H17 H 0.4368 0.0049 0.1278
C9 C 0.2818(3) 0.0402(2) 0.21330(19)
H18 H 0.2257 0.0735 0.1553
H19 H 0.2373 -0.0503 0.2002
C10 C 0.1757(3) 0.6326(2) 0.5610(2)
H20 H 0.2007 0.7251 0.5928
H21 H 0.0750 0.6017 0.5591
H22 H 0.1880 0.6118 0.4852
C11 C 0.3551(2) 0.3340(2) -0.0765(2)
H23 H 0.4128 0.3509 0.0014
H24 H 0.4038 0.3919 -0.1123
C12 C 0.2040(2) 0.3597(2) -0.07749(18)
H25 H 0.1480 0.3418 -0.1569
C13 C 0.2475(2) 0.5840(2) -0.08290(19)
H26 H 0.1782 0.5624 -0.1571
H27 H 0.3440 0.5755 -0.0943
C14 C 0.2524(2) 0.7216(2) -0.02193(19)
H28 H 0.3177 0.7779 -0.0486
H29 H 0.2960 0.7335 0.0583
C15 C 0.1078(2) 0.7660(2) -0.03437(18)
H30 H 0.1288 0.8588 0.0047
C16 C 0.1255(2) 0.2707(2) -0.02297(18)
H31 H 0.1812 0.2878 0.0564
C17 C 0.1192(3) 0.1313(2) -0.0823(2)
H32 H 0.0557 0.1109 -0.1587
H33 H 0.0762 0.0754 -0.0422
C18 C 0.2682(3) 0.1036(2) -0.0887(2)
H34 H 0.2571 0.0156 -0.1346
H35 H 0.3267 0.1099 -0.0130
C19 C 0.3469(3) 0.1956(2) -0.1386(2)
H36 H 0.4458 0.1797 -0.1351
H37 H 0.2958 0.1808 -0.2179
C20 C 0.0294(3) 0.7507(2) -0.15524(19)
H38 H -0.0139 0.6608 -0.1911
H39 H 0.0983 0.7803 -0.1945
H40 H -0.0466 0.8012 -0.1579
C21 C 0.3264(2) 0.5590(2) 0.28242(19)
C22 C 0.2012(3) 0.6201(2) 0.23754(18)
N2A N 0.57244(19) 0.40150(17) 0.37001(14)
H2A H 0.5236 0.4252 0.3089
C5A C 0.7257(2) 0.4310(2) 0.36728(19)
C4A C 0.7743(2) 0.5753(2) 0.39444(19)
C3A C 0.7859(2) 0.6533(2) 0.51299(19)
N1A N 0.64265(19) 0.67054(17) 0.53005(15)
H1A H 0.6029 0.7142 0.4802
C2A C 0.6474(2) 0.7451(2) 0.64381(18)
C1A C 0.7245(3) 0.8845(2) 0.67155(19)
H5A H 0.6784 0.9244 0.6144
H6A H 0.8266 0.8877 0.6697
C9A C 0.7182(3) 0.9598(2) 0.78670(19)
C8A C 0.5636(3) 0.9501(2) 0.7958(2)
C7A C 0.4875(3) 0.8120(2) 0.76932(19)
C6A C 0.4924(2) 0.7356(2) 0.65463(19)
H7A H 0.7008 0.7044 0.6984
H13A H 0.4372 0.7716 0.5971
H14A H 0.3856 0.8090 0.7718
H15A H 0.5342 0.7727 0.8267
H16A H 0.5104 0.9922 0.7435
H17A H 0.5632 0.9951 0.8722
H18A H 0.7743 0.9265 0.8447
H19A H 0.7627 1.0503 0.7998
H8A H 0.8481 0.7378 0.5274
H9A H 0.8321 0.6096 0.5669
H10A H 0.8701 0.5928 0.3792
H11A H 0.7061 0.6071 0.3422
H12A H 0.7287 0.3956 0.2886
C10A C 0.8243(3) 0.3674(2) 0.4390(2)
H20A H 0.7993 0.2749 0.4072
H21A H 0.9250 0.3983 0.4409
H22A H 0.8120 0.3882 0.5148
N4A N -0.01997(19) 0.30157(17) -0.02488(15)
H4A H -0.0706 0.2689 -0.0993
C15A C -0.1078(2) 0.2340(2) 0.03437(18)
C14A C -0.2524(2) 0.2784(2) 0.02193(19)
C13A C -0.2475(2) 0.4160(2) 0.08290(19)
N3A N -0.20446(19) 0.50638(17) 0.02101(15)
H3A H -0.2693 0.4845 -0.0489
C12A C -0.2040(2) 0.6403(2) 0.07749(18)
C11A C -0.3551(2) 0.6660(2) 0.0765(2)
H23A H -0.4128 0.6491 -0.0014
H24A H -0.4038 0.6081 0.1123
C19A C -0.3469(3) 0.8044(2) 0.1386(2)
C18A C -0.2682(3) 0.8964(2) 0.0887(2)
C17A C -0.1192(3) 0.8687(2) 0.0823(2)
C16A C -0.1255(2) 0.7293(2) 0.02297(18)
H25A H -0.1480 0.6582 0.1569
H31A H -0.1812 0.7122 -0.0564
H32A H -0.0557 0.8891 0.1587
H33A H -0.0762 0.9246 0.0422
H34A H -0.2571 0.9844 0.1346
H35A H -0.3267 0.8901 0.0130
H36A H -0.4458 0.8203 0.1351
H37A H -0.2958 0.8192 0.2179
H26A H -0.1782 0.4376 0.1571
H27A H -0.3440 0.4245 0.0943
H28A H -0.3177 0.2221 0.0486
H29A H -0.2960 0.2665 -0.0583
H30A H -0.1288 0.1412 -0.0047
C20A C -0.0294(3) 0.2493(2) 0.15524(19)
H38A H 0.0139 0.3392 0.1911
H39A H -0.0983 0.2197 0.1945
H40A H 0.0466 0.1988 0.1579
O1A O 0.64947(16) 0.43923(14) 0.61637(12)
O2A O 0.60739(17) 0.48825(16) 0.78629(13)
O3A O 0.77899(19) 0.26133(15) 0.74069(14)
O4A O 0.91311(16) 0.45716(15) 0.82282(12)
C21A C 0.6736(2) 0.4410(2) 0.71758(19)
C22A C 0.7988(3) 0.3799(2) 0.76246(18)
O4A_2 O -0.08689(16) 0.45716(15) -0.17718(12)
Ni2_2 Ni 1.0000 0.5000 1.0000
O5 O 0.4936(3) 0.8721(2) 0.4173(2)
H41 H 0.422(2) 0.841(3) 0.3626(18)
H42 H 0.490(7) 0.822(6) 0.458(5)
loop_
_geom_bond_atom_site_label_1
_geom_bond_atom_site_label_2
_geom_bond_site_symmetry_1
_geom_bond_site_symmetry_2
Ni1 O1 1_555 1_555
Ni2 O4 1_555 1_555
O1 C21 1_555 1_555
O2 C21 1_555 1_555
O3 C22 1_555 1_555
O4 C22 1_555 1_555
N1 Ni1 1_555 1_555
H1 N1 1_555 1_555
N2 Ni1 1_555 1_555
H2 N2 1_555 1_555
N3 Ni2 1_555 1_555
H3 N3 1_555 1_555
N4 Ni2 1_555 1_555
H4 N4 1_555 1_555
C1 H5 1_555 1_555
H6 C1 1_555 1_555
C2 N1 1_555 1_555
H7 C2 1_555 1_555
C3 N1 1_555 1_555
H8 C3 1_555 1_555
H9 C3 1_555 1_555
C4 C3 1_555 1_555
H10 C4 1_555 1_555
H11 C4 1_555 1_555
C5 N2 1_555 1_555
H12 C5 1_555 1_555
C6 C2 1_555 1_555
H13 C6 1_555 1_555
C7 C6 1_555 1_555
H14 C7 1_555 1_555
H15 C7 1_555 1_555
C8 C7 1_555 1_555
H16 C8 1_555 1_555
H17 C8 1_555 1_555
C9 C1 1_555 1_555
H18 C9 1_555 1_555
H19 C9 1_555 1_555
C10 C5 1_555 1_555
H20 C10 1_555 1_555
H21 C10 1_555 1_555
H22 C10 1_555 1_555
C11 H23 1_555 1_555
H24 C11 1_555 1_555
C12 N3 1_555 1_555
H25 C12 1_555 1_555
C13 N3 1_555 1_555
H26 C13 1_555 1_555
H27 C13 1_555 1_555
C14 C13 1_555 1_555
H28 C14 1_555 1_555
H29 C14 1_555 1_555
C15 N4 1_555 1_555
H30 C15 1_555 1_555
C16 C12 1_555 1_555
H31 C16 1_555 1_555
C17 C16 1_555 1_555
H32 C17 1_555 1_555
H33 C17 1_555 1_555
C18 C17 1_555 1_555
H34 C18 1_555 1_555
H35 C18 1_555 1_555
C19 C11 1_555 1_555
H36 C19 1_555 1_555
H37 C19 1_555 1_555
C20 C15 1_555 1_555
H38 C20 1_555 1_555
H39 C20 1_555 1_555
H40 C20 1_555 1_555
C21 C22 1_555 1_555
O5 H41 1_555 1_555
H42 O5 1_555 1_555
N2A Ni1 1_555 1_555
H2A N2A 1_555 1_555
C5A N2A 1_555 1_555
C4A C5A 1_555 1_555
C3A C4A 1_555 1_555
N1A Ni1 1_555 1_555
H1A N1A 1_555 1_555
C2A N1A 1_555 1_555
C1A C2A 1_555 1_555
H5A C1A 1_555 1_555
H6A C1A 1_555 1_555
C9A C1A 1_555 1_555
C8A C9A 1_555 1_555
C7A C8A 1_555 1_555
C6A N2 1_555 1_555
H7A C2A 1_555 1_555
H13A C6A 1_555 1_555
H14A C7A 1_555 1_555
H15A C7A 1_555 1_555
H16A C8A 1_555 1_555
H17A C8A 1_555 1_555
H18A C9A 1_555 1_555
H19A C9A 1_555 1_555
H8A C3A 1_555 1_555
H9A C3A 1_555 1_555
H10A C4A 1_555 1_555
H11A C4A 1_555 1_555
H12A C5A 1_555 1_555
C10A C5A 1_555 1_555
H20A C10A 1_555 1_555
H21A C10A 1_555 1_555
H22A C10A 1_555 1_555
N4A Ni2 1_555 1_555
H4A N4A 1_555 1_555
C15A N4A 1_555 1_555
C14A C15A 1_555 1_555
C13A C14A 1_555 1_555
N3A Ni2 1_555 1_555
H3A N3A 1_555 1_555
C12A N3A 1_555 1_555
C11A C12A 1_555 1_555
H23A C11A 1_555 1_555
H24A C11A 1_555 1_555
C19A C11A 1_555 1_555
C18A C19A 1_555 1_555
C17A C18A 1_555 1_555
C16A N4 1_555 1_555
H25A C12A 1_555 1_555
H31A C16A 1_555 1_555
H32A C17A 1_555 1_555
H33A C17A 1_555 1_555
H34A C18A 1_555 1_555
H35A C18A 1_555 1_555
H36A C19A 1_555 1_555
H37A C19A 1_555 1_555
H26A C13A 1_555 1_555
H27A C13A 1_555 1_555
H28A C14A 1_555 1_555
H29A C14A 1_555 1_555
H30A C15A 1_555 1_555
C20A C15A 1_555 1_555
H38A C20A 1_555 1_555
H39A C20A 1_555 1_555
H40A C20A 1_555 1_555
O1A Ni1 1_555 1_555
O2A C21A 1_555 1_555
O3A C22A 1_555 1_555
O4A C22A 1_555 1_555
C21A O1A 1_555 1_555
C22A C21A 1_555 1_555
O4A_2 Ni2 1_555 1_555
Ni2_2 O4A 1_555 1_555
C1 C2 1_555 1_555
C4 C5 1_555 1_555
C6 N2A 1_555 1_555
C8 C9 1_555 1_555
C11 C12 1_555 1_555
C14 C15 1_555 1_555
C16 N4A 1_555 1_555
C18 C19 1_555 1_555
C3A N1A 1_555 1_555
C2A C6A 1_555 1_555
C7A C6A 1_555 1_555
C13A N3A 1_555 1_555
C12A C16A 1_555 1_555
C17A C16A 1_555 1_555

#END
