
#######################################################################
#
#                 Cambridge Crystallographic Data Centre
#                                CCDC 
#
#######################################################################
#
# If this CIF has been generated from an entry in the Cambridge 
# Structural Database, then it will include bibliographic, chemical, 
# crystal, experimental, refinement or atomic coordinate data resulting 
# from the CCDC's data processing and validation procedures.
#
#######################################################################

data_YEPQOZ
_symmetry_cell_setting           triclinic
_symmetry_space_group_name_H-M   'P -1'
_symmetry_Int_Tables_number      2
_space_group_name_Hall           '-P 1'
loop_
_symmetry_equiv_pos_site_id
_symmetry_equiv_pos_as_xyz
1 x,y,z
2 -x,-y,-z
_cell_length_a                   8.9701(5)
_cell_length_b                   9.2486(5)
_cell_length_c                   9.2555(5)
_cell_angle_alpha                89.314(4)
_cell_angle_beta                 68.834(3)
_cell_angle_gamma                85.487(3)
_cell_volume                     713.712
loop_
_atom_site_label
_atom_site_type_symbol
_atom_site_fract_x
_atom_site_fract_y
_atom_site_fract_z
Cu1 Cu 0.0000 0.0000 0.0000
N1 N 0.03977(19) 0.18633(16) 0.08742(18)
H1 H 0.109(3) 0.169(2) 0.128(2)
N2 N 0.18294(19) 0.01045(16) -0.20683(18)
H2 H 0.258(3) -0.025(2) -0.177(2)
C1 C 0.0954(2) 0.30330(19) -0.0267(2)
H3 H 0.1136 0.3889 0.0263
H4 H 0.0110 0.3328 -0.0690
C2 C 0.2495(2) 0.2540(2) -0.1589(2)
H5 H 0.3243 0.2046 -0.1140
H6 H 0.2992 0.3413 -0.2119
C3 C 0.2337(2) 0.15290(19) -0.2803(2)
H7 H 0.3427 0.1342 -0.3621
C4 C 0.1216(2) 0.2166(2) -0.3595(2)
H8 H 0.1359 0.1577 -0.4515
H9 H 0.1466 0.3162 -0.3903
H10 H 0.0103 0.2168 -0.2875
C5 C 0.1659(2) -0.09862(19) -0.3158(2)
H11 H 0.0825 -0.0580 -0.3566
C6 C -0.1050(2) 0.2339(2) 0.2228(2)
H12 H -0.1892 0.2756 0.1835
C7 C -0.0775(2) 0.3480(2) 0.3264(2)
H13 H 0.0074 0.3095 0.3646
H14 H -0.0407 0.4355 0.2654
C8 C -0.2317(3) 0.3889(2) 0.4642(2)
H15 H -0.2100 0.4591 0.5327
H16 H -0.3135 0.4359 0.4265
C9 C -0.2958(2) 0.2542(2) 0.5560(2)
H17 H -0.3993 0.2821 0.6402
H18 H -0.2194 0.2144 0.6040
C10 C 0.3202(2) -0.1375(2) -0.4535(2)
H19 H 0.3543 -0.0498 -0.5152
H20 H 0.4062 -0.1729 -0.4154
O2 O 0.44045(16) -0.13072(14) -0.13194(16)
O3 O 0.22375(16) -0.17079(14) 0.07422(15)
C11 C 0.5828(2) -0.4107(2) -0.1180(2)
H23 H 0.6401 -0.3499 -0.1992
C12 C 0.3512(2) -0.4512(2) 0.1062(2)
H24 H 0.2491 -0.4183 0.1792
C13 C 0.4335(2) -0.36002(19) -0.0119(2)
C14 C 0.3609(2) -0.2084(2) -0.0231(2)
C6A C 0.1050(2) -0.2339(2) -0.2228(2)
N1A N -0.03977(19) -0.18633(16) -0.08742(18)
H1A H -0.109(3) -0.169(2) -0.128(2)
C1A C -0.0954(2) -0.30330(19) 0.0267(2)
H3A H -0.1136 -0.3889 -0.0263
H4A H -0.0110 -0.3328 0.0690
C2A C -0.2495(2) -0.2540(2) 0.1589(2)
H5A H -0.3243 -0.2046 0.1140
H6A H -0.2992 -0.3413 0.2119
C3A C -0.2337(2) -0.15290(19) 0.2803(2)
N2A N -0.18294(19) -0.01045(16) 0.20683(18)
H2A H -0.258(3) 0.025(2) 0.177(2)
C5A C -0.1659(2) 0.09862(19) 0.3158(2)
H11A H -0.0825 0.0580 0.3566
C10A C -0.3202(2) 0.1375(2) 0.4535(2)
H19A H -0.3543 0.0498 0.5152
H20A H -0.4062 0.1729 0.4154
H7A H -0.3427 -0.1342 0.3621
C4A C -0.1216(2) -0.2166(2) 0.3595(2)
H8A H -0.1359 -0.1577 0.4515
H9A H -0.1466 -0.3162 0.3903
H10A H -0.0103 -0.2168 0.2875
H12A H 0.1892 -0.2756 -0.1835
C7A C 0.0775(2) -0.3480(2) -0.3264(2)
H13A H -0.0074 -0.3095 -0.3646
H14A H 0.0407 -0.4355 -0.2654
C8A C 0.2317(3) -0.3889(2) -0.4642(2)
H15A H 0.2100 -0.4591 -0.5327
H16A H 0.3135 -0.4359 -0.4265
C9A C 0.2958(2) -0.2542(2) -0.5560(2)
H17A H 0.3993 -0.2821 -0.6402
H18A H 0.2194 -0.2144 -0.6040
C12A C 0.6488(2) -0.5488(2) -0.1062(2)
H24A H 0.7509 -0.5817 -0.1792
C13A C 0.5665(2) -0.63998(19) 0.0119(2)
C11A C 0.4172(2) -0.5893(2) 0.1180(2)
H23A H 0.3599 -0.6501 0.1992
C14A C 0.6391(2) -0.7916(2) 0.0231(2)
O2A O 0.55955(16) -0.86928(14) 0.13194(16)
O3A O 0.77625(16) -0.82921(14) -0.07422(15)
O3A_2 O -0.22375(16) 0.17079(14) -0.07422(15)
Cu1_2 Cu 1.0000 -1.0000 0.0000
O1 O 0.24620(18) 0.06822(17) 0.24701(17)
H21 H 0.250(3) -0.001(3) 0.202(3)
H22 H 0.343(3) 0.091(3) 0.212(3)
loop_
_geom_bond_atom_site_label_1
_geom_bond_atom_site_label_2
_geom_bond_site_symmetry_1
_geom_bond_site_symmetry_2
Cu1 N1 1_555 1_555
N1 H1 1_555 1_555
N2 Cu1 1_555 1_555
H2 N2 1_555 1_555
C1 N1 1_555 1_555
H3 C1 1_555 1_555
H4 C1 1_555 1_555
C2 C1 1_555 1_555
H5 C2 1_555 1_555
H6 C2 1_555 1_555
C3 N2 1_555 1_555
H7 C3 1_555 1_555
C4 C3 1_555 1_555
H8 C4 1_555 1_555
H9 C4 1_555 1_555
H10 C4 1_555 1_555
C5 N2 1_555 1_555
H11 C5 1_555 1_555
C6 N1 1_555 1_555
H12 C6 1_555 1_555
C7 C6 1_555 1_555
H13 C7 1_555 1_555
H14 C7 1_555 1_555
C8 C7 1_555 1_555
H15 C8 1_555 1_555
H16 C8 1_555 1_555
C9 C8 1_555 1_555
H17 C9 1_555 1_555
H18 C9 1_555 1_555
C10 C5 1_555 1_555
H19 C10 1_555 1_555
H20 C10 1_555 1_555
O1 H21 1_555 1_555
H22 O1 1_555 1_555
O2 C14 1_555 1_555
O3 Cu1 1_555 1_555
C11 H23 1_555 1_555
C12 H24 1_555 1_555
C13 C11 1_555 1_555
C14 O3 1_555 1_555
C6A C5 1_555 1_555
N1A Cu1 1_555 1_555
H1A N1A 1_555 1_555
C1A N1A 1_555 1_555
H3A C1A 1_555 1_555
H4A C1A 1_555 1_555
C2A C1A 1_555 1_555
H5A C2A 1_555 1_555
H6A C2A 1_555 1_555
C3A C2A 1_555 1_555
N2A Cu1 1_555 1_555
H2A N2A 1_555 1_555
C5A C6 1_555 1_555
H11A C5A 1_555 1_555
C10A C9 1_555 1_555
H19A C10A 1_555 1_555
H20A C10A 1_555 1_555
H7A C3A 1_555 1_555
C4A C3A 1_555 1_555
H8A C4A 1_555 1_555
H9A C4A 1_555 1_555
H10A C4A 1_555 1_555
H12A C6A 1_555 1_555
C7A C6A 1_555 1_555
H13A C7A 1_555 1_555
H14A C7A 1_555 1_555
C8A C7A 1_555 1_555
H15A C8A 1_555 1_555
H16A C8A 1_555 1_555
C9A C10 1_555 1_555
H17A C9A 1_555 1_555
H18A C9A 1_555 1_555
C12A C11 1_555 1_555
H24A C12A 1_555 1_555
C13A C12A 1_555 1_555
C11A C12 1_555 1_555
H23A C11A 1_555 1_555
C14A C13A 1_555 1_555
O2A C14A 1_555 1_555
O3A C14A 1_555 1_555
O3A_2 Cu1 1_555 1_555
Cu1_2 O3A 1_555 1_555
C2 C3 1_555 1_555
C12 C13 1_555 1_555
C13 C14 1_555 1_555
C6A N1A 1_555 1_555
C3A N2A 1_555 1_555
N2A C5A 1_555 1_555
C5A C10A 1_555 1_555
C8A C9A 1_555 1_555
C13A C11A 1_555 1_555

#END
