
#######################################################################
#
#                 Cambridge Crystallographic Data Centre
#                                CCDC 
#
#######################################################################
#
# If this CIF has been generated from an entry in the Cambridge 
# Structural Database, then it will include bibliographic, chemical, 
# crystal, experimental, refinement or atomic coordinate data resulting 
# from the CCDC's data processing and validation procedures.
#
#######################################################################

data_YEPSUI
_symmetry_cell_setting           triclinic
_symmetry_space_group_name_H-M   'P -1'
_symmetry_Int_Tables_number      2
_space_group_name_Hall           '-P 1'
loop_
_symmetry_equiv_pos_site_id
_symmetry_equiv_pos_as_xyz
1 x,y,z
2 -x,-y,-z
_cell_length_a                   10.587(2)
_cell_length_b                   20.026(4)
_cell_length_c                   20.227(4)
_cell_angle_alpha                60.323(3)
_cell_angle_beta                 89.990(4)
_cell_angle_gamma                90.004(4)
_cell_volume                     3725.92
loop_
_atom_site_label
_atom_site_type_symbol
_atom_site_fract_x
_atom_site_fract_y
_atom_site_fract_z
Fe1 Fe 0.23793(9) -0.25003(6) 0.00008(6)
C1 C -0.4177(7) -0.4349(4) 0.0312(5)
N1 N 0.2429(6) -0.3068(4) 0.1200(4)
N2 N 0.0876(6) -0.1758(4) 0.0027(4)
C2 C -0.4165(7) -0.0643(4) -0.0312(4)
C4 C -0.2112(7) -0.0332(5) 0.0121(5)
H1 H -0.2494 -0.0594 0.0623
H2 H -0.1689 0.0119 0.0074
C7 C -0.3137(7) -0.4939(4) 0.0448(4)
H3 H -0.2776 -0.5107 0.0946
H4 H -0.3532 -0.5383 0.0463
C8 C -0.2089(7) -0.4683(5) -0.0113(5)
H5 H -0.1671 -0.5141 -0.0053
H6 H -0.2464 -0.4429 -0.0616
N5 N 0.0868(6) -0.3250(4) -0.0025(4)
C9 C -0.3144(7) -0.0059(4) -0.0436(4)
H7 H -0.2783 0.0123 -0.0937
H8 H -0.3540 0.0377 -0.0435
C14 C -0.1119(7) -0.0849(5) 0.0107(5)
N8 N -0.6168(6) -0.3309(4) 0.0078(4)
N9 N 0.2416(6) -0.1927(4) -0.1203(4)
C17 C -0.5164(8) -0.4558(4) 0.0786(5)
H18 H -0.5212 -0.5053 0.1201
N11 N -0.6128(6) -0.1679(4) -0.0082(4)
C20 C -0.1096(7) -0.4167(5) -0.0101(5)
C21 C -0.5156(8) -0.0423(4) -0.0806(4)
H21 H -0.5196 0.0068 -0.1226
C23 C -0.4198(7) -0.1383(4) 0.0286(5)
H22 H -0.3524 -0.1564 0.0625
C24 C -0.0245(8) -0.1196(4) 0.0665(5)
H23 H -0.0302 -0.1140 0.1094
C28 C -0.0962(8) -0.4026(5) 0.0479(6)
H26 H -0.1577 -0.4204 0.0857
C30 C -0.0986(8) -0.0953(5) -0.0485(5)
H28 H -0.1539 -0.0724 -0.0895
C31 C -0.0232(8) -0.3820(5) -0.0662(5)
H29 H -0.0274 -0.3887 -0.1085
C32 C -0.4162(7) -0.3620(5) -0.0298(5)
H30 H -0.3503 -0.3451 -0.0648
C33 C -0.6108(8) -0.0960(5) -0.0660(5)
H31 H -0.6788 -0.0802 -0.0995
C34 C 0.0710(8) -0.3369(5) -0.0618(5)
H32 H 0.1271 -0.3132 -0.1023
C37 C 0.0084(8) -0.1453(5) -0.0478(5)
H35 H 0.0148 -0.1536 -0.0890
C40 C -0.6117(7) -0.4031(5) 0.0655(5)
H38 H -0.6782 -0.4196 0.1000
C43 C -0.5207(7) -0.3124(4) -0.0377(4)
H41 H -0.5190 -0.2627 -0.0790
C45 C 0.0736(8) -0.1633(5) 0.0617(5)
H43 H 0.1321 -0.1848 0.1011
C46 C -0.5209(7) -0.1869(5) 0.0397(5)
H44 H -0.5226 -0.2349 0.0834
C50 C 0.0085(8) -0.3613(5) 0.0536(5)
H48 H 0.0213 -0.3604 0.0986
C73 C 0.2490(8) -0.1580(5) -0.1850(6)
C74 C 0.2468(8) -0.3424(5) 0.1845(6)
B3 B 0.2635(17) -0.1075(9) -0.2762(7)
B4 B 0.2572(18) -0.3917(9) 0.2758(6)
Fe1_2 Fe -0.76207(9) -0.25003(6) 0.00008(6)
N8_2 N 0.3832(6) -0.3309(4) 0.0078(4)
N11_2 N 0.3872(6) -0.1679(4) -0.0082(4)
Fe2 Fe 0.76321(9) -0.25005(6) -0.49995(6)
C3 C 1.4172(8) -0.4352(5) -0.4704(5)
N3 N 0.9144(6) -0.1752(3) -0.4961(4)
C5 C 1.1123(7) -0.0853(4) -0.4894(5)
C6 C 1.1094(7) -0.4155(4) -0.5102(5)
N4 N 0.9151(5) -0.3258(3) -0.5035(4)
C10 C 1.2125(7) -0.0336(4) -0.4824(4)
H9 H 1.2516 -0.0616 -0.4326
H10 H 1.1708 0.0111 -0.4856
C11 C 1.4146(7) -0.0636(5) -0.5289(5)
N6 N 0.7600(6) -0.1928(4) -0.6212(4)
C12 C 1.2110(7) -0.4684(4) -0.5156(4)
H11 H 1.2494 -0.4416 -0.5657
H12 H 1.1698 -0.5139 -0.5106
N7 N 1.6162(6) -0.3333(4) -0.4908(4)
C13 C 1.3167(7) -0.4937(4) -0.4549(4)
H13 H 1.2780 -0.5076 -0.4063
H14 H 1.3566 -0.5395 -0.4501
C15 C 1.3173(7) -0.0060(4) -0.5439(4)
H15 H 1.2785 0.0088 -0.5927
H16 H 1.3571 0.0394 -0.5476
C16 C 1.5214(7) -0.0423(4) -0.5798(4)
H17 H 1.5256 0.0068 -0.6220
N10 N 1.6128(6) -0.1654(4) -0.5097(4)
C18 C 1.5232(7) -0.4558(4) -0.4229(4)
H19 H 1.5290 -0.5059 -0.3826
C19 C 0.9296(9) -0.3378(5) -0.5610(5)
H20 H 0.8724 -0.3141 -0.6009
C22 C 0.7538(7) -0.3421(5) -0.3141(6)
C25 C 1.4167(8) -0.3607(5) -0.5304(5)
H24 H 1.3524 -0.3434 -0.5665
C26 C 0.7525(8) -0.1585(5) -0.6863(6)
C27 C 1.0230(8) -0.1196(4) -0.4321(5)
H25 H 1.0278 -0.1140 -0.3892
C29 C 1.4207(8) -0.1385(5) -0.4710(5)
H27 H 1.3547 -0.1567 -0.4361
C35 C 1.6161(8) -0.0935(5) -0.5666(5)
H33 H 1.6859 -0.0774 -0.5988
C36 C 1.0201(9) -0.3814(5) -0.5675(5)
H34 H 1.0226 -0.3884 -0.6096
N12 N 0.7583(6) -0.3066(4) -0.3791(4)
C38 C 1.6171(7) -0.4061(5) -0.4332(5)
H36 H 1.6846 -0.4228 -0.3994
C39 C 1.0076(8) -0.1464(5) -0.5478(5)
H37 H 1.0079 -0.1599 -0.5856
C41 C 1.0983(8) -0.3985(5) -0.4496(5)
H39 H 1.1603 -0.4157 -0.4122
C42 C 0.9276(8) -0.1619(5) -0.4391(5)
H40 H 0.8676 -0.1828 -0.4005
C44 C 1.0998(9) -0.1002(5) -0.5498(5)
H42 H 1.1552 -0.0780 -0.5908
C47 C 1.5127(9) -0.1860(5) -0.4616(5)
H45 H 1.5095 -0.2357 -0.4204
C48 C 1.5134(9) -0.3128(4) -0.5356(5)
H46 H 1.5072 -0.2615 -0.5734
C49 C 1.0076(8) -0.3610(6) -0.4460(5)
H47 H 1.0001 -0.3558 -0.4029
B1 B 0.7481(14) -0.1108(9) -0.7725(7)
B2 B 0.7512(15) -0.3877(9) -0.2277(7)
Fe2_2 Fe 1.76321(9) -0.25005(6) -0.49995(6)
N7_2 N 0.6162(6) -0.3333(4) -0.4908(4)
N10_2 N 0.6128(6) -0.1654(4) -0.5097(4)
C51 C 0.7612(16) -0.5379(10) 0.2544(7)
C52 C 0.8720(15) -0.4259(11) 0.2508(7)
H49 H 0.9486 -0.4516 0.2593
C54 C 0.7556(14) -0.4609(10) 0.2446(6)
C58 C 0.6450(14) -0.4159(12) 0.2295(7)
H52 H 0.5672 -0.4333 0.2229
C60 C 0.8760(16) -0.5762(13) 0.2494(7)
H54 H 0.9533 -0.5513 0.2413
C61 C 0.867(3) -0.3555(14) 0.2439(9)
H55 H 0.9410 -0.3362 0.2529
C62 C 0.6490(18) -0.5811(13) 0.2672(8)
H56 H 0.5724 -0.5587 0.2680
C65 C 0.658(3) -0.3390(12) 0.2245(11)
H59 H 0.5846 -0.3125 0.2215
C67 C 0.760(4) -0.6862(13) 0.2704(11)
H61 H 0.7588 -0.7346 0.2746
C68 C 0.872(3) -0.6476(16) 0.2562(12)
H62 H 0.9460 -0.6700 0.2513
C70 C 0.758(3) -0.3086(19) 0.2239(17)
H64 H 0.7619 -0.2572 0.2111
C72 C 0.649(2) -0.6547(17) 0.2785(11)
H66 H 0.5742 -0.6831 0.2916
C53 C 0.7591(15) -0.0404(10) -0.2453(6)
C55 C 0.8769(16) 0.0755(13) -0.2489(7)
H50 H 0.9543 0.0505 -0.2391
C56 C 0.7650(15) 0.0375(10) -0.2544(7)
C57 C 0.8731(15) -0.0746(11) -0.2510(7)
H51 H 0.9505 -0.0497 -0.2592
C59 C 0.6509(19) 0.0801(13) -0.2689(9)
H53 H 0.5754 0.0584 -0.2727
C63 C 0.650(2) 0.1503(18) -0.2770(11)
H57 H 0.5732 0.1764 -0.2872
C64 C 0.871(3) 0.1505(16) -0.2581(11)
H58 H 0.9445 0.1744 -0.2553
C66 C 0.760(4) 0.1868(12) -0.2709(11)
H60 H 0.7555 0.2354 -0.2757
C69 C 0.863(3) -0.1470(13) -0.2438(9)
H63 H 0.9354 -0.1680 -0.2526
C71 C 0.757(3) -0.1886(17) -0.2248(14)
H65 H 0.7585 -0.2400 -0.2122
C75 C 0.648(3) -0.1554(14) -0.2242(11)
H67 H 0.5729 -0.1808 -0.2202
C76 C 0.6457(14) -0.0823(11) -0.2297(7)
H68 H 0.5705 -0.0623 -0.2231
loop_
_geom_bond_atom_site_label_1
_geom_bond_atom_site_label_2
_geom_bond_site_symmetry_1
_geom_bond_site_symmetry_2
Fe1 N1 1_555 1_555
Fe2 N3 1_555 1_555
C1 C7 1_555 1_555
N1 C74 1_555 1_555
N2 Fe1 1_555 1_555
C2 C9 1_555 1_555
C3 C13 1_555 1_555
N3 C39 1_555 1_555
C4 H1 1_555 1_555
H2 C4 1_555 1_555
C5 C10 1_555 1_555
C6 C12 1_555 1_555
N4 Fe2 1_555 1_555
C7 H3 1_555 1_555
H4 C7 1_555 1_555
C8 C7 1_555 1_555
H5 C8 1_555 1_555
H6 C8 1_555 1_555
N5 Fe1 1_555 1_555
C9 C4 1_555 1_555
H7 C9 1_555 1_555
H8 C9 1_555 1_555
C10 H9 1_555 1_555
H10 C10 1_555 1_555
C11 C15 1_555 1_555
N6 Fe2 1_555 1_555
C12 H11 1_555 1_555
H12 C12 1_555 1_555
N7 C38 1_555 1_555
C13 C12 1_555 1_555
H13 C13 1_555 1_555
H14 C13 1_555 1_555
C14 C4 1_555 1_555
C15 C10 1_555 1_555
H15 C15 1_555 1_555
H16 C15 1_555 1_555
N8 C40 1_555 1_555
C16 C11 1_555 1_555
H17 C16 1_555 1_555
N9 Fe1 1_555 1_555
C17 C1 1_555 1_555
H18 C17 1_555 1_555
N10 C35 1_555 1_555
C18 C3 1_555 1_555
H19 C18 1_555 1_555
C19 N4 1_555 1_555
H20 C19 1_555 1_555
N11 C33 1_555 1_555
C20 C8 1_555 1_555
C21 C2 1_555 1_555
H21 C21 1_555 1_555
C22 N12 1_555 1_555
C23 C2 1_555 1_555
H22 C23 1_555 1_555
C24 C14 1_555 1_555
H23 C24 1_555 1_555
C25 C3 1_555 1_555
H24 C25 1_555 1_555
C26 N6 1_555 1_555
C27 C5 1_555 1_555
H25 C27 1_555 1_555
C28 C20 1_555 1_555
H26 C28 1_555 1_555
C29 C11 1_555 1_555
H27 C29 1_555 1_555
C30 C14 1_555 1_555
H28 C30 1_555 1_555
C31 C20 1_555 1_555
H29 C31 1_555 1_555
C32 C1 1_555 1_555
H30 C32 1_555 1_555
C33 C21 1_555 1_555
H31 C33 1_555 1_555
C34 N5 1_555 1_555
H32 C34 1_555 1_555
C35 C16 1_555 1_555
H33 C35 1_555 1_555
C36 C6 1_555 1_555
H34 C36 1_555 1_555
C37 N2 1_555 1_555
H35 C37 1_555 1_555
N12 Fe2 1_555 1_555
C38 C18 1_555 1_555
H36 C38 1_555 1_555
C39 H37 1_555 1_555
C40 C17 1_555 1_555
H38 C40 1_555 1_555
C41 C6 1_555 1_555
H39 C41 1_555 1_555
C42 N3 1_555 1_555
H40 C42 1_555 1_555
C43 N8 1_555 1_555
H41 C43 1_555 1_555
C44 C5 1_555 1_555
H42 C44 1_555 1_555
C45 N2 1_555 1_555
H43 C45 1_555 1_555
C46 N11 1_555 1_555
H44 C46 1_555 1_555
C47 N10 1_555 1_555
H45 C47 1_555 1_555
C48 N7 1_555 1_555
H46 C48 1_555 1_555
C49 N4 1_555 1_555
H47 C49 1_555 1_555
C50 N5 1_555 1_555
H48 C50 1_555 1_555
C51 C54 1_555 1_555
C52 H49 1_555 1_555
C53 C56 1_555 1_555
C54 C52 1_555 1_555
C55 H50 1_555 1_555
C56 C55 1_555 1_555
B1 C26 1_555 1_555
C57 C53 1_555 1_555
H51 C57 1_555 1_555
C58 C54 1_555 1_555
H52 C58 1_555 1_555
B2 C22 1_555 1_555
C59 C56 1_555 1_555
H53 C59 1_555 1_555
C60 C51 1_555 1_555
H54 C60 1_555 1_555
C61 C52 1_555 1_555
H55 C61 1_555 1_555
C62 C51 1_555 1_555
H56 C62 1_555 1_555
C63 C59 1_555 1_555
H57 C63 1_555 1_555
C64 C55 1_555 1_555
H58 C64 1_555 1_555
C65 C58 1_555 1_555
H59 C65 1_555 1_555
C66 C63 1_555 1_555
H60 C66 1_555 1_555
C67 H61 1_555 1_555
C68 C60 1_555 1_555
H62 C68 1_555 1_555
C69 C57 1_555 1_555
H63 C69 1_555 1_555
C70 C61 1_555 1_555
H64 C70 1_555 1_555
C71 C69 1_555 1_555
H65 C71 1_555 1_555
C72 C62 1_555 1_555
H66 C72 1_555 1_555
C73 N9 1_555 1_555
C74 B4 1_555 1_555
B3 C73 1_555 1_555
C75 C71 1_555 1_555
H67 C75 1_555 1_555
C76 C53 1_555 1_555
H68 C76 1_555 1_555
Fe1_2 N8 1_555 1_555
Fe2_2 N7 1_555 1_555
N7_2 Fe2 1_555 1_555
N8_2 Fe1 1_555 1_555
N10_2 Fe2 1_555 1_555
N11_2 Fe1 1_555 1_555
N10 Fe2_2 1_555 1_555
C19 C36 1_555 1_555
N11 Fe1_2 1_555 1_555
C23 C46 1_555 1_555
C24 C45 1_555 1_555
C25 C48 1_555 1_555
C27 C42 1_555 1_555
C28 C50 1_555 1_555
C29 C47 1_555 1_555
C30 C37 1_555 1_555
C31 C34 1_555 1_555
C32 C43 1_555 1_555
C39 C44 1_555 1_555
C41 C49 1_555 1_555
C64 C66 1_555 1_555
C65 C70 1_555 1_555
C67 C68 1_555 1_555
C67 C72 1_555 1_555
C75 C76 1_555 1_555

#END
