
#######################################################################
#
#                 Cambridge Crystallographic Data Centre
#                                CCDC 
#
#######################################################################
#
# If this CIF has been generated from an entry in the Cambridge 
# Structural Database, then it will include bibliographic, chemical, 
# crystal, experimental, refinement or atomic coordinate data resulting 
# from the CCDC's data processing and validation procedures.
#
#######################################################################

data_YEPSOC
_symmetry_cell_setting           monoclinic
_symmetry_space_group_name_H-M   'C 2/c'
_symmetry_Int_Tables_number      15
_space_group_name_Hall           '-C 2yn'
loop_
_symmetry_equiv_pos_site_id
_symmetry_equiv_pos_as_xyz
1 x,y,z
2 1/2+x,1/2+y,z
3 -x,y,1/2-z
4 1/2-x,1/2+y,1/2-z
5 -x,-y,-z
6 1/2-x,1/2-y,-z
7 x,-y,1/2+z
8 1/2+x,1/2-y,1/2+z
_cell_length_a                   20.468(4)
_cell_length_b                   9.8853(19)
_cell_length_c                   20.399(4)
_cell_angle_alpha                90
_cell_angle_beta                 101.634(4)
_cell_angle_gamma                90
_cell_volume                     4042.58
loop_
_atom_site_label
_atom_site_type_symbol
_atom_site_fract_x
_atom_site_fract_y
_atom_site_fract_z
Fe1 Fe 0.5000 0.16843(5) 0.2500
N1 N 0.43871(10) 0.0067(2) 0.28438(10)
N2 N 0.43332(12) 0.1700(2) 0.15666(11)
N3 N 0.56006(10) 0.3293(2) 0.21342(10)
C1 C 0.42483(13) 0.0040(3) 0.34547(12)
C2 C 0.40831(13) -0.0861(3) 0.24193(13)
C3 C 0.39117(12) 0.1772(2) 0.11009(12)
C4 C 0.53146(13) 0.4276(3) 0.17296(13)
C5 C 0.62616(14) 0.3267(3) 0.22563(16)
C6 C 0.38081(14) -0.0839(3) 0.36452(13)
C7 C 0.36342(14) -0.1776(3) 0.25721(14)
S1 S 0.33096(4) 0.18615(8) 0.04456(3)
C8 C 0.56609(14) 0.5200(3) 0.14343(13)
C9 C 0.66417(14) 0.4152(3) 0.19750(16)
C10 C 0.34697(13) -0.1774(3) 0.31921(14)
C11 C 0.63411(13) 0.5143(3) 0.15393(13)
C12 C 0.29612(14) -0.2731(3) 0.33688(16)
C13 C 0.67381(15) 0.6096(3) 0.11942(14)
N1B N 0.56129(10) 0.0067(2) 0.21562(10)
N3B N 0.43994(10) 0.3293(2) 0.28658(10)
N2B N 0.56668(12) 0.1700(2) 0.34334(11)
C3B C 0.60883(12) 0.1772(2) 0.38991(12)
S1B S 0.66904(4) 0.18615(8) 0.45544(3)
C13B C 0.32619(15) -0.3904(3) 0.38058(14)
C12B C 0.70388(14) 0.7269(3) 0.16312(16)
C11B C 0.36589(13) -0.4857(3) 0.34607(13)
C10B C 0.65303(13) 0.8226(3) 0.18079(14)
C8B C 0.43391(14) -0.4800(3) 0.35657(13)
C9B C 0.33583(14) -0.5848(3) 0.30250(16)
C6B C 0.61919(14) 0.9161(3) 0.13548(13)
C7B C 0.63658(14) 0.8224(3) 0.24279(14)
C4B C 0.46854(13) -0.5724(3) 0.32704(13)
C5B C 0.37384(14) -0.6733(3) 0.27437(16)
C1B C 0.57517(13) 1.0040(3) 0.15453(12)
C2B C 0.59169(13) 0.9139(3) 0.25807(13)
N3B_2 N 0.43994(10) -0.6707(2) 0.28658(10)
N1B_2 N 0.56129(10) 1.0067(2) 0.21562(10)
Fe1_2 Fe 0.5000 -0.83157(5) 0.2500
Fe1_3 Fe 0.5000 1.16843(5) 0.2500
Cl1 Cl 0.49343(4) -0.24984(10) -0.00746(4)
Cl2 Cl 0.24211(5) -0.35625(14) 0.11158(5)
C14 C 0.38739(18) -0.1732(3) 0.04311(15)
C15 C 0.42205(15) -0.2795(3) 0.02497(13)
C16 C 0.31191(16) -0.3266(4) 0.07711(15)
C17 C 0.34662(18) -0.4333(4) 0.05879(16)
C18 C 0.40202(17) -0.4101(3) 0.03254(15)
C19 C 0.33159(18) -0.1965(4) 0.06904(16)
loop_
_geom_bond_atom_site_label_1
_geom_bond_atom_site_label_2
_geom_bond_site_symmetry_1
_geom_bond_site_symmetry_2
Fe1 N1 1_555 1_555
N1 C1 1_555 1_555
N2 Fe1 1_555 1_555
N3 Fe1 1_555 1_555
C1 C6 1_555 1_555
C2 N1 1_555 1_555
C3 N2 1_555 1_555
C4 N3 1_555 1_555
C5 N3 1_555 1_555
C6 C10 1_555 1_555
C7 C2 1_555 1_555
S1 C3 1_555 1_555
C8 C4 1_555 1_555
C9 C5 1_555 1_555
C10 C7 1_555 1_555
C11 C8 1_555 1_555
C12 C10 1_555 1_555
C13 C11 1_555 1_555
Cl1 C15 1_555 1_555
Cl2 C16 1_555 1_555
C14 C15 1_555 1_555
C15 C18 1_555 1_555
C16 C17 1_555 1_555
C17 C18 1_555 1_555
C19 C14 1_555 1_555
N1B Fe1 1_555 1_555
N3B Fe1 1_555 1_555
N2B Fe1 1_555 1_555
C3B N2B 1_555 1_555
S1B C3B 1_555 1_555
C13B C12 1_555 1_555
C12B C13 1_555 1_555
C11B C13B 1_555 1_555
C10B C12B 1_555 1_555
C8B C11B 1_555 1_555
C9B C11B 1_555 1_555
C6B C10B 1_555 1_555
C7B C10B 1_555 1_555
C4B C8B 1_555 1_555
C5B C9B 1_555 1_555
C1B C6B 1_555 1_555
C2B C7B 1_555 1_555
N3B_2 C4B 1_555 1_555
N1B_2 C1B 1_555 1_555
Fe1_2 N3B_2 1_555 1_555
Fe1_3 N1B_2 1_555 1_555
C9 C11 1_555 1_555
C16 C19 1_555 1_555
C5B N3B_2 1_555 1_555
C2B N1B_2 1_555 1_555

#END
