
#######################################################################
#
#                 Cambridge Crystallographic Data Centre
#                                CCDC 
#
#######################################################################
#
# If this CIF has been generated from an entry in the Cambridge 
# Structural Database, then it will include bibliographic, chemical, 
# crystal, experimental, refinement or atomic coordinate data resulting 
# from the CCDC's data processing and validation procedures.
#
#######################################################################

data_YEQQER
_symmetry_cell_setting           triclinic
_symmetry_space_group_name_H-M   'P -1'
_symmetry_Int_Tables_number      2
_space_group_name_Hall           '-P 1'
loop_
_symmetry_equiv_pos_site_id
_symmetry_equiv_pos_as_xyz
1 x,y,z
2 -x,-y,-z
_cell_length_a                   7.0620(7)
_cell_length_b                   12.5728(12)
_cell_length_c                   13.6359(13)
_cell_angle_alpha                68.4990(10)
_cell_angle_beta                 80.147(2)
_cell_angle_gamma                82.043(2)
_cell_volume                     1106.06
loop_
_atom_site_label
_atom_site_type_symbol
_atom_site_fract_x
_atom_site_fract_y
_atom_site_fract_z
Cu1 Cu 0.0217(2) 0.31721(13) 0.34509(12)
Cu2 Cu -0.6173(2) 0.37206(13) 0.23096(12)
Cu3 Cu 0.4601(2) -0.03332(13) 0.11005(11)
I1 I -0.27360(13) 0.29832(8) 0.26035(8)
I2 I 0.15239(12) 0.51489(7) 0.29462(7)
I3 I 0.27752(12) -0.10177(8) -0.00207(6)
N1 N 0.4922(13) -0.1743(8) 0.2472(7)
N2 N 0.3334(12) 0.0363(7) 0.2366(6)
N3 N 0.2808(13) 0.3363(8) 0.1171(7)
N4 N 0.2114(12) 0.1710(7) 0.3209(6)
N5 N 0.0642(12) 0.2148(8) 0.4981(7)
N6 N 0.3107(12) -0.0194(7) 0.4251(6)
C1 C 0.2474(17) 0.4197(10) 0.0250(9)
H1 H 0.2832 0.4926 0.0120
C2 C 0.163(2) 0.4025(11) -0.0509(10)
H2 H 0.1379 0.4637 -0.1123
C3 C 0.1169(18) 0.2971(11) -0.0365(9)
H3 H 0.0606 0.2843 -0.0876
C4 C 0.1552(16) 0.2075(10) 0.0566(8)
H4 H 0.1272 0.1334 0.0683
C5 C 0.2359(13) 0.2312(8) 0.1316(7)
C6 C 0.2639(13) 0.1405(8) 0.2337(8)
C7 C 0.3600(14) -0.0416(8) 0.3337(8)
C8 C 0.4490(14) -0.1546(9) 0.3404(8)
C9 C 0.5621(18) -0.2787(10) 0.2507(10)
H5 H 0.5883 -0.2934 0.1875
C10 C 0.5981(18) -0.3672(10) 0.3442(10)
H6 H 0.6471 -0.4394 0.3431
C11 C 0.5612(17) -0.3477(10) 0.4371(10)
H7 H 0.5887 -0.4054 0.5002
C12 C 0.4819(15) -0.2406(9) 0.4373(9)
H8 H 0.4510 -0.2263 0.5006
C13 C 0.2328(14) 0.0859(9) 0.4146(8)
C14 C 0.1587(15) 0.1103(9) 0.5127(8)
C15 C 0.1846(16) 0.0328(9) 0.6114(8)
H9 H 0.2496 -0.0387 0.6185
C16 C 0.1140(17) 0.0607(11) 0.7011(9)
H10 H 0.1274 0.0083 0.7689
C17 C 0.0224(17) 0.1697(11) 0.6861(9)
H11 H -0.0214 0.1931 0.7439
C18 C -0.0028(17) 0.2425(11) 0.5847(9)
H12 H -0.0690 0.3140 0.5757
Cu1_2 Cu -0.9783(2) 0.31721(13) 0.34509(12)
Cu2_2 Cu 0.3827(2) 0.37206(13) 0.23096(12)
Cu3A Cu 0.5399(2) 0.03332(13) -0.11005(11)
I2_2 I -0.84761(12) 0.51489(7) 0.29462(7)
I3A I 0.72248(12) 0.10177(8) 0.00207(6)
N3_2 N -0.7192(13) 0.3363(8) 0.1171(7)
loop_
_geom_bond_atom_site_label_1
_geom_bond_atom_site_label_2
_geom_bond_site_symmetry_1
_geom_bond_site_symmetry_2
Cu1 I1 1_555 1_555
Cu2 I1 1_555 1_555
Cu3 I3 1_555 1_555
I2 Cu1 1_555 1_555
I3 Cu3A 1_555 1_555
N1 Cu3 1_555 1_555
N2 Cu3 1_555 1_555
N3 C1 1_555 1_555
N4 Cu1 1_555 1_555
N5 Cu1 1_555 1_555
N6 C7 1_555 1_555
C1 H1 1_555 1_555
C2 C1 1_555 1_555
H2 C2 1_555 1_555
C3 C2 1_555 1_555
H3 C3 1_555 1_555
C4 C3 1_555 1_555
H4 C4 1_555 1_555
C5 N3 1_555 1_555
C6 N2 1_555 1_555
C7 N2 1_555 1_555
C8 N1 1_555 1_555
C9 N1 1_555 1_555
H5 C9 1_555 1_555
C10 C9 1_555 1_555
H6 C10 1_555 1_555
C11 C10 1_555 1_555
H7 C11 1_555 1_555
C12 C8 1_555 1_555
H8 C12 1_555 1_555
C13 N4 1_555 1_555
C14 N5 1_555 1_555
C15 C14 1_555 1_555
H9 C15 1_555 1_555
C16 C15 1_555 1_555
H10 C16 1_555 1_555
C17 C16 1_555 1_555
H11 C17 1_555 1_555
C18 N5 1_555 1_555
H12 C18 1_555 1_555
Cu1_2 Cu2 1_555 1_555
Cu2_2 Cu1 1_555 1_555
Cu3A Cu3 1_555 1_555
I2_2 Cu2 1_555 1_555
I3A Cu3 1_555 1_555
N3_2 Cu2 1_555 1_555
I2 Cu2_2 1_555 1_555
N3 Cu2_2 1_555 1_555
N4 C6 1_555 1_555
N6 C13 1_555 1_555
C4 C5 1_555 1_555
C5 C6 1_555 1_555
C7 C8 1_555 1_555
C11 C12 1_555 1_555
C13 C14 1_555 1_555
C17 C18 1_555 1_555
Cu1_2 I2_2 1_555 1_555
Cu3A I3A 1_555 1_555

#END
