
#######################################################################
#
#                 Cambridge Crystallographic Data Centre
#                                CCDC 
#
#######################################################################
#
# If this CIF has been generated from an entry in the Cambridge 
# Structural Database, then it will include bibliographic, chemical, 
# crystal, experimental, refinement or atomic coordinate data resulting 
# from the CCDC's data processing and validation procedures.
#
#######################################################################

data_YEQWIB
_symmetry_cell_setting           monoclinic
_symmetry_space_group_name_H-M   'C c'
_symmetry_Int_Tables_number      9
_space_group_name_Hall           'C -2yc'
loop_
_symmetry_equiv_pos_site_id
_symmetry_equiv_pos_as_xyz
1 x,y,z
2 x,-y,1/2+z
3 1/2+x,1/2+y,z
4 1/2+x,1/2-y,1/2+z
_cell_length_a                   16.087(2)
_cell_length_b                   16.656(2)
_cell_length_c                   8.3919(10)
_cell_angle_alpha                90
_cell_angle_beta                 115.755(9)
_cell_angle_gamma                90
_cell_volume                     2025.2
loop_
_atom_site_label
_atom_site_type_symbol
_atom_site_fract_x
_atom_site_fract_y
_atom_site_fract_z
Eu1 Eu 0.18866(4) 0.14620(2) 0.23587(6)
Eu2 Eu 0.44122(3) 0.24171(3) 0.50023(4)
O1 O 0.3264(5) 0.1645(5) 0.5262(9)
O2 O 0.0286(6) 0.1405(4) 0.1844(11)
O3 O 0.0783(6) 0.2297(4) -0.0354(10)
O4 O 0.1681(6) 0.2653(5) 0.3679(11)
O5 O 0.4501(6) 0.1325(5) 0.3413(12)
O6 O 0.2915(6) 0.2467(4) 0.2119(11)
O7 O 0.1349(5) 0.1171(4) -0.0830(10)
O8 O 0.3098(5) 0.0760(5) 0.2068(10)
O9 O -0.1091(6) 0.1645(5) 0.1642(12)
O10 O 0.0323(5) 0.3282(5) 0.2567(11)
C1 C 0.3936(6) 0.0794(5) 0.2384(12)
O11 O 0.2080(5) 0.1080(5) 0.5409(10)
O12 O 0.3848(7) 0.3510(5) 0.2842(13)
C2 C 0.4321(9) 0.0186(7) 0.1620(19)
H1 H 0.4965 0.0292 0.1987
H2 H 0.4002 0.0207 0.0352
H3 H 0.4249 -0.0337 0.2021
O13 O 0.1568(5) 0.0053(4) 0.2189(10)
C3 C 0.2386(11) 0.3672(8) 0.034(2)
H4 H 0.1847 0.3347 -0.0280
H5 H 0.2639 0.3826 -0.0465
H6 H 0.2219 0.4144 0.0787
C4 C 0.1158(7) 0.3220(6) 0.3658(13)
C5 C 0.3249(9) 0.1646(9) 0.8107(14)
H7 H 0.3829 0.1911 0.8421
H8 H 0.3346 0.1167 0.8800
H9 H 0.2840 0.1998 0.8333
C6 C 0.2825(7) 0.1429(5) 0.6160(13)
C7 C 0.0892(7) 0.1800(6) -0.1409(12)
C8 C -0.0424(7) 0.1192(6) 0.2109(14)
C9 C 0.3096(7) 0.3197(6) 0.1853(14)
C10 C 0.0447(10) 0.1993(9) -0.3378(15)
H10 H 0.0135 0.2500 -0.3571
H11 H 0.0011 0.1580 -0.4008
H12 H 0.0915 0.2019 -0.3797
C11 C -0.0383(9) 0.0389(7) 0.2932(19)
H13 H 0.0202 0.0142 0.3198
H14 H -0.0454 0.0453 0.4004
H15 H -0.0871 0.0055 0.2124
C12 C 0.1529(8) 0.3916(6) 0.4966(16)
H16 H 0.2166 0.3822 0.5745
H17 H 0.1472 0.4408 0.4328
H18 H 0.1181 0.3957 0.5646
Eu2C Eu -0.05878(3) 0.25829(3) 0.00023(4)
O2C O 0.5286(6) 0.3595(4) 0.6844(11)
O3C O 0.5783(6) 0.2703(4) 0.4646(10)
O9C O 0.3909(6) 0.3355(5) 0.6642(12)
O10C O 0.5323(5) 0.1718(5) 0.7567(11)
O14 O 0.6917(8) 0.1435(6) 0.7483(16)
O15 O 0.4410(8) -0.0499(6) -0.0069(16)
loop_
_geom_bond_atom_site_label_1
_geom_bond_atom_site_label_2
_geom_bond_site_symmetry_1
_geom_bond_site_symmetry_2
Eu1 O1 1_555 1_555
Eu2 O1 1_555 1_555
O1 C6 1_555 1_555
O2 Eu1 1_555 1_555
O3 Eu1 1_555 1_555
O4 Eu1 1_555 1_555
O5 Eu2 1_555 1_555
O6 Eu1 1_555 1_555
O7 Eu1 1_555 1_555
O8 Eu1 1_555 1_555
O9 C8 1_555 1_555
O10 C4 1_555 1_555
C1 O5 1_555 1_555
O11 Eu1 1_555 1_555
O12 Eu2 1_555 1_555
C2 C1 1_555 1_555
H1 C2 1_555 1_555
H2 C2 1_555 1_555
H3 C2 1_555 1_555
O13 Eu1 1_555 1_555
C3 H4 1_555 1_555
H5 C3 1_555 1_555
H6 C3 1_555 1_555
C4 O4 1_555 1_555
C5 H7 1_555 1_555
H8 C5 1_555 1_555
H9 C5 1_555 1_555
C6 O11 1_555 1_555
C7 O3 1_555 1_555
C8 O2 1_555 1_555
C9 O6 1_555 1_555
C10 C7 1_555 1_555
H10 C10 1_555 1_555
H11 C10 1_555 1_555
H12 C10 1_555 1_555
C11 C8 1_555 1_555
H13 C11 1_555 1_555
H14 C11 1_555 1_555
H15 C11 1_555 1_555
C12 C4 1_555 1_555
H16 C12 1_555 1_555
H17 C12 1_555 1_555
H18 C12 1_555 1_555
Eu2C O2 1_555 1_555
O2C Eu2 1_555 1_555
O3C Eu2 1_555 1_555
O9C Eu2 1_555 1_555
O10C Eu2 1_555 1_555
Eu2 O6 1_555 1_555
O3 Eu2C 1_555 1_555
O7 C7 1_555 1_555
O8 C1 1_555 1_555
O9 Eu2C 1_555 1_555
O10 Eu2C 1_555 1_555
O12 C9 1_555 1_555
C3 C9 1_555 1_555
C5 C6 1_555 1_555

#END
