
#######################################################################
#
#                 Cambridge Crystallographic Data Centre
#                                CCDC 
#
#######################################################################
#
# If this CIF has been generated from an entry in the Cambridge 
# Structural Database, then it will include bibliographic, chemical, 
# crystal, experimental, refinement or atomic coordinate data resulting 
# from the CCDC's data processing and validation procedures.
#
#######################################################################

data_YEQWEX
_symmetry_cell_setting           monoclinic
_symmetry_space_group_name_H-M   'C 2/c'
_symmetry_Int_Tables_number      15
_space_group_name_Hall           '-C 2yn'
loop_
_symmetry_equiv_pos_site_id
_symmetry_equiv_pos_as_xyz
1 x,y,z
2 1/2+x,1/2+y,z
3 -x,y,1/2-z
4 1/2-x,1/2+y,1/2-z
5 -x,-y,-z
6 1/2-x,1/2-y,-z
7 x,-y,1/2+z
8 1/2+x,1/2-y,1/2+z
_cell_length_a                   11.260(3)
_cell_length_b                   29.005(6)
_cell_length_c                   7.991(2)
_cell_angle_alpha                90
_cell_angle_beta                 132.03(2)
_cell_angle_gamma                90
_cell_volume                     1938.57
loop_
_atom_site_label
_atom_site_type_symbol
_atom_site_fract_x
_atom_site_fract_y
_atom_site_fract_z
Eu1 Eu 0.0000 0.128562(18) 0.2500
Eu2 Eu 0.0000 0.12247(2) 0.7500
O1 O 0.1986(10) 0.0666(2) 0.4565(14)
O2 O 0.0842(8) 0.08151(19) 0.5867(11)
C1 C 0.1845(11) 0.0586(2) 0.5956(15)
C2 C 0.2793(19) 0.0205(4) 0.764(2)
H1 H 0.2550 0.0190 0.8585
H2 H 0.3914 0.0264 0.8553
H3 H 0.2521 -0.0083 0.6864
O3 O 0.1641(8) 0.1818(2) 0.5278(11)
O4 O 0.1563(8) 0.1817(2) 0.7958(11)
C3 C 0.2023(12) 0.1980(3) 0.7050(16)
C4 C 0.3069(17) 0.2401(4) 0.805(2)
H4 H 0.3330 0.2486 0.7171
H5 H 0.4034 0.2335 0.9569
H6 H 0.2513 0.2650 0.8061
O5 O 0.1631(7) 0.14355(18) 0.1635(10)
O6 O 0.2662(7) 0.0956(2) 0.0807(11)
C5 C 0.2818(9) 0.1206(3) 0.2193(13)
C6 C 0.4451(12) 0.1264(5) 0.458(2)
H7 H 0.4348 0.1470 0.5422
H8 H 0.5201 0.1390 0.4504
H9 H 0.4825 0.0970 0.5320
Eu2_2 Eu 0.0000 0.12247(2) -0.2500
O1B O -0.1986(10) 0.0666(2) 0.0435(14)
O2B O -0.0842(8) 0.08151(19) -0.0867(11)
O2B_2 O -0.0842(8) 0.08151(19) 0.9133(11)
C1B C -0.1845(11) 0.0586(2) -0.0956(15)
C2B C -0.2793(19) 0.0205(4) -0.264(2)
H1B H -0.2550 0.0190 -0.3585
H2B H -0.3914 0.0264 -0.3553
H3B H -0.2521 -0.0083 -0.1864
O3B O -0.1641(8) 0.1818(2) -0.0278(11)
O4B O -0.1563(8) 0.1817(2) -0.2958(11)
O4B_2 O -0.1563(8) 0.1817(2) 0.7042(11)
C3B C -0.2023(12) 0.1980(3) -0.2050(16)
C4B C -0.3069(17) 0.2401(4) -0.305(2)
H4B H -0.3330 0.2486 -0.2171
H5B H -0.4034 0.2335 -0.4569
H6B H -0.2513 0.2650 -0.3061
O5B O -0.1631(7) 0.14355(18) 0.3365(10)
O5_2 O 0.1631(7) 0.14355(18) 1.1635(10)
O6B O -0.2662(7) 0.0956(2) 0.4193(11)
O6_2 O 0.2662(7) 0.0956(2) 1.0807(11)
C5B C -0.2818(9) 0.1206(3) 0.2807(13)
C6B C -0.4451(12) 0.1264(5) 0.042(2)
H7B H -0.4348 0.1470 -0.0422
H8B H -0.5201 0.1390 0.0496
H9B H -0.4825 0.0970 -0.0320
loop_
_geom_bond_atom_site_label_1
_geom_bond_atom_site_label_2
_geom_bond_site_symmetry_1
_geom_bond_site_symmetry_2
Eu1 O1 1_555 1_555
Eu2 O2 1_555 1_555
O1 C1 1_555 1_555
O2 Eu1 1_555 1_555
C1 O2 1_555 1_555
C2 C1 1_555 1_555
H1 C2 1_555 1_555
H2 C2 1_555 1_555
H3 C2 1_555 1_555
O3 Eu1 1_555 1_555
O4 Eu2 1_555 1_555
C3 O3 1_555 1_555
C4 C3 1_555 1_555
H4 C4 1_555 1_555
H5 C4 1_555 1_555
H6 C4 1_555 1_555
O5 Eu1 1_555 1_555
O6 C5 1_555 1_555
C5 O5 1_555 1_555
C6 C5 1_555 1_555
H7 C6 1_555 1_555
H8 C6 1_555 1_555
H9 C6 1_555 1_555
Eu2_2 O5 1_555 1_555
O1B Eu1 1_555 1_555
O2B Eu1 1_555 1_555
O2B_2 Eu2 1_555 1_555
C1B O1B 1_555 1_555
C2B C1B 1_555 1_555
H1B C2B 1_555 1_555
H2B C2B 1_555 1_555
H3B C2B 1_555 1_555
O3B Eu1 1_555 1_555
O4B Eu2_2 1_555 1_555
O4B_2 Eu2 1_555 1_555
C3B O3B 1_555 1_555
C4B C3B 1_555 1_555
H4B C4B 1_555 1_555
H5B C4B 1_555 1_555
H6B C4B 1_555 1_555
O5B Eu1 1_555 1_555
O5_2 Eu2 1_555 1_555
O6B Eu2 1_555 1_555
O6_2 Eu2 1_555 1_555
C5B O5B 1_555 1_555
C6B C5B 1_555 1_555
H7B C6B 1_555 1_555
H8B C6B 1_555 1_555
H9B C6B 1_555 1_555
Eu2 O5B 1_555 1_555
O4 C3 1_555 1_555
O6 Eu2_2 1_555 1_555
Eu2_2 O2B 1_555 1_555
O2B C1B 1_555 1_555
O4B C3B 1_555 1_555
O6B C5B 1_555 1_555

#END
