
#######################################################################
#
#                 Cambridge Crystallographic Data Centre
#                                CCDC 
#
#######################################################################
#
# If this CIF has been generated from an entry in the Cambridge 
# Structural Database, then it will include bibliographic, chemical, 
# crystal, experimental, refinement or atomic coordinate data resulting 
# from the CCDC's data processing and validation procedures.
#
#######################################################################

data_YERJIP
_symmetry_cell_setting           triclinic
_symmetry_space_group_name_H-M   'P -1'
_symmetry_Int_Tables_number      2
_space_group_name_Hall           '-P 1'
loop_
_symmetry_equiv_pos_site_id
_symmetry_equiv_pos_as_xyz
1 x,y,z
2 -x,-y,-z
_cell_length_a                   11.292(3)
_cell_length_b                   12.339(3)
_cell_length_c                   14.413(3)
_cell_angle_alpha                94.857(4)
_cell_angle_beta                 109.711(4)
_cell_angle_gamma                108.016(4)
_cell_volume                     1757.32
loop_
_atom_site_label
_atom_site_type_symbol
_atom_site_fract_x
_atom_site_fract_y
_atom_site_fract_z
Zn1 Zn 0.07741(3) 0.65245(3) 0.07337(2)
Zn2 Zn -0.17492(4) 0.98641(3) 0.88943(2)
O1 O 0.0333(2) 0.48425(18) 0.10250(14)
O2 O -0.03722(18) 0.29392(17) 0.06398(13)
O3 O 0.1546(2) 0.73176(18) 0.22276(14)
O4 O -0.0076(3) 1.0231(2) 0.86538(18)
O5 O 0.2257(2) 0.88906(18) 0.16774(14)
O6 O 0.1633(3) 0.9885(2) 0.97314(16)
O7 O 0.7209(3) 0.8274(2) 0.81408(17)
O8 O 0.5580(3) 0.8674(2) 0.8451(2)
C1 C 0.5974(4) 0.8035(3) 0.8033(3)
C2 C 0.4989(5) 0.6884(4) 0.7357(3)
C3 C 0.5397(6) 0.6149(4) 0.6880(3)
H1 H 0.6305 0.6339 0.6992
C4 C 0.4433(8) 0.5102(4) 0.6217(3)
H2 H 0.4699 0.4604 0.5881
C5 C 0.3112(9) 0.4822(5) 0.6072(4)
C6 C 0.2698(6) 0.5526(6) 0.6561(4)
H3 H 0.1792 0.5316 0.6461
C7 C 0.3643(5) 0.6568(4) 0.7216(3)
H4 H 0.3367 0.7051 0.7559
C8 C 0.1694(5) 0.3865(4) 0.4403(3)
C9 C 0.1855(4) 0.4905(3) 0.4098(2)
H5 H 0.2305 0.5606 0.4570
C10 C 0.1343(3) 0.4899(3) 0.3084(2)
H6 H 0.1444 0.5603 0.2875
C11 C 0.0684(3) 0.3869(3) 0.2374(2)
C12 C 0.0524(4) 0.2833(3) 0.2692(3)
H7 H 0.0072 0.2132 0.2220
C13 C 0.1029(5) 0.2822(4) 0.3712(3)
H8 H 0.0919 0.2120 0.3924
C14 C 0.0176(3) 0.3884(3) 0.1282(2)
C15 C 0.2090(3) 0.8399(3) 0.23811(19)
C16 C 0.2549(3) 0.9087(3) 0.3424(2)
C17 C 0.2052(4) 0.8584(3) 0.4096(2)
H9 H 0.1444 0.7819 0.3899
C18 C 0.2450(4) 0.9205(3) 0.5067(2)
H10 H 0.2106 0.8863 0.5517
C19 C 0.3358(4) 1.0333(3) 0.5355(2)
C20 C 0.3877(4) 1.0836(3) 0.4697(2)
H11 H 0.4500 1.1595 0.4899
C21 C 0.3470(3) 1.0213(3) 0.3734(2)
H12 H 0.3822 1.0557 0.3288
C22 C 0.3104(4) 1.0695(3) 0.6917(2)
C23 C 0.3645(4) 1.0321(3) 0.7767(3)
H13 H 0.4458 1.0205 0.7914
C24 C 0.2958(3) 1.0117(3) 0.8408(2)
H14 H 0.3320 0.9865 0.8993
C25 C 0.1747(3) 1.0281(3) 0.8195(2)
C26 C 0.1211(4) 1.0635(3) 0.7320(2)
H15 H 0.0381 1.0726 0.7153
C27 C 0.1909(4) 1.0856(4) 0.6686(2)
H16 H 0.1559 1.1115 0.6102
C28 C 0.1044(4) 1.0111(3) 0.8918(2)
N1 N -0.1129(2) 0.6491(2) 0.06951(17)
C29 C -0.1625(4) 0.6010(4) 0.1339(3)
H17 H -0.1143 0.5643 0.1774
C30 C -0.2801(4) 0.6024(4) 0.1398(3)
H18 H -0.3102 0.5664 0.1859
C31 C -0.3549(3) 0.6569(2) 0.07780(19)
C32 C -0.3014(3) 0.7078(3) 0.0124(2)
H19 H -0.3461 0.7470 -0.0307
C33 C -0.1832(3) 0.7015(3) 0.0101(2)
H20 H -0.1511 0.7360 -0.0358
C34 C -0.4832(3) 0.6605(2) 0.08012(19)
C35 C -0.5423(3) 0.6029(3) 0.1403(2)
H21 H -0.4995 0.5623 0.1828
C36 C -0.6636(3) 0.6054(3) 0.1376(3)
H22 H -0.7003 0.5660 0.1794
C37 C -0.6741(3) 0.7193(3) 0.0233(3)
H23 H -0.7182 0.7613 -0.0166
C38 C -0.5533(3) 0.7215(3) 0.0214(3)
H24 H -0.5177 0.7641 -0.0194
N2 N -0.7319(2) 0.6604(2) 0.07903(16)
O9 O 0.3854(3) 1.0990(2) 0.63185(18)
O10 O 0.2180(5) 0.3792(3) 0.5406(2)
Zn1A Zn -0.07741(3) 0.34755(3) -0.07337(2)
Zn1_2 Zn -0.92259(3) 0.65245(3) 0.07337(2)
Zn2A Zn 0.17492(4) 1.01359(3) 0.11057(2)
Zn2A_2 Zn 0.17492(4) 1.01359(3) 1.11057(2)
Zn2_2 Zn 0.82508(4) 0.98641(3) 0.88943(2)
O2A O 0.03722(18) 0.70608(17) -0.06398(13)
O5A O -0.2257(2) 1.11094(18) 0.83226(14)
O6A O -0.1633(3) 1.0115(2) 1.02686(16)
O7_2 O -0.2791(3) 0.8274(2) 0.81408(17)
N2_2 N 0.2681(2) 0.6604(2) 0.07903(16)
loop_
_geom_bond_atom_site_label_1
_geom_bond_atom_site_label_2
_geom_bond_site_symmetry_1
_geom_bond_site_symmetry_2
Zn1 O1 1_555 1_555
Zn2 O4 1_555 1_555
O1 C14 1_555 1_555
O2 C14 1_555 1_555
O3 Zn1 1_555 1_555
O4 C28 1_555 1_555
O5 C15 1_555 1_555
O6 C28 1_555 1_555
O7 C1 1_555 1_555
O8 C1 1_555 1_555
C1 C2 1_555 1_555
C2 C3 1_555 1_555
C3 H1 1_555 1_555
C4 C3 1_555 1_555
H2 C4 1_555 1_555
C5 C4 1_555 1_555
C6 C5 1_555 1_555
H3 C6 1_555 1_555
C7 C2 1_555 1_555
H4 C7 1_555 1_555
C8 C9 1_555 1_555
C9 H5 1_555 1_555
C10 C9 1_555 1_555
H6 C10 1_555 1_555
C11 C10 1_555 1_555
C12 C11 1_555 1_555
H7 C12 1_555 1_555
C13 C8 1_555 1_555
H8 C13 1_555 1_555
C14 C11 1_555 1_555
C15 O3 1_555 1_555
C16 C15 1_555 1_555
C17 C16 1_555 1_555
H9 C17 1_555 1_555
C18 C17 1_555 1_555
H10 C18 1_555 1_555
C19 C18 1_555 1_555
C20 C19 1_555 1_555
H11 C20 1_555 1_555
C21 C16 1_555 1_555
H12 C21 1_555 1_555
C22 C23 1_555 1_555
C23 H13 1_555 1_555
C24 C23 1_555 1_555
H14 C24 1_555 1_555
C25 C24 1_555 1_555
C26 C25 1_555 1_555
H15 C26 1_555 1_555
C27 C22 1_555 1_555
H16 C27 1_555 1_555
C28 C25 1_555 1_555
N1 Zn1 1_555 1_555
C29 N1 1_555 1_555
H17 C29 1_555 1_555
C30 C29 1_555 1_555
H18 C30 1_555 1_555
C31 C30 1_555 1_555
C32 C31 1_555 1_555
H19 C32 1_555 1_555
C33 N1 1_555 1_555
H20 C33 1_555 1_555
C34 C31 1_555 1_555
C35 C34 1_555 1_555
H21 C35 1_555 1_555
C36 C35 1_555 1_555
H22 C36 1_555 1_555
C37 H23 1_555 1_555
C38 C34 1_555 1_555
H24 C38 1_555 1_555
N2 C36 1_555 1_555
O9 C19 1_555 1_555
O10 C5 1_555 1_555
Zn1A O2 1_555 1_555
Zn1_2 N2 1_555 1_555
Zn2A O5 1_555 1_555
Zn2A_2 O6 1_555 1_555
Zn2_2 O7 1_555 1_555
O2A Zn1 1_555 1_555
O5A Zn2 1_555 1_555
O6A Zn2 1_555 1_555
O7_2 Zn2 1_555 1_555
N2_2 Zn1 1_555 1_555
C6 C7 1_555 1_555
C8 O10 1_555 1_555
C12 C13 1_555 1_555
C20 C21 1_555 1_555
C22 O9 1_555 1_555
C26 C27 1_555 1_555
C32 C33 1_555 1_555
C37 C38 1_555 1_555
C37 N2 1_555 1_555

#END
