
#######################################################################
#
#                 Cambridge Crystallographic Data Centre
#                                CCDC 
#
#######################################################################
#
# If this CIF has been generated from an entry in the Cambridge 
# Structural Database, then it will include bibliographic, chemical, 
# crystal, experimental, refinement or atomic coordinate data resulting 
# from the CCDC's data processing and validation procedures.
#
#######################################################################

data_YERJUB
_symmetry_cell_setting           monoclinic
_symmetry_space_group_name_H-M   'P 21/c'
_symmetry_Int_Tables_number      14
_space_group_name_Hall           '-P 2ybc'
loop_
_symmetry_equiv_pos_site_id
_symmetry_equiv_pos_as_xyz
1 x,y,z
2 -x,1/2+y,1/2-z
3 -x,-y,-z
4 x,1/2-y,1/2+z
_cell_length_a                   8.881(3)
_cell_length_b                   23.043(7)
_cell_length_c                   17.245(5)
_cell_angle_alpha                90
_cell_angle_beta                 106.862(4)
_cell_angle_gamma                90
_cell_volume                     3377.37
loop_
_atom_site_label
_atom_site_type_symbol
_atom_site_fract_x
_atom_site_fract_y
_atom_site_fract_z
Pr1 Pr -0.50710(2) 0.276880(10) -0.417330(10)
Br1 Br 0.31453(4) 0.486780(10) -0.22498(2)
Br2 Br -1.37510(4) 0.055340(10) -0.54928(2)
O1 O -0.6444(3) 0.35549(11) -0.5275(2)
O2 O -0.4728(2) 0.30349(9) -0.55985(13)
O3 O -0.5831(3) 0.37421(12) -0.6388(2)
O4 O -0.2250(2) 0.27909(9) -0.43435(13)
O5 O -0.3398(2) 0.19559(9) -0.4474(1)
O6 O -0.1105(3) 0.20452(11) -0.4678(2)
O7 O -0.7961(2) 0.29851(10) -0.42709(13)
O8 O -0.6294(3) 0.32491(10) -0.3147(1)
O9 O -0.8749(3) 0.35281(11) -0.3434(2)
N1 N -0.3753(3) 0.38071(11) -0.3858(2)
N2 N -0.2942(3) 0.46289(10) -0.4275(2)
N3 N 0.1641(3) 0.71324(10) -0.3365(2)
N4 N 0.2900(3) 0.75806(11) -0.2225(2)
N5 N -0.6082(3) 0.18604(10) -0.3525(2)
N6 N -0.7621(3) 0.12093(10) -0.3185(2)
N7 N -1.1299(3) -0.14965(10) -0.4034(2)
N8 N -1.3124(3) -0.21273(10) -0.4657(2)
N9 N -0.5694(3) 0.34524(12) -0.5774(2)
N10 N -0.2223(3) 0.22590(11) -0.4508(2)
N11 N -0.7708(3) 0.32610(11) -0.3611(2)
C1 C -0.2917(4) 0.40455(13) -0.4303(2)
C2 C -0.4324(4) 0.4272(1) -0.3523(2)
C3 C -0.3830(4) 0.47784(13) -0.3773(2)
C4 C -0.2189(4) 0.50246(13) -0.4712(2)
C5 C -0.0696(3) 0.52989(12) -0.4188(2)
C6 C -0.0340(3) 0.58658(12) -0.4351(2)
C7 C 0.1033(3) 0.61391(12) -0.3896(2)
C8 C 0.2076(3) 0.58364(12) -0.3270(2)
C9 C 0.1716(3) 0.52710(12) -0.3117(2)
C10 C 0.0351(3) 0.49969(12) -0.3562(2)
C11 C 0.1364(4) 0.67606(12) -0.4080(2)
C12 C 0.3049(3) 0.72629(12) -0.2838(2)
C13 C 0.0500(4) 0.73843(13) -0.3076(2)
C14 C 0.1292(4) 0.76634(13) -0.2385(2)
C15 C -0.7357(3) 0.17770(12) -0.3282(2)
C16 C -0.5498(4) 0.13106(13) -0.3578(2)
C17 C -0.6432(4) 0.09076(13) -0.3366(2)
C18 C -0.8886(4) 0.09560(13) -0.2900(2)
C19 C -0.9839(3) 0.05112(12) -0.3488(2)
C20 C -0.9467(3) -0.00758(12) -0.3411(2)
C21 C -1.0347(3) -0.04808(13) -0.3955(2)
C22 C -1.1624(4) -0.02964(12) -0.4584(2)
C23 C -1.1987(3) 0.02860(13) -0.4650(2)
C24 C -1.1117(4) 0.06950(13) -0.4114(2)
C25 C -0.9908(3) -0.11208(12) -0.3864(2)
C26 C -1.1816(3) -0.18565(12) -0.4670(2)
C27 C -1.2334(4) -0.15400(13) -0.3575(2)
C28 C -1.3447(4) -0.19252(13) -0.3970(2)
H1 H -0.2374(4) 0.38283(13) -0.4606(2)
H2 H -0.4969(4) 0.4241(1) -0.3172(2)
H3 H -0.4049(4) 0.51603(13) -0.3628(2)
H4 H -0.1943(4) 0.48133(13) -0.5132(2)
H5 H -0.2913(4) 0.53251(13) -0.4942(2)
H6 H -0.1049(3) 0.60712(12) -0.4783(2)
H7 H 0.3020(3) 0.60137(12) -0.2954(2)
H8 H 0.0126(3) 0.46101(12) -0.3440(2)
H9 H 0.0487(4) 0.69069(12) -0.4491(2)
H10 H 0.2271(4) 0.67682(12) -0.4267(2)
H11 H 0.4030(3) 0.71420(12) -0.2900(2)
H12 H -0.0607(4) 0.73658(13) -0.3313(2)
H13 H 0.0814(4) 0.78850(13) -0.2056(2)
H14 H -0.8004(3) 0.20807(12) -0.3186(2)
H15 H -0.4578(4) 0.12267(13) -0.3733(2)
H16 H -0.6301(4) 0.04982(13) -0.3352(2)
H17 H -0.8430(4) 0.07740(13) -0.2392(2)
H18 H -0.9569(4) 0.12579(13) -0.2837(2)
H19 H -0.8594(3) -0.02024(12) -0.2981(2)
H20 H -1.2230(4) -0.05667(12) -0.4964(2)
H21 H -1.1390(4) 0.10945(13) -0.4174(2)
H22 H -0.9276(3) -0.11893(12) -0.3324(2)
H23 H -0.9326(3) -0.12135(12) -0.4230(2)
H24 H -1.1308(3) -0.19096(12) -0.5080(2)
H25 H -1.2282(4) -0.13388(13) -0.3087(2)
H26 H -1.4320(4) -0.20440(13) -0.3795(2)
Pr1A Pr 0.50710(2) 0.776880(10) -0.082670(10)
Pr1B Pr -1.49290(2) -0.276880(10) -0.582670(10)
N4A N -0.2900(3) 0.25806(11) -0.2775(2)
N8B N -0.6876(3) 0.21273(10) -0.5343(2)
loop_
_geom_bond_atom_site_label_1
_geom_bond_atom_site_label_2
_geom_bond_site_symmetry_1
_geom_bond_site_symmetry_2
Pr1 O1 1_555 1_555
Br1 C9 1_555 1_555
Br2 C23 1_555 1_555
O1 N9 1_555 1_555
O2 Pr1 1_555 1_555
O3 N9 1_555 1_555
O4 Pr1 1_555 1_555
O5 Pr1 1_555 1_555
O6 N10 1_555 1_555
O7 Pr1 1_555 1_555
O8 Pr1 1_555 1_555
O9 N11 1_555 1_555
N1 Pr1 1_555 1_555
N2 C1 1_555 1_555
N3 C11 1_555 1_555
N4 C12 1_555 1_555
N5 Pr1 1_555 1_555
N6 C15 1_555 1_555
N7 C25 1_555 1_555
N8 C26 1_555 1_555
N9 O2 1_555 1_555
N10 O4 1_555 1_555
N11 O7 1_555 1_555
C1 N1 1_555 1_555
C2 N1 1_555 1_555
C3 N2 1_555 1_555
C4 N2 1_555 1_555
C5 C4 1_555 1_555
C6 C5 1_555 1_555
C7 C6 1_555 1_555
C8 C7 1_555 1_555
C9 C8 1_555 1_555
C10 C5 1_555 1_555
C11 C7 1_555 1_555
C12 N3 1_555 1_555
C13 N3 1_555 1_555
C14 N4 1_555 1_555
C15 N5 1_555 1_555
C16 N5 1_555 1_555
C17 N6 1_555 1_555
C18 N6 1_555 1_555
C19 C18 1_555 1_555
C20 C19 1_555 1_555
C21 C20 1_555 1_555
C22 C21 1_555 1_555
C23 C22 1_555 1_555
C24 C19 1_555 1_555
C25 C21 1_555 1_555
C26 N7 1_555 1_555
C27 N7 1_555 1_555
C28 N8 1_555 1_555
H1 C1 1_555 1_555
H2 C2 1_555 1_555
H3 C3 1_555 1_555
H4 C4 1_555 1_555
H5 C4 1_555 1_555
H6 C6 1_555 1_555
H7 C8 1_555 1_555
H8 C10 1_555 1_555
H9 C11 1_555 1_555
H10 C11 1_555 1_555
H11 C12 1_555 1_555
H12 C13 1_555 1_555
H13 C14 1_555 1_555
H14 C15 1_555 1_555
H15 C16 1_555 1_555
H16 C17 1_555 1_555
H17 C18 1_555 1_555
H18 C18 1_555 1_555
H19 C20 1_555 1_555
H20 C22 1_555 1_555
H21 C24 1_555 1_555
H22 C25 1_555 1_555
H23 C25 1_555 1_555
H24 C26 1_555 1_555
H25 C27 1_555 1_555
H26 C28 1_555 1_555
Pr1A N4 1_555 1_555
Pr1B N8 1_555 1_555
N4A Pr1 1_555 1_555
N8B Pr1 1_555 1_555
O5 N10 1_555 1_555
O8 N11 1_555 1_555
C2 C3 1_555 1_555
C9 C10 1_555 1_555
C13 C14 1_555 1_555
C16 C17 1_555 1_555
C23 C24 1_555 1_555
C27 C28 1_555 1_555

#END
