
#######################################################################
#
#                 Cambridge Crystallographic Data Centre
#                                CCDC 
#
#######################################################################
#
# If this CIF has been generated from an entry in the Cambridge 
# Structural Database, then it will include bibliographic, chemical, 
# crystal, experimental, refinement or atomic coordinate data resulting 
# from the CCDC's data processing and validation procedures.
#
#######################################################################

data_YERZIF
_symmetry_cell_setting           monoclinic
_symmetry_space_group_name_H-M   'C c'
_symmetry_Int_Tables_number      9
_space_group_name_Hall           'C -2yc'
loop_
_symmetry_equiv_pos_site_id
_symmetry_equiv_pos_as_xyz
1 x,y,z
2 x,-y,1/2+z
3 1/2+x,1/2+y,z
4 1/2+x,1/2-y,1/2+z
_cell_length_a                   12.5470(6)
_cell_length_b                   12.0008(5)
_cell_length_c                   11.2363(4)
_cell_angle_alpha                90
_cell_angle_beta                 93.4520(10)
_cell_angle_gamma                90
_cell_volume                     1688.83
loop_
_atom_site_label
_atom_site_type_symbol
_atom_site_fract_x
_atom_site_fract_y
_atom_site_fract_z
Sn1 Sn 0.500000(10) 0.54910(10) 0.50000(10)
Cl1 Cl 0.63719(8) 0.83252(7) 0.76804(9)
Cl2 Cl 0.47680(10) 0.78285(9) 0.93510(10)
O1 O 0.5139(2) 0.6584(2) 0.6575(2)
O2 O 0.4973(2) 0.5468(2) 0.8140(3)
C1 C 0.5031(3) 0.6958(3) 0.3945(3)
C2 C 0.4234(2) 0.7143(3) 0.3054(3)
C3 C 0.4227(3) 0.8114(3) 0.2367(3)
C4 C 0.5032(3) 0.8884(3) 0.2546(3)
C5 C 0.5839(3) 0.8712(3) 0.3432(4)
C6 C 0.5831(3) 0.7749(3) 0.4135(3)
C7 C 0.6505(3) 0.4764(3) 0.5462(3)
C8 C 0.6645(3) 0.4000(3) 0.6397(3)
C9 C 0.7644(3) 0.3516(3) 0.6661(3)
C10 C 0.8496(3) 0.3788(3) 0.5993(3)
C11 C 0.8367(3) 0.4545(3) 0.5063(4)
C12 C 0.7376(3) 0.5031(3) 0.4805(3)
C13 C 0.3492(3) 0.4753(3) 0.5280(4)
C14 C 0.2719(3) 0.5498(3) 0.5892(5)
C15 C 0.5245(2) 0.6352(2) 0.7665(3)
C16 C 0.5757(3) 0.7258(3) 0.8480(3)
H1 H 0.3688 0.6603 0.2910
H2 H 0.3665 0.8241 0.1777
H3 H 0.5037 0.9534 0.2064
H4 H 0.6393 0.9246 0.3559
H5 H 0.6376 0.7636 0.4747
H6 H 0.6059 0.3810 0.6855
H7 H 0.7738 0.2999 0.7299
H8 H 0.9174 0.3455 0.6172
H9 H 0.8954 0.4730 0.4605
H10 H 0.7291 0.5553 0.4171
H11 H 0.3157 0.4523 0.4499
H12 H 0.3612 0.4071 0.5766
H13 H 0.2048 0.5096 0.5982
H14 H 0.2578 0.6169 0.5411
H15 H 0.3030 0.5711 0.6681
H16 H 0.6313 0.6899 0.9028
Sn1A Sn 0.500000(10) 0.45090(10) 1.00000(10)
O2A O 0.4973(2) 0.4532(2) 0.3140(3)
loop_
_geom_bond_atom_site_label_1
_geom_bond_atom_site_label_2
_geom_bond_site_symmetry_1
_geom_bond_site_symmetry_2
Sn1 O1 1_555 1_555
Cl1 C16 1_555 1_555
Cl2 C16 1_555 1_555
O1 C15 1_555 1_555
O2 C15 1_555 1_555
C1 Sn1 1_555 1_555
C2 C1 1_555 1_555
C3 C2 1_555 1_555
C4 C3 1_555 1_555
C5 C4 1_555 1_555
C6 C1 1_555 1_555
C7 Sn1 1_555 1_555
C8 C7 1_555 1_555
C9 C8 1_555 1_555
C10 C9 1_555 1_555
C11 C10 1_555 1_555
C12 C7 1_555 1_555
C13 Sn1 1_555 1_555
C14 C13 1_555 1_555
C15 C16 1_555 1_555
C16 H16 1_555 1_555
H1 C2 1_555 1_555
H2 C3 1_555 1_555
H3 C4 1_555 1_555
H4 C5 1_555 1_555
H5 C6 1_555 1_555
H6 C8 1_555 1_555
H7 C9 1_555 1_555
H8 C10 1_555 1_555
H9 C11 1_555 1_555
H10 C12 1_555 1_555
H11 C13 1_555 1_555
H12 C13 1_555 1_555
H13 C14 1_555 1_555
H14 C14 1_555 1_555
H15 C14 1_555 1_555
Sn1A O2 1_555 1_555
O2A Sn1 1_555 1_555
C5 C6 1_555 1_555
C11 C12 1_555 1_555

#END
