
#######################################################################
#
#                 Cambridge Crystallographic Data Centre
#                                CCDC 
#
#######################################################################
#
# If this CIF has been generated from an entry in the Cambridge 
# Structural Database, then it will include bibliographic, chemical, 
# crystal, experimental, refinement or atomic coordinate data resulting 
# from the CCDC's data processing and validation procedures.
#
#######################################################################

data_YESFOS
_symmetry_cell_setting           monoclinic
_symmetry_space_group_name_H-M   'P 21/c'
_symmetry_Int_Tables_number      14
_space_group_name_Hall           '-P 2ybc'
loop_
_symmetry_equiv_pos_site_id
_symmetry_equiv_pos_as_xyz
1 x,y,z
2 -x,1/2+y,1/2-z
3 -x,-y,-z
4 x,1/2-y,1/2+z
_cell_length_a                   11.4746(16)
_cell_length_b                   12.5849(17)
_cell_length_c                   17.284(2)
_cell_angle_alpha                90
_cell_angle_beta                 96.647(2)
_cell_angle_gamma                90
_cell_volume                     2479.15
loop_
_atom_site_label
_atom_site_type_symbol
_atom_site_fract_x
_atom_site_fract_y
_atom_site_fract_z
Zn1 Zn 0.353507(18) 0.412335(18) 0.502509(12)
N1 N 0.18712(14) 0.33027(14) 0.48252(10)
N2 N 0.23449(13) 0.52951(13) 0.44713(10)
C1 C -0.10580(17) 0.41706(16) 0.39164(13)
H1 H -0.1826 0.3926 0.3825
C2 C 0.26227(18) 0.62698(17) 0.42781(13)
H2 H 0.3378 0.6516 0.4434
C3 C 0.09764(16) 0.38748(16) 0.44510(11)
C4 C 0.12296(16) 0.49587(15) 0.42615(11)
C5 C 0.03524(16) 0.56011(16) 0.38653(11)
C6 C -0.01499(16) 0.34514(16) 0.42357(11)
C7 C 0.16656(18) 0.22972(18) 0.49813(13)
H3 H 0.2261 0.1906 0.5260
C8 C -0.08236(16) 0.51871(16) 0.37470(12)
H4 H -0.1435 0.5631 0.3549
C9 C 0.18320(18) 0.69436(17) 0.38504(13)
H5 H 0.2077 0.7614 0.3710
C10 C -0.14390(17) 0.18039(17) 0.40776(13)
C11 C -0.09055(18) 0.6987(2) 0.25297(13)
H6 H -0.0883 0.6278 0.2380
C12 C -0.03249(17) 0.23567(17) 0.43622(12)
C13 C 0.06824(17) 0.66305(16) 0.36299(12)
C14 C -0.01400(17) 0.73557(17) 0.31617(12)
C15 C 0.06038(18) 0.17966(18) 0.47495(13)
H7 H 0.0516 0.1078 0.4855
C16 C -0.1960(2) 0.10966(19) 0.45495(15)
H8 H -0.1622 0.0984 0.5058
C17 C -0.19580(18) 0.19525(18) 0.33151(13)
H9 H -0.1624 0.2423 0.2989
C18 C -0.0156(2) 0.84260(19) 0.33404(14)
H10 H 0.0381 0.8692 0.3738
C19 C -0.2963(2) 0.1407(2) 0.30425(15)
H11 H -0.3298 0.1507 0.2532
C20 C -0.3474(2) 0.0715(2) 0.35192(18)
H12 H -0.4156 0.0354 0.3332
C21 C -0.0957(2) 0.9110(2) 0.29368(17)
H13 H -0.0968 0.9825 0.3072
C22 C -0.1694(2) 0.7677(2) 0.21271(14)
H14 H -0.2204 0.7427 0.1709
C23 C -0.1734(2) 0.8729(2) 0.23379(15)
H15 H -0.2286 0.9181 0.2075
C24 C -0.2971(2) 0.0559(2) 0.42753(17)
H16 H -0.3314 0.0092 0.4599
O2 O 0.44592(12) 0.29654(12) 0.55949(8)
C25 C 0.41517(17) 0.27640(16) 0.62722(12)
O3 O 0.33072(13) 0.31725(13) 0.65362(9)
C26 C 0.46991(17) 0.17730(16) 0.75216(11)
H19 H 0.4122 0.2157 0.7735
C27 C 0.57597(17) 0.13817(17) 0.64384(12)
H20 H 0.5896 0.1497 0.5925
C28 C 0.48935(16) 0.19547(15) 0.67518(11)
C29 C 0.51303(18) 0.07964(15) 0.87999(12)
C30 C 0.53602(17) 0.10219(15) 0.79749(12)
C31 C 0.62284(17) 0.04555(17) 0.76496(12)
H21 H 0.6677 -0.0046 0.7946
C32 C 0.64225(18) 0.06389(18) 0.68875(13)
H22 H 0.7004 0.0260 0.6674
O4 O 0.41708(13) 0.11162(13) 0.89993(8)
O5 O 0.59039(14) 0.03176(13) 0.92301(9)
Zn1C Zn 0.353507(18) 0.087665(18) 1.002509(12)
Zn1A Zn 0.646493(18) -0.087665(18) 0.997491(12)
O4C O 0.41708(13) 0.38838(13) 0.39993(8)
O5A O 0.40961(14) 0.53176(13) 0.57699(9)
O1 O 0.5926(4) 0.8727(3) 0.5575(2)
H17 H 0.5864 0.8160 0.5946
H18 H 0.5708 0.8200 0.5162
loop_
_geom_bond_atom_site_label_1
_geom_bond_atom_site_label_2
_geom_bond_site_symmetry_1
_geom_bond_site_symmetry_2
Zn1 N1 1_555 1_555
N1 C3 1_555 1_555
N2 Zn1 1_555 1_555
C1 H1 1_555 1_555
C2 N2 1_555 1_555
H2 C2 1_555 1_555
C3 C4 1_555 1_555
C4 N2 1_555 1_555
C5 C4 1_555 1_555
C6 C1 1_555 1_555
C7 N1 1_555 1_555
H3 C7 1_555 1_555
C8 C1 1_555 1_555
H4 C8 1_555 1_555
C9 C2 1_555 1_555
H5 C9 1_555 1_555
C10 C12 1_555 1_555
C11 H6 1_555 1_555
C12 C6 1_555 1_555
C13 C5 1_555 1_555
C14 C11 1_555 1_555
C15 C7 1_555 1_555
H7 C15 1_555 1_555
C16 C10 1_555 1_555
H8 C16 1_555 1_555
C17 C10 1_555 1_555
H9 C17 1_555 1_555
C18 C14 1_555 1_555
H10 C18 1_555 1_555
C19 C17 1_555 1_555
H11 C19 1_555 1_555
C20 C19 1_555 1_555
H12 C20 1_555 1_555
C21 C18 1_555 1_555
H13 C21 1_555 1_555
C22 C11 1_555 1_555
H14 C22 1_555 1_555
C23 C21 1_555 1_555
H15 C23 1_555 1_555
C24 C16 1_555 1_555
H16 C24 1_555 1_555
O1 H17 1_555 1_555
H18 O1 1_555 1_555
O2 Zn1 1_555 1_555
C25 O2 1_555 1_555
O3 C25 1_555 1_555
C26 H19 1_555 1_555
C27 H20 1_555 1_555
C28 C25 1_555 1_555
C29 C30 1_555 1_555
C30 C26 1_555 1_555
C31 C30 1_555 1_555
H21 C31 1_555 1_555
C32 C27 1_555 1_555
H22 C32 1_555 1_555
O4 C29 1_555 1_555
O5 C29 1_555 1_555
Zn1C O4 1_555 1_555
Zn1A O5 1_555 1_555
O4C Zn1 1_555 1_555
O5A Zn1 1_555 1_555
C3 C6 1_555 1_555
C5 C8 1_555 1_555
C9 C13 1_555 1_555
C12 C15 1_555 1_555
C13 C14 1_555 1_555
C20 C24 1_555 1_555
C22 C23 1_555 1_555
C26 C28 1_555 1_555
C27 C28 1_555 1_555
C31 C32 1_555 1_555

#END
