
#######################################################################
#
#                 Cambridge Crystallographic Data Centre
#                                CCDC 
#
#######################################################################
#
# If this CIF has been generated from an entry in the Cambridge 
# Structural Database, then it will include bibliographic, chemical, 
# crystal, experimental, refinement or atomic coordinate data resulting 
# from the CCDC's data processing and validation procedures.
#
#######################################################################

data_YESFUY
_symmetry_cell_setting           monoclinic
_symmetry_space_group_name_H-M   'P 21/c'
_symmetry_Int_Tables_number      14
_space_group_name_Hall           '-P 2ybc'
loop_
_symmetry_equiv_pos_site_id
_symmetry_equiv_pos_as_xyz
1 x,y,z
2 -x,1/2+y,1/2-z
3 -x,-y,-z
4 x,1/2-y,1/2+z
_cell_length_a                   11.366(10)
_cell_length_b                   14.914(14)
_cell_length_c                   15.534(10)
_cell_angle_alpha                90
_cell_angle_beta                 132.00(4)
_cell_angle_gamma                90
_cell_volume                     1956.85
loop_
_atom_site_label
_atom_site_type_symbol
_atom_site_fract_x
_atom_site_fract_y
_atom_site_fract_z
Zn1 Zn 0.72805(4) 0.25571(2) 0.85081(4)
N1 N 0.5323(3) 0.25568(16) 0.6576(2)
N2 N -0.0711(3) 0.25727(16) 0.0446(2)
O1 O 0.6097(2) 0.16796(14) 0.87118(18)
O2 O 0.8326(3) 0.14988(14) 0.83668(19)
O3 O 0.6279(2) 0.35952(14) 0.87192(19)
O4 O 0.8431(3) 0.34583(14) 0.83000(19)
C1 C 0.5634(5) 0.0379(3) 0.9295(4)
H1 H 0.6409 0.0311 1.0121
H2 H 0.5267 -0.0201 0.8937
H3 H 0.4758 0.0724 0.9079
C2 C 0.6372(4) 0.0857(2) 0.8896(3)
C3 C 0.7290(5) 0.0360(3) 0.8770(4)
H4 H 0.7348 -0.0254 0.8897
C4 C 0.8137(4) 0.0689(2) 0.8471(3)
C5 C 0.8910(5) 0.0018(3) 0.8245(4)
H5 H 0.8552 0.0124 0.7492
H6 H 0.8627 -0.0580 0.8277
H7 H 1.0039 0.0085 0.8823
C6 C 0.6092(5) 0.5017(3) 0.9271(4)
H8 H 0.4956 0.5000 0.8718
H9 H 0.6442 0.5619 0.9334
H10 H 0.6485 0.4821 1.0012
C7 C 0.6712(4) 0.4403(2) 0.8876(3)
C8 C 0.7686(5) 0.4755(2) 0.8707(4)
H11 H 0.7862 0.5370 0.8813
C9 C 0.8426(4) 0.4292(2) 0.8397(3)
C10 C 0.9292(5) 0.4828(3) 0.8139(4)
H12 H 1.0259 0.4527 0.8463
H13 H 0.9530 0.5415 0.8475
H14 H 0.8636 0.4882 0.7316
C11 C 0.3884(4) 0.2891(2) 0.6035(3)
H15 H 0.3685 0.3124 0.6483
C12 C 0.2686(4) 0.2907(2) 0.4851(3)
H16 H 0.1698 0.3136 0.4515
C13 C 0.2950(3) 0.25799(19) 0.4151(3)
C14 C 0.4455(4) 0.2241(2) 0.4712(3)
H17 H 0.4698 0.2020 0.4287
C15 C 0.5580(4) 0.2236(2) 0.5908(3)
H18 H 0.6572 0.1997 0.6271
C16 C -0.1020(4) 0.2434(2) 0.1133(3)
H19 H -0.2063 0.2326 0.0781
C17 C 0.0114(4) 0.2442(2) 0.2325(3)
H20 H -0.0173 0.2355 0.2756
C18 C 0.1695(4) 0.25819(19) 0.2880(3)
C19 C 0.2029(4) 0.2726(2) 0.2172(3)
H21 H 0.3065 0.2824 0.2499
H22 H 0.1056 0.2829 0.0532
C20 C 0.0811(4) 0.2722(2) 0.0987(3)
Zn1_2 Zn -0.27195(4) 0.25571(2) -0.14919(4)
N2_2 N 0.9289(3) 0.25727(16) 1.0446(2)
loop_
_geom_bond_atom_site_label_1
_geom_bond_atom_site_label_2
_geom_bond_site_symmetry_1
_geom_bond_site_symmetry_2
Zn1 N1 1_555 1_555
N1 C11 1_555 1_555
N2 C16 1_555 1_555
O1 Zn1 1_555 1_555
O2 Zn1 1_555 1_555
O3 Zn1 1_555 1_555
O4 Zn1 1_555 1_555
C1 H1 1_555 1_555
H2 C1 1_555 1_555
H3 C1 1_555 1_555
C2 O1 1_555 1_555
C3 C2 1_555 1_555
H4 C3 1_555 1_555
C4 O2 1_555 1_555
C5 C4 1_555 1_555
H5 C5 1_555 1_555
H6 C5 1_555 1_555
H7 C5 1_555 1_555
C6 H8 1_555 1_555
H9 C6 1_555 1_555
H10 C6 1_555 1_555
C7 O3 1_555 1_555
C8 C7 1_555 1_555
H11 C8 1_555 1_555
C9 O4 1_555 1_555
C10 C9 1_555 1_555
H12 C10 1_555 1_555
H13 C10 1_555 1_555
H14 C10 1_555 1_555
C11 H15 1_555 1_555
C12 C11 1_555 1_555
H16 C12 1_555 1_555
C13 C12 1_555 1_555
C14 C13 1_555 1_555
H17 C14 1_555 1_555
C15 N1 1_555 1_555
H18 C15 1_555 1_555
C16 H19 1_555 1_555
C17 C16 1_555 1_555
H20 C17 1_555 1_555
C18 C13 1_555 1_555
C19 C18 1_555 1_555
H21 C19 1_555 1_555
H22 C20 1_555 1_555
C20 N2 1_555 1_555
Zn1_2 N2 1_555 1_555
N2_2 Zn1 1_555 1_555
C1 C2 1_555 1_555
C3 C4 1_555 1_555
C6 C7 1_555 1_555
C8 C9 1_555 1_555
C14 C15 1_555 1_555
C17 C18 1_555 1_555
C19 C20 1_555 1_555

#END
