
#######################################################################
#
#                 Cambridge Crystallographic Data Centre
#                                CCDC 
#
#######################################################################
#
# If this CIF has been generated from an entry in the Cambridge 
# Structural Database, then it will include bibliographic, chemical, 
# crystal, experimental, refinement or atomic coordinate data resulting 
# from the CCDC's data processing and validation procedures.
#
#######################################################################

data_YESFUY02
_symmetry_cell_setting           monoclinic
_symmetry_space_group_name_H-M   'P 21'
_symmetry_Int_Tables_number      4
_space_group_name_Hall           'P 2yb'
loop_
_symmetry_equiv_pos_site_id
_symmetry_equiv_pos_as_xyz
1 x,y,z
2 -x,1/2+y,-z
_cell_length_a                   7.750(3)
_cell_length_b                   14.857(5)
_cell_length_c                   8.426(3)
_cell_angle_alpha                90
_cell_angle_beta                 91.210(10)
_cell_angle_gamma                90
_cell_volume                     969.968
loop_
_atom_site_label
_atom_site_type_symbol
_atom_site_fract_x
_atom_site_fract_y
_atom_site_fract_z
Zn1 Zn 0.02724(8) -0.00288(12) 0.22706(8)
O1 O 0.1772(11) 0.0944(5) 0.3408(11)
O2 O -0.1310(14) 0.0961(8) 0.1153(13)
O3 O 0.1643(13) -0.0999(5) 0.3320(12)
O4 O -0.1148(13) -0.0949(6) 0.1197(13)
C1 C 0.270(3) 0.2378(11) 0.415(3)
H1 H 0.3814 0.2328 0.3690
H2 H 0.2765 0.2201 0.5244
H3 H 0.2306 0.2991 0.4076
C2 C 0.1522(18) 0.1814(7) 0.3323(18)
C3 C 0.008(3) 0.2164(11) 0.259(2)
H4 H -0.0086 0.2773 0.2793
C4 C -0.118(2) 0.1790(9) 0.159(2)
C5 C -0.271(4) 0.2269(15) 0.084(3)
H5 H -0.3742 0.1940 0.1045
H6 H -0.2552 0.2310 -0.0288
H7 H -0.2792 0.2863 0.1276
C6 C 0.275(3) -0.2436(13) 0.408(2)
H8 H 0.3421 -0.2097 0.4845
H9 H 0.3505 -0.2676 0.3294
H10 H 0.2178 -0.2920 0.4605
C7 C 0.134(2) -0.1783(11) 0.323(2)
C8 C -0.001(3) -0.2225(12) 0.237(3)
H11 H -0.0064 -0.2850 0.2363
C9 C -0.128(2) -0.1714(15) 0.1505(19)
C10 C -0.269(3) -0.2400(17) 0.089(4)
H12 H -0.3141 -0.2203 -0.0127
H13 H -0.3612 -0.2428 0.1629
H14 H -0.2185 -0.2985 0.0777
N1 N 0.2192(4) 0.0040(5) 0.0316(4)
C11 C 0.1748(4) 0.0351(4) -0.1193(5)
H15 H 0.0631 0.0550 -0.1414
C12 C 0.2973(5) 0.0363(5) -0.2374(4)
H16 H 0.2676 0.0571 -0.3385
C13 C 0.4643(5) 0.0065(6) -0.2045(4)
C14 C 0.5087(4) -0.0246(6) -0.0535(5)
H17 H 0.6204 -0.0445 -0.0315
C15 C 0.3862(5) -0.0259(5) 0.0646(4)
H18 H 0.4159 -0.0467 0.1656
N2 N 0.8377(6) 0.0027(10) -0.5711(5)
C16 C 0.5941(7) 0.0004(11) -0.3345(7)
C17 C 0.5458(8) -0.0118(10) -0.4900(7)
H19 H 0.4316 -0.0237 -0.5191
C18 C 0.6733(7) -0.0057(13) -0.6035(7)
H20 H 0.6388 -0.0077 -0.7098
C19 C 0.8831(9) 0.0125(15) -0.4216(8)
H21 H 1.0003 0.0154 -0.3960
C20 C 0.7672(9) 0.0190(6) -0.2991(8)
H22 H 0.8035 0.0351 -0.1971
Zn1_2 Zn 1.02724(8) -0.00288(12) -0.77294(8)
N2_2 N -0.1623(6) 0.0027(10) 0.4289(5)
loop_
_geom_bond_atom_site_label_1
_geom_bond_atom_site_label_2
_geom_bond_site_symmetry_1
_geom_bond_site_symmetry_2
Zn1 O1 1_555 1_555
O1 C2 1_555 1_555
O2 Zn1 1_555 1_555
O3 Zn1 1_555 1_555
O4 Zn1 1_555 1_555
C1 H1 1_555 1_555
H2 C1 1_555 1_555
H3 C1 1_555 1_555
C2 C1 1_555 1_555
C3 C2 1_555 1_555
H4 C3 1_555 1_555
C4 O2 1_555 1_555
C5 C4 1_555 1_555
H5 C5 1_555 1_555
H6 C5 1_555 1_555
H7 C5 1_555 1_555
C6 H8 1_555 1_555
H9 C6 1_555 1_555
H10 C6 1_555 1_555
C7 O3 1_555 1_555
C8 C7 1_555 1_555
H11 C8 1_555 1_555
C9 O4 1_555 1_555
C10 C9 1_555 1_555
H12 C10 1_555 1_555
H13 C10 1_555 1_555
H14 C10 1_555 1_555
N1 Zn1 1_555 1_555
C11 N1 1_555 1_555
H15 C11 1_555 1_555
C12 C11 1_555 1_555
H16 C12 1_555 1_555
C13 C12 1_555 1_555
C14 C13 1_555 1_555
H17 C14 1_555 1_555
C15 N1 1_555 1_555
H18 C15 1_555 1_555
N2 C18 1_555 1_555
C16 C13 1_555 1_555
C17 C16 1_555 1_555
H19 C17 1_555 1_555
C18 C17 1_555 1_555
H20 C18 1_555 1_555
C19 N2 1_555 1_555
H21 C19 1_555 1_555
C20 C16 1_555 1_555
H22 C20 1_555 1_555
Zn1_2 N2 1_555 1_555
N2_2 Zn1 1_555 1_555
C3 C4 1_555 1_555
C6 C7 1_555 1_555
C8 C9 1_555 1_555
C14 C15 1_555 1_555
C19 C20 1_555 1_555

#END
