
#######################################################################
#
#                 Cambridge Crystallographic Data Centre
#                                CCDC 
#
#######################################################################
#
# If this CIF has been generated from an entry in the Cambridge 
# Structural Database, then it will include bibliographic, chemical, 
# crystal, experimental, refinement or atomic coordinate data resulting 
# from the CCDC's data processing and validation procedures.
#
#######################################################################

data_YESGEJ
_symmetry_cell_setting           monoclinic
_symmetry_space_group_name_H-M   'P 21/n'
_symmetry_Int_Tables_number      14
_space_group_name_Hall           '-P 2yn'
loop_
_symmetry_equiv_pos_site_id
_symmetry_equiv_pos_as_xyz
1 x,y,z
2 1/2-x,1/2+y,1/2-z
3 -x,-y,-z
4 1/2+x,1/2-y,1/2+z
_cell_length_a                   10.6690(10)
_cell_length_b                   7.3400(10)
_cell_length_c                   19.851(2)
_cell_angle_alpha                90
_cell_angle_beta                 104.819(5)
_cell_angle_gamma                90
_cell_volume                     1502.83
loop_
_atom_site_label
_atom_site_type_symbol
_atom_site_fract_x
_atom_site_fract_y
_atom_site_fract_z
Cu1 Cu 0.57399(3) 0.59218(5) 0.670989(17)
O1 O 0.45198(19) 0.6895(3) 0.58779(9)
O2 O 0.2225(2) 0.7800(4) 0.54397(13)
H1 H 0.2958(18) 0.746(5) 0.5695(15)
O3 O 0.1476(3) 0.8646(6) 0.43600(15)
O4 O 0.69983(19) 0.4395(3) 0.73826(10)
O5 O 0.90706(19) 0.3502(3) 0.76554(10)
N1 N 0.7171(2) 0.6212(3) 0.62814(12)
N2 N 0.4316(2) 0.5210(3) 0.71570(12)
C1 C 0.2396(4) 0.8164(6) 0.48181(18)
C2 C 0.3703(3) 0.7972(4) 0.47227(15)
C3 C 0.3913(4) 0.8449(4) 0.40839(15)
H6 H 0.3219 0.8848 0.3729
C4 C 0.5110(4) 0.8346(4) 0.39644(16)
H7 H 0.5230 0.8658 0.3531
C5 C 0.6143(3) 0.7775(4) 0.44927(15)
H8 H 0.6964 0.7720 0.4413
C6 C 0.5984(3) 0.7277(4) 0.51441(14)
C7 C 0.4744(3) 0.7357(4) 0.52715(14)
C8 C 0.7123(3) 0.6703(4) 0.56577(15)
H9 H 0.7897 0.6686 0.5524
C9 C 0.8402(3) 0.5637(4) 0.67451(16)
H10 H 0.8888 0.6696 0.6959
H11 H 0.8913 0.4997 0.6480
C10 C 0.8146(3) 0.4394(4) 0.73058(15)
C11 C 0.3103(3) 0.4825(4) 0.68086(17)
H12 H 0.2893 0.4840 0.6324
C12 C 0.2146(3) 0.4406(4) 0.7136(2)
H13 H 0.1307 0.4157 0.6876
C13 C 0.2442(3) 0.4361(4) 0.7848(2)
H14 H 0.1812 0.4080 0.8079
C14 C 0.3689(3) 0.4738(5) 0.82131(19)
H15 H 0.3920 0.4705 0.8698
C15 C 0.4591(3) 0.5164(5) 0.78551(16)
H16 H 0.5431 0.5433 0.8108
Cu1A Cu 0.92601(3) 0.09218(5) 0.829011(17)
O5A O 0.59294(19) 0.8502(3) 0.73446(10)
O6 O -0.0707(7) 0.7722(18) 0.4799(5)
H2 H 0.002(5) 0.754(17) 0.470(5)
H3 H -0.056(10) 0.814(18) 0.521(3)
O7? O -0.0593(7) 0.6017(17) 0.4661(6)
H4? H -0.002(8) 0.637(16) 0.445(5)
H5? H -0.021(10) 0.548(19) 0.504(4)
loop_
_geom_bond_atom_site_label_1
_geom_bond_atom_site_label_2
_geom_bond_site_symmetry_1
_geom_bond_site_symmetry_2
Cu1 O1 1_555 1_555
O1 C7 1_555 1_555
O2 H1 1_555 1_555
O3 C1 1_555 1_555
O4 Cu1 1_555 1_555
O5 C10 1_555 1_555
O6 H2 1_555 1_555
H3 O6 1_555 1_555
N1 Cu1 1_555 1_555
N2 Cu1 1_555 1_555
C1 O2 1_555 1_555
C2 C1 1_555 1_555
C3 C2 1_555 1_555
H6 C3 1_555 1_555
C4 C3 1_555 1_555
H7 C4 1_555 1_555
C5 C4 1_555 1_555
H8 C5 1_555 1_555
C6 C5 1_555 1_555
C7 C2 1_555 1_555
C8 N1 1_555 1_555
H9 C8 1_555 1_555
C9 N1 1_555 1_555
H10 C9 1_555 1_555
H11 C9 1_555 1_555
C10 O4 1_555 1_555
C11 N2 1_555 1_555
H12 C11 1_555 1_555
C12 C11 1_555 1_555
H13 C12 1_555 1_555
C13 C12 1_555 1_555
H14 C13 1_555 1_555
C14 C13 1_555 1_555
H15 C14 1_555 1_555
C15 N2 1_555 1_555
H16 C15 1_555 1_555
Cu1A O5 1_555 1_555
O5A Cu1 1_555 1_555
C6 C7 1_555 1_555
C6 C8 1_555 1_555
C9 C10 1_555 1_555
C14 C15 1_555 1_555

#END
