
#######################################################################
#
#                 Cambridge Crystallographic Data Centre
#                                CCDC 
#
#######################################################################
#
# If this CIF has been generated from an entry in the Cambridge 
# Structural Database, then it will include bibliographic, chemical, 
# crystal, experimental, refinement or atomic coordinate data resulting 
# from the CCDC's data processing and validation procedures.
#
#######################################################################

data_YESGOT
_symmetry_cell_setting           monoclinic
_symmetry_space_group_name_H-M   'C 2/c'
_symmetry_Int_Tables_number      15
_space_group_name_Hall           '-C 2yn'
loop_
_symmetry_equiv_pos_site_id
_symmetry_equiv_pos_as_xyz
1 x,y,z
2 1/2+x,1/2+y,z
3 -x,y,1/2-z
4 1/2-x,1/2+y,1/2-z
5 -x,-y,-z
6 1/2-x,1/2-y,-z
7 x,-y,1/2+z
8 1/2+x,1/2-y,1/2+z
_cell_length_a                   15.0115(17)
_cell_length_b                   15.5106(19)
_cell_length_c                   18.965(2)
_cell_angle_alpha                90
_cell_angle_beta                 110.740(2)
_cell_angle_gamma                90
_cell_volume                     4129.61
loop_
_atom_site_label
_atom_site_type_symbol
_atom_site_fract_x
_atom_site_fract_y
_atom_site_fract_z
Cd1 Cd 0.58453(3) 0.13747(2) 0.688640(19)
C1 C 0.5652(4) 0.6257(4) 0.6851(3)
O1 O 0.7122(3) 0.1365(2) 0.63942(19)
C2 C 0.6017(4) 0.4944(3) 0.7265(3)
N1 N 0.5140(3) 0.2608(3) 0.6186(2)
N2 N 0.6355(3) 0.2621(3) 0.7628(2)
O2 O 0.5776(3) 0.0734(3) 0.5738(2)
C3 C 0.6055(3) 0.3390(3) 0.7292(3)
C4 C 0.6594(4) 0.0988(3) 0.5808(3)
C5 C 0.6956(3) 0.0845(3) 0.5178(2)
N3 N 0.6194(3) 0.5793(3) 0.7462(2)
H1 H 0.6570 0.5992 0.7886
C6 C 0.6369(3) 0.4176(3) 0.7677(3)
C7 C 0.5357(4) 0.4951(3) 0.6538(3)
C8 C 0.6499(3) 0.0271(3) 0.4596(3)
H2 H 0.5979 -0.0044 0.4611
C9 C 0.6813(3) 0.0163(3) 0.3994(3)
N4 N 0.5135(3) 0.5785(3) 0.6277(2)
C10 C 0.5389(3) 0.3378(3) 0.6517(3)
C11 C 0.5030(4) 0.4154(3) 0.6142(3)
C12 C 0.4536(4) 0.2574(4) 0.5473(3)
H3 H 0.4361 0.2039 0.5244
C13 C 0.6946(4) 0.2609(4) 0.8342(3)
H4 H 0.7156 0.2081 0.8572
C14 C 0.4400(4) 0.4116(4) 0.5394(3)
H5 H 0.4149 0.4617 0.5128
C15 C 0.6980(4) 0.4138(4) 0.8429(3)
H6 H 0.7191 0.4644 0.8700
C16 C 0.7716(4) 0.1321(3) 0.5143(3)
H7 H 0.8020 0.1710 0.5526
C17 C 0.6321(4) -0.0449(3) 0.3363(3)
C18 C 0.7263(4) 0.3369(4) 0.8761(3)
H8 H 0.7664 0.3340 0.9263
C19 C 0.7579(4) 0.0651(3) 0.3976(3)
H9 H 0.7792 0.0590 0.3574
C20 C 0.4160(4) 0.3317(4) 0.5061(3)
H10 H 0.3749 0.3274 0.4563
C21 C 0.8028(4) 0.1225(4) 0.4545(3)
H11 H 0.8541 0.1547 0.4526
C22 C 0.5697(4) 0.7192(4) 0.6858(3)
O3 O 0.6612(3) -0.0479(2) 0.28186(19)
O4 O 0.5662(3) -0.0903(3) 0.3409(2)
O5 O 0.5205(4) 0.7624(4) 0.6225(3)
C23 C 0.6197(5) 0.7699(4) 0.7406(3)
H12 H 0.6592 0.7533 0.7887
C24 C 0.5427(7) 0.8500(5) 0.6407(7)
H13 H 0.5201 0.8965 0.6084
C25 C 0.6020(7) 0.8545(5) 0.7124(6)
H14 H 0.6270 0.9046 0.7389
Cd1F Cd 0.58453(3) -0.13747(2) 0.188640(19)
Cd1D Cd 0.41547(3) -0.13747(2) 0.311360(19)
O3F O 0.6612(3) 0.0479(2) 0.78186(19)
O4D O 0.4338(3) 0.0903(3) 0.6591(2)
loop_
_geom_bond_atom_site_label_1
_geom_bond_atom_site_label_2
_geom_bond_site_symmetry_1
_geom_bond_site_symmetry_2
Cd1 O1 1_555 1_555
C1 N3 1_555 1_555
O1 C4 1_555 1_555
C2 N3 1_555 1_555
N1 Cd1 1_555 1_555
N2 Cd1 1_555 1_555
O2 Cd1 1_555 1_555
C3 N2 1_555 1_555
C4 O2 1_555 1_555
C5 C4 1_555 1_555
N3 H1 1_555 1_555
C6 C2 1_555 1_555
C7 C2 1_555 1_555
C8 C5 1_555 1_555
H2 C8 1_555 1_555
C9 C8 1_555 1_555
N4 C1 1_555 1_555
C10 N1 1_555 1_555
C11 C7 1_555 1_555
C12 N1 1_555 1_555
H3 C12 1_555 1_555
C13 N2 1_555 1_555
H4 C13 1_555 1_555
C14 C11 1_555 1_555
H5 C14 1_555 1_555
C15 C6 1_555 1_555
H6 C15 1_555 1_555
C16 C5 1_555 1_555
H7 C16 1_555 1_555
C17 C9 1_555 1_555
C18 C13 1_555 1_555
H8 C18 1_555 1_555
C19 C9 1_555 1_555
H9 C19 1_555 1_555
C20 C12 1_555 1_555
H10 C20 1_555 1_555
C21 C16 1_555 1_555
H11 C21 1_555 1_555
C22 C1 1_555 1_555
O3 C17 1_555 1_555
O4 C17 1_555 1_555
O5 C22 1_555 1_555
C23 C22 1_555 1_555
H12 C23 1_555 1_555
C24 O5 1_555 1_555
H13 C24 1_555 1_555
C25 C23 1_555 1_555
H14 C25 1_555 1_555
Cd1F O3 1_555 1_555
Cd1D O4 1_555 1_555
O3F Cd1 1_555 1_555
O4D Cd1 1_555 1_555
C3 C6 1_555 1_555
C3 C10 1_555 1_555
C7 N4 1_555 1_555
C10 C11 1_555 1_555
C14 C20 1_555 1_555
C15 C18 1_555 1_555
C19 C21 1_555 1_555
C24 C25 1_555 1_555

#END
