
#######################################################################
#
#                 Cambridge Crystallographic Data Centre
#                                CCDC 
#
#######################################################################
#
# If this CIF has been generated from an entry in the Cambridge 
# Structural Database, then it will include bibliographic, chemical, 
# crystal, experimental, refinement or atomic coordinate data resulting 
# from the CCDC's data processing and validation procedures.
#
#######################################################################

data_YESHOU
_symmetry_cell_setting           monoclinic
_symmetry_space_group_name_H-M   'P 21/c'
_symmetry_Int_Tables_number      14
_space_group_name_Hall           '-P 2ybc'
loop_
_symmetry_equiv_pos_site_id
_symmetry_equiv_pos_as_xyz
1 x,y,z
2 -x,1/2+y,1/2-z
3 -x,-y,-z
4 x,1/2-y,1/2+z
_cell_length_a                   9.560(4)
_cell_length_b                   13.306(6)
_cell_length_c                   13.832(7)
_cell_angle_alpha                90
_cell_angle_beta                 108.81(2)
_cell_angle_gamma                90
_cell_volume                     1665.53
loop_
_atom_site_label
_atom_site_type_symbol
_atom_site_fract_x
_atom_site_fract_y
_atom_site_fract_z
Cu1 Cu 0.75614(6) 0.85499(4) 0.74956(4)
Cu2 Cu 0.15922(7) 0.96140(4) 0.44929(5)
Cu3 Cu 0.65715(7) 0.67714(4) 0.93939(5)
Cl1 Cl 0.12024(15) 1.12485(9) 0.42353(10)
Cl2 Cl 0.65184(16) 0.83676(9) 0.91161(10)
N1 N 0.7975(4) 1.0043(3) 0.7848(3)
N2 N 0.5694(4) 0.9141(3) 0.6631(3)
N3 N 0.4397(5) 0.8832(3) 0.5970(3)
N4 N 0.3608(4) 0.9611(3) 0.5606(3)
N5 N 0.4349(4) 1.0470(3) 0.6019(3)
N6 N 0.7118(4) 0.7061(3) 0.7136(3)
N7 N 0.9472(4) 0.7980(3) 0.8272(3)
N8 N 1.0817(4) 0.8293(3) 0.8891(3)
N9 N 1.1603(4) 0.7510(3) 0.9276(3)
N10 N 1.0792(4) 0.6656(3) 0.8938(3)
C1 C 0.9184(5) 1.0420(3) 0.8545(4)
H1 H 0.9944 0.9988 0.8892
C2 C 0.9327(5) 1.1442(3) 0.8760(4)
H2 H 1.0175 1.1690 0.9245
C3 C 0.8207(5) 1.2086(3) 0.8251(4)
H3 H 0.8281 1.2771 0.8395
C4 C 0.6964(5) 1.1700(3) 0.7517(4)
H4 H 0.6205 1.2123 0.7149
C5 C 0.6873(5) 1.0681(3) 0.7344(3)
C6 C 0.5626(5) 1.0148(3) 0.6648(3)
C7 C 0.5892(5) 0.6658(3) 0.6482(4)
H5 H 0.5146 0.7084 0.6103
C8 C 0.5696(6) 0.5634(4) 0.6349(4)
H6 H 0.4825 0.5376 0.5897
C9 C 0.6807(6) 0.4997(3) 0.6893(4)
H7 H 0.6700 0.4305 0.6807
C10 C 0.8087(5) 0.5399(3) 0.7569(4)
H8 H 0.8845 0.4981 0.7949
C11 C 0.8216(5) 0.6430(3) 0.7668(3)
C12 C 0.9511(5) 0.6976(3) 0.8315(3)
Cu2C Cu 1.15922(7) 0.53860(4) 0.94929(5)
Cu3A Cu 0.34285(7) 1.17714(4) 0.56061(5)
Cl1A Cl 0.87976(15) 0.62485(9) 1.07647(10)
N5A N 0.5651(4) 0.5470(3) 0.8981(3)
N10C N 0.0792(4) 0.8344(3) 0.3938(3)
loop_
_geom_bond_atom_site_label_1
_geom_bond_atom_site_label_2
_geom_bond_site_symmetry_1
_geom_bond_site_symmetry_2
Cu1 Cl2 1_555 1_555
Cu2 Cl1 1_555 1_555
Cu3 Cl2 1_555 1_555
Cl1 Cu3A 1_555 1_555
N1 Cu1 1_555 1_555
N2 Cu1 1_555 1_555
N3 N2 1_555 1_555
N4 Cu2 1_555 1_555
N5 N4 1_555 1_555
N6 Cu1 1_555 1_555
N7 Cu1 1_555 1_555
N8 N7 1_555 1_555
N9 N8 1_555 1_555
N10 N9 1_555 1_555
C1 N1 1_555 1_555
H1 C1 1_555 1_555
C2 C1 1_555 1_555
H2 C2 1_555 1_555
C3 C2 1_555 1_555
H3 C3 1_555 1_555
C4 C3 1_555 1_555
H4 C4 1_555 1_555
C5 N1 1_555 1_555
C6 N2 1_555 1_555
C7 N6 1_555 1_555
H5 C7 1_555 1_555
C8 C7 1_555 1_555
H6 C8 1_555 1_555
C9 C8 1_555 1_555
H7 C9 1_555 1_555
C10 C9 1_555 1_555
H8 C10 1_555 1_555
C11 N6 1_555 1_555
C12 N7 1_555 1_555
Cu2C N10 1_555 1_555
Cu3A N5 1_555 1_555
Cl1A Cu3 1_555 1_555
N5A Cu3 1_555 1_555
N10C Cu2 1_555 1_555
N3 N4 1_555 1_555
N5 C6 1_555 1_555
N10 C12 1_555 1_555
C4 C5 1_555 1_555
C5 C6 1_555 1_555
C10 C11 1_555 1_555
C11 C12 1_555 1_555

#END
