
#######################################################################
#
#                 Cambridge Crystallographic Data Centre
#                                CCDC 
#
#######################################################################
#
# If this CIF has been generated from an entry in the Cambridge 
# Structural Database, then it will include bibliographic, chemical, 
# crystal, experimental, refinement or atomic coordinate data resulting 
# from the CCDC's data processing and validation procedures.
#
#######################################################################

data_YETDIL
_symmetry_cell_setting           monoclinic
_symmetry_space_group_name_H-M   'P 21/n'
_symmetry_Int_Tables_number      14
_space_group_name_Hall           '-P 2yn'
loop_
_symmetry_equiv_pos_site_id
_symmetry_equiv_pos_as_xyz
1 x,y,z
2 1/2-x,1/2+y,1/2-z
3 -x,-y,-z
4 1/2+x,1/2-y,1/2+z
_cell_length_a                   17.070(3)
_cell_length_b                   10.780(2)
_cell_length_c                   17.740(4)
_cell_angle_alpha                90
_cell_angle_beta                 114.50(3)
_cell_angle_gamma                90
_cell_volume                     2970.49
loop_
_atom_site_label
_atom_site_type_symbol
_atom_site_fract_x
_atom_site_fract_y
_atom_site_fract_z
C1 C 0.1023(3) 0.3125(4) -0.0626(4)
H1 H 0.1405 0.3076 -0.0912
H2 H 0.0422 0.3145 -0.1035
H3 H 0.1150 0.3880 -0.0288
C2 C 0.1159(3) 0.2028(4) -0.0086(3)
C3 C 0.0718(3) 0.1761(4) 0.0436(3)
C4 C 0.1037(3) 0.0671(4) 0.0826(3)
C5 C 0.1685(3) 0.0264(4) 0.0546(3)
C6 C 0.2188(3) -0.0772(4) 0.0784(3)
H4 H 0.2102 -0.1286 0.1178
C7 C 0.2818(3) -0.1178(4) 0.0522(3)
C8 C 0.3306(3) -0.2297(4) 0.0753(3)
C9 C 0.3820(3) -0.2315(3) 0.0321(3)
C10 C 0.3643(2) -0.1207(3) -0.0154(2)
C11 C 0.4032(2) -0.0829(3) -0.0683(2)
H5 H 0.4464 -0.1367 -0.0703
C12 C 0.3868(2) 0.0200(3) -0.1166(2)
C13 C 0.4278(3) 0.0576(4) -0.1699(3)
C14 C 0.3919(3) 0.1677(4) -0.2043(3)
C15 C 0.3284(3) 0.1972(4) -0.1732(3)
C16 C 0.2723(3) 0.3103(4) -0.1947(3)
H6 H 0.2348 0.3080 -0.1652
H7 H 0.3084 0.3848 -0.1784
H8 H 0.2369 0.3120 -0.2545
C17 C 0.0050(4) 0.2596(6) 0.0519(4)
H9 H -0.0314 0.2948 -0.0032
H10 H -0.0325 0.2096 0.0702
C18 C 0.0436(5) 0.3651(6) 0.1126(5)
H11 H -0.0027 0.4161 0.1152
H12 H 0.0786 0.3311 0.1676
H13 H 0.0799 0.4162 0.0942
C19 C 0.0789(4) -0.0020(5) 0.1430(4)
H14 H 0.1137 -0.0776 0.1610
H15 H 0.0890 0.0507 0.1911
H16 H 0.0178 -0.0243 0.1161
C20 C 0.3236(3) -0.3271(4) 0.1326(3)
H17 H 0.3776 -0.3759 0.1552
H18 H 0.3173 -0.2859 0.1796
C21 C 0.2479(4) -0.4154(5) 0.0907(4)
H19 H 0.2469 -0.4767 0.1311
H20 H 0.1940 -0.3682 0.0694
H21 H 0.2543 -0.4581 0.0448
C22 C 0.4391(3) -0.3345(4) 0.0268(3)
H22 H 0.4919 -0.2985 0.0255
H23 H 0.4565 -0.3875 0.0767
C23 C 0.3934(3) -0.4133(4) -0.0501(3)
H24 H 0.4321 -0.4791 -0.0520
H25 H 0.3418 -0.4504 -0.0483
H26 H 0.3768 -0.3611 -0.0995
C24 C 0.4964(3) -0.0139(4) -0.1824(3)
H27 H 0.5090 -0.0900 -0.1493
H28 H 0.4765 -0.0353 -0.2411
H29 H 0.5486 0.0367 -0.1651
C25 C 0.4097(3) 0.2460(5) -0.2654(3)
H30 H 0.4105 0.3345 -0.2501
H31 H 0.4673 0.2249 -0.2626
C26 C 0.3430(4) 0.2277(7) -0.3535(4)
H32 H 0.3574 0.2801 -0.3911
H33 H 0.3426 0.1405 -0.3693
H34 H 0.2861 0.2505 -0.3570
C27 C 0.5804(3) 0.3972(4) 0.2670(3)
C28 C 0.3662(3) 0.3141(4) 0.0570(3)
N1 N 0.3118(2) 0.2702(3) 0.0030(2)
Ag1 Ag 0.47168(2) 0.36900(3) 0.16065(2)
Cu1 Cu 0.24917(3) 0.10460(4) -0.06121(3)
N2 N 0.1720(2) 0.1133(3) -0.0023(2)
N3 N 0.3037(2) -0.0524(3) -0.0026(2)
N4 N 0.3251(2) 0.1107(3) -0.1217(2)
N5 N 0.6408(2) 0.3999(3) 0.3263(2)
Cu1C Cu 0.74917(3) 0.39540(4) 0.43879(3)
N5C N 0.1408(2) 0.1001(3) -0.1737(2)
loop_
_geom_bond_atom_site_label_1
_geom_bond_atom_site_label_2
_geom_bond_site_symmetry_1
_geom_bond_site_symmetry_2
C1 H1 1_555 1_555
H2 C1 1_555 1_555
H3 C1 1_555 1_555
C2 C1 1_555 1_555
C3 C2 1_555 1_555
C4 C3 1_555 1_555
C5 C4 1_555 1_555
C6 C5 1_555 1_555
H4 C6 1_555 1_555
C7 C6 1_555 1_555
C8 C7 1_555 1_555
C9 C8 1_555 1_555
C10 C9 1_555 1_555
C11 C10 1_555 1_555
H5 C11 1_555 1_555
C12 C11 1_555 1_555
C13 C12 1_555 1_555
C14 C13 1_555 1_555
C15 C14 1_555 1_555
C16 C15 1_555 1_555
H6 C16 1_555 1_555
H7 C16 1_555 1_555
H8 C16 1_555 1_555
C17 C3 1_555 1_555
H9 C17 1_555 1_555
H10 C17 1_555 1_555
C18 C17 1_555 1_555
H11 C18 1_555 1_555
H12 C18 1_555 1_555
H13 C18 1_555 1_555
C19 C4 1_555 1_555
H14 C19 1_555 1_555
H15 C19 1_555 1_555
H16 C19 1_555 1_555
C20 C8 1_555 1_555
H17 C20 1_555 1_555
H18 C20 1_555 1_555
C21 C20 1_555 1_555
H19 C21 1_555 1_555
H20 C21 1_555 1_555
H21 C21 1_555 1_555
C22 C9 1_555 1_555
H22 C22 1_555 1_555
H23 C22 1_555 1_555
C23 C22 1_555 1_555
H24 C23 1_555 1_555
H25 C23 1_555 1_555
H26 C23 1_555 1_555
C24 C13 1_555 1_555
H27 C24 1_555 1_555
H28 C24 1_555 1_555
H29 C24 1_555 1_555
C25 C14 1_555 1_555
H30 C25 1_555 1_555
H31 C25 1_555 1_555
C26 C25 1_555 1_555
H32 C26 1_555 1_555
H33 C26 1_555 1_555
H34 C26 1_555 1_555
C27 Ag1 1_555 1_555
C28 N1 1_555 1_555
N1 Cu1 1_555 1_555
Ag1 C28 1_555 1_555
Cu1 N2 1_555 1_555
N2 C2 1_555 1_555
N3 C7 1_555 1_555
N4 C12 1_555 1_555
N5 C27 1_555 1_555
Cu1C N5 1_555 1_555
N5C Cu1 1_555 1_555
C5 N2 1_555 1_555
C10 N3 1_555 1_555
C15 N4 1_555 1_555
Cu1 N3 1_555 1_555
Cu1 N4 1_555 1_555

#END
