
#######################################################################
#
#                 Cambridge Crystallographic Data Centre
#                                CCDC 
#
#######################################################################
#
# If this CIF has been generated from an entry in the Cambridge 
# Structural Database, then it will include bibliographic, chemical, 
# crystal, experimental, refinement or atomic coordinate data resulting 
# from the CCDC's data processing and validation procedures.
#
#######################################################################

data_YETFEJ
_symmetry_cell_setting           monoclinic
_symmetry_space_group_name_H-M   'P 21/n'
_symmetry_Int_Tables_number      14
_space_group_name_Hall           '-P 2yn'
loop_
_symmetry_equiv_pos_site_id
_symmetry_equiv_pos_as_xyz
1 x,y,z
2 1/2-x,1/2+y,1/2-z
3 -x,-y,-z
4 1/2+x,1/2-y,1/2+z
_cell_length_a                   15.1908(11)
_cell_length_b                   8.1931(6)
_cell_length_c                   19.5802(16)
_cell_angle_alpha                90
_cell_angle_beta                 97.272(9)
_cell_angle_gamma                90
_cell_volume                     2417.34
loop_
_atom_site_label
_atom_site_type_symbol
_atom_site_fract_x
_atom_site_fract_y
_atom_site_fract_z
C1 C 0.93222(14) 0.7894(3) 0.69192(11)
H1 H 0.8912 0.8751 0.7027
H2 H 0.9908 0.8088 0.7178
H3 H 0.9099 0.6828 0.7047
C2 C 0.93943(13) 0.7915(3) 0.61664(11)
C3 C 1.02160(13) 0.7961(3) 0.58570(12)
C4 C 0.99734(13) 0.7953(3) 0.51630(12)
C5 C 0.90091(13) 0.7909(3) 0.50552(11)
C6 C 0.84797(14) 0.7882(3) 0.44389(11)
H4 H 0.8783 0.7889 0.4043
C7 C 0.75410(14) 0.7846(3) 0.43040(10)
C8 C 0.70346(16) 0.7772(3) 0.36452(11)
H5 H 0.7260 0.7732 0.3214
C9 C 0.61578(16) 0.7769(3) 0.37479(11)
H6 H 0.5659 0.7727 0.3403
C10 C 0.61412(13) 0.7841(3) 0.44681(10)
C11 C 0.53543(13) 0.7885(3) 0.47960(10)
H7 H 0.4810 0.7837 0.4498
C12 C 0.52832(13) 0.7987(3) 0.54805(10)
C13 C 0.44632(13) 0.8056(3) 0.57952(10)
C14 C 0.47090(13) 0.8139(3) 0.64862(10)
C15 C 0.56716(13) 0.8138(3) 0.65873(10)
C16 C 0.62343(15) 0.8219(3) 0.72673(11)
H8 H 0.6852 0.8427 0.7197
H9 H 0.6198 0.7180 0.7510
H10 H 0.6024 0.9103 0.7542
C17 C 1.11337(14) 0.8005(3) 0.62442(14)
H11 H 1.1131 0.8721 0.6651
H12 H 1.1543 0.8492 0.5945
C18 C 1.14849(17) 0.6331(4) 0.64832(15)
H13 H 1.1096 0.5855 0.6793
H14 H 1.2086 0.6444 0.6728
H15 H 1.1499 0.5618 0.6083
C19 C 1.05623(15) 0.7946(3) 0.46002(13)
H16 H 1.1151 0.8390 0.4785
H17 H 1.0303 0.8678 0.4225
C20 C 1.06864(16) 0.6268(3) 0.43040(13)
H18 H 1.0956 0.5540 0.4669
H19 H 1.1075 0.6346 0.3942
H20 H 1.0109 0.5830 0.4108
C21 C 0.35450(13) 0.7995(3) 0.54110(11)
H21 H 0.3538 0.8587 0.4969
H22 H 0.3130 0.8555 0.5684
C22 C 0.32294(16) 0.6251(3) 0.52664(13)
H23 H 0.3635 0.5695 0.4992
H24 H 0.2631 0.6265 0.5012
H25 H 0.3219 0.5670 0.5703
C23 C 0.41329(15) 0.8195(3) 0.70520(12)
H26 H 0.3531 0.8561 0.6859
H27 H 0.4377 0.9008 0.7399
C24 C 0.40617(18) 0.6551(4) 0.74053(14)
H28 H 0.3839 0.5730 0.7062
H29 H 0.3652 0.6643 0.7752
H30 H 0.4648 0.6221 0.7629
C25 C 0.71975(13) 0.4410(3) 0.64493(10)
C26 C 0.72435(14) 0.1614(3) 0.64021(11)
N1 N 0.86914(11) 0.7892(2) 0.56997(9)
N2 N 0.69827(11) 0.7885(2) 0.48013(8)
N3 N 0.60053(10) 0.8052(2) 0.60001(8)
N4 N 0.74268(11) 0.5737(2) 0.63835(9)
N5 N 0.75002(12) 0.0329(2) 0.62917(10)
N6 N 0.68687(12) 0.2971(2) 0.65633(10)
Zn1 Zn 0.734545(14) 0.79686(3) 0.582312(11)
N5_2 N 0.75002(12) 1.0329(2) 0.62917(10)
Zn1_2 Zn 0.734545(14) -0.20314(3) 0.582312(11)
loop_
_geom_bond_atom_site_label_1
_geom_bond_atom_site_label_2
_geom_bond_site_symmetry_1
_geom_bond_site_symmetry_2
C1 H1 1_555 1_555
H2 C1 1_555 1_555
H3 C1 1_555 1_555
C2 C1 1_555 1_555
C3 C2 1_555 1_555
C4 C3 1_555 1_555
C5 C4 1_555 1_555
C6 C5 1_555 1_555
H4 C6 1_555 1_555
C7 C6 1_555 1_555
C8 C7 1_555 1_555
H5 C8 1_555 1_555
C9 C8 1_555 1_555
H6 C9 1_555 1_555
C10 C9 1_555 1_555
C11 C10 1_555 1_555
H7 C11 1_555 1_555
C12 C11 1_555 1_555
C13 C12 1_555 1_555
C14 C13 1_555 1_555
C15 C14 1_555 1_555
C16 C15 1_555 1_555
H8 C16 1_555 1_555
H9 C16 1_555 1_555
H10 C16 1_555 1_555
C17 C3 1_555 1_555
H11 C17 1_555 1_555
H12 C17 1_555 1_555
C18 C17 1_555 1_555
H13 C18 1_555 1_555
H14 C18 1_555 1_555
H15 C18 1_555 1_555
C19 C4 1_555 1_555
H16 C19 1_555 1_555
H17 C19 1_555 1_555
C20 C19 1_555 1_555
H18 C20 1_555 1_555
H19 C20 1_555 1_555
H20 C20 1_555 1_555
C21 C13 1_555 1_555
H21 C21 1_555 1_555
H22 C21 1_555 1_555
C22 C21 1_555 1_555
H23 C22 1_555 1_555
H24 C22 1_555 1_555
H25 C22 1_555 1_555
C23 C14 1_555 1_555
H26 C23 1_555 1_555
H27 C23 1_555 1_555
C24 C23 1_555 1_555
H28 C24 1_555 1_555
H29 C24 1_555 1_555
H30 C24 1_555 1_555
C25 N4 1_555 1_555
C26 N5 1_555 1_555
N1 C2 1_555 1_555
N2 C7 1_555 1_555
N3 C12 1_555 1_555
N4 Zn1 1_555 1_555
N5 Zn1_2 1_555 1_555
N6 C25 1_555 1_555
Zn1 N1 1_555 1_555
N5_2 Zn1 1_555 1_555
C5 N1 1_555 1_555
C10 N2 1_555 1_555
C15 N3 1_555 1_555
C26 N6 1_555 1_555
N2 Zn1 1_555 1_555
N3 Zn1 1_555 1_555

#END
