
#######################################################################
#
#                 Cambridge Crystallographic Data Centre
#                                CCDC 
#
#######################################################################
#
# If this CIF has been generated from an entry in the Cambridge 
# Structural Database, then it will include bibliographic, chemical, 
# crystal, experimental, refinement or atomic coordinate data resulting 
# from the CCDC's data processing and validation procedures.
#
#######################################################################

data_YETKOY
_symmetry_cell_setting           monoclinic
_symmetry_space_group_name_H-M   'P 21'
_symmetry_Int_Tables_number      4
_space_group_name_Hall           'P 2yb'
loop_
_symmetry_equiv_pos_site_id
_symmetry_equiv_pos_as_xyz
1 x,y,z
2 -x,1/2+y,-z
_cell_length_a                   11.291(2)
_cell_length_b                   17.955(4)
_cell_length_c                   12.984(3)
_cell_angle_alpha                90
_cell_angle_beta                 102.386(4)
_cell_angle_gamma                90
_cell_volume                     2570.98
loop_
_atom_site_label
_atom_site_type_symbol
_atom_site_fract_x
_atom_site_fract_y
_atom_site_fract_z
Tl1 Tl 0.17231(3) 0.33189(2) 0.35848(3)
Tl2 Tl 0.68035(3) 0.25064(2) 0.39296(3)
Pt1 Pt 0.43479(3) 0.303503(19) 0.38791(3)
Pt2 Pt -0.08004(3) 0.289620(16) 0.35950(3)
O1 O 0.2019(6) 0.1932(4) 0.2869(6)
O2 O 0.1775(6) 0.2607(4) 0.5436(6)
O3 O 0.7485(5) 0.3775(4) 0.4871(6)
O4 O 0.5930(5) 0.3152(4) 0.2118(5)
N1 N 0.3847(6) 0.2313(5) 0.2687(6)
H1 H 0.4373 0.2262 0.2280
N2 N 0.4595(7) 0.3805(5) 0.2827(7)
H2 H 0.4243 0.4240 0.2843
N3 N 0.5013(7) 0.3711(5) 0.5157(7)
H3 H 0.5808 0.3832 0.5167
H4 H 0.4572 0.4145 0.5100
N4 N 0.4207(7) 0.2269(5) 0.5039(7)
H5 H 0.3431 0.2266 0.5154
H6 H 0.4386 0.1798 0.4836
N5 N -0.0224(7) 0.2847(5) 0.5171(6)
H7 H -0.0809 0.2889 0.5519
N6 N 0.8771(7) 0.3976(5) 0.3791(7)
H8 H 0.9090 0.4312 0.3438
N7 N -0.1532(6) 0.2911(4) 0.2013(6)
H9 H -0.2349 0.3009 0.1902
H10 H -0.1176 0.3283 0.1698
N8 N -0.0458(6) 0.1788(4) 0.3306(7)
H11 H 0.0319 0.1734 0.3204
H12 H -0.0542 0.1496 0.3868
C1 C 0.2875(8) 0.1907(6) 0.2413(8)
C2 C 0.2787(9) 0.1382(7) 0.1446(9)
C3 C 0.1680(11) 0.1607(7) 0.0591(10)
H13 H 0.1685 0.1331 -0.0059
H14 H 0.1715 0.2143 0.0455
H15 H 0.0936 0.1493 0.0833
C4 C 0.3903(12) 0.1398(10) 0.0945(13)
H16 H 0.4637 0.1324 0.1494
H17 H 0.3944 0.1881 0.0604
H18 H 0.3839 0.1000 0.0419
C5 C 0.2636(12) 0.0593(7) 0.1828(12)
H19 H 0.2547 0.0246 0.1234
H20 H 0.1913 0.0569 0.2131
H21 H 0.3353 0.0458 0.2367
C6 C 0.5263(8) 0.3699(6) 0.2101(8)
C7 C 0.5170(9) 0.4271(7) 0.1185(10)
C8 C 0.6379(10) 0.4356(8) 0.0903(11)
H22 H 0.6707 0.3863 0.0799
H23 H 0.6935 0.4616 0.1474
H24 H 0.6287 0.4646 0.0251
C9 C 0.4692(12) 0.5038(7) 0.1450(12)
H25 H 0.5210 0.5229 0.2099
H26 H 0.3859 0.4987 0.1548
H27 H 0.4706 0.5385 0.0870
C10 C 0.4244(12) 0.3922(9) 0.0266(10)
H28 H 0.4241 0.4201 -0.0383
H29 H 0.3434 0.3940 0.0425
H30 H 0.4467 0.3403 0.0172
C11 C 0.4939(8) 0.3326(6) 0.6148(8)
H31 H 0.4105 0.3411 0.6272
C12 C 0.5089(8) 0.2494(6) 0.6022(8)
H32 H 0.5920 0.2414 0.5890
C13 C 0.5010(11) 0.2051(8) 0.6983(9)
H33 H 0.5191 0.1522 0.6868
H34 H 0.4175 0.2080 0.7104
C14 C 0.5904(12) 0.2343(9) 0.7955(10)
H35 H 0.5760 0.2086 0.8591
H36 H 0.6742 0.2230 0.7888
C15 C 0.5778(12) 0.3153(10) 0.8082(9)
H37 H 0.6428 0.3321 0.8674
H38 H 0.4993 0.3249 0.8282
C16 C 0.5834(11) 0.3632(8) 0.7097(9)
H39 H 0.5630 0.4156 0.7222
H40 H 0.6664 0.3619 0.6963
C17 C 0.0856(9) 0.2763(6) 0.5780(8)
C18 C 0.0961(10) 0.2887(7) 0.6979(8)
C19 C -0.0234(13) 0.2995(11) 0.7297(10)
H41 H -0.0776 0.2581 0.7020
H42 H -0.0604 0.3465 0.7010
H43 H -0.0102 0.3004 0.8068
C20 C 0.1711(13) 0.3585(11) 0.7269(11)
H44 H 0.1645 0.3754 0.7972
H45 H 0.1411 0.3976 0.6751
H46 H 0.2562 0.3479 0.7267
C21 C 0.1589(13) 0.2224(11) 0.7592(11)
H47 H 0.1881 0.2364 0.8333
H48 H 0.2277 0.2072 0.7292
H49 H 0.1016 0.1809 0.7546
C22 C 0.8053(8) 0.4220(6) 0.4402(8)
C23 C 0.8027(9) 0.5038(6) 0.4647(10)
C24 C 0.8492(16) 0.5539(9) 0.3906(18)
H50 H 0.9367 0.5611 0.4157
H51 H 0.8080 0.6022 0.3873
H52 H 0.8334 0.5314 0.3202
C25 C 0.8805(15) 0.5145(9) 0.5712(17)
H53 H 0.9546 0.4847 0.5798
H54 H 0.8344 0.4990 0.6235
H55 H 0.9018 0.5673 0.5814
C26 C 0.6767(15) 0.5243(9) 0.4733(18)
H56 H 0.6709 0.5784 0.4803
H57 H 0.6567 0.5000 0.5350
H58 H 0.6198 0.5078 0.4094
C27 C -0.1338(9) 0.2170(5) 0.1519(8)
H59 H -0.0509 0.2176 0.1360
C28 C -0.1357(8) 0.1563(5) 0.2337(7)
H60 H -0.2177 0.1572 0.2513
C29 C -0.1176(9) 0.0797(6) 0.1924(9)
H61 H -0.1254 0.0418 0.2460
H62 H -0.0352 0.0757 0.1780
C30 C -0.2115(10) 0.0654(6) 0.0920(10)
H63 H -0.1979 0.0156 0.0641
H64 H -0.2935 0.0659 0.1078
C31 C -0.2050(10) 0.1233(6) 0.0100(9)
H65 H -0.2680 0.1129 -0.0541
H66 H -0.1249 0.1205 -0.0092
C32 C -0.2238(9) 0.2024(6) 0.0498(9)
H67 H -0.2127 0.2395 -0.0038
H68 H -0.3074 0.2074 0.0612
Tl2_2 Tl -0.31965(3) 0.25064(2) 0.39296(3)
Pt2_2 Pt 0.91996(3) 0.289620(16) 0.35950(3)
N6_2 N -0.1229(7) 0.3976(5) 0.3791(7)
H8_2 H -0.0910 0.4312 0.3438
P1 P 0.0353(3) 0.4175(2) 0.0689(3)
F1 F -0.0085(8) 0.4951(5) 0.0195(9)
F2 F -0.0899(7) 0.3789(6) 0.0149(7)
F3 F -0.0217(7) 0.4340(4) 0.1698(7)
F4 F 0.0789(7) 0.3390(4) 0.1240(7)
F5 F 0.1592(7) 0.4529(5) 0.1275(7)
F6 F 0.0940(7) 0.3972(5) -0.0276(6)
P2 P 0.7158(3) 0.04928(17) 0.5202(3)
F7 F 0.7844(6) 0.0852(4) 0.4372(7)
F8 F 0.5947(7) 0.0916(5) 0.4650(8)
F9 F 0.7478(9) 0.1193(5) 0.5948(8)
F10 F 0.6795(10) -0.0185(5) 0.4475(10)
F11 F 0.8341(8) 0.0083(7) 0.5768(11)
F12 F 0.6437(7) 0.0116(5) 0.5990(8)
loop_
_geom_bond_atom_site_label_1
_geom_bond_atom_site_label_2
_geom_bond_site_symmetry_1
_geom_bond_site_symmetry_2
Tl1 Pt1 1_555 1_555
Tl2 Pt1 1_555 1_555
Pt1 N1 1_555 1_555
Pt2 Tl1 1_555 1_555
P1 F1 1_555 1_555
P2 F7 1_555 1_555
F2 P1 1_555 1_555
F3 P1 1_555 1_555
F4 P1 1_555 1_555
F5 P1 1_555 1_555
F6 P1 1_555 1_555
F8 P2 1_555 1_555
F9 P2 1_555 1_555
F10 P2 1_555 1_555
F11 P2 1_555 1_555
F12 P2 1_555 1_555
O1 Tl1 1_555 1_555
O2 Tl1 1_555 1_555
O3 Tl2 1_555 1_555
O4 Tl2 1_555 1_555
N1 H1 1_555 1_555
N2 Pt1 1_555 1_555
H2 N2 1_555 1_555
N3 Pt1 1_555 1_555
H3 N3 1_555 1_555
H4 N3 1_555 1_555
N4 Pt1 1_555 1_555
H5 N4 1_555 1_555
H6 N4 1_555 1_555
N5 Pt2 1_555 1_555
H7 N5 1_555 1_555
N6 H8 1_555 1_555
N7 Pt2 1_555 1_555
H9 N7 1_555 1_555
H10 N7 1_555 1_555
N8 Pt2 1_555 1_555
H11 N8 1_555 1_555
H12 N8 1_555 1_555
C1 O1 1_555 1_555
C2 C1 1_555 1_555
C3 C2 1_555 1_555
H13 C3 1_555 1_555
H14 C3 1_555 1_555
H15 C3 1_555 1_555
C4 C2 1_555 1_555
H16 C4 1_555 1_555
H17 C4 1_555 1_555
H18 C4 1_555 1_555
C5 C2 1_555 1_555
H19 C5 1_555 1_555
H20 C5 1_555 1_555
H21 C5 1_555 1_555
C6 O4 1_555 1_555
C7 C6 1_555 1_555
C8 C7 1_555 1_555
H22 C8 1_555 1_555
H23 C8 1_555 1_555
H24 C8 1_555 1_555
C9 C7 1_555 1_555
H25 C9 1_555 1_555
H26 C9 1_555 1_555
H27 C9 1_555 1_555
C10 C7 1_555 1_555
H28 C10 1_555 1_555
H29 C10 1_555 1_555
H30 C10 1_555 1_555
C11 N3 1_555 1_555
H31 C11 1_555 1_555
C12 N4 1_555 1_555
H32 C12 1_555 1_555
C13 C12 1_555 1_555
H33 C13 1_555 1_555
H34 C13 1_555 1_555
C14 C13 1_555 1_555
H35 C14 1_555 1_555
H36 C14 1_555 1_555
C15 C14 1_555 1_555
H37 C15 1_555 1_555
H38 C15 1_555 1_555
C16 C11 1_555 1_555
H39 C16 1_555 1_555
H40 C16 1_555 1_555
C17 O2 1_555 1_555
C18 C17 1_555 1_555
C19 C18 1_555 1_555
H41 C19 1_555 1_555
H42 C19 1_555 1_555
H43 C19 1_555 1_555
C20 C18 1_555 1_555
H44 C20 1_555 1_555
H45 C20 1_555 1_555
H46 C20 1_555 1_555
C21 C18 1_555 1_555
H47 C21 1_555 1_555
H48 C21 1_555 1_555
H49 C21 1_555 1_555
C22 O3 1_555 1_555
C23 C22 1_555 1_555
C24 C23 1_555 1_555
H50 C24 1_555 1_555
H51 C24 1_555 1_555
H52 C24 1_555 1_555
C25 C23 1_555 1_555
H53 C25 1_555 1_555
H54 C25 1_555 1_555
H55 C25 1_555 1_555
C26 C23 1_555 1_555
H56 C26 1_555 1_555
H57 C26 1_555 1_555
H58 C26 1_555 1_555
C27 N7 1_555 1_555
H59 C27 1_555 1_555
C28 N8 1_555 1_555
H60 C28 1_555 1_555
C29 C28 1_555 1_555
H61 C29 1_555 1_555
H62 C29 1_555 1_555
C30 C29 1_555 1_555
H63 C30 1_555 1_555
H64 C30 1_555 1_555
C31 C30 1_555 1_555
H65 C31 1_555 1_555
H66 C31 1_555 1_555
C32 C27 1_555 1_555
H67 C32 1_555 1_555
H68 C32 1_555 1_555
Tl2_2 Pt2 1_555 1_555
Pt2_2 Tl2 1_555 1_555
N6_2 Pt2 1_555 1_555
H8_2 N6_2 1_555 1_555
N1 C1 1_555 1_555
N2 C6 1_555 1_555
N5 C17 1_555 1_555
N6 C22 1_555 1_555
N6 Pt2_2 1_555 1_555
C11 C12 1_555 1_555
C15 C16 1_555 1_555
C27 C28 1_555 1_555
C31 C32 1_555 1_555

#END
