
#######################################################################
#
#                 Cambridge Crystallographic Data Centre
#                                CCDC 
#
#######################################################################
#
# If this CIF has been generated from an entry in the Cambridge 
# Structural Database, then it will include bibliographic, chemical, 
# crystal, experimental, refinement or atomic coordinate data resulting 
# from the CCDC's data processing and validation procedures.
#
#######################################################################

data_YETKUE
_symmetry_cell_setting           monoclinic
_symmetry_space_group_name_H-M   'P 21'
_symmetry_Int_Tables_number      4
_space_group_name_Hall           'P 2yb'
loop_
_symmetry_equiv_pos_site_id
_symmetry_equiv_pos_as_xyz
1 x,y,z
2 -x,1/2+y,-z
_cell_length_a                   9.697(5)
_cell_length_b                   21.176(12)
_cell_length_c                   9.896(5)
_cell_angle_alpha                90
_cell_angle_beta                 107.115(9)
_cell_angle_gamma                90
_cell_volume                     1942.09
loop_
_atom_site_label
_atom_site_type_symbol
_atom_site_fract_x
_atom_site_fract_y
_atom_site_fract_z
O1 O 1.1980(15) 0.8473(9) 1.1072(13)
C1 C 1.1763(16) 0.8577(8) 0.9815(16)
N1 N 1.0569(12) 0.8829(8) 0.9014(12)
H1 H 1.0448 0.8823 0.8117
C2 C 0.698(2) 0.8092(11) 0.9064(18)
C3 C 0.666(2) 0.7404(11) 0.942(2)
H2 H 0.6206 0.7180 0.8559
H3 H 0.6026 0.7408 1.0004
H4 H 0.7545 0.7198 0.9911
C4 C 0.8792(15) 1.0596(8) 0.9769(15)
H5 H 0.8039 1.0664 0.8872
C5 C 0.8071(15) 1.0346(8) 1.0832(16)
H6 H 0.8819 1.0286 1.1737
C6 C 0.696(2) 1.0809(8) 1.107(2)
H7 H 0.6177 1.0862 1.0199
H8 H 0.6553 1.0647 1.1787
C7 C 0.767(2) 1.1430(9) 1.153(2)
H9 H 0.8362 1.1378 1.2456
H10 H 0.6949 1.1729 1.1620
C8 C 0.847(3) 1.1716(11) 1.053(2)
H11 H 0.7776 1.1836 0.9640
H12 H 0.8992 1.2091 1.0952
C9 C 0.951(2) 1.1235(9) 1.026(3)
H13 H 1.0295 1.1173 1.1121
H14 H 0.9919 1.1397 0.9544
C10 C 0.3914(16) 0.9898(9) 0.7396(18)
C11 C 0.322(2) 1.0254(13) 0.828(3)
H15 H 0.3497 1.0690 0.8308
H16 H 0.3507 1.0085 0.9224
H17 H 0.2187 1.0221 0.7897
C12 C 0.3753(15) 0.7749(8) 0.4535(16)
H18 H 0.2833 0.7744 0.3782
C13 C 0.4916(16) 0.7951(8) 0.3892(15)
H19 H 0.5831 0.7963 0.4652
C14 C 0.507(2) 0.7480(8) 0.2808(18)
H20 H 0.5916 0.7589 0.2519
H21 H 0.4236 0.7510 0.1981
C15 C 0.522(2) 0.6796(9) 0.334(3)
H22 H 0.5172 0.6514 0.2555
H23 H 0.6164 0.6742 0.4028
C16 C 0.408(3) 0.6614(10) 0.401(3)
H24 H 0.4288 0.6196 0.4422
H25 H 0.3152 0.6600 0.3294
C17 C 0.403(2) 0.7084(8) 0.514(2)
H26 H 0.3276 0.6966 0.5551
H27 H 0.4944 0.7076 0.5889
C18 C 1.3309(16) 1.0232(9) 1.283(2)
C19 C 1.370(2) 1.0884(8) 1.2436(18)
H28 H 1.2842 1.1106 1.1930
H29 H 1.4331 1.0847 1.1850
H30 H 1.4185 1.1113 1.3280
C20 C 1.299(2) 0.8365(12) 0.922(2)
H31 H 1.3637 0.8090 0.9889
H32 H 1.3513 0.8729 0.9060
H33 H 1.2593 0.8144 0.8347
N2 N 0.8238(17) 0.8345(9) 0.9836(17)
H34 H 0.8780 0.8107 1.0481
N3 N 0.9788(14) 1.0111(7) 0.9535(14)
H35 H 1.0652 1.0153 1.0189
H36 H 0.9914 1.0168 0.8677
N4 N 0.7500(14) 0.9714(8) 1.0288(15)
H37 H 0.6697 0.9760 0.9555
H38 H 0.7266 0.9498 1.0972
N5 N 0.3158(14) 0.9599(7) 0.6213(15)
H39 H 0.2235 0.9615 0.6037
N6 N 1.4131(13) 0.9956(7) 1.3906(13)
H40 H 1.4917 1.0154 1.4320
N7 N 0.4578(13) 0.8602(7) 0.3369(13)
H41 H 0.3892 0.8594 0.2527
H42 H 0.5371 0.8784 0.3247
N8 N 0.3652(14) 0.8249(8) 0.5616(15)
H43 H 0.4357 0.8189 0.6432
H44 H 0.2796 0.8220 0.5794
O2 O 0.6071(13) 0.8368(8) 0.8131(15)
O3 O 0.5265(12) 0.9945(9) 0.7693(14)
O4 O 1.2269(16) 0.9968(8) 1.2023(16)
Pt1 Pt 0.90028(5) 0.92236(4) 0.96537(5)
Pt2 Pt 0.38627(5) 0.91199(3) 0.47931(5)
Tl1 Tl 0.69620(5) 0.92255(4) 0.67081(5)
Tl2 Tl 1.08504(5) 0.90865(3) 1.27603(6)
N6_2 N 0.4131(13) 0.9956(7) 0.3906(13)
H40_2 H 0.4917 1.0154 0.4320
Pt2_2 Pt 1.38627(5) 0.91199(3) 1.47931(5)
Tl2_2 Tl 0.08504(5) 0.90865(3) 0.27603(6)
N9 N 0.9189(18) 0.0395(16) 0.5348(19)
O5 O 0.9421(16) 0.0600(13) 0.6492(14)
O6 O 0.7796(12) 0.0298(14) 0.4632(15)
O7 O 1.0005(13) 0.0321(15) 0.4653(15)
N10 N 0.959(3) 0.7944(19) 0.524(2)
O8 O 0.897(2) 0.7994(15) 0.3891(19)
O9 O 1.073(2) 0.7651(15) 0.559(2)
O11 O 0.881(2) 0.7982(17) 0.600(2)
O10 O 0.7228(14) 0.9186(10) 0.3040(15)
loop_
_geom_bond_atom_site_label_1
_geom_bond_atom_site_label_2
_geom_bond_site_symmetry_1
_geom_bond_site_symmetry_2
O1 C1 1_555 1_555
C1 N1 1_555 1_555
N1 H1 1_555 1_555
C2 C3 1_555 1_555
C3 H2 1_555 1_555
H3 C3 1_555 1_555
H4 C3 1_555 1_555
C4 H5 1_555 1_555
C5 C4 1_555 1_555
H6 C5 1_555 1_555
C6 C5 1_555 1_555
H7 C6 1_555 1_555
H8 C6 1_555 1_555
C7 C6 1_555 1_555
H9 C7 1_555 1_555
H10 C7 1_555 1_555
C8 C7 1_555 1_555
H11 C8 1_555 1_555
H12 C8 1_555 1_555
C9 C4 1_555 1_555
H13 C9 1_555 1_555
H14 C9 1_555 1_555
C10 C11 1_555 1_555
C11 H15 1_555 1_555
H16 C11 1_555 1_555
H17 C11 1_555 1_555
C12 H18 1_555 1_555
C13 C12 1_555 1_555
H19 C13 1_555 1_555
C14 C13 1_555 1_555
H20 C14 1_555 1_555
H21 C14 1_555 1_555
C15 C14 1_555 1_555
H22 C15 1_555 1_555
H23 C15 1_555 1_555
C16 C15 1_555 1_555
H24 C16 1_555 1_555
H25 C16 1_555 1_555
C17 C12 1_555 1_555
H26 C17 1_555 1_555
H27 C17 1_555 1_555
C18 C19 1_555 1_555
C19 H28 1_555 1_555
H29 C19 1_555 1_555
H30 C19 1_555 1_555
C20 C1 1_555 1_555
H31 C20 1_555 1_555
H32 C20 1_555 1_555
H33 C20 1_555 1_555
N2 C2 1_555 1_555
H34 N2 1_555 1_555
N3 C4 1_555 1_555
H35 N3 1_555 1_555
H36 N3 1_555 1_555
N4 C5 1_555 1_555
H37 N4 1_555 1_555
H38 N4 1_555 1_555
N5 C10 1_555 1_555
H39 N5 1_555 1_555
N6 C18 1_555 1_555
H40 N6 1_555 1_555
N7 C13 1_555 1_555
H41 N7 1_555 1_555
H42 N7 1_555 1_555
N8 C12 1_555 1_555
H43 N8 1_555 1_555
H44 N8 1_555 1_555
N9 O5 1_555 1_555
N10 O8 1_555 1_555
O2 C2 1_555 1_555
O3 C10 1_555 1_555
O4 C18 1_555 1_555
O6 N9 1_555 1_555
O7 N9 1_555 1_555
O9 N10 1_555 1_555
Pt1 N1 1_555 1_555
Pt2 N5 1_555 1_555
Tl1 O2 1_555 1_555
Tl2 O1 1_555 1_555
O11 N10 1_555 1_555
N6_2 Pt2 1_555 1_555
H40_2 N6_2 1_555 1_555
Pt2_2 N6 1_555 1_555
Tl2_2 Pt2 1_555 1_555
C8 C9 1_555 1_555
C16 C17 1_555 1_555
N2 Pt1 1_555 1_555
N3 Pt1 1_555 1_555
N4 Pt1 1_555 1_555
N7 Pt2 1_555 1_555
N8 Pt2 1_555 1_555
O3 Tl1 1_555 1_555
O4 Tl2 1_555 1_555
Pt1 Tl1 1_555 1_555
Pt1 Tl2 1_555 1_555
Pt2 Tl1 1_555 1_555
Tl2 Pt2_2 1_555 1_555

#END
