
#######################################################################
#
#                 Cambridge Crystallographic Data Centre
#                                CCDC 
#
#######################################################################
#
# If this CIF has been generated from an entry in the Cambridge 
# Structural Database, then it will include bibliographic, chemical, 
# crystal, experimental, refinement or atomic coordinate data resulting 
# from the CCDC's data processing and validation procedures.
#
#######################################################################

data_YETKIS
_symmetry_cell_setting           monoclinic
_symmetry_space_group_name_H-M   'P 21'
_symmetry_Int_Tables_number      4
_space_group_name_Hall           'P 2yb'
loop_
_symmetry_equiv_pos_site_id
_symmetry_equiv_pos_as_xyz
1 x,y,z
2 -x,1/2+y,-z
_cell_length_a                   11.340(4)
_cell_length_b                   18.197(7)
_cell_length_c                   12.859(5)
_cell_angle_alpha                90
_cell_angle_beta                 100.336(7)
_cell_angle_gamma                90
_cell_volume                     2610.45
loop_
_atom_site_label
_atom_site_type_symbol
_atom_site_fract_x
_atom_site_fract_y
_atom_site_fract_z
Pt1 Pt 0.53128(3) 0.725670(19) 0.83879(3)
Pt2 Pt 0.02858(3) 0.73782(2) 0.87810(3)
Tl1 Tl 0.27657(3) 0.76767(2) 0.84031(3)
Tl2 Tl 0.78569(3) 0.69032(2) 0.89609(3)
N1 N 0.5449(7) 0.7377(6) 0.9960(6)
H1 H 0.6136 0.7537 1.0269
N2 N 0.4859(8) 0.6147(5) 0.8318(7)
H2 H 0.5202 0.5914 0.8914
H3 H 0.4059 0.6089 0.8231
N3 N 0.5339(8) 0.7098(6) 0.6814(7)
H4 H 0.4854 0.7429 0.6431
H5 H 0.6087 0.7172 0.6694
N4 N 0.5809(8) 0.8308(5) 0.8335(7)
H6 H 0.5363 0.8581 0.7878
N5 N 0.0289(7) 0.6504(6) 0.7808(7)
H7 H -0.0408 0.6336 0.7538
N6 N 0.0193(7) 0.8208(5) 0.9861(7)
H8 H 0.0562 0.8612 0.9674
H9 H -0.0580 0.8322 0.9859
N7 N 0.1020(7) 0.6795(6) 1.0128(7)
H10 H 0.0791 0.6322 1.0062
H11 H 0.1826 0.6813 1.0227
N8 N 0.9569(8) 0.7975(6) 0.7516(7)
H12 H 0.9906 0.8385 0.7413
O1 O 0.3645(7) 0.7028(5) 1.0307(6)
O2 O 0.2250(7) 0.6292(5) 0.7917(7)
O3 O 0.7916(6) 0.7265(5) 0.6991(6)
O4 O 0.7533(6) 0.8271(5) 0.9528(6)
C1 C 0.4702(9) 0.7261(7) 1.0606(8)
C2 C 0.5150(12) 0.7442(9) 1.1791(8)
C3 C 0.644(2) 0.7676(18) 1.2062(15)
H14 H 0.6522 0.8163 1.1794
H15 H 0.6927 0.7341 1.1749
H16 H 0.6689 0.7675 1.2816
C4 C 0.505(2) 0.6744(18) 1.2431(15)
H17 H 0.5615 0.6387 1.2280
H18 H 0.4251 0.6548 1.2244
H19 H 0.5208 0.6860 1.3172
C5 C 0.4393(19) 0.8073(13) 1.2064(16)
H20 H 0.4796 0.8275 1.2723
H21 H 0.3612 0.7904 1.2142
H22 H 0.4316 0.8445 1.1526
C6 C 0.5329(9) 0.5853(7) 0.7384(9)
H23 H 0.6206 0.5866 0.7559
C7 C 0.4957(12) 0.5053(7) 0.7100(11)
H24 H 0.5239 0.4738 0.7701
H25 H 0.4090 0.5020 0.6940
C8 C 0.5471(15) 0.4792(10) 0.6158(13)
H26 H 0.5162 0.4306 0.5952
H27 H 0.6336 0.4757 0.6351
C9 C 0.5135(15) 0.5333(11) 0.5202(13)
H28 H 0.5547 0.5180 0.4639
H29 H 0.4280 0.5300 0.4937
C10 C 0.5448(13) 0.6114(10) 0.5478(10)
H30 H 0.5121 0.6427 0.4885
H31 H 0.6313 0.6169 0.5610
C11 C 0.4951(10) 0.6363(8) 0.6470(8)
H32 H 0.4074 0.6360 0.6295
C12 C 0.1181(9) 0.6160(6) 0.7531(8)
C13 C 0.0880(10) 0.5538(6) 0.6709(9)
C14 C -0.0434(11) 0.5377(9) 0.6390(12)
H33 H -0.0856 0.5813 0.6118
H34 H -0.0738 0.5208 0.6998
H35 H -0.0546 0.5002 0.5856
C15 C 0.1490(13) 0.4849(7) 0.7245(11)
H36 H 0.1205 0.4766 0.7894
H37 H 0.2342 0.4919 0.7392
H38 H 0.1299 0.4432 0.6788
C16 C 0.1422(12) 0.5765(7) 0.5744(9)
H39 H 0.1177 0.5428 0.5171
H40 H 0.2279 0.5758 0.5939
H41 H 0.1160 0.6251 0.5525
C17 C 0.0768(10) 0.7977(7) 1.0939(10)
H42 H 0.1631 0.8070 1.1016
C18 C 0.0306(12) 0.8393(10) 1.1812(10)
H43 H -0.0558 0.8341 1.1723
H44 H 0.0493 0.8911 1.1774
C19 C 0.0903(14) 0.8079(12) 1.2898(11)
H45 H 0.1758 0.8174 1.3006
H46 H 0.0583 0.8330 1.3452
C20 C 0.0707(16) 0.7300(12) 1.2979(11)
H47 H -0.0144 0.7210 1.2935
H48 H 0.1114 0.7129 1.3665
C21 C 0.1161(13) 0.6850(11) 1.2104(9)
H49 H 0.2026 0.6891 1.2186
H50 H 0.0961 0.6335 1.2162
C22 C 0.0583(9) 0.7139(7) 1.1040(8)
H51 H -0.0280 0.7047 1.0954
C23 C 0.8602(9) 0.7775(6) 0.6824(8)
C24 C 0.8321(12) 0.8162(9) 0.5737(10)
C25 C 0.8745(18) 0.7645(13) 0.4950(13)
H52 H 0.8810 0.7911 0.4318
H53 H 0.8179 0.7252 0.4781
H54 H 0.9514 0.7447 0.5255
C26 C 0.6981(17) 0.8256(13) 0.5413(14)
H55 H 0.6787 0.8770 0.5383
H56 H 0.6582 0.8018 0.5919
H57 H 0.6722 0.8040 0.4729
C27 C 0.8986(17) 0.8867(12) 0.5727(14)
H58 H 0.8594 0.9168 0.5154
H59 H 0.9792 0.8767 0.5635
H60 H 0.9000 0.9120 0.6384
C28 C 0.6744(10) 0.8634(7) 0.8921(9)
C29 C 0.6834(11) 0.9472(7) 0.8880(10)
C30 C 0.8176(14) 0.9666(10) 0.903(3)
H61 H 0.8305 1.0007 0.8491
H62 H 0.8633 0.9228 0.8976
H63 H 0.8428 0.9885 0.9712
C31 C 0.631(3) 0.9776(14) 0.980(2)
H64 H 0.5453 0.9753 0.9630
H65 H 0.6559 1.0277 0.9921
H66 H 0.6592 0.9490 1.0419
C32 C 0.615(3) 0.9763(14) 0.783(2)
H67 H 0.5335 0.9869 0.7895
H68 H 0.6152 0.9399 0.7287
H69 H 0.6524 1.0204 0.7639
Pt2_2 Pt 1.02858(3) 0.73782(2) 0.87810(3)
Tl2_2 Tl -0.21431(3) 0.69032(2) 0.89609(3)
N8_2 N -0.0431(8) 0.7975(6) 0.7516(7)
H12_2 H -0.0094 0.8385 0.7413
Cl1 Cl 0.2943(3) 0.8344(3) 0.5639(4)
O5 O 0.3807(14) 0.8607(10) 0.6480(13)
O6 O 0.2116(17) 0.7871(12) 0.6064(13)
O7 O 0.3600(15) 0.7935(16) 0.4990(18)
O8 O 0.2339(11) 0.8916(8) 0.5074(10)
Cl2 Cl 0.7883(5) 0.5010(3) 0.9648(4)
O9 O 0.6841(10) 0.5384(8) 0.9846(11)
O10 O 0.768(3) 0.4426(9) 1.003(2)
O11 O 0.8980(16) 0.5416(14) 1.024(2)
O12 O 0.789(2) 0.4964(18) 0.8597(14)
O13 O 0.097(3) -0.0637(19) 0.762(3)
H13 H 0.1387 -0.0923 0.8059
C33 C 0.135(5) 0.046(4) 0.712(5)
H70 H 0.1959 0.0718 0.6832
H71 H 0.1267 0.0680 0.7782
H72 H 0.0600 0.0499 0.6635
C34 C 0.163(4) -0.019(3) 0.725(4)
H73 H 0.2402 -0.0198 0.7721
H74 H 0.1752 -0.0376 0.6577
loop_
_geom_bond_atom_site_label_1
_geom_bond_atom_site_label_2
_geom_bond_site_symmetry_1
_geom_bond_site_symmetry_2
Pt1 Tl1 1_555 1_555
Pt2 Tl1 1_555 1_555
Tl1 O1 1_555 1_555
Tl2 Pt1 1_555 1_555
Cl1 O5 1_555 1_555
Cl2 O9 1_555 1_555
N1 Pt1 1_555 1_555
H1 N1 1_555 1_555
N2 Pt1 1_555 1_555
H2 N2 1_555 1_555
H3 N2 1_555 1_555
N3 Pt1 1_555 1_555
H4 N3 1_555 1_555
H5 N3 1_555 1_555
N4 Pt1 1_555 1_555
H6 N4 1_555 1_555
N5 Pt2 1_555 1_555
H7 N5 1_555 1_555
N6 Pt2 1_555 1_555
H8 N6 1_555 1_555
H9 N6 1_555 1_555
N7 Pt2 1_555 1_555
H10 N7 1_555 1_555
H11 N7 1_555 1_555
N8 H12 1_555 1_555
O1 C1 1_555 1_555
O2 Tl1 1_555 1_555
O3 Tl2 1_555 1_555
O4 Tl2 1_555 1_555
O6 Cl1 1_555 1_555
O7 Cl1 1_555 1_555
O8 Cl1 1_555 1_555
O10 Cl2 1_555 1_555
O11 Cl2 1_555 1_555
O12 Cl2 1_555 1_555
O13 H13 1_555 1_555
C1 N1 1_555 1_555
C2 C1 1_555 1_555
C3 C2 1_555 1_555
H14 C3 1_555 1_555
H15 C3 1_555 1_555
H16 C3 1_555 1_555
C4 C2 1_555 1_555
H17 C4 1_555 1_555
H18 C4 1_555 1_555
H19 C4 1_555 1_555
C5 C2 1_555 1_555
H20 C5 1_555 1_555
H21 C5 1_555 1_555
H22 C5 1_555 1_555
C6 N2 1_555 1_555
H23 C6 1_555 1_555
C7 C6 1_555 1_555
H24 C7 1_555 1_555
H25 C7 1_555 1_555
C8 C7 1_555 1_555
H26 C8 1_555 1_555
H27 C8 1_555 1_555
C9 C8 1_555 1_555
H28 C9 1_555 1_555
H29 C9 1_555 1_555
C10 C9 1_555 1_555
H30 C10 1_555 1_555
H31 C10 1_555 1_555
C11 N3 1_555 1_555
H32 C11 1_555 1_555
C12 N5 1_555 1_555
C13 C12 1_555 1_555
C14 C13 1_555 1_555
H33 C14 1_555 1_555
H34 C14 1_555 1_555
H35 C14 1_555 1_555
C15 C13 1_555 1_555
H36 C15 1_555 1_555
H37 C15 1_555 1_555
H38 C15 1_555 1_555
C16 C13 1_555 1_555
H39 C16 1_555 1_555
H40 C16 1_555 1_555
H41 C16 1_555 1_555
C17 N6 1_555 1_555
H42 C17 1_555 1_555
C18 C17 1_555 1_555
H43 C18 1_555 1_555
H44 C18 1_555 1_555
C19 C18 1_555 1_555
H45 C19 1_555 1_555
H46 C19 1_555 1_555
C20 C19 1_555 1_555
H47 C20 1_555 1_555
H48 C20 1_555 1_555
C21 C20 1_555 1_555
H49 C21 1_555 1_555
H50 C21 1_555 1_555
C22 N7 1_555 1_555
H51 C22 1_555 1_555
C23 N8 1_555 1_555
C24 C23 1_555 1_555
C25 C24 1_555 1_555
H52 C25 1_555 1_555
H53 C25 1_555 1_555
H54 C25 1_555 1_555
C26 C24 1_555 1_555
H55 C26 1_555 1_555
H56 C26 1_555 1_555
H57 C26 1_555 1_555
C27 C24 1_555 1_555
H58 C27 1_555 1_555
H59 C27 1_555 1_555
H60 C27 1_555 1_555
C28 N4 1_555 1_555
C29 C28 1_555 1_555
C30 C29 1_555 1_555
H61 C30 1_555 1_555
H62 C30 1_555 1_555
H63 C30 1_555 1_555
C31 C29 1_555 1_555
H64 C31 1_555 1_555
H65 C31 1_555 1_555
H66 C31 1_555 1_555
C32 C29 1_555 1_555
H67 C32 1_555 1_555
H68 C32 1_555 1_555
H69 C32 1_555 1_555
C33 H70 1_555 1_555
H71 C33 1_555 1_555
H72 C33 1_555 1_555
C34 O13 1_555 1_555
H73 C34 1_555 1_555
H74 C34 1_555 1_555
Pt2_2 Tl2 1_555 1_555
Tl2_2 Pt2 1_555 1_555
N8_2 Pt2 1_555 1_555
H12_2 N8_2 1_555 1_555
N8 Pt2_2 1_555 1_555
O2 C12 1_555 1_555
O3 C23 1_555 1_555
O4 C28 1_555 1_555
C6 C11 1_555 1_555
C10 C11 1_555 1_555
C17 C22 1_555 1_555
C21 C22 1_555 1_555
C33 C34 1_555 1_555

#END
