
#######################################################################
#
#                 Cambridge Crystallographic Data Centre
#                                CCDC 
#
#######################################################################
#
# If this CIF has been generated from an entry in the Cambridge 
# Structural Database, then it will include bibliographic, chemical, 
# crystal, experimental, refinement or atomic coordinate data resulting 
# from the CCDC's data processing and validation procedures.
#
#######################################################################

data_YETLAL
_symmetry_cell_setting           monoclinic
_symmetry_space_group_name_H-M   'P 21'
_symmetry_Int_Tables_number      4
_space_group_name_Hall           'P 2yb'
loop_
_symmetry_equiv_pos_site_id
_symmetry_equiv_pos_as_xyz
1 x,y,z
2 -x,1/2+y,-z
_cell_length_a                   11.830(7)
_cell_length_b                   21.660(12)
_cell_length_c                   12.683(7)
_cell_angle_alpha                90
_cell_angle_beta                 103.340(10)
_cell_angle_gamma                90
_cell_volume                     3162.18
loop_
_atom_site_label
_atom_site_type_symbol
_atom_site_fract_x
_atom_site_fract_y
_atom_site_fract_z
Tl1 Tl 0.43625(6) 0.64365(5) 0.22547(7)
Tl2 Tl -0.03438(7) 0.62836(5) 0.33135(9)
Pt1 Pt 0.20658(5) 0.65185(4) 0.29191(6)
Pt2 Pt 0.70069(5) 0.64713(5) 0.31059(6)
Fe1 Fe 0.1956(3) 0.73197(15) 0.7590(3)
O1 O 0.4507(10) 0.6401(7) 0.4725(11)
O2 O 0.0888(14) 0.5154(8) 0.2959(16)
O3 O 0.5393(14) 0.5483(7) 0.1551(16)
O4 O 0.8686(15) 0.7120(9) 0.1659(16)
O5 O 0.0105(14) 0.6471(10) 0.5373(14)
O6 O 0.0391(15) 0.7381(8) 0.4617(16)
O7 O 0.2871(14) 0.6326(7) 1.0112(13)
O8 O 0.3371(14) 0.7283(8) 1.0572(17)
C1 C 0.128(4) 0.497(2) 0.024(4)
H1 H 0.1074 0.4655 -0.0303
H2 H 0.2106 0.5031 0.0408
H3 H 0.0898 0.5349 -0.0028
C2 C 0.264(3) 0.899(3) 0.311(3)
H4 H 0.3371 0.9052 0.2897
H5 H 0.2504 0.9342 0.3524
C3 C 0.653(4) 0.646(3) -0.070(5)
H6 H 0.6550 0.6053 -0.0377
H7 H 0.6524 0.6415 -0.1453
H8 H 0.5845 0.6670 -0.0621
N1 N 0.2747(16) 0.5932(8) 0.4054(19)
H17 H 0.2240 0.5901 0.4483
N2 N 0.1607(16) 0.5805(7) 0.1875(18)
H18 H 0.2242 0.5720 0.1624
N3 N 0.1392(16) 0.7194(8) 0.1790(19)
H19 H 0.1767 0.7184 0.1248
H20 H 0.0636 0.7115 0.1506
N4 N 0.2542(14) 0.7267(7) 0.3868(17)
H21 H 0.2011 0.7342 0.4258
H22 H 0.3230 0.7196 0.4331
N5 N 0.6905(16) 0.5552(9) 0.2963(18)
H23 H 0.7388 0.5342 0.3439
N6 N 0.7094(13) 0.6545(10) 0.1518(14)
H24 H 0.7112 0.6156 0.1275
N7 N 0.7031(16) 0.7418(9) 0.3287(18)
H25 H 0.7758 0.7560 0.3343
H26 H 0.6568 0.7593 0.2700
N8 N 0.6950(14) 0.6472(10) 0.4710(14)
H27 H 0.6245 0.6349 0.4783
H28 H 0.7487 0.6211 0.5086
C7 C 0.3810(19) 0.5954(10) 0.474(2)
C8 C 0.4235(19) 0.5406(10) 0.548(2)
C9 C 0.5123(19) 0.5645(11) 0.653(2)
H29 H 0.5742 0.5863 0.6325
H30 H 0.4721 0.5919 0.6917
H31 H 0.5438 0.5305 0.6997
C10 C 0.492(2) 0.4972(11) 0.490(2)
H32 H 0.5394 0.4685 0.5388
H33 H 0.4331 0.4750 0.4395
H34 H 0.5388 0.5203 0.4523
C11 C 0.330(2) 0.5055(11) 0.585(2)
H35 H 0.3604 0.4651 0.6069
H36 H 0.3040 0.5245 0.6437
H37 H 0.2665 0.5020 0.5232
C12 C 0.1184(18) 0.5274(8) 0.2073(19)
C13 C 0.0902(16) 0.4773(8) 0.1255(17)
C14 C 0.1651(19) 0.4211(10) 0.164(2)
H38 H 0.1454 0.3887 0.1110
H39 H 0.1518 0.4072 0.2317
H40 H 0.2455 0.4318 0.1726
C15 C -0.0387(15) 0.4647(12) 0.097(3)
H41 H -0.0552 0.4324 0.0433
H42 H -0.0795 0.5015 0.0677
H43 H -0.0634 0.4521 0.1603
C16 C 0.151(2) 0.7814(10) 0.229(2)
H44 H 0.0863 0.7876 0.2637
C17 C 0.264(2) 0.7820(10) 0.317(2)
H45 H 0.3306 0.7766 0.2842
C18 C 0.273(2) 0.8456(10) 0.376(2)
H46 H 0.2127 0.8475 0.4159
H47 H 0.3472 0.8471 0.4282
C19 C 0.1669(17) 0.8938(10) 0.2095(19)
H48 H 0.1790 0.9266 0.1612
H49 H 0.0953 0.9033 0.2309
C20 C 0.144(2) 0.8328(10) 0.140(2)
H50 H 0.0684 0.8334 0.0900
H51 H 0.2033 0.8267 0.0987
C21 C 0.619(2) 0.5243(11) 0.223(2)
C22 C 0.621(2) 0.4544(11) 0.2056(18)
C23 C 0.656(2) 0.4394(12) 0.100(2)
H52 H 0.6006 0.4122 0.0559
H53 H 0.6625 0.4765 0.0598
H54 H 0.7307 0.4193 0.1184
C24 C 0.705(2) 0.4250(13) 0.302(2)
H55 H 0.6901 0.3817 0.2903
H56 H 0.7861 0.4329 0.3071
H57 H 0.6847 0.4376 0.3674
C25 C 0.501(2) 0.4225(13) 0.200(3)
H58 H 0.4444 0.4532 0.2075
H59 H 0.5082 0.3927 0.2569
H60 H 0.4753 0.4022 0.1310
C26 C 0.779(2) 0.6843(12) 0.1092(19)
C27 C 0.7606(18) 0.6820(12) -0.0129(19)
C28 C 0.787(3) 0.7436(14) -0.049(3)
H61 H 0.7755 0.7738 0.0028
H62 H 0.7366 0.7524 -0.1182
H63 H 0.8664 0.7448 -0.0552
C29 C 0.662(2) 0.7596(10) 0.429(2)
H64 H 0.5776 0.7538 0.4135
C30 C 0.719(2) 0.7112(10) 0.512(2)
H65 H 0.8031 0.7175 0.5271
C31 C 0.680(2) 0.7220(10) 0.621(2)
H66 H 0.5982 0.7132 0.6104
H67 H 0.7228 0.6943 0.6761
C32 C 0.704(2) 0.7882(10) 0.658(2)
H68 H 0.6769 0.7950 0.7234
H69 H 0.7869 0.7960 0.6740
C33 C 0.644(2) 0.8323(11) 0.572(2)
H70 H 0.6564 0.8743 0.5983
H71 H 0.5606 0.8244 0.5551
C34 C 0.689(2) 0.8256(11) 0.467(2)
H72 H 0.6499 0.8546 0.4118
H73 H 0.7718 0.8333 0.4814
C35 C 0.039(2) 0.7354(12) 0.647(2)
C36 C 0.025(2) 0.7058(12) 0.748(3)
H74 H -0.0023 0.6661 0.7557
C37 C 0.062(2) 0.7514(12) 0.830(3)
H75 H 0.0644 0.7453 0.9035
C38 C 0.091(2) 0.8036(12) 0.789(2)
H76 H 0.1147 0.8393 0.8284
C39 C 0.083(2) 0.7978(13) 0.675(3)
H77 H 0.1022 0.8272 0.6281
C40 C 0.330(2) 0.6944(12) 0.876(2)
C41 C 0.360(2) 0.7497(12) 0.834(2)
H78 H 0.3801 0.7859 0.8730
C42 C 0.355(2) 0.7422(12) 0.727(3)
H79 H 0.3799 0.7716 0.6838
C43 C 0.311(2) 0.6866(13) 0.691(3)
H80 H 0.2970 0.6715 0.6205
C44 C 0.2897(19) 0.6556(13) 0.787(2)
H81 H 0.2556 0.6170 0.7883
C45 C 0.027(2) 0.7064(13) 0.545(3)
C46 C 0.320(2) 0.6855(13) 0.991(2)
C47 C 0.853(2) 0.6404(13) -0.048(2)
H82 H 0.8290 0.5980 -0.0501
H83 H 0.9266 0.6449 0.0028
H84 H 0.8612 0.6526 -0.1188
Tl2_2 Tl 0.96562(7) 0.62836(5) 0.33135(9)
Pt2_2 Pt -0.29931(5) 0.64713(5) 0.31059(6)
O9 O 0.5146(18) 0.8000(10) 0.174(2)
O10 O 0.4095(18) 0.5268(10) 0.951(2)
O11 O 0.9630(18) 0.8509(10) 0.410(2)
O12 O 0.6322(18) 0.9055(10) 0.136(2)
O13 O 0.879(2) 0.5493(11) 0.563(2)
O15 O 0.0032(18) 0.4581(10) 0.463(2)
O16 O 0.8469(19) 0.8467(10) 0.197(2)
O14? O 0.914(6) 0.541(3) 0.696(7)
C4? C 0.108(5) 0.496(3) 0.016(3)
H9? H 0.0864 0.4629 -0.0346
H10? H 0.1878 0.5068 0.0216
H11? H 0.0599 0.5316 -0.0099
C5? C 0.292(3) 0.893(3) 0.280(4)
H12? H 0.3177 0.9332 0.3084
H13? H 0.3470 0.8762 0.2410
C6? C 0.632(3) 0.682(3) -0.069(6)
H14? H 0.5989 0.6424 -0.0573
H15? H 0.6229 0.6886 -0.1449
H16? H 0.5930 0.7138 -0.0387
loop_
_geom_bond_atom_site_label_1
_geom_bond_atom_site_label_2
_geom_bond_site_symmetry_1
_geom_bond_site_symmetry_2
Tl1 Pt1 1_555 1_555
Tl2 Pt1 1_555 1_555
Pt1 N1 1_555 1_555
Pt2 Tl1 1_555 1_555
Fe1 C35 1_555 1_555
O1 C7 1_555 1_555
O2 C12 1_555 1_555
O3 Tl1 1_555 1_555
O4 C26 1_555 1_555
O5 Tl2 1_555 1_555
O6 C45 1_555 1_555
O7 C46 1_555 1_555
O8 C46 1_555 1_555
C1 H1 1_555 1_555
H2 C1 1_555 1_555
H3 C1 1_555 1_555
C2 H4 1_555 1_555
H5 C2 1_555 1_555
C3 H6 1_555 1_555
H7 C3 1_555 1_555
H8 C3 1_555 1_555
N1 H17 1_555 1_555
N2 Pt1 1_555 1_555
H18 N2 1_555 1_555
N3 Pt1 1_555 1_555
H19 N3 1_555 1_555
H20 N3 1_555 1_555
N4 Pt1 1_555 1_555
H21 N4 1_555 1_555
H22 N4 1_555 1_555
N5 Pt2 1_555 1_555
H23 N5 1_555 1_555
N6 Pt2 1_555 1_555
H24 N6 1_555 1_555
N7 Pt2 1_555 1_555
H25 N7 1_555 1_555
H26 N7 1_555 1_555
N8 Pt2 1_555 1_555
H27 N8 1_555 1_555
H28 N8 1_555 1_555
C7 N1 1_555 1_555
C8 C7 1_555 1_555
C9 C8 1_555 1_555
H29 C9 1_555 1_555
H30 C9 1_555 1_555
H31 C9 1_555 1_555
C10 C8 1_555 1_555
H32 C10 1_555 1_555
H33 C10 1_555 1_555
H34 C10 1_555 1_555
C11 C8 1_555 1_555
H35 C11 1_555 1_555
H36 C11 1_555 1_555
H37 C11 1_555 1_555
C12 N2 1_555 1_555
C13 C1 1_555 1_555
C14 C13 1_555 1_555
H38 C14 1_555 1_555
H39 C14 1_555 1_555
H40 C14 1_555 1_555
C15 C13 1_555 1_555
H41 C15 1_555 1_555
H42 C15 1_555 1_555
H43 C15 1_555 1_555
C16 N3 1_555 1_555
H44 C16 1_555 1_555
C17 N4 1_555 1_555
H45 C17 1_555 1_555
C18 C2 1_555 1_555
H46 C18 1_555 1_555
H47 C18 1_555 1_555
C19 C2 1_555 1_555
H48 C19 1_555 1_555
H49 C19 1_555 1_555
C20 C16 1_555 1_555
H50 C20 1_555 1_555
H51 C20 1_555 1_555
C21 O3 1_555 1_555
C22 C21 1_555 1_555
C23 C22 1_555 1_555
H52 C23 1_555 1_555
H53 C23 1_555 1_555
H54 C23 1_555 1_555
C24 C22 1_555 1_555
H55 C24 1_555 1_555
H56 C24 1_555 1_555
H57 C24 1_555 1_555
C25 C22 1_555 1_555
H58 C25 1_555 1_555
H59 C25 1_555 1_555
H60 C25 1_555 1_555
C26 N6 1_555 1_555
C27 C3 1_555 1_555
C28 C27 1_555 1_555
H61 C28 1_555 1_555
H62 C28 1_555 1_555
H63 C28 1_555 1_555
C29 N7 1_555 1_555
H64 C29 1_555 1_555
C30 N8 1_555 1_555
H65 C30 1_555 1_555
C31 C30 1_555 1_555
H66 C31 1_555 1_555
H67 C31 1_555 1_555
C32 C31 1_555 1_555
H68 C32 1_555 1_555
H69 C32 1_555 1_555
C33 C32 1_555 1_555
H70 C33 1_555 1_555
H71 C33 1_555 1_555
C34 C29 1_555 1_555
H72 C34 1_555 1_555
H73 C34 1_555 1_555
C35 C36 1_555 1_555
C36 Fe1 1_555 1_555
H74 C36 1_555 1_555
C37 Fe1 1_555 1_555
H75 C37 1_555 1_555
C38 Fe1 1_555 1_555
H76 C38 1_555 1_555
C39 Fe1 1_555 1_555
H77 C39 1_555 1_555
C40 Fe1 1_555 1_555
C41 Fe1 1_555 1_555
H78 C41 1_555 1_555
C42 Fe1 1_555 1_555
H79 C42 1_555 1_555
C43 Fe1 1_555 1_555
H80 C43 1_555 1_555
C44 Fe1 1_555 1_555
H81 C44 1_555 1_555
C45 O5 1_555 1_555
C46 C40 1_555 1_555
C47 C27 1_555 1_555
H82 C47 1_555 1_555
H83 C47 1_555 1_555
H84 C47 1_555 1_555
Tl2_2 Pt2 1_555 1_555
Pt2_2 Tl2 1_555 1_555
N5 C21 1_555 1_555
C12 C13 1_555 1_555
C16 C17 1_555 1_555
C17 C18 1_555 1_555
C19 C20 1_555 1_555
C26 C27 1_555 1_555
C29 C30 1_555 1_555
C33 C34 1_555 1_555
C35 C39 1_555 1_555
C35 C45 1_555 1_555
C36 C37 1_555 1_555
C37 C38 1_555 1_555
C38 C39 1_555 1_555
C40 C41 1_555 1_555
C40 C44 1_555 1_555
C41 C42 1_555 1_555
C42 C43 1_555 1_555
C43 C44 1_555 1_555

#END
