
#######################################################################
#
#                 Cambridge Crystallographic Data Centre
#                                CCDC 
#
#######################################################################
#
# If this CIF has been generated from an entry in the Cambridge 
# Structural Database, then it will include bibliographic, chemical, 
# crystal, experimental, refinement or atomic coordinate data resulting 
# from the CCDC's data processing and validation procedures.
#
#######################################################################

data_YETMIT
_symmetry_cell_setting           monoclinic
_symmetry_space_group_name_H-M   'P 21/c'
_symmetry_Int_Tables_number      14
_space_group_name_Hall           '-P 2ybc'
loop_
_symmetry_equiv_pos_site_id
_symmetry_equiv_pos_as_xyz
1 x,y,z
2 -x,1/2+y,1/2-z
3 -x,-y,-z
4 x,1/2-y,1/2+z
_cell_length_a                   10.360(2)
_cell_length_b                   10.247(1)
_cell_length_c                   21.005(4)
_cell_angle_alpha                90
_cell_angle_beta                 97.73(2)
_cell_angle_gamma                90
_cell_volume                     2209.61
loop_
_atom_site_label
_atom_site_type_symbol
_atom_site_fract_x
_atom_site_fract_y
_atom_site_fract_z
Hg1 Hg 0.4901(1) 0.0979(1) 0.1803(1)
P1 P 0.2928(3) -0.0153(3) 0.1489(1)
O1 O 0.4590(11) 0.3388(8) 0.1442(4)
O2 O 0.4716(10) 0.3070(8) 0.2415(4)
O3 O 0.4274(11) 0.5094(9) 0.2066(4)
O4 O 0.6424(13) 0.1053(12) 0.0950(6)
O5 O 0.6982(7) 0.1655(10) 0.1902(4)
O6 O 0.8392(10) 0.1865(13) 0.1288(7)
N1 N 0.4494(10) 0.3926(11) 0.1962(6)
N2 N 0.7304(12) 0.1484(12) 0.1341(7)
C1 C 0.1953(10) 0.0771(10) 0.0840(5)
C2 C 0.1526(10) 0.2110(10) 0.1059(5)
C3 C 0.0693(11) 0.2827(12) 0.0506(5)
C4 C 0.1402(11) 0.2937(12) -0.0082(5)
C5 C 0.1836(12) 0.1622(12) -0.0283(5)
C6 C 0.2679(12) 0.0912(11) 0.0259(5)
C7 C 0.3293(9) -0.1798(10) 0.1200(5)
C8 C 0.2171(11) -0.2390(10) 0.0755(6)
C9 C 0.2456(12) -0.3791(11) 0.0567(7)
C10 C 0.3723(14) -0.3803(13) 0.0245(7)
C11 C 0.4850(12) -0.3249(13) 0.0686(6)
C12 C 0.4569(11) -0.1857(11) 0.0886(6)
C13 C 0.2020(11) -0.0365(11) 0.2181(5)
C14 C 0.0563(13) -0.0614(13) 0.1982(7)
C15 C -0.0129(15) -0.0808(13) 0.2575(7)
C16 C 0.0080(15) 0.0361(16) 0.3025(7)
C17 C 0.1510(17) 0.0550(17) 0.3240(6)
C18 C 0.2245(14) 0.0768(13) 0.2660(6)
H1 H 0.1178(10) 0.0275(10) 0.0706(5)
H2 H 0.1032(10) 0.2001(10) 0.1411(5)
H3 H 0.2282(10) 0.2624(10) 0.1208(5)
H4 H 0.0488(11) 0.3686(12) 0.0646(5)
H5 H 0.0110(11) 0.2364(12) 0.0393(5)
H6 H 0.0832(11) 0.3322(12) -0.0430(5)
H7 H 0.2146(11) 0.3495(12) 0.0015(5)
H8 H 0.2319(12) 0.1725(12) -0.0638(5)
H9 H 0.1083(12) 0.1099(12) -0.0425(5)
H10 H 0.2904(12) 0.0064(11) 0.0114(5)
H11 H 0.3471(12) 0.1391(11) 0.0378(5)
H12 H 0.3429(9) -0.2349(10) 0.1572(5)
H13 H 0.2002(11) -0.1867(10) 0.0373(6)
H14 H 0.1402(11) -0.2381(10) 0.0964(6)
H15 H 0.1741(12) -0.4123(11) 0.0273(7)
H16 H 0.2562(12) -0.4336(11) 0.0942(7)
H17 H 0.3920(14) -0.4689(13) 0.0136(7)
H18 H 0.3590(14) -0.3308(13) 0.0143(7)
H19 H 0.5614(12) -0.3252(13) 0.0473(6)
H20 H 0.5022(12) -0.3786(13) 0.1062(6)
H21 H 0.5284(11) -0.1544(11) 0.1186(6)
H22 H 0.4487(11) -0.1299(11) 0.0515(6)
H23 H 0.2365(11) -0.1133(11) 0.2405(5)
H24 H 0.0449(13) -0.1378(13) 0.1715(7)
H25 H 0.0184(13) 0.0113(13) 0.1736(7)
H26 H -0.1045(15) -0.0926(13) 0.2442(7)
H27 H 0.0199(15) -0.1580(13) 0.2800(7)
H28 H -0.0363(15) 0.0221(16) 0.3392(7)
H29 H -0.0275(15) 0.1130(16) 0.2807(7)
H30 H 0.1635(17) 0.1290(17) 0.3522(6)
H31 H 0.1854(17) -0.0205(17) 0.3474(6)
H32 H 0.3160(14) 0.0849(13) 0.2807(6)
H33 H 0.1955(14) 0.1567(13) 0.2449(6)
O3A O 0.5726(11) 0.0094(9) 0.2934(4)
Hg1A Hg 0.5099(1) 0.5979(1) 0.3197(1)
loop_
_geom_bond_atom_site_label_1
_geom_bond_atom_site_label_2
_geom_bond_site_symmetry_1
_geom_bond_site_symmetry_2
Hg1 P1 1_555 1_555
P1 C1 1_555 1_555
O1 Hg1 1_555 1_555
O2 Hg1 1_555 1_555
O3 N1 1_555 1_555
O4 Hg1 1_555 1_555
O5 Hg1 1_555 1_555
O6 N2 1_555 1_555
N1 O1 1_555 1_555
N2 O4 1_555 1_555
C1 C2 1_555 1_555
C2 C3 1_555 1_555
C3 C4 1_555 1_555
C4 C5 1_555 1_555
C5 C6 1_555 1_555
C6 C1 1_555 1_555
C7 P1 1_555 1_555
C8 C7 1_555 1_555
C9 C8 1_555 1_555
C10 C9 1_555 1_555
C11 C10 1_555 1_555
C12 C7 1_555 1_555
C13 P1 1_555 1_555
C14 C13 1_555 1_555
C15 C14 1_555 1_555
C16 C15 1_555 1_555
C17 C16 1_555 1_555
C18 C13 1_555 1_555
H1 C1 1_555 1_555
H2 C2 1_555 1_555
H3 C2 1_555 1_555
H4 C3 1_555 1_555
H5 C3 1_555 1_555
H6 C4 1_555 1_555
H7 C4 1_555 1_555
H8 C5 1_555 1_555
H9 C5 1_555 1_555
H10 C6 1_555 1_555
H11 C6 1_555 1_555
H12 C7 1_555 1_555
H13 C8 1_555 1_555
H14 C8 1_555 1_555
H15 C9 1_555 1_555
H16 C9 1_555 1_555
H17 C10 1_555 1_555
H18 C10 1_555 1_555
H19 C11 1_555 1_555
H20 C11 1_555 1_555
H21 C12 1_555 1_555
H22 C12 1_555 1_555
H23 C13 1_555 1_555
H24 C14 1_555 1_555
H25 C14 1_555 1_555
H26 C15 1_555 1_555
H27 C15 1_555 1_555
H28 C16 1_555 1_555
H29 C16 1_555 1_555
H30 C17 1_555 1_555
H31 C17 1_555 1_555
H32 C18 1_555 1_555
H33 C18 1_555 1_555
O3A Hg1 1_555 1_555
Hg1A O3 1_555 1_555
O2 N1 1_555 1_555
O5 N2 1_555 1_555
C11 C12 1_555 1_555
C17 C18 1_555 1_555

#END
