
#######################################################################
#
#                 Cambridge Crystallographic Data Centre
#                                CCDC 
#
#######################################################################
#
# If this CIF has been generated from an entry in the Cambridge 
# Structural Database, then it will include bibliographic, chemical, 
# crystal, experimental, refinement or atomic coordinate data resulting 
# from the CCDC's data processing and validation procedures.
#
#######################################################################

data_YETPOD
_symmetry_cell_setting           triclinic
_symmetry_space_group_name_H-M   'P -1'
_symmetry_Int_Tables_number      2
_space_group_name_Hall           '-P 1'
loop_
_symmetry_equiv_pos_site_id
_symmetry_equiv_pos_as_xyz
1 x,y,z
2 -x,-y,-z
_cell_length_a                   7.0108(2)
_cell_length_b                   11.0338(3)
_cell_length_c                   16.9120(4)
_cell_angle_alpha                93.6370(10)
_cell_angle_beta                 95.7360(10)
_cell_angle_gamma                95.7290(10)
_cell_volume                     1291.62
loop_
_atom_site_label
_atom_site_type_symbol
_atom_site_fract_x
_atom_site_fract_y
_atom_site_fract_z
Ag1 Ag 0.78730(2) -0.050001(14) 0.056301(8)
C1 C 0.9229(2) 0.27170(15) 0.25913(9)
C2 C 0.9050(3) 0.27012(16) 0.34117(10)
H1 H 0.8625 0.1964 0.3633
C3 C 0.9504(2) 0.37729(16) 0.38907(9)
H2 H 0.9394 0.3772 0.4446
C4 C 1.0122(2) 0.48603(15) 0.35655(9)
C5 C 1.0332(2) 0.48742(15) 0.27541(9)
H3 H 1.0776 0.5609 0.2535
C6 C 0.9882(2) 0.37980(16) 0.22724(9)
H4 H 1.0020 0.3797 0.1719
C7 C 0.8725(3) 0.16388(16) 0.20597(10)
N1 N 0.8320(3) 0.08129(15) 0.16103(10)
O1 O 1.0498(2) 0.58527(11) 0.41039(7)
C8 C 1.1150(3) 0.70384(16) 0.38688(11)
H5 H 1.2012 0.6943 0.3445
H6 H 1.1910 0.7516 0.4331
C9 C 0.9517(3) 0.77405(18) 0.35673(11)
H7 H 0.8374 0.7531 0.3851
H8 H 0.9905 0.8629 0.3665
O2 O 0.9057(2) 0.74237(12) 0.27261(7)
C10 C 0.7374(3) 0.77128(15) 0.23579(10)
C11 C 0.6960(3) 0.72543(15) 0.15585(10)
H9 H 0.7849 0.6797 0.1314
C12 C 0.5257(3) 0.74685(15) 0.11263(10)
H10 H 0.4965 0.7149 0.0588
C13 C 0.3964(3) 0.81618(16) 0.14906(11)
C14 C 0.4377(3) 0.86069(16) 0.22855(11)
H11 H 0.3488 0.9065 0.2530
C15 C 0.6075(3) 0.83875(16) 0.27242(11)
H12 H 0.6351 0.8692 0.3266
C16 C 0.2238(3) 0.84510(17) 0.10417(12)
N2 N 0.0894(3) 0.87398(16) 0.06902(12)
C17 C 0.5743(2) -0.26455(15) -0.18739(9)
C18 C 0.5170(3) -0.38954(16) -0.18615(10)
H13 H 0.4953 -0.4240 -0.1373
C19 C 0.4925(2) -0.46221(15) -0.25672(10)
H14 H 0.4538 -0.5472 -0.2565
C20 C 0.5242(2) -0.41132(14) -0.32863(9)
C21 C 0.5807(2) -0.28678(15) -0.33029(9)
H15 H 0.6018 -0.2524 -0.3792
C22 C 0.6057(3) -0.21377(15) -0.25927(10)
H16 H 0.6444 -0.1288 -0.2595
C23 C 0.6034(3) -0.18782(16) -0.11419(10)
N3 N 0.6271(2) -0.12688(14) -0.05615(9)
O3 O 0.49741(19) -0.49215(11) -0.39410(7)
C24 C 0.5223(3) -0.44534(15) -0.46990(9)
H17 H 0.6562 -0.4078 -0.4710
H18 H 0.4330 -0.3831 -0.4814
Ag1_2 Ag 1.78730(2) -1.050001(14) 0.056301(8)
Ag1_3 Ag -0.21270(2) 0.949999(14) 0.056301(8)
Ag1A Ag 0.21270(2) -0.949999(14) -1.056301(8)
C1_2 C 1.9229(2) -0.72830(15) 0.25913(9)
C2_2 C 1.9050(3) -0.72988(16) 0.34117(10)
H1_2 H 1.8625 -0.8036 0.3633
C3_2 C 1.9504(2) -0.62271(16) 0.38907(9)
H2_2 H 1.9394 -0.6228 0.4446
C4_2 C 2.0122(2) -0.51397(15) 0.35655(9)
C5_2 C 2.0332(2) -0.51258(15) 0.27541(9)
H3_2 H 2.0776 -0.4391 0.2535
C6_2 C 1.9882(2) -0.62020(16) 0.22724(9)
H4_2 H 2.0020 -0.6203 0.1719
C7_2 C 1.8725(3) -0.83612(16) 0.20597(10)
N1_2 N 1.8320(3) -0.91871(15) 0.16103(10)
O1_2 O 2.0498(2) -0.41473(11) 0.41039(7)
C8_2 C 2.1150(3) -0.29616(16) 0.38688(11)
H5_2 H 2.2012 -0.3057 0.3445
H6_2 H 2.1910 -0.2484 0.4331
C9_2 C 1.9517(3) -0.22595(18) 0.35673(11)
H7_2 H 1.8374 -0.2469 0.3851
H8_2 H 1.9905 -0.1371 0.3665
O2_2 O 1.9057(2) -0.25763(12) 0.27261(7)
C10_2 C 1.7374(3) -0.22872(15) 0.23579(10)
C11_2 C 1.6960(3) -0.27457(15) 0.15585(10)
H9_2 H 1.7849 -0.3203 0.1314
C12_2 C 1.5257(3) -0.25315(15) 0.11263(10)
H10_2 H 1.4965 -0.2851 0.0588
C13_2 C 1.3964(3) -0.18382(16) 0.14906(11)
C14_2 C 1.4377(3) -0.13931(16) 0.22855(11)
H11_2 H 1.3488 -0.0935 0.2530
C15_2 C 1.6075(3) -0.16125(16) 0.27242(11)
H12_2 H 1.6351 -0.1308 0.3266
C16_2 C 1.2238(3) -0.15490(17) 0.10417(12)
N2_2 N 1.0894(3) -0.12602(16) 0.06902(12)
N2_3 N 2.0894(3) -1.12602(16) 0.06902(12)
C17A C 0.4257(2) -0.73545(15) -0.81261(9)
C18A C 0.4830(3) -0.61046(16) -0.81385(10)
H13A H 0.5047 -0.5760 -0.8627
C19A C 0.5075(2) -0.53779(15) -0.74328(10)
H14A H 0.5462 -0.4528 -0.7435
C20A C 0.4758(2) -0.58868(14) -0.67137(9)
C21A C 0.4193(2) -0.71322(15) -0.66971(9)
H15A H 0.3982 -0.7476 -0.6208
C22A C 0.3943(3) -0.78623(15) -0.74073(10)
H16A H 0.3556 -0.8712 -0.7405
C23A C 0.3966(3) -0.81218(16) -0.88581(10)
N3A N 0.3729(2) -0.87312(14) -0.94385(9)
N3_2 N 1.6271(2) -1.12688(14) -0.05615(9)
O3A O 0.50259(19) -0.50785(11) -0.60590(7)
C24A C 0.4777(3) -0.55466(15) -0.53010(9)
H17A H 0.3438 -0.5922 -0.5290
H18A H 0.5670 -0.6169 -0.5186
Sb1 Sb 0.0000 0.5000 0.0000
F1 F 0.2049(2) 0.59054(15) -0.03992(8)
F2 F -0.1587(2) 0.62217(13) -0.02386(8)
F3 F 0.07688(18) 0.57753(10) 0.10202(6)
F1A F -0.2049(2) 0.40946(15) 0.03992(8)
F2A F 0.1587(2) 0.37783(13) 0.02386(8)
F3A F -0.07688(18) 0.42247(10) -0.10202(6)
Sb2 Sb 0.5000 0.0000 0.5000
F4 F 0.7165(2) 0.06391(14) 0.45422(9)
F5 F 0.4349(2) 0.15844(11) 0.52169(8)
F6 F 0.6454(2) 0.00954(12) 0.60019(7)
F4A F 0.2835(2) -0.06391(14) 0.54578(9)
F5A F 0.5651(2) -0.15844(11) 0.47831(8)
F6A F 0.3546(2) -0.00954(12) 0.39981(7)
loop_
_geom_bond_atom_site_label_1
_geom_bond_atom_site_label_2
_geom_bond_site_symmetry_1
_geom_bond_site_symmetry_2
Ag1 N1 1_555 1_555
C1 C2 1_555 1_555
C2 H1 1_555 1_555
C3 C2 1_555 1_555
H2 C3 1_555 1_555
C4 C3 1_555 1_555
C5 C4 1_555 1_555
H3 C5 1_555 1_555
C6 C1 1_555 1_555
H4 C6 1_555 1_555
C7 C1 1_555 1_555
N1 C7 1_555 1_555
O1 C4 1_555 1_555
C8 O1 1_555 1_555
H5 C8 1_555 1_555
H6 C8 1_555 1_555
C9 C8 1_555 1_555
H7 C9 1_555 1_555
H8 C9 1_555 1_555
O2 C9 1_555 1_555
C10 O2 1_555 1_555
C11 C10 1_555 1_555
H9 C11 1_555 1_555
C12 C11 1_555 1_555
H10 C12 1_555 1_555
C13 C12 1_555 1_555
C14 C13 1_555 1_555
H11 C14 1_555 1_555
C15 C10 1_555 1_555
H12 C15 1_555 1_555
C16 C13 1_555 1_555
N2 C16 1_555 1_555
C17 C18 1_555 1_555
C18 H13 1_555 1_555
C19 C18 1_555 1_555
H14 C19 1_555 1_555
C20 C19 1_555 1_555
C21 C20 1_555 1_555
H15 C21 1_555 1_555
C22 C17 1_555 1_555
H16 C22 1_555 1_555
C23 C17 1_555 1_555
N3 Ag1 1_555 1_555
O3 C20 1_555 1_555
C24 O3 1_555 1_555
H17 C24 1_555 1_555
H18 C24 1_555 1_555
Sb1 F1 1_555 1_555
F2 Sb1 1_555 1_555
F3 Sb1 1_555 1_555
Sb2 F4 1_555 1_555
F5 Sb2 1_555 1_555
F6 Sb2 1_555 1_555
Ag1_2 N1_2 1_555 1_555
Ag1_3 N2 1_555 1_555
Ag1A N3A 1_555 1_555
C1_2 C2_2 1_555 1_555
C2_2 H1_2 1_555 1_555
C3_2 C2_2 1_555 1_555
H2_2 C3_2 1_555 1_555
C4_2 C3_2 1_555 1_555
C5_2 C4_2 1_555 1_555
H3_2 C5_2 1_555 1_555
C6_2 C1_2 1_555 1_555
H4_2 C6_2 1_555 1_555
C7_2 C1_2 1_555 1_555
N1_2 C7_2 1_555 1_555
O1_2 C4_2 1_555 1_555
C8_2 O1_2 1_555 1_555
H5_2 C8_2 1_555 1_555
H6_2 C8_2 1_555 1_555
C9_2 C8_2 1_555 1_555
H7_2 C9_2 1_555 1_555
H8_2 C9_2 1_555 1_555
O2_2 C9_2 1_555 1_555
C10_2 O2_2 1_555 1_555
C11_2 C10_2 1_555 1_555
H9_2 C11_2 1_555 1_555
C12_2 C11_2 1_555 1_555
H10_2 C12_2 1_555 1_555
C13_2 C12_2 1_555 1_555
C14_2 C13_2 1_555 1_555
H11_2 C14_2 1_555 1_555
C15_2 C10_2 1_555 1_555
H12_2 C15_2 1_555 1_555
C16_2 C13_2 1_555 1_555
N2_2 Ag1 1_555 1_555
N2_3 Ag1_2 1_555 1_555
C17A C18A 1_555 1_555
C18A H13A 1_555 1_555
C19A C18A 1_555 1_555
H14A C19A 1_555 1_555
C20A C19A 1_555 1_555
C21A C20A 1_555 1_555
H15A C21A 1_555 1_555
C22A C17A 1_555 1_555
H16A C22A 1_555 1_555
C23A C17A 1_555 1_555
N3A C23A 1_555 1_555
N3_2 Ag1_2 1_555 1_555
O3A C20A 1_555 1_555
C24A C24 1_555 1_555
H17A C24A 1_555 1_555
H18A C24A 1_555 1_555
F1A Sb1 1_555 1_555
F2A Sb1 1_555 1_555
F3A Sb1 1_555 1_555
F4A Sb2 1_555 1_555
F5A Sb2 1_555 1_555
F6A Sb2 1_555 1_555
C5 C6 1_555 1_555
C14 C15 1_555 1_555
C21 C22 1_555 1_555
C23 N3 1_555 1_555
C5_2 C6_2 1_555 1_555
C14_2 C15_2 1_555 1_555
C16_2 N2_2 1_555 1_555
C21A C22A 1_555 1_555
O3A C24A 1_555 1_555

#END
