
#######################################################################
#
#                 Cambridge Crystallographic Data Centre
#                                CCDC 
#
#######################################################################
#
# If this CIF has been generated from an entry in the Cambridge 
# Structural Database, then it will include bibliographic, chemical, 
# crystal, experimental, refinement or atomic coordinate data resulting 
# from the CCDC's data processing and validation procedures.
#
#######################################################################

data_YETQAQ
_symmetry_cell_setting           monoclinic
_symmetry_space_group_name_H-M   'P 21/c'
_symmetry_Int_Tables_number      14
_space_group_name_Hall           '-P 2ybc'
loop_
_symmetry_equiv_pos_site_id
_symmetry_equiv_pos_as_xyz
1 x,y,z
2 -x,1/2+y,1/2-z
3 -x,-y,-z
4 x,1/2-y,1/2+z
_cell_length_a                   11.7680(2)
_cell_length_b                   25.7570(6)
_cell_length_c                   8.5870(4)
_cell_angle_alpha                90
_cell_angle_beta                 96.9200(9)
_cell_angle_gamma                90
_cell_volume                     2583.83
loop_
_atom_site_label
_atom_site_type_symbol
_atom_site_fract_x
_atom_site_fract_y
_atom_site_fract_z
Ag1 Ag -0.25827(3) 0.164900(12) -0.15658(4)
C1 C 0.0286(3) 0.08005(15) -0.2047(5)
C2 C -0.0123(4) 0.03715(15) -0.2935(4)
H1 H -0.0671 0.0420 -0.3830
C3 C 0.0255(4) -0.01208(15) -0.2533(5)
H2 H -0.0031 -0.0411 -0.3141
C4 C 0.1058(4) -0.01890(15) -0.1232(5)
C5 C 0.1462(3) 0.02379(15) -0.0339(4)
H3 H 0.2010 0.0191 0.0557
C6 C 0.1071(3) 0.07273(14) -0.0750(5)
H4 H 0.1346 0.1017 -0.0132
C7 C 0.1488(4) -0.06976(17) -0.0757(5)
N1 N 0.1848(3) -0.10919(13) -0.0328(4)
O1 O -0.0148(2) 0.12696(10) -0.2540(3)
C8 C 0.0460(4) 0.17239(14) -0.1923(5)
H5 H 0.1278 0.1698 -0.2080
H6 H 0.0409 0.1755 -0.0784
C9 C -0.0068(3) 0.21844(14) -0.2765(5)
H7 H 0.0471 0.2481 -0.2645
H8 H -0.0242 0.2106 -0.3897
O2 O -0.1101(2) 0.23165(9) -0.2127(3)
C10 C -0.1605(3) 0.27755(14) -0.2832(4)
H9 H -0.1921 0.2704 -0.3932
H10 H -0.1017 0.3050 -0.2836
C11 C -0.2540(3) 0.29544(14) -0.1924(5)
H11 H -0.2223 0.3037 -0.0831
H12 H -0.2904 0.3271 -0.2407
O3 O -0.3368(2) 0.25459(9) -0.1937(3)
C12 C -0.4289(4) 0.26881(15) -0.1080(5)
H13 H -0.4699 0.2993 -0.1572
H14 H -0.3990 0.2779 0.0013
C13 C -0.5085(4) 0.22339(16) -0.1096(5)
H15 H -0.5753 0.2324 -0.0550
H16 H -0.5365 0.2136 -0.2190
O4 O -0.4468(3) 0.18148(10) -0.0317(3)
C14 C -0.5149(4) 0.14369(17) 0.0365(5)
H17 H -0.5708 0.1620 0.0942
H18 H -0.4644 0.1230 0.1136
C15 C -0.5774(4) 0.10805(17) -0.0769(5)
H19 H -0.6400 0.0909 -0.0289
H20 H -0.6115 0.1276 -0.1704
O5 O -0.4982(2) 0.06951(10) -0.1221(3)
C16 C -0.5423(4) 0.03189(15) -0.2237(5)
C17 C -0.4672(4) -0.00862(15) -0.2488(5)
H21 H -0.3913 -0.0087 -0.1966
C18 C -0.5044(4) -0.04828(15) -0.3496(5)
H22 H -0.4539 -0.0759 -0.3666
C19 C -0.6138(4) -0.04823(16) -0.4259(5)
C20 C -0.6881(4) -0.00794(16) -0.4004(5)
H23 H -0.7637 -0.0079 -0.4534
C21 C -0.6530(4) 0.03169(15) -0.2994(5)
H24 H -0.7044 0.0589 -0.2815
C22 C -0.6512(4) -0.08865(17) -0.5345(5)
N2 N -0.6810(4) -0.12035(14) -0.6243(4)
Ag1B Ag 0.25827(3) -0.164900(12) 0.15658(4)
Ag1B_2 Ag -0.74173(3) -0.164900(12) -0.84342(4)
N1B N -0.1848(3) 0.10919(13) 0.0328(4)
N2B N -0.3190(4) 0.12035(14) -0.3757(4)
As1 As -0.78777(4) 0.147990(18) -0.62818(5)
F1 F -0.8095(12) 0.1200(6) -0.4517(14)
F3 F -0.6521(2) 0.14996(10) -0.5346(4)
F4 F -0.7677(14) 0.1727(5) -0.8018(13)
F6 F -0.9211(3) 0.14498(11) -0.7275(4)
F7 F -0.7678(15) 0.0916(6) -0.698(2)
F9 F -0.814(2) 0.2075(10) -0.552(3)
F2? F -0.7375(17) 0.0921(8) -0.736(3)
F5? F -0.832(2) 0.1982(10) -0.531(3)
F8? F -0.8405(13) 0.1054(6) -0.5136(14)
F10? F -0.7309(12) 0.1918(4) -0.7481(13)
loop_
_geom_bond_atom_site_label_1
_geom_bond_atom_site_label_2
_geom_bond_site_symmetry_1
_geom_bond_site_symmetry_2
Ag1 O2 1_555 1_555
C1 C2 1_555 1_555
C2 H1 1_555 1_555
C3 C2 1_555 1_555
H2 C3 1_555 1_555
C4 C3 1_555 1_555
C5 C4 1_555 1_555
H3 C5 1_555 1_555
C6 C1 1_555 1_555
H4 C6 1_555 1_555
C7 C4 1_555 1_555
N1 C7 1_555 1_555
O1 C1 1_555 1_555
C8 O1 1_555 1_555
H5 C8 1_555 1_555
H6 C8 1_555 1_555
C9 C8 1_555 1_555
H7 C9 1_555 1_555
H8 C9 1_555 1_555
O2 C9 1_555 1_555
C10 O2 1_555 1_555
H9 C10 1_555 1_555
H10 C10 1_555 1_555
C11 C10 1_555 1_555
H11 C11 1_555 1_555
H12 C11 1_555 1_555
O3 Ag1 1_555 1_555
C12 O3 1_555 1_555
H13 C12 1_555 1_555
H14 C12 1_555 1_555
C13 C12 1_555 1_555
H15 C13 1_555 1_555
H16 C13 1_555 1_555
O4 Ag1 1_555 1_555
C14 O4 1_555 1_555
H17 C14 1_555 1_555
H18 C14 1_555 1_555
C15 C14 1_555 1_555
H19 C15 1_555 1_555
H20 C15 1_555 1_555
O5 C15 1_555 1_555
C16 O5 1_555 1_555
C17 C16 1_555 1_555
H21 C17 1_555 1_555
C18 C17 1_555 1_555
H22 C18 1_555 1_555
C19 C18 1_555 1_555
C20 C19 1_555 1_555
H23 C20 1_555 1_555
C21 C16 1_555 1_555
H24 C21 1_555 1_555
C22 C19 1_555 1_555
N2 C22 1_555 1_555
As1 F1 1_555 1_555
F3 As1 1_555 1_555
F4 As1 1_555 1_555
F6 As1 1_555 1_555
F7 As1 1_555 1_555
F9 As1 1_555 1_555
Ag1B N1 1_555 1_555
Ag1B_2 N2 1_555 1_555
N1B Ag1 1_555 1_555
N2B Ag1 1_555 1_555
C5 C6 1_555 1_555
C11 O3 1_555 1_555
C13 O4 1_555 1_555
C20 C21 1_555 1_555

#END
