
#######################################################################
#
#                 Cambridge Crystallographic Data Centre
#                                CCDC 
#
#######################################################################
#
# If this CIF has been generated from an entry in the Cambridge 
# Structural Database, then it will include bibliographic, chemical, 
# crystal, experimental, refinement or atomic coordinate data resulting 
# from the CCDC's data processing and validation procedures.
#
#######################################################################

data_YETQIY
_symmetry_cell_setting           orthorhombic
_symmetry_space_group_name_H-M   'P 21 21 21'
_symmetry_Int_Tables_number      19
_space_group_name_Hall           'P 2ac 2ab'
loop_
_symmetry_equiv_pos_site_id
_symmetry_equiv_pos_as_xyz
1 x,y,z
2 1/2-x,-y,1/2+z
3 1/2+x,1/2-y,-z
4 -x,1/2+y,1/2-z
_cell_length_a                   12.0050(2)
_cell_length_b                   12.8750(2)
_cell_length_c                   18.8880(3)
_cell_angle_alpha                90
_cell_angle_beta                 90
_cell_angle_gamma                90
_cell_volume                     2919.41
loop_
_atom_site_label
_atom_site_type_symbol
_atom_site_fract_x
_atom_site_fract_y
_atom_site_fract_z
Ag1 Ag -0.347790(18) -0.40189(2) -0.222480(14)
N1 N 0.4919(3) -0.3266(2) -0.20135(16)
C1 C 0.4009(3) -0.3209(3) -0.18459(19)
C2 C 0.2886(3) -0.3181(3) -0.15929(17)
C3 C 0.2567(3) -0.3913(3) -0.10837(17)
H1 H 0.3087 -0.4416 -0.0922
C4 C 0.1508(3) -0.3906(2) -0.08181(16)
H2 H 0.1291 -0.4404 -0.0474
C5 C 0.0751(3) -0.3170(3) -0.10530(17)
C6 C 0.1053(3) -0.2450(3) -0.15685(19)
H3 H 0.0526 -0.1958 -0.1736
C7 C 0.2123(3) -0.2455(3) -0.18339(18)
H4 H 0.2337 -0.1961 -0.2182
O1 O -0.02716(19) -0.32066(19) -0.07445(13)
C8 C -0.1118(3) -0.2498(3) -0.09706(19)
H5 H -0.1286 -0.2601 -0.1479
H6 H -0.0871 -0.1772 -0.0899
C9 C -0.2128(3) -0.2723(3) -0.0529(2)
H7 H -0.1931 -0.2703 -0.0021
H8 H -0.2708 -0.2193 -0.0618
O2 O -0.25338(18) -0.37184(17) -0.07112(12)
C10 C -0.3422(3) -0.4049(3) -0.02640(17)
H9 H -0.4077 -0.3594 -0.0334
H10 H -0.3190 -0.4001 0.0238
C11 C -0.3717(3) -0.5132(3) -0.04379(18)
H11 H -0.3039 -0.5570 -0.0432
H12 H -0.4242 -0.5407 -0.0080
O3 O -0.4214(2) -0.51669(17) -0.11170(12)
C12 C -0.4485(3) -0.6198(3) -0.13306(18)
H13 H -0.4903 -0.6554 -0.0950
H14 H -0.3796 -0.6596 -0.1426
C13 C -0.5172(3) -0.6140(3) -0.19781(17)
H15 H -0.5480 -0.6835 -0.2088
H16 H -0.5803 -0.5658 -0.1901
O4 O -0.45130(16) -0.57846(17) -0.25571(11)
C14 C -0.5178(3) -0.5568(3) -0.31566(19)
H17 H -0.5697 -0.4992 -0.3048
H18 H -0.5625 -0.6188 -0.3281
C15 C -0.4458(3) -0.5276(3) -0.37623(19)
H19 H -0.3956 -0.5860 -0.3883
H20 H -0.4923 -0.5118 -0.4182
O5 O -0.3820(2) -0.4388(2) -0.35714(14)
C16 C -0.3518(3) -0.3755(3) -0.41425(16)
H21 H -0.4098 -0.3221 -0.4220
H22 H -0.3459 -0.4180 -0.4578
C17 C -0.2427(3) -0.3242(3) -0.39959(17)
H23 H -0.1864 -0.3773 -0.3872
H24 H -0.2169 -0.2871 -0.4425
O6 O -0.25453(16) -0.25195(17) -0.34219(11)
C18 C -0.1663(2) -0.1878(2) -0.32926(15)
C19 C -0.0691(3) -0.1871(3) -0.36842(19)
H25 H -0.0598 -0.2338 -0.4069
C20 C 0.0146(3) -0.1179(3) -0.35118(19)
H26 H 0.0812 -0.1167 -0.3783
C21 C 0.0025(2) -0.0506(2) -0.29503(15)
C22 C -0.0955(3) -0.0516(3) -0.25519(16)
H27 H -0.1047 -0.0050 -0.2166
C23 C -0.1779(2) -0.1205(3) -0.27228(16)
H28 H -0.2442 -0.1222 -0.2448
C24 C 0.0935(3) 0.0172(3) -0.27824(18)
N2 N 0.1697(2) 0.0674(2) -0.26772(15)
Ag1_2 Ag 0.652210(18) -0.40189(2) -0.222480(14)
Ag1C Ag 0.347790(18) 0.09811(2) -0.277520(14)
N1_2 N -0.5081(3) -0.3266(2) -0.20135(16)
N2C N -0.1697(2) -0.4326(2) -0.23228(15)
Sb1 Sb -0.282520(18) -0.114560(17) -0.574090(11)
F1 F -0.13751(19) -0.1378(2) -0.54279(13)
F2 F -0.42847(17) -0.0907(2) -0.60354(13)
F3 F -0.3131(2) -0.25558(16) -0.56135(12)
F4 F -0.2504(2) 0.02581(16) -0.58650(14)
F5 F -0.3247(2) -0.0912(2) -0.48058(11)
F6 F -0.2397(2) -0.1394(2) -0.66683(11)
loop_
_geom_bond_atom_site_label_1
_geom_bond_atom_site_label_2
_geom_bond_site_symmetry_1
_geom_bond_site_symmetry_2
Ag1 O3 1_555 1_555
N1 C1 1_555 1_555
C1 C2 1_555 1_555
C2 C3 1_555 1_555
C3 H1 1_555 1_555
C4 C3 1_555 1_555
H2 C4 1_555 1_555
C5 C4 1_555 1_555
C6 C5 1_555 1_555
H3 C6 1_555 1_555
C7 C2 1_555 1_555
H4 C7 1_555 1_555
O1 C5 1_555 1_555
C8 O1 1_555 1_555
H5 C8 1_555 1_555
H6 C8 1_555 1_555
C9 C8 1_555 1_555
H7 C9 1_555 1_555
H8 C9 1_555 1_555
O2 C9 1_555 1_555
C10 O2 1_555 1_555
H9 C10 1_555 1_555
H10 C10 1_555 1_555
C11 C10 1_555 1_555
H11 C11 1_555 1_555
H12 C11 1_555 1_555
O3 C11 1_555 1_555
C12 O3 1_555 1_555
H13 C12 1_555 1_555
H14 C12 1_555 1_555
C13 C12 1_555 1_555
H15 C13 1_555 1_555
H16 C13 1_555 1_555
O4 Ag1 1_555 1_555
C14 O4 1_555 1_555
H17 C14 1_555 1_555
H18 C14 1_555 1_555
C15 C14 1_555 1_555
H19 C15 1_555 1_555
H20 C15 1_555 1_555
O5 Ag1 1_555 1_555
C16 O5 1_555 1_555
H21 C16 1_555 1_555
H22 C16 1_555 1_555
C17 C16 1_555 1_555
H23 C17 1_555 1_555
H24 C17 1_555 1_555
O6 C17 1_555 1_555
C18 O6 1_555 1_555
C19 C18 1_555 1_555
H25 C19 1_555 1_555
C20 C19 1_555 1_555
H26 C20 1_555 1_555
C21 C20 1_555 1_555
C22 C21 1_555 1_555
H27 C22 1_555 1_555
C23 C18 1_555 1_555
H28 C23 1_555 1_555
C24 C21 1_555 1_555
N2 C24 1_555 1_555
Sb1 F1 1_555 1_555
F2 Sb1 1_555 1_555
F3 Sb1 1_555 1_555
F4 Sb1 1_555 1_555
F5 Sb1 1_555 1_555
F6 Sb1 1_555 1_555
Ag1_2 N1 1_555 1_555
Ag1C N2 1_555 1_555
N1_2 Ag1 1_555 1_555
N2C Ag1 1_555 1_555
C6 C7 1_555 1_555
C13 O4 1_555 1_555
C15 O5 1_555 1_555
C22 C23 1_555 1_555

#END
