
#######################################################################
#
#                 Cambridge Crystallographic Data Centre
#                                CCDC 
#
#######################################################################
#
# If this CIF has been generated from an entry in the Cambridge 
# Structural Database, then it will include bibliographic, chemical, 
# crystal, experimental, refinement or atomic coordinate data resulting 
# from the CCDC's data processing and validation procedures.
#
#######################################################################

data_YETQEU
_symmetry_cell_setting           monoclinic
_symmetry_space_group_name_H-M   'P 21/c'
_symmetry_Int_Tables_number      14
_space_group_name_Hall           '-P 2ybc'
loop_
_symmetry_equiv_pos_site_id
_symmetry_equiv_pos_as_xyz
1 x,y,z
2 -x,1/2+y,1/2-z
3 -x,-y,-z
4 x,1/2-y,1/2+z
_cell_length_a                   11.9640(1)
_cell_length_b                   25.7170(4)
_cell_length_c                   8.6320(2)
_cell_angle_alpha                90
_cell_angle_beta                 97.0780(6)
_cell_angle_gamma                90
_cell_volume                     2635.64
loop_
_atom_site_label
_atom_site_type_symbol
_atom_site_fract_x
_atom_site_fract_y
_atom_site_fract_z
Ag1 Ag -0.26024(3) 0.163990(12) -0.15355(4)
C1 C 0.0262(3) 0.08026(15) -0.2033(4)
C2 C -0.0143(3) 0.03725(15) -0.2910(4)
H1 H -0.0695 0.0418 -0.3789
C3 C 0.0251(3) -0.01185(15) -0.2510(4)
H2 H -0.0029 -0.0410 -0.3111
C4 C 0.1059(3) -0.01858(14) -0.1226(4)
C5 C 0.1454(3) 0.02438(15) -0.0337(4)
H3 H 0.1995 0.0196 0.0555
C6 C 0.1068(3) 0.07396(14) -0.0742(4)
H4 H 0.1349 0.1032 -0.0145
C7 C 0.1488(3) -0.06929(16) -0.0755(4)
N1 N 0.1871(3) -0.10823(13) -0.0328(4)
O1 O -0.0186(2) 0.12680(10) -0.2507(3)
C8 C 0.0395(3) 0.17279(15) -0.1883(5)
H5 H 0.1203 0.1707 -0.2021
H6 H 0.0333 0.1759 -0.0753
C9 C -0.0137(3) 0.21907(15) -0.2744(5)
H7 H 0.0385 0.2491 -0.2624
H8 H -0.0304 0.2110 -0.3870
O2 O -0.1160(2) 0.23163(10) -0.2113(3)
C10 C -0.1664(3) 0.27701(14) -0.2812(4)
H9 H -0.1969 0.2697 -0.3910
H10 H -0.1094 0.3049 -0.2809
C11 C -0.2596(3) 0.29440(15) -0.1922(4)
H11 H -0.2288 0.3031 -0.0836
H12 H -0.2959 0.3259 -0.2414
O3 O -0.3402(2) 0.25371(10) -0.1923(3)
C12 C -0.4315(4) 0.26706(15) -0.1069(5)
H13 H -0.4732 0.2972 -0.1563
H14 H -0.4021 0.2766 0.0016
C13 C -0.5083(4) 0.22096(18) -0.1070(5)
H15 H -0.5740 0.2295 -0.0525
H16 H -0.5359 0.2106 -0.2155
O4 O -0.4447(2) 0.17951(11) -0.0280(3)
C14 C -0.5129(4) 0.14205(17) 0.0402(5)
H17 H -0.5671 0.1607 0.0979
H18 H -0.4638 0.1209 0.1166
C15 C -0.5765(4) 0.10661(17) -0.0752(5)
H19 H -0.6375 0.0891 -0.0274
H20 H -0.6108 0.1267 -0.1668
O5 O -0.4992(2) 0.06872(11) -0.1227(3)
C16 C -0.5428(3) 0.03095(15) -0.2232(4)
C17 C -0.4682(4) -0.00835(16) -0.2545(4)
H21 H -0.3926 -0.0077 -0.2056
C18 C -0.5036(4) -0.04782(16) -0.3554(5)
H22 H -0.4523 -0.0741 -0.3780
C19 C -0.6145(4) -0.04927(16) -0.4246(4)
C20 C -0.6885(4) -0.00977(17) -0.3943(5)
H23 H -0.7639 -0.0102 -0.4438
C21 C -0.6529(3) 0.03003(16) -0.2929(4)
H24 H -0.7038 0.0566 -0.2712
C22 C -0.6512(4) -0.08887(17) -0.5353(5)
N2 N -0.6813(3) -0.12066(14) -0.6241(4)
Ag1B Ag 0.26024(3) -0.163990(12) 0.15355(4)
Ag1B_2 Ag -0.73976(3) -0.163990(12) -0.84645(4)
N1B N -0.1871(3) 0.10823(13) 0.0328(4)
N2B N -0.3187(3) 0.12066(14) -0.3759(4)
Sb1 Sb -0.78706(2) 0.149540(11) -0.62165(3)
F1 F -0.8105(5) 0.1236(2) -0.4240(7)
F2 F -0.7355(6) 0.0954(3) -0.7462(7)
F3 F -0.6414(3) 0.15110(13) -0.5208(5)
F5 F -0.8344(7) 0.2027(3) -0.5061(8)
F6 F -0.9292(3) 0.14595(15) -0.7303(6)
F10 F -0.7216(6) 0.1975(3) -0.7523(7)
F4? F -0.7699(6) 0.1736(3) -0.8165(7)
F7? F -0.7641(6) 0.0813(3) -0.6894(7)
F8? F -0.8444(5) 0.1014(3) -0.4983(7)
F9? F -0.8157(7) 0.2166(3) -0.5507(8)
loop_
_geom_bond_atom_site_label_1
_geom_bond_atom_site_label_2
_geom_bond_site_symmetry_1
_geom_bond_site_symmetry_2
Ag1 O2 1_555 1_555
C1 C2 1_555 1_555
C2 H1 1_555 1_555
C3 C2 1_555 1_555
H2 C3 1_555 1_555
C4 C3 1_555 1_555
C5 C4 1_555 1_555
H3 C5 1_555 1_555
C6 C1 1_555 1_555
H4 C6 1_555 1_555
C7 C4 1_555 1_555
N1 C7 1_555 1_555
O1 C1 1_555 1_555
C8 O1 1_555 1_555
H5 C8 1_555 1_555
H6 C8 1_555 1_555
C9 C8 1_555 1_555
H7 C9 1_555 1_555
H8 C9 1_555 1_555
O2 C9 1_555 1_555
C10 O2 1_555 1_555
H9 C10 1_555 1_555
H10 C10 1_555 1_555
C11 C10 1_555 1_555
H11 C11 1_555 1_555
H12 C11 1_555 1_555
O3 Ag1 1_555 1_555
C12 O3 1_555 1_555
H13 C12 1_555 1_555
H14 C12 1_555 1_555
C13 C12 1_555 1_555
H15 C13 1_555 1_555
H16 C13 1_555 1_555
O4 Ag1 1_555 1_555
C14 O4 1_555 1_555
H17 C14 1_555 1_555
H18 C14 1_555 1_555
C15 C14 1_555 1_555
H19 C15 1_555 1_555
H20 C15 1_555 1_555
O5 C15 1_555 1_555
C16 O5 1_555 1_555
C17 C16 1_555 1_555
H21 C17 1_555 1_555
C18 C17 1_555 1_555
H22 C18 1_555 1_555
C19 C18 1_555 1_555
C20 C19 1_555 1_555
H23 C20 1_555 1_555
C21 C16 1_555 1_555
H24 C21 1_555 1_555
C22 C19 1_555 1_555
N2 C22 1_555 1_555
Sb1 F1 1_555 1_555
F2 Sb1 1_555 1_555
F3 Sb1 1_555 1_555
F5 Sb1 1_555 1_555
F6 Sb1 1_555 1_555
F10 Sb1 1_555 1_555
Ag1B N1 1_555 1_555
Ag1B_2 N2 1_555 1_555
N1B Ag1 1_555 1_555
N2B Ag1 1_555 1_555
C5 C6 1_555 1_555
C11 O3 1_555 1_555
C13 O4 1_555 1_555
C20 C21 1_555 1_555

#END
