
#######################################################################
#
#                 Cambridge Crystallographic Data Centre
#                                CCDC 
#
#######################################################################
#
# If this CIF has been generated from an entry in the Cambridge 
# Structural Database, then it will include bibliographic, chemical, 
# crystal, experimental, refinement or atomic coordinate data resulting 
# from the CCDC's data processing and validation procedures.
#
#######################################################################

data_YETRAR
_symmetry_cell_setting           triclinic
_symmetry_space_group_name_H-M   'P -1'
_symmetry_Int_Tables_number      2
_space_group_name_Hall           '-P 1'
loop_
_symmetry_equiv_pos_site_id
_symmetry_equiv_pos_as_xyz
1 x,y,z
2 -x,-y,-z
_cell_length_a                   6.9830(2)
_cell_length_b                   10.9480(3)
_cell_length_c                   16.7360(5)
_cell_angle_alpha                93.0940(15)
_cell_angle_beta                 94.9470(13)
_cell_angle_gamma                95.9610(13)
_cell_volume                     1265.25
loop_
_atom_site_label
_atom_site_type_symbol
_atom_site_fract_x
_atom_site_fract_y
_atom_site_fract_z
Ag1 Ag 0.78907(3) -0.05016(2) 0.057479(11)
C1 C 0.9199(3) 0.2739(2) 0.25901(13)
C2 C 0.9016(3) 0.2720(2) 0.34172(13)
H1 H 0.8577 0.1978 0.3646
C3 C 0.9481(3) 0.3787(2) 0.38897(13)
H2 H 0.9371 0.3782 0.4451
C4 C 1.0118(3) 0.4888(2) 0.35570(13)
C5 C 1.0322(3) 0.4895(2) 0.27362(13)
H3 H 1.0774 0.5633 0.2506
C6 C 0.9859(3) 0.3819(2) 0.22645(13)
H4 H 0.9996 0.3818 0.1705
C7 C 0.8682(4) 0.1659(3) 0.20618(14)
N1 N 0.8283(3) 0.0828(2) 0.16106(13)
O1 O 1.0501(3) 0.58773(16) 0.40967(9)
C8 C 1.1195(4) 0.7066(2) 0.38575(15)
H5 H 1.2060 0.6966 0.3426
H6 H 1.1964 0.7535 0.4320
C9 C 0.9585(4) 0.7792(3) 0.35608(15)
H7 H 0.8437 0.7597 0.3858
H8 H 1.0003 0.8685 0.3648
O2 O 0.9111(3) 0.74658(17) 0.27161(10)
C10 C 0.7396(4) 0.7736(2) 0.23594(14)
C11 C 0.6961(4) 0.7250(2) 0.15636(14)
H9 H 0.7847 0.6786 0.1314
C12 C 0.5242(4) 0.7449(2) 0.11462(15)
H10 H 0.4932 0.7114 0.0610
C13 C 0.3956(4) 0.8146(3) 0.15158(16)
C14 C 0.4390(4) 0.8611(3) 0.23064(15)
H11 H 0.3503 0.9074 0.2557
C15 C 0.6103(4) 0.8408(2) 0.27336(15)
H12 H 0.6391 0.8723 0.3276
C16 C 0.2220(4) 0.8440(3) 0.10730(17)
N2 N 0.0887(3) 0.8728(2) 0.07236(15)
C17 C 0.5783(3) -0.2657(2) -0.18612(13)
C18 C 0.5207(3) -0.3906(2) -0.18444(14)
H13 H 0.4992 -0.4257 -0.1349
C19 C 0.4950(4) -0.4633(2) -0.25487(13)
H14 H 0.4557 -0.5489 -0.2540
C20 C 0.5265(3) -0.4114(2) -0.32784(13)
C21 C 0.5829(3) -0.2869(2) -0.33052(13)
H15 H 0.6036 -0.2520 -0.3802
C22 C 0.6088(4) -0.2135(2) -0.25891(14)
H16 H 0.6472 -0.1278 -0.2596
C23 C 0.6085(4) -0.1885(3) -0.11273(14)
N3 N 0.6321(3) -0.1277(2) -0.05459(12)
O3 O 0.4985(2) -0.49254(16) -0.39336(9)
C24 C 0.5233(4) -0.4455(2) -0.47032(13)
H17 H 0.6579 -0.4083 -0.4726
H18 H 0.4346 -0.3823 -0.4816
Ag1_2 Ag 1.78907(3) -1.05016(2) 0.057479(11)
Ag1_3 Ag -0.21093(3) 0.94984(2) 0.057479(11)
Ag1A Ag 0.21093(3) -0.94984(2) -1.057479(11)
C1_2 C 1.9199(3) -0.7261(2) 0.25901(13)
C2_2 C 1.9016(3) -0.7280(2) 0.34172(13)
H1_2 H 1.8577 -0.8022 0.3646
C3_2 C 1.9481(3) -0.6213(2) 0.38897(13)
H2_2 H 1.9371 -0.6218 0.4451
C4_2 C 2.0118(3) -0.5112(2) 0.35570(13)
C5_2 C 2.0322(3) -0.5105(2) 0.27362(13)
H3_2 H 2.0774 -0.4367 0.2506
C6_2 C 1.9859(3) -0.6181(2) 0.22645(13)
H4_2 H 1.9996 -0.6182 0.1705
C7_2 C 1.8682(4) -0.8341(3) 0.20618(14)
N1_2 N 1.8283(3) -0.9172(2) 0.16106(13)
O1_2 O 2.0501(3) -0.41227(16) 0.40967(9)
C8_2 C 2.1195(4) -0.2934(2) 0.38575(15)
H5_2 H 2.2060 -0.3034 0.3426
H6_2 H 2.1964 -0.2465 0.4320
C9_2 C 1.9585(4) -0.2208(3) 0.35608(15)
H7_2 H 1.8437 -0.2403 0.3858
H8_2 H 2.0003 -0.1315 0.3648
O2_2 O 1.9111(3) -0.25342(17) 0.27161(10)
C10_2 C 1.7396(4) -0.2264(2) 0.23594(14)
C11_2 C 1.6961(4) -0.2750(2) 0.15636(14)
H9_2 H 1.7847 -0.3214 0.1314
C12_2 C 1.5242(4) -0.2551(2) 0.11462(15)
H10_2 H 1.4932 -0.2886 0.0610
C13_2 C 1.3956(4) -0.1854(3) 0.15158(16)
C14_2 C 1.4390(4) -0.1389(3) 0.23064(15)
H11_2 H 1.3503 -0.0926 0.2557
C15_2 C 1.6103(4) -0.1592(2) 0.27336(15)
H12_2 H 1.6391 -0.1277 0.3276
C16_2 C 1.2220(4) -0.1560(3) 0.10730(17)
N2_2 N 1.0887(3) -0.1272(2) 0.07236(15)
N2_3 N 2.0887(3) -1.1272(2) 0.07236(15)
C17A C 0.4217(3) -0.7343(2) -0.81388(13)
C18A C 0.4793(3) -0.6094(2) -0.81556(14)
H13A H 0.5008 -0.5743 -0.8651
C19A C 0.5050(4) -0.5367(2) -0.74513(13)
H14A H 0.5443 -0.4511 -0.7460
C20A C 0.4735(3) -0.5886(2) -0.67216(13)
C21A C 0.4171(3) -0.7131(2) -0.66948(13)
H15A H 0.3964 -0.7480 -0.6198
C22A C 0.3912(4) -0.7865(2) -0.74109(14)
H16A H 0.3528 -0.8722 -0.7404
C23A C 0.3915(4) -0.8115(3) -0.88727(14)
N3A N 0.3679(3) -0.8723(2) -0.94541(12)
N3_2 N 1.6321(3) -1.1277(2) -0.05459(12)
O3A O 0.5015(2) -0.50746(16) -0.60664(9)
C24A C 0.4767(4) -0.5545(2) -0.52968(13)
H17A H 0.3421 -0.5917 -0.5274
H18A H 0.5654 -0.6177 -0.5184
As1 As 0.0000 0.5000 0.0000
F1 F 0.1948(3) 0.5759(2) -0.03780(10)
F2 F -0.1325(3) 0.61724(18) -0.02390(10)
F3 F 0.0724(2) 0.57183(15) 0.09329(8)
F1A F -0.1948(3) 0.4241(2) 0.03780(10)
F2A F 0.1325(3) 0.38276(18) 0.02390(10)
F3A F -0.0724(2) 0.42817(15) -0.09329(8)
As2 As 0.5000 0.0000 0.5000
F4 F 0.6996(3) 0.05881(18) 0.45728(10)
F5 F 0.4409(3) 0.14609(16) 0.51965(10)
F6 F 0.6315(3) 0.00824(17) 0.59227(9)
F4A F 0.3004(3) -0.05881(18) 0.54272(10)
F5A F 0.5591(3) -0.14609(16) 0.48035(10)
F6A F 0.3685(3) -0.00824(17) 0.40773(9)
loop_
_geom_bond_atom_site_label_1
_geom_bond_atom_site_label_2
_geom_bond_site_symmetry_1
_geom_bond_site_symmetry_2
Ag1 N1 1_555 1_555
C1 C2 1_555 1_555
C2 H1 1_555 1_555
C3 C2 1_555 1_555
H2 C3 1_555 1_555
C4 C3 1_555 1_555
C5 C4 1_555 1_555
H3 C5 1_555 1_555
C6 C1 1_555 1_555
H4 C6 1_555 1_555
C7 C1 1_555 1_555
N1 C7 1_555 1_555
O1 C4 1_555 1_555
C8 O1 1_555 1_555
H5 C8 1_555 1_555
H6 C8 1_555 1_555
C9 C8 1_555 1_555
H7 C9 1_555 1_555
H8 C9 1_555 1_555
O2 C9 1_555 1_555
C10 O2 1_555 1_555
C11 C10 1_555 1_555
H9 C11 1_555 1_555
C12 C11 1_555 1_555
H10 C12 1_555 1_555
C13 C12 1_555 1_555
C14 C13 1_555 1_555
H11 C14 1_555 1_555
C15 C10 1_555 1_555
H12 C15 1_555 1_555
C16 C13 1_555 1_555
N2 C16 1_555 1_555
C17 C18 1_555 1_555
C18 H13 1_555 1_555
C19 C18 1_555 1_555
H14 C19 1_555 1_555
C20 C19 1_555 1_555
C21 C20 1_555 1_555
H15 C21 1_555 1_555
C22 C17 1_555 1_555
H16 C22 1_555 1_555
C23 C17 1_555 1_555
N3 Ag1 1_555 1_555
O3 C20 1_555 1_555
C24 O3 1_555 1_555
H17 C24 1_555 1_555
H18 C24 1_555 1_555
As1 F1 1_555 1_555
F2 As1 1_555 1_555
F3 As1 1_555 1_555
As2 F4 1_555 1_555
F5 As2 1_555 1_555
F6 As2 1_555 1_555
Ag1_2 N1_2 1_555 1_555
Ag1_3 N2 1_555 1_555
Ag1A N3A 1_555 1_555
C1_2 C2_2 1_555 1_555
C2_2 H1_2 1_555 1_555
C3_2 C2_2 1_555 1_555
H2_2 C3_2 1_555 1_555
C4_2 C3_2 1_555 1_555
C5_2 C4_2 1_555 1_555
H3_2 C5_2 1_555 1_555
C6_2 C1_2 1_555 1_555
H4_2 C6_2 1_555 1_555
C7_2 C1_2 1_555 1_555
N1_2 C7_2 1_555 1_555
O1_2 C4_2 1_555 1_555
C8_2 O1_2 1_555 1_555
H5_2 C8_2 1_555 1_555
H6_2 C8_2 1_555 1_555
C9_2 C8_2 1_555 1_555
H7_2 C9_2 1_555 1_555
H8_2 C9_2 1_555 1_555
O2_2 C9_2 1_555 1_555
C10_2 O2_2 1_555 1_555
C11_2 C10_2 1_555 1_555
H9_2 C11_2 1_555 1_555
C12_2 C11_2 1_555 1_555
H10_2 C12_2 1_555 1_555
C13_2 C12_2 1_555 1_555
C14_2 C13_2 1_555 1_555
H11_2 C14_2 1_555 1_555
C15_2 C10_2 1_555 1_555
H12_2 C15_2 1_555 1_555
C16_2 C13_2 1_555 1_555
N2_2 Ag1 1_555 1_555
N2_3 Ag1_2 1_555 1_555
C17A C18A 1_555 1_555
C18A H13A 1_555 1_555
C19A C18A 1_555 1_555
H14A C19A 1_555 1_555
C20A C19A 1_555 1_555
C21A C20A 1_555 1_555
H15A C21A 1_555 1_555
C22A C17A 1_555 1_555
H16A C22A 1_555 1_555
C23A C17A 1_555 1_555
N3A C23A 1_555 1_555
N3_2 Ag1_2 1_555 1_555
O3A C20A 1_555 1_555
C24A C24 1_555 1_555
H17A C24A 1_555 1_555
H18A C24A 1_555 1_555
F1A As1 1_555 1_555
F2A As1 1_555 1_555
F3A As1 1_555 1_555
F4A As2 1_555 1_555
F5A As2 1_555 1_555
F6A As2 1_555 1_555
C5 C6 1_555 1_555
C14 C15 1_555 1_555
C21 C22 1_555 1_555
C23 N3 1_555 1_555
C5_2 C6_2 1_555 1_555
C14_2 C15_2 1_555 1_555
C16_2 N2_2 1_555 1_555
C21A C22A 1_555 1_555
O3A C24A 1_555 1_555

#END
