
#######################################################################
#
#                 Cambridge Crystallographic Data Centre
#                                CCDC 
#
#######################################################################
#
# If this CIF has been generated from an entry in the Cambridge 
# Structural Database, then it will include bibliographic, chemical, 
# crystal, experimental, refinement or atomic coordinate data resulting 
# from the CCDC's data processing and validation procedures.
#
#######################################################################

data_YETTEX
_symmetry_cell_setting           orthorhombic
_symmetry_space_group_name_H-M   'P 21 21 21'
_symmetry_Int_Tables_number      19
_space_group_name_Hall           'P 2ac 2ab'
loop_
_symmetry_equiv_pos_site_id
_symmetry_equiv_pos_as_xyz
1 x,y,z
2 1/2-x,-y,1/2+z
3 -x,1/2+y,1/2-z
4 1/2+x,1/2-y,-z
_cell_length_a                   8.9908(15)
_cell_length_b                   10.4041(17)
_cell_length_c                   29.832(5)
_cell_angle_alpha                90
_cell_angle_beta                 90
_cell_angle_gamma                90
_cell_volume                     2790.52
loop_
_atom_site_label
_atom_site_type_symbol
_atom_site_fract_x
_atom_site_fract_y
_atom_site_fract_z
Ag1 Ag -0.29255(10) -0.50478(10) -0.37580(3)
N1 N -0.2879(8) -0.0656(7) -0.2190(3)
N2 N -0.1858(8) 0.0336(6) -0.2228(3)
N3 N -0.4436(9) -0.3542(7) -0.3539(3)
N4 N -0.1306(8) 0.3428(7) -0.3666(2)
C1 C -0.3033(10) -0.0871(8) -0.1766(3)
C2 C -0.3926(11) -0.1811(8) -0.1522(3)
C3 C -0.3943(12) -0.1806(9) -0.1049(3)
H1 H -0.3385 -0.1209 -0.0889
C4 C -0.4796(14) -0.2695(12) -0.0831(4)
H2 H -0.4846 -0.2658 -0.0520
C5 C -0.5559(14) -0.3610(11) -0.1040(4)
H3 H -0.6063 -0.4232 -0.0876
C6 C -0.5597(12) -0.3630(9) -0.1502(4)
H4 H -0.6186 -0.4228 -0.1652
C7 C -0.4767(12) -0.2768(9) -0.1739(3)
C8 C -0.5554(11) -0.2005(10) -0.2446(3)
C9 C -0.5435(12) -0.2283(9) -0.2923(4)
C10 C -0.6191(12) -0.1537(9) -0.3238(4)
H5 H -0.6774 -0.0849 -0.3145
C11 C -0.6073(14) -0.1823(12) -0.3684(4)
H6 H -0.6594 -0.1333 -0.3892
C12 C -0.5232(13) -0.2780(11) -0.3825(4)
H7 H -0.5178 -0.2944 -0.4131
C13 C -0.4554(10) -0.3275(9) -0.3108(3)
H8 H -0.4012 -0.3781 -0.2910
C14 C -0.1483(11) 0.0631(8) -0.1823(3)
C15 C -0.0443(11) 0.1637(9) -0.1663(3)
C16 C -0.0124(11) 0.1675(8) -0.1206(3)
H9 H -0.0555 0.1082 -0.1012
C17 C 0.0827(15) 0.2590(10) -0.1044(4)
H10 H 0.1044 0.2605 -0.0739
C18 C 0.1448(12) 0.3457(10) -0.1311(4)
H11 H 0.2065 0.4087 -0.1192
C19 C 0.1175(12) 0.3422(9) -0.1771(3)
H12 H 0.1633 0.4008 -0.1962
C20 C 0.0228(12) 0.2519(8) -0.1936(3)
C21 C 0.0560(11) 0.1802(9) -0.2691(3)
C22 C 0.0073(12) 0.2108(9) -0.3159(3)
C23 C -0.0829(10) 0.3115(9) -0.3256(3)
H13 H -0.1140 0.3628 -0.3018
C24 C 0.0612(12) 0.1389(10) -0.3517(4)
H14 H 0.1280 0.0720 -0.3470
C25 C 0.0138(13) 0.1689(12) -0.3938(4)
H15 H 0.0446 0.1198 -0.4181
C26 C -0.0755(15) 0.2674(12) -0.3999(4)
H16 H -0.1029 0.2869 -0.4292
C27 C -0.2192(19) -0.492(2) -0.4816(8)
H17 H -0.1975 -0.5771 -0.4933
H18 H -0.1359 -0.4615 -0.4640
C28 C -0.261(2) -0.400(2) -0.5178(7)
H19 H -0.3083 -0.4461 -0.5418
H20 H -0.1731 -0.3585 -0.5289
H21 H -0.3282 -0.3370 -0.5060
O1 O -0.2179(6) -0.0087(7) -0.15192(18)
O2 O -0.4735(8) -0.2903(6) -0.2202(2)
O3 O -0.6263(8) -0.1189(6) -0.2278(2)
O4 O -0.0143(8) 0.2590(6) -0.23943(18)
O5 O 0.1426(8) 0.0985(7) -0.2585(2)
O6 O -0.3482(15) -0.4893(17) -0.4584(4)
H22 H -0.4426 -0.4826 -0.4709
Ag1_2 Ag -0.29255(10) 0.49522(10) -0.37580(3)
N4_2 N -0.1306(8) -0.6572(7) -0.3666(2)
B1 B -0.265(3) -1.022(3) -0.5019(5)
F1 F -0.3600(16) -0.9354(16) -0.5191(5)
F2 F -0.1657(16) -0.9318(15) -0.4881(4)
F3 F -0.2138(15) -1.0708(11) -0.5369(4)
F4 F -0.3001(14) -1.0703(9) -0.4684(3)
loop_
_geom_bond_atom_site_label_1
_geom_bond_atom_site_label_2
_geom_bond_site_symmetry_1
_geom_bond_site_symmetry_2
Ag1 N3 1_555 1_555
N1 N2 1_555 1_555
N2 C14 1_555 1_555
N3 C12 1_555 1_555
N4 C23 1_555 1_555
C1 N1 1_555 1_555
C2 C1 1_555 1_555
C3 C2 1_555 1_555
H1 C3 1_555 1_555
C4 C3 1_555 1_555
H2 C4 1_555 1_555
C5 C4 1_555 1_555
H3 C5 1_555 1_555
C6 C5 1_555 1_555
H4 C6 1_555 1_555
C7 C2 1_555 1_555
C8 C9 1_555 1_555
C9 C10 1_555 1_555
C10 H5 1_555 1_555
C11 C10 1_555 1_555
H6 C11 1_555 1_555
C12 C11 1_555 1_555
H7 C12 1_555 1_555
C13 N3 1_555 1_555
H8 C13 1_555 1_555
C14 C15 1_555 1_555
C15 C16 1_555 1_555
C16 H9 1_555 1_555
C17 C16 1_555 1_555
H10 C17 1_555 1_555
C18 C17 1_555 1_555
H11 C18 1_555 1_555
C19 C18 1_555 1_555
H12 C19 1_555 1_555
C20 C15 1_555 1_555
C21 C22 1_555 1_555
C22 C23 1_555 1_555
C23 H13 1_555 1_555
C24 C22 1_555 1_555
H14 C24 1_555 1_555
C25 C24 1_555 1_555
H15 C25 1_555 1_555
C26 N4 1_555 1_555
H16 C26 1_555 1_555
C27 H17 1_555 1_555
H18 C27 1_555 1_555
C28 C27 1_555 1_555
H19 C28 1_555 1_555
H20 C28 1_555 1_555
H21 C28 1_555 1_555
O1 C1 1_555 1_555
O2 C7 1_555 1_555
O3 C8 1_555 1_555
O4 C20 1_555 1_555
O5 C21 1_555 1_555
O6 Ag1 1_555 1_555
H22 O6 1_555 1_555
B1 F1 1_555 1_555
F2 B1 1_555 1_555
F3 B1 1_555 1_555
F4 B1 1_555 1_555
Ag1_2 N4 1_555 1_555
N4_2 Ag1 1_555 1_555
C6 C7 1_555 1_555
C8 O2 1_555 1_555
C9 C13 1_555 1_555
C14 O1 1_555 1_555
C19 C20 1_555 1_555
C21 O4 1_555 1_555
C25 C26 1_555 1_555
C27 O6 1_555 1_555

#END
