
#######################################################################
#
#                 Cambridge Crystallographic Data Centre
#                                CCDC 
#
#######################################################################
#
# If this CIF has been generated from an entry in the Cambridge 
# Structural Database, then it will include bibliographic, chemical, 
# crystal, experimental, refinement or atomic coordinate data resulting 
# from the CCDC's data processing and validation procedures.
#
#######################################################################

data_YETYEC
_symmetry_cell_setting           trigonal
_symmetry_space_group_name_H-M   'P -3 1 c'
_symmetry_Int_Tables_number      163
_space_group_name_Hall           "-P 3 2'c"
loop_
_symmetry_equiv_pos_site_id
_symmetry_equiv_pos_as_xyz
1 x,y,z
2 -y,x-y,z
3 -x+y,-x,z
4 -x+y,y,1/2-z
5 x,x-y,1/2-z
6 -y,-x,1/2-z
7 -x,-y,-z
8 y,-x+y,-z
9 x-y,x,-z
10 x-y,-y,1/2+z
11 -x,-x+y,1/2+z
12 y,x,1/2+z
_cell_length_a                   11.7151(15)
_cell_length_b                   11.7151(15)
_cell_length_c                   14.239(3)
_cell_angle_alpha                90
_cell_angle_beta                 90
_cell_angle_gamma                120
_cell_volume                     1692.4
loop_
_atom_site_label
_atom_site_type_symbol
_atom_site_fract_x
_atom_site_fract_y
_atom_site_fract_z
K1 K 0.3219(19) 0.6781(19) 0.2500
Na1 Na 0.3333 0.6667 0.7500
S1 S 0.00226(11) 0.68459(10) 0.54770(8)
S2 S 0.11481(14) 0.68397(13) 0.36370(8)
B1 B 0.3333 0.6667 0.5029(5)
H1 H 0.3333 0.6667 0.424(4)
C1 C 0.1214(3) 0.6792(3) 0.4797(3)
C2 C 0.0822(4) 0.6779(4) 0.6463(3)
H2 H 0.0501 0.6771 0.7078
N1 N 0.1880(3) 0.6742(3) 0.6319(2)
N2 N 0.2112(3) 0.6739(3) 0.5366(2)
K1A K 0.3219(19) 0.6438(27) 0.2500
K1B K 0.3562(27) 0.6781(19) 0.2500
K1A_2 K 0.3219(19) 0.6438(27) 1.2500
K1B_2 K 0.3562(27) 0.6781(19) 1.2500
K1_2 K 0.3219(19) 0.6781(19) 1.2500
S1A S 0.31541(10) 0.31767(15) 0.54770(8)
S1B S 0.68233(15) 0.99774(11) 0.54770(8)
S1C S 0.68233(15) 0.68459(10) 0.95230(8)
S1D S 0.00226(11) 0.31767(15) 0.95230(8)
S1E S 0.31541(10) 0.99774(11) 0.95230(8)
S2A S 0.31603(13) 0.43084(19) 0.36370(8)
S2B S 0.56916(19) 0.88519(14) 0.36370(8)
S2C S 0.56916(19) 0.68397(13) 1.13630(8)
S2D S 0.11481(14) 0.43084(19) 1.13630(8)
S2E S 0.31603(13) 0.88519(14) 1.13630(8)
S2D_2 S 0.11481(14) 0.43084(19) 0.13630(8)
S2E_2 S 0.31603(13) 0.88519(14) 0.13630(8)
S2C_2 S 0.56916(19) 0.68397(13) 0.13630(8)
B1C B 0.3334 0.6667 0.9971(5)
H1C H 0.3334 0.6667 1.076(4)
H1C_2 H 0.3334 0.6667 0.076(4)
H1_2 H 0.3333 0.6667 1.424(4)
C1A C 0.3208(3) 0.4422(4) 0.4797(3)
C1B C 0.5578(4) 0.8786(3) 0.4797(3)
C1C C 0.5578(4) 0.6792(3) 1.0203(3)
C1D C 0.1214(3) 0.4422(4) 1.0203(3)
C1E C 0.3208(3) 0.8786(3) 1.0203(3)
C2A C 0.3221(4) 0.4043(6) 0.6463(3)
C2B C 0.5957(6) 0.9178(4) 0.6463(3)
C2C C 0.5957(6) 0.6779(4) 0.8537(3)
C2D C 0.0822(4) 0.4043(6) 0.8537(3)
C2E C 0.3221(4) 0.9178(4) 0.8537(3)
H2A H 0.3229 0.3730 0.7078
H2B H 0.6270 0.9499 0.7078
H2C H 0.6270 0.6771 0.7922
H2D H 0.0501 0.3730 0.7922
H2E H 0.3229 0.9499 0.7922
N1A N 0.3258(3) 0.5138(4) 0.6319(2)
N1B N 0.4862(4) 0.8120(3) 0.6319(2)
N1C N 0.4862(4) 0.6742(3) 0.8681(2)
N1D N 0.1880(3) 0.5138(4) 0.8681(2)
N1E N 0.3258(3) 0.8120(3) 0.8681(2)
N2A N 0.3261(3) 0.5373(4) 0.5366(2)
N2B N 0.4627(4) 0.7888(3) 0.5366(2)
N2C N 0.4627(4) 0.6739(3) 0.9634(2)
N2D N 0.2112(3) 0.5373(4) 0.9634(2)
N2E N 0.3261(3) 0.7888(3) 0.9634(2)
loop_
_geom_bond_atom_site_label_1
_geom_bond_atom_site_label_2
_geom_bond_site_symmetry_1
_geom_bond_site_symmetry_2
K1 S2 1_555 1_555
Na1 N1 1_555 1_555
S1 C1 1_555 1_555
S2 C1 1_555 1_555
B1 H1 1_555 1_555
H1 K1 1_555 1_555
C1 N2 1_555 1_555
C2 S1 1_555 1_555
H2 C2 1_555 1_555
N1 C2 1_555 1_555
N2 B1 1_555 1_555
K1A K1 1_555 1_555
K1B K1 1_555 1_555
K1A_2 K1B_2 1_555 1_555
K1B_2 K1_2 1_555 1_555
K1_2 K1A_2 1_555 1_555
S1A C1A 1_555 1_555
S1B C1B 1_555 1_555
S1C C1C 1_555 1_555
S1D C1D 1_555 1_555
S1E C1E 1_555 1_555
S2A K1A 1_555 1_555
S2B K1 1_555 1_555
S2C K1A_2 1_555 1_555
S2D K1A_2 1_555 1_555
S2E K1B_2 1_555 1_555
S2D_2 K1 1_555 1_555
S2E_2 K1 1_555 1_555
S2C_2 K1A 1_555 1_555
B1C H1C 1_555 1_555
H1C K1A_2 1_555 1_555
H1C_2 K1 1_555 1_555
H1_2 K1A_2 1_555 1_555
C1A S2A 1_555 1_555
C1B S2B 1_555 1_555
C1C S2C 1_555 1_555
C1D S2D 1_555 1_555
C1E S2E 1_555 1_555
C2A S1A 1_555 1_555
C2B S1B 1_555 1_555
C2C S1C 1_555 1_555
C2D S1D 1_555 1_555
C2E S1E 1_555 1_555
H2A C2A 1_555 1_555
H2B C2B 1_555 1_555
H2C C2C 1_555 1_555
H2D C2D 1_555 1_555
H2E C2E 1_555 1_555
N1A Na1 1_555 1_555
N1B Na1 1_555 1_555
N1C Na1 1_555 1_555
N1D Na1 1_555 1_555
N1E Na1 1_555 1_555
N2A B1 1_555 1_555
N2B B1 1_555 1_555
N2C B1C 1_555 1_555
N2D B1C 1_555 1_555
N2E B1C 1_555 1_555
S2 K1A 1_555 1_555
H1 K1A 1_555 1_555
H1 K1B 1_555 1_555
N1 N2 1_555 1_555
K1A K1B 1_555 1_555
K1A S2D_2 1_555 1_555
K1A H1C_2 1_555 1_555
K1B S2A 1_555 1_555
K1B S2B 1_555 1_555
K1B S2E_2 1_555 1_555
K1B S2C_2 1_555 1_555
K1B H1C_2 1_555 1_555
K1B_2 S2C 1_555 1_555
K1B_2 H1C 1_555 1_555
K1B_2 H1_2 1_555 1_555
K1_2 S2D 1_555 1_555
K1_2 S2E 1_555 1_555
K1_2 H1C 1_555 1_555
K1_2 H1_2 1_555 1_555
C1A N2A 1_555 1_555
C1B N2B 1_555 1_555
C1C N2C 1_555 1_555
C1D N2D 1_555 1_555
C1E N2E 1_555 1_555
C2A N1A 1_555 1_555
C2B N1B 1_555 1_555
C2C N1C 1_555 1_555
C2D N1D 1_555 1_555
C2E N1E 1_555 1_555
N1A N2A 1_555 1_555
N1B N2B 1_555 1_555
N1C N2C 1_555 1_555
N1D N2D 1_555 1_555
N1E N2E 1_555 1_555

#END
