
#######################################################################
#
#                 Cambridge Crystallographic Data Centre
#                                CCDC 
#
#######################################################################
#
# If this CIF has been generated from an entry in the Cambridge 
# Structural Database, then it will include bibliographic, chemical, 
# crystal, experimental, refinement or atomic coordinate data resulting 
# from the CCDC's data processing and validation procedures.
#
#######################################################################

data_YETYAY
_symmetry_cell_setting           orthorhombic
_symmetry_space_group_name_H-M   'P n a 21'
_symmetry_Int_Tables_number      33
_space_group_name_Hall           'P 2c -2n'
loop_
_symmetry_equiv_pos_site_id
_symmetry_equiv_pos_as_xyz
1 x,y,z
2 -x,-y,1/2+z
3 1/2+x,1/2-y,z
4 1/2-x,1/2+y,1/2+z
_cell_length_a                   15.0309(8)
_cell_length_b                   13.7979(8)
_cell_length_c                   8.6280(5)
_cell_angle_alpha                90
_cell_angle_beta                 90
_cell_angle_gamma                90
_cell_volume                     1789.4
loop_
_atom_site_label
_atom_site_type_symbol
_atom_site_fract_x
_atom_site_fract_y
_atom_site_fract_z
K1 K 0.27703(3) 0.76401(4) 0.34757(6)
S1 S -0.00270(5) 0.49633(5) 0.16350(9)
S2 S 0.14902(4) 0.63447(5) 0.10985(8)
S3 S -0.00112(4) 0.75656(4) 0.83602(8)
S4 S 0.16618(4) 0.70237(5) 0.66693(8)
S5 S -0.01243(4) 0.99209(4) 0.11451(8)
S6 S 0.15122(4) 0.95517(4) 0.30386(7)
B1 B 0.03892(19) 0.75391(18) 0.3731(3)
H1 H 0.1054 0.7552 0.3706
C1 C 0.05400(16) 0.60419(16) 0.1984(3)
C2 C -0.08412(16) 0.53278(17) 0.2891(3)
H2 H -0.1346 0.4938 0.3113
C3 C 0.06015(16) 0.74055(15) 0.6666(3)
C4 C -0.09185(17) 0.78737(17) 0.7239(3)
H3 H -0.1477 0.8041 0.7681
C5 C 0.05030(15) 0.92111(15) 0.2419(3)
C6 C -0.09708(15) 0.90863(16) 0.1282(2)
H4 H -0.1518 0.9161 0.0745
C7 C 0.27469(18) 0.8804(2) -0.0403(3)
C8 C 0.2231(3) 0.9504(3) -0.1225(5)
H5 H 0.1769 0.9173 -0.1827
H6 H 0.2618 0.9870 -0.1926
H7 H 0.1951 0.9948 -0.0485
N1 N -0.07245(12) 0.61607(13) 0.3511(2)
N2 N 0.00645(11) 0.65682(13) 0.3014(2)
N3 N -0.07909(12) 0.78621(13) 0.5770(2)
N4 N 0.00782(13) 0.76017(12) 0.5439(2)
N5 N -0.08109(12) 0.83560(14) 0.2159(2)
N6 N 0.00325(11) 0.84160(13) 0.2795(2)
N7 N 0.3130(2) 0.8238(2) 0.0258(3)
K1B K -0.22297(3) 0.73599(4) 0.34757(6)
N1B N 0.42755(12) 0.88393(13) 0.3511(2)
N3B N 0.42091(12) 0.71379(13) 0.5770(2)
N5B N 0.41891(12) 0.66440(14) 0.2159(2)
loop_
_geom_bond_atom_site_label_1
_geom_bond_atom_site_label_2
_geom_bond_site_symmetry_1
_geom_bond_site_symmetry_2
K1 S2 1_555 1_555
S1 C1 1_555 1_555
S2 C1 1_555 1_555
S3 C3 1_555 1_555
S4 K1 1_555 1_555
S5 C5 1_555 1_555
S6 K1 1_555 1_555
B1 H1 1_555 1_555
H1 K1 1_555 1_555
C1 N2 1_555 1_555
C2 S1 1_555 1_555
H2 C2 1_555 1_555
C3 S4 1_555 1_555
C4 S3 1_555 1_555
H3 C4 1_555 1_555
C5 S6 1_555 1_555
C6 S5 1_555 1_555
H4 C6 1_555 1_555
C7 C8 1_555 1_555
C8 H5 1_555 1_555
H6 C8 1_555 1_555
H7 C8 1_555 1_555
N1 C2 1_555 1_555
N2 B1 1_555 1_555
N3 C4 1_555 1_555
N4 B1 1_555 1_555
N5 C6 1_555 1_555
N6 B1 1_555 1_555
N7 K1 1_555 1_555
K1B N1 1_555 1_555
N1B K1 1_555 1_555
N3B K1 1_555 1_555
N5B K1 1_555 1_555
C3 N4 1_555 1_555
C5 N6 1_555 1_555
C7 N7 1_555 1_555
N1 N2 1_555 1_555
N3 N4 1_555 1_555
N3 K1B 1_555 1_555
N5 N6 1_555 1_555
N5 K1B 1_555 1_555

#END
