
#######################################################################
#
#                 Cambridge Crystallographic Data Centre
#                                CCDC 
#
#######################################################################
#
# If this CIF has been generated from an entry in the Cambridge 
# Structural Database, then it will include bibliographic, chemical, 
# crystal, experimental, refinement or atomic coordinate data resulting 
# from the CCDC's data processing and validation procedures.
#
#######################################################################

data_YEVDIN
_symmetry_cell_setting           orthorhombic
_symmetry_space_group_name_H-M   'P n m a'
_symmetry_Int_Tables_number      62
_space_group_name_Hall           '-P 2ac 2n'
loop_
_symmetry_equiv_pos_site_id
_symmetry_equiv_pos_as_xyz
1 x,y,z
2 1/2-x,-y,1/2+z
3 -x,1/2+y,-z
4 1/2+x,1/2-y,1/2-z
5 -x,-y,-z
6 1/2+x,y,1/2-z
7 x,1/2-y,z
8 1/2-x,1/2+y,1/2+z
_cell_length_a                   9.1506(4)
_cell_length_b                   13.1912(8)
_cell_length_c                   11.6910(6)
_cell_angle_alpha                90
_cell_angle_beta                 90
_cell_angle_gamma                90
_cell_volume                     1411.19
loop_
_atom_site_label
_atom_site_type_symbol
_atom_site_fract_x
_atom_site_fract_y
_atom_site_fract_z
U1 U 0.771797(16) 0.587804(10) 0.609098(10)
Na1 Na 0.3796(2) 0.7500 0.54677(19)
O1 O 0.5896(3) 0.6330(2) 0.6025(2)
O2 O 0.9544(3) 0.5440(2) 0.6164(2)
O3 O 0.1949(4) 0.3793(2) 0.5938(2)
O4 O 0.2027(3) 0.4429(2) 0.7716(2)
O5 O 0.2863(3) 0.5562(2) 0.5111(2)
O6 O 0.2820(3) 0.6229(2) 0.6876(2)
O7 O 0.8600(4) 0.7500 0.6080(3)
H1 H 0.9529 0.7500 0.5885
O8 O 0.4324(5) 0.7500 0.3514(4)
H2 H 0.4017 0.6902 0.3186
O9 O 0.1136(4) 0.7500 0.4743(4)
H3 H 0.1063 0.6876 0.4318
C1 C 0.2160(4) 0.4489(3) 0.6650(3)
C2 C 0.2662(4) 0.5512(4) 0.6169(3)
U1F U 0.771797(16) 0.912196(10) 0.609098(10)
U1D U 0.228203(16) 0.412196(10) 0.390902(10)
U1E U 0.271797(16) 0.587804(10) 0.890902(10)
U1B U 0.228203(16) 1.087804(10) 0.390902(10)
U1C U 0.271797(16) 0.912196(10) 0.890902(10)
O1F O 0.5896(3) 0.8670(2) 0.6025(2)
O2F O 0.9544(3) 0.9560(2) 0.6164(2)
O3F O 0.1949(4) 1.1207(2) 0.5938(2)
O3D O 0.8051(4) 0.6207(2) 0.4062(2)
O3B O 0.8051(4) 0.8793(2) 0.4062(2)
O4F O 0.2027(3) 1.0571(2) 0.7716(2)
O4E O 0.7027(3) 0.4429(2) 0.7284(2)
O4C O 0.7027(3) 1.0571(2) 0.7284(2)
O5F O 0.2863(3) 0.9438(2) 0.5111(2)
O5D O 0.7137(3) 0.4438(2) 0.4889(2)
O5B O 0.7137(3) 1.0562(2) 0.4889(2)
O6F O 0.2820(3) 0.8771(2) 0.6876(2)
O6E O 0.7820(3) 0.6229(2) 0.8124(2)
O6C O 0.7820(3) 0.8771(2) 0.8124(2)
H2F H 0.4017 0.8098 0.3186
H3F H 0.1063 0.8124 0.4318
C1F C 0.2160(4) 1.0511(3) 0.6650(3)
C2F C 0.2662(4) 0.9488(4) 0.6169(3)
loop_
_geom_bond_atom_site_label_1
_geom_bond_atom_site_label_2
_geom_bond_site_symmetry_1
_geom_bond_site_symmetry_2
U1 O1 1_555 1_555
Na1 O1 1_555 1_555
O2 U1 1_555 1_555
O3 C1 1_555 1_555
O4 C1 1_555 1_555
O5 Na1 1_555 1_555
O6 Na1 1_555 1_555
O7 U1 1_555 1_555
H1 O7 1_555 1_555
O8 Na1 1_555 1_555
H2 O8 1_555 1_555
O9 Na1 1_555 1_555
H3 O9 1_555 1_555
C1 C2 1_555 1_555
C2 O5 1_555 1_555
U1F O7 1_555 1_555
U1D O3 1_555 1_555
U1E O4 1_555 1_555
U1B O3F 1_555 1_555
U1C O4F 1_555 1_555
O1F Na1 1_555 1_555
O2F U1F 1_555 1_555
O3F C1F 1_555 1_555
O3D U1 1_555 1_555
O3B U1F 1_555 1_555
O4F C1F 1_555 1_555
O4E U1 1_555 1_555
O4C U1F 1_555 1_555
O5F Na1 1_555 1_555
O5D U1 1_555 1_555
O5B U1F 1_555 1_555
O6F Na1 1_555 1_555
O6E U1 1_555 1_555
O6C U1F 1_555 1_555
H2F O8 1_555 1_555
H3F O9 1_555 1_555
C1F C2F 1_555 1_555
C2F O5F 1_555 1_555
O5 U1D 1_555 1_555
O6 C2 1_555 1_555
O6 U1E 1_555 1_555
U1F O1F 1_555 1_555
U1B O5F 1_555 1_555
U1C O6F 1_555 1_555
O6F C2F 1_555 1_555

#END
