
#######################################################################
#
#                 Cambridge Crystallographic Data Centre
#                                CCDC 
#
#######################################################################
#
# If this CIF has been generated from an entry in the Cambridge 
# Structural Database, then it will include bibliographic, chemical, 
# crystal, experimental, refinement or atomic coordinate data resulting 
# from the CCDC's data processing and validation procedures.
#
#######################################################################

data_YEVDEJ
_symmetry_cell_setting           monoclinic
_symmetry_space_group_name_H-M   'P 21'
_symmetry_Int_Tables_number      4
_space_group_name_Hall           'P 2yb'
loop_
_symmetry_equiv_pos_site_id
_symmetry_equiv_pos_as_xyz
1 x,y,z
2 -x,1/2+y,-z
_cell_length_a                   5.3614(3)
_cell_length_b                   8.3366(6)
_cell_length_c                   9.8186(7)
_cell_angle_alpha                90
_cell_angle_beta                 99.268(5)
_cell_angle_gamma                90
_cell_volume                     433.122
loop_
_atom_site_label
_atom_site_type_symbol
_atom_site_fract_x
_atom_site_fract_y
_atom_site_fract_z
U1 U 0.38585(3) 0.97975(4) 0.693249(15)
O1 O 0.1097(8) 1.0952(6) 0.6827(5)
O2 O 0.6572(8) 0.8547(5) 0.7059(5)
O3 O 0.5474(8) 1.1864(5) 0.5661(4)
O4 O 0.7364(8) 1.4225(5) 0.5432(5)
O5 O 0.6698(8) 1.1779(5) 0.8312(4)
H1 H 0.8124 1.1272 0.8836
O6 O 0.3701(6) 1.4608(7) 0.8119(4)
H2 H 0.3116 1.4444 0.8944
O7 O 0.6148(7) 1.4524(6) 1.0668(4)
O8 O 0.9893(8) 1.5154(5) 1.0073(4)
O9 O 0.1444(8) 0.7373(5) 0.7004(5)
C1 C 0.6713(10) 1.3076(7) 0.6143(6)
C2 C 0.7500(11) 1.3201(7) 0.7687(7)
H3 H 0.9348 1.3262 0.7892
C3 C 0.6411(9) 1.4666(16) 0.8294(6)
H4 H 0.6884 1.5610 0.7798
C4 C 0.7591(9) 1.4847(13) 0.9815(5)
U1A U 0.61415(3) 1.47975(4) 0.306751(15)
U1A_2 U 0.61415(3) 1.47975(4) 1.306751(15)
O4A O 0.2636(8) 0.9225(5) 0.4568(5)
O7A O 0.3852(7) 0.9524(6) 0.9332(4)
loop_
_geom_bond_atom_site_label_1
_geom_bond_atom_site_label_2
_geom_bond_site_symmetry_1
_geom_bond_site_symmetry_2
U1 O1 1_555 1_555
O2 U1 1_555 1_555
O3 U1 1_555 1_555
O4 C1 1_555 1_555
O5 U1 1_555 1_555
H1 O5 1_555 1_555
O6 H2 1_555 1_555
O7 C4 1_555 1_555
O8 C4 1_555 1_555
O9 U1 1_555 1_555
C1 O3 1_555 1_555
C2 O5 1_555 1_555
H3 C2 1_555 1_555
C3 O6 1_555 1_555
H4 C3 1_555 1_555
C4 C3 1_555 1_555
U1A O4 1_555 1_555
U1A_2 O7 1_555 1_555
O4A U1 1_555 1_555
O7A U1 1_555 1_555
C1 C2 1_555 1_555
C2 C3 1_555 1_555

#END
