
#######################################################################
#
#                 Cambridge Crystallographic Data Centre
#                                CCDC 
#
#######################################################################
#
# If this CIF has been generated from an entry in the Cambridge 
# Structural Database, then it will include bibliographic, chemical, 
# crystal, experimental, refinement or atomic coordinate data resulting 
# from the CCDC's data processing and validation procedures.
#
#######################################################################

data_YEVFUB
_symmetry_cell_setting           monoclinic
_symmetry_space_group_name_H-M   'P 21/n'
_symmetry_Int_Tables_number      14
_space_group_name_Hall           '-P 2yn'
loop_
_symmetry_equiv_pos_site_id
_symmetry_equiv_pos_as_xyz
1 x,y,z
2 1/2-x,1/2+y,1/2-z
3 -x,-y,-z
4 1/2+x,1/2-y,1/2+z
_cell_length_a                   9.1015(10)
_cell_length_b                   8.5917(9)
_cell_length_c                   9.4926(10)
_cell_angle_alpha                90
_cell_angle_beta                 105.860(2)
_cell_angle_gamma                90
_cell_volume                     714.039
loop_
_atom_site_label
_atom_site_type_symbol
_atom_site_fract_x
_atom_site_fract_y
_atom_site_fract_z
Ni1 Ni 0.5000 0.0000 0.5000
O1 O 0.46915(12) 0.21744(12) 0.57833(11)
O2 O 0.29655(12) 0.32711(13) 0.39071(11)
O3 O 0.37528(12) 0.05479(13) 0.28740(11)
H1 H 0.314(2) -0.006(2) 0.229(2)
H2 H 0.327(2) 0.136(2) 0.299(2)
N1 N 0.19628(14) 0.42506(14) 0.94316(13)
C1 C 0.30471(17) 0.34274(17) 1.03721(16)
H3 H 0.2910 0.3179 1.1281
C2 C 0.43685(18) 0.29277(18) 1.00490(16)
H4 H 0.5096 0.2352 1.0728
C3 C 0.45887(17) 0.32967(17) 0.87036(16)
H5 H 0.5473 0.2986 0.8472
C4 C 0.34654(16) 0.41421(16) 0.76972(15)
C5 C 0.21818(16) 0.45922(17) 0.81178(15)
H6 H 0.1432 0.5161 0.7456
C6 C 0.36259(18) 0.46031(17) 0.62092(16)
H7 H 0.2746 0.5223 0.5713
H8 H 0.4524 0.5255 0.6346
C7 C 0.37622(15) 0.32306(16) 0.52223(15)
Ni1C Ni 0.0000 0.5000 1.0000
Ni1C_2 Ni 1.0000 -0.5000 0.0000
O1B O 0.53085(12) -0.21744(12) 0.42167(11)
O2B O 0.70345(12) -0.32711(13) 0.60929(11)
O3B O 0.62472(12) -0.05479(13) 0.71260(11)
H1B H 0.686(2) 0.006(2) 0.771(2)
H2B H 0.673(2) -0.136(2) 0.701(2)
N1B N 0.80372(14) -0.42506(14) 0.05684(13)
N1C N 0.69628(14) 0.07494(14) 0.44316(13)
N1A N 0.30372(14) -0.07494(14) 0.55684(13)
C1B C 0.69529(17) -0.34274(17) -0.03721(16)
H3B H 0.7090 -0.3179 -0.1281
C2B C 0.56315(18) -0.29277(18) -0.00490(16)
H4B H 0.4904 -0.2352 -0.0728
C3B C 0.54113(17) -0.32967(17) 0.12964(16)
H5B H 0.4527 -0.2986 0.1528
C4B C 0.65346(16) -0.41421(16) 0.23028(15)
C5B C 0.78182(16) -0.45922(17) 0.18822(15)
H6B H 0.8568 -0.5161 0.2544
C6B C 0.63741(18) -0.46031(17) 0.37908(16)
H7B H 0.7254 -0.5223 0.4287
H8B H 0.5476 -0.5255 0.3654
C7B C 0.62378(15) -0.32306(16) 0.47777(15)
loop_
_geom_bond_atom_site_label_1
_geom_bond_atom_site_label_2
_geom_bond_site_symmetry_1
_geom_bond_site_symmetry_2
Ni1 O1 1_555 1_555
O1 C7 1_555 1_555
O2 C7 1_555 1_555
O3 Ni1 1_555 1_555
H1 O3 1_555 1_555
H2 O3 1_555 1_555
N1 C1 1_555 1_555
C1 H3 1_555 1_555
C2 C1 1_555 1_555
H4 C2 1_555 1_555
C3 C2 1_555 1_555
H5 C3 1_555 1_555
C4 C3 1_555 1_555
C5 N1 1_555 1_555
H6 C5 1_555 1_555
C6 C4 1_555 1_555
H7 C6 1_555 1_555
H8 C6 1_555 1_555
C7 C6 1_555 1_555
Ni1C N1 1_555 1_555
Ni1C_2 N1B 1_555 1_555
O1B Ni1 1_555 1_555
O2B C7B 1_555 1_555
O3B Ni1 1_555 1_555
H1B O3B 1_555 1_555
H2B O3B 1_555 1_555
N1B C1B 1_555 1_555
N1C Ni1 1_555 1_555
N1A Ni1 1_555 1_555
C1B H3B 1_555 1_555
C2B C1B 1_555 1_555
H4B C2B 1_555 1_555
C3B C2B 1_555 1_555
H5B C3B 1_555 1_555
C4B C3B 1_555 1_555
C5B N1B 1_555 1_555
H6B C5B 1_555 1_555
C6B C4B 1_555 1_555
H7B C6B 1_555 1_555
H8B C6B 1_555 1_555
C7B O1B 1_555 1_555
C4 C5 1_555 1_555
C4B C5B 1_555 1_555
C6B C7B 1_555 1_555

#END
