
#######################################################################
#
#                 Cambridge Crystallographic Data Centre
#                                CCDC 
#
#######################################################################
#
# If this CIF has been generated from an entry in the Cambridge 
# Structural Database, then it will include bibliographic, chemical, 
# crystal, experimental, refinement or atomic coordinate data resulting 
# from the CCDC's data processing and validation procedures.
#
#######################################################################

data_YEVFOV
_symmetry_cell_setting           monoclinic
_symmetry_space_group_name_H-M   'P 21/n'
_symmetry_Int_Tables_number      14
_space_group_name_Hall           '-P 2yn'
loop_
_symmetry_equiv_pos_site_id
_symmetry_equiv_pos_as_xyz
1 x,y,z
2 1/2-x,1/2+y,1/2-z
3 -x,-y,-z
4 1/2+x,1/2-y,1/2+z
_cell_length_a                   9.4783(11)
_cell_length_b                   8.7574(10)
_cell_length_c                   9.9503(12)
_cell_angle_alpha                90
_cell_angle_beta                 104.141(2)
_cell_angle_gamma                90
_cell_volume                     800.9
loop_
_atom_site_label
_atom_site_type_symbol
_atom_site_fract_x
_atom_site_fract_y
_atom_site_fract_z
Co1 Co 0.0000 0.0000 0.0000
O1 O 0.22227(10) 0.28131(11) 0.14050(10)
O2 O 0.04640(10) 0.22477(11) -0.04850(10)
O3 O 0.10811(11) 0.02401(12) 0.21283(10)
H1 H 0.1630(18) 0.0982(18) 0.2083(18)
H2 H 0.1619(18) -0.0478(18) 0.2550(17)
N1 N 0.30180(12) 0.42566(13) -0.45052(11)
C1 C 0.14505(14) 0.30990(15) 0.01986(13)
C2 C 0.13131(14) 0.43304(15) -0.30580(13)
C3 C 0.04480(15) 0.32607(16) -0.39127(14)
H3 H -0.0406 0.2914 -0.3714
C4 C 0.21526(15) 0.32460(15) -0.53262(14)
H4 H 0.2425 0.2886 -0.6105
C5 C 0.17615(15) 0.46167(16) -0.04138(14)
H5 H 0.2776 0.4618 -0.0448
H6 H 0.1644 0.5417 0.0224
C6 C 0.25926(15) 0.47842(15) -0.33957(14)
H7 H 0.3185 0.5490 -0.2824
C7 C 0.08695(15) 0.27153(16) -0.50642(15)
H8 H 0.0300 0.2005 -0.5651
C8 C 0.08487(16) 0.50482(16) -0.18548(15)
H9 H 0.0877 0.6149 -0.1951
H10 H -0.0154 0.4763 -0.1915
Co1C Co 0.5000 0.5000 -0.5000
Co1C_2 Co -0.5000 -0.5000 0.5000
O1B O -0.22227(10) -0.28131(11) -0.14050(10)
O2B O -0.04640(10) -0.22477(11) 0.04850(10)
O3B O -0.10811(11) -0.02401(12) -0.21283(10)
H1B H -0.1630(18) -0.0982(18) -0.2083(18)
H2B H -0.1619(18) 0.0478(18) -0.2550(17)
N1B N -0.30180(12) -0.42566(13) 0.45052(11)
N1C N -0.19820(12) 0.07434(13) 0.04948(11)
N1A N 0.19820(12) -0.07434(13) -0.04948(11)
C1B C -0.14505(14) -0.30990(15) -0.01986(13)
C2B C -0.13131(14) -0.43304(15) 0.30580(13)
C3B C -0.04480(15) -0.32607(16) 0.39127(14)
H3B H 0.0406 -0.2914 0.3714
C4B C -0.21526(15) -0.32460(15) 0.53262(14)
H4B H -0.2425 -0.2886 0.6105
C5B C -0.17615(15) -0.46167(16) 0.04138(14)
H5B H -0.2776 -0.4618 0.0448
H6B H -0.1644 -0.5417 -0.0224
C6B C -0.25926(15) -0.47842(15) 0.33957(14)
H7B H -0.3185 -0.5490 0.2824
C7B C -0.08695(15) -0.27153(16) 0.50642(15)
H8B H -0.0300 -0.2005 0.5651
C8B C -0.08487(16) -0.50482(16) 0.18548(15)
H9B H -0.0877 -0.6149 0.1951
H10B H 0.0154 -0.4763 0.1915
loop_
_geom_bond_atom_site_label_1
_geom_bond_atom_site_label_2
_geom_bond_site_symmetry_1
_geom_bond_site_symmetry_2
Co1 O2 1_555 1_555
O1 C1 1_555 1_555
O2 C1 1_555 1_555
O3 Co1 1_555 1_555
H1 O3 1_555 1_555
H2 O3 1_555 1_555
N1 C4 1_555 1_555
C1 C5 1_555 1_555
C2 C3 1_555 1_555
C3 H3 1_555 1_555
C4 H4 1_555 1_555
C5 H5 1_555 1_555
H6 C5 1_555 1_555
C6 N1 1_555 1_555
H7 C6 1_555 1_555
C7 C3 1_555 1_555
H8 C7 1_555 1_555
C8 C2 1_555 1_555
H9 C8 1_555 1_555
H10 C8 1_555 1_555
Co1C N1 1_555 1_555
Co1C_2 N1B 1_555 1_555
O1B C1B 1_555 1_555
O2B Co1 1_555 1_555
O3B Co1 1_555 1_555
H1B O3B 1_555 1_555
H2B O3B 1_555 1_555
N1B C4B 1_555 1_555
N1C Co1 1_555 1_555
N1A Co1 1_555 1_555
C1B O2B 1_555 1_555
C2B C3B 1_555 1_555
C3B H3B 1_555 1_555
C4B H4B 1_555 1_555
C5B C1B 1_555 1_555
H5B C5B 1_555 1_555
H6B C5B 1_555 1_555
C6B N1B 1_555 1_555
H7B C6B 1_555 1_555
C7B C3B 1_555 1_555
H8B C7B 1_555 1_555
C8B C2B 1_555 1_555
H9B C8B 1_555 1_555
H10B C8B 1_555 1_555
C2 C6 1_555 1_555
C4 C7 1_555 1_555
C5 C8 1_555 1_555
C2B C6B 1_555 1_555
C4B C7B 1_555 1_555
C5B C8B 1_555 1_555

#END
