
#######################################################################
#
#                 Cambridge Crystallographic Data Centre
#                                CCDC 
#
#######################################################################
#
# If this CIF has been generated from an entry in the Cambridge 
# Structural Database, then it will include bibliographic, chemical, 
# crystal, experimental, refinement or atomic coordinate data resulting 
# from the CCDC's data processing and validation procedures.
#
#######################################################################

data_YEVGAI
_symmetry_cell_setting           monoclinic
_symmetry_space_group_name_H-M   'P 21/n'
_symmetry_Int_Tables_number      14
_space_group_name_Hall           '-P 2yn'
loop_
_symmetry_equiv_pos_site_id
_symmetry_equiv_pos_as_xyz
1 x,y,z
2 1/2-x,1/2+y,1/2-z
3 -x,-y,-z
4 1/2+x,1/2-y,1/2+z
_cell_length_a                   9.4139(15)
_cell_length_b                   8.7417(14)
_cell_length_c                   9.917(2)
_cell_angle_alpha                90
_cell_angle_beta                 104.051(2)
_cell_angle_gamma                90
_cell_volume                     791.687
loop_
_atom_site_label
_atom_site_type_symbol
_atom_site_fract_x
_atom_site_fract_y
_atom_site_fract_z
Ni1 Ni 0.5000 0.0000 0.0000
O1 O 0.3953(3) 0.0235(4) -0.2107(3)
H1 H 0.342(4) 0.102(3) -0.203(5)
H2 H 0.336(4) -0.047(4) -0.250(4)
O2 O 0.4532(3) 0.2221(3) 0.0488(3)
O3 O 0.2772(3) 0.2793(3) -0.1402(3)
N1 N 0.1946(4) 0.4265(4) 0.4516(4)
C1 C 0.2381(5) 0.4793(5) 0.3412(4)
H3 H 0.1792 0.5508 0.2843
C2 C 0.3664(5) 0.4332(5) 0.3067(5)
C3 C 0.4530(5) 0.3259(5) 0.3930(5)
H4 H 0.5390 0.2910 0.3732
C4 C 0.4106(5) 0.2714(6) 0.5083(5)
H5 H 0.4681 0.2007 0.5675
C5 C 0.2808(5) 0.3242(5) 0.5337(4)
H6 H 0.2522 0.2873 0.6111
C6 C 0.4137(4) 0.5031(6) 0.1852(4)
H7 H 0.4110 0.6136 0.1939
H8 H 0.5146 0.4743 0.1919
C7 C 0.3234(5) 0.4593(5) 0.0411(5)
H9 H 0.3357 0.5393 -0.0230
H10 H 0.2211 0.4595 0.0438
C8 C 0.3551(5) 0.3073(5) -0.0197(4)
Ni1C Ni 0.0000 0.5000 0.5000
Ni1C_2 Ni 1.0000 -0.5000 -0.5000
O1B O 0.6047(3) -0.0235(4) 0.2107(3)
H1B H 0.658(4) -0.102(3) 0.203(5)
H2B H 0.664(4) 0.047(4) 0.250(4)
O2B O 0.5468(3) -0.2221(3) -0.0488(3)
O3B O 0.7228(3) -0.2793(3) 0.1402(3)
N1B N 0.8054(4) -0.4265(4) -0.4516(4)
N1C N 0.6946(4) 0.0735(4) -0.0484(4)
N1A N 0.3054(4) -0.0735(4) 0.0484(4)
C1B C 0.7619(5) -0.4793(5) -0.3412(4)
H3B H 0.8208 -0.5508 -0.2843
C2B C 0.6336(5) -0.4332(5) -0.3067(5)
C3B C 0.5470(5) -0.3259(5) -0.3930(5)
H4B H 0.4610 -0.2910 -0.3732
C4B C 0.5894(5) -0.2714(6) -0.5083(5)
H5B H 0.5319 -0.2007 -0.5675
C5B C 0.7192(5) -0.3242(5) -0.5337(4)
H6B H 0.7478 -0.2873 -0.6111
C6B C 0.5863(4) -0.5031(6) -0.1852(4)
H7B H 0.5890 -0.6136 -0.1939
H8B H 0.4854 -0.4743 -0.1919
C7B C 0.6766(5) -0.4593(5) -0.0411(5)
H9B H 0.6643 -0.5393 0.0230
H10B H 0.7789 -0.4595 -0.0438
C8B C 0.6449(5) -0.3073(5) 0.0197(4)
loop_
_geom_bond_atom_site_label_1
_geom_bond_atom_site_label_2
_geom_bond_site_symmetry_1
_geom_bond_site_symmetry_2
Ni1 O1 1_555 1_555
O1 H1 1_555 1_555
H2 O1 1_555 1_555
O2 Ni1 1_555 1_555
O3 C8 1_555 1_555
N1 C1 1_555 1_555
C1 H3 1_555 1_555
C2 C1 1_555 1_555
C3 C2 1_555 1_555
H4 C3 1_555 1_555
C4 C3 1_555 1_555
H5 C4 1_555 1_555
C5 N1 1_555 1_555
H6 C5 1_555 1_555
C6 C2 1_555 1_555
H7 C6 1_555 1_555
H8 C6 1_555 1_555
C7 C6 1_555 1_555
H9 C7 1_555 1_555
H10 C7 1_555 1_555
C8 O2 1_555 1_555
Ni1C N1 1_555 1_555
Ni1C_2 N1B 1_555 1_555
O1B Ni1 1_555 1_555
H1B O1B 1_555 1_555
H2B O1B 1_555 1_555
O2B Ni1 1_555 1_555
O3B C8B 1_555 1_555
N1B C1B 1_555 1_555
N1C Ni1 1_555 1_555
N1A Ni1 1_555 1_555
C1B H3B 1_555 1_555
C2B C1B 1_555 1_555
C3B C2B 1_555 1_555
H4B C3B 1_555 1_555
C4B C3B 1_555 1_555
H5B C4B 1_555 1_555
C5B N1B 1_555 1_555
H6B C5B 1_555 1_555
C6B C2B 1_555 1_555
H7B C6B 1_555 1_555
H8B C6B 1_555 1_555
C7B C6B 1_555 1_555
H9B C7B 1_555 1_555
H10B C7B 1_555 1_555
C8B O2B 1_555 1_555
C4 C5 1_555 1_555
C7 C8 1_555 1_555
C4B C5B 1_555 1_555
C7B C8B 1_555 1_555

#END
