
#######################################################################
#
#                 Cambridge Crystallographic Data Centre
#                                CCDC 
#
#######################################################################
#
# If this CIF has been generated from an entry in the Cambridge 
# Structural Database, then it will include bibliographic, chemical, 
# crystal, experimental, refinement or atomic coordinate data resulting 
# from the CCDC's data processing and validation procedures.
#
#######################################################################

data_YEVHAI
_symmetry_cell_setting           triclinic
_symmetry_space_group_name_H-M   'P -1'
_symmetry_Int_Tables_number      2
_space_group_name_Hall           '-P 1'
loop_
_symmetry_equiv_pos_site_id
_symmetry_equiv_pos_as_xyz
1 x,y,z
2 -x,-y,-z
_cell_length_a                   7.547(2)
_cell_length_b                   9.137(4)
_cell_length_c                   9.960(4)
_cell_angle_alpha                110.76(4)
_cell_angle_beta                 104.43(2)
_cell_angle_gamma                100.41(3)
_cell_volume                     593.881
loop_
_atom_site_label
_atom_site_type_symbol
_atom_site_fract_x
_atom_site_fract_y
_atom_site_fract_z
Mn1 Mn 0.1174(1) 0.3966(1) 0.3874(1)
N1 N 0.1181(8) 0.4792(7) 0.6237(6)
N2 N 0.2590(9) 0.5239(7) 0.7327(7)
N3 N 0.3877(10) 0.5605(10) 0.8374(8)
N4 N 0.3486(9) 0.2793(8) 0.4340(7)
N5 N 0.5107(9) 0.3366(6) 0.5095(6)
N6 N 0.3288(9) 0.6124(8) 0.4147(7)
N7 N -0.1032(7) 0.1554(7) 0.3036(6)
N8 N 0.0189(8) 0.2792(7) 0.1297(6)
C1 C -0.1527(11) 0.0912(10) 0.3966(9)
C2 C -0.2838(11) -0.0578(11) 0.3432(10)
C3 C -0.3702(11) -0.1469(10) 0.1898(10)
C4 C -0.3248(10) -0.0839(9) 0.0917(9)
C5 C -0.1898(9) 0.0666(8) 0.1527(7)
C6 C -0.1257(9) 0.1438(8) 0.0571(7)
C7 C -0.2104(11) 0.0693(11) -0.1016(8)
C8 C -0.1427(14) 0.1506(12) -0.1830(9)
C9 C 0.0014(14) 0.2869(12) -0.1087(10)
C10 C 0.0858(12) 0.3534(10) 0.0487(9)
H1 H -0.080(11) 0.1586(90) 0.4916(87)
H2 H -0.285(11) -0.0767(92) 0.4217(84)
H3 H -0.451(10) -0.2608(95) 0.1380(78)
H4 H -0.410(10) -0.1643(87) -0.0280(83)
H5 H -0.313(11) -0.0320(91) -0.1697(84)
H6 H -0.210(10) 0.0828(92) -0.2868(86)
H7 H 0.046(12) 0.315(10) -0.1543(91)
H8 H 0.182(10) 0.4520(94) 0.1054(81)
Mn1A Mn -0.1174(1) 0.6034(1) 0.6126(1)
N1A N -0.1181(8) 0.5208(7) 0.3763(6)
N6A N 0.6712(9) 0.3876(8) 0.5853(7)
Mn1A_2 Mn 0.8826(1) 0.6034(1) 0.6126(1)
N4A N 0.6514(9) 0.7207(8) 0.5660(7)
N5A N 0.4893(9) 0.6634(6) 0.4905(6)
N2A N -0.2590(9) 0.4761(7) 0.2673(7)
N3A N -0.3877(10) 0.4395(10) 0.1626(8)
N4A_2 N -0.3486(9) 0.7207(8) 0.5660(7)
N6A_2 N -0.3288(9) 0.3876(8) 0.5853(7)
N7A N 0.1032(7) 0.8446(7) 0.6964(6)
C1A C 0.1527(11) 0.9088(10) 0.6034(9)
C2A C 0.2838(11) 1.0578(11) 0.6568(10)
C3A C 0.3702(11) 1.1469(10) 0.8102(10)
C4A C 0.3248(10) 1.0839(9) 0.9083(9)
C5A C 0.1898(9) 0.9334(8) 0.8473(7)
C6A C 0.1257(9) 0.8562(8) 0.9429(7)
N8A N -0.0189(8) 0.7208(7) 0.8703(6)
C10A C -0.0858(12) 0.6466(10) 0.9513(9)
C9A C -0.0014(14) 0.7131(12) 1.1087(10)
C8A C 0.1427(14) 0.8494(12) 1.1830(9)
C7A C 0.2104(11) 0.9307(11) 1.1016(8)
H5A H 0.313(11) 1.0320(91) 1.1697(84)
H6A H 0.210(10) 0.9172(92) 1.2868(86)
H7A H -0.046(12) 0.685(10) 1.1543(91)
H8A H -0.182(10) 0.5480(94) 0.8946(81)
H4A H 0.410(10) 1.1643(87) 1.0280(83)
H3A H 0.451(10) 1.2608(95) 0.8620(78)
H2A H 0.285(11) 1.0767(92) 0.5783(84)
H1A H 0.080(11) 0.8414(90) 0.5084(87)
loop_
_geom_bond_atom_site_label_1
_geom_bond_atom_site_label_2
_geom_bond_site_symmetry_1
_geom_bond_site_symmetry_2
Mn1 N1 1_555 1_555
N1 N2 1_555 1_555
N2 N3 1_555 1_555
N4 Mn1 1_555 1_555
N5 N4 1_555 1_555
N6 Mn1 1_555 1_555
N7 Mn1 1_555 1_555
N8 Mn1 1_555 1_555
C1 N7 1_555 1_555
C2 C1 1_555 1_555
C3 C2 1_555 1_555
C4 C3 1_555 1_555
C5 N7 1_555 1_555
C6 N8 1_555 1_555
C7 C6 1_555 1_555
C8 C7 1_555 1_555
C9 C8 1_555 1_555
C10 N8 1_555 1_555
H1 C1 1_555 1_555
H2 C2 1_555 1_555
H3 C3 1_555 1_555
H4 C4 1_555 1_555
H5 C7 1_555 1_555
H6 C8 1_555 1_555
H7 C9 1_555 1_555
H8 C10 1_555 1_555
Mn1A N1 1_555 1_555
N1A Mn1 1_555 1_555
N6A N5 1_555 1_555
Mn1A_2 N6A 1_555 1_555
N4A Mn1A_2 1_555 1_555
N5A N6 1_555 1_555
N2A N1A 1_555 1_555
N3A N2A 1_555 1_555
N4A_2 Mn1A 1_555 1_555
N6A_2 Mn1A 1_555 1_555
N7A Mn1A 1_555 1_555
C1A N7A 1_555 1_555
C2A C1A 1_555 1_555
C3A C2A 1_555 1_555
C4A C3A 1_555 1_555
C5A N7A 1_555 1_555
C6A C5A 1_555 1_555
N8A Mn1A 1_555 1_555
C10A N8A 1_555 1_555
C9A C10A 1_555 1_555
C8A C9A 1_555 1_555
C7A C6A 1_555 1_555
H5A C7A 1_555 1_555
H6A C8A 1_555 1_555
H7A C9A 1_555 1_555
H8A C10A 1_555 1_555
H4A C4A 1_555 1_555
H3A C3A 1_555 1_555
H2A C2A 1_555 1_555
H1A C1A 1_555 1_555
C4 C5 1_555 1_555
C5 C6 1_555 1_555
C9 C10 1_555 1_555
Mn1A N1A 1_555 1_555
N4A N5A 1_555 1_555
C4A C5A 1_555 1_555
C6A N8A 1_555 1_555
C8A C7A 1_555 1_555

#END
