
#######################################################################
#
#                 Cambridge Crystallographic Data Centre
#                                CCDC 
#
#######################################################################
#
# If this CIF has been generated from an entry in the Cambridge 
# Structural Database, then it will include bibliographic, chemical, 
# crystal, experimental, refinement or atomic coordinate data resulting 
# from the CCDC's data processing and validation procedures.
#
#######################################################################

data_YEVKIU
_symmetry_cell_setting           monoclinic
_symmetry_space_group_name_H-M   'P 21/n'
_symmetry_Int_Tables_number      14
_space_group_name_Hall           '-P 2yn'
loop_
_symmetry_equiv_pos_site_id
_symmetry_equiv_pos_as_xyz
1 x,y,z
2 1/2-x,1/2+y,1/2-z
3 -x,-y,-z
4 1/2+x,1/2-y,1/2+z
_cell_length_a                   11.595(3)
_cell_length_b                   7.147(2)
_cell_length_c                   16.088(4)
_cell_angle_alpha                90.00
_cell_angle_beta                 91.161(6)
_cell_angle_gamma                90.00
_cell_volume                     1332.93
loop_
_atom_site_label
_atom_site_type_symbol
_atom_site_fract_x
_atom_site_fract_y
_atom_site_fract_z
Zn1 Zn 0.74735(4) 1.09324(8) 0.87322(3)
C1 C 0.9389(3) 0.9731(6) 0.7662(3)
C2 C 1.0528(3) 0.9635(6) 0.7432(3)
H1 H 1.0730 0.9083 0.6932
C3 C 1.1364(3) 1.0379(7) 0.7965(3)
C4 C 1.1045(3) 1.1162(6) 0.8704(3)
H2 H 1.1600 1.1628 0.9074
C5 C 0.9890(3) 1.1248(6) 0.8889(3)
C6 C 0.9418(4) 1.2088(7) 0.9683(3)
C7 C 0.8401(3) 0.8876(7) 0.7190(3)
C8 C 1.2624(4) 1.0391(7) 0.7774(3)
C9 C 0.7101(3) 0.7322(7) 0.9537(3)
H3 H 0.7903 0.7309 0.9561
C10 C 0.6525(3) 0.5825(7) 0.9859(3)
H4 H 0.6934 0.4833 1.0095
C11 C 0.5331(3) 0.5793(6) 0.9830(3)
C12 C 0.4800(3) 0.7313(7) 0.9464(3)
H5 H 0.3999 0.7353 0.9423
C13 C 0.5434(3) 0.8771(7) 0.9159(3)
H6 H 0.5048 0.9783 0.8920
N1 N 0.9092(3) 1.0571(5) 0.8375(2)
N2 N 0.6580(3) 0.8789(5) 0.9193(2)
O1 O 0.7413(2) 0.9303(5) 0.73949(18)
O2 O 0.8674(2) 0.7726(5) 0.66343(18)
O3 O 0.8325(2) 1.2101(5) 0.97283(17)
O4 O 1.0128(2) 1.2623(5) 1.02141(19)
O5 O 1.3342(3) 1.0656(6) 0.8303(2)
O6 O 1.2831(3) 1.0108(6) 0.6997(2)
H7 H 1.3520 1.0263 0.6915
Zn1A Zn 0.75265(4) 1.59324(8) 0.62678(3)
Zn1A_2 Zn 0.75265(4) 0.59324(8) 0.62678(3)
Zn1B Zn 0.25265(4) -0.09324(8) 1.12678(3)
C1A C 0.5611(3) 1.4731(6) 0.7338(3)
C2A C 0.4472(3) 1.4635(6) 0.7568(3)
H1A H 0.4270 1.4083 0.8068
C3A C 0.3636(3) 1.5379(7) 0.7035(3)
C4A C 0.3955(3) 1.6162(6) 0.6296(3)
H2A H 0.3400 1.6628 0.5926
C5A C 0.5110(3) 1.6248(6) 0.6111(3)
C6A C 0.5582(4) 1.7088(7) 0.5317(3)
C7A C 0.6599(3) 1.3876(7) 0.7810(3)
C8A C 0.2376(4) 1.5391(7) 0.7226(3)
C9B C 0.2899(3) 0.2678(7) 1.0463(3)
H3B H 0.2097 0.2691 1.0439
C10B C 0.3475(3) 0.4175(7) 1.0141(3)
H4B H 0.3066 0.5167 0.9905
C11B C 0.4669(3) 0.4207(6) 1.0170(3)
C12B C 0.5200(3) 0.2687(7) 1.0536(3)
H5B H 0.6001 0.2647 1.0577
C13B C 0.4566(3) 0.1229(7) 1.0841(3)
H6B H 0.4952 0.0217 1.1080
N1A N 0.5908(3) 1.5571(5) 0.6625(2)
N2B N 0.3420(3) 0.1211(5) 1.0807(2)
N2A N 0.8420(3) 1.3789(5) 0.5807(2)
O1A O 0.7587(2) 1.4303(5) 0.76051(18)
O2A O 0.6326(2) 1.2726(5) 0.83657(18)
O2_2 O 0.8674(2) 1.7726(5) 0.66343(18)
O3A O 0.6675(2) 1.7101(5) 0.52717(17)
O4A O 0.4872(2) 1.7623(5) 0.47859(19)
O5A O 0.1658(3) 1.5656(6) 0.6697(2)
O6A O 0.2169(3) 1.5108(6) 0.8003(2)
H7A H 0.1480 1.5263 0.8085
O7 O 1.0018(2) 0.5435(5) 0.83748(19)
H8 H 0.9584 0.6381 0.8437
H9 H 0.9606 0.4479 0.8264
loop_
_geom_bond_atom_site_label_1
_geom_bond_atom_site_label_2
_geom_bond_site_symmetry_1
_geom_bond_site_symmetry_2
Zn1 N1 1_555 1_555
C1 C2 1_555 1_555
C2 H1 1_555 1_555
C3 C2 1_555 1_555
C4 C3 1_555 1_555
H2 C4 1_555 1_555
C5 C4 1_555 1_555
C6 C5 1_555 1_555
C7 C1 1_555 1_555
C8 C3 1_555 1_555
C9 H3 1_555 1_555
C10 C9 1_555 1_555
H4 C10 1_555 1_555
C11 C10 1_555 1_555
C12 C11 1_555 1_555
H5 C12 1_555 1_555
C13 C12 1_555 1_555
H6 C13 1_555 1_555
N1 C1 1_555 1_555
N2 Zn1 1_555 1_555
O1 Zn1 1_555 1_555
O2 C7 1_555 1_555
O3 Zn1 1_555 1_555
O4 C6 1_555 1_555
O5 C8 1_555 1_555
O6 C8 1_555 1_555
H7 O6 1_555 1_555
O7 H8 1_555 1_555
H9 O7 1_555 1_555
Zn1A N1A 1_555 1_555
Zn1A_2 O2 1_555 1_555
Zn1B N2B 1_555 1_555
C1A C2A 1_555 1_555
C2A H1A 1_555 1_555
C3A C2A 1_555 1_555
C4A C3A 1_555 1_555
H2A C4A 1_555 1_555
C5A C4A 1_555 1_555
C6A C5A 1_555 1_555
C7A C1A 1_555 1_555
C8A C3A 1_555 1_555
C9B H3B 1_555 1_555
C10B C9B 1_555 1_555
H4B C10B 1_555 1_555
C11B C11 1_555 1_555
C12B C11B 1_555 1_555
H5B C12B 1_555 1_555
C13B C12B 1_555 1_555
H6B C13B 1_555 1_555
N1A C1A 1_555 1_555
N2B C9B 1_555 1_555
N2A Zn1A 1_555 1_555
O1A Zn1A 1_555 1_555
O2A Zn1 1_555 1_555
O2_2 Zn1A 1_555 1_555
O3A Zn1A 1_555 1_555
O4A C6A 1_555 1_555
O5A C8A 1_555 1_555
O6A C8A 1_555 1_555
H7A O6A 1_555 1_555
C5 N1 1_555 1_555
C6 O3 1_555 1_555
C7 O1 1_555 1_555
C9 N2 1_555 1_555
C13 N2 1_555 1_555
C5A N1A 1_555 1_555
C6A O3A 1_555 1_555
C7A O1A 1_555 1_555
C7A O2A 1_555 1_555
C10B C11B 1_555 1_555
C13B N2B 1_555 1_555

#END
