
#######################################################################
#
#                 Cambridge Crystallographic Data Centre
#                                CCDC 
#
#######################################################################
#
# If this CIF has been generated from an entry in the Cambridge 
# Structural Database, then it will include bibliographic, chemical, 
# crystal, experimental, refinement or atomic coordinate data resulting 
# from the CCDC's data processing and validation procedures.
#
#######################################################################

data_YEVLOA
_symmetry_cell_setting           monoclinic
_symmetry_space_group_name_H-M   'P 2/c'
_symmetry_Int_Tables_number      13
_space_group_name_Hall           '-P 2yc'
loop_
_symmetry_equiv_pos_site_id
_symmetry_equiv_pos_as_xyz
1 x,y,z
2 -x,y,1/2-z
3 -x,-y,-z
4 x,-y,1/2+z
_cell_length_a                   14.9010(3)
_cell_length_b                   8.6541(1)
_cell_length_c                   9.1367(1)
_cell_angle_alpha                90
_cell_angle_beta                 97.960(2)
_cell_angle_gamma                90
_cell_volume                     1166.87
loop_
_atom_site_label
_atom_site_type_symbol
_atom_site_fract_x
_atom_site_fract_y
_atom_site_fract_z
Zr1 Zr 0.1026(2) 0.2558(4) 0.0582(3)
P1 P 0.1227(4) 0.1117(6) 0.4197(6)
P2 P 0.0000 0.4571(9) -0.2500
O1 O 0.1415(6) 0.150(1) 0.262(1)
O2 O 0.1375(6) -0.061(1) 0.453(1)
O3 O 0.0239(4) 0.158(1) 0.440(1)
O4 O -0.0615(5) 0.557(1) -0.165(1)
O5 O 0.0596(6) 0.350(1) -0.141(1)
O6 O 0.2283(5) 0.341(1) 0.058(1)
O7 O 0.4567(11) 0.214(2) 0.424(2)
O8 O 0.4153(5) 0.423(2) 0.257(2)
O9 O 0.3553(15) 0.157(2) 0.906(2)
O10 O 0.3838(20) -0.005(2) 0.702(3)
N1 N 0.2903(8) 0.226(2) 0.522(2)
C1 C 0.1967(6) 0.222(1) 0.553(1)
C2 C 0.3023(8) 0.336(2) 0.403(2)
C3 C 0.3956(12) 0.317(3) 0.360(3)
C4 C 0.3359(11) 0.267(3) 0.658(2)
C5 C 0.3523(22) 0.128(2) 0.759(2)
O2C O 0.1375(6) 0.061(1) -0.047(1)
O3A O -0.0239(4) 0.158(1) 0.060(1)
O4B O 0.0615(5) 0.443(1) 0.165(1)
O4A O 0.0615(5) 0.557(1) -0.335(1)
O5A O -0.0596(6) 0.350(1) -0.359(1)
Zr1B Zr -0.1026(2) 0.7442(4) -0.0582(3)
Zr1C Zr 0.1026(2) 0.7442(4) -0.4418(3)
Zr1A Zr -0.1026(2) 0.2558(4) -0.5582(3)
Zr1A_2 Zr -0.1026(2) 0.2558(4) 0.4418(3)
Zr1C_2 Zr 0.1026(2) -0.2558(4) 0.5582(3)
O1C O 0.1415(6) -0.150(1) 0.762(1)
O3B O -0.0239(4) -0.158(1) 0.560(1)
O4A_2 O 0.0615(5) -0.443(1) 0.665(1)
O5C O 0.0596(6) -0.350(1) 0.359(1)
O6C O 0.2283(5) -0.341(1) 0.558(1)
P1C P 0.1227(4) -0.1117(6) 0.9197(6)
O2C_2 O 0.1375(6) 0.061(1) 0.953(1)
O3C O 0.0239(4) -0.158(1) 0.940(1)
C1C C 0.1967(6) -0.222(1) 1.053(1)
Zr1_2 Zr 0.1026(2) 0.2558(4) 1.0582(3)
Zr1B_2 Zr -0.1026(2) -0.2558(4) 0.9418(3)
N1C N 0.2903(8) -0.226(2) 1.022(2)
C2C C 0.3023(8) -0.336(2) 0.903(2)
C4C C 0.3359(11) -0.267(3) 1.158(2)
C3C C 0.3956(12) -0.317(3) 0.860(3)
C5C C 0.3523(22) -0.128(2) 1.259(2)
O7C O 0.4567(11) -0.214(2) 0.924(2)
O8C O 0.4153(5) -0.423(2) 0.757(2)
O9C O 0.3553(15) -0.157(2) 1.406(2)
O10C O 0.3838(20) 0.005(2) 1.202(3)
loop_
_geom_bond_atom_site_label_1
_geom_bond_atom_site_label_2
_geom_bond_site_symmetry_1
_geom_bond_site_symmetry_2
Zr1 O1 1_555 1_555
P1 O1 1_555 1_555
P2 O4 1_555 1_555
O2 P1 1_555 1_555
O3 P1 1_555 1_555
O4 Zr1B 1_555 1_555
O5 Zr1 1_555 1_555
O6 Zr1 1_555 1_555
O7 C3 1_555 1_555
O8 C3 1_555 1_555
O9 C5 1_555 1_555
O10 C5 1_555 1_555
N1 C1 1_555 1_555
C1 P1 1_555 1_555
C2 N1 1_555 1_555
C3 C2 1_555 1_555
C4 N1 1_555 1_555
C5 C4 1_555 1_555
O2C Zr1 1_555 1_555
O3A Zr1 1_555 1_555
O4B Zr1 1_555 1_555
O4A P2 1_555 1_555
O5A P2 1_555 1_555
Zr1C O4A 1_555 1_555
Zr1A O5A 1_555 1_555
Zr1A_2 O3 1_555 1_555
Zr1C_2 O2 1_555 1_555
O1C Zr1C_2 1_555 1_555
O3B Zr1C_2 1_555 1_555
O4A_2 Zr1C_2 1_555 1_555
O5C Zr1C_2 1_555 1_555
O6C Zr1C_2 1_555 1_555
P1C O1C 1_555 1_555
O2C_2 P1C 1_555 1_555
O3C P1C 1_555 1_555
C1C P1C 1_555 1_555
Zr1_2 O2C_2 1_555 1_555
Zr1B_2 O3C 1_555 1_555
N1C C1C 1_555 1_555
C2C N1C 1_555 1_555
C4C N1C 1_555 1_555
C3C C2C 1_555 1_555
C5C C4C 1_555 1_555
O7C C3C 1_555 1_555
O8C C3C 1_555 1_555
O9C C5C 1_555 1_555
O10C C5C 1_555 1_555
P2 O5 1_555 1_555

#END
