
#######################################################################
#
#                 Cambridge Crystallographic Data Centre
#                                CCDC 
#
#######################################################################
#
# If this CIF has been generated from an entry in the Cambridge 
# Structural Database, then it will include bibliographic, chemical, 
# crystal, experimental, refinement or atomic coordinate data resulting 
# from the CCDC's data processing and validation procedures.
#
#######################################################################

data_YEVNET
_symmetry_cell_setting           monoclinic
_symmetry_space_group_name_H-M   'C 2/c'
_symmetry_Int_Tables_number      15
_space_group_name_Hall           '-C 2yn'
loop_
_symmetry_equiv_pos_site_id
_symmetry_equiv_pos_as_xyz
1 x,y,z
2 1/2+x,1/2+y,z
3 -x,y,1/2-z
4 1/2-x,1/2+y,1/2-z
5 -x,-y,-z
6 1/2-x,1/2-y,-z
7 x,-y,1/2+z
8 1/2+x,1/2-y,1/2+z
_cell_length_a                   13.305(3)
_cell_length_b                   10.940(2)
_cell_length_c                   7.3898(15)
_cell_angle_alpha                90
_cell_angle_beta                 94.313(2)
_cell_angle_gamma                90
_cell_volume                     1072.59
loop_
_atom_site_label
_atom_site_type_symbol
_atom_site_fract_x
_atom_site_fract_y
_atom_site_fract_z
Mo1 Mo 0.393284(16) 0.97811(2) 0.10987(3)
O1 O 0.56633(16) 0.97845(18) 0.1301(3)
O2 O 0.27006(17) 1.0167(2) 0.0978(3)
O3 O 0.39109(16) 0.8222(2) 0.0876(3)
O4 O 0.42934(15) 1.17691(19) 0.1545(3)
C1 C 0.5000 1.2271(4) 0.2500
C2 C 0.5000 1.3657(4) 0.2500
C3 C 0.4153(2) 1.4290(3) 0.1807(4)
H1 H 0.3584 1.3870 0.1340
C4 C 0.4165(3) 1.5553(3) 0.1818(5)
H2 H 0.3604 1.5992 0.1360
N1 N 0.5000 1.6141(3) 0.2500
Mo1D Mo 0.606716(16) 1.02189(2) -0.10987(3)
Mo1B Mo 0.606716(16) 0.97811(2) 0.39013(3)
Mo1F Mo 0.393284(16) 1.02189(2) -0.39013(3)
O1D O 0.43367(16) 1.02155(18) -0.1301(3)
O1B O 0.43367(16) 0.97845(18) 0.3699(3)
O1F O 0.56633(16) 1.02155(18) -0.3699(3)
O2D O 0.72994(17) 0.9833(2) -0.0978(3)
O3D O 0.60891(16) 1.1778(2) -0.0876(3)
O4B O 0.57066(15) 1.17691(19) 0.3455(3)
O4D O 0.57066(15) 0.82309(19) -0.1545(3)
C3B C 0.5847(2) 1.4290(3) 0.3193(4)
H1B H 0.6416 1.3870 0.3660
C4B C 0.5835(3) 1.5553(3) 0.3182(5)
H2B H 0.6396 1.5992 0.3640
loop_
_geom_bond_atom_site_label_1
_geom_bond_atom_site_label_2
_geom_bond_site_symmetry_1
_geom_bond_site_symmetry_2
Mo1 O1 1_555 1_555
O1 Mo1D 1_555 1_555
O2 Mo1 1_555 1_555
O3 Mo1 1_555 1_555
O4 Mo1 1_555 1_555
C1 O4 1_555 1_555
C2 C1 1_555 1_555
C3 C2 1_555 1_555
H1 C3 1_555 1_555
C4 C3 1_555 1_555
H2 C4 1_555 1_555
N1 C4 1_555 1_555
Mo1D O1D 1_555 1_555
Mo1B O1 1_555 1_555
Mo1F O1D 1_555 1_555
O1D Mo1 1_555 1_555
O1B Mo1 1_555 1_555
O1F Mo1D 1_555 1_555
O2D Mo1D 1_555 1_555
O3D Mo1D 1_555 1_555
O4B C1 1_555 1_555
O4D Mo1D 1_555 1_555
C3B C2 1_555 1_555
H1B C3B 1_555 1_555
C4B N1 1_555 1_555
H2B C4B 1_555 1_555
Mo1B O1B 1_555 1_555
Mo1B O4B 1_555 1_555
Mo1F O1F 1_555 1_555
C3B C4B 1_555 1_555

#END
