
#######################################################################
#
#                 Cambridge Crystallographic Data Centre
#                                CCDC 
#
#######################################################################
#
# If this CIF has been generated from an entry in the Cambridge 
# Structural Database, then it will include bibliographic, chemical, 
# crystal, experimental, refinement or atomic coordinate data resulting 
# from the CCDC's data processing and validation procedures.
#
#######################################################################

data_YEVNUJ
_symmetry_cell_setting           monoclinic
_symmetry_space_group_name_H-M   'P 21/n'
_symmetry_Int_Tables_number      14
_space_group_name_Hall           '-P 2yn'
loop_
_symmetry_equiv_pos_site_id
_symmetry_equiv_pos_as_xyz
1 x,y,z
2 1/2-x,1/2+y,1/2-z
3 -x,-y,-z
4 1/2+x,1/2-y,1/2+z
_cell_length_a                   8.4216(7)
_cell_length_b                   9.7851(8)
_cell_length_c                   10.7969(8)
_cell_angle_alpha                90
_cell_angle_beta                 106.2320(10)
_cell_angle_gamma                90
_cell_volume                     854.265
loop_
_atom_site_label
_atom_site_type_symbol
_atom_site_fract_x
_atom_site_fract_y
_atom_site_fract_z
Co1 Co 0.05845(3) 0.79210(2) 0.161935(19)
P1 P 0.57208(5) 0.61489(4) 0.37790(4)
O1 O 0.23708(15) 0.87978(11) 0.32101(11)
O2 O 0.39681(16) 0.82955(13) 0.51664(11)
O3 O 0.25766(14) 0.64484(11) 0.22198(11)
H1 H 0.249(3) 0.5608(12) 0.203(3)
O4 O 0.65452(14) 0.63532(12) 0.52128(11)
O5 O 0.63807(15) 0.71318(12) 0.29496(12)
O6 O 0.58083(14) 0.46804(11) 0.33392(11)
C1 C 0.3284(2) 0.79879(16) 0.40090(15)
C2 C 0.35165(19) 0.65644(16) 0.35479(14)
H2 H 0.3066 0.5913 0.4051
O7 O -0.04661(16) 0.68740(13) 0.28724(13)
H3 H -0.021(3) 0.6084(14) 0.315(2)
H4 H -0.1459(16) 0.696(2) 0.288(3)
Co1C Co -0.44155(3) 0.70790(2) -0.338065(19)
Co1C_2 Co 0.55845(3) 0.70790(2) 0.661935(19)
Co1A Co 0.44155(3) 0.29210(2) 0.338065(19)
Co1B Co -0.05845(3) 1.20790(2) -0.161935(19)
P1C P 0.07208(5) 0.88511(4) -0.12210(4)
O1C O -0.26292(15) 0.62022(11) -0.17899(11)
O2C O -0.10319(16) 0.67045(13) 0.01664(11)
O2_2 O -0.60319(16) 0.82955(13) -0.48336(11)
O3C O -0.24234(14) 0.85516(11) -0.27802(11)
H1C H -0.251(3) 0.9392(12) -0.297(3)
O4C O 0.15452(14) 0.86468(12) 0.02128(11)
O4_2 O -0.34548(14) 0.63532(12) -0.47872(11)
O5C O 0.13807(15) 0.78682(12) -0.20504(12)
O6C O 0.08083(14) 1.03196(11) -0.16608(11)
O6A O -0.08083(14) 0.96804(11) 0.16608(11)
O6B O -0.58083(14) 0.53196(11) -0.33392(11)
C1C C -0.1716(2) 0.70121(16) -0.09910(15)
C2C C -0.14835(19) 0.84356(16) -0.14521(14)
H2C H -0.1934 0.9087 -0.0949
O7C O -0.54661(16) 0.81260(13) -0.21276(13)
H3C H -0.521(3) 0.8916(14) -0.185(2)
H4C H -0.6459(16) 0.804(2) -0.212(3)
C3 C 0.5511(2) 0.43554(17) 0.01004(17)
H5 H 0.4895 0.3613 0.0343
H6 H 0.5756 0.4105 -0.0696
N1 N 0.70724(19) 0.45779(16) 0.11283(15)
H7 H 0.768(2) 0.5221(15) 0.090(2)
H8 H 0.768(2) 0.3804(15) 0.130(2)
H9 H 0.689(3) 0.4798(19) 0.1880(13)
C3B C 0.4489(2) 0.56446(17) -0.01004(17)
H5B H 0.5105 0.6387 -0.0343
H6B H 0.4244 0.5895 0.0696
N1B N 0.29276(19) 0.54221(16) -0.11283(15)
H7B H 0.232(2) 0.4779(15) -0.090(2)
H8B H 0.232(2) 0.6196(15) -0.130(2)
H9B H 0.311(3) 0.5202(19) -0.1880(13)
O8 O 0.4838(2) 0.92776(17) 0.13113(18)
H10 H 0.390(5) 0.892(6) 0.098(8)
H11 H 0.497(6) 0.997(4) 0.088(5)
H12? H 0.530(5) 0.858(4) 0.173(5)
H13? H 0.381(3) 0.915(6) 0.098(9)
loop_
_geom_bond_atom_site_label_1
_geom_bond_atom_site_label_2
_geom_bond_site_symmetry_1
_geom_bond_site_symmetry_2
Co1 O1 1_555 1_555
P1 O4 1_555 1_555
O1 C1 1_555 1_555
O2 C1 1_555 1_555
O3 Co1 1_555 1_555
H1 O3 1_555 1_555
O4 Co1C_2 1_555 1_555
O5 P1 1_555 1_555
O6 P1 1_555 1_555
C1 C2 1_555 1_555
C2 P1 1_555 1_555
H2 C2 1_555 1_555
O7 Co1 1_555 1_555
H3 O7 1_555 1_555
H4 O7 1_555 1_555
C3 H5 1_555 1_555
H6 C3 1_555 1_555
N1 C3 1_555 1_555
H7 N1 1_555 1_555
H8 N1 1_555 1_555
H9 N1 1_555 1_555
O8 H10 1_555 1_555
H11 O8 1_555 1_555
Co1C O1C 1_555 1_555
Co1C_2 O2 1_555 1_555
Co1A O6 1_555 1_555
Co1B O6C 1_555 1_555
P1C O4C 1_555 1_555
O1C C1C 1_555 1_555
O2C Co1 1_555 1_555
O2_2 Co1C 1_555 1_555
O3C Co1C 1_555 1_555
H1C O3C 1_555 1_555
O4C Co1 1_555 1_555
O4_2 Co1C 1_555 1_555
O5C P1C 1_555 1_555
O6C P1C 1_555 1_555
O6A Co1 1_555 1_555
O6B Co1C 1_555 1_555
C1C O2C 1_555 1_555
C2C P1C 1_555 1_555
H2C C2C 1_555 1_555
O7C Co1C 1_555 1_555
H3C O7C 1_555 1_555
H4C O7C 1_555 1_555
C3B C3 1_555 1_555
H5B C3B 1_555 1_555
H6B C3B 1_555 1_555
N1B C3B 1_555 1_555
H7B N1B 1_555 1_555
H8B N1B 1_555 1_555
H9B N1B 1_555 1_555
O3 C2 1_555 1_555
O3C C2C 1_555 1_555
C1C C2C 1_555 1_555

#END
