
#######################################################################
#
#                 Cambridge Crystallographic Data Centre
#                                CCDC 
#
#######################################################################
#
# If this CIF has been generated from an entry in the Cambridge 
# Structural Database, then it will include bibliographic, chemical, 
# crystal, experimental, refinement or atomic coordinate data resulting 
# from the CCDC's data processing and validation procedures.
#
#######################################################################

data_YEVPEV
_symmetry_cell_setting           monoclinic
_symmetry_space_group_name_H-M   'P 21/c'
_symmetry_Int_Tables_number      14
_space_group_name_Hall           '-P 2ybc'
loop_
_symmetry_equiv_pos_site_id
_symmetry_equiv_pos_as_xyz
1 x,y,z
2 -x,1/2+y,1/2-z
3 -x,-y,-z
4 x,1/2-y,1/2+z
_cell_length_a                   11.4016(7)
_cell_length_b                   21.304(1)
_cell_length_c                   14.3411(7)
_cell_angle_alpha                90
_cell_angle_beta                 111.139(3)
_cell_angle_gamma                90
_cell_volume                     3249.04
loop_
_atom_site_label
_atom_site_type_symbol
_atom_site_fract_x
_atom_site_fract_y
_atom_site_fract_z
Cd1 Cd 0.08371(10) 0.34816(4) 0.77307(7)
Cd2 Cd 0.19579(10) 0.49353(4) 0.78733(8)
N1 N -0.0482(12) 0.3113(6) 0.8473(10)
C1 C -0.0730(14) 0.2852(7) 0.9081(11)
N2 N -0.1221(13) 0.2572(7) 0.9679(10)
C2 C -0.0530(16) 0.2318(7) 1.0525(14)
N3 N -0.0076(13) 0.2084(6) 1.1286(11)
O1 O 0.2181(14) 0.2664(5) 0.8483(9)
C3 C 0.333(3) 0.2703(9) 0.8801(13)
N4 N 0.4130(14) 0.2226(7) 0.9173(9)
C4 C 0.3677(18) 0.1607(9) 0.9183(14)
C5 C 0.550(2) 0.2297(10) 0.9494(16)
O2 O 0.2364(8) 0.3969(4) 0.7224(7)
C6 C 0.3408(16) 0.3732(7) 0.7195(10)
C7 C 0.3295(15) 0.3151(7) 0.6674(12)
C8 C 0.4366(19) 0.2837(7) 0.6676(12)
C9 C 0.5536(18) 0.3080(8) 0.7144(15)
C10 C 0.5680(16) 0.3650(8) 0.7620(14)
C11 C 0.4606(14) 0.3976(6) 0.7668(11)
C12 C 0.4893(16) 0.4574(7) 0.8180(13)
N5 N 0.4144(11) 0.4970(6) 0.8367(9)
N6 N 0.1008(14) 0.5503(5) 0.6425(9)
C13 C 0.4171(18) 0.6116(7) 0.8291(14)
N7 N 0.2843(12) 0.6173(5) 0.8012(10)
C14 C 0.2502(16) 0.6456(7) 0.8816(13)
C15 C 0.1285(17) 0.6184(7) 0.8788(13)
N8 N 0.1478(13) 0.5511(6) 0.9051(10)
C16 C 0.1432(15) 0.5349(7) 0.9891(13)
C17 C 0.1676(13) 0.4734(7) 1.0363(11)
C18 C 0.1687(14) 0.4717(8) 1.1351(11)
C19 C 0.1868(16) 0.4190(9) 1.1872(12)
C20 C 0.2062(16) 0.3628(8) 1.1447(12)
C21 C 0.2055(14) 0.3615(6) 1.0477(10)
C22 C 0.1883(13) 0.4167(6) 0.9931(11)
O3 O 0.1910(9) 0.4145(4) 0.9031(7)
C23 C 0.2210(17) 0.6456(7) 0.7039(14)
C24 C 0.1848(16) 0.5961(7) 0.6216(11)
C25 C 0.4719(16) 0.5526(8) 0.8933(14)
C26 C -0.0130(19) 0.5503(6) 0.5803(12)
C27 C -0.1174(14) 0.5114(7) 0.5841(10)
C28 C -0.2369(18) 0.5259(8) 0.5117(11)
C29 C -0.3419(16) 0.4940(10) 0.5049(12)
C30 C -0.3315(15) 0.4420(8) 0.5701(13)
C31 C -0.2167(15) 0.4268(7) 0.6379(11)
C32 C -0.1071(15) 0.4594(6) 0.6482(10)
O4 O 0.0012(9) 0.4433(4) 0.7164(7)
H1 H 0.4372 0.1296 0.9493
H2 H 0.3109 0.1593 0.9606
H3 H 0.3148 0.1456 0.8497
H4 H 0.5951 0.1883 0.9755
H5 H 0.5825 0.2613 1.0056
H6 H 0.5766 0.2440 0.8931
H7 H 0.3758 0.3139 0.8781
H8 H -0.2101 0.3884 0.6835
H9 H -0.4106 0.4166 0.5663
H10 H -0.4265 0.5090 0.4553
H11 H -0.2435 0.5608 0.4612
H12 H 0.1436 0.6153 0.5534
H13 H 0.2647 0.5742 0.6225
H14 H 0.2730 0.6795 0.6889
H15 H 0.1386 0.6669 0.7022
H16 H 0.2455 0.6924 0.8761
H17 H 0.3175 0.6348 0.9497
H18 H 0.0955 0.6418 0.9254
H19 H 0.0640 0.6237 0.8082
H20 H -0.0361 0.5804 0.5209
H21 H 0.1195 0.5685 1.0304
H22 H 0.1555 0.5126 1.1671
H23 H 0.1855 0.4189 1.2576
H24 H 0.2239 0.3228 1.1868
H25 H 0.2162 0.3192 1.0161
H26 H 0.4630 0.6505 0.8637
H27 H 0.4391 0.6072 0.7645
H28 H 0.4518 0.5550 0.9575
H29 H 0.5675 0.5503 0.9162
H30 H 0.5812 0.4708 0.8438
H31 H 0.6579 0.3851 0.7946
H32 H 0.6309 0.2836 0.7143
H33 H 0.4265 0.2418 0.6321
H34 H 0.2415 0.2964 0.6306
Cd1C Cd 0.08371(10) 0.15184(4) 1.27307(7)
N3C N -0.0076(13) 0.2916(6) 0.6286(11)
loop_
_geom_bond_atom_site_label_1
_geom_bond_atom_site_label_2
_geom_bond_site_symmetry_1
_geom_bond_site_symmetry_2
Cd1 N1 1_555 1_555
Cd2 O2 1_555 1_555
N1 C1 1_555 1_555
C1 N2 1_555 1_555
N2 C2 1_555 1_555
C2 N3 1_555 1_555
N3 Cd1C 1_555 1_555
O1 Cd1 1_555 1_555
C3 O1 1_555 1_555
N4 C3 1_555 1_555
C4 N4 1_555 1_555
C5 N4 1_555 1_555
O2 Cd1 1_555 1_555
C6 O2 1_555 1_555
C7 C6 1_555 1_555
C8 C7 1_555 1_555
C9 C8 1_555 1_555
C10 C9 1_555 1_555
C11 C6 1_555 1_555
C12 C11 1_555 1_555
N5 Cd2 1_555 1_555
N6 Cd2 1_555 1_555
C13 N7 1_555 1_555
N7 Cd2 1_555 1_555
C14 N7 1_555 1_555
C15 C14 1_555 1_555
N8 Cd2 1_555 1_555
C16 N8 1_555 1_555
C17 C16 1_555 1_555
C18 C17 1_555 1_555
C19 C18 1_555 1_555
C20 C19 1_555 1_555
C21 C20 1_555 1_555
C22 C17 1_555 1_555
O3 Cd1 1_555 1_555
C23 N7 1_555 1_555
C24 N6 1_555 1_555
C25 N5 1_555 1_555
C26 N6 1_555 1_555
C27 C26 1_555 1_555
C28 C27 1_555 1_555
C29 C28 1_555 1_555
C30 C29 1_555 1_555
C31 C30 1_555 1_555
C32 C27 1_555 1_555
O4 Cd1 1_555 1_555
H1 C4 1_555 1_555
H2 C4 1_555 1_555
H3 C4 1_555 1_555
H4 C5 1_555 1_555
H5 C5 1_555 1_555
H6 C5 1_555 1_555
H7 C3 1_555 1_555
H8 C31 1_555 1_555
H9 C30 1_555 1_555
H10 C29 1_555 1_555
H11 C28 1_555 1_555
H12 C24 1_555 1_555
H13 C24 1_555 1_555
H14 C23 1_555 1_555
H15 C23 1_555 1_555
H16 C14 1_555 1_555
H17 C14 1_555 1_555
H18 C15 1_555 1_555
H19 C15 1_555 1_555
H20 C26 1_555 1_555
H21 C16 1_555 1_555
H22 C18 1_555 1_555
H23 C19 1_555 1_555
H24 C20 1_555 1_555
H25 C21 1_555 1_555
H26 C13 1_555 1_555
H27 C13 1_555 1_555
H28 C25 1_555 1_555
H29 C25 1_555 1_555
H30 C12 1_555 1_555
H31 C10 1_555 1_555
H32 C9 1_555 1_555
H33 C8 1_555 1_555
H34 C7 1_555 1_555
N3C Cd1 1_555 1_555
Cd2 O3 1_555 1_555
Cd2 O4 1_555 1_555
C10 C11 1_555 1_555
C12 N5 1_555 1_555
C13 C25 1_555 1_555
C15 N8 1_555 1_555
C21 C22 1_555 1_555
C22 O3 1_555 1_555
C23 C24 1_555 1_555
C31 C32 1_555 1_555
C32 O4 1_555 1_555

#END
