
#######################################################################
#
#                 Cambridge Crystallographic Data Centre
#                                CCDC 
#
#######################################################################
#
# If this CIF has been generated from an entry in the Cambridge 
# Structural Database, then it will include bibliographic, chemical, 
# crystal, experimental, refinement or atomic coordinate data resulting 
# from the CCDC's data processing and validation procedures.
#
#######################################################################

data_YEVPAR
_symmetry_cell_setting           monoclinic
_symmetry_space_group_name_H-M   'P 21/c'
_symmetry_Int_Tables_number      14
_space_group_name_Hall           '-P 2ybc'
loop_
_symmetry_equiv_pos_site_id
_symmetry_equiv_pos_as_xyz
1 x,y,z
2 -x,1/2+y,1/2-z
3 -x,-y,-z
4 x,1/2-y,1/2+z
_cell_length_a                   11.6609(10)
_cell_length_b                   7.9270(7)
_cell_length_c                   13.4180(12)
_cell_angle_alpha                90.00
_cell_angle_beta                 91.113(2)
_cell_angle_gamma                90.00
_cell_volume                     1240.07
loop_
_atom_site_label
_atom_site_type_symbol
_atom_site_fract_x
_atom_site_fract_y
_atom_site_fract_z
C1 C 0.7937(3) -0.1017(5) 0.1705(3)
H1 H 0.7429 -0.1790 0.1974
C2 C 0.9505(3) 0.0101(5) 0.1151(3)
H2 H 1.0262 0.0264 0.0967
C3 C 0.8641(3) 0.1232(5) 0.1078(3)
H3 H 0.8705 0.2322 0.0829
C4 C 0.9643(4) -0.2916(6) 0.1751(3)
H4 H 0.9199 -0.3569 0.2218
H5 H 1.0381 -0.2675 0.2065
C5 C 0.9830(3) -0.3966(5) 0.0821(3)
C6 C 0.9000(3) -0.4091(5) 0.0079(3)
H6 H 0.8322 -0.3480 0.0125
C7 C 1.0826(3) -0.4877(5) 0.0735(3)
H7 H 1.1391 -0.4797 0.1232
Cd1 Cd 0.593861(17) 0.17564(2) 0.149186(14)
N1 N 0.7660(2) 0.0528(3) 0.14280(19)
N2 N 0.9049(3) -0.1324(4) 0.1547(2)
O1 O 0.6038(2) 0.1876(3) -0.02504(16)
O2 O 0.4232(2) 0.3146(3) -0.07107(16)
O3 O 0.5860(2) 0.3451(3) -0.17769(15)
O4 O 0.4945(2) 0.0791(3) -0.16480(16)
O5 O 0.42021(19) 0.3103(2) 0.12687(15)
H8 H 0.3962 0.3352 0.0685
H9 H 0.3801 0.3351 0.1770
O6 O 0.6875(2) 0.4298(3) 0.16828(17)
H10 H 0.7091 0.4840 0.1173
H11 H 0.7003 0.4695 0.2263
S1 S 0.52653(6) 0.23063(8) -0.10874(5)
C1B C 1.2063(3) -0.8983(5) -0.1705(3)
H1B H 1.2571 -0.8210 -0.1974
C2B C 1.0495(3) -1.0101(5) -0.1151(3)
H2B H 0.9738 -1.0264 -0.0967
C3B C 1.1359(3) -1.1232(5) -0.1078(3)
H3B H 1.1295 -1.2322 -0.0829
C4B C 1.0357(4) -0.7084(6) -0.1751(3)
H4B H 1.0801 -0.6431 -0.2218
H5B H 0.9619 -0.7325 -0.2065
C5B C 1.0170(3) -0.6034(5) -0.0821(3)
C6B C 1.1000(3) -0.5909(5) -0.0079(3)
H6B H 1.1678 -0.6520 -0.0125
C7B C 0.9174(3) -0.5123(5) -0.0735(3)
H7B H 0.8609 -0.5203 -0.1232
Cd1B Cd 1.406139(17) -1.17564(2) -0.149186(14)
Cd1C Cd 0.593861(17) 0.32436(2) -0.350814(14)
Cd1B_2 Cd 0.406139(17) -0.17564(2) -0.149186(14)
Cd1C_2 Cd 0.593861(17) 0.32436(2) 0.649186(14)
Cd1A Cd 0.406139(17) 0.67564(2) 0.350814(14)
N1B N 1.2340(2) -1.0528(3) -0.14280(19)
N2B N 1.0951(3) -0.8676(4) -0.1547(2)
O1C O 0.6038(2) 0.3124(3) 0.47496(16)
O1B O 1.3962(2) -1.1876(3) 0.02504(16)
O2C O 0.4232(2) 0.1854(3) 0.42893(16)
O3C O 0.5860(2) 0.1549(3) 0.32231(15)
O3A O 1.4140(2) -1.1549(3) -0.32231(15)
O4C O 0.4945(2) 0.4209(3) 0.33520(16)
O4B O 0.5055(2) -0.0791(3) 0.16480(16)
O4_2 O 1.4945(2) -0.9209(3) -0.16480(16)
O5B O 1.57979(19) -1.3103(2) -0.12687(15)
H8B H 1.6038 -1.3352 -0.0685
H9B H 1.6199 -1.3351 -0.1770
O6B O 1.3125(2) -1.4298(3) -0.16828(17)
H10B H 1.2909 -1.4840 -0.1173
H11B H 1.2997 -1.4695 -0.2263
S1C S 0.52653(6) 0.26937(8) 0.39126(5)
O7 O 0.7548(2) 0.9558(4) 0.8632(2)
H12 H 0.7260 0.9058 0.9129
H13 H 0.7891 1.0495 0.8713
loop_
_geom_bond_atom_site_label_1
_geom_bond_atom_site_label_2
_geom_bond_site_symmetry_1
_geom_bond_site_symmetry_2
C1 H1 1_555 1_555
C2 H2 1_555 1_555
C3 C2 1_555 1_555
H3 C3 1_555 1_555
C4 H4 1_555 1_555
H5 C4 1_555 1_555
C5 C4 1_555 1_555
C6 C5 1_555 1_555
H6 C6 1_555 1_555
C7 C5 1_555 1_555
H7 C7 1_555 1_555
Cd1 N1 1_555 1_555
N1 C1 1_555 1_555
N2 C1 1_555 1_555
O1 Cd1 1_555 1_555
O2 S1 1_555 1_555
O3 S1 1_555 1_555
O4 S1 1_555 1_555
O5 Cd1 1_555 1_555
H8 O5 1_555 1_555
H9 O5 1_555 1_555
O6 Cd1 1_555 1_555
H10 O6 1_555 1_555
H11 O6 1_555 1_555
S1 O1 1_555 1_555
O7 H12 1_555 1_555
H13 O7 1_555 1_555
C1B H1B 1_555 1_555
C2B H2B 1_555 1_555
C3B C2B 1_555 1_555
H3B C3B 1_555 1_555
C4B H4B 1_555 1_555
H5B C4B 1_555 1_555
C5B C4B 1_555 1_555
C6B C7 1_555 1_555
H6B C6B 1_555 1_555
C7B C6 1_555 1_555
H7B C7B 1_555 1_555
Cd1B N1B 1_555 1_555
Cd1C O3 1_555 1_555
Cd1B_2 O4 1_555 1_555
Cd1C_2 O1C 1_555 1_555
Cd1A O4C 1_555 1_555
N1B C1B 1_555 1_555
N2B C1B 1_555 1_555
O1C S1C 1_555 1_555
O1B Cd1B 1_555 1_555
O2C S1C 1_555 1_555
O3C Cd1 1_555 1_555
O3A Cd1B 1_555 1_555
O4C S1C 1_555 1_555
O4B Cd1 1_555 1_555
O4_2 Cd1B 1_555 1_555
O5B Cd1B 1_555 1_555
H8B O5B 1_555 1_555
H9B O5B 1_555 1_555
O6B Cd1B 1_555 1_555
H10B O6B 1_555 1_555
H11B O6B 1_555 1_555
S1C O3C 1_555 1_555
C2 N2 1_555 1_555
C3 N1 1_555 1_555
C4 N2 1_555 1_555
C2B N2B 1_555 1_555
C3B N1B 1_555 1_555
C4B N2B 1_555 1_555
C5B C6B 1_555 1_555
C5B C7B 1_555 1_555

#END
