
#######################################################################
#
#                 Cambridge Crystallographic Data Centre
#                                CCDC 
#
#######################################################################
#
# If this CIF has been generated from an entry in the Cambridge 
# Structural Database, then it will include bibliographic, chemical, 
# crystal, experimental, refinement or atomic coordinate data resulting 
# from the CCDC's data processing and validation procedures.
#
#######################################################################

data_YEVPIZ
_symmetry_cell_setting           monoclinic
_symmetry_space_group_name_H-M   'P 21/n'
_symmetry_Int_Tables_number      14
_space_group_name_Hall           '-P 2yn'
loop_
_symmetry_equiv_pos_site_id
_symmetry_equiv_pos_as_xyz
1 x,y,z
2 1/2-x,1/2+y,1/2-z
3 -x,-y,-z
4 1/2+x,1/2-y,1/2+z
_cell_length_a                   8.960(4)
_cell_length_b                   12.486(6)
_cell_length_c                   11.259(5)
_cell_angle_alpha                90
_cell_angle_beta                 102.763(8)
_cell_angle_gamma                90
_cell_volume                     1228.47
loop_
_atom_site_label
_atom_site_type_symbol
_atom_site_fract_x
_atom_site_fract_y
_atom_site_fract_z
Ni1 Ni 0.0000 0.5000 0.5000
S1 S 0.42753(16) 0.47082(13) 0.68523(13)
O1 O 0.4267(4) 0.3460(3) 0.4942(3)
O2 O 0.1220(4) 0.5991(3) 0.6356(3)
H1 H 0.2179 0.5906 0.6610
H2 H 0.0760 0.6483 0.6656
N1 N 0.2001(4) 0.4154(3) 0.4904(3)
N2 N 0.1893(5) 0.3531(4) 0.3851(4)
N3 N 0.4494(4) 0.1085(3) 0.1305(4)
C1 C 0.3424(5) 0.4106(4) 0.5539(4)
C2 C 0.3239(5) 0.3156(4) 0.3926(4)
C3 C 0.3716(5) 0.2453(4) 0.3029(5)
C4 C 0.5226(6) 0.2161(5) 0.3103(5)
H9 H 0.593(7) 0.248(5) 0.370(6)
C5 C 0.5551(6) 0.1481(5) 0.2232(5)
H10 H 0.658(6) 0.132(4) 0.224(5)
C6 C 0.3032(6) 0.1384(4) 0.1235(5)
H11 H 0.236(6) 0.106(5) 0.062(5)
C7 C 0.2611(6) 0.2063(4) 0.2076(5)
H12 H 0.157(7) 0.217(5) 0.197(5)
Ni1C Ni 0.5000 0.0000 0.0000
Ni1C_2 Ni -0.5000 1.0000 1.0000
S1B S -0.42753(16) 0.52918(13) 0.31477(13)
O1B O -0.4267(4) 0.6540(3) 0.5058(3)
O2B O -0.1220(4) 0.4009(3) 0.3644(3)
H1B H -0.2179 0.4094 0.3390
H2B H -0.0760 0.3517 0.3344
N1B N -0.2001(4) 0.5846(3) 0.5096(3)
N2B N -0.1893(5) 0.6469(4) 0.6149(4)
N3B N -0.4494(4) 0.8915(3) 0.8695(4)
N3C N -0.0506(4) 0.3915(3) 0.6305(4)
N3A N 0.0506(4) 0.6085(3) 0.3695(4)
C1B C -0.3424(5) 0.5894(4) 0.4461(4)
C2B C -0.3239(5) 0.6844(4) 0.6074(4)
C3B C -0.3716(5) 0.7547(4) 0.6971(5)
C4B C -0.5226(6) 0.7839(5) 0.6897(5)
H9B H -0.593(7) 0.752(5) 0.630(6)
C5B C -0.5551(6) 0.8519(5) 0.7768(5)
H10B H -0.658(6) 0.868(4) 0.776(5)
C6B C -0.3032(6) 0.8616(4) 0.8765(5)
H11B H -0.236(6) 0.894(5) 0.938(5)
C7B C -0.2611(6) 0.7937(4) 0.7924(5)
H12B H -0.157(7) 0.783(5) 0.803(5)
O3 O 0.027(4) 0.580(2) 0.8890(12)
H3 H -0.0179 0.6403 0.8839
H4 H 0.0502 0.5477 0.9571
O4 O -0.268(4) 0.966(3) 0.501(3)
H5 H -0.2808 0.9823 0.5710
H6 H -0.2994 1.0078 0.4409
O5 O 0.007(6) 0.879(4) 0.520(3)
H7 H 0.0964 0.9125 0.5216
H8 H -0.0768 0.9171 0.5239
loop_
_geom_bond_atom_site_label_1
_geom_bond_atom_site_label_2
_geom_bond_site_symmetry_1
_geom_bond_site_symmetry_2
Ni1 O2 1_555 1_555
S1 C1 1_555 1_555
O1 C1 1_555 1_555
O2 H1 1_555 1_555
H2 O2 1_555 1_555
O3 H3 1_555 1_555
H4 O3 1_555 1_555
O4 H5 1_555 1_555
H6 O4 1_555 1_555
O5 H7 1_555 1_555
H8 O5 1_555 1_555
N1 Ni1 1_555 1_555
N2 N1 1_555 1_555
N3 C5 1_555 1_555
C1 N1 1_555 1_555
C2 O1 1_555 1_555
C3 C2 1_555 1_555
C4 C3 1_555 1_555
H9 C4 1_555 1_555
C5 C4 1_555 1_555
H10 C5 1_555 1_555
C6 N3 1_555 1_555
H11 C6 1_555 1_555
C7 C3 1_555 1_555
H12 C7 1_555 1_555
Ni1C N3 1_555 1_555
Ni1C_2 N3B 1_555 1_555
S1B C1B 1_555 1_555
O1B C1B 1_555 1_555
O2B Ni1 1_555 1_555
H1B O2B 1_555 1_555
H2B O2B 1_555 1_555
N1B Ni1 1_555 1_555
N2B N1B 1_555 1_555
N3B C5B 1_555 1_555
N3C Ni1 1_555 1_555
N3A Ni1 1_555 1_555
C1B N1B 1_555 1_555
C2B O1B 1_555 1_555
C3B C2B 1_555 1_555
C4B C3B 1_555 1_555
H9B C4B 1_555 1_555
C5B C4B 1_555 1_555
H10B C5B 1_555 1_555
C6B N3B 1_555 1_555
H11B C6B 1_555 1_555
C7B C3B 1_555 1_555
H12B C7B 1_555 1_555
N2 C2 1_555 1_555
C6 C7 1_555 1_555
N2B C2B 1_555 1_555
C6B C7B 1_555 1_555

#END
