
#######################################################################
#
#                 Cambridge Crystallographic Data Centre
#                                CCDC 
#
#######################################################################
#
# If this CIF has been generated from an entry in the Cambridge 
# Structural Database, then it will include bibliographic, chemical, 
# crystal, experimental, refinement or atomic coordinate data resulting 
# from the CCDC's data processing and validation procedures.
#
#######################################################################

data_YEVQOG
_symmetry_cell_setting           cubic
_symmetry_space_group_name_H-M   'I -4 3 d'
_symmetry_Int_Tables_number      220
_space_group_name_Hall           'I -4bd 2c 3'
loop_
_symmetry_equiv_pos_site_id
_symmetry_equiv_pos_as_xyz
1 x,y,z
2 1/2-x,-y,1/2+z
3 -x,1/2+y,1/2-z
4 1/2+x,1/2-y,-z
5 z,x,y
6 1/2+z,1/2-x,-y
7 1/2-z,-x,1/2+y
8 -z,1/2+x,1/2-y
9 y,z,x
10 -y,1/2+z,1/2-x
11 1/2+y,1/2-z,-x
12 1/2-y,-z,1/2+x
13 1/4+y,1/4+x,1/4+z
14 1/4-y,3/4-x,3/4+z
15 3/4+y,1/4-x,3/4-z
16 3/4-y,3/4+x,1/4-z
17 1/4+x,1/4+z,1/4+y
18 3/4-x,3/4+z,1/4-y
19 1/4-x,3/4-z,3/4+y
20 3/4+x,1/4-z,3/4-y
21 1/4+z,1/4+y,1/4+x
22 3/4+z,1/4-y,3/4-x
23 3/4-z,3/4+y,1/4-x
24 1/4-z,3/4-y,3/4+x
25 1/2+x,1/2+y,1/2+z
26 -x,1/2-y,z
27 1/2-x,y,-z
28 x,-y,1/2-z
29 1/2+z,1/2+x,1/2+y
30 z,-x,1/2-y
31 -z,1/2-x,y
32 1/2-z,x,-y
33 1/2+y,1/2+z,1/2+x
34 1/2-y,z,-x
35 y,-z,1/2-x
36 -y,1/2-z,x
37 3/4+y,3/4+x,3/4+z
38 3/4-y,1/4-x,1/4+z
39 1/4+y,3/4-x,1/4-z
40 1/4-y,1/4+x,3/4-z
41 3/4+x,3/4+z,3/4+y
42 1/4-x,1/4+z,3/4-y
43 3/4-x,1/4-z,1/4+y
44 1/4+x,3/4-z,1/4-y
45 3/4+z,3/4+y,3/4+x
46 1/4+z,3/4-y,1/4-x
47 1/4-z,1/4+y,3/4-x
48 3/4-z,1/4-y,1/4+x
_cell_length_a                   27.147(2)
_cell_length_b                   27.147(2)
_cell_length_c                   27.147(2)
_cell_angle_alpha                90
_cell_angle_beta                 90
_cell_angle_gamma                90
_cell_volume                     20006.2
loop_
_atom_site_label
_atom_site_type_symbol
_atom_site_fract_x
_atom_site_fract_y
_atom_site_fract_z
Ag1 Ag 0.31585(4) 0.26411(4) 0.71981(4)
Ag2 Ag 0.52975(4) 0.47864(4) 0.88555(4)
N1 N 0.3289(4) 0.3170(4) 0.7714(4)
N2 N 0.2977(4) 0.3229(4) 0.8112(4)
N3 N 0.4762(4) 0.4261(4) 0.8798(4)
N4 N 0.4716(4) 0.3887(4) 0.9137(4)
C1 C 0.4147(5) 0.3389(7) 0.7469(5)
H1 H 0.4448 0.3482 0.7638
H2 H 0.4072 0.3631 0.7217
H3 H 0.4190 0.3069 0.7317
C2 C 0.3733(6) 0.3367(5) 0.7831(5)
C3 C 0.3705(5) 0.3576(5) 0.8309(5)
C4 C 0.3238(6) 0.3489(5) 0.8447(5)
C5 C 0.3000(6) 0.3585(6) 0.8961(6)
H4 H 0.3244 0.3729 0.9179
H5 H 0.2884 0.3277 0.9098
H6 H 0.2725 0.3810 0.8924
C6 C 0.4331(5) 0.4566(5) 0.8053(5)
H7 H 0.4392 0.4899 0.8168
H8 H 0.4000 0.4543 0.7922
H9 H 0.4567 0.4483 0.7797
C7 C 0.4387(5) 0.4214(5) 0.8473(5)
C8 C 0.4120(5) 0.3807(5) 0.8595(6)
C9 C 0.4331(6) 0.3623(5) 0.9008(5)
C10 C 0.4211(7) 0.3183(6) 0.9300(6)
H10 H 0.4151 0.3277 0.9639
H11 H 0.4485 0.2954 0.9287
H12 H 0.3919 0.3027 0.9166
Ag1K Ag 0.23589(4) 0.28019(4) 0.81585(4)
Ag2I Ag 0.52136(4) 0.38555(4) 0.97025(4)
N2E N 0.3112(4) 0.2023(4) 0.6771(4)
N4F N 0.5863(4) 0.5284(4) 0.8887(4)
O1 O 0.415(4) 0.163(4) 0.854(4)
C11 C 0.443(3) 0.189(3) 0.793(3)
C12 C 0.457(2) 0.179(3) 0.829(3)
C13? C 0.441(5) 0.182(4) 0.856(5)
C14? C 0.419(3) 0.2002(19) 0.814(3)
H13? H 0.3863 0.2088 0.8239
H14? H 0.4072 0.1886 0.7831
O2? O 0.447(2) 0.148(2) 0.812(2)
H15? H 0.4531 0.2135 0.8353
O3? O 0.358(6) 0.142(6) 0.858(6)
loop_
_geom_bond_atom_site_label_1
_geom_bond_atom_site_label_2
_geom_bond_site_symmetry_1
_geom_bond_site_symmetry_2
Ag1 N1 1_555 1_555
Ag2 N3 1_555 1_555
N1 N2 1_555 1_555
N2 C4 1_555 1_555
N3 N4 1_555 1_555
N4 C9 1_555 1_555
C1 H1 1_555 1_555
H2 C1 1_555 1_555
H3 C1 1_555 1_555
C2 N1 1_555 1_555
C3 C2 1_555 1_555
C4 C3 1_555 1_555
C5 C4 1_555 1_555
H4 C5 1_555 1_555
H5 C5 1_555 1_555
H6 C5 1_555 1_555
C6 H7 1_555 1_555
H8 C6 1_555 1_555
H9 C6 1_555 1_555
C7 N3 1_555 1_555
C8 C3 1_555 1_555
C9 C8 1_555 1_555
C10 C9 1_555 1_555
H10 C10 1_555 1_555
H11 C10 1_555 1_555
H12 C10 1_555 1_555
O1 C12 1_555 1_555
C11 C12 1_555 1_555
Ag1K N2 1_555 1_555
Ag2I N4 1_555 1_555
N2E Ag1 1_555 1_555
N4F Ag2 1_555 1_555
C1 C2 1_555 1_555
C6 C7 1_555 1_555
C7 C8 1_555 1_555

#END
