
#######################################################################
#
#                 Cambridge Crystallographic Data Centre
#                                CCDC 
#
#######################################################################
#
# If this CIF has been generated from an entry in the Cambridge 
# Structural Database, then it will include bibliographic, chemical, 
# crystal, experimental, refinement or atomic coordinate data resulting 
# from the CCDC's data processing and validation procedures.
#
#######################################################################

data_YEVWIG01
_symmetry_cell_setting           monoclinic
_symmetry_space_group_name_H-M   'P 21/c'
_symmetry_Int_Tables_number      14
_space_group_name_Hall           '-P 2ybc'
loop_
_symmetry_equiv_pos_site_id
_symmetry_equiv_pos_as_xyz
1 x,y,z
2 -x,1/2+y,1/2-z
3 -x,-y,-z
4 x,1/2-y,1/2+z
_cell_length_a                   11.1202(15)
_cell_length_b                   14.308(2)
_cell_length_c                   7.6232(11)
_cell_angle_alpha                90
_cell_angle_beta                 105.398(2)
_cell_angle_gamma                90
_cell_volume                     1169.37
loop_
_atom_site_label
_atom_site_type_symbol
_atom_site_fract_x
_atom_site_fract_y
_atom_site_fract_z
Zn1 Zn 0.75787(3) 0.53789(2) 0.07676(4)
O1 O 0.7613(3) 0.51137(17) -0.2063(3)
O2 O 0.6283(2) 0.6063(3) -0.1496(3)
O3 O 0.86485(18) 0.43569(13) 0.1937(3)
O4 O 0.71653(19) 0.32867(16) 0.1238(4)
N1 N 0.64160(19) 0.56922(15) -0.7604(3)
N2 N 1.10845(19) 0.14158(14) 0.3509(3)
C1 C 0.5369(2) 0.6198(2) -0.8210(4)
H1 H 0.5076 0.6314 -0.9451
C2 C 0.4714(2) 0.6552(2) -0.7052(4)
H2 H 0.3988 0.6895 -0.7509
C3 C 0.5149(2) 0.63897(19) -0.5221(4)
H3 H 0.4733 0.6636 -0.4416
C4 C 0.6220(2) 0.58536(19) -0.4576(3)
C5 C 0.6815(2) 0.55166(18) -0.5818(4)
H4 H 0.7525 0.5151 -0.5398
C6 C 0.6741(3) 0.5657(2) -0.2583(4)
C7 C 0.9880(3) 0.11919(19) 0.2936(4)
H5 H 0.9660 0.0564 0.2895
C8 C 0.8948(3) 0.1846(2) 0.2400(5)
H6 H 0.8119 0.1659 0.2009
C9 C 0.9254(2) 0.27835(17) 0.2450(4)
C10 C 1.0498(3) 0.30180(19) 0.3052(5)
H7 H 1.0742 0.3641 0.3109
C11 C 1.1376(3) 0.23232(19) 0.3567(5)
H8 H 1.2212 0.2493 0.3975
C12 C 0.8249(2) 0.35181(19) 0.1821(4)
Zn1_2 Zn 0.75787(3) 0.53789(2) -0.92324(4)
Zn1A Zn 1.24213(3) 0.03789(2) 0.42324(4)
N1_2 N 0.64160(19) 0.56922(15) 0.2396(3)
N2A N 0.89155(19) 0.64158(14) 0.1491(3)
loop_
_geom_bond_atom_site_label_1
_geom_bond_atom_site_label_2
_geom_bond_site_symmetry_1
_geom_bond_site_symmetry_2
Zn1 O1 1_555 1_555
O1 C6 1_555 1_555
O2 Zn1 1_555 1_555
O3 Zn1 1_555 1_555
O4 C12 1_555 1_555
N1 C1 1_555 1_555
N2 C7 1_555 1_555
C1 H1 1_555 1_555
C2 C1 1_555 1_555
H2 C2 1_555 1_555
C3 C2 1_555 1_555
H3 C3 1_555 1_555
C4 C3 1_555 1_555
C5 N1 1_555 1_555
H4 C5 1_555 1_555
C6 O2 1_555 1_555
C7 H5 1_555 1_555
C8 C7 1_555 1_555
H6 C8 1_555 1_555
C9 C8 1_555 1_555
C10 C9 1_555 1_555
H7 C10 1_555 1_555
C11 N2 1_555 1_555
H8 C11 1_555 1_555
C12 O3 1_555 1_555
Zn1_2 N1 1_555 1_555
Zn1A N2 1_555 1_555
N1_2 Zn1 1_555 1_555
N2A Zn1 1_555 1_555
C4 C5 1_555 1_555
C4 C6 1_555 1_555
C9 C12 1_555 1_555
C10 C11 1_555 1_555

#END
