
#######################################################################
#
#                 Cambridge Crystallographic Data Centre
#                                CCDC 
#
#######################################################################
#
# If this CIF has been generated from an entry in the Cambridge 
# Structural Database, then it will include bibliographic, chemical, 
# crystal, experimental, refinement or atomic coordinate data resulting 
# from the CCDC's data processing and validation procedures.
#
#######################################################################

data_YEWFEL
_symmetry_cell_setting           triclinic
_symmetry_space_group_name_H-M   'P -1'
_symmetry_Int_Tables_number      2
_space_group_name_Hall           '-P 1'
loop_
_symmetry_equiv_pos_site_id
_symmetry_equiv_pos_as_xyz
1 x,y,z
2 -x,-y,-z
_cell_length_a                   10.602(6)
_cell_length_b                   12.702(9)
_cell_length_c                   15.667(3)
_cell_angle_alpha                87.74(5)
_cell_angle_beta                 86.51(3)
_cell_angle_gamma                69.61(5)
_cell_volume                     1973.58
loop_
_atom_site_label
_atom_site_type_symbol
_atom_site_fract_x
_atom_site_fract_y
_atom_site_fract_z
Cd1 Cd -0.8820(1) 0.1361(1) 0.2435(1)
I1 I -0.9071(1) 0.0871(1) 0.4107(1)
I2 I -0.9823(1) 0.0568(1) 0.1176(1)
P1 P -0.5256(2) 0.0788(2) 0.1891(1)
P2 P -0.0251(2) -0.5701(2) 0.2486(1)
O1 O -0.6682(5) 0.0923(5) 0.2092(4)
O2 O 0.0836(5) -0.6811(4) 0.2294(4)
O3 O -0.2318(6) -0.1523(5) 0.2816(4)
O4 O -0.0318(5) -0.3241(4) 0.3827(4)
C1 C -0.4262(9) -0.0671(7) 0.1647(5)
C2 C -0.4416(9) -0.1421(7) 0.2382(5)
C3 C -0.559(1) -0.1676(8) 0.2489(6)
C4 C -0.575(1) -0.2339(9) 0.3176(7)
C5 C -0.475(1) -0.2746(9) 0.3765(7)
C6 C -0.360(1) -0.2478(8) 0.3659(6)
C7 C -0.343(1) -0.1810(8) 0.2981(6)
C8 C -0.161(1) -0.1339(8) 0.3526(6)
C9 C -0.021(1) -0.2178(8) 0.3581(6)
C10 C 0.0863(9) -0.4101(7) 0.3972(5)
C11 C 0.2022(9) -0.3939(7) 0.4222(6)
C12 C 0.3164(9) -0.487(1) 0.4355(7)
C13 C 0.316(1) -0.5930(9) 0.4247(7)
C14 C 0.202(1) -0.6106(8) 0.4024(6)
C15 C 0.0867(8) -0.5196(8) 0.3886(5)
C16 C -0.0397(9) -0.5363(8) 0.3612(6)
C17 C -0.4521(9) 0.1150(7) 0.2780(5)
C18 C -0.346(1) 0.1565(7) 0.2682(6)
C19 C -0.289(1) 0.1761(8) 0.3412(8)
C20 C -0.334(1) 0.1552(9) 0.4211(7)
C21 C -0.439(1) 0.1130(8) 0.4315(6)
C22 C -0.4983(9) 0.0943(7) 0.3592(6)
C23 C -0.5098(9) 0.1620(7) 0.0970(5)
C24 C -0.622(1) 0.2524(8) 0.0754(6)
C25 C -0.616(1) 0.3167(9) 0.0040(7)
C26 C -0.502(1) 0.292(1) -0.0478(7)
C27 C -0.388(1) 0.2013(9) -0.0279(6)
C28 C -0.3919(9) 0.1360(7) 0.0450(6)
C29 C 0.0107(9) -0.4597(7) 0.1885(5)
C30 C 0.1438(9) -0.4656(8) 0.1787(6)
C31 C 0.177(1) -0.384(1) 0.1319(7)
C32 C 0.075(1) -0.2958(9) 0.0943(6)
C33 C -0.058(1) -0.2880(8) 0.1047(6)
C34 C -0.0880(9) -0.3705(8) 0.1527(6)
C35 C -0.1881(9) -0.5668(7) 0.2181(6)
C36 C -0.192(1) -0.6080(8) 0.1379(6)
C37 C -0.314(1) -0.608(1) 0.1110(7)
C38 C -0.427(1) -0.5720(9) 0.1628(9)
C39 C -0.424(1) -0.530(1) 0.2407(8)
C40 C -0.304(1) -0.5282(9) 0.2699(6)
H1 H -0.3185 -0.0774 0.1543
H2 H -0.457 -0.092 0.105
H3 H -0.640 -0.135 0.203
H4 H -0.667 -0.256 0.326
H5 H -0.489 -0.328 0.432
H6 H -0.280 -0.281 0.412
H7 H -0.158 -0.047 0.348
H8 H -0.218 -0.138 0.413
H9 H 0.038 -0.192 0.403
H10 H 0.033 -0.222 0.295
H11 H 0.202 -0.308 0.432
H12 H 0.409 -0.474 0.454
H13 H 0.410 -0.666 0.434
H14 H 0.200 -0.697 0.396
H15 H -0.062 -0.603 0.397
H16 H -0.128 -0.459 0.370
H17 H -0.309 0.172 0.202
H18 H -0.205 0.209 0.334
H19 H -0.287 0.171 0.477
H20 H -0.474 0.096 0.497
H21 H -0.584 0.063 0.367
H22 H -0.717 0.272 0.117
H23 H -0.706 0.392 -0.012
H24 H -0.500 0.344 -0.106
H25 H -0.294 0.179 -0.070
H26 H -0.301 0.064 0.063
H27 H 0.225 -0.536 0.208
H28 H 0.283 -0.388 0.124
H29 H 0.101 -0.230 0.057
H30 H -0.137 -0.219 0.074
H31 H -0.197 -0.364 0.162
H32 H -0.099 -0.637 0.095
H33 H -0.319 -0.639 0.046
H34 H -0.523 -0.577 0.142
H35 H -0.519 -0.498 0.283
H36 H -0.300 -0.494 0.334
O2_2 O -0.9164(5) 0.3189(4) 0.2294(4)
Cd1_2 Cd 0.1180(1) -0.8639(1) 0.2435(1)
loop_
_geom_bond_atom_site_label_1
_geom_bond_atom_site_label_2
_geom_bond_site_symmetry_1
_geom_bond_site_symmetry_2
Cd1 I1 1_555 1_555
I2 Cd1 1_555 1_555
P1 O1 1_555 1_555
P2 O2 1_555 1_555
O1 Cd1 1_555 1_555
O2 Cd1_2 1_555 1_555
O3 C7 1_555 1_555
O4 C9 1_555 1_555
C1 P1 1_555 1_555
C2 C1 1_555 1_555
C3 C2 1_555 1_555
C4 C3 1_555 1_555
C5 C4 1_555 1_555
C6 C5 1_555 1_555
C7 C2 1_555 1_555
C8 O3 1_555 1_555
C9 C8 1_555 1_555
C10 O4 1_555 1_555
C11 C10 1_555 1_555
C12 C11 1_555 1_555
C13 C12 1_555 1_555
C14 C13 1_555 1_555
C15 C10 1_555 1_555
C16 P2 1_555 1_555
C17 P1 1_555 1_555
C18 C17 1_555 1_555
C19 C18 1_555 1_555
C20 C19 1_555 1_555
C21 C20 1_555 1_555
C22 C17 1_555 1_555
C23 P1 1_555 1_555
C24 C23 1_555 1_555
C25 C24 1_555 1_555
C26 C25 1_555 1_555
C27 C26 1_555 1_555
C28 C23 1_555 1_555
C29 P2 1_555 1_555
C30 C29 1_555 1_555
C31 C30 1_555 1_555
C32 C31 1_555 1_555
C33 C32 1_555 1_555
C34 C29 1_555 1_555
C35 P2 1_555 1_555
C36 C35 1_555 1_555
C37 C36 1_555 1_555
C38 C37 1_555 1_555
C39 C38 1_555 1_555
C40 C35 1_555 1_555
H1 C1 1_555 1_555
H2 C1 1_555 1_555
H3 C3 1_555 1_555
H4 C4 1_555 1_555
H5 C5 1_555 1_555
H6 C6 1_555 1_555
H7 C8 1_555 1_555
H8 C8 1_555 1_555
H9 C9 1_555 1_555
H10 C9 1_555 1_555
H11 C11 1_555 1_555
H12 C12 1_555 1_555
H13 C13 1_555 1_555
H14 C14 1_555 1_555
H15 C16 1_555 1_555
H16 C16 1_555 1_555
H17 C18 1_555 1_555
H18 C19 1_555 1_555
H19 C20 1_555 1_555
H20 C21 1_555 1_555
H21 C22 1_555 1_555
H22 C24 1_555 1_555
H23 C25 1_555 1_555
H24 C26 1_555 1_555
H25 C27 1_555 1_555
H26 C28 1_555 1_555
H27 C30 1_555 1_555
H28 C31 1_555 1_555
H29 C32 1_555 1_555
H30 C33 1_555 1_555
H31 C34 1_555 1_555
H32 C36 1_555 1_555
H33 C37 1_555 1_555
H34 C38 1_555 1_555
H35 C39 1_555 1_555
H36 C40 1_555 1_555
O2_2 Cd1 1_555 1_555
C6 C7 1_555 1_555
C14 C15 1_555 1_555
C15 C16 1_555 1_555
C21 C22 1_555 1_555
C27 C28 1_555 1_555
C33 C34 1_555 1_555
C39 C40 1_555 1_555

#END
