
#######################################################################
#
#                 Cambridge Crystallographic Data Centre
#                                CCDC 
#
#######################################################################
#
# If this CIF has been generated from an entry in the Cambridge 
# Structural Database, then it will include bibliographic, chemical, 
# crystal, experimental, refinement or atomic coordinate data resulting 
# from the CCDC's data processing and validation procedures.
#
#######################################################################

data_YEWFIP
_symmetry_cell_setting           monoclinic
_symmetry_space_group_name_H-M   'C c'
_symmetry_Int_Tables_number      9
_space_group_name_Hall           'C -2yc'
loop_
_symmetry_equiv_pos_site_id
_symmetry_equiv_pos_as_xyz
1 x,y,z
2 1/2+x,1/2+y,z
3 x,-y,1/2+z
4 1/2+x,1/2-y,1/2+z
_cell_length_a                   11.819(3)
_cell_length_b                   19.999(2)
_cell_length_c                   17.102(3)
_cell_angle_alpha                90
_cell_angle_beta                 93.30(2)
_cell_angle_gamma                90
_cell_volume                     4035.67
loop_
_atom_site_label
_atom_site_type_symbol
_atom_site_fract_x
_atom_site_fract_y
_atom_site_fract_z
Zn1 Zn 0.0493(1) 0.1825(1) 0.1044(1)
I1 I 0.0016(2) 0.0942(1) -0.0004(1)
I2 I -0.0853(2) 0.1937(1) 0.2147(1)
P1 P 0.3051(4) 0.1273(2) 0.1646(3)
P2 P 0.5336(4) -0.1590(2) 0.0538(3)
O1 O 0.2044(8) 0.1714(5) 0.1528(6)
O2 O 0.575(1) -0.2295(6) 0.0558(6)
O3 O 0.5662(9) 0.0895(6) 0.0652(6)
O4 O 0.685(1) -0.0141(6) 0.1287(7)
C1 C 0.340(2) 0.0862(8) 0.0755(9)
C2 C 0.390(2) 0.1256(8) 0.0156(9)
C3 C 0.325(2) 0.168(1) -0.034(1)
C4 C 0.375(2) 0.208(1) -0.091(1)
C5 C 0.488(2) 0.2067(9) -0.096(1)
C6 C 0.553(2) 0.166(1) -0.045(1)
C7 C 0.507(2) 0.1279(9) 0.011(1)
C8 C 0.688(2) 0.088(1) 0.066(1)
C9 C 0.731(2) 0.0516(8) 0.133(1)
C10 C 0.725(2) -0.0610(9) 0.1800(9)
C11 C 0.832(2) -0.056(1) 0.221(1)
C12 C 0.870(2) -0.106(1) 0.270(1)
C13 C 0.804(2) -0.160(2) 0.279(1)
C14 C 0.695(2) -0.169(1) 0.239(1)
C15 C 0.658(2) -0.118(1) 0.190(1)
C16 C 0.541(2) -0.1208(9) 0.150(1)
C17 C 0.282(1) 0.0613(8) 0.234(1)
C18 C 0.361(2) 0.015(1) 0.252(1)
C19 C 0.337(2) -0.0411(9) 0.303(1)
C20 C 0.230(2) -0.042(1) 0.332(1)
C21 C 0.151(2) 0.006(2) 0.314(1)
C22 C 0.178(2) 0.0562(9) 0.266(1)
C23 C 0.425(2) 0.1770(8) 0.199(1)
C24 C 0.492(2) 0.164(1) 0.264(1)
C25 C 0.581(2) 0.204(1) 0.288(1)
C26 C 0.607(2) 0.255(1) 0.244(2)
C27 C 0.542(2) 0.2737(9) 0.178(2)
C28 C 0.450(2) 0.235(1) 0.154(1)
C29 C 0.618(2) -0.1160(9) -0.0104(9)
C30 C 0.580(2) -0.061(1) -0.054(1)
C31 C 0.645(2) -0.024(1) -0.103(1)
C32 C 0.753(4) -0.044(2) -0.108(1)
C33 C 0.802(2) -0.095(2) -0.066(2)
C34 C 0.732(2) -0.136(1) -0.016(1)
C35 C 0.388(1) -0.1534(9) 0.017(1)
C36 C 0.313(2) -0.1103(9) 0.047(2)
C37 C 0.199(2) -0.107(1) 0.015(2)
C38 C 0.173(2) -0.146(1) -0.050(2)
C39 C 0.245(2) -0.188(1) -0.079(2)
C40 C 0.356(2) -0.193(1) -0.046(1)
H1 H 0.261 0.064 0.050
H2 H 0.398 0.046 0.092
H3 H 0.232 0.172 -0.028
H4 H 0.322 0.241 -0.131
H5 H 0.529 0.236 -0.143
H6 H 0.645 0.165 -0.050
H7 H 0.716 0.065 0.012
H8 H 0.722 0.140 0.066
H9 H 0.705 0.077 0.186
H10 H 0.823 0.049 0.136
H11 H 0.886 -0.010 0.216
H12 H 0.954 -0.103 0.301
H13 H 0.837 -0.200 0.321
H14 H 0.644 -0.216 0.246
H15 H 0.484 -0.148 0.187
H16 H 0.506 -0.069 0.144
H17 H 0.446 0.020 0.227
H18 H 0.398 -0.082 0.316
H19 H 0.210 -0.083 0.374
H20 H 0.065 0.003 0.337
H21 H 0.115 0.095 0.253
H22 H 0.475 0.118 0.299
H23 H 0.630 0.194 0.344
H24 H 0.681 0.286 0.261
H25 H 0.564 0.319 0.145
H26 H 0.395 0.249 0.100
H27 H 0.491 -0.046 -0.050
H28 H 0.609 0.019 -0.138
H29 H 0.804 -0.020 -0.153
H30 H 0.894 -0.105 -0.066
H31 H 0.766 -0.180 0.016
H32 H 0.338 -0.080 0.101
H33 H 0.135 -0.074 0.038
H34 H 0.088 -0.142 -0.078
H35 H 0.216 -0.217 -0.134
H36 H 0.418 -0.231 -0.071
O2A O 0.075(1) 0.2705(6) 0.0558(6)
Zn1A Zn 0.5493(1) -0.3175(1) 0.1044(1)
loop_
_geom_bond_atom_site_label_1
_geom_bond_atom_site_label_2
_geom_bond_site_symmetry_1
_geom_bond_site_symmetry_2
Zn1 I1 1_555 1_555
I2 Zn1 1_555 1_555
P1 O1 1_555 1_555
P2 O2 1_555 1_555
O1 Zn1 1_555 1_555
O2 Zn1A 1_555 1_555
O3 C7 1_555 1_555
O4 C9 1_555 1_555
C1 P1 1_555 1_555
C2 C1 1_555 1_555
C3 C2 1_555 1_555
C4 C3 1_555 1_555
C5 C4 1_555 1_555
C6 C5 1_555 1_555
C7 C2 1_555 1_555
C8 O3 1_555 1_555
C9 C8 1_555 1_555
C10 O4 1_555 1_555
C11 C10 1_555 1_555
C12 C11 1_555 1_555
C13 C12 1_555 1_555
C14 C13 1_555 1_555
C15 C10 1_555 1_555
C16 P2 1_555 1_555
C17 P1 1_555 1_555
C18 C17 1_555 1_555
C19 C18 1_555 1_555
C20 C19 1_555 1_555
C21 C20 1_555 1_555
C22 C17 1_555 1_555
C23 P1 1_555 1_555
C24 C23 1_555 1_555
C25 C24 1_555 1_555
C26 C25 1_555 1_555
C27 C26 1_555 1_555
C28 C23 1_555 1_555
C29 P2 1_555 1_555
C30 C29 1_555 1_555
C31 C30 1_555 1_555
C32 C31 1_555 1_555
C33 C32 1_555 1_555
C34 C29 1_555 1_555
C35 P2 1_555 1_555
C36 C35 1_555 1_555
C37 C36 1_555 1_555
C38 C37 1_555 1_555
C39 C38 1_555 1_555
C40 C35 1_555 1_555
H1 C1 1_555 1_555
H2 C1 1_555 1_555
H3 C3 1_555 1_555
H4 C4 1_555 1_555
H5 C5 1_555 1_555
H6 C6 1_555 1_555
H7 C8 1_555 1_555
H8 C8 1_555 1_555
H9 C9 1_555 1_555
H10 C9 1_555 1_555
H11 C11 1_555 1_555
H12 C12 1_555 1_555
H13 C13 1_555 1_555
H14 C14 1_555 1_555
H15 C16 1_555 1_555
H16 C16 1_555 1_555
H17 C18 1_555 1_555
H18 C19 1_555 1_555
H19 C20 1_555 1_555
H20 C21 1_555 1_555
H21 C22 1_555 1_555
H22 C24 1_555 1_555
H23 C25 1_555 1_555
H24 C26 1_555 1_555
H25 C27 1_555 1_555
H26 C28 1_555 1_555
H27 C30 1_555 1_555
H28 C31 1_555 1_555
H29 C32 1_555 1_555
H30 C33 1_555 1_555
H31 C34 1_555 1_555
H32 C36 1_555 1_555
H33 C37 1_555 1_555
H34 C38 1_555 1_555
H35 C39 1_555 1_555
H36 C40 1_555 1_555
O2A Zn1 1_555 1_555
C6 C7 1_555 1_555
C14 C15 1_555 1_555
C15 C16 1_555 1_555
C21 C22 1_555 1_555
C27 C28 1_555 1_555
C33 C34 1_555 1_555
C39 C40 1_555 1_555

#END
