
#######################################################################
#
#                 Cambridge Crystallographic Data Centre
#                                CCDC 
#
#######################################################################
#
# If this CIF has been generated from an entry in the Cambridge 
# Structural Database, then it will include bibliographic, chemical, 
# crystal, experimental, refinement or atomic coordinate data resulting 
# from the CCDC's data processing and validation procedures.
#
#######################################################################

data_YEWJAL
_symmetry_cell_setting           monoclinic
_symmetry_space_group_name_H-M   'P 1 1 21/b'
_symmetry_Int_Tables_number      14
_space_group_name_Hall           '-P 2bc'
loop_
_symmetry_equiv_pos_site_id
_symmetry_equiv_pos_as_xyz
1 x,y,z
2 -x,1/2-y,1/2+z
3 -x,-y,-z
4 x,1/2+y,1/2-z
_cell_length_a                   6.990(2)
_cell_length_b                   14.425(6)
_cell_length_c                   7.695(7)
_cell_angle_alpha                90
_cell_angle_beta                 90
_cell_angle_gamma                109.42(5)
_cell_volume                     731.749
loop_
_atom_site_label
_atom_site_type_symbol
_atom_site_fract_x
_atom_site_fract_y
_atom_site_fract_z
Hf1 Hf 0.0634(1) 0.6003(1) 0.1524(1)
F1 F 0.1349(7) 0.7103(6) 0.3210(7)
F2 F -0.2036(6) 0.6112(6) 0.0791(9)
F3 F 0.3476(5) 0.6138(5) 0.0760(7)
F4 F -0.0285(7) 0.4517(5) 0.1227(6)
O1 O 0.1657(8) 0.7386(6) -0.0181(6)
O2 O -0.1637(7) 0.5376(7) 0.3763(7)
O3 O 0.2179(7) 0.5452(7) 0.3789(8)
C1 C -0.1096(9) 0.4974(8) 0.5033(9)
F4B F 0.0285(7) 0.5483(5) -0.1227(6)
Hf1B Hf -0.0634(1) 0.3997(1) -0.1524(1)
C1B C 0.1096(9) 0.5026(8) 0.4967(9)
O3B O -0.2179(7) 0.4548(7) 0.6211(8)
F1B F -0.1349(7) 0.2897(6) -0.3210(7)
F2B F 0.2036(6) 0.3888(6) -0.0791(9)
F3B F -0.3476(5) 0.3862(5) -0.0760(7)
O1B O -0.1657(8) 0.2614(6) 0.0181(6)
O2B O 0.1637(7) 0.4624(7) -0.3763(7)
O3B_2 O -0.2179(7) 0.4548(7) -0.3789(8)
O2B_2 O 0.1637(7) 0.4624(7) 0.6237(7)
Hf1B_2 Hf -0.0634(1) 0.3997(1) 0.8476(1)
Rb1 Rb -0.4350(3) 0.5816(2) -0.2224(3)
O4 O 0.6469(9) 0.7773(8) 0.1824(9)
loop_
_geom_bond_atom_site_label_1
_geom_bond_atom_site_label_2
_geom_bond_site_symmetry_1
_geom_bond_site_symmetry_2
Hf1 F1 1_555 1_555
F2 Hf1 1_555 1_555
F3 Hf1 1_555 1_555
F4 Hf1 1_555 1_555
O1 Hf1 1_555 1_555
O2 Hf1 1_555 1_555
O3 Hf1 1_555 1_555
C1 O2 1_555 1_555
F4B Hf1 1_555 1_555
Hf1B F4 1_555 1_555
C1B O3 1_555 1_555
O3B C1 1_555 1_555
F1B Hf1B 1_555 1_555
F2B Hf1B 1_555 1_555
F3B Hf1B 1_555 1_555
O1B Hf1B 1_555 1_555
O2B Hf1B 1_555 1_555
O3B_2 Hf1B 1_555 1_555
O2B_2 C1B 1_555 1_555
Hf1B_2 O3B 1_555 1_555
C1 C1B 1_555 1_555
F4B Hf1B 1_555 1_555
O2B_2 Hf1B_2 1_555 1_555

#END
