
#######################################################################
#
#                 Cambridge Crystallographic Data Centre
#                                CCDC 
#
#######################################################################
#
# If this CIF has been generated from an entry in the Cambridge 
# Structural Database, then it will include bibliographic, chemical, 
# crystal, experimental, refinement or atomic coordinate data resulting 
# from the CCDC's data processing and validation procedures.
#
#######################################################################

data_YEXCIO
_symmetry_cell_setting           monoclinic
_symmetry_space_group_name_H-M   'C 2/c'
_symmetry_Int_Tables_number      15
_space_group_name_Hall           '-C 2yn'
loop_
_symmetry_equiv_pos_site_id
_symmetry_equiv_pos_as_xyz
1 x,y,z
2 1/2+x,1/2+y,z
3 -x,y,1/2-z
4 1/2-x,1/2+y,1/2-z
5 -x,-y,-z
6 1/2-x,1/2-y,-z
7 x,-y,1/2+z
8 1/2+x,1/2-y,1/2+z
_cell_length_a                   10.6210(5)
_cell_length_b                   13.2253(8)
_cell_length_c                   14.9760(8)
_cell_angle_alpha                90
_cell_angle_beta                 103.805(3)
_cell_angle_gamma                90
_cell_volume                     2042.85
loop_
_atom_site_label
_atom_site_type_symbol
_atom_site_fract_x
_atom_site_fract_y
_atom_site_fract_z
Tl1 Tl 0.48357(3) 0.15932(2) 0.00915(2)
O1 O 0.6787(6) 0.1543(4) 0.1511(4)
O2 O 0.6132(6) 0.0072(4) 0.0868(4)
O3 O 1.0062(7) -0.1469(4) 0.4404(5)
N1 N 0.8548(7) -0.1452(5) 0.3043(5)
H1 H 0.8512 -0.2116 0.3054
C1 C 0.3427(10) 0.1427(7) 0.0879(7)
H2 H 0.3266 0.2085 0.1131
H3 H 0.3748 0.0951 0.1383
H4 H 0.2619 0.1169 0.0485
C2 C 0.5950(10) 0.1831(8) -0.0877(6)
H5 H 0.5431 0.1665 -0.1493
H6 H 0.6721 0.1397 -0.0730
H7 H 0.6218 0.2541 -0.0860
C3 C 0.6847(8) 0.0588(7) 0.1496(5)
C4 C 0.7771(8) 0.0056(5) 0.2256(6)
C5 C 0.7762(8) -0.0957(6) 0.2332(6)
H8 H 0.7186 -0.1339 0.1872
C6 C 0.9414(8) -0.0959(7) 0.3762(6)
C7 C 0.9446(8) 0.0104(6) 0.3670(6)
H9 H 1.0038 0.0487 0.4119
C8 C 0.8655(8) 0.0587(7) 0.2959(6)
H10 H 0.8691 0.1304 0.2929
Tl1D Tl 0.51643(3) -0.15932(2) -0.00915(2)
Tl1C Tl 1.01643(3) -0.34068(2) 0.49085(2)
O2D O 0.3868(6) -0.0072(4) -0.0868(4)
O3C O 0.4938(7) 0.3531(4) 0.0596(5)
loop_
_geom_bond_atom_site_label_1
_geom_bond_atom_site_label_2
_geom_bond_site_symmetry_1
_geom_bond_site_symmetry_2
Tl1 O1 1_555 1_555
O1 C3 1_555 1_555
O2 Tl1 1_555 1_555
O3 C6 1_555 1_555
N1 H1 1_555 1_555
C1 Tl1 1_555 1_555
H2 C1 1_555 1_555
H3 C1 1_555 1_555
H4 C1 1_555 1_555
C2 Tl1 1_555 1_555
H5 C2 1_555 1_555
H6 C2 1_555 1_555
H7 C2 1_555 1_555
C3 O2 1_555 1_555
C4 C3 1_555 1_555
C5 N1 1_555 1_555
H8 C5 1_555 1_555
C6 N1 1_555 1_555
C7 C6 1_555 1_555
H9 C7 1_555 1_555
C8 C4 1_555 1_555
H10 C8 1_555 1_555
Tl1D O2 1_555 1_555
Tl1C O3 1_555 1_555
O2D Tl1 1_555 1_555
O3C Tl1 1_555 1_555
C4 C5 1_555 1_555
C7 C8 1_555 1_555
Tl1D O2D 1_555 1_555

#END
