
#######################################################################
#
#                 Cambridge Crystallographic Data Centre
#                                CCDC 
#
#######################################################################
#
# If this CIF has been generated from an entry in the Cambridge 
# Structural Database, then it will include bibliographic, chemical, 
# crystal, experimental, refinement or atomic coordinate data resulting 
# from the CCDC's data processing and validation procedures.
#
#######################################################################

data_YEXCAG
_symmetry_cell_setting           monoclinic
_symmetry_space_group_name_H-M   'P 21/c'
_symmetry_Int_Tables_number      14
_space_group_name_Hall           '-P 2ybc'
loop_
_symmetry_equiv_pos_site_id
_symmetry_equiv_pos_as_xyz
1 x,y,z
2 -x,1/2+y,1/2-z
3 -x,-y,-z
4 x,1/2-y,1/2+z
_cell_length_a                   8.8830(2)
_cell_length_b                   14.5420(3)
_cell_length_c                   7.7430(2)
_cell_angle_alpha                90
_cell_angle_beta                 111.554(1)
_cell_angle_gamma                90
_cell_volume                     930.271
loop_
_atom_site_label
_atom_site_type_symbol
_atom_site_fract_x
_atom_site_fract_y
_atom_site_fract_z
Tl1 Tl 0.78924(2) 0.089829(13) 0.39776(3)
O1 O 0.8804(5) -0.0799(3) 0.4355(6)
N1 N 0.5117(5) -0.3324(3) 0.2630(6)
C1 C 0.7020(6) -0.2082(3) 0.3650(7)
C2 C 0.8222(7) -0.2698(4) 0.4640(8)
H1 H 0.9290 -0.2486 0.5311
C3 C 0.7752(8) 0.0919(4) 0.6657(10)
H2 H 0.8174 0.1505 0.7267
H3 H 0.8396 0.0412 0.7402
H4 H 0.6621 0.0849 0.6539
C4 C 0.5498(6) -0.2437(4) 0.2677(8)
H5 H 0.4670 -0.2019 0.1997
C5 C 0.7355(7) -0.1066(4) 0.3650(9)
C6 C 0.8242(8) 0.1146(5) 0.1438(9)
H6 H 0.8230 0.1810 0.1215
H7 H 0.7371 0.0852 0.0413
H8 H 0.9286 0.0891 0.1517
O2 O 0.6168(4) -0.0526(3) 0.2948(6)
C7 C 0.7854(7) -0.3615(4) 0.4641(8)
H9 H 0.8651 -0.4045 0.5335
C8 C 0.6302(7) -0.3896(4) 0.3613(9)
H10 H 0.6059 -0.4532 0.3600
Tl1B Tl 1.21076(2) -0.089829(13) 0.60224(3)
Tl1A Tl 0.21076(2) -0.410171(13) 0.10224(3)
O1B O 1.1196(5) 0.0799(3) 0.5645(6)
N1A N 0.4883(5) 0.1676(3) 0.2370(6)
loop_
_geom_bond_atom_site_label_1
_geom_bond_atom_site_label_2
_geom_bond_site_symmetry_1
_geom_bond_site_symmetry_2
Tl1 O1 1_555 1_555
O1 C5 1_555 1_555
N1 C4 1_555 1_555
C1 C2 1_555 1_555
C2 H1 1_555 1_555
C3 Tl1 1_555 1_555
H2 C3 1_555 1_555
H3 C3 1_555 1_555
H4 C3 1_555 1_555
C4 C1 1_555 1_555
H5 C4 1_555 1_555
C5 C1 1_555 1_555
C6 Tl1 1_555 1_555
H6 C6 1_555 1_555
H7 C6 1_555 1_555
H8 C6 1_555 1_555
O2 Tl1 1_555 1_555
C7 C2 1_555 1_555
H9 C7 1_555 1_555
C8 N1 1_555 1_555
H10 C8 1_555 1_555
Tl1B O1 1_555 1_555
Tl1A N1 1_555 1_555
O1B Tl1 1_555 1_555
N1A Tl1 1_555 1_555
C5 O2 1_555 1_555
C7 C8 1_555 1_555
Tl1B O1B 1_555 1_555

#END
