
#######################################################################
#
#                 Cambridge Crystallographic Data Centre
#                                CCDC 
#
#######################################################################
#
# If this CIF has been generated from an entry in the Cambridge 
# Structural Database, then it will include bibliographic, chemical, 
# crystal, experimental, refinement or atomic coordinate data resulting 
# from the CCDC's data processing and validation procedures.
#
#######################################################################

data_YEXHUF
_symmetry_cell_setting           monoclinic
_symmetry_space_group_name_H-M   'P 21/c'
_symmetry_Int_Tables_number      14
_space_group_name_Hall           '-P 2ybc'
loop_
_symmetry_equiv_pos_site_id
_symmetry_equiv_pos_as_xyz
1 x,y,z
2 -x,1/2+y,1/2-z
3 -x,-y,-z
4 x,1/2-y,1/2+z
_cell_length_a                   7.5232(3)
_cell_length_b                   20.7611(7)
_cell_length_c                   15.2509(6)
_cell_angle_alpha                90
_cell_angle_beta                 96.317(3)
_cell_angle_gamma                90
_cell_volume                     2367.57
loop_
_atom_site_label
_atom_site_type_symbol
_atom_site_fract_x
_atom_site_fract_y
_atom_site_fract_z
Gd1 Gd 0.42673(3) 0.463874(11) 0.273838(15)
Mo1 Mo 0.57075(5) 0.153780(19) 0.15428(3)
Mo2 Mo 1.07117(5) 0.15565(2) 0.15572(3)
O1 O 0.4214(5) 0.42914(17) 0.1173(2)
O2 O 0.2768(7) 0.4458(2) -0.0151(3)
H1 H 0.3282 0.4464 -0.0598
O3 O 0.4244(5) 0.12604(18) -0.1244(2)
O4 O 0.5298(5) 0.11234(18) 0.0168(2)
O5 O 1.0203(5) 0.10846(18) 0.0229(3)
O6 O 0.9702(5) 0.11750(19) -0.1221(3)
O7 O 0.8662(6) 0.41873(18) 0.1128(2)
O8 O 0.7687(6) 0.44107(19) -0.0262(3)
O9 O 0.4310(5) 0.57686(18) 0.3003(3)
O10 O 0.1718(5) 0.51636(19) 0.1885(3)
H2 H 0.098(7) 0.535(3) 0.226(3)
H3 H 0.157(12) 0.4733(16) 0.171(6)
O11 O 0.6635(6) 0.5170(2) 0.2028(3)
H4 H 0.756(5) 0.541(2) 0.233(3)
H5 H 0.727(8) 0.499(3) 0.159(4)
O12 O 0.6683(6) 0.3848(2) 0.2550(3)
H6 H 0.777(6) 0.380(4) 0.291(4)
H7 H 0.740(9) 0.393(4) 0.210(4)
O13 O 0.6448(6) 0.4887(2) 0.4025(3)
H8 H 0.6482 0.4594 0.4263
H9 H 0.6489 0.5302 0.4170
O14 O 0.2100(6) 0.4884(2) 0.3812(3)
H10 H 0.149(8) 0.526(2) 0.395(5)
H11 H 0.106(5) 0.463(2) 0.384(4)
O15 O 0.1814(5) 0.3863(2) 0.2332(3)
H12 H 0.076(6) 0.402(4) 0.200(4)
H13 H 0.116(9) 0.375(4) 0.280(3)
O16 O 0.7966(5) 0.1612(2) 0.1312(3)
O17 O 0.2960(5) 0.1503(2) 0.1287(3)
O18 O 0.5636(6) 0.2060(2) 0.2384(3)
O19 O 1.0838(6) 0.2156(2) 0.2315(3)
O20 O 1.0491(5) 0.0849(2) 0.2150(3)
N1 N 0.4907(5) 0.23604(19) 0.0538(3)
N2 N 1.0015(5) 0.23355(19) 0.0478(3)
C1 C 0.4420(6) 0.2178(2) -0.0308(3)
C2 C 0.3724(7) 0.2590(2) -0.0958(3)
H14 H 0.3432 0.2446 -0.1533
C3 C 0.3466(7) 0.3232(3) -0.0731(3)
H15 H 0.2978 0.3525 -0.1151
C4 C 0.3957(6) 0.3427(2) 0.0144(3)
C5 C 0.4676(6) 0.2975(2) 0.0760(3)
H16 H 0.5003 0.3104 0.1339
C6 C 0.4672(7) 0.1464(2) -0.0476(3)
C7 C 0.3647(7) 0.4108(2) 0.0434(3)
C8 C 0.9525(6) 0.2123(2) -0.0348(3)
C9 C 0.8755(7) 0.2510(3) -0.1009(3)
H17 H 0.8475 0.2351 -0.1577
C10 C 0.8393(7) 0.3162(3) -0.0806(3)
H18 H 0.7858 0.3439 -0.1236
C11 C 0.8857(7) 0.3371(2) 0.0046(3)
C12 C 0.9700(6) 0.2953(2) 0.0668(3)
H19 H 1.0056 0.3105 0.1234
C13 C 0.9832(7) 0.1407(2) -0.0461(4)
C14 C 0.8402(7) 0.4043(3) 0.0338(3)
Gd1C Gd 0.42673(3) 0.036126(11) -0.226162(15)
Mo1A Mo 0.42925(5) 0.653780(19) 0.34572(3)
Mo2_2 Mo 0.07117(5) 0.15565(2) 0.15572(3)
O3C O 0.4244(5) 0.37396(18) 0.3756(2)
O9A O 0.5690(5) 0.07686(18) 0.1997(3)
O17_2 O 1.2960(5) 0.1503(2) 0.1287(3)
O21 O 0.9238(11) 0.4650(4) 0.2718(6)
loop_
_geom_bond_atom_site_label_1
_geom_bond_atom_site_label_2
_geom_bond_site_symmetry_1
_geom_bond_site_symmetry_2
Gd1 O1 1_555 1_555
Mo1 O4 1_555 1_555
Mo2 O5 1_555 1_555
O1 C7 1_555 1_555
O2 H1 1_555 1_555
O3 C6 1_555 1_555
O4 C6 1_555 1_555
O5 C13 1_555 1_555
O6 C13 1_555 1_555
O7 C14 1_555 1_555
O8 C14 1_555 1_555
O9 Gd1 1_555 1_555
O10 Gd1 1_555 1_555
H2 O10 1_555 1_555
H3 O10 1_555 1_555
O11 Gd1 1_555 1_555
H4 O11 1_555 1_555
H5 O11 1_555 1_555
O12 Gd1 1_555 1_555
H6 O12 1_555 1_555
H7 O12 1_555 1_555
O13 Gd1 1_555 1_555
H8 O13 1_555 1_555
H9 O13 1_555 1_555
O14 Gd1 1_555 1_555
H10 O14 1_555 1_555
H11 O14 1_555 1_555
O15 Gd1 1_555 1_555
H12 O15 1_555 1_555
H13 O15 1_555 1_555
O16 Mo1 1_555 1_555
O17 Mo1 1_555 1_555
O18 Mo1 1_555 1_555
O19 Mo2 1_555 1_555
O20 Mo2 1_555 1_555
N1 Mo1 1_555 1_555
N2 Mo2 1_555 1_555
C1 N1 1_555 1_555
C2 C1 1_555 1_555
H14 C2 1_555 1_555
C3 C2 1_555 1_555
H15 C3 1_555 1_555
C4 C3 1_555 1_555
C5 N1 1_555 1_555
H16 C5 1_555 1_555
C6 C1 1_555 1_555
C7 O2 1_555 1_555
C8 N2 1_555 1_555
C9 C8 1_555 1_555
H17 C9 1_555 1_555
C10 C9 1_555 1_555
H18 C10 1_555 1_555
C11 C10 1_555 1_555
C12 N2 1_555 1_555
H19 C12 1_555 1_555
C13 C8 1_555 1_555
C14 C11 1_555 1_555
Gd1C O3 1_555 1_555
Mo1A O9 1_555 1_555
Mo2_2 O17 1_555 1_555
O3C Gd1 1_555 1_555
O9A Mo1 1_555 1_555
O17_2 Mo2 1_555 1_555
Mo2 O16 1_555 1_555
C4 C5 1_555 1_555
C4 C7 1_555 1_555
C11 C12 1_555 1_555

#END
