
#######################################################################
#
#                 Cambridge Crystallographic Data Centre
#                                CCDC 
#
#######################################################################
#
# If this CIF has been generated from an entry in the Cambridge 
# Structural Database, then it will include bibliographic, chemical, 
# crystal, experimental, refinement or atomic coordinate data resulting 
# from the CCDC's data processing and validation procedures.
#
#######################################################################

data_YEXKAO
_symmetry_cell_setting           triclinic
_symmetry_space_group_name_H-M   'P 1'
_symmetry_Int_Tables_number      1
_space_group_name_Hall           'P 1'
loop_
_symmetry_equiv_pos_site_id
_symmetry_equiv_pos_as_xyz
1 x,y,z
_cell_length_a                   8.6730(19)
_cell_length_b                   9.320(2)
_cell_length_c                   14.037(3)
_cell_angle_alpha                80.429(4)
_cell_angle_beta                 81.957(4)
_cell_angle_gamma                84.640(4)
_cell_volume                     1104.98
loop_
_atom_site_label
_atom_site_type_symbol
_atom_site_fract_x
_atom_site_fract_y
_atom_site_fract_z
Cu1 Cu 0.88216(7) 0.12901(7) 0.07389(5)
Cu2 Cu 0.70612(7) 0.20975(7) 0.38253(5)
S2 S 1.48531(16) 0.45733(16) 0.23893(10)
C1 C 1.3049(7) 0.3912(6) 0.2957(4)
C2 C 1.0671(6) 0.2776(6) 0.2921(4)
O2 O 0.8388(5) 0.1669(5) 0.2666(3)
N2 N 0.5443(6) 0.0796(6) 0.3649(4)
O3 O 1.5292(6) 0.3828(6) 0.1552(4)
O4 O 1.5938(6) 0.4232(5) 0.3105(4)
O6 O 1.4564(6) 0.6127(5) 0.2117(4)
C6 C 0.4421(7) 0.1365(7) 0.5212(5)
C7 C 1.2473(7) 0.4270(7) 0.3875(5)
H1 H 1.3071 0.4767 0.4196
C11 C 0.4753(9) 0.3066(9) 0.6570(5)
H5 H 0.4882 0.3670 0.7014
C12 C 0.9754(6) 0.2036(6) 0.2346(4)
C13 C 0.3186(8) -0.0416(8) 0.4417(5)
H6 H 0.2427 -0.0591 0.4952
C14 C 0.4329(9) -0.0819(9) 0.2849(6)
H7 H 0.4343 -0.1258 0.2299
C17 C 1.2171(7) 0.3169(6) 0.2494(4)
H10 H 1.2570 0.2920 0.1888
C19 C 0.5424(8) 0.0129(8) 0.2885(5)
H12 H 0.6186 0.0314 0.2352
O9 O 1.0384(5) 0.1779(5) 0.1517(3)
C20 C 0.5810(8) 0.3019(8) 0.5743(5)
H13 H 0.6664 0.3583 0.5644
C22 C 0.3217(8) -0.1112(8) 0.3628(6)
H15 H 0.2486 -0.1779 0.3625
N3 N 0.5649(6) 0.2194(6) 0.5080(4)
O10 O 0.8109(5) 0.3361(4) 0.0505(3)
O11 O 1.0307(6) 0.1478(5) -0.0639(3)
N5 N 0.9312(6) -0.0848(5) 0.1028(4)
O12 O 0.8666(5) 0.2888(6) 0.4310(3)
N6 N 0.6867(6) 0.0594(5) 0.0390(4)
C23 C 0.3508(9) 0.2209(10) 0.6732(5)
H16 H 0.2795 0.2201 0.7293
C24 C 1.1028(8) 0.3884(9) 0.4297(5)
H17 H 1.0664 0.4116 0.4912
C25 C 0.4299(7) 0.0548(7) 0.4404(4)
C26 C 1.0051(7) 0.3144(7) 0.3839(4)
C28 C 0.6850(7) -0.0857(6) 0.0482(4)
C31 C 0.5616(8) 0.1405(7) 0.0087(5)
H20 H 0.5632 0.2415 0.0001
C33 C 1.1010(8) -0.2961(8) 0.1375(5)
H21 H 1.1952 -0.3383 0.1572
C35 C 0.8288(7) -0.1676(6) 0.0805(4)
C36 C 0.3343(8) 0.1358(9) 0.6036(5)
H23 H 0.2501 0.0779 0.6125
C37 C 0.5593(8) -0.1509(7) 0.0298(4)
H24 H 0.5606 -0.2520 0.0371
C38 C 1.0656(7) -0.1465(7) 0.1308(5)
H25 H 1.1373 -0.0884 0.1461
C40 C 0.9953(10) -0.3792(8) 0.1148(6)
H26 H 1.0171 -0.4796 0.1193
C41 C 0.4318(8) 0.0831(8) -0.0102(5)
H27 H 0.3464 0.1431 -0.0298
C42 C 0.8572(9) -0.3175(7) 0.0853(6)
H28 H 0.7848 -0.3739 0.0691
C44 C 0.4317(8) -0.0656(8) 0.0005(5)
H30 H 0.3455 -0.1086 -0.0120
H31 H 0.7510 0.3970 0.0806
H32 H 0.8271 0.3770 -0.0093
H33 H 0.9974 0.1945 -0.1159
H34 H 1.1031 0.0856 -0.0820
Cu2_2 Cu 1.70612(7) 0.20975(7) 0.38253(5)
O4_2 O 0.5938(6) 0.4232(5) 0.3105(4)
Cu3 Cu 0.50919(7) -0.20618(7) -0.32516(5)
S1 S -0.26789(17) -0.44766(16) -0.18271(11)
O1 O 0.3553(5) -0.2919(6) -0.3736(3)
C3 C 0.2150(7) -0.3172(7) -0.3279(4)
N1 N 0.6743(6) -0.0782(6) -0.3089(4)
C4 C 0.7813(7) -0.1436(7) -0.4622(4)
C5 C 0.7883(7) -0.0563(7) -0.3841(5)
O5 O -0.3716(6) -0.4302(6) -0.2573(4)
O7 O -0.2398(7) -0.5976(6) -0.1418(4)
O8 O -0.3218(6) -0.3549(6) -0.1092(4)
C8 C -0.0191(8) -0.4407(8) -0.3261(5)
H2 H -0.0734 -0.5020 -0.3531
C9 C 0.9043(8) 0.0374(8) -0.3840(5)
H3 H 0.9822 0.0531 -0.4366
C10 C 0.7445(10) -0.3162(10) -0.5961(6)
H4 H 0.7315 -0.3772 -0.6401
C15 C 0.6733(9) -0.0088(9) -0.2333(5)
H8 H 0.5929 -0.0231 -0.1821
C16 C 0.7862(9) 0.0834(9) -0.2272(6)
H9 H 0.7837 0.1282 -0.1725
C18 C 0.8892(9) -0.1418(9) -0.5454(6)
H11 H 0.9716 -0.0816 -0.5567
C21 C 0.9009(9) 0.1069(8) -0.3034(6)
H14 H 0.9774 0.1697 -0.3016
N4 N 0.6566(6) -0.2229(6) -0.4480(4)
C27 C 0.6387(8) -0.3070(8) -0.5143(5)
H18 H 0.5514 -0.3610 -0.5045
O13 O 0.3704(5) -0.1433(6) -0.2204(4)
C29 C -0.0033(7) -0.2986(6) -0.2018(4)
H19 H -0.0485 -0.2618 -0.1460
C30 C 0.1467(7) -0.2612(6) -0.2431(4)
C32 C -0.0861(7) -0.3879(6) -0.2411(4)
C34 C 0.1257(8) -0.4033(9) -0.3699(5)
H22 H 0.1660 -0.4351 -0.4283
C39 C 0.2250(8) -0.1609(7) -0.1946(5)
C43 C 0.8700(10) -0.2322(11) -0.6106(6)
H29 H 0.9433 -0.2363 -0.6654
O16 O 0.1470(5) -0.1020(5) -0.1305(4)
Cu3_2 Cu -0.49081(7) -0.20618(7) -0.32516(5)
O5_2 O 0.6284(6) -0.4302(6) -0.2573(4)
O14 O 1.3755(7) 0.5285(8) -0.0216(5)
H35 H 1.4021 0.4983 0.0364
H36 H 1.4534 0.5731 -0.0535
O15 O 1.2054(8) 0.3835(6) -0.1251(5)
H37 H 1.2059 0.4591 -0.1689
H38 H 1.1697 0.4154 -0.0706
loop_
_geom_bond_atom_site_label_1
_geom_bond_atom_site_label_2
_geom_bond_site_symmetry_1
_geom_bond_site_symmetry_2
Cu1 O9 1_555 1_555
Cu2 O2 1_555 1_555
Cu3 O1 1_555 1_555
S1 O5 1_555 1_555
S2 C1 1_555 1_555
O1 C3 1_555 1_555
C1 C7 1_555 1_555
C2 C12 1_555 1_555
C3 C30 1_555 1_555
N1 Cu3 1_555 1_555
O2 C12 1_555 1_555
C4 C5 1_555 1_555
N2 Cu2 1_555 1_555
C5 N1 1_555 1_555
O3 S2 1_555 1_555
O4 S2 1_555 1_555
O5 Cu3_2 1_555 1_555
O6 S2 1_555 1_555
C6 N3 1_555 1_555
C7 H1 1_555 1_555
O7 S1 1_555 1_555
O8 S1 1_555 1_555
C8 H2 1_555 1_555
C9 C5 1_555 1_555
H3 C9 1_555 1_555
C10 H4 1_555 1_555
C11 H5 1_555 1_555
C12 O9 1_555 1_555
C13 H6 1_555 1_555
C14 H7 1_555 1_555
C15 N1 1_555 1_555
H8 C15 1_555 1_555
C16 C15 1_555 1_555
H9 C16 1_555 1_555
C17 C1 1_555 1_555
H10 C17 1_555 1_555
C18 C4 1_555 1_555
H11 C18 1_555 1_555
C19 N2 1_555 1_555
H12 C19 1_555 1_555
C20 C11 1_555 1_555
H13 C20 1_555 1_555
C21 C9 1_555 1_555
H14 C21 1_555 1_555
C22 C13 1_555 1_555
H15 C22 1_555 1_555
N3 Cu2 1_555 1_555
N4 Cu3 1_555 1_555
O10 Cu1 1_555 1_555
O11 Cu1 1_555 1_555
N5 Cu1 1_555 1_555
O12 Cu2 1_555 1_555
N6 Cu1 1_555 1_555
C23 C11 1_555 1_555
H16 C23 1_555 1_555
C24 C7 1_555 1_555
H17 C24 1_555 1_555
C25 N2 1_555 1_555
C26 C2 1_555 1_555
C27 C10 1_555 1_555
H18 C27 1_555 1_555
O13 Cu3 1_555 1_555
C28 N6 1_555 1_555
O14 H35 1_555 1_555
C29 H19 1_555 1_555
C30 C29 1_555 1_555
C31 N6 1_555 1_555
H20 C31 1_555 1_555
O15 H37 1_555 1_555
C32 S1 1_555 1_555
C33 H21 1_555 1_555
C34 C3 1_555 1_555
H22 C34 1_555 1_555
C35 N5 1_555 1_555
C36 C6 1_555 1_555
H23 C36 1_555 1_555
C37 C28 1_555 1_555
H24 C37 1_555 1_555
C38 N5 1_555 1_555
H25 C38 1_555 1_555
C39 O13 1_555 1_555
C40 C33 1_555 1_555
H26 C40 1_555 1_555
C41 C31 1_555 1_555
H27 C41 1_555 1_555
C42 C35 1_555 1_555
H28 C42 1_555 1_555
C43 C10 1_555 1_555
H29 C43 1_555 1_555
C44 C37 1_555 1_555
H30 C44 1_555 1_555
O16 C39 1_555 1_555
H31 O10 1_555 1_555
H32 O10 1_555 1_555
H33 O11 1_555 1_555
H34 O11 1_555 1_555
H36 O14 1_555 1_555
H38 O15 1_555 1_555
Cu2_2 O4 1_555 1_555
O4_2 Cu2 1_555 1_555
O5_2 Cu3 1_555 1_555
C2 C17 1_555 1_555
C4 N4 1_555 1_555
C6 C25 1_555 1_555
C8 C32 1_555 1_555
C8 C34 1_555 1_555
C13 C25 1_555 1_555
C14 C19 1_555 1_555
C14 C22 1_555 1_555
C16 C21 1_555 1_555
C18 C43 1_555 1_555
C20 N3 1_555 1_555
N4 C27 1_555 1_555
O12 C26 1_555 1_555
C23 C36 1_555 1_555
C24 C26 1_555 1_555
C28 C35 1_555 1_555
C29 C32 1_555 1_555
C30 C39 1_555 1_555
C33 C38 1_555 1_555
C40 C42 1_555 1_555
C41 C44 1_555 1_555

#END
