
#######################################################################
#
#                 Cambridge Crystallographic Data Centre
#                                CCDC 
#
#######################################################################
#
# If this CIF has been generated from an entry in the Cambridge 
# Structural Database, then it will include bibliographic, chemical, 
# crystal, experimental, refinement or atomic coordinate data resulting 
# from the CCDC's data processing and validation procedures.
#
#######################################################################

data_YEXPAS
_symmetry_cell_setting           monoclinic
_symmetry_space_group_name_H-M   'P 21/a'
_symmetry_Int_Tables_number      14
_space_group_name_Hall           '-P 2yab'
loop_
_symmetry_equiv_pos_site_id
_symmetry_equiv_pos_as_xyz
1 x,y,z
2 1/2-x,1/2+y,-z
3 -x,-y,-z
4 1/2+x,1/2-y,z
_cell_length_a                   10.989
_cell_length_b                   19.357
_cell_length_c                   12.598
_cell_angle_alpha                90
_cell_angle_beta                 107.27
_cell_angle_gamma                90
_cell_volume                     2558.96
loop_
_atom_site_label
_atom_site_type_symbol
_atom_site_fract_x
_atom_site_fract_y
_atom_site_fract_z
Ni1 Ni 0.04104(2) 0.10904(1) 0.15049(2)
Ni2 Ni -0.43746(2) 0.18068(1) -0.09358(2)
O1 O -0.08039(11) 0.19561(6) 0.12483(9)
O2 O -0.31920(11) 0.09326(6) -0.04756(11)
O3 O -0.28051(10) 0.22422(6) 0.02871(10)
O4 O -0.13342(11) 0.06241(5) 0.07005(10)
N1 N -0.0340(1) 0.2228(1) -0.1254(1)
N2 N 0.0106(1) 0.1744(1) -0.0711(1)
N3 N 0.0539(2) 0.1241(1) -0.0197(1)
N4 N 0.2036(2) 0.1681(1) 0.2118(1)
N5 N 0.0136(2) 0.0966(1) 0.3074(1)
N6 N 0.1260(2) 0.0137(1) 0.1482(2)
N7 N -0.3386(1) 0.2036(1) -0.2087(1)
N8 N -0.5734(1) 0.1254(1) -0.2165(1)
N9 N -0.5115(1) 0.1588(1) 0.0374(1)
C1 C -0.1913(1) 0.1821(1) 0.0632(1)
C2 C -0.2175(2) 0.1056(1) 0.0249(1)
C3 C 0.1997(2) 0.2201(1) 0.2948(2)
C4 C 0.1689(3) 0.1893(2) 0.3955(2)
C5 C 0.0385(3) 0.1624(1) 0.3746(2)
C6 C 0.0739(4) 0.0371(2) 0.3757(2)
C7 C 0.0677(4) -0.0290(1) 0.3126(3)
C8 C 0.1656(3) -0.0303(1) 0.2496(3)
C9 C -0.4096(2) 0.2213(2) -0.3230(2)
C10 C -0.5076(3) 0.1667(2) -0.3774(2)
C11 C -0.6110(2) 0.1569(2) -0.3256(2)
C12 C -0.6878(2) 0.1043(1) -0.1863(2)
C13 C -0.6526(2) 0.0683(1) -0.0739(2)
C14 C -0.6263(3) 0.1162(1) 0.0230(2)
H1 H 0.2221(2) 0.1943(1) 0.1425(1)
H2 H 0.2816(2) 0.1335(1) 0.2497(1)
H3 H -0.0865(2) 0.0837(1) 0.2846(1)
H4 H 0.2108(2) 0.0231(1) 0.1238(2)
H5 H 0.0595(2) -0.0166(1) 0.0850(2)
H6 H -0.2819(1) 0.1587(1) -0.2129(1)
H7 H -0.2764(1) 0.2467(1) -0.1753(1)
H8 H -0.5205(1) 0.0792(1) -0.2219(1)
H9 H -0.5315(1) 0.2082(1) 0.0686(1)
H10 H -0.4360(1) 0.1333(1) 0.1002(1)
H11 H 0.2909(2) 0.2457(1) 0.3228(2)
H12 H 0.1268(2) 0.2573(1) 0.2561(2)
H13 H 0.1835(3) 0.2290(2) 0.4583(2)
H14 H 0.2345(3) 0.1473(2) 0.4264(2)
H15 H 0.0224(3) 0.1524(1) 0.4537(2)
H16 H -0.0277(3) 0.2012(1) 0.3301(2)
H17 H 0.1729(4) 0.0494(2) 0.4154(2)
H18 H 0.0264(4) 0.0288(2) 0.4384(2)
H19 H 0.0860(4) -0.0717(1) 0.3703(3)
H20 H -0.0263(4) -0.0344(1) 0.2543(3)
H21 H 0.1770(3) -0.0829(1) 0.2252(3)
H22 H 0.2554(3) -0.0115(1) 0.3031(3)
H23 H -0.4574(2) 0.2700(2) -0.3227(2)
H24 H -0.3432(2) 0.2264(2) -0.3708(2)
H25 H -0.4589(3) 0.1179(2) -0.3746(2)
H26 H -0.5507(3) 0.1816(2) -0.4629(2)
H27 H -0.6828(2) 0.1246(2) -0.3802(2)
H28 H -0.6512(2) 0.2070(2) -0.3184(2)
H29 H -0.7439(2) 0.1495(1) -0.1827(2)
H30 H -0.7432(2) 0.0693(1) -0.2489(2)
H31 H -0.5684(2) 0.0375(1) -0.0660(2)
H32 H -0.7306(2) 0.0350(1) -0.0714(2)
H33 H -0.6139(3) 0.0860(1) 0.0976(2)
H34 H -0.7071(3) 0.1502(1) 0.0115(2)
Ni2C Ni 0.06254(2) 0.31932(1) -0.09358(2)
N1C N -0.5340(1) 0.2772(1) -0.1254(1)
P1 P 0.6337(1) 0.0777 0.3587(1)
F1 F 0.5196(5) 0.1374(3) 0.2993(4)
F3 F 0.6843(3) 0.1038(2) 0.2614(2)
F4 F 0.6901(6) 0.1267(3) 0.4503(5)
F6 F 0.5328(6) 0.0224(3) 0.2881(5)
F8 F 0.7721(4) 0.0289(2) 0.3786(3)
F10 F 0.5380(8) 0.0563(4) 0.4326(6)
F2? F 0.5374(5) 0.1339(3) 0.3451(4)
F5? F 0.7489(5) 0.1320(3) 0.4314(4)
F7? F 0.5568(6) 0.0315(3) 0.2568(5)
F9? F 0.7098(6) 0.0128(3) 0.3949(4)
F11? F 0.6241(6) 0.0502(3) 0.4709(4)
loop_
_geom_bond_atom_site_label_1
_geom_bond_atom_site_label_2
_geom_bond_site_symmetry_1
_geom_bond_site_symmetry_2
Ni1 O1 1_555 1_555
Ni2 O2 1_555 1_555
O1 C1 1_555 1_555
O2 C2 1_555 1_555
O3 Ni2 1_555 1_555
O4 Ni1 1_555 1_555
N1 N2 1_555 1_555
N2 N3 1_555 1_555
N3 Ni1 1_555 1_555
N4 Ni1 1_555 1_555
N5 Ni1 1_555 1_555
N6 Ni1 1_555 1_555
N7 Ni2 1_555 1_555
N8 Ni2 1_555 1_555
N9 Ni2 1_555 1_555
C1 O3 1_555 1_555
C2 O4 1_555 1_555
C3 N4 1_555 1_555
C4 C3 1_555 1_555
C5 N5 1_555 1_555
C6 N5 1_555 1_555
C7 C6 1_555 1_555
C8 N6 1_555 1_555
C9 N7 1_555 1_555
C10 C9 1_555 1_555
C11 N8 1_555 1_555
C12 N8 1_555 1_555
C13 C12 1_555 1_555
C14 N9 1_555 1_555
P1 F1 1_555 1_555
F3 P1 1_555 1_555
F4 P1 1_555 1_555
F6 P1 1_555 1_555
F8 P1 1_555 1_555
F10 P1 1_555 1_555
H1 N4 1_555 1_555
H2 N4 1_555 1_555
H3 N5 1_555 1_555
H4 N6 1_555 1_555
H5 N6 1_555 1_555
H6 N7 1_555 1_555
H7 N7 1_555 1_555
H8 N8 1_555 1_555
H9 N9 1_555 1_555
H10 N9 1_555 1_555
H11 C3 1_555 1_555
H12 C3 1_555 1_555
H13 C4 1_555 1_555
H14 C4 1_555 1_555
H15 C5 1_555 1_555
H16 C5 1_555 1_555
H17 C6 1_555 1_555
H18 C6 1_555 1_555
H19 C7 1_555 1_555
H20 C7 1_555 1_555
H21 C8 1_555 1_555
H22 C8 1_555 1_555
H23 C9 1_555 1_555
H24 C9 1_555 1_555
H25 C10 1_555 1_555
H26 C10 1_555 1_555
H27 C11 1_555 1_555
H28 C11 1_555 1_555
H29 C12 1_555 1_555
H30 C12 1_555 1_555
H31 C13 1_555 1_555
H32 C13 1_555 1_555
H33 C14 1_555 1_555
H34 C14 1_555 1_555
Ni2C N1 1_555 1_555
N1C Ni2 1_555 1_555
C1 C2 1_555 1_555
C4 C5 1_555 1_555
C7 C8 1_555 1_555
C10 C11 1_555 1_555
C13 C14 1_555 1_555

#END
