
#######################################################################
#
#                 Cambridge Crystallographic Data Centre
#                                CCDC 
#
#######################################################################
#
# If this CIF has been generated from an entry in the Cambridge 
# Structural Database, then it will include bibliographic, chemical, 
# crystal, experimental, refinement or atomic coordinate data resulting 
# from the CCDC's data processing and validation procedures.
#
#######################################################################

data_YEXVUT
_symmetry_cell_setting           monoclinic
_symmetry_space_group_name_H-M   'P 21/n'
_symmetry_Int_Tables_number      14
_space_group_name_Hall           '-P 2yn'
loop_
_symmetry_equiv_pos_site_id
_symmetry_equiv_pos_as_xyz
1 x,y,z
2 1/2-x,1/2+y,1/2-z
3 -x,-y,-z
4 1/2+x,1/2-y,1/2+z
_cell_length_a                   16.3427(14)
_cell_length_b                   7.4169(5)
_cell_length_c                   22.2080(19)
_cell_angle_alpha                90
_cell_angle_beta                 110.541(2)
_cell_angle_gamma                90
_cell_volume                     2520.73
loop_
_atom_site_label
_atom_site_type_symbol
_atom_site_fract_x
_atom_site_fract_y
_atom_site_fract_z
O1 O 0.25328(17) 0.8070(4) -0.08999(14)
Pb1 Pb 0.431098(7) 0.749386(18) -0.029294(5)
O2 O 0.57252(15) 0.8982(3) 0.03808(12)
O3 O 0.56139(15) 0.6121(3) 0.06091(12)
O4 O 1.03752(16) 0.6581(3) 0.37845(12)
H1 H 1.0570 0.5542 0.3902
O5 O 0.40298(16) 0.8518(3) 0.06431(11)
O6 O 0.36482(16) 0.5681(3) 0.04179(12)
O7 O 0.34110(19) 0.3485(4) 0.40829(13)
H2 H 0.3542 0.2400 0.4177
N1 N 0.1121(2) 0.7234(5) -0.11732(17)
C1 C 0.6029(2) 0.7578(5) 0.07173(15)
C2 C 0.6879(2) 0.7744(5) 0.12506(16)
H3 H 0.7154 0.8892 0.1331
C3 C 0.7277(2) 0.6376(5) 0.16202(17)
H4 H 0.7004 0.5230 0.1512
C4 C 0.8089(2) 0.6432(5) 0.21772(17)
C5 C 0.8458(2) 0.8047(5) 0.24679(18)
H5 H 0.8184 0.9154 0.2293
C6 C 0.9211(2) 0.8075(5) 0.30033(18)
H6 H 0.9441 0.9190 0.3202
C7 C 0.9635(2) 0.6462(5) 0.32538(17)
C8 C 0.9283(2) 0.4841(5) 0.29712(17)
H7 H 0.9568 0.3738 0.3139
C9 C 0.8515(2) 0.4831(5) 0.24436(17)
H8 H 0.8272 0.3711 0.2258
C10 C 0.3784(2) 0.6989(5) 0.07932(17)
C11 C 0.3683(2) 0.6837(5) 0.14277(17)
H9 H 0.3602 0.7894 0.1642
C12 C 0.3705(2) 0.5221(6) 0.17040(18)
H10 H 0.3780 0.4212 0.1465
C13 C 0.3629(2) 0.4812(5) 0.23268(18)
C14 C 0.3356(3) 0.6070(6) 0.26863(19)
H11 H 0.3214 0.7261 0.2526
C15 C 0.3292(3) 0.5612(6) 0.3267(2)
H12 H 0.3108 0.6488 0.3505
C16 C 0.3495(2) 0.3870(6) 0.35104(18)
C17 C 0.3758(2) 0.2602(5) 0.31597(19)
H13 H 0.3894 0.1410 0.3320
C18 C 0.3822(3) 0.3069(5) 0.25761(19)
H14 H 0.4003 0.2187 0.2339
C19 C 0.1973(3) 0.7019(6) -0.0882(2)
H15 H 0.2163 0.5950 -0.0637
C20 C 0.0768(3) 0.8814(7) -0.1565(2)
H16 H 0.1218 0.9754 -0.1468
H17 H 0.0264 0.9266 -0.1469
H18 H 0.0586 0.8490 -0.2021
C21 C 0.0507(4) 0.5772(9) -0.1193(3)
H19 H 0.0833 0.4711 -0.0972
H20 H 0.0173 0.5465 -0.1641
H21 H 0.0106 0.6165 -0.0978
Pb1B Pb 0.568902(7) 1.250614(18) 0.029294(5)
Pb1B_2 Pb 0.568902(7) 0.250614(18) 0.029294(5)
O2B O 0.42748(15) 1.1018(3) -0.03808(12)
O3B O 0.43861(15) 0.3879(3) -0.06091(12)
O8 O 0.3843(2) 1.0143(4) 0.44551(15)
N2 N 0.3404(2) 0.7637(4) 0.48414(15)
C22 C 0.3275(3) 0.9214(6) 0.45481(19)
H22 H 0.2694 0.9670 0.4396
C23 C 0.4284(3) 0.6859(6) 0.5088(3)
H23 H 0.4288 0.5713 0.4870
H24 H 0.4452 0.6648 0.5552
H25 H 0.4699 0.7695 0.5008
C24 C 0.2681(3) 0.6614(7) 0.4913(2)
H26 H 0.2141 0.7315 0.4739
H27 H 0.2802 0.6367 0.5369
H28 H 0.2616 0.5473 0.4678
loop_
_geom_bond_atom_site_label_1
_geom_bond_atom_site_label_2
_geom_bond_site_symmetry_1
_geom_bond_site_symmetry_2
O1 Pb1 1_555 1_555
Pb1 O2 1_555 1_555
O2 C1 1_555 1_555
O3 Pb1 1_555 1_555
O4 H1 1_555 1_555
O5 Pb1 1_555 1_555
O6 Pb1 1_555 1_555
O7 H2 1_555 1_555
O8 C22 1_555 1_555
N1 C19 1_555 1_555
N2 C22 1_555 1_555
C1 O3 1_555 1_555
C2 C1 1_555 1_555
H3 C2 1_555 1_555
C3 C2 1_555 1_555
H4 C3 1_555 1_555
C4 C3 1_555 1_555
C5 C4 1_555 1_555
H5 C5 1_555 1_555
C6 C5 1_555 1_555
H6 C6 1_555 1_555
C7 O4 1_555 1_555
C8 C7 1_555 1_555
H7 C8 1_555 1_555
C9 C4 1_555 1_555
H8 C9 1_555 1_555
C10 O5 1_555 1_555
C11 C10 1_555 1_555
H9 C11 1_555 1_555
C12 C11 1_555 1_555
H10 C12 1_555 1_555
C13 C12 1_555 1_555
C14 C13 1_555 1_555
H11 C14 1_555 1_555
C15 C14 1_555 1_555
H12 C15 1_555 1_555
C16 O7 1_555 1_555
C17 C16 1_555 1_555
H13 C17 1_555 1_555
C18 C13 1_555 1_555
H14 C18 1_555 1_555
C19 O1 1_555 1_555
H15 C19 1_555 1_555
C20 N1 1_555 1_555
H16 C20 1_555 1_555
H17 C20 1_555 1_555
H18 C20 1_555 1_555
C21 N1 1_555 1_555
H19 C21 1_555 1_555
H20 C21 1_555 1_555
H21 C21 1_555 1_555
C22 H22 1_555 1_555
C23 N2 1_555 1_555
H23 C23 1_555 1_555
H24 C23 1_555 1_555
H25 C23 1_555 1_555
C24 N2 1_555 1_555
H26 C24 1_555 1_555
H27 C24 1_555 1_555
H28 C24 1_555 1_555
Pb1B O2 1_555 1_555
Pb1B_2 O3 1_555 1_555
O2B Pb1 1_555 1_555
O3B Pb1 1_555 1_555
O6 C10 1_555 1_555
C6 C7 1_555 1_555
C8 C9 1_555 1_555
C15 C16 1_555 1_555
C17 C18 1_555 1_555
Pb1B O2B 1_555 1_555
Pb1B_2 O3B 1_555 1_555

#END
