
#######################################################################
#
#                 Cambridge Crystallographic Data Centre
#                                CCDC 
#
#######################################################################
#
# If this CIF has been generated from an entry in the Cambridge 
# Structural Database, then it will include bibliographic, chemical, 
# crystal, experimental, refinement or atomic coordinate data resulting 
# from the CCDC's data processing and validation procedures.
#
#######################################################################

data_YEYFIT
_symmetry_cell_setting           monoclinic
_symmetry_space_group_name_H-M   'P 21'
_symmetry_Int_Tables_number      4
_space_group_name_Hall           'P 2yb'
loop_
_symmetry_equiv_pos_site_id
_symmetry_equiv_pos_as_xyz
1 x,y,z
2 -x,1/2+y,-z
_cell_length_a                   9.789(14)
_cell_length_b                   22.29(3)
_cell_length_c                   16.53(2)
_cell_angle_alpha                90
_cell_angle_beta                 91.75(3)
_cell_angle_gamma                90
_cell_volume                     3605.11
loop_
_atom_site_label
_atom_site_type_symbol
_atom_site_fract_x
_atom_site_fract_y
_atom_site_fract_z
Zn1 Zn -0.10691(14) 0.41345(7) 0.44957(7)
Zn2 Zn 0.62568(14) -0.09010(7) -0.06765(7)
Zn3 Zn -0.00218(14) 0.35614(7) 0.27978(7)
Zn4 Zn 0.49663(14) -0.13878(7) -0.23910(7)
O1 O 0.3910(8) -0.2050(4) -0.1854(4)
O2 O 0.1110(9) 0.2918(4) 0.3376(4)
O3 O -0.1527(8) 0.3719(4) 0.3495(4)
O4 O 0.6602(8) -0.1236(4) -0.1726(4)
O5 O 0.6097(9) 0.8582(5) 0.0277(4)
O6 O 0.4387(12) 0.8071(6) -0.0320(5)
O7 O 0.6099(9) 0.7946(4) 0.6776(5)
O8 O 0.4360(9) 0.8474(4) 0.6385(4)
O9 O 0.0451(9) 0.4665(4) 0.4189(4)
O10 O 0.1084(9) 0.4311(4) 0.2964(5)
C1 C 0.5198(17) 0.8181(7) 0.0266(9)
C2 C 0.5042(12) 0.7800(5) 0.1031(6)
C3 C 0.5825(13) 0.7922(6) 0.1728(6)
H1 H 0.6486 0.8222 0.1732
C4 C 0.5593(14) 0.7579(6) 0.2430(6)
H2 H 0.6140 0.7649 0.2891
C5 C 0.4602(13) 0.7152(6) 0.2461(6)
C6 C 0.3821(15) 0.7011(7) 0.1758(7)
H3 H 0.3159 0.6712 0.1761
C7 C 0.4076(14) 0.7345(7) 0.1036(7)
H4 H 0.3584 0.7254 0.0561
C8 C 0.5256(15) 0.8070(6) 0.6259(7)
C9 C 0.5032(13) 0.7752(5) 0.5452(6)
C10 C 0.4132(12) 0.7983(6) 0.4861(6)
H5 H 0.3637 0.8328 0.4971
C11 C 0.3960(13) 0.7704(6) 0.4103(7)
H6 H 0.3401 0.7879 0.3704
C12 C 0.4629(13) 0.7163(6) 0.3947(7)
C13 C 0.5546(13) 0.6921(6) 0.4547(7)
H7 H 0.6007 0.6564 0.4450
C14 C 0.5752(12) 0.7227(6) 0.5290(6)
H8 H 0.6374 0.7077 0.5675
C15 C 0.1099(12) 0.4703(6) 0.3526(8)
C16 C 0.1982(13) 0.5247(6) 0.3433(7)
C17 C 0.3004(13) 0.5284(6) 0.2842(7)
H9 H 0.3159 0.4959 0.2505
C18 C 0.3774(13) 0.5805(6) 0.2762(7)
H10 H 0.4453 0.5820 0.2381
C19 C 0.3532(13) 0.6314(6) 0.3260(7)
C20 C 0.2524(13) 0.6285(5) 0.3819(7)
H11 H 0.2348 0.6618 0.4139
C21 C 0.1754(13) 0.5758(6) 0.3917(7)
H12 H 0.1087 0.5746 0.4305
N1 N 0.4395(11) 0.6837(5) 0.3218(5)
N2 N 0.7690(13) -0.0338(5) -0.0257(6)
N3 N 0.9624(17) 0.0060(7) 0.0259(8)
N4 N 1.3027(16) -0.0142(7) 0.1381(9)
O11 O 1.5107(16) 0.0261(6) 0.1775(10)
O12 O 1.3154(10) 0.0870(5) 0.1491(6)
C22 C 0.9066(15) -0.0319(8) -0.0305(10)
H13 H 0.9564 -0.0536 -0.0675
C23 C 0.753(2) 0.0016(9) 0.0408(10)
H14 H 0.6692 0.0055 0.0648
C24 C 0.862(2) 0.0298(12) 0.0696(13)
H15 H 0.8677 0.0589 0.1098
C25 C 1.117(2) 0.0095(9) 0.0403(9)
H16 H 1.1494 0.0501 0.0319
H17 H 1.1634 -0.0170 0.0032
C26 C 1.148(2) -0.0107(8) 0.1310(9)
H18 H 1.1091 0.0168 0.1705
C27 C 1.1071(19) -0.0757(8) 0.1447(11)
H19 H 1.0256 -0.0859 0.1128
H20 H 1.0902 -0.0830 0.2014
C28 C 1.229(2) -0.1121(9) 0.1175(14)
H21 H 1.2278 -0.1162 0.0590
H22 H 1.2295 -0.1518 0.1416
C29 C 1.355(2) -0.0758(9) 0.1474(15)
H23 H 1.3793 -0.0848 0.2034
H24 H 1.4331 -0.0828 0.1141
C30 C 1.383(2) 0.0342(8) 0.1537(12)
C31 C 1.3936(14) 0.1434(6) 0.1610(6)
C32 C 1.4474(19) 0.1447(8) 0.2487(9)
H25 H 1.3725 0.1405 0.2844
H26 H 1.4929 0.1822 0.2592
H27 H 1.5106 0.1123 0.2576
C33 C 1.5083(18) 0.1483(9) 0.1007(10)
H28 H 1.4696 0.1504 0.0467
H29 H 1.5663 0.1137 0.1056
H30 H 1.5610 0.1838 0.1120
C34 C 1.2832(16) 0.1913(7) 0.1503(11)
H31 H 1.2493 0.1913 0.0951
H32 H 1.3212 0.2300 0.1633
H33 H 1.2096 0.1829 0.1856
O13 O 0.0699(10) 0.3103(5) -0.5082(5)
O14 O -0.0888(9) 0.3681(5) -0.4489(4)
O15 O 0.0506(10) 0.3470(5) 0.1627(5)
O16 O -0.1186(9) 0.2842(4) 0.1906(5)
O17 O 0.4640(10) -0.0390(5) -0.0897(5)
O18 O 0.3853(10) -0.0658(4) -0.2134(5)
C35 C -0.0039(14) 0.3227(6) -0.4499(7)
C36 C 0.0040(13) 0.2849(6) -0.3754(7)
C37 C -0.0722(12) 0.2981(6) -0.3064(6)
H34 H -0.1322 0.3305 -0.3067
C38 C -0.0559(13) 0.2618(6) -0.2373(7)
H35 H -0.1081 0.2699 -0.1925
C39 C 0.0347(12) 0.2144(6) -0.2335(7)
C40 C 0.1076(13) 0.1994(7) -0.3025(7)
H36 H 0.1666 0.1666 -0.3018
C41 C 0.0902(14) 0.2344(7) -0.3726(7)
H37 H 0.1372 0.2240 -0.4186
C42 C -0.0281(14) 0.3029(7) 0.1455(7)
C43 C -0.0106(11) 0.2710(6) 0.0622(6)
C44 C 0.0729(13) 0.2960(7) 0.0070(7)
H38 H 0.1185 0.3316 0.0190
C45 C 0.0905(14) 0.2678(6) -0.0682(7)
H39 H 0.1413 0.2864 -0.1076
C46 C 0.0324(12) 0.2127(6) -0.0833(6)
C47 C -0.0564(13) 0.1878(7) -0.0254(7)
H40 H -0.1006 0.1516 -0.0364
C48 C -0.0769(12) 0.2165(6) 0.0458(6)
H41 H -0.1347 0.2000 0.0834
C49 C 0.3849(13) -0.0295(6) -0.1527(8)
C50 C 0.2941(14) 0.0244(5) -0.1530(6)
C51 C 0.1768(15) 0.0260(8) -0.2027(8)
H42 H 0.1544 -0.0065 -0.2358
C52 C 0.0932(15) 0.0766(7) -0.2027(8)
H43 H 0.0116 0.0764 -0.2331
C53 C 0.1308(13) 0.1284(5) -0.1570(6)
C54 C 0.2524(13) 0.1249(5) -0.1080(7)
H44 H 0.2802 0.1580 -0.0772
C55 C 0.3308(13) 0.0723(6) -0.1054(7)
H45 H 0.4079 0.0699 -0.0712
N5 N 0.0488(10) 0.1811(5) -0.1596(5)
C56 C -0.3489(16) 0.4980(7) 0.4229(9)
H46 H -0.3324 0.5021 0.3680
N6 N -0.4437(11) 0.5057(5) 0.5390(7)
N7 N -0.7764(14) 0.4833(6) 0.6439(7)
O19 O -0.9583(16) 0.5196(6) 0.7120(8)
O20 O -0.8365(12) 0.5791(5) 0.6245(6)
C57 C -0.460(2) 0.5232(8) 0.4604(8)
H47 H -0.5300 0.5466 0.4372
N8 N -0.2663(11) 0.4666(5) 0.4755(6)
C58 C -0.3273(13) 0.4729(7) 0.5473(8)
H48 H -0.2940 0.4569 0.5959
C59 C -0.5487(17) 0.5129(8) 0.6011(8)
H49 H -0.5616 0.5553 0.6116
H50 H -0.5160 0.4944 0.6512
C60 C -0.6864(15) 0.4850(7) 0.5755(9)
H51 H -0.7288 0.5071 0.5300
C61 C -0.6702(14) 0.4181(8) 0.5546(9)
H52 H -0.7405 0.4055 0.5156
H53 H -0.5814 0.4105 0.5322
C62 C -0.6841(19) 0.3858(8) 0.6321(11)
H54 H -0.5983 0.3855 0.6630
H55 H -0.7136 0.3447 0.6229
C63 C -0.796(2) 0.4227(8) 0.6775(10)
H56 H -0.8874 0.4076 0.6649
H57 H -0.7798 0.4220 0.7356
C64 C -0.863(2) 0.5259(9) 0.6617(11)
C65 C -0.9178(16) 0.6336(7) 0.6421(8)
C66 C -0.912(2) 0.6490(9) 0.7319(8)
H58 H -0.9616 0.6195 0.7613
H59 H -0.9513 0.6878 0.7400
H60 H -0.8181 0.6493 0.7512
C67 C -0.843(2) 0.6831(8) 0.5978(11)
H61 H -0.7533 0.6884 0.6224
H62 H -0.8930 0.7199 0.6012
H63 H -0.8342 0.6721 0.5420
C68 C -1.0650(19) 0.6248(10) 0.6118(10)
H64 H -1.1086 0.5954 0.6447
H65 H -1.0659 0.6114 0.5566
H66 H -1.1133 0.6622 0.6150
Zn1_2 Zn -0.10691(14) 0.41345(7) -0.55043(7)
Zn2_2 Zn 0.62568(14) 0.90990(7) -0.06765(7)
Zn4_2 Zn 0.49663(14) 0.86122(7) 0.76090(7)
O5_2 O 0.6097(9) -0.1418(5) 0.0277(4)
O7_2 O 0.6099(9) -0.2054(4) -0.3224(5)
O8_2 O 0.4360(9) -0.1526(4) -0.3615(4)
O14_2 O -0.0888(9) 0.3681(5) 0.5511(4)
loop_
_geom_bond_atom_site_label_1
_geom_bond_atom_site_label_2
_geom_bond_site_symmetry_1
_geom_bond_site_symmetry_2
Zn1 O3 1_555 1_555
Zn2 O4 1_555 1_555
Zn3 O2 1_555 1_555
Zn4 O1 1_555 1_555
O3 Zn3 1_555 1_555
O4 Zn4 1_555 1_555
O5 C1 1_555 1_555
O6 C1 1_555 1_555
O7 C8 1_555 1_555
O8 C8 1_555 1_555
O9 Zn1 1_555 1_555
O10 Zn3 1_555 1_555
C1 C2 1_555 1_555
C2 C3 1_555 1_555
C3 H1 1_555 1_555
C4 C3 1_555 1_555
H2 C4 1_555 1_555
C5 C4 1_555 1_555
C6 C5 1_555 1_555
H3 C6 1_555 1_555
C7 C2 1_555 1_555
H4 C7 1_555 1_555
C8 C9 1_555 1_555
C9 C10 1_555 1_555
C10 H5 1_555 1_555
C11 C10 1_555 1_555
H6 C11 1_555 1_555
C12 C11 1_555 1_555
C13 C12 1_555 1_555
H7 C13 1_555 1_555
C14 C9 1_555 1_555
H8 C14 1_555 1_555
C15 O9 1_555 1_555
C16 C15 1_555 1_555
C17 C16 1_555 1_555
H9 C17 1_555 1_555
C18 C17 1_555 1_555
H10 C18 1_555 1_555
C19 C18 1_555 1_555
C20 C19 1_555 1_555
H11 C20 1_555 1_555
C21 C16 1_555 1_555
H12 C21 1_555 1_555
N1 C5 1_555 1_555
N2 Zn2 1_555 1_555
N3 C22 1_555 1_555
N4 C26 1_555 1_555
O11 C30 1_555 1_555
O12 C30 1_555 1_555
C22 N2 1_555 1_555
H13 C22 1_555 1_555
C23 N2 1_555 1_555
H14 C23 1_555 1_555
C24 N3 1_555 1_555
H15 C24 1_555 1_555
C25 N3 1_555 1_555
H16 C25 1_555 1_555
H17 C25 1_555 1_555
C26 C25 1_555 1_555
H18 C26 1_555 1_555
C27 C26 1_555 1_555
H19 C27 1_555 1_555
H20 C27 1_555 1_555
C28 C27 1_555 1_555
H21 C28 1_555 1_555
H22 C28 1_555 1_555
C29 N4 1_555 1_555
H23 C29 1_555 1_555
H24 C29 1_555 1_555
C30 N4 1_555 1_555
C31 O12 1_555 1_555
C32 C31 1_555 1_555
H25 C32 1_555 1_555
H26 C32 1_555 1_555
H27 C32 1_555 1_555
C33 C31 1_555 1_555
H28 C33 1_555 1_555
H29 C33 1_555 1_555
H30 C33 1_555 1_555
C34 C31 1_555 1_555
H31 C34 1_555 1_555
H32 C34 1_555 1_555
H33 C34 1_555 1_555
O13 C35 1_555 1_555
O14 C35 1_555 1_555
O15 Zn3 1_555 1_555
O16 Zn3 1_555 1_555
O17 Zn2 1_555 1_555
O18 Zn4 1_555 1_555
C35 C36 1_555 1_555
C36 C37 1_555 1_555
C37 H34 1_555 1_555
C38 C37 1_555 1_555
H35 C38 1_555 1_555
C39 C38 1_555 1_555
C40 C39 1_555 1_555
H36 C40 1_555 1_555
C41 C36 1_555 1_555
H37 C41 1_555 1_555
C42 O15 1_555 1_555
C43 C42 1_555 1_555
C44 C43 1_555 1_555
H38 C44 1_555 1_555
C45 C44 1_555 1_555
H39 C45 1_555 1_555
C46 C45 1_555 1_555
C47 C46 1_555 1_555
H40 C47 1_555 1_555
C48 C43 1_555 1_555
H41 C48 1_555 1_555
C49 O17 1_555 1_555
C50 C49 1_555 1_555
C51 C50 1_555 1_555
H42 C51 1_555 1_555
C52 C51 1_555 1_555
H43 C52 1_555 1_555
C53 C52 1_555 1_555
C54 C53 1_555 1_555
H44 C54 1_555 1_555
C55 C50 1_555 1_555
H45 C55 1_555 1_555
N5 C39 1_555 1_555
C56 H46 1_555 1_555
N6 C57 1_555 1_555
N7 C60 1_555 1_555
O19 C64 1_555 1_555
O20 C64 1_555 1_555
C57 C56 1_555 1_555
H47 C57 1_555 1_555
N8 Zn1 1_555 1_555
C58 N6 1_555 1_555
H48 C58 1_555 1_555
C59 N6 1_555 1_555
H49 C59 1_555 1_555
H50 C59 1_555 1_555
C60 C59 1_555 1_555
H51 C60 1_555 1_555
C61 C60 1_555 1_555
H52 C61 1_555 1_555
H53 C61 1_555 1_555
C62 C61 1_555 1_555
H54 C62 1_555 1_555
H55 C62 1_555 1_555
C63 N7 1_555 1_555
H56 C63 1_555 1_555
H57 C63 1_555 1_555
C64 N7 1_555 1_555
C65 O20 1_555 1_555
C66 C65 1_555 1_555
H58 C66 1_555 1_555
H59 C66 1_555 1_555
H60 C66 1_555 1_555
C67 C65 1_555 1_555
H61 C67 1_555 1_555
H62 C67 1_555 1_555
H63 C67 1_555 1_555
C68 C65 1_555 1_555
H64 C68 1_555 1_555
H65 C68 1_555 1_555
H66 C68 1_555 1_555
Zn1_2 O14 1_555 1_555
Zn2_2 O5 1_555 1_555
Zn4_2 O7 1_555 1_555
O5_2 Zn2 1_555 1_555
O7_2 Zn4 1_555 1_555
O8_2 Zn4 1_555 1_555
O14_2 Zn1 1_555 1_555
O8 Zn4_2 1_555 1_555
O10 C15 1_555 1_555
C6 C7 1_555 1_555
C12 N1 1_555 1_555
C13 C14 1_555 1_555
C19 N1 1_555 1_555
C20 C21 1_555 1_555
C23 C24 1_555 1_555
C28 C29 1_555 1_555
O16 C42 1_555 1_555
O18 C49 1_555 1_555
C40 C41 1_555 1_555
C46 N5 1_555 1_555
C47 C48 1_555 1_555
C53 N5 1_555 1_555
C54 C55 1_555 1_555
C56 N8 1_555 1_555
N8 C58 1_555 1_555
C62 C63 1_555 1_555

#END
