
#######################################################################
#
#                 Cambridge Crystallographic Data Centre
#                                CCDC 
#
#######################################################################
#
# If this CIF has been generated from an entry in the Cambridge 
# Structural Database, then it will include bibliographic, chemical, 
# crystal, experimental, refinement or atomic coordinate data resulting 
# from the CCDC's data processing and validation procedures.
#
#######################################################################

data_YEYHOA
_symmetry_cell_setting           monoclinic
_symmetry_space_group_name_H-M   'P 21/c'
_symmetry_Int_Tables_number      14
_space_group_name_Hall           '-P 2ybc'
loop_
_symmetry_equiv_pos_site_id
_symmetry_equiv_pos_as_xyz
1 x,y,z
2 -x,1/2+y,1/2-z
3 -x,-y,-z
4 x,1/2-y,1/2+z
_cell_length_a                   5.8530(12)
_cell_length_b                   21.587(4)
_cell_length_c                   13.278(3)
_cell_angle_alpha                90
_cell_angle_beta                 99.48(3)
_cell_angle_gamma                90
_cell_volume                     1654.75
loop_
_atom_site_label
_atom_site_type_symbol
_atom_site_fract_x
_atom_site_fract_y
_atom_site_fract_z
Co1 Co 0.5000 0.5000 0.5000
F1 F -0.1962(3) 0.74691(7) 0.33781(13)
O2 O 0.7273(3) 0.49334(6) 0.39703(13)
O4 O 0.8587(4) 0.49909(8) 0.25081(17)
O5 O 0.3365(3) 0.57024(7) 0.40732(12)
N1 N 0.5171(3) 0.65720(8) 0.15665(15)
N2 N -0.0740(3) 0.81431(8) 0.17408(14)
N3 N -0.2557(3) 0.93372(8) 0.09296(15)
H1 H -0.132(3) 0.9545(11) 0.111(2)
C1 C 0.7305(4) 0.51738(10) 0.31034(18)
C2 C 0.5787(4) 0.57278(9) 0.27819(17)
C3 C 0.3966(4) 0.59435(9) 0.32955(16)
C4 C 0.2793(4) 0.65040(9) 0.28696(16)
C5 C 0.0973(4) 0.67497(10) 0.33117(17)
H2 H 0.0506 0.6546 0.3860
C6 C -0.0117(4) 0.72786(10) 0.29546(18)
C7 C 0.0519(4) 0.76241(9) 0.21338(17)
C8 C 0.2319(4) 0.73774(10) 0.16988(18)
H3 H 0.2812 0.7591 0.1165
C9 C 0.3428(4) 0.68188(10) 0.20324(17)
C10 C 0.6247(4) 0.60485(10) 0.19444(18)
H4 H 0.7398 0.5892 0.1609
C11 C -0.1160(5) 0.86511(10) 0.24306(18)
H5 H 0.0261 0.8882 0.2637
H6 H -0.1638 0.8481 0.3039
C12 C -0.3044(4) 0.90854(11) 0.18944(19)
H7 H -0.4500 0.8861 0.1764
H8 H -0.3232 0.9426 0.2349
C13 C -0.2069(5) 0.88196(12) 0.02852(19)
H9 H -0.1629 0.8984 -0.0335
H10 H -0.3477 0.8581 0.0092
C14 C -0.0156(5) 0.83878(12) 0.0795(2)
H11 H 0.0039 0.8049 0.0337
H12 H 0.1296 0.8613 0.0938
C15 C 0.5813(4) 0.68515(12) 0.0633(2)
H13 H 0.7308 0.6690 0.0534
H14 H 0.5968 0.7296 0.0728
C16 C 0.4073(7) 0.67244(18) -0.0311(2)
H15 H 0.3997 0.6287 -0.0439
H16 H 0.4534 0.6934 -0.0883
H17 H 0.2579 0.6872 -0.0212
Co1C Co -0.5000 1.0000 0.0000
Co1C_2 Co 1.5000 0.0000 1.0000
F1B F 1.1962(3) 0.25309(7) 0.66219(13)
O2B O 0.2727(3) 0.50666(6) 0.60297(13)
O4B O 0.1413(4) 0.50091(8) 0.74919(17)
O5B O 0.6635(3) 0.42976(7) 0.59268(12)
N1B N 0.4829(3) 0.34280(8) 0.84335(15)
N2B N 1.0740(3) 0.18569(8) 0.82592(14)
N3B N 1.2557(3) 0.06628(8) 0.90704(15)
N3C N 0.7443(3) 0.56628(8) 0.59296(15)
N3A N 0.2557(3) 0.43372(8) 0.40704(15)
H1B H 1.132(3) 0.0455(11) 0.889(2)
H1C H 0.868(3) 0.5455(11) 0.611(2)
H1A H 0.132(3) 0.4545(11) 0.389(2)
C1B C 0.2695(4) 0.48262(10) 0.68966(18)
C2B C 0.4213(4) 0.42722(9) 0.72181(17)
C3B C 0.6034(4) 0.40565(9) 0.67045(16)
C4B C 0.7207(4) 0.34960(9) 0.71304(16)
C5B C 0.9027(4) 0.32503(10) 0.66883(17)
H2B H 0.9494 0.3454 0.6140
C6B C 1.0117(4) 0.27214(10) 0.70454(18)
C7B C 0.9481(4) 0.23759(9) 0.78662(17)
C8B C 0.7681(4) 0.26226(10) 0.83012(18)
H3B H 0.7188 0.2409 0.8835
C9B C 0.6572(4) 0.31812(10) 0.79676(17)
C10B C 0.3753(4) 0.39515(10) 0.80556(18)
H4B H 0.2602 0.4108 0.8391
C11B C 1.1160(5) 0.13489(10) 0.75694(18)
H5B H 0.9739 0.1118 0.7363
H6B H 1.1638 0.1519 0.6961
C12B C 1.3044(4) 0.09146(11) 0.81056(19)
H7B H 1.4500 0.1139 0.8236
H8B H 1.3232 0.0574 0.7651
C13B C 1.2069(5) 0.11804(12) 0.97148(19)
H9B H 1.1629 0.1016 1.0335
H10B H 1.3477 0.1419 0.9908
C14B C 1.0156(5) 0.16122(12) 0.9205(2)
H11B H 0.9961 0.1951 0.9663
H12B H 0.8704 0.1387 0.9062
C15B C 0.4187(4) 0.31485(12) 0.9367(2)
H13B H 0.2692 0.3310 0.9466
H14B H 0.4032 0.2704 0.9272
C16B C 0.5927(7) 0.32756(18) 1.0311(2)
H15B H 0.6003 0.3713 1.0439
H16B H 0.5466 0.3066 1.0883
H17B H 0.7421 0.3128 1.0212
O1 O 1.0997(10) 0.5341(4) 0.0898(5)
O3? O 0.413(3) 0.5156(4) -0.0457(7)
loop_
_geom_bond_atom_site_label_1
_geom_bond_atom_site_label_2
_geom_bond_site_symmetry_1
_geom_bond_site_symmetry_2
Co1 O2 1_555 1_555
F1 C6 1_555 1_555
O2 C1 1_555 1_555
O4 C1 1_555 1_555
O5 Co1 1_555 1_555
N1 C9 1_555 1_555
N2 C7 1_555 1_555
N3 H1 1_555 1_555
C1 C2 1_555 1_555
C2 C3 1_555 1_555
C3 O5 1_555 1_555
C4 C3 1_555 1_555
C5 C4 1_555 1_555
H2 C5 1_555 1_555
C6 C5 1_555 1_555
C7 C6 1_555 1_555
C8 C7 1_555 1_555
H3 C8 1_555 1_555
C9 C4 1_555 1_555
C10 N1 1_555 1_555
H4 C10 1_555 1_555
C11 N2 1_555 1_555
H5 C11 1_555 1_555
H6 C11 1_555 1_555
C12 N3 1_555 1_555
H7 C12 1_555 1_555
H8 C12 1_555 1_555
C13 N3 1_555 1_555
H9 C13 1_555 1_555
H10 C13 1_555 1_555
C14 N2 1_555 1_555
H11 C14 1_555 1_555
H12 C14 1_555 1_555
C15 N1 1_555 1_555
H13 C15 1_555 1_555
H14 C15 1_555 1_555
C16 C15 1_555 1_555
H15 C16 1_555 1_555
H16 C16 1_555 1_555
H17 C16 1_555 1_555
Co1C N3 1_555 1_555
Co1C_2 N3B 1_555 1_555
F1B C6B 1_555 1_555
O2B Co1 1_555 1_555
O4B C1B 1_555 1_555
O5B Co1 1_555 1_555
N1B C9B 1_555 1_555
N2B C7B 1_555 1_555
N3B H1B 1_555 1_555
N3C Co1 1_555 1_555
N3A Co1 1_555 1_555
H1C N3C 1_555 1_555
H1A N3A 1_555 1_555
C1B O2B 1_555 1_555
C2B C1B 1_555 1_555
C3B O5B 1_555 1_555
C4B C3B 1_555 1_555
C5B C4B 1_555 1_555
H2B C5B 1_555 1_555
C6B C5B 1_555 1_555
C7B C6B 1_555 1_555
C8B C7B 1_555 1_555
H3B C8B 1_555 1_555
C9B C4B 1_555 1_555
C10B N1B 1_555 1_555
H4B C10B 1_555 1_555
C11B N2B 1_555 1_555
H5B C11B 1_555 1_555
H6B C11B 1_555 1_555
C12B N3B 1_555 1_555
H7B C12B 1_555 1_555
H8B C12B 1_555 1_555
C13B N3B 1_555 1_555
H9B C13B 1_555 1_555
H10B C13B 1_555 1_555
C14B N2B 1_555 1_555
H11B C14B 1_555 1_555
H12B C14B 1_555 1_555
C15B N1B 1_555 1_555
H13B C15B 1_555 1_555
H14B C15B 1_555 1_555
C16B C15B 1_555 1_555
H15B C16B 1_555 1_555
H16B C16B 1_555 1_555
H17B C16B 1_555 1_555
C2 C10 1_555 1_555
C8 C9 1_555 1_555
C11 C12 1_555 1_555
C13 C14 1_555 1_555
C2B C3B 1_555 1_555
C2B C10B 1_555 1_555
C8B C9B 1_555 1_555
C11B C12B 1_555 1_555
C13B C14B 1_555 1_555

#END
