
#######################################################################
#
#                 Cambridge Crystallographic Data Centre
#                                CCDC 
#
#######################################################################
#
# If this CIF has been generated from an entry in the Cambridge 
# Structural Database, then it will include bibliographic, chemical, 
# crystal, experimental, refinement or atomic coordinate data resulting 
# from the CCDC's data processing and validation procedures.
#
#######################################################################

data_YEYKAP
_symmetry_cell_setting           monoclinic
_symmetry_space_group_name_H-M   'P 21/n'
_symmetry_Int_Tables_number      14
_space_group_name_Hall           '-P 2yn'
loop_
_symmetry_equiv_pos_site_id
_symmetry_equiv_pos_as_xyz
1 x,y,z
2 1/2-x,1/2+y,1/2-z
3 -x,-y,-z
4 1/2+x,1/2-y,1/2+z
_cell_length_a                   7.2245(9)
_cell_length_b                   11.4470(14)
_cell_length_c                   15.5537(19)
_cell_angle_alpha                90
_cell_angle_beta                 95.9700(10)
_cell_angle_gamma                90
_cell_volume                     1279.3
loop_
_atom_site_label
_atom_site_type_symbol
_atom_site_fract_x
_atom_site_fract_y
_atom_site_fract_z
O1 O -0.0884(2) 0.33982(16) 1.00627(13)
O2 O -0.2913(2) 0.50186(14) 0.96183(10)
O3 O -0.4229(2) 0.31393(14) 0.99320(11)
N1 N -0.2239(3) 0.83990(17) 1.02472(14)
N2 N -0.2131(3) 0.64712(16) 1.11761(13)
N3 N 0.2595(3) 0.2965(2) 1.13597(14)
C1 C -0.1494(3) 0.8553(2) 1.10631(17)
C2 C -0.1160(4) 0.9670(2) 1.1409(2)
H1 H -0.0622 0.9765 1.1974
C3 C -0.1639(5) 1.0623(2) 1.0899(2)
H2 H -0.1423 1.1373 1.1117
Cu1 Cu 0.24863(4) 0.32837(2) 1.011898(17)
C4 C -0.2441(4) 1.0468(3) 1.0064(2)
H3 H -0.2790 1.1108 0.9716
C5 C -0.2718(4) 0.9342(2) 0.9754(2)
H4 H -0.3249 0.9232 0.9189
C6 C -0.0995(4) 0.7454(2) 1.15601(16)
H5 H -0.1221 0.7556 1.2159
H6 H 0.0316 0.7283 1.1543
C7 C -0.1392(3) 0.5335(2) 1.15182(15)
H7 H -0.0195 0.5185 1.1309
H8 H -0.1210 0.5366 1.2145
C8 C 0.1868(4) 0.2886(3) 1.19814(17)
C9 C -0.2733(3) 0.4347(2) 1.12344(15)
H9 H -0.2429 0.3672 1.1599
H10 H -0.3987 0.4589 1.1320
H11 H -0.325(4) 0.655(2) 1.1313(18)
S1 S -0.26736(7) 0.39355(5) 1.01345(4)
S2 S 0.08971(13) 0.27928(13) 1.28808(6)
O2B O 0.2913(2) 0.49814(14) 1.03817(10)
O3_2 O 0.5771(2) 0.31393(14) 0.99320(11)
N1B N 0.2239(3) 0.16010(17) 0.97528(14)
N2B N 0.2131(3) 0.35288(16) 0.88239(13)
Cu1B Cu -0.24863(4) 0.67163(2) 0.988102(17)
Cu1_2 Cu -0.75137(4) 0.32837(2) 1.011898(17)
H11B H 0.325(4) 0.345(2) 0.8687(18)
loop_
_geom_bond_atom_site_label_1
_geom_bond_atom_site_label_2
_geom_bond_site_symmetry_1
_geom_bond_site_symmetry_2
O1 Cu1 1_555 1_555
O2 S1 1_555 1_555
O3 S1 1_555 1_555
N1 C1 1_555 1_555
N2 C6 1_555 1_555
N3 Cu1 1_555 1_555
C1 C2 1_555 1_555
C2 H1 1_555 1_555
C3 C2 1_555 1_555
H2 C3 1_555 1_555
Cu1 O2B 1_555 1_555
C4 C3 1_555 1_555
H3 C4 1_555 1_555
C5 N1 1_555 1_555
H4 C5 1_555 1_555
C6 C1 1_555 1_555
H5 C6 1_555 1_555
H6 C6 1_555 1_555
C7 N2 1_555 1_555
H7 C7 1_555 1_555
H8 C7 1_555 1_555
C8 N3 1_555 1_555
C9 C7 1_555 1_555
H9 C9 1_555 1_555
H10 C9 1_555 1_555
H11 N2 1_555 1_555
S1 O1 1_555 1_555
S2 C8 1_555 1_555
O3_2 Cu1 1_555 1_555
N1B Cu1 1_555 1_555
N2B Cu1 1_555 1_555
Cu1B O2 1_555 1_555
Cu1_2 O3 1_555 1_555
H11B N2B 1_555 1_555
N1 Cu1B 1_555 1_555
N2 Cu1B 1_555 1_555
C4 C5 1_555 1_555
C9 S1 1_555 1_555

#END
