
#######################################################################
#
#                 Cambridge Crystallographic Data Centre
#                                CCDC 
#
#######################################################################
#
# If this CIF has been generated from an entry in the Cambridge 
# Structural Database, then it will include bibliographic, chemical, 
# crystal, experimental, refinement or atomic coordinate data resulting 
# from the CCDC's data processing and validation procedures.
#
#######################################################################

data_YEYKOD
_symmetry_cell_setting           monoclinic
_symmetry_space_group_name_H-M   'P 21/c'
_symmetry_Int_Tables_number      14
_space_group_name_Hall           '-P 2ybc'
loop_
_symmetry_equiv_pos_site_id
_symmetry_equiv_pos_as_xyz
1 x,y,z
2 -x,1/2+y,1/2-z
3 -x,-y,-z
4 x,1/2-y,1/2+z
_cell_length_a                   9.1991(4)
_cell_length_b                   15.7677(7)
_cell_length_c                   10.5419(5)
_cell_angle_alpha                90
_cell_angle_beta                 105.6560(10)
_cell_angle_gamma                90
_cell_volume                     1472.36
loop_
_atom_site_label
_atom_site_type_symbol
_atom_site_fract_x
_atom_site_fract_y
_atom_site_fract_z
Cu1 Cu 0.99330(2) 0.243427(12) 0.528824(18)
O1 O 1.07973(13) 0.34603(7) 0.62504(11)
O2 O 0.95761(15) 0.18285(8) 0.71828(12)
H1 H 1.015(2) 0.1616(15) 0.7860(17)
H2 H 0.910(2) 0.1415(13) 0.677(2)
O3 O 1.14179(14) 0.38834(8) 0.44416(12)
O4 O 0.80783(15) 0.07215(8) 0.53851(13)
O5 O 0.91486(13) 0.14945(7) 0.40891(11)
N1 N 0.78683(15) 0.29696(9) 0.48857(13)
N2 N 0.20288(15) 0.30386(9) 0.05365(13)
C1 C 0.69262(18) 0.29810(10) 0.36602(15)
H3 H 0.7271 0.2773 0.2968
C2 C 0.54565(18) 0.32926(10) 0.33882(16)
C3 C 0.49394(19) 0.35914(11) 0.44361(17)
H4 H 0.3954 0.3786 0.4295
C4 C 0.5928(2) 0.35923(11) 0.56952(17)
H5 H 0.5614 0.3796 0.6406
C5 C 0.73843(18) 0.32876(10) 0.58809(16)
H6 H 0.8047 0.3304 0.6721
C6 C 0.30029(18) 0.30121(10) 0.17474(16)
H7 H 0.2673 0.2787 0.2436
C7 C 0.44801(18) 0.33064(10) 0.20131(16)
C8 C 0.49764(19) 0.36240(11) 0.09667(16)
H8 H 0.5965 0.3811 0.1101
C9 C 0.39668(19) 0.36565(11) -0.02810(17)
H9 H 0.4274 0.3869 -0.0990
C10 C 0.24976(19) 0.33703(11) -0.04621(16)
H10 H 0.1821 0.3409 -0.1293
C11 C 0.84809(18) 0.08297(11) 0.43612(16)
C12 C 0.8192(2) 0.01325(11) 0.33380(17)
H11 H 0.8743 -0.0366 0.3709
H12 H 0.8518 0.0316 0.2590
H13 H 0.7132 0.0006 0.3065
C13 C 1.13762(18) 0.39871(10) 0.56063(16)
C14 C 1.2030(2) 0.47902(12) 0.63293(18)
H14 H 1.3064 0.4849 0.6315
H15 H 1.1978 0.4759 0.7225
H16 H 1.1463 0.5271 0.5905
Cu1C Cu -0.00670(2) 0.256573(12) 0.028824(18)
N2C N 1.20288(15) 0.19614(9) 0.55365(13)
loop_
_geom_bond_atom_site_label_1
_geom_bond_atom_site_label_2
_geom_bond_site_symmetry_1
_geom_bond_site_symmetry_2
Cu1 O1 1_555 1_555
O1 C13 1_555 1_555
O2 Cu1 1_555 1_555
H1 O2 1_555 1_555
H2 O2 1_555 1_555
O3 C13 1_555 1_555
O4 C11 1_555 1_555
O5 Cu1 1_555 1_555
N1 Cu1 1_555 1_555
N2 C6 1_555 1_555
C1 N1 1_555 1_555
H3 C1 1_555 1_555
C2 C1 1_555 1_555
C3 C2 1_555 1_555
H4 C3 1_555 1_555
C4 C3 1_555 1_555
H5 C4 1_555 1_555
C5 N1 1_555 1_555
H6 C5 1_555 1_555
C6 H7 1_555 1_555
C7 C2 1_555 1_555
C8 C7 1_555 1_555
H8 C8 1_555 1_555
C9 C8 1_555 1_555
H9 C9 1_555 1_555
C10 N2 1_555 1_555
H10 C10 1_555 1_555
C11 O5 1_555 1_555
C12 C11 1_555 1_555
H11 C12 1_555 1_555
H12 C12 1_555 1_555
H13 C12 1_555 1_555
C13 C14 1_555 1_555
C14 H14 1_555 1_555
H15 C14 1_555 1_555
H16 C14 1_555 1_555
Cu1C N2 1_555 1_555
N2C Cu1 1_555 1_555
C4 C5 1_555 1_555
C6 C7 1_555 1_555
C9 C10 1_555 1_555

#END
