
#######################################################################
#
#                 Cambridge Crystallographic Data Centre
#                                CCDC 
#
#######################################################################
#
# If this CIF has been generated from an entry in the Cambridge 
# Structural Database, then it will include bibliographic, chemical, 
# crystal, experimental, refinement or atomic coordinate data resulting 
# from the CCDC's data processing and validation procedures.
#
#######################################################################

data_YEYLUJ
_symmetry_cell_setting           orthorhombic
_symmetry_space_group_name_H-M   'P b c a'
_symmetry_Int_Tables_number      61
_space_group_name_Hall           '-P 2ac 2ab'
loop_
_symmetry_equiv_pos_site_id
_symmetry_equiv_pos_as_xyz
1 x,y,z
2 1/2-x,-y,1/2+z
3 1/2+x,1/2-y,-z
4 -x,1/2+y,1/2-z
5 -x,-y,-z
6 1/2+x,y,1/2-z
7 1/2-x,1/2+y,z
8 x,1/2-y,1/2+z
_cell_length_a                   16.119(2)
_cell_length_b                   20.898(3)
_cell_length_c                   13.325(2)
_cell_angle_alpha                90
_cell_angle_beta                 90
_cell_angle_gamma                90
_cell_volume                     4488.59
loop_
_atom_site_label
_atom_site_type_symbol
_atom_site_fract_x
_atom_site_fract_y
_atom_site_fract_z
Ag1 Ag 0.50439(4) 0.23614(2) 0.56377(5)
N1 N 0.4090(4) 0.2468(3) 0.4287(5)
C1 C 0.4100(5) 0.2951(4) 0.3639(7)
C2 C 0.3547(5) 0.2004(4) 0.4107(7)
C3 C 0.3600(5) 0.2981(3) 0.2812(6)
C4 C 0.3033(5) 0.1996(4) 0.3289(7)
C5 C 0.3048(4) 0.2491(3) 0.2621(6)
C6 C 0.2504(4) 0.2496(3) 0.1727(6)
C7 C 0.2269(5) 0.1929(3) 0.1244(6)
C8 C 0.2168(5) 0.3054(3) 0.1327(6)
C9 C 0.1732(5) 0.1947(4) 0.0452(6)
C10 C 0.1623(5) 0.3026(3) 0.0550(7)
N2 N 0.1382(4) 0.2482(3) 0.0103(5)
N3 N 0.5167(4) 0.1335(3) 0.6188(5)
C11 C 0.5661(6) 0.1181(4) 0.6921(7)
C12 C 0.4696(6) 0.0869(4) 0.5860(7)
C13 C 0.5705(6) 0.0589(4) 0.7364(7)
C14 C 0.4693(5) 0.0260(4) 0.6268(7)
C15 C 0.5207(4) 0.0106(3) 0.7037(5)
C16 C 0.5204(4) -0.0544(3) 0.7501(6)
C17 C 0.5688(5) -0.0688(4) 0.8302(7)
C18 C 0.4713(5) -0.1026(4) 0.7149(6)
C19 C 0.5633(5) -0.1275(4) 0.8746(7)
C20 C 0.4695(5) -0.1604(4) 0.7632(7)
N4 N 0.5136(4) -0.1739(3) 0.8440(5)
H1 H 0.4468(5) 0.3286(4) 0.3754(7)
H2 H 0.3513(5) 0.1667(4) 0.4561(7)
H3 H 0.3631(5) 0.3330(3) 0.2381(6)
H4 H 0.2675(5) 0.1653(4) 0.3188(7)
H5 H 0.2479(5) 0.1539(3) 0.1464(6)
H6 H 0.2318(5) 0.3449(3) 0.1593(6)
H7 H 0.1602(5) 0.1563(4) 0.0136(6)
H8 H 0.1403(5) 0.3409(3) 0.0313(7)
H9 H 0.6013(6) 0.1498(4) 0.7164(7)
H10 H 0.4343(6) 0.0952(4) 0.5323(7)
H11 H 0.6076(6) 0.0517(4) 0.7888(7)
H12 H 0.4334(5) -0.0048(4) 0.6011(7)
H13 H 0.6058(5) -0.0386(4) 0.8550(7)
H14 H 0.4389(5) -0.0961(4) 0.6580(6)
H15 H 0.5967(5) -0.1354(4) 0.9302(7)
H16 H 0.4350(5) -0.1921(4) 0.7375(7)
N2E N 0.6382(4) 0.2482(3) 0.4897(5)
N4C N 0.4864(4) 0.3261(3) 0.6560(5)
Ag1E Ag 0.00439(4) 0.23614(2) -0.06377(5)
Ag1C Ag 0.49561(4) -0.26386(2) 0.93623(5)
S1 S 0.7481(2) -0.01023(10) 0.5064(2)
O1 O 0.8048(5) -0.0442(3) 0.4474(6)
O2 O 0.6867(5) -0.0491(4) 0.5487(6)
O3 O 0.7252(6) 0.0478(3) 0.4653(7)
C21 C 0.8093(10) 0.0119(8) 0.6138(12)
F1 F 0.8751(5) 0.0429(5) 0.5897(6)
F2 F 0.7679(7) 0.0488(6) 0.6736(7)
F3 F 0.8285(5) -0.0371(5) 0.6658(7)
loop_
_geom_bond_atom_site_label_1
_geom_bond_atom_site_label_2
_geom_bond_site_symmetry_1
_geom_bond_site_symmetry_2
Ag1 N1 1_555 1_555
N1 C1 1_555 1_555
C1 C3 1_555 1_555
C2 N1 1_555 1_555
C3 C5 1_555 1_555
C4 C2 1_555 1_555
C5 C4 1_555 1_555
C6 C5 1_555 1_555
C7 C6 1_555 1_555
C8 C6 1_555 1_555
C9 C7 1_555 1_555
C10 C8 1_555 1_555
N2 C9 1_555 1_555
N3 Ag1 1_555 1_555
C11 N3 1_555 1_555
C12 N3 1_555 1_555
C13 C11 1_555 1_555
C14 C12 1_555 1_555
C15 C13 1_555 1_555
C16 C15 1_555 1_555
C17 C16 1_555 1_555
C18 C16 1_555 1_555
C19 C17 1_555 1_555
C20 C18 1_555 1_555
N4 C19 1_555 1_555
S1 O1 1_555 1_555
O2 S1 1_555 1_555
O3 S1 1_555 1_555
C21 S1 1_555 1_555
F1 C21 1_555 1_555
F2 C21 1_555 1_555
F3 C21 1_555 1_555
H1 C1 1_555 1_555
H2 C2 1_555 1_555
H3 C3 1_555 1_555
H4 C4 1_555 1_555
H5 C7 1_555 1_555
H6 C8 1_555 1_555
H7 C9 1_555 1_555
H8 C10 1_555 1_555
H9 C11 1_555 1_555
H10 C12 1_555 1_555
H11 C13 1_555 1_555
H12 C14 1_555 1_555
H13 C17 1_555 1_555
H14 C18 1_555 1_555
H15 C19 1_555 1_555
H16 C20 1_555 1_555
N2E Ag1 1_555 1_555
N4C Ag1 1_555 1_555
Ag1E N2 1_555 1_555
Ag1C N4 1_555 1_555
C10 N2 1_555 1_555
C14 C15 1_555 1_555
C20 N4 1_555 1_555

#END
