
#######################################################################
#
#                 Cambridge Crystallographic Data Centre
#                                CCDC 
#
#######################################################################
#
# If this CIF has been generated from an entry in the Cambridge 
# Structural Database, then it will include bibliographic, chemical, 
# crystal, experimental, refinement or atomic coordinate data resulting 
# from the CCDC's data processing and validation procedures.
#
#######################################################################

data_YEYMIY
_symmetry_cell_setting           orthorhombic
_symmetry_space_group_name_H-M   'C m 2 m'
_symmetry_Int_Tables_number      38
_space_group_name_Hall           'C -2 -2'
loop_
_symmetry_equiv_pos_site_id
_symmetry_equiv_pos_as_xyz
1 x,y,z
2 x,y,-z
3 -x,y,z
4 -x,y,-z
5 1/2+x,1/2+y,z
6 1/2+x,1/2+y,-z
7 1/2-x,1/2+y,z
8 1/2-x,1/2+y,-z
_cell_length_a                   5.230(1)
_cell_length_b                   8.431(1)
_cell_length_c                   17.400(2)
_cell_angle_alpha                90
_cell_angle_beta                 90
_cell_angle_gamma                90
_cell_volume                     767.238
loop_
_atom_site_label
_atom_site_type_symbol
_atom_site_fract_x
_atom_site_fract_y
_atom_site_fract_z
Ti1 Ti 0.000 0.007(3) 0.249(1)
P1 P 0.500 0.147(2) 0.337(1)
P2 P 0.500 -0.149(2) 0.158(1)
O1 O 0.275(3) 0.043(3) 0.324(1)
O2 O 0.500 0.290(4) 0.285(3)
O3 O 0.255(4) -0.055(3) 0.163(1)
O4 O 0.500 -0.280(4) 0.217(2)
C1 C 0.500 0.233(2) 0.431(1)
C2 C 0.500 0.118(3) 0.500
C3 C 0.500 -0.261(2) 0.069(1)
C4 C 0.500 -0.153(3) 0.000
O1B O 0.725(3) 0.043(3) 0.324(1)
C1A C 0.500 0.233(2) 0.569(1)
P1A P 0.500 0.147(2) 0.663(1)
O1A O 0.275(3) 0.043(3) 0.676(1)
O1C O 0.725(3) 0.043(3) 0.676(1)
O2A O 0.500 0.290(4) 0.715(3)
O3B O 0.745(4) -0.055(3) 0.163(1)
C3A C 0.500 -0.261(2) -0.069(1)
P2A P 0.500 -0.149(2) -0.158(1)
O3A O 0.255(4) -0.055(3) -0.163(1)
O3C O 0.745(4) -0.055(3) -0.163(1)
O4A O 0.500 -0.280(4) -0.217(2)
Ti1B Ti 1.000 0.007(3) 0.249(1)
O1B_2 O -0.275(3) 0.043(3) 0.324(1)
O2D O 0.000 -0.210(4) 0.285(3)
O3B_2 O -0.255(4) -0.055(3) 0.163(1)
O4D O 0.000 0.220(4) 0.217(2)
Ti1D Ti 0.500 0.507(3) 0.249(1)
Ti1D_2 Ti 0.500 -0.493(3) 0.249(1)
Ti1A Ti 0.000 0.007(3) 0.751(1)
Ti1A_2 Ti 1.000 0.007(3) 0.751(1)
Ti1E Ti 0.500 0.507(3) 0.751(1)
Ti1A_3 Ti 0.000 0.007(3) -0.249(1)
Ti1A_4 Ti 1.000 0.007(3) -0.249(1)
Ti1E_2 Ti 0.500 -0.493(3) -0.249(1)
O1_2 O 1.275(3) 0.043(3) 0.324(1)
O2D_2 O 1.000 -0.210(4) 0.285(3)
O3_2 O 1.255(4) -0.055(3) 0.163(1)
O4D_2 O 1.000 0.220(4) 0.217(2)
loop_
_geom_bond_atom_site_label_1
_geom_bond_atom_site_label_2
_geom_bond_site_symmetry_1
_geom_bond_site_symmetry_2
Ti1 O1 1_555 1_555
P1 O1 1_555 1_555
P2 O3 1_555 1_555
O2 P1 1_555 1_555
O3 Ti1 1_555 1_555
O4 P2 1_555 1_555
C1 P1 1_555 1_555
C2 C1 1_555 1_555
C3 P2 1_555 1_555
C4 C3 1_555 1_555
O1B P1 1_555 1_555
C1A C2 1_555 1_555
P1A C1A 1_555 1_555
O1A P1A 1_555 1_555
O1C P1A 1_555 1_555
O2A P1A 1_555 1_555
O3B P2 1_555 1_555
C3A C4 1_555 1_555
P2A C3A 1_555 1_555
O3A P2A 1_555 1_555
O3C P2A 1_555 1_555
O4A P2A 1_555 1_555
Ti1B O1B 1_555 1_555
O1B_2 Ti1 1_555 1_555
O2D Ti1 1_555 1_555
O3B_2 Ti1 1_555 1_555
O4D Ti1 1_555 1_555
Ti1D O2 1_555 1_555
Ti1D_2 O4 1_555 1_555
Ti1A O1A 1_555 1_555
Ti1A_2 O1C 1_555 1_555
Ti1E O2A 1_555 1_555
Ti1A_3 O3A 1_555 1_555
Ti1A_4 O3C 1_555 1_555
Ti1E_2 O4A 1_555 1_555
O1_2 Ti1B 1_555 1_555
O2D_2 Ti1B 1_555 1_555
O3_2 Ti1B 1_555 1_555
O4D_2 Ti1B 1_555 1_555
O3B Ti1B 1_555 1_555

#END
