
#######################################################################
#
#                 Cambridge Crystallographic Data Centre
#                                CCDC 
#
#######################################################################
#
# If this CIF has been generated from an entry in the Cambridge 
# Structural Database, then it will include bibliographic, chemical, 
# crystal, experimental, refinement or atomic coordinate data resulting 
# from the CCDC's data processing and validation procedures.
#
#######################################################################

data_YEYVII
_symmetry_cell_setting           cubic
_symmetry_space_group_name_H-M   'I -4 3 d'
_symmetry_Int_Tables_number      220
_space_group_name_Hall           'I -4bd 2c 3'
loop_
_symmetry_equiv_pos_site_id
_symmetry_equiv_pos_as_xyz
1 x,y,z
2 1/2-x,-y,1/2+z
3 -x,1/2+y,1/2-z
4 1/2+x,1/2-y,-z
5 z,x,y
6 1/2+z,1/2-x,-y
7 1/2-z,-x,1/2+y
8 -z,1/2+x,1/2-y
9 y,z,x
10 -y,1/2+z,1/2-x
11 1/2+y,1/2-z,-x
12 1/2-y,-z,1/2+x
13 1/4+y,1/4+x,1/4+z
14 1/4-y,3/4-x,3/4+z
15 3/4+y,1/4-x,3/4-z
16 3/4-y,3/4+x,1/4-z
17 1/4+x,1/4+z,1/4+y
18 3/4-x,3/4+z,1/4-y
19 1/4-x,3/4-z,3/4+y
20 3/4+x,1/4-z,3/4-y
21 1/4+z,1/4+y,1/4+x
22 3/4+z,1/4-y,3/4-x
23 3/4-z,3/4+y,1/4-x
24 1/4-z,3/4-y,3/4+x
25 1/2+x,1/2+y,1/2+z
26 -x,1/2-y,z
27 1/2-x,y,-z
28 x,-y,1/2-z
29 1/2+z,1/2+x,1/2+y
30 z,-x,1/2-y
31 -z,1/2-x,y
32 1/2-z,x,-y
33 1/2+y,1/2+z,1/2+x
34 1/2-y,z,-x
35 y,-z,1/2-x
36 -y,1/2-z,x
37 3/4+y,3/4+x,3/4+z
38 3/4-y,1/4-x,1/4+z
39 1/4+y,3/4-x,1/4-z
40 1/4-y,1/4+x,3/4-z
41 3/4+x,3/4+z,3/4+y
42 1/4-x,1/4+z,3/4-y
43 3/4-x,1/4-z,1/4+y
44 1/4+x,3/4-z,1/4-y
45 3/4+z,3/4+y,3/4+x
46 1/4+z,3/4-y,1/4-x
47 1/4-z,1/4+y,3/4-x
48 3/4-z,1/4-y,1/4+x
_cell_length_a                   27.2326(15)
_cell_length_b                   27.2326(15)
_cell_length_c                   27.2326(15)
_cell_angle_alpha                90
_cell_angle_beta                 90
_cell_angle_gamma                90
_cell_volume                     20196.1
loop_
_atom_site_label
_atom_site_type_symbol
_atom_site_fract_x
_atom_site_fract_y
_atom_site_fract_z
Ag1 Ag 0.43016(3) 0.97452(4) 0.01033(3)
Ag2 Ag 0.22598(3) 1.14060(3) 0.23274(3)
N1 N 0.4179(4) 1.0271(3) 0.0612(3)
N2 N 0.4501(3) 1.0654(3) 0.0700(4)
N3 N 0.2778(3) 1.1359(4) 0.1799(3)
N4 N 0.2812(4) 1.1690(4) 0.1411(4)
C1 C 0.3311(4) 1.0056(5) 0.0820(5)
H1 H 0.3395 0.9765 0.0633
H2 H 0.3034 1.0220 0.0667
H3 H 0.3226 0.9963 0.1153
C2 C 0.3751(4) 1.0404(4) 0.0830(4)
C3 C 0.3797(5) 1.0854(4) 0.1064(4)
C4 C 0.4271(5) 1.0993(5) 0.0959(4)
C5 C 0.4523(5) 1.1464(5) 0.1093(5)
H4 H 0.4858 1.1459 0.0970
H5 H 0.4528 1.1500 0.1447
H6 H 0.4348 1.1738 0.0948
C6 C 0.3198(5) 1.0605(4) 0.2080(4)
H7 H 0.2964 1.0648 0.2346
H8 H 0.3528 1.0598 0.2213
H9 H 0.3130 1.0299 0.1911
C7 C 0.3152(4) 1.1023(4) 0.1728(4)
C8 C 0.3396(4) 1.1139(5) 0.1300(5)
C9 C 0.3172(5) 1.1561(5) 0.1133(6)
C10 C 0.3279(5) 1.1841(5) 0.0679(5)
H10 H 0.3059 1.2121 0.0658
H11 H 0.3231 1.1631 0.0396
H12 H 0.3616 1.1955 0.0686
Ag1E Ag 0.51033(3) 1.06984(3) 0.02548(4)
Ag2D Ag 0.23274(3) 1.22598(3) 0.14060(3)
N2K N 0.4346(3) 0.9300(4) -0.0499(3)
N4H N 0.1690(4) 1.1411(4) 0.2812(4)
loop_
_geom_bond_atom_site_label_1
_geom_bond_atom_site_label_2
_geom_bond_site_symmetry_1
_geom_bond_site_symmetry_2
Ag1 N1 1_555 1_555
Ag2 N3 1_555 1_555
N1 N2 1_555 1_555
N2 C4 1_555 1_555
N3 N4 1_555 1_555
N4 C9 1_555 1_555
C1 H1 1_555 1_555
H2 C1 1_555 1_555
H3 C1 1_555 1_555
C2 N1 1_555 1_555
C3 C2 1_555 1_555
C4 C3 1_555 1_555
C5 C4 1_555 1_555
H4 C5 1_555 1_555
H5 C5 1_555 1_555
H6 C5 1_555 1_555
C6 H7 1_555 1_555
H8 C6 1_555 1_555
H9 C6 1_555 1_555
C7 N3 1_555 1_555
C8 C3 1_555 1_555
C9 C8 1_555 1_555
C10 C9 1_555 1_555
H10 C10 1_555 1_555
H11 C10 1_555 1_555
H12 C10 1_555 1_555
Ag1E N2 1_555 1_555
Ag2D N4 1_555 1_555
N2K Ag1 1_555 1_555
N4H Ag2 1_555 1_555
C1 C2 1_555 1_555
C6 C7 1_555 1_555
C7 C8 1_555 1_555

#END
