
#######################################################################
#
#                 Cambridge Crystallographic Data Centre
#                                CCDC 
#
#######################################################################
#
# If this CIF has been generated from an entry in the Cambridge 
# Structural Database, then it will include bibliographic, chemical, 
# crystal, experimental, refinement or atomic coordinate data resulting 
# from the CCDC's data processing and validation procedures.
#
#######################################################################

data_YEZDOX
_symmetry_cell_setting           orthorhombic
_symmetry_space_group_name_H-M   'P 21 21 2'
_symmetry_Int_Tables_number      18
_space_group_name_Hall           'P 2 2ab'
loop_
_symmetry_equiv_pos_site_id
_symmetry_equiv_pos_as_xyz
1 x,y,z
2 -x,-y,z
3 1/2-x,1/2+y,-z
4 1/2+x,1/2-y,-z
_cell_length_a                   13.582(2)
_cell_length_b                   13.9512(19)
_cell_length_c                   10.6531(16)
_cell_angle_alpha                90
_cell_angle_beta                 90
_cell_angle_gamma                90
_cell_volume                     2018.6
loop_
_atom_site_label
_atom_site_type_symbol
_atom_site_fract_x
_atom_site_fract_y
_atom_site_fract_z
Co1 Co 0.5000 0.0000 0.98527(16)
N6 N 0.4654(7) 0.1000(7) 1.1270(8)
N7 N 0.6164(6) 0.0836(6) 0.9862(8)
N8 N 0.5902(8) -0.0628(6) 0.8438(8)
C6 C 0.3838(9) 0.1043(10) 1.1967(12)
H1 H 0.3333 0.0609 1.1808
C7 C 0.3710(15) 0.1728(13) 1.2945(13)
H2 H 0.3130 0.1746 1.3409
C8 C 0.4457(15) 0.2359(11) 1.3190(13)
H3 H 0.4403 0.2812 1.3827
C9 C 0.5281(13) 0.2301(9) 1.2467(11)
H4 H 0.5787 0.2734 1.2620
C10 C 0.5410(8) 0.1629(7) 1.1510(10)
C11 C 0.6267(9) 0.1539(7) 1.0726(10)
C12 C 0.7102(11) 0.2089(8) 1.0745(13)
H5 H 0.7152 0.2592 1.1314
C13 C 0.7852(11) 0.1911(10) 0.9945(17)
H6 H 0.8428 0.2268 1.0001
C14 C 0.7773(11) 0.1224(10) 0.9077(14)
H7 H 0.8276 0.1120 0.8501
C15 C 0.6913(9) 0.0662(9) 0.9051(11)
C16 C 0.6715(9) -0.0155(8) 0.8182(10)
C17 C 0.7330(11) -0.0391(10) 0.7165(12)
H8 H 0.7882 -0.0023 0.6979
C18 C 0.7095(12) -0.1178(12) 0.6457(12)
H9 H 0.7505 -0.1376 0.5808
C19 C 0.6262(13) -0.1660(11) 0.6713(12)
H10 H 0.6080 -0.2180 0.6219
C20 C 0.5667(10) -0.1381(9) 0.7725(10)
H11 H 0.5098 -0.1727 0.7903
N6A N 0.5346(7) -0.1000(7) 1.1270(8)
N7A N 0.3836(6) -0.0836(6) 0.9862(8)
N8A N 0.4098(8) 0.0628(6) 0.8438(8)
C6A C 0.6162(9) -0.1043(10) 1.1967(12)
H1A H 0.6667 -0.0609 1.1808
C7A C 0.6290(15) -0.1728(13) 1.2945(13)
H2A H 0.6870 -0.1746 1.3409
C8A C 0.5543(15) -0.2359(11) 1.3190(13)
H3A H 0.5597 -0.2812 1.3827
C9A C 0.4719(13) -0.2301(9) 1.2467(11)
H4A H 0.4213 -0.2734 1.2620
C10A C 0.4590(8) -0.1629(7) 1.1510(10)
C11A C 0.3733(9) -0.1539(7) 1.0726(10)
C12A C 0.2898(11) -0.2089(8) 1.0745(13)
H5A H 0.2848 -0.2592 1.1314
C13A C 0.2148(11) -0.1911(10) 0.9945(17)
H6A H 0.1572 -0.2268 1.0001
C14A C 0.2227(11) -0.1224(10) 0.9077(14)
H7A H 0.1724 -0.1120 0.8501
C15A C 0.3087(9) -0.0662(9) 0.9051(11)
C16A C 0.3285(9) 0.0155(8) 0.8182(10)
C17A C 0.2670(11) 0.0391(10) 0.7165(12)
H8A H 0.2118 0.0023 0.6979
C18A C 0.2905(12) 0.1178(12) 0.6457(12)
H9A H 0.2495 0.1376 0.5808
C19A C 0.3738(13) 0.1660(11) 0.6713(12)
H10A H 0.3920 0.2180 0.6219
C20A C 0.4333(10) 0.1381(9) 0.7725(10)
H11A H 0.4902 0.1727 0.7903
Cu1 Cu 0.63574(13) 1.11682(13) 0.4737(2)
Cu2 Cu 0.8983(2) 0.8665(2) 0.2138(2)
Cu3 Cu 1.0000 1.0000 -0.1727(2)
Cu4 Cu 1.0000 1.0000 -0.6257(2)
N2 N 0.8753(11) 0.7848(12) 0.3567(14)
N3 N 0.9336(18) 0.9155(11) -0.0527(19)
N4 N 1.0000 1.0000 -0.4503(15)
N5 N 0.7586(10) 1.0857(12) 0.3908(15)
S1 S 0.9047(7) 1.0530(5) 0.2417(6)
C1 C 0.5333(8) 1.0270(7) 0.4648(13)
C2 C 0.8700(11) 0.7278(11) 0.4320(15)
C3 C 0.912(2) 0.8920(13) 0.046(2)
C4 C 1.0000 1.0000 -0.3433(19)
C5 C 0.8216(12) 1.0651(12) 0.3471(13)
Cu1_2 Cu 0.63574(13) 1.11682(13) -0.5263(2)
Cu1B Cu 0.86426(13) 0.61682(13) 0.5263(2)
Cu1A Cu 0.36426(13) 0.88318(13) 0.4737(2)
Cu1C Cu 1.13574(13) 1.38318(13) 0.5263(2)
Cu2A Cu 1.1017(2) 1.1335(2) 0.2138(2)
Cu2_2 Cu 0.8983(2) 0.8665(2) -0.7862(2)
Cu4_2 Cu 1.0000 1.0000 0.3743(2)
N2A N 1.1247(11) 1.2152(12) 0.3567(14)
N3A N 1.0664(18) 1.0845(11) -0.0527(19)
N5_2 N 0.7586(10) 1.0857(12) -0.6092(15)
S1_2 S 0.9047(7) 1.0530(5) -0.7583(6)
S1A S 1.0953(7) 0.9470(5) -0.7583(6)
S1A_2 S 1.0953(7) 0.9470(5) 0.2417(6)
C1A C 0.4667(8) 0.9730(7) 0.4648(13)
C1_2 C 0.5333(8) 1.0270(7) -0.5352(13)
C2A C 1.1300(11) 1.2722(11) 0.4320(15)
C2B C 0.6300(11) 1.2278(11) 0.5680(15)
C2B_2 C 0.6300(11) 1.2278(11) -0.4320(15)
C3A C 1.088(2) 1.1080(13) 0.046(2)
C5_2 C 0.8216(12) 1.0651(12) -0.6529(13)
N1? N 0.9667(8) 0.5270(7) 0.5352(13)
loop_
_geom_bond_atom_site_label_1
_geom_bond_atom_site_label_2
_geom_bond_site_symmetry_1
_geom_bond_site_symmetry_2
Cu1 N5 1_555 1_555
Cu2 N2 1_555 1_555
Cu3 N3 1_555 1_555
Cu4 N4 1_555 1_555
Co1 N6 1_555 1_555
N2 C2 1_555 1_555
N3 C3 1_555 1_555
N4 C4 1_555 1_555
N5 C5 1_555 1_555
N6 C6 1_555 1_555
N7 Co1 1_555 1_555
N8 Co1 1_555 1_555
S1 Cu2 1_555 1_555
C1 Cu1 1_555 1_555
C2 Cu1B 1_555 1_555
C3 Cu2 1_555 1_555
C4 Cu3 1_555 1_555
C5 S1 1_555 1_555
C6 H1 1_555 1_555
C7 C6 1_555 1_555
H2 C7 1_555 1_555
C8 C7 1_555 1_555
H3 C8 1_555 1_555
C9 C8 1_555 1_555
H4 C9 1_555 1_555
C10 N6 1_555 1_555
C11 N7 1_555 1_555
C12 C11 1_555 1_555
H5 C12 1_555 1_555
C13 C12 1_555 1_555
H6 C13 1_555 1_555
C14 C13 1_555 1_555
H7 C14 1_555 1_555
C15 N7 1_555 1_555
C16 N8 1_555 1_555
C17 C16 1_555 1_555
H8 C17 1_555 1_555
C18 C17 1_555 1_555
H9 C18 1_555 1_555
C19 C18 1_555 1_555
H10 C19 1_555 1_555
C20 N8 1_555 1_555
H11 C20 1_555 1_555
Cu1_2 N5_2 1_555 1_555
Cu1A C1A 1_555 1_555
Cu1C C2A 1_555 1_555
Cu2A N2A 1_555 1_555
Cu2_2 S1_2 1_555 1_555
Cu4_2 S1 1_555 1_555
N2A C2A 1_555 1_555
N3A Cu3 1_555 1_555
N5_2 C5_2 1_555 1_555
N6A Co1 1_555 1_555
N7A Co1 1_555 1_555
N8A Co1 1_555 1_555
S1_2 Cu4 1_555 1_555
S1A Cu4 1_555 1_555
S1A_2 Cu2A 1_555 1_555
C1A C1 1_555 1_555
C1_2 Cu1_2 1_555 1_555
C2B Cu1 1_555 1_555
C2B_2 Cu1_2 1_555 1_555
C3A Cu2A 1_555 1_555
C5_2 S1_2 1_555 1_555
C6A N6A 1_555 1_555
H1A C6A 1_555 1_555
C7A C6A 1_555 1_555
H2A C7A 1_555 1_555
C8A C7A 1_555 1_555
H3A C8A 1_555 1_555
C9A C8A 1_555 1_555
H4A C9A 1_555 1_555
C10A N6A 1_555 1_555
C11A N7A 1_555 1_555
C12A C11A 1_555 1_555
H5A C12A 1_555 1_555
C13A C12A 1_555 1_555
H6A C13A 1_555 1_555
C14A C13A 1_555 1_555
H7A C14A 1_555 1_555
C15A N7A 1_555 1_555
C16A N8A 1_555 1_555
C17A C16A 1_555 1_555
H8A C17A 1_555 1_555
C18A C17A 1_555 1_555
H9A C18A 1_555 1_555
C19A C18A 1_555 1_555
H10A C19A 1_555 1_555
C20A N8A 1_555 1_555
H11A C20A 1_555 1_555
C9 C10 1_555 1_555
C10 C11 1_555 1_555
C14 C15 1_555 1_555
C15 C16 1_555 1_555
C19 C20 1_555 1_555
Cu4_2 S1A_2 1_555 1_555
N3A C3A 1_555 1_555
C9A C10A 1_555 1_555
C10A C11A 1_555 1_555
C14A C15A 1_555 1_555
C15A C16A 1_555 1_555
C19A C20A 1_555 1_555

#END
