
#######################################################################
#
#                 Cambridge Crystallographic Data Centre
#                                CCDC 
#
#######################################################################
#
# If this CIF has been generated from an entry in the Cambridge 
# Structural Database, then it will include bibliographic, chemical, 
# crystal, experimental, refinement or atomic coordinate data resulting 
# from the CCDC's data processing and validation procedures.
#
#######################################################################

data_YEZDIR
_symmetry_cell_setting           orthorhombic
_symmetry_space_group_name_H-M   'P 21 21 2'
_symmetry_Int_Tables_number      18
_space_group_name_Hall           'P 2 2ab'
loop_
_symmetry_equiv_pos_site_id
_symmetry_equiv_pos_as_xyz
1 x,y,z
2 -x,-y,z
3 1/2-x,1/2+y,-z
4 1/2+x,1/2-y,-z
_cell_length_a                   13.535(3)
_cell_length_b                   14.232(3)
_cell_length_c                   10.638(2)
_cell_angle_alpha                90
_cell_angle_beta                 90
_cell_angle_gamma                90
_cell_volume                     2049.2
loop_
_atom_site_label
_atom_site_type_symbol
_atom_site_fract_x
_atom_site_fract_y
_atom_site_fract_z
N6 N 1.0334(5) 0.0978(5) 1.1278(7)
N7 N 0.8800(5) 0.0829(5) 0.9828(7)
N8 N 0.9111(5) -0.0643(6) 0.8452(7)
Ni1 Ni 1.0000 0.0000 0.98426(14)
C6 C 1.1138(7) 0.1009(8) 1.1980(10)
H1 H 1.1651 0.0593 1.1806
C7 C 1.1247(9) 0.1634(10) 1.2963(11)
H2 H 1.1819 0.1634 1.3448
C8 C 1.0483(10) 0.2269(9) 1.3217(11)
H3 H 1.0524 0.2698 1.3875
C9 C 0.9687(9) 0.2229(8) 1.2465(11)
H4 H 0.9171 0.2647 1.2612
C10 C 0.9594(7) 0.1597(7) 1.1480(9)
C11 C 0.8739(6) 0.1529(6) 1.0678(8)
C12 C 0.7900(8) 0.2102(8) 1.0660(12)
H5 H 0.7835 0.2591 1.1234
C13 C 0.7182(7) 0.1938(8) 0.9798(12)
H6 H 0.6625 0.2321 0.9780
C14 C 0.7263(7) 0.1236(8) 0.8976(11)
H7 H 0.6762 0.1134 0.8394
C15 C 0.8082(6) 0.0658(7) 0.8978(9)
C16 C 0.8285(6) -0.0177(7) 0.8162(8)
C17 C 0.7655(7) -0.0436(9) 0.7192(11)
H8 H 0.7094 -0.0086 0.7003
C18 C 0.7888(9) -0.1214(10) 0.6536(10)
H9 H 0.7476 -0.1403 0.5883
C19 C 0.8726(10) -0.1747(9) 0.6803(11)
H10 H 0.8879 -0.2292 0.6362
C20 C 0.9334(7) -0.1403(7) 0.7795(9)
H11 H 0.9911 -0.1726 0.7989
N6A N 0.9666(5) -0.0978(5) 1.1278(7)
N7A N 1.1200(5) -0.0829(5) 0.9828(7)
N8A N 1.0889(5) 0.0643(6) 0.8452(7)
C6A C 0.8862(7) -0.1009(8) 1.1980(10)
H1A H 0.8349 -0.0593 1.1806
C7A C 0.8753(9) -0.1634(10) 1.2963(11)
H2A H 0.8181 -0.1634 1.3448
C8A C 0.9517(10) -0.2269(9) 1.3217(11)
H3A H 0.9476 -0.2698 1.3875
C9A C 1.0313(9) -0.2229(8) 1.2465(11)
H4A H 1.0829 -0.2647 1.2612
C10A C 1.0406(7) -0.1597(7) 1.1480(9)
C11A C 1.1261(6) -0.1529(6) 1.0678(8)
C12A C 1.2100(8) -0.2102(8) 1.0660(12)
H5A H 1.2165 -0.2591 1.1234
C13A C 1.2818(7) -0.1938(8) 0.9798(12)
H6A H 1.3375 -0.2321 0.9780
C14A C 1.2737(7) -0.1236(8) 0.8976(11)
H7A H 1.3238 -0.1134 0.8394
C15A C 1.1918(6) -0.0658(7) 0.8978(9)
C16A C 1.1715(6) 0.0177(7) 0.8162(8)
C17A C 1.2345(7) 0.0436(9) 0.7192(11)
H8A H 1.2906 0.0086 0.7003
C18A C 1.2112(9) 0.1214(10) 0.6536(10)
H9A H 1.2524 0.1403 0.5883
C19A C 1.1274(10) 0.1747(9) 0.6803(11)
H10A H 1.1121 0.2292 0.6362
C20A C 1.0666(7) 0.1403(7) 0.7795(9)
H11A H 1.0089 0.1726 0.7989
Cu1 Cu 0.12729(11) -0.12283(11) 0.50469(18)
Cu2 Cu 0.39702(14) 0.12973(16) 0.19004(18)
Cu3 Cu 0.5000 0.0000 -0.19835(19)
Cu4 Cu 0.5000 0.0000 -0.65470(19)
N2 N 0.3772(9) 0.2074(11) 0.3269(13)
N3 N 0.4412(11) 0.0852(9) -0.0773(14)
N4 N 0.5000 0.0000 -0.4738(16)
N5 N 0.2436(10) -0.0956(9) 0.4016(13)
S1 S 0.3786(3) -0.0511(3) 0.2222(3)
C1 C 0.0305(7) -0.0298(7) 0.5025(12)
C2 C 0.3719(10) 0.2646(10) 0.4064(15)
C3 C 0.4238(12) 0.1098(10) 0.0186(15)
C4 C 0.5000 0.0000 -0.3694(15)
C5 C 0.3011(10) -0.0748(9) 0.3357(13)
Cu1_2 Cu 0.12729(11) -0.12283(11) -0.49531(18)
Cu1B Cu 0.37271(11) 0.37717(11) 0.49531(18)
Cu1A Cu -0.12729(11) 0.12283(11) 0.50469(18)
Cu1C Cu 0.62729(11) -0.37717(11) 0.49531(18)
Cu2A Cu 0.60298(14) -0.12973(16) 0.19004(18)
Cu2_2 Cu 0.39702(14) 0.12973(16) -0.80996(18)
Cu4_2 Cu 0.5000 0.0000 0.34530(19)
N2A N 0.6228(9) -0.2074(11) 0.3269(13)
N3A N 0.5588(11) -0.0852(9) -0.0773(14)
N5_2 N 0.2436(10) -0.0956(9) -0.5984(13)
S1_2 S 0.3786(3) -0.0511(3) -0.7778(3)
S1A S 0.6214(3) 0.0511(3) -0.7778(3)
S1A_2 S 0.6214(3) 0.0511(3) 0.2222(3)
C1A C -0.0305(7) 0.0298(7) 0.5025(12)
C1_2 C 0.0305(7) -0.0298(7) -0.4975(12)
C2A C 0.6281(10) -0.2646(10) 0.4064(15)
C2B C 0.1281(10) -0.2354(10) 0.5936(15)
C2B_2 C 0.1281(10) -0.2354(10) -0.4064(15)
C3A C 0.5762(12) -0.1098(10) 0.0186(15)
C5_2 C 0.3011(10) -0.0748(9) -0.6643(13)
N1? N 0.4695(7) 0.4702(7) 0.4975(12)
loop_
_geom_bond_atom_site_label_1
_geom_bond_atom_site_label_2
_geom_bond_site_symmetry_1
_geom_bond_site_symmetry_2
Cu1 N5 1_555 1_555
Cu2 N2 1_555 1_555
Cu3 N3 1_555 1_555
Cu4 N4 1_555 1_555
N2 C2 1_555 1_555
N3 C3 1_555 1_555
N4 C4 1_555 1_555
N5 C5 1_555 1_555
N6 Ni1 1_555 1_555
N7 Ni1 1_555 1_555
N8 Ni1 1_555 1_555
Ni1 N6A 1_555 1_555
S1 Cu2 1_555 1_555
C1 Cu1 1_555 1_555
C2 Cu1B 1_555 1_555
C3 Cu2 1_555 1_555
C4 Cu3 1_555 1_555
C5 S1 1_555 1_555
C6 N6 1_555 1_555
H1 C6 1_555 1_555
C7 C6 1_555 1_555
H2 C7 1_555 1_555
C8 C7 1_555 1_555
H3 C8 1_555 1_555
C9 C8 1_555 1_555
H4 C9 1_555 1_555
C10 N6 1_555 1_555
C11 N7 1_555 1_555
C12 C11 1_555 1_555
H5 C12 1_555 1_555
C13 C12 1_555 1_555
H6 C13 1_555 1_555
C14 C13 1_555 1_555
H7 C14 1_555 1_555
C15 N7 1_555 1_555
C16 N8 1_555 1_555
C17 C16 1_555 1_555
H8 C17 1_555 1_555
C18 C17 1_555 1_555
H9 C18 1_555 1_555
C19 C18 1_555 1_555
H10 C19 1_555 1_555
C20 N8 1_555 1_555
H11 C20 1_555 1_555
Cu1_2 N5_2 1_555 1_555
Cu1A C1A 1_555 1_555
Cu1C C2A 1_555 1_555
Cu2A N2A 1_555 1_555
Cu2_2 S1_2 1_555 1_555
Cu4_2 S1 1_555 1_555
N2A C2A 1_555 1_555
N3A Cu3 1_555 1_555
N5_2 C5_2 1_555 1_555
N6A C6A 1_555 1_555
N7A Ni1 1_555 1_555
N8A Ni1 1_555 1_555
S1_2 Cu4 1_555 1_555
S1A Cu4 1_555 1_555
S1A_2 Cu2A 1_555 1_555
C1A C1 1_555 1_555
C1_2 Cu1_2 1_555 1_555
C2B Cu1 1_555 1_555
C2B_2 Cu1_2 1_555 1_555
C3A Cu2A 1_555 1_555
C5_2 S1_2 1_555 1_555
C6A H1A 1_555 1_555
C7A C6A 1_555 1_555
H2A C7A 1_555 1_555
C8A C7A 1_555 1_555
H3A C8A 1_555 1_555
C9A C8A 1_555 1_555
H4A C9A 1_555 1_555
C10A N6A 1_555 1_555
C11A N7A 1_555 1_555
C12A C11A 1_555 1_555
H5A C12A 1_555 1_555
C13A C12A 1_555 1_555
H6A C13A 1_555 1_555
C14A C13A 1_555 1_555
H7A C14A 1_555 1_555
C15A N7A 1_555 1_555
C16A N8A 1_555 1_555
C17A C16A 1_555 1_555
H8A C17A 1_555 1_555
C18A C17A 1_555 1_555
H9A C18A 1_555 1_555
C19A C18A 1_555 1_555
H10A C19A 1_555 1_555
C20A N8A 1_555 1_555
H11A C20A 1_555 1_555
C9 C10 1_555 1_555
C10 C11 1_555 1_555
C14 C15 1_555 1_555
C15 C16 1_555 1_555
C19 C20 1_555 1_555
Cu4_2 S1A_2 1_555 1_555
N3A C3A 1_555 1_555
C9A C10A 1_555 1_555
C10A C11A 1_555 1_555
C14A C15A 1_555 1_555
C15A C16A 1_555 1_555
C19A C20A 1_555 1_555

#END
