
#######################################################################
#
#                 Cambridge Crystallographic Data Centre
#                                CCDC 
#
#######################################################################
#
# If this CIF has been generated from an entry in the Cambridge 
# Structural Database, then it will include bibliographic, chemical, 
# crystal, experimental, refinement or atomic coordinate data resulting 
# from the CCDC's data processing and validation procedures.
#
#######################################################################

data_YEZFIU
_symmetry_cell_setting           rhombohedral
_symmetry_space_group_name_H-M   'R -3'
_symmetry_Int_Tables_number      148
_space_group_name_Hall           '-R 3'
loop_
_symmetry_equiv_pos_site_id
_symmetry_equiv_pos_as_xyz
1 x,y,z
2 -y,x-y,z
3 -x+y,-x,z
4 2/3+x,1/3+y,1/3+z
5 2/3-y,1/3+x-y,1/3+z
6 2/3-x+y,1/3-x,1/3+z
7 1/3+x,2/3+y,2/3+z
8 1/3-y,2/3+x-y,2/3+z
9 1/3-x+y,2/3-x,2/3+z
10 -x,-y,-z
11 y,-x+y,-z
12 x-y,x,-z
13 1/3-x,2/3-y,2/3-z
14 1/3+y,2/3-x+y,2/3-z
15 1/3+x-y,2/3+x,2/3-z
16 2/3-x,1/3-y,1/3-z
17 2/3+y,1/3-x+y,1/3-z
18 2/3+x-y,1/3+x,1/3-z
_cell_length_a                   24.990(4)
_cell_length_b                   24.990(4)
_cell_length_c                   13.0478(16)
_cell_angle_alpha                90
_cell_angle_beta                 90
_cell_angle_gamma                120
_cell_volume                     7056.68
loop_
_atom_site_label
_atom_site_type_symbol
_atom_site_fract_x
_atom_site_fract_y
_atom_site_fract_z
Zn1 Zn 0.22263(3) 0.25407(3) 0.99869(4)
C1 C 0.2894(2) 0.3378(2) 0.8152(4)
C2 C 0.2579(2) 0.2903(2) 0.7323(4)
H1 H 0.2655 0.2563 0.7436
H2 H 0.2758 0.3088 0.6666
C3 C 0.1882(3) 0.2652(2) 0.7283(4)
H3 H 0.1798 0.2991 0.7234
H4 H 0.1707 0.2390 0.6686
C4 C 0.0953(2) 0.1999(3) 0.8116(4)
H5 H 0.0812 0.1696 0.7568
H6 H 0.0821 0.2295 0.7964
C5 C 0.0678(3) 0.1680(3) 0.9127(4)
H7 H 0.0231 0.1448 0.9069
H8 H 0.0819 0.1391 0.9280
C6 C 0.0858(2) 0.2136(2) 0.9982(4)
N1 N 0.2774(2) 0.3281(2) 0.9157(3)
N2 N 0.3163(2) 0.3832(2) 0.9625(3)
N3 N 0.3493(2) 0.4235(2) 0.8943(3)
N4 N 0.3334(2) 0.39598(19) 0.7997(3)
N5 N 0.1419(2) 0.2444(2) 1.0387(3)
N6 N 0.1400(2) 0.2828(2) 1.1111(3)
N7 N 0.0849(2) 0.2746(2) 1.1133(3)
N8 N 0.04945(19) 0.2303(2) 1.0434(3)
O1 O 0.16107(16) 0.23068(17) 0.8185(3)
Zn1H Zn 0.36477(4) 0.44404(3) 0.66536(4)
Zn1K Zn -0.03144(4) 0.22263(3) 1.00131(4)
N4D N 0.27069(19) 0.27075(28) 1.1330(3)
N8J N 0.2303(2) 0.18085(28) 0.9566(3)
C7 C 0.2731(6) 0.1395(8) 0.6159(12)
H9 H 0.2797 0.1444 0.6886
H10 H 0.3067 0.1737 0.5813
H11 H 0.2709 0.1017 0.5946
C8 C 0.2164(7) 0.1695(7) 0.5060(10)
H12 H 0.1805 0.1741 0.5091
H13 H 0.2145 0.1469 0.4454
H14 H 0.2529 0.2095 0.5042
C9 C 0.1682(6) 0.1061(7) 0.6560(11)
H15 H 0.1724 0.0864 0.7133
N9 N 0.2179(5) 0.1376(6) 0.5916(9)
O2 O 0.1184(6) 0.1032(8) 0.6399(11)
O3 O 0.9480(13) 0.0458(13) 0.827(2)
O4 O 0.0000 0.0000 0.0000
loop_
_geom_bond_atom_site_label_1
_geom_bond_atom_site_label_2
_geom_bond_site_symmetry_1
_geom_bond_site_symmetry_2
Zn1 N1 1_555 1_555
C1 C2 1_555 1_555
C2 H1 1_555 1_555
H2 C2 1_555 1_555
C3 C2 1_555 1_555
H3 C3 1_555 1_555
H4 C3 1_555 1_555
C4 H5 1_555 1_555
H6 C4 1_555 1_555
C5 C4 1_555 1_555
H7 C5 1_555 1_555
H8 C5 1_555 1_555
C6 C5 1_555 1_555
N1 C1 1_555 1_555
N2 N1 1_555 1_555
N3 N2 1_555 1_555
N4 C1 1_555 1_555
N5 Zn1 1_555 1_555
N6 N5 1_555 1_555
N7 N6 1_555 1_555
N8 C6 1_555 1_555
O1 C3 1_555 1_555
C7 H9 1_555 1_555
H10 C7 1_555 1_555
H11 C7 1_555 1_555
C8 H12 1_555 1_555
H13 C8 1_555 1_555
H14 C8 1_555 1_555
C9 H15 1_555 1_555
N9 C7 1_555 1_555
O2 C9 1_555 1_555
Zn1H N4 1_555 1_555
Zn1K N8 1_555 1_555
N4D Zn1 1_555 1_555
N8J Zn1 1_555 1_555
C4 O1 1_555 1_555
C6 N5 1_555 1_555
N3 N4 1_555 1_555
N7 N8 1_555 1_555
C8 N9 1_555 1_555
C9 N9 1_555 1_555

#END
