
#######################################################################
#
#                 Cambridge Crystallographic Data Centre
#                                CCDC 
#
#######################################################################
#
# If this CIF has been generated from an entry in the Cambridge 
# Structural Database, then it will include bibliographic, chemical, 
# crystal, experimental, refinement or atomic coordinate data resulting 
# from the CCDC's data processing and validation procedures.
#
#######################################################################

data_YEZFEP
_symmetry_cell_setting           monoclinic
_symmetry_space_group_name_H-M   'C 2/c'
_symmetry_Int_Tables_number      15
_space_group_name_Hall           '-C 2yn'
loop_
_symmetry_equiv_pos_site_id
_symmetry_equiv_pos_as_xyz
1 x,y,z
2 1/2+x,1/2+y,z
3 -x,y,1/2-z
4 1/2-x,1/2+y,1/2-z
5 -x,-y,-z
6 1/2-x,1/2-y,-z
7 x,-y,1/2+z
8 1/2+x,1/2-y,1/2+z
_cell_length_a                   35.528(2)
_cell_length_b                   18.4842(11)
_cell_length_c                   16.2804(10)
_cell_angle_alpha                90
_cell_angle_beta                 103.5750(10)
_cell_angle_gamma                90
_cell_volume                     10392.8
loop_
_atom_site_label
_atom_site_type_symbol
_atom_site_fract_x
_atom_site_fract_y
_atom_site_fract_z
Cu1 Cu 0.5000 0.05068(7) 0.7500
Cu2 Cu 0.5000 0.11121(8) 0.2500
Cu3 Cu 0.42444(2) 0.05717(4) 0.45923(5)
Cu4 Cu 0.29118(2) -0.00893(4) 0.30883(4)
Cu5 Cu 0.20827(2) -0.00071(4) 0.01758(5)
Cu6 Cu 0.07489(2) 0.05949(4) 0.03544(5)
Cu7 Cu 0.0000 0.11808(9) -0.2500
Cu8 Cu 0.0000 0.04759(7) 0.2500
N1 N 0.47189(18) 0.1065(4) 0.3371(4)
N2 N 0.45187(15) 0.0551(3) 0.5765(4)
N3 N 0.34380(17) 0.0101(3) 0.3680(3)
N4 N 0.25501(15) -0.0089(3) 0.3854(3)
N5 N 0.24407(14) -0.0216(3) 0.1287(3)
N6 N 0.12635(17) 0.0290(3) 0.0311(3)
N7 N 0.04467(16) 0.1014(3) -0.0719(4)
N8 N 0.03006(15) 0.0510(3) 0.1710(4)
C1 C 0.46996(16) 0.0533(3) 0.6442(3)
C2 C 0.45487(16) 0.0947(4) 0.3854(4)
C3 C 0.37443(15) 0.0268(3) 0.4036(3)
C4 C 0.26386(15) -0.0209(3) 0.1949(4)
C5 C 0.23517(16) -0.0046(3) 0.4313(4)
C6 C 0.15712(15) 0.0141(3) 0.0255(3)
C7 C 0.02691(18) 0.1138(4) -0.1387(4)
C8 C 0.04797(15) 0.0543(3) 0.1213(4)
Cu2_2 Cu 0.5000 0.11121(8) 1.2500
Cu3B Cu 0.57556(2) 0.05717(4) 1.04077(5)
Cu4B Cu 0.70882(2) -0.00893(4) 1.19117(4)
Cu5B Cu 0.79173(2) -0.00071(4) 1.48242(5)
Cu5F Cu 0.20827(2) 0.00071(4) 0.51758(5)
Cu5D Cu 0.79173(2) 0.00071(4) 0.98242(5)
Cu6B Cu 0.92511(2) 0.05949(4) 1.46456(5)
Cu7_2 Cu 1.0000 0.11808(9) 1.7500
Cu8_2 Cu 1.0000 0.04759(7) 1.2500
N1B N 0.52811(18) 0.1065(4) 1.1629(4)
N1B_2 N 0.52811(18) 0.1065(4) 0.1629(4)
N2B N 0.54813(15) 0.0551(3) 0.9235(4)
N3B N 0.65620(17) 0.0101(3) 1.1320(3)
N4B N 0.74499(15) -0.0089(3) 1.1146(3)
N5B N 0.75593(14) -0.0216(3) 1.3713(3)
N6B N 0.87365(17) 0.0290(3) 1.4689(3)
N7B N 0.95533(16) 0.1014(3) 1.5719(4)
N8B N 0.96994(15) 0.0510(3) 1.3290(4)
N8B_2 N -0.03006(15) 0.0510(3) 0.3290(4)
C1B C 0.53004(16) 0.0533(3) 0.8558(3)
C2B C 0.54513(16) 0.0947(4) 1.1146(4)
C3B C 0.62557(15) 0.0268(3) 1.0964(3)
C4B C 0.73614(15) -0.0209(3) 1.3051(4)
C5B C 0.76483(16) -0.0046(3) 1.0687(4)
C5F C 0.23517(16) 0.0046(3) -0.0687(4)
C5D C 0.76483(16) 0.0046(3) 1.5687(4)
C6B C 0.84288(15) 0.0141(3) 1.4745(3)
C7B C 0.97309(18) 0.1138(4) 1.6387(4)
C7B_2 C -0.02691(18) 0.1138(4) -0.3613(4)
C8B C 0.95203(15) 0.0543(3) 1.3787(4)
Co1 Co 0.136958(18) 0.24861(3) 0.32062(4)
N9 N 0.09709(11) 0.2836(2) 0.2140(3)
N10 N 0.13797(10) 0.34914(18) 0.3413(2)
N11 N 0.17675(11) 0.2513(2) 0.4356(2)
N12 N 0.17877(11) 0.24346(19) 0.2505(3)
N13 N 0.13734(10) 0.14738(19) 0.3007(2)
N14 N 0.09546(12) 0.2149(2) 0.3836(3)
C9 C 0.07789(16) 0.2446(3) 0.1487(4)
H1 H 0.0812 0.1947 0.1504
C10 C 0.05346(17) 0.2746(3) 0.0788(4)
H2 H 0.0411 0.2457 0.0339
C11 C 0.04770(17) 0.3479(3) 0.0768(4)
H3 H 0.0311 0.3694 0.0306
C12 C 0.06697(15) 0.3897(3) 0.1444(3)
H4 H 0.0631 0.4395 0.1444
C13 C 0.09192(13) 0.3566(2) 0.2118(3)
C14 C 0.11565(12) 0.3946(2) 0.2854(3)
C15 C 0.11631(13) 0.4684(2) 0.3001(3)
H5 H 0.1006 0.4990 0.2615
C16 C 0.14048(13) 0.4966(2) 0.3725(3)
C17 C 0.14110(15) 0.5747(2) 0.3925(3)
C18 C 0.10718(17) 0.6147(3) 0.3763(4)
H6 H 0.0839 0.5926 0.3508
C19 C 0.10765(19) 0.6870(3) 0.3976(4)
H7 H 0.0845 0.7125 0.3874
C20 C 0.14174(19) 0.7221(3) 0.4337(4)
C21 C 0.1425(2) 0.8019(3) 0.4571(5)
H8 H 0.1209 0.8261 0.4211
H9 H 0.1662 0.8232 0.4501
H10 H 0.1409 0.8067 0.5149
C22 C 0.17512(18) 0.6820(3) 0.4499(4)
H11 H 0.1984 0.7042 0.4758
C23 C 0.17518(16) 0.6097(3) 0.4290(3)
H12 H 0.1984 0.5843 0.4395
C24 C 0.16402(13) 0.4490(2) 0.4282(3)
H13 H 0.1810 0.4666 0.4765
C25 C 0.16208(12) 0.3755(2) 0.4118(3)
C26 C 0.18348(13) 0.3192(2) 0.4674(3)
C27 C 0.20757(14) 0.3320(3) 0.5446(3)
H14 H 0.2118 0.3791 0.5648
C28 C 0.22571(16) 0.2742(3) 0.5929(4)
H15 H 0.2424 0.2819 0.6455
C29 C 0.21838(16) 0.2056(3) 0.5612(4)
H16 H 0.2297 0.1659 0.5925
C30 C 0.19433(15) 0.1964(3) 0.4833(3)
H17 H 0.1899 0.1496 0.4621
C31 C 0.19813(15) 0.2978(3) 0.2239(3)
H18 H 0.1930 0.3450 0.2377
C32 C 0.22499(17) 0.2863(3) 0.1774(4)
H19 H 0.2376 0.3254 0.1596
C33 C 0.23335(17) 0.2170(3) 0.1570(4)
H20 H 0.2521 0.2081 0.1269
C34 C 0.21310(15) 0.1606(3) 0.1824(3)
H21 H 0.2179 0.1132 0.1687
C35 C 0.18574(13) 0.1747(2) 0.2283(3)
C36 C 0.16202(12) 0.1202(2) 0.2570(3)
C37 C 0.16283(13) 0.0465(2) 0.2410(3)
H22 H 0.1798 0.0280 0.2106
C38 C 0.13792(13) 0.0003(2) 0.2710(3)
C39 C 0.13723(13) -0.0780(2) 0.2505(3)
C40 C 0.17078(15) -0.1150(3) 0.2503(4)
H23 H 0.1944 -0.0909 0.2638
C41 C 0.16976(16) -0.1874(3) 0.2304(4)
H24 H 0.1928 -0.2112 0.2302
C42 C 0.13560(17) -0.2255(3) 0.2107(4)
C43 C 0.1350(2) -0.3053(3) 0.1873(5)
H25 H 0.1109 -0.3264 0.1924
H26 H 0.1561 -0.3297 0.2247
H27 H 0.1375 -0.3102 0.1301
C44 C 0.10211(17) -0.1885(3) 0.2106(4)
H28 H 0.0786 -0.2129 0.1968
C45 C 0.10255(15) -0.1156(3) 0.2307(4)
H29 H 0.0795 -0.0918 0.2309
C46 C 0.11373(13) 0.0295(2) 0.3173(3)
H30 H 0.0972 -0.0004 0.3386
C47 C 0.11399(12) 0.1037(2) 0.3323(3)
C48 C 0.09021(13) 0.1421(2) 0.3811(3)
C49 C 0.06568(15) 0.1091(3) 0.4236(3)
H31 H 0.0623 0.0592 0.4207
C50 C 0.04592(17) 0.1512(4) 0.4711(4)
H32 H 0.0291 0.1299 0.5000
C51 C 0.05188(18) 0.2252(4) 0.4743(4)
H33 H 0.0396 0.2548 0.5062
C52 C 0.07648(16) 0.2536(3) 0.4290(4)
H34 H 0.0800 0.3035 0.4303
loop_
_geom_bond_atom_site_label_1
_geom_bond_atom_site_label_2
_geom_bond_site_symmetry_1
_geom_bond_site_symmetry_2
Cu1 C1 1_555 1_555
Cu2 N1 1_555 1_555
Cu3 N2 1_555 1_555
Cu4 N3 1_555 1_555
Cu5 N5 1_555 1_555
Cu6 N6 1_555 1_555
Cu7 C7 1_555 1_555
Cu8 N8 1_555 1_555
Co1 N9 1_555 1_555
N1 C2 1_555 1_555
N2 C1 1_555 1_555
N3 C3 1_555 1_555
N4 Cu4 1_555 1_555
N5 C4 1_555 1_555
N6 C6 1_555 1_555
N7 Cu6 1_555 1_555
N8 C8 1_555 1_555
N9 C9 1_555 1_555
N10 Co1 1_555 1_555
N11 Co1 1_555 1_555
N12 Co1 1_555 1_555
N13 Co1 1_555 1_555
N14 Co1 1_555 1_555
C2 Cu3 1_555 1_555
C3 Cu3 1_555 1_555
C4 Cu4 1_555 1_555
C5 N4 1_555 1_555
C6 Cu5 1_555 1_555
C7 N7 1_555 1_555
C8 Cu6 1_555 1_555
C9 H1 1_555 1_555
C10 C9 1_555 1_555
H2 C10 1_555 1_555
C11 C10 1_555 1_555
H3 C11 1_555 1_555
C12 C11 1_555 1_555
H4 C12 1_555 1_555
C13 N9 1_555 1_555
C14 N10 1_555 1_555
C15 C14 1_555 1_555
H5 C15 1_555 1_555
C16 C15 1_555 1_555
C17 C16 1_555 1_555
C18 C17 1_555 1_555
H6 C18 1_555 1_555
C19 C18 1_555 1_555
H7 C19 1_555 1_555
C20 C19 1_555 1_555
C21 C20 1_555 1_555
H8 C21 1_555 1_555
H9 C21 1_555 1_555
H10 C21 1_555 1_555
C22 C20 1_555 1_555
H11 C22 1_555 1_555
C23 C17 1_555 1_555
H12 C23 1_555 1_555
C24 C16 1_555 1_555
H13 C24 1_555 1_555
C25 N10 1_555 1_555
C26 N11 1_555 1_555
C27 C26 1_555 1_555
H14 C27 1_555 1_555
C28 C27 1_555 1_555
H15 C28 1_555 1_555
C29 C28 1_555 1_555
H16 C29 1_555 1_555
C30 N11 1_555 1_555
H17 C30 1_555 1_555
C31 N12 1_555 1_555
H18 C31 1_555 1_555
C32 C31 1_555 1_555
H19 C32 1_555 1_555
C33 C32 1_555 1_555
H20 C33 1_555 1_555
C34 C33 1_555 1_555
H21 C34 1_555 1_555
C35 N12 1_555 1_555
C36 N13 1_555 1_555
C37 C36 1_555 1_555
H22 C37 1_555 1_555
C38 C37 1_555 1_555
C39 C38 1_555 1_555
C40 C39 1_555 1_555
H23 C40 1_555 1_555
C41 C40 1_555 1_555
H24 C41 1_555 1_555
C42 C41 1_555 1_555
C43 C42 1_555 1_555
H25 C43 1_555 1_555
H26 C43 1_555 1_555
H27 C43 1_555 1_555
C44 C42 1_555 1_555
H28 C44 1_555 1_555
C45 C39 1_555 1_555
H29 C45 1_555 1_555
C46 C38 1_555 1_555
H30 C46 1_555 1_555
C47 N13 1_555 1_555
C48 N14 1_555 1_555
C49 C48 1_555 1_555
H31 C49 1_555 1_555
C50 C49 1_555 1_555
H32 C50 1_555 1_555
C51 C50 1_555 1_555
H33 C51 1_555 1_555
C52 N14 1_555 1_555
H34 C52 1_555 1_555
Cu2_2 N1B 1_555 1_555
Cu3B N2B 1_555 1_555
Cu4B N3B 1_555 1_555
Cu5B N5B 1_555 1_555
Cu5F C5 1_555 1_555
Cu5D C5B 1_555 1_555
Cu6B N6B 1_555 1_555
Cu7_2 C7B 1_555 1_555
Cu8_2 N8B 1_555 1_555
N1B C2B 1_555 1_555
N1B_2 Cu2 1_555 1_555
N2B C1B 1_555 1_555
N3B C3B 1_555 1_555
N4B Cu4B 1_555 1_555
N5B C4B 1_555 1_555
N6B C6B 1_555 1_555
N7B Cu6B 1_555 1_555
N8B C8B 1_555 1_555
N8B_2 Cu8 1_555 1_555
C1B Cu1 1_555 1_555
C2B Cu3B 1_555 1_555
C3B Cu3B 1_555 1_555
C4B Cu4B 1_555 1_555
C5B N4B 1_555 1_555
C5F Cu5 1_555 1_555
C5D Cu5B 1_555 1_555
C6B Cu5B 1_555 1_555
C7B N7B 1_555 1_555
C7B_2 Cu7 1_555 1_555
C8B Cu6B 1_555 1_555
C12 C13 1_555 1_555
C13 C14 1_555 1_555
C22 C23 1_555 1_555
C24 C25 1_555 1_555
C25 C26 1_555 1_555
C29 C30 1_555 1_555
C34 C35 1_555 1_555
C35 C36 1_555 1_555
C44 C45 1_555 1_555
C46 C47 1_555 1_555
C47 C48 1_555 1_555
C51 C52 1_555 1_555

#END
