
#######################################################################
#
#                 Cambridge Crystallographic Data Centre
#                                CCDC 
#
#######################################################################
#
# If this CIF has been generated from an entry in the Cambridge 
# Structural Database, then it will include bibliographic, chemical, 
# crystal, experimental, refinement or atomic coordinate data resulting 
# from the CCDC's data processing and validation procedures.
#
#######################################################################

data_YEZFIT
_symmetry_cell_setting           monoclinic
_symmetry_space_group_name_H-M   'C 2/c'
_symmetry_Int_Tables_number      15
_space_group_name_Hall           '-C 2yn'
loop_
_symmetry_equiv_pos_site_id
_symmetry_equiv_pos_as_xyz
1 x,y,z
2 1/2+x,1/2+y,z
3 -x,y,1/2-z
4 1/2-x,1/2+y,1/2-z
5 -x,-y,-z
6 1/2-x,1/2-y,-z
7 x,-y,1/2+z
8 1/2+x,1/2-y,1/2+z
_cell_length_a                   35.514(3)
_cell_length_b                   18.5884(15)
_cell_length_c                   16.2731(13)
_cell_angle_alpha                90
_cell_angle_beta                 103.660(2)
_cell_angle_gamma                90
_cell_volume                     10438.8
loop_
_atom_site_label
_atom_site_type_symbol
_atom_site_fract_x
_atom_site_fract_y
_atom_site_fract_z
Cu1 Cu 0.5000 0.60773(8) 0.7500
Cu2 Cu 0.5000 0.55391(7) 0.2500
Cu3 Cu 0.57625(2) 0.55790(4) 0.54058(4)
Cu4 Cu 0.70907(2) 0.48721(4) 0.69169(4)
Cu5 Cu 0.79141(2) 0.49837(4) 0.98251(4)
Cu6 Cu 0.92466(2) 0.56050(4) 0.96355(4)
Cu7 Cu 1.0000 0.61644(8) 1.2500
Cu8 Cu 1.0000 0.54865(7) 0.7500
N1 N 0.52815(17) 0.6047(3) 0.6621(4)
N2 N 0.54878(15) 0.5578(3) 0.4232(4)
N3 N 0.65630(17) 0.5085(3) 0.6316(3)
N4 N 0.74518(15) 0.4875(3) 0.6154(3)
N5 N 0.75604(14) 0.4739(3) 0.8712(3)
N6 N 0.87292(18) 0.5300(3) 0.9682(3)
N7 N 0.95553(15) 0.6016(3) 1.0717(4)
N8 N 0.96954(16) 0.5514(3) 0.8282(3)
C1 C 0.53063(15) 0.5565(3) 0.3558(3)
C2 C 0.54502(16) 0.5932(3) 0.6141(3)
C3 C 0.62555(15) 0.5265(3) 0.5960(3)
C4 C 0.73586(15) 0.4744(3) 0.8054(3)
C5 C 0.76456(16) 0.4926(3) 0.5689(3)
C6 C 0.84186(16) 0.5146(3) 0.9738(3)
C7 C 0.97317(18) 0.6129(4) 1.1383(4)
C8 C 0.95151(16) 0.5561(3) 0.8782(3)
Cu2_2 Cu 0.5000 0.55391(7) 1.2500
Cu3B Cu 0.42375(2) 0.55790(4) 0.95942(4)
Cu4B Cu 0.29093(2) 0.48721(4) 0.80831(4)
Cu5B Cu 0.20859(2) 0.49837(4) 0.51749(4)
Cu5F Cu 0.79141(2) 0.50163(4) 0.48251(4)
Cu5D Cu 0.20859(2) 0.50163(4) 1.01749(4)
Cu6B Cu 0.07534(2) 0.56050(4) 0.53645(4)
Cu7_2 Cu 0.0000 0.61644(8) 0.2500
Cu8_2 Cu 0.0000 0.54865(7) 0.7500
N1B N 0.47185(17) 0.6047(3) 0.8379(4)
N2B N 0.45122(15) 0.5578(3) 1.0768(4)
N3B N 0.34370(17) 0.5085(3) 0.8684(3)
N4B N 0.25482(15) 0.4875(3) 0.8846(3)
N5B N 0.24396(14) 0.4739(3) 0.6288(3)
N6B N 0.12708(18) 0.5300(3) 0.5318(3)
N7B N 0.04447(15) 0.6016(3) 0.4283(4)
N8B N 0.03046(16) 0.5514(3) 0.6718(3)
N8B_2 N 1.03046(16) 0.5514(3) 0.6718(3)
C1B C 0.46937(15) 0.5565(3) 1.1442(3)
C1B_2 C 0.46937(15) 0.5565(3) 0.1442(3)
C2B C 0.45498(16) 0.5932(3) 0.8859(3)
C3B C 0.37445(15) 0.5265(3) 0.9040(3)
C4B C 0.26414(15) 0.4744(3) 0.6946(3)
C5B C 0.23544(16) 0.4926(3) 0.9311(3)
C5F C 0.76456(16) 0.5074(3) 1.0689(3)
C5D C 0.23544(16) 0.5074(3) 0.4311(3)
C6B C 0.15814(16) 0.5146(3) 0.5262(3)
C7B C 0.02683(18) 0.6129(4) 0.3617(4)
C7B_2 C 1.02683(18) 0.6129(4) 1.3617(4)
C8B C 0.04849(16) 0.5561(3) 0.6218(3)
Ni1 Ni 0.136873(17) 0.25237(3) 0.31972(4)
N9 N 0.17758(11) 0.24599(19) 0.4377(2)
N10 N 0.13819(10) 0.14755(18) 0.3415(2)
N11 N 0.09661(11) 0.2136(2) 0.2122(2)
N12 N 0.17928(11) 0.26138(18) 0.2483(2)
N13 N 0.13768(10) 0.35755(18) 0.3006(2)
N14 N 0.09516(11) 0.2893(2) 0.3830(3)
C9 C 0.19532(15) 0.2996(3) 0.4867(3)
H1 H 0.1909 0.3464 0.4663
C10 C 0.21952(16) 0.2900(3) 0.5649(3)
H2 H 0.2314 0.3288 0.5967
C11 C 0.22554(15) 0.2203(3) 0.5945(3)
H3 H 0.2416 0.2112 0.6475
C12 C 0.20755(14) 0.1643(3) 0.5450(3)
H4 H 0.2116 0.1172 0.5643
C13 C 0.18380(13) 0.1781(2) 0.4679(3)
C14 C 0.16194(12) 0.1220(2) 0.4115(3)
C15 C 0.16400(13) 0.0489(2) 0.4282(3)
H5 H 0.1810 0.0314 0.4765
C16 C 0.14039(13) 0.0020(2) 0.3723(3)
C17 C 0.14072(14) -0.0755(2) 0.3923(3)
C18 C 0.17501(16) -0.1103(3) 0.4295(3)
H6 H 0.1982 -0.0849 0.4412
C19 C 0.17487(18) -0.1825(3) 0.4491(4)
H7 H 0.1982 -0.2052 0.4732
C20 C 0.1413(2) -0.2217(3) 0.4341(4)
C21 C 0.1416(2) -0.3011(3) 0.4587(4)
H8 H 0.1200 -0.3252 0.4225
H9 H 0.1397 -0.3051 0.5164
H10 H 0.1653 -0.3230 0.4527
C22 C 0.10725(19) -0.1867(3) 0.3968(4)
H11 H 0.0842 -0.2125 0.3850
C23 C 0.10646(17) -0.1150(3) 0.3767(3)
H12 H 0.0830 -0.0927 0.3525
C24 C 0.11631(13) 0.0301(2) 0.2998(3)
H13 H 0.1005 -0.0003 0.2611
C25 C 0.11581(12) 0.1031(2) 0.2851(3)
C26 C 0.09167(12) 0.1412(2) 0.2109(3)
C27 C 0.06724(15) 0.1073(3) 0.1439(3)
H14 H 0.0640 0.0576 0.1440
C28 C 0.04734(16) 0.1486(3) 0.0758(3)
H15 H 0.0304 0.1270 0.0302
C29 C 0.05307(17) 0.2207(3) 0.0771(4)
H16 H 0.0406 0.2489 0.0316
C30 C 0.07742(15) 0.2519(3) 0.1463(4)
H17 H 0.0806 0.3016 0.1471
C31 C 0.19893(15) 0.2077(3) 0.2217(3)
H18 H 0.1940 0.1606 0.2353
C32 C 0.22603(17) 0.2199(3) 0.1751(3)
H19 H 0.2390 0.1817 0.1570
C33 C 0.23352(17) 0.2894(3) 0.1560(4)
H20 H 0.2521 0.2991 0.1258
C34 C 0.21324(15) 0.3449(3) 0.1820(3)
H21 H 0.2179 0.3923 0.1692
C35 C 0.18592(13) 0.3291(2) 0.2273(3)
C36 C 0.16211(13) 0.3847(2) 0.2568(3)
C37 C 0.16319(13) 0.4576(2) 0.2414(3)
H22 H 0.1804 0.4761 0.2117
C38 C 0.13801(13) 0.5032(2) 0.2710(3)
C39 C 0.13719(14) 0.5806(2) 0.2515(3)
C40 C 0.17055(15) 0.6184(3) 0.2511(3)
H23 H 0.1943 0.5946 0.2643
C41 C 0.16956(16) 0.6900(3) 0.2317(4)
H24 H 0.1927 0.7139 0.2328
C42 C 0.13523(17) 0.7276(3) 0.2105(4)
C43 C 0.1343(2) 0.8062(3) 0.1869(4)
H25 H 0.1555 0.8307 0.2240
H26 H 0.1103 0.8270 0.1921
H27 H 0.1367 0.8109 0.1296
C44 C 0.10146(17) 0.6904(3) 0.2098(4)
H28 H 0.0778 0.7143 0.1953
C45 C 0.10228(16) 0.6177(3) 0.2304(3)
H29 H 0.0793 0.5937 0.2301
C46 C 0.11386(13) 0.4738(2) 0.3177(3)
H30 H 0.0975 0.5034 0.3397
C47 C 0.11419(13) 0.4006(2) 0.3316(3)
C48 C 0.09031(13) 0.3615(2) 0.3810(3)
C49 C 0.06574(15) 0.3946(3) 0.4234(3)
H31 H 0.0621 0.4442 0.4197
C50 C 0.04651(17) 0.3535(3) 0.4716(4)
H32 H 0.0304 0.3752 0.5020
C51 C 0.05161(18) 0.2805(3) 0.4738(4)
H33 H 0.0390 0.2518 0.5056
C52 C 0.07559(16) 0.2502(3) 0.4286(4)
H34 H 0.0784 0.2005 0.4294
loop_
_geom_bond_atom_site_label_1
_geom_bond_atom_site_label_2
_geom_bond_site_symmetry_1
_geom_bond_site_symmetry_2
Cu1 N1 1_555 1_555
Cu2 C1 1_555 1_555
Cu3 N2 1_555 1_555
Cu4 N3 1_555 1_555
Cu5 N5 1_555 1_555
Cu6 N6 1_555 1_555
Cu7 C7 1_555 1_555
Cu8 N8 1_555 1_555
Ni1 N9 1_555 1_555
N1 C2 1_555 1_555
N2 C1 1_555 1_555
N3 C3 1_555 1_555
N4 Cu4 1_555 1_555
N5 C4 1_555 1_555
N6 C6 1_555 1_555
N7 Cu6 1_555 1_555
N8 C8 1_555 1_555
N9 C9 1_555 1_555
N10 Ni1 1_555 1_555
N11 Ni1 1_555 1_555
N12 Ni1 1_555 1_555
N13 Ni1 1_555 1_555
N14 Ni1 1_555 1_555
C2 Cu3 1_555 1_555
C3 Cu3 1_555 1_555
C4 Cu4 1_555 1_555
C5 N4 1_555 1_555
C6 Cu5 1_555 1_555
C7 N7 1_555 1_555
C8 Cu6 1_555 1_555
C9 H1 1_555 1_555
C10 C9 1_555 1_555
H2 C10 1_555 1_555
C11 C10 1_555 1_555
H3 C11 1_555 1_555
C12 C11 1_555 1_555
H4 C12 1_555 1_555
C13 N9 1_555 1_555
C14 N10 1_555 1_555
C15 C14 1_555 1_555
H5 C15 1_555 1_555
C16 C15 1_555 1_555
C17 C16 1_555 1_555
C18 C17 1_555 1_555
H6 C18 1_555 1_555
C19 C18 1_555 1_555
H7 C19 1_555 1_555
C20 C19 1_555 1_555
C21 C20 1_555 1_555
H8 C21 1_555 1_555
H9 C21 1_555 1_555
H10 C21 1_555 1_555
C22 C20 1_555 1_555
H11 C22 1_555 1_555
C23 C17 1_555 1_555
H12 C23 1_555 1_555
C24 C16 1_555 1_555
H13 C24 1_555 1_555
C25 N10 1_555 1_555
C26 N11 1_555 1_555
C27 C26 1_555 1_555
H14 C27 1_555 1_555
C28 C27 1_555 1_555
H15 C28 1_555 1_555
C29 C28 1_555 1_555
H16 C29 1_555 1_555
C30 N11 1_555 1_555
H17 C30 1_555 1_555
C31 N12 1_555 1_555
H18 C31 1_555 1_555
C32 C31 1_555 1_555
H19 C32 1_555 1_555
C33 C32 1_555 1_555
H20 C33 1_555 1_555
C34 C33 1_555 1_555
H21 C34 1_555 1_555
C35 N12 1_555 1_555
C36 N13 1_555 1_555
C37 C36 1_555 1_555
H22 C37 1_555 1_555
C38 C37 1_555 1_555
C39 C38 1_555 1_555
C40 C39 1_555 1_555
H23 C40 1_555 1_555
C41 C40 1_555 1_555
H24 C41 1_555 1_555
C42 C41 1_555 1_555
C43 C42 1_555 1_555
H25 C43 1_555 1_555
H26 C43 1_555 1_555
H27 C43 1_555 1_555
C44 C42 1_555 1_555
H28 C44 1_555 1_555
C45 C39 1_555 1_555
H29 C45 1_555 1_555
C46 C38 1_555 1_555
H30 C46 1_555 1_555
C47 N13 1_555 1_555
C48 N14 1_555 1_555
C49 C48 1_555 1_555
H31 C49 1_555 1_555
C50 C49 1_555 1_555
H32 C50 1_555 1_555
C51 C50 1_555 1_555
H33 C51 1_555 1_555
C52 N14 1_555 1_555
H34 C52 1_555 1_555
Cu2_2 C1B 1_555 1_555
Cu3B N2B 1_555 1_555
Cu4B N3B 1_555 1_555
Cu5B N5B 1_555 1_555
Cu5F C5 1_555 1_555
Cu5D C5B 1_555 1_555
Cu6B N6B 1_555 1_555
Cu7_2 C7B 1_555 1_555
Cu8_2 N8B 1_555 1_555
N1B Cu1 1_555 1_555
N2B C1B 1_555 1_555
N3B C3B 1_555 1_555
N4B Cu4B 1_555 1_555
N5B C4B 1_555 1_555
N6B C6B 1_555 1_555
N7B Cu6B 1_555 1_555
N8B C8B 1_555 1_555
N8B_2 Cu8 1_555 1_555
C1B_2 Cu2 1_555 1_555
C2B Cu3B 1_555 1_555
C3B Cu3B 1_555 1_555
C4B Cu4B 1_555 1_555
C5B N4B 1_555 1_555
C5F Cu5 1_555 1_555
C5D Cu5B 1_555 1_555
C6B Cu5B 1_555 1_555
C7B N7B 1_555 1_555
C7B_2 Cu7 1_555 1_555
C8B Cu6B 1_555 1_555
C12 C13 1_555 1_555
C13 C14 1_555 1_555
C22 C23 1_555 1_555
C24 C25 1_555 1_555
C25 C26 1_555 1_555
C29 C30 1_555 1_555
C34 C35 1_555 1_555
C35 C36 1_555 1_555
C44 C45 1_555 1_555
C46 C47 1_555 1_555
C47 C48 1_555 1_555
C51 C52 1_555 1_555
N1B C2B 1_555 1_555

#END
