
#######################################################################
#
#                 Cambridge Crystallographic Data Centre
#                                CCDC 
#
#######################################################################
#
# If this CIF has been generated from an entry in the Cambridge 
# Structural Database, then it will include bibliographic, chemical, 
# crystal, experimental, refinement or atomic coordinate data resulting 
# from the CCDC's data processing and validation procedures.
#
#######################################################################

data_YEZGAL
_symmetry_cell_setting           triclinic
_symmetry_space_group_name_H-M   'P -1'
_symmetry_Int_Tables_number      2
_space_group_name_Hall           '-P 1'
loop_
_symmetry_equiv_pos_site_id
_symmetry_equiv_pos_as_xyz
1 x,y,z
2 -x,-y,-z
_cell_length_a                   9.695(2)
_cell_length_b                   11.617(2)
_cell_length_c                   16.918(3)
_cell_angle_alpha                96.37(3)
_cell_angle_beta                 96.92(3)
_cell_angle_gamma                113.63(3)
_cell_volume                     1706.17
loop_
_atom_site_label
_atom_site_type_symbol
_atom_site_fract_x
_atom_site_fract_y
_atom_site_fract_z
Hg1 Hg 0.4064(2) 0.4627(2) 0.3717(1)
Br1 Br 0.3530(5) 0.6391(4) 0.3094(3)
Br2 Br 0.3514(5) 0.2454(3) 0.3068(2)
O1 O 0.6764(28) 0.5749(22) 0.3522(14)
O2 O 0.8493(35) 0.5744(27) 0.2742(17)
O3 O 0.5991(27) 0.4378(21) 0.5055(13)
O4 O 0.8451(30) 0.5697(24) 0.5339(15)
C1 C 0.7715(41) 0.5375(33) 0.3252(22)
C2 C 0.7748(38) 0.4155(30) 0.3536(19)
C3 C 0.7610(37) 0.3988(30) 0.4285(19)
C4 C 0.7372(39) 0.4781(31) 0.4933(19)
N1 N 0.7987(30) 0.3283(24) 0.2936(15)
C5 C 0.6962(37) 0.2722(29) 0.2220(18)
C6 C 0.7160(34) 0.1940(26) 0.1632(17)
C7 C 0.8487(33) 0.1738(26) 0.1726(17)
C8 C 0.9535(40) 0.2346(31) 0.2447(20)
C9 C 0.9199(40) 0.3035(32) 0.3027(22)
N2 N 0.8687(33) 0.1020(27) 0.1150(17)
C10 C 1.0188(49) 0.0871(41) 0.1266(28)
C11 C 0.7625(47) 0.0289(39) 0.0376(25)
N3 N 0.7573(32) 0.2763(26) 0.4557(16)
C12 C 0.8498(36) 0.2862(30) 0.5223(19)
C13 C 0.8573(40) 0.1787(31) 0.5438(21)
C14 C 0.7648(36) 0.0602(29) 0.5025(18)
C15 C 0.6628(37) 0.0506(30) 0.4374(19)
C16 C 0.6624(39) 0.1634(31) 0.4114(20)
N4 N 0.7814(34) -0.0455(27) 0.5200(17)
C17 C 0.6805(44) -0.1735(35) 0.4791(23)
C18 C 0.9005(46) -0.0391(39) 0.5821(25)
H1 H 0.6076 0.2901 0.2137
H2 H 0.6390 0.1526 0.1154
H3 H 1.0494 0.2277 0.2529
H4 H 0.9871 0.3355 0.3544
H5 H 1.0813 0.1357 0.1776
H6 H 0.9977 -0.0013 0.1250
H7 H 1.0719 0.1176 0.0835
H8 H 0.6709 0.0426 0.0353
H9 H 0.8112 0.0584 -0.0069
H10 H 0.7369 -0.0606 0.0345
H11 H 0.9110 0.3686 0.5549
H12 H 0.9305 0.1872 0.5902
H13 H 0.5909 -0.0320 0.4087
H14 H 0.5959 0.1593 0.3632
H15 H 0.6026 -0.1708 0.4396
H16 H 0.7408 -0.2085 0.4525
H17 H 0.6335 -0.2261 0.5168
H18 H 0.9585 0.0487 0.6069
H19 H 0.8589 -0.0884 0.6223
H20 H 0.9662 -0.0707 0.5580
O3A O 0.4009(27) 0.5622(21) 0.4945(13)
Hg1A Hg 0.5936(2) 0.5373(2) 0.6283(1)
Hg2 Hg 0.6303(2) 0.6691(2) 0.2144(1)
Br3 Br 0.7578(6) 0.8971(4) 0.2578(3)
Br4 Br 0.4915(5) 0.4547(4) 0.1298(2)
Hg3 Hg 0.1317(2) 0.6841(2) 0.1853(1)
Br5 Br 0.2452(7) 0.9093(4) 0.2386(3)
Br6 Br 0.0133(5) 0.4646(4) 0.1146(2)
Hg4 Hg 0.2670(2) 0.5052(2) -0.0018(1)
Br7 Br 0.3898(5) 0.7321(4) 0.0553(3)
Br8 Br 0.1441(6) 0.2791(4) -0.0607(3)
loop_
_geom_bond_atom_site_label_1
_geom_bond_atom_site_label_2
_geom_bond_site_symmetry_1
_geom_bond_site_symmetry_2
Hg1 Br1 1_555 1_555
Hg2 Br3 1_555 1_555
Hg3 Br5 1_555 1_555
Hg4 Br7 1_555 1_555
Br2 Hg1 1_555 1_555
Br4 Hg2 1_555 1_555
Br6 Hg3 1_555 1_555
Br8 Hg4 1_555 1_555
O1 Hg1 1_555 1_555
O2 C1 1_555 1_555
O3 C4 1_555 1_555
O4 C4 1_555 1_555
C1 O1 1_555 1_555
C2 C1 1_555 1_555
C3 C2 1_555 1_555
C4 C3 1_555 1_555
N1 C2 1_555 1_555
C5 N1 1_555 1_555
C6 C5 1_555 1_555
C7 C6 1_555 1_555
C8 C7 1_555 1_555
C9 N1 1_555 1_555
N2 C7 1_555 1_555
C10 N2 1_555 1_555
C11 N2 1_555 1_555
N3 C3 1_555 1_555
C12 N3 1_555 1_555
C13 C12 1_555 1_555
C14 C13 1_555 1_555
C15 C14 1_555 1_555
C16 N3 1_555 1_555
N4 C14 1_555 1_555
C17 N4 1_555 1_555
C18 N4 1_555 1_555
H1 C5 1_555 1_555
H2 C6 1_555 1_555
H3 C8 1_555 1_555
H4 C9 1_555 1_555
H5 C10 1_555 1_555
H6 C10 1_555 1_555
H7 C10 1_555 1_555
H8 C11 1_555 1_555
H9 C11 1_555 1_555
H10 C11 1_555 1_555
H11 C12 1_555 1_555
H12 C13 1_555 1_555
H13 C15 1_555 1_555
H14 C16 1_555 1_555
H15 C17 1_555 1_555
H16 C17 1_555 1_555
H17 C17 1_555 1_555
H18 C18 1_555 1_555
H19 C18 1_555 1_555
H20 C18 1_555 1_555
O3A Hg1 1_555 1_555
Hg1A O3 1_555 1_555
C8 C9 1_555 1_555
C15 C16 1_555 1_555

#END
