
#######################################################################
#
#                 Cambridge Crystallographic Data Centre
#                                CCDC 
#
#######################################################################
#
# If this CIF has been generated from an entry in the Cambridge 
# Structural Database, then it will include bibliographic, chemical, 
# crystal, experimental, refinement or atomic coordinate data resulting 
# from the CCDC's data processing and validation procedures.
#
#######################################################################

data_YEZKUL
_symmetry_cell_setting           rhombohedral
_symmetry_space_group_name_H-M   'R 3 2'
_symmetry_Int_Tables_number      155
_space_group_name_Hall           'R 3 2"'
loop_
_symmetry_equiv_pos_site_id
_symmetry_equiv_pos_as_xyz
1 x,y,z
2 -y,x-y,z
3 -x+y,-x,z
4 x-y,-y,-z
5 -x,-x+y,-z
6 y,x,-z
7 2/3+x,1/3+y,1/3+z
8 2/3-y,1/3+x-y,1/3+z
9 2/3-x+y,1/3-x,1/3+z
10 2/3+x-y,1/3-y,1/3-z
11 2/3-x,1/3-x+y,1/3-z
12 2/3+y,1/3+x,1/3-z
13 1/3+x,2/3+y,2/3+z
14 1/3-y,2/3+x-y,2/3+z
15 1/3-x+y,2/3-x,2/3+z
16 1/3+x-y,2/3-y,2/3-z
17 1/3-x,2/3-x+y,2/3-z
18 1/3+y,2/3+x,2/3-z
_cell_length_a                   21.0856(9)
_cell_length_b                   21.0856(9)
_cell_length_c                   17.9678(8)
_cell_angle_alpha                90
_cell_angle_beta                 90
_cell_angle_gamma                120
_cell_volume                     6918.27
loop_
_atom_site_label
_atom_site_type_symbol
_atom_site_fract_x
_atom_site_fract_y
_atom_site_fract_z
N3 N -0.6667 -0.3333 0.2858(4)
C13 C -0.6430(7) -0.3655(7) 0.2460(6)
C14 C -0.6178(10) -0.4035(9) 0.1943(7)
C13A C -0.6345(7) -0.2775(10) 0.2460(6)
C14A C -0.5965(9) -0.2143(13) 0.1943(7)
C13B C -0.7225(10) -0.3570(7) 0.2460(6)
C14B C -0.7857(13) -0.3822(10) 0.1943(7)
C15 C 0.0000 0.0000 0.0000
C16 C 0.0000 0.0000 0.0899(14)
N4 N 0.0000 0.0000 0.1473(12)
C16C C 0.0000 0.0000 -0.0899(14)
N4C N 0.0000 0.0000 -0.1473(12)
O3 O -0.3331(9) -0.4125(9) 0.2097(8)
O4 O -0.3354(10) -0.3333 0.1667
O5 O -0.3338(8) -0.4946(8) 0.2429(8)
C1 C -0.61303(13) -0.47656(13) 0.45564(15)
H1 H -0.6558 -0.4945 0.4856
C2 C -0.58681(16) -0.40947(15) 0.42178(18)
H2 H -0.6111 -0.3822 0.4291
C3 C -0.52449(16) -0.38150(16) 0.37670(18)
C4 C -0.49147(17) -0.42463(15) 0.36946(19)
H3 H -0.4486 -0.4080 0.3401
C5 C -0.52163(14) -0.49122(14) 0.40517(14)
H4 H -0.4989 -0.5199 0.3987
C6 C -0.49383(17) -0.30846(16) 0.3439(2)
H5 H -0.5156 -0.2801 0.3573
C7 C -0.43775(15) -0.27898(13) 0.29682(17)
H6 H -0.4181 -0.3086 0.2810
C8 C -0.40389(12) -0.20424(12) 0.26739(13)
C9 C -0.34776(13) -0.18102(12) 0.21474(15)
H7 H -0.3331 -0.2141 0.1966
C10 C -0.31384(12) -0.10984(12) 0.18934(13)
H8 H -0.2759 -0.0951 0.1534
C11 C -0.38629(11) -0.08238(12) 0.26325(12)
H9 H -0.3996 -0.0480 0.2805
C12 C -0.42356(13) -0.15310(13) 0.29064(13)
H10 H -0.4624 -0.1669 0.3252
Mo1 Mo -0.208332(9) 0.0000 0.0000
N1 N -0.33165(9) -0.06024(10) 0.21278(9)
N2 N -0.58128(11) -0.51789(10) 0.44852(11)
Ni1 Ni -0.287371(16) 0.045962(16) 0.1667
O1 O -0.12227(10) 0.07732(12) -0.01440(14)
O2 O -0.25076(9) 0.01283(9) 0.07876(8)
O1C O -0.19959(16) -0.07732(12) 0.01440(14)
O2C O -0.26359(13) -0.01283(9) -0.07876(8)
C1K C -0.80989(13) -0.27970(13) -0.12231(15)
H1K H -0.8278 -0.3225 -0.1523
C2K C -0.74280(15) -0.25348(16) -0.08845(18)
H2K H -0.7155 -0.2778 -0.0958
C3K C -0.71483(16) -0.19116(16) -0.04337(18)
C4K C -0.75796(15) -0.15814(17) -0.03613(19)
H3K H -0.7413 -0.1153 -0.0068
C5K C -0.82455(14) -0.18830(14) -0.07184(14)
H4K H -0.8532 -0.1656 -0.0654
C6K C -0.64179(16) -0.16050(17) -0.0106(2)
H5K H -0.6134 -0.1823 -0.0240
C7K C -0.61231(13) -0.10442(15) 0.03651(17)
H6K H -0.6419 -0.0848 0.0523
C8K C -0.53757(12) -0.07056(12) 0.06594(13)
C9K C -0.51435(12) -0.01443(13) 0.11859(15)
H7K H -0.5474 0.0002 0.1367
C10K C -0.44317(12) 0.01949(12) 0.14399(13)
H8K H -0.4284 0.0574 0.1799
C11K C -0.41571(12) -0.05296(11) 0.07008(12)
H9K H -0.3813 -0.0663 0.0528
C12K C -0.48643(13) -0.09023(13) 0.04269(13)
H10K H -0.5002 -0.1291 0.0081
N1K N -0.39357(10) 0.00168(9) 0.12055(9)
N2K N -0.85122(10) -0.24795(11) -0.11519(11)
N2L N -0.24795(11) 0.14878(10) 0.11519(11)
N2Q N -0.18456(10) 0.08539(11) 0.21815(11)
Ni1C Ni -0.333333(23) -0.045962(16) -0.1667
Ni1E Ni -0.954038(16) -0.287371(16) -0.1667
Ni1F Ni -0.620704(16) -0.620705(16) 0.5000
O2K O -0.32050(9) 0.08257(9) 0.25457(8)
O6? O -0.3750(10) -0.5714(10) 0.1961(10)
O7? O -0.3312(7) -0.4501(7) 0.3061(7)
O8? O -0.3473(5) -0.3633(5) 0.2230(5)
loop_
_geom_bond_atom_site_label_1
_geom_bond_atom_site_label_2
_geom_bond_site_symmetry_1
_geom_bond_site_symmetry_2
C1 H1 1_555 1_555
C2 C1 1_555 1_555
H2 C2 1_555 1_555
C3 C2 1_555 1_555
C4 C3 1_555 1_555
H3 C4 1_555 1_555
C5 C4 1_555 1_555
H4 C5 1_555 1_555
C6 C3 1_555 1_555
H5 C6 1_555 1_555
C7 C6 1_555 1_555
H6 C7 1_555 1_555
C8 C7 1_555 1_555
C9 C8 1_555 1_555
H7 C9 1_555 1_555
C10 C9 1_555 1_555
H8 C10 1_555 1_555
C11 H9 1_555 1_555
C12 C8 1_555 1_555
H10 C12 1_555 1_555
Mo1 O1 1_555 1_555
N1 C10 1_555 1_555
N2 C1 1_555 1_555
Ni1 N1 1_555 1_555
O2 Mo1 1_555 1_555
N3 C13 1_555 1_555
C13 C14 1_555 1_555
C15 C16 1_555 1_555
C16 N4 1_555 1_555
O1C Mo1 1_555 1_555
O2C Mo1 1_555 1_555
C1K H1K 1_555 1_555
C2K C1K 1_555 1_555
H2K C2K 1_555 1_555
C3K C2K 1_555 1_555
C4K C3K 1_555 1_555
H3K C4K 1_555 1_555
C5K C4K 1_555 1_555
H4K C5K 1_555 1_555
C6K C3K 1_555 1_555
H5K C6K 1_555 1_555
C7K C6K 1_555 1_555
H6K C7K 1_555 1_555
C8K C7K 1_555 1_555
C9K C8K 1_555 1_555
H7K C9K 1_555 1_555
C10K C9K 1_555 1_555
H8K C10K 1_555 1_555
C11K H9K 1_555 1_555
C12K C8K 1_555 1_555
H10K C12K 1_555 1_555
N1K Ni1 1_555 1_555
N2K C1K 1_555 1_555
N2L Ni1 1_555 1_555
N2Q Ni1 1_555 1_555
Ni1C O2C 1_555 1_555
Ni1E N2K 1_555 1_555
Ni1F N2 1_555 1_555
O2K Ni1 1_555 1_555
C13A N3 1_555 1_555
C14A C13A 1_555 1_555
C13B N3 1_555 1_555
C14B C13B 1_555 1_555
C16C C15 1_555 1_555
N4C C16C 1_555 1_555
C5 N2 1_555 1_555
C11 C12 1_555 1_555
C11 N1 1_555 1_555
Ni1 O2 1_555 1_555
C13 C13A 1_555 1_555
C13 C13B 1_555 1_555
C5K N2K 1_555 1_555
C10K N1K 1_555 1_555
C11K C12K 1_555 1_555
C11K N1K 1_555 1_555
C13A C13B 1_555 1_555

#END
