
#######################################################################
#
#                 Cambridge Crystallographic Data Centre
#                                CCDC 
#
#######################################################################
#
# If this CIF has been generated from an entry in the Cambridge 
# Structural Database, then it will include bibliographic, chemical, 
# crystal, experimental, refinement or atomic coordinate data resulting 
# from the CCDC's data processing and validation procedures.
#
#######################################################################

data_YEZPAV
_symmetry_cell_setting           triclinic
_symmetry_space_group_name_H-M   'P -1'
_symmetry_Int_Tables_number      2
_space_group_name_Hall           '-P 1'
loop_
_symmetry_equiv_pos_site_id
_symmetry_equiv_pos_as_xyz
1 x,y,z
2 -x,-y,-z
_cell_length_a                   8.115(2)
_cell_length_b                   10.8720(10)
_cell_length_c                   14.051(3)
_cell_angle_alpha                69.80(2)
_cell_angle_beta                 85.810(10)
_cell_angle_gamma                67.220(10)
_cell_volume                     1070.03
loop_
_atom_site_label
_atom_site_type_symbol
_atom_site_fract_x
_atom_site_fract_y
_atom_site_fract_z
K1 K 0.75483(11) -0.50774(9) 0.97758(6)
P1 P 0.44200(11) -0.22833(8) 0.76933(6)
S1 S 0.43278(12) -0.41702(9) 0.81597(7)
S2 S 0.23979(14) -0.17848(10) 0.97949(7)
O1 O 0.6161(3) -0.2386(2) 0.82205(16)
O2 O 0.4862(3) -0.1824(2) 0.65375(16)
N1 N 0.0455(4) 0.0564(3) 0.8363(2)
N2 N 0.2715(4) -0.0936(3) 0.7742(2)
O3 O 0.9189(4) -0.4332(3) 1.1029(2)
C1 C -0.0346(4) 0.1657(3) 0.7432(2)
C2 C 0.1885(4) -0.0699(3) 0.8537(2)
C3 C 0.6598(5) -0.1123(4) 0.7988(3)
H1 H 0.5644 -0.0297 0.7525
C4 C 0.4100(5) -0.2069(4) 0.5744(3)
H2 H 0.4077 -0.3023 0.6013
C5 C -0.2085(5) 0.2595(4) 0.7431(3)
H3 H -0.2672 0.2482 0.8030
C6 C 0.8669(5) -0.4097(4) 1.1799(3)
C7 C 0.0500(5) 0.1865(4) 0.6536(3)
H4 H 0.1675 0.1259 0.6519
C8 C -0.0398(6) 0.2975(4) 0.5662(3)
H5 H 0.0183 0.3103 0.5062
C9 C -0.2122(6) 0.3884(4) 0.5667(3)
H6 H -0.2718 0.4621 0.5076
C10 C -0.2957(6) 0.3689(4) 0.6560(3)
H7 H -0.4127 0.4305 0.6576
C11 C 0.6702(6) -0.0878(5) 0.8957(3)
H8 H 0.5566 -0.0715 0.9251
H9 H 0.6998 -0.0062 0.8823
H10 H 0.7609 -0.1697 0.9420
C12 C 0.8326(6) -0.1385(5) 0.7472(4)
H11 H 0.8184 -0.1537 0.6854
H12 H 0.9258 -0.2209 0.7915
H13 H 0.8640 -0.0574 0.7316
C13 C 0.5337(6) -0.2011(5) 0.4905(3)
H14 H 0.6507 -0.2731 0.5156
H15 H 0.5407 -0.1093 0.4656
H16 H 0.4892 -0.2172 0.4363
C14 C 0.2229(6) -0.1000(5) 0.5418(4)
H17 H 0.1496 -0.1098 0.5986
H18 H 0.1756 -0.1154 0.4883
H19 H 0.2234 -0.0061 0.5178
C15 C 0.6985(6) -0.2890(5) 1.1788(4)
H20 H 0.6460 -0.2380 1.1105
H21 H 0.7239 -0.2266 1.2045
H22 H 0.6165 -0.3242 1.2209
C16 C 0.9693(8) -0.5029(5) 1.2789(4)
H23 H 1.0742 -0.5768 1.2688
H24 H 0.8957 -0.5445 1.3242
H25 H 1.0043 -0.4478 1.3077
H26 H -0.0223 0.0581 0.8914
K1A K 0.24517(11) -0.49226(9) 1.02242(6)
K1A_2 K 1.24517(11) -0.49226(9) 1.02242(6)
S1A S 0.56722(12) -0.58298(9) 1.18403(7)
S2A S 0.76021(14) -0.82152(10) 1.02051(7)
O3A O 1.0811(4) -0.5668(3) 0.8971(2)
loop_
_geom_bond_atom_site_label_1
_geom_bond_atom_site_label_2
_geom_bond_site_symmetry_1
_geom_bond_site_symmetry_2
K1 S1 1_555 1_555
P1 S1 1_555 1_555
S1 K1A 1_555 1_555
S2 C2 1_555 1_555
O1 K1 1_555 1_555
O2 P1 1_555 1_555
N1 C1 1_555 1_555
N2 P1 1_555 1_555
O3 K1 1_555 1_555
C1 C5 1_555 1_555
C2 N1 1_555 1_555
C3 O1 1_555 1_555
H1 C3 1_555 1_555
C4 O2 1_555 1_555
H2 C4 1_555 1_555
C5 H3 1_555 1_555
C6 O3 1_555 1_555
C7 C1 1_555 1_555
H4 C7 1_555 1_555
C8 C7 1_555 1_555
H5 C8 1_555 1_555
C9 C8 1_555 1_555
H6 C9 1_555 1_555
C10 C5 1_555 1_555
H7 C10 1_555 1_555
C11 C3 1_555 1_555
H8 C11 1_555 1_555
H9 C11 1_555 1_555
H10 C11 1_555 1_555
C12 C3 1_555 1_555
H11 C12 1_555 1_555
H12 C12 1_555 1_555
H13 C12 1_555 1_555
C13 C4 1_555 1_555
H14 C13 1_555 1_555
H15 C13 1_555 1_555
H16 C13 1_555 1_555
C14 C4 1_555 1_555
H17 C14 1_555 1_555
H18 C14 1_555 1_555
H19 C14 1_555 1_555
C15 C6 1_555 1_555
H20 C15 1_555 1_555
H21 C15 1_555 1_555
H22 C15 1_555 1_555
C16 C6 1_555 1_555
H23 C16 1_555 1_555
H24 C16 1_555 1_555
H25 C16 1_555 1_555
H26 N1 1_555 1_555
K1A S2 1_555 1_555
K1A_2 O3 1_555 1_555
S1A K1 1_555 1_555
S2A K1 1_555 1_555
O3A K1 1_555 1_555
P1 O1 1_555 1_555
N2 C2 1_555 1_555
C9 C10 1_555 1_555
K1A S1A 1_555 1_555
K1A_2 O3A 1_555 1_555

#END
