
#######################################################################
#
#                 Cambridge Crystallographic Data Centre
#                                CCDC 
#
#######################################################################
#
# If this CIF has been generated from an entry in the Cambridge 
# Structural Database, then it will include bibliographic, chemical, 
# crystal, experimental, refinement or atomic coordinate data resulting 
# from the CCDC's data processing and validation procedures.
#
#######################################################################

data_YIBCER
_symmetry_cell_setting           monoclinic
_symmetry_space_group_name_H-M   'P 21/c'
_symmetry_Int_Tables_number      14
_space_group_name_Hall           '-P 2ybc'
loop_
_symmetry_equiv_pos_site_id
_symmetry_equiv_pos_as_xyz
1 x,y,z
2 -x,1/2+y,1/2-z
3 -x,-y,-z
4 x,1/2-y,1/2+z
_cell_length_a                   6.6679(2)
_cell_length_b                   12.5871(3)
_cell_length_c                   13.5837(3)
_cell_angle_alpha                90
_cell_angle_beta                 101.739(3)
_cell_angle_gamma                90
_cell_volume                     1116.23
loop_
_atom_site_label
_atom_site_type_symbol
_atom_site_fract_x
_atom_site_fract_y
_atom_site_fract_z
Zr1 Zr -0.1998(7) 0.0921(3) 0.1325(3)
P1 P -0.710(2) 0.0308(7) 0.1134(7)
F1 F -0.238(3) 0.231(1) 0.054(1)
F2 F -0.175(3) -0.046(1) 0.213(1)
F3 F -0.140(3) 0.184(1) 0.259(1)
O1 O -0.505(2) 0.092(1) 0.147(1)
O2 O -0.727(3) -0.003(1) 0.001(1)
O3 O -0.898(2) 0.093(1) 0.126(1)
N1 N -0.488(3) -0.051(2) 0.362(2)
C1 C -0.697(3) -0.089(2) 0.189(1)
C2 C -0.706(3) -0.069(2) 0.302(2)
C3 C -0.341(4) -0.129(2) 0.372(3)
C4 C -0.148(4) -0.110(2) 0.435(2)
C5 C -0.112(2) -0.014(2) 0.485(3)
C6 C -0.226(4) 0.072(2) 0.442(2)
C7 C -0.433(4) 0.049(2) 0.396(2)
O2B O -0.273(3) 0.003(1) -0.001(1)
O3_2 O 0.102(2) 0.093(1) 0.126(1)
C5B C 0.112(2) 0.014(2) 0.515(3)
Zr1B Zr -0.8002(7) -0.0921(3) -0.1325(3)
C4B C 0.148(4) 0.110(2) 0.565(2)
C6B C 0.226(4) -0.072(2) 0.558(2)
C3B C 0.341(4) 0.129(2) 0.628(3)
C7B C 0.433(4) -0.049(2) 0.604(2)
N1B N 0.488(3) 0.051(2) 0.638(2)
Zr1_2 Zr -1.1998(7) 0.0921(3) 0.1325(3)
C2B C 0.706(3) 0.069(2) 0.698(2)
C1B C 0.697(3) 0.089(2) 0.811(1)
P1B P 0.710(2) -0.0308(7) 0.8866(7)
O1B O 0.505(2) -0.092(1) 0.853(1)
O2B_2 O 0.727(3) 0.003(1) 0.999(1)
O3B O 0.898(2) -0.093(1) 0.874(1)
Zr1B_2 Zr 0.1998(7) -0.0921(3) 0.8675(3)
Zr1B_3 Zr 1.1998(7) -0.0921(3) 0.8675(3)
Zr1_3 Zr 0.8002(7) 0.0921(3) 1.1325(3)
F1_2 F 0.762(3) 0.231(1) 1.054(1)
F2_2 F 0.825(3) -0.046(1) 1.213(1)
F3_2 F 0.860(3) 0.184(1) 1.259(1)
O1_2 O 0.495(2) 0.092(1) 1.147(1)
O3_3 O 1.102(2) 0.093(1) 1.126(1)
O4 O -0.750(4) 0.258(2) 0.353(2)
loop_
_geom_bond_atom_site_label_1
_geom_bond_atom_site_label_2
_geom_bond_site_symmetry_1
_geom_bond_site_symmetry_2
Zr1 F1 1_555 1_555
P1 O1 1_555 1_555
F2 Zr1 1_555 1_555
F3 Zr1 1_555 1_555
O1 Zr1 1_555 1_555
O2 P1 1_555 1_555
O3 P1 1_555 1_555
N1 C2 1_555 1_555
C1 P1 1_555 1_555
C2 C1 1_555 1_555
C3 N1 1_555 1_555
C4 C3 1_555 1_555
C5 C4 1_555 1_555
C6 C5 1_555 1_555
C7 N1 1_555 1_555
O2B Zr1 1_555 1_555
O3_2 Zr1 1_555 1_555
C5B C5 1_555 1_555
Zr1B O2 1_555 1_555
C4B C5B 1_555 1_555
C6B C5B 1_555 1_555
C3B C4B 1_555 1_555
C7B C6B 1_555 1_555
N1B C3B 1_555 1_555
Zr1_2 O3 1_555 1_555
C2B N1B 1_555 1_555
C1B C2B 1_555 1_555
P1B C1B 1_555 1_555
O1B P1B 1_555 1_555
O2B_2 P1B 1_555 1_555
O3B P1B 1_555 1_555
Zr1B_2 O1B 1_555 1_555
Zr1B_3 O3B 1_555 1_555
Zr1_3 O2B_2 1_555 1_555
F1_2 Zr1_3 1_555 1_555
F2_2 Zr1_3 1_555 1_555
F3_2 Zr1_3 1_555 1_555
O1_2 Zr1_3 1_555 1_555
O3_3 Zr1_3 1_555 1_555
C6 C7 1_555 1_555
C7B N1B 1_555 1_555

#END
