
#######################################################################
#
#                 Cambridge Crystallographic Data Centre
#                                CCDC 
#
#######################################################################
#
# If this CIF has been generated from an entry in the Cambridge 
# Structural Database, then it will include bibliographic, chemical, 
# crystal, experimental, refinement or atomic coordinate data resulting 
# from the CCDC's data processing and validation procedures.
#
#######################################################################

data_YIBCER10
_symmetry_cell_setting           monoclinic
_symmetry_space_group_name_H-M   'P 21/c'
_symmetry_Int_Tables_number      14
_space_group_name_Hall           '-P 2ybc'
loop_
_symmetry_equiv_pos_site_id
_symmetry_equiv_pos_as_xyz
1 x,y,z
2 -x,1/2+y,1/2-z
3 -x,-y,-z
4 x,1/2-y,1/2+z
_cell_length_a                   6.651(2)
_cell_length_b                   12.550(3)
_cell_length_c                   13.486(7)
_cell_angle_alpha                90
_cell_angle_beta                 101.65(4)
_cell_angle_gamma                90
_cell_volume                     1102.49
loop_
_atom_site_label
_atom_site_type_symbol
_atom_site_fract_x
_atom_site_fract_y
_atom_site_fract_z
Zr1 Zr -0.1997(1) 0.09218(6) 0.13335(5)
P1 P -0.2903(3) -0.0276(2) -0.1087(1)
F1 F -0.2409(8) 0.2231(4) 0.0517(4)
F2 F -0.1630(7) -0.0434(4) 0.2109(4)
F3 F -0.1407(7) 0.1777(4) 0.2580(4)
O2 O -0.480(1) -0.0899(4) -0.1421(4)
O3 O -0.256(1) 0.0020(4) 0.0023(4)
O4 O -0.120(1) -0.0933(4) -0.1312(4)
N1 N -0.512(1) 0.0559(6) -0.3550(5)
C1 C -0.303(1) 0.0931(7) -0.1816(7)
C2 C -0.307(1) 0.0804(7) -0.2906(7)
C3 C -0.646(2) 0.1353(8) -0.3808(7)
C4 C -0.841(1) 0.1161(7) -0.4392(7)
C5 C -0.898(1) 0.0131(7) -0.4677(6)
C6 C -0.753(1) -0.0682(6) -0.4382(6)
C7 C -0.563(1) -0.0437(7) -0.3820(6)
Zr1B Zr -0.8003(1) -0.09218(6) -0.13335(5)
O2B O -0.520(1) 0.0899(4) 0.1421(4)
O4B O 0.120(1) 0.0933(4) 0.1312(4)
Zr1B_2 Zr 0.1997(1) -0.09218(6) -0.13335(5)
C5B C -1.102(1) -0.0131(7) -0.5323(6)
C4B C -1.159(1) -0.1161(7) -0.5608(7)
C6B C -1.247(1) 0.0682(6) -0.5618(6)
C3B C -1.354(2) -0.1353(8) -0.6192(7)
C7B C -1.437(1) 0.0437(7) -0.6180(6)
N1B N -1.488(1) -0.0559(6) -0.6450(5)
C2B C -1.693(1) -0.0804(7) -0.7094(7)
C1B C -1.697(1) -0.0931(7) -0.8184(7)
P1B P -1.7097(3) 0.0276(2) -0.8913(1)
O2B_2 O -1.520(1) 0.0899(4) -0.8579(4)
O3B O -1.744(1) -0.0020(4) -1.0023(4)
O4B_2 O -1.880(1) 0.0933(4) -0.8688(4)
Zr1_2 Zr -1.1997(1) 0.09218(6) -0.86665(5)
Zr1B_3 Zr -1.8003(1) -0.09218(6) -1.13335(5)
Zr1_3 Zr -2.1997(1) 0.09218(6) -0.86665(5)
F1B F -1.7591(8) -0.2231(4) -1.0517(4)
F2B F -1.8370(7) 0.0434(4) -1.2109(4)
F3B F -1.8593(7) -0.1777(4) -1.2580(4)
O2_2 O -1.480(1) -0.0899(4) -1.1421(4)
O4_2 O -2.120(1) -0.0933(4) -1.1312(4)
O1 O -0.752(1) 0.2440(6) 0.3557(7)
loop_
_geom_bond_atom_site_label_1
_geom_bond_atom_site_label_2
_geom_bond_site_symmetry_1
_geom_bond_site_symmetry_2
Zr1 F1 1_555 1_555
P1 O2 1_555 1_555
F2 Zr1 1_555 1_555
F3 Zr1 1_555 1_555
O2 Zr1B 1_555 1_555
O3 Zr1 1_555 1_555
O4 P1 1_555 1_555
N1 C2 1_555 1_555
C1 P1 1_555 1_555
C2 C1 1_555 1_555
C3 N1 1_555 1_555
C4 C3 1_555 1_555
C5 C4 1_555 1_555
C6 C5 1_555 1_555
C7 N1 1_555 1_555
O2B Zr1 1_555 1_555
O4B Zr1 1_555 1_555
Zr1B_2 O4 1_555 1_555
C5B C5 1_555 1_555
C4B C5B 1_555 1_555
C6B C5B 1_555 1_555
C3B C4B 1_555 1_555
C7B C6B 1_555 1_555
N1B C3B 1_555 1_555
C2B N1B 1_555 1_555
C1B C2B 1_555 1_555
P1B C1B 1_555 1_555
O2B_2 P1B 1_555 1_555
O3B P1B 1_555 1_555
O4B_2 P1B 1_555 1_555
Zr1_2 O2B_2 1_555 1_555
Zr1B_3 O3B 1_555 1_555
Zr1_3 O4B_2 1_555 1_555
F1B Zr1B_3 1_555 1_555
F2B Zr1B_3 1_555 1_555
F3B Zr1B_3 1_555 1_555
O2_2 Zr1B_3 1_555 1_555
O4_2 Zr1B_3 1_555 1_555
P1 O3 1_555 1_555
C6 C7 1_555 1_555
C7B N1B 1_555 1_555

#END
