
#######################################################################
#
#                 Cambridge Crystallographic Data Centre
#                                CCDC 
#
#######################################################################
#
# If this CIF has been generated from an entry in the Cambridge 
# Structural Database, then it will include bibliographic, chemical, 
# crystal, experimental, refinement or atomic coordinate data resulting 
# from the CCDC's data processing and validation procedures.
#
#######################################################################

data_YIBHEW
_symmetry_cell_setting           triclinic
_symmetry_space_group_name_H-M   'P -1'
_symmetry_Int_Tables_number      2
_space_group_name_Hall           '-P 1'
loop_
_symmetry_equiv_pos_site_id
_symmetry_equiv_pos_as_xyz
1 x,y,z
2 -x,-y,-z
_cell_length_a                   9.549(2)
_cell_length_b                   9.600(3)
_cell_length_c                   11.556(3)
_cell_angle_alpha                65.99(3)
_cell_angle_beta                 83.96(4)
_cell_angle_gamma                68.89(3)
_cell_volume                     901.68
loop_
_atom_site_label
_atom_site_type_symbol
_atom_site_fract_x
_atom_site_fract_y
_atom_site_fract_z
Mn1 Mn 0.0000 0.0000 0.0000
S1 S 0.5240(2) -0.3314(2) 0.0111(2)
F1 F 0.0663(6) 0.3565(5) 0.1743(5)
F2 F 0.2413(5) 0.1720(5) 0.2996(4)
F3 F 0.0230(6) 0.1705(7) 0.3193(4)
O1 O 0.0269(3) 0.1442(4) 0.0908(3)
O2 O 0.2392(3) -0.0915(4) 0.0041(3)
N1 N -0.0096(4) 0.1975(4) -0.1969(4)
C1 C 0.7020(7) -0.4310(7) 0.0783(6)
C2 C 0.7279(6) -0.3736(7) 0.1575(6)
C3 C 0.6028(5) -0.2475(6) 0.1720(5)
C4 C 0.4806(5) -0.2134(5) 0.0966(5)
C5 C 0.3267(5) -0.0977(5) 0.0833(4)
C6 C 0.2870(5) -0.0038(6) 0.1554(5)
C7 C 0.1451(5) 0.1069(5) 0.1529(5)
C8 C 0.1229(7) 0.1980(7) 0.2372(6)
C9 C 0.0970(7) 0.1680(6) -0.2761(5)
C10 C 0.1045(6) 0.2820(7) -0.3947(5)
C11 C -0.0024(5) 0.4358(5) -0.4364(4)
C12 C -0.1135(6) 0.4666(5) -0.3548(5)
C13 C -0.1125(6) 0.3454(6) -0.2375(5)
O1A O -0.0269(3) -0.1442(4) -0.0908(3)
C7A C -0.1451(5) -0.1069(5) -0.1529(5)
C6A C -0.2870(5) 0.0038(6) -0.1554(5)
C5A C -0.3267(5) 0.0977(5) -0.0833(4)
O2A O -0.2392(3) 0.0915(4) -0.0041(3)
C11A C 0.0024(5) 0.5642(5) -0.5636(4)
C10A C -0.1045(6) 0.7180(7) -0.6053(5)
C9A C -0.0970(7) 0.8320(6) -0.7239(5)
N1A N 0.0096(4) 0.8025(4) -0.8031(4)
Mn1A Mn 0.0000 1.0000 -1.0000
C13A C 0.1125(6) 0.6546(6) -0.7625(5)
C12A C 0.1135(6) 0.5334(5) -0.6452(5)
N1A_2 N 0.0096(4) -0.1975(4) 0.1969(4)
C4A C -0.4806(5) 0.2134(5) -0.0966(5)
S1A S -0.5240(2) 0.3314(2) -0.0111(2)
C1A C -0.7020(7) 0.4310(7) -0.0783(6)
C2A C -0.7279(6) 0.3736(7) -0.1575(6)
C3A C -0.6028(5) 0.2475(6) -0.1720(5)
C8A C -0.1229(7) -0.1980(7) -0.2372(6)
F1A F -0.0663(6) -0.3565(5) -0.1743(5)
F2A F -0.2413(5) -0.1720(5) -0.2996(4)
F3A F -0.0230(6) -0.1705(7) -0.3193(4)
O3 O 0.4647(7) 0.2356(9) 0.5201(6)
C14 C 0.5735(8) 0.246(1) 0.4591(8)
C15 C 0.681(1) 0.307(1) 0.495(1)
C16 C 0.608(1) 0.188(1) 0.3559(9)
loop_
_geom_bond_atom_site_label_1
_geom_bond_atom_site_label_2
_geom_bond_site_symmetry_1
_geom_bond_site_symmetry_2
Mn1 O1 1_555 1_555
S1 C1 1_555 1_555
F1 C8 1_555 1_555
F2 C8 1_555 1_555
F3 C8 1_555 1_555
O1 C7 1_555 1_555
O2 Mn1 1_555 1_555
O3 C14 1_555 1_555
N1 Mn1 1_555 1_555
C1 C2 1_555 1_555
C2 C3 1_555 1_555
C3 C4 1_555 1_555
C4 S1 1_555 1_555
C5 O2 1_555 1_555
C6 C5 1_555 1_555
C7 C6 1_555 1_555
C8 C7 1_555 1_555
C9 N1 1_555 1_555
C10 C9 1_555 1_555
C11 C10 1_555 1_555
C12 C11 1_555 1_555
C13 N1 1_555 1_555
C14 C15 1_555 1_555
C16 C14 1_555 1_555
O1A Mn1 1_555 1_555
C7A O1A 1_555 1_555
C6A C7A 1_555 1_555
C5A C6A 1_555 1_555
O2A Mn1 1_555 1_555
C11A C11 1_555 1_555
C10A C11A 1_555 1_555
C9A C10A 1_555 1_555
N1A C9A 1_555 1_555
Mn1A N1A 1_555 1_555
C13A N1A 1_555 1_555
C12A C11A 1_555 1_555
N1A_2 Mn1 1_555 1_555
C4A C5A 1_555 1_555
S1A C4A 1_555 1_555
C1A S1A 1_555 1_555
C2A C1A 1_555 1_555
C3A C4A 1_555 1_555
C8A C7A 1_555 1_555
F1A C8A 1_555 1_555
F2A C8A 1_555 1_555
F3A C8A 1_555 1_555
C4 C5 1_555 1_555
C12 C13 1_555 1_555
C5A O2A 1_555 1_555
C13A C12A 1_555 1_555
C2A C3A 1_555 1_555

#END
