
#######################################################################
#
#                 Cambridge Crystallographic Data Centre
#                                CCDC 
#
#######################################################################
#
# If this CIF has been generated from an entry in the Cambridge 
# Structural Database, then it will include bibliographic, chemical, 
# crystal, experimental, refinement or atomic coordinate data resulting 
# from the CCDC's data processing and validation procedures.
#
#######################################################################

data_YIBMUT
_symmetry_cell_setting           monoclinic
_symmetry_space_group_name_H-M   'P 21/c'
_symmetry_Int_Tables_number      14
_space_group_name_Hall           '-P 2ybc'
loop_
_symmetry_equiv_pos_site_id
_symmetry_equiv_pos_as_xyz
1 x,y,z
2 -x,1/2+y,1/2-z
3 -x,-y,-z
4 x,1/2-y,1/2+z
_cell_length_a                   13.9411(8)
_cell_length_b                   17.0817(12)
_cell_length_c                   7.6680(18)
_cell_angle_alpha                90
_cell_angle_beta                 91.974(9)
_cell_angle_gamma                90
_cell_volume                     1824.96
loop_
_atom_site_label
_atom_site_type_symbol
_atom_site_fract_x
_atom_site_fract_y
_atom_site_fract_z
N1 N 0.1354(15) 0.6208(11) 0.783(3)
H8 H 0.1802 0.5923 0.7296
H9 H 0.0803 0.6106 0.7223
C16 C 0.1577(18) 0.7014(12) 0.725(4)
H10 H 0.1056 0.7209 0.6524
H11 H 0.2154 0.7008 0.6599
H12 H 0.1667 0.7346 0.8251
C17 C 0.1225(16) 0.5759(14) 0.947(3)
H13 H 0.1136 0.6117 1.0415
H14 H 0.1785 0.5445 0.9714
H15 H 0.0673 0.5427 0.9334
Cd1 Cd 0.12674(6) 0.52202(5) 0.35893(19)
O1 O 0.0862(6) 0.4716(5) 0.6247(16)
O2 O -0.0231(5) 0.3817(5) 0.6732(13)
O3 O 0.0733(5) 0.1024(5) 0.7502(13)
O4 O 0.2237(5) 0.0706(4) 0.7314(12)
O5 O 0.7596(5) 0.3820(5) 0.7113(12)
O6 O 0.7262(5) 0.4436(5) 0.4667(13)
C1 C 0.0639(8) 0.4023(7) 0.6511(18)
C2 C 0.1601(7) 0.1208(6) 0.7205(17)
C3 C 0.1388(7) 0.3402(6) 0.6542(17)
C4 C 0.1139(7) 0.2619(6) 0.6805(17)
H1 H 0.0500 0.2484 0.6945
C5 C 0.1846(7) 0.2039(6) 0.6858(17)
C6 C 0.2795(7) 0.2252(6) 0.6627(16)
H2 H 0.3266 0.1866 0.6636
C7 C 0.3059(7) 0.3032(6) 0.6382(16)
C8 C 0.2338(7) 0.3597(7) 0.6342(17)
H3 H 0.2502 0.4118 0.6177
C9 C 0.7014(8) 0.4004(6) 0.5871(18)
C10 C 0.6011(7) 0.3707(6) 0.5932(16)
C11 C 0.5295(8) 0.4054(6) 0.4913(17)
H4 H 0.5462 0.4446 0.4138
C12 C 0.4336(7) 0.3842(6) 0.5000(16)
H5 H 0.3867 0.4085 0.4298
C13 C 0.4093(7) 0.3248(6) 0.6181(16)
C14 C 0.4809(7) 0.2873(6) 0.7166(17)
H6 H 0.4651 0.2461 0.7895
C15 C 0.5755(7) 0.3108(7) 0.7070(17)
H7 H 0.6225 0.2866 0.7769
Cd1B Cd -0.12674(6) 0.47798(5) 0.64107(19)
Cd1B_2 Cd 0.87326(6) 0.47798(5) 0.64107(19)
Cd1C Cd 0.12674(6) -0.02202(5) 0.85893(19)
O2B O 0.0231(5) 0.6183(5) 0.3268(13)
O3C O 0.0733(5) 0.3976(5) 0.2502(13)
O4C O 0.2237(5) 0.4294(4) 0.2314(12)
O5B O 0.2404(5) 0.6180(5) 0.2887(12)
O6B O 0.2738(5) 0.5564(5) 0.5333(13)
N2? N 0.5452(15) 0.4579(13) 0.014(3)
O7? O 0.4052(18) 0.5026(17) -0.051(4)
C18? C 0.4518(16) 0.4444(15) -0.001(3)
H16? H 0.4228 0.3966 0.0211
C19? C 0.587(2) 0.5345(15) -0.026(5)
H17? H 0.6118 0.5576 0.0807
H18? H 0.5389 0.5681 -0.0778
H19? H 0.6383 0.5278 -0.1049
C20? C 0.6160(19) 0.3976(15) 0.071(4)
H20? H 0.6632 0.4205 0.1490
H21? H 0.6469 0.3767 -0.0291
H22? H 0.5833 0.3562 0.1293
loop_
_geom_bond_atom_site_label_1
_geom_bond_atom_site_label_2
_geom_bond_site_symmetry_1
_geom_bond_site_symmetry_2
Cd1 O1 1_555 1_555
O1 C1 1_555 1_555
O2 C1 1_555 1_555
O3 C2 1_555 1_555
O4 C2 1_555 1_555
O5 C9 1_555 1_555
O6 C9 1_555 1_555
C1 C3 1_555 1_555
C2 C5 1_555 1_555
C3 C4 1_555 1_555
C4 H1 1_555 1_555
C5 C4 1_555 1_555
C6 C5 1_555 1_555
H2 C6 1_555 1_555
C7 C6 1_555 1_555
C8 C3 1_555 1_555
H3 C8 1_555 1_555
C9 C10 1_555 1_555
C10 C11 1_555 1_555
C11 H4 1_555 1_555
C12 C11 1_555 1_555
H5 C12 1_555 1_555
C13 C7 1_555 1_555
C14 C13 1_555 1_555
H6 C14 1_555 1_555
C15 C10 1_555 1_555
H7 C15 1_555 1_555
N1 H8 1_555 1_555
H9 N1 1_555 1_555
C16 N1 1_555 1_555
H10 C16 1_555 1_555
H11 C16 1_555 1_555
H12 C16 1_555 1_555
C17 N1 1_555 1_555
H13 C17 1_555 1_555
H14 C17 1_555 1_555
H15 C17 1_555 1_555
Cd1B O2 1_555 1_555
Cd1B_2 O5 1_555 1_555
Cd1C O3 1_555 1_555
O2B Cd1 1_555 1_555
O3C Cd1 1_555 1_555
O4C Cd1 1_555 1_555
O5B Cd1 1_555 1_555
O6B Cd1 1_555 1_555
O4 Cd1C 1_555 1_555
O6 Cd1B_2 1_555 1_555
C7 C8 1_555 1_555
C12 C13 1_555 1_555
C14 C15 1_555 1_555

#END
