
#######################################################################
#
#                 Cambridge Crystallographic Data Centre
#                                CCDC 
#
#######################################################################
#
# If this CIF has been generated from an entry in the Cambridge 
# Structural Database, then it will include bibliographic, chemical, 
# crystal, experimental, refinement or atomic coordinate data resulting 
# from the CCDC's data processing and validation procedures.
#
#######################################################################

data_YIBNUU
_symmetry_cell_setting           monoclinic
_symmetry_space_group_name_H-M   'C 2/c'
_symmetry_Int_Tables_number      15
_space_group_name_Hall           '-C 2yn'
loop_
_symmetry_equiv_pos_site_id
_symmetry_equiv_pos_as_xyz
1 x,y,z
2 -x,y,1/2-z
3 1/2+x,1/2+y,z
4 1/2-x,1/2+y,1/2-z
5 -x,-y,-z
6 x,-y,1/2+z
7 1/2-x,1/2-y,-z
8 1/2+x,1/2-y,1/2+z
_cell_length_a                   19.507(2)
_cell_length_b                   12.5344(9)
_cell_length_c                   11.6931(14)
_cell_angle_alpha                90
_cell_angle_beta                 115.375(10)
_cell_angle_gamma                90
_cell_volume                     2583.23
loop_
_atom_site_label
_atom_site_type_symbol
_atom_site_fract_x
_atom_site_fract_y
_atom_site_fract_z
O5 O 0.2701(5) 0.1988(8) 0.1476(10)
H11 H 0.3135 0.2145 0.2056
H12 H 0.2758 0.1634 0.0903
Zn1 Zn 0.0000 0.86125(9) 0.2500
N1 N -0.0870(3) 0.9683(4) 0.1748(5)
C1 C -0.1389(4) 0.9648(7) 0.0559(7)
H1 H -0.1361 0.9104 0.0040
C2 C -0.1965(4) 1.0379(7) 0.0060(8)
H2 H -0.2306 1.0324 -0.0788
C3 C -0.2053(4) 1.1192(6) 0.0780(7)
C4 C -0.1517(4) 1.1206(6) 0.2041(7)
H3 H -0.1542 1.1729 0.2586
C5 C -0.0953(4) 1.0453(6) 0.2482(7)
H4 H -0.0610 1.0476 0.3331
C6 C -0.2641(4) 1.2033(6) 0.0253(7)
H5 H -0.2782 1.2283 0.0909
H6 H -0.3090 1.1734 -0.0425
O1 O -0.0136(5) 0.8142(9) 0.0512(10)
O2 O 0.0778(7) 0.7393(8) 0.2201(8)
C7 C 0.0360(4) 0.7518(6) 0.0979(7)
C8 C 0.0510(4) 0.6647(5) 0.0224(6)
C9 C 0.0950(4) 0.5772(5) 0.0849(7)
H7 H 0.1195 0.5760 0.1728
C10 C 0.1022(4) 0.4922(5) 0.0156(6)
C11 C 0.0646(3) 0.4916(5) -0.1166(6)
H8 H 0.0693 0.4329 -0.1615
C12 C 0.0204(3) 0.5783(5) -0.1816(6)
C13 C 0.0150(3) 0.6658(5) -0.1100(6)
H9 H -0.0130 0.7254 -0.1516
O3 O 0.1727(7) 0.3966(12) 0.2009(7)
O4 O 0.1673(7) 0.3340(8) 0.0180(9)
H10 H 0.1934 0.2868 0.0651
N2 N 0.1484(4) 0.4014(6) 0.0821(7)
N1F N -0.4130(3) 1.5317(4) -0.1748(5)
C1F C -0.3611(4) 1.5352(7) -0.0559(7)
H1F H -0.3639 1.5896 -0.0040
C2F C -0.3035(4) 1.4621(7) -0.0060(8)
H2F H -0.2694 1.4676 0.0788
C3F C -0.2947(4) 1.3808(6) -0.0780(7)
C4F C -0.3483(4) 1.3794(6) -0.2041(7)
H3F H -0.3458 1.3271 -0.2586
C5F C -0.4047(4) 1.4547(6) -0.2482(7)
H4F H -0.4390 1.4524 -0.3331
C6F C -0.2359(4) 1.2967(6) -0.0253(7)
H5F H -0.2218 1.2717 -0.0909
H6F H -0.1910 1.3266 0.0425
O1A O 0.0136(5) 0.8142(9) -0.5512(10)
O2A O -0.0778(7) 0.7393(8) -0.7201(8)
C7A C -0.0360(4) 0.7518(6) -0.5979(7)
C8A C -0.0510(4) 0.6647(5) -0.5224(6)
C9A C -0.0950(4) 0.5772(5) -0.5849(7)
H7A H -0.1195 0.5760 -0.6728
C10A C -0.1022(4) 0.4922(5) -0.5156(6)
C11A C -0.0646(3) 0.4916(5) -0.3834(6)
H8A H -0.0693 0.4329 -0.3385
C12A C -0.0204(3) 0.5783(5) -0.3184(6)
C13A C -0.0150(3) 0.6658(5) -0.3900(6)
H9A H 0.0130 0.7254 -0.3484
O3A O -0.1727(7) 0.3966(12) -0.7009(7)
O4A O -0.1673(7) 0.3340(8) -0.5180(9)
H10A H -0.1934 0.2868 -0.5651
N2A N -0.1484(4) 0.4014(6) -0.5821(7)
Zn1_2 Zn 0.0000 0.86125(9) -0.7500
Zn1F Zn -0.5000 1.63875(9) -0.2500
N1A N 0.0870(3) 0.9683(4) 0.3252(5)
O2A_2 O -0.0778(7) 0.7393(8) 0.2799(8)
O6? O 0.0057(9) 0.8422(10) 0.0355(12)
O7? O 0.0437(9) 0.7445(13) 0.2072(12)
H13? H 0.1627 0.2686 0.0641
C14? C 0.1484(4) 0.4014(6) 0.0821(7)
O8? O 0.198(2) 0.403(5) 0.195(2)
O9? O 0.135(3) 0.316(2) 0.020(4)
loop_
_geom_bond_atom_site_label_1
_geom_bond_atom_site_label_2
_geom_bond_site_symmetry_1
_geom_bond_site_symmetry_2
Zn1 N1 1_555 1_555
N1 C1 1_555 1_555
C1 H1 1_555 1_555
C2 C1 1_555 1_555
H2 C2 1_555 1_555
C3 C2 1_555 1_555
C4 C3 1_555 1_555
H3 C4 1_555 1_555
C5 N1 1_555 1_555
H4 C5 1_555 1_555
C6 C3 1_555 1_555
H5 C6 1_555 1_555
H6 C6 1_555 1_555
O1 C7 1_555 1_555
O2 Zn1 1_555 1_555
C7 O2 1_555 1_555
C8 C7 1_555 1_555
C9 C8 1_555 1_555
H7 C9 1_555 1_555
C10 C9 1_555 1_555
C11 C10 1_555 1_555
H8 C11 1_555 1_555
C12 C11 1_555 1_555
C13 C8 1_555 1_555
H9 C13 1_555 1_555
O3 N2 1_555 1_555
O4 H10 1_555 1_555
N2 C10 1_555 1_555
O5 H11 1_555 1_555
H12 O5 1_555 1_555
N1F C1F 1_555 1_555
C1F H1F 1_555 1_555
C2F C1F 1_555 1_555
H2F C2F 1_555 1_555
C3F C2F 1_555 1_555
C4F C3F 1_555 1_555
H3F C4F 1_555 1_555
C5F N1F 1_555 1_555
H4F C5F 1_555 1_555
C6F C6 1_555 1_555
H5F C6F 1_555 1_555
H6F C6F 1_555 1_555
O1A C7A 1_555 1_555
O2A C7A 1_555 1_555
C7A C8A 1_555 1_555
C8A C9A 1_555 1_555
C9A H7A 1_555 1_555
C10A C9A 1_555 1_555
C11A C10A 1_555 1_555
H8A C11A 1_555 1_555
C12A C12 1_555 1_555
C13A C8A 1_555 1_555
H9A C13A 1_555 1_555
O3A N2A 1_555 1_555
O4A H10A 1_555 1_555
N2A C10A 1_555 1_555
Zn1_2 O2A 1_555 1_555
Zn1F N1F 1_555 1_555
N1A Zn1 1_555 1_555
O2A_2 Zn1 1_555 1_555
C4 C5 1_555 1_555
C12 C13 1_555 1_555
O4 N2 1_555 1_555
C3F C6F 1_555 1_555
C4F C5F 1_555 1_555
C11A C12A 1_555 1_555
C12A C13A 1_555 1_555
O4A N2A 1_555 1_555

#END
