
#######################################################################
#
#                 Cambridge Crystallographic Data Centre
#                                CCDC 
#
#######################################################################
#
# If this CIF has been generated from an entry in the Cambridge 
# Structural Database, then it will include bibliographic, chemical, 
# crystal, experimental, refinement or atomic coordinate data resulting 
# from the CCDC's data processing and validation procedures.
#
#######################################################################

data_YIBNOO
_symmetry_cell_setting           monoclinic
_symmetry_space_group_name_H-M   'P 21/c'
_symmetry_Int_Tables_number      14
_space_group_name_Hall           '-P 2ybc'
loop_
_symmetry_equiv_pos_site_id
_symmetry_equiv_pos_as_xyz
1 x,y,z
2 -x,1/2+y,1/2-z
3 -x,-y,-z
4 x,1/2-y,1/2+z
_cell_length_a                   10.1479(12)
_cell_length_b                   13.8385(15)
_cell_length_c                   28.596(2)
_cell_angle_alpha                90
_cell_angle_beta                 100.1040(10)
_cell_angle_gamma                90
_cell_volume                     3953.5
loop_
_atom_site_label
_atom_site_type_symbol
_atom_site_fract_x
_atom_site_fract_y
_atom_site_fract_z
Cd1 Cd -0.34534(7) 0.14019(6) 0.46278(3)
Cd2 Cd -0.06081(7) 0.34878(6) 0.45410(3)
O1 O 0.5134(8) 0.4415(6) 0.8018(3)
H1 H 0.4910 0.4061 0.8220
O2 O 0.4237(8) 0.3222(6) 0.7530(3)
O3 O 0.8062(7) 0.4087(6) 0.5040(2)
O4 O 0.6843(6) 0.3059(6) 0.4570(2)
O5 O 0.1143(7) 0.3522(5) 0.5164(3)
O6 O 0.1853(7) 0.3446(5) 0.4476(3)
O7 O -0.0134(7) 0.5077(5) 0.4341(2)
H2 H 0.0642 0.5209 0.4491
H3 H -0.0684 0.5454 0.4438
O8 O -0.3337(7) -0.0253(6) 0.4748(3)
H4 H -0.3671 -0.0557 0.4956
H5 H -0.2748 -0.0603 0.4656
O9 O -0.0629(6) 0.1755(5) 0.4676(2)
O10 O -0.2059(6) 0.0984(5) 0.4135(2)
O11 O 0.4290(7) 0.1318(5) 0.4545(2)
O12 O 0.4789(7) 0.1413(5) 0.3833(3)
O13 O 0.1771(9) 0.3189(7) 0.1864(3)
H6 H 0.2191 0.3514 0.1701
O14 O 0.1513(9) 0.2216(7) 0.1231(3)
N1 N -0.1283(9) 0.3304(7) 0.3749(3)
N2 N -0.3095(9) 0.3471(6) 0.0443(3)
C1 C 0.4772(11) 0.4012(10) 0.7587(4)
C2 C 0.6986(11) 0.3641(8) 0.4899(4)
C3 C 0.2079(10) 0.3552(8) 0.4914(4)
C4 C 0.5131(10) 0.4607(8) 0.7192(4)
C5 C 0.5751(11) 0.5517(9) 0.7277(4)
H7 H 0.5928 0.5774 0.7582
C6 C 0.6096(11) 0.6026(9) 0.6891(4)
H8 H 0.6497 0.6631 0.6940
C7 C 0.5845(11) 0.5637(9) 0.6435(4)
H9 H 0.6085 0.5981 0.6184
C8 C 0.5243(10) 0.4745(9) 0.6354(4)
C9 C 0.4857(10) 0.4241(9) 0.6734(4)
H10 H 0.4411 0.3654 0.6678
C10 C 0.4991(10) 0.4330(8) 0.5869(4)
C11 C 0.6054(10) 0.4215(8) 0.5614(4)
H11 H 0.6914 0.4409 0.5750
C12 C 0.5826(10) 0.3813(8) 0.5160(4)
C13 C 0.4546(9) 0.3587(7) 0.4948(4)
H12 H 0.4397 0.3335 0.4642
C14 C 0.3474(10) 0.3722(8) 0.5177(4)
C15 C 0.3726(11) 0.4051(8) 0.5637(4)
H13 H 0.3015 0.4090 0.5802
C16 C -0.0912(11) 0.1310(8) 0.4291(4)
C17 C 0.3927(10) 0.1336(8) 0.4104(4)
C18 C 0.1355(11) 0.2375(9) 0.1634(4)
C19 C 0.0164(10) 0.1188(8) 0.3994(4)
C20 C 0.1497(10) 0.1280(8) 0.4184(4)
H14 H 0.1755 0.1346 0.4511
C21 C 0.2484(10) 0.1275(8) 0.3892(4)
C22 C 0.2074(10) 0.1200(8) 0.3409(4)
H15 H 0.2715 0.1212 0.3213
C23 C 0.0735(10) 0.1105(8) 0.3204(4)
C24 C -0.0230(10) 0.1075(8) 0.3503(4)
H16 H -0.1128 0.0981 0.3374
C25 C 0.0338(10) 0.1093(9) 0.2678(4)
C26 C -0.0696(10) 0.0511(9) 0.2451(4)
H17 H -0.1173 0.0121 0.2627
C27 C -0.1012(11) 0.0519(9) 0.1953(4)
H18 H -0.1702 0.0132 0.1798
C28 C -0.0295(11) 0.1106(9) 0.1689(4)
H19 H -0.0484 0.1094 0.1359
C29 C 0.0669(11) 0.1688(9) 0.1916(4)
C30 C 0.1011(11) 0.1696(9) 0.2416(4)
H20 H 0.1682 0.2104 0.2567
C31 C -0.0408(11) 0.3460(8) 0.3463(4)
H21 H 0.0453 0.3650 0.3599
C32 C -0.0692(12) 0.3358(8) 0.2982(4)
H22 H -0.0042 0.3484 0.2797
C33 C -0.1986(12) 0.3059(9) 0.2769(4)
C34 C -0.2921(12) 0.2935(9) 0.3062(4)
H23 H -0.3799 0.2772 0.2934
C35 C -0.2545(11) 0.3054(9) 0.3547(4)
H24 H -0.3180 0.2960 0.3741
C36 C -0.2354(13) 0.2894(10) 0.2228(4)
H25 H -0.1681 0.2488 0.2125
H26 H -0.3205 0.2559 0.2157
C37 C -0.2445(14) 0.3799(10) 0.1969(4)
H27 H -0.1619 0.4156 0.2066
H28 H -0.3165 0.4180 0.2058
C38 C -0.2693(13) 0.3694(9) 0.1428(4)
C39 C -0.1657(13) 0.3740(9) 0.1186(4)
H29 H -0.0790 0.3838 0.1349
C40 C -0.1889(12) 0.3643(9) 0.0697(4)
H30 H -0.1167 0.3701 0.0539
C41 C -0.4107(12) 0.3362(9) 0.0685(4)
H31 H -0.4947 0.3190 0.0520
C42 C -0.3949(13) 0.3493(9) 0.1162(4)
H32 H -0.4687 0.3449 0.1313
Cd1_2 Cd 0.65466(7) 0.14019(6) 0.46278(3)
Cd1C Cd -0.34534(7) 0.35981(6) -0.03722(3)
Cd2_2 Cd 0.93919(7) 0.34878(6) 0.45410(3)
O3_2 O -0.1938(7) 0.4087(6) 0.5040(2)
O4_2 O -0.3157(6) 0.3059(6) 0.4570(2)
O11_2 O -0.5710(7) 0.1318(5) 0.4545(2)
O12_2 O -0.5211(7) 0.1413(5) 0.3833(3)
N2C N -0.3095(9) 0.1529(6) 0.5443(3)
O15 O 0.7019(8) 0.9389(6) 0.3586(3)
H33 H 0.6428 0.9664 0.3385
H34 H 0.7396 0.9811 0.3778
O16 O 0.8598(8) 0.6382(6) 0.9510(3)
H35 H 0.9214 0.6513 0.9742
H36 H 0.8597 0.6806 0.9297
loop_
_geom_bond_atom_site_label_1
_geom_bond_atom_site_label_2
_geom_bond_site_symmetry_1
_geom_bond_site_symmetry_2
Cd1 O8 1_555 1_555
Cd2 O5 1_555 1_555
O1 H1 1_555 1_555
O2 C1 1_555 1_555
O3 C2 1_555 1_555
O4 C2 1_555 1_555
O5 C3 1_555 1_555
O6 Cd2 1_555 1_555
O7 Cd2 1_555 1_555
H2 O7 1_555 1_555
H3 O7 1_555 1_555
O8 H4 1_555 1_555
H5 O8 1_555 1_555
O9 Cd2 1_555 1_555
O10 Cd1 1_555 1_555
O11 C17 1_555 1_555
O12 C17 1_555 1_555
O13 H6 1_555 1_555
O14 C18 1_555 1_555
N1 Cd2 1_555 1_555
N2 C40 1_555 1_555
C1 O1 1_555 1_555
C2 C12 1_555 1_555
C3 O6 1_555 1_555
C4 C1 1_555 1_555
C5 C4 1_555 1_555
H7 C5 1_555 1_555
C6 C5 1_555 1_555
H8 C6 1_555 1_555
C7 C6 1_555 1_555
H9 C7 1_555 1_555
C8 C7 1_555 1_555
C9 C4 1_555 1_555
H10 C9 1_555 1_555
C10 C8 1_555 1_555
C11 C10 1_555 1_555
H11 C11 1_555 1_555
C12 C11 1_555 1_555
C13 C12 1_555 1_555
H12 C13 1_555 1_555
C14 C3 1_555 1_555
C15 C10 1_555 1_555
H13 C15 1_555 1_555
C16 O9 1_555 1_555
C17 C21 1_555 1_555
C18 O13 1_555 1_555
C19 C16 1_555 1_555
C20 C19 1_555 1_555
H14 C20 1_555 1_555
C21 C20 1_555 1_555
C22 C21 1_555 1_555
H15 C22 1_555 1_555
C23 C22 1_555 1_555
C24 C19 1_555 1_555
H16 C24 1_555 1_555
C25 C23 1_555 1_555
C26 C25 1_555 1_555
H17 C26 1_555 1_555
C27 C26 1_555 1_555
H18 C27 1_555 1_555
C28 C27 1_555 1_555
H19 C28 1_555 1_555
C29 C18 1_555 1_555
C30 C25 1_555 1_555
H20 C30 1_555 1_555
C31 N1 1_555 1_555
H21 C31 1_555 1_555
C32 C31 1_555 1_555
H22 C32 1_555 1_555
C33 C32 1_555 1_555
C34 C33 1_555 1_555
H23 C34 1_555 1_555
C35 N1 1_555 1_555
H24 C35 1_555 1_555
C36 C33 1_555 1_555
H25 C36 1_555 1_555
H26 C36 1_555 1_555
C37 C36 1_555 1_555
H27 C37 1_555 1_555
H28 C37 1_555 1_555
C38 C37 1_555 1_555
C39 C38 1_555 1_555
H29 C39 1_555 1_555
C40 C39 1_555 1_555
H30 C40 1_555 1_555
C41 N2 1_555 1_555
H31 C41 1_555 1_555
C42 C38 1_555 1_555
H32 C42 1_555 1_555
O15 H33 1_555 1_555
H34 O15 1_555 1_555
O16 H35 1_555 1_555
H36 O16 1_555 1_555
Cd1_2 O4 1_555 1_555
Cd1C N2 1_555 1_555
Cd2_2 O3 1_555 1_555
O3_2 Cd2 1_555 1_555
O4_2 Cd1 1_555 1_555
O11_2 Cd1 1_555 1_555
O12_2 Cd1 1_555 1_555
N2C Cd1 1_555 1_555
Cd2 O4_2 1_555 1_555
O4 Cd2_2 1_555 1_555
O10 C16 1_555 1_555
O11 Cd1_2 1_555 1_555
O12 Cd1_2 1_555 1_555
C8 C9 1_555 1_555
C13 C14 1_555 1_555
C14 C15 1_555 1_555
C23 C24 1_555 1_555
C28 C29 1_555 1_555
C29 C30 1_555 1_555
C34 C35 1_555 1_555
C41 C42 1_555 1_555

#END
