
#######################################################################
#
#                 Cambridge Crystallographic Data Centre
#                                CCDC 
#
#######################################################################
#
# If this CIF has been generated from an entry in the Cambridge 
# Structural Database, then it will include bibliographic, chemical, 
# crystal, experimental, refinement or atomic coordinate data resulting 
# from the CCDC's data processing and validation procedures.
#
#######################################################################

data_YIBPIK
_symmetry_cell_setting           monoclinic
_symmetry_space_group_name_H-M   'C 2/c'
_symmetry_Int_Tables_number      15
_space_group_name_Hall           '-C 2yn'
loop_
_symmetry_equiv_pos_site_id
_symmetry_equiv_pos_as_xyz
1 x,y,z
2 -x,y,1/2-z
3 1/2+x,1/2+y,z
4 1/2-x,1/2+y,1/2-z
5 -x,-y,-z
6 x,-y,1/2+z
7 1/2-x,1/2-y,-z
8 1/2+x,1/2-y,1/2+z
_cell_length_a                   14.731(3)
_cell_length_b                   12.851(3)
_cell_length_c                   9.6901(19)
_cell_angle_alpha                90
_cell_angle_beta                 106.66(3)
_cell_angle_gamma                90
_cell_volume                     1757.41
loop_
_atom_site_label
_atom_site_type_symbol
_atom_site_fract_x
_atom_site_fract_y
_atom_site_fract_z
Mn1 Mn 0.0000 0.0000 0.0000
Cl1 Cl 0.0000 0.08874(10) -0.2500
N1 N -0.08262(18) 0.1160(2) 0.0398(3)
O1 O 0.10725(15) 0.07388(19) 0.0979(3)
O2 O 0.28019(15) 0.1371(2) 0.1749(3)
C1 C -0.0527(2) 0.2098(3) 0.0710(3)
H1 H -0.0984 0.2601 0.0783
C2 C 0.0441(2) 0.2461(3) 0.0960(3)
C3 C 0.0632(3) 0.3537(3) 0.1170(4)
H2 H 0.0124 0.4014 0.1064
C4 C 0.15502(18) 0.3895(2) 0.1527(3)
H3 H 0.1674 0.4621 0.1637
C5 C 0.23072(18) 0.3188(2) 0.1728(3)
H4 H 0.2941 0.3438 0.1988
C6 C 0.2136(2) 0.2136(3) 0.1549(3)
C7 C 0.1187(2) 0.1751(3) 0.1127(4)
C8 C 0.3770(2) 0.1685(3) 0.2159(4)
H5 H 0.3890 0.2115 0.1395
H6 H 0.4177 0.1068 0.2309
H7 H 0.3907 0.2088 0.3053
C9 C -0.1808(2) 0.0921(3) 0.0360(4)
H8 H -0.1810 0.0456 0.1161
H9 H -0.2130 0.0579 -0.0554
H10 H -0.2141 0.1567 0.0447
N1D N 0.08262(18) -0.1160(2) -0.0398(3)
O1D O -0.10725(15) -0.07388(19) -0.0979(3)
O2D O -0.28019(15) -0.1371(2) -0.1749(3)
C1D C 0.0527(2) -0.2098(3) -0.0710(3)
H1D H 0.0984 -0.2601 -0.0783
C2D C -0.0441(2) -0.2461(3) -0.0960(3)
C3D C -0.0632(3) -0.3537(3) -0.1170(4)
H2D H -0.0124 -0.4014 -0.1064
C4D C -0.15502(18) -0.3895(2) -0.1527(3)
H3D H -0.1674 -0.4621 -0.1637
C5D C -0.23072(18) -0.3188(2) -0.1728(3)
H4D H -0.2941 -0.3438 -0.1988
C6D C -0.2136(2) -0.2136(3) -0.1549(3)
C7D C -0.1187(2) -0.1751(3) -0.1127(4)
C8D C -0.3770(2) -0.1685(3) -0.2159(4)
H5D H -0.3890 -0.2115 -0.1395
H6D H -0.4177 -0.1068 -0.2309
H7D H -0.3907 -0.2088 -0.3053
C9D C 0.1808(2) -0.0921(3) -0.0360(4)
H8D H 0.1810 -0.0456 -0.1161
H9D H 0.2130 -0.0579 0.0554
H10D H 0.2141 -0.1567 -0.0447
Mn1A Mn 0.0000 0.0000 -0.5000
Cl1D Cl 0.0000 -0.08874(10) 0.2500
loop_
_geom_bond_atom_site_label_1
_geom_bond_atom_site_label_2
_geom_bond_site_symmetry_1
_geom_bond_site_symmetry_2
Mn1 Cl1 1_555 1_555
Cl1 Mn1A 1_555 1_555
N1 Mn1 1_555 1_555
O1 Mn1 1_555 1_555
O2 C6 1_555 1_555
C1 N1 1_555 1_555
H1 C1 1_555 1_555
C2 C1 1_555 1_555
C3 C2 1_555 1_555
H2 C3 1_555 1_555
C4 C3 1_555 1_555
H3 C4 1_555 1_555
C5 C4 1_555 1_555
H4 C5 1_555 1_555
C6 C5 1_555 1_555
C7 O1 1_555 1_555
C8 O2 1_555 1_555
H5 C8 1_555 1_555
H6 C8 1_555 1_555
H7 C8 1_555 1_555
C9 N1 1_555 1_555
H8 C9 1_555 1_555
H9 C9 1_555 1_555
H10 C9 1_555 1_555
N1D Mn1 1_555 1_555
O1D Mn1 1_555 1_555
O2D C6D 1_555 1_555
C1D N1D 1_555 1_555
H1D C1D 1_555 1_555
C2D C1D 1_555 1_555
C3D C2D 1_555 1_555
H2D C3D 1_555 1_555
C4D C3D 1_555 1_555
H3D C4D 1_555 1_555
C5D C4D 1_555 1_555
H4D C5D 1_555 1_555
C6D C5D 1_555 1_555
C7D O1D 1_555 1_555
C8D O2D 1_555 1_555
H5D C8D 1_555 1_555
H6D C8D 1_555 1_555
H7D C8D 1_555 1_555
C9D N1D 1_555 1_555
H8D C9D 1_555 1_555
H9D C9D 1_555 1_555
H10D C9D 1_555 1_555
Cl1D Mn1 1_555 1_555
C2 C7 1_555 1_555
C6 C7 1_555 1_555
C2D C7D 1_555 1_555
C6D C7D 1_555 1_555

#END
