
#######################################################################
#
#                 Cambridge Crystallographic Data Centre
#                                CCDC 
#
#######################################################################
#
# If this CIF has been generated from an entry in the Cambridge 
# Structural Database, then it will include bibliographic, chemical, 
# crystal, experimental, refinement or atomic coordinate data resulting 
# from the CCDC's data processing and validation procedures.
#
#######################################################################

data_YIBRAE
_symmetry_cell_setting           triclinic
_symmetry_space_group_name_H-M   'P -1'
_symmetry_Int_Tables_number      2
_space_group_name_Hall           '-P 1'
loop_
_symmetry_equiv_pos_site_id
_symmetry_equiv_pos_as_xyz
1 x,y,z
2 -x,-y,-z
_cell_length_a                   9.6530(4)
_cell_length_b                   13.8230(5)
_cell_length_c                   15.2330(8)
_cell_angle_alpha                81.369(4)
_cell_angle_beta                 78.690(4)
_cell_angle_gamma                75.595(4)
_cell_volume                     1919.45
loop_
_atom_site_label
_atom_site_type_symbol
_atom_site_fract_x
_atom_site_fract_y
_atom_site_fract_z
Ni1 Ni 0.60755(5) -0.24723(4) -0.32183(3)
Ni2 Ni 0.5000 -0.5000 0.0000
C1 C 1.4565(5) -0.7496(4) -0.4963(3)
C2 C 1.5382(5) -0.7107(4) -0.4392(3)
C3 C 1.6815(6) -0.7632(5) -0.4379(4)
H1 H 1.7203 -0.8175 -0.4714
C4 C 1.7664(6) -0.7351(6) -0.3873(4)
H2 H 1.8628 -0.7689 -0.3886
C5 C 1.7096(6) -0.6588(6) -0.3362(4)
H3 H 1.7653 -0.6423 -0.2998
C6 C 1.5675(5) -0.6044(5) -0.3377(3)
H4 H 1.5299 -0.5509 -0.3031
C7 C 1.4802(5) -0.6289(4) -0.3907(3)
C8 C 1.3313(4) -0.5664(4) -0.3917(3)
C9 C 1.3087(5) -0.4626(4) -0.3974(3)
H5 H 1.3866 -0.4336 -0.3994
C10 C 1.1701(5) -0.4010(4) -0.4002(3)
H6 H 1.1574 -0.3316 -0.4049
C11 C 1.0514(4) -0.4423(4) -0.3961(3)
C12 C 1.0742(4) -0.5451(4) -0.3900(3)
H7 H 0.9963 -0.5742 -0.3878
C13 C 1.2120(5) -0.6064(4) -0.3869(3)
H8 H 1.2240 -0.6758 -0.3816
C14 C 0.9022(4) -0.3741(4) -0.3999(3)
H9 H 0.9139 -0.3132 -0.4386
H10 H 0.8474 -0.4074 -0.4279
C15 C 0.8870(5) -0.2885(4) -0.2682(4)
H11 H 0.9380 -0.2472 -0.3141
H12 H 0.9584 -0.3352 -0.2365
C16 C 0.7835(6) -0.2220(4) -0.2027(3)
C17 C 0.7860(5) -0.4340(4) -0.2520(3)
H13 H 0.8530 -0.4515 -0.2092
H14 H 0.8053 -0.4899 -0.2876
C18 C 0.6320(4) -0.4211(3) -0.1999(3)
C19 C 0.3615(5) -0.0583(4) -0.3320(3)
H15 H 0.4263 -0.0174 -0.3551
C20 C 0.2736(5) -0.1871(4) -0.2821(3)
H16 H 0.2662 -0.2532 -0.2640
C21 C 0.1608(5) -0.1066(4) -0.2826(3)
H17 H 0.0631 -0.1068 -0.2644
C22 C 0.1370(6) 0.0801(4) -0.3296(3)
H18 H 0.0416 0.0799 -0.3409
H19 H 0.1866 0.1122 -0.3834
C23 C 0.1185(5) 0.1428(3) -0.2533(3)
C24 C 0.2362(5) 0.1653(4) -0.2280(3)
H20 H 0.3297 0.1365 -0.2548
C25 C 0.2160(5) 0.2301(4) -0.1632(3)
H21 H 0.2964 0.2438 -0.1467
C26 C 0.0785(4) 0.2747(3) -0.1226(3)
C27 C -0.0383(5) 0.2508(4) -0.1467(3)
H22 H -0.1318 0.2796 -0.1201
C28 C -0.0180(5) 0.1845(4) -0.2099(3)
H23 H -0.0982 0.1675 -0.2234
C29 C 0.0521(5) 0.3447(4) -0.0513(3)
H24 H -0.0470 0.3840 -0.0466
H25 H 0.0628 0.3052 0.0062
C30 C 0.1754(5) 0.4767(4) -0.1461(3)
H26 H 0.1308 0.4863 -0.1965
C31 C 0.2382(4) 0.4239(3) -0.0151(3)
H27 H 0.2426 0.3889 0.0418
C32 C 0.2782(4) 0.5229(3) -0.1338(3)
H28 H 0.3163 0.5702 -0.1752
C33 C 0.5678(4) -0.7008(3) -0.0829(3)
H29 H 0.5398 -0.6674 -0.1365
C34 C 0.6091(5) -0.8008(4) -0.0654(3)
H30 H 0.6155 -0.8485 -0.1039
C35 C 0.6161(4) -0.7291(3) 0.0502(3)
H31 H 0.6287 -0.7203 0.1072
C36 C 0.6964(6) -0.9182(4) 0.0675(3)
H32 H 0.6398 -0.9646 0.0604
H33 H 0.6844 -0.9118 0.1312
C37 C 0.8544(5) -0.9607(3) 0.0330(3)
C38 C 0.9606(6) -0.9171(4) 0.0461(3)
H34 H 0.9349 -0.8607 0.0773
C39 C 0.8939(6) -1.0443(4) -0.0137(3)
H35 H 0.8233 -1.0748 -0.0234
N1 N 0.8155(3) -0.3455(3) -0.3119(2)
N2 N 0.4008(4) -0.1564(3) -0.3124(2)
N3 N 0.2178(4) -0.0248(3) -0.3149(2)
N4 N 0.1504(3) 0.4131(3) -0.0693(2)
N5 N 0.3169(3) 0.4885(3) -0.0505(2)
N6 N 0.5730(3) -0.6553(2) -0.0102(2)
N7 N 0.6399(4) -0.8186(3) 0.0198(2)
O1 O 1.4304(5) -0.8346(3) -0.4691(2)
O2 O 1.4262(3) -0.6963(2) -0.56745(19)
O3 O 0.6188(3) -0.4806(2) -0.13060(17)
O4 O 0.5340(3) -0.3572(2) -0.23269(18)
O5 O 0.6527(3) -0.1932(3) -0.2147(2)
O6 O 0.8349(5) -0.1948(4) -0.1438(3)
O7 O 0.7083(5) -0.1420(3) -0.4086(3)
H36 H 0.650(8) -0.085(6) -0.408(5)
H37 H 0.666(7) -0.148(6) -0.455(3)
C33A C 1.4322(4) -1.2992(3) 0.0829(3)
H29A H 1.4602 -1.3326 0.1365
C34A C 1.3909(5) -1.1992(4) 0.0654(3)
H30A H 1.3845 -1.1515 0.1039
C35A C 1.3839(4) -1.2709(3) -0.0502(3)
H31A H 1.3713 -1.2797 -0.1072
C36A C 1.3036(6) -1.0818(4) -0.0675(3)
H32A H 1.3602 -1.0354 -0.0604
H33A H 1.3156 -1.0882 -0.1312
C37A C 1.1456(5) -1.0393(3) -0.0330(3)
C38A C 1.0394(6) -1.0829(4) -0.0461(3)
H34A H 1.0651 -1.1393 -0.0773
C39A C 1.1061(6) -0.9557(4) 0.0137(3)
H35A H 1.1767 -0.9252 0.0234
N6A N 1.4270(3) -1.3447(2) 0.0102(2)
N7A N 1.3601(4) -1.1814(3) -0.0198(2)
Ni1A Ni 0.39245(5) -0.75277(4) 0.32183(3)
C1A C -0.4565(5) -0.2504(4) 0.4963(3)
C2A C -0.5382(5) -0.2893(4) 0.4392(3)
C3A C -0.6815(6) -0.2368(5) 0.4379(4)
H1A H -0.7203 -0.1825 0.4714
C4A C -0.7664(6) -0.2649(6) 0.3873(4)
H2A H -0.8628 -0.2311 0.3886
C5A C -0.7096(6) -0.3412(6) 0.3362(4)
H3A H -0.7653 -0.3577 0.2998
C6A C -0.5675(5) -0.3956(5) 0.3377(3)
H4A H -0.5299 -0.4491 0.3031
C7A C -0.4802(5) -0.3711(4) 0.3907(3)
C8A C -0.3313(4) -0.4336(4) 0.3917(3)
C9A C -0.3087(5) -0.5374(4) 0.3974(3)
H5A H -0.3866 -0.5664 0.3994
C10A C -0.1701(5) -0.5990(4) 0.4002(3)
H6A H -0.1574 -0.6684 0.4049
C11A C -0.0514(4) -0.5577(4) 0.3961(3)
C12A C -0.0742(4) -0.4549(4) 0.3900(3)
H7A H 0.0037 -0.4258 0.3878
C13A C -0.2120(5) -0.3936(4) 0.3869(3)
H8A H -0.2240 -0.3242 0.3816
C14A C 0.0978(4) -0.6259(4) 0.3999(3)
H9A H 0.0861 -0.6868 0.4386
H10A H 0.1526 -0.5926 0.4279
C15A C 0.1130(5) -0.7115(4) 0.2682(4)
H11A H 0.0620 -0.7528 0.3141
H12A H 0.0416 -0.6648 0.2365
C16A C 0.2165(6) -0.7780(4) 0.2027(3)
C17A C 0.2140(5) -0.5660(4) 0.2520(3)
H13A H 0.1470 -0.5485 0.2092
H14A H 0.1947 -0.5101 0.2876
C18A C 0.3680(4) -0.5789(3) 0.1999(3)
C19A C 0.6385(5) -0.9417(4) 0.3320(3)
H15A H 0.5737 -0.9826 0.3551
C20A C 0.7264(5) -0.8129(4) 0.2821(3)
H16A H 0.7338 -0.7468 0.2640
C21A C 0.8392(5) -0.8934(4) 0.2826(3)
H17A H 0.9369 -0.8932 0.2644
C22A C 0.8630(6) -1.0801(4) 0.3296(3)
H18A H 0.9584 -1.0799 0.3409
H19A H 0.8134 -1.1122 0.3834
C23A C 0.8815(5) -1.1428(3) 0.2533(3)
C24A C 0.7638(5) -1.1653(4) 0.2280(3)
H20A H 0.6703 -1.1365 0.2548
C25A C 0.7840(5) -1.2301(4) 0.1632(3)
H21A H 0.7036 -1.2438 0.1467
C26A C 0.9215(4) -1.2747(3) 0.1226(3)
C27A C 1.0383(5) -1.2508(4) 0.1467(3)
H22A H 1.1318 -1.2796 0.1201
C28A C 1.0180(5) -1.1845(4) 0.2099(3)
H23A H 1.0982 -1.1675 0.2234
C29A C 0.9479(5) -1.3447(4) 0.0513(3)
H24A H 1.0470 -1.3840 0.0466
H25A H 0.9372 -1.3052 -0.0062
C30A C 0.8246(5) -1.4767(4) 0.1461(3)
H26A H 0.8692 -1.4863 0.1965
C31A C 0.7618(4) -1.4239(3) 0.0151(3)
H27A H 0.7574 -1.3889 -0.0418
C32A C 0.7218(4) -1.5229(3) 0.1338(3)
H28A H 0.6837 -1.5702 0.1752
N1A N 0.1845(3) -0.6545(3) 0.3119(2)
N2A N 0.5992(4) -0.8436(3) 0.3124(2)
N3A N 0.7822(4) -0.9752(3) 0.3149(2)
N4A N 0.8496(3) -1.4131(3) 0.0693(2)
N5A N 0.6831(3) -1.4885(3) 0.0505(2)
O1A O -0.4304(5) -0.1654(3) 0.4691(2)
O2A O -0.4262(3) -0.3037(2) 0.56745(19)
O3A O 0.3812(3) -0.5194(2) 0.13060(17)
O4A O 0.4660(3) -0.6428(2) 0.23269(18)
O5A O 0.3473(3) -0.8068(3) 0.2147(2)
O6A O 0.1651(5) -0.8052(4) 0.1438(3)
O7A O 0.2917(5) -0.8580(3) 0.4086(3)
H36A H 0.350(8) -0.915(6) 0.408(5)
H37A H 0.334(7) -0.852(6) 0.455(3)
Ni1_2 Ni -0.39245(5) -0.24723(4) 0.67817(3)
Ni1A_2 Ni 1.39245(5) -0.75277(4) -0.67817(3)
Ni2_2 Ni 0.5000 -1.5000 0.0000
Ni2_3 Ni 0.5000 0.5000 0.0000
Ni2_4 Ni 1.5000 -1.5000 0.0000
N5_2 N 0.3169(3) -0.5115(3) -0.0505(2)
N5A_2 N 0.6831(3) -0.4885(3) 0.0505(2)
N6A_2 N 0.4270(3) -0.3447(2) 0.0102(2)
O2_2 O 0.4262(3) -0.6963(2) 0.43255(19)
O2A_2 O 0.5738(3) -0.3037(2) -0.43255(19)
O8 O 0.6488(13) 0.0392(10) -0.3505(8)
O9 O 0.6425(19) 0.0076(14) -0.1927(13)
O10? O 0.6180(13) -0.0168(10) -0.1413(9)
O11? O 0.738(3) 0.021(2) -0.307(2)
loop_
_geom_bond_atom_site_label_1
_geom_bond_atom_site_label_2
_geom_bond_site_symmetry_1
_geom_bond_site_symmetry_2
Ni1 N1 1_555 1_555
Ni2 N6 1_555 1_555
C1 C2 1_555 1_555
C2 C3 1_555 1_555
C3 H1 1_555 1_555
C4 C3 1_555 1_555
H2 C4 1_555 1_555
C5 C4 1_555 1_555
H3 C5 1_555 1_555
C6 C5 1_555 1_555
H4 C6 1_555 1_555
C7 C2 1_555 1_555
C8 C7 1_555 1_555
C9 C8 1_555 1_555
H5 C9 1_555 1_555
C10 C9 1_555 1_555
H6 C10 1_555 1_555
C11 C10 1_555 1_555
C12 C11 1_555 1_555
H7 C12 1_555 1_555
C13 C8 1_555 1_555
H8 C13 1_555 1_555
C14 C11 1_555 1_555
H9 C14 1_555 1_555
H10 C14 1_555 1_555
C15 H11 1_555 1_555
H12 C15 1_555 1_555
C16 C15 1_555 1_555
C17 H13 1_555 1_555
H14 C17 1_555 1_555
C18 C17 1_555 1_555
C19 H15 1_555 1_555
C20 H16 1_555 1_555
C21 C20 1_555 1_555
H17 C21 1_555 1_555
C22 H18 1_555 1_555
H19 C22 1_555 1_555
C23 C22 1_555 1_555
C24 C23 1_555 1_555
H20 C24 1_555 1_555
C25 C24 1_555 1_555
H21 C25 1_555 1_555
C26 C25 1_555 1_555
C27 C26 1_555 1_555
H22 C27 1_555 1_555
C28 C23 1_555 1_555
H23 C28 1_555 1_555
C29 C26 1_555 1_555
H24 C29 1_555 1_555
H25 C29 1_555 1_555
C30 H26 1_555 1_555
C31 H27 1_555 1_555
C32 C30 1_555 1_555
H28 C32 1_555 1_555
C33 H29 1_555 1_555
C34 C33 1_555 1_555
H30 C34 1_555 1_555
C35 H31 1_555 1_555
C36 H32 1_555 1_555
H33 C36 1_555 1_555
C37 C36 1_555 1_555
C38 C37 1_555 1_555
H34 C38 1_555 1_555
C39 C37 1_555 1_555
H35 C39 1_555 1_555
N1 C14 1_555 1_555
N2 Ni1 1_555 1_555
N3 C19 1_555 1_555
N4 C29 1_555 1_555
N5 C31 1_555 1_555
N6 C33 1_555 1_555
N7 C34 1_555 1_555
O1 C1 1_555 1_555
O2 C1 1_555 1_555
O3 Ni2 1_555 1_555
O4 Ni1 1_555 1_555
O5 Ni1 1_555 1_555
O6 C16 1_555 1_555
O7 Ni1 1_555 1_555
H36 O7 1_555 1_555
H37 O7 1_555 1_555
C33A H29A 1_555 1_555
C34A C33A 1_555 1_555
H30A C34A 1_555 1_555
C35A H31A 1_555 1_555
C36A H32A 1_555 1_555
H33A C36A 1_555 1_555
C37A C36A 1_555 1_555
C38A C39 1_555 1_555
H34A C38A 1_555 1_555
C39A C38 1_555 1_555
H35A C39A 1_555 1_555
N6A C33A 1_555 1_555
N7A C34A 1_555 1_555
Ni1A N1A 1_555 1_555
C1A C2A 1_555 1_555
C2A C3A 1_555 1_555
C3A H1A 1_555 1_555
C4A C3A 1_555 1_555
H2A C4A 1_555 1_555
C5A C4A 1_555 1_555
H3A C5A 1_555 1_555
C6A C5A 1_555 1_555
H4A C6A 1_555 1_555
C7A C2A 1_555 1_555
C8A C7A 1_555 1_555
C9A C8A 1_555 1_555
H5A C9A 1_555 1_555
C10A C9A 1_555 1_555
H6A C10A 1_555 1_555
C11A C10A 1_555 1_555
C12A C11A 1_555 1_555
H7A C12A 1_555 1_555
C13A C8A 1_555 1_555
H8A C13A 1_555 1_555
C14A C11A 1_555 1_555
H9A C14A 1_555 1_555
H10A C14A 1_555 1_555
C15A H11A 1_555 1_555
H12A C15A 1_555 1_555
C16A C15A 1_555 1_555
C17A H13A 1_555 1_555
H14A C17A 1_555 1_555
C18A C17A 1_555 1_555
C19A H15A 1_555 1_555
C20A H16A 1_555 1_555
C21A C20A 1_555 1_555
H17A C21A 1_555 1_555
C22A H18A 1_555 1_555
H19A C22A 1_555 1_555
C23A C22A 1_555 1_555
C24A C23A 1_555 1_555
H20A C24A 1_555 1_555
C25A C24A 1_555 1_555
H21A C25A 1_555 1_555
C26A C25A 1_555 1_555
C27A C26A 1_555 1_555
H22A C27A 1_555 1_555
C28A C23A 1_555 1_555
H23A C28A 1_555 1_555
C29A C26A 1_555 1_555
H24A C29A 1_555 1_555
H25A C29A 1_555 1_555
C30A H26A 1_555 1_555
C31A H27A 1_555 1_555
C32A C30A 1_555 1_555
H28A C32A 1_555 1_555
N1A C14A 1_555 1_555
N2A Ni1A 1_555 1_555
N3A C19A 1_555 1_555
N4A C29A 1_555 1_555
N5A C31A 1_555 1_555
O1A C1A 1_555 1_555
O2A C1A 1_555 1_555
O3A Ni2 1_555 1_555
O4A Ni1A 1_555 1_555
O5A Ni1A 1_555 1_555
O6A C16A 1_555 1_555
O7A Ni1A 1_555 1_555
H36A O7A 1_555 1_555
H37A O7A 1_555 1_555
Ni1_2 O2A 1_555 1_555
Ni1A_2 O2 1_555 1_555
Ni2_2 N5A 1_555 1_555
Ni2_3 N5 1_555 1_555
Ni2_4 N6A 1_555 1_555
N5_2 Ni2 1_555 1_555
N5A_2 Ni2 1_555 1_555
N6A_2 Ni2 1_555 1_555
O2_2 Ni1A 1_555 1_555
O2A_2 Ni1 1_555 1_555
C6 C7 1_555 1_555
C12 C13 1_555 1_555
C15 N1 1_555 1_555
C16 O5 1_555 1_555
C17 N1 1_555 1_555
C18 O3 1_555 1_555
C18 O4 1_555 1_555
C19 N2 1_555 1_555
C20 N2 1_555 1_555
C21 N3 1_555 1_555
C22 N3 1_555 1_555
C27 C28 1_555 1_555
C30 N4 1_555 1_555
C31 N4 1_555 1_555
C32 N5 1_555 1_555
C35 N6 1_555 1_555
C35 N7 1_555 1_555
C36 N7 1_555 1_555
C35A N6A 1_555 1_555
C35A N7A 1_555 1_555
C36A N7A 1_555 1_555
C37A C38A 1_555 1_555
C37A C39A 1_555 1_555
C6A C7A 1_555 1_555
C12A C13A 1_555 1_555
C15A N1A 1_555 1_555
C16A O5A 1_555 1_555
C17A N1A 1_555 1_555
C18A O3A 1_555 1_555
C18A O4A 1_555 1_555
C19A N2A 1_555 1_555
C20A N2A 1_555 1_555
C21A N3A 1_555 1_555
C22A N3A 1_555 1_555
C27A C28A 1_555 1_555
C30A N4A 1_555 1_555
C31A N4A 1_555 1_555
C32A N5A 1_555 1_555

#END
