
#######################################################################
#
#                 Cambridge Crystallographic Data Centre
#                                CCDC 
#
#######################################################################
#
# If this CIF has been generated from an entry in the Cambridge 
# Structural Database, then it will include bibliographic, chemical, 
# crystal, experimental, refinement or atomic coordinate data resulting 
# from the CCDC's data processing and validation procedures.
#
#######################################################################

data_YIBSAF
_symmetry_cell_setting           triclinic
_symmetry_space_group_name_H-M   'P -1'
_symmetry_Int_Tables_number      2
_space_group_name_Hall           '-P 1'
loop_
_symmetry_equiv_pos_site_id
_symmetry_equiv_pos_as_xyz
1 x,y,z
2 -x,-y,-z
_cell_length_a                   10.1040(6)
_cell_length_b                   10.5370(8)
_cell_length_c                   15.1970(9)
_cell_angle_alpha                70.911(6)
_cell_angle_beta                 87.456(5)
_cell_angle_gamma                87.386(6)
_cell_volume                     1526.66
loop_
_atom_site_label
_atom_site_type_symbol
_atom_site_fract_x
_atom_site_fract_y
_atom_site_fract_z
Co1 Co 0.74487(3) 0.16257(3) 0.23332(2)
C1 C 0.8392(2) 0.2400(3) 0.06221(18)
C2 C 0.9379(2) 0.2670(2) -0.01922(16)
C3 C 1.0435(3) 0.3466(3) -0.01848(19)
H1 H 1.0457 0.3876 0.0271
C4 C 1.1450(3) 0.3653(3) -0.08487(19)
H2 H 1.2148 0.4198 -0.0847
C5 C 1.1424(3) 0.3031(3) -0.15115(19)
H3 H 1.2111 0.3148 -0.1956
C6 C 1.0387(2) 0.2234(3) -0.15238(18)
H4 H 1.0391 0.1810 -0.1973
C7 C 0.9335(2) 0.2051(2) -0.08780(16)
C8 C 0.8178(2) 0.1264(3) -0.09477(15)
C9 C 0.6901(2) 0.1800(3) -0.09525(17)
H5 H 0.6768 0.2649 -0.0895
C10 C 0.5819(2) 0.1098(3) -0.10417(17)
H6 H 0.4971 0.1477 -0.1036
C11 C 0.5981(2) -0.0165(3) -0.11397(16)
C12 C 0.7262(2) -0.0710(3) -0.11240(18)
H7 H 0.7394 -0.1561 -0.1178
C13 C 0.8348(2) -0.0009(3) -0.10298(17)
H8 H 0.9195 -0.0395 -0.1021
C14 C 0.4799(2) -0.0922(3) -0.12632(17)
H9 H 0.5062 -0.1863 -0.1118
H10 H 0.4106 -0.0861 -0.0815
C15 C 0.5196(2) -0.0571(3) -0.29309(18)
H11 H 0.6084 -0.0490 -0.2741
H12 H 0.5037 0.0160 -0.3504
C16 C 0.5117(2) -0.1899(3) -0.31138(19)
C17 C 0.3667(2) 0.0929(3) -0.24482(18)
H13 H 0.4374 0.1565 -0.2638
H14 H 0.3211 0.1049 -0.1904
C18 C 0.2697(2) 0.1210(3) -0.32351(17)
C19 C 1.0240(2) 0.2526(3) 0.25854(19)
H15 H 1.0661 0.1929 0.2320
C20 C 1.0865(2) 0.3357(3) 0.29395(19)
H16 H 1.1775 0.3431 0.2966
C21 C 0.8734(2) 0.3634(2) 0.30807(16)
H17 H 0.7913 0.3957 0.3230
C22 C 1.0086(3) 0.5049(3) 0.37232(18)
H18 H 0.9474 0.5809 0.3480
H19 H 1.0979 0.5375 0.3585
C23 C 0.9874(3) 0.4480(3) 0.47648(17)
H20 H 1.0467 0.3705 0.5009
H21 H 0.8971 0.4184 0.4908
N1 N 0.42358(18) -0.0445(2) -0.22074(13)
N2 N 0.88949(18) 0.2702(2) 0.26786(13)
N3 N 0.98908(19) 0.4060(2) 0.32476(13)
O1 O 0.76093(18) 0.3302(2) 0.07029(15)
O2 O 0.84672(17) 0.1266(2) 0.12387(12)
O3 O 0.40482(16) -0.25398(19) -0.28552(13)
O4 O 0.60539(19) -0.2252(2) -0.35259(18)
O5 O 0.21602(17) 0.02016(18) -0.33245(12)
O6 O 0.24687(18) 0.23921(19) -0.37068(13)
C19A C 0.9760(2) 0.7474(3) 0.74146(19)
H15A H 0.9339 0.8071 0.7680
C20A C 0.9135(2) 0.6643(3) 0.70605(19)
H16A H 0.8225 0.6569 0.7034
C21A C 1.1266(2) 0.6366(2) 0.69193(16)
H17A H 1.2087 0.6043 0.6770
C22A C 0.9914(3) 0.4951(3) 0.62768(18)
H18A H 1.0526 0.4191 0.6520
H19A H 0.9021 0.4625 0.6415
C23A C 1.0126(3) 0.5520(3) 0.52352(17)
H20A H 0.9533 0.6295 0.4991
H21A H 1.1029 0.5816 0.5092
N2A N 1.11051(18) 0.7298(2) 0.73214(13)
N3A N 1.01092(19) 0.5940(2) 0.67524(13)
Co1A Co 0.25513(3) -0.16257(3) -0.23332(2)
C1A C 0.1608(2) -0.2400(3) -0.06221(18)
C2A C 0.0621(2) -0.2670(2) 0.01922(16)
C3A C -0.0435(3) -0.3466(3) 0.01848(19)
H1A H -0.0457 -0.3876 -0.0271
C4A C -0.1450(3) -0.3653(3) 0.08487(19)
H2A H -0.2148 -0.4198 0.0847
C5A C -0.1424(3) -0.3031(3) 0.15115(19)
H3A H -0.2111 -0.3148 0.1956
C6A C -0.0387(2) -0.2234(3) 0.15238(18)
H4A H -0.0391 -0.1810 0.1973
C7A C 0.0665(2) -0.2051(2) 0.08780(16)
C8A C 0.1822(2) -0.1264(3) 0.09477(15)
C9A C 0.3099(2) -0.1800(3) 0.09525(17)
H5A H 0.3232 -0.2649 0.0895
C10A C 0.4181(2) -0.1098(3) 0.10417(17)
H6A H 0.5029 -0.1477 0.1036
C11A C 0.4019(2) 0.0165(3) 0.11397(16)
C12A C 0.2738(2) 0.0710(3) 0.11240(18)
H7A H 0.2606 0.1561 0.1178
C13A C 0.1652(2) 0.0009(3) 0.10298(17)
H8A H 0.0805 0.0395 0.1021
C14A C 0.5201(2) 0.0922(3) 0.12632(17)
H9A H 0.4938 0.1863 0.1118
H10A H 0.5894 0.0861 0.0815
C15A C 0.4804(2) 0.0571(3) 0.29309(18)
H11A H 0.3916 0.0490 0.2741
H12A H 0.4963 -0.0160 0.3504
C16A C 0.4883(2) 0.1899(3) 0.31138(19)
C17A C 0.6333(2) -0.0929(3) 0.24482(18)
H13A H 0.5626 -0.1565 0.2638
H14A H 0.6789 -0.1049 0.1904
C18A C 0.7303(2) -0.1210(3) 0.32351(17)
N1A N 0.57642(18) 0.0445(2) 0.22074(13)
O1A O 0.23907(18) -0.3302(2) -0.07029(15)
O2A O 0.15328(17) -0.1266(2) -0.12387(12)
O3A O 0.59518(16) 0.25398(19) 0.28552(13)
O4A O 0.39461(19) 0.2252(2) 0.35259(18)
O5A O 0.78398(17) -0.02016(18) 0.33245(12)
O6A O 0.75313(18) -0.23921(19) 0.37068(13)
Co1A_2 Co 1.25513(3) 0.83743(3) 0.76668(2)
N2A_2 N 0.11051(18) -0.2702(2) -0.26786(13)
Co2 Co 0.5000 0.5000 -0.5000
C24 C 0.3079(2) 0.7117(2) -0.63617(16)
H22 H 0.3172 0.6703 -0.6817
C25 C 0.3328(2) 0.7582(2) -0.51114(16)
H23 H 0.3619 0.7559 -0.4534
C26 C 0.2276(2) 0.8194(3) -0.64104(16)
H24 H 0.1719 0.8646 -0.6893
C27 C 0.1788(2) 0.9599(3) -0.53427(19)
H25 H 0.1922 1.0436 -0.5845
H26 H 0.2204 0.9663 -0.4796
C28 C 0.0317(2) 0.9421(2) -0.51358(18)
H27 H 0.0178 0.8586 -0.4632
H28 H -0.0105 0.9365 -0.5682
N4 N 0.37406(17) 0.6722(2) -0.55374(13)
N5 N 0.24410(17) 0.84923(19) -0.56064(13)
O7 O 0.60907(19) 0.5483(2) -0.62904(13)
H29 H 0.571(3) 0.548(3) -0.675(2)
H30 H 0.649(3) 0.611(3) -0.637(2)
O8 O 0.36158(18) 0.3879(2) -0.54475(14)
H31 H 0.326(3) 0.344(3) -0.502(2)
H32 H 0.381(3) 0.342(3) -0.578(2)
C24A C -0.3079(2) 1.2883(2) -0.36383(16)
H22A H -0.3172 1.3297 -0.3183
C25A C -0.3328(2) 1.2418(2) -0.48886(16)
H23A H -0.3619 1.2441 -0.5466
C26A C -0.2276(2) 1.1806(3) -0.35896(16)
H24A H -0.1719 1.1354 -0.3107
C27A C -0.1788(2) 1.0401(3) -0.46573(19)
H25A H -0.1922 0.9564 -0.4155
H26A H -0.2204 1.0337 -0.5204
C28A C -0.0317(2) 1.0579(2) -0.48642(18)
H27A H -0.0178 1.1414 -0.5368
H28A H 0.0105 1.0635 -0.4318
N4A N -0.37406(17) 1.3278(2) -0.44626(13)
N5A N -0.24410(17) 1.15077(19) -0.43936(13)
O7A O 0.39093(19) 0.4517(2) -0.37096(13)
H29A H 0.429(3) 0.452(3) -0.325(2)
H30A H 0.351(3) 0.389(3) -0.363(2)
O8A O 0.63842(18) 0.6121(2) -0.45525(14)
H31A H 0.674(3) 0.656(3) -0.498(2)
H32A H 0.619(3) 0.658(3) -0.422(2)
Co2_2 Co -0.5000 1.5000 -0.5000
N4A_2 N 0.62594(17) 0.3278(2) -0.44626(13)
O9 O 0.5337(13) 0.5270(18) -0.7958(11)
O12 O 0.3209(7) 0.4743(6) -0.9086(5)
O12A O 0.6791(7) 0.5257(6) -1.0914(5)
O10? O 0.493(2) 0.525(2) -0.7762(15)
O11? O 0.4489(10) 0.5351(11) -0.9647(6)
loop_
_geom_bond_atom_site_label_1
_geom_bond_atom_site_label_2
_geom_bond_site_symmetry_1
_geom_bond_site_symmetry_2
Co1 N2 1_555 1_555
C1 C2 1_555 1_555
C2 C3 1_555 1_555
C3 H1 1_555 1_555
C4 C3 1_555 1_555
H2 C4 1_555 1_555
C5 C4 1_555 1_555
H3 C5 1_555 1_555
C6 C5 1_555 1_555
H4 C6 1_555 1_555
C7 C2 1_555 1_555
C8 C7 1_555 1_555
C9 C8 1_555 1_555
H5 C9 1_555 1_555
C10 C9 1_555 1_555
H6 C10 1_555 1_555
C11 C10 1_555 1_555
C12 C11 1_555 1_555
H7 C12 1_555 1_555
C13 C8 1_555 1_555
H8 C13 1_555 1_555
C14 C11 1_555 1_555
H9 C14 1_555 1_555
H10 C14 1_555 1_555
C15 H11 1_555 1_555
H12 C15 1_555 1_555
C16 C15 1_555 1_555
C17 H13 1_555 1_555
H14 C17 1_555 1_555
C18 C17 1_555 1_555
C19 H15 1_555 1_555
C20 C19 1_555 1_555
H16 C20 1_555 1_555
C21 H17 1_555 1_555
C22 H18 1_555 1_555
H19 C22 1_555 1_555
C23 C22 1_555 1_555
H20 C23 1_555 1_555
H21 C23 1_555 1_555
N1 C14 1_555 1_555
N2 C19 1_555 1_555
N3 C20 1_555 1_555
O1 C1 1_555 1_555
O2 Co1 1_555 1_555
O3 C16 1_555 1_555
O4 C16 1_555 1_555
O5 C18 1_555 1_555
O6 C18 1_555 1_555
Co2 N4 1_555 1_555
C24 H22 1_555 1_555
C25 H23 1_555 1_555
C26 C24 1_555 1_555
H24 C26 1_555 1_555
C27 H25 1_555 1_555
H26 C27 1_555 1_555
C28 C27 1_555 1_555
H27 C28 1_555 1_555
H28 C28 1_555 1_555
N4 C24 1_555 1_555
N5 C25 1_555 1_555
O7 Co2 1_555 1_555
H29 O7 1_555 1_555
H30 O7 1_555 1_555
O8 Co2 1_555 1_555
H31 O8 1_555 1_555
H32 O8 1_555 1_555
C19A H15A 1_555 1_555
C20A C19A 1_555 1_555
H16A C20A 1_555 1_555
C21A H17A 1_555 1_555
C22A H18A 1_555 1_555
H19A C22A 1_555 1_555
C23A C23 1_555 1_555
H20A C23A 1_555 1_555
H21A C23A 1_555 1_555
N2A C19A 1_555 1_555
N3A C20A 1_555 1_555
Co1A N1 1_555 1_555
C1A C2A 1_555 1_555
C2A C3A 1_555 1_555
C3A H1A 1_555 1_555
C4A C3A 1_555 1_555
H2A C4A 1_555 1_555
C5A C4A 1_555 1_555
H3A C5A 1_555 1_555
C6A C5A 1_555 1_555
H4A C6A 1_555 1_555
C7A C2A 1_555 1_555
C8A C7A 1_555 1_555
C9A C8A 1_555 1_555
H5A C9A 1_555 1_555
C10A C9A 1_555 1_555
H6A C10A 1_555 1_555
C11A C10A 1_555 1_555
C12A C11A 1_555 1_555
H7A C12A 1_555 1_555
C13A C8A 1_555 1_555
H8A C13A 1_555 1_555
C14A C11A 1_555 1_555
H9A C14A 1_555 1_555
H10A C14A 1_555 1_555
C15A H11A 1_555 1_555
H12A C15A 1_555 1_555
C16A C15A 1_555 1_555
C17A H13A 1_555 1_555
H14A C17A 1_555 1_555
C18A C17A 1_555 1_555
N1A Co1 1_555 1_555
O1A C1A 1_555 1_555
O2A Co1A 1_555 1_555
O3A Co1 1_555 1_555
O4A C16A 1_555 1_555
O5A Co1 1_555 1_555
O6A C18A 1_555 1_555
Co1A_2 N2A 1_555 1_555
N2A_2 Co1A 1_555 1_555
C24A H22A 1_555 1_555
C25A H23A 1_555 1_555
C26A C24A 1_555 1_555
H24A C26A 1_555 1_555
C27A H25A 1_555 1_555
H26A C27A 1_555 1_555
C28A C28 1_555 1_555
H27A C28A 1_555 1_555
H28A C28A 1_555 1_555
N4A C24A 1_555 1_555
N5A C25A 1_555 1_555
O7A Co2 1_555 1_555
H29A O7A 1_555 1_555
H30A O7A 1_555 1_555
O8A Co2 1_555 1_555
H31A O8A 1_555 1_555
H32A O8A 1_555 1_555
Co2_2 N4A 1_555 1_555
N4A_2 Co2 1_555 1_555
C1 O2 1_555 1_555
C6 C7 1_555 1_555
C12 C13 1_555 1_555
C15 N1 1_555 1_555
C17 N1 1_555 1_555
C21 N2 1_555 1_555
C21 N3 1_555 1_555
C22 N3 1_555 1_555
O3 Co1A 1_555 1_555
O5 Co1A 1_555 1_555
C25 N4 1_555 1_555
C26 N5 1_555 1_555
C27 N5 1_555 1_555
C21A N2A 1_555 1_555
C21A N3A 1_555 1_555
C22A C23A 1_555 1_555
C22A N3A 1_555 1_555
C1A O2A 1_555 1_555
C6A C7A 1_555 1_555
C12A C13A 1_555 1_555
C14A N1A 1_555 1_555
C15A N1A 1_555 1_555
C16A O3A 1_555 1_555
C17A N1A 1_555 1_555
C18A O5A 1_555 1_555
C25A N4A 1_555 1_555
C26A N5A 1_555 1_555
C27A C28A 1_555 1_555
C27A N5A 1_555 1_555

#END
