
#######################################################################
#
#                 Cambridge Crystallographic Data Centre
#                                CCDC 
#
#######################################################################
#
# If this CIF has been generated from an entry in the Cambridge 
# Structural Database, then it will include bibliographic, chemical, 
# crystal, experimental, refinement or atomic coordinate data resulting 
# from the CCDC's data processing and validation procedures.
#
#######################################################################

data_YIBTUA
_symmetry_cell_setting           orthorhombic
_symmetry_space_group_name_H-M   'P 21 21 21'
_symmetry_Int_Tables_number      19
_space_group_name_Hall           'P 2ac 2ab'
loop_
_symmetry_equiv_pos_site_id
_symmetry_equiv_pos_as_xyz
1 x,y,z
2 1/2-x,-y,1/2+z
3 -x,1/2+y,1/2-z
4 1/2+x,1/2-y,-z
_cell_length_a                   9.5890(19)
_cell_length_b                   10.709(2)
_cell_length_c                   13.528(3)
_cell_angle_alpha                90
_cell_angle_beta                 90
_cell_angle_gamma                90
_cell_volume                     1389.17
loop_
_atom_site_label
_atom_site_type_symbol
_atom_site_fract_x
_atom_site_fract_y
_atom_site_fract_z
C1 C 0.2316(2) 0.6771(3) 0.1731(2)
H1 H 0.1557 0.6785 0.1269
H2 H 0.2322 0.7535 0.2103
H3 H 0.2205 0.6077 0.2174
C2 C 0.3804(2) 0.5602(2) 0.06601(15)
C3 C 0.2793(2) 0.4733(2) 0.04435(18)
H4 H 0.1904 0.4819 0.0709
C4 C 0.3096(2) 0.3709(2) -0.01808(18)
H5 H 0.2408 0.3126 -0.0331
C5 C 0.4400(2) 0.3583(2) -0.05592(19)
H6 H 0.4596 0.2914 -0.0975
C6 C 0.51923(19) 0.54880(16) 0.02718(14)
C7 C 0.5469(2) 0.44535(18) -0.03330(17)
C8 C 0.6825(2) 0.42142(18) -0.07572(15)
H7 H 0.6889 0.3560 -0.1207
C9 C 0.9301(2) 0.4424(2) -0.09946(16)
H8 H 0.9799 0.3952 -0.0484
C10 C 0.9215(3) 0.3608(3) -0.1908(2)
H9 H 0.8793 0.2823 -0.1739
H10 H 1.0137 0.3464 -0.2161
H11 H 0.8663 0.4018 -0.2402
C11 C 1.0106(2) 0.5621(2) -0.11817(16)
H12 H 1.1066 0.5434 -0.1354
H13 H 0.9687 0.6088 -0.1719
C12 C 0.8877(2) 0.8161(2) 0.18640(17)
C13 C 1.0276(3) 0.9285(2) 0.29444(16)
H14 H 1.021(3) 0.7085(10) -0.0410(16)
N1 N 0.79403(17) 0.48165(15) -0.05732(11)
N2 N 0.84925(19) 0.75896(18) 0.12152(14)
N3 N 0.9120(3) 0.8754(3) 0.26591(19)
N4 N 1.1163(3) 0.9755(2) 0.33321(17)
O1 O 0.35908(15) 0.66491(15) 0.12126(12)
O2 O 0.61067(13) 0.63650(13) 0.04858(10)
O3 O 1.00485(14) 0.63263(13) -0.02803(10)
Cu1 Cu 0.81054(2) 0.61973(2) 0.033828(17)
N4B N 0.8837(3) 0.4755(2) 0.16679(17)
Cu1B Cu 1.18946(2) 1.11973(2) 0.466172(17)
loop_
_geom_bond_atom_site_label_1
_geom_bond_atom_site_label_2
_geom_bond_site_symmetry_1
_geom_bond_site_symmetry_2
C1 H1 1_555 1_555
H2 C1 1_555 1_555
H3 C1 1_555 1_555
C2 C3 1_555 1_555
C3 H4 1_555 1_555
C4 C3 1_555 1_555
H5 C4 1_555 1_555
C5 C4 1_555 1_555
H6 C5 1_555 1_555
C6 C2 1_555 1_555
C7 C5 1_555 1_555
C8 C7 1_555 1_555
H7 C8 1_555 1_555
C9 H8 1_555 1_555
C10 C9 1_555 1_555
H9 C10 1_555 1_555
H10 C10 1_555 1_555
H11 C10 1_555 1_555
C11 C9 1_555 1_555
H12 C11 1_555 1_555
H13 C11 1_555 1_555
C12 N2 1_555 1_555
C13 N3 1_555 1_555
H14 O3 1_555 1_555
N1 C8 1_555 1_555
N2 Cu1 1_555 1_555
N3 C12 1_555 1_555
N4 C13 1_555 1_555
O1 C1 1_555 1_555
O2 C6 1_555 1_555
O3 C11 1_555 1_555
Cu1 N1 1_555 1_555
N4B Cu1 1_555 1_555
Cu1B N4 1_555 1_555
C2 O1 1_555 1_555
C6 C7 1_555 1_555
C9 N1 1_555 1_555
O2 Cu1 1_555 1_555
O3 Cu1 1_555 1_555

#END
