
#######################################################################
#
#                 Cambridge Crystallographic Data Centre
#                                CCDC 
#
#######################################################################
#
# If this CIF has been generated from an entry in the Cambridge 
# Structural Database, then it will include bibliographic, chemical, 
# crystal, experimental, refinement or atomic coordinate data resulting 
# from the CCDC's data processing and validation procedures.
#
#######################################################################

data_YIBTOU
_symmetry_cell_setting           orthorhombic
_symmetry_space_group_name_H-M   'P 21 21 21'
_symmetry_Int_Tables_number      19
_space_group_name_Hall           'P 2ac 2ab'
loop_
_symmetry_equiv_pos_site_id
_symmetry_equiv_pos_as_xyz
1 x,y,z
2 1/2-x,-y,1/2+z
3 1/2+x,1/2-y,-z
4 -x,1/2+y,1/2-z
_cell_length_a                   9.5860(19)
_cell_length_b                   10.713(2)
_cell_length_c                   13.527(3)
_cell_angle_alpha                90
_cell_angle_beta                 90
_cell_angle_gamma                90
_cell_volume                     1389.15
loop_
_atom_site_label
_atom_site_type_symbol
_atom_site_fract_x
_atom_site_fract_y
_atom_site_fract_z
Cu1 Cu 0.81046(2) 0.38026(2) 0.533823(18)
O1 O 1.00465(15) 0.36728(14) 0.47200(11)
H1 H 1.024(3) 0.2921(10) 0.4610(16)
N1 N 0.79401(18) 0.51823(16) 0.44280(12)
O2 O 0.61076(14) 0.36352(13) 0.54866(11)
N2 N 0.84907(19) 0.24114(19) 0.62162(15)
O3 O 0.35909(16) 0.33503(16) 0.62127(13)
C1 C 0.9302(2) 0.5576(2) 0.40051(18)
H2 H 0.9801 0.6045 0.4517
C2 C 0.5470(2) 0.55475(19) 0.46651(18)
C3 C 0.6825(2) 0.5790(2) 0.42436(16)
H3 H 0.6893 0.6447 0.3798
C4 C 0.8874(2) 0.1842(2) 0.68653(18)
C5 C 0.3803(2) 0.4397(2) 0.56596(16)
C6 C 0.2793(2) 0.5270(2) 0.54405(19)
H4 H 0.1903 0.5184 0.5705
C7 C 0.51923(19) 0.45133(17) 0.52727(15)
C8 C 0.4397(3) 0.6417(2) 0.4441(2)
H5 H 0.4592 0.7086 0.4026
N3 N 1.1165(3) 0.0247(3) 0.83313(19)
C9 C 0.3094(3) 0.6292(2) 0.4819(2)
H6 H 0.2407 0.6875 0.4671
C10 C 1.0277(3) 0.0712(2) 0.79438(18)
C11 C 0.9220(3) 0.6395(3) 0.3095(2)
H7 H 0.8680 0.5982 0.2595
H8 H 1.0144 0.6550 0.2849
H9 H 0.8785 0.7174 0.3262
N4 N 0.9119(3) 0.1242(4) 0.7658(2)
C12 C 1.0107(2) 0.4376(2) 0.38186(18)
H10 H 0.9687 0.3909 0.3281
H11 H 1.1068 0.4561 0.3647
C13 C 0.2313(3) 0.3229(3) 0.6733(2)
H12 H 0.1553 0.3214 0.6270
H13 H 0.2201 0.3925 0.7173
H14 H 0.2319 0.2468 0.7106
Cu1C Cu 1.18954(2) -0.11974(2) 0.966177(18)
N3C N 0.8835(3) 0.5247(3) 0.66687(19)
loop_
_geom_bond_atom_site_label_1
_geom_bond_atom_site_label_2
_geom_bond_site_symmetry_1
_geom_bond_site_symmetry_2
Cu1 O1 1_555 1_555
O1 H1 1_555 1_555
N1 Cu1 1_555 1_555
O2 Cu1 1_555 1_555
N2 Cu1 1_555 1_555
O3 C5 1_555 1_555
C1 N1 1_555 1_555
H2 C1 1_555 1_555
C2 C3 1_555 1_555
C3 N1 1_555 1_555
H3 C3 1_555 1_555
C4 N2 1_555 1_555
C5 C6 1_555 1_555
C6 H4 1_555 1_555
C7 O2 1_555 1_555
C8 C2 1_555 1_555
H5 C8 1_555 1_555
N3 C10 1_555 1_555
C9 C6 1_555 1_555
H6 C9 1_555 1_555
C10 N4 1_555 1_555
C11 C1 1_555 1_555
H7 C11 1_555 1_555
H8 C11 1_555 1_555
H9 C11 1_555 1_555
N4 C4 1_555 1_555
C12 O1 1_555 1_555
H10 C12 1_555 1_555
H11 C12 1_555 1_555
C13 O3 1_555 1_555
H12 C13 1_555 1_555
H13 C13 1_555 1_555
H14 C13 1_555 1_555
Cu1C N3 1_555 1_555
N3C Cu1 1_555 1_555
C1 C12 1_555 1_555
C2 C7 1_555 1_555
C5 C7 1_555 1_555
C8 C9 1_555 1_555

#END
