
#######################################################################
#
#                 Cambridge Crystallographic Data Centre
#                                CCDC 
#
#######################################################################
#
# If this CIF has been generated from an entry in the Cambridge 
# Structural Database, then it will include bibliographic, chemical, 
# crystal, experimental, refinement or atomic coordinate data resulting 
# from the CCDC's data processing and validation procedures.
#
#######################################################################

data_YIBVUC
_symmetry_cell_setting           triclinic
_symmetry_space_group_name_H-M   'P -1'
_symmetry_Int_Tables_number      2
_space_group_name_Hall           '-P 1'
loop_
_symmetry_equiv_pos_site_id
_symmetry_equiv_pos_as_xyz
1 x,y,z
2 -x,-y,-z
_cell_length_a                   12.3297(14)
_cell_length_b                   13.2302(15)
_cell_length_c                   15.6844(15)
_cell_angle_alpha                77.670(9)
_cell_angle_beta                 70.928(9)
_cell_angle_gamma                70.522(10)
_cell_volume                     2263.92
loop_
_atom_site_label
_atom_site_type_symbol
_atom_site_fract_x
_atom_site_fract_y
_atom_site_fract_z
Ag1 Ag 0.35476(3) 0.98461(3) 0.38738(2)
Ag2 Ag 0.63695(3) 0.00165(3) 0.09568(3)
O1 O 0.0900(3) 0.7828(3) 0.4299(2)
O2 O 0.8508(5) 0.0274(6) 0.0231(4)
H1 H 0.8851 0.0205 0.0617
H2 H 0.8818 0.0179 -0.0305
O3 O 0.1978(3) 0.8994(3) 0.3841(2)
O4 O 0.1086(6) 0.7853(5) 0.8710(3)
O5 O 0.0164(4) 0.9606(4) 0.8523(3)
O6 O 0.1392(4) 0.5786(3) 0.6275(3)
O7 O 0.2685(3) 0.6271(3) 0.5089(3)
N1 N 0.2971(3) 1.1232(3) 0.4603(2)
N2 N 0.1929(3) 1.2781(3) 0.5171(2)
N3 N 0.4871(3) 0.8541(3) 0.3138(3)
N4 N 0.5591(4) 0.6897(4) 0.2723(4)
N5 N 0.1863(3) 0.6458(3) 0.5780(3)
N6 N 0.4794(3) 0.2978(3) 0.2179(3)
N7 N 0.5384(3) 0.1364(3) 0.1705(3)
N8 N 0.6845(4) -0.1402(3) 0.0331(3)
N9 N 0.7973(4) -0.2917(3) -0.0278(3)
C1 C 0.1333(3) 0.8442(3) 0.5413(3)
C2 C 0.1007(4) 0.9443(3) 0.5714(3)
H3 H 0.0927 1.0062 0.5299
C3 C 0.0799(4) 0.9541(3) 0.6624(3)
H4 H 0.0572 1.0222 0.6810
C4 C 0.0928(4) 0.8630(4) 0.7253(3)
C5 C 0.1264(4) 0.7624(4) 0.6959(3)
H5 H 0.1357 0.7002 0.7370
C6 C 0.1459(3) 0.7551(3) 0.6054(3)
C7 C 0.1438(3) 0.8403(3) 0.4428(3)
C8 C 0.0707(5) 0.8707(5) 0.8249(4)
C9 C 0.1900(3) 1.1884(3) 0.4919(3)
H6 H 0.1194 1.1739 0.4963
C10 C 0.3760(3) 1.1745(3) 0.4641(3)
C11 C 0.5014(4) 1.1426(4) 0.4402(3)
H7 H 0.5459 1.0775 0.4168
C12 C 0.5552(4) 1.2108(4) 0.4527(4)
H8 H 0.6384 1.1915 0.4377
C13 C 0.4891(5) 1.3090(4) 0.4874(4)
H9 H 0.5296 1.3535 0.4942
C14 C 0.3664(4) 1.3418(3) 0.5115(3)
H10 H 0.3225 1.4069 0.5349
C15 C 0.3113(3) 1.2722(3) 0.4991(3)
C16 C 0.0881(3) 1.3660(3) 0.5536(3)
H11 H 0.1040 1.3947 0.5988
H12 H 0.0201 1.3375 0.5835
C17 C 0.0566(3) 1.4562(3) 0.4805(3)
H13 H 0.0445 1.4272 0.4337
H14 H 0.1226 1.4877 0.4528
C18 C 0.6115(4) 0.8272(3) 0.2866(3)
C19 C 0.6872(5) 0.8870(4) 0.2809(3)
H15 H 0.6572 0.9565 0.2977
C20 C 0.8085(5) 0.8400(5) 0.2494(4)
H16 H 0.8613 0.8790 0.2436
C21 C 0.8541(5) 0.7340(5) 0.2257(4)
H17 H 0.9365 0.7036 0.2064
C22 C 0.7807(5) 0.6753(4) 0.2304(4)
H18 H 0.8110 0.6058 0.2136
C23 C 0.6573(4) 0.7233(4) 0.2615(3)
C24 C 0.4616(5) 0.7697(4) 0.3038(4)
H19 H 0.3839 0.7656 0.3172
C25 C 0.5568(7) 0.5980(5) 0.2291(6)
H20 H 0.4774 0.6101 0.2231
H21 H 0.6133 0.5937 0.1691
C26 C 0.5895(7) 0.4979(5) 0.2887(6)
H22 H 0.5286 0.4991 0.3466
H23 H 0.6652 0.4894 0.2997
C27 C 0.5998(7) 0.4043(6) 0.2396(6)
H24 H 0.6473 0.4134 0.1770
H25 H 0.6407 0.3365 0.2687
C28 C 0.4790(8) 0.4003(5) 0.2414(6)
H26 H 0.4253 0.4117 0.3017
H27 H 0.4477 0.4591 0.1992
C29 C 0.5721(4) 0.2167(4) 0.1800(3)
H28 H 0.6515 0.2176 0.1625
C30 C 0.4146(4) 0.1662(3) 0.2041(3)
C31 C 0.3315(4) 0.1147(4) 0.2099(3)
H29 H 0.3555 0.0469 0.1905
C32 C 0.2124(5) 0.1657(5) 0.2450(4)
H30 H 0.1551 0.1317 0.2505
C33 C 0.1763(5) 0.2691(5) 0.2728(4)
H31 H 0.0949 0.3024 0.2953
C34 C 0.2560(4) 0.3221(4) 0.2681(3)
H32 H 0.2315 0.3902 0.2870
C35 C 0.3768(4) 0.2684(3) 0.2332(3)
C36 C 0.7943(5) -0.2000(4) -0.0027(3)
H33 H 0.8627 -0.1803 -0.0097
C37 C 0.6102(5) -0.1989(4) 0.0315(3)
C38 C 0.4862(5) -0.1768(4) 0.0609(3)
H34 H 0.4385 -0.1143 0.0875
C39 C 0.4370(5) -0.2488(5) 0.0499(4)
H35 H 0.3542 -0.2352 0.0693
C40 C 0.5071(6) -0.3431(5) 0.0099(4)
H36 H 0.4700 -0.3902 0.0027
C41 C 0.6305(5) -0.3676(4) -0.0190(3)
H37 H 0.6776 -0.4302 -0.0455
C42 C 0.6809(4) -0.2943(4) -0.0065(3)
C43 C 0.9055(5) -0.3776(4) -0.0612(4)
H38 H 0.9695 -0.3462 -0.0972
H39 H 0.8906 -0.4165 -0.1001
C44 C 0.9439(4) -0.4553(4) 0.0164(3)
H40 H 0.8797 -0.4866 0.0521
H41 H 0.9580 -0.4160 0.0555
N1A N -0.2971(3) 1.8768(3) 0.5397(2)
N2A N -0.1929(3) 1.7219(3) 0.4829(2)
C9A C -0.1900(3) 1.8116(3) 0.5081(3)
H6A H -0.1194 1.8261 0.5037
C10A C -0.3760(3) 1.8255(3) 0.5359(3)
C11A C -0.5014(4) 1.8574(4) 0.5598(3)
H7A H -0.5459 1.9225 0.5832
C12A C -0.5552(4) 1.7892(4) 0.5473(4)
H8A H -0.6384 1.8085 0.5623
C13A C -0.4891(5) 1.6910(4) 0.5126(4)
H9A H -0.5296 1.6465 0.5058
C14A C -0.3664(4) 1.6582(3) 0.4885(3)
H10A H -0.3225 1.5931 0.4651
C15A C -0.3113(3) 1.7278(3) 0.5009(3)
C16A C -0.0881(3) 1.6340(3) 0.4464(3)
H11A H -0.1040 1.6053 0.4012
H12A H -0.0201 1.6625 0.4165
C17A C -0.0566(3) 1.5438(3) 0.5195(3)
H13A H -0.0445 1.5728 0.5663
H14A H -0.1226 1.5123 0.5472
N8A N 1.3155(4) -0.8598(3) -0.0331(3)
N9A N 1.2027(4) -0.7083(3) 0.0278(3)
C36A C 1.2057(5) -0.8000(4) 0.0027(3)
H33A H 1.1373 -0.8197 0.0097
C37A C 1.3898(5) -0.8011(4) -0.0315(3)
C38A C 1.5138(5) -0.8232(4) -0.0609(3)
H34A H 1.5615 -0.8857 -0.0875
C39A C 1.5630(5) -0.7512(5) -0.0499(4)
H35A H 1.6458 -0.7648 -0.0693
C40A C 1.4929(6) -0.6569(5) -0.0099(4)
H36A H 1.5300 -0.6098 -0.0027
C41A C 1.3695(5) -0.6324(4) 0.0190(3)
H37A H 1.3224 -0.5698 0.0455
C42A C 1.3191(4) -0.7057(4) 0.0065(3)
C43A C 1.0945(5) -0.6224(4) 0.0612(4)
H38A H 1.0305 -0.6538 0.0972
H39A H 1.1094 -0.5835 0.1001
C44A C 1.0561(4) -0.5447(4) -0.0164(3)
H40A H 1.1203 -0.5134 -0.0521
H41A H 1.0420 -0.5840 -0.0555
Ag1A Ag -0.35476(3) 2.01539(3) 0.61262(2)
Ag2A Ag -0.63695(3) 2.99835(3) 0.90432(3)
O1A O -0.0900(3) 2.2172(3) 0.5701(2)
O2A O -0.8508(5) 2.9726(6) 0.9769(4)
H1A H -0.8851 2.9795 0.9383
H2A H -0.8818 2.9821 1.0305
O3A O -0.1978(3) 2.1006(3) 0.6159(2)
O4A O -0.1086(6) 2.2147(5) 0.1290(3)
O5A O -0.0164(4) 2.0394(4) 0.1477(3)
O6A O -0.1392(4) 2.4214(3) 0.3725(3)
O7A O -0.2685(3) 2.3729(3) 0.4911(3)
N3A N -0.4871(3) 2.1459(3) 0.6862(3)
N4A N -0.5591(4) 2.3103(4) 0.7277(4)
N5A N -0.1863(3) 2.3542(3) 0.4220(3)
N6A N -0.4794(3) 2.7022(3) 0.7821(3)
N7A N -0.5384(3) 2.8636(3) 0.8295(3)
C1A C -0.1333(3) 2.1558(3) 0.4587(3)
C2A C -0.1007(4) 2.0557(3) 0.4286(3)
H3A H -0.0927 1.9938 0.4701
C3A C -0.0799(4) 2.0459(3) 0.3376(3)
H4A H -0.0572 1.9778 0.3190
C4A C -0.0928(4) 2.1370(4) 0.2747(3)
C5A C -0.1264(4) 2.2376(4) 0.3041(3)
H5A H -0.1357 2.2998 0.2630
C6A C -0.1459(3) 2.2449(3) 0.3946(3)
C7A C -0.1438(3) 2.1597(3) 0.5572(3)
C8A C -0.0707(5) 2.1293(5) 0.1751(4)
C18A C -0.6115(4) 2.1728(3) 0.7134(3)
C19A C -0.6872(5) 2.1130(4) 0.7191(3)
H15A H -0.6572 2.0435 0.7023
C20A C -0.8085(5) 2.1600(5) 0.7506(4)
H16A H -0.8613 2.1210 0.7564
C21A C -0.8541(5) 2.2660(5) 0.7743(4)
H17A H -0.9365 2.2964 0.7936
C22A C -0.7807(5) 2.3247(4) 0.7696(4)
H18A H -0.8110 2.3942 0.7864
C23A C -0.6573(4) 2.2767(4) 0.7385(3)
C24A C -0.4616(5) 2.2303(4) 0.6962(4)
H19A H -0.3839 2.2344 0.6828
C25A C -0.5568(7) 2.4020(5) 0.7709(6)
H20A H -0.4774 2.3899 0.7769
H21A H -0.6133 2.4063 0.8309
C26A C -0.5895(7) 2.5021(5) 0.7113(6)
H22A H -0.5286 2.5009 0.6534
H23A H -0.6652 2.5106 0.7003
C27A C -0.5998(7) 2.5957(6) 0.7604(6)
H24A H -0.6473 2.5866 0.8230
H25A H -0.6407 2.6635 0.7313
C28A C -0.4790(8) 2.5997(5) 0.7586(6)
H26A H -0.4253 2.5883 0.6983
H27A H -0.4477 2.5409 0.8008
C29A C -0.5721(4) 2.7833(4) 0.8200(3)
H28A H -0.6515 2.7824 0.8375
C30A C -0.4146(4) 2.8338(3) 0.7959(3)
C31A C -0.3315(4) 2.8853(4) 0.7901(3)
H29A H -0.3555 2.9531 0.8095
C32A C -0.2124(5) 2.8343(5) 0.7550(4)
H30A H -0.1551 2.8683 0.7495
C33A C -0.1763(5) 2.7309(5) 0.7272(4)
H31A H -0.0949 2.6976 0.7047
C34A C -0.2560(4) 2.6779(4) 0.7319(3)
H32A H -0.2315 2.6098 0.7130
C35A C -0.3768(4) 2.7316(3) 0.7668(3)
Ag2A_2 Ag 1.36305(3) -1.00165(3) -0.09568(3)
N8A_2 N -0.6845(4) 3.1402(3) 0.9669(3)
O8 O 0.2014(4) 0.9058(4) 0.2019(3)
H50 H 0.1981 0.9048 0.2569
H51 H 0.1501 0.9545 0.1792
O9 O 0.2247(6) 0.6817(5) 0.2713(4)
H52 H 0.1922 0.6857 0.3260
H53 H 0.2128 0.6511 0.2339
O10 O 0.1864(8) 0.5772(6) 0.1471(6)
O11 O 0.1362(11) 0.7434(10) 0.0299(6)
H54 H 0.1396 0.8058 0.0151
H55 H 0.1543 0.6870 0.0684
C45? C 0.573(3) 0.5687(10) 0.296(2)
H42? H 0.6531 0.5289 0.2643
H43? H 0.5624 0.5491 0.3604
C46? C 0.483(3) 0.5388(18) 0.269(2)
H44? H 0.4937 0.5571 0.2036
H45? H 0.4026 0.5778 0.2998
C47? C 0.502(3) 0.4186(19) 0.294(2)
H46? H 0.5810 0.3796 0.3008
H47? H 0.4403 0.4002 0.3463
C48? C 0.487(4) 0.4100(14) 0.205(2)
H48? H 0.4138 0.4620 0.1948
H49? H 0.5544 0.4206 0.1550
loop_
_geom_bond_atom_site_label_1
_geom_bond_atom_site_label_2
_geom_bond_site_symmetry_1
_geom_bond_site_symmetry_2
Ag1 O3 1_555 1_555
Ag2 O2 1_555 1_555
O1 C7 1_555 1_555
O2 H1 1_555 1_555
H2 O2 1_555 1_555
O3 C7 1_555 1_555
O4 C8 1_555 1_555
O5 C8 1_555 1_555
O6 N5 1_555 1_555
O7 N5 1_555 1_555
N1 Ag1 1_555 1_555
N2 C9 1_555 1_555
N3 Ag1 1_555 1_555
N4 C23 1_555 1_555
N5 C6 1_555 1_555
N6 C28 1_555 1_555
N7 Ag2 1_555 1_555
N8 Ag2 1_555 1_555
N9 C36 1_555 1_555
C1 C2 1_555 1_555
C2 H3 1_555 1_555
C3 C2 1_555 1_555
H4 C3 1_555 1_555
C4 C3 1_555 1_555
C5 C4 1_555 1_555
H5 C5 1_555 1_555
C6 C1 1_555 1_555
C7 C1 1_555 1_555
C8 C4 1_555 1_555
C9 N1 1_555 1_555
H6 C9 1_555 1_555
C10 N1 1_555 1_555
C11 C10 1_555 1_555
H7 C11 1_555 1_555
C12 C11 1_555 1_555
H8 C12 1_555 1_555
C13 C12 1_555 1_555
H9 C13 1_555 1_555
C14 C13 1_555 1_555
H10 C14 1_555 1_555
C15 N2 1_555 1_555
C16 N2 1_555 1_555
H11 C16 1_555 1_555
H12 C16 1_555 1_555
C17 C16 1_555 1_555
H13 C17 1_555 1_555
H14 C17 1_555 1_555
C18 N3 1_555 1_555
C19 C18 1_555 1_555
H15 C19 1_555 1_555
C20 C19 1_555 1_555
H16 C20 1_555 1_555
C21 C20 1_555 1_555
H17 C21 1_555 1_555
C22 C21 1_555 1_555
H18 C22 1_555 1_555
C23 C18 1_555 1_555
C24 N3 1_555 1_555
H19 C24 1_555 1_555
C25 N4 1_555 1_555
H20 C25 1_555 1_555
H21 C25 1_555 1_555
C26 C25 1_555 1_555
H22 C26 1_555 1_555
H23 C26 1_555 1_555
C27 C26 1_555 1_555
H24 C27 1_555 1_555
H25 C27 1_555 1_555
C28 C27 1_555 1_555
H26 C28 1_555 1_555
H27 C28 1_555 1_555
C29 N6 1_555 1_555
H28 C29 1_555 1_555
C30 N7 1_555 1_555
C31 C30 1_555 1_555
H29 C31 1_555 1_555
C32 C31 1_555 1_555
H30 C32 1_555 1_555
C33 C32 1_555 1_555
H31 C33 1_555 1_555
C34 C33 1_555 1_555
H32 C34 1_555 1_555
C35 N6 1_555 1_555
C36 N8 1_555 1_555
H33 C36 1_555 1_555
C37 N8 1_555 1_555
C38 C37 1_555 1_555
H34 C38 1_555 1_555
C39 C38 1_555 1_555
H35 C39 1_555 1_555
C40 C39 1_555 1_555
H36 C40 1_555 1_555
C41 C40 1_555 1_555
H37 C41 1_555 1_555
C42 N9 1_555 1_555
C43 N9 1_555 1_555
H38 C43 1_555 1_555
H39 C43 1_555 1_555
C44 C43 1_555 1_555
H40 C44 1_555 1_555
H41 C44 1_555 1_555
O8 H50 1_555 1_555
H51 O8 1_555 1_555
O9 H52 1_555 1_555
H53 O9 1_555 1_555
O11 H54 1_555 1_555
H55 O11 1_555 1_555
N1A C9A 1_555 1_555
N2A C9A 1_555 1_555
C9A H6A 1_555 1_555
C10A N1A 1_555 1_555
C11A C10A 1_555 1_555
H7A C11A 1_555 1_555
C12A C11A 1_555 1_555
H8A C12A 1_555 1_555
C13A C12A 1_555 1_555
H9A C13A 1_555 1_555
C14A C13A 1_555 1_555
H10A C14A 1_555 1_555
C15A N2A 1_555 1_555
C16A N2A 1_555 1_555
H11A C16A 1_555 1_555
H12A C16A 1_555 1_555
C17A C17 1_555 1_555
H13A C17A 1_555 1_555
H14A C17A 1_555 1_555
N8A C36A 1_555 1_555
N9A C36A 1_555 1_555
C36A H33A 1_555 1_555
C37A N8A 1_555 1_555
C38A C37A 1_555 1_555
H34A C38A 1_555 1_555
C39A C38A 1_555 1_555
H35A C39A 1_555 1_555
C40A C39A 1_555 1_555
H36A C40A 1_555 1_555
C41A C40A 1_555 1_555
H37A C41A 1_555 1_555
C42A N9A 1_555 1_555
C43A N9A 1_555 1_555
H38A C43A 1_555 1_555
H39A C43A 1_555 1_555
C44A C44 1_555 1_555
H40A C44A 1_555 1_555
H41A C44A 1_555 1_555
Ag1A N1A 1_555 1_555
Ag2A O2A 1_555 1_555
O1A C7A 1_555 1_555
O2A H1A 1_555 1_555
H2A O2A 1_555 1_555
O3A Ag1A 1_555 1_555
O4A C8A 1_555 1_555
O5A C8A 1_555 1_555
O6A N5A 1_555 1_555
O7A N5A 1_555 1_555
N3A Ag1A 1_555 1_555
N4A C23A 1_555 1_555
N5A C6A 1_555 1_555
N6A C28A 1_555 1_555
N7A Ag2A 1_555 1_555
C1A C2A 1_555 1_555
C2A H3A 1_555 1_555
C3A C2A 1_555 1_555
H4A C3A 1_555 1_555
C4A C3A 1_555 1_555
C5A C4A 1_555 1_555
H5A C5A 1_555 1_555
C6A C1A 1_555 1_555
C7A O3A 1_555 1_555
C8A C4A 1_555 1_555
C18A N3A 1_555 1_555
C19A C18A 1_555 1_555
H15A C19A 1_555 1_555
C20A C19A 1_555 1_555
H16A C20A 1_555 1_555
C21A C20A 1_555 1_555
H17A C21A 1_555 1_555
C22A C21A 1_555 1_555
H18A C22A 1_555 1_555
C23A C18A 1_555 1_555
C24A N3A 1_555 1_555
H19A C24A 1_555 1_555
C25A N4A 1_555 1_555
H20A C25A 1_555 1_555
H21A C25A 1_555 1_555
C26A C25A 1_555 1_555
H22A C26A 1_555 1_555
H23A C26A 1_555 1_555
C27A C26A 1_555 1_555
H24A C27A 1_555 1_555
H25A C27A 1_555 1_555
C28A C27A 1_555 1_555
H26A C28A 1_555 1_555
H27A C28A 1_555 1_555
C29A N6A 1_555 1_555
H28A C29A 1_555 1_555
C30A N7A 1_555 1_555
C31A C30A 1_555 1_555
H29A C31A 1_555 1_555
C32A C31A 1_555 1_555
H30A C32A 1_555 1_555
C33A C32A 1_555 1_555
H31A C33A 1_555 1_555
C34A C33A 1_555 1_555
H32A C34A 1_555 1_555
C35A N6A 1_555 1_555
Ag2A_2 N8A 1_555 1_555
N8A_2 Ag2A 1_555 1_555
N4 C24 1_555 1_555
N7 C29 1_555 1_555
C5 C6 1_555 1_555
C10 C15 1_555 1_555
C14 C15 1_555 1_555
C22 C23 1_555 1_555
C30 C35 1_555 1_555
C34 C35 1_555 1_555
C37 C42 1_555 1_555
C41 C42 1_555 1_555
C10A C15A 1_555 1_555
C14A C15A 1_555 1_555
C16A C17A 1_555 1_555
C37A C42A 1_555 1_555
C41A C42A 1_555 1_555
C43A C44A 1_555 1_555
N4A C24A 1_555 1_555
N7A C29A 1_555 1_555
C1A C7A 1_555 1_555
C5A C6A 1_555 1_555
C22A C23A 1_555 1_555
C30A C35A 1_555 1_555
C34A C35A 1_555 1_555

#END
