
#######################################################################
#
#                 Cambridge Crystallographic Data Centre
#                                CCDC 
#
#######################################################################
#
# If this CIF has been generated from an entry in the Cambridge 
# Structural Database, then it will include bibliographic, chemical, 
# crystal, experimental, refinement or atomic coordinate data resulting 
# from the CCDC's data processing and validation procedures.
#
#######################################################################

data_YIBWOX
_symmetry_cell_setting           monoclinic
_symmetry_space_group_name_H-M   'P 21/m'
_symmetry_Int_Tables_number      11
_space_group_name_Hall           '-P 2yb'
loop_
_symmetry_equiv_pos_site_id
_symmetry_equiv_pos_as_xyz
1 x,y,z
2 -x,1/2+y,-z
3 -x,-y,-z
4 x,1/2-y,z
_cell_length_a                   6.7742(10)
_cell_length_b                   15.937(3)
_cell_length_c                   8.1168(14)
_cell_angle_alpha                90
_cell_angle_beta                 113.160(10)
_cell_angle_gamma                90
_cell_volume                     805.673
loop_
_atom_site_label
_atom_site_type_symbol
_atom_site_fract_x
_atom_site_fract_y
_atom_site_fract_z
Gd1 Gd 0.16132(2) 0.2500 0.539015(19)
O1 O 0.2891(3) -0.01764(12) 0.5605(2)
O2 O 0.5458(3) -0.13456(12) 0.8497(2)
O3 O 0.8787(2) -0.03419(11) 1.1261(2)
O4 O 0.8334(2) 0.14002(13) 1.0024(2)
O5 O 0.4464(2) 0.15436(13) 0.6891(2)
O6 O 0.1142(2) 0.12313(12) 0.3552(2)
H1 H 0.0304 0.1330 0.2523
O7 O 0.4195(4) 0.2500 0.4009(4)
H2 H 0.4044 0.2926 0.3406
O8 O -0.0652(2) 0.34655(10) 0.6264(2)
O9 O 0.2298(4) 0.2500 0.8776(3)
O10 O -0.1854(4) 0.2500 0.2935(3)
H3 H -0.2161 0.2021 0.2550
C1 C 0.5244(3) 0.08530(18) 0.7580(3)
C2 C 0.4454(3) 0.00115(16) 0.7016(3)
C3 C 0.5745(4) -0.05756(18) 0.8462(3)
C4 C 0.7450(3) -0.00876(15) 0.9820(3)
C5 C 0.7202(4) 0.07829(18) 0.9237(3)
Na1 Na 0.77466(18) 0.2500 0.77249(16)
H2C H 0.4044 0.2074 0.3406
H3C H -0.2161 0.2979 0.2550
O1C O 0.2891(3) 0.51764(12) 0.5605(2)
O2C O 0.5458(3) 0.63456(12) 0.8497(2)
O3C O 0.8787(2) 0.53419(11) 1.1261(2)
O4C O 0.8334(2) 0.35998(13) 1.0024(2)
O5C O 0.4464(2) 0.34564(13) 0.6891(2)
O6C O 0.1142(2) 0.37687(12) 0.3552(2)
H1C H 0.0304 0.3670 0.2523
O8C O -0.0652(2) 0.15345(10) 0.6264(2)
C1C C 0.5244(3) 0.41470(18) 0.7580(3)
C2C C 0.4454(3) 0.49885(16) 0.7016(3)
C3C C 0.5745(4) 0.55756(18) 0.8462(3)
C4C C 0.7450(3) 0.50876(15) 0.9820(3)
C5C C 0.7202(4) 0.42171(18) 0.9237(3)
O8_2 O 0.9348(2) 0.34655(10) 0.6264(2)
O8C_2 O 0.9348(2) 0.15345(10) 0.6264(2)
O9_2 O 1.2298(4) 0.2500 0.8776(3)
Na1_2 Na -0.22534(18) 0.2500 0.77249(16)
loop_
_geom_bond_atom_site_label_1
_geom_bond_atom_site_label_2
_geom_bond_site_symmetry_1
_geom_bond_site_symmetry_2
Gd1 O5 1_555 1_555
O1 C2 1_555 1_555
O2 C3 1_555 1_555
O3 C4 1_555 1_555
O4 C5 1_555 1_555
O5 C1 1_555 1_555
O6 Gd1 1_555 1_555
H1 O6 1_555 1_555
O7 Gd1 1_555 1_555
H2 O7 1_555 1_555
O8 Gd1 1_555 1_555
O9 Gd1 1_555 1_555
O10 Gd1 1_555 1_555
H3 O10 1_555 1_555
C1 C2 1_555 1_555
C2 C3 1_555 1_555
C3 C4 1_555 1_555
C4 C5 1_555 1_555
C5 C1 1_555 1_555
Na1 O4 1_555 1_555
H2C O7 1_555 1_555
H3C O10 1_555 1_555
O1C C2C 1_555 1_555
O2C C3C 1_555 1_555
O3C C4C 1_555 1_555
O4C Na1 1_555 1_555
O5C Gd1 1_555 1_555
O6C Gd1 1_555 1_555
H1C O6C 1_555 1_555
O8C Gd1 1_555 1_555
C1C O5C 1_555 1_555
C2C C1C 1_555 1_555
C3C C2C 1_555 1_555
C4C C3C 1_555 1_555
C5C O4C 1_555 1_555
O8_2 Na1 1_555 1_555
O8C_2 Na1 1_555 1_555
O9_2 Na1 1_555 1_555
Na1_2 O8 1_555 1_555
O5 Na1 1_555 1_555
O7 Na1 1_555 1_555
O9 Na1_2 1_555 1_555
Na1 O5C 1_555 1_555
O8C Na1_2 1_555 1_555
C1C C5C 1_555 1_555
C4C C5C 1_555 1_555

#END
