
#######################################################################
#
#                 Cambridge Crystallographic Data Centre
#                                CCDC 
#
#######################################################################
#
# If this CIF has been generated from an entry in the Cambridge 
# Structural Database, then it will include bibliographic, chemical, 
# crystal, experimental, refinement or atomic coordinate data resulting 
# from the CCDC's data processing and validation procedures.
#
#######################################################################

data_YIBXAK
_symmetry_cell_setting           monoclinic
_symmetry_space_group_name_H-M   'P 21/m'
_symmetry_Int_Tables_number      11
_space_group_name_Hall           '-P 2yb'
loop_
_symmetry_equiv_pos_site_id
_symmetry_equiv_pos_as_xyz
1 x,y,z
2 -x,1/2+y,-z
3 -x,-y,-z
4 x,1/2-y,z
_cell_length_a                   6.7395(5)
_cell_length_b                   15.8784(14)
_cell_length_c                   8.0974(6)
_cell_angle_alpha                90
_cell_angle_beta                 113.127(5)
_cell_angle_gamma                90
_cell_volume                     796.886
loop_
_atom_site_label
_atom_site_type_symbol
_atom_site_fract_x
_atom_site_fract_y
_atom_site_fract_z
Dy1 Dy 0.16085(2) 0.2500 0.03867(2)
O1 O 0.4431(3) 0.15611(12) 0.1889(2)
O2 O 0.8338(3) 0.14021(14) 0.5002(3)
O3 O 0.8793(3) -0.03476(11) 0.6267(2)
O4 O 0.5438(3) -0.13332(16) 0.3498(3)
O5 O 0.2858(3) -0.01786(11) 0.0595(2)
O6 O 0.2292(4) 0.2500 0.3744(4)
O7 O -0.0635(3) 0.34720(11) 0.1243(2)
O8 O 0.1119(3) 0.37429(12) -0.1452(2)
H1 H 0.2044 0.4092 -0.0913
O9 O -0.1859(4) 0.2500 -0.2030(4)
H2 H -0.2562 0.2098 -0.1922
O10 O 0.4193(4) 0.2500 -0.0998(3)
H3 H 0.4447 0.2014 -0.1194
C1 C 0.5225(4) 0.08498(16) 0.2585(3)
C2 C 0.7217(4) 0.08080(18) 0.4240(3)
C3 C 0.7451(4) -0.00757(18) 0.4818(4)
C4 C 0.5730(5) -0.0569(2) 0.3429(4)
C5 C 0.4421(4) 0.00156(17) 0.2009(3)
Na1 Na 0.7776(2) 0.2500 0.27530(18)
H2C H -0.2562 0.2902 -0.1922
H3C H 0.4447 0.2986 -0.1194
O1C O 0.4431(3) 0.34389(12) 0.1889(2)
O2C O 0.8338(3) 0.35979(14) 0.5002(3)
O3C O 0.8793(3) 0.53476(11) 0.6267(2)
O4C O 0.5438(3) 0.63332(16) 0.3498(3)
O5C O 0.2858(3) 0.51786(11) 0.0595(2)
O7C O -0.0635(3) 0.15280(11) 0.1243(2)
O8C O 0.1119(3) 0.12571(12) -0.1452(2)
H1C H 0.2044 0.0908 -0.0913
C1C C 0.5225(4) 0.41502(16) 0.2585(3)
C2C C 0.7217(4) 0.41920(18) 0.4240(3)
C3C C 0.7451(4) 0.50757(18) 0.4818(4)
C4C C 0.5730(5) 0.5569(2) 0.3429(4)
C5C C 0.4421(4) 0.49844(17) 0.2009(3)
O6_2 O 1.2292(4) 0.2500 0.3744(4)
O7_2 O 0.9365(3) 0.34720(11) 0.1243(2)
O7C_2 O 0.9365(3) 0.15280(11) 0.1243(2)
Na1_2 Na -0.2224(2) 0.2500 0.27530(18)
loop_
_geom_bond_atom_site_label_1
_geom_bond_atom_site_label_2
_geom_bond_site_symmetry_1
_geom_bond_site_symmetry_2
Dy1 O1 1_555 1_555
O1 C1 1_555 1_555
O2 C2 1_555 1_555
O3 C3 1_555 1_555
O4 C4 1_555 1_555
O5 C5 1_555 1_555
O6 Dy1 1_555 1_555
O7 Dy1 1_555 1_555
O8 Dy1 1_555 1_555
H1 O8 1_555 1_555
O9 Dy1 1_555 1_555
H2 O9 1_555 1_555
O10 Dy1 1_555 1_555
H3 O10 1_555 1_555
C1 C2 1_555 1_555
C2 C3 1_555 1_555
C3 C4 1_555 1_555
C4 C5 1_555 1_555
C5 C1 1_555 1_555
Na1 O1 1_555 1_555
H2C O9 1_555 1_555
H3C O10 1_555 1_555
O1C Dy1 1_555 1_555
O2C Na1 1_555 1_555
O3C C3C 1_555 1_555
O4C C4C 1_555 1_555
O5C C5C 1_555 1_555
O7C Dy1 1_555 1_555
O8C Dy1 1_555 1_555
H1C O8C 1_555 1_555
C1C O1C 1_555 1_555
C2C O2C 1_555 1_555
C3C C2C 1_555 1_555
C4C C3C 1_555 1_555
C5C C1C 1_555 1_555
O6_2 Na1 1_555 1_555
O7_2 Na1 1_555 1_555
O7C_2 Na1 1_555 1_555
Na1_2 O6 1_555 1_555
O2 Na1 1_555 1_555
O7 Na1_2 1_555 1_555
O10 Na1 1_555 1_555
Na1 O1C 1_555 1_555
O7C Na1_2 1_555 1_555
C1C C2C 1_555 1_555
C4C C5C 1_555 1_555

#END
