
#######################################################################
#
#                 Cambridge Crystallographic Data Centre
#                                CCDC 
#
#######################################################################
#
# If this CIF has been generated from an entry in the Cambridge 
# Structural Database, then it will include bibliographic, chemical, 
# crystal, experimental, refinement or atomic coordinate data resulting 
# from the CCDC's data processing and validation procedures.
#
#######################################################################

data_YIBZIU
_symmetry_cell_setting           orthorhombic
_symmetry_space_group_name_H-M   'P n a 21'
_symmetry_Int_Tables_number      33
_space_group_name_Hall           'P 2c -2n'
loop_
_symmetry_equiv_pos_site_id
_symmetry_equiv_pos_as_xyz
1 x,y,z
2 -x,-y,1/2+z
3 1/2-x,1/2+y,1/2+z
4 1/2+x,1/2-y,z
_cell_length_a                   15.8408(4)
_cell_length_b                   16.5349(3)
_cell_length_c                   9.94883(14)
_cell_angle_alpha                90
_cell_angle_beta                 90
_cell_angle_gamma                90
_cell_volume                     2605.86
loop_
_atom_site_label
_atom_site_type_symbol
_atom_site_fract_x
_atom_site_fract_y
_atom_site_fract_z
C1 C 0.3277(8) 0.0781(8) 0.3897(11)
C2 C 0.3581(7) 0.0457(6) 0.5216(10)
C3 C 0.3292(5) 0.0761(4) 0.6418(15)
H1 H 0.2903 0.1182 0.6417
C4 C 0.3576(7) 0.0447(7) 0.7635(11)
C5 C 0.4179(6) -0.0149(7) 0.7602(12)
H2 H 0.4395 -0.0325 0.8421
C6 C 0.4467(5) -0.0483(4) 0.6538(10)
H3 H 0.4851 -0.0908 0.6581
C7 C 0.4160(7) -0.0163(8) 0.5226(14)
H4 H 0.4359 -0.0380 0.4423
C8 C 0.3271(8) 0.0796(6) 0.8936(7)
C9 C 0.3590(5) 0.2695(4) 0.1426(16)
C10 C 0.4017(5) 0.3505(4) 0.1708(7)
C11 C 0.3543(6) 0.4191(5) 0.1922(11)
H5 H 0.2956 0.4174 0.1914
C12 C 0.3985(6) 0.4926(5) 0.2157(11)
H6 H 0.3685 0.5385 0.2409
C13 C 0.4772(6) 0.4968(6) 0.2030(9)
H7 H 0.5034 0.5469 0.2118
C14 C 0.5282(5) 0.4270(5) 0.1755(6)
C15 C 0.4888(5) 0.3556(5) 0.1527(16)
H8 H 0.5194 0.3106 0.1254
C16 C 0.6222(7) 0.4326(7) 0.1534(19)
In1 In 0.28902(3) 0.12699(2) 0.1433(2)
O1 O 0.2838(6) 0.1384(7) 0.3873(9)
O2 O 0.3498(5) 0.0430(5) 0.2830(6)
O3 O 0.2815(3) 0.2638(3) 0.1359(12)
O4 O 0.4024(3) 0.2072(3) 0.1375(11)
O5 O 0.6563(5) 0.3683(5) 0.145(3)
O6 O 0.6618(5) 0.4911(6) 0.1146(11)
O7 O 0.2799(8) 0.1415(9) 0.8957(13)
O8 O 0.3507(5) 0.0455(5) 1.0003(6)
In1_2 In 0.28902(3) 0.12699(2) 1.1433(2)
In1C In 0.78902(3) 0.37301(2) 0.1433(2)
O5C O 0.1563(5) 0.1317(5) 0.145(3)
O7_2 O 0.2799(8) 0.1415(9) -0.1043(13)
O8_2 O 0.3507(5) 0.0455(5) 0.0003(6)
C17 C 0.1285(9) 0.2965(7) 0.6422(18)
H9 H 0.0736 0.3139 0.6131
H10 H 0.1607 0.2789 0.5658
H11 H 0.1571 0.3407 0.6852
C18 C 0.0492(11) 0.2568(8) 0.8612(14)
H12 H 0.0191 0.3035 0.8296
H13 H 0.0791 0.2702 0.9421
H14 H 0.0099 0.2139 0.8791
N1 N 0.1191(15) 0.2263(9) 0.742(2)
H15 H 0.1692 0.2145 0.7795
H16 H 0.0998 0.1819 0.6994
loop_
_geom_bond_atom_site_label_1
_geom_bond_atom_site_label_2
_geom_bond_site_symmetry_1
_geom_bond_site_symmetry_2
C1 C2 1_555 1_555
C2 C3 1_555 1_555
C3 H1 1_555 1_555
C4 C3 1_555 1_555
C5 C4 1_555 1_555
H2 C5 1_555 1_555
C6 C5 1_555 1_555
H3 C6 1_555 1_555
C7 C2 1_555 1_555
H4 C7 1_555 1_555
C8 C4 1_555 1_555
C9 C10 1_555 1_555
C10 C11 1_555 1_555
C11 H5 1_555 1_555
C12 C11 1_555 1_555
H6 C12 1_555 1_555
C13 C12 1_555 1_555
H7 C13 1_555 1_555
C14 C13 1_555 1_555
C15 C10 1_555 1_555
H8 C15 1_555 1_555
C16 C14 1_555 1_555
In1 O1 1_555 1_555
O1 C1 1_555 1_555
O2 C1 1_555 1_555
O3 C9 1_555 1_555
O4 C9 1_555 1_555
O5 C16 1_555 1_555
O6 C16 1_555 1_555
O7 C8 1_555 1_555
O8 C8 1_555 1_555
C17 H9 1_555 1_555
H10 C17 1_555 1_555
H11 C17 1_555 1_555
C18 H12 1_555 1_555
H13 C18 1_555 1_555
H14 C18 1_555 1_555
N1 C17 1_555 1_555
H15 N1 1_555 1_555
H16 N1 1_555 1_555
In1_2 O7 1_555 1_555
In1C O5 1_555 1_555
O5C In1 1_555 1_555
O7_2 In1 1_555 1_555
O8_2 In1 1_555 1_555
C6 C7 1_555 1_555
C14 C15 1_555 1_555
In1 O2 1_555 1_555
In1 O3 1_555 1_555
In1 O4 1_555 1_555
O8 In1_2 1_555 1_555
C18 N1 1_555 1_555

#END
