
#######################################################################
#
#                 Cambridge Crystallographic Data Centre
#                                CCDC 
#
#######################################################################
#
# If this CIF has been generated from an entry in the Cambridge 
# Structural Database, then it will include bibliographic, chemical, 
# crystal, experimental, refinement or atomic coordinate data resulting 
# from the CCDC's data processing and validation procedures.
#
#######################################################################

data_YIBZOA
_symmetry_cell_setting           monoclinic
_symmetry_space_group_name_H-M   'P 21/c'
_symmetry_Int_Tables_number      14
_space_group_name_Hall           '-P 2ybc'
loop_
_symmetry_equiv_pos_site_id
_symmetry_equiv_pos_as_xyz
1 x,y,z
2 -x,1/2+y,1/2-z
3 -x,-y,-z
4 x,1/2-y,1/2+z
_cell_length_a                   11.9876(3)
_cell_length_b                   13.0329(4)
_cell_length_c                   18.3012(6)
_cell_angle_alpha                90
_cell_angle_beta                 125.260(2)
_cell_angle_gamma                90
_cell_volume                     2334.7
loop_
_atom_site_label
_atom_site_type_symbol
_atom_site_fract_x
_atom_site_fract_y
_atom_site_fract_z
C1 C 0.2763(6) 0.4677(5) 0.1242(4)
C2 C 0.2914(6) 0.5360(5) 0.1951(4)
C3 C 0.4124(6) 0.5895(5) 0.2529(4)
H1 H 0.4840 0.5849 0.2468
C4 C 0.4250(7) 0.6503(4) 0.3204(4)
C5 C 0.3170(7) 0.6579(5) 0.3288(5)
H2 H 0.3262 0.6979 0.3740
C6 C 0.1960(6) 0.6060(5) 0.2700(4)
H3 H 0.1236 0.6119 0.2753
C7 C 0.1827(6) 0.5451(5) 0.2031(4)
H4 H 0.1014 0.5104 0.1636
C8 C 0.5525(6) 0.7100(5) 0.3810(4)
C9 C 0.2257(6) 0.4649(4) -0.1181(4)
C10 C 0.2071(6) 0.5338(5) -0.1900(4)
C11 C 0.0873(6) 0.5890(5) -0.2443(4)
H5 H 0.0190 0.5854 -0.2349
C12 C 0.0695(7) 0.6499(4) -0.3129(4)
C13 C 0.1735(7) 0.6550(5) -0.3254(5)
H6 H 0.1610 0.6944 -0.3720
C14 C 0.2950(7) 0.6026(5) -0.2698(5)
H7 H 0.3647 0.6083 -0.2778
C15 C 0.3119(6) 0.5412(5) -0.2019(4)
H8 H 0.3928 0.5051 -0.1645
C16 C -0.0593(6) 0.7101(5) -0.3713(4)
In1 In 0.25212(3) 0.34414(3) 0.00527(2)
O1 O 0.1718(4) 0.4117(3) 0.0786(3)
O2 O 0.3692(4) 0.4653(3) 0.1119(3)
O3 O 0.5677(5) 0.7544(3) 0.4491(3)
O4 O 0.6422(5) 0.7200(4) 0.3669(3)
O5 O 0.1356(4) 0.4631(3) -0.1025(3)
O6 O 0.3304(4) 0.4090(3) -0.0737(3)
O7 O -0.1414(5) 0.7209(4) -0.3518(3)
O8 O -0.0793(5) 0.7490(4) -0.4428(3)
In1A In -0.25212(3) 0.84414(3) -0.50527(2)
In1A_2 In 0.74788(3) 0.84414(3) 0.49473(2)
O3A O 0.4323(5) 0.2544(3) 0.0509(3)
O4A O 0.3578(5) 0.2200(4) 0.1331(3)
O8A O 0.0793(5) 0.2490(4) -0.0572(3)
C17 C 0.4086(7) 0.1040(5) 0.9084(5)
H9 H 0.3141 0.0854 0.8771
H10 H 0.4533 0.0949 0.9716
H11 H 0.4516 0.0613 0.8887
C18 C 0.3562(8) 0.2332(6) 0.7948(5)
H12 H 0.2653 0.2055 0.7594
H13 H 0.4098 0.2021 0.7771
H14 H 0.3524 0.3060 0.7857
N1 N 0.4190(6) 0.2117(4) 0.8899(4)
H15 H 0.3785 0.2512 0.9087
H16 H 0.5078 0.2294 0.9217
C19 C 0.1834(14) 0.7924(11) 0.9900(9)
H17 H 0.1530 0.7250 0.9748
C20 C -0.0385(10) 0.8532(7) 0.8903(7)
H18 H -0.0519 0.8330 0.8353
H19 H -0.0850 0.9169 0.8815
H20 H -0.0745 0.8012 0.9084
C21 C 0.1760(11) 0.9774(8) 0.9862(7)
H21 H 0.1147 1.0262 0.9847
H22 H 0.1966 0.9980 0.9448
H23 H 0.2589 0.9745 1.0455
N2 N 0.1054(11) 0.8660(8) 0.9586(7)
O9 O 0.3199(7) 0.8172(5) 1.0498(4)
loop_
_geom_bond_atom_site_label_1
_geom_bond_atom_site_label_2
_geom_bond_site_symmetry_1
_geom_bond_site_symmetry_2
C1 C2 1_555 1_555
C2 C3 1_555 1_555
C3 H1 1_555 1_555
C4 C3 1_555 1_555
C5 C4 1_555 1_555
H2 C5 1_555 1_555
C6 C5 1_555 1_555
H3 C6 1_555 1_555
C7 C2 1_555 1_555
H4 C7 1_555 1_555
C8 C4 1_555 1_555
C9 C10 1_555 1_555
C10 C11 1_555 1_555
C11 H5 1_555 1_555
C12 C11 1_555 1_555
C13 C12 1_555 1_555
H6 C13 1_555 1_555
C14 C13 1_555 1_555
H7 C14 1_555 1_555
C15 C10 1_555 1_555
H8 C15 1_555 1_555
C16 C12 1_555 1_555
In1 O1 1_555 1_555
O1 C1 1_555 1_555
O2 C1 1_555 1_555
O3 C8 1_555 1_555
O4 C8 1_555 1_555
O5 C9 1_555 1_555
O6 C9 1_555 1_555
O7 C16 1_555 1_555
O8 C16 1_555 1_555
C17 H9 1_555 1_555
H10 C17 1_555 1_555
H11 C17 1_555 1_555
C18 H12 1_555 1_555
H13 C18 1_555 1_555
H14 C18 1_555 1_555
N1 C17 1_555 1_555
H15 N1 1_555 1_555
H16 N1 1_555 1_555
C19 H17 1_555 1_555
C20 H18 1_555 1_555
H19 C20 1_555 1_555
H20 C20 1_555 1_555
C21 H21 1_555 1_555
H22 C21 1_555 1_555
H23 C21 1_555 1_555
N2 C19 1_555 1_555
O9 C19 1_555 1_555
In1A O8 1_555 1_555
In1A_2 O3 1_555 1_555
O3A In1 1_555 1_555
O4A In1 1_555 1_555
O8A In1 1_555 1_555
C6 C7 1_555 1_555
C14 C15 1_555 1_555
In1 O2 1_555 1_555
In1 O5 1_555 1_555
In1 O6 1_555 1_555
O4 In1A_2 1_555 1_555
C18 N1 1_555 1_555
C20 N2 1_555 1_555
C21 N2 1_555 1_555

#END
