
#######################################################################
#
#                 Cambridge Crystallographic Data Centre
#                                CCDC 
#
#######################################################################
#
# If this CIF has been generated from an entry in the Cambridge 
# Structural Database, then it will include bibliographic, chemical, 
# crystal, experimental, refinement or atomic coordinate data resulting 
# from the CCDC's data processing and validation procedures.
#
#######################################################################

data_YICBIW
_symmetry_cell_setting           orthorhombic
_symmetry_space_group_name_H-M   'P 21 21 21'
_symmetry_Int_Tables_number      19
_space_group_name_Hall           'P 2ac 2ab'
loop_
_symmetry_equiv_pos_site_id
_symmetry_equiv_pos_as_xyz
1 x,y,z
2 1/2-x,-y,1/2+z
3 -x,1/2+y,1/2-z
4 1/2+x,1/2-y,-z
_cell_length_a                   6.636(3)
_cell_length_b                   6.980(3)
_cell_length_c                   18.980(8)
_cell_angle_alpha                90
_cell_angle_beta                 90
_cell_angle_gamma                90
_cell_volume                     879.14
loop_
_atom_site_label
_atom_site_type_symbol
_atom_site_fract_x
_atom_site_fract_y
_atom_site_fract_z
Er1 Er 0.38401(5) 0.85657(4) 0.224560(15)
N1 N 0.2392(11) 0.9588(11) 0.1047(3)
O1 O 0.0369(9) 0.8057(8) -0.1353(3)
O2 O 0.1454(8) 1.1037(8) -0.1558(3)
C1 C 0.1074(13) 0.9631(11) -0.1162(3)
C2 C 0.1460(12) 0.9832(11) -0.0372(4)
C3 C 0.3066(13) 1.0825(12) -0.0107(4)
H1 H 0.3845 1.1603 -0.0397
C4 C 0.3506(14) 1.0645(12) 0.0605(4)
H2 H 0.4624 1.1286 0.0783
C5 C 0.0238(13) 0.8828(12) 0.0079(4)
H3 H -0.0898 0.8193 -0.0088
C6 C 0.0732(12) 0.8777(13) 0.0788(4)
H4 H -0.0133 0.8150 0.1097
Cr1 Cr 0.83053(17) 0.87719(16) 0.27879(6)
O3 O 0.6846(8) 0.6817(7) 0.2757(3)
O4 O 0.6785(9) 1.0422(8) 0.2393(3)
O5 O 0.0419(8) 0.8475(9) 0.2360(3)
O6 O 0.8740(10) 0.9390(9) 0.3579(3)
Er1C Er -0.11599(5) 0.64343(4) -0.224560(15)
Er1A Er 0.11599(5) 1.14343(4) -0.275440(15)
Er1B Er 0.61599(5) 0.35657(4) 0.275440(15)
Er1B_2 Er 0.61599(5) 1.35657(4) 0.275440(15)
Er1_2 Er 1.38401(5) 0.85657(4) 0.224560(15)
O1C O 0.5369(9) 0.6943(8) 0.1353(3)
O2A O 0.3546(8) 0.8963(8) 0.3442(3)
Cr1_2 Cr -0.16947(17) 0.87719(16) 0.27879(6)
O3B O 0.3154(8) 1.1817(7) 0.2243(3)
O4B O 0.3215(9) 0.5422(8) 0.2607(3)
O5_2 O 1.0419(8) 0.8475(9) 0.2360(3)
loop_
_geom_bond_atom_site_label_1
_geom_bond_atom_site_label_2
_geom_bond_site_symmetry_1
_geom_bond_site_symmetry_2
Er1 N1 1_555 1_555
N1 C4 1_555 1_555
O1 C1 1_555 1_555
O2 C1 1_555 1_555
C1 C2 1_555 1_555
C2 C3 1_555 1_555
C3 H1 1_555 1_555
C4 C3 1_555 1_555
H2 C4 1_555 1_555
C5 C2 1_555 1_555
H3 C5 1_555 1_555
C6 N1 1_555 1_555
H4 C6 1_555 1_555
Cr1 O3 1_555 1_555
O3 Er1 1_555 1_555
O4 Er1 1_555 1_555
O5 Er1 1_555 1_555
O6 Cr1 1_555 1_555
Er1C O1 1_555 1_555
Er1A O2 1_555 1_555
Er1B O3 1_555 1_555
Er1B_2 O4 1_555 1_555
Er1_2 O5_2 1_555 1_555
O1C Er1 1_555 1_555
O2A Er1 1_555 1_555
Cr1_2 O5 1_555 1_555
O3B Er1 1_555 1_555
O4B Er1 1_555 1_555
O5_2 Cr1 1_555 1_555
C5 C6 1_555 1_555
Cr1 O4 1_555 1_555
Er1B O4B 1_555 1_555
Er1B_2 O3B 1_555 1_555

#END
