
#######################################################################
#
#                 Cambridge Crystallographic Data Centre
#                                CCDC 
#
#######################################################################
#
# If this CIF has been generated from an entry in the Cambridge 
# Structural Database, then it will include bibliographic, chemical, 
# crystal, experimental, refinement or atomic coordinate data resulting 
# from the CCDC's data processing and validation procedures.
#
#######################################################################

data_YICCUK
_symmetry_cell_setting           triclinic
_symmetry_space_group_name_H-M   'P -1'
_symmetry_Int_Tables_number      2
_space_group_name_Hall           '-P 1'
loop_
_symmetry_equiv_pos_site_id
_symmetry_equiv_pos_as_xyz
1 x,y,z
2 -x,-y,-z
_cell_length_a                   8.2693(17)
_cell_length_b                   8.4170(17)
_cell_length_c                   12.645(3)
_cell_angle_alpha                90.27(3)
_cell_angle_beta                 95.85(3)
_cell_angle_gamma                100.93(3)
_cell_volume                     859.399
loop_
_atom_site_label
_atom_site_type_symbol
_atom_site_fract_x
_atom_site_fract_y
_atom_site_fract_z
Co1 Co 0.0000 1.0000 0.5000
Co2 Co 0.38441(17) 0.72342(16) 0.23520(10)
Co3 Co 0.06929(17) 0.96661(16) 0.25620(10)
Co4 Co 0.23270(17) 1.35807(16) 0.16132(10)
Na1 Na -0.2715(5) 0.7724(5) 0.0879(3)
O1 O 0.3517(9) 0.7433(8) 0.3945(5)
O2 O 0.1631(8) 0.9007(8) 0.4106(5)
O3 O 0.1500(8) 0.5714(8) 0.2063(5)
O4 O -0.0435(8) 0.7264(8) 0.2104(5)
O5 O -0.1353(8) 0.9734(8) 0.3482(5)
O6 O -0.3676(8) 0.8462(8) 0.2522(5)
O7 O -0.0714(8) 1.0134(8) 0.1186(5)
O8 O 0.0059(9) 1.2745(9) 0.0749(5)
O9 O 0.1159(9) 1.2313(8) 0.4669(5)
O10 O 0.1566(8) 1.2189(7) 0.2933(5)
O11 O 0.4174(8) 0.7208(8) 0.0733(5)
O12 O 0.2968(9) 0.4674(8) 0.0169(5)
O13 O 0.3314(9) 1.1688(8) 0.1028(5)
O14 O 0.2991(8) 0.9464(8) 0.2038(5)
O15 O 0.4400(8) 0.4933(8) 0.2473(5)
O16 O 0.5967(13) 0.3093(14) 0.3001(10)
C1 C 0.2609(14) 0.8090(12) 0.4455(8)
H1 H 0.2650 0.7889 0.5179
C2 C 0.0023(13) 0.5973(13) 0.1965(8)
H2 H -0.0809 0.5082 0.1768
C3 C -0.2901(14) 0.9095(13) 0.3371(8)
H3 H -0.3488 0.9106 0.3960
C4 C -0.0817(13) 1.1396(12) 0.0668(8)
H4 H -0.1703 1.1283 0.0141
C5 C 0.1612(14) 1.2889(14) 0.3831(8)
H5 H 0.2048 1.3993 0.3858
C6 C 0.3610(12) 0.6116(13) 0.0020(8)
H6 H 0.3684 0.6421 -0.0682
C7 C 0.3768(15) 1.0480(13) 0.1438(8)
H7 H 0.4797 1.0300 0.1288
C8 C 0.5626(14) 0.4456(13) 0.3007(9)
H8 H 0.6336 0.5232 0.3446
Co2A Co -0.38441(17) 0.27658(16) -0.23520(10)
Co3A Co -0.06929(17) 0.03339(16) -0.25620(10)
Co4A Co -0.23270(17) -0.35807(16) -0.16132(10)
Na1A Na 0.2715(5) 0.2276(5) -0.0879(3)
O1A O -0.3517(9) 0.2567(8) -0.3945(5)
O2A O -0.1631(8) 0.0993(8) -0.4106(5)
O3A O -0.1500(8) 0.4286(8) -0.2063(5)
O4A O 0.0435(8) 0.2736(8) -0.2104(5)
O5A O 0.1353(8) 0.0266(8) -0.3482(5)
O6A O 0.3676(8) 0.1538(8) -0.2522(5)
O7A O 0.0714(8) -0.0134(8) -0.1186(5)
O8A O -0.0059(9) -0.2745(9) -0.0749(5)
O9A O -0.1159(9) -0.2313(8) -0.4669(5)
O10A O -0.1566(8) -0.2189(7) -0.2933(5)
O11A O -0.4174(8) 0.2792(8) -0.0733(5)
O12A O -0.2968(9) 0.5326(8) -0.0169(5)
O13A O -0.3314(9) -0.1688(8) -0.1028(5)
O14A O -0.2991(8) 0.0536(8) -0.2038(5)
O15A O -0.4400(8) 0.5067(8) -0.2473(5)
O16A O -0.5967(13) 0.6907(14) -0.3001(10)
C1A C -0.2609(14) 0.1910(12) -0.4455(8)
H1A H -0.2650 0.2111 -0.5179
C2A C -0.0023(13) 0.4027(13) -0.1965(8)
H2A H 0.0809 0.4918 -0.1768
C3A C 0.2901(14) 0.0905(13) -0.3371(8)
H3A H 0.3488 0.0894 -0.3960
C4A C 0.0817(13) -0.1396(12) -0.0668(8)
H4A H 0.1703 -0.1283 -0.0141
C5A C -0.1612(14) -0.2889(14) -0.3831(8)
H5A H -0.2048 -0.3993 -0.3858
C6A C -0.3610(12) 0.3884(13) -0.0020(8)
H6A H -0.3684 0.3579 0.0682
C7A C -0.3768(15) -0.0480(13) -0.1438(8)
H7A H -0.4797 -0.0300 -0.1288
C8A C -0.5626(14) 0.5544(13) -0.3007(9)
H8A H -0.6336 0.4768 -0.3446
Co1_2 Co 0.0000 0.0000 -0.5000
Co2_2 Co -0.61559(17) 0.72342(16) 0.23520(10)
Co2A_2 Co 0.61559(17) 0.27658(16) -0.23520(10)
Co4_2 Co 0.23270(17) 0.35807(16) 0.16132(10)
Co4A_2 Co -0.23270(17) 0.64193(16) -0.16132(10)
Na1_2 Na -0.2715(5) -0.2276(5) 0.0879(3)
Na1_3 Na 0.7285(5) 0.7724(5) 0.0879(3)
Na1A_2 Na -0.7285(5) 0.2276(5) -0.0879(3)
Na1A_3 Na 0.2715(5) 1.2276(5) -0.0879(3)
O2A_2 O -0.1631(8) 1.0993(8) 0.5894(5)
O3_2 O 0.1500(8) 1.5714(8) 0.2063(5)
O3A_2 O -0.1500(8) -0.5714(8) -0.2063(5)
O5A_2 O 0.1353(8) 1.0266(8) 0.6518(5)
O6_2 O 0.6324(8) 0.8462(8) 0.2522(5)
O6A_2 O -0.6324(8) 0.1538(8) -0.2522(5)
O9A_2 O -0.1159(9) 0.7687(8) 0.5331(5)
O11_2 O -0.5826(8) 0.7208(8) 0.0733(5)
O11A_2 O 0.5826(8) 0.2792(8) -0.0733(5)
O12_2 O 0.2968(9) 1.4674(8) 0.0169(5)
O12A_2 O -0.2968(9) -0.4674(8) -0.0169(5)
O13_2 O 0.3314(9) 0.1688(8) 0.1028(5)
O13A_2 O -0.3314(9) 0.8312(8) -0.1028(5)
O15_2 O 0.4400(8) 1.4933(8) 0.2473(5)
O15A_2 O -0.4400(8) -0.4933(8) -0.2473(5)
loop_
_geom_bond_atom_site_label_1
_geom_bond_atom_site_label_2
_geom_bond_site_symmetry_1
_geom_bond_site_symmetry_2
Co1 O2 1_555 1_555
Co2 O1 1_555 1_555
Co3 O2 1_555 1_555
Co4 O8 1_555 1_555
Na1 O4 1_555 1_555
O1 C1 1_555 1_555
O2 C1 1_555 1_555
O3 Co2 1_555 1_555
O4 Co3 1_555 1_555
O5 Co1 1_555 1_555
O6 Na1 1_555 1_555
O7 Co3 1_555 1_555
O8 C4 1_555 1_555
O9 Co1 1_555 1_555
O10 Co3 1_555 1_555
O11 Co2 1_555 1_555
O12 C6 1_555 1_555
O13 Co4 1_555 1_555
O14 Co2 1_555 1_555
O15 Co2 1_555 1_555
O16 C8 1_555 1_555
C1 H1 1_555 1_555
C2 O3 1_555 1_555
H2 C2 1_555 1_555
C3 O5 1_555 1_555
H3 C3 1_555 1_555
C4 O7 1_555 1_555
H4 C4 1_555 1_555
C5 O9 1_555 1_555
H5 C5 1_555 1_555
C6 O11 1_555 1_555
H6 C6 1_555 1_555
C7 O13 1_555 1_555
H7 C7 1_555 1_555
C8 O15 1_555 1_555
H8 C8 1_555 1_555
Co2A O1A 1_555 1_555
Co3A O2A 1_555 1_555
Co4A O8A 1_555 1_555
Na1A O12 1_555 1_555
O1A C1A 1_555 1_555
O2A C1A 1_555 1_555
O3A Co2A 1_555 1_555
O4A Co3A 1_555 1_555
O5A Co3A 1_555 1_555
O6A Na1A 1_555 1_555
O7A Co3A 1_555 1_555
O8A C4A 1_555 1_555
O9A C5A 1_555 1_555
O10A Co3A 1_555 1_555
O11A Co2A 1_555 1_555
O12A Na1 1_555 1_555
O13A Co4A 1_555 1_555
O14A Co2A 1_555 1_555
O15A Co2A 1_555 1_555
O16A C8A 1_555 1_555
C1A H1A 1_555 1_555
C2A O3A 1_555 1_555
H2A C2A 1_555 1_555
C3A O5A 1_555 1_555
H3A C3A 1_555 1_555
C4A O7A 1_555 1_555
H4A C4A 1_555 1_555
C5A O10A 1_555 1_555
H5A C5A 1_555 1_555
C6A O11A 1_555 1_555
H6A C6A 1_555 1_555
C7A O13A 1_555 1_555
H7A C7A 1_555 1_555
C8A O15A 1_555 1_555
H8A C8A 1_555 1_555
Co1_2 O2A 1_555 1_555
Co2_2 O6 1_555 1_555
Co2A_2 O6A 1_555 1_555
Co4_2 O3 1_555 1_555
Co4A_2 O3A 1_555 1_555
Na1_2 O13A 1_555 1_555
Na1_3 O11 1_555 1_555
Na1A_2 O11A 1_555 1_555
Na1A_3 O13 1_555 1_555
O2A_2 Co1 1_555 1_555
O3_2 Co4 1_555 1_555
O3A_2 Co4A 1_555 1_555
O5A_2 Co1 1_555 1_555
O6_2 Co2 1_555 1_555
O6A_2 Co2A 1_555 1_555
O9A_2 Co1 1_555 1_555
O11_2 Na1 1_555 1_555
O11A_2 Na1A 1_555 1_555
O12_2 Co4 1_555 1_555
O12A_2 Co4A 1_555 1_555
O13_2 Na1A 1_555 1_555
O13A_2 Na1 1_555 1_555
O15_2 Co4 1_555 1_555
O15A_2 Co4A 1_555 1_555
Co3 O5 1_555 1_555
Co3 O14 1_555 1_555
Co4 O10 1_555 1_555
Na1 O7 1_555 1_555
O4 C2 1_555 1_555
O6 C3 1_555 1_555
O10 C5 1_555 1_555
O12 Co4_2 1_555 1_555
O14 C7 1_555 1_555
O15 Co4_2 1_555 1_555
Co3A O14A 1_555 1_555
Co4A O10A 1_555 1_555
Na1A O4A 1_555 1_555
Na1A O7A 1_555 1_555
O4A C2A 1_555 1_555
O5A Co1_2 1_555 1_555
O6A C3A 1_555 1_555
O9A Co1_2 1_555 1_555
O12A C6A 1_555 1_555
O12A Co4A_2 1_555 1_555
O14A C7A 1_555 1_555
O15A Co4A_2 1_555 1_555
Co2_2 O11_2 1_555 1_555
Co2A_2 O11A_2 1_555 1_555
Co4_2 O13_2 1_555 1_555
Co4A_2 O13A_2 1_555 1_555
Na1_2 O12A_2 1_555 1_555
Na1_3 O6_2 1_555 1_555
Na1A_2 O6A_2 1_555 1_555
Na1A_3 O12_2 1_555 1_555

#END
