
#######################################################################
#
#                 Cambridge Crystallographic Data Centre
#                                CCDC 
#
#######################################################################
#
# If this CIF has been generated from an entry in the Cambridge 
# Structural Database, then it will include bibliographic, chemical, 
# crystal, experimental, refinement or atomic coordinate data resulting 
# from the CCDC's data processing and validation procedures.
#
#######################################################################

data_YICFUN
_symmetry_cell_setting           orthorhombic
_symmetry_space_group_name_H-M   'P b c n'
_symmetry_Int_Tables_number      60
_space_group_name_Hall           '-P 2n 2ab'
loop_
_symmetry_equiv_pos_site_id
_symmetry_equiv_pos_as_xyz
1 x,y,z
2 1/2-x,1/2-y,1/2+z
3 -x,y,1/2-z
4 1/2+x,1/2-y,-z
5 -x,-y,-z
6 1/2+x,1/2+y,1/2-z
7 x,-y,1/2+z
8 1/2-x,1/2+y,z
_cell_length_a                   29.814(2)
_cell_length_b                   13.0074(9)
_cell_length_c                   19.1298(12)
_cell_angle_alpha                90
_cell_angle_beta                 90
_cell_angle_gamma                90
_cell_volume                     7418.59
loop_
_atom_site_label
_atom_site_type_symbol
_atom_site_fract_x
_atom_site_fract_y
_atom_site_fract_z
O1 O 0.96869(19) 0.9091(4) 0.3504(3)
H1 H 0.9662 0.8732 0.3873
H2 H 0.9962 0.9214 0.3426
O2 O 0.95031(14) 0.6213(3) 0.6471(2)
O3 O 1.00561(9) 0.5274(2) 0.60949(15)
C1 C 0.97013(16) 0.5371(3) 0.6438(2)
C2 C 0.9186(3) 0.2879(6) 0.7614(3)
H3 H 0.9079 0.2338 0.7885
C3 C 0.9176(2) 0.3859(5) 0.7876(3)
H4 H 0.9059 0.3983 0.8318
C4 C 0.95064(13) 0.4477(3) 0.6830(2)
N1 N 0.54997(11) 0.6722(2) 0.06339(19)
C5 C 0.58487(17) 0.6721(3) 0.1082(3)
H5 H 0.5906 0.7316 0.1336
C6 C 0.54410(16) 0.5875(3) 0.0271(3)
H6 H 0.5211 0.5858 -0.0058
C7 C 0.57016(16) 0.5014(4) 0.0352(3)
H7 H 0.5642 0.4435 0.0083
Cd1 Cd 1.004122(9) 0.31245(2) 0.451596(15)
O4 O 0.95108(9) 0.3845(2) 0.53382(14)
O5 O 1.05555(9) 0.4157(2) 0.51522(15)
H8 H 1.0728 0.4567 0.4832
H9 H 1.0522 0.4027 0.5643
C8 C 0.82530(13) 0.1920(3) 0.2676(2)
C9 C 0.63927(15) 0.3338(3) 0.0429(2)
H10 H 0.6252 0.3419 -0.0001
O6 O 0.98873(11) 0.2504(2) 0.57006(17)
C10 C 0.86997(13) 0.3050(3) 0.3468(2)
H11 H 0.8489 0.3570 0.3409
N2 N 0.93936(10) 0.2516(2) 0.39659(16)
C11 C 0.96423(13) 0.3270(3) 0.5814(2)
C12 C 0.90776(14) 0.3221(3) 0.3866(2)
H12 H 0.9113 0.3861 0.4074
C13 C 0.89485(15) 0.1360(3) 0.3288(2)
H13 H 0.8912 0.0699 0.3111
C14 C 0.86346(13) 0.2097(3) 0.3155(2)
C15 C 0.63285(12) 0.4070(3) 0.0937(2)
N3 N 0.71577(11) 0.1504(3) 0.1302(2)
C16 C 0.67938(14) 0.3056(3) 0.1700(3)
H14 H 0.6918 0.2950 0.2140
C17 C 0.60452(13) 0.4993(3) 0.0821(2)
C18 C 0.69636(18) -0.2063(3) -0.0437(2)
C19 C 0.75337(13) 0.1631(3) 0.1746(2)
C20 C 0.66603(14) 0.2487(3) 0.0537(2)
H15 H 0.6698 0.2005 0.0183
C21 C 0.70157(15) -0.1137(3) 0.0033(2)
C22 C 0.81354(14) 0.2676(3) 0.2193(2)
H16 H 0.8296 0.3288 0.2179
C23 C 0.68714(13) 0.2353(3) 0.1170(2)
C24 C 0.71149(14) 0.0600(3) 0.0888(2)
C25 C 0.66590(14) -0.0745(3) 0.0411(3)
H17 H 0.6382 -0.1072 0.0384
C26 C 0.74813(15) 0.0187(4) 0.0529(3)
H18 H 0.7763 0.0483 0.0580
C27 C 0.76496(13) 0.0865(3) 0.2219(2)
H19 H 0.7488 0.0253 0.2230
C28 C 0.80045(14) 0.1010(3) 0.2672(2)
H20 H 0.8080 0.0488 0.2984
C29 C 0.65330(13) 0.3911(3) 0.1577(2)
H21 H 0.6494 0.4392 0.1932
C30 C 0.93204(14) 0.1602(3) 0.3686(2)
H22 H 0.9533 0.1090 0.3763
C31 C 0.77823(14) 0.2529(3) 0.1734(2)
H23 H 0.7711 0.3042 0.1414
C32 C 0.95043(13) 0.3488(3) 0.6557(2)
C33 C 0.6564(2) -0.2591(5) -0.0498(3)
H24 H 0.6313 -0.2369 -0.0254
C34 C 0.67015(14) 0.0116(3) 0.0828(3)
H25 H 0.6454 0.0371 0.1067
C35 C 0.93510(18) 0.2680(4) 0.6956(3)
H26 H 0.9359 0.2012 0.6783
C36 C 0.74298(15) -0.0642(4) 0.0106(3)
H27 H 0.7676 -0.0889 -0.0140
C37 C 0.61213(17) 0.5894(3) 0.1181(2)
H28 H 0.6360 0.5938 0.1493
C38 C 0.93366(18) 0.4644(5) 0.7489(2)
H29 H 0.9333 0.5307 0.7670
N4 N 0.6864(2) -0.3803(4) -0.1293(3)
C39 C 0.7304(2) -0.2419(6) -0.0847(4)
H30 H 0.7579 -0.2080 -0.0857
C40 C 0.6538(3) -0.3439(5) -0.0917(3)
H31 H 0.6265 -0.3784 -0.0934
C41 C 0.7236(3) -0.3286(6) -0.1246(4)
H32 H 0.7479 -0.3524 -0.1506
O2D O 1.04969(14) 0.3787(3) 0.3529(2)
O3D O 0.99439(9) 0.4726(2) 0.39051(15)
N1E N 1.04997(11) 0.1722(2) 0.43661(19)
Cd1D Cd 0.995878(9) 0.68755(2) 0.548404(15)
Cd1E Cd 0.504122(9) 0.81245(2) 0.048404(15)
O7 O 0.0000 0.2428(6) 0.2500
H33 H -0.0155 0.2453 0.2873
H33B H 0.0155 0.2453 0.2127
O8 O 0.0000 0.0287(8) 0.2500
H34 H 0.0178 0.0598 0.2225
H34B H -0.0178 0.0598 0.2775
H35? H 0.0221 0.2024 0.2558
H36? H -0.0117 0.0714 0.2782
loop_
_geom_bond_atom_site_label_1
_geom_bond_atom_site_label_2
_geom_bond_site_symmetry_1
_geom_bond_site_symmetry_2
O1 H1 1_555 1_555
H2 O1 1_555 1_555
O2 C1 1_555 1_555
O3 C1 1_555 1_555
C1 C4 1_555 1_555
C2 H3 1_555 1_555
C3 C2 1_555 1_555
H4 C3 1_555 1_555
C4 C32 1_555 1_555
N1 C5 1_555 1_555
C5 H5 1_555 1_555
C6 N1 1_555 1_555
H6 C6 1_555 1_555
C7 C6 1_555 1_555
H7 C7 1_555 1_555
Cd1 O4 1_555 1_555
O4 C11 1_555 1_555
O5 Cd1 1_555 1_555
H8 O5 1_555 1_555
H9 O5 1_555 1_555
C8 C14 1_555 1_555
C9 H10 1_555 1_555
O6 Cd1 1_555 1_555
C10 H11 1_555 1_555
N2 Cd1 1_555 1_555
C11 O6 1_555 1_555
C12 C10 1_555 1_555
H12 C12 1_555 1_555
C13 H13 1_555 1_555
C14 C10 1_555 1_555
C15 C9 1_555 1_555
N3 C19 1_555 1_555
C16 H14 1_555 1_555
C17 C7 1_555 1_555
C18 C21 1_555 1_555
C19 C27 1_555 1_555
C20 C9 1_555 1_555
H15 C20 1_555 1_555
C21 C25 1_555 1_555
C22 C8 1_555 1_555
H16 C22 1_555 1_555
C23 N3 1_555 1_555
C24 N3 1_555 1_555
C25 H17 1_555 1_555
C26 C24 1_555 1_555
H18 C26 1_555 1_555
C27 H19 1_555 1_555
C28 C8 1_555 1_555
H20 C28 1_555 1_555
C29 C15 1_555 1_555
H21 C29 1_555 1_555
C30 N2 1_555 1_555
H22 C30 1_555 1_555
C31 C19 1_555 1_555
H23 C31 1_555 1_555
C32 C11 1_555 1_555
C33 C18 1_555 1_555
H24 C33 1_555 1_555
C34 C24 1_555 1_555
H25 C34 1_555 1_555
C35 C2 1_555 1_555
H26 C35 1_555 1_555
C36 C21 1_555 1_555
H27 C36 1_555 1_555
C37 C5 1_555 1_555
H28 C37 1_555 1_555
C38 C3 1_555 1_555
H29 C38 1_555 1_555
N4 C40 1_555 1_555
C39 C18 1_555 1_555
H30 C39 1_555 1_555
C40 C33 1_555 1_555
H31 C40 1_555 1_555
C41 N4 1_555 1_555
H32 C41 1_555 1_555
O7 H33 1_555 1_555
O8 H34 1_555 1_555
O2D Cd1 1_555 1_555
O3D Cd1 1_555 1_555
N1E Cd1 1_555 1_555
Cd1D O2 1_555 1_555
Cd1E N1 1_555 1_555
H33B O7 1_555 1_555
H34B O8 1_555 1_555
O3 Cd1D 1_555 1_555
C4 C38 1_555 1_555
N2 C12 1_555 1_555
C13 C14 1_555 1_555
C13 C30 1_555 1_555
C15 C17 1_555 1_555
C16 C23 1_555 1_555
C16 C29 1_555 1_555
C17 C37 1_555 1_555
C20 C23 1_555 1_555
C22 C31 1_555 1_555
C25 C34 1_555 1_555
C26 C36 1_555 1_555
C27 C28 1_555 1_555
C32 C35 1_555 1_555
C39 C41 1_555 1_555

#END
