
#######################################################################
#
#                 Cambridge Crystallographic Data Centre
#                                CCDC 
#
#######################################################################
#
# If this CIF has been generated from an entry in the Cambridge 
# Structural Database, then it will include bibliographic, chemical, 
# crystal, experimental, refinement or atomic coordinate data resulting 
# from the CCDC's data processing and validation procedures.
#
#######################################################################

data_YICGEY
_symmetry_cell_setting           orthorhombic
_symmetry_space_group_name_H-M   'P b c a'
_symmetry_Int_Tables_number      61
_space_group_name_Hall           '-P 2ac 2ab'
loop_
_symmetry_equiv_pos_site_id
_symmetry_equiv_pos_as_xyz
1 x,y,z
2 1/2-x,-y,1/2+z
3 -x,1/2+y,1/2-z
4 1/2+x,1/2-y,-z
5 -x,-y,-z
6 1/2+x,y,1/2-z
7 x,1/2-y,1/2+z
8 1/2-x,1/2+y,z
_cell_length_a                   13.5383(10)
_cell_length_b                   18.7314(14)
_cell_length_c                   26.4300(19)
_cell_angle_alpha                90
_cell_angle_beta                 90
_cell_angle_gamma                90
_cell_volume                     6702.42
loop_
_atom_site_label
_atom_site_type_symbol
_atom_site_fract_x
_atom_site_fract_y
_atom_site_fract_z
C1 C 1.0849(4) 0.5198(3) 0.5313(2)
H1 H 1.1339 0.5327 0.5061
H2 H 1.1142 0.5267 0.5645
C2 C 0.9956(4) 0.5686(3) 0.52593(19)
H3 H 1.0167 0.6179 0.5289
H4 H 0.9496 0.5589 0.5532
C3 C 0.9428(3) 0.5583(3) 0.47520(17)
H5 H 0.9887 0.5713 0.4481
C4 C 0.8551(4) 0.6075(3) 0.47264(19)
C5 C 0.5696(4) 0.5742(3) 0.5442(2)
H6 H 0.6253 0.5455 0.5413
C6 C 0.4920(4) 0.5500(3) 0.5734(2)
H7 H 0.4966 0.5060 0.5895
C7 C 0.4068(3) 0.5910(2) 0.57880(17)
C8 C 0.4056(4) 0.6549(3) 0.5521(2)
H8 H 0.3500 0.6840 0.5531
C9 C 0.4871(4) 0.6753(3) 0.5241(2)
H9 H 0.4846 0.7188 0.5071
C10 C -0.4060(5) 0.7134(4) 0.6617(3)
H10 H -0.4503 0.7046 0.6356
C11 C -0.3239(4) 0.6699(4) 0.6649(2)
H11 H -0.3158 0.6322 0.6423
C12 C -0.2537(4) 0.6829(3) 0.70196(19)
C13 C -0.2739(5) 0.7385(3) 0.7349(2)
H12 H -0.2298 0.7497 0.7607
C14 C -0.3606(6) 0.7775(4) 0.7290(3)
H13 H -0.3731 0.8139 0.7520
N1 N 0.6163(4) 0.7229(3) 0.4013(2)
C15 C 0.1789(3) 0.2374(3) 0.93428(18)
H14 H 0.1432 0.1958 0.9402
C16 C 0.1478(4) 0.2822(3) 0.89604(18)
H15 H 0.0923 0.2703 0.8771
C17 C 0.1988(4) 0.3446(3) 0.88567(19)
C18 C 0.2790(5) 0.3588(3) 0.9165(2)
H16 H 0.3152 0.4005 0.9119
C19 C 0.3055(5) 0.3115(3) 0.9540(3)
H17 H 0.3600 0.3226 0.9740
C20 C 0.3241(3) 0.5700(2) 0.61182(17)
C21 C 0.3097(4) 0.4992(3) 0.62647(19)
H18 H 0.3513 0.4639 0.6139
C22 C 0.2343(4) 0.4804(3) 0.65947(19)
H19 H 0.2243 0.4328 0.6681
C23 C 0.1736(3) 0.5336(3) 0.67965(17)
C24 C 0.1859(3) 0.6030(3) 0.66459(18)
H20 H 0.1438 0.6382 0.6768
C25 C 0.2608(3) 0.6211(3) 0.63123(18)
H21 H 0.2686 0.6686 0.6217
C26 C -0.1623(4) 0.6391(3) 0.70601(18)
C27 C -0.1263(4) 0.6006(3) 0.66468(18)
H22 H -0.1598 0.6027 0.6340
C28 C -0.0426(4) 0.5599(3) 0.66834(18)
H23 H -0.0202 0.5350 0.6402
C29 C 0.0092(3) 0.5554(3) 0.71347(17)
C30 C -0.0264(4) 0.5930(3) 0.75508(19)
H24 H 0.0067 0.5903 0.7858
C31 C -0.1101(4) 0.6341(3) 0.75112(19)
H25 H -0.1324 0.6591 0.7793
C32 C 0.1705(4) 0.3916(3) 0.84325(19)
C33 C 0.0746(4) 0.3946(3) 0.8252(2)
H26 H 0.0254 0.3687 0.8415
C34 C 0.0508(4) 0.4356(3) 0.7834(2)
H27 H -0.0141 0.4368 0.7717
C35 C 0.1231(4) 0.4750(2) 0.75862(18)
C36 C 0.2189(4) 0.4732(3) 0.77694(19)
H28 H 0.2678 0.5002 0.7612
C37 C 0.2421(4) 0.4316(3) 0.8185(2)
H29 H 0.3070 0.4304 0.8301
N2 N 0.5685(3) 0.6364(2) 0.52015(15)
N3 N -0.4268(4) 0.7663(4) 0.6927(2)
N4 N 0.2579(3) 0.2509(2) 0.96330(15)
N5 N 0.0991(3) 0.5159(2) 0.71562(15)
O1 O 0.8595(4) 0.6647(2) 0.44877(16)
O2 O 0.7796(3) 0.5908(2) 0.49774(17)
O3 O 0.6344(4) 0.7591(2) 0.43962(15)
O4 O 0.6310(4) 0.6597(2) 0.40500(19)
O5 O 0.5859(5) 0.7464(4) 0.3617(2)
Zn1 Zn 0.69373(4) 0.67604(3) 0.48499(2)
C1D C 0.9151(4) 0.4802(3) 0.4687(2)
H1D H 0.8661 0.4673 0.4939
H2D H 0.8858 0.4733 0.4355
C2D C 1.0044(4) 0.4314(3) 0.47407(19)
H3D H 0.9833 0.3821 0.4711
H4D H 1.0504 0.4411 0.4468
C3D C 1.0572(3) 0.4417(3) 0.52480(17)
H5D H 1.0113 0.4287 0.5519
C4D C 1.1449(4) 0.3925(3) 0.52736(19)
O1D O 1.1405(4) 0.3353(2) 0.55123(16)
O2D O 1.2204(3) 0.4092(2) 0.50226(17)
C5D C 1.4304(4) 0.4258(3) 0.4558(2)
H6D H 1.3747 0.4545 0.4587
C6D C 1.5080(4) 0.4500(3) 0.4266(2)
H7D H 1.5034 0.4940 0.4105
C7D C 1.5932(3) 0.4090(2) 0.42120(17)
C8D C 1.5944(4) 0.3451(3) 0.4479(2)
H8D H 1.6500 0.3160 0.4469
C9D C 1.5129(4) 0.3247(3) 0.4759(2)
H9D H 1.5154 0.2812 0.4929
C10D C 2.4060(5) 0.2866(4) 0.3383(3)
H10D H 2.4503 0.2954 0.3644
C11D C 2.3239(4) 0.3301(4) 0.3351(2)
H11D H 2.3158 0.3678 0.3577
C12D C 2.2537(4) 0.3171(3) 0.29804(19)
C13D C 2.2739(5) 0.2615(3) 0.2651(2)
H12D H 2.2298 0.2503 0.2393
C14D C 2.3606(6) 0.2225(4) 0.2710(3)
H13D H 2.3731 0.1861 0.2480
N1D N 1.3837(4) 0.2771(3) 0.5987(2)
C15D C 1.8211(3) 0.7626(3) 0.06572(18)
H14D H 1.8568 0.8042 0.0598
C16D C 1.8522(4) 0.7178(3) 0.10396(18)
H15D H 1.9077 0.7297 0.1229
C17D C 1.8012(4) 0.6554(3) 0.11433(19)
C18D C 1.7210(5) 0.6412(3) 0.0835(2)
H16D H 1.6848 0.5995 0.0881
C19D C 1.6945(5) 0.6885(3) 0.0460(3)
H17D H 1.6400 0.6774 0.0260
C20D C 1.6759(3) 0.4300(2) 0.38818(17)
C21D C 1.6903(4) 0.5008(3) 0.37353(19)
H18D H 1.6487 0.5361 0.3861
C22D C 1.7657(4) 0.5196(3) 0.34053(19)
H19D H 1.7757 0.5672 0.3319
C23D C 1.8264(3) 0.4664(3) 0.32035(17)
C24D C 1.8141(3) 0.3970(3) 0.33541(18)
H20D H 1.8562 0.3618 0.3232
C25D C 1.7392(3) 0.3789(3) 0.36877(18)
H21D H 1.7314 0.3314 0.3783
C26D C 2.1623(4) 0.3609(3) 0.29399(18)
C27D C 2.1263(4) 0.3994(3) 0.33532(18)
H22D H 2.1598 0.3973 0.3660
C28D C 2.0426(4) 0.4401(3) 0.33166(18)
H23D H 2.0202 0.4650 0.3598
C29D C 1.9908(3) 0.4446(3) 0.28653(17)
C30D C 2.0264(4) 0.4070(3) 0.24492(19)
H24D H 1.9933 0.4097 0.2142
C31D C 2.1101(4) 0.3659(3) 0.24888(19)
H25D H 2.1324 0.3409 0.2207
C32D C 1.8295(4) 0.6084(3) 0.15675(19)
C33D C 1.9254(4) 0.6054(3) 0.1748(2)
H26D H 1.9746 0.6313 0.1585
C34D C 1.9492(4) 0.5644(3) 0.2166(2)
H27D H 2.0141 0.5632 0.2283
C35D C 1.8769(4) 0.5250(2) 0.24138(18)
C36D C 1.7811(4) 0.5268(3) 0.22306(19)
H28D H 1.7322 0.4998 0.2388
C37D C 1.7579(4) 0.5684(3) 0.1815(2)
H29D H 1.6930 0.5696 0.1699
N2D N 1.4315(3) 0.3636(2) 0.47985(15)
N3D N 2.4268(4) 0.2337(4) 0.3073(2)
N4D N 1.7421(3) 0.7491(2) 0.03670(15)
N5D N 1.9009(3) 0.4841(2) 0.28438(15)
O3D O 1.3656(4) 0.2409(2) 0.56038(15)
O4D O 1.3690(4) 0.3403(2) 0.59500(19)
O5D O 1.4141(5) 0.2536(4) 0.6383(2)
Zn1D Zn 1.30627(4) 0.32396(3) 0.51501(2)
N4B N 0.7421(3) 0.7509(2) 0.53670(15)
N4F N 1.2579(3) 0.2491(2) 0.46330(15)
Zn1B Zn 0.30627(4) 0.17604(3) 1.01501(2)
Zn1F Zn 1.69373(4) 0.82396(3) -0.01501(2)
O6 O 0.8686(5) 0.7993(4) 0.8390(3)
H30 H 0.9261(12) 0.7900(4) 0.8277(3)
H31 H 0.8792(5) 0.8117(4) 0.8695(6)
loop_
_geom_bond_atom_site_label_1
_geom_bond_atom_site_label_2
_geom_bond_site_symmetry_1
_geom_bond_site_symmetry_2
C1 H1 1_555 1_555
H2 C1 1_555 1_555
C2 C1 1_555 1_555
H3 C2 1_555 1_555
H4 C2 1_555 1_555
C3 C2 1_555 1_555
H5 C3 1_555 1_555
C4 C3 1_555 1_555
C5 H6 1_555 1_555
C6 C5 1_555 1_555
H7 C6 1_555 1_555
C7 C6 1_555 1_555
C8 C7 1_555 1_555
H8 C8 1_555 1_555
C9 C8 1_555 1_555
H9 C9 1_555 1_555
C10 H10 1_555 1_555
C11 C10 1_555 1_555
H11 C11 1_555 1_555
C12 C11 1_555 1_555
C13 C12 1_555 1_555
H12 C13 1_555 1_555
C14 C13 1_555 1_555
H13 C14 1_555 1_555
N1 O3 1_555 1_555
C15 H14 1_555 1_555
C16 C15 1_555 1_555
H15 C16 1_555 1_555
C17 C16 1_555 1_555
C18 C17 1_555 1_555
H16 C18 1_555 1_555
C19 C18 1_555 1_555
H17 C19 1_555 1_555
C20 C7 1_555 1_555
C21 C20 1_555 1_555
H18 C21 1_555 1_555
C22 C21 1_555 1_555
H19 C22 1_555 1_555
C23 C22 1_555 1_555
C24 C23 1_555 1_555
H20 C24 1_555 1_555
C25 C20 1_555 1_555
H21 C25 1_555 1_555
C26 C12 1_555 1_555
C27 C26 1_555 1_555
H22 C27 1_555 1_555
C28 C27 1_555 1_555
H23 C28 1_555 1_555
C29 C28 1_555 1_555
C30 C29 1_555 1_555
H24 C30 1_555 1_555
C31 C26 1_555 1_555
H25 C31 1_555 1_555
C32 C17 1_555 1_555
C33 C32 1_555 1_555
H26 C33 1_555 1_555
C34 C33 1_555 1_555
H27 C34 1_555 1_555
C35 C34 1_555 1_555
C36 C35 1_555 1_555
H28 C36 1_555 1_555
C37 C32 1_555 1_555
H29 C37 1_555 1_555
N2 C5 1_555 1_555
N3 C10 1_555 1_555
N4 C15 1_555 1_555
N5 C23 1_555 1_555
O1 C4 1_555 1_555
O2 C4 1_555 1_555
O3 Zn1 1_555 1_555
O4 N1 1_555 1_555
O5 N1 1_555 1_555
Zn1 N2 1_555 1_555
O6 H30 1_555 1_555
H31 O6 1_555 1_555
C1D C3 1_555 1_555
H1D C1D 1_555 1_555
H2D C1D 1_555 1_555
C2D C1D 1_555 1_555
H3D C2D 1_555 1_555
H4D C2D 1_555 1_555
C3D C1 1_555 1_555
H5D C3D 1_555 1_555
C4D C3D 1_555 1_555
O1D C4D 1_555 1_555
O2D C4D 1_555 1_555
C5D H6D 1_555 1_555
C6D C5D 1_555 1_555
H7D C6D 1_555 1_555
C7D C6D 1_555 1_555
C8D C7D 1_555 1_555
H8D C8D 1_555 1_555
C9D C8D 1_555 1_555
H9D C9D 1_555 1_555
C10D H10D 1_555 1_555
C11D C10D 1_555 1_555
H11D C11D 1_555 1_555
C12D C11D 1_555 1_555
C13D C12D 1_555 1_555
H12D C13D 1_555 1_555
C14D C13D 1_555 1_555
H13D C14D 1_555 1_555
N1D O3D 1_555 1_555
C15D H14D 1_555 1_555
C16D C15D 1_555 1_555
H15D C16D 1_555 1_555
C17D C16D 1_555 1_555
C18D C17D 1_555 1_555
H16D C18D 1_555 1_555
C19D C18D 1_555 1_555
H17D C19D 1_555 1_555
C20D C7D 1_555 1_555
C21D C20D 1_555 1_555
H18D C21D 1_555 1_555
C22D C21D 1_555 1_555
H19D C22D 1_555 1_555
C23D C22D 1_555 1_555
C24D C23D 1_555 1_555
H20D C24D 1_555 1_555
C25D C20D 1_555 1_555
H21D C25D 1_555 1_555
C26D C12D 1_555 1_555
C27D C26D 1_555 1_555
H22D C27D 1_555 1_555
C28D C27D 1_555 1_555
H23D C28D 1_555 1_555
C29D C28D 1_555 1_555
C30D C29D 1_555 1_555
H24D C30D 1_555 1_555
C31D C26D 1_555 1_555
H25D C31D 1_555 1_555
C32D C17D 1_555 1_555
C33D C32D 1_555 1_555
H26D C33D 1_555 1_555
C34D C33D 1_555 1_555
H27D C34D 1_555 1_555
C35D C34D 1_555 1_555
C36D C35D 1_555 1_555
H28D C36D 1_555 1_555
C37D C32D 1_555 1_555
H29D C37D 1_555 1_555
N2D C5D 1_555 1_555
N3D C10D 1_555 1_555
N4D C15D 1_555 1_555
N5D C23D 1_555 1_555
O3D Zn1D 1_555 1_555
O4D N1D 1_555 1_555
O5D N1D 1_555 1_555
Zn1D O1D 1_555 1_555
N4B Zn1 1_555 1_555
N4F Zn1D 1_555 1_555
Zn1B N4 1_555 1_555
Zn1F N4D 1_555 1_555
C9 N2 1_555 1_555
C14 N3 1_555 1_555
C19 N4 1_555 1_555
C24 C25 1_555 1_555
C29 N5 1_555 1_555
C30 C31 1_555 1_555
C35 N5 1_555 1_555
C36 C37 1_555 1_555
O1 Zn1 1_555 1_555
O2 Zn1 1_555 1_555
O4 Zn1 1_555 1_555
C2D C3D 1_555 1_555
O2D Zn1D 1_555 1_555
C9D N2D 1_555 1_555
C14D N3D 1_555 1_555
C19D N4D 1_555 1_555
C24D C25D 1_555 1_555
C29D N5D 1_555 1_555
C30D C31D 1_555 1_555
C35D N5D 1_555 1_555
C36D C37D 1_555 1_555
N2D Zn1D 1_555 1_555
O4D Zn1D 1_555 1_555

#END
