
#######################################################################
#
#                 Cambridge Crystallographic Data Centre
#                                CCDC 
#
#######################################################################
#
# If this CIF has been generated from an entry in the Cambridge 
# Structural Database, then it will include bibliographic, chemical, 
# crystal, experimental, refinement or atomic coordinate data resulting 
# from the CCDC's data processing and validation procedures.
#
#######################################################################

data_YICHEX
_symmetry_cell_setting           monoclinic
_symmetry_space_group_name_H-M   'P 1 1 21/n'
_symmetry_Int_Tables_number      14
_space_group_name_Hall           '-P 2n'
loop_
_symmetry_equiv_pos_site_id
_symmetry_equiv_pos_as_xyz
1 x,y,z
2 1/2-x,1/2-y,1/2+z
3 -x,-y,-z
4 1/2+x,1/2+y,1/2-z
_cell_length_a                   6.240
_cell_length_b                   6.786
_cell_length_c                   19.988
_cell_angle_alpha                90
_cell_angle_beta                 90
_cell_angle_gamma                108.46
_cell_volume                     802.834
loop_
_atom_site_label
_atom_site_type_symbol
_atom_site_fract_x
_atom_site_fract_y
_atom_site_fract_z
K1 K 0.63290(5) 0.07267(4) 0.27269(2)
S1 S 0.78271(7) -0.10528(6) 0.42141(2)
O1 O 0.7430(2) -0.5474(2) 0.33538(6)
O2 O 0.5769(2) -0.3556(2) 0.27672(5)
O3 O 0.2000(2) -0.0968(2) 0.31886(6)
N1 N 0.3896(2) -0.4094(2) 0.42231(7)
C1 C 0.5860(2) -0.3213(2) 0.39366(7)
C2 C 0.6393(2) -0.4199(2) 0.32988(7)
C3 C 0.3163(3) -0.3156(3) 0.48061(9)
C4 C 0.2257(3) -0.6028(3) 0.3980(1)
H1 H 0.091(4) -0.566(3) 0.386(1)
H2 H 0.282(3) -0.653(3) 0.364(1)
H3 H 0.187(3) -0.686(3) 0.437(1)
H4 H 0.185(5) -0.279(4) 0.467(1)
H5 H 0.440(4) -0.207(4) 0.497(2)
H6 H 0.259(5) -0.407(4) 0.513(2)
H7 H 0.153(4) -0.022(3) 0.293(1)
H8 H 0.120(3) -0.095(3) 0.348(1)
O2C O 1.0769(2) 0.1444(2) 0.22328(5)
O3C O 0.7000(2) 0.4032(2) 0.18114(6)
K1C K 0.13290(5) -0.42733(4) 0.22731(2)
O1_2 O 0.7430(2) 0.4526(2) 0.33538(6)
K1_2 K 0.63290(5) -0.92733(4) 0.27269(2)
H7C H 0.653(4) 0.478(3) 0.207(1)
H8C H 0.620(3) 0.405(3) 0.152(1)
loop_
_geom_bond_atom_site_label_1
_geom_bond_atom_site_label_2
_geom_bond_site_symmetry_1
_geom_bond_site_symmetry_2
K1 O2 1_555 1_555
S1 C1 1_555 1_555
O1 C2 1_555 1_555
O2 C2 1_555 1_555
O3 K1 1_555 1_555
N1 C1 1_555 1_555
C1 C2 1_555 1_555
C3 N1 1_555 1_555
C4 N1 1_555 1_555
H1 C4 1_555 1_555
H2 C4 1_555 1_555
H3 C4 1_555 1_555
H4 C3 1_555 1_555
H5 C3 1_555 1_555
H6 C3 1_555 1_555
H7 O3 1_555 1_555
H8 O3 1_555 1_555
O2C K1 1_555 1_555
O3C K1 1_555 1_555
K1C O2 1_555 1_555
O1_2 K1 1_555 1_555
K1_2 O1 1_555 1_555
H7C O3C 1_555 1_555
H8C O3C 1_555 1_555
O3 K1C 1_555 1_555

#END
