
#######################################################################
#
#                 Cambridge Crystallographic Data Centre
#                                CCDC 
#
#######################################################################
#
# If this CIF has been generated from an entry in the Cambridge 
# Structural Database, then it will include bibliographic, chemical, 
# crystal, experimental, refinement or atomic coordinate data resulting 
# from the CCDC's data processing and validation procedures.
#
#######################################################################

data_YICPUW
_symmetry_cell_setting           triclinic
_symmetry_space_group_name_H-M   'P -1'
_symmetry_Int_Tables_number      2
_space_group_name_Hall           '-P 1'
loop_
_symmetry_equiv_pos_site_id
_symmetry_equiv_pos_as_xyz
1 x,y,z
2 -x,-y,-z
_cell_length_a                   9.8841(14)
_cell_length_b                   14.010(2)
_cell_length_c                   22.019(3)
_cell_angle_alpha                93.253(2)
_cell_angle_beta                 100.084(2)
_cell_angle_gamma                92.196(3)
_cell_volume                     2993.56
loop_
_atom_site_label
_atom_site_type_symbol
_atom_site_fract_x
_atom_site_fract_y
_atom_site_fract_z
C1 C 0.7819(7) 0.1584(6) 0.0711(3)
H1 H 0.8223 0.1164 0.0993
C2 C 0.6833(8) 0.1217(6) 0.0212(3)
H2 H 0.6577 0.0568 0.0180
C3 C 0.6237(7) 0.1785(6) -0.0228(3)
C4 C 0.6702(7) 0.2770(5) -0.0165(3)
C5 C 0.7643(7) 0.3096(5) 0.0376(3)
C6 C 0.8021(6) 0.4105(5) 0.0482(3)
C7 C 0.7560(7) 0.4754(6) 0.0024(3)
C8 C 0.6746(7) 0.4363(6) -0.0545(3)
H3 H 0.6513 0.4761 -0.0867
C9 C 0.6309(7) 0.3434(6) -0.0626(3)
H4 H 0.5734 0.3219 -0.0993
C10 C 0.7929(7) 0.5741(5) 0.0161(3)
C11 C 0.8729(8) 0.6003(6) 0.0725(3)
H5 H 0.9005 0.6643 0.0825
C12 C 0.9130(8) 0.5323(6) 0.1147(4)
H6 H 0.9644 0.5530 0.1531
C13 C 0.7536(7) 0.6478(5) -0.0272(3)
C14 C 0.6174(7) 0.6591(6) -0.0551(3)
H7 H 0.5489 0.6155 -0.0486
C15 C 0.5827(9) 0.7340(7) -0.0924(4)
H8 H 0.4915 0.7408 -0.1105
C16 C 0.6840(10) 0.7983(7) -0.1026(4)
H9 H 0.6614 0.8482 -0.1280
C17 C 0.8196(9) 0.7887(7) -0.0749(4)
H10 H 0.8881 0.8323 -0.0815
C18 C 0.8522(8) 0.7144(6) -0.0376(4)
H11 H 0.9432 0.7088 -0.0188
C19 C 0.3874(9) 0.1728(8) -0.0821(4)
H12 H 0.3707 0.2266 -0.0582
C20 C 0.2810(9) 0.1307(8) -0.1265(4)
H13 H 0.1952 0.1573 -0.1316
C21 C 0.2979(9) 0.0562(8) -0.1605(4)
H14 H 0.2295 0.0329 -0.1931
C22 C 0.4212(12) 0.0117(10) -0.1471(6)
H15 H 0.4326 -0.0465 -0.1677
C23 C 0.5288(10) 0.0538(9) -0.1029(5)
H16 H 0.6118 0.0240 -0.0942
C24 C 0.5115(7) 0.1385(5) -0.0729(3)
C25 C 1.1383(7) -0.6653(6) 0.4155(3)
H17 H 1.0857 -0.6913 0.3787
C26 C 1.2262(7) -0.7246(6) 0.4506(3)
H18 H 1.2301 -0.7885 0.4375
C27 C 1.3082(7) -0.6878(6) 0.5055(3)
C28 C 1.2987(7) -0.5907(6) 0.5231(3)
C29 C 1.2039(7) -0.5359(5) 0.4851(3)
C30 C 1.1865(7) -0.4362(5) 0.5021(3)
C31 C 1.2704(7) -0.3918(6) 0.5564(3)
C32 C 1.3629(7) -0.4515(6) 0.5932(3)
H19 H 1.4176 -0.4240 0.6291
C33 C 1.3743(7) -0.5425(6) 0.5790(3)
H20 H 1.4334 -0.5773 0.6059
C34 C 1.2539(8) -0.2937(6) 0.5711(3)
C35 C 1.1500(8) -0.2498(6) 0.5345(3)
H21 H 1.1316 -0.1868 0.5444
C36 C 1.0732(7) -0.2995(6) 0.4833(3)
H22 H 1.0043 -0.2677 0.4593
C37 C 1.3438(8) -0.2354(5) 0.6215(3)
C38 C 1.4841(8) -0.2252(6) 0.6225(4)
H23 H 1.5237 -0.2608 0.5938
C39 C 1.2856(9) -0.1835(7) 0.6654(4)
H24 H 1.1921 -0.1916 0.6662
C40 C 1.3674(11) -0.1204(8) 0.7077(5)
H25 H 1.3286 -0.0845 0.7365
C41 C 1.4030(8) -0.7514(6) 0.5408(4)
C42 C 1.3556(11) -0.8417(8) 0.5547(5)
H26 H 1.2625 -0.8593 0.5431
C43 C 1.4425(14) -0.9052(8) 0.5850(6)
H27 H 1.4087 -0.9649 0.5935
C44 C 1.5801(12) -0.8787(9) 0.6024(6)
H28 H 1.6396 -0.9205 0.6234
C45 C 1.6298(10) -0.7912(8) 0.5891(4)
H29 H 1.7229 -0.7738 0.6010
C46 C 1.5429(8) -0.7295(7) 0.5584(3)
H30 H 1.5786 -0.6709 0.5489
C47 C 1.0076(7) -0.2727(6) 0.2973(4)
C48 C 1.0271(7) -0.1698(5) 0.2823(3)
C49 C 1.0056(9) -0.1016(6) 0.3270(4)
H31 H 0.9869 -0.1209 0.3645
C50 C 1.0115(9) -0.0033(6) 0.3167(4)
H32 H 1.0019 0.0411 0.3485
C51 C 1.0307(7) 0.0280(5) 0.2618(3)
C52 C 1.0141(8) 0.1324(6) 0.2513(4)
C53 C 1.0599(7) -0.0393(5) 0.2160(3)
C54 C 1.0597(6) -0.1395(5) 0.2266(3)
C55 C 1.0926(7) -0.2037(6) 0.1791(4)
H33 H 1.0977 -0.2685 0.1858
C56 C 1.1160(8) -0.1733(7) 0.1253(4)
H34 H 1.1349 -0.2175 0.0951
C57 C 1.1127(9) -0.0771(8) 0.1137(4)
H35 H 1.1277 -0.0572 0.0757
C58 C 1.0872(8) -0.0110(6) 0.1585(4)
H36 H 1.0881 0.0535 0.1508
C59 C 0.7155(7) 0.3842(6) 0.2240(3)
C60 C 0.5813(7) 0.4221(6) 0.2360(3)
C61 C 0.4819(7) 0.3535(6) 0.2426(3)
H37 H 0.4953 0.2889 0.2346
C62 C 0.3595(7) 0.3825(6) 0.2616(3)
H38 H 0.2918 0.3363 0.2652
C63 C 0.3384(7) 0.4764(6) 0.2747(3)
C64 C 0.2131(7) 0.4984(6) 0.3015(3)
C65 C 0.4348(7) 0.5511(6) 0.2641(3)
C66 C 0.5604(7) 0.5211(6) 0.2452(3)
C67 C 0.6547(8) 0.5953(7) 0.2352(4)
H39 H 0.7367 0.5791 0.2229
C68 C 0.6288(9) 0.6879(8) 0.2431(5)
H40 H 0.6927 0.7348 0.2364
C69 C 0.5059(10) 0.7145(7) 0.2613(4)
H41 H 0.4884 0.7790 0.2662
C70 C 0.4142(8) 0.6483(7) 0.2716(4)
H42 H 0.3339 0.6676 0.2843
C71 C 1.5655(10) -0.1626(7) 0.6655(4)
H43 H 1.6597 -0.1563 0.6659
C72 C 1.5082(11) -0.1098(8) 0.7077(5)
H44 H 1.5631 -0.0669 0.7363
O1 O 0.9331(6) 0.1497(4) 0.2026(3)
O2 O 1.0680(7) 0.1942(4) 0.2896(3)
O3 O 1.0058(6) -0.2868(4) 0.3529(2)
O4 O 0.9919(6) -0.3386(4) 0.2564(3)
O5 O 0.1054(5) 0.4472(4) 0.2824(2)
O6 O 0.2189(4) 0.5623(4) 0.3441(2)
O7 O 0.8249(5) 0.4255(5) 0.2500(3)
O8 O 0.7159(5) 0.3138(4) 0.1882(2)
Pb1 Pb 0.96033(2) 0.31919(2) 0.190054(11)
Pb2 Pb 0.97977(3) -0.45718(2) 0.353370(11)
N1 N 0.8817(6) 0.4394(4) 0.1032(2)
N2 N 0.8205(5) 0.2499(4) 0.0801(2)
N3 N 1.1252(6) -0.5734(4) 0.4315(2)
N4 N 1.0913(6) -0.3891(4) 0.4663(2)
O5_2 O 1.1054(5) -0.5528(4) 0.2824(2)
O6_2 O 1.2189(4) -0.4377(4) 0.3441(2)
Pb2_2 Pb -0.02023(3) 0.54282(2) 0.353370(11)
loop_
_geom_bond_atom_site_label_1
_geom_bond_atom_site_label_2
_geom_bond_site_symmetry_1
_geom_bond_site_symmetry_2
C1 H1 1_555 1_555
C2 C1 1_555 1_555
H2 C2 1_555 1_555
C3 C2 1_555 1_555
C4 C3 1_555 1_555
C5 C4 1_555 1_555
C6 C5 1_555 1_555
C7 C6 1_555 1_555
C8 C7 1_555 1_555
H3 C8 1_555 1_555
C9 C4 1_555 1_555
H4 C9 1_555 1_555
C10 C7 1_555 1_555
C11 C10 1_555 1_555
H5 C11 1_555 1_555
C12 C11 1_555 1_555
H6 C12 1_555 1_555
C13 C10 1_555 1_555
C14 C13 1_555 1_555
H7 C14 1_555 1_555
C15 C14 1_555 1_555
H8 C15 1_555 1_555
C16 C15 1_555 1_555
H9 C16 1_555 1_555
C17 C16 1_555 1_555
H10 C17 1_555 1_555
C18 C13 1_555 1_555
H11 C18 1_555 1_555
C19 H12 1_555 1_555
C20 C19 1_555 1_555
H13 C20 1_555 1_555
C21 C20 1_555 1_555
H14 C21 1_555 1_555
C22 C21 1_555 1_555
H15 C22 1_555 1_555
C23 C22 1_555 1_555
H16 C23 1_555 1_555
C24 C3 1_555 1_555
C25 H17 1_555 1_555
C26 C25 1_555 1_555
H18 C26 1_555 1_555
C27 C26 1_555 1_555
C28 C27 1_555 1_555
C29 C28 1_555 1_555
C30 C29 1_555 1_555
C31 C30 1_555 1_555
C32 C31 1_555 1_555
H19 C32 1_555 1_555
C33 C28 1_555 1_555
H20 C33 1_555 1_555
C34 C31 1_555 1_555
C35 C34 1_555 1_555
H21 C35 1_555 1_555
C36 C35 1_555 1_555
H22 C36 1_555 1_555
C37 C34 1_555 1_555
C38 C37 1_555 1_555
H23 C38 1_555 1_555
C39 C37 1_555 1_555
H24 C39 1_555 1_555
C40 C39 1_555 1_555
H25 C40 1_555 1_555
C41 C27 1_555 1_555
C42 C41 1_555 1_555
H26 C42 1_555 1_555
C43 C42 1_555 1_555
H27 C43 1_555 1_555
C44 C43 1_555 1_555
H28 C44 1_555 1_555
C45 C44 1_555 1_555
H29 C45 1_555 1_555
C46 C41 1_555 1_555
H30 C46 1_555 1_555
C47 C48 1_555 1_555
C48 C49 1_555 1_555
C49 H31 1_555 1_555
C50 C49 1_555 1_555
H32 C50 1_555 1_555
C51 C50 1_555 1_555
C52 C51 1_555 1_555
C53 C51 1_555 1_555
C54 C48 1_555 1_555
C55 C54 1_555 1_555
H33 C55 1_555 1_555
C56 C55 1_555 1_555
H34 C56 1_555 1_555
C57 C56 1_555 1_555
H35 C57 1_555 1_555
C58 C53 1_555 1_555
H36 C58 1_555 1_555
C59 C60 1_555 1_555
C60 C61 1_555 1_555
C61 H37 1_555 1_555
C62 C61 1_555 1_555
H38 C62 1_555 1_555
C63 C62 1_555 1_555
C64 C63 1_555 1_555
C65 C63 1_555 1_555
C66 C60 1_555 1_555
C67 C66 1_555 1_555
H39 C67 1_555 1_555
C68 C67 1_555 1_555
H40 C68 1_555 1_555
C69 C68 1_555 1_555
H41 C69 1_555 1_555
C70 C65 1_555 1_555
H42 C70 1_555 1_555
C71 C38 1_555 1_555
H43 C71 1_555 1_555
C72 C40 1_555 1_555
H44 C72 1_555 1_555
O1 C52 1_555 1_555
O2 C52 1_555 1_555
O3 C47 1_555 1_555
O4 C47 1_555 1_555
O5 C64 1_555 1_555
O6 C64 1_555 1_555
O7 C59 1_555 1_555
O8 C59 1_555 1_555
Pb1 O1 1_555 1_555
Pb2 O3 1_555 1_555
N1 C6 1_555 1_555
N2 C1 1_555 1_555
N3 C25 1_555 1_555
N4 C30 1_555 1_555
O5_2 Pb2 1_555 1_555
O6_2 Pb2 1_555 1_555
Pb2_2 O5 1_555 1_555
C5 N2 1_555 1_555
C8 C9 1_555 1_555
C12 N1 1_555 1_555
C17 C18 1_555 1_555
C19 C24 1_555 1_555
C23 C24 1_555 1_555
C29 N3 1_555 1_555
C32 C33 1_555 1_555
C36 N4 1_555 1_555
C45 C46 1_555 1_555
C53 C54 1_555 1_555
C57 C58 1_555 1_555
C65 C66 1_555 1_555
C69 C70 1_555 1_555
C71 C72 1_555 1_555
O6 Pb2_2 1_555 1_555
O7 Pb1 1_555 1_555
O8 Pb1 1_555 1_555
Pb1 N1 1_555 1_555
Pb1 N2 1_555 1_555
Pb2 N3 1_555 1_555
Pb2 N4 1_555 1_555

#END
