
#######################################################################
#
#                 Cambridge Crystallographic Data Centre
#                                CCDC 
#
#######################################################################
#
# If this CIF has been generated from an entry in the Cambridge 
# Structural Database, then it will include bibliographic, chemical, 
# crystal, experimental, refinement or atomic coordinate data resulting 
# from the CCDC's data processing and validation procedures.
#
#######################################################################

data_YICQOS01
_symmetry_cell_setting           monoclinic
_symmetry_space_group_name_H-M   'C 2/c'
_symmetry_Int_Tables_number      15
_space_group_name_Hall           '-C 2yn'
loop_
_symmetry_equiv_pos_site_id
_symmetry_equiv_pos_as_xyz
1 x,y,z
2 -x,y,1/2-z
3 1/2+x,1/2+y,z
4 1/2-x,1/2+y,1/2-z
5 -x,-y,-z
6 x,-y,1/2+z
7 1/2-x,1/2-y,-z
8 1/2+x,1/2-y,1/2+z
_cell_length_a                   12.2375(6)
_cell_length_b                   14.7027(7)
_cell_length_c                   9.0246(5)
_cell_angle_alpha                90
_cell_angle_beta                 108.260(2)
_cell_angle_gamma                90
_cell_volume                     1541.98
loop_
_atom_site_label
_atom_site_type_symbol
_atom_site_fract_x
_atom_site_fract_y
_atom_site_fract_z
Zn1 Zn 0.14500(2) -0.037755(17) -0.10362(3)
C1 C 0.5000 0.3827(2) 0.2500
C2 C 0.5000 0.2806(2) 0.2500
C3 C 0.4217(2) 0.23295(16) 0.1310(3)
H1 H 0.3691 0.2645 0.0503
C4 C 0.4209(2) 0.13870(16) 0.1309(3)
H2 H 0.3673 0.1076 0.0508
C5 C 0.5000 0.0898(2) 0.2500
C6 C 0.5000 -0.0112(2) 0.2500
C7 C 0.39773(18) -0.06127(15) 0.2262(3)
C8 C 0.28704(19) -0.01893(15) 0.2317(3)
C9 C 0.39678(19) -0.15585(15) 0.2176(3)
H3 H 0.3273 -0.1873 0.1903
C10 C 0.5000 -0.2032(2) 0.2500
C11 C 0.5000 -0.3051(2) 0.2500
O1 O 0.43409(15) 0.42216(11) 0.1321(2)
O2 O 0.19328(14) -0.03370(12) 0.1267(2)
O3 O 0.29277(14) 0.02293(12) 0.3557(2)
O4 O 0.40880(16) -0.34325(12) 0.1723(3)
C3A C 0.5783(2) 0.23295(16) 0.3690(3)
H1A H 0.6309 0.2645 0.4497
C4A C 0.5791(2) 0.13870(16) 0.3691(3)
H2A H 0.6327 0.1076 0.4492
C7A C 0.60227(18) -0.06127(15) 0.2738(3)
C8A C 0.71296(19) -0.01893(15) 0.2683(3)
C9A C 0.60322(19) -0.15585(15) 0.2824(3)
H3A H 0.6727 -0.1873 0.3097
O1A O 0.56591(15) 0.42216(11) 0.3679(2)
O2A O 0.80672(14) -0.03370(12) 0.3733(2)
O3A O 0.70723(14) 0.02293(12) 0.1443(2)
O4A O 0.59120(16) -0.34325(12) 0.3277(3)
Zn1A Zn 0.85500(2) -0.037755(17) 0.60362(3)
Zn1D Zn 0.85500(2) 0.037755(17) 0.10362(3)
Zn1E Zn 0.14500(2) 0.037755(17) 0.39638(3)
Zn1F Zn 0.35500(2) -0.462245(17) 0.10362(3)
Zn1F_2 Zn 0.35500(2) 0.537755(17) 0.10362(3)
Zn1G Zn 0.64500(2) -0.462245(17) 0.39638(3)
Zn1G_2 Zn 0.64500(2) 0.537755(17) 0.39638(3)
O1F O 0.06591(15) 0.07784(11) -0.1321(2)
O1G O 0.93409(15) 0.07784(11) 0.6321(2)
O3D O 0.70723(14) -0.02293(12) 0.6443(2)
O3E O 0.29277(14) -0.02293(12) -0.1443(2)
O4F O 0.09120(16) -0.15675(12) -0.1723(3)
O4G O 0.90880(16) -0.15675(12) 0.6723(3)
loop_
_geom_bond_atom_site_label_1
_geom_bond_atom_site_label_2
_geom_bond_site_symmetry_1
_geom_bond_site_symmetry_2
Zn1 O2 1_555 1_555
C1 C2 1_555 1_555
C2 C3 1_555 1_555
C3 H1 1_555 1_555
C4 C3 1_555 1_555
H2 C4 1_555 1_555
C5 C4 1_555 1_555
C6 C5 1_555 1_555
C7 C6 1_555 1_555
C8 C7 1_555 1_555
C9 C7 1_555 1_555
H3 C9 1_555 1_555
C10 C9 1_555 1_555
C11 C10 1_555 1_555
O1 C1 1_555 1_555
O2 C8 1_555 1_555
O3 C8 1_555 1_555
O4 C11 1_555 1_555
C3A C2 1_555 1_555
H1A C3A 1_555 1_555
C4A C5 1_555 1_555
H2A C4A 1_555 1_555
C7A C6 1_555 1_555
C8A C7A 1_555 1_555
C9A C10 1_555 1_555
H3A C9A 1_555 1_555
O1A C1 1_555 1_555
O2A C8A 1_555 1_555
O3A C8A 1_555 1_555
O4A C11 1_555 1_555
Zn1A O2A 1_555 1_555
Zn1D O3A 1_555 1_555
Zn1E O3 1_555 1_555
Zn1F O4 1_555 1_555
Zn1F_2 O1 1_555 1_555
Zn1G O4A 1_555 1_555
Zn1G_2 O1A 1_555 1_555
O1F Zn1 1_555 1_555
O1G Zn1A 1_555 1_555
O3D Zn1A 1_555 1_555
O3E Zn1 1_555 1_555
O4F Zn1 1_555 1_555
O4G Zn1A 1_555 1_555
C3A C4A 1_555 1_555
C7A C9A 1_555 1_555

#END
