
#######################################################################
#
#                 Cambridge Crystallographic Data Centre
#                                CCDC 
#
#######################################################################
#
# If this CIF has been generated from an entry in the Cambridge 
# Structural Database, then it will include bibliographic, chemical, 
# crystal, experimental, refinement or atomic coordinate data resulting 
# from the CCDC's data processing and validation procedures.
#
#######################################################################

data_YICQIL
_symmetry_cell_setting           monoclinic
_symmetry_space_group_name_H-M   'C 2/c'
_symmetry_Int_Tables_number      15
_space_group_name_Hall           '-C 2yn'
loop_
_symmetry_equiv_pos_site_id
_symmetry_equiv_pos_as_xyz
1 x,y,z
2 1/2+x,1/2+y,z
3 -x,y,1/2-z
4 1/2-x,1/2+y,1/2-z
5 -x,-y,-z
6 1/2-x,1/2-y,-z
7 x,-y,1/2+z
8 1/2+x,1/2-y,1/2+z
_cell_length_a                   25.809(5)
_cell_length_b                   8.6938(17)
_cell_length_c                   23.260(5)
_cell_angle_alpha                90
_cell_angle_beta                 116.17(3)
_cell_angle_gamma                90
_cell_volume                     4684.03
loop_
_atom_site_label
_atom_site_type_symbol
_atom_site_fract_x
_atom_site_fract_y
_atom_site_fract_z
C1 C 0.3531(4) 0.3104(11) 0.2046(4)
H1 H 0.3642 0.3737 0.2403
C2 C 0.2945(4) 0.2917(11) 0.1658(4)
H2 H 0.2674 0.3418 0.1753
C3 C 0.2774(3) 0.1984(11) 0.1135(4)
H3 H 0.2383 0.1832 0.0871
C4 C 0.3184(3) 0.1267(9) 0.0998(3)
C5 C 0.3776(3) 0.1511(10) 0.1420(3)
C6 C 0.4221(3) 0.0850(9) 0.1290(3)
C7 C 0.5192(4) 0.0649(14) 0.1574(5)
H4 H 0.5570 0.0936 0.1841
C8 C 0.5091(5) -0.0336(16) 0.1069(6)
H5 H 0.5398 -0.0725 0.1008
C9 C 0.3074(3) 0.0282(9) 0.0474(3)
C10 C 0.3486(4) -0.0380(10) 0.0349(4)
C11 C 0.4080(4) -0.0119(11) 0.0751(4)
C12 C 0.4534(5) -0.0737(14) 0.0658(5)
H6 H 0.4462 -0.1414 0.0321
C13 C 0.2683(4) -0.1085(9) -0.0414(3)
C14 C 0.2226(3) -0.1748(10) -0.0997(3)
C15 C 0.1657(4) -0.1451(11) -0.1160(3)
C16 C 0.1202(4) -0.2040(10) -0.1721(4)
H7 H 0.0821 -0.1806 -0.1818
C17 C 0.1324(4) -0.2937(11) -0.2112(4)
H8 H 0.1023 -0.3300 -0.2486
C18 C 0.1890(4) -0.3348(12) -0.1976(3)
C19 C 0.2352(4) -0.2738(9) -0.1413(3)
C20 C 0.2915(4) -0.3189(13) -0.1292(4)
H9 H 0.3228 -0.2812 -0.0931
C21 C 0.3014(5) -0.4186(13) -0.1702(5)
H10 H 0.3389 -0.4464 -0.1612
C22 C 0.2559(6) -0.4763(13) -0.2238(5)
H11 H 0.2628 -0.5434 -0.2508
C23 C 0.2013(6) -0.4356(12) -0.2373(4)
H12 H 0.1710 -0.4752 -0.2738
C24 C 0.5012(4) 0.4653(12) 0.1254(4)
C25 C 0.5001(4) 0.4851(11) 0.0597(3)
C26 C 0.4556(4) 0.4137(11) 0.0060(4)
C27 C 0.4095(7) 0.310(2) 0.0044(7)
H13 H 0.4077 0.2937 0.0430
C28 C 0.5444(4) 0.5714(11) 0.0556(4)
C29 C 0.5918(6) 0.657(2) 0.1132(6)
H14 H 0.5935 0.6436 0.1537
C30 C 0.6314(7) 0.752(2) 0.1070(7)
H15 H 0.6579 0.8061 0.1421
C31 C 0.3684(7) 0.234(2) -0.0491(8)
H16 H 0.3406 0.1729 -0.0450
N1 N 0.3936(3) 0.2446(8) 0.1940(3)
N2 N 0.4777(3) 0.1187(8) 0.1688(3)
N3 N 0.2559(3) -0.0171(8) -0.0016(3)
H17 H 0.2220 0.0076 -0.0062
N4 N 0.3246(3) -0.1234(8) -0.0209(3)
O1 O 0.1511(2) -0.0544(7) -0.0775(2)
H18 H 0.1159 -0.0465 -0.0930
O2 O 0.4550(3) 0.4758(8) 0.1303(2)
O3 O 0.5477(2) 0.4359(9) 0.1711(3)
Pb1 Pb 0.5000 0.34274(6) 0.2500
C1B C 0.6469(4) 0.3104(11) 0.2954(4)
H1B H 0.6358 0.3737 0.2597
C2B C 0.7055(4) 0.2917(11) 0.3342(4)
H2B H 0.7326 0.3418 0.3247
C3B C 0.7226(3) 0.1984(11) 0.3865(4)
H3B H 0.7617 0.1832 0.4129
C4B C 0.6816(3) 0.1267(9) 0.4002(3)
C5B C 0.6224(3) 0.1511(10) 0.3580(3)
C6B C 0.5779(3) 0.0850(9) 0.3710(3)
C7B C 0.4808(4) 0.0649(14) 0.3426(5)
H4B H 0.4430 0.0936 0.3159
C8B C 0.4909(5) -0.0336(16) 0.3931(6)
H5B H 0.4602 -0.0725 0.3992
C9B C 0.6926(3) 0.0282(9) 0.4526(3)
C10B C 0.6514(4) -0.0380(10) 0.4651(4)
C11B C 0.5920(4) -0.0119(11) 0.4249(4)
C12B C 0.5466(5) -0.0737(14) 0.4342(5)
H6B H 0.5538 -0.1414 0.4679
C13B C 0.7317(4) -0.1085(9) 0.5414(3)
C14B C 0.7774(3) -0.1748(10) 0.5997(3)
C15B C 0.8343(4) -0.1451(11) 0.6160(3)
C16B C 0.8798(4) -0.2040(10) 0.6721(4)
H7B H 0.9179 -0.1806 0.6818
C17B C 0.8676(4) -0.2937(11) 0.7112(4)
H8B H 0.8977 -0.3300 0.7486
C18B C 0.8110(4) -0.3348(12) 0.6976(3)
C19B C 0.7648(4) -0.2738(9) 0.6413(3)
C20B C 0.7085(4) -0.3189(13) 0.6292(4)
H9B H 0.6772 -0.2812 0.5931
C21B C 0.6986(5) -0.4186(13) 0.6702(5)
H10B H 0.6611 -0.4464 0.6612
C22B C 0.7441(6) -0.4763(13) 0.7238(5)
H11B H 0.7372 -0.5434 0.7508
C23B C 0.7987(6) -0.4356(12) 0.7373(4)
H12B H 0.8290 -0.4752 0.7738
C24D C 0.4988(4) 0.5347(12) -0.1254(4)
C25D C 0.4999(4) 0.5149(11) -0.0597(3)
C26D C 0.5444(4) 0.5863(11) -0.0060(4)
C27D C 0.5905(7) 0.690(2) -0.0044(7)
H13D H 0.5923 0.7063 -0.0430
C28D C 0.4556(4) 0.4286(11) -0.0556(4)
C29D C 0.4082(6) 0.343(2) -0.1132(6)
H14D H 0.4065 0.3564 -0.1537
C30D C 0.3686(7) 0.248(2) -0.1070(7)
H15D H 0.3421 0.1939 -0.1421
C31D C 0.6316(7) 0.766(2) 0.0491(8)
H16D H 0.6594 0.8271 0.0450
N1B N 0.6064(3) 0.2446(8) 0.3060(3)
N2B N 0.5223(3) 0.1187(8) 0.3312(3)
N3B N 0.7441(3) -0.0171(8) 0.5016(3)
H17B H 0.7780 0.0076 0.5062
N4B N 0.6754(3) -0.1234(8) 0.5209(3)
O1B O 0.8489(2) -0.0544(7) 0.5775(2)
H18B H 0.8841 -0.0465 0.5930
O2D O 0.5450(3) 0.5242(8) -0.1303(2)
O2B O 0.5450(3) 0.4758(8) 0.3697(2)
O3D O 0.4523(2) 0.5641(9) -0.1711(3)
O3B O 0.4523(2) 0.4359(9) 0.3289(3)
Pb1F Pb 0.5000 0.65726(6) -0.2500
loop_
_geom_bond_atom_site_label_1
_geom_bond_atom_site_label_2
_geom_bond_site_symmetry_1
_geom_bond_site_symmetry_2
C1 H1 1_555 1_555
C2 C1 1_555 1_555
H2 C2 1_555 1_555
C3 C2 1_555 1_555
H3 C3 1_555 1_555
C4 C3 1_555 1_555
C5 C4 1_555 1_555
C6 C5 1_555 1_555
C7 H4 1_555 1_555
C8 C7 1_555 1_555
H5 C8 1_555 1_555
C9 C4 1_555 1_555
C10 C9 1_555 1_555
C11 C6 1_555 1_555
C12 C8 1_555 1_555
H6 C12 1_555 1_555
C13 C14 1_555 1_555
C14 C15 1_555 1_555
C15 C16 1_555 1_555
C16 H7 1_555 1_555
C17 C16 1_555 1_555
H8 C17 1_555 1_555
C18 C17 1_555 1_555
C19 C14 1_555 1_555
C20 C19 1_555 1_555
H9 C20 1_555 1_555
C21 C20 1_555 1_555
H10 C21 1_555 1_555
C22 C21 1_555 1_555
H11 C22 1_555 1_555
C23 C18 1_555 1_555
H12 C23 1_555 1_555
C24 C25 1_555 1_555
C25 C26 1_555 1_555
C26 C27 1_555 1_555
C27 H13 1_555 1_555
C28 C25 1_555 1_555
C29 C28 1_555 1_555
H14 C29 1_555 1_555
C30 C29 1_555 1_555
H15 C30 1_555 1_555
C31 C27 1_555 1_555
H16 C31 1_555 1_555
N1 C1 1_555 1_555
N2 C6 1_555 1_555
N3 C9 1_555 1_555
H17 N3 1_555 1_555
N4 C10 1_555 1_555
O1 C15 1_555 1_555
H18 O1 1_555 1_555
O2 C24 1_555 1_555
O3 C24 1_555 1_555
Pb1 N1 1_555 1_555
C1B H1B 1_555 1_555
C2B C1B 1_555 1_555
H2B C2B 1_555 1_555
C3B C2B 1_555 1_555
H3B C3B 1_555 1_555
C4B C3B 1_555 1_555
C5B C4B 1_555 1_555
C6B C5B 1_555 1_555
C7B H4B 1_555 1_555
C8B C7B 1_555 1_555
H5B C8B 1_555 1_555
C9B C4B 1_555 1_555
C10B C9B 1_555 1_555
C11B C6B 1_555 1_555
C12B C8B 1_555 1_555
H6B C12B 1_555 1_555
C13B C14B 1_555 1_555
C14B C15B 1_555 1_555
C15B C16B 1_555 1_555
C16B H7B 1_555 1_555
C17B C16B 1_555 1_555
H8B C17B 1_555 1_555
C18B C17B 1_555 1_555
C19B C14B 1_555 1_555
C20B C19B 1_555 1_555
H9B C20B 1_555 1_555
C21B C20B 1_555 1_555
H10B C21B 1_555 1_555
C22B C21B 1_555 1_555
H11B C22B 1_555 1_555
C23B C18B 1_555 1_555
H12B C23B 1_555 1_555
C24D C25D 1_555 1_555
C25D C26D 1_555 1_555
C26D C28 1_555 1_555
C27D C26D 1_555 1_555
H13D C27D 1_555 1_555
C28D C26 1_555 1_555
C29D C28D 1_555 1_555
H14D C29D 1_555 1_555
C30D C31 1_555 1_555
H15D C30D 1_555 1_555
C31D C30 1_555 1_555
H16D C31D 1_555 1_555
N1B Pb1 1_555 1_555
N2B Pb1 1_555 1_555
N3B C9B 1_555 1_555
H17B N3B 1_555 1_555
N4B C10B 1_555 1_555
O1B C15B 1_555 1_555
H18B O1B 1_555 1_555
O2D C24D 1_555 1_555
O2B Pb1 1_555 1_555
O3D C24D 1_555 1_555
O3B Pb1 1_555 1_555
Pb1F O2D 1_555 1_555
C5 N1 1_555 1_555
C7 N2 1_555 1_555
C10 C11 1_555 1_555
C11 C12 1_555 1_555
C13 N3 1_555 1_555
C13 N4 1_555 1_555
C18 C19 1_555 1_555
C22 C23 1_555 1_555
N2 Pb1 1_555 1_555
O2 Pb1 1_555 1_555
O3 Pb1 1_555 1_555
C1B N1B 1_555 1_555
C5B N1B 1_555 1_555
C6B N2B 1_555 1_555
C7B N2B 1_555 1_555
C10B C11B 1_555 1_555
C11B C12B 1_555 1_555
C13B N3B 1_555 1_555
C13B N4B 1_555 1_555
C18B C19B 1_555 1_555
C22B C23B 1_555 1_555
C25D C28D 1_555 1_555
C27D C31D 1_555 1_555
C29D C30D 1_555 1_555
O3D Pb1F 1_555 1_555

#END
