
#######################################################################
#
#                 Cambridge Crystallographic Data Centre
#                                CCDC 
#
#######################################################################
#
# If this CIF has been generated from an entry in the Cambridge 
# Structural Database, then it will include bibliographic, chemical, 
# crystal, experimental, refinement or atomic coordinate data resulting 
# from the CCDC's data processing and validation procedures.
#
#######################################################################

data_YICQEH
_symmetry_cell_setting           monoclinic
_symmetry_space_group_name_H-M   'P 21/c'
_symmetry_Int_Tables_number      14
_space_group_name_Hall           '-P 2ybc'
loop_
_symmetry_equiv_pos_site_id
_symmetry_equiv_pos_as_xyz
1 x,y,z
2 -x,1/2+y,1/2-z
3 -x,-y,-z
4 x,1/2-y,1/2+z
_cell_length_a                   16.355(3)
_cell_length_b                   19.595(4)
_cell_length_c                   15.185(3)
_cell_angle_alpha                90
_cell_angle_beta                 99.29(3)
_cell_angle_gamma                90
_cell_volume                     4802.6
loop_
_atom_site_label
_atom_site_type_symbol
_atom_site_fract_x
_atom_site_fract_y
_atom_site_fract_z
Pb1 Pb 0.072138(10) 0.012878(7) 0.418236(9)
Pb2 Pb 0.141592(10) -0.069423(7) -0.301885(9)
O1 O 0.1064(2) -0.12641(15) -0.16429(18)
O2 O 0.1227(2) -0.04248(15) 0.30064(17)
N1 N 0.2999(2) -0.07096(16) -0.3142(2)
O3 O 0.2001(2) -0.04514(18) -0.15371(19)
O4 O 0.1254(2) 0.11094(14) 0.3459(2)
C1 C 0.2025(3) -0.04540(19) 0.0427(3)
C2 C 0.0986(3) -0.03734(18) 0.1435(2)
N2 N 0.1334(2) -0.11182(15) 0.4732(2)
C3 C 0.1817(3) -0.02861(18) 0.1288(2)
C4 C 0.2465(3) -0.1867(2) 0.4576(3)
O5 O -0.0001(2) 0.14614(14) 0.36086(19)
C5 C 0.3461(3) -0.0678(2) 0.4470(3)
C6 C 0.0781(3) 0.21611(18) 0.2779(2)
N3 N 0.4545(2) -0.32172(19) -0.3287(2)
N4 N 0.3629(3) -0.25729(19) 0.4409(2)
C7 C 0.0604(3) -0.0785(2) -0.0076(3)
H1 H 0.0197 -0.0958 -0.0519
C8 C 0.2948(3) -0.19338(19) -0.3069(2)
C9 C 0.3823(3) -0.1363(2) 0.4388(3)
C10 C 0.1942(3) -0.2428(2) 0.4617(3)
H2 H 0.2148 -0.2869 0.4595
C11 C 0.3928(3) -0.0090(2) 0.4432(3)
H3 H 0.4479 -0.0122 0.4354
C12 C 0.2755(3) 0.0563(2) 0.4604(3)
H4 H 0.2514 0.0988 0.4652
C13 C 0.1731(3) -0.2431(2) -0.2809(3)
H5 H 0.1187 -0.2388 -0.2709
C14 C 0.1108(3) 0.21482(18) 0.1968(2)
C15 C 0.4654(3) -0.1998(2) -0.3281(3)
C16 C 0.0567(3) 0.27735(19) 0.3116(3)
H6 H 0.0316 0.2779 0.3624
C17 C 0.0719(3) 0.3390(2) 0.2706(3)
H7 H 0.0606 0.3800 0.2970
C18 C 0.1502(3) -0.0828(2) -0.1199(3)
N5 N 0.5449(2) -0.1998(2) -0.3366(2)
C19 C 0.3247(4) 0.0041(3) 0.1772(3)
H8 H 0.3656 0.0213 0.2213
C20 C 0.2849(3) -0.0378(3) 0.0291(3)
H9 H 0.2990 -0.0495 -0.0259
C21 C 0.3576(3) 0.0535(2) 0.4509(3)
H10 H 0.3885 0.0933 0.4497
C22 C 0.2881(3) -0.3150(2) -0.2957(3)
H11 H 0.3117 -0.3581 -0.2969
C23 C 0.1033(3) 0.34001(19) 0.1923(3)
C24 C 0.1701(3) 0.2154(3) 0.0336(3)
H12 H 0.1893 0.2152 -0.0208
C25 C 0.4900(3) -0.2040(3) 0.4177(3)
C26 C 0.3448(3) -0.0136(3) 0.0948(3)
H13 H 0.3990 -0.0089 0.0844
C27 C 0.4672(3) -0.0725(2) -0.3250(3)
H14 H 0.5235 -0.0725 -0.3281
C28 C 0.4196(3) -0.2604(2) -0.3226(3)
C29 C 0.3320(3) -0.1947(2) 0.4460(3)
C30 C 0.0845(3) -0.1660(2) 0.4748(3)
H15 H 0.0292 -0.1591 0.4800
C31 C 0.5351(3) -0.3228(3) -0.3387(3)
C32 C 0.7032(4) -0.3277(4) -0.3475(4)
H16 H 0.7599 -0.3303 -0.3479
C33 C 0.1516(3) 0.2756(2) 0.0694(3)
H17 H 0.1588 0.3161 0.0396
N6 N 0.2289(2) 0.00095(15) 0.4631(2)
C34 C 0.5720(4) -0.2120(3) 0.4007(4)
H18 H 0.6042 -0.1738 0.3940
C35 C 0.0658(3) 0.1532(2) 0.3316(2)
C36 C 0.4420(4) -0.2623(3) 0.4267(3)
C37 C 0.2082(3) -0.3082(2) -0.2809(3)
H19 H 0.1775 -0.3466 -0.2708
C38 C 0.4244(3) -0.1337(2) -0.3231(3)
N7 N 0.2152(2) -0.18715(15) -0.2949(2)
C39 C 0.3410(3) -0.13076(19) -0.3161(2)
C40 C 0.1610(3) 0.1540(2) 0.0768(3)
H20 H 0.1747 0.1131 0.0518
C41 C 0.2641(3) -0.06137(19) 0.4582(2)
C42 C 0.6671(3) -0.2650(3) -0.3446(4)
H21 H 0.6982 -0.2253 -0.3452
O6 O 0.0043(2) 0.00314(14) 0.2357(2)
C43 C 0.0399(3) -0.0615(2) 0.0767(3)
H22 H -0.0143 -0.0669 0.0867
C44 C 0.2127(3) -0.12198(19) 0.4635(2)
C45 C 0.4779(4) -0.3279(3) 0.4206(4)
H23 H 0.4474 -0.3671 0.4267
C46 C 0.6037(4) -0.2752(4) 0.3943(4)
H24 H 0.6572 -0.2802 0.3819
C47 C 0.2463(3) -0.0032(2) 0.1945(3)
H25 H 0.2347 0.0087 0.2505
C48 C 0.6570(4) -0.3886(3) -0.3501(4)
H26 H 0.6827 -0.4305 -0.3552
C49 C 0.1384(3) -0.07006(19) -0.0247(2)
N8 N 0.4594(2) -0.1402(2) 0.4239(3)
C50 C 0.4258(3) -0.0125(2) -0.3222(3)
H27 H 0.4537 0.0287 -0.3230
C51 C 0.5570(5) -0.3323(4) 0.4059(4)
H28 H 0.5808 -0.3752 0.4035
C52 C 0.3417(3) -0.0134(2) -0.3182(3)
H29 H 0.3136 0.0279 -0.3183
C53 C 0.5756(4) -0.3858(3) -0.3451(3)
H30 H 0.5455 -0.4262 -0.3459
C54 C 0.0724(3) -0.02370(19) 0.2322(3)
C55 C 0.1213(3) 0.27769(19) 0.1522(2)
C56 C 0.1317(3) 0.1540(2) 0.1559(3)
H31 H 0.1254 0.1126 0.1839
O7 O 0.1782(2) 0.44208(15) 0.1984(3)
O8 O 0.0780(3) 0.42793(16) 0.0838(2)
C57 C 0.1219(3) 0.4085(2) 0.1536(3)
C58 C 0.3338(3) -0.2572(2) -0.3091(3)
C59 C 0.5812(3) -0.2619(3) -0.3406(3)
C60 C 0.1131(3) -0.2326(2) 0.4690(3)
H32 H 0.0774 -0.2694 0.4701
Pb1C Pb 0.072138(10) 0.487122(7) -0.081764(9)
Pb2C Pb 0.141592(10) 0.569423(7) 0.198115(9)
O7C O 0.1782(2) 0.05792(15) -0.3016(3)
O8C O 0.0780(3) 0.07207(16) 0.5838(2)
loop_
_geom_bond_atom_site_label_1
_geom_bond_atom_site_label_2
_geom_bond_site_symmetry_1
_geom_bond_site_symmetry_2
Pb1 O2 1_555 1_555
Pb2 O1 1_555 1_555
O1 C18 1_555 1_555
O2 C54 1_555 1_555
N1 Pb2 1_555 1_555
O3 Pb2 1_555 1_555
O4 Pb1 1_555 1_555
C1 C3 1_555 1_555
C2 C3 1_555 1_555
N2 Pb1 1_555 1_555
C3 C47 1_555 1_555
C4 C10 1_555 1_555
O5 C35 1_555 1_555
C5 C9 1_555 1_555
C6 C14 1_555 1_555
N3 C28 1_555 1_555
N4 C29 1_555 1_555
C7 H1 1_555 1_555
C8 N7 1_555 1_555
C9 C29 1_555 1_555
C10 H2 1_555 1_555
C11 C5 1_555 1_555
H3 C11 1_555 1_555
C12 H4 1_555 1_555
C13 H5 1_555 1_555
C14 C55 1_555 1_555
C15 N5 1_555 1_555
C16 C6 1_555 1_555
H6 C16 1_555 1_555
C17 C16 1_555 1_555
H7 C17 1_555 1_555
C18 O3 1_555 1_555
N5 C59 1_555 1_555
C19 H8 1_555 1_555
C20 C1 1_555 1_555
H9 C20 1_555 1_555
C21 C11 1_555 1_555
H10 C21 1_555 1_555
C22 H11 1_555 1_555
C23 C17 1_555 1_555
C24 H12 1_555 1_555
C25 C34 1_555 1_555
C26 C19 1_555 1_555
H13 C26 1_555 1_555
C27 H14 1_555 1_555
C28 C15 1_555 1_555
C29 C4 1_555 1_555
C30 N2 1_555 1_555
H15 C30 1_555 1_555
C31 N3 1_555 1_555
C32 H16 1_555 1_555
C33 C24 1_555 1_555
H17 C33 1_555 1_555
N6 Pb1 1_555 1_555
C34 H18 1_555 1_555
C35 O4 1_555 1_555
C36 N4 1_555 1_555
C37 C13 1_555 1_555
H19 C37 1_555 1_555
C38 C15 1_555 1_555
N7 Pb2 1_555 1_555
C39 N1 1_555 1_555
C40 C24 1_555 1_555
H20 C40 1_555 1_555
C41 C5 1_555 1_555
C42 C32 1_555 1_555
H21 C42 1_555 1_555
O6 C54 1_555 1_555
C43 C2 1_555 1_555
H22 C43 1_555 1_555
C44 N2 1_555 1_555
C45 C36 1_555 1_555
H23 C45 1_555 1_555
C46 C34 1_555 1_555
H24 C46 1_555 1_555
C47 C19 1_555 1_555
H25 C47 1_555 1_555
C48 C32 1_555 1_555
H26 C48 1_555 1_555
C49 C1 1_555 1_555
N8 C9 1_555 1_555
C50 C27 1_555 1_555
H27 C50 1_555 1_555
C51 C45 1_555 1_555
H28 C51 1_555 1_555
C52 N1 1_555 1_555
H29 C52 1_555 1_555
C53 C31 1_555 1_555
H30 C53 1_555 1_555
C54 C2 1_555 1_555
C55 C23 1_555 1_555
C56 C14 1_555 1_555
H31 C56 1_555 1_555
O7 C57 1_555 1_555
O8 C57 1_555 1_555
C57 C23 1_555 1_555
C58 C8 1_555 1_555
C59 C31 1_555 1_555
C60 C10 1_555 1_555
H32 C60 1_555 1_555
Pb1C O8 1_555 1_555
Pb2C O7 1_555 1_555
O7C Pb2 1_555 1_555
O8C Pb1 1_555 1_555
C4 C44 1_555 1_555
C6 C35 1_555 1_555
C7 C43 1_555 1_555
C7 C49 1_555 1_555
C8 C39 1_555 1_555
C12 C21 1_555 1_555
C12 N6 1_555 1_555
C13 N7 1_555 1_555
C18 C49 1_555 1_555
C20 C26 1_555 1_555
C22 C37 1_555 1_555
C22 C58 1_555 1_555
C25 C36 1_555 1_555
C25 N8 1_555 1_555
C27 C38 1_555 1_555
C28 C58 1_555 1_555
C30 C60 1_555 1_555
C33 C55 1_555 1_555
N6 C41 1_555 1_555
C38 C39 1_555 1_555
C40 C56 1_555 1_555
C41 C44 1_555 1_555
C42 C59 1_555 1_555
C46 C51 1_555 1_555
C48 C53 1_555 1_555
C50 C52 1_555 1_555

#END
