
#######################################################################
#
#                 Cambridge Crystallographic Data Centre
#                                CCDC 
#
#######################################################################
#
# If this CIF has been generated from an entry in the Cambridge 
# Structural Database, then it will include bibliographic, chemical, 
# crystal, experimental, refinement or atomic coordinate data resulting 
# from the CCDC's data processing and validation procedures.
#
#######################################################################

data_YICQOR
_symmetry_cell_setting           triclinic
_symmetry_space_group_name_H-M   'P -1'
_symmetry_Int_Tables_number      2
_space_group_name_Hall           '-P 1'
loop_
_symmetry_equiv_pos_site_id
_symmetry_equiv_pos_as_xyz
1 x,y,z
2 -x,-y,-z
_cell_length_a                   9.769(2)
_cell_length_b                   12.256(3)
_cell_length_c                   17.200(3)
_cell_angle_alpha                69.43(3)
_cell_angle_beta                 74.62(3)
_cell_angle_gamma                82.63(3)
_cell_volume                     1857.59
loop_
_atom_site_label
_atom_site_type_symbol
_atom_site_fract_x
_atom_site_fract_y
_atom_site_fract_z
Pb1 Pb 0.55519(2) 0.132453(16) 0.030896(13)
Pb2 Pb 0.38408(2) -0.117620(17) 0.281420(14)
C1 C 0.3314(6) 0.6051(4) 0.1879(4)
C2 C 0.1627(6) 0.6935(5) 0.0963(4)
H1 H 0.1372 0.7509 0.1219
O1 O 0.5862(4) -0.0105(3) 0.1708(3)
C3 C 0.8706(6) 0.1246(4) 0.1975(4)
C4 C 0.8053(5) 0.0433(4) 0.1780(4)
C5 C 0.7932(6) 0.1965(5) 0.2436(4)
H2 H 0.6956 0.1890 0.2648
C6 C 1.2578(6) 0.0775(4) 0.0802(4)
C7 C 0.4678(6) 0.4304(5) 0.1748(4)
H3 H 0.5374 0.3741 0.1914
N1 N 0.9110(6) -0.5705(4) 0.3835(3)
C8 C 0.2292(6) 0.5193(5) 0.0222(4)
H4 H 0.2492 0.4613 -0.0028
C9 C 0.1330(6) 0.6077(5) -0.0030(4)
H5 H 0.0885 0.6092 -0.0450
O2 O 0.2868(5) 0.6733(3) 0.3053(3)
O3 O 0.5424(5) 0.2523(3) 0.1136(3)
O4 O 0.3330(4) 0.8034(3) 0.1752(3)
O5 O 1.3341(4) 0.0755(3) 0.1298(2)
C10 C 0.6536(6) 0.0097(4) 0.2182(4)
C11 C 0.7547(6) -0.3350(5) 0.1628(4)
H6 H 0.7908 -0.3346 0.1069
O6 O 1.3088(4) 0.0844(4) 0.0043(3)
C12 C 1.0213(6) 0.1390(5) 0.1648(4)
O7 O 0.6008(4) -0.0057(4) 0.2951(3)
C13 C 0.8027(7) -0.4854(5) 0.3834(4)
C14 C 0.8110(7) -0.4097(5) 0.2273(4)
H7 H 0.8870 -0.4603 0.2158
N2 N 0.4705(5) -0.2452(4) 0.4194(3)
C15 C 1.0035(7) 0.2912(6) 0.2268(4)
H8 H 1.0461 0.3470 0.2368
C16 C 0.4211(8) -0.2322(6) 0.4957(4)
H9 H 0.3484 -0.1767 0.5020
N3 N 0.5864(5) -0.2555(4) 0.2598(3)
C17 C 0.5785(6) -0.3251(5) 0.4114(4)
C18 C 0.6337(7) -0.3981(5) 0.4804(4)
N4 N 0.8191(6) -0.5633(4) 0.5155(4)
H10 H 0.8069 -0.5794 0.5697
C19 C 0.6396(6) -0.3311(4) 0.3253(4)
C20 C 0.7454(6) -0.4791(5) 0.4632(4)
C21 C 0.2650(5) 0.6051(4) 0.1231(3)
C22 C 1.0309(5) -0.0025(5) 0.0943(4)
H11 H 1.0829 -0.0437 0.0591
C23 C 0.4552(6) 0.3269(4) 0.0789(4)
C24 C 0.8852(6) -0.0169(5) 0.1256(4)
H12 H 0.8412 -0.0675 0.1111
C25 C 0.2992(6) 0.5147(4) 0.0863(4)
C26 C 0.1014(6) 0.6951(5) 0.0334(4)
H13 H 0.0375 0.7557 0.0146
C27 C 0.7535(6) -0.4098(5) 0.3111(4)
C28 C 0.8586(7) 0.2764(5) 0.2576(4)
H14 H 0.8050 0.3224 0.2887
C29 C 1.0991(5) 0.0711(4) 0.1144(3)
C30 C 0.4307(6) 0.5178(5) 0.2123(4)
H15 H 0.4741 0.5169 0.2546
C31 C 1.0841(6) 0.2237(5) 0.1816(4)
H16 H 1.1815 0.2336 0.1616
C32 C 0.4036(6) 0.4263(4) 0.1140(4)
C33 C 0.3128(6) 0.7012(5) 0.2241(4)
C34 C 0.5782(8) -0.3801(6) 0.5594(4)
H17 H 0.6135 -0.4246 0.6066
C35 C 0.6424(6) -0.2596(5) 0.1818(4)
H18 H 0.6045 -0.2092 0.1373
O8 O 0.4134(5) 0.3184(3) 0.0178(3)
C36 C 0.9154(7) -0.6167(5) 0.4650(4)
C37 C 1.0348(7) -0.7508(6) 0.5773(4)
H19 H 0.9836 -0.7140 0.6157
C38 C 1.0133(8) -0.7144(6) 0.4965(5)
C39 C 0.4742(9) -0.2986(7) 0.5667(5)
H20 H 0.4376 -0.2865 0.6189
C40 C 1.0899(12) -0.7717(8) 0.4412(6)
H21 H 1.0774 -0.7486 0.3858
C41 C 1.1312(8) -0.8414(6) 0.6035(5)
H22 H 1.1442 -0.8646 0.6587
C42 C 1.2067(9) -0.8963(6) 0.5482(5)
C43 C 1.1849(14) -0.8628(9) 0.4672(7)
H23 H 1.2342 -0.9016 0.4297
O9 O 1.3031(7) -0.9859(5) 0.5697(4)
H24 H 1.3754 -0.9757 0.5309
Pb1_2 Pb 1.55519(2) 0.132453(16) 0.030896(13)
Pb2_2 Pb 0.38408(2) 0.882380(17) 0.281420(14)
O2_2 O 0.2868(5) -0.3267(3) 0.3053(3)
O4_2 O 0.3330(4) -0.1966(3) 0.1752(3)
O5_2 O 0.3341(4) 0.0755(3) 0.1298(2)
O6_2 O 0.3088(4) 0.0844(4) 0.0043(3)
loop_
_geom_bond_atom_site_label_1
_geom_bond_atom_site_label_2
_geom_bond_site_symmetry_1
_geom_bond_site_symmetry_2
Pb1 O1 1_555 1_555
Pb2 O1 1_555 1_555
C1 C21 1_555 1_555
C2 H1 1_555 1_555
O1 C10 1_555 1_555
C3 C4 1_555 1_555
C4 C10 1_555 1_555
C5 C3 1_555 1_555
H2 C5 1_555 1_555
C6 O5 1_555 1_555
C7 H3 1_555 1_555
N1 C13 1_555 1_555
C8 H4 1_555 1_555
C9 C8 1_555 1_555
H5 C9 1_555 1_555
O2 C33 1_555 1_555
O3 Pb1 1_555 1_555
O4 C33 1_555 1_555
O5 Pb1_2 1_555 1_555
C10 O7 1_555 1_555
C11 H6 1_555 1_555
O6 C6 1_555 1_555
C12 C3 1_555 1_555
C13 C20 1_555 1_555
C14 C11 1_555 1_555
H7 C14 1_555 1_555
N2 Pb2 1_555 1_555
C15 H8 1_555 1_555
C16 N2 1_555 1_555
H9 C16 1_555 1_555
N3 Pb2 1_555 1_555
C17 N2 1_555 1_555
C18 C17 1_555 1_555
N4 H10 1_555 1_555
C19 N3 1_555 1_555
C20 C18 1_555 1_555
C21 C2 1_555 1_555
C22 H11 1_555 1_555
C23 O3 1_555 1_555
C24 C4 1_555 1_555
H12 C24 1_555 1_555
C25 C8 1_555 1_555
C26 C2 1_555 1_555
H13 C26 1_555 1_555
C27 C13 1_555 1_555
C28 C5 1_555 1_555
H14 C28 1_555 1_555
C29 C6 1_555 1_555
C30 C1 1_555 1_555
H15 C30 1_555 1_555
C31 C12 1_555 1_555
H16 C31 1_555 1_555
C32 C7 1_555 1_555
C33 C1 1_555 1_555
C34 C18 1_555 1_555
H17 C34 1_555 1_555
C35 C11 1_555 1_555
H18 C35 1_555 1_555
O8 Pb1 1_555 1_555
C36 N1 1_555 1_555
C37 H19 1_555 1_555
C38 C36 1_555 1_555
C39 C16 1_555 1_555
H20 C39 1_555 1_555
C40 C38 1_555 1_555
H21 C40 1_555 1_555
C41 C37 1_555 1_555
H22 C41 1_555 1_555
C42 C41 1_555 1_555
C43 C40 1_555 1_555
H23 C43 1_555 1_555
O9 C42 1_555 1_555
H24 O9 1_555 1_555
Pb1_2 O6 1_555 1_555
Pb2_2 O2 1_555 1_555
O2_2 Pb2 1_555 1_555
O4_2 Pb2 1_555 1_555
O5_2 Pb1 1_555 1_555
O6_2 Pb1 1_555 1_555
C7 C30 1_555 1_555
C9 C26 1_555 1_555
O4 Pb2_2 1_555 1_555
C12 C29 1_555 1_555
C14 C27 1_555 1_555
C15 C28 1_555 1_555
C15 C31 1_555 1_555
N3 C35 1_555 1_555
C17 C19 1_555 1_555
N4 C20 1_555 1_555
N4 C36 1_555 1_555
C19 C27 1_555 1_555
C21 C25 1_555 1_555
C22 C24 1_555 1_555
C22 C29 1_555 1_555
C23 C32 1_555 1_555
C23 O8 1_555 1_555
C25 C32 1_555 1_555
C34 C39 1_555 1_555
C37 C38 1_555 1_555
C42 C43 1_555 1_555

#END
