
#######################################################################
#
#                 Cambridge Crystallographic Data Centre
#                                CCDC 
#
#######################################################################
#
# If this CIF has been generated from an entry in the Cambridge 
# Structural Database, then it will include bibliographic, chemical, 
# crystal, experimental, refinement or atomic coordinate data resulting 
# from the CCDC's data processing and validation procedures.
#
#######################################################################

data_YICQUX
_symmetry_cell_setting           monoclinic
_symmetry_space_group_name_H-M   'C 2/c'
_symmetry_Int_Tables_number      15
_space_group_name_Hall           '-C 2yn'
loop_
_symmetry_equiv_pos_site_id
_symmetry_equiv_pos_as_xyz
1 x,y,z
2 1/2+x,1/2+y,z
3 -x,y,1/2-z
4 1/2-x,1/2+y,1/2-z
5 -x,-y,-z
6 1/2-x,1/2-y,-z
7 x,-y,1/2+z
8 1/2+x,1/2-y,1/2+z
_cell_length_a                   16.814(3)
_cell_length_b                   17.895(4)
_cell_length_c                   7.2417(14)
_cell_angle_alpha                90
_cell_angle_beta                 114.10(3)
_cell_angle_gamma                90
_cell_volume                     1989
loop_
_atom_site_label
_atom_site_type_symbol
_atom_site_fract_x
_atom_site_fract_y
_atom_site_fract_z
C1 C 0.3645(12) -0.0560(10) 0.220(2)
C2 C 0.3161(13) -0.1236(12) 0.226(3)
C3 C 0.3611(13) -0.1879(12) 0.295(3)
H1 H 0.4212 -0.1892 0.3365
C4 C 0.3158(14) -0.2521(12) 0.305(4)
H2 H 0.3469 -0.2957 0.3577
C5 C 0.2297(14) -0.2531(11) 0.241(3)
C6 C 0.1804(9) -0.1890(8) 0.169(3)
C7 C 0.2232(9) -0.1249(9) 0.150(4)
C8 C 0.1763(14) -0.0598(9) 0.072(7)
H3 H 0.2049 -0.0169 0.0594
C9 C 0.0866(14) -0.0588(13) 0.013(9)
H4 H 0.0552 -0.0153 -0.0386
C10 C 0.0438(9) -0.1229(15) 0.032(9)
H5 H -0.0162 -0.1223 -0.0070
C11 C 0.0907(10) -0.1880(11) 0.110(6)
H6 H 0.0621 -0.2309 0.1225
C12 C 0.1873(15) -0.3255(14) 0.257(4)
O1 O 0.4447(13) -0.0532(8) 0.362(3)
O2 O 0.3397(9) -0.0068(7) 0.097(2)
O3 O 0.1081(15) -0.3368(14) 0.182(4)
O4 O 0.2410(12) -0.3786(10) 0.351(4)
H7 H 0.2134 -0.4160 0.3538
Pb1 Pb 0.5000 0.05722(4) 0.2500
C1F C 0.3645(12) 0.0560(10) -0.280(2)
C2F C 0.3161(13) 0.1236(12) -0.274(3)
C3F C 0.3611(13) 0.1879(12) -0.205(3)
H1F H 0.4212 0.1892 -0.1635
C4F C 0.3158(14) 0.2521(12) -0.195(4)
H2F H 0.3469 0.2957 -0.1423
C5F C 0.2297(14) 0.2531(11) -0.259(3)
C6F C 0.1804(9) 0.1890(8) -0.331(3)
C7F C 0.2232(9) 0.1249(9) -0.350(4)
C8F C 0.1763(14) 0.0598(9) -0.428(7)
H3F H 0.2049 0.0169 -0.4406
C9F C 0.0866(14) 0.0588(13) -0.487(9)
H4F H 0.0552 0.0153 -0.5386
C10F C 0.0438(9) 0.1229(15) -0.468(9)
H5F H -0.0162 0.1223 -0.5070
C11F C 0.0907(10) 0.1880(11) -0.390(6)
H6F H 0.0621 0.2309 -0.3775
C12F C 0.1873(15) 0.3255(14) -0.243(4)
O1F O 0.4447(13) 0.0532(8) -0.138(3)
O1D O 0.5553(13) 0.0532(8) 0.638(3)
O1B O 0.5553(13) -0.0532(8) 0.138(3)
O2F O 0.3397(9) 0.0068(7) -0.403(2)
O2B O 0.6603(9) -0.0068(7) 0.403(2)
O3F O 0.1081(15) 0.3368(14) -0.318(4)
O4F O 0.2410(12) 0.3786(10) -0.149(4)
H7F H 0.2134 0.4160 -0.1462
Pb1F Pb 0.5000 -0.05722(4) 0.7500
Pb1F_2 Pb 0.5000 -0.05722(4) -0.2500
O5 O 0.5000 -0.174(5) 0.2500
loop_
_geom_bond_atom_site_label_1
_geom_bond_atom_site_label_2
_geom_bond_site_symmetry_1
_geom_bond_site_symmetry_2
C1 C2 1_555 1_555
C2 C3 1_555 1_555
C3 H1 1_555 1_555
C4 C3 1_555 1_555
H2 C4 1_555 1_555
C5 C4 1_555 1_555
C6 C5 1_555 1_555
C7 C2 1_555 1_555
C8 C7 1_555 1_555
H3 C8 1_555 1_555
C9 C8 1_555 1_555
H4 C9 1_555 1_555
C10 C9 1_555 1_555
H5 C10 1_555 1_555
C11 C6 1_555 1_555
H6 C11 1_555 1_555
C12 C5 1_555 1_555
O1 C1 1_555 1_555
O2 C1 1_555 1_555
O3 C12 1_555 1_555
O4 C12 1_555 1_555
H7 O4 1_555 1_555
Pb1 O1 1_555 1_555
C1F C2F 1_555 1_555
C2F C3F 1_555 1_555
C3F H1F 1_555 1_555
C4F C3F 1_555 1_555
H2F C4F 1_555 1_555
C5F C4F 1_555 1_555
C6F C5F 1_555 1_555
C7F C2F 1_555 1_555
C8F C7F 1_555 1_555
H3F C8F 1_555 1_555
C9F C8F 1_555 1_555
H4F C9F 1_555 1_555
C10F C9F 1_555 1_555
H5F C10F 1_555 1_555
C11F C6F 1_555 1_555
H6F C11F 1_555 1_555
C12F C5F 1_555 1_555
O1F Pb1 1_555 1_555
O1D Pb1 1_555 1_555
O1B Pb1 1_555 1_555
O2F C1F 1_555 1_555
O2B Pb1 1_555 1_555
O3F C12F 1_555 1_555
O4F C12F 1_555 1_555
H7F O4F 1_555 1_555
Pb1F O1 1_555 1_555
Pb1F_2 O1F 1_555 1_555
C6 C7 1_555 1_555
C10 C11 1_555 1_555
O2 Pb1 1_555 1_555
C1F O1F 1_555 1_555
C6F C7F 1_555 1_555
C10F C11F 1_555 1_555
O1D Pb1F 1_555 1_555
O1B Pb1F_2 1_555 1_555
O2F Pb1F_2 1_555 1_555

#END
