
#######################################################################
#
#                 Cambridge Crystallographic Data Centre
#                                CCDC 
#
#######################################################################
#
# If this CIF has been generated from an entry in the Cambridge 
# Structural Database, then it will include bibliographic, chemical, 
# crystal, experimental, refinement or atomic coordinate data resulting 
# from the CCDC's data processing and validation procedures.
#
#######################################################################

data_YICQAD
_symmetry_cell_setting           monoclinic
_symmetry_space_group_name_H-M   'C 2/c'
_symmetry_Int_Tables_number      15
_space_group_name_Hall           '-C 2yn'
loop_
_symmetry_equiv_pos_site_id
_symmetry_equiv_pos_as_xyz
1 x,y,z
2 1/2+x,1/2+y,z
3 -x,y,1/2-z
4 1/2-x,1/2+y,1/2-z
5 -x,-y,-z
6 1/2-x,1/2-y,-z
7 x,-y,1/2+z
8 1/2+x,1/2-y,1/2+z
_cell_length_a                   15.718(3)
_cell_length_b                   19.876(4)
_cell_length_c                   16.084(3)
_cell_angle_alpha                90
_cell_angle_beta                 94.24(3)
_cell_angle_gamma                90
_cell_volume                     5011.07
loop_
_atom_site_label
_atom_site_type_symbol
_atom_site_fract_x
_atom_site_fract_y
_atom_site_fract_z
C1 C 0.6778(4) 0.2076(3) 0.0810(4)
C2 C 0.6129(4) 0.2408(3) 0.0195(4)
C3 C 0.5893(4) 0.2059(3) -0.0521(4)
H1 H 0.6143 0.1645 -0.0614
C4 C 0.5280(4) 0.2318(3) -0.1115(4)
H2 H 0.5131 0.2075 -0.1598
C5 C 0.4900(4) 0.2922(3) -0.0990(4)
C6 C 0.4229(4) 0.3153(4) -0.1664(4)
C7 C 0.5128(4) 0.3314(3) -0.0257(4)
C8 C 0.5754(4) 0.3033(3) 0.0346(4)
C9 C 0.5939(5) 0.3403(4) 0.1098(4)
H3 H 0.6350 0.3240 0.1493
C10 C 0.5535(6) 0.3982(4) 0.1250(5)
H4 H 0.5644 0.4198 0.1760
C11 C 0.4954(5) 0.4261(4) 0.0650(5)
H5 H 0.4701 0.4673 0.0752
C12 C 0.4754(4) 0.3940(4) -0.0079(4)
H6 H 0.4364 0.4134 -0.0471
C13 C 0.7845(4) -0.0225(4) 0.2186(4)
H7 H 0.8342 -0.0253 0.1909
C14 C 0.7457(5) -0.0816(4) 0.2407(4)
H8 H 0.7697 -0.1229 0.2287
C15 C 0.6723(4) -0.0786(3) 0.2801(4)
H9 H 0.6448 -0.1179 0.2946
C16 C 0.6387(4) -0.0159(3) 0.2986(4)
C17 C 0.6826(4) 0.0411(3) 0.2749(3)
C18 C 0.6536(4) 0.1085(3) 0.2964(3)
C19 C 0.5554(4) 0.1829(4) 0.3581(4)
H10 H 0.5057 0.1906 0.3846
C20 C 0.6066(5) 0.2360(4) 0.3398(4)
H11 H 0.5922 0.2797 0.3537
C21 C 0.6801(5) 0.2232(4) 0.3001(4)
H12 H 0.7154 0.2591 0.2887
C22 C 0.5779(4) 0.1172(3) 0.3371(4)
C23 C 0.5330(4) 0.0581(3) 0.3564(3)
C24 C 0.5620(4) -0.0059(3) 0.3400(4)
C25 C 0.4485(4) -0.0197(3) 0.4018(4)
C26 C 0.3765(4) -0.0510(4) 0.4398(4)
C27 C 0.3164(5) -0.0144(4) 0.4809(4)
H13 H 0.3209 0.0321 0.4853
C28 C 0.2501(5) -0.0478(5) 0.5149(4)
H14 H 0.2097 -0.0233 0.5414
C29 C 0.2429(5) -0.1163(5) 0.5102(5)
H15 H 0.1988 -0.1381 0.5348
C30 C 0.3013(5) -0.1528(5) 0.4690(5)
H16 H 0.2963 -0.1993 0.4648
C31 C 0.3671(5) -0.1199(4) 0.4340(4)
H17 H 0.4061 -0.1447 0.4058
N1 N 0.7024(3) 0.1613(3) 0.2777(3)
N2 N 0.7548(3) 0.0379(3) 0.2348(3)
N3 N 0.4595(3) 0.0492(3) 0.3960(3)
H18 H 0.4270 0.0801 0.4136
N4 N 0.5087(3) -0.0545(3) 0.3690(3)
O1 O 0.7341(3) 0.2430(2) 0.1199(3)
O2 O 0.6726(3) 0.1450(3) 0.0901(2)
O4 O 0.4081(3) 0.3766(3) -0.1773(3)
O5 O 0.3843(3) 0.2709(2) -0.2097(3)
Pb1 Pb 0.818836(15) 0.146867(14) 0.184856(14)
C1G C 1.1778(4) 0.2924(3) 0.5810(4)
C2G C 1.1129(4) 0.2592(3) 0.5195(4)
C3G C 1.0893(4) 0.2941(3) 0.4479(4)
H1G H 1.1143 0.3355 0.4386
C4G C 1.0280(4) 0.2682(3) 0.3885(4)
H2G H 1.0131 0.2925 0.3402
C5G C 0.9900(4) 0.2078(3) 0.4010(4)
C6G C 0.9229(4) 0.1847(4) 0.3336(4)
C7G C 1.0128(4) 0.1686(3) 0.4743(4)
C8G C 1.0754(4) 0.1967(3) 0.5346(4)
C9G C 1.0939(5) 0.1597(4) 0.6098(4)
H3G H 1.1350 0.1760 0.6493
C10G C 1.0535(6) 0.1018(4) 0.6250(5)
H4G H 1.0644 0.0802 0.6760
C11G C 0.9954(5) 0.0739(4) 0.5650(5)
H5G H 0.9701 0.0327 0.5752
C12G C 0.9754(4) 0.1060(4) 0.4921(4)
H6G H 0.9364 0.0866 0.4529
C13G C 1.2845(4) 0.5225(4) 0.7186(4)
H7G H 1.3342 0.5253 0.6909
C14G C 1.2457(5) 0.5816(4) 0.7407(4)
H8G H 1.2697 0.6229 0.7287
C15G C 1.1723(4) 0.5786(3) 0.7801(4)
H9G H 1.1448 0.6179 0.7946
C16G C 1.1387(4) 0.5159(3) 0.7986(4)
C17G C 1.1826(4) 0.4589(3) 0.7749(3)
C18G C 1.1536(4) 0.3915(3) 0.7964(3)
C19G C 1.0554(4) 0.3171(4) 0.8581(4)
H10G H 1.0057 0.3094 0.8846
C20G C 1.1066(5) 0.2640(4) 0.8398(4)
H11G H 1.0922 0.2203 0.8537
C21G C 1.1801(5) 0.2768(4) 0.8001(4)
H12G H 1.2154 0.2409 0.7887
C22G C 1.0779(4) 0.3828(3) 0.8371(4)
C23G C 1.0330(4) 0.4419(3) 0.8564(3)
C24G C 1.0620(4) 0.5059(3) 0.8400(4)
C25G C 0.9485(4) 0.5197(3) 0.9018(4)
C26G C 0.8765(4) 0.5510(4) 0.9398(4)
C27G C 0.8164(5) 0.5144(4) 0.9809(4)
H13G H 0.8209 0.4679 0.9853
C28G C 0.7501(5) 0.5478(5) 1.0149(4)
H14G H 0.7097 0.5233 1.0414
C29G C 0.7429(5) 0.6163(5) 1.0102(5)
H15G H 0.6988 0.6381 1.0348
C30G C 0.8013(5) 0.6528(5) 0.9690(5)
H16G H 0.7963 0.6993 0.9648
C31G C 0.8671(5) 0.6199(4) 0.9340(4)
H17G H 0.9061 0.6447 0.9058
N1G N 1.2024(3) 0.3387(3) 0.7777(3)
N2G N 1.2548(3) 0.4621(3) 0.7348(3)
N3G N 0.9595(3) 0.4508(3) 0.8960(3)
H18G H 0.9270 0.4199 0.9136
N4G N 1.0087(3) 0.5545(3) 0.8690(3)
O1G O 1.2341(3) 0.2570(2) 0.6199(3)
O2G O 1.1726(3) 0.3550(3) 0.5901(2)
O4G O 0.9081(3) 0.1234(3) 0.3227(3)
O4_2 O 1.4081(3) 0.3766(3) 0.8227(3)
O5G O 0.8843(3) 0.2291(2) 0.2903(3)
O5_2 O 1.3843(3) 0.2709(2) 0.7903(3)
Pb1G Pb 1.318836(15) 0.353133(14) 0.684856(14)
Pb1G_2 Pb 0.318836(15) 0.353133(14) -0.315144(14)
O3 O 0.5000 0.4750(5) -0.2500
loop_
_geom_bond_atom_site_label_1
_geom_bond_atom_site_label_2
_geom_bond_site_symmetry_1
_geom_bond_site_symmetry_2
C1 C2 1_555 1_555
C2 C3 1_555 1_555
C3 H1 1_555 1_555
C4 C3 1_555 1_555
H2 C4 1_555 1_555
C5 C4 1_555 1_555
C6 C5 1_555 1_555
C7 C5 1_555 1_555
C8 C2 1_555 1_555
C9 C8 1_555 1_555
H3 C9 1_555 1_555
C10 C9 1_555 1_555
H4 C10 1_555 1_555
C11 C10 1_555 1_555
H5 C11 1_555 1_555
C12 C7 1_555 1_555
H6 C12 1_555 1_555
C13 H7 1_555 1_555
C14 C13 1_555 1_555
H8 C14 1_555 1_555
C15 C14 1_555 1_555
H9 C15 1_555 1_555
C16 C15 1_555 1_555
C17 C16 1_555 1_555
C18 C17 1_555 1_555
C19 H10 1_555 1_555
C20 C19 1_555 1_555
H11 C20 1_555 1_555
C21 C20 1_555 1_555
H12 C21 1_555 1_555
C22 C18 1_555 1_555
C23 C22 1_555 1_555
C24 C16 1_555 1_555
C25 C26 1_555 1_555
C26 C27 1_555 1_555
C27 H13 1_555 1_555
C28 C27 1_555 1_555
H14 C28 1_555 1_555
C29 C28 1_555 1_555
H15 C29 1_555 1_555
C30 C29 1_555 1_555
H16 C30 1_555 1_555
C31 C26 1_555 1_555
H17 C31 1_555 1_555
N1 C18 1_555 1_555
N2 C13 1_555 1_555
N3 C23 1_555 1_555
H18 N3 1_555 1_555
N4 C24 1_555 1_555
O1 C1 1_555 1_555
O2 C1 1_555 1_555
O4 C6 1_555 1_555
O5 C6 1_555 1_555
Pb1 N1 1_555 1_555
C1G C2G 1_555 1_555
C2G C3G 1_555 1_555
C3G H1G 1_555 1_555
C4G C3G 1_555 1_555
H2G C4G 1_555 1_555
C5G C4G 1_555 1_555
C6G C5G 1_555 1_555
C7G C5G 1_555 1_555
C8G C2G 1_555 1_555
C9G C8G 1_555 1_555
H3G C9G 1_555 1_555
C10G C9G 1_555 1_555
H4G C10G 1_555 1_555
C11G C10G 1_555 1_555
H5G C11G 1_555 1_555
C12G C7G 1_555 1_555
H6G C12G 1_555 1_555
C13G H7G 1_555 1_555
C14G C13G 1_555 1_555
H8G C14G 1_555 1_555
C15G C14G 1_555 1_555
H9G C15G 1_555 1_555
C16G C15G 1_555 1_555
C17G C16G 1_555 1_555
C18G C17G 1_555 1_555
C19G H10G 1_555 1_555
C20G C19G 1_555 1_555
H11G C20G 1_555 1_555
C21G C20G 1_555 1_555
H12G C21G 1_555 1_555
C22G C18G 1_555 1_555
C23G C22G 1_555 1_555
C24G C16G 1_555 1_555
C25G C26G 1_555 1_555
C26G C27G 1_555 1_555
C27G H13G 1_555 1_555
C28G C27G 1_555 1_555
H14G C28G 1_555 1_555
C29G C28G 1_555 1_555
H15G C29G 1_555 1_555
C30G C29G 1_555 1_555
H16G C30G 1_555 1_555
C31G C26G 1_555 1_555
H17G C31G 1_555 1_555
N1G C18G 1_555 1_555
N2G C13G 1_555 1_555
N3G C23G 1_555 1_555
H18G N3G 1_555 1_555
N4G C24G 1_555 1_555
O1G C1G 1_555 1_555
O2G C1G 1_555 1_555
O4G Pb1 1_555 1_555
O4_2 Pb1G 1_555 1_555
O5G Pb1 1_555 1_555
O5_2 Pb1G 1_555 1_555
Pb1G N1G 1_555 1_555
Pb1G_2 O4 1_555 1_555
C7 C8 1_555 1_555
C11 C12 1_555 1_555
C17 N2 1_555 1_555
C19 C22 1_555 1_555
C21 N1 1_555 1_555
C23 C24 1_555 1_555
C25 N3 1_555 1_555
C25 N4 1_555 1_555
C30 C31 1_555 1_555
N2 Pb1 1_555 1_555
O1 Pb1 1_555 1_555
O2 Pb1 1_555 1_555
O5 Pb1G_2 1_555 1_555
C6G O4G 1_555 1_555
C6G O5G 1_555 1_555
C7G C8G 1_555 1_555
C11G C12G 1_555 1_555
C17G N2G 1_555 1_555
C19G C22G 1_555 1_555
C21G N1G 1_555 1_555
C23G C24G 1_555 1_555
C25G N3G 1_555 1_555
C25G N4G 1_555 1_555
C30G C31G 1_555 1_555
N2G Pb1G 1_555 1_555
O1G Pb1G 1_555 1_555
O2G Pb1G 1_555 1_555

#END
