
#######################################################################
#
#                 Cambridge Crystallographic Data Centre
#                                CCDC 
#
#######################################################################
#
# If this CIF has been generated from an entry in the Cambridge 
# Structural Database, then it will include bibliographic, chemical, 
# crystal, experimental, refinement or atomic coordinate data resulting 
# from the CCDC's data processing and validation procedures.
#
#######################################################################

data_YICQOS
_symmetry_cell_setting           monoclinic
_symmetry_space_group_name_H-M   'C 2/c'
_symmetry_Int_Tables_number      15
_space_group_name_Hall           '-C 2yn'
loop_
_symmetry_equiv_pos_site_id
_symmetry_equiv_pos_as_xyz
1 x,y,z
2 -x,y,1/2-z
3 1/2+x,1/2+y,z
4 1/2-x,1/2+y,1/2-z
5 -x,-y,-z
6 x,-y,1/2+z
7 1/2-x,1/2-y,-z
8 1/2+x,1/2-y,1/2+z
_cell_length_a                   12.213(5)
_cell_length_b                   14.723(6)
_cell_length_c                   8.994(4)
_cell_angle_alpha                90
_cell_angle_beta                 108.105(4)
_cell_angle_gamma                90
_cell_volume                     1537.16
loop_
_atom_site_label
_atom_site_type_symbol
_atom_site_fract_x
_atom_site_fract_y
_atom_site_fract_z
Zn1 Zn 0.64465(2) -0.462383(17) 0.89715(3)
O1 O 0.59117(16) -0.34309(11) 0.8279(2)
O2 O 0.80689(14) -0.03381(12) 0.87212(19)
O3 O 0.70737(14) 0.02286(11) 0.6432(2)
O4 O 0.56520(15) 0.42228(11) 0.8691(2)
C1 C 0.5000 -0.3048(2) 0.7500
C2 C 0.5000 -0.2029(2) 0.7500
C3 C 0.6028(2) -0.15579(15) 0.7826(3)
H1 H 0.6723 -0.1872 0.8103
C4 C 0.6024(2) -0.06116(15) 0.7740(3)
C5 C 0.5000 -0.0114(2) 0.7500
C6 C 0.5000 0.0902(2) 0.7500
C7 C 0.5790(2) 0.13884(16) 0.8685(3)
H2 H 0.6329 0.1077 0.9483
C8 C 0.5783(2) 0.23297(16) 0.8692(3)
H3 H 0.6308 0.2643 0.9503
C9 C 0.5000 0.2810(2) 0.7500
C10 C 0.5000 0.3830(2) 0.7500
C11 C 0.7130(2) -0.01912(15) 0.7671(3)
O1A O 0.40883(16) -0.34309(11) 0.6721(2)
O2A O 0.19311(14) -0.03381(12) 0.62788(19)
O3A O 0.29263(14) 0.02286(11) 0.8568(2)
O4A O 0.43480(15) 0.42228(11) 0.6309(2)
C3A C 0.3972(2) -0.15579(15) 0.7174(3)
H1A H 0.3277 -0.1872 0.6897
C4A C 0.3976(2) -0.06116(15) 0.7260(3)
C7A C 0.4210(2) 0.13884(16) 0.6315(3)
H2A H 0.3671 0.1077 0.5517
C8A C 0.4217(2) 0.23297(16) 0.6308(3)
H3A H 0.3692 0.2643 0.5497
C11A C 0.2870(2) -0.01912(15) 0.7329(3)
Zn1A Zn 0.35535(2) -0.462383(17) 0.60285(3)
Zn1_2 Zn 0.64465(2) 0.537617(17) 0.89715(3)
Zn1A_2 Zn 0.35535(2) 0.537617(17) 0.60285(3)
Zn1B Zn 0.14465(2) 0.037617(17) 0.89715(3)
Zn1C Zn 0.85535(2) 0.037617(17) 0.60285(3)
Zn1F Zn 0.85535(2) -0.037617(17) 1.10285(3)
Zn1G Zn 0.14465(2) -0.037617(17) 0.39715(3)
O2F O 0.69311(14) -0.46619(12) 1.12788(19)
O2G O 0.30689(14) -0.46619(12) 0.37212(19)
O3B O 0.20737(14) -0.47714(11) 0.6432(2)
O3C O 0.79263(14) -0.47714(11) 0.8568(2)
O4_2 O 0.56520(15) -0.57772(11) 0.8691(2)
O4A_2 O 0.43480(15) -0.57772(11) 0.6309(2)
loop_
_geom_bond_atom_site_label_1
_geom_bond_atom_site_label_2
_geom_bond_site_symmetry_1
_geom_bond_site_symmetry_2
Zn1 O1 1_555 1_555
O1 C1 1_555 1_555
O2 C11 1_555 1_555
O3 C11 1_555 1_555
O4 C10 1_555 1_555
C1 C2 1_555 1_555
C2 C3 1_555 1_555
C3 H1 1_555 1_555
C4 C3 1_555 1_555
C5 C4 1_555 1_555
C6 C5 1_555 1_555
C7 C6 1_555 1_555
H2 C7 1_555 1_555
C8 C7 1_555 1_555
H3 C8 1_555 1_555
C9 C8 1_555 1_555
C10 C9 1_555 1_555
C11 C4 1_555 1_555
O1A C1 1_555 1_555
O2A C11A 1_555 1_555
O3A C11A 1_555 1_555
O4A C10 1_555 1_555
C3A C2 1_555 1_555
H1A C3A 1_555 1_555
C4A C5 1_555 1_555
C7A C6 1_555 1_555
H2A C7A 1_555 1_555
C8A C9 1_555 1_555
H3A C8A 1_555 1_555
C11A C4A 1_555 1_555
Zn1A O1A 1_555 1_555
Zn1_2 O4 1_555 1_555
Zn1A_2 O4A 1_555 1_555
Zn1B O3A 1_555 1_555
Zn1C O3 1_555 1_555
Zn1F O2 1_555 1_555
Zn1G O2A 1_555 1_555
O2F Zn1 1_555 1_555
O2G Zn1A 1_555 1_555
O3B Zn1A 1_555 1_555
O3C Zn1 1_555 1_555
O4_2 Zn1 1_555 1_555
O4A_2 Zn1A 1_555 1_555
C3A C4A 1_555 1_555
C7A C8A 1_555 1_555

#END
