
#######################################################################
#
#                 Cambridge Crystallographic Data Centre
#                                CCDC 
#
#######################################################################
#
# If this CIF has been generated from an entry in the Cambridge 
# Structural Database, then it will include bibliographic, chemical, 
# crystal, experimental, refinement or atomic coordinate data resulting 
# from the CCDC's data processing and validation procedures.
#
#######################################################################

data_YICRAF
_symmetry_cell_setting           monoclinic
_symmetry_space_group_name_H-M   'P 2/c'
_symmetry_Int_Tables_number      13
_space_group_name_Hall           '-P 2yc'
loop_
_symmetry_equiv_pos_site_id
_symmetry_equiv_pos_as_xyz
1 x,y,z
2 -x,y,1/2-z
3 -x,-y,-z
4 x,-y,1/2+z
_cell_length_a                   12.8567(3)
_cell_length_b                   8.9378(2)
_cell_length_c                   16.0555(4)
_cell_angle_alpha                90
_cell_angle_beta                 101.613(2)
_cell_angle_gamma                90
_cell_volume                     1807.18
loop_
_atom_site_label
_atom_site_type_symbol
_atom_site_fract_x
_atom_site_fract_y
_atom_site_fract_z
Cd1 Cd 0.90852(2) 1.71388(3) 0.506854(15)
Cd2 Cd 0.57973(2) 0.68661(3) 0.493402(16)
O1 O 0.8698(2) 1.5267(3) 0.58608(16)
O2 O 0.6130(2) 0.9052(3) 0.57511(15)
O3 O 0.74777(19) 0.8149(3) 0.52787(16)
C1 C 0.8583(3) 1.2685(4) 0.6117(2)
C2 C 0.8683(3) 1.2842(4) 0.6990(2)
H1 H 0.8946 1.3733 0.7250
C3 C 0.8866(3) 1.3965(4) 0.5597(2)
C4 C 0.7097(3) 0.9077(4) 0.57256(19)
C5 C 0.7767(3) 1.0284(4) 0.6205(2)
C6 C 0.8398(3) 1.1692(4) 0.7481(2)
C7 C 0.8154(3) 1.1379(4) 0.5731(2)
H2 H 0.8123 1.1233 0.5154
O4 O 0.9213(2) 1.3703(3) 0.49403(15)
O5 O 0.9064(2) 1.0971(3) 0.89408(15)
C8 C 0.8640(3) 1.1953(4) 0.8429(2)
O6 O 0.8438(3) 1.3228(3) 0.86737(15)
C9 C 0.7785(3) 0.7763(4) 0.7607(2)
H3 H 0.8266 0.7468 0.7277
C10 C 0.7894(3) 1.0407(4) 0.7096(2)
C11 C 0.7466(3) 0.9250(4) 0.76003(19)
C12 C 0.6717(3) 0.9655(5) 0.8083(2)
H4 H 0.6491 1.0643 0.8082
C13 C 0.7390(3) 0.6713(4) 0.8105(2)
H5 H 0.7627 0.5729 0.8119
C14 C 0.6647(3) 0.7124(4) 0.8581(2)
C15 C 0.6312(3) 0.8605(5) 0.8560(2)
H6 H 0.5809 0.8891 0.8872
C16 C 0.6199(3) 0.6006(5) 0.9119(2)
O7 O 0.4893(2) 0.8322(3) 0.38623(17)
O8 O 0.9943(2) 1.8390(3) 0.62326(18)
O9 O 0.6330(3) 0.4651(3) 0.90076(17)
O10 O 0.6629(2) 0.5481(4) 0.61038(17)
H7 H 0.6440 0.4543 0.6051
H8 H 0.7317 0.5525 0.6152
O11 O 0.5749(2) 0.6515(4) 0.96828(19)
H9 H 0.4492 0.7815 0.3483
H10 H 1.0187 1.9262 0.6150
H11 H 0.4529 0.8996 0.4049
H12 H 1.0522 1.7907 0.6367
Cd1_2 Cd 0.90852(2) 0.71388(3) 0.506854(15)
Cd1B Cd 1.09148(2) 1.28612(3) 0.493146(15)
Cd1C Cd 0.90852(2) 1.28612(3) 1.006854(15)
Cd2A Cd 0.42027(2) 0.68661(3) 1.006598(16)
Cd2C Cd 0.57973(2) 0.31339(3) 0.993402(16)
O3_2 O 0.74777(19) 1.8149(3) 0.52787(16)
O4B O 1.0787(2) 1.6297(3) 0.50597(15)
O5C O 0.9064(2) 1.9029(3) 0.39408(15)
O6C O 0.8438(3) 1.6772(3) 0.36737(15)
O9C O 0.6330(3) 0.5349(3) 0.40076(17)
O11A O 0.4251(2) 0.6515(4) 0.53172(19)
O12 O 0.6054(3) 0.3628(4) 0.73546(19)
loop_
_geom_bond_atom_site_label_1
_geom_bond_atom_site_label_2
_geom_bond_site_symmetry_1
_geom_bond_site_symmetry_2
Cd1 O1 1_555 1_555
Cd2 O2 1_555 1_555
O1 C3 1_555 1_555
O2 C4 1_555 1_555
O3 Cd2 1_555 1_555
C1 C2 1_555 1_555
C2 H1 1_555 1_555
C3 C1 1_555 1_555
C4 O3 1_555 1_555
C5 C4 1_555 1_555
C6 C2 1_555 1_555
C7 C1 1_555 1_555
H2 C7 1_555 1_555
O4 C3 1_555 1_555
O5 C8 1_555 1_555
C8 C6 1_555 1_555
O6 C8 1_555 1_555
C9 H3 1_555 1_555
C10 C5 1_555 1_555
C11 C9 1_555 1_555
C12 C11 1_555 1_555
H4 C12 1_555 1_555
C13 C9 1_555 1_555
H5 C13 1_555 1_555
C14 C13 1_555 1_555
C15 C12 1_555 1_555
H6 C15 1_555 1_555
C16 C14 1_555 1_555
O7 Cd2 1_555 1_555
O8 Cd1 1_555 1_555
O9 C16 1_555 1_555
O10 Cd2 1_555 1_555
H7 O10 1_555 1_555
H8 O10 1_555 1_555
O11 C16 1_555 1_555
H9 O7 1_555 1_555
H10 O8 1_555 1_555
H11 O7 1_555 1_555
H12 O8 1_555 1_555
Cd1_2 O3 1_555 1_555
Cd1B O4 1_555 1_555
Cd1C O5 1_555 1_555
Cd2A O11 1_555 1_555
Cd2C O9 1_555 1_555
O3_2 Cd1 1_555 1_555
O4B Cd1 1_555 1_555
O5C Cd1 1_555 1_555
O6C Cd1 1_555 1_555
O9C Cd2 1_555 1_555
O11A Cd2 1_555 1_555
C5 C7 1_555 1_555
C6 C10 1_555 1_555
O6 Cd1C 1_555 1_555
C10 C11 1_555 1_555
C14 C15 1_555 1_555

#END
