
#######################################################################
#
#                 Cambridge Crystallographic Data Centre
#                                CCDC 
#
#######################################################################
#
# If this CIF has been generated from an entry in the Cambridge 
# Structural Database, then it will include bibliographic, chemical, 
# crystal, experimental, refinement or atomic coordinate data resulting 
# from the CCDC's data processing and validation procedures.
#
#######################################################################

data_YICRIM
_symmetry_cell_setting           tetragonal
_symmetry_space_group_name_H-M   'P -4 21 c'
_symmetry_Int_Tables_number      114
_space_group_name_Hall           'P -4 2n'
loop_
_symmetry_equiv_pos_site_id
_symmetry_equiv_pos_as_xyz
1 x,y,z
2 y,-x,-z
3 1/2+x,1/2-y,1/2-z
4 -x,-y,z
5 1/2-y,1/2-x,1/2+z
6 -y,x,-z
7 1/2-x,1/2+y,1/2-z
8 1/2+y,1/2+x,1/2+z
_cell_length_a                   19.603(3)
_cell_length_b                   19.603(3)
_cell_length_c                   12.331(3)
_cell_angle_alpha                90
_cell_angle_beta                 90
_cell_angle_gamma                90
_cell_volume                     4738.53
loop_
_atom_site_label
_atom_site_type_symbol
_atom_site_fract_x
_atom_site_fract_y
_atom_site_fract_z
C1 C 0.0567(6) 0.6998(8) -0.3703(9)
C2 C 0.0580(7) 0.6289(7) -0.4197(9)
H1 H 0.0108 0.6130 -0.4250
C3 C 0.0866(7) 0.6337(8) -0.5367(9)
H2 H 0.0644 0.6710 -0.5746
H3 H 0.0765 0.5918 -0.5754
C4 C 0.1649(6) 0.6456(8) -0.5363(8)
H4 H 0.1819 0.6468 -0.6102
H5 H 0.1752 0.6891 -0.5023
C5 C 0.1989(6) 0.5889(7) -0.4747(10)
H6 H 0.1869 0.5458 -0.5104
C6 C 0.1741(6) 0.5854(7) -0.3621(10)
H7 H 0.1869 0.6269 -0.3244
H8 H 0.1959 0.5474 -0.3255
C7 C 0.0970(7) 0.5767(8) -0.3564(12)
H9 H 0.0853 0.5317 -0.3833
H10 H 0.0829 0.5790 -0.2811
C8 C 0.2757(6) 0.5978(7) -0.4834(11)
C9 C 0.2687(6) 0.8745(6) -0.2720(10)
H11 H 0.2765 0.9179 -0.2344
C10 C 0.3063(6) 0.8190(7) -0.2095(9)
H12 H 0.2994 0.7753 -0.2446
H13 H 0.2885 0.8161 -0.1363
C11 C 0.3828(6) 0.8359(7) -0.2061(8)
H14 H 0.4066 0.8007 -0.1657
H15 H 0.3895 0.8789 -0.1687
C12 C 0.4133(7) 0.8408(7) -0.3220(9)
H16 H 0.4609 0.8555 -0.3157
C13 C 0.4119(7) 0.7727(7) -0.3813(10)
C14 C 0.3741(6) 0.8951(7) -0.3887(10)
H17 H 0.3827 0.9399 -0.3583
H18 H 0.3907 0.8950 -0.4628
C15 C 0.2976(7) 0.8814(8) -0.3886(10)
H19 H 0.2886 0.8398 -0.4284
H20 H 0.2745 0.9185 -0.4255
C16 C 0.1921(6) 0.8606(6) -0.2712(11)
O1 O 0.1597(6) 0.8495(7) -0.3588(7)
O2 O 0.1615(5) 0.8580(7) -0.1840(8)
O3 O 0.0378(5) 0.7527(5) -0.4263(7)
O4 O 0.0715(4) 0.7072(5) -0.2712(6)
O5 O 0.4028(5) 0.7694(5) -0.4854(7)
O6 O 0.4271(4) 0.7183(4) -0.3272(6)
O7 O 0.3093(5) 0.5560(5) -0.5440(7)
O8 O 0.3050(5) 0.6430(6) -0.4309(9)
Pb1 Pb 0.04839(2) 0.82685(2) -0.25582(4)
Pb2 Pb 0.14807(2) 0.91771(2) -0.00032(4)
O5G O 0.2694(5) 0.9028(5) 0.0146(7)
O6B O -0.0729(4) 0.7817(4) -0.1728(6)
O6G O 0.2183(4) 0.9271(4) 0.1728(6)
O7G O 0.0560(5) 0.8093(5) -0.0440(7)
O8G O 0.1430(6) 0.8050(5) 0.0691(9)
Pb1B Pb 0.54839(2) 0.67315(2) -0.24418(4)
Pb1G Pb 0.32685(2) 0.54839(2) -0.75582(4)
Pb2G Pb 0.41771(2) 0.64807(2) -0.50032(4)
C17 C 0.1489(12) 0.8448(18) -0.6205(17)
H21 H 0.1787 0.8600 -0.5637
H22 H 0.1591 0.8692 -0.6861
H23 H 0.1553 0.7969 -0.6322
C18 C 0.0351(14) 0.8398(15) -0.6626(17)
H24 H -0.0071 0.8547 -0.6309
H25 H 0.0336 0.7914 -0.6735
H26 H 0.0416 0.8622 -0.7310
N1 N 0.0884(9) 0.8559(11) -0.5939(15)
H27 H 0.0798 0.8738 -0.5317
loop_
_geom_bond_atom_site_label_1
_geom_bond_atom_site_label_2
_geom_bond_site_symmetry_1
_geom_bond_site_symmetry_2
C1 C2 1_555 1_555
C2 H1 1_555 1_555
C3 C2 1_555 1_555
H2 C3 1_555 1_555
H3 C3 1_555 1_555
C4 C3 1_555 1_555
H4 C4 1_555 1_555
H5 C4 1_555 1_555
C5 C4 1_555 1_555
H6 C5 1_555 1_555
C6 C5 1_555 1_555
H7 C6 1_555 1_555
H8 C6 1_555 1_555
C7 C2 1_555 1_555
H9 C7 1_555 1_555
H10 C7 1_555 1_555
C8 C5 1_555 1_555
C9 H11 1_555 1_555
C10 C9 1_555 1_555
H12 C10 1_555 1_555
H13 C10 1_555 1_555
C11 C10 1_555 1_555
H14 C11 1_555 1_555
H15 C11 1_555 1_555
C12 C11 1_555 1_555
H16 C12 1_555 1_555
C13 C12 1_555 1_555
C14 C12 1_555 1_555
H17 C14 1_555 1_555
H18 C14 1_555 1_555
C15 C9 1_555 1_555
H19 C15 1_555 1_555
H20 C15 1_555 1_555
C16 C9 1_555 1_555
C17 H21 1_555 1_555
H22 C17 1_555 1_555
H23 C17 1_555 1_555
C18 H24 1_555 1_555
H25 C18 1_555 1_555
H26 C18 1_555 1_555
N1 C17 1_555 1_555
H27 N1 1_555 1_555
O1 C16 1_555 1_555
O2 C16 1_555 1_555
O3 C1 1_555 1_555
O4 C1 1_555 1_555
O5 C13 1_555 1_555
O6 C13 1_555 1_555
O7 C8 1_555 1_555
O8 C8 1_555 1_555
Pb1 O1 1_555 1_555
Pb2 O2 1_555 1_555
O5G Pb2 1_555 1_555
O6B Pb1 1_555 1_555
O6G Pb2 1_555 1_555
O7G Pb1 1_555 1_555
O8G Pb2 1_555 1_555
Pb1B O6 1_555 1_555
Pb1G O7 1_555 1_555
Pb2G O5 1_555 1_555
C6 C7 1_555 1_555
C14 C15 1_555 1_555
C18 N1 1_555 1_555
O2 Pb1 1_555 1_555
O3 Pb1 1_555 1_555
O4 Pb1 1_555 1_555
O6 Pb2G 1_555 1_555
O8 Pb2G 1_555 1_555

#END
