
#######################################################################
#
#                 Cambridge Crystallographic Data Centre
#                                CCDC 
#
#######################################################################
#
# If this CIF has been generated from an entry in the Cambridge 
# Structural Database, then it will include bibliographic, chemical, 
# crystal, experimental, refinement or atomic coordinate data resulting 
# from the CCDC's data processing and validation procedures.
#
#######################################################################

data_YICVEL
_symmetry_cell_setting           triclinic
_symmetry_space_group_name_H-M   'P -1'
_symmetry_Int_Tables_number      2
_space_group_name_Hall           '-P 1'
loop_
_symmetry_equiv_pos_site_id
_symmetry_equiv_pos_as_xyz
1 x,y,z
2 -x,-y,-z
_cell_length_a                   6.8827
_cell_length_b                   7.9480
_cell_length_c                   5.1033
_cell_angle_alpha                92.260
_cell_angle_beta                 104.782
_cell_angle_gamma                90.970
_cell_volume                     269.615
loop_
_atom_site_label
_atom_site_type_symbol
_atom_site_fract_x
_atom_site_fract_y
_atom_site_fract_z
Cs1 Cs 0.0000 -1.0000 0.0000
O1 O -0.077(1) -0.619(1) 0.240(2)
O2 O -0.182(1) -0.377(1) 0.055(2)
O3 O -0.258(1) -0.095(1) 0.418(2)
O4 O -0.543(1) -0.129(1) 0.093(2)
C1 C -0.351(1) -0.494(1) 0.364(2)
C2 C -0.455(1) -0.348(1) 0.397(2)
C3 C -0.395(1) -0.644(1) 0.470(2)
C4 C -0.194(2) -0.492(1) 0.207(2)
C5 C -0.410(1) -0.180(1) 0.298(2)
O1A O 0.077(1) -1.381(1) -0.240(2)
O2A O 0.182(1) -0.623(1) -0.055(2)
O3_2 O -0.258(1) -1.095(1) 0.418(2)
O3A O 0.258(1) -0.905(1) -0.418(2)
O3A_2 O 0.258(1) -0.905(1) 0.582(2)
O4A O -0.457(1) -0.871(1) -0.093(2)
O2_2 O -0.182(1) -1.377(1) 0.055(2)
C3A C -0.605(1) -0.356(1) 0.530(2)
C2A C -0.545(1) -0.652(1) 0.603(2)
C1A C -0.649(1) -0.506(1) 0.636(2)
C5A C -0.590(1) -0.820(1) 0.702(2)
C4A C -0.806(2) -0.508(1) 0.793(2)
O3_3 O -0.258(1) -1.095(1) -0.582(2)
O4_2 O 0.457(1) -1.129(1) 0.093(2)
O3A_3 O -0.742(1) -0.905(1) 0.582(2)
O4A_2 O -0.457(1) -0.871(1) 0.907(2)
O1A_2 O -0.923(1) -0.381(1) 0.760(2)
O2A_2 O -0.818(1) -0.623(1) 0.945(2)
Cs1_2 Cs 0.0000 0.0000 0.0000
Cs1_3 Cs 0.0000 0.0000 1.0000
Cs1_4 Cs -1.0000 0.0000 0.0000
Cs1_5 Cs -1.0000 -1.0000 0.0000
Cs1_6 Cs -1.0000 -1.0000 1.0000
Cs1_7 Cs 0.0000 -1.0000 1.0000
Cs1_8 Cs -1.0000 0.0000 1.0000
loop_
_geom_bond_atom_site_label_1
_geom_bond_atom_site_label_2
_geom_bond_site_symmetry_1
_geom_bond_site_symmetry_2
Cs1 O1 1_555 1_555
O1 C4 1_555 1_555
O2 C4 1_555 1_555
O3 C5 1_555 1_555
O4 C5 1_555 1_555
C1 C2 1_555 1_555
C2 C5 1_555 1_555
C3 C1 1_555 1_555
C4 C1 1_555 1_555
O1A Cs1 1_555 1_555
O2A Cs1 1_555 1_555
O3_2 Cs1 1_555 1_555
O3A Cs1 1_555 1_555
O3A_2 Cs1 1_555 1_555
O4A Cs1 1_555 1_555
O2_2 Cs1 1_555 1_555
C3A C2 1_555 1_555
C2A C3 1_555 1_555
C1A C3A 1_555 1_555
C5A C2A 1_555 1_555
C4A C1A 1_555 1_555
O3_3 Cs1 1_555 1_555
O4_2 Cs1 1_555 1_555
O3A_3 C5A 1_555 1_555
O4A_2 C5A 1_555 1_555
O1A_2 C4A 1_555 1_555
O2A_2 C4A 1_555 1_555
Cs1_2 O2 1_555 1_555
Cs1_3 O3 1_555 1_555
Cs1_4 O4 1_555 1_555
Cs1_5 O3A_3 1_555 1_555
Cs1_6 O3A_3 1_555 1_555
Cs1_7 O3_2 1_555 1_555
Cs1_8 O1A_2 1_555 1_555
O3 Cs1_2 1_555 1_555
O3A_2 Cs1_7 1_555 1_555
C2A C1A 1_555 1_555
O4A_2 Cs1_7 1_555 1_555
O2A_2 Cs1_6 1_555 1_555

#END
