
#######################################################################
#
#                 Cambridge Crystallographic Data Centre
#                                CCDC 
#
#######################################################################
#
# If this CIF has been generated from an entry in the Cambridge 
# Structural Database, then it will include bibliographic, chemical, 
# crystal, experimental, refinement or atomic coordinate data resulting 
# from the CCDC's data processing and validation procedures.
#
#######################################################################

data_YIDDUM
_symmetry_cell_setting           triclinic
_symmetry_space_group_name_H-M   'P -1'
_symmetry_Int_Tables_number      2
_space_group_name_Hall           '-P 1'
loop_
_symmetry_equiv_pos_site_id
_symmetry_equiv_pos_as_xyz
1 x,y,z
2 -x,-y,-z
_cell_length_a                   7.662(6)
_cell_length_b                   12.442(10)
_cell_length_c                   14.359(11)
_cell_angle_alpha                106.425(14)
_cell_angle_beta                 105.041(11)
_cell_angle_gamma                104.747(14)
_cell_volume                     1185.89
loop_
_atom_site_label
_atom_site_type_symbol
_atom_site_fract_x
_atom_site_fract_y
_atom_site_fract_z
Cu1 Cu 0.0000 0.5000 0.0000
Cu2 Cu 0.53972(11) 0.68305(8) 0.50142(6)
S1 S 0.6340(3) 0.5830(2) 0.67921(15)
O1 O 0.4951(8) 0.9086(6) 0.3458(5)
O2 O 0.0327(9) 0.3299(7) 0.0366(5)
H1 H -0.0393 0.2586 -0.0043
H2 H 0.0599 0.3453 0.1013
O3 O 0.5865(9) 0.6711(5) 0.6359(4)
O4 O 0.6312(8) 0.4833(5) 0.5921(4)
O5 O 0.5020(10) 0.5438(8) 0.7280(5)
O6 O 0.8347(9) 0.6409(7) 0.7546(5)
N1 N 0.6839(8) 0.7186(7) 0.1125(5)
N2 N 0.2923(7) 0.5851(6) 0.0373(4)
N3 N 0.0774(7) 0.5784(6) 0.1511(4)
N4 N -0.0142(8) 0.5801(6) 0.2215(4)
N5 N 0.2978(7) 0.6762(6) 0.3027(4)
N6 N 0.2281(9) 0.6936(8) 0.4974(5)
N7 N -0.1470(9) 0.6658(8) 0.4934(5)
N8 N 0.4766(7) 0.7401(5) 0.3867(4)
N9 N 0.7087(8) 0.8644(6) 0.5736(5)
N10 N 0.9581(12) 1.0996(8) 0.6342(7)
C1 C 0.3881(9) 0.5956(8) -0.0256(6)
H3 H 0.3225 0.5567 -0.0969
C2 C 0.5819(11) 0.6622(8) 0.0108(6)
H4 H 0.6434 0.6680 -0.0365
C3 C 0.5868(10) 0.7090(8) 0.1774(6)
H5 H 0.6536 0.7459 0.2487
C4 C 0.3914(9) 0.6459(7) 0.1409(5)
C5 C 0.2637(9) 0.6357(7) 0.2005(5)
C6 C 0.1212(9) 0.6392(7) 0.3123(5)
C7 C 0.0833(10) 0.6608(7) 0.4112(5)
C8 C 0.1853(13) 0.7108(13) 0.5847(7)
H6 H 0.2833 0.7324 0.6479
C9 C -0.0017(13) 0.6971(13) 0.5822(7)
H7 H -0.0262 0.7100 0.6438
C10 C -0.1015(10) 0.6471(7) 0.4088(6)
H8 H -0.1990 0.6237 0.3450
C11 C 0.5446(9) 0.8570(7) 0.4030(5)
C12 C 0.7019(9) 0.9245(7) 0.5095(6)
C13 C 0.8247(12) 1.0382(8) 0.5382(7)
H9 H 0.8162 1.0746 0.4897
C14 C 0.9570(14) 1.0414(11) 0.6993(7)
H10 H 1.0422 1.0810 0.7678
C15 C 0.8342(12) 0.9239(10) 0.6693(6)
H11 H 0.8408 0.8869 0.7174
Cu2A Cu -0.53972(11) 0.31695(8) -0.50142(6)
S1A S -0.6340(3) 0.4170(2) -0.67921(15)
O1A O -0.4951(8) 0.0914(6) -0.3458(5)
O2A O -0.0327(9) 0.6701(7) -0.0366(5)
H1A H 0.0393 0.7414 0.0043
H2A H -0.0599 0.6547 -0.1013
O3A O -0.5865(9) 0.3289(5) -0.6359(4)
O4A O -0.6312(8) 0.5167(5) -0.5921(4)
O5A O -0.5020(10) 0.4562(8) -0.7280(5)
O6A O -0.8347(9) 0.3591(7) -0.7546(5)
N1A N -0.6839(8) 0.2814(7) -0.1125(5)
N2A N -0.2923(7) 0.4149(6) -0.0373(4)
N3A N -0.0774(7) 0.4216(6) -0.1511(4)
N4A N 0.0142(8) 0.4199(6) -0.2215(4)
N5A N -0.2978(7) 0.3238(6) -0.3027(4)
N6A N -0.2281(9) 0.3064(8) -0.4974(5)
N7A N 0.1470(9) 0.3342(8) -0.4934(5)
N8A N -0.4766(7) 0.2599(5) -0.3867(4)
N9A N -0.7087(8) 0.1356(6) -0.5736(5)
N10A N -0.9581(12) -0.0996(8) -0.6342(7)
C1A C -0.3881(9) 0.4044(8) 0.0256(6)
H3A H -0.3225 0.4433 0.0969
C2A C -0.5819(11) 0.3378(8) -0.0108(6)
H4A H -0.6434 0.3320 0.0365
C3A C -0.5868(10) 0.2910(8) -0.1774(6)
H5A H -0.6536 0.2541 -0.2487
C4A C -0.3914(9) 0.3541(7) -0.1409(5)
C5A C -0.2637(9) 0.3643(7) -0.2005(5)
C6A C -0.1212(9) 0.3608(7) -0.3123(5)
C7A C -0.0833(10) 0.3392(7) -0.4112(5)
C8A C -0.1853(13) 0.2892(13) -0.5847(7)
H6A H -0.2833 0.2676 -0.6479
C9A C 0.0017(13) 0.3029(13) -0.5822(7)
H7A H 0.0262 0.2900 -0.6438
C10A C 0.1015(10) 0.3529(7) -0.4088(6)
H8A H 0.1990 0.3763 -0.3450
C11A C -0.5446(9) 0.1430(7) -0.4030(5)
C12A C -0.7019(9) 0.0755(7) -0.5095(6)
C13A C -0.8247(12) -0.0382(8) -0.5382(7)
H9A H -0.8162 -0.0746 -0.4897
C14A C -0.9570(14) -0.0414(11) -0.6993(7)
H10A H -1.0422 -0.0810 -0.7678
C15A C -0.8342(12) 0.0761(10) -0.6693(6)
H11A H -0.8408 0.1131 -0.7174
Cu2_2 Cu -0.46028(11) 0.68305(8) -0.49858(6)
Cu2_3 Cu -0.46028(11) 0.68305(8) 0.50142(6)
Cu2A_2 Cu 0.46028(11) 0.31695(8) -0.50142(6)
Cu2A_3 Cu 0.46028(11) 0.31695(8) 0.49858(6)
O4_2 O -0.3688(8) 0.4833(5) -0.4079(4)
O4A_2 O 0.3688(8) 0.5167(5) 0.4079(4)
N7_2 N 0.8530(9) 0.6658(8) 0.4934(5)
N7A_2 N -0.8530(9) 0.3342(8) -0.4934(5)
O7 O 0.265(2) 0.6966(16) 0.8023(11)
O8 O 0.299(3) 0.8823(18) 0.1312(14)
loop_
_geom_bond_atom_site_label_1
_geom_bond_atom_site_label_2
_geom_bond_site_symmetry_1
_geom_bond_site_symmetry_2
Cu1 O2 1_555 1_555
Cu2 O3 1_555 1_555
S1 O3 1_555 1_555
O1 C11 1_555 1_555
O2 H1 1_555 1_555
H2 O2 1_555 1_555
O4 S1 1_555 1_555
O5 S1 1_555 1_555
O6 S1 1_555 1_555
N1 C2 1_555 1_555
N2 Cu1 1_555 1_555
N3 Cu1 1_555 1_555
N4 N3 1_555 1_555
N5 N8 1_555 1_555
N6 Cu2 1_555 1_555
N7 C9 1_555 1_555
N8 Cu2 1_555 1_555
N9 Cu2 1_555 1_555
N10 C13 1_555 1_555
C1 N2 1_555 1_555
H3 C1 1_555 1_555
C2 C1 1_555 1_555
H4 C2 1_555 1_555
C3 N1 1_555 1_555
H5 C3 1_555 1_555
C4 N2 1_555 1_555
C5 N3 1_555 1_555
C6 N4 1_555 1_555
C7 N6 1_555 1_555
C8 N6 1_555 1_555
H6 C8 1_555 1_555
C9 C8 1_555 1_555
H7 C9 1_555 1_555
C10 N7 1_555 1_555
H8 C10 1_555 1_555
C11 N8 1_555 1_555
C12 N9 1_555 1_555
C13 C12 1_555 1_555
H9 C13 1_555 1_555
C14 N10 1_555 1_555
H10 C14 1_555 1_555
C15 N9 1_555 1_555
H11 C15 1_555 1_555
Cu2A O3A 1_555 1_555
S1A O3A 1_555 1_555
O1A C11A 1_555 1_555
O2A Cu1 1_555 1_555
H1A O2A 1_555 1_555
H2A O2A 1_555 1_555
O4A S1A 1_555 1_555
O5A S1A 1_555 1_555
O6A S1A 1_555 1_555
N1A C2A 1_555 1_555
N2A Cu1 1_555 1_555
N3A Cu1 1_555 1_555
N4A N3A 1_555 1_555
N5A N8A 1_555 1_555
N6A Cu2A 1_555 1_555
N7A C9A 1_555 1_555
N8A Cu2A 1_555 1_555
N9A Cu2A 1_555 1_555
N10A C13A 1_555 1_555
C1A N2A 1_555 1_555
H3A C1A 1_555 1_555
C2A C1A 1_555 1_555
H4A C2A 1_555 1_555
C3A N1A 1_555 1_555
H5A C3A 1_555 1_555
C4A N2A 1_555 1_555
C5A N3A 1_555 1_555
C6A N4A 1_555 1_555
C7A N6A 1_555 1_555
C8A N6A 1_555 1_555
H6A C8A 1_555 1_555
C9A C8A 1_555 1_555
H7A C9A 1_555 1_555
C10A N7A 1_555 1_555
H8A C10A 1_555 1_555
C11A N8A 1_555 1_555
C12A N9A 1_555 1_555
C13A C12A 1_555 1_555
H9A C13A 1_555 1_555
C14A N10A 1_555 1_555
H10A C14A 1_555 1_555
C15A N9A 1_555 1_555
H11A C15A 1_555 1_555
Cu2_2 O4A 1_555 1_555
Cu2_3 N7 1_555 1_555
Cu2A_2 N7A 1_555 1_555
Cu2A_3 O4 1_555 1_555
O4_2 Cu2A 1_555 1_555
O4A_2 Cu2 1_555 1_555
N7_2 Cu2 1_555 1_555
N7A_2 Cu2A 1_555 1_555
N5 C5 1_555 1_555
N5 C6 1_555 1_555
C3 C4 1_555 1_555
C4 C5 1_555 1_555
C6 C7 1_555 1_555
C7 C10 1_555 1_555
C11 C12 1_555 1_555
C14 C15 1_555 1_555
N5A C5A 1_555 1_555
N5A C6A 1_555 1_555
C3A C4A 1_555 1_555
C4A C5A 1_555 1_555
C6A C7A 1_555 1_555
C7A C10A 1_555 1_555
C11A C12A 1_555 1_555
C14A C15A 1_555 1_555

#END
