
#######################################################################
#
#                 Cambridge Crystallographic Data Centre
#                                CCDC 
#
#######################################################################
#
# If this CIF has been generated from an entry in the Cambridge 
# Structural Database, then it will include bibliographic, chemical, 
# crystal, experimental, refinement or atomic coordinate data resulting 
# from the CCDC's data processing and validation procedures.
#
#######################################################################

data_YIDGIC
_symmetry_cell_setting           trigonal
_symmetry_space_group_name_H-M   'P 32 2 1'
_symmetry_Int_Tables_number      154
_space_group_name_Hall           'P 32 2"'
loop_
_symmetry_equiv_pos_site_id
_symmetry_equiv_pos_as_xyz
1 x,y,z
2 -y,x-y,2/3+z
3 -x+y,-x,1/3+z
4 y,x,-z
5 -x,-x+y,2/3-z
6 x-y,-y,1/3-z
_cell_length_a                   14.868(3)
_cell_length_b                   14.868(3)
_cell_length_c                   6.9774(14)
_cell_angle_alpha                90
_cell_angle_beta                 90
_cell_angle_gamma                120
_cell_volume                     1335.76
loop_
_atom_site_label
_atom_site_type_symbol
_atom_site_fract_x
_atom_site_fract_y
_atom_site_fract_z
C1 C 0.66486(19) 0.5366(3) 0.3032(3)
H1 H 0.6672 0.6022 0.2955
H2 H 0.6094 0.4867 0.2242
H3 H 0.7296 0.5445 0.2594
C2 C 0.64682(15) 0.49995(16) 0.5052(3)
C3 C 0.67913(17) 0.4672(2) 0.7970(3)
H4 H 0.7139 0.4634 0.9047
C4 C 0.57689(15) 0.43505(17) 0.7826(3)
H5 H 0.5280 0.4040 0.8797
C5 C 0.31061(13) 0.30917(13) 0.2148(2)
C6 C 0.22635(17) 0.22835(16) 0.0942(3)
Cu1 Cu 0.419507(17) 0.419507(17) 0.5000
H6 H 0.181(3) 0.183(2) 0.169(4)
N1 N 0.72152(13) 0.50674(16) 0.6204(3)
H7 H 0.7856 0.5317 0.5894
N2 N 0.55687(12) 0.45602(12) 0.5989(2)
O1 O 0.28552(9) 0.35079(11) 0.34720(17)
O2 O 0.40265(11) 0.33202(11) 0.1880(2)
C1C C 0.5366(3) 0.66486(19) 0.6968(3)
H1C H 0.6022 0.6672 0.7045
H2C H 0.4867 0.6094 0.7758
H3C H 0.5445 0.7296 0.7406
C2C C 0.49995(16) 0.64682(15) 0.4948(3)
C3C C 0.4672(2) 0.67913(17) 0.2030(3)
H4C H 0.4634 0.7139 0.0953
C4C C 0.43505(17) 0.57689(15) 0.2174(3)
H5C H 0.4040 0.5280 0.1203
C5C C 0.30917(13) 0.31061(13) -0.2148(2)
C6C C 0.22835(16) 0.22635(17) -0.0942(3)
Cu1_2 Cu 0.419507(17) 0.419507(17) -0.5000
H6C H 0.183(2) 0.181(3) -0.169(4)
N1C N 0.50674(16) 0.72152(13) 0.3796(3)
H7C H 0.5317 0.7856 0.4106
N2C N 0.45602(12) 0.55687(12) 0.4011(2)
O1C O 0.35079(11) 0.28552(9) -0.34720(17)
O1C_2 O 0.35079(11) 0.28552(9) 0.65280(17)
O2C O 0.33202(11) 0.40265(11) -0.1880(2)
O2C_2 O 0.33202(11) 0.40265(11) 0.8120(2)
O3 O 0.07424(18) 0.2536(2) 0.4810(3)
O4 O 0.0575(2) 0.0575(2) 0.5000
loop_
_geom_bond_atom_site_label_1
_geom_bond_atom_site_label_2
_geom_bond_site_symmetry_1
_geom_bond_site_symmetry_2
C1 H1 1_555 1_555
H2 C1 1_555 1_555
H3 C1 1_555 1_555
C2 C1 1_555 1_555
C3 H4 1_555 1_555
C4 C3 1_555 1_555
H5 C4 1_555 1_555
C5 C6 1_555 1_555
C6 H6 1_555 1_555
Cu1 N2 1_555 1_555
N1 C2 1_555 1_555
H7 N1 1_555 1_555
N2 C2 1_555 1_555
O1 C5 1_555 1_555
O2 C5 1_555 1_555
C1C H1C 1_555 1_555
H2C C1C 1_555 1_555
H3C C1C 1_555 1_555
C2C C1C 1_555 1_555
C3C H4C 1_555 1_555
C4C C3C 1_555 1_555
H5C C4C 1_555 1_555
C5C C6C 1_555 1_555
C6C C6 1_555 1_555
Cu1_2 O1C 1_555 1_555
H6C C6C 1_555 1_555
N1C C2C 1_555 1_555
H7C N1C 1_555 1_555
N2C Cu1 1_555 1_555
O1C C5C 1_555 1_555
O1C_2 Cu1 1_555 1_555
O2C C5C 1_555 1_555
O2C_2 Cu1 1_555 1_555
C3 N1 1_555 1_555
C4 N2 1_555 1_555
Cu1 O1 1_555 1_555
Cu1 O2 1_555 1_555
C2C N2C 1_555 1_555
C3C N1C 1_555 1_555
C4C N2C 1_555 1_555
Cu1_2 O2C 1_555 1_555

#END
