
#######################################################################
#
#                 Cambridge Crystallographic Data Centre
#                                CCDC 
#
#######################################################################
#
# If this CIF has been generated from an entry in the Cambridge 
# Structural Database, then it will include bibliographic, chemical, 
# crystal, experimental, refinement or atomic coordinate data resulting 
# from the CCDC's data processing and validation procedures.
#
#######################################################################

data_YIDHUP
_symmetry_cell_setting           orthorhombic
_symmetry_space_group_name_H-M   'P c c n'
_symmetry_Int_Tables_number      56
_space_group_name_Hall           '-P 2ab 2ac'
loop_
_symmetry_equiv_pos_site_id
_symmetry_equiv_pos_as_xyz
1 x,y,z
2 1/2-x,1/2-y,z
3 -x,1/2+y,1/2-z
4 1/2+x,-y,1/2-z
5 -x,-y,-z
6 1/2+x,1/2+y,-z
7 x,1/2-y,1/2+z
8 1/2-x,y,1/2+z
_cell_length_a                   13.4603(14)
_cell_length_b                   15.8837(19)
_cell_length_c                   9.2040(13)
_cell_angle_alpha                90
_cell_angle_beta                 90
_cell_angle_gamma                90
_cell_volume                     1967.81
loop_
_atom_site_label
_atom_site_type_symbol
_atom_site_fract_x
_atom_site_fract_y
_atom_site_fract_z
Ni1 Ni -0.2500 0.2500 -0.26083(6)
Cl1 Cl 0.11039(8) 0.28569(6) -0.54748(13)
Cl2 Cl -0.22240(7) 0.54046(5) 0.08593(10)
N1 N -0.10872(18) 0.31220(15) -0.2681(3)
O1 O -0.29836(15) 0.32821(12) -0.0943(2)
O2 O -0.20093(15) 0.34147(12) 0.1024(2)
C1 C -0.0451(2) 0.2844(2) -0.3646(4)
H1 H -0.0523 0.2295 -0.3980
C2 C 0.0329(2) 0.3327(2) -0.4202(4)
C3 C 0.0437(3) 0.4145(2) -0.3785(4)
H2 H 0.0937 0.4479 -0.4179
C4 C -0.0226(2) 0.44758(19) -0.2741(3)
C5 C -0.0968(2) 0.39328(18) -0.2158(3)
C6 C -0.1588(2) 0.42139(18) -0.1012(3)
C7 C -0.1488(2) 0.50314(19) -0.0557(3)
C8 C -0.0804(3) 0.55881(19) -0.1184(4)
H3 H -0.0785 0.6147 -0.0884
C9 C -0.0168(3) 0.5313(2) -0.2229(4)
H4 H 0.0307 0.5677 -0.2608
C10 C -0.2262(2) 0.35862(17) -0.0251(3)
Ni1F Ni -0.2500 0.2500 0.23917(6)
Cl1A Cl -0.61039(8) 0.21431(6) -0.54748(13)
Cl2A Cl -0.27760(7) -0.04046(5) 0.08593(10)
N1A N -0.39128(18) 0.18780(15) -0.2681(3)
O1A O -0.20164(15) 0.17179(12) -0.0943(2)
O2F O -0.20093(15) 0.15853(12) -0.3976(2)
O2G O -0.29907(15) 0.34147(12) -0.3976(2)
O2A O -0.29907(15) 0.15853(12) 0.1024(2)
C1A C -0.4549(2) 0.2156(2) -0.3646(4)
H1A H -0.4477 0.2705 -0.3980
C2A C -0.5329(2) 0.1673(2) -0.4202(4)
C3A C -0.5437(3) 0.0855(2) -0.3785(4)
H2A H -0.5937 0.0521 -0.4179
C4A C -0.4774(2) 0.05242(19) -0.2741(3)
C5A C -0.4032(2) 0.10672(18) -0.2158(3)
C6A C -0.3412(2) 0.07861(18) -0.1012(3)
C7A C -0.3512(2) -0.00314(19) -0.0557(3)
C8A C -0.4196(3) -0.05881(19) -0.1184(4)
H3A H -0.4215 -0.1147 -0.0884
C9A C -0.4832(3) -0.0313(2) -0.2229(4)
H4A H -0.5307 -0.0677 -0.2608
C10A C -0.2738(2) 0.14138(17) -0.0251(3)
loop_
_geom_bond_atom_site_label_1
_geom_bond_atom_site_label_2
_geom_bond_site_symmetry_1
_geom_bond_site_symmetry_2
Ni1 N1 1_555 1_555
Cl1 C2 1_555 1_555
Cl2 C7 1_555 1_555
N1 C1 1_555 1_555
O1 Ni1 1_555 1_555
O2 C10 1_555 1_555
C1 H1 1_555 1_555
C2 C1 1_555 1_555
C3 C2 1_555 1_555
H2 C3 1_555 1_555
C4 C3 1_555 1_555
C5 N1 1_555 1_555
C6 C5 1_555 1_555
C7 C6 1_555 1_555
C8 C7 1_555 1_555
H3 C8 1_555 1_555
C9 C4 1_555 1_555
H4 C9 1_555 1_555
C10 O1 1_555 1_555
Ni1F O2 1_555 1_555
Cl1A C2A 1_555 1_555
Cl2A C7A 1_555 1_555
N1A Ni1 1_555 1_555
O1A Ni1 1_555 1_555
O2F Ni1 1_555 1_555
O2G Ni1 1_555 1_555
O2A Ni1F 1_555 1_555
C1A N1A 1_555 1_555
H1A C1A 1_555 1_555
C2A C1A 1_555 1_555
C3A C2A 1_555 1_555
H2A C3A 1_555 1_555
C4A C3A 1_555 1_555
C5A N1A 1_555 1_555
C6A C5A 1_555 1_555
C7A C6A 1_555 1_555
C8A C7A 1_555 1_555
H3A C8A 1_555 1_555
C9A C4A 1_555 1_555
H4A C9A 1_555 1_555
C10A O1A 1_555 1_555
C4 C5 1_555 1_555
C6 C10 1_555 1_555
C8 C9 1_555 1_555
O2A C10A 1_555 1_555
C4A C5A 1_555 1_555
C6A C10A 1_555 1_555
C8A C9A 1_555 1_555

#END
