
#######################################################################
#
#                 Cambridge Crystallographic Data Centre
#                                CCDC 
#
#######################################################################
#
# If this CIF has been generated from an entry in the Cambridge 
# Structural Database, then it will include bibliographic, chemical, 
# crystal, experimental, refinement or atomic coordinate data resulting 
# from the CCDC's data processing and validation procedures.
#
#######################################################################

data_YIDJAX
_symmetry_cell_setting           triclinic
_symmetry_space_group_name_H-M   'P -1'
_symmetry_Int_Tables_number      2
_space_group_name_Hall           '-P 1'
loop_
_symmetry_equiv_pos_site_id
_symmetry_equiv_pos_as_xyz
1 x,y,z
2 -x,-y,-z
_cell_length_a                   7.2648(2)
_cell_length_b                   7.2760(2)
_cell_length_c                   11.9225(4)
_cell_angle_alpha                87.394(2)
_cell_angle_beta                 81.907(2)
_cell_angle_gamma                72.313(2)
_cell_volume                     594.436
loop_
_atom_site_label
_atom_site_type_symbol
_atom_site_fract_x
_atom_site_fract_y
_atom_site_fract_z
K1 K -0.21738(6) -0.07091(6) -0.10232(4)
S1 S 0.00136(7) -0.35575(6) -0.84164(4)
O1 O 0.2733(2) -0.2594(3) -0.41097(13)
H1 H 0.178(3) -0.218(4) -0.3606(17)
O2 O -0.0876(2) -0.1545(2) -0.32035(12)
O3 O -0.3188(2) -0.1565(2) -0.42516(13)
H2 H -0.388(3) -0.135(3) -0.3612(12)
O4 O -0.2022(2) -0.3544(2) -0.81377(12)
O5 O 0.1288(2) -0.5369(2) -0.88906(12)
O6 O 0.0158(2) -0.1913(2) -0.91284(12)
O7 O 0.2490(3) -0.2851(2) -0.13426(14)
H3 H 0.244(5) -0.390(3) -0.1588(19)
H4 H 0.201(4) -0.271(4) -0.0651(11)
O8 O -0.5126(2) 0.2531(2) -0.03098(14)
H5 H -0.519(4) 0.341(3) 0.0167(18)
H6 H -0.613(3) 0.301(3) -0.067(2)
O9 O -0.5442(2) -0.0411(2) -0.22840(13)
H7 H -0.614(3) -0.108(3) -0.1945(16)
H8 H -0.523(4) -0.071(3) -0.2980(9)
C1 C 0.2767(3) -0.3642(3) -0.70429(18)
H9 H 0.3683 -0.4060 -0.7690
C2 C 0.3391(3) -0.3402(3) -0.60464(18)
H10 H 0.4729 -0.3647 -0.6013
C3 C 0.2040(3) -0.2791(3) -0.50731(17)
C4 C 0.0053(3) -0.2436(3) -0.51325(16)
C5 C -0.0560(3) -0.2686(3) -0.61575(16)
H11 H -0.1894 -0.2453 -0.6200
C6 C 0.0788(3) -0.3274(3) -0.71112(16)
C7 C -0.1370(3) -0.1813(3) -0.41096(17)
K1A K 0.21738(6) -0.92909(6) -0.89768(4)
K1A_2 K -0.78262(6) 0.07091(6) 0.10232(4)
K1_2 K -0.21738(6) -0.07091(6) -1.10232(4)
K1A_3 K 0.21738(6) 0.07091(6) -0.89768(4)
O5A O -0.1288(2) -0.4631(2) -0.11094(12)
O6_2 O 0.0158(2) -0.1913(2) 0.08716(12)
O6A O -0.0158(2) 0.1913(2) -0.08716(12)
O8A O -0.4874(2) -0.2531(2) 0.03098(14)
H5A H -0.481(4) -0.341(3) -0.0167(18)
H6A H -0.387(3) -0.301(3) 0.067(2)
loop_
_geom_bond_atom_site_label_1
_geom_bond_atom_site_label_2
_geom_bond_site_symmetry_1
_geom_bond_site_symmetry_2
K1 O2 1_555 1_555
S1 O4 1_555 1_555
O1 H1 1_555 1_555
O2 C7 1_555 1_555
O3 H2 1_555 1_555
O5 S1 1_555 1_555
O6 S1 1_555 1_555
O7 K1 1_555 1_555
H3 O7 1_555 1_555
H4 O7 1_555 1_555
O8 K1 1_555 1_555
H5 O8 1_555 1_555
H6 O8 1_555 1_555
O9 K1 1_555 1_555
H7 O9 1_555 1_555
H8 O9 1_555 1_555
C1 H9 1_555 1_555
C2 C1 1_555 1_555
H10 C2 1_555 1_555
C3 O1 1_555 1_555
C4 C3 1_555 1_555
C5 C4 1_555 1_555
H11 C5 1_555 1_555
C6 S1 1_555 1_555
C7 O3 1_555 1_555
K1A O5 1_555 1_555
K1A_2 O8 1_555 1_555
K1_2 O6 1_555 1_555
K1A_3 O6 1_555 1_555
O5A K1 1_555 1_555
O6_2 K1 1_555 1_555
O6A K1 1_555 1_555
O8A K1 1_555 1_555
H5A O8A 1_555 1_555
H6A O8A 1_555 1_555
C1 C6 1_555 1_555
C2 C3 1_555 1_555
C4 C7 1_555 1_555
C5 C6 1_555 1_555
K1A_2 O8A 1_555 1_555

#END
