
#######################################################################
#
#                 Cambridge Crystallographic Data Centre
#                                CCDC 
#
#######################################################################
#
# If this CIF has been generated from an entry in the Cambridge 
# Structural Database, then it will include bibliographic, chemical, 
# crystal, experimental, refinement or atomic coordinate data resulting 
# from the CCDC's data processing and validation procedures.
#
#######################################################################

data_YIDJOL
_symmetry_cell_setting           monoclinic
_symmetry_space_group_name_H-M   'C 2/c'
_symmetry_Int_Tables_number      15
_space_group_name_Hall           '-C 2yn'
loop_
_symmetry_equiv_pos_site_id
_symmetry_equiv_pos_as_xyz
1 x,y,z
2 1/2+x,1/2+y,z
3 -x,y,1/2-z
4 1/2-x,1/2+y,1/2-z
5 -x,-y,-z
6 1/2-x,1/2-y,-z
7 x,-y,1/2+z
8 1/2+x,1/2-y,1/2+z
_cell_length_a                   16.7781(7)
_cell_length_b                   10.7594(7)
_cell_length_c                   7.4213(3)
_cell_angle_alpha                90
_cell_angle_beta                 108.664(4)
_cell_angle_gamma                90
_cell_volume                     1269.26
loop_
_atom_site_label
_atom_site_type_symbol
_atom_site_fract_x
_atom_site_fract_y
_atom_site_fract_z
Cd1 Cd -0.5000 0.42497(3) 0.2500
Br1 Br -0.60185(3) 0.58225(4) 0.00039(6)
N1 N -0.4258(2) 0.2472(3) 0.3962(5)
C1 C -0.3527(3) 0.2477(6) 0.5359(8)
H1 H -0.3291 0.3253 0.5919
C2 C -0.3095(5) 0.1378(9) 0.6055(11)
H2 H -0.2563 0.1406 0.7050
C3 C -0.3414(7) 0.0289(8) 0.5353(13)
H3 H -0.3095 -0.0452 0.5812
C4 C -0.4194(6) 0.0225(5) 0.3950(10)
C5 C -0.4646(8) -0.0905(4) 0.3145(12)
H4 H -0.5609 -0.1695 0.1417
C6 C -0.5397(3) 0.1372(4) 0.1760(6)
Cd1F Cd -0.5000 0.57503(3) -0.2500
Br1F Br -0.60185(3) 0.41775(4) 0.50039(6)
Br1D Br -0.39815(3) 0.41775(4) -0.00039(6)
Br1B Br -0.39815(3) 0.58225(4) 0.49961(6)
N1B N -0.5742(2) 0.2472(3) 0.1038(5)
C1B C -0.6473(3) 0.2477(6) -0.0359(8)
H1B H -0.6709 0.3253 -0.0919
C2B C -0.6905(5) 0.1378(9) -0.1055(11)
H2B H -0.7437 0.1406 -0.2050
C3B C -0.6586(7) 0.0289(8) -0.0353(13)
H3B H -0.6905 -0.0452 -0.0812
C4B C -0.5806(6) 0.0225(5) 0.1050(10)
C5B C -0.5354(8) -0.0905(4) 0.1855(12)
H4B H -0.4391 -0.1695 0.3583
C6B C -0.4603(3) 0.1372(4) 0.3240(6)
loop_
_geom_bond_atom_site_label_1
_geom_bond_atom_site_label_2
_geom_bond_site_symmetry_1
_geom_bond_site_symmetry_2
Cd1 Br1 1_555 1_555
Br1 Cd1F 1_555 1_555
N1 Cd1 1_555 1_555
C1 N1 1_555 1_555
H1 C1 1_555 1_555
C2 C1 1_555 1_555
H2 C2 1_555 1_555
C3 C2 1_555 1_555
H3 C3 1_555 1_555
C4 C3 1_555 1_555
C5 C4 1_555 1_555
H4 C5B 1_555 1_555
C6 N1B 1_555 1_555
Cd1F Br1D 1_555 1_555
Br1F Cd1 1_555 1_555
Br1D Cd1 1_555 1_555
Br1B Cd1 1_555 1_555
N1B Cd1 1_555 1_555
C1B N1B 1_555 1_555
H1B C1B 1_555 1_555
C2B C1B 1_555 1_555
H2B C2B 1_555 1_555
C3B C2B 1_555 1_555
H3B C3B 1_555 1_555
C4B C6 1_555 1_555
C5B C5 1_555 1_555
H4B C5 1_555 1_555
C6B N1 1_555 1_555
C4 C6B 1_555 1_555
C6 C6B 1_555 1_555
C3B C4B 1_555 1_555
C4B C5B 1_555 1_555

#END
