
#######################################################################
#
#                 Cambridge Crystallographic Data Centre
#                                CCDC 
#
#######################################################################
#
# If this CIF has been generated from an entry in the Cambridge 
# Structural Database, then it will include bibliographic, chemical, 
# crystal, experimental, refinement or atomic coordinate data resulting 
# from the CCDC's data processing and validation procedures.
#
#######################################################################

data_YIDJEB
_symmetry_cell_setting           orthorhombic
_symmetry_space_group_name_H-M   'F d d 2'
_symmetry_Int_Tables_number      43
_space_group_name_Hall           'F 2 -2d'
loop_
_symmetry_equiv_pos_site_id
_symmetry_equiv_pos_as_xyz
1 x,y,z
2 -x,-y,z
3 1/4+x,1/4-y,1/4+z
4 1/4-x,1/4+y,1/4+z
5 x,1/2+y,1/2+z
6 -x,1/2-y,1/2+z
7 1/4+x,3/4-y,3/4+z
8 1/4-x,3/4+y,3/4+z
9 1/2+x,y,1/2+z
10 1/2-x,-y,1/2+z
11 3/4+x,1/4-y,3/4+z
12 3/4-x,1/4+y,3/4+z
13 1/2+x,1/2+y,z
14 1/2-x,1/2-y,z
15 3/4+x,3/4-y,1/4+z
16 3/4-x,3/4+y,1/4+z
_cell_length_a                   20.129(4)
_cell_length_b                   25.466(5)
_cell_length_c                   11.413(2)
_cell_angle_alpha                90
_cell_angle_beta                 90
_cell_angle_gamma                90
_cell_volume                     5850.36
loop_
_atom_site_label
_atom_site_type_symbol
_atom_site_fract_x
_atom_site_fract_y
_atom_site_fract_z
C1 C 0.02753(18) 0.72535(12) 0.2402(3)
C2 C 0.06450(19) 0.70613(13) 0.1485(3)
H1 H 0.0606 0.7214 0.0747
C3 C 0.1071(2) 0.66474(13) 0.1647(4)
H2 H 0.1332 0.6523 0.1035
C4 C 0.1099(2) 0.64239(14) 0.2734(4)
C5 C 0.0737(2) 0.66005(17) 0.3665(4)
H3 H 0.0768 0.6440 0.4395
C6 C 0.0322(2) 0.70276(15) 0.3487(3)
H4 H 0.0074 0.7161 0.4107
C7 C 0.02917(17) 0.82876(11) 0.1972(3)
H5 H 0.0573 0.8307 0.2661
H6 H 0.0572 0.8214 0.1300
C8 C -0.00637(19) 0.88119(11) 0.1794(3)
C9 C 0.0204(2) 1.04139(13) 0.4480(3)
H7 H 0.0358 1.0706 0.4072
C10 C 0.0198(2) 1.04325(15) 0.5685(4)
H8 H 0.0329 1.0737 0.6071
C11 C 0.0000 1.0000 0.6319(4)
C12 C 0.0000 1.0000 0.7620(5)
C13 C 0.0337(2) 0.96238(15) 0.8246(3)
H9 H 0.0567 0.9359 0.7858
C14 C 0.03323(19) 0.96414(13) 0.9455(3)
H10 H 0.0574 0.9389 0.9863
Cl1 Cl 0.16178(8) 0.58814(6) 0.29368(16)
N1 N 0.0000 1.0000 0.3873(3)
N2 N 0.0000 1.0000 1.0066(3)
O1 O -0.06217(15) 0.78760(10) 0.3313(3)
O2 O -0.06390(14) 0.88010(10) 0.1425(3)
O3 O 0.02768(11) 0.92078(8) 0.2029(2)
O4 O 0.10051(11) 1.02305(8) 0.19801(19)
H11 H 0.1238 1.0058 0.1493
H12 H 0.0992 1.0555 0.1808
S1 S -0.03025(5) 0.77720(3) 0.21482(9)
Co1 Co 0.0000 1.0000 0.19793(4)
C1A C -0.02753(18) 1.27465(12) 0.2402(3)
C2A C -0.06450(19) 1.29387(13) 0.1485(3)
H1A H -0.0606 1.2786 0.0747
C3A C -0.1071(2) 1.33526(13) 0.1647(4)
H2A H -0.1332 1.3477 0.1035
C4A C -0.1099(2) 1.35761(14) 0.2734(4)
C5A C -0.0737(2) 1.33995(17) 0.3665(4)
H3A H -0.0768 1.3560 0.4395
C6A C -0.0322(2) 1.29724(15) 0.3487(3)
H4A H -0.0074 1.2839 0.4107
C7A C -0.02917(17) 1.17124(11) 0.1972(3)
H5A H -0.0573 1.1693 0.2661
H6A H -0.0572 1.1786 0.1300
C8A C 0.00637(19) 1.11881(11) 0.1794(3)
C9A C -0.0204(2) 0.95861(13) 0.4480(3)
H7A H -0.0358 0.9294 0.4072
C10A C -0.0198(2) 0.95675(15) 0.5685(4)
H8A H -0.0329 0.9263 0.6071
C13A C -0.0337(2) 1.03762(15) 0.8246(3)
H9A H -0.0567 1.0641 0.7858
C14A C -0.03323(19) 1.03586(13) 0.9455(3)
H10A H -0.0574 1.0611 0.9863
Cl1A Cl -0.16178(8) 1.41186(6) 0.29368(16)
N2_2 N 0.0000 1.0000 0.0066(3)
O1A O 0.06217(15) 1.21240(10) 0.3313(3)
O2A O 0.06390(14) 1.11990(10) 0.1425(3)
O3A O -0.02768(11) 1.07922(8) 0.2029(2)
O4A O -0.10051(11) 0.97695(8) 0.19801(19)
H11A H -0.1238 0.9942 0.1493
H12A H -0.0992 0.9445 0.1808
S1A S 0.03025(5) 1.22280(3) 0.21482(9)
Co1_2 Co 0.0000 1.0000 1.19793(4)
loop_
_geom_bond_atom_site_label_1
_geom_bond_atom_site_label_2
_geom_bond_site_symmetry_1
_geom_bond_site_symmetry_2
C1 C2 1_555 1_555
C2 H1 1_555 1_555
C3 C2 1_555 1_555
H2 C3 1_555 1_555
C4 C3 1_555 1_555
C5 C4 1_555 1_555
H3 C5 1_555 1_555
C6 C1 1_555 1_555
H4 C6 1_555 1_555
C7 H5 1_555 1_555
H6 C7 1_555 1_555
C8 C7 1_555 1_555
C9 H7 1_555 1_555
C10 C9 1_555 1_555
H8 C10 1_555 1_555
C11 C10 1_555 1_555
C12 C11 1_555 1_555
C13 C12 1_555 1_555
H9 C13 1_555 1_555
C14 C13 1_555 1_555
H10 C14 1_555 1_555
Cl1 C4 1_555 1_555
N1 C9 1_555 1_555
N2 C14 1_555 1_555
O1 S1 1_555 1_555
O2 C8 1_555 1_555
O3 C8 1_555 1_555
O4 H11 1_555 1_555
H12 O4 1_555 1_555
S1 C1 1_555 1_555
Co1 N1 1_555 1_555
C1A C2A 1_555 1_555
C2A H1A 1_555 1_555
C3A C2A 1_555 1_555
H2A C3A 1_555 1_555
C4A C3A 1_555 1_555
C5A C4A 1_555 1_555
H3A C5A 1_555 1_555
C6A C1A 1_555 1_555
H4A C6A 1_555 1_555
C7A H5A 1_555 1_555
H6A C7A 1_555 1_555
C8A C7A 1_555 1_555
C9A N1 1_555 1_555
H7A C9A 1_555 1_555
C10A C11 1_555 1_555
H8A C10A 1_555 1_555
C13A C12 1_555 1_555
H9A C13A 1_555 1_555
C14A N2 1_555 1_555
H10A C14A 1_555 1_555
Cl1A C4A 1_555 1_555
N2_2 Co1 1_555 1_555
O1A S1A 1_555 1_555
O2A C8A 1_555 1_555
O3A Co1 1_555 1_555
O4A Co1 1_555 1_555
H11A O4A 1_555 1_555
H12A O4A 1_555 1_555
S1A C1A 1_555 1_555
Co1_2 N2 1_555 1_555
C5 C6 1_555 1_555
C7 S1 1_555 1_555
O3 Co1 1_555 1_555
O4 Co1 1_555 1_555
C5A C6A 1_555 1_555
C7A S1A 1_555 1_555
C8A O3A 1_555 1_555
C9A C10A 1_555 1_555
C13A C14A 1_555 1_555

#END
