
#######################################################################
#
#                 Cambridge Crystallographic Data Centre
#                                CCDC 
#
#######################################################################
#
# If this CIF has been generated from an entry in the Cambridge 
# Structural Database, then it will include bibliographic, chemical, 
# crystal, experimental, refinement or atomic coordinate data resulting 
# from the CCDC's data processing and validation procedures.
#
#######################################################################

data_YIDJAX01
_symmetry_cell_setting           triclinic
_symmetry_space_group_name_H-M   'P -1'
_symmetry_Int_Tables_number      2
_space_group_name_Hall           '-P 1'
loop_
_symmetry_equiv_pos_site_id
_symmetry_equiv_pos_as_xyz
1 x,y,z
2 -x,-y,-z
_cell_length_a                   7.3019(8)
_cell_length_b                   7.3173(8)
_cell_length_c                   11.9931(13)
_cell_angle_alpha                87.660(2)
_cell_angle_beta                 81.889(2)
_cell_angle_gamma                72.1260(10)
_cell_volume                     603.762
loop_
_atom_site_label
_atom_site_type_symbol
_atom_site_fract_x
_atom_site_fract_y
_atom_site_fract_z
K1 K 0.71455(5) 0.57250(5) 0.10255(3)
S1 S 0.50109(5) 0.14535(5) 0.15920(3)
O1 O 0.51638(18) 0.30875(16) 0.08859(9)
O2 O 0.62860(18) -0.03501(16) 0.11142(10)
O3 O 0.29821(16) 0.14726(17) 0.18702(9)
O4 O 0.77307(18) 0.2398(2) 0.58773(10)
H1 H 0.6832 0.2677 0.6396
O5 O 0.18229(17) 0.3419(2) 0.57528(10)
H2 H 0.1126 0.3707 0.6358
O6 O 0.41296(17) 0.34346(19) 0.67931(9)
O7 O 0.2516(2) 0.7879(2) 0.13400(12)
O8 O 1.01401(19) 0.2481(2) 0.03104(12)
O9 O 1.04311(17) 0.54582(19) 0.22860(10)
C1 C 0.5779(2) 0.17393(19) 0.28914(11)
C2 C 0.7763(2) 0.1368(2) 0.29512(13)
H3 H 0.8663 0.0963 0.2312
C3 C 0.8386(2) 0.1602(3) 0.39531(14)
H4 H 0.9704 0.1364 0.3986
C4 C 0.7043(2) 0.2197(2) 0.49186(13)
C5 C 0.5055(2) 0.2556(2) 0.48666(12)
C6 C 0.4441(2) 0.2317(2) 0.38424(12)
H5 H 0.3126 0.2550 0.3803
C7 C 0.3635(2) 0.3168(2) 0.58902(12)
H6 H 0.259(4) 0.891(2) 0.1640(19)
H7 H 0.285(2) 0.784(3) 0.0621(8)
H8 H 1.103(3) 0.196(4) 0.074(2)
H9 H 1.113(3) 0.4267(16) 0.228(2)
H10 H 1.024(6) 0.174(4) -0.026(2)
H11 H 1.106(3) 0.625(3) 0.204(2)
K1A K 0.28545(5) 0.42750(5) -0.10255(3)
K1_2 K 0.71455(5) -0.42750(5) 0.10255(3)
K1A_2 K 0.28545(5) 0.42750(5) 0.89745(3)
K1A_3 K 1.28545(5) 0.42750(5) -0.10255(3)
O1A O 0.48362(18) 0.69125(16) -0.08859(9)
O2_2 O 0.62860(18) 0.96499(16) 0.11142(10)
O6A O 0.58704(17) 0.65654(19) 0.32069(9)
O8A O 0.98599(19) 0.7519(2) -0.03104(12)
H8A H 0.897(3) 0.804(4) -0.074(2)
H10A H 0.976(6) 0.826(4) 0.026(2)
loop_
_geom_bond_atom_site_label_1
_geom_bond_atom_site_label_2
_geom_bond_site_symmetry_1
_geom_bond_site_symmetry_2
K1 O1 1_555 1_555
S1 O1 1_555 1_555
O1 K1A 1_555 1_555
O2 S1 1_555 1_555
O3 S1 1_555 1_555
O4 H1 1_555 1_555
O5 H2 1_555 1_555
O6 C7 1_555 1_555
O7 K1 1_555 1_555
O8 K1 1_555 1_555
O9 K1 1_555 1_555
C1 S1 1_555 1_555
C2 C1 1_555 1_555
H3 C2 1_555 1_555
C3 C2 1_555 1_555
H4 C3 1_555 1_555
C4 O4 1_555 1_555
C5 C4 1_555 1_555
C6 C1 1_555 1_555
H5 C6 1_555 1_555
C7 O5 1_555 1_555
H6 O7 1_555 1_555
H7 O7 1_555 1_555
H8 O8 1_555 1_555
H9 O9 1_555 1_555
H10 O8 1_555 1_555
H11 O9 1_555 1_555
K1A O1A 1_555 1_555
K1_2 O2 1_555 1_555
K1A_2 O6 1_555 1_555
K1A_3 O8 1_555 1_555
O1A K1 1_555 1_555
O2_2 K1 1_555 1_555
O6A K1 1_555 1_555
O8A K1 1_555 1_555
H8A O8A 1_555 1_555
H10A O8A 1_555 1_555
C3 C4 1_555 1_555
C5 C6 1_555 1_555
C5 C7 1_555 1_555
K1A_3 O8A 1_555 1_555

#END
