
#######################################################################
#
#                 Cambridge Crystallographic Data Centre
#                                CCDC 
#
#######################################################################
#
# If this CIF has been generated from an entry in the Cambridge 
# Structural Database, then it will include bibliographic, chemical, 
# crystal, experimental, refinement or atomic coordinate data resulting 
# from the CCDC's data processing and validation procedures.
#
#######################################################################

data_YIDMIJ
_symmetry_cell_setting           monoclinic
_symmetry_space_group_name_H-M   'P 21'
_symmetry_Int_Tables_number      4
_space_group_name_Hall           'P 2yb'
loop_
_symmetry_equiv_pos_site_id
_symmetry_equiv_pos_as_xyz
1 x,y,z
2 -x,1/2+y,-z
_cell_length_a                   7.8575(16)
_cell_length_b                   21.986(4)
_cell_length_c                   13.311(3)
_cell_angle_alpha                90
_cell_angle_beta                 90.01(3)
_cell_angle_gamma                90
_cell_volume                     2299.54
loop_
_atom_site_label
_atom_site_type_symbol
_atom_site_fract_x
_atom_site_fract_y
_atom_site_fract_z
Ag1 Ag 0.47638(6) 0.078942(16) 0.82979(3)
Ag2 Ag 0.36443(6) 0.474765(18) 0.71856(3)
Ag3 Ag 0.77278(6) 0.24806(2) 1.32081(3)
N1 N 0.3399(7) 0.3957(2) 0.8331(4)
N2 N 0.1430(8) 0.4319(2) 0.9518(4)
N3 N 0.3920(7) 0.4013(2) 1.0105(3)
N4 N 0.4645(7) 0.3798(2) 0.6515(3)
N5 N 0.4828(9) 0.4068(2) 0.4816(3)
N6 N 0.7187(8) 0.3745(2) 0.5538(4)
N7 N 0.5150(7) 0.1647(2) 0.7160(3)
N8 N 0.5123(7) 0.1149(2) 0.5619(3)
N9 N 0.7538(7) 0.1599(2) 0.6060(3)
N10 N 0.3659(7) 0.1791(2) 0.8893(3)
N11 N 0.1610(7) 0.1520(2) 1.0109(4)
N12 N 0.3869(7) 0.2025(2) 1.0631(3)
N13 N 0.1277(8) 0.5040(2) 0.6368(4)
N14 N -0.1274(7) 0.5687(2) 0.6586(4)
N15 N -0.4012(8) 0.5320(3) 0.7172(5)
N16 N 0.7124(8) 0.0364(3) 0.7350(4)
N17 N 0.9957(8) -0.0050(3) 0.6972(4)
N18 N 1.2577(8) 0.0133(2) 0.7927(4)
N19 N 0.5649(10) 0.0585(3) 0.9914(4)
N20 N 0.7511(7) 0.0643(2) 1.1408(4)
N21 N 0.7638(7) 0.1507(2) 1.2572(4)
N22 N 0.9713(8) 0.2626(3) 1.4446(4)
N23 N 1.2631(9) 0.2334(3) 1.4870(5)
N24 N 1.5155(8) 0.2572(3) 1.3898(5)
N25 N 0.8717(9) 0.3098(3) 1.1974(4)
N26 N 1.0114(8) 0.3004(3) 1.0336(4)
N27 N 0.8548(10) 0.2831(3) 0.8743(5)
C1 C 0.3770(8) 0.3381(2) 0.8089(4)
C2 C 0.4574(8) 0.3295(2) 0.7072(4)
C3 C 0.5082(8) 0.2718(2) 0.6796(4)
H1 H 0.5643 0.2667 0.6187
C4 C 0.4790(8) 0.2212(2) 0.7390(4)
C5 C 0.3950(7) 0.2296(2) 0.8393(4)
C6 C 0.3487(8) 0.2874(2) 0.8681(4)
H2 H 0.2961 0.2926 0.9301
C7 C 0.2916(8) 0.4072(2) 0.9300(4)
C8 C 0.1340(10) 0.4462(3) 1.0588(5)
H3 H 0.0400 0.4249 1.0904
H4 H 0.1197 0.4895 1.0692
C9 C 0.3050(10) 0.4243(3) 1.1010(4)
H5 H 0.3679 0.4575 1.1313
H6 H 0.2893 0.3923 1.1503
C10 C 0.0028(8) 0.4408(3) 0.8837(4)
H7 H 0.0446 0.4420 0.8159
H8 H -0.0534 0.4784 0.8991
H9 H -0.0764 0.4077 0.8905
C11 C 0.5736(9) 0.3982(3) 1.0080(6)
H10 H 0.6091 0.3763 0.9492
H11 H 0.6140 0.3776 1.0669
H12 H 0.6197 0.4386 1.0061
C12 C 0.5541(10) 0.3846(3) 0.5640(4)
C13 C 0.6037(11) 0.4080(3) 0.4006(5)
H13 H 0.5997 0.4463 0.3646
H14 H 0.5844 0.3749 0.3538
C14 C 0.7719(10) 0.4003(3) 0.4567(5)
H15 H 0.8474 0.3728 0.4212
H16 H 0.8286 0.4391 0.4657
C15 C 0.2973(10) 0.4077(3) 0.4610(5)
H17 H 0.2665 0.3721 0.4234
H18 H 0.2692 0.4434 0.4230
H19 H 0.2360 0.4081 0.5234
C16 C 0.8410(9) 0.3653(3) 0.6347(5)
H20 H 0.9084 0.4014 0.6429
H21 H 0.9138 0.3317 0.6185
H22 H 0.7813 0.3569 0.6961
C17 C 0.5923(8) 0.1486(2) 0.6301(4)
C18 C 0.6291(9) 0.0987(3) 0.4800(4)
H23 H 0.5972 0.1188 0.4179
H24 H 0.6314 0.0551 0.4691
C19 C 0.8025(9) 0.1220(3) 0.5186(4)
H25 H 0.8754 0.0886 0.5387
H26 H 0.8603 0.1460 0.4678
C20 C 0.3403(9) 0.0949(3) 0.5635(4)
H27 H 0.2839 0.1116 0.6212
H28 H 0.3372 0.0513 0.5668
H29 H 0.2837 0.1084 0.5036
C21 C 0.8817(8) 0.1838(3) 0.6733(5)
H30 H 0.8273 0.2047 0.7278
H31 H 0.9538 0.2116 0.6375
H32 H 0.9490 0.1509 0.6993
C22 C 0.3060(7) 0.1808(2) 0.9840(4)
C23 C 0.1363(12) 0.1566(3) 1.1182(5)
H33 H 0.1269 0.1166 1.1484
H34 H 0.0344 0.1797 1.1336
C24 C 0.2957(9) 0.1898(3) 1.1562(4)
H35 H 0.2661 0.2270 1.1912
H36 H 0.3622 0.1640 1.2005
C25 C 0.0386(9) 0.1284(3) 0.9433(5)
H37 H -0.0533 0.1569 0.9365
H38 H -0.0045 0.0906 0.9687
H39 H 0.0906 0.1219 0.8790
C26 C 0.5530(9) 0.2318(3) 1.0636(5)
H40 H 0.6127 0.2217 1.0029
H41 H 0.6171 0.2178 1.1205
H42 H 0.5386 0.2751 1.0678
C27 C 0.0045(10) 0.5324(3) 0.6496(4)
C28 C -0.2664(9) 0.5452(3) 0.6898(5)
C29 C 0.8460(9) 0.0188(2) 0.7223(4)
C30 C 1.1306(10) 0.0068(3) 0.7520(4)
C31 C 0.6477(10) 0.0640(2) 1.0627(4)
C32 C 0.7502(8) 0.1121(3) 1.2004(4)
C33 C 1.1143(9) 0.2502(3) 1.4593(4)
C34 C 1.3922(9) 0.2478(4) 1.4301(5)
C35 C 0.9336(9) 0.3035(3) 1.1193(6)
C36 C 0.9239(9) 0.2900(3) 0.9508(5)
Ag1_2 Ag 1.47638(6) 0.078942(16) 0.82979(3)
Ag2_2 Ag -0.63557(6) 0.474765(18) 0.71856(3)
Ag3_2 Ag 1.77278(6) 0.24806(2) 1.32081(3)
N15_2 N 0.5988(8) 0.5320(3) 0.7172(5)
N18_2 N 0.2577(8) 0.0133(2) 0.7927(4)
N24_2 N 0.5155(8) 0.2572(3) 1.3898(5)
loop_
_geom_bond_atom_site_label_1
_geom_bond_atom_site_label_2
_geom_bond_site_symmetry_1
_geom_bond_site_symmetry_2
Ag1 N7 1_555 1_555
Ag2 N1 1_555 1_555
Ag3 N21 1_555 1_555
N1 C1 1_555 1_555
N2 C7 1_555 1_555
N3 C7 1_555 1_555
N4 Ag2 1_555 1_555
N5 C12 1_555 1_555
N6 C12 1_555 1_555
N7 C4 1_555 1_555
N8 C17 1_555 1_555
N9 C17 1_555 1_555
N10 Ag1 1_555 1_555
N11 C22 1_555 1_555
N12 C22 1_555 1_555
N13 Ag2 1_555 1_555
N14 C27 1_555 1_555
N15 C28 1_555 1_555
N16 Ag1 1_555 1_555
N17 C29 1_555 1_555
N18 C30 1_555 1_555
N19 Ag1 1_555 1_555
N20 C31 1_555 1_555
N21 C32 1_555 1_555
N22 Ag3 1_555 1_555
N23 C33 1_555 1_555
N24 C34 1_555 1_555
N25 Ag3 1_555 1_555
N26 C35 1_555 1_555
N27 C36 1_555 1_555
C1 C2 1_555 1_555
C2 N4 1_555 1_555
C3 C2 1_555 1_555
H1 C3 1_555 1_555
C4 C3 1_555 1_555
C5 N10 1_555 1_555
C6 C1 1_555 1_555
H2 C6 1_555 1_555
C7 N1 1_555 1_555
C8 N2 1_555 1_555
H3 C8 1_555 1_555
H4 C8 1_555 1_555
C9 N3 1_555 1_555
H5 C9 1_555 1_555
H6 C9 1_555 1_555
C10 N2 1_555 1_555
H7 C10 1_555 1_555
H8 C10 1_555 1_555
H9 C10 1_555 1_555
C11 N3 1_555 1_555
H10 C11 1_555 1_555
H11 C11 1_555 1_555
H12 C11 1_555 1_555
C12 N4 1_555 1_555
C13 N5 1_555 1_555
H13 C13 1_555 1_555
H14 C13 1_555 1_555
C14 N6 1_555 1_555
H15 C14 1_555 1_555
H16 C14 1_555 1_555
C15 N5 1_555 1_555
H17 C15 1_555 1_555
H18 C15 1_555 1_555
H19 C15 1_555 1_555
C16 N6 1_555 1_555
H20 C16 1_555 1_555
H21 C16 1_555 1_555
H22 C16 1_555 1_555
C17 N7 1_555 1_555
C18 N8 1_555 1_555
H23 C18 1_555 1_555
H24 C18 1_555 1_555
C19 N9 1_555 1_555
H25 C19 1_555 1_555
H26 C19 1_555 1_555
C20 N8 1_555 1_555
H27 C20 1_555 1_555
H28 C20 1_555 1_555
H29 C20 1_555 1_555
C21 N9 1_555 1_555
H30 C21 1_555 1_555
H31 C21 1_555 1_555
H32 C21 1_555 1_555
C22 N10 1_555 1_555
C23 N11 1_555 1_555
H33 C23 1_555 1_555
H34 C23 1_555 1_555
C24 N12 1_555 1_555
H35 C24 1_555 1_555
H36 C24 1_555 1_555
C25 N11 1_555 1_555
H37 C25 1_555 1_555
H38 C25 1_555 1_555
H39 C25 1_555 1_555
C26 N12 1_555 1_555
H40 C26 1_555 1_555
H41 C26 1_555 1_555
H42 C26 1_555 1_555
C27 N13 1_555 1_555
C28 N14 1_555 1_555
C29 N16 1_555 1_555
C30 N17 1_555 1_555
C31 N19 1_555 1_555
C32 N20 1_555 1_555
C33 N22 1_555 1_555
C34 N23 1_555 1_555
C35 N25 1_555 1_555
C36 N26 1_555 1_555
Ag1_2 N18 1_555 1_555
Ag2_2 N15 1_555 1_555
Ag3_2 N24 1_555 1_555
N15_2 Ag2 1_555 1_555
N18_2 Ag1 1_555 1_555
N24_2 Ag3 1_555 1_555
C4 C5 1_555 1_555
C5 C6 1_555 1_555
C8 C9 1_555 1_555
C13 C14 1_555 1_555
C18 C19 1_555 1_555
C23 C24 1_555 1_555

#END
