
#######################################################################
#
#                 Cambridge Crystallographic Data Centre
#                                CCDC 
#
#######################################################################
#
# If this CIF has been generated from an entry in the Cambridge 
# Structural Database, then it will include bibliographic, chemical, 
# crystal, experimental, refinement or atomic coordinate data resulting 
# from the CCDC's data processing and validation procedures.
#
#######################################################################

data_YIDMOP
_symmetry_cell_setting           monoclinic
_symmetry_space_group_name_H-M   'C 2/c'
_symmetry_Int_Tables_number      15
_space_group_name_Hall           '-C 2yn'
loop_
_symmetry_equiv_pos_site_id
_symmetry_equiv_pos_as_xyz
1 x,y,z
2 -x,y,1/2-z
3 1/2+x,1/2+y,z
4 1/2-x,1/2+y,1/2-z
5 -x,-y,-z
6 x,-y,1/2+z
7 1/2-x,1/2-y,-z
8 1/2+x,1/2-y,1/2+z
_cell_length_a                   25.005(5)
_cell_length_b                   8.2550(17)
_cell_length_c                   26.038(5)
_cell_angle_alpha                90
_cell_angle_beta                 106.83(3)
_cell_angle_gamma                90
_cell_volume                     5144.46
loop_
_atom_site_label
_atom_site_type_symbol
_atom_site_fract_x
_atom_site_fract_y
_atom_site_fract_z
Ag1 Ag 0.684721(12) -0.01219(4) 0.064672(13)
N1 N 0.60204(14) -0.0964(4) -0.00912(14)
N2 N 0.61817(15) -0.3127(5) -0.05983(15)
N3 N 0.61409(16) -0.0483(5) -0.09259(15)
N4 N 0.59816(13) 0.0463(4) 0.08092(13)
N5 N 0.61712(14) 0.2287(4) 0.15213(14)
N6 N 0.58486(15) -0.0320(4) 0.16226(14)
N7 N 0.73286(18) 0.2091(5) 0.06365(17)
N8 N 0.75335(17) 0.4878(4) 0.04157(17)
N9 N 0.71689(17) 0.7347(5) 0.07173(17)
C1 C 0.55184(16) -0.0488(5) -0.00812(16)
C2 C 0.54974(16) 0.0256(5) 0.04409(15)
C3 C 0.49782(16) 0.0697(5) 0.04963(15)
H1 H 0.4961 0.1145 0.0819
C4 C 0.61024(16) -0.1550(5) -0.05561(17)
C5 C 0.5969(2) -0.4266(6) -0.0275(2)
H2 H 0.5742 -0.3694 -0.0094
H3 H 0.6276 -0.4769 -0.0015
H4 H 0.5748 -0.5081 -0.0503
C6 C 0.6535(2) -0.3857(7) -0.0894(2)
H5 H 0.6305 -0.4430 -0.1199
H6 H 0.6792 -0.4599 -0.0664
H7 H 0.6740 -0.3024 -0.1012
C7 C 0.6187(2) 0.1254(6) -0.0803(2)
H8 H 0.5821 0.1717 -0.0880
H9 H 0.6390 0.1776 -0.1018
H10 H 0.6382 0.1406 -0.0430
C8 C 0.6044(2) -0.0871(8) -0.14950(19)
H11 H 0.6394 -0.0856 -0.1579
H12 H 0.5796 -0.0084 -0.1711
H13 H 0.5880 -0.1929 -0.1568
C9 C 0.59883(16) 0.0840(5) 0.13280(16)
C10 C 0.64122(19) 0.2647(6) 0.20879(17)
H14 H 0.6143 0.3211 0.2219
H15 H 0.6737 0.3314 0.2135
H16 H 0.6516 0.1655 0.2284
C11 C 0.61758(19) 0.3632(5) 0.11587(19)
H17 H 0.6553 0.3857 0.1162
H18 H 0.6018 0.4575 0.1274
H19 H 0.5959 0.3349 0.0801
C12 C 0.58123(19) -0.2016(5) 0.14470(18)
H20 H 0.5439 -0.2244 0.1229
H21 H 0.5904 -0.2713 0.1755
H22 H 0.6070 -0.2199 0.1242
C13 C 0.5613(2) 0.0005(6) 0.20671(18)
H23 H 0.5882 -0.0275 0.2401
H24 H 0.5281 -0.0632 0.2022
H25 H 0.5521 0.1134 0.2069
C14 C 0.74069(18) 0.3423(5) 0.05455(18)
C15 C 0.73238(18) 0.6142(5) 0.05882(18)
N1D N 0.39796(14) 0.0964(4) 0.00912(14)
N2D N 0.38183(15) 0.3127(5) 0.05983(15)
N3D N 0.38591(16) 0.0483(5) 0.09259(15)
N4D N 0.40184(13) -0.0463(4) -0.08092(13)
N5D N 0.38288(14) -0.2287(4) -0.15213(14)
N6D N 0.41514(15) 0.0320(4) -0.16226(14)
C1D C 0.44816(16) 0.0488(5) 0.00812(16)
C2D C 0.45026(16) -0.0256(5) -0.04409(15)
C3D C 0.50218(16) -0.0697(5) -0.04963(15)
H1D H 0.5039 -0.1145 -0.0819
C4D C 0.38976(16) 0.1550(5) 0.05561(17)
C5D C 0.4031(2) 0.4266(6) 0.0275(2)
H2D H 0.4258 0.3694 0.0094
H3D H 0.3724 0.4769 0.0015
H4D H 0.4252 0.5081 0.0503
C6D C 0.3465(2) 0.3857(7) 0.0894(2)
H5D H 0.3695 0.4430 0.1199
H6D H 0.3208 0.4599 0.0664
H7D H 0.3260 0.3024 0.1012
C7D C 0.3813(2) -0.1254(6) 0.0803(2)
H8D H 0.4179 -0.1717 0.0880
H9D H 0.3610 -0.1776 0.1018
H10D H 0.3618 -0.1406 0.0430
C8D C 0.3956(2) 0.0871(8) 0.14950(19)
H11D H 0.3606 0.0856 0.1579
H12D H 0.4204 0.0084 0.1711
H13D H 0.4120 0.1929 0.1568
C9D C 0.40117(16) -0.0840(5) -0.13280(16)
C10D C 0.35878(19) -0.2647(6) -0.20879(17)
H14D H 0.3857 -0.3211 -0.2219
H15D H 0.3263 -0.3314 -0.2135
H16D H 0.3484 -0.1655 -0.2284
C11D C 0.38242(19) -0.3632(5) -0.11587(19)
H17D H 0.3447 -0.3857 -0.1162
H18D H 0.3982 -0.4575 -0.1274
H19D H 0.4041 -0.3349 -0.0801
C12D C 0.41877(19) 0.2016(5) -0.14470(18)
H20D H 0.4561 0.2244 -0.1229
H21D H 0.4096 0.2713 -0.1755
H22D H 0.3930 0.2199 -0.1242
C13D C 0.4387(2) -0.0005(6) -0.20671(18)
H23D H 0.4118 0.0275 -0.2401
H24D H 0.4719 0.0632 -0.2022
H25D H 0.4479 -0.1134 -0.2069
Ag1D Ag 0.315279(12) 0.01219(4) -0.064672(13)
N7D N 0.26714(18) -0.2091(5) -0.06365(17)
N8D N 0.24665(17) -0.4878(4) -0.04157(17)
N9D N 0.28311(17) -0.7347(5) -0.07173(17)
C14D C 0.25931(18) -0.3423(5) -0.05455(18)
C15D C 0.26762(18) -0.6142(5) -0.05882(18)
Ag1_2 Ag 0.684721(12) 0.98781(4) 0.064672(13)
Ag1D_2 Ag 0.315279(12) -0.98781(4) -0.064672(13)
N9_2 N 0.71689(17) -0.2653(5) 0.07173(17)
N9D_2 N 0.28311(17) 0.2653(5) -0.07173(17)
Ag2 Ag 0.292896(14) 0.71226(4) 0.195083(15)
N10 N 0.23714(16) 1.4955(4) 0.18005(15)
N11 N 0.26513(17) 0.9686(4) 0.18490(15)
N12 N 0.21939(15) 1.2167(4) 0.20432(15)
N13 N 0.38402(16) 0.6657(5) 0.21180(17)
N14 N 0.46899(17) 0.6371(5) 0.18393(19)
N15 N 0.50423(18) 0.3779(6) 0.1596(2)
C16 C 0.23066(17) 1.3622(5) 0.19015(16)
C17 C 0.24516(18) 1.0900(5) 0.19261(17)
C18 C 0.42379(19) 0.6446(6) 0.19891(18)
C19 C 0.48667(18) 0.4951(6) 0.17215(19)
Ag2_2 Ag 0.292896(14) 1.71226(4) 0.195083(15)
N10_2 N 0.23714(16) 0.4955(4) 0.18005(15)
loop_
_geom_bond_atom_site_label_1
_geom_bond_atom_site_label_2
_geom_bond_site_symmetry_1
_geom_bond_site_symmetry_2
Ag1 N1 1_555 1_555
N1 C1 1_555 1_555
N2 C4 1_555 1_555
N3 C4 1_555 1_555
N4 Ag1 1_555 1_555
N5 C9 1_555 1_555
N6 C9 1_555 1_555
N7 Ag1 1_555 1_555
N8 C14 1_555 1_555
N9 C15 1_555 1_555
C1 C2 1_555 1_555
C2 N4 1_555 1_555
C3 C2 1_555 1_555
H1 C3 1_555 1_555
C4 N1 1_555 1_555
C5 N2 1_555 1_555
H2 C5 1_555 1_555
H3 C5 1_555 1_555
H4 C5 1_555 1_555
C6 N2 1_555 1_555
H5 C6 1_555 1_555
H6 C6 1_555 1_555
H7 C6 1_555 1_555
C7 N3 1_555 1_555
H8 C7 1_555 1_555
H9 C7 1_555 1_555
H10 C7 1_555 1_555
C8 N3 1_555 1_555
H11 C8 1_555 1_555
H12 C8 1_555 1_555
H13 C8 1_555 1_555
C9 N4 1_555 1_555
C10 N5 1_555 1_555
H14 C10 1_555 1_555
H15 C10 1_555 1_555
H16 C10 1_555 1_555
C11 N5 1_555 1_555
H17 C11 1_555 1_555
H18 C11 1_555 1_555
H19 C11 1_555 1_555
C12 N6 1_555 1_555
H20 C12 1_555 1_555
H21 C12 1_555 1_555
H22 C12 1_555 1_555
C13 N6 1_555 1_555
H23 C13 1_555 1_555
H24 C13 1_555 1_555
H25 C13 1_555 1_555
C14 N7 1_555 1_555
C15 N8 1_555 1_555
Ag2 N11 1_555 1_555
N10 C16 1_555 1_555
N11 C17 1_555 1_555
N12 C16 1_555 1_555
N13 Ag2 1_555 1_555
N14 C18 1_555 1_555
N15 C19 1_555 1_555
C17 N12 1_555 1_555
C18 N13 1_555 1_555
C19 N14 1_555 1_555
N1D C1D 1_555 1_555
N2D C4D 1_555 1_555
N3D C4D 1_555 1_555
N4D C2D 1_555 1_555
N5D C9D 1_555 1_555
N6D C9D 1_555 1_555
C1D C3 1_555 1_555
C2D C1D 1_555 1_555
C3D C1 1_555 1_555
H1D C3D 1_555 1_555
C4D N1D 1_555 1_555
C5D N2D 1_555 1_555
H2D C5D 1_555 1_555
H3D C5D 1_555 1_555
H4D C5D 1_555 1_555
C6D N2D 1_555 1_555
H5D C6D 1_555 1_555
H6D C6D 1_555 1_555
H7D C6D 1_555 1_555
C7D N3D 1_555 1_555
H8D C7D 1_555 1_555
H9D C7D 1_555 1_555
H10D C7D 1_555 1_555
C8D N3D 1_555 1_555
H11D C8D 1_555 1_555
H12D C8D 1_555 1_555
H13D C8D 1_555 1_555
C9D N4D 1_555 1_555
C10D N5D 1_555 1_555
H14D C10D 1_555 1_555
H15D C10D 1_555 1_555
H16D C10D 1_555 1_555
C11D N5D 1_555 1_555
H17D C11D 1_555 1_555
H18D C11D 1_555 1_555
H19D C11D 1_555 1_555
C12D N6D 1_555 1_555
H20D C12D 1_555 1_555
H21D C12D 1_555 1_555
H22D C12D 1_555 1_555
C13D N6D 1_555 1_555
H23D C13D 1_555 1_555
H24D C13D 1_555 1_555
H25D C13D 1_555 1_555
Ag1D N1D 1_555 1_555
N7D Ag1D 1_555 1_555
N8D C14D 1_555 1_555
N9D C15D 1_555 1_555
C14D N7D 1_555 1_555
C15D N8D 1_555 1_555
Ag1_2 N9 1_555 1_555
Ag1D_2 N9D 1_555 1_555
N9_2 Ag1 1_555 1_555
N9D_2 Ag1D 1_555 1_555
Ag2_2 N10 1_555 1_555
N10_2 Ag2 1_555 1_555
N4D Ag1D 1_555 1_555
C2D C3D 1_555 1_555

#END
