
#######################################################################
#
#                 Cambridge Crystallographic Data Centre
#                                CCDC 
#
#######################################################################
#
# If this CIF has been generated from an entry in the Cambridge 
# Structural Database, then it will include bibliographic, chemical, 
# crystal, experimental, refinement or atomic coordinate data resulting 
# from the CCDC's data processing and validation procedures.
#
#######################################################################

data_YIDNOQ
_symmetry_cell_setting           triclinic
_symmetry_space_group_name_H-M   'P -1'
_symmetry_Int_Tables_number      2
_space_group_name_Hall           '-P 1'
loop_
_symmetry_equiv_pos_site_id
_symmetry_equiv_pos_as_xyz
1 x,y,z
2 -x,-y,-z
_cell_length_a                   10.812(3)
_cell_length_b                   11.393(3)
_cell_length_c                   15.331(4)
_cell_angle_alpha                71.014(5)
_cell_angle_beta                 87.963(5)
_cell_angle_gamma                76.451(5)
_cell_volume                     1734.35
loop_
_atom_site_label
_atom_site_type_symbol
_atom_site_fract_x
_atom_site_fract_y
_atom_site_fract_z
Rh1 Rh 0.95273(4) 0.57966(4) 0.03453(3)
Rh2 Rh 0.96028(4) 0.57032(4) 0.42410(3)
O1 O 1.1301(4) 0.5571(4) 0.0884(3)
O2 O 1.2183(4) 0.4056(4) 0.0250(3)
O3 O 0.9188(4) 0.4328(4) 0.1455(3)
O4 O 1.0079(4) 0.2852(4) 0.0793(3)
O5 O 0.8606(4) 0.6964(4) 0.4850(3)
O6 O 0.9341(4) 0.5624(4) 0.6274(3)
O7 O 0.8121(4) 0.4828(4) 0.4419(3)
O8 O 0.8858(4) 0.3527(4) 0.5850(3)
N1 N 0.8583(5) 0.7487(5) 0.0823(4)
H1 H 0.8232 0.8126 0.0281
N2 N 0.8854(5) 0.7015(5) 0.2798(3)
H2 H 0.8439 0.7809 0.2834
C1 C 1.2238(6) 0.4764(6) 0.0719(4)
C2 C 1.3510(6) 0.4679(6) 0.1119(4)
C3 C 1.3626(6) 0.5393(6) 0.1683(5)
H3 H 1.2885 0.5915 0.1834
C4 C 1.4811(7) 0.5352(7) 0.2028(5)
H4 H 1.4879 0.5839 0.2416
C5 C 1.5881(6) 0.4605(6) 0.1807(5)
H5 H 1.6698 0.4592 0.2024
C6 C 1.5767(7) 0.3877(7) 0.1269(5)
H6 H 1.6509 0.3335 0.1139
C7 C 1.4602(6) 0.3915(7) 0.0916(5)
H7 H 1.4545 0.3418 0.0533
C8 C 0.9551(6) 0.3197(6) 0.1455(4)
C9 C 0.9389(5) 0.2162(6) 0.2308(4)
C10 C 0.8950(6) 0.2437(6) 0.3101(4)
H8 H 0.8670 0.3301 0.3081
C11 C 0.8919(6) 0.1469(6) 0.3914(4)
H9 H 0.8621 0.1666 0.4452
C12 C 0.9324(6) 0.0205(7) 0.3950(5)
H10 H 0.9310 -0.0463 0.4513
C13 C 0.9750(6) -0.0084(6) 0.3159(5)
H11 H 1.0019 -0.0949 0.3180
C14 C 0.9781(6) 0.0897(6) 0.2340(5)
H12 H 1.0071 0.0702 0.1800
C15 C 0.8684(5) 0.6650(6) 0.5723(4)
C16 C 0.7956(5) 0.7609(5) 0.6149(4)
C17 C 0.7361(6) 0.8825(6) 0.5597(4)
H13 H 0.7309 0.9029 0.4945
C18 C 0.6839(6) 0.9750(6) 0.6001(5)
H14 H 0.6464 1.0597 0.5622
C19 C 0.6863(6) 0.9440(6) 0.6957(5)
H15 H 0.6503 1.0073 0.7231
C20 C 0.7412(6) 0.8214(6) 0.7502(5)
H16 H 0.7407 0.7995 0.8155
C21 C 0.7969(6) 0.7298(6) 0.7108(4)
H17 H 0.8360 0.6457 0.7490
C22 C 0.8028(5) 0.4001(5) 0.5180(4)
C23 C 0.6816(5) 0.3555(5) 0.5321(4)
C24 C 0.5989(6) 0.3817(6) 0.4570(4)
H18 H 0.6216 0.4234 0.3963
C25 C 0.4830(6) 0.3468(6) 0.4710(4)
H19 H 0.4273 0.3632 0.4196
C26 C 0.4482(6) 0.2881(6) 0.5597(5)
H20 H 0.3680 0.2663 0.5693
C27 C 0.5310(6) 0.2616(5) 0.6340(4)
H21 H 0.5080 0.2205 0.6947
C28 C 0.6472(6) 0.2944(5) 0.6206(4)
H22 H 0.7037 0.2753 0.6720
C29 C 0.9460(6) 0.8044(6) 0.1179(4)
H23 H 0.9021 0.8909 0.1183
H24 H 1.0195 0.8120 0.0778
C30 C 0.9923(6) 0.7185(6) 0.2160(4)
H25 H 1.0401 0.6338 0.2142
H26 H 1.0515 0.7561 0.2402
C31 C 0.7945(6) 0.6520(6) 0.2403(4)
H27 H 0.7203 0.6462 0.2799
H28 H 0.8358 0.5647 0.2403
C32 C 0.7480(6) 0.7355(6) 0.1422(4)
H29 H 0.6903 0.6965 0.1178
H30 H 0.6997 0.8208 0.1422
Rh1A Rh 1.04727(4) 0.42034(4) -0.03453(3)
Rh2A Rh 1.03972(4) 0.42968(4) 0.57590(3)
O2A O 0.7817(4) 0.5944(4) -0.0250(3)
O4A O 0.9921(4) 0.7148(4) -0.0793(3)
O6A O 1.0659(4) 0.4376(4) 0.3726(3)
O8A O 1.1142(4) 0.6473(4) 0.4150(3)
N3 N 0.6570(7) 0.9763(8) 0.2552(6)
C33 C 0.6236(7) 1.0510(7) 0.2896(5)
C34 C 0.5785(7) 1.1465(7) 0.3349(6)
H31 H 0.5609 1.2319 0.2887
H32 H 0.6440 1.1399 0.3801
H33 H 0.5004 1.1319 0.3665
N4 N 0.677(4) 0.970(2) -0.0763(15)
C35 C 0.640(6) 1.057(4) -0.055(3)
C36 C 0.594(4) 1.107(2) 0.0234(18)
H34 H 0.6022 1.0355 0.0812
H35 H 0.5040 1.1531 0.0108
H36 H 0.6445 1.1653 0.0289
N5? N 0.755(2) 1.033(2) -0.0921(18)
C37? C 0.735(2) 1.0868(17) -0.0439(13)
C38? C 0.718(2) 1.1589(17) 0.0146(12)
H37? H 0.7149 1.1033 0.0783
H38? H 0.6371 1.2239 -0.0028
H39? H 0.7882 1.2008 0.0096
loop_
_geom_bond_atom_site_label_1
_geom_bond_atom_site_label_2
_geom_bond_site_symmetry_1
_geom_bond_site_symmetry_2
Rh1 O1 1_555 1_555
Rh2 O5 1_555 1_555
O1 C1 1_555 1_555
O2 C1 1_555 1_555
O3 Rh1 1_555 1_555
O4 C8 1_555 1_555
O5 C15 1_555 1_555
O6 C15 1_555 1_555
O7 Rh2 1_555 1_555
O8 C22 1_555 1_555
N1 Rh1 1_555 1_555
H1 N1 1_555 1_555
N2 Rh2 1_555 1_555
H2 N2 1_555 1_555
C1 C2 1_555 1_555
C2 C3 1_555 1_555
C3 H3 1_555 1_555
C4 C3 1_555 1_555
H4 C4 1_555 1_555
C5 C4 1_555 1_555
H5 C5 1_555 1_555
C6 C5 1_555 1_555
H6 C6 1_555 1_555
C7 C2 1_555 1_555
H7 C7 1_555 1_555
C8 O3 1_555 1_555
C9 C8 1_555 1_555
C10 C9 1_555 1_555
H8 C10 1_555 1_555
C11 C10 1_555 1_555
H9 C11 1_555 1_555
C12 C11 1_555 1_555
H10 C12 1_555 1_555
C13 C12 1_555 1_555
H11 C13 1_555 1_555
C14 C9 1_555 1_555
H12 C14 1_555 1_555
C15 C16 1_555 1_555
C16 C17 1_555 1_555
C17 H13 1_555 1_555
C18 C17 1_555 1_555
H14 C18 1_555 1_555
C19 C18 1_555 1_555
H15 C19 1_555 1_555
C20 C19 1_555 1_555
H16 C20 1_555 1_555
C21 C16 1_555 1_555
H17 C21 1_555 1_555
C22 O7 1_555 1_555
C23 C22 1_555 1_555
C24 C23 1_555 1_555
H18 C24 1_555 1_555
C25 C24 1_555 1_555
H19 C25 1_555 1_555
C26 C25 1_555 1_555
H20 C26 1_555 1_555
C27 C26 1_555 1_555
H21 C27 1_555 1_555
C28 C23 1_555 1_555
H22 C28 1_555 1_555
C29 N1 1_555 1_555
H23 C29 1_555 1_555
H24 C29 1_555 1_555
C30 N2 1_555 1_555
H25 C30 1_555 1_555
H26 C30 1_555 1_555
C31 N2 1_555 1_555
H27 C31 1_555 1_555
H28 C31 1_555 1_555
C32 N1 1_555 1_555
H29 C32 1_555 1_555
H30 C32 1_555 1_555
N3 C33 1_555 1_555
C33 C34 1_555 1_555
C34 H31 1_555 1_555
H32 C34 1_555 1_555
H33 C34 1_555 1_555
N4 C35 1_555 1_555
C35 C36 1_555 1_555
C36 H34 1_555 1_555
H35 C36 1_555 1_555
H36 C36 1_555 1_555
Rh1A Rh1 1_555 1_555
Rh2A Rh2 1_555 1_555
O2A Rh1 1_555 1_555
O4A Rh1 1_555 1_555
O6A Rh2 1_555 1_555
O8A Rh2 1_555 1_555
O2 Rh1A 1_555 1_555
O4 Rh1A 1_555 1_555
O6 Rh2A 1_555 1_555
O8 Rh2A 1_555 1_555
C6 C7 1_555 1_555
C13 C14 1_555 1_555
C20 C21 1_555 1_555
C27 C28 1_555 1_555
C29 C30 1_555 1_555
C31 C32 1_555 1_555

#END
