
#######################################################################
#
#                 Cambridge Crystallographic Data Centre
#                                CCDC 
#
#######################################################################
#
# If this CIF has been generated from an entry in the Cambridge 
# Structural Database, then it will include bibliographic, chemical, 
# crystal, experimental, refinement or atomic coordinate data resulting 
# from the CCDC's data processing and validation procedures.
#
#######################################################################

data_YIDPUY
_symmetry_cell_setting           rhombohedral
_symmetry_space_group_name_H-M   'R 3 c'
_symmetry_Int_Tables_number      161
_space_group_name_Hall           'R 3 -2"c'
loop_
_symmetry_equiv_pos_site_id
_symmetry_equiv_pos_as_xyz
1 x,y,z
2 -y,x-y,z
3 -x+y,-x,z
4 -y,-x,1/2+z
5 -x+y,y,1/2+z
6 x,x-y,1/2+z
7 2/3+x,1/3+y,1/3+z
8 2/3-y,1/3+x-y,1/3+z
9 2/3-x+y,1/3-x,1/3+z
10 2/3-y,1/3-x,5/6+z
11 2/3-x+y,1/3+y,5/6+z
12 2/3+x,1/3+x-y,5/6+z
13 1/3+x,2/3+y,2/3+z
14 1/3-y,2/3+x-y,2/3+z
15 1/3-x+y,2/3-x,2/3+z
16 1/3-y,2/3-x,1/6+z
17 1/3-x+y,2/3+y,1/6+z
18 1/3+x,2/3+x-y,1/6+z
_cell_length_a                   23.5913(5)
_cell_length_b                   23.5913(5)
_cell_length_c                   13.7609(6)
_cell_angle_alpha                90
_cell_angle_beta                 90
_cell_angle_gamma                120
_cell_volume                     6632.56
loop_
_atom_site_label
_atom_site_type_symbol
_atom_site_fract_x
_atom_site_fract_y
_atom_site_fract_z
C1 C 0.7233(2) 0.3283(2) 0.0691(3)
H1 H 0.7610 0.3251 0.0693
C2 C 0.6620(2) 0.27274(19) 0.0690(3)
C3 C 0.3947(2) -0.3292(2) 0.1476(3)
H2 H 0.4354 -0.3265 0.1484
C4 C 0.3896(2) -0.27316(19) 0.1471(3)
C5 C 0.6815(2) 0.1329(2) 0.0562(4)
H3 H 0.7044 0.1110 0.0450
C6 C 0.7062(2) 0.1972(2) 0.0458(4)
H4 H 0.7485 0.2275 0.0263
C7 C 0.5116(2) -0.1987(2) 0.1538(4)
H5 H 0.5249 -0.2293 0.1645
C8 C 0.5501(2) -0.1342(2) 0.1439(4)
H6 H 0.5955 -0.1123 0.1465
C9 C 0.4526(2) -0.1517(2) 0.1304(4)
H7 H 0.4168 -0.1456 0.1224
C10 C 0.6041(2) 0.1517(2) 0.0927(3)
H8 H 0.5638 0.1464 0.1111
Co1 Co 0.55924(2) 0.00052(3) 0.11532(5)
N1 N 0.61639(19) 0.10315(18) 0.0860(3)
N2 N 0.51362(17) -0.10458(17) 0.1294(3)
N3 N 0.65648(17) 0.20982(18) 0.0697(3)
N4 N 0.44804(17) -0.21122(17) 0.1449(3)
O1 O 0.52748(15) 0.01124(17) 0.2547(3)
H9 H 0.4888 -0.0107 0.2771
H10 H 0.5454 0.0315 0.3070
O2 O 0.64302(14) 0.01279(14) 0.1951(2)
H11 H 0.6748 0.0209 0.1576
H12 H 0.6583 0.0515 0.2164
O3 O 0.59435(17) -0.01478(18) -0.0142(2)
H13 H 0.6329 0.0046 -0.0374
H14 H 0.5744 -0.0271 -0.0682
O4 O 0.47402(16) -0.00870(19) 0.0595(3)
H15 H 0.4669 0.0132 0.0172
H16 H 0.4378 -0.0236 0.0893
C1A C 0.6717(2) 0.3950(3) 0.0691(3)
H1A H 0.6749 0.4359 0.0693
C2A C 0.72726(19) 0.38926(28) 0.0690(3)
C5A C 0.8671(2) 0.5486(3) 0.0562(4)
H3A H 0.8890 0.5934 0.0450
C6A C 0.8028(2) 0.5090(3) 0.0458(4)
H4A H 0.7725 0.5210 0.0263
C10A C 0.8483(2) 0.4524(3) 0.0927(3)
H8A H 0.8536 0.4174 0.1111
N1A N 0.89685(18) 0.51324(26) 0.0860(3)
N3A N 0.79018(18) 0.44666(25) 0.0697(3)
C1B C 0.6050(3) 0.2767(2) 0.0691(3)
H1B H 0.5641 0.2390 0.0693
C2B C 0.61074(28) 0.3380(2) 0.0690(3)
C5B C 0.4514(3) 0.3185(2) 0.0562(4)
H3B H 0.4066 0.2956 0.0450
C6B C 0.4910(3) 0.2938(2) 0.0458(4)
H4B H 0.4790 0.2515 0.0263
C10B C 0.5476(3) 0.3959(2) 0.0927(3)
H8B H 0.5826 0.4362 0.1111
N1B N 0.48676(26) 0.38361(19) 0.0860(3)
N3B N 0.55334(25) 0.34352(17) 0.0697(3)
C3A C 0.3292(2) -0.2761(3) 0.1476(3)
H2A H 0.3265 -0.2381 0.1484
C4A C 0.27316(19) -0.33724(28) 0.1471(3)
C7A C 0.1987(2) -0.2897(3) 0.1538(4)
H5A H 0.2293 -0.2458 0.1645
C8A C 0.1342(2) -0.3157(3) 0.1439(4)
H6A H 0.1123 -0.2922 0.1465
C9A C 0.1517(2) -0.3957(3) 0.1304(4)
H7A H 0.1456 -0.4376 0.1224
N2A N 0.10458(17) -0.38180(24) 0.1294(3)
N4A N 0.21122(17) -0.34074(24) 0.1449(3)
C3B C 0.2761(3) -0.3947(2) 0.1476(3)
H2B H 0.2381 -0.4354 0.1484
C4B C 0.33724(28) -0.3896(2) 0.1471(3)
C7B C 0.2897(3) -0.5116(2) 0.1538(4)
H5B H 0.2458 -0.5249 0.1645
C8B C 0.3157(3) -0.5501(2) 0.1439(4)
H6B H 0.2922 -0.5955 0.1465
C9B C 0.3957(3) -0.4526(2) 0.1304(4)
H7B H 0.4376 -0.4168 0.1224
N2B N 0.38180(24) -0.51362(17) 0.1294(3)
N4B N 0.34074(24) -0.44804(17) 0.1449(3)
Co1A Co -0.00052(3) -0.44128(4) 0.11532(5)
O1A O -0.01124(17) -0.48376(23) 0.2547(3)
H9A H 0.0107 -0.5005 0.2771
H10A H -0.0315 -0.4861 0.3070
O2A O -0.01279(14) -0.36977(20) 0.1951(2)
H11A H -0.0209 -0.3461 0.1576
H12A H -0.0515 -0.3932 0.2164
O3A O 0.01478(18) -0.39087(25) -0.0142(2)
H13A H -0.0046 -0.3717 -0.0374
H14A H 0.0271 -0.3985 -0.0682
O4A O 0.00870(19) -0.51728(25) 0.0595(3)
H15A H -0.0132 -0.5463 0.0172
H16A H 0.0236 -0.5386 0.0893
Co1B Co 0.44128(4) -0.55924(2) 0.11532(5)
O1B O 0.48376(23) -0.52748(15) 0.2547(3)
H9B H 0.5005 -0.4888 0.2771
H10B H 0.4861 -0.5454 0.3070
O2B O 0.36977(20) -0.64302(14) 0.1951(2)
H11B H 0.3461 -0.6748 0.1576
H12B H 0.3932 -0.6583 0.2164
O3B O 0.39087(25) -0.59435(17) -0.0142(2)
H13B H 0.3717 -0.6329 -0.0374
H14B H 0.3985 -0.5744 -0.0682
O4B O 0.51728(25) -0.47402(16) 0.0595(3)
H15B H 0.5463 -0.4669 0.0172
H16B H 0.5386 -0.4378 0.0893
Co1A_2 Co 0.99948(3) 0.55872(4) 0.11532(5)
Co1B_2 Co 0.44128(4) 0.44076(2) 0.11532(5)
N1A_2 N -0.10315(18) -0.48676(26) 0.0860(3)
N1B_2 N 0.48676(26) -0.61639(19) 0.0860(3)
O5 O 0.4243(2) 0.04221(16) 0.9253(3)
O6 O 0.4295(2) 0.11957(17) 0.8088(3)
O7 O 0.3852(2) 0.1158(2) 0.9665(3)
O8 O 0.49962(19) 0.15768(18) 0.9470(4)
S1 S 0.43554(5) 0.10927(5) 0.91271(8)
loop_
_geom_bond_atom_site_label_1
_geom_bond_atom_site_label_2
_geom_bond_site_symmetry_1
_geom_bond_site_symmetry_2
C1 H1 1_555 1_555
C2 C1 1_555 1_555
C3 H2 1_555 1_555
C4 C3 1_555 1_555
C5 H3 1_555 1_555
C6 C5 1_555 1_555
H4 C6 1_555 1_555
C7 H5 1_555 1_555
C8 C7 1_555 1_555
H6 C8 1_555 1_555
C9 H7 1_555 1_555
C10 H8 1_555 1_555
Co1 N1 1_555 1_555
N1 C5 1_555 1_555
N2 C8 1_555 1_555
N3 C2 1_555 1_555
N4 C4 1_555 1_555
O1 Co1 1_555 1_555
H9 O1 1_555 1_555
H10 O1 1_555 1_555
O2 Co1 1_555 1_555
H11 O2 1_555 1_555
H12 O2 1_555 1_555
O3 Co1 1_555 1_555
H13 O3 1_555 1_555
H14 O3 1_555 1_555
O4 Co1 1_555 1_555
H15 O4 1_555 1_555
H16 O4 1_555 1_555
O5 S1 1_555 1_555
O6 S1 1_555 1_555
O7 S1 1_555 1_555
O8 S1 1_555 1_555
C1A H1A 1_555 1_555
C2A C1 1_555 1_555
C5A H3A 1_555 1_555
C6A C5A 1_555 1_555
H4A C6A 1_555 1_555
C10A H8A 1_555 1_555
N1A C5A 1_555 1_555
N3A C2A 1_555 1_555
C1B C2 1_555 1_555
H1B C1B 1_555 1_555
C2B C1A 1_555 1_555
C5B H3B 1_555 1_555
C6B C5B 1_555 1_555
H4B C6B 1_555 1_555
C10B H8B 1_555 1_555
N1B C5B 1_555 1_555
N3B C2B 1_555 1_555
C3A C4 1_555 1_555
H2A C3A 1_555 1_555
C4A C3A 1_555 1_555
C7A H5A 1_555 1_555
C8A C7A 1_555 1_555
H6A C8A 1_555 1_555
C9A H7A 1_555 1_555
N2A C8A 1_555 1_555
N4A C4A 1_555 1_555
C3B C4A 1_555 1_555
H2B C3B 1_555 1_555
C4B C3 1_555 1_555
C7B H5B 1_555 1_555
C8B C7B 1_555 1_555
H6B C8B 1_555 1_555
C9B H7B 1_555 1_555
N2B C8B 1_555 1_555
N4B C4B 1_555 1_555
Co1A N2A 1_555 1_555
O1A Co1A 1_555 1_555
H9A O1A 1_555 1_555
H10A O1A 1_555 1_555
O2A Co1A 1_555 1_555
H11A O2A 1_555 1_555
H12A O2A 1_555 1_555
O3A Co1A 1_555 1_555
H13A O3A 1_555 1_555
H14A O3A 1_555 1_555
O4A Co1A 1_555 1_555
H15A O4A 1_555 1_555
H16A O4A 1_555 1_555
Co1B N2B 1_555 1_555
O1B Co1B 1_555 1_555
H9B O1B 1_555 1_555
H10B O1B 1_555 1_555
O2B Co1B 1_555 1_555
H11B O2B 1_555 1_555
H12B O2B 1_555 1_555
O3B Co1B 1_555 1_555
H13B O3B 1_555 1_555
H14B O3B 1_555 1_555
O4B Co1B 1_555 1_555
H15B O4B 1_555 1_555
H16B O4B 1_555 1_555
Co1A_2 N1A 1_555 1_555
Co1B_2 N1B 1_555 1_555
N1A_2 Co1A 1_555 1_555
N1B_2 Co1B 1_555 1_555
C6 N3 1_555 1_555
C7 N4 1_555 1_555
C9 N2 1_555 1_555
C9 N4 1_555 1_555
C10 N1 1_555 1_555
C10 N3 1_555 1_555
Co1 N2 1_555 1_555
C1A C2A 1_555 1_555
C6A N3A 1_555 1_555
C10A N1A 1_555 1_555
C10A N3A 1_555 1_555
C1B C2B 1_555 1_555
C6B N3B 1_555 1_555
C10B N1B 1_555 1_555
C10B N3B 1_555 1_555
C7A N4A 1_555 1_555
C9A N2A 1_555 1_555
C9A N4A 1_555 1_555
C3B C4B 1_555 1_555
C7B N4B 1_555 1_555
C9B N2B 1_555 1_555
C9B N4B 1_555 1_555

#END
