
#######################################################################
#
#                 Cambridge Crystallographic Data Centre
#                                CCDC 
#
#######################################################################
#
# If this CIF has been generated from an entry in the Cambridge 
# Structural Database, then it will include bibliographic, chemical, 
# crystal, experimental, refinement or atomic coordinate data resulting 
# from the CCDC's data processing and validation procedures.
#
#######################################################################

data_YIDPIL
_symmetry_cell_setting           monoclinic
_symmetry_space_group_name_H-M   'P 21/c'
_symmetry_Int_Tables_number      14
_space_group_name_Hall           '-P 2ybc'
loop_
_symmetry_equiv_pos_site_id
_symmetry_equiv_pos_as_xyz
1 x,y,z
2 -x,1/2+y,1/2-z
3 -x,-y,-z
4 x,1/2-y,1/2+z
_cell_length_a                   9.3948(19)
_cell_length_b                   23.351(5)
_cell_length_c                   9.950(2)
_cell_angle_alpha                90
_cell_angle_beta                 111.88(3)
_cell_angle_gamma                90
_cell_volume                     2025.58
loop_
_atom_site_label
_atom_site_type_symbol
_atom_site_fract_x
_atom_site_fract_y
_atom_site_fract_z
Bi1 Bi 0.552810(17) -0.193019(7) 1.439182(16)
O1 O 0.6111(3) -0.10498(13) 1.5581(3)
O2 O 0.6980(4) -0.28698(14) 1.4813(4)
O3 O 0.7770(4) -0.04895(15) 1.7231(4)
O4 O 0.8748(4) -0.34122(14) 1.6453(4)
O5 O 0.3952(4) -0.12880(16) 1.2400(4)
O6 O 0.4941(3) -0.23637(14) 1.6281(3)
O7 O 0.1897(3) -0.07319(15) 1.1434(3)
O8 O 0.3550(4) -0.23668(15) 1.7681(4)
O9 O 0.7444(4) -0.13691(15) 1.3525(4)
H1 H 0.7039 -0.1078 1.3011
H2 H 0.8235 -0.1464 1.3357
N1 N 0.7928(4) -0.19504(15) 1.6514(4)
N2 N 0.3185(4) -0.15528(15) 1.4605(4)
C1 C 0.7356(5) -0.09566(19) 1.6671(5)
C2 C 0.8347(5) -0.14704(19) 1.7294(5)
C3 C 0.9637(5) -0.1459(2) 1.8559(5)
H10 H 0.9937 -0.1122 1.9089
C4 C 1.0464(5) -0.1954(2) 1.9016(5)
H11 H 1.1321 -0.1958 1.9874
C5 C 1.0020(5) -0.2444(2) 1.8199(5)
H12 H 1.0580 -0.2781 1.8487
C6 C 0.8723(5) -0.24267(18) 1.6939(5)
C7 C 0.8105(5) -0.29447(19) 1.5985(5)
C8 C 0.2748(5) -0.10383(19) 1.2407(5)
C9 C 0.2370(5) -0.11399(19) 1.3732(5)
C10 C 0.1267(5) -0.0835(2) 1.4023(5)
H13 H 0.0732 -0.0540 1.3418
C11 C 0.0975(5) -0.0983(2) 1.5256(5)
H14 H 0.0242 -0.0784 1.5490
C12 C 0.1769(5) -0.1421(2) 1.6113(5)
H15 H 0.1564 -0.1531 1.6921
C13 C 0.2888(5) -0.1701(2) 1.5763(4)
C14 C 0.3863(5) -0.2182(2) 1.6654(5)
Bi1C Bi 0.552810(17) -0.306981(7) 1.939182(16)
O8C O 0.3550(4) -0.26332(15) 1.2681(4)
N3 N 0.6811(4) 0.04424(16) 1.0465(4)
H3 H 0.7037 0.0475 0.9666
N4 N 0.6856(4) -0.02450(16) 1.2196(4)
N5 N 0.5374(4) 0.06224(16) 1.1893(4)
N6 N 0.8104(4) -0.03998(18) 1.0631(4)
H4 H 0.8230 -0.0775 1.0856
H5 H 0.8445 -0.0356 0.9902
N7 N 0.5467(5) -0.0034(2) 1.3595(5)
H6 H 0.5980 -0.0284 1.4297
H7 H 0.4832 0.0208 1.3803
N8 N 0.5389(5) 0.12643(17) 1.0165(4)
H8 H 0.5557 0.1355 0.9357
H9 H 0.4649 0.1469 1.0312
C15 C 0.7253(5) -0.00785(19) 1.1110(5)
C16 C 0.5916(5) 0.01188(19) 1.2534(5)
C17 C 0.5839(5) 0.0775(2) 1.0865(5)
loop_
_geom_bond_atom_site_label_1
_geom_bond_atom_site_label_2
_geom_bond_site_symmetry_1
_geom_bond_site_symmetry_2
Bi1 O1 1_555 1_555
O1 C1 1_555 1_555
O2 Bi1 1_555 1_555
O3 C1 1_555 1_555
O4 C7 1_555 1_555
O5 Bi1 1_555 1_555
O6 Bi1 1_555 1_555
O7 C8 1_555 1_555
O8 C14 1_555 1_555
O9 Bi1 1_555 1_555
H1 O9 1_555 1_555
H2 O9 1_555 1_555
N1 Bi1 1_555 1_555
N2 Bi1 1_555 1_555
N3 H3 1_555 1_555
N4 C15 1_555 1_555
N5 C16 1_555 1_555
N6 H4 1_555 1_555
H5 N6 1_555 1_555
N7 H6 1_555 1_555
H7 N7 1_555 1_555
N8 H8 1_555 1_555
H9 N8 1_555 1_555
C1 C2 1_555 1_555
C2 N1 1_555 1_555
C3 C2 1_555 1_555
H10 C3 1_555 1_555
C4 C3 1_555 1_555
H11 C4 1_555 1_555
C5 C4 1_555 1_555
H12 C5 1_555 1_555
C6 N1 1_555 1_555
C7 O2 1_555 1_555
C8 O5 1_555 1_555
C9 N2 1_555 1_555
C10 C9 1_555 1_555
H13 C10 1_555 1_555
C11 C10 1_555 1_555
H14 C11 1_555 1_555
C12 C11 1_555 1_555
H15 C12 1_555 1_555
C13 N2 1_555 1_555
C14 O6 1_555 1_555
C15 N3 1_555 1_555
C16 N4 1_555 1_555
C17 N3 1_555 1_555
Bi1C O8 1_555 1_555
O8C Bi1 1_555 1_555
N5 C17 1_555 1_555
N6 C15 1_555 1_555
N7 C16 1_555 1_555
N8 C17 1_555 1_555
C5 C6 1_555 1_555
C6 C7 1_555 1_555
C8 C9 1_555 1_555
C12 C13 1_555 1_555
C13 C14 1_555 1_555

#END
