
#######################################################################
#
#                 Cambridge Crystallographic Data Centre
#                                CCDC 
#
#######################################################################
#
# If this CIF has been generated from an entry in the Cambridge 
# Structural Database, then it will include bibliographic, chemical, 
# crystal, experimental, refinement or atomic coordinate data resulting 
# from the CCDC's data processing and validation procedures.
#
#######################################################################

data_YIDPOS
_symmetry_cell_setting           rhombohedral
_symmetry_space_group_name_H-M   'R 3 c'
_symmetry_Int_Tables_number      161
_space_group_name_Hall           'R 3 -2"c'
loop_
_symmetry_equiv_pos_site_id
_symmetry_equiv_pos_as_xyz
1 x,y,z
2 -y,x-y,z
3 -x+y,-x,z
4 -y,-x,1/2+z
5 x,x-y,1/2+z
6 -x+y,y,1/2+z
7 2/3+x,1/3+y,1/3+z
8 2/3-y,1/3+x-y,1/3+z
9 2/3-x+y,1/3-x,1/3+z
10 2/3-y,1/3-x,5/6+z
11 2/3+x,1/3+x-y,5/6+z
12 2/3-x+y,1/3+y,5/6+z
13 1/3+x,2/3+y,2/3+z
14 1/3-y,2/3+x-y,2/3+z
15 1/3-x+y,2/3-x,2/3+z
16 1/3-y,2/3-x,1/6+z
17 1/3+x,2/3+x-y,1/6+z
18 1/3-x+y,2/3+y,1/6+z
_cell_length_a                   23.8731(5)
_cell_length_b                   23.8731(5)
_cell_length_c                   13.8236(5)
_cell_angle_alpha                90
_cell_angle_beta                 90
_cell_angle_gamma                120
_cell_volume                     6822.91
loop_
_atom_site_label
_atom_site_type_symbol
_atom_site_fract_x
_atom_site_fract_y
_atom_site_fract_z
Mn1 Mn 1.00100(4) 0.44370(3) 0.35129(8)
O1 O 0.9854(3) 0.3911(3) 0.4865(4)
O2 O 1.0143(2) 0.3704(2) 0.2724(3)
O3 O 1.0099(3) 0.4836(3) 0.2047(3)
O4 O 0.9964(3) 0.5257(3) 0.3994(5)
N1 N 0.8929(2) 0.3809(2) 0.3412(4)
N2 N 1.1076(2) 0.4896(2) 0.3855(4)
C1 C 0.8633(3) 0.3156(3) 0.3290(6)
H1 H 0.8846 0.2919 0.3274
C2 C 0.8462(3) 0.3946(3) 0.3388(4)
H2 H 0.8526 0.4362 0.3445
N3 N 0.7874(2) 0.3411(2) 0.3271(4)
C3 C 0.7997(3) 0.2903(3) 0.3197(6)
H3 H 0.7693 0.2469 0.3101
C4 C 0.7255(2) 0.3366(3) 0.3247(4)
C5 C 0.6705(3) 0.2772(2) 0.3237(4)
H4 H 0.6730 0.2395 0.3223
C6 C 1.1363(3) 0.4533(3) 0.4118(5)
H5 H 1.1144 0.4087 0.4203
C7 C 1.1548(3) 0.5493(3) 0.3823(4)
H6 H 1.1496 0.5845 0.3676
C8 C 1.1999(3) 0.4924(3) 0.4229(5)
H7 H 1.2300 0.4803 0.4406
C9 C 1.2740(2) 0.6114(2) 0.4045(4)
C10 C 1.2765(2) 0.6705(3) 0.4039(4)
H8 H 1.2390 0.6731 0.4032
N4 N 1.2123(2) 0.5540(2) 0.4030(4)
H9 H 0.976(3) 0.545(3) 0.381(4)
H10 H 0.959(3) 0.395(3) 0.528(5)
H11 H 0.982(3) 0.494(3) 0.203(5)
H12 H 1.022(3) 0.356(3) 0.307(4)
H13 H 1.052(3) 0.393(3) 0.237(4)
H14 H 1.006(3) 0.384(3) 0.524(5)
H15 H 1.021(3) 0.551(3) 0.438(4)
H16 H 1.021(3) 0.478(4) 0.165(5)
N1A N 0.6191(2) 0.5120(3) 0.3412(4)
C1A C 0.6844(3) 0.5477(4) 0.3290(6)
H1A H 0.7081 0.5927 0.3274
C2A C 0.6054(3) 0.4516(4) 0.3388(4)
H2A H 0.5638 0.4164 0.3445
N3A N 0.6589(2) 0.4463(3) 0.3271(4)
C3A C 0.7097(3) 0.5094(4) 0.3197(6)
H3A H 0.7531 0.5224 0.3101
C4A C 0.6634(3) 0.3889(4) 0.3247(4)
C5A C 0.7228(2) 0.3933(4) 0.3237(4)
H4A H 0.7605 0.4335 0.3223
N1B N 0.4880(3) 0.1071(2) 0.3412(4)
C1B C 0.4523(4) 0.1367(3) 0.3290(6)
H1B H 0.4073 0.1154 0.3274
C2B C 0.5484(4) 0.1538(3) 0.3388(4)
H2B H 0.5836 0.1474 0.3445
N3B N 0.5537(3) 0.2126(2) 0.3271(4)
C3B C 0.4906(4) 0.2003(3) 0.3197(6)
H3B H 0.4776 0.2307 0.3101
C4B C 0.6111(4) 0.2745(2) 0.3247(4)
C5B C 0.6067(4) 0.3295(3) 0.3237(4)
H4B H 0.5665 0.3270 0.3223
N2A N 1.5104(2) 0.6180(3) 0.3855(4)
C6A C 1.5467(3) 0.6830(4) 0.4118(5)
H5A H 1.5913 0.7057 0.4203
C7A C 1.4507(3) 0.6055(4) 0.3823(4)
H6A H 1.4155 0.5651 0.3676
C8A C 1.5076(3) 0.7075(4) 0.4229(5)
H7A H 1.5197 0.7497 0.4406
C9A C 1.3886(2) 0.6626(3) 0.4045(4)
C10A C 1.3295(3) 0.6060(4) 0.4039(4)
H8A H 1.3269 0.5659 0.4032
N4A N 1.4460(2) 0.6583(3) 0.4030(4)
N2B N 1.3820(3) 0.8924(2) 0.3855(4)
C6B C 1.3170(4) 0.8637(3) 0.4118(5)
H5B H 1.2943 0.8856 0.4203
C7B C 1.3945(4) 0.8452(3) 0.3823(4)
H6B H 1.4349 0.8504 0.3676
C8B C 1.2925(4) 0.8001(3) 0.4229(5)
H7B H 1.2503 0.7700 0.4406
C9B C 1.3374(3) 0.7260(2) 0.4045(4)
C10B C 1.3940(4) 0.7235(2) 0.4039(4)
H8B H 1.4341 0.7610 0.4032
N4B N 1.3417(3) 0.7877(2) 0.4030(4)
Mn1A Mn 0.55630(3) 0.55730(5) 0.35129(8)
O1A O 0.6089(3) 0.5943(4) 0.4865(4)
O2A O 0.6296(2) 0.6439(3) 0.2724(3)
O3A O 0.5164(3) 0.5263(4) 0.2047(3)
O4A O 0.4743(3) 0.4707(4) 0.3994(5)
H9A H 0.455(3) 0.431(4) 0.381(4)
H10A H 0.605(3) 0.564(4) 0.528(5)
H11A H 0.506(3) 0.488(4) 0.203(5)
H12A H 0.644(3) 0.666(4) 0.307(4)
H13A H 0.607(3) 0.659(4) 0.237(4)
H14A H 0.616(3) 0.622(4) 0.524(5)
H15A H 0.449(3) 0.470(4) 0.438(4)
H16A H 0.522(4) 0.543(5) 0.165(5)
Mn1B Mn 0.44270(5) -0.00100(4) 0.35129(8)
O1B O 0.4057(4) 0.0146(3) 0.4865(4)
O2B O 0.3561(3) -0.0143(2) 0.2724(3)
O3B O 0.4737(4) -0.0099(3) 0.2047(3)
O4B O 0.5293(4) 0.0036(3) 0.3994(5)
H9B H 0.569(4) 0.024(3) 0.381(4)
H10B H 0.436(4) 0.041(3) 0.528(5)
H11B H 0.512(4) 0.018(3) 0.203(5)
H12B H 0.334(4) -0.022(3) 0.307(4)
H13B H 0.341(4) -0.052(3) 0.237(4)
H14B H 0.378(4) -0.006(3) 0.524(5)
H15B H 0.530(4) -0.021(3) 0.438(4)
H16B H 0.457(5) -0.021(3) 0.165(5)
Mn1A_2 Mn 1.55630(3) 0.55730(5) 0.35129(8)
Mn1B_2 Mn 1.44270(5) 0.99900(4) 0.35129(8)
N2A_2 N 0.5104(2) 0.6180(3) 0.3855(4)
N2B_2 N 0.3820(3) -0.1076(2) 0.3855(4)
S1 S 0.56507(6) 0.89191(6) 0.55388(11)
O5 O 0.5759(2) 0.9581(2) 0.5403(3)
O6 O 0.5030(3) 0.8428(3) 0.5190(6)
O7 O 0.5705(3) 0.8811(2) 0.6575(4)
O8 O 0.6150(3) 0.8858(3) 0.5039(5)
loop_
_geom_bond_atom_site_label_1
_geom_bond_atom_site_label_2
_geom_bond_site_symmetry_1
_geom_bond_site_symmetry_2
Mn1 O1 1_555 1_555
O1 H10 1_555 1_555
O2 Mn1 1_555 1_555
O3 Mn1 1_555 1_555
O4 Mn1 1_555 1_555
N1 Mn1 1_555 1_555
N2 Mn1 1_555 1_555
C1 N1 1_555 1_555
H1 C1 1_555 1_555
C2 N1 1_555 1_555
H2 C2 1_555 1_555
N3 C2 1_555 1_555
C3 C1 1_555 1_555
H3 C3 1_555 1_555
C4 N3 1_555 1_555
C5 C4 1_555 1_555
H4 C5 1_555 1_555
C6 N2 1_555 1_555
H5 C6 1_555 1_555
C7 N2 1_555 1_555
H6 C7 1_555 1_555
C8 C6 1_555 1_555
H7 C8 1_555 1_555
C9 C10 1_555 1_555
C10 H8 1_555 1_555
N4 C7 1_555 1_555
H9 O4 1_555 1_555
H11 O3 1_555 1_555
H12 O2 1_555 1_555
H13 O2 1_555 1_555
H14 O1 1_555 1_555
H15 O4 1_555 1_555
H16 O3 1_555 1_555
S1 O5 1_555 1_555
O6 S1 1_555 1_555
O7 S1 1_555 1_555
O8 S1 1_555 1_555
N1A C1A 1_555 1_555
C1A H1A 1_555 1_555
C2A N1A 1_555 1_555
H2A C2A 1_555 1_555
N3A C2A 1_555 1_555
C3A C1A 1_555 1_555
H3A C3A 1_555 1_555
C4A N3A 1_555 1_555
C5A C4 1_555 1_555
H4A C5A 1_555 1_555
N1B C1B 1_555 1_555
C1B H1B 1_555 1_555
C2B N1B 1_555 1_555
H2B C2B 1_555 1_555
N3B C2B 1_555 1_555
C3B C1B 1_555 1_555
H3B C3B 1_555 1_555
C4B C5 1_555 1_555
C5B C4A 1_555 1_555
H4B C5B 1_555 1_555
N2A C6A 1_555 1_555
C6A H5A 1_555 1_555
C7A N2A 1_555 1_555
H6A C7A 1_555 1_555
C8A C6A 1_555 1_555
H7A C8A 1_555 1_555
C9A C10A 1_555 1_555
C10A C9 1_555 1_555
H8A C10A 1_555 1_555
N4A C7A 1_555 1_555
N2B C6B 1_555 1_555
C6B H5B 1_555 1_555
C7B N2B 1_555 1_555
H6B C7B 1_555 1_555
C8B C6B 1_555 1_555
H7B C8B 1_555 1_555
C9B C10 1_555 1_555
C10B C9A 1_555 1_555
H8B C10B 1_555 1_555
N4B C7B 1_555 1_555
Mn1A N1A 1_555 1_555
O1A Mn1A 1_555 1_555
O2A Mn1A 1_555 1_555
O3A Mn1A 1_555 1_555
O4A Mn1A 1_555 1_555
H9A O4A 1_555 1_555
H10A O1A 1_555 1_555
H11A O3A 1_555 1_555
H12A O2A 1_555 1_555
H13A O2A 1_555 1_555
H14A O1A 1_555 1_555
H15A O4A 1_555 1_555
H16A O3A 1_555 1_555
Mn1B N1B 1_555 1_555
O1B Mn1B 1_555 1_555
O2B Mn1B 1_555 1_555
O3B Mn1B 1_555 1_555
O4B Mn1B 1_555 1_555
H9B O4B 1_555 1_555
H10B O1B 1_555 1_555
H11B O3B 1_555 1_555
H12B O2B 1_555 1_555
H13B O2B 1_555 1_555
H14B O1B 1_555 1_555
H15B O4B 1_555 1_555
H16B O3B 1_555 1_555
Mn1A_2 N2A 1_555 1_555
Mn1B_2 N2B 1_555 1_555
N2A_2 Mn1A 1_555 1_555
N2B_2 Mn1B 1_555 1_555
N3 C3 1_555 1_555
C8 N4 1_555 1_555
C9 N4 1_555 1_555
N3A C3A 1_555 1_555
C4A C5A 1_555 1_555
N3B C3B 1_555 1_555
N3B C4B 1_555 1_555
C4B C5B 1_555 1_555
C8A N4A 1_555 1_555
C9A N4A 1_555 1_555
C8B N4B 1_555 1_555
C9B C10B 1_555 1_555
C9B N4B 1_555 1_555

#END
