
#######################################################################
#
#                 Cambridge Crystallographic Data Centre
#                                CCDC 
#
#######################################################################
#
# If this CIF has been generated from an entry in the Cambridge 
# Structural Database, then it will include bibliographic, chemical, 
# crystal, experimental, refinement or atomic coordinate data resulting 
# from the CCDC's data processing and validation procedures.
#
#######################################################################

data_YIDQOS
_symmetry_cell_setting           triclinic
_symmetry_space_group_name_H-M   'P -1'
_symmetry_Int_Tables_number      2
_space_group_name_Hall           '-P 1'
loop_
_symmetry_equiv_pos_site_id
_symmetry_equiv_pos_as_xyz
1 x,y,z
2 -x,-y,-z
_cell_length_a                   5.3979(17)
_cell_length_b                   8.806(3)
_cell_length_c                   14.018(4)
_cell_angle_alpha                87.988(5)
_cell_angle_beta                 84.165(5)
_cell_angle_gamma                84.475(5)
_cell_volume                     659.583
loop_
_atom_site_label
_atom_site_type_symbol
_atom_site_fract_x
_atom_site_fract_y
_atom_site_fract_z
Ni1 Ni 0.88487(9) 0.54655(5) 0.74751(3)
Cl1 Cl 1.0080(2) 0.70646(11) 0.62712(7)
Cl2 Cl 1.1490(2) 0.42178(12) 0.84309(7)
N1 N 0.7275(6) 0.3808(3) 0.6836(2)
N2 N 0.6308(6) 0.6763(4) 0.8355(2)
C1 C 0.5435(8) 0.4129(4) 0.6284(3)
H1 H 0.4844 0.5148 0.6205
C2 C 0.4336(8) 0.3063(5) 0.5819(3)
H2 H 0.3057 0.3359 0.5435
C3 C 0.5183(8) 0.1532(5) 0.5935(3)
C4 C 0.7074(9) 0.1187(5) 0.6504(3)
H3 H 0.7696 0.0175 0.6592
C5 C 0.8075(9) 0.2329(5) 0.6952(3)
H4 H 0.9343 0.2062 0.7346
C6 C 0.4100(9) 0.0308(5) 0.5416(3)
H5 H 0.2548 0.0729 0.5177
H6 H 0.3724 -0.0523 0.5864
C7 C 0.4599(9) 0.7752(5) 0.7981(3)
H7 H 0.4614 0.7852 0.7317
C8 C 0.2811(9) 0.8629(6) 0.8555(3)
H8 H 0.1651 0.9306 0.8274
C9 C 0.2740(8) 0.8505(5) 0.9545(3)
C10 C 0.4500(9) 0.7474(5) 0.9904(3)
H9 H 0.4521 0.7342 1.0565
C11 C 0.6215(9) 0.6641(5) 0.9308(3)
H10 H 0.7379 0.5953 0.9578
C12 C 0.0849(9) 0.9404(5) 1.0231(3)
H11 H -0.0171 0.8695 1.0596
H12 H 0.1743 0.9897 1.0681
Ni1A Ni 0.11513(9) -0.54655(5) 0.25249(3)
Ni1A_2 Ni -0.88487(9) 1.45345(5) 1.25249(3)
Cl1A Cl -0.0080(2) -0.70646(11) 0.37288(7)
Cl2A Cl -0.1490(2) -0.42178(12) 0.15691(7)
N1A N 0.2725(6) -0.3808(3) 0.3164(2)
N2A N -0.6308(6) 1.3237(4) 1.1645(2)
N2A_2 N 0.3692(6) -0.6763(4) 0.1645(2)
C1A C 0.4565(8) -0.4129(4) 0.3716(3)
H1A H 0.5156 -0.5148 0.3795
C2A C 0.5664(8) -0.3063(5) 0.4181(3)
H2A H 0.6943 -0.3359 0.4565
C3A C 0.4817(8) -0.1532(5) 0.4065(3)
C4A C 0.2926(9) -0.1187(5) 0.3496(3)
H3A H 0.2304 -0.0175 0.3408
C5A C 0.1925(9) -0.2329(5) 0.3048(3)
H4A H 0.0657 -0.2062 0.2654
C6A C 0.5900(9) -0.0308(5) 0.4584(3)
H5A H 0.7452 -0.0729 0.4823
H6A H 0.6276 0.0523 0.4136
C7A C -0.4599(9) 1.2248(5) 1.2019(3)
H7A H -0.4614 1.2148 1.2683
C8A C -0.2811(9) 1.1371(6) 1.1445(3)
H8A H -0.1651 1.0694 1.1726
C9A C -0.2740(8) 1.1495(5) 1.0455(3)
C10A C -0.4500(9) 1.2526(5) 1.0096(3)
H9A H -0.4521 1.2658 0.9435
C11A C -0.6215(9) 1.3359(5) 1.0692(3)
H10A H -0.7379 1.4047 1.0422
C12A C -0.0849(9) 1.0596(5) 0.9769(3)
H11A H 0.0171 1.1305 0.9404
H12A H -0.1743 1.0103 0.9319
loop_
_geom_bond_atom_site_label_1
_geom_bond_atom_site_label_2
_geom_bond_site_symmetry_1
_geom_bond_site_symmetry_2
Ni1 Cl1 1_555 1_555
Cl2 Ni1 1_555 1_555
N1 Ni1 1_555 1_555
N2 Ni1 1_555 1_555
C1 N1 1_555 1_555
H1 C1 1_555 1_555
C2 C1 1_555 1_555
H2 C2 1_555 1_555
C3 C2 1_555 1_555
C4 C3 1_555 1_555
H3 C4 1_555 1_555
C5 N1 1_555 1_555
H4 C5 1_555 1_555
C6 C3 1_555 1_555
H5 C6 1_555 1_555
H6 C6 1_555 1_555
C7 N2 1_555 1_555
H7 C7 1_555 1_555
C8 C7 1_555 1_555
H8 C8 1_555 1_555
C9 C8 1_555 1_555
C10 C9 1_555 1_555
H9 C10 1_555 1_555
C11 N2 1_555 1_555
H10 C11 1_555 1_555
C12 C9 1_555 1_555
H11 C12 1_555 1_555
H12 C12 1_555 1_555
Ni1A Cl1A 1_555 1_555
Ni1A_2 N2A 1_555 1_555
Cl2A Ni1A 1_555 1_555
N1A Ni1A 1_555 1_555
N2A C7A 1_555 1_555
N2A_2 Ni1A 1_555 1_555
C1A N1A 1_555 1_555
H1A C1A 1_555 1_555
C2A C1A 1_555 1_555
H2A C2A 1_555 1_555
C3A C2A 1_555 1_555
C4A C3A 1_555 1_555
H3A C4A 1_555 1_555
C5A N1A 1_555 1_555
H4A C5A 1_555 1_555
C6A C6 1_555 1_555
H5A C6A 1_555 1_555
H6A C6A 1_555 1_555
C7A H7A 1_555 1_555
C8A C7A 1_555 1_555
H8A C8A 1_555 1_555
C9A C8A 1_555 1_555
C10A C9A 1_555 1_555
H9A C10A 1_555 1_555
C11A N2A 1_555 1_555
H10A C11A 1_555 1_555
C12A C12 1_555 1_555
H11A C12A 1_555 1_555
H12A C12A 1_555 1_555
C4 C5 1_555 1_555
C10 C11 1_555 1_555
C3A C6A 1_555 1_555
C4A C5A 1_555 1_555
C9A C12A 1_555 1_555
C10A C11A 1_555 1_555

#END
