
#######################################################################
#
#                 Cambridge Crystallographic Data Centre
#                                CCDC 
#
#######################################################################
#
# If this CIF has been generated from an entry in the Cambridge 
# Structural Database, then it will include bibliographic, chemical, 
# crystal, experimental, refinement or atomic coordinate data resulting 
# from the CCDC's data processing and validation procedures.
#
#######################################################################

data_YIDSAF01
_symmetry_cell_setting           tetragonal
_symmetry_space_group_name_H-M   'I 41/a c d'
_symmetry_Int_Tables_number      142
_space_group_name_Hall           '-I 4bd 2c'
loop_
_symmetry_equiv_pos_site_id
_symmetry_equiv_pos_as_xyz
1 x,y,z
2 1/4-y,3/4+x,1/4+z
3 1/4+y,1/4-x,3/4+z
4 1/4+y,3/4+x,3/4-z
5 1/4-y,1/4-x,1/4-z
6 1/2+x,1/2+y,1/2+z
7 3/4-y,1/4+x,3/4+z
8 3/4+y,3/4-x,1/4+z
9 3/4+y,1/4+x,1/4-z
10 1/2-x,-y,1/2+z
11 1/2-x,y,-z
12 x,-y,1/2-z
13 -x,1/2-y,z
14 -x,1/2+y,1/2-z
15 1/2+x,1/2-y,-z
16 3/4-y,3/4-x,3/4-z
17 -x,-y,-z
18 3/4+y,1/4-x,3/4-z
19 3/4-y,3/4+x,1/4-z
20 3/4-y,1/4-x,1/4+z
21 3/4+y,3/4+x,3/4+z
22 1/2-x,1/2-y,1/2-z
23 1/4+y,3/4-x,1/4-z
24 1/4-y,1/4+x,3/4-z
25 1/4-y,3/4-x,3/4+z
26 1/2+x,y,1/2-z
27 1/2+x,-y,z
28 -x,y,1/2+z
29 x,1/2+y,-z
30 x,1/2-y,1/2+z
31 1/2-x,1/2+y,z
32 1/4+y,1/4+x,1/4+z
_cell_length_a                   14.2186(6)
_cell_length_b                   14.2186(6)
_cell_length_c                   38.611(2)
_cell_angle_alpha                90
_cell_angle_beta                 90
_cell_angle_gamma                90
_cell_volume                     7805.93
loop_
_atom_site_label
_atom_site_type_symbol
_atom_site_fract_x
_atom_site_fract_y
_atom_site_fract_z
Cu1 Cu 0.56677(3) 0.31983(2) 0.017464(8)
Cl1 Cl 0.39991(5) 0.34228(5) 0.03207(2)
N1 N 0.58895(14) 0.33698(14) -0.03288(6)
N2 N 0.62578(14) 0.39443(14) 0.05558(5)
C1 C 0.54668(17) 0.40580(18) -0.05072(6)
H1 H 0.5154 0.4525 -0.0384
C2 C 0.54717(17) 0.41095(17) -0.08631(6)
H2 H 0.5163 0.4601 -0.0974
C3 C 0.59360(15) 0.34294(15) -0.10572(6)
C4 C 0.64016(18) 0.27381(17) -0.08700(6)
H3 H 0.6741 0.2276 -0.0986
C5 C 0.6364(2) 0.27333(18) -0.05139(6)
H4 H 0.6685 0.2262 -0.0396
C6 C 0.67990(17) 0.46885(18) 0.05002(6)
H5 H 0.6890 0.4885 0.0273
C7 C 0.72338(16) 0.51872(17) 0.07615(6)
H6 H 0.7610 0.5703 0.0710
C8 C 0.71022(15) 0.49082(15) 0.11051(5)
C9 C 0.65186(17) 0.41387(16) 0.11633(6)
H7 H 0.6399 0.3935 0.1388
C10 C 0.61226(17) 0.36849(17) 0.08871(6)
H8 H 0.5739 0.3169 0.0931
Cu1L Cu 0.43323(3) 0.18017(2) 0.017464(8)
Cu1C Cu 0.56983(2) 0.31677(3) -0.267464(8)
Cu1D Cu 0.93017(2) 0.68323(3) 0.232536(8)
Cl1L Cl 0.60009(5) 0.15772(5) 0.03207(2)
N1C N 0.58698(14) 0.33895(14) -0.21712(6)
N1L N 0.41105(14) 0.16302(14) -0.03288(6)
N2D N 0.85557(14) 0.62422(14) 0.19442(5)
N2L N 0.37422(14) 0.10557(14) 0.05558(5)
C1C C 0.65580(18) 0.29668(17) -0.19928(6)
H1C H 0.7025 0.2654 -0.2116
C2C C 0.66095(17) 0.29717(17) -0.16369(6)
H2C H 0.7101 0.2663 -0.1526
C3C C 0.59294(15) 0.34360(15) -0.14428(6)
C4C C 0.52381(17) 0.39016(18) -0.16300(6)
H3C H 0.4776 0.4241 -0.1514
C5C C 0.52333(18) 0.3864(2) -0.19861(6)
H4C H 0.4762 0.4185 -0.2104
C6D C 0.78115(18) 0.57010(17) 0.19998(6)
H5D H 0.7615 0.5610 0.2227
C7D C 0.73128(17) 0.52662(16) 0.17385(6)
H6D H 0.6797 0.4890 0.1790
C8D C 0.75918(15) 0.53978(15) 0.13949(5)
C9D C 0.83613(16) 0.59814(17) 0.13367(6)
H7D H 0.8565 0.6101 0.1112
C10D C 0.88151(17) 0.63774(17) 0.16129(6)
H8D H 0.9331 0.6761 0.1569
loop_
_geom_bond_atom_site_label_1
_geom_bond_atom_site_label_2
_geom_bond_site_symmetry_1
_geom_bond_site_symmetry_2
Cu1 Cl1 1_555 1_555
Cl1 Cu1L 1_555 1_555
N1 Cu1 1_555 1_555
N2 Cu1 1_555 1_555
C1 N1 1_555 1_555
H1 C1 1_555 1_555
C2 C1 1_555 1_555
H2 C2 1_555 1_555
C3 C2 1_555 1_555
C4 C3 1_555 1_555
H3 C4 1_555 1_555
C5 N1 1_555 1_555
H4 C5 1_555 1_555
C6 N2 1_555 1_555
H5 C6 1_555 1_555
C7 C6 1_555 1_555
H6 C7 1_555 1_555
C8 C7 1_555 1_555
C9 C8 1_555 1_555
H7 C9 1_555 1_555
C10 N2 1_555 1_555
H8 C10 1_555 1_555
Cu1L Cl1L 1_555 1_555
Cu1C N1C 1_555 1_555
Cu1D N2D 1_555 1_555
Cl1L Cu1 1_555 1_555
N1C C1C 1_555 1_555
N1L Cu1L 1_555 1_555
N2D C6D 1_555 1_555
N2L Cu1L 1_555 1_555
C1C H1C 1_555 1_555
C2C C1C 1_555 1_555
H2C C2C 1_555 1_555
C3C C3 1_555 1_555
C4C C3C 1_555 1_555
H3C C4C 1_555 1_555
C5C N1C 1_555 1_555
H4C C5C 1_555 1_555
C6D H5D 1_555 1_555
C7D C6D 1_555 1_555
H6D C7D 1_555 1_555
C8D C8 1_555 1_555
C9D C8D 1_555 1_555
H7D C9D 1_555 1_555
C10D N2D 1_555 1_555
H8D C10D 1_555 1_555
C4 C5 1_555 1_555
C9 C10 1_555 1_555
C2C C3C 1_555 1_555
C4C C5C 1_555 1_555
C7D C8D 1_555 1_555
C9D C10D 1_555 1_555

#END
