
#######################################################################
#
#                 Cambridge Crystallographic Data Centre
#                                CCDC 
#
#######################################################################
#
# If this CIF has been generated from an entry in the Cambridge 
# Structural Database, then it will include bibliographic, chemical, 
# crystal, experimental, refinement or atomic coordinate data resulting 
# from the CCDC's data processing and validation procedures.
#
#######################################################################

data_YIDSAF02
_symmetry_cell_setting           tetragonal
_symmetry_space_group_name_H-M   'I 41/a c d'
_symmetry_Int_Tables_number      142
_space_group_name_Hall           '-I 4bd 2c'
loop_
_symmetry_equiv_pos_site_id
_symmetry_equiv_pos_as_xyz
1 x,y,z
2 1/2-x,-y,1/2+z
3 1/4-y,3/4+x,1/4+z
4 1/4+y,1/4-x,3/4+z
5 1/2-x,y,-z
6 x,-y,1/2-z
7 1/4+y,3/4+x,3/4-z
8 1/4-y,1/4-x,1/4-z
9 1/2+x,1/2+y,1/2+z
10 -x,1/2-y,z
11 3/4-y,1/4+x,3/4+z
12 3/4+y,3/4-x,1/4+z
13 -x,1/2+y,1/2-z
14 1/2+x,1/2-y,-z
15 3/4+y,1/4+x,1/4-z
16 3/4-y,3/4-x,3/4-z
17 -x,-y,-z
18 1/2+x,y,1/2-z
19 3/4+y,1/4-x,3/4-z
20 3/4-y,3/4+x,1/4-z
21 1/2+x,-y,z
22 -x,y,1/2+z
23 3/4-y,1/4-x,1/4+z
24 3/4+y,3/4+x,3/4+z
25 1/2-x,1/2-y,1/2-z
26 x,1/2+y,-z
27 1/4+y,3/4-x,1/4-z
28 1/4-y,1/4+x,3/4-z
29 x,1/2-y,1/2+z
30 1/2-x,1/2+y,z
31 1/4-y,3/4-x,3/4+z
32 1/4+y,1/4+x,1/4+z
_cell_length_a                   13.9599(4)
_cell_length_b                   13.9599(4)
_cell_length_c                   38.8988(18)
_cell_angle_alpha                90
_cell_angle_beta                 90
_cell_angle_gamma                90
_cell_volume                     7580.55
loop_
_atom_site_label
_atom_site_type_symbol
_atom_site_fract_x
_atom_site_fract_y
_atom_site_fract_z
Cu1 Cu 0.43248(2) 0.322249(19) 0.516195(7)
Cl1 Cl 0.39889(3) 0.15683(3) 0.530709(11)
N1 N 0.41142(11) 0.33782(11) 0.46637(4)
N2 N 0.37300(11) 0.39394(11) 0.55479(4)
C1 C 0.36406(13) 0.27084(13) 0.44818(5)
H1 H 0.3317 0.2213 0.4603
C2 C 0.36049(13) 0.27098(13) 0.41269(5)
H2 H 0.3264 0.2221 0.4009
C3 C 0.40689(12) 0.34288(13) 0.39409(5)
C4 C 0.45367(13) 0.41347(13) 0.41315(5)
H3 H 0.4852 0.4647 0.4018
C5 C 0.45399(13) 0.40860(13) 0.44863(5)
H4 H 0.4859 0.4577 0.4611
C6 C 0.38713(13) 0.36506(13) 0.58736(5)
H5 H 0.4264 0.3105 0.5912
C7 C 0.34755(13) 0.41055(13) 0.61554(5)
H6 H 0.3603 0.3880 0.6381
C8 C 0.28854(12) 0.49016(12) 0.61042(4)
C9 C 0.27430(12) 0.52058(13) 0.57659(5)
H7 H 0.2351 0.5747 0.5719
C10 C 0.31760(13) 0.47137(13) 0.54996(5)
H8 H 0.3077 0.4934 0.5271
N1O N 0.41218(11) 0.33858(11) 0.28363(4)
C1O C 0.47916(13) 0.38594(13) 0.30182(5)
H1O H 0.5287 0.4183 0.2897
C2O C 0.47902(13) 0.38951(13) 0.33731(5)
H2O H 0.5279 0.4236 0.3491
C3O C 0.40712(13) 0.34311(12) 0.35591(5)
C4O C 0.33653(13) 0.29633(13) 0.33685(5)
H3O H 0.2853 0.2648 0.3482
C5O C 0.34140(13) 0.29601(13) 0.30137(5)
H4O H 0.2923 0.2641 0.2889
N2N N 0.14394(11) 0.62300(11) 0.69521(4)
C6N C 0.11506(13) 0.63713(13) 0.66264(5)
H5N H 0.0605 0.6764 0.6588
C7N C 0.16055(13) 0.59755(13) 0.63446(5)
H6N H 0.1380 0.6103 0.6119
C8N C 0.24016(12) 0.53854(12) 0.63958(4)
C9N C 0.27058(13) 0.52430(12) 0.67341(5)
H7N H 0.3247 0.4851 0.6781
C10N C 0.22137(13) 0.56760(13) 0.70004(5)
H8N H 0.2434 0.5577 0.7229
Cu1I Cu 0.56752(2) 0.177751(19) 0.516195(7)
Cl1I Cl 0.60111(3) 0.34317(3) 0.530709(11)
Cu1N Cu 0.072249(19) 0.68248(2) 0.733805(7)
Cu1O Cu 0.427751(19) 0.31752(2) 0.233805(7)
N1I N 0.58858(11) 0.16218(11) 0.46637(4)
N2I N 0.62700(11) 0.10606(11) 0.55479(4)
loop_
_geom_bond_atom_site_label_1
_geom_bond_atom_site_label_2
_geom_bond_site_symmetry_1
_geom_bond_site_symmetry_2
Cu1 Cl1 1_555 1_555
Cl1 Cu1I 1_555 1_555
N1 Cu1 1_555 1_555
N2 Cu1 1_555 1_555
C1 N1 1_555 1_555
H1 C1 1_555 1_555
C2 C1 1_555 1_555
H2 C2 1_555 1_555
C3 C2 1_555 1_555
C4 C3 1_555 1_555
H3 C4 1_555 1_555
C5 N1 1_555 1_555
H4 C5 1_555 1_555
C6 N2 1_555 1_555
H5 C6 1_555 1_555
C7 C6 1_555 1_555
H6 C7 1_555 1_555
C8 C7 1_555 1_555
C9 C8 1_555 1_555
H7 C9 1_555 1_555
C10 N2 1_555 1_555
H8 C10 1_555 1_555
N1O C1O 1_555 1_555
C1O H1O 1_555 1_555
C2O C1O 1_555 1_555
H2O C2O 1_555 1_555
C3O C3 1_555 1_555
C4O C3O 1_555 1_555
H3O C4O 1_555 1_555
C5O N1O 1_555 1_555
H4O C5O 1_555 1_555
N2N C6N 1_555 1_555
C6N H5N 1_555 1_555
C7N C6N 1_555 1_555
H6N C7N 1_555 1_555
C8N C8 1_555 1_555
C9N C8N 1_555 1_555
H7N C9N 1_555 1_555
C10N N2N 1_555 1_555
H8N C10N 1_555 1_555
Cu1I Cl1I 1_555 1_555
Cl1I Cu1 1_555 1_555
Cu1N N2N 1_555 1_555
Cu1O N1O 1_555 1_555
N1I Cu1I 1_555 1_555
N2I Cu1I 1_555 1_555
C4 C5 1_555 1_555
C9 C10 1_555 1_555
C2O C3O 1_555 1_555
C4O C5O 1_555 1_555
C7N C8N 1_555 1_555
C9N C10N 1_555 1_555

#END
