
#######################################################################
#
#                 Cambridge Crystallographic Data Centre
#                                CCDC 
#
#######################################################################
#
# If this CIF has been generated from an entry in the Cambridge 
# Structural Database, then it will include bibliographic, chemical, 
# crystal, experimental, refinement or atomic coordinate data resulting 
# from the CCDC's data processing and validation procedures.
#
#######################################################################

data_YIDSUB
_symmetry_cell_setting           triclinic
_symmetry_space_group_name_H-M   'P -1'
_symmetry_Int_Tables_number      2
_space_group_name_Hall           '-P 1'
loop_
_symmetry_equiv_pos_site_id
_symmetry_equiv_pos_as_xyz
1 x,y,z
2 -x,-y,-z
_cell_length_a                   15.4101(16)
_cell_length_b                   18.9972(19)
_cell_length_c                   19.871(2)
_cell_angle_alpha                78.1710(10)
_cell_angle_beta                 70.0870(10)
_cell_angle_gamma                77.5160(10)
_cell_volume                     5285.13
loop_
_atom_site_label
_atom_site_type_symbol
_atom_site_fract_x
_atom_site_fract_y
_atom_site_fract_z
V1 V 0.79043(9) 0.61897(8) 0.35141(7)
V2 V 0.75610(9) 0.64995(8) 0.18446(7)
V3 V 0.68102(9) 0.82545(8) 0.18798(7)
V4 V 0.72761(10) 0.80481(8) 0.34949(7)
Mn1 Mn 0.95621(8) 0.50312(7) 0.43302(7)
Mn2 Mn 0.56769(8) 0.56447(7) 0.46311(6)
Mn3 Mn 0.94961(9) 0.53959(7) 0.07338(6)
Mn4 Mn 0.48766(9) 0.81219(7) 0.11545(7)
Mn5 Mn 0.85260(9) 0.93487(7) 0.07682(7)
Mn6 Mn 0.55402(9) 0.94649(7) 0.43734(7)
C1 C 0.7997(6) 0.5701(5) 0.5440(4)
H1 H 0.7434 0.5691 0.5813
C2 C 0.8389(6) 0.6367(5) 0.5227(4)
C3 C 0.7814(6) 0.7018(5) 0.5440(5)
H2 H 0.7196 0.7007 0.5724
C4 C 0.8149(7) 0.7667(6) 0.5235(5)
H3 H 0.7753 0.8098 0.5357
C5 C 0.9091(7) 0.7677(5) 0.4841(5)
H4 H 0.9324 0.8115 0.4709
C6 C 0.9685(6) 0.7037(5) 0.4644(5)
H5 H 1.0313 0.7051 0.4388
C7 C 0.9349(6) 0.6381(5) 0.4826(4)
C8 C 1.1065(6) 0.4205(5) 0.3302(4)
C9 C 1.1957(6) 0.4167(5) 0.2791(5)
H6 H 1.2256 0.4574 0.2647
C10 C 1.2403(7) 0.3532(6) 0.2498(5)
H7 H 1.2999 0.3516 0.2166
C11 C 1.1969(7) 0.2918(5) 0.2694(5)
H8 H 1.2277 0.2492 0.2502
C12 C 1.1076(7) 0.2948(5) 0.3179(5)
H9 H 1.0779 0.2541 0.3305
C13 C 1.0611(6) 0.3586(5) 0.3484(4)
C14 C 0.9663(6) 0.3587(5) 0.3966(4)
H10 H 0.9408 0.3162 0.4056
C15 C 0.8165(6) 0.4083(5) 0.4740(5)
H11 H 0.8080 0.3576 0.4885
H12 H 0.7739 0.4326 0.4470
C16 C 0.7961(6) 0.4444(5) 0.5405(5)
H13 H 0.7292 0.4557 0.5635
H14 H 0.8237 0.4126 0.5753
C17 C 0.5324(6) 0.7168(5) 0.4900(5)
H15 H 0.5228 0.7665 0.4733
C18 C 0.5426(6) 0.6957(5) 0.5606(4)
C19 C 0.5249(6) 0.7512(5) 0.6038(5)
H16 H 0.5110 0.7996 0.5846
C20 C 0.5280(7) 0.7343(5) 0.6736(5)
H17 H 0.5160 0.7710 0.7016
C21 C 0.5492(6) 0.6618(5) 0.7022(5)
H18 H 0.5506 0.6503 0.7497
C22 C 0.5683(6) 0.6067(5) 0.6608(4)
H19 H 0.5831 0.5587 0.6807
C23 C 0.5657(5) 0.6218(5) 0.5895(4)
C24 C 0.6236(6) 0.4252(5) 0.4087(4)
C25 C 0.6678(6) 0.3527(5) 0.4163(5)
H20 H 0.6732 0.3300 0.4612
C26 C 0.7040(6) 0.3143(5) 0.3573(5)
H21 H 0.7341 0.2664 0.3629
C27 C 0.6952(7) 0.3470(5) 0.2905(5)
H22 H 0.7189 0.3210 0.2515
C28 C 0.6516(7) 0.4179(5) 0.2816(5)
H23 H 0.6458 0.4394 0.2365
C29 C 0.6154(6) 0.4583(5) 0.3400(5)
C30 C 0.5613(6) 0.5301(5) 0.3284(5)
H24 H 0.5473 0.5437 0.2851
C31 C 0.4783(6) 0.6475(5) 0.3576(5)
H25 H 0.4132 0.6498 0.3868
H26 H 0.4818 0.6574 0.3070
C32 C 0.5232(6) 0.7014(5) 0.3756(4)
H27 H 0.5832 0.7068 0.3394
H28 H 0.4836 0.7487 0.3769
C33 C 1.0361(6) 0.5528(5) 0.1803(5)
H29 H 1.0426 0.5398 0.2263
C34 C 1.0855(6) 0.6089(5) 0.1334(5)
C35 C 1.1460(6) 0.6366(5) 0.1580(5)
H30 H 1.1505 0.6190 0.2041
C36 C 1.1982(7) 0.6890(6) 0.1150(5)
H31 H 1.2381 0.7062 0.1316
C37 C 1.1903(6) 0.7157(6) 0.0464(5)
H32 H 1.2249 0.7514 0.0174
C38 C 1.1320(6) 0.6902(5) 0.0206(5)
H33 H 1.1283 0.7087 -0.0256
C39 C 1.0783(6) 0.6368(5) 0.0630(5)
C40 C 0.8343(6) 0.5267(5) -0.0093(4)
C41 C 0.7942(6) 0.5625(5) -0.0634(5)
H34 H 0.8234 0.5977 -0.0987
C42 C 0.7115(6) 0.5458(6) -0.0647(5)
H35 H 0.6857 0.5702 -0.1008
C43 C 0.6666(6) 0.4931(6) -0.0129(5)
H36 H 0.6115 0.4820 -0.0145
C44 C 0.7048(6) 0.4576(5) 0.0407(5)
H37 H 0.6754 0.4218 0.0751
C45 C 0.7876(6) 0.4745(5) 0.0444(5)
C46 C 0.8246(6) 0.4338(5) 0.1013(5)
H38 H 0.7989 0.3928 0.1279
C47 C 0.9260(6) 0.4069(5) 0.1764(5)
H39 H 0.9859 0.3774 0.1566
H40 H 0.8823 0.3751 0.2075
C48 C 0.9359(6) 0.4621(5) 0.2184(5)
H41 H 0.8748 0.4835 0.2472
H42 H 0.9724 0.4386 0.2504
C49 C 0.5567(6) 0.6596(5) 0.0956(4)
H43 H 0.6007 0.6236 0.0718
C50 C 0.4738(6) 0.6377(5) 0.1490(4)
C51 C 0.4590(6) 0.5656(5) 0.1549(5)
H44 H 0.5025 0.5347 0.1243
C52 C 0.3813(6) 0.5400(5) 0.2051(5)
H45 H 0.3720 0.4925 0.2081
C53 C 0.3169(6) 0.5865(5) 0.2514(5)
H46 H 0.2648 0.5694 0.2857
C54 C 0.3286(6) 0.6579(5) 0.2474(5)
H47 H 0.2849 0.6876 0.2793
C55 C 0.4063(6) 0.6855(5) 0.1954(4)
C56 C 0.4454(6) 0.9642(5) 0.1304(4)
C57 C 0.3909(6) 1.0185(5) 0.1733(5)
H48 H 0.3315 1.0121 0.2044
C58 C 0.4255(7) 1.0814(5) 0.1694(5)
H49 H 0.3888 1.1165 0.1983
C59 C 0.5136(7) 1.0934(5) 0.1235(5)
H50 H 0.5367 1.1351 0.1224
C60 C 0.5661(6) 1.0417(5) 0.0794(5)
H51 H 0.6243 1.0500 0.0474
C61 C 0.5343(6) 0.9772(5) 0.0813(5)
C62 C 0.5925(6) 0.9280(5) 0.0304(5)
H52 H 0.6435 0.9444 -0.0061
C63 C 0.6381(6) 0.8156(5) -0.0209(4)
H53 H 0.6945 0.8357 -0.0496
H54 H 0.6052 0.8107 -0.0531
C64 C 0.6627(6) 0.7415(5) 0.0218(5)
H55 H 0.6873 0.7044 -0.0098
H56 H 0.7092 0.7435 0.0439
C65 C 0.9178(6) 0.7912(5) 0.0309(5)
H57 H 0.9377 0.7416 0.0421
C66 C 0.8918(6) 0.8146(5) -0.0338(5)
C67 C 0.9039(6) 0.7617(5) -0.0785(5)
H58 H 0.9233 0.7130 -0.0631
C68 C 0.8876(7) 0.7809(6) -0.1443(5)
H59 H 0.8955 0.7456 -0.1730
C69 C 0.8589(7) 0.8539(6) -0.1672(5)
H60 H 0.8490 0.8672 -0.2121
C70 C 0.8448(6) 0.9074(6) -0.1246(5)
H61 H 0.8252 0.9557 -0.1411
C71 C 0.8599(6) 0.8892(5) -0.0569(5)
C72 C 0.8177(6) 1.0787(5) 0.1195(5)
C73 C 0.7609(7) 1.1475(5) 0.1216(5)
H62 H 0.7185 1.1604 0.0955
C74 C 0.7678(7) 1.1958(5) 0.1621(5)
H63 H 0.7291 1.2408 0.1636
C75 C 0.8321(7) 1.1782(6) 0.2010(5)
H64 H 0.8378 1.2119 0.2266
C76 C 0.8864(7) 1.1108(5) 0.2009(5)
H65 H 0.9284 1.0987 0.2273
C77 C 0.8797(6) 1.0595(5) 0.1614(5)
C78 C 0.9355(6) 0.9883(5) 0.1667(5)
H66 H 0.9780 0.9811 0.1922
C79 C 0.9935(6) 0.8632(5) 0.1482(5)
H67 H 1.0015 0.8541 0.1957
H68 H 1.0545 0.8640 0.1120
C80 C 0.9474(6) 0.8048(5) 0.1395(5)
H69 H 0.9914 0.7600 0.1321
H70 H 0.8947 0.7952 0.1820
C81 C 0.4990(6) 0.9379(5) 0.3117(4)
H71 H 0.5084 0.9466 0.2621
C82 C 0.4272(6) 0.8957(5) 0.3557(4)
C83 C 0.3777(6) 0.8697(5) 0.3202(5)
H72 H 0.3933 0.8796 0.2701
C84 C 0.3072(6) 0.8302(5) 0.3582(5)
H73 H 0.2759 0.8127 0.3340
C85 C 0.2826(6) 0.8163(5) 0.4338(5)
H74 H 0.2333 0.7910 0.4599
C86 C 0.3309(6) 0.8400(5) 0.4696(5)
H75 H 0.3140 0.8299 0.5198
C87 C 0.4043(6) 0.8787(5) 0.4322(4)
C88 C 0.6407(6) 0.9434(5) 0.5461(5)
C89 C 0.6462(6) 0.9141(5) 0.6153(5)
H76 H 0.5957 0.8953 0.6502
C90 C 0.7268(7) 0.9129(6) 0.6321(5)
H77 H 0.7296 0.8934 0.6784
C91 C 0.8032(7) 0.9402(6) 0.5813(5)
H78 H 0.8571 0.9383 0.5931
C92 C 0.7989(6) 0.9702(6) 0.5133(5)
H79 H 0.8499 0.9893 0.4794
C93 C 0.7184(6) 0.9723(5) 0.4942(5)
C94 C 0.7162(6) 1.0098(5) 0.4231(5)
H80 H 0.7641 1.0362 0.3960
C95 C 0.6506(6) 1.0521(5) 0.3249(5)
H81 H 0.7109 1.0671 0.2984
H82 H 0.6036 1.0954 0.3321
C96 C 0.6273(6) 1.0033(5) 0.2833(5)
H83 H 0.6067 1.0324 0.2438
H84 H 0.6820 0.9685 0.2636
N1 N 0.8378(5) 0.5118(4) 0.5147(4)
N2 N 0.9143(5) 0.4131(4) 0.4282(4)
N3 N 0.5355(4) 0.6725(4) 0.4474(4)
N4 N 0.5316(5) 0.5758(4) 0.3738(4)
N5 N 0.9834(5) 0.5186(4) 0.1646(4)
N6 N 0.8907(5) 0.4506(4) 0.1177(4)
N7 N 0.5751(5) 0.7250(4) 0.0779(4)
N8 N 0.5781(5) 0.8633(4) 0.0328(4)
N9 N 0.9156(5) 0.8335(4) 0.0752(4)
N10 N 0.9314(5) 0.9337(4) 0.1389(4)
N11 N 0.5518(5) 0.9648(4) 0.3354(4)
N12 N 0.6525(5) 1.0088(4) 0.3951(4)
O1 O 0.9945(4) 0.5756(3) 0.4654(3)
O2 O 1.0689(4) 0.4822(3) 0.3586(3)
O3 O 0.5863(4) 0.5663(3) 0.5516(3)
O4 O 0.5857(4) 0.4593(3) 0.4682(3)
O5 O 1.0205(4) 0.6160(3) 0.0364(3)
O6 O 0.9186(4) 0.5408(3) -0.0131(3)
O7 O 0.4145(4) 0.7543(3) 0.1934(3)
O8 O 0.4111(4) 0.9032(3) 0.1374(3)
O9 O 0.8436(4) 0.9421(3) -0.0171(3)
O10 O 0.8111(4) 1.0349(3) 0.0771(3)
O11 O 0.4519(4) 0.8964(3) 0.4699(3)
O12 O 0.5593(4) 0.9461(3) 0.5324(3)
O13 O 0.7121(4) 0.5663(3) 0.4004(3)
O14 O 0.8934(4) 0.5824(3) 0.3641(3)
O15 O 0.7511(4) 0.7075(3) 0.3770(3)
O16 O 0.8049(4) 0.6241(3) 0.2582(3)
O17 O 0.7565(4) 0.7469(3) 0.1541(3)
O18 O 0.8211(4) 0.6042(3) 0.1165(3)
O19 O 0.6505(4) 0.6333(4) 0.2106(3)
O20 O 0.5776(4) 0.8290(3) 0.1794(3)
O21 O 0.7289(4) 0.8989(3) 0.1404(3)
O22 O 0.6706(4) 0.8188(3) 0.2814(3)
O23 O 0.6559(4) 0.8494(3) 0.4166(3)
O24 O 0.8258(4) 0.8371(4) 0.3158(3)
O25 O 0.4071(4) 0.8019(4) 0.0446(3)
H85 H 0.3569 0.8304 0.0432
H86 H 0.4119 0.7636 0.0268
Mn2A Mn 0.43231(8) 0.43553(7) 0.53689(6)
Mn3A Mn 1.05039(9) 0.46041(7) -0.07338(6)
Mn6A Mn 0.44598(9) 1.05351(7) 0.56266(7)
O4A O 0.4143(4) 0.5407(3) 0.5318(3)
O6A O 1.0814(4) 0.4592(3) 0.0131(3)
O12A O 0.4407(4) 1.0539(3) 0.4676(3)
Cl1 Cl 0.48735(16) 0.67837(13) 0.90736(12)
O26 O 0.4515(7) 0.6713(5) 0.9849(4)
O27 O 0.4170(6) 0.7202(5) 0.8792(5)
O28 O 0.5667(6) 0.7133(5) 0.8830(6)
O29 O 0.5126(5) 0.6069(4) 0.8860(4)
Cl3 Cl 0.9255(3) 0.1650(3) 0.3686(3)
O34 O 0.9304(10) 0.2300(8) 0.3149(8)
O35 O 1.0050(10) 0.1135(9) 0.3389(9)
O36 O 0.9317(10) 0.1824(8) 0.4341(6)
O37 O 0.8385(8) 0.1410(7) 0.3827(7)
O38 O 0.2121(5) 0.8976(4) 0.1938(3)
H87 H 0.1967 0.8570 0.2172
H88 H 0.2694 0.8980 0.1874
O39 O 0.7654(4) 0.1170(4) 0.9485(3)
H89 H 0.7796 0.1025 0.9078
H90 H 0.7861 0.0842 0.9778
O40 O 0.9885(4) 0.7220(4) 0.2916(4)
H91 H 0.9401 0.7541 0.3023
H92 H 0.9762 0.6800 0.3126
O41 O 0.1406(7) 0.9933(6) 0.2988(5)
H93 H 0.0945 1.0251 0.2927
H94 H 0.1521 0.9666 0.2663
O42 O 0.0617(6) 0.8891(5) 0.4101(5)
H95 H 0.0808 0.9276 0.3842
H96 H 0.0354 0.8966 0.4538
O43 O 0.1294(5) 0.7889(4) 0.3047(4)
H97 H 0.0923 0.7649 0.2992
H98 H 0.0994 0.8224 0.3303
O44 O 0.9262(7) 0.9405(5) 0.3274(5)
H99 H 0.9647 0.9188 0.3500
H100 H 0.8953 0.9084 0.3274
Cl2? Cl 0.9298(4) 0.1390(3) 0.3900(3)
O30? O 0.9507(13) 0.0784(11) 0.4419(11)
O31? O 1.0063(13) 0.1464(10) 0.3291(10)
O32? O 0.9048(13) 0.2044(8) 0.4239(10)
O33? O 0.8503(10) 0.1303(9) 0.3716(8)
loop_
_geom_bond_atom_site_label_1
_geom_bond_atom_site_label_2
_geom_bond_site_symmetry_1
_geom_bond_site_symmetry_2
V1 O13 1_555 1_555
V2 O16 1_555 1_555
V3 O17 1_555 1_555
V4 O15 1_555 1_555
Mn1 N1 1_555 1_555
Mn2 N3 1_555 1_555
Mn3 N5 1_555 1_555
Mn4 N7 1_555 1_555
Mn5 N9 1_555 1_555
Mn6 N11 1_555 1_555
C1 H1 1_555 1_555
C2 C1 1_555 1_555
C3 C2 1_555 1_555
H2 C3 1_555 1_555
C4 C3 1_555 1_555
H3 C4 1_555 1_555
C5 C4 1_555 1_555
H4 C5 1_555 1_555
C6 C5 1_555 1_555
H5 C6 1_555 1_555
C7 C2 1_555 1_555
C8 C9 1_555 1_555
C9 H6 1_555 1_555
C10 C9 1_555 1_555
H7 C10 1_555 1_555
C11 C10 1_555 1_555
H8 C11 1_555 1_555
C12 C11 1_555 1_555
H9 C12 1_555 1_555
C13 C8 1_555 1_555
C14 C13 1_555 1_555
H10 C14 1_555 1_555
C15 H11 1_555 1_555
H12 C15 1_555 1_555
C16 C15 1_555 1_555
H13 C16 1_555 1_555
H14 C16 1_555 1_555
C17 H15 1_555 1_555
C18 C17 1_555 1_555
C19 C18 1_555 1_555
H16 C19 1_555 1_555
C20 C19 1_555 1_555
H17 C20 1_555 1_555
C21 C20 1_555 1_555
H18 C21 1_555 1_555
C22 C21 1_555 1_555
H19 C22 1_555 1_555
C23 C18 1_555 1_555
C24 C25 1_555 1_555
C25 H20 1_555 1_555
C26 C25 1_555 1_555
H21 C26 1_555 1_555
C27 C26 1_555 1_555
H22 C27 1_555 1_555
C28 C27 1_555 1_555
H23 C28 1_555 1_555
C29 C24 1_555 1_555
C30 C29 1_555 1_555
H24 C30 1_555 1_555
C31 H25 1_555 1_555
H26 C31 1_555 1_555
C32 C31 1_555 1_555
H27 C32 1_555 1_555
H28 C32 1_555 1_555
C33 H29 1_555 1_555
C34 C33 1_555 1_555
C35 C34 1_555 1_555
H30 C35 1_555 1_555
C36 C35 1_555 1_555
H31 C36 1_555 1_555
C37 C36 1_555 1_555
H32 C37 1_555 1_555
C38 C37 1_555 1_555
H33 C38 1_555 1_555
C39 C34 1_555 1_555
C40 C41 1_555 1_555
C41 H34 1_555 1_555
C42 C41 1_555 1_555
H35 C42 1_555 1_555
C43 C42 1_555 1_555
H36 C43 1_555 1_555
C44 C43 1_555 1_555
H37 C44 1_555 1_555
C45 C40 1_555 1_555
C46 C45 1_555 1_555
H38 C46 1_555 1_555
C47 H39 1_555 1_555
H40 C47 1_555 1_555
C48 C47 1_555 1_555
H41 C48 1_555 1_555
H42 C48 1_555 1_555
C49 H43 1_555 1_555
C50 C49 1_555 1_555
C51 C50 1_555 1_555
H44 C51 1_555 1_555
C52 C51 1_555 1_555
H45 C52 1_555 1_555
C53 C52 1_555 1_555
H46 C53 1_555 1_555
C54 C53 1_555 1_555
H47 C54 1_555 1_555
C55 C50 1_555 1_555
C56 C57 1_555 1_555
C57 H48 1_555 1_555
C58 C57 1_555 1_555
H49 C58 1_555 1_555
C59 C58 1_555 1_555
H50 C59 1_555 1_555
C60 C59 1_555 1_555
H51 C60 1_555 1_555
C61 C56 1_555 1_555
C62 C61 1_555 1_555
H52 C62 1_555 1_555
C63 H53 1_555 1_555
H54 C63 1_555 1_555
C64 C63 1_555 1_555
H55 C64 1_555 1_555
H56 C64 1_555 1_555
C65 H57 1_555 1_555
C66 C65 1_555 1_555
C67 C66 1_555 1_555
H58 C67 1_555 1_555
C68 C67 1_555 1_555
H59 C68 1_555 1_555
C69 C68 1_555 1_555
H60 C69 1_555 1_555
C70 C69 1_555 1_555
H61 C70 1_555 1_555
C71 C66 1_555 1_555
C72 C73 1_555 1_555
C73 H62 1_555 1_555
C74 C73 1_555 1_555
H63 C74 1_555 1_555
C75 C74 1_555 1_555
H64 C75 1_555 1_555
C76 C75 1_555 1_555
H65 C76 1_555 1_555
C77 C72 1_555 1_555
C78 C77 1_555 1_555
H66 C78 1_555 1_555
C79 H67 1_555 1_555
H68 C79 1_555 1_555
C80 C79 1_555 1_555
H69 C80 1_555 1_555
H70 C80 1_555 1_555
C81 H71 1_555 1_555
C82 C81 1_555 1_555
C83 C82 1_555 1_555
H72 C83 1_555 1_555
C84 C83 1_555 1_555
H73 C84 1_555 1_555
C85 C84 1_555 1_555
H74 C85 1_555 1_555
C86 C85 1_555 1_555
H75 C86 1_555 1_555
C87 C82 1_555 1_555
C88 C89 1_555 1_555
C89 H76 1_555 1_555
C90 C89 1_555 1_555
H77 C90 1_555 1_555
C91 C90 1_555 1_555
H78 C91 1_555 1_555
C92 C91 1_555 1_555
H79 C92 1_555 1_555
C93 C88 1_555 1_555
C94 C93 1_555 1_555
H80 C94 1_555 1_555
C95 H81 1_555 1_555
H82 C95 1_555 1_555
C96 C95 1_555 1_555
H83 C96 1_555 1_555
H84 C96 1_555 1_555
N1 C1 1_555 1_555
N2 Mn1 1_555 1_555
N3 C17 1_555 1_555
N4 Mn2 1_555 1_555
N5 C33 1_555 1_555
N6 Mn3 1_555 1_555
N7 C49 1_555 1_555
N8 Mn4 1_555 1_555
N9 C65 1_555 1_555
N10 Mn5 1_555 1_555
N11 C81 1_555 1_555
N12 Mn6 1_555 1_555
O1 Mn1 1_555 1_555
O2 Mn1 1_555 1_555
O3 Mn2 1_555 1_555
O4 Mn2 1_555 1_555
O5 Mn3 1_555 1_555
O6 Mn3 1_555 1_555
O7 Mn4 1_555 1_555
O8 Mn4 1_555 1_555
O9 Mn5 1_555 1_555
O10 Mn5 1_555 1_555
O11 Mn6 1_555 1_555
O12 Mn6 1_555 1_555
O13 Mn2 1_555 1_555
O14 V1 1_555 1_555
O15 V1 1_555 1_555
O16 V1 1_555 1_555
O17 V2 1_555 1_555
O18 V2 1_555 1_555
O19 V2 1_555 1_555
O20 V3 1_555 1_555
O21 V3 1_555 1_555
O22 V3 1_555 1_555
O23 V4 1_555 1_555
O24 V4 1_555 1_555
O25 Mn4 1_555 1_555
H85 O25 1_555 1_555
H86 O25 1_555 1_555
Cl1 O26 1_555 1_555
O27 Cl1 1_555 1_555
O28 Cl1 1_555 1_555
O29 Cl1 1_555 1_555
Cl3 O34 1_555 1_555
O35 Cl3 1_555 1_555
O36 Cl3 1_555 1_555
O37 Cl3 1_555 1_555
O38 H87 1_555 1_555
H88 O38 1_555 1_555
O39 H89 1_555 1_555
H90 O39 1_555 1_555
O40 H91 1_555 1_555
H92 O40 1_555 1_555
O41 H93 1_555 1_555
H94 O41 1_555 1_555
O42 H95 1_555 1_555
H96 O42 1_555 1_555
O43 H97 1_555 1_555
H98 O43 1_555 1_555
O44 H99 1_555 1_555
H100 O44 1_555 1_555
Mn2A O4 1_555 1_555
Mn3A O6 1_555 1_555
Mn6A O12 1_555 1_555
O4A Mn2 1_555 1_555
O6A Mn3 1_555 1_555
O12A Mn6 1_555 1_555
V4 O22 1_555 1_555
Mn1 O14 1_555 1_555
Mn3 O18 1_555 1_555
Mn4 O20 1_555 1_555
Mn5 O21 1_555 1_555
Mn6 O23 1_555 1_555
C6 C7 1_555 1_555
C7 O1 1_555 1_555
C8 O2 1_555 1_555
C12 C13 1_555 1_555
C14 N2 1_555 1_555
C15 N2 1_555 1_555
C16 N1 1_555 1_555
C22 C23 1_555 1_555
C23 O3 1_555 1_555
C24 O4 1_555 1_555
C28 C29 1_555 1_555
C30 N4 1_555 1_555
C31 N4 1_555 1_555
C32 N3 1_555 1_555
C38 C39 1_555 1_555
C39 O5 1_555 1_555
C40 O6 1_555 1_555
C44 C45 1_555 1_555
C46 N6 1_555 1_555
C47 N6 1_555 1_555
C48 N5 1_555 1_555
C54 C55 1_555 1_555
C55 O7 1_555 1_555
C56 O8 1_555 1_555
C60 C61 1_555 1_555
C62 N8 1_555 1_555
C63 N8 1_555 1_555
C64 N7 1_555 1_555
C70 C71 1_555 1_555
C71 O9 1_555 1_555
C72 O10 1_555 1_555
C76 C77 1_555 1_555
C78 N10 1_555 1_555
C79 N10 1_555 1_555
C80 N9 1_555 1_555
C86 C87 1_555 1_555
C87 O11 1_555 1_555
C88 O12 1_555 1_555
C92 C93 1_555 1_555
C94 N12 1_555 1_555
C95 N12 1_555 1_555
C96 N11 1_555 1_555
Mn2A O4A 1_555 1_555
Mn3A O6A 1_555 1_555
Mn6A O12A 1_555 1_555

#END
