
#######################################################################
#
#                 Cambridge Crystallographic Data Centre
#                                CCDC 
#
#######################################################################
#
# If this CIF has been generated from an entry in the Cambridge 
# Structural Database, then it will include bibliographic, chemical, 
# crystal, experimental, refinement or atomic coordinate data resulting 
# from the CCDC's data processing and validation procedures.
#
#######################################################################

data_YIDTUB
_symmetry_cell_setting           orthorhombic
_symmetry_space_group_name_H-M   'P b c a'
_symmetry_Int_Tables_number      61
_space_group_name_Hall           '-P 2ac 2ab'
loop_
_symmetry_equiv_pos_site_id
_symmetry_equiv_pos_as_xyz
1 x,y,z
2 1/2-x,-y,1/2+z
3 1/2+x,1/2-y,-z
4 -x,1/2+y,1/2-z
5 -x,-y,-z
6 1/2+x,y,1/2-z
7 1/2-x,1/2+y,z
8 x,1/2-y,1/2+z
_cell_length_a                   17.593(4)
_cell_length_b                   16.005(3)
_cell_length_c                   30.446(6)
_cell_angle_alpha                90
_cell_angle_beta                 90
_cell_angle_gamma                90
_cell_volume                     8572.86
loop_
_atom_site_label
_atom_site_type_symbol
_atom_site_fract_x
_atom_site_fract_y
_atom_site_fract_z
C1 C 0.3487(4) 0.0299(4) 0.8365(2)
C2 C 0.3969(4) 0.0552(5) 0.8728(2)
H1 H 0.4082 0.0075 0.8908
H2 H 0.3710 0.0966 0.8900
H3 H 0.4433 0.0783 0.8615
C3 C 0.2583(6) -0.0328(6) 0.8009(3)
H4 H 0.2163 -0.0658 0.7943
C4 C 0.2962(5) 0.0120(5) 0.7727(2)
H5 H 0.2862 0.0165 0.7428
C5 C 0.4929(5) -0.0180(4) 0.6884(2)
H6 H 0.4682 0.0088 0.6654
C6 C 0.5290(5) -0.0929(5) 0.6857(2)
H7 H 0.5335 -0.1268 0.6610
C7 C 0.5378(3) -0.0443(4) 0.75212(19)
C8 C 0.5594(5) -0.0398(6) 0.7991(2)
H8 H 0.5626 -0.0953 0.8110
H9 H 0.5218 -0.0085 0.8150
H10 H 0.6079 -0.0128 0.8018
C9 C 0.3491(3) 0.2185(3) 0.70464(16)
C10 C 0.3014(3) 0.2702(3) 0.67294(15)
H11 H 0.3373 0.3010 0.6544
C11 C 0.2531(3) 0.3359(3) 0.69652(18)
H12 H 0.2352 0.3767 0.6753
H13 H 0.2842 0.3649 0.7179
C12 C 0.1844(3) 0.2963(3) 0.71987(16)
H14 H 0.2022 0.2592 0.7429
H15 H 0.1541 0.3399 0.7334
C13 C 0.1358(3) 0.2479(3) 0.68804(15)
H16 H 0.1187 0.2866 0.6652
C14 C 0.1845(3) 0.1795(3) 0.66569(16)
H17 H 0.2019 0.1400 0.6876
H18 H 0.1536 0.1493 0.6446
C15 C 0.2530(3) 0.2179(4) 0.64228(15)
H19 H 0.2839 0.1736 0.6299
H20 H 0.2353 0.2527 0.6183
C16 C 0.0660(3) 0.2092(3) 0.70850(15)
N1 N 0.3556(3) 0.0527(3) 0.79580(16)
N2 N 0.2897(3) -0.0240(4) 0.84165(18)
H41 H 0.2751 -0.0477 0.8656
N3 N 0.4986(3) 0.0114(3) 0.73007(15)
N4 N 0.5567(3) -0.1078(3) 0.72553(18)
H42 H 0.5826 -0.1511 0.7331
O8 O 0.3690(2) 0.2477(2) 0.74102(13)
O10 O 0.3704(3) 0.1473(3) 0.69354(13)
O11 O 0.0579(2) 0.2059(3) 0.74928(11)
O12 O 0.0155(2) 0.1791(3) 0.68348(11)
Cd1 Cd 0.44158(2) 0.12656(2) 0.758212(12)
O11E O 0.5579(2) 0.2059(3) 0.75072(11)
O12E O 0.5155(2) 0.1791(3) 0.81652(11)
Cd1E Cd -0.05842(2) 0.12656(2) 0.741788(12)
C17 C 0.0291(5) 0.2609(8) 0.8744(3)
H21 H 0.0182 0.3013 0.8519
H22 H 0.0254 0.2868 0.9027
H23 H -0.0067 0.2158 0.8725
C18 C 0.1073(4) 0.2279(4) 0.86811(18)
C19 C 0.2189(5) 0.1846(8) 0.8780(2)
H24 H 0.2637 0.1674 0.8915
C20 C 0.2070(6) 0.1864(7) 0.8342(3)
H25 H 0.2414 0.1722 0.8122
C21 C -0.0350(4) 0.1632(5) 0.9842(3)
H26 H -0.0451 0.2114 1.0002
C22 C -0.0868(5) 0.1091(6) 0.9702(3)
H27 H -0.1390 0.1120 0.9746
C23 C 0.0253(4) 0.0665(4) 0.9494(2)
C24 C 0.0853(5) 0.0148(5) 0.9297(3)
H28 H 0.1299 0.0170 0.9478
H29 H 0.0972 0.0354 0.9009
H30 H 0.0680 -0.0420 0.9276
C25 C 0.2703(3) 0.1530(3) 1.01604(16)
C26 C 0.3384(3) 0.1297(3) 1.04391(17)
H31 H 0.3531 0.1802 1.0601
C27 C 0.4074(3) 0.1047(3) 1.01558(18)
H32 H 0.4141 0.1454 0.9923
H33 H 0.4529 0.1052 1.0336
C28 C 0.3971(3) 0.0188(3) 0.99572(16)
H34 H 0.4415 0.0048 0.9784
H35 H 0.3534 0.0193 0.9763
C29 C 0.3855(3) -0.0475(3) 1.03110(15)
H36 H 0.4294 -0.0461 1.0508
C30 C 0.3793(3) -0.1346(3) 1.01204(17)
C31 C 0.3221(4) 0.0625(4) 1.07818(16)
H37 H 0.3627 0.0619 1.0997
H38 H 0.2752 0.0760 1.0934
C32 C 0.3150(3) -0.0239(3) 1.05761(16)
H39 H 0.2708 -0.0250 1.0385
H40 H 0.3072 -0.0649 1.0806
N5 N 0.1569(3) 0.2111(3) 0.89909(14)
N6 N 0.1345(3) 0.2130(4) 0.82889(16)
H43 H 0.1109 0.2191 0.8044
N7 N 0.0366(3) 0.1368(3) 0.97121(16)
N8 N -0.0480(4) 0.0483(4) 0.9479(2)
H44 H -0.0679 0.0056 0.9352
O1 O 0.2783(2) 0.1910(3) 0.98117(14)
O2 O 0.2054(2) 0.1357(3) 1.02861(14)
O4 O 0.3518(4) -0.1455(3) 0.97550(18)
O6 O 0.4037(3) -0.1952(3) 1.03138(15)
Cd2 Cd 0.14412(2) 0.21222(2) 0.973230(11)
O4F O 0.1482(4) 0.3545(3) 0.97550(18)
O6F O 0.0963(3) 0.3048(3) 1.03138(15)
Cd2F Cd 0.35588(2) -0.28778(2) 0.973230(11)
O3 O 0.1019(3) 0.0996(3) 1.09298(15)
H45 H 0.139(2) 0.113(4) 1.0753(18)
H46 H 0.067(3) 0.138(3) 1.090(2)
O5 O 0.4907(3) -0.2497(3) 1.09893(13)
H47 H 0.464(3) -0.218(3) 1.0825(15)
H48 H 0.491(4) -0.232(4) 1.1251(8)
O7 O 0.2434(3) -0.0813(4) 0.92112(18)
H49 H 0.209(3) -0.120(4) 0.924(2)
H50 H 0.277(3) -0.090(5) 0.941(2)
O9 O 0.3630(3) 0.2924(4) 0.9246(2)
H51 H 0.344(4) 0.252(4) 0.940(3)
H52 H 0.407(3) 0.275(5) 0.915(3)
loop_
_geom_bond_atom_site_label_1
_geom_bond_atom_site_label_2
_geom_bond_site_symmetry_1
_geom_bond_site_symmetry_2
C1 C2 1_555 1_555
C2 H1 1_555 1_555
H2 C2 1_555 1_555
H3 C2 1_555 1_555
C3 H4 1_555 1_555
C4 C3 1_555 1_555
H5 C4 1_555 1_555
C5 H6 1_555 1_555
C6 C5 1_555 1_555
H7 C6 1_555 1_555
C7 C8 1_555 1_555
C8 H8 1_555 1_555
H9 C8 1_555 1_555
H10 C8 1_555 1_555
C9 C10 1_555 1_555
C10 H11 1_555 1_555
C11 C10 1_555 1_555
H12 C11 1_555 1_555
H13 C11 1_555 1_555
C12 C11 1_555 1_555
H14 C12 1_555 1_555
H15 C12 1_555 1_555
C13 C12 1_555 1_555
H16 C13 1_555 1_555
C14 C13 1_555 1_555
H17 C14 1_555 1_555
H18 C14 1_555 1_555
C15 C10 1_555 1_555
H19 C15 1_555 1_555
H20 C15 1_555 1_555
C16 C13 1_555 1_555
C17 H21 1_555 1_555
H22 C17 1_555 1_555
H23 C17 1_555 1_555
C18 C17 1_555 1_555
C19 H24 1_555 1_555
C20 C19 1_555 1_555
H25 C20 1_555 1_555
C21 H26 1_555 1_555
C22 C21 1_555 1_555
H27 C22 1_555 1_555
C23 C24 1_555 1_555
C24 H28 1_555 1_555
H29 C24 1_555 1_555
H30 C24 1_555 1_555
C25 C26 1_555 1_555
C26 H31 1_555 1_555
C27 C26 1_555 1_555
H32 C27 1_555 1_555
H33 C27 1_555 1_555
C28 C27 1_555 1_555
H34 C28 1_555 1_555
H35 C28 1_555 1_555
C29 C28 1_555 1_555
H36 C29 1_555 1_555
C30 C29 1_555 1_555
C31 C26 1_555 1_555
H37 C31 1_555 1_555
H38 C31 1_555 1_555
C32 C29 1_555 1_555
H39 C32 1_555 1_555
H40 C32 1_555 1_555
N1 C1 1_555 1_555
N2 C1 1_555 1_555
H41 N2 1_555 1_555
N3 C5 1_555 1_555
N4 C6 1_555 1_555
H42 N4 1_555 1_555
N5 C18 1_555 1_555
N6 C18 1_555 1_555
H43 N6 1_555 1_555
N7 C21 1_555 1_555
N8 C22 1_555 1_555
H44 N8 1_555 1_555
O1 C25 1_555 1_555
O2 C25 1_555 1_555
O3 H45 1_555 1_555
H46 O3 1_555 1_555
O4 C30 1_555 1_555
O5 H47 1_555 1_555
H48 O5 1_555 1_555
O6 C30 1_555 1_555
O7 H49 1_555 1_555
H50 O7 1_555 1_555
O8 C9 1_555 1_555
O9 H51 1_555 1_555
H52 O9 1_555 1_555
O10 C9 1_555 1_555
O11 C16 1_555 1_555
O12 C16 1_555 1_555
Cd1 N1 1_555 1_555
Cd2 N5 1_555 1_555
O4F Cd2 1_555 1_555
O6F Cd2 1_555 1_555
O11E Cd1 1_555 1_555
O12E Cd1 1_555 1_555
Cd1E O11 1_555 1_555
Cd2F O4 1_555 1_555
C3 N2 1_555 1_555
C4 N1 1_555 1_555
C7 N3 1_555 1_555
C7 N4 1_555 1_555
C14 C15 1_555 1_555
C19 N5 1_555 1_555
C20 N6 1_555 1_555
C23 N7 1_555 1_555
C23 N8 1_555 1_555
C31 C32 1_555 1_555
N3 Cd1 1_555 1_555
N7 Cd2 1_555 1_555
O1 Cd2 1_555 1_555
O2 Cd2 1_555 1_555
O6 Cd2F 1_555 1_555
O8 Cd1 1_555 1_555
O10 Cd1 1_555 1_555
O12 Cd1E 1_555 1_555

#END
