
#######################################################################
#
#                 Cambridge Crystallographic Data Centre
#                                CCDC 
#
#######################################################################
#
# If this CIF has been generated from an entry in the Cambridge 
# Structural Database, then it will include bibliographic, chemical, 
# crystal, experimental, refinement or atomic coordinate data resulting 
# from the CCDC's data processing and validation procedures.
#
#######################################################################

data_YIDYAM
_symmetry_cell_setting           monoclinic
_symmetry_space_group_name_H-M   'P 21/c'
_symmetry_Int_Tables_number      14
_space_group_name_Hall           '-P 2ybc'
loop_
_symmetry_equiv_pos_site_id
_symmetry_equiv_pos_as_xyz
1 x,y,z
2 -x,1/2+y,1/2-z
3 -x,-y,-z
4 x,1/2-y,1/2+z
_cell_length_a                   11.2453(11)
_cell_length_b                   7.1554(7)
_cell_length_c                   17.3387(16)
_cell_angle_alpha                90
_cell_angle_beta                 101.1060(10)
_cell_angle_gamma                90
_cell_volume                     1369.02
loop_
_atom_site_label
_atom_site_type_symbol
_atom_site_fract_x
_atom_site_fract_y
_atom_site_fract_z
Ni1 Ni 0.96874(2) 0.68093(3) 0.128525(13)
N1 N 1.08891(15) 0.6870(2) 0.05901(9)
N2 N 0.95476(15) 0.8085(2) -0.05193(9)
H1 H 0.9528 0.8552 -0.0979
O1 O 0.87293(12) 0.5970(2) 0.20646(8)
N3 N 0.83439(15) 0.7605(2) 0.04433(9)
C1 C 0.84388(18) 0.8087(3) -0.02909(11)
O2 O 1.06489(12) 0.5455(2) 0.21974(8)
C2 C 1.06774(18) 0.7483(3) -0.01579(11)
C3 C 0.6207(2) 0.8162(3) 0.01007(13)
H2 H 0.5456 0.8181 0.0250
C4 C 1.20373(19) 0.6317(3) 0.09050(13)
H3 H 1.2195 0.5891 0.1421
C5 C 1.2734(2) 0.6984(3) -0.02676(13)
H4 H 1.3351 0.7020 -0.0555
C6 C 1.1593(2) 0.7546(3) -0.05985(12)
H5 H 1.1425 0.7970 -0.1115
C7 C 0.96998(18) 0.5327(3) 0.25138(11)
C8 C 0.72183(19) 0.7660(3) 0.06210(12)
H6 H 0.7137 0.7336 0.1128
C9 C 1.2966(2) 0.6354(3) 0.05080(13)
H7 H 1.3739 0.5968 0.0748
C10 C 0.7433(2) 0.8611(3) -0.08549(13)
H8 H 0.7525 0.8932 -0.1360
O3 O 0.97143(13) 0.46848(19) 0.31877(8)
C11 C 0.6314(2) 0.8648(3) -0.06583(14)
H15 H 0.5635 0.8993 -0.1027
Ni1A Ni 1.03126(2) 0.18093(3) 0.371475(13)
O3A O 1.02857(13) 0.96848(19) 0.18123(8)
O4 O 0.69188(15) 0.0454(3) 0.20442(10)
H9 H 0.6744 0.1583 0.2043
H10 H 0.7660 0.0306 0.2211
O5 O 0.65269(16) 0.4323(3) 0.21925(11)
H11 H 0.6025 0.5150 0.2043
H12 H 0.7226 0.4699 0.2157
O6 O 0.52597(17) 0.7637(3) 0.19881(12)
H13 H 0.4651 0.8016 0.2150
H14 H 0.5797 0.8459 0.2053
loop_
_geom_bond_atom_site_label_1
_geom_bond_atom_site_label_2
_geom_bond_site_symmetry_1
_geom_bond_site_symmetry_2
Ni1 N1 1_555 1_555
N1 C2 1_555 1_555
N2 H1 1_555 1_555
O1 Ni1 1_555 1_555
N3 Ni1 1_555 1_555
C1 N2 1_555 1_555
O2 Ni1 1_555 1_555
C2 N2 1_555 1_555
C3 H2 1_555 1_555
C4 N1 1_555 1_555
H3 C4 1_555 1_555
C5 H4 1_555 1_555
C6 C2 1_555 1_555
H5 C6 1_555 1_555
C7 O1 1_555 1_555
C8 N3 1_555 1_555
H6 C8 1_555 1_555
C9 C4 1_555 1_555
H7 C9 1_555 1_555
C10 C1 1_555 1_555
H8 C10 1_555 1_555
O3 C7 1_555 1_555
O4 H9 1_555 1_555
H10 O4 1_555 1_555
O5 H11 1_555 1_555
H12 O5 1_555 1_555
O6 H13 1_555 1_555
H14 O6 1_555 1_555
C11 C3 1_555 1_555
H15 C11 1_555 1_555
Ni1A O3 1_555 1_555
O3A Ni1 1_555 1_555
N3 C1 1_555 1_555
O2 C7 1_555 1_555
C3 C8 1_555 1_555
C5 C6 1_555 1_555
C5 C9 1_555 1_555
C10 C11 1_555 1_555

#END
