
#######################################################################
#
#                 Cambridge Crystallographic Data Centre
#                                CCDC 
#
#######################################################################
#
# If this CIF has been generated from an entry in the Cambridge 
# Structural Database, then it will include bibliographic, chemical, 
# crystal, experimental, refinement or atomic coordinate data resulting 
# from the CCDC's data processing and validation procedures.
#
#######################################################################

data_YIFDAT
_symmetry_cell_setting           monoclinic
_symmetry_space_group_name_H-M   'C 2/c'
_symmetry_Int_Tables_number      15
_space_group_name_Hall           '-C 2yn'
loop_
_symmetry_equiv_pos_site_id
_symmetry_equiv_pos_as_xyz
1 x,y,z
2 1/2+x,1/2+y,z
3 -x,y,1/2-z
4 1/2-x,1/2+y,1/2-z
5 -x,-y,-z
6 1/2-x,1/2-y,-z
7 x,-y,1/2+z
8 1/2+x,1/2-y,1/2+z
_cell_length_a                   30.4215(6)
_cell_length_b                   6.73940(10)
_cell_length_c                   16.6695(3)
_cell_angle_alpha                90
_cell_angle_beta                 107.9500(10)
_cell_angle_gamma                90
_cell_volume                     3251.28
loop_
_atom_site_label
_atom_site_type_symbol
_atom_site_fract_x
_atom_site_fract_y
_atom_site_fract_z
Ba1 Ba 0.0000 0.54969(3) 0.2500
C8 C 0.08615(6) 0.6307(3) 0.46576(12)
C9 C 0.08875(6) 0.6439(3) 0.55372(12)
C10 C 0.12886(6) 0.6317(3) 0.61992(12)
H6 H 0.1282 0.6347 0.6753
C11 C 0.17024(6) 0.6148(3) 0.60218(12)
C12 C 0.17172(6) 0.6059(3) 0.52008(13)
H7 H 0.1999 0.5963 0.5096
C13 C 0.13161(6) 0.6113(3) 0.45470(12)
N3 N 0.04662(5) 0.6730(3) 0.57559(10)
N4 N 0.21295(6) 0.6097(3) 0.67093(12)
N5 N 0.13605(6) 0.6021(3) 0.37039(11)
O1 O 0.10196(6) 0.5831(3) 0.30871(10)
O2 O 0.17466(6) 0.6120(3) 0.36322(11)
O3 O 0.04921(5) 0.6328(3) 0.40711(9)
O4 O 0.01290(5) 0.7470(3) 0.52530(10)
O5 O 0.04724(6) 0.6278(3) 0.64730(10)
O6 O 0.21155(6) 0.6352(3) 0.74293(10)
O7 O 0.24904(5) 0.5800(4) 0.65494(12)
O8 O 0.0000 0.1516(4) 0.2500
H9 H 0.010(2) 0.076(7) 0.224(3)
O9 O -0.03027(5) 0.8540(3) 0.33929(9)
H10 H -0.0537(6) 0.862(4) 0.3550(14)
H11 H -0.0098(6) 0.828(4) 0.3817(12)
Ba1F Ba 0.0000 0.45031(3) 0.7500
Ba1F_2 Ba 0.0000 0.45031(3) -0.2500
C8B C -0.08615(6) 0.6307(3) 0.03424(12)
C9B C -0.08875(6) 0.6439(3) -0.05372(12)
C10B C -0.12886(6) 0.6317(3) -0.11992(12)
H6B H -0.1282 0.6347 -0.1753
C11B C -0.17024(6) 0.6148(3) -0.10218(12)
C12B C -0.17172(6) 0.6059(3) -0.02008(13)
H7B H -0.1999 0.5963 -0.0096
C13B C -0.13161(6) 0.6113(3) 0.04530(12)
N3B N -0.04662(5) 0.6730(3) -0.07559(10)
N4B N -0.21295(6) 0.6097(3) -0.17093(12)
N5B N -0.13605(6) 0.6021(3) 0.12961(11)
O1B O -0.10196(6) 0.5831(3) 0.19129(10)
O2B O -0.17466(6) 0.6120(3) 0.13678(11)
O3B O -0.04921(5) 0.6328(3) 0.09289(9)
O4B O -0.01290(5) 0.7470(3) -0.02530(10)
O5B O -0.04724(6) 0.6278(3) -0.14730(10)
O5F O 0.04724(6) 0.3722(3) 0.14730(10)
O5D O -0.04724(6) 0.3722(3) 0.35270(10)
O6B O -0.21155(6) 0.6352(3) -0.24293(10)
O7B O -0.24904(5) 0.5800(4) -0.15494(12)
H9B H -0.010(2) 0.076(7) 0.276(3)
O9B O 0.03027(5) 0.8540(3) 0.16071(9)
H10B H 0.0537(6) 0.862(4) 0.1450(14)
H11B H 0.0098(6) 0.828(4) 0.1183(12)
C1 C 0.12475(6) 0.8786(3) 0.04517(13)
C2 C 0.09690(7) 0.8776(3) -0.03851(14)
H1 H 0.0649 0.8729 -0.0523
C3 C 0.11831(9) 0.8839(4) -0.10030(15)
H2 H 0.1003 0.8835 -0.1566
C4 C 0.16600(10) 0.8909(4) -0.08066(17)
H3 H 0.1791 0.8943 -0.1242
C5 C 0.19433(8) 0.8930(4) 0.00113(18)
H4 H 0.2263 0.8986 0.0140
C6 C 0.17305(7) 0.8863(3) 0.06404(14)
C7 C 0.15304(9) 0.8749(4) 0.17941(15)
H5 H 0.1558 0.8714 0.2365
N1 N 0.11318(6) 0.8717(3) 0.11972(11)
N2 N 0.18963(6) 0.8836(3) 0.15040(12)
H8 H 0.2182 0.8869 0.1805
loop_
_geom_bond_atom_site_label_1
_geom_bond_atom_site_label_2
_geom_bond_site_symmetry_1
_geom_bond_site_symmetry_2
Ba1 O1 1_555 1_555
C1 C2 1_555 1_555
C2 H1 1_555 1_555
C3 C2 1_555 1_555
H2 C3 1_555 1_555
C4 C3 1_555 1_555
H3 C4 1_555 1_555
C5 C4 1_555 1_555
H4 C5 1_555 1_555
C6 C1 1_555 1_555
C7 H5 1_555 1_555
C8 C9 1_555 1_555
C9 C10 1_555 1_555
C10 H6 1_555 1_555
C11 C10 1_555 1_555
C12 C11 1_555 1_555
H7 C12 1_555 1_555
C13 C8 1_555 1_555
N1 C1 1_555 1_555
N2 C6 1_555 1_555
H8 N2 1_555 1_555
N3 C9 1_555 1_555
N4 C11 1_555 1_555
N5 C13 1_555 1_555
O1 N5 1_555 1_555
O2 N5 1_555 1_555
O3 Ba1 1_555 1_555
O4 N3 1_555 1_555
O5 N3 1_555 1_555
O6 N4 1_555 1_555
O7 N4 1_555 1_555
O8 Ba1 1_555 1_555
H9 O8 1_555 1_555
O9 Ba1 1_555 1_555
H10 O9 1_555 1_555
H11 O9 1_555 1_555
Ba1F O5 1_555 1_555
Ba1F_2 O5B 1_555 1_555
C8B C9B 1_555 1_555
C9B C10B 1_555 1_555
C10B H6B 1_555 1_555
C11B C10B 1_555 1_555
C12B C11B 1_555 1_555
H7B C12B 1_555 1_555
C13B C8B 1_555 1_555
N3B C9B 1_555 1_555
N4B C11B 1_555 1_555
N5B C13B 1_555 1_555
O1B Ba1 1_555 1_555
O2B N5B 1_555 1_555
O3B Ba1 1_555 1_555
O4B N3B 1_555 1_555
O5B N3B 1_555 1_555
O5F Ba1 1_555 1_555
O5D Ba1 1_555 1_555
O6B N4B 1_555 1_555
O7B N4B 1_555 1_555
H9B O8 1_555 1_555
O9B Ba1 1_555 1_555
H10B O9B 1_555 1_555
H11B O9B 1_555 1_555
C5 C6 1_555 1_555
C7 N1 1_555 1_555
C7 N2 1_555 1_555
C8 O3 1_555 1_555
C12 C13 1_555 1_555
C8B O3B 1_555 1_555
C12B C13B 1_555 1_555
N5B O1B 1_555 1_555

#END
