
#######################################################################
#
#                 Cambridge Crystallographic Data Centre
#                                CCDC 
#
#######################################################################
#
# If this CIF has been generated from an entry in the Cambridge 
# Structural Database, then it will include bibliographic, chemical, 
# crystal, experimental, refinement or atomic coordinate data resulting 
# from the CCDC's data processing and validation procedures.
#
#######################################################################

data_YIFFUQ
_symmetry_cell_setting           triclinic
_symmetry_space_group_name_H-M   'P -1'
_symmetry_Int_Tables_number      2
_space_group_name_Hall           '-P 1'
loop_
_symmetry_equiv_pos_site_id
_symmetry_equiv_pos_as_xyz
1 x,y,z
2 -x,-y,-z
_cell_length_a                   7.2867(4)
_cell_length_b                   8.5143(5)
_cell_length_c                   12.0238(7)
_cell_angle_alpha                73.9876(8)
_cell_angle_beta                 87.9715(8)
_cell_angle_gamma                85.9747(8)
_cell_volume                     715.159
loop_
_atom_site_label
_atom_site_type_symbol
_atom_site_fract_x
_atom_site_fract_y
_atom_site_fract_z
Sm1 Sm 0.300589(16) 0.188733(14) 0.495406(11)
O1 O 0.5129(3) 0.0517(2) 0.37912(18)
O2 O 0.5658(3) -0.1520(3) 0.30066(19)
O3 O 0.1608(3) -0.0163(2) 0.42968(17)
O4 O -0.0855(3) -0.0687(3) 0.34538(18)
O5 O -0.3223(3) 0.6111(3) -0.30869(19)
O6 O 0.5897(3) 0.3162(2) 0.47871(19)
O7 O 0.7297(3) 0.5442(2) 0.46507(19)
O8 O -0.0172(3) 0.2893(3) 0.4326(2)
H1 H -0.090(4) 0.215(3) 0.457(4)
H2 H -0.065(5) 0.378(2) 0.440(4)
N1 N -0.0110(4) 0.2890(3) -0.0644(2)
C1 C 0.4826(4) -0.0205(3) 0.3021(2)
C2 C 0.3476(4) 0.0544(3) 0.2068(2)
C3 C 0.1572(4) 0.0566(3) 0.2255(2)
C4 C 0.0407(4) 0.1247(4) 0.1331(3)
H3 H -0.0861 0.1217 0.1446
C5 C 0.1122(4) 0.1970(4) 0.0243(2)
C6 C 0.3004(4) 0.1888(4) 0.0035(2)
H4 H 0.3484 0.2314 -0.0706
C7 C 0.4159(4) 0.1159(4) 0.0950(3)
H5 H 0.5421 0.1079 0.0813
C8 C 0.0700(4) -0.0148(3) 0.3421(2)
C9 C -0.1566(5) 0.3781(4) -0.0334(3)
H6 H -0.1800 0.3692 0.0446
C10 C -0.2679(5) 0.4793(4) -0.1138(3)
H7 H -0.3698 0.5346 -0.0900
C11 C -0.2315(4) 0.5026(4) -0.2344(3)
C12 C -0.0899(4) 0.3964(4) -0.2622(3)
H8 H -0.0702 0.3954 -0.3388
C13 C 0.0184(4) 0.2954(4) -0.1778(3)
H9 H 0.1138 0.2300 -0.1984
C14 C 0.5918(4) 0.4599(3) 0.4837(2)
O6A O 0.4103(3) 0.6838(2) 0.52129(19)
O7A O 0.2703(3) 0.4558(2) 0.53493(19)
C14A C 0.4082(4) 0.5401(3) 0.5163(2)
Sm1A Sm -0.300589(16) -0.188733(14) 0.504594(11)
O1A O -0.5129(3) -0.0517(2) 0.62088(18)
O2A O -0.5658(3) 0.1520(3) 0.69934(19)
O3A O -0.1608(3) 0.0163(2) 0.57032(17)
O4A O 0.0855(3) 0.0687(3) 0.65462(18)
O5A O 0.3223(3) -0.6111(3) 1.30869(19)
O8A O 0.0172(3) -0.2893(3) 0.5674(2)
H1A H 0.090(4) -0.215(3) 0.543(4)
H2A H 0.065(5) -0.378(2) 0.560(4)
N1A N 0.0110(4) -0.2890(3) 1.0644(2)
C1A C -0.4826(4) 0.0205(3) 0.6979(2)
C2A C -0.3476(4) -0.0544(3) 0.7932(2)
C3A C -0.1572(4) -0.0566(3) 0.7745(2)
C4A C -0.0407(4) -0.1247(4) 0.8669(3)
H3A H 0.0861 -0.1217 0.8554
C5A C -0.1122(4) -0.1970(4) 0.9757(2)
C6A C -0.3004(4) -0.1888(4) 0.9965(2)
H4A H -0.3484 -0.2314 1.0706
C7A C -0.4159(4) -0.1159(4) 0.9050(3)
H5A H -0.5421 -0.1079 0.9187
C8A C -0.0700(4) 0.0148(3) 0.6579(2)
C9A C 0.1566(5) -0.3781(4) 1.0334(3)
H6A H 0.1800 -0.3692 0.9554
C10A C 0.2679(5) -0.4793(4) 1.1138(3)
H7A H 0.3698 -0.5346 1.0900
C11A C 0.2315(4) -0.5026(4) 1.2344(3)
C12A C 0.0899(4) -0.3964(4) 1.2622(3)
H8A H 0.0702 -0.3954 1.3388
C13A C -0.0184(4) -0.2954(4) 1.1778(3)
H9A H -0.1138 -0.2300 1.1984
Sm1_2 Sm -0.699411(16) 0.188733(14) 0.495406(11)
Sm1_3 Sm 0.300589(16) -0.811267(14) 1.495406(11)
Sm1A_2 Sm -0.300589(16) 0.811267(14) -0.495406(11)
Sm1A_3 Sm 0.699411(16) -0.188733(14) 0.504594(11)
Sm1A_4 Sm 0.699411(16) 0.811267(14) 0.504594(11)
O1_2 O -0.4871(3) 0.0517(2) 0.37912(18)
O1A_2 O 0.4871(3) -0.0517(2) 0.62088(18)
O2_2 O -0.4342(3) -0.1520(3) 0.30066(19)
O2A_2 O 0.4342(3) 0.1520(3) 0.69934(19)
O5_2 O -0.3223(3) -0.3889(3) 0.69131(19)
O5A_2 O 0.3223(3) 0.3889(3) 0.30869(19)
O6A_2 O -0.5897(3) -0.3162(2) 0.52129(19)
O7_2 O -0.2703(3) -0.4558(2) 0.46507(19)
O9 O -0.7019(5) 0.6223(6) -0.2149(3)
H10 H -0.780(6) 0.657(8) -0.267(3)
H11 H -0.600(4) 0.602(8) -0.244(4)
loop_
_geom_bond_atom_site_label_1
_geom_bond_atom_site_label_2
_geom_bond_site_symmetry_1
_geom_bond_site_symmetry_2
Sm1 O1 1_555 1_555
O1 C1 1_555 1_555
O2 C1 1_555 1_555
O3 Sm1 1_555 1_555
O4 C8 1_555 1_555
O5 C11 1_555 1_555
O6 Sm1 1_555 1_555
O7 C14 1_555 1_555
O8 Sm1 1_555 1_555
H1 O8 1_555 1_555
H2 O8 1_555 1_555
N1 C5 1_555 1_555
C1 C2 1_555 1_555
C2 C3 1_555 1_555
C3 C4 1_555 1_555
C4 H3 1_555 1_555
C5 C4 1_555 1_555
C6 C5 1_555 1_555
H4 C6 1_555 1_555
C7 C2 1_555 1_555
H5 C7 1_555 1_555
C8 O3 1_555 1_555
C9 N1 1_555 1_555
H6 C9 1_555 1_555
C10 C9 1_555 1_555
H7 C10 1_555 1_555
C11 C10 1_555 1_555
C12 C11 1_555 1_555
H8 C12 1_555 1_555
C13 N1 1_555 1_555
H9 C13 1_555 1_555
C14 O6 1_555 1_555
O9 H10 1_555 1_555
H11 O9 1_555 1_555
O6A C14A 1_555 1_555
O7A Sm1 1_555 1_555
C14A C14 1_555 1_555
Sm1A O4 1_555 1_555
O1A Sm1A 1_555 1_555
O2A C1A 1_555 1_555
O3A Sm1A 1_555 1_555
O4A Sm1 1_555 1_555
O5A C11A 1_555 1_555
O8A Sm1A 1_555 1_555
H1A O8A 1_555 1_555
H2A O8A 1_555 1_555
N1A C5A 1_555 1_555
C1A O1A 1_555 1_555
C2A C1A 1_555 1_555
C3A C2A 1_555 1_555
C4A C3A 1_555 1_555
H3A C4A 1_555 1_555
C5A C4A 1_555 1_555
C6A C5A 1_555 1_555
H4A C6A 1_555 1_555
C7A C2A 1_555 1_555
H5A C7A 1_555 1_555
C8A O3A 1_555 1_555
C9A N1A 1_555 1_555
H6A C9A 1_555 1_555
C10A C9A 1_555 1_555
H7A C10A 1_555 1_555
C11A C10A 1_555 1_555
C12A C11A 1_555 1_555
H8A C12A 1_555 1_555
C13A N1A 1_555 1_555
H9A C13A 1_555 1_555
Sm1_2 O1A 1_555 1_555
Sm1_3 O5A 1_555 1_555
Sm1A_2 O5 1_555 1_555
Sm1A_3 O1 1_555 1_555
Sm1A_4 O7 1_555 1_555
O1_2 Sm1A 1_555 1_555
O1A_2 Sm1 1_555 1_555
O2_2 Sm1A 1_555 1_555
O2A_2 Sm1 1_555 1_555
O5_2 Sm1A 1_555 1_555
O5A_2 Sm1 1_555 1_555
O6A_2 Sm1A 1_555 1_555
O7_2 Sm1A 1_555 1_555
O2 Sm1A_3 1_555 1_555
C3 C8 1_555 1_555
C6 C7 1_555 1_555
C12 C13 1_555 1_555
O6A Sm1A_4 1_555 1_555
O7A C14A 1_555 1_555
O2A Sm1_2 1_555 1_555
O4A C8A 1_555 1_555
C3A C8A 1_555 1_555
C6A C7A 1_555 1_555
C12A C13A 1_555 1_555
Sm1_2 O1_2 1_555 1_555
Sm1A_3 O1A_2 1_555 1_555

#END
