
#######################################################################
#
#                 Cambridge Crystallographic Data Centre
#                                CCDC 
#
#######################################################################
#
# If this CIF has been generated from an entry in the Cambridge 
# Structural Database, then it will include bibliographic, chemical, 
# crystal, experimental, refinement or atomic coordinate data resulting 
# from the CCDC's data processing and validation procedures.
#
#######################################################################

data_YIFGOL
_symmetry_cell_setting           triclinic
_symmetry_space_group_name_H-M   'P -1'
_symmetry_Int_Tables_number      2
_space_group_name_Hall           '-P 1'
loop_
_symmetry_equiv_pos_site_id
_symmetry_equiv_pos_as_xyz
1 x,y,z
2 -x,-y,-z
_cell_length_a                   7.3604(5)
_cell_length_b                   8.6125(6)
_cell_length_c                   12.0452(8)
_cell_angle_alpha                74.0980(10)
_cell_angle_beta                 87.6680(10)
_cell_angle_gamma                86.0060(10)
_cell_volume                     732.373
loop_
_atom_site_label
_atom_site_type_symbol
_atom_site_fract_x
_atom_site_fract_y
_atom_site_fract_z
Nd1 Nd 0.299523(18) 0.188740(17) 0.495866(11)
O1 O 0.5119(3) 0.0529(3) 0.37739(17)
O2 O 0.5667(3) -0.1495(3) 0.29888(19)
O3 O 0.1609(3) -0.0180(3) 0.42897(17)
O4 O -0.0833(3) -0.0671(3) 0.34362(18)
O5 O -0.3207(3) 0.6087(3) -0.30761(19)
O6 O 0.5893(3) 0.3168(3) 0.47865(19)
O7 O 0.7285(3) 0.5435(3) 0.46396(19)
O8 O -0.0200(3) 0.2895(3) 0.4326(2)
H1 H -0.090(4) 0.215(3) 0.462(3)
H2 H -0.078(4) 0.379(2) 0.428(4)
N1 N -0.0093(4) 0.2891(3) -0.0642(2)
C1 C 0.4830(4) -0.0195(4) 0.3002(2)
C2 C 0.3471(4) 0.0550(4) 0.2058(2)
C3 C 0.1583(4) 0.0566(4) 0.2246(2)
C4 C 0.0425(4) 0.1244(4) 0.1321(3)
H3 H -0.0831 0.1203 0.1435
C5 C 0.1142(4) 0.1975(4) 0.0238(2)
C6 C 0.3002(4) 0.1901(4) 0.0024(2)
H4 H 0.3476 0.2330 -0.0715
C7 C 0.4153(4) 0.1173(4) 0.0936(3)
H5 H 0.5403 0.1100 0.0794
C8 C 0.0712(4) -0.0151(4) 0.3409(2)
C9 C -0.1539(5) 0.3784(4) -0.0336(3)
H6 H -0.1769 0.3703 0.0443
C10 C -0.2647(5) 0.4782(5) -0.1129(3)
H7 H -0.3652 0.5326 -0.0883
C11 C -0.2302(4) 0.5016(4) -0.2340(3)
C12 C -0.0881(5) 0.3957(4) -0.2614(3)
H8 H -0.0683 0.3943 -0.3379
C13 C 0.0193(4) 0.2967(4) -0.1785(3)
H9 H 0.1140 0.2329 -0.1999
C14 C 0.5909(4) 0.4590(4) 0.4836(2)
O6A O 0.4107(3) 0.6832(3) 0.52135(19)
O7A O 0.2715(3) 0.4565(3) 0.53604(19)
C14A C 0.4091(4) 0.5410(4) 0.5164(2)
Nd1A Nd -0.299523(18) -0.188740(17) 0.504134(11)
O1A O -0.5119(3) -0.0529(3) 0.62261(17)
O2A O -0.5667(3) 0.1495(3) 0.70112(19)
O3A O -0.1609(3) 0.0180(3) 0.57103(17)
O4A O 0.0833(3) 0.0671(3) 0.65638(18)
O5A O 0.3207(3) -0.6087(3) 1.30761(19)
O8A O 0.0200(3) -0.2895(3) 0.5674(2)
H1A H 0.090(4) -0.215(3) 0.538(3)
H2A H 0.078(4) -0.379(2) 0.572(4)
N1A N 0.0093(4) -0.2891(3) 1.0642(2)
C1A C -0.4830(4) 0.0195(4) 0.6998(2)
C2A C -0.3471(4) -0.0550(4) 0.7942(2)
C3A C -0.1583(4) -0.0566(4) 0.7754(2)
C4A C -0.0425(4) -0.1244(4) 0.8679(3)
H3A H 0.0831 -0.1203 0.8565
C5A C -0.1142(4) -0.1975(4) 0.9762(2)
C6A C -0.3002(4) -0.1901(4) 0.9976(2)
H4A H -0.3476 -0.2330 1.0715
C7A C -0.4153(4) -0.1173(4) 0.9064(3)
H5A H -0.5403 -0.1100 0.9206
C8A C -0.0712(4) 0.0151(4) 0.6591(2)
C9A C 0.1539(5) -0.3784(4) 1.0336(3)
H6A H 0.1769 -0.3703 0.9557
C10A C 0.2647(5) -0.4782(5) 1.1129(3)
H7A H 0.3652 -0.5326 1.0883
C11A C 0.2302(4) -0.5016(4) 1.2340(3)
C12A C 0.0881(5) -0.3957(4) 1.2614(3)
H8A H 0.0683 -0.3943 1.3379
C13A C -0.0193(4) -0.2967(4) 1.1785(3)
H9A H -0.1140 -0.2329 1.1999
Nd1_2 Nd -0.700477(18) 0.188740(17) 0.495866(11)
Nd1_3 Nd 0.299523(18) -0.811260(17) 1.495866(11)
Nd1A_2 Nd -0.299523(18) 0.811260(17) -0.495866(11)
Nd1A_3 Nd 0.700477(18) -0.188740(17) 0.504134(11)
Nd1A_4 Nd 0.700477(18) 0.811260(17) 0.504134(11)
O1_2 O -0.4881(3) 0.0529(3) 0.37739(17)
O1A_2 O 0.4881(3) -0.0529(3) 0.62261(17)
O2_2 O -0.4333(3) -0.1495(3) 0.29888(19)
O2A_2 O 0.4333(3) 0.1495(3) 0.70112(19)
O5_2 O -0.3207(3) -0.3913(3) 0.69239(19)
O5A_2 O 0.3207(3) 0.3913(3) 0.30761(19)
O6A_2 O -0.5893(3) -0.3168(3) 0.52135(19)
O7_2 O -0.2715(3) -0.4565(3) 0.46396(19)
O9 O -0.6995(5) 0.6214(6) -0.2143(3)
H10 H -0.774(6) 0.663(8) -0.266(3)
H11 H -0.593(3) 0.621(8) -0.242(4)
loop_
_geom_bond_atom_site_label_1
_geom_bond_atom_site_label_2
_geom_bond_site_symmetry_1
_geom_bond_site_symmetry_2
Nd1 O1 1_555 1_555
O1 C1 1_555 1_555
O2 C1 1_555 1_555
O3 Nd1 1_555 1_555
O4 C8 1_555 1_555
O5 C11 1_555 1_555
O6 Nd1 1_555 1_555
O7 C14 1_555 1_555
O8 Nd1 1_555 1_555
H1 O8 1_555 1_555
H2 O8 1_555 1_555
N1 C5 1_555 1_555
C1 C2 1_555 1_555
C2 C3 1_555 1_555
C3 C4 1_555 1_555
C4 H3 1_555 1_555
C5 C4 1_555 1_555
C6 C5 1_555 1_555
H4 C6 1_555 1_555
C7 C2 1_555 1_555
H5 C7 1_555 1_555
C8 O3 1_555 1_555
C9 N1 1_555 1_555
H6 C9 1_555 1_555
C10 C9 1_555 1_555
H7 C10 1_555 1_555
C11 C10 1_555 1_555
C12 C11 1_555 1_555
H8 C12 1_555 1_555
C13 N1 1_555 1_555
H9 C13 1_555 1_555
C14 O6 1_555 1_555
O9 H10 1_555 1_555
H11 O9 1_555 1_555
O6A C14A 1_555 1_555
O7A Nd1 1_555 1_555
C14A C14 1_555 1_555
Nd1A O4 1_555 1_555
O1A Nd1A 1_555 1_555
O2A C1A 1_555 1_555
O3A Nd1A 1_555 1_555
O4A Nd1 1_555 1_555
O5A C11A 1_555 1_555
O8A Nd1A 1_555 1_555
H1A O8A 1_555 1_555
H2A O8A 1_555 1_555
N1A C5A 1_555 1_555
C1A O1A 1_555 1_555
C2A C1A 1_555 1_555
C3A C2A 1_555 1_555
C4A C3A 1_555 1_555
H3A C4A 1_555 1_555
C5A C4A 1_555 1_555
C6A C5A 1_555 1_555
H4A C6A 1_555 1_555
C7A C2A 1_555 1_555
H5A C7A 1_555 1_555
C8A O3A 1_555 1_555
C9A N1A 1_555 1_555
H6A C9A 1_555 1_555
C10A C9A 1_555 1_555
H7A C10A 1_555 1_555
C11A C10A 1_555 1_555
C12A C11A 1_555 1_555
H8A C12A 1_555 1_555
C13A N1A 1_555 1_555
H9A C13A 1_555 1_555
Nd1_2 O1A 1_555 1_555
Nd1_3 O5A 1_555 1_555
Nd1A_2 O5 1_555 1_555
Nd1A_3 O1 1_555 1_555
Nd1A_4 O7 1_555 1_555
O1_2 Nd1A 1_555 1_555
O1A_2 Nd1 1_555 1_555
O2_2 Nd1A 1_555 1_555
O2A_2 Nd1 1_555 1_555
O5_2 Nd1A 1_555 1_555
O5A_2 Nd1 1_555 1_555
O6A_2 Nd1A 1_555 1_555
O7_2 Nd1A 1_555 1_555
O2 Nd1A_3 1_555 1_555
C3 C8 1_555 1_555
C6 C7 1_555 1_555
C12 C13 1_555 1_555
O6A Nd1A_4 1_555 1_555
O7A C14A 1_555 1_555
O2A Nd1_2 1_555 1_555
O4A C8A 1_555 1_555
C3A C8A 1_555 1_555
C6A C7A 1_555 1_555
C12A C13A 1_555 1_555
Nd1_2 O1_2 1_555 1_555
Nd1A_3 O1A_2 1_555 1_555

#END
