
#######################################################################
#
#                 Cambridge Crystallographic Data Centre
#                                CCDC 
#
#######################################################################
#
# If this CIF has been generated from an entry in the Cambridge 
# Structural Database, then it will include bibliographic, chemical, 
# crystal, experimental, refinement or atomic coordinate data resulting 
# from the CCDC's data processing and validation procedures.
#
#######################################################################

data_YIGFUQ
_symmetry_cell_setting           triclinic
_symmetry_space_group_name_H-M   'P -1'
_symmetry_Int_Tables_number      2
_space_group_name_Hall           '-P 1'
loop_
_symmetry_equiv_pos_site_id
_symmetry_equiv_pos_as_xyz
1 x,y,z
2 -x,-y,-z
_cell_length_a                   11.3895(11)
_cell_length_b                   15.1659(14)
_cell_length_c                   17.8768(16)
_cell_angle_alpha                88.365(2)
_cell_angle_beta                 73.960(2)
_cell_angle_gamma                87.750(2)
_cell_volume                     2964.89
loop_
_atom_site_label
_atom_site_type_symbol
_atom_site_fract_x
_atom_site_fract_y
_atom_site_fract_z
Zn1 Zn 0.40910(4) 0.25948(3) 1.09556(3)
Zn2 Zn 0.54773(4) 0.24423(3) 0.44231(3)
N1 N 0.4600(3) 0.2515(2) 0.9710(2)
N2 N 0.5075(3) 0.2481(2) 0.5668(2)
C1 C 0.4924(4) 0.3238(3) 0.9250(2)
H1 H 0.5065 0.3764 0.9484
C2 C 0.5060(4) 0.3250(3) 0.8463(2)
H2 H 0.5296 0.3773 0.8162
C3 C 0.4847(4) 0.2483(3) 0.8108(2)
C4 C 0.4561(5) 0.1729(3) 0.8576(3)
H3 H 0.4450 0.1187 0.8355
C5 C 0.4438(4) 0.1773(3) 0.9362(3)
H4 H 0.4230 0.1254 0.9674
C6 C 0.4819(4) 0.3227(3) 0.6082(3)
H5 H 0.4681 0.3761 0.5823
C7 C 0.4747(4) 0.3250(3) 0.6864(2)
H6 H 0.4563 0.3792 0.7133
C8 C 0.4944(4) 0.2476(3) 0.7260(2)
C9 C 0.5203(4) 0.1707(3) 0.6837(3)
H7 H 0.5340 0.1164 0.7082
C10 C 0.5261(4) 0.1738(3) 0.6050(3)
H8 H 0.5441 0.1205 0.5768
N3 N 0.5926(3) 0.2580(2) 1.1011(2)
N4 N 1.2188(3) 0.2700(2) 1.0952(2)
C11 C 0.6231(4) 0.2808(3) 1.1653(2)
H9 H 0.5594 0.2944 1.2108
C12 C 0.7437(4) 0.2852(3) 1.1682(2)
H10 H 0.7611 0.3011 1.2149
C13 C 0.8385(4) 0.2661(3) 1.1020(2)
C14 C 0.8064(4) 0.2413(3) 1.0358(2)
H11 H 0.8681 0.2269 0.9896
C15 C 0.6852(4) 0.2378(3) 1.0379(2)
H12 H 0.6655 0.2201 0.9924
C16 C 1.1314(4) 0.2561(3) 1.1621(3)
H13 H 1.1558 0.2456 1.2083
C17 C 1.0083(4) 0.2561(3) 1.1672(3)
H14 H 0.9506 0.2466 1.2162
C18 C 0.9685(4) 0.2701(3) 1.1012(2)
C19 C 1.0595(4) 0.2878(3) 1.0315(2)
H15 H 1.0374 0.2999 0.9847
C20 C 1.1794(4) 0.2876(3) 1.0315(3)
H16 H 1.2386 0.3005 0.9838
N5 N 0.7390(3) 0.2394(2) 0.4366(2)
N6 N 1.3611(3) 0.2460(2) 0.4412(2)
C21 C 0.7783(4) 0.2833(3) 0.4896(3)
H17 H 0.7199 0.3172 0.5271
C22 C 0.8975(4) 0.2818(3) 0.4921(3)
H18 H 0.9195 0.3134 0.5311
C23 C 0.9865(4) 0.2337(3) 0.4376(2)
C24 C 0.9482(4) 0.1888(3) 0.3818(2)
H19 H 1.0056 0.1562 0.3428
C25 C 0.8244(4) 0.1924(3) 0.3841(3)
H20 H 0.7993 0.1601 0.3467
C26 C 1.2679(4) 0.2485(3) 0.5072(2)
H21 H 1.2866 0.2542 0.5554
C27 C 1.1469(4) 0.2430(3) 0.5079(3)
H22 H 1.0846 0.2450 0.5558
C28 C 1.1161(4) 0.2346(3) 0.4385(3)
C29 C 1.2122(4) 0.2298(3) 0.3712(3)
H23 H 1.1958 0.2220 0.3226
C30 C 1.3311(4) 0.2361(3) 0.3742(2)
H24 H 1.3948 0.2334 0.3269
N7 N 0.5648(3) 0.4052(2) 0.3743(2)
O1 O 0.5406(3) 0.4028(2) 0.44761(18)
O2 O 0.5836(3) 0.3311(2) 0.34048(18)
O3 O 0.5727(4) 0.4744(2) 0.3368(2)
N8 N 0.5620(3) 0.0860(2) 0.3722(2)
O4 O 0.5352(3) 0.1023(2) 0.44442(19)
O5 O 0.5993(3) 0.1489(2) 0.3256(2)
O6 O 0.5503(3) 0.0125(2) 0.3497(2)
N9 N 0.3758(3) 0.4212(2) 1.1558(2)
O7 O 0.4163(3) 0.4145(2) 1.08316(18)
O8 O 0.3540(3) 0.3496(2) 1.19528(19)
O9 O 0.3592(3) 0.4932(2) 1.1871(2)
N10 N 0.3947(3) 0.0929(2) 1.1640(2)
O10 O 0.4358(4) 0.0980(3) 1.0917(2)
O11 O 0.3596(3) 0.1654(2) 1.1972(3)
O12 O 0.3895(4) 0.0233(2) 1.1990(2)
Zn1_2 Zn -0.59090(4) 0.25948(3) 1.09556(3)
Zn1_3 Zn 1.40910(4) 0.25948(3) 1.09556(3)
Zn2_2 Zn -0.45227(4) 0.24423(3) 0.44231(3)
Zn2_3 Zn 1.54773(4) 0.24423(3) 0.44231(3)
N1_2 N -0.5400(3) 0.2515(2) 0.9710(2)
N2_2 N -0.4925(3) 0.2481(2) 0.5668(2)
C1_2 C -0.5076(4) 0.3238(3) 0.9250(2)
H1_2 H -0.4935 0.3764 0.9484
C2_2 C -0.4940(4) 0.3250(3) 0.8463(2)
H2_2 H -0.4704 0.3773 0.8162
C3_2 C -0.5153(4) 0.2483(3) 0.8108(2)
C4_2 C -0.5439(5) 0.1729(3) 0.8576(3)
H3_2 H -0.5550 0.1187 0.8355
C5_2 C -0.5562(4) 0.1773(3) 0.9362(3)
H4_2 H -0.5770 0.1254 0.9674
C6_2 C -0.5181(4) 0.3227(3) 0.6082(3)
H5_2 H -0.5319 0.3761 0.5823
C7_2 C -0.5253(4) 0.3250(3) 0.6864(2)
H6_2 H -0.5437 0.3792 0.7133
C8_2 C -0.5056(4) 0.2476(3) 0.7260(2)
C9_2 C -0.4797(4) 0.1707(3) 0.6837(3)
H7_2 H -0.4660 0.1164 0.7082
C10_2 C -0.4739(4) 0.1738(3) 0.6050(3)
H8_2 H -0.4559 0.1205 0.5768
N3_2 N -0.4074(3) 0.2580(2) 1.1011(2)
N4_2 N 0.2188(3) 0.2700(2) 1.0952(2)
N4_3 N -0.7812(3) 0.2700(2) 1.0952(2)
C11_2 C -0.3769(4) 0.2808(3) 1.1653(2)
H9_2 H -0.4406 0.2944 1.2108
C12_2 C -0.2563(4) 0.2852(3) 1.1682(2)
H10_2 H -0.2389 0.3011 1.2149
C13_2 C -0.1615(4) 0.2661(3) 1.1020(2)
C14_2 C -0.1936(4) 0.2413(3) 1.0358(2)
H11_2 H -0.1319 0.2269 0.9896
C15_2 C -0.3148(4) 0.2378(3) 1.0379(2)
H12_2 H -0.3345 0.2201 0.9924
C16_2 C 0.1314(4) 0.2561(3) 1.1621(3)
H13_2 H 0.1558 0.2456 1.2083
C17_2 C 0.0083(4) 0.2561(3) 1.1672(3)
H14_2 H -0.0494 0.2466 1.2162
C18_2 C -0.0315(4) 0.2701(3) 1.1012(2)
C19_2 C 0.0595(4) 0.2878(3) 1.0315(2)
H15_2 H 0.0374 0.2999 0.9847
C20_2 C 0.1794(4) 0.2876(3) 1.0315(3)
H16_2 H 0.2386 0.3005 0.9838
N5_2 N -0.2610(3) 0.2394(2) 0.4366(2)
N6_2 N 0.3611(3) 0.2460(2) 0.4412(2)
N6_3 N -0.6389(3) 0.2460(2) 0.4412(2)
C21_2 C -0.2217(4) 0.2833(3) 0.4896(3)
H17_2 H -0.2801 0.3172 0.5271
C22_2 C -0.1025(4) 0.2818(3) 0.4921(3)
H18_2 H -0.0805 0.3134 0.5311
C23_2 C -0.0135(4) 0.2337(3) 0.4376(2)
C24_2 C -0.0518(4) 0.1888(3) 0.3818(2)
H19_2 H 0.0056 0.1562 0.3428
C25_2 C -0.1756(4) 0.1924(3) 0.3841(3)
H20_2 H -0.2007 0.1601 0.3467
C26_2 C 0.2679(4) 0.2485(3) 0.5072(2)
H21_2 H 0.2866 0.2542 0.5554
C27_2 C 0.1469(4) 0.2430(3) 0.5079(3)
H22_2 H 0.0846 0.2450 0.5558
C28_2 C 0.1161(4) 0.2346(3) 0.4385(3)
C29_2 C 0.2122(4) 0.2298(3) 0.3712(3)
H23_2 H 0.1958 0.2220 0.3226
C30_2 C 0.3311(4) 0.2361(3) 0.3742(2)
H24_2 H 0.3948 0.2334 0.3269
N7_2 N -0.4352(3) 0.4052(2) 0.3743(2)
O1_2 O -0.4594(3) 0.4028(2) 0.44761(18)
O2_2 O -0.4164(3) 0.3311(2) 0.34048(18)
O3_2 O -0.4273(4) 0.4744(2) 0.3368(2)
N8_2 N -0.4380(3) 0.0860(2) 0.3722(2)
O4_2 O -0.4648(3) 0.1023(2) 0.44442(19)
O5_2 O -0.4007(3) 0.1489(2) 0.3256(2)
O6_2 O -0.4497(3) 0.0125(2) 0.3497(2)
N9_2 N -0.6242(3) 0.4212(2) 1.1558(2)
O7_2 O -0.5837(3) 0.4145(2) 1.08316(18)
O8_2 O -0.6460(3) 0.3496(2) 1.19528(19)
O9_2 O -0.6408(3) 0.4932(2) 1.1871(2)
N10_2 N -0.6053(3) 0.0929(2) 1.1640(2)
O10_2 O -0.5642(4) 0.0980(3) 1.0917(2)
O11_2 O -0.6404(3) 0.1654(2) 1.1972(3)
O12_2 O -0.6105(4) 0.0233(2) 1.1990(2)
C31 C -0.0706(5) 0.5594(3) 0.6698(3)
H25 H -0.1375 0.5772 0.7121
C32 C 0.0467(5) 0.5569(3) 0.6782(3)
H26 H 0.0595 0.5737 0.7261
C33 C 0.1464(5) 0.5300(3) 0.6173(3)
H27 H 0.2262 0.5271 0.6244
C34 C 0.1291(4) 0.5073(3) 0.5460(3)
C35 C 0.0097(4) 0.5107(3) 0.5363(3)
C36 C 0.2308(4) 0.4826(3) 0.4802(3)
H28 H 0.3114 0.4799 0.4858
C37 C 0.2121(5) 0.4634(3) 0.4117(3)
H29 H 0.2806 0.4490 0.3692
C38 C -0.0917(4) 0.5360(3) 0.5997(3)
C31A C 0.0706(5) 0.4406(3) 0.3302(3)
H25A H 0.1375 0.4228 0.2879
C32A C -0.0467(5) 0.4431(3) 0.3218(3)
H26A H -0.0595 0.4263 0.2739
C33A C -0.1464(5) 0.4700(3) 0.3827(3)
H27A H -0.2262 0.4729 0.3756
C34A C -0.1291(4) 0.4927(3) 0.4540(3)
C35A C -0.0097(4) 0.4893(3) 0.4637(3)
C36A C -0.2308(4) 0.5174(3) 0.5198(3)
H28A H -0.3114 0.5201 0.5142
C37A C -0.2121(5) 0.5366(3) 0.5883(3)
H29A H -0.2806 0.5510 0.6308
C38A C 0.0917(4) 0.4640(3) 0.4003(3)
C39 C 0.9626(5) 0.4577(3) -0.1276(3)
H30 H 0.9698 0.4425 -0.1799
C40 C 0.8511(5) 0.4592(3) -0.0759(3)
H31 H 0.7816 0.4457 -0.0926
C41 C 0.8358(4) 0.4808(3) 0.0034(3)
C42 C 0.7216(4) 0.4823(3) 0.0588(3)
H32 H 0.6507 0.4699 0.0434
C43 C 0.7107(5) 0.5017(3) 0.1356(3)
H33 H 0.6325 0.5015 0.1724
C44 C 0.8123(5) 0.5215(3) 0.1595(3)
H34 H 0.8032 0.5352 0.2124
C45 C 1.0716(4) 0.4785(3) -0.1059(3)
C46 C 0.9412(4) 0.5005(3) 0.0276(3)
C39A C 1.0374(5) 0.5423(3) 0.1276(3)
H30A H 1.0302 0.5575 0.1799
C40A C 1.1489(5) 0.5408(3) 0.0759(3)
H31A H 1.2184 0.5543 0.0926
C41A C 1.1642(4) 0.5192(3) -0.0034(3)
C42A C 1.2784(4) 0.5177(3) -0.0588(3)
H32A H 1.3493 0.5301 -0.0434
C43A C 1.2893(5) 0.4983(3) -0.1356(3)
H33A H 1.3675 0.4985 -0.1724
C44A C 1.1877(5) 0.4785(3) -0.1595(3)
H34A H 1.1968 0.4648 -0.2124
C45A C 0.9284(4) 0.5215(3) 0.1059(3)
C46A C 1.0588(4) 0.4995(3) -0.0276(3)
C47 C -0.1810(6) 0.9490(3) 0.3786(4)
H35 H -0.2300 0.9357 0.3454
C48 C -0.0554(5) 0.9486(3) 0.3490(3)
H36 H -0.0193 0.9343 0.2960
C49 C 0.0192(5) 0.9688(3) 0.3960(3)
C50 C -0.0370(4) 0.9893(3) 0.4749(3)
C51 C 0.1498(5) 0.9725(3) 0.3675(3)
H37 H 0.1883 0.9596 0.3145
C52 C 0.2192(5) 0.9937(3) 0.4138(3)
H38 H 0.3052 0.9967 0.3926
C53 C -0.1661(4) 0.9880(3) 0.5054(3)
C54 C -0.2364(5) 0.9682(3) 0.4551(3)
H39 H -0.3230 0.9681 0.4741
C47A C 0.1810(6) 1.0510(3) 0.6214(4)
H35A H 0.2300 1.0643 0.6546
C48A C 0.0554(5) 1.0514(3) 0.6510(3)
H36A H 0.0193 1.0657 0.7040
C49A C -0.0192(5) 1.0312(3) 0.6040(3)
C50A C 0.0370(4) 1.0107(3) 0.5251(3)
C51A C -0.1498(5) 1.0275(3) 0.6325(3)
H37A H -0.1883 1.0404 0.6855
C52A C -0.2192(5) 1.0063(3) 0.5862(3)
H38A H -0.3052 1.0033 0.6074
C53A C 0.1661(4) 1.0120(3) 0.4946(3)
C54A C 0.2364(5) 1.0318(3) 0.5449(3)
H39A H 0.3230 1.0319 0.5259
C55 C -0.0458(5) 1.0304(3) 1.1058(3)
C56 C 0.0743(6) 1.0350(3) 1.1167(3)
H40 H 0.0821 1.0493 1.1665
C57 C 0.1759(5) 1.0196(3) 1.0582(4)
H41 H 0.2535 1.0241 1.0677
C58 C 0.1707(5) 0.9970(3) 0.9829(3)
C59 C -0.0538(5) 1.0080(3) 1.0309(3)
C60 C 0.2758(5) 0.9804(3) 0.9213(3)
H42 H 0.3543 0.9838 0.9297
C61 C 0.2666(5) 0.9592(3) 0.8487(3)
H43 H 0.3388 0.9480 0.8078
C62 C -0.1544(5) 1.0459(3) 1.1652(3)
H44 H -0.1501 1.0601 1.2157
C55A C 0.0458(5) 0.9696(3) 0.8942(3)
C56A C -0.0743(6) 0.9650(3) 0.8833(3)
H40A H -0.0821 0.9507 0.8335
C57A C -0.1759(5) 0.9804(3) 0.9418(4)
H41A H -0.2535 0.9759 0.9323
C58A C -0.1707(5) 1.0030(3) 1.0171(3)
C59A C 0.0538(5) 0.9920(3) 0.9691(3)
C60A C -0.2758(5) 1.0196(3) 1.0787(3)
H42A H -0.3543 1.0162 1.0703
C61A C -0.2666(5) 1.0408(3) 1.1513(3)
H43A H -0.3388 1.0520 1.1922
C62A C 0.1544(5) 0.9541(3) 0.8348(3)
H44A H 0.1501 0.9399 0.7843
C63 C 1.0264(7) 0.3172(5) 0.6998(4)
C64 C 1.1188(8) 0.2921(5) 0.7268(5)
C65 C 1.1049(8) 0.2291(6) 0.7905(5)
C66 C 0.9902(8) 0.1953(5) 0.8233(5)
C67 C 0.8971(8) 0.2211(5) 0.7948(5)
C68 C 0.9070(7) 0.2856(5) 0.7319(4)
C69 C 1.1875(12) 0.2061(8) 0.8221(7)
C70? C 0.7861(10) 0.1830(7) 0.8321(6)
C71? C 0.8140(10) 0.3187(7) 0.7041(6)
loop_
_geom_bond_atom_site_label_1
_geom_bond_atom_site_label_2
_geom_bond_site_symmetry_1
_geom_bond_site_symmetry_2
Zn1 N1 1_555 1_555
Zn2 N2 1_555 1_555
N1 C1 1_555 1_555
N2 C6 1_555 1_555
C1 H1 1_555 1_555
C2 C1 1_555 1_555
H2 C2 1_555 1_555
C3 C2 1_555 1_555
C4 C3 1_555 1_555
H3 C4 1_555 1_555
C5 N1 1_555 1_555
H4 C5 1_555 1_555
C6 H5 1_555 1_555
C7 C6 1_555 1_555
H6 C7 1_555 1_555
C8 C3 1_555 1_555
C9 C8 1_555 1_555
H7 C9 1_555 1_555
C10 N2 1_555 1_555
H8 C10 1_555 1_555
N3 Zn1 1_555 1_555
N4 C16 1_555 1_555
C11 N3 1_555 1_555
H9 C11 1_555 1_555
C12 C11 1_555 1_555
H10 C12 1_555 1_555
C13 C12 1_555 1_555
C14 C13 1_555 1_555
H11 C14 1_555 1_555
C15 N3 1_555 1_555
H12 C15 1_555 1_555
C16 H13 1_555 1_555
C17 C16 1_555 1_555
H14 C17 1_555 1_555
C18 C13 1_555 1_555
C19 C18 1_555 1_555
H15 C19 1_555 1_555
C20 N4 1_555 1_555
H16 C20 1_555 1_555
N5 Zn2 1_555 1_555
N6 C26 1_555 1_555
C21 N5 1_555 1_555
H17 C21 1_555 1_555
C22 C21 1_555 1_555
H18 C22 1_555 1_555
C23 C22 1_555 1_555
C24 C23 1_555 1_555
H19 C24 1_555 1_555
C25 N5 1_555 1_555
H20 C25 1_555 1_555
C26 H21 1_555 1_555
C27 C26 1_555 1_555
H22 C27 1_555 1_555
C28 C23 1_555 1_555
C29 C28 1_555 1_555
H23 C29 1_555 1_555
C30 N6 1_555 1_555
H24 C30 1_555 1_555
N7 O1 1_555 1_555
O1 Zn2 1_555 1_555
O2 Zn2 1_555 1_555
O3 N7 1_555 1_555
N8 O4 1_555 1_555
O4 Zn2 1_555 1_555
O5 Zn2 1_555 1_555
O6 N8 1_555 1_555
N9 O7 1_555 1_555
O7 Zn1 1_555 1_555
O8 Zn1 1_555 1_555
O9 N9 1_555 1_555
N10 O10 1_555 1_555
O10 Zn1 1_555 1_555
O11 Zn1 1_555 1_555
O12 N10 1_555 1_555
C31 H25 1_555 1_555
C32 C31 1_555 1_555
H26 C32 1_555 1_555
C33 C32 1_555 1_555
H27 C33 1_555 1_555
C34 C33 1_555 1_555
C35 C34 1_555 1_555
C36 C34 1_555 1_555
H28 C36 1_555 1_555
C37 C36 1_555 1_555
H29 C37 1_555 1_555
C38 C31 1_555 1_555
C39 H30 1_555 1_555
C40 C39 1_555 1_555
H31 C40 1_555 1_555
C41 C40 1_555 1_555
C42 C41 1_555 1_555
H32 C42 1_555 1_555
C43 C42 1_555 1_555
H33 C43 1_555 1_555
C44 C43 1_555 1_555
H34 C44 1_555 1_555
C45 C39 1_555 1_555
C46 C41 1_555 1_555
C47 H35 1_555 1_555
C48 C47 1_555 1_555
H36 C48 1_555 1_555
C49 C48 1_555 1_555
C50 C49 1_555 1_555
C51 C49 1_555 1_555
H37 C51 1_555 1_555
C52 C51 1_555 1_555
H38 C52 1_555 1_555
C53 C50 1_555 1_555
C54 C47 1_555 1_555
H39 C54 1_555 1_555
C55 C56 1_555 1_555
C56 H40 1_555 1_555
C57 C56 1_555 1_555
H41 C57 1_555 1_555
C58 C57 1_555 1_555
C59 C55 1_555 1_555
C60 C58 1_555 1_555
H42 C60 1_555 1_555
C61 C60 1_555 1_555
H43 C61 1_555 1_555
C62 C55 1_555 1_555
H44 C62 1_555 1_555
C63 C64 1_555 1_555
C64 C65 1_555 1_555
C65 C66 1_555 1_555
C66 C67 1_555 1_555
C67 C68 1_555 1_555
C68 C63 1_555 1_555
C69 C65 1_555 1_555
Zn1_2 N1_2 1_555 1_555
Zn1_3 N4 1_555 1_555
Zn2_2 N2_2 1_555 1_555
Zn2_3 N6 1_555 1_555
N1_2 C1_2 1_555 1_555
N2_2 C6_2 1_555 1_555
C1_2 H1_2 1_555 1_555
C2_2 C1_2 1_555 1_555
H2_2 C2_2 1_555 1_555
C3_2 C2_2 1_555 1_555
C4_2 C3_2 1_555 1_555
H3_2 C4_2 1_555 1_555
C5_2 N1_2 1_555 1_555
H4_2 C5_2 1_555 1_555
C6_2 H5_2 1_555 1_555
C7_2 C6_2 1_555 1_555
H6_2 C7_2 1_555 1_555
C8_2 C3_2 1_555 1_555
C9_2 C8_2 1_555 1_555
H7_2 C9_2 1_555 1_555
C10_2 N2_2 1_555 1_555
H8_2 C10_2 1_555 1_555
N3_2 Zn1_2 1_555 1_555
N4_2 Zn1 1_555 1_555
N4_3 Zn1_2 1_555 1_555
C11_2 N3_2 1_555 1_555
H9_2 C11_2 1_555 1_555
C12_2 C11_2 1_555 1_555
H10_2 C12_2 1_555 1_555
C13_2 C12_2 1_555 1_555
C14_2 C13_2 1_555 1_555
H11_2 C14_2 1_555 1_555
C15_2 N3_2 1_555 1_555
H12_2 C15_2 1_555 1_555
C16_2 N4_2 1_555 1_555
H13_2 C16_2 1_555 1_555
C17_2 C16_2 1_555 1_555
H14_2 C17_2 1_555 1_555
C18_2 C13_2 1_555 1_555
C19_2 C18_2 1_555 1_555
H15_2 C19_2 1_555 1_555
C20_2 N4_2 1_555 1_555
H16_2 C20_2 1_555 1_555
N5_2 Zn2_2 1_555 1_555
N6_2 Zn2 1_555 1_555
N6_3 Zn2_2 1_555 1_555
C21_2 N5_2 1_555 1_555
H17_2 C21_2 1_555 1_555
C22_2 C21_2 1_555 1_555
H18_2 C22_2 1_555 1_555
C23_2 C22_2 1_555 1_555
C24_2 C23_2 1_555 1_555
H19_2 C24_2 1_555 1_555
C25_2 N5_2 1_555 1_555
H20_2 C25_2 1_555 1_555
C26_2 N6_2 1_555 1_555
H21_2 C26_2 1_555 1_555
C27_2 C26_2 1_555 1_555
H22_2 C27_2 1_555 1_555
C28_2 C23_2 1_555 1_555
C29_2 C28_2 1_555 1_555
H23_2 C29_2 1_555 1_555
C30_2 N6_2 1_555 1_555
H24_2 C30_2 1_555 1_555
N7_2 O1_2 1_555 1_555
O1_2 Zn2_2 1_555 1_555
O2_2 Zn2_2 1_555 1_555
O3_2 N7_2 1_555 1_555
N8_2 O4_2 1_555 1_555
O4_2 Zn2_2 1_555 1_555
O5_2 Zn2_2 1_555 1_555
O6_2 N8_2 1_555 1_555
N9_2 O7_2 1_555 1_555
O7_2 Zn1_2 1_555 1_555
O8_2 Zn1_2 1_555 1_555
O9_2 N9_2 1_555 1_555
N10_2 O10_2 1_555 1_555
O10_2 Zn1_2 1_555 1_555
O11_2 Zn1_2 1_555 1_555
O12_2 N10_2 1_555 1_555
C31A H25A 1_555 1_555
C32A C31A 1_555 1_555
H26A C32A 1_555 1_555
C33A C32A 1_555 1_555
H27A C33A 1_555 1_555
C34A C33A 1_555 1_555
C35A C35 1_555 1_555
C36A C34A 1_555 1_555
H28A C36A 1_555 1_555
C37A C38 1_555 1_555
H29A C37A 1_555 1_555
C38A C37 1_555 1_555
C39A H30A 1_555 1_555
C40A C39A 1_555 1_555
H31A C40A 1_555 1_555
C41A C40A 1_555 1_555
C42A C41A 1_555 1_555
H32A C42A 1_555 1_555
C43A C42A 1_555 1_555
H33A C43A 1_555 1_555
C44A C45 1_555 1_555
H34A C44A 1_555 1_555
C45A C44 1_555 1_555
C46A C45 1_555 1_555
C47A H35A 1_555 1_555
C48A C47A 1_555 1_555
H36A C48A 1_555 1_555
C49A C48A 1_555 1_555
C50A C50 1_555 1_555
C51A C49A 1_555 1_555
H37A C51A 1_555 1_555
C52A C53 1_555 1_555
H38A C52A 1_555 1_555
C53A C52 1_555 1_555
C54A C47A 1_555 1_555
H39A C54A 1_555 1_555
C55A C56A 1_555 1_555
C56A H40A 1_555 1_555
C57A C56A 1_555 1_555
H41A C57A 1_555 1_555
C58A C59 1_555 1_555
C59A C58 1_555 1_555
C60A C58A 1_555 1_555
H42A C60A 1_555 1_555
C61A C62 1_555 1_555
H43A C61A 1_555 1_555
C62A C61 1_555 1_555
H44A C62A 1_555 1_555
C4 C5 1_555 1_555
C7 C8 1_555 1_555
C9 C10 1_555 1_555
C14 C15 1_555 1_555
C17 C18 1_555 1_555
C19 C20 1_555 1_555
C24 C25 1_555 1_555
C27 C28 1_555 1_555
C29 C30 1_555 1_555
N7 O2 1_555 1_555
N8 O5 1_555 1_555
N9 O8 1_555 1_555
N10 O11 1_555 1_555
C35 C38 1_555 1_555
C46 C45A 1_555 1_555
C46 C46A 1_555 1_555
C53 C54 1_555 1_555
C59 C59A 1_555 1_555
C4_2 C5_2 1_555 1_555
C7_2 C8_2 1_555 1_555
C9_2 C10_2 1_555 1_555
C14_2 C15_2 1_555 1_555
C17_2 C18_2 1_555 1_555
C19_2 C20_2 1_555 1_555
C24_2 C25_2 1_555 1_555
C27_2 C28_2 1_555 1_555
C29_2 C30_2 1_555 1_555
N7_2 O2_2 1_555 1_555
N8_2 O5_2 1_555 1_555
N9_2 O8_2 1_555 1_555
N10_2 O11_2 1_555 1_555
C31A C38A 1_555 1_555
C34A C35A 1_555 1_555
C35A C38A 1_555 1_555
C36A C37A 1_555 1_555
C39A C45A 1_555 1_555
C41A C46A 1_555 1_555
C43A C44A 1_555 1_555
C49A C50A 1_555 1_555
C50A C53A 1_555 1_555
C51A C52A 1_555 1_555
C53A C54A 1_555 1_555
C55A C59A 1_555 1_555
C55A C62A 1_555 1_555
C57A C58A 1_555 1_555
C60A C61A 1_555 1_555

#END
