
#######################################################################
#
#                 Cambridge Crystallographic Data Centre
#                                CCDC 
#
#######################################################################
#
# If this CIF has been generated from an entry in the Cambridge 
# Structural Database, then it will include bibliographic, chemical, 
# crystal, experimental, refinement or atomic coordinate data resulting 
# from the CCDC's data processing and validation procedures.
#
#######################################################################

data_YIGQOW05
_symmetry_cell_setting           monoclinic
_symmetry_space_group_name_H-M   'C 2/c'
_symmetry_Int_Tables_number      15
_space_group_name_Hall           '-C 2yn'
loop_
_symmetry_equiv_pos_site_id
_symmetry_equiv_pos_as_xyz
1 x,y,z
2 -x,y,1/2-z
3 1/2+x,1/2+y,z
4 1/2-x,1/2+y,1/2-z
5 -x,-y,-z
6 x,-y,1/2+z
7 1/2-x,1/2-y,-z
8 1/2+x,1/2-y,1/2+z
_cell_length_a                   25.568(4)
_cell_length_b                   11.3313(18)
_cell_length_c                   16.156(3)
_cell_angle_alpha                90
_cell_angle_beta                 100.503(3)
_cell_angle_gamma                90
_cell_volume                     4602.27
loop_
_atom_site_label
_atom_site_type_symbol
_atom_site_fract_x
_atom_site_fract_y
_atom_site_fract_z
Cu1 Cu 0.55002(4) 0.56256(9) 0.73373(6)
Cu2 Cu 0.47870(5) 0.72627(10) 0.66152(7)
Cu3 Cu 0.75380(4) 0.29487(9) 0.07049(6)
I1 I 0.58282(2) 0.79103(5) 0.73219(4)
I2 I 0.462638(19) 0.49580(4) 0.61653(3)
I3 I 0.83568(2) 0.29376(6) -0.00008(4)
N1 N 0.6053(2) 0.4628(6) 0.6919(4)
N2 N 0.6474(3) 0.3841(8) 0.6004(4)
N3 N 0.7401(3) 0.4443(7) 0.2945(4)
N4 N 0.7601(2) 0.3748(6) 0.1775(4)
N5 N 0.4651(3) 0.8103(6) 0.5506(4)
N6 N 0.4778(4) 0.8662(9) 0.4271(5)
C1 C 0.6156(3) 0.4708(9) 0.6169(5)
H1 H 0.6025 0.5300 0.5789
C2 C 0.6322(3) 0.3677(8) 0.7257(5)
H2 H 0.6320 0.3400 0.7799
C3 C 0.6592(4) 0.3185(9) 0.6726(6)
H3 H 0.6814 0.2532 0.6821
C4 C 0.6641(4) 0.3491(13) 0.5133(7)
H4 H 0.6714 0.2653 0.5103
H5 H 0.6372 0.3718 0.4655
C5 C 0.7134(5) 0.4212(10) 0.5188(7)
H6 H 0.7388 0.4007 0.5691
H7 H 0.7051 0.5045 0.5211
C6 C 0.7366(5) 0.3944(13) 0.4406(6)
H8 H 0.7741 0.4142 0.4518
H9 H 0.7336 0.3103 0.4295
C7 C 0.7104(5) 0.4589(11) 0.3642(6)
H10 H 0.6745 0.4295 0.3468
H11 H 0.7083 0.5421 0.3773
C8 C 0.7253(3) 0.3734(8) 0.2282(5)
H12 H 0.6943 0.3287 0.2191
C9 C 0.7871(4) 0.4961(8) 0.2842(6)
H13 H 0.8068 0.5513 0.3194
C10 C 0.7987(3) 0.4511(8) 0.2134(5)
H14 H 0.8290 0.4694 0.1916
C11 C 0.4924(5) 0.7934(9) 0.4916(7)
H15 H 0.5191 0.7370 0.4941
C12 C 0.4296(4) 0.8979(8) 0.5213(5)
H16 H 0.4051 0.9294 0.5513
C13 C 0.4347(4) 0.9321(9) 0.4440(6)
H17 H 0.4144 0.9871 0.4094
C14 C 0.5043(7) 0.8833(17) 0.3529(9)
H18 H 0.5128 0.9663 0.3489
H19 H 0.5374 0.8397 0.3622
C15 C 0.4735(7) 0.8471(15) 0.2760(7)
H20 H 0.4462 0.9038 0.2531
H21 H 0.4580 0.7694 0.2789
N5A N 0.5349(3) 0.8103(6) -0.0506(4)
N6A N 0.5222(4) 0.8662(9) 0.0729(5)
C11A C 0.5076(5) 0.7934(9) 0.0084(7)
H15A H 0.4809 0.7370 0.0059
C12A C 0.5704(4) 0.8979(8) -0.0213(5)
H16A H 0.5949 0.9294 -0.0513
C13A C 0.5653(4) 0.9321(9) 0.0560(6)
H17A H 0.5856 0.9871 0.0906
C14A C 0.4957(7) 0.8833(17) 0.1471(9)
H18A H 0.4872 0.9663 0.1511
H19A H 0.4626 0.8397 0.1378
C15A C 0.5265(7) 0.8471(15) 0.2240(7)
H20A H 0.5538 0.9038 0.2469
H21A H 0.5420 0.7694 0.2211
Cu1A Cu 0.44998(4) 0.56256(9) -0.23373(6)
Cu2A Cu 0.52130(5) 0.72627(10) -0.16152(7)
Cu3A Cu 0.24620(4) 0.29487(9) 0.42951(6)
I1A I 0.41718(2) 0.79103(5) -0.23219(4)
I2A I 0.537362(19) 0.49580(4) -0.11653(3)
I3A I 0.16432(2) 0.29376(6) 0.50008(4)
N1A N 0.3947(2) 0.4628(6) -0.1919(4)
N2A N 0.3526(3) 0.3841(8) -0.1004(4)
N3A N 0.2599(3) 0.4443(7) 0.2055(4)
N4A N 0.2399(2) 0.3748(6) 0.3225(4)
C1A C 0.3844(3) 0.4708(9) -0.1169(5)
H1A H 0.3975 0.5300 -0.0789
C2A C 0.3678(3) 0.3677(8) -0.2257(5)
H2A H 0.3680 0.3400 -0.2799
C3A C 0.3408(4) 0.3185(9) -0.1726(6)
H3A H 0.3186 0.2532 -0.1821
C4A C 0.3359(4) 0.3491(13) -0.0133(7)
H4A H 0.3286 0.2653 -0.0103
H5A H 0.3628 0.3718 0.0345
C5A C 0.2866(5) 0.4212(10) -0.0188(7)
H6A H 0.2612 0.4007 -0.0691
H7A H 0.2949 0.5045 -0.0211
C6A C 0.2634(5) 0.3944(13) 0.0594(6)
H8A H 0.2259 0.4142 0.0482
H9A H 0.2664 0.3103 0.0705
C7A C 0.2896(5) 0.4589(11) 0.1358(6)
H10A H 0.3255 0.4295 0.1532
H11A H 0.2917 0.5421 0.1227
C8A C 0.2747(3) 0.3734(8) 0.2718(5)
H12A H 0.3057 0.3287 0.2809
C9A C 0.2129(4) 0.4961(8) 0.2158(6)
H13A H 0.1932 0.5513 0.1806
C10A C 0.2013(3) 0.4511(8) 0.2866(5)
H14A H 0.1710 0.4694 0.3084
Cu1_2 Cu 0.55002(4) 0.56256(9) -0.26627(6)
Cu1A_2 Cu 0.44998(4) 0.56256(9) 0.76627(6)
Cu2_2 Cu 0.47870(5) 0.72627(10) -0.33848(7)
Cu2A_2 Cu 0.52130(5) 0.72627(10) 0.83848(7)
Cu3F Cu 0.74620(4) 0.20513(9) -0.07049(6)
Cu3G Cu 0.25380(4) 0.20513(9) 0.57049(6)
I1_2 I 0.58282(2) 0.79103(5) -0.26781(4)
I1A_2 I 0.41718(2) 0.79103(5) 0.76781(4)
I2_2 I 0.462638(19) 0.49580(4) -0.38347(3)
I2A_2 I 0.537362(19) 0.49580(4) 0.88347(3)
I3F I 0.66432(2) 0.20624(6) 0.00008(4)
I3G I 0.33568(2) 0.20624(6) 0.49992(4)
loop_
_geom_bond_atom_site_label_1
_geom_bond_atom_site_label_2
_geom_bond_site_symmetry_1
_geom_bond_site_symmetry_2
Cu1 I1 1_555 1_555
Cu2 I1 1_555 1_555
Cu3 I3 1_555 1_555
I1 Cu2A_2 1_555 1_555
I2 Cu1 1_555 1_555
I3 Cu3F 1_555 1_555
N1 Cu1 1_555 1_555
N2 C1 1_555 1_555
N3 C7 1_555 1_555
N4 Cu3 1_555 1_555
N5 Cu2 1_555 1_555
N6 C11 1_555 1_555
C1 N1 1_555 1_555
H1 C1 1_555 1_555
C2 N1 1_555 1_555
H2 C2 1_555 1_555
C3 N2 1_555 1_555
H3 C3 1_555 1_555
C4 N2 1_555 1_555
H4 C4 1_555 1_555
H5 C4 1_555 1_555
C5 C4 1_555 1_555
H6 C5 1_555 1_555
H7 C5 1_555 1_555
C6 C5 1_555 1_555
H8 C6 1_555 1_555
H9 C6 1_555 1_555
C7 C6 1_555 1_555
H10 C7 1_555 1_555
H11 C7 1_555 1_555
C8 N3 1_555 1_555
H12 C8 1_555 1_555
C9 N3 1_555 1_555
H13 C9 1_555 1_555
C10 N4 1_555 1_555
H14 C10 1_555 1_555
C11 N5 1_555 1_555
H15 C11 1_555 1_555
C12 N5 1_555 1_555
H16 C12 1_555 1_555
C13 N6 1_555 1_555
H17 C13 1_555 1_555
C14 N6 1_555 1_555
H18 C14 1_555 1_555
H19 C14 1_555 1_555
C15 C14 1_555 1_555
H20 C15 1_555 1_555
H21 C15 1_555 1_555
N5A C11A 1_555 1_555
N6A C11A 1_555 1_555
C11A H15A 1_555 1_555
C12A N5A 1_555 1_555
H16A C12A 1_555 1_555
C13A N6A 1_555 1_555
H17A C13A 1_555 1_555
C14A N6A 1_555 1_555
H18A C14A 1_555 1_555
H19A C14A 1_555 1_555
C15A C15 1_555 1_555
H20A C15A 1_555 1_555
H21A C15A 1_555 1_555
Cu1A I1A 1_555 1_555
Cu2A N5A 1_555 1_555
Cu3A I3A 1_555 1_555
I1A Cu2A 1_555 1_555
I2A Cu1A 1_555 1_555
I3A Cu3G 1_555 1_555
N1A Cu1A 1_555 1_555
N2A C1A 1_555 1_555
N3A C7A 1_555 1_555
N4A Cu3A 1_555 1_555
C1A N1A 1_555 1_555
H1A C1A 1_555 1_555
C2A N1A 1_555 1_555
H2A C2A 1_555 1_555
C3A N2A 1_555 1_555
H3A C3A 1_555 1_555
C4A N2A 1_555 1_555
H4A C4A 1_555 1_555
H5A C4A 1_555 1_555
C5A C4A 1_555 1_555
H6A C5A 1_555 1_555
H7A C5A 1_555 1_555
C6A C5A 1_555 1_555
H8A C6A 1_555 1_555
H9A C6A 1_555 1_555
C7A C6A 1_555 1_555
H10A C7A 1_555 1_555
H11A C7A 1_555 1_555
C8A N3A 1_555 1_555
H12A C8A 1_555 1_555
C9A N3A 1_555 1_555
H13A C9A 1_555 1_555
C10A N4A 1_555 1_555
H14A C10A 1_555 1_555
Cu1_2 I2A 1_555 1_555
Cu1A_2 I2 1_555 1_555
Cu2_2 I1A 1_555 1_555
Cu2A_2 I1A_2 1_555 1_555
Cu3F I3F 1_555 1_555
Cu3G I3G 1_555 1_555
I1_2 Cu2A 1_555 1_555
I1A_2 Cu2 1_555 1_555
I2_2 Cu1A 1_555 1_555
I2A_2 Cu1 1_555 1_555
I3F Cu3 1_555 1_555
I3G Cu3A 1_555 1_555
Cu2 I2 1_555 1_555
N4 C8 1_555 1_555
C2 C3 1_555 1_555
C9 C10 1_555 1_555
C12 C13 1_555 1_555
C12A C13A 1_555 1_555
C14A C15A 1_555 1_555
Cu2A I2A 1_555 1_555
N4A C8A 1_555 1_555
C2A C3A 1_555 1_555
C9A C10A 1_555 1_555
Cu1_2 I1_2 1_555 1_555
Cu1_2 I2_2 1_555 1_555
Cu1A_2 I1A_2 1_555 1_555
Cu1A_2 I2A_2 1_555 1_555
Cu2_2 I1_2 1_555 1_555
Cu2_2 I2_2 1_555 1_555
Cu2A_2 I2A_2 1_555 1_555

#END
