
#######################################################################
#
#                 Cambridge Crystallographic Data Centre
#                                CCDC 
#
#######################################################################
#
# If this CIF has been generated from an entry in the Cambridge 
# Structural Database, then it will include bibliographic, chemical, 
# crystal, experimental, refinement or atomic coordinate data resulting 
# from the CCDC's data processing and validation procedures.
#
#######################################################################

data_YIGQOU
_symmetry_cell_setting           triclinic
_symmetry_space_group_name_H-M   'P -1'
_symmetry_Int_Tables_number      2
_space_group_name_Hall           '-P 1'
loop_
_symmetry_equiv_pos_site_id
_symmetry_equiv_pos_as_xyz
1 x,y,z
2 -x,-y,-z
_cell_length_a                   10.049(2)
_cell_length_b                   14.290(3)
_cell_length_c                   18.843(7)
_cell_angle_alpha                75.896(17)
_cell_angle_beta                 77.73(2)
_cell_angle_gamma                77.018(7)
_cell_volume                     2521.33
loop_
_atom_site_label
_atom_site_type_symbol
_atom_site_fract_x
_atom_site_fract_y
_atom_site_fract_z
Cu1 Cu -0.08801(4) 1.43987(3) 0.95282(2)
O1 O 0.1105(2) 1.38779(15) 0.92668(13)
O2 O 0.2180(2) 1.46776(16) 0.97884(13)
N1 N -0.1050(3) 1.3286(2) 1.03680(16)
N2 N -0.1992(3) 1.2347(2) 1.13591(19)
H1 H -0.2604 1.2131 1.1738
N3 N -0.0743(3) 1.5520(2) 0.86970(15)
N4 N -0.0014(3) 1.6482(2) 0.76601(17)
H2 H 0.0535 1.6716 0.7256
C1 C -0.2197(4) 1.3165(3) 1.0850(2)
H3 H -0.3057 1.3607 1.0833
C2 C -0.0660(4) 1.1908(3) 1.1182(3)
H4 H -0.0215 1.1294 1.1431
C3 C -0.0095(4) 1.2502(3) 1.0593(3)
H5 H 0.0848 1.2390 1.0363
C4 C 0.0304(3) 1.5660(3) 0.81523(18)
H6 H 0.1174 1.5228 0.8116
C5 C -0.1359(4) 1.6902(3) 0.7899(2)
H7 H -0.1874 1.7495 0.7662
C6 C -0.1799(4) 1.6297(3) 0.8540(2)
H8 H -0.2693 1.6394 0.8834
C7 C 0.2155(3) 1.40985(19) 0.93955(16)
C8 C 0.3526(3) 1.35946(19) 0.90484(16)
C9 C 0.3564(3) 1.28747(19) 0.86595(15)
H9 H 0.2724 1.2718 0.8608
C10 C 0.4811(3) 1.23877(19) 0.83489(15)
C11 C 0.4808(3) 1.1586(2) 0.79570(16)
O3 O 0.5960(2) 1.12176(14) 0.76123(11)
O4 O 0.3694(2) 1.13105(16) 0.80058(13)
C12 C 0.6052(3) 1.2612(2) 0.84179(15)
H10 H 0.6910 1.2284 0.8194
C13 C 0.6026(3) 1.3323(2) 0.88182(16)
C14 C 0.7366(3) 1.3551(2) 0.89186(16)
O5 O 0.7278(2) 1.42356(16) 0.92354(14)
O6 O 0.8477(2) 1.30199(16) 0.86934(13)
C15 C 0.4765(3) 1.3808(2) 0.91277(16)
H11 H 0.4745 1.4293 0.9398
Cu2 Cu 0.60530(3) 0.98988(2) 0.740780(18)
O7 O 0.8384(2) 0.97770(18) 0.71529(14)
N5 N 0.6001(3) 0.93577(17) 0.84803(13)
N6 N 0.6478(3) 0.9134(2) 0.95922(15)
H12 H 0.6874 0.9177 0.9955
N7 N 0.5737(3) 1.04927(17) 0.63819(14)
N8 N 0.6033(3) 1.0659(2) 0.51804(15)
H13 H 0.6356 1.0537 0.4734
C16 C 0.6721(3) 0.9589(2) 0.88911(18)
H14 H 0.7349 1.0035 0.8707
C17 C 0.5500(4) 0.8587(3) 0.9647(2)
H15 H 0.5092 0.8188 1.0083
C18 C 0.5229(4) 0.8729(3) 0.8950(2)
H16 H 0.4593 0.8432 0.8812
C19 C 0.6414(3) 1.0114(2) 0.58063(17)
H17 H 0.7088 0.9528 0.5837
C20 C 0.5059(4) 1.1439(3) 0.53467(19)
H18 H 0.4595 1.1951 0.5010
C21 C 0.4886(3) 1.1334(2) 0.60905(18)
H19 H 0.4271 1.1773 0.6370
O8 O 0.6209(2) 0.86040(14) 0.71718(11)
O9 O 0.3957(2) 0.85869(17) 0.75198(14)
C22 C 0.5128(3) 0.8291(2) 0.71797(16)
C23 C 0.5273(3) 0.7514(2) 0.67392(16)
C24 C 0.6563(3) 0.71001(19) 0.64052(15)
H20 H 0.7373 0.7279 0.6476
C25 C 0.6677(3) 0.64247(19) 0.59664(15)
C26 C 0.8075(3) 0.59974(19) 0.55830(15)
O10 O 0.90908(19) 0.63072(14) 0.56904(12)
O11 O 0.8141(2) 0.54079(16) 0.51954(13)
C27 C 0.5484(3) 0.61665(19) 0.58585(15)
H21 H 0.5558 0.5700 0.5563
C28 C 0.4188(3) 0.6595(2) 0.61857(15)
C29 C 0.2890(3) 0.6394(2) 0.60316(16)
O12 O 0.30154(19) 0.57955(15) 0.56250(11)
O13 O 0.1747(2) 0.68511(15) 0.62976(13)
C30 C 0.4089(3) 0.7259(2) 0.66317(16)
H22 H 0.3206 0.7541 0.6864
Cu3 Cu 1.10867(3) 0.57618(2) 0.547720(19)
N9 N 1.1300(3) 0.67418(18) 0.45438(14)
N10 N 1.2130(4) 0.7768(3) 0.35822(19)
H23 H 1.2697 0.8135 0.3281
N11 N 1.0943(2) 0.47184(18) 0.63812(14)
N12 N 1.0219(3) 0.3761(2) 0.74215(15)
H24 H 0.9668 0.3527 0.7823
C31 C 1.2362(4) 0.7188(3) 0.4233(2)
H25 H 1.3172 0.7108 0.4442
C32 C 1.0900(4) 0.7697(3) 0.3465(2)
H26 H 1.0470 0.8031 0.3048
C33 C 1.0386(4) 0.7061(3) 0.40536(19)
H27 H 0.9519 0.6863 0.4120
C34 C 0.9889(3) 0.4571(2) 0.69203(18)
H28 H 0.9008 0.4990 0.6948
C35 C 1.1570(3) 0.3357(2) 0.72005(19)
H29 H 1.2095 0.2777 0.7448
C36 C 1.2002(3) 0.3953(2) 0.65606(18)
H30 H 1.2904 0.3860 0.6275
H31 H 0.8790(19) 0.9941(13) 0.7494(9)
H35 H 0.907(2) 0.9385(14) 0.6890(11)
O2A O -0.2180(2) 1.53224(16) 1.02116(13)
O5_2 O -0.2722(2) 1.42356(16) 0.92354(14)
Cu1A Cu 0.08801(4) 1.56013(3) 1.04718(2)
Cu1_2 Cu 0.91199(4) 1.43987(3) 0.95282(2)
Cu3A Cu 0.89133(3) 0.42382(2) 0.452280(19)
Cu3_2 Cu 0.10867(3) 0.57618(2) 0.547720(19)
O11A O 1.1859(2) 0.45921(16) 0.48046(13)
O12_2 O 1.30154(19) 0.57955(15) 0.56250(11)
O14 O -0.9682(3) 0.9550(3) 1.19770(18)
H33 H -0.955(3) 0.9364(19) 1.1517(8)
H36 H -1.0607(13) 0.953(3) 1.2176(14)
O15 O -0.2049(3) 0.9514(2) 1.05770(15)
H45 H -0.1104(13) 0.924(4) 1.0567(19)
H46 H -0.245(3) 0.929(3) 1.1071(9)
O16 O -0.9177(3) 0.8917(2) 1.06537(16)
H34 H -0.905(3) 0.8242(9) 1.0858(17)
H37 H -0.844(2) 0.899(2) 1.0253(13)
O17 O -0.7644(2) 1.03706(17) 0.73493(14)
H32 H -0.723(2) 1.0584(13) 0.7676(11)
H38 H -0.735(4) 0.9681(8) 0.746(2)
O18 O 0.0442(3) 0.87717(17) 1.61982(15)
H39 H 0.1073(18) 0.9179(11) 1.617(3)
H40 H 0.097(3) 0.8138(8) 1.624(3)
O19 O -0.2089(3) 0.98277(19) 1.40676(14)
H41 H -0.236(2) 0.9637(17) 1.3689(8)
H42 H -0.194(5) 0.9256(15) 1.4432(12)
O20 O -0.1122(3) 0.84623(18) 1.52642(15)
H43 H -0.064(2) 0.8675(15) 1.5554(14)
H44 H -0.096(4) 0.7775(8) 1.542(2)
loop_
_geom_bond_atom_site_label_1
_geom_bond_atom_site_label_2
_geom_bond_site_symmetry_1
_geom_bond_site_symmetry_2
Cu1 O1 1_555 1_555
O1 C7 1_555 1_555
O2 C7 1_555 1_555
N1 Cu1 1_555 1_555
N2 H1 1_555 1_555
N3 Cu1 1_555 1_555
N4 H2 1_555 1_555
C1 N1 1_555 1_555
H3 C1 1_555 1_555
C2 N2 1_555 1_555
H4 C2 1_555 1_555
C3 N1 1_555 1_555
H5 C3 1_555 1_555
C4 N3 1_555 1_555
H6 C4 1_555 1_555
C5 N4 1_555 1_555
H7 C5 1_555 1_555
C6 N3 1_555 1_555
H8 C6 1_555 1_555
C7 C8 1_555 1_555
C8 C9 1_555 1_555
C9 H9 1_555 1_555
C10 C9 1_555 1_555
C11 C10 1_555 1_555
O3 C11 1_555 1_555
O4 C11 1_555 1_555
C12 C10 1_555 1_555
H10 C12 1_555 1_555
C13 C12 1_555 1_555
C14 C13 1_555 1_555
O5 C14 1_555 1_555
O6 C14 1_555 1_555
C15 C8 1_555 1_555
H11 C15 1_555 1_555
Cu2 O3 1_555 1_555
O7 Cu2 1_555 1_555
N5 Cu2 1_555 1_555
N6 H12 1_555 1_555
N7 Cu2 1_555 1_555
N8 H13 1_555 1_555
C16 N5 1_555 1_555
H14 C16 1_555 1_555
C17 N6 1_555 1_555
H15 C17 1_555 1_555
C18 N5 1_555 1_555
H16 C18 1_555 1_555
C19 N7 1_555 1_555
H17 C19 1_555 1_555
C20 N8 1_555 1_555
H18 C20 1_555 1_555
C21 N7 1_555 1_555
H19 C21 1_555 1_555
O8 Cu2 1_555 1_555
O9 C22 1_555 1_555
C22 O8 1_555 1_555
C23 C22 1_555 1_555
C24 C23 1_555 1_555
H20 C24 1_555 1_555
C25 C24 1_555 1_555
C26 C25 1_555 1_555
O10 C26 1_555 1_555
O11 C26 1_555 1_555
C27 C25 1_555 1_555
H21 C27 1_555 1_555
C28 C27 1_555 1_555
C29 C28 1_555 1_555
O12 C29 1_555 1_555
O13 C29 1_555 1_555
C30 C23 1_555 1_555
H22 C30 1_555 1_555
Cu3 O10 1_555 1_555
N9 Cu3 1_555 1_555
N10 H23 1_555 1_555
N11 Cu3 1_555 1_555
N12 H24 1_555 1_555
C31 N9 1_555 1_555
H25 C31 1_555 1_555
C32 N10 1_555 1_555
H26 C32 1_555 1_555
C33 N9 1_555 1_555
H27 C33 1_555 1_555
C34 N11 1_555 1_555
H28 C34 1_555 1_555
C35 N12 1_555 1_555
H29 C35 1_555 1_555
C36 N11 1_555 1_555
H30 C36 1_555 1_555
O14 H33 1_555 1_555
O15 H45 1_555 1_555
O16 H34 1_555 1_555
O17 H32 1_555 1_555
O18 H39 1_555 1_555
H31 O7 1_555 1_555
H35 O7 1_555 1_555
H36 O14 1_555 1_555
H37 O16 1_555 1_555
H38 O17 1_555 1_555
H40 O18 1_555 1_555
O19 H41 1_555 1_555
H42 O19 1_555 1_555
O20 H43 1_555 1_555
H44 O20 1_555 1_555
H46 O15 1_555 1_555
O2A Cu1 1_555 1_555
O5_2 Cu1 1_555 1_555
Cu1A O2 1_555 1_555
Cu1_2 O5 1_555 1_555
Cu3A O11 1_555 1_555
Cu3_2 O12 1_555 1_555
O11A Cu3 1_555 1_555
O12_2 Cu3 1_555 1_555
N2 C1 1_555 1_555
N4 C4 1_555 1_555
C2 C3 1_555 1_555
C5 C6 1_555 1_555
C13 C15 1_555 1_555
N6 C16 1_555 1_555
N8 C19 1_555 1_555
C17 C18 1_555 1_555
C20 C21 1_555 1_555
C28 C30 1_555 1_555
N10 C31 1_555 1_555
N12 C34 1_555 1_555
C32 C33 1_555 1_555
C35 C36 1_555 1_555

#END
