
#######################################################################
#
#                 Cambridge Crystallographic Data Centre
#                                CCDC 
#
#######################################################################
#
# If this CIF has been generated from an entry in the Cambridge 
# Structural Database, then it will include bibliographic, chemical, 
# crystal, experimental, refinement or atomic coordinate data resulting 
# from the CCDC's data processing and validation procedures.
#
#######################################################################

data_YIGQOW04
_symmetry_cell_setting           monoclinic
_symmetry_space_group_name_H-M   'C 2/c'
_symmetry_Int_Tables_number      15
_space_group_name_Hall           '-C 2yn'
loop_
_symmetry_equiv_pos_site_id
_symmetry_equiv_pos_as_xyz
1 x,y,z
2 -x,y,1/2-z
3 1/2+x,1/2+y,z
4 1/2-x,1/2+y,1/2-z
5 -x,-y,-z
6 x,-y,1/2+z
7 1/2-x,1/2-y,-z
8 1/2+x,1/2-y,1/2+z
_cell_length_a                   25.378(5)
_cell_length_b                   11.304(2)
_cell_length_c                   16.147(3)
_cell_angle_alpha                90
_cell_angle_beta                 100.60(3)
_cell_angle_gamma                90
_cell_volume                     4553.09
loop_
_atom_site_label
_atom_site_type_symbol
_atom_site_fract_x
_atom_site_fract_y
_atom_site_fract_z
Cu1 Cu 0.47902(3) 0.27465(6) 0.66094(4)
Cu2 Cu 0.55074(3) 0.43572(6) 0.73459(4)
Cu3 Cu 0.75437(3) 0.70673(6) 0.07085(4)
I1 I 0.583371(15) 0.20755(3) 0.73322(2)
I2 I 0.462666(14) 0.50582(3) 0.61677(2)
I3 I 0.836779(16) 0.70681(3) -0.00018(2)
N1 N 0.6466(2) 0.6175(5) 0.5983(3)
N2 N 0.60577(18) 0.5354(4) 0.6926(3)
N3 N 0.76079(18) 0.6256(4) 0.1787(3)
N4 N 0.7405(2) 0.5527(4) 0.2945(3)
N5 N 0.4640(2) 0.1893(4) 0.5494(3)
N6 N 0.4723(3) 0.1366(6) 0.4228(4)
C1 C 0.6335(2) 0.6348(5) 0.7271(3)
H1 H 0.6343 0.6630 0.7820
C2 C 0.6588(3) 0.6843(6) 0.6703(4)
H2 H 0.6808 0.7518 0.6781
C3 C 0.6153(2) 0.5269(6) 0.6157(3)
H3 H 0.6022 0.4662 0.5778
C4 C 0.6648(3) 0.6405(7) 0.5166(4)
H4 H 0.6385 0.6097 0.4694
H5 H 0.6688 0.7257 0.5084
C5 C 0.7172(3) 0.5798(6) 0.5208(4)
H6 H 0.7124 0.4946 0.5280
H7 H 0.7424 0.6085 0.5700
C6 C 0.7411(3) 0.6008(6) 0.4410(4)
H8 H 0.7398 0.6857 0.4285
H9 H 0.7788 0.5769 0.4524
C7 C 0.7131(3) 0.5359(6) 0.3657(4)
H10 H 0.7120 0.4514 0.3789
H11 H 0.6761 0.5645 0.3506
C8 C 0.7879(3) 0.5014(5) 0.2843(3)
H12 H 0.8080 0.4455 0.3201
C9 C 0.8001(2) 0.5464(5) 0.2135(3)
H13 H 0.8307 0.5271 0.1910
C10 C 0.7256(2) 0.6264(5) 0.2296(3)
H14 H 0.6942 0.6726 0.2214
C11 C 0.4895(4) 0.2090(7) 0.4889(5)
H15 H 0.5165 0.2663 0.4905
C12 C 0.4333(3) 0.0684(5) 0.4431(4)
H16 H 0.4134 0.0098 0.4096
C13 C 0.4287(2) 0.1015(5) 0.5214(3)
H17 H 0.4043 0.0686 0.5524
C14 C 0.5051(6) 0.1067(12) 0.3547(9)
C15 C 0.4666(5) 0.1490(11) 0.2722(9)
C16 C 0.4709(7) 0.1731(14) 0.3186(11)
C17 C 0.5207(7) 0.1181(14) 0.3145(11)
N5A N 0.5360(2) 0.1893(4) -0.0494(3)
N6A N 0.5277(3) 0.1366(6) 0.0772(4)
C11A C 0.5105(4) 0.2090(7) 0.0111(5)
H15A H 0.4835 0.2663 0.0095
C12A C 0.5667(3) 0.0684(5) 0.0569(4)
H16A H 0.5866 0.0098 0.0904
C13A C 0.5713(2) 0.1015(5) -0.0214(3)
H17A H 0.5957 0.0686 -0.0524
C14A C 0.4949(6) 0.1067(12) 0.1453(9)
C15A C 0.5334(5) 0.1490(11) 0.2278(9)
C16A C 0.5291(7) 0.1731(14) 0.1814(11)
C17A C 0.4793(7) 0.1181(14) 0.1855(11)
Cu1A Cu 0.52098(3) 0.27465(6) -0.16094(4)
Cu2A Cu 0.44926(3) 0.43572(6) -0.23459(4)
Cu3A Cu 0.24563(3) 0.70673(6) 0.42915(4)
I1A I 0.416629(15) 0.20755(3) -0.23322(2)
I2A I 0.537334(14) 0.50582(3) -0.11677(2)
I3A I 0.163221(16) 0.70681(3) 0.50018(2)
N1A N 0.3534(2) 0.6175(5) -0.0983(3)
N2A N 0.39423(18) 0.5354(4) -0.1926(3)
N3A N 0.23921(18) 0.6256(4) 0.3213(3)
N4A N 0.2595(2) 0.5527(4) 0.2055(3)
C1A C 0.3665(2) 0.6348(5) -0.2271(3)
H1A H 0.3657 0.6630 -0.2820
C2A C 0.3412(3) 0.6843(6) -0.1703(4)
H2A H 0.3192 0.7518 -0.1781
C3A C 0.3847(2) 0.5269(6) -0.1157(3)
H3A H 0.3978 0.4662 -0.0778
C4A C 0.3352(3) 0.6405(7) -0.0166(4)
H4A H 0.3615 0.6097 0.0306
H5A H 0.3312 0.7257 -0.0084
C5A C 0.2828(3) 0.5798(6) -0.0208(4)
H6A H 0.2876 0.4946 -0.0280
H7A H 0.2576 0.6085 -0.0700
C6A C 0.2589(3) 0.6008(6) 0.0590(4)
H8A H 0.2602 0.6857 0.0715
H9A H 0.2212 0.5769 0.0476
C7A C 0.2869(3) 0.5359(6) 0.1343(4)
H10A H 0.2880 0.4514 0.1211
H11A H 0.3239 0.5645 0.1494
C8A C 0.2121(3) 0.5014(5) 0.2157(3)
H12A H 0.1920 0.4455 0.1799
C9A C 0.1999(2) 0.5464(5) 0.2865(3)
H13A H 0.1693 0.5271 0.3090
C10A C 0.2744(2) 0.6264(5) 0.2704(3)
H14A H 0.3058 0.6726 0.2786
Cu1_2 Cu 0.47902(3) 0.27465(6) -0.33906(4)
Cu1A_2 Cu 0.52098(3) 0.27465(6) 0.83906(4)
Cu2_2 Cu 0.55074(3) 0.43572(6) -0.26541(4)
Cu2A_2 Cu 0.44926(3) 0.43572(6) 0.76541(4)
Cu3F Cu 0.74563(3) 0.79327(6) -0.07085(4)
Cu3G Cu 0.25437(3) 0.79327(6) 0.57085(4)
I1_2 I 0.583371(15) 0.20755(3) -0.26678(2)
I1A_2 I 0.416629(15) 0.20755(3) 0.76678(2)
I2_2 I 0.462666(14) 0.50582(3) -0.38323(2)
I2A_2 I 0.537334(14) 0.50582(3) 0.88323(2)
I3F I 0.663221(16) 0.79319(3) 0.00018(2)
I3G I 0.336779(16) 0.79319(3) 0.49982(2)
loop_
_geom_bond_atom_site_label_1
_geom_bond_atom_site_label_2
_geom_bond_site_symmetry_1
_geom_bond_site_symmetry_2
Cu1 I1 1_555 1_555
Cu2 I1 1_555 1_555
Cu3 I3 1_555 1_555
I1 Cu1A_2 1_555 1_555
I2 Cu1 1_555 1_555
I3 Cu3F 1_555 1_555
N1 C2 1_555 1_555
N2 Cu2 1_555 1_555
N3 Cu3 1_555 1_555
N4 C7 1_555 1_555
N5 Cu1 1_555 1_555
N6 C11 1_555 1_555
C1 N2 1_555 1_555
H1 C1 1_555 1_555
C2 C1 1_555 1_555
H2 C2 1_555 1_555
C3 N1 1_555 1_555
H3 C3 1_555 1_555
C4 N1 1_555 1_555
H4 C4 1_555 1_555
H5 C4 1_555 1_555
C5 C4 1_555 1_555
H6 C5 1_555 1_555
H7 C5 1_555 1_555
C6 C5 1_555 1_555
H8 C6 1_555 1_555
H9 C6 1_555 1_555
C7 C6 1_555 1_555
H10 C7 1_555 1_555
H11 C7 1_555 1_555
C8 N4 1_555 1_555
H12 C8 1_555 1_555
C9 N3 1_555 1_555
H13 C9 1_555 1_555
C10 N3 1_555 1_555
H14 C10 1_555 1_555
C11 N5 1_555 1_555
H15 C11 1_555 1_555
C12 N6 1_555 1_555
H16 C12 1_555 1_555
C13 N5 1_555 1_555
H17 C13 1_555 1_555
C14 N6 1_555 1_555
C15 C14 1_555 1_555
C16 N6 1_555 1_555
C17 C14 1_555 1_555
N5A C11A 1_555 1_555
N6A C11A 1_555 1_555
C11A H15A 1_555 1_555
C12A N6A 1_555 1_555
H16A C12A 1_555 1_555
C13A N5A 1_555 1_555
H17A C13A 1_555 1_555
C14A N6A 1_555 1_555
C15A C17 1_555 1_555
C16A N6A 1_555 1_555
C17A C15 1_555 1_555
Cu1A N5A 1_555 1_555
Cu2A I1A 1_555 1_555
Cu3A I3A 1_555 1_555
I1A Cu1A 1_555 1_555
I2A Cu1A 1_555 1_555
I3A Cu3G 1_555 1_555
N1A C2A 1_555 1_555
N2A Cu2A 1_555 1_555
N3A Cu3A 1_555 1_555
N4A C7A 1_555 1_555
C1A N2A 1_555 1_555
H1A C1A 1_555 1_555
C2A C1A 1_555 1_555
H2A C2A 1_555 1_555
C3A N1A 1_555 1_555
H3A C3A 1_555 1_555
C4A N1A 1_555 1_555
H4A C4A 1_555 1_555
H5A C4A 1_555 1_555
C5A C4A 1_555 1_555
H6A C5A 1_555 1_555
H7A C5A 1_555 1_555
C6A C5A 1_555 1_555
H8A C6A 1_555 1_555
H9A C6A 1_555 1_555
C7A C6A 1_555 1_555
H10A C7A 1_555 1_555
H11A C7A 1_555 1_555
C8A N4A 1_555 1_555
H12A C8A 1_555 1_555
C9A N3A 1_555 1_555
H13A C9A 1_555 1_555
C10A N3A 1_555 1_555
H14A C10A 1_555 1_555
Cu1_2 I1A 1_555 1_555
Cu1A_2 I1A_2 1_555 1_555
Cu2_2 I2A 1_555 1_555
Cu2A_2 I2 1_555 1_555
Cu3F I3F 1_555 1_555
Cu3G I3G 1_555 1_555
I1_2 Cu1A 1_555 1_555
I1A_2 Cu1 1_555 1_555
I2_2 Cu2A 1_555 1_555
I2A_2 Cu2 1_555 1_555
I3F Cu3 1_555 1_555
I3G Cu3A 1_555 1_555
Cu2 I2 1_555 1_555
N2 C3 1_555 1_555
N4 C10 1_555 1_555
C8 C9 1_555 1_555
C12 C13 1_555 1_555
C14 C16 1_555 1_555
C15 C16 1_555 1_555
C15 C17 1_555 1_555
C16 C17 1_555 1_555
C12A C13A 1_555 1_555
C14A C15A 1_555 1_555
C14A C16A 1_555 1_555
C14A C17A 1_555 1_555
C15A C16A 1_555 1_555
C15A C17A 1_555 1_555
C16A C17A 1_555 1_555
Cu2A I2A 1_555 1_555
N2A C3A 1_555 1_555
N4A C10A 1_555 1_555
C8A C9A 1_555 1_555
Cu1_2 I1_2 1_555 1_555
Cu1_2 I2_2 1_555 1_555
Cu1A_2 I2A_2 1_555 1_555
Cu2_2 I1_2 1_555 1_555
Cu2_2 I2_2 1_555 1_555
Cu2A_2 I1A_2 1_555 1_555
Cu2A_2 I2A_2 1_555 1_555

#END
