
#######################################################################
#
#                 Cambridge Crystallographic Data Centre
#                                CCDC 
#
#######################################################################
#
# If this CIF has been generated from an entry in the Cambridge 
# Structural Database, then it will include bibliographic, chemical, 
# crystal, experimental, refinement or atomic coordinate data resulting 
# from the CCDC's data processing and validation procedures.
#
#######################################################################

data_YIGRIR01
_symmetry_cell_setting           orthorhombic
_symmetry_space_group_name_H-M   'P n n 2'
_symmetry_Int_Tables_number      34
_space_group_name_Hall           'P 2 -2n'
loop_
_symmetry_equiv_pos_site_id
_symmetry_equiv_pos_as_xyz
1 x,y,z
2 -x,-y,z
3 1/2+x,1/2-y,1/2+z
4 1/2-x,1/2+y,1/2+z
_cell_length_a                   17.7336(11)
_cell_length_b                   9.6470(6)
_cell_length_c                   9.9065(6)
_cell_angle_alpha                90
_cell_angle_beta                 90
_cell_angle_gamma                90
_cell_volume                     1694.76
loop_
_atom_site_label
_atom_site_type_symbol
_atom_site_fract_x
_atom_site_fract_y
_atom_site_fract_z
Cu1 Cu 0.53300(4) 0.15158(7) 0.73968(8)
Cu2 Cu 0.57207(4) -0.04345(8) 0.92725(8)
I1 I 0.612612(18) -0.08502(3) 0.67139(4)
I2 I 0.54732(2) 0.22095(4) 0.99200(4)
C1 C 0.6085(4) 0.4961(6) 0.7093(6)
H1 H 0.6610 0.5240 0.7067
H2 H 0.5995 0.4404 0.7893
H3 H 0.5767 0.5778 0.7119
C2 C 0.5906(3) 0.4138(5) 0.5877(6)
C3 C 0.5562(4) 0.2429(7) 0.4576(7)
H4 H 0.5388 0.1560 0.4281
C4 C 0.5780(3) 0.3476(6) 0.3760(7)
H5 H 0.5787 0.3469 0.2811
C5 C 0.6280(3) 0.5901(5) 0.4128(7)
H6 H 0.6168 0.6608 0.4810
H7 H 0.6019 0.6162 0.3294
C6 C 0.7114(4) 0.5877(7) 0.3873(9)
H8 H 0.7226 0.5160 0.3201
H9 H 0.7374 0.5625 0.4711
C7 C 0.7421(4) 0.7251(7) 0.3375(8)
H10 H 0.7296 0.7971 0.4037
H11 H 0.7972 0.7188 0.3325
C8 C 0.7391(4) 0.7007(8) 0.0867(9)
H12 H 0.7761 0.6314 0.0793
C9 C 0.7001(4) 0.7569(8) -0.0110(10)
H13 H 0.7047 0.7317 -0.1023
C10 C 0.6618(3) 0.8578(6) 0.1684(8)
C11 C 0.6236(5) 0.9508(9) 0.2617(9)
H14 H 0.5876 0.8987 0.3152
H15 H 0.5973 1.0221 0.2112
H16 H 0.6605 0.9936 0.3209
N1 N 0.5633(3) 0.2827(4) 0.5901(6)
N2 N 0.5991(3) 0.4559(5) 0.4592(5)
N3 N 0.6511(3) 0.8582(6) 0.0361(6)
N4 N 0.7135(3) 0.7671(6) 0.2066(6)
Cu1A Cu 0.46700(4) -0.15158(7) 0.73968(8)
Cu2_2 Cu 0.57207(4) 0.95655(8) -0.07275(8)
Cu2A Cu 0.42793(4) 0.04345(8) 0.92725(8)
I1A I 0.387388(18) 0.08502(3) 0.67139(4)
I2A I 0.45268(2) -0.22095(4) 0.99200(4)
N3_2 N 0.6511(3) -0.1418(6) 1.0361(6)
loop_
_geom_bond_atom_site_label_1
_geom_bond_atom_site_label_2
_geom_bond_site_symmetry_1
_geom_bond_site_symmetry_2
Cu1 I1 1_555 1_555
Cu2 I1 1_555 1_555
I1 Cu1A 1_555 1_555
I2 Cu1 1_555 1_555
C1 H1 1_555 1_555
H2 C1 1_555 1_555
H3 C1 1_555 1_555
C2 C1 1_555 1_555
C3 H4 1_555 1_555
C4 C3 1_555 1_555
H5 C4 1_555 1_555
C5 H6 1_555 1_555
H7 C5 1_555 1_555
C6 C5 1_555 1_555
H8 C6 1_555 1_555
H9 C6 1_555 1_555
C7 C6 1_555 1_555
H10 C7 1_555 1_555
H11 C7 1_555 1_555
C8 H12 1_555 1_555
C9 C8 1_555 1_555
H13 C9 1_555 1_555
C10 C11 1_555 1_555
C11 H14 1_555 1_555
H15 C11 1_555 1_555
H16 C11 1_555 1_555
N1 Cu1 1_555 1_555
N2 C2 1_555 1_555
N3 C9 1_555 1_555
N4 C7 1_555 1_555
Cu1A I1A 1_555 1_555
Cu2_2 N3 1_555 1_555
Cu2A I2 1_555 1_555
I1A Cu1 1_555 1_555
I2A Cu2 1_555 1_555
N3_2 Cu2 1_555 1_555
Cu2 I2 1_555 1_555
C2 N1 1_555 1_555
C3 N1 1_555 1_555
C4 N2 1_555 1_555
C5 N2 1_555 1_555
C8 N4 1_555 1_555
C10 N3 1_555 1_555
C10 N4 1_555 1_555
Cu1A I2A 1_555 1_555
Cu2A I1A 1_555 1_555
Cu2A I2A 1_555 1_555

#END
