
#######################################################################
#
#                 Cambridge Crystallographic Data Centre
#                                CCDC 
#
#######################################################################
#
# If this CIF has been generated from an entry in the Cambridge 
# Structural Database, then it will include bibliographic, chemical, 
# crystal, experimental, refinement or atomic coordinate data resulting 
# from the CCDC's data processing and validation procedures.
#
#######################################################################

data_YIGRIR03
_symmetry_cell_setting           orthorhombic
_symmetry_space_group_name_H-M   'P n n 2'
_symmetry_Int_Tables_number      34
_space_group_name_Hall           'P 2 -2n'
loop_
_symmetry_equiv_pos_site_id
_symmetry_equiv_pos_as_xyz
1 x,y,z
2 -x,-y,z
3 1/2+x,1/2-y,1/2+z
4 1/2-x,1/2+y,1/2+z
_cell_length_a                   17.6379(5)
_cell_length_b                   9.6123(5)
_cell_length_c                   9.8809(9)
_cell_angle_alpha                90
_cell_angle_beta                 90
_cell_angle_gamma                90
_cell_volume                     1675.22
loop_
_atom_site_label
_atom_site_type_symbol
_atom_site_fract_x
_atom_site_fract_y
_atom_site_fract_z
Cu1 Cu 0.53255(4) 0.15025(6) 0.74026(7)
Cu2 Cu 0.57154(4) -0.04282(7) 0.92560(8)
I1 I 0.613150(17) -0.08488(3) 0.67019(4)
I2 I 0.546531(19) 0.22180(3) 0.99318(4)
C1 C 0.6083(3) 0.4977(6) 0.7100(6)
H1 H 0.6616 0.5264 0.7065
H2 H 0.5996 0.4418 0.7915
H3 H 0.5758 0.5804 0.7124
C2 C 0.5899(3) 0.4137(5) 0.5882(6)
C3 C 0.5563(3) 0.2429(6) 0.4575(6)
H4 H 0.5389 0.1546 0.4273
C4 C 0.5782(3) 0.3480(5) 0.3753(6)
H5 H 0.5789 0.3476 0.2792
C5 C 0.6279(3) 0.5917(5) 0.4130(7)
H6 H 0.6158 0.6631 0.4819
H7 H 0.6017 0.6178 0.3281
C6 C 0.7122(3) 0.5901(7) 0.3886(8)
H8 H 0.7241 0.5175 0.3209
H9 H 0.7382 0.5649 0.4739
C7 C 0.7429(3) 0.7292(6) 0.3388(7)
H10 H 0.7292 0.8023 0.4050
H11 H 0.7989 0.7241 0.3351
C8 C 0.7416(4) 0.7044(7) 0.0871(8)
H12 H 0.7800 0.6354 0.0804
C9 C 0.7018(3) 0.7608(7) -0.0143(9)
H13 H 0.7070 0.7362 -0.1070
C10 C 0.6616(3) 0.8590(6) 0.1682(8)
C11 C 0.6214(4) 0.9501(8) 0.2625(8)
H14 H 0.5906 0.8937 0.3241
H15 H 0.5885 1.0135 0.2116
H16 H 0.6583 1.0042 0.3149
N1 N 0.5628(3) 0.2820(4) 0.5906(5)
N2 N 0.5991(3) 0.4558(4) 0.4592(5)
N3 N 0.6517(3) 0.8606(5) 0.0353(6)
N4 N 0.7147(3) 0.7693(5) 0.2065(5)
Cu1A Cu 0.46745(4) -0.15025(6) 0.74026(7)
Cu2_2 Cu 0.57154(4) 0.95718(7) -0.07440(8)
Cu2A Cu 0.42846(4) 0.04282(7) 0.92560(8)
I1A I 0.386850(17) 0.08488(3) 0.67019(4)
I2A I 0.453469(19) -0.22180(3) 0.99318(4)
N3_2 N 0.6517(3) -0.1394(5) 1.0353(6)
loop_
_geom_bond_atom_site_label_1
_geom_bond_atom_site_label_2
_geom_bond_site_symmetry_1
_geom_bond_site_symmetry_2
Cu1 I1 1_555 1_555
Cu2 I1 1_555 1_555
I1 Cu1A 1_555 1_555
I2 Cu1 1_555 1_555
C1 H1 1_555 1_555
H2 C1 1_555 1_555
H3 C1 1_555 1_555
C2 C1 1_555 1_555
C3 H4 1_555 1_555
C4 C3 1_555 1_555
H5 C4 1_555 1_555
C5 H6 1_555 1_555
H7 C5 1_555 1_555
C6 C5 1_555 1_555
H8 C6 1_555 1_555
H9 C6 1_555 1_555
C7 C6 1_555 1_555
H10 C7 1_555 1_555
H11 C7 1_555 1_555
C8 H12 1_555 1_555
C9 C8 1_555 1_555
H13 C9 1_555 1_555
C10 C11 1_555 1_555
C11 H14 1_555 1_555
H15 C11 1_555 1_555
H16 C11 1_555 1_555
N1 Cu1 1_555 1_555
N2 C2 1_555 1_555
N3 C9 1_555 1_555
N4 C7 1_555 1_555
Cu1A I1A 1_555 1_555
Cu2_2 N3 1_555 1_555
Cu2A I2 1_555 1_555
I1A Cu1 1_555 1_555
I2A Cu2 1_555 1_555
N3_2 Cu2 1_555 1_555
Cu2 I2 1_555 1_555
C2 N1 1_555 1_555
C3 N1 1_555 1_555
C4 N2 1_555 1_555
C5 N2 1_555 1_555
C8 N4 1_555 1_555
C10 N3 1_555 1_555
C10 N4 1_555 1_555
Cu1A I2A 1_555 1_555
Cu2A I1A 1_555 1_555
Cu2A I2A 1_555 1_555

#END
