
#######################################################################
#
#                 Cambridge Crystallographic Data Centre
#                                CCDC 
#
#######################################################################
#
# If this CIF has been generated from an entry in the Cambridge 
# Structural Database, then it will include bibliographic, chemical, 
# crystal, experimental, refinement or atomic coordinate data resulting 
# from the CCDC's data processing and validation procedures.
#
#######################################################################

data_YIGVEQ02
_symmetry_cell_setting           orthorhombic
_symmetry_space_group_name_H-M   'P b c a'
_symmetry_Int_Tables_number      61
_space_group_name_Hall           '-P 2ac 2ab'
loop_
_symmetry_equiv_pos_site_id
_symmetry_equiv_pos_as_xyz
1 x,y,z
2 1/2-x,-y,1/2+z
3 -x,1/2+y,1/2-z
4 1/2+x,1/2-y,-z
5 -x,-y,-z
6 1/2+x,y,1/2-z
7 x,1/2-y,1/2+z
8 1/2-x,1/2+y,z
_cell_length_a                   10.181(3)
_cell_length_b                   9.673(3)
_cell_length_c                   10.784(3)
_cell_angle_alpha                90
_cell_angle_beta                 90
_cell_angle_gamma                90
_cell_volume                     1062.02
loop_
_atom_site_label
_atom_site_type_symbol
_atom_site_fract_x
_atom_site_fract_y
_atom_site_fract_z
Co1 Co 0.18044(2) 0.58400(2) -0.10835(2)
Na1 Na 0.37559(7) 0.41642(7) 0.07222(7)
P1 P 0.40540(4) 0.78099(4) 0.03956(4)
O1 O 0.35271(12) 0.64150(12) -0.00314(11)
O2 O 0.55380(12) 0.78672(12) 0.02368(11)
O3 O 0.33122(12) 0.90221(12) -0.01483(12)
O4 O 0.23804(12) 0.78023(12) 0.23629(11)
H1 H 0.221(3) 0.697(3) 0.242(3)
O5 O 0.52798(11) 0.98364(12) 0.23222(11)
O6 O 0.31887(12) 1.02149(12) 0.28027(12)
C1 C 0.37522(16) 0.79751(17) 0.20739(15)
H2 H 0.4289(18) 0.736(2) 0.2504(18)
C2 C 0.41139(16) 0.94521(17) 0.24248(15)
Co1C Co 0.68044(2) 0.91600(2) 0.10835(2)
Co1G Co 0.31956(2) 1.08400(2) -0.10835(2)
Co1F Co 0.18044(2) 0.91600(2) 0.39165(2)
Na1D Na 0.62441(7) 0.58358(7) -0.07222(7)
Na1G Na 0.12441(7) 0.91642(7) 0.07222(7)
Na1B Na 0.62441(7) 0.91642(7) 0.42778(7)
O2C O 0.05380(12) 0.71328(12) -0.02368(11)
O2D O 0.44620(12) 0.21328(12) -0.02368(11)
O3G O 0.16878(12) 0.40221(12) -0.01483(12)
O4F O 0.23804(12) 0.71977(12) -0.26371(11)
O4G O 0.26196(12) 0.28023(12) 0.23629(11)
H1F H 0.221(3) 0.803(3) -0.258(3)
H1G H 0.279(3) 0.197(3) 0.242(3)
O5C O 0.02798(11) 0.51636(12) -0.23222(11)
O5B O 0.47202(11) 0.48364(12) 0.26778(11)
O6F O 0.31887(12) 0.47851(12) -0.21973(12)
loop_
_geom_bond_atom_site_label_1
_geom_bond_atom_site_label_2
_geom_bond_site_symmetry_1
_geom_bond_site_symmetry_2
Co1 O1 1_555 1_555
Na1 O1 1_555 1_555
P1 O1 1_555 1_555
O2 P1 1_555 1_555
O3 P1 1_555 1_555
O4 H1 1_555 1_555
O5 C2 1_555 1_555
O6 C2 1_555 1_555
C1 P1 1_555 1_555
H2 C1 1_555 1_555
C2 C1 1_555 1_555
Co1C O2 1_555 1_555
Co1G O3 1_555 1_555
Co1F O4 1_555 1_555
Na1D O2 1_555 1_555
Na1G O3 1_555 1_555
Na1B O5 1_555 1_555
O2C Co1 1_555 1_555
O2D Na1 1_555 1_555
O3G Co1 1_555 1_555
O4F Co1 1_555 1_555
O4G Na1 1_555 1_555
H1F O4F 1_555 1_555
H1G O4G 1_555 1_555
O5C Co1 1_555 1_555
O5B Na1 1_555 1_555
O6F Co1 1_555 1_555
Na1 O3G 1_555 1_555
O4 C1 1_555 1_555
O4 Na1G 1_555 1_555
O5 Co1C 1_555 1_555
O6 Co1F 1_555 1_555
Na1G O2C 1_555 1_555

#END
