
#######################################################################
#
#                 Cambridge Crystallographic Data Centre
#                                CCDC 
#
#######################################################################
#
# If this CIF has been generated from an entry in the Cambridge 
# Structural Database, then it will include bibliographic, chemical, 
# crystal, experimental, refinement or atomic coordinate data resulting 
# from the CCDC's data processing and validation procedures.
#
#######################################################################

data_YIGVIU
_symmetry_cell_setting           orthorhombic
_symmetry_space_group_name_H-M   'P b c a'
_symmetry_Int_Tables_number      61
_space_group_name_Hall           '-P 2ac 2ab'
loop_
_symmetry_equiv_pos_site_id
_symmetry_equiv_pos_as_xyz
1 x,y,z
2 1/2-x,-y,1/2+z
3 -x,1/2+y,1/2-z
4 1/2+x,1/2-y,-z
5 -x,-y,-z
6 1/2+x,y,1/2-z
7 x,1/2-y,1/2+z
8 1/2-x,1/2+y,z
_cell_length_a                   10.4309(18)
_cell_length_b                   9.7913(17)
_cell_length_c                   10.9012(19)
_cell_angle_alpha                90
_cell_angle_beta                 90
_cell_angle_gamma                90
_cell_volume                     1113.36
loop_
_atom_site_label
_atom_site_type_symbol
_atom_site_fract_x
_atom_site_fract_y
_atom_site_fract_z
Mn1 Mn 0.67587(3) 1.08383(3) 0.60429(3)
P1 P 0.59888(4) 0.77449(5) 0.46072(4)
O1 O 0.67222(13) 0.89299(14) 0.51672(13)
O2 O 0.65151(13) 0.63617(14) 0.50037(13)
O3 O 0.45436(13) 0.78109(14) 0.47844(13)
O4 O 0.76217(13) 0.77571(13) 0.26706(12)
H1 H 0.7773 0.6945 0.2560
O5 O 0.68498(13) 1.01682(14) 0.23105(14)
O6 O 0.47801(12) 0.97513(14) 0.26566(13)
C1 C 0.62805(18) 0.79329(18) 0.29458(17)
H2 H 0.5757 0.7285 0.2478
C2 C 0.59386(18) 0.93997(19) 0.26116(18)
Mn1G Mn 0.82413(3) 0.58383(3) 0.60429(3)
Mn1D Mn 0.32413(3) 0.91617(3) 0.39571(3)
Mn1A Mn 0.82413(3) 0.91617(3) 0.10429(3)
O2G O 0.84849(13) 1.13617(14) 0.50037(13)
O3D O 0.54564(13) 1.21891(14) 0.52156(13)
O4A O 0.73783(13) 1.22429(13) 0.76706(12)
H1A H 0.7227 1.3055 0.7560
O5A O 0.81502(13) 0.98318(14) 0.73105(14)
O6D O 0.52199(12) 1.02487(14) 0.73434(13)
Na1 Na 0.87462(8) 0.91436(8) 0.42323(8)
loop_
_geom_bond_atom_site_label_1
_geom_bond_atom_site_label_2
_geom_bond_site_symmetry_1
_geom_bond_site_symmetry_2
Mn1 O1 1_555 1_555
P1 O1 1_555 1_555
O2 P1 1_555 1_555
O3 P1 1_555 1_555
O4 H1 1_555 1_555
O5 C2 1_555 1_555
O6 C2 1_555 1_555
C1 P1 1_555 1_555
H2 C1 1_555 1_555
C2 C1 1_555 1_555
Mn1G O2 1_555 1_555
Mn1D O3 1_555 1_555
Mn1A O4 1_555 1_555
O2G Mn1 1_555 1_555
O3D Mn1 1_555 1_555
O4A Mn1 1_555 1_555
H1A O4A 1_555 1_555
O5A Mn1 1_555 1_555
O6D Mn1 1_555 1_555
O4 C1 1_555 1_555
O5 Mn1A 1_555 1_555
O6 Mn1D 1_555 1_555

#END
