
#######################################################################
#
#                 Cambridge Crystallographic Data Centre
#                                CCDC 
#
#######################################################################
#
# If this CIF has been generated from an entry in the Cambridge 
# Structural Database, then it will include bibliographic, chemical, 
# crystal, experimental, refinement or atomic coordinate data resulting 
# from the CCDC's data processing and validation procedures.
#
#######################################################################

data_YIGVEQ
_symmetry_cell_setting           orthorhombic
_symmetry_space_group_name_H-M   'P b c a'
_symmetry_Int_Tables_number      61
_space_group_name_Hall           '-P 2ac 2ab'
loop_
_symmetry_equiv_pos_site_id
_symmetry_equiv_pos_as_xyz
1 x,y,z
2 1/2-x,-y,1/2+z
3 -x,1/2+y,1/2-z
4 1/2+x,1/2-y,-z
5 -x,-y,-z
6 1/2+x,y,1/2-z
7 x,1/2-y,1/2+z
8 1/2-x,1/2+y,z
_cell_length_a                   10.1827(8)
_cell_length_b                   9.6673(8)
_cell_length_c                   10.7853(9)
_cell_angle_alpha                90
_cell_angle_beta                 90
_cell_angle_gamma                90
_cell_volume                     1061.7
loop_
_atom_site_label
_atom_site_type_symbol
_atom_site_fract_x
_atom_site_fract_y
_atom_site_fract_z
Co1 Co 0.31944(4) 0.08404(4) 0.60848(4)
P1 P 0.09463(8) 0.28106(8) 0.46044(7)
O1 O 0.1689(2) 0.4023(2) 0.5150(2)
O2 O -0.0538(2) 0.2870(2) 0.47667(19)
O3 O 0.1475(2) 0.1416(2) 0.5033(2)
O4 O 0.2621(2) 0.2805(2) 0.26384(19)
H1 H 0.2771 0.1985 0.2504
O5 O 0.1814(2) 0.5216(2) 0.2198(2)
O6 O -0.0283(2) 0.4838(2) 0.26775(19)
C1 C 0.1245(3) 0.2982(3) 0.2930(3)
H2 H 0.0708 0.2319 0.2465
C2 C 0.0885(3) 0.4451(3) 0.2582(3)
Co1G Co 0.18056(4) 0.58404(4) 0.60848(4)
Co1C Co -0.18056(4) 0.41596(4) 0.39152(4)
Co1F Co 0.31944(4) 0.41596(4) 0.10848(4)
O1G O 0.3311(2) -0.0977(2) 0.5150(2)
O2C O 0.4462(2) 0.2130(2) 0.52333(19)
O4F O 0.2621(2) 0.2195(2) 0.76384(19)
H1F H 0.2771 0.3015 0.7504
O5F O 0.1814(2) -0.0216(2) 0.7198(2)
O6C O 0.4717(2) 0.0162(2) 0.73225(19)
Na1 Na 0.12431(13) -0.08350(12) 0.42777(13)
loop_
_geom_bond_atom_site_label_1
_geom_bond_atom_site_label_2
_geom_bond_site_symmetry_1
_geom_bond_site_symmetry_2
Co1 O3 1_555 1_555
P1 O1 1_555 1_555
O1 Co1G 1_555 1_555
O2 P1 1_555 1_555
O3 P1 1_555 1_555
O4 H1 1_555 1_555
O5 C2 1_555 1_555
O6 C2 1_555 1_555
C1 P1 1_555 1_555
H2 C1 1_555 1_555
C2 C1 1_555 1_555
Co1C O2 1_555 1_555
Co1F O4 1_555 1_555
O1G Co1 1_555 1_555
O2C Co1 1_555 1_555
O4F Co1 1_555 1_555
H1F O4F 1_555 1_555
O5F Co1 1_555 1_555
O6C Co1 1_555 1_555
O4 C1 1_555 1_555
O5 Co1F 1_555 1_555
O6 Co1C 1_555 1_555

#END
