
#######################################################################
#
#                 Cambridge Crystallographic Data Centre
#                                CCDC 
#
#######################################################################
#
# If this CIF has been generated from an entry in the Cambridge 
# Structural Database, then it will include bibliographic, chemical, 
# crystal, experimental, refinement or atomic coordinate data resulting 
# from the CCDC's data processing and validation procedures.
#
#######################################################################

data_YIGVEQ01
_symmetry_cell_setting           orthorhombic
_symmetry_space_group_name_H-M   'P b c a'
_symmetry_Int_Tables_number      61
_space_group_name_Hall           '-P 2ac 2ab'
loop_
_symmetry_equiv_pos_site_id
_symmetry_equiv_pos_as_xyz
1 x,y,z
2 1/2-x,-y,1/2+z
3 -x,1/2+y,1/2-z
4 1/2+x,1/2-y,-z
5 -x,-y,-z
6 1/2+x,y,1/2-z
7 x,1/2-y,1/2+z
8 1/2-x,1/2+y,z
_cell_length_a                   10.1998(9)
_cell_length_b                   9.6890(9)
_cell_length_c                   10.7943(10)
_cell_angle_alpha                90
_cell_angle_beta                 90
_cell_angle_gamma                90
_cell_volume                     1066.76
loop_
_atom_site_label
_atom_site_type_symbol
_atom_site_fract_x
_atom_site_fract_y
_atom_site_fract_z
Co1 Co 0.18042(4) 0.58398(4) -0.10833(4)
Na1 Na 0.37568(12) 0.41632(13) 0.07217(13)
P1 P 0.40531(7) 0.78105(8) 0.03971(7)
O1 O 0.3523(2) 0.6412(2) -0.0027(2)
O2 O 0.5540(2) 0.7869(2) 0.0238(2)
O3 O 0.3311(2) 0.9023(2) -0.0149(2)
O4 O 0.2381(2) 0.7802(2) 0.2366(2)
H1 H 0.220(4) 0.695(5) 0.247(4)
O5 O 0.5281(2) 0.9836(2) 0.2322(2)
O6 O 0.3188(2) 1.0211(2) 0.2803(2)
C1 C 0.3752(3) 0.7978(3) 0.2073(3)
H2 H 0.427(3) 0.737(3) 0.251(3)
C2 C 0.4112(3) 0.9452(3) 0.2425(3)
Co1C Co 0.68042(4) 0.91602(4) 0.10833(4)
Co1G Co 0.31958(4) 1.08398(4) -0.10833(4)
Co1F Co 0.18042(4) 0.91602(4) 0.39167(4)
Na1D Na 0.62432(12) 0.58368(13) -0.07217(13)
Na1G Na 0.12432(12) 0.91632(13) 0.07217(13)
Na1B Na 0.62432(12) 0.91632(13) 0.42783(13)
O2C O 0.0540(2) 0.7131(2) -0.0238(2)
O2D O 0.4460(2) 0.2131(2) -0.0238(2)
O3G O 0.1689(2) 0.4023(2) -0.0149(2)
O4F O 0.2381(2) 0.7198(2) -0.2634(2)
O4G O 0.2619(2) 0.2802(2) 0.2366(2)
H1F H 0.220(4) 0.805(5) -0.253(4)
H1G H 0.280(4) 0.195(5) 0.247(4)
O5C O 0.0281(2) 0.5164(2) -0.2322(2)
O5B O 0.4719(2) 0.4836(2) 0.2678(2)
O6F O 0.3188(2) 0.4789(2) -0.2197(2)
loop_
_geom_bond_atom_site_label_1
_geom_bond_atom_site_label_2
_geom_bond_site_symmetry_1
_geom_bond_site_symmetry_2
Co1 O1 1_555 1_555
Na1 O1 1_555 1_555
P1 O1 1_555 1_555
O2 P1 1_555 1_555
O3 P1 1_555 1_555
O4 H1 1_555 1_555
O5 C2 1_555 1_555
O6 C2 1_555 1_555
C1 P1 1_555 1_555
H2 C1 1_555 1_555
C2 C1 1_555 1_555
Co1C O2 1_555 1_555
Co1G O3 1_555 1_555
Co1F O4 1_555 1_555
Na1D O2 1_555 1_555
Na1G O3 1_555 1_555
Na1B O5 1_555 1_555
O2C Co1 1_555 1_555
O2D Na1 1_555 1_555
O3G Co1 1_555 1_555
O4F Co1 1_555 1_555
O4G Na1 1_555 1_555
H1F O4F 1_555 1_555
H1G O4G 1_555 1_555
O5C Co1 1_555 1_555
O5B Na1 1_555 1_555
O6F Co1 1_555 1_555
Na1 O3G 1_555 1_555
O4 C1 1_555 1_555
O4 Na1G 1_555 1_555
O5 Co1C 1_555 1_555
O6 Co1F 1_555 1_555
Na1G O2C 1_555 1_555

#END
