
#######################################################################
#
#                 Cambridge Crystallographic Data Centre
#                                CCDC 
#
#######################################################################
#
# If this CIF has been generated from an entry in the Cambridge 
# Structural Database, then it will include bibliographic, chemical, 
# crystal, experimental, refinement or atomic coordinate data resulting 
# from the CCDC's data processing and validation procedures.
#
#######################################################################

data_YIGXUI
_symmetry_cell_setting           monoclinic
_symmetry_space_group_name_H-M   'P 21/n'
_symmetry_Int_Tables_number      14
_space_group_name_Hall           '-P 2yn'
loop_
_symmetry_equiv_pos_site_id
_symmetry_equiv_pos_as_xyz
1 x,y,z
2 1/2-x,1/2+y,1/2-z
3 -x,-y,-z
4 1/2+x,1/2-y,1/2+z
_cell_length_a                   12.630(3)
_cell_length_b                   7.5355(15)
_cell_length_c                   19.518(4)
_cell_angle_alpha                90
_cell_angle_beta                 93.73(3)
_cell_angle_gamma                90
_cell_volume                     1853.66
loop_
_atom_site_label
_atom_site_type_symbol
_atom_site_fract_x
_atom_site_fract_y
_atom_site_fract_z
As1 As -0.12457(2) -0.94717(4) 0.112372(16)
Cu1 Cu -0.24153(3) -1.17407(5) 0.00007(2)
V1 V 0.07816(4) -1.12443(7) 0.04905(3)
V2 V -0.06767(4) -0.54068(7) 0.05689(3)
V3 V -0.09149(5) -0.61856(8) 0.22952(3)
O1 O -0.01059(19) -1.0671(3) 0.12087(12)
O2 O -0.23015(19) -1.0742(3) 0.09185(13)
N1 N -0.3981(2) -1.2124(4) 0.00730(16)
N2 N -0.2751(2) -1.2553(4) -0.09580(16)
O3 O 0.02859(19) -1.3719(3) 0.03341(13)
O4 O -0.09583(18) -1.0863(3) -0.01608(13)
O5 O -0.11824(18) -0.7934(3) 0.04736(12)
O6 O -0.1421(2) -0.8448(3) 0.18603(14)
O7 O 0.1866(2) -1.1628(3) 0.09317(14)
O8 O -0.1904(2) -0.7255(5) 0.29764(16)
C1 C -0.4456(3) -1.2760(4) -0.05232(19)
O9 O -0.0301(2) -0.5807(3) 0.14018(13)
O10 O 0.0152(2) -0.6209(5) 0.27971(17)
C2 C -0.4244(3) -1.3547(5) -0.1721(2)
C3 C -0.5666(3) -1.2219(6) 0.0562(2)
C4 C -0.3803(3) -1.2965(5) -0.10846(19)
C5 C -0.5550(3) -1.3167(5) -0.0603(2)
C6 C -0.4577(3) -1.1831(5) 0.0599(2)
O11 O -0.1448(3) -0.4247(4) 0.2341(2)
C7 C -0.6152(3) -1.2876(6) -0.0028(2)
C8 C -0.2123(3) -1.2704(6) -0.1479(2)
C9 C -0.5974(3) -1.3807(6) -0.1252(3)
C10 C -0.5359(3) -1.3980(6) -0.1792(2)
C11 C -0.2494(4) -1.3272(7) -0.2132(2)
C12 C -0.3547(4) -1.3688(7) -0.2257(3)
H1 H -0.415(4) -1.127(6) 0.103(3)
H2 H -0.142(4) -1.236(6) -0.141(3)
H3 H -0.204(5) -1.330(7) -0.250(3)
H4 H -0.385(4) -1.416(7) -0.266(3)
H5 H -0.597(5) -1.192(8) 0.096(4)
H6 H -0.565(5) -1.444(8) -0.219(4)
H7 H -0.678(5) -1.311(7) -0.007(3)
O12 O -0.18147(19) -1.4410(3) 0.05104(15)
H8 H -0.222(4) -0.656(7) 0.323(3)
H9 H -0.665(4) -1.407(7) -0.127(3)
H10 H -0.238(5) -0.795(8) 0.284(3)
V1B V -0.07816(4) -0.87557(7) -0.04905(3)
V2_2 V -0.06767(4) -1.54068(7) 0.05689(3)
V2B V 0.06767(4) -1.45932(7) -0.05689(3)
O3_2 O 0.02859(19) -0.3719(3) 0.03341(13)
O3B O -0.02859(19) -0.6281(3) -0.03341(13)
O4B O 0.09583(18) -0.9137(3) 0.01608(13)
O5B O 0.11824(18) -1.2066(3) -0.04736(12)
O12_2 O -0.18147(19) -0.4410(3) 0.05104(15)
loop_
_geom_bond_atom_site_label_1
_geom_bond_atom_site_label_2
_geom_bond_site_symmetry_1
_geom_bond_site_symmetry_2
As1 O1 1_555 1_555
Cu1 O2 1_555 1_555
V1 O1 1_555 1_555
V2 O5 1_555 1_555
V3 O6 1_555 1_555
O2 As1 1_555 1_555
N1 Cu1 1_555 1_555
N2 Cu1 1_555 1_555
O3 V1 1_555 1_555
O4 Cu1 1_555 1_555
O5 As1 1_555 1_555
O6 As1 1_555 1_555
O7 V1 1_555 1_555
O8 V3 1_555 1_555
C1 N1 1_555 1_555
O9 V2 1_555 1_555
O10 V3 1_555 1_555
C2 C4 1_555 1_555
C3 C6 1_555 1_555
C4 N2 1_555 1_555
C5 C1 1_555 1_555
C6 N1 1_555 1_555
O11 V3 1_555 1_555
C7 C3 1_555 1_555
C8 N2 1_555 1_555
C9 C5 1_555 1_555
C10 C2 1_555 1_555
C11 C8 1_555 1_555
C12 C2 1_555 1_555
H1 C6 1_555 1_555
H2 C8 1_555 1_555
H3 C11 1_555 1_555
H4 C12 1_555 1_555
H5 C3 1_555 1_555
H6 C10 1_555 1_555
H7 C7 1_555 1_555
O12 Cu1 1_555 1_555
H8 O8 1_555 1_555
H9 C9 1_555 1_555
H10 O8 1_555 1_555
V1B O4 1_555 1_555
V2_2 O3 1_555 1_555
V2B O3 1_555 1_555
O3_2 V2 1_555 1_555
O3B V2 1_555 1_555
O4B V1 1_555 1_555
O5B V1 1_555 1_555
O12_2 V2 1_555 1_555
V3 O9 1_555 1_555
O5 V1B 1_555 1_555
C1 C4 1_555 1_555
C5 C7 1_555 1_555
C9 C10 1_555 1_555
C11 C12 1_555 1_555
O12 V2_2 1_555 1_555
V1B O3B 1_555 1_555
V2B O5B 1_555 1_555

#END
