
#######################################################################
#
#                 Cambridge Crystallographic Data Centre
#                                CCDC 
#
#######################################################################
#
# If this CIF has been generated from an entry in the Cambridge 
# Structural Database, then it will include bibliographic, chemical, 
# crystal, experimental, refinement or atomic coordinate data resulting 
# from the CCDC's data processing and validation procedures.
#
#######################################################################

data_YIGXES01
_symmetry_cell_setting           tetragonal
_symmetry_space_group_name_H-M   'I 41/a'
_symmetry_Int_Tables_number      88
_space_group_name_Hall           '-I 4ad'
loop_
_symmetry_equiv_pos_site_id
_symmetry_equiv_pos_as_xyz
1 x,y,z
2 3/4-y,1/4+x,1/4+z
3 1/4+y,1/4-x,1/4+z
4 1/2+x,1/2+y,1/2+z
5 1/4-y,3/4+x,3/4+z
6 -x,1/2-y,z
7 1/2-x,-y,1/2+z
8 3/4+y,3/4-x,3/4+z
9 -x,-y,-z
10 1/4+y,3/4-x,3/4-z
11 3/4-y,3/4+x,3/4-z
12 1/2-x,1/2-y,1/2-z
13 3/4+y,1/4-x,1/4-z
14 x,1/2+y,-z
15 1/2+x,y,1/2-z
16 1/4-y,1/4+x,1/4-z
_cell_length_a                   6.8021(6)
_cell_length_b                   6.8021(6)
_cell_length_c                   28.712(3)
_cell_angle_alpha                90
_cell_angle_beta                 90
_cell_angle_gamma                90
_cell_volume                     1328.46
loop_
_atom_site_label
_atom_site_type_symbol
_atom_site_fract_x
_atom_site_fract_y
_atom_site_fract_z
Ag1 Ag 0.5000 0.2500 0.3750
Co1 Co 0.0000 -0.2500 0.3750
O1 O 0.2469(2) -0.1171(2) 0.38224(5)
O2 O 0.4450(2) 0.0039(2) 0.43707(6)
N1 N 0.0000 -0.2500 0.4390(1)
C1 C 0.3002(3) -0.0920(3) 0.42525(7)
C2 C 0.1584(3) -0.1782(3) 0.46068(7)
C3 C 0.1654(3) -0.1790(3) 0.50910(7)
C4 C 0.0000 -0.2500 0.5330(1)
H1 H 0.2756 -0.1342 0.5251
H2 H 0.0000 -0.2500 0.5654
Ag1_2 Ag -0.5000 -0.7500 0.3750
Ag1_3 Ag -0.5000 1.2500 0.3750
Co1_2 Co 0.0000 0.7500 0.3750
O1E O -0.2469(2) -0.3829(2) 0.38224(5)
O1I O 0.1329(2) 0.5031(2) 0.36776(5)
O1J O -0.1329(2) 0.9969(2) 0.36776(5)
O1I_2 O 0.1329(2) -0.4969(2) 0.36776(5)
O1J_2 O -0.1329(2) -0.0031(2) 0.36776(5)
O2E O -0.4450(2) -0.5039(2) 0.43707(6)
O2I O 0.2539(2) 0.3050(2) 0.31293(6)
O2J O -0.2539(2) 1.1950(2) 0.31293(6)
O2J_2 O 0.7461(2) 0.1950(2) 0.31293(6)
O2E_2 O 0.5550(2) 0.4961(2) 0.43707(6)
N1I N 0.0000 0.7500 0.3110(1)
N1I_2 N 0.0000 -0.2500 0.3110(1)
C1E C -0.3002(3) -0.4080(3) 0.42525(7)
C1I C 0.1580(3) 0.4498(3) 0.32475(7)
C1J C -0.1580(3) 1.0502(3) 0.32475(7)
C2E C -0.1584(3) -0.3218(3) 0.46068(7)
C2I C 0.0718(3) 0.5916(3) 0.28932(7)
C2J C -0.0718(3) 0.9084(3) 0.28932(7)
C3E C -0.1654(3) -0.3210(3) 0.50910(7)
C3I C 0.0710(3) 0.5846(3) 0.24090(7)
C3J C -0.0710(3) 0.9154(3) 0.24090(7)
C4I C 0.0000 0.7500 0.2170(1)
H1E H -0.2756 -0.3658 0.5251
H1I H 0.1158 0.4744 0.2249
H1J H -0.1158 1.0256 0.2249
H2I H 0.0000 0.7500 0.1846
loop_
_geom_bond_atom_site_label_1
_geom_bond_atom_site_label_2
_geom_bond_site_symmetry_1
_geom_bond_site_symmetry_2
Ag1 O2 1_555 1_555
Co1 O1 1_555 1_555
O1 C1 1_555 1_555
O2 C1 1_555 1_555
N1 Co1 1_555 1_555
C1 C2 1_555 1_555
C2 N1 1_555 1_555
C3 C2 1_555 1_555
C4 C3 1_555 1_555
H1 C3 1_555 1_555
H2 C4 1_555 1_555
Ag1_2 O2E 1_555 1_555
Ag1_3 O2J 1_555 1_555
Co1_2 O1I 1_555 1_555
O1E Co1 1_555 1_555
O1I C1I 1_555 1_555
O1J Co1_2 1_555 1_555
O1I_2 Co1 1_555 1_555
O1J_2 Co1 1_555 1_555
O2E C1E 1_555 1_555
O2I Ag1 1_555 1_555
O2J C1J 1_555 1_555
O2J_2 Ag1 1_555 1_555
O2E_2 Ag1 1_555 1_555
N1I Co1_2 1_555 1_555
N1I_2 Co1 1_555 1_555
C1E O1E 1_555 1_555
C1I O2I 1_555 1_555
C1J O1J 1_555 1_555
C2E N1 1_555 1_555
C2I N1I 1_555 1_555
C2J N1I 1_555 1_555
C3E C4 1_555 1_555
C3I C2I 1_555 1_555
C3J C2J 1_555 1_555
C4I C3I 1_555 1_555
H1E C3E 1_555 1_555
H1I C3I 1_555 1_555
H1J C3J 1_555 1_555
H2I C4I 1_555 1_555
C1E C2E 1_555 1_555
C1I C2I 1_555 1_555
C1J C2J 1_555 1_555
C2E C3E 1_555 1_555
C3J C4I 1_555 1_555

#END
