
#######################################################################
#
#                 Cambridge Crystallographic Data Centre
#                                CCDC 
#
#######################################################################
#
# If this CIF has been generated from an entry in the Cambridge 
# Structural Database, then it will include bibliographic, chemical, 
# crystal, experimental, refinement or atomic coordinate data resulting 
# from the CCDC's data processing and validation procedures.
#
#######################################################################

data_YIGZAQ
_symmetry_cell_setting           monoclinic
_symmetry_space_group_name_H-M   'P 21'
_symmetry_Int_Tables_number      4
_space_group_name_Hall           'P 2yb'
loop_
_symmetry_equiv_pos_site_id
_symmetry_equiv_pos_as_xyz
1 x,y,z
2 -x,1/2+y,-z
_cell_length_a                   6.4379(9)
_cell_length_b                   6.9060(9)
_cell_length_c                   9.9125(16)
_cell_angle_alpha                90
_cell_angle_beta                 100.848(7)
_cell_angle_gamma                90
_cell_volume                     432.836
loop_
_atom_site_label
_atom_site_type_symbol
_atom_site_fract_x
_atom_site_fract_y
_atom_site_fract_z
Pb1 Pb -0.10679(4) 0.2420(2) 0.06869(2)
O1 O 0.1887(13) 0.3966(10) -0.0627(8)
O2 O 0.0219(12) 0.1288(11) -0.1500(8)
O3 O 0.5946(11) 0.2000(12) -0.1044(10)
O4 O 0.7125(12) 0.4914(11) -0.1348(9)
O5 O -0.4315(16) 0.1582(16) 0.1832(11)
C1 C 0.1403(14) 0.2716(12) -0.1572(8)
C2 C 0.2083(13) 0.3147(14) -0.2920(9)
C3 C 0.4654(17) 0.4332(17) -0.4176(11)
H1 H 0.6048 0.4764 -0.4198
C4 C 0.312(2) 0.4308(18) -0.5404(11)
H2 H 0.3469 0.4723 -0.6247
C5 C 0.4135(15) 0.3718(15) -0.2914(11)
C6 C 0.1127(18) 0.3676(19) -0.5352(11)
H3 H 0.0090 0.3623 -0.6172
C7 C 0.0601(16) 0.3116(17) -0.4126(10)
H4 H -0.0801 0.2703 -0.4109
C8 C 0.5801(16) 0.3575(16) -0.1692(12)
Pb1A Pb 0.10679(4) 0.7420(2) -0.06869(2)
Pb1A_2 Pb 0.10679(4) -0.2580(2) -0.06869(2)
Pb1_2 Pb 0.89321(4) 0.2420(2) 0.06869(2)
Pb1A_3 Pb 1.10679(4) 0.7420(2) -0.06869(2)
O1A O -0.1887(13) -0.1034(10) 0.0627(8)
O2A O -0.0219(12) 0.6288(11) 0.1500(8)
O3_2 O -0.4054(11) 0.2000(12) -0.1044(10)
O4A O 0.2875(12) -0.0086(11) 0.1348(9)
O4_2 O -0.2875(12) 0.4914(11) -0.1348(9)
loop_
_geom_bond_atom_site_label_1
_geom_bond_atom_site_label_2
_geom_bond_site_symmetry_1
_geom_bond_site_symmetry_2
Pb1 O1 1_555 1_555
O1 C1 1_555 1_555
O2 Pb1 1_555 1_555
O3 C8 1_555 1_555
O4 C8 1_555 1_555
O5 Pb1 1_555 1_555
C1 O2 1_555 1_555
C2 C1 1_555 1_555
C3 H1 1_555 1_555
C4 C3 1_555 1_555
H2 C4 1_555 1_555
C5 C2 1_555 1_555
C6 C4 1_555 1_555
H3 C6 1_555 1_555
C7 C2 1_555 1_555
H4 C7 1_555 1_555
C8 C5 1_555 1_555
Pb1A O1 1_555 1_555
Pb1A_2 O2 1_555 1_555
Pb1_2 O3 1_555 1_555
Pb1A_3 O4 1_555 1_555
O1A Pb1 1_555 1_555
O2A Pb1 1_555 1_555
O3_2 Pb1 1_555 1_555
O4A Pb1 1_555 1_555
O4_2 Pb1 1_555 1_555
O4 Pb1_2 1_555 1_555
C3 C5 1_555 1_555
C6 C7 1_555 1_555
Pb1A O2A 1_555 1_555
Pb1A O4_2 1_555 1_555
Pb1A_2 O1A 1_555 1_555
Pb1A_2 O4A 1_555 1_555

#END
