
#######################################################################
#
#                 Cambridge Crystallographic Data Centre
#                                CCDC 
#
#######################################################################
#
# If this CIF has been generated from an entry in the Cambridge 
# Structural Database, then it will include bibliographic, chemical, 
# crystal, experimental, refinement or atomic coordinate data resulting 
# from the CCDC's data processing and validation procedures.
#
#######################################################################

data_YIGZIZ
_symmetry_cell_setting           orthorhombic
_symmetry_space_group_name_H-M   'P n a 21'
_symmetry_Int_Tables_number      33
_space_group_name_Hall           'P 2c -2n'
loop_
_symmetry_equiv_pos_site_id
_symmetry_equiv_pos_as_xyz
1 x,y,z
2 -x,-y,1/2+z
3 1/2+x,1/2-y,z
4 1/2-x,1/2+y,1/2+z
_cell_length_a                   14.162(3)
_cell_length_b                   13.601(3)
_cell_length_c                   10.898(2)
_cell_angle_alpha                90
_cell_angle_beta                 90
_cell_angle_gamma                90
_cell_volume                     2099.14
loop_
_atom_site_label
_atom_site_type_symbol
_atom_site_fract_x
_atom_site_fract_y
_atom_site_fract_z
Cu1 Cu 0.028344(18) 0.87085(2) 0.72098(3)
N1 N 0.45570(15) 0.68909(19) -0.1367(2)
N2 N 0.11609(15) 0.85501(17) 0.5752(2)
O1 O -0.08649(12) 0.86572(14) 0.62194(19)
O2 O -0.09160(15) 1.02918(17) 0.6293(2)
O3 O -0.13628(12) 1.09279(15) 0.32446(18)
O4 O -0.07913(14) 0.94112(16) 0.3141(2)
C1 C -0.12516(18) 0.9495(2) 0.6027(2)
C2 C -0.21993(17) 0.9452(2) 0.5378(3)
C3 C -0.30194(19) 0.9216(2) 0.6023(3)
C4 C -0.38723(19) 0.9109(2) 0.5425(4)
C5 C -0.39202(19) 0.9243(2) 0.4163(4)
C6 C -0.31130(19) 0.9520(2) 0.3522(3)
C7 C -0.22600(17) 0.9652(2) 0.4132(3)
C8 C -0.13922(17) 0.9997(2) 0.3436(2)
C9 C 0.38165(19) 0.7485(2) -0.1551(3)
H1 H 0.3665 0.7659 -0.2353
C10 C 0.3270(2) 0.7849(2) -0.0615(3)
H2 H 0.2761 0.8256 -0.0796
C11 C 0.3467(2) 0.7618(2) 0.0586(3)
C12 C 0.4255(2) 0.7025(3) 0.0783(3)
H3 H 0.4435 0.6857 0.1576
C13 C 0.4764(2) 0.6691(3) -0.0206(3)
H4 H 0.5289 0.6299 -0.0052
C14 C 0.2849(2) 0.7966(3) 0.1589(3)
H5 H 0.2325 0.8341 0.1372
C15 C 0.29800(19) 0.7789(2) 0.2769(3)
H6 H 0.3520 0.7441 0.2985
C16 C 0.20518(17) 0.8254(2) 0.5929(3)
H7 H 0.2278 0.8210 0.6728
C17 C 0.26460(18) 0.8013(2) 0.4976(3)
H8 H 0.3254 0.7793 0.5143
C18 C 0.23475(18) 0.8094(2) 0.3776(3)
C19 C 0.1431(2) 0.8421(3) 0.3602(3)
H9 H 0.1194 0.8499 0.2812
C20 C 0.0872(2) 0.8631(3) 0.4598(3)
H10 H 0.0257 0.8841 0.4456
Cl1 Cl -0.29543(6) 0.90652(8) 0.75945(9)
Cl2 Cl -0.48673(6) 0.87868(7) 0.62348(13)
Cl3 Cl -0.49672(6) 0.90610(9) 0.34016(13)
Cl4 Cl -0.31570(6) 0.96891(7) 0.19597(8)
Cu1A Cu -0.028344(18) 1.12915(2) 0.22098(3)
Cu1B Cu 0.528344(18) 0.62915(2) -0.27902(3)
N1B N -0.04430(15) 0.81091(19) 0.8633(2)
O3A O 0.13628(12) 0.90721(15) 0.82446(18)
loop_
_geom_bond_atom_site_label_1
_geom_bond_atom_site_label_2
_geom_bond_site_symmetry_1
_geom_bond_site_symmetry_2
Cu1 N2 1_555 1_555
N1 C9 1_555 1_555
N2 C16 1_555 1_555
O1 Cu1 1_555 1_555
O2 C1 1_555 1_555
O3 C8 1_555 1_555
O4 C8 1_555 1_555
C1 O1 1_555 1_555
C2 C1 1_555 1_555
C3 C2 1_555 1_555
C4 C3 1_555 1_555
C5 C4 1_555 1_555
C6 C5 1_555 1_555
C7 C2 1_555 1_555
C8 C7 1_555 1_555
C9 H1 1_555 1_555
C10 C9 1_555 1_555
H2 C10 1_555 1_555
C11 C10 1_555 1_555
C12 C11 1_555 1_555
H3 C12 1_555 1_555
C13 N1 1_555 1_555
H4 C13 1_555 1_555
C14 C11 1_555 1_555
H5 C14 1_555 1_555
C15 C14 1_555 1_555
H6 C15 1_555 1_555
C16 H7 1_555 1_555
C17 C16 1_555 1_555
H8 C17 1_555 1_555
C18 C15 1_555 1_555
C19 C18 1_555 1_555
H9 C19 1_555 1_555
C20 N2 1_555 1_555
H10 C20 1_555 1_555
Cl1 C3 1_555 1_555
Cl2 C4 1_555 1_555
Cl3 C5 1_555 1_555
Cl4 C6 1_555 1_555
Cu1A O3 1_555 1_555
Cu1B N1 1_555 1_555
N1B Cu1 1_555 1_555
O3A Cu1 1_555 1_555
C6 C7 1_555 1_555
C12 C13 1_555 1_555
C17 C18 1_555 1_555
C19 C20 1_555 1_555

#END
