
#######################################################################
#
#                 Cambridge Crystallographic Data Centre
#                                CCDC 
#
#######################################################################
#
# If this CIF has been generated from an entry in the Cambridge 
# Structural Database, then it will include bibliographic, chemical, 
# crystal, experimental, refinement or atomic coordinate data resulting 
# from the CCDC's data processing and validation procedures.
#
#######################################################################

data_YIGZEU
_symmetry_cell_setting           rhombohedral
_symmetry_space_group_name_H-M   'R -3'
_symmetry_Int_Tables_number      148
_space_group_name_Hall           '-R 3'
loop_
_symmetry_equiv_pos_site_id
_symmetry_equiv_pos_as_xyz
1 x,y,z
2 -y,x-y,z
3 -x+y,-x,z
4 2/3+x,1/3+y,1/3+z
5 2/3-y,1/3+x-y,1/3+z
6 2/3-x+y,1/3-x,1/3+z
7 1/3+x,2/3+y,2/3+z
8 1/3-y,2/3+x-y,2/3+z
9 1/3-x+y,2/3-x,2/3+z
10 -x,-y,-z
11 y,-x+y,-z
12 x-y,x,-z
13 1/3-x,2/3-y,2/3-z
14 1/3+y,2/3-x+y,2/3-z
15 1/3+x-y,2/3+x,2/3-z
16 2/3-x,1/3-y,1/3-z
17 2/3+y,1/3-x+y,1/3-z
18 2/3+x-y,1/3+x,1/3-z
_cell_length_a                   11.6672(14)
_cell_length_b                   11.6672(14)
_cell_length_c                   16.652(4)
_cell_angle_alpha                90
_cell_angle_beta                 90
_cell_angle_gamma                120.00
_cell_volume                     1963.05
loop_
_atom_site_label
_atom_site_type_symbol
_atom_site_fract_x
_atom_site_fract_y
_atom_site_fract_z
Mn1 Mn 0.6667 0.3333 0.3333
O1 O 0.81575(19) 0.49632(19) 0.40336(11)
C1 C 0.9634(3) 0.4256(3) 0.43377(16)
H1 H 0.9378 0.3742 0.3874
N1 N 0.9062(2) 0.4979(2) 0.45106(13)
C2 C 0.9419(3) 0.5750(3) 0.51805(17)
C3 C 0.8797(3) 0.6560(3) 0.5342(2)
H2 H 0.8896 0.7096 0.4881
H3 H 0.9217 0.7121 0.5797
H4 H 0.7873 0.5990 0.5453
Mn1I Mn 1.3333 0.6667 0.6667
Mn1C Mn 0.3334 0.6666 0.6666
Mn1C_2 Mn 0.3334 -0.3334 0.6666
O1I O 1.18425(19) 0.50368(19) 0.59664(11)
O1A O 0.50368(19) 0.31943(27) 0.40336(11)
O1B O 0.68057(27) 0.18425(19) 0.40336(11)
O1L O 0.51758(19) 0.17035(19) 0.26331(11)
O1M O 0.82965(19) 0.34724(27) 0.26331(11)
O1N O 0.65276(27) 0.48242(19) 0.26331(11)
O1J O 0.49632(19) 0.68057(27) 0.59664(11)
O1K O 0.31943(27) -0.18425(19) 0.59664(11)
C1I C 1.0366(3) 0.5744(3) 0.56623(16)
C1A C 0.5744(3) 0.5378(4) 0.43377(16)
C1B C 0.4622(4) 0.0366(3) 0.43377(16)
C1J C 0.4256(3) 0.4622(4) 0.56623(16)
C1K C 0.5378(4) -0.0366(3) 0.56623(16)
H1I H 1.0622 0.6258 0.6126
H1A H 0.6258 0.5636 0.3874
H1B H 0.4364 0.0622 0.3874
H1J H 0.3742 0.4364 0.6126
H1K H 0.5636 -0.0622 0.6126
N1I N 1.0938(2) 0.5021(2) 0.54894(13)
N1A N 0.5021(2) 0.4083(3) 0.45106(13)
N1B N 0.5917(3) 0.0938(2) 0.45106(13)
N1J N 0.4979(2) 0.5917(3) 0.54894(13)
N1K N 0.4083(3) -0.0938(2) 0.54894(13)
C2I C 1.0581(3) 0.4250(3) 0.48195(17)
C2A C 0.4250(3) 0.3669(4) 0.51805(17)
C2B C 0.6331(4) 0.0581(3) 0.51805(17)
C2J C 0.5750(3) 0.6331(4) 0.48195(17)
C2K C 0.3669(4) -0.0581(3) 0.48195(17)
C3I C 1.1203(3) 0.3440(3) 0.4658(2)
C3A C 0.3440(3) 0.2237(4) 0.5342(2)
C3B C 0.7763(4) 0.1203(3) 0.5342(2)
C3J C 0.6560(3) 0.7763(4) 0.4658(2)
C3K C 0.2237(4) -0.1203(3) 0.4658(2)
H2I H 1.1104 0.2904 0.5119
H2A H 0.2904 0.1800 0.4881
H2B H 0.8200 0.1104 0.4881
H2J H 0.7096 0.8200 0.5119
H2K H 0.1800 -0.1104 0.5119
H3I H 1.0783 0.2879 0.4203
H3A H 0.2879 0.2096 0.5797
H3B H 0.7904 0.0783 0.5797
H3J H 0.7121 0.7904 0.4203
H3K H 0.2096 -0.0783 0.4203
H4I H 1.2127 0.4010 0.4547
H4A H 0.4010 0.1883 0.5453
H4B H 0.8117 0.2127 0.5453
H4J H 0.5990 0.8117 0.4547
H4K H 0.1883 -0.2127 0.4547
Cl1 Cl 0.0000 1.0000 0.67391(10)
O2 O 0.0000 1.0000 0.7601(3)
O3 O 0.0762(4) 0.9436(4) 0.6466(2)
O3A O 0.0564(4) 1.1326(6) 0.6466(2)
O3B O -0.1326(6) 0.9238(4) 0.6466(2)
loop_
_geom_bond_atom_site_label_1
_geom_bond_atom_site_label_2
_geom_bond_site_symmetry_1
_geom_bond_site_symmetry_2
Mn1 O1 1_555 1_555
Cl1 O2 1_555 1_555
O1 N1 1_555 1_555
C1 H1 1_555 1_555
N1 C1 1_555 1_555
C2 N1 1_555 1_555
O3 Cl1 1_555 1_555
C3 C2 1_555 1_555
H2 C3 1_555 1_555
H3 C3 1_555 1_555
H4 C3 1_555 1_555
Mn1I O1I 1_555 1_555
Mn1C O1J 1_555 1_555
Mn1C_2 O1K 1_555 1_555
O1I N1I 1_555 1_555
O1A Mn1 1_555 1_555
O1B Mn1 1_555 1_555
O1L Mn1 1_555 1_555
O1M Mn1 1_555 1_555
O1N Mn1 1_555 1_555
O1J N1J 1_555 1_555
O1K N1K 1_555 1_555
C1I C2 1_555 1_555
C1A H1A 1_555 1_555
C1B H1B 1_555 1_555
C1J H1J 1_555 1_555
C1K H1K 1_555 1_555
H1I C1I 1_555 1_555
N1I C1I 1_555 1_555
N1A O1A 1_555 1_555
N1B O1B 1_555 1_555
N1J C1J 1_555 1_555
N1K C1K 1_555 1_555
C2I C1 1_555 1_555
C2A C1J 1_555 1_555
C2B C1K 1_555 1_555
C2J C1A 1_555 1_555
C2K C1B 1_555 1_555
O3A Cl1 1_555 1_555
O3B Cl1 1_555 1_555
C3I C2I 1_555 1_555
C3A C2A 1_555 1_555
C3B C2B 1_555 1_555
C3J C2J 1_555 1_555
C3K C2K 1_555 1_555
H2I C3I 1_555 1_555
H2A C3A 1_555 1_555
H2B C3B 1_555 1_555
H2J C3J 1_555 1_555
H2K C3K 1_555 1_555
H3I C3I 1_555 1_555
H3A C3A 1_555 1_555
H3B C3B 1_555 1_555
H3J C3J 1_555 1_555
H3K C3K 1_555 1_555
H4I C3I 1_555 1_555
H4A C3A 1_555 1_555
H4B C3B 1_555 1_555
H4J C3J 1_555 1_555
H4K C3K 1_555 1_555
C1A N1A 1_555 1_555
C1B N1B 1_555 1_555
N1I C2I 1_555 1_555
N1A C2A 1_555 1_555
N1B C2B 1_555 1_555
N1J C2J 1_555 1_555
N1K C2K 1_555 1_555

#END
