
#######################################################################
#
#                 Cambridge Crystallographic Data Centre
#                                CCDC 
#
#######################################################################
#
# If this CIF has been generated from an entry in the Cambridge 
# Structural Database, then it will include bibliographic, chemical, 
# crystal, experimental, refinement or atomic coordinate data resulting 
# from the CCDC's data processing and validation procedures.
#
#######################################################################

data_YIHBEY
_symmetry_cell_setting           tetragonal
_symmetry_space_group_name_H-M   'I -4'
_symmetry_Int_Tables_number      82
_space_group_name_Hall           'I -4'
loop_
_symmetry_equiv_pos_site_id
_symmetry_equiv_pos_as_xyz
1 x,y,z
2 -x,-y,z
3 y,-x,-z
4 -y,x,-z
5 1/2+x,1/2+y,1/2+z
6 1/2-x,1/2-y,1/2+z
7 1/2+y,1/2-x,1/2-z
8 1/2-y,1/2+x,1/2-z
_cell_length_a                   27.5676(9)
_cell_length_b                   27.5676(9)
_cell_length_c                   14.3113(10)
_cell_angle_alpha                90
_cell_angle_beta                 90
_cell_angle_gamma                90
_cell_volume                     10876.2
loop_
_atom_site_label
_atom_site_type_symbol
_atom_site_fract_x
_atom_site_fract_y
_atom_site_fract_z
O10 O 0.55053(17) 0.71021(19) 0.6331(4)
H44 H 0.5656 0.7241 0.6775
H45 H 0.5268 0.7298 0.6299
F1 F 0.1074(2) 1.05226(19) 0.5526(4)
F2 F 0.1071(3) 1.00309(19) 0.4333(4)
F3 F 0.17427(19) 1.0336(2) 0.4822(6)
Co1 Co 0.10532(2) 0.79980(2) 0.92454(4)
Co2 Co 0.32250(2) 0.87331(2) 0.65272(5)
O1 O 0.12063(11) 0.84922(11) 0.8211(2)
O2 O 0.17131(12) 0.81221(12) 0.7224(2)
O3 O 0.25640(11) 0.89386(11) 0.7231(2)
O4 O 0.25403(11) 0.86520(11) 0.5791(2)
O5 O 0.34312(13) 0.83831(12) 0.4226(3)
O6 O 0.37513(11) 0.85410(11) 0.5640(3)
O7 O 0.41469(11) 0.74747(11) 0.5284(2)
O8 O 0.47311(13) 0.77516(13) 0.6200(3)
O9 O 0.12696(10) 0.74355(10) 0.8272(2)
H1 H 0.1459 0.7237 0.8544
H2 H 0.1439 0.7568 0.7848
N1 N 0.03201(14) 0.79785(13) 0.8624(3)
N2 N 0.17923(13) 0.80107(14) 0.9776(3)
N3 N 0.55124(13) 0.81789(14) 0.9099(3)
N4 N 0.08565(14) 0.86019(14) 1.0156(3)
N5 N 0.37394(15) 0.89950(14) 0.7528(3)
C1 C 0.14412(17) 0.89119(16) 0.6879(3)
C2 C 0.18357(17) 0.90698(16) 0.6364(3)
C3 C 0.17928(18) 0.94730(17) 0.5789(4)
H3 H 0.2058 0.9577 0.5440
C4 C 0.1366(2) 0.97150(17) 0.5736(4)
C5 C 0.0965(2) 0.9563(2) 0.6239(4)
H4 H 0.0673 0.9731 0.6199
C6 C 0.10068(18) 0.91634(18) 0.6793(4)
H5 H 0.0737 0.9056 0.7123
C7 C 0.14631(17) 0.84709(18) 0.7480(4)
C8 C 0.23407(16) 0.88561(16) 0.6468(4)
C9 C 0.1324(2) 1.0162(2) 0.5120(5)
C10 C 0.42814(18) 0.84366(18) 0.4374(4)
C11 C 0.46269(17) 0.81207(17) 0.4726(3)
C12 C 0.50967(19) 0.81409(19) 0.4371(4)
H6 H 0.5335 0.7938 0.4612
C13 C 0.5212(2) 0.8465(2) 0.3652(4)
C14 C 0.4878(2) 0.8787(2) 0.3312(5)
C15 C 0.5698(3) 0.8476(3) 0.3270(5)
F4 F 0.5908(2) 0.8898(2) 0.3419(4)
F5 F 0.59974(18) 0.8141(2) 0.3614(4)
F6 F 0.57199(19) 0.8416(2) 0.2362(4)
C16 C 0.4413(2) 0.8765(2) 0.3683(4)
H7 H 0.4180 0.8979 0.3459
C17 C 0.3774(2) 0.84489(17) 0.4759(4)
C18 C 0.44985(18) 0.77605(18) 0.5462(4)
C19 C 0.0265(2) 0.7865(2) 0.7722(4)
H8 H 0.0542 0.7805 0.7369
C20 C -0.0177(2) 0.7834(2) 0.7290(4)
H9 H -0.0193 0.7756 0.6658
C21 C -0.0602(2) 0.7916(2) 0.7787(5)
C22 C -0.05491(19) 0.80407(18) 0.8704(4)
H10 H -0.0820 0.8111 0.9067
C23 C -0.00941(18) 0.80618(16) 0.9085(4)
H11 H -0.0071 0.8140 0.9715
C24 C -0.11036(19) 0.7873(2) 0.7332(5)
H12 H -0.1112 0.7584 0.6946
H13 H -0.1347 0.7837 0.7816
C25 C -0.12243(18) 0.8300(2) 0.6750(4)
H14 H -0.0961 0.8358 0.6315
H15 H -0.1252 0.8583 0.7150
C26 C -0.16947(17) 0.8241(2) 0.6200(4)
H16 H -0.1722 0.8508 0.5763
H17 H -0.1675 0.7944 0.5838
C27 C -0.27523(18) 0.86108(18) 0.7730(3)
H18 H -0.2855 0.8890 0.8036
C28 C -0.23224(17) 0.8624(2) 0.7265(4)
H19 H -0.2142 0.8909 0.7266
C29 C -0.21484(17) 0.8225(2) 0.6791(3)
C30 C -0.24339(18) 0.78120(19) 0.6855(3)
H20 H -0.2333 0.7526 0.6569
C31 C -0.28639(18) 0.78210(18) 0.7337(3)
H21 H -0.3047 0.7538 0.7365
N6 N -0.30339(14) 0.82194(15) 0.7771(3)
C32 C 0.20992(17) 0.83730(17) 0.9635(3)
H22 H 0.1989 0.8645 0.9315
C33 C 0.25757(17) 0.83654(18) 0.9940(4)
H23 H 0.2775 0.8631 0.9828
C34 C 0.27568(17) 0.79675(19) 1.0407(3)
C35 C 0.24431(17) 0.75865(19) 1.0531(3)
H24 H 0.2546 0.7306 1.0832
C36 C 0.19765(17) 0.76227(18) 1.0208(3)
H25 H 0.1773 0.7357 1.0296
C37 C 0.32674(17) 0.7931(2) 1.0778(4)
H26 H 0.3315 0.7603 1.1006
H27 H 0.3293 0.8147 1.1312
C38 C 0.36853(15) 0.80483(18) 1.0115(4)
H28 H 0.3653 0.7857 0.9550
H29 H 0.3673 0.8388 0.9943
C39 C 0.41641(17) 0.7939(2) 1.0574(4)
H30 H 0.4167 0.7598 1.0737
H31 H 0.4178 0.8121 1.1154
C40 C 0.51132(19) 0.80588(18) 0.8639(4)
H32 H 0.5131 0.8017 0.7995
C41 C 0.46681(18) 0.7993(2) 0.9079(4)
H33 H 0.4398 0.7911 0.8723
C42 C 0.46206(16) 0.80459(19) 1.0032(4)
C43 C 0.50308(19) 0.81638(19) 1.0485(4)
H34 H 0.5022 0.8203 1.1130
C44 C 0.54616(19) 0.8228(2) 1.0021(4)
H35 H 0.5734 0.8310 1.0371
C45 C 0.09278(16) 0.90600(18) 0.9913(4)
H36 H 0.1076 0.9122 0.9342
C46 C 0.07933(18) 0.94509(19) 1.0462(4)
H37 H 0.0850 0.9766 1.0258
C47 C 0.05751(18) 0.9369(2) 1.1313(4)
C48 C 0.05016(18) 0.8896(2) 1.1567(4)
H38 H 0.0351 0.8827 1.2132
C49 C 0.06473(19) 0.8525(2) 1.0999(4)
H39 H 0.0601 0.8207 1.1200
C50 C 0.0413(3) 0.9789(2) 1.1915(5)
C51 C 0.0195(4) 1.0206(3) 1.1543(8)
C52 C 0.3606(2) 0.9251(2) 0.8276(4)
H40 H 0.3276 0.9291 0.8386
C53 C 0.3927(3) 0.9459(2) 0.8896(4)
H41 H 0.3814 0.9649 0.9388
C54 C 0.4412(2) 0.9383(2) 0.8775(4)
C55 C 0.4555(2) 0.91230(19) 0.8013(4)
H42 H 0.4883 0.9072 0.7898
C56 C 0.42138(19) 0.89386(18) 0.7418(4)
H43 H 0.4321 0.8762 0.6904
C57 C 0.4762(3) 0.9596(3) 0.9482(5)
C58 C 0.5160(4) 0.9854(5) 0.9037(9)
N4A N -0.08565(14) 1.13981(14) 1.0156(3)
C45A C -0.09278(16) 1.09400(18) 0.9913(4)
H36A H -0.1076 1.0878 0.9342
C46A C -0.07933(18) 1.05491(19) 1.0462(4)
H37A H -0.0850 1.0234 1.0258
C47A C -0.05751(18) 1.0631(2) 1.1313(4)
C48A C -0.05016(18) 1.1104(2) 1.1567(4)
H38A H -0.0351 1.1173 1.2132
C49A C -0.06473(19) 1.1475(2) 1.0999(4)
H39A H -0.0601 1.1793 1.1200
C50A C -0.0413(3) 1.0211(2) 1.1915(5)
C51A C -0.0195(4) 0.9794(3) 1.1543(8)
N5A N 0.62606(15) 1.10050(14) 0.7528(3)
C52A C 0.6394(2) 1.0749(2) 0.8276(4)
H40A H 0.6724 1.0709 0.8386
C53A C 0.6073(3) 1.0541(2) 0.8896(4)
H41A H 0.6186 1.0351 0.9388
C54A C 0.5588(2) 1.0617(2) 0.8775(4)
C55A C 0.5445(2) 1.08770(19) 0.8013(4)
H42A H 0.5117 1.0928 0.7898
C56A C 0.57862(19) 1.10614(18) 0.7418(4)
H43A H 0.5679 1.1238 0.6904
C57A C 0.5238(3) 1.0404(3) 0.9482(5)
C58A C 0.4840(4) 1.0146(5) 0.9037(9)
F1A F -0.1074(2) 0.94774(19) 0.5526(4)
F2A F -0.1071(3) 0.99691(19) 0.4333(4)
F3A F -0.17427(19) 0.9664(2) 0.4822(6)
Co1A Co -0.10532(2) 1.20020(2) 0.92454(4)
Co2A Co -0.32250(2) 1.12669(2) 0.65272(5)
O1A O -0.12063(11) 1.15078(11) 0.8211(2)
O2A O -0.17131(12) 1.18779(12) 0.7224(2)
O3A O -0.25640(11) 1.10614(11) 0.7231(2)
O4A O -0.25403(11) 1.13480(11) 0.5791(2)
O5A O -0.34312(13) 1.16169(12) 0.4226(3)
O6A O -0.37513(11) 1.14590(11) 0.5640(3)
O7A O -0.41469(11) 1.25253(11) 0.5284(2)
O8A O -0.47311(13) 1.22484(13) 0.6200(3)
O9A O -0.12696(10) 1.25645(10) 0.8272(2)
H1A H -0.1459 1.2763 0.8544
H2A H -0.1439 1.2432 0.7848
N1A N -0.03201(14) 1.20215(13) 0.8624(3)
N2A N -0.17923(13) 1.19893(14) 0.9776(3)
N3A N -0.55124(13) 1.18211(14) 0.9099(3)
C1A C -0.14412(17) 1.10881(16) 0.6879(3)
C2A C -0.18357(17) 1.09302(16) 0.6364(3)
C3A C -0.17928(18) 1.05270(17) 0.5789(4)
H3A H -0.2058 1.0423 0.5440
C4A C -0.1366(2) 1.02850(17) 0.5736(4)
C5A C -0.0965(2) 1.0437(2) 0.6239(4)
H4A H -0.0673 1.0269 0.6199
C6A C -0.10068(18) 1.08366(18) 0.6793(4)
H5A H -0.0737 1.0944 0.7123
C7A C -0.14631(17) 1.15291(18) 0.7480(4)
C8A C -0.23407(16) 1.11439(16) 0.6468(4)
C9A C -0.1324(2) 0.9838(2) 0.5120(5)
C10A C -0.42814(18) 1.15634(18) 0.4374(4)
C11A C -0.46269(17) 1.18793(17) 0.4726(3)
C12A C -0.50967(19) 1.18591(19) 0.4371(4)
H6A H -0.5335 1.2062 0.4612
C13A C -0.5212(2) 1.1535(2) 0.3652(4)
C14A C -0.4878(2) 1.1213(2) 0.3312(5)
C15A C -0.5698(3) 1.1524(3) 0.3270(5)
F4A F -0.5908(2) 1.1102(2) 0.3419(4)
F5A F -0.59974(18) 1.1859(2) 0.3614(4)
F6A F -0.57199(19) 1.1584(2) 0.2362(4)
C16A C -0.4413(2) 1.1235(2) 0.3683(4)
H7A H -0.4180 1.1021 0.3459
C17A C -0.3774(2) 1.15511(17) 0.4759(4)
C18A C -0.44985(18) 1.22395(18) 0.5462(4)
C19A C -0.0265(2) 1.2135(2) 0.7722(4)
H8A H -0.0542 1.2195 0.7369
C20A C 0.0177(2) 1.2166(2) 0.7290(4)
H9A H 0.0193 1.2244 0.6658
C21A C 0.0602(2) 1.2084(2) 0.7787(5)
C22A C 0.05491(19) 1.19593(18) 0.8704(4)
H10A H 0.0820 1.1889 0.9067
C23A C 0.00941(18) 1.19382(16) 0.9085(4)
H11A H 0.0071 1.1860 0.9715
C24A C 0.11036(19) 1.2127(2) 0.7332(5)
H12A H 0.1112 1.2416 0.6946
H13A H 0.1347 1.2163 0.7816
C25A C 0.12243(18) 1.1700(2) 0.6750(4)
H14A H 0.0961 1.1642 0.6315
H15A H 0.1252 1.1417 0.7150
C26A C 0.16947(17) 1.1759(2) 0.6200(4)
H16A H 0.1722 1.1492 0.5763
H17A H 0.1675 1.2056 0.5838
C27A C 0.27523(18) 1.13892(18) 0.7730(3)
H18A H 0.2855 1.1110 0.8036
C28A C 0.23224(17) 1.1376(2) 0.7265(4)
H19A H 0.2142 1.1091 0.7266
C29A C 0.21484(17) 1.1775(2) 0.6791(3)
C30A C 0.24339(18) 1.21880(19) 0.6855(3)
H20A H 0.2333 1.2474 0.6569
C31A C 0.28639(18) 1.21790(18) 0.7337(3)
H21A H 0.3047 1.2462 0.7365
N6A N 0.30339(14) 1.17806(15) 0.7771(3)
C32A C -0.20992(17) 1.16270(17) 0.9635(3)
H22A H -0.1989 1.1355 0.9315
C33A C -0.25757(17) 1.16346(18) 0.9940(4)
H23A H -0.2775 1.1369 0.9828
C34A C -0.27568(17) 1.20325(19) 1.0407(3)
C35A C -0.24431(17) 1.24135(19) 1.0531(3)
H24A H -0.2546 1.2694 1.0832
C36A C -0.19765(17) 1.23773(18) 1.0208(3)
H25A H -0.1773 1.2643 1.0296
C37A C -0.32674(17) 1.2069(2) 1.0778(4)
H26A H -0.3315 1.2397 1.1006
H27A H -0.3293 1.1853 1.1312
C38A C -0.36853(15) 1.19517(18) 1.0115(4)
H28A H -0.3653 1.2143 0.9550
H29A H -0.3673 1.1612 0.9943
C39A C -0.41641(17) 1.2061(2) 1.0574(4)
H30A H -0.4167 1.2402 1.0737
H31A H -0.4178 1.1879 1.1154
C40A C -0.51132(19) 1.19412(18) 0.8639(4)
H32A H -0.5131 1.1983 0.7995
C41A C -0.46681(18) 1.2007(2) 0.9079(4)
H33A H -0.4398 1.2089 0.8723
C42A C -0.46206(16) 1.19541(19) 1.0032(4)
C43A C -0.50308(19) 1.18362(19) 1.0485(4)
H34A H -0.5022 1.1797 1.1130
C44A C -0.54616(19) 1.1772(2) 1.0021(4)
H35A H -0.5734 1.1690 1.0371
Co1D Co -0.39468(2) 1.29980(2) 0.42454(4)
Co1E Co 0.39468(2) 0.70020(2) 0.42454(4)
Co2A_2 Co 0.67750(2) 1.12669(2) 0.65272(5)
Co2F Co -0.62669(2) 1.17750(2) 0.84728(5)
Co2F_2 Co 0.37331(2) 1.17750(2) 0.84728(5)
Co2G Co -0.37331(2) 0.82250(2) 0.84728(5)
Co2G_2 Co 0.62669(2) 0.82250(2) 0.84728(5)
O7D O -0.08531(11) 1.24747(11) 1.0284(2)
O7E O 0.08531(11) 0.75253(11) 1.0284(2)
N3F N 0.31789(14) 0.94876(13) 0.5901(3)
N3G N -0.31789(14) 1.05124(13) 0.5901(3)
N5A_2 N -0.37394(15) 1.10050(14) 0.7528(3)
N6F N 0.32194(15) 0.80339(14) 0.7229(3)
N6G N -0.32194(15) 1.19661(14) 0.7229(3)
F7? F 0.0880(4) 1.0345(7) 0.5212(16)
F8? F 0.1452(8) 1.0124(8) 0.4241(8)
F9? F 0.1635(6) 1.0474(6) 0.5553(12)
C59? C 0.5057(4) 0.9232(4) 0.2862(9)
F10? F 0.4746(4) 0.9602(4) 0.2793(9)
F11? F 0.5470(3) 0.9450(5) 0.3111(8)
F12? F 0.5139(4) 0.9108(5) 0.1983(8)
H46? H 0.4884 0.9334 0.9857
H47? H 0.4583 0.9811 0.9881
H48? H 0.5365 0.9978 0.9525
H49? H 0.5343 0.9638 0.8648
H50? H 0.0693 0.9886 1.2267
H51? H 0.0184 0.9657 1.2353
H52? H 0.0116 1.0423 1.2044
H53? H 0.0427 1.0357 1.1136
loop_
_geom_bond_atom_site_label_1
_geom_bond_atom_site_label_2
_geom_bond_site_symmetry_1
_geom_bond_site_symmetry_2
F1 C9 1_555 1_555
F2 C9 1_555 1_555
F3 C9 1_555 1_555
Co1 O1 1_555 1_555
Co2 O3 1_555 1_555
O1 C7 1_555 1_555
O2 C7 1_555 1_555
O3 C8 1_555 1_555
O4 Co2 1_555 1_555
O5 C17 1_555 1_555
O6 Co2 1_555 1_555
O7 C18 1_555 1_555
O8 C18 1_555 1_555
O9 Co1 1_555 1_555
H1 O9 1_555 1_555
H2 O9 1_555 1_555
N1 Co1 1_555 1_555
N2 Co1 1_555 1_555
N3 C40 1_555 1_555
N4 Co1 1_555 1_555
N5 Co2 1_555 1_555
C1 C2 1_555 1_555
C2 C3 1_555 1_555
C3 H3 1_555 1_555
C4 C3 1_555 1_555
C5 C4 1_555 1_555
H4 C5 1_555 1_555
C6 C1 1_555 1_555
H5 C6 1_555 1_555
C7 C1 1_555 1_555
C8 O4 1_555 1_555
C9 C4 1_555 1_555
C10 C11 1_555 1_555
C11 C12 1_555 1_555
C12 H6 1_555 1_555
C13 C12 1_555 1_555
C14 C13 1_555 1_555
C15 C13 1_555 1_555
F4 C15 1_555 1_555
F5 C15 1_555 1_555
F6 C15 1_555 1_555
C16 C10 1_555 1_555
H7 C16 1_555 1_555
C17 O6 1_555 1_555
C18 C11 1_555 1_555
C19 N1 1_555 1_555
H8 C19 1_555 1_555
C20 C19 1_555 1_555
H9 C20 1_555 1_555
C21 C20 1_555 1_555
C22 C21 1_555 1_555
H10 C22 1_555 1_555
C23 N1 1_555 1_555
H11 C23 1_555 1_555
C24 C21 1_555 1_555
H12 C24 1_555 1_555
H13 C24 1_555 1_555
C25 C24 1_555 1_555
H14 C25 1_555 1_555
H15 C25 1_555 1_555
C26 C25 1_555 1_555
H16 C26 1_555 1_555
H17 C26 1_555 1_555
C27 H18 1_555 1_555
C28 C27 1_555 1_555
H19 C28 1_555 1_555
C29 C26 1_555 1_555
C30 C29 1_555 1_555
H20 C30 1_555 1_555
C31 C30 1_555 1_555
H21 C31 1_555 1_555
N6 C27 1_555 1_555
C32 N2 1_555 1_555
H22 C32 1_555 1_555
C33 C32 1_555 1_555
H23 C33 1_555 1_555
C34 C33 1_555 1_555
C35 C34 1_555 1_555
H24 C35 1_555 1_555
C36 N2 1_555 1_555
H25 C36 1_555 1_555
C37 C34 1_555 1_555
H26 C37 1_555 1_555
H27 C37 1_555 1_555
C38 C37 1_555 1_555
H28 C38 1_555 1_555
H29 C38 1_555 1_555
C39 C38 1_555 1_555
H30 C39 1_555 1_555
H31 C39 1_555 1_555
C40 H32 1_555 1_555
C41 C40 1_555 1_555
H33 C41 1_555 1_555
C42 C39 1_555 1_555
C43 C42 1_555 1_555
H34 C43 1_555 1_555
C44 N3 1_555 1_555
H35 C44 1_555 1_555
C45 N4 1_555 1_555
H36 C45 1_555 1_555
C46 C45 1_555 1_555
H37 C46 1_555 1_555
C47 C46 1_555 1_555
C48 C47 1_555 1_555
H38 C48 1_555 1_555
C49 N4 1_555 1_555
H39 C49 1_555 1_555
C50 C47 1_555 1_555
C51 C50 1_555 1_555
C52 N5 1_555 1_555
H40 C52 1_555 1_555
C53 C52 1_555 1_555
H41 C53 1_555 1_555
C54 C53 1_555 1_555
C55 C54 1_555 1_555
H42 C55 1_555 1_555
C56 N5 1_555 1_555
H43 C56 1_555 1_555
C57 C54 1_555 1_555
C58 C57 1_555 1_555
O10 H44 1_555 1_555
H45 O10 1_555 1_555
N4A C45A 1_555 1_555
C45A H36A 1_555 1_555
C46A C45A 1_555 1_555
H37A C46A 1_555 1_555
C47A C46A 1_555 1_555
C48A C47A 1_555 1_555
H38A C48A 1_555 1_555
C49A N4A 1_555 1_555
H39A C49A 1_555 1_555
C50A C51 1_555 1_555
C51A C50 1_555 1_555
N5A C52A 1_555 1_555
C52A H40A 1_555 1_555
C53A C52A 1_555 1_555
H41A C53A 1_555 1_555
C54A C53A 1_555 1_555
C55A C54A 1_555 1_555
H42A C55A 1_555 1_555
C56A N5A 1_555 1_555
H43A C56A 1_555 1_555
C57A C58 1_555 1_555
C58A C57 1_555 1_555
F1A C9A 1_555 1_555
F2A C9A 1_555 1_555
F3A C9A 1_555 1_555
Co1A N4A 1_555 1_555
Co2A O3A 1_555 1_555
O1A Co1A 1_555 1_555
O2A C7A 1_555 1_555
O3A C8A 1_555 1_555
O4A Co2A 1_555 1_555
O5A C17A 1_555 1_555
O6A Co2A 1_555 1_555
O7A C18A 1_555 1_555
O8A C18A 1_555 1_555
O9A Co1A 1_555 1_555
H1A O9A 1_555 1_555
H2A O9A 1_555 1_555
N1A Co1A 1_555 1_555
N2A Co1A 1_555 1_555
N3A C40A 1_555 1_555
C1A C2A 1_555 1_555
C2A C3A 1_555 1_555
C3A H3A 1_555 1_555
C4A C3A 1_555 1_555
C5A C4A 1_555 1_555
H4A C5A 1_555 1_555
C6A C1A 1_555 1_555
H5A C6A 1_555 1_555
C7A O1A 1_555 1_555
C8A O4A 1_555 1_555
C9A C4A 1_555 1_555
C10A C11A 1_555 1_555
C11A C12A 1_555 1_555
C12A H6A 1_555 1_555
C13A C12A 1_555 1_555
C14A C13A 1_555 1_555
C15A C13A 1_555 1_555
F4A C15A 1_555 1_555
F5A C15A 1_555 1_555
F6A C15A 1_555 1_555
C16A C10A 1_555 1_555
H7A C16A 1_555 1_555
C17A O6A 1_555 1_555
C18A C11A 1_555 1_555
C19A N1A 1_555 1_555
H8A C19A 1_555 1_555
C20A C19A 1_555 1_555
H9A C20A 1_555 1_555
C21A C20A 1_555 1_555
C22A C21A 1_555 1_555
H10A C22A 1_555 1_555
C23A N1A 1_555 1_555
H11A C23A 1_555 1_555
C24A C21A 1_555 1_555
H12A C24A 1_555 1_555
H13A C24A 1_555 1_555
C25A C24A 1_555 1_555
H14A C25A 1_555 1_555
H15A C25A 1_555 1_555
C26A C25A 1_555 1_555
H16A C26A 1_555 1_555
H17A C26A 1_555 1_555
C27A H18A 1_555 1_555
C28A C27A 1_555 1_555
H19A C28A 1_555 1_555
C29A C26A 1_555 1_555
C30A C29A 1_555 1_555
H20A C30A 1_555 1_555
C31A C30A 1_555 1_555
H21A C31A 1_555 1_555
N6A C27A 1_555 1_555
C32A N2A 1_555 1_555
H22A C32A 1_555 1_555
C33A C32A 1_555 1_555
H23A C33A 1_555 1_555
C34A C33A 1_555 1_555
C35A C34A 1_555 1_555
H24A C35A 1_555 1_555
C36A N2A 1_555 1_555
H25A C36A 1_555 1_555
C37A C34A 1_555 1_555
H26A C37A 1_555 1_555
H27A C37A 1_555 1_555
C38A C37A 1_555 1_555
H28A C38A 1_555 1_555
H29A C38A 1_555 1_555
C39A C38A 1_555 1_555
H30A C39A 1_555 1_555
H31A C39A 1_555 1_555
C40A H32A 1_555 1_555
C41A C40A 1_555 1_555
H33A C41A 1_555 1_555
C42A C39A 1_555 1_555
C43A C42A 1_555 1_555
H34A C43A 1_555 1_555
C44A N3A 1_555 1_555
H35A C44A 1_555 1_555
Co1D O7A 1_555 1_555
Co1E O7 1_555 1_555
Co2A_2 N5A 1_555 1_555
Co2F N3A 1_555 1_555
Co2F_2 N6A 1_555 1_555
Co2G N6 1_555 1_555
Co2G_2 N3 1_555 1_555
O7D Co1A 1_555 1_555
O7E Co1 1_555 1_555
N3F Co2 1_555 1_555
N3G Co2A 1_555 1_555
N5A_2 Co2A 1_555 1_555
N6F Co2 1_555 1_555
N6G Co2A 1_555 1_555
C2 C8 1_555 1_555
C5 C6 1_555 1_555
C10 C17 1_555 1_555
C14 C16 1_555 1_555
C22 C23 1_555 1_555
C28 C29 1_555 1_555
C31 N6 1_555 1_555
C35 C36 1_555 1_555
C41 C42 1_555 1_555
C43 C44 1_555 1_555
C48 C49 1_555 1_555
C51 C51A 1_555 1_555
C55 C56 1_555 1_555
C58 C58A 1_555 1_555
C47A C50A 1_555 1_555
C48A C49A 1_555 1_555
C50A C51A 1_555 1_555
C54A C57A 1_555 1_555
C55A C56A 1_555 1_555
C57A C58A 1_555 1_555
C1A C7A 1_555 1_555
C2A C8A 1_555 1_555
C5A C6A 1_555 1_555
C10A C17A 1_555 1_555
C14A C16A 1_555 1_555
C22A C23A 1_555 1_555
C28A C29A 1_555 1_555
C31A N6A 1_555 1_555
C35A C36A 1_555 1_555
C41A C42A 1_555 1_555
C43A C44A 1_555 1_555

#END
