
#######################################################################
#
#                 Cambridge Crystallographic Data Centre
#                                CCDC 
#
#######################################################################
#
# If this CIF has been generated from an entry in the Cambridge 
# Structural Database, then it will include bibliographic, chemical, 
# crystal, experimental, refinement or atomic coordinate data resulting 
# from the CCDC's data processing and validation procedures.
#
#######################################################################

data_YIHBOI
_symmetry_cell_setting           monoclinic
_symmetry_space_group_name_H-M   'C 2/c'
_symmetry_Int_Tables_number      15
_space_group_name_Hall           '-C 2yn'
loop_
_symmetry_equiv_pos_site_id
_symmetry_equiv_pos_as_xyz
1 x,y,z
2 -x,y,1/2-z
3 1/2+x,1/2+y,z
4 1/2-x,1/2+y,1/2-z
5 -x,-y,-z
6 x,-y,1/2+z
7 1/2-x,1/2-y,-z
8 1/2+x,1/2-y,1/2+z
_cell_length_a                   20.769(2)
_cell_length_b                   11.6795(12)
_cell_length_c                   20.382(2)
_cell_angle_alpha                90
_cell_angle_beta                 105.5720(10)
_cell_angle_gamma                90
_cell_volume                     4762.61
loop_
_atom_site_label
_atom_site_type_symbol
_atom_site_fract_x
_atom_site_fract_y
_atom_site_fract_z
Cd1 Cd 0.251176(14) 0.35688(2) 0.175834(15)
F1 F 0.4095(2) 0.1826(4) 0.5222(4)
F2 F 0.4964(2) 0.2291(4) 0.5009(3)
F3 F 0.4797(4) 0.2881(5) 0.5882(2)
N1 N 0.34744(18) 0.2631(3) 0.1479(2)
N2 N 0.26983(19) 0.5057(3) 0.1070(2)
N3 N 0.64906(17) -0.0315(3) 0.16165(19)
O1 O 0.2498(2) 0.3995(4) 0.2985(3)
O2 O 0.3400(3) 0.4280(5) 0.2665(2)
O3 O 0.29212(17) 0.6651(3) 0.31726(17)
O4 O 0.31210(16) 0.7492(3) 0.41740(17)
C1 C 0.4046(2) 0.3204(4) 0.1586(2)
H1 H 0.4042 0.3984 0.1676
C2 C 0.4649(2) 0.2705(4) 0.1571(2)
H2 H 0.5034 0.3148 0.1649
C3 C 0.4674(2) 0.1541(4) 0.1438(2)
C4 C 0.4065(2) 0.0942(5) 0.1297(3)
H3 H 0.4049 0.0168 0.1186
C5 C 0.3490(2) 0.1517(4) 0.1324(3)
H4 H 0.3092 0.1107 0.1228
C6 C 0.5306(2) 0.0934(4) 0.1473(2)
C7 C 0.5901(2) 0.1255(4) 0.1927(2)
H5 H 0.5918 0.1906 0.2194
C8 C 0.6467(2) 0.0616(4) 0.1986(2)
H6 H 0.6858 0.0846 0.2303
C9 C 0.5928(2) -0.0590(4) 0.1149(3)
H7 H 0.5936 -0.1204 0.0862
C10 C 0.5338(2) -0.0012(4) 0.1071(3)
H8 H 0.4956 -0.0256 0.0747
C11 C 0.2468(3) 0.4964(4) 0.0395(3)
H9 H 0.2354 0.4241 0.0208
C12 C 0.2391(3) 0.5894(4) -0.0040(3)
H10 H 0.2234 0.5787 -0.0508
C13 C 0.2547(2) 0.6988(4) 0.0224(2)
C14 C 0.2793(3) 0.7070(4) 0.0927(3)
H11 H 0.2915 0.7779 0.1130
C15 C 0.2855(3) 0.6102(4) 0.1319(3)
H12 H 0.3017 0.6182 0.1789
C16 C 0.3093(3) 0.4281(4) 0.3102(3)
C17 C 0.3471(2) 0.4526(4) 0.3837(2)
C18 C 0.3790(2) 0.3595(4) 0.4206(2)
H13 H 0.3761 0.2880 0.3999
C19 C 0.4153(2) 0.3719(4) 0.4885(2)
C20 C 0.4193(2) 0.4768(4) 0.5202(2)
H14 H 0.4434 0.4849 0.5655
C21 C 0.3870(2) 0.5699(4) 0.4838(2)
H15 H 0.3895 0.6407 0.5051
C22 C 0.3508(2) 0.5596(4) 0.4156(2)
C23 C 0.3161(2) 0.6652(4) 0.3809(2)
C24 C 0.4488(3) 0.2695(5) 0.5260(3)
N2F N 0.23017(19) 0.9943(3) -0.1070(2)
C11F C 0.2532(3) 1.0036(4) -0.0395(3)
H9F H 0.2646 1.0759 -0.0208
C12F C 0.2609(3) 0.9106(4) 0.0040(3)
H10F H 0.2766 0.9213 0.0508
C13F C 0.2453(2) 0.8012(4) -0.0224(2)
C14F C 0.2207(3) 0.7930(4) -0.0927(3)
H11F H 0.2085 0.7221 -0.1130
C15F C 0.2145(3) 0.8898(4) -0.1319(3)
H12F H 0.1983 0.8818 -0.1789
Cd1F Cd 0.248824(14) 1.14312(2) -0.175834(15)
F1F F 0.0905(2) 1.3174(4) -0.5222(4)
F2F F 0.0036(2) 1.2709(4) -0.5009(3)
F3F F 0.0203(4) 1.2119(5) -0.5882(2)
N1F N 0.15256(18) 1.2369(3) -0.1479(2)
N3F N -0.14906(17) 1.5315(3) -0.16165(19)
O1F O 0.2502(2) 1.1005(4) -0.2985(3)
O2F O 0.1600(3) 1.0720(5) -0.2665(2)
O3F O 0.20788(17) 0.8349(3) -0.31726(17)
O4F O 0.18790(16) 0.7508(3) -0.41740(17)
C1F C 0.0954(2) 1.1796(4) -0.1586(2)
H1F H 0.0958 1.1016 -0.1676
C2F C 0.0351(2) 1.2295(4) -0.1571(2)
H2F H -0.0034 1.1852 -0.1649
C3F C 0.0326(2) 1.3459(4) -0.1438(2)
C4F C 0.0935(2) 1.4058(5) -0.1297(3)
H3F H 0.0951 1.4832 -0.1186
C5F C 0.1510(2) 1.3483(4) -0.1324(3)
H4F H 0.1908 1.3893 -0.1228
C6F C -0.0306(2) 1.4066(4) -0.1473(2)
C7F C -0.0901(2) 1.3745(4) -0.1927(2)
H5F H -0.0918 1.3094 -0.2194
C8F C -0.1467(2) 1.4384(4) -0.1986(2)
H6F H -0.1858 1.4154 -0.2303
C9F C -0.0928(2) 1.5590(4) -0.1149(3)
H7F H -0.0936 1.6204 -0.0862
C10F C -0.0338(2) 1.5012(4) -0.1071(3)
H8F H 0.0044 1.5256 -0.0747
C16F C 0.1907(3) 1.0719(4) -0.3102(3)
C17F C 0.1529(2) 1.0474(4) -0.3837(2)
C18F C 0.1210(2) 1.1405(4) -0.4206(2)
H13F H 0.1239 1.2120 -0.3999
C19F C 0.0847(2) 1.1281(4) -0.4885(2)
C20F C 0.0807(2) 1.0232(4) -0.5202(2)
H14F H 0.0566 1.0151 -0.5655
C21F C 0.1130(2) 0.9301(4) -0.4838(2)
H15F H 0.1105 0.8593 -0.5051
C22F C 0.1492(2) 0.9404(4) -0.4156(2)
C23F C 0.1839(2) 0.8348(4) -0.3809(2)
C24F C 0.0512(3) 1.2305(5) -0.5260(3)
Cd1B Cd 0.751176(14) -0.14312(2) 0.175834(15)
Cd1C Cd 0.248824(14) 0.85688(2) 0.324166(15)
Cd1D Cd -0.251176(14) 1.64312(2) -0.175834(15)
Cd1E Cd 0.251176(14) 0.64312(2) -0.324166(15)
N3B N 0.14906(17) 0.4685(3) 0.16165(19)
N3D N 0.35094(17) 1.0315(3) -0.16165(19)
O3C O 0.20788(17) 0.1651(3) 0.18274(17)
O3E O 0.29212(17) 1.3349(3) -0.18274(17)
O4C O 0.18790(16) 0.2492(3) 0.08260(17)
O4E O 0.31210(16) 1.2508(3) -0.08260(17)
O5 O 0.4598(6) 0.5461(11) 0.2913(7)
H16 H 0.4762 0.5939 0.3228
H17 H 0.4231 0.5097 0.2811
O6 O 0.4241(10) 0.8076(19) 0.2357(9)
H18 H 0.4332 0.7397 0.2503
H19 H 0.3953 0.8477 0.2074
loop_
_geom_bond_atom_site_label_1
_geom_bond_atom_site_label_2
_geom_bond_site_symmetry_1
_geom_bond_site_symmetry_2
Cd1 N1 1_555 1_555
F1 C24 1_555 1_555
F2 C24 1_555 1_555
F3 C24 1_555 1_555
N1 C1 1_555 1_555
N2 Cd1 1_555 1_555
N3 C8 1_555 1_555
O1 Cd1 1_555 1_555
O2 Cd1 1_555 1_555
O3 C23 1_555 1_555
O4 C23 1_555 1_555
C1 H1 1_555 1_555
C2 C1 1_555 1_555
H2 C2 1_555 1_555
C3 C2 1_555 1_555
C4 C3 1_555 1_555
H3 C4 1_555 1_555
C5 N1 1_555 1_555
H4 C5 1_555 1_555
C6 C3 1_555 1_555
C7 C6 1_555 1_555
H5 C7 1_555 1_555
C8 C7 1_555 1_555
H6 C8 1_555 1_555
C9 N3 1_555 1_555
H7 C9 1_555 1_555
C10 C6 1_555 1_555
H8 C10 1_555 1_555
C11 N2 1_555 1_555
H9 C11 1_555 1_555
C12 C11 1_555 1_555
H10 C12 1_555 1_555
C13 C12 1_555 1_555
C14 C13 1_555 1_555
H11 C14 1_555 1_555
C15 N2 1_555 1_555
H12 C15 1_555 1_555
C16 O1 1_555 1_555
C17 C16 1_555 1_555
C18 C17 1_555 1_555
H13 C18 1_555 1_555
C19 C18 1_555 1_555
C20 C19 1_555 1_555
H14 C20 1_555 1_555
C21 C20 1_555 1_555
H15 C21 1_555 1_555
C22 C17 1_555 1_555
C23 C22 1_555 1_555
C24 C19 1_555 1_555
O5 H16 1_555 1_555
H17 O5 1_555 1_555
O6 H18 1_555 1_555
H19 O6 1_555 1_555
N2F C11F 1_555 1_555
C11F H9F 1_555 1_555
C12F C11F 1_555 1_555
H10F C12F 1_555 1_555
C13F C13 1_555 1_555
C14F C13F 1_555 1_555
H11F C14F 1_555 1_555
C15F N2F 1_555 1_555
H12F C15F 1_555 1_555
Cd1F N2F 1_555 1_555
F1F C24F 1_555 1_555
F2F C24F 1_555 1_555
F3F C24F 1_555 1_555
N1F Cd1F 1_555 1_555
N3F C8F 1_555 1_555
O1F Cd1F 1_555 1_555
O2F Cd1F 1_555 1_555
O3F C23F 1_555 1_555
O4F C23F 1_555 1_555
C1F N1F 1_555 1_555
H1F C1F 1_555 1_555
C2F C1F 1_555 1_555
H2F C2F 1_555 1_555
C3F C2F 1_555 1_555
C4F C3F 1_555 1_555
H3F C4F 1_555 1_555
C5F N1F 1_555 1_555
H4F C5F 1_555 1_555
C6F C3F 1_555 1_555
C7F C6F 1_555 1_555
H5F C7F 1_555 1_555
C8F C7F 1_555 1_555
H6F C8F 1_555 1_555
C9F N3F 1_555 1_555
H7F C9F 1_555 1_555
C10F C6F 1_555 1_555
H8F C10F 1_555 1_555
C16F O1F 1_555 1_555
C17F C16F 1_555 1_555
C18F C17F 1_555 1_555
H13F C18F 1_555 1_555
C19F C18F 1_555 1_555
C20F C19F 1_555 1_555
H14F C20F 1_555 1_555
C21F C20F 1_555 1_555
H15F C21F 1_555 1_555
C22F C17F 1_555 1_555
C23F C22F 1_555 1_555
C24F C19F 1_555 1_555
Cd1B N3 1_555 1_555
Cd1C O3 1_555 1_555
Cd1D N3F 1_555 1_555
Cd1E O3F 1_555 1_555
N3B Cd1 1_555 1_555
N3D Cd1F 1_555 1_555
O3C Cd1 1_555 1_555
O3E Cd1F 1_555 1_555
O4C Cd1 1_555 1_555
O4E Cd1F 1_555 1_555
O2 C16 1_555 1_555
O4 Cd1C 1_555 1_555
C4 C5 1_555 1_555
C9 C10 1_555 1_555
C14 C15 1_555 1_555
C21 C22 1_555 1_555
C12F C13F 1_555 1_555
C14F C15F 1_555 1_555
O2F C16F 1_555 1_555
O4F Cd1E 1_555 1_555
C4F C5F 1_555 1_555
C9F C10F 1_555 1_555
C21F C22F 1_555 1_555

#END
