
#######################################################################
#
#                 Cambridge Crystallographic Data Centre
#                                CCDC 
#
#######################################################################
#
# If this CIF has been generated from an entry in the Cambridge 
# Structural Database, then it will include bibliographic, chemical, 
# crystal, experimental, refinement or atomic coordinate data resulting 
# from the CCDC's data processing and validation procedures.
#
#######################################################################

data_YIHBAU
_symmetry_cell_setting           tetragonal
_symmetry_space_group_name_H-M   'I -4'
_symmetry_Int_Tables_number      82
_space_group_name_Hall           'I -4'
loop_
_symmetry_equiv_pos_site_id
_symmetry_equiv_pos_as_xyz
1 x,y,z
2 y,-x,-z
3 -x,-y,z
4 -y,x,-z
5 1/2+x,1/2+y,1/2+z
6 1/2+y,1/2-x,1/2-z
7 1/2-x,1/2-y,1/2+z
8 1/2-y,1/2+x,1/2-z
_cell_length_a                   27.4279(14)
_cell_length_b                   27.4279(14)
_cell_length_c                   14.3090(19)
_cell_angle_alpha                90
_cell_angle_beta                 90
_cell_angle_gamma                90
_cell_volume                     10764.5
loop_
_atom_site_label
_atom_site_type_symbol
_atom_site_fract_x
_atom_site_fract_y
_atom_site_fract_z
O10 O 0.5493(3) 0.7084(3) 0.6348(6)
H44 H 0.5644 0.7223 0.6792
H45 H 0.5256 0.7280 0.6316
Ni1 Ni 0.10522(3) 0.80012(3) 0.92400(6)
N1 N 0.0337(2) 0.7978(2) 0.8638(4)
C1 C 0.0282(3) 0.7872(3) 0.7733(6)
H1 H 0.0559 0.7817 0.7374
C2 C -0.0173(3) 0.7841(3) 0.7300(7)
H2 H -0.0191 0.7764 0.6668
C3 C -0.0596(3) 0.7923(3) 0.7803(7)
C4 C -0.0532(3) 0.8045(3) 0.8724(6)
H3 H -0.0803 0.8114 0.9093
C5 C -0.0076(3) 0.8065(2) 0.9106(6)
H4 H -0.0051 0.8146 0.9736
C6 C -0.1103(3) 0.7878(4) 0.7350(8)
H5 H -0.1109 0.7590 0.6955
H6 H -0.1346 0.7836 0.7835
C7 C -0.1229(3) 0.8311(3) 0.6781(7)
H7 H -0.0968 0.8374 0.6339
H8 H -0.1255 0.8593 0.7188
C8 C -0.1705(3) 0.8249(3) 0.6250(6)
H9 H -0.1737 0.8517 0.5813
H10 H -0.1684 0.7951 0.5886
C9 C -0.2775(3) 0.8622(3) 0.7773(5)
H11 H -0.2881 0.8902 0.8077
C10 C -0.2338(3) 0.8632(3) 0.7301(6)
H12 H -0.2156 0.8919 0.7295
C11 C -0.2161(3) 0.8227(3) 0.6835(5)
C12 C -0.2444(3) 0.7811(3) 0.6899(5)
H13 H -0.2342 0.7524 0.6615
C13 C -0.2877(3) 0.7823(3) 0.7382(5)
H14 H -0.3059 0.7537 0.7412
N2 N -0.3054(2) 0.8216(2) 0.7809(4)
N3 N 0.1779(2) 0.8008(2) 0.9757(4)
N4 N 0.5529(2) 0.8174(2) 0.9088(4)
C14 C 0.2085(3) 0.8379(3) 0.9622(5)
H15 H 0.1970 0.8656 0.9317
C15 C 0.2559(3) 0.8373(3) 0.9911(6)
H16 H 0.2757 0.8641 0.9791
C16 C 0.2749(3) 0.7975(3) 1.0380(5)
C17 C 0.2432(3) 0.7585(3) 1.0500(5)
H17 H 0.2541 0.7300 1.0782
C18 C 0.1961(3) 0.7620(3) 1.0203(5)
H18 H 0.1754 0.7359 1.0317
C19 C 0.3264(3) 0.7927(3) 1.0749(6)
H19 H 0.3309 0.7594 1.0961
H20 H 0.3295 0.8137 1.1292
C20 C 0.3679(2) 0.8048(3) 1.0080(6)
H21 H 0.3664 0.8389 0.9906
H22 H 0.3648 0.7854 0.9516
C21 C 0.4167(3) 0.7941(4) 1.0551(6)
H23 H 0.4178 0.8124 1.1129
H24 H 0.4171 0.7598 1.0716
C22 C 0.5124(3) 0.8069(3) 0.8625(6)
H25 H 0.5140 0.8039 0.7979
C23 C 0.4673(3) 0.8000(3) 0.9064(6)
H26 H 0.4401 0.7921 0.8706
C24 C 0.4626(3) 0.8048(3) 1.0017(6)
C25 C 0.5043(3) 0.8156(3) 1.0481(6)
H27 H 0.5036 0.8189 1.1127
C26 C 0.5477(3) 0.8216(3) 1.0010(6)
H28 H 0.5752 0.8292 1.0360
N5 N 0.0862(2) 0.8593(2) 1.0132(4)
C27 C 0.0929(2) 0.9058(3) 0.9891(6)
H29 H 0.1078 0.9125 0.9322
C28 C 0.0789(3) 0.9442(3) 1.0439(6)
H30 H 0.0837 0.9759 1.0227
C29 C 0.0578(3) 0.9367(3) 1.1301(6)
C30 C 0.0509(3) 0.8889(3) 1.1554(6)
H31 H 0.0360 0.8818 1.2122
C31 C 0.0654(3) 0.8514(3) 1.0988(5)
H32 H 0.0609 0.8195 1.1191
C32 C 0.0415(4) 0.9786(4) 1.1894(8)
C33 C 0.0210(5) 1.0156(7) 1.1548(13)
Ni2 Ni 0.62530(3) 0.82231(3) 0.84666(6)
O1 O 0.65032(16) 0.62025(17) 0.6779(3)
O2 O 0.68849(18) 0.67128(19) 0.7764(4)
O3 O 0.60526(17) 0.75673(17) 0.7779(4)
O4 O 0.63534(16) 0.75475(16) 0.9198(3)
F1 F 0.4498(2) 0.6044(3) 0.9525(5)
F2 F 0.4954(3) 0.6113(3) 1.0689(6)
F3 F 0.4655(3) 0.6722(3) 1.0154(7)
C34 C 0.6089(2) 0.6438(2) 0.8124(5)
C35 C 0.5934(2) 0.6837(2) 0.8646(5)
C36 C 0.5532(3) 0.6791(3) 0.9208(6)
H33 H 0.5433 0.7058 0.9563
C37 C 0.5276(3) 0.6371(3) 0.9263(6)
C38 C 0.5433(3) 0.5966(3) 0.8771(6)
H34 H 0.5268 0.5671 0.8821
C39 C 0.5835(3) 0.6005(3) 0.8209(5)
H35 H 0.5940 0.5734 0.7876
C40 C 0.6533(3) 0.6459(3) 0.7508(6)
C41 C 0.6144(2) 0.7343(2) 0.8530(5)
C42 C 0.4833(4) 0.6334(4) 0.9852(9)
N6 N 0.6005(2) 0.8735(2) 0.7490(4)
C43 C 0.5757(3) 0.8594(3) 0.6736(6)
H36 H 0.5718 0.8261 0.6635
C44 C 0.5556(3) 0.8911(4) 0.6100(6)
H37 H 0.5382 0.8791 0.5592
C45 C 0.5613(3) 0.9404(4) 0.6217(7)
C46 C 0.5872(3) 0.9551(3) 0.7004(7)
H38 H 0.5921 0.9882 0.7115
C47 C 0.6055(3) 0.9216(3) 0.7616(6)
H39 H 0.6222 0.9326 0.8142
C48 C 0.5407(4) 0.9758(4) 0.5512(9)
C49 C 0.5166(7) 1.0132(8) 0.5928(14)
O5 O 0.12650(16) 0.74418(16) 0.8302(3)
H40 H 0.1454 0.7243 0.8574
H41 H 0.1435 0.7575 0.7878
O6 O 0.15724(18) 0.66193(18) 0.9253(4)
O7 O 0.12432(17) 0.64397(18) 1.0649(4)
O8 O 0.08511(17) 0.75253(17) 1.0287(3)
O9 O 0.0261(2) 0.7248(2) 1.1185(4)
C50 C 0.0716(3) 0.6558(3) 0.9382(5)
C51 C 0.0368(2) 0.6875(2) 0.9714(5)
C52 C -0.0104(3) 0.6862(3) 0.9353(6)
H42 H -0.0340 0.7074 0.9583
C53 C -0.0223(3) 0.6537(3) 0.8659(7)
C54 C 0.0120(3) 0.6208(4) 0.8330(7)
C55 C 0.0592(3) 0.6225(3) 0.8699(7)
H43 H 0.0827 0.6008 0.8481
C56 C 0.1227(3) 0.6541(3) 0.9780(6)
C57 C 0.0497(3) 0.7243(3) 1.0448(6)
C58 C -0.0712(4) 0.6528(6) 0.8261(10)
F4 F -0.0922(3) 0.6107(3) 0.8402(7)
F5 F -0.1004(3) 0.6874(4) 0.8613(7)
F6 F -0.0727(3) 0.6595(3) 0.7358(6)
N5B N -0.0862(2) 1.1407(2) 1.0132(4)
C27B C -0.0929(2) 1.0942(3) 0.9891(6)
H29B H -0.1078 1.0875 0.9322
C28B C -0.0789(3) 1.0558(3) 1.0439(6)
H30B H -0.0837 1.0241 1.0227
C29B C -0.0578(3) 1.0633(3) 1.1301(6)
C30B C -0.0509(3) 1.1111(3) 1.1554(6)
H31B H -0.0360 1.1182 1.2122
C31B C -0.0654(3) 1.1486(3) 1.0988(5)
H32B H -0.0609 1.1805 1.1191
C32B C -0.0415(4) 1.0214(4) 1.1894(8)
C33B C -0.0210(5) 0.9844(7) 1.1548(13)
N6B N 0.3995(2) 1.1265(2) 0.7490(4)
C43B C 0.4243(3) 1.1406(3) 0.6736(6)
H36B H 0.4282 1.1739 0.6635
C44B C 0.4444(3) 1.1089(4) 0.6100(6)
H37B H 0.4618 1.1209 0.5592
C45B C 0.4387(3) 1.0596(4) 0.6217(7)
C46B C 0.4128(3) 1.0449(3) 0.7004(7)
H38B H 0.4079 1.0118 0.7115
C47B C 0.3945(3) 1.0784(3) 0.7616(6)
H39B H 0.3778 1.0674 0.8142
C48B C 0.4593(4) 1.0242(4) 0.5512(9)
C49B C 0.4834(7) 0.9868(8) 0.5928(14)
Ni1A Ni 0.80012(3) 0.89478(3) 1.07600(6)
N1A N 0.7978(2) 0.9663(2) 1.1362(4)
C1A C 0.7872(3) 0.9718(3) 1.2267(6)
H1A H 0.7817 0.9441 1.2626
C2A C 0.7841(3) 1.0173(3) 1.2700(7)
H2A H 0.7764 1.0191 1.3332
C3A C 0.7923(3) 1.0596(3) 1.2197(7)
C4A C 0.8045(3) 1.0532(3) 1.1276(6)
H3A H 0.8114 1.0803 1.0907
C5A C 0.8065(2) 1.0076(3) 1.0894(6)
H4A H 0.8146 1.0051 1.0264
C6A C 0.7878(4) 1.1103(3) 1.2650(8)
H5A H 0.7590 1.1109 1.3045
H6A H 0.7836 1.1346 1.2165
C7A C 0.8311(3) 1.1229(3) 1.3219(7)
H7A H 0.8374 1.0968 1.3661
H8A H 0.8593 1.1255 1.2812
C8A C 0.8249(3) 1.1705(3) 1.3750(6)
H9A H 0.8517 1.1737 1.4187
H10A H 0.7951 1.1684 1.4114
C9A C 0.8622(3) 1.2775(3) 1.2227(5)
H11A H 0.8902 1.2881 1.1923
C10A C 0.8632(3) 1.2338(3) 1.2699(6)
H12A H 0.8919 1.2156 1.2705
C11A C 0.8227(3) 1.2161(3) 1.3165(5)
C12A C 0.7811(3) 1.2444(3) 1.3101(5)
H13A H 0.7524 1.2342 1.3385
C13A C 0.7823(3) 1.2877(3) 1.2618(5)
H14A H 0.7537 1.3059 1.2588
N2A N 0.8216(2) 1.3054(2) 1.2191(4)
N3A N 0.8008(2) 0.8221(2) 1.0243(4)
N4A N 0.8174(2) 0.4471(2) 1.0912(4)
C14A C 0.8379(3) 0.7915(3) 1.0378(5)
H15A H 0.8656 0.8030 1.0683
C15A C 0.8373(3) 0.7441(3) 1.0089(6)
H16A H 0.8641 0.7243 1.0209
C16A C 0.7975(3) 0.7251(3) 0.9620(5)
C17A C 0.7585(3) 0.7568(3) 0.9500(5)
H17A H 0.7300 0.7459 0.9218
C18A C 0.7620(3) 0.8039(3) 0.9797(5)
H18A H 0.7359 0.8246 0.9683
C19A C 0.7927(3) 0.6736(3) 0.9251(6)
H19A H 0.7594 0.6691 0.9039
H20A H 0.8137 0.6705 0.8708
C20A C 0.8048(3) 0.6321(2) 0.9920(6)
H21A H 0.8389 0.6336 1.0094
H22A H 0.7854 0.6352 1.0484
C21A C 0.7941(4) 0.5833(3) 0.9449(6)
H23A H 0.8124 0.5822 0.8871
H24A H 0.7598 0.5829 0.9284
C22A C 0.8069(3) 0.4876(3) 1.1375(6)
H25A H 0.8039 0.4860 1.2021
C23A C 0.8000(3) 0.5327(3) 1.0936(6)
H26A H 0.7921 0.5599 1.1294
C24A C 0.8048(3) 0.5374(3) 0.9983(6)
C25A C 0.8156(3) 0.4957(3) 0.9519(6)
H27A H 0.8189 0.4964 0.8873
C26A C 0.8216(3) 0.4523(3) 0.9990(6)
H28A H 0.8292 0.4248 0.9640
Ni2A Ni 0.82231(3) 0.37470(3) 1.15334(6)
O1A O 0.62025(17) 0.34968(16) 1.3221(3)
O2A O 0.67128(19) 0.31151(18) 1.2236(4)
O3A O 0.75673(17) 0.39474(17) 1.2221(4)
O4A O 0.75475(16) 0.36466(16) 1.0802(3)
F1A F 0.6044(3) 0.5502(2) 1.0475(5)
F2A F 0.6113(3) 0.5046(3) 0.9311(6)
F3A F 0.6722(3) 0.5345(3) 0.9846(7)
C34A C 0.6438(2) 0.3911(2) 1.1876(5)
C35A C 0.6837(2) 0.4066(2) 1.1354(5)
C36A C 0.6791(3) 0.4468(3) 1.0792(6)
H33A H 0.7058 0.4567 1.0437
C37A C 0.6371(3) 0.4724(3) 1.0737(6)
C38A C 0.5966(3) 0.4567(3) 1.1229(6)
H34A H 0.5671 0.4732 1.1179
C39A C 0.6005(3) 0.4165(3) 1.1791(5)
H35A H 0.5734 0.4060 1.2124
C40A C 0.6459(3) 0.3467(3) 1.2492(6)
C41A C 0.7343(2) 0.3856(2) 1.1470(5)
C42A C 0.6334(4) 0.5167(4) 1.0148(9)
O5A O 0.74418(16) 0.87350(16) 1.1698(3)
H40A H 0.7243 0.8546 1.1426
H41A H 0.7575 0.8565 1.2122
O6A O 0.66193(18) 0.84276(18) 1.0747(4)
O7A O 0.64397(18) 0.87568(17) 0.9351(4)
O8A O 0.75253(17) 0.91489(17) 0.9713(3)
O9A O 0.7248(2) 0.9739(2) 0.8815(4)
C50A C 0.6558(3) 0.9284(3) 1.0618(5)
C51A C 0.6875(2) 0.9632(2) 1.0286(5)
C52A C 0.6862(3) 1.0104(3) 1.0647(6)
H42A H 0.7074 1.0340 1.0417
C53A C 0.6537(3) 1.0223(3) 1.1341(7)
C54A C 0.6208(4) 0.9880(3) 1.1670(7)
C55A C 0.6225(3) 0.9408(3) 1.1301(7)
H43A H 0.6008 0.9173 1.1519
C56A C 0.6541(3) 0.8773(3) 1.0220(6)
C57A C 0.7243(3) 0.9503(3) 0.9552(6)
C58A C 0.6528(6) 1.0712(4) 1.1739(10)
F4A F 0.6107(3) 1.0922(3) 1.1598(7)
F5A F 0.6874(4) 1.1004(3) 1.1387(7)
F6A F 0.6595(3) 1.0727(3) 1.2642(6)
Ni1B Ni -0.10522(3) 1.19988(3) 0.92400(6)
Ni1D Ni 0.60522(3) 0.30012(3) 1.42400(6)
Ni1G Ni 0.69988(3) 0.60522(3) 0.57600(6)
N2_2 N 0.6946(2) 0.8216(2) 0.7809(4)
N2A_2 N 0.8216(2) 0.3054(2) 1.2191(4)
N5A N 0.8593(2) 0.9138(2) 0.9868(4)
Ni2_2 Ni -0.37470(3) 0.82231(3) 0.84666(6)
Ni2A_2 Ni 0.82231(3) 1.37470(3) 1.15334(6)
Ni2B Ni 0.37470(3) 1.17769(3) 0.84666(6)
Ni2C Ni 0.17769(3) 0.62530(3) 1.15334(6)
O1E O 0.12025(17) 0.84968(16) 0.8221(3)
O1F O 0.84968(16) 0.87975(17) 1.1779(3)
N6A N 0.8735(2) 0.3995(2) 1.2510(4)
O7B O 0.87568(17) 0.35603(18) 1.0649(4)
C59? C 0.5034(14) 0.9217(18) 0.280(3)
F7? F 0.4745(12) 0.9636(11) 0.286(2)
F8? F 0.5483(8) 0.9443(11) 0.3080(16)
F9? F 0.5145(13) 0.9119(12) 0.199(2)
H46? H 0.4880 0.9331 0.9863
H47? H 0.4579 0.9808 0.9887
H48? H 0.5337 0.9957 0.9560
H49? H 0.5315 0.9617 0.8682
H50? H 0.0695 0.9883 1.2247
H51? H 0.0186 0.9654 1.2332
H52? H 0.0130 1.0374 1.2049
H53? H 0.0441 1.0308 1.1141
loop_
_geom_bond_atom_site_label_1
_geom_bond_atom_site_label_2
_geom_bond_site_symmetry_1
_geom_bond_site_symmetry_2
Ni1 N1 1_555 1_555
N1 C1 1_555 1_555
C1 H1 1_555 1_555
C2 C1 1_555 1_555
H2 C2 1_555 1_555
C3 C2 1_555 1_555
C4 C3 1_555 1_555
H3 C4 1_555 1_555
C5 N1 1_555 1_555
H4 C5 1_555 1_555
C6 C3 1_555 1_555
H5 C6 1_555 1_555
H6 C6 1_555 1_555
C7 C6 1_555 1_555
H7 C7 1_555 1_555
H8 C7 1_555 1_555
C8 C7 1_555 1_555
H9 C8 1_555 1_555
H10 C8 1_555 1_555
C9 H11 1_555 1_555
C10 C9 1_555 1_555
H12 C10 1_555 1_555
C11 C8 1_555 1_555
C12 C11 1_555 1_555
H13 C12 1_555 1_555
C13 C12 1_555 1_555
H14 C13 1_555 1_555
N2 C9 1_555 1_555
N3 Ni1 1_555 1_555
N4 C22 1_555 1_555
C14 N3 1_555 1_555
H15 C14 1_555 1_555
C15 C14 1_555 1_555
H16 C15 1_555 1_555
C16 C15 1_555 1_555
C17 C16 1_555 1_555
H17 C17 1_555 1_555
C18 N3 1_555 1_555
H18 C18 1_555 1_555
C19 C16 1_555 1_555
H19 C19 1_555 1_555
H20 C19 1_555 1_555
C20 C19 1_555 1_555
H21 C20 1_555 1_555
H22 C20 1_555 1_555
C21 C20 1_555 1_555
H23 C21 1_555 1_555
H24 C21 1_555 1_555
C22 H25 1_555 1_555
C23 C22 1_555 1_555
H26 C23 1_555 1_555
C24 C21 1_555 1_555
C25 C24 1_555 1_555
H27 C25 1_555 1_555
C26 N4 1_555 1_555
H28 C26 1_555 1_555
N5 Ni1 1_555 1_555
C27 N5 1_555 1_555
H29 C27 1_555 1_555
C28 C27 1_555 1_555
H30 C28 1_555 1_555
C29 C28 1_555 1_555
C30 C29 1_555 1_555
H31 C30 1_555 1_555
C31 N5 1_555 1_555
H32 C31 1_555 1_555
C32 C29 1_555 1_555
C33 C32 1_555 1_555
Ni2 N4 1_555 1_555
O1 C40 1_555 1_555
O2 C40 1_555 1_555
O3 Ni2 1_555 1_555
O4 Ni2 1_555 1_555
F1 C42 1_555 1_555
F2 C42 1_555 1_555
F3 C42 1_555 1_555
C34 C35 1_555 1_555
C35 C36 1_555 1_555
C36 H33 1_555 1_555
C37 C36 1_555 1_555
C38 C37 1_555 1_555
H34 C38 1_555 1_555
C39 C34 1_555 1_555
H35 C39 1_555 1_555
C40 C34 1_555 1_555
C41 O3 1_555 1_555
C42 C37 1_555 1_555
N6 Ni2 1_555 1_555
C43 N6 1_555 1_555
H36 C43 1_555 1_555
C44 C43 1_555 1_555
H37 C44 1_555 1_555
C45 C44 1_555 1_555
C46 C45 1_555 1_555
H38 C46 1_555 1_555
C47 N6 1_555 1_555
H39 C47 1_555 1_555
C48 C45 1_555 1_555
C49 C48 1_555 1_555
O5 Ni1 1_555 1_555
H40 O5 1_555 1_555
H41 O5 1_555 1_555
O6 C56 1_555 1_555
O7 C56 1_555 1_555
O8 Ni1 1_555 1_555
O9 C57 1_555 1_555
C50 C51 1_555 1_555
C51 C52 1_555 1_555
C52 H42 1_555 1_555
C53 C52 1_555 1_555
C54 C53 1_555 1_555
C55 C50 1_555 1_555
H43 C55 1_555 1_555
C56 C50 1_555 1_555
C57 O8 1_555 1_555
C58 C53 1_555 1_555
F4 C58 1_555 1_555
F5 C58 1_555 1_555
F6 C58 1_555 1_555
O10 H44 1_555 1_555
H45 O10 1_555 1_555
N5B C27B 1_555 1_555
C27B H29B 1_555 1_555
C28B C27B 1_555 1_555
H30B C28B 1_555 1_555
C29B C28B 1_555 1_555
C30B C29B 1_555 1_555
H31B C30B 1_555 1_555
C31B N5B 1_555 1_555
H32B C31B 1_555 1_555
C32B C33 1_555 1_555
C33B C32 1_555 1_555
N6B C43B 1_555 1_555
C43B H36B 1_555 1_555
C44B C43B 1_555 1_555
H37B C44B 1_555 1_555
C45B C44B 1_555 1_555
C46B C45B 1_555 1_555
H38B C46B 1_555 1_555
C47B N6B 1_555 1_555
H39B C47B 1_555 1_555
C48B C49 1_555 1_555
C49B C48 1_555 1_555
Ni1A N1A 1_555 1_555
N1A C1A 1_555 1_555
C1A H1A 1_555 1_555
C2A C1A 1_555 1_555
H2A C2A 1_555 1_555
C3A C2A 1_555 1_555
C4A C3A 1_555 1_555
H3A C4A 1_555 1_555
C5A N1A 1_555 1_555
H4A C5A 1_555 1_555
C6A C3A 1_555 1_555
H5A C6A 1_555 1_555
H6A C6A 1_555 1_555
C7A C6A 1_555 1_555
H7A C7A 1_555 1_555
H8A C7A 1_555 1_555
C8A C7A 1_555 1_555
H9A C8A 1_555 1_555
H10A C8A 1_555 1_555
C9A H11A 1_555 1_555
C10A C9A 1_555 1_555
H12A C10A 1_555 1_555
C11A C8A 1_555 1_555
C12A C11A 1_555 1_555
H13A C12A 1_555 1_555
C13A C12A 1_555 1_555
H14A C13A 1_555 1_555
N2A C9A 1_555 1_555
N3A Ni1A 1_555 1_555
N4A C22A 1_555 1_555
C14A N3A 1_555 1_555
H15A C14A 1_555 1_555
C15A C14A 1_555 1_555
H16A C15A 1_555 1_555
C16A C15A 1_555 1_555
C17A C16A 1_555 1_555
H17A C17A 1_555 1_555
C18A N3A 1_555 1_555
H18A C18A 1_555 1_555
C19A C16A 1_555 1_555
H19A C19A 1_555 1_555
H20A C19A 1_555 1_555
C20A C19A 1_555 1_555
H21A C20A 1_555 1_555
H22A C20A 1_555 1_555
C21A C20A 1_555 1_555
H23A C21A 1_555 1_555
H24A C21A 1_555 1_555
C22A H25A 1_555 1_555
C23A C22A 1_555 1_555
H26A C23A 1_555 1_555
C24A C21A 1_555 1_555
C25A C24A 1_555 1_555
H27A C25A 1_555 1_555
C26A N4A 1_555 1_555
H28A C26A 1_555 1_555
Ni2A N4A 1_555 1_555
O1A C40A 1_555 1_555
O2A C40A 1_555 1_555
O3A Ni2A 1_555 1_555
O4A Ni2A 1_555 1_555
F1A C42A 1_555 1_555
F2A C42A 1_555 1_555
F3A C42A 1_555 1_555
C34A C35A 1_555 1_555
C35A C36A 1_555 1_555
C36A H33A 1_555 1_555
C37A C36A 1_555 1_555
C38A C37A 1_555 1_555
H34A C38A 1_555 1_555
C39A C34A 1_555 1_555
H35A C39A 1_555 1_555
C40A C34A 1_555 1_555
C41A O3A 1_555 1_555
C42A C37A 1_555 1_555
O5A Ni1A 1_555 1_555
H40A O5A 1_555 1_555
H41A O5A 1_555 1_555
O6A C56A 1_555 1_555
O7A Ni2 1_555 1_555
O8A Ni1A 1_555 1_555
O9A C57A 1_555 1_555
C50A C51A 1_555 1_555
C51A C52A 1_555 1_555
C52A H42A 1_555 1_555
C53A C52A 1_555 1_555
C54A C53A 1_555 1_555
C55A C50A 1_555 1_555
H43A C55A 1_555 1_555
C56A O7A 1_555 1_555
C57A O8A 1_555 1_555
C58A C53A 1_555 1_555
F4A C58A 1_555 1_555
F5A C58A 1_555 1_555
F6A C58A 1_555 1_555
Ni1B N5B 1_555 1_555
Ni1D O1A 1_555 1_555
Ni1G O1 1_555 1_555
N2_2 Ni2 1_555 1_555
N2A_2 Ni2A 1_555 1_555
N5A Ni1A 1_555 1_555
Ni2_2 N2 1_555 1_555
Ni2A_2 N2A 1_555 1_555
Ni2B N6B 1_555 1_555
Ni2C O7 1_555 1_555
O1E Ni1 1_555 1_555
O1F Ni1A 1_555 1_555
N6A Ni2A 1_555 1_555
O7B Ni2A 1_555 1_555
C4 C5 1_555 1_555
C10 C11 1_555 1_555
C13 N2 1_555 1_555
C17 C18 1_555 1_555
C23 C24 1_555 1_555
C25 C26 1_555 1_555
C30 C31 1_555 1_555
C33 C33B 1_555 1_555
O4 C41 1_555 1_555
C35 C41 1_555 1_555
C38 C39 1_555 1_555
C46 C47 1_555 1_555
C49 C49B 1_555 1_555
C51 C57 1_555 1_555
C54 C55 1_555 1_555
C29B C32B 1_555 1_555
C30B C31B 1_555 1_555
C32B C33B 1_555 1_555
C45B C48B 1_555 1_555
C46B C47B 1_555 1_555
C48B C49B 1_555 1_555
C4A C5A 1_555 1_555
C10A C11A 1_555 1_555
C13A N2A 1_555 1_555
C17A C18A 1_555 1_555
C23A C24A 1_555 1_555
C25A C26A 1_555 1_555
O4A C41A 1_555 1_555
C35A C41A 1_555 1_555
C38A C39A 1_555 1_555
C50A C56A 1_555 1_555
C51A C57A 1_555 1_555
C54A C55A 1_555 1_555

#END
