
#######################################################################
#
#                 Cambridge Crystallographic Data Centre
#                                CCDC 
#
#######################################################################
#
# If this CIF has been generated from an entry in the Cambridge 
# Structural Database, then it will include bibliographic, chemical, 
# crystal, experimental, refinement or atomic coordinate data resulting 
# from the CCDC's data processing and validation procedures.
#
#######################################################################

data_YIHBIC
_symmetry_cell_setting           monoclinic
_symmetry_space_group_name_H-M   'C 2/c'
_symmetry_Int_Tables_number      15
_space_group_name_Hall           '-C 2yn'
loop_
_symmetry_equiv_pos_site_id
_symmetry_equiv_pos_as_xyz
1 x,y,z
2 -x,y,1/2-z
3 1/2+x,1/2+y,z
4 1/2-x,1/2+y,1/2-z
5 -x,-y,-z
6 x,-y,1/2+z
7 1/2-x,1/2-y,-z
8 1/2+x,1/2-y,1/2+z
_cell_length_a                   20.750(4)
_cell_length_b                   11.660(2)
_cell_length_c                   20.045(4)
_cell_angle_alpha                90
_cell_angle_beta                 105.057(2)
_cell_angle_gamma                90
_cell_volume                     4683.28
loop_
_atom_site_label
_atom_site_type_symbol
_atom_site_fract_x
_atom_site_fract_y
_atom_site_fract_z
Cd1 Cd 0.251661(15) 0.35573(3) 0.179306(16)
F1 F 0.4112(2) 0.1957(4) 0.5378(3)
F2 F 0.4954(2) 0.2293(3) 0.5044(2)
F3 F 0.4881(3) 0.3029(4) 0.5950(2)
N1 N 0.34820(19) 0.2647(3) 0.1465(2)
N2 N 0.27047(19) 0.5074(3) 0.11043(19)
N3 N 0.64870(18) -0.0348(3) 0.1635(2)
O1 O 0.2537(2) 0.4033(4) 0.2998(2)
O2 O 0.3451(3) 0.4218(5) 0.2688(2)
O3 O 0.29192(17) 0.6643(3) 0.31691(17)
O4 O 0.31017(17) 0.7514(3) 0.41738(17)
C1 C 0.4066(2) 0.3204(4) 0.1605(2)
H1 H 0.4069 0.3978 0.1719
C2 C 0.4656(2) 0.2702(4) 0.1591(2)
H2 H 0.5046 0.3135 0.1696
C3 C 0.4679(2) 0.1553(4) 0.1423(2)
C4 C 0.4067(2) 0.0981(5) 0.1240(3)
H3 H 0.4045 0.0219 0.1098
C5 C 0.3495(3) 0.1554(5) 0.1271(3)
H4 H 0.3094 0.1155 0.1149
C6 C 0.5311(2) 0.0928(4) 0.1467(2)
C7 C 0.5894(2) 0.1228(4) 0.1937(3)
H5 H 0.5907 0.1881 0.2207
C8 C 0.6459(2) 0.0578(5) 0.2014(3)
H6 H 0.6842 0.0795 0.2347
C9 C 0.5935(2) -0.0608(5) 0.1153(3)
H7 H 0.5947 -0.1230 0.0865
C10 C 0.5350(2) -0.0013(5) 0.1055(3)
H8 H 0.4977 -0.0239 0.0711
C11 C 0.2493(3) 0.4969(4) 0.0420(3)
H9 H 0.2397 0.4238 0.0235
C12 C 0.2407(2) 0.5888(4) -0.0029(2)
H10 H 0.2257 0.5771 -0.0503
C13 C 0.2547(2) 0.6986(4) 0.0233(2)
C14 C 0.2777(3) 0.7091(4) 0.0943(2)
H11 H 0.2885 0.7809 0.1143
C15 C 0.2845(3) 0.6130(4) 0.1351(3)
H12 H 0.2997 0.6223 0.1826
C16 C 0.3138(3) 0.4277(4) 0.3120(3)
C17 C 0.3505(2) 0.4552(4) 0.3856(2)
C18 C 0.3834(2) 0.3639(4) 0.4245(2)
H13 H 0.3824 0.2920 0.4041
C19 C 0.4177(2) 0.3785(4) 0.4934(2)
C20 C 0.4208(3) 0.4844(5) 0.5241(3)
H14 H 0.4451 0.4949 0.5697
C21 C 0.3872(2) 0.5749(4) 0.4862(2)
H15 H 0.3882 0.6463 0.5072
C22 C 0.3519(2) 0.5622(4) 0.4174(2)
C23 C 0.3157(2) 0.6667(4) 0.3809(2)
C24 C 0.4517(3) 0.2774(5) 0.5328(3)
N2F N 0.22953(19) 0.9926(3) -0.11043(19)
C11F C 0.2507(3) 1.0031(4) -0.0420(3)
H9F H 0.2603 1.0762 -0.0235
C12F C 0.2593(2) 0.9112(4) 0.0029(2)
H10F H 0.2743 0.9229 0.0503
C13F C 0.2453(2) 0.8014(4) -0.0233(2)
C14F C 0.2223(3) 0.7909(4) -0.0943(2)
H11F H 0.2115 0.7191 -0.1143
C15F C 0.2155(3) 0.8870(4) -0.1351(3)
H12F H 0.2003 0.8777 -0.1826
Cd1F Cd 0.248339(15) 1.14427(3) -0.179306(16)
F1F F 0.0888(2) 1.3043(4) -0.5378(3)
F2F F 0.0046(2) 1.2707(3) -0.5044(2)
F3F F 0.0119(3) 1.1971(4) -0.5950(2)
N1F N 0.15180(19) 1.2353(3) -0.1465(2)
N3F N -0.14870(18) 1.5348(3) -0.1635(2)
O1F O 0.2463(2) 1.0967(4) -0.2998(2)
O2F O 0.1549(3) 1.0782(5) -0.2688(2)
O3F O 0.20808(17) 0.8357(3) -0.31691(17)
O4F O 0.18983(17) 0.7486(3) -0.41738(17)
C1F C 0.0934(2) 1.1796(4) -0.1605(2)
H1F H 0.0931 1.1022 -0.1719
C2F C 0.0344(2) 1.2298(4) -0.1591(2)
H2F H -0.0046 1.1865 -0.1696
C3F C 0.0321(2) 1.3447(4) -0.1423(2)
C4F C 0.0933(2) 1.4019(5) -0.1240(3)
H3F H 0.0955 1.4781 -0.1098
C5F C 0.1505(3) 1.3446(5) -0.1271(3)
H4F H 0.1906 1.3845 -0.1149
C6F C -0.0311(2) 1.4072(4) -0.1467(2)
C7F C -0.0894(2) 1.3772(4) -0.1937(3)
H5F H -0.0907 1.3119 -0.2207
C8F C -0.1459(2) 1.4422(5) -0.2014(3)
H6F H -0.1842 1.4205 -0.2347
C9F C -0.0935(2) 1.5608(5) -0.1153(3)
H7F H -0.0947 1.6230 -0.0865
C10F C -0.0350(2) 1.5013(5) -0.1055(3)
H8F H 0.0023 1.5239 -0.0711
C16F C 0.1862(3) 1.0723(4) -0.3120(3)
C17F C 0.1495(2) 1.0448(4) -0.3856(2)
C18F C 0.1166(2) 1.1361(4) -0.4245(2)
H13F H 0.1176 1.2080 -0.4041
C19F C 0.0823(2) 1.1215(4) -0.4934(2)
C20F C 0.0792(3) 1.0156(5) -0.5241(3)
H14F H 0.0549 1.0051 -0.5697
C21F C 0.1128(2) 0.9251(4) -0.4862(2)
H15F H 0.1118 0.8537 -0.5072
C22F C 0.1481(2) 0.9378(4) -0.4174(2)
C23F C 0.1843(2) 0.8333(4) -0.3809(2)
C24F C 0.0483(3) 1.2226(5) -0.5328(3)
Cd1B Cd 0.751661(15) -0.14427(3) 0.179306(16)
Cd1C Cd 0.248339(15) 0.85573(3) 0.320694(16)
Cd1D Cd -0.251661(15) 1.64427(3) -0.179306(16)
Cd1E Cd 0.251661(15) 0.64427(3) -0.320694(16)
N3B N 0.14870(18) 0.4652(3) 0.1635(2)
N3D N 0.35130(18) 1.0348(3) -0.1635(2)
O3C O 0.20808(17) 0.1643(3) 0.18309(17)
O3E O 0.29192(17) 1.3357(3) -0.18309(17)
O4C O 0.18983(17) 0.2514(3) 0.08262(17)
O4E O 0.31017(17) 1.2486(3) -0.08262(17)
loop_
_geom_bond_atom_site_label_1
_geom_bond_atom_site_label_2
_geom_bond_site_symmetry_1
_geom_bond_site_symmetry_2
Cd1 N1 1_555 1_555
F1 C24 1_555 1_555
F2 C24 1_555 1_555
F3 C24 1_555 1_555
N1 C1 1_555 1_555
N2 Cd1 1_555 1_555
N3 C8 1_555 1_555
O1 Cd1 1_555 1_555
O2 Cd1 1_555 1_555
O3 C23 1_555 1_555
O4 C23 1_555 1_555
C1 H1 1_555 1_555
C2 C1 1_555 1_555
H2 C2 1_555 1_555
C3 C2 1_555 1_555
C4 C3 1_555 1_555
H3 C4 1_555 1_555
C5 N1 1_555 1_555
H4 C5 1_555 1_555
C6 C3 1_555 1_555
C7 C6 1_555 1_555
H5 C7 1_555 1_555
C8 C7 1_555 1_555
H6 C8 1_555 1_555
C9 N3 1_555 1_555
H7 C9 1_555 1_555
C10 C6 1_555 1_555
H8 C10 1_555 1_555
C11 N2 1_555 1_555
H9 C11 1_555 1_555
C12 C11 1_555 1_555
H10 C12 1_555 1_555
C13 C12 1_555 1_555
C14 C13 1_555 1_555
H11 C14 1_555 1_555
C15 N2 1_555 1_555
H12 C15 1_555 1_555
C16 O1 1_555 1_555
C17 C16 1_555 1_555
C18 C17 1_555 1_555
H13 C18 1_555 1_555
C19 C18 1_555 1_555
C20 C19 1_555 1_555
H14 C20 1_555 1_555
C21 C20 1_555 1_555
H15 C21 1_555 1_555
C22 C17 1_555 1_555
C23 C22 1_555 1_555
C24 C19 1_555 1_555
N2F C11F 1_555 1_555
C11F H9F 1_555 1_555
C12F C11F 1_555 1_555
H10F C12F 1_555 1_555
C13F C13 1_555 1_555
C14F C13F 1_555 1_555
H11F C14F 1_555 1_555
C15F N2F 1_555 1_555
H12F C15F 1_555 1_555
Cd1F N2F 1_555 1_555
F1F C24F 1_555 1_555
F2F C24F 1_555 1_555
F3F C24F 1_555 1_555
N1F Cd1F 1_555 1_555
N3F C8F 1_555 1_555
O1F Cd1F 1_555 1_555
O2F Cd1F 1_555 1_555
O3F C23F 1_555 1_555
O4F C23F 1_555 1_555
C1F N1F 1_555 1_555
H1F C1F 1_555 1_555
C2F C1F 1_555 1_555
H2F C2F 1_555 1_555
C3F C2F 1_555 1_555
C4F C3F 1_555 1_555
H3F C4F 1_555 1_555
C5F N1F 1_555 1_555
H4F C5F 1_555 1_555
C6F C3F 1_555 1_555
C7F C6F 1_555 1_555
H5F C7F 1_555 1_555
C8F C7F 1_555 1_555
H6F C8F 1_555 1_555
C9F N3F 1_555 1_555
H7F C9F 1_555 1_555
C10F C6F 1_555 1_555
H8F C10F 1_555 1_555
C16F O1F 1_555 1_555
C17F C16F 1_555 1_555
C18F C17F 1_555 1_555
H13F C18F 1_555 1_555
C19F C18F 1_555 1_555
C20F C19F 1_555 1_555
H14F C20F 1_555 1_555
C21F C20F 1_555 1_555
H15F C21F 1_555 1_555
C22F C17F 1_555 1_555
C23F C22F 1_555 1_555
C24F C19F 1_555 1_555
Cd1B N3 1_555 1_555
Cd1C O3 1_555 1_555
Cd1D N3F 1_555 1_555
Cd1E O3F 1_555 1_555
N3B Cd1 1_555 1_555
N3D Cd1F 1_555 1_555
O3C Cd1 1_555 1_555
O3E Cd1F 1_555 1_555
O4C Cd1 1_555 1_555
O4E Cd1F 1_555 1_555
O2 C16 1_555 1_555
O4 Cd1C 1_555 1_555
C4 C5 1_555 1_555
C9 C10 1_555 1_555
C14 C15 1_555 1_555
C21 C22 1_555 1_555
C12F C13F 1_555 1_555
C14F C15F 1_555 1_555
O2F C16F 1_555 1_555
O4F Cd1E 1_555 1_555
C4F C5F 1_555 1_555
C9F C10F 1_555 1_555
C21F C22F 1_555 1_555

#END
