
#######################################################################
#
#                 Cambridge Crystallographic Data Centre
#                                CCDC 
#
#######################################################################
#
# If this CIF has been generated from an entry in the Cambridge 
# Structural Database, then it will include bibliographic, chemical, 
# crystal, experimental, refinement or atomic coordinate data resulting 
# from the CCDC's data processing and validation procedures.
#
#######################################################################

data_YIHGIH
_symmetry_cell_setting           monoclinic
_symmetry_space_group_name_H-M   'P 21/c'
_symmetry_Int_Tables_number      14
_space_group_name_Hall           '-P 2ybc'
loop_
_symmetry_equiv_pos_site_id
_symmetry_equiv_pos_as_xyz
1 x,y,z
2 -x,1/2+y,1/2-z
3 -x,-y,-z
4 x,1/2-y,1/2+z
_cell_length_a                   10.250(3)
_cell_length_b                   15.949(4)
_cell_length_c                   17.919(4)
_cell_angle_alpha                90
_cell_angle_beta                 109.67(3)
_cell_angle_gamma                90
_cell_volume                     2758.41
loop_
_atom_site_label
_atom_site_type_symbol
_atom_site_fract_x
_atom_site_fract_y
_atom_site_fract_z
Cu1 Cu 0.73741(3) 1.035958(16) 0.651378(17)
Cu2 Cu 0.81866(3) 0.858693(17) 0.544217(17)
Cu3 Cu 0.68311(3) 0.877969(17) 0.748046(17)
Cu4 Cu 1.00917(3) 0.817517(17) 0.726681(17)
Na1 Na 0.52512(8) 0.89820(5) 0.87255(6)
Na2 Na 0.31777(8) 0.73114(5) 0.77446(5)
O1 O 0.75575(15) 0.84526(10) 0.88048(10)
H1 H 0.7395 0.7980 0.8961
O2 O 0.64373(18) 0.99424(11) 0.97535(11)
H2 H 0.6323 0.9892 1.0256
O3 O 0.57117(15) 0.97240(10) 0.76997(10)
O4 O 0.58903(15) 1.07713(10) 0.68951(10)
O5 O 1.09923(15) 0.75600(10) 0.66101(10)
O6 O 0.98140(15) 0.79897(10) 0.53612(10)
O7 O 0.94324(15) 0.94639(9) 0.59568(10)
O8 O 0.61097(15) 0.95024(9) 0.59698(10)
O9 O 0.83151(14) 0.78158(9) 0.65725(9)
O10 O 0.83463(14) 0.95341(9) 0.76237(10)
O11 O 0.82422(15) 1.14534(10) 0.68244(10)
O12 O 0.70031(15) 0.78809(10) 0.45832(10)
O13 O 0.52241(15) 0.80828(10) 0.73987(10)
O14 O 1.19766(15) 0.85351(10) 0.78878(10)
O15 O 1.01304(16) 1.21787(10) 0.68763(10)
O16 O 0.48154(15) 0.74307(10) 0.40660(9)
O17 O 0.41128(16) 0.69698(10) 0.67370(10)
O18 O 1.31296(15) 0.95799(10) 0.86559(10)
N1 N 0.90206(19) 1.01735(11) 0.62043(11)
N2 N 0.63599(19) 0.89750(11) 0.54534(11)
N3 N 0.72535(18) 0.78632(11) 0.68581(11)
N4 N 0.96179(17) 0.92074(11) 0.77483(11)
C1 C 0.8894(2) 0.87191(16) 0.93173(15)
H3 H 0.9610 0.8359 0.9236
H4 H 0.8933 0.8679 0.9870
H5 H 0.9053 0.9301 0.9196
C2 C 0.7313(3) 1.05902(17) 0.96375(18)
H6 H 0.7013 1.1133 0.9779
H7 H 0.7255 1.0599 0.9080
H8 H 0.8273 1.0482 0.9974
C3 C 0.5370(2) 1.04075(14) 0.73526(15)
H9 H 0.4623 1.0690 0.7444
C4 C 1.0785(2) 0.76319(14) 0.58821(15)
H10 H 1.1463 0.7378 0.5701
C5 C 0.9406(2) 1.15402(14) 0.67125(14)
C6 C 0.5701(2) 0.78982(13) 0.45079(13)
C7 C 0.5100(2) 0.74602(14) 0.69284(14)
C8 C 1.2040(2) 0.92350(14) 0.82416(14)
C9 C 0.9904(2) 1.07855(14) 0.63827(14)
C10 C 0.5331(2) 0.85204(14) 0.50328(14)
C11 C 0.6255(2) 0.73324(14) 0.65941(14)
C12 C 1.0671(2) 0.96571(14) 0.81386(14)
C13 C 1.1297(2) 1.07342(16) 0.63013(16)
H11 H 1.1882 1.0352 0.6703
H12 H 1.1720 1.1293 0.6375
H13 H 1.1207 1.0524 0.5772
C14 C 0.3916(2) 0.85812(15) 0.50901(15)
H14 H 0.3942 0.8391 0.5615
H15 H 0.3276 0.8228 0.4682
H16 H 0.3601 0.9165 0.5011
C15 C 0.6172(2) 0.66444(14) 0.60171(16)
H17 H 0.6917 0.6711 0.5793
H18 H 0.5274 0.6667 0.5590
H19 H 0.6271 0.6102 0.6288
C16 C 1.0597(2) 1.05041(14) 0.84742(16)
H20 H 0.9640 1.0621 0.8441
H21 H 1.0902 1.0928 0.8172
H22 H 1.1200 1.0520 0.9030
Cu4A Cu 0.99083(3) 1.317517(17) 0.773319(17)
Na1_2 Na 1.52512(8) 0.89820(5) 0.87255(6)
Na1C Na 0.52512(8) 0.60180(5) 0.37255(6)
Na2_2 Na 1.31777(8) 0.73114(5) 0.77446(5)
Na2A Na 0.68223(8) 1.23114(5) 0.72554(5)
Na2C Na 0.31777(8) 0.76886(5) 0.27446(5)
O4A O 0.41097(15) 0.57713(10) 0.81049(10)
O5_2 O 0.09923(15) 0.75600(10) 0.66101(10)
O11A O 0.17578(15) 0.64534(10) 0.81756(10)
O14_2 O 0.19766(15) 0.85351(10) 0.78878(10)
O15A O 0.98696(16) 0.71787(10) 0.81237(10)
O16C O 0.48154(15) 0.75693(10) 0.90660(9)
O18_2 O 0.31296(15) 0.95799(10) 0.86559(10)
loop_
_geom_bond_atom_site_label_1
_geom_bond_atom_site_label_2
_geom_bond_site_symmetry_1
_geom_bond_site_symmetry_2
Cu1 O4 1_555 1_555
Cu2 O6 1_555 1_555
Cu3 O1 1_555 1_555
Cu4 O5 1_555 1_555
Na1 O1 1_555 1_555
Na2 O13 1_555 1_555
O1 H1 1_555 1_555
O2 Na1 1_555 1_555
H2 O2 1_555 1_555
O3 Cu3 1_555 1_555
O4 C3 1_555 1_555
O5 C4 1_555 1_555
O6 C4 1_555 1_555
O7 Cu2 1_555 1_555
O8 Cu1 1_555 1_555
O9 Cu2 1_555 1_555
O10 Cu1 1_555 1_555
O11 Cu1 1_555 1_555
O12 Cu2 1_555 1_555
O13 Cu3 1_555 1_555
O14 Cu4 1_555 1_555
O15 C5 1_555 1_555
O16 C6 1_555 1_555
O17 Na2 1_555 1_555
O18 C8 1_555 1_555
N1 Cu1 1_555 1_555
N2 Cu2 1_555 1_555
N3 Cu3 1_555 1_555
N4 Cu4 1_555 1_555
C1 O1 1_555 1_555
H3 C1 1_555 1_555
H4 C1 1_555 1_555
H5 C1 1_555 1_555
C2 O2 1_555 1_555
H6 C2 1_555 1_555
H7 C2 1_555 1_555
H8 C2 1_555 1_555
C3 O3 1_555 1_555
H9 C3 1_555 1_555
C4 H10 1_555 1_555
C5 O11 1_555 1_555
C6 O12 1_555 1_555
C7 O13 1_555 1_555
C8 O14 1_555 1_555
C9 N1 1_555 1_555
C10 N2 1_555 1_555
C11 N3 1_555 1_555
C12 N4 1_555 1_555
C13 C9 1_555 1_555
H11 C13 1_555 1_555
H12 C13 1_555 1_555
H13 C13 1_555 1_555
C14 C10 1_555 1_555
H14 C14 1_555 1_555
H15 C14 1_555 1_555
H16 C14 1_555 1_555
C15 C11 1_555 1_555
H17 C15 1_555 1_555
H18 C15 1_555 1_555
H19 C15 1_555 1_555
C16 C12 1_555 1_555
H20 C16 1_555 1_555
H21 C16 1_555 1_555
H22 C16 1_555 1_555
Cu4A O15 1_555 1_555
Na1_2 O18 1_555 1_555
Na1C O16 1_555 1_555
Na2_2 O5 1_555 1_555
Na2A O4 1_555 1_555
Na2C O16 1_555 1_555
O4A Na2 1_555 1_555
O5_2 Na2 1_555 1_555
O11A Na2 1_555 1_555
O14_2 Na2 1_555 1_555
O15A Cu4 1_555 1_555
O16C Na1 1_555 1_555
O18_2 Na1 1_555 1_555
Cu3 O10 1_555 1_555
Cu4 O9 1_555 1_555
Na1 O3 1_555 1_555
Na1 O13 1_555 1_555
Na2 O16C 1_555 1_555
O7 N1 1_555 1_555
O8 N2 1_555 1_555
O9 N3 1_555 1_555
O10 N4 1_555 1_555
O11 Na2A 1_555 1_555
O14 Na2_2 1_555 1_555
O17 C7 1_555 1_555
C5 C9 1_555 1_555
C6 C10 1_555 1_555
C7 C11 1_555 1_555
C8 C12 1_555 1_555

#END
