
#######################################################################
#
#                 Cambridge Crystallographic Data Centre
#                                CCDC 
#
#######################################################################
#
# If this CIF has been generated from an entry in the Cambridge 
# Structural Database, then it will include bibliographic, chemical, 
# crystal, experimental, refinement or atomic coordinate data resulting 
# from the CCDC's data processing and validation procedures.
#
#######################################################################

data_YIHKUW
_symmetry_cell_setting           monoclinic
_symmetry_space_group_name_H-M   'C 2/c'
_symmetry_Int_Tables_number      15
_space_group_name_Hall           '-C 2yn'
loop_
_symmetry_equiv_pos_site_id
_symmetry_equiv_pos_as_xyz
1 x,y,z
2 1/2+x,1/2+y,z
3 -x,y,1/2-z
4 1/2-x,1/2+y,1/2-z
5 -x,-y,-z
6 1/2-x,1/2-y,-z
7 x,-y,1/2+z
8 1/2+x,1/2-y,1/2+z
_cell_length_a                   22.763(5)
_cell_length_b                   11.720(2)
_cell_length_c                   23.083(5)
_cell_angle_alpha                90
_cell_angle_beta                 94.44(3)
_cell_angle_gamma                90
_cell_volume                     6139.66
loop_
_atom_site_label
_atom_site_type_symbol
_atom_site_fract_x
_atom_site_fract_y
_atom_site_fract_z
Mn1 Mn 0.0000 0.0000 0.0000
Mn2 Mn 0.02730(4) 0.12934(8) 0.18997(4)
O1 O 0.0853(2) 0.0675(4) 0.02874(19)
O2 O 0.0666(2) 0.1314(5) 0.11422(18)
O3 O 0.0686(2) 0.2560(5) 0.2427(2)
O4 O 0.0405(3) 0.2528(5) 0.3320(2)
O5 O 0.0758(2) 0.0113(4) 0.2437(2)
O6 O 0.0391(2) 0.0048(4) 0.3294(2)
N1 N 0.0462(3) -0.1552(5) -0.0358(2)
H1 H 0.0194 -0.2048 -0.0518
H2 H 0.0699 -0.1335 -0.0632
N2 N 0.0060(3) -0.1346(4) 0.0708(2)
H3 H 0.0048 -0.1015 0.1058
H4 H -0.0245 -0.1833 0.0656
C1 C 0.1025(3) 0.1064(5) 0.0771(3)
C2 C 0.1675(3) 0.1256(7) 0.0910(3)
C3 C 0.1802(6) 0.192(2) 0.1417(8)
H5 H 0.1645 0.2670 0.1357
H6 H 0.2221 0.1961 0.1501
H7 H 0.1627 0.1565 0.1738
C4 C 0.1945(6) 0.169(2) 0.0445(7)
H8 H 0.1778 0.2421 0.0341
H9 H 0.1886 0.1179 0.0121
H10 H 0.2359 0.1774 0.0549
C5 C 0.1947(5) 0.0155(15) 0.1044(12)
H11 H 0.2362 0.0255 0.1137
H12 H 0.1885 -0.0340 0.0713
H13 H 0.1773 -0.0179 0.1370
C6 C 0.0706(4) 0.2931(6) 0.2939(3)
C7 C 0.1133(5) 0.3861(7) 0.3099(4)
C8 C 0.1046(7) 0.4463(9) 0.3644(4)
H14 H 0.0705 0.4945 0.3591
H15 H 0.1387 0.4919 0.3753
H16 H 0.0989 0.3916 0.3944
C9 C 0.1269(11) 0.4548(13) 0.2650(6)
H17 H 0.0931 0.4996 0.2521
H18 H 0.1384 0.4086 0.2335
H19 H 0.1588 0.5046 0.2779
C10 C 0.1719(7) 0.3161(16) 0.3287(9)
H20 H 0.2031 0.3682 0.3402
H21 H 0.1828 0.2710 0.2966
H22 H 0.1649 0.2669 0.3607
C11 C 0.0780(3) -0.0206(5) 0.2949(3)
C12 C 0.1304(3) -0.0914(6) 0.3188(3)
C13 C 0.1483(4) -0.0569(11) 0.3805(4)
H23 H 0.1815 -0.1017 0.3951
H24 H 0.1160 -0.0696 0.4041
H25 H 0.1587 0.0225 0.3816
C14 C 0.1820(4) -0.0769(10) 0.2826(4)
H26 H 0.2145 -0.1219 0.2988
H27 H 0.1932 0.0021 0.2824
H28 H 0.1712 -0.1015 0.2436
C15 C 0.1109(5) -0.2128(7) 0.3179(5)
H29 H 0.1429 -0.2605 0.3327
H30 H 0.0989 -0.2348 0.2787
H31 H 0.0784 -0.2213 0.3416
C16 C 0.0803(3) -0.2078(5) 0.0127(3)
C17 C 0.0600(3) -0.1939(6) 0.0676(3)
C18 C 0.0932(4) -0.2387(6) 0.1145(3)
H32 H 0.0791 -0.2312 0.1510
C19 C 0.1462(4) -0.2940(7) 0.1102(4)
C20 C 0.1654(4) -0.3099(7) 0.0549(4)
C21 C 0.1322(4) -0.2641(7) 0.0069(3)
H33 H 0.1457 -0.2721 -0.0299
C22 C 0.1796(5) -0.3419(9) 0.1631(4)
H34 H 0.2152 -0.3772 0.1522
H35 H 0.1558 -0.3976 0.1808
H36 H 0.1893 -0.2814 0.1903
C23 C 0.2230(5) -0.3722(9) 0.0460(5)
H37 H 0.2402 -0.3988 0.0829
H38 H 0.2498 -0.3209 0.0292
H39 H 0.2152 -0.4360 0.0205
Mn2D Mn -0.02730(4) -0.12934(8) -0.18997(4)
Mn2B Mn -0.02730(4) 0.12934(8) 0.31003(4)
O1D O -0.0853(2) -0.0675(4) -0.02874(19)
O2D O -0.0666(2) -0.1314(5) -0.11422(18)
O3B O -0.0686(2) 0.2560(5) 0.2573(2)
O3D O -0.0686(2) -0.2560(5) -0.2427(2)
O4B O -0.0405(3) 0.2528(5) 0.1680(2)
O4F O 0.0405(3) -0.2528(5) -0.1680(2)
O5B O -0.0758(2) 0.0113(4) 0.2563(2)
O5D O -0.0758(2) -0.0113(4) -0.2437(2)
O6B O -0.0391(2) 0.0048(4) 0.1706(2)
O6F O 0.0391(2) -0.0048(4) -0.1706(2)
N1D N -0.0462(3) 0.1552(5) 0.0358(2)
H1D H -0.0194 0.2048 0.0518
H2D H -0.0699 0.1335 0.0632
N2D N -0.0060(3) 0.1346(4) -0.0708(2)
H3D H -0.0048 0.1015 -0.1058
H4D H 0.0245 0.1833 -0.0656
C1D C -0.1025(3) -0.1064(5) -0.0771(3)
C2D C -0.1675(3) -0.1256(7) -0.0910(3)
C3D C -0.1802(6) -0.192(2) -0.1417(8)
H5D H -0.1645 -0.2670 -0.1357
H6D H -0.2221 -0.1961 -0.1501
H7D H -0.1627 -0.1565 -0.1738
C4D C -0.1945(6) -0.169(2) -0.0445(7)
H8D H -0.1778 -0.2421 -0.0341
H9D H -0.1886 -0.1179 -0.0121
H10D H -0.2359 -0.1774 -0.0549
C5D C -0.1947(5) -0.0155(15) -0.1044(12)
H11D H -0.2362 -0.0255 -0.1137
H12D H -0.1885 0.0340 -0.0713
H13D H -0.1773 0.0179 -0.1370
C6B C -0.0706(4) 0.2931(6) 0.2061(3)
C7B C -0.1133(5) 0.3861(7) 0.1901(4)
C8B C -0.1046(7) 0.4463(9) 0.1356(4)
H14B H -0.0705 0.4945 0.1409
H15B H -0.1387 0.4919 0.1247
H16B H -0.0989 0.3916 0.1056
C9B C -0.1269(11) 0.4548(13) 0.2350(6)
H17B H -0.0931 0.4996 0.2479
H18B H -0.1384 0.4086 0.2665
H19B H -0.1588 0.5046 0.2221
C10B C -0.1719(7) 0.3161(16) 0.1713(9)
H20B H -0.2031 0.3682 0.1598
H21B H -0.1828 0.2710 0.2034
H22B H -0.1649 0.2669 0.1393
C11B C -0.0780(3) -0.0206(5) 0.2051(3)
C12B C -0.1304(3) -0.0914(6) 0.1812(3)
C13B C -0.1483(4) -0.0569(11) 0.1195(4)
H23B H -0.1815 -0.1017 0.1049
H24B H -0.1160 -0.0696 0.0959
H25B H -0.1587 0.0225 0.1184
C14B C -0.1820(4) -0.0769(10) 0.2174(4)
H26B H -0.2145 -0.1219 0.2012
H27B H -0.1932 0.0021 0.2176
H28B H -0.1712 -0.1015 0.2564
C15B C -0.1109(5) -0.2128(7) 0.1821(5)
H29B H -0.1429 -0.2605 0.1673
H30B H -0.0989 -0.2348 0.2213
H31B H -0.0784 -0.2213 0.1584
C16D C -0.0803(3) 0.2078(5) -0.0127(3)
C17D C -0.0600(3) 0.1939(6) -0.0676(3)
C18D C -0.0932(4) 0.2387(6) -0.1145(3)
H32D H -0.0791 0.2312 -0.1510
C19D C -0.1462(4) 0.2940(7) -0.1102(4)
C20D C -0.1654(4) 0.3099(7) -0.0549(4)
C21D C -0.1322(4) 0.2641(7) -0.0069(3)
H33D H -0.1457 0.2721 0.0299
C22D C -0.1796(5) 0.3419(9) -0.1631(4)
H34D H -0.2152 0.3772 -0.1522
H35D H -0.1558 0.3976 -0.1808
H36D H -0.1893 0.2814 -0.1903
C23D C -0.2230(5) 0.3722(9) -0.0460(5)
H37D H -0.2402 0.3988 -0.0829
H38D H -0.2498 0.3209 -0.0292
H39D H -0.2152 0.4360 -0.0205
N3 N -0.0524(6) -0.3555(9) 0.0104(6)
C24 C -0.0535(7) -0.4519(11) -0.0870(7)
H40 H -0.0932 -0.4634 -0.1032
H41 H -0.0338 -0.5241 -0.0830
H42 H -0.0331 -0.4035 -0.1124
C25 C -0.0543(7) -0.3992(10) -0.0314(8)
loop_
_geom_bond_atom_site_label_1
_geom_bond_atom_site_label_2
_geom_bond_site_symmetry_1
_geom_bond_site_symmetry_2
Mn1 O1 1_555 1_555
Mn2 O2 1_555 1_555
O1 C1 1_555 1_555
O2 C1 1_555 1_555
O3 Mn2 1_555 1_555
O4 C6 1_555 1_555
O5 Mn2 1_555 1_555
O6 C11 1_555 1_555
N1 Mn1 1_555 1_555
H1 N1 1_555 1_555
H2 N1 1_555 1_555
N2 Mn1 1_555 1_555
H3 N2 1_555 1_555
H4 N2 1_555 1_555
C1 C2 1_555 1_555
C2 C3 1_555 1_555
C3 H5 1_555 1_555
H6 C3 1_555 1_555
H7 C3 1_555 1_555
C4 C2 1_555 1_555
H8 C4 1_555 1_555
H9 C4 1_555 1_555
H10 C4 1_555 1_555
C5 C2 1_555 1_555
H11 C5 1_555 1_555
H12 C5 1_555 1_555
H13 C5 1_555 1_555
C6 O3 1_555 1_555
C7 C6 1_555 1_555
C8 C7 1_555 1_555
H14 C8 1_555 1_555
H15 C8 1_555 1_555
H16 C8 1_555 1_555
C9 C7 1_555 1_555
H17 C9 1_555 1_555
H18 C9 1_555 1_555
H19 C9 1_555 1_555
C10 C7 1_555 1_555
H20 C10 1_555 1_555
H21 C10 1_555 1_555
H22 C10 1_555 1_555
C11 O5 1_555 1_555
C12 C11 1_555 1_555
C13 C12 1_555 1_555
H23 C13 1_555 1_555
H24 C13 1_555 1_555
H25 C13 1_555 1_555
C14 C12 1_555 1_555
H26 C14 1_555 1_555
H27 C14 1_555 1_555
H28 C14 1_555 1_555
C15 C12 1_555 1_555
H29 C15 1_555 1_555
H30 C15 1_555 1_555
H31 C15 1_555 1_555
C16 N1 1_555 1_555
C17 N2 1_555 1_555
C18 C17 1_555 1_555
H32 C18 1_555 1_555
C19 C18 1_555 1_555
C20 C19 1_555 1_555
C21 C16 1_555 1_555
H33 C21 1_555 1_555
C22 C19 1_555 1_555
H34 C22 1_555 1_555
H35 C22 1_555 1_555
H36 C22 1_555 1_555
C23 C20 1_555 1_555
H37 C23 1_555 1_555
H38 C23 1_555 1_555
H39 C23 1_555 1_555
N3 C25 1_555 1_555
C24 H40 1_555 1_555
H41 C24 1_555 1_555
H42 C24 1_555 1_555
C25 C24 1_555 1_555
Mn2D O2D 1_555 1_555
Mn2B O4 1_555 1_555
O1D Mn1 1_555 1_555
O2D C1D 1_555 1_555
O3B Mn2B 1_555 1_555
O3D Mn2D 1_555 1_555
O4B Mn2 1_555 1_555
O4F Mn2D 1_555 1_555
O5B Mn2B 1_555 1_555
O5D Mn2D 1_555 1_555
O6B Mn2 1_555 1_555
O6F Mn2D 1_555 1_555
N1D Mn1 1_555 1_555
H1D N1D 1_555 1_555
H2D N1D 1_555 1_555
N2D Mn1 1_555 1_555
H3D N2D 1_555 1_555
H4D N2D 1_555 1_555
C1D O1D 1_555 1_555
C2D C1D 1_555 1_555
C3D C2D 1_555 1_555
H5D C3D 1_555 1_555
H6D C3D 1_555 1_555
H7D C3D 1_555 1_555
C4D C2D 1_555 1_555
H8D C4D 1_555 1_555
H9D C4D 1_555 1_555
H10D C4D 1_555 1_555
C5D C2D 1_555 1_555
H11D C5D 1_555 1_555
H12D C5D 1_555 1_555
H13D C5D 1_555 1_555
C6B O3B 1_555 1_555
C7B C6B 1_555 1_555
C8B C7B 1_555 1_555
H14B C8B 1_555 1_555
H15B C8B 1_555 1_555
H16B C8B 1_555 1_555
C9B C7B 1_555 1_555
H17B C9B 1_555 1_555
H18B C9B 1_555 1_555
H19B C9B 1_555 1_555
C10B C7B 1_555 1_555
H20B C10B 1_555 1_555
H21B C10B 1_555 1_555
H22B C10B 1_555 1_555
C11B O5B 1_555 1_555
C12B C11B 1_555 1_555
C13B C12B 1_555 1_555
H23B C13B 1_555 1_555
H24B C13B 1_555 1_555
H25B C13B 1_555 1_555
C14B C12B 1_555 1_555
H26B C14B 1_555 1_555
H27B C14B 1_555 1_555
H28B C14B 1_555 1_555
C15B C12B 1_555 1_555
H29B C15B 1_555 1_555
H30B C15B 1_555 1_555
H31B C15B 1_555 1_555
C16D N1D 1_555 1_555
C17D N2D 1_555 1_555
C18D C17D 1_555 1_555
H32D C18D 1_555 1_555
C19D C18D 1_555 1_555
C20D C19D 1_555 1_555
C21D C16D 1_555 1_555
H33D C21D 1_555 1_555
C22D C19D 1_555 1_555
H34D C22D 1_555 1_555
H35D C22D 1_555 1_555
H36D C22D 1_555 1_555
C23D C20D 1_555 1_555
H37D C23D 1_555 1_555
H38D C23D 1_555 1_555
H39D C23D 1_555 1_555
O6 Mn2B 1_555 1_555
C16 C17 1_555 1_555
C20 C21 1_555 1_555
O4B C6B 1_555 1_555
O6B C11B 1_555 1_555
C16D C17D 1_555 1_555
C20D C21D 1_555 1_555

#END
