
#######################################################################
#
#                 Cambridge Crystallographic Data Centre
#                                CCDC 
#
#######################################################################
#
# If this CIF has been generated from an entry in the Cambridge 
# Structural Database, then it will include bibliographic, chemical, 
# crystal, experimental, refinement or atomic coordinate data resulting 
# from the CCDC's data processing and validation procedures.
#
#######################################################################

data_YIHLUY
_symmetry_cell_setting           triclinic
_symmetry_space_group_name_H-M   'P -1'
_symmetry_Int_Tables_number      2
_space_group_name_Hall           '-P 1'
loop_
_symmetry_equiv_pos_site_id
_symmetry_equiv_pos_as_xyz
1 x,y,z
2 -x,-y,-z
_cell_length_a                   11.302(5)
_cell_length_b                   11.733(5)
_cell_length_c                   19.506(5)
_cell_angle_alpha                105.608(5)
_cell_angle_beta                 101.952(5)
_cell_angle_gamma                98.351(5)
_cell_volume                     2381.16
loop_
_atom_site_label
_atom_site_type_symbol
_atom_site_fract_x
_atom_site_fract_y
_atom_site_fract_z
C1 C 0.8172(5) 0.3145(5) 0.3606(3)
C2 C 0.8538(4) 0.2154(4) 0.3098(3)
C3 C 0.9529(5) 0.2370(4) 0.2820(3)
H1 H 0.9980 0.3158 0.2945
C4 C 0.9869(5) 0.1451(5) 0.2361(3)
H2 H 1.0558 0.1613 0.2184
C5 C 0.9190(4) 0.0273(4) 0.2157(3)
C6 C 0.8192(5) 0.0053(4) 0.2447(3)
H3 H 0.7737 -0.0733 0.2323
C7 C 0.7871(5) 0.0983(4) 0.2913(3)
H4 H 0.7201 0.0827 0.3106
C8 C 0.9558(4) -0.0736(5) 0.1664(3)
C9 C 0.8247(4) -0.2928(5) -0.0367(3)
C10 C 0.7332(4) -0.3146(4) -0.1082(3)
C11 C 0.7475(5) -0.2388(5) -0.1500(3)
H5 H 0.8121 -0.1710 -0.1325
C12 C 0.6663(5) -0.2632(5) -0.2173(3)
H6 H 0.6774 -0.2121 -0.2457
C13 C 0.5690(4) -0.3613(4) -0.2438(3)
C14 C 0.5544(5) -0.4370(5) -0.2011(3)
H7 H 0.4886 -0.5037 -0.2181
C15 C 0.6366(5) -0.4140(5) -0.1339(3)
H8 H 0.6269 -0.4657 -0.1058
C16 C 0.4805(4) -0.3893(4) -0.3165(3)
C17 C 0.8928(5) 0.7466(4) 0.4540(3)
C18 C 0.9484(4) 0.8771(4) 0.4770(3)
C19 C 1.0299(5) 0.9315(4) 0.5447(3)
H9 H 1.0502 0.8855 0.5757
C20 C 1.0820(5) 1.0524(5) 0.5674(3)
H10 H 1.1384 1.0874 0.6133
C21 C 1.2979(7) -0.0751(6) 0.0575(5)
C22 C 1.4033(5) -0.0357(6) 0.0284(4)
C23 C 1.3845(6) -0.0438(8) -0.0455(4)
H11 H 1.3050 -0.0723 -0.0765
C24 C 1.4790(6) -0.0113(8) -0.0734(4)
H12 H 1.4643 -0.0207 -0.1235
C25 C 0.7658(5) 0.5455(4) 0.5657(3)
H13 H 0.7158 0.5741 0.5989
H14 H 0.8371 0.6100 0.5753
C26 C 0.8086(4) 0.4356(5) 0.5796(3)
H15 H 0.8718 0.4172 0.5540
H16 H 0.8450 0.4532 0.6319
C27 C 0.4894(5) 0.2978(5) 0.5659(3)
H17 H 0.4676 0.2100 0.5478
H18 H 0.4395 0.3256 0.5993
C28 C 0.6242(5) 0.3396(5) 0.6056(3)
H19 H 0.6394 0.4231 0.6362
H20 H 0.6451 0.2911 0.6377
C29 C 0.6472(5) 0.1109(5) 0.4972(3)
H21 H 0.6799 0.0404 0.4780
H22 H 0.5955 0.0918 0.5282
C30 C 0.7516(5) 0.2160(5) 0.5415(3)
H23 H 0.7874 0.2050 0.5884
H24 H 0.8155 0.2204 0.5154
C31 C 1.1641(6) -0.3418(7) 0.1326(3)
H25 H 1.2411 -0.2841 0.1425
H26 H 1.1791 -0.4226 0.1149
C32 C 1.1227(5) -0.3279(6) 0.2029(3)
H27 H 1.1809 -0.3519 0.2375
H28 H 1.1218 -0.2436 0.2251
C33 C 0.7970(6) -0.4107(6) 0.2192(3)
H29 H 0.7772 -0.4942 0.2188
H30 H 0.7558 -0.3634 0.2520
C34 C 0.9343(5) -0.3630(6) 0.2462(3)
H31 H 0.9516 -0.2752 0.2634
H32 H 0.9668 -0.3907 0.2874
C35 C 0.9978(7) -0.5342(6) 0.1688(4)
H33 H 0.9947 -0.5602 0.2117
H34 H 1.0751 -0.5462 0.1568
C36 C 0.8935(7) -0.6109(6) 0.1062(3)
H35 H 0.9101 -0.6910 0.0883
H36 H 0.8181 -0.6195 0.1224
N1 N 0.7053(3) 0.3302(3) 0.5544(2)
N2 N 0.9966(4) -0.4039(4) 0.1875(2)
O1 O 0.7477(4) 0.2873(3) 0.3973(2)
O2 O 0.8625(3) 0.4211(3) 0.3642(2)
O3 O 1.0441(3) -0.0427(3) 0.1402(2)
O4 O 0.8993(3) -0.1793(3) 0.1537(2)
O5 O 0.9216(3) -0.2162(3) -0.02111(19)
O6 O 0.7973(3) -0.3573(3) 0.00302(19)
O7 O 0.5054(3) -0.3251(3) -0.35610(19)
O8 O 0.3890(3) -0.4737(3) -0.33372(18)
O9 O 0.9364(4) 0.6820(3) 0.4902(2)
O10 O 0.8002(3) 0.7028(3) 0.3984(2)
O11 O 1.3163(5) -0.0791(6) 0.1201(3)
O12 O 1.1931(4) -0.1075(4) 0.0147(3)
O13 O 0.6945(3) 0.5160(3) 0.49080(16)
O14 O 0.4661(3) 0.3462(4) 0.5054(2)
O15 O 0.5760(4) 0.1401(3) 0.4383(2)
O16 O 1.0722(3) -0.3221(3) 0.07721(18)
O17 O 0.7544(3) -0.4035(4) 0.1464(2)
O18 O 0.8774(4) -0.5568(3) 0.0475(2)
Zn1 Zn 0.60808(5) 0.33534(5) 0.45071(3)
Zn2 Zn 0.77381(5) 0.53596(4) 0.41287(3)
Zn3 Zn 1.07424(5) -0.16395(5) 0.06114(3)
Zn4 Zn 0.90033(5) -0.36291(5) 0.09446(3)
H37 H 0.400(3) 0.381(5) 0.499(3)
H38 H 0.512(3) 0.080(2) 0.4061(17)
H39 H 0.680(2) -0.446(4) 0.143(3)
H40 H 0.917(4) -0.5727(13) 0.012(2)
C17A C 1.1072(5) 1.2534(4) 0.5460(3)
C18A C 1.0516(4) 1.1229(4) 0.5230(3)
C19A C 0.9701(5) 1.0685(4) 0.4553(3)
H9A H 0.9498 1.1145 0.4243
C20A C 0.9180(5) 0.9476(5) 0.4326(3)
H10A H 0.8616 0.9126 0.3867
O9A O 1.0636(4) 1.3180(3) 0.5098(2)
O10A O 1.1998(3) 1.2972(3) 0.6016(2)
C21A C 1.7021(7) 0.0751(6) -0.0575(5)
C22A C 1.5967(5) 0.0357(6) -0.0284(4)
C23A C 1.6155(6) 0.0438(8) 0.0455(4)
H11A H 1.6950 0.0723 0.0765
C24A C 1.5210(6) 0.0113(8) 0.0734(4)
H12A H 1.5357 0.0207 0.1235
O11A O 1.6837(5) 0.0791(6) -0.1201(3)
O12A O 1.8069(4) 0.1075(4) -0.0147(3)
C1A C 0.1828(5) -0.3145(5) -0.3606(3)
C2A C 0.1462(4) -0.2154(4) -0.3098(3)
C3A C 0.0471(5) -0.2370(4) -0.2820(3)
H1A H 0.0020 -0.3158 -0.2945
C4A C 0.0131(5) -0.1451(5) -0.2361(3)
H2A H -0.0558 -0.1613 -0.2184
C5A C 0.0810(4) -0.0273(4) -0.2157(3)
C6A C 0.1808(5) -0.0053(4) -0.2447(3)
H3A H 0.2263 0.0733 -0.2323
C7A C 0.2129(5) -0.0983(4) -0.2913(3)
H4A H 0.2799 -0.0827 -0.3106
C8A C 0.0442(4) 0.0736(5) -0.1664(3)
C9A C 0.1753(4) 0.2928(5) 0.0367(3)
C10A C 0.2668(4) 0.3146(4) 0.1082(3)
C11A C 0.2525(5) 0.2388(5) 0.1500(3)
H5A H 0.1879 0.1710 0.1325
C12A C 0.3337(5) 0.2632(5) 0.2173(3)
H6A H 0.3226 0.2121 0.2457
C13A C 0.4310(4) 0.3613(4) 0.2438(3)
C14A C 0.4456(5) 0.4370(5) 0.2011(3)
H7A H 0.5114 0.5037 0.2181
C15A C 0.3634(5) 0.4140(5) 0.1339(3)
H8A H 0.3731 0.4657 0.1058
C16A C 0.5195(4) 0.3893(4) 0.3165(3)
C25A C 0.2342(5) -0.5455(4) -0.5657(3)
H13A H 0.2842 -0.5741 -0.5989
H14A H 0.1629 -0.6100 -0.5753
C26A C 0.1914(4) -0.4356(5) -0.5796(3)
H15A H 0.1282 -0.4172 -0.5540
H16A H 0.1550 -0.4532 -0.6319
C27A C 0.5106(5) -0.2978(5) -0.5659(3)
H17A H 0.5324 -0.2100 -0.5478
H18A H 0.5605 -0.3256 -0.5993
C28A C 0.3758(5) -0.3396(5) -0.6056(3)
H19A H 0.3606 -0.4231 -0.6362
H20A H 0.3549 -0.2911 -0.6377
C29A C 0.3528(5) -0.1109(5) -0.4972(3)
H21A H 0.3201 -0.0404 -0.4780
H22A H 0.4045 -0.0918 -0.5282
C30A C 0.2484(5) -0.2160(5) -0.5415(3)
H23A H 0.2126 -0.2050 -0.5884
H24A H 0.1845 -0.2204 -0.5154
C31A C -0.1641(6) 0.3418(7) -0.1326(3)
H25A H -0.2411 0.2841 -0.1425
H26A H -0.1791 0.4226 -0.1149
C32A C -0.1227(5) 0.3279(6) -0.2029(3)
H27A H -0.1809 0.3519 -0.2375
H28A H -0.1218 0.2436 -0.2251
C33A C 0.2030(6) 0.4107(6) -0.2192(3)
H29A H 0.2228 0.4942 -0.2188
H30A H 0.2442 0.3634 -0.2520
C34A C 0.0657(5) 0.3630(6) -0.2462(3)
H31A H 0.0484 0.2752 -0.2634
H32A H 0.0332 0.3907 -0.2874
C35A C 0.0022(7) 0.5342(6) -0.1688(4)
H33A H 0.0053 0.5602 -0.2117
H34A H -0.0751 0.5462 -0.1568
C36A C 0.1065(7) 0.6109(6) -0.1062(3)
H35A H 0.0899 0.6910 -0.0883
H36A H 0.1819 0.6195 -0.1224
N1A N 0.2947(3) -0.3302(3) -0.5544(2)
N2A N 0.0034(4) 0.4039(4) -0.1875(2)
O1A O 0.2523(4) -0.2873(3) -0.3973(2)
O2A O 0.1375(3) -0.4211(3) -0.3642(2)
O3A O -0.0441(3) 0.0427(3) -0.1402(2)
O4A O 0.1007(3) 0.1793(3) -0.1537(2)
O5A O 0.0784(3) 0.2162(3) 0.02111(19)
O6A O 0.2027(3) 0.3573(3) -0.00302(19)
O7A O 0.4946(3) 0.3251(3) 0.35610(19)
O8A O 0.6110(3) 0.4737(3) 0.33372(18)
O13A O 0.3055(3) -0.5160(3) -0.49080(16)
O14A O 0.5339(3) -0.3462(4) -0.5054(2)
O15A O 0.4240(4) -0.1401(3) -0.4383(2)
O16A O -0.0722(3) 0.3221(3) -0.07721(18)
O17A O 0.2456(3) 0.4035(4) -0.1464(2)
O18A O 0.1226(4) 0.5568(3) -0.0475(2)
Zn1A Zn 0.39192(5) -0.33534(5) -0.45071(3)
Zn2A Zn 0.22619(5) -0.53596(4) -0.41287(3)
Zn3A Zn -0.07424(5) 0.16395(5) -0.06114(3)
Zn4A Zn 0.09967(5) 0.36291(5) -0.09446(3)
H37A H 0.600(3) -0.381(5) -0.499(3)
H38A H 0.488(3) -0.080(2) -0.4061(17)
H39A H 0.320(2) 0.446(4) -0.143(3)
H40A H 0.083(4) 0.5727(13) -0.012(2)
O9A_2 O 0.0636(4) -0.6820(3) -0.4902(2)
O10A_2 O 0.1998(3) -0.7028(3) -0.3984(2)
O12A_2 O -0.1931(4) 0.1075(4) -0.0147(3)
Zn2A_2 Zn 1.22619(5) 1.46404(4) 0.58713(3)
Zn3A_2 Zn 1.92576(5) 0.16395(5) -0.06114(3)
C37 C 0.4920(18) -0.3278(18) 0.0355(11)
H41 H 0.4091 -0.3195 0.0367
H42 H 0.4901 -0.4071 0.0042
H43 H 0.5288 -0.2678 0.0167
O19 O 0.5657(18) -0.3110(17) 0.1107(11)
H44 H 0.5223 -0.3411 0.1329
C38 C 0.2489(14) 0.0662(14) 0.3642(8)
H45 H 0.1724 0.0071 0.3439
H46 H 0.2556 0.1168 0.3333
H47 H 0.2506 0.1152 0.4127
O20 O 0.3523(7) 0.0048(8) 0.3685(4)
H48 H 0.3529 -0.0343 0.3269
loop_
_geom_bond_atom_site_label_1
_geom_bond_atom_site_label_2
_geom_bond_site_symmetry_1
_geom_bond_site_symmetry_2
C1 C2 1_555 1_555
C2 C3 1_555 1_555
C3 H1 1_555 1_555
C4 C3 1_555 1_555
H2 C4 1_555 1_555
C5 C4 1_555 1_555
C6 C5 1_555 1_555
H3 C6 1_555 1_555
C7 C2 1_555 1_555
H4 C7 1_555 1_555
C8 C5 1_555 1_555
C9 C10 1_555 1_555
C10 C11 1_555 1_555
C11 H5 1_555 1_555
C12 C11 1_555 1_555
H6 C12 1_555 1_555
C13 C12 1_555 1_555
C14 C13 1_555 1_555
H7 C14 1_555 1_555
C15 C10 1_555 1_555
H8 C15 1_555 1_555
C16 C13 1_555 1_555
C17 C18 1_555 1_555
C18 C19 1_555 1_555
C19 H9 1_555 1_555
C20 C19 1_555 1_555
H10 C20 1_555 1_555
C21 C22 1_555 1_555
C22 C23 1_555 1_555
C23 H11 1_555 1_555
C24 C23 1_555 1_555
H12 C24 1_555 1_555
C25 H13 1_555 1_555
H14 C25 1_555 1_555
C26 C25 1_555 1_555
H15 C26 1_555 1_555
H16 C26 1_555 1_555
C27 H17 1_555 1_555
H18 C27 1_555 1_555
C28 C27 1_555 1_555
H19 C28 1_555 1_555
H20 C28 1_555 1_555
C29 H21 1_555 1_555
H22 C29 1_555 1_555
C30 C29 1_555 1_555
H23 C30 1_555 1_555
H24 C30 1_555 1_555
C31 H25 1_555 1_555
H26 C31 1_555 1_555
C32 C31 1_555 1_555
H27 C32 1_555 1_555
H28 C32 1_555 1_555
C33 H29 1_555 1_555
H30 C33 1_555 1_555
C34 C33 1_555 1_555
H31 C34 1_555 1_555
H32 C34 1_555 1_555
C35 H33 1_555 1_555
H34 C35 1_555 1_555
C36 C35 1_555 1_555
H35 C36 1_555 1_555
H36 C36 1_555 1_555
N1 C26 1_555 1_555
N2 C32 1_555 1_555
O1 C1 1_555 1_555
O2 C1 1_555 1_555
O3 C8 1_555 1_555
O4 C8 1_555 1_555
O5 C9 1_555 1_555
O6 C9 1_555 1_555
O7 C16 1_555 1_555
O8 C16 1_555 1_555
O9 C17 1_555 1_555
O10 C17 1_555 1_555
O11 C21 1_555 1_555
O12 C21 1_555 1_555
O13 C25 1_555 1_555
O14 C27 1_555 1_555
O15 C29 1_555 1_555
O16 C31 1_555 1_555
O17 C33 1_555 1_555
O18 C36 1_555 1_555
Zn1 N1 1_555 1_555
Zn2 O2 1_555 1_555
Zn3 O3 1_555 1_555
Zn4 N2 1_555 1_555
H37 O14 1_555 1_555
H38 O15 1_555 1_555
H39 O17 1_555 1_555
H40 O18 1_555 1_555
C37 H41 1_555 1_555
H42 C37 1_555 1_555
H43 C37 1_555 1_555
O19 C37 1_555 1_555
H44 O19 1_555 1_555
C38 H45 1_555 1_555
H46 C38 1_555 1_555
H47 C38 1_555 1_555
O20 C38 1_555 1_555
H48 O20 1_555 1_555
C17A C18A 1_555 1_555
C18A C20 1_555 1_555
C19A C18A 1_555 1_555
H9A C19A 1_555 1_555
C20A C18 1_555 1_555
H10A C20A 1_555 1_555
O9A C17A 1_555 1_555
O10A C17A 1_555 1_555
C21A C22A 1_555 1_555
C22A C24 1_555 1_555
C23A C22A 1_555 1_555
H11A C23A 1_555 1_555
C24A C22 1_555 1_555
H12A C24A 1_555 1_555
O11A C21A 1_555 1_555
O12A C21A 1_555 1_555
C1A C2A 1_555 1_555
C2A C3A 1_555 1_555
C3A H1A 1_555 1_555
C4A C3A 1_555 1_555
H2A C4A 1_555 1_555
C5A C4A 1_555 1_555
C6A C5A 1_555 1_555
H3A C6A 1_555 1_555
C7A C2A 1_555 1_555
H4A C7A 1_555 1_555
C8A C5A 1_555 1_555
C9A C10A 1_555 1_555
C10A C11A 1_555 1_555
C11A H5A 1_555 1_555
C12A C11A 1_555 1_555
H6A C12A 1_555 1_555
C13A C12A 1_555 1_555
C14A C13A 1_555 1_555
H7A C14A 1_555 1_555
C15A C10A 1_555 1_555
H8A C15A 1_555 1_555
C16A C13A 1_555 1_555
C25A H13A 1_555 1_555
H14A C25A 1_555 1_555
C26A C25A 1_555 1_555
H15A C26A 1_555 1_555
H16A C26A 1_555 1_555
C27A H17A 1_555 1_555
H18A C27A 1_555 1_555
C28A C27A 1_555 1_555
H19A C28A 1_555 1_555
H20A C28A 1_555 1_555
C29A H21A 1_555 1_555
H22A C29A 1_555 1_555
C30A C29A 1_555 1_555
H23A C30A 1_555 1_555
H24A C30A 1_555 1_555
C31A H25A 1_555 1_555
H26A C31A 1_555 1_555
C32A C31A 1_555 1_555
H27A C32A 1_555 1_555
H28A C32A 1_555 1_555
C33A H29A 1_555 1_555
H30A C33A 1_555 1_555
C34A C33A 1_555 1_555
H31A C34A 1_555 1_555
H32A C34A 1_555 1_555
C35A H33A 1_555 1_555
H34A C35A 1_555 1_555
C36A C35A 1_555 1_555
H35A C36A 1_555 1_555
H36A C36A 1_555 1_555
N1A C26A 1_555 1_555
N2A C32A 1_555 1_555
O1A C1A 1_555 1_555
O2A C1A 1_555 1_555
O3A C8A 1_555 1_555
O4A C8A 1_555 1_555
O5A C9A 1_555 1_555
O6A C9A 1_555 1_555
O7A Zn1 1_555 1_555
O8A Zn2 1_555 1_555
O13A C25A 1_555 1_555
O14A C27A 1_555 1_555
O15A C29A 1_555 1_555
O16A C31A 1_555 1_555
O17A C33A 1_555 1_555
O18A C36A 1_555 1_555
Zn1A O7 1_555 1_555
Zn2A O8 1_555 1_555
Zn3A O3A 1_555 1_555
Zn4A N2A 1_555 1_555
H37A O14A 1_555 1_555
H38A O15A 1_555 1_555
H39A O17A 1_555 1_555
H40A O18A 1_555 1_555
O9A_2 Zn2A 1_555 1_555
O10A_2 Zn2A 1_555 1_555
O12A_2 Zn3A 1_555 1_555
Zn2A_2 O9A 1_555 1_555
Zn3A_2 O12A 1_555 1_555
C6 C7 1_555 1_555
C14 C15 1_555 1_555
C28 N1 1_555 1_555
C30 N1 1_555 1_555
C34 N2 1_555 1_555
C35 N2 1_555 1_555
O1 Zn1 1_555 1_555
O4 Zn4 1_555 1_555
O5 Zn3 1_555 1_555
O6 Zn4 1_555 1_555
O9 Zn2 1_555 1_555
O10 Zn2 1_555 1_555
O12 Zn3 1_555 1_555
O13 Zn1 1_555 1_555
O13 Zn2 1_555 1_555
O14 Zn1 1_555 1_555
O15 Zn1 1_555 1_555
O16 Zn3 1_555 1_555
O16 Zn4 1_555 1_555
O17 Zn4 1_555 1_555
O18 Zn4 1_555 1_555
C19A C20A 1_555 1_555
O10A Zn2A_2 1_555 1_555
C23A C24A 1_555 1_555
C6A C7A 1_555 1_555
C14A C15A 1_555 1_555
C16A O7A 1_555 1_555
C16A O8A 1_555 1_555
C28A N1A 1_555 1_555
C30A N1A 1_555 1_555
C34A N2A 1_555 1_555
C35A N2A 1_555 1_555
N1A Zn1A 1_555 1_555
O1A Zn1A 1_555 1_555
O2A Zn2A 1_555 1_555
O4A Zn4A 1_555 1_555
O5A Zn3A 1_555 1_555
O6A Zn4A 1_555 1_555
O13A Zn1A 1_555 1_555
O13A Zn2A 1_555 1_555
O14A Zn1A 1_555 1_555
O15A Zn1A 1_555 1_555
O16A Zn3A 1_555 1_555
O16A Zn4A 1_555 1_555
O17A Zn4A 1_555 1_555
O18A Zn4A 1_555 1_555

#END
