
#######################################################################
#
#                 Cambridge Crystallographic Data Centre
#                                CCDC 
#
#######################################################################
#
# If this CIF has been generated from an entry in the Cambridge 
# Structural Database, then it will include bibliographic, chemical, 
# crystal, experimental, refinement or atomic coordinate data resulting 
# from the CCDC's data processing and validation procedures.
#
#######################################################################

data_YIHMOS01
_symmetry_cell_setting           monoclinic
_symmetry_space_group_name_H-M   'C 2/c'
_symmetry_Int_Tables_number      15
_space_group_name_Hall           '-C 2yn'
loop_
_symmetry_equiv_pos_site_id
_symmetry_equiv_pos_as_xyz
1 x,y,z
2 1/2+x,1/2+y,z
3 -x,y,1/2-z
4 1/2-x,1/2+y,1/2-z
5 -x,-y,-z
6 1/2-x,1/2-y,-z
7 x,-y,1/2+z
8 1/2+x,1/2-y,1/2+z
_cell_length_a                   20.206(2)
_cell_length_b                   6.0788(6)
_cell_length_c                   20.651(2)
_cell_angle_alpha                90
_cell_angle_beta                 111.385(2)
_cell_angle_gamma                90
_cell_volume                     2361.89
loop_
_atom_site_label
_atom_site_type_symbol
_atom_site_fract_x
_atom_site_fract_y
_atom_site_fract_z
La1 La 0.13702(2) 0.33109(8) 0.46562(2)
O2 O 0.2670(3) 0.3582(9) 0.5628(3)
O3 O 0.1824(3) 0.5390(10) 0.5828(3)
O4 O 0.3931(3) 1.0189(11) 0.6575(3)
O5 O 0.3043(3) 0.8494(9) 0.5775(3)
O6 O 0.0436(3) 0.2480(10) 0.5161(3)
O7 O -0.0465(3) 0.3662(10) 0.5456(3)
O8 O 0.1638(3) -0.0151(10) 0.5368(3)
O9 O 0.0560(3) 0.0425(10) 0.3860(3)
C1 C 0.2467(4) 0.4802(13) 0.6027(4)
C2 C 0.2961(4) 0.5273(13) 0.6748(4)
C3 C 0.2959(5) 0.3774(15) 0.7257(4)
H1 H 0.2667 0.2542 0.7134
C4 C 0.3388(5) 0.4103(16) 0.7943(5)
H2 H 0.3391 0.3076 0.8278
C5 C 0.3811(5) 0.5946(17) 0.8134(4)
H3 H 0.4082 0.6202 0.8599
C6 C 0.3831(5) 0.7413(17) 0.7632(5)
H4 H 0.4124 0.8641 0.7763
C7 C 0.3423(4) 0.7092(13) 0.6934(4)
C8 C 0.3458(4) 0.8695(13) 0.6396(4)
C9 C -0.0005(4) 0.3872(14) 0.5180(4)
La1E La 0.36298(2) 0.16891(8) 0.53438(2)
La1E_2 La 0.36298(2) 1.16891(8) 0.53438(2)
La1D La -0.13702(2) 0.66891(8) 0.53438(2)
La1_2 La 0.13702(2) -0.66891(8) 0.46562(2)
O2E O 0.2330(3) 0.1418(9) 0.4372(3)
O3E O 0.3176(3) -0.0390(10) 0.4172(3)
O4E O 0.1069(3) -0.5189(11) 0.3425(3)
O4E_2 O 0.1069(3) 0.4811(11) 0.3425(3)
O4_2 O 0.3931(3) 0.0189(11) 0.6575(3)
O5E O 0.1957(3) -0.3494(9) 0.4225(3)
O5E_2 O 0.1957(3) 0.6506(9) 0.4225(3)
O5_2 O 0.3043(3) -0.1506(9) 0.5775(3)
O6D O -0.0436(3) 0.7520(10) 0.4839(3)
O6E O 0.4564(3) 0.2520(10) 0.4839(3)
O7D O 0.0465(3) 0.6338(10) 0.4544(3)
O7A O 0.4535(3) -0.1338(10) 0.5456(3)
O8E O 0.3362(3) 0.5151(10) 0.4632(3)
O9E O 0.4440(3) 0.4575(10) 0.6140(3)
C1E C 0.2533(4) 0.0198(13) 0.3973(4)
C2E C 0.2039(4) -0.0273(13) 0.3252(4)
C3E C 0.2041(5) 0.1226(15) 0.2743(4)
H1E H 0.2333 0.2458 0.2866
C4E C 0.1612(5) 0.0897(16) 0.2057(5)
H2E H 0.1609 0.1924 0.1722
C5E C 0.1189(5) -0.0946(17) 0.1866(4)
H3E H 0.0918 -0.1202 0.1401
C6E C 0.1169(5) -0.2413(17) 0.2368(5)
H4E H 0.0876 -0.3641 0.2237
C7E C 0.1577(4) -0.2092(13) 0.3066(4)
C8E C 0.1542(4) -0.3695(13) 0.3604(4)
C9D C 0.0005(4) 0.6128(14) 0.4820(4)
O1 O 0.0000 0.2158(17) 0.2500
loop_
_geom_bond_atom_site_label_1
_geom_bond_atom_site_label_2
_geom_bond_site_symmetry_1
_geom_bond_site_symmetry_2
La1 O2 1_555 1_555
O2 C1 1_555 1_555
O3 La1 1_555 1_555
O4 C8 1_555 1_555
O5 C8 1_555 1_555
O6 La1 1_555 1_555
O7 C9 1_555 1_555
O8 La1 1_555 1_555
O9 La1 1_555 1_555
C1 O3 1_555 1_555
C2 C1 1_555 1_555
C3 C2 1_555 1_555
H1 C3 1_555 1_555
C4 C3 1_555 1_555
H2 C4 1_555 1_555
C5 C4 1_555 1_555
H3 C5 1_555 1_555
C6 C5 1_555 1_555
H4 C6 1_555 1_555
C7 C2 1_555 1_555
C8 C7 1_555 1_555
C9 O6 1_555 1_555
La1E O2 1_555 1_555
La1E_2 O4 1_555 1_555
La1D O7 1_555 1_555
La1_2 O4E 1_555 1_555
O2E La1 1_555 1_555
O3E La1E 1_555 1_555
O4E C8E 1_555 1_555
O4E_2 La1 1_555 1_555
O4_2 La1E 1_555 1_555
O5E La1_2 1_555 1_555
O5E_2 La1 1_555 1_555
O5_2 La1E 1_555 1_555
O6D La1D 1_555 1_555
O6E La1E 1_555 1_555
O7D La1 1_555 1_555
O7A La1E 1_555 1_555
O8E La1E 1_555 1_555
O9E La1E 1_555 1_555
C1E O2E 1_555 1_555
C2E C1E 1_555 1_555
C3E C2E 1_555 1_555
H1E C3E 1_555 1_555
C4E C3E 1_555 1_555
H2E C4E 1_555 1_555
C5E C4E 1_555 1_555
H3E C5E 1_555 1_555
C6E C5E 1_555 1_555
H4E C6E 1_555 1_555
C7E C2E 1_555 1_555
C8E O5E 1_555 1_555
C9D C9 1_555 1_555
O5 La1E_2 1_555 1_555
C6 C7 1_555 1_555
La1E O2E 1_555 1_555
O3E C1E 1_555 1_555
O6D C9D 1_555 1_555
O7D C9D 1_555 1_555
C6E C7E 1_555 1_555
C7E C8E 1_555 1_555

#END
