
#######################################################################
#
#                 Cambridge Crystallographic Data Centre
#                                CCDC 
#
#######################################################################
#
# If this CIF has been generated from an entry in the Cambridge 
# Structural Database, then it will include bibliographic, chemical, 
# crystal, experimental, refinement or atomic coordinate data resulting 
# from the CCDC's data processing and validation procedures.
#
#######################################################################

data_YIHQUC
_symmetry_cell_setting           orthorhombic
_symmetry_space_group_name_H-M   'I m m 2'
_symmetry_Int_Tables_number      44
_space_group_name_Hall           'I 2 -2'
loop_
_symmetry_equiv_pos_site_id
_symmetry_equiv_pos_as_xyz
1 x,y,z
2 -x,-y,z
3 x,-y,z
4 -x,y,z
5 1/2+x,1/2+y,1/2+z
6 1/2-x,1/2-y,1/2+z
7 1/2+x,1/2-y,1/2+z
8 1/2-x,1/2+y,1/2+z
_cell_length_a                   10.3900(6)
_cell_length_b                   9.5446(13)
_cell_length_c                   7.3786(5)
_cell_angle_alpha                90
_cell_angle_beta                 90
_cell_angle_gamma                90
_cell_volume                     731.724
loop_
_atom_site_label
_atom_site_type_symbol
_atom_site_fract_x
_atom_site_fract_y
_atom_site_fract_z
Mn1 Mn 0.5000 0.0000 0.5335
N1 N 0.5000 0.0000 0.2235(5)
N2 N 0.5000 0.0000 -0.1539(5)
C5 C 0.5000 0.1192(3) 0.1262(4)
C6 C 0.5000 0.1187(3) -0.0603(4)
O2 O 0.35022(11) 0.15520(12) 0.5452(2)
H3 H 0.5000 0.2162(41) 0.1868(51)
H4 H 0.5000 0.2017(38) -0.1360(44)
H5 H 0.2961(24) 0.1508(26) 0.6356(26)
H6 H 0.3383(20) 0.2224(28) 0.4818(29)
Mn1_2 Mn 0.5000 0.0000 -0.4665
N2_2 N 0.5000 0.0000 0.8461(5)
C5A C 0.5000 -0.1192(3) 0.1262(4)
C6A C 0.5000 -0.1187(3) -0.0603(4)
O2A O 0.64978(11) -0.15520(12) 0.5452(2)
O2B O 0.35022(11) -0.15520(12) 0.5452(2)
O2C O 0.64978(11) 0.15520(12) 0.5452(2)
H3A H 0.5000 -0.2162(41) 0.1868(51)
H4A H 0.5000 -0.2017(38) -0.1360(44)
H5A H 0.7039(24) -0.1508(26) 0.6356(26)
H5B H 0.2961(24) -0.1508(26) 0.6356(26)
H5C H 0.7039(24) 0.1508(26) 0.6356(26)
H6A H 0.6617(20) -0.2224(28) 0.4818(29)
H6B H 0.3383(20) -0.2224(28) 0.4818(29)
H6C H 0.6617(20) 0.2224(28) 0.4818(29)
C1 C 0.1454(3) 0.0000 -0.1121(3)
C2 C 0.0675(2) 0.0000 0.0607(3)
C3 C 0.1331(3) 0.0000 0.2240(4)
C4 C 0.0663(2) 0.0000 0.3875(3)
O1 O 0.17613(12) 0.11645(13) -0.1778(2)
H1 H 0.2220(31) 0.0000 0.2254(40)
H2 H 0.1084(23) 0.0000 0.5110(39)
C1A C -0.1454(3) 0.0000 -0.1121(3)
C2A C -0.0675(2) 0.0000 0.0607(3)
C3A C -0.1331(3) 0.0000 0.2240(4)
C4A C -0.0663(2) 0.0000 0.3875(3)
O1A O -0.17613(12) -0.11645(13) -0.1778(2)
O1C O -0.17613(12) 0.11645(13) -0.1778(2)
O1B O 0.17613(12) -0.11645(13) -0.1778(2)
H1A H -0.2220(31) 0.0000 0.2254(40)
H2A H -0.1084(23) 0.0000 0.5110(39)
loop_
_geom_bond_atom_site_label_1
_geom_bond_atom_site_label_2
_geom_bond_site_symmetry_1
_geom_bond_site_symmetry_2
Mn1 N1 1_555 1_555
N1 C5 1_555 1_555
N2 C6 1_555 1_555
C1 C2 1_555 1_555
C2 C3 1_555 1_555
C3 C4 1_555 1_555
C4 H2 1_555 1_555
C5 C6 1_555 1_555
C6 H4 1_555 1_555
O1 C1 1_555 1_555
O2 Mn1 1_555 1_555
H1 C3 1_555 1_555
H3 C5 1_555 1_555
H5 O2 1_555 1_555
H6 O2 1_555 1_555
Mn1_2 N2 1_555 1_555
N2_2 Mn1 1_555 1_555
C1A C2A 1_555 1_555
C2A C2 1_555 1_555
C3A C2A 1_555 1_555
C4A C4 1_555 1_555
C5A N1 1_555 1_555
C6A N2 1_555 1_555
O1A C1A 1_555 1_555
O1C C1A 1_555 1_555
O1B C1 1_555 1_555
O2A Mn1 1_555 1_555
O2B Mn1 1_555 1_555
O2C Mn1 1_555 1_555
H1A C3A 1_555 1_555
H2A C4A 1_555 1_555
H3A C5A 1_555 1_555
H4A C6A 1_555 1_555
H5A O2A 1_555 1_555
H5B O2B 1_555 1_555
H5C O2C 1_555 1_555
H6A O2A 1_555 1_555
H6B O2B 1_555 1_555
H6C O2C 1_555 1_555
C3A C4A 1_555 1_555
C5A C6A 1_555 1_555

#END
