
#######################################################################
#
#                 Cambridge Crystallographic Data Centre
#                                CCDC 
#
#######################################################################
#
# If this CIF has been generated from an entry in the Cambridge 
# Structural Database, then it will include bibliographic, chemical, 
# crystal, experimental, refinement or atomic coordinate data resulting 
# from the CCDC's data processing and validation procedures.
#
#######################################################################

data_YIHYUK
_symmetry_cell_setting           triclinic
_symmetry_space_group_name_H-M   'P -1'
_symmetry_Int_Tables_number      2
_space_group_name_Hall           '-P 1'
loop_
_symmetry_equiv_pos_site_id
_symmetry_equiv_pos_as_xyz
1 x,y,z
2 -x,-y,-z
_cell_length_a                   7.541(2)
_cell_length_b                   8.345(2)
_cell_length_c                   11.793(3)
_cell_angle_alpha                106.204(4)
_cell_angle_beta                 90.862(4)
_cell_angle_gamma                97.673(4)
_cell_volume                     705.199
loop_
_atom_site_label
_atom_site_type_symbol
_atom_site_fract_x
_atom_site_fract_y
_atom_site_fract_z
Cu1 Cu 0.66211(8) 0.70963(7) 0.54007(5)
O1 O 0.5704(4) 0.7499(4) 0.3945(3)
O2 O 0.6136(5) 0.5142(4) 0.2554(3)
O3 O 0.9328(4) 0.9005(4) 0.3204(3)
O4 O 0.8244(4) 1.1440(4) 0.3738(3)
O5 O 0.4182(5) 0.6462(4) 0.5837(3)
O6 O 0.6923(6) 0.9993(4) 0.6260(4)
O7 O 0.9010(4) 0.7217(4) 0.4780(3)
N1 N 0.7723(5) 0.6706(5) 0.6854(3)
C1 C 0.5909(6) 0.6635(6) 0.2881(4)
C2 C 0.5789(6) 0.7596(5) 0.1984(4)
C3 C 0.4627(6) 0.6923(6) 0.1004(4)
H1 H 0.4023 0.5834 0.0865
C4 C 0.4343(7) 0.7842(6) 0.0223(4)
H2 H 0.3583 0.7341 -0.0447
C5 C 0.5165(6) 0.9494(5) 0.0414(4)
C6 C 0.6382(6) 1.0159(6) 0.1395(4)
H3 H 0.6982 1.1249 0.1532
C7 C 0.6718(6) 0.9236(6) 0.2172(4)
C8 C 0.8203(6) 0.9947(6) 0.3115(4)
C9 C 0.8459(7) 0.5320(6) 0.6787(4)
H4 H 0.8484 0.4551 0.6046
C10 C 0.9184(7) 0.4959(6) 0.7746(4)
H5 H 0.9679 0.3969 0.7643
C11 C 0.9181(6) 0.6058(6) 0.8862(4)
C12 C 0.8508(7) 0.7563(6) 0.8928(4)
H6 H 0.8550 0.8388 0.9649
C13 C 0.7783(7) 0.7824(6) 0.7928(4)
H7 H 0.7313 0.8820 0.8000
C14 C 0.9778(7) 0.5726(6) 0.9943(4)
H8 H 0.9860 0.6618 1.0630
H9 H 0.418(6) 0.608(5) 0.641(3)
H10 H 0.904(5) 0.770(5) 0.425(3)
H11 H 0.635(5) 1.071(4) 0.614(4)
H12 H 0.346(5) 0.715(5) 0.591(4)
H13 H 0.993(4) 0.755(5) 0.523(3)
H14 H 0.8014(18) 1.035(6) 0.637(6)
Cu1A Cu 0.33789(8) 1.29037(7) -0.54007(5)
Cu1A_2 Cu 1.33789(8) 0.29037(7) 1.45993(5)
O1A O 0.4296(4) 1.2501(4) -0.3945(3)
O2A O 0.3864(5) 1.4858(4) -0.2554(3)
O3A O 0.0672(4) 1.0995(4) -0.3204(3)
O4A O 0.1756(4) 0.8560(4) -0.3738(3)
O5A O 0.5818(5) 1.3538(4) -0.5837(3)
O6A O 0.3077(6) 1.0007(4) -0.6260(4)
O7A O 0.0990(4) 1.2783(4) -0.4780(3)
N1A N 1.2277(5) 0.3294(5) 1.3146(3)
N1A_2 N 0.2277(5) 1.3294(5) -0.6854(3)
C1A C 0.4091(6) 1.3365(6) -0.2881(4)
C2A C 0.4211(6) 1.2404(5) -0.1984(4)
C3A C 0.5373(6) 1.3077(6) -0.1004(4)
H1A H 0.5977 1.4166 -0.0865
C4A C 0.5657(7) 1.2158(6) -0.0223(4)
H2A H 0.6417 1.2659 0.0447
C5A C 0.4835(6) 1.0506(5) -0.0414(4)
C6A C 0.3618(6) 0.9841(6) -0.1395(4)
H3A H 0.3018 0.8751 -0.1532
C7A C 0.3282(6) 1.0764(6) -0.2172(4)
C8A C 0.1797(6) 1.0053(6) -0.3115(4)
C9A C 1.1541(7) 0.4680(6) 1.3213(4)
H4A H 1.1516 0.5449 1.3954
C10A C 1.0816(7) 0.5041(6) 1.2254(4)
H5A H 1.0321 0.6031 1.2357
C11A C 1.0819(6) 0.3942(6) 1.1138(4)
C12A C 1.1492(7) 0.2437(6) 1.1072(4)
H6A H 1.1450 0.1612 1.0351
C13A C 1.2217(7) 0.2176(6) 1.2072(4)
H7A H 1.2687 0.1180 1.2000
C14A C 1.0222(7) 0.4274(6) 1.0057(4)
H8A H 1.0140 0.3382 0.9370
H9A H 0.582(6) 1.392(5) -0.641(3)
H10A H 0.096(5) 1.230(5) -0.425(3)
H11A H 0.365(5) 0.929(4) -0.614(4)
H12A H 0.654(5) 1.285(5) -0.591(4)
H13A H 0.007(4) 1.245(5) -0.523(3)
H14A H 0.1986(18) 0.965(6) -0.637(6)
loop_
_geom_bond_atom_site_label_1
_geom_bond_atom_site_label_2
_geom_bond_site_symmetry_1
_geom_bond_site_symmetry_2
Cu1 O1 1_555 1_555
O1 C1 1_555 1_555
O2 C1 1_555 1_555
O3 C8 1_555 1_555
O4 C8 1_555 1_555
O5 Cu1 1_555 1_555
O6 Cu1 1_555 1_555
O7 Cu1 1_555 1_555
N1 Cu1 1_555 1_555
C1 C2 1_555 1_555
C2 C3 1_555 1_555
C3 H1 1_555 1_555
C4 C3 1_555 1_555
H2 C4 1_555 1_555
C5 C4 1_555 1_555
C6 C5 1_555 1_555
H3 C6 1_555 1_555
C7 C2 1_555 1_555
C8 C7 1_555 1_555
C9 N1 1_555 1_555
H4 C9 1_555 1_555
C10 C9 1_555 1_555
H5 C10 1_555 1_555
C11 C10 1_555 1_555
C12 C11 1_555 1_555
H6 C12 1_555 1_555
C13 N1 1_555 1_555
H7 C13 1_555 1_555
C14 C11 1_555 1_555
H8 C14 1_555 1_555
H9 O5 1_555 1_555
H10 O7 1_555 1_555
H11 O6 1_555 1_555
H12 O5 1_555 1_555
H13 O7 1_555 1_555
H14 O6 1_555 1_555
Cu1A O1A 1_555 1_555
Cu1A_2 N1A 1_555 1_555
O1A C1A 1_555 1_555
O2A C1A 1_555 1_555
O3A C8A 1_555 1_555
O4A C8A 1_555 1_555
O5A Cu1A 1_555 1_555
O6A Cu1A 1_555 1_555
O7A Cu1A 1_555 1_555
N1A C9A 1_555 1_555
N1A_2 Cu1A 1_555 1_555
C1A C2A 1_555 1_555
C2A C3A 1_555 1_555
C3A H1A 1_555 1_555
C4A C3A 1_555 1_555
H2A C4A 1_555 1_555
C5A C5 1_555 1_555
C6A C5A 1_555 1_555
H3A C6A 1_555 1_555
C7A C2A 1_555 1_555
C8A C7A 1_555 1_555
C9A H4A 1_555 1_555
C10A C9A 1_555 1_555
H5A C10A 1_555 1_555
C11A C10A 1_555 1_555
C12A C11A 1_555 1_555
H6A C12A 1_555 1_555
C13A N1A 1_555 1_555
H7A C13A 1_555 1_555
C14A C14 1_555 1_555
H8A C14A 1_555 1_555
H9A O5A 1_555 1_555
H10A O7A 1_555 1_555
H11A O6A 1_555 1_555
H12A O5A 1_555 1_555
H13A O7A 1_555 1_555
H14A O6A 1_555 1_555
C6 C7 1_555 1_555
C12 C13 1_555 1_555
C4A C5A 1_555 1_555
C6A C7A 1_555 1_555
C11A C14A 1_555 1_555
C12A C13A 1_555 1_555

#END
